# Generated by pormake.
# Topology ocu, (6,8)-cn, num edge types: 1
# Building blocks:
#     Node 0, Type 0, BuildingBlock: BETDEL_clean_sbu_0, # of connection points: 6
#     Node 1, Type 0, BuildingBlock: BETDEL_clean_sbu_0, # of connection points: 6
#     Node 2, Type 0, BuildingBlock: BETDEL_clean_sbu_0, # of connection points: 6
#     Node 3, Type 0, BuildingBlock: BETDEL_clean_sbu_0, # of connection points: 6
#     Node 4, Type 0, BuildingBlock: BETDEL_clean_sbu_0, # of connection points: 6
#     Node 5, Type 0, BuildingBlock: BETDEL_clean_sbu_0, # of connection points: 6
#     Node 6, Type 0, BuildingBlock: BETDEL_clean_sbu_0, # of connection points: 6
#     Node 7, Type 0, BuildingBlock: BETDEL_clean_sbu_0, # of connection points: 6
#     Node 8, Type 1, BuildingBlock: AJUNOK_clean_sbu_0, # of connection points: 8
#     Node 9, Type 1, BuildingBlock: AJUNOK_clean_sbu_0, # of connection points: 8
#     Node 10, Type 1, BuildingBlock: AJUNOK_clean_sbu_0, # of connection points: 8
#     Node 11, Type 1, BuildingBlock: AJUNOK_clean_sbu_0, # of connection points: 8
#     Node 12, Type 1, BuildingBlock: AJUNOK_clean_sbu_0, # of connection points: 8
#     Node 13, Type 1, BuildingBlock: AJUNOK_clean_sbu_0, # of connection points: 8
#     Edge 14, Type (0, 1), BuildingBlock: UVAHIK_clean_linker_0, # of connection points: 2
#     Edge 15, Type (0, 1), BuildingBlock: UVAHIK_clean_linker_0, # of connection points: 2
#     Edge 16, Type (0, 1), BuildingBlock: UVAHIK_clean_linker_0, # of connection points: 2
#     Edge 17, Type (0, 1), BuildingBlock: UVAHIK_clean_linker_0, # of connection points: 2
#     Edge 18, Type (0, 1), BuildingBlock: UVAHIK_clean_linker_0, # of connection points: 2
#     Edge 19, Type (0, 1), BuildingBlock: UVAHIK_clean_linker_0, # of connection points: 2
#     Edge 20, Type (0, 1), BuildingBlock: UVAHIK_clean_linker_0, # of connection points: 2
#     Edge 21, Type (0, 1), BuildingBlock: UVAHIK_clean_linker_0, # of connection points: 2
#     Edge 22, Type (0, 1), BuildingBlock: UVAHIK_clean_linker_0, # of connection points: 2
#     Edge 23, Type (0, 1), BuildingBlock: UVAHIK_clean_linker_0, # of connection points: 2
#     Edge 24, Type (0, 1), BuildingBlock: UVAHIK_clean_linker_0, # of connection points: 2
#     Edge 25, Type (0, 1), BuildingBlock: UVAHIK_clean_linker_0, # of connection points: 2
#     Edge 26, Type (0, 1), BuildingBlock: UVAHIK_clean_linker_0, # of connection points: 2
#     Edge 27, Type (0, 1), BuildingBlock: UVAHIK_clean_linker_0, # of connection points: 2
#     Edge 28, Type (0, 1), BuildingBlock: UVAHIK_clean_linker_0, # of connection points: 2
#     Edge 29, Type (0, 1), BuildingBlock: UVAHIK_clean_linker_0, # of connection points: 2
#     Edge 30, Type (0, 1), BuildingBlock: UVAHIK_clean_linker_0, # of connection points: 2
#     Edge 31, Type (0, 1), BuildingBlock: UVAHIK_clean_linker_0, # of connection points: 2
#     Edge 32, Type (0, 1), BuildingBlock: UVAHIK_clean_linker_0, # of connection points: 2
#     Edge 33, Type (0, 1), BuildingBlock: UVAHIK_clean_linker_0, # of connection points: 2
#     Edge 34, Type (0, 1), BuildingBlock: UVAHIK_clean_linker_0, # of connection points: 2
#     Edge 35, Type (0, 1), BuildingBlock: UVAHIK_clean_linker_0, # of connection points: 2
#     Edge 36, Type (0, 1), BuildingBlock: UVAHIK_clean_linker_0, # of connection points: 2
#     Edge 37, Type (0, 1), BuildingBlock: UVAHIK_clean_linker_0, # of connection points: 2
#     Edge 38, Type (0, 1), BuildingBlock: UVAHIK_clean_linker_0, # of connection points: 2
#     Edge 39, Type (0, 1), BuildingBlock: UVAHIK_clean_linker_0, # of connection points: 2
#     Edge 40, Type (0, 1), BuildingBlock: UVAHIK_clean_linker_0, # of connection points: 2
#     Edge 41, Type (0, 1), BuildingBlock: UVAHIK_clean_linker_0, # of connection points: 2
#     Edge 42, Type (0, 1), BuildingBlock: UVAHIK_clean_linker_0, # of connection points: 2
#     Edge 43, Type (0, 1), BuildingBlock: UVAHIK_clean_linker_0, # of connection points: 2
#     Edge 44, Type (0, 1), BuildingBlock: UVAHIK_clean_linker_0, # of connection points: 2
#     Edge 45, Type (0, 1), BuildingBlock: UVAHIK_clean_linker_0, # of connection points: 2
#     Edge 46, Type (0, 1), BuildingBlock: UVAHIK_clean_linker_0, # of connection points: 2
#     Edge 47, Type (0, 1), BuildingBlock: UVAHIK_clean_linker_0, # of connection points: 2
#     Edge 48, Type (0, 1), BuildingBlock: UVAHIK_clean_linker_0, # of connection points: 2
#     Edge 49, Type (0, 1), BuildingBlock: UVAHIK_clean_linker_0, # of connection points: 2
#     Edge 50, Type (0, 1), BuildingBlock: UVAHIK_clean_linker_0, # of connection points: 2
#     Edge 51, Type (0, 1), BuildingBlock: UVAHIK_clean_linker_0, # of connection points: 2
#     Edge 52, Type (0, 1), BuildingBlock: UVAHIK_clean_linker_0, # of connection points: 2
#     Edge 53, Type (0, 1), BuildingBlock: UVAHIK_clean_linker_0, # of connection points: 2
#     Edge 54, Type (0, 1), BuildingBlock: UVAHIK_clean_linker_0, # of connection points: 2
#     Edge 55, Type (0, 1), BuildingBlock: UVAHIK_clean_linker_0, # of connection points: 2
#     Edge 56, Type (0, 1), BuildingBlock: UVAHIK_clean_linker_0, # of connection points: 2
#     Edge 57, Type (0, 1), BuildingBlock: UVAHIK_clean_linker_0, # of connection points: 2
#     Edge 58, Type (0, 1), BuildingBlock: UVAHIK_clean_linker_0, # of connection points: 2
#     Edge 59, Type (0, 1), BuildingBlock: UVAHIK_clean_linker_0, # of connection points: 2
#     Edge 60, Type (0, 1), BuildingBlock: UVAHIK_clean_linker_0, # of connection points: 2
#     Edge 61, Type (0, 1), BuildingBlock: UVAHIK_clean_linker_0, # of connection points: 2
# Relax obj value: 0.134
# Max RMSD: 0.241
# Mean RMSD: 0.196
data_MOF--net-ocu--node1-BETDEL_clean_sbu_0--node2-AJUNOK_clean_sbu_0--edge1-UVAHIK_clean_linker_0
_symmetry_space_group_name_H-M    P1
_symmetry_Int_Tables_number       1
_symmetry_cell_setting            triclinic
loop_
_symmetry_equiv_pos_as_xyz
'x, y, z'
_cell_length_a     51.479113
_cell_length_b     52.693974
_cell_length_c     43.157146
_cell_angle_alpha  97.788545
_cell_angle_beta   97.829784
_cell_angle_gamma 105.61059
loop_
_atom_site_label
_atom_site_type_symbol
_atom_site_fract_x
_atom_site_fract_y
_atom_site_fract_z
_atom_type_partial_charge
Dy0 Dy 0.27108 0.25256 0.28838 0.0
C1 C 0.22359 0.28139 0.17443 0.0
C2 C 0.29076 0.23076 0.3372 0.0
Dy3 Dy 0.24173 0.25805 0.22251 0.0
O4 O 0.29988 0.25562 0.334 0.0
O5 O 0.27051 0.21808 0.31415 0.0
O6 O 0.2989 0.29471 0.29435 0.0
O7 O 0.28335 0.27131 0.2489 0.0
C8 C 0.29664 0.29434 0.26388 0.0
C9 C 0.21672 0.21591 0.24657 0.0
O10 O 0.27058 0.23651 0.20499 0.0
O11 O 0.28323 0.22373 0.2531 0.0
O12 O 0.2124 0.25696 0.17804 0.0
O13 O 0.24495 0.29265 0.19658 0.0
O14 O 0.21444 0.21564 0.21609 0.0
O15 O 0.22958 0.23901 0.26176 0.0
O16 O 0.24152 0.27343 0.30571 0.0
O17 O 0.22917 0.28644 0.25774 0.0
C18 C 0.28287 0.22232 0.22196 0.0
C19 C 0.22913 0.28756 0.28875 0.0
Dy20 Dy 0.78738 0.22906 0.25395 0.0
C21 C 0.71227 0.2749 0.18404 0.0
C22 C 0.81874 0.21136 0.29716 0.0
Dy23 Dy 0.74324 0.25418 0.22413 0.0
O24 O 0.82293 0.21338 0.26842 0.0
O25 O 0.79742 0.21889 0.30217 0.0
O26 O 0.79457 0.2132 0.20549 0.0
O27 O 0.75711 0.21964 0.21097 0.0
C28 C 0.7715 0.21504 0.19085 0.0
C29 C 0.75955 0.26779 0.28728 0.0
O30 O 0.71495 0.21668 0.23253 0.0
O31 O 0.74787 0.20229 0.26235 0.0
O32 O 0.72886 0.28828 0.21005 0.0
O33 O 0.71209 0.24997 0.18025 0.0
O34 O 0.73526 0.26707 0.27315 0.0
O35 O 0.77399 0.26403 0.26684 0.0
O36 O 0.81368 0.26908 0.24943 0.0
O37 O 0.78236 0.2758 0.20968 0.0
C38 C 0.722 0.20014 0.25035 0.0
C39 C 0.80749 0.28206 0.22658 0.0
Dy40 Dy 0.73746 0.75893 0.27335 0.0
C41 C 0.78656 0.72752 0.16369 0.0
C42 C 0.71857 0.77819 0.3251 0.0
Dy43 Dy 0.76992 0.74842 0.21629 0.0
O44 O 0.71224 0.75294 0.31223 0.0
O45 O 0.73573 0.7925 0.31025 0.0
O46 O 0.69682 0.74251 0.23943 0.0
O47 O 0.7309 0.73093 0.22943 0.0
C48 C 0.70697 0.73045 0.21802 0.0
C49 C 0.80094 0.77642 0.27132 0.0
O50 O 0.74833 0.77764 0.19944 0.0
O51 O 0.73601 0.79273 0.24724 0.0
O52 O 0.79578 0.75252 0.17787 0.0
O53 O 0.76795 0.71436 0.1778 0.0
O54 O 0.81062 0.76436 0.24936 0.0
O55 O 0.77689 0.77627 0.2605 0.0
O56 O 0.76054 0.73118 0.29142 0.0
O57 O 0.77234 0.71545 0.24354 0.0
C58 C 0.7378 0.79381 0.21697 0.0
C59 C 0.77111 0.71489 0.27405 0.0
Dy60 Dy 0.27472 0.7279 0.23343 0.0
C61 C 0.22278 0.78503 0.3198 0.0
C62 C 0.29596 0.70245 0.18851 0.0
Dy63 Dy 0.24202 0.75966 0.27269 0.0
O64 O 0.30783 0.72638 0.20487 0.0
O65 O 0.27262 0.69227 0.19693 0.0
O66 O 0.3053 0.73142 0.27799 0.0
O67 O 0.2842 0.76002 0.27407 0.0
C68 C 0.29939 0.75168 0.29288 0.0
C69 C 0.21658 0.7367 0.21356 0.0
O70 O 0.26551 0.79149 0.24931 0.0
O71 O 0.2736 0.76229 0.20861 0.0
O72 O 0.24231 0.79669 0.30578 0.0
O73 O 0.21362 0.75964 0.30792 0.0
O74 O 0.21034 0.75623 0.22965 0.0
O75 O 0.23225 0.72802 0.23155 0.0
O76 O 0.25117 0.69557 0.2556 0.0
O77 O 0.24199 0.72407 0.29607 0.0
C78 C 0.2726 0.78631 0.22124 0.0
C79 C 0.2429 0.70009 0.28301 0.0
Dy80 Dy 0.27398 0.72622 0.76016 0.0
C81 C 0.21754 0.77864 0.67484 0.0
C82 C 0.29686 0.70207 0.804 0.0
Dy83 Dy 0.24323 0.7585 0.7209 0.0
O84 O 0.27263 0.69211 0.78654 0.0
O85 O 0.30872 0.72531 0.79752 0.0
O86 O 0.27463 0.69899 0.71545 0.0
O87 O 0.24316 0.717 0.71714 0.0
C88 C 0.25399 0.70382 0.69907 0.0
C89 C 0.26386 0.78155 0.78177 0.0
O90 O 0.20902 0.73436 0.74062 0.0
O91 O 0.23674 0.72502 0.78215 0.0
O92 O 0.2404 0.79171 0.69402 0.0
O93 O 0.20865 0.75471 0.68101 0.0
O94 O 0.24321 0.78644 0.76536 0.0
O95 O 0.2742 0.7678 0.76372 0.0
O96 O 0.30869 0.75275 0.74341 0.0
O97 O 0.28158 0.76128 0.70059 0.0
C98 C 0.21251 0.72572 0.76784 0.0
C99 C 0.30572 0.76153 0.71621 0.0
Dy100 Dy 0.23706 0.25363 0.77182 0.0
C101 C 0.30122 0.24149 0.67314 0.0
C102 C 0.20991 0.26884 0.81792 0.0
Dy103 Dy 0.27532 0.25866 0.71955 0.0
O104 O 0.19915 0.24925 0.79389 0.0
O105 O 0.23573 0.27921 0.81737 0.0
O106 O 0.21636 0.21074 0.74869 0.0
O107 O 0.23294 0.23966 0.72165 0.0
C108 C 0.22212 0.21515 0.72101 0.0
C109 C 0.29073 0.29695 0.77096 0.0
O110 O 0.24584 0.27931 0.69905 0.0
O111 O 0.22646 0.28452 0.74455 0.0
O112 O 0.30954 0.26522 0.69091 0.0
O113 O 0.27858 0.22778 0.68026 0.0
O114 O 0.29899 0.30079 0.74426 0.0
O115 O 0.27911 0.27257 0.76947 0.0
O116 O 0.26611 0.23246 0.79233 0.0
O117 O 0.28779 0.22941 0.7483 0.0
C118 C 0.22994 0.28963 0.7157 0.0
C119 C 0.28326 0.22334 0.77651 0.0
Dy120 Dy 0.79061 0.22616 0.7531 0.0
C121 C 0.73307 0.28309 0.83133 0.0
C122 C 0.81498 0.20302 0.70965 0.0
Dy123 Dy 0.75509 0.2568 0.78787 0.0
O124 O 0.82512 0.22706 0.7262 0.0
O125 O 0.79177 0.19128 0.71738 0.0
O126 O 0.82268 0.23822 0.79764 0.0
O127 O 0.79823 0.26303 0.78644 0.0
C128 C 0.81595 0.25964 0.80727 0.0
C129 C 0.7292 0.22318 0.73386 0.0
O130 O 0.77039 0.28549 0.75645 0.0
O131 O 0.7815 0.25419 0.72114 0.0
O132 O 0.71964 0.26153 0.81089 0.0
O133 O 0.75849 0.29055 0.82776 0.0
O134 O 0.72237 0.24446 0.74401 0.0
O135 O 0.74733 0.21986 0.75431 0.0
O136 O 0.77534 0.19698 0.78402 0.0
O137 O 0.76117 0.22671 0.81825 0.0
C138 C 0.77692 0.27766 0.72881 0.0
C139 C 0.76685 0.20372 0.81079 0.0
Dy140 Dy 0.76129 0.74701 0.77728 0.0
C141 C 0.71281 0.77395 0.66199 0.0
C142 C 0.77992 0.72458 0.82604 0.0
Dy143 Dy 0.73127 0.7517 0.71103 0.0
O144 O 0.79183 0.74827 0.82069 0.0
O145 O 0.75756 0.71356 0.80524 0.0
O146 O 0.78871 0.7892 0.78249 0.0
O147 O 0.77296 0.76508 0.73725 0.0
C148 C 0.78619 0.78828 0.75187 0.0
C149 C 0.70635 0.71051 0.73667 0.0
O150 O 0.75899 0.72881 0.69335 0.0
O151 O 0.77357 0.71819 0.74226 0.0
O152 O 0.70044 0.75061 0.66793 0.0
O153 O 0.73545 0.78471 0.68238 0.0
O154 O 0.70369 0.70953 0.70604 0.0
O155 O 0.71963 0.73374 0.75108 0.0
O156 O 0.73307 0.76939 0.79466 0.0
O157 O 0.72024 0.78153 0.74615 0.0
C158 C 0.77227 0.71572 0.71089 0.0
C159 C 0.72089 0.78347 0.77738 0.0
Cd160 Cd 0.99042 0.98155 0.54135 0.0
Cd161 Cd 0.02962 0.00595 0.45652 0.0
C162 C 0.03925 0.95787 0.56577 0.0
N163 N 0.01849 0.95323 0.54068 0.0
C164 C 0.03087 0.91588 0.51578 0.0
C165 C 0.05288 0.9206 0.54103 0.0
C166 C 0.05682 0.94184 0.56637 0.0
C167 C 0.01383 0.9325 0.51615 0.0
H168 H 0.04209 0.97393 0.58552 0.0
H169 H 0.99688 0.92873 0.49688 0.0
C170 C 0.97816 0.96116 0.45662 0.0
C171 C 0.97831 0.02736 0.43727 0.0
C172 C 0.96183 0.04443 0.43644 0.0
C173 C 0.96902 0.06816 0.45909 0.0
C174 C 0.99252 0.0737 0.48261 0.0
C175 C 0.00834 0.05593 0.48265 0.0
N176 N 1.00114 0.03343 0.45999 0.0
H177 H 0.97335 0.00963 0.41915 0.0
H178 H 0.02666 0.06041 0.50039 0.0
C179 C 0.04518 0.95158 0.44096 0.0
N180 N 0.05152 0.97334 0.46444 0.0
C181 C 0.08517 0.95772 0.4936 0.0
C182 C 0.07929 0.93505 0.46957 0.0
C183 C 0.05885 0.93217 0.443 0.0
C184 C 0.07111 0.97674 0.49042 0.0
H185 H 0.03004 0.94967 0.42012 0.0
H186 H 0.07629 0.99442 0.50843 0.0
C187 C 0.04543 0.02184 0.5425 0.0
C188 C 0.95325 0.956 0.57847 0.0
N189 N 0.97205 0.01645 0.53296 0.0
C190 C 0.98251 0.04008 0.55366 0.0
C191 C 0.9699 0.06032 0.55235 0.0
C192 C 0.946 0.05602 0.52986 0.0
C193 C 0.93609 0.03174 0.50815 0.0
C194 C 0.94963 0.01215 0.51001 0.0
C195 C 0.06412 0.03327 0.41777 0.0
O196 O 0.98827 0.97569 0.48373 0.0
O197 O 0.98912 0.96809 0.43326 0.0
O198 O 0.03209 0.01223 0.51452 0.0
O199 O 0.03381 0.01509 0.56549 0.0
O200 O 0.95009 0.94779 0.54874 0.0
O201 O 0.97384 0.97604 0.59087 0.0
O202 O 0.07002 0.03887 0.44792 0.0
O203 O 0.04213 0.01475 0.40556 0.0
H204 H 0.99997 0.04284 0.57212 0.0
H205 H 0.94165 0.9932 0.49387 0.0
H206 H 0.02709 0.89984 0.49567 0.0
H207 H 0.07302 0.94579 0.58679 0.0
H208 H 0.94428 0.0396 0.41743 0.0
H209 H 0.99868 0.09161 0.5007 0.0
H210 H 0.10049 0.9609 0.51468 0.0
H211 H 0.05405 0.91565 0.42325 0.0
H212 H 0.9779 0.07855 0.56995 0.0
H213 H 0.91777 0.02773 0.49041 0.0
Cd214 Cd 0.49537 0.99574 0.05518 0.0
Cd215 Cd 0.52097 0.01962 0.95134 0.0
C216 C 0.53134 0.96946 0.10317 0.0
N217 N 0.52916 0.97528 0.07332 0.0
C218 C 0.56491 0.95572 0.06294 0.0
C219 C 0.56744 0.94911 0.09356 0.0
C220 C 0.55028 0.95633 0.11373 0.0
C221 C 0.54558 0.96878 0.05329 0.0
H222 H 0.51816 0.97474 0.11879 0.0
H223 H 0.54355 0.97363 0.02967 0.0
C224 C 0.47199 0.97443 0.96997 0.0
C225 C 0.47846 0.03679 0.9008 0.0
C226 C 0.4608 0.05065 0.88864 0.0
C227 C 0.45604 0.07185 0.90847 0.0
C228 C 0.46942 0.07828 0.94048 0.0
C229 C 0.48695 0.06389 0.95165 0.0
N230 N 0.4912 0.04362 0.93178 0.0
H231 H 0.48201 0.02049 0.88549 0.0
H232 H 0.49729 0.06897 0.9762 0.0
C233 C 0.52648 0.96865 0.9014 0.0
N234 N 0.5345 0.98192 0.93204 0.0
C235 C 0.56813 0.9587 0.94139 0.0
C236 C 0.56107 0.94532 0.90959 0.0
C237 C 0.5394 0.94998 0.88971 0.0
C238 C 0.55454 0.97693 0.95213 0.0
H239 H 0.51097 0.97343 0.88565 0.0
H240 H 0.56086 0.9881 0.9762 0.0
C241 C 0.54273 0.04045 0.03558 0.0
C242 C 0.45181 0.96253 0.07702 0.0
N243 N 0.477 0.03131 0.06916 0.0
C244 C 0.48688 0.04889 0.09716 0.0
C245 C 0.47254 0.0667 0.1074 0.0
C246 C 0.4476 0.06617 0.08886 0.0
C247 C 0.4385 0.04836 0.05956 0.0
C248 C 0.45353 0.03105 0.05018 0.0
C249 C 0.57084 0.04918 0.93756 0.0
O250 O 0.48652 0.98667 0.99666 0.0
O251 O 0.47947 0.98171 0.94486 0.0
O252 O 0.52676 0.02789 0.00983 0.0
O253 O 0.53667 0.03386 0.06154 0.0
O254 O 0.45394 0.95908 0.04782 0.0
O255 O 0.47069 0.9809 0.0961 0.0
O256 O 0.5686 0.04475 0.96542 0.0
O257 O 0.54923 0.04081 0.91627 0.0
H258 H 0.50525 0.04831 0.11219 0.0
H259 H 0.44587 0.01658 0.02829 0.0
H260 H 0.57784 0.95102 0.04658 0.0
H261 H 0.55101 0.95142 0.13733 0.0
H262 H 0.45073 0.04457 0.86397 0.0
H263 H 0.46678 0.09459 0.95668 0.0
H264 H 0.58447 0.95557 0.95766 0.0
H265 H 0.53345 0.94033 0.86497 0.0
H266 H 0.48023 0.07983 0.13029 0.0
H267 H 0.41961 0.04741 0.04429 0.0
Cd268 Cd 1.00078 0.50083 0.05421 0.0
Cd269 Cd 0.01214 0.51542 0.95356 0.0
C270 C 0.05567 0.48255 0.04431 0.0
N271 N 0.03021 0.47375 0.05145 0.0
C272 C 0.03813 0.43245 0.06061 0.0
C273 C 0.06468 0.44105 0.05369 0.0
C274 C 0.07322 0.46639 0.04505 0.0
C275 C 0.02123 0.44918 0.05939 0.0
H276 H 0.06266 0.50231 0.03868 0.0
H277 H 1.00115 0.44284 0.06565 0.0
C278 C 0.96929 0.47044 0.97339 0.0
C279 C 0.95292 0.52361 0.92985 0.0
C280 C 0.93308 0.53704 0.9257 0.0
C281 C 0.93741 0.56252 0.94399 0.0
C282 C 0.9613 0.57321 0.9673 0.0
C283 C 0.98053 0.55895 0.97083 0.0
N284 N 0.97618 0.5348 0.95194 0.0
H285 H 0.95017 0.5047 0.91457 0.0
H286 H 0.99944 0.56759 0.98785 0.0
C287 C 0.02259 0.4613 0.91872 0.0
N288 N 0.03347 0.48174 0.94392 0.0
C289 C 0.07053 0.46388 0.95868 0.0
C290 C 0.05986 0.44245 0.93281 0.0
C291 C 0.03548 0.44138 0.91271 0.0
C292 C 0.05705 0.48345 0.96366 0.0
H293 H 1.00402 0.46061 0.90308 0.0
H294 H 0.06547 0.50015 0.98318 0.0
C295 C 0.04198 0.54542 0.03428 0.0
C296 C 0.97397 0.47928 0.10153 0.0
N297 N 0.97616 0.53205 0.04915 0.0
C298 C 0.98445 0.55556 0.07021 0.0
C299 C 0.96887 0.57355 0.0698 0.0
C300 C 0.94432 0.56722 0.04767 0.0
C301 C 0.93658 0.54297 0.02581 0.0
C302 C 0.95278 0.52556 0.0271 0.0
C303 C 0.03929 0.55096 0.91733 0.0
O304 O 0.98579 0.48577 0.9972 0.0
O305 O 0.97283 0.47534 0.94602 0.0
O306 O 0.02689 0.52813 0.01098 0.0
O307 O 0.03922 0.54127 0.06212 0.0
O308 O 0.96301 0.47273 0.07226 0.0
O309 O 0.99778 0.496 0.10888 0.0
O310 O 0.04753 0.55331 0.94698 0.0
O311 O 0.01878 0.53104 0.90408 0.0
H312 H 1.00273 0.56 0.08806 0.0
H313 H 0.94629 0.50657 0.01094 0.0
H314 H 0.03077 0.4134 0.0681 0.0
H315 H 0.09339 0.47385 0.03928 0.0
H316 H 0.91485 0.52784 0.90773 0.0
H317 H 0.96566 0.59285 0.98176 0.0
H318 H 0.08907 0.46552 0.97503 0.0
H319 H 0.02671 0.42564 0.89211 0.0
H320 H 0.97543 0.59167 0.08758 0.0
H321 H 0.91805 0.53734 0.00805 0.0
Cd322 Cd 0.49968 0.48511 0.04848 0.0
Cd323 Cd 0.52639 0.50029 0.95442 0.0
C324 C 0.55716 0.46957 0.04912 0.0
N325 N 0.52949 0.45867 0.0444 0.0
C326 C 0.53438 0.41448 0.0371 0.0
C327 C 0.56308 0.42522 0.04248 0.0
C328 C 0.57432 0.4532 0.04783 0.0
C329 C 0.51791 0.43166 0.03799 0.0
H330 H 0.56624 0.49094 0.05444 0.0
H331 H 0.49584 0.42348 0.03428 0.0
C332 C 0.47763 0.45738 0.96592 0.0
C333 C 0.47252 0.51473 0.92566 0.0
C334 C 0.45308 0.52858 0.92135 0.0
C335 C 0.45545 0.55178 0.94317 0.0
C336 C 0.47719 0.56021 0.9692 0.0
C337 C 0.49573 0.54534 0.97303 0.0
N338 N 0.4933 0.52324 0.9512 0.0
H339 H 0.4713 0.4974 0.90832 0.0
H340 H 0.51185 0.55144 0.99359 0.0
C341 C 0.53919 0.4433 0.96195 0.0
N342 N 0.55135 0.46999 0.96431 0.0
C343 C 0.59579 0.46343 0.97355 0.0
C344 C 0.58377 0.43564 0.97018 0.0
C345 C 0.55502 0.42579 0.96505 0.0
C346 C 0.57911 0.48029 0.97062 0.0
H347 H 0.51722 0.43518 0.95692 0.0
H348 H 0.58833 0.50158 0.97235 0.0
C349 C 0.54753 0.52998 0.03779 0.0
C350 C 0.46781 0.45856 0.08993 0.0
N351 N 0.47601 0.51656 0.04144 0.0
C352 C 0.48145 0.53733 0.06606 0.0
C353 C 0.46631 0.55564 0.06574 0.0
C354 C 0.44502 0.55229 0.04003 0.0
C355 C 0.44012 0.53086 0.01471 0.0
C356 C 0.45617 0.51334 0.01572 0.0
C357 C 0.55841 0.52763 0.91359 0.0
O358 O 0.49149 0.47313 0.99102 0.0
O359 O 0.48554 0.46126 0.93984 0.0
O360 O 0.53434 0.51458 0.01208 0.0
O361 O 0.53981 0.52461 0.06356 0.0
O362 O 0.46159 0.45167 0.05991 0.0
O363 O 0.48944 0.47786 0.10107 0.0
O364 O 0.56322 0.53529 0.9435 0.0
O365 O 0.53865 0.50654 0.90226 0.0
H366 H 0.49704 0.53918 0.08645 0.0
H367 H 0.45257 0.49717 0.99599 0.0
H368 H 0.52471 0.39308 0.03321 0.0
H369 H 0.59623 0.46249 0.05129 0.0
H370 H 0.43688 0.5217 0.90063 0.0
H371 H 0.4795 0.57778 0.98679 0.0
H372 H 0.61781 0.47205 0.97708 0.0
H373 H 0.54472 0.40467 0.96307 0.0
H374 H 0.47041 0.5715 0.08613 0.0
H375 H 0.42412 0.52773 0.99427 0.0
Cd376 Cd 0.98097 0.48363 0.54724 0.0
Cd377 Cd 1.00372 0.50519 0.44244 0.0
C378 C 0.02742 0.4699 0.59635 0.0
N379 N 0.01521 0.4639 0.56519 0.0
C380 C 0.04106 0.43307 0.55428 0.0
C381 C 0.05386 0.4386 0.58644 0.0
C382 C 0.04688 0.45751 0.60749 0.0
C383 C 0.02179 0.44601 0.54414 0.0
H384 H 0.02177 0.4841 0.61268 0.0
H385 H 0.01185 0.4416 0.51946 0.0
C386 C 0.95655 0.46129 0.46322 0.0
C387 C 0.94725 0.51594 0.4073 0.0
C388 C 0.92954 0.53052 0.39716 0.0
C389 C 0.93741 0.55859 0.40633 0.0
C390 C 0.96308 0.5711 0.42614 0.0
C391 C 0.98004 0.55574 0.43589 0.0
N392 N 0.97203 0.52868 0.4263 0.0
H393 H 0.94131 0.49447 0.39955 0.0
H394 H 0.99984 0.56549 0.45091 0.0
C395 C 0.01398 0.45395 0.39926 0.0
N396 N 0.0214 0.46887 0.42908 0.0
C397 C 0.05745 0.4489 0.44109 0.0
C398 C 0.05112 0.43407 0.40994 0.0
C399 C 0.02854 0.43633 0.38921 0.0
C400 C 0.04236 0.46631 0.45013 0.0
H401 H 0.99757 0.45666 0.38275 0.0
H402 H 0.04827 0.47883 0.47347 0.0
C403 C 0.03073 0.5258 0.5268 0.0
C404 C 0.93874 0.44718 0.56755 0.0
N405 N 0.96436 0.51996 0.56397 0.0
C406 C 0.96478 0.52727 0.59553 0.0
C407 C 0.95127 0.54567 0.60603 0.0
C408 C 0.93737 0.55712 0.58396 0.0
C409 C 0.93836 0.54997 0.55154 0.0
C410 C 0.95182 0.53115 0.54203 0.0
C411 C 0.04665 0.5342 0.41607 0.0
O412 O 0.97141 0.47566 0.48877 0.0
O413 O 0.96311 0.46651 0.43694 0.0
O414 O 0.01441 0.51439 0.50091 0.0
O415 O 0.02408 0.51925 0.55256 0.0
O416 O 0.94147 0.44459 0.53855 0.0
O417 O 0.95658 0.46605 0.58717 0.0
O418 O 0.04679 0.53871 0.44582 0.0
O419 O 0.02565 0.5171 0.39854 0.0
H420 H 0.97472 0.51801 0.61256 0.0
H421 H 0.9516 0.5249 0.51703 0.0
H422 H 0.04597 0.41897 0.53704 0.0
H423 H 0.05588 0.46225 0.63253 0.0
H424 H 0.91017 0.51996 0.3816 0.0
H425 H 0.97 0.59259 0.43417 0.0
H426 H 0.07479 0.44819 0.45786 0.0
H427 H 0.02257 0.42509 0.36515 0.0
H428 H 0.9509 0.54997 0.63118 0.0
H429 H 0.92855 0.5585 0.53354 0.0
Cd430 Cd 0.49418 0.99381 0.54087 0.0
Cd431 Cd 0.51087 0.00906 0.44326 0.0
C432 C 0.54825 0.97653 0.56062 0.0
N433 N 0.5259 0.96934 0.53699 0.0
C434 C 0.53849 0.93113 0.51491 0.0
C435 C 0.56158 0.93794 0.5393 0.0
C436 C 0.56652 0.96122 0.56208 0.0
C437 C 0.52089 0.94727 0.51412 0.0
H438 H 0.55141 0.99372 0.57904 0.0
H439 H 0.50291 0.94182 0.49567 0.0
C440 C 0.46189 0.96886 0.45875 0.0
C441 C 0.46 0.03164 0.42592 0.0
C442 C 0.44298 0.04825 0.42648 0.0
C443 C 0.4495 0.07099 0.45053 0.0
C444 C 0.47316 0.07616 0.47377 0.0
C445 C 0.48963 0.05894 0.4723 0.0
N446 N 0.48281 0.0372 0.44859 0.0
H447 H 0.45531 0.01455 0.40694 0.0
H448 H 0.50801 0.06314 0.48988 0.0
C449 C 0.51603 0.94821 0.42717 0.0
N450 N 0.52981 0.97314 0.44386 0.0
C451 C 0.56999 0.95936 0.45725 0.0
C452 C 0.55648 0.93355 0.43965 0.0
C453 C 0.52893 0.92801 0.425 0.0
C454 C 0.55622 0.97892 0.45897 0.0
H455 H 0.49526 0.94408 0.4147 0.0
H456 H 0.56689 -0.00096 0.47144 0.0
C457 C 0.5426 0.03531 0.52557 0.0
C458 C 0.46655 0.9635 0.58191 0.0
N459 N 0.47726 0.03086 0.54815 0.0
C460 C 0.48897 0.05092 0.57357 0.0
C461 C 0.47791 0.07221 0.57938 0.0
C462 C 0.45428 0.07274 0.55913 0.0
C463 C 0.44289 0.05189 0.53275 0.0
C464 C 0.45476 0.03105 0.52771 0.0
C465 C 0.53943 0.03201 0.39791 0.0
O466 O 0.47864 0.98235 0.48355 0.0
O467 O 0.46721 0.97428 0.43213 0.0
O468 O 0.52643 0.02182 0.50042 0.0
O469 O 0.5364 0.03052 0.55205 0.0
O470 O 0.45455 0.96393 0.55434 0.0
O471 O 0.49113 0.97826 0.59096 0.0
O472 O 0.54971 0.03792 0.42739 0.0
O473 O 0.51549 0.01566 0.38962 0.0
H474 H 0.50665 0.05016 0.58971 0.0
H475 H 0.4457 0.01471 0.50782 0.0
H476 H 0.53398 0.91343 0.49678 0.0
H477 H 0.58371 0.96697 0.58168 0.0
H478 H 0.42536 0.04374 0.40761 0.0
H479 H 0.4789 0.09328 0.49292 0.0
H480 H 0.59129 0.96476 0.46861 0.0
H481 H 0.51754 0.90835 0.41151 0.0
H482 H 0.48765 0.08797 0.59977 0.0
H483 H 0.42455 0.05123 0.51666 0.0
C484 C 0.20545 0.19726 0.29469 0.0
C485 C 0.20311 0.19363 0.26149 0.0
C486 C 0.19227 0.17655 0.30915 0.0
C487 C 0.13287 0.11797 0.29533 0.0
H488 H 0.16987 0.10228 0.37168 0.0
C489 C 0.07606 0.04059 0.36465 0.0
C490 C 0.08176 0.04812 0.39793 0.0
C491 C 0.09227 0.05533 0.34595 0.0
C492 C 0.15918 0.10654 0.35051 0.0
H493 H 0.18509 0.16566 0.21728 0.0
H494 H 0.16138 0.12938 0.24268 0.0
H495 H 0.19581 0.1337 0.34247 0.0
H496 H 0.10903 0.0768 0.43775 0.0
H497 H 0.13681 0.10282 0.40524 0.0
H498 H 0.09601 0.09173 0.30398 0.0
C499 C 0.17369 0.14823 0.25743 0.0
C500 C 0.17407 0.12444 0.33374 0.0
C501 C 0.18725 0.16891 0.24294 0.0
C502 C 0.10417 0.07042 0.41216 0.0
C503 C 0.12024 0.08523 0.39349 0.0
C504 C 0.1179 0.10023 0.31226 0.0
C505 C 0.17611 0.1519 0.29069 0.0
C506 C 0.16096 0.1307 0.30633 0.0
C507 C 0.11442 0.07798 0.36015 0.0
C508 C 0.13077 0.09471 0.34042 0.0
H509 H 0.21722 0.21624 0.30954 0.0
H510 H 0.19412 0.18009 0.33479 0.0
H511 H 0.12222 0.12264 0.27442 0.0
H512 H 0.059 0.02339 0.35301 0.0
H513 H 0.08743 0.04898 0.32037 0.0
C514 C 0.85662 0.19168 0.31193 0.0
C515 C 0.83537 0.20149 0.32053 0.0
C516 C 0.87184 0.18154 0.33377 0.0
C517 C 0.86827 0.15265 0.40681 0.0
H518 H 0.94524 0.16152 0.40509 0.0
C519 C 0.9245 0.07883 0.44638 0.0
C520 C 0.9531 0.08772 0.45648 0.0
C521 C 0.9102 0.09669 0.43807 0.0
C522 C 0.92392 0.15923 0.40652 0.0
H523 H 0.81363 0.20902 0.35876 0.0
H524 H 0.84051 0.19163 0.3972 0.0
H525 H 0.92108 0.18595 0.37399 0.0
H526 H 0.98866 0.12288 0.46883 0.0
H527 H 0.96358 0.15415 0.45542 0.0
H528 H 0.8712 0.12589 0.43943 0.0
C529 C 0.84516 0.19136 0.37344 0.0
C530 C 0.90993 0.17294 0.38819 0.0
C531 C 0.82985 0.20141 0.3515 0.0
C532 C 0.96667 0.11528 0.46095 0.0
C533 C 0.95232 0.13319 0.4529 0.0
C534 C 0.88234 0.13903 0.42534 0.0
C535 C 0.86624 0.18116 0.36477 0.0
C536 C 0.88176 0.16921 0.38736 0.0
C537 C 0.92415 0.12391 0.43994 0.0
C538 C 0.91016 0.14158 0.42473 0.0
H539 H 0.86121 0.19145 0.28815 0.0
H540 H 0.88758 0.1734 0.32607 0.0
H541 H 0.84655 0.14925 0.40669 0.0
H542 H 0.91332 0.05782 0.44353 0.0
H543 H 0.88852 0.08875 0.42825 0.0
C544 C 0.7997 0.78691 0.32924 0.0
C545 C 0.81457 0.78409 0.30478 0.0
C546 C 0.81309 0.79541 0.3608 0.0
C547 C 0.88221 0.81372 0.41242 0.0
H548 H 0.86521 0.87989 0.43823 0.0
C549 C 0.95833 0.9135 0.43118 0.0
C550 C 0.9575 0.9352 0.45325 0.0
C551 C 0.93962 0.88843 0.42876 0.0
C552 C 0.86992 0.86117 0.43239 0.0
H553 H 0.85473 0.78543 0.29403 0.0
H554 H 0.87846 0.80123 0.34872 0.0
H555 H 0.83079 0.84309 0.40285 0.0
H556 H 0.93698 0.94797 0.49025 0.0
H557 H 0.90342 0.90405 0.48542 0.0
H558 H 0.92251 0.83327 0.43924 0.0
C559 C 0.85632 0.79655 0.34393 0.0
C560 C 0.85012 0.83995 0.41202 0.0
C561 C 0.84283 0.78797 0.31247 0.0
C562 C 0.93798 0.93142 0.47322 0.0
C563 C 0.91896 0.90636 0.47057 0.0
C564 C 0.90207 0.83503 0.43266 0.0
C565 C 0.84171 0.80123 0.36834 0.0
C566 C 0.857 0.81705 0.39958 0.0
C567 C 0.91953 0.8847 0.44812 0.0
C568 C 0.89673 0.85966 0.44037 0.0
H569 H 0.77781 0.78262 0.32401 0.0
H570 H 0.80124 0.79846 0.37913 0.0
H571 H 0.88769 0.79589 0.40396 0.0
H572 H 0.97351 0.91586 0.41585 0.0
H573 H 0.94011 0.87226 0.41066 0.0
C574 C 0.19831 0.78395 0.36587 0.0
C575 C 0.21243 0.79858 0.34534 0.0
C576 C 0.18777 0.79675 0.38957 0.0
C577 C 0.188 0.86521 0.42847 0.0
H578 H 0.11774 0.82596 0.44537 0.0
C579 C 0.12348 0.92391 0.48469 0.0
C580 C 0.0955 0.9155 0.47079 0.0
C581 C 0.13968 0.90668 0.48098 0.0
C582 C 0.13724 0.83739 0.44076 0.0
H583 H 0.22686 0.83785 0.33328 0.0
H584 H 0.20706 0.85995 0.37286 0.0
H585 H 0.14257 0.80266 0.41396 0.0
H586 H 0.06204 0.88096 0.44588 0.0
H587 H 0.09042 0.8521 0.43653 0.0
H588 H 0.18146 0.90041 0.45206 0.0
C589 C 0.205 0.83888 0.37205 0.0
C590 C 0.15185 0.82382 0.42312 0.0
C591 C 0.21614 0.82619 0.34898 0.0
C592 C 0.08375 0.88865 0.45561 0.0
C593 C 0.10011 0.87174 0.45092 0.0
C594 C 0.17301 0.8789 0.44519 0.0
C595 C 0.19053 0.82435 0.39266 0.0
C596 C 0.17701 0.83775 0.41569 0.0
C597 C 0.12862 0.88092 0.46222 0.0
C598 C 0.14689 0.86539 0.45059 0.0
H599 H 0.1955 0.76261 0.36369 0.0
H600 H 0.17735 0.78489 0.40527 0.0
H601 H 0.20777 0.87655 0.42448 0.0
H602 H 0.13341 0.94426 0.497 0.0
H603 H 0.16123 0.91418 0.49146 0.0
C604 C 0.21269 0.81674 0.64819 0.0
C605 C 0.20304 0.78966 0.65065 0.0
C606 C 0.19769 0.82765 0.62697 0.0
C607 C 0.12676 0.8168 0.5884 0.0
H608 H 0.15953 0.87474 0.54626 0.0
C609 C 0.06084 0.8754 0.53103 0.0
C610 C 0.07135 0.90325 0.54151 0.0
C611 C 0.07772 0.85885 0.53489 0.0
C612 C 0.1501 0.85852 0.55782 0.0
H613 H 0.17109 0.75234 0.63186 0.0
H614 H 0.14499 0.77128 0.59455 0.0
H615 H 0.18819 0.85026 0.57143 0.0
H616 H 0.10844 0.93571 0.56153 0.0
H617 H 0.13761 0.90685 0.56912 0.0
H618 H 0.08898 0.82564 0.57611 0.0
C619 C 0.16385 0.78424 0.60934 0.0
C620 C 0.16649 0.84455 0.57226 0.0
C621 C 0.17881 0.77338 0.63063 0.0
C622 C 0.0995 0.91428 0.55401 0.0
C623 C 0.11636 0.89775 0.55786 0.0
C624 C 0.11043 0.83073 0.57402 0.0
C625 C 0.17281 0.81163 0.60775 0.0
C626 C 0.15511 0.824 0.58846 0.0
C627 C 0.10545 0.86979 0.54934 0.0
C628 C 0.12203 0.85223 0.55935 0.0
H629 H 0.23138 0.82969 0.66335 0.0
H630 H 0.20501 0.84888 0.62665 0.0
H631 H 0.11736 0.80136 0.60103 0.0
H632 H 0.03928 0.86621 0.52125 0.0
H633 H 0.06883 0.83739 0.52767 0.0
C634 C 0.21988 0.20184 0.6631 0.0
C635 C 0.21794 0.1945 0.69295 0.0
C636 C 0.21513 0.18233 0.63608 0.0
C637 C 0.19735 0.10831 0.60846 0.0
H638 H 0.13928 0.12163 0.55179 0.0
C639 C 0.09197 0.03821 0.5757 0.0
C640 C 0.07416 0.03814 0.54809 0.0
C641 C 0.11921 0.05384 0.58122 0.0
C642 C 0.15596 0.1175 0.56642 0.0
H643 H 0.21048 0.1614 0.7185 0.0
H644 H 0.20035 0.12706 0.67113 0.0
H645 H 0.17327 0.15878 0.5864 0.0
H646 H 0.07064 0.05347 0.50433 0.0
H647 H 0.11849 0.08077 0.51359 0.0
H648 H 0.17807 0.0666 0.59028 0.0
C649 C 0.2067 0.14788 0.66854 0.0
C650 C 0.17562 0.13897 0.58645 0.0
C651 C 0.21191 0.16746 0.69563 0.0
C652 C 0.08419 0.05306 0.5255 0.0
C653 C 0.1115 0.06865 0.53088 0.0
C654 C 0.17759 0.08676 0.5884 0.0
C655 C 0.20752 0.15508 0.63834 0.0
C656 C 0.19504 0.13437 0.60953 0.0
C657 C 0.1291 0.06976 0.55923 0.0
C658 C 0.15543 0.09115 0.56925 0.0
H659 H 0.22452 0.22267 0.6605 0.0
H660 H 0.21611 0.18852 0.61323 0.0
H661 H 0.21271 0.10431 0.62532 0.0
H662 H 0.08476 0.0265 0.59328 0.0
H663 H 0.13202 0.05465 0.60364 0.0
C664 C 0.85174 0.20676 0.67699 0.0
C665 C 0.82726 0.19154 0.6844 0.0
C666 C 0.86338 0.1961 0.65288 0.0
C667 C 0.84878 0.14117 0.5834 0.0
H668 H 0.92672 0.15018 0.60461 0.0
C669 C 0.90187 0.06657 0.53275 0.0
C670 C 0.93 0.07552 0.53195 0.0
C671 C 0.88801 0.08473 0.54267 0.0
C672 C 0.90508 0.14797 0.59778 0.0
H673 H 0.79536 0.15354 0.67218 0.0
H674 H 0.81599 0.13459 0.63046 0.0
H675 H 0.90513 0.17403 0.64022 0.0
H676 H 0.96486 0.11062 0.53684 0.0
H677 H 0.94054 0.14251 0.55374 0.0
H678 H 0.84869 0.11424 0.54142 0.0
C679 C 0.82601 0.15491 0.6429 0.0
C680 C 0.89265 0.16161 0.61835 0.0
C681 C 0.81435 0.16562 0.66701 0.0
C682 C 0.94331 0.10318 0.53798 0.0
C683 C 0.92939 0.12138 0.54768 0.0
C684 C 0.86125 0.12751 0.56273 0.0
C685 C 0.85078 0.16997 0.63572 0.0
C686 C 0.86425 0.15785 0.61184 0.0
C687 C 0.902 0.11221 0.55181 0.0
C688 C 0.88944 0.13022 0.57012 0.0
H689 H 0.86194 0.22693 0.68984 0.0
H690 H 0.88228 0.20832 0.6477 0.0
H691 H 0.82692 0.13825 0.57743 0.0
H692 H 0.89109 0.04536 0.52832 0.0
H693 H 0.86696 0.07691 0.54567 0.0
C694 C 0.81631 0.83477 0.7539 0.0
C695 C 0.8007 0.80961 0.73624 0.0
C696 C 0.83094 0.85439 0.73877 0.0
C697 C 0.83529 0.87354 0.65999 0.0
H698 H 0.91253 0.90663 0.6947 0.0
C699 C 0.91236 0.91962 0.58388 0.0
C700 C 0.93401 0.94269 0.5978 0.0
C701 C 0.89459 0.90657 0.60229 0.0
C702 C 0.89089 0.89799 0.68496 0.0
H703 H 0.78818 0.78511 0.68911 0.0
H704 H 0.81322 0.8193 0.66275 0.0
H705 H 0.88364 0.87855 0.72477 0.0
H706 H 0.95367 0.97057 0.64179 0.0
H707 H 0.92242 0.94793 0.6739 0.0
H708 H 0.84256 0.89255 0.61994 0.0
C709 C 0.81397 0.82409 0.68813 0.0
C710 C 0.87436 0.88191 0.70221 0.0
C711 C 0.79966 0.80449 0.70325 0.0
C712 C 0.93726 0.95272 0.63042 0.0
C713 C 0.91943 0.9397 0.64884 0.0
C714 C 0.85177 0.8897 0.64282 0.0
C715 C 0.82994 0.84916 0.70572 0.0
C716 C 0.84655 0.86902 0.68953 0.0
C717 C 0.89801 0.91637 0.63502 0.0
C718 C 0.87991 0.90159 0.65475 0.0
H719 H 0.81747 0.83917 0.7794 0.0
H720 H 0.84306 0.87359 0.75286 0.0
H721 H 0.81381 0.86416 0.64989 0.0
H722 H 0.90935 0.91138 0.55881 0.0
H723 H 0.87858 0.88841 0.59098 0.0
C724 C 0.30425 0.20782 0.17586 0.0
C725 C 0.29836 0.20557 0.20645 0.0
C726 C 0.31999 0.19289 0.16215 0.0
C727 C 0.34281 0.13225 0.167 0.0
H728 H 0.40013 0.16626 0.12342 0.0
C729 C 0.40176 0.07186 0.09697 0.0
C730 C 0.43039 0.08284 0.10077 0.0
C731 C 0.38555 0.08698 0.10897 0.0
C732 C 0.38429 0.15648 0.13563 0.0
H733 H 0.30422 0.18537 0.24631 0.0
H734 H 0.33134 0.15936 0.2224 0.0
H735 H 0.37187 0.19202 0.14586 0.0
H736 H 0.46422 0.11868 0.1199 0.0
H737 H 0.4359 0.14509 0.14088 0.0
H738 H 0.3553 0.0968 0.15706 0.0
C739 C 0.32377 0.17262 0.20892 0.0
C740 C 0.36788 0.17118 0.14822 0.0
C741 C 0.30828 0.18769 0.22272 0.0
C742 C 0.4423 0.10951 0.11668 0.0
C743 C 0.42601 0.12473 0.12847 0.0
C744 C 0.35902 0.1175 0.15418 0.0
C745 C 0.32999 0.1751 0.17853 0.0
C746 C 0.347 0.1593 0.16423 0.0
C747 C 0.39742 0.11359 0.12499 0.0
C748 C 0.38005 0.12941 0.1384 0.0
H749 H 0.29704 0.22142 0.16263 0.0
H750 H 0.32416 0.19513 0.13858 0.0
H751 H 0.3268 0.12235 0.17892 0.0
H752 H 0.39186 0.05132 0.08522 0.0
H753 H 0.36361 0.07779 0.10556 0.0
C754 C 0.85452 0.31496 0.24087 0.0
C755 C 0.8282 0.306 0.22186 0.0
C756 C 0.87327 0.33875 0.23768 0.0
C757 C 0.87658 0.40111 0.20619 0.0
H758 H 0.94873 0.3992 0.19148 0.0
C759 C 0.93135 0.45525 0.11853 0.0
C760 C 0.95982 0.46716 0.12562 0.0
C761 C 0.91796 0.44164 0.13998 0.0
C762 C 0.92895 0.40035 0.1964 0.0
H763 H 0.80109 0.3148 0.18433 0.0
H764 H 0.83377 0.35583 0.17857 0.0
H765 H 0.91983 0.36222 0.21114 0.0
H766 H 0.9966 0.47506 0.16097 0.0
H767 H 0.97304 0.45037 0.19837 0.0
H768 H 0.88499 0.43835 0.1894 0.0
C769 C 0.83976 0.34482 0.19636 0.0
C770 C 0.9124 0.37918 0.20758 0.0
C771 C 0.82114 0.3211 0.19942 0.0
C772 C 0.97459 0.46603 0.15503 0.0
C773 C 0.9612 0.45195 0.17634 0.0
C774 C 0.89304 0.42217 0.19492 0.0
C775 C 0.8659 0.35402 0.21561 0.0
C776 C 0.88558 0.3788 0.21106 0.0
C777 C 0.93283 0.43938 0.16874 0.0
C778 C 0.91882 0.42132 0.18853 0.0
H779 H 0.86053 0.30381 0.25847 0.0
H780 H 0.89336 0.34538 0.2527 0.0
H781 H 0.8562 0.40157 0.20942 0.0
H782 H 0.91948 0.45595 0.09607 0.0
H783 H 0.89612 0.43177 0.13334 0.0
C784 C 0.71715 0.80888 0.16874 0.0
C785 C 0.72538 0.81272 0.20192 0.0
C786 C 0.70229 0.82471 0.15516 0.0
C787 C 0.68399 0.88847 0.17208 0.0
H788 H 0.62007 0.85254 0.10684 0.0
C789 C 0.60104 0.94007 0.13622 0.0
C790 C 0.5875 0.93457 0.10433 0.0
C791 C 0.61914 0.92599 0.14657 0.0
C792 C 0.63806 0.86308 0.12468 0.0
H793 H 0.72507 0.83695 0.24665 0.0
H794 H 0.69959 0.86448 0.2231 0.0
H795 H 0.64993 0.82725 0.12696 0.0
H796 H 0.58282 0.90959 0.05842 0.0
H797 H 0.61488 0.88568 0.07621 0.0
H798 H 0.67222 0.92428 0.16991 0.0
C799 C 0.7046 0.84932 0.20745 0.0
C800 C 0.65524 0.84849 0.13626 0.0
C801 C 0.71917 0.83339 0.22101 0.0
C802 C 0.59297 0.91471 0.08307 0.0
C803 C 0.61116 0.90066 0.09342 0.0
C804 C 0.66691 0.90308 0.1604 0.0
C805 C 0.69554 0.84497 0.17438 0.0
C806 C 0.67829 0.8609 0.16041 0.0
C807 C 0.62447 0.90598 0.12539 0.0
C808 C 0.64346 0.89058 0.13677 0.0
H809 H 0.72133 0.79302 0.1533 0.0
H810 H 0.69591 0.82093 0.12958 0.0
H811 H 0.70177 0.89885 0.1903 0.0
H812 H 0.59778 0.95542 0.15332 0.0
H813 H 0.62861 0.93055 0.17144 0.0
C814 C 0.22086 0.71384 0.16084 0.0
C815 C 0.2057 0.72568 0.17973 0.0
C816 C 0.20955 0.70148 0.12938 0.0
C817 C 0.14653 0.68738 0.06688 0.0
H818 H 0.1535 0.61546 0.05747 0.0
C819 C 0.083 0.56942 0.01406 0.0
C820 C 0.06102 0.57014 0.02974 0.0
C821 C 0.10407 0.59296 0.01546 0.0
C822 C 0.15178 0.63561 0.05879 0.0
H823 H 0.16786 0.73607 0.18024 0.0
H824 H 0.14732 0.71341 0.12602 0.0
H825 H 0.18751 0.65109 0.09468 0.0
H826 H 0.04201 0.59551 0.05649 0.0
H827 H 0.0785 0.63659 0.05893 0.0
H828 H 0.10896 0.67082 0.03326 0.0
C829 C 0.16822 0.714 0.13488 0.0
C830 C 0.17138 0.6562 0.08032 0.0
C831 C 0.17979 0.72669 0.16616 0.0
C832 C 0.05898 0.59469 0.04439 0.0
C833 C 0.0797 0.6182 0.04538 0.0
C834 C 0.12674 0.66666 0.04555 0.0
C835 C 0.18262 0.70046 0.1164 0.0
C836 C 0.16786 0.68187 0.08631 0.0
C837 C 0.1031 0.61739 0.03231 0.0
C838 C 0.12822 0.64025 0.04312 0.0
H839 H 0.24138 0.71403 0.17044 0.0
H840 H 0.2215 0.69187 0.11563 0.0
H841 H 0.14376 0.70717 0.07013 0.0
H842 H 0.08482 0.55051 0.00269 0.0
H843 H 0.12191 0.59182 0.00528 0.0
C844 C 0.29523 0.78533 0.83251 0.0
C845 C 0.27782 0.79596 0.81386 0.0
C846 C 0.31136 0.80043 0.86116 0.0
C847 C 0.35912 0.84334 0.90185 0.0
H848 H 0.34317 0.90339 0.94964 0.0
C849 C 0.42218 0.95571 0.94979 0.0
C850 C 0.4461 0.95346 0.96749 0.0
C851 C 0.39829 0.93424 0.94281 0.0
C852 C 0.34778 0.88644 0.93686 0.0
H853 H 0.26211 0.82993 0.81113 0.0
H854 H 0.29118 0.857 0.86013 0.0
H855 H 0.30578 0.86769 0.91516 0.0
H856 H 0.46404 0.92778 0.99284 0.0
H857 H 0.42215 0.88955 0.97976 0.0
H858 H 0.40117 0.86252 0.92287 0.0
C859 C 0.29204 0.83673 0.85343 0.0
C860 C 0.32645 0.86612 0.91687 0.0
C861 C 0.27549 0.82133 0.82512 0.0
C862 C 0.44562 0.92989 0.97937 0.0
C863 C 0.42178 0.90813 0.97188 0.0
C864 C 0.38032 0.86341 0.92218 0.0
C865 C 0.31085 0.8268 0.87135 0.0
C866 C 0.33204 0.84498 0.89792 0.0
C867 C 0.39813 0.90993 0.95282 0.0
C868 C 0.37501 0.88574 0.93873 0.0
H869 H 0.2968 0.76554 0.82461 0.0
H870 H 0.32494 0.79176 0.8747 0.0
H871 H 0.36447 0.82767 0.8875 0.0
H872 H 0.42228 0.97377 0.94033 0.0
H873 H 0.38051 0.93605 0.92768 0.0
C874 C 0.20703 0.30632 0.85816 0.0
C875 C 0.19409 0.28157 0.83793 0.0
C876 C 0.19156 0.32085 0.87286 0.0
C877 C 0.12157 0.32819 0.86154 0.0
H878 H 0.14853 0.37583 0.94317 0.0
C879 C 0.05961 0.39486 0.91401 0.0
C880 C 0.0744 0.42183 0.92627 0.0
C881 C 0.07326 0.37583 0.9064 0.0
C882 C 0.14078 0.3627 0.92027 0.0
H883 H 0.155 0.25186 0.81863 0.0
H884 H 0.12796 0.27682 0.84498 0.0
H885 H 0.17383 0.34522 0.92527 0.0
H886 H 0.11539 0.44964 0.94035 0.0
H887 H 0.13907 0.41642 0.9275 0.0
H888 H 0.08866 0.34584 0.85644 0.0
C889 C 0.15002 0.28539 0.84892 0.0
C890 C 0.15529 0.34515 0.90997 0.0
C891 C 0.16551 0.27092 0.83407 0.0
C892 C 0.10325 0.42905 0.93143 0.0
C893 C 0.11688 0.40997 0.92402 0.0
C894 C 0.10699 0.34561 0.87193 0.0
C895 C 0.16276 0.31091 0.8678 0.0
C896 C 0.14611 0.32791 0.88024 0.0
C897 C 0.10206 0.38319 0.91106 0.0
C898 C 0.11661 0.36335 0.90121 0.0
H899 H 0.22904 0.31511 0.86142 0.0
H900 H 0.20214 0.34049 0.88691 0.0
H901 H 0.11406 0.31564 0.83827 0.0
H902 H 0.03743 0.38839 0.9103 0.0
H903 H 0.06124 0.35528 0.89689 0.0
C904 C 0.75331 0.19188 0.86137 0.0
C905 C 0.76132 0.18434 0.83252 0.0
C906 C 0.7427 0.17273 0.87916 0.0
C907 C 0.71948 0.12982 0.91484 0.0
H908 H 0.66556 0.0709 0.85658 0.0
C909 C 0.62191 0.06689 0.95221 0.0
C910 C 0.59775 0.06182 0.92979 0.0
C911 C 0.64753 0.07711 0.94399 0.0
C912 C 0.68051 0.08723 0.87322 0.0
H913 H 0.76774 0.15133 0.80171 0.0
H914 H 0.74966 0.11778 0.83326 0.0
H915 H 0.7039 0.09788 0.83744 0.0
H916 H 0.58136 0.06393 0.88152 0.0
H917 H 0.62577 0.08257 0.86751 0.0
H918 H 0.69438 0.12067 0.94977 0.0
C919 C 0.75078 0.13844 0.84158 0.0
C920 C 0.70289 0.10245 0.86239 0.0
C921 C 0.76124 0.15768 0.82355 0.0
C922 C 0.59962 0.06752 0.89924 0.0
C923 C 0.62514 0.07786 0.89111 0.0
C924 C 0.69679 0.11484 0.92554 0.0
C925 C 0.74006 0.14555 0.8687 0.0
C926 C 0.72183 0.12488 0.88261 0.0
C927 C 0.64942 0.08251 0.91323 0.0
C928 C 0.67632 0.09432 0.90432 0.0
H929 H 0.75362 0.21237 0.86938 0.0
H930 H 0.73456 0.17911 0.89971 0.0
H931 H 0.73414 0.14647 0.9313 0.0
H932 H 0.62108 0.06253 0.97594 0.0
H933 H 0.66581 0.08046 0.96159 0.0
C934 C 0.82001 0.72055 0.86285 0.0
C935 C 0.79236 0.71017 0.84808 0.0
C936 C 0.83305 0.70487 0.87925 0.0
C937 C 0.82681 0.63349 0.87951 0.0
H938 H 0.88804 0.66191 0.94993 0.0
C939 C 0.9069 0.57825 0.90539 0.0
C940 C 0.91815 0.57853 0.93705 0.0
C941 C 0.88953 0.59376 0.89837 0.0
C942 C 0.87076 0.65354 0.93054 0.0
H943 H 0.75611 0.67608 0.8407 0.0
H944 H 0.77853 0.64899 0.87004 0.0
H945 H 0.86074 0.69063 0.93292 0.0
H946 H 0.91979 0.59548 0.98613 0.0
H947 H 0.88917 0.62254 0.97393 0.0
H948 H 0.83666 0.59647 0.87709 0.0
C949 C 0.79046 0.66892 0.86828 0.0
C950 C 0.85528 0.67011 0.92055 0.0
C951 C 0.77752 0.68451 0.85168 0.0
C952 C 0.91155 0.59484 0.96154 0.0
C953 C 0.89404 0.6104 0.95451 0.0
C954 C 0.84218 0.61699 0.88952 0.0
C955 C 0.81863 0.67854 0.88137 0.0
C956 C 0.8334 0.66043 0.89449 0.0
C957 C 0.88282 0.61003 0.92278 0.0
C958 C 0.86475 0.62693 0.91467 0.0
H959 H 0.83196 0.74026 0.86035 0.0
H960 H 0.85478 0.71292 0.88874 0.0
H961 H 0.81037 0.62532 0.85915 0.0
H962 H 0.91206 0.56653 0.88583 0.0
H963 H 0.88186 0.59346 0.87364 0.0
C964 C 0.18487 0.28416 0.13432 0.0
C965 C 0.21121 0.296 0.15262 0.0
C966 C 0.17144 0.29952 0.11784 0.0
C967 C 0.17047 0.36937 0.12368 0.0
H968 H 0.12177 0.34423 0.04191 0.0
C969 C 0.11168 0.43657 0.07102 0.0
C970 C 0.08382 0.42444 0.0577 0.0
C971 C 0.12908 0.42099 0.07794 0.0
C972 C 0.13516 0.35148 0.06486 0.0
H973 H 0.24492 0.33263 0.16645 0.0
H974 H 0.2217 0.35933 0.13743 0.0
H975 H 0.14903 0.31643 0.062 0.0
H976 H 0.05293 0.38622 0.03944 0.0
H977 H 0.08303 0.3591 0.05249 0.0
H978 H 0.1562 0.40393 0.12723 0.0
C979 C 0.21115 0.33835 0.13624 0.0
C980 C 0.15081 0.33556 0.07633 0.0
C981 C 0.22452 0.32302 0.15268 0.0
C982 C 0.07413 0.39628 0.05024 0.0
C983 C 0.09152 0.38069 0.05734 0.0
C984 C 0.15481 0.38517 0.11233 0.0
C985 C 0.18413 0.32701 0.11942 0.0
C986 C 0.16856 0.34429 0.10597 0.0
C987 C 0.11908 0.39286 0.07195 0.0
C988 C 0.13682 0.37642 0.08286 0.0
H989 H 0.17412 0.26336 0.13394 0.0
H990 H 0.15059 0.2902 0.10526 0.0
H991 H 0.18346 0.37647 0.1469 0.0
H992 H 0.11992 0.45815 0.07734 0.0
H993 H 0.15031 0.43108 0.08862 0.0
C994 C 0.19201 0.7132 0.81459 0.0
C995 C 0.18846 0.71529 0.78231 0.0
C996 C 0.16984 0.7003 0.82756 0.0
C997 C 0.10857 0.64516 0.8041 0.0
H998 H 0.09776 0.666 0.88997 0.0
C999 C 0.04057 0.57105 0.8681 0.0
C1000 C 0.05219 0.57141 0.8996 0.0
C1001 C 0.05215 0.59135 0.85205 0.0
C1002 C 0.10054 0.65991 0.86595 0.0
H1003 H 0.15879 0.70688 0.73863 0.0
H1004 H 0.11996 0.68372 0.76134 0.0
H1005 H 0.12687 0.69879 0.86486 0.0
H1006 H 0.08507 0.59309 0.93901 0.0
H1007 H 0.10569 0.62796 0.91081 0.0
H1008 H 0.08372 0.60589 0.80577 0.0
C1009 C 0.13991 0.69222 0.77651 0.0
C1010 C 0.11702 0.6787 0.85157 0.0
C1011 C 0.16208 0.70549 0.7636 0.0
C1012 C 0.07564 0.59229 0.91473 0.0
C1013 C 0.08726 0.61246 0.89869 0.0
C1014 C 0.09225 0.6263 0.81857 0.0
C1015 C 0.14378 0.68901 0.80841 0.0
C1016 C 0.12191 0.67121 0.82095 0.0
C1017 C 0.07559 0.6123 0.86723 0.0
C1018 C 0.0889 0.63325 0.85006 0.0
H1019 H 0.21208 0.72081 0.82963 0.0
H1020 H 0.17343 0.69785 0.85215 0.0
H1021 H 0.11226 0.63882 0.78057 0.0
H1022 H 0.02233 0.55529 0.85597 0.0
H1023 H 0.04264 0.59077 0.82788 0.0
C1024 C 0.29832 0.20167 0.82213 0.0
C1025 C 0.29934 0.20674 0.79104 0.0
C1026 C 0.31458 0.18699 0.83577 0.0
C1027 C 0.37734 0.16596 0.82704 0.0
H1028 H 0.35001 0.11462 0.87995 0.0
C1029 C 0.43705 0.09307 0.86485 0.0
C1030 C 0.43754 0.08724 0.89578 0.0
C1031 C 0.41997 0.1076 0.85298 0.0
C1032 C 0.35814 0.12911 0.86554 0.0
H1033 H 0.31801 0.1995 0.74978 0.0
H1034 H 0.34577 0.17398 0.77321 0.0
H1035 H 0.32066 0.13983 0.85802 0.0
H1036 H 0.41978 0.09206 0.9382 0.0
H1037 H 0.39044 0.11777 0.91774 0.0
H1038 H 0.41475 0.15536 0.83446 0.0
C1039 C 0.33288 0.18173 0.78743 0.0
C1040 C 0.34125 0.14361 0.85293 0.0
C1041 C 0.3167 0.19631 0.77386 0.0
C1042 C 0.42028 0.09636 0.91441 0.0
C1043 C 0.40314 0.11087 0.9025 0.0
C1044 C 0.39418 0.15152 0.83962 0.0
C1045 C 0.33234 0.17704 0.8187 0.0
C1046 C 0.35051 0.16211 0.83324 0.0
C1047 C 0.40279 0.11683 0.87162 0.0
C1048 C 0.38482 0.13269 0.85888 0.0
H1049 H 0.28527 0.20936 0.83616 0.0
H1050 H 0.31368 0.18397 0.85996 0.0
H1051 H 0.38553 0.18041 0.81261 0.0
H1052 H 0.45018 0.08673 0.84982 0.0
H1053 H 0.4201 0.11141 0.82896 0.0
C1054 C 0.82044 0.30084 0.84528 0.0
C1055 C 0.82455 0.27556 0.83951 0.0
C1056 C 0.82851 0.31633 0.87562 0.0
C1057 C 0.84179 0.345 0.94282 0.0
H1058 H 0.91955 0.35607 0.96978 0.0
C1059 C 0.94917 0.43289 0.00051 0.0
C1060 C 0.94616 0.44844 0.97708 0.0
C1061 C 0.92856 0.40935 0.00048 0.0
C1062 C 0.89764 0.35284 0.96362 0.0
H1063 H 0.83959 0.24607 0.86073 0.0
H1064 H 0.85447 0.27362 0.91416 0.0
H1065 H 0.89194 0.31461 0.93539 0.0
H1066 H 0.91862 0.45355 0.9374 0.0
H1067 H 0.8825 0.41285 0.93749 0.0
H1068 H 0.84843 0.38474 0.96806 0.0
C1069 C 0.84472 0.28131 0.8952 0.0
C1070 C 0.88175 0.329 0.94378 0.0
C1071 C 0.83647 0.2657 0.86468 0.0
C1072 C 0.92145 0.4416 0.95544 0.0
C1073 C 0.90065 0.41853 0.95585 0.0
C1074 C 0.85775 0.36895 0.96241 0.0
C1075 C 0.84112 0.30696 0.90088 0.0
C1076 C 0.85423 0.32589 0.93107 0.0
C1077 C 0.90447 0.40158 0.97747 0.0
C1078 C 0.88621 0.37383 0.97073 0.0
H1079 H 0.81166 0.309 0.82609 0.0
H1080 H 0.82614 0.33628 0.87882 0.0
H1081 H 0.82038 0.34272 0.93413 0.0
H1082 H 0.96815 0.43793 0.01737 0.0
H1083 H 0.93204 0.39648 0.01717 0.0
C1084 C 0.69818 0.79764 0.82232 0.0
C1085 C 0.70592 0.80083 0.79271 0.0
C1086 C 0.6827 0.81306 0.83564 0.0
C1087 C 0.66497 0.87639 0.83389 0.0
H1088 H 0.60145 0.84204 0.86833 0.0
C1089 C 0.60624 0.93668 0.90463 0.0
C1090 C 0.57741 0.92805 0.89691 0.0
C1091 C 0.62185 0.92101 0.89234 0.0
C1092 C 0.61907 0.85192 0.85871 0.0
H1093 H 0.70381 0.82326 0.75429 0.0
H1094 H 0.67734 0.85034 0.77775 0.0
H1095 H 0.62925 0.81531 0.84661 0.0
H1096 H 0.54244 0.8959 0.87037 0.0
H1097 H 0.56974 0.86833 0.84914 0.0
H1098 H 0.65489 0.91297 0.84602 0.0
C1099 C 0.68312 0.83584 0.79063 0.0
C1100 C 0.63515 0.83665 0.84653 0.0
C1101 C 0.69823 0.82019 0.77711 0.0
C1102 C 0.56459 0.90319 0.87671 0.0
C1103 C 0.58023 0.88731 0.86474 0.0
C1104 C 0.64914 0.8917 0.84646 0.0
C1105 C 0.67495 0.83235 0.81994 0.0
C1106 C 0.65824 0.84867 0.83381 0.0
C1107 C 0.60908 0.89612 0.87224 0.0
C1108 C 0.62591 0.87967 0.85893 0.0
H1109 H 0.70362 0.78286 0.83495 0.0
H1110 H 0.67693 0.81001 0.85838 0.0
H1111 H 0.68268 0.88633 0.82447 0.0
H1112 H 0.61684 0.95584 0.91981 0.0
H1113 H 0.64399 0.92834 0.8988 0.0
C1114 C 0.78505 0.68802 0.12404 0.0
C1115 C 0.79878 0.71438 0.13954 0.0
C1116 C 0.79842 0.67324 0.10611 0.0
C1117 C 0.86167 0.67653 0.07154 0.0
H1118 H 0.85012 0.6054 0.0921 0.0
C1119 C 0.937 0.61292 0.05699 0.0
C1120 C 0.92605 0.58486 0.04906 0.0
C1121 C 0.91987 0.62919 0.06159 0.0
C1122 C 0.85328 0.62497 0.08551 0.0
H1123 H 0.83659 0.74666 0.14686 0.0
H1124 H 0.8603 0.72067 0.11598 0.0
H1125 H 0.82289 0.63316 0.111 0.0
H1126 H 0.88816 0.55217 0.03823 0.0
H1127 H 0.85844 0.5805 0.0454 0.0
H1128 H 0.89275 0.66831 0.04671 0.0
C1129 C 0.83907 0.71146 0.11729 0.0
C1130 C 0.83758 0.64097 0.09638 0.0
C1131 C 0.82552 0.72637 0.13503 0.0
C1132 C 0.89742 0.57365 0.0442 0.0
C1133 C 0.88033 0.58991 0.04868 0.0
C1134 C 0.87745 0.66044 0.06061 0.0
C1135 C 0.82598 0.68438 0.10362 0.0
C1136 C 0.84164 0.66702 0.08976 0.0
C1137 C 0.89139 0.6178 0.05835 0.0
C1138 C 0.87356 0.63452 0.0677 0.0
H1139 H 0.7643 0.67839 0.12689 0.0
H1140 H 0.78747 0.65269 0.09522 0.0
H1141 H 0.86519 0.69641 0.0658 0.0
H1142 H 0.95889 0.6223 0.06026 0.0
H1143 H 0.92911 0.65059 0.06906 0.0
C1144 C 0.29527 0.83406 0.21878 0.0
C1145 C 0.2807 0.80795 0.20318 0.0
C1146 C 0.30735 0.85314 0.20141 0.0
C1147 C 0.33468 0.85372 0.12741 0.0
H1148 H 0.35096 0.93073 0.15104 0.0
C1149 C 0.40753 0.92591 0.06702 0.0
C1150 C 0.42801 0.94642 0.08823 0.0
C1151 C 0.38501 0.91073 0.07778 0.0
C1152 C 0.34649 0.90924 0.14419 0.0
H1153 H 0.26462 0.78189 0.15729 0.0
H1154 H 0.2848 0.81537 0.12689 0.0
H1155 H 0.31767 0.90129 0.17564 0.0
H1156 H 0.44071 0.9676 0.13707 0.0
H1157 H 0.40159 0.94086 0.15589 0.0
H1158 H 0.36392 0.86156 0.09665 0.0
C1159 C 0.28791 0.82094 0.15251 0.0
C1160 C 0.32749 0.89242 0.15826 0.0
C1161 C 0.27629 0.80181 0.16988 0.0
C1162 C 0.42531 0.95182 0.12021 0.0
C1163 C 0.40276 0.93672 0.13092 0.0
C1164 C 0.35349 0.87049 0.11328 0.0
C1165 C 0.30464 0.8464 0.16818 0.0
C1166 C 0.32182 0.86447 0.1505 0.0
C1167 C 0.38253 0.91588 0.10988 0.0
C1168 C 0.36005 0.8984 0.12203 0.0
H1169 H 0.29889 0.8392 0.24449 0.0
H1170 H 0.32022 0.87253 0.21425 0.0
H1171 H 0.33128 0.83232 0.12133 0.0
H1172 H 0.40896 0.92146 0.04216 0.0
H1173 H 0.36959 0.89488 0.06102 0.0
C1174 C 0.74474 0.21593 0.13905 0.0
C1175 C 0.75905 0.20261 0.1578 0.0
C1176 C 0.72632 0.20186 0.11135 0.0
C1177 C 0.67168 0.16387 0.07937 0.0
H1178 H 0.67144 0.09533 0.03325 0.0
C1179 C 0.59332 0.05531 0.04998 0.0
C1180 C 0.56923 0.05972 0.03564 0.0
C1181 C 0.61862 0.07424 0.05213 0.0
C1182 C 0.67131 0.11461 0.0456 0.0
H1183 H 0.76748 0.16501 0.16151 0.0
H1184 H 0.73484 0.14006 0.11385 0.0
H1185 H 0.71502 0.12805 0.05933 0.0
H1186 H 0.55219 0.08667 0.01163 0.0
H1187 H 0.59673 0.12054 0.0163 0.0
H1188 H 0.62797 0.14996 0.06685 0.0
C1189 C 0.73801 0.16143 0.11971 0.0
C1190 C 0.69621 0.1333 0.06066 0.0
C1191 C 0.75673 0.17567 0.14714 0.0
C1192 C 0.57069 0.08302 0.0228 0.0
C1193 C 0.59604 0.10223 0.02536 0.0
C1194 C 0.64688 0.14533 0.06406 0.0
C1195 C 0.72152 0.17406 0.10238 0.0
C1196 C 0.69658 0.15757 0.07919 0.0
C1197 C 0.62019 0.09816 0.04051 0.0
C1198 C 0.64637 0.12 0.04848 0.0
H1199 H 0.74675 0.23691 0.14671 0.0
H1200 H 0.71459 0.21242 0.09813 0.0
H1201 H 0.67094 0.18216 0.09356 0.0
H1202 H 0.5925 0.03738 0.05998 0.0
H1203 H 0.6368 0.07077 0.06442 0.0
C1204 C 0.69272 0.69478 0.78543 0.0
C1205 C 0.69166 0.68939 0.75248 0.0
C1206 C 0.67808 0.67551 0.8007 0.0
C1207 C 0.64298 0.60335 0.79278 0.0
H1208 H 0.60772 0.62922 0.85915 0.0
C1209 C 0.56948 0.53506 0.85999 0.0
C1210 C 0.5744 0.54347 0.89315 0.0
C1211 C 0.5836 0.55126 0.84083 0.0
C1212 C 0.61758 0.62172 0.8408 0.0
H1213 H 0.67475 0.65958 0.70957 0.0
H1214 H 0.6485 0.62578 0.7363 0.0
H1215 H 0.6323 0.66045 0.829 0.0
H1216 H 0.59851 0.57502 0.9323 0.0
H1217 H 0.6229 0.60312 0.89896 0.0
H1218 H 0.62791 0.56445 0.80477 0.0
C1219 C 0.66103 0.64484 0.75036 0.0
C1220 C 0.63173 0.6396 0.82357 0.0
C1221 C 0.6759 0.66419 0.73504 0.0
C1222 C 0.59413 0.568 0.90682 0.0
C1223 C 0.60802 0.58419 0.88773 0.0
C1224 C 0.62861 0.58535 0.80999 0.0
C1225 C 0.66171 0.65046 0.78333 0.0
C1226 C 0.64507 0.63077 0.79981 0.0
C1227 C 0.60262 0.5762 0.85454 0.0
C1228 C 0.61624 0.59451 0.83457 0.0
H1229 H 0.7046 0.71409 0.79948 0.0
H1230 H 0.67952 0.68032 0.82621 0.0
H1231 H 0.65314 0.59596 0.7747 0.0
H1232 H 0.55442 0.51623 0.84882 0.0
H1233 H 0.57903 0.54469 0.81528 0.0
C1234 C 0.33669 0.69964 0.84238 0.0
C1235 C 0.30963 0.68803 0.82606 0.0
C1236 C 0.34951 0.68524 0.86112 0.0
C1237 C 0.3467 0.61592 0.8666 0.0
H1238 H 0.39799 0.64782 0.94563 0.0
C1239 C 0.4077 0.55472 0.92831 0.0
C1240 C 0.43591 0.56758 0.93806 0.0
C1241 C 0.38965 0.5694 0.92035 0.0
C1242 C 0.38378 0.63865 0.92353 0.0
H1243 H 0.27424 0.65292 0.81753 0.0
H1244 H 0.29654 0.6278 0.85035 0.0
H1245 H 0.37116 0.67401 0.92089 0.0
H1246 H 0.46722 0.606 0.94846 0.0
H1247 H 0.43588 0.63158 0.93411 0.0
H1248 H 0.35985 0.58096 0.86843 0.0
C1249 C 0.308 0.64785 0.84839 0.0
C1250 C 0.36843 0.65365 0.9094 0.0
C1251 C 0.29521 0.66225 0.82971 0.0
C1252 C 0.44554 0.59556 0.94118 0.0
C1253 C 0.42754 0.61023 0.93304 0.0
C1254 C 0.36208 0.601 0.88062 0.0
C1255 C 0.33546 0.65897 0.86379 0.0
C1256 C 0.35001 0.64255 0.88052 0.0
C1257 C 0.39948 0.59723 0.92178 0.0
C1258 C 0.38112 0.6123 0.909 0.0
H1259 H 0.34821 0.71953 0.83997 0.0
H1260 H 0.37075 0.69427 0.87244 0.0
H1261 H 0.33302 0.60692 0.84409 0.0
H1262 H 0.39964 0.53322 0.92635 0.0
H1263 H 0.36807 0.55885 0.91241 0.0
C1264 C 0.32948 0.31369 0.81534 0.0
C1265 C 0.30345 0.31406 0.80157 0.0
C1266 C 0.33943 0.32416 0.84741 0.0
C1267 C 0.33698 0.37382 0.91087 0.0
H1268 H 0.3856 0.33969 0.95414 0.0
C1269 C 0.43588 0.43713 0.9877 0.0
C1270 C 0.45417 0.43464 0.96692 0.0
C1271 C 0.41112 0.41709 0.9846 0.0
C1272 C 0.37133 0.34915 0.94329 0.0
H1273 H 0.2674 0.32588 0.80933 0.0
H1274 H 0.28528 0.34514 0.86595 0.0
H1275 H 0.34902 0.31323 0.91051 0.0
H1276 H 0.46279 0.40829 0.92925 0.0
H1277 H 0.41996 0.37302 0.92419 0.0
H1278 H 0.36107 0.41026 0.94148 0.0
C1279 C 0.29775 0.33642 0.85203 0.0
C1280 C 0.35063 0.33414 0.91812 0.0
C1281 C 0.28772 0.32576 0.81979 0.0
C1282 C 0.44877 0.41079 0.94522 0.0
C1283 C 0.42449 0.39048 0.94272 0.0
C1284 C 0.35752 0.38877 0.93629 0.0
C1285 C 0.32343 0.33505 0.86624 0.0
C1286 C 0.33525 0.34703 0.89982 0.0
C1287 C 0.40491 0.39402 0.96134 0.0
C1288 C 0.37651 0.37701 0.95032 0.0
H1289 H 0.34159 0.30423 0.80164 0.0
H1290 H 0.35972 0.32368 0.85748 0.0
H1291 H 0.32511 0.38412 0.8974 0.0
H1292 H 0.43971 0.45521 0.00483 0.0
H1293 H 0.39616 0.42031 -0.00109 0.0
C1294 C 0.73775 0.31862 0.87824 0.0
C1295 C 0.72113 0.29684 0.85516 0.0
C1296 C 0.72611 0.3319 0.90036 0.0
C1297 C 0.6614 0.32591 0.93283 0.0
H1298 H 0.68521 0.4035 0.94562 0.0
C1299 C 0.59123 0.39198 0.94865 0.0
C1300 C 0.60087 0.41688 0.96942 0.0
C1301 C 0.60815 0.37555 0.94492 0.0
C1302 C 0.67873 0.38186 0.94298 0.0
H1303 H 0.67956 0.2715 0.83729 0.0
H1304 H 0.65914 0.29499 0.87505 0.0
H1305 H 0.71132 0.37815 0.91856 0.0
H1306 H 0.63539 0.44287 0.00446 0.0
H1307 H 0.66545 0.4145 0.99666 0.0
H1308 H 0.62771 0.32981 0.95541 0.0
C1309 C 0.68119 0.30157 0.87678 0.0
C1310 C 0.69369 0.36728 0.92742 0.0
C1311 C 0.69283 0.28825 0.85486 0.0
C1312 C 0.62752 0.42423 0.98758 0.0
C1313 C 0.64466 0.4079 0.9834 0.0
C1314 C 0.64632 0.3405 0.94811 0.0
C1315 C 0.69762 0.3237 0.89969 0.0
C1316 C 0.68462 0.3391 0.9211 0.0
C1317 C 0.63529 0.38371 0.96145 0.0
C1318 C 0.65432 0.36858 0.95231 0.0
H1319 H 0.7597 0.32547 0.87913 0.0
H1320 H 0.73942 0.34866 0.91786 0.0
H1321 H 0.65424 0.30424 0.92912 0.0
H1322 H 0.57107 0.38566 0.93387 0.0
H1323 H 0.60049 0.35718 0.92751 0.0
C1324 C 0.67987 0.27092 0.13358 0.0
C1325 C 0.69782 0.28688 0.16098 0.0
C1326 C 0.6669 0.28272 0.11138 0.0
C1327 C 0.67213 0.34747 0.08501 0.0
H1328 H 0.59282 0.32198 0.06258 0.0
C1329 C 0.60597 0.41613 0.06668 0.0
C1330 C 0.58131 0.40763 0.04448 0.0
C1331 C 0.62219 0.39913 0.07076 0.0
C1332 C 0.61502 0.32895 0.06782 0.0
H1333 H 0.71652 0.32751 0.18666 0.0
H1334 H 0.69396 0.34807 0.14812 0.0
H1335 H 0.61753 0.29547 0.08998 0.0
H1336 H 0.55529 0.37488 0.00778 0.0
H1337 H 0.58344 0.34473 0.01581 0.0
H1338 H 0.66954 0.38158 0.06427 0.0
C1339 C 0.69004 0.32652 0.14352 0.0
C1340 C 0.62915 0.31382 0.08361 0.0
C1341 C 0.70273 0.31474 0.16577 0.0
C1342 C 0.57381 0.38189 0.02563 0.0
C1343 C 0.59001 0.3647 0.02998 0.0
C1344 C 0.65803 0.36253 0.06917 0.0
C1345 C 0.67202 0.31067 0.11609 0.0
C1346 C 0.65772 0.32357 0.09363 0.0
C1347 C 0.6141 0.37303 0.05305 0.0
C1348 C 0.62925 0.35404 0.06178 0.0
H1349 H 0.67589 0.24936 0.1293 0.0
H1350 H 0.65307 0.27006 0.09046 0.0
H1351 H 0.69423 0.35515 0.09187 0.0
H1352 H 0.61225 0.43552 0.08211 0.0
H1353 H 0.64034 0.40599 0.08918 0.0
C1354 C 0.70954 0.72265 0.16049 0.0
C1355 C 0.69376 0.72095 0.18455 0.0
C1356 C 0.69767 0.71063 0.12918 0.0
C1357 C 0.63179 0.6733 0.0756 0.0
H1358 H 0.66866 0.61883 0.05999 0.0
C1359 C 0.57231 0.5675 0.01328 0.0
C1360 C 0.57137 0.55282 0.03815 0.0
C1361 C 0.59287 0.59159 0.01612 0.0
C1362 C 0.65854 0.63433 0.06308 0.0
H1363 H 0.65265 0.70837 0.19459 0.0
H1364 H 0.63165 0.68653 0.13986 0.0
H1365 H 0.69337 0.66121 0.09484 0.0
H1366 H 0.59243 0.55014 0.08403 0.0
H1367 H 0.62871 0.59191 0.08883 0.0
H1368 H 0.59612 0.6451 0.04632 0.0
C1369 C 0.65332 0.69728 0.14506 0.0
C1370 C 0.67262 0.65863 0.08303 0.0
C1371 C 0.66532 0.70943 0.17643 0.0
C1372 C 0.59255 0.5613 0.0647 0.0
C1373 C 0.61345 0.58497 0.06721 0.0
C1374 C 0.61779 0.64908 0.05534 0.0
C1375 C 0.66966 0.69677 0.12145 0.0
C1376 C 0.65865 0.67735 0.09144 0.0
C1377 C 0.61315 0.60078 0.04351 0.0
C1378 C 0.63051 0.62871 0.05114 0.0
H1379 H 0.73111 0.73289 0.16579 0.0
H1380 H 0.71064 0.71092 0.11136 0.0
H1381 H 0.62077 0.68765 0.08138 0.0
H1382 H 0.55631 0.56137 0.99257 0.0
H1383 H 0.59217 0.60366 0.99777 0.0
C1384 C 0.33437 0.70003 0.15985 0.0
C1385 C 0.30749 0.6887 0.16429 0.0
C1386 C 0.34587 0.68629 0.13813 0.0
C1387 C 0.3387 0.61756 0.09959 0.0
H1388 H 0.39289 0.65339 0.05329 0.0
C1389 C 0.39819 0.55859 0.03253 0.0
C1390 C 0.42678 0.56979 0.04113 0.0
C1391 C 0.38072 0.57405 0.03895 0.0
C1392 C 0.37772 0.64312 0.066 0.0
H1393 H 0.27098 0.65486 0.14861 0.0
H1394 H 0.29083 0.63098 0.11023 0.0
H1395 H 0.36712 0.67881 0.08139 0.0
H1396 H 0.45947 0.60657 0.06015 0.0
H1397 H 0.42899 0.63341 0.07197 0.0
H1398 H 0.34975 0.58212 0.08509 0.0
C1399 C 0.3033 0.65019 0.12397 0.0
C1400 C 0.36304 0.65767 0.08217 0.0
C1401 C 0.2919 0.66387 0.14587 0.0
C1402 C 0.43752 0.59727 0.05387 0.0
C1403 C 0.42004 0.61272 0.06028 0.0
C1404 C 0.35326 0.60305 0.08335 0.0
C1405 C 0.3306 0.66101 0.12027 0.0
C1406 C 0.34381 0.64517 0.09979 0.0
C1407 C 0.39147 0.60099 0.05405 0.0
C1408 C 0.37336 0.61577 0.06698 0.0
H1409 H 0.34679 0.71921 0.17377 0.0
H1410 H 0.36705 0.69506 0.13625 0.0
H1411 H 0.32442 0.60735 0.1133 0.0
H1412 H 0.38923 0.53749 0.02267 0.0
H1413 H 0.35877 0.56458 0.03341 0.0
C1414 C 0.31063 0.31123 0.21579 0.0
C1415 C 0.31242 0.3155 0.24892 0.0
C1416 C 0.32634 0.33047 0.2013 0.0
C1417 C 0.39062 0.38376 0.21559 0.0
H1418 H 0.35939 0.40073 0.13685 0.0
C1419 C 0.45592 0.4536 0.14375 0.0
C1420 C 0.4502 0.44489 0.11063 0.0
C1421 C 0.43866 0.4408 0.16295 0.0
C1422 C 0.36847 0.39608 0.15872 0.0
H1423 H 0.33199 0.34317 0.29299 0.0
H1424 H 0.36005 0.37688 0.26753 0.0
H1425 H 0.32948 0.37328 0.16651 0.0
H1426 H 0.42212 0.41582 0.07169 0.0
H1427 H 0.39248 0.3933 0.10505 0.0
H1428 H 0.42975 0.40575 0.20722 0.0
C1429 C 0.34625 0.35865 0.25285 0.0
C1430 C 0.35132 0.38046 0.17574 0.0
C1431 C 0.33019 0.33946 0.26737 0.0
C1432 C 0.42704 0.4231 0.09713 0.0
C1433 C 0.40989 0.41032 0.11625 0.0
C1434 C 0.40785 0.39929 0.19843 0.0
C1435 C 0.34449 0.35427 0.21967 0.0
C1436 C 0.36228 0.37365 0.20396 0.0
C1437 C 0.41538 0.41908 0.14936 0.0
C1438 C 0.39701 0.40508 0.16941 0.0
H1439 H 0.29745 0.29277 0.201 0.0
H1440 H 0.3249 0.32633 0.17574 0.0
H1441 H 0.39963 0.37862 0.23717 0.0
H1442 H 0.47358 0.47041 0.15482 0.0
H1443 H 0.44335 0.44813 0.18836 0.0
C1444 C 0.78346 0.69063 0.66268 0.0
C1445 C 0.78826 0.69934 0.69581 0.0
C1446 C 0.7992 0.67573 0.64887 0.0
C1447 C 0.86652 0.6636 0.66224 0.0
H1448 H 0.83209 0.59645 0.6038 0.0
C1449 C 0.92913 0.59209 0.62481 0.0
C1450 C 0.9211 0.5754 0.59467 0.0
C1451 C 0.91306 0.60786 0.63564 0.0
C1452 C 0.84222 0.6154 0.61958 0.0
H1453 H 0.81366 0.69926 0.74028 0.0
H1454 H 0.84127 0.6739 0.71618 0.0
H1455 H 0.80377 0.6227 0.62465 0.0
H1456 H 0.88951 0.56289 0.55222 0.0
H1457 H 0.86254 0.59139 0.57024 0.0
H1458 H 0.90494 0.65697 0.6568 0.0
C1459 C 0.82523 0.67842 0.70089 0.0
C1460 C 0.82586 0.63038 0.63165 0.0
C1461 C 0.80923 0.69283 0.71471 0.0
C1462 C 0.89677 0.57561 0.5754 0.0
C1463 C 0.8809 0.59171 0.58605 0.0
C1464 C 0.8829 0.6489 0.64978 0.0
C1465 C 0.82046 0.6697 0.66783 0.0
C1466 C 0.8378 0.65448 0.65345 0.0
C1467 C 0.88859 0.60789 0.61652 0.0
C1468 C 0.87105 0.62433 0.62857 0.0
H1469 H 0.76749 0.69526 0.64741 0.0
H1470 H 0.7951 0.66935 0.6233 0.0
H1471 H 0.87636 0.68229 0.67867 0.0
H1472 H 0.94788 0.59302 0.6403 0.0
H1473 H 0.91969 0.61964 0.6594 0.0
C1474 C 0.35024 0.79659 0.7251 0.0
C1475 C 0.33009 0.77542 0.70467 0.0
C1476 C 0.36978 0.81434 0.71274 0.0
C1477 C 0.37583 0.83754 0.63622 0.0
H1478 H 0.4441 0.88573 0.6854 0.0
C1479 C 0.42478 0.93549 0.59701 0.0
C1480 C 0.45341 0.94446 0.60094 0.0
C1481 C 0.41213 0.91467 0.61162 0.0
C1482 C 0.42528 0.87226 0.67109 0.0
H1483 H 0.31584 0.75408 0.65624 0.0
H1484 H 0.35134 0.78361 0.63478 0.0
H1485 H 0.42086 0.84634 0.70528 0.0
H1486 H 0.49147 0.93943 0.62362 0.0
H1487 H 0.46945 0.90214 0.64791 0.0
H1488 H 0.38086 0.86245 0.60127 0.0
C1489 C 0.3513 0.78769 0.66003 0.0
C1490 C 0.41173 0.84979 0.68272 0.0
C1491 C 0.33119 0.77054 0.67227 0.0
C1492 C 0.46929 0.93296 0.62054 0.0
C1493 C 0.45664 0.91162 0.6345 0.0
C1494 C 0.38967 0.85954 0.62429 0.0
C1495 C 0.36984 0.81073 0.6798 0.0
C1496 C 0.38647 0.83245 0.66576 0.0
C1497 C 0.42786 0.90181 0.62961 0.0
C1498 C 0.41418 0.87761 0.64192 0.0
H1499 H 0.34948 0.80075 0.7502 0.0
H1500 H 0.38344 0.83184 0.7288 0.0
H1501 H 0.35624 0.82512 0.62256 0.0
H1502 H 0.41216 0.94425 0.58217 0.0
H1503 H 0.38996 0.90833 0.60822 0.0
C1504 C 0.19629 0.31641 0.71843 0.0
C1505 C 0.21415 0.30658 0.7015 0.0
C1506 C 0.18061 0.33155 0.70519 0.0
C1507 C 0.1531 0.34733 0.62804 0.0
H1508 H 0.13836 0.40436 0.68306 0.0
C1509 C 0.06939 0.39695 0.5867 0.0
C1510 C 0.07388 0.4244 0.59809 0.0
C1511 C 0.08766 0.38345 0.5983 0.0
C1512 C 0.14243 0.38873 0.66716 0.0
H1513 H 0.2295 0.30543 0.65714 0.0
H1514 H 0.20243 0.33227 0.63419 0.0
H1515 H 0.16865 0.38031 0.70481 0.0
H1516 H 0.10188 0.45922 0.6301 0.0
H1517 H 0.13378 0.43587 0.65004 0.0
H1518 H 0.12727 0.35618 0.59024 0.0
C1519 C 0.20028 0.32786 0.65765 0.0
C1520 C 0.1596 0.3746 0.6798 0.0
C1521 C 0.216 0.31259 0.67093 0.0
C1522 C 0.09743 0.43801 0.62111 0.0
C1523 C 0.11577 0.42454 0.63261 0.0
C1524 C 0.13595 0.36153 0.61536 0.0
C1525 C 0.18229 0.33754 0.67459 0.0
C1526 C 0.16502 0.35349 0.66054 0.0
C1527 C 0.11109 0.39698 0.62157 0.0
C1528 C 0.13016 0.38234 0.63477 0.0
H1529 H 0.19408 0.31217 0.74196 0.0
H1530 H 0.16671 0.33812 0.71886 0.0
H1531 H 0.15651 0.33112 0.61243 0.0
H1532 H 0.05132 0.38565 0.56933 0.0
H1533 H 0.08299 0.36219 0.58951 0.0
C1534 C 0.69962 0.21274 0.68032 0.0
C1535 C 0.71839 0.20626 0.70228 0.0
C1536 C 0.68842 0.19598 0.65087 0.0
C1537 C 0.67469 0.12514 0.61468 0.0
H1538 H 0.6417 0.14867 0.54184 0.0
C1539 C 0.56868 0.08288 0.53128 0.0
C1540 C 0.56782 0.05589 0.52488 0.0
C1541 C 0.59386 0.10268 0.54047 0.0
C1542 C 0.65121 0.14183 0.56177 0.0
H1543 H 0.74059 0.17766 0.71072 0.0
H1544 H 0.72288 0.14949 0.6586 0.0
H1545 H 0.67514 0.18162 0.58407 0.0
H1546 H 0.59187 0.02808 0.52084 0.0
H1547 H 0.63607 0.06272 0.53659 0.0
H1548 H 0.65025 0.08562 0.59312 0.0
C1549 C 0.71602 0.16699 0.66421 0.0
C1550 C 0.67013 0.16068 0.58613 0.0
C1551 C 0.72658 0.18336 0.69394 0.0
C1552 C 0.59223 0.04892 0.52505 0.0
C1553 C 0.61744 0.0687 0.53426 0.0
C1554 C 0.65622 0.10638 0.59022 0.0
C1555 C 0.69615 0.17262 0.64261 0.0
C1556 C 0.68108 0.15266 0.61361 0.0
C1557 C 0.61841 0.09557 0.54386 0.0
C1558 C 0.64334 0.11462 0.56423 0.0
H1559 H 0.69299 0.23036 0.68622 0.0
H1560 H 0.67282 0.20081 0.63528 0.0
H1561 H 0.68222 0.11803 0.63548 0.0
H1562 H 0.54995 0.08847 0.53179 0.0
H1563 H 0.59392 0.12316 0.54807 0.0
C1564 C 0.7576 0.29286 0.34026 0.0
C1565 C 0.77156 0.27976 0.3208 0.0
C1566 C 0.7713 0.30821 0.37002 0.0
C1567 C 0.83687 0.32563 0.42836 0.0
H1568 H 0.83625 0.39888 0.42717 0.0
C1569 C 0.93267 0.41276 0.44947 0.0
C1570 C 0.93302 0.43842 0.46346 0.0
C1571 C 0.90911 0.39124 0.44589 0.0
C1572 C 0.83626 0.37853 0.42868 0.0
H1573 H 0.81001 0.27097 0.31785 0.0
H1574 H 0.83353 0.29696 0.36943 0.0
H1575 H 0.7989 0.36223 0.39495 0.0
H1576 H 0.90977 0.46213 0.48537 0.0
H1577 H 0.86791 0.42434 0.4784 0.0
H1578 H 0.8755 0.34217 0.46004 0.0
C1579 C 0.81209 0.29546 0.36219 0.0
C1580 C 0.81478 0.35746 0.4102 0.0
C1581 C 0.79862 0.28059 0.33244 0.0
C1582 C 0.90981 0.4423 0.47471 0.0
C1583 C 0.886 0.42079 0.47072 0.0
C1584 C 0.85838 0.3467 0.44677 0.0
C1585 C 0.79896 0.31025 0.38085 0.0
C1586 C 0.8158 0.33091 0.40827 0.0
C1587 C 0.88528 0.39514 0.45567 0.0
C1588 C 0.85909 0.37337 0.44548 0.0
H1589 H 0.73669 0.29252 0.33179 0.0
H1590 H 0.76068 0.31939 0.38393 0.0
H1591 H 0.83789 0.30531 0.42781 0.0
H1592 H 0.95038 0.40952 0.44043 0.0
H1593 H 0.90906 0.37188 0.43361 0.0
C1594 C 0.71298 0.8177 0.35917 0.0
C1595 C 0.70466 0.78986 0.34858 0.0
C1596 C 0.6973 0.82982 0.37676 0.0
C1597 C 0.62572 0.8186 0.38759 0.0
H1598 H 0.65694 0.88583 0.44683 0.0
C1599 C 0.56684 0.89623 0.40542 0.0
C1600 C 0.5714 0.91303 0.43509 0.0
C1601 C 0.5819 0.87809 0.40034 0.0
C1602 C 0.64773 0.86686 0.43076 0.0
H1603 H 0.67432 0.75264 0.34972 0.0
H1604 H 0.64697 0.77379 0.38103 0.0
H1605 H 0.68662 0.85947 0.43067 0.0
H1606 H 0.59514 0.92335 0.48283 0.0
H1607 H 0.621 0.89123 0.47433 0.0
H1608 H 0.58684 0.82597 0.38766 0.0
C1609 C 0.66542 0.78632 0.37525 0.0
C1610 C 0.66486 0.85186 0.42118 0.0
C1611 C 0.68119 0.77416 0.35757 0.0
C1612 C 0.5911 0.91078 0.45973 0.0
C1613 C 0.60604 0.89242 0.45476 0.0
C1614 C 0.60858 0.83352 0.39731 0.0
C1615 C 0.67288 0.81441 0.38429 0.0
C1616 C 0.65422 0.82796 0.39867 0.0
C1617 C 0.6019 0.87607 0.42482 0.0
C1618 C 0.61946 0.85828 0.41823 0.0
H1619 H 0.73099 0.83033 0.35258 0.0
H1620 H 0.7036 0.85148 0.38288 0.0
H1621 H 0.61673 0.8004 0.37012 0.0
H1622 H 0.5523 0.89775 0.38563 0.0
H1623 H 0.57851 0.86634 0.37676 0.0
C1624 C 0.22333 0.65105 0.2817 0.0
C1625 C 0.23238 0.67739 0.29888 0.0
C1626 C 0.20887 0.63021 0.29517 0.0
C1627 C 0.18795 0.6114 0.3696 0.0
H1628 H 0.11654 0.57824 0.31609 0.0
C1629 C 0.09129 0.56926 0.4207 0.0
C1630 C 0.07054 0.54708 0.40264 0.0
C1631 C 0.11426 0.58098 0.40814 0.0
C1632 C 0.13652 0.58672 0.33118 0.0
H1633 H 0.23583 0.70224 0.34455 0.0
H1634 H 0.21062 0.66591 0.36796 0.0
H1635 H 0.15344 0.60491 0.29427 0.0
H1636 H 0.0579 0.51907 0.35786 0.0
H1637 H 0.09825 0.5391 0.3362 0.0
H1638 H 0.17079 0.59366 0.40677 0.0
C1639 C 0.21458 0.66133 0.34413 0.0
C1640 C 0.1577 0.602 0.31861 0.0
C1641 C 0.22877 0.68218 0.3306 0.0
C1642 C 0.07338 0.53648 0.37208 0.0
C1643 C 0.09651 0.54795 0.35969 0.0
C1644 C 0.16681 0.59584 0.38212 0.0
C1645 C 0.20357 0.63538 0.32611 0.0
C1646 C 0.18335 0.61512 0.33794 0.0
C1647 C 0.1171 0.5705 0.37743 0.0
C1648 C 0.14061 0.58401 0.3633 0.0
H1649 H 0.22596 0.64675 0.25725 0.0
H1650 H 0.20074 0.61029 0.28092 0.0
H1651 H 0.20764 0.6212 0.38489 0.0
H1652 H 0.08963 0.57777 0.4444 0.0
H1653 H 0.12947 0.59862 0.42225 0.0
C1654 C 0.32968 0.2319 0.37945 0.0
C1655 C 0.30439 0.21771 0.35991 0.0
C1656 C 0.34467 0.21853 0.39724 0.0
C1657 C 0.3409 0.15473 0.42668 0.0
H1658 H 0.41654 0.1698 0.41499 0.0
C1659 C 0.40378 0.08002 0.44042 0.0
C1660 C 0.43242 0.08977 0.45011 0.0
C1661 C 0.38805 0.09762 0.43643 0.0
C1662 C 0.39567 0.16565 0.41921 0.0
H1663 H 0.27418 0.17878 0.34495 0.0
H1664 H 0.30027 0.15542 0.37602 0.0
H1665 H 0.38893 0.1972 0.39583 0.0
H1666 H 0.4667 0.12594 0.46502 0.0
H1667 H 0.4392 0.15661 0.45907 0.0
H1668 H 0.34756 0.12282 0.4496 0.0
C1669 C 0.30854 0.17686 0.37775 0.0
C1670 C 0.37979 0.18139 0.40812 0.0
C1671 C 0.29364 0.19021 0.35983 0.0
C1672 C 0.44472 0.11766 0.45751 0.0
C1673 C 0.42895 0.13528 0.45373 0.0
C1674 C 0.35687 0.13905 0.43799 0.0
C1675 C 0.33458 0.19073 0.39597 0.0
C1676 C 0.35207 0.17582 0.41115 0.0
C1677 C 0.40052 0.12548 0.44225 0.0
C1678 C 0.38432 0.14396 0.4338 0.0
H1679 H 0.33843 0.25312 0.37998 0.0
H1680 H 0.3645 0.22983 0.41136 0.0
H1681 H 0.31969 0.15013 0.42973 0.0
H1682 H 0.39352 0.05869 0.43518 0.0
H1683 H 0.36627 0.08926 0.42741 0.0
C1684 C 0.6737 0.77747 0.62307 0.0
C1685 C 0.70085 0.78829 0.63944 0.0
C1686 C 0.66107 0.79289 0.60569 0.0
C1687 C 0.66564 0.86365 0.60551 0.0
H1688 H 0.61145 0.83593 0.52804 0.0
C1689 C 0.60818 0.93132 0.5518 0.0
C1690 C 0.57963 0.92025 0.54238 0.0
C1691 C 0.6249 0.91496 0.5579 0.0
C1692 C 0.62645 0.84393 0.54976 0.0
H1693 H 0.7367 0.82301 0.6489 0.0
H1694 H 0.71489 0.84978 0.61825 0.0
H1695 H 0.63742 0.80737 0.54895 0.0
H1696 H 0.54646 0.8831 0.53067 0.0
H1697 H 0.57555 0.85459 0.54177 0.0
H1698 H 0.65427 0.89981 0.60708 0.0
C1699 C 0.7031 0.82961 0.61928 0.0
C1700 C 0.64134 0.82757 0.56171 0.0
C1701 C 0.71566 0.81422 0.63667 0.0
C1702 C 0.56838 0.89228 0.53773 0.0
C1703 C 0.58511 0.8759 0.54403 0.0
C1704 C 0.65076 0.87991 0.59366 0.0
C1705 C 0.6754 0.81944 0.60436 0.0
C1706 C 0.66094 0.83717 0.58993 0.0
C1707 C 0.6135 0.88711 0.55499 0.0
C1708 C 0.63075 0.87023 0.56582 0.0
H1709 H 0.6618 0.75753 0.62488 0.0
H1710 H 0.63968 0.78448 0.59468 0.0
H1711 H 0.68014 0.87156 0.62763 0.0
H1712 H 0.61758 0.95273 0.55483 0.0
H1713 H 0.64676 0.92422 0.56551 0.0
C1714 C 0.70665 0.16219 0.27877 0.0
C1715 C 0.70027 0.17773 0.25655 0.0
C1716 C 0.68624 0.14131 0.28528 0.0
C1717 C 0.61233 0.11951 0.28346 0.0
H1718 H 0.62949 0.05733 0.30939 0.0
C1719 C 0.54125 0.04411 0.34408 0.0
C1720 C 0.55486 0.04342 0.37435 0.0
C1721 C 0.55608 0.05578 0.32222 0.0
C1722 C 0.62432 0.07442 0.3018 0.0
H1723 H 0.66755 0.18306 0.22297 0.0
H1724 H 0.63181 0.14626 0.23422 0.0
H1725 H 0.66106 0.08655 0.28289 0.0
H1726 H 0.59448 0.0534 0.40521 0.0
H1727 H 0.62037 0.07333 0.36682 0.0
H1728 H 0.57589 0.10757 0.30322 0.0
C1729 C 0.65261 0.15053 0.24687 0.0
C1730 C 0.64239 0.09122 0.28685 0.0
C1731 C 0.67308 0.17159 0.24046 0.0
C1732 C 0.5835 0.05384 0.38211 0.0
C1733 C 0.59831 0.06498 0.36009 0.0
C1734 C 0.59408 0.10248 0.29806 0.0
C1735 C 0.65897 0.13532 0.26955 0.0
C1736 C 0.6372 0.11461 0.27888 0.0
C1737 C 0.58471 0.06629 0.33014 0.0
C1738 C 0.60056 0.08049 0.30852 0.0
H1739 H 0.72736 0.16643 0.2917 0.0
H1740 H 0.69176 0.13043 0.30344 0.0
H1741 H 0.6078 0.13744 0.27778 0.0
H1742 H 0.51915 0.03619 0.33759 0.0
H1743 H 0.54525 0.05674 0.29926 0.0
C1744 C 0.7934 0.67785 0.2705 0.0
C1745 C 0.78427 0.6965 0.28935 0.0
C1746 C 0.80862 0.6626 0.28436 0.0
C1747 C 0.82785 0.6384 0.35867 0.0
H1748 H 0.88999 0.63101 0.32044 0.0
C1749 C 0.8907 0.5657 0.39246 0.0
C1750 C 0.91937 0.57476 0.3947 0.0
C1751 C 0.87389 0.58074 0.3811 0.0
C1752 C 0.87286 0.63297 0.33161 0.0
H1753 H 0.78362 0.71298 0.33798 0.0
H1754 H 0.81014 0.68612 0.36225 0.0
H1755 H 0.86122 0.6565 0.29852 0.0
H1756 H 0.95262 0.60694 0.3864 0.0
H1757 H 0.92348 0.6331 0.36686 0.0
H1758 H 0.83973 0.6149 0.39192 0.0
C1759 C 0.80533 0.68331 0.33657 0.0
C1760 C 0.85611 0.6474 0.31878 0.0
C1761 C 0.79007 0.69872 0.32264 0.0
C1762 C 0.93071 0.59937 0.38535 0.0
C1763 C 0.91391 0.61428 0.37379 0.0
C1764 C 0.84454 0.62374 0.3714 0.0
C1765 C 0.81529 0.6654 0.31759 0.0
C1766 C 0.83329 0.65028 0.332 0.0
C1767 C 0.88523 0.60517 0.37136 0.0
C1768 C 0.86732 0.62083 0.35805 0.0
H1769 H 0.78927 0.67531 0.2448 0.0
H1770 H 0.81538 0.64866 0.2689 0.0
H1771 H 0.81042 0.64006 0.36941 0.0
H1772 H 0.8812 0.547 0.39968 0.0
H1773 H 0.85192 0.57294 0.37938 0.0
C1774 C 0.29288 0.77336 0.34471 0.0
C1775 C 0.3101 0.76446 0.32618 0.0
C1776 C 0.30368 0.78949 0.37453 0.0
C1777 C 0.37043 0.82448 0.43085 0.0
H1778 H 0.33978 0.88416 0.4329 0.0
C1779 C 0.4384 0.93058 0.48316 0.0
C1780 C 0.43772 0.94687 0.46006 0.0
C1781 C 0.4172 0.90691 0.48065 0.0
C1782 C 0.34845 0.86757 0.43305 0.0
H1783 H 0.35157 0.76338 0.32473 0.0
H1784 H 0.37105 0.79311 0.3757 0.0
H1785 H 0.31331 0.84108 0.40182 0.0
H1786 H 0.41376 0.95251 0.41768 0.0
H1787 H 0.37709 0.91144 0.41297 0.0
H1788 H 0.4069 0.85219 0.45915 0.0
C1789 C 0.34902 0.78705 0.36817 0.0
C1790 C 0.33312 0.8426 0.41542 0.0
C1791 C 0.33798 0.77019 0.33872 0.0
C1792 C 0.41477 0.9402 0.43573 0.0
C1793 C 0.39359 0.91677 0.43331 0.0
C1794 C 0.38598 0.84967 0.44804 0.0
C1795 C 0.33214 0.79789 0.38585 0.0
C1796 C 0.34463 0.82117 0.41235 0.0
C1797 C 0.395 0.89934 0.45506 0.0
C1798 C 0.37578 0.87184 0.44741 0.0
H1799 H 0.27116 0.76849 0.33576 0.0
H1800 H 0.28985 0.79658 0.38784 0.0
H1801 H 0.37955 0.80819 0.43007 0.0
H1802 H 0.45609 0.93515 0.50188 0.0
H1803 H 0.41882 0.89392 0.4978 0.0
C1804 C 0.20847 0.30303 0.33522 0.0
C1805 C 0.21287 0.30373 0.30382 0.0
C1806 C 0.19189 0.31731 0.34838 0.0
C1807 C 0.16168 0.37315 0.33696 0.0
H1808 H 0.11042 0.34046 0.38831 0.0
C1809 C 0.07527 0.41758 0.36779 0.0
C1810 C 0.06902 0.41786 0.39857 0.0
C1811 C 0.09308 0.40363 0.35749 0.0
C1812 C 0.12482 0.35005 0.37433 0.0
H1813 H 0.20329 0.32044 0.26188 0.0
H1814 H 0.17457 0.34492 0.28455 0.0
H1815 H 0.14151 0.31686 0.36881 0.0
H1816 H 0.07646 0.40295 0.44237 0.0
H1817 H 0.10777 0.37888 0.42454 0.0
H1818 H 0.145 0.40624 0.34226 0.0
C1819 C 0.1841 0.33364 0.29929 0.0
C1820 C 0.14273 0.3365 0.36315 0.0
C1821 C 0.20054 0.31937 0.28616 0.0
C1822 C 0.08091 0.40343 0.41861 0.0
C1823 C 0.0987 0.38938 0.40825 0.0
C1824 C 0.14381 0.38666 0.34809 0.0
C1825 C 0.1794 0.33278 0.33054 0.0
C1826 C 0.16124 0.34773 0.34401 0.0
C1827 C 0.10526 0.38947 0.37762 0.0
C1828 C 0.1249 0.37523 0.36668 0.0
H1829 H 0.21755 0.2912 0.34956 0.0
H1830 H 0.18901 0.31636 0.37263 0.0
H1831 H 0.17599 0.38277 0.32289 0.0
H1832 H 0.06691 0.4287 0.35174 0.0
H1833 H 0.09725 0.40391 0.33359 0.0
C1834 C 0.3447 0.2431 0.65224 0.0
C1835 C 0.3172 0.22968 0.65246 0.0
C1836 C 0.3609 0.22988 0.63674 0.0
C1837 C 0.35811 0.16834 0.58023 0.0
H1838 H 0.42894 0.17592 0.63075 0.0
C1839 C 0.42879 0.10485 0.54212 0.0
C1840 C 0.4409 0.09414 0.56646 0.0
C1841 C 0.41552 0.12435 0.54928 0.0
C1842 C 0.40922 0.17354 0.61632 0.0
H1843 H 0.28464 0.19251 0.63528 0.0
H1844 H 0.31273 0.16949 0.60847 0.0
H1845 H 0.4018 0.20473 0.64785 0.0
H1846 H 0.44799 0.09536 0.61745 0.0
H1847 H 0.42508 0.12913 0.62985 0.0
H1848 H 0.36506 0.13627 0.54948 0.0
C1849 C 0.32191 0.19021 0.61995 0.0
C1850 C 0.39378 0.19034 0.62591 0.0
C1851 C 0.3058 0.20338 0.63548 0.0
C1852 C 0.4395 0.10354 0.59811 0.0
C1853 C 0.42632 0.12297 0.60525 0.0
C1854 C 0.37359 0.15153 0.57061 0.0
C1855 C 0.34987 0.20302 0.62107 0.0
C1856 C 0.36773 0.18757 0.6084 0.0
C1857 C 0.41408 0.13361 0.58098 0.0
C1858 C 0.39904 0.15348 0.58898 0.0
H1859 H 0.35401 0.26338 0.66517 0.0
H1860 H 0.38226 0.24047 0.63771 0.0
H1861 H 0.33829 0.16587 0.56594 0.0
H1862 H 0.42967 0.09827 0.51755 0.0
H1863 H 0.40653 0.13225 0.52999 0.0
C1864 C 0.7766 0.28527 0.67324 0.0
C1865 C 0.78056 0.29585 0.70574 0.0
C1866 C 0.78466 0.302 0.65172 0.0
C1867 C 0.81329 0.37347 0.64393 0.0
H1868 H 0.857 0.34356 0.59121 0.0
C1869 C 0.91004 0.4363 0.60866 0.0
C1870 C 0.91516 0.42987 0.57788 0.0
C1871 C 0.88746 0.42041 0.61848 0.0
C1872 C 0.84444 0.35207 0.60521 0.0
H1873 H 0.79401 0.33224 0.74109 0.0
H1874 H 0.80914 0.36146 0.70381 0.0
H1875 H 0.82664 0.31476 0.61876 0.0
H1876 H 0.90051 0.402 0.53302 0.0
H1877 H 0.86111 0.37384 0.5505 0.0
H1878 H 0.8327 0.41122 0.63172 0.0
C1879 C 0.7993 0.34036 0.69465 0.0
C1880 C 0.82691 0.33555 0.62098 0.0
C1881 C 0.79078 0.32363 0.7161 0.0
C1882 C 0.89711 0.40735 0.55694 0.0
C1883 C 0.87458 0.39129 0.56689 0.0
C1884 C 0.83104 0.39006 0.62832 0.0
C1885 C 0.79732 0.32956 0.66242 0.0
C1886 C 0.81177 0.34621 0.64132 0.0
C1887 C 0.86962 0.39767 0.59779 0.0
C1888 C 0.84739 0.37962 0.60964 0.0
H1889 H 0.76821 0.26389 0.66459 0.0
H1890 H 0.78216 0.29314 0.62694 0.0
H1891 H 0.80153 0.38219 0.65893 0.0
H1892 H 0.9235 0.45364 0.62524 0.0
H1893 H 0.88439 0.42551 0.64261 0.0
C1894 C 0.23781 0.66218 0.65827 0.0
C1895 C 0.24019 0.6894 0.66702 0.0
C1896 C 0.22045 0.64729 0.63022 0.0
C1897 C 0.15746 0.64862 0.58043 0.0
H1898 H 0.16219 0.58067 0.53818 0.0
C1899 C 0.081 0.53974 0.54431 0.0
C1900 C 0.05788 0.54414 0.52739 0.0
C1901 C 0.10659 0.55867 0.54871 0.0
C1902 C 0.16072 0.59979 0.54939 0.0
H1903 H 0.22967 0.72332 0.65188 0.0
H1904 H 0.19949 0.69757 0.60255 0.0
H1905 H 0.2035 0.61373 0.56949 0.0
H1906 H 0.043 0.57103 0.50098 0.0
H1907 H 0.08802 0.60477 0.50924 0.0
H1908 H 0.11452 0.63421 0.56157 0.0
C1909 C 0.21003 0.68735 0.61779 0.0
C1910 C 0.1843 0.61865 0.56748 0.0
C1911 C 0.22711 0.7021 0.64607 0.0
C1912 C 0.06075 0.56724 0.51384 0.0
C1913 C 0.08638 0.58646 0.51862 0.0
C1914 C 0.13398 0.62989 0.56212 0.0
C1915 C 0.20551 0.65951 0.61022 0.0
C1916 C 0.18265 0.64269 0.58459 0.0
C1917 C 0.10941 0.5826 0.53676 0.0
C1918 C 0.13514 0.60477 0.54781 0.0
H1919 H 0.24786 0.65203 0.67412 0.0
H1920 H 0.21737 0.62588 0.62544 0.0
H1921 H 0.15523 0.66677 0.59339 0.0
H1922 H 0.0791 0.52201 0.555 0.0
H1923 H 0.12382 0.55533 0.56325 0.0
loop_
_geom_bond_atom_site_label_1
_geom_bond_atom_site_label_2
_geom_bond_distance
_geom_bond_site_symmetry_2
_ccdc_geom_bond_type
Dy0 O4 2.398 . S
Dy0 O5 2.491 . S
Dy0 O6 2.403 . S
Dy0 O7 2.664 . S
Dy0 O11 2.326 . S
Dy0 O15 2.310 . S
Dy0 O16 2.351 . S
C1 O12 1.185 . S
C1 O13 1.355 . S
C2 O4 1.185 . S
C2 O5 1.355 . S
Dy3 O7 2.310 . S
Dy3 O10 2.351 . S
Dy3 O12 2.398 . S
Dy3 O13 2.491 . S
Dy3 O14 2.403 . S
Dy3 O15 2.664 . S
Dy3 O17 2.326 . S
O4 Dy0 2.398 . S
O4 C2 1.185 . S
O5 Dy0 2.491 . S
O5 C2 1.355 . S
O6 Dy0 2.403 . S
O6 C8 1.254 . S
O7 Dy0 2.664 . S
O7 Dy3 2.310 . S
O7 C8 1.268 . S
C8 O6 1.254 . S
C8 O7 1.268 . S
C9 O14 1.254 . S
C9 O15 1.268 . S
O10 Dy3 2.351 . S
O10 C18 1.249 . S
O11 Dy0 2.326 . S
O11 C18 1.267 . S
O12 C1 1.185 . S
O12 Dy3 2.398 . S
O13 C1 1.355 . S
O13 Dy3 2.491 . S
O14 Dy3 2.403 . S
O14 C9 1.254 . S
O15 Dy0 2.310 . S
O15 Dy3 2.664 . S
O15 C9 1.268 . S
O16 Dy0 2.351 . S
O16 C19 1.249 . S
O17 Dy3 2.326 . S
O17 C19 1.267 . S
C18 O10 1.249 . S
C18 O11 1.267 . S
C19 O16 1.249 . S
C19 O17 1.267 . S
Dy20 O24 2.398 . S
Dy20 O25 2.491 . S
Dy20 O26 2.403 . S
Dy20 O27 2.664 . S
Dy20 O31 2.326 . S
Dy20 O35 2.310 . S
Dy20 O36 2.351 . S
C21 O32 1.185 . S
C21 O33 1.355 . S
C22 O24 1.185 . S
C22 O25 1.355 . S
Dy23 O27 2.310 . S
Dy23 O30 2.351 . S
Dy23 O32 2.398 . S
Dy23 O33 2.491 . S
Dy23 O34 2.403 . S
Dy23 O35 2.664 . S
Dy23 O37 2.326 . S
O24 Dy20 2.398 . S
O24 C22 1.185 . S
O25 Dy20 2.491 . S
O25 C22 1.355 . S
O26 Dy20 2.403 . S
O26 C28 1.254 . S
O27 Dy20 2.664 . S
O27 Dy23 2.310 . S
O27 C28 1.268 . S
C28 O26 1.254 . S
C28 O27 1.268 . S
C29 O34 1.254 . S
C29 O35 1.268 . S
O30 Dy23 2.351 . S
O30 C38 1.249 . S
O31 Dy20 2.326 . S
O31 C38 1.267 . S
O32 C21 1.185 . S
O32 Dy23 2.398 . S
O33 C21 1.355 . S
O33 Dy23 2.491 . S
O34 Dy23 2.403 . S
O34 C29 1.254 . S
O35 Dy20 2.310 . S
O35 Dy23 2.664 . S
O35 C29 1.268 . S
O36 Dy20 2.351 . S
O36 C39 1.249 . S
O37 Dy23 2.326 . S
O37 C39 1.267 . S
C38 O30 1.249 . S
C38 O31 1.267 . S
C39 O36 1.249 . S
C39 O37 1.267 . S
Dy40 O44 2.398 . S
Dy40 O45 2.491 . S
Dy40 O46 2.403 . S
Dy40 O47 2.664 . S
Dy40 O51 2.326 . S
Dy40 O55 2.310 . S
Dy40 O56 2.351 . S
C41 O52 1.185 . S
C41 O53 1.355 . S
C42 O44 1.185 . S
C42 O45 1.355 . S
Dy43 O47 2.310 . S
Dy43 O50 2.351 . S
Dy43 O52 2.398 . S
Dy43 O53 2.491 . S
Dy43 O54 2.403 . S
Dy43 O55 2.664 . S
Dy43 O57 2.326 . S
O44 Dy40 2.398 . S
O44 C42 1.185 . S
O45 Dy40 2.491 . S
O45 C42 1.355 . S
O46 Dy40 2.403 . S
O46 C48 1.254 . S
O47 Dy40 2.664 . S
O47 Dy43 2.310 . S
O47 C48 1.268 . S
C48 O46 1.254 . S
C48 O47 1.268 . S
C49 O54 1.254 . S
C49 O55 1.268 . S
O50 Dy43 2.351 . S
O50 C58 1.249 . S
O51 Dy40 2.326 . S
O51 C58 1.267 . S
O52 C41 1.185 . S
O52 Dy43 2.398 . S
O53 C41 1.355 . S
O53 Dy43 2.491 . S
O54 Dy43 2.403 . S
O54 C49 1.254 . S
O55 Dy40 2.310 . S
O55 Dy43 2.664 . S
O55 C49 1.268 . S
O56 Dy40 2.351 . S
O56 C59 1.249 . S
O57 Dy43 2.326 . S
O57 C59 1.267 . S
C58 O50 1.249 . S
C58 O51 1.267 . S
C59 O56 1.249 . S
C59 O57 1.267 . S
Dy60 O64 2.398 . S
Dy60 O65 2.491 . S
Dy60 O66 2.403 . S
Dy60 O67 2.664 . S
Dy60 O71 2.326 . S
Dy60 O75 2.310 . S
Dy60 O76 2.351 . S
C61 O72 1.185 . S
C61 O73 1.355 . S
C62 O64 1.185 . S
C62 O65 1.355 . S
Dy63 O67 2.310 . S
Dy63 O70 2.351 . S
Dy63 O72 2.398 . S
Dy63 O73 2.491 . S
Dy63 O74 2.403 . S
Dy63 O75 2.664 . S
Dy63 O77 2.326 . S
O64 Dy60 2.398 . S
O64 C62 1.185 . S
O65 Dy60 2.491 . S
O65 C62 1.355 . S
O66 Dy60 2.403 . S
O66 C68 1.254 . S
O67 Dy60 2.664 . S
O67 Dy63 2.310 . S
O67 C68 1.268 . S
C68 O66 1.254 . S
C68 O67 1.268 . S
C69 O74 1.254 . S
C69 O75 1.268 . S
O70 Dy63 2.351 . S
O70 C78 1.249 . S
O71 Dy60 2.326 . S
O71 C78 1.267 . S
O72 C61 1.185 . S
O72 Dy63 2.398 . S
O73 C61 1.355 . S
O73 Dy63 2.491 . S
O74 Dy63 2.403 . S
O74 C69 1.254 . S
O75 Dy60 2.310 . S
O75 Dy63 2.664 . S
O75 C69 1.268 . S
O76 Dy60 2.351 . S
O76 C79 1.249 . S
O77 Dy63 2.326 . S
O77 C79 1.267 . S
C78 O70 1.249 . S
C78 O71 1.267 . S
C79 O76 1.249 . S
C79 O77 1.267 . S
Dy80 O84 2.398 . S
Dy80 O85 2.491 . S
Dy80 O86 2.403 . S
Dy80 O87 2.664 . S
Dy80 O91 2.326 . S
Dy80 O95 2.310 . S
Dy80 O96 2.351 . S
C81 O92 1.185 . S
C81 O93 1.355 . S
C82 O84 1.185 . S
C82 O85 1.355 . S
Dy83 O87 2.310 . S
Dy83 O90 2.351 . S
Dy83 O92 2.398 . S
Dy83 O93 2.491 . S
Dy83 O94 2.403 . S
Dy83 O95 2.664 . S
Dy83 O97 2.326 . S
O84 Dy80 2.398 . S
O84 C82 1.185 . S
O85 Dy80 2.491 . S
O85 C82 1.355 . S
O86 Dy80 2.403 . S
O86 C88 1.254 . S
O87 Dy80 2.664 . S
O87 Dy83 2.310 . S
O87 C88 1.268 . S
C88 O86 1.254 . S
C88 O87 1.268 . S
C89 O94 1.254 . S
C89 O95 1.268 . S
O90 Dy83 2.351 . S
O90 C98 1.249 . S
O91 Dy80 2.326 . S
O91 C98 1.267 . S
O92 C81 1.185 . S
O92 Dy83 2.398 . S
O93 C81 1.355 . S
O93 Dy83 2.491 . S
O94 Dy83 2.403 . S
O94 C89 1.254 . S
O95 Dy80 2.310 . S
O95 Dy83 2.664 . S
O95 C89 1.268 . S
O96 Dy80 2.351 . S
O96 C99 1.249 . S
O97 Dy83 2.326 . S
O97 C99 1.267 . S
C98 O90 1.249 . S
C98 O91 1.267 . S
C99 O96 1.249 . S
C99 O97 1.267 . S
Dy100 O104 2.398 . S
Dy100 O105 2.491 . S
Dy100 O106 2.403 . S
Dy100 O107 2.664 . S
Dy100 O111 2.326 . S
Dy100 O115 2.310 . S
Dy100 O116 2.351 . S
C101 O112 1.185 . S
C101 O113 1.355 . S
C102 O104 1.185 . S
C102 O105 1.355 . S
Dy103 O107 2.310 . S
Dy103 O110 2.351 . S
Dy103 O112 2.398 . S
Dy103 O113 2.491 . S
Dy103 O114 2.403 . S
Dy103 O115 2.664 . S
Dy103 O117 2.326 . S
O104 Dy100 2.398 . S
O104 C102 1.185 . S
O105 Dy100 2.491 . S
O105 C102 1.355 . S
O106 Dy100 2.403 . S
O106 C108 1.254 . S
O107 Dy100 2.664 . S
O107 Dy103 2.310 . S
O107 C108 1.268 . S
C108 O106 1.254 . S
C108 O107 1.268 . S
C109 O114 1.254 . S
C109 O115 1.268 . S
O110 Dy103 2.351 . S
O110 C118 1.249 . S
O111 Dy100 2.326 . S
O111 C118 1.267 . S
O112 C101 1.185 . S
O112 Dy103 2.398 . S
O113 C101 1.355 . S
O113 Dy103 2.491 . S
O114 Dy103 2.403 . S
O114 C109 1.254 . S
O115 Dy100 2.310 . S
O115 Dy103 2.664 . S
O115 C109 1.268 . S
O116 Dy100 2.351 . S
O116 C119 1.249 . S
O117 Dy103 2.326 . S
O117 C119 1.267 . S
C118 O110 1.249 . S
C118 O111 1.267 . S
C119 O116 1.249 . S
C119 O117 1.267 . S
Dy120 O124 2.398 . S
Dy120 O125 2.491 . S
Dy120 O126 2.403 . S
Dy120 O127 2.664 . S
Dy120 O131 2.326 . S
Dy120 O135 2.310 . S
Dy120 O136 2.351 . S
C121 O132 1.185 . S
C121 O133 1.355 . S
C122 O124 1.185 . S
C122 O125 1.355 . S
Dy123 O127 2.310 . S
Dy123 O130 2.351 . S
Dy123 O132 2.398 . S
Dy123 O133 2.491 . S
Dy123 O134 2.403 . S
Dy123 O135 2.664 . S
Dy123 O137 2.326 . S
O124 Dy120 2.398 . S
O124 C122 1.185 . S
O125 Dy120 2.491 . S
O125 C122 1.355 . S
O126 Dy120 2.403 . S
O126 C128 1.254 . S
O127 Dy120 2.664 . S
O127 Dy123 2.310 . S
O127 C128 1.268 . S
C128 O126 1.254 . S
C128 O127 1.268 . S
C129 O134 1.254 . S
C129 O135 1.268 . S
O130 Dy123 2.351 . S
O130 C138 1.249 . S
O131 Dy120 2.326 . S
O131 C138 1.267 . S
O132 C121 1.185 . S
O132 Dy123 2.398 . S
O133 C121 1.355 . S
O133 Dy123 2.491 . S
O134 Dy123 2.403 . S
O134 C129 1.254 . S
O135 Dy120 2.310 . S
O135 Dy123 2.664 . S
O135 C129 1.268 . S
O136 Dy120 2.351 . S
O136 C139 1.249 . S
O137 Dy123 2.326 . S
O137 C139 1.267 . S
C138 O130 1.249 . S
C138 O131 1.267 . S
C139 O136 1.249 . S
C139 O137 1.267 . S
Dy140 O144 2.398 . S
Dy140 O145 2.491 . S
Dy140 O146 2.403 . S
Dy140 O147 2.664 . S
Dy140 O151 2.326 . S
Dy140 O155 2.310 . S
Dy140 O156 2.351 . S
C141 O152 1.185 . S
C141 O153 1.355 . S
C142 O144 1.185 . S
C142 O145 1.355 . S
Dy143 O147 2.310 . S
Dy143 O150 2.351 . S
Dy143 O152 2.398 . S
Dy143 O153 2.491 . S
Dy143 O154 2.403 . S
Dy143 O155 2.664 . S
Dy143 O157 2.326 . S
O144 Dy140 2.398 . S
O144 C142 1.185 . S
O145 Dy140 2.491 . S
O145 C142 1.355 . S
O146 Dy140 2.403 . S
O146 C148 1.254 . S
O147 Dy140 2.664 . S
O147 Dy143 2.310 . S
O147 C148 1.268 . S
C148 O146 1.254 . S
C148 O147 1.268 . S
C149 O154 1.254 . S
C149 O155 1.268 . S
O150 Dy143 2.351 . S
O150 C158 1.249 . S
O151 Dy140 2.326 . S
O151 C158 1.267 . S
O152 C141 1.185 . S
O152 Dy143 2.398 . S
O153 C141 1.355 . S
O153 Dy143 2.491 . S
O154 Dy143 2.403 . S
O154 C149 1.254 . S
O155 Dy140 2.310 . S
O155 Dy143 2.664 . S
O155 C149 1.268 . S
O156 Dy140 2.351 . S
O156 C159 1.249 . S
O157 Dy143 2.326 . S
O157 C159 1.267 . S
C158 O150 1.249 . S
C158 O151 1.267 . S
C159 O156 1.249 . S
C159 O157 1.267 . S
Cd160 N163 2.334 1_655 S
Cd160 N189 2.304 1_565 S
Cd160 O196 2.268 . S
Cd160 O199 2.273 1_665 S
Cd160 O200 2.417 . S
Cd160 O201 2.330 . S
Cd161 N176 2.304 1_455 S
Cd161 N180 2.334 1_545 S
Cd161 O197 2.273 1_445 S
Cd161 O198 2.268 . S
Cd161 O202 2.417 . S
Cd161 O203 2.330 . S
C162 N163 1.332 . S
C162 C166 1.381 . S
C162 H168 0.931 . S
N163 Cd160 2.334 1_455 S
N163 C162 1.332 . S
N163 C167 1.328 . S
C164 C165 1.396 . S
C164 C167 1.378 . S
C164 H206 0.931 . S
C165 C164 1.396 . S
C165 C166 1.382 . S
C166 C162 1.381 . S
C166 C165 1.382 . S
C166 H207 0.930 . S
C167 N163 1.328 . S
C167 C164 1.378 . S
C167 H169 0.930 1_455 S
H168 C162 0.931 . S
H169 C167 0.930 1_655 S
C170 O196 1.238 . S
C170 O197 1.253 . S
C171 C172 1.379 . S
C171 N176 1.337 . S
C171 H177 0.929 . S
C172 C171 1.379 . S
C172 C173 1.380 . S
C172 H208 0.929 . S
C173 C172 1.380 . S
C173 C174 1.399 . S
C174 C173 1.399 . S
C174 C175 1.376 . S
C174 H209 0.931 . S
C175 C174 1.376 . S
C175 N176 1.338 . S
C175 H178 0.930 1_655 S
N176 Cd161 2.304 1_655 S
N176 C171 1.337 . S
N176 C175 1.338 . S
H177 C171 0.929 . S
H178 C175 0.930 1_455 S
C179 N180 1.332 . S
C179 C183 1.381 . S
C179 H185 0.931 . S
N180 Cd161 2.334 1_565 S
N180 C179 1.332 . S
N180 C184 1.328 . S
C181 C182 1.396 . S
C181 C184 1.378 . S
C181 H210 0.931 . S
C182 C181 1.396 . S
C182 C183 1.382 . S
C183 C179 1.381 . S
C183 C182 1.382 . S
C183 H211 0.930 . S
C184 N180 1.328 . S
C184 C181 1.378 . S
C184 H186 0.930 1_565 S
H185 C179 0.931 . S
H186 C184 0.930 1_545 S
C187 O198 1.238 . S
C187 O199 1.253 . S
C188 O200 1.239 . S
C188 O201 1.230 . S
N189 Cd160 2.304 1_545 S
N189 C190 1.337 . S
N189 C194 1.338 . S
C190 N189 1.337 . S
C190 C191 1.379 . S
C190 H204 0.929 . S
C191 C190 1.379 . S
C191 C192 1.380 . S
C191 H212 0.929 . S
C192 C191 1.380 . S
C192 C193 1.399 . S
C193 C192 1.399 . S
C193 C194 1.376 . S
C193 H213 0.931 . S
C194 N189 1.338 . S
C194 C193 1.376 . S
C194 H205 0.930 1_545 S
C195 O202 1.239 . S
C195 O203 1.230 . S
O196 Cd160 2.268 . S
O196 C170 1.238 . S
O197 Cd161 2.273 1_665 S
O197 C170 1.253 . S
O198 Cd161 2.268 . S
O198 C187 1.238 . S
O199 Cd160 2.273 1_445 S
O199 C187 1.253 . S
O200 Cd160 2.417 . S
O200 C188 1.239 . S
O201 Cd160 2.330 . S
O201 C188 1.230 . S
O202 Cd161 2.417 . S
O202 C195 1.239 . S
O203 Cd161 2.330 . S
O203 C195 1.230 . S
H204 C190 0.929 . S
H205 C194 0.930 1_565 S
H206 C164 0.931 . S
H207 C166 0.930 . S
H208 C172 0.929 . S
H209 C174 0.931 . S
H210 C181 0.931 . S
H211 C183 0.930 . S
H212 C191 0.929 . S
H213 C193 0.931 . S
Cd214 N217 2.334 . S
Cd214 N243 2.304 1_565 S
Cd214 O250 2.268 1_554 S
Cd214 O253 2.273 1_565 S
Cd214 O254 2.417 . S
Cd214 O255 2.330 . S
Cd215 N230 2.304 . S
Cd215 N234 2.334 1_545 S
Cd215 O251 2.273 1_545 S
Cd215 O252 2.268 1_556 S
Cd215 O256 2.417 . S
Cd215 O257 2.330 . S
C216 N217 1.332 . S
C216 C220 1.381 . S
C216 H222 0.931 . S
N217 Cd214 2.334 . S
N217 C216 1.332 . S
N217 C221 1.328 . S
C218 C219 1.396 . S
C218 C221 1.378 . S
C218 H260 0.931 1_554 S
C219 C218 1.396 . S
C219 C220 1.382 . S
C220 C216 1.381 . S
C220 C219 1.382 . S
C220 H261 0.930 . S
C221 N217 1.328 . S
C221 C218 1.378 . S
C221 H223 0.930 1_554 S
H222 C216 0.931 . S
H223 C221 0.930 1_556 S
C224 O250 1.238 . S
C224 O251 1.253 . S
C225 C226 1.379 . S
C225 N230 1.337 . S
C225 H231 0.929 . S
C226 C225 1.379 . S
C226 C227 1.380 . S
C226 H262 0.929 . S
C227 C226 1.380 . S
C227 C228 1.399 . S
C228 C227 1.399 . S
C228 C229 1.376 . S
C228 H263 0.931 1_556 S
C229 C228 1.376 . S
C229 N230 1.338 . S
C229 H232 0.930 1_556 S
N230 Cd215 2.304 . S
N230 C225 1.337 . S
N230 C229 1.338 . S
H231 C225 0.929 . S
H232 C229 0.930 1_554 S
C233 N234 1.332 . S
C233 C237 1.381 . S
C233 H239 0.931 . S
N234 Cd215 2.334 1_565 S
N234 C233 1.332 . S
N234 C238 1.328 . S
C235 C236 1.396 . S
C235 C238 1.378 . S
C235 H264 0.931 1_556 S
C236 C235 1.396 . S
C236 C237 1.382 . S
C237 C233 1.381 . S
C237 C236 1.382 . S
C237 H265 0.930 . S
C238 N234 1.328 . S
C238 C235 1.378 . S
C238 H240 0.930 1_566 S
H239 C233 0.931 . S
H240 C238 0.930 1_544 S
C241 O252 1.238 . S
C241 O253 1.253 . S
C242 O254 1.239 . S
C242 O255 1.230 . S
N243 Cd214 2.304 1_545 S
N243 C244 1.337 . S
N243 C248 1.338 . S
C244 N243 1.337 . S
C244 C245 1.379 . S
C244 H258 0.929 . S
C245 C244 1.379 . S
C245 C246 1.380 . S
C245 H266 0.929 . S
C246 C245 1.380 . S
C246 C247 1.399 . S
C247 C246 1.399 . S
C247 C248 1.376 . S
C247 H267 0.931 1_554 S
C248 N243 1.338 . S
C248 C247 1.376 . S
C248 H259 0.930 1_544 S
C249 O256 1.239 . S
C249 O257 1.230 . S
O250 Cd214 2.268 1_556 S
O250 C224 1.238 . S
O251 Cd215 2.273 1_565 S
O251 C224 1.253 . S
O252 Cd215 2.268 1_554 S
O252 C241 1.238 . S
O253 Cd214 2.273 1_545 S
O253 C241 1.253 . S
O254 Cd214 2.417 . S
O254 C242 1.239 . S
O255 Cd214 2.330 . S
O255 C242 1.230 . S
O256 Cd215 2.417 . S
O256 C249 1.239 . S
O257 Cd215 2.330 . S
O257 C249 1.230 . S
H258 C244 0.929 . S
H259 C248 0.930 1_566 S
H260 C218 0.931 1_556 S
H261 C220 0.930 . S
H262 C226 0.929 . S
H263 C228 0.931 1_554 S
H264 C235 0.931 1_554 S
H265 C237 0.930 . S
H266 C245 0.929 . S
H267 C247 0.931 1_556 S
Cd268 N271 2.334 1_655 S
Cd268 N297 2.304 . S
Cd268 O304 2.268 1_554 S
Cd268 O307 2.273 1_655 S
Cd268 O308 2.417 . S
Cd268 O309 2.330 . S
Cd269 N284 2.304 1_455 S
Cd269 N288 2.334 . S
Cd269 O305 2.273 1_455 S
Cd269 O306 2.268 1_556 S
Cd269 O310 2.417 . S
Cd269 O311 2.330 . S
C270 N271 1.332 . S
C270 C274 1.381 . S
C270 H276 0.931 . S
N271 Cd268 2.334 1_455 S
N271 C270 1.332 . S
N271 C275 1.328 . S
C272 C273 1.396 . S
C272 C275 1.378 . S
C272 H314 0.931 1_554 S
C273 C272 1.396 . S
C273 C274 1.382 . S
C274 C270 1.381 . S
C274 C273 1.382 . S
C274 H315 0.930 . S
C275 N271 1.328 . S
C275 C272 1.378 . S
C275 H277 0.930 1_454 S
H276 C270 0.931 . S
H277 C275 0.930 1_656 S
C278 O304 1.238 . S
C278 O305 1.253 . S
C279 C280 1.379 . S
C279 N284 1.337 . S
C279 H285 0.929 . S
C280 C279 1.379 . S
C280 C281 1.380 . S
C280 H316 0.929 . S
C281 C280 1.380 . S
C281 C282 1.399 . S
C282 C281 1.399 . S
C282 C283 1.376 . S
C282 H317 0.931 1_556 S
C283 C282 1.376 . S
C283 N284 1.338 . S
C283 H286 0.930 1_656 S
N284 Cd269 2.304 1_655 S
N284 C279 1.337 . S
N284 C283 1.338 . S
H285 C279 0.929 . S
H286 C283 0.930 1_454 S
C287 N288 1.332 . S
C287 C291 1.381 . S
C287 H293 0.931 . S
N288 Cd269 2.334 . S
N288 C287 1.332 . S
N288 C292 1.328 . S
C289 C290 1.396 . S
C289 C292 1.378 . S
C289 H318 0.931 1_556 S
C290 C289 1.396 . S
C290 C291 1.382 . S
C291 C287 1.381 . S
C291 C290 1.382 . S
C291 H319 0.930 . S
C292 N288 1.328 . S
C292 C289 1.378 . S
C292 H294 0.930 1_556 S
H293 C287 0.931 . S
H294 C292 0.930 1_554 S
C295 O306 1.238 . S
C295 O307 1.253 . S
C296 O308 1.239 . S
C296 O309 1.230 . S
N297 Cd268 2.304 . S
N297 C298 1.337 . S
N297 C302 1.338 . S
C298 N297 1.337 . S
C298 C299 1.379 . S
C298 H312 0.929 . S
C299 C298 1.379 . S
C299 C300 1.380 . S
C299 H320 0.929 . S
C300 C299 1.380 . S
C300 C301 1.399 . S
C301 C300 1.399 . S
C301 C302 1.376 . S
C301 H321 0.931 1_554 S
C302 N297 1.338 . S
C302 C301 1.376 . S
C302 H313 0.930 1_554 S
C303 O310 1.239 . S
C303 O311 1.230 . S
O304 Cd268 2.268 1_556 S
O304 C278 1.238 . S
O305 Cd269 2.273 1_655 S
O305 C278 1.253 . S
O306 Cd269 2.268 1_554 S
O306 C295 1.238 . S
O307 Cd268 2.273 1_455 S
O307 C295 1.253 . S
O308 Cd268 2.417 . S
O308 C296 1.239 . S
O309 Cd268 2.330 . S
O309 C296 1.230 . S
O310 Cd269 2.417 . S
O310 C303 1.239 . S
O311 Cd269 2.330 . S
O311 C303 1.230 . S
H312 C298 0.929 . S
H313 C302 0.930 1_556 S
H314 C272 0.931 1_556 S
H315 C274 0.930 . S
H316 C280 0.929 . S
H317 C282 0.931 1_554 S
H318 C289 0.931 1_554 S
H319 C291 0.930 . S
H320 C299 0.929 . S
H321 C301 0.931 1_556 S
Cd322 N325 2.334 . S
Cd322 N351 2.304 . S
Cd322 O358 2.268 1_554 S
Cd322 O361 2.273 . S
Cd322 O362 2.417 . S
Cd322 O363 2.330 . S
Cd323 N338 2.304 . S
Cd323 N342 2.334 . S
Cd323 O359 2.273 . S
Cd323 O360 2.268 1_556 S
Cd323 O364 2.417 . S
Cd323 O365 2.330 . S
C324 N325 1.332 . S
C324 C328 1.381 . S
C324 H330 0.931 . S
N325 Cd322 2.334 . S
N325 C324 1.332 . S
N325 C329 1.328 . S
C326 C327 1.396 . S
C326 C329 1.378 . S
C326 H368 0.931 1_554 S
C327 C326 1.396 . S
C327 C328 1.382 . S
C328 C324 1.381 . S
C328 C327 1.382 . S
C328 H369 0.930 . S
C329 N325 1.328 . S
C329 C326 1.378 . S
C329 H331 0.930 1_554 S
H330 C324 0.931 . S
H331 C329 0.930 1_556 S
C332 O358 1.238 . S
C332 O359 1.253 . S
C333 C334 1.379 . S
C333 N338 1.337 . S
C333 H339 0.929 . S
C334 C333 1.379 . S
C334 C335 1.380 . S
C334 H370 0.929 . S
C335 C334 1.380 . S
C335 C336 1.399 . S
C336 C335 1.399 . S
C336 C337 1.376 . S
C336 H371 0.931 1_556 S
C337 C336 1.376 . S
C337 N338 1.338 . S
C337 H340 0.930 1_556 S
N338 Cd323 2.304 . S
N338 C333 1.337 . S
N338 C337 1.338 . S
H339 C333 0.929 . S
H340 C337 0.930 1_554 S
C341 N342 1.332 . S
C341 C345 1.381 . S
C341 H347 0.931 . S
N342 Cd323 2.334 . S
N342 C341 1.332 . S
N342 C346 1.328 . S
C343 C344 1.396 . S
C343 C346 1.378 . S
C343 H372 0.931 1_556 S
C344 C343 1.396 . S
C344 C345 1.382 . S
C345 C341 1.381 . S
C345 C344 1.382 . S
C345 H373 0.930 . S
C346 N342 1.328 . S
C346 C343 1.378 . S
C346 H348 0.930 1_556 S
H347 C341 0.931 . S
H348 C346 0.930 1_554 S
C349 O360 1.238 . S
C349 O361 1.253 . S
C350 O362 1.239 . S
C350 O363 1.230 . S
N351 Cd322 2.304 . S
N351 C352 1.337 . S
N351 C356 1.338 . S
C352 N351 1.337 . S
C352 C353 1.379 . S
C352 H366 0.929 . S
C353 C352 1.379 . S
C353 C354 1.380 . S
C353 H374 0.929 . S
C354 C353 1.380 . S
C354 C355 1.399 . S
C355 C354 1.399 . S
C355 C356 1.376 . S
C355 H375 0.931 1_554 S
C356 N351 1.338 . S
C356 C355 1.376 . S
C356 H367 0.930 1_554 S
C357 O364 1.239 . S
C357 O365 1.230 . S
O358 Cd322 2.268 1_556 S
O358 C332 1.238 . S
O359 Cd323 2.273 . S
O359 C332 1.253 . S
O360 Cd323 2.268 1_554 S
O360 C349 1.238 . S
O361 Cd322 2.273 . S
O361 C349 1.253 . S
O362 Cd322 2.417 . S
O362 C350 1.239 . S
O363 Cd322 2.330 . S
O363 C350 1.230 . S
O364 Cd323 2.417 . S
O364 C357 1.239 . S
O365 Cd323 2.330 . S
O365 C357 1.230 . S
H366 C352 0.929 . S
H367 C356 0.930 1_556 S
H368 C326 0.931 1_556 S
H369 C328 0.930 . S
H370 C334 0.929 . S
H371 C336 0.931 1_554 S
H372 C343 0.931 1_554 S
H373 C345 0.930 . S
H374 C353 0.929 . S
H375 C355 0.931 1_556 S
Cd376 N379 2.334 1_655 S
Cd376 N405 2.304 . S
Cd376 O412 2.268 . S
Cd376 O415 2.273 1_655 S
Cd376 O416 2.417 . S
Cd376 O417 2.330 . S
Cd377 N392 2.304 1_455 S
Cd377 N396 2.334 . S
Cd377 O413 2.273 1_455 S
Cd377 O414 2.268 . S
Cd377 O418 2.417 . S
Cd377 O419 2.330 . S
C378 N379 1.332 . S
C378 C382 1.381 . S
C378 H384 0.931 . S
N379 Cd376 2.334 1_455 S
N379 C378 1.332 . S
N379 C383 1.328 . S
C380 C381 1.396 . S
C380 C383 1.378 . S
C380 H422 0.931 . S
C381 C380 1.396 . S
C381 C382 1.382 . S
C382 C378 1.381 . S
C382 C381 1.382 . S
C382 H423 0.930 . S
C383 N379 1.328 . S
C383 C380 1.378 . S
C383 H385 0.930 1_455 S
H384 C378 0.931 . S
H385 C383 0.930 1_655 S
C386 O412 1.238 . S
C386 O413 1.253 . S
C387 C388 1.379 . S
C387 N392 1.337 . S
C387 H393 0.929 . S
C388 C387 1.379 . S
C388 C389 1.380 . S
C388 H424 0.929 . S
C389 C388 1.380 . S
C389 C390 1.399 . S
C390 C389 1.399 . S
C390 C391 1.376 . S
C390 H425 0.931 . S
C391 C390 1.376 . S
C391 N392 1.338 . S
C391 H394 0.930 1_655 S
N392 Cd377 2.304 1_655 S
N392 C387 1.337 . S
N392 C391 1.338 . S
H393 C387 0.929 . S
H394 C391 0.930 1_455 S
C395 N396 1.332 . S
C395 C399 1.381 . S
C395 H401 0.931 . S
N396 Cd377 2.334 . S
N396 C395 1.332 . S
N396 C400 1.328 . S
C397 C398 1.396 . S
C397 C400 1.378 . S
C397 H426 0.931 . S
C398 C397 1.396 . S
C398 C399 1.382 . S
C399 C395 1.381 . S
C399 C398 1.382 . S
C399 H427 0.930 . S
C400 N396 1.328 . S
C400 C397 1.378 . S
C400 H402 0.930 . S
H401 C395 0.931 . S
H402 C400 0.930 . S
C403 O414 1.238 . S
C403 O415 1.253 . S
C404 O416 1.239 . S
C404 O417 1.230 . S
N405 Cd376 2.304 . S
N405 C406 1.337 . S
N405 C410 1.338 . S
C406 N405 1.337 . S
C406 C407 1.379 . S
C406 H420 0.929 . S
C407 C406 1.379 . S
C407 C408 1.380 . S
C407 H428 0.929 . S
C408 C407 1.380 . S
C408 C409 1.399 . S
C409 C408 1.399 . S
C409 C410 1.376 . S
C409 H429 0.931 . S
C410 N405 1.338 . S
C410 C409 1.376 . S
C410 H421 0.930 . S
C411 O418 1.239 . S
C411 O419 1.230 . S
O412 Cd376 2.268 . S
O412 C386 1.238 . S
O413 Cd377 2.273 1_655 S
O413 C386 1.253 . S
O414 Cd377 2.268 . S
O414 C403 1.238 . S
O415 Cd376 2.273 1_455 S
O415 C403 1.253 . S
O416 Cd376 2.417 . S
O416 C404 1.239 . S
O417 Cd376 2.330 . S
O417 C404 1.230 . S
O418 Cd377 2.417 . S
O418 C411 1.239 . S
O419 Cd377 2.330 . S
O419 C411 1.230 . S
H420 C406 0.929 . S
H421 C410 0.930 . S
H422 C380 0.931 . S
H423 C382 0.930 . S
H424 C388 0.929 . S
H425 C390 0.931 . S
H426 C397 0.931 . S
H427 C399 0.930 . S
H428 C407 0.929 . S
H429 C409 0.931 . S
Cd430 N433 2.334 . S
Cd430 N459 2.304 1_565 S
Cd430 O466 2.268 . S
Cd430 O469 2.273 1_565 S
Cd430 O470 2.417 . S
Cd430 O471 2.330 . S
Cd431 N446 2.304 . S
Cd431 N450 2.334 1_545 S
Cd431 O467 2.273 1_545 S
Cd431 O468 2.268 . S
Cd431 O472 2.417 . S
Cd431 O473 2.330 . S
C432 N433 1.332 . S
C432 C436 1.381 . S
C432 H438 0.931 . S
N433 Cd430 2.334 . S
N433 C432 1.332 . S
N433 C437 1.328 . S
C434 C435 1.396 . S
C434 C437 1.378 . S
C434 H476 0.931 . S
C435 C434 1.396 . S
C435 C436 1.382 . S
C436 C432 1.381 . S
C436 C435 1.382 . S
C436 H477 0.930 . S
C437 N433 1.328 . S
C437 C434 1.378 . S
C437 H439 0.930 . S
H438 C432 0.931 . S
H439 C437 0.930 . S
C440 O466 1.238 . S
C440 O467 1.253 . S
C441 C442 1.379 . S
C441 N446 1.337 . S
C441 H447 0.929 . S
C442 C441 1.379 . S
C442 C443 1.380 . S
C442 H478 0.929 . S
C443 C442 1.380 . S
C443 C444 1.399 . S
C444 C443 1.399 . S
C444 C445 1.376 . S
C444 H479 0.931 . S
C445 C444 1.376 . S
C445 N446 1.338 . S
C445 H448 0.930 . S
N446 Cd431 2.304 . S
N446 C441 1.337 . S
N446 C445 1.338 . S
H447 C441 0.929 . S
H448 C445 0.930 . S
C449 N450 1.332 . S
C449 C453 1.381 . S
C449 H455 0.931 . S
N450 Cd431 2.334 1_565 S
N450 C449 1.332 . S
N450 C454 1.328 . S
C451 C452 1.396 . S
C451 C454 1.378 . S
C451 H480 0.931 . S
C452 C451 1.396 . S
C452 C453 1.382 . S
C453 C449 1.381 . S
C453 C452 1.382 . S
C453 H481 0.930 . S
C454 N450 1.328 . S
C454 C451 1.378 . S
C454 H456 0.930 1_565 S
H455 C449 0.931 . S
H456 C454 0.930 1_545 S
C457 O468 1.238 . S
C457 O469 1.253 . S
C458 O470 1.239 . S
C458 O471 1.230 . S
N459 Cd430 2.304 1_545 S
N459 C460 1.337 . S
N459 C464 1.338 . S
C460 N459 1.337 . S
C460 C461 1.379 . S
C460 H474 0.929 . S
C461 C460 1.379 . S
C461 C462 1.380 . S
C461 H482 0.929 . S
C462 C461 1.380 . S
C462 C463 1.399 . S
C463 C462 1.399 . S
C463 C464 1.376 . S
C463 H483 0.931 . S
C464 N459 1.338 . S
C464 C463 1.376 . S
C464 H475 0.930 1_545 S
C465 O472 1.239 . S
C465 O473 1.230 . S
O466 Cd430 2.268 . S
O466 C440 1.238 . S
O467 Cd431 2.273 1_565 S
O467 C440 1.253 . S
O468 Cd431 2.268 . S
O468 C457 1.238 . S
O469 Cd430 2.273 1_545 S
O469 C457 1.253 . S
O470 Cd430 2.417 . S
O470 C458 1.239 . S
O471 Cd430 2.330 . S
O471 C458 1.230 . S
O472 Cd431 2.417 . S
O472 C465 1.239 . S
O473 Cd431 2.330 . S
O473 C465 1.230 . S
H474 C460 0.929 . S
H475 C464 0.930 1_565 S
H476 C434 0.931 . S
H477 C436 0.930 . S
H478 C442 0.929 . S
H479 C444 0.931 . S
H480 C451 0.931 . S
H481 C453 0.930 . S
H482 C461 0.929 . S
H483 C463 0.931 . S
C484 C485 1.349 . S
C484 C486 1.327 . S
C484 H509 0.950 . S
C485 C484 1.349 . S
C485 C501 1.349 . S
C486 C484 1.327 . S
C486 C505 1.429 . S
C486 H510 0.950 . S
C487 C504 1.574 . S
C487 C506 1.368 . S
C487 H511 0.949 . S
H488 C492 0.949 . S
C489 C490 1.349 . S
C489 C491 1.327 . S
C489 H512 0.950 . S
C490 C489 1.349 . S
C490 C502 1.349 . S
C491 C489 1.327 . S
C491 C507 1.429 . S
C491 H513 0.950 . S
C492 H488 0.949 . S
C492 C500 1.574 . S
C492 C508 1.368 . S
H493 C501 0.950 . S
H494 C499 0.950 . S
H495 C500 0.949 . S
H496 C502 0.950 . S
H497 C503 0.950 . S
H498 C504 0.949 . S
C499 H494 0.950 . S
C499 C501 1.327 . S
C499 C505 1.429 . S
C500 C492 1.574 . S
C500 H495 0.949 . S
C500 C506 1.368 . S
C501 C485 1.349 . S
C501 H493 0.950 . S
C501 C499 1.327 . S
C502 C490 1.349 . S
C502 H496 0.950 . S
C502 C503 1.327 . S
C503 H497 0.950 . S
C503 C502 1.327 . S
C503 C507 1.429 . S
C504 C487 1.574 . S
C504 H498 0.949 . S
C504 C508 1.368 . S
C505 C486 1.429 . S
C505 C499 1.429 . S
C505 C506 1.523 . S
C506 C487 1.368 . S
C506 C500 1.368 . S
C506 C505 1.523 . S
C507 C491 1.429 . S
C507 C503 1.429 . S
C507 C508 1.523 . S
C508 C492 1.368 . S
C508 C504 1.368 . S
C508 C507 1.523 . S
H509 C484 0.950 . S
H510 C486 0.950 . S
H511 C487 0.949 . S
H512 C489 0.950 . S
H513 C491 0.950 . S
C514 C515 1.349 . S
C514 C516 1.327 . S
C514 H539 0.950 . S
C515 C514 1.349 . S
C515 C531 1.349 . S
C516 C514 1.327 . S
C516 C535 1.429 . S
C516 H540 0.950 . S
C517 C534 1.574 . S
C517 C536 1.368 . S
C517 H541 0.949 . S
H518 C522 0.949 . S
C519 C520 1.349 . S
C519 C521 1.327 . S
C519 H542 0.950 . S
C520 C519 1.349 . S
C520 C532 1.349 . S
C521 C519 1.327 . S
C521 C537 1.429 . S
C521 H543 0.950 . S
C522 H518 0.949 . S
C522 C530 1.574 . S
C522 C538 1.368 . S
H523 C531 0.950 . S
H524 C529 0.950 . S
H525 C530 0.949 . S
H526 C532 0.950 . S
H527 C533 0.950 . S
H528 C534 0.949 . S
C529 H524 0.950 . S
C529 C531 1.327 . S
C529 C535 1.429 . S
C530 C522 1.574 . S
C530 H525 0.949 . S
C530 C536 1.368 . S
C531 C515 1.349 . S
C531 H523 0.950 . S
C531 C529 1.327 . S
C532 C520 1.349 . S
C532 H526 0.950 . S
C532 C533 1.327 . S
C533 H527 0.950 . S
C533 C532 1.327 . S
C533 C537 1.429 . S
C534 C517 1.574 . S
C534 H528 0.949 . S
C534 C538 1.368 . S
C535 C516 1.429 . S
C535 C529 1.429 . S
C535 C536 1.523 . S
C536 C517 1.368 . S
C536 C530 1.368 . S
C536 C535 1.523 . S
C537 C521 1.429 . S
C537 C533 1.429 . S
C537 C538 1.523 . S
C538 C522 1.368 . S
C538 C534 1.368 . S
C538 C537 1.523 . S
H539 C514 0.950 . S
H540 C516 0.950 . S
H541 C517 0.949 . S
H542 C519 0.950 . S
H543 C521 0.950 . S
C544 C545 1.349 . S
C544 C546 1.327 . S
C544 H569 0.950 . S
C545 C544 1.349 . S
C545 C561 1.349 . S
C546 C544 1.327 . S
C546 C565 1.429 . S
C546 H570 0.950 . S
C547 C564 1.574 . S
C547 C566 1.368 . S
C547 H571 0.949 . S
H548 C552 0.949 . S
C549 C550 1.349 . S
C549 C551 1.327 . S
C549 H572 0.950 . S
C550 C549 1.349 . S
C550 C562 1.349 . S
C551 C549 1.327 . S
C551 C567 1.429 . S
C551 H573 0.950 . S
C552 H548 0.949 . S
C552 C560 1.574 . S
C552 C568 1.368 . S
H553 C561 0.950 . S
H554 C559 0.950 . S
H555 C560 0.949 . S
H556 C562 0.950 . S
H557 C563 0.950 . S
H558 C564 0.949 . S
C559 H554 0.950 . S
C559 C561 1.327 . S
C559 C565 1.429 . S
C560 C552 1.574 . S
C560 H555 0.949 . S
C560 C566 1.368 . S
C561 C545 1.349 . S
C561 H553 0.950 . S
C561 C559 1.327 . S
C562 C550 1.349 . S
C562 H556 0.950 . S
C562 C563 1.327 . S
C563 H557 0.950 . S
C563 C562 1.327 . S
C563 C567 1.429 . S
C564 C547 1.574 . S
C564 H558 0.949 . S
C564 C568 1.368 . S
C565 C546 1.429 . S
C565 C559 1.429 . S
C565 C566 1.523 . S
C566 C547 1.368 . S
C566 C560 1.368 . S
C566 C565 1.523 . S
C567 C551 1.429 . S
C567 C563 1.429 . S
C567 C568 1.523 . S
C568 C552 1.368 . S
C568 C564 1.368 . S
C568 C567 1.523 . S
H569 C544 0.950 . S
H570 C546 0.950 . S
H571 C547 0.949 . S
H572 C549 0.950 . S
H573 C551 0.950 . S
C574 C575 1.349 . S
C574 C576 1.327 . S
C574 H599 0.950 . S
C575 C574 1.349 . S
C575 C591 1.349 . S
C576 C574 1.327 . S
C576 C595 1.429 . S
C576 H600 0.950 . S
C577 C594 1.574 . S
C577 C596 1.368 . S
C577 H601 0.949 . S
H578 C582 0.949 . S
C579 C580 1.349 . S
C579 C581 1.327 . S
C579 H602 0.950 . S
C580 C579 1.349 . S
C580 C592 1.349 . S
C581 C579 1.327 . S
C581 C597 1.429 . S
C581 H603 0.950 . S
C582 H578 0.949 . S
C582 C590 1.574 . S
C582 C598 1.368 . S
H583 C591 0.950 . S
H584 C589 0.950 . S
H585 C590 0.949 . S
H586 C592 0.950 . S
H587 C593 0.950 . S
H588 C594 0.949 . S
C589 H584 0.950 . S
C589 C591 1.327 . S
C589 C595 1.429 . S
C590 C582 1.574 . S
C590 H585 0.949 . S
C590 C596 1.368 . S
C591 C575 1.349 . S
C591 H583 0.950 . S
C591 C589 1.327 . S
C592 C580 1.349 . S
C592 H586 0.950 . S
C592 C593 1.327 . S
C593 H587 0.950 . S
C593 C592 1.327 . S
C593 C597 1.429 . S
C594 C577 1.574 . S
C594 H588 0.949 . S
C594 C598 1.368 . S
C595 C576 1.429 . S
C595 C589 1.429 . S
C595 C596 1.523 . S
C596 C577 1.368 . S
C596 C590 1.368 . S
C596 C595 1.523 . S
C597 C581 1.429 . S
C597 C593 1.429 . S
C597 C598 1.523 . S
C598 C582 1.368 . S
C598 C594 1.368 . S
C598 C597 1.523 . S
H599 C574 0.950 . S
H600 C576 0.950 . S
H601 C577 0.949 . S
H602 C579 0.950 . S
H603 C581 0.950 . S
C604 C605 1.349 . S
C604 C606 1.327 . S
C604 H629 0.950 . S
C605 C604 1.349 . S
C605 C621 1.349 . S
C606 C604 1.327 . S
C606 C625 1.429 . S
C606 H630 0.950 . S
C607 C624 1.574 . S
C607 C626 1.368 . S
C607 H631 0.949 . S
H608 C612 0.949 . S
C609 C610 1.349 . S
C609 C611 1.327 . S
C609 H632 0.950 . S
C610 C609 1.349 . S
C610 C622 1.349 . S
C611 C609 1.327 . S
C611 C627 1.429 . S
C611 H633 0.950 . S
C612 H608 0.949 . S
C612 C620 1.574 . S
C612 C628 1.368 . S
H613 C621 0.950 . S
H614 C619 0.950 . S
H615 C620 0.949 . S
H616 C622 0.950 . S
H617 C623 0.950 . S
H618 C624 0.949 . S
C619 H614 0.950 . S
C619 C621 1.327 . S
C619 C625 1.429 . S
C620 C612 1.574 . S
C620 H615 0.949 . S
C620 C626 1.368 . S
C621 C605 1.349 . S
C621 H613 0.950 . S
C621 C619 1.327 . S
C622 C610 1.349 . S
C622 H616 0.950 . S
C622 C623 1.327 . S
C623 H617 0.950 . S
C623 C622 1.327 . S
C623 C627 1.429 . S
C624 C607 1.574 . S
C624 H618 0.949 . S
C624 C628 1.368 . S
C625 C606 1.429 . S
C625 C619 1.429 . S
C625 C626 1.523 . S
C626 C607 1.368 . S
C626 C620 1.368 . S
C626 C625 1.523 . S
C627 C611 1.429 . S
C627 C623 1.429 . S
C627 C628 1.523 . S
C628 C612 1.368 . S
C628 C624 1.368 . S
C628 C627 1.523 . S
H629 C604 0.950 . S
H630 C606 0.950 . S
H631 C607 0.949 . S
H632 C609 0.950 . S
H633 C611 0.950 . S
C634 C635 1.349 . S
C634 C636 1.327 . S
C634 H659 0.950 . S
C635 C634 1.349 . S
C635 C651 1.349 . S
C636 C634 1.327 . S
C636 C655 1.429 . S
C636 H660 0.950 . S
C637 C654 1.574 . S
C637 C656 1.368 . S
C637 H661 0.949 . S
H638 C642 0.949 . S
C639 C640 1.349 . S
C639 C641 1.327 . S
C639 H662 0.950 . S
C640 C639 1.349 . S
C640 C652 1.349 . S
C641 C639 1.327 . S
C641 C657 1.429 . S
C641 H663 0.950 . S
C642 H638 0.949 . S
C642 C650 1.574 . S
C642 C658 1.368 . S
H643 C651 0.950 . S
H644 C649 0.950 . S
H645 C650 0.949 . S
H646 C652 0.950 . S
H647 C653 0.950 . S
H648 C654 0.949 . S
C649 H644 0.950 . S
C649 C651 1.327 . S
C649 C655 1.429 . S
C650 C642 1.574 . S
C650 H645 0.949 . S
C650 C656 1.368 . S
C651 C635 1.349 . S
C651 H643 0.950 . S
C651 C649 1.327 . S
C652 C640 1.349 . S
C652 H646 0.950 . S
C652 C653 1.327 . S
C653 H647 0.950 . S
C653 C652 1.327 . S
C653 C657 1.429 . S
C654 C637 1.574 . S
C654 H648 0.949 . S
C654 C658 1.368 . S
C655 C636 1.429 . S
C655 C649 1.429 . S
C655 C656 1.523 . S
C656 C637 1.368 . S
C656 C650 1.368 . S
C656 C655 1.523 . S
C657 C641 1.429 . S
C657 C653 1.429 . S
C657 C658 1.523 . S
C658 C642 1.368 . S
C658 C654 1.368 . S
C658 C657 1.523 . S
H659 C634 0.950 . S
H660 C636 0.950 . S
H661 C637 0.949 . S
H662 C639 0.950 . S
H663 C641 0.950 . S
C664 C665 1.349 . S
C664 C666 1.327 . S
C664 H689 0.950 . S
C665 C664 1.349 . S
C665 C681 1.349 . S
C666 C664 1.327 . S
C666 C685 1.429 . S
C666 H690 0.950 . S
C667 C684 1.574 . S
C667 C686 1.368 . S
C667 H691 0.949 . S
H668 C672 0.949 . S
C669 C670 1.349 . S
C669 C671 1.327 . S
C669 H692 0.950 . S
C670 C669 1.349 . S
C670 C682 1.349 . S
C671 C669 1.327 . S
C671 C687 1.429 . S
C671 H693 0.950 . S
C672 H668 0.949 . S
C672 C680 1.574 . S
C672 C688 1.368 . S
H673 C681 0.950 . S
H674 C679 0.950 . S
H675 C680 0.949 . S
H676 C682 0.950 . S
H677 C683 0.950 . S
H678 C684 0.949 . S
C679 H674 0.950 . S
C679 C681 1.327 . S
C679 C685 1.429 . S
C680 C672 1.574 . S
C680 H675 0.949 . S
C680 C686 1.368 . S
C681 C665 1.349 . S
C681 H673 0.950 . S
C681 C679 1.327 . S
C682 C670 1.349 . S
C682 H676 0.950 . S
C682 C683 1.327 . S
C683 H677 0.950 . S
C683 C682 1.327 . S
C683 C687 1.429 . S
C684 C667 1.574 . S
C684 H678 0.949 . S
C684 C688 1.368 . S
C685 C666 1.429 . S
C685 C679 1.429 . S
C685 C686 1.523 . S
C686 C667 1.368 . S
C686 C680 1.368 . S
C686 C685 1.523 . S
C687 C671 1.429 . S
C687 C683 1.429 . S
C687 C688 1.523 . S
C688 C672 1.368 . S
C688 C684 1.368 . S
C688 C687 1.523 . S
H689 C664 0.950 . S
H690 C666 0.950 . S
H691 C667 0.949 . S
H692 C669 0.950 . S
H693 C671 0.950 . S
C694 C695 1.349 . S
C694 C696 1.327 . S
C694 H719 0.950 . S
C695 C694 1.349 . S
C695 C711 1.349 . S
C696 C694 1.327 . S
C696 C715 1.429 . S
C696 H720 0.950 . S
C697 C714 1.574 . S
C697 C716 1.368 . S
C697 H721 0.949 . S
H698 C702 0.949 . S
C699 C700 1.349 . S
C699 C701 1.327 . S
C699 H722 0.950 . S
C700 C699 1.349 . S
C700 C712 1.349 . S
C701 C699 1.327 . S
C701 C717 1.429 . S
C701 H723 0.950 . S
C702 H698 0.949 . S
C702 C710 1.574 . S
C702 C718 1.368 . S
H703 C711 0.950 . S
H704 C709 0.950 . S
H705 C710 0.949 . S
H706 C712 0.950 . S
H707 C713 0.950 . S
H708 C714 0.949 . S
C709 H704 0.950 . S
C709 C711 1.327 . S
C709 C715 1.429 . S
C710 C702 1.574 . S
C710 H705 0.949 . S
C710 C716 1.368 . S
C711 C695 1.349 . S
C711 H703 0.950 . S
C711 C709 1.327 . S
C712 C700 1.349 . S
C712 H706 0.950 . S
C712 C713 1.327 . S
C713 H707 0.950 . S
C713 C712 1.327 . S
C713 C717 1.429 . S
C714 C697 1.574 . S
C714 H708 0.949 . S
C714 C718 1.368 . S
C715 C696 1.429 . S
C715 C709 1.429 . S
C715 C716 1.523 . S
C716 C697 1.368 . S
C716 C710 1.368 . S
C716 C715 1.523 . S
C717 C701 1.429 . S
C717 C713 1.429 . S
C717 C718 1.523 . S
C718 C702 1.368 . S
C718 C714 1.368 . S
C718 C717 1.523 . S
H719 C694 0.950 . S
H720 C696 0.950 . S
H721 C697 0.949 . S
H722 C699 0.950 . S
H723 C701 0.950 . S
C724 C725 1.349 . S
C724 C726 1.327 . S
C724 H749 0.950 . S
C725 C724 1.349 . S
C725 C741 1.349 . S
C726 C724 1.327 . S
C726 C745 1.429 . S
C726 H750 0.950 . S
C727 C744 1.574 . S
C727 C746 1.368 . S
C727 H751 0.949 . S
H728 C732 0.949 . S
C729 C730 1.349 . S
C729 C731 1.327 . S
C729 H752 0.950 . S
C730 C729 1.349 . S
C730 C742 1.349 . S
C731 C729 1.327 . S
C731 C747 1.429 . S
C731 H753 0.950 . S
C732 H728 0.949 . S
C732 C740 1.574 . S
C732 C748 1.368 . S
H733 C741 0.950 . S
H734 C739 0.950 . S
H735 C740 0.949 . S
H736 C742 0.950 . S
H737 C743 0.950 . S
H738 C744 0.949 . S
C739 H734 0.950 . S
C739 C741 1.327 . S
C739 C745 1.429 . S
C740 C732 1.574 . S
C740 H735 0.949 . S
C740 C746 1.368 . S
C741 C725 1.349 . S
C741 H733 0.950 . S
C741 C739 1.327 . S
C742 C730 1.349 . S
C742 H736 0.950 . S
C742 C743 1.327 . S
C743 H737 0.950 . S
C743 C742 1.327 . S
C743 C747 1.429 . S
C744 C727 1.574 . S
C744 H738 0.949 . S
C744 C748 1.368 . S
C745 C726 1.429 . S
C745 C739 1.429 . S
C745 C746 1.523 . S
C746 C727 1.368 . S
C746 C740 1.368 . S
C746 C745 1.523 . S
C747 C731 1.429 . S
C747 C743 1.429 . S
C747 C748 1.523 . S
C748 C732 1.368 . S
C748 C744 1.368 . S
C748 C747 1.523 . S
H749 C724 0.950 . S
H750 C726 0.950 . S
H751 C727 0.949 . S
H752 C729 0.950 . S
H753 C731 0.950 . S
C754 C755 1.349 . S
C754 C756 1.327 . S
C754 H779 0.950 . S
C755 C754 1.349 . S
C755 C771 1.349 . S
C756 C754 1.327 . S
C756 C775 1.429 . S
C756 H780 0.950 . S
C757 C774 1.574 . S
C757 C776 1.368 . S
C757 H781 0.949 . S
H758 C762 0.949 . S
C759 C760 1.349 . S
C759 C761 1.327 . S
C759 H782 0.950 . S
C760 C759 1.349 . S
C760 C772 1.349 . S
C761 C759 1.327 . S
C761 C777 1.429 . S
C761 H783 0.950 . S
C762 H758 0.949 . S
C762 C770 1.574 . S
C762 C778 1.368 . S
H763 C771 0.950 . S
H764 C769 0.950 . S
H765 C770 0.949 . S
H766 C772 0.950 . S
H767 C773 0.950 . S
H768 C774 0.949 . S
C769 H764 0.950 . S
C769 C771 1.327 . S
C769 C775 1.429 . S
C770 C762 1.574 . S
C770 H765 0.949 . S
C770 C776 1.368 . S
C771 C755 1.349 . S
C771 H763 0.950 . S
C771 C769 1.327 . S
C772 C760 1.349 . S
C772 H766 0.950 . S
C772 C773 1.327 . S
C773 H767 0.950 . S
C773 C772 1.327 . S
C773 C777 1.429 . S
C774 C757 1.574 . S
C774 H768 0.949 . S
C774 C778 1.368 . S
C775 C756 1.429 . S
C775 C769 1.429 . S
C775 C776 1.523 . S
C776 C757 1.368 . S
C776 C770 1.368 . S
C776 C775 1.523 . S
C777 C761 1.429 . S
C777 C773 1.429 . S
C777 C778 1.523 . S
C778 C762 1.368 . S
C778 C774 1.368 . S
C778 C777 1.523 . S
H779 C754 0.950 . S
H780 C756 0.950 . S
H781 C757 0.949 . S
H782 C759 0.950 . S
H783 C761 0.950 . S
C784 C785 1.349 . S
C784 C786 1.327 . S
C784 H809 0.950 . S
C785 C784 1.349 . S
C785 C801 1.349 . S
C786 C784 1.327 . S
C786 C805 1.429 . S
C786 H810 0.950 . S
C787 C804 1.574 . S
C787 C806 1.368 . S
C787 H811 0.949 . S
H788 C792 0.949 . S
C789 C790 1.349 . S
C789 C791 1.327 . S
C789 H812 0.950 . S
C790 C789 1.349 . S
C790 C802 1.349 . S
C791 C789 1.327 . S
C791 C807 1.429 . S
C791 H813 0.950 . S
C792 H788 0.949 . S
C792 C800 1.574 . S
C792 C808 1.368 . S
H793 C801 0.950 . S
H794 C799 0.950 . S
H795 C800 0.949 . S
H796 C802 0.950 . S
H797 C803 0.950 . S
H798 C804 0.949 . S
C799 H794 0.950 . S
C799 C801 1.327 . S
C799 C805 1.429 . S
C800 C792 1.574 . S
C800 H795 0.949 . S
C800 C806 1.368 . S
C801 C785 1.349 . S
C801 H793 0.950 . S
C801 C799 1.327 . S
C802 C790 1.349 . S
C802 H796 0.950 . S
C802 C803 1.327 . S
C803 H797 0.950 . S
C803 C802 1.327 . S
C803 C807 1.429 . S
C804 C787 1.574 . S
C804 H798 0.949 . S
C804 C808 1.368 . S
C805 C786 1.429 . S
C805 C799 1.429 . S
C805 C806 1.523 . S
C806 C787 1.368 . S
C806 C800 1.368 . S
C806 C805 1.523 . S
C807 C791 1.429 . S
C807 C803 1.429 . S
C807 C808 1.523 . S
C808 C792 1.368 . S
C808 C804 1.368 . S
C808 C807 1.523 . S
H809 C784 0.950 . S
H810 C786 0.950 . S
H811 C787 0.949 . S
H812 C789 0.950 . S
H813 C791 0.950 . S
C814 C815 1.349 . S
C814 C816 1.327 . S
C814 H839 0.950 . S
C815 C814 1.349 . S
C815 C831 1.349 . S
C816 C814 1.327 . S
C816 C835 1.429 . S
C816 H840 0.950 . S
C817 C834 1.574 . S
C817 C836 1.368 . S
C817 H841 0.949 . S
H818 C822 0.949 . S
C819 C820 1.349 . S
C819 C821 1.327 . S
C819 H842 0.950 . S
C820 C819 1.349 . S
C820 C832 1.349 . S
C821 C819 1.327 . S
C821 C837 1.429 . S
C821 H843 0.950 . S
C822 H818 0.949 . S
C822 C830 1.574 . S
C822 C838 1.368 . S
H823 C831 0.950 . S
H824 C829 0.950 . S
H825 C830 0.949 . S
H826 C832 0.950 . S
H827 C833 0.950 . S
H828 C834 0.949 . S
C829 H824 0.950 . S
C829 C831 1.327 . S
C829 C835 1.429 . S
C830 C822 1.574 . S
C830 H825 0.949 . S
C830 C836 1.368 . S
C831 C815 1.349 . S
C831 H823 0.950 . S
C831 C829 1.327 . S
C832 C820 1.349 . S
C832 H826 0.950 . S
C832 C833 1.327 . S
C833 H827 0.950 . S
C833 C832 1.327 . S
C833 C837 1.429 . S
C834 C817 1.574 . S
C834 H828 0.949 . S
C834 C838 1.368 . S
C835 C816 1.429 . S
C835 C829 1.429 . S
C835 C836 1.523 . S
C836 C817 1.368 . S
C836 C830 1.368 . S
C836 C835 1.523 . S
C837 C821 1.429 . S
C837 C833 1.429 . S
C837 C838 1.523 . S
C838 C822 1.368 . S
C838 C834 1.368 . S
C838 C837 1.523 . S
H839 C814 0.950 . S
H840 C816 0.950 . S
H841 C817 0.949 . S
H842 C819 0.950 . S
H843 C821 0.950 . S
C844 C845 1.349 . S
C844 C846 1.327 . S
C844 H869 0.950 . S
C845 C844 1.349 . S
C845 C861 1.349 . S
C846 C844 1.327 . S
C846 C865 1.429 . S
C846 H870 0.950 . S
C847 C864 1.574 . S
C847 C866 1.368 . S
C847 H871 0.949 . S
H848 C852 0.949 . S
C849 C850 1.349 . S
C849 C851 1.327 . S
C849 H872 0.950 . S
C850 C849 1.349 . S
C850 C862 1.349 . S
C851 C849 1.327 . S
C851 C867 1.429 . S
C851 H873 0.950 . S
C852 H848 0.949 . S
C852 C860 1.574 . S
C852 C868 1.368 . S
H853 C861 0.950 . S
H854 C859 0.950 . S
H855 C860 0.949 . S
H856 C862 0.950 . S
H857 C863 0.950 . S
H858 C864 0.949 . S
C859 H854 0.950 . S
C859 C861 1.327 . S
C859 C865 1.429 . S
C860 C852 1.574 . S
C860 H855 0.949 . S
C860 C866 1.368 . S
C861 C845 1.349 . S
C861 H853 0.950 . S
C861 C859 1.327 . S
C862 C850 1.349 . S
C862 H856 0.950 . S
C862 C863 1.327 . S
C863 H857 0.950 . S
C863 C862 1.327 . S
C863 C867 1.429 . S
C864 C847 1.574 . S
C864 H858 0.949 . S
C864 C868 1.368 . S
C865 C846 1.429 . S
C865 C859 1.429 . S
C865 C866 1.523 . S
C866 C847 1.368 . S
C866 C860 1.368 . S
C866 C865 1.523 . S
C867 C851 1.429 . S
C867 C863 1.429 . S
C867 C868 1.523 . S
C868 C852 1.368 . S
C868 C864 1.368 . S
C868 C867 1.523 . S
H869 C844 0.950 . S
H870 C846 0.950 . S
H871 C847 0.949 . S
H872 C849 0.950 . S
H873 C851 0.950 . S
C874 C875 1.349 . S
C874 C876 1.327 . S
C874 H899 0.950 . S
C875 C874 1.349 . S
C875 C891 1.349 . S
C876 C874 1.327 . S
C876 C895 1.429 . S
C876 H900 0.950 . S
C877 C894 1.574 . S
C877 C896 1.368 . S
C877 H901 0.949 . S
H878 C882 0.949 . S
C879 C880 1.349 . S
C879 C881 1.327 . S
C879 H902 0.950 . S
C880 C879 1.349 . S
C880 C892 1.349 . S
C881 C879 1.327 . S
C881 C897 1.429 . S
C881 H903 0.950 . S
C882 H878 0.949 . S
C882 C890 1.574 . S
C882 C898 1.368 . S
H883 C891 0.950 . S
H884 C889 0.950 . S
H885 C890 0.949 . S
H886 C892 0.950 . S
H887 C893 0.950 . S
H888 C894 0.949 . S
C889 H884 0.950 . S
C889 C891 1.327 . S
C889 C895 1.429 . S
C890 C882 1.574 . S
C890 H885 0.949 . S
C890 C896 1.368 . S
C891 C875 1.349 . S
C891 H883 0.950 . S
C891 C889 1.327 . S
C892 C880 1.349 . S
C892 H886 0.950 . S
C892 C893 1.327 . S
C893 H887 0.950 . S
C893 C892 1.327 . S
C893 C897 1.429 . S
C894 C877 1.574 . S
C894 H888 0.949 . S
C894 C898 1.368 . S
C895 C876 1.429 . S
C895 C889 1.429 . S
C895 C896 1.523 . S
C896 C877 1.368 . S
C896 C890 1.368 . S
C896 C895 1.523 . S
C897 C881 1.429 . S
C897 C893 1.429 . S
C897 C898 1.523 . S
C898 C882 1.368 . S
C898 C894 1.368 . S
C898 C897 1.523 . S
H899 C874 0.950 . S
H900 C876 0.950 . S
H901 C877 0.949 . S
H902 C879 0.950 . S
H903 C881 0.950 . S
C904 C905 1.349 . S
C904 C906 1.327 . S
C904 H929 0.950 . S
C905 C904 1.349 . S
C905 C921 1.349 . S
C906 C904 1.327 . S
C906 C925 1.429 . S
C906 H930 0.950 . S
C907 C924 1.574 . S
C907 C926 1.368 . S
C907 H931 0.949 . S
H908 C912 0.949 . S
C909 C910 1.349 . S
C909 C911 1.327 . S
C909 H932 0.950 . S
C910 C909 1.349 . S
C910 C922 1.349 . S
C911 C909 1.327 . S
C911 C927 1.429 . S
C911 H933 0.950 . S
C912 H908 0.949 . S
C912 C920 1.574 . S
C912 C928 1.368 . S
H913 C921 0.950 . S
H914 C919 0.950 . S
H915 C920 0.949 . S
H916 C922 0.950 . S
H917 C923 0.950 . S
H918 C924 0.949 . S
C919 H914 0.950 . S
C919 C921 1.327 . S
C919 C925 1.429 . S
C920 C912 1.574 . S
C920 H915 0.949 . S
C920 C926 1.368 . S
C921 C905 1.349 . S
C921 H913 0.950 . S
C921 C919 1.327 . S
C922 C910 1.349 . S
C922 H916 0.950 . S
C922 C923 1.327 . S
C923 H917 0.950 . S
C923 C922 1.327 . S
C923 C927 1.429 . S
C924 C907 1.574 . S
C924 H918 0.949 . S
C924 C928 1.368 . S
C925 C906 1.429 . S
C925 C919 1.429 . S
C925 C926 1.523 . S
C926 C907 1.368 . S
C926 C920 1.368 . S
C926 C925 1.523 . S
C927 C911 1.429 . S
C927 C923 1.429 . S
C927 C928 1.523 . S
C928 C912 1.368 . S
C928 C924 1.368 . S
C928 C927 1.523 . S
H929 C904 0.950 . S
H930 C906 0.950 . S
H931 C907 0.949 . S
H932 C909 0.950 . S
H933 C911 0.950 . S
C934 C935 1.349 . S
C934 C936 1.327 . S
C934 H959 0.950 . S
C935 C934 1.349 . S
C935 C951 1.349 . S
C936 C934 1.327 . S
C936 C955 1.429 . S
C936 H960 0.950 . S
C937 C954 1.574 . S
C937 C956 1.368 . S
C937 H961 0.949 . S
H938 C942 0.949 . S
C939 C940 1.349 . S
C939 C941 1.327 . S
C939 H962 0.950 . S
C940 C939 1.349 . S
C940 C952 1.349 . S
C941 C939 1.327 . S
C941 C957 1.429 . S
C941 H963 0.950 . S
C942 H938 0.949 . S
C942 C950 1.574 . S
C942 C958 1.368 . S
H943 C951 0.950 . S
H944 C949 0.950 . S
H945 C950 0.949 . S
H946 C952 0.950 . S
H947 C953 0.950 . S
H948 C954 0.949 . S
C949 H944 0.950 . S
C949 C951 1.327 . S
C949 C955 1.429 . S
C950 C942 1.574 . S
C950 H945 0.949 . S
C950 C956 1.368 . S
C951 C935 1.349 . S
C951 H943 0.950 . S
C951 C949 1.327 . S
C952 C940 1.349 . S
C952 H946 0.950 . S
C952 C953 1.327 . S
C953 H947 0.950 . S
C953 C952 1.327 . S
C953 C957 1.429 . S
C954 C937 1.574 . S
C954 H948 0.949 . S
C954 C958 1.368 . S
C955 C936 1.429 . S
C955 C949 1.429 . S
C955 C956 1.523 . S
C956 C937 1.368 . S
C956 C950 1.368 . S
C956 C955 1.523 . S
C957 C941 1.429 . S
C957 C953 1.429 . S
C957 C958 1.523 . S
C958 C942 1.368 . S
C958 C954 1.368 . S
C958 C957 1.523 . S
H959 C934 0.950 . S
H960 C936 0.950 . S
H961 C937 0.949 . S
H962 C939 0.950 . S
H963 C941 0.950 . S
C964 C965 1.349 . S
C964 C966 1.327 . S
C964 H989 0.950 . S
C965 C964 1.349 . S
C965 C981 1.349 . S
C966 C964 1.327 . S
C966 C985 1.429 . S
C966 H990 0.950 . S
C967 C984 1.574 . S
C967 C986 1.368 . S
C967 H991 0.949 . S
H968 C972 0.949 . S
C969 C970 1.349 . S
C969 C971 1.327 . S
C969 H992 0.950 . S
C970 C969 1.349 . S
C970 C982 1.349 . S
C971 C969 1.327 . S
C971 C987 1.429 . S
C971 H993 0.950 . S
C972 H968 0.949 . S
C972 C980 1.574 . S
C972 C988 1.368 . S
H973 C981 0.950 . S
H974 C979 0.950 . S
H975 C980 0.949 . S
H976 C982 0.950 . S
H977 C983 0.950 . S
H978 C984 0.949 . S
C979 H974 0.950 . S
C979 C981 1.327 . S
C979 C985 1.429 . S
C980 C972 1.574 . S
C980 H975 0.949 . S
C980 C986 1.368 . S
C981 C965 1.349 . S
C981 H973 0.950 . S
C981 C979 1.327 . S
C982 C970 1.349 . S
C982 H976 0.950 . S
C982 C983 1.327 . S
C983 H977 0.950 . S
C983 C982 1.327 . S
C983 C987 1.429 . S
C984 C967 1.574 . S
C984 H978 0.949 . S
C984 C988 1.368 . S
C985 C966 1.429 . S
C985 C979 1.429 . S
C985 C986 1.523 . S
C986 C967 1.368 . S
C986 C980 1.368 . S
C986 C985 1.523 . S
C987 C971 1.429 . S
C987 C983 1.429 . S
C987 C988 1.523 . S
C988 C972 1.368 . S
C988 C984 1.368 . S
C988 C987 1.523 . S
H989 C964 0.950 . S
H990 C966 0.950 . S
H991 C967 0.949 . S
H992 C969 0.950 . S
H993 C971 0.950 . S
C994 C995 1.349 . S
C994 C996 1.327 . S
C994 H1019 0.950 . S
C995 C994 1.349 . S
C995 C1011 1.349 . S
C996 C994 1.327 . S
C996 C1015 1.429 . S
C996 H1020 0.950 . S
C997 C1014 1.574 . S
C997 C1016 1.368 . S
C997 H1021 0.949 . S
H998 C1002 0.949 . S
C999 C1000 1.349 . S
C999 C1001 1.327 . S
C999 H1022 0.950 . S
C1000 C999 1.349 . S
C1000 C1012 1.349 . S
C1001 C999 1.327 . S
C1001 C1017 1.429 . S
C1001 H1023 0.950 . S
C1002 H998 0.949 . S
C1002 C1010 1.574 . S
C1002 C1018 1.368 . S
H1003 C1011 0.950 . S
H1004 C1009 0.950 . S
H1005 C1010 0.949 . S
H1006 C1012 0.950 . S
H1007 C1013 0.950 . S
H1008 C1014 0.949 . S
C1009 H1004 0.950 . S
C1009 C1011 1.327 . S
C1009 C1015 1.429 . S
C1010 C1002 1.574 . S
C1010 H1005 0.949 . S
C1010 C1016 1.368 . S
C1011 C995 1.349 . S
C1011 H1003 0.950 . S
C1011 C1009 1.327 . S
C1012 C1000 1.349 . S
C1012 H1006 0.950 . S
C1012 C1013 1.327 . S
C1013 H1007 0.950 . S
C1013 C1012 1.327 . S
C1013 C1017 1.429 . S
C1014 C997 1.574 . S
C1014 H1008 0.949 . S
C1014 C1018 1.368 . S
C1015 C996 1.429 . S
C1015 C1009 1.429 . S
C1015 C1016 1.523 . S
C1016 C997 1.368 . S
C1016 C1010 1.368 . S
C1016 C1015 1.523 . S
C1017 C1001 1.429 . S
C1017 C1013 1.429 . S
C1017 C1018 1.523 . S
C1018 C1002 1.368 . S
C1018 C1014 1.368 . S
C1018 C1017 1.523 . S
H1019 C994 0.950 . S
H1020 C996 0.950 . S
H1021 C997 0.949 . S
H1022 C999 0.950 . S
H1023 C1001 0.950 . S
C1024 C1025 1.349 . S
C1024 C1026 1.327 . S
C1024 H1049 0.950 . S
C1025 C1024 1.349 . S
C1025 C1041 1.349 . S
C1026 C1024 1.327 . S
C1026 C1045 1.429 . S
C1026 H1050 0.950 . S
C1027 C1044 1.574 . S
C1027 C1046 1.368 . S
C1027 H1051 0.949 . S
H1028 C1032 0.949 . S
C1029 C1030 1.349 . S
C1029 C1031 1.327 . S
C1029 H1052 0.950 . S
C1030 C1029 1.349 . S
C1030 C1042 1.349 . S
C1031 C1029 1.327 . S
C1031 C1047 1.429 . S
C1031 H1053 0.950 . S
C1032 H1028 0.949 . S
C1032 C1040 1.574 . S
C1032 C1048 1.368 . S
H1033 C1041 0.950 . S
H1034 C1039 0.950 . S
H1035 C1040 0.949 . S
H1036 C1042 0.950 . S
H1037 C1043 0.950 . S
H1038 C1044 0.949 . S
C1039 H1034 0.950 . S
C1039 C1041 1.327 . S
C1039 C1045 1.429 . S
C1040 C1032 1.574 . S
C1040 H1035 0.949 . S
C1040 C1046 1.368 . S
C1041 C1025 1.349 . S
C1041 H1033 0.950 . S
C1041 C1039 1.327 . S
C1042 C1030 1.349 . S
C1042 H1036 0.950 . S
C1042 C1043 1.327 . S
C1043 H1037 0.950 . S
C1043 C1042 1.327 . S
C1043 C1047 1.429 . S
C1044 C1027 1.574 . S
C1044 H1038 0.949 . S
C1044 C1048 1.368 . S
C1045 C1026 1.429 . S
C1045 C1039 1.429 . S
C1045 C1046 1.523 . S
C1046 C1027 1.368 . S
C1046 C1040 1.368 . S
C1046 C1045 1.523 . S
C1047 C1031 1.429 . S
C1047 C1043 1.429 . S
C1047 C1048 1.523 . S
C1048 C1032 1.368 . S
C1048 C1044 1.368 . S
C1048 C1047 1.523 . S
H1049 C1024 0.950 . S
H1050 C1026 0.950 . S
H1051 C1027 0.949 . S
H1052 C1029 0.950 . S
H1053 C1031 0.950 . S
C1054 C1055 1.349 . S
C1054 C1056 1.327 . S
C1054 H1079 0.950 . S
C1055 C1054 1.349 . S
C1055 C1071 1.349 . S
C1056 C1054 1.327 . S
C1056 C1075 1.429 . S
C1056 H1080 0.950 . S
C1057 C1074 1.574 . S
C1057 C1076 1.368 . S
C1057 H1081 0.949 . S
H1058 C1062 0.949 . S
C1059 C1060 1.349 . S
C1059 C1061 1.327 . S
C1059 H1082 0.950 . S
C1060 C1059 1.349 . S
C1060 C1072 1.349 . S
C1061 C1059 1.327 . S
C1061 C1077 1.429 . S
C1061 H1083 0.950 . S
C1062 H1058 0.949 . S
C1062 C1070 1.574 . S
C1062 C1078 1.368 . S
H1063 C1071 0.950 . S
H1064 C1069 0.950 . S
H1065 C1070 0.949 . S
H1066 C1072 0.950 . S
H1067 C1073 0.950 . S
H1068 C1074 0.949 . S
C1069 H1064 0.950 . S
C1069 C1071 1.327 . S
C1069 C1075 1.429 . S
C1070 C1062 1.574 . S
C1070 H1065 0.949 . S
C1070 C1076 1.368 . S
C1071 C1055 1.349 . S
C1071 H1063 0.950 . S
C1071 C1069 1.327 . S
C1072 C1060 1.349 . S
C1072 H1066 0.950 . S
C1072 C1073 1.327 . S
C1073 H1067 0.950 . S
C1073 C1072 1.327 . S
C1073 C1077 1.429 . S
C1074 C1057 1.574 . S
C1074 H1068 0.949 . S
C1074 C1078 1.368 . S
C1075 C1056 1.429 . S
C1075 C1069 1.429 . S
C1075 C1076 1.523 . S
C1076 C1057 1.368 . S
C1076 C1070 1.368 . S
C1076 C1075 1.523 . S
C1077 C1061 1.429 . S
C1077 C1073 1.429 . S
C1077 C1078 1.523 . S
C1078 C1062 1.368 . S
C1078 C1074 1.368 . S
C1078 C1077 1.523 . S
H1079 C1054 0.950 . S
H1080 C1056 0.950 . S
H1081 C1057 0.949 . S
H1082 C1059 0.950 . S
H1083 C1061 0.950 . S
C1084 C1085 1.349 . S
C1084 C1086 1.327 . S
C1084 H1109 0.950 . S
C1085 C1084 1.349 . S
C1085 C1101 1.349 . S
C1086 C1084 1.327 . S
C1086 C1105 1.429 . S
C1086 H1110 0.950 . S
C1087 C1104 1.574 . S
C1087 C1106 1.368 . S
C1087 H1111 0.949 . S
H1088 C1092 0.949 . S
C1089 C1090 1.349 . S
C1089 C1091 1.327 . S
C1089 H1112 0.950 . S
C1090 C1089 1.349 . S
C1090 C1102 1.349 . S
C1091 C1089 1.327 . S
C1091 C1107 1.429 . S
C1091 H1113 0.950 . S
C1092 H1088 0.949 . S
C1092 C1100 1.574 . S
C1092 C1108 1.368 . S
H1093 C1101 0.950 . S
H1094 C1099 0.950 . S
H1095 C1100 0.949 . S
H1096 C1102 0.950 . S
H1097 C1103 0.950 . S
H1098 C1104 0.949 . S
C1099 H1094 0.950 . S
C1099 C1101 1.327 . S
C1099 C1105 1.429 . S
C1100 C1092 1.574 . S
C1100 H1095 0.949 . S
C1100 C1106 1.368 . S
C1101 C1085 1.349 . S
C1101 H1093 0.950 . S
C1101 C1099 1.327 . S
C1102 C1090 1.349 . S
C1102 H1096 0.950 . S
C1102 C1103 1.327 . S
C1103 H1097 0.950 . S
C1103 C1102 1.327 . S
C1103 C1107 1.429 . S
C1104 C1087 1.574 . S
C1104 H1098 0.949 . S
C1104 C1108 1.368 . S
C1105 C1086 1.429 . S
C1105 C1099 1.429 . S
C1105 C1106 1.523 . S
C1106 C1087 1.368 . S
C1106 C1100 1.368 . S
C1106 C1105 1.523 . S
C1107 C1091 1.429 . S
C1107 C1103 1.429 . S
C1107 C1108 1.523 . S
C1108 C1092 1.368 . S
C1108 C1104 1.368 . S
C1108 C1107 1.523 . S
H1109 C1084 0.950 . S
H1110 C1086 0.950 . S
H1111 C1087 0.949 . S
H1112 C1089 0.950 . S
H1113 C1091 0.950 . S
C1114 C1115 1.349 . S
C1114 C1116 1.327 . S
C1114 H1139 0.950 . S
C1115 C1114 1.349 . S
C1115 C1131 1.349 . S
C1116 C1114 1.327 . S
C1116 C1135 1.429 . S
C1116 H1140 0.950 . S
C1117 C1134 1.574 . S
C1117 C1136 1.368 . S
C1117 H1141 0.949 . S
H1118 C1122 0.949 . S
C1119 C1120 1.349 . S
C1119 C1121 1.327 . S
C1119 H1142 0.950 . S
C1120 C1119 1.349 . S
C1120 C1132 1.349 . S
C1121 C1119 1.327 . S
C1121 C1137 1.429 . S
C1121 H1143 0.950 . S
C1122 H1118 0.949 . S
C1122 C1130 1.574 . S
C1122 C1138 1.368 . S
H1123 C1131 0.950 . S
H1124 C1129 0.950 . S
H1125 C1130 0.949 . S
H1126 C1132 0.950 . S
H1127 C1133 0.950 . S
H1128 C1134 0.949 . S
C1129 H1124 0.950 . S
C1129 C1131 1.327 . S
C1129 C1135 1.429 . S
C1130 C1122 1.574 . S
C1130 H1125 0.949 . S
C1130 C1136 1.368 . S
C1131 C1115 1.349 . S
C1131 H1123 0.950 . S
C1131 C1129 1.327 . S
C1132 C1120 1.349 . S
C1132 H1126 0.950 . S
C1132 C1133 1.327 . S
C1133 H1127 0.950 . S
C1133 C1132 1.327 . S
C1133 C1137 1.429 . S
C1134 C1117 1.574 . S
C1134 H1128 0.949 . S
C1134 C1138 1.368 . S
C1135 C1116 1.429 . S
C1135 C1129 1.429 . S
C1135 C1136 1.523 . S
C1136 C1117 1.368 . S
C1136 C1130 1.368 . S
C1136 C1135 1.523 . S
C1137 C1121 1.429 . S
C1137 C1133 1.429 . S
C1137 C1138 1.523 . S
C1138 C1122 1.368 . S
C1138 C1134 1.368 . S
C1138 C1137 1.523 . S
H1139 C1114 0.950 . S
H1140 C1116 0.950 . S
H1141 C1117 0.949 . S
H1142 C1119 0.950 . S
H1143 C1121 0.950 . S
C1144 C1145 1.349 . S
C1144 C1146 1.327 . S
C1144 H1169 0.950 . S
C1145 C1144 1.349 . S
C1145 C1161 1.349 . S
C1146 C1144 1.327 . S
C1146 C1165 1.429 . S
C1146 H1170 0.950 . S
C1147 C1164 1.574 . S
C1147 C1166 1.368 . S
C1147 H1171 0.949 . S
H1148 C1152 0.949 . S
C1149 C1150 1.349 . S
C1149 C1151 1.327 . S
C1149 H1172 0.950 . S
C1150 C1149 1.349 . S
C1150 C1162 1.349 . S
C1151 C1149 1.327 . S
C1151 C1167 1.429 . S
C1151 H1173 0.950 . S
C1152 H1148 0.949 . S
C1152 C1160 1.574 . S
C1152 C1168 1.368 . S
H1153 C1161 0.950 . S
H1154 C1159 0.950 . S
H1155 C1160 0.949 . S
H1156 C1162 0.950 . S
H1157 C1163 0.950 . S
H1158 C1164 0.949 . S
C1159 H1154 0.950 . S
C1159 C1161 1.327 . S
C1159 C1165 1.429 . S
C1160 C1152 1.574 . S
C1160 H1155 0.949 . S
C1160 C1166 1.368 . S
C1161 C1145 1.349 . S
C1161 H1153 0.950 . S
C1161 C1159 1.327 . S
C1162 C1150 1.349 . S
C1162 H1156 0.950 . S
C1162 C1163 1.327 . S
C1163 H1157 0.950 . S
C1163 C1162 1.327 . S
C1163 C1167 1.429 . S
C1164 C1147 1.574 . S
C1164 H1158 0.949 . S
C1164 C1168 1.368 . S
C1165 C1146 1.429 . S
C1165 C1159 1.429 . S
C1165 C1166 1.523 . S
C1166 C1147 1.368 . S
C1166 C1160 1.368 . S
C1166 C1165 1.523 . S
C1167 C1151 1.429 . S
C1167 C1163 1.429 . S
C1167 C1168 1.523 . S
C1168 C1152 1.368 . S
C1168 C1164 1.368 . S
C1168 C1167 1.523 . S
H1169 C1144 0.950 . S
H1170 C1146 0.950 . S
H1171 C1147 0.949 . S
H1172 C1149 0.950 . S
H1173 C1151 0.950 . S
C1174 C1175 1.349 . S
C1174 C1176 1.327 . S
C1174 H1199 0.950 . S
C1175 C1174 1.349 . S
C1175 C1191 1.349 . S
C1176 C1174 1.327 . S
C1176 C1195 1.429 . S
C1176 H1200 0.950 . S
C1177 C1194 1.574 . S
C1177 C1196 1.368 . S
C1177 H1201 0.949 . S
H1178 C1182 0.949 . S
C1179 C1180 1.349 . S
C1179 C1181 1.327 . S
C1179 H1202 0.950 . S
C1180 C1179 1.349 . S
C1180 C1192 1.349 . S
C1181 C1179 1.327 . S
C1181 C1197 1.429 . S
C1181 H1203 0.950 . S
C1182 H1178 0.949 . S
C1182 C1190 1.574 . S
C1182 C1198 1.368 . S
H1183 C1191 0.950 . S
H1184 C1189 0.950 . S
H1185 C1190 0.949 . S
H1186 C1192 0.950 . S
H1187 C1193 0.950 . S
H1188 C1194 0.949 . S
C1189 H1184 0.950 . S
C1189 C1191 1.327 . S
C1189 C1195 1.429 . S
C1190 C1182 1.574 . S
C1190 H1185 0.949 . S
C1190 C1196 1.368 . S
C1191 C1175 1.349 . S
C1191 H1183 0.950 . S
C1191 C1189 1.327 . S
C1192 C1180 1.349 . S
C1192 H1186 0.950 . S
C1192 C1193 1.327 . S
C1193 H1187 0.950 . S
C1193 C1192 1.327 . S
C1193 C1197 1.429 . S
C1194 C1177 1.574 . S
C1194 H1188 0.949 . S
C1194 C1198 1.368 . S
C1195 C1176 1.429 . S
C1195 C1189 1.429 . S
C1195 C1196 1.523 . S
C1196 C1177 1.368 . S
C1196 C1190 1.368 . S
C1196 C1195 1.523 . S
C1197 C1181 1.429 . S
C1197 C1193 1.429 . S
C1197 C1198 1.523 . S
C1198 C1182 1.368 . S
C1198 C1194 1.368 . S
C1198 C1197 1.523 . S
H1199 C1174 0.950 . S
H1200 C1176 0.950 . S
H1201 C1177 0.949 . S
H1202 C1179 0.950 . S
H1203 C1181 0.950 . S
C1204 C1205 1.349 . S
C1204 C1206 1.327 . S
C1204 H1229 0.950 . S
C1205 C1204 1.349 . S
C1205 C1221 1.349 . S
C1206 C1204 1.327 . S
C1206 C1225 1.429 . S
C1206 H1230 0.950 . S
C1207 C1224 1.574 . S
C1207 C1226 1.368 . S
C1207 H1231 0.949 . S
H1208 C1212 0.949 . S
C1209 C1210 1.349 . S
C1209 C1211 1.327 . S
C1209 H1232 0.950 . S
C1210 C1209 1.349 . S
C1210 C1222 1.349 . S
C1211 C1209 1.327 . S
C1211 C1227 1.429 . S
C1211 H1233 0.950 . S
C1212 H1208 0.949 . S
C1212 C1220 1.574 . S
C1212 C1228 1.368 . S
H1213 C1221 0.950 . S
H1214 C1219 0.950 . S
H1215 C1220 0.949 . S
H1216 C1222 0.950 . S
H1217 C1223 0.950 . S
H1218 C1224 0.949 . S
C1219 H1214 0.950 . S
C1219 C1221 1.327 . S
C1219 C1225 1.429 . S
C1220 C1212 1.574 . S
C1220 H1215 0.949 . S
C1220 C1226 1.368 . S
C1221 C1205 1.349 . S
C1221 H1213 0.950 . S
C1221 C1219 1.327 . S
C1222 C1210 1.349 . S
C1222 H1216 0.950 . S
C1222 C1223 1.327 . S
C1223 H1217 0.950 . S
C1223 C1222 1.327 . S
C1223 C1227 1.429 . S
C1224 C1207 1.574 . S
C1224 H1218 0.949 . S
C1224 C1228 1.368 . S
C1225 C1206 1.429 . S
C1225 C1219 1.429 . S
C1225 C1226 1.523 . S
C1226 C1207 1.368 . S
C1226 C1220 1.368 . S
C1226 C1225 1.523 . S
C1227 C1211 1.429 . S
C1227 C1223 1.429 . S
C1227 C1228 1.523 . S
C1228 C1212 1.368 . S
C1228 C1224 1.368 . S
C1228 C1227 1.523 . S
H1229 C1204 0.950 . S
H1230 C1206 0.950 . S
H1231 C1207 0.949 . S
H1232 C1209 0.950 . S
H1233 C1211 0.950 . S
C1234 C1235 1.349 . S
C1234 C1236 1.327 . S
C1234 H1259 0.950 . S
C1235 C1234 1.349 . S
C1235 C1251 1.349 . S
C1236 C1234 1.327 . S
C1236 C1255 1.429 . S
C1236 H1260 0.950 . S
C1237 C1254 1.574 . S
C1237 C1256 1.368 . S
C1237 H1261 0.949 . S
H1238 C1242 0.949 . S
C1239 C1240 1.349 . S
C1239 C1241 1.327 . S
C1239 H1262 0.950 . S
C1240 C1239 1.349 . S
C1240 C1252 1.349 . S
C1241 C1239 1.327 . S
C1241 C1257 1.429 . S
C1241 H1263 0.950 . S
C1242 H1238 0.949 . S
C1242 C1250 1.574 . S
C1242 C1258 1.368 . S
H1243 C1251 0.950 . S
H1244 C1249 0.950 . S
H1245 C1250 0.949 . S
H1246 C1252 0.950 . S
H1247 C1253 0.950 . S
H1248 C1254 0.949 . S
C1249 H1244 0.950 . S
C1249 C1251 1.327 . S
C1249 C1255 1.429 . S
C1250 C1242 1.574 . S
C1250 H1245 0.949 . S
C1250 C1256 1.368 . S
C1251 C1235 1.349 . S
C1251 H1243 0.950 . S
C1251 C1249 1.327 . S
C1252 C1240 1.349 . S
C1252 H1246 0.950 . S
C1252 C1253 1.327 . S
C1253 H1247 0.950 . S
C1253 C1252 1.327 . S
C1253 C1257 1.429 . S
C1254 C1237 1.574 . S
C1254 H1248 0.949 . S
C1254 C1258 1.368 . S
C1255 C1236 1.429 . S
C1255 C1249 1.429 . S
C1255 C1256 1.523 . S
C1256 C1237 1.368 . S
C1256 C1250 1.368 . S
C1256 C1255 1.523 . S
C1257 C1241 1.429 . S
C1257 C1253 1.429 . S
C1257 C1258 1.523 . S
C1258 C1242 1.368 . S
C1258 C1254 1.368 . S
C1258 C1257 1.523 . S
H1259 C1234 0.950 . S
H1260 C1236 0.950 . S
H1261 C1237 0.949 . S
H1262 C1239 0.950 . S
H1263 C1241 0.950 . S
C1264 C1265 1.349 . S
C1264 C1266 1.327 . S
C1264 H1289 0.950 . S
C1265 C1264 1.349 . S
C1265 C1281 1.349 . S
C1266 C1264 1.327 . S
C1266 C1285 1.429 . S
C1266 H1290 0.950 . S
C1267 C1284 1.574 . S
C1267 C1286 1.368 . S
C1267 H1291 0.949 . S
H1268 C1272 0.949 . S
C1269 C1270 1.349 . S
C1269 C1271 1.327 . S
C1269 H1292 0.950 . S
C1270 C1269 1.349 . S
C1270 C1282 1.349 . S
C1271 C1269 1.327 . S
C1271 C1287 1.429 . S
C1271 H1293 0.950 . S
C1272 H1268 0.949 . S
C1272 C1280 1.574 . S
C1272 C1288 1.368 . S
H1273 C1281 0.950 . S
H1274 C1279 0.950 . S
H1275 C1280 0.949 . S
H1276 C1282 0.950 . S
H1277 C1283 0.950 . S
H1278 C1284 0.949 . S
C1279 H1274 0.950 . S
C1279 C1281 1.327 . S
C1279 C1285 1.429 . S
C1280 C1272 1.574 . S
C1280 H1275 0.949 . S
C1280 C1286 1.368 . S
C1281 C1265 1.349 . S
C1281 H1273 0.950 . S
C1281 C1279 1.327 . S
C1282 C1270 1.349 . S
C1282 H1276 0.950 . S
C1282 C1283 1.327 . S
C1283 H1277 0.950 . S
C1283 C1282 1.327 . S
C1283 C1287 1.429 . S
C1284 C1267 1.574 . S
C1284 H1278 0.949 . S
C1284 C1288 1.368 . S
C1285 C1266 1.429 . S
C1285 C1279 1.429 . S
C1285 C1286 1.523 . S
C1286 C1267 1.368 . S
C1286 C1280 1.368 . S
C1286 C1285 1.523 . S
C1287 C1271 1.429 . S
C1287 C1283 1.429 . S
C1287 C1288 1.523 . S
C1288 C1272 1.368 . S
C1288 C1284 1.368 . S
C1288 C1287 1.523 . S
H1289 C1264 0.950 . S
H1290 C1266 0.950 . S
H1291 C1267 0.949 . S
H1292 C1269 0.950 . S
H1293 C1271 0.950 . S
C1294 C1295 1.349 . S
C1294 C1296 1.327 . S
C1294 H1319 0.950 . S
C1295 C1294 1.349 . S
C1295 C1311 1.349 . S
C1296 C1294 1.327 . S
C1296 C1315 1.429 . S
C1296 H1320 0.950 . S
C1297 C1314 1.574 . S
C1297 C1316 1.368 . S
C1297 H1321 0.949 . S
H1298 C1302 0.949 . S
C1299 C1300 1.349 . S
C1299 C1301 1.327 . S
C1299 H1322 0.950 . S
C1300 C1299 1.349 . S
C1300 C1312 1.349 . S
C1301 C1299 1.327 . S
C1301 C1317 1.429 . S
C1301 H1323 0.950 . S
C1302 H1298 0.949 . S
C1302 C1310 1.574 . S
C1302 C1318 1.368 . S
H1303 C1311 0.950 . S
H1304 C1309 0.950 . S
H1305 C1310 0.949 . S
H1306 C1312 0.950 . S
H1307 C1313 0.950 . S
H1308 C1314 0.949 . S
C1309 H1304 0.950 . S
C1309 C1311 1.327 . S
C1309 C1315 1.429 . S
C1310 C1302 1.574 . S
C1310 H1305 0.949 . S
C1310 C1316 1.368 . S
C1311 C1295 1.349 . S
C1311 H1303 0.950 . S
C1311 C1309 1.327 . S
C1312 C1300 1.349 . S
C1312 H1306 0.950 . S
C1312 C1313 1.327 . S
C1313 H1307 0.950 . S
C1313 C1312 1.327 . S
C1313 C1317 1.429 . S
C1314 C1297 1.574 . S
C1314 H1308 0.949 . S
C1314 C1318 1.368 . S
C1315 C1296 1.429 . S
C1315 C1309 1.429 . S
C1315 C1316 1.523 . S
C1316 C1297 1.368 . S
C1316 C1310 1.368 . S
C1316 C1315 1.523 . S
C1317 C1301 1.429 . S
C1317 C1313 1.429 . S
C1317 C1318 1.523 . S
C1318 C1302 1.368 . S
C1318 C1314 1.368 . S
C1318 C1317 1.523 . S
H1319 C1294 0.950 . S
H1320 C1296 0.950 . S
H1321 C1297 0.949 . S
H1322 C1299 0.950 . S
H1323 C1301 0.950 . S
C1324 C1325 1.349 . S
C1324 C1326 1.327 . S
C1324 H1349 0.950 . S
C1325 C1324 1.349 . S
C1325 C1341 1.349 . S
C1326 C1324 1.327 . S
C1326 C1345 1.429 . S
C1326 H1350 0.950 . S
C1327 C1344 1.574 . S
C1327 C1346 1.368 . S
C1327 H1351 0.949 . S
H1328 C1332 0.949 . S
C1329 C1330 1.349 . S
C1329 C1331 1.327 . S
C1329 H1352 0.950 . S
C1330 C1329 1.349 . S
C1330 C1342 1.349 . S
C1331 C1329 1.327 . S
C1331 C1347 1.429 . S
C1331 H1353 0.950 . S
C1332 H1328 0.949 . S
C1332 C1340 1.574 . S
C1332 C1348 1.368 . S
H1333 C1341 0.950 . S
H1334 C1339 0.950 . S
H1335 C1340 0.949 . S
H1336 C1342 0.950 . S
H1337 C1343 0.950 . S
H1338 C1344 0.949 . S
C1339 H1334 0.950 . S
C1339 C1341 1.327 . S
C1339 C1345 1.429 . S
C1340 C1332 1.574 . S
C1340 H1335 0.949 . S
C1340 C1346 1.368 . S
C1341 C1325 1.349 . S
C1341 H1333 0.950 . S
C1341 C1339 1.327 . S
C1342 C1330 1.349 . S
C1342 H1336 0.950 . S
C1342 C1343 1.327 . S
C1343 H1337 0.950 . S
C1343 C1342 1.327 . S
C1343 C1347 1.429 . S
C1344 C1327 1.574 . S
C1344 H1338 0.949 . S
C1344 C1348 1.368 . S
C1345 C1326 1.429 . S
C1345 C1339 1.429 . S
C1345 C1346 1.523 . S
C1346 C1327 1.368 . S
C1346 C1340 1.368 . S
C1346 C1345 1.523 . S
C1347 C1331 1.429 . S
C1347 C1343 1.429 . S
C1347 C1348 1.523 . S
C1348 C1332 1.368 . S
C1348 C1344 1.368 . S
C1348 C1347 1.523 . S
H1349 C1324 0.950 . S
H1350 C1326 0.950 . S
H1351 C1327 0.949 . S
H1352 C1329 0.950 . S
H1353 C1331 0.950 . S
C1354 C1355 1.349 . S
C1354 C1356 1.327 . S
C1354 H1379 0.950 . S
C1355 C1354 1.349 . S
C1355 C1371 1.349 . S
C1356 C1354 1.327 . S
C1356 C1375 1.429 . S
C1356 H1380 0.950 . S
C1357 C1374 1.574 . S
C1357 C1376 1.368 . S
C1357 H1381 0.949 . S
H1358 C1362 0.949 . S
C1359 C1360 1.349 . S
C1359 C1361 1.327 . S
C1359 H1382 0.950 . S
C1360 C1359 1.349 . S
C1360 C1372 1.349 . S
C1361 C1359 1.327 . S
C1361 C1377 1.429 . S
C1361 H1383 0.950 . S
C1362 H1358 0.949 . S
C1362 C1370 1.574 . S
C1362 C1378 1.368 . S
H1363 C1371 0.950 . S
H1364 C1369 0.950 . S
H1365 C1370 0.949 . S
H1366 C1372 0.950 . S
H1367 C1373 0.950 . S
H1368 C1374 0.949 . S
C1369 H1364 0.950 . S
C1369 C1371 1.327 . S
C1369 C1375 1.429 . S
C1370 C1362 1.574 . S
C1370 H1365 0.949 . S
C1370 C1376 1.368 . S
C1371 C1355 1.349 . S
C1371 H1363 0.950 . S
C1371 C1369 1.327 . S
C1372 C1360 1.349 . S
C1372 H1366 0.950 . S
C1372 C1373 1.327 . S
C1373 H1367 0.950 . S
C1373 C1372 1.327 . S
C1373 C1377 1.429 . S
C1374 C1357 1.574 . S
C1374 H1368 0.949 . S
C1374 C1378 1.368 . S
C1375 C1356 1.429 . S
C1375 C1369 1.429 . S
C1375 C1376 1.523 . S
C1376 C1357 1.368 . S
C1376 C1370 1.368 . S
C1376 C1375 1.523 . S
C1377 C1361 1.429 . S
C1377 C1373 1.429 . S
C1377 C1378 1.523 . S
C1378 C1362 1.368 . S
C1378 C1374 1.368 . S
C1378 C1377 1.523 . S
H1379 C1354 0.950 . S
H1380 C1356 0.950 . S
H1381 C1357 0.949 . S
H1382 C1359 0.950 . S
H1383 C1361 0.950 . S
C1384 C1385 1.349 . S
C1384 C1386 1.327 . S
C1384 H1409 0.950 . S
C1385 C1384 1.349 . S
C1385 C1401 1.349 . S
C1386 C1384 1.327 . S
C1386 C1405 1.429 . S
C1386 H1410 0.950 . S
C1387 C1404 1.574 . S
C1387 C1406 1.368 . S
C1387 H1411 0.949 . S
H1388 C1392 0.949 . S
C1389 C1390 1.349 . S
C1389 C1391 1.327 . S
C1389 H1412 0.950 . S
C1390 C1389 1.349 . S
C1390 C1402 1.349 . S
C1391 C1389 1.327 . S
C1391 C1407 1.429 . S
C1391 H1413 0.950 . S
C1392 H1388 0.949 . S
C1392 C1400 1.574 . S
C1392 C1408 1.368 . S
H1393 C1401 0.950 . S
H1394 C1399 0.950 . S
H1395 C1400 0.949 . S
H1396 C1402 0.950 . S
H1397 C1403 0.950 . S
H1398 C1404 0.949 . S
C1399 H1394 0.950 . S
C1399 C1401 1.327 . S
C1399 C1405 1.429 . S
C1400 C1392 1.574 . S
C1400 H1395 0.949 . S
C1400 C1406 1.368 . S
C1401 C1385 1.349 . S
C1401 H1393 0.950 . S
C1401 C1399 1.327 . S
C1402 C1390 1.349 . S
C1402 H1396 0.950 . S
C1402 C1403 1.327 . S
C1403 H1397 0.950 . S
C1403 C1402 1.327 . S
C1403 C1407 1.429 . S
C1404 C1387 1.574 . S
C1404 H1398 0.949 . S
C1404 C1408 1.368 . S
C1405 C1386 1.429 . S
C1405 C1399 1.429 . S
C1405 C1406 1.523 . S
C1406 C1387 1.368 . S
C1406 C1400 1.368 . S
C1406 C1405 1.523 . S
C1407 C1391 1.429 . S
C1407 C1403 1.429 . S
C1407 C1408 1.523 . S
C1408 C1392 1.368 . S
C1408 C1404 1.368 . S
C1408 C1407 1.523 . S
H1409 C1384 0.950 . S
H1410 C1386 0.950 . S
H1411 C1387 0.949 . S
H1412 C1389 0.950 . S
H1413 C1391 0.950 . S
C1414 C1415 1.349 . S
C1414 C1416 1.327 . S
C1414 H1439 0.950 . S
C1415 C1414 1.349 . S
C1415 C1431 1.349 . S
C1416 C1414 1.327 . S
C1416 C1435 1.429 . S
C1416 H1440 0.950 . S
C1417 C1434 1.574 . S
C1417 C1436 1.368 . S
C1417 H1441 0.949 . S
H1418 C1422 0.949 . S
C1419 C1420 1.349 . S
C1419 C1421 1.327 . S
C1419 H1442 0.950 . S
C1420 C1419 1.349 . S
C1420 C1432 1.349 . S
C1421 C1419 1.327 . S
C1421 C1437 1.429 . S
C1421 H1443 0.950 . S
C1422 H1418 0.949 . S
C1422 C1430 1.574 . S
C1422 C1438 1.368 . S
H1423 C1431 0.950 . S
H1424 C1429 0.950 . S
H1425 C1430 0.949 . S
H1426 C1432 0.950 . S
H1427 C1433 0.950 . S
H1428 C1434 0.949 . S
C1429 H1424 0.950 . S
C1429 C1431 1.327 . S
C1429 C1435 1.429 . S
C1430 C1422 1.574 . S
C1430 H1425 0.949 . S
C1430 C1436 1.368 . S
C1431 C1415 1.349 . S
C1431 H1423 0.950 . S
C1431 C1429 1.327 . S
C1432 C1420 1.349 . S
C1432 H1426 0.950 . S
C1432 C1433 1.327 . S
C1433 H1427 0.950 . S
C1433 C1432 1.327 . S
C1433 C1437 1.429 . S
C1434 C1417 1.574 . S
C1434 H1428 0.949 . S
C1434 C1438 1.368 . S
C1435 C1416 1.429 . S
C1435 C1429 1.429 . S
C1435 C1436 1.523 . S
C1436 C1417 1.368 . S
C1436 C1430 1.368 . S
C1436 C1435 1.523 . S
C1437 C1421 1.429 . S
C1437 C1433 1.429 . S
C1437 C1438 1.523 . S
C1438 C1422 1.368 . S
C1438 C1434 1.368 . S
C1438 C1437 1.523 . S
H1439 C1414 0.950 . S
H1440 C1416 0.950 . S
H1441 C1417 0.949 . S
H1442 C1419 0.950 . S
H1443 C1421 0.950 . S
C1444 C1445 1.349 . S
C1444 C1446 1.327 . S
C1444 H1469 0.950 . S
C1445 C1444 1.349 . S
C1445 C1461 1.349 . S
C1446 C1444 1.327 . S
C1446 C1465 1.429 . S
C1446 H1470 0.950 . S
C1447 C1464 1.574 . S
C1447 C1466 1.368 . S
C1447 H1471 0.949 . S
H1448 C1452 0.949 . S
C1449 C1450 1.349 . S
C1449 C1451 1.327 . S
C1449 H1472 0.950 . S
C1450 C1449 1.349 . S
C1450 C1462 1.349 . S
C1451 C1449 1.327 . S
C1451 C1467 1.429 . S
C1451 H1473 0.950 . S
C1452 H1448 0.949 . S
C1452 C1460 1.574 . S
C1452 C1468 1.368 . S
H1453 C1461 0.950 . S
H1454 C1459 0.950 . S
H1455 C1460 0.949 . S
H1456 C1462 0.950 . S
H1457 C1463 0.950 . S
H1458 C1464 0.949 . S
C1459 H1454 0.950 . S
C1459 C1461 1.327 . S
C1459 C1465 1.429 . S
C1460 C1452 1.574 . S
C1460 H1455 0.949 . S
C1460 C1466 1.368 . S
C1461 C1445 1.349 . S
C1461 H1453 0.950 . S
C1461 C1459 1.327 . S
C1462 C1450 1.349 . S
C1462 H1456 0.950 . S
C1462 C1463 1.327 . S
C1463 H1457 0.950 . S
C1463 C1462 1.327 . S
C1463 C1467 1.429 . S
C1464 C1447 1.574 . S
C1464 H1458 0.949 . S
C1464 C1468 1.368 . S
C1465 C1446 1.429 . S
C1465 C1459 1.429 . S
C1465 C1466 1.523 . S
C1466 C1447 1.368 . S
C1466 C1460 1.368 . S
C1466 C1465 1.523 . S
C1467 C1451 1.429 . S
C1467 C1463 1.429 . S
C1467 C1468 1.523 . S
C1468 C1452 1.368 . S
C1468 C1464 1.368 . S
C1468 C1467 1.523 . S
H1469 C1444 0.950 . S
H1470 C1446 0.950 . S
H1471 C1447 0.949 . S
H1472 C1449 0.950 . S
H1473 C1451 0.950 . S
C1474 C1475 1.349 . S
C1474 C1476 1.327 . S
C1474 H1499 0.950 . S
C1475 C1474 1.349 . S
C1475 C1491 1.349 . S
C1476 C1474 1.327 . S
C1476 C1495 1.429 . S
C1476 H1500 0.950 . S
C1477 C1494 1.574 . S
C1477 C1496 1.368 . S
C1477 H1501 0.949 . S
H1478 C1482 0.949 . S
C1479 C1480 1.349 . S
C1479 C1481 1.327 . S
C1479 H1502 0.950 . S
C1480 C1479 1.349 . S
C1480 C1492 1.349 . S
C1481 C1479 1.327 . S
C1481 C1497 1.429 . S
C1481 H1503 0.950 . S
C1482 H1478 0.949 . S
C1482 C1490 1.574 . S
C1482 C1498 1.368 . S
H1483 C1491 0.950 . S
H1484 C1489 0.950 . S
H1485 C1490 0.949 . S
H1486 C1492 0.950 . S
H1487 C1493 0.950 . S
H1488 C1494 0.949 . S
C1489 H1484 0.950 . S
C1489 C1491 1.327 . S
C1489 C1495 1.429 . S
C1490 C1482 1.574 . S
C1490 H1485 0.949 . S
C1490 C1496 1.368 . S
C1491 C1475 1.349 . S
C1491 H1483 0.950 . S
C1491 C1489 1.327 . S
C1492 C1480 1.349 . S
C1492 H1486 0.950 . S
C1492 C1493 1.327 . S
C1493 H1487 0.950 . S
C1493 C1492 1.327 . S
C1493 C1497 1.429 . S
C1494 C1477 1.574 . S
C1494 H1488 0.949 . S
C1494 C1498 1.368 . S
C1495 C1476 1.429 . S
C1495 C1489 1.429 . S
C1495 C1496 1.523 . S
C1496 C1477 1.368 . S
C1496 C1490 1.368 . S
C1496 C1495 1.523 . S
C1497 C1481 1.429 . S
C1497 C1493 1.429 . S
C1497 C1498 1.523 . S
C1498 C1482 1.368 . S
C1498 C1494 1.368 . S
C1498 C1497 1.523 . S
H1499 C1474 0.950 . S
H1500 C1476 0.950 . S
H1501 C1477 0.949 . S
H1502 C1479 0.950 . S
H1503 C1481 0.950 . S
C1504 C1505 1.349 . S
C1504 C1506 1.327 . S
C1504 H1529 0.950 . S
C1505 C1504 1.349 . S
C1505 C1521 1.349 . S
C1506 C1504 1.327 . S
C1506 C1525 1.429 . S
C1506 H1530 0.950 . S
C1507 C1524 1.574 . S
C1507 C1526 1.368 . S
C1507 H1531 0.949 . S
H1508 C1512 0.949 . S
C1509 C1510 1.349 . S
C1509 C1511 1.327 . S
C1509 H1532 0.950 . S
C1510 C1509 1.349 . S
C1510 C1522 1.349 . S
C1511 C1509 1.327 . S
C1511 C1527 1.429 . S
C1511 H1533 0.950 . S
C1512 H1508 0.949 . S
C1512 C1520 1.574 . S
C1512 C1528 1.368 . S
H1513 C1521 0.950 . S
H1514 C1519 0.950 . S
H1515 C1520 0.949 . S
H1516 C1522 0.950 . S
H1517 C1523 0.950 . S
H1518 C1524 0.949 . S
C1519 H1514 0.950 . S
C1519 C1521 1.327 . S
C1519 C1525 1.429 . S
C1520 C1512 1.574 . S
C1520 H1515 0.949 . S
C1520 C1526 1.368 . S
C1521 C1505 1.349 . S
C1521 H1513 0.950 . S
C1521 C1519 1.327 . S
C1522 C1510 1.349 . S
C1522 H1516 0.950 . S
C1522 C1523 1.327 . S
C1523 H1517 0.950 . S
C1523 C1522 1.327 . S
C1523 C1527 1.429 . S
C1524 C1507 1.574 . S
C1524 H1518 0.949 . S
C1524 C1528 1.368 . S
C1525 C1506 1.429 . S
C1525 C1519 1.429 . S
C1525 C1526 1.523 . S
C1526 C1507 1.368 . S
C1526 C1520 1.368 . S
C1526 C1525 1.523 . S
C1527 C1511 1.429 . S
C1527 C1523 1.429 . S
C1527 C1528 1.523 . S
C1528 C1512 1.368 . S
C1528 C1524 1.368 . S
C1528 C1527 1.523 . S
H1529 C1504 0.950 . S
H1530 C1506 0.950 . S
H1531 C1507 0.949 . S
H1532 C1509 0.950 . S
H1533 C1511 0.950 . S
C1534 C1535 1.349 . S
C1534 C1536 1.327 . S
C1534 H1559 0.950 . S
C1535 C1534 1.349 . S
C1535 C1551 1.349 . S
C1536 C1534 1.327 . S
C1536 C1555 1.429 . S
C1536 H1560 0.950 . S
C1537 C1554 1.574 . S
C1537 C1556 1.368 . S
C1537 H1561 0.949 . S
H1538 C1542 0.949 . S
C1539 C1540 1.349 . S
C1539 C1541 1.327 . S
C1539 H1562 0.950 . S
C1540 C1539 1.349 . S
C1540 C1552 1.349 . S
C1541 C1539 1.327 . S
C1541 C1557 1.429 . S
C1541 H1563 0.950 . S
C1542 H1538 0.949 . S
C1542 C1550 1.574 . S
C1542 C1558 1.368 . S
H1543 C1551 0.950 . S
H1544 C1549 0.950 . S
H1545 C1550 0.949 . S
H1546 C1552 0.950 . S
H1547 C1553 0.950 . S
H1548 C1554 0.949 . S
C1549 H1544 0.950 . S
C1549 C1551 1.327 . S
C1549 C1555 1.429 . S
C1550 C1542 1.574 . S
C1550 H1545 0.949 . S
C1550 C1556 1.368 . S
C1551 C1535 1.349 . S
C1551 H1543 0.950 . S
C1551 C1549 1.327 . S
C1552 C1540 1.349 . S
C1552 H1546 0.950 . S
C1552 C1553 1.327 . S
C1553 H1547 0.950 . S
C1553 C1552 1.327 . S
C1553 C1557 1.429 . S
C1554 C1537 1.574 . S
C1554 H1548 0.949 . S
C1554 C1558 1.368 . S
C1555 C1536 1.429 . S
C1555 C1549 1.429 . S
C1555 C1556 1.523 . S
C1556 C1537 1.368 . S
C1556 C1550 1.368 . S
C1556 C1555 1.523 . S
C1557 C1541 1.429 . S
C1557 C1553 1.429 . S
C1557 C1558 1.523 . S
C1558 C1542 1.368 . S
C1558 C1554 1.368 . S
C1558 C1557 1.523 . S
H1559 C1534 0.950 . S
H1560 C1536 0.950 . S
H1561 C1537 0.949 . S
H1562 C1539 0.950 . S
H1563 C1541 0.950 . S
C1564 C1565 1.349 . S
C1564 C1566 1.327 . S
C1564 H1589 0.950 . S
C1565 C1564 1.349 . S
C1565 C1581 1.349 . S
C1566 C1564 1.327 . S
C1566 C1585 1.429 . S
C1566 H1590 0.950 . S
C1567 C1584 1.574 . S
C1567 C1586 1.368 . S
C1567 H1591 0.949 . S
H1568 C1572 0.949 . S
C1569 C1570 1.349 . S
C1569 C1571 1.327 . S
C1569 H1592 0.950 . S
C1570 C1569 1.349 . S
C1570 C1582 1.349 . S
C1571 C1569 1.327 . S
C1571 C1587 1.429 . S
C1571 H1593 0.950 . S
C1572 H1568 0.949 . S
C1572 C1580 1.574 . S
C1572 C1588 1.368 . S
H1573 C1581 0.950 . S
H1574 C1579 0.950 . S
H1575 C1580 0.949 . S
H1576 C1582 0.950 . S
H1577 C1583 0.950 . S
H1578 C1584 0.949 . S
C1579 H1574 0.950 . S
C1579 C1581 1.327 . S
C1579 C1585 1.429 . S
C1580 C1572 1.574 . S
C1580 H1575 0.949 . S
C1580 C1586 1.368 . S
C1581 C1565 1.349 . S
C1581 H1573 0.950 . S
C1581 C1579 1.327 . S
C1582 C1570 1.349 . S
C1582 H1576 0.950 . S
C1582 C1583 1.327 . S
C1583 H1577 0.950 . S
C1583 C1582 1.327 . S
C1583 C1587 1.429 . S
C1584 C1567 1.574 . S
C1584 H1578 0.949 . S
C1584 C1588 1.368 . S
C1585 C1566 1.429 . S
C1585 C1579 1.429 . S
C1585 C1586 1.523 . S
C1586 C1567 1.368 . S
C1586 C1580 1.368 . S
C1586 C1585 1.523 . S
C1587 C1571 1.429 . S
C1587 C1583 1.429 . S
C1587 C1588 1.523 . S
C1588 C1572 1.368 . S
C1588 C1584 1.368 . S
C1588 C1587 1.523 . S
H1589 C1564 0.950 . S
H1590 C1566 0.950 . S
H1591 C1567 0.949 . S
H1592 C1569 0.950 . S
H1593 C1571 0.950 . S
C1594 C1595 1.349 . S
C1594 C1596 1.327 . S
C1594 H1619 0.950 . S
C1595 C1594 1.349 . S
C1595 C1611 1.349 . S
C1596 C1594 1.327 . S
C1596 C1615 1.429 . S
C1596 H1620 0.950 . S
C1597 C1614 1.574 . S
C1597 C1616 1.368 . S
C1597 H1621 0.949 . S
H1598 C1602 0.949 . S
C1599 C1600 1.349 . S
C1599 C1601 1.327 . S
C1599 H1622 0.950 . S
C1600 C1599 1.349 . S
C1600 C1612 1.349 . S
C1601 C1599 1.327 . S
C1601 C1617 1.429 . S
C1601 H1623 0.950 . S
C1602 H1598 0.949 . S
C1602 C1610 1.574 . S
C1602 C1618 1.368 . S
H1603 C1611 0.950 . S
H1604 C1609 0.950 . S
H1605 C1610 0.949 . S
H1606 C1612 0.950 . S
H1607 C1613 0.950 . S
H1608 C1614 0.949 . S
C1609 H1604 0.950 . S
C1609 C1611 1.327 . S
C1609 C1615 1.429 . S
C1610 C1602 1.574 . S
C1610 H1605 0.949 . S
C1610 C1616 1.368 . S
C1611 C1595 1.349 . S
C1611 H1603 0.950 . S
C1611 C1609 1.327 . S
C1612 C1600 1.349 . S
C1612 H1606 0.950 . S
C1612 C1613 1.327 . S
C1613 H1607 0.950 . S
C1613 C1612 1.327 . S
C1613 C1617 1.429 . S
C1614 C1597 1.574 . S
C1614 H1608 0.949 . S
C1614 C1618 1.368 . S
C1615 C1596 1.429 . S
C1615 C1609 1.429 . S
C1615 C1616 1.523 . S
C1616 C1597 1.368 . S
C1616 C1610 1.368 . S
C1616 C1615 1.523 . S
C1617 C1601 1.429 . S
C1617 C1613 1.429 . S
C1617 C1618 1.523 . S
C1618 C1602 1.368 . S
C1618 C1614 1.368 . S
C1618 C1617 1.523 . S
H1619 C1594 0.950 . S
H1620 C1596 0.950 . S
H1621 C1597 0.949 . S
H1622 C1599 0.950 . S
H1623 C1601 0.950 . S
C1624 C1625 1.349 . S
C1624 C1626 1.327 . S
C1624 H1649 0.950 . S
C1625 C1624 1.349 . S
C1625 C1641 1.349 . S
C1626 C1624 1.327 . S
C1626 C1645 1.429 . S
C1626 H1650 0.950 . S
C1627 C1644 1.574 . S
C1627 C1646 1.368 . S
C1627 H1651 0.949 . S
H1628 C1632 0.949 . S
C1629 C1630 1.349 . S
C1629 C1631 1.327 . S
C1629 H1652 0.950 . S
C1630 C1629 1.349 . S
C1630 C1642 1.349 . S
C1631 C1629 1.327 . S
C1631 C1647 1.429 . S
C1631 H1653 0.950 . S
C1632 H1628 0.949 . S
C1632 C1640 1.574 . S
C1632 C1648 1.368 . S
H1633 C1641 0.950 . S
H1634 C1639 0.950 . S
H1635 C1640 0.949 . S
H1636 C1642 0.950 . S
H1637 C1643 0.950 . S
H1638 C1644 0.949 . S
C1639 H1634 0.950 . S
C1639 C1641 1.327 . S
C1639 C1645 1.429 . S
C1640 C1632 1.574 . S
C1640 H1635 0.949 . S
C1640 C1646 1.368 . S
C1641 C1625 1.349 . S
C1641 H1633 0.950 . S
C1641 C1639 1.327 . S
C1642 C1630 1.349 . S
C1642 H1636 0.950 . S
C1642 C1643 1.327 . S
C1643 H1637 0.950 . S
C1643 C1642 1.327 . S
C1643 C1647 1.429 . S
C1644 C1627 1.574 . S
C1644 H1638 0.949 . S
C1644 C1648 1.368 . S
C1645 C1626 1.429 . S
C1645 C1639 1.429 . S
C1645 C1646 1.523 . S
C1646 C1627 1.368 . S
C1646 C1640 1.368 . S
C1646 C1645 1.523 . S
C1647 C1631 1.429 . S
C1647 C1643 1.429 . S
C1647 C1648 1.523 . S
C1648 C1632 1.368 . S
C1648 C1644 1.368 . S
C1648 C1647 1.523 . S
H1649 C1624 0.950 . S
H1650 C1626 0.950 . S
H1651 C1627 0.949 . S
H1652 C1629 0.950 . S
H1653 C1631 0.950 . S
C1654 C1655 1.349 . S
C1654 C1656 1.327 . S
C1654 H1679 0.950 . S
C1655 C1654 1.349 . S
C1655 C1671 1.349 . S
C1656 C1654 1.327 . S
C1656 C1675 1.429 . S
C1656 H1680 0.950 . S
C1657 C1674 1.574 . S
C1657 C1676 1.368 . S
C1657 H1681 0.949 . S
H1658 C1662 0.949 . S
C1659 C1660 1.349 . S
C1659 C1661 1.327 . S
C1659 H1682 0.950 . S
C1660 C1659 1.349 . S
C1660 C1672 1.349 . S
C1661 C1659 1.327 . S
C1661 C1677 1.429 . S
C1661 H1683 0.950 . S
C1662 H1658 0.949 . S
C1662 C1670 1.574 . S
C1662 C1678 1.368 . S
H1663 C1671 0.950 . S
H1664 C1669 0.950 . S
H1665 C1670 0.949 . S
H1666 C1672 0.950 . S
H1667 C1673 0.950 . S
H1668 C1674 0.949 . S
C1669 H1664 0.950 . S
C1669 C1671 1.327 . S
C1669 C1675 1.429 . S
C1670 C1662 1.574 . S
C1670 H1665 0.949 . S
C1670 C1676 1.368 . S
C1671 C1655 1.349 . S
C1671 H1663 0.950 . S
C1671 C1669 1.327 . S
C1672 C1660 1.349 . S
C1672 H1666 0.950 . S
C1672 C1673 1.327 . S
C1673 H1667 0.950 . S
C1673 C1672 1.327 . S
C1673 C1677 1.429 . S
C1674 C1657 1.574 . S
C1674 H1668 0.949 . S
C1674 C1678 1.368 . S
C1675 C1656 1.429 . S
C1675 C1669 1.429 . S
C1675 C1676 1.523 . S
C1676 C1657 1.368 . S
C1676 C1670 1.368 . S
C1676 C1675 1.523 . S
C1677 C1661 1.429 . S
C1677 C1673 1.429 . S
C1677 C1678 1.523 . S
C1678 C1662 1.368 . S
C1678 C1674 1.368 . S
C1678 C1677 1.523 . S
H1679 C1654 0.950 . S
H1680 C1656 0.950 . S
H1681 C1657 0.949 . S
H1682 C1659 0.950 . S
H1683 C1661 0.950 . S
C1684 C1685 1.349 . S
C1684 C1686 1.327 . S
C1684 H1709 0.950 . S
C1685 C1684 1.349 . S
C1685 C1701 1.349 . S
C1686 C1684 1.327 . S
C1686 C1705 1.429 . S
C1686 H1710 0.950 . S
C1687 C1704 1.574 . S
C1687 C1706 1.368 . S
C1687 H1711 0.949 . S
H1688 C1692 0.949 . S
C1689 C1690 1.349 . S
C1689 C1691 1.327 . S
C1689 H1712 0.950 . S
C1690 C1689 1.349 . S
C1690 C1702 1.349 . S
C1691 C1689 1.327 . S
C1691 C1707 1.429 . S
C1691 H1713 0.950 . S
C1692 H1688 0.949 . S
C1692 C1700 1.574 . S
C1692 C1708 1.368 . S
H1693 C1701 0.950 . S
H1694 C1699 0.950 . S
H1695 C1700 0.949 . S
H1696 C1702 0.950 . S
H1697 C1703 0.950 . S
H1698 C1704 0.949 . S
C1699 H1694 0.950 . S
C1699 C1701 1.327 . S
C1699 C1705 1.429 . S
C1700 C1692 1.574 . S
C1700 H1695 0.949 . S
C1700 C1706 1.368 . S
C1701 C1685 1.349 . S
C1701 H1693 0.950 . S
C1701 C1699 1.327 . S
C1702 C1690 1.349 . S
C1702 H1696 0.950 . S
C1702 C1703 1.327 . S
C1703 H1697 0.950 . S
C1703 C1702 1.327 . S
C1703 C1707 1.429 . S
C1704 C1687 1.574 . S
C1704 H1698 0.949 . S
C1704 C1708 1.368 . S
C1705 C1686 1.429 . S
C1705 C1699 1.429 . S
C1705 C1706 1.523 . S
C1706 C1687 1.368 . S
C1706 C1700 1.368 . S
C1706 C1705 1.523 . S
C1707 C1691 1.429 . S
C1707 C1703 1.429 . S
C1707 C1708 1.523 . S
C1708 C1692 1.368 . S
C1708 C1704 1.368 . S
C1708 C1707 1.523 . S
H1709 C1684 0.950 . S
H1710 C1686 0.950 . S
H1711 C1687 0.949 . S
H1712 C1689 0.950 . S
H1713 C1691 0.950 . S
C1714 C1715 1.349 . S
C1714 C1716 1.327 . S
C1714 H1739 0.950 . S
C1715 C1714 1.349 . S
C1715 C1731 1.349 . S
C1716 C1714 1.327 . S
C1716 C1735 1.429 . S
C1716 H1740 0.950 . S
C1717 C1734 1.574 . S
C1717 C1736 1.368 . S
C1717 H1741 0.949 . S
H1718 C1722 0.949 . S
C1719 C1720 1.349 . S
C1719 C1721 1.327 . S
C1719 H1742 0.950 . S
C1720 C1719 1.349 . S
C1720 C1732 1.349 . S
C1721 C1719 1.327 . S
C1721 C1737 1.429 . S
C1721 H1743 0.950 . S
C1722 H1718 0.949 . S
C1722 C1730 1.574 . S
C1722 C1738 1.368 . S
H1723 C1731 0.950 . S
H1724 C1729 0.950 . S
H1725 C1730 0.949 . S
H1726 C1732 0.950 . S
H1727 C1733 0.950 . S
H1728 C1734 0.949 . S
C1729 H1724 0.950 . S
C1729 C1731 1.327 . S
C1729 C1735 1.429 . S
C1730 C1722 1.574 . S
C1730 H1725 0.949 . S
C1730 C1736 1.368 . S
C1731 C1715 1.349 . S
C1731 H1723 0.950 . S
C1731 C1729 1.327 . S
C1732 C1720 1.349 . S
C1732 H1726 0.950 . S
C1732 C1733 1.327 . S
C1733 H1727 0.950 . S
C1733 C1732 1.327 . S
C1733 C1737 1.429 . S
C1734 C1717 1.574 . S
C1734 H1728 0.949 . S
C1734 C1738 1.368 . S
C1735 C1716 1.429 . S
C1735 C1729 1.429 . S
C1735 C1736 1.523 . S
C1736 C1717 1.368 . S
C1736 C1730 1.368 . S
C1736 C1735 1.523 . S
C1737 C1721 1.429 . S
C1737 C1733 1.429 . S
C1737 C1738 1.523 . S
C1738 C1722 1.368 . S
C1738 C1734 1.368 . S
C1738 C1737 1.523 . S
H1739 C1714 0.950 . S
H1740 C1716 0.950 . S
H1741 C1717 0.949 . S
H1742 C1719 0.950 . S
H1743 C1721 0.950 . S
C1744 C1745 1.349 . S
C1744 C1746 1.327 . S
C1744 H1769 0.950 . S
C1745 C1744 1.349 . S
C1745 C1761 1.349 . S
C1746 C1744 1.327 . S
C1746 C1765 1.429 . S
C1746 H1770 0.950 . S
C1747 C1764 1.574 . S
C1747 C1766 1.368 . S
C1747 H1771 0.949 . S
H1748 C1752 0.949 . S
C1749 C1750 1.349 . S
C1749 C1751 1.327 . S
C1749 H1772 0.950 . S
C1750 C1749 1.349 . S
C1750 C1762 1.349 . S
C1751 C1749 1.327 . S
C1751 C1767 1.429 . S
C1751 H1773 0.950 . S
C1752 H1748 0.949 . S
C1752 C1760 1.574 . S
C1752 C1768 1.368 . S
H1753 C1761 0.950 . S
H1754 C1759 0.950 . S
H1755 C1760 0.949 . S
H1756 C1762 0.950 . S
H1757 C1763 0.950 . S
H1758 C1764 0.949 . S
C1759 H1754 0.950 . S
C1759 C1761 1.327 . S
C1759 C1765 1.429 . S
C1760 C1752 1.574 . S
C1760 H1755 0.949 . S
C1760 C1766 1.368 . S
C1761 C1745 1.349 . S
C1761 H1753 0.950 . S
C1761 C1759 1.327 . S
C1762 C1750 1.349 . S
C1762 H1756 0.950 . S
C1762 C1763 1.327 . S
C1763 H1757 0.950 . S
C1763 C1762 1.327 . S
C1763 C1767 1.429 . S
C1764 C1747 1.574 . S
C1764 H1758 0.949 . S
C1764 C1768 1.368 . S
C1765 C1746 1.429 . S
C1765 C1759 1.429 . S
C1765 C1766 1.523 . S
C1766 C1747 1.368 . S
C1766 C1760 1.368 . S
C1766 C1765 1.523 . S
C1767 C1751 1.429 . S
C1767 C1763 1.429 . S
C1767 C1768 1.523 . S
C1768 C1752 1.368 . S
C1768 C1764 1.368 . S
C1768 C1767 1.523 . S
H1769 C1744 0.950 . S
H1770 C1746 0.950 . S
H1771 C1747 0.949 . S
H1772 C1749 0.950 . S
H1773 C1751 0.950 . S
C1774 C1775 1.349 . S
C1774 C1776 1.327 . S
C1774 H1799 0.950 . S
C1775 C1774 1.349 . S
C1775 C1791 1.349 . S
C1776 C1774 1.327 . S
C1776 C1795 1.429 . S
C1776 H1800 0.950 . S
C1777 C1794 1.574 . S
C1777 C1796 1.368 . S
C1777 H1801 0.949 . S
H1778 C1782 0.949 . S
C1779 C1780 1.349 . S
C1779 C1781 1.327 . S
C1779 H1802 0.950 . S
C1780 C1779 1.349 . S
C1780 C1792 1.349 . S
C1781 C1779 1.327 . S
C1781 C1797 1.429 . S
C1781 H1803 0.950 . S
C1782 H1778 0.949 . S
C1782 C1790 1.574 . S
C1782 C1798 1.368 . S
H1783 C1791 0.950 . S
H1784 C1789 0.950 . S
H1785 C1790 0.949 . S
H1786 C1792 0.950 . S
H1787 C1793 0.950 . S
H1788 C1794 0.949 . S
C1789 H1784 0.950 . S
C1789 C1791 1.327 . S
C1789 C1795 1.429 . S
C1790 C1782 1.574 . S
C1790 H1785 0.949 . S
C1790 C1796 1.368 . S
C1791 C1775 1.349 . S
C1791 H1783 0.950 . S
C1791 C1789 1.327 . S
C1792 C1780 1.349 . S
C1792 H1786 0.950 . S
C1792 C1793 1.327 . S
C1793 H1787 0.950 . S
C1793 C1792 1.327 . S
C1793 C1797 1.429 . S
C1794 C1777 1.574 . S
C1794 H1788 0.949 . S
C1794 C1798 1.368 . S
C1795 C1776 1.429 . S
C1795 C1789 1.429 . S
C1795 C1796 1.523 . S
C1796 C1777 1.368 . S
C1796 C1790 1.368 . S
C1796 C1795 1.523 . S
C1797 C1781 1.429 . S
C1797 C1793 1.429 . S
C1797 C1798 1.523 . S
C1798 C1782 1.368 . S
C1798 C1794 1.368 . S
C1798 C1797 1.523 . S
H1799 C1774 0.950 . S
H1800 C1776 0.950 . S
H1801 C1777 0.949 . S
H1802 C1779 0.950 . S
H1803 C1781 0.950 . S
C1804 C1805 1.349 . S
C1804 C1806 1.327 . S
C1804 H1829 0.950 . S
C1805 C1804 1.349 . S
C1805 C1821 1.349 . S
C1806 C1804 1.327 . S
C1806 C1825 1.429 . S
C1806 H1830 0.950 . S
C1807 C1824 1.574 . S
C1807 C1826 1.368 . S
C1807 H1831 0.949 . S
H1808 C1812 0.949 . S
C1809 C1810 1.349 . S
C1809 C1811 1.327 . S
C1809 H1832 0.950 . S
C1810 C1809 1.349 . S
C1810 C1822 1.349 . S
C1811 C1809 1.327 . S
C1811 C1827 1.429 . S
C1811 H1833 0.950 . S
C1812 H1808 0.949 . S
C1812 C1820 1.574 . S
C1812 C1828 1.368 . S
H1813 C1821 0.950 . S
H1814 C1819 0.950 . S
H1815 C1820 0.949 . S
H1816 C1822 0.950 . S
H1817 C1823 0.950 . S
H1818 C1824 0.949 . S
C1819 H1814 0.950 . S
C1819 C1821 1.327 . S
C1819 C1825 1.429 . S
C1820 C1812 1.574 . S
C1820 H1815 0.949 . S
C1820 C1826 1.368 . S
C1821 C1805 1.349 . S
C1821 H1813 0.950 . S
C1821 C1819 1.327 . S
C1822 C1810 1.349 . S
C1822 H1816 0.950 . S
C1822 C1823 1.327 . S
C1823 H1817 0.950 . S
C1823 C1822 1.327 . S
C1823 C1827 1.429 . S
C1824 C1807 1.574 . S
C1824 H1818 0.949 . S
C1824 C1828 1.368 . S
C1825 C1806 1.429 . S
C1825 C1819 1.429 . S
C1825 C1826 1.523 . S
C1826 C1807 1.368 . S
C1826 C1820 1.368 . S
C1826 C1825 1.523 . S
C1827 C1811 1.429 . S
C1827 C1823 1.429 . S
C1827 C1828 1.523 . S
C1828 C1812 1.368 . S
C1828 C1824 1.368 . S
C1828 C1827 1.523 . S
H1829 C1804 0.950 . S
H1830 C1806 0.950 . S
H1831 C1807 0.949 . S
H1832 C1809 0.950 . S
H1833 C1811 0.950 . S
C1834 C1835 1.349 . S
C1834 C1836 1.327 . S
C1834 H1859 0.950 . S
C1835 C1834 1.349 . S
C1835 C1851 1.349 . S
C1836 C1834 1.327 . S
C1836 C1855 1.429 . S
C1836 H1860 0.950 . S
C1837 C1854 1.574 . S
C1837 C1856 1.368 . S
C1837 H1861 0.949 . S
H1838 C1842 0.949 . S
C1839 C1840 1.349 . S
C1839 C1841 1.327 . S
C1839 H1862 0.950 . S
C1840 C1839 1.349 . S
C1840 C1852 1.349 . S
C1841 C1839 1.327 . S
C1841 C1857 1.429 . S
C1841 H1863 0.950 . S
C1842 H1838 0.949 . S
C1842 C1850 1.574 . S
C1842 C1858 1.368 . S
H1843 C1851 0.950 . S
H1844 C1849 0.950 . S
H1845 C1850 0.949 . S
H1846 C1852 0.950 . S
H1847 C1853 0.950 . S
H1848 C1854 0.949 . S
C1849 H1844 0.950 . S
C1849 C1851 1.327 . S
C1849 C1855 1.429 . S
C1850 C1842 1.574 . S
C1850 H1845 0.949 . S
C1850 C1856 1.368 . S
C1851 C1835 1.349 . S
C1851 H1843 0.950 . S
C1851 C1849 1.327 . S
C1852 C1840 1.349 . S
C1852 H1846 0.950 . S
C1852 C1853 1.327 . S
C1853 H1847 0.950 . S
C1853 C1852 1.327 . S
C1853 C1857 1.429 . S
C1854 C1837 1.574 . S
C1854 H1848 0.949 . S
C1854 C1858 1.368 . S
C1855 C1836 1.429 . S
C1855 C1849 1.429 . S
C1855 C1856 1.523 . S
C1856 C1837 1.368 . S
C1856 C1850 1.368 . S
C1856 C1855 1.523 . S
C1857 C1841 1.429 . S
C1857 C1853 1.429 . S
C1857 C1858 1.523 . S
C1858 C1842 1.368 . S
C1858 C1854 1.368 . S
C1858 C1857 1.523 . S
H1859 C1834 0.950 . S
H1860 C1836 0.950 . S
H1861 C1837 0.949 . S
H1862 C1839 0.950 . S
H1863 C1841 0.950 . S
C1864 C1865 1.349 . S
C1864 C1866 1.327 . S
C1864 H1889 0.950 . S
C1865 C1864 1.349 . S
C1865 C1881 1.349 . S
C1866 C1864 1.327 . S
C1866 C1885 1.429 . S
C1866 H1890 0.950 . S
C1867 C1884 1.574 . S
C1867 C1886 1.368 . S
C1867 H1891 0.949 . S
H1868 C1872 0.949 . S
C1869 C1870 1.349 . S
C1869 C1871 1.327 . S
C1869 H1892 0.950 . S
C1870 C1869 1.349 . S
C1870 C1882 1.349 . S
C1871 C1869 1.327 . S
C1871 C1887 1.429 . S
C1871 H1893 0.950 . S
C1872 H1868 0.949 . S
C1872 C1880 1.574 . S
C1872 C1888 1.368 . S
H1873 C1881 0.950 . S
H1874 C1879 0.950 . S
H1875 C1880 0.949 . S
H1876 C1882 0.950 . S
H1877 C1883 0.950 . S
H1878 C1884 0.949 . S
C1879 H1874 0.950 . S
C1879 C1881 1.327 . S
C1879 C1885 1.429 . S
C1880 C1872 1.574 . S
C1880 H1875 0.949 . S
C1880 C1886 1.368 . S
C1881 C1865 1.349 . S
C1881 H1873 0.950 . S
C1881 C1879 1.327 . S
C1882 C1870 1.349 . S
C1882 H1876 0.950 . S
C1882 C1883 1.327 . S
C1883 H1877 0.950 . S
C1883 C1882 1.327 . S
C1883 C1887 1.429 . S
C1884 C1867 1.574 . S
C1884 H1878 0.949 . S
C1884 C1888 1.368 . S
C1885 C1866 1.429 . S
C1885 C1879 1.429 . S
C1885 C1886 1.523 . S
C1886 C1867 1.368 . S
C1886 C1880 1.368 . S
C1886 C1885 1.523 . S
C1887 C1871 1.429 . S
C1887 C1883 1.429 . S
C1887 C1888 1.523 . S
C1888 C1872 1.368 . S
C1888 C1884 1.368 . S
C1888 C1887 1.523 . S
H1889 C1864 0.950 . S
H1890 C1866 0.950 . S
H1891 C1867 0.949 . S
H1892 C1869 0.950 . S
H1893 C1871 0.950 . S
C1894 C1895 1.349 . S
C1894 C1896 1.327 . S
C1894 H1919 0.950 . S
C1895 C1894 1.349 . S
C1895 C1911 1.349 . S
C1896 C1894 1.327 . S
C1896 C1915 1.429 . S
C1896 H1920 0.950 . S
C1897 C1914 1.574 . S
C1897 C1916 1.368 . S
C1897 H1921 0.949 . S
H1898 C1902 0.949 . S
C1899 C1900 1.349 . S
C1899 C1901 1.327 . S
C1899 H1922 0.950 . S
C1900 C1899 1.349 . S
C1900 C1912 1.349 . S
C1901 C1899 1.327 . S
C1901 C1917 1.429 . S
C1901 H1923 0.950 . S
C1902 H1898 0.949 . S
C1902 C1910 1.574 . S
C1902 C1918 1.368 . S
H1903 C1911 0.950 . S
H1904 C1909 0.950 . S
H1905 C1910 0.949 . S
H1906 C1912 0.950 . S
H1907 C1913 0.950 . S
H1908 C1914 0.949 . S
C1909 H1904 0.950 . S
C1909 C1911 1.327 . S
C1909 C1915 1.429 . S
C1910 C1902 1.574 . S
C1910 H1905 0.949 . S
C1910 C1916 1.368 . S
C1911 C1895 1.349 . S
C1911 H1903 0.950 . S
C1911 C1909 1.327 . S
C1912 C1900 1.349 . S
C1912 H1906 0.950 . S
C1912 C1913 1.327 . S
C1913 H1907 0.950 . S
C1913 C1912 1.327 . S
C1913 C1917 1.429 . S
C1914 C1897 1.574 . S
C1914 H1908 0.949 . S
C1914 C1918 1.368 . S
C1915 C1896 1.429 . S
C1915 C1909 1.429 . S
C1915 C1916 1.523 . S
C1916 C1897 1.368 . S
C1916 C1910 1.368 . S
C1916 C1915 1.523 . S
C1917 C1901 1.429 . S
C1917 C1913 1.429 . S
C1917 C1918 1.523 . S
C1918 C1902 1.368 . S
C1918 C1914 1.368 . S
C1918 C1917 1.523 . S
H1919 C1894 0.950 . S
H1920 C1896 0.950 . S
H1921 C1897 0.949 . S
H1922 C1899 0.950 . S
H1923 C1901 0.950 . S
C490 C195 1.248 . S
C485 C9 1.235 . S
C520 C173 1.541 . S
C515 C22 1.574 . S
C550 C170 0.301 . S
C545 C49 0.349 . S
C575 C61 1.583 . S
C580 C182 1.551 . S
C605 C81 1.573 . S
C610 C165 1.538 . S
C640 C187 0.300 . S
C635 C108 0.349 . S
C665 C122 1.586 . S
C670 C192 1.557 . S
C695 C148 1.234 . S
C700 C188 1.247 . S
C730 C246 2.415 . S
C725 C18 2.431 . S
C755 C39 1.171 . S
C760 C296 1.212 . S
C790 C219 2.396 . S
C785 C58 2.421 . S
C820 C295 0.306 . S
C815 C69 0.373 . S
C845 C89 0.381 . S
C850 C224 0.304 . S
C880 C290 1.533 . S
C875 C102 1.577 . S
C905 C139 1.174 . S
C910 C249 1.217 . S
C935 C142 1.596 . S
C940 C281 1.553 . S
C965 C1 1.601 . S
C970 C273 1.557 . S
C995 C98 1.179 . S
C1000 C303 1.221 . S
C1030 C227 2.414 . S
C1025 C119 2.434 . S
C1060 C278 0.320 . S
C1055 C128 0.382 . S
C1085 C159 2.435 . S
C1090 C236 2.417 . S
C1115 C41 1.591 . S
C1120 C300 1.551 . S
C1150 C242 1.225 . S
C1145 C78 1.182 . S
C1175 C28 0.388 . S
C1180 C241 0.317 . S
C1205 C149 1.235 . S
C1210 C357 1.248 . S
C1235 C82 1.574 . S
C1240 C335 1.542 . S
C1270 C332 0.301 . S
C1265 C109 0.349 . S
C1300 C344 1.551 . S
C1295 C121 1.582 . S
C1325 C21 1.573 . S
C1330 C327 1.537 . S
C1360 C349 0.300 . S
C1355 C48 0.349 . S
C1385 C62 1.586 . S
C1390 C354 1.558 . S
C1415 C8 1.234 . S
C1420 C350 1.247 . S
C1445 C158 2.431 . S
C1450 C408 2.415 . S
C1480 C458 1.212 . S
C1475 C99 1.171 . S
C1505 C118 2.421 . S
C1510 C381 2.397 . S
C1535 C129 0.373 . S
C1540 C457 0.306 . S
C1570 C386 0.304 . S
C1565 C29 0.381 . S
C1595 C42 1.577 . S
C1600 C452 1.534 . S
C1630 C411 1.217 . S
C1625 C79 1.174 . S
C1660 C443 1.553 . S
C1655 C2 1.596 . S
C1690 C435 1.557 . S
C1685 C141 1.602 . S
C1715 C38 1.179 . S
C1720 C465 1.221 . S
C1745 C59 2.434 . S
C1750 C389 2.414 . S
C1780 C440 0.320 . S
C1775 C68 0.382 . S
C1805 C19 2.435 . S
C1810 C398 2.417 . S
C1835 C101 1.591 . S
C1840 C462 1.550 . S
C1870 C404 1.225 . S
C1865 C138 1.182 . S
C1900 C403 0.317 . S
C1895 C88 0.388 . S
