# Generated by pormake.
# Topology gar, (4,6)-cn, num edge types: 1
# Building blocks:
#     Node 0, Type 0, BuildingBlock: KUFVIS_clean_sbu_0, # of connection points: 4
#     Node 1, Type 0, BuildingBlock: KUFVIS_clean_sbu_0, # of connection points: 4
#     Node 2, Type 0, BuildingBlock: KUFVIS_clean_sbu_0, # of connection points: 4
#     Node 3, Type 0, BuildingBlock: KUFVIS_clean_sbu_0, # of connection points: 4
#     Node 4, Type 0, BuildingBlock: KUFVIS_clean_sbu_0, # of connection points: 4
#     Node 5, Type 0, BuildingBlock: KUFVIS_clean_sbu_0, # of connection points: 4
#     Node 6, Type 0, BuildingBlock: KUFVIS_clean_sbu_0, # of connection points: 4
#     Node 7, Type 0, BuildingBlock: KUFVIS_clean_sbu_0, # of connection points: 4
#     Node 8, Type 0, BuildingBlock: KUFVIS_clean_sbu_0, # of connection points: 4
#     Node 9, Type 0, BuildingBlock: KUFVIS_clean_sbu_0, # of connection points: 4
#     Node 10, Type 0, BuildingBlock: KUFVIS_clean_sbu_0, # of connection points: 4
#     Node 11, Type 0, BuildingBlock: KUFVIS_clean_sbu_0, # of connection points: 4
#     Node 12, Type 0, BuildingBlock: KUFVIS_clean_sbu_0, # of connection points: 4
#     Node 13, Type 0, BuildingBlock: KUFVIS_clean_sbu_0, # of connection points: 4
#     Node 14, Type 0, BuildingBlock: KUFVIS_clean_sbu_0, # of connection points: 4
#     Node 15, Type 0, BuildingBlock: KUFVIS_clean_sbu_0, # of connection points: 4
#     Node 16, Type 0, BuildingBlock: KUFVIS_clean_sbu_0, # of connection points: 4
#     Node 17, Type 0, BuildingBlock: KUFVIS_clean_sbu_0, # of connection points: 4
#     Node 18, Type 0, BuildingBlock: KUFVIS_clean_sbu_0, # of connection points: 4
#     Node 19, Type 0, BuildingBlock: KUFVIS_clean_sbu_0, # of connection points: 4
#     Node 20, Type 0, BuildingBlock: KUFVIS_clean_sbu_0, # of connection points: 4
#     Node 21, Type 0, BuildingBlock: KUFVIS_clean_sbu_0, # of connection points: 4
#     Node 22, Type 0, BuildingBlock: KUFVIS_clean_sbu_0, # of connection points: 4
#     Node 23, Type 0, BuildingBlock: KUFVIS_clean_sbu_0, # of connection points: 4
#     Node 24, Type 1, BuildingBlock: BETDIP_clean_sbu_0, # of connection points: 6
#     Node 25, Type 1, BuildingBlock: BETDIP_clean_sbu_0, # of connection points: 6
#     Node 26, Type 1, BuildingBlock: BETDIP_clean_sbu_0, # of connection points: 6
#     Node 27, Type 1, BuildingBlock: BETDIP_clean_sbu_0, # of connection points: 6
#     Node 28, Type 1, BuildingBlock: BETDIP_clean_sbu_0, # of connection points: 6
#     Node 29, Type 1, BuildingBlock: BETDIP_clean_sbu_0, # of connection points: 6
#     Node 30, Type 1, BuildingBlock: BETDIP_clean_sbu_0, # of connection points: 6
#     Node 31, Type 1, BuildingBlock: BETDIP_clean_sbu_0, # of connection points: 6
#     Node 32, Type 1, BuildingBlock: BETDIP_clean_sbu_0, # of connection points: 6
#     Node 33, Type 1, BuildingBlock: BETDIP_clean_sbu_0, # of connection points: 6
#     Node 34, Type 1, BuildingBlock: BETDIP_clean_sbu_0, # of connection points: 6
#     Node 35, Type 1, BuildingBlock: BETDIP_clean_sbu_0, # of connection points: 6
#     Node 36, Type 1, BuildingBlock: BETDIP_clean_sbu_0, # of connection points: 6
#     Node 37, Type 1, BuildingBlock: BETDIP_clean_sbu_0, # of connection points: 6
#     Node 38, Type 1, BuildingBlock: BETDIP_clean_sbu_0, # of connection points: 6
#     Node 39, Type 1, BuildingBlock: BETDIP_clean_sbu_0, # of connection points: 6
#     Edge 40, Type (0, 1), BuildingBlock: XUDNAN_clean_linker_2, # of connection points: 2
#     Edge 41, Type (0, 1), BuildingBlock: XUDNAN_clean_linker_2, # of connection points: 2
#     Edge 42, Type (0, 1), BuildingBlock: XUDNAN_clean_linker_2, # of connection points: 2
#     Edge 43, Type (0, 1), BuildingBlock: XUDNAN_clean_linker_2, # of connection points: 2
#     Edge 44, Type (0, 1), BuildingBlock: XUDNAN_clean_linker_2, # of connection points: 2
#     Edge 45, Type (0, 1), BuildingBlock: XUDNAN_clean_linker_2, # of connection points: 2
#     Edge 46, Type (0, 1), BuildingBlock: XUDNAN_clean_linker_2, # of connection points: 2
#     Edge 47, Type (0, 1), BuildingBlock: XUDNAN_clean_linker_2, # of connection points: 2
#     Edge 48, Type (0, 1), BuildingBlock: XUDNAN_clean_linker_2, # of connection points: 2
#     Edge 49, Type (0, 1), BuildingBlock: XUDNAN_clean_linker_2, # of connection points: 2
#     Edge 50, Type (0, 1), BuildingBlock: XUDNAN_clean_linker_2, # of connection points: 2
#     Edge 51, Type (0, 1), BuildingBlock: XUDNAN_clean_linker_2, # of connection points: 2
#     Edge 52, Type (0, 1), BuildingBlock: XUDNAN_clean_linker_2, # of connection points: 2
#     Edge 53, Type (0, 1), BuildingBlock: XUDNAN_clean_linker_2, # of connection points: 2
#     Edge 54, Type (0, 1), BuildingBlock: XUDNAN_clean_linker_2, # of connection points: 2
#     Edge 55, Type (0, 1), BuildingBlock: XUDNAN_clean_linker_2, # of connection points: 2
#     Edge 56, Type (0, 1), BuildingBlock: XUDNAN_clean_linker_2, # of connection points: 2
#     Edge 57, Type (0, 1), BuildingBlock: XUDNAN_clean_linker_2, # of connection points: 2
#     Edge 58, Type (0, 1), BuildingBlock: XUDNAN_clean_linker_2, # of connection points: 2
#     Edge 59, Type (0, 1), BuildingBlock: XUDNAN_clean_linker_2, # of connection points: 2
#     Edge 60, Type (0, 1), BuildingBlock: XUDNAN_clean_linker_2, # of connection points: 2
#     Edge 61, Type (0, 1), BuildingBlock: XUDNAN_clean_linker_2, # of connection points: 2
#     Edge 62, Type (0, 1), BuildingBlock: XUDNAN_clean_linker_2, # of connection points: 2
#     Edge 63, Type (0, 1), BuildingBlock: XUDNAN_clean_linker_2, # of connection points: 2
#     Edge 64, Type (0, 1), BuildingBlock: XUDNAN_clean_linker_2, # of connection points: 2
#     Edge 65, Type (0, 1), BuildingBlock: XUDNAN_clean_linker_2, # of connection points: 2
#     Edge 66, Type (0, 1), BuildingBlock: XUDNAN_clean_linker_2, # of connection points: 2
#     Edge 67, Type (0, 1), BuildingBlock: XUDNAN_clean_linker_2, # of connection points: 2
#     Edge 68, Type (0, 1), BuildingBlock: XUDNAN_clean_linker_2, # of connection points: 2
#     Edge 69, Type (0, 1), BuildingBlock: XUDNAN_clean_linker_2, # of connection points: 2
#     Edge 70, Type (0, 1), BuildingBlock: XUDNAN_clean_linker_2, # of connection points: 2
#     Edge 71, Type (0, 1), BuildingBlock: XUDNAN_clean_linker_2, # of connection points: 2
#     Edge 72, Type (0, 1), BuildingBlock: XUDNAN_clean_linker_2, # of connection points: 2
#     Edge 73, Type (0, 1), BuildingBlock: XUDNAN_clean_linker_2, # of connection points: 2
#     Edge 74, Type (0, 1), BuildingBlock: XUDNAN_clean_linker_2, # of connection points: 2
#     Edge 75, Type (0, 1), BuildingBlock: XUDNAN_clean_linker_2, # of connection points: 2
#     Edge 76, Type (0, 1), BuildingBlock: XUDNAN_clean_linker_2, # of connection points: 2
#     Edge 77, Type (0, 1), BuildingBlock: XUDNAN_clean_linker_2, # of connection points: 2
#     Edge 78, Type (0, 1), BuildingBlock: XUDNAN_clean_linker_2, # of connection points: 2
#     Edge 79, Type (0, 1), BuildingBlock: XUDNAN_clean_linker_2, # of connection points: 2
#     Edge 80, Type (0, 1), BuildingBlock: XUDNAN_clean_linker_2, # of connection points: 2
#     Edge 81, Type (0, 1), BuildingBlock: XUDNAN_clean_linker_2, # of connection points: 2
#     Edge 82, Type (0, 1), BuildingBlock: XUDNAN_clean_linker_2, # of connection points: 2
#     Edge 83, Type (0, 1), BuildingBlock: XUDNAN_clean_linker_2, # of connection points: 2
#     Edge 84, Type (0, 1), BuildingBlock: XUDNAN_clean_linker_2, # of connection points: 2
#     Edge 85, Type (0, 1), BuildingBlock: XUDNAN_clean_linker_2, # of connection points: 2
#     Edge 86, Type (0, 1), BuildingBlock: XUDNAN_clean_linker_2, # of connection points: 2
#     Edge 87, Type (0, 1), BuildingBlock: XUDNAN_clean_linker_2, # of connection points: 2
#     Edge 88, Type (0, 1), BuildingBlock: XUDNAN_clean_linker_2, # of connection points: 2
#     Edge 89, Type (0, 1), BuildingBlock: XUDNAN_clean_linker_2, # of connection points: 2
#     Edge 90, Type (0, 1), BuildingBlock: XUDNAN_clean_linker_2, # of connection points: 2
#     Edge 91, Type (0, 1), BuildingBlock: XUDNAN_clean_linker_2, # of connection points: 2
#     Edge 92, Type (0, 1), BuildingBlock: XUDNAN_clean_linker_2, # of connection points: 2
#     Edge 93, Type (0, 1), BuildingBlock: XUDNAN_clean_linker_2, # of connection points: 2
#     Edge 94, Type (0, 1), BuildingBlock: XUDNAN_clean_linker_2, # of connection points: 2
#     Edge 95, Type (0, 1), BuildingBlock: XUDNAN_clean_linker_2, # of connection points: 2
#     Edge 96, Type (0, 1), BuildingBlock: XUDNAN_clean_linker_2, # of connection points: 2
#     Edge 97, Type (0, 1), BuildingBlock: XUDNAN_clean_linker_2, # of connection points: 2
#     Edge 98, Type (0, 1), BuildingBlock: XUDNAN_clean_linker_2, # of connection points: 2
#     Edge 99, Type (0, 1), BuildingBlock: XUDNAN_clean_linker_2, # of connection points: 2
#     Edge 100, Type (0, 1), BuildingBlock: XUDNAN_clean_linker_2, # of connection points: 2
#     Edge 101, Type (0, 1), BuildingBlock: XUDNAN_clean_linker_2, # of connection points: 2
#     Edge 102, Type (0, 1), BuildingBlock: XUDNAN_clean_linker_2, # of connection points: 2
#     Edge 103, Type (0, 1), BuildingBlock: XUDNAN_clean_linker_2, # of connection points: 2
#     Edge 104, Type (0, 1), BuildingBlock: XUDNAN_clean_linker_2, # of connection points: 2
#     Edge 105, Type (0, 1), BuildingBlock: XUDNAN_clean_linker_2, # of connection points: 2
#     Edge 106, Type (0, 1), BuildingBlock: XUDNAN_clean_linker_2, # of connection points: 2
#     Edge 107, Type (0, 1), BuildingBlock: XUDNAN_clean_linker_2, # of connection points: 2
#     Edge 108, Type (0, 1), BuildingBlock: XUDNAN_clean_linker_2, # of connection points: 2
#     Edge 109, Type (0, 1), BuildingBlock: XUDNAN_clean_linker_2, # of connection points: 2
#     Edge 110, Type (0, 1), BuildingBlock: XUDNAN_clean_linker_2, # of connection points: 2
#     Edge 111, Type (0, 1), BuildingBlock: XUDNAN_clean_linker_2, # of connection points: 2
#     Edge 112, Type (0, 1), BuildingBlock: XUDNAN_clean_linker_2, # of connection points: 2
#     Edge 113, Type (0, 1), BuildingBlock: XUDNAN_clean_linker_2, # of connection points: 2
#     Edge 114, Type (0, 1), BuildingBlock: XUDNAN_clean_linker_2, # of connection points: 2
#     Edge 115, Type (0, 1), BuildingBlock: XUDNAN_clean_linker_2, # of connection points: 2
#     Edge 116, Type (0, 1), BuildingBlock: XUDNAN_clean_linker_2, # of connection points: 2
#     Edge 117, Type (0, 1), BuildingBlock: XUDNAN_clean_linker_2, # of connection points: 2
#     Edge 118, Type (0, 1), BuildingBlock: XUDNAN_clean_linker_2, # of connection points: 2
#     Edge 119, Type (0, 1), BuildingBlock: XUDNAN_clean_linker_2, # of connection points: 2
#     Edge 120, Type (0, 1), BuildingBlock: XUDNAN_clean_linker_2, # of connection points: 2
#     Edge 121, Type (0, 1), BuildingBlock: XUDNAN_clean_linker_2, # of connection points: 2
#     Edge 122, Type (0, 1), BuildingBlock: XUDNAN_clean_linker_2, # of connection points: 2
#     Edge 123, Type (0, 1), BuildingBlock: XUDNAN_clean_linker_2, # of connection points: 2
#     Edge 124, Type (0, 1), BuildingBlock: XUDNAN_clean_linker_2, # of connection points: 2
#     Edge 125, Type (0, 1), BuildingBlock: XUDNAN_clean_linker_2, # of connection points: 2
#     Edge 126, Type (0, 1), BuildingBlock: XUDNAN_clean_linker_2, # of connection points: 2
#     Edge 127, Type (0, 1), BuildingBlock: XUDNAN_clean_linker_2, # of connection points: 2
#     Edge 128, Type (0, 1), BuildingBlock: XUDNAN_clean_linker_2, # of connection points: 2
#     Edge 129, Type (0, 1), BuildingBlock: XUDNAN_clean_linker_2, # of connection points: 2
#     Edge 130, Type (0, 1), BuildingBlock: XUDNAN_clean_linker_2, # of connection points: 2
#     Edge 131, Type (0, 1), BuildingBlock: XUDNAN_clean_linker_2, # of connection points: 2
#     Edge 132, Type (0, 1), BuildingBlock: XUDNAN_clean_linker_2, # of connection points: 2
#     Edge 133, Type (0, 1), BuildingBlock: XUDNAN_clean_linker_2, # of connection points: 2
#     Edge 134, Type (0, 1), BuildingBlock: XUDNAN_clean_linker_2, # of connection points: 2
#     Edge 135, Type (0, 1), BuildingBlock: XUDNAN_clean_linker_2, # of connection points: 2
# Relax obj value: 0.176
# Max RMSD: 0.301
# Mean RMSD: 0.147
data_MOF--net-gar--node1-KUFVIS_clean_sbu_0--node2-BETDIP_clean_sbu_0--edge1-XUDNAN_clean_linker_2
_symmetry_space_group_name_H-M    P1
_symmetry_Int_Tables_number       1
_symmetry_cell_setting            triclinic
loop_
_symmetry_equiv_pos_as_xyz
'x, y, z'
_cell_length_a     62.438209
_cell_length_b     56.091779
_cell_length_c     54.885337
_cell_angle_alpha  96.80004
_cell_angle_beta   98.231422
_cell_angle_gamma 100.96888
loop_
_atom_site_label
_atom_site_type_symbol
_atom_site_fract_x
_atom_site_fract_y
_atom_site_fract_z
_atom_type_partial_charge
Mn0 Mn 0.03313 0.3219 0.42218 0.0
Mn1 Mn 0.04527 0.36764 0.38854 0.0
C2 C 1.00529 0.33654 0.40108 0.0
C3 C 0.02617 0.28089 0.4262 0.0
C4 C 0.05034 0.37532 0.44484 0.0
O5 O 0.06488 0.32226 0.41877 0.0
O6 O 0.07092 0.35133 0.39395 0.0
C7 C 0.04783 0.33822 0.34097 0.0
N8 N 0.03872 0.35489 0.35381 0.0
C9 C 1.01479 0.35865 0.31662 0.0
C10 C 0.0241 0.34174 0.30296 0.0
C11 C 0.04067 0.33147 0.3152 0.0
C12 C 1.02281 0.36496 0.34221 0.0
H13 H 0.06038 0.33005 0.35033 0.0
C14 C 0.07701 0.33488 0.40609 0.0
O15 O 0.03335 0.29787 0.44542 0.0
O16 O 0.02359 0.28767 0.40434 0.0
N17 N 1.02156 0.38441 0.38171 0.0
C18 C 1.01284 0.39861 0.3979 0.0
C19 C 0.99535 0.40936 0.38881 0.0
C20 C 0.98697 0.40538 0.36319 0.0
C21 C 0.99616 0.39065 0.34688 0.0
C22 C 1.01374 0.38063 0.35698 0.0
H23 H 1.01889 0.40133 0.41765 0.0
O24 O 1.00178 0.32494 0.41971 0.0
O25 O 0.02494 0.33893 0.39518 0.0
O26 O 0.04297 0.35313 0.44705 0.0
O27 O 0.05206 0.38276 0.42394 0.0
C28 C 0.98814 0.38494 0.3211 0.0
C29 C 0.99746 0.36898 0.30597 0.0
H30 H 1.01845 0.33627 0.28312 0.0
H31 H 0.04781 0.31825 0.30482 0.0
H32 H 0.98817 0.42048 0.40156 0.0
H33 H 0.97327 0.41342 0.35629 0.0
H34 H 0.97453 0.39239 0.31277 0.0
H35 H 0.9909 0.36442 0.28624 0.0
Mn36 Mn 0.06892 0.7607 0.71885 0.0
Mn37 Mn 0.10233 0.78727 0.77292 0.0
C38 C 0.10407 0.75357 0.72747 0.0
C39 C 0.04419 0.72961 0.69144 0.0
C40 C 0.09635 0.81377 0.72932 0.0
O41 O 0.04655 0.77037 0.73952 0.0
O42 O 0.07153 0.79205 0.77205 0.0
C43 C 0.0799 0.75297 0.80305 0.0
N44 N 0.09875 0.76386 0.79549 0.0
C45 C 0.12073 0.74254 0.82131 0.0
C46 C 0.10157 0.73118 0.82943 0.0
C47 C 0.08106 0.73637 0.82019 0.0
C48 C 0.11852 0.75874 0.80401 0.0
H49 H 0.06409 0.75689 0.79606 0.0
C50 C 0.0517 0.78499 0.76008 0.0
O51 O 0.04673 0.75231 0.68776 0.0
O52 O 0.05414 0.72542 0.71249 0.0
N53 N 0.13271 0.78458 0.77732 0.0
C54 C 0.14981 0.79821 0.76883 0.0
C55 C 0.17161 0.79628 0.77745 0.0
C56 C 0.17565 0.78013 0.79439 0.0
C57 C 0.15788 0.76681 0.80341 0.0
C58 C 0.13656 0.77011 0.7948 0.0
H59 H 0.14688 0.81088 0.75598 0.0
O60 O 0.09421 0.75158 0.70467 0.0
O61 O 0.09327 0.75994 0.74495 0.0
O62 O 0.08079 0.79667 0.71706 0.0
O63 O 0.10726 0.81207 0.75033 0.0
C64 C 0.16053 0.75068 0.8209 0.0
C65 C 0.14194 0.73841 0.8297 0.0
H66 H 0.10241 0.71844 0.84274 0.0
H67 H 0.06618 0.72764 0.82633 0.0
H68 H 0.18534 0.80759 0.77147 0.0
H69 H 0.19248 0.77849 0.80074 0.0
H70 H 0.17679 0.74761 0.82772 0.0
H71 H 0.14416 0.72599 0.84309 0.0
Mn72 Mn 0.52195 0.81147 0.89903 0.0
Mn73 Mn 0.53405 0.85766 0.86584 0.0
C74 C 0.49391 0.82531 0.87724 0.0
C75 C 0.5162 0.77083 0.90484 0.0
C76 C 0.5379 0.86515 0.92198 0.0
O77 O 0.55398 0.81251 0.89614 0.0
O78 O 0.56004 0.84169 0.87146 0.0
C79 C 0.53757 0.82872 0.81836 0.0
N80 N 0.52812 0.84515 0.83105 0.0
C81 C 0.50475 0.84909 0.79351 0.0
C82 C 0.51444 0.83245 0.78001 0.0
C83 C 0.53089 0.82219 0.79251 0.0
C84 C 0.51229 0.85516 0.81921 0.0
H85 H 0.55001 0.82054 0.8279 0.0
C86 C 0.56614 0.82511 0.88345 0.0
O87 O 0.52275 0.78866 0.92326 0.0
O88 O 0.51332 0.77646 0.88243 0.0
N89 N 0.51014 0.87406 0.85863 0.0
C90 C 0.501 0.88798 0.87464 0.0
C91 C 0.48352 0.89862 0.86526 0.0
C92 C 0.47562 0.89486 0.83954 0.0
C93 C 0.48528 0.88048 0.82341 0.0
C94 C 0.50279 0.87052 0.83381 0.0
H95 H 0.50671 0.89058 0.89444 0.0
O96 O 0.49041 0.81363 0.89583 0.0
O97 O 0.51372 0.82822 0.87164 0.0
O98 O 0.53072 0.84279 0.92351 0.0
O99 O 0.54024 0.87302 0.90141 0.0
C100 C 0.47776 0.87504 0.79752 0.0
C101 C 0.4875 0.85937 0.78258 0.0
H102 H 0.50918 0.82717 0.7601 0.0
H103 H 0.53831 0.80917 0.78225 0.0
H104 H 0.47601 0.90948 0.87786 0.0
H105 H 0.46193 0.90281 0.83241 0.0
H106 H 0.46423 0.88245 0.78897 0.0
H107 H 0.48133 0.855 0.76276 0.0
Mn108 Mn 0.5734 0.2523 0.2226 0.0
Mn109 Mn 0.52771 0.25531 0.18344 0.0
C110 C 0.55601 0.21961 0.19252 0.0
C111 C 0.61133 0.25648 0.23038 0.0
C112 C 0.52822 0.25032 0.23793 0.0
O113 O 0.57534 0.28896 0.22486 0.0
O114 O 0.54489 0.28907 0.19699 0.0
C115 C 0.54747 0.27682 0.14298 0.0
N116 N 0.53427 0.25798 0.15078 0.0
C117 C 0.52555 0.23478 0.10954 0.0
C118 C 0.53904 0.25395 0.10108 0.0
C119 C 0.55 0.27507 0.11786 0.0
C120 C 0.52334 0.23774 0.1347 0.0
H121 H 0.55606 0.29302 0.15585 0.0
C122 C 0.56237 0.30004 0.21258 0.0
O123 O 0.60022 0.25682 0.24869 0.0
O124 O 0.60063 0.25492 0.20809 0.0
N125 N 0.51064 0.22332 0.16919 0.0
C126 C 0.49977 0.20571 0.18077 0.0
C127 C 0.48885 0.18292 0.16684 0.0
C128 C 0.48924 0.17846 0.14119 0.0
C129 C 0.50053 0.19686 0.12969 0.0
C130 C 0.51097 0.21929 0.14449 0.0
H131 H 0.49969 0.20893 0.20054 0.0
O132 O 0.56771 0.21588 0.21271 0.0
O133 O 0.5538 0.24196 0.19164 0.0
O134 O 0.54859 0.24954 0.24356 0.0
O135 O 0.51915 0.25224 0.2161 0.0
C136 C 0.50234 0.19358 0.10428 0.0
C137 C 0.51477 0.21257 0.09419 0.0
H138 H 0.54128 0.25253 0.08179 0.0
H139 H 0.56049 0.2899 0.11148 0.0
H140 H 0.4803 0.16874 0.17588 0.0
H141 H 0.48101 0.16075 0.13057 0.0
H142 H 0.4945 0.17641 0.0924 0.0
H143 H 0.51627 0.2097 0.07469 0.0
Mn144 Mn 0.09555 0.80773 0.17043 0.0
Mn145 Mn 0.05854 0.79721 0.11703 0.0
C146 C 0.08324 0.76793 0.14821 0.0
C147 C 0.1331 0.81578 0.19039 0.0
C148 C 0.04566 0.80594 0.16845 0.0
O149 O 0.09715 0.84257 0.16066 0.0
O150 O 0.07347 0.83254 0.12416 0.0
C151 C 0.08978 0.80686 0.08179 0.0
N152 N 0.0732 0.79145 0.08931 0.0
C153 C 0.07222 0.75977 0.05528 0.0
C154 C 0.08921 0.77535 0.04709 0.0
C155 C 0.09804 0.79898 0.06044 0.0
C156 C 0.06461 0.76867 0.07664 0.0
H157 H 0.09667 0.82501 0.09203 0.0
C158 C 0.08721 0.84834 0.14072 0.0
O159 O 0.11752 0.82004 0.20261 0.0
O160 O 0.127 0.80858 0.16671 0.0
N161 N 0.04306 0.76373 0.10769 0.0
C162 C 0.02743 0.75061 0.11866 0.0
C163 C 1.01704 0.72651 0.1077 0.0
C164 C 1.02277 0.71621 0.08558 0.0
C165 C 0.03897 0.73001 0.07472 0.0
C166 C 0.04854 0.75405 0.08627 0.0
H167 H 1.0229 0.75849 0.1356 0.0
O168 O 0.09153 0.77137 0.17169 0.0
O169 O 0.08226 0.78784 0.13858 0.0
O170 O 0.06494 0.80799 0.18135 0.0
O171 O 0.04195 0.80239 0.14462 0.0
C172 C 0.04614 0.72079 0.05299 0.0
C173 C 0.06281 0.73563 0.04332 0.0
H174 H 0.09569 0.7693 0.0307 0.0
H175 H 0.11121 0.81108 0.0543 0.0
H176 H 1.00461 0.71591 0.11626 0.0
H177 H 1.01466 0.69766 0.07711 0.0
H178 H 0.03912 0.70221 0.04372 0.0
H179 H 0.06837 0.72824 0.02677 0.0
Mn180 Mn 0.51566 0.76608 0.45296 0.0
Mn181 Mn 0.51603 0.80341 0.40846 0.0
C182 C 0.48202 0.7727 0.43248 0.0
C183 C 0.51647 0.72719 0.46596 0.0
C184 C 0.52598 0.8229 0.46377 0.0
O185 O 0.54731 0.76946 0.44472 0.0
O186 O 0.54446 0.79225 0.4139 0.0
C187 C 0.51676 0.76615 0.36581 0.0
N188 N 0.50711 0.78361 0.37649 0.0
C189 C 0.48091 0.78034 0.33899 0.0
C190 C 0.49056 0.76234 0.32755 0.0
C191 C 0.50844 0.75506 0.3411 0.0
C192 C 0.48944 0.79015 0.36391 0.0
H193 H 0.53077 0.76086 0.37603 0.0
C194 C 0.55534 0.78028 0.42773 0.0
O195 O 0.5234 0.74761 0.48122 0.0
O196 O 0.5094 0.7293 0.44303 0.0
N197 N 0.49003 0.81624 0.40041 0.0
C198 C 0.48369 0.83517 0.41347 0.0
C199 C 0.46598 0.84464 0.40256 0.0
C200 C 0.45557 0.83528 0.37798 0.0
C201 C 0.46316 0.81673 0.36444 0.0
C202 C 0.48053 0.8076 0.37648 0.0
H203 H 0.49199 0.84296 0.43214 0.0
O204 O 0.48327 0.76437 0.4536 0.0
O205 O 0.50037 0.77623 0.42338 0.0
O206 O 0.52291 0.80194 0.47131 0.0
O207 O 0.52481 0.8254 0.4408 0.0
C208 C 0.45468 0.80757 0.33919 0.0
C209 C 0.46347 0.78929 0.3265 0.0
H210 H 0.48444 0.75407 0.30834 0.0
H211 H 0.516 0.7412 0.3324 0.0
H212 H 0.46055 0.85933 0.41298 0.0
H213 H 0.44209 0.84282 0.36952 0.0
H214 H 0.44133 0.81438 0.32935 0.0
H215 H 0.45668 0.78225 0.30714 0.0
Mn216 Mn 0.59463 0.30771 0.67036 0.0
Mn217 Mn 0.55825 0.29674 0.61649 0.0
C218 C 0.58303 0.26777 0.64792 0.0
C219 C 0.63221 0.31635 0.69065 0.0
C220 C 0.54426 0.30388 0.66757 0.0
O221 O 0.5959 0.3427 0.66087 0.0
O222 O 0.57218 0.33236 0.6245 0.0
C223 C 0.59018 0.30858 0.58243 0.0
N224 N 0.57369 0.29238 0.58918 0.0
C225 C 0.57422 0.26173 0.55479 0.0
C226 C 0.59111 0.27814 0.54739 0.0
C227 C 0.59915 0.30164 0.5613 0.0
C228 C 0.56589 0.26969 0.57598 0.0
H229 H 0.59646 0.32664 0.59311 0.0
C230 C 0.58566 0.34839 0.64107 0.0
O231 O 0.61641 0.32004 0.70277 0.0
O232 O 0.62626 0.30929 0.66695 0.0
N233 N 0.54362 0.26308 0.60613 0.0
C234 C 0.52777 0.24919 0.6162 0.0
C235 C 0.51803 0.22514 0.60451 0.0
C236 C 0.52462 0.21568 0.58259 0.0
C237 C 0.54094 0.23031 0.57257 0.0
C238 C 0.54983 0.25426 0.58482 0.0
H239 H 0.52258 0.2564 0.63299 0.0
O240 O 0.59111 0.2713 0.67146 0.0
O241 O 0.58196 0.28768 0.63829 0.0
O242 O 0.56359 0.30713 0.68084 0.0
O243 O 0.54105 0.30031 0.64373 0.0
C244 C 0.54885 0.22201 0.55102 0.0
C245 C 0.56554 0.23768 0.54218 0.0
H246 H 0.59813 0.27282 0.53115 0.0
H247 H 0.61225 0.31437 0.55577 0.0
H248 H 0.50546 0.21393 0.61238 0.0
H249 H 0.51706 0.19714 0.57359 0.0
H250 H 0.54237 0.20352 0.54123 0.0
H251 H 0.57166 0.231 0.52575 0.0
Mn252 Mn 1.01494 0.26833 0.95629 0.0
Mn253 Mn 1.01589 0.30095 0.90792 0.0
C254 C 0.98156 0.27057 0.93117 0.0
C255 C 1.01779 0.23316 0.97605 0.0
C256 C 1.02179 0.32481 0.96165 0.0
O257 O 0.04759 0.2731 0.95078 0.0
O258 O 0.04517 0.29277 0.91741 0.0
C259 C 1.02131 0.26156 0.86978 0.0
N260 N 1.00994 0.27872 0.87739 0.0
C261 C 0.98439 0.26909 0.83864 0.0
C262 C 0.99589 0.25139 0.83033 0.0
C263 C 1.01438 0.24755 0.84601 0.0
C264 C 0.992 0.28237 0.86256 0.0
H265 H 0.03556 0.25857 0.88176 0.0
C266 C 0.05611 0.28287 0.93343 0.0
O267 O 1.02213 0.25528 0.98799 0.0
O268 O 1.01183 0.23106 0.95203 0.0
N269 N 0.98887 0.31035 0.89605 0.0
C270 C 0.97965 0.32815 0.90688 0.0
C271 C 0.96135 0.33469 0.89342 0.0
C272 C 0.95264 0.32283 0.86902 0.0
C273 C 0.96251 0.30475 0.85819 0.0
C274 C 0.98105 0.29941 0.8723 0.0
H275 H 0.98637 0.33751 0.92552 0.0
O276 O 0.98169 0.26456 0.95332 0.0
O277 O 1.00079 0.27421 0.92399 0.0
O278 O 1.01918 0.30475 0.9707 0.0
O279 O 1.02174 0.3257 0.93849 0.0
C280 C 0.95472 0.29186 0.83392 0.0
C281 C 0.96557 0.27392 0.82421 0.0
H282 H 0.99061 0.24057 0.812 0.0
H283 H 1.0233 0.23387 0.83977 0.0
H284 H 0.95403 0.34891 0.90182 0.0
H285 H 0.93842 0.32781 0.85874 0.0
H286 H 0.9403 0.29546 0.82265 0.0
H287 H 0.95929 0.26394 0.80564 0.0
Mn288 Mn 0.43183 0.06245 0.29526 0.0
Mn289 Mn 0.3929 0.05496 0.33366 0.0
C290 C 0.41193 1.02102 0.30097 0.0
C291 C 0.44974 0.06458 0.25567 0.0
C292 C 0.44274 0.06714 0.35505 0.0
O293 O 0.42038 0.09816 0.29784 0.0
O294 O 0.39622 0.08902 0.32374 0.0
C295 C 0.35567 0.05462 0.29341 0.0
N296 N 0.36421 0.04507 0.31337 0.0
C297 C 0.33132 1.01332 0.30826 0.0
C298 C 0.32155 0.024 0.28889 0.0
C299 C 0.33393 0.0445 0.28114 0.0
C300 C 0.35298 0.0244 0.3199 0.0
H301 H 0.36558 0.06946 0.28654 0.0
C302 C 0.40524 0.10432 0.3105 0.0
O303 O 0.4594 0.07323 0.27825 0.0
O304 O 0.42869 0.05638 0.25521 0.0
N305 N 0.38623 0.02371 0.34487 0.0
C306 C 0.39905 1.01372 0.36137 0.0
C307 C 0.38975 0.9921 0.36989 0.0
C308 C 0.3674 0.98091 0.36133 0.0
C309 C 0.35458 0.99133 0.34419 0.0
C310 C 0.36458 1.01325 0.33686 0.0
H311 H 0.41622 1.02216 0.3681 0.0
O312 O 0.43121 0.02476 0.29416 0.0
O313 O 0.40499 0.04141 0.30459 0.0
O314 O 0.44839 0.06878 0.33338 0.0
O315 O 0.42226 0.06351 0.35732 0.0
C316 C 0.33238 0.98059 0.33376 0.0
C317 C 0.32081 0.99147 0.31565 0.0
H318 H 0.30489 1.01604 0.2792 0.0
H319 H 0.32688 0.05221 0.26549 0.0
H320 H 0.3998 0.98409 0.38304 0.0
H321 H 0.36027 0.96418 0.36786 0.0
H322 H 0.32426 0.96358 0.33902 0.0
H323 H 0.30402 0.98256 0.30709 0.0
Mn324 Mn 0.27155 0.18358 0.54704 0.0
Mn325 Mn 0.26159 0.14049 0.49627 0.0
C326 C 0.23508 0.16345 0.5302 0.0
C327 C 0.27812 0.19537 0.59068 0.0
C328 C 0.2749 0.19524 0.49373 0.0
O329 O 0.3016 0.17383 0.54681 0.0
O330 O 0.29291 0.14385 0.51356 0.0
C331 C 0.26503 0.09603 0.5195 0.0
N332 N 0.25287 0.10854 0.50509 0.0
C333 C 0.22212 0.07391 0.49513 0.0
C334 C 0.23438 0.06059 0.50969 0.0
C335 C 0.25587 0.07177 0.52207 0.0
C336 C 0.23208 0.09805 0.49335 0.0
H337 H 0.28165 0.10443 0.52882 0.0
C338 C 0.30663 0.15687 0.53229 0.0
O339 O 0.28402 0.21088 0.57585 0.0
O340 O 0.26943 0.17299 0.58028 0.0
N341 N 0.23191 0.13529 0.4787 0.0
C342 C 0.22201 0.15094 0.46614 0.0
C343 C 0.19999 0.14305 0.45389 0.0
C344 C 0.18847 0.1191 0.45448 0.0
C345 C 0.19904 0.10329 0.46744 0.0
C346 C 0.22092 0.11227 0.47954 0.0
H347 H 0.2308 0.16936 0.46558 0.0
O348 O 0.23939 0.1852 0.5432 0.0
O349 O 0.25243 0.15458 0.52668 0.0
O350 O 0.27581 0.20217 0.517 0.0
O351 O 0.27 0.17258 0.48417 0.0
C352 C 0.18873 0.07899 0.46885 0.0
C353 C 0.20037 0.06421 0.48241 0.0
H354 H 0.22737 0.04186 0.51169 0.0
H355 H 0.26539 0.06166 0.53345 0.0
H356 H 0.19194 0.15538 0.44395 0.0
H357 H 0.17151 0.11305 0.44493 0.0
H358 H 0.17186 0.07147 0.45956 0.0
H359 H 0.19227 0.04554 0.48334 0.0
Mn360 Mn 0.15911 0.07613 0.83282 0.0
Mn361 Mn 0.205 0.08089 0.8754 0.0
C362 C 0.18396 0.11371 0.84482 0.0
C363 C 0.13988 0.06759 0.79161 0.0
C364 C 0.15882 0.07503 0.88842 0.0
O365 O 0.16248 0.04045 0.83299 0.0
O366 O 0.19598 0.04685 0.85747 0.0
C367 C 0.238 0.07246 0.84344 0.0
N368 N 0.23118 0.08726 0.86092 0.0
C369 C 0.26516 0.11743 0.86635 0.0
C370 C 0.27261 0.10245 0.84848 0.0
C371 C 0.25889 0.07996 0.83685 0.0
C372 C 0.24411 0.10911 0.87196 0.0
H373 H 0.22765 0.05497 0.83475 0.0
C374 C 0.17941 0.03287 0.84267 0.0
O375 O 0.12976 0.06608 0.81059 0.0
O376 O 0.16136 0.07342 0.7964 0.0
N377 N 0.21527 0.11336 0.89356 0.0
C378 C 0.20563 0.12566 0.91038 0.0
C379 C 0.21689 0.14889 0.92305 0.0
C380 C 0.23805 0.15908 0.91856 0.0
C381 C 0.24776 0.14593 0.90142 0.0
C382 C 0.23568 0.12294 0.8892 0.0
H383 H 0.18946 0.11787 0.9141 0.0
O384 O 0.16358 0.11282 0.83498 0.0
O385 O 0.18905 0.09268 0.84737 0.0
O386 O 0.14909 0.07744 0.86705 0.0
O387 O 0.17933 0.07459 0.89304 0.0
C388 C 0.26901 0.15465 0.8961 0.0
C389 C 0.2778 0.1403 0.87879 0.0
H390 H 0.28875 0.10813 0.84344 0.0
H391 H 0.2645 0.06834 0.823 0.0
H392 H 0.2093 0.15889 0.93631 0.0
H393 H 0.2467 0.17698 0.9284 0.0
H394 H 0.27878 0.17234 0.90529 0.0
H395 H 0.29421 0.14716 0.87496 0.0
Mn396 Mn 0.25515 0.91808 1.00736 0.0
Mn397 Mn 0.23762 0.95568 0.96881 0.0
C398 C 0.28035 0.94683 0.99399 0.0
C399 C 0.2645 0.90778 0.04658 0.0
C400 C 0.23918 0.90311 0.95136 0.0
O401 O 0.22312 0.91497 1.01116 0.0
O402 O 0.21314 0.94115 0.98567 0.0
C403 C 0.23037 0.99395 1.00697 0.0
N404 N 0.24065 0.98741 0.98771 0.0
C405 C 0.26104 0.02887 0.9904 0.0
C406 C 0.25055 0.03608 1.01015 0.0
C407 C 0.23516 1.01853 0.01847 0.0
C408 C 0.25548 1.00415 0.97954 0.0
H409 H 0.21864 0.98053 1.01359 0.0
C410 C 0.20909 0.92626 1.00127 0.0
O411 O 0.25819 0.89117 0.02697 0.0
O412 O 0.26487 0.93046 0.0435 0.0
N413 N 0.25991 0.97133 0.9519 0.0
C414 C 0.26897 0.9613 0.93303 0.0
C415 C 0.28495 0.97636 0.92287 0.0
C416 C 0.29138 1.00157 0.9321 0.0
C417 C 0.28159 1.01153 0.95125 0.0
C418 C 0.26557 0.99567 0.96048 0.0
H419 H 0.26418 0.94193 0.92591 0.0
O420 O 0.28611 0.92763 1.0018 0.0
O421 O 0.26001 0.94882 0.99448 0.0
O422 O 0.24647 0.89845 0.97273 0.0
O423 O 0.23467 0.92377 0.94761 0.0
C424 C 0.2873 0.03653 0.96176 0.0
C425 C 0.27705 0.04519 0.98133 0.0
H426 H 0.25431 0.05499 0.01917 0.0
H427 H 0.22707 0.02392 0.03377 0.0
H428 H 0.2924 0.96854 0.90806 0.0
H429 H 0.30389 1.01307 0.92439 0.0
H430 H 0.29969 0.04921 0.95507 0.0
H431 H 0.28171 0.06441 0.98939 0.0
Mn432 Mn 0.34252 0.40799 0.09246 0.0
Mn433 Mn 0.34716 0.45687 0.06084 0.0
C434 C 0.37778 0.43156 0.09043 0.0
C435 C 0.33713 0.38702 0.12732 0.0
C436 C 0.33849 0.40422 0.03525 0.0
O437 O 0.3107 0.41505 0.08823 0.0
O438 O 0.31701 0.44816 0.06883 0.0
C439 C 0.34246 0.49385 0.10188 0.0
N440 N 0.35412 0.48641 0.08431 0.0
C441 C 0.38188 0.52382 0.09541 0.0
C442 C 0.37013 0.53193 0.11356 0.0
C443 C 0.35037 0.51683 0.11686 0.0
C444 C 0.37327 0.50065 0.0812 0.0
H445 H 0.32724 0.48233 0.10445 0.0
C446 C 0.30425 0.43284 0.07861 0.0
O447 O 0.33243 0.37625 0.10448 0.0
O448 O 0.34459 0.41068 0.13037 0.0
N449 N 0.37531 0.46817 0.05163 0.0
C450 C 0.38423 0.45797 0.03275 0.0
C451 C 0.40345 0.47119 0.02623 0.0
C452 C 0.41349 0.49466 0.03932 0.0
C453 C 0.40384 0.50494 0.0584 0.0
C454 C 0.38428 0.49118 0.06357 0.0
H455 H 0.37653 0.44006 0.02242 0.0
O456 O 0.37554 0.40938 0.09579 0.0
O457 O 0.35953 0.43971 0.08733 0.0
O458 O 0.3388 0.39478 0.05528 0.0
O459 O 0.34057 0.42728 0.03489 0.0
C460 C 0.41272 0.5284 0.07231 0.0
C461 C 0.40183 0.53776 0.09094 0.0
H462 H 0.37614 0.54968 0.1251 0.0
H463 H 0.34123 0.52293 0.13086 0.0
H464 H 0.41045 0.46333 1.01105 0.0
H465 H 0.42846 0.50471 0.03439 0.0
H466 H 0.42795 0.53936 0.06888 0.0
H467 H 0.4089 0.55574 0.10163 0.0
Mn468 Mn 0.86622 0.17114 0.12061 0.0
Mn469 Mn 0.83028 0.13201 0.07473 0.0
C470 C 0.82886 0.16965 0.11734 0.0
C471 C 0.88542 0.18264 0.16066 0.0
C472 C 0.85561 0.18094 0.06706 0.0
O473 O 0.88559 0.14873 0.10873 0.0
O474 O 0.86044 0.12543 0.07739 0.0
C475 C 0.83072 0.08746 0.09858 0.0
N476 N 0.81925 0.1032 0.08828 0.0
C477 C 0.78442 0.07722 0.09055 0.0
C478 C 0.79584 0.06074 0.10123 0.0
C479 C 0.8191 0.066 0.10547 0.0
C480 C 0.79691 0.09876 0.08494 0.0
H481 H 0.84858 0.09117 0.10133 0.0
C482 C 0.88008 0.13202 0.08981 0.0
O483 O 0.89171 0.19364 0.14256 0.0
O484 O 0.8701 0.16271 0.15465 0.0
N485 N 0.8002 0.13564 0.06892 0.0
C486 C 0.79166 0.15172 0.05559 0.0
C487 C 0.76861 0.14899 0.04963 0.0
C488 C 0.75454 0.12912 0.05638 0.0
C489 C 0.76369 0.11185 0.06856 0.0
C490 C 0.7868 0.11586 0.07457 0.0
H491 H 0.80238 0.16662 0.04967 0.0
O492 O 0.84303 0.18882 0.12924 0.0
O493 O 0.83673 0.15126 0.1082 0.0
O494 O 0.86697 0.18648 0.0889 0.0
O495 O 0.84067 0.16138 0.05983 0.0
C496 C 0.75079 0.0902 0.07382 0.0
C497 C 0.76115 0.07284 0.08471 0.0
H498 H 0.78693 0.04391 0.10608 0.0
H499 H 0.82804 0.05334 0.11365 0.0
H500 H 0.7617 0.16203 0.03959 0.0
H501 H 0.73677 0.12689 0.05146 0.0
H502 H 0.73289 0.08659 0.06933 0.0
H503 H 0.75106 0.05623 0.08862 0.0
Mn504 Mn 0.18123 0.53349 0.32117 0.0
Mn505 Mn 0.22249 0.54902 0.37139 0.0
C506 C 0.20232 0.57629 0.33358 0.0
C507 C 0.16412 0.52627 0.27566 0.0
C508 C 0.17329 0.5375 0.37863 0.0
O509 O 0.19348 0.4987 0.32352 0.0
O510 O 0.2198 0.51295 0.35741 0.0
C511 C 0.26037 0.54364 0.34556 0.0
N512 N 0.25044 0.55766 0.36055 0.0
C513 C 0.28044 0.59264 0.36397 0.0
C514 C 0.29117 0.57835 0.34911 0.0
C515 C 0.28104 0.55378 0.33977 0.0
C516 C 0.25993 0.58147 0.36933 0.0
H517 H 0.25251 0.52496 0.33775 0.0
C518 C 0.21024 0.49534 0.33943 0.0
O519 O 0.1533 0.52048 0.29328 0.0
O520 O 0.18521 0.53366 0.28392 0.0
N521 N 0.22771 0.58299 0.38565 0.0
C522 C 0.21442 0.59501 0.3979 0.0
C523 C 0.22179 0.62003 0.40753 0.0
C524 C 0.2427 0.63251 0.40442 0.0
C525 C 0.25601 0.6199 0.39158 0.0
C526 C 0.24793 0.59485 0.38267 0.0
H527 H 0.19826 0.58568 0.40032 0.0
O528 O 0.18197 0.57098 0.32225 0.0
O529 O 0.20896 0.55656 0.33895 0.0
O530 O 0.16619 0.53297 0.35472 0.0
O531 O 0.19425 0.54205 0.38657 0.0
C532 C 0.27682 0.63134 0.38688 0.0
C533 C 0.289 0.61773 0.37305 0.0
H534 H 0.30702 0.58617 0.34439 0.0
H535 H 0.28905 0.54274 0.32794 0.0
H536 H 0.21136 0.62969 0.41731 0.0
H537 H 0.24829 0.65182 0.41184 0.0
H538 H 0.28344 0.65069 0.3935 0.0
H539 H 0.3048 0.62683 0.36917 0.0
Mn540 Mn 0.8417 0.90452 0.59362 0.0
Mn541 Mn 0.84598 0.94792 0.55521 0.0
C542 C 0.87689 0.9236 0.58661 0.0
C543 C 0.83806 0.89132 0.63284 0.0
C544 C 0.83328 0.89326 0.53616 0.0
O545 O 0.81085 0.91372 0.59007 0.0
O546 O 0.81694 0.94385 0.56678 0.0
C547 C 0.84661 0.99092 0.5924 0.0
N548 N 0.85618 0.97964 0.57479 0.0
C549 C 0.88435 1.01599 0.5771 0.0
C550 C 0.87483 0.02803 0.59527 0.0
C551 C 0.85598 1.01535 0.60311 0.0
C552 C 0.87472 0.99139 0.56772 0.0
H553 H 0.83187 0.98138 0.59811 0.0
C554 C 0.80461 0.93081 0.57909 0.0
O555 O 0.83136 0.87661 0.61195 0.0
O556 O 0.84658 0.91397 0.63105 0.0
N557 N 0.87287 0.95468 0.54199 0.0
C558 C 0.87924 0.941 0.52317 0.0
C559 C 0.89791 0.95097 0.51327 0.0
C560 C 0.90929 0.97525 0.52205 0.0
C561 C 0.90178 0.98939 0.54052 0.0
C562 C 0.88343 0.97827 0.55017 0.0
H563 H 0.87022 0.92256 0.5158 0.0
O564 O 0.87381 0.90292 0.59533 0.0
O565 O 0.85944 0.93323 0.5831 0.0
O566 O 0.83501 0.88623 0.55755 0.0
O567 O 0.83594 0.91583 0.53321 0.0
C568 C 0.91132 1.01434 0.54913 0.0
C569 C 0.90275 0.02759 0.56757 0.0
H570 H 0.88177 0.04702 0.60322 0.0
H571 H 0.84851 0.02452 0.61709 0.0
H572 H 0.90333 0.94007 0.49867 0.0
H573 H 0.9235 0.98299 0.51414 0.0
H574 H 0.92541 0.0235 0.54185 0.0
H575 H 0.91041 0.04669 0.57425 0.0
Mn576 Mn 0.95708 1.0099 0.28243 0.0
Mn577 Mn 0.91941 1.01193 0.32104 0.0
C578 C 0.93469 0.97337 0.28835 0.0
C579 C 0.96754 1.01354 0.24316 0.0
C580 C 0.96884 1.01888 0.33939 0.0
O581 O 0.95474 0.04609 0.28738 0.0
O582 O 0.92548 0.0432 0.30746 0.0
C583 C 0.8802 1.01471 0.28506 0.0
N584 N 0.88991 1.00333 0.30284 0.0
C585 C 0.85509 0.97712 0.30462 0.0
C586 C 0.84467 0.98858 0.28635 0.0
C587 C 0.85733 1.00728 0.27632 0.0
C588 C 0.87805 0.98466 0.31187 0.0
H589 H 0.88979 0.02951 0.27781 0.0
C590 C 0.93973 0.05507 0.29636 0.0
O591 O 0.98199 1.01793 0.26348 0.0
O592 O 0.94693 1.00696 0.24552 0.0
N593 N 0.91147 0.98302 0.33592 0.0
C594 C 0.92369 0.97489 0.35461 0.0
C595 C 0.91357 0.95575 0.36617 0.0
C596 C 0.8908 0.94583 0.35915 0.0
C597 C 0.87834 0.95529 0.34077 0.0
C598 C 0.88944 0.97392 0.32942 0.0
H599 H 0.94106 0.98288 0.36068 0.0
O600 O 0.9528 0.97317 0.27935 0.0
O601 O 0.92985 0.9948 0.29303 0.0
O602 O 0.97432 1.01372 0.31813 0.0
O603 O 0.94918 1.02062 0.34209 0.0
C604 C 0.85519 0.94764 0.33401 0.0
C605 C 0.84354 0.95882 0.31622 0.0
H606 H 0.82696 0.98324 0.27996 0.0
H607 H 0.84943 1.01625 0.26224 0.0
H608 H 0.92324 0.9489 0.3807 0.0
H609 H 0.88299 0.93132 0.36836 0.0
H610 H 0.84614 0.93339 0.3426 0.0
H611 H 0.82572 0.95286 0.31126 0.0
Mn612 Mn 0.36152 0.67356 0.60572 0.0
Mn613 Mn 0.32483 0.64371 0.54955 0.0
C614 C 0.32772 0.68589 0.59374 0.0
C615 C 0.36683 0.6691 0.64744 0.0
C616 C 0.36819 0.68129 0.5622 0.0
O617 O 0.36989 0.64077 0.59366 0.0
O618 O 0.33793 0.61967 0.56784 0.0
C619 C 0.30305 0.59392 0.52376 0.0
N620 N 0.30591 0.61873 0.52501 0.0
C621 C 0.27953 0.61448 0.48743 0.0
C622 C 0.27637 0.58887 0.48569 0.0
C623 C 0.28816 0.57856 0.50397 0.0
C624 C 0.29455 0.62889 0.50764 0.0
H625 H 0.31205 0.58595 0.53777 0.0
C626 C 0.35712 0.62089 0.58114 0.0
O627 O 0.38269 0.68082 0.63769 0.0
O628 O 0.34874 0.65823 0.63243 0.0
N629 N 0.31304 0.66666 0.53075 0.0
C630 C 0.31819 0.69173 0.53454 0.0
C631 C 0.30774 0.70472 0.5178 0.0
C632 C 0.29236 0.69194 0.49706 0.0
C633 C 0.28751 0.66623 0.49324 0.0
C634 C 0.29835 0.65419 0.51062 0.0
H635 H 0.33035 0.70186 0.55006 0.0
O636 O 0.34274 0.69929 0.61153 0.0
O637 O 0.33458 0.66852 0.581 0.0
O638 O 0.3801 0.69244 0.58222 0.0
O639 O 0.35067 0.6677 0.56619 0.0
C640 C 0.27238 0.65209 0.47275 0.0
C641 C 0.26837 0.62624 0.46987 0.0
H642 H 0.26492 0.57697 0.47042 0.0
H643 H 0.28579 0.55881 0.5028 0.0
H644 H 0.31157 0.72458 0.5208 0.0
H645 H 0.28444 0.70207 0.48411 0.0
H646 H 0.26376 0.66094 0.45909 0.0
H647 H 0.25668 0.61556 0.45406 0.0
Mn648 Mn 0.45345 0.50677 0.78016 0.0
Mn649 Mn 0.41505 0.51144 0.8173 0.0
C650 C 0.42785 0.47193 0.78447 0.0
C651 C 0.46468 0.50917 0.74107 0.0
C652 C 0.4632 0.51306 0.83768 0.0
O653 O 0.45346 0.5435 0.78459 0.0
O654 O 0.42669 0.54379 0.80807 0.0
C655 C 0.38092 0.52322 0.78003 0.0
N656 N 0.38694 0.5087 0.79689 0.0
C657 C 0.35006 0.48388 0.78982 0.0
C658 C 0.34343 0.49862 0.77245 0.0
C659 C 0.35895 0.51832 0.76748 0.0
C660 C 0.3722 0.48959 0.80165 0.0
H661 H 0.39279 0.5384 0.77618 0.0
C662 C 0.441 0.55452 0.79627 0.0
O663 O 0.47898 0.51246 0.76147 0.0
O664 O 0.44398 0.50427 0.74333 0.0
N665 N 0.40197 0.48146 0.82766 0.0
C666 C 0.41114 0.4688 0.84461 0.0
C667 C 0.39772 0.44885 0.85205 0.0
C668 C 0.37505 0.44213 0.84199 0.0
C669 C 0.36602 0.45531 0.82448 0.0
C670 C 0.3801 0.47534 0.81817 0.0
H671 H 0.4285 0.4741 0.85264 0.0
O672 O 0.4463 0.46978 0.77698 0.0
O673 O 0.42507 0.49425 0.7892 0.0
O674 O 0.46956 0.5099 0.81655 0.0
O675 O 0.4433 0.51411 0.83992 0.0
C676 C 0.34359 0.44941 0.8131 0.0
C677 C 0.33564 0.4636 0.79565 0.0
H678 H 0.3265 0.4949 0.76274 0.0
H679 H 0.35398 0.52973 0.75405 0.0
H680 H 0.40481 0.43873 0.86558 0.0
H681 H 0.3647 0.4268 0.84784 0.0
H682 H 0.33236 0.43388 0.81746 0.0
H683 H 0.31843 0.45872 0.7868 0.0
Mn684 Mn 0.67802 0.02897 0.81694 0.0
Mn685 Mn 0.72057 0.04089 0.86565 0.0
C686 C 0.70032 0.07097 0.82991 0.0
C687 C 0.65788 1.0214 0.77259 0.0
C688 C 0.67175 0.03088 0.87453 0.0
O689 O 0.68851 0.9936 0.81805 0.0
O690 O 0.71658 1.00458 0.85076 0.0
C691 C 0.75752 0.03403 0.83881 0.0
N692 N 0.74819 0.04863 0.85395 0.0
C693 C 0.7789 0.08272 0.8569 0.0
C694 C 0.78887 0.06794 0.84155 0.0
C695 C 0.77811 0.04351 0.83246 0.0
C696 C 0.75844 0.0722 0.86282 0.0
H697 H 0.7493 1.01531 0.83148 0.0
C698 C 0.70512 0.98825 0.83258 0.0
O699 O 0.64902 1.01571 0.79157 0.0
O700 O 0.67918 0.0295 0.77863 0.0
N701 N 0.72719 0.07466 0.88081 0.0
C702 C 0.7147 0.08712 0.89388 0.0
C703 C 0.72289 0.11201 0.90365 0.0
C704 C 0.74376 0.1239 0.89982 0.0
C705 C 0.75622 0.11084 0.88609 0.0
C706 C 0.74734 0.08596 0.87705 0.0
H707 H 0.69856 0.07824 0.8968 0.0
O708 O 0.67971 0.06659 0.81935 0.0
O709 O 0.70666 0.05062 0.8341 0.0
O710 O 0.66426 0.02791 0.85087 0.0
O711 O 0.69276 0.03445 0.88193 0.0
C712 C 0.77691 0.12168 0.88063 0.0
C713 C 0.78825 0.10763 0.86605 0.0
H714 H 0.80467 0.07525 0.83641 0.0
H715 H 0.78563 0.03204 0.82045 0.0
H716 H 0.71309 0.12203 0.91405 0.0
H717 H 0.74999 0.14311 0.90737 0.0
H718 H 0.78412 0.14091 0.88728 0.0
H719 H 0.80401 0.11626 0.8617 0.0
Mn720 Mn 0.77224 0.67794 0.04679 0.0
Mn721 Mn 0.76116 0.6279 1.00279 0.0
C722 C 0.73631 0.65262 0.03668 0.0
C723 C 0.78171 0.69579 0.08918 0.0
C724 C 0.76857 0.6803 0.99031 0.0
O725 O 0.80324 0.67058 0.04504 0.0
O726 O 0.7935 0.63626 1.01628 0.0
C727 C 0.77161 0.59065 0.03398 0.0
N728 N 0.75685 0.59872 1.01788 0.0
C729 C 0.72831 0.56339 0.01852 0.0
C730 C 0.74324 0.55466 0.03503 0.0
C731 C 0.76497 0.56837 0.0428 0.0
C732 C 0.73591 0.58564 1.01022 0.0
H733 H 0.7883 0.60119 0.04013 0.0
C734 C 0.80792 0.65238 0.03187 0.0
O735 O 0.78446 0.70901 0.07154 0.0
O736 O 0.7746 0.67241 0.08226 0.0
N737 N 0.73037 0.61797 0.98882 0.0
C738 C 0.71762 0.62978 0.97426 0.0
C739 C 0.6953 0.61875 0.96526 0.0
C740 C 0.68633 0.59576 0.97138 0.0
C741 C 0.69968 0.58413 0.98672 0.0
C742 C 0.72189 0.59583 0.99482 0.0
H743 H 0.72441 0.64749 0.96955 0.0
O744 O 0.73915 0.67557 0.04608 0.0
O745 O 0.75437 0.64601 0.03228 0.0
O746 O 0.77142 0.69142 1.01271 0.0
O747 O 0.76482 0.65688 0.98519 0.0
C748 C 0.69174 0.56156 0.99457 0.0
C749 C 0.70604 0.55121 1.01049 0.0
H750 H 0.73813 0.53759 0.04204 0.0
H751 H 0.77655 0.56181 0.05564 0.0
H752 H 0.68504 0.62794 0.95362 0.0
H753 H 0.66914 0.58728 0.96429 0.0
H754 H 0.67459 0.55217 0.98874 0.0
H755 H 0.69966 0.53404 1.01669 0.0
Mn756 Mn 0.93154 0.56047 0.79847 0.0
Mn757 Mn 0.88959 0.55562 0.83297 0.0
C758 C 0.90967 0.51963 0.80298 0.0
C759 C 0.94791 0.56218 0.7581 0.0
C760 C 0.93902 0.56563 0.85807 0.0
O761 O 0.92211 0.59694 0.80093 0.0
O762 O 0.89418 0.58953 0.82258 0.0
C763 C 0.85293 0.55792 0.79306 0.0
N764 N 0.86155 0.54622 0.81129 0.0
C765 C 0.82857 0.51432 0.80374 0.0
C766 C 0.81924 0.52622 0.78515 0.0
C767 C 0.83153 0.54805 0.77971 0.0
C768 C 0.85 0.525 0.8164 0.0
H769 H 0.86231 0.5746 0.78863 0.0
C770 C 0.90573 0.60403 0.8106 0.0
O771 O 0.95924 0.56959 0.78029 0.0
O772 O 0.92696 0.55537 0.75912 0.0
N773 N 0.88172 0.52461 0.84431 0.0
C774 C 0.89331 0.51488 0.86221 0.0
C775 C 0.88328 0.49305 0.86983 0.0
C776 C 0.86145 0.48146 0.85906 0.0
C777 C 0.84987 0.49172 0.84067 0.0
C778 C 0.86056 0.51374 0.83412 0.0
H779 H 0.91001 0.52373 0.87079 0.0
O780 O 0.92926 0.52261 0.79694 0.0
O781 O 0.90329 0.54056 0.80601 0.0
O782 O 0.94688 0.56543 0.8374 0.0
O783 O 0.91815 0.56419 0.85778 0.0
C784 C 0.82814 0.4809 0.82854 0.0
C785 C 0.81755 0.49211 0.80997 0.0
H786 H 0.80275 0.51865 0.77478 0.0
H787 H 0.82452 0.55725 0.76524 0.0
H788 H 0.89234 0.48522 0.88404 0.0
H789 H 0.8537 0.46469 0.86504 0.0
H790 H 0.81953 0.46379 0.83313 0.0
H791 H 0.80096 0.48344 0.80052 0.0
Mn792 Mn 0.74452 0.39487 0.49952 0.0
Mn793 Mn 0.75486 0.44278 0.46812 0.0
C794 C 0.77848 0.40546 0.48742 0.0
C795 C 0.74275 0.3788 0.53623 0.0
C796 C 0.72787 0.3926 0.44435 0.0
O797 O 0.72014 0.41284 0.50518 0.0
O798 O 0.73085 0.44642 0.48756 0.0
C799 C 0.77237 0.48246 0.511 0.0
N800 N 0.7749 0.46985 0.48919 0.0
C801 C 0.80985 0.49689 0.4895 0.0
C802 C 0.80738 0.51049 0.51168 0.0
C803 C 0.78868 0.50307 0.52263 0.0
C804 C 0.79324 0.47628 0.47901 0.0
H805 H 0.75807 0.4768 0.51951 0.0
C806 C 0.71851 0.43418 0.50053 0.0
O807 O 0.73064 0.36746 0.51538 0.0
O808 O 0.7557 0.39979 0.53585 0.0
N809 N 0.77817 0.44202 0.44897 0.0
C810 C 0.7782 0.42689 0.4276 0.0
C811 C 0.79625 0.43117 0.41496 0.0
C812 C 0.81393 0.45122 0.42412 0.0
C813 C 0.81333 0.46687 0.44579 0.0
C814 C 0.79497 0.46157 0.45772 0.0
H815 H 0.76464 0.4116 0.42026 0.0
O816 O 0.77188 0.38365 0.49286 0.0
O817 O 0.76533 0.4206 0.48992 0.0
O818 O 0.73013 0.38254 0.46383 0.0
O819 O 0.73485 0.41554 0.44428 0.0
C820 C 0.83006 0.48775 0.45579 0.0
C821 C 0.8282 0.5029 0.47746 0.0
H822 H 0.81987 0.52648 0.52062 0.0
H823 H 0.78678 0.51328 0.53991 0.0
H824 H 0.79648 0.41911 0.39812 0.0
H825 H 0.8278 0.45452 0.41427 0.0
H826 H 0.84441 0.49238 0.44692 0.0
H827 H 0.8412 0.51889 0.485 0.0
Mn828 Mn 0.65712 0.57636 0.33124 0.0
Mn829 Mn 0.69998 0.58462 0.37855 0.0
C830 C 0.68197 0.61431 0.3423 0.0
C831 C 0.64349 0.56511 0.28825 0.0
C832 C 0.65194 0.57801 0.38594 0.0
O833 O 0.66074 0.54124 0.33513 0.0
O834 O 0.69255 0.54977 0.36309 0.0
C835 C 0.73621 0.57448 0.35221 0.0
N836 N 0.72768 0.59029 0.36692 0.0
C837 C 0.76042 0.62203 0.37095 0.0
C838 C 0.76952 0.60612 0.35576 0.0
C839 C 0.75736 0.58224 0.34637 0.0
C840 C 0.73932 0.61322 0.37627 0.0
H841 H 0.72693 0.5561 0.34494 0.0
C842 C 0.67716 0.53475 0.34756 0.0
O843 O 0.63015 0.56469 0.3044 0.0
O844 O 0.66445 0.57168 0.29704 0.0
N845 N 0.70843 0.61824 0.39393 0.0
C846 C 0.69673 0.63176 0.407 0.0
C847 C 0.70629 0.65631 0.4171 0.0
C848 C 0.72777 0.66668 0.41366 0.0
C849 C 0.73943 0.65246 0.39997 0.0
C850 C 0.72909 0.62807 0.39046 0.0
H851 H 0.68022 0.62388 0.40967 0.0
O852 O 0.66212 0.61306 0.33052 0.0
O853 O 0.68576 0.59364 0.34812 0.0
O854 O 0.64351 0.57909 0.3635 0.0
O855 O 0.67253 0.57905 0.39294 0.0
C856 C 0.76076 0.66165 0.39507 0.0
C857 C 0.77124 0.64646 0.38055 0.0
H858 H 0.78576 0.61211 0.35105 0.0
H859 H 0.76426 0.56986 0.33462 0.0
H860 H 0.69714 0.66722 0.4275 0.0
H861 H 0.73506 0.68563 0.42148 0.0
H862 H 0.76918 0.68044 0.40217 0.0
H863 H 0.78751 0.65383 0.37663 0.0
Tb864 Tb 0.047 0.03009 0.04749 0.0
Tb865 Tb 0.07915 0.06441 0.08524 0.0
C866 C 1.01271 1.00705 0.01831 0.0
C867 C 0.9966 1.01657 1.00215 0.0
C868 C 0.97423 1.00954 1.00396 0.0
C869 C 0.96016 0.02565 0.99962 0.0
C870 C 0.96843 0.04892 0.9934 0.0
C871 C 0.98958 0.05358 0.98679 0.0
C872 C 1.00374 0.03758 0.99142 0.0
C873 C 0.08557 0.04484 0.03298 0.0
C874 C 0.04715 0.08827 0.0521 0.0
C875 C 0.11611 0.08545 0.11015 0.0
C876 C 0.13576 0.07414 0.1126 0.0
C877 C 0.14868 0.07531 0.0936 0.0
C878 C 0.15701 0.05499 0.08552 0.0
C879 C 0.15339 0.03399 0.09717 0.0
C880 C 0.14553 0.03536 0.11981 0.0
C881 C 0.13664 0.05548 0.12757 0.0
C882 C 0.04086 0.05159 0.10032 0.0
C883 C 0.07761 1.00637 0.08165 0.0
O884 O 1.01328 1.01399 0.04206 0.0
O885 O 0.03254 1.00931 1.01261 0.0
O886 O 0.07524 0.05751 0.04564 0.0
O887 O 0.07425 1.02244 0.02878 0.0
O888 O 0.03716 0.06547 0.04183 0.0
O889 O 0.06481 0.0927 0.06965 0.0
O890 O 0.10922 0.0893 0.08755 0.0
O891 O 0.09957 0.07537 0.12033 0.0
O892 O 0.05012 0.03768 0.08734 0.0
O893 O 0.05384 0.07318 0.10592 0.0
O894 O 0.08976 0.02902 0.08778 0.0
O895 O 0.05815 1.00224 0.06722 0.0
H896 H 0.96841 0.99329 1.01204 0.0
H897 H 0.94388 1.02118 1.00466 0.0
H898 H 0.99615 0.07099 0.98121 0.0
H899 H 1.02094 0.04327 0.98954 0.0
H900 H 0.14916 0.08996 0.08234 0.0
H901 H 0.16379 0.05454 0.0684 0.0
H902 H 0.14356 1.01963 0.12961 0.0
H903 H 0.12764 0.05454 0.14302 0.0
Tb904 Tb 0.31417 0.78787 0.28935 0.0
Tb905 Tb 0.30208 0.80647 0.33661 0.0
C906 C 0.31865 0.78216 0.24444 0.0
C907 C 0.31583 0.79852 0.22583 0.0
C908 C 0.30558 0.81831 0.23091 0.0
C909 C 0.30281 0.83413 0.21357 0.0
C910 C 0.31021 0.83045 0.19072 0.0
C911 C 0.32052 0.8106 0.18562 0.0
C912 C 0.32338 0.79476 0.20314 0.0
C913 C 0.34166 0.78261 0.32891 0.0
C914 C 0.32817 0.8471 0.3097 0.0
C915 C 0.30129 0.81133 0.38243 0.0
C916 C 0.30877 0.79489 0.39906 0.0
C917 C 0.31842 0.77613 0.38914 0.0
C918 C 0.32641 0.76043 0.4041 0.0
C919 C 0.32513 0.76333 0.42946 0.0
C920 C 0.31577 0.78233 0.4397 0.0
C921 C 0.30749 0.79804 0.42447 0.0
C922 C 0.27421 0.81209 0.29767 0.0
C923 C 0.28764 0.74692 0.31553 0.0
O924 O 0.30053 0.77293 0.25236 0.0
O925 O 0.33525 0.79055 0.26275 0.0
O926 O 0.33233 0.80041 0.32606 0.0
O927 O 0.33693 0.76765 0.3081 0.0
O928 O 0.32419 0.82889 0.29057 0.0
O929 O 0.3217 0.84241 0.33101 0.0
O930 O 0.31711 0.82337 0.37268 0.0
O931 O 0.28379 0.80146 0.36565 0.0
O932 O 0.28378 0.79427 0.29977 0.0
O933 O 0.27845 0.82627 0.31905 0.0
O934 O 0.28983 0.76527 0.33424 0.0
O935 O 0.29543 0.75175 0.29492 0.0
H936 H 0.29946 0.82143 0.24822 0.0
H937 H 0.29443 0.84895 0.21785 0.0
H938 H 0.32646 0.80743 0.16817 0.0
H939 H 0.33139 0.77961 0.19898 0.0
H940 H 0.3202 0.77384 0.36982 0.0
H941 H 0.33397 0.74627 0.39589 0.0
H942 H 0.31469 0.78483 0.45933 0.0
H943 H 0.30031 0.81262 0.43247 0.0
Tb944 Tb 0.57789 0.04467 0.55199 0.0
Tb945 Tb 0.53224 0.04249 0.56981 0.0
C946 C 0.61796 0.0421 0.55173 0.0
C947 C 0.63447 0.02657 0.5577 0.0
C948 C 0.64014 1.02071 0.58173 0.0
C949 C 0.65699 1.00755 0.58686 0.0
C950 C 0.66874 1.00003 0.56817 0.0
C951 C 0.66273 1.0057 0.54414 0.0
C952 C 0.64593 1.01875 0.53903 0.0
C953 C 0.54734 0.05281 0.51381 0.0
C954 C 0.54454 0.99292 0.54772 0.0
C955 C 0.49211 0.04449 0.5703 0.0
C956 C 0.47541 0.05935 0.56333 0.0
C957 C 0.45286 0.04789 0.55777 0.0
C958 C 0.43644 0.0617 0.55399 0.0
C959 C 0.44209 0.08747 0.55573 0.0
C960 C 0.46482 0.0988 0.5604 0.0
C961 C 0.48125 0.08494 0.56418 0.0
C962 C 0.56305 0.03461 0.60778 0.0
C963 C 0.56563 0.09428 0.57383 0.0
O964 O 0.61116 0.05417 0.57007 0.0
O965 O 0.60194 0.03323 0.53285 0.0
O966 O 0.54481 0.04852 0.53587 0.0
O967 O 0.56825 0.05319 0.514 0.0
O968 O 0.56477 1.00516 0.54721 0.0
O969 O 0.52885 1.0037 0.55494 0.0
O970 O 0.49875 0.03173 0.55233 0.0
O971 O 0.5084 0.05461 0.58857 0.0
O972 O 0.56521 0.03899 0.58573 0.0
O973 O 0.5421 0.03366 0.60785 0.0
O974 O 0.54538 0.08209 0.57444 0.0
O975 O 0.5813 0.08344 0.56666 0.0
H976 H 0.63181 0.02657 0.59666 0.0
H977 H 0.66116 1.0038 0.60566 0.0
H978 H 0.67097 0.99996 0.52909 0.0
H979 H 0.64206 0.02304 0.52038 0.0
H980 H 0.44787 0.02821 0.55713 0.0
H981 H 0.41925 0.0522 0.55071 0.0
H982 H 0.46998 0.1185 0.56144 0.0
H983 H 0.4985 0.09432 0.56837 0.0
Tb984 Tb 0.28663 0.29911 0.81533 0.0
Tb985 Tb 0.33243 0.28621 0.81538 0.0
C986 C 0.2475 0.29907 0.82248 0.0
C987 C 0.23213 0.29622 0.84103 0.0
C988 C 0.22462 0.31663 0.8514 0.0
C989 C 0.20776 0.31373 0.86595 0.0
C990 C 0.19791 0.29031 0.87062 0.0
C991 C 0.20584 0.26997 0.86077 0.0
C992 C 0.22252 0.27285 0.84602 0.0
C993 C 0.31382 0.32821 0.79311 0.0
C994 C 0.32201 0.31391 0.86541 0.0
C995 C 0.3733 0.28664 0.81621 0.0
C996 C 0.3892 0.28843 0.79839 0.0
C997 C 0.38536 0.29928 0.77685 0.0
C998 C 0.40096 0.3017 0.76075 0.0
C999 C 0.42074 0.29298 0.76545 0.0
C1000 C 0.42442 0.28203 0.78708 0.0
C1001 C 0.40888 0.27985 0.80333 0.0
C1002 C 0.30009 0.25157 0.82395 0.0
C1003 C 0.29812 0.27159 0.76679 0.0
O1004 O 0.2542 0.27952 0.81357 0.0
O1005 O 0.26307 0.31908 0.82569 0.0
O1006 O 0.31896 0.31821 0.81185 0.0
O1007 O 0.29236 0.3237 0.78756 0.0
O1008 O 0.30246 0.31545 0.85331 0.0
O1009 O 0.33561 0.30183 0.85491 0.0
O1010 O 0.36531 0.30608 0.82173 0.0
O1011 O 0.35797 0.26659 0.81289 0.0
O1012 O 0.30379 0.27416 0.83121 0.0
O1013 O 0.31582 0.24699 0.81228 0.0
O1014 O 0.31931 0.2808 0.77565 0.0
O1015 O 0.28266 0.27305 0.78089 0.0
H1016 H 0.23131 0.33484 0.84764 0.0
H1017 H 0.20229 0.32987 0.87336 0.0
H1018 H 0.19853 0.2516 0.86359 0.0
H1019 H 0.2273 0.25658 0.83779 0.0
H1020 H 0.37041 0.30623 0.77264 0.0
H1021 H 0.39753 0.31077 0.74473 0.0
H1022 H 0.43914 0.27473 0.79133 0.0
H1023 H 0.41225 0.2714 0.81982 0.0
Tb1024 Tb 0.04963 0.05908 0.56526 0.0
Tb1025 Tb 0.06925 1.01339 0.55987 0.0
C1026 C 0.03664 0.09794 0.56028 0.0
C1027 C 0.02938 0.10905 0.53857 0.0
C1028 C 0.04072 0.1094 0.51824 0.0
C1029 C 0.03378 0.12075 0.49813 0.0
C1030 C 1.0153 0.13169 0.49802 0.0
C1031 C 1.00313 0.1297 0.51761 0.0
C1032 C 1.01022 0.11862 0.5378 0.0
C1033 C 0.02489 1.01874 0.57527 0.0
C1034 C 0.04622 0.02892 0.51107 0.0
C1035 C 0.07346 0.97017 0.56186 0.0
C1036 C 0.0877 0.95869 0.57829 0.0
C1037 C 0.08815 0.93396 0.57183 0.0
C1038 C 0.09785 0.9214 0.58935 0.0
C1039 C 0.10694 0.93338 0.61368 0.0
C1040 C 0.10829 0.95875 0.61935 0.0
C1041 C 0.09875 0.97136 0.6017 0.0
C1042 C 0.10034 0.05241 0.55712 0.0
C1043 C 0.07657 0.04725 0.61295 0.0
O1044 O 0.05766 0.09701 0.56488 0.0
O1045 O 0.02349 0.0775 0.5625 0.0
O1046 O 0.03628 1.02018 0.55789 0.0
O1047 O 0.02744 0.04052 0.58763 0.0
O1048 O 0.04401 0.04909 0.52475 0.0
O1049 O 0.05446 1.01146 0.52096 0.0
O1050 O 0.05916 0.98016 0.57257 0.0
O1051 O 0.0832 0.98397 0.54726 0.0
O1052 O 0.08059 0.05159 0.56025 0.0
O1053 O 0.10342 0.03018 0.55633 0.0
O1054 O 0.07658 0.02552 0.60041 0.0
O1055 O 0.06896 0.06459 0.60226 0.0
H1056 H 0.05525 0.10149 0.51817 0.0
H1057 H 0.04356 0.12211 0.48338 0.0
H1058 H 0.9886 0.1376 0.51779 0.0
H1059 H 1.00095 0.1179 0.55305 0.0
H1060 H 0.07987 0.92401 0.55376 0.0
H1061 H 0.09694 0.90191 0.5844 0.0
H1062 H 0.11513 0.96841 0.63794 0.0
H1063 H 0.09877 0.99059 0.60688 0.0
Tb1064 Tb 0.30345 0.76094 0.80391 0.0
Tb1065 Tb 0.29473 0.80518 0.77809 0.0
C1066 C 0.31105 0.71989 0.81135 0.0
C1067 C 0.32956 0.708 0.80764 0.0
C1068 C 0.34541 0.71769 0.79368 0.0
C1069 C 0.36281 0.706 0.78992 0.0
C1070 C 0.36472 0.68459 0.80025 0.0
C1071 C 0.34873 0.675 0.8142 0.0
C1072 C 0.33132 0.68663 0.81786 0.0
C1073 C 0.28825 0.79422 0.83044 0.0
C1074 C 0.34303 0.80595 0.80733 0.0
C1075 C 0.2879 0.84737 0.77425 0.0
C1076 C 0.271 0.86148 0.78022 0.0
C1077 C 0.2557 0.86657 0.7612 0.0
C1078 C 0.24053 0.881 0.76686 0.0
C1079 C 0.24026 0.89056 0.79172 0.0
C1080 C 0.25533 0.88497 0.8107 0.0
C1081 C 0.27069 0.87101 0.80502 0.0
C1082 C 0.30853 0.77124 0.7514 0.0
C1083 C 0.25645 0.75855 0.7707 0.0
O1084 O 0.29929 0.72353 0.79093 0.0
O1085 O 0.31551 0.73904 0.82885 0.0
O1086 O 0.28349 0.7875 0.80744 0.0
O1087 O 0.30013 0.77998 0.84006 0.0
O1088 O 0.33711 0.78205 0.80762 0.0
O1089 O 0.32896 0.81881 0.79801 0.0
O1090 O 0.30032 0.84207 0.79335 0.0
O1091 O 0.282 0.82905 0.75573 0.0
O1092 O 0.31351 0.77808 0.77424 0.0
O1093 O 0.29834 0.78675 0.74133 0.0
O1094 O 0.26159 0.78255 0.77051 0.0
O1095 O 0.27032 0.74639 0.7818 0.0
H1096 H 0.34429 0.73425 0.78565 0.0
H1097 H 0.37491 0.71384 0.77924 0.0
H1098 H 0.34947 0.65826 0.822 0.0
H1099 H 0.31915 0.67886 0.82855 0.0
H1100 H 0.25576 0.85981 0.74189 0.0
H1101 H 0.22949 0.88523 0.75166 0.0
H1102 H 0.25541 0.89146 0.8301 0.0
H1103 H 0.28236 0.86778 0.82022 0.0
Tb1104 Tb 0.53448 0.04179 0.04247 0.0
Tb1105 Tb 0.57581 0.04257 0.07804 0.0
C1106 C 0.49775 0.02847 1.01426 0.0
C1107 C 0.47464 0.0309 1.01184 0.0
C1108 C 0.46409 0.03388 0.03257 0.0
C1109 C 0.44148 0.03407 0.02915 0.0
C1110 C 0.42924 0.03126 1.00498 0.0
C1111 C 0.44021 0.02948 0.98444 0.0
C1112 C 0.46271 0.02929 0.98786 0.0
C1113 C 0.557 0.08608 0.06259 0.0
C1114 C 0.53094 0.04241 0.10263 0.0
C1115 C 0.61234 0.05731 0.10664 0.0
C1116 C 0.6335 0.07436 0.10701 0.0
C1117 C 0.63421 0.09919 0.10462 0.0
C1118 C 0.65447 0.11564 0.10727 0.0
C1119 C 0.67441 0.1076 0.11212 0.0
C1120 C 0.67363 0.08262 0.11388 0.0
C1121 C 0.65334 0.0662 0.1115 0.0
C1122 C 0.55269 0.99858 0.05822 0.0
C1123 C 0.5797 0.04272 0.01876 0.0
O1124 O 0.50479 1.01573 0.0312 0.0
O1125 O 0.51224 0.04831 1.01299 0.0
O1126 O 0.55434 0.0668 0.07213 0.0
O1127 O 0.54512 0.08107 0.04049 0.0
O1128 O 0.52031 0.04157 0.07915 0.0
O1129 O 0.55264 0.04226 0.1059 0.0
O1130 O 0.59522 0.06741 0.10774 0.0
O1131 O 0.60765 0.03683 0.0909 0.0
O1132 O 0.55591 1.01756 0.04818 0.0
O1133 O 0.56426 1.00351 0.08059 0.0
O1134 O 0.59036 0.04887 0.04253 0.0
O1135 O 0.5575 0.03696 1.01503 0.0
H1136 H 0.47313 0.03532 0.05125 0.0
H1137 H 0.43339 0.03522 0.04531 0.0
H1138 H 0.43124 0.02755 0.96565 0.0
H1139 H 0.4707 0.02719 0.97169 0.0
H1140 H 0.61916 0.10609 0.10118 0.0
H1141 H 0.65447 0.13476 0.10599 0.0
H1142 H 0.68868 0.07569 0.11702 0.0
H1143 H 0.65317 0.04716 0.11344 0.0
Tb1144 Tb 0.28746 0.28456 0.30624 0.0
Tb1145 Tb 0.3314 0.3174 0.3271 0.0
C1146 C 0.24862 0.26084 0.30215 0.0
C1147 C 0.23153 0.2653 0.31678 0.0
C1148 C 0.23742 0.27383 0.34247 0.0
C1149 C 0.22166 0.27999 0.35617 0.0
C1150 C 0.19982 0.27807 0.34438 0.0
C1151 C 0.19386 0.26935 0.31873 0.0
C1152 C 0.20964 0.26292 0.30501 0.0
C1153 C 0.31007 0.30077 0.27213 0.0
C1154 C 0.28844 0.34373 0.32396 0.0
C1155 C 0.36953 0.34157 0.32764 0.0
C1156 C 0.39109 0.33498 0.33355 0.0
C1157 C 0.40847 0.34531 0.32203 0.0
C1158 C 0.42669 0.33436 0.32122 0.0
C1159 C 0.42771 0.313 0.33196 0.0
C1160 C 0.4112 0.30382 0.34526 0.0
C1161 C 0.39292 0.31476 0.34603 0.0
C1162 C 0.31535 0.29708 0.36422 0.0
C1163 C 0.32995 0.25782 0.31309 0.0
O1164 O 0.26571 0.2546 0.31449 0.0
O1165 O 0.25439 0.27744 0.28811 0.0
O1166 O 0.30878 0.31281 0.2927 0.0
O1167 O 0.29772 0.27897 0.27 0.0
O1168 O 0.27628 0.32071 0.3167 0.0
O1169 O 0.31066 0.34656 0.32853 0.0
O1170 O 0.35708 0.3281 0.30761 0.0
O1171 O 0.35856 0.34453 0.34608 0.0
O1172 O 0.30688 0.29413 0.34155 0.0
O1173 O 0.3337 0.31319 0.36688 0.0
O1174 O 0.34236 0.28075 0.3192 0.0
O1175 O 0.30786 0.25535 0.30832 0.0
H1176 H 0.25434 0.27627 0.35192 0.0
H1177 H 0.22673 0.28699 0.37583 0.0
H1178 H 0.17704 0.26761 0.3093 0.0
H1179 H 0.2049 0.25659 0.28519 0.0
H1180 H 0.40716 0.36063 0.312 0.0
H1181 H 0.43922 0.3415 0.31065 0.0
H1182 H 0.41156 0.28712 0.35327 0.0
H1183 H 0.37946 0.3063 0.3547 0.0
Tb1184 Tb 0.55602 0.56199 0.06415 0.0
Tb1185 Tb 0.56055 0.50805 0.05737 0.0
C1186 C 0.55678 0.60583 0.05884 0.0
C1187 C 0.55088 0.61759 0.0371 0.0
C1188 C 0.56073 0.64212 0.03686 0.0
C1189 C 0.55455 0.65368 1.01661 0.0
C1190 C 0.53868 0.64069 0.99626 0.0
C1191 C 0.52933 0.61596 0.99618 0.0
C1192 C 0.5352 0.60453 1.0166 0.0
C1193 C 0.52474 0.53092 0.07876 0.0
C1194 C 0.54206 0.52837 1.00985 0.0
C1195 C 0.55256 0.46321 0.06013 0.0
C1196 C 0.56205 0.44933 0.07815 0.0
C1197 C 0.55034 0.42602 0.08015 0.0
C1198 C 0.55633 0.4149 0.10072 0.0
C1199 C 0.57393 0.42715 0.11973 0.0
C1200 C 0.58656 0.44984 0.11684 0.0
C1201 C 0.58062 0.4609 0.09613 0.0
C1202 C 0.59873 0.53801 0.054 0.0
C1203 C 0.57943 0.54223 0.10973 0.0
O1204 O 0.5742 0.59597 0.05886 0.0
O1205 O 0.54024 0.59164 0.06571 0.0
O1206 O 0.53347 0.52672 0.05952 0.0
O1207 O 0.53329 0.55323 0.0896 0.0
O1208 O 0.54412 0.54995 0.02384 0.0
O1209 O 0.547 0.509 0.01904 0.0
O1210 O 0.54163 0.47864 0.06978 0.0
O1211 O 0.56565 0.4729 0.04559 0.0
O1212 O 0.58032 0.54282 0.05683 0.0
O1213 O 0.59598 0.5144 0.05325 0.0
O1214 O 0.57214 0.51972 0.09729 0.0
O1215 O 0.57704 0.56221 0.09974 0.0
H1216 H 0.57287 0.65242 0.05248 0.0
H1217 H 0.56194 0.67286 1.01695 0.0
H1218 H 0.51688 0.60581 0.98081 0.0
H1219 H 0.52703 0.58574 1.01657 0.0
H1220 H 0.5359 0.41698 0.06649 0.0
H1221 H 0.54667 0.39708 0.10222 0.0
H1222 H 0.60021 0.45961 0.13118 0.0
H1223 H 0.58975 0.47903 0.09484 0.0
Tb1224 Tb 0.81218 0.27552 0.30413 0.0
Tb1225 Tb 0.81338 0.3275 0.28948 0.0
C1226 C 0.81427 0.23141 0.30539 0.0
C1227 C 0.83203 0.21754 0.30555 0.0
C1228 C 0.85423 0.22956 0.30745 0.0
C1229 C 0.87084 0.21598 0.30681 0.0
C1230 C 0.86547 0.19014 0.30393 0.0
C1231 C 0.84319 0.17833 0.3025 0.0
C1232 C 0.82667 0.19192 0.30328 0.0
C1233 C 0.79359 0.30519 0.33174 0.0
C1234 C 0.85475 0.31715 0.32442 0.0
C1235 C 0.81027 0.37162 0.29353 0.0
C1236 C 0.79236 0.38472 0.29809 0.0
C1237 C 0.78946 0.39219 0.32257 0.0
C1238 C 0.772 0.40344 0.32704 0.0
C1239 C 0.75719 0.40806 0.30718 0.0
C1240 C 0.76046 0.40113 0.28268 0.0
C1241 C 0.77778 0.38954 0.2782 0.0
C1242 C 0.82972 0.29769 0.26011 0.0
C1243 C 0.7721 0.28507 0.26658 0.0
O1244 O 0.80896 0.24016 0.28478 0.0
O1245 O 0.81565 0.24736 0.32532 0.0
O1246 O 0.79442 0.30377 0.30914 0.0
O1247 O 0.80157 0.28727 0.33966 0.0
O1248 O 0.84659 0.29329 0.31785 0.0
O1249 O 0.84357 0.33375 0.31755 0.0
O1250 O 0.81829 0.36136 0.31209 0.0
O1251 O 0.80766 0.35756 0.27192 0.0
O1252 O 0.83017 0.29866 0.28303 0.0
O1253 O 0.82372 0.3173 0.25355 0.0
O1254 O 0.77953 0.30901 0.27376 0.0
O1255 O 0.78334 0.26867 0.27409 0.0
H1256 H 0.85866 0.24937 0.30905 0.0
H1257 H 0.88775 0.22567 0.30771 0.0
H1258 H 0.83849 0.15853 0.30082 0.0
H1259 H 0.80963 0.18237 0.30189 0.0
H1260 H 0.80042 0.38889 0.3384 0.0
H1261 H 0.76994 0.40802 0.34617 0.0
H1262 H 0.74987 0.40496 0.26686 0.0
H1263 H 0.77974 0.38437 0.25913 0.0
Tb1264 Tb 0.03586 0.54755 0.54625 0.0
Tb1265 Tb 0.07813 0.56611 0.58444 0.0
C1266 C 1.00335 0.51792 0.52017 0.0
C1267 C 0.97956 0.50738 0.51683 0.0
C1268 C 0.96982 0.49666 0.53556 0.0
C1269 C 0.94791 0.48341 0.53028 0.0
C1270 C 0.93553 0.48065 0.50622 0.0
C1271 C 0.9451 0.49232 0.48792 0.0
C1272 C 0.96692 0.50548 0.49318 0.0
C1273 C 0.04454 0.59493 0.5629 0.0
C1274 C 0.03201 0.55274 0.60692 0.0
C1275 C 0.11071 0.59763 0.60799 0.0
C1276 C 0.13275 0.60985 0.60463 0.0
C1277 C 0.13902 0.6082 0.58106 0.0
C1278 C 0.15898 0.62236 0.57761 0.0
C1279 C 0.17299 0.63839 0.59769 0.0
C1280 C 0.16677 0.6396 0.62138 0.0
C1281 C 0.14677 0.62548 0.62478 0.0
C1282 C 0.06778 0.51901 0.56964 0.0
C1283 C 0.08187 0.55765 0.52321 0.0
O1284 O 1.0163 0.51213 0.5386 0.0
O1285 O 1.00936 0.54076 0.51645 0.0
O1286 O 0.04839 0.57761 0.5741 0.0
O1287 O 0.03318 0.58537 0.54098 0.0
O1288 O 1.02241 0.54507 0.58279 0.0
O1289 O 0.05399 0.56215 0.61202 0.0
O1290 O 0.09435 0.60278 0.59316 0.0
O1291 O 0.10766 0.57425 0.61049 0.0
O1292 O 0.0652 0.536 0.55736 0.0
O1293 O 0.07905 0.52841 0.59176 0.0
O1294 O 0.09219 0.56545 0.54717 0.0
O1295 O 0.05979 0.55002 0.5192 0.0
H1296 H 0.97931 0.49781 0.55396 0.0
H1297 H 0.94096 0.47458 0.54474 0.0
H1298 H 0.93582 0.491 0.46939 0.0
H1299 H 0.97418 0.51352 0.47846 0.0
H1300 H 0.12829 0.59648 0.56521 0.0
H1301 H 0.16323 0.62112 0.55911 0.0
H1302 H 0.1774 0.65138 0.63733 0.0
H1303 H 0.14204 0.6271 0.64305 0.0
Tb1304 Tb 0.78744 0.79855 0.31328 0.0
Tb1305 Tb 0.83338 0.7843 0.31716 0.0
C1306 C 0.74753 0.79986 0.31595 0.0
C1307 C 0.73036 0.79702 0.33215 0.0
C1308 C 0.73439 0.79105 0.35631 0.0
C1309 C 0.71715 0.78737 0.37038 0.0
C1310 C 0.6955 0.78952 0.36057 0.0
C1311 C 0.69175 0.79537 0.33625 0.0
C1312 C 0.70891 0.7991 0.32235 0.0
C1313 C 0.82089 0.83157 0.30478 0.0
C1314 C 0.81819 0.80411 0.3667 0.0
C1315 C 0.87316 0.78312 0.31356 0.0
C1316 C 0.88914 0.78593 0.29594 0.0
C1317 C 0.91178 0.79451 0.30549 0.0
C1318 C 0.92747 0.79751 0.28955 0.0
C1319 C 0.92093 0.79206 0.26353 0.0
C1320 C 0.89814 0.78329 0.25402 0.0
C1321 C 0.88244 0.7803 0.27002 0.0
C1322 C 0.80112 0.75171 0.32806 0.0
C1323 C 0.80127 0.77632 0.26409 0.0
O1324 O 0.75427 0.78002 0.30824 0.0
O1325 O 0.76377 0.81928 0.32142 0.0
O1326 O 0.82109 0.81683 0.32016 0.0
O1327 O 0.80049 0.82967 0.29412 0.0
O1328 O 0.79818 0.80249 0.35372 0.0
O1329 O 0.83517 0.79943 0.35622 0.0
O1330 O 0.86659 0.80292 0.32174 0.0
O1331 O 0.85696 0.76365 0.30886 0.0
O1332 O 0.79958 0.76552 0.31169 0.0
O1333 O 0.82202 0.75368 0.33655 0.0
O1334 O 0.82185 0.77946 0.27632 0.0
O1335 O 0.78483 0.78115 0.2753 0.0
H1336 H 0.75078 0.78911 0.36421 0.0
H1337 H 0.72088 0.78306 0.38903 0.0
H1338 H 0.67537 0.7966 0.32761 0.0
H1339 H 0.7053 0.80332 0.30362 0.0
H1340 H 0.91737 0.79905 0.32542 0.0
H1341 H 0.94469 0.80464 0.29768 0.0
H1342 H 0.89237 0.77854 0.23415 0.0
H1343 H 0.86509 0.77362 0.26212 0.0
Tb1344 Tb 0.8106 0.28441 0.78899 0.0
Tb1345 Tb 0.80169 0.30333 0.83514 0.0
C1346 C 0.81376 0.27501 0.74386 0.0
C1347 C 0.80742 0.28599 0.72174 0.0
C1348 C 0.8068 0.31101 0.72368 0.0
C1349 C 0.79681 0.32023 0.7035 0.0
C1350 C 0.78722 0.30452 0.68116 0.0
C1351 C 0.78869 0.27969 0.67897 0.0
C1352 C 0.79871 0.2705 0.69915 0.0
C1353 C 0.83888 0.27497 0.82622 0.0
C1354 C 0.82756 0.3431 0.80776 0.0
C1355 C 0.79969 0.31306 0.88052 0.0
C1356 C 0.80871 0.302 0.90124 0.0
C1357 C 0.81805 0.28153 0.8962 0.0
C1358 C 0.82838 0.27177 0.91557 0.0
C1359 C 0.82977 0.28253 0.9403 0.0
C1360 C 0.82058 0.30323 0.94536 0.0
C1361 C 0.81005 0.31294 0.92583 0.0
C1362 C 0.77289 0.31058 0.79723 0.0
C1363 C 0.78449 0.24424 0.81622 0.0
O1364 O 0.797 0.26504 0.75355 0.0
O1365 O 0.83 0.28799 0.76079 0.0
O1366 O 0.832 0.29478 0.82537 0.0
O1367 O 0.83042 0.26083 0.80547 0.0
O1368 O 0.82007 0.32531 0.78836 0.0
O1369 O 0.82418 0.33771 0.82993 0.0
O1370 O 0.81482 0.32483 0.86974 0.0
O1371 O 0.78371 0.29865 0.86439 0.0
O1372 O 0.78088 0.29184 0.79922 0.0
O1373 O 0.77927 0.32519 0.81808 0.0
O1374 O 0.79009 0.26235 0.83564 0.0
O1375 O 0.78954 0.24948 0.79451 0.0
H1376 H 0.81318 0.32325 0.74103 0.0
H1377 H 0.79579 0.33941 0.70572 0.0
H1378 H 0.78175 0.26729 0.66179 0.0
H1379 H 0.79888 0.25109 0.69744 0.0
H1380 H 0.81776 0.27336 0.87725 0.0
H1381 H 0.83559 0.25601 0.91119 0.0
H1382 H 0.82127 0.31165 0.96434 0.0
H1383 H 0.8032 0.32904 0.92986 0.0
Tb1384 Tb 0.78581 0.7786 0.80265 0.0
Tb1385 Tb 0.82351 0.81204 0.83402 0.0
C1386 C 0.74661 0.75501 0.78987 0.0
C1387 C 0.72767 0.75953 0.80158 0.0
C1388 C 0.7312 0.76851 0.82716 0.0
C1389 C 0.7139 0.77413 0.83855 0.0
C1390 C 0.69267 0.77119 0.82461 0.0
C1391 C 0.68911 0.76258 0.7989 0.0
C1392 C 0.70652 0.7567 0.78746 0.0
C1393 C 0.8123 0.8032 0.77635 0.0
C1394 C 0.78038 0.83539 0.82481 0.0
C1395 C 0.8621 0.83708 0.84819 0.0
C1396 C 0.8832 0.83337 0.84119 0.0
C1397 C 0.88369 0.82144 0.81734 0.0
C1398 C 0.90373 0.8183 0.81044 0.0
C1399 C 0.92366 0.82686 0.82731 0.0
C1400 C 0.92301 0.83829 0.8514 0.0
C1401 C 0.90292 0.84155 0.85825 0.0
C1402 C 0.79692 0.78654 0.86001 0.0
C1403 C 0.82922 0.75555 0.81174 0.0
O1404 O 0.76173 0.74742 0.80407 0.0
O1405 O 0.75534 0.77239 0.77821 0.0
O1406 O 0.80719 0.81104 0.79686 0.0
O1407 O 0.80147 0.78061 0.76939 0.0
O1408 O 0.77109 0.81187 0.81484 0.0
O1409 O 0.80208 0.8404 0.83376 0.0
O1410 O 0.84803 0.8418 0.83033 0.0
O1411 O 0.85264 0.82097 0.86079 0.0
O1412 O 0.80228 0.77948 0.83948 0.0
O1413 O 0.80769 0.80907 0.86747 0.0
O1414 O 0.8386 0.7792 0.82119 0.0
O1415 O 0.80733 0.75031 0.80359 0.0
H1416 H 0.74748 0.77153 0.83838 0.0
H1417 H 0.71725 0.78118 0.85827 0.0
H1418 H 0.67285 0.76019 0.78775 0.0
H1419 H 0.70355 0.75017 0.76764 0.0
H1420 H 0.86859 0.81483 0.80388 0.0
H1421 H 0.90361 0.8097 0.79167 0.0
H1422 H 0.93802 0.8447 0.865 0.0
H1423 H 0.9028 0.85054 0.87681 0.0
Tb1424 Tb 0.53944 0.52409 0.54397 0.0
Tb1425 Tb 0.57123 0.56196 0.57982 0.0
C1426 C 0.50551 0.49512 0.51905 0.0
C1427 C 0.48213 0.49663 0.51366 0.0
C1428 C 0.46649 0.48058 0.52334 0.0
C1429 C 0.44617 0.48646 0.52615 0.0
C1430 C 0.4414 0.50836 0.51916 0.0
C1431 C 0.45572 0.52247 0.50625 0.0
C1432 C 0.47604 0.51669 0.50358 0.0
C1433 C 0.57721 0.53987 0.52774 0.0
C1434 C 0.53622 0.58069 0.54487 0.0
C1435 C 0.60687 0.58802 0.60377 0.0
C1436 C 0.62846 0.58088 0.60894 0.0
C1437 C 0.64338 0.58531 0.59235 0.0
C1438 C 0.65837 0.5702 0.58928 0.0
C1439 C 0.65923 0.5509 0.60341 0.0
C1440 C 0.64733 0.5498 0.62333 0.0
C1441 C 0.63184 0.5645 0.62591 0.0
C1442 C 0.53312 0.54852 0.59537 0.0
C1443 C 0.57389 0.505 0.579 0.0
O1444 O 0.5127 0.49496 0.54256 0.0
O1445 O 0.51962 0.50971 0.50911 0.0
O1446 O 0.56661 0.55209 0.54041 0.0
O1447 O 0.56635 0.51728 0.52409 0.0
O1448 O 0.52555 0.55727 0.53947 0.0
O1449 O 0.55568 0.58703 0.55963 0.0
O1450 O 0.59988 0.58834 0.58019 0.0
O1451 O 0.59105 0.57722 0.61451 0.0
O1452 O 0.54316 0.53477 0.58341 0.0
O1453 O 0.54533 0.57055 0.59987 0.0
O1454 O 0.58434 0.52836 0.58538 0.0
O1455 O 0.55492 0.49895 0.56357 0.0
H1456 H 0.47084 0.46487 0.53101 0.0
H1457 H 0.43533 0.47533 0.53612 0.0
H1458 H 0.45212 0.53928 0.5004 0.0
H1459 H 0.48764 0.52914 0.49563 0.0
H1460 H 0.64159 0.59834 0.57949 0.0
H1461 H 0.6673 0.57213 0.5739 0.0
H1462 H 0.64842 0.53607 0.63549 0.0
H1463 H 0.62108 0.56122 0.63953 0.0
Tb1464 Tb 0.07753 0.54493 0.05201 0.0
Tb1465 Tb 0.03401 0.54326 0.07508 0.0
C1466 C 0.11693 0.54194 0.04838 0.0
C1467 C 0.13363 0.52708 0.05575 0.0
C1468 C 0.15592 0.53891 0.06364 0.0
C1469 C 0.1724 0.52538 0.06861 0.0
C1470 C 0.16713 0.49951 0.06581 0.0
C1471 C 0.14463 0.4877 0.05849 0.0
C1472 C 0.12812 0.50128 0.0535 0.0
C1473 C 0.0437 0.55166 1.01685 0.0
C1474 C 0.04451 0.49368 0.05059 0.0
C1475 C 0.99475 0.54617 0.07954 0.0
C1476 C 0.97762 0.56045 0.07181 0.0
C1477 C 0.9645 0.55488 0.04795 0.0
C1478 C 0.94768 0.56754 0.04141 0.0
C1479 C 0.94314 0.58585 0.05865 0.0
C1480 C 0.95607 0.59121 0.08261 0.0
C1481 C 0.97308 0.57872 0.08906 0.0
C1482 C 0.06771 0.53665 0.1104 0.0
C1483 C 0.06629 0.59477 0.07453 0.0
O1484 O 0.11174 0.55657 0.06603 0.0
O1485 O 0.09963 0.53106 0.03163 0.0
O1486 O 0.04396 0.5485 0.03969 0.0
O1487 O 0.06398 0.55159 1.01379 0.0
O1488 O 0.06461 0.5056 0.04913 0.0
O1489 O 0.02947 0.50464 0.05918 0.0
O1490 O 0.99978 0.53079 0.06241 0.0
O1491 O 1.01226 0.55788 0.09558 0.0
O1492 O 0.06766 0.53985 0.08758 0.0
O1493 O 0.04732 0.53628 0.11311 0.0
O1494 O 0.04647 0.58262 0.07679 0.0
O1495 O 0.08152 0.58387 0.06627 0.0
H1496 H 0.1607 0.55873 0.06555 0.0
H1497 H 0.18936 0.53531 0.07464 0.0
H1498 H 0.13979 0.46786 0.05589 0.0
H1499 H 0.1111 0.49154 0.04741 0.0
H1500 H 0.96701 0.54051 0.03433 0.0
H1501 H 0.93789 0.56258 0.02291 0.0
H1502 H 0.9532 0.60525 0.09634 0.0
H1503 H 0.98255 0.58323 0.10775 0.0
H1504 H 1.02043 0.1845 0.95888 0.0
H1505 H 1.01905 0.23386 0.02559 0.0
H1506 H 0.02346 0.20133 0.05086 0.0
H1507 H 0.99109 0.12736 0.97881 0.0
H1508 H 1.00814 0.10886 0.96497 0.0
H1509 H 1.00273 0.13554 0.95195 0.0
H1510 H 0.04526 0.15163 0.95664 0.0
H1511 H 0.05029 0.12525 0.97052 0.0
H1512 H 0.06219 0.15573 0.98695 0.0
H1513 H 0.03051 0.16522 0.06997 0.0
H1514 H 0.04015 0.12699 0.08176 0.0
H1515 H 0.03686 0.09886 1.00397 0.0
C1516 C 1.02075 0.18829 0.97875 0.0
C1517 C 1.01931 0.21197 0.99011 0.0
C1518 C 1.02015 0.21611 1.01627 0.0
C1519 C 1.02258 0.19763 0.0309 0.0
C1520 C 0.02422 0.17476 0.01934 0.0
C1521 C 1.02335 0.16986 0.99389 0.0
C1522 C 0.02661 0.14378 0.98672 0.0
C1523 C 1.0059 0.12795 0.96961 0.0
C1524 C 0.04732 0.14413 0.97448 0.0
C1525 C 0.02981 0.13515 1.01212 0.0
C1526 C 0.02818 0.15341 0.03057 0.0
C1527 C 0.03155 0.15065 0.05566 0.0
C1528 C 0.03703 0.12886 0.06222 0.0
C1529 C 0.03889 0.10978 0.04386 0.0
C1530 C 0.03502 0.1129 0.01838 0.0
H1531 H 0.15462 0.83476 0.23923 0.0
H1532 H 0.16391 0.79637 0.1693 0.0
H1533 H 0.20065 0.79216 0.18883 0.0
H1534 H 0.21295 0.86852 0.25711 0.0
H1535 H 0.21369 0.86659 0.28976 0.0
H1536 H 0.18801 0.86725 0.27035 0.0
H1537 H 0.16951 0.82667 0.28381 0.0
H1538 H 0.19515 0.82583 0.30314 0.0
H1539 H 0.18167 0.80011 0.27956 0.0
H1540 H 0.23476 0.78808 0.21651 0.0
H1541 H 0.26615 0.78899 0.24962 0.0
H1542 H 0.23804 0.83355 0.30122 0.0
C1543 C 0.16452 0.82575 0.22799 0.0
C1544 C 0.15617 0.81589 0.20261 0.0
C1545 C 0.16976 0.8042 0.18866 0.0
C1546 C 0.19073 0.80161 0.19963 0.0
C1547 C 0.19834 0.81114 0.22462 0.0
C1548 C 0.18591 0.8234 0.23859 0.0
C1549 C 0.19842 0.83211 0.26509 0.0
C1550 C 0.20357 0.86029 0.27092 0.0
C1551 C 0.18541 0.82048 0.28402 0.0
C1552 C 0.2195 0.82239 0.26383 0.0
C1553 C 0.21891 0.81013 0.24031 0.0
C1554 C 0.23563 0.7981 0.23486 0.0
C1555 C 0.2535 0.79872 0.25381 0.0
C1556 C 0.25501 0.81179 0.27787 0.0
C1557 C 0.23769 0.82384 0.28286 0.0
H1558 H 0.54927 0.86916 0.46143 0.0
H1559 H 0.50862 0.82846 0.50676 0.0
H1560 H 0.50893 0.86734 0.53358 0.0
H1561 H 0.58346 0.91407 0.51355 0.0
H1562 H 0.58548 0.93879 0.49523 0.0
H1563 H 0.58256 0.90765 0.4804 0.0
H1564 H 0.54803 0.91201 0.45033 0.0
H1565 H 0.55067 0.94304 0.46524 0.0
H1566 H 0.52511 0.92095 0.46291 0.0
H1567 H 0.5105 0.91185 0.55274 0.0
H1568 H 0.51766 0.95693 0.56601 0.0
H1569 H 0.55987 0.96788 0.51036 0.0
C1570 C 0.54075 0.86837 0.47726 0.0
C1571 C 0.52898 0.84568 0.48203 0.0
C1572 C 0.51798 0.84552 0.5029 0.0
C1573 C 0.51793 0.86757 0.51813 0.0
C1574 C 0.52931 0.88968 0.51259 0.0
C1575 C 0.54095 0.89013 0.49297 0.0
C1576 C 0.55207 0.91621 0.49106 0.0
C1577 C 0.57739 0.91936 0.49532 0.0
C1578 C 0.54345 0.92347 0.46589 0.0
C1579 C 0.54456 0.93046 0.51235 0.0
C1580 C 0.53121 0.91491 0.52439 0.0
C1581 C 0.52125 0.9241 0.54368 0.0
C1582 C 0.52529 0.94974 0.55103 0.0
C1583 C 0.53951 0.9659 0.53945 0.0
C1584 C 0.54922 0.95598 0.51988 0.0
H1585 H 0.53956 0.3061 0.71818 0.0
H1586 H 0.50212 0.30017 0.64372 0.0
H1587 H 0.46783 0.297 0.66078 0.0
H1588 H 0.49873 0.26331 0.74068 0.0
H1589 H 0.5028 0.28044 0.7715 0.0
H1590 H 0.52525 0.28285 0.75401 0.0
H1591 H 0.52944 0.33005 0.75911 0.0
H1592 H 0.50707 0.32779 0.77672 0.0
H1593 H 0.50575 0.34283 0.74945 0.0
H1594 H 0.43699 0.29265 0.68456 0.0
H1595 H 0.41136 0.28926 0.71451 0.0
H1596 H 0.46708 0.29976 0.77495 0.0
C1597 C 0.52419 0.30433 0.7055 0.0
C1598 C 0.52391 0.30338 0.67942 0.0
C1599 C 0.50319 0.30092 0.66367 0.0
C1600 C 0.4834 0.29908 0.67318 0.0
C1601 C 0.4842 0.29979 0.69868 0.0
C1602 C 0.50396 0.30252 0.71477 0.0
C1603 C 0.49967 0.30266 0.74148 0.0
C1604 C 0.50706 0.28103 0.75257 0.0
C1605 C 0.51117 0.3273 0.75765 0.0
C1606 C 0.47451 0.29947 0.73766 0.0
C1607 C 0.46607 0.2978 0.71274 0.0
C1608 C 0.44342 0.29428 0.70421 0.0
C1609 C 0.42893 0.29259 0.72154 0.0
C1610 C 0.43691 0.29464 0.74741 0.0
C1611 C 0.46019 0.29802 0.75542 0.0
H1612 H 0.0725 0.82542 0.68892 0.0
H1613 H 0.13325 0.85204 0.74242 0.0
H1614 H 0.14331 0.88668 0.71901 0.0
H1615 H 0.09523 0.83667 0.6358 0.0
H1616 H 0.07106 0.84528 0.62022 0.0
H1617 H 0.06822 0.82416 0.64238 0.0
H1618 H 0.04816 0.8523 0.6678 0.0
H1619 H 0.05062 0.87333 0.64551 0.0
H1620 H 0.06124 0.88415 0.67805 0.0
H1621 H 0.14655 0.918 0.68763 0.0
H1622 H 0.1423 0.94216 0.65268 0.0
H1623 H 0.07994 0.89221 0.62093 0.0
C1624 C 0.08791 0.83853 0.69601 0.0
C1625 C 0.10211 0.83596 0.71749 0.0
C1626 C 0.12204 0.85371 0.72603 0.0
C1627 C 0.12791 0.87336 0.7128 0.0
C1628 C 0.11363 0.87485 0.69123 0.0
C1629 C 0.09399 0.85785 0.68311 0.0
C1630 C 0.0816 0.86258 0.65916 0.0
C1631 C 0.07888 0.84088 0.63816 0.0
C1632 C 0.05908 0.86845 0.66287 0.0
C1633 C 0.09737 0.88484 0.65472 0.0
C1634 C 0.11573 0.89194 0.67334 0.0
C1635 C 0.13225 0.91247 0.67295 0.0
C1636 C 0.12976 0.92603 0.65308 0.0
C1637 C 0.11104 0.91869 0.63387 0.0
C1638 C 0.09477 0.89786 0.6349 0.0
H1639 H 0.46003 0.84485 0.89036 0.0
H1640 H 0.48392 0.81143 0.82733 0.0
H1641 H 0.44915 0.8121 0.79992 0.0
H1642 H 0.40922 0.80931 0.87756 0.0
H1643 H 0.39417 0.83213 0.88739 0.0
H1644 H 0.42281 0.83558 0.90047 0.0
H1645 H 0.43177 0.87847 0.88662 0.0
H1646 H 0.40297 0.87522 0.87355 0.0
H1647 H 0.42398 0.88166 0.85446 0.0
H1648 H 0.41035 0.80869 0.78159 0.0
H1649 H 0.3695 0.79938 0.77393 0.0
H1650 H 0.36945 0.83354 0.84885 0.0
C1651 C 0.45814 0.83867 0.87056 0.0
C1652 C 0.47489 0.82929 0.86052 0.0
C1653 C 0.47163 0.81992 0.83494 0.0
C1654 C 0.45193 0.82017 0.81931 0.0
C1655 C 0.43559 0.82952 0.82974 0.0
C1656 C 0.43846 0.8386 0.85481 0.0
C1657 C 0.41712 0.8437 0.86217 0.0
C1658 C 0.41045 0.82931 0.88311 0.0
C1659 C 0.41908 0.87141 0.86964 0.0
C1660 C 0.40141 0.83424 0.83781 0.0
C1661 C 0.4126 0.82696 0.81913 0.0
C1662 C 0.40148 0.81501 0.79577 0.0
C1663 C 0.37835 0.80975 0.79158 0.0
C1664 C 0.3667 0.81633 0.81068 0.0
C1665 C 0.37824 0.82918 0.83384 0.0
H1666 H 0.54376 0.16959 0.184 0.0
H1667 H 0.56886 0.23293 0.15034 0.0
H1668 H 0.57015 0.20597 0.11199 0.0
H1669 H 0.57997 0.13487 0.16208 0.0
H1670 H 0.56081 0.10566 0.15685 0.0
H1671 H 0.55816 0.12965 0.18034 0.0
H1672 H 0.51768 0.12745 0.15992 0.0
H1673 H 0.51976 0.10293 0.13663 0.0
H1674 H 0.51156 0.13009 0.12737 0.0
H1675 H 0.5691 0.17176 0.07728 0.0
H1676 H 0.56851 0.13248 0.05055 0.0
H1677 H 0.54923 0.09269 0.10981 0.0
C1678 C 0.54896 0.17765 0.16826 0.0
C1679 C 0.55492 0.20323 0.16937 0.0
C1680 C 0.56291 0.21332 0.14911 0.0
C1681 C 0.56394 0.19819 0.12738 0.0
C1682 C 0.55764 0.17297 0.12662 0.0
C1683 C 0.55057 0.16275 0.14663 0.0
C1684 C 0.54698 0.13515 0.14207 0.0
C1685 C 0.5624 0.1258 0.16149 0.0
C1686 C 0.52254 0.12321 0.14145 0.0
C1687 C 0.55341 0.13158 0.11659 0.0
C1688 C 0.55907 0.15348 0.10768 0.0
C1689 C 0.56486 0.15443 0.0841 0.0
C1690 C 0.56461 0.13221 0.06913 0.0
C1691 C 0.55919 0.10973 0.07828 0.0
C1692 C 0.5538 0.10959 0.10238 0.0
H1693 H 0.10133 0.34358 0.36919 0.0
H1694 H 0.10093 0.31136 0.43734 0.0
H1695 H 0.13429 0.29586 0.43038 0.0
H1696 H 0.11412 0.29464 0.33434 0.0
H1697 H 0.13167 0.31254 0.3168 0.0
H1698 H 0.11001 0.32466 0.32893 0.0
H1699 H 0.13858 0.36328 0.35214 0.0
H1700 H 0.16034 0.35143 0.33978 0.0
H1701 H 0.16248 0.35966 0.37292 0.0
H1702 H 0.16506 0.2804 0.4141 0.0
H1703 H 0.19189 0.26648 0.38963 0.0
H1704 H 0.17144 0.30772 0.3316 0.0
C1705 C 0.1086 0.33386 0.38302 0.0
C1706 C 0.09861 0.32873 0.40384 0.0
C1707 C 0.10835 0.31549 0.42124 0.0
C1708 C 0.12731 0.30668 0.4175 0.0
C1709 C 0.13627 0.31128 0.3963 0.0
C1710 C 0.12736 0.3247 0.37942 0.0
C1711 C 0.13894 0.32516 0.35704 0.0
C1712 C 0.12271 0.31355 0.33286 0.0
C1713 C 0.15079 0.35145 0.35538 0.0
C1714 C 0.15533 0.30933 0.36368 0.0
C1715 C 0.15374 0.30181 0.38656 0.0
C1716 C 0.16668 0.28639 0.3963 0.0
C1717 C 0.1818 0.27858 0.3823 0.0
C1718 C 0.18359 0.28602 0.35879 0.0
C1719 C 0.17021 0.3016 0.34944 0.0
H1720 H 1.00444 0.04357 0.23346 0.0
H1721 H 0.94606 0.98931 0.19717 0.0
H1722 H 0.95823 0.99254 0.15638 0.0
H1723 H 1.00393 0.08192 0.18485 0.0
H1724 H 0.03369 0.09025 0.18862 0.0
H1725 H 1.0206 0.08291 0.21477 0.0
H1726 H 0.04361 0.04957 0.22119 0.0
H1727 H 0.05672 0.05679 0.19504 0.0
H1728 H 0.04261 0.02575 0.19567 0.0
H1729 H 0.97869 1.00029 0.11941 0.0
H1730 H 1.00304 1.01513 0.08984 0.0
H1731 H 0.04567 0.06698 0.15022 0.0
C1732 C 0.99423 0.03232 0.21693 0.0
C1733 C 0.97439 1.016 0.21852 0.0
C1734 C 0.96133 1.00192 0.1964 0.0
C1735 C 0.96816 1.00359 0.17315 0.0
C1736 C 0.9879 1.01981 0.17222 0.0
C1737 C 1.00052 0.03423 0.19355 0.0
C1738 C 1.02055 0.05097 0.18755 0.0
C1739 C 1.01963 0.07812 0.19435 0.0
C1740 C 0.04214 0.04543 0.20064 0.0
C1741 C 1.01743 0.0436 0.15958 0.0
C1742 C 0.99869 0.02535 0.15102 0.0
C1743 C 0.9932 1.01483 0.12593 0.0
C1744 C 1.0071 0.02331 0.10924 0.0
C1745 C 0.02599 0.04247 0.1176 0.0
C1746 C 0.03108 0.05266 0.14312 0.0
H1747 H 0.38517 0.72568 0.55056 0.0
H1748 H 0.35481 0.65042 0.51869 0.0
H1749 H 0.34547 0.66335 0.47785 0.0
H1750 H 0.34713 0.751 0.52719 0.0
H1751 H 0.3629 0.7785 0.51926 0.0
H1752 H 0.37492 0.76367 0.54336 0.0
H1753 H 0.40794 0.75948 0.521 0.0
H1754 H 0.39676 0.77547 0.49719 0.0
H1755 H 0.403 0.74582 0.48875 0.0
H1756 H 0.33067 0.68484 0.44513 0.0
H1757 H 0.31547 0.71345 0.4201 0.0
H1758 H 0.35432 0.77528 0.47325 0.0
C1759 C 0.37795 0.71184 0.53453 0.0
C1760 C 0.37081 0.68714 0.53742 0.0
C1761 C 0.36059 0.6694 0.5165 0.0
C1762 C 0.3552 0.6766 0.49329 0.0
C1763 C 0.36056 0.7015 0.49142 0.0
C1764 C 0.37233 0.71885 0.51126 0.0
C1765 C 0.37298 0.7447 0.50546 0.0
C1766 C 0.36392 0.76034 0.52496 0.0
C1767 C 0.39657 0.75709 0.50294 0.0
C1768 C 0.35784 0.73916 0.48051 0.0
C1769 C 0.35147 0.71416 0.47239 0.0
C1770 C 0.33612 0.70447 0.45084 0.0
C1771 C 0.32743 0.72079 0.43691 0.0
C1772 C 0.33384 0.74643 0.44487 0.0
C1773 C 0.34921 0.75571 0.4669 0.0
H1774 H 0.66342 0.04814 0.73057 0.0
H1775 H 0.61835 0.98994 0.75417 0.0
H1776 H 0.59249 0.98599 0.71491 0.0
H1777 H 0.62027 0.07615 0.70066 0.0
H1778 H 0.63372 0.08399 0.67487 0.0
H1779 H 0.65003 0.08171 0.70406 0.0
H1780 H 0.66836 0.05013 0.68133 0.0
H1781 H 0.65201 0.05225 0.65208 0.0
H1782 H 0.6512 0.02283 0.66241 0.0
H1783 H 0.56987 0.98832 0.6732 0.0
H1784 H 0.55166 0.99808 0.63403 0.0
H1785 H 0.60856 0.05596 0.63375 0.0
C1786 C 0.6483 0.03423 0.72734 0.0
C1787 C 0.64357 1.019 0.74626 0.0
C1788 C 0.62301 1.00174 0.74071 0.0
C1789 C 0.60798 0.99933 0.71811 0.0
C1790 C 0.61295 1.01446 0.70023 0.0
C1791 C 0.63259 0.03173 0.70448 0.0
C1792 C 0.63291 0.04631 0.6821 0.0
C1793 C 0.63433 0.07367 0.69095 0.0
C1794 C 0.65228 0.04268 0.6687 0.0
C1795 C 0.61046 0.03467 0.6649 0.0
C1796 C 0.59951 1.01614 0.67597 0.0
C1797 C 0.57851 1.00274 0.66451 0.0
C1798 C 0.56821 1.00843 0.64183 0.0
C1799 C 0.5783 0.02748 0.62958 0.0
C1800 C 0.60017 0.04074 0.6416 0.0
H1801 H 0.32017 0.40803 0.98709 0.0
H1802 H 0.35547 0.36306 0.03009 0.0
H1803 H 0.35639 0.33619 0.99145 0.0
H1804 H 0.2857 0.35682 0.94335 0.0
H1805 H 0.28579 0.37335 0.91712 0.0
H1806 H 0.28865 0.38972 0.94808 0.0
H1807 H 0.32518 0.41741 0.94207 0.0
H1808 H 0.32249 0.40102 0.91114 0.0
H1809 H 0.34727 0.40346 0.93343 0.0
H1810 H 0.35504 0.31508 0.94782 0.0
H1811 H 0.34729 0.29831 0.9029 0.0
H1812 H 0.31013 0.3545 0.88826 0.0
C1813 C 0.32807 0.39251 0.98833 0.0
C1814 C 0.33778 0.3877 1.01168 0.0
C1815 C 0.34777 0.36706 1.01249 0.0
C1816 C 0.34852 0.35175 0.9906 0.0
C1817 C 0.33887 0.35698 0.9679 0.0
C1818 C 0.32849 0.37661 0.96661 0.0
C1819 C 0.31845 0.37735 0.93987 0.0
C1820 C 0.29315 0.37411 0.93694 0.0
C1821 C 0.32898 0.40123 0.93112 0.0
C1822 C 0.32492 0.35521 0.92642 0.0
C1823 C 0.33701 0.34396 0.94289 0.0
C1824 C 0.34541 0.32361 0.93477 0.0
C1825 C 0.34103 0.31428 0.90921 0.0
C1826 C 0.32801 0.32496 0.8921 0.0
C1827 C 0.31997 0.34578 0.90093 0.0
H1828 H 0.96884 0.04259 0.38627 0.0
H1829 H 1.00572 0.99878 0.3449 0.0
H1830 H 0.03017 0.99732 0.3841 0.0
H1831 H 1.01707 0.07843 0.4315 0.0
H1832 H 1.00145 0.07913 0.45668 0.0
H1833 H 0.98781 0.07782 0.42517 0.0
H1834 H 0.95984 0.03876 0.42987 0.0
H1835 H 0.97362 0.03985 0.46125 0.0
H1836 H 0.96999 1.01252 0.43889 0.0
H1837 H 0.04816 0.99701 0.4287 0.0
H1838 H 0.06086 1.00199 0.47424 0.0
H1839 H 1.0139 0.04831 0.48609 0.0
C1840 C 0.98228 0.03302 0.38538 0.0
C1841 C 0.98535 1.02083 0.3624 0.0
C1842 C 1.00313 1.00847 0.36215 0.0
C1843 C 1.01705 1.00742 0.38438 0.0
C1844 C 1.01326 1.01917 0.40674 0.0
C1845 C 0.99657 0.03217 0.40732 0.0
C1846 C 0.99587 0.04306 0.4338 0.0
C1847 C 1.00085 0.07128 0.43696 0.0
C1848 C 0.9735 0.03294 0.44139 0.0
C1849 C 1.01448 0.0338 0.44807 0.0
C1850 C 0.02421 1.01988 0.43218 0.0
C1851 C 0.04089 1.00821 0.44125 0.0
C1852 C 0.04793 1.01103 0.46716 0.0
C1853 C 0.03854 0.02569 0.48373 0.0
C1854 C 1.02165 0.03726 0.47391 0.0
H1855 H 0.38793 0.71055 0.67833 0.0
H1856 H 0.34171 0.64165 0.6749 0.0
H1857 H 0.32521 0.66025 0.70846 0.0
H1858 H 0.38867 0.73615 0.74859 0.0
H1859 H 0.38915 0.76636 0.74033 0.0
H1860 H 0.40363 0.74596 0.72461 0.0
H1861 H 0.38251 0.75133 0.68249 0.0
H1862 H 0.36713 0.77086 0.69746 0.0
H1863 H 0.35265 0.74349 0.67654 0.0
H1864 H 0.3051 0.68849 0.7281 0.0
H1865 H 0.28849 0.72326 0.74222 0.0
H1866 H 0.34699 0.77462 0.73333 0.0
C1867 C 0.37551 0.69892 0.68603 0.0
C1868 C 0.36597 0.67478 0.67407 0.0
C1869 C 0.34927 0.66018 0.68397 0.0
C1870 C 0.33969 0.67069 0.70294 0.0
C1871 C 0.34731 0.69563 0.71191 0.0
C1872 C 0.36548 0.70944 0.70456 0.0
C1873 C 0.36766 0.73667 0.7131 0.0
C1874 C 0.3885 0.74688 0.73285 0.0
C1875 C 0.36746 0.75141 0.69108 0.0
C1876 C 0.34688 0.73608 0.72431 0.0
C1877 C 0.33552 0.71225 0.72375 0.0
C1878 C 0.31428 0.70717 0.72964 0.0
C1879 C 0.30482 0.72693 0.7372 0.0
C1880 C 0.31661 0.75129 0.73878 0.0
C1881 C 0.33781 0.75598 0.73224 0.0
H1882 H 0.67923 0.04099 0.92905 0.0
H1883 H 0.62572 1.02184 0.86582 0.0
H1884 H 0.59875 0.02307 0.89444 0.0
H1885 H 0.64958 1.00548 0.97181 0.0
H1886 H 0.66069 0.02793 0.99921 0.0
H1887 H 0.6763 0.02546 0.97413 0.0
H1888 H 0.67872 0.07139 0.97123 0.0
H1889 H 0.66309 0.07397 0.99627 0.0
H1890 H 0.65366 0.08302 0.96684 0.0
H1891 H 0.57596 0.02672 0.93081 0.0
H1892 H 0.56051 0.0318 0.9693 0.0
H1893 H 0.6268 0.04863 1.01248 0.0
C1894 C 0.66183 0.03686 0.92104 0.0
C1895 C 0.6553 0.03107 0.89411 0.0
C1896 C 0.63198 0.02619 0.88561 0.0
C1897 C 0.61622 0.0269 0.90207 0.0
C1898 C 0.62316 0.03262 0.92803 0.0
C1899 C 0.64552 0.0375 0.93757 0.0
C1900 C 0.64825 0.04326 0.96648 0.0
C1901 C 0.65938 0.02442 0.97863 0.0
C1902 C 0.66174 0.06947 0.97576 0.0
C1903 C 0.62412 0.04091 0.97171 0.0
C1904 C 0.61004 0.03473 0.94898 0.0
C1905 C 0.58712 0.03154 0.94847 0.0
C1906 C 0.57832 0.03454 0.97098 0.0
C1907 C 0.59173 0.04075 0.99515 0.0
C1908 C 0.6154 0.04398 0.995 0.0
H1909 H 0.3343 0.4009 0.178 0.0
H1910 H 0.33507 0.33822 0.1237 0.0
H1911 H 0.33071 0.31115 0.15532 0.0
H1912 H 0.36373 0.37995 0.23215 0.0
H1913 H 0.34698 0.39039 0.25363 0.0
H1914 H 0.35143 0.40596 0.22729 0.0
H1915 H 0.3091 0.39915 0.21315 0.0
H1916 H 0.30455 0.38363 0.23947 0.0
H1917 H 0.2924 0.36846 0.2084 0.0
H1918 H 0.3251 0.28989 0.19138 0.0
H1919 H 0.31696 0.27522 0.23025 0.0
H1920 H 0.31892 0.34993 0.26346 0.0
C1921 C 0.33376 0.38152 0.1729 0.0
C1922 C 0.3351 0.37187 0.14808 0.0
C1923 C 0.33402 0.34628 0.14231 0.0
C1924 C 0.33162 0.33062 0.16026 0.0
C1925 C 0.33016 0.34049 0.18428 0.0
C1926 C 0.33108 0.36529 0.1908 0.0
C1927 C 0.32807 0.37046 0.21799 0.0
C1928 C 0.34879 0.38772 0.2337 0.0
C1929 C 0.30729 0.38105 0.21986 0.0
C1930 C 0.32517 0.34472 0.22542 0.0
C1931 C 0.32663 0.32788 0.20554 0.0
C1932 C 0.324 0.30291 0.20711 0.0
C1933 C 0.31938 0.29472 0.22936 0.0
C1934 C 0.31738 0.31128 0.25006 0.0
C1935 C 0.32062 0.33678 0.24812 0.0
H1936 H 0.20722 0.92841 0.05 0.0
H1937 H 0.16811 0.92958 0.9786 0.0
H1938 H 0.14167 0.94801 0.99975 0.0
H1939 H 0.15902 0.92757 0.0903 0.0
H1940 H 0.17841 0.94835 0.11471 0.0
H1941 H 0.18755 0.92483 0.09598 0.0
H1942 H 0.218 0.95834 0.08545 0.0
H1943 H 0.20864 0.98198 0.10316 0.0
H1944 H 0.21016 0.98325 0.07076 0.0
H1945 H 0.12789 0.97774 0.02534 0.0
H1946 H 0.12723 1.01528 0.05312 0.0
H1947 H 0.17687 0.99893 0.10851 0.0
C1948 C 0.19219 0.93093 0.03901 0.0
C1949 C 0.18938 0.92726 1.01278 0.0
C1950 C 0.17024 0.93188 0.99874 0.0
C1951 C 0.15515 0.94235 1.01068 0.0
C1952 C 0.1596 0.94823 0.03659 0.0
C1953 C 0.17752 0.94229 0.05073 0.0
C1954 C 0.18203 0.95594 0.07715 0.0
C1955 C 0.17641 0.93811 0.09563 0.0
C1956 C 0.20611 0.97075 0.0845 0.0
C1957 C 0.16568 0.97258 0.07479 0.0
C1958 C 0.15216 0.96694 0.05165 0.0
C1959 C 0.1379 0.98183 0.04371 0.0
C1960 C 0.13789 1.0033 0.05942 0.0
C1961 C 0.1523 1.0099 0.08261 0.0
C1962 C 0.16568 0.99395 0.09086 0.0
H1963 H 0.69042 0.64977 0.02441 0.0
H1964 H 0.73922 0.61466 0.06169 0.0
H1965 H 0.70949 0.58326 0.07093 0.0
H1966 H 0.65175 0.63896 0.06836 0.0
H1967 H 0.62707 0.63311 0.04518 0.0
H1968 H 0.65192 0.65316 0.04056 0.0
H1969 H 0.6517 0.62604 0.99813 0.0
H1970 H 0.62593 0.60784 1.00278 0.0
H1971 H 0.64846 0.59328 0.9975 0.0
H1972 H 0.67541 0.55432 0.07438 0.0
H1973 H 0.63808 0.53007 0.07395 0.0
H1974 H 0.60919 0.58355 0.03701 0.0
C1975 C 0.69472 0.63537 0.03441 0.0
C1976 C 0.71728 0.63419 0.04153 0.0
C1977 C 0.72218 0.61548 0.05524 0.0
C1978 C 0.70536 0.59762 0.06077 0.0
C1979 C 0.68342 0.59879 0.05299 0.0
C1980 C 0.67789 0.61721 0.0403 0.0
C1981 C 0.65269 0.61406 0.03479 0.0
C1982 C 0.64543 0.63614 0.04801 0.0
C1983 C 0.64422 0.61011 1.00661 0.0
C1984 C 0.64512 0.59081 0.04595 0.0
C1985 C 0.66331 0.58246 0.05626 0.0
C1986 C 0.66104 0.56082 0.06663 0.0
C1987 C 0.6397 0.54712 0.06627 0.0
C1988 C 0.62064 0.55499 0.05583 0.0
C1989 C 0.6234 0.57736 0.04572 0.0
H1990 H 0.70885 0.51463 0.37193 0.0
H1991 H 0.65436 0.49788 0.30961 0.0
H1992 H 0.66604 0.45949 0.29564 0.0
H1993 H 0.74707 0.50019 0.33897 0.0
H1994 H 0.76247 0.48761 0.36281 0.0
H1995 H 0.74682 0.51006 0.37138 0.0
H1996 H 0.72528 0.48019 0.39647 0.0
H1997 H 0.74109 0.45763 0.38815 0.0
H1998 H 0.71128 0.44976 0.38141 0.0
H1999 H 0.68716 0.42616 0.28523 0.0
H2000 H 0.71547 0.40179 0.27904 0.0
H2001 H 0.75754 0.44375 0.34629 0.0
C2002 C 0.69882 0.50257 0.35579 0.0
C2003 C 0.68058 0.50932 0.34194 0.0
C2004 C 0.66822 0.49304 0.32072 0.0
C2005 C 0.67477 0.47119 0.31264 0.0
C2006 C 0.69359 0.46583 0.32606 0.0
C2007 C 0.70529 0.48103 0.34736 0.0
C2008 C 0.72656 0.47328 0.35663 0.0
C2009 C 0.74691 0.49401 0.35747 0.0
C2010 C 0.72601 0.4647 0.38218 0.0
C2011 C 0.72558 0.452 0.3366 0.0
C2012 C 0.70622 0.4475 0.31948 0.0
C2013 C 0.70228 0.42945 0.29866 0.0
C2014 C 0.71864 0.4159 0.29514 0.0
C2015 C 0.73897 0.42084 0.31204 0.0
C2016 C 0.74214 0.43896 0.3332 0.0
H2017 H 0.80947 0.43787 0.52079 0.0
H2018 H 0.7996 0.38981 0.45053 0.0
H2019 H 0.83931 0.40337 0.44783 0.0
H2020 H 0.85317 0.48875 0.51377 0.0
H2021 H 0.86614 0.48939 0.54514 0.0
H2022 H 0.83672 0.47806 0.5364 0.0
H2023 H 0.84516 0.43879 0.55549 0.0
H2024 H 0.87461 0.45054 0.55976 0.0
H2025 H 0.86253 0.42113 0.54111 0.0
H2026 H 0.8792 0.42429 0.45186 0.0
H2027 H 0.91768 0.44787 0.46394 0.0
H2028 H 0.90223 0.47869 0.53405 0.0
C2029 C 0.81574 0.43063 0.50469 0.0
C2030 C 0.80163 0.41381 0.48521 0.0
C2031 C 0.81028 0.40338 0.4651 0.0
C2032 C 0.83271 0.41088 0.46352 0.0
C2033 C 0.84625 0.4278 0.48291 0.0
C2034 C 0.83823 0.43708 0.50342 0.0
C2035 C 0.85673 0.45273 0.52299 0.0
C2036 C 0.85286 0.47874 0.52995 0.0
C2037 C 0.85994 0.44003 0.5462 0.0
C2038 C 0.87602 0.4529 0.50915 0.0
C2039 C 0.86968 0.43804 0.48627 0.0
C2040 C 0.88441 0.43585 0.46978 0.0
C2041 C 0.90614 0.44949 0.47672 0.0
C2042 C 0.91287 0.46524 0.49986 0.0
C2043 C 0.89764 0.46661 0.51638 0.0
H2044 H 0.41977 0.15952 0.30897 0.0
H2045 H 0.36149 0.10359 0.30987 0.0
H2046 H 0.33888 0.1341 0.30932 0.0
H2047 H 0.40245 0.20709 0.35124 0.0
H2048 H 0.41239 0.23283 0.3361 0.0
H2049 H 0.42532 0.20666 0.33464 0.0
H2050 H 0.41801 0.20136 0.28672 0.0
H2051 H 0.40568 0.22805 0.28849 0.0
H2052 H 0.39039 0.19935 0.27041 0.0
H2053 H 0.31999 0.17083 0.3089 0.0
H2054 H 0.30786 0.20999 0.3105 0.0
H2055 H 0.37568 0.24826 0.31335 0.0
C2056 C 0.40219 0.15338 0.30849 0.0
C2057 C 0.39314 0.1272 0.30822 0.0
C2058 C 0.36983 0.12201 0.30884 0.0
C2059 C 0.35637 0.13981 0.30888 0.0
C2060 C 0.3655 0.16461 0.30907 0.0
C2061 C 0.38799 0.17174 0.30918 0.0
C2062 C 0.39296 0.20045 0.31069 0.0
C2063 C 0.40927 0.21248 0.33459 0.0
C2064 C 0.40234 0.20776 0.28769 0.0
C2065 C 0.36999 0.20787 0.31117 0.0
C2066 C 0.35453 0.18644 0.31005 0.0
C2067 C 0.3322 0.18758 0.30984 0.0
C2068 C 0.3253 0.21048 0.31073 0.0
C2069 C 0.34011 0.23358 0.3121 0.0
C2070 C 0.36324 0.23171 0.3124 0.0
H2071 H 0.32203 0.11696 0.51201 0.0
H2072 H 0.34267 0.1838 0.56569 0.0
H2073 H 0.37947 0.17403 0.57629 0.0
H2074 H 0.34974 0.07955 0.54851 0.0
H2075 H 0.35742 0.06249 0.52238 0.0
H2076 H 0.333 0.07524 0.51807 0.0
H2077 H 0.34797 0.09837 0.48385 0.0
H2078 H 0.37244 0.08567 0.48804 0.0
H2079 H 0.37498 0.11847 0.49084 0.0
H2080 H 0.41405 0.15648 0.58195 0.0
H2081 H 0.44315 0.13232 0.58287 0.0
H2082 H 0.40051 0.07663 0.52553 0.0
C2083 C 0.33433 0.12972 0.52582 0.0
C2084 C 0.32927 0.15132 0.53788 0.0
C2085 C 0.34593 0.16721 0.55609 0.0
C2086 C 0.36698 0.16181 0.56225 0.0
C2087 C 0.37131 0.14036 0.55015 0.0
C2088 C 0.35545 0.12454 0.53233 0.0
C2089 C 0.36418 0.10231 0.52267 0.0
C2090 C 0.35025 0.07849 0.52825 0.0
C2091 C 0.36494 0.10114 0.49469 0.0
C2092 C 0.38738 0.10803 0.53794 0.0
C2093 C 0.39118 0.13014 0.55356 0.0
C2094 C 0.41127 0.13922 0.56964 0.0
C2095 C 0.42785 0.12537 0.56988 0.0
C2096 C 0.42445 0.10249 0.55417 0.0
C2097 C 0.4038 0.09389 0.53794 0.0
H2098 H 0.69001 0.66557 0.35306 0.0
H2099 H 0.71485 0.60481 0.31916 0.0
H2100 H 0.74738 0.63351 0.31187 0.0
H2101 H 0.7084 0.70644 0.30837 0.0
H2102 H 0.71545 0.73399 0.33094 0.0
H2103 H 0.6937 0.70899 0.33422 0.0
H2104 H 0.71377 0.70681 0.37882 0.0
H2105 H 0.73438 0.7328 0.37525 0.0
H2106 H 0.74264 0.70527 0.38303 0.0
H2107 H 0.77864 0.667 0.31188 0.0
H2108 H 0.8054 0.70579 0.31298 0.0
H2109 H 0.76023 0.74682 0.34268 0.0
C2110 C 0.7024 0.6585 0.34418 0.0
C2111 C 0.70054 0.6329 0.33771 0.0
C2112 C 0.71652 0.62426 0.32525 0.0
C2113 C 0.73498 0.64042 0.32084 0.0
C2114 C 0.73699 0.66536 0.32838 0.0
C2115 C 0.72102 0.67463 0.33924 0.0
C2116 C 0.72716 0.70261 0.34414 0.0
C2117 C 0.71017 0.71365 0.32848 0.0
C2118 C 0.72961 0.71241 0.37197 0.0
C2119 C 0.74939 0.70723 0.33525 0.0
C2120 C 0.75463 0.68534 0.32639 0.0
C2121 C 0.77464 0.68435 0.31835 0.0
C2122 C 0.78976 0.70638 0.31915 0.0
C2123 C 0.78468 0.72907 0.32764 0.0
C2124 C 0.76423 0.7296 0.33573 0.0
H2125 H 0.91681 0.4775 0.82593 0.0
H2126 H 0.86814 0.5012 0.77523 0.0
H2127 H 0.84324 0.4604 0.77091 0.0
H2128 H 0.9053 0.41376 0.79305 0.0
H2129 H 0.90948 0.39984 0.82082 0.0
H2130 H 0.9239 0.43082 0.82037 0.0
H2131 H 0.90735 0.44728 0.85865 0.0
H2132 H 0.89529 0.41556 0.8594 0.0
H2133 H 0.87798 0.43761 0.85807 0.0
H2134 H 0.82293 0.41488 0.77086 0.0
H2135 H 0.80926 0.37189 0.77689 0.0
H2136 H 0.86884 0.37609 0.82985 0.0
C2137 C 0.90083 0.47423 0.81404 0.0
C2138 C 0.89457 0.49368 0.80142 0.0
C2139 C 0.87353 0.48758 0.78568 0.0
C2140 C 0.85915 0.46408 0.783 0.0
C2141 C 0.8655 0.44575 0.79605 0.0
C2142 C 0.88591 0.45058 0.81141 0.0
C2143 C 0.88875 0.42719 0.82287 0.0
C2144 C 0.90801 0.41732 0.81374 0.0
C2145 C 0.89259 0.43228 0.85144 0.0
C2146 C 0.86651 0.40897 0.81255 0.0
C2147 C 0.85362 0.41996 0.79655 0.0
C2148 C 0.83297 0.4065 0.78364 0.0
C2149 C 0.82523 0.38175 0.78718 0.0
C2150 C 0.83742 0.36988 0.80412 0.0
C2151 C 0.85858 0.38418 0.81699 0.0
H2152 H 0.07145 0.86579 0.09843 0.0
H2153 H 0.1114 0.89051 0.17179 0.0
H2154 H 0.11559 0.93358 0.16362 0.0
H2155 H 0.10182 0.91143 0.06642 0.0
H2156 H 0.07703 0.91429 0.04672 0.0
H2157 H 0.07868 0.88563 0.05788 0.0
H2158 H 0.04299 0.88664 0.07668 0.0
H2159 H 0.04129 0.91529 0.06564 0.0
H2160 H 0.04185 0.91308 0.09822 0.0
H2161 H 0.11299 0.9747 0.14791 0.0
H2162 H 0.10361 1.00891 0.12684 0.0
H2163 H 0.06607 0.95684 0.06362 0.0
C2164 C 0.08127 0.88013 0.11285 0.0
C2165 C 0.09107 0.8745 0.13589 0.0
C2166 C 0.10374 0.89412 0.15401 0.0
C2167 C 0.10622 0.91871 0.14949 0.0
C2168 C 0.09608 0.92349 0.12667 0.0
C2169 C 0.08393 0.90463 0.10863 0.0
C2170 C 0.07395 0.91444 0.08598 0.0
C2171 C 0.08344 0.90594 0.06289 0.0
C2172 C 0.04852 0.90692 0.08138 0.0
C2173 C 0.08183 0.94188 0.09423 0.0
C2174 C 0.0948 0.9468 0.11763 0.0
C2175 C 0.10321 0.97092 0.12942 0.0
C2176 C 0.09806 0.99033 0.11715 0.0
C2177 C 0.08474 0.98573 0.09323 0.0
C2178 C 0.0766 0.96107 0.08171 0.0
H2179 H 0.94504 0.2916 0.93726 0.0
H2180 H 0.96948 0.24237 0.88622 0.0
H2181 H 0.93568 0.23824 0.85536 0.0
H2182 H 0.88593 0.25705 0.91845 0.0
H2183 H 0.87522 0.28459 0.92302 0.0
H2184 H 0.90097 0.28272 0.94134 0.0
H2185 H 0.92102 0.3229 0.92535 0.0
H2186 H 0.89356 0.32342 0.9102 0.0
H2187 H 0.91536 0.32395 0.8923 0.0
H2188 H 0.90162 0.24138 0.82895 0.0
H2189 H 0.86636 0.24816 0.80853 0.0
H2190 H 0.86094 0.29518 0.87528 0.0
C2191 C 0.94316 0.28003 0.91951 0.0
C2192 C 0.96033 0.26799 0.91368 0.0
C2193 C 0.95696 0.25235 0.89072 0.0
C2194 C 0.93774 0.24982 0.87312 0.0
C2195 C 0.92165 0.26274 0.8788 0.0
C2196 C 0.92382 0.27729 0.90151 0.0
C2197 C 0.9031 0.28804 0.90278 0.0
C2198 C 0.89056 0.27743 0.92256 0.0
C2199 C 0.90869 0.31624 0.90801 0.0
C2200 C 0.88992 0.27871 0.87656 0.0
C2201 C 0.90099 0.26381 0.86346 0.0
C2202 C 0.89271 0.25286 0.83904 0.0
C2203 C 0.87254 0.25696 0.82756 0.0
C2204 C 0.86063 0.2723 0.84009 0.0
C2205 C 0.86958 0.28346 0.86507 0.0
H2206 H 0.56058 0.22213 0.65423 0.0
H2207 H 0.60358 0.25874 0.60856 0.0
H2208 H 0.60354 0.21862 0.58433 0.0
H2209 H 0.58633 0.17019 0.65663 0.0
H2210 H 0.56103 0.14811 0.65565 0.0
H2211 H 0.56346 0.17967 0.66888 0.0
H2212 H 0.52849 0.18295 0.63781 0.0
H2213 H 0.52584 0.1508 0.62675 0.0
H2214 H 0.52701 0.17244 0.60512 0.0
H2215 H 0.6004 0.17418 0.56636 0.0
H2216 H 0.59263 0.12897 0.55454 0.0
H2217 H 0.5504 0.12086 0.61053 0.0
C2218 C 0.56969 0.22161 0.63887 0.0
C2219 C 0.5815 0.24359 0.63267 0.0
C2220 C 0.59384 0.24219 0.61303 0.0
C2221 C 0.59403 0.21946 0.59929 0.0
C2222 C 0.58193 0.19814 0.60553 0.0
C2223 C 0.56986 0.19898 0.62477 0.0
C2224 C 0.55891 0.17321 0.62813 0.0
C2225 C 0.56798 0.16746 0.65385 0.0
C2226 C 0.53357 0.1697 0.62423 0.0
C2227 C 0.56629 0.15786 0.60746 0.0
C2228 C 0.57987 0.17258 0.59492 0.0
C2229 C 0.58959 0.16252 0.57588 0.0
C2230 C 0.58516 0.13681 0.56934 0.0
C2231 C 0.57076 0.1214 0.5814 0.0
C2232 C 0.56122 0.13219 0.6007 0.0
H2233 H 0.5796 0.80701 0.3984 0.0
H2234 H 0.5829 0.75037 0.44542 0.0
H2235 H 0.61965 0.74715 0.43468 0.0
H2236 H 0.60376 0.78101 0.35004 0.0
H2237 H 0.61859 0.81011 0.34433 0.0
H2238 H 0.59319 0.80841 0.35661 0.0
H2239 H 0.61334 0.84137 0.39413 0.0
H2240 H 0.63879 0.84326 0.38192 0.0
H2241 H 0.63777 0.8366 0.41312 0.0
H2242 H 0.656 0.74915 0.41642 0.0
H2243 H 0.68762 0.75659 0.39383 0.0
H2244 H 0.66035 0.81311 0.36045 0.0
C2245 C 0.58799 0.79395 0.40666 0.0
C2246 C 0.57814 0.7789 0.42283 0.0
C2247 C 0.58998 0.76219 0.4331 0.0
C2248 C 0.61089 0.76021 0.42703 0.0
C2249 C 0.61992 0.77519 0.41079 0.0
C2250 C 0.60881 0.79187 0.40095 0.0
C2251 C 0.62173 0.80576 0.38376 0.0
C2252 C 0.60853 0.80103 0.35711 0.0
C2253 C 0.6283 0.83338 0.39384 0.0
C2254 C 0.64182 0.79417 0.38511 0.0
C2255 C 0.64058 0.77658 0.40078 0.0
C2256 C 0.65712 0.76308 0.40432 0.0
C2257 C 0.67519 0.76758 0.39148 0.0
C2258 C 0.67676 0.7855 0.3752 0.0
C2259 C 0.65976 0.79903 0.37236 0.0
H2260 H 1.01474 0.26403 0.46743 0.0
H2261 H 0.0247 0.23985 0.39268 0.0
H2262 H 1.01764 0.19663 0.40074 0.0
H2263 H 0.04226 0.22578 0.4972 0.0
H2264 H 0.02377 0.22041 0.5193 0.0
H2265 H 0.02666 0.24838 0.50606 0.0
H2266 H 0.98422 0.23925 0.49061 0.0
H2267 H 0.98123 0.21107 0.50373 0.0
H2268 H 0.97087 0.21053 0.47124 0.0
H2269 H 1.01504 0.15716 0.41982 0.0
H2270 H 1.01614 0.1254 0.44746 0.0
H2271 H 1.00651 0.1767 0.50846 0.0
C2272 C 1.01513 0.24961 0.45261 0.0
C2273 C 1.0204 0.25506 0.42956 0.0
C2274 C 1.02063 0.23583 0.4105 0.0
C2275 C 1.01658 0.21133 0.41489 0.0
C2276 C 1.01184 0.20661 0.43816 0.0
C2277 C 1.01081 0.22528 0.45654 0.0
C2278 C 1.00701 0.21599 0.48053 0.0
C2279 C 0.02606 0.22836 0.50201 0.0
C2280 C 0.98449 0.21941 0.48689 0.0
C2281 C 1.00704 0.18925 0.47325 0.0
C2282 C 1.0096 0.18398 0.44872 0.0
C2283 C 1.01247 0.16093 0.43886 0.0
C2284 C 1.01315 0.14306 0.45467 0.0
C2285 C 1.01095 0.14845 0.47996 0.0
C2286 C 1.00738 0.17167 0.48902 0.0
H2287 H 0.64508 0.28648 0.26394 0.0
H2288 H 0.63005 0.22525 0.20377 0.0
H2289 H 0.66987 0.22487 0.20688 0.0
H2290 H 0.6925 0.31788 0.24335 0.0
H2291 H 0.70803 0.32949 0.27415 0.0
H2292 H 0.67824 0.32332 0.26914 0.0
H2293 H 0.67802 0.29443 0.30273 0.0
H2294 H 0.70783 0.30075 0.30792 0.0
H2295 H 0.6924 0.26949 0.30006 0.0
H2296 H 0.71127 0.23098 0.21683 0.0
H2297 H 0.75181 0.24552 0.23108 0.0
H2298 H 0.73941 0.30528 0.28118 0.0
C2299 C 0.65028 0.27277 0.25184 0.0
C2300 C 0.63479 0.25566 0.2339 0.0
C2301 C 0.64192 0.23836 0.21774 0.0
C2302 C 0.6644 0.23798 0.21939 0.0
C2303 C 0.67944 0.25534 0.23699 0.0
C2304 C 0.67273 0.27257 0.25279 0.0
C2305 C 0.69236 0.29038 0.26867 0.0
C2306 C 0.6928 0.31683 0.2635 0.0
C2307 C 0.69267 0.28864 0.29649 0.0
C2308 C 0.71101 0.28047 0.25924 0.0
C2309 C 0.70329 0.26001 0.24131 0.0
C2310 C 0.71758 0.24716 0.23067 0.0
C2311 C 0.74045 0.25549 0.23874 0.0
C2312 C 0.7485 0.27674 0.25665 0.0
C2313 C 0.73361 0.28935 0.2669 0.0
H2314 H 0.53463 0.91359 0.92845 0.0
H2315 H 0.551 0.85548 0.96856 0.0
H2316 H 0.55428 0.88234 1.00848 0.0
H2317 H 0.57041 0.96482 0.97082 0.0
H2318 H 0.55055 0.98417 0.96727 0.0
H2319 H 0.55102 0.96065 0.94217 0.0
H2320 H 0.50936 0.94296 0.94183 0.0
H2321 H 0.50915 0.96614 0.96744 0.0
H2322 H 0.50054 0.93411 0.96994 0.0
H2323 H 0.55597 0.91578 0.0442 0.0
H2324 H 0.55774 0.95426 0.07254 0.0
H2325 H 0.53697 0.98845 1.00882 0.0
C2326 C 0.53917 0.90663 0.9456 0.0
C2327 C 0.54255 0.88248 0.94542 0.0
C2328 C 0.54829 0.87396 0.96831 0.0
C2329 C 0.55012 0.88902 0.99108 0.0
C2330 C 0.54591 0.91244 0.99064 0.0
C2331 C 0.54064 0.92124 0.96851 0.0
C2332 C 0.53644 0.9469 0.97319 0.0
C2333 C 0.55311 0.9652 0.96275 0.0
C2334 C 0.51245 0.94755 0.96246 0.0
C2335 C 0.54044 0.9512 1.00135 0.0
C2336 C 0.54592 0.93118 1.01115 0.0
C2337 C 0.55152 0.93154 0.03677 0.0
C2338 C 0.55233 0.95334 0.05274 0.0
C2339 C 0.54744 0.97421 0.04285 0.0
C2340 C 0.54067 0.97272 1.01694 0.0
H2341 H 1.00724 0.76427 0.75621 0.0
H2342 H 0.05763 0.82938 0.78838 0.0
H2343 H 0.03024 0.84711 0.80836 0.0
H2344 H 0.96129 0.79538 0.74486 0.0
H2345 H 0.94146 0.77142 0.75349 0.0
H2346 H 0.96473 0.76405 0.74048 0.0
H2347 H 0.97607 0.74373 0.77898 0.0
H2348 H 0.95289 0.75112 0.79213 0.0
H2349 H 0.98052 0.76123 0.80968 0.0
H2350 H 0.9982 0.85783 0.82532 0.0
H2351 H 0.96272 0.86085 0.83874 0.0
H2352 H 0.93302 0.78815 0.7977 0.0
C2353 C 1.01236 0.78235 0.76724 0.0
C2354 C 0.03453 0.79545 0.77076 0.0
C2355 C 0.04075 0.81894 0.78558 0.0
C2356 C 0.02532 0.82923 0.79695 0.0
C2357 C 1.00373 0.81577 0.79349 0.0
C2358 C 0.99716 0.79284 0.77908 0.0
C2359 C 0.97301 0.78204 0.77928 0.0
C2360 C 0.95932 0.77799 0.75296 0.0
C2361 C 0.97049 0.75811 0.79071 0.0
C2362 C 0.96719 0.8025 0.79605 0.0
C2363 C 0.98516 0.82179 0.8039 0.0
C2364 C 0.98398 0.84281 0.81943 0.0
C2365 C 0.96379 0.84425 0.82714 0.0
C2366 C 0.94509 0.82469 0.81947 0.0
C2367 C 0.94693 0.80353 0.80373 0.0
H2368 H 0.15969 0.04483 0.92454 0.0
H2369 H 0.12948 0.10315 0.89963 0.0
H2370 H 0.10987 0.10364 0.93575 0.0
H2371 H 0.11055 1.01222 0.94371 0.0
H2372 H 0.12559 1.00245 0.96994 0.0
H2373 H 0.13833 1.00776 0.94309 0.0
H2374 H 0.17127 0.0384 0.97142 0.0
H2375 H 0.15843 0.03337 0.99829 0.0
H2376 H 0.16607 0.06405 0.99108 0.0
H2377 H 0.09482 0.09909 0.97543 0.0
H2378 H 0.08017 0.08529 1.01193 0.0
H2379 H 0.11656 0.02666 1.00919 0.0
C2380 C 0.14895 0.05771 0.92678 0.0
C2381 C 0.14618 0.07411 0.90938 0.0
C2382 C 0.13176 0.09042 0.91268 0.0
C2383 C 0.1207 0.09094 0.93324 0.0
C2384 C 0.12387 0.07468 0.95014 0.0
C2385 C 0.13725 0.05797 0.94687 0.0
C2386 C 0.13646 0.04131 0.96685 0.0
C2387 C 0.12717 1.01434 0.9552 0.0
C2388 C 0.15943 0.04448 0.98285 0.0
C2389 C 0.12055 0.05128 0.98182 0.0
C2390 C 0.11395 0.07091 0.97215 0.0
C2391 C 0.09977 0.08364 0.98304 0.0
C2392 C 0.09165 0.07575 1.00393 0.0
C2393 C 0.09727 0.05493 1.01349 0.0
C2394 C 0.11206 0.04267 1.00235 0.0
H2395 H 0.77325 0.39182 0.57896 0.0
H2396 H 0.71311 0.33924 0.5442 0.0
H2397 H 0.71606 0.31665 0.58005 0.0
H2398 H 0.8019 0.34951 0.5998 0.0
H2399 H 0.81599 0.36811 0.62877 0.0
H2400 H 0.80734 0.38255 0.60259 0.0
H2401 H 0.78511 0.40681 0.62909 0.0
H2402 H 0.7939 0.3926 0.65551 0.0
H2403 H 0.76482 0.39044 0.64481 0.0
H2404 H 0.72772 0.29727 0.61686 0.0
H2405 H 0.74715 0.28266 0.65274 0.0
H2406 H 0.80021 0.34723 0.66281 0.0
C2407 C 0.76036 0.37597 0.57924 0.0
C2408 C 0.74288 0.36732 0.55896 0.0
C2409 C 0.7266 0.34619 0.55966 0.0
C2410 C 0.72809 0.33329 0.57995 0.0
C2411 C 0.74591 0.34186 0.59933 0.0
C2412 C 0.76169 0.36279 0.59925 0.0
C2413 C 0.7803 0.36678 0.62121 0.0
C2414 C 0.80269 0.36672 0.61256 0.0
C2415 C 0.78107 0.39057 0.63869 0.0
C2416 C 0.77288 0.34437 0.63315 0.0
C2417 C 0.75286 0.33042 0.62045 0.0
C2418 C 0.74328 0.30817 0.62715 0.0
C2419 C 0.75452 0.29991 0.64734 0.0
C2420 C 0.77517 0.31381 0.66041 0.0
C2421 C 0.78429 0.33643 0.65335 0.0
H2422 H 0.43894 0.05355 0.4037 0.0
H2423 H 0.4883 0.08246 0.36059 0.0
H2424 H 0.5177 0.08289 0.39593 0.0
H2425 H 0.46812 0.08728 0.46547 0.0
H2426 H 0.46064 0.06212 0.48234 0.0
H2427 H 0.44282 0.06473 0.45429 0.0
H2428 H 0.44468 1.02099 0.43536 0.0
H2429 H 0.46243 1.01822 0.46339 0.0
H2430 H 0.47127 1.01341 0.43366 0.0
H2431 H 0.54282 0.08019 0.436 0.0
H2432 H 0.56175 0.07328 0.4758 0.0
H2433 H 0.49848 0.04422 0.49666 0.0
C2434 C 0.45592 0.06021 0.40164 0.0
C2435 C 0.4607 0.06827 0.37846 0.0
C2436 C 0.48352 0.07635 0.3774 0.0
C2437 C 0.50058 0.07663 0.3977 0.0
C2438 C 0.49532 0.06857 0.41982 0.0
C2439 C 0.47351 0.06036 0.42201 0.0
C2440 C 0.47287 0.05195 0.44795 0.0
C2441 C 0.46036 0.06743 0.46343 0.0
C2442 C 0.46216 0.02451 0.44491 0.0
C2443 C 0.49765 0.05673 0.45998 0.0
C2444 C 0.51004 0.06647 0.4431 0.0
C2445 C 0.53309 0.07253 0.44912 0.0
C2446 C 0.54384 0.06844 0.47228 0.0
C2447 C 0.53231 0.05813 0.4905 0.0
C2448 C 0.50841 0.05234 0.48393 0.0
H2449 H 0.81514 0.72967 0.12237 0.0
H2450 H 0.74852 0.68622 0.1148 0.0
H2451 H 0.74645 0.70336 0.15761 0.0
H2452 H 0.83159 0.72082 0.18677 0.0
H2453 H 0.84858 0.75121 0.19643 0.0
H2454 H 0.84486 0.73683 0.16453 0.0
H2455 H 0.8308 0.77409 0.14973 0.0
H2456 H 0.83444 0.78855 0.1816 0.0
H2457 H 0.80786 0.78357 0.1618 0.0
H2458 H 0.75039 0.72554 0.1998 0.0
H2459 H 0.76153 0.74834 0.24208 0.0
H2460 H 0.8273 0.77558 0.22635 0.0
C2461 C 0.80015 0.72396 0.12982 0.0
C2462 C 0.78185 0.70675 0.11521 0.0
C2463 C 0.76266 0.69935 0.12566 0.0
C2464 C 0.7613 0.70906 0.14993 0.0
C2465 C 0.77948 0.72586 0.16392 0.0
C2466 C 0.79873 0.73302 0.15459 0.0
C2467 C 0.81614 0.75035 0.17459 0.0
C2468 C 0.8365 0.73913 0.18095 0.0
C2469 C 0.82269 0.77564 0.16644 0.0
C2470 C 0.80349 0.75186 0.19635 0.0
C2471 C 0.78227 0.73779 0.1894 0.0
C2472 C 0.767 0.73651 0.20556 0.0
C2473 C 0.77351 0.74972 0.22959 0.0
C2474 C 0.7953 0.76389 0.23771 0.0
C2475 C 0.81056 0.76489 0.22078 0.0
H2476 H 0.15069 0.0496 0.74661 0.0
H2477 H 0.10037 0.07987 0.77897 0.0
H2478 H 0.07927 0.07804 0.737 0.0
H2479 H 0.14881 0.07905 0.692 0.0
H2480 H 0.15149 0.05278 0.67124 0.0
H2481 H 0.16315 0.05667 0.7038 0.0
H2482 H 0.14077 1.01361 0.70708 0.0
H2483 H 0.12913 1.00958 0.67449 0.0
H2484 H 0.11115 1.00649 0.69736 0.0
H2485 H 0.06498 0.07605 0.692 0.0
H2486 H 0.05555 0.06894 0.64615 0.0
H2487 H 0.11237 0.03559 0.64166 0.0
C2488 C 0.1352 0.05576 0.74476 0.0
C2489 C 0.12721 0.06504 0.76607 0.0
C2490 C 0.10677 0.07265 0.76296 0.0
C2491 C 0.0947 0.07178 0.73917 0.0
C2492 C 0.10299 0.06269 0.71856 0.0
C2493 C 0.12251 0.05431 0.72101 0.0
C2494 C 0.12705 0.04449 0.6956 0.0
C2495 C 0.14893 0.05913 0.69036 0.0
C2496 C 0.12702 1.0169 0.69351 0.0
C2497 C 0.10726 0.04914 0.67858 0.0
C2498 C 0.09381 0.05996 0.69234 0.0
C2499 C 0.0752 0.06728 0.68103 0.0
C2500 C 0.07004 0.06329 0.65498 0.0
C2501 C 0.08314 0.05163 0.64041 0.0
C2502 C 0.10194 0.04431 0.6524 0.0
H2503 H 0.73013 0.34473 0.43772 0.0
H2504 H 0.71774 0.40379 0.39694 0.0
H2505 H 0.72639 0.38141 0.35938 0.0
H2506 H 0.77731 0.34504 0.42123 0.0
H2507 H 0.77753 0.31277 0.41921 0.0
H2508 H 0.76109 0.32596 0.43909 0.0
H2509 H 0.7255 0.29509 0.41662 0.0
H2510 H 0.74193 0.28081 0.3972 0.0
H2511 H 0.71827 0.29146 0.38319 0.0
H2512 H 0.7444 0.3579 0.32994 0.0
H2513 H 0.77186 0.33798 0.31236 0.0
H2514 H 0.77821 0.29836 0.37527 0.0
C2515 C 0.72786 0.35236 0.42055 0.0
C2516 C 0.72318 0.37602 0.42029 0.0
C2517 C 0.72101 0.38556 0.39752 0.0
C2518 C 0.726 0.37296 0.3761 0.0
C2519 C 0.73312 0.35097 0.37788 0.0
C2520 C 0.7339 0.34067 0.39959 0.0
C2521 C 0.74724 0.32074 0.39917 0.0
C2522 C 0.76694 0.32651 0.42095 0.0
C2523 C 0.73234 0.29553 0.39902 0.0
C2524 C 0.75504 0.32245 0.37456 0.0
C2525 C 0.74594 0.33919 0.3621 0.0
C2526 C 0.75167 0.34488 0.3396 0.0
C2527 C 0.76741 0.33361 0.32989 0.0
C2528 C 0.77746 0.31708 0.3428 0.0
C2529 C 0.77094 0.31117 0.36521 0.0
H2530 H 0.43734 0.04943 0.20051 0.0
H2531 H 0.49473 0.07516 0.25883 0.0
H2532 H 0.51911 0.07208 0.22781 0.0
H2533 H 0.46158 1.00634 0.16203 0.0
H2534 H 0.45 1.01322 0.13232 0.0
H2535 H 0.43605 1.01712 0.15865 0.0
H2536 H 0.43679 0.06225 0.15304 0.0
H2537 H 0.45068 0.05839 0.12664 0.0
H2538 H 0.46283 0.08244 0.15241 0.0
H2539 H 0.53911 0.06504 0.19034 0.0
H2540 H 0.55228 0.05707 0.15085 0.0
H2541 H 0.48438 0.0375 0.11187 0.0
C2542 C 0.45503 0.05456 0.20691 0.0
C2543 C 0.46344 0.0627 0.23338 0.0
C2544 C 0.48703 0.06898 0.23958 0.0
C2545 C 0.50136 0.06721 0.22171 0.0
C2546 C 0.49274 0.05922 0.19638 0.0
C2547 C 0.47004 0.05319 0.18875 0.0
C2548 C 0.46567 0.0456 0.15984 0.0
C2549 C 0.45253 1.01898 0.15279 0.0
C2550 C 0.45323 0.06321 0.14723 0.0
C2551 C 0.48923 0.04796 0.15266 0.0
C2552 C 0.50443 0.0558 0.17441 0.0
C2553 C 0.52711 0.05898 0.17339 0.0
C2554 C 0.53457 0.05421 0.1503 0.0
C2555 C 0.52003 0.04639 0.12694 0.0
C2556 C 0.4966 0.04341 0.12865 0.0
H2557 H 0.78459 0.73086 0.989 0.0
H2558 H 0.75441 0.66152 0.94137 0.0
H2559 H 0.75689 0.68178 0.90452 0.0
H2560 H 0.75787 0.76976 0.94927 0.0
H2561 H 0.78196 0.79443 0.95461 0.0
H2562 H 0.77711 0.77514 0.97816 0.0
H2563 H 0.81582 0.76492 0.97832 0.0
H2564 H 0.82076 0.78416 0.95479 0.0
H2565 H 0.82307 0.75248 0.94954 0.0
H2566 H 0.76458 0.70772 0.87228 0.0
H2567 H 0.77625 0.73879 0.84625 0.0
H2568 H 0.80038 0.79339 0.91219 0.0
C2569 C 0.77826 0.72003 0.97084 0.0
C2570 C 0.76931 0.69434 0.96849 0.0
C2571 C 0.76146 0.68103 0.94413 0.0
C2572 C 0.76273 0.69243 0.92285 0.0
C2573 C 0.77184 0.71743 0.92574 0.0
C2574 C 0.77941 0.73125 0.94902 0.0
C2575 C 0.78896 0.75784 0.94627 0.0
C2576 C 0.77568 0.77533 0.95777 0.0
C2577 C 0.81362 0.76529 0.95793 0.0
C2578 C 0.78579 0.75652 0.91793 0.0
C2579 C 0.77583 0.73291 0.90666 0.0
C2580 C 0.77203 0.7264 0.88088 0.0
C2581 C 0.77863 0.74432 0.86613 0.0
C2582 C 0.78873 0.76883 0.87683 0.0
C2583 C 0.79224 0.775 0.90326 0.0
H2584 H 0.87423 0.09245 0.0538 0.0
H2585 H 0.92497 0.15069 0.09967 0.0
H2586 H 0.95236 0.13965 0.0744 0.0
H2587 H 0.9082 0.04885 0.04539 0.0
H2588 H 0.89457 0.03726 1.01382 0.0
H2589 H 0.87965 0.05021 0.03586 0.0
H2590 H 0.87016 0.08042 1.00562 0.0
H2591 H 0.88582 0.0681 0.98391 0.0
H2592 H 0.89225 0.10051 0.99557 0.0
H2593 H 0.97394 0.12214 0.0443 0.0
H2594 H 0.98972 0.09442 1.01767 0.0
H2595 H 0.92415 0.04955 0.98939 0.0
C2596 C 0.89115 0.10279 0.05877 0.0
C2597 C 0.89745 0.12248 0.07868 0.0
C2598 C 0.9198 0.1354 0.08462 0.0
C2599 C 0.93537 0.12954 0.07012 0.0
C2600 C 0.92822 0.11087 0.0498 0.0
C2601 C 0.90675 0.0974 0.04444 0.0
C2602 C 0.90342 0.07748 0.02235 0.0
C2603 C 0.89604 0.05195 0.02981 0.0
C2604 C 0.88693 0.08191 1.00058 0.0
C2605 C 0.92662 0.08132 1.01648 0.0
C2606 C 0.94056 0.101 0.0322 0.0
C2607 C 0.96314 0.10687 0.03172 0.0
C2608 C 0.97193 0.09112 1.01613 0.0
C2609 C 0.95818 0.06967 1.00138 0.0
C2610 C 0.93507 0.06575 1.00042 0.0
H2611 H 0.4136 0.42429 0.06716 0.0
H2612 H 0.39292 0.47498 0.12037 0.0
H2613 H 0.42875 0.50392 0.12429 0.0
H2614 H 0.47248 0.43967 0.10046 0.0
H2615 H 0.48428 0.43612 0.0725 0.0
H2616 H 0.45738 0.41806 0.07378 0.0
H2617 H 0.43828 0.4356 0.03485 0.0
H2618 H 0.4667 0.44845 0.03332 0.0
H2619 H 0.44737 0.4681 0.03422 0.0
H2620 H 0.4648 0.52869 0.12058 0.0
H2621 H 0.50061 0.548 0.11114 0.0
H2622 H 0.49999 0.48287 0.05936 0.0
C2623 C 0.41675 0.44152 0.0796 0.0
C2624 C 0.40014 0.44782 0.09291 0.0
C2625 C 0.40509 0.47012 0.10955 0.0
C2626 C 0.42547 0.48661 0.11198 0.0
C2627 C 0.44107 0.4805 0.09788 0.0
C2628 C 0.43723 0.45843 0.08217 0.0
C2629 C 0.4576 0.45653 0.07 0.0
C2630 C 0.46858 0.4364 0.07977 0.0
C2631 C 0.45204 0.45185 0.04143 0.0
C2632 C 0.47234 0.48191 0.07946 0.0
C2633 C 0.46259 0.49493 0.09613 0.0
C2634 C 0.47263 0.51863 0.10765 0.0
C2635 C 0.49308 0.5295 0.102 0.0
C2636 C 0.5034 0.51714 0.08443 0.0
C2637 C 0.49278 0.49286 0.07299 0.0
H2638 H 0.43617 0.58879 0.83269 0.0
H2639 H 0.44318 0.57751 0.7551 0.0
H2640 H 0.43035 0.61592 0.74921 0.0
H2641 H 0.38783 0.60359 0.82435 0.0
H2642 H 0.39187 0.62674 0.85129 0.0
H2643 H 0.40776 0.60328 0.85151 0.0
H2644 H 0.44435 0.63609 0.86145 0.0
H2645 H 0.42857 0.65989 0.86193 0.0
H2646 H 0.44906 0.65958 0.84192 0.0
H2647 H 0.40809 0.6491 0.74965 0.0
H2648 H 0.38106 0.67505 0.75696 0.0
H2649 H 0.38921 0.66477 0.83455 0.0
C2650 C 0.43609 0.59514 0.81479 0.0
C2651 C 0.44084 0.58047 0.79441 0.0
C2652 C 0.44006 0.58884 0.77106 0.0
C2653 C 0.43267 0.61057 0.76756 0.0
C2654 C 0.42663 0.62382 0.78774 0.0
C2655 C 0.42884 0.61669 0.81111 0.0
C2656 C 0.41842 0.63176 0.8289 0.0
C2657 C 0.40041 0.61536 0.8396 0.0
C2658 C 0.43616 0.64779 0.84978 0.0
C2659 C 0.40854 0.64726 0.81151 0.0
C2660 C 0.41382 0.64292 0.78798 0.0
C2661 C 0.40442 0.65318 0.76818 0.0
C2662 C 0.38906 0.66789 0.7725 0.0
C2663 C 0.38304 0.6719 0.79635 0.0
C2664 C 0.39346 0.66198 0.81613 0.0
H2665 H 0.29302 0.65198 0.56748 0.0
H2666 H 0.30985 0.72316 0.61391 0.0
H2667 H 0.27 0.72179 0.61418 0.0
H2668 H 0.23861 0.66027 0.5316 0.0
H2669 H 0.22624 0.62841 0.5312 0.0
H2670 H 0.25529 0.63742 0.52997 0.0
H2671 H 0.26495 0.61653 0.56826 0.0
H2672 H 0.23618 0.60742 0.57009 0.0
H2673 H 0.25519 0.62527 0.5967 0.0
H2674 H 0.22958 0.70889 0.61582 0.0
H2675 H 0.19205 0.68624 0.61795 0.0
H2676 H 0.20248 0.62362 0.57016 0.0
C2677 C 0.28833 0.66797 0.57646 0.0
C2678 C 0.3044 0.688 0.59006 0.0
C2679 C 0.29768 0.70787 0.60297 0.0
C2680 C 0.27511 0.70726 0.60314 0.0
C2681 C 0.25965 0.68681 0.59004 0.0
C2682 C 0.26601 0.6677 0.57656 0.0
C2683 C 0.24673 0.64637 0.56678 0.0
C2684 C 0.2414 0.64294 0.53819 0.0
C2685 C 0.25104 0.62252 0.57604 0.0
C2686 C 0.22879 0.65568 0.57833 0.0
C2687 C 0.23636 0.67925 0.59117 0.0
C2688 C 0.22333 0.69067 0.60538 0.0
C2689 C 0.20215 0.67755 0.60671 0.0
C2690 C 0.19435 0.65317 0.59418 0.0
C2691 C 0.20775 0.64242 0.57944 0.0
H2692 H 0.74589 0.97391 0.85129 0.0
H2693 H 0.68251 0.94221 0.80451 0.0
H2694 H 0.69391 0.90213 0.79865 0.0
H2695 H 0.77862 0.93968 0.81453 0.0
H2696 H 0.79763 0.93615 0.84119 0.0
H2697 H 0.78434 0.96203 0.84234 0.0
H2698 H 0.76934 0.95021 0.8816 0.0
H2699 H 0.78252 0.92424 0.88051 0.0
H2700 H 0.7532 0.91975 0.88079 0.0
H2701 H 0.71313 0.86229 0.79874 0.0
H2702 H 0.73673 0.83175 0.80205 0.0
H2703 H 0.78979 0.88788 0.84663 0.0
C2704 C 0.73417 0.95863 0.83977 0.0
C2705 C 0.71265 0.96247 0.82862 0.0
C2706 C 0.69877 0.94104 0.81359 0.0
C2707 C 0.7053 0.9177 0.81014 0.0
C2708 C 0.72634 0.91476 0.82135 0.0
C2709 C 0.74069 0.93498 0.83573 0.0
C2710 C 0.76272 0.92715 0.84512 0.0
C2711 C 0.78198 0.94216 0.83522 0.0
C2712 C 0.76722 0.93055 0.87371 0.0
C2713 C 0.75873 0.89946 0.83414 0.0
C2714 C 0.73744 0.89269 0.82061 0.0
C2715 C 0.72976 0.86803 0.80922 0.0
C2716 C 0.74361 0.85035 0.8113 0.0
C2717 C 0.76587 0.85615 0.82455 0.0
C2718 C 0.77318 0.88174 0.83616 0.0
H2719 H 0.78574 0.96443 0.55571 0.0
H2720 H 0.77275 0.91142 0.60615 0.0
H2721 H 0.73674 0.92315 0.60921 0.0
H2722 H 0.76251 1.01099 0.58585 0.0
H2723 H 0.75134 1.0202 0.55716 0.0
H2724 H 0.77569 1.00726 0.5589 0.0
H2725 H 0.75638 0.97387 0.52143 0.0
H2726 H 0.73196 0.98671 0.51955 0.0
H2727 H 0.72997 0.95478 0.52273 0.0
H2728 H 0.70167 0.94198 0.60692 0.0
H2729 H 0.67151 0.9644 0.5987 0.0
H2730 H 0.70826 1.00497 0.54992 0.0
C2731 C 0.7754 0.95509 0.5674 0.0
C2732 C 0.78232 0.93685 0.58069 0.0
C2733 C 0.768 0.92534 0.59571 0.0
C2734 C 0.74747 0.93196 0.59758 0.0
C2735 C 0.74133 0.95013 0.5843 0.0
C2736 C 0.75495 0.96142 0.56943 0.0
C2737 C 0.74478 0.98039 0.55699 0.0
C2738 C 0.75945 1.00624 0.56522 0.0
C2739 C 0.74052 0.97352 0.52848 0.0
C2740 C 0.72322 0.97814 0.56711 0.0
C2741 C 0.72148 0.96066 0.5829 0.0
C2742 C 0.70299 0.95566 0.59456 0.0
C2743 C 0.68593 0.96867 0.58988 0.0
C2744 C 0.68724 0.98656 0.57356 0.0
C2745 C 0.70635 0.99123 0.56219 0.0
H2746 H 0.42628 0.42741 0.80177 0.0
H2747 H 0.38762 0.46804 0.75705 0.0
H2748 H 0.355 0.43394 0.75127 0.0
H2749 H 0.39824 0.36628 0.76272 0.0
H2750 H 0.40088 0.35057 0.78944 0.0
H2751 H 0.42123 0.37752 0.78793 0.0
H2752 H 0.41334 0.39862 0.83106 0.0
H2753 H 0.39537 0.3694 0.83085 0.0
H2754 H 0.3847 0.39675 0.83422 0.0
H2755 H 0.32573 0.39762 0.75364 0.0
H2756 H 0.30191 0.36053 0.76302 0.0
H2757 H 0.35916 0.34294 0.80584 0.0
C2758 C 0.41091 0.42894 0.79075 0.0
C2759 C 0.40909 0.45062 0.78058 0.0
C2760 C 0.38903 0.45185 0.76563 0.0
C2761 C 0.3705 0.43251 0.76207 0.0
C2762 C 0.37243 0.41177 0.77314 0.0
C2763 C 0.39216 0.40964 0.78695 0.0
C2764 C 0.38968 0.38498 0.79632 0.0
C2765 C 0.4033 0.36889 0.78329 0.0
C2766 C 0.3962 0.38772 0.82478 0.0
C2767 C 0.36501 0.3749 0.78781 0.0
C2768 C 0.35558 0.39027 0.77375 0.0
C2769 C 0.33296 0.38527 0.76439 0.0
C2770 C 0.31954 0.36419 0.76987 0.0
C2771 C 0.32866 0.34866 0.78507 0.0
C2772 C 0.35174 0.35406 0.79386 0.0
H2773 H 0.20069 0.62704 0.3474 0.0
H2774 H 0.24035 0.58139 0.31351 0.0
H2775 H 0.2655 0.61852 0.30616 0.0
H2776 H 0.20622 0.67402 0.30741 0.0
H2777 H 0.20895 0.69971 0.33153 0.0
H2778 H 0.19397 0.66977 0.33482 0.0
H2779 H 0.21951 0.67104 0.37696 0.0
H2780 H 0.23362 0.70141 0.37376 0.0
H2781 H 0.24912 0.67784 0.37824 0.0
H2782 H 0.28564 0.66153 0.29921 0.0
H2783 H 0.30052 0.7052 0.29723 0.0
H2784 H 0.25108 0.72598 0.33855 0.0
C2785 C 0.21477 0.62482 0.3386 0.0
C2786 C 0.21829 0.60051 0.33133 0.0
C2787 C 0.23706 0.59919 0.31971 0.0
C2788 C 0.25154 0.62046 0.31529 0.0
C2789 C 0.24768 0.64388 0.32263 0.0
C2790 C 0.22992 0.64627 0.33447 0.0
C2791 C 0.23 0.67389 0.34082 0.0
C2792 C 0.2085 0.67969 0.32788 0.0
C2793 C 0.23323 0.68148 0.36914 0.0
C2794 C 0.25017 0.68657 0.33032 0.0
C2795 C 0.25995 0.6687 0.31972 0.0
C2796 C 0.27813 0.67548 0.30782 0.0
C2797 C 0.28656 0.70067 0.30672 0.0
C2798 C 0.27753 0.71987 0.31784 0.0
C2799 C 0.25893 0.7123 0.33003 0.0
H2800 H 0.54019 0.71624 0.50834 0.0
H2801 H 0.49154 0.6825 0.44287 0.0
H2802 H 0.48945 0.64206 0.45721 0.0
H2803 H 0.5692 0.6663 0.5088 0.0
H2804 H 0.5752 0.66945 0.54228 0.0
H2805 H 0.57202 0.69581 0.5274 0.0
H2806 H 0.54159 0.70316 0.55317 0.0
H2807 H 0.54456 0.67668 0.56795 0.0
H2808 H 0.51784 0.6788 0.55195 0.0
H2809 H 0.49224 0.60488 0.47936 0.0
H2810 H 0.50271 0.5739 0.50459 0.0
H2811 H 0.55112 0.63118 0.55454 0.0
C2812 C 0.52904 0.70035 0.49705 0.0
C2813 C 0.5159 0.70269 0.47447 0.0
C2814 C 0.50177 0.6813 0.46017 0.0
C2815 C 0.50039 0.65821 0.46826 0.0
C2816 C 0.51346 0.65655 0.49063 0.0
C2817 C 0.52776 0.67702 0.50465 0.0
C2818 C 0.54086 0.67001 0.5273 0.0
C2819 C 0.5658 0.67573 0.52638 0.0
C2820 C 0.53591 0.68293 0.55153 0.0
C2821 C 0.5317 0.64246 0.52389 0.0
C2822 C 0.51569 0.63509 0.5028 0.0
C2823 C 0.50482 0.61051 0.49587 0.0
C2824 C 0.5108 0.59298 0.51046 0.0
C2825 C 0.52774 0.59988 0.5317 0.0
C2826 C 0.53805 0.62513 0.53852 0.0
H2827 H 0.65213 0.33106 0.7407 0.0
H2828 H 0.66515 0.30296 0.66832 0.0
H2829 H 0.70235 0.29981 0.68746 0.0
H2830 H 0.70915 0.36749 0.76356 0.0
H2831 H 0.70914 0.36113 0.79499 0.0
H2832 H 0.68355 0.36219 0.77564 0.0
H2833 H 0.66655 0.31841 0.78315 0.0
H2834 H 0.69211 0.31718 0.8024 0.0
H2835 H 0.68041 0.29369 0.77599 0.0
H2836 H 0.73689 0.29557 0.71457 0.0
H2837 H 0.76788 0.29467 0.74771 0.0
H2838 H 0.73517 0.32858 0.80265 0.0
C2839 C 0.66293 0.32459 0.72886 0.0
C2840 C 0.65548 0.31726 0.70287 0.0
C2841 C 0.67025 0.30878 0.68818 0.0
C2842 C 0.69152 0.30683 0.69891 0.0
C2843 C 0.69821 0.31375 0.72449 0.0
C2844 C 0.68457 0.32286 0.73929 0.0
C2845 C 0.69611 0.32895 0.76637 0.0
C2846 C 0.6997 0.35659 0.77569 0.0
C2847 C 0.68301 0.31364 0.78295 0.0
C2848 C 0.71806 0.32134 0.76444 0.0
C2849 C 0.71878 0.31245 0.74006 0.0
C2850 C 0.73663 0.30286 0.73366 0.0
C2851 C 0.75417 0.30234 0.75261 0.0
C2852 C 0.75413 0.31181 0.77765 0.0
C2853 C 0.73586 0.32162 0.78357 0.0
H2854 H 0.04483 0.37139 0.959 0.0
H2855 H 1.0024 0.33079 1.00281 0.0
H2856 H 1.00333 0.36933 0.03029 0.0
H2857 H 0.07945 0.41312 1.01204 0.0
H2858 H 0.08298 0.439 0.99534 0.0
H2859 H 0.07864 0.40828 0.97883 0.0
H2860 H 0.045 0.4159 0.94955 0.0
H2861 H 0.04921 0.44661 0.966 0.0
H2862 H 1.02277 0.42584 0.96275 0.0
H2863 H 1.00691 0.41307 0.05149 0.0
H2864 H 1.01633 0.45773 0.06734 0.0
H2865 H 0.05907 0.46924 1.01224 0.0
C2866 C 0.03579 0.37064 0.97442 0.0
C2867 C 0.02348 0.34804 0.9787 0.0
C2868 C 1.01204 0.34782 0.99923 0.0
C2869 C 1.01238 0.36966 1.01489 0.0
C2870 C 0.02459 0.39163 1.01013 0.0
C2871 C 0.0364 0.39222 0.99065 0.0
C2872 C 0.04882 0.41815 0.99013 0.0
C2873 C 0.07397 0.41972 0.99434 0.0
C2874 C 0.04097 0.42715 0.96565 0.0
C2875 C 0.0419 0.43205 1.01212 0.0
C2876 C 0.0277 0.41649 0.02324 0.0
C2877 C 1.01827 0.42536 0.04313 0.0
C2878 C 0.02364 0.45074 0.05198 0.0
C2879 C 0.03864 0.46689 0.04128 0.0
C2880 C 0.04787 0.45728 0.02112 0.0
H2881 H 0.03793 0.79453 0.21518 0.0
H2882 H 1.00853 0.82066 0.1496 0.0
H2883 H 0.97445 0.82066 0.16711 0.0
H2884 H 0.98845 0.75366 0.22245 0.0
H2885 H 0.99341 0.75949 0.256 0.0
H2886 H 1.01639 0.76288 0.23934 0.0
H2887 H 0.03063 0.8076 0.26173 0.0
H2888 H 1.00773 0.8043 0.27856 0.0
H2889 H 1.01239 0.82893 0.26035 0.0
H2890 H 0.94287 0.81668 0.19048 0.0
H2891 H 0.9159 0.80947 0.21881 0.0
H2892 H 0.96422 0.78465 0.26943 0.0
C2893 C 0.02445 0.80063 0.20474 0.0
C2894 C 0.02609 0.80768 0.18095 0.0
C2895 C 1.00781 0.81511 0.16776 0.0
C2896 C 0.9883 0.81522 0.17758 0.0
C2897 C 0.98702 0.80777 0.20071 0.0
C2898 C 1.00455 0.80065 0.21424 0.0
C2899 C 0.99826 0.79267 0.23831 0.0
C2900 C 0.99918 0.76557 0.23906 0.0
C2901 C 1.01314 0.80937 0.26109 0.0
C2902 C 0.97451 0.79634 0.23603 0.0
C2903 C 0.96847 0.80513 0.21419 0.0
C2904 C 0.9474 0.80976 0.20765 0.0
C2905 C 0.93206 0.80537 0.22384 0.0
C2906 C 0.93765 0.79628 0.24643 0.0
C2907 C 0.95932 0.7918 0.2525 0.0
H2908 H 0.53583 0.33194 0.20323 0.0
H2909 H 0.60461 0.32745 0.22157 0.0
H2910 H 0.61603 0.36775 0.20836 0.0
H2911 H 0.53817 0.3482 0.14999 0.0
H2912 H 0.51985 0.36946 0.14983 0.0
H2913 H 0.51699 0.34601 0.16929 0.0
H2914 H 0.52176 0.37851 0.20839 0.0
H2915 H 0.52403 0.40233 0.18894 0.0
H2916 H 0.54543 0.40376 0.21519 0.0
H2917 H 0.61922 0.39997 0.18108 0.0
H2918 H 0.61376 0.42297 0.14572 0.0
H2919 H 0.54309 0.40746 0.14577 0.0
C2920 C 0.55331 0.34013 0.2057 0.0
C2921 C 0.56932 0.32671 0.21329 0.0
C2922 C 0.59207 0.33762 0.21604 0.0
C2923 C 0.59871 0.36053 0.20854 0.0
C2924 C 0.5824 0.37241 0.19896 0.0
C2925 C 0.5601 0.36288 0.19825 0.0
C2926 C 0.54567 0.37651 0.18312 0.0
C2927 C 0.52925 0.359 0.16181 0.0
C2928 C 0.53351 0.39116 0.19992 0.0
C2929 C 0.56318 0.39342 0.17334 0.0
C2930 C 0.58431 0.39141 0.1832 0.0
C2931 C 0.60284 0.40243 0.17393 0.0
C2932 C 0.59961 0.41534 0.15378 0.0
C2933 C 0.57799 0.41674 0.14302 0.0
C2934 C 0.55978 0.40651 0.15364 0.0
H2935 H 0.97088 0.3565 0.41243 0.0
H2936 H 0.99608 0.32041 0.35186 0.0
H2937 H 0.96158 0.31934 0.32337 0.0
H2938 H 0.91993 0.32095 0.39998 0.0
H2939 H 0.9045 0.34411 0.4075 0.0
H2940 H 0.93297 0.34831 0.42171 0.0
H2941 H 0.94245 0.38986 0.40529 0.0
H2942 H 0.91379 0.38601 0.39136 0.0
H2943 H 0.93517 0.39111 0.37255 0.0
H2944 H 0.92331 0.31386 0.30445 0.0
H2945 H 0.88266 0.30504 0.2952 0.0
H2946 H 0.88048 0.34488 0.36709 0.0
C2947 C 0.96929 0.34934 0.3929 0.0
C2948 C 0.98631 0.33962 0.38383 0.0
C2949 C 0.98353 0.32906 0.35865 0.0
C2950 C 0.964 0.32832 0.34241 0.0
C2951 C 0.94737 0.33793 0.35184 0.0
C2952 C 0.94977 0.34841 0.37645 0.0
C2953 C 0.92818 0.35404 0.38259 0.0
C2954 C 0.92098 0.34106 0.40421 0.0
C2955 C 0.93 0.38191 0.38828 0.0
C2956 C 0.91291 0.34327 0.35817 0.0
C2957 C 0.92457 0.33467 0.34058 0.0
C2958 C 0.91406 0.32121 0.31768 0.0
C2959 C 0.89103 0.31615 0.31266 0.0
C2960 C 0.87879 0.32463 0.33035 0.0
C2961 C 0.88973 0.33878 0.35318 0.0
H2962 H 0.05224 0.68363 0.68811 0.0
H2963 H 1.01954 0.73129 0.64618 0.0
H2964 H 1.01501 0.70154 0.6077 0.0
H2965 H 0.0842 0.6703 0.64454 0.0
H2966 H 0.08359 0.63904 0.64961 0.0
H2967 H 0.08054 0.66144 0.67445 0.0
H2968 H 0.04298 0.63479 0.67921 0.0
H2969 H 0.04673 0.61183 0.65528 0.0
H2970 H 1.02174 0.62366 0.65217 0.0
H2971 H 1.01753 0.66747 0.57277 0.0
H2972 H 0.02486 0.6317 0.54628 0.0
H2973 H 0.05868 0.61011 0.61211 0.0
C2974 C 0.04328 0.68741 0.67108 0.0
C2975 C 0.0359 0.70957 0.67023 0.0
C2976 C 0.02501 0.71419 0.64731 0.0
C2977 C 1.02251 0.69749 0.62533 0.0
C2978 C 0.03118 0.67642 0.62662 0.0
C2979 C 0.04116 0.67133 0.64904 0.0
C2980 C 0.05106 0.64891 0.64544 0.0
C2981 C 0.07634 0.65533 0.65402 0.0
C2982 C 0.03993 0.62858 0.6588 0.0
C2983 C 0.04518 0.64213 0.61754 0.0
C2984 C 0.0336 0.65797 0.60682 0.0
C2985 C 0.02653 0.65493 0.58106 0.0
C2986 C 0.03092 0.63475 0.56613 0.0
C2987 C 0.04246 0.61821 0.57709 0.0
C2988 C 0.04995 0.62242 0.60303 0.0
H2989 H 0.59061 0.83351 0.84626 0.0
H2990 H 0.58972 0.80079 0.91409 0.0
H2991 H 0.62254 0.78444 0.90674 0.0
H2992 H 0.60383 0.78402 0.8106 0.0
H2993 H 0.62165 0.80237 0.79367 0.0
H2994 H 0.59961 0.81406 0.80545 0.0
H2995 H 0.62768 0.85268 0.82944 0.0
H2996 H 0.6498 0.84127 0.81745 0.0
H2997 H 0.65135 0.84904 0.85056 0.0
H2998 H 0.65354 0.76922 0.89084 0.0
H2999 H 0.68211 0.75734 0.86803 0.0
H3000 H 0.66259 0.79887 0.80986 0.0
C3001 C 0.59761 0.82339 0.85987 0.0
C3002 C 0.58761 0.8185 0.88081 0.0
C3003 C 0.59708 0.80479 0.89793 0.0
C3004 C 0.61573 0.79541 0.89392 0.0
C3005 C 0.62469 0.79985 0.87268 0.0
C3006 C 0.6161 0.81365 0.85601 0.0
C3007 C 0.6282 0.8145 0.83396 0.0
C3008 C 0.61237 0.80305 0.80948 0.0
C3009 C 0.63996 0.84095 0.83279 0.0
C3010 C 0.64469 0.79873 0.8407 0.0
C3011 C 0.64244 0.79063 0.86321 0.0
C3012 C 0.65561 0.7756 0.8733 0.0
C3013 C 0.67176 0.76896 0.86023 0.0
C3014 C 0.67454 0.77723 0.83725 0.0
C3015 C 0.66067 0.79213 0.82729 0.0
H3016 H 0.50286 0.53683 0.73091 0.0
H3017 H 0.44157 0.48689 0.69534 0.0
H3018 H 0.45231 0.49083 0.65404 0.0
H3019 H 0.50266 0.57754 0.68491 0.0
H3020 H 0.53231 0.5841 0.6868 0.0
H3021 H 0.52034 0.5762 0.71351 0.0
H3022 H 0.54133 0.54066 0.71588 0.0
H3023 H 0.55339 0.5485 0.68922 0.0
H3024 H 0.53806 0.51776 0.68888 0.0
H3025 H 0.4708 0.49937 0.6162 0.0
H3026 H 0.49385 0.51456 0.58558 0.0
H3027 H 0.54109 0.56162 0.6458 0.0
C3028 C 0.49181 0.52655 0.71443 0.0
C3029 C 0.47148 0.5113 0.71637 0.0
C3030 C 0.45726 0.49859 0.69432 0.0
C3031 C 0.46324 0.50069 0.67077 0.0
C3032 C 0.48336 0.51595 0.66946 0.0
C3033 C 0.49729 0.5289 0.69073 0.0
C3034 C 0.51744 0.54503 0.68422 0.0
C3035 C 0.51822 0.57233 0.69287 0.0
C3036 C 0.53882 0.53753 0.6952 0.0
C3037 C 0.51279 0.53903 0.65603 0.0
C3038 C 0.49321 0.52197 0.6478 0.0
C3039 C 0.48603 0.51293 0.62248 0.0
C3040 C 0.49919 0.5216 0.60521 0.0
C3041 C 0.519 0.5395 0.6133 0.0
C3042 C 0.52577 0.54827 0.63904 0.0
H3043 H 0.83822 0.17441 1.01767 0.0
H3044 H 0.88028 0.22806 0.07735 0.0
H3045 H 0.88195 0.25938 0.04936 0.0
H3046 H 0.86391 0.19836 0.9655 0.0
H3047 H 0.8374 0.19184 0.94534 0.0
H3048 H 0.84272 0.17275 0.96877 0.0
H3049 H 0.80803 0.18087 0.98661 0.0
H3050 H 0.80273 0.20008 0.96345 0.0
H3051 H 0.80578 0.21208 0.996 0.0
H3052 H 0.87438 0.28612 1.0171 0.0
H3053 H 0.85934 0.30561 0.98211 0.0
H3054 H 0.82238 0.23418 0.94438 0.0
C3055 C 0.84822 0.19257 0.02474 0.0
C3056 C 0.85906 0.1988 0.04967 0.0
C3057 C 0.87188 0.22283 0.05824 0.0
C3058 C 0.87299 0.24075 0.04249 0.0
C3059 C 0.86147 0.23417 0.01822 0.0
C3060 C 0.84957 0.21056 1.0093 0.0
C3061 C 0.83701 0.20866 0.98331 0.0
C3062 C 0.8458 0.19191 0.96463 0.0
C3063 C 0.81191 0.19992 0.98231 0.0
C3064 C 0.84285 0.23513 0.97946 0.0
C3065 C 0.85722 0.24955 0.99959 0.0
C3066 C 0.86348 0.27496 1.001 0.0
C3067 C 0.85472 0.28588 0.98125 0.0
C3068 C 0.83988 0.27129 0.96063 0.0
C3069 C 0.83411 0.24565 0.9597 0.0
H3070 H 0.11861 0.52182 0.25404 0.0
H3071 H 0.18398 0.53278 0.23399 0.0
H3072 H 0.1677 0.53577 0.19085 0.0
H3073 H 0.08832 0.48564 0.19454 0.0
H3074 H 0.06457 0.49955 0.19468 0.0
H3075 H 0.08125 0.49742 0.22368 0.0
H3076 H 0.08712 0.5443 0.23658 0.0
H3077 H 0.07048 0.54655 0.20761 0.0
H3078 H 0.09825 0.56471 0.21632 0.0
H3079 H 0.14274 0.53793 0.14707 0.0
H3080 H 0.11374 0.53991 0.1116 0.0
H3081 H 0.06442 0.5289 0.15944 0.0
C3082 C 0.1296 0.52459 0.2406 0.0
C3083 C 0.15303 0.5267 0.24829 0.0
C3084 C 0.16622 0.5308 0.22941 0.0
C3085 C 0.15696 0.53259 0.20447 0.0
C3086 C 0.13401 0.53054 0.19764 0.0
C3087 C 0.12053 0.52668 0.21539 0.0
C3088 C 0.09642 0.52577 0.20349 0.0
C3089 C 0.08177 0.5006 0.20414 0.0
C3090 C 0.08754 0.54657 0.21679 0.0
C3091 C 0.0983 0.52964 0.17644 0.0
C3092 C 0.12014 0.53227 0.17331 0.0
C3093 C 0.12569 0.53591 0.14976 0.0
C3094 C 0.10892 0.53703 0.12937 0.0
C3095 C 0.08628 0.53466 0.13191 0.0
C3096 C 0.08132 0.53084 0.1562 0.0
H3097 H 0.81201 0.89418 0.48878 0.0
H3098 H 0.84877 0.8508 0.5322 0.0
H3099 H 0.84851 0.82269 0.49381 0.0
H3100 H 0.77686 0.84126 0.44542 0.0
H3101 H 0.77655 0.85792 0.41928 0.0
H3102 H 0.77909 0.87406 0.45031 0.0
H3103 H 0.8151 0.90277 0.44437 0.0
H3104 H 0.8128 0.8866 0.41344 0.0
H3105 H 0.83765 0.88961 0.43581 0.0
H3106 H 0.8479 0.80207 0.44965 0.0
H3107 H 0.84224 0.78722 0.40427 0.0
H3108 H 0.80269 0.84136 0.39023 0.0
C3109 C 0.81969 0.87853 0.49024 0.0
C3110 C 0.83036 0.87466 0.51355 0.0
C3111 C 0.84026 0.85399 0.51464 0.0
C3112 C 0.84033 0.838 0.49288 0.0
C3113 C 0.83001 0.84258 0.47015 0.0
C3114 C 0.81941 0.86201 0.46877 0.0
C3115 C 0.80929 0.8627 0.44208 0.0
C3116 C 0.78394 0.85874 0.4391 0.0
C3117 C 0.81931 0.88685 0.43342 0.0
C3118 C 0.81625 0.84097 0.42859 0.0
C3119 C 0.82845 0.82977 0.44505 0.0
C3120 C 0.838 0.8104 0.43668 0.0
C3121 C 0.8348 0.80215 0.4109 0.0
C3122 C 0.82177 0.81288 0.39385 0.0
C3123 C 0.81235 0.83247 0.40292 0.0
H3124 H 0.46085 0.53446 0.88469 0.0
H3125 H 0.5019 0.49611 0.84382 0.0
H3126 H 0.5271 0.49706 0.88326 0.0
H3127 H 0.50647 0.57473 0.92995 0.0
H3128 H 0.49007 0.57322 0.95446 0.0
H3129 H 0.47675 0.5702 0.92261 0.0
H3130 H 0.4524 0.52884 0.92862 0.0
H3131 H 0.46678 0.53177 0.96005 0.0
H3132 H 0.46566 0.50477 0.93815 0.0
H3133 H 0.54582 0.49885 0.92775 0.0
H3134 H 0.55879 0.50486 0.97323 0.0
H3135 H 0.50744 0.54507 0.98504 0.0
C3136 C 0.47524 0.52641 0.88396 0.0
C3137 C 0.47933 0.51512 0.86105 0.0
C3138 C 0.49843 0.50494 0.86102 0.0
C3139 C 0.5128 0.50534 0.88338 0.0
C3140 C 0.5081 0.51635 0.90562 0.0
C3141 C 0.48996 0.52704 0.90603 0.0
C3142 C 0.48858 0.53766 0.93241 0.0
C3143 C 0.49062 0.56562 0.93499 0.0
C3144 C 0.46708 0.525 0.94026 0.0
C3145 C 0.50871 0.53111 0.9469 0.0
C3146 C 0.51957 0.51854 0.93108 0.0
C3147 C 0.53767 0.50903 0.94021 0.0
C3148 C 0.54487 0.51245 0.96608 0.0
C3149 C 0.53432 0.52568 0.9826 0.0
C3150 C 0.51611 0.53532 0.9728 0.0
H3151 H 0.85637 0.17783 0.19248 0.0
H3152 H 0.91822 0.22247 0.18215 0.0
H3153 H 0.91214 0.25678 0.21112 0.0
H3154 H 0.82828 0.22181 0.18408 0.0
H3155 H 0.80926 0.2144 0.20521 0.0
H3156 H 0.82134 0.1909 0.1909 0.0
H3157 H 0.83632 0.18112 0.23369 0.0
H3158 H 0.82473 0.20457 0.24918 0.0
H3159 H 0.85393 0.20498 0.25657 0.0
H3160 H 0.89488 0.28883 0.23195 0.0
H3161 H 0.87042 0.31427 0.24894 0.0
H3162 H 0.81877 0.2492 0.24232 0.0
C3163 C 0.86937 0.19424 0.19749 0.0
C3164 C 0.88788 0.19745 0.18526 0.0
C3165 C 0.90409 0.21956 0.19165 0.0
C3166 C 0.90061 0.23923 0.20784 0.0
C3167 C 0.88083 0.23637 0.21727 0.0
C3168 C 0.86563 0.21425 0.21261 0.0
C3169 C 0.84407 0.21685 0.22105 0.0
C3170 C 0.82462 0.21063 0.199 0.0
C3171 C 0.83945 0.20094 0.24137 0.0
C3172 C 0.84943 0.24393 0.23116 0.0
C3173 C 0.87066 0.25494 0.22874 0.0
C3174 C 0.87845 0.28031 0.23449 0.0
C3175 C 0.8644 0.29463 0.24369 0.0
C3176 C 0.84296 0.28344 0.24696 0.0
C3177 C 0.83534 0.25793 0.24043 0.0
H3178 H 0.18083 0.55022 0.43288 0.0
H3179 H 0.127 0.52857 0.37011 0.0
H3180 H 0.10028 0.53184 0.39886 0.0
H3181 H 0.15133 0.51769 0.47779 0.0
H3182 H 0.16282 0.54125 0.50419 0.0
H3183 H 0.17813 0.53715 0.47908 0.0
H3184 H 0.18088 0.58261 0.4738 0.0
H3185 H 0.16552 0.58681 0.49885 0.0
H3186 H 0.15596 0.59443 0.46876 0.0
H3187 H 0.07782 0.53799 0.43546 0.0
H3188 H 0.06273 0.54513 0.47386 0.0
H3189 H 0.12923 0.56303 0.51663 0.0
C3190 C 0.16341 0.54593 0.42498 0.0
C3191 C 0.15673 0.53879 0.39812 0.0
C3192 C 0.13339 0.53385 0.38982 0.0
C3193 C 0.11778 0.53576 0.40638 0.0
C3194 C 0.12489 0.54279 0.43225 0.0
C3195 C 0.14727 0.54777 0.44161 0.0
C3196 C 0.15025 0.55499 0.47045 0.0
C3197 C 0.1613 0.53669 0.48367 0.0
C3198 C 0.16398 0.58127 0.47845 0.0
C3199 C 0.12622 0.5534 0.4759 0.0
C3200 C 0.11199 0.5463 0.45331 0.0
C3201 C 0.08912 0.54352 0.45299 0.0
C3202 C 0.08053 0.54778 0.47551 0.0
C3203 C 0.09405 0.55494 0.49961 0.0
C3204 C 0.11769 0.55779 0.49926 0.0
H3205 H 0.82334 0.84388 0.64181 0.0
H3206 H 0.84904 0.91843 0.6797 0.0
H3207 H 0.84659 0.90386 0.72024 0.0
H3208 H 0.78446 0.82598 0.68222 0.0
H3209 H 0.78895 0.7951 0.68118 0.0
H3210 H 0.79297 0.81137 0.65525 0.0
H3211 H 0.83293 0.80407 0.65846 0.0
H3212 H 0.82906 0.78787 0.68448 0.0
H3213 H 0.8518 0.81381 0.68757 0.0
H3214 H 0.84037 0.88108 0.75702 0.0
H3215 H 0.83074 0.85238 0.78653 0.0
H3216 H 0.80998 0.79218 0.72522 0.0
C3217 C 0.82847 0.85719 0.65862 0.0
C3218 C 0.83638 0.88244 0.65739 0.0
C3219 C 0.84292 0.89908 0.67997 0.0
C3220 C 0.84161 0.89092 0.70316 0.0
C3221 C 0.8338 0.86596 0.70369 0.0
C3222 C 0.82735 0.84932 0.68198 0.0
C3223 C 0.81941 0.8235 0.6877 0.0
C3224 C 0.795 0.8134 0.67589 0.0
C3225 C 0.83418 0.8063 0.67903 0.0
C3226 C 0.82222 0.82818 0.71598 0.0
C3227 C 0.83057 0.85282 0.72482 0.0
C3228 C 0.834 0.86174 0.75023 0.0
C3229 C 0.82856 0.84523 0.76694 0.0
C3230 C 0.81984 0.81989 0.75841 0.0
C3231 C 0.81688 0.81134 0.7325 0.0
H3232 H 0.72134 0.48364 0.50973 0.0
H3233 H 0.68488 0.41407 0.52397 0.0
H3234 H 0.66712 0.43644 0.55414 0.0
H3235 H 0.73398 0.51162 0.57242 0.0
H3236 H 0.73174 0.54179 0.56559 0.0
H3237 H 0.73965 0.52051 0.5431 0.0
H3238 H 0.7073 0.52481 0.50985 0.0
H3239 H 0.69916 0.54623 0.53197 0.0
H3240 H 0.67948 0.51898 0.51642 0.0
H3241 H 0.65401 0.46664 0.58318 0.0
H3242 H 0.64455 0.50201 0.60658 0.0
H3243 H 0.6943 0.55115 0.57775 0.0
C3244 C 0.70936 0.473 0.51881 0.0
C3245 C 0.7045 0.44708 0.51447 0.0
C3246 C 0.68879 0.43396 0.52693 0.0
C3247 C 0.67875 0.44648 0.54422 0.0
C3248 C 0.68491 0.47202 0.54903 0.0
C3249 C 0.69977 0.4851 0.53659 0.0
C3250 C 0.70438 0.51233 0.54584 0.0
C3251 C 0.72889 0.52213 0.55742 0.0
C3252 C 0.69715 0.52643 0.52478 0.0
C3253 C 0.68965 0.51259 0.56538 0.0
C3254 C 0.67846 0.48921 0.56684 0.0
C3255 C 0.66287 0.48503 0.58242 0.0
C3256 C 0.65785 0.5054 0.59599 0.0
C3257 C 0.66858 0.5297 0.59414 0.0
C3258 C 0.68543 0.53303 0.57944 0.0
H3259 H 0.22337 0.11903 0.54644 0.0
H3260 H 0.19567 0.17408 0.51134 0.0
H3261 H 0.15793 0.15249 0.51483 0.0
H3262 H 0.17804 0.06466 0.52201 0.0
H3263 H 0.18105 0.05337 0.55134 0.0
H3264 H 0.20465 0.07178 0.54236 0.0
H3265 H 0.20955 0.10087 0.58425 0.0
H3266 H 0.18497 0.08295 0.59197 0.0
H3267 H 0.18719 0.11531 0.591 0.0
H3268 H 0.12266 0.12545 0.52476 0.0
H3269 H 0.09397 0.09412 0.53714 0.0
H3270 H 0.14507 0.05775 0.56668 0.0
C3271 C 0.20927 0.12601 0.53869 0.0
C3272 C 0.21242 0.14786 0.52784 0.0
C3273 C 0.19361 0.1571 0.51914 0.0
C3274 C 0.17211 0.14501 0.52121 0.0
C3275 C 0.16958 0.12387 0.53258 0.0
C3276 C 0.18771 0.11438 0.54105 0.0
C3277 C 0.18076 0.09256 0.55429 0.0
C3278 C 0.1865 0.06922 0.5417 0.0
C3279 C 0.19124 0.09827 0.58202 0.0
C3280 C 0.15589 0.09054 0.55098 0.0
C3281 C 0.14968 0.10898 0.53883 0.0
C3282 C 0.12745 0.1109 0.53417 0.0
C3283 C 0.11122 0.09315 0.54144 0.0
C3284 C 0.11724 0.07353 0.55293 0.0
C3285 C 0.13992 0.07255 0.55794 0.0
H3286 H 0.21269 1.01081 0.86008 0.0
H3287 H 0.15131 0.99704 0.80721 0.0
H3288 H 0.15829 0.95666 0.79083 0.0
H3289 H 0.24363 0.9889 0.81942 0.0
H3290 H 0.26017 0.97584 0.8418 0.0
H3291 H 0.24845 1.00138 0.85201 0.0
H3292 H 0.22924 0.97638 0.8826 0.0
H3293 H 0.24099 0.95072 0.87254 0.0
H3294 H 0.21148 0.94669 0.87102 0.0
H3295 H 0.1743 0.91945 0.77751 0.0
H3296 H 0.19757 0.88951 0.76857 0.0
H3297 H 0.24917 0.93035 0.82868 0.0
C3298 C 0.20033 0.99916 0.84545 0.0
C3299 C 0.18136 1.00716 0.83503 0.0
C3300 C 0.16587 0.9913 0.81568 0.0
C3301 C 0.16971 0.96832 0.80625 0.0
C3302 C 0.18903 0.96146 0.81646 0.0
C3303 C 0.20398 0.97643 0.83579 0.0
C3304 C 0.22448 0.96619 0.84208 0.0
C3305 C 0.2454 0.98414 0.8386 0.0
C3306 C 0.22666 0.9596 0.86863 0.0
C3307 C 0.21908 0.94342 0.82276 0.0
C3308 C 0.19845 0.94068 0.80841 0.0
C3309 C 0.19042 0.92138 0.78878 0.0
C3310 C 0.20388 0.90459 0.78367 0.0
C3311 C 0.2253 0.9074 0.7979 0.0
C3312 C 0.23275 0.92711 0.81776 0.0
H3313 H 0.31188 0.94545 0.96533 0.0
H3314 H 0.28889 0.99318 0.01897 0.0
H3315 H 0.32305 0.02483 0.02193 0.0
H3316 H 0.36371 0.95461 0.99379 0.0
H3317 H 0.37704 0.9545 0.96673 0.0
H3318 H 0.34879 0.93867 0.96392 0.0
H3319 H 0.33668 0.96386 0.92973 0.0
H3320 H 0.36509 0.97963 0.93213 0.0
H3321 H 0.34391 0.99693 0.93582 0.0
H3322 H 0.36266 0.04622 0.02642 0.0
H3323 H 0.40342 0.05696 0.02974 0.0
H3324 H 0.4001 0.99565 0.97229 0.0
C3325 C 0.31374 0.96306 0.97679 0.0
C3326 C 0.29771 0.9674 0.99133 0.0
C3327 C 0.3008 0.99006 1.00704 0.0
C3328 C 0.32013 1.00805 1.00886 0.0
C3329 C 0.33604 1.00301 0.99472 0.0
C3330 C 0.33282 0.98122 0.97857 0.0
C3331 C 0.35339 0.97885 0.96781 0.0
C3332 C 0.36118 0.95528 0.97343 0.0
C3333 C 0.34954 0.97989 0.9397 0.0
C3334 C 0.36925 1.00167 0.98195 0.0
C3335 C 0.35889 1.01568 0.99701 0.0
C3336 C 0.37083 0.03587 1.01413 0.0
C3337 C 0.39395 0.04171 1.01607 0.0
C3338 C 0.4048 0.02735 1.001 0.0
C3339 C 0.39217 1.00745 0.98343 0.0
H3340 H 0.86409 0.61767 0.81441 0.0
H3341 H 0.92949 0.65047 0.80217 0.0
H3342 H 0.91794 0.69052 0.80148 0.0
H3343 H 0.83387 0.65232 0.77291 0.0
H3344 H 0.81303 0.65478 0.79211 0.0
H3345 H 0.82664 0.62916 0.79219 0.0
H3346 H 0.83822 0.63973 0.83983 0.0
H3347 H 0.82474 0.66544 0.83989 0.0
H3348 H 0.85357 0.67012 0.85336 0.0
H3349 H 0.89814 0.7306 0.80489 0.0
H3350 H 0.87391 0.7607 0.80726 0.0
H3351 H 0.81936 0.70243 0.81327 0.0
C3352 C 0.87621 0.63313 0.81144 0.0
C3353 C 0.8983 0.62963 0.80843 0.0
C3354 C 0.91273 0.65134 0.80451 0.0
C3355 C 0.90611 0.67467 0.8042 0.0
C3356 C 0.88446 0.67725 0.80736 0.0
C3357 C 0.86961 0.65665 0.81049 0.0
C3358 C 0.847 0.66388 0.8126 0.0
C3359 C 0.82906 0.64915 0.79119 0.0
C3360 C 0.84049 0.65952 0.83792 0.0
C3361 C 0.85117 0.69173 0.81046 0.0
C3362 C 0.87309 0.69917 0.80778 0.0
C3363 C 0.88102 0.72428 0.80663 0.0
C3364 C 0.86682 0.74168 0.80805 0.0
C3365 C 0.84392 0.73506 0.8101 0.0
C3366 C 0.83636 0.70907 0.81125 0.0
H3367 H 0.83386 0.64018 0.07159 0.0
H3368 H 0.83317 0.65469 0.99577 0.0
H3369 H 0.86892 0.64187 0.99542 0.0
H3370 H 0.89508 0.65838 0.09273 0.0
H3371 H 0.89542 0.63378 0.11106 0.0
H3372 H 0.87133 0.64712 0.10654 0.0
H3373 H 0.84701 0.60403 0.08914 0.0
H3374 H 0.87101 0.5906 0.09337 0.0
H3375 H 0.85389 0.58596 0.06313 0.0
H3376 H 0.90289 0.62399 1.00179 0.0
H3377 H 0.93318 0.60321 1.01466 0.0
H3378 H 0.91202 0.59888 0.08626 0.0
C3379 C 0.84173 0.6415 0.05531 0.0
C3380 C 0.83113 0.64916 0.03392 0.0
C3381 C 0.84132 0.64949 1.0125 0.0
C3382 C 0.86157 0.64212 1.01212 0.0
C3383 C 0.87143 0.63417 0.03326 0.0
C3384 C 0.86194 0.63391 0.05454 0.0
C3385 C 0.87518 0.62271 0.07398 0.0
C3386 C 0.88483 0.64163 0.09747 0.0
C3387 C 0.86092 0.59945 0.08027 0.0
C3388 C 0.89337 0.61649 0.0602 0.0
C3389 C 0.89089 0.62337 0.03678 0.0
C3390 C 0.90506 0.61869 0.02017 0.0
C3391 C 0.92216 0.60667 0.0276 0.0
C3392 C 0.92512 0.5993 0.05149 0.0
C3393 C 0.9105 0.60453 0.06801 0.0
H3394 H 0.21672 0.12186 0.81702 0.0
H3395 H 0.18768 0.15717 0.87467 0.0
H3396 H 0.21513 0.19586 0.87637 0.0
H3397 H 0.27544 0.15366 0.83294 0.0
H3398 H 0.27647 0.15528 0.80076 0.0
H3399 H 0.2571 0.13081 0.80922 0.0
H3400 H 0.22707 0.14569 0.77921 0.0
H3401 H 0.24729 0.17151 0.77443 0.0
H3402 H 0.22282 0.17648 0.78636 0.0
H3403 H 0.24597 0.23019 0.8723 0.0
H3404 H 0.27594 0.25948 0.86021 0.0
H3405 H 0.28333 0.20327 0.80242 0.0
C3406 C 0.21657 0.13767 0.83035 0.0
C3407 C 0.20086 0.13643 0.8466 0.0
C3408 C 0.2001 0.1577 0.86274 0.0
C3409 C 0.21558 0.17968 0.86375 0.0
C3410 C 0.23107 0.18029 0.84772 0.0
C3411 C 0.23139 0.16002 0.83091 0.0
C3412 C 0.24781 0.16662 0.81353 0.0
C3413 C 0.26519 0.15057 0.8142 0.0
C3414 C 0.23551 0.16498 0.78681 0.0
C3415 C 0.25805 0.19311 0.82469 0.0
C3416 C 0.24784 0.20069 0.84411 0.0
C3417 C 0.25407 0.22445 0.85714 0.0
C3418 C 0.27113 0.24095 0.85013 0.0
C3419 C 0.28204 0.23357 0.83052 0.0
C3420 C 0.27539 0.20931 0.81763 0.0
H3421 H 0.42047 0.97775 0.32103 0.0
H3422 H 0.36947 1.00392 0.27616 0.0
H3423 H 0.34374 0.96406 0.27378 0.0
H3424 H 0.40397 0.91402 0.28617 0.0
H3425 H 0.41044 0.89934 0.31295 0.0
H3426 H 0.42537 0.9299 0.31164 0.0
H3427 H 0.41396 0.94698 0.35343 0.0
H3428 H 0.40152 0.91546 0.35458 0.0
H3429 H 0.38529 0.93849 0.35679 0.0
H3430 H 0.32213 0.92037 0.2767 0.0
H3431 H 0.30785 0.87778 0.28355 0.0
H3432 H 0.37141 0.8774 0.32688 0.0
C3433 C 0.40386 0.97516 0.31075 0.0
C3434 C 0.39711 0.99506 0.29943 0.0
C3435 C 0.37524 0.9899 0.28569 0.0
C3436 C 0.36036 0.96698 0.28413 0.0
C3437 C 0.36714 0.94829 0.29616 0.0
C3438 C 0.38851 0.95198 0.30907 0.0
C3439 C 0.39166 0.92809 0.31925 0.0
C3440 C 0.40889 0.91719 0.30677 0.0
C3441 C 0.39854 0.9326 0.34769 0.0
C3442 C 0.3685 0.91107 0.31137 0.0
C3443 C 0.35478 0.92307 0.29761 0.0
C3444 C 0.33287 0.91108 0.28759 0.0
C3445 C 0.32476 0.88663 0.29164 0.0
C3446 C 0.33803 0.87369 0.30607 0.0
C3447 C 0.36042 0.88646 0.31602 0.0
H3448 H 0.56556 0.36589 0.60112 0.0
H3449 H 0.61312 0.39069 0.66947 0.0
H3450 H 0.6175 0.43352 0.66021 0.0
H3451 H 0.59216 0.40728 0.56363 0.0
H3452 H 0.56625 0.41133 0.54725 0.0
H3453 H 0.56782 0.383 0.55911 0.0
H3454 H 0.5361 0.38819 0.58371 0.0
H3455 H 0.53438 0.41644 0.57183 0.0
H3456 H 0.53874 0.41608 0.60496 0.0
H3457 H 0.61539 0.47495 0.64277 0.0
H3458 H 0.60579 0.50879 0.62089 0.0
H3459 H 0.55982 0.4553 0.56455 0.0
C3460 C 0.57704 0.38016 0.61427 0.0
C3461 C 0.58901 0.3746 0.63615 0.0
C3462 C 0.60373 0.39423 0.65261 0.0
C3463 C 0.60635 0.41868 0.64743 0.0
C3464 C 0.5942 0.42337 0.62565 0.0
C3465 C 0.57981 0.40447 0.60943 0.0
C3466 C 0.56803 0.41392 0.58764 0.0
C3467 C 0.57392 0.40325 0.56295 0.0
C3468 C 0.54283 0.40833 0.58701 0.0
C3469 C 0.57773 0.44122 0.59409 0.0
C3470 C 0.59295 0.4465 0.61595 0.0
C3471 C 0.60355 0.4708 0.62561 0.0
C3472 C 0.5981 0.48998 0.61295 0.0
C3473 C 0.58214 0.4849 0.59082 0.0
C3474 C 0.57218 0.46004 0.5813 0.0
H3475 H 0.45441 0.74723 0.38964 0.0
H3476 H 0.46023 0.80676 0.44971 0.0
H3477 H 0.42445 0.81502 0.43069 0.0
H3478 H 0.4231 0.76727 0.33608 0.0
H3479 H 0.40721 0.73663 0.32761 0.0
H3480 H 0.43484 0.74186 0.34503 0.0
H3481 H 0.41364 0.71528 0.37533 0.0
H3482 H 0.38689 0.71605 0.35833 0.0
H3483 H 0.39399 0.72805 0.39103 0.0
H3484 H 0.39043 0.81999 0.40223 0.0
H3485 H 0.35745 0.81706 0.37039 0.0
H3486 H 0.36986 0.75015 0.33214 0.0
C3487 C 0.44823 0.76226 0.39843 0.0
C3488 C 0.46064 0.77738 0.42038 0.0
C3489 C 0.45136 0.79566 0.43241 0.0
C3490 C 0.43103 0.80041 0.42177 0.0
C3491 C 0.41949 0.78578 0.39973 0.0
C3492 C 0.42735 0.7665 0.38862 0.0
C3493 C 0.41014 0.75168 0.36689 0.0
C3494 C 0.41949 0.74922 0.34253 0.0
C3495 C 0.4006 0.72626 0.37328 0.0
C3496 C 0.39277 0.76743 0.36572 0.0
C3497 C 0.39836 0.78678 0.38512 0.0
C3498 C 0.38566 0.80463 0.38725 0.0
C3499 C 0.36692 0.80283 0.36903 0.0
C3500 C 0.36082 0.78327 0.34887 0.0
C3501 C 0.37387 0.76519 0.34746 0.0
H3502 H 0.06115 0.7223 0.15472 0.0
H3503 H 0.10343 0.75917 0.10853 0.0
H3504 H 0.10339 0.71914 0.08415 0.0
H3505 H 0.08747 0.67092 0.15692 0.0
H3506 H 0.0624 0.64861 0.15631 0.0
H3507 H 0.06463 0.68015 0.16945 0.0
H3508 H 0.02926 0.68299 0.13869 0.0
H3509 H 0.02683 0.65084 0.12778 0.0
H3510 H 0.02754 0.67232 0.10599 0.0
H3511 H 0.10029 0.67471 0.06606 0.0
H3512 H 0.09274 0.62946 0.05441 0.0
H3513 H 0.05159 0.62133 0.11145 0.0
C3514 C 0.07008 0.72186 0.13921 0.0
C3515 C 0.08166 0.74385 0.13287 0.0
C3516 C 0.09382 0.74258 0.11306 0.0
C3517 C 0.09402 0.71991 0.09925 0.0
C3518 C 0.08216 0.69854 0.10564 0.0
C3519 C 0.07031 0.6993 0.12508 0.0
C3520 C 0.05968 0.67353 0.12868 0.0
C3521 C 0.06911 0.66799 0.15436 0.0
C3522 C 0.03433 0.66975 0.12508 0.0
C3523 C 0.067 0.65828 0.10792 0.0
C3524 C 0.08023 0.67302 0.09508 0.0
C3525 C 0.08975 0.66301 0.07583 0.0
C3526 C 0.08545 0.6373 0.06938 0.0
C3527 C 0.07141 0.62189 0.08181 0.0
C3528 C 0.06212 0.63264 0.10133 0.0
H3529 H 0.081 0.30897 0.90428 0.0
H3530 H 0.08419 0.25506 0.95451 0.0
H3531 H 0.12143 0.25192 0.94526 0.0
H3532 H 0.10594 0.28105 0.85814 0.0
H3533 H 0.12061 0.30959 0.85099 0.0
H3534 H 0.09507 0.30849 0.86285 0.0
H3535 H 0.11474 0.34318 0.899 0.0
H3536 H 0.14036 0.34448 0.88721 0.0
H3537 H 0.13915 0.33958 0.91889 0.0
H3538 H 0.15796 0.25309 0.92772 0.0
H3539 H 0.19003 0.25965 0.90566 0.0
H3540 H 0.16225 0.313 0.86734 0.0
C3541 C 0.08951 0.29662 0.91364 0.0
C3542 C 0.07947 0.28225 0.93023 0.0
C3543 C 0.09144 0.2664 0.94191 0.0
C3544 C 0.11261 0.26444 0.93666 0.0
C3545 C 0.12175 0.2786 0.91983 0.0
C3546 C 0.11056 0.29454 0.90871 0.0
C3547 C 0.12353 0.30742 0.8909 0.0
C3548 C 0.11051 0.30126 0.86414 0.0
C3549 C 0.12982 0.33532 0.89952 0.0
C3550 C 0.14378 0.2961 0.8934 0.0
C3551 C 0.14252 0.27949 0.91014 0.0
C3552 C 0.15907 0.2662 0.91475 0.0
C3553 C 0.17722 0.26996 0.90199 0.0
C3554 C 0.17889 0.28697 0.88478 0.0
C3555 C 0.16184 0.30021 0.88066 0.0
H3556 H 0.50585 0.75604 0.9471 0.0
H3557 H 0.51955 0.72899 0.87493 0.0
H3558 H 0.52095 0.68858 0.88867 0.0
H3559 H 0.54354 0.73352 0.98099 0.0
H3560 H 0.52789 0.72591 1.0052 0.0
H3561 H 0.52233 0.74982 0.98781 0.0
H3562 H 0.48108 0.72771 0.97511 0.0
H3563 H 0.4864 0.70379 0.99289 0.0
H3564 H 0.47405 0.69609 0.96045 0.0
H3565 H 0.52743 0.65408 0.91338 0.0
H3566 H 0.53802 0.62936 0.94608 0.0
H3567 H 0.52135 0.68099 1.00166 0.0
C3568 C 0.50846 0.74136 0.93389 0.0
C3569 C 0.51264 0.74544 0.91005 0.0
C3570 C 0.5161 0.72599 0.89324 0.0
C3571 C 0.51692 0.70306 0.90091 0.0
C3572 C 0.51387 0.70006 0.92519 0.0
C3573 C 0.50937 0.71869 0.94126 0.0
C3574 C 0.50959 0.71251 0.96728 0.0
C3575 C 0.52687 0.73156 0.98641 0.0
C3576 C 0.48639 0.70986 0.97434 0.0
C3577 C 0.51625 0.68808 0.96388 0.0
C3578 C 0.5181 0.68074 0.93942 0.0
C3579 C 0.52565 0.65947 0.93246 0.0
C3580 C 0.53171 0.64564 0.95106 0.0
C3581 C 0.53062 0.65362 0.9762 0.0
C3582 C 0.52238 0.67472 0.9825 0.0
H3583 H 0.13978 0.764 0.70486 0.0
H3584 H 0.11391 0.72263 0.75984 0.0
H3585 H 0.14994 0.71087 0.77059 0.0
H3586 H 0.17811 0.71846 0.68918 0.0
H3587 H 0.19855 0.74326 0.68293 0.0
H3588 H 0.1695 0.74343 0.67536 0.0
H3589 H 0.17576 0.78648 0.7023 0.0
H3590 H 0.20468 0.7861 0.70804 0.0
H3591 H 0.19047 0.79094 0.73374 0.0
H3592 H 0.18995 0.712 0.78186 0.0
H3593 H 0.23067 0.7252 0.79218 0.0
H3594 H 0.23051 0.76508 0.72927 0.0
C3595 C 0.14175 0.75208 0.7188 0.0
C3596 C 0.12475 0.74504 0.73244 0.0
C3597 C 0.12728 0.72892 0.75002 0.0
C3598 C 0.14748 0.7218 0.75586 0.0
C3599 C 0.16455 0.7303 0.74321 0.0
C3600 C 0.16173 0.7446 0.72456 0.0
C3601 C 0.18316 0.75279 0.71513 0.0
C3602 C 0.18227 0.73863 0.68912 0.0
C3603 C 0.18879 0.78071 0.71484 0.0
C3604 C 0.19901 0.74461 0.73433 0.0
C3605 C 0.18782 0.7303 0.74932 0.0
C3606 C 0.19893 0.72248 0.7698 0.0
C3607 C 0.222 0.7301 0.77557 0.0
C3608 C 0.23344 0.74598 0.76136 0.0
C3609 C 0.22194 0.75267 0.74012 0.0
H3610 H 0.04967 0.42377 0.44804 0.0
H3611 H 0.06276 0.3678 0.49292 0.0
H3612 H 0.06909 0.39831 0.53116 0.0
H3613 H 0.08823 0.47539 0.48503 0.0
H3614 H 0.06954 0.49586 0.48016 0.0
H3615 H 0.06815 0.47 0.4568 0.0
H3616 H 0.02644 0.45517 0.45868 0.0
H3617 H 0.02786 0.48096 0.48217 0.0
H3618 H 1.01815 0.45018 0.48813 0.0
H3619 H 0.07424 0.43651 0.5648 0.0
H3620 H 0.07598 0.47747 0.58932 0.0
H3621 H 0.05502 0.50416 0.52068 0.0
C3622 C 0.05409 0.4179 0.46583 0.0
C3623 C 0.05583 0.39354 0.46756 0.0
C3624 C 0.06138 0.38652 0.49127 0.0
C3625 C 0.06501 0.40367 0.51305 0.0
C3626 C 0.06262 0.42752 0.51067 0.0
C3627 C 0.05711 0.43444 0.48758 0.0
C3628 C 0.05412 0.46051 0.48969 0.0
C3629 C 0.07103 0.47636 0.47719 0.0
C3630 C 0.03023 0.46176 0.47905 0.0
C3631 C 0.05895 0.46731 0.51756 0.0
C3632 C 0.06411 0.44839 0.52959 0.0
C3633 C 0.07003 0.4514 0.55553 0.0
C3634 C 0.07091 0.47456 0.5693 0.0
C3635 C 0.06554 0.49389 0.55691 0.0
C3636 C 0.05917 0.48985 0.53085 0.0
H3637 H 0.48432 0.25028 0.23167 0.0
H3638 H 0.54126 0.25502 0.28897 0.0
H3639 H 0.51923 0.26575 0.32118 0.0
H3640 H 0.47069 0.30271 0.25677 0.0
H3641 H 0.44123 0.29195 0.24718 0.0
H3642 H 0.45994 0.2797 0.22974 0.0
H3643 H 0.4415 0.23616 0.23518 0.0
H3644 H 0.42301 0.24748 0.25384 0.0
H3645 H 0.44084 0.22817 0.26586 0.0
H3646 H 0.49252 0.28282 0.34627 0.0
H3647 H 0.4642 0.30411 0.3611 0.0
H3648 H 0.42635 0.28899 0.28648 0.0
C3649 C 0.49212 0.25285 0.251 0.0
C3650 C 0.51454 0.25175 0.25775 0.0
C3651 C 0.52403 0.25553 0.28332 0.0
C3652 C 0.51164 0.26168 0.30174 0.0
C3653 C 0.48985 0.26385 0.2942 0.0
C3654 C 0.48025 0.25942 0.26935 0.0
C3655 C 0.45781 0.26595 0.26538 0.0
C3656 C 0.45742 0.28628 0.24881 0.0
C3657 C 0.43968 0.24308 0.25444 0.0
C3658 C 0.45629 0.27526 0.29186 0.0
C3659 C 0.47476 0.27375 0.30839 0.0
C3660 C 0.47782 0.28363 0.33356 0.0
C3661 C 0.46179 0.2957 0.34183 0.0
C3662 C 0.44332 0.29797 0.32481 0.0
C3663 C 0.44034 0.28717 0.29978 0.0
H3664 H 0.65593 0.5513 0.42429 0.0
H3665 H 0.61556 0.59793 0.39127 0.0
H3666 H 0.59334 0.59474 0.42524 0.0
H3667 H 0.61088 0.51019 0.44231 0.0
H3668 H 0.6273 0.50588 0.47062 0.0
H3669 H 0.64031 0.51267 0.44428 0.0
H3670 H 0.66725 0.54966 0.4722 0.0
H3671 H 0.6539 0.54384 0.49856 0.0
H3672 H 0.65642 0.57343 0.48831 0.0
H3673 H 0.57694 0.58816 0.46421 0.0
H3674 H 0.56379 0.57397 0.50137 0.0
H3675 H 0.61254 0.52832 0.50712 0.0
C3676 C 0.6424 0.56085 0.42421 0.0
C3677 C 0.63755 0.57506 0.40522 0.0
C3678 C 0.61952 0.58695 0.40557 0.0
C3679 C 0.60693 0.58534 0.42488 0.0
C3680 C 0.61232 0.57139 0.44345 0.0
C3681 C 0.62936 0.55895 0.44299 0.0
C3682 C 0.63108 0.54423 0.46448 0.0
C3683 C 0.62715 0.5166 0.45484 0.0
C3684 C 0.6535 0.55334 0.4819 0.0
C3685 C 0.6123 0.55027 0.47716 0.0
C3686 C 0.60202 0.5664 0.465 0.0
C3687 C 0.58476 0.57538 0.47368 0.0
C3688 C 0.5775 0.56732 0.49495 0.0
C3689 C 0.58717 0.55005 0.50717 0.0
C3690 C 0.60486 0.5415 0.49815 0.0
H3691 H 0.26665 0.862 0.05746 0.0
H3692 H 0.27947 0.93854 0.09092 0.0
H3693 H 0.29375 0.92728 0.13144 0.0
H3694 H 0.24856 0.83632 0.10986 0.0
H3695 H 0.26134 0.8103 0.1051 0.0
H3696 H 0.25208 0.82458 0.07899 0.0
H3697 H 0.29148 0.83092 0.06764 0.0
H3698 H 0.30092 0.81688 0.09388 0.0
H3699 H 0.31482 0.8473 0.09063 0.0
H3700 H 0.30681 0.90754 0.16812 0.0
H3701 H 0.31636 0.8806 0.19868 0.0
H3702 H 0.29477 0.81717 0.14081 0.0
C3703 C 0.27235 0.87641 0.07332 0.0
C3704 C 0.27196 0.90114 0.0711 0.0
C3705 C 0.27961 0.91946 0.09226 0.0
C3706 C 0.2878 0.91326 0.1153 0.0
C3707 C 0.28819 0.8887 0.11675 0.0
C3708 C 0.28057 0.87057 0.09635 0.0
C3709 C 0.28266 0.84555 0.10281 0.0
C3710 C 0.2598 0.82817 0.09897 0.0
C3711 C 0.29841 0.83452 0.08785 0.0
C3712 C 0.29262 0.8524 0.13009 0.0
C3713 C 0.29574 0.87738 0.13778 0.0
C3714 C 0.30442 0.88796 0.16232 0.0
C3715 C 0.30973 0.87253 0.17952 0.0
C3716 C 0.3063 0.84683 0.17206 0.0
C3717 C 0.29787 0.83677 0.14696 0.0
H3718 H 0.98426 0.559 0.87298 0.0
H3719 H 0.92698 0.57259 0.90431 0.0
H3720 H 0.94607 0.57035 0.94601 0.0
H3721 H 0.99877 0.51592 0.91442 0.0
H3722 H 0.0283 0.52675 0.91797 0.0
H3723 H 1.01057 0.52985 0.89007 0.0
H3724 H 0.02672 0.57651 0.89708 0.0
H3725 H 0.04456 0.57352 0.92493 0.0
H3726 H 0.02615 0.59462 0.92631 0.0
H3727 H 0.97178 0.56537 0.98691 0.0
H3728 H 1.00127 0.56004 0.02018 0.0
H3729 H 0.04312 0.55028 0.96503 0.0
C3730 C 0.97573 0.56186 0.88855 0.0
C3731 C 0.95352 0.56623 0.88418 0.0
C3732 C 0.94364 0.56935 0.90598 0.0
C3733 C 0.95451 0.56804 0.93026 0.0
C3734 C 0.97595 0.56352 0.93382 0.0
C3735 C 0.98658 0.56064 0.91349 0.0
C3736 C 1.00976 0.55592 0.92279 0.0
C3737 C 1.01198 0.53061 0.91057 0.0
C3738 C 0.02787 0.57635 0.91745 0.0
C3739 C 1.01044 0.55658 0.95118 0.0
C3740 C 0.99064 0.5609 0.95714 0.0
C3741 C 0.98727 0.56201 0.9821 0.0
C3742 C 1.00422 0.5588 1.00118 0.0
C3743 C 0.02492 0.55449 0.99601 0.0
C3744 C 0.02773 0.55348 0.97025 0.0
H3745 H 0.30575 0.2353 0.62214 0.0
H3746 H 0.25222 0.17289 0.62056 0.0
H3747 H 0.25113 0.18612 0.66474 0.0
H3748 H 0.33358 0.23249 0.68488 0.0
H3749 H 0.34226 0.26536 0.69305 0.0
H3750 H 0.33868 0.25135 0.66105 0.0
H3751 H 0.31143 0.27901 0.64842 0.0
H3752 H 0.31482 0.29298 0.68041 0.0
H3753 H 0.28756 0.27889 0.66344 0.0
H3754 H 0.25402 0.20738 0.70832 0.0
H3755 H 0.26395 0.23234 0.75009 0.0
H3756 H 0.31787 0.27919 0.72555 0.0
C3757 C 0.29389 0.2244 0.63117 0.0
C3758 C 0.279 0.20306 0.61779 0.0
C3759 C 0.26385 0.1892 0.63036 0.0
C3760 C 0.26302 0.19665 0.65548 0.0
C3761 C 0.27774 0.21781 0.66809 0.0
C3762 C 0.2932 0.23127 0.65657 0.0
C3763 C 0.30766 0.25277 0.67487 0.0
C3764 C 0.33199 0.25034 0.67869 0.0
C3765 C 0.30521 0.27737 0.66626 0.0
C3766 C 0.29769 0.24943 0.69829 0.0
C3767 C 0.28024 0.22932 0.69379 0.0
C3768 C 0.2678 0.22301 0.71213 0.0
C3769 C 0.27348 0.2374 0.73577 0.0
C3770 C 0.2917 0.25765 0.74114 0.0
C3771 C 0.30396 0.26368 0.72206 0.0
H3772 H 0.60786 0.57658 0.25921 0.0
H3773 H 0.66219 0.539 0.25579 0.0
H3774 H 0.65147 0.52911 0.21008 0.0
H3775 H 0.56829 0.53664 0.20831 0.0
H3776 H 0.55775 0.56151 0.1964 0.0
H3777 H 0.5686 0.56417 0.22907 0.0
H3778 H 0.59589 0.60444 0.22649 0.0
H3779 H 0.58523 0.6018 0.19377 0.0
H3780 H 0.61442 0.60439 0.20414 0.0
H3781 H 0.63463 0.52239 0.16509 0.0
H3782 H 0.61413 0.52161 0.12291 0.0
H3783 H 0.57264 0.56689 0.15385 0.0
C3784 C 0.61722 0.56595 0.24878 0.0
C3785 C 0.63568 0.5582 0.26104 0.0
C3786 C 0.64794 0.54494 0.24677 0.0
C3787 C 0.64196 0.53923 0.2208 0.0
C3788 C 0.62391 0.54735 0.2092 0.0
C3789 C 0.61181 0.56063 0.22261 0.0
C3790 C 0.59392 0.56827 0.20519 0.0
C3791 C 0.57077 0.55697 0.21003 0.0
C3792 C 0.59759 0.5964 0.20755 0.0
C3793 C 0.59784 0.55712 0.17997 0.0
C3794 C 0.61507 0.54487 0.18287 0.0
C3795 C 0.62129 0.53215 0.16257 0.0
C3796 C 0.60958 0.53182 0.1387 0.0
C3797 C 0.59212 0.54452 0.13514 0.0
C3798 C 0.58627 0.5575 0.15605 0.0
H3799 H 0.26065 0.86539 0.95095 0.0
H3800 H 0.21904 0.90047 0.90265 0.0
H3801 H 0.22429 0.87312 0.86609 0.0
H3802 H 0.29998 0.86445 0.91367 0.0
H3803 H 0.30634 0.83565 0.92046 0.0
H3804 H 0.2959 0.85432 0.94296 0.0
H3805 H 0.26352 0.818 0.94385 0.0
H3806 H 0.27405 0.799 0.9216 0.0
H3807 H 0.24588 0.80284 0.91513 0.0
H3808 H 0.23611 0.84333 0.83487 0.0
H3809 H 0.25631 0.81724 0.81137 0.0
H3810 H 0.29249 0.80509 0.88075 0.0
C3811 C 0.25194 0.86685 0.93283 0.0
C3812 C 0.23905 0.88474 0.9297 0.0
C3813 C 0.2287 0.8866 0.9055 0.0
C3814 C 0.23156 0.87114 0.88467 0.0
C3815 C 0.24493 0.85415 0.88847 0.0
C3816 C 0.25501 0.85206 0.91199 0.0
C3817 C 0.27082 0.83478 0.9111 0.0
C3818 C 0.29466 0.84811 0.92273 0.0
C3819 C 0.26309 0.81232 0.92366 0.0
C3820 C 0.26848 0.82779 0.88333 0.0
C3821 C 0.2531 0.83865 0.87057 0.0
C3822 C 0.24831 0.83494 0.84467 0.0
C3823 C 0.2599 0.82019 0.83152 0.0
C3824 C 0.27617 0.80959 0.84436 0.0
C3825 C 0.28029 0.81323 0.87054 0.0
H3826 H 0.99344 0.57235 0.74817 0.0
H3827 H 0.92583 0.54694 0.7096 0.0
H3828 H 0.93944 0.54192 0.66961 0.0
H3829 H 1.01418 0.60624 0.69929 0.0
H3830 H 0.04081 0.5978 0.70319 0.0
H3831 H 0.02603 0.59966 0.72903 0.0
H3832 H 0.02838 0.55508 0.73414 0.0
H3833 H 0.04301 0.55314 0.70817 0.0
H3834 H 1.01794 0.53098 0.70799 0.0
H3835 H 0.96081 0.53873 0.63159 0.0
H3836 H 0.98638 0.53876 0.60134 0.0
H3837 H 0.04195 0.56641 0.66148 0.0
C3838 C 0.98135 0.56582 0.73136 0.0
C3839 C 0.95795 0.56023 0.73313 0.0
C3840 C 0.94351 0.5516 0.70987 0.0
C3841 C 0.95126 0.5486 0.68662 0.0
C3842 C 0.97405 0.55414 0.6856 0.0
C3843 C 0.98897 0.56266 0.70748 0.0
C3844 C 1.01269 0.56718 0.70082 0.0
C3845 C 0.02412 0.59434 0.70855 0.0
C3846 C 0.02632 0.55062 0.71355 0.0
C3847 C 1.00885 0.56005 0.67201 0.0
C3848 C 0.98628 0.55247 0.6638 0.0
C3849 C 0.97843 0.54475 0.63821 0.0
C3850 C 0.99342 0.54478 0.62081 0.0
C3851 C 1.01688 0.55252 0.62789 0.0
C3852 C 0.02441 0.56027 0.65448 0.0
H3853 H 0.27087 0.18932 0.4418 0.0
H3854 H 0.29089 0.24483 0.50761 0.0
H3855 H 0.30063 0.27639 0.48117 0.0
H3856 H 0.31352 0.21333 0.4087 0.0
H3857 H 0.29622 0.2066 0.37845 0.0
H3858 H 0.28978 0.18816 0.40221 0.0
H3859 H 0.25042 0.19735 0.39747 0.0
H3860 H 0.2568 0.2159 0.37372 0.0
H3861 H 0.24723 0.22879 0.40076 0.0
H3862 H 0.31075 0.30178 0.44842 0.0
H3863 H 0.32002 0.31954 0.41133 0.0
H3864 H 0.29232 0.24913 0.36513 0.0
C3865 C 0.27718 0.20813 0.45068 0.0
C3866 C 0.28007 0.21436 0.47708 0.0
C3867 C 0.2884 0.23933 0.48765 0.0
C3868 C 0.29401 0.2575 0.4727 0.0
C3869 C 0.29107 0.25074 0.44695 0.0
C3870 C 0.28274 0.2267 0.43591 0.0
C3871 C 0.28166 0.22454 0.4077 0.0
C3872 C 0.29616 0.20712 0.39874 0.0
C3873 C 0.25759 0.21614 0.39411 0.0
C3874 C 0.29113 0.251 0.40473 0.0
C3875 C 0.29636 0.26571 0.42773 0.0
C3876 C 0.30643 0.29048 0.43031 0.0
C3877 C 0.31161 0.30045 0.40906 0.0
C3878 C 0.30657 0.28596 0.38521 0.0
C3879 C 0.29586 0.26088 0.38298 0.0
H3880 H 0.40037 0.61818 0.58651 0.0
H3881 H 0.33396 0.57309 0.57031 0.0
H3882 H 0.34892 0.537 0.55661 0.0
H3883 H 0.41717 0.5964 0.53534 0.0
H3884 H 0.44531 0.59677 0.54886 0.0
H3885 H 0.4305 0.61751 0.5631 0.0
H3886 H 0.43747 0.6009 0.605 0.0
H3887 H 0.45292 0.58047 0.5911 0.0
H3888 H 0.42996 0.56836 0.60573 0.0
H3889 H 0.3705 0.5079 0.53788 0.0
H3890 H 0.39735 0.48809 0.51797 0.0
H3891 H 0.44876 0.55309 0.54628 0.0
C3892 C 0.38906 0.60051 0.58114 0.0
C3893 C 0.36603 0.59841 0.5792 0.0
C3894 C 0.35167 0.5751 0.57152 0.0
C3895 C 0.36003 0.55448 0.56391 0.0
C3896 C 0.38277 0.55752 0.56449 0.0
C3897 C 0.39712 0.57989 0.57339 0.0
C3898 C 0.4204 0.57929 0.5693 0.0
C3899 C 0.42881 0.59863 0.55319 0.0
C3900 C 0.43611 0.58243 0.59427 0.0
C3901 C 0.41666 0.55358 0.55551 0.0
C3902 C 0.39503 0.54102 0.55331 0.0
C3903 C 0.38758 0.51741 0.53984 0.0
C3904 C 0.40278 0.5064 0.52847 0.0
C3905 C 0.42484 0.51936 0.53028 0.0
C3906 C 0.43182 0.54302 0.54424 0.0
H3907 H 0.90615 0.96616 0.61046 0.0
H3908 H 0.89885 0.90408 0.55276 0.0
H3909 H 0.93632 0.9205 0.54421 0.0
H3910 H 0.94284 1.01608 0.58743 0.0
H3911 H 0.95716 0.02556 0.61866 0.0
H3912 H 0.92861 1.00964 0.61317 0.0
H3913 H 0.94529 0.98058 0.64293 0.0
H3914 H 0.97337 0.99564 0.64225 0.0
H3915 H 0.96431 0.96311 0.63183 0.0
H3916 H 0.97377 0.94589 0.53963 0.0
H3917 H 1.00937 0.97552 0.54269 0.0
H3918 H 0.9946 1.01811 0.60702 0.0
C3919 C 0.91236 0.95638 0.5957 0.0
C3920 C 0.89915 0.93449 0.5813 0.0
C3921 C 0.90839 0.92128 0.56337 0.0
C3922 C 0.92969 0.93046 0.55844 0.0
C3923 C 0.94217 0.95232 0.57252 0.0
C3924 C 0.93408 0.9648 0.59127 0.0
C3925 C 0.952 0.98612 0.60569 0.0
C3926 C 0.9446 1.01074 0.60626 0.0
C3927 C 0.95916 0.98106 0.63225 0.0
C3928 C 0.97043 0.98525 0.59042 0.0
C3929 C 0.96459 0.96537 0.57161 0.0
C3930 C 0.97859 0.96134 0.5545 0.0
C3931 C 0.99882 0.97828 0.55636 0.0
C3932 C 1.00492 0.99912 0.57511 0.0
C3933 C 0.99058 1.00227 0.59257 0.0
H3934 H 0.90675 0.06806 0.26713 0.0
H3935 H 0.9663 0.09796 0.32108 0.0
H3936 H 0.95605 0.13871 0.32498 0.0
H3937 H 0.90347 0.12602 0.23852 0.0
H3938 H 0.87372 0.11924 0.23536 0.0
H3939 H 0.88841 0.09456 0.23279 0.0
H3940 H 0.86962 0.07618 0.26751 0.0
H3941 H 0.85525 0.10095 0.27058 0.0
H3942 H 0.87254 0.09486 0.29737 0.0
H3943 H 0.93555 0.17354 0.32866 0.0
H3944 H 0.908 0.19979 0.3302 0.0
H3945 H 0.86203 0.14682 0.27321 0.0
C3946 C 0.91807 0.08351 0.2789 0.0
C3947 C 0.9375 0.08022 0.29341 0.0
C3948 C 0.95167 0.10047 0.3093 0.0
C3949 C 0.94587 0.12357 0.31171 0.0
C3950 C 0.92598 0.12599 0.29792 0.0
C3951 C 0.91251 0.10655 0.28144 0.0
C3952 C 0.89087 0.11286 0.2709 0.0
C3953 C 0.88902 0.1132 0.24272 0.0
C3954 C 0.87091 0.09517 0.27697 0.0
C3955 C 0.89373 0.13845 0.28493 0.0
C3956 C 0.91417 0.14591 0.30016 0.0
C3957 C 0.91972 0.16811 0.31636 0.0
C3958 C 0.90395 0.18292 0.31709 0.0
C3959 C 0.88279 0.1754 0.30187 0.0
C3960 C 0.87794 0.15306 0.28528 0.0
H3961 H 0.80369 0.14175 0.14385 0.0
H3962 H 0.80248 0.1964 0.09457 0.0
H3963 H 0.76194 0.1914 0.09282 0.0
H3964 H 0.75699 0.1008 0.12494 0.0
H3965 H 0.74854 0.09796 0.15449 0.0
H3966 H 0.7773 0.10838 0.15297 0.0
H3967 H 0.77704 0.1473 0.18401 0.0
H3968 H 0.74788 0.13666 0.18396 0.0
H3969 H 0.75788 0.16656 0.17601 0.0
H3970 H 0.72194 0.17148 0.08726 0.0
H3971 H 0.68526 0.14506 0.08532 0.0
H3972 H 0.71249 0.10909 0.14467 0.0
C3973 C 0.79472 0.15271 0.13294 0.0
C3974 C 0.80542 0.16823 0.11801 0.0
C3975 C 0.794 0.18367 0.10521 0.0
C3976 C 0.77116 0.18117 0.10438 0.0
C3977 C 0.76064 0.16453 0.11807 0.0
C3978 C 0.77224 0.15163 0.13327 0.0
C3979 C 0.75698 0.13579 0.14685 0.0
C3980 C 0.76019 0.10917 0.14466 0.0
C3981 C 0.76013 0.14727 0.17433 0.0
C3982 C 0.73482 0.13789 0.13296 0.0
C3983 C 0.73729 0.15539 0.11723 0.0
C3984 C 0.71958 0.15854 0.10027 0.0
C3985 C 0.69881 0.14334 0.09924 0.0
C3986 C 0.69595 0.12509 0.11495 0.0
C3987 C 0.71415 0.12284 0.13241 0.0
H3988 H 0.19942 0.44269 0.31105 0.0
H3989 H 0.25069 0.49326 0.36501 0.0
H3990 H 0.27334 0.4627 0.36573 0.0
H3991 H 0.20864 0.38692 0.34027 0.0
H3992 H 0.20419 0.36631 0.31138 0.0
H3993 H 0.19083 0.39213 0.31344 0.0
H3994 H 0.2079 0.40704 0.27646 0.0
H3995 H 0.2213 0.38124 0.27432 0.0
H3996 H 0.23746 0.41208 0.27784 0.0
H3997 H 0.29362 0.42677 0.36077 0.0
H3998 H 0.3071 0.38864 0.35272 0.0
H3999 H 0.24471 0.355 0.3045 0.0
C4000 C 0.21538 0.44759 0.32309 0.0
C4001 C 0.22236 0.4722 0.33783 0.0
C4002 C 0.24377 0.4759 0.35312 0.0
C4003 C 0.25732 0.45813 0.35379 0.0
C4004 C 0.25019 0.43486 0.33943 0.0
C4005 C 0.22951 0.42917 0.32451 0.0
C4006 C 0.22623 0.40181 0.31184 0.0
C4007 C 0.20627 0.38584 0.31968 0.0
C4008 C 0.22301 0.40045 0.28342 0.0
C4009 C 0.24814 0.39352 0.3217 0.0
C4010 C 0.26164 0.41336 0.33749 0.0
C4011 C 0.28286 0.41124 0.34854 0.0
C4012 C 0.29057 0.38897 0.34371 0.0
C4013 C 0.27763 0.36742 0.32803 0.0
C4014 C 0.25564 0.37028 0.31691 0.0
H4015 H 0.2874 0.47066 0.0616 0.0
H4016 H 0.2688 0.406 0.09648 0.0
H4017 H 0.2315 0.41545 0.09699 0.0
H4018 H 0.25966 0.50954 0.09576 0.0
H4019 H 0.25195 0.5247 0.06969 0.0
H4020 H 0.27659 0.51229 0.07183 0.0
H4021 H 0.26215 0.48638 0.02822 0.0
H4022 H 0.23748 0.49875 0.02591 0.0
H4023 H 0.23531 0.46597 0.0223 0.0
H4024 H 0.1955 0.43323 0.09342 0.0
H4025 H 0.16595 0.45677 0.08684 0.0
H4026 H 0.2093 0.50922 0.05413 0.0
C4027 C 0.2756 0.45822 0.06932 0.0
C4028 C 0.28128 0.43738 0.07893 0.0
C4029 C 0.26504 0.42199 0.08892 0.0
C4030 C 0.24377 0.42727 0.08928 0.0
C4031 C 0.2389 0.44806 0.07965 0.0
C4032 C 0.25452 0.46323 0.06988 0.0
C4033 C 0.24567 0.4846 0.06084 0.0
C4034 C 0.25928 0.50923 0.0754 0.0
C4035 C 0.24512 0.48387 0.03265 0.0
C4036 C 0.2225 0.47929 0.06699 0.0
C4037 C 0.21877 0.45814 0.0778 0.0
C4038 C 0.19839 0.44975 0.08493 0.0
C4039 C 0.18158 0.46323 0.08096 0.0
C4040 C 0.18507 0.48506 0.06998 0.0
C4041 C 0.20596 0.49295 0.06293 0.0
H4042 H 0.89376 0.94912 0.26231 0.0
H4043 H 0.94565 0.94459 0.32199 0.0
H4044 H 0.92237 0.90708 0.3314 0.0
H4045 H 0.84247 0.92246 0.28249 0.0
H4046 H 0.83229 0.90563 0.25211 0.0
H4047 H 0.85284 0.93371 0.25599 0.0
H4048 H 0.87372 0.90398 0.23059 0.0
H4049 H 0.85361 0.87702 0.233 0.0
H4050 H 0.88242 0.87945 0.24517 0.0
H4051 H 0.89155 0.87579 0.33916 0.0
H4052 H 0.85811 0.84474 0.33901 0.0
H4053 H 0.82757 0.86315 0.26952 0.0
C4054 C 0.89998 0.94018 0.27744 0.0
C4055 C 0.92089 0.95031 0.29252 0.0
C4056 C 0.92932 0.93747 0.31099 0.0
C4057 C 0.91627 0.91619 0.31637 0.0
C4058 C 0.89534 0.90722 0.30204 0.0
C4059 C 0.88755 0.91803 0.2822 0.0
C4060 C 0.86563 0.90235 0.26796 0.0
C4061 C 0.84732 0.91703 0.26443 0.0
C4062 C 0.86905 0.88997 0.24269 0.0
C4063 C 0.86083 0.88344 0.28527 0.0
C4064 C 0.87856 0.88644 0.30444 0.0
C4065 C 0.87787 0.87262 0.3238 0.0
C4066 C 0.85874 0.85498 0.3235 0.0
C4067 C 0.84044 0.85095 0.30388 0.0
C4068 C 0.84144 0.86552 0.28452 0.0
H4069 H 0.69836 0.12147 0.84511 0.0
H4070 H 0.73883 0.07749 0.81035 0.0
H4071 H 0.76381 0.11536 0.80431 0.0
H4072 H 0.70382 0.16975 0.80654 0.0
H4073 H 0.70598 0.19479 0.83119 0.0
H4074 H 0.69127 0.16445 0.83356 0.0
H4075 H 0.71646 0.16501 0.87575 0.0
H4076 H 0.73028 0.19579 0.87347 0.0
H4077 H 0.74611 0.17243 0.8775 0.0
H4078 H 0.7838 0.15922 0.79882 0.0
H4079 H 0.79816 0.20322 0.79789 0.0
H4080 H 0.74787 0.22191 0.83899 0.0
C4081 C 0.71261 0.11973 0.83645 0.0
C4082 C 0.7164 0.0956 0.82863 0.0
C4083 C 0.73534 0.09505 0.81709 0.0
C4084 C 0.74972 0.11679 0.81339 0.0
C4085 C 0.74562 0.13999 0.82132 0.0
C4086 C 0.72765 0.14166 0.83301 0.0
C4087 C 0.72736 0.16916 0.83999 0.0
C4088 C 0.70582 0.17487 0.82706 0.0
C4089 C 0.73019 0.17599 0.86837 0.0
C4090 C 0.7476 0.18264 0.83008 0.0
C4091 C 0.75772 0.16523 0.81919 0.0
C4092 C 0.77601 0.17276 0.80768 0.0
C4093 C 0.78417 0.19817 0.80722 0.0
C4094 C 0.77481 0.21697 0.81861 0.0
C4095 C 0.75608 0.20863 0.8304 0.0
loop_
_geom_bond_atom_site_label_1
_geom_bond_atom_site_label_2
_geom_bond_distance
_geom_bond_site_symmetry_2
_ccdc_geom_bond_type
Mn0 O5 2.095 . S
Mn0 O15 2.162 . S
Mn0 O16 2.297 1_455 S
Mn0 O24 2.385 1_455 S
Mn0 O25 2.209 1_455 S
Mn0 O26 2.094 . S
Mn1 O6 2.076 1_655 S
Mn1 N8 2.267 . S
Mn1 N17 2.329 . S
Mn1 O25 2.232 . S
Mn1 O27 2.122 1_655 S
C2 O24 1.234 . S
C2 O25 1.283 . S
C3 O15 1.284 1_655 S
C3 O16 1.237 . S
C4 O26 1.240 . S
C4 O27 1.264 . S
O5 Mn0 2.095 . S
O5 C14 1.250 . S
O6 Mn1 2.076 1_455 S
O6 C14 1.258 . S
C7 N8 1.326 . S
C7 C11 1.460 . S
C7 H13 0.929 1_655 S
N8 Mn1 2.267 . S
N8 C7 1.326 . S
N8 C12 1.362 . S
C9 C10 1.258 . S
C9 C12 1.431 . S
C9 C29 1.449 . S
C10 C9 1.258 . S
C10 C11 1.477 . S
C10 H30 0.931 . S
C11 C7 1.460 . S
C11 C10 1.477 . S
C11 H31 0.930 . S
C12 N8 1.362 . S
C12 C9 1.431 . S
C12 C22 1.476 . S
H13 C7 0.929 1_455 S
C14 O5 1.250 . S
C14 O6 1.258 . S
O15 Mn0 2.162 . S
O15 C3 1.284 1_455 S
O16 Mn0 2.297 1_655 S
O16 C3 1.237 . S
N17 Mn1 2.329 . S
N17 C18 1.328 . S
N17 C22 1.318 . S
C18 N17 1.328 . S
C18 C19 1.457 . S
C18 H23 0.929 . S
C19 C18 1.457 . S
C19 C20 1.291 . S
C19 H32 0.931 . S
C20 C19 1.291 . S
C20 C21 1.373 . S
C20 H33 0.929 . S
C21 C20 1.373 . S
C21 C22 1.396 . S
C21 C28 1.403 . S
C22 C12 1.476 . S
C22 N17 1.318 . S
C22 C21 1.396 . S
H23 C18 0.929 . S
O24 Mn0 2.385 1_655 S
O24 C2 1.234 . S
O25 Mn0 2.209 1_655 S
O25 Mn1 2.232 . S
O25 C2 1.283 . S
O26 Mn0 2.094 . S
O26 C4 1.240 . S
O27 Mn1 2.122 1_455 S
O27 C4 1.264 . S
C28 C21 1.403 . S
C28 C29 1.399 . S
C28 H34 0.929 . S
C29 C9 1.449 . S
C29 C28 1.399 . S
C29 H35 0.930 . S
H30 C10 0.931 . S
H31 C11 0.930 . S
H32 C19 0.931 . S
H33 C20 0.929 . S
H34 C28 0.929 . S
H35 C29 0.930 . S
Mn36 O41 2.095 . S
Mn36 O51 2.162 . S
Mn36 O52 2.297 . S
Mn36 O60 2.385 . S
Mn36 O61 2.209 . S
Mn36 O62 2.094 . S
Mn37 O42 2.121 . S
Mn37 N44 2.257 . S
Mn37 N53 2.282 . S
Mn37 O61 2.215 . S
Mn37 O63 2.117 . S
C38 O60 1.234 . S
C38 O61 1.283 . S
C39 O51 1.281 . S
C39 O52 1.236 . S
C40 O62 1.240 . S
C40 O63 1.264 . S
O41 Mn36 2.095 . S
O41 C50 1.250 . S
O42 Mn37 2.121 . S
O42 C50 1.258 . S
C43 N44 1.326 . S
C43 C47 1.460 . S
C43 H49 0.929 . S
N44 Mn37 2.257 . S
N44 C43 1.326 . S
N44 C48 1.362 . S
C45 C46 1.258 . S
C45 C48 1.431 . S
C45 C65 1.449 . S
C46 C45 1.258 . S
C46 C47 1.477 . S
C46 H66 0.931 . S
C47 C43 1.460 . S
C47 C46 1.477 . S
C47 H67 0.930 . S
C48 N44 1.362 . S
C48 C45 1.431 . S
C48 C58 1.476 . S
H49 C43 0.929 . S
C50 O41 1.250 . S
C50 O42 1.258 . S
O51 Mn36 2.162 . S
O51 C39 1.281 . S
O52 Mn36 2.297 . S
O52 C39 1.236 . S
N53 Mn37 2.282 . S
N53 C54 1.328 . S
N53 C58 1.318 . S
C54 N53 1.328 . S
C54 C55 1.457 . S
C54 H59 0.929 . S
C55 C54 1.457 . S
C55 C56 1.291 . S
C55 H68 0.931 . S
C56 C55 1.291 . S
C56 C57 1.373 . S
C56 H69 0.929 . S
C57 C56 1.373 . S
C57 C58 1.396 . S
C57 C64 1.403 . S
C58 C48 1.476 . S
C58 N53 1.318 . S
C58 C57 1.396 . S
H59 C54 0.929 . S
O60 Mn36 2.385 . S
O60 C38 1.234 . S
O61 Mn36 2.209 . S
O61 Mn37 2.215 . S
O61 C38 1.283 . S
O62 Mn36 2.094 . S
O62 C40 1.240 . S
O63 Mn37 2.117 . S
O63 C40 1.264 . S
C64 C57 1.403 . S
C64 C65 1.399 . S
C64 H70 0.929 . S
C65 C45 1.449 . S
C65 C64 1.399 . S
C65 H71 0.930 . S
H66 C46 0.931 . S
H67 C47 0.930 . S
H68 C55 0.931 . S
H69 C56 0.929 . S
H70 C64 0.929 . S
H71 C65 0.930 . S
Mn72 O77 2.095 . S
Mn72 O87 2.162 . S
Mn72 O88 2.297 . S
Mn72 O96 2.385 . S
Mn72 O97 2.209 . S
Mn72 O98 2.094 . S
Mn73 O78 2.121 . S
Mn73 N80 2.257 . S
Mn73 N89 2.282 . S
Mn73 O97 2.215 . S
Mn73 O99 2.117 . S
C74 O96 1.234 . S
C74 O97 1.283 . S
C75 O87 1.281 . S
C75 O88 1.236 . S
C76 O98 1.240 . S
C76 O99 1.264 . S
O77 Mn72 2.095 . S
O77 C86 1.250 . S
O78 Mn73 2.121 . S
O78 C86 1.258 . S
C79 N80 1.326 . S
C79 C83 1.460 . S
C79 H85 0.929 . S
N80 Mn73 2.257 . S
N80 C79 1.326 . S
N80 C84 1.362 . S
C81 C82 1.258 . S
C81 C84 1.431 . S
C81 C101 1.449 . S
C82 C81 1.258 . S
C82 C83 1.477 . S
C82 H102 0.931 . S
C83 C79 1.460 . S
C83 C82 1.477 . S
C83 H103 0.930 . S
C84 N80 1.362 . S
C84 C81 1.431 . S
C84 C94 1.476 . S
H85 C79 0.929 . S
C86 O77 1.250 . S
C86 O78 1.258 . S
O87 Mn72 2.162 . S
O87 C75 1.281 . S
O88 Mn72 2.297 . S
O88 C75 1.236 . S
N89 Mn73 2.282 . S
N89 C90 1.328 . S
N89 C94 1.318 . S
C90 N89 1.328 . S
C90 C91 1.457 . S
C90 H95 0.929 . S
C91 C90 1.457 . S
C91 C92 1.291 . S
C91 H104 0.931 . S
C92 C91 1.291 . S
C92 C93 1.373 . S
C92 H105 0.929 . S
C93 C92 1.373 . S
C93 C94 1.396 . S
C93 C100 1.403 . S
C94 C84 1.476 . S
C94 N89 1.318 . S
C94 C93 1.396 . S
H95 C90 0.929 . S
O96 Mn72 2.385 . S
O96 C74 1.234 . S
O97 Mn72 2.209 . S
O97 Mn73 2.215 . S
O97 C74 1.283 . S
O98 Mn72 2.094 . S
O98 C76 1.240 . S
O99 Mn73 2.117 . S
O99 C76 1.264 . S
C100 C93 1.403 . S
C100 C101 1.399 . S
C100 H106 0.929 . S
C101 C81 1.449 . S
C101 C100 1.399 . S
C101 H107 0.930 . S
H102 C82 0.931 . S
H103 C83 0.930 . S
H104 C91 0.931 . S
H105 C92 0.929 . S
H106 C100 0.929 . S
H107 C101 0.930 . S
Mn108 O113 2.095 . S
Mn108 O123 2.162 . S
Mn108 O124 2.297 . S
Mn108 O132 2.385 . S
Mn108 O133 2.209 . S
Mn108 O134 2.094 . S
Mn109 O114 2.121 . S
Mn109 N116 2.257 . S
Mn109 N125 2.282 . S
Mn109 O133 2.215 . S
Mn109 O135 2.117 . S
C110 O132 1.234 . S
C110 O133 1.283 . S
C111 O123 1.281 . S
C111 O124 1.236 . S
C112 O134 1.240 . S
C112 O135 1.264 . S
O113 Mn108 2.095 . S
O113 C122 1.250 . S
O114 Mn109 2.121 . S
O114 C122 1.258 . S
C115 N116 1.326 . S
C115 C119 1.460 . S
C115 H121 0.929 . S
N116 Mn109 2.257 . S
N116 C115 1.326 . S
N116 C120 1.362 . S
C117 C118 1.258 . S
C117 C120 1.431 . S
C117 C137 1.449 . S
C118 C117 1.258 . S
C118 C119 1.477 . S
C118 H138 0.931 . S
C119 C115 1.460 . S
C119 C118 1.477 . S
C119 H139 0.930 . S
C120 N116 1.362 . S
C120 C117 1.431 . S
C120 C130 1.476 . S
H121 C115 0.929 . S
C122 O113 1.250 . S
C122 O114 1.258 . S
O123 Mn108 2.162 . S
O123 C111 1.281 . S
O124 Mn108 2.297 . S
O124 C111 1.236 . S
N125 Mn109 2.282 . S
N125 C126 1.328 . S
N125 C130 1.318 . S
C126 N125 1.328 . S
C126 C127 1.457 . S
C126 H131 0.929 . S
C127 C126 1.457 . S
C127 C128 1.291 . S
C127 H140 0.931 . S
C128 C127 1.291 . S
C128 C129 1.373 . S
C128 H141 0.929 . S
C129 C128 1.373 . S
C129 C130 1.396 . S
C129 C136 1.403 . S
C130 C120 1.476 . S
C130 N125 1.318 . S
C130 C129 1.396 . S
H131 C126 0.929 . S
O132 Mn108 2.385 . S
O132 C110 1.234 . S
O133 Mn108 2.209 . S
O133 Mn109 2.215 . S
O133 C110 1.283 . S
O134 Mn108 2.094 . S
O134 C112 1.240 . S
O135 Mn109 2.117 . S
O135 C112 1.264 . S
C136 C129 1.403 . S
C136 C137 1.399 . S
C136 H142 0.929 . S
C137 C117 1.449 . S
C137 C136 1.399 . S
C137 H143 0.930 . S
H138 C118 0.931 . S
H139 C119 0.930 . S
H140 C127 0.931 . S
H141 C128 0.929 . S
H142 C136 0.929 . S
H143 C137 0.930 . S
Mn144 O149 2.095 . S
Mn144 O159 2.162 . S
Mn144 O160 2.297 . S
Mn144 O168 2.385 . S
Mn144 O169 2.209 . S
Mn144 O170 2.094 . S
Mn145 O150 2.121 . S
Mn145 N152 2.257 . S
Mn145 N161 2.282 1_455 S
Mn145 O169 2.215 . S
Mn145 O171 2.117 . S
C146 O168 1.234 . S
C146 O169 1.283 . S
C147 O159 1.281 . S
C147 O160 1.236 . S
C148 O170 1.240 . S
C148 O171 1.264 . S
O149 Mn144 2.095 . S
O149 C158 1.250 . S
O150 Mn145 2.121 . S
O150 C158 1.258 . S
C151 N152 1.326 . S
C151 C155 1.460 . S
C151 H157 0.929 . S
N152 Mn145 2.257 . S
N152 C151 1.326 . S
N152 C156 1.362 . S
C153 C154 1.258 . S
C153 C156 1.431 . S
C153 C173 1.449 1_455 S
C154 C153 1.258 . S
C154 C155 1.477 . S
C154 H174 0.931 1_554 S
C155 C151 1.460 . S
C155 C154 1.477 . S
C155 H175 0.930 . S
C156 N152 1.362 . S
C156 C153 1.431 . S
C156 C166 1.476 1_455 S
H157 C151 0.929 . S
C158 O149 1.250 . S
C158 O150 1.258 . S
O159 Mn144 2.162 . S
O159 C147 1.281 . S
O160 Mn144 2.297 . S
O160 C147 1.236 . S
N161 Mn145 2.282 1_655 S
N161 C162 1.328 . S
N161 C166 1.318 . S
C162 N161 1.328 . S
C162 C163 1.457 . S
C162 H167 0.929 . S
C163 C162 1.457 . S
C163 C164 1.291 . S
C163 H176 0.931 . S
C164 C163 1.291 . S
C164 C165 1.373 . S
C164 H177 0.929 . S
C165 C164 1.373 . S
C165 C166 1.396 . S
C165 C172 1.403 . S
C166 C156 1.476 1_655 S
C166 N161 1.318 . S
C166 C165 1.396 . S
H167 C162 0.929 . S
O168 Mn144 2.385 . S
O168 C146 1.234 . S
O169 Mn144 2.209 . S
O169 Mn145 2.215 . S
O169 C146 1.283 . S
O170 Mn144 2.094 . S
O170 C148 1.240 . S
O171 Mn145 2.117 . S
O171 C148 1.264 . S
C172 C165 1.403 . S
C172 C173 1.399 . S
C172 H178 0.929 . S
C173 C153 1.449 1_655 S
C173 C172 1.399 . S
C173 H179 0.930 . S
H174 C154 0.931 1_556 S
H175 C155 0.930 . S
H176 C163 0.931 . S
H177 C164 0.929 . S
H178 C172 0.929 . S
H179 C173 0.930 . S
Mn180 O185 2.095 . S
Mn180 O195 2.162 . S
Mn180 O196 2.297 . S
Mn180 O204 2.385 . S
Mn180 O205 2.209 . S
Mn180 O206 2.094 . S
Mn181 O186 2.121 . S
Mn181 N188 2.257 . S
Mn181 N197 2.282 . S
Mn181 O205 2.215 . S
Mn181 O207 2.117 . S
C182 O204 1.234 . S
C182 O205 1.283 . S
C183 O195 1.281 . S
C183 O196 1.236 . S
C184 O206 1.240 . S
C184 O207 1.264 . S
O185 Mn180 2.095 . S
O185 C194 1.250 . S
O186 Mn181 2.121 . S
O186 C194 1.258 . S
C187 N188 1.326 . S
C187 C191 1.460 . S
C187 H193 0.929 . S
N188 Mn181 2.257 . S
N188 C187 1.326 . S
N188 C192 1.362 . S
C189 C190 1.258 . S
C189 C192 1.431 . S
C189 C209 1.449 . S
C190 C189 1.258 . S
C190 C191 1.477 . S
C190 H210 0.931 . S
C191 C187 1.460 . S
C191 C190 1.477 . S
C191 H211 0.930 . S
C192 N188 1.362 . S
C192 C189 1.431 . S
C192 C202 1.476 . S
H193 C187 0.929 . S
C194 O185 1.250 . S
C194 O186 1.258 . S
O195 Mn180 2.162 . S
O195 C183 1.281 . S
O196 Mn180 2.297 . S
O196 C183 1.236 . S
N197 Mn181 2.282 . S
N197 C198 1.328 . S
N197 C202 1.318 . S
C198 N197 1.328 . S
C198 C199 1.457 . S
C198 H203 0.929 . S
C199 C198 1.457 . S
C199 C200 1.291 . S
C199 H212 0.931 . S
C200 C199 1.291 . S
C200 C201 1.373 . S
C200 H213 0.929 . S
C201 C200 1.373 . S
C201 C202 1.396 . S
C201 C208 1.403 . S
C202 C192 1.476 . S
C202 N197 1.318 . S
C202 C201 1.396 . S
H203 C198 0.929 . S
O204 Mn180 2.385 . S
O204 C182 1.234 . S
O205 Mn180 2.209 . S
O205 Mn181 2.215 . S
O205 C182 1.283 . S
O206 Mn180 2.094 . S
O206 C184 1.240 . S
O207 Mn181 2.117 . S
O207 C184 1.264 . S
C208 C201 1.403 . S
C208 C209 1.399 . S
C208 H214 0.929 . S
C209 C189 1.449 . S
C209 C208 1.399 . S
C209 H215 0.930 . S
H210 C190 0.931 . S
H211 C191 0.930 . S
H212 C199 0.931 . S
H213 C200 0.929 . S
H214 C208 0.929 . S
H215 C209 0.930 . S
Mn216 O221 2.095 . S
Mn216 O231 2.162 . S
Mn216 O232 2.297 . S
Mn216 O240 2.385 . S
Mn216 O241 2.209 . S
Mn216 O242 2.094 . S
Mn217 O222 2.121 . S
Mn217 N224 2.257 . S
Mn217 N233 2.282 . S
Mn217 O241 2.215 . S
Mn217 O243 2.117 . S
C218 O240 1.234 . S
C218 O241 1.283 . S
C219 O231 1.281 . S
C219 O232 1.236 . S
C220 O242 1.240 . S
C220 O243 1.264 . S
O221 Mn216 2.095 . S
O221 C230 1.250 . S
O222 Mn217 2.121 . S
O222 C230 1.258 . S
C223 N224 1.326 . S
C223 C227 1.460 . S
C223 H229 0.929 . S
N224 Mn217 2.257 . S
N224 C223 1.326 . S
N224 C228 1.362 . S
C225 C226 1.258 . S
C225 C228 1.431 . S
C225 C245 1.449 . S
C226 C225 1.258 . S
C226 C227 1.477 . S
C226 H246 0.931 . S
C227 C223 1.460 . S
C227 C226 1.477 . S
C227 H247 0.930 . S
C228 N224 1.362 . S
C228 C225 1.431 . S
C228 C238 1.476 . S
H229 C223 0.929 . S
C230 O221 1.250 . S
C230 O222 1.258 . S
O231 Mn216 2.162 . S
O231 C219 1.281 . S
O232 Mn216 2.297 . S
O232 C219 1.236 . S
N233 Mn217 2.282 . S
N233 C234 1.328 . S
N233 C238 1.318 . S
C234 N233 1.328 . S
C234 C235 1.457 . S
C234 H239 0.929 . S
C235 C234 1.457 . S
C235 C236 1.291 . S
C235 H248 0.931 . S
C236 C235 1.291 . S
C236 C237 1.373 . S
C236 H249 0.929 . S
C237 C236 1.373 . S
C237 C238 1.396 . S
C237 C244 1.403 . S
C238 C228 1.476 . S
C238 N233 1.318 . S
C238 C237 1.396 . S
H239 C234 0.929 . S
O240 Mn216 2.385 . S
O240 C218 1.234 . S
O241 Mn216 2.209 . S
O241 Mn217 2.215 . S
O241 C218 1.283 . S
O242 Mn216 2.094 . S
O242 C220 1.240 . S
O243 Mn217 2.117 . S
O243 C220 1.264 . S
C244 C237 1.403 . S
C244 C245 1.399 . S
C244 H250 0.929 . S
C245 C225 1.449 . S
C245 C244 1.399 . S
C245 H251 0.930 . S
H246 C226 0.931 . S
H247 C227 0.930 . S
H248 C235 0.931 . S
H249 C236 0.929 . S
H250 C244 0.929 . S
H251 C245 0.930 . S
Mn252 O257 2.095 . S
Mn252 O267 2.162 . S
Mn252 O268 2.297 . S
Mn252 O276 2.385 1_455 S
Mn252 O277 2.209 1_455 S
Mn252 O278 2.094 . S
Mn253 O258 2.121 . S
Mn253 N260 2.257 1_455 S
Mn253 N269 2.282 1_455 S
Mn253 O277 2.215 1_455 S
Mn253 O279 2.117 . S
C254 O276 1.234 . S
C254 O277 1.283 . S
C255 O267 1.281 . S
C255 O268 1.236 . S
C256 O278 1.240 . S
C256 O279 1.264 . S
O257 Mn252 2.095 . S
O257 C266 1.250 . S
O258 Mn253 2.121 . S
O258 C266 1.258 . S
C259 N260 1.326 1_455 S
C259 C263 1.460 1_455 S
C259 H265 0.929 . S
N260 Mn253 2.257 1_655 S
N260 C259 1.326 1_655 S
N260 C264 1.362 . S
C261 C262 1.258 . S
C261 C264 1.431 . S
C261 C281 1.449 . S
C262 C261 1.258 . S
C262 C263 1.477 . S
C262 H282 0.931 . S
C263 C259 1.460 1_655 S
C263 C262 1.477 . S
C263 H283 0.930 1_655 S
C264 N260 1.362 . S
C264 C261 1.431 . S
C264 C274 1.476 . S
H265 C259 0.929 . S
C266 O257 1.250 . S
C266 O258 1.258 . S
O267 Mn252 2.162 . S
O267 C255 1.281 . S
O268 Mn252 2.297 . S
O268 C255 1.236 . S
N269 Mn253 2.282 1_655 S
N269 C270 1.328 . S
N269 C274 1.318 . S
C270 N269 1.328 . S
C270 C271 1.457 . S
C270 H275 0.929 . S
C271 C270 1.457 . S
C271 C272 1.291 . S
C271 H284 0.931 . S
C272 C271 1.291 . S
C272 C273 1.373 . S
C272 H285 0.929 . S
C273 C272 1.373 . S
C273 C274 1.396 . S
C273 C280 1.403 . S
C274 C264 1.476 . S
C274 N269 1.318 . S
C274 C273 1.396 . S
H275 C270 0.929 . S
O276 Mn252 2.385 1_655 S
O276 C254 1.234 . S
O277 Mn252 2.209 1_655 S
O277 Mn253 2.215 1_655 S
O277 C254 1.283 . S
O278 Mn252 2.094 . S
O278 C256 1.240 . S
O279 Mn253 2.117 . S
O279 C256 1.264 . S
C280 C273 1.403 . S
C280 C281 1.399 . S
C280 H286 0.929 . S
C281 C261 1.449 . S
C281 C280 1.399 . S
C281 H287 0.930 . S
H282 C262 0.931 . S
H283 C263 0.930 1_455 S
H284 C271 0.931 . S
H285 C272 0.929 . S
H286 C280 0.929 . S
H287 C281 0.930 . S
Mn288 O293 2.095 . S
Mn288 O303 2.162 . S
Mn288 O304 2.297 . S
Mn288 O312 2.385 1_545 S
Mn288 O313 2.209 . S
Mn288 O314 2.094 . S
Mn289 O294 2.121 . S
Mn289 N296 2.257 . S
Mn289 N305 2.282 1_545 S
Mn289 O313 2.215 . S
Mn289 O315 2.117 . S
C290 O312 1.234 . S
C290 O313 1.283 1_565 S
C291 O303 1.281 . S
C291 O304 1.236 . S
C292 O314 1.240 . S
C292 O315 1.264 . S
O293 Mn288 2.095 . S
O293 C302 1.250 . S
O294 Mn289 2.121 . S
O294 C302 1.258 . S
C295 N296 1.326 . S
C295 C299 1.460 . S
C295 H301 0.929 . S
N296 Mn289 2.257 . S
N296 C295 1.326 . S
N296 C300 1.362 1_545 S
C297 C298 1.258 . S
C297 C300 1.431 . S
C297 C317 1.449 . S
C298 C297 1.258 . S
C298 C299 1.477 1_565 S
C298 H318 0.931 . S
C299 C295 1.460 . S
C299 C298 1.477 1_545 S
C299 H319 0.930 . S
C300 N296 1.362 1_565 S
C300 C297 1.431 . S
C300 C310 1.476 . S
H301 C295 0.929 . S
C302 O293 1.250 . S
C302 O294 1.258 . S
O303 Mn288 2.162 . S
O303 C291 1.281 . S
O304 Mn288 2.297 . S
O304 C291 1.236 . S
N305 Mn289 2.282 1_565 S
N305 C306 1.328 . S
N305 C310 1.318 . S
C306 N305 1.328 . S
C306 C307 1.457 . S
C306 H311 0.929 . S
C307 C306 1.457 . S
C307 C308 1.291 . S
C307 H320 0.931 . S
C308 C307 1.291 . S
C308 C309 1.373 . S
C308 H321 0.929 . S
C309 C308 1.373 . S
C309 C310 1.396 . S
C309 C316 1.403 . S
C310 C300 1.476 . S
C310 N305 1.318 . S
C310 C309 1.396 . S
H311 C306 0.929 . S
O312 Mn288 2.385 1_565 S
O312 C290 1.234 . S
O313 Mn288 2.209 . S
O313 Mn289 2.215 . S
O313 C290 1.283 1_545 S
O314 Mn288 2.094 . S
O314 C292 1.240 . S
O315 Mn289 2.117 . S
O315 C292 1.264 . S
C316 C309 1.403 . S
C316 C317 1.399 . S
C316 H322 0.929 . S
C317 C297 1.449 . S
C317 C316 1.399 . S
C317 H323 0.930 . S
H318 C298 0.931 . S
H319 C299 0.930 . S
H320 C307 0.931 . S
H321 C308 0.929 . S
H322 C316 0.929 . S
H323 C317 0.930 . S
Mn324 O329 2.095 . S
Mn324 O339 2.162 . S
Mn324 O340 2.297 . S
Mn324 O348 2.385 . S
Mn324 O349 2.209 . S
Mn324 O350 2.094 . S
Mn325 O330 2.121 . S
Mn325 N332 2.257 . S
Mn325 N341 2.282 . S
Mn325 O349 2.215 . S
Mn325 O351 2.117 . S
C326 O348 1.234 . S
C326 O349 1.283 . S
C327 O339 1.281 . S
C327 O340 1.236 . S
C328 O350 1.240 . S
C328 O351 1.264 . S
O329 Mn324 2.095 . S
O329 C338 1.250 . S
O330 Mn325 2.121 . S
O330 C338 1.258 . S
C331 N332 1.326 . S
C331 C335 1.460 . S
C331 H337 0.929 . S
N332 Mn325 2.257 . S
N332 C331 1.326 . S
N332 C336 1.362 . S
C333 C334 1.258 . S
C333 C336 1.431 . S
C333 C353 1.449 . S
C334 C333 1.258 . S
C334 C335 1.477 . S
C334 H354 0.931 . S
C335 C331 1.460 . S
C335 C334 1.477 . S
C335 H355 0.930 . S
C336 N332 1.362 . S
C336 C333 1.431 . S
C336 C346 1.476 . S
H337 C331 0.929 . S
C338 O329 1.250 . S
C338 O330 1.258 . S
O339 Mn324 2.162 . S
O339 C327 1.281 . S
O340 Mn324 2.297 . S
O340 C327 1.236 . S
N341 Mn325 2.282 . S
N341 C342 1.328 . S
N341 C346 1.318 . S
C342 N341 1.328 . S
C342 C343 1.457 . S
C342 H347 0.929 . S
C343 C342 1.457 . S
C343 C344 1.291 . S
C343 H356 0.931 . S
C344 C343 1.291 . S
C344 C345 1.373 . S
C344 H357 0.929 . S
C345 C344 1.373 . S
C345 C346 1.396 . S
C345 C352 1.403 . S
C346 C336 1.476 . S
C346 N341 1.318 . S
C346 C345 1.396 . S
H347 C342 0.929 . S
O348 Mn324 2.385 . S
O348 C326 1.234 . S
O349 Mn324 2.209 . S
O349 Mn325 2.215 . S
O349 C326 1.283 . S
O350 Mn324 2.094 . S
O350 C328 1.240 . S
O351 Mn325 2.117 . S
O351 C328 1.264 . S
C352 C345 1.403 . S
C352 C353 1.399 . S
C352 H358 0.929 . S
C353 C333 1.449 . S
C353 C352 1.399 . S
C353 H359 0.930 . S
H354 C334 0.931 . S
H355 C335 0.930 . S
H356 C343 0.931 . S
H357 C344 0.929 . S
H358 C352 0.929 . S
H359 C353 0.930 . S
Mn360 O365 2.095 . S
Mn360 O375 2.162 . S
Mn360 O376 2.297 . S
Mn360 O384 2.385 . S
Mn360 O385 2.209 . S
Mn360 O386 2.094 . S
Mn361 O366 2.121 . S
Mn361 N368 2.257 . S
Mn361 N377 2.282 . S
Mn361 O385 2.215 . S
Mn361 O387 2.117 . S
C362 O384 1.234 . S
C362 O385 1.283 . S
C363 O375 1.281 . S
C363 O376 1.236 . S
C364 O386 1.240 . S
C364 O387 1.264 . S
O365 Mn360 2.095 . S
O365 C374 1.250 . S
O366 Mn361 2.121 . S
O366 C374 1.258 . S
C367 N368 1.326 . S
C367 C371 1.460 . S
C367 H373 0.929 . S
N368 Mn361 2.257 . S
N368 C367 1.326 . S
N368 C372 1.362 . S
C369 C370 1.258 . S
C369 C372 1.431 . S
C369 C389 1.449 . S
C370 C369 1.258 . S
C370 C371 1.477 . S
C370 H390 0.931 . S
C371 C367 1.460 . S
C371 C370 1.477 . S
C371 H391 0.930 . S
C372 N368 1.362 . S
C372 C369 1.431 . S
C372 C382 1.476 . S
H373 C367 0.929 . S
C374 O365 1.250 . S
C374 O366 1.258 . S
O375 Mn360 2.162 . S
O375 C363 1.281 . S
O376 Mn360 2.297 . S
O376 C363 1.236 . S
N377 Mn361 2.282 . S
N377 C378 1.328 . S
N377 C382 1.318 . S
C378 N377 1.328 . S
C378 C379 1.457 . S
C378 H383 0.929 . S
C379 C378 1.457 . S
C379 C380 1.291 . S
C379 H392 0.931 . S
C380 C379 1.291 . S
C380 C381 1.373 . S
C380 H393 0.929 . S
C381 C380 1.373 . S
C381 C382 1.396 . S
C381 C388 1.403 . S
C382 C372 1.476 . S
C382 N377 1.318 . S
C382 C381 1.396 . S
H383 C378 0.929 . S
O384 Mn360 2.385 . S
O384 C362 1.234 . S
O385 Mn360 2.209 . S
O385 Mn361 2.215 . S
O385 C362 1.283 . S
O386 Mn360 2.094 . S
O386 C364 1.240 . S
O387 Mn361 2.117 . S
O387 C364 1.264 . S
C388 C381 1.403 . S
C388 C389 1.399 . S
C388 H394 0.929 . S
C389 C369 1.449 . S
C389 C388 1.399 . S
C389 H395 0.930 . S
H390 C370 0.931 . S
H391 C371 0.930 . S
H392 C379 0.931 . S
H393 C380 0.929 . S
H394 C388 0.929 . S
H395 C389 0.930 . S
Mn396 O401 2.095 1_554 S
Mn396 O411 2.162 . S
Mn396 O412 2.297 . S
Mn396 O420 2.385 . S
Mn396 O421 2.209 . S
Mn396 O422 2.094 1_554 S
Mn397 O402 2.121 . S
Mn397 N404 2.257 . S
Mn397 N413 2.282 . S
Mn397 O421 2.215 1_556 S
Mn397 O423 2.117 . S
C398 O420 1.234 . S
C398 O421 1.283 . S
C399 O411 1.281 . S
C399 O412 1.236 . S
C400 O422 1.240 . S
C400 O423 1.264 . S
O401 Mn396 2.095 1_556 S
O401 C410 1.250 . S
O402 Mn397 2.121 . S
O402 C410 1.258 . S
C403 N404 1.326 . S
C403 C407 1.460 . S
C403 H409 0.929 . S
N404 Mn397 2.257 . S
N404 C403 1.326 . S
N404 C408 1.362 . S
C405 C406 1.258 . S
C405 C408 1.431 . S
C405 C425 1.449 . S
C406 C405 1.258 . S
C406 C407 1.477 . S
C406 H426 0.931 . S
C407 C403 1.460 . S
C407 C406 1.477 . S
C407 H427 0.930 1_556 S
C408 N404 1.362 . S
C408 C405 1.431 . S
C408 C418 1.476 . S
H409 C403 0.929 . S
C410 O401 1.250 . S
C410 O402 1.258 . S
O411 Mn396 2.162 . S
O411 C399 1.281 . S
O412 Mn396 2.297 . S
O412 C399 1.236 . S
N413 Mn397 2.282 . S
N413 C414 1.328 . S
N413 C418 1.318 . S
C414 N413 1.328 . S
C414 C415 1.457 . S
C414 H419 0.929 . S
C415 C414 1.457 . S
C415 C416 1.291 . S
C415 H428 0.931 . S
C416 C415 1.291 . S
C416 C417 1.373 . S
C416 H429 0.929 . S
C417 C416 1.373 . S
C417 C418 1.396 . S
C417 C424 1.403 . S
C418 C408 1.476 . S
C418 N413 1.318 . S
C418 C417 1.396 . S
H419 C414 0.929 . S
O420 Mn396 2.385 . S
O420 C398 1.234 . S
O421 Mn396 2.209 . S
O421 Mn397 2.215 1_554 S
O421 C398 1.283 . S
O422 Mn396 2.094 1_556 S
O422 C400 1.240 . S
O423 Mn397 2.117 . S
O423 C400 1.264 . S
C424 C417 1.403 . S
C424 C425 1.399 . S
C424 H430 0.929 . S
C425 C405 1.449 . S
C425 C424 1.399 . S
C425 H431 0.930 . S
H426 C406 0.931 . S
H427 C407 0.930 1_554 S
H428 C415 0.931 . S
H429 C416 0.929 . S
H430 C424 0.929 . S
H431 C425 0.930 . S
Mn432 O437 2.095 . S
Mn432 O447 2.162 . S
Mn432 O448 2.297 . S
Mn432 O456 2.385 . S
Mn432 O457 2.209 . S
Mn432 O458 2.094 . S
Mn433 O438 2.121 . S
Mn433 N440 2.257 . S
Mn433 N449 2.268 1_554 S
Mn433 O457 2.215 . S
Mn433 O459 2.117 1_554 S
C434 O456 1.234 . S
C434 O457 1.283 . S
C435 O447 1.281 . S
C435 O448 1.236 . S
C436 O458 1.240 1_556 S
C436 O459 1.264 . S
O437 Mn432 2.095 . S
O437 C446 1.250 . S
O438 Mn433 2.121 . S
O438 C446 1.258 . S
C439 N440 1.326 . S
C439 C443 1.460 . S
C439 H445 0.929 . S
N440 Mn433 2.257 . S
N440 C439 1.326 . S
N440 C444 1.362 . S
C441 C442 1.258 . S
C441 C444 1.431 . S
C441 C461 1.449 . S
C442 C441 1.258 . S
C442 C443 1.477 . S
C442 H462 0.931 . S
C443 C439 1.460 . S
C443 C442 1.477 . S
C443 H463 0.930 . S
C444 N440 1.362 . S
C444 C441 1.431 . S
C444 C454 1.476 . S
H445 C439 0.929 . S
C446 O437 1.250 . S
C446 O438 1.258 . S
O447 Mn432 2.162 . S
O447 C435 1.281 . S
O448 Mn432 2.297 . S
O448 C435 1.236 . S
N449 Mn433 2.268 1_556 S
N449 C450 1.339 . S
N449 C454 1.319 1_556 S
C450 N449 1.339 . S
C450 C451 1.457 . S
C450 H455 0.929 . S
C451 C450 1.457 . S
C451 C452 1.291 . S
C451 H464 0.931 . S
C452 C451 1.291 . S
C452 C453 1.373 . S
C452 H465 0.929 . S
C453 C452 1.373 . S
C453 C454 1.396 1_556 S
C453 C460 1.403 1_556 S
C454 C444 1.476 . S
C454 N449 1.319 1_554 S
C454 C453 1.396 1_554 S
H455 C450 0.929 . S
O456 Mn432 2.385 . S
O456 C434 1.234 . S
O457 Mn432 2.209 . S
O457 Mn433 2.215 . S
O457 C434 1.283 . S
O458 Mn432 2.094 . S
O458 C436 1.240 1_554 S
O459 Mn433 2.117 1_556 S
O459 C436 1.264 . S
C460 C453 1.403 1_554 S
C460 C461 1.399 . S
C460 H466 0.929 1_554 S
C461 C441 1.449 . S
C461 C460 1.399 . S
C461 H467 0.930 . S
H462 C442 0.931 . S
H463 C443 0.930 . S
H464 C451 0.931 . S
H465 C452 0.929 . S
H466 C460 0.929 1_556 S
H467 C461 0.930 . S
Mn468 O473 2.095 . S
Mn468 O483 2.162 . S
Mn468 O484 2.297 . S
Mn468 O492 2.385 . S
Mn468 O493 2.209 . S
Mn468 O494 2.094 . S
Mn469 O474 2.121 . S
Mn469 N476 2.257 . S
Mn469 N485 2.282 . S
Mn469 O493 2.215 . S
Mn469 O495 2.117 . S
C470 O492 1.234 . S
C470 O493 1.283 . S
C471 O483 1.281 . S
C471 O484 1.236 . S
C472 O494 1.240 . S
C472 O495 1.264 . S
O473 Mn468 2.095 . S
O473 C482 1.250 . S
O474 Mn469 2.121 . S
O474 C482 1.258 . S
C475 N476 1.326 . S
C475 C479 1.460 . S
C475 H481 0.929 . S
N476 Mn469 2.257 . S
N476 C475 1.326 . S
N476 C480 1.362 . S
C477 C478 1.258 . S
C477 C480 1.431 . S
C477 C497 1.449 . S
C478 C477 1.258 . S
C478 C479 1.477 . S
C478 H498 0.931 . S
C479 C475 1.460 . S
C479 C478 1.477 . S
C479 H499 0.930 . S
C480 N476 1.362 . S
C480 C477 1.431 . S
C480 C490 1.476 . S
H481 C475 0.929 . S
C482 O473 1.250 . S
C482 O474 1.258 . S
O483 Mn468 2.162 . S
O483 C471 1.281 . S
O484 Mn468 2.297 . S
O484 C471 1.236 . S
N485 Mn469 2.282 . S
N485 C486 1.328 . S
N485 C490 1.318 . S
C486 N485 1.328 . S
C486 C487 1.457 . S
C486 H491 0.929 . S
C487 C486 1.457 . S
C487 C488 1.291 . S
C487 H500 0.931 1_554 S
C488 C487 1.291 . S
C488 C489 1.373 . S
C488 H501 0.929 1_554 S
C489 C488 1.373 . S
C489 C490 1.396 . S
C489 C496 1.403 . S
C490 C480 1.476 . S
C490 N485 1.318 . S
C490 C489 1.396 . S
H491 C486 0.929 . S
O492 Mn468 2.385 . S
O492 C470 1.234 . S
O493 Mn468 2.209 . S
O493 Mn469 2.215 . S
O493 C470 1.283 . S
O494 Mn468 2.094 . S
O494 C472 1.240 . S
O495 Mn469 2.117 . S
O495 C472 1.264 . S
C496 C489 1.403 . S
C496 C497 1.399 . S
C496 H502 0.919 1_554 S
C497 C477 1.449 . S
C497 C496 1.399 . S
C497 H503 0.930 . S
H498 C478 0.931 . S
H499 C479 0.930 . S
H500 C487 0.931 1_556 S
H501 C488 0.929 1_556 S
H502 C496 0.919 1_556 S
H503 C497 0.930 . S
Mn504 O509 2.095 . S
Mn504 O519 2.162 . S
Mn504 O520 2.297 . S
Mn504 O528 2.385 . S
Mn504 O529 2.209 . S
Mn504 O530 2.094 . S
Mn505 O510 2.121 . S
Mn505 N512 2.257 . S
Mn505 N521 2.282 . S
Mn505 O529 2.215 . S
Mn505 O531 2.117 . S
C506 O528 1.234 . S
C506 O529 1.283 . S
C507 O519 1.281 . S
C507 O520 1.236 . S
C508 O530 1.240 . S
C508 O531 1.264 . S
O509 Mn504 2.095 . S
O509 C518 1.250 . S
O510 Mn505 2.121 . S
O510 C518 1.258 . S
C511 N512 1.326 . S
C511 C515 1.460 . S
C511 H517 0.929 . S
N512 Mn505 2.257 . S
N512 C511 1.326 . S
N512 C516 1.362 . S
C513 C514 1.258 . S
C513 C516 1.431 . S
C513 C533 1.449 . S
C514 C513 1.258 . S
C514 C515 1.477 . S
C514 H534 0.931 . S
C515 C511 1.460 . S
C515 C514 1.477 . S
C515 H535 0.930 . S
C516 N512 1.362 . S
C516 C513 1.431 . S
C516 C526 1.476 . S
H517 C511 0.929 . S
C518 O509 1.250 . S
C518 O510 1.258 . S
O519 Mn504 2.162 . S
O519 C507 1.281 . S
O520 Mn504 2.297 . S
O520 C507 1.236 . S
N521 Mn505 2.282 . S
N521 C522 1.328 . S
N521 C526 1.318 . S
C522 N521 1.328 . S
C522 C523 1.457 . S
C522 H527 0.929 . S
C523 C522 1.457 . S
C523 C524 1.291 . S
C523 H536 0.931 . S
C524 C523 1.291 . S
C524 C525 1.373 . S
C524 H537 0.929 . S
C525 C524 1.373 . S
C525 C526 1.396 . S
C525 C532 1.403 . S
C526 C516 1.476 . S
C526 N521 1.318 . S
C526 C525 1.396 . S
H527 C522 0.929 . S
O528 Mn504 2.385 . S
O528 C506 1.234 . S
O529 Mn504 2.209 . S
O529 Mn505 2.215 . S
O529 C506 1.283 . S
O530 Mn504 2.094 . S
O530 C508 1.240 . S
O531 Mn505 2.117 . S
O531 C508 1.264 . S
C532 C525 1.403 . S
C532 C533 1.399 . S
C532 H538 0.929 . S
C533 C513 1.449 . S
C533 C532 1.399 . S
C533 H539 0.930 . S
H534 C514 0.931 . S
H535 C515 0.930 . S
H536 C523 0.931 . S
H537 C524 0.929 . S
H538 C532 0.929 . S
H539 C533 0.930 . S
Mn540 O545 2.095 . S
Mn540 O555 2.162 . S
Mn540 O556 2.297 . S
Mn540 O564 2.385 . S
Mn540 O565 2.209 . S
Mn540 O566 2.094 . S
Mn541 O546 2.121 . S
Mn541 N548 2.257 . S
Mn541 N557 2.282 . S
Mn541 O565 2.215 . S
Mn541 O567 2.117 . S
C542 O564 1.234 . S
C542 O565 1.283 . S
C543 O555 1.281 . S
C543 O556 1.236 . S
C544 O566 1.240 . S
C544 O567 1.264 . S
O545 Mn540 2.095 . S
O545 C554 1.250 . S
O546 Mn541 2.121 . S
O546 C554 1.258 . S
C547 N548 1.326 . S
C547 C551 1.460 . S
C547 H553 0.929 . S
N548 Mn541 2.257 . S
N548 C547 1.326 . S
N548 C552 1.362 . S
C549 C550 1.258 . S
C549 C552 1.431 . S
C549 C569 1.449 . S
C550 C549 1.258 . S
C550 C551 1.477 . S
C550 H570 0.931 1_565 S
C551 C547 1.460 . S
C551 C550 1.477 . S
C551 H571 0.930 . S
C552 N548 1.362 . S
C552 C549 1.431 . S
C552 C562 1.476 . S
H553 C547 0.929 . S
C554 O545 1.250 . S
C554 O546 1.258 . S
O555 Mn540 2.162 . S
O555 C543 1.281 . S
O556 Mn540 2.297 . S
O556 C543 1.236 . S
N557 Mn541 2.282 . S
N557 C558 1.328 . S
N557 C562 1.318 . S
C558 N557 1.328 . S
C558 C559 1.457 . S
C558 H563 0.929 . S
C559 C558 1.457 . S
C559 C560 1.291 . S
C559 H572 0.931 . S
C560 C559 1.291 . S
C560 C561 1.373 . S
C560 H573 0.929 . S
C561 C560 1.373 . S
C561 C562 1.396 . S
C561 C568 1.403 . S
C562 C552 1.476 . S
C562 N557 1.318 . S
C562 C561 1.396 . S
H563 C558 0.929 . S
O564 Mn540 2.385 . S
O564 C542 1.234 . S
O565 Mn540 2.209 . S
O565 Mn541 2.215 . S
O565 C542 1.283 . S
O566 Mn540 2.094 . S
O566 C544 1.240 . S
O567 Mn541 2.117 . S
O567 C544 1.264 . S
C568 C561 1.403 . S
C568 C569 1.399 . S
C568 H574 0.929 . S
C569 C549 1.449 . S
C569 C568 1.399 . S
C569 H575 0.903 1_565 S
H570 C550 0.931 1_545 S
H571 C551 0.930 . S
H572 C559 0.931 . S
H573 C560 0.929 . S
H574 C568 0.929 . S
H575 C569 0.903 1_545 S
Mn576 O581 2.087 1_565 S
Mn576 O591 2.161 1_565 S
Mn576 O592 2.296 . S
Mn576 O600 2.393 . S
Mn576 O601 2.212 . S
Mn576 O602 2.095 1_565 S
Mn577 O582 2.121 1_565 S
Mn577 N584 2.257 . S
Mn577 N593 2.282 . S
Mn577 O601 2.215 . S
Mn577 O603 2.117 1_565 S
C578 O600 1.234 . S
C578 O601 1.283 . S
C579 O591 1.281 1_565 S
C579 O592 1.236 . S
C580 O602 1.240 . S
C580 O603 1.264 . S
O581 Mn576 2.087 1_545 S
O581 C590 1.250 . S
O582 Mn577 2.121 1_545 S
O582 C590 1.258 . S
C583 N584 1.326 . S
C583 C587 1.460 . S
C583 H589 0.929 1_565 S
N584 Mn577 2.257 . S
N584 C583 1.326 . S
N584 C588 1.362 . S
C585 C586 1.258 . S
C585 C588 1.431 . S
C585 C605 1.449 . S
C586 C585 1.258 . S
C586 C587 1.477 . S
C586 H606 0.931 . S
C587 C583 1.460 . S
C587 C586 1.477 . S
C587 H607 0.930 . S
C588 N584 1.362 . S
C588 C585 1.431 . S
C588 C598 1.476 . S
H589 C583 0.929 1_545 S
C590 O581 1.250 . S
C590 O582 1.258 . S
O591 Mn576 2.161 1_545 S
O591 C579 1.281 1_545 S
O592 Mn576 2.296 . S
O592 C579 1.236 . S
N593 Mn577 2.282 . S
N593 C594 1.328 . S
N593 C598 1.318 . S
C594 N593 1.328 . S
C594 C595 1.457 . S
C594 H599 0.929 . S
C595 C594 1.457 . S
C595 C596 1.291 . S
C595 H608 0.931 . S
C596 C595 1.291 . S
C596 C597 1.373 . S
C596 H609 0.929 . S
C597 C596 1.373 . S
C597 C598 1.396 . S
C597 C604 1.403 . S
C598 C588 1.476 . S
C598 N593 1.318 . S
C598 C597 1.396 . S
H599 C594 0.929 . S
O600 Mn576 2.393 . S
O600 C578 1.234 . S
O601 Mn576 2.212 . S
O601 Mn577 2.215 . S
O601 C578 1.283 . S
O602 Mn576 2.095 1_545 S
O602 C580 1.240 . S
O603 Mn577 2.117 1_545 S
O603 C580 1.264 . S
C604 C597 1.403 . S
C604 C605 1.399 . S
C604 H610 0.929 . S
C605 C585 1.449 . S
C605 C604 1.399 . S
C605 H611 0.930 . S
H606 C586 0.931 . S
H607 C587 0.930 . S
H608 C595 0.931 . S
H609 C596 0.929 . S
H610 C604 0.929 . S
H611 C605 0.930 . S
Mn612 O617 2.095 . S
Mn612 O627 2.162 . S
Mn612 O628 2.297 . S
Mn612 O636 2.385 . S
Mn612 O637 2.209 . S
Mn612 O638 2.094 . S
Mn613 O618 2.121 . S
Mn613 N620 2.257 . S
Mn613 N629 2.282 . S
Mn613 O637 2.215 . S
Mn613 O639 2.117 . S
C614 O636 1.234 . S
C614 O637 1.283 . S
C615 O627 1.281 . S
C615 O628 1.236 . S
C616 O638 1.240 . S
C616 O639 1.264 . S
O617 Mn612 2.095 . S
O617 C626 1.250 . S
O618 Mn613 2.121 . S
O618 C626 1.258 . S
C619 N620 1.326 . S
C619 C623 1.460 . S
C619 H625 0.929 . S
N620 Mn613 2.257 . S
N620 C619 1.326 . S
N620 C624 1.362 . S
C621 C622 1.258 . S
C621 C624 1.431 . S
C621 C641 1.449 . S
C622 C621 1.258 . S
C622 C623 1.477 . S
C622 H642 0.931 . S
C623 C619 1.460 . S
C623 C622 1.477 . S
C623 H643 0.930 . S
C624 N620 1.362 . S
C624 C621 1.431 . S
C624 C634 1.476 . S
H625 C619 0.929 . S
C626 O617 1.250 . S
C626 O618 1.258 . S
O627 Mn612 2.162 . S
O627 C615 1.281 . S
O628 Mn612 2.297 . S
O628 C615 1.236 . S
N629 Mn613 2.282 . S
N629 C630 1.328 . S
N629 C634 1.318 . S
C630 N629 1.328 . S
C630 C631 1.457 . S
C630 H635 0.929 . S
C631 C630 1.457 . S
C631 C632 1.291 . S
C631 H644 0.931 . S
C632 C631 1.291 . S
C632 C633 1.373 . S
C632 H645 0.929 . S
C633 C632 1.373 . S
C633 C634 1.396 . S
C633 C640 1.403 . S
C634 C624 1.476 . S
C634 N629 1.318 . S
C634 C633 1.396 . S
H635 C630 0.929 . S
O636 Mn612 2.385 . S
O636 C614 1.234 . S
O637 Mn612 2.209 . S
O637 Mn613 2.215 . S
O637 C614 1.283 . S
O638 Mn612 2.094 . S
O638 C616 1.240 . S
O639 Mn613 2.117 . S
O639 C616 1.264 . S
C640 C633 1.403 . S
C640 C641 1.399 . S
C640 H646 0.929 . S
C641 C621 1.449 . S
C641 C640 1.399 . S
C641 H647 0.930 . S
H642 C622 0.931 . S
H643 C623 0.930 . S
H644 C631 0.931 . S
H645 C632 0.929 . S
H646 C640 0.929 . S
H647 C641 0.930 . S
Mn648 O653 2.095 . S
Mn648 O663 2.162 . S
Mn648 O664 2.297 . S
Mn648 O672 2.385 . S
Mn648 O673 2.209 . S
Mn648 O674 2.094 . S
Mn649 O654 2.121 . S
Mn649 N656 2.257 . S
Mn649 N665 2.282 . S
Mn649 O673 2.215 . S
Mn649 O675 2.117 . S
C650 O672 1.234 . S
C650 O673 1.283 . S
C651 O663 1.281 . S
C651 O664 1.236 . S
C652 O674 1.240 . S
C652 O675 1.264 . S
O653 Mn648 2.095 . S
O653 C662 1.250 . S
O654 Mn649 2.121 . S
O654 C662 1.258 . S
C655 N656 1.326 . S
C655 C659 1.460 . S
C655 H661 0.929 . S
N656 Mn649 2.257 . S
N656 C655 1.326 . S
N656 C660 1.362 . S
C657 C658 1.258 . S
C657 C660 1.431 . S
C657 C677 1.449 . S
C658 C657 1.258 . S
C658 C659 1.477 . S
C658 H678 0.931 . S
C659 C655 1.460 . S
C659 C658 1.477 . S
C659 H679 0.930 . S
C660 N656 1.362 . S
C660 C657 1.431 . S
C660 C670 1.476 . S
H661 C655 0.929 . S
C662 O653 1.250 . S
C662 O654 1.258 . S
O663 Mn648 2.162 . S
O663 C651 1.281 . S
O664 Mn648 2.297 . S
O664 C651 1.236 . S
N665 Mn649 2.282 . S
N665 C666 1.328 . S
N665 C670 1.318 . S
C666 N665 1.328 . S
C666 C667 1.457 . S
C666 H671 0.929 . S
C667 C666 1.457 . S
C667 C668 1.291 . S
C667 H680 0.931 . S
C668 C667 1.291 . S
C668 C669 1.373 . S
C668 H681 0.929 . S
C669 C668 1.373 . S
C669 C670 1.396 . S
C669 C676 1.403 . S
C670 C660 1.476 . S
C670 N665 1.318 . S
C670 C669 1.396 . S
H671 C666 0.929 . S
O672 Mn648 2.385 . S
O672 C650 1.234 . S
O673 Mn648 2.209 . S
O673 Mn649 2.215 . S
O673 C650 1.283 . S
O674 Mn648 2.094 . S
O674 C652 1.240 . S
O675 Mn649 2.117 . S
O675 C652 1.264 . S
C676 C669 1.403 . S
C676 C677 1.399 . S
C676 H682 0.929 . S
C677 C657 1.449 . S
C677 C676 1.399 . S
C677 H683 0.930 . S
H678 C658 0.931 . S
H679 C659 0.930 . S
H680 C667 0.931 . S
H681 C668 0.929 . S
H682 C676 0.929 . S
H683 C677 0.930 . S
Mn684 O689 2.095 1_545 S
Mn684 O699 2.162 . S
Mn684 O700 2.297 . S
Mn684 O708 2.385 . S
Mn684 O709 2.209 . S
Mn684 O710 2.094 . S
Mn685 O690 2.087 1_545 S
Mn685 N692 2.257 . S
Mn685 N701 2.282 . S
Mn685 O709 2.215 . S
Mn685 O711 2.117 . S
C686 O708 1.234 . S
C686 O709 1.283 . S
C687 O699 1.281 . S
C687 O700 1.236 . S
C688 O710 1.240 . S
C688 O711 1.264 . S
O689 Mn684 2.095 1_565 S
O689 C698 1.250 . S
O690 Mn685 2.087 1_565 S
O690 C698 1.275 . S
C691 N692 1.326 . S
C691 C695 1.460 . S
C691 H697 0.929 . S
N692 Mn685 2.257 . S
N692 C691 1.326 . S
N692 C696 1.362 . S
C693 C694 1.258 . S
C693 C696 1.431 . S
C693 C713 1.449 . S
C694 C693 1.258 . S
C694 C695 1.477 . S
C694 H714 0.931 . S
C695 C691 1.460 . S
C695 C694 1.477 . S
C695 H715 0.930 . S
C696 N692 1.362 . S
C696 C693 1.431 . S
C696 C706 1.476 . S
H697 C691 0.929 . S
C698 O689 1.250 . S
C698 O690 1.275 . S
O699 Mn684 2.162 . S
O699 C687 1.281 . S
O700 Mn684 2.297 . S
O700 C687 1.236 . S
N701 Mn685 2.282 . S
N701 C702 1.328 . S
N701 C706 1.318 . S
C702 N701 1.328 . S
C702 C703 1.457 . S
C702 H707 0.929 . S
C703 C702 1.457 . S
C703 C704 1.291 . S
C703 H716 0.931 . S
C704 C703 1.291 . S
C704 C705 1.373 . S
C704 H717 0.929 . S
C705 C704 1.373 . S
C705 C706 1.396 . S
C705 C712 1.403 . S
C706 C696 1.476 . S
C706 N701 1.318 . S
C706 C705 1.396 . S
H707 C702 0.929 . S
O708 Mn684 2.385 . S
O708 C686 1.234 . S
O709 Mn684 2.209 . S
O709 Mn685 2.215 . S
O709 C686 1.283 . S
O710 Mn684 2.094 . S
O710 C688 1.240 . S
O711 Mn685 2.117 . S
O711 C688 1.264 . S
C712 C705 1.403 . S
C712 C713 1.399 . S
C712 H718 0.929 . S
C713 C693 1.449 . S
C713 C712 1.399 . S
C713 H719 0.930 . S
H714 C694 0.931 . S
H715 C695 0.930 . S
H716 C703 0.931 . S
H717 C704 0.929 . S
H718 C712 0.929 . S
H719 C713 0.930 . S
Mn720 O725 2.095 . S
Mn720 O735 2.162 . S
Mn720 O736 2.297 . S
Mn720 O744 2.385 . S
Mn720 O745 2.209 . S
Mn720 O746 2.094 . S
Mn721 O726 2.121 1_556 S
Mn721 N728 2.257 . S
Mn721 N737 2.282 . S
Mn721 O745 2.215 1_556 S
Mn721 O747 2.117 . S
C722 O744 1.234 . S
C722 O745 1.283 . S
C723 O735 1.281 . S
C723 O736 1.236 . S
C724 O746 1.240 1_556 S
C724 O747 1.264 . S
O725 Mn720 2.095 . S
O725 C734 1.250 . S
O726 Mn721 2.121 1_554 S
O726 C734 1.258 . S
C727 N728 1.326 1_554 S
C727 C731 1.460 . S
C727 H733 0.929 . S
N728 Mn721 2.257 . S
N728 C727 1.326 1_556 S
N728 C732 1.362 . S
C729 C730 1.258 . S
C729 C732 1.431 . S
C729 C749 1.449 . S
C730 C729 1.258 . S
C730 C731 1.477 1_556 S
C730 H750 0.931 . S
C731 C727 1.460 . S
C731 C730 1.477 1_554 S
C731 H751 0.930 . S
C732 N728 1.362 . S
C732 C729 1.431 . S
C732 C742 1.476 . S
H733 C727 0.929 . S
C734 O725 1.250 . S
C734 O726 1.258 . S
O735 Mn720 2.162 . S
O735 C723 1.281 . S
O736 Mn720 2.297 . S
O736 C723 1.236 . S
N737 Mn721 2.282 . S
N737 C738 1.328 . S
N737 C742 1.318 . S
C738 N737 1.328 . S
C738 C739 1.457 . S
C738 H743 0.929 . S
C739 C738 1.457 . S
C739 C740 1.291 . S
C739 H752 0.931 . S
C740 C739 1.291 . S
C740 C741 1.373 . S
C740 H753 0.929 . S
C741 C740 1.373 . S
C741 C742 1.396 . S
C741 C748 1.403 . S
C742 C732 1.476 . S
C742 N737 1.318 . S
C742 C741 1.396 . S
H743 C738 0.929 . S
O744 Mn720 2.385 . S
O744 C722 1.234 . S
O745 Mn720 2.209 . S
O745 Mn721 2.215 1_554 S
O745 C722 1.283 . S
O746 Mn720 2.094 . S
O746 C724 1.240 1_554 S
O747 Mn721 2.117 . S
O747 C724 1.264 . S
C748 C741 1.403 . S
C748 C749 1.399 . S
C748 H754 0.929 . S
C749 C729 1.449 . S
C749 C748 1.399 . S
C749 H755 0.930 . S
H750 C730 0.931 . S
H751 C731 0.930 . S
H752 C739 0.931 . S
H753 C740 0.929 . S
H754 C748 0.929 . S
H755 C749 0.930 . S
Mn756 O761 2.095 . S
Mn756 O771 2.162 . S
Mn756 O772 2.297 . S
Mn756 O780 2.385 . S
Mn756 O781 2.209 . S
Mn756 O782 2.094 . S
Mn757 O762 2.121 . S
Mn757 N764 2.257 . S
Mn757 N773 2.282 . S
Mn757 O781 2.215 . S
Mn757 O783 2.117 . S
C758 O780 1.234 . S
C758 O781 1.283 . S
C759 O771 1.281 . S
C759 O772 1.236 . S
C760 O782 1.240 . S
C760 O783 1.264 . S
O761 Mn756 2.095 . S
O761 C770 1.250 . S
O762 Mn757 2.121 . S
O762 C770 1.258 . S
C763 N764 1.326 . S
C763 C767 1.460 . S
C763 H769 0.929 . S
N764 Mn757 2.257 . S
N764 C763 1.326 . S
N764 C768 1.362 . S
C765 C766 1.258 . S
C765 C768 1.431 . S
C765 C785 1.449 . S
C766 C765 1.258 . S
C766 C767 1.477 . S
C766 H786 0.931 . S
C767 C763 1.460 . S
C767 C766 1.477 . S
C767 H787 0.930 . S
C768 N764 1.362 . S
C768 C765 1.431 . S
C768 C778 1.476 . S
H769 C763 0.929 . S
C770 O761 1.250 . S
C770 O762 1.258 . S
O771 Mn756 2.162 . S
O771 C759 1.281 . S
O772 Mn756 2.297 . S
O772 C759 1.236 . S
N773 Mn757 2.282 . S
N773 C774 1.328 . S
N773 C778 1.318 . S
C774 N773 1.328 . S
C774 C775 1.457 . S
C774 H779 0.929 . S
C775 C774 1.457 . S
C775 C776 1.291 . S
C775 H788 0.931 . S
C776 C775 1.291 . S
C776 C777 1.373 . S
C776 H789 0.929 . S
C777 C776 1.373 . S
C777 C778 1.396 . S
C777 C784 1.403 . S
C778 C768 1.476 . S
C778 N773 1.318 . S
C778 C777 1.396 . S
H779 C774 0.929 . S
O780 Mn756 2.385 . S
O780 C758 1.234 . S
O781 Mn756 2.209 . S
O781 Mn757 2.215 . S
O781 C758 1.283 . S
O782 Mn756 2.094 . S
O782 C760 1.240 . S
O783 Mn757 2.117 . S
O783 C760 1.264 . S
C784 C777 1.403 . S
C784 C785 1.399 . S
C784 H790 0.929 . S
C785 C765 1.449 . S
C785 C784 1.399 . S
C785 H791 0.930 . S
H786 C766 0.931 . S
H787 C767 0.930 . S
H788 C775 0.931 . S
H789 C776 0.929 . S
H790 C784 0.929 . S
H791 C785 0.930 . S
Mn792 O797 2.095 . S
Mn792 O807 2.162 . S
Mn792 O808 2.297 . S
Mn792 O816 2.385 . S
Mn792 O817 2.209 . S
Mn792 O818 2.094 . S
Mn793 O798 2.121 . S
Mn793 N800 2.257 . S
Mn793 N809 2.282 . S
Mn793 O817 2.215 . S
Mn793 O819 2.117 . S
C794 O816 1.234 . S
C794 O817 1.283 . S
C795 O807 1.281 . S
C795 O808 1.236 . S
C796 O818 1.240 . S
C796 O819 1.264 . S
O797 Mn792 2.095 . S
O797 C806 1.250 . S
O798 Mn793 2.121 . S
O798 C806 1.258 . S
C799 N800 1.326 . S
C799 C803 1.460 . S
C799 H805 0.929 . S
N800 Mn793 2.257 . S
N800 C799 1.326 . S
N800 C804 1.362 . S
C801 C802 1.258 . S
C801 C804 1.431 . S
C801 C821 1.449 . S
C802 C801 1.258 . S
C802 C803 1.477 . S
C802 H822 0.931 . S
C803 C799 1.460 . S
C803 C802 1.477 . S
C803 H823 0.930 . S
C804 N800 1.362 . S
C804 C801 1.431 . S
C804 C814 1.476 . S
H805 C799 0.929 . S
C806 O797 1.250 . S
C806 O798 1.258 . S
O807 Mn792 2.162 . S
O807 C795 1.281 . S
O808 Mn792 2.297 . S
O808 C795 1.236 . S
N809 Mn793 2.282 . S
N809 C810 1.328 . S
N809 C814 1.318 . S
C810 N809 1.328 . S
C810 C811 1.457 . S
C810 H815 0.929 . S
C811 C810 1.457 . S
C811 C812 1.291 . S
C811 H824 0.931 . S
C812 C811 1.291 . S
C812 C813 1.373 . S
C812 H825 0.929 . S
C813 C812 1.373 . S
C813 C814 1.396 . S
C813 C820 1.403 . S
C814 C804 1.476 . S
C814 N809 1.318 . S
C814 C813 1.396 . S
H815 C810 0.929 . S
O816 Mn792 2.385 . S
O816 C794 1.234 . S
O817 Mn792 2.209 . S
O817 Mn793 2.215 . S
O817 C794 1.283 . S
O818 Mn792 2.094 . S
O818 C796 1.240 . S
O819 Mn793 2.117 . S
O819 C796 1.264 . S
C820 C813 1.403 . S
C820 C821 1.399 . S
C820 H826 0.929 . S
C821 C801 1.449 . S
C821 C820 1.399 . S
C821 H827 0.930 . S
H822 C802 0.931 . S
H823 C803 0.930 . S
H824 C811 0.931 . S
H825 C812 0.929 . S
H826 C820 0.929 . S
H827 C821 0.930 . S
Mn828 O833 2.095 . S
Mn828 O843 2.162 . S
Mn828 O844 2.297 . S
Mn828 O852 2.385 . S
Mn828 O853 2.209 . S
Mn828 O854 2.094 . S
Mn829 O834 2.121 . S
Mn829 N836 2.257 . S
Mn829 N845 2.282 . S
Mn829 O853 2.215 . S
Mn829 O855 2.117 . S
C830 O852 1.234 . S
C830 O853 1.283 . S
C831 O843 1.281 . S
C831 O844 1.236 . S
C832 O854 1.240 . S
C832 O855 1.264 . S
O833 Mn828 2.095 . S
O833 C842 1.250 . S
O834 Mn829 2.121 . S
O834 C842 1.258 . S
C835 N836 1.326 . S
C835 C839 1.460 . S
C835 H841 0.929 . S
N836 Mn829 2.257 . S
N836 C835 1.326 . S
N836 C840 1.362 . S
C837 C838 1.258 . S
C837 C840 1.431 . S
C837 C857 1.449 . S
C838 C837 1.258 . S
C838 C839 1.477 . S
C838 H858 0.931 . S
C839 C835 1.460 . S
C839 C838 1.477 . S
C839 H859 0.930 . S
C840 N836 1.362 . S
C840 C837 1.431 . S
C840 C850 1.476 . S
H841 C835 0.929 . S
C842 O833 1.250 . S
C842 O834 1.258 . S
O843 Mn828 2.162 . S
O843 C831 1.281 . S
O844 Mn828 2.297 . S
O844 C831 1.236 . S
N845 Mn829 2.282 . S
N845 C846 1.328 . S
N845 C850 1.318 . S
C846 N845 1.328 . S
C846 C847 1.457 . S
C846 H851 0.929 . S
C847 C846 1.457 . S
C847 C848 1.291 . S
C847 H860 0.931 . S
C848 C847 1.291 . S
C848 C849 1.373 . S
C848 H861 0.929 . S
C849 C848 1.373 . S
C849 C850 1.396 . S
C849 C856 1.403 . S
C850 C840 1.476 . S
C850 N845 1.318 . S
C850 C849 1.396 . S
H851 C846 0.929 . S
O852 Mn828 2.385 . S
O852 C830 1.234 . S
O853 Mn828 2.209 . S
O853 Mn829 2.215 . S
O853 C830 1.283 . S
O854 Mn828 2.094 . S
O854 C832 1.240 . S
O855 Mn829 2.117 . S
O855 C832 1.264 . S
C856 C849 1.403 . S
C856 C857 1.399 . S
C856 H862 0.929 . S
C857 C837 1.449 . S
C857 C856 1.399 . S
C857 H863 0.930 . S
H858 C838 0.931 . S
H859 C839 0.930 . S
H860 C847 0.931 . S
H861 C848 0.929 . S
H862 C856 0.929 . S
H863 C857 0.930 . S
Tb864 C866 2.809 . S
Tb864 O884 2.484 . S
Tb864 O885 2.440 . S
Tb864 O886 2.658 1_655 S
Tb864 O887 2.409 1_654 S
Tb864 O888 2.378 1_655 S
Tb864 O892 2.325 1_655 S
Tb864 O895 2.341 1_645 S
Tb865 C875 2.809 1_545 S
Tb865 O886 2.325 . S
Tb865 O889 2.341 . S
Tb865 O890 2.484 1_545 S
Tb865 O891 2.440 . S
Tb865 O892 2.658 . S
Tb865 O893 2.409 . S
Tb865 O894 2.378 1_545 S
C866 Tb864 2.809 . S
C866 C867 1.514 . S
C866 O884 1.248 . S
C866 O885 1.266 . S
C867 C866 1.514 . S
C867 C868 1.359 . S
C867 C872 1.348 1_554 S
C868 C867 1.359 . S
C868 C869 1.380 . S
C868 H896 0.929 . S
C869 C868 1.380 . S
C869 C870 1.347 . S
C869 H897 0.931 . S
C870 C869 1.347 . S
C870 C871 1.369 1_554 S
C871 C870 1.369 1_556 S
C871 C872 1.408 . S
C871 H898 0.930 . S
C872 C867 1.348 1_556 S
C872 C871 1.408 . S
C872 H899 0.930 . S
C873 O886 1.281 1_556 S
C873 O887 1.254 . S
C874 O888 1.236 . S
C874 O889 1.266 . S
C875 Tb865 2.809 1_565 S
C875 C876 1.514 . S
C875 O890 1.248 . S
C875 O891 1.266 1_565 S
C876 C875 1.514 . S
C876 C877 1.359 . S
C876 C881 1.348 . S
C877 C876 1.359 . S
C877 C878 1.380 . S
C877 H900 0.929 . S
C878 C877 1.380 . S
C878 C879 1.347 . S
C878 H901 0.931 . S
C879 C878 1.347 . S
C879 C880 1.369 . S
C880 C879 1.369 . S
C880 C881 1.408 . S
C880 H902 0.930 . S
C881 C876 1.348 . S
C881 C880 1.408 . S
C881 H903 0.930 . S
C882 O892 1.281 . S
C882 O893 1.254 . S
C883 O894 1.236 . S
C883 O895 1.266 . S
O884 Tb864 2.484 . S
O884 C866 1.248 . S
O885 Tb864 2.440 . S
O885 C866 1.266 . S
O886 Tb864 2.658 1_455 S
O886 Tb865 2.325 . S
O886 C873 1.281 1_554 S
O887 Tb864 2.409 1_456 S
O887 C873 1.254 . S
O888 Tb864 2.378 1_455 S
O888 C874 1.236 . S
O889 Tb865 2.341 . S
O889 C874 1.266 . S
O890 Tb865 2.484 1_565 S
O890 C875 1.248 . S
O891 Tb865 2.440 . S
O891 C875 1.266 1_545 S
O892 Tb864 2.325 1_455 S
O892 Tb865 2.658 . S
O892 C882 1.281 . S
O893 Tb865 2.409 . S
O893 C882 1.254 . S
O894 Tb865 2.378 1_565 S
O894 C883 1.236 . S
O895 Tb864 2.341 1_465 S
O895 C883 1.266 . S
H896 C868 0.929 . S
H897 C869 0.931 . S
H898 C871 0.930 . S
H899 C872 0.930 . S
H900 C877 0.929 . S
H901 C878 0.931 . S
H902 C880 0.930 . S
H903 C881 0.930 . S
Tb904 C906 2.809 . S
Tb904 O924 2.484 . S
Tb904 O925 2.440 . S
Tb904 O926 2.658 . S
Tb904 O927 2.409 . S
Tb904 O928 2.378 . S
Tb904 O932 2.325 . S
Tb904 O935 2.341 . S
Tb905 C915 2.809 . S
Tb905 O926 2.325 . S
Tb905 O929 2.341 . S
Tb905 O930 2.484 . S
Tb905 O931 2.440 . S
Tb905 O932 2.658 . S
Tb905 O933 2.409 . S
Tb905 O934 2.378 . S
C906 Tb904 2.809 . S
C906 C907 1.514 . S
C906 O924 1.248 . S
C906 O925 1.266 . S
C907 C906 1.514 . S
C907 C908 1.359 . S
C907 C912 1.348 . S
C908 C907 1.359 . S
C908 C909 1.380 . S
C908 H936 0.929 . S
C909 C908 1.380 . S
C909 C910 1.347 . S
C909 H937 0.931 . S
C910 C909 1.347 . S
C910 C911 1.369 . S
C911 C910 1.369 . S
C911 C912 1.408 . S
C911 H938 0.930 . S
C912 C907 1.348 . S
C912 C911 1.408 . S
C912 H939 0.930 . S
C913 O926 1.281 . S
C913 O927 1.254 . S
C914 O928 1.236 . S
C914 O929 1.266 . S
C915 Tb905 2.809 . S
C915 C916 1.514 . S
C915 O930 1.248 . S
C915 O931 1.266 . S
C916 C915 1.514 . S
C916 C917 1.359 . S
C916 C921 1.348 . S
C917 C916 1.359 . S
C917 C918 1.380 . S
C917 H940 0.929 . S
C918 C917 1.380 . S
C918 C919 1.347 . S
C918 H941 0.931 . S
C919 C918 1.347 . S
C919 C920 1.369 . S
C920 C919 1.369 . S
C920 C921 1.408 . S
C920 H942 0.930 . S
C921 C916 1.348 . S
C921 C920 1.408 . S
C921 H943 0.930 . S
C922 O932 1.281 . S
C922 O933 1.254 . S
C923 O934 1.236 . S
C923 O935 1.266 . S
O924 Tb904 2.484 . S
O924 C906 1.248 . S
O925 Tb904 2.440 . S
O925 C906 1.266 . S
O926 Tb904 2.658 . S
O926 Tb905 2.325 . S
O926 C913 1.281 . S
O927 Tb904 2.409 . S
O927 C913 1.254 . S
O928 Tb904 2.378 . S
O928 C914 1.236 . S
O929 Tb905 2.341 . S
O929 C914 1.266 . S
O930 Tb905 2.484 . S
O930 C915 1.248 . S
O931 Tb905 2.440 . S
O931 C915 1.266 . S
O932 Tb904 2.325 . S
O932 Tb905 2.658 . S
O932 C922 1.281 . S
O933 Tb905 2.409 . S
O933 C922 1.254 . S
O934 Tb905 2.378 . S
O934 C923 1.236 . S
O935 Tb904 2.341 . S
O935 C923 1.266 . S
H936 C908 0.929 . S
H937 C909 0.931 . S
H938 C911 0.930 . S
H939 C912 0.930 . S
H940 C917 0.929 . S
H941 C918 0.931 . S
H942 C920 0.930 . S
H943 C921 0.930 . S
Tb944 C946 2.809 . S
Tb944 O964 2.484 . S
Tb944 O965 2.440 . S
Tb944 O966 2.658 . S
Tb944 O967 2.409 . S
Tb944 O968 2.378 1_545 S
Tb944 O972 2.325 . S
Tb944 O975 2.341 . S
Tb945 C955 2.809 . S
Tb945 O966 2.325 . S
Tb945 O969 2.341 1_545 S
Tb945 O970 2.484 . S
Tb945 O971 2.440 . S
Tb945 O972 2.658 . S
Tb945 O973 2.409 . S
Tb945 O974 2.378 . S
C946 Tb944 2.809 . S
C946 C947 1.514 1_545 S
C946 O964 1.248 . S
C946 O965 1.266 . S
C947 C946 1.514 1_565 S
C947 C948 1.359 . S
C947 C952 1.348 . S
C948 C947 1.359 . S
C948 C949 1.380 . S
C948 H976 0.929 . S
C949 C948 1.380 . S
C949 C950 1.347 . S
C949 H977 0.931 . S
C950 C949 1.347 . S
C950 C951 1.369 . S
C951 C950 1.369 . S
C951 C952 1.408 . S
C951 H978 0.930 . S
C952 C947 1.348 . S
C952 C951 1.408 . S
C952 H979 0.930 . S
C953 O966 1.281 . S
C953 O967 1.254 . S
C954 O968 1.236 . S
C954 O969 1.266 . S
C955 Tb945 2.809 . S
C955 C956 1.514 . S
C955 O970 1.248 . S
C955 O971 1.266 . S
C956 C955 1.514 . S
C956 C957 1.359 . S
C956 C961 1.348 . S
C957 C956 1.359 . S
C957 C958 1.380 . S
C957 H980 0.929 . S
C958 C957 1.380 . S
C958 C959 1.347 . S
C958 H981 0.931 . S
C959 C958 1.347 . S
C959 C960 1.369 . S
C960 C959 1.369 . S
C960 C961 1.408 . S
C960 H982 0.930 . S
C961 C956 1.348 . S
C961 C960 1.408 . S
C961 H983 0.930 . S
C962 O972 1.281 . S
C962 O973 1.254 . S
C963 O974 1.236 . S
C963 O975 1.266 . S
O964 Tb944 2.484 . S
O964 C946 1.248 . S
O965 Tb944 2.440 . S
O965 C946 1.266 . S
O966 Tb944 2.658 . S
O966 Tb945 2.325 . S
O966 C953 1.281 . S
O967 Tb944 2.409 . S
O967 C953 1.254 . S
O968 Tb944 2.378 1_565 S
O968 C954 1.236 . S
O969 Tb945 2.341 1_565 S
O969 C954 1.266 . S
O970 Tb945 2.484 . S
O970 C955 1.248 . S
O971 Tb945 2.440 . S
O971 C955 1.266 . S
O972 Tb944 2.325 . S
O972 Tb945 2.658 . S
O972 C962 1.281 . S
O973 Tb945 2.409 . S
O973 C962 1.254 . S
O974 Tb945 2.378 . S
O974 C963 1.236 . S
O975 Tb944 2.341 . S
O975 C963 1.266 . S
H976 C948 0.929 . S
H977 C949 0.931 . S
H978 C951 0.930 . S
H979 C952 0.930 . S
H980 C957 0.929 . S
H981 C958 0.931 . S
H982 C960 0.930 . S
H983 C961 0.930 . S
Tb984 C986 2.809 . S
Tb984 O1004 2.484 . S
Tb984 O1005 2.440 . S
Tb984 O1006 2.658 . S
Tb984 O1007 2.409 . S
Tb984 O1008 2.378 . S
Tb984 O1012 2.325 . S
Tb984 O1015 2.341 . S
Tb985 C995 2.809 . S
Tb985 O1006 2.325 . S
Tb985 O1009 2.341 . S
Tb985 O1010 2.484 . S
Tb985 O1011 2.440 . S
Tb985 O1012 2.658 . S
Tb985 O1013 2.409 . S
Tb985 O1014 2.378 . S
C986 Tb984 2.809 . S
C986 C987 1.514 . S
C986 O1004 1.248 . S
C986 O1005 1.266 . S
C987 C986 1.514 . S
C987 C988 1.359 . S
C987 C992 1.348 . S
C988 C987 1.359 . S
C988 C989 1.380 . S
C988 H1016 0.929 . S
C989 C988 1.380 . S
C989 C990 1.347 . S
C989 H1017 0.931 . S
C990 C989 1.347 . S
C990 C991 1.369 . S
C991 C990 1.369 . S
C991 C992 1.408 . S
C991 H1018 0.930 . S
C992 C987 1.348 . S
C992 C991 1.408 . S
C992 H1019 0.930 . S
C993 O1006 1.281 . S
C993 O1007 1.254 . S
C994 O1008 1.236 . S
C994 O1009 1.266 . S
C995 Tb985 2.809 . S
C995 C996 1.514 . S
C995 O1010 1.248 . S
C995 O1011 1.266 . S
C996 C995 1.514 . S
C996 C997 1.359 . S
C996 C1001 1.348 . S
C997 C996 1.359 . S
C997 C998 1.380 . S
C997 H1020 0.929 . S
C998 C997 1.380 . S
C998 C999 1.347 . S
C998 H1021 0.931 . S
C999 C998 1.347 . S
C999 C1000 1.369 . S
C1000 C999 1.369 . S
C1000 C1001 1.408 . S
C1000 H1022 0.930 . S
C1001 C996 1.348 . S
C1001 C1000 1.408 . S
C1001 H1023 0.930 . S
C1002 O1012 1.281 . S
C1002 O1013 1.254 . S
C1003 O1014 1.236 . S
C1003 O1015 1.266 . S
O1004 Tb984 2.484 . S
O1004 C986 1.248 . S
O1005 Tb984 2.440 . S
O1005 C986 1.266 . S
O1006 Tb984 2.658 . S
O1006 Tb985 2.325 . S
O1006 C993 1.281 . S
O1007 Tb984 2.409 . S
O1007 C993 1.254 . S
O1008 Tb984 2.378 . S
O1008 C994 1.236 . S
O1009 Tb985 2.341 . S
O1009 C994 1.266 . S
O1010 Tb985 2.484 . S
O1010 C995 1.248 . S
O1011 Tb985 2.440 . S
O1011 C995 1.266 . S
O1012 Tb984 2.325 . S
O1012 Tb985 2.658 . S
O1012 C1002 1.281 . S
O1013 Tb985 2.409 . S
O1013 C1002 1.254 . S
O1014 Tb985 2.378 . S
O1014 C1003 1.236 . S
O1015 Tb984 2.341 . S
O1015 C1003 1.266 . S
H1016 C988 0.929 . S
H1017 C989 0.931 . S
H1018 C991 0.930 . S
H1019 C992 0.930 . S
H1020 C997 0.929 . S
H1021 C998 0.931 . S
H1022 C1000 0.930 . S
H1023 C1001 0.930 . S
Tb1024 C1026 2.809 . S
Tb1024 O1044 2.484 . S
Tb1024 O1045 2.462 . S
Tb1024 O1046 2.658 . S
Tb1024 O1047 2.409 1_455 S
Tb1024 O1048 2.378 . S
Tb1024 O1052 2.325 . S
Tb1024 O1055 2.341 . S
Tb1025 C1035 2.809 . S
Tb1025 O1046 2.325 1_565 S
Tb1025 O1049 2.341 1_565 S
Tb1025 O1050 2.484 . S
Tb1025 O1051 2.440 . S
Tb1025 O1052 2.658 1_565 S
Tb1025 O1053 2.409 1_565 S
Tb1025 O1054 2.378 1_565 S
C1026 Tb1024 2.809 . S
C1026 C1027 1.514 . S
C1026 O1044 1.248 . S
C1026 O1045 1.289 . S
C1027 C1026 1.514 . S
C1027 C1028 1.359 . S
C1027 C1032 1.348 1_455 S
C1028 C1027 1.359 . S
C1028 C1029 1.380 . S
C1028 H1056 0.929 . S
C1029 C1028 1.380 . S
C1029 C1030 1.330 1_455 S
C1029 H1057 0.931 . S
C1030 C1029 1.330 1_655 S
C1030 C1031 1.381 . S
C1031 C1030 1.381 . S
C1031 C1032 1.408 . S
C1031 H1058 0.930 . S
C1032 C1027 1.348 1_655 S
C1032 C1031 1.408 . S
C1032 H1059 0.930 . S
C1033 O1046 1.281 1_655 S
C1033 O1047 1.254 . S
C1034 O1048 1.236 . S
C1034 O1049 1.266 . S
C1035 Tb1025 2.809 . S
C1035 C1036 1.514 . S
C1035 O1050 1.248 . S
C1035 O1051 1.266 . S
C1036 C1035 1.514 . S
C1036 C1037 1.359 . S
C1036 C1041 1.348 . S
C1037 C1036 1.359 . S
C1037 C1038 1.380 . S
C1037 H1060 0.929 . S
C1038 C1037 1.380 . S
C1038 C1039 1.347 . S
C1038 H1061 0.931 . S
C1039 C1038 1.347 . S
C1039 C1040 1.369 . S
C1040 C1039 1.369 . S
C1040 C1041 1.408 . S
C1040 H1062 0.930 . S
C1041 C1036 1.348 . S
C1041 C1040 1.408 . S
C1041 H1063 0.930 . S
C1042 O1052 1.281 . S
C1042 O1053 1.254 . S
C1043 O1054 1.236 . S
C1043 O1055 1.266 . S
O1044 Tb1024 2.484 . S
O1044 C1026 1.248 . S
O1045 Tb1024 2.462 . S
O1045 C1026 1.289 . S
O1046 Tb1024 2.658 . S
O1046 Tb1025 2.325 1_545 S
O1046 C1033 1.281 1_455 S
O1047 Tb1024 2.409 1_655 S
O1047 C1033 1.254 . S
O1048 Tb1024 2.378 . S
O1048 C1034 1.236 . S
O1049 Tb1025 2.341 1_545 S
O1049 C1034 1.266 . S
O1050 Tb1025 2.484 . S
O1050 C1035 1.248 . S
O1051 Tb1025 2.440 . S
O1051 C1035 1.266 . S
O1052 Tb1024 2.325 . S
O1052 Tb1025 2.658 1_545 S
O1052 C1042 1.281 . S
O1053 Tb1025 2.409 1_545 S
O1053 C1042 1.254 . S
O1054 Tb1025 2.378 1_545 S
O1054 C1043 1.236 . S
O1055 Tb1024 2.341 . S
O1055 C1043 1.266 . S
H1056 C1028 0.929 . S
H1057 C1029 0.931 . S
H1058 C1031 0.930 . S
H1059 C1032 0.930 . S
H1060 C1037 0.929 . S
H1061 C1038 0.931 . S
H1062 C1040 0.930 . S
H1063 C1041 0.930 . S
Tb1064 C1066 2.809 . S
Tb1064 O1084 2.484 . S
Tb1064 O1085 2.440 . S
Tb1064 O1086 2.658 . S
Tb1064 O1087 2.409 . S
Tb1064 O1088 2.378 . S
Tb1064 O1092 2.325 . S
Tb1064 O1095 2.341 . S
Tb1065 C1075 2.809 . S
Tb1065 O1086 2.325 . S
Tb1065 O1089 2.341 . S
Tb1065 O1090 2.484 . S
Tb1065 O1091 2.440 . S
Tb1065 O1092 2.658 . S
Tb1065 O1093 2.409 . S
Tb1065 O1094 2.378 . S
C1066 Tb1064 2.809 . S
C1066 C1067 1.514 . S
C1066 O1084 1.248 . S
C1066 O1085 1.266 . S
C1067 C1066 1.514 . S
C1067 C1068 1.359 . S
C1067 C1072 1.348 . S
C1068 C1067 1.359 . S
C1068 C1069 1.380 . S
C1068 H1096 0.929 . S
C1069 C1068 1.380 . S
C1069 C1070 1.347 . S
C1069 H1097 0.931 . S
C1070 C1069 1.347 . S
C1070 C1071 1.369 . S
C1071 C1070 1.369 . S
C1071 C1072 1.408 . S
C1071 H1098 0.930 . S
C1072 C1067 1.348 . S
C1072 C1071 1.408 . S
C1072 H1099 0.930 . S
C1073 O1086 1.281 . S
C1073 O1087 1.254 . S
C1074 O1088 1.236 . S
C1074 O1089 1.266 . S
C1075 Tb1065 2.809 . S
C1075 C1076 1.514 . S
C1075 O1090 1.248 . S
C1075 O1091 1.266 . S
C1076 C1075 1.514 . S
C1076 C1077 1.359 . S
C1076 C1081 1.348 . S
C1077 C1076 1.359 . S
C1077 C1078 1.380 . S
C1077 H1100 0.929 . S
C1078 C1077 1.380 . S
C1078 C1079 1.347 . S
C1078 H1101 0.931 . S
C1079 C1078 1.347 . S
C1079 C1080 1.369 . S
C1080 C1079 1.369 . S
C1080 C1081 1.408 . S
C1080 H1102 0.930 . S
C1081 C1076 1.348 . S
C1081 C1080 1.408 . S
C1081 H1103 0.930 . S
C1082 O1092 1.281 . S
C1082 O1093 1.254 . S
C1083 O1094 1.236 . S
C1083 O1095 1.266 . S
O1084 Tb1064 2.484 . S
O1084 C1066 1.248 . S
O1085 Tb1064 2.440 . S
O1085 C1066 1.266 . S
O1086 Tb1064 2.658 . S
O1086 Tb1065 2.325 . S
O1086 C1073 1.281 . S
O1087 Tb1064 2.409 . S
O1087 C1073 1.254 . S
O1088 Tb1064 2.378 . S
O1088 C1074 1.236 . S
O1089 Tb1065 2.341 . S
O1089 C1074 1.266 . S
O1090 Tb1065 2.484 . S
O1090 C1075 1.248 . S
O1091 Tb1065 2.440 . S
O1091 C1075 1.266 . S
O1092 Tb1064 2.325 . S
O1092 Tb1065 2.658 . S
O1092 C1082 1.281 . S
O1093 Tb1065 2.409 . S
O1093 C1082 1.254 . S
O1094 Tb1065 2.378 . S
O1094 C1083 1.236 . S
O1095 Tb1064 2.341 . S
O1095 C1083 1.266 . S
H1096 C1068 0.929 . S
H1097 C1069 0.931 . S
H1098 C1071 0.930 . S
H1099 C1072 0.930 . S
H1100 C1077 0.929 . S
H1101 C1078 0.931 . S
H1102 C1080 0.930 . S
H1103 C1081 0.930 . S
Tb1104 C1106 2.809 . S
Tb1104 O1124 2.484 1_545 S
Tb1104 O1125 2.440 . S
Tb1104 O1126 2.658 . S
Tb1104 O1127 2.409 . S
Tb1104 O1128 2.378 . S
Tb1104 O1132 2.325 . S
Tb1104 O1135 2.341 . S
Tb1105 C1115 2.809 . S
Tb1105 O1126 2.325 . S
Tb1105 O1129 2.341 . S
Tb1105 O1130 2.484 . S
Tb1105 O1131 2.440 . S
Tb1105 O1132 2.658 . S
Tb1105 O1133 2.409 1_545 S
Tb1105 O1134 2.378 . S
C1106 Tb1104 2.809 . S
C1106 C1107 1.514 1_545 S
C1106 O1124 1.248 1_545 S
C1106 O1125 1.266 . S
C1107 C1106 1.514 1_565 S
C1107 C1108 1.359 . S
C1107 C1112 1.348 1_565 S
C1108 C1107 1.359 . S
C1108 C1109 1.380 . S
C1108 H1136 0.929 . S
C1109 C1108 1.380 . S
C1109 C1110 1.347 . S
C1109 H1137 0.931 . S
C1110 C1109 1.347 . S
C1110 C1111 1.369 1_565 S
C1111 C1110 1.369 1_545 S
C1111 C1112 1.408 . S
C1111 H1138 0.930 . S
C1112 C1107 1.348 1_545 S
C1112 C1111 1.408 . S
C1112 H1139 0.930 . S
C1113 O1126 1.281 . S
C1113 O1127 1.254 . S
C1114 O1128 1.236 . S
C1114 O1129 1.266 . S
C1115 Tb1105 2.809 . S
C1115 C1116 1.514 . S
C1115 O1130 1.248 . S
C1115 O1131 1.266 . S
C1116 C1115 1.514 . S
C1116 C1117 1.359 . S
C1116 C1121 1.348 . S
C1117 C1116 1.359 . S
C1117 C1118 1.380 . S
C1117 H1140 0.929 . S
C1118 C1117 1.380 . S
C1118 C1119 1.347 . S
C1118 H1141 0.931 . S
C1119 C1118 1.347 . S
C1119 C1120 1.369 . S
C1120 C1119 1.369 . S
C1120 C1121 1.408 . S
C1120 H1142 0.930 . S
C1121 C1116 1.348 . S
C1121 C1120 1.408 . S
C1121 H1143 0.930 . S
C1122 O1132 1.281 1_565 S
C1122 O1133 1.254 . S
C1123 O1134 1.236 . S
C1123 O1135 1.266 . S
O1124 Tb1104 2.484 1_565 S
O1124 C1106 1.248 1_565 S
O1125 Tb1104 2.440 . S
O1125 C1106 1.266 . S
O1126 Tb1104 2.658 . S
O1126 Tb1105 2.325 . S
O1126 C1113 1.281 . S
O1127 Tb1104 2.409 . S
O1127 C1113 1.254 . S
O1128 Tb1104 2.378 . S
O1128 C1114 1.236 . S
O1129 Tb1105 2.341 . S
O1129 C1114 1.266 . S
O1130 Tb1105 2.484 . S
O1130 C1115 1.248 . S
O1131 Tb1105 2.440 . S
O1131 C1115 1.266 . S
O1132 Tb1104 2.325 . S
O1132 Tb1105 2.658 . S
O1132 C1122 1.281 1_545 S
O1133 Tb1105 2.409 1_565 S
O1133 C1122 1.254 . S
O1134 Tb1105 2.378 . S
O1134 C1123 1.236 . S
O1135 Tb1104 2.341 . S
O1135 C1123 1.266 . S
H1136 C1108 0.929 . S
H1137 C1109 0.931 . S
H1138 C1111 0.930 . S
H1139 C1112 0.930 . S
H1140 C1117 0.929 . S
H1141 C1118 0.931 . S
H1142 C1120 0.930 . S
H1143 C1121 0.930 . S
Tb1144 C1146 2.809 . S
Tb1144 O1164 2.484 . S
Tb1144 O1165 2.440 . S
Tb1144 O1166 2.658 . S
Tb1144 O1167 2.409 . S
Tb1144 O1168 2.378 . S
Tb1144 O1172 2.325 . S
Tb1144 O1175 2.341 . S
Tb1145 C1155 2.809 . S
Tb1145 O1166 2.325 . S
Tb1145 O1169 2.341 . S
Tb1145 O1170 2.484 . S
Tb1145 O1171 2.440 . S
Tb1145 O1172 2.658 . S
Tb1145 O1173 2.409 . S
Tb1145 O1174 2.378 . S
C1146 Tb1144 2.809 . S
C1146 C1147 1.514 . S
C1146 O1164 1.248 . S
C1146 O1165 1.266 . S
C1147 C1146 1.514 . S
C1147 C1148 1.359 . S
C1147 C1152 1.348 . S
C1148 C1147 1.359 . S
C1148 C1149 1.380 . S
C1148 H1176 0.929 . S
C1149 C1148 1.380 . S
C1149 C1150 1.347 . S
C1149 H1177 0.931 . S
C1150 C1149 1.347 . S
C1150 C1151 1.369 . S
C1151 C1150 1.369 . S
C1151 C1152 1.408 . S
C1151 H1178 0.930 . S
C1152 C1147 1.348 . S
C1152 C1151 1.408 . S
C1152 H1179 0.930 . S
C1153 O1166 1.281 . S
C1153 O1167 1.254 . S
C1154 O1168 1.236 . S
C1154 O1169 1.266 . S
C1155 Tb1145 2.809 . S
C1155 C1156 1.514 . S
C1155 O1170 1.248 . S
C1155 O1171 1.266 . S
C1156 C1155 1.514 . S
C1156 C1157 1.359 . S
C1156 C1161 1.348 . S
C1157 C1156 1.359 . S
C1157 C1158 1.380 . S
C1157 H1180 0.929 . S
C1158 C1157 1.380 . S
C1158 C1159 1.347 . S
C1158 H1181 0.931 . S
C1159 C1158 1.347 . S
C1159 C1160 1.369 . S
C1160 C1159 1.369 . S
C1160 C1161 1.408 . S
C1160 H1182 0.930 . S
C1161 C1156 1.348 . S
C1161 C1160 1.408 . S
C1161 H1183 0.930 . S
C1162 O1172 1.281 . S
C1162 O1173 1.254 . S
C1163 O1174 1.236 . S
C1163 O1175 1.266 . S
O1164 Tb1144 2.484 . S
O1164 C1146 1.248 . S
O1165 Tb1144 2.440 . S
O1165 C1146 1.266 . S
O1166 Tb1144 2.658 . S
O1166 Tb1145 2.325 . S
O1166 C1153 1.281 . S
O1167 Tb1144 2.409 . S
O1167 C1153 1.254 . S
O1168 Tb1144 2.378 . S
O1168 C1154 1.236 . S
O1169 Tb1145 2.341 . S
O1169 C1154 1.266 . S
O1170 Tb1145 2.484 . S
O1170 C1155 1.248 . S
O1171 Tb1145 2.440 . S
O1171 C1155 1.266 . S
O1172 Tb1144 2.325 . S
O1172 Tb1145 2.658 . S
O1172 C1162 1.281 . S
O1173 Tb1145 2.409 . S
O1173 C1162 1.254 . S
O1174 Tb1145 2.378 . S
O1174 C1163 1.236 . S
O1175 Tb1144 2.341 . S
O1175 C1163 1.266 . S
H1176 C1148 0.929 . S
H1177 C1149 0.931 . S
H1178 C1151 0.930 . S
H1179 C1152 0.930 . S
H1180 C1157 0.929 . S
H1181 C1158 0.931 . S
H1182 C1160 0.930 . S
H1183 C1161 0.930 . S
Tb1184 C1186 2.809 . S
Tb1184 O1204 2.484 . S
Tb1184 O1205 2.440 . S
Tb1184 O1206 2.658 . S
Tb1184 O1207 2.409 . S
Tb1184 O1208 2.378 . S
Tb1184 O1212 2.325 . S
Tb1184 O1215 2.341 . S
Tb1185 C1195 2.809 . S
Tb1185 O1206 2.325 . S
Tb1185 O1209 2.344 . S
Tb1185 O1210 2.484 . S
Tb1185 O1211 2.440 . S
Tb1185 O1212 2.658 . S
Tb1185 O1213 2.409 . S
Tb1185 O1214 2.378 . S
C1186 Tb1184 2.809 . S
C1186 C1187 1.514 . S
C1186 O1204 1.248 . S
C1186 O1205 1.266 . S
C1187 C1186 1.514 . S
C1187 C1188 1.359 1_554 S
C1187 C1192 1.348 . S
C1188 C1187 1.359 1_556 S
C1188 C1189 1.380 . S
C1188 H1216 0.929 . S
C1189 C1188 1.380 . S
C1189 C1190 1.347 . S
C1189 H1217 0.931 . S
C1190 C1189 1.347 . S
C1190 C1191 1.369 . S
C1191 C1190 1.369 . S
C1191 C1192 1.408 1_556 S
C1191 H1218 0.930 . S
C1192 C1187 1.348 . S
C1192 C1191 1.408 1_554 S
C1192 H1219 0.930 . S
C1193 O1206 1.281 . S
C1193 O1207 1.254 . S
C1194 O1208 1.236 1_556 S
C1194 O1209 1.265 1_556 S
C1195 Tb1185 2.809 . S
C1195 C1196 1.514 . S
C1195 O1210 1.248 . S
C1195 O1211 1.266 . S
C1196 C1195 1.514 . S
C1196 C1197 1.359 . S
C1196 C1201 1.348 . S
C1197 C1196 1.359 . S
C1197 C1198 1.380 . S
C1197 H1220 0.929 . S
C1198 C1197 1.380 . S
C1198 C1199 1.347 . S
C1198 H1221 0.931 . S
C1199 C1198 1.347 . S
C1199 C1200 1.369 . S
C1200 C1199 1.369 . S
C1200 C1201 1.408 . S
C1200 H1222 0.930 . S
C1201 C1196 1.348 . S
C1201 C1200 1.408 . S
C1201 H1223 0.930 . S
C1202 O1212 1.281 . S
C1202 O1213 1.254 . S
C1203 O1214 1.236 . S
C1203 O1215 1.266 . S
O1204 Tb1184 2.484 . S
O1204 C1186 1.248 . S
O1205 Tb1184 2.440 . S
O1205 C1186 1.266 . S
O1206 Tb1184 2.658 . S
O1206 Tb1185 2.325 . S
O1206 C1193 1.281 . S
O1207 Tb1184 2.409 . S
O1207 C1193 1.254 . S
O1208 Tb1184 2.378 . S
O1208 C1194 1.236 1_554 S
O1209 Tb1185 2.344 . S
O1209 C1194 1.265 1_554 S
O1210 Tb1185 2.484 . S
O1210 C1195 1.248 . S
O1211 Tb1185 2.440 . S
O1211 C1195 1.266 . S
O1212 Tb1184 2.325 . S
O1212 Tb1185 2.658 . S
O1212 C1202 1.281 . S
O1213 Tb1185 2.409 . S
O1213 C1202 1.254 . S
O1214 Tb1185 2.378 . S
O1214 C1203 1.236 . S
O1215 Tb1184 2.341 . S
O1215 C1203 1.266 . S
H1216 C1188 0.929 . S
H1217 C1189 0.931 . S
H1218 C1191 0.930 . S
H1219 C1192 0.930 . S
H1220 C1197 0.929 . S
H1221 C1198 0.931 . S
H1222 C1200 0.930 . S
H1223 C1201 0.930 . S
Tb1224 C1226 2.809 . S
Tb1224 O1244 2.484 . S
Tb1224 O1245 2.440 . S
Tb1224 O1246 2.658 . S
Tb1224 O1247 2.409 . S
Tb1224 O1248 2.378 . S
Tb1224 O1252 2.325 . S
Tb1224 O1255 2.341 . S
Tb1225 C1235 2.809 . S
Tb1225 O1246 2.325 . S
Tb1225 O1249 2.341 . S
Tb1225 O1250 2.484 . S
Tb1225 O1251 2.440 . S
Tb1225 O1252 2.658 . S
Tb1225 O1253 2.409 . S
Tb1225 O1254 2.378 . S
C1226 Tb1224 2.809 . S
C1226 C1227 1.514 . S
C1226 O1244 1.248 . S
C1226 O1245 1.266 . S
C1227 C1226 1.514 . S
C1227 C1228 1.359 . S
C1227 C1232 1.348 . S
C1228 C1227 1.359 . S
C1228 C1229 1.380 . S
C1228 H1256 0.929 . S
C1229 C1228 1.380 . S
C1229 C1230 1.347 . S
C1229 H1257 0.931 . S
C1230 C1229 1.347 . S
C1230 C1231 1.369 . S
C1231 C1230 1.369 . S
C1231 C1232 1.408 . S
C1231 H1258 0.930 . S
C1232 C1227 1.348 . S
C1232 C1231 1.408 . S
C1232 H1259 0.930 . S
C1233 O1246 1.281 . S
C1233 O1247 1.254 . S
C1234 O1248 1.236 . S
C1234 O1249 1.266 . S
C1235 Tb1225 2.809 . S
C1235 C1236 1.514 . S
C1235 O1250 1.248 . S
C1235 O1251 1.266 . S
C1236 C1235 1.514 . S
C1236 C1237 1.359 . S
C1236 C1241 1.348 . S
C1237 C1236 1.359 . S
C1237 C1238 1.380 . S
C1237 H1260 0.929 . S
C1238 C1237 1.380 . S
C1238 C1239 1.347 . S
C1238 H1261 0.931 . S
C1239 C1238 1.347 . S
C1239 C1240 1.369 . S
C1240 C1239 1.369 . S
C1240 C1241 1.408 . S
C1240 H1262 0.930 . S
C1241 C1236 1.348 . S
C1241 C1240 1.408 . S
C1241 H1263 0.930 . S
C1242 O1252 1.281 . S
C1242 O1253 1.254 . S
C1243 O1254 1.236 . S
C1243 O1255 1.266 . S
O1244 Tb1224 2.484 . S
O1244 C1226 1.248 . S
O1245 Tb1224 2.440 . S
O1245 C1226 1.266 . S
O1246 Tb1224 2.658 . S
O1246 Tb1225 2.325 . S
O1246 C1233 1.281 . S
O1247 Tb1224 2.409 . S
O1247 C1233 1.254 . S
O1248 Tb1224 2.378 . S
O1248 C1234 1.236 . S
O1249 Tb1225 2.341 . S
O1249 C1234 1.266 . S
O1250 Tb1225 2.484 . S
O1250 C1235 1.248 . S
O1251 Tb1225 2.440 . S
O1251 C1235 1.266 . S
O1252 Tb1224 2.325 . S
O1252 Tb1225 2.658 . S
O1252 C1242 1.281 . S
O1253 Tb1225 2.409 . S
O1253 C1242 1.254 . S
O1254 Tb1225 2.378 . S
O1254 C1243 1.236 . S
O1255 Tb1224 2.341 . S
O1255 C1243 1.266 . S
H1256 C1228 0.929 . S
H1257 C1229 0.931 . S
H1258 C1231 0.930 . S
H1259 C1232 0.930 . S
H1260 C1237 0.929 . S
H1261 C1238 0.931 . S
H1262 C1240 0.930 . S
H1263 C1241 0.930 . S
Tb1264 C1266 2.809 1_455 S
Tb1264 O1284 2.484 1_455 S
Tb1264 O1285 2.440 1_455 S
Tb1264 O1286 2.658 . S
Tb1264 O1287 2.409 . S
Tb1264 O1288 2.378 . S
Tb1264 O1292 2.325 . S
Tb1264 O1295 2.341 . S
Tb1265 C1275 2.809 . S
Tb1265 O1286 2.325 . S
Tb1265 O1289 2.341 . S
Tb1265 O1290 2.484 . S
Tb1265 O1291 2.440 . S
Tb1265 O1292 2.658 . S
Tb1265 O1293 2.409 . S
Tb1265 O1294 2.378 . S
C1266 Tb1264 2.809 1_655 S
C1266 C1267 1.514 . S
C1266 O1284 1.248 . S
C1266 O1285 1.266 . S
C1267 C1266 1.514 . S
C1267 C1268 1.359 . S
C1267 C1272 1.348 . S
C1268 C1267 1.359 . S
C1268 C1269 1.380 . S
C1268 H1296 0.929 . S
C1269 C1268 1.380 . S
C1269 C1270 1.347 . S
C1269 H1297 0.931 . S
C1270 C1269 1.347 . S
C1270 C1271 1.369 . S
C1271 C1270 1.369 . S
C1271 C1272 1.408 . S
C1271 H1298 0.930 . S
C1272 C1267 1.348 . S
C1272 C1271 1.408 . S
C1272 H1299 0.930 . S
C1273 O1286 1.281 . S
C1273 O1287 1.254 . S
C1274 O1288 1.236 . S
C1274 O1289 1.266 . S
C1275 Tb1265 2.809 . S
C1275 C1276 1.514 . S
C1275 O1290 1.248 . S
C1275 O1291 1.266 . S
C1276 C1275 1.514 . S
C1276 C1277 1.359 . S
C1276 C1281 1.348 . S
C1277 C1276 1.359 . S
C1277 C1278 1.380 . S
C1277 H1300 0.929 . S
C1278 C1277 1.380 . S
C1278 C1279 1.347 . S
C1278 H1301 0.931 . S
C1279 C1278 1.347 . S
C1279 C1280 1.369 . S
C1280 C1279 1.369 . S
C1280 C1281 1.408 . S
C1280 H1302 0.930 . S
C1281 C1276 1.348 . S
C1281 C1280 1.408 . S
C1281 H1303 0.930 . S
C1282 O1292 1.281 . S
C1282 O1293 1.254 . S
C1283 O1294 1.236 . S
C1283 O1295 1.266 . S
O1284 Tb1264 2.484 1_655 S
O1284 C1266 1.248 . S
O1285 Tb1264 2.440 1_655 S
O1285 C1266 1.266 . S
O1286 Tb1264 2.658 . S
O1286 Tb1265 2.325 . S
O1286 C1273 1.281 . S
O1287 Tb1264 2.409 . S
O1287 C1273 1.254 . S
O1288 Tb1264 2.378 . S
O1288 C1274 1.236 . S
O1289 Tb1265 2.341 . S
O1289 C1274 1.266 . S
O1290 Tb1265 2.484 . S
O1290 C1275 1.248 . S
O1291 Tb1265 2.440 . S
O1291 C1275 1.266 . S
O1292 Tb1264 2.325 . S
O1292 Tb1265 2.658 . S
O1292 C1282 1.281 . S
O1293 Tb1265 2.409 . S
O1293 C1282 1.254 . S
O1294 Tb1265 2.378 . S
O1294 C1283 1.236 . S
O1295 Tb1264 2.341 . S
O1295 C1283 1.266 . S
H1296 C1268 0.929 . S
H1297 C1269 0.931 . S
H1298 C1271 0.930 . S
H1299 C1272 0.930 . S
H1300 C1277 0.929 . S
H1301 C1278 0.931 . S
H1302 C1280 0.930 . S
H1303 C1281 0.930 . S
Tb1304 C1306 2.809 . S
Tb1304 O1324 2.484 . S
Tb1304 O1325 2.440 . S
Tb1304 O1326 2.658 . S
Tb1304 O1327 2.409 . S
Tb1304 O1328 2.378 . S
Tb1304 O1332 2.325 . S
Tb1304 O1335 2.341 . S
Tb1305 C1315 2.809 . S
Tb1305 O1326 2.325 . S
Tb1305 O1329 2.341 . S
Tb1305 O1330 2.484 . S
Tb1305 O1331 2.440 . S
Tb1305 O1332 2.658 . S
Tb1305 O1333 2.409 . S
Tb1305 O1334 2.378 . S
C1306 Tb1304 2.809 . S
C1306 C1307 1.514 . S
C1306 O1324 1.248 . S
C1306 O1325 1.266 . S
C1307 C1306 1.514 . S
C1307 C1308 1.359 . S
C1307 C1312 1.348 . S
C1308 C1307 1.359 . S
C1308 C1309 1.380 . S
C1308 H1336 0.929 . S
C1309 C1308 1.380 . S
C1309 C1310 1.347 . S
C1309 H1337 0.931 . S
C1310 C1309 1.347 . S
C1310 C1311 1.369 . S
C1311 C1310 1.369 . S
C1311 C1312 1.408 . S
C1311 H1338 0.930 . S
C1312 C1307 1.348 . S
C1312 C1311 1.408 . S
C1312 H1339 0.930 . S
C1313 O1326 1.281 . S
C1313 O1327 1.254 . S
C1314 O1328 1.236 . S
C1314 O1329 1.266 . S
C1315 Tb1305 2.809 . S
C1315 C1316 1.514 . S
C1315 O1330 1.248 . S
C1315 O1331 1.266 . S
C1316 C1315 1.514 . S
C1316 C1317 1.359 . S
C1316 C1321 1.348 . S
C1317 C1316 1.359 . S
C1317 C1318 1.380 . S
C1317 H1340 0.929 . S
C1318 C1317 1.380 . S
C1318 C1319 1.347 . S
C1318 H1341 0.931 . S
C1319 C1318 1.347 . S
C1319 C1320 1.369 . S
C1320 C1319 1.369 . S
C1320 C1321 1.408 . S
C1320 H1342 0.930 . S
C1321 C1316 1.348 . S
C1321 C1320 1.408 . S
C1321 H1343 0.930 . S
C1322 O1332 1.281 . S
C1322 O1333 1.254 . S
C1323 O1334 1.236 . S
C1323 O1335 1.266 . S
O1324 Tb1304 2.484 . S
O1324 C1306 1.248 . S
O1325 Tb1304 2.440 . S
O1325 C1306 1.266 . S
O1326 Tb1304 2.658 . S
O1326 Tb1305 2.325 . S
O1326 C1313 1.281 . S
O1327 Tb1304 2.409 . S
O1327 C1313 1.254 . S
O1328 Tb1304 2.378 . S
O1328 C1314 1.236 . S
O1329 Tb1305 2.341 . S
O1329 C1314 1.266 . S
O1330 Tb1305 2.484 . S
O1330 C1315 1.248 . S
O1331 Tb1305 2.440 . S
O1331 C1315 1.266 . S
O1332 Tb1304 2.325 . S
O1332 Tb1305 2.658 . S
O1332 C1322 1.281 . S
O1333 Tb1305 2.409 . S
O1333 C1322 1.254 . S
O1334 Tb1305 2.378 . S
O1334 C1323 1.236 . S
O1335 Tb1304 2.341 . S
O1335 C1323 1.266 . S
H1336 C1308 0.929 . S
H1337 C1309 0.931 . S
H1338 C1311 0.930 . S
H1339 C1312 0.930 . S
H1340 C1317 0.929 . S
H1341 C1318 0.931 . S
H1342 C1320 0.930 . S
H1343 C1321 0.930 . S
Tb1344 C1346 2.809 . S
Tb1344 O1364 2.484 . S
Tb1344 O1365 2.440 . S
Tb1344 O1366 2.658 . S
Tb1344 O1367 2.409 . S
Tb1344 O1368 2.378 . S
Tb1344 O1372 2.325 . S
Tb1344 O1375 2.341 . S
Tb1345 C1355 2.809 . S
Tb1345 O1366 2.325 . S
Tb1345 O1369 2.341 . S
Tb1345 O1370 2.484 . S
Tb1345 O1371 2.440 . S
Tb1345 O1372 2.658 . S
Tb1345 O1373 2.409 . S
Tb1345 O1374 2.378 . S
C1346 Tb1344 2.809 . S
C1346 C1347 1.514 . S
C1346 O1364 1.248 . S
C1346 O1365 1.266 . S
C1347 C1346 1.514 . S
C1347 C1348 1.359 . S
C1347 C1352 1.348 . S
C1348 C1347 1.359 . S
C1348 C1349 1.380 . S
C1348 H1376 0.929 . S
C1349 C1348 1.380 . S
C1349 C1350 1.347 . S
C1349 H1377 0.931 . S
C1350 C1349 1.347 . S
C1350 C1351 1.369 . S
C1351 C1350 1.369 . S
C1351 C1352 1.408 . S
C1351 H1378 0.930 . S
C1352 C1347 1.348 . S
C1352 C1351 1.408 . S
C1352 H1379 0.930 . S
C1353 O1366 1.281 . S
C1353 O1367 1.254 . S
C1354 O1368 1.236 . S
C1354 O1369 1.266 . S
C1355 Tb1345 2.809 . S
C1355 C1356 1.514 . S
C1355 O1370 1.248 . S
C1355 O1371 1.266 . S
C1356 C1355 1.514 . S
C1356 C1357 1.359 . S
C1356 C1361 1.348 . S
C1357 C1356 1.359 . S
C1357 C1358 1.380 . S
C1357 H1380 0.929 . S
C1358 C1357 1.380 . S
C1358 C1359 1.347 . S
C1358 H1381 0.931 . S
C1359 C1358 1.347 . S
C1359 C1360 1.369 . S
C1360 C1359 1.369 . S
C1360 C1361 1.408 . S
C1360 H1382 0.930 . S
C1361 C1356 1.348 . S
C1361 C1360 1.408 . S
C1361 H1383 0.930 . S
C1362 O1372 1.281 . S
C1362 O1373 1.254 . S
C1363 O1374 1.236 . S
C1363 O1375 1.266 . S
O1364 Tb1344 2.484 . S
O1364 C1346 1.248 . S
O1365 Tb1344 2.440 . S
O1365 C1346 1.266 . S
O1366 Tb1344 2.658 . S
O1366 Tb1345 2.325 . S
O1366 C1353 1.281 . S
O1367 Tb1344 2.409 . S
O1367 C1353 1.254 . S
O1368 Tb1344 2.378 . S
O1368 C1354 1.236 . S
O1369 Tb1345 2.341 . S
O1369 C1354 1.266 . S
O1370 Tb1345 2.484 . S
O1370 C1355 1.248 . S
O1371 Tb1345 2.440 . S
O1371 C1355 1.266 . S
O1372 Tb1344 2.325 . S
O1372 Tb1345 2.658 . S
O1372 C1362 1.281 . S
O1373 Tb1345 2.409 . S
O1373 C1362 1.254 . S
O1374 Tb1345 2.378 . S
O1374 C1363 1.236 . S
O1375 Tb1344 2.341 . S
O1375 C1363 1.266 . S
H1376 C1348 0.929 . S
H1377 C1349 0.931 . S
H1378 C1351 0.930 . S
H1379 C1352 0.930 . S
H1380 C1357 0.929 . S
H1381 C1358 0.931 . S
H1382 C1360 0.930 . S
H1383 C1361 0.930 . S
Tb1384 C1386 2.809 . S
Tb1384 O1404 2.484 . S
Tb1384 O1405 2.440 . S
Tb1384 O1406 2.658 . S
Tb1384 O1407 2.409 . S
Tb1384 O1408 2.378 . S
Tb1384 O1412 2.325 . S
Tb1384 O1415 2.341 . S
Tb1385 C1395 2.809 . S
Tb1385 O1406 2.325 . S
Tb1385 O1409 2.341 . S
Tb1385 O1410 2.484 . S
Tb1385 O1411 2.440 . S
Tb1385 O1412 2.658 . S
Tb1385 O1413 2.409 . S
Tb1385 O1414 2.378 . S
C1386 Tb1384 2.809 . S
C1386 C1387 1.514 . S
C1386 O1404 1.248 . S
C1386 O1405 1.266 . S
C1387 C1386 1.514 . S
C1387 C1388 1.359 . S
C1387 C1392 1.348 . S
C1388 C1387 1.359 . S
C1388 C1389 1.380 . S
C1388 H1416 0.929 . S
C1389 C1388 1.380 . S
C1389 C1390 1.347 . S
C1389 H1417 0.931 . S
C1390 C1389 1.347 . S
C1390 C1391 1.369 . S
C1391 C1390 1.369 . S
C1391 C1392 1.408 . S
C1391 H1418 0.930 . S
C1392 C1387 1.348 . S
C1392 C1391 1.408 . S
C1392 H1419 0.930 . S
C1393 O1406 1.281 . S
C1393 O1407 1.254 . S
C1394 O1408 1.236 . S
C1394 O1409 1.266 . S
C1395 Tb1385 2.809 . S
C1395 C1396 1.514 . S
C1395 O1410 1.248 . S
C1395 O1411 1.266 . S
C1396 C1395 1.514 . S
C1396 C1397 1.359 . S
C1396 C1401 1.348 . S
C1397 C1396 1.359 . S
C1397 C1398 1.380 . S
C1397 H1420 0.929 . S
C1398 C1397 1.380 . S
C1398 C1399 1.347 . S
C1398 H1421 0.931 . S
C1399 C1398 1.347 . S
C1399 C1400 1.369 . S
C1400 C1399 1.369 . S
C1400 C1401 1.408 . S
C1400 H1422 0.930 . S
C1401 C1396 1.348 . S
C1401 C1400 1.408 . S
C1401 H1423 0.930 . S
C1402 O1412 1.281 . S
C1402 O1413 1.254 . S
C1403 O1414 1.236 . S
C1403 O1415 1.266 . S
O1404 Tb1384 2.484 . S
O1404 C1386 1.248 . S
O1405 Tb1384 2.440 . S
O1405 C1386 1.266 . S
O1406 Tb1384 2.658 . S
O1406 Tb1385 2.325 . S
O1406 C1393 1.281 . S
O1407 Tb1384 2.409 . S
O1407 C1393 1.254 . S
O1408 Tb1384 2.378 . S
O1408 C1394 1.236 . S
O1409 Tb1385 2.341 . S
O1409 C1394 1.266 . S
O1410 Tb1385 2.484 . S
O1410 C1395 1.248 . S
O1411 Tb1385 2.440 . S
O1411 C1395 1.266 . S
O1412 Tb1384 2.325 . S
O1412 Tb1385 2.658 . S
O1412 C1402 1.281 . S
O1413 Tb1385 2.409 . S
O1413 C1402 1.254 . S
O1414 Tb1385 2.378 . S
O1414 C1403 1.236 . S
O1415 Tb1384 2.341 . S
O1415 C1403 1.266 . S
H1416 C1388 0.929 . S
H1417 C1389 0.931 . S
H1418 C1391 0.930 . S
H1419 C1392 0.930 . S
H1420 C1397 0.929 . S
H1421 C1398 0.931 . S
H1422 C1400 0.930 . S
H1423 C1401 0.930 . S
Tb1424 C1426 2.809 . S
Tb1424 O1444 2.484 . S
Tb1424 O1445 2.440 . S
Tb1424 O1446 2.658 . S
Tb1424 O1447 2.409 . S
Tb1424 O1448 2.378 . S
Tb1424 O1452 2.325 . S
Tb1424 O1455 2.341 . S
Tb1425 C1435 2.809 . S
Tb1425 O1446 2.325 . S
Tb1425 O1449 2.341 . S
Tb1425 O1450 2.484 . S
Tb1425 O1451 2.440 . S
Tb1425 O1452 2.658 . S
Tb1425 O1453 2.409 . S
Tb1425 O1454 2.378 . S
C1426 Tb1424 2.809 . S
C1426 C1427 1.514 . S
C1426 O1444 1.248 . S
C1426 O1445 1.266 . S
C1427 C1426 1.514 . S
C1427 C1428 1.359 . S
C1427 C1432 1.348 . S
C1428 C1427 1.359 . S
C1428 C1429 1.380 . S
C1428 H1456 0.929 . S
C1429 C1428 1.380 . S
C1429 C1430 1.347 . S
C1429 H1457 0.931 . S
C1430 C1429 1.347 . S
C1430 C1431 1.369 . S
C1431 C1430 1.369 . S
C1431 C1432 1.408 . S
C1431 H1458 0.930 . S
C1432 C1427 1.348 . S
C1432 C1431 1.408 . S
C1432 H1459 0.930 . S
C1433 O1446 1.281 . S
C1433 O1447 1.254 . S
C1434 O1448 1.236 . S
C1434 O1449 1.266 . S
C1435 Tb1425 2.809 . S
C1435 C1436 1.514 . S
C1435 O1450 1.248 . S
C1435 O1451 1.266 . S
C1436 C1435 1.514 . S
C1436 C1437 1.359 . S
C1436 C1441 1.348 . S
C1437 C1436 1.359 . S
C1437 C1438 1.380 . S
C1437 H1460 0.929 . S
C1438 C1437 1.380 . S
C1438 C1439 1.347 . S
C1438 H1461 0.931 . S
C1439 C1438 1.347 . S
C1439 C1440 1.369 . S
C1440 C1439 1.369 . S
C1440 C1441 1.408 . S
C1440 H1462 0.930 . S
C1441 C1436 1.348 . S
C1441 C1440 1.408 . S
C1441 H1463 0.930 . S
C1442 O1452 1.281 . S
C1442 O1453 1.254 . S
C1443 O1454 1.236 . S
C1443 O1455 1.266 . S
O1444 Tb1424 2.484 . S
O1444 C1426 1.248 . S
O1445 Tb1424 2.440 . S
O1445 C1426 1.266 . S
O1446 Tb1424 2.658 . S
O1446 Tb1425 2.325 . S
O1446 C1433 1.281 . S
O1447 Tb1424 2.409 . S
O1447 C1433 1.254 . S
O1448 Tb1424 2.378 . S
O1448 C1434 1.236 . S
O1449 Tb1425 2.341 . S
O1449 C1434 1.266 . S
O1450 Tb1425 2.484 . S
O1450 C1435 1.248 . S
O1451 Tb1425 2.440 . S
O1451 C1435 1.266 . S
O1452 Tb1424 2.325 . S
O1452 Tb1425 2.658 . S
O1452 C1442 1.281 . S
O1453 Tb1425 2.409 . S
O1453 C1442 1.254 . S
O1454 Tb1425 2.378 . S
O1454 C1443 1.236 . S
O1455 Tb1424 2.341 . S
O1455 C1443 1.266 . S
H1456 C1428 0.929 . S
H1457 C1429 0.931 . S
H1458 C1431 0.930 . S
H1459 C1432 0.930 . S
H1460 C1437 0.929 . S
H1461 C1438 0.931 . S
H1462 C1440 0.930 . S
H1463 C1441 0.930 . S
Tb1464 C1466 2.809 . S
Tb1464 O1484 2.484 . S
Tb1464 O1485 2.440 . S
Tb1464 O1486 2.658 . S
Tb1464 O1487 2.409 1_554 S
Tb1464 O1488 2.378 . S
Tb1464 O1492 2.325 . S
Tb1464 O1495 2.341 . S
Tb1465 C1475 2.809 1_455 S
Tb1465 O1486 2.325 . S
Tb1465 O1489 2.341 . S
Tb1465 O1490 2.484 1_455 S
Tb1465 O1491 2.440 1_455 S
Tb1465 O1492 2.658 . S
Tb1465 O1493 2.409 . S
Tb1465 O1494 2.378 . S
C1466 Tb1464 2.809 . S
C1466 C1467 1.514 . S
C1466 O1484 1.248 . S
C1466 O1485 1.266 . S
C1467 C1466 1.514 . S
C1467 C1468 1.359 . S
C1467 C1472 1.348 . S
C1468 C1467 1.359 . S
C1468 C1469 1.380 . S
C1468 H1496 0.929 . S
C1469 C1468 1.380 . S
C1469 C1470 1.347 . S
C1469 H1497 0.931 . S
C1470 C1469 1.347 . S
C1470 C1471 1.369 1_554 S
C1471 C1470 1.369 1_556 S
C1471 C1472 1.408 1_556 S
C1471 H1498 0.930 . S
C1472 C1467 1.348 . S
C1472 C1471 1.408 1_554 S
C1472 H1499 0.930 1_554 S
C1473 O1486 1.281 1_556 S
C1473 O1487 1.254 . S
C1474 O1488 1.236 . S
C1474 O1489 1.266 . S
C1475 Tb1465 2.809 1_655 S
C1475 C1476 1.514 . S
C1475 O1490 1.248 . S
C1475 O1491 1.266 . S
C1476 C1475 1.514 . S
C1476 C1477 1.359 . S
C1476 C1481 1.348 . S
C1477 C1476 1.359 . S
C1477 C1478 1.380 . S
C1477 H1500 0.929 . S
C1478 C1477 1.380 . S
C1478 C1479 1.347 . S
C1478 H1501 0.931 . S
C1479 C1478 1.347 . S
C1479 C1480 1.369 . S
C1480 C1479 1.369 . S
C1480 C1481 1.408 . S
C1480 H1502 0.930 . S
C1481 C1476 1.348 . S
C1481 C1480 1.408 . S
C1481 H1503 0.930 . S
C1482 O1492 1.281 . S
C1482 O1493 1.254 . S
C1483 O1494 1.236 . S
C1483 O1495 1.266 . S
O1484 Tb1464 2.484 . S
O1484 C1466 1.248 . S
O1485 Tb1464 2.440 . S
O1485 C1466 1.266 . S
O1486 Tb1464 2.658 . S
O1486 Tb1465 2.325 . S
O1486 C1473 1.281 1_554 S
O1487 Tb1464 2.409 1_556 S
O1487 C1473 1.254 . S
O1488 Tb1464 2.378 . S
O1488 C1474 1.236 . S
O1489 Tb1465 2.341 . S
O1489 C1474 1.266 . S
O1490 Tb1465 2.484 1_655 S
O1490 C1475 1.248 . S
O1491 Tb1465 2.440 1_655 S
O1491 C1475 1.266 . S
O1492 Tb1464 2.325 . S
O1492 Tb1465 2.658 . S
O1492 C1482 1.281 . S
O1493 Tb1465 2.409 . S
O1493 C1482 1.254 . S
O1494 Tb1465 2.378 . S
O1494 C1483 1.236 . S
O1495 Tb1464 2.341 . S
O1495 C1483 1.266 . S
H1496 C1468 0.929 . S
H1497 C1469 0.931 . S
H1498 C1471 0.930 . S
H1499 C1472 0.930 1_556 S
H1500 C1477 0.929 . S
H1501 C1478 0.931 . S
H1502 C1480 0.930 . S
H1503 C1481 0.930 . S
H1504 C1516 0.930 . S
H1505 C1518 0.930 . S
H1506 C1519 0.930 . S
H1507 C1523 0.959 . S
H1508 C1523 0.959 . S
H1509 C1523 0.961 . S
H1510 C1524 0.960 . S
H1511 C1524 0.961 . S
H1512 C1524 0.959 . S
H1513 C1527 0.929 . S
H1514 C1528 0.931 . S
H1515 C1530 0.930 1_556 S
C1516 H1504 0.930 . S
C1516 C1517 1.399 . S
C1516 C1521 1.399 . S
C1517 C1516 1.399 . S
C1517 C1518 1.376 1_556 S
C1518 H1505 0.930 . S
C1518 C1517 1.376 1_554 S
C1518 C1519 1.388 . S
C1519 H1506 0.930 . S
C1519 C1518 1.388 . S
C1519 C1520 1.390 . S
C1520 C1519 1.390 . S
C1520 C1521 1.394 1_554 S
C1520 C1526 1.465 . S
C1521 C1516 1.399 . S
C1521 C1520 1.394 1_556 S
C1521 C1522 1.516 . S
C1522 C1521 1.516 . S
C1522 C1523 1.502 . S
C1522 C1524 1.561 . S
C1522 C1525 1.526 1_556 S
C1523 H1507 0.959 . S
C1523 H1508 0.959 . S
C1523 H1509 0.961 . S
C1523 C1522 1.502 . S
C1524 H1510 0.960 . S
C1524 H1511 0.961 . S
C1524 H1512 0.959 . S
C1524 C1522 1.561 . S
C1525 C1522 1.526 1_554 S
C1525 C1526 1.396 . S
C1525 C1530 1.390 . S
C1526 C1520 1.465 . S
C1526 C1525 1.396 . S
C1526 C1527 1.399 . S
C1527 H1513 0.929 . S
C1527 C1526 1.399 . S
C1527 C1528 1.385 . S
C1528 H1514 0.931 . S
C1528 C1527 1.385 . S
C1528 C1529 1.389 . S
C1529 C1528 1.389 . S
C1529 C1530 1.387 . S
C1530 H1515 0.930 1_554 S
C1530 C1525 1.390 . S
C1530 C1529 1.387 . S
H1531 C1543 0.930 . S
H1532 C1545 0.930 . S
H1533 C1546 0.930 . S
H1534 C1550 0.959 . S
H1535 C1550 0.959 . S
H1536 C1550 0.961 . S
H1537 C1551 0.960 . S
H1538 C1551 0.961 . S
H1539 C1551 0.959 . S
H1540 C1554 0.929 . S
H1541 C1555 0.931 . S
H1542 C1557 0.930 . S
C1543 H1531 0.930 . S
C1543 C1544 1.399 . S
C1543 C1548 1.399 . S
C1544 C1543 1.399 . S
C1544 C1545 1.376 . S
C1545 H1532 0.930 . S
C1545 C1544 1.376 . S
C1545 C1546 1.388 . S
C1546 H1533 0.930 . S
C1546 C1545 1.388 . S
C1546 C1547 1.390 . S
C1547 C1546 1.390 . S
C1547 C1548 1.394 . S
C1547 C1553 1.465 . S
C1548 C1543 1.399 . S
C1548 C1547 1.394 . S
C1548 C1549 1.516 . S
C1549 C1548 1.516 . S
C1549 C1550 1.502 . S
C1549 C1551 1.561 . S
C1549 C1552 1.526 . S
C1550 H1534 0.959 . S
C1550 H1535 0.959 . S
C1550 H1536 0.961 . S
C1550 C1549 1.502 . S
C1551 H1537 0.960 . S
C1551 H1538 0.961 . S
C1551 H1539 0.959 . S
C1551 C1549 1.561 . S
C1552 C1549 1.526 . S
C1552 C1553 1.396 . S
C1552 C1557 1.390 . S
C1553 C1547 1.465 . S
C1553 C1552 1.396 . S
C1553 C1554 1.399 . S
C1554 H1540 0.929 . S
C1554 C1553 1.399 . S
C1554 C1555 1.385 . S
C1555 H1541 0.931 . S
C1555 C1554 1.385 . S
C1555 C1556 1.389 . S
C1556 C1555 1.389 . S
C1556 C1557 1.387 . S
C1557 H1542 0.930 . S
C1557 C1552 1.390 . S
C1557 C1556 1.387 . S
H1558 C1570 0.930 . S
H1559 C1572 0.930 . S
H1560 C1573 0.930 . S
H1561 C1577 0.959 . S
H1562 C1577 0.959 . S
H1563 C1577 0.961 . S
H1564 C1578 0.960 . S
H1565 C1578 0.961 . S
H1566 C1578 0.959 . S
H1567 C1581 0.929 . S
H1568 C1582 0.931 . S
H1569 C1584 0.930 . S
C1570 H1558 0.930 . S
C1570 C1571 1.399 . S
C1570 C1575 1.399 . S
C1571 C1570 1.399 . S
C1571 C1572 1.376 . S
C1572 H1559 0.930 . S
C1572 C1571 1.376 . S
C1572 C1573 1.388 . S
C1573 H1560 0.930 . S
C1573 C1572 1.388 . S
C1573 C1574 1.390 . S
C1574 C1573 1.390 . S
C1574 C1575 1.394 . S
C1574 C1580 1.465 . S
C1575 C1570 1.399 . S
C1575 C1574 1.394 . S
C1575 C1576 1.516 . S
C1576 C1575 1.516 . S
C1576 C1577 1.502 . S
C1576 C1578 1.561 . S
C1576 C1579 1.526 . S
C1577 H1561 0.959 . S
C1577 H1562 0.959 . S
C1577 H1563 0.961 . S
C1577 C1576 1.502 . S
C1578 H1564 0.960 . S
C1578 H1565 0.961 . S
C1578 H1566 0.959 . S
C1578 C1576 1.561 . S
C1579 C1576 1.526 . S
C1579 C1580 1.396 . S
C1579 C1584 1.390 . S
C1580 C1574 1.465 . S
C1580 C1579 1.396 . S
C1580 C1581 1.399 . S
C1581 H1567 0.929 . S
C1581 C1580 1.399 . S
C1581 C1582 1.385 . S
C1582 H1568 0.931 . S
C1582 C1581 1.385 . S
C1582 C1583 1.389 . S
C1583 C1582 1.389 . S
C1583 C1584 1.387 . S
C1584 H1569 0.930 . S
C1584 C1579 1.390 . S
C1584 C1583 1.387 . S
H1585 C1597 0.930 . S
H1586 C1599 0.930 . S
H1587 C1600 0.930 . S
H1588 C1604 0.959 . S
H1589 C1604 0.959 . S
H1590 C1604 0.961 . S
H1591 C1605 0.960 . S
H1592 C1605 0.961 . S
H1593 C1605 0.959 . S
H1594 C1608 0.929 . S
H1595 C1609 0.931 . S
H1596 C1611 0.930 . S
C1597 H1585 0.930 . S
C1597 C1598 1.399 . S
C1597 C1602 1.399 . S
C1598 C1597 1.399 . S
C1598 C1599 1.376 . S
C1599 H1586 0.930 . S
C1599 C1598 1.376 . S
C1599 C1600 1.388 . S
C1600 H1587 0.930 . S
C1600 C1599 1.388 . S
C1600 C1601 1.390 . S
C1601 C1600 1.390 . S
C1601 C1602 1.394 . S
C1601 C1607 1.465 . S
C1602 C1597 1.399 . S
C1602 C1601 1.394 . S
C1602 C1603 1.516 . S
C1603 C1602 1.516 . S
C1603 C1604 1.502 . S
C1603 C1605 1.561 . S
C1603 C1606 1.526 . S
C1604 H1588 0.959 . S
C1604 H1589 0.959 . S
C1604 H1590 0.961 . S
C1604 C1603 1.502 . S
C1605 H1591 0.960 . S
C1605 H1592 0.961 . S
C1605 H1593 0.959 . S
C1605 C1603 1.561 . S
C1606 C1603 1.526 . S
C1606 C1607 1.396 . S
C1606 C1611 1.390 . S
C1607 C1601 1.465 . S
C1607 C1606 1.396 . S
C1607 C1608 1.399 . S
C1608 H1594 0.929 . S
C1608 C1607 1.399 . S
C1608 C1609 1.385 . S
C1609 H1595 0.931 . S
C1609 C1608 1.385 . S
C1609 C1610 1.389 . S
C1610 C1609 1.389 . S
C1610 C1611 1.387 . S
C1611 H1596 0.930 . S
C1611 C1606 1.390 . S
C1611 C1610 1.387 . S
H1612 C1624 0.930 . S
H1613 C1626 0.930 . S
H1614 C1627 0.930 . S
H1615 C1631 0.959 . S
H1616 C1631 0.959 . S
H1617 C1631 0.961 . S
H1618 C1632 0.960 . S
H1619 C1632 0.961 . S
H1620 C1632 0.959 . S
H1621 C1635 0.929 . S
H1622 C1636 0.931 . S
H1623 C1638 0.930 . S
C1624 H1612 0.930 . S
C1624 C1625 1.399 . S
C1624 C1629 1.399 . S
C1625 C1624 1.399 . S
C1625 C1626 1.376 . S
C1626 H1613 0.930 . S
C1626 C1625 1.376 . S
C1626 C1627 1.388 . S
C1627 H1614 0.930 . S
C1627 C1626 1.388 . S
C1627 C1628 1.390 . S
C1628 C1627 1.390 . S
C1628 C1629 1.394 . S
C1628 C1634 1.465 . S
C1629 C1624 1.399 . S
C1629 C1628 1.394 . S
C1629 C1630 1.516 . S
C1630 C1629 1.516 . S
C1630 C1631 1.502 . S
C1630 C1632 1.561 . S
C1630 C1633 1.526 . S
C1631 H1615 0.959 . S
C1631 H1616 0.959 . S
C1631 H1617 0.961 . S
C1631 C1630 1.502 . S
C1632 H1618 0.960 . S
C1632 H1619 0.961 . S
C1632 H1620 0.959 . S
C1632 C1630 1.561 . S
C1633 C1630 1.526 . S
C1633 C1634 1.396 . S
C1633 C1638 1.390 . S
C1634 C1628 1.465 . S
C1634 C1633 1.396 . S
C1634 C1635 1.399 . S
C1635 H1621 0.929 . S
C1635 C1634 1.399 . S
C1635 C1636 1.385 . S
C1636 H1622 0.931 . S
C1636 C1635 1.385 . S
C1636 C1637 1.389 . S
C1637 C1636 1.389 . S
C1637 C1638 1.387 . S
C1638 H1623 0.930 . S
C1638 C1633 1.390 . S
C1638 C1637 1.387 . S
H1639 C1651 0.930 . S
H1640 C1653 0.930 . S
H1641 C1654 0.930 . S
H1642 C1658 0.959 . S
H1643 C1658 0.959 . S
H1644 C1658 0.961 . S
H1645 C1659 0.960 . S
H1646 C1659 0.961 . S
H1647 C1659 0.959 . S
H1648 C1662 0.929 . S
H1649 C1663 0.931 . S
H1650 C1665 0.930 . S
C1651 H1639 0.930 . S
C1651 C1652 1.399 . S
C1651 C1656 1.399 . S
C1652 C1651 1.399 . S
C1652 C1653 1.376 . S
C1653 H1640 0.930 . S
C1653 C1652 1.376 . S
C1653 C1654 1.388 . S
C1654 H1641 0.930 . S
C1654 C1653 1.388 . S
C1654 C1655 1.390 . S
C1655 C1654 1.390 . S
C1655 C1656 1.394 . S
C1655 C1661 1.465 . S
C1656 C1651 1.399 . S
C1656 C1655 1.394 . S
C1656 C1657 1.516 . S
C1657 C1656 1.516 . S
C1657 C1658 1.502 . S
C1657 C1659 1.561 . S
C1657 C1660 1.526 . S
C1658 H1642 0.959 . S
C1658 H1643 0.959 . S
C1658 H1644 0.961 . S
C1658 C1657 1.502 . S
C1659 H1645 0.960 . S
C1659 H1646 0.961 . S
C1659 H1647 0.959 . S
C1659 C1657 1.561 . S
C1660 C1657 1.526 . S
C1660 C1661 1.396 . S
C1660 C1665 1.390 . S
C1661 C1655 1.465 . S
C1661 C1660 1.396 . S
C1661 C1662 1.399 . S
C1662 H1648 0.929 . S
C1662 C1661 1.399 . S
C1662 C1663 1.385 . S
C1663 H1649 0.931 . S
C1663 C1662 1.385 . S
C1663 C1664 1.389 . S
C1664 C1663 1.389 . S
C1664 C1665 1.387 . S
C1665 H1650 0.930 . S
C1665 C1660 1.390 . S
C1665 C1664 1.387 . S
H1666 C1678 0.930 . S
H1667 C1680 0.930 . S
H1668 C1681 0.930 . S
H1669 C1685 0.959 . S
H1670 C1685 0.959 . S
H1671 C1685 0.961 . S
H1672 C1686 0.960 . S
H1673 C1686 0.961 . S
H1674 C1686 0.959 . S
H1675 C1689 0.929 . S
H1676 C1690 0.931 . S
H1677 C1692 0.930 . S
C1678 H1666 0.930 . S
C1678 C1679 1.399 . S
C1678 C1683 1.399 . S
C1679 C1678 1.399 . S
C1679 C1680 1.376 . S
C1680 H1667 0.930 . S
C1680 C1679 1.376 . S
C1680 C1681 1.388 . S
C1681 H1668 0.930 . S
C1681 C1680 1.388 . S
C1681 C1682 1.390 . S
C1682 C1681 1.390 . S
C1682 C1683 1.394 . S
C1682 C1688 1.465 . S
C1683 C1678 1.399 . S
C1683 C1682 1.394 . S
C1683 C1684 1.516 . S
C1684 C1683 1.516 . S
C1684 C1685 1.502 . S
C1684 C1686 1.561 . S
C1684 C1687 1.526 . S
C1685 H1669 0.959 . S
C1685 H1670 0.959 . S
C1685 H1671 0.961 . S
C1685 C1684 1.502 . S
C1686 H1672 0.960 . S
C1686 H1673 0.961 . S
C1686 H1674 0.959 . S
C1686 C1684 1.561 . S
C1687 C1684 1.526 . S
C1687 C1688 1.396 . S
C1687 C1692 1.390 . S
C1688 C1682 1.465 . S
C1688 C1687 1.396 . S
C1688 C1689 1.399 . S
C1689 H1675 0.929 . S
C1689 C1688 1.399 . S
C1689 C1690 1.385 . S
C1690 H1676 0.931 . S
C1690 C1689 1.385 . S
C1690 C1691 1.389 . S
C1691 C1690 1.389 . S
C1691 C1692 1.387 . S
C1692 H1677 0.930 . S
C1692 C1687 1.390 . S
C1692 C1691 1.387 . S
H1693 C1705 0.930 . S
H1694 C1707 0.930 . S
H1695 C1708 0.930 . S
H1696 C1712 0.959 . S
H1697 C1712 0.959 . S
H1698 C1712 0.961 . S
H1699 C1713 0.960 . S
H1700 C1713 0.961 . S
H1701 C1713 0.959 . S
H1702 C1716 0.929 . S
H1703 C1717 0.931 . S
H1704 C1719 0.930 . S
C1705 H1693 0.930 . S
C1705 C1706 1.399 . S
C1705 C1710 1.399 . S
C1706 C1705 1.399 . S
C1706 C1707 1.376 . S
C1707 H1694 0.930 . S
C1707 C1706 1.376 . S
C1707 C1708 1.388 . S
C1708 H1695 0.930 . S
C1708 C1707 1.388 . S
C1708 C1709 1.390 . S
C1709 C1708 1.390 . S
C1709 C1710 1.394 . S
C1709 C1715 1.465 . S
C1710 C1705 1.399 . S
C1710 C1709 1.394 . S
C1710 C1711 1.516 . S
C1711 C1710 1.516 . S
C1711 C1712 1.502 . S
C1711 C1713 1.561 . S
C1711 C1714 1.526 . S
C1712 H1696 0.959 . S
C1712 H1697 0.959 . S
C1712 H1698 0.961 . S
C1712 C1711 1.502 . S
C1713 H1699 0.960 . S
C1713 H1700 0.961 . S
C1713 H1701 0.959 . S
C1713 C1711 1.561 . S
C1714 C1711 1.526 . S
C1714 C1715 1.396 . S
C1714 C1719 1.390 . S
C1715 C1709 1.465 . S
C1715 C1714 1.396 . S
C1715 C1716 1.399 . S
C1716 H1702 0.929 . S
C1716 C1715 1.399 . S
C1716 C1717 1.385 . S
C1717 H1703 0.931 . S
C1717 C1716 1.385 . S
C1717 C1718 1.389 . S
C1718 C1717 1.389 . S
C1718 C1719 1.387 . S
C1719 H1704 0.930 . S
C1719 C1714 1.390 . S
C1719 C1718 1.387 . S
H1720 C1732 0.930 . S
H1721 C1734 0.930 . S
H1722 C1735 0.930 . S
H1723 C1739 0.959 . S
H1724 C1739 0.959 . S
H1725 C1739 0.961 . S
H1726 C1740 0.960 . S
H1727 C1740 0.961 . S
H1728 C1740 0.959 . S
H1729 C1743 0.929 . S
H1730 C1744 0.931 . S
H1731 C1746 0.914 1_565 S
C1732 H1720 0.930 . S
C1732 C1733 1.399 1_565 S
C1732 C1737 1.399 . S
C1733 C1732 1.399 1_545 S
C1733 C1734 1.376 . S
C1734 H1721 0.930 . S
C1734 C1733 1.376 . S
C1734 C1735 1.388 . S
C1735 H1722 0.930 . S
C1735 C1734 1.388 . S
C1735 C1736 1.390 . S
C1736 C1735 1.390 . S
C1736 C1737 1.394 1_545 S
C1736 C1742 1.465 . S
C1737 C1732 1.399 . S
C1737 C1736 1.394 1_565 S
C1737 C1738 1.516 . S
C1738 C1737 1.516 . S
C1738 C1739 1.502 1_655 S
C1738 C1740 1.561 . S
C1738 C1741 1.526 1_565 S
C1739 H1723 0.959 . S
C1739 H1724 0.959 . S
C1739 H1725 0.961 . S
C1739 C1738 1.502 1_455 S
C1740 H1726 0.960 . S
C1740 H1727 0.961 . S
C1740 H1728 0.959 . S
C1740 C1738 1.561 . S
C1741 C1738 1.526 1_545 S
C1741 C1742 1.396 . S
C1741 C1746 1.390 1_655 S
C1742 C1736 1.465 . S
C1742 C1741 1.396 . S
C1742 C1743 1.399 . S
C1743 H1729 0.929 . S
C1743 C1742 1.399 . S
C1743 C1744 1.385 1_655 S
C1744 H1730 0.931 . S
C1744 C1743 1.385 1_455 S
C1744 C1745 1.389 . S
C1745 C1744 1.389 . S
C1745 C1746 1.402 . S
C1746 H1731 0.914 1_545 S
C1746 C1741 1.390 1_455 S
C1746 C1745 1.402 . S
H1747 C1759 0.930 . S
H1748 C1761 0.930 . S
H1749 C1762 0.930 . S
H1750 C1766 0.959 . S
H1751 C1766 0.959 . S
H1752 C1766 0.961 . S
H1753 C1767 0.960 . S
H1754 C1767 0.961 . S
H1755 C1767 0.959 . S
H1756 C1770 0.929 . S
H1757 C1771 0.931 . S
H1758 C1773 0.930 . S
C1759 H1747 0.930 . S
C1759 C1760 1.399 . S
C1759 C1764 1.399 . S
C1760 C1759 1.399 . S
C1760 C1761 1.376 . S
C1761 H1748 0.930 . S
C1761 C1760 1.376 . S
C1761 C1762 1.388 . S
C1762 H1749 0.930 . S
C1762 C1761 1.388 . S
C1762 C1763 1.390 . S
C1763 C1762 1.390 . S
C1763 C1764 1.394 . S
C1763 C1769 1.465 . S
C1764 C1759 1.399 . S
C1764 C1763 1.394 . S
C1764 C1765 1.516 . S
C1765 C1764 1.516 . S
C1765 C1766 1.502 . S
C1765 C1767 1.561 . S
C1765 C1768 1.526 . S
C1766 H1750 0.959 . S
C1766 H1751 0.959 . S
C1766 H1752 0.961 . S
C1766 C1765 1.502 . S
C1767 H1753 0.960 . S
C1767 H1754 0.961 . S
C1767 H1755 0.959 . S
C1767 C1765 1.561 . S
C1768 C1765 1.526 . S
C1768 C1769 1.396 . S
C1768 C1773 1.390 . S
C1769 C1763 1.465 . S
C1769 C1768 1.396 . S
C1769 C1770 1.399 . S
C1770 H1756 0.929 . S
C1770 C1769 1.399 . S
C1770 C1771 1.385 . S
C1771 H1757 0.931 . S
C1771 C1770 1.385 . S
C1771 C1772 1.389 . S
C1772 C1771 1.389 . S
C1772 C1773 1.387 . S
C1773 H1758 0.930 . S
C1773 C1768 1.390 . S
C1773 C1772 1.387 . S
H1774 C1786 0.930 . S
H1775 C1788 0.930 . S
H1776 C1789 0.930 . S
H1777 C1793 0.959 . S
H1778 C1793 0.959 . S
H1779 C1793 0.961 . S
H1780 C1794 0.960 . S
H1781 C1794 0.961 . S
H1782 C1794 0.959 . S
H1783 C1797 0.929 . S
H1784 C1798 0.931 . S
H1785 C1800 0.930 . S
C1786 H1774 0.930 . S
C1786 C1787 1.399 . S
C1786 C1791 1.399 . S
C1787 C1786 1.399 . S
C1787 C1788 1.376 1_545 S
C1788 H1775 0.930 . S
C1788 C1787 1.376 1_565 S
C1788 C1789 1.388 . S
C1789 H1776 0.930 . S
C1789 C1788 1.388 . S
C1789 C1790 1.390 1_565 S
C1790 C1789 1.390 1_545 S
C1790 C1791 1.394 . S
C1790 C1796 1.465 . S
C1791 C1786 1.399 . S
C1791 C1790 1.394 . S
C1791 C1792 1.516 . S
C1792 C1791 1.516 . S
C1792 C1793 1.502 . S
C1792 C1794 1.561 . S
C1792 C1795 1.526 . S
C1793 H1777 0.959 . S
C1793 H1778 0.959 . S
C1793 H1779 0.961 . S
C1793 C1792 1.502 . S
C1794 H1780 0.960 . S
C1794 H1781 0.961 . S
C1794 H1782 0.959 . S
C1794 C1792 1.561 . S
C1795 C1792 1.526 . S
C1795 C1796 1.396 . S
C1795 C1800 1.390 . S
C1796 C1790 1.465 . S
C1796 C1795 1.396 . S
C1796 C1797 1.399 1_545 S
C1797 H1783 0.929 . S
C1797 C1796 1.399 1_565 S
C1797 C1798 1.385 . S
C1798 H1784 0.931 . S
C1798 C1797 1.385 . S
C1798 C1799 1.389 1_565 S
C1799 C1798 1.389 1_545 S
C1799 C1800 1.387 . S
C1800 H1785 0.930 . S
C1800 C1795 1.390 . S
C1800 C1799 1.387 . S
H1801 C1813 0.930 . S
H1802 C1815 0.930 . S
H1803 C1816 0.930 . S
H1804 C1820 0.959 . S
H1805 C1820 0.959 . S
H1806 C1820 0.961 . S
H1807 C1821 0.960 . S
H1808 C1821 0.961 . S
H1809 C1821 0.959 . S
H1810 C1824 0.929 . S
H1811 C1825 0.931 . S
H1812 C1827 0.930 . S
C1813 H1801 0.930 . S
C1813 C1814 1.399 . S
C1813 C1818 1.399 . S
C1814 C1813 1.399 . S
C1814 C1815 1.376 . S
C1815 H1802 0.930 . S
C1815 C1814 1.376 . S
C1815 C1816 1.388 . S
C1816 H1803 0.930 . S
C1816 C1815 1.388 . S
C1816 C1817 1.390 . S
C1817 C1816 1.390 . S
C1817 C1818 1.394 . S
C1817 C1823 1.465 . S
C1818 C1813 1.399 . S
C1818 C1817 1.394 . S
C1818 C1819 1.516 . S
C1819 C1818 1.516 . S
C1819 C1820 1.502 . S
C1819 C1821 1.561 . S
C1819 C1822 1.526 . S
C1820 H1804 0.959 . S
C1820 H1805 0.959 . S
C1820 H1806 0.961 . S
C1820 C1819 1.502 . S
C1821 H1807 0.960 . S
C1821 H1808 0.961 . S
C1821 H1809 0.959 . S
C1821 C1819 1.561 . S
C1822 C1819 1.526 . S
C1822 C1823 1.396 . S
C1822 C1827 1.390 . S
C1823 C1817 1.465 . S
C1823 C1822 1.396 . S
C1823 C1824 1.399 . S
C1824 H1810 0.929 . S
C1824 C1823 1.399 . S
C1824 C1825 1.385 . S
C1825 H1811 0.931 . S
C1825 C1824 1.385 . S
C1825 C1826 1.389 . S
C1826 C1825 1.389 . S
C1826 C1827 1.387 . S
C1827 H1812 0.930 . S
C1827 C1822 1.390 . S
C1827 C1826 1.387 . S
H1828 C1840 0.930 . S
H1829 C1842 0.930 . S
H1830 C1843 0.930 . S
H1831 C1847 0.959 . S
H1832 C1847 0.959 . S
H1833 C1847 0.961 . S
H1834 C1848 0.960 . S
H1835 C1848 0.961 . S
H1836 C1848 0.959 . S
H1837 C1851 0.929 . S
H1838 C1852 0.931 . S
H1839 C1854 0.930 . S
C1840 H1828 0.930 . S
C1840 C1841 1.399 . S
C1840 C1845 1.399 . S
C1841 C1840 1.399 . S
C1841 C1842 1.376 1_545 S
C1842 H1829 0.930 . S
C1842 C1841 1.376 1_565 S
C1842 C1843 1.388 . S
C1843 H1830 0.930 . S
C1843 C1842 1.388 . S
C1843 C1844 1.390 1_565 S
C1844 C1843 1.390 1_545 S
C1844 C1845 1.394 . S
C1844 C1850 1.465 . S
C1845 C1840 1.399 . S
C1845 C1844 1.394 . S
C1845 C1846 1.524 . S
C1846 C1845 1.524 . S
C1846 C1847 1.481 1_655 S
C1846 C1848 1.577 . S
C1846 C1849 1.525 1_655 S
C1847 H1831 0.959 . S
C1847 H1832 0.959 . S
C1847 H1833 0.961 . S
C1847 C1846 1.481 1_455 S
C1848 H1834 0.960 . S
C1848 H1835 0.961 . S
C1848 H1836 0.959 . S
C1848 C1846 1.577 . S
C1849 C1846 1.525 1_455 S
C1849 C1850 1.391 1_455 S
C1849 C1854 1.394 . S
C1850 C1844 1.465 . S
C1850 C1849 1.391 1_655 S
C1850 C1851 1.399 1_545 S
C1851 H1837 0.929 . S
C1851 C1850 1.399 1_565 S
C1851 C1852 1.385 . S
C1852 H1838 0.931 . S
C1852 C1851 1.385 . S
C1852 C1853 1.389 1_665 S
C1853 C1852 1.389 1_445 S
C1853 C1854 1.387 . S
C1854 H1839 0.930 . S
C1854 C1849 1.394 . S
C1854 C1853 1.387 . S
H1855 C1867 0.930 . S
H1856 C1869 0.930 . S
H1857 C1870 0.930 . S
H1858 C1874 0.959 . S
H1859 C1874 0.959 . S
H1860 C1874 0.961 . S
H1861 C1875 0.960 . S
H1862 C1875 0.961 . S
H1863 C1875 0.959 . S
H1864 C1878 0.929 . S
H1865 C1879 0.931 . S
H1866 C1881 0.930 . S
C1867 H1855 0.930 . S
C1867 C1868 1.399 . S
C1867 C1872 1.399 . S
C1868 C1867 1.399 . S
C1868 C1869 1.376 . S
C1869 H1856 0.930 . S
C1869 C1868 1.376 . S
C1869 C1870 1.388 . S
C1870 H1857 0.930 . S
C1870 C1869 1.388 . S
C1870 C1871 1.390 . S
C1871 C1870 1.390 . S
C1871 C1872 1.394 . S
C1871 C1877 1.465 . S
C1872 C1867 1.399 . S
C1872 C1871 1.394 . S
C1872 C1873 1.516 . S
C1873 C1872 1.516 . S
C1873 C1874 1.502 . S
C1873 C1875 1.561 . S
C1873 C1876 1.526 . S
C1874 H1858 0.959 . S
C1874 H1859 0.959 . S
C1874 H1860 0.961 . S
C1874 C1873 1.502 . S
C1875 H1861 0.960 . S
C1875 H1862 0.961 . S
C1875 H1863 0.959 . S
C1875 C1873 1.561 . S
C1876 C1873 1.526 . S
C1876 C1877 1.396 . S
C1876 C1881 1.390 . S
C1877 C1871 1.465 . S
C1877 C1876 1.396 . S
C1877 C1878 1.399 . S
C1878 H1864 0.929 . S
C1878 C1877 1.399 . S
C1878 C1879 1.385 . S
C1879 H1865 0.931 . S
C1879 C1878 1.385 . S
C1879 C1880 1.389 . S
C1880 C1879 1.389 . S
C1880 C1881 1.387 . S
C1881 H1866 0.930 . S
C1881 C1876 1.390 . S
C1881 C1880 1.387 . S
H1882 C1894 0.930 1_565 S
H1883 C1896 0.930 . S
H1884 C1897 0.930 . S
H1885 C1901 0.959 1_545 S
H1886 C1901 0.959 . S
H1887 C1901 0.961 . S
H1888 C1902 0.960 . S
H1889 C1902 0.961 . S
H1890 C1902 0.959 . S
H1891 C1905 0.929 . S
H1892 C1906 0.931 . S
H1893 C1908 0.930 . S
C1894 H1882 0.930 1_545 S
C1894 C1895 1.399 . S
C1894 C1899 1.399 . S
C1895 C1894 1.399 . S
C1895 C1896 1.376 . S
C1896 H1883 0.930 . S
C1896 C1895 1.376 . S
C1896 C1897 1.388 . S
C1897 H1884 0.930 . S
C1897 C1896 1.388 . S
C1897 C1898 1.390 . S
C1898 C1897 1.390 . S
C1898 C1899 1.394 . S
C1898 C1904 1.465 . S
C1899 C1894 1.399 . S
C1899 C1898 1.394 . S
C1899 C1900 1.516 . S
C1900 C1899 1.516 . S
C1900 C1901 1.502 1_545 S
C1900 C1902 1.561 1_545 S
C1900 C1903 1.526 . S
C1901 H1885 0.959 1_565 S
C1901 H1886 0.959 . S
C1901 H1887 0.961 . S
C1901 C1900 1.502 1_565 S
C1902 H1888 0.960 . S
C1902 H1889 0.961 . S
C1902 H1890 0.959 . S
C1902 C1900 1.561 1_565 S
C1903 C1900 1.526 . S
C1903 C1904 1.396 . S
C1903 C1908 1.390 . S
C1904 C1898 1.465 . S
C1904 C1903 1.396 . S
C1904 C1905 1.399 . S
C1905 H1891 0.929 . S
C1905 C1904 1.399 . S
C1905 C1906 1.385 . S
C1906 H1892 0.931 . S
C1906 C1905 1.385 . S
C1906 C1907 1.389 . S
C1907 C1906 1.389 . S
C1907 C1908 1.387 . S
C1908 H1893 0.930 . S
C1908 C1903 1.390 . S
C1908 C1907 1.387 . S
H1909 C1921 0.930 . S
H1910 C1923 0.930 . S
H1911 C1924 0.930 . S
H1912 C1928 0.959 . S
H1913 C1928 0.959 . S
H1914 C1928 0.961 . S
H1915 C1929 0.960 . S
H1916 C1929 0.961 . S
H1917 C1929 0.959 . S
H1918 C1932 0.929 . S
H1919 C1933 0.931 . S
H1920 C1935 0.930 . S
C1921 H1909 0.930 . S
C1921 C1922 1.399 . S
C1921 C1926 1.399 . S
C1922 C1921 1.399 . S
C1922 C1923 1.376 . S
C1923 H1910 0.930 . S
C1923 C1922 1.376 . S
C1923 C1924 1.388 . S
C1924 H1911 0.930 . S
C1924 C1923 1.388 . S
C1924 C1925 1.390 . S
C1925 C1924 1.390 . S
C1925 C1926 1.394 . S
C1925 C1931 1.465 . S
C1926 C1921 1.399 . S
C1926 C1925 1.394 . S
C1926 C1927 1.516 . S
C1927 C1926 1.516 . S
C1927 C1928 1.502 . S
C1927 C1929 1.561 . S
C1927 C1930 1.526 . S
C1928 H1912 0.959 . S
C1928 H1913 0.959 . S
C1928 H1914 0.961 . S
C1928 C1927 1.502 . S
C1929 H1915 0.960 . S
C1929 H1916 0.961 . S
C1929 H1917 0.959 . S
C1929 C1927 1.561 . S
C1930 C1927 1.526 . S
C1930 C1931 1.396 . S
C1930 C1935 1.390 . S
C1931 C1925 1.465 . S
C1931 C1930 1.396 . S
C1931 C1932 1.399 . S
C1932 H1918 0.929 . S
C1932 C1931 1.399 . S
C1932 C1933 1.385 . S
C1933 H1919 0.931 . S
C1933 C1932 1.385 . S
C1933 C1934 1.389 . S
C1934 C1933 1.389 . S
C1934 C1935 1.387 . S
C1935 H1920 0.930 . S
C1935 C1930 1.390 . S
C1935 C1934 1.387 . S
H1936 C1948 0.930 . S
H1937 C1950 0.930 . S
H1938 C1951 0.930 . S
H1939 C1955 0.959 . S
H1940 C1955 0.959 . S
H1941 C1955 0.961 . S
H1942 C1956 0.960 . S
H1943 C1956 0.961 . S
H1944 C1956 0.959 . S
H1945 C1959 0.929 . S
H1946 C1960 0.931 . S
H1947 C1962 0.930 . S
C1948 H1936 0.930 . S
C1948 C1949 1.399 . S
C1948 C1953 1.399 . S
C1949 C1948 1.399 . S
C1949 C1950 1.376 1_554 S
C1950 H1937 0.930 . S
C1950 C1949 1.376 1_556 S
C1950 C1951 1.388 . S
C1951 H1938 0.930 . S
C1951 C1950 1.388 . S
C1951 C1952 1.390 1_556 S
C1952 C1951 1.390 1_554 S
C1952 C1953 1.394 . S
C1952 C1958 1.465 . S
C1953 C1948 1.399 . S
C1953 C1952 1.394 . S
C1953 C1954 1.516 . S
C1954 C1953 1.516 . S
C1954 C1955 1.502 . S
C1954 C1956 1.561 . S
C1954 C1957 1.526 . S
C1955 H1939 0.959 . S
C1955 H1940 0.959 . S
C1955 H1941 0.961 . S
C1955 C1954 1.502 . S
C1956 H1942 0.960 . S
C1956 H1943 0.961 . S
C1956 H1944 0.959 . S
C1956 C1954 1.561 . S
C1957 C1954 1.526 . S
C1957 C1958 1.396 . S
C1957 C1962 1.390 . S
C1958 C1952 1.465 . S
C1958 C1957 1.396 . S
C1958 C1959 1.399 . S
C1959 H1945 0.929 . S
C1959 C1958 1.399 . S
C1959 C1960 1.385 . S
C1960 H1946 0.931 . S
C1960 C1959 1.385 . S
C1960 C1961 1.389 . S
C1961 C1960 1.389 . S
C1961 C1962 1.387 . S
C1962 H1947 0.930 . S
C1962 C1957 1.390 . S
C1962 C1961 1.387 . S
H1963 C1975 0.930 . S
H1964 C1977 0.930 . S
H1965 C1978 0.930 . S
H1966 C1982 0.959 1_554 S
H1967 C1982 0.959 . S
H1968 C1982 0.961 . S
H1969 C1983 0.960 . S
H1970 C1983 0.961 . S
H1971 C1983 0.959 . S
H1972 C1986 0.929 . S
H1973 C1987 0.931 . S
H1974 C1989 0.930 . S
C1975 H1963 0.930 . S
C1975 C1976 1.399 . S
C1975 C1980 1.399 . S
C1976 C1975 1.399 . S
C1976 C1977 1.376 . S
C1977 H1964 0.930 . S
C1977 C1976 1.376 . S
C1977 C1978 1.388 . S
C1978 H1965 0.930 . S
C1978 C1977 1.388 . S
C1978 C1979 1.390 . S
C1979 C1978 1.390 . S
C1979 C1980 1.394 . S
C1979 C1985 1.465 . S
C1980 C1975 1.399 . S
C1980 C1979 1.394 . S
C1980 C1981 1.516 . S
C1981 C1980 1.516 . S
C1981 C1982 1.502 1_554 S
C1981 C1983 1.561 1_554 S
C1981 C1984 1.526 . S
C1982 H1966 0.959 1_556 S
C1982 H1967 0.959 . S
C1982 H1968 0.961 . S
C1982 C1981 1.502 1_556 S
C1983 H1969 0.960 . S
C1983 H1970 0.961 . S
C1983 H1971 0.959 . S
C1983 C1981 1.561 1_556 S
C1984 C1981 1.526 . S
C1984 C1985 1.396 . S
C1984 C1989 1.390 . S
C1985 C1979 1.465 . S
C1985 C1984 1.396 . S
C1985 C1986 1.399 . S
C1986 H1972 0.929 . S
C1986 C1985 1.399 . S
C1986 C1987 1.385 . S
C1987 H1973 0.931 . S
C1987 C1986 1.385 . S
C1987 C1988 1.389 . S
C1988 C1987 1.389 . S
C1988 C1989 1.387 . S
C1989 H1974 0.930 . S
C1989 C1984 1.390 . S
C1989 C1988 1.387 . S
H1990 C2002 0.930 . S
H1991 C2004 0.930 . S
H1992 C2005 0.930 . S
H1993 C2009 0.959 . S
H1994 C2009 0.959 . S
H1995 C2009 0.961 . S
H1996 C2010 0.960 . S
H1997 C2010 0.961 . S
H1998 C2010 0.959 . S
H1999 C2013 0.929 . S
H2000 C2014 0.931 . S
H2001 C2016 0.930 . S
C2002 H1990 0.930 . S
C2002 C2003 1.399 . S
C2002 C2007 1.399 . S
C2003 C2002 1.399 . S
C2003 C2004 1.376 . S
C2004 H1991 0.930 . S
C2004 C2003 1.376 . S
C2004 C2005 1.388 . S
C2005 H1992 0.930 . S
C2005 C2004 1.388 . S
C2005 C2006 1.390 . S
C2006 C2005 1.390 . S
C2006 C2007 1.394 . S
C2006 C2012 1.465 . S
C2007 C2002 1.399 . S
C2007 C2006 1.394 . S
C2007 C2008 1.516 . S
C2008 C2007 1.516 . S
C2008 C2009 1.502 . S
C2008 C2010 1.561 . S
C2008 C2011 1.526 . S
C2009 H1993 0.959 . S
C2009 H1994 0.959 . S
C2009 H1995 0.961 . S
C2009 C2008 1.502 . S
C2010 H1996 0.960 . S
C2010 H1997 0.961 . S
C2010 H1998 0.959 . S
C2010 C2008 1.561 . S
C2011 C2008 1.526 . S
C2011 C2012 1.396 . S
C2011 C2016 1.390 . S
C2012 C2006 1.465 . S
C2012 C2011 1.396 . S
C2012 C2013 1.399 . S
C2013 H1999 0.929 . S
C2013 C2012 1.399 . S
C2013 C2014 1.385 . S
C2014 H2000 0.931 . S
C2014 C2013 1.385 . S
C2014 C2015 1.389 . S
C2015 C2014 1.389 . S
C2015 C2016 1.387 . S
C2016 H2001 0.930 . S
C2016 C2011 1.390 . S
C2016 C2015 1.387 . S
H2017 C2029 0.930 . S
H2018 C2031 0.930 . S
H2019 C2032 0.930 . S
H2020 C2036 0.959 . S
H2021 C2036 0.959 . S
H2022 C2036 0.961 . S
H2023 C2037 0.960 . S
H2024 C2037 0.961 . S
H2025 C2037 0.959 . S
H2026 C2040 0.929 . S
H2027 C2041 0.931 . S
H2028 C2043 0.930 . S
C2029 H2017 0.930 . S
C2029 C2030 1.399 . S
C2029 C2034 1.399 . S
C2030 C2029 1.399 . S
C2030 C2031 1.376 . S
C2031 H2018 0.930 . S
C2031 C2030 1.376 . S
C2031 C2032 1.388 . S
C2032 H2019 0.930 . S
C2032 C2031 1.388 . S
C2032 C2033 1.390 . S
C2033 C2032 1.390 . S
C2033 C2034 1.394 . S
C2033 C2039 1.465 . S
C2034 C2029 1.399 . S
C2034 C2033 1.394 . S
C2034 C2035 1.516 . S
C2035 C2034 1.516 . S
C2035 C2036 1.502 . S
C2035 C2037 1.561 . S
C2035 C2038 1.526 . S
C2036 H2020 0.959 . S
C2036 H2021 0.959 . S
C2036 H2022 0.961 . S
C2036 C2035 1.502 . S
C2037 H2023 0.960 . S
C2037 H2024 0.961 . S
C2037 H2025 0.959 . S
C2037 C2035 1.561 . S
C2038 C2035 1.526 . S
C2038 C2039 1.396 . S
C2038 C2043 1.390 . S
C2039 C2033 1.465 . S
C2039 C2038 1.396 . S
C2039 C2040 1.399 . S
C2040 H2026 0.929 . S
C2040 C2039 1.399 . S
C2040 C2041 1.385 . S
C2041 H2027 0.931 . S
C2041 C2040 1.385 . S
C2041 C2042 1.389 . S
C2042 C2041 1.389 . S
C2042 C2043 1.387 . S
C2043 H2028 0.930 . S
C2043 C2038 1.390 . S
C2043 C2042 1.387 . S
H2044 C2056 0.930 . S
H2045 C2058 0.930 . S
H2046 C2059 0.930 . S
H2047 C2063 0.959 . S
H2048 C2063 0.959 . S
H2049 C2063 0.961 . S
H2050 C2064 0.960 . S
H2051 C2064 0.961 . S
H2052 C2064 0.959 . S
H2053 C2067 0.929 . S
H2054 C2068 0.931 . S
H2055 C2070 0.930 . S
C2056 H2044 0.930 . S
C2056 C2057 1.399 . S
C2056 C2061 1.399 . S
C2057 C2056 1.399 . S
C2057 C2058 1.376 . S
C2058 H2045 0.930 . S
C2058 C2057 1.376 . S
C2058 C2059 1.388 . S
C2059 H2046 0.930 . S
C2059 C2058 1.388 . S
C2059 C2060 1.390 . S
C2060 C2059 1.390 . S
C2060 C2061 1.394 . S
C2060 C2066 1.465 . S
C2061 C2056 1.399 . S
C2061 C2060 1.394 . S
C2061 C2062 1.516 . S
C2062 C2061 1.516 . S
C2062 C2063 1.502 . S
C2062 C2064 1.561 . S
C2062 C2065 1.526 . S
C2063 H2047 0.959 . S
C2063 H2048 0.959 . S
C2063 H2049 0.961 . S
C2063 C2062 1.502 . S
C2064 H2050 0.960 . S
C2064 H2051 0.961 . S
C2064 H2052 0.959 . S
C2064 C2062 1.561 . S
C2065 C2062 1.526 . S
C2065 C2066 1.396 . S
C2065 C2070 1.390 . S
C2066 C2060 1.465 . S
C2066 C2065 1.396 . S
C2066 C2067 1.399 . S
C2067 H2053 0.929 . S
C2067 C2066 1.399 . S
C2067 C2068 1.385 . S
C2068 H2054 0.931 . S
C2068 C2067 1.385 . S
C2068 C2069 1.389 . S
C2069 C2068 1.389 . S
C2069 C2070 1.387 . S
C2070 H2055 0.930 . S
C2070 C2065 1.390 . S
C2070 C2069 1.387 . S
H2071 C2083 0.930 . S
H2072 C2085 0.930 . S
H2073 C2086 0.930 . S
H2074 C2090 0.959 . S
H2075 C2090 0.959 . S
H2076 C2090 0.961 . S
H2077 C2091 0.960 . S
H2078 C2091 0.961 . S
H2079 C2091 0.959 . S
H2080 C2094 0.929 . S
H2081 C2095 0.931 . S
H2082 C2097 0.930 . S
C2083 H2071 0.930 . S
C2083 C2084 1.399 . S
C2083 C2088 1.399 . S
C2084 C2083 1.399 . S
C2084 C2085 1.376 . S
C2085 H2072 0.930 . S
C2085 C2084 1.376 . S
C2085 C2086 1.388 . S
C2086 H2073 0.930 . S
C2086 C2085 1.388 . S
C2086 C2087 1.390 . S
C2087 C2086 1.390 . S
C2087 C2088 1.394 . S
C2087 C2093 1.465 . S
C2088 C2083 1.399 . S
C2088 C2087 1.394 . S
C2088 C2089 1.516 . S
C2089 C2088 1.516 . S
C2089 C2090 1.502 . S
C2089 C2091 1.561 . S
C2089 C2092 1.526 . S
C2090 H2074 0.959 . S
C2090 H2075 0.959 . S
C2090 H2076 0.961 . S
C2090 C2089 1.502 . S
C2091 H2077 0.960 . S
C2091 H2078 0.961 . S
C2091 H2079 0.959 . S
C2091 C2089 1.561 . S
C2092 C2089 1.526 . S
C2092 C2093 1.396 . S
C2092 C2097 1.390 . S
C2093 C2087 1.465 . S
C2093 C2092 1.396 . S
C2093 C2094 1.399 . S
C2094 H2080 0.929 . S
C2094 C2093 1.399 . S
C2094 C2095 1.385 . S
C2095 H2081 0.931 . S
C2095 C2094 1.385 . S
C2095 C2096 1.389 . S
C2096 C2095 1.389 . S
C2096 C2097 1.387 . S
C2097 H2082 0.930 . S
C2097 C2092 1.390 . S
C2097 C2096 1.387 . S
H2098 C2110 0.930 . S
H2099 C2112 0.930 . S
H2100 C2113 0.930 . S
H2101 C2117 0.959 . S
H2102 C2117 0.959 . S
H2103 C2117 0.961 . S
H2104 C2118 0.960 . S
H2105 C2118 0.961 . S
H2106 C2118 0.959 . S
H2107 C2121 0.929 . S
H2108 C2122 0.931 . S
H2109 C2124 0.930 . S
C2110 H2098 0.930 . S
C2110 C2111 1.399 . S
C2110 C2115 1.399 . S
C2111 C2110 1.399 . S
C2111 C2112 1.376 . S
C2112 H2099 0.930 . S
C2112 C2111 1.376 . S
C2112 C2113 1.388 . S
C2113 H2100 0.930 . S
C2113 C2112 1.388 . S
C2113 C2114 1.390 . S
C2114 C2113 1.390 . S
C2114 C2115 1.394 . S
C2114 C2120 1.465 . S
C2115 C2110 1.399 . S
C2115 C2114 1.394 . S
C2115 C2116 1.516 . S
C2116 C2115 1.516 . S
C2116 C2117 1.502 . S
C2116 C2118 1.561 . S
C2116 C2119 1.526 . S
C2117 H2101 0.959 . S
C2117 H2102 0.959 . S
C2117 H2103 0.961 . S
C2117 C2116 1.502 . S
C2118 H2104 0.960 . S
C2118 H2105 0.961 . S
C2118 H2106 0.959 . S
C2118 C2116 1.561 . S
C2119 C2116 1.526 . S
C2119 C2120 1.396 . S
C2119 C2124 1.390 . S
C2120 C2114 1.465 . S
C2120 C2119 1.396 . S
C2120 C2121 1.399 . S
C2121 H2107 0.929 . S
C2121 C2120 1.399 . S
C2121 C2122 1.385 . S
C2122 H2108 0.931 . S
C2122 C2121 1.385 . S
C2122 C2123 1.389 . S
C2123 C2122 1.389 . S
C2123 C2124 1.387 . S
C2124 H2109 0.930 . S
C2124 C2119 1.390 . S
C2124 C2123 1.387 . S
H2125 C2137 0.930 . S
H2126 C2139 0.930 . S
H2127 C2140 0.930 . S
H2128 C2144 0.959 . S
H2129 C2144 0.959 . S
H2130 C2144 0.961 . S
H2131 C2145 0.960 . S
H2132 C2145 0.961 . S
H2133 C2145 0.959 . S
H2134 C2148 0.929 . S
H2135 C2149 0.931 . S
H2136 C2151 0.930 . S
C2137 H2125 0.930 . S
C2137 C2138 1.399 . S
C2137 C2142 1.399 . S
C2138 C2137 1.399 . S
C2138 C2139 1.376 . S
C2139 H2126 0.930 . S
C2139 C2138 1.376 . S
C2139 C2140 1.388 . S
C2140 H2127 0.930 . S
C2140 C2139 1.388 . S
C2140 C2141 1.390 . S
C2141 C2140 1.390 . S
C2141 C2142 1.394 . S
C2141 C2147 1.465 . S
C2142 C2137 1.399 . S
C2142 C2141 1.394 . S
C2142 C2143 1.516 . S
C2143 C2142 1.516 . S
C2143 C2144 1.502 . S
C2143 C2145 1.561 . S
C2143 C2146 1.526 . S
C2144 H2128 0.959 . S
C2144 H2129 0.959 . S
C2144 H2130 0.961 . S
C2144 C2143 1.502 . S
C2145 H2131 0.960 . S
C2145 H2132 0.961 . S
C2145 H2133 0.959 . S
C2145 C2143 1.561 . S
C2146 C2143 1.526 . S
C2146 C2147 1.396 . S
C2146 C2151 1.390 . S
C2147 C2141 1.465 . S
C2147 C2146 1.396 . S
C2147 C2148 1.399 . S
C2148 H2134 0.929 . S
C2148 C2147 1.399 . S
C2148 C2149 1.385 . S
C2149 H2135 0.931 . S
C2149 C2148 1.385 . S
C2149 C2150 1.389 . S
C2150 C2149 1.389 . S
C2150 C2151 1.387 . S
C2151 H2136 0.930 . S
C2151 C2146 1.390 . S
C2151 C2150 1.387 . S
H2152 C2164 0.930 . S
H2153 C2166 0.930 . S
H2154 C2167 0.930 . S
H2155 C2171 0.959 . S
H2156 C2171 0.959 . S
H2157 C2171 0.961 . S
H2158 C2172 0.960 . S
H2159 C2172 0.961 . S
H2160 C2172 0.990 . S
H2161 C2175 0.929 . S
H2162 C2176 0.931 . S
H2163 C2178 0.930 . S
C2164 H2152 0.930 . S
C2164 C2165 1.399 . S
C2164 C2169 1.399 . S
C2165 C2164 1.399 . S
C2165 C2166 1.376 . S
C2166 H2153 0.930 . S
C2166 C2165 1.376 . S
C2166 C2167 1.388 . S
C2167 H2154 0.930 . S
C2167 C2166 1.388 . S
C2167 C2168 1.390 . S
C2168 C2167 1.390 . S
C2168 C2169 1.394 . S
C2168 C2174 1.465 . S
C2169 C2164 1.399 . S
C2169 C2168 1.394 . S
C2169 C2170 1.516 . S
C2170 C2169 1.516 . S
C2170 C2171 1.502 . S
C2170 C2172 1.561 . S
C2170 C2173 1.526 . S
C2171 H2155 0.959 . S
C2171 H2156 0.959 . S
C2171 H2157 0.961 . S
C2171 C2170 1.502 . S
C2172 H2158 0.960 . S
C2172 H2159 0.961 . S
C2172 H2160 0.990 . S
C2172 C2170 1.561 . S
C2173 C2170 1.526 . S
C2173 C2174 1.396 . S
C2173 C2178 1.390 . S
C2174 C2168 1.465 . S
C2174 C2173 1.396 . S
C2174 C2175 1.399 . S
C2175 H2161 0.929 . S
C2175 C2174 1.399 . S
C2175 C2176 1.385 . S
C2176 H2162 0.931 . S
C2176 C2175 1.385 . S
C2176 C2177 1.389 . S
C2177 C2176 1.389 . S
C2177 C2178 1.387 . S
C2178 H2163 0.930 . S
C2178 C2173 1.390 . S
C2178 C2177 1.387 . S
H2179 C2191 0.930 . S
H2180 C2193 0.930 . S
H2181 C2194 0.930 . S
H2182 C2198 0.959 . S
H2183 C2198 0.959 . S
H2184 C2198 0.961 . S
H2185 C2199 0.960 . S
H2186 C2199 0.961 . S
H2187 C2199 0.959 . S
H2188 C2202 0.929 . S
H2189 C2203 0.931 . S
H2190 C2205 0.930 . S
C2191 H2179 0.930 . S
C2191 C2192 1.399 . S
C2191 C2196 1.399 . S
C2192 C2191 1.399 . S
C2192 C2193 1.376 . S
C2193 H2180 0.930 . S
C2193 C2192 1.376 . S
C2193 C2194 1.388 . S
C2194 H2181 0.930 . S
C2194 C2193 1.388 . S
C2194 C2195 1.390 . S
C2195 C2194 1.390 . S
C2195 C2196 1.394 . S
C2195 C2201 1.465 . S
C2196 C2191 1.399 . S
C2196 C2195 1.394 . S
C2196 C2197 1.516 . S
C2197 C2196 1.516 . S
C2197 C2198 1.502 . S
C2197 C2199 1.561 . S
C2197 C2200 1.526 . S
C2198 H2182 0.959 . S
C2198 H2183 0.959 . S
C2198 H2184 0.961 . S
C2198 C2197 1.502 . S
C2199 H2185 0.960 . S
C2199 H2186 0.961 . S
C2199 H2187 0.959 . S
C2199 C2197 1.561 . S
C2200 C2197 1.526 . S
C2200 C2201 1.396 . S
C2200 C2205 1.390 . S
C2201 C2195 1.465 . S
C2201 C2200 1.396 . S
C2201 C2202 1.399 . S
C2202 H2188 0.929 . S
C2202 C2201 1.399 . S
C2202 C2203 1.385 . S
C2203 H2189 0.931 . S
C2203 C2202 1.385 . S
C2203 C2204 1.389 . S
C2204 C2203 1.389 . S
C2204 C2205 1.387 . S
C2205 H2190 0.930 . S
C2205 C2200 1.390 . S
C2205 C2204 1.387 . S
H2206 C2218 0.930 . S
H2207 C2220 0.930 . S
H2208 C2221 0.930 . S
H2209 C2225 0.959 . S
H2210 C2225 0.959 . S
H2211 C2225 0.961 . S
H2212 C2226 0.960 . S
H2213 C2226 0.961 . S
H2214 C2226 0.959 . S
H2215 C2229 0.929 . S
H2216 C2230 0.931 . S
H2217 C2232 0.930 . S
C2218 H2206 0.930 . S
C2218 C2219 1.399 . S
C2218 C2223 1.399 . S
C2219 C2218 1.399 . S
C2219 C2220 1.376 . S
C2220 H2207 0.930 . S
C2220 C2219 1.376 . S
C2220 C2221 1.388 . S
C2221 H2208 0.930 . S
C2221 C2220 1.388 . S
C2221 C2222 1.390 . S
C2222 C2221 1.390 . S
C2222 C2223 1.394 . S
C2222 C2228 1.465 . S
C2223 C2218 1.399 . S
C2223 C2222 1.394 . S
C2223 C2224 1.516 . S
C2224 C2223 1.516 . S
C2224 C2225 1.502 . S
C2224 C2226 1.561 . S
C2224 C2227 1.526 . S
C2225 H2209 0.959 . S
C2225 H2210 0.959 . S
C2225 H2211 0.961 . S
C2225 C2224 1.502 . S
C2226 H2212 0.960 . S
C2226 H2213 0.961 . S
C2226 H2214 0.959 . S
C2226 C2224 1.561 . S
C2227 C2224 1.526 . S
C2227 C2228 1.396 . S
C2227 C2232 1.390 . S
C2228 C2222 1.465 . S
C2228 C2227 1.396 . S
C2228 C2229 1.399 . S
C2229 H2215 0.929 . S
C2229 C2228 1.399 . S
C2229 C2230 1.385 . S
C2230 H2216 0.931 . S
C2230 C2229 1.385 . S
C2230 C2231 1.389 . S
C2231 C2230 1.389 . S
C2231 C2232 1.387 . S
C2232 H2217 0.930 . S
C2232 C2227 1.390 . S
C2232 C2231 1.387 . S
H2233 C2245 0.930 . S
H2234 C2247 0.930 . S
H2235 C2248 0.930 . S
H2236 C2252 0.959 . S
H2237 C2252 0.959 . S
H2238 C2252 0.961 . S
H2239 C2253 0.960 . S
H2240 C2253 0.961 . S
H2241 C2253 0.959 . S
H2242 C2256 0.929 . S
H2243 C2257 0.931 . S
H2244 C2259 0.930 . S
C2245 H2233 0.930 . S
C2245 C2246 1.399 . S
C2245 C2250 1.399 . S
C2246 C2245 1.399 . S
C2246 C2247 1.376 . S
C2247 H2234 0.930 . S
C2247 C2246 1.376 . S
C2247 C2248 1.388 . S
C2248 H2235 0.930 . S
C2248 C2247 1.388 . S
C2248 C2249 1.390 . S
C2249 C2248 1.390 . S
C2249 C2250 1.394 . S
C2249 C2255 1.465 . S
C2250 C2245 1.399 . S
C2250 C2249 1.394 . S
C2250 C2251 1.516 . S
C2251 C2250 1.516 . S
C2251 C2252 1.502 . S
C2251 C2253 1.561 . S
C2251 C2254 1.526 . S
C2252 H2236 0.959 . S
C2252 H2237 0.959 . S
C2252 H2238 0.961 . S
C2252 C2251 1.502 . S
C2253 H2239 0.960 . S
C2253 H2240 0.961 . S
C2253 H2241 0.959 . S
C2253 C2251 1.561 . S
C2254 C2251 1.526 . S
C2254 C2255 1.396 . S
C2254 C2259 1.390 . S
C2255 C2249 1.465 . S
C2255 C2254 1.396 . S
C2255 C2256 1.399 . S
C2256 H2242 0.929 . S
C2256 C2255 1.399 . S
C2256 C2257 1.385 . S
C2257 H2243 0.931 . S
C2257 C2256 1.385 . S
C2257 C2258 1.389 . S
C2258 C2257 1.389 . S
C2258 C2259 1.387 . S
C2259 H2244 0.930 . S
C2259 C2254 1.390 . S
C2259 C2258 1.387 . S
H2260 C2272 0.930 . S
H2261 C2274 0.930 . S
H2262 C2275 0.930 . S
H2263 C2279 0.959 . S
H2264 C2279 0.959 . S
H2265 C2279 0.961 . S
H2266 C2280 0.960 . S
H2267 C2280 0.961 . S
H2268 C2280 0.959 . S
H2269 C2283 0.929 . S
H2270 C2284 0.931 . S
H2271 C2286 0.935 . S
C2272 H2260 0.930 . S
C2272 C2273 1.399 1_455 S
C2272 C2277 1.399 1_455 S
C2273 C2272 1.399 1_655 S
C2273 C2274 1.376 . S
C2274 H2261 0.930 . S
C2274 C2273 1.376 . S
C2274 C2275 1.388 . S
C2275 H2262 0.930 . S
C2275 C2274 1.388 . S
C2275 C2276 1.390 . S
C2276 C2275 1.390 . S
C2276 C2277 1.394 . S
C2276 C2282 1.465 . S
C2277 C2272 1.399 1_655 S
C2277 C2276 1.394 . S
C2277 C2278 1.516 1_655 S
C2278 C2277 1.516 1_455 S
C2278 C2279 1.502 . S
C2278 C2280 1.561 1_455 S
C2278 C2281 1.526 1_455 S
C2279 H2263 0.959 . S
C2279 H2264 0.959 . S
C2279 H2265 0.961 . S
C2279 C2278 1.502 . S
C2280 H2266 0.960 . S
C2280 H2267 0.961 . S
C2280 H2268 0.959 . S
C2280 C2278 1.561 1_655 S
C2281 C2278 1.526 1_655 S
C2281 C2282 1.396 . S
C2281 C2286 1.384 1_655 S
C2282 C2276 1.465 . S
C2282 C2281 1.396 . S
C2282 C2283 1.399 . S
C2283 H2269 0.929 . S
C2283 C2282 1.399 . S
C2283 C2284 1.385 . S
C2284 H2270 0.931 . S
C2284 C2283 1.385 . S
C2284 C2285 1.389 . S
C2285 C2284 1.389 . S
C2285 C2286 1.389 1_655 S
C2286 H2271 0.935 . S
C2286 C2281 1.384 1_455 S
C2286 C2285 1.389 1_455 S
H2287 C2299 0.930 . S
H2288 C2301 0.930 . S
H2289 C2302 0.930 . S
H2290 C2306 0.959 . S
H2291 C2306 0.959 . S
H2292 C2306 0.961 . S
H2293 C2307 0.960 . S
H2294 C2307 0.961 . S
H2295 C2307 0.959 . S
H2296 C2310 0.929 . S
H2297 C2311 0.931 . S
H2298 C2313 0.930 . S
C2299 H2287 0.930 . S
C2299 C2300 1.399 . S
C2299 C2304 1.399 . S
C2300 C2299 1.399 . S
C2300 C2301 1.376 . S
C2301 H2288 0.930 . S
C2301 C2300 1.376 . S
C2301 C2302 1.388 . S
C2302 H2289 0.930 . S
C2302 C2301 1.388 . S
C2302 C2303 1.390 . S
C2303 C2302 1.390 . S
C2303 C2304 1.394 . S
C2303 C2309 1.465 . S
C2304 C2299 1.399 . S
C2304 C2303 1.394 . S
C2304 C2305 1.516 . S
C2305 C2304 1.516 . S
C2305 C2306 1.502 . S
C2305 C2307 1.561 . S
C2305 C2308 1.526 . S
C2306 H2290 0.959 . S
C2306 H2291 0.959 . S
C2306 H2292 0.961 . S
C2306 C2305 1.502 . S
C2307 H2293 0.960 . S
C2307 H2294 0.961 . S
C2307 H2295 0.959 . S
C2307 C2305 1.561 . S
C2308 C2305 1.526 . S
C2308 C2309 1.396 . S
C2308 C2313 1.390 . S
C2309 C2303 1.465 . S
C2309 C2308 1.396 . S
C2309 C2310 1.399 . S
C2310 H2296 0.929 . S
C2310 C2309 1.399 . S
C2310 C2311 1.385 . S
C2311 H2297 0.931 . S
C2311 C2310 1.385 . S
C2311 C2312 1.389 . S
C2312 C2311 1.389 . S
C2312 C2313 1.387 . S
C2313 H2298 0.930 . S
C2313 C2308 1.390 . S
C2313 C2312 1.387 . S
H2314 C2326 0.930 . S
H2315 C2328 0.930 . S
H2316 C2329 0.930 . S
H2317 C2333 0.959 . S
H2318 C2333 0.959 . S
H2319 C2333 0.961 . S
H2320 C2334 0.960 . S
H2321 C2334 0.961 . S
H2322 C2334 0.959 . S
H2323 C2337 0.929 . S
H2324 C2338 0.931 . S
H2325 C2340 0.930 . S
C2326 H2314 0.930 . S
C2326 C2327 1.399 . S
C2326 C2331 1.399 . S
C2327 C2326 1.399 . S
C2327 C2328 1.376 . S
C2328 H2315 0.930 . S
C2328 C2327 1.376 . S
C2328 C2329 1.388 . S
C2329 H2316 0.930 . S
C2329 C2328 1.388 . S
C2329 C2330 1.390 . S
C2330 C2329 1.390 . S
C2330 C2331 1.394 . S
C2330 C2336 1.465 . S
C2331 C2326 1.399 . S
C2331 C2330 1.394 . S
C2331 C2332 1.516 . S
C2332 C2331 1.516 . S
C2332 C2333 1.502 . S
C2332 C2334 1.561 . S
C2332 C2335 1.526 . S
C2333 H2317 0.959 . S
C2333 H2318 0.959 . S
C2333 H2319 0.961 . S
C2333 C2332 1.502 . S
C2334 H2320 0.960 . S
C2334 H2321 0.961 . S
C2334 H2322 0.959 . S
C2334 C2332 1.561 . S
C2335 C2332 1.526 . S
C2335 C2336 1.396 . S
C2335 C2340 1.390 . S
C2336 C2330 1.465 . S
C2336 C2335 1.396 . S
C2336 C2337 1.399 1_556 S
C2337 H2323 0.929 . S
C2337 C2336 1.399 1_554 S
C2337 C2338 1.385 . S
C2338 H2324 0.931 . S
C2338 C2337 1.385 . S
C2338 C2339 1.389 . S
C2339 C2338 1.389 . S
C2339 C2340 1.387 1_554 S
C2340 H2325 0.930 . S
C2340 C2335 1.390 . S
C2340 C2339 1.387 1_556 S
H2341 C2353 0.930 . S
H2342 C2355 0.930 . S
H2343 C2356 0.930 . S
H2344 C2360 0.959 . S
H2345 C2360 0.959 . S
H2346 C2360 0.961 . S
H2347 C2361 0.960 . S
H2348 C2361 0.961 . S
H2349 C2361 0.959 . S
H2350 C2364 0.929 . S
H2351 C2365 0.931 . S
H2352 C2367 0.930 . S
C2353 H2341 0.930 . S
C2353 C2354 1.399 1_655 S
C2353 C2358 1.399 . S
C2354 C2353 1.399 1_455 S
C2354 C2355 1.376 . S
C2355 H2342 0.930 . S
C2355 C2354 1.376 . S
C2355 C2356 1.388 . S
C2356 H2343 0.930 . S
C2356 C2355 1.388 . S
C2356 C2357 1.390 1_455 S
C2357 C2356 1.390 1_655 S
C2357 C2358 1.394 . S
C2357 C2363 1.465 . S
C2358 C2353 1.399 . S
C2358 C2357 1.394 . S
C2358 C2359 1.516 . S
C2359 C2358 1.516 . S
C2359 C2360 1.502 . S
C2359 C2361 1.561 . S
C2359 C2362 1.526 . S
C2360 H2344 0.959 . S
C2360 H2345 0.959 . S
C2360 H2346 0.961 . S
C2360 C2359 1.502 . S
C2361 H2347 0.960 . S
C2361 H2348 0.961 . S
C2361 H2349 0.959 . S
C2361 C2359 1.561 . S
C2362 C2359 1.526 . S
C2362 C2363 1.396 . S
C2362 C2367 1.390 . S
C2363 C2357 1.465 . S
C2363 C2362 1.396 . S
C2363 C2364 1.399 . S
C2364 H2350 0.929 . S
C2364 C2363 1.399 . S
C2364 C2365 1.385 . S
C2365 H2351 0.931 . S
C2365 C2364 1.385 . S
C2365 C2366 1.389 . S
C2366 C2365 1.389 . S
C2366 C2367 1.387 . S
C2367 H2352 0.930 . S
C2367 C2362 1.390 . S
C2367 C2366 1.387 . S
H2368 C2380 0.930 . S
H2369 C2382 0.918 1_565 S
H2370 C2383 0.936 . S
H2371 C2387 0.959 . S
H2372 C2387 0.959 . S
H2373 C2387 0.961 . S
H2374 C2388 0.960 . S
H2375 C2388 0.961 . S
H2376 C2388 0.959 . S
H2377 C2391 0.929 . S
H2378 C2392 0.931 . S
H2379 C2394 0.930 . S
C2380 H2368 0.930 . S
C2380 C2381 1.399 . S
C2380 C2385 1.399 . S
C2381 C2380 1.399 . S
C2381 C2382 1.376 . S
C2382 H2369 0.918 1_545 S
C2382 C2381 1.376 . S
C2382 C2383 1.386 1_545 S
C2383 H2370 0.936 . S
C2383 C2382 1.386 1_565 S
C2383 C2384 1.386 1_565 S
C2384 C2383 1.386 1_545 S
C2384 C2385 1.394 . S
C2384 C2390 1.465 . S
C2385 C2380 1.399 . S
C2385 C2384 1.394 . S
C2385 C2386 1.516 . S
C2386 C2385 1.516 . S
C2386 C2387 1.502 . S
C2386 C2388 1.561 . S
C2386 C2389 1.526 . S
C2387 H2371 0.959 . S
C2387 H2372 0.959 . S
C2387 H2373 0.961 . S
C2387 C2386 1.502 . S
C2388 H2374 0.960 . S
C2388 H2375 0.961 . S
C2388 H2376 0.959 . S
C2388 C2386 1.561 . S
C2389 C2386 1.526 . S
C2389 C2390 1.396 . S
C2389 C2394 1.390 . S
C2390 C2384 1.465 . S
C2390 C2389 1.396 . S
C2390 C2391 1.399 1_545 S
C2391 H2377 0.929 . S
C2391 C2390 1.399 1_565 S
C2391 C2392 1.385 . S
C2392 H2378 0.931 . S
C2392 C2391 1.385 . S
C2392 C2393 1.389 1_565 S
C2393 C2392 1.389 1_545 S
C2393 C2394 1.387 . S
C2394 H2379 0.930 . S
C2394 C2389 1.390 . S
C2394 C2393 1.387 . S
H2395 C2407 0.930 . S
H2396 C2409 0.930 . S
H2397 C2410 0.930 . S
H2398 C2414 0.959 . S
H2399 C2414 0.959 . S
H2400 C2414 0.961 . S
H2401 C2415 0.960 . S
H2402 C2415 0.961 . S
H2403 C2415 0.959 . S
H2404 C2418 0.929 . S
H2405 C2419 0.931 . S
H2406 C2421 0.930 . S
C2407 H2395 0.930 . S
C2407 C2408 1.399 . S
C2407 C2412 1.399 . S
C2408 C2407 1.399 . S
C2408 C2409 1.376 . S
C2409 H2396 0.930 . S
C2409 C2408 1.376 . S
C2409 C2410 1.388 . S
C2410 H2397 0.930 . S
C2410 C2409 1.388 . S
C2410 C2411 1.390 . S
C2411 C2410 1.390 . S
C2411 C2412 1.394 . S
C2411 C2417 1.465 . S
C2412 C2407 1.399 . S
C2412 C2411 1.394 . S
C2412 C2413 1.516 . S
C2413 C2412 1.516 . S
C2413 C2414 1.502 . S
C2413 C2415 1.561 . S
C2413 C2416 1.526 . S
C2414 H2398 0.959 . S
C2414 H2399 0.959 . S
C2414 H2400 0.961 . S
C2414 C2413 1.502 . S
C2415 H2401 0.960 . S
C2415 H2402 0.961 . S
C2415 H2403 0.959 . S
C2415 C2413 1.561 . S
C2416 C2413 1.526 . S
C2416 C2417 1.396 . S
C2416 C2421 1.390 . S
C2417 C2411 1.465 . S
C2417 C2416 1.396 . S
C2417 C2418 1.399 . S
C2418 H2404 0.929 . S
C2418 C2417 1.399 . S
C2418 C2419 1.385 . S
C2419 H2405 0.931 . S
C2419 C2418 1.385 . S
C2419 C2420 1.389 . S
C2420 C2419 1.389 . S
C2420 C2421 1.387 . S
C2421 H2406 0.930 . S
C2421 C2416 1.390 . S
C2421 C2420 1.387 . S
H2422 C2434 0.930 . S
H2423 C2436 0.914 1_565 S
H2424 C2437 0.930 1_565 S
H2425 C2441 0.959 . S
H2426 C2441 0.959 . S
H2427 C2441 0.961 . S
H2428 C2442 0.960 . S
H2429 C2442 0.961 . S
H2430 C2442 0.959 . S
H2431 C2445 0.929 1_565 S
H2432 C2446 0.931 1_565 S
H2433 C2448 0.930 . S
C2434 H2422 0.930 . S
C2434 C2435 1.399 . S
C2434 C2439 1.399 . S
C2435 C2434 1.399 . S
C2435 C2436 1.376 . S
C2436 H2423 0.914 1_545 S
C2436 C2435 1.376 . S
C2436 C2437 1.388 . S
C2437 H2424 0.930 1_545 S
C2437 C2436 1.388 . S
C2437 C2438 1.390 . S
C2438 C2437 1.390 . S
C2438 C2439 1.394 . S
C2438 C2444 1.465 . S
C2439 C2434 1.399 . S
C2439 C2438 1.394 . S
C2439 C2440 1.516 . S
C2440 C2439 1.516 . S
C2440 C2441 1.502 . S
C2440 C2442 1.561 . S
C2440 C2443 1.526 . S
C2441 H2425 0.959 . S
C2441 H2426 0.959 . S
C2441 H2427 0.961 . S
C2441 C2440 1.502 . S
C2442 H2428 0.960 . S
C2442 H2429 0.961 . S
C2442 H2430 0.959 . S
C2442 C2440 1.561 . S
C2443 C2440 1.526 . S
C2443 C2444 1.396 . S
C2443 C2448 1.390 . S
C2444 C2438 1.465 . S
C2444 C2443 1.396 . S
C2444 C2445 1.399 . S
C2445 H2431 0.929 1_545 S
C2445 C2444 1.399 . S
C2445 C2446 1.385 . S
C2446 H2432 0.931 1_545 S
C2446 C2445 1.385 . S
C2446 C2447 1.389 . S
C2447 C2446 1.389 . S
C2447 C2448 1.387 . S
C2448 H2433 0.930 . S
C2448 C2443 1.390 . S
C2448 C2447 1.387 . S
H2449 C2461 0.930 . S
H2450 C2463 0.930 . S
H2451 C2464 0.930 . S
H2452 C2468 0.959 . S
H2453 C2468 0.959 . S
H2454 C2468 0.961 . S
H2455 C2469 0.960 . S
H2456 C2469 0.961 . S
H2457 C2469 0.959 . S
H2458 C2472 0.929 . S
H2459 C2473 0.931 . S
H2460 C2475 0.930 . S
C2461 H2449 0.930 . S
C2461 C2462 1.399 . S
C2461 C2466 1.399 . S
C2462 C2461 1.399 . S
C2462 C2463 1.376 . S
C2463 H2450 0.930 . S
C2463 C2462 1.376 . S
C2463 C2464 1.388 . S
C2464 H2451 0.930 . S
C2464 C2463 1.388 . S
C2464 C2465 1.390 . S
C2465 C2464 1.390 . S
C2465 C2466 1.394 . S
C2465 C2471 1.465 . S
C2466 C2461 1.399 . S
C2466 C2465 1.394 . S
C2466 C2467 1.516 . S
C2467 C2466 1.516 . S
C2467 C2468 1.502 . S
C2467 C2469 1.561 . S
C2467 C2470 1.526 . S
C2468 H2452 0.959 . S
C2468 H2453 0.959 . S
C2468 H2454 0.961 . S
C2468 C2467 1.502 . S
C2469 H2455 0.960 . S
C2469 H2456 0.961 . S
C2469 H2457 0.959 . S
C2469 C2467 1.561 . S
C2470 C2467 1.526 . S
C2470 C2471 1.396 . S
C2470 C2475 1.390 . S
C2471 C2465 1.465 . S
C2471 C2470 1.396 . S
C2471 C2472 1.399 . S
C2472 H2458 0.929 . S
C2472 C2471 1.399 . S
C2472 C2473 1.385 . S
C2473 H2459 0.931 . S
C2473 C2472 1.385 . S
C2473 C2474 1.389 . S
C2474 C2473 1.389 . S
C2474 C2475 1.387 . S
C2475 H2460 0.930 . S
C2475 C2470 1.390 . S
C2475 C2474 1.387 . S
H2476 C2488 0.930 . S
H2477 C2490 0.930 . S
H2478 C2491 0.930 . S
H2479 C2495 0.959 1_545 S
H2480 C2495 0.959 . S
H2481 C2495 0.961 . S
H2482 C2496 0.960 . S
H2483 C2496 0.961 . S
H2484 C2496 0.959 . S
H2485 C2499 0.929 . S
H2486 C2500 0.931 . S
H2487 C2502 0.930 1_565 S
C2488 H2476 0.930 . S
C2488 C2489 1.399 . S
C2488 C2493 1.399 . S
C2489 C2488 1.399 . S
C2489 C2490 1.376 . S
C2490 H2477 0.930 . S
C2490 C2489 1.376 . S
C2490 C2491 1.388 . S
C2491 H2478 0.930 . S
C2491 C2490 1.388 . S
C2491 C2492 1.390 . S
C2492 C2491 1.390 . S
C2492 C2493 1.394 . S
C2492 C2498 1.465 . S
C2493 C2488 1.399 . S
C2493 C2492 1.394 . S
C2493 C2494 1.521 . S
C2494 C2493 1.521 . S
C2494 C2495 1.498 1_545 S
C2494 C2496 1.554 1_545 S
C2494 C2497 1.533 . S
C2495 H2479 0.959 1_565 S
C2495 H2480 0.959 . S
C2495 H2481 0.961 . S
C2495 C2494 1.498 1_565 S
C2496 H2482 0.960 . S
C2496 H2483 0.961 . S
C2496 H2484 0.959 . S
C2496 C2494 1.554 1_565 S
C2497 C2494 1.533 . S
C2497 C2498 1.396 . S
C2497 C2502 1.390 . S
C2498 C2492 1.465 . S
C2498 C2497 1.396 . S
C2498 C2499 1.399 . S
C2499 H2485 0.929 . S
C2499 C2498 1.399 . S
C2499 C2500 1.385 . S
C2500 H2486 0.931 . S
C2500 C2499 1.385 . S
C2500 C2501 1.389 . S
C2501 C2500 1.389 . S
C2501 C2502 1.387 . S
C2502 H2487 0.930 1_545 S
C2502 C2497 1.390 . S
C2502 C2501 1.387 . S
H2503 C2515 0.930 . S
H2504 C2517 0.930 . S
H2505 C2518 0.930 . S
H2506 C2522 0.959 . S
H2507 C2522 0.959 . S
H2508 C2522 0.961 . S
H2509 C2523 0.960 . S
H2510 C2523 0.961 . S
H2511 C2523 0.959 . S
H2512 C2526 0.929 . S
H2513 C2527 0.931 . S
H2514 C2529 0.930 . S
C2515 H2503 0.930 . S
C2515 C2516 1.399 . S
C2515 C2520 1.399 . S
C2516 C2515 1.399 . S
C2516 C2517 1.376 . S
C2517 H2504 0.930 . S
C2517 C2516 1.376 . S
C2517 C2518 1.388 . S
C2518 H2505 0.930 . S
C2518 C2517 1.388 . S
C2518 C2519 1.390 . S
C2519 C2518 1.390 . S
C2519 C2520 1.394 . S
C2519 C2525 1.465 . S
C2520 C2515 1.399 . S
C2520 C2519 1.394 . S
C2520 C2521 1.516 . S
C2521 C2520 1.516 . S
C2521 C2522 1.502 . S
C2521 C2523 1.561 . S
C2521 C2524 1.526 . S
C2522 H2506 0.959 . S
C2522 H2507 0.959 . S
C2522 H2508 0.961 . S
C2522 C2521 1.502 . S
C2523 H2509 0.960 . S
C2523 H2510 0.961 . S
C2523 H2511 0.959 . S
C2523 C2521 1.561 . S
C2524 C2521 1.526 . S
C2524 C2525 1.396 . S
C2524 C2529 1.390 . S
C2525 C2519 1.465 . S
C2525 C2524 1.396 . S
C2525 C2526 1.399 . S
C2526 H2512 0.929 . S
C2526 C2525 1.399 . S
C2526 C2527 1.385 . S
C2527 H2513 0.931 . S
C2527 C2526 1.385 . S
C2527 C2528 1.389 . S
C2528 C2527 1.389 . S
C2528 C2529 1.387 . S
C2529 H2514 0.930 . S
C2529 C2524 1.390 . S
C2529 C2528 1.387 . S
H2530 C2542 0.930 1_565 S
H2531 C2544 0.930 . S
H2532 C2545 0.930 . S
H2533 C2549 0.959 . S
H2534 C2549 0.959 . S
H2535 C2549 0.961 . S
H2536 C2550 0.960 . S
H2537 C2550 0.961 . S
H2538 C2550 0.959 1_545 S
H2539 C2553 0.929 . S
H2540 C2554 0.931 . S
H2541 C2556 0.928 1_565 S
C2542 H2530 0.930 1_545 S
C2542 C2543 1.399 . S
C2542 C2547 1.399 . S
C2543 C2542 1.399 . S
C2543 C2544 1.376 . S
C2544 H2531 0.930 . S
C2544 C2543 1.376 . S
C2544 C2545 1.388 . S
C2545 H2532 0.930 . S
C2545 C2544 1.388 . S
C2545 C2546 1.390 . S
C2546 C2545 1.390 . S
C2546 C2547 1.394 . S
C2546 C2552 1.465 . S
C2547 C2542 1.399 . S
C2547 C2546 1.394 . S
C2547 C2548 1.516 1_545 S
C2548 C2547 1.516 1_565 S
C2548 C2549 1.502 . S
C2548 C2550 1.561 . S
C2548 C2551 1.526 1_565 S
C2549 H2533 0.959 . S
C2549 H2534 0.959 . S
C2549 H2535 0.961 . S
C2549 C2548 1.502 . S
C2550 H2536 0.960 . S
C2550 H2537 0.961 . S
C2550 H2538 0.959 1_565 S
C2550 C2548 1.561 . S
C2551 C2548 1.526 1_545 S
C2551 C2552 1.396 . S
C2551 C2556 1.390 . S
C2552 C2546 1.465 . S
C2552 C2551 1.396 . S
C2552 C2553 1.399 . S
C2553 H2539 0.929 . S
C2553 C2552 1.399 . S
C2553 C2554 1.385 . S
C2554 H2540 0.931 . S
C2554 C2553 1.385 . S
C2554 C2555 1.389 . S
C2555 C2554 1.389 . S
C2555 C2556 1.388 . S
C2556 H2541 0.928 1_545 S
C2556 C2551 1.390 . S
C2556 C2555 1.388 . S
H2557 C2569 0.930 . S
H2558 C2571 0.930 . S
H2559 C2572 0.930 . S
H2560 C2576 0.959 . S
H2561 C2576 0.959 . S
H2562 C2576 0.961 . S
H2563 C2577 0.960 . S
H2564 C2577 0.961 . S
H2565 C2577 0.959 . S
H2566 C2580 0.929 . S
H2567 C2581 0.931 . S
H2568 C2583 0.930 . S
C2569 H2557 0.930 . S
C2569 C2570 1.399 . S
C2569 C2574 1.399 . S
C2570 C2569 1.399 . S
C2570 C2571 1.376 . S
C2571 H2558 0.930 . S
C2571 C2570 1.376 . S
C2571 C2572 1.388 . S
C2572 H2559 0.930 . S
C2572 C2571 1.388 . S
C2572 C2573 1.390 . S
C2573 C2572 1.390 . S
C2573 C2574 1.394 . S
C2573 C2579 1.465 . S
C2574 C2569 1.399 . S
C2574 C2573 1.394 . S
C2574 C2575 1.516 . S
C2575 C2574 1.516 . S
C2575 C2576 1.502 . S
C2575 C2577 1.561 . S
C2575 C2578 1.526 . S
C2576 H2560 0.959 . S
C2576 H2561 0.959 . S
C2576 H2562 0.961 . S
C2576 C2575 1.502 . S
C2577 H2563 0.960 . S
C2577 H2564 0.961 . S
C2577 H2565 0.959 . S
C2577 C2575 1.561 . S
C2578 C2575 1.526 . S
C2578 C2579 1.396 . S
C2578 C2583 1.390 . S
C2579 C2573 1.465 . S
C2579 C2578 1.396 . S
C2579 C2580 1.399 . S
C2580 H2566 0.929 . S
C2580 C2579 1.399 . S
C2580 C2581 1.385 . S
C2581 H2567 0.931 . S
C2581 C2580 1.385 . S
C2581 C2582 1.389 . S
C2582 C2581 1.389 . S
C2582 C2583 1.387 . S
C2583 H2568 0.930 . S
C2583 C2578 1.390 . S
C2583 C2582 1.387 . S
H2584 C2596 0.930 . S
H2585 C2598 0.930 . S
H2586 C2599 0.930 . S
H2587 C2603 0.959 . S
H2588 C2603 0.959 . S
H2589 C2603 0.961 . S
H2590 C2604 0.960 . S
H2591 C2604 0.961 . S
H2592 C2604 0.959 . S
H2593 C2607 0.929 1_556 S
H2594 C2608 0.931 . S
H2595 C2610 0.930 . S
C2596 H2584 0.930 . S
C2596 C2597 1.399 . S
C2596 C2601 1.399 . S
C2597 C2596 1.399 . S
C2597 C2598 1.376 . S
C2598 H2585 0.930 . S
C2598 C2597 1.376 . S
C2598 C2599 1.388 . S
C2599 H2586 0.930 . S
C2599 C2598 1.388 . S
C2599 C2600 1.390 . S
C2600 C2599 1.390 . S
C2600 C2601 1.394 . S
C2600 C2606 1.465 . S
C2601 C2596 1.399 . S
C2601 C2600 1.394 . S
C2601 C2602 1.516 . S
C2602 C2601 1.516 . S
C2602 C2603 1.502 . S
C2602 C2604 1.561 . S
C2602 C2605 1.526 . S
C2603 H2587 0.959 . S
C2603 H2588 0.959 . S
C2603 H2589 0.961 . S
C2603 C2602 1.502 . S
C2604 H2590 0.960 . S
C2604 H2591 0.961 . S
C2604 H2592 0.959 . S
C2604 C2602 1.561 . S
C2605 C2602 1.526 . S
C2605 C2606 1.396 . S
C2605 C2610 1.390 . S
C2606 C2600 1.465 . S
C2606 C2605 1.396 . S
C2606 C2607 1.399 . S
C2607 H2593 0.929 1_554 S
C2607 C2606 1.399 . S
C2607 C2608 1.385 1_554 S
C2608 H2594 0.931 . S
C2608 C2607 1.385 1_556 S
C2608 C2609 1.389 1_556 S
C2609 C2608 1.389 1_554 S
C2609 C2610 1.387 . S
C2610 H2595 0.930 . S
C2610 C2605 1.390 . S
C2610 C2609 1.387 . S
H2611 C2623 0.930 . S
H2612 C2625 0.930 . S
H2613 C2626 0.930 . S
H2614 C2630 0.959 . S
H2615 C2630 0.959 . S
H2616 C2630 0.961 . S
H2617 C2631 0.964 . S
H2618 C2631 0.971 . S
H2619 C2631 0.957 1_554 S
H2620 C2634 0.929 . S
H2621 C2635 0.931 . S
H2622 C2637 0.930 . S
C2623 H2611 0.930 . S
C2623 C2624 1.399 . S
C2623 C2628 1.399 . S
C2624 C2623 1.399 . S
C2624 C2625 1.376 . S
C2625 H2612 0.930 . S
C2625 C2624 1.376 . S
C2625 C2626 1.388 . S
C2626 H2613 0.930 . S
C2626 C2625 1.388 . S
C2626 C2627 1.390 . S
C2627 C2626 1.390 . S
C2627 C2628 1.394 . S
C2627 C2633 1.465 . S
C2628 C2623 1.399 . S
C2628 C2627 1.394 . S
C2628 C2629 1.516 . S
C2629 C2628 1.516 . S
C2629 C2630 1.502 . S
C2629 C2631 1.549 1_554 S
C2629 C2632 1.526 . S
C2630 H2614 0.959 . S
C2630 H2615 0.959 . S
C2630 H2616 0.961 . S
C2630 C2629 1.502 . S
C2631 H2617 0.964 . S
C2631 H2618 0.971 . S
C2631 H2619 0.957 1_556 S
C2631 C2629 1.549 1_556 S
C2632 C2629 1.526 . S
C2632 C2633 1.396 . S
C2632 C2637 1.390 . S
C2633 C2627 1.465 . S
C2633 C2632 1.396 . S
C2633 C2634 1.399 . S
C2634 H2620 0.929 . S
C2634 C2633 1.399 . S
C2634 C2635 1.385 . S
C2635 H2621 0.931 . S
C2635 C2634 1.385 . S
C2635 C2636 1.389 . S
C2636 C2635 1.389 . S
C2636 C2637 1.387 . S
C2637 H2622 0.930 . S
C2637 C2632 1.390 . S
C2637 C2636 1.387 . S
H2638 C2650 0.930 . S
H2639 C2652 0.930 . S
H2640 C2653 0.930 . S
H2641 C2657 0.959 . S
H2642 C2657 0.959 . S
H2643 C2657 0.961 . S
H2644 C2658 0.960 . S
H2645 C2658 0.961 . S
H2646 C2658 0.959 . S
H2647 C2661 0.929 . S
H2648 C2662 0.931 . S
H2649 C2664 0.930 . S
C2650 H2638 0.930 . S
C2650 C2651 1.399 . S
C2650 C2655 1.399 . S
C2651 C2650 1.399 . S
C2651 C2652 1.376 . S
C2652 H2639 0.930 . S
C2652 C2651 1.376 . S
C2652 C2653 1.388 . S
C2653 H2640 0.930 . S
C2653 C2652 1.388 . S
C2653 C2654 1.390 . S
C2654 C2653 1.390 . S
C2654 C2655 1.394 . S
C2654 C2660 1.465 . S
C2655 C2650 1.399 . S
C2655 C2654 1.394 . S
C2655 C2656 1.516 . S
C2656 C2655 1.516 . S
C2656 C2657 1.502 . S
C2656 C2658 1.561 . S
C2656 C2659 1.526 . S
C2657 H2641 0.959 . S
C2657 H2642 0.959 . S
C2657 H2643 0.961 . S
C2657 C2656 1.502 . S
C2658 H2644 0.960 . S
C2658 H2645 0.961 . S
C2658 H2646 0.959 . S
C2658 C2656 1.561 . S
C2659 C2656 1.526 . S
C2659 C2660 1.396 . S
C2659 C2664 1.390 . S
C2660 C2654 1.465 . S
C2660 C2659 1.396 . S
C2660 C2661 1.399 . S
C2661 H2647 0.929 . S
C2661 C2660 1.399 . S
C2661 C2662 1.385 . S
C2662 H2648 0.931 . S
C2662 C2661 1.385 . S
C2662 C2663 1.389 . S
C2663 C2662 1.389 . S
C2663 C2664 1.387 . S
C2664 H2649 0.930 . S
C2664 C2659 1.390 . S
C2664 C2663 1.387 . S
H2665 C2677 0.930 . S
H2666 C2679 0.930 . S
H2667 C2680 0.930 . S
H2668 C2684 0.959 . S
H2669 C2684 0.959 . S
H2670 C2684 0.961 . S
H2671 C2685 0.960 . S
H2672 C2685 0.961 . S
H2673 C2685 0.959 . S
H2674 C2688 0.929 . S
H2675 C2689 0.931 . S
H2676 C2691 0.930 . S
C2677 H2665 0.930 . S
C2677 C2678 1.399 . S
C2677 C2682 1.399 . S
C2678 C2677 1.399 . S
C2678 C2679 1.376 . S
C2679 H2666 0.930 . S
C2679 C2678 1.376 . S
C2679 C2680 1.388 . S
C2680 H2667 0.930 . S
C2680 C2679 1.388 . S
C2680 C2681 1.390 . S
C2681 C2680 1.390 . S
C2681 C2682 1.394 . S
C2681 C2687 1.465 . S
C2682 C2677 1.399 . S
C2682 C2681 1.394 . S
C2682 C2683 1.516 . S
C2683 C2682 1.516 . S
C2683 C2684 1.502 . S
C2683 C2685 1.561 . S
C2683 C2686 1.526 . S
C2684 H2668 0.959 . S
C2684 H2669 0.959 . S
C2684 H2670 0.961 . S
C2684 C2683 1.502 . S
C2685 H2671 0.960 . S
C2685 H2672 0.961 . S
C2685 H2673 0.959 . S
C2685 C2683 1.561 . S
C2686 C2683 1.526 . S
C2686 C2687 1.396 . S
C2686 C2691 1.390 . S
C2687 C2681 1.465 . S
C2687 C2686 1.396 . S
C2687 C2688 1.399 . S
C2688 H2674 0.929 . S
C2688 C2687 1.399 . S
C2688 C2689 1.385 . S
C2689 H2675 0.931 . S
C2689 C2688 1.385 . S
C2689 C2690 1.389 . S
C2690 C2689 1.389 . S
C2690 C2691 1.387 . S
C2691 H2676 0.930 . S
C2691 C2686 1.390 . S
C2691 C2690 1.387 . S
H2692 C2704 0.930 . S
H2693 C2706 0.930 . S
H2694 C2707 0.930 . S
H2695 C2711 0.959 . S
H2696 C2711 0.959 . S
H2697 C2711 0.961 . S
H2698 C2712 0.960 . S
H2699 C2712 0.961 . S
H2700 C2712 0.959 . S
H2701 C2715 0.929 . S
H2702 C2716 0.931 . S
H2703 C2718 0.930 . S
C2704 H2692 0.930 . S
C2704 C2705 1.399 . S
C2704 C2709 1.399 . S
C2705 C2704 1.399 . S
C2705 C2706 1.376 . S
C2706 H2693 0.930 . S
C2706 C2705 1.376 . S
C2706 C2707 1.388 . S
C2707 H2694 0.930 . S
C2707 C2706 1.388 . S
C2707 C2708 1.390 . S
C2708 C2707 1.390 . S
C2708 C2709 1.394 . S
C2708 C2714 1.465 . S
C2709 C2704 1.399 . S
C2709 C2708 1.394 . S
C2709 C2710 1.516 . S
C2710 C2709 1.516 . S
C2710 C2711 1.502 . S
C2710 C2712 1.561 . S
C2710 C2713 1.526 . S
C2711 H2695 0.959 . S
C2711 H2696 0.959 . S
C2711 H2697 0.961 . S
C2711 C2710 1.502 . S
C2712 H2698 0.960 . S
C2712 H2699 0.961 . S
C2712 H2700 0.959 . S
C2712 C2710 1.561 . S
C2713 C2710 1.526 . S
C2713 C2714 1.396 . S
C2713 C2718 1.390 . S
C2714 C2708 1.465 . S
C2714 C2713 1.396 . S
C2714 C2715 1.399 . S
C2715 H2701 0.929 . S
C2715 C2714 1.399 . S
C2715 C2716 1.385 . S
C2716 H2702 0.931 . S
C2716 C2715 1.385 . S
C2716 C2717 1.389 . S
C2717 C2716 1.389 . S
C2717 C2718 1.387 . S
C2718 H2703 0.930 . S
C2718 C2713 1.390 . S
C2718 C2717 1.387 . S
H2719 C2731 0.930 . S
H2720 C2733 0.930 . S
H2721 C2734 0.930 . S
H2722 C2738 0.959 . S
H2723 C2738 0.959 . S
H2724 C2738 0.961 . S
H2725 C2739 0.960 . S
H2726 C2739 0.961 . S
H2727 C2739 0.959 . S
H2728 C2742 0.929 . S
H2729 C2743 0.931 . S
H2730 C2745 0.930 . S
C2731 H2719 0.930 . S
C2731 C2732 1.399 . S
C2731 C2736 1.399 . S
C2732 C2731 1.399 . S
C2732 C2733 1.376 . S
C2733 H2720 0.930 . S
C2733 C2732 1.376 . S
C2733 C2734 1.388 . S
C2734 H2721 0.930 . S
C2734 C2733 1.388 . S
C2734 C2735 1.390 . S
C2735 C2734 1.390 . S
C2735 C2736 1.394 . S
C2735 C2741 1.465 . S
C2736 C2731 1.399 . S
C2736 C2735 1.394 . S
C2736 C2737 1.516 . S
C2737 C2736 1.516 . S
C2737 C2738 1.502 . S
C2737 C2739 1.561 . S
C2737 C2740 1.526 . S
C2738 H2722 0.959 . S
C2738 H2723 0.959 . S
C2738 H2724 0.961 . S
C2738 C2737 1.502 . S
C2739 H2725 0.960 . S
C2739 H2726 0.961 . S
C2739 H2727 0.959 . S
C2739 C2737 1.561 . S
C2740 C2737 1.526 . S
C2740 C2741 1.396 . S
C2740 C2745 1.390 . S
C2741 C2735 1.465 . S
C2741 C2740 1.396 . S
C2741 C2742 1.399 . S
C2742 H2728 0.929 . S
C2742 C2741 1.399 . S
C2742 C2743 1.385 . S
C2743 H2729 0.931 . S
C2743 C2742 1.385 . S
C2743 C2744 1.389 . S
C2744 C2743 1.389 . S
C2744 C2745 1.387 . S
C2745 H2730 0.930 . S
C2745 C2740 1.390 . S
C2745 C2744 1.387 . S
H2746 C2758 0.930 . S
H2747 C2760 0.930 . S
H2748 C2761 0.930 . S
H2749 C2765 0.959 . S
H2750 C2765 0.959 . S
H2751 C2765 0.961 . S
H2752 C2766 0.960 . S
H2753 C2766 0.961 . S
H2754 C2766 0.959 . S
H2755 C2769 0.929 . S
H2756 C2770 0.931 . S
H2757 C2772 0.930 . S
C2758 H2746 0.930 . S
C2758 C2759 1.399 . S
C2758 C2763 1.399 . S
C2759 C2758 1.399 . S
C2759 C2760 1.376 . S
C2760 H2747 0.930 . S
C2760 C2759 1.376 . S
C2760 C2761 1.388 . S
C2761 H2748 0.930 . S
C2761 C2760 1.388 . S
C2761 C2762 1.390 . S
C2762 C2761 1.390 . S
C2762 C2763 1.394 . S
C2762 C2768 1.465 . S
C2763 C2758 1.399 . S
C2763 C2762 1.394 . S
C2763 C2764 1.516 . S
C2764 C2763 1.516 . S
C2764 C2765 1.502 . S
C2764 C2766 1.561 . S
C2764 C2767 1.526 . S
C2765 H2749 0.959 . S
C2765 H2750 0.959 . S
C2765 H2751 0.961 . S
C2765 C2764 1.502 . S
C2766 H2752 0.960 . S
C2766 H2753 0.961 . S
C2766 H2754 0.959 . S
C2766 C2764 1.561 . S
C2767 C2764 1.526 . S
C2767 C2768 1.396 . S
C2767 C2772 1.390 . S
C2768 C2762 1.465 . S
C2768 C2767 1.396 . S
C2768 C2769 1.399 . S
C2769 H2755 0.929 . S
C2769 C2768 1.399 . S
C2769 C2770 1.385 . S
C2770 H2756 0.931 . S
C2770 C2769 1.385 . S
C2770 C2771 1.389 . S
C2771 C2770 1.389 . S
C2771 C2772 1.387 . S
C2772 H2757 0.930 . S
C2772 C2767 1.390 . S
C2772 C2771 1.387 . S
H2773 C2785 0.930 . S
H2774 C2787 0.930 . S
H2775 C2788 0.930 . S
H2776 C2792 0.959 . S
H2777 C2792 0.959 . S
H2778 C2792 0.961 . S
H2779 C2793 0.960 . S
H2780 C2793 0.961 . S
H2781 C2793 0.959 . S
H2782 C2796 0.929 . S
H2783 C2797 0.931 . S
H2784 C2799 0.930 . S
C2785 H2773 0.930 . S
C2785 C2786 1.399 . S
C2785 C2790 1.399 . S
C2786 C2785 1.399 . S
C2786 C2787 1.376 . S
C2787 H2774 0.930 . S
C2787 C2786 1.376 . S
C2787 C2788 1.388 . S
C2788 H2775 0.930 . S
C2788 C2787 1.388 . S
C2788 C2789 1.390 . S
C2789 C2788 1.390 . S
C2789 C2790 1.394 . S
C2789 C2795 1.465 . S
C2790 C2785 1.399 . S
C2790 C2789 1.394 . S
C2790 C2791 1.516 . S
C2791 C2790 1.516 . S
C2791 C2792 1.502 . S
C2791 C2793 1.561 . S
C2791 C2794 1.526 . S
C2792 H2776 0.959 . S
C2792 H2777 0.959 . S
C2792 H2778 0.961 . S
C2792 C2791 1.502 . S
C2793 H2779 0.960 . S
C2793 H2780 0.961 . S
C2793 H2781 0.959 . S
C2793 C2791 1.561 . S
C2794 C2791 1.526 . S
C2794 C2795 1.396 . S
C2794 C2799 1.390 . S
C2795 C2789 1.465 . S
C2795 C2794 1.396 . S
C2795 C2796 1.399 . S
C2796 H2782 0.929 . S
C2796 C2795 1.399 . S
C2796 C2797 1.385 . S
C2797 H2783 0.931 . S
C2797 C2796 1.385 . S
C2797 C2798 1.389 . S
C2798 C2797 1.389 . S
C2798 C2799 1.387 . S
C2799 H2784 0.930 . S
C2799 C2794 1.390 . S
C2799 C2798 1.387 . S
H2800 C2812 0.930 . S
H2801 C2814 0.930 . S
H2802 C2815 0.930 . S
H2803 C2819 0.959 . S
H2804 C2819 0.959 . S
H2805 C2819 0.961 . S
H2806 C2820 0.960 . S
H2807 C2820 0.961 . S
H2808 C2820 0.959 . S
H2809 C2823 0.929 . S
H2810 C2824 0.931 . S
H2811 C2826 0.930 . S
C2812 H2800 0.930 . S
C2812 C2813 1.399 . S
C2812 C2817 1.399 . S
C2813 C2812 1.399 . S
C2813 C2814 1.376 . S
C2814 H2801 0.930 . S
C2814 C2813 1.376 . S
C2814 C2815 1.388 . S
C2815 H2802 0.930 . S
C2815 C2814 1.388 . S
C2815 C2816 1.390 . S
C2816 C2815 1.390 . S
C2816 C2817 1.394 . S
C2816 C2822 1.465 . S
C2817 C2812 1.399 . S
C2817 C2816 1.394 . S
C2817 C2818 1.516 . S
C2818 C2817 1.516 . S
C2818 C2819 1.502 . S
C2818 C2820 1.561 . S
C2818 C2821 1.526 . S
C2819 H2803 0.959 . S
C2819 H2804 0.959 . S
C2819 H2805 0.961 . S
C2819 C2818 1.502 . S
C2820 H2806 0.960 . S
C2820 H2807 0.961 . S
C2820 H2808 0.959 . S
C2820 C2818 1.561 . S
C2821 C2818 1.526 . S
C2821 C2822 1.396 . S
C2821 C2826 1.390 . S
C2822 C2816 1.465 . S
C2822 C2821 1.396 . S
C2822 C2823 1.399 . S
C2823 H2809 0.929 . S
C2823 C2822 1.399 . S
C2823 C2824 1.385 . S
C2824 H2810 0.931 . S
C2824 C2823 1.385 . S
C2824 C2825 1.389 . S
C2825 C2824 1.389 . S
C2825 C2826 1.387 . S
C2826 H2811 0.930 . S
C2826 C2821 1.390 . S
C2826 C2825 1.387 . S
H2827 C2839 0.930 . S
H2828 C2841 0.930 . S
H2829 C2842 0.930 . S
H2830 C2846 0.959 . S
H2831 C2846 0.959 . S
H2832 C2846 0.961 . S
H2833 C2847 0.960 . S
H2834 C2847 0.961 . S
H2835 C2847 0.959 . S
H2836 C2850 0.929 . S
H2837 C2851 0.931 . S
H2838 C2853 0.930 . S
C2839 H2827 0.930 . S
C2839 C2840 1.399 . S
C2839 C2844 1.399 . S
C2840 C2839 1.399 . S
C2840 C2841 1.376 . S
C2841 H2828 0.930 . S
C2841 C2840 1.376 . S
C2841 C2842 1.388 . S
C2842 H2829 0.930 . S
C2842 C2841 1.388 . S
C2842 C2843 1.390 . S
C2843 C2842 1.390 . S
C2843 C2844 1.394 . S
C2843 C2849 1.465 . S
C2844 C2839 1.399 . S
C2844 C2843 1.394 . S
C2844 C2845 1.516 . S
C2845 C2844 1.516 . S
C2845 C2846 1.502 . S
C2845 C2847 1.561 . S
C2845 C2848 1.526 . S
C2846 H2830 0.959 . S
C2846 H2831 0.959 . S
C2846 H2832 0.961 . S
C2846 C2845 1.502 . S
C2847 H2833 0.960 . S
C2847 H2834 0.961 . S
C2847 H2835 0.959 . S
C2847 C2845 1.561 . S
C2848 C2845 1.526 . S
C2848 C2849 1.396 . S
C2848 C2853 1.390 . S
C2849 C2843 1.465 . S
C2849 C2848 1.396 . S
C2849 C2850 1.399 . S
C2850 H2836 0.929 . S
C2850 C2849 1.399 . S
C2850 C2851 1.385 . S
C2851 H2837 0.931 . S
C2851 C2850 1.385 . S
C2851 C2852 1.389 . S
C2852 C2851 1.389 . S
C2852 C2853 1.387 . S
C2853 H2838 0.930 . S
C2853 C2848 1.390 . S
C2853 C2852 1.387 . S
H2854 C2866 0.930 . S
H2855 C2868 0.930 . S
H2856 C2869 0.930 . S
H2857 C2873 0.959 . S
H2858 C2873 0.959 . S
H2859 C2873 0.961 . S
H2860 C2874 0.960 . S
H2861 C2874 0.961 . S
H2862 C2874 0.959 1_655 S
H2863 C2877 0.929 . S
H2864 C2878 0.931 . S
H2865 C2880 0.930 1_556 S
C2866 H2854 0.930 . S
C2866 C2867 1.399 . S
C2866 C2871 1.399 . S
C2867 C2866 1.399 . S
C2867 C2868 1.376 1_556 S
C2868 H2855 0.930 . S
C2868 C2867 1.376 1_554 S
C2868 C2869 1.388 . S
C2869 H2856 0.930 . S
C2869 C2868 1.388 . S
C2869 C2870 1.390 . S
C2870 C2869 1.390 . S
C2870 C2871 1.394 1_554 S
C2870 C2876 1.465 . S
C2871 C2866 1.399 . S
C2871 C2870 1.394 1_556 S
C2871 C2872 1.516 . S
C2872 C2871 1.516 . S
C2872 C2873 1.502 . S
C2872 C2874 1.561 . S
C2872 C2875 1.526 . S
C2873 H2857 0.959 . S
C2873 H2858 0.959 . S
C2873 H2859 0.961 . S
C2873 C2872 1.502 . S
C2874 H2860 0.960 . S
C2874 H2861 0.961 . S
C2874 H2862 0.959 1_455 S
C2874 C2872 1.561 . S
C2875 C2872 1.526 . S
C2875 C2876 1.396 1_556 S
C2875 C2880 1.390 1_556 S
C2876 C2870 1.465 . S
C2876 C2875 1.396 1_554 S
C2876 C2877 1.399 . S
C2877 H2863 0.929 . S
C2877 C2876 1.399 . S
C2877 C2878 1.385 . S
C2878 H2864 0.931 . S
C2878 C2877 1.385 . S
C2878 C2879 1.389 . S
C2879 C2878 1.389 . S
C2879 C2880 1.387 . S
C2880 H2865 0.930 1_554 S
C2880 C2875 1.390 1_554 S
C2880 C2879 1.387 . S
H2881 C2893 0.931 . S
H2882 C2895 0.930 . S
H2883 C2896 0.930 . S
H2884 C2900 0.959 . S
H2885 C2900 0.959 . S
H2886 C2900 0.961 . S
H2887 C2901 0.960 . S
H2888 C2901 0.961 . S
H2889 C2901 0.959 . S
H2890 C2904 0.929 . S
H2891 C2905 0.931 . S
H2892 C2907 0.930 . S
C2893 H2881 0.931 . S
C2893 C2894 1.399 . S
C2893 C2898 1.399 . S
C2894 C2893 1.399 . S
C2894 C2895 1.376 . S
C2895 H2882 0.930 . S
C2895 C2894 1.376 . S
C2895 C2896 1.388 . S
C2896 H2883 0.930 . S
C2896 C2895 1.388 . S
C2896 C2897 1.390 . S
C2897 C2896 1.390 . S
C2897 C2898 1.394 . S
C2897 C2903 1.465 . S
C2898 C2893 1.399 . S
C2898 C2897 1.394 . S
C2898 C2899 1.516 . S
C2899 C2898 1.516 . S
C2899 C2900 1.502 . S
C2899 C2901 1.561 . S
C2899 C2902 1.526 . S
C2900 H2884 0.959 . S
C2900 H2885 0.959 . S
C2900 H2886 0.961 . S
C2900 C2899 1.502 . S
C2901 H2887 0.960 . S
C2901 H2888 0.961 . S
C2901 H2889 0.959 . S
C2901 C2899 1.561 . S
C2902 C2899 1.526 . S
C2902 C2903 1.396 . S
C2902 C2907 1.390 . S
C2903 C2897 1.465 . S
C2903 C2902 1.396 . S
C2903 C2904 1.399 . S
C2904 H2890 0.929 . S
C2904 C2903 1.399 . S
C2904 C2905 1.385 . S
C2905 H2891 0.931 . S
C2905 C2904 1.385 . S
C2905 C2906 1.389 . S
C2906 C2905 1.389 . S
C2906 C2907 1.387 . S
C2907 H2892 0.930 . S
C2907 C2902 1.390 . S
C2907 C2906 1.387 . S
H2908 C2920 0.930 . S
H2909 C2922 0.930 . S
H2910 C2923 0.930 . S
H2911 C2927 0.959 . S
H2912 C2927 0.959 . S
H2913 C2927 0.961 . S
H2914 C2928 0.960 . S
H2915 C2928 0.961 . S
H2916 C2928 0.959 . S
H2917 C2931 0.929 . S
H2918 C2932 0.931 . S
H2919 C2934 0.930 . S
C2920 H2908 0.930 . S
C2920 C2921 1.399 . S
C2920 C2925 1.399 . S
C2921 C2920 1.399 . S
C2921 C2922 1.376 . S
C2922 H2909 0.930 . S
C2922 C2921 1.376 . S
C2922 C2923 1.388 . S
C2923 H2910 0.930 . S
C2923 C2922 1.388 . S
C2923 C2924 1.390 . S
C2924 C2923 1.390 . S
C2924 C2925 1.394 . S
C2924 C2930 1.465 . S
C2925 C2920 1.399 . S
C2925 C2924 1.394 . S
C2925 C2926 1.516 . S
C2926 C2925 1.516 . S
C2926 C2927 1.502 . S
C2926 C2928 1.561 . S
C2926 C2929 1.526 . S
C2927 H2911 0.959 . S
C2927 H2912 0.959 . S
C2927 H2913 0.961 . S
C2927 C2926 1.502 . S
C2928 H2914 0.960 . S
C2928 H2915 0.961 . S
C2928 H2916 0.959 . S
C2928 C2926 1.561 . S
C2929 C2926 1.526 . S
C2929 C2930 1.396 . S
C2929 C2934 1.390 . S
C2930 C2924 1.465 . S
C2930 C2929 1.396 . S
C2930 C2931 1.399 . S
C2931 H2917 0.929 . S
C2931 C2930 1.399 . S
C2931 C2932 1.385 . S
C2932 H2918 0.931 . S
C2932 C2931 1.385 . S
C2932 C2933 1.389 . S
C2933 C2932 1.389 . S
C2933 C2934 1.387 . S
C2934 H2919 0.930 . S
C2934 C2929 1.390 . S
C2934 C2933 1.387 . S
H2935 C2947 0.930 . S
H2936 C2949 0.930 . S
H2937 C2950 0.930 . S
H2938 C2954 0.959 . S
H2939 C2954 0.959 . S
H2940 C2954 0.961 . S
H2941 C2955 0.960 . S
H2942 C2955 0.961 . S
H2943 C2955 0.959 . S
H2944 C2958 0.929 . S
H2945 C2959 0.931 . S
H2946 C2961 0.930 . S
C2947 H2935 0.930 . S
C2947 C2948 1.399 . S
C2947 C2952 1.399 . S
C2948 C2947 1.399 . S
C2948 C2949 1.376 . S
C2949 H2936 0.930 . S
C2949 C2948 1.376 . S
C2949 C2950 1.388 . S
C2950 H2937 0.930 . S
C2950 C2949 1.388 . S
C2950 C2951 1.390 . S
C2951 C2950 1.390 . S
C2951 C2952 1.394 . S
C2951 C2957 1.465 . S
C2952 C2947 1.399 . S
C2952 C2951 1.394 . S
C2952 C2953 1.516 . S
C2953 C2952 1.516 . S
C2953 C2954 1.502 . S
C2953 C2955 1.561 . S
C2953 C2956 1.526 . S
C2954 H2938 0.959 . S
C2954 H2939 0.959 . S
C2954 H2940 0.961 . S
C2954 C2953 1.502 . S
C2955 H2941 0.960 . S
C2955 H2942 0.961 . S
C2955 H2943 0.959 . S
C2955 C2953 1.561 . S
C2956 C2953 1.526 . S
C2956 C2957 1.396 . S
C2956 C2961 1.390 . S
C2957 C2951 1.465 . S
C2957 C2956 1.396 . S
C2957 C2958 1.399 . S
C2958 H2944 0.929 . S
C2958 C2957 1.399 . S
C2958 C2959 1.385 . S
C2959 H2945 0.931 . S
C2959 C2958 1.385 . S
C2959 C2960 1.389 . S
C2960 C2959 1.389 . S
C2960 C2961 1.387 . S
C2961 H2946 0.930 . S
C2961 C2956 1.390 . S
C2961 C2960 1.387 . S
H2962 C2974 0.930 . S
H2963 C2976 0.930 . S
H2964 C2977 0.930 . S
H2965 C2981 0.959 . S
H2966 C2981 0.959 . S
H2967 C2981 0.961 . S
H2968 C2982 0.960 . S
H2969 C2982 0.961 . S
H2970 C2982 0.959 . S
H2971 C2985 0.929 . S
H2972 C2986 0.931 . S
H2973 C2988 0.930 . S
C2974 H2962 0.930 . S
C2974 C2975 1.399 . S
C2974 C2979 1.399 . S
C2975 C2974 1.399 . S
C2975 C2976 1.376 . S
C2976 H2963 0.930 . S
C2976 C2975 1.376 . S
C2976 C2977 1.388 . S
C2977 H2964 0.930 . S
C2977 C2976 1.388 . S
C2977 C2978 1.390 . S
C2978 C2977 1.390 . S
C2978 C2979 1.394 . S
C2978 C2984 1.465 . S
C2979 C2974 1.399 . S
C2979 C2978 1.394 . S
C2979 C2980 1.516 . S
C2980 C2979 1.516 . S
C2980 C2981 1.502 . S
C2980 C2982 1.561 . S
C2980 C2983 1.526 . S
C2981 H2965 0.959 . S
C2981 H2966 0.959 . S
C2981 H2967 0.961 . S
C2981 C2980 1.502 . S
C2982 H2968 0.960 . S
C2982 H2969 0.961 . S
C2982 H2970 0.959 . S
C2982 C2980 1.561 . S
C2983 C2980 1.526 . S
C2983 C2984 1.396 . S
C2983 C2988 1.390 . S
C2984 C2978 1.465 . S
C2984 C2983 1.396 . S
C2984 C2985 1.399 . S
C2985 H2971 0.929 . S
C2985 C2984 1.399 . S
C2985 C2986 1.385 . S
C2986 H2972 0.931 . S
C2986 C2985 1.385 . S
C2986 C2987 1.389 . S
C2987 C2986 1.389 . S
C2987 C2988 1.387 . S
C2988 H2973 0.930 . S
C2988 C2983 1.390 . S
C2988 C2987 1.387 . S
H2989 C3001 0.930 . S
H2990 C3003 0.930 . S
H2991 C3004 0.930 . S
H2992 C3008 0.959 . S
H2993 C3008 0.959 . S
H2994 C3008 0.961 . S
H2995 C3009 0.960 . S
H2996 C3009 0.961 . S
H2997 C3009 0.959 . S
H2998 C3012 0.929 . S
H2999 C3013 0.931 . S
H3000 C3015 0.930 . S
C3001 H2989 0.930 . S
C3001 C3002 1.399 . S
C3001 C3006 1.399 . S
C3002 C3001 1.399 . S
C3002 C3003 1.376 . S
C3003 H2990 0.930 . S
C3003 C3002 1.376 . S
C3003 C3004 1.388 . S
C3004 H2991 0.930 . S
C3004 C3003 1.388 . S
C3004 C3005 1.390 . S
C3005 C3004 1.390 . S
C3005 C3006 1.394 . S
C3005 C3011 1.465 . S
C3006 C3001 1.399 . S
C3006 C3005 1.394 . S
C3006 C3007 1.516 . S
C3007 C3006 1.516 . S
C3007 C3008 1.502 . S
C3007 C3009 1.561 . S
C3007 C3010 1.526 . S
C3008 H2992 0.959 . S
C3008 H2993 0.959 . S
C3008 H2994 0.961 . S
C3008 C3007 1.502 . S
C3009 H2995 0.960 . S
C3009 H2996 0.961 . S
C3009 H2997 0.959 . S
C3009 C3007 1.561 . S
C3010 C3007 1.526 . S
C3010 C3011 1.396 . S
C3010 C3015 1.390 . S
C3011 C3005 1.465 . S
C3011 C3010 1.396 . S
C3011 C3012 1.399 . S
C3012 H2998 0.929 . S
C3012 C3011 1.399 . S
C3012 C3013 1.385 . S
C3013 H2999 0.931 . S
C3013 C3012 1.385 . S
C3013 C3014 1.389 . S
C3014 C3013 1.389 . S
C3014 C3015 1.387 . S
C3015 H3000 0.930 . S
C3015 C3010 1.390 . S
C3015 C3014 1.387 . S
H3016 C3028 0.930 . S
H3017 C3030 0.930 . S
H3018 C3031 0.930 . S
H3019 C3035 0.959 . S
H3020 C3035 0.959 . S
H3021 C3035 0.961 . S
H3022 C3036 0.960 . S
H3023 C3036 0.961 . S
H3024 C3036 0.959 . S
H3025 C3039 0.929 . S
H3026 C3040 0.931 . S
H3027 C3042 0.930 . S
C3028 H3016 0.930 . S
C3028 C3029 1.399 . S
C3028 C3033 1.399 . S
C3029 C3028 1.399 . S
C3029 C3030 1.376 . S
C3030 H3017 0.930 . S
C3030 C3029 1.376 . S
C3030 C3031 1.388 . S
C3031 H3018 0.930 . S
C3031 C3030 1.388 . S
C3031 C3032 1.390 . S
C3032 C3031 1.390 . S
C3032 C3033 1.394 . S
C3032 C3038 1.465 . S
C3033 C3028 1.399 . S
C3033 C3032 1.394 . S
C3033 C3034 1.516 . S
C3034 C3033 1.516 . S
C3034 C3035 1.502 . S
C3034 C3036 1.561 . S
C3034 C3037 1.526 . S
C3035 H3019 0.959 . S
C3035 H3020 0.959 . S
C3035 H3021 0.961 . S
C3035 C3034 1.502 . S
C3036 H3022 0.960 . S
C3036 H3023 0.961 . S
C3036 H3024 0.959 . S
C3036 C3034 1.561 . S
C3037 C3034 1.526 . S
C3037 C3038 1.396 . S
C3037 C3042 1.390 . S
C3038 C3032 1.465 . S
C3038 C3037 1.396 . S
C3038 C3039 1.399 . S
C3039 H3025 0.929 . S
C3039 C3038 1.399 . S
C3039 C3040 1.385 . S
C3040 H3026 0.931 . S
C3040 C3039 1.385 . S
C3040 C3041 1.389 . S
C3041 C3040 1.389 . S
C3041 C3042 1.387 . S
C3042 H3027 0.930 . S
C3042 C3037 1.390 . S
C3042 C3041 1.387 . S
H3043 C3055 0.930 . S
H3044 C3057 0.930 . S
H3045 C3058 0.930 . S
H3046 C3062 0.959 . S
H3047 C3062 0.959 . S
H3048 C3062 0.961 . S
H3049 C3063 0.960 . S
H3050 C3063 0.961 . S
H3051 C3063 0.959 . S
H3052 C3066 0.929 . S
H3053 C3067 0.931 . S
H3054 C3069 0.930 . S
C3055 H3043 0.930 . S
C3055 C3056 1.399 . S
C3055 C3060 1.399 1_554 S
C3056 C3055 1.399 . S
C3056 C3057 1.376 . S
C3057 H3044 0.930 . S
C3057 C3056 1.376 . S
C3057 C3058 1.388 . S
C3058 H3045 0.930 . S
C3058 C3057 1.388 . S
C3058 C3059 1.390 . S
C3059 C3058 1.390 . S
C3059 C3060 1.394 1_554 S
C3059 C3065 1.465 1_554 S
C3060 C3055 1.399 1_556 S
C3060 C3059 1.394 1_556 S
C3060 C3061 1.516 . S
C3061 C3060 1.516 . S
C3061 C3062 1.502 . S
C3061 C3063 1.561 . S
C3061 C3064 1.526 . S
C3062 H3046 0.959 . S
C3062 H3047 0.959 . S
C3062 H3048 0.961 . S
C3062 C3061 1.502 . S
C3063 H3049 0.960 . S
C3063 H3050 0.961 . S
C3063 H3051 0.959 . S
C3063 C3061 1.561 . S
C3064 C3061 1.526 . S
C3064 C3065 1.396 . S
C3064 C3069 1.390 . S
C3065 C3059 1.465 1_556 S
C3065 C3064 1.396 . S
C3065 C3066 1.399 . S
C3066 H3052 0.929 . S
C3066 C3065 1.399 . S
C3066 C3067 1.385 . S
C3067 H3053 0.931 . S
C3067 C3066 1.385 . S
C3067 C3068 1.389 . S
C3068 C3067 1.389 . S
C3068 C3069 1.387 . S
C3069 H3054 0.930 . S
C3069 C3064 1.390 . S
C3069 C3068 1.387 . S
H3070 C3082 0.930 . S
H3071 C3084 0.930 . S
H3072 C3085 0.930 . S
H3073 C3089 0.959 . S
H3074 C3089 0.959 . S
H3075 C3089 0.961 . S
H3076 C3090 0.960 . S
H3077 C3090 0.961 . S
H3078 C3090 0.959 . S
H3079 C3093 0.929 . S
H3080 C3094 0.931 . S
H3081 C3096 0.930 . S
C3082 H3070 0.930 . S
C3082 C3083 1.399 . S
C3082 C3087 1.399 . S
C3083 C3082 1.399 . S
C3083 C3084 1.376 . S
C3084 H3071 0.930 . S
C3084 C3083 1.376 . S
C3084 C3085 1.388 . S
C3085 H3072 0.930 . S
C3085 C3084 1.388 . S
C3085 C3086 1.390 . S
C3086 C3085 1.390 . S
C3086 C3087 1.394 . S
C3086 C3092 1.465 . S
C3087 C3082 1.399 . S
C3087 C3086 1.394 . S
C3087 C3088 1.516 . S
C3088 C3087 1.516 . S
C3088 C3089 1.502 . S
C3088 C3090 1.561 . S
C3088 C3091 1.526 . S
C3089 H3073 0.959 . S
C3089 H3074 0.959 . S
C3089 H3075 0.961 . S
C3089 C3088 1.502 . S
C3090 H3076 0.960 . S
C3090 H3077 0.961 . S
C3090 H3078 0.959 . S
C3090 C3088 1.561 . S
C3091 C3088 1.526 . S
C3091 C3092 1.396 . S
C3091 C3096 1.390 . S
C3092 C3086 1.465 . S
C3092 C3091 1.396 . S
C3092 C3093 1.399 . S
C3093 H3079 0.929 . S
C3093 C3092 1.399 . S
C3093 C3094 1.385 . S
C3094 H3080 0.931 . S
C3094 C3093 1.385 . S
C3094 C3095 1.389 . S
C3095 C3094 1.389 . S
C3095 C3096 1.387 . S
C3096 H3081 0.930 . S
C3096 C3091 1.390 . S
C3096 C3095 1.387 . S
H3097 C3109 0.930 . S
H3098 C3111 0.930 . S
H3099 C3112 0.930 . S
H3100 C3116 0.959 . S
H3101 C3116 0.959 . S
H3102 C3116 0.961 . S
H3103 C3117 0.960 . S
H3104 C3117 0.961 . S
H3105 C3117 0.959 . S
H3106 C3120 0.929 . S
H3107 C3121 0.931 . S
H3108 C3123 0.930 . S
C3109 H3097 0.930 . S
C3109 C3110 1.399 . S
C3109 C3114 1.399 . S
C3110 C3109 1.399 . S
C3110 C3111 1.376 . S
C3111 H3098 0.930 . S
C3111 C3110 1.376 . S
C3111 C3112 1.388 . S
C3112 H3099 0.930 . S
C3112 C3111 1.388 . S
C3112 C3113 1.390 . S
C3113 C3112 1.390 . S
C3113 C3114 1.394 . S
C3113 C3119 1.465 . S
C3114 C3109 1.399 . S
C3114 C3113 1.394 . S
C3114 C3115 1.516 . S
C3115 C3114 1.516 . S
C3115 C3116 1.502 . S
C3115 C3117 1.561 . S
C3115 C3118 1.526 . S
C3116 H3100 0.959 . S
C3116 H3101 0.959 . S
C3116 H3102 0.961 . S
C3116 C3115 1.502 . S
C3117 H3103 0.960 . S
C3117 H3104 0.961 . S
C3117 H3105 0.959 . S
C3117 C3115 1.561 . S
C3118 C3115 1.526 . S
C3118 C3119 1.396 . S
C3118 C3123 1.390 . S
C3119 C3113 1.465 . S
C3119 C3118 1.396 . S
C3119 C3120 1.399 . S
C3120 H3106 0.929 . S
C3120 C3119 1.399 . S
C3120 C3121 1.385 . S
C3121 H3107 0.931 . S
C3121 C3120 1.385 . S
C3121 C3122 1.389 . S
C3122 C3121 1.389 . S
C3122 C3123 1.387 . S
C3123 H3108 0.930 . S
C3123 C3118 1.390 . S
C3123 C3122 1.387 . S
H3124 C3136 0.930 . S
H3125 C3138 0.930 . S
H3126 C3139 0.930 . S
H3127 C3143 0.959 . S
H3128 C3143 0.959 . S
H3129 C3143 0.961 . S
H3130 C3144 0.960 . S
H3131 C3144 0.961 . S
H3132 C3144 0.959 . S
H3133 C3147 0.929 . S
H3134 C3148 0.931 . S
H3135 C3150 0.930 . S
C3136 H3124 0.930 . S
C3136 C3137 1.399 . S
C3136 C3141 1.399 . S
C3137 C3136 1.399 . S
C3137 C3138 1.376 . S
C3138 H3125 0.930 . S
C3138 C3137 1.376 . S
C3138 C3139 1.388 . S
C3139 H3126 0.930 . S
C3139 C3138 1.388 . S
C3139 C3140 1.390 . S
C3140 C3139 1.390 . S
C3140 C3141 1.394 . S
C3140 C3146 1.465 . S
C3141 C3136 1.399 . S
C3141 C3140 1.394 . S
C3141 C3142 1.516 . S
C3142 C3141 1.516 . S
C3142 C3143 1.502 . S
C3142 C3144 1.561 . S
C3142 C3145 1.526 . S
C3143 H3127 0.959 . S
C3143 H3128 0.959 . S
C3143 H3129 0.961 . S
C3143 C3142 1.502 . S
C3144 H3130 0.960 . S
C3144 H3131 0.961 . S
C3144 H3132 0.959 . S
C3144 C3142 1.561 . S
C3145 C3142 1.526 . S
C3145 C3146 1.396 . S
C3145 C3150 1.390 . S
C3146 C3140 1.465 . S
C3146 C3145 1.396 . S
C3146 C3147 1.399 . S
C3147 H3133 0.929 . S
C3147 C3146 1.399 . S
C3147 C3148 1.385 . S
C3148 H3134 0.931 . S
C3148 C3147 1.385 . S
C3148 C3149 1.389 . S
C3149 C3148 1.389 . S
C3149 C3150 1.387 . S
C3150 H3135 0.930 . S
C3150 C3145 1.390 . S
C3150 C3149 1.387 . S
H3151 C3163 0.930 . S
H3152 C3165 0.930 . S
H3153 C3166 0.930 . S
H3154 C3170 0.959 . S
H3155 C3170 0.959 . S
H3156 C3170 0.961 . S
H3157 C3171 0.960 . S
H3158 C3171 0.961 . S
H3159 C3171 0.959 . S
H3160 C3174 0.929 . S
H3161 C3175 0.931 . S
H3162 C3177 0.930 . S
C3163 H3151 0.930 . S
C3163 C3164 1.399 . S
C3163 C3168 1.399 . S
C3164 C3163 1.399 . S
C3164 C3165 1.376 . S
C3165 H3152 0.930 . S
C3165 C3164 1.376 . S
C3165 C3166 1.388 . S
C3166 H3153 0.930 . S
C3166 C3165 1.388 . S
C3166 C3167 1.390 . S
C3167 C3166 1.390 . S
C3167 C3168 1.394 . S
C3167 C3173 1.465 . S
C3168 C3163 1.399 . S
C3168 C3167 1.394 . S
C3168 C3169 1.516 . S
C3169 C3168 1.516 . S
C3169 C3170 1.502 . S
C3169 C3171 1.561 . S
C3169 C3172 1.526 . S
C3170 H3154 0.959 . S
C3170 H3155 0.959 . S
C3170 H3156 0.961 . S
C3170 C3169 1.502 . S
C3171 H3157 0.960 . S
C3171 H3158 0.961 . S
C3171 H3159 0.959 . S
C3171 C3169 1.561 . S
C3172 C3169 1.526 . S
C3172 C3173 1.396 . S
C3172 C3177 1.390 . S
C3173 C3167 1.465 . S
C3173 C3172 1.396 . S
C3173 C3174 1.399 . S
C3174 H3160 0.929 . S
C3174 C3173 1.399 . S
C3174 C3175 1.385 . S
C3175 H3161 0.931 . S
C3175 C3174 1.385 . S
C3175 C3176 1.389 . S
C3176 C3175 1.389 . S
C3176 C3177 1.387 . S
C3177 H3162 0.930 . S
C3177 C3172 1.390 . S
C3177 C3176 1.387 . S
H3178 C3190 0.930 . S
H3179 C3192 0.930 . S
H3180 C3193 0.930 . S
H3181 C3197 0.959 . S
H3182 C3197 0.959 . S
H3183 C3197 0.961 . S
H3184 C3198 0.960 . S
H3185 C3198 0.961 . S
H3186 C3198 0.959 . S
H3187 C3201 0.929 . S
H3188 C3202 0.931 . S
H3189 C3204 0.930 . S
C3190 H3178 0.930 . S
C3190 C3191 1.399 . S
C3190 C3195 1.399 . S
C3191 C3190 1.399 . S
C3191 C3192 1.376 . S
C3192 H3179 0.930 . S
C3192 C3191 1.376 . S
C3192 C3193 1.388 . S
C3193 H3180 0.930 . S
C3193 C3192 1.388 . S
C3193 C3194 1.390 . S
C3194 C3193 1.390 . S
C3194 C3195 1.394 . S
C3194 C3200 1.465 . S
C3195 C3190 1.399 . S
C3195 C3194 1.394 . S
C3195 C3196 1.516 . S
C3196 C3195 1.516 . S
C3196 C3197 1.502 . S
C3196 C3198 1.561 . S
C3196 C3199 1.526 . S
C3197 H3181 0.959 . S
C3197 H3182 0.959 . S
C3197 H3183 0.961 . S
C3197 C3196 1.502 . S
C3198 H3184 0.960 . S
C3198 H3185 0.961 . S
C3198 H3186 0.959 . S
C3198 C3196 1.561 . S
C3199 C3196 1.526 . S
C3199 C3200 1.396 . S
C3199 C3204 1.390 . S
C3200 C3194 1.465 . S
C3200 C3199 1.396 . S
C3200 C3201 1.399 . S
C3201 H3187 0.929 . S
C3201 C3200 1.399 . S
C3201 C3202 1.385 . S
C3202 H3188 0.931 . S
C3202 C3201 1.385 . S
C3202 C3203 1.389 . S
C3203 C3202 1.389 . S
C3203 C3204 1.387 . S
C3204 H3189 0.930 . S
C3204 C3199 1.390 . S
C3204 C3203 1.387 . S
H3205 C3217 0.930 . S
H3206 C3219 0.930 . S
H3207 C3220 0.930 . S
H3208 C3224 0.959 . S
H3209 C3224 0.959 . S
H3210 C3224 0.961 . S
H3211 C3225 0.960 . S
H3212 C3225 0.961 . S
H3213 C3225 0.959 . S
H3214 C3228 0.929 . S
H3215 C3229 0.931 . S
H3216 C3231 0.930 . S
C3217 H3205 0.930 . S
C3217 C3218 1.399 . S
C3217 C3222 1.399 . S
C3218 C3217 1.399 . S
C3218 C3219 1.376 . S
C3219 H3206 0.930 . S
C3219 C3218 1.376 . S
C3219 C3220 1.388 . S
C3220 H3207 0.930 . S
C3220 C3219 1.388 . S
C3220 C3221 1.390 . S
C3221 C3220 1.390 . S
C3221 C3222 1.394 . S
C3221 C3227 1.465 . S
C3222 C3217 1.399 . S
C3222 C3221 1.394 . S
C3222 C3223 1.516 . S
C3223 C3222 1.516 . S
C3223 C3224 1.502 . S
C3223 C3225 1.561 . S
C3223 C3226 1.526 . S
C3224 H3208 0.959 . S
C3224 H3209 0.959 . S
C3224 H3210 0.961 . S
C3224 C3223 1.502 . S
C3225 H3211 0.960 . S
C3225 H3212 0.961 . S
C3225 H3213 0.959 . S
C3225 C3223 1.561 . S
C3226 C3223 1.526 . S
C3226 C3227 1.396 . S
C3226 C3231 1.390 . S
C3227 C3221 1.465 . S
C3227 C3226 1.396 . S
C3227 C3228 1.399 . S
C3228 H3214 0.929 . S
C3228 C3227 1.399 . S
C3228 C3229 1.385 . S
C3229 H3215 0.931 . S
C3229 C3228 1.385 . S
C3229 C3230 1.389 . S
C3230 C3229 1.389 . S
C3230 C3231 1.387 . S
C3231 H3216 0.930 . S
C3231 C3226 1.390 . S
C3231 C3230 1.387 . S
H3232 C3244 0.930 . S
H3233 C3246 0.930 . S
H3234 C3247 0.930 . S
H3235 C3251 0.959 . S
H3236 C3251 0.959 . S
H3237 C3251 0.961 . S
H3238 C3252 0.960 . S
H3239 C3252 0.961 . S
H3240 C3252 0.959 . S
H3241 C3255 0.929 . S
H3242 C3256 0.931 . S
H3243 C3258 0.930 . S
C3244 H3232 0.930 . S
C3244 C3245 1.399 . S
C3244 C3249 1.399 . S
C3245 C3244 1.399 . S
C3245 C3246 1.376 . S
C3246 H3233 0.930 . S
C3246 C3245 1.376 . S
C3246 C3247 1.388 . S
C3247 H3234 0.930 . S
C3247 C3246 1.388 . S
C3247 C3248 1.390 . S
C3248 C3247 1.390 . S
C3248 C3249 1.394 . S
C3248 C3254 1.465 . S
C3249 C3244 1.399 . S
C3249 C3248 1.394 . S
C3249 C3250 1.516 . S
C3250 C3249 1.516 . S
C3250 C3251 1.502 . S
C3250 C3252 1.561 . S
C3250 C3253 1.526 . S
C3251 H3235 0.959 . S
C3251 H3236 0.959 . S
C3251 H3237 0.961 . S
C3251 C3250 1.502 . S
C3252 H3238 0.960 . S
C3252 H3239 0.961 . S
C3252 H3240 0.959 . S
C3252 C3250 1.561 . S
C3253 C3250 1.526 . S
C3253 C3254 1.396 . S
C3253 C3258 1.390 . S
C3254 C3248 1.465 . S
C3254 C3253 1.396 . S
C3254 C3255 1.399 . S
C3255 H3241 0.929 . S
C3255 C3254 1.399 . S
C3255 C3256 1.385 . S
C3256 H3242 0.931 . S
C3256 C3255 1.385 . S
C3256 C3257 1.389 . S
C3257 C3256 1.389 . S
C3257 C3258 1.387 . S
C3258 H3243 0.930 . S
C3258 C3253 1.390 . S
C3258 C3257 1.387 . S
H3259 C3271 0.930 . S
H3260 C3273 0.930 . S
H3261 C3274 0.930 . S
H3262 C3278 0.959 . S
H3263 C3278 0.959 . S
H3264 C3278 0.961 . S
H3265 C3279 0.960 . S
H3266 C3279 0.961 . S
H3267 C3279 0.959 . S
H3268 C3282 0.929 . S
H3269 C3283 0.931 . S
H3270 C3285 0.930 . S
C3271 H3259 0.930 . S
C3271 C3272 1.399 . S
C3271 C3276 1.399 . S
C3272 C3271 1.399 . S
C3272 C3273 1.376 . S
C3273 H3260 0.930 . S
C3273 C3272 1.376 . S
C3273 C3274 1.388 . S
C3274 H3261 0.930 . S
C3274 C3273 1.388 . S
C3274 C3275 1.390 . S
C3275 C3274 1.390 . S
C3275 C3276 1.394 . S
C3275 C3281 1.465 . S
C3276 C3271 1.399 . S
C3276 C3275 1.394 . S
C3276 C3277 1.516 . S
C3277 C3276 1.516 . S
C3277 C3278 1.502 . S
C3277 C3279 1.561 . S
C3277 C3280 1.526 . S
C3278 H3262 0.959 . S
C3278 H3263 0.959 . S
C3278 H3264 0.961 . S
C3278 C3277 1.502 . S
C3279 H3265 0.960 . S
C3279 H3266 0.961 . S
C3279 H3267 0.959 . S
C3279 C3277 1.561 . S
C3280 C3277 1.526 . S
C3280 C3281 1.396 . S
C3280 C3285 1.390 . S
C3281 C3275 1.465 . S
C3281 C3280 1.396 . S
C3281 C3282 1.399 . S
C3282 H3268 0.929 . S
C3282 C3281 1.399 . S
C3282 C3283 1.385 . S
C3283 H3269 0.931 . S
C3283 C3282 1.385 . S
C3283 C3284 1.389 . S
C3284 C3283 1.389 . S
C3284 C3285 1.387 . S
C3285 H3270 0.930 . S
C3285 C3280 1.390 . S
C3285 C3284 1.387 . S
H3286 C3298 0.930 . S
H3287 C3300 0.930 . S
H3288 C3301 0.930 . S
H3289 C3305 0.959 . S
H3290 C3305 0.959 . S
H3291 C3305 0.961 . S
H3292 C3306 0.960 . S
H3293 C3306 0.961 . S
H3294 C3306 0.959 . S
H3295 C3309 0.929 . S
H3296 C3310 0.931 . S
H3297 C3312 0.930 . S
C3298 H3286 0.930 . S
C3298 C3299 1.399 . S
C3298 C3303 1.399 . S
C3299 C3298 1.399 . S
C3299 C3300 1.376 . S
C3300 H3287 0.930 . S
C3300 C3299 1.376 . S
C3300 C3301 1.388 . S
C3301 H3288 0.930 . S
C3301 C3300 1.388 . S
C3301 C3302 1.390 . S
C3302 C3301 1.390 . S
C3302 C3303 1.394 . S
C3302 C3308 1.465 . S
C3303 C3298 1.399 . S
C3303 C3302 1.394 . S
C3303 C3304 1.516 . S
C3304 C3303 1.516 . S
C3304 C3305 1.502 . S
C3304 C3306 1.561 . S
C3304 C3307 1.526 . S
C3305 H3289 0.959 . S
C3305 H3290 0.959 . S
C3305 H3291 0.961 . S
C3305 C3304 1.502 . S
C3306 H3292 0.960 . S
C3306 H3293 0.961 . S
C3306 H3294 0.959 . S
C3306 C3304 1.561 . S
C3307 C3304 1.526 . S
C3307 C3308 1.396 . S
C3307 C3312 1.390 . S
C3308 C3302 1.465 . S
C3308 C3307 1.396 . S
C3308 C3309 1.399 . S
C3309 H3295 0.929 . S
C3309 C3308 1.399 . S
C3309 C3310 1.385 . S
C3310 H3296 0.931 . S
C3310 C3309 1.385 . S
C3310 C3311 1.389 . S
C3311 C3310 1.389 . S
C3311 C3312 1.387 . S
C3312 H3297 0.930 . S
C3312 C3307 1.390 . S
C3312 C3311 1.387 . S
H3313 C3325 0.930 . S
H3314 C3327 0.930 . S
H3315 C3328 0.930 . S
H3316 C3332 0.959 . S
H3317 C3332 0.959 . S
H3318 C3332 0.961 . S
H3319 C3333 0.960 . S
H3320 C3333 0.961 . S
H3321 C3333 0.959 . S
H3322 C3336 0.929 . S
H3323 C3337 0.931 . S
H3324 C3339 0.930 1_556 S
C3325 H3313 0.930 . S
C3325 C3326 1.399 1_556 S
C3325 C3330 1.399 1_556 S
C3326 C3325 1.399 1_554 S
C3326 C3327 1.376 . S
C3327 H3314 0.930 . S
C3327 C3326 1.376 . S
C3327 C3328 1.388 . S
C3328 H3315 0.930 . S
C3328 C3327 1.388 . S
C3328 C3329 1.390 . S
C3329 C3328 1.390 . S
C3329 C3330 1.394 . S
C3329 C3335 1.465 . S
C3330 C3325 1.399 1_554 S
C3330 C3329 1.394 . S
C3330 C3331 1.516 1_554 S
C3331 C3330 1.516 1_556 S
C3331 C3332 1.502 . S
C3331 C3333 1.561 . S
C3331 C3334 1.526 1_556 S
C3332 H3316 0.959 . S
C3332 H3317 0.959 . S
C3332 H3318 0.961 . S
C3332 C3331 1.502 . S
C3333 H3319 0.960 . S
C3333 H3320 0.961 . S
C3333 H3321 0.959 . S
C3333 C3331 1.561 . S
C3334 C3331 1.526 1_554 S
C3334 C3335 1.396 . S
C3334 C3339 1.390 . S
C3335 C3329 1.465 . S
C3335 C3334 1.396 . S
C3335 C3336 1.399 . S
C3336 H3322 0.929 . S
C3336 C3335 1.399 . S
C3336 C3337 1.385 . S
C3337 H3323 0.931 . S
C3337 C3336 1.385 . S
C3337 C3338 1.389 . S
C3338 C3337 1.389 . S
C3338 C3339 1.387 . S
C3339 H3324 0.930 1_554 S
C3339 C3334 1.390 . S
C3339 C3338 1.387 . S
H3340 C3352 0.930 . S
H3341 C3354 0.930 . S
H3342 C3355 0.930 . S
H3343 C3359 0.959 . S
H3344 C3359 0.959 . S
H3345 C3359 0.961 . S
H3346 C3360 0.960 . S
H3347 C3360 0.961 . S
H3348 C3360 0.959 . S
H3349 C3363 0.929 . S
H3350 C3364 0.931 . S
H3351 C3366 0.930 . S
C3352 H3340 0.930 . S
C3352 C3353 1.399 . S
C3352 C3357 1.399 . S
C3353 C3352 1.399 . S
C3353 C3354 1.376 . S
C3354 H3341 0.930 . S
C3354 C3353 1.376 . S
C3354 C3355 1.388 . S
C3355 H3342 0.930 . S
C3355 C3354 1.388 . S
C3355 C3356 1.390 . S
C3356 C3355 1.390 . S
C3356 C3357 1.394 . S
C3356 C3362 1.465 . S
C3357 C3352 1.399 . S
C3357 C3356 1.394 . S
C3357 C3358 1.516 . S
C3358 C3357 1.516 . S
C3358 C3359 1.502 . S
C3358 C3360 1.561 . S
C3358 C3361 1.526 . S
C3359 H3343 0.959 . S
C3359 H3344 0.959 . S
C3359 H3345 0.961 . S
C3359 C3358 1.502 . S
C3360 H3346 0.960 . S
C3360 H3347 0.961 . S
C3360 H3348 0.959 . S
C3360 C3358 1.561 . S
C3361 C3358 1.526 . S
C3361 C3362 1.396 . S
C3361 C3366 1.390 . S
C3362 C3356 1.465 . S
C3362 C3361 1.396 . S
C3362 C3363 1.399 . S
C3363 H3349 0.929 . S
C3363 C3362 1.399 . S
C3363 C3364 1.385 . S
C3364 H3350 0.931 . S
C3364 C3363 1.385 . S
C3364 C3365 1.389 . S
C3365 C3364 1.389 . S
C3365 C3366 1.387 . S
C3366 H3351 0.930 . S
C3366 C3361 1.390 . S
C3366 C3365 1.387 . S
H3367 C3379 0.930 . S
H3368 C3381 0.930 . S
H3369 C3382 0.930 . S
H3370 C3386 0.959 . S
H3371 C3386 0.959 . S
H3372 C3386 0.961 . S
H3373 C3387 0.960 . S
H3374 C3387 0.961 . S
H3375 C3387 0.959 . S
H3376 C3390 0.929 . S
H3377 C3391 0.931 . S
H3378 C3393 0.930 . S
C3379 H3367 0.930 . S
C3379 C3380 1.399 . S
C3379 C3384 1.399 . S
C3380 C3379 1.399 . S
C3380 C3381 1.376 . S
C3381 H3368 0.930 . S
C3381 C3380 1.376 . S
C3381 C3382 1.388 . S
C3382 H3369 0.930 . S
C3382 C3381 1.388 . S
C3382 C3383 1.390 . S
C3383 C3382 1.390 . S
C3383 C3384 1.394 . S
C3383 C3389 1.465 . S
C3384 C3379 1.399 . S
C3384 C3383 1.394 . S
C3384 C3385 1.516 . S
C3385 C3384 1.516 . S
C3385 C3386 1.502 . S
C3385 C3387 1.561 . S
C3385 C3388 1.526 . S
C3386 H3370 0.959 . S
C3386 H3371 0.959 . S
C3386 H3372 0.961 . S
C3386 C3385 1.502 . S
C3387 H3373 0.960 . S
C3387 H3374 0.961 . S
C3387 H3375 0.959 . S
C3387 C3385 1.561 . S
C3388 C3385 1.526 . S
C3388 C3389 1.396 . S
C3388 C3393 1.390 . S
C3389 C3383 1.465 . S
C3389 C3388 1.396 . S
C3389 C3390 1.399 . S
C3390 H3376 0.929 . S
C3390 C3389 1.399 . S
C3390 C3391 1.385 . S
C3391 H3377 0.931 . S
C3391 C3390 1.385 . S
C3391 C3392 1.389 . S
C3392 C3391 1.389 . S
C3392 C3393 1.387 . S
C3393 H3378 0.930 . S
C3393 C3388 1.390 . S
C3393 C3392 1.387 . S
H3394 C3406 0.930 . S
H3395 C3408 0.930 . S
H3396 C3409 0.930 . S
H3397 C3413 0.959 . S
H3398 C3413 0.959 . S
H3399 C3413 0.961 . S
H3400 C3414 0.960 . S
H3401 C3414 0.961 . S
H3402 C3414 0.959 . S
H3403 C3417 0.929 . S
H3404 C3418 0.931 . S
H3405 C3420 0.930 . S
C3406 H3394 0.930 . S
C3406 C3407 1.399 . S
C3406 C3411 1.399 . S
C3407 C3406 1.399 . S
C3407 C3408 1.376 . S
C3408 H3395 0.930 . S
C3408 C3407 1.376 . S
C3408 C3409 1.388 . S
C3409 H3396 0.930 . S
C3409 C3408 1.388 . S
C3409 C3410 1.390 . S
C3410 C3409 1.390 . S
C3410 C3411 1.394 . S
C3410 C3416 1.465 . S
C3411 C3406 1.399 . S
C3411 C3410 1.394 . S
C3411 C3412 1.516 . S
C3412 C3411 1.516 . S
C3412 C3413 1.502 . S
C3412 C3414 1.561 . S
C3412 C3415 1.526 . S
C3413 H3397 0.959 . S
C3413 H3398 0.959 . S
C3413 H3399 0.961 . S
C3413 C3412 1.502 . S
C3414 H3400 0.960 . S
C3414 H3401 0.961 . S
C3414 H3402 0.959 . S
C3414 C3412 1.561 . S
C3415 C3412 1.526 . S
C3415 C3416 1.396 . S
C3415 C3420 1.390 . S
C3416 C3410 1.465 . S
C3416 C3415 1.396 . S
C3416 C3417 1.399 . S
C3417 H3403 0.929 . S
C3417 C3416 1.399 . S
C3417 C3418 1.385 . S
C3418 H3404 0.931 . S
C3418 C3417 1.385 . S
C3418 C3419 1.389 . S
C3419 C3418 1.389 . S
C3419 C3420 1.387 . S
C3420 H3405 0.930 . S
C3420 C3415 1.390 . S
C3420 C3419 1.387 . S
H3421 C3433 0.930 . S
H3422 C3435 0.930 . S
H3423 C3436 0.930 . S
H3424 C3440 0.959 . S
H3425 C3440 0.959 . S
H3426 C3440 0.961 . S
H3427 C3441 0.960 . S
H3428 C3441 0.961 . S
H3429 C3441 0.959 . S
H3430 C3444 0.929 . S
H3431 C3445 0.931 . S
H3432 C3447 0.930 . S
C3433 H3421 0.930 . S
C3433 C3434 1.399 . S
C3433 C3438 1.399 . S
C3434 C3433 1.399 . S
C3434 C3435 1.376 . S
C3435 H3422 0.930 . S
C3435 C3434 1.376 . S
C3435 C3436 1.388 . S
C3436 H3423 0.930 . S
C3436 C3435 1.388 . S
C3436 C3437 1.390 . S
C3437 C3436 1.390 . S
C3437 C3438 1.394 . S
C3437 C3443 1.465 . S
C3438 C3433 1.399 . S
C3438 C3437 1.394 . S
C3438 C3439 1.516 . S
C3439 C3438 1.516 . S
C3439 C3440 1.502 . S
C3439 C3441 1.561 . S
C3439 C3442 1.526 . S
C3440 H3424 0.959 . S
C3440 H3425 0.959 . S
C3440 H3426 0.961 . S
C3440 C3439 1.502 . S
C3441 H3427 0.960 . S
C3441 H3428 0.961 . S
C3441 H3429 0.959 . S
C3441 C3439 1.561 . S
C3442 C3439 1.526 . S
C3442 C3443 1.396 . S
C3442 C3447 1.390 . S
C3443 C3437 1.465 . S
C3443 C3442 1.396 . S
C3443 C3444 1.399 . S
C3444 H3430 0.929 . S
C3444 C3443 1.399 . S
C3444 C3445 1.385 . S
C3445 H3431 0.931 . S
C3445 C3444 1.385 . S
C3445 C3446 1.389 . S
C3446 C3445 1.389 . S
C3446 C3447 1.387 . S
C3447 H3432 0.930 . S
C3447 C3442 1.390 . S
C3447 C3446 1.387 . S
H3448 C3460 0.930 . S
H3449 C3462 0.930 . S
H3450 C3463 0.930 . S
H3451 C3467 0.959 . S
H3452 C3467 0.959 . S
H3453 C3467 0.961 . S
H3454 C3468 0.960 . S
H3455 C3468 0.961 . S
H3456 C3468 0.959 . S
H3457 C3471 0.929 . S
H3458 C3472 0.931 . S
H3459 C3474 0.930 . S
C3460 H3448 0.930 . S
C3460 C3461 1.399 . S
C3460 C3465 1.399 . S
C3461 C3460 1.399 . S
C3461 C3462 1.376 . S
C3462 H3449 0.930 . S
C3462 C3461 1.376 . S
C3462 C3463 1.388 . S
C3463 H3450 0.930 . S
C3463 C3462 1.388 . S
C3463 C3464 1.390 . S
C3464 C3463 1.390 . S
C3464 C3465 1.394 . S
C3464 C3470 1.465 . S
C3465 C3460 1.399 . S
C3465 C3464 1.394 . S
C3465 C3466 1.516 . S
C3466 C3465 1.516 . S
C3466 C3467 1.502 . S
C3466 C3468 1.561 . S
C3466 C3469 1.526 . S
C3467 H3451 0.959 . S
C3467 H3452 0.959 . S
C3467 H3453 0.961 . S
C3467 C3466 1.502 . S
C3468 H3454 0.960 . S
C3468 H3455 0.961 . S
C3468 H3456 0.959 . S
C3468 C3466 1.561 . S
C3469 C3466 1.526 . S
C3469 C3470 1.396 . S
C3469 C3474 1.390 . S
C3470 C3464 1.465 . S
C3470 C3469 1.396 . S
C3470 C3471 1.399 . S
C3471 H3457 0.929 . S
C3471 C3470 1.399 . S
C3471 C3472 1.385 . S
C3472 H3458 0.931 . S
C3472 C3471 1.385 . S
C3472 C3473 1.389 . S
C3473 C3472 1.389 . S
C3473 C3474 1.387 . S
C3474 H3459 0.930 . S
C3474 C3469 1.390 . S
C3474 C3473 1.387 . S
H3475 C3487 0.930 . S
H3476 C3489 0.930 . S
H3477 C3490 0.930 . S
H3478 C3494 0.959 . S
H3479 C3494 0.959 . S
H3480 C3494 0.961 . S
H3481 C3495 0.960 . S
H3482 C3495 0.961 . S
H3483 C3495 0.959 . S
H3484 C3498 0.929 . S
H3485 C3499 0.931 . S
H3486 C3501 0.930 . S
C3487 H3475 0.930 . S
C3487 C3488 1.399 . S
C3487 C3492 1.399 . S
C3488 C3487 1.399 . S
C3488 C3489 1.376 . S
C3489 H3476 0.930 . S
C3489 C3488 1.376 . S
C3489 C3490 1.388 . S
C3490 H3477 0.930 . S
C3490 C3489 1.388 . S
C3490 C3491 1.390 . S
C3491 C3490 1.390 . S
C3491 C3492 1.394 . S
C3491 C3497 1.465 . S
C3492 C3487 1.399 . S
C3492 C3491 1.394 . S
C3492 C3493 1.516 . S
C3493 C3492 1.516 . S
C3493 C3494 1.502 . S
C3493 C3495 1.561 . S
C3493 C3496 1.526 . S
C3494 H3478 0.959 . S
C3494 H3479 0.959 . S
C3494 H3480 0.961 . S
C3494 C3493 1.502 . S
C3495 H3481 0.960 . S
C3495 H3482 0.961 . S
C3495 H3483 0.959 . S
C3495 C3493 1.561 . S
C3496 C3493 1.526 . S
C3496 C3497 1.396 . S
C3496 C3501 1.390 . S
C3497 C3491 1.465 . S
C3497 C3496 1.396 . S
C3497 C3498 1.399 . S
C3498 H3484 0.929 . S
C3498 C3497 1.399 . S
C3498 C3499 1.385 . S
C3499 H3485 0.931 . S
C3499 C3498 1.385 . S
C3499 C3500 1.389 . S
C3500 C3499 1.389 . S
C3500 C3501 1.387 . S
C3501 H3486 0.930 . S
C3501 C3496 1.390 . S
C3501 C3500 1.387 . S
H3502 C3514 0.930 . S
H3503 C3516 0.930 . S
H3504 C3517 0.930 . S
H3505 C3521 0.959 . S
H3506 C3521 0.959 . S
H3507 C3521 0.961 . S
H3508 C3522 0.960 . S
H3509 C3522 0.961 . S
H3510 C3522 0.959 . S
H3511 C3525 0.929 . S
H3512 C3526 0.931 . S
H3513 C3528 0.930 . S
C3514 H3502 0.930 . S
C3514 C3515 1.399 . S
C3514 C3519 1.399 . S
C3515 C3514 1.399 . S
C3515 C3516 1.376 . S
C3516 H3503 0.930 . S
C3516 C3515 1.376 . S
C3516 C3517 1.388 . S
C3517 H3504 0.930 . S
C3517 C3516 1.388 . S
C3517 C3518 1.390 . S
C3518 C3517 1.390 . S
C3518 C3519 1.394 . S
C3518 C3524 1.465 . S
C3519 C3514 1.399 . S
C3519 C3518 1.394 . S
C3519 C3520 1.516 . S
C3520 C3519 1.516 . S
C3520 C3521 1.502 . S
C3520 C3522 1.561 . S
C3520 C3523 1.526 . S
C3521 H3505 0.959 . S
C3521 H3506 0.959 . S
C3521 H3507 0.961 . S
C3521 C3520 1.502 . S
C3522 H3508 0.960 . S
C3522 H3509 0.961 . S
C3522 H3510 0.959 . S
C3522 C3520 1.561 . S
C3523 C3520 1.526 . S
C3523 C3524 1.396 . S
C3523 C3528 1.390 . S
C3524 C3518 1.465 . S
C3524 C3523 1.396 . S
C3524 C3525 1.399 . S
C3525 H3511 0.929 . S
C3525 C3524 1.399 . S
C3525 C3526 1.385 . S
C3526 H3512 0.931 . S
C3526 C3525 1.385 . S
C3526 C3527 1.389 . S
C3527 C3526 1.389 . S
C3527 C3528 1.387 . S
C3528 H3513 0.930 . S
C3528 C3523 1.390 . S
C3528 C3527 1.387 . S
H3529 C3541 0.930 . S
H3530 C3543 0.930 . S
H3531 C3544 0.930 . S
H3532 C3548 0.959 . S
H3533 C3548 0.959 . S
H3534 C3548 0.961 . S
H3535 C3549 0.960 . S
H3536 C3549 0.961 . S
H3537 C3549 0.959 . S
H3538 C3552 0.929 . S
H3539 C3553 0.931 . S
H3540 C3555 0.930 . S
C3541 H3529 0.930 . S
C3541 C3542 1.399 . S
C3541 C3546 1.399 . S
C3542 C3541 1.399 . S
C3542 C3543 1.376 . S
C3543 H3530 0.930 . S
C3543 C3542 1.376 . S
C3543 C3544 1.388 . S
C3544 H3531 0.930 . S
C3544 C3543 1.388 . S
C3544 C3545 1.390 . S
C3545 C3544 1.390 . S
C3545 C3546 1.394 . S
C3545 C3551 1.465 . S
C3546 C3541 1.399 . S
C3546 C3545 1.394 . S
C3546 C3547 1.516 . S
C3547 C3546 1.516 . S
C3547 C3548 1.502 . S
C3547 C3549 1.561 . S
C3547 C3550 1.526 . S
C3548 H3532 0.959 . S
C3548 H3533 0.959 . S
C3548 H3534 0.961 . S
C3548 C3547 1.502 . S
C3549 H3535 0.960 . S
C3549 H3536 0.961 . S
C3549 H3537 0.959 . S
C3549 C3547 1.561 . S
C3550 C3547 1.526 . S
C3550 C3551 1.396 . S
C3550 C3555 1.390 . S
C3551 C3545 1.465 . S
C3551 C3550 1.396 . S
C3551 C3552 1.399 . S
C3552 H3538 0.929 . S
C3552 C3551 1.399 . S
C3552 C3553 1.385 . S
C3553 H3539 0.931 . S
C3553 C3552 1.385 . S
C3553 C3554 1.389 . S
C3554 C3553 1.389 . S
C3554 C3555 1.387 . S
C3555 H3540 0.930 . S
C3555 C3550 1.390 . S
C3555 C3554 1.387 . S
H3556 C3568 0.930 . S
H3557 C3570 0.930 . S
H3558 C3571 0.930 . S
H3559 C3575 0.959 . S
H3560 C3575 0.959 . S
H3561 C3575 0.961 . S
H3562 C3576 0.960 . S
H3563 C3576 0.961 1_554 S
H3564 C3576 0.959 . S
H3565 C3579 0.929 . S
H3566 C3580 0.931 . S
H3567 C3582 0.930 . S
C3568 H3556 0.930 . S
C3568 C3569 1.399 . S
C3568 C3573 1.399 . S
C3569 C3568 1.399 . S
C3569 C3570 1.376 . S
C3570 H3557 0.930 . S
C3570 C3569 1.376 . S
C3570 C3571 1.388 . S
C3571 H3558 0.930 . S
C3571 C3570 1.388 . S
C3571 C3572 1.390 . S
C3572 C3571 1.390 . S
C3572 C3573 1.394 . S
C3572 C3578 1.465 . S
C3573 C3568 1.399 . S
C3573 C3572 1.394 . S
C3573 C3574 1.516 . S
C3574 C3573 1.516 . S
C3574 C3575 1.502 . S
C3574 C3576 1.561 . S
C3574 C3577 1.526 . S
C3575 H3559 0.959 . S
C3575 H3560 0.959 . S
C3575 H3561 0.961 . S
C3575 C3574 1.502 . S
C3576 H3562 0.960 . S
C3576 H3563 0.961 1_556 S
C3576 H3564 0.959 . S
C3576 C3574 1.561 . S
C3577 C3574 1.526 . S
C3577 C3578 1.396 . S
C3577 C3582 1.390 . S
C3578 C3572 1.465 . S
C3578 C3577 1.396 . S
C3578 C3579 1.399 . S
C3579 H3565 0.929 . S
C3579 C3578 1.399 . S
C3579 C3580 1.385 . S
C3580 H3566 0.931 . S
C3580 C3579 1.385 . S
C3580 C3581 1.389 . S
C3581 C3580 1.389 . S
C3581 C3582 1.387 . S
C3582 H3567 0.930 . S
C3582 C3577 1.390 . S
C3582 C3581 1.387 . S
H3583 C3595 0.930 . S
H3584 C3597 0.930 . S
H3585 C3598 0.930 . S
H3586 C3602 0.959 . S
H3587 C3602 0.959 . S
H3588 C3602 0.961 . S
H3589 C3603 0.960 . S
H3590 C3603 0.961 . S
H3591 C3603 0.959 . S
H3592 C3606 0.929 . S
H3593 C3607 0.931 . S
H3594 C3609 0.930 . S
C3595 H3583 0.930 . S
C3595 C3596 1.399 . S
C3595 C3600 1.399 . S
C3596 C3595 1.399 . S
C3596 C3597 1.376 . S
C3597 H3584 0.930 . S
C3597 C3596 1.376 . S
C3597 C3598 1.388 . S
C3598 H3585 0.930 . S
C3598 C3597 1.388 . S
C3598 C3599 1.390 . S
C3599 C3598 1.390 . S
C3599 C3600 1.394 . S
C3599 C3605 1.465 . S
C3600 C3595 1.399 . S
C3600 C3599 1.394 . S
C3600 C3601 1.516 . S
C3601 C3600 1.516 . S
C3601 C3602 1.502 . S
C3601 C3603 1.561 . S
C3601 C3604 1.526 . S
C3602 H3586 0.959 . S
C3602 H3587 0.959 . S
C3602 H3588 0.961 . S
C3602 C3601 1.502 . S
C3603 H3589 0.960 . S
C3603 H3590 0.961 . S
C3603 H3591 0.959 . S
C3603 C3601 1.561 . S
C3604 C3601 1.526 . S
C3604 C3605 1.396 . S
C3604 C3609 1.390 . S
C3605 C3599 1.465 . S
C3605 C3604 1.396 . S
C3605 C3606 1.399 . S
C3606 H3592 0.929 . S
C3606 C3605 1.399 . S
C3606 C3607 1.385 . S
C3607 H3593 0.931 . S
C3607 C3606 1.385 . S
C3607 C3608 1.389 . S
C3608 C3607 1.389 . S
C3608 C3609 1.387 . S
C3609 H3594 0.930 . S
C3609 C3604 1.390 . S
C3609 C3608 1.387 . S
H3610 C3622 0.930 . S
H3611 C3624 0.930 . S
H3612 C3625 0.930 . S
H3613 C3629 0.959 . S
H3614 C3629 0.959 . S
H3615 C3629 0.961 . S
H3616 C3630 0.960 . S
H3617 C3630 0.961 . S
H3618 C3630 0.959 . S
H3619 C3633 0.929 1_655 S
H3620 C3634 0.931 . S
H3621 C3636 0.930 . S
C3622 H3610 0.930 . S
C3622 C3623 1.399 . S
C3622 C3627 1.399 . S
C3623 C3622 1.399 . S
C3623 C3624 1.376 1_455 S
C3624 H3611 0.930 . S
C3624 C3623 1.376 1_655 S
C3624 C3625 1.388 . S
C3625 H3612 0.930 . S
C3625 C3624 1.388 . S
C3625 C3626 1.390 1_655 S
C3626 C3625 1.390 1_455 S
C3626 C3627 1.394 . S
C3626 C3632 1.465 . S
C3627 C3622 1.399 . S
C3627 C3626 1.394 . S
C3627 C3628 1.516 . S
C3628 C3627 1.516 . S
C3628 C3629 1.502 . S
C3628 C3630 1.561 . S
C3628 C3631 1.526 . S
C3629 H3613 0.959 . S
C3629 H3614 0.959 . S
C3629 H3615 0.961 . S
C3629 C3628 1.502 . S
C3630 H3616 0.960 . S
C3630 H3617 0.961 . S
C3630 H3618 0.959 . S
C3630 C3628 1.561 . S
C3631 C3628 1.526 . S
C3631 C3632 1.396 . S
C3631 C3636 1.390 . S
C3632 C3626 1.465 . S
C3632 C3631 1.396 . S
C3632 C3633 1.399 . S
C3633 H3619 0.929 1_455 S
C3633 C3632 1.399 . S
C3633 C3634 1.385 . S
C3634 H3620 0.931 . S
C3634 C3633 1.385 . S
C3634 C3635 1.389 . S
C3635 C3634 1.389 . S
C3635 C3636 1.387 . S
C3636 H3621 0.930 . S
C3636 C3631 1.390 . S
C3636 C3635 1.387 . S
H3637 C3649 0.930 . S
H3638 C3651 0.930 . S
H3639 C3652 0.930 . S
H3640 C3656 0.959 . S
H3641 C3656 0.959 . S
H3642 C3656 0.961 . S
H3643 C3657 0.960 . S
H3644 C3657 0.961 . S
H3645 C3657 0.959 . S
H3646 C3660 0.929 . S
H3647 C3661 0.931 . S
H3648 C3663 0.930 . S
C3649 H3637 0.930 . S
C3649 C3650 1.399 . S
C3649 C3654 1.399 . S
C3650 C3649 1.399 . S
C3650 C3651 1.376 . S
C3651 H3638 0.930 . S
C3651 C3650 1.376 . S
C3651 C3652 1.388 . S
C3652 H3639 0.930 . S
C3652 C3651 1.388 . S
C3652 C3653 1.390 . S
C3653 C3652 1.390 . S
C3653 C3654 1.394 . S
C3653 C3659 1.465 . S
C3654 C3649 1.399 . S
C3654 C3653 1.394 . S
C3654 C3655 1.516 . S
C3655 C3654 1.516 . S
C3655 C3656 1.502 . S
C3655 C3657 1.561 . S
C3655 C3658 1.526 . S
C3656 H3640 0.959 . S
C3656 H3641 0.959 . S
C3656 H3642 0.961 . S
C3656 C3655 1.502 . S
C3657 H3643 0.960 . S
C3657 H3644 0.961 . S
C3657 H3645 0.959 . S
C3657 C3655 1.561 . S
C3658 C3655 1.526 . S
C3658 C3659 1.396 . S
C3658 C3663 1.390 . S
C3659 C3653 1.465 . S
C3659 C3658 1.396 . S
C3659 C3660 1.399 . S
C3660 H3646 0.929 . S
C3660 C3659 1.399 . S
C3660 C3661 1.385 . S
C3661 H3647 0.931 . S
C3661 C3660 1.385 . S
C3661 C3662 1.389 . S
C3662 C3661 1.389 . S
C3662 C3663 1.387 . S
C3663 H3648 0.930 . S
C3663 C3658 1.390 . S
C3663 C3662 1.387 . S
H3664 C3676 0.930 . S
H3665 C3678 0.930 . S
H3666 C3679 0.930 . S
H3667 C3683 0.959 . S
H3668 C3683 0.959 . S
H3669 C3683 0.961 . S
H3670 C3684 0.960 . S
H3671 C3684 0.961 . S
H3672 C3684 0.959 . S
H3673 C3687 0.929 . S
H3674 C3688 0.931 . S
H3675 C3690 0.930 . S
C3676 H3664 0.930 . S
C3676 C3677 1.399 . S
C3676 C3681 1.399 . S
C3677 C3676 1.399 . S
C3677 C3678 1.376 . S
C3678 H3665 0.930 . S
C3678 C3677 1.376 . S
C3678 C3679 1.388 . S
C3679 H3666 0.930 . S
C3679 C3678 1.388 . S
C3679 C3680 1.390 . S
C3680 C3679 1.390 . S
C3680 C3681 1.394 . S
C3680 C3686 1.465 . S
C3681 C3676 1.399 . S
C3681 C3680 1.394 . S
C3681 C3682 1.516 . S
C3682 C3681 1.516 . S
C3682 C3683 1.502 . S
C3682 C3684 1.561 . S
C3682 C3685 1.526 . S
C3683 H3667 0.959 . S
C3683 H3668 0.959 . S
C3683 H3669 0.961 . S
C3683 C3682 1.502 . S
C3684 H3670 0.960 . S
C3684 H3671 0.961 . S
C3684 H3672 0.959 . S
C3684 C3682 1.561 . S
C3685 C3682 1.526 . S
C3685 C3686 1.396 . S
C3685 C3690 1.390 . S
C3686 C3680 1.465 . S
C3686 C3685 1.396 . S
C3686 C3687 1.399 . S
C3687 H3673 0.929 . S
C3687 C3686 1.399 . S
C3687 C3688 1.385 . S
C3688 H3674 0.931 . S
C3688 C3687 1.385 . S
C3688 C3689 1.389 . S
C3689 C3688 1.389 . S
C3689 C3690 1.387 . S
C3690 H3675 0.930 . S
C3690 C3685 1.390 . S
C3690 C3689 1.387 . S
H3691 C3703 0.930 . S
H3692 C3705 0.930 . S
H3693 C3706 0.930 . S
H3694 C3710 0.959 . S
H3695 C3710 0.959 . S
H3696 C3710 0.961 . S
H3697 C3711 0.960 . S
H3698 C3711 0.961 . S
H3699 C3711 0.959 . S
H3700 C3714 0.929 . S
H3701 C3715 0.931 . S
H3702 C3717 0.930 . S
C3703 H3691 0.930 . S
C3703 C3704 1.399 . S
C3703 C3708 1.399 . S
C3704 C3703 1.399 . S
C3704 C3705 1.376 . S
C3705 H3692 0.930 . S
C3705 C3704 1.376 . S
C3705 C3706 1.388 . S
C3706 H3693 0.930 . S
C3706 C3705 1.388 . S
C3706 C3707 1.390 . S
C3707 C3706 1.390 . S
C3707 C3708 1.394 . S
C3707 C3713 1.465 . S
C3708 C3703 1.399 . S
C3708 C3707 1.394 . S
C3708 C3709 1.516 . S
C3709 C3708 1.516 . S
C3709 C3710 1.502 . S
C3709 C3711 1.561 . S
C3709 C3712 1.526 . S
C3710 H3694 0.959 . S
C3710 H3695 0.959 . S
C3710 H3696 0.961 . S
C3710 C3709 1.502 . S
C3711 H3697 0.960 . S
C3711 H3698 0.961 . S
C3711 H3699 0.959 . S
C3711 C3709 1.561 . S
C3712 C3709 1.526 . S
C3712 C3713 1.396 . S
C3712 C3717 1.390 . S
C3713 C3707 1.465 . S
C3713 C3712 1.396 . S
C3713 C3714 1.399 . S
C3714 H3700 0.929 . S
C3714 C3713 1.399 . S
C3714 C3715 1.385 . S
C3715 H3701 0.931 . S
C3715 C3714 1.385 . S
C3715 C3716 1.389 . S
C3716 C3715 1.389 . S
C3716 C3717 1.387 . S
C3717 H3702 0.930 . S
C3717 C3712 1.390 . S
C3717 C3716 1.387 . S
H3718 C3730 0.930 . S
H3719 C3732 0.930 . S
H3720 C3733 0.930 . S
H3721 C3737 0.959 . S
H3722 C3737 0.959 . S
H3723 C3737 0.961 . S
H3724 C3738 0.960 . S
H3725 C3738 0.961 . S
H3726 C3738 0.959 . S
H3727 C3741 0.929 . S
H3728 C3742 0.931 . S
H3729 C3744 0.960 . S
C3730 H3718 0.930 . S
C3730 C3731 1.399 . S
C3730 C3735 1.399 . S
C3731 C3730 1.399 . S
C3731 C3732 1.376 . S
C3732 H3719 0.930 . S
C3732 C3731 1.376 . S
C3732 C3733 1.388 . S
C3733 H3720 0.930 . S
C3733 C3732 1.388 . S
C3733 C3734 1.390 . S
C3734 C3733 1.390 . S
C3734 C3735 1.394 . S
C3734 C3740 1.465 . S
C3735 C3730 1.399 . S
C3735 C3734 1.394 . S
C3735 C3736 1.516 . S
C3736 C3735 1.516 . S
C3736 C3737 1.502 . S
C3736 C3738 1.561 1_655 S
C3736 C3739 1.526 . S
C3737 H3721 0.959 . S
C3737 H3722 0.959 . S
C3737 H3723 0.961 . S
C3737 C3736 1.502 . S
C3738 H3724 0.960 . S
C3738 H3725 0.961 . S
C3738 H3726 0.959 . S
C3738 C3736 1.561 1_455 S
C3739 C3736 1.526 . S
C3739 C3740 1.396 . S
C3739 C3744 1.369 1_655 S
C3740 C3734 1.465 . S
C3740 C3739 1.396 . S
C3740 C3741 1.399 . S
C3741 H3727 0.929 . S
C3741 C3740 1.399 . S
C3741 C3742 1.385 . S
C3742 H3728 0.931 . S
C3742 C3741 1.385 . S
C3742 C3743 1.389 1_655 S
C3743 C3742 1.389 1_455 S
C3743 C3744 1.378 . S
C3744 H3729 0.960 . S
C3744 C3739 1.369 1_455 S
C3744 C3743 1.378 . S
H3745 C3757 0.930 . S
H3746 C3759 0.930 . S
H3747 C3760 0.930 . S
H3748 C3764 0.959 . S
H3749 C3764 0.959 . S
H3750 C3764 0.961 . S
H3751 C3765 0.960 . S
H3752 C3765 0.961 . S
H3753 C3765 0.959 . S
H3754 C3768 0.929 . S
H3755 C3769 0.931 . S
H3756 C3771 0.930 . S
C3757 H3745 0.930 . S
C3757 C3758 1.399 . S
C3757 C3762 1.399 . S
C3758 C3757 1.399 . S
C3758 C3759 1.376 . S
C3759 H3746 0.930 . S
C3759 C3758 1.376 . S
C3759 C3760 1.388 . S
C3760 H3747 0.930 . S
C3760 C3759 1.388 . S
C3760 C3761 1.390 . S
C3761 C3760 1.390 . S
C3761 C3762 1.394 . S
C3761 C3767 1.465 . S
C3762 C3757 1.399 . S
C3762 C3761 1.394 . S
C3762 C3763 1.516 . S
C3763 C3762 1.516 . S
C3763 C3764 1.502 . S
C3763 C3765 1.561 . S
C3763 C3766 1.526 . S
C3764 H3748 0.959 . S
C3764 H3749 0.959 . S
C3764 H3750 0.961 . S
C3764 C3763 1.502 . S
C3765 H3751 0.960 . S
C3765 H3752 0.961 . S
C3765 H3753 0.959 . S
C3765 C3763 1.561 . S
C3766 C3763 1.526 . S
C3766 C3767 1.396 . S
C3766 C3771 1.390 . S
C3767 C3761 1.465 . S
C3767 C3766 1.396 . S
C3767 C3768 1.399 . S
C3768 H3754 0.929 . S
C3768 C3767 1.399 . S
C3768 C3769 1.385 . S
C3769 H3755 0.931 . S
C3769 C3768 1.385 . S
C3769 C3770 1.389 . S
C3770 C3769 1.389 . S
C3770 C3771 1.387 . S
C3771 H3756 0.930 . S
C3771 C3766 1.390 . S
C3771 C3770 1.387 . S
H3772 C3784 0.930 . S
H3773 C3786 0.930 . S
H3774 C3787 0.930 . S
H3775 C3791 0.959 . S
H3776 C3791 0.959 . S
H3777 C3791 0.961 . S
H3778 C3792 0.960 . S
H3779 C3792 0.961 . S
H3780 C3792 0.959 . S
H3781 C3795 0.929 . S
H3782 C3796 0.931 . S
H3783 C3798 0.930 . S
C3784 H3772 0.930 . S
C3784 C3785 1.399 . S
C3784 C3789 1.399 . S
C3785 C3784 1.399 . S
C3785 C3786 1.376 . S
C3786 H3773 0.930 . S
C3786 C3785 1.376 . S
C3786 C3787 1.388 . S
C3787 H3774 0.930 . S
C3787 C3786 1.388 . S
C3787 C3788 1.390 . S
C3788 C3787 1.390 . S
C3788 C3789 1.394 . S
C3788 C3794 1.465 . S
C3789 C3784 1.399 . S
C3789 C3788 1.394 . S
C3789 C3790 1.516 . S
C3790 C3789 1.516 . S
C3790 C3791 1.502 . S
C3790 C3792 1.561 . S
C3790 C3793 1.526 . S
C3791 H3775 0.959 . S
C3791 H3776 0.959 . S
C3791 H3777 0.961 . S
C3791 C3790 1.502 . S
C3792 H3778 0.960 . S
C3792 H3779 0.961 . S
C3792 H3780 0.959 . S
C3792 C3790 1.561 . S
C3793 C3790 1.526 . S
C3793 C3794 1.396 . S
C3793 C3798 1.390 . S
C3794 C3788 1.465 . S
C3794 C3793 1.396 . S
C3794 C3795 1.399 . S
C3795 H3781 0.929 . S
C3795 C3794 1.399 . S
C3795 C3796 1.385 . S
C3796 H3782 0.931 . S
C3796 C3795 1.385 . S
C3796 C3797 1.389 . S
C3797 C3796 1.389 . S
C3797 C3798 1.387 . S
C3798 H3783 0.930 . S
C3798 C3793 1.390 . S
C3798 C3797 1.387 . S
H3799 C3811 0.930 . S
H3800 C3813 0.930 . S
H3801 C3814 0.930 . S
H3802 C3818 0.959 . S
H3803 C3818 0.959 . S
H3804 C3818 0.961 . S
H3805 C3819 0.960 . S
H3806 C3819 0.961 . S
H3807 C3819 0.959 . S
H3808 C3822 0.929 . S
H3809 C3823 0.931 . S
H3810 C3825 0.930 . S
C3811 H3799 0.930 . S
C3811 C3812 1.399 . S
C3811 C3816 1.399 . S
C3812 C3811 1.399 . S
C3812 C3813 1.376 . S
C3813 H3800 0.930 . S
C3813 C3812 1.376 . S
C3813 C3814 1.388 . S
C3814 H3801 0.930 . S
C3814 C3813 1.388 . S
C3814 C3815 1.390 . S
C3815 C3814 1.390 . S
C3815 C3816 1.394 . S
C3815 C3821 1.465 . S
C3816 C3811 1.399 . S
C3816 C3815 1.394 . S
C3816 C3817 1.516 . S
C3817 C3816 1.516 . S
C3817 C3818 1.502 . S
C3817 C3819 1.561 . S
C3817 C3820 1.526 . S
C3818 H3802 0.959 . S
C3818 H3803 0.959 . S
C3818 H3804 0.961 . S
C3818 C3817 1.502 . S
C3819 H3805 0.960 . S
C3819 H3806 0.961 . S
C3819 H3807 0.959 . S
C3819 C3817 1.561 . S
C3820 C3817 1.526 . S
C3820 C3821 1.396 . S
C3820 C3825 1.390 . S
C3821 C3815 1.465 . S
C3821 C3820 1.396 . S
C3821 C3822 1.399 . S
C3822 H3808 0.929 . S
C3822 C3821 1.399 . S
C3822 C3823 1.385 . S
C3823 H3809 0.931 . S
C3823 C3822 1.385 . S
C3823 C3824 1.389 . S
C3824 C3823 1.389 . S
C3824 C3825 1.387 . S
C3825 H3810 0.930 . S
C3825 C3820 1.390 . S
C3825 C3824 1.387 . S
H3826 C3838 0.930 . S
H3827 C3840 0.930 . S
H3828 C3841 0.930 . S
H3829 C3845 0.959 . S
H3830 C3845 0.959 . S
H3831 C3845 0.961 . S
H3832 C3846 0.960 . S
H3833 C3846 0.961 . S
H3834 C3846 0.959 . S
H3835 C3849 0.929 . S
H3836 C3850 0.931 . S
H3837 C3852 0.930 . S
C3838 H3826 0.930 . S
C3838 C3839 1.399 . S
C3838 C3843 1.399 . S
C3839 C3838 1.399 . S
C3839 C3840 1.376 . S
C3840 H3827 0.930 . S
C3840 C3839 1.376 . S
C3840 C3841 1.388 . S
C3841 H3828 0.930 . S
C3841 C3840 1.388 . S
C3841 C3842 1.390 . S
C3842 C3841 1.390 . S
C3842 C3843 1.394 . S
C3842 C3848 1.465 . S
C3843 C3838 1.399 . S
C3843 C3842 1.394 . S
C3843 C3844 1.516 . S
C3844 C3843 1.516 . S
C3844 C3845 1.502 . S
C3844 C3846 1.561 . S
C3844 C3847 1.526 . S
C3845 H3829 0.959 . S
C3845 H3830 0.959 . S
C3845 H3831 0.961 . S
C3845 C3844 1.502 . S
C3846 H3832 0.960 . S
C3846 H3833 0.961 . S
C3846 H3834 0.959 . S
C3846 C3844 1.561 . S
C3847 C3844 1.526 . S
C3847 C3848 1.396 . S
C3847 C3852 1.390 . S
C3848 C3842 1.465 . S
C3848 C3847 1.396 . S
C3848 C3849 1.399 . S
C3849 H3835 0.929 . S
C3849 C3848 1.399 . S
C3849 C3850 1.385 . S
C3850 H3836 0.931 . S
C3850 C3849 1.385 . S
C3850 C3851 1.389 . S
C3851 C3850 1.389 . S
C3851 C3852 1.387 . S
C3852 H3837 0.930 . S
C3852 C3847 1.390 . S
C3852 C3851 1.387 . S
H3853 C3865 0.930 . S
H3854 C3867 0.930 . S
H3855 C3868 0.930 . S
H3856 C3872 0.959 . S
H3857 C3872 0.959 . S
H3858 C3872 0.961 . S
H3859 C3873 0.960 . S
H3860 C3873 0.961 . S
H3861 C3873 0.959 . S
H3862 C3876 0.929 . S
H3863 C3877 0.931 . S
H3864 C3879 0.930 . S
C3865 H3853 0.930 . S
C3865 C3866 1.399 . S
C3865 C3870 1.399 . S
C3866 C3865 1.399 . S
C3866 C3867 1.376 . S
C3867 H3854 0.930 . S
C3867 C3866 1.376 . S
C3867 C3868 1.388 . S
C3868 H3855 0.930 . S
C3868 C3867 1.388 . S
C3868 C3869 1.390 . S
C3869 C3868 1.390 . S
C3869 C3870 1.394 . S
C3869 C3875 1.465 . S
C3870 C3865 1.399 . S
C3870 C3869 1.394 . S
C3870 C3871 1.516 . S
C3871 C3870 1.516 . S
C3871 C3872 1.502 . S
C3871 C3873 1.561 . S
C3871 C3874 1.526 . S
C3872 H3856 0.959 . S
C3872 H3857 0.959 . S
C3872 H3858 0.961 . S
C3872 C3871 1.502 . S
C3873 H3859 0.960 . S
C3873 H3860 0.961 . S
C3873 H3861 0.959 . S
C3873 C3871 1.561 . S
C3874 C3871 1.526 . S
C3874 C3875 1.396 . S
C3874 C3879 1.390 . S
C3875 C3869 1.465 . S
C3875 C3874 1.396 . S
C3875 C3876 1.399 . S
C3876 H3862 0.929 . S
C3876 C3875 1.399 . S
C3876 C3877 1.385 . S
C3877 H3863 0.931 . S
C3877 C3876 1.385 . S
C3877 C3878 1.389 . S
C3878 C3877 1.389 . S
C3878 C3879 1.387 . S
C3879 H3864 0.930 . S
C3879 C3874 1.390 . S
C3879 C3878 1.387 . S
H3880 C3892 0.930 . S
H3881 C3894 0.930 . S
H3882 C3895 0.930 . S
H3883 C3899 0.959 . S
H3884 C3899 0.959 . S
H3885 C3899 0.961 . S
H3886 C3900 0.960 . S
H3887 C3900 0.961 . S
H3888 C3900 0.959 . S
H3889 C3903 0.929 . S
H3890 C3904 0.931 . S
H3891 C3906 0.930 . S
C3892 H3880 0.930 . S
C3892 C3893 1.399 . S
C3892 C3897 1.399 . S
C3893 C3892 1.399 . S
C3893 C3894 1.376 . S
C3894 H3881 0.930 . S
C3894 C3893 1.376 . S
C3894 C3895 1.388 . S
C3895 H3882 0.930 . S
C3895 C3894 1.388 . S
C3895 C3896 1.390 . S
C3896 C3895 1.390 . S
C3896 C3897 1.394 . S
C3896 C3902 1.465 . S
C3897 C3892 1.399 . S
C3897 C3896 1.394 . S
C3897 C3898 1.516 . S
C3898 C3897 1.516 . S
C3898 C3899 1.502 . S
C3898 C3900 1.561 . S
C3898 C3901 1.526 . S
C3899 H3883 0.959 . S
C3899 H3884 0.959 . S
C3899 H3885 0.961 . S
C3899 C3898 1.502 . S
C3900 H3886 0.960 . S
C3900 H3887 0.961 . S
C3900 H3888 0.959 . S
C3900 C3898 1.561 . S
C3901 C3898 1.526 . S
C3901 C3902 1.396 . S
C3901 C3906 1.390 . S
C3902 C3896 1.465 . S
C3902 C3901 1.396 . S
C3902 C3903 1.399 . S
C3903 H3889 0.929 . S
C3903 C3902 1.399 . S
C3903 C3904 1.385 . S
C3904 H3890 0.931 . S
C3904 C3903 1.385 . S
C3904 C3905 1.389 . S
C3905 C3904 1.389 . S
C3905 C3906 1.387 . S
C3906 H3891 0.930 . S
C3906 C3901 1.390 . S
C3906 C3905 1.387 . S
H3907 C3919 0.930 . S
H3908 C3921 0.930 . S
H3909 C3922 0.930 . S
H3910 C3926 0.959 . S
H3911 C3926 0.943 1_545 S
H3912 C3926 0.961 . S
H3913 C3927 0.960 . S
H3914 C3927 0.961 . S
H3915 C3927 0.959 . S
H3916 C3930 0.929 . S
H3917 C3931 0.931 . S
H3918 C3933 0.930 . S
C3919 H3907 0.930 . S
C3919 C3920 1.399 . S
C3919 C3924 1.399 . S
C3920 C3919 1.399 . S
C3920 C3921 1.376 . S
C3921 H3908 0.930 . S
C3921 C3920 1.376 . S
C3921 C3922 1.388 . S
C3922 H3909 0.930 . S
C3922 C3921 1.388 . S
C3922 C3923 1.390 . S
C3923 C3922 1.390 . S
C3923 C3924 1.394 . S
C3923 C3929 1.465 . S
C3924 C3919 1.399 . S
C3924 C3923 1.394 . S
C3924 C3925 1.516 . S
C3925 C3924 1.516 . S
C3925 C3926 1.502 . S
C3925 C3927 1.561 . S
C3925 C3928 1.526 . S
C3926 H3910 0.959 . S
C3926 H3911 0.943 1_565 S
C3926 H3912 0.961 . S
C3926 C3925 1.502 . S
C3927 H3913 0.960 . S
C3927 H3914 0.961 . S
C3927 H3915 0.959 . S
C3927 C3925 1.561 . S
C3928 C3925 1.526 . S
C3928 C3929 1.396 . S
C3928 C3933 1.390 . S
C3929 C3923 1.465 . S
C3929 C3928 1.396 . S
C3929 C3930 1.399 . S
C3930 H3916 0.929 . S
C3930 C3929 1.399 . S
C3930 C3931 1.385 . S
C3931 H3917 0.931 . S
C3931 C3930 1.385 . S
C3931 C3932 1.389 . S
C3932 C3931 1.389 . S
C3932 C3933 1.387 . S
C3933 H3918 0.930 . S
C3933 C3928 1.390 . S
C3933 C3932 1.387 . S
H3934 C3946 0.930 . S
H3935 C3948 0.930 . S
H3936 C3949 0.930 . S
H3937 C3953 0.959 . S
H3938 C3953 0.959 . S
H3939 C3953 0.961 . S
H3940 C3954 0.960 . S
H3941 C3954 0.961 . S
H3942 C3954 0.959 . S
H3943 C3957 0.929 . S
H3944 C3958 0.931 . S
H3945 C3960 0.930 . S
C3946 H3934 0.930 . S
C3946 C3947 1.399 . S
C3946 C3951 1.399 . S
C3947 C3946 1.399 . S
C3947 C3948 1.376 . S
C3948 H3935 0.930 . S
C3948 C3947 1.376 . S
C3948 C3949 1.388 . S
C3949 H3936 0.930 . S
C3949 C3948 1.388 . S
C3949 C3950 1.390 . S
C3950 C3949 1.390 . S
C3950 C3951 1.394 . S
C3950 C3956 1.465 . S
C3951 C3946 1.399 . S
C3951 C3950 1.394 . S
C3951 C3952 1.516 . S
C3952 C3951 1.516 . S
C3952 C3953 1.502 . S
C3952 C3954 1.561 . S
C3952 C3955 1.526 . S
C3953 H3937 0.959 . S
C3953 H3938 0.959 . S
C3953 H3939 0.961 . S
C3953 C3952 1.502 . S
C3954 H3940 0.960 . S
C3954 H3941 0.961 . S
C3954 H3942 0.959 . S
C3954 C3952 1.561 . S
C3955 C3952 1.526 . S
C3955 C3956 1.396 . S
C3955 C3960 1.390 . S
C3956 C3950 1.465 . S
C3956 C3955 1.396 . S
C3956 C3957 1.399 . S
C3957 H3943 0.929 . S
C3957 C3956 1.399 . S
C3957 C3958 1.385 . S
C3958 H3944 0.931 . S
C3958 C3957 1.385 . S
C3958 C3959 1.389 . S
C3959 C3958 1.389 . S
C3959 C3960 1.387 . S
C3960 H3945 0.930 . S
C3960 C3955 1.390 . S
C3960 C3959 1.387 . S
H3961 C3973 0.930 . S
H3962 C3975 0.930 . S
H3963 C3976 0.930 . S
H3964 C3980 0.959 . S
H3965 C3980 0.959 . S
H3966 C3980 0.961 . S
H3967 C3981 0.960 . S
H3968 C3981 0.961 . S
H3969 C3981 0.959 . S
H3970 C3984 0.929 . S
H3971 C3985 0.931 . S
H3972 C3987 0.930 . S
C3973 H3961 0.930 . S
C3973 C3974 1.399 . S
C3973 C3978 1.399 . S
C3974 C3973 1.399 . S
C3974 C3975 1.376 . S
C3975 H3962 0.930 . S
C3975 C3974 1.376 . S
C3975 C3976 1.388 . S
C3976 H3963 0.930 . S
C3976 C3975 1.388 . S
C3976 C3977 1.390 . S
C3977 C3976 1.390 . S
C3977 C3978 1.394 . S
C3977 C3983 1.465 . S
C3978 C3973 1.399 . S
C3978 C3977 1.394 . S
C3978 C3979 1.516 . S
C3979 C3978 1.516 . S
C3979 C3980 1.502 . S
C3979 C3981 1.561 . S
C3979 C3982 1.526 . S
C3980 H3964 0.959 . S
C3980 H3965 0.959 . S
C3980 H3966 0.961 . S
C3980 C3979 1.502 . S
C3981 H3967 0.960 . S
C3981 H3968 0.961 . S
C3981 H3969 0.959 . S
C3981 C3979 1.561 . S
C3982 C3979 1.526 . S
C3982 C3983 1.396 . S
C3982 C3987 1.390 . S
C3983 C3977 1.465 . S
C3983 C3982 1.396 . S
C3983 C3984 1.399 . S
C3984 H3970 0.929 . S
C3984 C3983 1.399 . S
C3984 C3985 1.385 . S
C3985 H3971 0.931 . S
C3985 C3984 1.385 . S
C3985 C3986 1.389 . S
C3986 C3985 1.389 . S
C3986 C3987 1.387 . S
C3987 H3972 0.930 . S
C3987 C3982 1.390 . S
C3987 C3986 1.387 . S
H3988 C4000 0.930 . S
H3989 C4002 0.930 . S
H3990 C4003 0.930 . S
H3991 C4007 0.959 . S
H3992 C4007 0.959 . S
H3993 C4007 0.961 . S
H3994 C4008 0.960 . S
H3995 C4008 0.961 . S
H3996 C4008 0.959 . S
H3997 C4011 0.929 . S
H3998 C4012 0.931 . S
H3999 C4014 0.930 . S
C4000 H3988 0.930 . S
C4000 C4001 1.399 . S
C4000 C4005 1.399 . S
C4001 C4000 1.399 . S
C4001 C4002 1.376 . S
C4002 H3989 0.930 . S
C4002 C4001 1.376 . S
C4002 C4003 1.388 . S
C4003 H3990 0.930 . S
C4003 C4002 1.388 . S
C4003 C4004 1.390 . S
C4004 C4003 1.390 . S
C4004 C4005 1.394 . S
C4004 C4010 1.465 . S
C4005 C4000 1.399 . S
C4005 C4004 1.394 . S
C4005 C4006 1.516 . S
C4006 C4005 1.516 . S
C4006 C4007 1.502 . S
C4006 C4008 1.561 . S
C4006 C4009 1.526 . S
C4007 H3991 0.959 . S
C4007 H3992 0.959 . S
C4007 H3993 0.961 . S
C4007 C4006 1.502 . S
C4008 H3994 0.960 . S
C4008 H3995 0.961 . S
C4008 H3996 0.959 . S
C4008 C4006 1.561 . S
C4009 C4006 1.526 . S
C4009 C4010 1.396 . S
C4009 C4014 1.390 . S
C4010 C4004 1.465 . S
C4010 C4009 1.396 . S
C4010 C4011 1.399 . S
C4011 H3997 0.929 . S
C4011 C4010 1.399 . S
C4011 C4012 1.385 . S
C4012 H3998 0.931 . S
C4012 C4011 1.385 . S
C4012 C4013 1.389 . S
C4013 C4012 1.389 . S
C4013 C4014 1.387 . S
C4014 H3999 0.930 . S
C4014 C4009 1.390 . S
C4014 C4013 1.387 . S
H4015 C4027 0.930 . S
H4016 C4029 0.930 . S
H4017 C4030 0.930 1_556 S
H4018 C4034 0.959 . S
H4019 C4034 0.959 . S
H4020 C4034 0.961 . S
H4021 C4035 0.960 . S
H4022 C4035 0.961 . S
H4023 C4035 0.959 . S
H4024 C4038 0.929 . S
H4025 C4039 0.931 . S
H4026 C4041 0.930 . S
C4027 H4015 0.930 . S
C4027 C4028 1.399 . S
C4027 C4032 1.399 . S
C4028 C4027 1.399 . S
C4028 C4029 1.376 . S
C4029 H4016 0.930 . S
C4029 C4028 1.376 . S
C4029 C4030 1.388 . S
C4030 H4017 0.930 1_554 S
C4030 C4029 1.388 . S
C4030 C4031 1.390 . S
C4031 C4030 1.390 . S
C4031 C4032 1.394 . S
C4031 C4037 1.465 . S
C4032 C4027 1.399 . S
C4032 C4031 1.394 . S
C4032 C4033 1.516 . S
C4033 C4032 1.516 . S
C4033 C4034 1.502 . S
C4033 C4035 1.561 . S
C4033 C4036 1.526 . S
C4034 H4018 0.959 . S
C4034 H4019 0.959 . S
C4034 H4020 0.961 . S
C4034 C4033 1.502 . S
C4035 H4021 0.960 . S
C4035 H4022 0.961 . S
C4035 H4023 0.959 . S
C4035 C4033 1.561 . S
C4036 C4033 1.526 . S
C4036 C4037 1.396 . S
C4036 C4041 1.390 . S
C4037 C4031 1.465 . S
C4037 C4036 1.396 . S
C4037 C4038 1.399 1_554 S
C4038 H4024 0.929 . S
C4038 C4037 1.399 1_556 S
C4038 C4039 1.385 . S
C4039 H4025 0.931 . S
C4039 C4038 1.385 . S
C4039 C4040 1.389 1_556 S
C4040 C4039 1.389 1_554 S
C4040 C4041 1.387 . S
C4041 H4026 0.930 . S
C4041 C4036 1.390 . S
C4041 C4040 1.387 . S
H4042 C4054 0.930 . S
H4043 C4056 0.930 . S
H4044 C4057 0.930 . S
H4045 C4061 0.959 . S
H4046 C4061 0.959 . S
H4047 C4061 0.961 . S
H4048 C4062 0.960 . S
H4049 C4062 0.961 . S
H4050 C4062 0.959 . S
H4051 C4065 0.929 . S
H4052 C4066 0.931 . S
H4053 C4068 0.930 . S
C4054 H4042 0.930 . S
C4054 C4055 1.399 . S
C4054 C4059 1.399 . S
C4055 C4054 1.399 . S
C4055 C4056 1.376 . S
C4056 H4043 0.930 . S
C4056 C4055 1.376 . S
C4056 C4057 1.388 . S
C4057 H4044 0.930 . S
C4057 C4056 1.388 . S
C4057 C4058 1.390 . S
C4058 C4057 1.390 . S
C4058 C4059 1.394 . S
C4058 C4064 1.465 . S
C4059 C4054 1.399 . S
C4059 C4058 1.394 . S
C4059 C4060 1.516 . S
C4060 C4059 1.516 . S
C4060 C4061 1.502 . S
C4060 C4062 1.561 . S
C4060 C4063 1.526 . S
C4061 H4045 0.959 . S
C4061 H4046 0.959 . S
C4061 H4047 0.961 . S
C4061 C4060 1.502 . S
C4062 H4048 0.960 . S
C4062 H4049 0.961 . S
C4062 H4050 0.959 . S
C4062 C4060 1.561 . S
C4063 C4060 1.526 . S
C4063 C4064 1.396 . S
C4063 C4068 1.390 . S
C4064 C4058 1.465 . S
C4064 C4063 1.396 . S
C4064 C4065 1.399 . S
C4065 H4051 0.929 . S
C4065 C4064 1.399 . S
C4065 C4066 1.385 . S
C4066 H4052 0.931 . S
C4066 C4065 1.385 . S
C4066 C4067 1.389 . S
C4067 C4066 1.389 . S
C4067 C4068 1.387 . S
C4068 H4053 0.930 . S
C4068 C4063 1.390 . S
C4068 C4067 1.387 . S
H4069 C4081 0.930 . S
H4070 C4083 0.930 . S
H4071 C4084 0.930 . S
H4072 C4088 0.959 . S
H4073 C4088 0.959 . S
H4074 C4088 0.961 . S
H4075 C4089 0.960 . S
H4076 C4089 0.961 . S
H4077 C4089 0.959 . S
H4078 C4092 0.929 . S
H4079 C4093 0.931 . S
H4080 C4095 0.930 . S
C4081 H4069 0.930 . S
C4081 C4082 1.399 . S
C4081 C4086 1.399 . S
C4082 C4081 1.399 . S
C4082 C4083 1.376 . S
C4083 H4070 0.930 . S
C4083 C4082 1.376 . S
C4083 C4084 1.388 . S
C4084 H4071 0.930 . S
C4084 C4083 1.388 . S
C4084 C4085 1.390 . S
C4085 C4084 1.390 . S
C4085 C4086 1.394 . S
C4085 C4091 1.465 . S
C4086 C4081 1.399 . S
C4086 C4085 1.394 . S
C4086 C4087 1.516 . S
C4087 C4086 1.516 . S
C4087 C4088 1.502 . S
C4087 C4089 1.561 . S
C4087 C4090 1.526 . S
C4088 H4072 0.959 . S
C4088 H4073 0.959 . S
C4088 H4074 0.961 . S
C4088 C4087 1.502 . S
C4089 H4075 0.960 . S
C4089 H4076 0.961 . S
C4089 H4077 0.959 . S
C4089 C4087 1.561 . S
C4090 C4087 1.526 . S
C4090 C4091 1.396 . S
C4090 C4095 1.390 . S
C4091 C4085 1.465 . S
C4091 C4090 1.396 . S
C4091 C4092 1.399 . S
C4092 H4078 0.929 . S
C4092 C4091 1.399 . S
C4092 C4093 1.385 . S
C4093 H4079 0.931 . S
C4093 C4092 1.385 . S
C4093 C4094 1.389 . S
C4094 C4093 1.389 . S
C4094 C4095 1.387 . S
C4095 H4080 0.930 . S
C4095 C4090 1.390 . S
C4095 C4094 1.387 . S
C1517 C255 2.229 . S
C1529 C874 2.197 . S
C1544 C147 2.039 . S
C1556 C922 2.019 . S
C1571 C184 1.261 . S
C1583 C954 1.258 . S
C1610 C999 1.533 . S
C1598 C220 1.588 . S
C1625 C40 0.873 . S
C1637 C1039 0.881 . S
C1664 C1074 1.061 . S
C1652 C74 1.061 . S
C1691 C1113 1.214 . S
C1679 C110 1.201 . S
C1706 C14 1.220 . S
C1718 C1150 1.173 . S
C1745 C882 2.070 . S
C1733 C579 2.052 1_545 S
C1760 C616 0.427 . S
C1772 C919 0.561 . S
C1799 C962 2.405 . S
C1787 C687 2.439 . S
C1826 C994 1.152 . S
C1814 C436 1.140 . S
C1841 C580 1.265 . S
C1853 C1034 1.262 . S
C1880 C1082 0.563 . S
C1868 C615 0.331 . S
C1907 C1123 2.055 1_556 S
C1895 C688 2.117 . S
C1934 C1153 1.980 . S
C1922 C435 1.989 . S
C1961 C879 1.247 . S
C1949 C410 1.315 1_554 S
C1976 C722 2.219 . S
C1988 C1202 2.200 . S
C2015 C1239 1.269 . S
C2003 C842 1.268 . S
C2042 C1270 0.603 . S
C2030 C794 0.662 . S
C2057 C302 2.713 . S
C2069 C1163 2.745 . S
C2084 C338 1.455 . S
C2096 C959 1.450 . S
C2111 C830 1.806 . S
C2123 C1322 1.816 . S
C2150 C1354 1.876 . S
C2138 C758 1.847 . S
C2177 C883 2.145 . S
C2165 C158 2.147 . S
C2204 C1353 1.992 . S
C2192 C254 2.019 . S
C2219 C218 1.262 . S
C2231 C963 1.279 . S
C2246 C194 1.532 . S
C2258 C1310 1.501 . S
C2285 C1030 0.877 . S
C2273 C3 0.885 . S
C2300 C111 0.856 . S
C2312 C1243 0.840 . S
C2339 C1122 1.195 . S
C2327 C76 1.184 . S
C2366 C1399 1.260 . S
C2354 C50 1.131 . S
C2393 C873 2.034 . S
C2381 C364 2.039 . S
C2420 C1350 0.503 . S
C2408 C795 0.493 . S
C2435 C292 2.353 . S
C2447 C953 2.362 . S
C2462 C723 1.093 . S
C2474 C1323 1.052 . S
C2489 C363 1.256 . S
C2501 C1043 1.238 . S
C2528 C1233 0.462 . S
C2516 C796 0.516 . S
C2543 C291 2.072 . S
C2555 C1114 1.974 . S
C2570 C724 2.002 . S
C2582 C1402 1.998 . S
C2597 C482 1.173 . S
C2609 C870 1.429 . S
C2624 C434 2.192 . S
C2636 C1193 2.146 . S
C2651 C662 1.216 . S
C2663 C1070 1.187 . S
C2678 C614 0.611 . S
C2690 C1279 0.676 . S
C2717 C1394 2.748 . S
C2705 C698 2.768 . S
C2732 C554 1.386 . S
C2744 C950 1.393 . S
C2771 C993 1.753 . S
C2759 C650 1.778 . S
C2798 C923 1.858 . S
C2786 C506 1.863 . S
C2813 C183 2.242 . S
C2825 C1434 2.146 . S
C2852 C1362 2.020 . S
C2840 C219 2.011 . S
C2867 C256 1.276 . S
C2879 C1474 1.283 . S
C2894 C148 1.560 1_655 S
C2906 C1319 1.564 . S
C2921 C122 0.928 . S
C2933 C1199 0.921 . S
C2960 C1234 0.954 . S
C2948 C2 0.962 . S
C2987 C1273 1.096 . S
C2975 C39 1.061 . S
C3014 C1390 1.234 . S
C3002 C86 1.276 . S
C3041 C1442 2.068 . S
C3029 C651 2.078 . S
C3056 C472 0.460 . S
C3068 C1359 0.575 . S
C3095 C1482 2.402 . S
C3083 C507 2.429 . S
C3122 C1314 1.154 . S
C3110 C544 1.164 . S
C3149 C1194 1.287 . S
C3137 C652 1.284 . S
C3164 C471 0.477 . S
C3176 C1242 0.303 . S
C3203 C1283 2.051 . S
C3191 C508 2.100 . S
C3218 C543 2.018 . S
C3230 C1393 2.003 . S
C3257 C1439 1.355 . S
C3245 C806 1.398 . S
C3272 C326 2.194 . S
C3284 C1042 2.183 . S
C3311 C1079 1.192 . S
C3299 C374 1.177 1_565 S
C3338 C1110 0.748 . S
C3326 C398 0.681 . S
C3365 C1403 2.753 . S
C3353 C770 2.716 . S
C3380 C734 1.405 . S
C3392 C1479 1.392 . S
C3419 C1002 1.808 . S
C3407 C362 1.799 . S
C3446 C914 1.911 . S
C3434 C290 1.907 . S
C3461 C230 2.170 . S
C3473 C1443 2.195 . S
C3500 C913 2.028 . S
C3488 C182 2.005 . S
C3515 C146 1.278 . S
C3527 C1483 1.286 . S
C3542 C266 1.442 . S
C3554 C990 1.564 . S
C3569 C75 0.925 . S
C3581 C1190 0.925 . S
C3608 C1083 0.997 . S
C3596 C38 1.014 . S
C3623 C4 1.112 . S
C3635 C1282 1.141 . S
C3650 C112 1.190 . S
C3662 C1159 1.199 . S
C3689 C1433 2.039 . S
C3677 C832 2.039 . S
C3704 C399 0.257 . S
C3716 C910 0.625 . S
C3743 C1473 2.358 . S
C3731 C760 2.373 . S
C3758 C327 1.086 . S
C3770 C1003 1.046 . S
C3785 C831 1.275 . S
C3797 C1203 1.257 . S
C3824 C1073 0.473 . S
C3812 C400 0.445 . S
C3839 C759 2.091 . S
C3851 C1274 1.969 1_655 S
C3878 C1162 1.994 . S
C3866 C328 2.021 . S
C3905 C1430 1.364 . S
C3893 C626 1.301 . S
C3932 C1033 2.178 1_565 S
C3920 C542 2.166 . S
C3947 C590 1.070 . S
C3959 C1230 1.212 . S
C3986 C1119 0.574 . S
C3974 C470 0.603 . S
C4001 C518 2.718 . S
C4013 C1154 2.760 . S
C4028 C446 1.294 . S
C4040 C1470 1.425 . S
C4067 C1313 1.795 . S
C4055 C578 1.772 . S
C4094 C1363 1.825 . S
C4082 C686 1.834 . S
