# Generated by pormake.
# Topology tsx, (6,3)-cn, num edge types: 1
# Building blocks:
#     Node 0, Type 0, BuildingBlock: VOLQOD_clean_sbu_1, # of connection points: 6
#     Node 1, Type 0, BuildingBlock: VOLQOD_clean_sbu_1, # of connection points: 6
#     Node 2, Type 1, BuildingBlock: OLANEW_clean_sbu_2, # of connection points: 3
#     Node 3, Type 1, BuildingBlock: OLANEW_clean_sbu_2, # of connection points: 3
#     Node 4, Type 1, BuildingBlock: OLANEW_clean_sbu_2, # of connection points: 3
#     Node 5, Type 1, BuildingBlock: OLANEW_clean_sbu_2, # of connection points: 3
#     Edge 6, Type (0, 1), BuildingBlock: XUDNAN_clean_linker_2, # of connection points: 2
#     Edge 7, Type (0, 1), BuildingBlock: XUDNAN_clean_linker_2, # of connection points: 2
#     Edge 8, Type (0, 1), BuildingBlock: XUDNAN_clean_linker_2, # of connection points: 2
#     Edge 9, Type (0, 1), BuildingBlock: XUDNAN_clean_linker_2, # of connection points: 2
#     Edge 10, Type (0, 1), BuildingBlock: XUDNAN_clean_linker_2, # of connection points: 2
#     Edge 11, Type (0, 1), BuildingBlock: XUDNAN_clean_linker_2, # of connection points: 2
#     Edge 12, Type (0, 1), BuildingBlock: XUDNAN_clean_linker_2, # of connection points: 2
#     Edge 13, Type (0, 1), BuildingBlock: XUDNAN_clean_linker_2, # of connection points: 2
#     Edge 14, Type (0, 1), BuildingBlock: XUDNAN_clean_linker_2, # of connection points: 2
#     Edge 15, Type (0, 1), BuildingBlock: XUDNAN_clean_linker_2, # of connection points: 2
#     Edge 16, Type (0, 1), BuildingBlock: XUDNAN_clean_linker_2, # of connection points: 2
#     Edge 17, Type (0, 1), BuildingBlock: XUDNAN_clean_linker_2, # of connection points: 2
# Relax obj value: 0.029
# Max RMSD: 0.075
# Mean RMSD: 0.070
data_MOF--net-tsx--node1-VOLQOD_clean_sbu_1--node2-OLANEW_clean_sbu_2--edge1-XUDNAN_clean_linker_2
_symmetry_space_group_name_H-M    P1
_symmetry_Int_Tables_number       1
_symmetry_cell_setting            triclinic
loop_
_symmetry_equiv_pos_as_xyz
'x, y, z'
_cell_length_a     22.650399
_cell_length_b     23.436809
_cell_length_c     38.758447
_cell_angle_alpha  95.771039
_cell_angle_beta   89.941633
_cell_angle_gamma 89.802336
loop_
_atom_site_label
_atom_site_type_symbol
_atom_site_fract_x
_atom_site_fract_y
_atom_site_fract_z
_atom_type_partial_charge
O0 O 0.01731 0.98449 0.07835 0.0
Zn1 Zn 0.04065 0.98764 0.02804 0.0
O2 O 0.9704 0.98978 0.9983 0.0
Zn3 Zn 0.96877 0.92177 0.96421 0.0
Zn4 Zn 0.89841 0.9918 0.0266 0.0
Zn5 Zn 0.9736 0.05881 0.97403 0.0
O6 O 0.96945 0.94389 0.91479 0.0
O7 O 0.97494 0.03885 0.92247 0.0
O8 O 0.09101 0.91781 0.0134 0.0
O9 O 0.03991 0.87181 0.97029 0.0
O10 O 0.8969 0.87292 0.97069 0.0
O11 O 0.84743 0.92278 0.01308 0.0
O12 O 0.84946 0.06356 0.02174 0.0
O13 O 0.09247 0.05677 0.02465 0.0
O14 O 0.90284 0.10935 0.98523 0.0
O15 O 0.04646 0.10522 0.9863 0.0
C16 C 0.96738 0.98398 0.09354 0.0
C17 C 0.97274 0.9923 0.90254 0.0
C18 C 0.85261 0.87891 0.99105 0.0
C19 C 0.08456 0.87554 0.99036 0.0
C20 C 0.85727 0.10615 0.00419 0.0
C21 C 0.08954 0.09935 0.00671 0.0
O22 O 0.91916 0.98698 0.07688 0.0
O23 O 0.57387 0.52762 0.58907 0.0
Zn24 Zn 0.60193 0.51655 0.53928 0.0
O25 O 0.53565 0.51349 0.50654 0.0
Zn26 Zn 0.53119 0.43669 0.48098 0.0
Zn27 Zn 0.46227 0.53063 0.53211 0.0
Zn28 Zn 0.54716 0.57098 0.47396 0.0
O29 O 0.53784 0.44179 0.42927 0.0
O30 O 0.54823 0.53491 0.42456 0.0
O31 O 0.64957 0.44324 0.533 0.0
O32 O 0.59974 0.38742 0.49361 0.0
O33 O 0.45403 0.39684 0.49079 0.0
O34 O 0.40615 0.46539 0.52335 0.0
O35 O 0.42127 0.60206 0.51809 0.0
O36 O 0.65811 0.5801 0.53088 0.0
O37 O 0.48215 0.6301 0.47816 0.0
O38 O 0.62411 0.61248 0.48276 0.0
C39 C 0.52271 0.53478 0.60252 0.0
C40 C 0.54455 0.48338 0.41082 0.0
C41 C 0.40822 0.41502 0.50771 0.0
C42 C 0.64346 0.39588 0.51415 0.0
C43 C 0.43516 0.6369 0.49621 0.0
C44 C 0.66257 0.61287 0.50671 0.0
O45 O 0.47673 0.53734 0.58381 0.0
O46 O 0.98856 0.94142 0.36613 0.0
Cd47 Cd 0.00714 0.95139 0.42894 0.0
O48 O 0.04404 0.01512 0.35661 0.0
Cd49 Cd 0.04362 0.04642 0.41167 0.0
O50 O 0.9941 0.10099 0.4508 0.0
C51 C 0.93877 0.10198 0.44539 0.0
O52 O 0.91727 0.0688 0.41906 0.0
C53 C 0.01273 0.9725 0.34502 0.0
C54 C 0.11162 0.8965 0.44598 0.0
O55 O 0.06188 0.87068 0.44649 0.0
O56 O 0.11182 0.948 0.43755 0.0
O57 O 0.96077 0.15176 0.66525 0.0
Cd58 Cd 0.94581 0.19157 0.60978 0.0
O59 O 0.98452 0.07239 0.63404 0.0
Cd60 Cd 0.00649 0.98235 0.61998 0.0
O61 O 0.9776 0.90057 0.59426 0.0
C62 C 0.96975 0.89693 0.56166 0.0
O63 O 0.98456 0.94058 0.54472 0.0
C64 C 0.97487 0.09907 0.66376 0.0
C65 C 0.0498 0.22385 0.57865 0.0
O66 O 0.02064 0.25924 0.59961 0.0
O67 O 0.03 0.17266 0.57254 0.0
O68 O 0.53033 0.51956 0.87761 0.0
Cd69 Cd 0.55075 0.53149 0.94024 0.0
O70 O 0.57384 0.60043 0.86829 0.0
Cd71 Cd 0.56122 0.63243 0.92279 0.0
O72 O 0.48442 0.6677 0.95214 0.0
C73 C 0.43783 0.63791 0.9472 0.0
O74 O 0.44141 0.58844 0.92808 0.0
C75 C 0.54975 0.55349 0.85659 0.0
C76 C 0.60461 0.43454 0.9633 0.0
O77 O 0.54857 0.44178 0.96559 0.0
O78 O 0.63501 0.47296 0.95011 0.0
O79 O 0.51447 0.51822 0.14878 0.0
Cd80 Cd 0.48358 0.53335 0.08959 0.0
O81 O 0.55574 0.43431 0.1337 0.0
Cd82 Cd 0.52328 0.43021 0.08062 0.0
O83 O 0.45325 0.38907 0.04874 0.0
C84 C 0.43844 0.34045 0.05775 0.0
O85 O 0.46792 0.31963 0.08289 0.0
C86 C 0.5428 0.47458 0.15697 0.0
C87 C 0.56307 0.59872 0.05505 0.0
O88 O 0.52329 0.62265 0.07519 0.0
O89 O 0.56549 0.54378 0.05131 0.0
H90 H 0.18928 0.10081 0.04702 0.0
H91 H 0.09952 0.19451 0.9712 0.0
H92 H 0.18098 0.2645 0.97407 0.0
H93 H 0.2439 0.22333 0.09939 0.0
H94 H 0.31303 0.18977 0.10866 0.0
H95 H 0.24815 0.1466 0.09995 0.0
H96 H 0.30377 0.0857 0.05056 0.0
H97 H 0.36876 0.12892 0.059 0.0
H98 H 0.33717 0.12075 0.01613 0.0
H99 H 0.27209 0.32529 0.98593 0.0
H100 H 0.36398 0.37335 0.00734 0.0
H101 H 0.39329 0.23908 0.07493 0.0
C102 C 0.18661 0.13597 0.03097 0.0
C103 C 0.13787 0.14204 0.00888 0.0
C104 C 0.13631 0.18885 0.98836 0.0
C105 C 0.18246 0.2288 0.98973 0.0
C106 C 0.2299 0.22135 0.01168 0.0
C107 C 0.2322 0.17616 0.03199 0.0
C108 C 0.28755 0.17833 0.05388 0.0
C109 C 0.27222 0.18492 0.09277 0.0
C110 C 0.32661 0.12528 0.0443 0.0
C111 C 0.31584 0.23206 0.04293 0.0
C112 C 0.28214 0.25617 0.01846 0.0
C113 C 0.29895 0.30669 0.00502 0.0
C114 C 0.35122 0.33363 0.01729 0.0
C115 C 0.38587 0.30999 0.04278 0.0
C116 C 0.368 0.2582 0.05534 0.0
H117 H 0.20319 0.88449 0.00465 0.0
H118 H 0.068 0.76336 0.96668 0.0
H119 H 0.14334 0.68695 0.95783 0.0
H120 H 0.31034 0.8351 0.94285 0.0
H121 H 0.37253 0.84584 0.97173 0.0
H122 H 0.30731 0.88938 0.97925 0.0
H123 H 0.29935 0.85866 0.04145 0.0
H124 H 0.36458 0.81483 0.03407 0.0
H125 H 0.29691 0.78348 0.04763 0.0
H126 H 0.23277 0.62531 0.95002 0.0
H127 H 0.33172 0.58373 0.93906 0.0
H128 H 0.41087 0.74526 0.97958 0.0
C129 C 0.18941 0.84159 0.9951 0.0
C130 C 0.12971 0.82961 0.98664 0.0
C131 C 0.11349 0.77338 0.97336 0.0
C132 C 0.15588 0.72964 0.96846 0.0
C133 C 0.21443 0.7429 0.97669 0.0
C134 C 0.23142 0.79755 0.98948 0.0
C135 C 0.29803 0.80144 0.99318 0.0
C136 C 0.32353 0.84554 0.97039 0.0
C137 C 0.31574 0.81543 0.03136 0.0
C138 C 0.31578 0.74075 0.97981 0.0
C139 C 0.2667 0.70755 0.97106 0.0
C140 C 0.27156 0.65074 0.95695 0.0
C141 C 0.32809 0.62752 0.95081 0.0
C142 C 0.37919 0.66119 0.9584 0.0
C143 C 0.37275 0.71826 0.97375 0.0
H144 H 0.7516 0.87738 0.0302 0.0
H145 H 0.85462 0.77379 0.95262 0.0
H146 H 0.78704 0.69252 0.95735 0.0
H147 H 0.72573 0.77037 0.0842 0.0
H148 H 0.6514 0.79244 0.09579 0.0
H149 H 0.70384 0.8443 0.0836 0.0
H150 H 0.63302 0.87229 0.03552 0.0
H151 H 0.58009 0.82068 0.04773 0.0
H152 H 0.60587 0.81746 0.00357 0.0
H153 H 0.71412 0.61949 0.97497 0.0
H154 H 0.63971 0.56201 0.00269 0.0
H155 H 0.58354 0.71404 0.06773 0.0
C156 C 0.75946 0.83801 0.01369 0.0
C157 C 0.80853 0.83215 0.99099 0.0
C158 C 0.81728 0.77956 0.9701 0.0
C159 C 0.7791 0.73308 0.9726 0.0
C160 C 0.73199 0.73997 0.99583 0.0
C161 C 0.72171 0.79134 0.01575 0.0
C162 C 0.66986 0.78683 0.04001 0.0
C163 C 0.68887 0.7992 0.07815 0.0
C164 C 0.61921 0.82668 0.03117 0.0
C165 C 0.65363 0.72444 0.03139 0.0
C166 C 0.68969 0.69818 0.00568 0.0
C167 C 0.68513 0.63982 0.99479 0.0
C168 C 0.64289 0.60747 0.01075 0.0
C169 C 0.60568 0.63356 0.03724 0.0
C170 C 0.61087 0.69296 0.04729 0.0
H171 H 0.86476 0.20773 0.97505 0.0
H172 H 0.74674 0.10869 0.03401 0.0
H173 H 0.66979 0.18335 0.03167 0.0
H174 H 0.8196 0.34827 0.0146 0.0
H175 H 0.82635 0.38092 0.97462 0.0
H176 H 0.87248 0.32072 0.98227 0.0
H177 H 0.83556 0.26581 0.925 0.0
H178 H 0.7892 0.3257 0.91723 0.0
H179 H 0.75741 0.2555 0.91829 0.0
H180 H 0.60371 0.26719 0.01993 0.0
H181 H 0.55576 0.35413 0.0015 0.0
H182 H 0.7185 0.39814 0.95138 0.0
C183 C 0.82294 0.20174 0.98773 0.0
C184 C 0.8119 0.15216 0.00471 0.0
C185 C 0.75642 0.14629 0.02094 0.0
C186 C 0.71239 0.18847 0.01971 0.0
C187 C 0.72463 0.23645 0.00238 0.0
C188 C 0.77877 0.2434 0.98691 0.0
C189 C 0.78072 0.29827 0.96941 0.0
C190 C 0.82756 0.33948 0.98624 0.0
C191 C 0.79133 0.28553 0.93016 0.0
C192 C 0.71894 0.3209 0.97703 0.0
C193 C 0.68717 0.28472 0.99608 0.0
C194 C 0.62838 0.29598 0.00523 0.0
C195 C 0.60147 0.34539 0.99457 0.0
C196 C 0.6334 0.38304 0.97508 0.0
C197 C 0.69299 0.37052 0.96647 0.0
H198 H 0.74069 0.64217 0.55942 0.0
H199 H 0.69902 0.67321 0.45357 0.0
H200 H 0.78215 0.74107 0.45384 0.0
H201 H 0.77202 0.78438 0.58878 0.0
H202 H 0.83108 0.76779 0.61731 0.0
H203 H 0.77295 0.71679 0.60726 0.0
H204 H 0.85053 0.63969 0.58568 0.0
H205 H 0.909 0.69071 0.59552 0.0
H206 H 0.90241 0.65444 0.55244 0.0
H207 H 0.86513 0.81047 0.46699 0.0
H208 H 0.93653 0.88117 0.49342 0.0
H209 H 0.92269 0.80562 0.59091 0.0
C210 C 0.74959 0.66248 0.53608 0.0
C211 C 0.71351 0.65215 0.50642 0.0
C212 C 0.72605 0.68043 0.47662 0.0
C213 C 0.77343 0.71876 0.47643 0.0
C214 C 0.80785 0.72827 0.5062 0.0
C215 C 0.79637 0.7011 0.53552 0.0
C216 C 0.83675 0.72237 0.5651 0.0
C217 C 0.80106 0.74945 0.59644 0.0
C218 C 0.87707 0.67391 0.57527 0.0
C219 C 0.87158 0.76697 0.54816 0.0
C220 C 0.85504 0.769 0.51399 0.0
C221 C 0.87886 0.80893 0.49362 0.0
C222 C 0.91941 0.84892 0.50887 0.0
C223 C 0.93513 0.84901 0.54426 0.0
C224 C 0.91197 0.80643 0.56374 0.0
H225 H 0.65006 0.29308 0.47365 0.0
H226 H 0.74412 0.39882 0.5539 0.0
H227 H 0.8269 0.32962 0.54925 0.0
H228 H 0.70213 0.15266 0.4979 0.0
H229 H 0.70746 0.12313 0.45323 0.0
H230 H 0.65294 0.1774 0.46598 0.0
H231 H 0.69389 0.24015 0.42008 0.0
H232 H 0.74856 0.18632 0.4073 0.0
H233 H 0.77107 0.2588 0.42087 0.0
H234 H 0.90402 0.25362 0.53136 0.0
H235 H 0.96765 0.17765 0.50185 0.0
H236 H 0.82202 0.12228 0.43397 0.0
C237 C 0.68743 0.30122 0.49083 0.0
C238 C 0.69033 0.35143 0.51422 0.0
C239 C 0.74061 0.36062 0.53584 0.0
C240 C 0.7879 0.32147 0.53344 0.0
C241 C 0.78412 0.2731 0.5095 0.0
C242 C 0.73491 0.2627 0.48877 0.0
C243 C 0.74325 0.20983 0.46343 0.0
C244 C 0.69881 0.16298 0.47058 0.0
C245 C 0.73896 0.2247 0.42571 0.0
C246 C 0.80548 0.193 0.47242 0.0
C247 C 0.82825 0.22956 0.49929 0.0
C248 C 0.88632 0.2243 0.51061 0.0
C249 C 0.92218 0.18107 0.49366 0.0
C250 C 0.89982 0.14384 0.46567 0.0
C251 C 0.84038 0.14956 0.45549 0.0
H252 H 0.30612 0.44085 0.54348 0.0
H253 H 0.39428 0.30248 0.48023 0.0
H254 H 0.31012 0.23849 0.48951 0.0
H255 H 0.25069 0.3571 0.60644 0.0
H256 H 0.18223 0.39632 0.61235 0.0
H257 H 0.24738 0.43161 0.59867 0.0
H258 H 0.19176 0.46064 0.54463 0.0
H259 H 0.12626 0.42565 0.55822 0.0
H260 H 0.15662 0.40608 0.51565 0.0
H261 H 0.2169 0.18878 0.50826 0.0
H262 H 0.124 0.15824 0.53452 0.0
H263 H 0.09998 0.3302 0.58563 0.0
C264 C 0.30779 0.39729 0.53118 0.0
C265 C 0.35692 0.37678 0.51103 0.0
C266 C 0.35709 0.31927 0.49569 0.0
C267 C 0.30949 0.28263 0.50082 0.0
C268 C 0.26216 0.30425 0.52128 0.0
C269 C 0.26106 0.36037 0.53609 0.0
C270 C 0.2064 0.37303 0.55797 0.0
C271 C 0.22267 0.39052 0.59611 0.0
C272 C 0.16799 0.41906 0.54322 0.0
C273 C 0.17696 0.31504 0.55358 0.0
C274 C 0.20943 0.27589 0.53219 0.0
C275 C 0.19109 0.21921 0.52492 0.0
C276 C 0.13832 0.20225 0.53999 0.0
C277 C 0.10477 0.2418 0.56218 0.0
C278 C 0.12452 0.29889 0.5688 0.0
H279 H 0.31483 0.64397 0.50574 0.0
H280 H 0.46563 0.73861 0.47276 0.0
H281 H 0.39953 0.8174 0.45945 0.0
H282 H 0.2193 0.6801 0.43894 0.0
H283 H 0.15369 0.68567 0.46544 0.0
H284 H 0.21305 0.63897 0.47566 0.0
H285 H 0.21875 0.69094 0.53779 0.0
H286 H 0.15919 0.73771 0.5278 0.0
H287 H 0.22843 0.76763 0.54359 0.0
H288 H 0.31741 0.8844 0.44789 0.0
H289 H 0.22409 0.93357 0.43636 0.0
H290 H 0.12545 0.79386 0.47406 0.0
C291 C 0.33397 0.68176 0.49632 0.0
C292 C 0.39546 0.68544 0.49058 0.0
C293 C 0.4187 0.73496 0.47742 0.0
C294 C 0.38153 0.78 0.46988 0.0
C295 C 0.32109 0.77473 0.47533 0.0
C296 C 0.29731 0.72683 0.4881 0.0
C297 C 0.23043 0.73041 0.48936 0.0
C298 C 0.20249 0.68085 0.46595 0.0
C299 C 0.20788 0.73176 0.52687 0.0
C300 C 0.22041 0.78752 0.47501 0.0
C301 C 0.27337 0.81263 0.4675 0.0
C302 C 0.27564 0.86524 0.45374 0.0
C303 C 0.22235 0.89286 0.44728 0.0
C304 C 0.16743 0.86757 0.45421 0.0
C305 C 0.16669 0.81425 0.4684 0.0
H306 H 0.04873 0.01804 0.14411 0.0
H307 H 0.88047 0.93178 0.12728 0.0
H308 H 0.87717 0.91436 0.18903 0.0
H309 H 0.10784 0.92956 0.20712 0.0
H310 H 0.14111 0.98861 0.23345 0.0
H311 H 0.13202 0.99205 0.18752 0.0
H312 H 0.07377 0.08735 0.19948 0.0
H313 H 0.08307 0.08442 0.2454 0.0
H314 H 0.01009 0.09015 0.22755 0.0
H315 H 0.89315 0.90405 0.25208 0.0
H316 H 0.92084 0.91227 0.31394 0.0
H317 H 0.07521 0.01122 0.29111 0.0
C318 C 0.01135 0.99533 0.15346 0.0
C319 C 0.96498 0.97596 0.1309 0.0
C320 C 0.91635 0.94715 0.14415 0.0
C321 C 0.91427 0.93671 0.17912 0.0
C322 C 0.96075 0.95608 0.20065 0.0
C323 C 0.00792 0.98561 0.18852 0.0
C324 C 0.0503 0.00477 0.21764 0.0
C325 C 0.11143 0.97708 0.21103 0.0
C326 C 0.05452 0.07058 0.22282 0.0
C327 C 0.01955 0.98136 0.24799 0.0
C328 C 0.96851 0.95259 0.23746 0.0
C329 C 0.93289 0.92669 0.26068 0.0
C330 C 0.94917 0.93134 0.29575 0.0
C331 C 1.00009 0.96247 0.3074 0.0
C332 C 0.03594 0.98726 0.28302 0.0
H333 H 0.99188 0.08702 0.86803 0.0
H334 H 0.95662 0.90436 0.85077 0.0
H335 H 0.95695 0.91068 0.78744 0.0
H336 H 0.90089 0.12958 0.80067 0.0
H337 H 0.95048 0.1846 0.78913 0.0
H338 H 0.94933 0.16501 0.83286 0.0
H339 H 0.06169 0.14386 0.82936 0.0
H340 H 0.06321 0.16334 0.78558 0.0
H341 H 0.09007 0.09401 0.79481 0.0
H342 H 0.95568 0.93862 0.72592 0.0
H343 H 0.95489 0.98512 0.67167 0.0
H344 H 0.99555 0.1484 0.72942 0.0
C345 C 0.98438 0.04816 0.85103 0.0
C346 C 0.97408 0.99515 0.86447 0.0
C347 C 0.96466 0.94545 0.84115 0.0
C348 C 0.96478 0.94862 0.80513 0.0
C349 C 0.97481 0.00168 0.79285 0.0
C350 C 0.98469 0.05048 0.81514 0.0
C351 C 0.99357 0.10247 0.79551 0.0
C352 C 0.94571 0.14809 0.80511 0.0
C353 C 0.05584 0.12737 0.80168 0.0
C354 C 0.9864 0.07553 0.75862 0.0
C355 C 0.97574 0.01735 0.75758 0.0
C356 C 0.96532 0.98389 0.7264 0.0
C357 C 0.96588 0.01058 0.69554 0.0
C358 C 0.97738 0.07004 0.696 0.0
C359 C 0.98755 0.10269 0.7281 0.0
H360 H 0.59931 0.57717 0.65381 0.0
H361 H 0.43092 0.49133 0.63668 0.0
H362 H 0.42198 0.48333 0.69952 0.0
H363 H 0.6517 0.49899 0.72239 0.0
H364 H 0.6838 0.56035 0.74715 0.0
H365 H 0.67801 0.55854 0.70071 0.0
H366 H 0.62 0.65449 0.70725 0.0
H367 H 0.62615 0.65691 0.7537 0.0
H368 H 0.5545 0.66083 0.73386 0.0
H369 H 0.43431 0.47898 0.76342 0.0
H370 H 0.45916 0.4919 0.82572 0.0
H371 H 0.61491 0.58852 0.80262 0.0
C372 C 0.56052 0.55693 0.66339 0.0
C373 C 0.51588 0.53462 0.64044 0.0
C374 C 0.46543 0.50895 0.65387 0.0
C375 C 0.46017 0.50385 0.68947 0.0
C376 C 0.5052 0.52563 0.71138 0.0
C377 C 0.55379 0.5528 0.69903 0.0
C378 C 0.59436 0.57496 0.72845 0.0
C379 C 0.65559 0.54649 0.72442 0.0
C380 C 0.599 0.6407 0.73096 0.0
C381 C 0.56126 0.55546 0.75919 0.0
C382 C 0.51049 0.52621 0.74863 0.0
C383 C 0.47361 0.50231 0.77206 0.0
C384 C 0.48831 0.50953 0.80736 0.0
C385 C 0.53879 0.54134 0.81896 0.0
C386 C 0.57585 0.56429 0.79446 0.0
H387 H 0.52572 0.55795 0.36166 0.0
H388 H 0.57561 0.38209 0.3738 0.0
H389 H 0.58752 0.363 0.31031 0.0
H390 H 0.43948 0.5248 0.28512 0.0
H391 H 0.46064 0.58845 0.26573 0.0
H392 H 0.4593 0.58894 0.3122 0.0
H393 H 0.56856 0.62152 0.31501 0.0
H394 H 0.57037 0.62067 0.26848 0.0
H395 H 0.62352 0.57938 0.29016 0.0
H396 H 0.5941 0.36307 0.24566 0.0
H397 H 0.58512 0.37903 0.18399 0.0
H398 H 0.52693 0.55389 0.21368 0.0
C399 C 0.53949 0.51551 0.35098 0.0
C400 C 0.55007 0.47156 0.3727 0.0
C401 C 0.56714 0.41636 0.35767 0.0
C402 C 0.57439 0.40522 0.32166 0.0
C403 C 0.56389 0.44957 0.30103 0.0
C404 C 0.54613 0.50342 0.31507 0.0
C405 C 0.53452 0.54262 0.287 0.0
C406 C 0.46963 0.56234 0.28755 0.0
C407 C 0.57677 0.59408 0.29037 0.0
C408 C 0.54823 0.50229 0.25493 0.0
C409 C 0.56589 0.44909 0.26365 0.0
C410 C 0.58033 0.40454 0.23851 0.0
C411 C 0.57527 0.41415 0.20351 0.0
C412 C 0.55528 0.46773 0.19389 0.0
C413 C 0.54249 0.51252 0.2201 0.0
loop_
_geom_bond_atom_site_label_1
_geom_bond_atom_site_label_2
_geom_bond_distance
_geom_bond_site_symmetry_2
_ccdc_geom_bond_type
O0 Zn1 1.950 1_565 S
O0 C16 1.220 1_565 S
Zn1 O0 1.950 1_545 S
Zn1 O2 1.949 . S
Zn1 O8 1.916 1_545 S
Zn1 O13 1.927 . S
O2 Zn1 1.949 . S
O2 Zn3 1.923 1_444 S
O2 Zn4 1.950 1_455 S
O2 Zn5 1.945 1_554 S
Zn3 O2 1.923 1_666 S
Zn3 O6 1.933 . S
Zn3 O9 1.941 1_655 S
Zn3 O10 1.965 . S
Zn4 O2 1.950 1_655 S
Zn4 O11 1.938 1_545 S
Zn4 O12 1.906 . S
Zn4 O22 1.953 . S
Zn5 O2 1.945 1_556 S
Zn5 O7 1.932 . S
Zn5 O14 1.977 1_455 S
Zn5 O15 1.910 . S
O6 Zn3 1.933 . S
O6 C17 1.226 1_665 S
O7 Zn5 1.932 . S
O7 C17 1.307 . S
O8 Zn1 1.916 1_565 S
O8 C19 1.253 1_554 S
O9 Zn3 1.941 1_455 S
O9 C19 1.283 . S
O10 Zn3 1.965 . S
O10 C18 1.303 1_556 S
O11 Zn4 1.938 1_565 S
O11 C18 1.247 . S
O12 Zn4 1.906 . S
O12 C20 1.304 1_554 S
O13 Zn1 1.927 . S
O13 C21 1.311 . S
O14 Zn5 1.977 1_655 S
O14 C20 1.272 . S
O15 Zn5 1.910 . S
O15 C21 1.231 1_556 S
C16 O0 1.220 1_545 S
C16 O22 1.298 1_455 S
C17 O6 1.226 1_445 S
C17 O7 1.307 . S
C18 O10 1.303 1_554 S
C18 O11 1.247 . S
C19 O8 1.253 1_556 S
C19 O9 1.283 . S
C20 O12 1.304 1_556 S
C20 O14 1.272 . S
C21 O13 1.311 . S
C21 O15 1.231 1_554 S
O22 Zn4 1.953 . S
O22 C16 1.298 1_655 S
O23 Zn24 1.953 . S
O23 C39 1.225 . S
Zn24 O23 1.953 . S
Zn24 O25 1.949 . S
Zn24 O31 1.919 . S
Zn24 O36 1.924 . S
O25 Zn24 1.949 . S
O25 Zn26 1.923 . S
O25 Zn27 1.950 . S
O25 Zn28 1.945 . S
Zn26 O25 1.923 . S
Zn26 O29 1.933 . S
Zn26 O32 1.941 . S
Zn26 O33 1.965 . S
Zn27 O25 1.950 . S
Zn27 O34 1.938 . S
Zn27 O35 1.906 . S
Zn27 O45 1.953 . S
Zn28 O25 1.945 . S
Zn28 O30 1.932 . S
Zn28 O37 1.977 . S
Zn28 O38 1.910 . S
O29 Zn26 1.933 . S
O29 C40 1.226 . S
O30 Zn28 1.932 . S
O30 C40 1.307 . S
O31 Zn24 1.919 . S
O31 C42 1.253 . S
O32 Zn26 1.941 . S
O32 C42 1.283 . S
O33 Zn26 1.965 . S
O33 C41 1.303 . S
O34 Zn27 1.938 . S
O34 C41 1.247 . S
O35 Zn27 1.906 . S
O35 C43 1.304 . S
O36 Zn24 1.924 . S
O36 C44 1.311 . S
O37 Zn28 1.977 . S
O37 C43 1.272 . S
O38 Zn28 1.910 . S
O38 C44 1.231 . S
C39 O23 1.225 . S
C39 O45 1.298 . S
C40 O29 1.226 . S
C40 O30 1.307 . S
C41 O33 1.303 . S
C41 O34 1.247 . S
C42 O31 1.253 . S
C42 O32 1.283 . S
C43 O35 1.304 . S
C43 O37 1.272 . S
C44 O36 1.311 . S
C44 O38 1.231 . S
O45 Zn27 1.953 . S
O45 C39 1.298 . S
O46 Cd47 2.300 . S
O46 C53 1.275 1_565 S
Cd47 O46 2.300 . S
Cd47 O55 2.381 . S
Cd47 O56 2.378 . S
O48 Cd49 2.385 . S
O48 C53 1.255 . S
Cd49 O48 2.385 . S
Cd49 O50 2.317 1_455 S
O50 Cd49 2.317 1_655 S
O50 C51 1.232 . S
C51 O50 1.232 . S
C51 O52 1.218 . S
O52 C51 1.218 . S
C53 O46 1.275 1_545 S
C53 O48 1.255 . S
C54 O55 1.258 . S
C54 O56 1.256 . S
O55 Cd47 2.381 . S
O55 C54 1.258 . S
O56 Cd47 2.378 . S
O56 C54 1.256 . S
O57 Cd58 2.300 . S
O57 C64 1.275 1_545 S
Cd58 O57 2.300 . S
Cd58 O66 2.381 . S
Cd58 O67 2.378 . S
O59 Cd60 2.385 . S
O59 C64 1.255 . S
Cd60 O59 2.385 . S
Cd60 O61 2.317 1_455 S
O61 Cd60 2.317 1_655 S
O61 C62 1.232 . S
C62 O61 1.232 . S
C62 O63 1.218 . S
O63 C62 1.218 . S
C64 O57 1.275 1_565 S
C64 O59 1.255 . S
C65 O66 1.258 . S
C65 O67 1.256 . S
O66 Cd58 2.381 . S
O66 C65 1.258 . S
O67 Cd58 2.378 . S
O67 C65 1.256 . S
O68 Cd69 2.300 . S
O68 C75 1.275 . S
Cd69 O68 2.300 . S
Cd69 O77 2.381 . S
Cd69 O78 2.378 . S
O70 Cd71 2.385 . S
O70 C75 1.255 . S
Cd71 O70 2.385 . S
Cd71 O72 2.317 . S
O72 Cd71 2.317 . S
O72 C73 1.232 . S
C73 O72 1.232 . S
C73 O74 1.218 . S
O74 C73 1.218 . S
C75 O68 1.275 . S
C75 O70 1.255 . S
C76 O77 1.258 . S
C76 O78 1.256 . S
O77 Cd69 2.381 . S
O77 C76 1.258 . S
O78 Cd69 2.378 . S
O78 C76 1.256 . S
O79 Cd80 2.300 . S
O79 C86 1.275 . S
Cd80 O79 2.300 . S
Cd80 O88 2.381 . S
Cd80 O89 2.378 . S
O81 Cd82 2.385 . S
O81 C86 1.255 . S
Cd82 O81 2.385 . S
Cd82 O83 2.317 . S
O83 Cd82 2.317 . S
O83 C84 1.232 . S
C84 O83 1.232 . S
C84 O85 1.218 . S
O85 C84 1.218 . S
C86 O79 1.275 . S
C86 O81 1.255 . S
C87 O88 1.258 . S
C87 O89 1.256 . S
O88 Cd80 2.381 . S
O88 C87 1.258 . S
O89 Cd80 2.378 . S
O89 C87 1.256 . S
H90 C102 0.930 . S
H91 C104 0.930 1_556 S
H92 C105 0.930 1_556 S
H93 C109 0.959 . S
H94 C109 0.959 . S
H95 C109 0.961 . S
H96 C110 0.960 . S
H97 C110 0.961 . S
H98 C110 0.959 . S
H99 C113 0.929 . S
H100 C114 0.931 . S
H101 C116 0.930 . S
C102 H90 0.930 . S
C102 C103 1.399 . S
C102 C107 1.399 . S
C103 C102 1.399 . S
C103 C104 1.376 . S
C104 H91 0.930 1_554 S
C104 C103 1.376 . S
C104 C105 1.388 . S
C105 H92 0.930 1_554 S
C105 C104 1.388 . S
C105 C106 1.390 . S
C106 C105 1.390 . S
C106 C107 1.394 . S
C106 C112 1.465 . S
C107 C102 1.399 . S
C107 C106 1.394 . S
C107 C108 1.516 . S
C108 C107 1.516 . S
C108 C109 1.502 . S
C108 C110 1.561 . S
C108 C111 1.526 . S
C109 H93 0.959 . S
C109 H94 0.959 . S
C109 H95 0.961 . S
C109 C108 1.502 . S
C110 H96 0.960 . S
C110 H97 0.961 . S
C110 H98 0.959 . S
C110 C108 1.561 . S
C111 C108 1.526 . S
C111 C112 1.396 . S
C111 C116 1.390 . S
C112 C106 1.465 . S
C112 C111 1.396 . S
C112 C113 1.399 . S
C113 H99 0.929 . S
C113 C112 1.399 . S
C113 C114 1.385 . S
C114 H100 0.931 . S
C114 C113 1.385 . S
C114 C115 1.389 . S
C115 C114 1.389 . S
C115 C116 1.387 . S
C116 H101 0.930 . S
C116 C111 1.390 . S
C116 C115 1.387 . S
H117 C129 0.930 1_554 S
H118 C131 0.930 . S
H119 C132 0.930 . S
H120 C136 0.959 . S
H121 C136 0.959 . S
H122 C136 0.961 . S
H123 C137 0.960 . S
H124 C137 0.961 . S
H125 C137 0.959 . S
H126 C140 0.929 . S
H127 C141 0.931 . S
H128 C143 0.930 . S
C129 H117 0.930 1_556 S
C129 C130 1.399 . S
C129 C134 1.399 . S
C130 C129 1.399 . S
C130 C131 1.376 . S
C131 H118 0.930 . S
C131 C130 1.376 . S
C131 C132 1.388 . S
C132 H119 0.930 . S
C132 C131 1.388 . S
C132 C133 1.390 . S
C133 C132 1.390 . S
C133 C134 1.394 . S
C133 C139 1.465 . S
C134 C129 1.399 . S
C134 C133 1.394 . S
C134 C135 1.516 . S
C135 C134 1.516 . S
C135 C136 1.502 1_556 S
C135 C137 1.561 1_556 S
C135 C138 1.526 . S
C136 H120 0.959 . S
C136 H121 0.959 . S
C136 H122 0.961 . S
C136 C135 1.502 1_554 S
C137 H123 0.960 . S
C137 H124 0.961 . S
C137 H125 0.959 . S
C137 C135 1.561 1_554 S
C138 C135 1.526 . S
C138 C139 1.396 . S
C138 C143 1.390 . S
C139 C133 1.465 . S
C139 C138 1.396 . S
C139 C140 1.399 . S
C140 H126 0.929 . S
C140 C139 1.399 . S
C140 C141 1.385 . S
C141 H127 0.931 . S
C141 C140 1.385 . S
C141 C142 1.389 . S
C142 C141 1.389 . S
C142 C143 1.387 . S
C143 H128 0.930 . S
C143 C138 1.390 . S
C143 C142 1.387 . S
H144 C156 0.930 . S
H145 C158 0.930 . S
H146 C159 0.930 . S
H147 C163 0.959 . S
H148 C163 0.959 . S
H149 C163 0.961 . S
H150 C164 0.960 . S
H151 C164 0.961 . S
H152 C164 0.959 . S
H153 C167 0.929 . S
H154 C168 0.931 . S
H155 C170 0.930 . S
C156 H144 0.930 . S
C156 C157 1.399 . S
C156 C161 1.399 . S
C157 C156 1.399 . S
C157 C158 1.376 . S
C158 H145 0.930 . S
C158 C157 1.376 . S
C158 C159 1.388 . S
C159 H146 0.930 . S
C159 C158 1.388 . S
C159 C160 1.390 . S
C160 C159 1.390 . S
C160 C161 1.394 . S
C160 C166 1.465 . S
C161 C156 1.399 . S
C161 C160 1.394 . S
C161 C162 1.516 . S
C162 C161 1.516 . S
C162 C163 1.502 . S
C162 C164 1.561 1_554 S
C162 C165 1.526 . S
C163 H147 0.959 . S
C163 H148 0.959 . S
C163 H149 0.961 . S
C163 C162 1.502 . S
C164 H150 0.960 . S
C164 H151 0.961 . S
C164 H152 0.959 . S
C164 C162 1.561 1_556 S
C165 C162 1.526 . S
C165 C166 1.396 . S
C165 C170 1.390 . S
C166 C160 1.465 . S
C166 C165 1.396 . S
C166 C167 1.399 . S
C167 H153 0.929 . S
C167 C166 1.399 . S
C167 C168 1.385 . S
C168 H154 0.931 . S
C168 C167 1.385 . S
C168 C169 1.389 . S
C169 C168 1.389 . S
C169 C170 1.387 . S
C170 H155 0.930 . S
C170 C165 1.390 . S
C170 C169 1.387 . S
H171 C183 0.930 . S
H172 C185 0.930 . S
H173 C186 0.930 . S
H174 C190 0.959 . S
H175 C190 0.959 . S
H176 C190 0.961 . S
H177 C191 0.960 . S
H178 C191 0.961 . S
H179 C191 0.959 . S
H180 C194 0.929 1_554 S
H181 C195 0.931 . S
H182 C197 0.930 . S
C183 H171 0.930 . S
C183 C184 1.399 . S
C183 C188 1.399 . S
C184 C183 1.399 . S
C184 C185 1.376 1_556 S
C185 H172 0.930 . S
C185 C184 1.376 1_554 S
C185 C186 1.388 . S
C186 H173 0.930 . S
C186 C185 1.388 . S
C186 C187 1.390 1_554 S
C187 C186 1.390 1_556 S
C187 C188 1.394 . S
C187 C193 1.465 . S
C188 C183 1.399 . S
C188 C187 1.394 . S
C188 C189 1.516 . S
C189 C188 1.516 . S
C189 C190 1.502 . S
C189 C191 1.561 . S
C189 C192 1.526 . S
C190 H174 0.959 . S
C190 H175 0.959 . S
C190 H176 0.961 . S
C190 C189 1.502 . S
C191 H177 0.960 . S
C191 H178 0.961 . S
C191 H179 0.959 . S
C191 C189 1.561 . S
C192 C189 1.526 . S
C192 C193 1.396 . S
C192 C197 1.390 . S
C193 C187 1.465 . S
C193 C192 1.396 . S
C193 C194 1.399 . S
C194 H180 0.929 1_556 S
C194 C193 1.399 . S
C194 C195 1.385 . S
C195 H181 0.931 . S
C195 C194 1.385 . S
C195 C196 1.389 . S
C196 C195 1.389 . S
C196 C197 1.387 . S
C197 H182 0.930 . S
C197 C192 1.390 . S
C197 C196 1.387 . S
H198 C210 0.930 . S
H199 C212 0.930 . S
H200 C213 0.930 . S
H201 C217 0.959 . S
H202 C217 0.959 . S
H203 C217 0.961 . S
H204 C218 0.960 . S
H205 C218 0.961 . S
H206 C218 0.959 . S
H207 C221 0.929 . S
H208 C222 0.931 . S
H209 C224 0.930 . S
C210 H198 0.930 . S
C210 C211 1.399 . S
C210 C215 1.399 . S
C211 C210 1.399 . S
C211 C212 1.376 . S
C212 H199 0.930 . S
C212 C211 1.376 . S
C212 C213 1.388 . S
C213 H200 0.930 . S
C213 C212 1.388 . S
C213 C214 1.390 . S
C214 C213 1.390 . S
C214 C215 1.394 . S
C214 C220 1.465 . S
C215 C210 1.399 . S
C215 C214 1.394 . S
C215 C216 1.516 . S
C216 C215 1.516 . S
C216 C217 1.502 . S
C216 C218 1.561 . S
C216 C219 1.526 . S
C217 H201 0.959 . S
C217 H202 0.959 . S
C217 H203 0.961 . S
C217 C216 1.502 . S
C218 H204 0.960 . S
C218 H205 0.961 . S
C218 H206 0.959 . S
C218 C216 1.561 . S
C219 C216 1.526 . S
C219 C220 1.396 . S
C219 C224 1.390 . S
C220 C214 1.465 . S
C220 C219 1.396 . S
C220 C221 1.399 . S
C221 H207 0.929 . S
C221 C220 1.399 . S
C221 C222 1.385 . S
C222 H208 0.931 . S
C222 C221 1.385 . S
C222 C223 1.389 . S
C223 C222 1.389 . S
C223 C224 1.387 . S
C224 H209 0.930 . S
C224 C219 1.390 . S
C224 C223 1.387 . S
H225 C237 0.930 . S
H226 C239 0.930 . S
H227 C240 0.930 . S
H228 C244 0.959 . S
H229 C244 0.959 . S
H230 C244 0.961 . S
H231 C245 0.960 . S
H232 C245 0.961 . S
H233 C245 0.959 . S
H234 C248 0.929 . S
H235 C249 0.931 . S
H236 C251 0.930 . S
C237 H225 0.930 . S
C237 C238 1.399 . S
C237 C242 1.399 . S
C238 C237 1.399 . S
C238 C239 1.376 . S
C239 H226 0.930 . S
C239 C238 1.376 . S
C239 C240 1.388 . S
C240 H227 0.930 . S
C240 C239 1.388 . S
C240 C241 1.390 . S
C241 C240 1.390 . S
C241 C242 1.394 . S
C241 C247 1.465 . S
C242 C237 1.399 . S
C242 C241 1.394 . S
C242 C243 1.516 . S
C243 C242 1.516 . S
C243 C244 1.502 . S
C243 C245 1.561 . S
C243 C246 1.526 . S
C244 H228 0.959 . S
C244 H229 0.959 . S
C244 H230 0.961 . S
C244 C243 1.502 . S
C245 H231 0.960 . S
C245 H232 0.961 . S
C245 H233 0.959 . S
C245 C243 1.561 . S
C246 C243 1.526 . S
C246 C247 1.396 . S
C246 C251 1.390 . S
C247 C241 1.465 . S
C247 C246 1.396 . S
C247 C248 1.399 . S
C248 H234 0.929 . S
C248 C247 1.399 . S
C248 C249 1.385 . S
C249 H235 0.931 . S
C249 C248 1.385 . S
C249 C250 1.389 . S
C250 C249 1.389 . S
C250 C251 1.387 . S
C251 H236 0.930 . S
C251 C246 1.390 . S
C251 C250 1.387 . S
H252 C264 0.930 . S
H253 C266 0.930 . S
H254 C267 0.930 . S
H255 C271 0.959 . S
H256 C271 0.959 . S
H257 C271 0.961 . S
H258 C272 0.960 . S
H259 C272 0.961 . S
H260 C272 0.959 . S
H261 C275 0.929 . S
H262 C276 0.931 . S
H263 C278 0.930 . S
C264 H252 0.930 . S
C264 C265 1.399 . S
C264 C269 1.399 . S
C265 C264 1.399 . S
C265 C266 1.376 . S
C266 H253 0.930 . S
C266 C265 1.376 . S
C266 C267 1.388 . S
C267 H254 0.930 . S
C267 C266 1.388 . S
C267 C268 1.390 . S
C268 C267 1.390 . S
C268 C269 1.394 . S
C268 C274 1.465 . S
C269 C264 1.399 . S
C269 C268 1.394 . S
C269 C270 1.516 . S
C270 C269 1.516 . S
C270 C271 1.502 . S
C270 C272 1.561 . S
C270 C273 1.526 . S
C271 H255 0.959 . S
C271 H256 0.959 . S
C271 H257 0.961 . S
C271 C270 1.502 . S
C272 H258 0.960 . S
C272 H259 0.961 . S
C272 H260 0.959 . S
C272 C270 1.561 . S
C273 C270 1.526 . S
C273 C274 1.396 . S
C273 C278 1.390 . S
C274 C268 1.465 . S
C274 C273 1.396 . S
C274 C275 1.399 . S
C275 H261 0.929 . S
C275 C274 1.399 . S
C275 C276 1.385 . S
C276 H262 0.931 . S
C276 C275 1.385 . S
C276 C277 1.389 . S
C277 C276 1.389 . S
C277 C278 1.387 . S
C278 H263 0.930 . S
C278 C273 1.390 . S
C278 C277 1.387 . S
H279 C291 0.930 . S
H280 C293 0.930 . S
H281 C294 0.930 . S
H282 C298 0.959 . S
H283 C298 0.959 . S
H284 C298 0.961 . S
H285 C299 0.960 . S
H286 C299 0.961 . S
H287 C299 0.959 . S
H288 C302 0.929 . S
H289 C303 0.931 . S
H290 C305 0.930 . S
C291 H279 0.930 . S
C291 C292 1.399 . S
C291 C296 1.399 . S
C292 C291 1.399 . S
C292 C293 1.376 . S
C293 H280 0.930 . S
C293 C292 1.376 . S
C293 C294 1.388 . S
C294 H281 0.930 . S
C294 C293 1.388 . S
C294 C295 1.390 . S
C295 C294 1.390 . S
C295 C296 1.394 . S
C295 C301 1.465 . S
C296 C291 1.399 . S
C296 C295 1.394 . S
C296 C297 1.516 . S
C297 C296 1.516 . S
C297 C298 1.502 . S
C297 C299 1.561 . S
C297 C300 1.526 . S
C298 H282 0.959 . S
C298 H283 0.959 . S
C298 H284 0.961 . S
C298 C297 1.502 . S
C299 H285 0.960 . S
C299 H286 0.961 . S
C299 H287 0.959 . S
C299 C297 1.561 . S
C300 C297 1.526 . S
C300 C301 1.396 . S
C300 C305 1.390 . S
C301 C295 1.465 . S
C301 C300 1.396 . S
C301 C302 1.399 . S
C302 H288 0.929 . S
C302 C301 1.399 . S
C302 C303 1.385 . S
C303 H289 0.931 . S
C303 C302 1.385 . S
C303 C304 1.389 . S
C304 C303 1.389 . S
C304 C305 1.387 . S
C305 H290 0.930 . S
C305 C300 1.390 . S
C305 C304 1.387 . S
H306 C318 0.930 . S
H307 C320 0.930 . S
H308 C321 0.930 . S
H309 C325 0.959 . S
H310 C325 0.959 . S
H311 C325 0.961 . S
H312 C326 0.960 . S
H313 C326 0.961 . S
H314 C326 0.959 1_655 S
H315 C329 0.929 . S
H316 C330 0.931 . S
H317 C332 0.930 . S
C318 H306 0.930 . S
C318 C319 1.391 1_455 S
C318 C323 1.399 . S
C319 C318 1.391 1_655 S
C319 C320 1.388 1_545 S
C320 H307 0.930 . S
C320 C319 1.388 1_565 S
C320 C321 1.388 . S
C321 H308 0.930 . S
C321 C320 1.388 . S
C321 C322 1.390 . S
C322 C321 1.390 . S
C322 C323 1.394 1_665 S
C322 C328 1.465 . S
C323 C318 1.399 . S
C323 C322 1.394 1_445 S
C323 C324 1.516 . S
C324 C323 1.516 . S
C324 C325 1.502 . S
C324 C326 1.561 . S
C324 C327 1.526 . S
C325 H309 0.959 . S
C325 H310 0.959 . S
C325 H311 0.961 . S
C325 C324 1.502 . S
C326 H312 0.960 . S
C326 H313 0.961 . S
C326 H314 0.959 1_455 S
C326 C324 1.561 . S
C327 C324 1.526 . S
C327 C328 1.396 1_445 S
C327 C332 1.390 . S
C328 C322 1.465 . S
C328 C327 1.396 1_665 S
C328 C329 1.399 . S
C329 H315 0.929 . S
C329 C328 1.399 . S
C329 C330 1.385 . S
C330 H316 0.931 . S
C330 C329 1.385 . S
C330 C331 1.389 1_565 S
C331 C330 1.389 1_545 S
C331 C332 1.387 1_655 S
C332 H317 0.930 . S
C332 C327 1.390 . S
C332 C331 1.387 1_455 S
H333 C345 0.930 . S
H334 C347 0.930 . S
H335 C348 0.930 . S
H336 C352 0.959 . S
H337 C352 0.959 . S
H338 C352 0.961 . S
H339 C353 0.960 . S
H340 C353 0.961 . S
H341 C353 0.959 . S
H342 C356 0.929 . S
H343 C357 0.931 . S
H344 C359 0.930 . S
C345 H333 0.930 . S
C345 C346 1.399 1_645 S
C345 C350 1.399 1_655 S
C346 C345 1.399 1_465 S
C346 C347 1.376 . S
C347 H334 0.930 . S
C347 C346 1.376 . S
C347 C348 1.388 . S
C348 H335 0.930 . S
C348 C347 1.388 . S
C348 C349 1.390 . S
C349 C348 1.390 . S
C349 C350 1.394 1_565 S
C349 C355 1.465 . S
C350 C345 1.399 1_455 S
C350 C349 1.394 1_545 S
C350 C351 1.516 1_455 S
C351 C350 1.516 1_655 S
C351 C352 1.502 . S
C351 C353 1.561 1_655 S
C351 C354 1.526 1_655 S
C352 H336 0.959 . S
C352 H337 0.959 . S
C352 H338 0.961 . S
C352 C351 1.502 . S
C353 H339 0.960 . S
C353 H340 0.961 . S
C353 H341 0.959 . S
C353 C351 1.561 1_455 S
C354 C351 1.526 1_455 S
C354 C355 1.396 1_545 S
C354 C359 1.390 1_455 S
C355 C349 1.465 . S
C355 C354 1.396 1_565 S
C355 C356 1.399 . S
C356 H342 0.929 . S
C356 C355 1.399 . S
C356 C357 1.385 . S
C357 H343 0.931 . S
C357 C356 1.385 . S
C357 C358 1.389 . S
C358 C357 1.389 . S
C358 C359 1.387 1_465 S
C359 H344 0.930 . S
C359 C354 1.390 1_655 S
C359 C358 1.387 1_645 S
H360 C372 0.930 . S
H361 C374 0.930 . S
H362 C375 0.930 . S
H363 C379 0.959 . S
H364 C379 0.959 . S
H365 C379 0.961 . S
H366 C380 0.960 . S
H367 C380 0.961 . S
H368 C380 0.959 . S
H369 C383 0.929 . S
H370 C384 0.931 . S
H371 C386 0.930 . S
C372 H360 0.930 . S
C372 C373 1.399 . S
C372 C377 1.399 . S
C373 C372 1.399 . S
C373 C374 1.376 . S
C374 H361 0.930 . S
C374 C373 1.376 . S
C374 C375 1.388 . S
C375 H362 0.930 . S
C375 C374 1.388 . S
C375 C376 1.390 . S
C376 C375 1.390 . S
C376 C377 1.394 . S
C376 C382 1.465 . S
C377 C372 1.399 . S
C377 C376 1.394 . S
C377 C378 1.516 . S
C378 C377 1.516 . S
C378 C379 1.502 . S
C378 C380 1.561 . S
C378 C381 1.526 . S
C379 H363 0.959 . S
C379 H364 0.959 . S
C379 H365 0.961 . S
C379 C378 1.502 . S
C380 H366 0.960 . S
C380 H367 0.961 . S
C380 H368 0.959 . S
C380 C378 1.561 . S
C381 C378 1.526 . S
C381 C382 1.396 . S
C381 C386 1.390 . S
C382 C376 1.465 . S
C382 C381 1.396 . S
C382 C383 1.399 . S
C383 H369 0.929 . S
C383 C382 1.399 . S
C383 C384 1.385 . S
C384 H370 0.931 . S
C384 C383 1.385 . S
C384 C385 1.389 . S
C385 C384 1.389 . S
C385 C386 1.387 . S
C386 H371 0.930 . S
C386 C381 1.390 . S
C386 C385 1.387 . S
H387 C399 0.930 . S
H388 C401 0.930 . S
H389 C402 0.930 . S
H390 C406 0.959 . S
H391 C406 0.959 . S
H392 C406 0.961 . S
H393 C407 0.960 . S
H394 C407 0.961 . S
H395 C407 0.959 . S
H396 C410 0.929 . S
H397 C411 0.931 . S
H398 C413 0.930 . S
C399 H387 0.930 . S
C399 C400 1.399 . S
C399 C404 1.399 . S
C400 C399 1.399 . S
C400 C401 1.376 . S
C401 H388 0.930 . S
C401 C400 1.376 . S
C401 C402 1.388 . S
C402 H389 0.930 . S
C402 C401 1.388 . S
C402 C403 1.390 . S
C403 C402 1.390 . S
C403 C404 1.394 . S
C403 C409 1.465 . S
C404 C399 1.399 . S
C404 C403 1.394 . S
C404 C405 1.516 . S
C405 C404 1.516 . S
C405 C406 1.502 . S
C405 C407 1.561 . S
C405 C408 1.526 . S
C406 H390 0.959 . S
C406 H391 0.959 . S
C406 H392 0.961 . S
C406 C405 1.502 . S
C407 H393 0.960 . S
C407 H394 0.961 . S
C407 H395 0.959 . S
C407 C405 1.561 . S
C408 C405 1.526 . S
C408 C409 1.396 . S
C408 C413 1.390 . S
C409 C403 1.465 . S
C409 C408 1.396 . S
C409 C410 1.399 . S
C410 H396 0.929 . S
C410 C409 1.399 . S
C410 C411 1.385 . S
C411 H397 0.931 . S
C411 C410 1.385 . S
C411 C412 1.389 . S
C412 C411 1.389 . S
C412 C413 1.387 . S
C413 H398 0.930 . S
C413 C408 1.390 . S
C413 C412 1.387 . S
C115 C84 1.373 . S
C103 C21 1.483 . S
C130 C19 1.501 . S
C142 C73 1.301 . S
C157 C18 1.423 . S
C169 C87 1.379 . S
C184 C20 1.421 . S
C196 C76 1.430 . S
C211 C44 1.502 . S
C223 C62 1.380 . S
C238 C42 1.514 . S
C250 C51 1.234 . S
C277 C65 1.420 . S
C265 C41 1.384 . S
C304 C54 1.381 . S
C292 C43 1.403 . S
C319 C16 1.508 1_655 S
C331 C53 1.478 1_655 S
C346 C17 1.484 1_565 S
C358 C64 1.412 . S
C385 C75 1.470 . S
C373 C39 1.509 . S
C400 C40 1.484 . S
C412 C86 1.412 . S
