# Generated by pormake.
# Topology iac, (4,6)-cn, num edge types: 1
# Building blocks:
#     Node 0, Type 0, BuildingBlock: QUQFOY_clean_sbu_3, # of connection points: 4
#     Node 1, Type 0, BuildingBlock: QUQFOY_clean_sbu_3, # of connection points: 4
#     Node 2, Type 0, BuildingBlock: QUQFOY_clean_sbu_3, # of connection points: 4
#     Node 3, Type 0, BuildingBlock: QUQFOY_clean_sbu_3, # of connection points: 4
#     Node 4, Type 0, BuildingBlock: QUQFOY_clean_sbu_3, # of connection points: 4
#     Node 5, Type 0, BuildingBlock: QUQFOY_clean_sbu_3, # of connection points: 4
#     Node 6, Type 0, BuildingBlock: QUQFOY_clean_sbu_3, # of connection points: 4
#     Node 7, Type 0, BuildingBlock: QUQFOY_clean_sbu_3, # of connection points: 4
#     Node 8, Type 0, BuildingBlock: QUQFOY_clean_sbu_3, # of connection points: 4
#     Node 9, Type 0, BuildingBlock: QUQFOY_clean_sbu_3, # of connection points: 4
#     Node 10, Type 0, BuildingBlock: QUQFOY_clean_sbu_3, # of connection points: 4
#     Node 11, Type 0, BuildingBlock: QUQFOY_clean_sbu_3, # of connection points: 4
#     Node 12, Type 0, BuildingBlock: QUQFOY_clean_sbu_3, # of connection points: 4
#     Node 13, Type 0, BuildingBlock: QUQFOY_clean_sbu_3, # of connection points: 4
#     Node 14, Type 0, BuildingBlock: QUQFOY_clean_sbu_3, # of connection points: 4
#     Node 15, Type 0, BuildingBlock: QUQFOY_clean_sbu_3, # of connection points: 4
#     Node 16, Type 0, BuildingBlock: QUQFOY_clean_sbu_3, # of connection points: 4
#     Node 17, Type 0, BuildingBlock: QUQFOY_clean_sbu_3, # of connection points: 4
#     Node 18, Type 0, BuildingBlock: QUQFOY_clean_sbu_3, # of connection points: 4
#     Node 19, Type 0, BuildingBlock: QUQFOY_clean_sbu_3, # of connection points: 4
#     Node 20, Type 0, BuildingBlock: QUQFOY_clean_sbu_3, # of connection points: 4
#     Node 21, Type 0, BuildingBlock: QUQFOY_clean_sbu_3, # of connection points: 4
#     Node 22, Type 0, BuildingBlock: QUQFOY_clean_sbu_3, # of connection points: 4
#     Node 23, Type 0, BuildingBlock: QUQFOY_clean_sbu_3, # of connection points: 4
#     Node 24, Type 1, BuildingBlock: JUFBIX_clean_sbu_0, # of connection points: 6
#     Node 25, Type 1, BuildingBlock: JUFBIX_clean_sbu_0, # of connection points: 6
#     Node 26, Type 1, BuildingBlock: JUFBIX_clean_sbu_0, # of connection points: 6
#     Node 27, Type 1, BuildingBlock: JUFBIX_clean_sbu_0, # of connection points: 6
#     Node 28, Type 1, BuildingBlock: JUFBIX_clean_sbu_0, # of connection points: 6
#     Node 29, Type 1, BuildingBlock: JUFBIX_clean_sbu_0, # of connection points: 6
#     Node 30, Type 1, BuildingBlock: JUFBIX_clean_sbu_0, # of connection points: 6
#     Node 31, Type 1, BuildingBlock: JUFBIX_clean_sbu_0, # of connection points: 6
#     Node 32, Type 1, BuildingBlock: JUFBIX_clean_sbu_0, # of connection points: 6
#     Node 33, Type 1, BuildingBlock: JUFBIX_clean_sbu_0, # of connection points: 6
#     Node 34, Type 1, BuildingBlock: JUFBIX_clean_sbu_0, # of connection points: 6
#     Node 35, Type 1, BuildingBlock: JUFBIX_clean_sbu_0, # of connection points: 6
#     Node 36, Type 1, BuildingBlock: JUFBIX_clean_sbu_0, # of connection points: 6
#     Node 37, Type 1, BuildingBlock: JUFBIX_clean_sbu_0, # of connection points: 6
#     Node 38, Type 1, BuildingBlock: JUFBIX_clean_sbu_0, # of connection points: 6
#     Node 39, Type 1, BuildingBlock: JUFBIX_clean_sbu_0, # of connection points: 6
#     Edge 40, Type (0, 1), BuildingBlock: OJICUG_clean_linker_0, # of connection points: 2
#     Edge 41, Type (0, 1), BuildingBlock: OJICUG_clean_linker_0, # of connection points: 2
#     Edge 42, Type (0, 1), BuildingBlock: OJICUG_clean_linker_0, # of connection points: 2
#     Edge 43, Type (0, 1), BuildingBlock: OJICUG_clean_linker_0, # of connection points: 2
#     Edge 44, Type (0, 1), BuildingBlock: OJICUG_clean_linker_0, # of connection points: 2
#     Edge 45, Type (0, 1), BuildingBlock: OJICUG_clean_linker_0, # of connection points: 2
#     Edge 46, Type (0, 1), BuildingBlock: OJICUG_clean_linker_0, # of connection points: 2
#     Edge 47, Type (0, 1), BuildingBlock: OJICUG_clean_linker_0, # of connection points: 2
#     Edge 48, Type (0, 1), BuildingBlock: OJICUG_clean_linker_0, # of connection points: 2
#     Edge 49, Type (0, 1), BuildingBlock: OJICUG_clean_linker_0, # of connection points: 2
#     Edge 50, Type (0, 1), BuildingBlock: OJICUG_clean_linker_0, # of connection points: 2
#     Edge 51, Type (0, 1), BuildingBlock: OJICUG_clean_linker_0, # of connection points: 2
#     Edge 52, Type (0, 1), BuildingBlock: OJICUG_clean_linker_0, # of connection points: 2
#     Edge 53, Type (0, 1), BuildingBlock: OJICUG_clean_linker_0, # of connection points: 2
#     Edge 54, Type (0, 1), BuildingBlock: OJICUG_clean_linker_0, # of connection points: 2
#     Edge 55, Type (0, 1), BuildingBlock: OJICUG_clean_linker_0, # of connection points: 2
#     Edge 56, Type (0, 1), BuildingBlock: OJICUG_clean_linker_0, # of connection points: 2
#     Edge 57, Type (0, 1), BuildingBlock: OJICUG_clean_linker_0, # of connection points: 2
#     Edge 58, Type (0, 1), BuildingBlock: OJICUG_clean_linker_0, # of connection points: 2
#     Edge 59, Type (0, 1), BuildingBlock: OJICUG_clean_linker_0, # of connection points: 2
#     Edge 60, Type (0, 1), BuildingBlock: OJICUG_clean_linker_0, # of connection points: 2
#     Edge 61, Type (0, 1), BuildingBlock: OJICUG_clean_linker_0, # of connection points: 2
#     Edge 62, Type (0, 1), BuildingBlock: OJICUG_clean_linker_0, # of connection points: 2
#     Edge 63, Type (0, 1), BuildingBlock: OJICUG_clean_linker_0, # of connection points: 2
#     Edge 64, Type (0, 1), BuildingBlock: OJICUG_clean_linker_0, # of connection points: 2
#     Edge 65, Type (0, 1), BuildingBlock: OJICUG_clean_linker_0, # of connection points: 2
#     Edge 66, Type (0, 1), BuildingBlock: OJICUG_clean_linker_0, # of connection points: 2
#     Edge 67, Type (0, 1), BuildingBlock: OJICUG_clean_linker_0, # of connection points: 2
#     Edge 68, Type (0, 1), BuildingBlock: OJICUG_clean_linker_0, # of connection points: 2
#     Edge 69, Type (0, 1), BuildingBlock: OJICUG_clean_linker_0, # of connection points: 2
#     Edge 70, Type (0, 1), BuildingBlock: OJICUG_clean_linker_0, # of connection points: 2
#     Edge 71, Type (0, 1), BuildingBlock: OJICUG_clean_linker_0, # of connection points: 2
#     Edge 72, Type (0, 1), BuildingBlock: OJICUG_clean_linker_0, # of connection points: 2
#     Edge 73, Type (0, 1), BuildingBlock: OJICUG_clean_linker_0, # of connection points: 2
#     Edge 74, Type (0, 1), BuildingBlock: OJICUG_clean_linker_0, # of connection points: 2
#     Edge 75, Type (0, 1), BuildingBlock: OJICUG_clean_linker_0, # of connection points: 2
#     Edge 76, Type (0, 1), BuildingBlock: OJICUG_clean_linker_0, # of connection points: 2
#     Edge 77, Type (0, 1), BuildingBlock: OJICUG_clean_linker_0, # of connection points: 2
#     Edge 78, Type (0, 1), BuildingBlock: OJICUG_clean_linker_0, # of connection points: 2
#     Edge 79, Type (0, 1), BuildingBlock: OJICUG_clean_linker_0, # of connection points: 2
#     Edge 80, Type (0, 1), BuildingBlock: OJICUG_clean_linker_0, # of connection points: 2
#     Edge 81, Type (0, 1), BuildingBlock: OJICUG_clean_linker_0, # of connection points: 2
#     Edge 82, Type (0, 1), BuildingBlock: OJICUG_clean_linker_0, # of connection points: 2
#     Edge 83, Type (0, 1), BuildingBlock: OJICUG_clean_linker_0, # of connection points: 2
#     Edge 84, Type (0, 1), BuildingBlock: OJICUG_clean_linker_0, # of connection points: 2
#     Edge 85, Type (0, 1), BuildingBlock: OJICUG_clean_linker_0, # of connection points: 2
#     Edge 86, Type (0, 1), BuildingBlock: OJICUG_clean_linker_0, # of connection points: 2
#     Edge 87, Type (0, 1), BuildingBlock: OJICUG_clean_linker_0, # of connection points: 2
#     Edge 88, Type (0, 1), BuildingBlock: OJICUG_clean_linker_0, # of connection points: 2
#     Edge 89, Type (0, 1), BuildingBlock: OJICUG_clean_linker_0, # of connection points: 2
#     Edge 90, Type (0, 1), BuildingBlock: OJICUG_clean_linker_0, # of connection points: 2
#     Edge 91, Type (0, 1), BuildingBlock: OJICUG_clean_linker_0, # of connection points: 2
#     Edge 92, Type (0, 1), BuildingBlock: OJICUG_clean_linker_0, # of connection points: 2
#     Edge 93, Type (0, 1), BuildingBlock: OJICUG_clean_linker_0, # of connection points: 2
#     Edge 94, Type (0, 1), BuildingBlock: OJICUG_clean_linker_0, # of connection points: 2
#     Edge 95, Type (0, 1), BuildingBlock: OJICUG_clean_linker_0, # of connection points: 2
#     Edge 96, Type (0, 1), BuildingBlock: OJICUG_clean_linker_0, # of connection points: 2
#     Edge 97, Type (0, 1), BuildingBlock: OJICUG_clean_linker_0, # of connection points: 2
#     Edge 98, Type (0, 1), BuildingBlock: OJICUG_clean_linker_0, # of connection points: 2
#     Edge 99, Type (0, 1), BuildingBlock: OJICUG_clean_linker_0, # of connection points: 2
#     Edge 100, Type (0, 1), BuildingBlock: OJICUG_clean_linker_0, # of connection points: 2
#     Edge 101, Type (0, 1), BuildingBlock: OJICUG_clean_linker_0, # of connection points: 2
#     Edge 102, Type (0, 1), BuildingBlock: OJICUG_clean_linker_0, # of connection points: 2
#     Edge 103, Type (0, 1), BuildingBlock: OJICUG_clean_linker_0, # of connection points: 2
#     Edge 104, Type (0, 1), BuildingBlock: OJICUG_clean_linker_0, # of connection points: 2
#     Edge 105, Type (0, 1), BuildingBlock: OJICUG_clean_linker_0, # of connection points: 2
#     Edge 106, Type (0, 1), BuildingBlock: OJICUG_clean_linker_0, # of connection points: 2
#     Edge 107, Type (0, 1), BuildingBlock: OJICUG_clean_linker_0, # of connection points: 2
#     Edge 108, Type (0, 1), BuildingBlock: OJICUG_clean_linker_0, # of connection points: 2
#     Edge 109, Type (0, 1), BuildingBlock: OJICUG_clean_linker_0, # of connection points: 2
#     Edge 110, Type (0, 1), BuildingBlock: OJICUG_clean_linker_0, # of connection points: 2
#     Edge 111, Type (0, 1), BuildingBlock: OJICUG_clean_linker_0, # of connection points: 2
#     Edge 112, Type (0, 1), BuildingBlock: OJICUG_clean_linker_0, # of connection points: 2
#     Edge 113, Type (0, 1), BuildingBlock: OJICUG_clean_linker_0, # of connection points: 2
#     Edge 114, Type (0, 1), BuildingBlock: OJICUG_clean_linker_0, # of connection points: 2
#     Edge 115, Type (0, 1), BuildingBlock: OJICUG_clean_linker_0, # of connection points: 2
#     Edge 116, Type (0, 1), BuildingBlock: OJICUG_clean_linker_0, # of connection points: 2
#     Edge 117, Type (0, 1), BuildingBlock: OJICUG_clean_linker_0, # of connection points: 2
#     Edge 118, Type (0, 1), BuildingBlock: OJICUG_clean_linker_0, # of connection points: 2
#     Edge 119, Type (0, 1), BuildingBlock: OJICUG_clean_linker_0, # of connection points: 2
#     Edge 120, Type (0, 1), BuildingBlock: OJICUG_clean_linker_0, # of connection points: 2
#     Edge 121, Type (0, 1), BuildingBlock: OJICUG_clean_linker_0, # of connection points: 2
#     Edge 122, Type (0, 1), BuildingBlock: OJICUG_clean_linker_0, # of connection points: 2
#     Edge 123, Type (0, 1), BuildingBlock: OJICUG_clean_linker_0, # of connection points: 2
#     Edge 124, Type (0, 1), BuildingBlock: OJICUG_clean_linker_0, # of connection points: 2
#     Edge 125, Type (0, 1), BuildingBlock: OJICUG_clean_linker_0, # of connection points: 2
#     Edge 126, Type (0, 1), BuildingBlock: OJICUG_clean_linker_0, # of connection points: 2
#     Edge 127, Type (0, 1), BuildingBlock: OJICUG_clean_linker_0, # of connection points: 2
#     Edge 128, Type (0, 1), BuildingBlock: OJICUG_clean_linker_0, # of connection points: 2
#     Edge 129, Type (0, 1), BuildingBlock: OJICUG_clean_linker_0, # of connection points: 2
#     Edge 130, Type (0, 1), BuildingBlock: OJICUG_clean_linker_0, # of connection points: 2
#     Edge 131, Type (0, 1), BuildingBlock: OJICUG_clean_linker_0, # of connection points: 2
#     Edge 132, Type (0, 1), BuildingBlock: OJICUG_clean_linker_0, # of connection points: 2
#     Edge 133, Type (0, 1), BuildingBlock: OJICUG_clean_linker_0, # of connection points: 2
#     Edge 134, Type (0, 1), BuildingBlock: OJICUG_clean_linker_0, # of connection points: 2
#     Edge 135, Type (0, 1), BuildingBlock: OJICUG_clean_linker_0, # of connection points: 2
# Relax obj value: 0.247
# Max RMSD: 0.240
# Mean RMSD: 0.115
data_MOF--net-iac--node1-QUQFOY_clean_sbu_3--node2-JUFBIX_clean_sbu_0--edge1-OJICUG_clean_linker_0
_symmetry_space_group_name_H-M    P1
_symmetry_Int_Tables_number       1
_symmetry_cell_setting            triclinic
loop_
_symmetry_equiv_pos_as_xyz
'x, y, z'
_cell_length_a     40.920153
_cell_length_b     42.789846
_cell_length_c     42.026335
_cell_angle_alpha  90.173166
_cell_angle_beta   87.762239
_cell_angle_gamma 89.08569
loop_
_atom_site_label
_atom_site_type_symbol
_atom_site_fract_x
_atom_site_fract_y
_atom_site_fract_z
_atom_type_partial_charge
C0 C 0.96167 0.27533 0.20156 0.0
O1 O 0.97889 0.25384 0.21371 0.0
Cd2 Cd 0.03504 0.24131 0.20067 0.0
O3 O 0.97365 0.29226 0.1789 0.0
Cd4 Cd 0.02857 0.29474 0.14548 0.0
C5 C 0.02713 0.21159 0.12495 0.0
O6 O 0.06122 0.29083 0.19501 0.0
O7 O 0.09064 0.29477 0.1521 0.0
O8 O 0.02223 0.3541 0.14225 0.0
C9 C 0.08969 0.29288 0.18231 0.0
O10 O 0.03305 0.20753 0.15415 0.0
C11 C 0.02113 0.35716 0.11226 0.0
O12 O 0.0235 0.23979 0.11449 0.0
O13 O 0.02322 0.33152 0.09674 0.0
C14 C 0.02476 0.7896 0.36119 0.0
O15 O 0.04875 0.80636 0.35241 0.0
Cd16 Cd 0.09201 0.81284 0.38543 0.0
O17 O 0.0257 0.7727 0.38623 0.0
Cd18 Cd 0.06584 0.75759 0.42713 0.0
C19 C 0.04329 0.82679 0.45379 0.0
O20 O 0.10667 0.75913 0.38804 0.0
O21 O 0.12593 0.76366 0.43453 0.0
O22 O 0.05189 0.70299 0.42237 0.0
C23 C 0.13122 0.75856 0.40499 0.0
O24 O 0.05903 0.83656 0.42918 0.0
C25 C 0.05588 0.69723 0.45161 0.0
O26 O 0.04302 0.79802 0.46071 0.0
O27 O 0.06257 0.72004 0.46942 0.0
C28 C 0.4633 0.7773 0.70336 0.0
O29 O 0.4809 0.75575 0.71492 0.0
Cd30 Cd 0.53648 0.74249 0.70038 0.0
O31 O 0.47449 0.79409 0.6802 0.0
Cd32 Cd 0.52848 0.79593 0.64489 0.0
C33 C 0.52621 0.71264 0.62496 0.0
O34 O 0.56214 0.79206 0.69368 0.0
O35 O 0.59092 0.79608 0.65045 0.0
O36 O 0.52282 0.85529 0.64024 0.0
C37 C 0.59044 0.7941 0.68065 0.0
O38 O 0.53278 0.70862 0.65402 0.0
C39 C 0.52051 0.8576 0.61029 0.0
O40 O 0.52256 0.74082 0.61448 0.0
O41 O 0.52162 0.83156 0.59547 0.0
C42 C 0.52134 0.29094 0.86123 0.0
O43 O 0.54462 0.30941 0.8549 0.0
Cd44 Cd 0.5935 0.30933 0.88162 0.0
O45 O 0.52375 0.26988 0.88255 0.0
Cd46 Cd 0.56728 0.25343 0.91875 0.0
C47 C 0.55553 0.32157 0.95448 0.0
O48 O 0.60669 0.25502 0.87754 0.0
O49 O 0.62724 0.26159 0.92308 0.0
O50 O 0.55506 0.19819 0.91748 0.0
C51 C 0.63192 0.25635 0.8935 0.0
O52 O 0.57463 0.33231 0.93267 0.0
C53 C 0.55998 0.19442 0.94692 0.0
O54 O 0.54738 0.29319 0.95426 0.0
O55 O 0.56655 0.21844 0.96303 0.0
C56 C 0.10259 0.99095 0.36166 0.0
O57 O 0.0819 0.00612 0.34583 0.0
Cd58 Cd 0.09198 0.02891 0.2951 0.0
O59 O 0.1315 0.98545 0.35053 0.0
Cd60 Cd 0.16055 0.99399 0.29853 0.0
C61 C 0.16031 0.0719 0.30833 0.0
O62 O 0.11489 0.98602 0.26594 0.0
O63 O 0.15638 0.00678 0.24153 0.0
O64 O 0.18014 0.94129 0.29248 0.0
C65 C 0.1284 0.99462 0.23999 0.0
O66 O 0.13029 0.07188 0.30136 0.0
C67 C 0.21028 0.94751 0.29305 0.0
O68 O 0.17651 0.04647 0.31054 0.0
O69 O 0.21789 0.97578 0.29757 0.0
C70 C 0.26803 0.97805 0.53294 0.0
O71 O 0.24327 0.99053 0.52046 0.0
Cd72 Cd 0.19371 0.96332 0.52337 0.0
O73 O 0.26513 0.95408 0.55076 0.0
Cd74 Cd 0.22306 0.9193 0.57364 0.0
C75 C 0.23084 0.89355 0.49971 0.0
O76 O 0.1842 0.95985 0.58031 0.0
O77 O 0.16393 0.9137 0.58259 0.0
O78 O 0.24603 0.9167 0.62572 0.0
C79 C 0.16036 0.94275 0.5881 0.0
O80 O 0.21624 0.91869 0.49183 0.0
C81 C 0.24227 0.88728 0.62743 0.0
O82 O 0.23434 0.88711 0.52871 0.0
O83 O 0.23149 0.87344 0.60339 0.0
C84 C 0.4857 0.03673 0.78917 0.0
O85 O 0.49468 0.0199 0.7654 0.0
Cd86 Cd 0.45909 0.01388 0.72303 0.0
O87 O 0.45875 0.05207 0.78959 0.0
Cd88 Cd 0.4124 0.06301 0.75676 0.0
C89 C 0.3936 0.98951 0.77006 0.0
O90 O 0.44498 0.06683 0.71067 0.0
O91 O 0.39404 0.0586 0.70224 0.0
O92 O 0.4115 0.11753 0.77013 0.0
C93 C 0.42168 0.06802 0.69189 0.0
O94 O 0.41621 0.98246 0.74946 0.0
C95 C 0.38047 0.11941 0.77115 0.0
O96 O 0.38758 0.01771 0.77774 0.0
O97 O 0.36479 0.09416 0.76925 0.0
C98 C 0.33527 0.10849 0.04013 0.0
O99 O 0.31737 0.0961 0.06185 0.0
Cd100 Cd 0.26109 0.10798 0.07464 0.0
O101 O 0.32397 0.13089 0.02325 0.0
Cd102 Cd 0.26935 0.1632 0.02208 0.0
C103 C 0.26947 0.18221 0.10548 0.0
O104 O 0.23702 0.11306 0.02374 0.0
O105 O 0.20833 0.15498 0.02006 0.0
O106 O 0.29403 0.1756 0.96682 0.0
C107 C 0.20888 0.12539 0.02131 0.0
O108 O 0.2626 0.15355 0.10948 0.0
C109 C 0.27703 0.20001 0.96158 0.0
O110 O 0.27438 0.19267 0.077 0.0
O111 O 0.25715 0.20813 0.98423 0.0
C112 C 0.77171 0.47801 0.0261 0.0
O113 O 0.74761 0.4918 0.01375 0.0
Cd114 Cd 0.69571 0.46883 0.01786 0.0
O115 O 0.76753 0.45464 0.04452 0.0
Cd116 Cd 0.72359 0.42284 0.06851 0.0
C117 C 0.72756 0.39685 -0.00577 0.0
O118 O 0.68762 0.46612 0.07488 0.0
O119 O 0.66466 0.42131 0.07951 0.0
O120 O 0.74741 0.41823 0.12009 0.0
C121 C 0.66284 0.45068 0.08362 0.0
O122 O 0.71423 0.42269 0.98654 0.0
C123 C 0.74165 0.38912 0.1217 0.0
O124 O 0.7315 0.39033 0.02316 0.0
O125 O 0.72944 0.37625 0.09781 0.0
C126 C 0.9826 0.52813 0.28608 0.0
O127 O 0.98384 0.50953 0.26248 0.0
Cd128 Cd 0.94806 0.51384 0.21959 0.0
O129 O 0.96093 0.54977 0.28847 0.0
Cd130 Cd 0.91426 0.56444 0.25731 0.0
C131 C 0.88063 0.49624 0.26439 0.0
O132 O 0.94313 0.56831 0.20841 0.0
O133 O 0.89147 0.56117 0.20395 0.0
O134 O 0.91602 0.61934 0.26952 0.0
C135 C 0.91826 0.57081 0.19171 0.0
O136 O 0.89755 0.48934 0.2392 0.0
C137 C 0.88508 0.62178 0.27269 0.0
O138 O 0.88479 0.52165 0.27903 0.0
O139 O 0.86885 0.59678 0.27308 0.0
C140 C 0.83313 0.6055 0.53547 0.0
O141 O 0.81508 0.59378 0.55749 0.0
Cd142 Cd 0.75971 0.60742 0.57231 0.0
O143 O 0.82254 0.62843 0.51891 0.0
Cd144 Cd 0.76895 0.66212 0.51906 0.0
C145 C 0.7698 0.68118 0.60313 0.0
O146 O 0.7342 0.61426 0.52254 0.0
O147 O 0.70679 0.65712 0.52027 0.0
O148 O 0.77405 0.66813 0.45912 0.0
C149 C 0.70638 0.62745 0.52139 0.0
O150 O 0.76284 0.65258 0.60737 0.0
C151 C 0.77683 0.69761 0.45767 0.0
O152 O 0.77428 0.69146 0.57449 0.0
O153 O 0.77633 0.71146 0.48454 0.0
C154 C 0.60013 0.4923 0.86213 0.0
O155 O 0.5797 0.50802 0.84651 0.0
Cd156 Cd 0.5896 0.53129 0.79601 0.0
O157 O 0.62908 0.48677 0.85109 0.0
Cd158 Cd 0.65811 0.49682 0.79938 0.0
C159 C 0.65722 0.57469 0.80966 0.0
O160 O 0.61261 0.48849 0.76668 0.0
O161 O 0.65364 0.51028 0.74257 0.0
O162 O 0.68003 0.44509 0.79155 0.0
C163 C 0.62601 0.49747 0.74083 0.0
O164 O 0.62733 0.57479 0.80226 0.0
C165 C 0.70982 0.45257 0.7924 0.0
O166 O 0.67327 0.54921 0.81203 0.0
O167 O 0.71608 0.48093 0.79817 0.0
C168 C 0.95742 0.79732 0.84961 0.0
O169 O 0.97723 0.81528 0.83492 0.0
Cd170 Cd 0.03157 0.82756 0.8501 0.0
O171 O 0.96618 0.7841 0.87548 0.0
Cd172 Cd 0.01995 0.78223 0.90888 0.0
C173 C 0.02427 0.86511 0.92324 0.0
O174 O 0.06003 0.77981 0.8619 0.0
O175 O 0.08098 0.78767 0.90712 0.0
O176 O 0.00695 0.72441 0.91353 0.0
C177 C 0.0857 0.78321 0.87746 0.0
O178 O 0.03067 0.86608 0.89336 0.0
C179 C 0.01306 0.72031 0.94261 0.0
O180 O 0.01729 0.8386 0.93632 0.0
O181 O 0.02168 0.74487 0.95712 0.0
C182 C 0.98677 0.27907 0.70644 0.0
O183 O 0.01124 0.26744 0.72012 0.0
Cd184 Cd 0.06476 0.26768 0.69657 0.0
O185 O 0.98983 0.29174 0.67913 0.0
Cd186 Cd 0.03044 0.30671 0.63798 0.0
C187 C 0.05443 0.2328 0.62283 0.0
O188 O 0.06647 0.31951 0.67688 0.0
O189 O 0.09 0.31721 0.6306 0.0
O190 O 0.00075 0.35518 0.63615 0.0
C191 C 0.09263 0.32122 0.66029 0.0
O192 O 0.06655 0.23218 0.65035 0.0
C193 C 2e-05 0.3563 0.60606 0.0
O194 O 0.038 0.25633 0.61352 0.0
O195 O 0.01294 0.33347 0.59047 0.0
C196 C 0.45629 0.29865 0.35044 0.0
O197 O 0.47569 0.31691 0.33561 0.0
Cd198 Cd 0.5302 0.32938 0.3498 0.0
O199 O 0.46556 0.28527 0.37602 0.0
Cd200 Cd 0.51964 0.28334 0.40861 0.0
C201 C 0.52366 0.36621 0.42345 0.0
O202 O 0.5583 0.28126 0.36066 0.0
O203 O 0.58081 0.28826 0.40525 0.0
O204 O 0.50538 0.22582 0.41303 0.0
C205 C 0.58451 0.28423 0.37543 0.0
O206 O 0.52966 0.3674 0.39352 0.0
C207 C 0.51276 0.2211 0.44168 0.0
O208 O 0.51705 0.33958 0.43645 0.0
O209 O 0.52272 0.24519 0.45612 0.0
C210 C 0.48194 0.77621 0.20667 0.0
O211 O 0.50697 0.76377 0.21865 0.0
Cd212 Cd 0.55952 0.76453 0.19301 0.0
O213 O 0.48379 0.79032 0.18006 0.0
Cd214 Cd 0.52321 0.80695 0.13877 0.0
C215 C 0.54483 0.73409 0.11813 0.0
O216 O 0.56167 0.81729 0.17646 0.0
O217 O 0.58277 0.81506 0.12909 0.0
O218 O 0.49625 0.85705 0.13981 0.0
C219 C 0.58694 0.81891 0.15857 0.0
O220 O 0.55857 0.73195 0.1448 0.0
C221 C 0.49393 0.85898 0.10989 0.0
O222 O 0.52801 0.75815 0.11106 0.0
O223 O 0.50445 0.83584 0.09323 0.0
C224 C 0.97895 0.05538 0.7823 0.0
O225 O -0.00615 0.04133 0.75924 0.0
Cd226 Cd 0.96474 0.03746 0.71013 0.0
O227 O 0.94964 0.06485 0.78019 0.0
Cd228 Cd 0.90157 0.07001 0.74993 0.0
C229 C 0.89836 0.99342 0.7345 0.0
O230 O 0.93457 0.0859 0.70566 0.0
O231 O 0.88361 0.08102 0.69596 0.0
O232 O 0.89811 0.11419 0.78466 0.0
C233 C 0.91232 0.08708 0.68559 0.0
O234 O 0.92402 0.9963 0.71661 0.0
C235 C 0.86729 0.114 0.78886 0.0
O236 O 0.88708 0.01592 0.7517 0.0
O237 O 0.85189 0.09283 0.77467 0.0
C238 C 0.85461 0.09962 0.49622 0.0
O239 O 0.83997 0.0819 0.51609 0.0
Cd240 Cd 0.79311 0.09704 0.54821 0.0
O241 O 0.84455 0.12729 0.49145 0.0
Cd242 Cd 0.79602 0.1581 0.50559 0.0
C243 C 0.81077 0.16838 0.58196 0.0
O244 O 0.75821 0.11632 0.50907 0.0
O245 O 0.7394 0.1611 0.52606 0.0
O246 O 0.79379 0.16419 0.44979 0.0
C247 C 0.73433 0.13252 0.52024 0.0
O248 O 0.80325 0.13978 0.58562 0.0
C249 C 0.79588 0.19369 0.44995 0.0
O250 O 0.81322 0.1804 0.55436 0.0
O251 O 0.79699 0.20727 0.47683 0.0
C252 C 0.59403 0.02191 0.34772 0.0
O253 O 0.57487 0.03149 0.32664 0.0
Cd254 Cd 0.5883 0.0367 0.27138 0.0
O255 O 0.62282 0.01223 0.34065 0.0
Cd256 Cd 0.65674 0.00113 0.29407 0.0
C257 C 0.66155 0.07624 0.2758 0.0
O258 O 0.61464 0.98877 0.26014 0.0
O259 O 0.66113 0.99602 0.23601 0.0
O260 O 0.66249 0.95075 0.316 0.0
C261 C 0.63078 0.99108 0.23409 0.0
O262 O 0.63247 0.07438 0.26614 0.0
C263 C 0.69348 0.95046 0.31448 0.0
O264 O 0.67538 0.05372 0.29007 0.0
O265 O 0.70774 0.97487 0.3042 0.0
C266 C 0.83609 0.96626 0.0118 0.0
O267 O 0.81617 0.97992 0.99383 0.0
Cd268 Cd 0.76157 0.96337 0.98467 0.0
O269 O 0.82736 0.9411 0.02632 0.0
Cd270 Cd 0.77429 0.90646 0.03125 0.0
C271 C 0.76931 0.89123 0.94731 0.0
O272 O 0.73512 0.95237 0.03547 0.0
O273 O 0.7128 0.90795 0.02942 0.0
O274 O 0.79132 0.90065 0.08879 0.0
C275 C 0.70893 0.93708 0.03395 0.0
O276 O 0.76255 0.92034 0.94593 0.0
C277 C 0.78384 0.87226 0.09317 0.0
O278 O 0.77646 0.87908 0.97433 0.0
O279 O 0.77254 0.85882 0.06894 0.0
C280 C 0.34153 0.59114 0.00239 0.0
O281 O 0.32525 0.57489 0.02247 0.0
Cd282 Cd 0.27938 0.59337 0.05399 0.0
O283 O 0.33437 0.61967 -0.0024 0.0
Cd284 Cd 0.29172 0.65804 0.01119 0.0
C285 C 0.30483 0.66226 0.08923 0.0
O286 O 0.25174 0.61985 0.01395 0.0
O287 O 0.23336 0.66559 0.02755 0.0
O288 O 0.29456 0.66497 0.95537 0.0
C289 C 0.22798 0.63671 0.02397 0.0
O290 O 0.29417 0.63446 0.0916 0.0
C291 C 0.29871 0.69422 0.95596 0.0
O292 O 0.30925 0.67524 0.06221 0.0
O293 O 0.29896 0.70746 0.9831 0.0
C294 C 0.09768 0.52511 0.8562 0.0
O295 O 0.0767 0.53781 0.83866 0.0
Cd296 Cd 0.08294 0.54729 0.78308 0.0
O297 O 0.12438 0.51359 0.84486 0.0
Cd298 Cd 0.15025 0.50357 0.79317 0.0
C299 C 0.16032 0.57947 0.77892 0.0
O300 O 0.10204 0.49812 0.76482 0.0
O301 O 0.14634 0.49992 0.73559 0.0
O302 O 0.15633 0.45106 0.80976 0.0
C303 C 0.11536 0.49897 0.73724 0.0
O304 O 0.1295 0.58187 0.77591 0.0
C305 C 0.18728 0.45051 0.80666 0.0
O306 O 0.17398 0.5539 0.78686 0.0
O307 O 0.20128 0.47527 0.79702 0.0
C308 C 0.33419 0.46594 0.51386 0.0
O309 O 0.31414 0.4795 0.49596 0.0
Cd310 Cd 0.25947 0.46329 0.48696 0.0
O311 O 0.32556 0.44082 0.52858 0.0
Cd312 Cd 0.27224 0.40621 0.53372 0.0
C313 C 0.26721 0.39092 0.44996 0.0
O314 O 0.23331 0.45229 0.53781 0.0
O315 O 0.21088 0.40803 0.53116 0.0
O316 O 0.28826 0.39958 0.59148 0.0
C317 C 0.20709 0.43714 0.53591 0.0
O318 O 0.26041 0.42002 0.44854 0.0
C319 C 0.28042 0.37123 0.59544 0.0
O320 O 0.27444 0.3788 0.47696 0.0
O321 O 0.26947 0.35814 0.57085 0.0
C322 C 0.48402 0.553 0.28227 0.0
O323 O 0.49816 0.53928 0.2586 0.0
Cd324 Cd 0.46635 0.535 0.21108 0.0
O325 O 0.45445 0.56197 0.28143 0.0
Cd326 Cd 0.40473 0.56679 0.2539 0.0
C327 C 0.40137 0.49036 0.23811 0.0
O328 O 0.43486 0.58286 0.20782 0.0
O329 O 0.38338 0.57703 0.20113 0.0
O330 O 0.40236 0.61139 0.28817 0.0
C331 C 0.41138 0.58335 0.18909 0.0
O332 O 0.42612 0.49354 0.21906 0.0
C333 C 0.37195 0.61007 0.29484 0.0
O334 O 0.39094 0.51261 0.25612 0.0
O335 O 0.35624 0.58825 0.28203 0.0
Co336 Co 0.02116 0.05236 -0.0014 0.0
C337 C 0.0165 0.09311 0.05178 0.0
Co338 Co 0.02998 0.02774 0.04283 0.0
C339 C 0.0101 0.06011 0.93206 0.0
C340 C 0.02513 0.10246 0.95396 0.0
N341 N 0.01666 0.07271 0.96046 0.0
N342 N 0.01456 0.08064 0.90813 0.0
C343 C 0.02363 0.10746 0.92179 0.0
H344 H 0.00278 0.03615 0.92882 0.0
H345 H 0.03355 0.11901 0.9712 0.0
C346 C 0.03432 0.98662 0.99054 0.0
N347 N 0.03573 0.00723 0.08033 0.0
C348 C 0.05584 0.01475 0.10361 0.0
C349 C 0.02195 0.98015 0.08959 0.0
N350 N 0.0553 0.99334 0.12703 0.0
C351 C 0.0339 0.97157 0.11841 0.0
C352 C 0.96429 0.02512 0.02353 0.0
O353 O 0.02932 0.01223 0.97583 0.0
O354 O 0.03758 0.98824 0.02044 0.0
O355 O 0.9836 0.01771 0.04546 0.0
O356 O 0.97525 0.0423 0.00091 0.0
O357 O 0.02225 0.06731 0.06593 0.0
H358 H 0.00487 0.96714 0.07592 0.0
H359 H 0.0706 0.03552 0.10333 0.0
O360 O 0.01299 0.09199 0.02178 0.0
O361 O 0.06658 0.06267 -0.00406 0.0
O362 O 0.07671 0.03794 0.03982 0.0
C363 C 0.08665 0.05552 0.0171 0.0
H364 H 0.02995 0.12874 0.90929 0.0
H365 H 0.02797 0.95056 0.13155 0.0
Co366 Co 0.31761 0.79052 0.3276 0.0
C367 C 0.31906 0.72728 0.32176 0.0
Co368 Co 0.29363 0.77464 0.28458 0.0
C369 C 0.31369 0.82888 0.38086 0.0
C370 C 0.35036 0.79382 0.38815 0.0
N371 N 0.33134 0.80616 0.36572 0.0
N372 N 0.31973 0.83079 0.4119 0.0
C373 C 0.34304 0.80887 0.4168 0.0
H374 H 0.29323 0.84083 0.37043 0.0
H375 H 0.36581 0.77323 0.3848 0.0
C376 C 0.29018 0.8378 0.29038 0.0
N377 N 0.27826 0.75984 0.24703 0.0
C378 C 0.2934 0.73872 0.22743 0.0
C379 C 0.25226 0.77035 0.23116 0.0
N380 N 0.27828 0.73612 0.19977 0.0
C381 C 0.25239 0.75593 0.20185 0.0
C382 C 0.25093 0.77636 0.33406 0.0
O383 O 0.30645 0.8321 0.31481 0.0
O384 O 0.28237 0.81532 0.27277 0.0
O385 O 0.25262 0.77014 0.30455 0.0
O386 O 0.27597 0.78596 0.34754 0.0
O387 O 0.30427 0.7339 0.29665 0.0
H388 H 0.23518 0.78827 0.23981 0.0
H389 H 0.31612 0.72679 0.23259 0.0
O390 O 0.32851 0.74906 0.33965 0.0
O391 O 0.35916 0.79426 0.3079 0.0
O392 O 0.33518 0.7789 0.26472 0.0
C393 C 0.36074 0.78705 0.27853 0.0
H394 H 0.35221 0.80254 0.43976 0.0
H395 H 0.23528 0.76009 0.18325 0.0
Co396 Co 0.48613 0.03218 0.5106 0.0
C397 C 0.50823 0.09401 0.49737 0.0
Co398 Co 0.53109 0.04327 0.53401 0.0
C399 C 0.42236 0.01037 0.50588 0.0
C400 C 0.43832 0.03154 0.46204 0.0
N401 N 0.44836 0.02334 0.49108 0.0
N402 N 0.39611 0.01061 0.4877 0.0
C403 C 0.40589 0.02383 0.45994 0.0
H404 H 0.42211 0.0029 0.53048 0.0
H405 H 0.45311 0.04362 0.44423 0.0
C406 C 0.51009 0.98169 0.5481 0.0
N407 N 0.56849 0.05261 0.55402 0.0
C408 C 0.59556 0.06385 0.53951 0.0
C409 C 0.57439 0.05295 0.58543 0.0
N410 N 0.61801 0.07144 0.56045 0.0
C411 C 0.60501 0.06496 0.5895 0.0
C412 C 0.47555 0.05895 0.56893 0.0
O413 O 0.48722 0.98959 0.52967 0.0
O414 O 0.53182 0.00189 0.5533 0.0
O415 O 0.50647 0.05894 0.56899 0.0
O416 O 0.46146 0.04744 0.54559 0.0
O417 O 0.53075 0.08495 0.51544 0.0
H418 H 0.55721 0.04586 0.60414 0.0
H419 H 0.59825 0.0678 0.51411 0.0
O420 O 0.48577 0.07458 0.49161 0.0
O421 O 0.50957 0.01733 0.47579 0.0
O422 O 0.55576 0.02781 0.49771 0.0
C423 C 0.5404 0.01792 0.47411 0.0
H424 H 0.39051 0.02845 0.44005 0.0
H425 H 0.61664 0.06893 0.61182 0.0
Co426 Co 0.3088 0.29781 0.78361 0.0
C427 C 0.28757 0.31077 0.72188 0.0
Co428 Co 0.26234 0.27539 0.7753 0.0
C429 C 0.37342 0.3003 0.8042 0.0
C430 C 0.35854 0.34405 0.78431 0.0
N431 N 0.34812 0.31499 0.79103 0.0
N432 N 0.3994 0.31893 0.80602 0.0
C433 C 0.39027 0.34655 0.79352 0.0
H434 H 0.37292 0.27615 0.81177 0.0
H435 H 0.34401 0.36213 0.77341 0.0
C436 C 0.28349 0.26278 0.8368 0.0
N437 N 0.22215 0.25854 0.76772 0.0
C438 C 0.20853 0.25762 0.7391 0.0
C439 C 0.19681 0.25674 0.7891 0.0
N440 N 0.17577 0.25854 0.74163 0.0
C441 C 0.16823 0.25685 0.77307 0.0
C442 C 0.31436 0.2374 0.76089 0.0
O443 O 0.30765 0.27898 0.82662 0.0
O444 O 0.2601 0.25877 0.81823 0.0
O445 O 0.28336 0.23849 0.76142 0.0
O446 O 0.33004 0.26167 0.76768 0.0
O447 O 0.26504 0.29269 0.73184 0.0
H448 H 0.19849 0.2602 0.81448 0.0
H449 H 0.22182 0.26158 0.71678 0.0
O450 O 0.31015 0.31661 0.74094 0.0
O451 O 0.28784 0.33367 0.79985 0.0
O452 O 0.2411 0.31228 0.78983 0.0
C453 C 0.25696 0.33519 0.80004 0.0
H454 H 0.40524 0.36712 0.79154 0.0
H455 H 0.14399 0.26064 0.78381 0.0
Co456 Co -0.00581 0.00395 0.52776 0.0
C457 C 0.97053 0.05036 0.56735 0.0
Co458 Co 0.02392 0.04619 0.52457 0.0
C459 C 0.98497 0.93934 0.53012 0.0
C460 C 0.93958 0.96253 0.52133 0.0
N461 N 0.9706 0.96774 0.52936 0.0
N462 N 0.96506 0.91658 0.52117 0.0
C463 C 0.93631 0.931 0.51569 0.0
H464 H 0.01114 0.93597 0.53189 0.0
H465 H 0.92191 0.98066 0.51601 0.0
C466 C 0.04758 0.00025 0.48456 0.0
N467 N 0.04784 0.08212 0.52305 0.0
C468 C 0.05352 0.10061 0.5481 0.0
C469 C 0.05909 0.09798 0.49732 0.0
N470 N 0.06698 0.12782 0.53913 0.0
C471 C 0.07068 0.12633 0.50716 0.0
C472 C 0.04407 0.00417 0.56939 0.0
O473 O 0.02322 0.98555 0.49612 0.0
O474 O 0.05266 0.02784 0.49396 0.0
O475 O 0.05008 0.03054 0.5569 0.0
O476 O 0.02016 0.98867 0.56007 0.0
O477 O -0.00502 0.06457 0.55539 0.0
H478 H 0.05708 0.0903 0.47294 0.0
H479 H 0.04534 0.09533 0.57227 0.0
O480 O 0.96522 0.0225 0.55867 0.0
O481 O 0.96852 0.01929 0.49566 0.0
O482 O -0.0027 0.06187 0.49226 0.0
C483 C 0.97342 0.04589 0.48334 0.0
H484 H 0.91597 0.92022 0.5044 0.0
H485 H 0.07937 0.14503 0.49192 0.0
Co486 Co 0.27992 0.81198 0.80328 0.0
C487 C 0.2161 0.79093 0.81593 0.0
Co488 Co 0.27007 0.76821 0.77879 0.0
C489 C 0.31659 0.86432 0.82252 0.0
C490 C 0.26514 0.87294 0.82838 0.0
N491 N 0.28755 0.85008 0.82201 0.0
N492 N 0.31326 0.89545 0.82657 0.0
C493 C 0.28089 0.90085 0.83121 0.0
H494 H 0.33968 0.85269 0.81665 0.0
H495 H 0.23898 0.87036 0.82704 0.0
C496 C 0.33341 0.78815 0.76529 0.0
N497 N 0.26185 0.73089 0.7596 0.0
C498 C 0.24124 0.70925 0.77119 0.0
C499 C 0.27415 0.71896 0.73176 0.0
N500 N 0.23999 0.68442 0.75177 0.0
C501 C 0.26082 0.69003 0.72698 0.0
C502 C 0.25699 0.819 0.7429 0.0
O503 O 0.32362 0.81152 0.78211 0.0
O504 O 0.31398 0.76568 0.76211 0.0
O505 O 0.25794 0.78939 0.7422 0.0
O506 O 0.26394 0.83326 0.76813 0.0
O507 O 0.22543 0.77049 0.79542 0.0
H508 H 0.29148 0.73059 0.71592 0.0
H509 H 0.22755 0.71144 0.79368 0.0
O510 O 0.23643 0.81154 0.8237 0.0
O511 O 0.29609 0.79108 0.83845 0.0
O512 O 0.28264 0.7471 0.81573 0.0
C513 C 0.29385 0.76158 0.83928 0.0
H514 H 0.26911 0.92369 0.83225 0.0
H515 H 0.26544 0.67467 0.70673 0.0
Co516 Co 0.51974 0.0158 0.00622 0.0
C517 C 0.58046 -0.00102 0.03055 0.0
Co518 Co 0.52682 0.03591 0.05303 0.0
C519 C 0.51157 0.01837 0.94021 0.0
C520 C 0.52177 0.97154 0.95496 0.0
N521 N 0.51567 0.00072 0.96608 0.0
N522 N 0.51563 0.00174 0.91314 0.0
C523 C 0.52167 0.97207 0.92225 0.0
H524 H 0.50737 0.04334 0.94136 0.0
H525 H 0.52741 0.95156 0.96959 0.0
C526 C 0.46646 0.05291 0.02939 0.0
N527 N 0.5327 0.05024 0.09331 0.0
C528 C 0.54325 0.03151 0.1164 0.0
C529 C 0.53515 0.07959 0.10478 0.0
N530 N 0.55301 0.04769 0.14148 0.0
C531 C 0.54822 0.07807 0.13452 0.0
C532 C 0.5479 0.07465 0.00612 0.0
O533 O 0.47718 0.03733 0.00508 0.0
O534 O 0.48433 0.0546 0.05342 0.0
O535 O 0.54442 0.07288 0.0361 0.0
O536 O 0.54009 0.05162 0.98927 0.0
O537 O 0.57028 0.01713 0.05288 0.0
H538 H 0.53037 0.10064 0.09144 0.0
H539 H 0.54719 0.00656 0.11351 0.0
O540 O 0.56185 0.99447 0.00752 0.0
O541 O 0.49941 0.98029 0.02261 0.0
O542 O 0.50841 -0.00131 0.06993 0.0
C543 C 0.49736 0.97736 0.05252 0.0
H544 H 0.52613 0.95225 0.90654 0.0
H545 H 0.55554 0.09757 0.14893 0.0
Co546 Co 0.2617 0.268 0.28932 0.0
C547 C 0.32813 0.28283 0.29379 0.0
Co548 Co 0.27481 0.30986 0.26257 0.0
C549 C 0.23027 0.20971 0.30206 0.0
C550 C 0.26079 0.22327 0.33981 0.0
N551 N 0.25026 0.23246 0.31124 0.0
N552 N 0.22808 0.18657 0.32367 0.0
C553 C 0.24731 0.19491 0.34745 0.0
H554 H 0.21827 0.20973 0.27955 0.0
H555 H 0.27743 0.23625 0.35402 0.0
C556 C 0.20887 0.29578 0.2567 0.0
N557 N 0.28692 0.34514 0.24088 0.0
C558 C 0.3071 0.36705 0.2514 0.0
C559 C 0.2816 0.35283 0.21038 0.0
N560 N 0.31509 0.38784 0.22861 0.0
C561 C 0.29914 0.37913 0.20268 0.0
C562 C 0.27821 0.25598 0.224 0.0
O563 O 0.21625 0.27368 0.2757 0.0
O564 O 0.23065 0.31579 0.24974 0.0
O565 O 0.283 0.2853 0.22387 0.0
O566 O 0.27054 0.24326 0.25065 0.0
O567 O 0.31929 0.30407 0.27475 0.0
H568 H 0.26695 0.33952 0.19448 0.0
H569 H 0.31717 0.36679 0.27485 0.0
O570 O 0.307 0.26273 0.30258 0.0
O571 O 0.2531 0.29231 0.3279 0.0
O572 O 0.26663 0.33455 0.30193 0.0
C573 C 0.2588 0.32145 0.3284 0.0
H574 H 0.25126 0.1815 0.36879 0.0
H575 H 0.3005 0.39066 0.17978 0.0
Co576 Co 0.49064 0.50099 0.0296 0.0
C577 C 0.46458 0.54645 0.06876 0.0
Co578 Co 0.51521 0.5459 0.02248 0.0
C579 C 0.47501 0.43954 0.01302 0.0
C580 C 0.47054 0.44627 0.06336 0.0
N581 N 0.47276 0.46189 0.03553 0.0
N582 N 0.47844 0.41083 0.02553 0.0
C583 C 0.47438 0.41476 0.05723 0.0
H584 H 0.48045 0.44451 0.98814 0.0
H585 H 0.47198 0.45712 0.08654 0.0
C586 C 0.54208 0.50129 0.98343 0.0
N587 N 0.53345 0.58446 0.01735 0.0
C588 C 0.54095 0.6035 0.04137 0.0
C589 C 0.5389 0.60125 0.99062 0.0
N590 N 0.55024 0.63178 0.03097 0.0
C591 C 0.54901 0.63063 -0.001 0.0
C592 C 0.54377 0.50956 0.06711 0.0
O593 O 0.5204 0.48463 -0.00293 0.0
O594 O 0.54395 0.52985 0.99084 0.0
O595 O 0.54595 0.53569 0.05311 0.0
O596 O 0.52102 0.49136 0.06027 0.0
O597 O 0.4865 0.56236 0.05456 0.0
H598 H 0.53427 0.59319 0.96682 0.0
H599 H 0.53731 0.59744 0.06624 0.0
O600 O 0.46158 0.51783 0.06152 0.0
O601 O 0.46051 0.51054 -0.0009 0.0
O602 O 0.48401 0.55579 0.99189 0.0
C603 C 0.46134 0.53701 0.98559 0.0
H604 H 0.47944 0.39702 0.07477 0.0
H605 H 0.55369 0.64998 0.98301 0.0
Co606 Co 0.77696 0.31134 0.29713 0.0
C607 C 0.71294 0.29178 0.30996 0.0
Co608 Co 0.76616 0.26802 0.27226 0.0
C609 C 0.80149 0.37136 0.2985 0.0
C610 C 0.77784 0.3622 0.34364 0.0
N611 N 0.78606 0.349 0.3152 0.0
N612 N 0.80292 0.39829 0.31473 0.0
C613 C 0.78847 0.39273 0.3435 0.0
H614 H 0.81137 0.36787 0.27448 0.0
H615 H 0.76439 0.35068 0.3628 0.0
C616 C 0.83003 0.28658 0.25924 0.0
N617 N 0.75688 0.23108 0.25298 0.0
C618 C 0.74204 0.20668 0.26701 0.0
C619 C 0.76081 0.22313 0.22194 0.0
N620 N 0.73619 0.18396 0.24599 0.0
C621 C 0.74772 0.19408 0.21749 0.0
C622 C 0.75397 0.31914 0.23654 0.0
O623 O 0.82096 0.30945 0.27713 0.0
O624 O 0.8098 0.26499 0.25467 0.0
O625 O 0.75348 0.2896 0.2359 0.0
O626 O 0.76198 0.33289 0.26162 0.0
O627 O 0.72191 0.27067 0.28994 0.0
H628 H 0.77163 0.23785 0.20363 0.0
H629 H 0.73431 0.20615 0.29194 0.0
O630 O 0.7334 0.31265 0.31688 0.0
O631 O 0.79183 0.2903 0.33257 0.0
O632 O 0.7792 0.24658 0.30895 0.0
C633 C 0.78969 0.26081 0.33298 0.0
H634 H 0.78518 0.4096 0.36264 0.0
H635 H 0.74633 0.18157 0.19517 0.0
Co636 Co 0.01858 0.51406 0.50144 0.0
C637 C 0.07921 0.49936 0.529 0.0
Co638 Co 0.02368 0.53333 0.54906 0.0
C639 C 0.0128 0.51275 0.4342 0.0
C640 C 0.02791 0.46847 0.45252 0.0
N641 N 0.01761 0.49739 0.46145 0.0
N642 N 0.02046 0.49487 0.4084 0.0
C643 C 0.02968 0.46683 0.41989 0.0
H644 H 0.0046 0.53687 0.43354 0.0
H645 H 0.03532 0.45029 0.46869 0.0
C646 C 0.96336 0.54813 0.52266 0.0
N647 N 0.0261 0.54907 0.58928 0.0
C648 C 0.03515 0.53213 0.61433 0.0
C649 C 0.02431 0.57892 0.59979 0.0
N650 N 0.03961 0.55003 0.6399 0.0
C651 C 0.03332 0.57963 0.63105 0.0
C652 C 0.04394 0.57357 0.50239 0.0
O653 O 0.97493 0.53305 0.49833 0.0
O654 O 0.98074 0.55022 0.54696 0.0
O655 O 0.04052 0.57052 0.53228 0.0
O656 O 0.03701 0.55096 0.48447 0.0
O657 O 0.06752 0.51632 0.55166 0.0
H658 H 0.01898 0.59898 0.58516 0.0
H659 H 0.04135 0.50743 0.61308 0.0
O660 O 0.06187 0.49535 0.50492 0.0
O661 O -3e-05 0.47748 0.5179 0.0
O662 O 0.00622 0.49589 0.56578 0.0
C663 C -0.00297 0.47419 0.54775 0.0
H664 H 0.03818 0.44683 0.40591 0.0
H665 H 0.03693 0.60021 0.64546 0.0
Co666 Co 0.81297 0.79914 0.28185 0.0
C667 C 0.79279 0.81299 0.21998 0.0
Co668 Co 0.76717 0.77635 0.27222 0.0
C669 C 0.87693 0.80032 0.30421 0.0
C670 C 0.86396 0.84397 0.28288 0.0
N671 N 0.85233 0.81551 0.29041 0.0
N672 N 0.90367 0.81798 0.30541 0.0
C673 C 0.89576 0.84554 0.29207 0.0
H674 H 0.87555 0.77635 0.31227 0.0
H675 H 0.85034 0.86213 0.27109 0.0
C676 C 0.78618 0.76193 0.33345 0.0
N677 N 0.72747 0.76091 0.26186 0.0
C678 C 0.70492 0.77989 0.24945 0.0
C679 C 0.71793 0.73168 0.25493 0.0
N680 N 0.68228 0.76416 0.23416 0.0
C681 C 0.69003 0.73366 0.23748 0.0
C682 C 0.81923 0.73906 0.2575 0.0
O683 O 0.80965 0.77998 0.32503 0.0
O684 O 0.76412 0.75703 0.31353 0.0
O685 O 0.78836 0.74023 0.25632 0.0
O686 O 0.83432 0.76297 0.26625 0.0
O687 O 0.76993 0.79529 0.22984 0.0
H688 H 0.73192 0.71061 0.25946 0.0
H689 H 0.70735 0.805 0.24801 0.0
O690 O 0.81561 0.81822 0.23903 0.0
O691 O 0.79283 0.8349 0.29791 0.0
O692 O 0.74612 0.81292 0.28964 0.0
C693 C 0.76203 0.83587 0.29973 0.0
H694 H 0.91175 0.86533 0.28926 0.0
H695 H 0.67773 0.71447 0.22645 0.0
Co696 Co 0.81757 0.29646 0.82035 0.0
C697 C 0.81756 0.23349 0.8124 0.0
Co698 Co 0.79509 0.28274 0.7758 0.0
C699 C 0.81135 0.33264 0.87507 0.0
C700 C 0.84714 0.29682 0.88266 0.0
N701 N 0.82953 0.31034 0.85981 0.0
N702 N 0.8157 0.33315 0.90649 0.0
C703 C 0.83847 0.31077 0.9116 0.0
H704 H 0.7917 0.34531 0.86409 0.0
H705 H 0.86251 0.2762 0.87918 0.0
C706 C 0.79287 0.34565 0.78388 0.0
N707 N 0.78135 0.26965 0.73701 0.0
C708 C 0.79661 0.24828 0.71781 0.0
C709 C 0.75656 0.28121 0.72012 0.0
N710 N 0.7827 0.24643 0.68945 0.0
C711 C 0.75749 0.26705 0.69064 0.0
C712 C 0.75028 0.28365 0.8233 0.0
O713 O 0.80794 0.33867 0.80872 0.0
O714 O 0.78548 0.32406 0.76498 0.0
O715 O 0.75295 0.27858 0.79361 0.0
O716 O 0.775 0.29206 0.83806 0.0
O717 O 0.80403 0.24131 0.78693 0.0
H718 H 0.73962 0.29943 0.72833 0.0
H719 H 0.81844 0.23537 0.72395 0.0
O720 O 0.8269 0.25441 0.83134 0.0
O721 O 0.86009 0.29996 0.80278 0.0
O722 O 0.83771 0.28655 0.75809 0.0
C723 C 0.86283 0.29355 0.77324 0.0
H724 H 0.84644 0.30344 0.93471 0.0
H725 H 0.74119 0.27173 0.67148 0.0
Co726 Co 0.76305 0.76808 0.78677 0.0
C727 C 0.8297 0.78252 0.79138 0.0
Co728 Co 0.77663 0.80968 0.75985 0.0
C729 C 0.73057 0.71052 0.80057 0.0
C730 C 0.76162 0.72414 0.83787 0.0
N731 N 0.75126 0.73293 0.80911 0.0
N732 N 0.72771 0.688 0.8228 0.0
C733 C 0.74728 0.69638 0.84629 0.0
H734 H 0.71839 0.7104 0.77816 0.0
H735 H 0.77856 0.73707 0.85179 0.0
C736 C 0.71044 0.79602 0.75403 0.0
N737 N 0.78886 0.84469 0.73778 0.0
C738 C 0.80842 0.86718 0.74818 0.0
C739 C 0.78353 0.85194 0.70717 0.0
N740 N 0.81594 0.88795 0.72522 0.0
C741 C 0.80041 0.87857 0.69928 0.0
C742 C 0.77947 0.75543 0.72152 0.0
O743 O 0.71762 0.77402 0.7732 0.0
O744 O 0.73244 0.81576 0.7469 0.0
O745 O 0.78468 0.78468 0.72129 0.0
O746 O 0.7716 0.74291 0.74823 0.0
O747 O 0.82115 0.80379 0.7722 0.0
H748 H 0.76915 0.83822 0.69137 0.0
H749 H 0.81821 0.86753 0.77175 0.0
O750 O 0.80835 0.76257 0.80005 0.0
O751 O 0.75473 0.79275 0.82517 0.0
O752 O 0.76857 0.83479 0.79906 0.0
C753 C 0.76066 0.82184 0.82559 0.0
H754 H 0.75082 0.68345 0.86802 0.0
H755 H 0.80147 0.88998 0.67632 0.0
Co756 Co 0.51884 0.55338 0.49913 0.0
C757 C 0.51395 0.59415 0.55218 0.0
Co758 Co 0.52797 0.52881 0.54333 0.0
C759 C 0.50918 0.56055 0.43229 0.0
C760 C 0.5232 0.6032 0.45424 0.0
N761 N 0.51439 0.57357 0.46083 0.0
N762 N 0.51506 0.58061 0.40817 0.0
C763 C 0.52345 0.60764 0.42188 0.0
H764 H 0.50217 0.53651 0.42912 0.0
H765 H 0.53111 0.61992 0.47157 0.0
C766 C 0.53275 0.48765 0.49116 0.0
N767 N 0.53386 0.50845 0.58085 0.0
C768 C 0.5538 0.51625 0.60418 0.0
C769 C 0.52046 0.48118 0.59007 0.0
N770 N 0.55351 0.49483 0.62759 0.0
C771 C 0.53246 0.47277 0.61891 0.0
C772 C 0.46226 0.52558 0.52409 0.0
O773 O 0.52751 0.51324 0.47648 0.0
O774 O 0.53595 0.48929 0.52106 0.0
O775 O 0.48171 0.51842 0.54599 0.0
O776 O 0.47299 0.54282 0.50138 0.0
O777 O 0.51993 0.5684 0.56632 0.0
H778 H 0.5036 0.46794 0.57636 0.0
H779 H 0.56824 0.53722 0.60393 0.0
O780 O 0.51026 0.593 0.5222 0.0
O781 O 0.56415 0.56421 0.49661 0.0
O782 O 0.57457 0.53941 0.54037 0.0
C783 C 0.58427 0.55727 0.51779 0.0
H784 H 0.53081 0.62862 0.40938 0.0
H785 H 0.5268 0.45168 0.63204 0.0
Co786 Co 0.988 0.53184 0.01307 0.0
C787 C 0.00883 0.59406 0.00031 0.0
Co788 Co 0.03042 0.54467 0.0397 0.0
C789 C 0.92624 0.50723 0.00344 0.0
C790 C 0.94463 0.52904 0.96079 0.0
N791 N 0.95265 0.52123 0.9906 0.0
N792 N 0.90161 0.50652 0.98331 0.0
C793 C 0.9129 0.52017 0.9563 0.0
H794 H 0.92425 0.49995 0.02809 0.0
H795 H 0.96014 0.54185 0.94416 0.0
C796 C 0.01066 0.48256 0.05289 0.0
N797 N 0.06548 0.55606 0.06236 0.0
C798 C 0.09299 0.56745 0.04895 0.0
C799 C 0.06906 0.5587 0.09411 0.0
N800 N 0.11355 0.57716 0.07075 0.0
C801 C 0.09886 0.57209 0.09937 0.0
C802 C 0.9718 0.55941 0.07013 0.0
O803 O 0.98922 0.48966 0.03265 0.0
O804 O 0.03098 0.50356 0.05992 0.0
O805 O 0.00252 0.56031 0.07225 0.0
O806 O 0.95977 0.54676 0.04618 0.0
O807 O 0.03017 0.58596 0.02006 0.0
H808 H 0.05085 0.55222 0.11214 0.0
H809 H 0.09743 0.56991 0.02351 0.0
O810 O 0.98751 0.57388 0.9934 0.0
O811 O 0.01495 0.51724 0.98028 0.0
O812 O 0.05861 0.52915 0.00584 0.0
C813 C 0.04572 0.51818 0.98131 0.0
H814 H 0.89885 0.52456 0.93543 0.0
H815 H 0.10885 0.57778 0.12211 0.0
C816 C 0.01754 0.1821 0.07187 0.0
C817 C 0.02349 0.18212 0.10478 0.0
H818 H 0.01052 0.15464 0.02938 0.0
C819 C 0.02576 0.15249 0.11958 0.0
H820 H 0.0155 0.20406 0.05932 0.0
C821 C 0.02263 0.12433 0.10262 0.0
C822 C 0.01706 0.12406 0.06979 0.0
H823 H 0.03015 0.15078 0.14476 0.0
H824 H 0.02504 0.10254 0.11542 0.0
C825 C 0.01449 0.15356 0.05467 0.0
C826 C 0.16682 0.74954 0.35737 0.0
C827 C 0.16348 0.7599 0.3891 0.0
H828 H 0.19693 0.74715 0.31494 0.0
C829 C 0.18961 0.77451 0.40329 0.0
H830 H 0.14699 0.73794 0.34601 0.0
C831 C 0.21832 0.77993 0.38532 0.0
C832 C 0.221 0.77072 0.35311 0.0
H833 H 0.1874 0.78282 0.42766 0.0
H834 H 0.2381 0.79182 0.39646 0.0
C835 C 0.19527 0.75502 0.33949 0.0
C836 C 0.52932 0.91643 0.6081 0.0
C837 C 0.51737 0.88916 0.59392 0.0
H838 H 0.53708 0.966 0.60489 0.0
C839 C 0.50238 0.89279 0.56437 0.0
H840 H 0.54105 0.91493 0.63072 0.0
C841 C 0.49917 0.9226 0.54986 0.0
C842 C 0.51177 0.94974 0.56384 0.0
H843 H 0.4927 0.87259 0.5526 0.0
H844 H 0.48736 0.92428 0.52729 0.0
C845 C 0.52705 0.94593 0.59316 0.0
C846 C 0.46203 0.28056 0.85584 0.0
C847 C 0.49044 0.29587 0.84522 0.0
H848 H 0.41044 0.27654 0.8521 0.0
C849 C 0.48866 0.31793 0.82059 0.0
H850 H 0.46265 0.26359 0.8749 0.0
C851 C 0.45882 0.32529 0.80754 0.0
C852 C 0.43027 0.3107 0.8188 0.0
H853 H 0.51022 0.32999 0.81171 0.0
H854 H 0.45811 0.34241 0.78866 0.0
C855 C 0.43216 0.28797 0.84276 0.0
C856 C 0.00443 0.87163 0.45497 0.0
C857 C 0.02115 0.84835 0.47157 0.0
H858 H 0.97157 0.91094 0.45825 0.0
C859 C 0.01508 0.84502 0.50448 0.0
H860 H 0.00822 0.87423 0.42946 0.0
C861 C -0.00583 0.8662 0.52089 0.0
C862 C 0.97824 0.88999 0.50433 0.0
H863 H 0.02751 0.82694 0.51762 0.0
H864 H 0.99155 0.86502 0.5466 0.0
C865 C 0.98286 0.89205 0.47119 0.0
C866 C 0.41164 0.7546 0.72612 0.0
C867 C 0.42922 0.78134 0.71705 0.0
H868 H 0.36809 0.73586 0.74788 0.0
C869 C 0.41495 0.81089 0.72393 0.0
H870 H 0.42189 0.73148 0.72131 0.0
C871 C 0.38413 0.81344 0.74023 0.0
C872 C 0.36666 0.78649 0.7492 0.0
H873 H 0.42801 0.83194 0.71762 0.0
H874 H 0.37384 0.83644 0.7455 0.0
C875 C 0.38076 0.75712 0.74151 0.0
C876 C 0.56221 0.16052 -0.00517 0.0
C877 C 0.55905 0.16345 0.9618 0.0
H878 H 0.56173 0.12982 0.03485 0.0
C879 C 0.5556 0.13657 0.94316 0.0
H880 H 0.56528 0.18088 0.00973 0.0
C881 C 0.55407 0.10732 0.95748 0.0
C882 C 0.55567 0.10451 0.99071 0.0
H883 H 0.55362 0.13815 0.91758 0.0
H884 H 0.5504 0.08707 0.94257 0.0
C885 C 0.56047 0.13128 0.00919 0.0
C886 C 0.12054 0.28025 0.23244 0.0
C887 C 0.11989 0.29379 0.20183 0.0
H888 H 0.1488 0.26957 0.27351 0.0
C889 C 0.14841 0.30856 0.19022 0.0
H890 H 0.09914 0.26859 0.24225 0.0
C891 C 0.17645 0.31003 0.2086 0.0
C892 C 0.17744 0.29603 0.23896 0.0
H893 H 0.14898 0.31935 0.16693 0.0
H894 H 0.19782 0.32155 0.19852 0.0
C895 C 0.14905 0.28087 0.25049 0.0
C896 C 0.123 0.00756 0.18244 0.0
C897 C 0.11035 0.99384 0.21048 0.0
H898 H 0.11524 0.01795 0.13353 0.0
C899 C 0.07962 0.97968 0.21051 0.0
H900 H 0.14667 0.01856 0.18179 0.0
C901 C 0.06169 0.97944 0.1831 0.0
C902 C 0.07407 0.9934 0.15512 0.0
H903 H 0.06923 0.9689 0.23181 0.0
H904 H 0.03786 0.96879 0.18397 0.0
C905 C 0.10493 0.00741 0.15496 0.0
C906 C 0.25887 0.88887 0.44621 0.0
C907 C 0.25059 0.87545 0.47578 0.0
H908 H 0.28885 0.88595 0.40354 0.0
C909 C 0.2661 0.84725 0.48438 0.0
H910 H 0.24797 0.91088 0.43912 0.0
C911 C 0.28975 0.83306 0.46402 0.0
C912 C 0.29837 0.84682 0.4347 0.0
H913 H 0.26044 0.83646 0.50718 0.0
H914 H 0.30082 0.81111 0.47095 0.0
C915 C 0.28265 0.87483 0.42604 0.0
C916 C 0.45746 0.09023 0.65009 0.0
C917 C 0.42913 0.07363 0.65836 0.0
H918 H 0.49458 0.09861 0.61433 0.0
C919 C 0.41203 0.05828 0.63488 0.0
H920 H 0.47047 0.10293 0.66787 0.0
C921 C 0.42577 0.05597 0.60413 0.0
C922 C 0.45656 0.06892 0.59717 0.0
H923 H 0.3899 0.04566 0.64088 0.0
H924 H 0.41387 0.04167 0.58683 0.0
C925 C 0.47124 0.08777 0.6196 0.0
C926 C 0.25135 0.23158 0.91762 0.0
C927 C 0.27927 0.21731 0.93027 0.0
H928 H 0.23057 0.25615 0.87834 0.0
C929 C 0.30896 0.21902 0.91212 0.0
H930 H 0.22802 0.23067 0.93065 0.0
C931 C 0.31068 0.23472 0.8825 0.0
C932 C 0.2825 0.24816 0.86948 0.0
H933 H 0.331 0.20836 0.92094 0.0
H934 H 0.33392 0.23549 0.86931 0.0
C935 C 0.25281 0.24618 0.8875 0.0
C936 C 0.06313 0.97025 0.40205 0.0
C937 C 0.09364 0.98345 0.39473 0.0
H938 H 0.02496 0.964 0.43757 0.0
C939 C 0.11199 0.99576 0.41913 0.0
H940 H 0.04868 0.96068 0.38339 0.0
C941 C 0.09809 -0.00147 0.44987 0.0
C942 C 0.06614 0.98823 0.45649 0.0
H943 H 0.13552 0.00622 0.4138 0.0
H944 H 0.11124 0.01092 0.46777 0.0
C945 C 0.04966 0.97211 0.43299 0.0
C946 C 0.25362 0.88578 0.6851 0.0
C947 C 0.24732 0.86995 0.65681 0.0
H948 H 0.26094 0.88198 0.73495 0.0
C949 C 0.24327 0.83743 0.65719 0.0
H950 H 0.25652 0.9109 0.68545 0.0
C951 C 0.24546 0.82094 0.68545 0.0
C952 C 0.25174 0.83671 0.71378 0.0
H953 H 0.23821 0.82466 0.63569 0.0
H954 H 0.24255 0.79582 0.68499 0.0
C955 C 0.25575 0.86927 0.71344 0.0
C956 C 0.49207 0.05192 0.8452 0.0
C957 C 0.50209 0.03296 0.81929 0.0
H958 H 0.48722 0.05631 0.89532 0.0
C959 C 0.5216 0.00628 0.82438 0.0
H960 H 0.47736 0.07287 0.8419 0.0
C961 C 0.52752 0.99672 0.85531 0.0
C962 C 0.51407 0.01376 0.8814 0.0
H963 H 0.52995 0.99137 0.80473 0.0
H964 H 0.5413 0.97528 0.85868 0.0
C965 C 0.49774 0.04229 0.87598 0.0
C966 C 0.26819 0.1882 0.16552 0.0
C967 C 0.27261 0.2021 0.13517 0.0
H968 H 0.26681 0.19351 0.21632 0.0
C969 C 0.28027 0.23413 0.13444 0.0
H970 H 0.26239 0.16367 0.16763 0.0
C971 C 0.28295 0.25151 0.16304 0.0
C972 C 0.2782 0.2374 0.19328 0.0
H973 H 0.28398 0.24585 0.11182 0.0
H974 H 0.2883 0.27617 0.16141 0.0
C975 C 0.27092 0.2054 0.19383 0.0
C976 C 0.15125 0.11817 0.00362 0.0
C977 C 0.17831 0.10646 0.01968 0.0
H978 H 0.10216 0.11113 0.98952 0.0
C979 C 0.17546 0.0769 0.03433 0.0
H980 H 0.15243 0.14072 0.99202 0.0
C981 C 0.14601 0.06002 0.0336 0.0
C982 C 0.11905 0.07175 0.01723 0.0
H983 H 0.19574 0.06717 0.04705 0.0
H984 H 0.14438 0.03781 0.0458 0.0
C985 C 0.12237 0.10097 0.00203 0.0
C986 C 0.62989 0.49962 0.08935 0.0
C987 C 0.63158 0.46683 0.09065 0.0
H988 H 0.59947 0.53964 0.08171 0.0
C989 C 0.60273 0.44982 0.09428 0.0
H990 H 0.65187 0.5134 0.08767 0.0
C991 C 0.57266 0.46495 0.09143 0.0
C992 C 0.57145 0.49706 0.08441 0.0
H993 H 0.60342 0.42459 0.09638 0.0
H994 H 0.55091 0.45086 0.09103 0.0
C995 C 0.59987 0.51472 0.08622 0.0
C996 C 0.85224 0.47091 0.31074 0.0
C997 C 0.85713 0.4739 0.2776 0.0
H998 H 0.83111 0.44375 0.34882 0.0
C999 C 0.84058 0.4544 0.25718 0.0
H1000 H 0.86474 0.48597 0.32691 0.0
C1001 C 0.8207 0.4311 0.26965 0.0
C1002 C 0.81793 0.42617 0.30275 0.0
H1003 H 0.84342 0.45685 0.23156 0.0
H1004 H 0.80839 0.41626 0.2532 0.0
C1005 C 0.8329 0.44697 0.32328 0.0
C1006 C 0.88317 0.5893 0.50063 0.0
C1007 C 0.86706 0.59234 0.53079 0.0
H1008 H 0.92601 0.57203 0.47394 0.0
C1009 C 0.88288 0.58054 0.55741 0.0
H1010 H 0.87153 0.59788 0.47959 0.0
C1011 C 0.91377 0.56628 0.55428 0.0
C1012 C 0.92985 0.56263 0.52429 0.0
H1013 H 0.87133 0.58242 0.581 0.0
H1014 H 0.92498 0.55775 0.57559 0.0
C1015 C 0.91416 0.5742 0.49735 0.0
C1016 C 0.20683 0.10208 0.32874 0.0
C1017 C 0.17691 0.10174 0.31343 0.0
H1018 H 0.2465 0.12959 0.34411 0.0
C1019 C 0.16359 0.12996 0.30237 0.0
H1020 H 0.21766 0.08071 0.33762 0.0
C1021 C 0.18031 0.15788 0.30589 0.0
C1022 C 0.21034 0.1581 0.32096 0.0
H1023 H 0.14059 0.13041 0.29046 0.0
H1024 H 0.16976 0.17932 0.29694 0.0
C1025 C 0.22326 0.13003 0.33266 0.0
C1026 C 0.30518 0.01183 0.49992 0.0
C1027 C 0.30095 0.98836 0.52299 0.0
H1028 H 0.33914 0.03716 0.47023 0.0
C1029 C 0.32846 0.97223 0.53385 0.0
H1030 H 0.28439 0.02451 0.4909 0.0
C1031 C 0.3595 0.97907 0.52157 0.0
C1032 C 0.36377 0.00234 0.49839 0.0
H1033 H 0.32604 0.95377 0.55133 0.0
H1034 H 0.38021 0.96591 0.53004 0.0
C1035 C 0.33639 0.01873 0.48767 0.0
C1036 C 0.88638 0.6795 0.26645 0.0
C1037 C 0.86832 0.65207 0.26995 0.0
H1038 H 0.88497 0.72872 0.25842 0.0
C1039 C 0.83434 0.65315 0.26635 0.0
H1040 H 0.91269 0.67918 0.2685 0.0
C1041 C 0.8186 0.68125 0.25974 0.0
C1042 C 0.83651 0.70885 0.25701 0.0
H1043 H 0.81986 0.63222 0.26832 0.0
H1044 H 0.79225 0.6815 0.25802 0.0
C1045 C 0.87059 0.70769 0.26005 0.0
C1046 C 0.73132 0.40663 0.76242 0.0
C1047 C 0.73557 0.42902 0.78621 0.0
H1048 H 0.74741 0.36325 0.7419 0.0
C1049 C 0.76272 0.42682 0.80546 0.0
H1050 H 0.71074 0.40829 0.747 0.0
C1051 C 0.78356 0.40063 0.803 0.0
C1052 C 0.77771 0.37686 0.7808 0.0
H1053 H 0.7664 0.44407 0.82385 0.0
H1054 H 0.80286 0.39806 0.81976 0.0
C1055 C 0.7525 0.381 0.75939 0.0
C1056 C 0.02773 0.92438 0.9248 0.0
C1057 C 0.026 0.89577 0.94163 0.0
H1058 H 0.03173 0.97442 0.92627 0.0
C1059 C 0.02774 0.89749 0.97505 0.0
H1060 H 0.0265 0.92457 0.89911 0.0
C1061 C 0.03128 0.92664 0.99079 0.0
C1062 C 0.03296 0.95516 0.97374 0.0
H1063 H 0.02675 0.87632 0.98907 0.0
H1064 H 0.0323 0.92683 0.0165 0.0
C1065 C 0.03094 0.95333 0.94044 0.0
C1066 C 0.95309 0.28041 0.75713 0.0
C1067 C 0.955 0.28137 0.72369 0.0
H1068 H 0.92218 0.28448 0.7993 0.0
C1069 C 0.92663 0.2873 0.7069 0.0
H1070 H 0.97474 0.27627 0.77064 0.0
C1071 C 0.89679 0.29204 0.72322 0.0
C1072 C 0.89487 0.29133 0.75663 0.0
H1073 H 0.92748 0.2883 0.68112 0.0
H1074 H 0.87518 0.2962 0.70964 0.0
C1075 C 0.92321 0.2856 0.77353 0.0
C1076 C 0.49191 0.16508 0.44331 0.0
C1077 C 0.5106 0.18892 0.45677 0.0
H1078 H 0.4759 0.1173 0.44546 0.0
C1079 C 0.52798 0.18113 0.48404 0.0
H1080 H 0.47815 0.16989 0.42234 0.0
C1081 C 0.52725 0.1506 0.49694 0.0
C1082 C 0.50849 0.12678 0.48354 0.0
H1083 H 0.5428 0.19852 0.49514 0.0
H1084 H 0.54139 0.14569 0.51764 0.0
C1085 C 0.49057 0.13474 0.45665 0.0
C1086 C 0.62444 0.8229 0.20208 0.0
C1087 C 0.61742 0.80951 0.17276 0.0
H1088 H 0.64964 0.81794 0.24526 0.0
C1089 C 0.63301 0.78139 0.16306 0.0
H1090 H 0.61194 0.84413 0.21029 0.0
C1091 C 0.65401 0.76595 0.18344 0.0
C1092 C 0.6597 0.77869 0.21348 0.0
H1093 H 0.62709 0.7702 0.1409 0.0
H1094 H 0.66551 0.74406 0.17593 0.0
C1095 C 0.64538 0.80762 0.22226 0.0
C1096 C 0.05406 0.20956 0.56835 0.0
C1097 C 0.06019 0.20621 0.60086 0.0
H1098 H 0.05203 0.18713 0.52298 0.0
C1099 C 0.07178 0.17734 0.61199 0.0
H1100 H 0.04552 0.23165 0.55896 0.0
C1101 C 0.07561 0.15191 0.59126 0.0
C1102 C 0.0683 0.155 0.55904 0.0
H1103 H 0.07699 0.17413 0.63685 0.0
H1104 H 0.08348 0.12955 0.60051 0.0
C1105 C 0.05825 0.18423 0.54761 0.0
C1106 C 0.64317 0.30203 0.37247 0.0
C1107 C 0.61727 0.28641 0.35846 0.0
H1108 H 0.69314 0.3167 0.36796 0.0
C1109 C 0.62296 0.27326 0.32797 0.0
H1110 H 0.63967 0.3126 0.39583 0.0
C1111 C 0.65387 0.27508 0.31223 0.0
C1112 C 0.67971 0.29089 0.32615 0.0
H1113 H 0.60364 0.26107 0.31645 0.0
H1114 H 0.65751 0.26419 0.28904 0.0
C1115 C 0.67381 0.30458 0.35637 0.0
C1116 C 0.48156 0.91582 0.114 0.0
C1117 C 0.48482 0.88873 0.09511 0.0
H1118 H 0.48294 0.96569 0.11504 0.0
C1119 C 0.48504 0.89133 0.06184 0.0
H1120 H 0.48084 0.91448 0.13976 0.0
C1121 C 0.48594 0.92072 0.04769 0.0
C1122 C 0.48694 0.94771 0.06671 0.0
H1123 H 0.48707 0.87077 0.04675 0.0
H1124 H 0.48865 0.92207 0.02198 0.0
C1125 C 0.48283 0.94516 0.09988 0.0
C1126 C 0.90152 0.77051 0.8475 0.0
C1127 C 0.92456 0.79203 0.83525 0.0
H1128 H 0.85388 0.75009 0.84331 0.0
C1129 C 0.91627 0.80884 0.80776 0.0
H1130 H 0.90682 0.75697 0.86846 0.0
C1131 C 0.88626 0.80481 0.79335 0.0
C1132 C 0.86301 0.78366 0.80558 0.0
H1133 H 0.933 0.82561 0.79724 0.0
H1134 H 0.88112 0.8188 0.77264 0.0
C1135 C 0.8712 0.76635 0.83285 0.0
C1136 C 0.00901 0.03901 0.83003 0.0
C1137 C -0.00503 0.06263 0.8118 0.0
H1138 H 0.02623 0.02637 0.87583 0.0
C1139 C 0.9907 0.09284 0.82453 0.0
H1140 H 0.0121 0.01549 0.82063 0.0
C1141 C -0.00137 0.09905 0.85573 0.0
C1142 C 0.01046 0.07502 0.8749 0.0
H1143 H 0.97968 0.11132 0.81076 0.0
H1144 H -0.00633 0.12219 0.86541 0.0
C1145 C 0.01655 0.04514 0.86159 0.0
C1146 C 0.80266 0.22128 0.60589 0.0
C1147 C 0.80986 0.18931 0.60992 0.0
H1148 H 0.78761 0.26439 0.62839 0.0
C1149 C 0.81088 0.17712 0.64089 0.0
H1150 H 0.80153 0.23141 0.58236 0.0
C1151 C 0.8032 0.19627 0.66721 0.0
C1152 C 0.79372 0.22758 0.66284 0.0
H1153 H 0.81632 0.15259 0.6447 0.0
H1154 H 0.80306 0.18629 0.69087 0.0
C1155 C 0.79428 0.24012 0.6321 0.0
C1156 C 0.54955 0.00898 0.38607 0.0
C1157 C 0.58171 0.01858 0.38043 0.0
H1158 H 0.5119 -0.00077 0.42051 0.0
C1159 C 0.60209 0.02346 0.40603 0.0
H1160 H 0.53382 0.00413 0.36654 0.0
C1161 C 0.58948 0.02108 0.43722 0.0
C1162 C 0.55663 0.01312 0.44282 0.0
H1163 H 0.62727 0.03033 0.40189 0.0
H1164 H 0.60486 0.0269 0.45672 0.0
C1165 C 0.53726 0.00579 0.41699 0.0
C1166 C 0.7698 0.82911 0.13319 0.0
C1167 C 0.78734 0.85627 0.12514 0.0
H1168 H 0.75727 0.79477 0.16879 0.0
C1169 C 0.80748 0.86858 0.14858 0.0
H1170 H 0.75388 0.81888 0.11614 0.0
C1171 C 0.81002 0.85427 0.17878 0.0
C1172 C 0.7919 0.82751 0.18705 0.0
H1173 H 0.82142 0.88941 0.14356 0.0
H1174 H 0.82568 0.86466 0.19596 0.0
C1175 C 0.77173 0.81526 0.16362 0.0
C1176 C 0.94962 0.09899 0.63983 0.0
C1177 C 0.92143 0.0842 0.65171 0.0
H1178 H 0.98697 0.10024 0.60306 0.0
C1179 C 0.90628 0.06185 0.63299 0.0
H1180 H 0.96161 0.11631 0.65397 0.0
C1181 C 0.92122 0.05198 0.6042 0.0
C1182 C 0.95104 0.06486 0.59366 0.0
H1183 H 0.88457 0.05002 0.64185 0.0
H1184 H 0.91044 0.03312 0.59116 0.0
C1185 C 0.96414 0.08966 0.61078 0.0
C1186 C 0.79435 0.19476 0.39107 0.0
C1187 C 0.79689 0.21099 0.41994 0.0
H1188 H 0.79058 0.19787 0.34072 0.0
C1189 C 0.80009 0.24356 0.41971 0.0
H1190 H 0.79219 0.16956 0.39053 0.0
C1191 C 0.79947 0.25978 0.39105 0.0
C1192 C 0.79547 0.2436 0.36234 0.0
H1193 H 0.80241 0.25654 0.44165 0.0
H1194 H 0.8009 0.28504 0.39156 0.0
C1195 C 0.7936 0.21093 0.36252 0.0
C1196 C 0.62386 0.03033 0.19162 0.0
C1197 C 0.61328 0.00298 0.207 0.0
H1198 H 0.61179 0.06699 0.15923 0.0
C1199 C 0.58234 0.99118 0.20116 0.0
H1200 H 0.64731 0.04034 0.19652 0.0
C1201 C 0.56212 0.0066 0.18032 0.0
C1202 C 0.5723 0.03432 0.16558 0.0
H1203 H 0.57353 0.9705 0.21337 0.0
H1204 H 0.5384 -0.00294 0.17569 0.0
C1205 C 0.60332 0.04606 0.17115 0.0
C1206 C 0.76479 0.83974 0.91579 0.0
C1207 C 0.76801 0.87249 0.91656 0.0
H1208 H 0.75924 0.79836 0.88717 0.0
C1209 C 0.76816 0.8882 0.88692 0.0
H1210 H 0.76431 0.82662 0.93779 0.0
C1211 C 0.76537 0.87203 0.85784 0.0
C1212 C 0.76174 0.8394 0.857 0.0
H1213 H 0.7706 0.91335 0.88606 0.0
H1214 H 0.76608 0.88526 0.8359 0.0
C1215 C 0.76152 0.82353 0.88657 0.0
C1216 C 0.87875 0.00608 -0.00402 0.0
C1217 C 0.8691 0.98088 0.01569 0.0
H1218 H 0.91535 0.03959 0.98302 0.0
C1219 C 0.89084 0.97115 0.03905 0.0
H1220 H 0.86297 0.01451 0.97767 0.0
C1221 C 0.92115 0.98608 0.04239 0.0
C1222 C 0.93078 0.01106 0.02233 0.0
H1223 H 0.88443 0.95205 0.05483 0.0
H1224 H 0.93734 0.97761 0.06034 0.0
C1225 C 0.90896 0.02073 -0.00087 0.0
C1226 C 0.3728 0.5446 0.98223 0.0
C1227 C 0.37018 0.57714 0.98562 0.0
H1228 H 0.40519 0.50547 0.97603 0.0
C1229 C 0.3967 0.59579 0.97616 0.0
H1230 H 0.35215 0.52982 0.98798 0.0
C1231 C 0.42718 0.58186 0.96937 0.0
C1232 C 0.43106 0.54933 0.97243 0.0
H1233 H 0.39488 0.62106 0.97748 0.0
H1234 H 0.44822 0.59679 0.96644 0.0
C1235 C 0.40309 0.53072 0.97487 0.0
C1236 C 0.21333 0.60204 0.76033 0.0
C1237 C 0.18078 0.60647 0.7716 0.0
H1238 H 0.25773 0.62406 0.74433 0.0
C1239 C 0.16771 0.63682 0.77498 0.0
H1240 H 0.22379 0.57877 0.75718 0.0
C1241 C 0.18718 0.66243 0.76798 0.0
C1242 C 0.21969 0.658 0.75687 0.0
H1243 H 0.14266 0.64078 0.78351 0.0
H1244 H 0.17693 0.68577 0.77122 0.0
C1245 C 0.23258 0.62772 0.75266 0.0
C1246 C 0.14926 0.43987 0.51712 0.0
C1247 C 0.17429 0.45303 0.53464 0.0
H1248 H 0.10024 0.44444 0.50095 0.0
C1249 C 0.16773 0.48171 0.55034 0.0
H1250 H 0.15345 0.41792 0.50459 0.0
C1251 C 0.13682 0.49655 0.54894 0.0
C1252 C 0.11203 0.48363 0.53091 0.0
H1253 H 0.18639 0.4925 0.56406 0.0
H1254 H 0.1325 0.51841 0.56159 0.0
C1255 C 0.11877 0.45517 0.51489 0.0
C1256 C 0.88035 0.94638 0.70526 0.0
C1257 C 0.87937 0.96465 0.73312 0.0
H1258 H 0.86011 0.90763 0.68076 0.0
C1259 C 0.85785 0.95679 0.75856 0.0
H1260 H 0.89653 0.95213 0.68519 0.0
C1261 C 0.83731 0.93134 0.75604 0.0
C1262 C 0.83752 0.91372 0.72784 0.0
H1263 H 0.85661 0.97055 0.78028 0.0
H1264 H 0.82063 0.92587 0.7758 0.0
C1265 C 0.85931 0.92126 0.70253 0.0
C1266 C 0.69582 0.08898 0.51661 0.0
C1267 C 0.70421 0.11724 0.53089 0.0
H1268 H 0.66125 0.05209 0.51535 0.0
C1269 C 0.68471 0.12951 0.55633 0.0
H1270 H 0.71063 0.07905 0.49705 0.0
C1271 C 0.65701 0.11358 0.56727 0.0
C1272 C 0.64837 0.08574 0.55239 0.0
H1273 H 0.69105 0.15111 0.56791 0.0
H1274 H 0.64175 0.12342 0.58653 0.0
C1275 C 0.66789 0.07352 0.5271 0.0
C1276 C 0.18881 0.39324 0.81475 0.0
C1277 C 0.20566 0.42142 0.81119 0.0
H1278 H 0.19217 0.34342 0.81408 0.0
C1279 C 0.23993 0.42104 0.80889 0.0
H1280 H 0.16234 0.39293 0.81692 0.0
C1281 C 0.25701 0.39266 0.80766 0.0
C1282 C 0.23989 0.36448 0.80832 0.0
H1283 H 0.25344 0.44253 0.80652 0.0
H1284 H 0.28338 0.39286 0.80412 0.0
C1285 C 0.20582 0.36492 0.81312 0.0
C1286 C 0.37386 0.65797 0.32821 0.0
C1287 C 0.3553 0.63575 0.31243 0.0
H1288 H 0.3761 0.70528 0.34459 0.0
C1289 C 0.32196 0.64162 0.30827 0.0
H1290 H 0.39954 0.65368 0.3322 0.0
C1291 C 0.30871 0.67111 0.31521 0.0
C1292 C 0.32859 0.6947 0.32677 0.0
H1293 H 0.30703 0.62473 0.29654 0.0
H1294 H 0.28386 0.67634 0.30866 0.0
C1295 C 0.36045 0.68738 0.33555 0.0
C1296 C 0.51579 0.68314 0.57209 0.0
C1297 C 0.52193 0.68317 0.60496 0.0
H1298 H 0.5083 0.65568 0.52969 0.0
C1299 C 0.52391 0.65356 0.61983 0.0
H1300 H 0.51396 0.70509 0.55948 0.0
C1301 C 0.52039 0.6254 0.60295 0.0
C1302 C 0.5147 0.62512 0.57015 0.0
H1303 H 0.52841 0.65187 0.64499 0.0
H1304 H 0.52266 0.60362 0.6158 0.0
C1305 C 0.51234 0.65461 0.55498 0.0
C1306 C 0.66626 0.25453 0.84395 0.0
C1307 C 0.66335 0.26115 0.87672 0.0
H1308 H 0.69585 0.25709 0.80117 0.0
C1309 C 0.68922 0.27517 0.89192 0.0
H1310 H 0.64658 0.24363 0.83168 0.0
C1311 C 0.71739 0.2831 0.87433 0.0
C1312 C 0.71997 0.27699 0.84138 0.0
H1313 H 0.68737 0.28073 0.9171 0.0
H1314 H 0.73706 0.29408 0.88652 0.0
C1315 C 0.69428 0.26248 0.8264 0.0
C1316 C 0.00469 0.39317 0.06643 0.0
C1317 C 0.01809 0.3891 0.09667 0.0
H1318 H 0.99092 0.42525 0.02945 0.0
C1319 C 0.02849 0.41627 0.11225 0.0
H1320 H -0.00375 0.37307 0.05357 0.0
C1321 C 0.02622 0.44613 0.09803 0.0
C1322 C 0.01248 0.45034 0.06801 0.0
H1323 H 0.03897 0.41443 0.13545 0.0
H1324 H 0.035 0.46612 0.11084 0.0
C1325 C 0.00148 0.42327 0.0526 0.0
C1326 C 0.96521 0.78002 0.35658 0.0
C1327 C -0.00577 0.79314 0.34427 0.0
H1328 H 0.91326 0.77829 0.35403 0.0
C1329 C -0.00682 0.81284 0.31759 0.0
H1330 H 0.96526 0.76483 0.37716 0.0
C1331 C 0.96347 0.82066 0.30458 0.0
C1332 C 0.93436 0.80872 0.3178 0.0
H1333 H 0.01518 0.82315 0.30736 0.0
H1334 H 0.96322 0.83627 0.28436 0.0
C1335 C 0.93548 0.78776 0.3434 0.0
C1336 C 0.54814 0.37449 0.97838 0.0
C1337 C 0.5387 0.34321 0.97721 0.0
H1338 H 0.53633 0.42044 -0.00479 0.0
C1339 C 0.51054 0.33383 -0.00511 0.0
H1340 H 0.56986 0.38238 0.96539 0.0
C1341 C 0.49098 0.35587 0.01165 0.0
C1342 C 0.49938 0.3874 0.01082 0.0
H1343 H 0.50271 0.30977 -0.00549 0.0
H1344 H 0.46875 0.34863 0.02416 0.0
C1345 C 0.52875 0.39631 -0.00487 0.0
C1346 C 0.91305 0.30889 0.22102 0.0
C1347 C 0.92716 0.27933 0.21397 0.0
H1348 H 0.87162 0.33451 0.24178 0.0
C1349 C 0.90888 0.25262 0.22162 0.0
H1350 H 0.92664 0.32989 0.21576 0.0
C1351 C 0.87743 0.25522 0.23585 0.0
C1352 C 0.86354 0.2846 0.24382 0.0
H1353 H 0.91903 0.2295 0.21663 0.0
H1354 H 0.8642 0.23403 0.24126 0.0
C1355 C 0.88172 0.31149 0.23621 0.0
C1356 C 0.05873 0.65988 0.49669 0.0
C1357 C 0.05423 0.6653 0.46422 0.0
H1358 H 0.05971 0.62637 0.53417 0.0
C1359 C 0.04915 0.63991 0.44387 0.0
H1360 H 0.06308 0.679 0.51287 0.0
C1361 C 0.04758 0.60967 0.45602 0.0
C1362 C 0.05094 0.60441 0.48872 0.0
H1363 H 0.04601 0.6434 0.41865 0.0
H1364 H 0.04265 0.59062 0.43995 0.0
C1365 C 0.05709 0.62971 0.50884 0.0
C1366 C 0.64951 0.8092 0.68794 0.0
C1367 C 0.62092 0.79471 0.69981 0.0
H1368 H 0.69916 0.82177 0.69581 0.0
C1369 C 0.62174 0.7812 0.73044 0.0
H1370 H 0.64997 0.81996 0.66464 0.0
C1371 C 0.65042 0.78161 0.74824 0.0
C1372 C 0.67888 0.7965 0.73647 0.0
H1373 H 0.6003 0.76976 0.74045 0.0
H1374 H 0.65025 0.77035 0.77129 0.0
C1375 C 0.67775 0.81045 0.70608 0.0
C1376 C 0.62066 0.51027 0.68327 0.0
C1377 C 0.60815 0.49635 0.71125 0.0
H1378 H 0.61294 0.52047 0.63432 0.0
C1379 C 0.57773 0.4816 0.71114 0.0
H1380 H 0.6441 0.5217 0.68273 0.0
C1381 C 0.55995 0.48101 0.68365 0.0
C1382 C 0.57217 0.49519 0.65574 0.0
H1383 H 0.56746 0.47064 0.7324 0.0
H1384 H 0.53634 0.46993 0.68443 0.0
C1385 C 0.60274 0.50976 0.6557 0.0
C1386 C 0.76092 0.34945 0.97837 0.0
C1387 C 0.74623 0.37812 0.97 0.0
H1388 H 0.79504 0.31279 0.96488 0.0
C1389 C 0.75493 0.39156 0.94054 0.0
H1390 H 0.75493 0.33862 0.00108 0.0
C1391 C 0.7786 0.37728 0.92044 0.0
C1392 C 0.79375 0.34894 0.92898 0.0
H1393 H 0.74468 0.4139 0.9336 0.0
H1394 H 0.78534 0.38864 0.8982 0.0
C1395 C 0.78444 0.33498 0.95803 0.0
C1396 C 0.94906 0.59561 0.14804 0.0
C1397 C 0.92315 0.57645 0.15781 0.0
H1398 H 0.98496 0.60523 0.11145 0.0
C1399 C 0.90792 0.55765 0.1356 0.0
H1400 H 0.96065 0.61069 0.16489 0.0
C1401 C 0.92184 0.55454 0.10492 0.0
C1402 C 0.9509 0.57017 0.09686 0.0
H1403 H 0.88775 0.54283 0.14285 0.0
H1404 H 0.91201 0.5375 0.0889 0.0
C1405 C 0.96299 0.59241 0.11765 0.0
C1406 C 0.76709 0.70125 0.39851 0.0
C1407 C 0.77968 0.71456 0.42611 0.0
H1408 H 0.75866 0.70569 0.34854 0.0
C1409 C 0.79493 0.74383 0.42285 0.0
H1410 H 0.75514 0.67886 0.39983 0.0
C1411 C 0.79782 0.75897 0.39291 0.0
C1412 C 0.78459 0.74582 0.36548 0.0
H1413 H 0.80507 0.75487 0.4434 0.0
H1414 H 0.80989 0.78128 0.39137 0.0
C1415 C 0.76906 0.71676 0.36894 0.0
C1416 C 0.56078 0.47033 0.90184 0.0
C1417 C 0.59092 0.48449 0.89503 0.0
H1418 H 0.52198 0.46342 0.93663 0.0
C1419 C 0.60809 0.49793 0.91966 0.0
H1420 H 0.5472 0.46 0.88295 0.0
C1421 C 0.59327 0.50081 0.94999 0.0
C1422 C 0.56164 0.48945 0.95599 0.0
H1423 H 0.63125 0.50921 0.91469 0.0
H1424 H 0.60537 0.51405 0.96799 0.0
C1425 C 0.54643 0.47228 0.93244 0.0
C1426 C 0.75358 0.38641 0.17919 0.0
C1427 C 0.7461 0.37122 0.15087 0.0
H1428 H 0.76117 0.38181 0.22889 0.0
C1429 C 0.74028 0.33895 0.15107 0.0
H1430 H 0.75786 0.41133 0.1797 0.0
C1431 C 0.7419 0.3221 0.17918 0.0
C1432 C 0.7493 0.33726 0.20754 0.0
H1433 H 0.73429 0.32669 0.12953 0.0
H1434 H 0.73765 0.29717 0.1786 0.0
C1435 C 0.75508 0.36956 0.20737 0.0
C1436 C 0.00621 0.54396 0.33692 0.0
C1437 C 0.00148 0.52081 0.31401 0.0
H1438 H 0.01741 0.55398 0.38479 0.0
C1439 C 0.00885 0.4895 0.32094 0.0
H1440 H 0.00117 0.56834 0.33185 0.0
C1441 C 0.01696 0.48105 0.35162 0.0
C1442 C 0.01835 0.50387 0.37562 0.0
H1443 H 0.00541 0.47118 0.30359 0.0
H1444 H 0.0198 0.45646 0.35683 0.0
C1445 C 0.01497 0.53559 0.3674 0.0
C1446 C 0.76903 0.68744 0.6632 0.0
C1447 C 0.7733 0.70121 0.63275 0.0
H1448 H 0.76788 0.69292 0.714 0.0
C1449 C 0.78104 0.73323 0.63191 0.0
H1450 H 0.76316 0.66294 0.66543 0.0
C1451 C 0.78391 0.7507 0.66046 0.0
C1452 C 0.77927 0.73672 0.69081 0.0
H1453 H 0.78464 0.74488 0.60925 0.0
H1454 H 0.78932 0.77534 0.65873 0.0
C1455 C 0.77192 0.70473 0.69146 0.0
C1456 C 0.67302 0.57904 0.53432 0.0
C1457 C 0.67537 0.60907 0.5206 0.0
H1458 H 0.64259 0.53933 0.54499 0.0
C1459 C 0.64781 0.62121 0.50565 0.0
H1460 H 0.69372 0.56894 0.54613 0.0
C1461 C 0.61902 0.60382 0.50405 0.0
C1462 C 0.61635 0.57401 0.51815 0.0
H1463 H 0.64861 0.6441 0.49473 0.0
H1464 H 0.59842 0.6142 0.49229 0.0
C1465 C 0.64373 0.56199 0.53363 0.0
C1466 C 0.12606 0.98966 0.60031 0.0
C1467 C 0.1283 0.95719 0.59547 0.0
H1468 H 0.09611 0.03065 0.59669 0.0
C1469 C 0.09971 0.94 0.5926 0.0
H1470 H 0.14772 0.00331 0.60381 0.0
C1471 C 0.07001 0.95568 0.58902 0.0
C1472 C 0.06908 0.98853 0.58788 0.0
H1473 H 0.10074 0.91483 0.58977 0.0
H1474 H 0.04892 0.94211 0.58319 0.0
C1475 C 0.0965 0.00532 0.59651 0.0
C1476 C 0.37863 0.93358 0.77651 0.0
C1477 C 0.37462 0.96483 0.78612 0.0
H1478 H 0.36228 0.88698 0.78172 0.0
C1479 C 0.35232 0.97239 0.81141 0.0
H1480 H 0.39573 0.92701 0.75723 0.0
C1481 C 0.33345 0.94927 0.82598 0.0
C1482 C 0.33643 0.91821 0.81548 0.0
H1483 H 0.34903 0.99627 0.81971 0.0
H1484 H 0.31588 0.95577 0.84486 0.0
C1485 C 0.35969 0.91052 0.79098 0.0
C1486 C 0.3854 0.09156 0.00604 0.0
C1487 C 0.36981 0.09678 0.03612 0.0
H1488 H 0.4279 0.07279 0.98004 0.0
C1489 C 0.38659 0.08806 0.06335 0.0
H1490 H 0.373 0.09771 0.98458 0.0
C1491 C 0.41788 0.07441 0.06083 0.0
C1492 C 0.43327 0.06821 0.03092 0.0
H1493 H 0.37537 0.09168 0.08688 0.0
H1494 H 0.42975 0.06802 0.08253 0.0
C1495 C 0.41668 0.07702 0.00345 0.0
C1496 C 0.70369 0.60445 0.83055 0.0
C1497 C 0.67409 0.60437 0.81469 0.0
H1498 H 0.74392 0.63133 0.8456 0.0
C1499 C 0.66169 0.63255 0.80264 0.0
H1500 H 0.7138 0.5831 0.84021 0.0
C1501 C 0.67916 0.66013 0.80555 0.0
C1502 C 0.709 0.66003 0.82097 0.0
H1503 H 0.63895 0.63317 0.79028 0.0
H1504 H 0.66938 0.68153 0.79574 0.0
C1505 C 0.72086 0.63205 0.83383 0.0
C1506 C 0.83178 0.46884 0.02652 0.0
C1507 C 0.80514 0.48636 0.01576 0.0
H1508 H 0.88338 0.46085 0.02344 0.0
C1509 C 0.81061 0.50978 0.99284 0.0
H1510 H 0.82837 0.45032 0.04379 0.0
C1511 C 0.84224 0.51565 0.98109 0.0
C1512 C 0.86878 0.49826 0.99216 0.0
H1513 H 0.79049 0.52346 0.98385 0.0
H1514 H 0.84602 0.53433 0.96409 0.0
C1515 C 0.86324 0.47468 0.01473 0.0
C1516 C 0.32959 0.15091 0.76545 0.0
C1517 C 0.36348 0.14969 0.7695 0.0
H1518 H 0.28751 0.17973 0.75825 0.0
C1519 C 0.38142 0.17734 0.76808 0.0
H1520 H 0.31524 0.12985 0.76589 0.0
C1521 C 0.36564 0.20584 0.76316 0.0
C1522 C 0.33163 0.20714 0.75968 0.0
H1523 H 0.40767 0.17698 0.77058 0.0
H1524 H 0.37998 0.22691 0.76299 0.0
C1525 C 0.31381 0.1794 0.76047 0.0
C1526 C 0.26255 0.92095 0.30691 0.0
C1527 C 0.23487 0.92255 0.28831 0.0
H1528 H 0.30231 0.89222 0.32223 0.0
C1529 C 0.22894 0.89845 0.26678 0.0
H1530 H 0.26751 0.93946 0.3236 0.0
C1531 C 0.24912 0.87201 0.26531 0.0
C1532 C 0.27507 0.86886 0.28603 0.0
H1533 H 0.20792 0.89953 0.25189 0.0
H1534 H 0.24287 0.85315 0.24951 0.0
C1535 C 0.28241 0.89402 0.30603 0.0
C1536 C 0.52701 0.39848 0.4754 0.0
C1537 C 0.5253 0.39682 0.44197 0.0
H1538 H 0.53127 0.42775 0.51695 0.0
C1539 C 0.52682 0.4255 0.42523 0.0
H1540 H 0.52616 0.37725 0.48935 0.0
C1541 C 0.52978 0.45443 0.44097 0.0
C1542 C 0.53173 0.4562 0.47428 0.0
H1543 H 0.52559 0.42576 0.39954 0.0
H1544 H 0.53041 0.47557 0.42685 0.0
C1545 C 0.53029 0.42761 0.49124 0.0
C1546 C 0.45053 0.77608 0.25857 0.0
C1547 C 0.45091 0.77751 0.22517 0.0
H1548 H 0.42138 0.77897 0.30195 0.0
C1549 C 0.42166 0.7829 0.20965 0.0
H1550 H 0.47291 0.77234 0.27107 0.0
C1551 C 0.39241 0.78666 0.22721 0.0
C1552 C 0.39203 0.78557 0.26059 0.0
H1553 H 0.42138 0.78422 0.18391 0.0
H1554 H 0.37007 0.79044 0.21464 0.0
C1555 C 0.42125 0.78036 0.27622 0.0
C1556 C 0.02697 0.68146 0.98646 0.0
C1557 C 0.01098 0.68832 0.95812 0.0
H1558 H 0.03937 0.64696 0.02143 0.0
C1559 C -0.00619 0.66375 0.94408 0.0
H1560 H 0.04061 0.69943 -0.00195 0.0
C1561 C -0.00744 0.6336 0.95787 0.0
C1562 C 0.00908 0.62658 0.98588 0.0
H1563 H 0.98115 0.66783 0.92228 0.0
H1564 H 0.97905 0.61558 0.9462 0.0
C1565 C 0.02634 0.65113 -0.00014 0.0
C1566 C 0.126 0.32244 0.70708 0.0
C1567 C 0.12206 0.31122 0.67614 0.0
H1568 H 0.14534 0.31353 0.75264 0.0
C1569 C 0.13849 0.28364 0.666 0.0
H1570 H 0.11328 0.34352 0.7154 0.0
C1571 C 0.15617 0.26607 0.68762 0.0
C1572 C 0.15719 0.27583 0.71942 0.0
H1573 H 0.13525 0.27422 0.64239 0.0
H1574 H 0.16794 0.24432 0.68 0.0
C1575 C 0.14329 0.30481 0.72859 0.0
C1576 C 0.53755 0.71224 0.06374 0.0
C1577 C 0.54884 0.7085 0.09471 0.0
H1578 H 0.52963 0.69058 0.01882 0.0
C1579 C 0.56382 0.68009 0.10302 0.0
H1580 H 0.52626 0.734 0.05645 0.0
C1581 C 0.56593 0.6554 0.08132 0.0
C1582 C 0.55329 0.65871 0.05091 0.0
H1583 H 0.57312 0.6766 0.12655 0.0
H1584 H 0.57661 0.63336 0.08857 0.0
C1585 C 0.53987 0.68757 0.04199 0.0
C1586 C 0.14431 0.80116 0.87629 0.0
C1587 C 0.11899 0.78533 0.86154 0.0
H1588 H 0.19428 0.81603 0.87331 0.0
C1589 C 0.12582 0.77191 0.83135 0.0
H1590 H 0.13995 0.81194 0.89945 0.0
C1591 C 0.15722 0.77372 0.81662 0.0
C1592 C 0.18247 0.78977 0.83126 0.0
H1593 H 0.10698 0.75954 0.81928 0.0
H1594 H 0.16167 0.76266 0.7936 0.0
C1595 C 0.17546 0.80368 0.8612 0.0
C1596 C 0.98213 0.41194 0.60854 0.0
C1597 C 0.98953 0.38507 0.59019 0.0
H1598 H 0.97856 0.4618 0.60916 0.0
C1599 C 0.99217 0.38743 0.55691 0.0
H1600 H 0.97943 0.41074 0.63425 0.0
C1601 C 0.9913 0.41671 0.54251 0.0
C1602 C 0.98811 0.44385 0.56134 0.0
H1603 H -0.00258 0.36699 0.5422 0.0
H1604 H -0.00402 0.41813 0.51701 0.0
C1605 C 0.98165 0.44119 0.59422 0.0
C1606 C 0.41456 0.30986 0.30916 0.0
C1607 C 0.42332 0.29311 0.33652 0.0
H1608 H 0.37892 0.31951 0.27447 0.0
C1609 C 0.40067 0.27135 0.34902 0.0
H1610 H 0.431 0.32679 0.29845 0.0
C1611 C 0.37022 0.26694 0.33474 0.0
C1612 C 0.36156 0.2842 0.30761 0.0
H1613 H 0.40638 0.25785 0.36989 0.0
H1614 H 0.35318 0.25051 0.34537 0.0
C1615 C 0.38443 0.30556 0.29511 0.0
C1616 C 0.51209 0.53681 0.33099 0.0
C1617 C 0.50104 0.56056 0.31108 0.0
H1618 H 0.52546 0.52474 0.37819 0.0
C1619 C 0.49869 0.59143 0.32234 0.0
H1620 H 0.51353 0.51279 0.32276 0.0
C1621 C 0.50498 0.59825 0.35385 0.0
C1622 C 0.51339 0.57421 0.37472 0.0
H1623 H 0.48975 0.60998 0.3073 0.0
H1624 H 0.50107 0.62196 0.36234 0.0
C1625 C 0.51821 0.5436 0.36275 0.0
C1626 C 0.29873 0.71424 0.11542 0.0
C1627 C 0.3049 0.68194 0.11807 0.0
H1628 H 0.2845 0.75667 0.13975 0.0
C1629 C 0.30531 0.66838 0.14849 0.0
H1630 H 0.29802 0.7254 0.09235 0.0
C1631 C 0.29798 0.68656 0.17561 0.0
C1632 C 0.28932 0.71823 0.17252 0.0
H1633 H 0.30993 0.64355 0.1512 0.0
H1634 H 0.29734 0.67563 0.19883 0.0
C1635 C 0.29057 0.73211 0.1424 0.0
C1636 C 0.10644 0.53073 0.9141 0.0
C1637 C 0.08851 0.51883 0.88918 0.0
H1638 H 0.10675 0.53943 0.96435 0.0
C1639 C 0.06077 0.50102 0.89566 0.0
H1640 H 0.12836 0.54403 0.90917 0.0
C1641 C 0.04922 0.49735 0.92678 0.0
C1642 C 0.06474 0.51234 0.9517 0.0
H1643 H 0.04732 0.49095 0.87652 0.0
H1644 H 0.02658 0.48496 0.93103 0.0
C1645 C 0.0944 0.52768 0.94548 0.0
C1646 C 0.26536 0.32774 0.63489 0.0
C1647 C 0.28321 0.35487 0.62731 0.0
H1648 H 0.2522 0.2931 0.67006 0.0
C1649 C 0.30306 0.36683 0.65113 0.0
H1650 H 0.24964 0.31776 0.61752 0.0
C1651 C 0.30508 0.35225 0.68121 0.0
C1652 C 0.28674 0.32548 0.68903 0.0
H1653 H 0.3172 0.38762 0.6465 0.0
H1654 H 0.32059 0.36241 0.69865 0.0
C1655 C 0.2668 0.31356 0.66525 0.0
C1656 C 0.4042 0.55539 0.13817 0.0
C1657 C 0.41856 0.57971 0.15493 0.0
H1658 H 0.40805 0.52528 0.09732 0.0
C1659 C 0.44462 0.59607 0.14077 0.0
H1660 H 0.38422 0.54227 0.1489 0.0
C1661 C 0.45788 0.58671 0.11121 0.0
C1662 C 0.44578 0.56029 0.09589 0.0
H1663 H 0.45602 0.61483 0.15345 0.0
H1664 H 0.47917 0.59872 0.10163 0.0
C1665 C 0.418 0.54549 0.10889 0.0
C1666 C 0.30113 0.69554 0.89699 0.0
C1667 C 0.3018 0.71171 0.92608 0.0
H1668 H 0.29856 0.69877 0.84653 0.0
C1669 C 0.30384 0.74439 0.92613 0.0
H1670 H 0.30003 0.67027 0.8962 0.0
C1671 C 0.30326 0.76075 0.8975 0.0
C1672 C 0.30046 0.74457 0.8686 0.0
H1673 H 0.3047 0.75734 0.94826 0.0
H1674 H 0.30339 0.78606 0.89819 0.0
C1675 C 0.3004 0.71183 0.8685 0.0
C1676 C 0.10929 0.53442 0.69133 0.0
C1677 C 0.09633 0.51101 0.71121 0.0
H1678 H 0.10012 0.56642 0.65344 0.0
C1679 C 0.06367 0.50222 0.70871 0.0
H1680 H 0.13425 0.54203 0.69337 0.0
C1681 C 0.0444 0.51617 0.68598 0.0
C1682 C 0.05731 0.53969 0.66638 0.0
H1683 H 0.05318 0.4845 0.7242 0.0
H1684 H 0.01959 0.50844 0.68328 0.0
C1685 C 0.08973 0.54888 0.66919 0.0
C1686 C 0.26291 0.33937 0.41854 0.0
C1687 C 0.26591 0.37215 0.41926 0.0
H1688 H 0.25761 0.29793 0.38996 0.0
C1689 C 0.26588 0.38784 0.38964 0.0
H1690 H 0.26258 0.32628 0.44056 0.0
C1691 C 0.26314 0.37164 0.3606 0.0
C1692 C 0.25975 0.33898 0.3598 0.0
H1693 H 0.26815 0.41301 0.38874 0.0
H1694 H 0.26371 0.38486 0.33865 0.0
C1695 C 0.25969 0.32312 0.38936 0.0
C1696 C 0.37667 0.50565 0.49723 0.0
C1697 C 0.36724 0.48065 0.51733 0.0
H1698 H 0.41302 0.53918 0.48361 0.0
C1699 C 0.3892 0.4713 0.54064 0.0
H1700 H 0.36073 0.51379 0.47892 0.0
C1701 C 0.41948 0.48642 0.54358 0.0
C1702 C 0.42885 0.51123 0.52316 0.0
H1703 H 0.38298 0.45237 0.5567 0.0
H1704 H 0.43582 0.47826 0.56154 0.0
C1705 C 0.40684 0.52049 0.49998 0.0
C1706 C 0.88709 0.05682 0.47043 0.0
C1707 C 0.8844 0.08827 0.47954 0.0
H1708 H 0.9196 0.01842 0.46047 0.0
C1709 C 0.91176 0.10749 0.47658 0.0
H1710 H 0.86589 0.04194 0.47133 0.0
C1711 C 0.94265 0.09399 0.47073 0.0
C1712 C 0.94584 0.06131 0.46818 0.0
H1713 H 0.90986 0.13211 0.48262 0.0
H1714 H 0.9639 0.10844 0.47325 0.0
C1715 C 0.91779 0.04353 0.46373 0.0
C1716 C 0.67443 0.1214 0.24076 0.0
C1717 C 0.68043 0.10425 0.26842 0.0
H1718 H 0.68849 0.16025 0.21151 0.0
C1719 C 0.70562 0.11317 0.28807 0.0
H1720 H 0.65536 0.11466 0.22504 0.0
C1721 C 0.72418 0.13927 0.28044 0.0
C1722 C 0.7183 0.15626 0.25272 0.0
H1723 H 0.71072 0.10019 0.30945 0.0
H1724 H 0.74325 0.14618 0.29605 0.0
C1725 C 0.69353 0.14708 0.23278 0.0
C1726 C 0.66985 0.98169 0.04892 0.0
C1727 C 0.67594 0.95279 0.03352 0.0
H1728 H 0.63497 0.01848 0.06073 0.0
C1729 C 0.65025 0.93925 0.01719 0.0
H1730 H 0.689 0.99278 0.06174 0.0
C1731 C 0.61957 0.95442 0.01581 0.0
C1732 C 0.61334 0.98314 0.03153 0.0
H1733 H 0.65405 0.91711 0.00493 0.0
H1734 H 0.60052 0.94342 0.00276 0.0
C1735 C 0.63884 0.9964 0.04836 0.0
C1736 C 0.38146 0.44429 0.20853 0.0
C1737 C 0.38186 0.46189 0.23678 0.0
H1738 H 0.3591 0.40697 0.18364 0.0
C1739 C 0.36072 0.4541 0.26255 0.0
H1740 H 0.3973 0.45002 0.18819 0.0
C1741 C 0.33908 0.42954 0.25991 0.0
C1742 C 0.33782 0.41271 0.2313 0.0
H1743 H 0.3605 0.46736 0.28456 0.0
H1744 H 0.32265 0.42422 0.27991 0.0
C1745 C 0.35936 0.42003 0.20572 0.0
C1746 C 0.19278 0.5907 0.02881 0.0
C1747 C 0.19856 0.62183 0.03717 0.0
H1748 H 0.16093 0.55186 0.03401 0.0
C1749 C 0.17733 0.63728 0.05933 0.0
H1750 H 0.20888 0.57818 0.01193 0.0
C1751 C 0.15022 0.62178 0.07244 0.0
C1752 C 0.14418 0.591 0.06316 0.0
H1753 H 0.18163 0.66118 0.06642 0.0
H1754 H 0.13321 0.6341 0.08859 0.0
C1755 C 0.16574 0.5755 0.04162 0.0
C1756 C 0.74582 0.92071 0.31671 0.0
C1757 C 0.71159 0.92126 0.31924 0.0
H1758 H 0.7889 0.89267 0.30881 0.0
C1759 C 0.69452 0.89303 0.32092 0.0
H1760 H 0.75949 0.94219 0.31574 0.0
C1761 C 0.71122 0.86476 0.31639 0.0
C1762 C 0.74516 0.86445 0.31072 0.0
H1763 H 0.66807 0.89281 0.32323 0.0
H1764 H 0.69739 0.8434 0.31562 0.0
C1765 C 0.76257 0.89239 0.31266 0.0
C1766 C 0.81805 0.14781 0.79762 0.0
C1767 C 0.85034 0.14036 0.80501 0.0
H1768 H 0.78198 0.18421 0.79467 0.0
C1769 C 0.8683 0.16168 0.8226 0.0
H1770 H 0.80358 0.13166 0.7844 0.0
C1771 C 0.85578 0.19166 0.8288 0.0
C1772 C 0.82544 0.20045 0.81709 0.0
H1773 H 0.89312 0.15618 0.82903 0.0
H1774 H 0.87124 0.20874 0.83956 0.0
C1775 C 0.80575 0.17786 0.80343 0.0
loop_
_geom_bond_atom_site_label_1
_geom_bond_atom_site_label_2
_geom_bond_distance
_geom_bond_site_symmetry_2
_ccdc_geom_bond_type
C0 O1 1.306 . S
C0 O3 1.160 . S
O1 C0 1.306 . S
O1 Cd2 2.228 1_655 S
Cd2 O1 2.228 1_455 S
Cd2 O6 2.273 . S
Cd2 O10 2.277 . S
O3 C0 1.160 . S
O3 Cd4 2.203 1_655 S
Cd4 O3 2.203 1_455 S
Cd4 O6 2.411 . S
Cd4 O7 2.333 . S
Cd4 O8 2.352 . S
Cd4 O12 2.277 . S
Cd4 O13 2.356 . S
C5 O10 1.209 . S
C5 O12 1.226 . S
O6 Cd2 2.273 . S
O6 Cd4 2.411 . S
O6 C9 1.320 . S
O7 Cd4 2.333 . S
O7 C9 1.214 . S
O8 Cd4 2.352 . S
O8 C11 1.258 . S
C9 O6 1.320 . S
C9 O7 1.214 . S
O10 Cd2 2.277 . S
O10 C5 1.209 . S
C11 O8 1.258 . S
C11 O13 1.282 . S
O12 Cd4 2.277 . S
O12 C5 1.226 . S
O13 Cd4 2.356 . S
O13 C11 1.282 . S
C14 O15 1.306 . S
C14 O17 1.160 . S
O15 C14 1.306 . S
O15 Cd16 2.228 . S
Cd16 O15 2.228 . S
Cd16 O20 2.273 . S
Cd16 O24 2.277 . S
O17 C14 1.160 . S
O17 Cd18 2.203 . S
Cd18 O17 2.203 . S
Cd18 O20 2.411 . S
Cd18 O21 2.333 . S
Cd18 O22 2.352 . S
Cd18 O26 2.277 . S
Cd18 O27 2.356 . S
C19 O24 1.209 . S
C19 O26 1.226 . S
O20 Cd16 2.273 . S
O20 Cd18 2.411 . S
O20 C23 1.320 . S
O21 Cd18 2.333 . S
O21 C23 1.214 . S
O22 Cd18 2.352 . S
O22 C25 1.258 . S
C23 O20 1.320 . S
C23 O21 1.214 . S
O24 Cd16 2.277 . S
O24 C19 1.209 . S
C25 O22 1.258 . S
C25 O27 1.282 . S
O26 Cd18 2.277 . S
O26 C19 1.226 . S
O27 Cd18 2.356 . S
O27 C25 1.282 . S
C28 O29 1.306 . S
C28 O31 1.160 . S
O29 C28 1.306 . S
O29 Cd30 2.228 . S
Cd30 O29 2.228 . S
Cd30 O34 2.273 . S
Cd30 O38 2.277 . S
O31 C28 1.160 . S
O31 Cd32 2.203 . S
Cd32 O31 2.203 . S
Cd32 O34 2.411 . S
Cd32 O35 2.333 . S
Cd32 O36 2.352 . S
Cd32 O40 2.277 . S
Cd32 O41 2.356 . S
C33 O38 1.209 . S
C33 O40 1.226 . S
O34 Cd30 2.273 . S
O34 Cd32 2.411 . S
O34 C37 1.320 . S
O35 Cd32 2.333 . S
O35 C37 1.214 . S
O36 Cd32 2.352 . S
O36 C39 1.258 . S
C37 O34 1.320 . S
C37 O35 1.214 . S
O38 Cd30 2.277 . S
O38 C33 1.209 . S
C39 O36 1.258 . S
C39 O41 1.282 . S
O40 Cd32 2.277 . S
O40 C33 1.226 . S
O41 Cd32 2.356 . S
O41 C39 1.282 . S
C42 O43 1.306 . S
C42 O45 1.160 . S
O43 C42 1.306 . S
O43 Cd44 2.228 . S
Cd44 O43 2.228 . S
Cd44 O48 2.273 . S
Cd44 O52 2.277 . S
O45 C42 1.160 . S
O45 Cd46 2.203 . S
Cd46 O45 2.203 . S
Cd46 O48 2.411 . S
Cd46 O49 2.333 . S
Cd46 O50 2.352 . S
Cd46 O54 2.277 . S
Cd46 O55 2.356 . S
C47 O52 1.209 . S
C47 O54 1.226 . S
O48 Cd44 2.273 . S
O48 Cd46 2.411 . S
O48 C51 1.320 . S
O49 Cd46 2.333 . S
O49 C51 1.214 . S
O50 Cd46 2.352 . S
O50 C53 1.258 . S
C51 O48 1.320 . S
C51 O49 1.214 . S
O52 Cd44 2.277 . S
O52 C47 1.209 . S
C53 O50 1.258 . S
C53 O55 1.282 . S
O54 Cd46 2.277 . S
O54 C47 1.226 . S
O55 Cd46 2.356 . S
O55 C53 1.282 . S
C56 O57 1.306 . S
C56 O59 1.160 . S
O57 C56 1.306 . S
O57 Cd58 2.228 . S
Cd58 O57 2.228 . S
Cd58 O62 2.273 . S
Cd58 O66 2.277 . S
O59 C56 1.160 . S
O59 Cd60 2.203 . S
Cd60 O59 2.203 . S
Cd60 O62 2.411 . S
Cd60 O63 2.333 . S
Cd60 O64 2.352 1_545 S
Cd60 O68 2.277 . S
Cd60 O69 2.356 1_545 S
C61 O66 1.209 . S
C61 O68 1.226 . S
O62 Cd58 2.273 . S
O62 Cd60 2.411 . S
O62 C65 1.320 . S
O63 Cd60 2.333 . S
O63 C65 1.214 . S
O64 Cd60 2.352 1_565 S
O64 C67 1.258 . S
C65 O62 1.320 . S
C65 O63 1.214 . S
O66 Cd58 2.277 . S
O66 C61 1.209 . S
C67 O64 1.258 . S
C67 O69 1.282 . S
O68 Cd60 2.277 . S
O68 C61 1.226 . S
O69 Cd60 2.356 1_565 S
O69 C67 1.282 . S
C70 O71 1.306 . S
C70 O73 1.160 . S
O71 C70 1.306 . S
O71 Cd72 2.228 . S
Cd72 O71 2.228 . S
Cd72 O76 2.273 . S
Cd72 O80 2.277 . S
O73 C70 1.160 . S
O73 Cd74 2.203 . S
Cd74 O73 2.203 . S
Cd74 O76 2.411 . S
Cd74 O77 2.333 . S
Cd74 O78 2.352 . S
Cd74 O82 2.277 . S
Cd74 O83 2.356 . S
C75 O80 1.209 . S
C75 O82 1.226 . S
O76 Cd72 2.273 . S
O76 Cd74 2.411 . S
O76 C79 1.320 . S
O77 Cd74 2.333 . S
O77 C79 1.214 . S
O78 Cd74 2.352 . S
O78 C81 1.258 . S
C79 O76 1.320 . S
C79 O77 1.214 . S
O80 Cd72 2.277 . S
O80 C75 1.209 . S
C81 O78 1.258 . S
C81 O83 1.282 . S
O82 Cd74 2.277 . S
O82 C75 1.226 . S
O83 Cd74 2.356 . S
O83 C81 1.282 . S
C84 O85 1.306 . S
C84 O87 1.160 . S
O85 C84 1.306 . S
O85 Cd86 2.228 . S
Cd86 O85 2.228 . S
Cd86 O90 2.273 . S
Cd86 O94 2.277 . S
O87 C84 1.160 . S
O87 Cd88 2.203 . S
Cd88 O87 2.203 . S
Cd88 O90 2.411 . S
Cd88 O91 2.333 . S
Cd88 O92 2.352 . S
Cd88 O96 2.277 . S
Cd88 O97 2.356 . S
C89 O94 1.209 . S
C89 O96 1.226 . S
O90 Cd86 2.273 . S
O90 Cd88 2.411 . S
O90 C93 1.320 . S
O91 Cd88 2.333 . S
O91 C93 1.214 . S
O92 Cd88 2.352 . S
O92 C95 1.258 . S
C93 O90 1.320 . S
C93 O91 1.214 . S
O94 Cd86 2.277 . S
O94 C89 1.209 . S
C95 O92 1.258 . S
C95 O97 1.282 . S
O96 Cd88 2.277 . S
O96 C89 1.226 . S
O97 Cd88 2.356 . S
O97 C95 1.282 . S
C98 O99 1.306 . S
C98 O101 1.160 . S
O99 C98 1.306 . S
O99 Cd100 2.228 . S
Cd100 O99 2.228 . S
Cd100 O104 2.273 . S
Cd100 O108 2.277 . S
O101 C98 1.160 . S
O101 Cd102 2.203 . S
Cd102 O101 2.203 . S
Cd102 O104 2.411 . S
Cd102 O105 2.333 . S
Cd102 O106 2.352 1_554 S
Cd102 O110 2.277 . S
Cd102 O111 2.356 1_554 S
C103 O108 1.209 . S
C103 O110 1.226 . S
O104 Cd100 2.273 . S
O104 Cd102 2.411 . S
O104 C107 1.320 . S
O105 Cd102 2.333 . S
O105 C107 1.214 . S
O106 Cd102 2.352 1_556 S
O106 C109 1.258 . S
C107 O104 1.320 . S
C107 O105 1.214 . S
O108 Cd100 2.277 . S
O108 C103 1.209 . S
C109 O106 1.258 . S
C109 O111 1.282 . S
O110 Cd102 2.277 . S
O110 C103 1.226 . S
O111 Cd102 2.356 1_556 S
O111 C109 1.282 . S
C112 O113 1.306 . S
C112 O115 1.160 . S
O113 C112 1.306 . S
O113 Cd114 2.228 . S
Cd114 O113 2.228 . S
Cd114 O118 2.273 . S
Cd114 O122 2.277 . S
O115 C112 1.160 . S
O115 Cd116 2.203 . S
Cd116 O115 2.203 . S
Cd116 O118 2.411 . S
Cd116 O119 2.333 . S
Cd116 O120 2.352 . S
Cd116 O124 2.277 . S
Cd116 O125 2.356 . S
C117 O122 1.209 . S
C117 O124 1.226 . S
O118 Cd114 2.273 . S
O118 Cd116 2.411 . S
O118 C121 1.320 . S
O119 Cd116 2.333 . S
O119 C121 1.214 . S
O120 Cd116 2.352 . S
O120 C123 1.258 . S
C121 O118 1.320 . S
C121 O119 1.214 . S
O122 Cd114 2.277 . S
O122 C117 1.209 . S
C123 O120 1.258 . S
C123 O125 1.282 . S
O124 Cd116 2.277 . S
O124 C117 1.226 . S
O125 Cd116 2.356 . S
O125 C123 1.282 . S
C126 O127 1.306 . S
C126 O129 1.160 . S
O127 C126 1.306 . S
O127 Cd128 2.228 . S
Cd128 O127 2.228 . S
Cd128 O132 2.273 . S
Cd128 O136 2.277 . S
O129 C126 1.160 . S
O129 Cd130 2.203 . S
Cd130 O129 2.203 . S
Cd130 O132 2.411 . S
Cd130 O133 2.333 . S
Cd130 O134 2.352 . S
Cd130 O138 2.277 . S
Cd130 O139 2.356 . S
C131 O136 1.209 . S
C131 O138 1.226 . S
O132 Cd128 2.273 . S
O132 Cd130 2.411 . S
O132 C135 1.320 . S
O133 Cd130 2.333 . S
O133 C135 1.214 . S
O134 Cd130 2.352 . S
O134 C137 1.258 . S
C135 O132 1.320 . S
C135 O133 1.214 . S
O136 Cd128 2.277 . S
O136 C131 1.209 . S
C137 O134 1.258 . S
C137 O139 1.282 . S
O138 Cd130 2.277 . S
O138 C131 1.226 . S
O139 Cd130 2.356 . S
O139 C137 1.282 . S
C140 O141 1.306 . S
C140 O143 1.160 . S
O141 C140 1.306 . S
O141 Cd142 2.228 . S
Cd142 O141 2.228 . S
Cd142 O146 2.273 . S
Cd142 O150 2.277 . S
O143 C140 1.160 . S
O143 Cd144 2.203 . S
Cd144 O143 2.203 . S
Cd144 O146 2.411 . S
Cd144 O147 2.333 . S
Cd144 O148 2.352 . S
Cd144 O152 2.277 . S
Cd144 O153 2.356 . S
C145 O150 1.209 . S
C145 O152 1.226 . S
O146 Cd142 2.273 . S
O146 Cd144 2.411 . S
O146 C149 1.320 . S
O147 Cd144 2.333 . S
O147 C149 1.214 . S
O148 Cd144 2.352 . S
O148 C151 1.258 . S
C149 O146 1.320 . S
C149 O147 1.214 . S
O150 Cd142 2.277 . S
O150 C145 1.209 . S
C151 O148 1.258 . S
C151 O153 1.282 . S
O152 Cd144 2.277 . S
O152 C145 1.226 . S
O153 Cd144 2.356 . S
O153 C151 1.282 . S
C154 O155 1.306 . S
C154 O157 1.160 . S
O155 C154 1.306 . S
O155 Cd156 2.228 . S
Cd156 O155 2.228 . S
Cd156 O160 2.273 . S
Cd156 O164 2.277 . S
O157 C154 1.160 . S
O157 Cd158 2.203 . S
Cd158 O157 2.203 . S
Cd158 O160 2.411 . S
Cd158 O161 2.333 . S
Cd158 O162 2.352 . S
Cd158 O166 2.277 . S
Cd158 O167 2.356 . S
C159 O164 1.209 . S
C159 O166 1.226 . S
O160 Cd156 2.273 . S
O160 Cd158 2.411 . S
O160 C163 1.320 . S
O161 Cd158 2.333 . S
O161 C163 1.214 . S
O162 Cd158 2.352 . S
O162 C165 1.258 . S
C163 O160 1.320 . S
C163 O161 1.214 . S
O164 Cd156 2.277 . S
O164 C159 1.209 . S
C165 O162 1.258 . S
C165 O167 1.282 . S
O166 Cd158 2.277 . S
O166 C159 1.226 . S
O167 Cd158 2.356 . S
O167 C165 1.282 . S
C168 O169 1.306 . S
C168 O171 1.160 . S
O169 C168 1.306 . S
O169 Cd170 2.228 1_655 S
Cd170 O169 2.228 1_455 S
Cd170 O174 2.273 . S
Cd170 O178 2.277 . S
O171 C168 1.160 . S
O171 Cd172 2.203 1_655 S
Cd172 O171 2.203 1_455 S
Cd172 O174 2.411 . S
Cd172 O175 2.333 . S
Cd172 O176 2.352 . S
Cd172 O180 2.277 . S
Cd172 O181 2.356 . S
C173 O178 1.209 . S
C173 O180 1.226 . S
O174 Cd170 2.273 . S
O174 Cd172 2.411 . S
O174 C177 1.320 . S
O175 Cd172 2.333 . S
O175 C177 1.214 . S
O176 Cd172 2.352 . S
O176 C179 1.258 . S
C177 O174 1.320 . S
C177 O175 1.214 . S
O178 Cd170 2.277 . S
O178 C173 1.209 . S
C179 O176 1.258 . S
C179 O181 1.282 . S
O180 Cd172 2.277 . S
O180 C173 1.226 . S
O181 Cd172 2.356 . S
O181 C179 1.282 . S
C182 O183 1.306 . S
C182 O185 1.160 . S
O183 C182 1.306 . S
O183 Cd184 2.228 1_655 S
Cd184 O183 2.228 1_455 S
Cd184 O188 2.273 . S
Cd184 O192 2.277 . S
O185 C182 1.160 . S
O185 Cd186 2.203 1_655 S
Cd186 O185 2.203 1_455 S
Cd186 O188 2.411 . S
Cd186 O189 2.333 . S
Cd186 O190 2.352 1_455 S
Cd186 O194 2.279 . S
Cd186 O195 2.356 . S
C187 O192 1.209 . S
C187 O194 1.227 . S
O188 Cd184 2.273 . S
O188 Cd186 2.411 . S
O188 C191 1.320 . S
O189 Cd186 2.333 . S
O189 C191 1.214 . S
O190 Cd186 2.352 1_655 S
O190 C193 1.258 1_655 S
C191 O188 1.320 . S
C191 O189 1.214 . S
O192 Cd184 2.277 . S
O192 C187 1.209 . S
C193 O190 1.258 1_455 S
C193 O195 1.282 . S
O194 Cd186 2.279 . S
O194 C187 1.227 . S
O195 Cd186 2.356 . S
O195 C193 1.282 . S
C196 O197 1.306 . S
C196 O199 1.160 . S
O197 C196 1.306 . S
O197 Cd198 2.228 . S
Cd198 O197 2.228 . S
Cd198 O202 2.273 . S
Cd198 O206 2.277 . S
O199 C196 1.160 . S
O199 Cd200 2.203 . S
Cd200 O199 2.203 . S
Cd200 O202 2.411 . S
Cd200 O203 2.333 . S
Cd200 O204 2.352 . S
Cd200 O208 2.277 . S
Cd200 O209 2.356 . S
C201 O206 1.209 . S
C201 O208 1.226 . S
O202 Cd198 2.273 . S
O202 Cd200 2.411 . S
O202 C205 1.320 . S
O203 Cd200 2.333 . S
O203 C205 1.214 . S
O204 Cd200 2.352 . S
O204 C207 1.258 . S
C205 O202 1.320 . S
C205 O203 1.214 . S
O206 Cd198 2.277 . S
O206 C201 1.209 . S
C207 O204 1.258 . S
C207 O209 1.282 . S
O208 Cd200 2.277 . S
O208 C201 1.226 . S
O209 Cd200 2.356 . S
O209 C207 1.282 . S
C210 O211 1.306 . S
C210 O213 1.160 . S
O211 C210 1.306 . S
O211 Cd212 2.228 . S
Cd212 O211 2.228 . S
Cd212 O216 2.273 . S
Cd212 O220 2.277 . S
O213 C210 1.160 . S
O213 Cd214 2.203 . S
Cd214 O213 2.203 . S
Cd214 O216 2.411 . S
Cd214 O217 2.333 . S
Cd214 O218 2.352 . S
Cd214 O222 2.277 . S
Cd214 O223 2.356 . S
C215 O220 1.209 . S
C215 O222 1.226 . S
O216 Cd212 2.273 . S
O216 Cd214 2.411 . S
O216 C219 1.320 . S
O217 Cd214 2.333 . S
O217 C219 1.214 . S
O218 Cd214 2.352 . S
O218 C221 1.258 . S
C219 O216 1.320 . S
C219 O217 1.214 . S
O220 Cd212 2.277 . S
O220 C215 1.209 . S
C221 O218 1.258 . S
C221 O223 1.282 . S
O222 Cd214 2.277 . S
O222 C215 1.226 . S
O223 Cd214 2.356 . S
O223 C221 1.282 . S
C224 O225 1.306 . S
C224 O227 1.160 . S
O225 C224 1.306 . S
O225 Cd226 2.228 . S
Cd226 O225 2.228 . S
Cd226 O230 2.273 . S
Cd226 O234 2.277 . S
O227 C224 1.160 . S
O227 Cd228 2.203 . S
Cd228 O227 2.203 . S
Cd228 O230 2.411 . S
Cd228 O231 2.333 . S
Cd228 O232 2.352 . S
Cd228 O236 2.277 . S
Cd228 O237 2.356 . S
C229 O234 1.209 . S
C229 O236 1.226 . S
O230 Cd226 2.273 . S
O230 Cd228 2.411 . S
O230 C233 1.320 . S
O231 Cd228 2.333 . S
O231 C233 1.214 . S
O232 Cd228 2.352 . S
O232 C235 1.258 . S
C233 O230 1.320 . S
C233 O231 1.214 . S
O234 Cd226 2.277 . S
O234 C229 1.209 . S
C235 O232 1.258 . S
C235 O237 1.282 . S
O236 Cd228 2.277 . S
O236 C229 1.226 . S
O237 Cd228 2.356 . S
O237 C235 1.282 . S
C238 O239 1.306 . S
C238 O241 1.160 . S
O239 C238 1.306 . S
O239 Cd240 2.228 . S
Cd240 O239 2.228 . S
Cd240 O244 2.273 . S
Cd240 O248 2.277 . S
O241 C238 1.160 . S
O241 Cd242 2.203 . S
Cd242 O241 2.203 . S
Cd242 O244 2.411 . S
Cd242 O245 2.333 . S
Cd242 O246 2.352 . S
Cd242 O250 2.277 . S
Cd242 O251 2.356 . S
C243 O248 1.209 . S
C243 O250 1.226 . S
O244 Cd240 2.273 . S
O244 Cd242 2.411 . S
O244 C247 1.320 . S
O245 Cd242 2.333 . S
O245 C247 1.214 . S
O246 Cd242 2.352 . S
O246 C249 1.258 . S
C247 O244 1.320 . S
C247 O245 1.214 . S
O248 Cd240 2.277 . S
O248 C243 1.209 . S
C249 O246 1.258 . S
C249 O251 1.282 . S
O250 Cd242 2.277 . S
O250 C243 1.226 . S
O251 Cd242 2.356 . S
O251 C249 1.282 . S
C252 O253 1.306 . S
C252 O255 1.160 . S
O253 C252 1.306 . S
O253 Cd254 2.228 . S
Cd254 O253 2.228 . S
Cd254 O258 2.273 . S
Cd254 O262 2.277 . S
O255 C252 1.160 . S
O255 Cd256 2.203 . S
Cd256 O255 2.203 . S
Cd256 O258 2.411 . S
Cd256 O259 2.333 . S
Cd256 O260 2.352 1_545 S
Cd256 O264 2.277 . S
Cd256 O265 2.356 1_545 S
C257 O262 1.209 . S
C257 O264 1.226 . S
O258 Cd254 2.273 . S
O258 Cd256 2.411 . S
O258 C261 1.320 . S
O259 Cd256 2.333 . S
O259 C261 1.214 . S
O260 Cd256 2.352 1_565 S
O260 C263 1.258 . S
C261 O258 1.320 . S
C261 O259 1.214 . S
O262 Cd254 2.277 . S
O262 C257 1.209 . S
C263 O260 1.258 . S
C263 O265 1.282 . S
O264 Cd256 2.277 . S
O264 C257 1.226 . S
O265 Cd256 2.356 1_565 S
O265 C263 1.282 . S
C266 O267 1.306 . S
C266 O269 1.160 . S
O267 C266 1.306 . S
O267 Cd268 2.228 1_554 S
Cd268 O267 2.228 1_556 S
Cd268 O272 2.273 1_556 S
Cd268 O276 2.277 . S
O269 C266 1.160 . S
O269 Cd270 2.203 . S
Cd270 O269 2.203 . S
Cd270 O272 2.411 . S
Cd270 O273 2.333 . S
Cd270 O274 2.352 . S
Cd270 O278 2.277 1_554 S
Cd270 O279 2.356 . S
C271 O276 1.209 . S
C271 O278 1.226 . S
O272 Cd268 2.273 1_554 S
O272 Cd270 2.411 . S
O272 C275 1.320 . S
O273 Cd270 2.333 . S
O273 C275 1.214 . S
O274 Cd270 2.352 . S
O274 C277 1.258 . S
C275 O272 1.320 . S
C275 O273 1.214 . S
O276 Cd268 2.277 . S
O276 C271 1.209 . S
C277 O274 1.258 . S
C277 O279 1.282 . S
O278 Cd270 2.277 1_556 S
O278 C271 1.226 . S
O279 Cd270 2.356 . S
O279 C277 1.282 . S
C280 O281 1.306 . S
C280 O283 1.160 1_554 S
O281 C280 1.306 . S
O281 Cd282 2.228 . S
Cd282 O281 2.228 . S
Cd282 O286 2.273 . S
Cd282 O290 2.277 . S
O283 C280 1.160 1_556 S
O283 Cd284 2.203 . S
Cd284 O283 2.203 . S
Cd284 O286 2.411 1_556 S
Cd284 O287 2.333 . S
Cd284 O288 2.352 . S
Cd284 O292 2.277 1_556 S
Cd284 O293 2.356 . S
C285 O290 1.209 . S
C285 O292 1.226 . S
O286 Cd282 2.273 . S
O286 Cd284 2.411 1_554 S
O286 C289 1.320 . S
O287 Cd284 2.333 . S
O287 C289 1.214 1_556 S
O288 Cd284 2.352 . S
O288 C291 1.258 . S
C289 O286 1.320 . S
C289 O287 1.214 1_554 S
O290 Cd282 2.277 . S
O290 C285 1.209 . S
C291 O288 1.258 . S
C291 O293 1.282 . S
O292 Cd284 2.277 1_554 S
O292 C285 1.226 . S
O293 Cd284 2.356 . S
O293 C291 1.282 . S
C294 O295 1.306 . S
C294 O297 1.160 . S
O295 C294 1.306 . S
O295 Cd296 2.228 . S
Cd296 O295 2.228 . S
Cd296 O300 2.273 . S
Cd296 O304 2.277 . S
O297 C294 1.160 . S
O297 Cd298 2.203 . S
Cd298 O297 2.203 . S
Cd298 O300 2.411 . S
Cd298 O301 2.333 . S
Cd298 O302 2.352 . S
Cd298 O306 2.277 . S
Cd298 O307 2.356 . S
C299 O304 1.209 . S
C299 O306 1.226 . S
O300 Cd296 2.273 . S
O300 Cd298 2.411 . S
O300 C303 1.320 . S
O301 Cd298 2.333 . S
O301 C303 1.214 . S
O302 Cd298 2.352 . S
O302 C305 1.258 . S
C303 O300 1.320 . S
C303 O301 1.214 . S
O304 Cd296 2.277 . S
O304 C299 1.209 . S
C305 O302 1.258 . S
C305 O307 1.282 . S
O306 Cd298 2.277 . S
O306 C299 1.226 . S
O307 Cd298 2.356 . S
O307 C305 1.282 . S
C308 O309 1.306 . S
C308 O311 1.160 . S
O309 C308 1.306 . S
O309 Cd310 2.228 . S
Cd310 O309 2.228 . S
Cd310 O314 2.273 . S
Cd310 O318 2.277 . S
O311 C308 1.160 . S
O311 Cd312 2.203 . S
Cd312 O311 2.203 . S
Cd312 O314 2.411 . S
Cd312 O315 2.333 . S
Cd312 O316 2.352 . S
Cd312 O320 2.277 . S
Cd312 O321 2.356 . S
C313 O318 1.209 . S
C313 O320 1.226 . S
O314 Cd310 2.273 . S
O314 Cd312 2.411 . S
O314 C317 1.320 . S
O315 Cd312 2.333 . S
O315 C317 1.214 . S
O316 Cd312 2.352 . S
O316 C319 1.258 . S
C317 O314 1.320 . S
C317 O315 1.214 . S
O318 Cd310 2.277 . S
O318 C313 1.209 . S
C319 O316 1.258 . S
C319 O321 1.282 . S
O320 Cd312 2.277 . S
O320 C313 1.226 . S
O321 Cd312 2.356 . S
O321 C319 1.282 . S
C322 O323 1.306 . S
C322 O325 1.160 . S
O323 C322 1.306 . S
O323 Cd324 2.228 . S
Cd324 O323 2.228 . S
Cd324 O328 2.273 . S
Cd324 O332 2.277 . S
O325 C322 1.160 . S
O325 Cd326 2.203 . S
Cd326 O325 2.203 . S
Cd326 O328 2.411 . S
Cd326 O329 2.333 . S
Cd326 O330 2.352 . S
Cd326 O334 2.277 . S
Cd326 O335 2.356 . S
C327 O332 1.209 . S
C327 O334 1.226 . S
O328 Cd324 2.273 . S
O328 Cd326 2.411 . S
O328 C331 1.320 . S
O329 Cd326 2.333 . S
O329 C331 1.214 . S
O330 Cd326 2.352 . S
O330 C333 1.258 . S
C331 O328 1.320 . S
C331 O329 1.214 . S
O332 Cd324 2.277 . S
O332 C327 1.209 . S
C333 O330 1.258 . S
C333 O335 1.282 . S
O334 Cd326 2.277 . S
O334 C327 1.226 . S
O335 Cd326 2.356 . S
O335 C333 1.282 . S
Co336 N341 2.057 1_554 S
Co336 O353 2.021 1_554 S
Co336 O356 2.062 1_455 S
Co336 O360 2.117 . S
Co336 O361 2.020 . S
C337 O357 1.259 . S
C337 O360 1.258 . S
Co338 N347 2.057 . S
Co338 O354 2.117 1_545 S
Co338 O355 2.020 1_455 S
Co338 O357 2.021 . S
Co338 O362 2.062 . S
C339 N341 1.316 . S
C339 N342 1.347 1_455 S
C339 H344 0.931 . S
C340 N341 1.376 . S
C340 C343 1.348 1_455 S
C340 H345 0.931 . S
N341 Co336 2.057 1_556 S
N341 C339 1.316 . S
N341 C340 1.376 . S
N342 C339 1.347 1_655 S
N342 C343 1.373 . S
C343 C340 1.348 1_655 S
C343 N342 1.373 . S
C343 H364 0.931 . S
H344 C339 0.931 . S
H345 C340 0.931 . S
C346 O353 1.259 1_564 S
C346 O354 1.258 . S
N347 Co338 2.057 . S
N347 C348 1.316 . S
N347 C349 1.375 1_545 S
C348 N347 1.316 . S
C348 N350 1.330 1_545 S
C348 H359 0.931 . S
C349 N347 1.375 1_565 S
C349 C351 1.350 . S
C349 H358 0.930 . S
N350 C348 1.330 1_565 S
N350 C351 1.397 . S
C351 C349 1.350 . S
C351 N350 1.397 . S
C351 H365 0.931 . S
C352 O355 1.256 . S
C352 O356 1.255 . S
O353 Co336 2.021 1_556 S
O353 C346 1.259 1_546 S
O354 Co338 2.117 1_565 S
O354 C346 1.258 . S
O355 Co338 2.020 1_655 S
O355 C352 1.256 . S
O356 Co336 2.062 1_655 S
O356 C352 1.255 . S
O357 C337 1.259 . S
O357 Co338 2.021 . S
H358 C349 0.930 . S
H359 C348 0.931 . S
O360 Co336 2.117 . S
O360 C337 1.258 . S
O361 Co336 2.020 . S
O361 C363 1.256 . S
O362 Co338 2.062 . S
O362 C363 1.255 . S
C363 O361 1.256 . S
C363 O362 1.255 . S
H364 C343 0.931 . S
H365 C351 0.931 . S
Co366 N371 2.057 . S
Co366 O383 2.021 . S
Co366 O386 2.062 . S
Co366 O390 2.117 . S
Co366 O391 2.020 . S
C367 O387 1.259 . S
C367 O390 1.258 . S
Co368 N377 2.057 . S
Co368 O384 2.117 . S
Co368 O385 2.020 . S
Co368 O387 2.021 . S
Co368 O392 2.062 . S
C369 N371 1.316 . S
C369 N372 1.347 . S
C369 H374 0.931 . S
C370 N371 1.375 . S
C370 C373 1.350 . S
C370 H375 0.930 . S
N371 Co366 2.057 . S
N371 C369 1.316 . S
N371 C370 1.375 . S
N372 C369 1.347 . S
N372 C373 1.373 . S
C373 C370 1.350 . S
C373 N372 1.373 . S
C373 H394 0.931 . S
H374 C369 0.931 . S
H375 C370 0.930 . S
C376 O383 1.259 . S
C376 O384 1.258 . S
N377 Co368 2.057 . S
N377 C378 1.316 . S
N377 C379 1.375 . S
C378 N377 1.316 . S
C378 N380 1.347 . S
C378 H389 0.931 . S
C379 N377 1.375 . S
C379 C381 1.350 . S
C379 H388 0.930 . S
N380 C378 1.347 . S
N380 C381 1.373 . S
C381 C379 1.350 . S
C381 N380 1.373 . S
C381 H395 0.931 . S
C382 O385 1.256 . S
C382 O386 1.255 . S
O383 Co366 2.021 . S
O383 C376 1.259 . S
O384 Co368 2.117 . S
O384 C376 1.258 . S
O385 Co368 2.020 . S
O385 C382 1.256 . S
O386 Co366 2.062 . S
O386 C382 1.255 . S
O387 C367 1.259 . S
O387 Co368 2.021 . S
H388 C379 0.930 . S
H389 C378 0.931 . S
O390 Co366 2.117 . S
O390 C367 1.258 . S
O391 Co366 2.020 . S
O391 C393 1.256 . S
O392 Co368 2.062 . S
O392 C393 1.255 . S
C393 O391 1.256 . S
C393 O392 1.255 . S
H394 C373 0.931 . S
H395 C381 0.931 . S
Co396 N401 2.057 . S
Co396 O413 2.021 1_545 S
Co396 O416 2.062 . S
Co396 O420 2.117 . S
Co396 O421 2.020 . S
C397 O417 1.259 . S
C397 O420 1.258 . S
Co398 N407 2.057 . S
Co398 O414 2.117 . S
Co398 O415 2.020 . S
Co398 O417 2.021 . S
Co398 O422 2.062 . S
C399 N401 1.316 1_565 S
C399 N402 1.347 1_565 S
C399 H404 0.931 . S
C400 N401 1.375 . S
C400 C403 1.350 . S
C400 H405 0.930 . S
N401 Co396 2.057 . S
N401 C399 1.316 1_545 S
N401 C400 1.375 . S
N402 C399 1.347 1_545 S
N402 C403 1.373 . S
C403 C400 1.350 . S
C403 N402 1.373 . S
C403 H424 0.931 . S
H404 C399 0.931 . S
H405 C400 0.930 . S
C406 O413 1.259 . S
C406 O414 1.258 1_565 S
N407 Co398 2.057 . S
N407 C408 1.316 . S
N407 C409 1.375 . S
C408 N407 1.316 . S
C408 N410 1.347 . S
C408 H419 0.931 . S
C409 N407 1.375 . S
C409 C411 1.350 . S
C409 H418 0.930 . S
N410 C408 1.347 . S
N410 C411 1.373 . S
C411 C409 1.350 . S
C411 N410 1.373 . S
C411 H425 0.931 . S
C412 O415 1.256 . S
C412 O416 1.255 . S
O413 Co396 2.021 1_565 S
O413 C406 1.259 . S
O414 Co398 2.117 . S
O414 C406 1.258 1_545 S
O415 Co398 2.020 . S
O415 C412 1.256 . S
O416 Co396 2.062 . S
O416 C412 1.255 . S
O417 C397 1.259 . S
O417 Co398 2.021 . S
H418 C409 0.930 . S
H419 C408 0.931 . S
O420 Co396 2.117 . S
O420 C397 1.258 . S
O421 Co396 2.020 . S
O421 C423 1.256 . S
O422 Co398 2.062 . S
O422 C423 1.255 . S
C423 O421 1.256 . S
C423 O422 1.255 . S
H424 C403 0.931 . S
H425 C411 0.931 . S
Co426 N431 2.057 . S
Co426 O443 2.021 . S
Co426 O446 2.062 . S
Co426 O450 2.117 . S
Co426 O451 2.020 . S
C427 O447 1.259 . S
C427 O450 1.258 . S
Co428 N437 2.057 . S
Co428 O444 2.117 . S
Co428 O445 2.020 . S
Co428 O447 2.021 . S
Co428 O452 2.062 . S
C429 N431 1.316 . S
C429 N432 1.347 . S
C429 H434 0.931 . S
C430 N431 1.375 . S
C430 C433 1.350 . S
C430 H435 0.930 . S
N431 Co426 2.057 . S
N431 C429 1.316 . S
N431 C430 1.375 . S
N432 C429 1.347 . S
N432 C433 1.373 . S
C433 C430 1.350 . S
C433 N432 1.373 . S
C433 H454 0.931 . S
H434 C429 0.931 . S
H435 C430 0.930 . S
C436 O443 1.259 . S
C436 O444 1.258 . S
N437 Co428 2.057 . S
N437 C438 1.316 . S
N437 C439 1.375 . S
C438 N437 1.316 . S
C438 N440 1.347 . S
C438 H449 0.931 . S
C439 N437 1.375 . S
C439 C441 1.350 . S
C439 H448 0.930 . S
N440 C438 1.347 . S
N440 C441 1.373 . S
C441 C439 1.350 . S
C441 N440 1.373 . S
C441 H455 0.931 . S
C442 O445 1.256 . S
C442 O446 1.255 . S
O443 Co426 2.021 . S
O443 C436 1.259 . S
O444 Co428 2.117 . S
O444 C436 1.258 . S
O445 Co428 2.020 . S
O445 C442 1.256 . S
O446 Co426 2.062 . S
O446 C442 1.255 . S
O447 C427 1.259 . S
O447 Co428 2.021 . S
H448 C439 0.930 . S
H449 C438 0.931 . S
O450 Co426 2.117 . S
O450 C427 1.258 . S
O451 Co426 2.020 . S
O451 C453 1.256 . S
O452 Co428 2.062 . S
O452 C453 1.255 . S
C453 O451 1.256 . S
C453 O452 1.255 . S
H454 C433 0.931 . S
H455 C441 0.931 . S
Co456 N461 2.057 1_545 S
Co456 O473 2.021 . S
Co456 O476 2.062 1_545 S
Co456 O480 2.117 . S
Co456 O481 2.020 1_455 S
C457 O477 1.259 . S
C457 O480 1.258 . S
Co458 N467 2.057 . S
Co458 O474 2.117 . S
Co458 O475 2.020 . S
Co458 O477 2.021 . S
Co458 O482 2.062 1_455 S
C459 N461 1.316 . S
C459 N462 1.347 . S
C459 H464 0.931 . S
C460 N461 1.375 1_655 S
C460 C463 1.350 . S
C460 H465 0.930 . S
N461 Co456 2.057 1_565 S
N461 C459 1.316 . S
N461 C460 1.375 1_455 S
N462 C459 1.347 . S
N462 C463 1.373 1_455 S
C463 C460 1.350 . S
C463 N462 1.373 1_655 S
C463 H484 0.931 . S
H464 C459 0.931 . S
H465 C460 0.930 . S
C466 O473 1.259 . S
C466 O474 1.258 . S
N467 Co458 2.057 . S
N467 C468 1.316 . S
N467 C469 1.375 . S
C468 N467 1.316 . S
C468 N470 1.347 . S
C468 H479 0.931 . S
C469 N467 1.375 . S
C469 C471 1.350 . S
C469 H478 0.930 . S
N470 C468 1.347 . S
N470 C471 1.373 . S
C471 C469 1.350 . S
C471 N470 1.373 . S
C471 H485 0.931 . S
C472 O475 1.256 . S
C472 O476 1.255 1_545 S
O473 Co456 2.021 . S
O473 C466 1.259 . S
O474 Co458 2.117 . S
O474 C466 1.258 . S
O475 Co458 2.020 . S
O475 C472 1.256 . S
O476 Co456 2.062 1_565 S
O476 C472 1.255 1_565 S
O477 C457 1.259 . S
O477 Co458 2.021 . S
H478 C469 0.930 . S
H479 C468 0.931 . S
O480 Co456 2.117 . S
O480 C457 1.258 . S
O481 Co456 2.020 1_655 S
O481 C483 1.256 . S
O482 Co458 2.062 1_655 S
O482 C483 1.255 . S
C483 O481 1.256 . S
C483 O482 1.255 . S
H484 C463 0.931 . S
H485 C471 0.931 . S
Co486 N491 2.057 . S
Co486 O503 2.021 . S
Co486 O506 2.062 . S
Co486 O510 2.117 . S
Co486 O511 2.020 . S
C487 O507 1.259 . S
C487 O510 1.258 . S
Co488 N497 2.057 . S
Co488 O504 2.117 . S
Co488 O505 2.020 . S
Co488 O507 2.021 . S
Co488 O512 2.062 . S
C489 N491 1.316 . S
C489 N492 1.347 . S
C489 H494 0.931 . S
C490 N491 1.375 . S
C490 C493 1.350 . S
C490 H495 0.930 . S
N491 Co486 2.057 . S
N491 C489 1.316 . S
N491 C490 1.375 . S
N492 C489 1.347 . S
N492 C493 1.373 . S
C493 C490 1.350 . S
C493 N492 1.373 . S
C493 H514 0.931 . S
H494 C489 0.931 . S
H495 C490 0.930 . S
C496 O503 1.259 . S
C496 O504 1.258 . S
N497 Co488 2.057 . S
N497 C498 1.316 . S
N497 C499 1.375 . S
C498 N497 1.316 . S
C498 N500 1.347 . S
C498 H509 0.931 . S
C499 N497 1.375 . S
C499 C501 1.350 . S
C499 H508 0.930 . S
N500 C498 1.347 . S
N500 C501 1.373 . S
C501 C499 1.350 . S
C501 N500 1.373 . S
C501 H515 0.931 . S
C502 O505 1.256 . S
C502 O506 1.255 . S
O503 Co486 2.021 . S
O503 C496 1.259 . S
O504 Co488 2.117 . S
O504 C496 1.258 . S
O505 Co488 2.020 . S
O505 C502 1.256 . S
O506 Co486 2.062 . S
O506 C502 1.255 . S
O507 C487 1.259 . S
O507 Co488 2.021 . S
H508 C499 0.930 . S
H509 C498 0.931 . S
O510 Co486 2.117 . S
O510 C487 1.258 . S
O511 Co486 2.020 . S
O511 C513 1.256 . S
O512 Co488 2.062 . S
O512 C513 1.255 . S
C513 O511 1.256 . S
C513 O512 1.255 . S
H514 C493 0.931 . S
H515 C501 0.931 . S
Co516 N521 2.057 1_554 S
Co516 O533 2.021 . S
Co516 O536 2.062 1_554 S
Co516 O540 2.117 . S
Co516 O541 2.020 1_545 S
C517 O537 1.259 . S
C517 O540 1.258 . S
Co518 N527 2.057 . S
Co518 O534 2.117 . S
Co518 O535 2.020 . S
Co518 O537 2.021 . S
Co518 O542 2.062 . S
C519 N521 1.316 . S
C519 N522 1.347 . S
C519 H524 0.931 . S
C520 N521 1.386 . S
C520 C523 1.350 . S
C520 H525 0.921 1_545 S
N521 Co516 2.057 1_556 S
N521 C519 1.316 . S
N521 C520 1.386 . S
N522 C519 1.347 . S
N522 C523 1.377 . S
C523 C520 1.350 . S
C523 N522 1.377 . S
C523 H544 0.927 1_545 S
H524 C519 0.931 . S
H525 C520 0.921 1_565 S
C526 O533 1.259 . S
C526 O534 1.258 . S
N527 Co518 2.057 . S
N527 C528 1.316 . S
N527 C529 1.375 . S
C528 N527 1.316 . S
C528 N530 1.347 . S
C528 H539 0.931 . S
C529 N527 1.375 . S
C529 C531 1.350 . S
C529 H538 0.930 . S
N530 C528 1.347 . S
N530 C531 1.373 . S
C531 C529 1.350 . S
C531 N530 1.373 . S
C531 H545 0.931 . S
C532 O535 1.256 . S
C532 O536 1.255 1_554 S
O533 Co516 2.021 . S
O533 C526 1.259 . S
O534 Co518 2.117 . S
O534 C526 1.258 . S
O535 Co518 2.020 . S
O535 C532 1.256 . S
O536 Co516 2.062 1_556 S
O536 C532 1.255 1_556 S
O537 C517 1.259 . S
O537 Co518 2.021 . S
H538 C529 0.930 . S
H539 C528 0.931 . S
O540 Co516 2.117 . S
O540 C517 1.258 . S
O541 Co516 2.020 1_565 S
O541 C543 1.256 . S
O542 Co518 2.062 . S
O542 C543 1.255 1_545 S
C543 O541 1.256 . S
C543 O542 1.255 1_565 S
H544 C523 0.927 1_565 S
H545 C531 0.931 . S
Co546 N551 2.057 . S
Co546 O563 2.021 . S
Co546 O566 2.062 . S
Co546 O570 2.117 . S
Co546 O571 2.020 . S
C547 O567 1.259 . S
C547 O570 1.258 . S
Co548 N557 2.057 . S
Co548 O564 2.117 . S
Co548 O565 2.020 . S
Co548 O567 2.021 . S
Co548 O572 2.062 . S
C549 N551 1.316 . S
C549 N552 1.347 . S
C549 H554 0.931 . S
C550 N551 1.375 . S
C550 C553 1.350 . S
C550 H555 0.930 . S
N551 Co546 2.057 . S
N551 C549 1.316 . S
N551 C550 1.375 . S
N552 C549 1.347 . S
N552 C553 1.373 . S
C553 C550 1.350 . S
C553 N552 1.373 . S
C553 H574 0.931 . S
H554 C549 0.931 . S
H555 C550 0.930 . S
C556 O563 1.259 . S
C556 O564 1.258 . S
N557 Co548 2.057 . S
N557 C558 1.316 . S
N557 C559 1.375 . S
C558 N557 1.316 . S
C558 N560 1.347 . S
C558 H569 0.931 . S
C559 N557 1.375 . S
C559 C561 1.350 . S
C559 H568 0.930 . S
N560 C558 1.347 . S
N560 C561 1.373 . S
C561 C559 1.350 . S
C561 N560 1.373 . S
C561 H575 0.931 . S
C562 O565 1.256 . S
C562 O566 1.255 . S
O563 Co546 2.021 . S
O563 C556 1.259 . S
O564 Co548 2.117 . S
O564 C556 1.258 . S
O565 Co548 2.020 . S
O565 C562 1.256 . S
O566 Co546 2.062 . S
O566 C562 1.255 . S
O567 C547 1.259 . S
O567 Co548 2.021 . S
H568 C559 0.930 . S
H569 C558 0.931 . S
O570 Co546 2.117 . S
O570 C547 1.258 . S
O571 Co546 2.020 . S
O571 C573 1.256 . S
O572 Co548 2.062 . S
O572 C573 1.255 . S
C573 O571 1.256 . S
C573 O572 1.255 . S
H574 C553 0.931 . S
H575 C561 0.931 . S
Co576 N581 2.057 . S
Co576 O593 2.021 1_554 S
Co576 O596 2.062 . S
Co576 O600 2.117 . S
Co576 O601 2.020 . S
C577 O597 1.259 . S
C577 O600 1.258 . S
Co578 N587 2.057 . S
Co578 O594 2.117 . S
Co578 O595 2.020 . S
Co578 O597 2.021 . S
Co578 O602 2.062 . S
C579 N581 1.316 1_556 S
C579 N582 1.347 1_556 S
C579 H584 0.931 . S
C580 N581 1.375 . S
C580 C583 1.350 . S
C580 H585 0.930 . S
N581 Co576 2.057 . S
N581 C579 1.316 1_554 S
N581 C580 1.375 . S
N582 C579 1.347 1_554 S
N582 C583 1.373 . S
C583 C580 1.350 . S
C583 N582 1.373 . S
C583 H604 0.931 . S
H584 C579 0.931 . S
H585 C580 0.930 . S
C586 O593 1.259 . S
C586 O594 1.258 1_556 S
N587 Co578 2.057 . S
N587 C588 1.316 . S
N587 C589 1.375 . S
C588 N587 1.316 . S
C588 N590 1.347 . S
C588 H599 0.931 . S
C589 N587 1.375 . S
C589 C591 1.350 . S
C589 H598 0.930 . S
N590 C588 1.347 . S
N590 C591 1.373 . S
C591 C589 1.350 . S
C591 N590 1.373 . S
C591 H605 0.931 . S
C592 O595 1.256 . S
C592 O596 1.255 . S
O593 Co576 2.021 1_556 S
O593 C586 1.259 . S
O594 Co578 2.117 . S
O594 C586 1.258 1_554 S
O595 Co578 2.020 . S
O595 C592 1.256 . S
O596 Co576 2.062 . S
O596 C592 1.255 . S
O597 C577 1.259 . S
O597 Co578 2.021 . S
H598 C589 0.930 . S
H599 C588 0.931 . S
O600 Co576 2.117 . S
O600 C577 1.258 . S
O601 Co576 2.020 . S
O601 C603 1.256 . S
O602 Co578 2.062 . S
O602 C603 1.255 . S
C603 O601 1.256 . S
C603 O602 1.255 . S
H604 C583 0.931 . S
H605 C591 0.931 . S
Co606 N611 2.057 . S
Co606 O623 2.021 . S
Co606 O626 2.062 . S
Co606 O630 2.117 . S
Co606 O631 2.020 . S
C607 O627 1.259 . S
C607 O630 1.258 . S
Co608 N617 2.057 . S
Co608 O624 2.117 . S
Co608 O625 2.020 . S
Co608 O627 2.021 . S
Co608 O632 2.062 . S
C609 N611 1.316 . S
C609 N612 1.347 . S
C609 H614 0.931 . S
C610 N611 1.375 . S
C610 C613 1.350 . S
C610 H615 0.930 . S
N611 Co606 2.057 . S
N611 C609 1.316 . S
N611 C610 1.375 . S
N612 C609 1.347 . S
N612 C613 1.373 . S
C613 C610 1.350 . S
C613 N612 1.373 . S
C613 H634 0.931 . S
H614 C609 0.931 . S
H615 C610 0.930 . S
C616 O623 1.259 . S
C616 O624 1.258 . S
N617 Co608 2.057 . S
N617 C618 1.316 . S
N617 C619 1.375 . S
C618 N617 1.316 . S
C618 N620 1.347 . S
C618 H629 0.931 . S
C619 N617 1.375 . S
C619 C621 1.350 . S
C619 H628 0.930 . S
N620 C618 1.347 . S
N620 C621 1.373 . S
C621 C619 1.350 . S
C621 N620 1.373 . S
C621 H635 0.931 . S
C622 O625 1.256 . S
C622 O626 1.255 . S
O623 Co606 2.021 . S
O623 C616 1.259 . S
O624 Co608 2.117 . S
O624 C616 1.258 . S
O625 Co608 2.020 . S
O625 C622 1.256 . S
O626 Co606 2.062 . S
O626 C622 1.255 . S
O627 C607 1.259 . S
O627 Co608 2.021 . S
H628 C619 0.930 . S
H629 C618 0.931 . S
O630 Co606 2.117 . S
O630 C607 1.258 . S
O631 Co606 2.020 . S
O631 C633 1.256 . S
O632 Co608 2.062 . S
O632 C633 1.255 . S
C633 O631 1.256 . S
C633 O632 1.255 . S
H634 C613 0.931 . S
H635 C621 0.931 . S
Co636 N641 2.057 . S
Co636 O653 2.021 1_455 S
Co636 O656 2.062 . S
Co636 O660 2.117 . S
Co636 O661 2.020 . S
C637 O657 1.259 . S
C637 O660 1.258 . S
Co638 N647 2.057 . S
Co638 O654 2.117 1_455 S
Co638 O655 2.020 . S
Co638 O657 2.021 . S
Co638 O662 2.062 . S
C639 N641 1.316 1_655 S
C639 N642 1.347 1_655 S
C639 H644 0.931 . S
C640 N641 1.375 . S
C640 C643 1.350 . S
C640 H645 0.930 . S
N641 Co636 2.057 . S
N641 C639 1.316 1_455 S
N641 C640 1.375 . S
N642 C639 1.347 1_455 S
N642 C643 1.373 . S
C643 C640 1.350 . S
C643 N642 1.373 . S
C643 H664 0.931 . S
H644 C639 0.931 . S
H645 C640 0.930 . S
C646 O653 1.259 . S
C646 O654 1.258 . S
N647 Co638 2.057 . S
N647 C648 1.316 . S
N647 C649 1.375 . S
C648 N647 1.316 . S
C648 N650 1.347 . S
C648 H659 0.931 . S
C649 N647 1.375 . S
C649 C651 1.350 . S
C649 H658 0.930 . S
N650 C648 1.347 . S
N650 C651 1.373 . S
C651 C649 1.350 . S
C651 N650 1.373 . S
C651 H665 0.931 . S
C652 O655 1.256 . S
C652 O656 1.255 . S
O653 Co636 2.021 1_655 S
O653 C646 1.259 . S
O654 Co638 2.117 1_655 S
O654 C646 1.258 . S
O655 Co638 2.020 . S
O655 C652 1.256 . S
O656 Co636 2.062 . S
O656 C652 1.255 . S
O657 C637 1.259 . S
O657 Co638 2.021 . S
H658 C649 0.930 . S
H659 C648 0.931 . S
O660 Co636 2.117 . S
O660 C637 1.258 . S
O661 Co636 2.020 . S
O661 C663 1.256 . S
O662 Co638 2.062 . S
O662 C663 1.255 . S
C663 O661 1.256 . S
C663 O662 1.255 . S
H664 C643 0.931 . S
H665 C651 0.931 . S
Co666 N671 2.057 . S
Co666 O683 2.021 . S
Co666 O686 2.062 . S
Co666 O690 2.117 . S
Co666 O691 2.020 . S
C667 O687 1.259 . S
C667 O690 1.258 . S
Co668 N677 2.057 . S
Co668 O684 2.117 . S
Co668 O685 2.020 . S
Co668 O687 2.021 . S
Co668 O692 2.062 . S
C669 N671 1.316 . S
C669 N672 1.347 . S
C669 H674 0.931 . S
C670 N671 1.375 . S
C670 C673 1.350 . S
C670 H675 0.930 . S
N671 Co666 2.057 . S
N671 C669 1.316 . S
N671 C670 1.375 . S
N672 C669 1.347 . S
N672 C673 1.373 . S
C673 C670 1.350 . S
C673 N672 1.373 . S
C673 H694 0.931 . S
H674 C669 0.931 . S
H675 C670 0.930 . S
C676 O683 1.259 . S
C676 O684 1.258 . S
N677 Co668 2.057 . S
N677 C678 1.316 . S
N677 C679 1.375 . S
C678 N677 1.316 . S
C678 N680 1.347 . S
C678 H689 0.931 . S
C679 N677 1.375 . S
C679 C681 1.350 . S
C679 H688 0.930 . S
N680 C678 1.347 . S
N680 C681 1.373 . S
C681 C679 1.350 . S
C681 N680 1.373 . S
C681 H695 0.931 . S
C682 O685 1.256 . S
C682 O686 1.255 . S
O683 Co666 2.021 . S
O683 C676 1.259 . S
O684 Co668 2.117 . S
O684 C676 1.258 . S
O685 Co668 2.020 . S
O685 C682 1.256 . S
O686 Co666 2.062 . S
O686 C682 1.255 . S
O687 C667 1.259 . S
O687 Co668 2.021 . S
H688 C679 0.930 . S
H689 C678 0.931 . S
O690 Co666 2.117 . S
O690 C667 1.258 . S
O691 Co666 2.020 . S
O691 C693 1.256 . S
O692 Co668 2.062 . S
O692 C693 1.255 . S
C693 O691 1.256 . S
C693 O692 1.255 . S
H694 C673 0.931 . S
H695 C681 0.931 . S
Co696 N701 2.057 . S
Co696 O713 2.021 . S
Co696 O716 2.062 . S
Co696 O720 2.117 . S
Co696 O721 2.020 . S
C697 O717 1.259 . S
C697 O720 1.258 . S
Co698 N707 2.057 . S
Co698 O714 2.117 . S
Co698 O715 2.020 . S
Co698 O717 2.021 . S
Co698 O722 2.062 . S
C699 N701 1.316 . S
C699 N702 1.347 . S
C699 H704 0.931 . S
C700 N701 1.375 . S
C700 C703 1.350 . S
C700 H705 0.930 . S
N701 Co696 2.057 . S
N701 C699 1.316 . S
N701 C700 1.375 . S
N702 C699 1.347 . S
N702 C703 1.373 . S
C703 C700 1.350 . S
C703 N702 1.373 . S
C703 H724 0.931 . S
H704 C699 0.931 . S
H705 C700 0.930 . S
C706 O713 1.259 . S
C706 O714 1.258 . S
N707 Co698 2.057 . S
N707 C708 1.316 . S
N707 C709 1.375 . S
C708 N707 1.316 . S
C708 N710 1.347 . S
C708 H719 0.931 . S
C709 N707 1.375 . S
C709 C711 1.350 . S
C709 H718 0.930 . S
N710 C708 1.347 . S
N710 C711 1.373 . S
C711 C709 1.350 . S
C711 N710 1.373 . S
C711 H725 0.931 . S
C712 O715 1.256 . S
C712 O716 1.255 . S
O713 Co696 2.021 . S
O713 C706 1.259 . S
O714 Co698 2.117 . S
O714 C706 1.258 . S
O715 Co698 2.020 . S
O715 C712 1.256 . S
O716 Co696 2.062 . S
O716 C712 1.255 . S
O717 C697 1.259 . S
O717 Co698 2.021 . S
H718 C709 0.930 . S
H719 C708 0.931 . S
O720 Co696 2.117 . S
O720 C697 1.258 . S
O721 Co696 2.020 . S
O721 C723 1.256 . S
O722 Co698 2.062 . S
O722 C723 1.255 . S
C723 O721 1.256 . S
C723 O722 1.255 . S
H724 C703 0.931 . S
H725 C711 0.931 . S
Co726 N731 2.057 . S
Co726 O743 2.021 . S
Co726 O746 2.062 . S
Co726 O750 2.117 . S
Co726 O751 2.020 . S
C727 O747 1.259 . S
C727 O750 1.258 . S
Co728 N737 2.057 . S
Co728 O744 2.117 . S
Co728 O745 2.020 . S
Co728 O747 2.021 . S
Co728 O752 2.062 . S
C729 N731 1.316 . S
C729 N732 1.347 . S
C729 H734 0.931 . S
C730 N731 1.375 . S
C730 C733 1.350 . S
C730 H735 0.930 . S
N731 Co726 2.057 . S
N731 C729 1.316 . S
N731 C730 1.375 . S
N732 C729 1.347 . S
N732 C733 1.373 . S
C733 C730 1.350 . S
C733 N732 1.373 . S
C733 H754 0.931 . S
H734 C729 0.931 . S
H735 C730 0.930 . S
C736 O743 1.259 . S
C736 O744 1.258 . S
N737 Co728 2.057 . S
N737 C738 1.316 . S
N737 C739 1.375 . S
C738 N737 1.316 . S
C738 N740 1.347 . S
C738 H749 0.931 . S
C739 N737 1.375 . S
C739 C741 1.350 . S
C739 H748 0.930 . S
N740 C738 1.347 . S
N740 C741 1.373 . S
C741 C739 1.350 . S
C741 N740 1.373 . S
C741 H755 0.931 . S
C742 O745 1.256 . S
C742 O746 1.255 . S
O743 Co726 2.021 . S
O743 C736 1.259 . S
O744 Co728 2.117 . S
O744 C736 1.258 . S
O745 Co728 2.020 . S
O745 C742 1.256 . S
O746 Co726 2.062 . S
O746 C742 1.255 . S
O747 C727 1.259 . S
O747 Co728 2.021 . S
H748 C739 0.930 . S
H749 C738 0.931 . S
O750 Co726 2.117 . S
O750 C727 1.258 . S
O751 Co726 2.020 . S
O751 C753 1.256 . S
O752 Co728 2.062 . S
O752 C753 1.255 . S
C753 O751 1.256 . S
C753 O752 1.255 . S
H754 C733 0.931 . S
H755 C741 0.931 . S
Co756 N761 2.057 . S
Co756 O773 2.021 . S
Co756 O776 2.062 . S
Co756 O780 2.117 . S
Co756 O781 2.020 . S
C757 O777 1.259 . S
C757 O780 1.258 . S
Co758 N767 2.057 . S
Co758 O774 2.117 . S
Co758 O775 2.020 . S
Co758 O777 2.021 . S
Co758 O782 2.062 . S
C759 N761 1.316 . S
C759 N762 1.347 . S
C759 H764 0.931 . S
C760 N761 1.375 . S
C760 C763 1.350 . S
C760 H765 0.930 . S
N761 Co756 2.057 . S
N761 C759 1.316 . S
N761 C760 1.375 . S
N762 C759 1.347 . S
N762 C763 1.373 . S
C763 C760 1.350 . S
C763 N762 1.373 . S
C763 H784 0.931 . S
H764 C759 0.931 . S
H765 C760 0.930 . S
C766 O773 1.259 . S
C766 O774 1.258 . S
N767 Co758 2.057 . S
N767 C768 1.316 . S
N767 C769 1.375 . S
C768 N767 1.316 . S
C768 N770 1.347 . S
C768 H779 0.931 . S
C769 N767 1.375 . S
C769 C771 1.350 . S
C769 H778 0.930 . S
N770 C768 1.347 . S
N770 C771 1.373 . S
C771 C769 1.350 . S
C771 N770 1.373 . S
C771 H785 0.931 . S
C772 O775 1.256 . S
C772 O776 1.255 . S
O773 Co756 2.021 . S
O773 C766 1.259 . S
O774 Co758 2.117 . S
O774 C766 1.258 . S
O775 Co758 2.020 . S
O775 C772 1.256 . S
O776 Co756 2.062 . S
O776 C772 1.255 . S
O777 C757 1.259 . S
O777 Co758 2.021 . S
H778 C769 0.930 . S
H779 C768 0.931 . S
O780 Co756 2.117 . S
O780 C757 1.258 . S
O781 Co756 2.020 . S
O781 C783 1.256 . S
O782 Co758 2.062 . S
O782 C783 1.255 . S
C783 O781 1.256 . S
C783 O782 1.255 . S
H784 C763 0.931 . S
H785 C771 0.931 . S
Co786 N791 2.057 1_455 S
Co786 O803 2.021 . S
Co786 O806 2.062 1_455 S
Co786 O810 2.117 . S
Co786 O811 2.020 1_554 S
C787 O807 1.259 . S
C787 O810 1.258 . S
Co788 N797 2.057 . S
Co788 O804 2.117 . S
Co788 O805 2.020 . S
Co788 O807 2.021 . S
Co788 O812 2.062 1_554 S
C789 N791 1.316 . S
C789 N792 1.347 . S
C789 H794 0.931 . S
C790 N791 1.375 . S
C790 C793 1.350 . S
C790 H795 0.930 1_554 S
N791 Co786 2.057 1_655 S
N791 C789 1.316 . S
N791 C790 1.375 . S
N792 C789 1.347 . S
N792 C793 1.373 . S
C793 C790 1.350 . S
C793 N792 1.373 . S
C793 H814 0.931 1_554 S
H794 C789 0.931 . S
H795 C790 0.930 1_556 S
C796 O803 1.259 . S
C796 O804 1.258 . S
N797 Co788 2.057 . S
N797 C798 1.316 . S
N797 C799 1.375 . S
C798 N797 1.316 . S
C798 N800 1.347 . S
C798 H809 0.931 . S
C799 N797 1.375 . S
C799 C801 1.350 . S
C799 H808 0.930 . S
N800 C798 1.347 . S
N800 C801 1.373 . S
C801 C799 1.350 . S
C801 N800 1.373 . S
C801 H815 0.931 . S
C802 O805 1.256 . S
C802 O806 1.255 1_455 S
O803 Co786 2.021 . S
O803 C796 1.259 . S
O804 Co788 2.117 . S
O804 C796 1.258 . S
O805 Co788 2.020 . S
O805 C802 1.256 . S
O806 Co786 2.062 1_655 S
O806 C802 1.255 1_655 S
O807 C787 1.259 . S
O807 Co788 2.021 . S
H808 C799 0.930 . S
H809 C798 0.931 . S
O810 Co786 2.117 . S
O810 C787 1.258 . S
O811 Co786 2.020 1_556 S
O811 C813 1.256 . S
O812 Co788 2.062 1_556 S
O812 C813 1.255 . S
C813 O811 1.256 . S
C813 O812 1.255 . S
H814 C793 0.931 1_556 S
H815 C801 0.931 . S
C816 C817 1.387 . S
C816 H820 0.950 1_455 S
C816 C825 1.390 . S
C817 C816 1.387 . S
C817 C819 1.387 . S
H818 C825 0.950 1_655 S
C819 C817 1.387 . S
C819 C821 1.390 . S
C819 H823 0.950 . S
H820 C816 0.950 1_655 S
C821 C819 1.390 . S
C821 C822 1.387 . S
C821 H824 0.950 . S
C822 C821 1.387 . S
C822 C825 1.387 . S
H823 C819 0.950 . S
H824 C821 0.950 . S
C825 C816 1.390 . S
C825 H818 0.950 1_455 S
C825 C822 1.387 . S
C826 C827 1.387 . S
C826 H830 0.950 . S
C826 C835 1.390 . S
C827 C826 1.387 . S
C827 C829 1.387 . S
H828 C835 0.950 . S
C829 C827 1.387 . S
C829 C831 1.390 . S
C829 H833 0.950 . S
H830 C826 0.950 . S
C831 C829 1.390 . S
C831 C832 1.387 . S
C831 H834 0.950 . S
C832 C831 1.387 . S
C832 C835 1.387 . S
H833 C829 0.950 . S
H834 C831 0.950 . S
C835 C826 1.390 . S
C835 H828 0.950 . S
C835 C832 1.387 . S
C836 C837 1.387 . S
C836 H840 0.950 . S
C836 C845 1.390 . S
C837 C836 1.387 . S
C837 C839 1.387 . S
H838 C845 0.950 . S
C839 C837 1.387 . S
C839 C841 1.390 . S
C839 H843 0.950 . S
H840 C836 0.950 . S
C841 C839 1.390 . S
C841 C842 1.387 . S
C841 H844 0.950 . S
C842 C841 1.387 . S
C842 C845 1.387 . S
H843 C839 0.950 . S
H844 C841 0.950 . S
C845 C836 1.390 . S
C845 H838 0.950 . S
C845 C842 1.387 . S
C846 C847 1.387 . S
C846 H850 0.950 . S
C846 C855 1.390 . S
C847 C846 1.387 . S
C847 C849 1.387 . S
H848 C855 0.950 . S
C849 C847 1.387 . S
C849 C851 1.390 . S
C849 H853 0.950 . S
H850 C846 0.950 . S
C851 C849 1.390 . S
C851 C852 1.387 . S
C851 H854 0.950 . S
C852 C851 1.387 . S
C852 C855 1.387 . S
H853 C849 0.950 . S
H854 C851 0.950 . S
C855 C846 1.390 . S
C855 H848 0.950 . S
C855 C852 1.387 . S
C856 C857 1.387 . S
C856 H860 0.950 . S
C856 C865 1.390 . S
C857 C856 1.387 . S
C857 C859 1.387 . S
H858 C865 0.950 . S
C859 C857 1.387 . S
C859 C861 1.390 . S
C859 H863 0.950 . S
H860 C856 0.950 . S
C861 C859 1.390 . S
C861 C862 1.387 . S
C861 H864 0.950 . S
C862 C861 1.387 . S
C862 C865 1.387 . S
H863 C859 0.950 . S
H864 C861 0.950 . S
C865 C856 1.390 . S
C865 H858 0.950 . S
C865 C862 1.387 . S
C866 C867 1.387 . S
C866 H870 0.950 . S
C866 C875 1.390 . S
C867 C866 1.387 . S
C867 C869 1.387 . S
H868 C875 0.950 . S
C869 C867 1.387 . S
C869 C871 1.390 . S
C869 H873 0.950 . S
H870 C866 0.950 . S
C871 C869 1.390 . S
C871 C872 1.387 . S
C871 H874 0.950 . S
C872 C871 1.387 . S
C872 C875 1.387 . S
H873 C869 0.950 . S
H874 C871 0.950 . S
C875 C866 1.390 . S
C875 H868 0.950 . S
C875 C872 1.387 . S
C876 C877 1.387 . S
C876 H880 0.950 . S
C876 C885 1.390 1_556 S
C877 C876 1.387 . S
C877 C879 1.387 . S
H878 C885 0.950 . S
C879 C877 1.387 . S
C879 C881 1.390 . S
C879 H883 0.950 . S
H880 C876 0.950 . S
C881 C879 1.390 . S
C881 C882 1.387 . S
C881 H884 0.950 . S
C882 C881 1.387 . S
C882 C885 1.387 1_556 S
H883 C879 0.950 . S
H884 C881 0.950 . S
C885 C876 1.390 1_554 S
C885 H878 0.950 . S
C885 C882 1.387 1_554 S
C886 C887 1.387 . S
C886 H890 0.950 . S
C886 C895 1.390 . S
C887 C886 1.387 . S
C887 C889 1.387 . S
H888 C895 0.950 . S
C889 C887 1.387 . S
C889 C891 1.390 . S
C889 H893 0.950 . S
H890 C886 0.950 . S
C891 C889 1.390 . S
C891 C892 1.387 . S
C891 H894 0.950 . S
C892 C891 1.387 . S
C892 C895 1.387 . S
H893 C889 0.950 . S
H894 C891 0.950 . S
C895 C886 1.390 . S
C895 H888 0.950 . S
C895 C892 1.387 . S
C896 C897 1.387 . S
C896 H900 0.950 . S
C896 C905 1.390 . S
C897 C896 1.387 . S
C897 C899 1.387 1_545 S
H898 C905 0.950 . S
C899 C897 1.387 1_565 S
C899 C901 1.390 . S
C899 H903 0.950 . S
H900 C896 0.950 . S
C901 C899 1.390 . S
C901 C902 1.387 1_565 S
C901 H904 0.950 . S
C902 C901 1.387 1_545 S
C902 C905 1.387 . S
H903 C899 0.950 . S
H904 C901 0.950 . S
C905 C896 1.390 . S
C905 H898 0.950 . S
C905 C902 1.387 . S
C906 C907 1.387 . S
C906 H910 0.950 . S
C906 C915 1.390 . S
C907 C906 1.387 . S
C907 C909 1.387 . S
H908 C915 0.950 . S
C909 C907 1.387 . S
C909 C911 1.390 . S
C909 H913 0.950 . S
H910 C906 0.950 . S
C911 C909 1.390 . S
C911 C912 1.387 . S
C911 H914 0.950 . S
C912 C911 1.387 . S
C912 C915 1.387 . S
H913 C909 0.950 . S
H914 C911 0.950 . S
C915 C906 1.390 . S
C915 H908 0.950 . S
C915 C912 1.387 . S
C916 C917 1.387 . S
C916 H920 0.950 . S
C916 C925 1.390 . S
C917 C916 1.387 . S
C917 C919 1.387 . S
H918 C925 0.950 . S
C919 C917 1.387 . S
C919 C921 1.390 . S
C919 H923 0.950 . S
H920 C916 0.950 . S
C921 C919 1.390 . S
C921 C922 1.387 . S
C921 H924 0.950 . S
C922 C921 1.387 . S
C922 C925 1.387 . S
H923 C919 0.950 . S
H924 C921 0.950 . S
C925 C916 1.390 . S
C925 H918 0.950 . S
C925 C922 1.387 . S
C926 C927 1.387 . S
C926 H930 0.950 . S
C926 C935 1.390 . S
C927 C926 1.387 . S
C927 C929 1.387 . S
H928 C935 0.950 . S
C929 C927 1.387 . S
C929 C931 1.390 . S
C929 H933 0.950 . S
H930 C926 0.950 . S
C931 C929 1.390 . S
C931 C932 1.387 . S
C931 H934 0.950 . S
C932 C931 1.387 . S
C932 C935 1.387 . S
H933 C929 0.950 . S
H934 C931 0.950 . S
C935 C926 1.390 . S
C935 H928 0.950 . S
C935 C932 1.387 . S
C936 C937 1.387 . S
C936 H940 0.950 1_545 S
C936 C945 1.390 . S
C937 C936 1.387 . S
C937 C939 1.387 . S
H938 C945 0.950 . S
C939 C937 1.387 . S
C939 C941 1.390 . S
C939 H943 0.950 . S
H940 C936 0.950 1_565 S
C941 C939 1.390 . S
C941 C942 1.387 . S
C941 H944 0.950 . S
C942 C941 1.387 . S
C942 C945 1.387 . S
H943 C939 0.950 . S
H944 C941 0.950 . S
C945 C936 1.390 . S
C945 H938 0.950 . S
C945 C942 1.387 . S
C946 C947 1.387 . S
C946 H950 0.950 . S
C946 C955 1.390 . S
C947 C946 1.387 . S
C947 C949 1.387 . S
H948 C955 0.950 . S
C949 C947 1.387 . S
C949 C951 1.390 . S
C949 H953 0.950 . S
H950 C946 0.950 . S
C951 C949 1.390 . S
C951 C952 1.387 . S
C951 H954 0.950 . S
C952 C951 1.387 . S
C952 C955 1.387 . S
H953 C949 0.950 . S
H954 C951 0.950 . S
C955 C946 1.390 . S
C955 H948 0.950 . S
C955 C952 1.387 . S
C956 C957 1.387 . S
C956 H960 0.950 . S
C956 C965 1.390 . S
C957 C956 1.387 . S
C957 C959 1.387 . S
H958 C965 0.950 . S
C959 C957 1.387 . S
C959 C961 1.390 . S
C959 H963 0.950 . S
H960 C956 0.950 . S
C961 C959 1.390 . S
C961 C962 1.387 . S
C961 H964 0.950 1_545 S
C962 C961 1.387 . S
C962 C965 1.387 . S
H963 C959 0.950 . S
H964 C961 0.950 1_565 S
C965 C956 1.390 . S
C965 H958 0.950 . S
C965 C962 1.387 . S
C966 C967 1.387 . S
C966 H970 0.950 . S
C966 C975 1.390 . S
C967 C966 1.387 . S
C967 C969 1.387 . S
H968 C975 0.950 . S
C969 C967 1.387 . S
C969 C971 1.390 . S
C969 H973 0.950 . S
H970 C966 0.950 . S
C971 C969 1.390 . S
C971 C972 1.387 . S
C971 H974 0.950 . S
C972 C971 1.387 . S
C972 C975 1.387 . S
H973 C969 0.950 . S
H974 C971 0.950 . S
C975 C966 1.390 . S
C975 H968 0.950 . S
C975 C972 1.387 . S
C976 C977 1.387 . S
C976 H980 0.950 1_554 S
C976 C985 1.390 . S
C977 C976 1.387 . S
C977 C979 1.387 . S
H978 C985 0.950 1_556 S
C979 C977 1.387 . S
C979 C981 1.390 . S
C979 H983 0.950 . S
H980 C976 0.950 1_556 S
C981 C979 1.390 . S
C981 C982 1.387 . S
C981 H984 0.950 . S
C982 C981 1.387 . S
C982 C985 1.387 . S
H983 C979 0.950 . S
H984 C981 0.950 . S
C985 C976 1.390 . S
C985 H978 0.950 1_554 S
C985 C982 1.387 . S
C986 C987 1.387 . S
C986 H990 0.950 . S
C986 C995 1.390 . S
C987 C986 1.387 . S
C987 C989 1.387 . S
H988 C995 0.950 . S
C989 C987 1.387 . S
C989 C991 1.390 . S
C989 H993 0.950 . S
H990 C986 0.950 . S
C991 C989 1.390 . S
C991 C992 1.387 . S
C991 H994 0.950 . S
C992 C991 1.387 . S
C992 C995 1.387 . S
H993 C989 0.950 . S
H994 C991 0.950 . S
C995 C986 1.390 . S
C995 H988 0.950 . S
C995 C992 1.387 . S
C996 C997 1.387 . S
C996 H1000 0.950 . S
C996 C1005 1.390 . S
C997 C996 1.387 . S
C997 C999 1.387 . S
H998 C1005 0.950 . S
C999 C997 1.387 . S
C999 C1001 1.390 . S
C999 H1003 0.950 . S
H1000 C996 0.950 . S
C1001 C999 1.390 . S
C1001 C1002 1.387 . S
C1001 H1004 0.950 . S
C1002 C1001 1.387 . S
C1002 C1005 1.387 . S
H1003 C999 0.950 . S
H1004 C1001 0.950 . S
C1005 C996 1.390 . S
C1005 H998 0.950 . S
C1005 C1002 1.387 . S
C1006 C1007 1.387 . S
C1006 H1010 0.950 . S
C1006 C1015 1.390 . S
C1007 C1006 1.387 . S
C1007 C1009 1.387 . S
H1008 C1015 0.950 . S
C1009 C1007 1.387 . S
C1009 C1011 1.390 . S
C1009 H1013 0.950 . S
H1010 C1006 0.950 . S
C1011 C1009 1.390 . S
C1011 C1012 1.387 . S
C1011 H1014 0.950 . S
C1012 C1011 1.387 . S
C1012 C1015 1.387 . S
H1013 C1009 0.950 . S
H1014 C1011 0.950 . S
C1015 C1006 1.390 . S
C1015 H1008 0.950 . S
C1015 C1012 1.387 . S
C1016 C1017 1.387 . S
C1016 H1020 0.950 . S
C1016 C1025 1.390 . S
C1017 C1016 1.387 . S
C1017 C1019 1.387 . S
H1018 C1025 0.950 . S
C1019 C1017 1.387 . S
C1019 C1021 1.390 . S
C1019 H1023 0.950 . S
H1020 C1016 0.950 . S
C1021 C1019 1.390 . S
C1021 C1022 1.387 . S
C1021 H1024 0.950 . S
C1022 C1021 1.387 . S
C1022 C1025 1.387 . S
H1023 C1019 0.950 . S
H1024 C1021 0.950 . S
C1025 C1016 1.390 . S
C1025 H1018 0.950 . S
C1025 C1022 1.387 . S
C1026 C1027 1.387 . S
C1026 H1030 0.950 . S
C1026 C1035 1.390 1_565 S
C1027 C1026 1.387 . S
C1027 C1029 1.387 . S
H1028 C1035 0.950 . S
C1029 C1027 1.387 . S
C1029 C1031 1.390 . S
C1029 H1033 0.950 . S
H1030 C1026 0.950 . S
C1031 C1029 1.390 . S
C1031 C1032 1.387 . S
C1031 H1034 0.950 . S
C1032 C1031 1.387 . S
C1032 C1035 1.387 1_565 S
H1033 C1029 0.950 . S
H1034 C1031 0.950 . S
C1035 C1026 1.390 1_545 S
C1035 H1028 0.950 . S
C1035 C1032 1.387 1_545 S
C1036 C1037 1.387 . S
C1036 H1040 0.950 . S
C1036 C1045 1.390 . S
C1037 C1036 1.387 . S
C1037 C1039 1.387 . S
H1038 C1045 0.950 . S
C1039 C1037 1.387 . S
C1039 C1041 1.390 . S
C1039 H1043 0.950 . S
H1040 C1036 0.950 . S
C1041 C1039 1.390 . S
C1041 C1042 1.387 . S
C1041 H1044 0.950 . S
C1042 C1041 1.387 . S
C1042 C1045 1.387 . S
H1043 C1039 0.950 . S
H1044 C1041 0.950 . S
C1045 C1036 1.390 . S
C1045 H1038 0.950 . S
C1045 C1042 1.387 . S
C1046 C1047 1.387 . S
C1046 H1050 0.950 . S
C1046 C1055 1.390 . S
C1047 C1046 1.387 . S
C1047 C1049 1.387 . S
H1048 C1055 0.950 . S
C1049 C1047 1.387 . S
C1049 C1051 1.390 . S
C1049 H1053 0.950 . S
H1050 C1046 0.950 . S
C1051 C1049 1.390 . S
C1051 C1052 1.387 . S
C1051 H1054 0.950 . S
C1052 C1051 1.387 . S
C1052 C1055 1.387 . S
H1053 C1049 0.950 . S
H1054 C1051 0.950 . S
C1055 C1046 1.390 . S
C1055 H1048 0.950 . S
C1055 C1052 1.387 . S
C1056 C1057 1.387 . S
C1056 H1060 0.950 . S
C1056 C1065 1.390 . S
C1057 C1056 1.387 . S
C1057 C1059 1.387 . S
H1058 C1065 0.950 . S
C1059 C1057 1.387 . S
C1059 C1061 1.390 1_556 S
C1059 H1063 0.950 . S
H1060 C1056 0.950 . S
C1061 C1059 1.390 1_554 S
C1061 C1062 1.387 1_554 S
C1061 H1064 0.950 . S
C1062 C1061 1.387 1_556 S
C1062 C1065 1.387 . S
H1063 C1059 0.950 . S
H1064 C1061 0.950 . S
C1065 C1056 1.390 . S
C1065 H1058 0.950 . S
C1065 C1062 1.387 . S
C1066 C1067 1.387 . S
C1066 H1070 0.950 . S
C1066 C1075 1.390 . S
C1067 C1066 1.387 . S
C1067 C1069 1.387 . S
H1068 C1075 0.950 . S
C1069 C1067 1.387 . S
C1069 C1071 1.390 . S
C1069 H1073 0.950 . S
H1070 C1066 0.950 . S
C1071 C1069 1.390 . S
C1071 C1072 1.387 . S
C1071 H1074 0.950 . S
C1072 C1071 1.387 . S
C1072 C1075 1.387 . S
H1073 C1069 0.950 . S
H1074 C1071 0.950 . S
C1075 C1066 1.390 . S
C1075 H1068 0.950 . S
C1075 C1072 1.387 . S
C1076 C1077 1.387 . S
C1076 H1080 0.950 . S
C1076 C1085 1.390 . S
C1077 C1076 1.387 . S
C1077 C1079 1.387 . S
H1078 C1085 0.950 . S
C1079 C1077 1.387 . S
C1079 C1081 1.390 . S
C1079 H1083 0.950 . S
H1080 C1076 0.950 . S
C1081 C1079 1.390 . S
C1081 C1082 1.387 . S
C1081 H1084 0.950 . S
C1082 C1081 1.387 . S
C1082 C1085 1.387 . S
H1083 C1079 0.950 . S
H1084 C1081 0.950 . S
C1085 C1076 1.390 . S
C1085 H1078 0.950 . S
C1085 C1082 1.387 . S
C1086 C1087 1.387 . S
C1086 H1090 0.950 . S
C1086 C1095 1.390 . S
C1087 C1086 1.387 . S
C1087 C1089 1.387 . S
H1088 C1095 0.950 . S
C1089 C1087 1.387 . S
C1089 C1091 1.390 . S
C1089 H1093 0.950 . S
H1090 C1086 0.950 . S
C1091 C1089 1.390 . S
C1091 C1092 1.387 . S
C1091 H1094 0.950 . S
C1092 C1091 1.387 . S
C1092 C1095 1.387 . S
H1093 C1089 0.950 . S
H1094 C1091 0.950 . S
C1095 C1086 1.390 . S
C1095 H1088 0.950 . S
C1095 C1092 1.387 . S
C1096 C1097 1.387 . S
C1096 H1100 0.950 . S
C1096 C1105 1.390 . S
C1097 C1096 1.387 . S
C1097 C1099 1.387 . S
H1098 C1105 0.950 . S
C1099 C1097 1.387 . S
C1099 C1101 1.390 . S
C1099 H1103 0.950 . S
H1100 C1096 0.950 . S
C1101 C1099 1.390 . S
C1101 C1102 1.387 . S
C1101 H1104 0.950 . S
C1102 C1101 1.387 . S
C1102 C1105 1.387 . S
H1103 C1099 0.950 . S
H1104 C1101 0.950 . S
C1105 C1096 1.390 . S
C1105 H1098 0.950 . S
C1105 C1102 1.387 . S
C1106 C1107 1.387 . S
C1106 H1110 0.950 . S
C1106 C1115 1.390 . S
C1107 C1106 1.387 . S
C1107 C1109 1.387 . S
H1108 C1115 0.950 . S
C1109 C1107 1.387 . S
C1109 C1111 1.390 . S
C1109 H1113 0.950 . S
H1110 C1106 0.950 . S
C1111 C1109 1.390 . S
C1111 C1112 1.387 . S
C1111 H1114 0.950 . S
C1112 C1111 1.387 . S
C1112 C1115 1.387 . S
H1113 C1109 0.950 . S
H1114 C1111 0.950 . S
C1115 C1106 1.390 . S
C1115 H1108 0.950 . S
C1115 C1112 1.387 . S
C1116 C1117 1.387 . S
C1116 H1120 0.950 . S
C1116 C1125 1.390 . S
C1117 C1116 1.387 . S
C1117 C1119 1.387 . S
H1118 C1125 0.950 . S
C1119 C1117 1.387 . S
C1119 C1121 1.390 . S
C1119 H1123 0.950 . S
H1120 C1116 0.950 . S
C1121 C1119 1.390 . S
C1121 C1122 1.387 . S
C1121 H1124 0.950 . S
C1122 C1121 1.387 . S
C1122 C1125 1.387 . S
H1123 C1119 0.950 . S
H1124 C1121 0.950 . S
C1125 C1116 1.390 . S
C1125 H1118 0.950 . S
C1125 C1122 1.387 . S
C1126 C1127 1.387 . S
C1126 H1130 0.950 . S
C1126 C1135 1.390 . S
C1127 C1126 1.387 . S
C1127 C1129 1.387 . S
H1128 C1135 0.950 . S
C1129 C1127 1.387 . S
C1129 C1131 1.390 . S
C1129 H1133 0.950 . S
H1130 C1126 0.950 . S
C1131 C1129 1.390 . S
C1131 C1132 1.387 . S
C1131 H1134 0.950 . S
C1132 C1131 1.387 . S
C1132 C1135 1.387 . S
H1133 C1129 0.950 . S
H1134 C1131 0.950 . S
C1135 C1126 1.390 . S
C1135 H1128 0.950 . S
C1135 C1132 1.387 . S
C1136 C1137 1.387 . S
C1136 H1140 0.950 . S
C1136 C1145 1.390 . S
C1137 C1136 1.387 . S
C1137 C1139 1.387 . S
H1138 C1145 0.950 . S
C1139 C1137 1.387 . S
C1139 C1141 1.390 . S
C1139 H1143 0.950 . S
H1140 C1136 0.950 . S
C1141 C1139 1.390 . S
C1141 C1142 1.387 . S
C1141 H1144 0.950 . S
C1142 C1141 1.387 . S
C1142 C1145 1.387 . S
H1143 C1139 0.950 . S
H1144 C1141 0.950 . S
C1145 C1136 1.390 . S
C1145 H1138 0.950 . S
C1145 C1142 1.387 . S
C1146 C1147 1.387 . S
C1146 H1150 0.950 . S
C1146 C1155 1.390 . S
C1147 C1146 1.387 . S
C1147 C1149 1.387 . S
H1148 C1155 0.950 . S
C1149 C1147 1.387 . S
C1149 C1151 1.390 . S
C1149 H1153 0.950 . S
H1150 C1146 0.950 . S
C1151 C1149 1.390 . S
C1151 C1152 1.387 . S
C1151 H1154 0.950 . S
C1152 C1151 1.387 . S
C1152 C1155 1.387 . S
H1153 C1149 0.950 . S
H1154 C1151 0.950 . S
C1155 C1146 1.390 . S
C1155 H1148 0.950 . S
C1155 C1152 1.387 . S
C1156 C1157 1.387 1_565 S
C1156 H1160 0.950 . S
C1156 C1165 1.390 . S
C1157 C1156 1.387 1_545 S
C1157 C1159 1.387 . S
H1158 C1165 0.950 . S
C1159 C1157 1.387 . S
C1159 C1161 1.390 . S
C1159 H1163 0.950 . S
H1160 C1156 0.950 . S
C1161 C1159 1.390 . S
C1161 C1162 1.387 . S
C1161 H1164 0.950 . S
C1162 C1161 1.387 . S
C1162 C1165 1.387 1_545 S
H1163 C1159 0.950 . S
H1164 C1161 0.950 . S
C1165 C1156 1.390 . S
C1165 H1158 0.950 . S
C1165 C1162 1.387 1_565 S
C1166 C1167 1.387 . S
C1166 H1170 0.950 . S
C1166 C1175 1.390 . S
C1167 C1166 1.387 . S
C1167 C1169 1.387 . S
H1168 C1175 0.950 . S
C1169 C1167 1.387 . S
C1169 C1171 1.390 . S
C1169 H1173 0.950 . S
H1170 C1166 0.950 . S
C1171 C1169 1.390 . S
C1171 C1172 1.387 . S
C1171 H1174 0.950 . S
C1172 C1171 1.387 . S
C1172 C1175 1.387 . S
H1173 C1169 0.950 . S
H1174 C1171 0.950 . S
C1175 C1166 1.390 . S
C1175 H1168 0.950 . S
C1175 C1172 1.387 . S
C1176 C1177 1.387 . S
C1176 H1180 0.950 . S
C1176 C1185 1.390 . S
C1177 C1176 1.387 . S
C1177 C1179 1.387 . S
H1178 C1185 0.950 . S
C1179 C1177 1.387 . S
C1179 C1181 1.390 . S
C1179 H1183 0.950 . S
H1180 C1176 0.950 . S
C1181 C1179 1.390 . S
C1181 C1182 1.387 . S
C1181 H1184 0.950 1_545 S
C1182 C1181 1.387 . S
C1182 C1185 1.387 . S
H1183 C1179 0.950 . S
H1184 C1181 0.950 1_565 S
C1185 C1176 1.390 . S
C1185 H1178 0.950 . S
C1185 C1182 1.387 . S
C1186 C1187 1.387 . S
C1186 H1190 0.950 . S
C1186 C1195 1.390 . S
C1187 C1186 1.387 . S
C1187 C1189 1.387 . S
H1188 C1195 0.950 . S
C1189 C1187 1.387 . S
C1189 C1191 1.390 . S
C1189 H1193 0.950 . S
H1190 C1186 0.950 . S
C1191 C1189 1.390 . S
C1191 C1192 1.387 . S
C1191 H1194 0.950 . S
C1192 C1191 1.387 . S
C1192 C1195 1.387 . S
H1193 C1189 0.950 . S
H1194 C1191 0.950 . S
C1195 C1186 1.390 . S
C1195 H1188 0.950 . S
C1195 C1192 1.387 . S
C1196 C1197 1.387 . S
C1196 H1200 0.950 . S
C1196 C1205 1.390 . S
C1197 C1196 1.387 . S
C1197 C1199 1.387 1_545 S
H1198 C1205 0.950 . S
C1199 C1197 1.387 1_565 S
C1199 C1201 1.390 1_565 S
C1199 H1203 0.950 . S
H1200 C1196 0.950 . S
C1201 C1199 1.390 1_545 S
C1201 C1202 1.387 . S
C1201 H1204 0.950 . S
C1202 C1201 1.387 . S
C1202 C1205 1.387 . S
H1203 C1199 0.950 . S
H1204 C1201 0.950 . S
C1205 C1196 1.390 . S
C1205 H1198 0.950 . S
C1205 C1202 1.387 . S
C1206 C1207 1.387 . S
C1206 H1210 0.950 . S
C1206 C1215 1.390 . S
C1207 C1206 1.387 . S
C1207 C1209 1.387 . S
H1208 C1215 0.950 . S
C1209 C1207 1.387 . S
C1209 C1211 1.390 . S
C1209 H1213 0.950 . S
H1210 C1206 0.950 . S
C1211 C1209 1.390 . S
C1211 C1212 1.387 . S
C1211 H1214 0.950 . S
C1212 C1211 1.387 . S
C1212 C1215 1.387 . S
H1213 C1209 0.950 . S
H1214 C1211 0.950 . S
C1215 C1206 1.390 . S
C1215 H1208 0.950 . S
C1215 C1212 1.387 . S
C1216 C1217 1.387 . S
C1216 H1220 0.950 1_554 S
C1216 C1225 1.390 1_565 S
C1217 C1216 1.387 . S
C1217 C1219 1.387 . S
H1218 C1225 0.950 1_556 S
C1219 C1217 1.387 . S
C1219 C1221 1.390 . S
C1219 H1223 0.950 . S
H1220 C1216 0.950 1_556 S
C1221 C1219 1.390 . S
C1221 C1222 1.387 . S
C1221 H1224 0.950 . S
C1222 C1221 1.387 . S
C1222 C1225 1.388 1_565 S
H1223 C1219 0.950 . S
H1224 C1221 0.950 . S
C1225 C1216 1.390 1_545 S
C1225 H1218 0.950 1_554 S
C1225 C1222 1.388 1_545 S
C1226 C1227 1.387 1_556 S
C1226 H1230 0.950 . S
C1226 C1235 1.390 . S
C1227 C1226 1.387 1_554 S
C1227 C1229 1.387 . S
H1228 C1235 0.950 . S
C1229 C1227 1.387 . S
C1229 C1231 1.390 . S
C1229 H1233 0.950 . S
H1230 C1226 0.950 . S
C1231 C1229 1.390 . S
C1231 C1232 1.387 . S
C1231 H1234 0.950 . S
C1232 C1231 1.387 . S
C1232 C1235 1.387 1_554 S
H1233 C1229 0.950 . S
H1234 C1231 0.950 . S
C1235 C1226 1.390 . S
C1235 H1228 0.950 . S
C1235 C1232 1.387 1_556 S
C1236 C1237 1.387 . S
C1236 H1240 0.950 . S
C1236 C1245 1.390 . S
C1237 C1236 1.387 . S
C1237 C1239 1.387 . S
H1238 C1245 0.950 . S
C1239 C1237 1.387 . S
C1239 C1241 1.390 . S
C1239 H1243 0.950 . S
H1240 C1236 0.950 . S
C1241 C1239 1.390 . S
C1241 C1242 1.387 . S
C1241 H1244 0.950 . S
C1242 C1241 1.387 . S
C1242 C1245 1.387 . S
H1243 C1239 0.950 . S
H1244 C1241 0.950 . S
C1245 C1236 1.390 . S
C1245 H1238 0.950 . S
C1245 C1242 1.387 . S
C1246 C1247 1.387 . S
C1246 H1250 0.950 . S
C1246 C1255 1.390 . S
C1247 C1246 1.387 . S
C1247 C1249 1.387 . S
H1248 C1255 0.950 . S
C1249 C1247 1.387 . S
C1249 C1251 1.390 . S
C1249 H1253 0.950 . S
H1250 C1246 0.950 . S
C1251 C1249 1.390 . S
C1251 C1252 1.387 . S
C1251 H1254 0.950 . S
C1252 C1251 1.387 . S
C1252 C1255 1.387 . S
H1253 C1249 0.950 . S
H1254 C1251 0.950 . S
C1255 C1246 1.390 . S
C1255 H1248 0.950 . S
C1255 C1252 1.387 . S
C1256 C1257 1.387 . S
C1256 H1260 0.950 1_565 S
C1256 C1265 1.390 . S
C1257 C1256 1.387 . S
C1257 C1259 1.387 . S
H1258 C1265 0.950 . S
C1259 C1257 1.387 . S
C1259 C1261 1.390 . S
C1259 H1263 0.950 . S
H1260 C1256 0.950 1_545 S
C1261 C1259 1.390 . S
C1261 C1262 1.387 . S
C1261 H1264 0.950 . S
C1262 C1261 1.387 . S
C1262 C1265 1.387 . S
H1263 C1259 0.950 . S
H1264 C1261 0.950 . S
C1265 C1256 1.390 . S
C1265 H1258 0.950 . S
C1265 C1262 1.387 . S
C1266 C1267 1.387 . S
C1266 H1270 0.950 . S
C1266 C1275 1.390 . S
C1267 C1266 1.387 . S
C1267 C1269 1.387 . S
H1268 C1275 0.950 . S
C1269 C1267 1.387 . S
C1269 C1271 1.390 . S
C1269 H1273 0.950 . S
H1270 C1266 0.950 . S
C1271 C1269 1.390 . S
C1271 C1272 1.387 . S
C1271 H1274 0.950 . S
C1272 C1271 1.387 . S
C1272 C1275 1.387 . S
H1273 C1269 0.950 . S
H1274 C1271 0.950 . S
C1275 C1266 1.390 . S
C1275 H1268 0.950 . S
C1275 C1272 1.387 . S
C1276 C1277 1.387 . S
C1276 H1280 0.950 . S
C1276 C1285 1.390 . S
C1277 C1276 1.387 . S
C1277 C1279 1.387 . S
H1278 C1285 0.950 . S
C1279 C1277 1.387 . S
C1279 C1281 1.390 . S
C1279 H1283 0.950 . S
H1280 C1276 0.950 . S
C1281 C1279 1.390 . S
C1281 C1282 1.387 . S
C1281 H1284 0.950 . S
C1282 C1281 1.387 . S
C1282 C1285 1.387 . S
H1283 C1279 0.950 . S
H1284 C1281 0.950 . S
C1285 C1276 1.390 . S
C1285 H1278 0.950 . S
C1285 C1282 1.387 . S
C1286 C1287 1.387 . S
C1286 H1290 0.950 . S
C1286 C1295 1.390 . S
C1287 C1286 1.387 . S
C1287 C1289 1.387 . S
H1288 C1295 0.950 . S
C1289 C1287 1.387 . S
C1289 C1291 1.390 . S
C1289 H1293 0.950 . S
H1290 C1286 0.950 . S
C1291 C1289 1.390 . S
C1291 C1292 1.387 . S
C1291 H1294 0.950 . S
C1292 C1291 1.387 . S
C1292 C1295 1.387 . S
H1293 C1289 0.950 . S
H1294 C1291 0.950 . S
C1295 C1286 1.390 . S
C1295 H1288 0.950 . S
C1295 C1292 1.387 . S
C1296 C1297 1.387 . S
C1296 H1300 0.950 . S
C1296 C1305 1.390 . S
C1297 C1296 1.387 . S
C1297 C1299 1.387 . S
H1298 C1305 0.950 . S
C1299 C1297 1.387 . S
C1299 C1301 1.390 . S
C1299 H1303 0.950 . S
H1300 C1296 0.950 . S
C1301 C1299 1.390 . S
C1301 C1302 1.387 . S
C1301 H1304 0.950 . S
C1302 C1301 1.387 . S
C1302 C1305 1.387 . S
H1303 C1299 0.950 . S
H1304 C1301 0.950 . S
C1305 C1296 1.390 . S
C1305 H1298 0.950 . S
C1305 C1302 1.387 . S
C1306 C1307 1.387 . S
C1306 H1310 0.950 . S
C1306 C1315 1.390 . S
C1307 C1306 1.387 . S
C1307 C1309 1.387 . S
H1308 C1315 0.950 . S
C1309 C1307 1.387 . S
C1309 C1311 1.390 . S
C1309 H1313 0.950 . S
H1310 C1306 0.950 . S
C1311 C1309 1.390 . S
C1311 C1312 1.387 . S
C1311 H1314 0.950 . S
C1312 C1311 1.387 . S
C1312 C1315 1.387 . S
H1313 C1309 0.950 . S
H1314 C1311 0.950 . S
C1315 C1306 1.390 . S
C1315 H1308 0.950 . S
C1315 C1312 1.387 . S
C1316 C1317 1.387 . S
C1316 H1320 0.950 . S
C1316 C1325 1.390 . S
C1317 C1316 1.387 . S
C1317 C1319 1.387 . S
H1318 C1325 0.950 . S
C1319 C1317 1.387 . S
C1319 C1321 1.390 . S
C1319 H1323 0.950 . S
H1320 C1316 0.950 . S
C1321 C1319 1.390 . S
C1321 C1322 1.387 . S
C1321 H1324 0.950 . S
C1322 C1321 1.387 . S
C1322 C1325 1.387 . S
H1323 C1319 0.950 . S
H1324 C1321 0.950 . S
C1325 C1316 1.390 . S
C1325 H1318 0.950 . S
C1325 C1322 1.387 . S
C1326 C1327 1.387 . S
C1326 H1330 0.950 . S
C1326 C1335 1.390 . S
C1327 C1326 1.387 . S
C1327 C1329 1.387 . S
H1328 C1335 0.950 . S
C1329 C1327 1.387 . S
C1329 C1331 1.390 . S
C1329 H1333 0.950 . S
H1330 C1326 0.950 . S
C1331 C1329 1.390 . S
C1331 C1332 1.387 . S
C1331 H1334 0.950 . S
C1332 C1331 1.387 . S
C1332 C1335 1.387 . S
H1333 C1329 0.950 . S
H1334 C1331 0.950 . S
C1335 C1326 1.390 . S
C1335 H1328 0.950 . S
C1335 C1332 1.387 . S
C1336 C1337 1.387 . S
C1336 H1340 0.950 . S
C1336 C1345 1.390 . S
C1337 C1336 1.387 . S
C1337 C1339 1.387 . S
H1338 C1345 0.950 . S
C1339 C1337 1.387 . S
C1339 C1341 1.390 . S
C1339 H1343 0.950 . S
H1340 C1336 0.950 . S
C1341 C1339 1.390 . S
C1341 C1342 1.387 . S
C1341 H1344 0.950 . S
C1342 C1341 1.387 . S
C1342 C1345 1.387 . S
H1343 C1339 0.950 . S
H1344 C1341 0.950 . S
C1345 C1336 1.390 . S
C1345 H1338 0.950 . S
C1345 C1342 1.387 . S
C1346 C1347 1.387 . S
C1346 H1350 0.950 . S
C1346 C1355 1.390 . S
C1347 C1346 1.387 . S
C1347 C1349 1.387 . S
H1348 C1355 0.950 . S
C1349 C1347 1.387 . S
C1349 C1351 1.390 . S
C1349 H1353 0.950 . S
H1350 C1346 0.950 . S
C1351 C1349 1.390 . S
C1351 C1352 1.387 . S
C1351 H1354 0.950 . S
C1352 C1351 1.387 . S
C1352 C1355 1.387 . S
H1353 C1349 0.950 . S
H1354 C1351 0.950 . S
C1355 C1346 1.390 . S
C1355 H1348 0.950 . S
C1355 C1352 1.387 . S
C1356 C1357 1.387 . S
C1356 H1360 0.950 . S
C1356 C1365 1.390 . S
C1357 C1356 1.387 . S
C1357 C1359 1.387 . S
H1358 C1365 0.950 . S
C1359 C1357 1.387 . S
C1359 C1361 1.390 . S
C1359 H1363 0.950 . S
H1360 C1356 0.950 . S
C1361 C1359 1.390 . S
C1361 C1362 1.387 . S
C1361 H1364 0.950 . S
C1362 C1361 1.387 . S
C1362 C1365 1.387 . S
H1363 C1359 0.950 . S
H1364 C1361 0.950 . S
C1365 C1356 1.390 . S
C1365 H1358 0.950 . S
C1365 C1362 1.387 . S
C1366 C1367 1.387 . S
C1366 H1370 0.950 . S
C1366 C1375 1.390 . S
C1367 C1366 1.387 . S
C1367 C1369 1.387 . S
H1368 C1375 0.950 . S
C1369 C1367 1.387 . S
C1369 C1371 1.390 . S
C1369 H1373 0.950 . S
H1370 C1366 0.950 . S
C1371 C1369 1.390 . S
C1371 C1372 1.387 . S
C1371 H1374 0.950 . S
C1372 C1371 1.387 . S
C1372 C1375 1.387 . S
H1373 C1369 0.950 . S
H1374 C1371 0.950 . S
C1375 C1366 1.390 . S
C1375 H1368 0.950 . S
C1375 C1372 1.387 . S
C1376 C1377 1.387 . S
C1376 H1380 0.950 . S
C1376 C1385 1.390 . S
C1377 C1376 1.387 . S
C1377 C1379 1.387 . S
H1378 C1385 0.950 . S
C1379 C1377 1.387 . S
C1379 C1381 1.390 . S
C1379 H1383 0.950 . S
H1380 C1376 0.950 . S
C1381 C1379 1.390 . S
C1381 C1382 1.387 . S
C1381 H1384 0.950 . S
C1382 C1381 1.387 . S
C1382 C1385 1.387 . S
H1383 C1379 0.950 . S
H1384 C1381 0.950 . S
C1385 C1376 1.390 . S
C1385 H1378 0.950 . S
C1385 C1382 1.387 . S
C1386 C1387 1.387 . S
C1386 H1390 0.950 . S
C1386 C1395 1.390 . S
C1387 C1386 1.387 . S
C1387 C1389 1.387 . S
H1388 C1395 0.950 . S
C1389 C1387 1.387 . S
C1389 C1391 1.390 . S
C1389 H1393 0.950 . S
H1390 C1386 0.950 . S
C1391 C1389 1.390 . S
C1391 C1392 1.387 . S
C1391 H1394 0.950 . S
C1392 C1391 1.387 . S
C1392 C1395 1.387 . S
H1393 C1389 0.950 . S
H1394 C1391 0.950 . S
C1395 C1386 1.390 . S
C1395 H1388 0.950 . S
C1395 C1392 1.387 . S
C1396 C1397 1.387 . S
C1396 H1400 0.950 . S
C1396 C1405 1.390 . S
C1397 C1396 1.387 . S
C1397 C1399 1.387 . S
H1398 C1405 0.950 . S
C1399 C1397 1.387 . S
C1399 C1401 1.390 . S
C1399 H1403 0.950 . S
H1400 C1396 0.950 . S
C1401 C1399 1.390 . S
C1401 C1402 1.387 . S
C1401 H1404 0.950 . S
C1402 C1401 1.387 . S
C1402 C1405 1.387 . S
H1403 C1399 0.950 . S
H1404 C1401 0.950 . S
C1405 C1396 1.390 . S
C1405 H1398 0.950 . S
C1405 C1402 1.387 . S
C1406 C1407 1.387 . S
C1406 H1410 0.950 . S
C1406 C1415 1.390 . S
C1407 C1406 1.387 . S
C1407 C1409 1.387 . S
H1408 C1415 0.950 . S
C1409 C1407 1.387 . S
C1409 C1411 1.390 . S
C1409 H1413 0.950 . S
H1410 C1406 0.950 . S
C1411 C1409 1.390 . S
C1411 C1412 1.387 . S
C1411 H1414 0.950 . S
C1412 C1411 1.387 . S
C1412 C1415 1.387 . S
H1413 C1409 0.950 . S
H1414 C1411 0.950 . S
C1415 C1406 1.390 . S
C1415 H1408 0.950 . S
C1415 C1412 1.387 . S
C1416 C1417 1.387 . S
C1416 H1420 0.950 . S
C1416 C1425 1.390 . S
C1417 C1416 1.387 . S
C1417 C1419 1.387 . S
H1418 C1425 0.950 . S
C1419 C1417 1.387 . S
C1419 C1421 1.390 . S
C1419 H1423 0.950 . S
H1420 C1416 0.950 . S
C1421 C1419 1.390 . S
C1421 C1422 1.387 . S
C1421 H1424 0.950 . S
C1422 C1421 1.387 . S
C1422 C1425 1.387 . S
H1423 C1419 0.950 . S
H1424 C1421 0.950 . S
C1425 C1416 1.390 . S
C1425 H1418 0.950 . S
C1425 C1422 1.387 . S
C1426 C1427 1.387 . S
C1426 H1430 0.950 . S
C1426 C1435 1.390 . S
C1427 C1426 1.387 . S
C1427 C1429 1.387 . S
H1428 C1435 0.950 . S
C1429 C1427 1.387 . S
C1429 C1431 1.390 . S
C1429 H1433 0.950 . S
H1430 C1426 0.950 . S
C1431 C1429 1.390 . S
C1431 C1432 1.387 . S
C1431 H1434 0.950 . S
C1432 C1431 1.387 . S
C1432 C1435 1.387 . S
H1433 C1429 0.950 . S
H1434 C1431 0.950 . S
C1435 C1426 1.390 . S
C1435 H1428 0.950 . S
C1435 C1432 1.387 . S
C1436 C1437 1.387 . S
C1436 H1440 0.950 . S
C1436 C1445 1.390 . S
C1437 C1436 1.387 . S
C1437 C1439 1.387 . S
H1438 C1445 0.950 . S
C1439 C1437 1.387 . S
C1439 C1441 1.390 . S
C1439 H1443 0.950 . S
H1440 C1436 0.950 . S
C1441 C1439 1.390 . S
C1441 C1442 1.387 . S
C1441 H1444 0.950 . S
C1442 C1441 1.387 . S
C1442 C1445 1.387 . S
H1443 C1439 0.950 . S
H1444 C1441 0.950 . S
C1445 C1436 1.390 . S
C1445 H1438 0.950 . S
C1445 C1442 1.387 . S
C1446 C1447 1.387 . S
C1446 H1450 0.950 . S
C1446 C1455 1.390 . S
C1447 C1446 1.387 . S
C1447 C1449 1.387 . S
H1448 C1455 0.950 . S
C1449 C1447 1.387 . S
C1449 C1451 1.390 . S
C1449 H1453 0.950 . S
H1450 C1446 0.950 . S
C1451 C1449 1.390 . S
C1451 C1452 1.387 . S
C1451 H1454 0.950 . S
C1452 C1451 1.387 . S
C1452 C1455 1.387 . S
H1453 C1449 0.950 . S
H1454 C1451 0.950 . S
C1455 C1446 1.390 . S
C1455 H1448 0.950 . S
C1455 C1452 1.387 . S
C1456 C1457 1.387 . S
C1456 H1460 0.950 . S
C1456 C1465 1.390 . S
C1457 C1456 1.387 . S
C1457 C1459 1.387 . S
H1458 C1465 0.950 . S
C1459 C1457 1.387 . S
C1459 C1461 1.390 . S
C1459 H1463 0.950 . S
H1460 C1456 0.950 . S
C1461 C1459 1.390 . S
C1461 C1462 1.387 . S
C1461 H1464 0.950 . S
C1462 C1461 1.387 . S
C1462 C1465 1.387 . S
H1463 C1459 0.950 . S
H1464 C1461 0.950 . S
C1465 C1456 1.390 . S
C1465 H1458 0.950 . S
C1465 C1462 1.387 . S
C1466 C1467 1.387 . S
C1466 H1470 0.950 . S
C1466 C1475 1.390 . S
C1467 C1466 1.387 . S
C1467 C1469 1.387 . S
H1468 C1475 0.950 1_545 S
C1469 C1467 1.387 . S
C1469 C1471 1.390 . S
C1469 H1473 0.950 . S
H1470 C1466 0.950 . S
C1471 C1469 1.390 . S
C1471 C1472 1.397 . S
C1471 H1474 0.950 . S
C1472 C1471 1.397 . S
C1472 C1475 1.389 . S
H1473 C1469 0.950 . S
H1474 C1471 0.950 . S
C1475 C1466 1.390 . S
C1475 H1468 0.950 1_565 S
C1475 C1472 1.389 . S
C1476 C1477 1.387 . S
C1476 H1480 0.950 . S
C1476 C1485 1.390 . S
C1477 C1476 1.387 . S
C1477 C1479 1.387 . S
H1478 C1485 0.950 . S
C1479 C1477 1.387 . S
C1479 C1481 1.390 . S
C1479 H1483 0.950 1_565 S
H1480 C1476 0.950 . S
C1481 C1479 1.390 . S
C1481 C1482 1.387 . S
C1481 H1484 0.950 . S
C1482 C1481 1.387 . S
C1482 C1485 1.387 . S
H1483 C1479 0.950 1_545 S
H1484 C1481 0.950 . S
C1485 C1476 1.390 . S
C1485 H1478 0.950 . S
C1485 C1482 1.387 . S
C1486 C1487 1.387 . S
C1486 H1490 0.950 1_554 S
C1486 C1495 1.390 . S
C1487 C1486 1.387 . S
C1487 C1489 1.387 . S
H1488 C1495 0.950 . S
C1489 C1487 1.387 . S
C1489 C1491 1.390 . S
C1489 H1493 0.950 . S
H1490 C1486 0.950 1_556 S
C1491 C1489 1.390 . S
C1491 C1492 1.387 . S
C1491 H1494 0.950 . S
C1492 C1491 1.387 . S
C1492 C1495 1.387 . S
H1493 C1489 0.950 . S
H1494 C1491 0.950 . S
C1495 C1486 1.390 . S
C1495 H1488 0.950 . S
C1495 C1492 1.387 . S
C1496 C1497 1.387 . S
C1496 H1500 0.950 . S
C1496 C1505 1.390 . S
C1497 C1496 1.387 . S
C1497 C1499 1.387 . S
H1498 C1505 0.950 . S
C1499 C1497 1.387 . S
C1499 C1501 1.390 . S
C1499 H1503 0.950 . S
H1500 C1496 0.950 . S
C1501 C1499 1.390 . S
C1501 C1502 1.387 . S
C1501 H1504 0.950 . S
C1502 C1501 1.387 . S
C1502 C1505 1.387 . S
H1503 C1499 0.950 . S
H1504 C1501 0.950 . S
C1505 C1496 1.390 . S
C1505 H1498 0.950 . S
C1505 C1502 1.387 . S
C1506 C1507 1.387 . S
C1506 H1510 0.950 . S
C1506 C1515 1.390 . S
C1507 C1506 1.387 . S
C1507 C1509 1.387 . S
H1508 C1515 0.950 . S
C1509 C1507 1.387 . S
C1509 C1511 1.390 . S
C1509 H1513 0.950 . S
H1510 C1506 0.950 . S
C1511 C1509 1.390 . S
C1511 C1512 1.387 . S
C1511 H1514 0.950 1_554 S
C1512 C1511 1.387 . S
C1512 C1515 1.387 . S
H1513 C1509 0.950 . S
H1514 C1511 0.950 1_556 S
C1515 C1506 1.390 . S
C1515 H1508 0.950 . S
C1515 C1512 1.387 . S
C1516 C1517 1.387 . S
C1516 H1520 0.950 . S
C1516 C1525 1.390 . S
C1517 C1516 1.387 . S
C1517 C1519 1.387 . S
H1518 C1525 0.950 . S
C1519 C1517 1.387 . S
C1519 C1521 1.390 . S
C1519 H1523 0.950 . S
H1520 C1516 0.950 . S
C1521 C1519 1.390 . S
C1521 C1522 1.387 . S
C1521 H1524 0.950 . S
C1522 C1521 1.387 . S
C1522 C1525 1.387 . S
H1523 C1519 0.950 . S
H1524 C1521 0.950 . S
C1525 C1516 1.390 . S
C1525 H1518 0.950 . S
C1525 C1522 1.387 . S
C1526 C1527 1.387 . S
C1526 H1530 0.950 . S
C1526 C1535 1.390 . S
C1527 C1526 1.387 . S
C1527 C1529 1.387 . S
H1528 C1535 0.950 . S
C1529 C1527 1.387 . S
C1529 C1531 1.390 . S
C1529 H1533 0.950 . S
H1530 C1526 0.950 . S
C1531 C1529 1.390 . S
C1531 C1532 1.387 . S
C1531 H1534 0.950 . S
C1532 C1531 1.387 . S
C1532 C1535 1.387 . S
H1533 C1529 0.950 . S
H1534 C1531 0.950 . S
C1535 C1526 1.390 . S
C1535 H1528 0.950 . S
C1535 C1532 1.387 . S
C1536 C1537 1.387 . S
C1536 H1540 0.950 . S
C1536 C1545 1.390 . S
C1537 C1536 1.387 . S
C1537 C1539 1.387 . S
H1538 C1545 0.950 . S
C1539 C1537 1.387 . S
C1539 C1541 1.390 . S
C1539 H1543 0.950 . S
H1540 C1536 0.950 . S
C1541 C1539 1.390 . S
C1541 C1542 1.387 . S
C1541 H1544 0.950 . S
C1542 C1541 1.387 . S
C1542 C1545 1.387 . S
H1543 C1539 0.950 . S
H1544 C1541 0.950 . S
C1545 C1536 1.390 . S
C1545 H1538 0.950 . S
C1545 C1542 1.387 . S
C1546 C1547 1.387 . S
C1546 H1550 0.950 . S
C1546 C1555 1.390 . S
C1547 C1546 1.387 . S
C1547 C1549 1.387 . S
H1548 C1555 0.950 . S
C1549 C1547 1.387 . S
C1549 C1551 1.390 . S
C1549 H1553 0.950 . S
H1550 C1546 0.950 . S
C1551 C1549 1.390 . S
C1551 C1552 1.387 . S
C1551 H1554 0.950 . S
C1552 C1551 1.387 . S
C1552 C1555 1.387 . S
H1553 C1549 0.950 . S
H1554 C1551 0.950 . S
C1555 C1546 1.390 . S
C1555 H1548 0.950 . S
C1555 C1552 1.387 . S
C1556 C1557 1.387 . S
C1556 H1560 0.950 1_556 S
C1556 C1565 1.390 1_556 S
C1557 C1556 1.387 . S
C1557 C1559 1.387 . S
H1558 C1565 0.950 . S
C1559 C1557 1.387 . S
C1559 C1561 1.390 . S
C1559 H1563 0.950 . S
H1560 C1556 0.950 1_554 S
C1561 C1559 1.390 . S
C1561 C1562 1.387 . S
C1561 H1564 0.950 . S
C1562 C1561 1.387 . S
C1562 C1565 1.387 1_556 S
H1563 C1559 0.950 . S
H1564 C1561 0.950 . S
C1565 C1556 1.390 1_554 S
C1565 H1558 0.950 . S
C1565 C1562 1.387 1_554 S
C1566 C1567 1.387 . S
C1566 H1570 0.950 . S
C1566 C1575 1.390 . S
C1567 C1566 1.387 . S
C1567 C1569 1.387 . S
H1568 C1575 0.950 . S
C1569 C1567 1.387 . S
C1569 C1571 1.390 . S
C1569 H1573 0.950 . S
H1570 C1566 0.950 . S
C1571 C1569 1.390 . S
C1571 C1572 1.387 . S
C1571 H1574 0.950 . S
C1572 C1571 1.387 . S
C1572 C1575 1.387 . S
H1573 C1569 0.950 . S
H1574 C1571 0.950 . S
C1575 C1566 1.390 . S
C1575 H1568 0.950 . S
C1575 C1572 1.387 . S
C1576 C1577 1.387 . S
C1576 H1580 0.950 . S
C1576 C1585 1.390 . S
C1577 C1576 1.387 . S
C1577 C1579 1.387 . S
H1578 C1585 0.950 . S
C1579 C1577 1.387 . S
C1579 C1581 1.390 . S
C1579 H1583 0.950 . S
H1580 C1576 0.950 . S
C1581 C1579 1.390 . S
C1581 C1582 1.387 . S
C1581 H1584 0.950 . S
C1582 C1581 1.387 . S
C1582 C1585 1.387 . S
H1583 C1579 0.950 . S
H1584 C1581 0.950 . S
C1585 C1576 1.390 . S
C1585 H1578 0.950 . S
C1585 C1582 1.387 . S
C1586 C1587 1.387 . S
C1586 H1590 0.950 . S
C1586 C1595 1.390 . S
C1587 C1586 1.387 . S
C1587 C1589 1.387 . S
H1588 C1595 0.950 . S
C1589 C1587 1.387 . S
C1589 C1591 1.390 . S
C1589 H1593 0.950 . S
H1590 C1586 0.950 . S
C1591 C1589 1.390 . S
C1591 C1592 1.387 . S
C1591 H1594 0.950 . S
C1592 C1591 1.387 . S
C1592 C1595 1.387 . S
H1593 C1589 0.950 . S
H1594 C1591 0.950 . S
C1595 C1586 1.390 . S
C1595 H1588 0.950 . S
C1595 C1592 1.387 . S
C1596 C1597 1.387 1_655 S
C1596 H1600 0.950 . S
C1596 C1605 1.390 . S
C1597 C1596 1.387 1_455 S
C1597 C1599 1.387 . S
H1598 C1605 0.950 . S
C1599 C1597 1.387 . S
C1599 C1601 1.390 . S
C1599 H1603 0.950 . S
H1600 C1596 0.950 . S
C1601 C1599 1.390 . S
C1601 C1602 1.387 . S
C1601 H1604 0.950 . S
C1602 C1601 1.387 . S
C1602 C1605 1.387 1_455 S
H1603 C1599 0.950 . S
H1604 C1601 0.950 . S
C1605 C1596 1.390 . S
C1605 H1598 0.950 . S
C1605 C1602 1.387 1_655 S
C1606 C1607 1.387 . S
C1606 H1610 0.950 . S
C1606 C1615 1.390 . S
C1607 C1606 1.387 . S
C1607 C1609 1.387 . S
H1608 C1615 0.950 . S
C1609 C1607 1.387 . S
C1609 C1611 1.390 . S
C1609 H1613 0.950 . S
H1610 C1606 0.950 . S
C1611 C1609 1.390 . S
C1611 C1612 1.387 . S
C1611 H1614 0.950 . S
C1612 C1611 1.387 . S
C1612 C1615 1.387 . S
H1613 C1609 0.950 . S
H1614 C1611 0.950 . S
C1615 C1606 1.390 . S
C1615 H1608 0.950 . S
C1615 C1612 1.387 . S
C1616 C1617 1.387 . S
C1616 H1620 0.950 . S
C1616 C1625 1.390 . S
C1617 C1616 1.387 . S
C1617 C1619 1.387 . S
H1618 C1625 0.950 . S
C1619 C1617 1.387 . S
C1619 C1621 1.390 . S
C1619 H1623 0.950 . S
H1620 C1616 0.950 . S
C1621 C1619 1.390 . S
C1621 C1622 1.387 . S
C1621 H1624 0.950 . S
C1622 C1621 1.387 . S
C1622 C1625 1.387 . S
H1623 C1619 0.950 . S
H1624 C1621 0.950 . S
C1625 C1616 1.390 . S
C1625 H1618 0.950 . S
C1625 C1622 1.387 . S
C1626 C1627 1.387 . S
C1626 H1630 0.950 . S
C1626 C1635 1.390 . S
C1627 C1626 1.387 . S
C1627 C1629 1.387 . S
H1628 C1635 0.950 . S
C1629 C1627 1.387 . S
C1629 C1631 1.390 . S
C1629 H1633 0.950 . S
H1630 C1626 0.950 . S
C1631 C1629 1.390 . S
C1631 C1632 1.387 . S
C1631 H1634 0.950 . S
C1632 C1631 1.387 . S
C1632 C1635 1.387 . S
H1633 C1629 0.950 . S
H1634 C1631 0.950 . S
C1635 C1626 1.390 . S
C1635 H1628 0.950 . S
C1635 C1632 1.387 . S
C1636 C1637 1.387 . S
C1636 H1640 0.950 . S
C1636 C1645 1.390 . S
C1637 C1636 1.387 . S
C1637 C1639 1.387 . S
H1638 C1645 0.950 . S
C1639 C1637 1.387 . S
C1639 C1641 1.390 . S
C1639 H1643 0.950 . S
H1640 C1636 0.950 . S
C1641 C1639 1.390 . S
C1641 C1642 1.387 . S
C1641 H1644 0.950 . S
C1642 C1641 1.387 . S
C1642 C1645 1.387 . S
H1643 C1639 0.950 . S
H1644 C1641 0.950 . S
C1645 C1636 1.390 . S
C1645 H1638 0.950 . S
C1645 C1642 1.387 . S
C1646 C1647 1.387 . S
C1646 H1650 0.950 . S
C1646 C1655 1.390 . S
C1647 C1646 1.387 . S
C1647 C1649 1.387 . S
H1648 C1655 0.950 . S
C1649 C1647 1.387 . S
C1649 C1651 1.390 . S
C1649 H1653 0.950 . S
H1650 C1646 0.950 . S
C1651 C1649 1.390 . S
C1651 C1652 1.387 . S
C1651 H1654 0.950 . S
C1652 C1651 1.387 . S
C1652 C1655 1.387 . S
H1653 C1649 0.950 . S
H1654 C1651 0.950 . S
C1655 C1646 1.390 . S
C1655 H1648 0.950 . S
C1655 C1652 1.387 . S
C1656 C1657 1.387 . S
C1656 H1660 0.950 . S
C1656 C1665 1.390 . S
C1657 C1656 1.387 . S
C1657 C1659 1.387 . S
H1658 C1665 0.950 . S
C1659 C1657 1.387 . S
C1659 C1661 1.390 . S
C1659 H1663 0.950 . S
H1660 C1656 0.950 . S
C1661 C1659 1.390 . S
C1661 C1662 1.387 . S
C1661 H1664 0.950 . S
C1662 C1661 1.387 . S
C1662 C1665 1.387 . S
H1663 C1659 0.950 . S
H1664 C1661 0.950 . S
C1665 C1656 1.390 . S
C1665 H1658 0.950 . S
C1665 C1662 1.387 . S
C1666 C1667 1.387 . S
C1666 H1670 0.950 . S
C1666 C1675 1.390 . S
C1667 C1666 1.387 . S
C1667 C1669 1.387 . S
H1668 C1675 0.950 . S
C1669 C1667 1.387 . S
C1669 C1671 1.390 . S
C1669 H1673 0.950 . S
H1670 C1666 0.950 . S
C1671 C1669 1.390 . S
C1671 C1672 1.387 . S
C1671 H1674 0.950 . S
C1672 C1671 1.387 . S
C1672 C1675 1.387 . S
H1673 C1669 0.950 . S
H1674 C1671 0.950 . S
C1675 C1666 1.390 . S
C1675 H1668 0.950 . S
C1675 C1672 1.387 . S
C1676 C1677 1.387 . S
C1676 H1680 0.950 . S
C1676 C1685 1.390 . S
C1677 C1676 1.387 . S
C1677 C1679 1.387 . S
H1678 C1685 0.950 . S
C1679 C1677 1.387 . S
C1679 C1681 1.390 . S
C1679 H1683 0.950 . S
H1680 C1676 0.950 . S
C1681 C1679 1.390 . S
C1681 C1682 1.387 . S
C1681 H1684 0.950 . S
C1682 C1681 1.387 . S
C1682 C1685 1.387 . S
H1683 C1679 0.950 . S
H1684 C1681 0.950 . S
C1685 C1676 1.390 . S
C1685 H1678 0.950 . S
C1685 C1682 1.387 . S
C1686 C1687 1.387 . S
C1686 H1690 0.950 . S
C1686 C1695 1.390 . S
C1687 C1686 1.387 . S
C1687 C1689 1.387 . S
H1688 C1695 0.950 . S
C1689 C1687 1.387 . S
C1689 C1691 1.390 . S
C1689 H1693 0.950 . S
H1690 C1686 0.950 . S
C1691 C1689 1.390 . S
C1691 C1692 1.387 . S
C1691 H1694 0.950 . S
C1692 C1691 1.387 . S
C1692 C1695 1.387 . S
H1693 C1689 0.950 . S
H1694 C1691 0.950 . S
C1695 C1686 1.390 . S
C1695 H1688 0.950 . S
C1695 C1692 1.387 . S
C1696 C1697 1.387 . S
C1696 H1700 0.950 . S
C1696 C1705 1.390 . S
C1697 C1696 1.387 . S
C1697 C1699 1.387 . S
H1698 C1705 0.950 . S
C1699 C1697 1.387 . S
C1699 C1701 1.390 . S
C1699 H1703 0.950 . S
H1700 C1696 0.950 . S
C1701 C1699 1.390 . S
C1701 C1702 1.387 . S
C1701 H1704 0.950 . S
C1702 C1701 1.387 . S
C1702 C1705 1.387 . S
H1703 C1699 0.950 . S
H1704 C1701 0.950 . S
C1705 C1696 1.390 . S
C1705 H1698 0.950 . S
C1705 C1702 1.387 . S
C1706 C1707 1.387 . S
C1706 H1710 0.950 . S
C1706 C1715 1.390 . S
C1707 C1706 1.387 . S
C1707 C1709 1.387 . S
H1708 C1715 0.950 . S
C1709 C1707 1.387 . S
C1709 C1711 1.390 . S
C1709 H1713 0.950 . S
H1710 C1706 0.950 . S
C1711 C1709 1.390 . S
C1711 C1712 1.387 . S
C1711 H1714 0.950 . S
C1712 C1711 1.387 . S
C1712 C1715 1.387 . S
H1713 C1709 0.950 . S
H1714 C1711 0.950 . S
C1715 C1706 1.390 . S
C1715 H1708 0.950 . S
C1715 C1712 1.387 . S
C1716 C1717 1.387 . S
C1716 H1720 0.950 . S
C1716 C1725 1.390 . S
C1717 C1716 1.387 . S
C1717 C1719 1.387 . S
H1718 C1725 0.950 . S
C1719 C1717 1.387 . S
C1719 C1721 1.390 . S
C1719 H1723 0.950 . S
H1720 C1716 0.950 . S
C1721 C1719 1.390 . S
C1721 C1722 1.387 . S
C1721 H1724 0.950 . S
C1722 C1721 1.387 . S
C1722 C1725 1.387 . S
H1723 C1719 0.950 . S
H1724 C1721 0.950 . S
C1725 C1716 1.390 . S
C1725 H1718 0.950 . S
C1725 C1722 1.387 . S
C1726 C1727 1.387 . S
C1726 H1730 0.950 . S
C1726 C1735 1.390 . S
C1727 C1726 1.387 . S
C1727 C1729 1.387 1_554 S
H1728 C1735 0.950 . S
C1729 C1727 1.387 1_556 S
C1729 C1731 1.390 . S
C1729 H1733 0.950 . S
H1730 C1726 0.950 . S
C1731 C1729 1.390 . S
C1731 C1732 1.387 1_556 S
C1731 H1734 0.950 . S
C1732 C1731 1.387 1_554 S
C1732 C1735 1.387 . S
H1733 C1729 0.950 . S
H1734 C1731 0.950 . S
C1735 C1726 1.390 . S
C1735 H1728 0.950 . S
C1735 C1732 1.387 . S
C1736 C1737 1.387 . S
C1736 H1740 0.950 . S
C1736 C1745 1.390 . S
C1737 C1736 1.387 . S
C1737 C1739 1.387 . S
H1738 C1745 0.950 . S
C1739 C1737 1.387 . S
C1739 C1741 1.390 . S
C1739 H1743 0.950 . S
H1740 C1736 0.950 . S
C1741 C1739 1.390 . S
C1741 C1742 1.387 . S
C1741 H1744 0.950 . S
C1742 C1741 1.387 . S
C1742 C1745 1.387 . S
H1743 C1739 0.950 . S
H1744 C1741 0.950 . S
C1745 C1736 1.390 . S
C1745 H1738 0.950 . S
C1745 C1742 1.387 . S
C1746 C1747 1.387 1_556 S
C1746 H1750 0.950 . S
C1746 C1755 1.390 1_556 S
C1747 C1746 1.387 1_554 S
C1747 C1749 1.387 . S
H1748 C1755 0.950 1_556 S
C1749 C1747 1.387 . S
C1749 C1751 1.390 . S
C1749 H1753 0.950 . S
H1750 C1746 0.950 . S
C1751 C1749 1.390 . S
C1751 C1752 1.387 . S
C1751 H1754 0.950 . S
C1752 C1751 1.387 . S
C1752 C1755 1.387 . S
H1753 C1749 0.950 . S
H1754 C1751 0.950 . S
C1755 C1746 1.390 1_554 S
C1755 H1748 0.950 1_554 S
C1755 C1752 1.387 . S
C1756 C1757 1.387 . S
C1756 H1760 0.950 . S
C1756 C1765 1.390 . S
C1757 C1756 1.387 . S
C1757 C1759 1.387 . S
H1758 C1765 0.950 . S
C1759 C1757 1.387 . S
C1759 C1761 1.390 . S
C1759 H1763 0.950 . S
H1760 C1756 0.950 . S
C1761 C1759 1.390 . S
C1761 C1762 1.387 . S
C1761 H1764 0.950 . S
C1762 C1761 1.387 . S
C1762 C1765 1.387 . S
H1763 C1759 0.950 . S
H1764 C1761 0.950 . S
C1765 C1756 1.390 . S
C1765 H1758 0.950 . S
C1765 C1762 1.387 . S
C1766 C1767 1.387 . S
C1766 H1770 0.950 . S
C1766 C1775 1.390 . S
C1767 C1766 1.387 . S
C1767 C1769 1.387 . S
H1768 C1775 0.950 . S
C1769 C1767 1.387 . S
C1769 C1771 1.390 . S
C1769 H1773 0.950 . S
H1770 C1766 0.950 . S
C1771 C1769 1.390 . S
C1771 C1772 1.387 . S
C1771 H1774 0.950 . S
C1772 C1771 1.387 . S
C1772 C1775 1.387 . S
H1773 C1769 0.950 . S
H1774 C1771 0.950 . S
C1775 C1766 1.390 . S
C1775 H1768 0.950 . S
C1775 C1772 1.387 . S
C822 C337 1.878 . S
C817 C5 1.920 . S
C827 C23 1.118 . S
C832 C382 1.107 . S
C837 C39 1.755 . S
C842 C406 1.724 . S
C852 N432 1.230 . S
C847 C42 1.176 . S
C857 C19 1.328 . S
C862 N462 1.358 . S
C872 C496 1.660 . S
C867 C28 1.681 . S
C882 C532 1.241 1_556 S
C877 C53 1.238 . S
C887 C9 1.871 . S
C892 C556 1.836 . S
C897 C65 1.112 . S
C902 N350 1.113 1_545 S
C907 C75 1.328 . S
C912 N372 1.361 . S
C922 C412 1.176 . S
C917 C93 1.187 . S
C932 C436 1.774 . S
C927 C109 1.805 . S
C937 C56 1.292 . S
C942 C466 1.280 . S
C952 C502 1.188 . S
C947 C81 1.177 . S
C962 N522 1.284 . S
C957 C84 1.230 . S
C972 C562 1.815 . S
C967 C103 1.844 . S
C982 C363 1.766 . S
C977 C107 1.791 . S
C992 C592 1.132 . S
C987 C121 1.143 . S
C997 C131 1.312 . S
C1002 N612 1.342 . S
C1012 C646 1.677 . S
C1007 C140 1.699 . S
C1017 C61 1.083 . S
C1022 N552 1.083 . S
C1032 N402 1.235 1_565 S
C1027 C70 1.179 . S
C1037 C137 1.154 . S
C1042 C682 1.155 . S
C1052 C706 1.121 . S
C1047 C165 1.150 . S
C1057 C173 1.901 . S
C1062 C346 1.858 1_556 S
C1072 C723 1.069 . S
C1067 C182 1.063 . S
C1077 C207 1.742 . S
C1082 C397 1.702 . S
C1087 C219 1.214 . S
C1092 N680 1.226 . S
C1102 N470 1.333 . S
C1097 C187 1.300 . S
C1112 C607 1.650 . S
C1107 C205 1.689 . S
C1122 C543 1.217 . S
C1117 C221 1.210 . S
C1132 C727 1.811 . S
C1127 C168 1.848 . S
C1142 N342 1.096 . S
C1137 C224 1.096 . S
C1147 C243 1.308 . S
C1152 N710 1.343 . S
C1162 C423 1.127 . S
C1157 C252 1.124 . S
C1167 C277 1.783 . S
C1172 C667 1.747 . S
C1177 C233 1.339 . S
C1182 C457 1.284 1_655 S
C1187 C249 1.155 . S
C1192 C633 1.170 . S
C1202 N530 1.275 . S
C1197 C261 1.263 . S
C1207 C271 1.828 . S
C1212 C753 1.798 . S
C1217 C266 1.773 . S
C1222 C352 1.742 1_565 S
C1227 C280 1.083 . S
C1232 C603 1.097 . S
C1237 C299 1.277 . S
C1242 N500 1.308 . S
C1247 C317 1.695 . S
C1252 C637 1.655 . S
C1262 N740 1.073 . S
C1257 C229 1.073 1_565 S
C1272 N410 1.244 . S
C1267 C247 1.231 . S
C1282 C453 1.128 . S
C1277 C305 1.126 . S
C1292 C367 1.124 . S
C1287 C333 1.165 . S
C1297 C33 1.920 . S
C1302 C757 1.877 . S
C1312 C712 1.107 . S
C1307 C51 1.118 . S
C1322 C796 1.722 . S
C1317 C11 1.755 . S
C1327 C14 1.176 1_655 S
C1332 N672 1.230 . S
C1337 C47 1.326 . S
C1342 N582 1.357 1_556 S
C1352 C616 1.661 . S
C1347 C0 1.680 . S
C1362 C652 1.240 . S
C1357 C25 1.237 . S
C1372 C736 1.837 . S
C1367 C37 1.872 . S
C1382 N770 1.117 . S
C1377 C163 1.112 . S
C1387 C117 1.324 1_556 S
C1392 N702 1.358 . S
C1397 C135 1.187 . S
C1402 C802 1.176 1_655 S
C1412 C676 1.774 . S
C1407 C151 1.805 . S
C1422 C586 1.279 . S
C1417 C154 1.292 . S
C1427 C123 1.177 . S
C1432 C622 1.188 . S
C1442 N642 1.284 1_655 S
C1437 C126 1.229 . S
C1447 C145 1.845 . S
C1452 C742 1.814 . S
C1462 C783 1.765 . S
C1457 C149 1.790 . S
C1472 C472 1.124 1_565 S
C1467 C79 1.143 . S
C1482 N492 1.342 . S
C1477 C89 1.312 1_565 S
C1487 C98 1.698 . S
C1492 C526 1.677 . S
C1502 N732 1.082 . S
C1497 C159 1.083 . S
C1507 C112 1.182 . S
C1512 N792 1.236 . S
C1522 C442 1.156 . S
C1517 C95 1.156 . S
C1532 C376 1.121 . S
C1527 C67 1.148 . S
C1537 C201 1.902 . S
C1542 C766 1.860 . S
C1552 C393 1.070 . S
C1547 C210 1.060 . S
C1562 C787 1.704 1_556 S
C1557 C179 1.742 . S
C1567 C191 1.214 . S
C1572 N440 1.223 . S
C1577 C215 1.300 . S
C1582 N590 1.333 . S
C1587 C177 1.689 . S
C1592 C487 1.650 . S
C1597 C193 1.210 . S
C1602 C663 1.216 . S
C1607 C196 1.849 . S
C1612 C547 1.812 . S
C1622 N762 1.097 . S
C1617 C322 1.096 . S
C1627 C285 1.307 . S
C1632 N380 1.343 . S
C1642 C813 1.128 . S
C1637 C294 1.126 . S
C1647 C319 1.783 . S
C1652 C427 1.747 . S
C1657 C331 1.338 . S
C1662 C577 1.284 . S
C1672 C513 1.171 . S
C1667 C291 1.158 . S
C1677 C303 1.263 . S
C1682 N650 1.275 . S
C1692 C573 1.798 . S
C1687 C313 1.828 . S
C1702 C772 1.742 . S
C1697 C308 1.773 . S
C1712 C483 1.097 . S
C1707 C238 1.083 . S
C1717 C257 1.274 . S
C1722 N620 1.307 . S
C1732 C517 1.655 1_565 S
C1727 C275 1.695 . S
C1742 N560 1.073 . S
C1737 C327 1.072 . S
C1747 C289 1.231 . S
C1752 N800 1.244 . S
C1762 C693 1.130 . S
C1757 C263 1.129 . S
C1772 C697 1.126 . S
C1767 C235 1.167 . S
