# Generated by pormake.
# Topology gar, (4,6)-cn, num edge types: 1
# Building blocks:
#     Node 0, Type 0, BuildingBlock: QUQFOY_clean_sbu_3, # of connection points: 4
#     Node 1, Type 0, BuildingBlock: QUQFOY_clean_sbu_3, # of connection points: 4
#     Node 2, Type 0, BuildingBlock: QUQFOY_clean_sbu_3, # of connection points: 4
#     Node 3, Type 0, BuildingBlock: QUQFOY_clean_sbu_3, # of connection points: 4
#     Node 4, Type 0, BuildingBlock: QUQFOY_clean_sbu_3, # of connection points: 4
#     Node 5, Type 0, BuildingBlock: QUQFOY_clean_sbu_3, # of connection points: 4
#     Node 6, Type 0, BuildingBlock: QUQFOY_clean_sbu_3, # of connection points: 4
#     Node 7, Type 0, BuildingBlock: QUQFOY_clean_sbu_3, # of connection points: 4
#     Node 8, Type 0, BuildingBlock: QUQFOY_clean_sbu_3, # of connection points: 4
#     Node 9, Type 0, BuildingBlock: QUQFOY_clean_sbu_3, # of connection points: 4
#     Node 10, Type 0, BuildingBlock: QUQFOY_clean_sbu_3, # of connection points: 4
#     Node 11, Type 0, BuildingBlock: QUQFOY_clean_sbu_3, # of connection points: 4
#     Node 12, Type 0, BuildingBlock: QUQFOY_clean_sbu_3, # of connection points: 4
#     Node 13, Type 0, BuildingBlock: QUQFOY_clean_sbu_3, # of connection points: 4
#     Node 14, Type 0, BuildingBlock: QUQFOY_clean_sbu_3, # of connection points: 4
#     Node 15, Type 0, BuildingBlock: QUQFOY_clean_sbu_3, # of connection points: 4
#     Node 16, Type 0, BuildingBlock: QUQFOY_clean_sbu_3, # of connection points: 4
#     Node 17, Type 0, BuildingBlock: QUQFOY_clean_sbu_3, # of connection points: 4
#     Node 18, Type 0, BuildingBlock: QUQFOY_clean_sbu_3, # of connection points: 4
#     Node 19, Type 0, BuildingBlock: QUQFOY_clean_sbu_3, # of connection points: 4
#     Node 20, Type 0, BuildingBlock: QUQFOY_clean_sbu_3, # of connection points: 4
#     Node 21, Type 0, BuildingBlock: QUQFOY_clean_sbu_3, # of connection points: 4
#     Node 22, Type 0, BuildingBlock: QUQFOY_clean_sbu_3, # of connection points: 4
#     Node 23, Type 0, BuildingBlock: QUQFOY_clean_sbu_3, # of connection points: 4
#     Node 24, Type 1, BuildingBlock: BETGAK_clean_sbu_0, # of connection points: 6
#     Node 25, Type 1, BuildingBlock: BETGAK_clean_sbu_0, # of connection points: 6
#     Node 26, Type 1, BuildingBlock: BETGAK_clean_sbu_0, # of connection points: 6
#     Node 27, Type 1, BuildingBlock: BETGAK_clean_sbu_0, # of connection points: 6
#     Node 28, Type 1, BuildingBlock: BETGAK_clean_sbu_0, # of connection points: 6
#     Node 29, Type 1, BuildingBlock: BETGAK_clean_sbu_0, # of connection points: 6
#     Node 30, Type 1, BuildingBlock: BETGAK_clean_sbu_0, # of connection points: 6
#     Node 31, Type 1, BuildingBlock: BETGAK_clean_sbu_0, # of connection points: 6
#     Node 32, Type 1, BuildingBlock: BETGAK_clean_sbu_0, # of connection points: 6
#     Node 33, Type 1, BuildingBlock: BETGAK_clean_sbu_0, # of connection points: 6
#     Node 34, Type 1, BuildingBlock: BETGAK_clean_sbu_0, # of connection points: 6
#     Node 35, Type 1, BuildingBlock: BETGAK_clean_sbu_0, # of connection points: 6
#     Node 36, Type 1, BuildingBlock: BETGAK_clean_sbu_0, # of connection points: 6
#     Node 37, Type 1, BuildingBlock: BETGAK_clean_sbu_0, # of connection points: 6
#     Node 38, Type 1, BuildingBlock: BETGAK_clean_sbu_0, # of connection points: 6
#     Node 39, Type 1, BuildingBlock: BETGAK_clean_sbu_0, # of connection points: 6
#     Edge 40, Type (0, 1), BuildingBlock: MIFKUJ_clean_linker_0, # of connection points: 2
#     Edge 41, Type (0, 1), BuildingBlock: MIFKUJ_clean_linker_0, # of connection points: 2
#     Edge 42, Type (0, 1), BuildingBlock: MIFKUJ_clean_linker_0, # of connection points: 2
#     Edge 43, Type (0, 1), BuildingBlock: MIFKUJ_clean_linker_0, # of connection points: 2
#     Edge 44, Type (0, 1), BuildingBlock: MIFKUJ_clean_linker_0, # of connection points: 2
#     Edge 45, Type (0, 1), BuildingBlock: MIFKUJ_clean_linker_0, # of connection points: 2
#     Edge 46, Type (0, 1), BuildingBlock: MIFKUJ_clean_linker_0, # of connection points: 2
#     Edge 47, Type (0, 1), BuildingBlock: MIFKUJ_clean_linker_0, # of connection points: 2
#     Edge 48, Type (0, 1), BuildingBlock: MIFKUJ_clean_linker_0, # of connection points: 2
#     Edge 49, Type (0, 1), BuildingBlock: MIFKUJ_clean_linker_0, # of connection points: 2
#     Edge 50, Type (0, 1), BuildingBlock: MIFKUJ_clean_linker_0, # of connection points: 2
#     Edge 51, Type (0, 1), BuildingBlock: MIFKUJ_clean_linker_0, # of connection points: 2
#     Edge 52, Type (0, 1), BuildingBlock: MIFKUJ_clean_linker_0, # of connection points: 2
#     Edge 53, Type (0, 1), BuildingBlock: MIFKUJ_clean_linker_0, # of connection points: 2
#     Edge 54, Type (0, 1), BuildingBlock: MIFKUJ_clean_linker_0, # of connection points: 2
#     Edge 55, Type (0, 1), BuildingBlock: MIFKUJ_clean_linker_0, # of connection points: 2
#     Edge 56, Type (0, 1), BuildingBlock: MIFKUJ_clean_linker_0, # of connection points: 2
#     Edge 57, Type (0, 1), BuildingBlock: MIFKUJ_clean_linker_0, # of connection points: 2
#     Edge 58, Type (0, 1), BuildingBlock: MIFKUJ_clean_linker_0, # of connection points: 2
#     Edge 59, Type (0, 1), BuildingBlock: MIFKUJ_clean_linker_0, # of connection points: 2
#     Edge 60, Type (0, 1), BuildingBlock: MIFKUJ_clean_linker_0, # of connection points: 2
#     Edge 61, Type (0, 1), BuildingBlock: MIFKUJ_clean_linker_0, # of connection points: 2
#     Edge 62, Type (0, 1), BuildingBlock: MIFKUJ_clean_linker_0, # of connection points: 2
#     Edge 63, Type (0, 1), BuildingBlock: MIFKUJ_clean_linker_0, # of connection points: 2
#     Edge 64, Type (0, 1), BuildingBlock: MIFKUJ_clean_linker_0, # of connection points: 2
#     Edge 65, Type (0, 1), BuildingBlock: MIFKUJ_clean_linker_0, # of connection points: 2
#     Edge 66, Type (0, 1), BuildingBlock: MIFKUJ_clean_linker_0, # of connection points: 2
#     Edge 67, Type (0, 1), BuildingBlock: MIFKUJ_clean_linker_0, # of connection points: 2
#     Edge 68, Type (0, 1), BuildingBlock: MIFKUJ_clean_linker_0, # of connection points: 2
#     Edge 69, Type (0, 1), BuildingBlock: MIFKUJ_clean_linker_0, # of connection points: 2
#     Edge 70, Type (0, 1), BuildingBlock: MIFKUJ_clean_linker_0, # of connection points: 2
#     Edge 71, Type (0, 1), BuildingBlock: MIFKUJ_clean_linker_0, # of connection points: 2
#     Edge 72, Type (0, 1), BuildingBlock: MIFKUJ_clean_linker_0, # of connection points: 2
#     Edge 73, Type (0, 1), BuildingBlock: MIFKUJ_clean_linker_0, # of connection points: 2
#     Edge 74, Type (0, 1), BuildingBlock: MIFKUJ_clean_linker_0, # of connection points: 2
#     Edge 75, Type (0, 1), BuildingBlock: MIFKUJ_clean_linker_0, # of connection points: 2
#     Edge 76, Type (0, 1), BuildingBlock: MIFKUJ_clean_linker_0, # of connection points: 2
#     Edge 77, Type (0, 1), BuildingBlock: MIFKUJ_clean_linker_0, # of connection points: 2
#     Edge 78, Type (0, 1), BuildingBlock: MIFKUJ_clean_linker_0, # of connection points: 2
#     Edge 79, Type (0, 1), BuildingBlock: MIFKUJ_clean_linker_0, # of connection points: 2
#     Edge 80, Type (0, 1), BuildingBlock: MIFKUJ_clean_linker_0, # of connection points: 2
#     Edge 81, Type (0, 1), BuildingBlock: MIFKUJ_clean_linker_0, # of connection points: 2
#     Edge 82, Type (0, 1), BuildingBlock: MIFKUJ_clean_linker_0, # of connection points: 2
#     Edge 83, Type (0, 1), BuildingBlock: MIFKUJ_clean_linker_0, # of connection points: 2
#     Edge 84, Type (0, 1), BuildingBlock: MIFKUJ_clean_linker_0, # of connection points: 2
#     Edge 85, Type (0, 1), BuildingBlock: MIFKUJ_clean_linker_0, # of connection points: 2
#     Edge 86, Type (0, 1), BuildingBlock: MIFKUJ_clean_linker_0, # of connection points: 2
#     Edge 87, Type (0, 1), BuildingBlock: MIFKUJ_clean_linker_0, # of connection points: 2
#     Edge 88, Type (0, 1), BuildingBlock: MIFKUJ_clean_linker_0, # of connection points: 2
#     Edge 89, Type (0, 1), BuildingBlock: MIFKUJ_clean_linker_0, # of connection points: 2
#     Edge 90, Type (0, 1), BuildingBlock: MIFKUJ_clean_linker_0, # of connection points: 2
#     Edge 91, Type (0, 1), BuildingBlock: MIFKUJ_clean_linker_0, # of connection points: 2
#     Edge 92, Type (0, 1), BuildingBlock: MIFKUJ_clean_linker_0, # of connection points: 2
#     Edge 93, Type (0, 1), BuildingBlock: MIFKUJ_clean_linker_0, # of connection points: 2
#     Edge 94, Type (0, 1), BuildingBlock: MIFKUJ_clean_linker_0, # of connection points: 2
#     Edge 95, Type (0, 1), BuildingBlock: MIFKUJ_clean_linker_0, # of connection points: 2
#     Edge 96, Type (0, 1), BuildingBlock: MIFKUJ_clean_linker_0, # of connection points: 2
#     Edge 97, Type (0, 1), BuildingBlock: MIFKUJ_clean_linker_0, # of connection points: 2
#     Edge 98, Type (0, 1), BuildingBlock: MIFKUJ_clean_linker_0, # of connection points: 2
#     Edge 99, Type (0, 1), BuildingBlock: MIFKUJ_clean_linker_0, # of connection points: 2
#     Edge 100, Type (0, 1), BuildingBlock: MIFKUJ_clean_linker_0, # of connection points: 2
#     Edge 101, Type (0, 1), BuildingBlock: MIFKUJ_clean_linker_0, # of connection points: 2
#     Edge 102, Type (0, 1), BuildingBlock: MIFKUJ_clean_linker_0, # of connection points: 2
#     Edge 103, Type (0, 1), BuildingBlock: MIFKUJ_clean_linker_0, # of connection points: 2
#     Edge 104, Type (0, 1), BuildingBlock: MIFKUJ_clean_linker_0, # of connection points: 2
#     Edge 105, Type (0, 1), BuildingBlock: MIFKUJ_clean_linker_0, # of connection points: 2
#     Edge 106, Type (0, 1), BuildingBlock: MIFKUJ_clean_linker_0, # of connection points: 2
#     Edge 107, Type (0, 1), BuildingBlock: MIFKUJ_clean_linker_0, # of connection points: 2
#     Edge 108, Type (0, 1), BuildingBlock: MIFKUJ_clean_linker_0, # of connection points: 2
#     Edge 109, Type (0, 1), BuildingBlock: MIFKUJ_clean_linker_0, # of connection points: 2
#     Edge 110, Type (0, 1), BuildingBlock: MIFKUJ_clean_linker_0, # of connection points: 2
#     Edge 111, Type (0, 1), BuildingBlock: MIFKUJ_clean_linker_0, # of connection points: 2
#     Edge 112, Type (0, 1), BuildingBlock: MIFKUJ_clean_linker_0, # of connection points: 2
#     Edge 113, Type (0, 1), BuildingBlock: MIFKUJ_clean_linker_0, # of connection points: 2
#     Edge 114, Type (0, 1), BuildingBlock: MIFKUJ_clean_linker_0, # of connection points: 2
#     Edge 115, Type (0, 1), BuildingBlock: MIFKUJ_clean_linker_0, # of connection points: 2
#     Edge 116, Type (0, 1), BuildingBlock: MIFKUJ_clean_linker_0, # of connection points: 2
#     Edge 117, Type (0, 1), BuildingBlock: MIFKUJ_clean_linker_0, # of connection points: 2
#     Edge 118, Type (0, 1), BuildingBlock: MIFKUJ_clean_linker_0, # of connection points: 2
#     Edge 119, Type (0, 1), BuildingBlock: MIFKUJ_clean_linker_0, # of connection points: 2
#     Edge 120, Type (0, 1), BuildingBlock: MIFKUJ_clean_linker_0, # of connection points: 2
#     Edge 121, Type (0, 1), BuildingBlock: MIFKUJ_clean_linker_0, # of connection points: 2
#     Edge 122, Type (0, 1), BuildingBlock: MIFKUJ_clean_linker_0, # of connection points: 2
#     Edge 123, Type (0, 1), BuildingBlock: MIFKUJ_clean_linker_0, # of connection points: 2
#     Edge 124, Type (0, 1), BuildingBlock: MIFKUJ_clean_linker_0, # of connection points: 2
#     Edge 125, Type (0, 1), BuildingBlock: MIFKUJ_clean_linker_0, # of connection points: 2
#     Edge 126, Type (0, 1), BuildingBlock: MIFKUJ_clean_linker_0, # of connection points: 2
#     Edge 127, Type (0, 1), BuildingBlock: MIFKUJ_clean_linker_0, # of connection points: 2
#     Edge 128, Type (0, 1), BuildingBlock: MIFKUJ_clean_linker_0, # of connection points: 2
#     Edge 129, Type (0, 1), BuildingBlock: MIFKUJ_clean_linker_0, # of connection points: 2
#     Edge 130, Type (0, 1), BuildingBlock: MIFKUJ_clean_linker_0, # of connection points: 2
#     Edge 131, Type (0, 1), BuildingBlock: MIFKUJ_clean_linker_0, # of connection points: 2
#     Edge 132, Type (0, 1), BuildingBlock: MIFKUJ_clean_linker_0, # of connection points: 2
#     Edge 133, Type (0, 1), BuildingBlock: MIFKUJ_clean_linker_0, # of connection points: 2
#     Edge 134, Type (0, 1), BuildingBlock: MIFKUJ_clean_linker_0, # of connection points: 2
#     Edge 135, Type (0, 1), BuildingBlock: MIFKUJ_clean_linker_0, # of connection points: 2
# Relax obj value: 0.164
# Max RMSD: 0.293
# Mean RMSD: 0.148
data_MOF--net-gar--node1-QUQFOY_clean_sbu_3--node2-BETGAK_clean_sbu_0--edge1-MIFKUJ_clean_linker_0
_symmetry_space_group_name_H-M    P1
_symmetry_Int_Tables_number       1
_symmetry_cell_setting            triclinic
loop_
_symmetry_equiv_pos_as_xyz
'x, y, z'
_cell_length_a     78.859842
_cell_length_b     74.72048
_cell_length_c     74.246412
_cell_angle_alpha  99.153472
_cell_angle_beta   94.841766
_cell_angle_gamma 102.48114
loop_
_atom_site_label
_atom_site_type_symbol
_atom_site_fract_x
_atom_site_fract_y
_atom_site_fract_z
_atom_type_partial_charge
C0 C 0.06044 0.30202 0.33932 0.0
O1 O 0.0728 0.31135 0.33233 0.0
Cd2 Cd 0.10109 0.32478 0.34906 0.0
O3 O 0.06284 0.29912 0.3557 0.0
Cd4 Cd 0.08678 0.30568 0.38129 0.0
C5 C 0.08971 0.35184 0.38559 0.0
O6 O 0.10839 0.29969 0.36211 0.0
O7 O 0.11909 0.31396 0.38957 0.0
O8 O 0.07541 0.27439 0.38647 0.0
C9 C 0.12158 0.30557 0.37414 0.0
O10 O 0.09795 0.35146 0.37156 0.0
C11 C 0.07538 0.27893 0.40367 0.0
O12 O 0.08328 0.33691 0.39123 0.0
O13 O 0.08051 0.29616 0.41059 0.0
C14 C 0.97343 0.73948 0.677 0.0
O15 O 0.9868 0.73629 0.6855 0.0
Cd16 Cd 0.01437 0.7387 0.67415 0.0
O17 O 0.97426 0.74525 0.66175 0.0
Cd18 Cd 0.99623 0.75404 0.64075 0.0
C19 C 1.0005 0.70951 0.63207 0.0
O20 O 0.02037 0.76811 0.6646 0.0
O21 O 0.02734 0.76343 0.63714 0.0
O22 O 0.98515 0.78159 0.63803 0.0
C23 C 0.03213 0.77017 0.65403 0.0
O24 O 0.00889 0.71303 0.64814 0.0
C25 C 0.98459 0.77959 0.62068 0.0
O26 O 0.99368 0.72168 0.62594 0.0
O27 O 0.98825 0.76489 0.61245 0.0
C28 C 0.55964 0.80573 0.84143 0.0
O29 O 0.56965 0.81733 0.83392 0.0
Cd30 Cd 0.59836 0.83503 0.8464 0.0
O31 O 0.56445 0.80216 0.85705 0.0
Cd32 Cd 0.5902 0.80982 0.8809 0.0
C33 C 0.58912 0.8561 0.88821 0.0
O34 O 0.60883 0.81143 0.85793 0.0
O35 O 0.62307 0.81575 0.88482 0.0
O36 O 0.58137 0.77733 0.88391 0.0
C37 C 0.62343 0.81526 0.86771 0.0
O38 O 0.59419 0.85737 0.87252 0.0
C39 C 0.58184 0.78053 0.90129 0.0
O40 O 0.58611 0.84059 0.89386 0.0
O41 O 0.5864 0.79749 0.90931 0.0
C42 C 0.47319 0.24205 0.18124 0.0
O43 O 0.48532 0.23629 0.18918 0.0
Cd44 Cd 0.51309 0.23701 0.17839 0.0
O45 O 0.47544 0.24926 0.16691 0.0
Cd46 Cd 0.49859 0.25711 0.14711 0.0
C47 C 0.49986 0.21178 0.13467 0.0
O48 O 0.52235 0.26776 0.17205 0.0
O49 O 0.52996 0.26513 0.14468 0.0
O50 O 0.49181 0.28707 0.14495 0.0
C51 C 0.53441 0.27032 0.16185 0.0
O52 O 0.50744 0.213 0.15081 0.0
C53 C 0.4895 0.28424 0.12751 0.0
O54 O 0.4946 0.22551 0.12995 0.0
O55 O 0.49046 0.26834 0.11917 0.0
C56 C 0.0461 0.80083 0.15077 0.0
O57 O 0.05584 0.7929 0.15966 0.0
Cd58 Cd 0.08455 0.78954 0.15407 0.0
O59 O 0.05142 0.80839 0.13733 0.0
Cd60 Cd 0.07854 0.81265 0.12051 0.0
C61 C 0.07416 0.76491 0.10938 0.0
O62 O 0.10054 0.81796 0.14752 0.0
O63 O 0.1105 0.8125 0.12173 0.0
O64 O 0.07859 0.84573 0.11905 0.0
C65 C 0.11358 0.81604 0.13915 0.0
O66 O 0.07956 0.76611 0.12629 0.0
C67 C 0.07545 0.84378 0.1017 0.0
O68 O 0.07129 0.77924 0.10327 0.0
O69 O 0.07394 0.82738 0.09275 0.0
C70 C 0.47487 0.76672 0.37593 0.0
O71 O 0.48663 0.777 0.369 0.0
Cd72 Cd 0.51765 0.78354 0.37607 0.0
O73 O 0.47916 0.75811 0.38862 0.0
Cd74 Cd 0.50892 0.75772 0.40608 0.0
C75 C 0.51919 0.80558 0.42038 0.0
O76 O 0.52552 0.75519 0.37927 0.0
O77 O 0.54118 0.76321 0.40555 0.0
O78 O 0.49907 0.72414 0.40887 0.0
C79 C 0.54056 0.75856 0.38829 0.0
O80 O 0.52396 0.80631 0.4045 0.0
C81 C 0.50513 0.7262 0.42569 0.0
O82 O 0.51177 0.79 0.42448 0.0
O83 O 0.51195 0.74288 0.43369 0.0
C84 C 0.54365 0.30315 0.6548 0.0
O85 O 0.55394 0.29623 0.66417 0.0
Cd86 Cd 0.58171 0.29151 0.65675 0.0
O87 O 0.54822 0.3092 0.64033 0.0
Cd88 Cd 0.57528 0.31283 0.62334 0.0
C89 C 0.57021 0.2653 0.61275 0.0
O90 O 0.59812 0.31971 0.65003 0.0
O91 O 0.60687 0.31132 0.62413 0.0
O92 O 0.5752 0.34567 0.62138 0.0
C93 C 0.61072 0.3168 0.64136 0.0
O94 O 0.57593 0.26688 0.62963 0.0
C95 C 0.57264 0.34361 0.60399 0.0
O96 O 0.56736 0.27949 0.6064 0.0
O97 O 0.57142 0.3272 0.59523 0.0
C98 C 0.97654 0.2665 0.87153 0.0
O99 O 0.98896 0.2752 0.86414 0.0
Cd100 Cd 0.0197 0.28135 0.87254 0.0
O101 O 0.97995 0.25881 0.88528 0.0
Cd102 Cd 0.0091 0.25679 0.90326 0.0
C103 C 0.02044 0.3047 0.91647 0.0
O104 O 0.02643 0.2529 0.87718 0.0
O105 O 0.04155 0.26139 0.9037 0.0
O106 O 0.99841 0.22332 0.90621 0.0
C107 C 0.04129 0.25621 0.88658 0.0
O108 O 0.02525 0.30475 0.90052 0.0
C109 C 0.00396 0.22539 0.92317 0.0
O110 O 0.01283 0.28944 0.92108 0.0
O111 O 0.01077 0.24206 0.93119 0.0
C112 C 0.45468 0.03443 0.31309 0.0
O113 O 0.46105 0.02303 0.30267 0.0
Cd114 Cd 0.45437 0.01254 0.27012 0.0
O115 O 0.44259 0.04151 0.30685 0.0
Cd116 Cd 0.42453 0.03899 0.27736 0.0
C117 C 0.4111 0.99122 0.2685 0.0
O118 O 0.44797 0.03869 0.25927 0.0
O119 O 0.42329 0.03777 0.24396 0.0
O120 O 0.42093 0.07076 0.28347 0.0
C121 C 0.43912 0.03683 0.24378 0.0
O122 O 0.42664 0.98993 0.26617 0.0
C123 C 0.40449 0.06591 0.28373 0.0
O124 O 0.40744 0.00695 0.27331 0.0
O125 O 0.39759 0.04857 0.28139 0.0
C126 C 0.30013 0.14431 0.49496 0.0
O127 O 0.28816 0.13409 0.50166 0.0
Cd128 Cd 0.26106 0.1411 0.50837 0.0
O129 O 0.29764 0.1592 0.48982 0.0
Cd130 Cd 0.27231 0.17545 0.48744 0.0
C131 C 0.27518 0.18574 0.53449 0.0
O132 O 0.24726 0.1482 0.48154 0.0
O133 O 0.24094 0.17442 0.49098 0.0
O134 O 0.27308 0.17689 0.45446 0.0
C135 C 0.23555 0.15699 0.48523 0.0
O136 O 0.26876 0.16831 0.53304 0.0
C137 C 0.27791 0.19447 0.45617 0.0
O138 O 0.27855 0.19278 0.52019 0.0
O139 O 0.28035 0.20362 0.47253 0.0
C140 C 0.13543 0.01651 0.80808 0.0
O141 O 0.12773 0.02478 0.79741 0.0
Cd142 Cd 0.13641 0.0304 0.76757 0.0
O143 O 0.14831 0.00969 0.8023 0.0
Cd144 Cd 0.16448 0.00691 0.76937 0.0
C145 C 0.17844 0.05745 0.77121 0.0
O146 O 0.13662 1.00301 0.74536 0.0
O147 O 0.16092 0.00973 0.73472 0.0
O148 O 0.1675 0.97155 0.76697 0.0
C149 C 0.14434 0.00605 0.73134 0.0
O150 O 0.16202 0.05621 0.76845 0.0
C151 C 0.1841 0.97383 0.76846 0.0
O152 O 0.18381 0.04265 0.77352 0.0
O153 O 0.19198 0.99099 0.77047 0.0
C154 C 0.33239 0.95777 0.00602 0.0
O155 O 0.3255 0.96705 0.99581 0.0
Cd156 Cd 0.29573 0.95517 0.98163 0.0
O157 O 0.32348 0.94295 0.01001 0.0
Cd158 Cd 0.29341 0.92435 0.00654 0.0
C159 C 0.29481 0.90991 0.96161 0.0
O160 O 0.28 0.9504 0.00737 0.0
O161 O 0.26209 0.92326 1.00114 0.0
O162 O 0.30116 0.92577 0.03882 0.0
C163 C 0.26435 0.94086 0.00449 0.0
O164 O 0.29403 0.92631 0.95946 0.0
C165 C 0.29624 0.90838 0.03838 0.0
O166 O 0.29557 0.90574 0.97755 0.0
O167 O 0.28941 0.89824 0.02297 0.0
C168 C 0.33743 0.42596 0.03167 0.0
O169 O 0.32774 0.43486 0.02407 0.0
Cd170 Cd 0.29725 0.42377 0.0142 0.0
O171 O 0.33072 0.41036 0.03622 0.0
Cd172 Cd 0.29975 0.39066 0.03631 0.0
C173 C 0.29681 0.37996 0.98932 0.0
O174 O 0.28414 0.41599 0.04038 0.0
O175 O 0.2677 0.38849 0.03139 0.0
O176 O 0.30782 0.39022 0.06911 0.0
C177 C 0.26878 0.40575 0.0366 0.0
O178 O 0.29524 0.39669 0.99019 0.0
C179 C 0.30189 0.37288 0.06839 0.0
O180 O 0.29923 0.37351 0.00407 0.0
O181 O 0.29551 0.36339 0.05255 0.0
C182 C 0.7931 0.10164 0.03502 0.0
O183 O 0.77959 0.09391 0.04153 0.0
Cd184 Cd 0.75339 0.10571 0.04049 0.0
O185 O 0.79304 0.11565 0.0273 0.0
Cd186 Cd 0.77299 0.13476 0.01929 0.0
C187 C 0.7667 0.15071 0.06307 0.0
O188 O 0.74671 0.10957 0.0092 0.0
O189 O 0.74394 0.13783 0.00938 0.0
O190 O 0.78324 0.13646 0.98951 0.0
C191 C 0.73727 0.12048 0.00512 0.0
O192 O 0.75794 0.13434 0.06334 0.0
C193 C 0.78918 0.15399 0.99297 0.0
O194 O 0.77409 0.15427 0.04906 0.0
O195 O 0.78828 0.16243 0.00898 0.0
C196 C 0.11943 0.53133 0.26468 0.0
O197 O 0.10842 0.53334 0.25206 0.0
Cd198 Cd 0.11243 0.53062 0.22018 0.0
O199 O 0.13321 0.526 0.26087 0.0
Cd200 Cd 0.1482 0.51663 0.23442 0.0
C201 C 0.15252 0.56174 0.22848 0.0
O202 O 0.1223 0.50257 0.2138 0.0
O203 O 0.14602 0.50384 0.20123 0.0
O204 O 0.15665 0.49271 0.2494 0.0
C205 C 0.12943 0.49935 0.19937 0.0
O206 O 0.13635 0.55825 0.22229 0.0
C207 C 0.17295 0.49887 0.24908 0.0
O208 O 0.15936 0.54917 0.23365 0.0
O209 O 0.17756 0.51305 0.24162 0.0
C210 C 0.83897 0.92302 0.53045 0.0
O211 O 0.82973 0.93104 0.52107 0.0
Cd212 Cd 0.79876 0.92283 0.51334 0.0
O213 O 0.83178 0.90913 0.53749 0.0
Cd214 Cd 0.80057 0.89027 0.53752 0.0
C215 C 0.79651 0.87832 0.48998 0.0
O216 O 0.786 0.91628 0.54006 0.0
O217 O 0.76853 0.88914 0.53321 0.0
O218 O 0.80507 0.89009 0.57089 0.0
C219 C 0.77037 0.90668 0.53703 0.0
O220 O 0.79502 0.895 0.49027 0.0
C221 C 0.80175 0.87253 0.56982 0.0
O222 O 0.7993 0.87249 0.50504 0.0
O223 O 0.79842 0.86288 0.55364 0.0
C224 C 0.94643 0.04824 0.29348 0.0
O225 O 0.95273 0.0384 0.28143 0.0
Cd226 Cd 0.9417 0.03011 0.24917 0.0
O227 O 0.93401 0.05579 0.28783 0.0
Cd228 Cd 0.91627 0.05573 0.25304 0.0
C229 C 0.90002 0.00508 0.25021 0.0
O230 O 0.94272 0.05622 0.23302 0.0
O231 O 0.91789 0.04849 0.217 0.0
O232 O 0.91447 0.09153 0.26025 0.0
C233 C 0.93441 0.05223 0.21687 0.0
O234 O 0.91545 1.00471 0.24658 0.0
C235 C 0.89809 0.08994 0.25618 0.0
O236 O 0.89611 0.02115 0.2538 0.0
O237 O 0.88978 0.07295 0.251 0.0
C238 C 0.30632 0.61995 0.52702 0.0
O239 O 0.29693 0.6119 0.53777 0.0
Cd240 Cd 0.26809 0.61604 0.54163 0.0
O241 O 0.30092 0.63138 0.5183 0.0
Cd242 Cd 0.27451 0.64388 0.51766 0.0
C243 C 0.27624 0.66105 0.56243 0.0
O244 O 0.2517 0.61473 0.51227 0.0
O245 O 0.24377 0.64039 0.52072 0.0
O246 O 0.27473 0.64564 0.48523 0.0
C247 C 0.23945 0.62321 0.51374 0.0
O248 O 0.26987 0.64426 0.56387 0.0
C249 C 0.2745 0.66276 0.48737 0.0
O250 O 0.28098 0.66487 0.54727 0.0
O251 O 0.27549 0.67133 0.50375 0.0
C252 C 0.44738 0.54921 0.79241 0.0
O253 O 0.45406 0.53958 0.78057 0.0
Cd254 Cd 0.44322 0.53136 0.74832 0.0
O255 O 0.43494 0.5566 0.78646 0.0
Cd256 Cd 0.41741 0.55621 0.75142 0.0
C257 C 0.4017 0.50573 0.7493 0.0
O258 O 0.44392 0.55714 0.73149 0.0
O259 O 0.41908 0.548 0.71549 0.0
O260 O 0.41535 0.59199 0.75759 0.0
C261 C 0.43559 0.55247 0.71534 0.0
O262 O 0.41741 0.50561 0.74663 0.0
C263 C 0.39885 0.59014 0.75439 0.0
O264 O 0.3973 0.52159 0.75171 0.0
O265 O 0.39062 0.57305 0.75005 0.0
C266 C 0.63589 0.0312 0.76233 0.0
O267 O 0.62538 0.03406 0.74976 0.0
Cd268 Cd 0.63191 0.03517 0.71907 0.0
O269 O 0.65034 0.02733 0.75877 0.0
Cd270 Cd 0.66695 0.02253 0.73257 0.0
C271 C 0.67056 0.06824 0.73107 0.0
O272 O 0.64268 0.00798 0.70955 0.0
O273 O 0.66711 0.017 0.69904 0.0
O274 O 0.67499 0.99588 0.74264 0.0
C275 C 0.651 0.00886 0.69575 0.0
O276 O 0.65462 0.06426 0.72393 0.0
C277 C 0.69135 1.00297 0.74468 0.0
O278 O 0.67772 0.05571 0.73575 0.0
O279 O 0.69631 0.0191 0.74081 0.0
C280 C 0.80174 0.64755 0.99842 0.0
O281 O 0.79027 0.63794 0.00625 0.0
Cd282 Cd 0.7618 0.64299 0.01044 0.0
O283 O 0.79846 0.66126 0.99154 0.0
Cd284 Cd 0.77283 0.67666 0.98842 0.0
C285 C 0.77365 0.688 0.03528 0.0
O286 O 0.74882 0.64833 0.98233 0.0
O287 O 0.74111 0.67411 0.98996 0.0
O288 O 0.77796 0.67799 0.95624 0.0
C289 C 0.73651 0.65656 0.98482 0.0
O290 O 0.76643 0.67079 0.03405 0.0
C291 C 0.7788 0.69525 0.95703 0.0
O292 O 0.77899 0.69431 0.02117 0.0
O293 O 0.77716 0.70428 0.97258 0.0
C294 C 0.96605 0.55425 0.80924 0.0
O295 O 0.97306 0.54589 0.7967 0.0
Cd296 Cd 0.95913 0.53008 0.76672 0.0
O297 O 0.95028 0.55568 0.80639 0.0
Cd298 Cd 0.92649 0.54665 0.78044 0.0
C299 C 0.92385 0.5009 0.7793 0.0
O300 O 0.94313 0.54994 0.75497 0.0
O301 O 0.91638 0.53453 0.74772 0.0
O302 O 0.91844 0.57635 0.78443 0.0
C303 C 0.93092 0.54113 0.74244 0.0
O304 O 0.9375 0.50274 0.77106 0.0
C305 C 0.90271 0.56975 0.7868 0.0
O306 O 0.91801 0.51494 0.78564 0.0
O307 O 0.89831 0.55245 0.78724 0.0
C308 C 0.83023 0.4552 0.51279 0.0
O309 O 0.82234 0.46337 0.50214 0.0
Cd310 Cd 0.79226 0.4519 0.48867 0.0
O311 O 0.82247 0.43982 0.51686 0.0
Cd312 Cd 0.79421 0.4169 0.51194 0.0
C313 C 0.79345 0.40879 0.46495 0.0
O314 O 0.77971 0.44155 0.51443 0.0
O315 O 0.76242 0.4148 0.51359 0.0
O316 O 0.80439 0.41086 0.54167 0.0
C317 C 0.76426 0.43214 0.51392 0.0
O318 O 0.79203 0.42535 0.46429 0.0
C319 C 0.80107 0.39328 0.53654 0.0
O320 O 0.79475 0.40321 0.48021 0.0
O321 O 0.79382 0.38672 0.52019 0.0
C322 C 0.63695 0.51797 0.30761 0.0
O323 O 0.62972 0.52687 0.29722 0.0
Cd324 Cd 0.63788 0.53256 0.26723 0.0
O325 O 0.6494 0.51057 0.30151 0.0
Cd326 Cd 0.66533 0.50785 0.26831 0.0
C327 C 0.68026 0.55854 0.27044 0.0
O328 O 0.63738 0.50515 0.24473 0.0
O329 O 0.66148 0.50983 0.23341 0.0
O330 O 0.66773 0.47231 0.2655 0.0
C331 C 0.64496 0.5074 0.23046 0.0
O332 O 0.6639 0.55776 0.26829 0.0
C333 C 0.6843 0.4743 0.26728 0.0
O334 O 0.68531 0.5434 0.27212 0.0
O335 O 0.69246 0.49139 0.26963 0.0
La336 La 0.01998 0.02197 1.00247 0.0
La337 La 0.05324 0.04603 0.0238 0.0
C338 C 0.98809 0.00588 0.99484 0.0
C339 C 0.97251 0.01196 1.00013 0.0
C340 C 0.95578 1.00136 0.99277 0.0
C341 C 0.94104 0.00796 0.99704 0.0
C342 C 0.94291 0.02522 0.00879 0.0
C343 C 0.95978 0.03555 0.0164 0.0
C344 C 0.97444 0.02906 0.01195 0.0
C345 C 0.04473 0.02277 0.97877 0.0
C346 C 0.0278 0.06595 0.00382 0.0
C347 C 0.08511 0.06206 0.0316 0.0
C348 C 0.10055 0.05555 0.02662 0.0
C349 C 0.1173 0.06517 0.03503 0.0
C350 C 0.13174 0.05772 0.03144 0.0
C351 C 0.12948 0.04068 0.01927 0.0
C352 C 0.11269 0.03135 0.0106 0.0
C353 C 0.09833 0.03863 0.01441 0.0
C354 C 0.02861 0.04502 0.0476 0.0
C355 C 0.04546 1.002 0.02224 0.0
O356 O 0.99688 0.01584 0.98425 0.0
O357 O 0.99832 1.00287 0.0083 0.0
O358 O 0.02863 0.01339 0.9756 0.0
O359 O 0.04662 0.03081 0.99575 0.0
O360 O 0.01613 0.0498 1.00017 0.0
O361 O 0.04352 0.06769 0.01256 0.0
O362 O 0.07615 0.05244 0.04233 0.0
O363 O 0.07503 0.06491 0.01792 0.0
O364 O 0.04467 0.0545 0.05071 0.0
O365 O 0.02664 0.03705 0.03059 0.0
O366 O 0.05712 0.01816 0.02594 0.0
O367 O 0.02971 1.00028 0.01359 0.0
H368 H 0.95414 0.98821 0.98346 0.0
H369 H 0.92824 0.99979 0.99076 0.0
H370 H 0.9617 0.04873 0.02573 0.0
H371 H 0.98733 0.0375 0.01757 0.0
H372 H 0.11914 0.07814 0.04468 0.0
H373 H 0.1446 0.06511 0.03829 0.0
H374 H 0.11058 0.01803 1.00144 0.0
H375 H 0.08539 0.03079 0.00822 0.0
La376 La 0.2922 0.77146 0.24612 0.0
La377 La 0.28117 0.78609 0.28304 0.0
C378 C 0.30249 0.76778 0.21506 0.0
C379 C 0.30596 0.78105 0.2025 0.0
C380 C 0.32195 0.78394 0.1952 0.0
C381 C 0.32648 0.79827 0.18528 0.0
C382 C 0.31504 0.80989 0.18249 0.0
C383 C 0.29891 0.80674 0.1896 0.0
C384 C 0.29448 0.79256 0.19963 0.0
C385 C 0.31064 0.76712 0.27597 0.0
C386 C 0.30024 0.81479 0.26157 0.0
C387 C 0.28062 0.7926 0.31711 0.0
C388 C 0.26815 0.78522 0.32907 0.0
C389 C 0.25248 0.7723 0.32148 0.0
C390 C 0.24245 0.76216 0.33271 0.0
C391 C 0.24804 0.76479 0.35163 0.0
C392 C 0.26304 0.77884 0.35929 0.0
C393 C 0.27305 0.78894 0.34805 0.0
C394 C 0.2567 0.78686 0.25629 0.0
C395 C 0.2653 0.74408 0.26254 0.0
O396 O 0.31309 0.77249 0.23045 0.0
O397 O 0.28609 0.76192 0.21767 0.0
O398 O 0.30595 0.75472 0.2611 0.0
O399 O 0.30502 0.78128 0.27371 0.0
O400 O 0.29654 0.80144 0.24688 0.0
O401 O 0.2978 0.81138 0.27816 0.0
O402 O 0.27532 0.80287 0.30604 0.0
O403 O 0.2883 0.78025 0.30881 0.0
O404 O 0.25605 0.79201 0.27369 0.0
O405 O 0.27068 0.78143 0.25492 0.0
O406 O 0.26886 0.75616 0.27831 0.0
O407 O 0.27162 0.74783 0.2473 0.0
H408 H 0.33113 0.77542 0.19762 0.0
H409 H 0.33904 0.80044 0.18006 0.0
H410 H 0.28962 0.81516 0.18735 0.0
H411 H 0.28222 0.79088 0.20542 0.0
H412 H 0.24858 0.76929 0.30676 0.0
H413 H 0.2309 0.75154 0.32646 0.0
H414 H 0.26789 0.78104 0.37374 0.0
H415 H 0.28519 0.79877 0.35403 0.0
La416 La 0.561 0.03825 0.5148 0.0
La417 La 0.52115 0.03229 0.51455 0.0
C418 C 0.5928 0.03691 0.51983 0.0
C419 C 0.60419 0.02343 0.51949 0.0
C420 C 0.61764 0.02482 0.50819 0.0
C421 C 0.62983 0.01375 0.50895 0.0
C422 C 0.62896 1.00103 0.52114 0.0
C423 C 0.61514 0.99923 0.53208 0.0
C424 C 0.60291 0.01033 0.5313 0.0
C425 C 0.54322 0.04305 0.48532 0.0
C426 C 0.53564 0.99681 0.50398 0.0
C427 C 0.48963 0.03405 0.50839 0.0
C428 C 0.47846 0.04772 0.50912 0.0
C429 C 0.4645 0.04553 0.5197 0.0
C430 C 0.45232 0.05657 0.51906 0.0
C431 C 0.45356 0.06996 0.50756 0.0
C432 C 0.46806 0.07277 0.49758 0.0
C433 C 0.48043 0.06181 0.49839 0.0
C434 C 0.53851 0.02759 0.5444 0.0
C435 C 0.54652 0.07355 0.52595 0.0
O436 O 0.58496 0.03846 0.50408 0.0
O437 O 0.5827 0.03771 0.53291 0.0
O438 O 0.55872 0.05317 0.49183 0.0
O439 O 0.53874 0.03069 0.49469 0.0
O440 O 0.5516 0.00755 0.50971 0.0
O441 O 0.52158 1.00381 0.50278 0.0
O442 O 0.49672 0.03157 0.52412 0.0
O443 O 0.50026 0.03378 0.49573 0.0
O444 O 0.52267 0.01822 0.5382 0.0
O445 O 0.54336 0.03964 0.53473 0.0
O446 O 0.53064 0.06299 0.51952 0.0
O447 O 0.56043 0.06638 0.52764 0.0
H448 H 0.619 0.03484 0.49903 0.0
H449 H 0.64007 0.01532 0.50008 0.0
H450 H 0.61411 0.98972 0.54173 0.0
H451 H 0.59275 0.00896 0.54028 0.0
H452 H 0.46271 0.03486 0.52815 0.0
H453 H 0.4417 0.05432 0.5274 0.0
H454 H 0.46948 0.08287 0.48852 0.0
H455 H 0.49108 0.06386 0.49006 0.0
La456 La 0.27133 0.28624 0.76012 0.0
La457 La 0.30526 0.27915 0.76441 0.0
C458 C 0.23971 0.2882 0.76156 0.0
C459 C 0.22562 0.28542 0.77349 0.0
C460 C 0.21117 0.29306 0.77021 0.0
C461 C 0.1971 0.28999 0.7805 0.0
C462 C 0.19711 0.27914 0.79436 0.0
C463 C 0.21186 0.27183 0.79793 0.0
C464 C 0.22598 0.2749 0.78756 0.0
C465 C 0.29631 0.31541 0.75467 0.0
C466 C 0.29071 0.29153 0.80033 0.0
C467 C 0.33699 0.27778 0.763 0.0
C468 C 0.35071 0.27983 0.75054 0.0
C469 C 0.36147 0.26712 0.74926 0.0
C470 C 0.37564 0.2695 0.73905 0.0
C471 C 0.3795 0.28475 0.72992 0.0
C472 C 0.3683 0.29714 0.73066 0.0
C473 C 0.35405 0.29474 0.7409 0.0
C474 C 0.28042 0.24994 0.76984 0.0
C475 C 0.28555 0.27331 0.72409 0.0
O476 O 0.25312 0.3022 0.76741 0.0
O477 O 0.24452 0.27338 0.754 0.0
O478 O 0.2808 0.30936 0.74566 0.0
O479 O 0.2973 0.30525 0.76681 0.0
O480 O 0.27552 0.28669 0.78982 0.0
O481 O 0.30533 0.29173 0.79292 0.0
O482 O 0.32386 0.26327 0.75842 0.0
O483 O 0.33191 0.29272 0.7697 0.0
O484 O 0.29584 0.25625 0.77906 0.0
O485 O 0.27934 0.26003 0.75764 0.0
O486 O 0.30078 0.27755 0.73452 0.0
O487 O 0.27106 0.27393 0.73153 0.0
H488 H 0.21067 0.30129 0.75949 0.0
H489 H 0.1862 0.29618 0.77758 0.0
H490 H 0.2123 0.26334 0.80843 0.0
H491 H 0.23703 0.26887 0.79033 0.0
H492 H 0.35913 0.25549 0.75651 0.0
H493 H 0.3837 0.25943 0.73848 0.0
H494 H 0.37087 0.30905 0.72385 0.0
H495 H 0.34593 0.30476 0.74162 0.0
La496 La 0.03994 0.04981 0.52484 0.0
La497 La 0.04299 0.01274 0.50689 0.0
C498 C 0.04171 0.08417 0.53366 0.0
C499 C 0.04248 0.09969 0.52365 0.0
C500 C 0.03423 0.11396 0.52971 0.0
C501 C 0.03509 0.129 0.52053 0.0
C502 C 0.04433 0.13005 0.50518 0.0
C503 C 0.05248 0.11558 0.49907 0.0
C504 C 0.05148 0.10048 0.50816 0.0
C505 C 0.01511 0.02189 0.53 0.0
C506 C 0.0268 0.03593 0.48056 0.0
C507 C 0.03896 0.97792 0.49949 0.0
C508 C 0.03431 0.9634 0.51061 0.0
C509 C 0.03781 0.94584 0.50538 0.0
C510 C 0.0327 0.93179 0.51556 0.0
C511 C 0.02391 0.93508 0.53104 0.0
C512 C 0.02066 0.95282 0.53637 0.0
C513 C 0.02586 0.96686 0.52628 0.0
C514 C 0.0684 0.04018 0.50177 0.0
C515 C 0.05678 0.027 0.55088 0.0
O516 O 0.02698 0.0715 0.5307 0.0
O517 O 0.05534 0.07684 0.53376 0.0
O518 O 0.02175 0.03668 0.54231 0.0
O519 O 0.02171 0.0237 0.51536 0.0
O520 O 0.03096 0.04985 0.49512 0.0
O521 O 0.02976 0.01936 0.48215 0.0
O522 O 0.05427 0.9895 0.50445 0.0
O523 O 0.02663 0.98657 0.49602 0.0
O524 O 0.06233 0.02477 0.49003 0.0
O525 O 0.06134 0.03891 0.51629 0.0
O526 O 0.05138 0.01276 0.53674 0.0
O527 O 0.0548 0.04381 0.54888 0.0
H528 H 0.02713 0.11348 0.54157 0.0
H529 H 0.02841 0.13973 0.52539 0.0
H530 H 0.0599 0.11604 0.48746 0.0
H531 H 0.05788 0.08953 0.50318 0.0
H532 H 0.04429 0.94294 0.49332 0.0
H533 H 0.03522 0.9182 0.51104 0.0
H534 H 0.01405 0.9558 0.54831 0.0
H535 H 0.02309 0.98038 0.53057 0.0
La536 La 0.3103 0.79724 0.76467 0.0
La537 La 0.27634 0.76999 0.76243 0.0
C538 C 0.34143 0.81435 0.7753 0.0
C539 C 0.3572 0.80714 0.7781 0.0
C540 C 0.37208 0.81411 0.77002 0.0
C541 C 0.3867 0.80649 0.77161 0.0
C542 C 0.38663 0.79179 0.78133 0.0
C543 C 0.37175 0.78485 0.78945 0.0
C544 C 0.35715 0.79243 0.78782 0.0
C545 C 0.29466 0.7839 0.73136 0.0
C546 C 0.30974 0.75231 0.76377 0.0
C547 C 0.24559 0.75179 0.75123 0.0
C548 C 0.23034 0.75761 0.74353 0.0
C549 C 0.21367 0.75013 0.74791 0.0
C550 C 0.19923 0.75617 0.74113 0.0
C551 C 0.20131 0.76979 0.72989 0.0
C552 C 0.21807 0.77729 0.7256 0.0
C553 C 0.23246 0.77127 0.73237 0.0
C554 C 0.2918 0.78401 0.79591 0.0
C555 C 0.27682 0.8147 0.76296 0.0
O556 O 0.33431 0.81179 0.75823 0.0
O557 O 0.32976 0.81045 0.78649 0.0
O558 O 0.30394 0.80087 0.73647 0.0
O559 O 0.29544 0.77508 0.74439 0.0
O560 O 0.31881 0.77011 0.76593 0.0
O561 O 0.2923 0.74867 0.76153 0.0
O562 O 0.25111 0.75876 0.76857 0.0
O563 O 0.25845 0.75246 0.74113 0.0
O564 O 0.28252 0.767 0.79095 0.0
O565 O 0.29109 0.7924 0.78257 0.0
O566 O 0.2679 0.79676 0.75918 0.0
O567 O 0.2942 0.81851 0.76704 0.0
H568 H 0.37234 0.82536 0.76238 0.0
H569 H 0.39816 0.81229 0.76549 0.0
H570 H 0.37134 0.77346 0.79691 0.0
H571 H 0.34577 0.78659 0.79403 0.0
H572 H 0.21183 0.73966 0.75657 0.0
H573 H 0.18641 0.74998 0.74444 0.0
H574 H 0.22009 0.78793 0.71714 0.0
H575 H 0.24526 0.77738 0.72893 0.0
La576 La 0.54633 0.03895 0.02756 0.0
La577 La 0.52513 0.02381 0.99058 0.0
C578 C 0.55405 0.04944 0.06136 0.0
C579 C 0.5449 0.0397 0.07477 0.0
C580 C 0.542 0.02015 0.07262 0.0
C581 C 0.52945 0.01013 0.08166 0.0
C582 C 0.51953 0.01943 0.09296 0.0
C583 C 0.52309 0.03903 0.09593 0.0
C584 C 0.53564 0.04908 0.08687 0.0
C585 C 0.55421 0.00999 0.00837 0.0
C586 C 0.5083 0.01124 0.02361 0.0
C587 C 0.51712 0.00974 0.95724 0.0
C588 C 0.52794 0.01172 0.94213 0.0
C589 C 0.52496 0.02356 0.92993 0.0
C590 C 0.53709 0.02864 0.91798 0.0
C591 C 0.55233 0.02177 0.91783 0.0
C592 C 0.55484 0.00911 0.92933 0.0
C593 C 0.54276 1.00412 0.94137 0.0
C594 C 0.51676 0.0526 0.00954 0.0
C595 C 0.56252 0.05295 0.99525 0.0
O596 O 0.56334 0.0402 0.05131 0.0
O597 O 0.54422 0.05721 0.05143 0.0
O598 O 0.56577 0.02365 0.0185 0.0
O599 O 0.53916 0.01259 0.00978 0.0
O600 O 0.52108 0.02409 0.03397 0.0
O601 O 0.50806 0.00679 0.00565 0.0
O602 O 0.513 0.02507 0.96474 0.0
O603 O 0.52212 1.00059 0.9696 0.0
O604 O 0.50546 0.03925 0.99861 0.0
O605 O 0.53193 0.0501 0.00851 0.0
O606 O 0.5511 0.03856 0.9848 0.0
O607 O 0.5612 0.05803 0.01285 0.0
H608 H 0.54865 0.01241 0.0631 0.0
H609 H 0.527 0.99506 0.0792 0.0
H610 H 0.51591 0.04658 0.105 0.0
H611 H 0.53741 0.06406 0.08851 0.0
H612 H 0.51366 0.02963 0.93027 0.0
H613 H 0.53482 0.03849 0.90935 0.0
H614 H 0.56626 1.00324 0.92921 0.0
H615 H 0.54541 0.99485 0.95051 0.0
La616 La 0.30317 0.30829 0.27448 0.0
La617 La 0.28223 0.27092 0.25764 0.0
C618 C 0.3154 0.3429 0.28399 0.0
C619 C 0.30697 0.3586 0.28496 0.0
C620 C 0.31363 0.37474 0.29825 0.0
C621 C 0.30463 0.38901 0.3003 0.0
C622 C 0.28876 0.3871 0.28923 0.0
C623 C 0.28233 0.37104 0.27572 0.0
C624 C 0.29138 0.35695 0.27355 0.0
C625 C 0.30158 0.28365 0.29684 0.0
C626 C 0.26175 0.29958 0.27243 0.0
C627 C 0.27101 0.23613 0.24956 0.0
C628 C 0.27939 0.22139 0.25398 0.0
C629 C 0.2758 0.20404 0.24223 0.0
C630 C 0.28476 0.19053 0.24592 0.0
C631 C 0.29733 0.19423 0.26147 0.0
C632 C 0.30079 0.2116 0.27324 0.0
C633 C 0.29198 0.22509 0.26947 0.0
C634 C 0.28372 0.29514 0.23495 0.0
C635 C 0.32364 0.28001 0.25995 0.0
O636 O 0.31083 0.3318 0.29556 0.0
O637 O 0.31547 0.33363 0.26751 0.0
O638 O 0.31511 0.29689 0.29643 0.0
O639 O 0.2893 0.28508 0.28548 0.0
O640 O 0.27646 0.31225 0.27329 0.0
O641 O 0.26103 0.28162 0.26806 0.0
O642 O 0.27873 0.24614 0.23836 0.0
O643 O 0.26687 0.24649 0.26365 0.0
O644 O 0.27041 0.28159 0.23524 0.0
O645 O 0.29603 0.29402 0.24649 0.0
O646 O 0.30912 0.26735 0.26007 0.0
O647 O 0.32417 0.29793 0.26339 0.0
H648 H 0.32558 0.37615 0.30724 0.0
H649 H 0.30982 0.40128 0.3108 0.0
H650 H 0.27029 0.36939 0.26677 0.0
H651 H 0.28606 0.34464 0.26313 0.0
H652 H 0.26626 0.20105 0.23011 0.0
H653 H 0.28185 0.1772 0.23667 0.0
H654 H 0.31063 0.21493 0.28513 0.0
H655 H 0.29522 0.23855 0.2785 0.0
La656 La 0.54008 0.55054 0.02332 0.0
La657 La 0.54294 0.51337 0.00586 0.0
C658 C 0.54126 0.58487 0.03129 0.0
C659 C 0.54219 0.5998 0.02047 0.0
C660 C 0.53471 0.61481 0.02613 0.0
C661 C 0.53567 0.62919 0.01603 0.0
C662 C 0.54421 0.62882 1.00012 0.0
C663 C 0.55148 0.61355 0.99437 0.0
C664 C 0.5504 0.59913 0.0044 0.0
C665 C 0.51507 0.5229 0.02897 0.0
C666 C 0.52669 0.53631 0.97931 0.0
C667 C 0.53966 0.47867 0.99783 0.0
C668 C 0.53608 0.46301 0.00784 0.0
C669 C 0.54689 0.46247 0.0237 0.0
C670 C 0.54259 0.44784 0.03337 0.0
C671 C 0.52735 0.43357 0.02745 0.0
C672 C 0.51663 0.43421 0.01155 0.0
C673 C 0.52101 0.44871 1.00182 0.0
C674 C 0.56813 0.54062 0.99988 0.0
C675 C 0.55715 0.52808 0.04963 0.0
O676 O 0.52668 0.57198 0.02812 0.0
O677 O 0.55502 0.5778 0.03237 0.0
O678 O 0.52185 0.53788 0.04099 0.0
O679 O 0.52167 0.52437 0.01426 0.0
O680 O 0.53185 0.55055 0.99347 0.0
O681 O 0.52872 0.51953 0.98141 0.0
O682 O 0.55483 0.49065 1.00218 0.0
O683 O 0.52677 0.4869 0.99569 0.0
O684 O 0.56167 0.52519 0.98835 0.0
O685 O 0.56145 0.53961 0.01464 0.0
O686 O 0.55122 0.5136 0.03579 0.0
O687 O 0.5555 0.54492 0.04727 0.0
H688 H 0.52816 0.61543 0.03839 0.0
H689 H 0.52968 0.64056 0.02067 0.0
H690 H 0.55834 0.61289 0.98234 0.0
H691 H 0.55617 0.58757 0.99972 0.0
H692 H 0.55857 0.47338 0.02873 0.0
H693 H 0.55126 0.44768 0.04543 0.0
H694 H 0.50462 0.4237 0.00677 0.0
H695 H 0.51241 0.44892 0.98971 0.0
La696 La 0.80952 0.29695 0.26378 0.0
La697 La 0.77571 0.26962 0.26219 0.0
C698 C 0.84008 0.31567 0.27483 0.0
C699 C 0.85706 0.31073 0.2752 0.0
C700 C 0.8598 0.29626 0.26201 0.0
C701 C 0.87551 0.29057 0.26342 0.0
C702 C 0.88855 0.29908 0.27818 0.0
C703 C 0.88581 0.31365 0.29127 0.0
C704 C 0.87017 0.31944 0.28976 0.0
C705 C 0.7948 0.28098 0.23056 0.0
C706 C 0.80955 0.25236 0.264 0.0
C707 C 0.74505 0.25126 0.2511 0.0
C708 C 0.7288 0.25741 0.24774 0.0
C709 C 0.72435 0.27108 0.26059 0.0
C710 C 0.71056 0.2791 0.25588 0.0
C711 C 0.70132 0.27381 0.23816 0.0
C712 C 0.70544 0.25977 0.22553 0.0
C713 C 0.71903 0.25156 0.23033 0.0
C714 C 0.7905 0.28601 0.29541 0.0
C715 C 0.77554 0.31401 0.26169 0.0
O716 O 0.83199 0.31517 0.25852 0.0
O717 O 0.82963 0.30776 0.28559 0.0
O718 O 0.80418 0.29798 0.23456 0.0
O719 O 0.79527 0.27352 0.24454 0.0
O720 O 0.81856 0.27021 0.2661 0.0
O721 O 0.79208 0.24861 0.26126 0.0
O722 O 0.7521 0.25386 0.26823 0.0
O723 O 0.75661 0.25623 0.2401 0.0
O724 O 0.78141 0.26886 0.29147 0.0
O725 O 0.78987 0.29319 0.28127 0.0
O726 O 0.76664 0.29607 0.25875 0.0
O727 O 0.79295 0.31785 0.26545 0.0
H728 H 0.84967 0.28914 0.25083 0.0
H729 H 0.87729 0.27923 0.25325 0.0
H730 H 0.89579 0.32055 0.30267 0.0
H731 H 0.86817 0.33049 0.30015 0.0
H732 H 0.73191 0.27609 0.27402 0.0
H733 H 0.70754 0.28991 0.26579 0.0
H734 H 0.69825 0.25529 0.21187 0.0
H735 H 0.72239 0.24119 0.22019 0.0
La736 La 0.04898 0.52878 0.53065 0.0
La737 La 0.02527 0.51659 0.49462 0.0
C738 C 0.05985 0.53816 0.56417 0.0
C739 C 0.04898 0.53633 0.57917 0.0
C740 C 0.05308 0.52648 0.59288 0.0
C741 C 0.0405 0.52009 0.60402 0.0
C742 C 0.02363 0.52332 0.6014 0.0
C743 C 0.01996 0.5341 0.58841 0.0
C744 C 0.0325 0.54065 0.5775 0.0
C745 C 0.05673 0.5026 0.50713 0.0
C746 C 0.01082 0.50188 0.52742 0.0
C747 C 0.01471 0.50646 0.46111 0.0
C748 C 0.02477 0.51089 0.446 0.0
C749 C 0.01818 0.5201 0.43296 0.0
C750 C 0.02911 0.52841 0.42127 0.0
C751 C 0.04681 0.52754 0.42241 0.0
C752 C 0.05313 0.51753 0.43488 0.0
C753 C 0.04226 0.50937 0.44662 0.0
C754 C 0.01778 0.54342 0.5177 0.0
C755 C 0.06237 0.54547 0.49807 0.0
O756 O 0.06056 0.52217 0.55443 0.0
O757 O 0.0571 0.55015 0.55378 0.0
O758 O 0.06834 0.51551 0.51812 0.0
O759 O 0.04164 0.50413 0.51027 0.0
O760 O 0.0233 0.51533 0.53758 0.0
O761 O 0.01063 0.49734 0.50949 0.0
O762 O 0.01127 0.52102 0.47111 0.0
O763 O 0.02023 0.49548 0.47121 0.0
O764 O 0.00608 0.5308 0.50644 0.0
O765 O 0.03279 0.54137 0.51486 0.0
O766 O 0.05017 0.532 0.48757 0.0
O767 O 0.06312 0.5488 0.51616 0.0
H768 H 0.06561 0.52275 0.59418 0.0
H769 H 0.04367 0.51183 0.61399 0.0
H770 H 0.00715 0.53696 0.58622 0.0
H771 H 0.02881 0.548 0.56691 0.0
H772 H 0.00483 0.52173 0.43249 0.0
H773 H 0.02387 0.5361 0.41185 0.0
H774 H 0.06654 0.51608 0.43569 0.0
H775 H 0.04778 0.50246 0.45662 0.0
La776 La 0.77127 0.78377 0.26191 0.0
La777 La 0.81152 0.78071 0.26531 0.0
C778 C 0.7386 0.77472 0.26269 0.0
C779 C 0.72501 0.77809 0.27471 0.0
C780 C 0.71064 0.78436 0.26784 0.0
C781 C 0.69646 0.78504 0.27793 0.0
C782 C 0.69618 0.77925 0.2951 0.0
C783 C 0.7109 0.77358 0.30221 0.0
C784 C 0.72512 0.77306 0.2922 0.0
C785 C 0.79389 0.81715 0.26215 0.0
C786 C 0.79406 0.79219 0.30143 0.0
C787 C 0.84445 0.78827 0.26573 0.0
C788 C 0.85803 0.78903 0.2531 0.0
C789 C 0.87358 0.78405 0.25849 0.0
C790 C 0.887 0.785 0.24727 0.0
C791 C 0.88524 0.79098 0.23031 0.0
C792 C 0.86956 0.79592 0.22486 0.0
C793 C 0.85604 0.7949 0.23613 0.0
C794 C 0.78869 0.74752 0.2657 0.0
C795 C 0.78887 0.77247 0.22594 0.0
O796 O 0.74614 0.78818 0.25457 0.0
O797 O 0.7497 0.76562 0.26865 0.0
O798 O 0.77696 0.81437 0.26172 0.0
O799 O 0.7968 0.80114 0.26276 0.0
O800 O 0.77849 0.78909 0.29161 0.0
O801 O 0.80869 0.79091 0.29408 0.0
O802 O 0.83506 0.77174 0.26648 0.0
O803 O 0.835 0.80071 0.26617 0.0
O804 O 0.80566 0.7507 0.26801 0.0
O805 O 0.78592 0.76322 0.26349 0.0
O806 O 0.80467 0.777 0.23558 0.0
O807 O 0.77413 0.77242 0.23351 0.0
H808 H 0.71014 0.78824 0.25439 0.0
H809 H 0.68559 0.78986 0.27211 0.0
H810 H 0.7112 0.76879 0.31522 0.0
H811 H 0.73591 0.76806 0.29794 0.0
H812 H 0.87543 0.77957 0.27155 0.0
H813 H 0.89895 0.78138 0.2521 0.0
H814 H 0.86767 0.80041 0.21182 0.0
H815 H 0.84412 0.79875 0.23162 0.0
La816 La 0.79389 0.28508 0.75041 0.0
La817 La 0.78251 0.29752 0.78593 0.0
C818 C 0.79774 0.27225 0.71797 0.0
C819 C 0.80815 0.27952 0.70414 0.0
C820 C 0.81374 0.26728 0.69088 0.0
C821 C 0.82203 0.27392 0.67652 0.0
C822 C 0.82465 0.29287 0.67512 0.0
C823 C 0.81984 0.3052 0.68911 0.0
C824 C 0.8118 0.29861 0.70353 0.0
C825 C 0.81875 0.29227 0.77892 0.0
C826 C 0.80288 0.32718 0.76557 0.0
C827 C 0.77878 0.30381 0.81938 0.0
C828 C 0.78089 0.2934 0.8344 0.0
C829 C 0.76618 0.2823 0.8399 0.0
C830 C 0.76823 0.27122 0.85302 0.0
C831 C 0.78502 0.2712 0.86099 0.0
C832 C 0.7997 0.2827 0.85589 0.0
C833 C 0.79767 0.29371 0.84275 0.0
C834 C 0.76217 0.30212 0.75748 0.0
C835 C 0.77335 0.25448 0.77036 0.0
O836 O 0.80651 0.26911 0.73241 0.0
O837 O 0.7853 0.28064 0.72231 0.0
O838 O 0.82116 0.29645 0.7629 0.0
O839 O 0.80289 0.28421 0.77843 0.0
O840 O 0.79835 0.31469 0.75032 0.0
O841 O 0.80056 0.32254 0.78176 0.0
O842 O 0.7657 0.29613 0.80641 0.0
O843 O 0.79315 0.31071 0.8127 0.0
O844 O 0.76584 0.31313 0.77329 0.0
O845 O 0.76906 0.28846 0.75837 0.0
O846 O 0.77313 0.26765 0.78438 0.0
O847 O 0.78041 0.25824 0.75552 0.0
H848 H 0.81121 0.25253 0.69131 0.0
H849 H 0.82585 0.26409 0.6662 0.0
H850 H 0.82133 0.31982 0.68845 0.0
H851 H 0.80774 0.30833 0.71376 0.0
H852 H 0.7531 0.28192 0.83381 0.0
H853 H 0.75669 0.26266 0.85692 0.0
H854 H 0.8128 0.28282 0.86171 0.0
H855 H 0.80931 0.30214 0.8389 0.0
La856 La 0.80405 0.80224 0.7698 0.0
La857 La 0.78323 0.76394 0.7567 0.0
C858 C 0.82323 0.83435 0.77207 0.0
C859 C 0.81911 0.85242 0.77056 0.0
C860 C 0.82181 0.8664 0.78628 0.0
C861 C 0.8149 0.88207 0.78595 0.0
C862 C 0.8052 0.8839 0.7699 0.0
C863 C 0.8037 0.87067 0.7538 0.0
C864 C 0.81067 0.8551 0.7541 0.0
C865 C 0.79716 0.78306 0.79641 0.0
C866 C 0.76432 0.79635 0.77036 0.0
C867 C 0.76495 0.73122 0.75351 0.0
C868 C 0.77107 0.71411 0.75429 0.0
C869 C 0.76081 0.69649 0.74588 0.0
C870 C 0.76777 0.68066 0.74547 0.0
C871 C 0.7851 0.68252 0.75318 0.0
C872 C 0.79506 0.70011 0.76193 0.0
C873 C 0.78812 0.71568 0.76248 0.0
C874 C 0.78994 0.78365 0.73031 0.0
C875 C 0.82328 0.76994 0.75715 0.0
O876 O 0.81819 0.82737 0.78634 0.0
O877 O 0.81975 0.82168 0.75705 0.0
O878 O 0.79836 0.80079 0.79786 0.0
O879 O 0.80108 0.77684 0.78083 0.0
O880 O 0.77861 0.80874 0.76895 0.0
O881 O 0.76371 0.77828 0.76729 0.0
O882 O 0.76911 0.73911 0.7395 0.0
O883 O 0.76828 0.74337 0.76888 0.0
O884 O 0.78924 0.76601 0.72872 0.0
O885 O 0.78591 0.78942 0.74591 0.0
O886 O 0.80871 0.75755 0.75741 0.0
O887 O 0.82402 0.78798 0.76048 0.0
H888 H 0.82842 0.86471 0.79908 0.0
H889 H 0.81622 0.89212 0.79852 0.0
H890 H 0.79654 0.87201 0.74116 0.0
H891 H 0.80873 0.84482 0.74163 0.0
H892 H 0.74764 0.69505 0.7394 0.0
H893 H 0.75985 0.66715 0.73874 0.0
H894 H 0.80835 0.70185 0.76829 0.0
H895 H 0.79627 0.72902 0.76908 0.0
La896 La 0.5225 0.52222 0.50224 0.0
La897 La 0.55618 0.54606 0.52405 0.0
C898 C 0.4905 0.50725 0.49386 0.0
C899 C 0.47533 0.51495 0.49751 0.0
C900 C 0.45977 0.50866 0.48544 0.0
C901 C 0.44627 0.518 0.48724 0.0
C902 C 0.4482 0.53364 0.50121 0.0
C903 C 0.46364 0.53958 0.51356 0.0
C904 C 0.47717 0.53042 0.5116 0.0
C905 C 0.54782 0.52313 0.47916 0.0
C906 C 0.5311 0.56637 0.50414 0.0
C907 C 0.58821 0.56129 0.53229 0.0
C908 C 0.60415 0.55425 0.53002 0.0
C909 C 0.61292 0.54958 0.54523 0.0
C910 C 0.62623 0.54014 0.54292 0.0
C911 C 0.63117 0.53539 0.5254 0.0
C912 C 0.62324 0.54113 0.51036 0.0
C913 C 0.60982 0.5505 0.51265 0.0
C914 C 0.53103 0.54538 0.54727 0.0
C915 C 0.54734 0.5019 0.52249 0.0
O916 O 0.50021 0.51555 0.48282 0.0
O917 O 0.49987 0.50469 0.50827 0.0
O918 O 0.53162 0.51409 0.4754 0.0
O919 O 0.54924 0.53081 0.49618 0.0
O920 O 0.51921 0.55036 0.5005 0.0
O921 O 0.54686 0.56787 0.51271 0.0
O922 O 0.57832 0.55378 0.54367 0.0
O923 O 0.57896 0.56285 0.51735 0.0
O924 O 0.54712 0.55482 0.55062 0.0
O925 O 0.52936 0.53742 0.53027 0.0
O926 O 0.5592 0.51796 0.5265 0.0
O927 O 0.53178 0.50034 0.51342 0.0
H928 H 0.4583 0.49696 0.47428 0.0
H929 H 0.43442 0.51316 0.47761 0.0
H930 H 0.46552 0.55176 0.52427 0.0
H931 H 0.48934 0.53586 0.52065 0.0
H932 H 0.609 0.55256 0.55882 0.0
H933 H 0.63242 0.5362 0.55479 0.0
H934 H 0.62689 0.53767 0.49672 0.0
H935 H 0.6035 0.55419 0.50071 0.0
La936 La 0.05986 0.53667 0.01338 0.0
La937 La 0.02008 0.53184 0.00988 0.0
C938 C 0.09049 0.53317 0.02225 0.0
C939 C 0.10067 0.51856 0.02203 0.0
C940 C 0.11311 0.51763 0.00965 0.0
C941 C 0.12416 0.50536 0.01037 0.0
C942 C 0.12319 0.49374 0.02361 0.0
C943 C 0.11046 0.49436 0.03578 0.0
C944 C 0.09933 0.50663 0.03501 0.0
C945 C 0.04658 0.54735 0.98456 0.0
C946 C 0.03395 0.49668 0.99607 0.0
C947 C 0.98879 0.53498 0.00564 0.0
C948 C 0.97872 0.54943 0.00378 0.0
C949 C 0.97548 0.56083 0.01951 0.0
C950 C 0.9639 0.57245 0.0181 0.0
C951 C 0.95516 0.57298 1.00095 0.0
C952 C 0.95907 0.56234 0.9851 0.0
C953 C 0.97064 0.55062 0.98651 0.0
C954 C 0.03474 0.52195 0.03859 0.0
C955 C 0.04588 0.5721 0.02457 0.0
O956 O 0.0852 0.53693 0.00638 0.0
O957 O 0.07865 0.53332 0.03359 0.0
O958 O 0.06246 0.55423 0.99255 0.0
O959 O 0.03941 0.53358 0.99139 0.0
O960 O 0.04984 0.50653 0.00333 0.0
O961 O 0.02013 0.5041 0.99547 0.0
O962 O 0.99779 0.53627 0.02163 0.0
O963 O 0.99717 0.5297 0.99198 0.0
O964 O 0.01956 0.51315 0.02995 0.0
O965 O 0.04059 0.53585 0.03157 0.0
O966 O 0.0305 0.56236 0.01571 0.0
O967 O 0.05906 0.56416 0.02773 0.0
H968 H 0.11465 0.52681 0.99968 0.0
H969 H 0.13396 0.50552 1.00098 0.0
H970 H 0.10923 0.4855 0.04603 0.0
H971 H 0.08997 0.50702 0.04485 0.0
H972 H 0.98142 0.56033 0.03306 0.0
H973 H 0.96143 0.58071 0.03055 0.0
H974 H 0.95252 0.56237 0.97168 0.0
H975 H 0.97276 0.54196 0.97414 0.0
H976 H 0.02 0.22532 0.95746 0.0
H977 H 0.02222 0.19848 0.97187 0.0
H978 H 0.99008 0.16151 0.92506 0.0
H979 H 0.98792 0.18835 0.91046 0.0
H980 H 0.98155 0.15109 0.95882 0.0
H981 H 0.033 0.16635 0.92844 0.0
H982 H 0.05942 0.18718 0.92137 0.0
H983 H 0.08123 0.19808 0.97809 0.0
H984 H 0.05482 0.17751 0.98555 0.0
H985 H 1.00191 0.06638 0.97677 0.0
H986 H 0.99633 0.093 0.96395 0.0
H987 H 0.03772 0.12983 1.00301 0.0
H988 H 0.04394 0.10306 0.01518 0.0
H989 H 0.0408 0.14059 0.97308 0.0
H990 H 0.99026 0.12528 0.00416 0.0
H991 H 0.96385 0.10517 0.01213 0.0
H992 H 0.94002 0.09536 0.95621 0.0
H993 H 0.96641 0.11516 0.94782 0.0
C994 C 0.01322 0.21152 0.95027 0.0
C995 C 0.00379 0.2091 0.93273 0.0
C996 C 0.01456 0.19612 0.95853 0.0
C997 C 0.00645 0.17783 0.94955 0.0
C998 C 0.99648 0.17541 0.93233 0.0
C999 C 0.99528 0.19081 0.92397 0.0
C1000 C 0.00905 0.1613 0.95775 0.0
C1001 C 0.99448 0.14866 0.96178 0.0
C1002 C 0.02593 0.15826 0.96206 0.0
C1003 C 0.04186 0.17054 0.95758 0.0
C1004 C 0.04337 0.1733 0.93943 0.0
C1005 C 0.05835 0.18504 0.93535 0.0
C1006 C 0.07197 0.19399 0.94928 0.0
C1007 C 0.07066 0.19116 0.96732 0.0
C1008 C 0.05569 0.17946 0.97148 0.0
C1009 C 0.00973 0.08017 0.98278 0.0
C1010 C 0.02336 0.08248 0.99711 0.0
C1011 C 0.00644 0.09551 0.97546 0.0
C1012 C 0.01635 0.11375 0.98259 0.0
C1013 C 0.02981 0.11606 0.99711 0.0
C1014 C 0.03333 0.10067 0.00418 0.0
C1015 C 0.0133 0.13027 0.97447 0.0
C1016 C 0.02781 0.14294 0.97033 0.0
C1017 C 0.99636 0.13342 0.97028 0.0
C1018 C 0.98041 0.12157 0.97532 0.0
C1019 C 0.97945 0.11873 0.99353 0.0
C1020 C 0.96447 0.10739 0.99813 0.0
C1021 C 0.95028 0.09895 0.98468 0.0
C1022 C 0.95103 0.10188 0.96661 0.0
C1023 C 0.96599 0.11316 0.96192 0.0
H1024 H 0.93871 0.09017 0.98827 0.0
H1025 H 0.08356 0.20307 0.94609 0.0
H1026 H 0.14143 0.80479 0.12469 0.0
H1027 H 0.16778 0.79993 0.1414 0.0
H1028 H 0.14967 0.81796 0.19289 0.0
H1029 H 0.1234 0.82287 0.17631 0.0
H1030 H 0.18438 0.83311 0.19347 0.0
H1031 H 0.14563 0.77155 0.17527 0.0
H1032 H 0.12762 0.74509 0.15259 0.0
H1033 H 0.17281 0.7394 0.12574 0.0
H1034 H 0.19105 0.76601 0.14813 0.0
H1035 H 0.22751 0.79934 0.26108 0.0
H1036 H 0.20591 0.80414 0.23812 0.0
H1037 H 0.23386 0.78355 0.19494 0.0
H1038 H 0.25569 0.77834 0.21828 0.0
H1039 H 0.19761 0.77055 0.18619 0.0
H1040 H 0.23711 0.82944 0.20537 0.0
H1041 H 0.25575 0.85608 0.22731 0.0
H1042 H 0.21043 0.86752 0.25079 0.0
H1043 H 0.19153 0.84075 0.22918 0.0
C1044 C 0.14311 0.80785 0.13957 0.0
C1045 C 0.13022 0.81422 0.14913 0.0
C1046 C 0.15817 0.80495 0.14913 0.0
C1047 C 0.16072 0.80837 0.16847 0.0
C1048 C 0.14807 0.81518 0.17799 0.0
C1049 C 0.133 0.81797 0.16847 0.0
C1050 C 0.17638 0.80476 0.17894 0.0
C1051 C 0.18717 0.81939 0.19193 0.0
C1052 C 0.18057 0.78705 0.17652 0.0
C1053 C 0.16966 0.77089 0.16324 0.0
C1054 C 0.1517 0.76473 0.16445 0.0
C1055 C 0.14145 0.7497 0.15166 0.0
C1056 C 0.14905 0.74061 0.1377 0.0
C1057 C 0.16693 0.74648 0.13654 0.0
C1058 C 0.17723 0.76153 0.14929 0.0
C1059 C 0.22913 0.79574 0.24671 0.0
C1060 C 0.24348 0.78864 0.24153 0.0
C1061 C 0.21673 0.79858 0.23354 0.0
C1062 C 0.21832 0.79457 0.21473 0.0
C1063 C 0.23237 0.7869 0.20937 0.0
C1064 C 0.24489 0.78401 0.22268 0.0
C1065 C 0.20527 0.79879 0.20108 0.0
C1066 C 0.19498 0.78433 0.18753 0.0
C1067 C 0.20163 0.81673 0.20279 0.0
C1068 C 0.2129 0.833 0.21572 0.0
C1069 C 0.23112 0.83756 0.21529 0.0
C1070 C 0.24174 0.85269 0.22766 0.0
C1071 C 0.23428 0.86347 0.24045 0.0
C1072 C 0.21619 0.85916 0.24087 0.0
C1073 C 0.20551 0.84401 0.22855 0.0
H1074 H 0.24252 0.87518 0.25003 0.0
H1075 H 0.14109 0.72899 0.12779 0.0
H1076 H 0.5455 0.83655 0.42368 0.0
H1077 H 0.54767 0.86752 0.44169 0.0
H1078 H 0.49991 0.84676 0.46369 0.0
H1079 H 0.4979 0.81541 0.44593 0.0
H1080 H 0.50147 0.8803 0.44687 0.0
H1081 H 0.53425 0.8576 0.49211 0.0
H1082 H 0.55719 0.84287 0.50336 0.0
H1083 H 0.59678 0.88582 0.48925 0.0
H1084 H 0.57406 0.90066 0.47765 0.0
H1085 H 0.50617 0.96879 0.50145 0.0
H1086 H 0.50285 0.93536 0.49098 0.0
H1087 H 0.55708 0.94529 0.48152 0.0
H1088 H 0.56066 0.97857 0.49296 0.0
H1089 H 0.55055 0.91559 0.49414 0.0
H1090 H 0.52005 0.93651 0.44593 0.0
H1091 H 0.49859 0.9516 0.43216 0.0
H1092 H 0.45659 0.9128 0.44832 0.0
H1093 H 0.47784 0.89763 0.46242 0.0
C1094 C 0.53562 0.83847 0.43261 0.0
C1095 C 0.52156 0.82349 0.43342 0.0
C1096 C 0.53688 0.8562 0.4429 0.0
C1097 C 0.52395 0.8595 0.45403 0.0
C1098 C 0.51005 0.84452 0.45521 0.0
C1099 C 0.50898 0.82659 0.44517 0.0
C1100 C 0.52464 0.87886 0.46351 0.0
C1101 C 0.51198 0.88794 0.4575 0.0
C1102 C 0.53873 0.88903 0.47684 0.0
C1103 C 0.55243 0.88016 0.48387 0.0
C1104 C 0.54784 0.86382 0.49125 0.0
C1105 C 0.5608 0.85547 0.49773 0.0
C1106 C 0.57843 0.86338 0.49699 0.0
C1107 C 0.58312 0.8797 0.4898 0.0
C1108 C 0.5702 0.8881 0.4833 0.0
C1109 C 0.5174 0.96384 0.49718 0.0
C1110 C 0.53365 0.97641 0.49794 0.0
C1111 C 0.51546 0.94467 0.49106 0.0
C1112 C 0.52959 0.93763 0.48499 0.0
C1113 C 0.54591 0.9502 0.48606 0.0
C1114 C 0.54795 0.96931 0.49257 0.0
C1115 C 0.52743 0.9173 0.4774 0.0
C1116 C 0.53987 0.908 0.48368 0.0
C1117 C 0.51336 0.90704 0.46395 0.0
C1118 C 0.50055 0.91607 0.45541 0.0
C1119 C 0.50625 0.93128 0.44666 0.0
C1120 C 0.49412 0.93983 0.43878 0.0
C1121 C 0.47624 0.9332 0.43942 0.0
C1122 C 0.47045 0.91795 0.44788 0.0
C1123 C 0.48253 0.90936 0.4558 0.0
H1124 H 0.46687 0.93985 0.43331 0.0
H1125 H 0.58845 0.8569 0.50201 0.0
H1126 H 0.53227 0.29545 0.68699 0.0
H1127 H 0.50333 0.29379 0.69649 0.0
H1128 H 0.48589 0.30982 0.64612 0.0
H1129 H 0.51525 0.31178 0.63645 0.0
H1130 H 0.47258 0.32676 0.67641 0.0
H1131 H 0.47478 0.26504 0.6497 0.0
H1132 H 0.48726 0.23738 0.64445 0.0
H1133 H 0.48516 0.23193 0.70097 0.0
H1134 H 0.4729 0.25973 0.70663 0.0
H1135 H 0.38362 0.29673 0.69687 0.0
H1136 H 0.41003 0.30108 0.68124 0.0
H1137 H 0.43803 0.28445 0.72574 0.0
H1138 H 0.41191 0.28021 0.74139 0.0
H1139 H 0.44369 0.26694 0.69336 0.0
H1140 H 0.44364 0.33037 0.72037 0.0
H1141 H 0.43035 0.35748 0.72529 0.0
H1142 H 0.42759 0.35922 0.6676 0.0
H1143 H 0.4406 0.33189 0.6623 0.0
C1144 C 0.52239 0.29873 0.67787 0.0
C1145 C 0.52613 0.30355 0.66081 0.0
C1146 C 0.50576 0.29773 0.68336 0.0
C1147 C 0.49228 0.30134 0.67191 0.0
C1148 C 0.49605 0.30688 0.65516 0.0
C1149 C 0.51283 0.30796 0.64964 0.0
C1150 C 0.47424 0.29853 0.67741 0.0
C1151 C 0.4661 0.31359 0.6798 0.0
C1152 C 0.46578 0.28139 0.68198 0.0
C1153 C 0.47302 0.26456 0.67861 0.0
C1154 C 0.47709 0.25802 0.66104 0.0
C1155 C 0.4841 0.2423 0.65798 0.0
C1156 C 0.48702 0.23292 0.67237 0.0
C1157 C 0.48289 0.23921 0.68984 0.0
C1158 C 0.47589 0.25494 0.69297 0.0
C1159 C 0.39545 0.29416 0.70339 0.0
C1160 C 0.39554 0.28794 0.72034 0.0
C1161 C 0.41055 0.29663 0.69442 0.0
C1162 C 0.42608 0.29311 0.7023 0.0
C1163 C 0.4262 0.28711 0.71928 0.0
C1164 C 0.41119 0.28461 0.7282 0.0
C1165 C 0.44226 0.29532 0.69296 0.0
C1166 C 0.45004 0.28008 0.68979 0.0
C1167 C 0.45029 0.31225 0.68764 0.0
C1168 C 0.44292 0.32897 0.69091 0.0
C1169 C 0.44011 0.33647 0.70872 0.0
C1170 C 0.43263 0.35187 0.71158 0.0
C1171 C 0.42808 0.36003 0.69676 0.0
C1172 C 0.43109 0.35286 0.67906 0.0
C1173 C 0.43852 0.33742 0.67612 0.0
H1174 H 0.42226 0.37194 0.699 0.0
H1175 H 0.49246 0.22076 0.66998 0.0
H1176 H 0.97841 0.81315 0.63529 0.0
H1177 H 0.98037 0.84049 0.62068 0.0
H1178 H 0.9884 0.80835 0.5698 0.0
H1179 H 0.98627 0.78091 0.58426 0.0
H1180 H 0.00897 0.85752 0.6081 0.0
H1181 H 0.97467 0.82675 0.53379 0.0
H1182 H 0.9492 0.80225 0.51805 0.0
H1183 H 0.92435 0.80578 0.56736 0.0
H1184 H 0.94955 0.83048 0.58331 0.0
H1185 H 0.04186 0.91056 0.54228 0.0
H1186 H 0.03129 0.88518 0.5587 0.0
H1187 H 0.98138 0.89997 0.55923 0.0
H1188 H 0.99186 0.92536 0.54282 0.0
H1189 H 0.97837 0.86187 0.54833 0.0
H1190 H 0.00736 0.91112 0.59745 0.0
H1191 H 0.03159 0.93658 0.61414 0.0
H1192 H 0.06438 0.89792 0.6173 0.0
H1193 H 0.04042 0.87225 0.6004 0.0
C1194 C 0.98017 0.81177 0.62087 0.0
C1195 C 0.98229 0.79488 0.61095 0.0
C1196 C 0.98137 0.82744 0.61257 0.0
C1197 C 0.98458 0.82649 0.59418 0.0
C1198 C 0.98573 0.80938 0.58396 0.0
C1199 C 0.98453 0.79369 0.59225 0.0
C1200 C 0.98836 0.8437 0.58618 0.0
C1201 C 1.00219 0.8585 0.59509 0.0
C1202 C 0.97938 0.8451 0.56933 0.0
C1203 C 0.96408 0.83037 0.55979 0.0
C1204 C 0.96374 0.82236 0.54125 0.0
C1205 C 0.94935 0.80842 0.5323 0.0
C1206 C 0.93519 0.80243 0.54171 0.0
C1207 C 0.93536 0.81039 0.5601 0.0
C1208 C 0.9497 0.82434 0.56911 0.0
C1209 C 0.02863 0.90836 0.54586 0.0
C1210 C 0.01768 0.91993 0.54127 0.0
C1211 C 0.02265 0.89396 0.55532 0.0
C1212 C 0.00559 0.89079 0.56024 0.0
C1213 C 0.99459 0.90222 0.55557 0.0
C1214 C 1.00063 0.91677 0.5463 0.0
C1215 C 0.99922 0.87535 0.57003 0.0
C1216 C 0.98499 0.8609 0.56143 0.0
C1217 C 0.00767 0.87438 0.5873 0.0
C1218 C 0.02212 0.88978 0.5975 0.0
C1219 C 0.01978 0.90807 0.60156 0.0
C1220 C 0.03346 0.92253 0.61109 0.0
C1221 C 0.04952 0.91888 0.61673 0.0
C1222 C 0.05193 0.90073 0.6129 0.0
C1223 C 0.0383 0.88621 0.60337 0.0
H1224 H 0.0601 0.9301 0.62406 0.0
H1225 H 0.92407 0.79163 0.53476 0.0
H1226 H 0.5308 0.79094 0.85676 0.0
H1227 H 0.50085 0.77948 0.84155 0.0
H1228 H 0.51884 0.78774 0.78947 0.0
H1229 H 0.5487 0.79998 0.80479 0.0
H1230 H 0.49423 0.80422 0.79483 0.0
H1231 H 0.50041 0.74313 0.79898 0.0
H1232 H 0.50799 0.71801 0.81358 0.0
H1233 H 0.46979 0.72336 0.85077 0.0
H1234 H 0.46215 0.74871 0.83659 0.0
H1235 H 0.40709 0.78211 0.75528 0.0
H1236 H 0.4357 0.77476 0.76059 0.0
H1237 H 0.43032 0.77774 0.81827 0.0
H1238 H 0.40178 0.78505 0.81307 0.0
H1239 H 0.44854 0.75069 0.80453 0.0
H1240 H 0.44816 0.81596 0.80477 0.0
H1241 H 0.44049 0.84141 0.79075 0.0
H1242 H 0.46853 0.82768 0.74535 0.0
H1243 H 0.47611 0.80194 0.75898 0.0
C1244 C 0.52839 0.79001 0.84202 0.0
C1245 C 0.54199 0.79659 0.83198 0.0
C1246 C 0.51129 0.78327 0.83329 0.0
C1247 C 0.5076 0.78259 0.81431 0.0
C1248 C 0.52138 0.78817 0.80413 0.0
C1249 C 0.5384 0.79523 0.8129 0.0
C1250 C 0.48925 0.77868 0.80567 0.0
C1251 C 0.48438 0.79217 0.7965 0.0
C1252 C 0.47627 0.76322 0.80821 0.0
C1253 C 0.48077 0.74792 0.81677 0.0
C1254 C 0.49371 0.73905 0.81036 0.0
C1255 C 0.498 0.72475 0.81855 0.0
C1256 C 0.48939 0.71911 0.83311 0.0
C1257 C 0.47644 0.72774 0.83949 0.0
C1258 C 0.4721 0.74206 0.83136 0.0
C1259 C 0.41192 0.78086 0.76902 0.0
C1260 C 0.40243 0.78444 0.78383 0.0
C1261 C 0.42813 0.77651 0.77199 0.0
C1262 C 0.43512 0.77592 0.78984 0.0
C1263 C 0.42508 0.77808 0.80439 0.0
C1264 C 0.40883 0.78233 0.80141 0.0
C1265 C 0.45381 0.77627 0.79398 0.0
C1266 C 0.45863 0.7623 0.80241 0.0
C1267 C 0.46685 0.79128 0.79081 0.0
C1268 C 0.46251 0.80691 0.78276 0.0
C1269 C 0.45258 0.8183 0.79173 0.0
C1270 C 0.44826 0.83278 0.78387 0.0
C1271 C 0.45397 0.83613 0.76714 0.0
C1272 C 0.46407 0.82504 0.75828 0.0
C1273 C 0.46838 0.8105 0.76606 0.0
H1274 H 0.45062 0.84734 0.76107 0.0
H1275 H 0.49274 0.70804 0.83943 0.0
H1276 H 0.50805 0.1793 0.14053 0.0
H1277 H 0.50685 0.15153 0.11776 0.0
H1278 H 0.48548 0.17679 0.07551 0.0
H1279 H 0.48679 0.20481 0.09819 0.0
H1280 H 0.4813 0.12625 0.094 0.0
H1281 H 0.50528 0.16594 0.03717 0.0
H1282 H 0.52191 0.19704 0.03389 0.0
H1283 H 0.54973 0.2043 0.0878 0.0
H1284 H 0.53343 0.17317 0.09128 0.0
H1285 H 0.48451 0.05863 0.01496 0.0
H1286 H 0.47797 0.08537 0.03456 0.0
H1287 H 0.53331 0.10898 0.04985 0.0
H1288 H 0.53983 0.0828 0.02979 0.0
H1289 H 0.51768 0.13504 0.04331 0.0
H1290 H 0.50681 0.08439 0.0773 0.0
H1291 H 0.4924 0.0532 0.08233 0.0
H1292 H 0.4424 0.06717 0.07743 0.0
H1293 H 0.45646 0.09836 0.07192 0.0
C1294 C 0.50295 0.17894 0.12643 0.0
C1295 C 0.49771 0.19438 0.12114 0.0
C1296 C 0.50216 0.16298 0.11346 0.0
C1297 C 0.49622 0.16219 0.09496 0.0
C1298 C 0.49027 0.17723 0.08973 0.0
C1299 C 0.49103 0.19322 0.10271 0.0
C1300 C 0.49758 0.1462 0.08103 0.0
C1301 C 0.48912 0.12813 0.0828 0.0
C1302 C 0.50795 0.14871 0.06658 0.0
C1303 C 0.51798 0.16735 0.06455 0.0
C1304 C 0.51497 0.17418 0.04829 0.0
C1305 C 0.52434 0.1918 0.0464 0.0
C1306 C 0.53681 0.20267 0.06065 0.0
C1307 C 0.54001 0.19591 0.0768 0.0
C1308 C 0.5307 0.17829 0.07874 0.0
C1309 C 0.49523 0.06962 0.02246 0.0
C1310 C 0.51266 0.06864 0.02104 0.0
C1311 C 0.49149 0.08481 0.03369 0.0
C1312 C 0.50516 0.09907 0.04382 0.0
C1313 C 0.52256 0.09815 0.04216 0.0
C1314 C 0.52627 0.08312 0.03082 0.0
C1315 C 0.50156 0.11496 0.05634 0.0
C1316 C 0.50959 0.13309 0.05429 0.0
C1317 C 0.4911 0.11243 0.07074 0.0
C1318 C 0.48267 0.09366 0.07404 0.0
C1319 C 0.49272 0.08077 0.07715 0.0
C1320 C 0.48462 0.06309 0.08012 0.0
C1321 C 0.46651 0.05822 0.08028 0.0
C1322 C 0.45644 0.07098 0.07734 0.0
C1323 C 0.46446 0.08865 0.07427 0.0
H1324 H 0.46026 0.04459 0.08275 0.0
H1325 H 0.54404 0.21632 0.05917 0.0
H1326 H 0.15183 0.33235 0.38622 0.0
H1327 H 0.17911 0.33539 0.37191 0.0
H1328 H 0.15745 0.28284 0.33535 0.0
H1329 H 0.13036 0.27988 0.34936 0.0
H1330 H 0.19271 0.28785 0.3478 0.0
H1331 H 0.15269 0.32136 0.32154 0.0
H1332 H 0.13518 0.34511 0.32418 0.0
H1333 H 0.18155 0.38779 0.34559 0.0
H1334 H 0.19933 0.36425 0.34317 0.0
H1335 H 0.22801 0.27938 0.26772 0.0
H1336 H 0.2053 0.28549 0.28657 0.0
H1337 H 0.23854 0.33876 0.31243 0.0
H1338 H 0.2612 0.33301 0.29327 0.0
H1339 H 0.20214 0.33796 0.31049 0.0
H1340 H 0.24275 0.30352 0.33 0.0
H1341 H 0.25904 0.2789 0.3251 0.0
H1342 H 0.21091 0.23699 0.31653 0.0
H1343 H 0.19424 0.26142 0.32072 0.0
C1344 C 0.15317 0.32123 0.37546 0.0
C1345 C 0.13907 0.30592 0.36871 0.0
C1346 C 0.16865 0.32306 0.3673 0.0
C1347 C 0.17014 0.30943 0.35251 0.0
C1348 C 0.15652 0.2935 0.34677 0.0
C1349 C 0.14105 0.29181 0.3547 0.0
C1350 C 0.18492 0.31229 0.34158 0.0
C1351 C 0.19488 0.29885 0.33972 0.0
C1352 C 0.18785 0.32686 0.33132 0.0
C1353 C 0.17728 0.34105 0.33237 0.0
C1354 C 0.15913 0.33581 0.32688 0.0
C1355 C 0.14917 0.34923 0.32831 0.0
C1356 C 0.15726 0.36795 0.33506 0.0
C1357 C 0.17533 0.3733 0.34033 0.0
C1358 C 0.18535 0.35993 0.33893 0.0
C1359 C 0.23027 0.29267 0.27696 0.0
C1360 C 0.24653 0.30548 0.27941 0.0
C1361 C 0.21728 0.29615 0.28769 0.0
C1362 C 0.22055 0.31229 0.30124 0.0
C1363 C 0.2359 0.32613 0.30216 0.0
C1364 C 0.24885 0.32277 0.29122 0.0
C1365 C 0.20943 0.31308 0.31621 0.0
C1366 C 0.2003 0.32723 0.31889 0.0
C1367 C 0.20719 0.2991 0.32723 0.0
C1368 C 0.21723 0.28434 0.32556 0.0
C1369 C 0.23561 0.28906 0.32696 0.0
C1370 C 0.24492 0.27513 0.32425 0.0
C1371 C 0.23602 0.25638 0.32049 0.0
C1372 C 0.21779 0.25153 0.31945 0.0
C1373 C 0.2084 0.26542 0.32195 0.0
H1374 H 0.24321 0.24559 0.31838 0.0
H1375 H 0.14953 0.37833 0.33619 0.0
H1376 H 0.97008 0.05936 0.21231 0.0
H1377 H 0.98425 0.05724 0.18411 0.0
H1378 H 0.93376 0.04024 0.1516 0.0
H1379 H 0.91956 0.04211 0.17989 0.0
H1380 H 0.9534 0.02122 0.13383 0.0
H1381 H 0.96488 0.08703 0.15746 0.0
H1382 H 0.97566 0.11581 0.1806 0.0
H1383 H 0.02737 0.10587 0.18403 0.0
H1384 H 0.01685 0.07692 0.16106 0.0
H1385 H 0.99159 0.03016 0.04785 0.0
H1386 H 0.97467 0.03127 0.07429 0.0
H1387 H 0.02223 0.05723 0.11053 0.0
H1388 H 0.03857 0.05736 0.08432 0.0
H1389 H 1.00238 0.0721 0.12583 0.0
H1390 H 0.99156 0.0057 0.10407 0.0
H1391 H 0.98144 0.97658 0.08126 0.0
H1392 H 0.92991 0.98674 0.07474 0.0
H1393 H 0.93977 0.016 0.09741 0.0
C1394 C 0.96185 0.05522 0.19923 0.0
C1395 C 0.94339 0.05108 0.19896 0.0
C1396 C 0.9701 0.05409 0.18277 0.0
C1397 C 0.96045 0.04884 0.16493 0.0
C1398 C 0.94198 0.0444 0.16469 0.0
C1399 C 0.93372 0.04558 0.18116 0.0
C1400 C 0.96945 0.04803 0.14687 0.0
C1401 C 0.96401 0.03254 0.13218 0.0
C1402 C 0.98369 0.06231 0.14395 0.0
C1403 C 0.99004 0.07973 0.15768 0.0
C1404 C 0.97853 0.09093 0.16323 0.0
C1405 C 0.9846 0.10728 0.17631 0.0
C1406 C 1.00218 0.11264 0.18382 0.0
C1407 C 0.01375 0.10169 0.17823 0.0
C1408 C 0.00775 0.08532 0.16517 0.0
C1409 C 0.99847 0.03623 0.06137 0.0
C1410 C 0.01677 0.04382 0.06333 0.0
C1411 C 0.98869 0.03666 0.07691 0.0
C1412 C 0.99673 0.04418 0.09536 0.0
C1413 C 0.01503 0.05145 0.09705 0.0
C1414 C 0.02461 0.05138 0.08166 0.0
C1415 C 0.98673 0.04503 0.11282 0.0
C1416 C 0.9919 0.06063 0.12742 0.0
C1417 C 0.97242 0.03074 0.11572 0.0
C1418 C 0.96643 0.0131 0.10228 0.0
C1419 C 0.97808 1.00175 0.09771 0.0
C1420 C 0.9724 0.98522 0.08482 0.0
C1421 C 0.95506 0.97984 0.07652 0.0
C1422 C 0.94334 0.99094 0.08116 0.0
C1423 C 0.94896 0.00748 0.09404 0.0
H1424 H 0.95068 0.96705 0.06652 0.0
H1425 H 0.00685 0.12529 0.19394 0.0
H1426 H 0.26827 0.64673 0.45102 0.0
H1427 H 0.25825 0.66032 0.42541 0.0
H1428 H 0.26241 0.71226 0.4624 0.0
H1429 H 0.27222 0.69874 0.48811 0.0
H1430 H 0.23103 0.70098 0.44059 0.0
H1431 H 0.29236 0.70765 0.43324 0.0
H1432 H 0.31931 0.6966 0.42908 0.0
H1433 H 0.29404 0.66014 0.37891 0.0
H1434 H 0.26686 0.67081 0.3829 0.0
H1435 H 0.24138 0.77144 0.38738 0.0
H1436 H 0.23858 0.74892 0.40796 0.0
H1437 H 0.2345 0.7044 0.36182 0.0
H1438 H 0.23816 0.72695 0.34128 0.0
H1439 H 0.26163 0.70642 0.38537 0.0
H1440 H 0.20175 0.70414 0.39019 0.0
H1441 H 0.17528 0.71612 0.39413 0.0
H1442 H 0.19755 0.74485 0.44856 0.0
H1443 H 0.22428 0.73328 0.44487 0.0
C1444 C 0.26731 0.66114 0.45365 0.0
C1445 C 0.27104 0.67169 0.47156 0.0
C1446 C 0.26153 0.66884 0.43902 0.0
C1447 C 0.25952 0.68724 0.44207 0.0
C1448 C 0.26374 0.69797 0.45983 0.0
C1449 C 0.26949 0.69028 0.47446 0.0
C1450 C 0.25281 0.69534 0.42684 0.0
C1451 C 0.23773 0.7023 0.42853 0.0
C1452 C 0.2612 0.69634 0.41084 0.0
C1453 C 0.27751 0.68984 0.4085 0.0
C1454 C 0.2925 0.69714 0.42142 0.0
C1455 C 0.30783 0.69098 0.41907 0.0
C1456 C 0.30837 0.67762 0.40378 0.0
C1457 C 0.29359 0.67044 0.39077 0.0
C1458 C 0.27822 0.67655 0.39307 0.0
C1459 C 0.23938 0.75679 0.38156 0.0
C1460 C 0.2404 0.75104 0.3628 0.0
C1461 C 0.23758 0.74387 0.39331 0.0
C1462 C 0.23649 0.72498 0.38643 0.0
C1463 C 0.23543 0.71894 0.3674 0.0
C1464 C 0.23738 0.73187 0.35565 0.0
C1465 C 0.24003 0.71259 0.39924 0.0
C1466 C 0.25459 0.70478 0.39717 0.0
C1467 C 0.23116 0.71088 0.41487 0.0
C1468 C 0.21509 0.71789 0.4172 0.0
C1469 C 0.20107 0.71312 0.40295 0.0
C1470 C 0.186 0.71983 0.40515 0.0
C1471 C 0.18474 0.73126 0.42157 0.0
C1472 C 0.19854 0.73599 0.43585 0.0
C1473 C 0.21365 0.72933 0.43372 0.0
H1474 H 0.17306 0.73644 0.42325 0.0
H1475 H 0.32025 0.67288 0.40198 0.0
H1476 H 0.61869 0.98656 0.68357 0.0
H1477 H 0.6004 0.98606 0.65506 0.0
H1478 H 0.64296 0.02394 0.63814 0.0
H1479 H 0.66149 0.02418 0.66638 0.0
H1480 H 0.60882 0.03545 0.64385 0.0
H1481 H 0.63329 0.98684 0.6126 0.0
H1482 H 0.64095 0.95628 0.60851 0.0
H1483 H 0.58679 0.92881 0.60592 0.0
H1484 H 0.57883 0.95925 0.61023 0.0
H1485 H 0.56908 0.05002 0.56164 0.0
H1486 H 0.58888 0.04362 0.58549 0.0
H1487 H 0.55188 0.99221 0.5872 0.0
H1488 H 0.53262 0.99791 0.56207 0.0
H1489 H 0.58302 0.98632 0.58941 0.0
H1490 H 0.5575 0.03267 0.62079 0.0
H1491 H 0.54815 0.06229 0.62648 0.0
H1492 H 0.6016 0.09294 0.63162 0.0
H1493 H 0.61126 0.0635 0.62573 0.0
C1494 C 0.6243 0.99435 0.67352 0.0
C1495 C 0.64142 0.00553 0.6772 0.0
C1496 C 0.61387 0.994 0.65726 0.0
C1497 C 0.6204 0.005 0.64465 0.0
C1498 C 0.63781 0.01532 0.64777 0.0
C1499 C 0.64835 0.0154 0.66386 0.0
C1500 C 0.60835 0.00785 0.62971 0.0
C1501 C 0.60335 0.02486 0.63176 0.0
C1502 C 0.60072 0.99363 0.61453 0.0
C1503 C 0.60549 0.97533 0.61195 0.0
C1504 C 0.62304 0.9743 0.61135 0.0
C1505 C 0.62743 0.95699 0.60894 0.0
C1506 C 0.61437 0.94062 0.60702 0.0
C1507 C 0.59689 0.94151 0.60744 0.0
C1508 C 0.59243 0.95878 0.60985 0.0
C1509 C 0.5653 0.03722 0.56692 0.0
C1510 C 0.54955 0.02427 0.55985 0.0
C1511 C 0.5765 0.0337 0.58074 0.0
C1512 C 0.57176 0.01756 0.58834 0.0
C1513 C 0.55581 1.00474 0.58151 0.0
C1514 C 0.54477 0.00806 0.56731 0.0
C1515 C 0.58359 0.01414 0.60333 0.0
C1516 C 0.58846 0.99698 0.60143 0.0
C1517 C 0.59083 0.0281 0.61896 0.0
C1518 C 0.58508 0.04586 0.62267 0.0
C1519 C 0.56725 0.04572 0.62302 0.0
C1520 C 0.56189 0.06248 0.6263 0.0
C1521 C 0.57427 0.07948 0.62937 0.0
C1522 C 0.59203 0.07976 0.62923 0.0
C1523 C 0.59745 0.06304 0.62594 0.0
H1524 H 0.57009 0.09244 0.63189 0.0
H1525 H 0.6178 0.92723 0.60515 0.0
H1526 H 0.29441 0.34196 0.97964 0.0
H1527 H 0.29258 0.32385 0.94852 0.0
H1528 H 0.29633 0.37416 0.92604 0.0
H1529 H 0.29767 0.39202 0.95662 0.0
H1530 H 0.27236 0.34864 0.90567 0.0
H1531 H 0.33152 0.35186 0.93154 0.0
H1532 H 0.35413 0.34689 0.95403 0.0
H1533 H 0.33195 0.2879 0.94175 0.0
H1534 H 0.30908 0.29255 0.91933 0.0
H1535 H 0.31917 0.30922 0.82564 0.0
H1536 H 0.31947 0.32112 0.85836 0.0
H1537 H 0.26385 0.29817 0.85378 0.0
H1538 H 0.26337 0.28685 0.82095 0.0
H1539 H 0.31252 0.30791 0.88813 0.0
H1540 H 0.24486 0.32542 0.88206 0.0
H1541 H 0.22434 0.33281 0.85892 0.0
H1542 H 0.26727 0.35519 0.83088 0.0
H1543 H 0.28804 0.34813 0.85396 0.0
C1544 C 0.29486 0.34913 0.96805 0.0
C1545 C 0.29612 0.36848 0.97073 0.0
C1546 C 0.29387 0.33876 0.95023 0.0
C1547 C 0.29437 0.34759 0.93479 0.0
C1548 C 0.29576 0.3669 0.93757 0.0
C1549 C 0.29658 0.37715 0.95521 0.0
C1550 C 0.29333 0.33705 0.91562 0.0
C1551 C 0.28109 0.33964 0.90192 0.0
C1552 C 0.30475 0.32538 0.91048 0.0
C1553 C 0.31849 0.32257 0.92392 0.0
C1554 C 0.3314 0.33784 0.93374 0.0
C1555 C 0.34427 0.33508 0.94645 0.0
C1556 C 0.34444 0.31709 0.94936 0.0
C1557 C 0.33178 0.30182 0.93951 0.0
C1558 C 0.31887 0.30451 0.92679 0.0
C1559 C 0.30701 0.3066 0.83161 0.0
C1560 C 0.29122 0.29724 0.82057 0.0
C1561 C 0.30721 0.31337 0.85039 0.0
C1562 C 0.29164 0.31088 0.85862 0.0
C1563 C 0.27599 0.30071 0.84777 0.0
C1564 C 0.27575 0.29416 0.82896 0.0
C1565 C 0.29169 0.31969 0.87822 0.0
C1566 C 0.30367 0.31674 0.89196 0.0
C1567 C 0.28029 0.3314 0.88338 0.0
C1568 C 0.26796 0.33606 0.86963 0.0
C1569 C 0.24991 0.33198 0.87099 0.0
C1570 C 0.23824 0.3361 0.85788 0.0
C1571 C 0.2445 0.3444 0.8434 0.0
C1572 C 0.26244 0.3487 0.84206 0.0
C1573 C 0.27416 0.34463 0.85514 0.0
H1574 H 0.23544 0.34754 0.83324 0.0
H1575 H 0.35442 0.31498 0.9592 0.0
H1576 H 0.97321 0.03371 0.30651 0.0
H1577 H 0.98502 0.03307 0.33753 0.0
H1578 H 0.94915 0.06437 0.35925 0.0
H1579 H 0.93701 0.06515 0.32753 0.0
H1580 H 0.98056 0.07617 0.38161 0.0
H1581 H 0.944 0.01558 0.3593 0.0
H1582 H 0.9325 0.9859 0.33761 0.0
H1583 H 0.98317 0.97343 0.34242 0.0
H1584 H 0.99504 1.00317 0.36396 0.0
H1585 H 0.00643 0.06089 0.47313 0.0
H1586 H 0.99159 0.06387 0.44386 0.0
H1587 H 0.01395 0.02123 0.4156 0.0
H1588 H 0.02741 0.01717 0.44514 0.0
H1589 H 0.98682 0.01558 0.39687 0.0
H1590 H 0.02429 0.07897 0.41575 0.0
H1591 H 0.03539 0.10933 0.4366 0.0
H1592 H 0.98281 0.11599 0.43879 0.0
H1593 H 0.97151 0.086 0.4176 0.0
C1594 C 0.9676 0.04059 0.31767 0.0
C1595 C 0.95381 0.04944 0.31381 0.0
C1596 C 0.97448 0.04007 0.33579 0.0
C1597 C 0.96805 0.0483 0.35142 0.0
C1598 C 0.95457 0.05768 0.34781 0.0
C1599 C 0.94752 0.05815 0.32944 0.0
C1600 C 0.97548 0.04679 0.37106 0.0
C1601 C 0.98171 0.06281 0.38488 0.0
C1602 C 0.97754 0.0296 0.376 0.0
C1603 C 0.97044 0.01168 0.36312 0.0
C1604 C 0.95272 0.00657 0.35563 0.0
C1605 C 0.94613 0.98973 0.34338 0.0
C1606 C 0.9571 0.97781 0.33861 0.0
C1607 C 0.97469 0.98269 0.34612 0.0
C1608 C 0.98135 0.99953 0.35836 0.0
C1609 C 0.00831 0.05217 0.46069 0.0
C1610 C 0.01842 0.03879 0.46198 0.0
C1611 C 0.99987 0.05407 0.44354 0.0
C1612 C 1.00163 0.04326 0.4265 0.0
C1613 C 0.01191 0.02998 0.42792 0.0
C1614 C 0.01987 0.02768 0.44512 0.0
C1615 C 0.99259 0.04509 0.4075 0.0
C1616 C 0.98593 0.02903 0.3937 0.0
C1617 C 0.99022 0.06226 0.40258 0.0
C1618 C 0.99708 0.08026 0.41522 0.0
C1619 C 0.01514 0.08697 0.42068 0.0
C1620 C 0.02146 0.10416 0.43249 0.0
C1621 C 0.00981 0.11465 0.43895 0.0
C1622 C 0.99184 0.10799 0.43362 0.0
C1623 C 0.98548 0.09096 0.42165 0.0
H1624 H 0.01466 0.12795 0.44806 0.0
H1625 H 0.95198 0.96478 0.32912 0.0
H1626 H 0.28573 0.69871 0.56328 0.0
H1627 H 0.28601 0.72368 0.58906 0.0
H1628 H 0.26933 0.6828 0.62285 0.0
H1629 H 0.26872 0.65779 0.59715 0.0
H1630 H 0.2513 0.70965 0.62701 0.0
H1631 H 0.31217 0.70651 0.62615 0.0
H1632 H 0.33957 0.70761 0.61216 0.0
H1633 H 0.34052 0.76326 0.60346 0.0
H1634 H 0.31298 0.76238 0.6172 0.0
H1635 H 0.28167 0.74699 0.71875 0.0
H1636 H 0.27519 0.73088 0.68696 0.0
H1637 H 0.28985 0.78335 0.66846 0.0
H1638 H 0.29618 0.79976 0.7006 0.0
H1639 H 0.30633 0.75645 0.65276 0.0
H1640 H 0.24845 0.7613 0.66065 0.0
H1641 H 0.22255 0.75999 0.67724 0.0
H1642 H 0.21638 0.70103 0.67412 0.0
H1643 H 0.24247 0.70202 0.65786 0.0
C1644 C 0.28219 0.69503 0.57622 0.0
C1645 C 0.27727 0.67625 0.57819 0.0
C1646 C 0.28233 0.70933 0.59092 0.0
C1647 C 0.27773 0.70509 0.60786 0.0
C1648 C 0.27282 0.68637 0.60984 0.0
C1649 C 0.2726 0.67209 0.59517 0.0
C1650 C 0.27838 0.72002 0.62379 0.0
C1651 C 0.26332 0.7199 0.63266 0.0
C1652 C 0.2939 0.73378 0.63076 0.0
C1653 C 0.31041 0.73429 0.62247 0.0
C1654 C 0.31814 0.71891 0.62111 0.0
C1655 C 0.33371 0.71951 0.61325 0.0
C1656 C 0.34175 0.73547 0.60686 0.0
C1657 C 0.33425 0.75089 0.60837 0.0
C1658 C 0.31867 0.75035 0.61619 0.0
C1659 C 0.28307 0.75519 0.70796 0.0
C1660 C 0.28924 0.77463 0.71211 0.0
C1661 C 0.2794 0.74596 0.68978 0.0
C1662 C 0.28185 0.75597 0.67539 0.0
C1663 C 0.28778 0.77544 0.67943 0.0
C1664 C 0.29135 0.78476 0.69772 0.0
C1665 C 0.27945 0.74562 0.65632 0.0
C1666 C 0.29416 0.74658 0.64683 0.0
C1667 C 0.26363 0.73259 0.64885 0.0
C1668 C 0.2475 0.73175 0.65805 0.0
C1669 C 0.24162 0.74805 0.66355 0.0
C1670 C 0.22691 0.74737 0.67292 0.0
C1671 C 0.21783 0.73044 0.67674 0.0
C1672 C 0.22342 0.71414 0.67114 0.0
C1673 C 0.23817 0.71474 0.66181 0.0
H1674 H 0.20647 0.72996 0.68404 0.0
H1675 H 0.3538 0.73591 0.6008 0.0
H1676 H 0.60578 0.03761 0.7747 0.0
H1677 H 0.59936 0.04238 0.80635 0.0
H1678 H 0.65036 0.03519 0.8251 0.0
H1679 H 0.65683 0.03003 0.79328 0.0
H1680 H 0.62614 0.01605 0.84152 0.0
H1681 H 0.64209 0.07825 0.83413 0.0
H1682 H 0.64391 0.10576 0.81933 0.0
H1683 H 0.58882 0.1013 0.82038 0.0
H1684 H 0.58658 0.07357 0.83491 0.0
H1685 H 0.58803 0.03037 0.92585 0.0
H1686 H 0.60976 0.03879 0.90498 0.0
H1687 H 0.56826 0.03585 0.86216 0.0
H1688 H 0.54654 0.02702 0.88255 0.0
H1689 H 0.59797 0.06691 0.86512 0.0
H1690 H 0.58349 0.99885 0.86491 0.0
H1691 H 0.58298 0.97232 0.88101 0.0
H1692 H 0.63858 0.99034 0.89617 0.0
H1693 H 0.63935 0.0172 0.88046 0.0
C1694 C 0.61566 0.03705 0.78552 0.0
C1695 C 0.63181 0.03344 0.78147 0.0
C1696 C 0.61205 0.03997 0.80363 0.0
C1697 C 0.62456 0.03957 0.81809 0.0
C1698 C 0.64062 0.03574 0.81413 0.0
C1699 C 0.64424 0.03273 0.79595 0.0
C1700 C 0.62014 0.04199 0.83713 0.0
C1701 C 0.62047 0.02747 0.84695 0.0
C1702 C 0.61299 0.05703 0.84436 0.0
C1703 C 0.61417 0.07376 0.8356 0.0
C1704 C 0.63033 0.08305 0.83111 0.0
C1705 C 0.63144 0.0987 0.82277 0.0
C1706 C 0.61649 0.10527 0.81891 0.0
C1707 C 0.60039 0.09621 0.8234 0.0
C1708 C 0.5992 0.08053 0.83172 0.0
C1709 C 0.58357 0.03151 0.91198 0.0
C1710 C 0.56558 0.02787 0.90576 0.0
C1711 C 0.59598 0.0365 0.90022 0.0
C1712 C 0.59053 0.03792 0.88216 0.0
C1713 C 0.57266 0.03501 0.87617 0.0
C1714 C 0.56028 0.02993 0.88782 0.0
C1715 C 0.60304 0.04046 0.86865 0.0
C1716 C 0.60429 0.05593 0.85997 0.0
C1717 C 0.61192 0.0265 0.86266 0.0
C1718 C 0.61145 0.01013 0.87171 0.0
C1719 C 0.59558 0.99722 0.87178 0.0
C1720 C 0.59525 0.98213 0.88084 0.0
C1721 C 0.61073 0.97968 0.88966 0.0
C1722 C 0.6266 0.99226 0.88935 0.0
C1723 C 0.62699 0.00744 0.88041 0.0
H1724 H 0.61044 0.968 0.89668 0.0
H1725 H 0.61737 0.11739 0.81246 0.0
H1726 H 0.31674 0.38968 0.10339 0.0
H1727 H 0.31465 0.37679 0.13164 0.0
H1728 H 0.28406 0.32442 0.10046 0.0
H1729 H 0.28608 0.33727 0.07209 0.0
H1730 H 0.26934 0.33594 0.13105 0.0
H1731 H 0.32681 0.32932 0.11785 0.0
H1732 H 0.35701 0.34056 0.11124 0.0
H1733 H 0.36853 0.37916 0.16254 0.0
H1734 H 0.33832 0.36831 0.16935 0.0
H1735 H 0.26699 0.28168 0.20033 0.0
H1736 H 0.27126 0.29477 0.17263 0.0
H1737 H 0.30987 0.3418 0.20405 0.0
H1738 H 0.30645 0.32784 0.23172 0.0
H1739 H 0.32071 0.33419 0.17357 0.0
H1740 H 0.2645 0.34236 0.18747 0.0
H1741 H 0.23425 0.33311 0.19475 0.0
H1742 H 0.22005 0.29471 0.14339 0.0
H1743 H 0.25027 0.30356 0.1359 0.0
C1744 C 0.3097 0.37535 0.10248 0.0
C1745 C 0.30162 0.36451 0.08538 0.0
C1746 C 0.30855 0.36797 0.11869 0.0
C1747 C 0.29929 0.34955 0.11827 0.0
C1748 C 0.2913 0.33865 0.10121 0.0
C1749 C 0.29254 0.346 0.08495 0.0
C1750 C 0.29744 0.34186 0.13565 0.0
C1751 C 0.28058 0.33531 0.14023 0.0
C1752 C 0.31206 0.34169 0.14806 0.0
C1753 C 0.33025 0.34812 0.14403 0.0
C1754 C 0.33574 0.3403 0.12766 0.0
C1755 C 0.35287 0.34658 0.12389 0.0
C1756 C 0.36467 0.3606 0.13644 0.0
C1757 C 0.35937 0.36832 0.15282 0.0
C1758 C 0.34225 0.36209 0.15665 0.0
C1759 C 0.27637 0.29485 0.2014 0.0
C1760 C 0.28627 0.3038 0.21834 0.0
C1761 C 0.27872 0.30246 0.18548 0.0
C1762 C 0.29053 0.31968 0.1861 0.0
C1763 C 0.30057 0.32859 0.20305 0.0
C1764 C 0.29857 0.32065 0.21894 0.0
C1765 C 0.29253 0.32808 0.16904 0.0
C1766 C 0.30942 0.33481 0.16449 0.0
C1767 C 0.27791 0.32877 0.15679 0.0
C1768 C 0.25969 0.32352 0.1612 0.0
C1769 C 0.25494 0.33187 0.17777 0.0
C1770 C 0.2378 0.3267 0.18193 0.0
C1771 C 0.22524 0.3133 0.16956 0.0
C1772 C 0.22979 0.30508 0.15297 0.0
C1773 C 0.24692 0.31018 0.14875 0.0
H1774 H 0.21198 0.30932 0.17281 0.0
H1775 H 0.37792 0.36545 0.13349 0.0
H1776 H 0.22944 0.92469 0.99497 0.0
H1777 H 0.20525 0.94054 0.99504 0.0
H1778 H 0.24193 0.9933 0.01538 0.0
H1779 H 0.26605 0.97774 0.01494 0.0
H1780 H 0.19317 0.96068 0.02177 0.0
H1781 H 0.22986 0.02712 0.99701 0.0
H1782 H 0.25237 0.03556 0.97673 0.0
H1783 H 0.23897 0.97949 0.94634 0.0
H1784 H 0.21622 0.97078 0.96626 0.0
H1785 H 0.15311 0.03525 0.04552 0.0
H1786 H 0.17531 0.01708 0.04098 0.0
H1787 H 0.16086 0.00742 0.98236 0.0
H1788 H 0.13873 0.02578 0.98676 0.0
H1789 H 0.19574 0.01539 0.99102 0.0
H1790 H 0.1457 0.97417 0.00455 0.0
H1791 H 0.12119 0.96339 0.02171 0.0
H1792 H 0.15749 0.9648 0.06869 0.0
H1793 H 0.18224 0.97588 0.0519 0.0
C1794 C 0.2323 0.93967 0.99941 0.0
C1795 C 0.24961 0.95002 0.0048 0.0
C1796 C 0.2185 0.94867 0.99949 0.0
C1797 C 0.22187 0.9681 0.00494 0.0
C1798 C 0.2391 0.97834 0.01074 0.0
C1799 C 0.25286 0.96942 0.01054 0.0
C1800 C 0.20747 0.97785 0.00475 0.0
C1801 C 0.19368 0.9726 0.015 0.0
C1802 C 0.20794 0.99307 0.99548 0.0
C1803 C 0.22142 0.99827 0.98324 0.0
C1804 C 0.23165 0.01662 0.98594 0.0
C1805 C 0.24447 0.02145 0.97452 0.0
C1806 C 0.24713 0.00806 0.96029 0.0
C1807 C 0.23694 0.98983 0.9574 0.0
C1808 C 0.22409 0.98494 0.96877 0.0
C1809 C 0.15492 0.02954 0.03166 0.0
C1810 C 0.14425 0.03181 0.01646 0.0
C1811 C 0.16743 0.01904 0.0291 0.0
C1812 C 0.16943 0.01073 0.01133 0.0
C1813 C 0.15934 0.01368 0.99612 0.0
C1814 C 0.14675 0.02407 0.99866 0.0
C1815 C 0.18184 0.99864 0.00859 0.0
C1816 C 0.19521 1.00343 0.99773 0.0
C1817 C 0.18067 0.98268 0.01682 0.0
C1818 C 0.16583 0.97603 0.02701 0.0
C1819 C 0.14847 0.97234 0.0186 0.0
C1820 C 0.13452 0.96615 0.02824 0.0
C1821 C 0.13778 0.96345 0.04629 0.0
C1822 C 0.15499 0.96692 0.05471 0.0
C1823 C 0.16898 0.97314 0.04513 0.0
H1824 H 0.12697 0.95864 0.05373 0.0
H1825 H 0.25707 0.01182 0.95147 0.0
H1826 H 0.72128 0.62052 0.96851 0.0
H1827 H 0.69173 0.60255 0.97055 0.0
H1828 H 0.68139 0.65031 0.00477 0.0
H1829 H 0.71072 0.66852 1.00238 0.0
H1830 H 0.67358 0.61391 0.01823 0.0
H1831 H 0.66218 0.64195 0.9655 0.0
H1832 H 0.66708 0.64964 0.93498 0.0
H1833 H 0.65564 0.59137 0.91147 0.0
H1834 H 0.65093 0.58333 0.94192 0.0
H1835 H 0.58444 0.57353 0.02285 0.0
H1836 H 0.61168 0.59509 0.01969 0.0
H1837 H 0.61689 0.55858 0.97024 0.0
H1838 H 0.58898 0.53784 0.97265 0.0
H1839 H 0.62741 0.59102 0.96485 0.0
H1840 H 0.64044 0.56171 0.01559 0.0
H1841 H 0.63693 0.55194 0.04554 0.0
H1842 H 0.64715 0.60922 0.07223 0.0
H1843 H 0.6505 0.61933 0.0424 0.0
C1844 C 0.71265 0.62724 0.97634 0.0
C1845 C 0.71833 0.64596 0.98523 0.0
C1846 C 0.69579 0.61696 0.97749 0.0
C1847 C 0.68438 0.62509 0.98783 0.0
C1848 C 0.69 0.64377 0.99673 0.0
C1849 C 0.70673 0.65418 0.99527 0.0
C1850 C 0.66672 0.61396 0.98959 0.0
C1851 C 0.66336 0.6091 0.00665 0.0
C1852 C 0.65362 0.60723 0.97435 0.0
C1853 C 0.65638 0.61205 0.95603 0.0
C1854 C 0.66087 0.63078 0.95386 0.0
C1855 C 0.66358 0.6352 0.93656 0.0
C1856 C 0.66172 0.62101 0.9213 0.0
C1857 C 0.6571 0.60235 0.9233 0.0
C1858 C 0.65439 0.59786 0.94057 0.0
C1859 C 0.59125 0.57027 0.01117 0.0
C1860 C 0.5845 0.554 0.99799 0.0
C1861 C 0.60701 0.5825 0.00948 0.0
C1862 C 0.61672 0.57837 0.99493 0.0
C1863 C 0.60979 0.5622 0.98162 0.0
C1864 C 0.59382 0.55026 0.98306 0.0
C1865 C 0.63412 0.59068 0.99356 0.0
C1866 C 0.63751 0.5958 0.97653 0.0
C1867 C 0.64742 0.59729 0.00877 0.0
C1868 C 0.64553 0.59126 0.02674 0.0
C1869 C 0.64183 0.57221 0.02784 0.0
C1870 C 0.63988 0.56662 0.04479 0.0
C1871 C 0.64177 0.57995 0.06077 0.0
C1872 C 0.64566 0.59891 0.05984 0.0
C1873 C 0.6476 0.60458 0.04291 0.0
H1874 H 0.64025 0.57559 0.07388 0.0
H1875 H 0.66382 0.62446 0.90792 0.0
H1876 H 0.66988 0.43563 0.25951 0.0
H1877 H 0.68415 0.40946 0.25799 0.0
H1878 H 0.73441 0.44801 0.27243 0.0
H1879 H 0.72009 0.47422 0.27325 0.0
H1880 H 0.74137 0.42172 0.25134 0.0
H1881 H 0.70813 0.41547 0.3023 0.0
H1882 H 0.68173 0.41204 0.31826 0.0
H1883 H 0.65759 0.36163 0.28008 0.0
H1884 H 0.68379 0.36486 0.26378 0.0
H1885 H 0.78904 0.35271 0.27002 0.0
H1886 H 0.7742 0.37838 0.27107 0.0
H1887 H 0.72464 0.33893 0.25473 0.0
H1888 H 0.73954 0.31313 0.25414 0.0
H1889 H 0.71709 0.36532 0.27645 0.0
H1890 H 0.75026 0.37122 0.22578 0.0
H1891 H 0.77658 0.3744 0.20971 0.0
H1892 H 0.80071 0.42533 0.24715 0.0
H1893 H 0.7746 0.42233 0.26358 0.0
C1894 C 0.68399 0.43873 0.26245 0.0
C1895 C 0.69349 0.45764 0.26662 0.0
C1896 C 0.69235 0.42342 0.26176 0.0
C1897 C 0.71081 0.42591 0.26551 0.0
C1898 C 0.7203 0.44487 0.26947 0.0
C1899 C 0.71194 0.4602 0.27002 0.0
C1900 C 0.72013 0.40917 0.26503 0.0
C1901 C 0.73599 0.40962 0.25718 0.0
C1902 C 0.71358 0.39248 0.27198 0.0
C1903 C 0.69784 0.39052 0.28172 0.0
C1904 C 0.69714 0.40372 0.29725 0.0
C1905 C 0.68222 0.4018 0.30636 0.0
C1906 C 0.66797 0.38666 0.30015 0.0
C1907 C 0.66863 0.37337 0.28485 0.0
C1908 C 0.68351 0.37523 0.27568 0.0
C1909 C 0.77497 0.34928 0.26651 0.0
C1910 C 0.76586 0.33024 0.26185 0.0
C1911 C 0.76629 0.36431 0.26698 0.0
C1912 C 0.74787 0.36142 0.2626 0.0
C1913 C 0.73872 0.34234 0.25817 0.0
C1914 C 0.74742 0.32726 0.25775 0.0
C1915 C 0.73835 0.37795 0.26287 0.0
C1916 C 0.72246 0.37745 0.27066 0.0
C1917 C 0.74486 0.39459 0.25585 0.0
C1918 C 0.76055 0.39645 0.24602 0.0
C1919 C 0.76123 0.38303 0.23066 0.0
C1920 C 0.7761 0.38481 0.22148 0.0
C1921 C 0.79033 0.40003 0.22744 0.0
C1922 C 0.78969 0.41353 0.24257 0.0
C1923 C 0.77485 0.41181 0.25181 0.0
H1924 H 0.80183 0.40138 0.22031 0.0
H1925 H 0.65643 0.3852 0.30722 0.0
H1926 H 0.85142 0.44042 0.53426 0.0
H1927 H 0.88256 0.45242 0.5445 0.0
H1928 H 0.88204 0.50061 0.5194 0.0
H1929 H 0.85088 0.4885 0.50873 0.0
H1930 H 0.90609 0.48505 0.50794 0.0
H1931 H 0.89074 0.50489 0.56635 0.0
H1932 H 0.87652 0.50409 0.59461 0.0
H1933 H 0.90206 0.46179 0.6079 0.0
H1934 H 0.91624 0.46211 0.57957 0.0
H1935 H 0.99727 0.52138 0.55421 0.0
H1936 H 0.96672 0.51518 0.55992 0.0
H1937 H 0.9565 0.46252 0.52256 0.0
H1938 H 0.98713 0.46866 0.51685 0.0
H1939 H 0.93884 0.4866 0.56853 0.0
H1940 H 0.92711 0.46538 0.48957 0.0
H1941 H 0.9429 0.47109 0.46293 0.0
H1942 H 0.97158 0.52445 0.49309 0.0
H1943 H 0.95599 0.51905 0.51988 0.0
C1944 C 0.85785 0.4537 0.53109 0.0
C1945 C 0.84872 0.46337 0.52042 0.0
C1946 C 0.87564 0.46064 0.53716 0.0
C1947 C 0.88461 0.47747 0.53283 0.0
C1948 C 0.87535 0.48758 0.5229 0.0
C1949 C 0.85756 0.48061 0.51674 0.0
C1950 C 0.90395 0.48303 0.53639 0.0
C1951 C 0.91315 0.48555 0.52127 0.0
C1952 C 0.91329 0.48404 0.55384 0.0
C1953 C 0.90443 0.48339 0.57069 0.0
C1954 C 0.89316 0.49524 0.57516 0.0
C1955 C 0.88514 0.49491 0.59123 0.0
C1956 C 0.88832 0.48284 0.603 0.0
C1957 C 0.89956 0.4711 0.59874 0.0
C1958 C 0.90762 0.47136 0.58268 0.0
C1959 C 0.98877 0.50801 0.54805 0.0
C1960 C 0.99452 0.49546 0.53513 0.0
C1961 C 0.97128 0.50456 0.55124 0.0
C1962 C 0.95941 0.48854 0.54145 0.0
C1963 C 0.96555 0.47502 0.53015 0.0
C1964 C 0.983 0.47852 0.52688 0.0
C1965 C 0.9405 0.4877 0.53995 0.0
C1966 C 0.93154 0.48618 0.55535 0.0
C1967 C 0.93132 0.48824 0.52294 0.0
C1968 C 0.94048 0.49173 0.50674 0.0
C1969 C 0.93676 0.47834 0.49048 0.0
C1970 C 0.94571 0.48151 0.47539 0.0
C1971 C 0.95833 0.49807 0.47637 0.0
C1972 C 0.96194 0.51156 0.49241 0.0
C1973 C 0.95308 0.50843 0.50756 0.0
H1974 H 0.96525 0.50049 0.46468 0.0
H1975 H 0.88214 0.48266 0.61546 0.0
H1976 H 0.37057 0.06039 0.29076 0.0
H1977 H 0.35166 0.08231 0.29028 0.0
H1978 H 0.39474 0.12401 0.27921 0.0
H1979 H 0.41386 0.10239 0.28032 0.0
H1980 H 0.37638 0.13981 0.30167 0.0
H1981 H 0.36358 0.09617 0.24443 0.0
H1982 H 0.35519 0.06501 0.22474 0.0
H1983 H 0.30591 0.05419 0.24635 0.0
H1984 H 0.31411 0.08521 0.26635 0.0
H1985 H 0.31339 0.17399 0.2374 0.0
H1986 H 0.33126 0.15231 0.24421 0.0
H1987 H 0.32097 0.16098 0.3007 0.0
H1988 H 0.30359 0.18311 0.29412 0.0
H1989 H 0.32232 0.11992 0.25716 0.0
H1990 H 0.34639 0.16368 0.32276 0.0
H1991 H 0.35851 0.19584 0.33961 0.0
H1992 H 0.39029 0.20736 0.29673 0.0
H1993 H 0.37782 0.17547 0.27936 0.0
C1994 C 0.37605 0.07432 0.28846 0.0
C1995 C 0.39362 0.07967 0.28541 0.0
C1996 C 0.36522 0.08678 0.28811 0.0
C1997 C 0.37172 0.10464 0.28434 0.0
C1998 C 0.38946 0.11027 0.2821 0.0
C1999 C 0.40036 0.0979 0.28271 0.0
C2000 C 0.35991 0.11719 0.28185 0.0
C2001 C 0.3645 0.13539 0.29203 0.0
C2002 C 0.34452 0.11153 0.26909 0.0
C2003 C 0.33954 0.09292 0.25702 0.0
C2004 C 0.35101 0.08709 0.24507 0.0
C2005 C 0.34628 0.06946 0.23384 0.0
C2006 C 0.33005 0.0576 0.23434 0.0
C2007 C 0.31849 0.06337 0.24601 0.0
C2008 C 0.32317 0.08098 0.25729 0.0
C2009 C 0.31491 0.1712 0.25125 0.0
C2010 C 0.30725 0.1803 0.26528 0.0
C2011 C 0.32518 0.15892 0.25515 0.0
C2012 C 0.3279 0.15552 0.2731 0.0
C2013 C 0.31973 0.16408 0.28697 0.0
C2014 C 0.30964 0.17653 0.28314 0.0
C2015 C 0.33878 0.14246 0.27703 0.0
C2016 C 0.33403 0.12417 0.26705 0.0
C2017 C 0.3542 0.14811 0.28968 0.0
C2018 C 0.36079 0.16749 0.29955 0.0
C2019 C 0.35567 0.17324 0.31678 0.0
C2020 C 0.36262 0.19139 0.32642 0.0
C2021 C 0.37502 0.20371 0.31915 0.0
C2022 C 0.38054 0.19788 0.30225 0.0
C2023 C 0.37343 0.17984 0.29244 0.0
H2024 H 0.38046 0.21772 0.32667 0.0
H2025 H 0.32641 0.04396 0.22563 0.0
H2026 H 0.30706 0.11097 0.49916 0.0
H2027 H 0.33506 0.10234 0.50049 0.0
H2028 H 0.36032 0.15634 0.49023 0.0
H2029 H 0.33194 0.16514 0.48861 0.0
H2030 H 0.37368 0.12821 0.47175 0.0
H2031 H 0.36409 0.1482 0.53323 0.0
H2032 H 0.34768 0.15014 0.56003 0.0
H2033 H 0.34289 0.09176 0.5598 0.0
H2034 H 0.35905 0.0894 0.53282 0.0
H2035 H 0.45614 0.10653 0.50305 0.0
H2036 H 0.43229 0.12264 0.49985 0.0
H2037 H 0.39491 0.07265 0.50442 0.0
H2038 H 0.41832 0.05633 0.50689 0.0
H2039 H 0.39089 0.10446 0.52761 0.0
H2040 H 0.3983 0.08466 0.46388 0.0
H2041 H 0.41514 0.08339 0.43738 0.0
H2042 H 0.42514 0.14294 0.44283 0.0
H2043 H 0.40857 0.14458 0.46956 0.0
C2044 C 0.31849 0.12108 0.49707 0.0
C2045 C 0.3172 0.13887 0.49399 0.0
C2046 C 0.33456 0.1161 0.49789 0.0
C2047 C 0.34992 0.1288 0.49587 0.0
C2048 C 0.34867 0.14633 0.49197 0.0
C2049 C 0.33245 0.15134 0.49105 0.0
C2050 C 0.36713 0.12366 0.4985 0.0
C2051 C 0.37763 0.12338 0.48412 0.0
C2052 C 0.37234 0.11726 0.5146 0.0
C2053 C 0.36269 0.11861 0.53092 0.0
C2054 C 0.35944 0.13575 0.53882 0.0
C2055 C 0.35019 0.13693 0.55405 0.0
C2056 C 0.34422 0.12108 0.5616 0.0
C2057 C 0.34752 0.10402 0.55394 0.0
C2058 C 0.35674 0.10276 0.53869 0.0
C2059 C 0.44283 0.09889 0.50315 0.0
C2060 C 0.43928 0.08011 0.50544 0.0
C2061 C 0.42921 0.10816 0.50139 0.0
C2062 C 0.41179 0.09887 0.50196 0.0
C2063 C 0.40824 0.08017 0.50411 0.0
C2064 C 0.42173 0.07088 0.50567 0.0
C2065 C 0.3971 0.10844 0.50065 0.0
C2066 C 0.38709 0.10958 0.51536 0.0
C2067 C 0.3925 0.11576 0.48495 0.0
C2068 C 0.40239 0.11476 0.46886 0.0
C2069 C 0.40424 0.0975 0.45954 0.0
C2070 C 0.4137 0.09671 0.44445 0.0
C2071 C 0.42126 0.11308 0.43846 0.0
C2072 C 0.41932 0.13027 0.44751 0.0
C2073 C 0.40988 0.13114 0.46262 0.0
H2074 H 0.42858 0.11244 0.42677 0.0
H2075 H 0.33707 0.12202 0.57339 0.0
H2076 H 0.67141 0.59034 0.2628 0.0
H2077 H 0.68949 0.62086 0.26208 0.0
H2078 H 0.73573 0.60202 0.27685 0.0
H2079 H 0.71736 0.57082 0.27765 0.0
H2080 H 0.73884 0.63777 0.29545 0.0
H2081 H 0.72393 0.60936 0.232 0.0
H2082 H 0.70422 0.59282 0.20396 0.0
H2083 H 0.67749 0.63734 0.207 0.0
H2084 H 0.69687 0.65403 0.23523 0.0
H2085 H 0.79787 0.7179 0.27751 0.0
H2086 H 0.78055 0.68686 0.27804 0.0
H2087 H 0.73432 0.70208 0.25642 0.0
H2088 H 0.75209 0.73322 0.25494 0.0
H2089 H 0.73133 0.66778 0.24129 0.0
H2090 H 0.74487 0.69579 0.30475 0.0
H2091 H 0.76361 0.71251 0.33334 0.0
H2092 H 0.79175 0.66916 0.33102 0.0
H2093 H 0.77332 0.65229 0.30227 0.0
C2094 C 0.68543 0.59238 0.26592 0.0
C2095 C 0.69262 0.57752 0.27027 0.0
C2096 C 0.69591 0.61016 0.26537 0.0
C2097 C 0.71429 0.61425 0.26911 0.0
C2098 C 0.72166 0.5996 0.27377 0.0
C2099 C 0.71107 0.58156 0.27419 0.0
C2100 C 0.72538 0.63374 0.26821 0.0
C2101 C 0.73735 0.6441 0.28342 0.0
C2102 C 0.72336 0.64281 0.25289 0.0
C2103 C 0.71177 0.63287 0.23584 0.0
C2104 C 0.71377 0.61557 0.22677 0.0
C2105 C 0.70267 0.60617 0.21083 0.0
C2106 C 0.68959 0.61401 0.20373 0.0
C2107 C 0.68762 0.63128 0.21253 0.0
C2108 C 0.69867 0.64072 0.22849 0.0
C2109 C 0.78396 0.71488 0.27299 0.0
C2110 C 0.77655 0.72874 0.26669 0.0
C2111 C 0.77388 0.69686 0.27344 0.0
C2112 C 0.75567 0.69162 0.26782 0.0
C2113 C 0.74818 0.70535 0.26117 0.0
C2114 C 0.7584 0.72351 0.26059 0.0
C2115 C 0.74485 0.6719 0.26857 0.0
C2116 C 0.73289 0.66149 0.25333 0.0
C2117 C 0.74677 0.66283 0.28393 0.0
C2118 C 0.75781 0.67287 0.30126 0.0
C2119 C 0.75513 0.68988 0.31027 0.0
C2120 C 0.76569 0.69938 0.32652 0.0
C2121 C 0.77889 0.69193 0.33397 0.0
C2122 C 0.78153 0.67493 0.32522 0.0
C2123 C 0.77102 0.66539 0.30896 0.0
H2124 H 0.78706 0.6993 0.34654 0.0
H2125 H 0.68101 0.60672 0.19138 0.0
H2126 H 0.92263 0.46891 0.75537 0.0
H2127 H 0.9016 0.43897 0.75271 0.0
H2128 H 0.8805 0.46045 0.80109 0.0
H2129 H 0.90115 0.49067 0.8036 0.0
H2130 H 0.8882 0.41854 0.79365 0.0
H2131 H 0.85724 0.46348 0.77161 0.0
H2132 H 0.8552 0.48736 0.75262 0.0
H2133 H 0.85812 0.44875 0.70417 0.0
H2134 H 0.86046 0.42473 0.72296 0.0
H2135 H 0.80878 0.3577 0.79265 0.0
H2136 H 0.82812 0.38809 0.79324 0.0
H2137 H 0.83774 0.37031 0.73765 0.0
H2138 H 0.8181 0.33983 0.73677 0.0
H2139 H 0.83643 0.40973 0.74717 0.0
H2140 H 0.8696 0.36672 0.76566 0.0
H2141 H 0.87041 0.33994 0.78105 0.0
H2142 H 0.86312 0.37191 0.83203 0.0
H2143 H 0.86274 0.39903 0.81697 0.0
C2144 C 0.91377 0.46714 0.76568 0.0
C2145 C 0.91342 0.48211 0.77964 0.0
C2146 C 0.90178 0.45008 0.7641 0.0
C2147 C 0.88957 0.4477 0.77666 0.0
C2148 C 0.88991 0.46217 0.79131 0.0
C2149 C 0.90164 0.47937 0.79269 0.0
C2150 C 0.87544 0.43071 0.77352 0.0
C2151 C 0.87681 0.41672 0.78367 0.0
C2152 C 0.86093 0.42811 0.76 0.0
C2153 C 0.85924 0.44242 0.7487 0.0
C2154 C 0.85762 0.46015 0.75693 0.0
C2155 C 0.85637 0.4737 0.7462 0.0
C2156 C 0.85658 0.4696 0.7272 0.0
C2157 C 0.85798 0.45192 0.71889 0.0
C2158 C 0.85926 0.43833 0.72957 0.0
C2159 C 0.81472 0.36035 0.78041 0.0
C2160 C 0.81219 0.3463 0.76478 0.0
C2161 C 0.82569 0.37773 0.78075 0.0
C2162 C 0.83446 0.38125 0.76557 0.0
C2163 C 0.83101 0.36778 0.74946 0.0
C2164 C 0.81988 0.35037 0.74904 0.0
C2165 C 0.84898 0.39785 0.76767 0.0
C2166 C 0.84779 0.41164 0.75721 0.0
C2167 C 0.86386 0.40013 0.78058 0.0
C2168 C 0.86624 0.38485 0.79026 0.0
C2169 C 0.86847 0.36809 0.78023 0.0
C2170 C 0.86881 0.35285 0.78887 0.0
C2171 C 0.86678 0.35419 0.8075 0.0
C2172 C 0.86481 0.37092 0.81763 0.0
C2173 C 0.86469 0.38629 0.80909 0.0
H2174 H 0.86666 0.34221 0.81402 0.0
H2175 H 0.85562 0.4801 0.71892 0.0
H2176 H 0.06071 0.84292 0.06649 0.0
H2177 H 0.05614 0.86918 0.05227 0.0
H2178 H 0.08146 0.9074 0.1018 0.0
H2179 H 0.08519 0.88111 0.11631 0.0
H2180 H 0.05617 0.91963 0.09093 0.0
H2181 H 0.10076 0.89999 0.05851 0.0
H2182 H 0.11483 0.87822 0.04005 0.0
H2183 H 0.07273 0.86714 0.9962 0.0
H2184 H 0.0583 0.88869 0.01449 0.0
H2185 H 0.07126 1.00141 0.0493 0.0
H2186 H 0.07689 0.97447 0.06177 0.0
H2187 H 0.03563 0.93795 0.02254 0.0
H2188 H 0.02958 0.96487 0.01028 0.0
H2189 H 0.06918 0.92537 0.02762 0.0
H2190 H 0.02538 0.94651 0.06176 0.0
H2191 H 0.0137 0.97028 0.08052 0.0
H2192 H 0.05782 0.98058 0.12193 0.0
H2193 H 0.06991 0.95706 0.10326 0.0
C2194 C 0.06539 0.85693 0.07432 0.0
C2195 C 0.07338 0.85982 0.09256 0.0
C2196 C 0.06287 0.87205 0.06611 0.0
C2197 C 0.06869 0.89057 0.07571 0.0
C2198 C 0.07676 0.89341 0.09393 0.0
C2199 C 0.07898 0.87829 0.10225 0.0
C2200 C 0.06603 0.90693 0.06708 0.0
C2201 C 0.05929 0.92088 0.07717 0.0
C2202 C 0.06977 0.9088 0.04897 0.0
C2203 C 0.07837 0.8958 0.03795 0.0
C2204 C 0.09444 0.8928 0.04499 0.0
C2205 C 0.10249 0.88052 0.03454 0.0
C2206 C 0.09465 0.87126 0.01699 0.0
C2207 C 0.07877 0.8743 0.00981 0.0
C2208 C 0.07066 0.88656 0.02021 0.0
C2209 C 0.06346 0.98765 0.04318 0.0
C2210 C 0.04992 0.9854 0.02876 0.0
C2211 C 0.06668 0.97223 0.05039 0.0
C2212 C 0.05667 0.95412 0.04316 0.0
C2213 C 0.04356 0.95174 0.02836 0.0
C2214 C 0.04008 0.96719 0.02139 0.0
C2215 C 0.05943 0.9378 0.05152 0.0
C2216 C 0.06614 0.92396 0.04138 0.0
C2217 C 0.056 0.93619 0.06968 0.0
C2218 C 0.04864 0.95016 0.08102 0.0
C2219 C 0.03267 0.95395 0.07479 0.0
C2220 C 0.02596 0.96736 0.08542 0.0
C2221 C 0.03504 0.97697 0.10238 0.0
C2222 C 0.05082 0.97315 0.10877 0.0
C2223 C 0.0576 0.95977 0.09818 0.0
H2224 H 0.02982 0.98735 0.11059 0.0
H2225 H 0.1009 0.86176 0.00892 0.0
H2226 H 0.94469 0.25204 0.88376 0.0
H2227 H 0.91538 0.25518 0.87211 0.0
H2228 H 0.93796 0.28475 0.83132 0.0
H2229 H 0.96671 0.28159 0.84246 0.0
H2230 H 0.91688 0.30345 0.85148 0.0
H2231 H 0.91491 0.24043 0.8198 0.0
H2232 H 0.915 0.20727 0.81857 0.0
H2233 H 0.87026 0.20004 0.8482 0.0
H2234 H 0.87008 0.23324 0.84985 0.0
H2235 H 0.85361 0.30742 0.78026 0.0
H2236 H 0.87782 0.30326 0.80079 0.0
H2237 H 0.84104 0.26982 0.82901 0.0
H2238 H 0.81669 0.2742 0.80851 0.0
H2239 H 0.86644 0.25255 0.82125 0.0
H2240 H 0.86575 0.31235 0.85219 0.0
H2241 H 0.86606 0.34579 0.8596 0.0
H2242 H 0.9143 0.35945 0.8365 0.0
H2243 H 0.91425 0.32608 0.82889 0.0
C2244 C 0.94335 0.25902 0.87219 0.0
C2245 C 0.95824 0.26662 0.8642 0.0
C2246 C 0.92658 0.26081 0.86553 0.0
C2247 C 0.92442 0.27031 0.85085 0.0
C2248 C 0.9392 0.27748 0.84271 0.0
C2249 C 0.95575 0.27559 0.84917 0.0
C2250 C 0.90716 0.27375 0.84409 0.0
C2251 C 0.90589 0.2923 0.84473 0.0
C2252 C 0.89243 0.25927 0.83612 0.0
C2253 C 0.89265 0.23938 0.83518 0.0
C2254 C 0.90522 0.23182 0.82624 0.0
C2255 C 0.90526 0.21301 0.82542 0.0
C2256 C 0.89269 0.20157 0.83337 0.0
C2257 C 0.88002 0.20892 0.8421 0.0
C2258 C 0.87995 0.22773 0.84298 0.0
C2259 C 0.85066 0.29944 0.79103 0.0
C2260 C 0.83322 0.29113 0.79269 0.0
C2261 C 0.86454 0.29709 0.80284 0.0
C2262 C 0.86139 0.28624 0.8166 0.0
C2263 C 0.84391 0.27823 0.81854 0.0
C2264 C 0.82997 0.28078 0.80683 0.0
C2265 C 0.87644 0.28235 0.82792 0.0
C2266 C 0.87731 0.26374 0.82815 0.0
C2267 C 0.89073 0.29679 0.83708 0.0
C2268 C 0.88994 0.31669 0.83988 0.0
C2269 C 0.87629 0.32245 0.84845 0.0
C2270 C 0.87651 0.34141 0.85284 0.0
C2271 C 0.89029 0.35473 0.8487 0.0
C2272 C 0.90371 0.34912 0.83983 0.0
C2273 C 0.9036 0.33019 0.83549 0.0
H2274 H 0.89051 0.36941 0.85223 0.0
H2275 H 0.89273 0.18701 0.83271 0.0
H2276 H 0.58261 0.23562 0.62006 0.0
H2277 H 0.57752 0.20462 0.6015 0.0
H2278 H 0.54562 0.22077 0.55977 0.0
H2279 H 0.5508 0.2523 0.57841 0.0
H2280 H 0.53078 0.18476 0.56922 0.0
H2281 H 0.58374 0.21665 0.55034 0.0
H2282 H 0.61359 0.23669 0.55478 0.0
H2283 H 0.6324 0.19837 0.58417 0.0
H2284 H 0.60261 0.17823 0.58015 0.0
H2285 H 0.52671 0.09607 0.51354 0.0
H2286 H 0.53004 0.12955 0.52404 0.0
H2287 H 0.57363 0.13019 0.56364 0.0
H2288 H 0.57099 0.09705 0.55235 0.0
H2289 H 0.5813 0.15963 0.55077 0.0
H2290 H 0.52824 0.13005 0.57353 0.0
H2291 H 0.49859 0.10959 0.56964 0.0
H2292 H 0.48004 0.14305 0.53397 0.0
H2293 H 0.50964 0.16362 0.53753 0.0
C2294 C 0.5745 0.23272 0.60693 0.0
C2295 C 0.56713 0.24657 0.60076 0.0
C2296 C 0.57164 0.21491 0.59629 0.0
C2297 C 0.56126 0.21033 0.57918 0.0
C2298 C 0.5537 0.22399 0.57293 0.0
C2299 C 0.55674 0.24203 0.58355 0.0
C2300 C 0.55858 0.1912 0.5681 0.0
C2301 C 0.54176 0.17933 0.56485 0.0
C2302 C 0.57293 0.18397 0.56269 0.0
C2303 C 0.5909 0.19599 0.56504 0.0
C2304 C 0.59422 0.21256 0.55787 0.0
C2305 C 0.61113 0.22393 0.56029 0.0
C2306 C 0.62488 0.21882 0.56978 0.0
C2307 C 0.62174 0.20231 0.57683 0.0
C2308 C 0.60484 0.1909 0.57446 0.0
C2309 C 0.53703 0.1034 0.52446 0.0
C2310 C 0.54856 0.0939 0.53216 0.0
C2311 C 0.53886 0.12257 0.53057 0.0
C2312 C 0.55187 0.13254 0.545 0.0
C2313 C 0.56347 0.12299 0.55252 0.0
C2314 C 0.56194 0.10397 0.54608 0.0
C2315 C 0.55355 0.15283 0.55238 0.0
C2316 C 0.57023 0.16499 0.55493 0.0
C2317 C 0.53908 0.16024 0.55729 0.0
C2318 C 0.52118 0.14826 0.55566 0.0
C2319 C 0.51784 0.13302 0.56483 0.0
C2320 C 0.50105 0.1214 0.56268 0.0
C2321 C 0.48745 0.12499 0.55152 0.0
C2322 C 0.49059 0.14028 0.54259 0.0
C2323 C 0.50737 0.15194 0.54469 0.0
H2324 H 0.47448 0.11593 0.5498 0.0
H2325 H 0.63796 0.22764 0.57164 0.0
H2326 H 0.54311 0.75384 0.35134 0.0
H2327 H 0.56967 0.75744 0.33618 0.0
H2328 H 0.6012 0.77008 0.38898 0.0
H2329 H 0.57465 0.76683 0.40426 0.0
H2330 H 0.61477 0.79356 0.36787 0.0
H2331 H 0.59489 0.72719 0.35996 0.0
H2332 H 0.57372 0.6968 0.35088 0.0
H2333 H 0.56867 0.70503 0.29492 0.0
H2334 H 0.58964 0.73559 0.30371 0.0
H2335 H 0.69472 0.786 0.33255 0.0
H2336 H 0.66884 0.7822 0.34868 0.0
H2337 H 0.6357 0.76716 0.29677 0.0
H2338 H 0.66147 0.76977 0.28052 0.0
H2339 H 0.62329 0.74468 0.31818 0.0
H2340 H 0.64292 0.81147 0.32636 0.0
H2341 H 0.66425 0.84175 0.33562 0.0
H2342 H 0.66995 0.83262 0.39124 0.0
H2343 H 0.6488 0.80218 0.38227 0.0
C2344 C 0.55569 0.75729 0.35975 0.0
C2345 C 0.55672 0.75999 0.37904 0.0
C2346 C 0.5709 0.75929 0.35104 0.0
C2347 C 0.58753 0.76384 0.36138 0.0
C2348 C 0.58858 0.76655 0.38066 0.0
C2349 C 0.57336 0.76462 0.38938 0.0
C2350 C 0.60378 0.76605 0.35211 0.0
C2351 C 0.61673 0.78275 0.35718 0.0
C2352 C 0.60628 0.75216 0.33787 0.0
C2353 C 0.59371 0.73376 0.33253 0.0
C2354 C 0.58917 0.72258 0.34574 0.0
C2355 C 0.57722 0.70531 0.34064 0.0
C2356 C 0.56982 0.69901 0.32234 0.0
C2357 C 0.57439 0.70994 0.30909 0.0
C2358 C 0.58632 0.72723 0.31412 0.0
C2359 C 0.68196 0.78175 0.3245 0.0
C2360 C 0.68034 0.77823 0.30513 0.0
C2361 C 0.66709 0.77981 0.3338 0.0
C2362 C 0.65019 0.77463 0.32401 0.0
C2363 C 0.64854 0.77124 0.3047 0.0
C2364 C 0.66338 0.77298 0.29539 0.0
C2365 C 0.63424 0.77227 0.3338 0.0
C2366 C 0.62135 0.75551 0.32886 0.0
C2367 C 0.6318 0.78611 0.34816 0.0
C2368 C 0.6444 0.80447 0.3536 0.0
C2369 C 0.64881 0.81587 0.34054 0.0
C2370 C 0.66085 0.83307 0.34574 0.0
C2371 C 0.66848 0.83908 0.364 0.0
C2372 C 0.66404 0.82793 0.37711 0.0
C2373 C 0.65201 0.81072 0.37197 0.0
H2374 H 0.67781 0.85239 0.368 0.0
H2375 H 0.56058 0.68564 0.31842 0.0
H2376 H 0.07323 0.28431 0.44069 0.0
H2377 H 0.06569 0.26032 0.45952 0.0
H2378 H 0.05856 0.2175 0.41126 0.0
H2379 H 0.06569 0.24131 0.39236 0.0
H2380 H 0.03318 0.2095 0.43224 0.0
H2381 H 0.09633 0.2296 0.44162 0.0
H2382 H 0.12459 0.25258 0.45034 0.0
H2383 H 0.11112 0.26696 0.50475 0.0
H2384 H 0.08266 0.24421 0.49626 0.0
H2385 H 0.04308 0.1299 0.46825 0.0
H2386 H 0.04593 0.15654 0.4526 0.0
H2387 H 0.0511 0.19344 0.50476 0.0
H2388 H 0.04874 0.16687 0.52058 0.0
H2389 H 0.07571 0.20626 0.48412 0.0
H2390 H 0.01362 0.18416 0.47553 0.0
H2391 H 0.98486 0.16213 0.46656 0.0
H2392 H 0.99613 0.15152 0.41082 0.0
H2393 H 0.02506 0.17334 0.41948 0.0
C2394 C 0.06995 0.26978 0.4341 0.0
C2395 C 0.07013 0.26468 0.41507 0.0
C2396 C 0.06572 0.25611 0.44487 0.0
C2397 C 0.06178 0.23714 0.4368 0.0
C2398 C 0.06156 0.23206 0.41776 0.0
C2399 C 0.0657 0.24569 0.40699 0.0
C2400 C 0.0582 0.22244 0.44812 0.0
C2401 C 0.04254 0.20868 0.44349 0.0
C2402 C 0.07019 0.22173 0.46313 0.0
C2403 C 0.0873 0.23537 0.46824 0.0
C2404 C 0.09934 0.23777 0.45539 0.0
C2405 C 0.1154 0.25073 0.46031 0.0
C2406 C 0.11962 0.26126 0.47807 0.0
C2407 C 0.10781 0.25882 0.49098 0.0
C2408 C 0.09172 0.24589 0.48613 0.0
C2409 C 0.04485 0.14367 0.4764 0.0
C2410 C 0.04558 0.14622 0.49565 0.0
C2411 C 0.0463 0.15887 0.46743 0.0
C2412 C 0.04848 0.17693 0.47751 0.0
C2413 C 0.04928 0.17958 0.49672 0.0
C2414 C 0.04779 0.16436 0.50571 0.0
C2415 C 0.05082 0.19311 0.46803 0.0
C2416 C 0.06626 0.20716 0.473 0.0
C2417 C 0.03864 0.19405 0.4533 0.0
C2418 C 0.02155 0.18034 0.44818 0.0
C2419 C 0.01005 0.17699 0.46139 0.0
C2420 C 0.99369 0.16459 0.45635 0.0
C2421 C 0.98864 0.15554 0.43811 0.0
C2422 C 1.00003 0.15865 0.42492 0.0
C2423 C 0.0164 0.17103 0.42988 0.0
H2424 H 0.9759 0.14609 0.4342 0.0
H2425 H 0.13207 0.27129 0.48185 0.0
H2426 H 0.54787 0.27618 0.19785 0.0
H2427 H 0.57861 0.28555 0.21065 0.0
H2428 H 0.59342 0.29046 0.15667 0.0
H2429 H 0.5626 0.2805 0.14364 0.0
H2430 H 0.61117 0.27025 0.1719 0.0
H2431 H 0.59895 0.32936 0.19168 0.0
H2432 H 0.58292 0.35166 0.20598 0.0
H2433 H 0.59261 0.33554 0.25817 0.0
H2434 H 0.60847 0.31293 0.24414 0.0
H2435 H 0.69829 0.29004 0.20823 0.0
H2436 H 0.67249 0.29948 0.19586 0.0
H2437 H 0.647 0.28669 0.243 0.0
H2438 H 0.67299 0.27766 0.25562 0.0
H2439 H 0.63688 0.31602 0.22886 0.0
H2440 H 0.64333 0.25301 0.20732 0.0
H2441 H 0.66004 0.23099 0.19381 0.0
H2442 H 0.66088 0.25491 0.1449 0.0
H2443 H 0.64444 0.27732 0.1583 0.0
C2444 C 0.55765 0.27947 0.18873 0.0
C2445 C 0.55288 0.27747 0.16973 0.0
C2446 C 0.57522 0.28501 0.1961 0.0
C2447 C 0.58831 0.28896 0.18466 0.0
C2448 C 0.58352 0.28754 0.16575 0.0
C2449 C 0.56593 0.28181 0.15833 0.0
C2450 C 0.60696 0.29247 0.19215 0.0
C2451 C 0.6169 0.28063 0.18407 0.0
C2452 C 0.61434 0.30573 0.20828 0.0
C2453 C 0.60483 0.31935 0.21681 0.0
C2454 C 0.59756 0.33046 0.20618 0.0
C2455 C 0.58851 0.34318 0.21424 0.0
C2456 C 0.58672 0.345 0.23297 0.0
C2457 C 0.594 0.33412 0.24367 0.0
C2458 C 0.60305 0.32137 0.23567 0.0
C2459 C 0.68732 0.28971 0.21613 0.0
C2460 C 0.68734 0.28279 0.23263 0.0
C2461 C 0.67269 0.2952 0.20914 0.0
C2462 C 0.65778 0.29341 0.21837 0.0
C2463 C 0.65841 0.28814 0.23569 0.0
C2464 C 0.67317 0.28289 0.24282 0.0
C2465 C 0.64076 0.2937 0.20867 0.0
C2466 C 0.63117 0.30607 0.21641 0.0
C2467 C 0.63359 0.28091 0.19223 0.0
C2468 C 0.64282 0.26694 0.18387 0.0
C2469 C 0.64713 0.2536 0.19371 0.0
C2470 C 0.65656 0.24107 0.18608 0.0
C2471 C 0.66156 0.24158 0.16852 0.0
C2472 C 0.65703 0.25456 0.15851 0.0
C2473 C 0.64766 0.26718 0.16611 0.0
H2474 H 0.66891 0.2319 0.16266 0.0
H2475 H 0.57972 0.35485 0.23918 0.0
H2476 H 0.56897 0.85763 0.91631 0.0
H2477 H 0.56355 0.88551 0.93487 0.0
H2478 H 0.59762 0.92031 0.90531 0.0
H2479 H 0.60289 0.8925 0.88641 0.0
H2480 H 0.60295 0.93042 0.94598 0.0
H2481 H 0.55857 0.9173 0.89395 0.0
H2482 H 0.53435 0.89721 0.87164 0.0
H2483 H 0.50365 0.88667 0.91556 0.0
H2484 H 0.5278 0.90648 0.93816 0.0
H2485 H 0.58099 0.01313 0.98751 0.0
H2486 H 0.58697 0.98858 0.9645 0.0
H2487 H 0.54246 0.94945 0.97666 0.0
H2488 H 0.53568 0.97433 0.99851 0.0
H2489 H 0.54357 0.9429 0.94241 0.0
H2490 H 0.58757 0.95392 0.99481 0.0
H2491 H 0.61161 0.97304 0.01793 0.0
H2492 H 0.64298 0.98592 0.97509 0.0
H2493 H 0.61907 0.967 0.9517 0.0
C2494 C 0.57536 0.87121 0.9138 0.0
C2495 C 0.58632 0.87289 0.89988 0.0
C2496 C 0.5722 0.88708 0.92435 0.0
C2497 C 0.58014 0.90486 0.92133 0.0
C2498 C 0.59138 0.90665 0.90776 0.0
C2499 C 0.59432 0.89077 0.89697 0.0
C2500 C 0.57656 0.92157 0.93238 0.0
C2501 C 0.59006 0.93338 0.94508 0.0
C2502 C 0.55965 0.92506 0.93133 0.0
C2503 C 0.54506 0.91323 0.91776 0.0
C2504 C 0.54672 0.91056 0.89887 0.0
C2505 C 0.53299 0.89926 0.88616 0.0
C2506 C 0.51749 0.89063 0.89218 0.0
C2507 C 0.51567 0.89334 0.91092 0.0
C2508 C 0.52937 0.90462 0.92368 0.0
C2509 C 0.57258 0.99923 0.98524 0.0
C2510 C 0.5581 0.99536 0.99489 0.0
C2511 C 0.57603 0.98525 0.97219 0.0
C2512 C 0.56552 0.96703 0.96924 0.0
C2513 C 0.55083 0.96335 0.97873 0.0
C2514 C 0.54703 0.97748 0.99129 0.0
C2515 C 0.56987 0.9517 0.95651 0.0
C2516 C 0.55652 0.94011 0.94337 0.0
C2517 C 0.5869 0.94825 0.95739 0.0
C2518 C 0.60143 0.95927 0.97149 0.0
C2519 C 0.59956 0.96091 0.99032 0.0
C2520 C 0.61317 0.9717 0.00347 0.0
C2521 C 0.62879 0.98074 0.99798 0.0
C2522 C 0.63087 0.97892 0.97933 0.0
C2523 C 0.6173 0.96816 0.96612 0.0
H2524 H 0.6393 0.98912 0.00818 0.0
H2525 H 0.50687 0.88189 0.88233 0.0
H2526 H 0.94088 0.73886 0.66073 0.0
H2527 H 0.9145 0.73918 0.6757 0.0
H2528 H 0.94254 0.73635 0.72725 0.0
H2529 H 0.96883 0.73546 0.7123 0.0
H2530 H 0.90877 0.71712 0.72408 0.0
H2531 H 0.94022 0.77809 0.71712 0.0
H2532 H 0.95442 0.80157 0.69985 0.0
H2533 H 0.90567 0.79525 0.66628 0.0
H2534 H 0.89124 0.77153 0.6832 0.0
H2535 H 0.85694 0.79013 0.76452 0.0
H2536 H 0.88273 0.7811 0.75364 0.0
H2537 H 0.85097 0.72692 0.72801 0.0
H2538 H 0.82518 0.73565 0.73947 0.0
H2539 H 0.88729 0.77414 0.71946 0.0
H2540 H 0.87707 0.69543 0.72247 0.0
H2541 H 0.86332 0.67356 0.74154 0.0
H2542 H 0.87176 0.71835 0.78779 0.0
H2543 H 0.88597 0.74042 0.76915 0.0
C2544 C 0.94136 0.73802 0.67519 0.0
C2545 C 0.957 0.73748 0.68542 0.0
C2546 C 0.92628 0.73815 0.6837 0.0
C2547 C 0.92671 0.73813 0.70264 0.0
C2548 C 0.94197 0.7364 0.71263 0.0
C2549 C 0.957 0.73602 0.70408 0.0
C2550 C 0.91198 0.74208 0.71238 0.0
C2551 C 0.904 0.72954 0.72309 0.0
C2552 C 0.90609 0.75852 0.71137 0.0
C2553 C 0.9147 0.77291 0.7013 0.0
C2554 C 0.93256 0.78163 0.70598 0.0
C2555 C 0.94065 0.79499 0.69626 0.0
C2556 C 0.93096 0.79987 0.68195 0.0
C2557 C 0.91316 0.79144 0.67735 0.0
C2558 C 0.90502 0.77804 0.68701 0.0
C2559 C 0.85551 0.77618 0.75684 0.0
C2560 C 0.83908 0.76364 0.75267 0.0
C2561 C 0.87024 0.77105 0.75063 0.0
C2562 C 0.86876 0.75337 0.73997 0.0
C2563 C 0.85246 0.74054 0.73642 0.0
C2564 C 0.83773 0.74557 0.7429 0.0
C2565 C 0.88392 0.74917 0.73118 0.0
C2566 C 0.89199 0.76169 0.72055 0.0
C2567 C 0.89007 0.73296 0.73267 0.0
C2568 C 0.88239 0.71963 0.74431 0.0
C2569 C 0.87613 0.7006 0.73675 0.0
C2570 C 0.86822 0.68816 0.74748 0.0
C2571 C 0.8665 0.6946 0.76581 0.0
C2572 C 0.87298 0.71341 0.77355 0.0
C2573 C 0.88098 0.72588 0.76291 0.0
H2574 H 0.86015 0.68501 0.77402 0.0
H2575 H 0.93724 0.81021 0.67444 0.0
H2576 H 0.10113 0.00923 0.8148 0.0
H2577 H 0.08829 0.01022 0.8435 0.0
H2578 H 0.13975 0.02335 0.87383 0.0
H2579 H 0.15267 0.02116 0.84455 0.0
H2580 H 0.12108 0.0067 0.89472 0.0
H2581 H 0.10894 0.05677 0.8679 0.0
H2582 H 0.09846 0.07286 0.8442 0.0
H2583 H 0.04635 0.03949 0.84174 0.0
H2584 H 0.05656 0.02303 0.86528 0.0
H2585 H 0.08166 0.03857 0.97868 0.0
H2586 H 0.09887 0.03752 0.95224 0.0
H2587 H 0.0521 0.00873 0.91612 0.0
H2588 H 0.03532 0.009 0.94217 0.0
H2589 H 0.07049 0.03576 0.89986 0.0
H2590 H 0.08493 0.98767 0.93026 0.0
H2591 H 0.09754 0.97467 0.95533 0.0
H2592 H 0.14832 0.00875 0.95267 0.0
H2593 H 0.13592 0.02249 0.92821 0.0
C2594 C 0.10989 0.01211 0.8275 0.0
C2595 C 0.12818 0.01495 0.82675 0.0
C2596 C 0.1024 0.01305 0.84431 0.0
C2597 C 0.11268 0.01768 0.86174 0.0
C2598 C 0.13103 0.01994 0.86108 0.0
C2599 C 0.13858 0.01857 0.84406 0.0
C2600 C 0.10421 0.02012 0.88011 0.0
C2601 C 0.1102 0.01337 0.89572 0.0
C2602 C 0.08977 0.02874 0.88239 0.0
C2603 C 0.08355 0.03855 0.86822 0.0
C2604 C 0.09526 0.05278 0.86222 0.0
C2605 C 0.08937 0.06198 0.84883 0.0
C2606 C 0.07176 0.05716 0.84143 0.0
C2607 C 0.05999 0.04318 0.84746 0.0
C2608 C 0.06582 0.03392 0.86084 0.0
C2609 C 0.07501 0.03176 0.96523 0.0
C2610 C 0.05678 0.02364 0.96319 0.0
C2611 C 0.08497 0.0312 0.94983 0.0
C2612 C 0.07713 0.02291 0.93153 0.0
C2613 C 0.05894 0.01525 0.92963 0.0
C2614 C 0.04919 0.01542 0.94489 0.0
C2615 C 0.08724 0.02219 0.9143 0.0
C2616 C 0.08145 0.0292 0.89886 0.0
C2617 C 0.10214 0.01431 0.91245 0.0
C2618 C 0.10943 0.00634 0.92757 0.0
C2619 C 0.09873 0.99265 0.93527 0.0
C2620 C 0.10585 0.98513 0.94939 0.0
C2621 C 0.12371 0.99096 0.95573 0.0
C2622 C 0.13447 1.00433 0.94794 0.0
C2623 C 0.12739 0.01204 0.93398 0.0
H2624 H 0.12921 0.98505 0.9666 0.0
H2625 H 0.06722 0.0643 0.83106 0.0
H2626 H 0.79617 0.35543 0.5289 0.0
H2627 H 0.80523 0.3353 0.54891 0.0
H2628 H 0.82667 0.3833 0.59156 0.0
H2629 H 0.81783 0.40358 0.57158 0.0
H2630 H 0.84838 0.35851 0.58778 0.0
H2631 H 0.78712 0.35696 0.59309 0.0
H2632 H 0.75603 0.35183 0.58091 0.0
H2633 H 0.7549 0.29501 0.558 0.0
H2634 H 0.78606 0.29988 0.56986 0.0
H2635 H 0.84499 0.32687 0.67205 0.0
H2636 H 0.84623 0.34044 0.64441 0.0
H2637 H 0.81901 0.28726 0.61181 0.0
H2638 H 0.81633 0.27401 0.63955 0.0
H2639 H 0.80193 0.31121 0.60626 0.0
H2640 H 0.86208 0.31117 0.60586 0.0
H2641 H 0.89307 0.31625 0.61831 0.0
H2642 H 0.89695 0.37515 0.63188 0.0
H2643 H 0.86592 0.37042 0.61976 0.0
C2644 C 0.8028 0.36171 0.54254 0.0
C2645 C 0.80614 0.38106 0.54875 0.0
C2646 C 0.80802 0.3502 0.55391 0.0
C2647 C 0.81655 0.35784 0.5717 0.0
C2648 C 0.82016 0.37718 0.57783 0.0
C2649 C 0.81496 0.3887 0.56647 0.0
C2650 C 0.82084 0.34563 0.58435 0.0
C2651 C 0.83829 0.34817 0.59194 0.0
C2652 C 0.8077 0.33179 0.58922 0.0
C2653 C 0.78895 0.32885 0.58216 0.0
C2654 C 0.78027 0.34342 0.58533 0.0
C2655 C 0.76263 0.34055 0.57851 0.0
C2656 C 0.75351 0.32312 0.56863 0.0
C2657 C 0.76199 0.30851 0.56561 0.0
C2658 C 0.77963 0.31131 0.57238 0.0
C2659 C 0.83944 0.31797 0.65898 0.0
C2660 C 0.83011 0.29948 0.65816 0.0
C2661 C 0.84045 0.32569 0.64308 0.0
C2662 C 0.83263 0.3149 0.62597 0.0
C2663 C 0.82503 0.2959 0.62488 0.0
C2664 C 0.82367 0.28827 0.64081 0.0
C2665 C 0.82959 0.32411 0.61009 0.0
C2666 C 0.81225 0.32113 0.60189 0.0
C2667 C 0.84289 0.33747 0.60468 0.0
C2668 C 0.86161 0.34041 0.61196 0.0
C2669 C 0.8695 0.3252 0.61161 0.0
C2670 C 0.88709 0.32802 0.6186 0.0
C2671 C 0.89697 0.34601 0.62591 0.0
C2672 C 0.88929 0.36122 0.62621 0.0
C2673 C 0.8717 0.35848 0.61925 0.0
H2674 H 0.91058 0.34816 0.63131 0.0
H2675 H 0.73985 0.32093 0.56337 0.0
H2676 H 0.45434 0.06592 0.33749 0.0
H2677 H 0.46562 0.07336 0.37039 0.0
H2678 H 0.48012 0.02053 0.36596 0.0
H2679 H 0.46939 0.01322 0.33322 0.0
H2680 H 0.45963 0.03176 0.39709 0.0
H2681 H 0.51079 0.05289 0.36506 0.0
H2682 H 0.52614 0.07265 0.34503 0.0
H2683 H 0.52036 0.12171 0.38054 0.0
H2684 H 0.50477 0.10217 0.40065 0.0
H2685 H 0.52104 0.01667 0.46037 0.0
H2686 H 0.50176 0.02096 0.43492 0.0
H2687 H 0.51871 0.08075 0.4521 0.0
H2688 H 0.53926 0.07628 0.47688 0.0
H2689 H 0.51804 0.07412 0.41831 0.0
H2690 H 0.47223 0.05379 0.45416 0.0
H2691 H 0.45511 0.03456 0.4736 0.0
H2692 H 0.4494 0.98574 0.43239 0.0
H2693 H 0.46598 1.00462 0.41248 0.0
C2694 C 0.45991 0.05592 0.3436 0.0
C2695 C 0.46109 0.03903 0.33285 0.0
C2696 C 0.46631 0.06018 0.3623 0.0
C2697 C 0.47358 0.04742 0.37044 0.0
C2698 C 0.47445 0.03047 0.35982 0.0
C2699 C 0.46844 0.02638 0.34114 0.0
C2700 C 0.48086 0.05164 0.38994 0.0
C2701 C 0.47233 0.04113 0.40192 0.0
C2702 C 0.49704 0.06442 0.39625 0.0
C2703 C 0.50641 0.07609 0.38418 0.0
C2704 C 0.51264 0.06787 0.36848 0.0
C2705 C 0.52142 0.07903 0.35714 0.0
C2706 C 0.52416 0.09842 0.36147 0.0
C2707 C 0.51818 0.10669 0.37718 0.0
C2708 C 0.50938 0.09558 0.38854 0.0
C2709 C 0.5206 0.03072 0.45866 0.0
C2710 C 0.53165 0.04616 0.47028 0.0
C2711 C 0.50931 0.0332 0.44435 0.0
C2712 C 0.50825 0.0512 0.44187 0.0
C2713 C 0.51916 0.06672 0.45378 0.0
C2714 C 0.53095 0.0642 0.46781 0.0
C2715 C 0.49723 0.05352 0.42557 0.0
C2716 C 0.50502 0.06529 0.41404 0.0
C2717 C 0.48018 0.04207 0.41979 0.0
C2718 C 0.47042 0.03063 0.43187 0.0
C2719 C 0.4674 0.03894 0.4493 0.0
C2720 C 0.45777 0.02812 0.46037 0.0
C2721 C 0.45137 0.00897 0.45432 0.0
C2722 C 0.45438 1.00058 0.43707 0.0
C2723 C 0.46376 0.01135 0.42582 0.0
H2724 H 0.44399 1.00064 0.46297 0.0
H2725 H 0.53097 0.10703 0.35268 0.0
H2726 H 0.75424 0.68224 0.06322 0.0
H2727 H 0.75809 0.70062 0.09408 0.0
H2728 H 0.80161 0.73982 0.08038 0.0
H2729 H 0.79766 0.72139 0.04902 0.0
H2730 H 0.8081 0.7274 0.11476 0.0
H2731 H 0.766 0.75388 0.08495 0.0
H2732 H 0.73893 0.7534 0.06548 0.0
H2733 H 0.70819 0.72499 0.10197 0.0
H2734 H 0.73509 0.72505 0.12153 0.0
H2735 H 0.81363 0.7828 0.20348 0.0
H2736 H 0.81209 0.7727 0.17029 0.0
H2737 H 0.76042 0.73813 0.16948 0.0
H2738 H 0.76154 0.74912 0.20248 0.0
H2739 H 0.76011 0.75215 0.14082 0.0
H2740 H 0.80136 0.72167 0.1682 0.0
H2741 H 0.82798 0.72069 0.18767 0.0
H2742 H 0.85974 0.75482 0.15603 0.0
H2743 H 0.8333 0.7561 0.13645 0.0
C2744 C 0.76459 0.69483 0.06664 0.0
C2745 C 0.77566 0.70032 0.05358 0.0
C2746 C 0.76674 0.70537 0.08433 0.0
C2747 C 0.78009 0.72165 0.08959 0.0
C2748 C 0.79118 0.72731 0.07662 0.0
C2749 C 0.78886 0.71684 0.05869 0.0
C2750 C 0.78247 0.73223 0.10881 0.0
C2751 C 0.79777 0.73317 0.1204 0.0
C2752 C 0.76882 0.73934 0.11631 0.0
C2753 C 0.75259 0.73936 0.10464 0.0
C2754 C 0.75348 0.7474 0.08875 0.0
C2755 C 0.73816 0.74723 0.07771 0.0
C2756 C 0.72185 0.73914 0.08247 0.0
C2757 C 0.72083 0.73125 0.0983 0.0
C2758 C 0.73611 0.73137 0.10938 0.0
C2759 C 0.80191 0.7731 0.1962 0.0
C2760 C 0.78773 0.76671 0.20566 0.0
C2761 C 0.80108 0.76719 0.17718 0.0
C2762 C 0.7863 0.75422 0.16723 0.0
C2763 C 0.77202 0.74809 0.17668 0.0
C2764 C 0.77267 0.75436 0.19562 0.0
C2765 C 0.78561 0.74694 0.14707 0.0
C2766 C 0.77058 0.74659 0.13525 0.0
C2767 C 0.79944 0.74016 0.13942 0.0
C2768 C 0.81535 0.73913 0.15098 0.0
C2769 C 0.81402 0.72902 0.16545 0.0
C2770 C 0.82908 0.72839 0.17649 0.0
C2771 C 0.84554 0.73771 0.17311 0.0
C2772 C 0.84699 0.7476 0.15863 0.0
C2773 C 0.83198 0.74826 0.14754 0.0
H2774 H 0.85718 0.73725 0.1817 0.0
H2775 H 0.71001 0.73902 0.0739 0.0
H2776 H 0.10843 0.99985 0.71959 0.0
H2777 H 0.09369 1.00252 0.68994 0.0
H2778 H 0.14372 0.0174 0.67023 0.0
H2779 H 0.1584 0.01497 0.69988 0.0
H2780 H 0.12615 0.03769 0.65703 0.0
H2781 H 0.11081 0.97236 0.65591 0.0
H2782 H 0.09867 0.94269 0.66574 0.0
H2783 H 0.04776 0.95466 0.66334 0.0
H2784 H 0.05965 0.98456 0.65378 0.0
H2785 H 0.06457 0.99484 0.56116 0.0
H2786 H 0.07887 0.99087 0.59052 0.0
H2787 H 0.08236 0.04856 0.61284 0.0
H2788 H 0.06859 0.05265 0.58347 0.0
H2789 H 0.07399 0.99094 0.62384 0.0
H2790 H 0.11459 0.06677 0.64845 0.0
H2791 H 0.12938 0.09345 0.63531 0.0
H2792 H 0.1341 0.05618 0.58661 0.0
H2793 H 0.11955 0.02928 0.59955 0.0
C2794 C 0.11638 1.00359 0.70896 0.0
C2795 C 0.13484 0.00706 0.71259 0.0
C2796 C 0.10782 0.00505 0.6917 0.0
C2797 C 0.11726 0.01002 0.67707 0.0
C2798 C 0.13572 0.01357 0.68079 0.0
C2799 C 0.14424 0.01207 0.698 0.0
C2800 C 0.10817 0.01188 0.65825 0.0
C2801 C 0.11467 0.0274 0.64999 0.0
C2802 C 0.09329 0.99853 0.64812 0.0
C2803 C 0.08619 0.98083 0.65438 0.0
C2804 C 0.09708 0.96878 0.6577 0.0
C2805 C 0.09023 0.9519 0.66318 0.0
C2806 C 0.07248 0.94683 0.66525 0.0
C2807 C 0.06153 0.95864 0.66182 0.0
C2808 C 0.06832 0.97556 0.65637 0.0
C2809 C 0.06842 0.00678 0.57224 0.0
C2810 C 0.06532 0.02417 0.5694 0.0
C2811 C 0.07666 1.00446 0.58932 0.0
C2812 C 0.08233 0.01941 0.60448 0.0
C2813 C 0.07885 0.03668 0.6017 0.0
C2814 C 0.0707 0.03901 0.58465 0.0
C2815 C 0.09169 0.01699 0.62292 0.0
C2816 C 0.08532 1.00134 0.63104 0.0
C2817 C 0.10694 0.02998 0.63273 0.0
C2818 C 0.11581 0.04605 0.6249 0.0
C2819 C 0.11884 0.06428 0.63496 0.0
C2820 C 0.12717 0.07943 0.62754 0.0
C2821 C 0.13262 0.07652 0.61011 0.0
C2822 C 0.12981 0.05843 0.60008 0.0
C2823 C 0.12151 0.04323 0.60744 0.0
H2824 H 0.13905 0.08827 0.60439 0.0
H2825 H 0.06719 0.93372 0.66943 0.0
H2826 H 0.79762 0.41676 0.43061 0.0
H2827 H 0.79833 0.39495 0.40257 0.0
H2828 H 0.78993 0.34938 0.43244 0.0
H2829 H 0.78976 0.37113 0.4606 0.0
H2830 H 0.81373 0.3455 0.4109 0.0
H2831 H 0.75671 0.35738 0.4032 0.0
H2832 H 0.73464 0.37618 0.40194 0.0
H2833 H 0.75705 0.39923 0.35753 0.0
H2834 H 0.77941 0.38076 0.35869 0.0
H2835 H 0.78567 0.27455 0.32829 0.0
H2836 H 0.788 0.29472 0.35842 0.0
H2837 H 0.80578 0.34319 0.33424 0.0
H2838 H 0.80365 0.32328 0.30436 0.0
H2839 H 0.77648 0.3442 0.35322 0.0
H2840 H 0.83378 0.33136 0.36181 0.0
H2841 H 0.85446 0.31098 0.36303 0.0
H2842 H 0.82937 0.28763 0.40592 0.0
H2843 H 0.80837 0.30769 0.40477 0.0
C2844 C 0.79589 0.40209 0.43119 0.0
C2845 C 0.79359 0.39568 0.44782 0.0
C2846 C 0.79624 0.38962 0.41514 0.0
C2847 C 0.79395 0.37047 0.41534 0.0
C2848 C 0.79173 0.36407 0.43195 0.0
C2849 C 0.79159 0.37655 0.44803 0.0
C2850 C 0.79399 0.35712 0.39828 0.0
C2851 C 0.8054 0.34505 0.39836 0.0
C2852 C 0.78324 0.35662 0.38186 0.0
C2853 C 0.76985 0.36782 0.38116 0.0
C2854 C 0.75702 0.36657 0.39327 0.0
C2855 C 0.74445 0.37715 0.39255 0.0
C2856 C 0.74447 0.38893 0.3797 0.0
C2857 C 0.75706 0.39012 0.3675 0.0
C2858 C 0.76968 0.37959 0.36817 0.0
C2859 C 0.7904 0.28948 0.32954 0.0
C2860 C 0.79435 0.29738 0.31402 0.0
C2861 C 0.79172 0.30095 0.3467 0.0
C2862 C 0.79695 0.32041 0.34845 0.0
C2863 C 0.80163 0.32821 0.33311 0.0
C2864 C 0.80045 0.3168 0.31607 0.0
C2865 C 0.79636 0.33285 0.36585 0.0
C2866 C 0.78476 0.34468 0.36581 0.0
C2867 C 0.80673 0.33291 0.38233 0.0
C2868 C 0.81938 0.32088 0.38306 0.0
C2869 C 0.83257 0.32175 0.37138 0.0
C2870 C 0.84437 0.31029 0.37208 0.0
C2871 C 0.8432 0.29798 0.3845 0.0
C2872 C 0.83025 0.29715 0.39628 0.0
C2873 C 0.8184 0.30858 0.39562 0.0
H2874 H 0.85236 0.28912 0.38503 0.0
H2875 H 0.73472 0.3971 0.37916 0.0
H2876 H 0.46381 0.01656 0.24028 0.0
H2877 H 0.47254 1.00201 0.21199 0.0
H2878 H 0.43778 0.02614 0.18041 0.0
H2879 H 0.42788 0.03947 0.20884 0.0
H2880 H 0.43735 0.9933 0.16258 0.0
H2881 H 0.48331 0.04628 0.19217 0.0
H2882 H 0.50514 0.06554 0.21747 0.0
H2883 H 0.53072 0.02041 0.21852 0.0
H2884 H 0.50889 1.00081 0.19335 0.0
H2885 H 0.48656 0.0245 0.09532 0.0
H2886 H 0.46683 0.013 0.11655 0.0
H2887 H 0.50124 0.97879 0.13199 0.0
H2888 H 0.52121 0.99052 0.11085 0.0
H2889 H 0.50111 0.00811 0.15833 0.0
H2890 H 0.45424 0.95559 0.12668 0.0
H2891 H 0.43171 0.93795 0.10119 0.0
H2892 H 0.40944 0.98556 0.10148 0.0
H2893 H 0.43142 1.00322 0.12747 0.0
C2894 C 0.45797 0.01871 0.22733 0.0
C2895 C 0.44531 0.0293 0.22672 0.0
C2896 C 0.46298 0.01039 0.21115 0.0
C2897 C 0.45607 0.01327 0.19409 0.0
C2898 C 0.44327 0.0237 0.19343 0.0
C2899 C 0.43779 0.0315 0.20963 0.0
C2900 C 0.46303 0.00647 0.17708 0.0
C2901 C 0.4513 0.99653 0.16162 0.0
C2902 C 0.48124 0.01026 0.17592 0.0
C2903 C 0.49435 0.02202 0.19107 0.0
C2904 C 0.49352 0.04043 0.1979 0.0
C2905 C 0.5059 0.05141 0.21219 0.0
C2906 C 0.51927 0.04418 0.21964 0.0
C2907 C 0.52032 0.02597 0.21277 0.0
C2908 C 0.50796 0.01493 0.19849 0.0
C2909 C 0.48963 0.01409 0.10281 0.0
C2910 C 0.50566 0.00889 0.10197 0.0
C2911 C 0.47816 0.0072 0.11469 0.0
C2912 C 0.48262 0.9951 0.12594 0.0
C2913 C 0.49754 0.98805 0.12334 0.0
C2914 C 0.50901 0.9949 0.11139 0.0
C2915 C 0.47547 0.99525 0.14366 0.0
C2916 C 0.4872 1.0042 0.15939 0.0
C2917 C 0.45733 0.99096 0.14487 0.0
C2918 C 0.44449 0.98072 0.1289 0.0
C2919 C 0.44454 0.96228 0.12128 0.0
C2920 C 0.43177 0.95223 0.10688 0.0
C2921 C 0.41918 0.96064 0.09969 0.0
C2922 C 0.41919 0.97906 0.10706 0.0
C2923 C 0.43168 0.98903 0.12175 0.0
H2924 H 0.40945 0.9529 0.0884 0.0
H2925 H 0.52885 0.0527 0.2307 0.0
H2926 H 0.77968 0.73164 0.95379 0.0
H2927 H 0.78272 0.74567 0.92621 0.0
H2928 H 0.78608 0.69297 0.89502 0.0
H2929 H 0.78326 0.67896 0.92255 0.0
H2930 H 0.80945 0.7203 0.88584 0.0
H2931 H 0.74823 0.70903 0.89151 0.0
H2932 H 0.722 0.71068 0.90698 0.0
H2933 H 0.73564 0.77041 0.91405 0.0
H2934 H 0.76211 0.76913 0.89885 0.0
H2935 H 0.79805 0.74662 0.79778 0.0
H2936 H 0.79435 0.7306 0.82408 0.0
H2937 H 0.78819 0.78119 0.85724 0.0
H2938 H 0.79114 0.79684 0.83081 0.0
H2939 H 0.76568 0.75356 0.86471 0.0
H2940 H 0.82763 0.76457 0.85967 0.0
H2941 H 0.85342 0.76245 0.84353 0.0
H2942 H 0.83794 0.70269 0.83466 0.0
H2943 H 0.81194 0.70446 0.85058 0.0
C2944 C 0.78112 0.72304 0.94108 0.0
C2945 C 0.78116 0.70413 0.94045 0.0
C2946 C 0.78277 0.73107 0.92525 0.0
C2947 C 0.78442 0.72037 0.90835 0.0
C2948 C 0.78481 0.70158 0.9078 0.0
C2949 C 0.78314 0.69355 0.9236 0.0
C2950 C 0.78563 0.72868 0.89124 0.0
C2951 C 0.79975 0.72738 0.88112 0.0
C2952 C 0.77315 0.73816 0.88506 0.0
C2953 C 0.75725 0.73899 0.89421 0.0
C2954 C 0.74572 0.72252 0.8965 0.0
C2955 C 0.73079 0.72339 0.90519 0.0
C2956 C 0.72718 0.74064 0.91154 0.0
C2957 C 0.73847 0.75706 0.90916 0.0
C2958 C 0.75343 0.75627 0.90049 0.0
C2959 C 0.79576 0.75422 0.81062 0.0
C2960 C 0.79488 0.77297 0.81213 0.0
C2961 C 0.79381 0.74512 0.82577 0.0
C2962 C 0.79124 0.7547 0.8429 0.0
C2963 C 0.79017 0.7734 0.84429 0.0
C2964 C 0.79194 0.78239 0.82913 0.0
C2965 C 0.78965 0.74545 0.85943 0.0
C2966 C 0.77541 0.74652 0.86942 0.0
C2967 C 0.802 0.73573 0.86546 0.0
C2968 C 0.81777 0.73465 0.85616 0.0
C2969 C 0.82969 0.75098 0.8542 0.0
C2970 C 0.84434 0.74984 0.8451 0.0
C2971 C 0.84729 0.73245 0.83803 0.0
C2972 C 0.83563 0.71615 0.84012 0.0
C2973 C 0.82094 0.71721 0.8492 0.0
H2974 H 0.85863 0.73159 0.83096 0.0
H2975 H 0.71562 0.74128 0.91826 0.0
H2976 H 0.79534 0.06631 0.03862 0.0
H2977 H 0.82091 0.05293 0.03571 0.0
H2978 H 0.85189 0.10637 0.02973 0.0
H2979 H 0.82629 0.11958 0.03193 0.0
H2980 H 0.85693 0.0809 0.00433 0.0
H2981 H 0.85647 0.0871 0.06968 0.0
H2982 H 0.84383 0.08281 0.09839 0.0
H2983 H 0.83442 0.02339 0.08211 0.0
H2984 H 0.84681 0.02733 0.05318 0.0
H2985 H 0.94015 0.06136 0.01142 0.0
H2986 H 0.91485 0.07393 0.0179 0.0
H2987 H 0.88499 0.01885 0.02028 0.0
H2988 H 0.91066 0.00627 0.01489 0.0
H2989 H 0.87904 0.04422 0.04725 0.0
H2990 H 0.88001 0.03883 0.98163 0.0
H2991 H 0.89413 0.04399 0.95389 0.0
H2992 H 0.90388 0.10321 0.97188 0.0
H2993 H 0.88993 0.09841 0.99982 0.0
C2994 C 0.80767 0.07523 0.03693 0.0
C2995 C 0.80882 0.09395 0.03542 0.0
C2996 C 0.82229 0.06759 0.03532 0.0
C2997 C 0.83836 0.07867 0.03259 0.0
C2998 C 0.83962 0.09753 0.03172 0.0
C2999 C 0.82499 0.10507 0.03303 0.0
C3000 C 0.85365 0.0705 0.02962 0.0
C3001 C 0.86188 0.07309 0.01387 0.0
C3002 C 0.85987 0.05991 0.0418 0.0
C3003 C 0.8524 0.05751 0.05918 0.0
C3004 C 0.85158 0.07312 0.07215 0.0
C3005 C 0.84448 0.07075 0.08848 0.0
C3006 C 0.83828 0.05284 0.09205 0.0
C3007 C 0.8392 0.03726 0.07932 0.0
C3008 C 0.84628 0.03955 0.06296 0.0
C3009 C 0.92831 0.05192 0.01362 0.0
C3010 C 0.92743 0.03278 0.01265 0.0
C3011 C 0.91378 0.05911 0.01709 0.0
C3012 C 0.89796 0.04727 0.01926 0.0
C3013 C 0.89707 0.02821 0.01855 0.0
C3014 C 0.91168 0.02101 0.01527 0.0
C3015 C 0.88233 0.05479 0.02211 0.0
C3016 C 0.87402 0.05202 0.03775 0.0
C3017 C 0.8761 0.06534 0.00992 0.0
C3018 C 0.884 0.06825 0.99285 0.0
C3019 C 0.88519 0.05295 0.97968 0.0
C3020 C 0.89316 0.05581 0.96393 0.0
C3021 C 0.8999 0.07392 0.96113 0.0
C3022 C 0.89862 0.0892 0.97405 0.0
C3023 C 0.89065 0.08642 0.98983 0.0
H3024 H 0.90611 0.0761 0.94895 0.0
H3025 H 0.83279 0.05103 0.1047 0.0
H3026 H 0.36426 0.40772 0.03456 0.0
H3027 H 0.39571 0.4211 0.0352 0.0
H3028 H 0.38532 0.47558 0.03599 0.0
H3029 H 0.35416 0.46229 0.03476 0.0
H3030 H 0.40553 0.47033 0.01149 0.0
H3031 H 0.40609 0.46201 0.07512 0.0
H3032 H 0.4006 0.44379 0.09987 0.0
H3033 H 0.43233 0.40765 0.07781 0.0
H3034 H 0.43785 0.42559 0.05282 0.0
H3035 H 0.49756 0.52052 0.059 0.0
H3036 H 0.46883 0.50058 0.06052 0.0
H3037 H 0.4669 0.47459 0.00396 0.0
H3038 H 0.49543 0.49479 1.00227 0.0
H3039 H 0.45357 0.46345 0.05556 0.0
H3040 H 0.42565 0.4683 0.98288 0.0
H3041 H 0.43114 0.48881 0.95997 0.0
H3042 H 0.4531 0.53569 0.00322 0.0
H3043 H 0.44752 0.51551 0.02636 0.0
C3044 C 0.36876 0.42258 0.03514 0.0
C3045 C 0.35667 0.4339 0.03449 0.0
C3046 C 0.38676 0.43024 0.03553 0.0
C3047 C 0.39301 0.44942 0.03561 0.0
C3048 C 0.38093 0.46075 0.03572 0.0
C3049 C 0.36305 0.45311 0.03508 0.0
C3050 C 0.41187 0.45781 0.03466 0.0
C3051 C 0.41599 0.4687 0.02112 0.0
C3052 C 0.42567 0.45582 0.04714 0.0
C3053 C 0.42232 0.44506 0.0621 0.0
C3054 C 0.41182 0.45012 0.07552 0.0
C3055 C 0.40872 0.43986 0.08959 0.0
C3056 C 0.41612 0.42458 0.09041 0.0
C3057 C 0.42664 0.41952 0.07717 0.0
C3058 C 0.42978 0.42974 0.06308 0.0
C3059 C 0.49109 0.51041 0.04695 0.0
C3060 C 0.49868 0.50936 0.03046 0.0
C3061 C 0.4747 0.49893 0.04787 0.0
C3062 C 0.46554 0.48621 0.0323 0.0
C3063 C 0.47357 0.48444 0.0161 0.0
C3064 C 0.48993 0.49596 0.01516 0.0
C3065 C 0.44706 0.47608 0.03257 0.0
C3066 C 0.44307 0.46487 0.04586 0.0
C3067 C 0.43326 0.47801 0.02008 0.0
C3068 C 0.43635 0.49035 0.00631 0.0
C3069 C 0.43159 0.483 0.98748 0.0
C3070 C 0.43472 0.49457 0.97446 0.0
C3071 C 0.44252 0.51353 0.98013 0.0
C3072 C 0.44712 0.52099 0.99884 0.0
C3073 C 0.44399 0.5095 0.01191 0.0
H3074 H 0.44497 0.52245 0.97003 0.0
H3075 H 0.4137 0.41665 0.10131 0.0
H3076 H 0.36314 0.59055 0.75259 0.0
H3077 H 0.34891 0.61676 0.75466 0.0
H3078 H 0.39923 0.65499 0.76018 0.0
H3079 H 0.41349 0.62872 0.759 0.0
H3080 H 0.38282 0.67405 0.77865 0.0
H3081 H 0.36211 0.63985 0.71801 0.0
H3082 H 0.34816 0.61266 0.69391 0.0
H3083 H 0.30028 0.60715 0.71834 0.0
H3084 H 0.31401 0.63419 0.74272 0.0
H3085 H 0.34563 0.75267 0.76406 0.0
H3086 H 0.36048 0.72691 0.76229 0.0
H3087 H 0.31101 0.68815 0.76036 0.0
H3088 H 0.29613 0.7139 0.76157 0.0
H3089 H 0.32738 0.66975 0.73983 0.0
H3090 H 0.34956 0.70591 0.80046 0.0
H3091 H 0.36452 0.73413 0.8229 0.0
H3092 H 0.41106 0.73703 0.79628 0.0
H3093 H 0.39628 0.70906 0.77349 0.0
C3094 C 0.37133 0.60449 0.75421 0.0
C3095 C 0.38978 0.6069 0.7555 0.0
C3096 C 0.363 0.61984 0.75521 0.0
C3097 C 0.3725 0.63871 0.75714 0.0
C3098 C 0.391 0.64108 0.75864 0.0
C3099 C 0.39934 0.62574 0.75787 0.0
C3100 C 0.36343 0.65566 0.75782 0.0
C3101 C 0.3708 0.67291 0.76986 0.0
C3102 C 0.34742 0.65519 0.74684 0.0
C3103 C 0.33915 0.63891 0.73229 0.0
C3104 C 0.34864 0.63276 0.7183 0.0
C3105 C 0.34077 0.61738 0.70459 0.0
C3106 C 0.32336 0.60815 0.70463 0.0
C3107 C 0.31377 0.61429 0.71836 0.0
C3108 C 0.32159 0.62965 0.73212 0.0
C3109 C 0.33778 0.73874 0.76341 0.0
C3110 C 0.31935 0.736 0.76317 0.0
C3111 C 0.34646 0.72366 0.76251 0.0
C3112 C 0.33736 0.70479 0.76156 0.0
C3113 C 0.31891 0.70209 0.76113 0.0
C3114 C 0.31022 0.71715 0.76192 0.0
C3115 C 0.34669 0.68806 0.76074 0.0
C3116 C 0.33937 0.67085 0.74865 0.0
C3117 C 0.36288 0.68869 0.77147 0.0
C3118 C 0.37176 0.70548 0.78518 0.0
C3119 C 0.36294 0.71264 0.79933 0.0
C3120 C 0.37139 0.72861 0.8121 0.0
C3121 C 0.38871 0.7374 0.81099 0.0
C3122 C 0.39763 0.73026 0.7971 0.0
C3123 C 0.38922 0.71435 0.78425 0.0
H3124 H 0.39524 0.74971 0.82094 0.0
H3125 H 0.31729 0.59625 0.694 0.0
H3126 H 0.22628 0.58909 0.49161 0.0
H3127 H 0.19526 0.57401 0.48136 0.0
H3128 H 0.18031 0.62101 0.51199 0.0
H3129 H 0.21101 0.63621 0.52202 0.0
H3130 H 0.16504 0.58317 0.51908 0.0
H3131 H 0.17784 0.61877 0.46994 0.0
H3132 H 0.19282 0.62652 0.44339 0.0
H3133 H 0.17276 0.57036 0.41433 0.0
H3134 H 0.15795 0.56217 0.44087 0.0
H3135 H 0.08039 0.58133 0.50848 0.0
H3136 H 0.11009 0.59387 0.50222 0.0
H3137 H 0.10807 0.5432 0.46414 0.0
H3138 H 0.07803 0.53085 0.4699 0.0
H3139 H 0.13249 0.57682 0.45724 0.0
H3140 H 0.11982 0.54023 0.504 0.0
H3141 H 0.10396 0.53067 0.52942 0.0
H3142 H 0.12396 0.58536 0.56188 0.0
H3143 H 0.13981 0.59532 0.53654 0.0
C3144 C 0.21634 0.59616 0.49611 0.0
C3145 C 0.22099 0.61374 0.5077 0.0
C3146 C 0.19871 0.58763 0.49014 0.0
C3147 C 0.18566 0.59653 0.49586 0.0
C3148 C 0.1903 0.61404 0.50738 0.0
C3149 C 0.20781 0.62265 0.51314 0.0
C3150 C 0.167 0.58727 0.4912 0.0
C3151 C 0.15794 0.58176 0.50556 0.0
C3152 C 0.15796 0.58481 0.47336 0.0
C3153 C 0.16705 0.58977 0.45754 0.0
C3154 C 0.17685 0.60799 0.45802 0.0
C3155 C 0.18526 0.61249 0.44293 0.0
C3156 C 0.18382 0.59892 0.42722 0.0
C3157 C 0.17393 0.58084 0.42654 0.0
C3158 C 0.16554 0.57626 0.4416 0.0
C3159 C 0.08601 0.57325 0.49815 0.0
C3160 C 0.0772 0.55505 0.48992 0.0
C3161 C 0.1029 0.58042 0.49453 0.0
C3162 C 0.11132 0.56921 0.48311 0.0
C3163 C 0.10176 0.55198 0.47304 0.0
C3164 C 0.08464 0.54494 0.47638 0.0
C3165 C 0.13058 0.57361 0.48536 0.0
C3166 C 0.1397 0.57797 0.47064 0.0
C3167 C 0.13988 0.57464 0.50278 0.0
C3168 C 0.13091 0.56855 0.51833 0.0
C3169 C 0.12078 0.55024 0.51653 0.0
C3170 C 0.11178 0.54475 0.53092 0.0
C3171 C 0.11288 0.55742 0.54722 0.0
C3172 C 0.1231 0.57557 0.54923 0.0
C3173 C 0.13213 0.58113 0.53488 0.0
H3174 H 0.10585 0.55316 0.55832 0.0
H3175 H 0.19031 0.60244 0.41555 0.0
H3176 H 0.6856 0.96594 0.74568 0.0
H3177 H 0.70692 0.94891 0.75512 0.0
H3178 H 0.74686 1.00023 0.76837 0.0
H3179 H 0.72569 0.01723 0.75816 0.0
H3180 H 0.75915 0.97503 0.7498 0.0
H3181 H 0.72874 0.97676 0.80243 0.0
H3182 H 0.7033 0.97343 0.81982 0.0
H3183 H 0.68854 0.91473 0.79799 0.0
H3184 H 0.71374 0.91773 0.78025 0.0
H3185 H 0.81654 0.92132 0.78343 0.0
H3186 H 0.79898 0.94489 0.78433 0.0
H3187 H 0.75348 0.90216 0.75889 0.0
H3188 H 0.77085 0.87873 0.75795 0.0
H3189 H 0.7472 0.92711 0.78921 0.0
H3190 H 0.77493 0.92743 0.73297 0.0
H3191 H 0.80055 0.93082 0.71583 0.0
H3192 H 0.82066 0.98657 0.74594 0.0
H3193 H 0.79525 0.98338 0.76346 0.0
C3194 C 0.6989 0.9736 0.75073 0.0
C3195 C 0.70404 0.99287 0.75116 0.0
C3196 C 0.71104 0.96389 0.75628 0.0
C3197 C 0.72843 0.97335 0.76279 0.0
C3198 C 0.73351 0.99267 0.76346 0.0
C3199 C 0.72142 1.00234 0.75762 0.0
C3200 C 0.7415 0.9628 0.76758 0.0
C3201 C 0.75672 0.9649 0.7588 0.0
C3202 C 0.73827 0.94942 0.77918 0.0
C3203 C 0.72311 0.94751 0.78992 0.0
C3204 C 0.72002 0.96316 0.80124 0.0
C3205 C 0.70564 0.96132 0.81118 0.0
C3206 C 0.6943 0.94388 0.80999 0.0
C3207 C 0.69734 0.92823 0.7989 0.0
C3208 C 0.71169 0.92999 0.78892 0.0
C3209 C 0.80278 0.91705 0.77808 0.0
C3210 C 0.79505 0.89834 0.77039 0.0
C3211 C 0.79281 0.93044 0.77862 0.0
C3212 C 0.77499 0.92517 0.77167 0.0
C3213 C 0.76721 0.90644 0.76436 0.0
C3214 C 0.77717 0.89314 0.76363 0.0
C3215 C 0.76442 0.93913 0.77109 0.0
C3216 C 0.74973 0.93763 0.78063 0.0
C3217 C 0.76816 0.95313 0.76032 0.0
C3218 C 0.78333 0.95509 0.74968 0.0
C3219 C 0.78489 0.94035 0.73604 0.0
C3220 C 0.79936 0.94225 0.72624 0.0
C3221 C 0.81225 0.95888 0.72983 0.0
C3222 C 0.81068 0.97368 0.7432 0.0
C3223 C 0.79625 0.97184 0.75307 0.0
H3224 H 0.82344 0.96032 0.72223 0.0
H3225 H 0.68318 0.94249 0.8177 0.0
H3226 H 0.73544 0.89019 0.53513 0.0
H3227 H 0.71066 0.90499 0.53321 0.0
H3228 H 0.74624 0.95789 0.53389 0.0
H3229 H 0.77102 0.94331 0.53652 0.0
H3230 H 0.72279 0.96355 0.55465 0.0
H3231 H 0.72009 0.92926 0.49339 0.0
H3232 H 0.71837 0.90136 0.46991 0.0
H3233 H 0.66949 0.87491 0.48603 0.0
H3234 H 0.67103 0.90258 0.50977 0.0
H3235 H 0.6643 0.01335 0.52092 0.0
H3236 H 0.68707 0.99615 0.52392 0.0
H3237 H 0.64824 0.94741 0.52898 0.0
H3238 H 0.62519 0.96444 0.52544 0.0
H3239 H 0.67199 0.93843 0.50637 0.0
H3240 H 0.6744 0.97391 0.56673 0.0
H3241 H 0.67621 1.00236 0.58948 0.0
H3242 H 0.72602 0.02715 0.57415 0.0
H3243 H 0.72441 0.99892 0.55113 0.0
C3244 C 0.73797 0.90498 0.53489 0.0
C3245 C 0.75523 0.91555 0.53595 0.0
C3246 C 0.72376 0.91343 0.53367 0.0
C3247 C 0.72645 0.93257 0.5331 0.0
C3248 C 0.74372 0.94313 0.5343 0.0
C3249 C 0.75792 0.93475 0.53577 0.0
C3250 C 0.71141 0.94174 0.53144 0.0
C3251 C 0.71181 0.95812 0.54393 0.0
C3252 C 0.69674 0.93451 0.51779 0.0
C3253 C 0.69577 0.91791 0.50348 0.0
C3254 C 0.70904 0.91744 0.49201 0.0
C3255 C 0.70809 0.90168 0.47864 0.0
C3256 C 0.69386 0.88635 0.47652 0.0
C3257 C 0.68052 0.88678 0.48772 0.0
C3258 C 0.68141 0.9025 0.50112 0.0
C3259 C 0.6605 0.99891 0.52245 0.0
C3260 C 0.64283 0.99032 0.5229 0.0
C3261 C 0.67361 0.98912 0.52436 0.0
C3262 C 0.66945 0.97051 0.5269 0.0
C3263 C 0.65181 0.96177 0.52711 0.0
C3264 C 0.63865 0.97158 0.52523 0.0
C3265 C 0.68358 0.96032 0.52939 0.0
C3266 C 0.68297 0.94376 0.51711 0.0
C3267 C 0.69812 0.96743 0.54314 0.0
C3268 C 0.69921 0.98435 0.55711 0.0
C3269 C 0.68569 0.98547 0.56813 0.0
C3270 C 0.68669 1.00156 0.58108 0.0
C3271 C 0.7012 0.01657 0.58323 0.0
C3272 C 0.71478 0.01552 0.57246 0.0
C3273 C 0.71384 0.99947 0.55948 0.0
H3274 H 0.70195 0.02902 0.59327 0.0
H3275 H 0.69315 0.87417 0.46616 0.0
H3276 H 0.36462 0.49357 0.74416 0.0
H3277 H 0.34666 0.46232 0.74474 0.0
H3278 H 0.3934 0.44387 0.75878 0.0
H3279 H 0.4111 0.47435 0.75719 0.0
H3280 H 0.37548 0.4164 0.739 0.0
H3281 H 0.35813 0.45373 0.78966 0.0
H3282 H 0.34657 0.47929 0.80553 0.0
H3283 H 0.29803 0.4592 0.76992 0.0
H3284 H 0.30939 0.43363 0.7537 0.0
H3285 H 0.33119 0.33196 0.76969 0.0
H3286 H 0.34851 0.36355 0.7689 0.0
H3287 H 0.30395 0.37537 0.7396 0.0
H3288 H 0.28691 0.34389 0.73991 0.0
H3289 H 0.32012 0.40562 0.76683 0.0
H3290 H 0.33843 0.3665 0.71803 0.0
H3291 H 0.35101 0.34101 0.70378 0.0
H3292 H 0.39941 0.3647 0.73889 0.0
H3293 H 0.38702 0.39014 0.75362 0.0
C3294 C 0.37109 0.4829 0.74745 0.0
C3295 C 0.38957 0.48696 0.75058 0.0
C3296 C 0.3607 0.46478 0.74793 0.0
C3297 C 0.36828 0.45003 0.75207 0.0
C3298 C 0.38673 0.45434 0.75537 0.0
C3299 C 0.39702 0.47216 0.75454 0.0
C3300 C 0.35751 0.4302 0.75275 0.0
C3301 C 0.36355 0.41432 0.74544 0.0
C3302 C 0.34153 0.42655 0.7607 0.0
C3303 C 0.33469 0.44191 0.77034 0.0
C3304 C 0.34504 0.45485 0.78514 0.0
C3305 C 0.33852 0.46932 0.79421 0.0
C3306 C 0.3216 0.47091 0.7887 0.0
C3307 C 0.31115 0.45798 0.77414 0.0
C3308 C 0.31762 0.44349 0.76502 0.0
C3309 C 0.32504 0.34125 0.76307 0.0
C3310 C 0.30744 0.335 0.75489 0.0
C3311 C 0.33505 0.35947 0.76255 0.0
C3312 C 0.32779 0.37236 0.75414 0.0
C3313 C 0.31015 0.36614 0.74625 0.0
C3314 C 0.30032 0.34788 0.74641 0.0
C3315 C 0.33832 0.39211 0.7534 0.0
C3316 C 0.33216 0.40787 0.76057 0.0
C3317 C 0.35438 0.39566 0.74568 0.0
C3318 C 0.36171 0.38013 0.73709 0.0
C3319 C 0.35168 0.36616 0.72289 0.0
C3320 C 0.35879 0.35173 0.71469 0.0
C3321 C 0.37599 0.35122 0.72045 0.0
C3322 C 0.38609 0.3651 0.73446 0.0
C3323 C 0.37902 0.37951 0.74275 0.0
H3324 H 0.38152 0.34014 0.71399 0.0
H3325 H 0.31657 0.48212 0.79574 0.0
H3326 H 0.14183 0.59336 0.22349 0.0
H3327 H 0.15914 0.62553 0.23143 0.0
H3328 H 0.20446 0.606 0.24862 0.0
H3329 H 0.18732 0.57391 0.24094 0.0
H3330 H 0.20053 0.63554 0.27341 0.0
H3331 H 0.2002 0.61871 0.2075 0.0
H3332 H 0.1862 0.60762 0.17551 0.0
H3333 H 0.16019 0.65277 0.18002 0.0
H3334 H 0.17388 0.66397 0.21214 0.0
H3335 H 0.26391 0.71269 0.23805 0.0
H3336 H 0.2431 0.68278 0.23443 0.0
H3337 H 0.21871 0.70402 0.28055 0.0
H3338 H 0.24001 0.73408 0.28461 0.0
H3339 H 0.20914 0.67515 0.22575 0.0
H3340 H 0.19977 0.66695 0.29976 0.0
H3341 H 0.21565 0.67794 0.33106 0.0
H3342 H 0.26471 0.68169 0.30913 0.0
H3343 H 0.24912 0.6706 0.27774 0.0
C3344 C 0.15552 0.59589 0.22881 0.0
C3345 C 0.16321 0.58105 0.23152 0.0
C3346 C 0.16535 0.61428 0.23342 0.0
C3347 C 0.18304 0.61809 0.24068 0.0
C3348 C 0.19078 0.60333 0.24321 0.0
C3349 C 0.18098 0.58498 0.23864 0.0
C3350 C 0.19376 0.6374 0.24511 0.0
C3351 C 0.20236 0.64427 0.26304 0.0
C3352 C 0.19609 0.64874 0.23158 0.0
C3353 C 0.18789 0.64204 0.21227 0.0
C3354 C 0.19138 0.62617 0.20171 0.0
C3355 C 0.18353 0.61989 0.18355 0.0
C3356 C 0.17227 0.62945 0.17575 0.0
C3357 C 0.16889 0.64535 0.18609 0.0
C3358 C 0.17669 0.65168 0.20427 0.0
C3359 C 0.2542 0.71099 0.24752 0.0
C3360 C 0.2535 0.7257 0.26156 0.0
C3361 C 0.24228 0.69391 0.24539 0.0
C3362 C 0.22932 0.69121 0.25714 0.0
C3363 C 0.22872 0.70577 0.27143 0.0
C3364 C 0.24087 0.7229 0.27374 0.0
C3365 C 0.21635 0.67315 0.25391 0.0
C3366 C 0.20716 0.66655 0.23622 0.0
C3367 C 0.21376 0.66199 0.26758 0.0
C3368 C 0.22328 0.66811 0.28642 0.0
C3369 C 0.21394 0.67004 0.30164 0.0
C3370 C 0.22289 0.67631 0.31939 0.0
C3371 C 0.24117 0.68056 0.32207 0.0
C3372 C 0.25055 0.67846 0.30702 0.0
C3373 C 0.24167 0.6722 0.28926 0.0
H3374 H 0.24808 0.68544 0.33581 0.0
H3375 H 0.1662 0.62456 0.16169 0.0
H3376 H 0.52301 0.72604 0.45899 0.0
H3377 H 0.52579 0.69916 0.4731 0.0
H3378 H 0.49097 0.66244 0.42796 0.0
H3379 H 0.4883 0.68931 0.41361 0.0
H3380 H 0.48449 0.65311 0.46337 0.0
H3381 H 0.53278 0.6657 0.42778 0.0
H3382 H 0.5585 0.68552 0.41827 0.0
H3383 H 0.58464 0.69667 0.47339 0.0
H3384 H 0.55895 0.67713 0.48328 0.0
H3385 H 0.50392 0.56749 0.47891 0.0
H3386 H 0.4982 0.59431 0.46659 0.0
H3387 H 0.54248 0.63017 0.50259 0.0
H3388 H 0.54872 0.60319 0.51432 0.0
H3389 H 0.54351 0.64028 0.47189 0.0
H3390 H 0.49674 0.62848 0.50841 0.0
H3391 H 0.47136 0.60976 0.51955 0.0
H3392 H 0.44259 0.59856 0.46569 0.0
H3393 H 0.46789 0.61704 0.45414 0.0
C3394 C 0.51577 0.71229 0.45212 0.0
C3395 C 0.50544 0.70992 0.4351 0.0
C3396 C 0.51743 0.69687 0.4602 0.0
C3397 C 0.50869 0.67866 0.45159 0.0
C3398 C 0.49785 0.6763 0.43493 0.0
C3399 C 0.49636 0.69171 0.4267 0.0
C3400 C 0.51155 0.66211 0.45954 0.0
C3401 C 0.49735 0.65016 0.46505 0.0
C3402 C 0.52839 0.65845 0.46226 0.0
C3403 C 0.54388 0.67011 0.45631 0.0
C3404 C 0.54396 0.67251 0.4379 0.0
C3405 C 0.55854 0.68367 0.43244 0.0
C3406 C 0.57318 0.69239 0.44523 0.0
C3407 C 0.57328 0.68993 0.4635 0.0
C3408 C 0.55872 0.6788 0.46904 0.0
C3409 C 0.51238 0.5811 0.48435 0.0
C3410 C 0.52678 0.58307 0.4977 0.0
C3411 C 0.50902 0.59655 0.47733 0.0
C3412 C 0.5197 0.61457 0.48375 0.0
C3413 C 0.53397 0.61656 0.49727 0.0
C3414 C 0.53751 0.60105 0.50408 0.0
C3415 C 0.51646 0.63116 0.47595 0.0
C3416 C 0.53061 0.64315 0.47037 0.0
C3417 C 0.49961 0.63499 0.47347 0.0
C3418 C 0.48428 0.62402 0.48037 0.0
C3419 C 0.48504 0.62194 0.49891 0.0
C3420 C 0.47067 0.61138 0.5053 0.0
C3421 C 0.45539 0.60295 0.49333 0.0
C3422 C 0.45444 0.60509 0.47494 0.0
C3423 C 0.46879 0.61563 0.46847 0.0
H3424 H 0.44428 0.59482 0.49833 0.0
H3425 H 0.58446 0.70103 0.44098 0.0
H3426 H 0.62458 0.33297 0.67672 0.0
H3427 H 0.65162 0.3301 0.69371 0.0
H3428 H 0.66204 0.29519 0.64586 0.0
H3429 H 0.63519 0.29837 0.62862 0.0
H3430 H 0.66493 0.28089 0.68028 0.0
H3431 H 0.68622 0.33606 0.65559 0.0
H3432 H 0.68613 0.36745 0.64926 0.0
H3433 H 0.69276 0.38917 0.70718 0.0
H3434 H 0.69263 0.35784 0.71387 0.0
H3435 H 0.74916 0.27835 0.72429 0.0
H3436 H 0.72484 0.28008 0.7021 0.0
H3437 H 0.71753 0.32865 0.7378 0.0
H3438 H 0.74212 0.32746 0.75929 0.0
H3439 H 0.71402 0.33513 0.70607 0.0
H3440 H 0.68961 0.2815 0.73183 0.0
H3441 H 0.68596 0.25022 0.73989 0.0
H3442 H 0.68274 0.2259 0.68292 0.0
H3443 H 0.68651 0.25707 0.67453 0.0
C3444 C 0.6327 0.32483 0.66974 0.0
C3445 C 0.62773 0.31598 0.65127 0.0
C3446 C 0.64817 0.32319 0.67948 0.0
C3447 C 0.6589 0.31243 0.67109 0.0
C3448 C 0.65399 0.30356 0.65265 0.0
C3449 C 0.63867 0.30549 0.64277 0.0
C3450 C 0.67507 0.31026 0.68175 0.0
C3451 C 0.67584 0.29267 0.68568 0.0
C3452 C 0.68908 0.32569 0.68921 0.0
C3453 C 0.68926 0.34456 0.68523 0.0
C3454 C 0.68751 0.3475 0.66698 0.0
C3455 C 0.68753 0.36529 0.66332 0.0
C3456 C 0.6894 0.38029 0.67781 0.0
C3457 C 0.6913 0.37753 0.69598 0.0
C3458 C 0.69127 0.35977 0.69971 0.0
C3459 C 0.7424 0.28944 0.72728 0.0
C3460 C 0.74763 0.30278 0.74356 0.0
C3461 C 0.72835 0.29034 0.71466 0.0
C3462 C 0.71902 0.3044 0.71822 0.0
C3463 C 0.7244 0.31769 0.73451 0.0
C3464 C 0.7385 0.31695 0.7469 0.0
C3465 C 0.70387 0.30571 0.70513 0.0
C3466 C 0.70326 0.32321 0.70064 0.0
C3467 C 0.68984 0.29022 0.69748 0.0
C3468 C 0.68853 0.27163 0.70258 0.0
C3469 C 0.68834 0.26951 0.72105 0.0
C3470 C 0.68615 0.25179 0.72566 0.0
C3471 C 0.68402 0.23609 0.71191 0.0
C3472 C 0.68431 0.23808 0.69354 0.0
C3473 C 0.68648 0.25576 0.68885 0.0
H3474 H 0.68219 0.22237 0.7155 0.0
H3475 H 0.68941 0.39405 0.67495 0.0
H3476 H 1.00071 0.31492 0.94359 0.0
H3477 H 1.00268 0.3466 0.96045 0.0
H3478 H 0.0476 0.36751 0.93406 0.0
H3479 H 0.04558 0.33616 0.91712 0.0
H3480 H 0.05111 0.38372 0.97155 0.0
H3481 H 0.00882 0.37075 0.9168 0.0
H3482 H 0.9821 0.35283 0.89664 0.0
H3483 H 0.95117 0.36274 0.94047 0.0
H3484 H 0.97777 0.38051 0.96097 0.0
H3485 H 0.05749 0.47989 0.97962 0.0
H3486 H 0.05467 0.44672 0.9685 0.0
H3487 H 0.00324 0.43452 0.98603 0.0
H3488 H 0.00562 0.46798 0.99599 0.0
H3489 H 1.00189 0.41251 0.95635 0.0
H3490 H 0.04304 0.42804 0.01065 0.0
H3491 H 0.06934 0.44648 0.03117 0.0
H3492 H 0.10191 0.43157 0.99051 0.0
H3493 H 0.07579 0.41326 0.96962 0.0
C3494 C 0.0112 0.32622 0.94168 0.0
C3495 C 0.02294 0.32301 0.92895 0.0
C3496 C 0.01226 0.34434 0.95124 0.0
C3497 C 0.02522 0.35951 0.94842 0.0
C3498 C 0.0375 0.3561 0.93649 0.0
C3499 C 0.03628 0.33813 0.92676 0.0
C3500 C 0.02543 0.37913 0.95677 0.0
C3501 C 0.04038 0.39006 0.96823 0.0
C3502 C 0.01128 0.38733 0.95281 0.0
C3503 C 0.9953 0.37676 0.94047 0.0
C3504 C 0.99634 0.36897 0.92217 0.0
C3505 C 0.98121 0.35887 0.91069 0.0
C3506 C 0.96495 0.35659 0.91729 0.0
C3507 C 0.96378 0.36447 0.93539 0.0
C3508 C 0.97887 0.37457 0.94694 0.0
C3509 C 0.04554 0.47013 0.98101 0.0
C3510 C 0.03179 0.47654 0.98872 0.0
C3511 C 0.04399 0.45109 0.97482 0.0
C3512 C 0.02895 0.43784 0.97689 0.0
C3513 C 0.01505 0.4443 0.98432 0.0
C3514 C 0.0164 0.46345 0.99002 0.0
C3515 C 0.02769 0.41736 0.97112 0.0
C3516 C 0.01256 0.40623 0.96006 0.0
C3517 C 0.0416 0.40892 0.9757 0.0
C3518 C 0.05742 0.41935 0.98851 0.0
C3519 C 0.0558 0.42872 0.00607 0.0
C3520 C 0.07068 0.43917 0.01776 0.0
C3521 C 0.08728 0.44022 0.01213 0.0
C3522 C 0.08904 0.43074 0.99484 0.0
C3523 C 0.0742 0.4203 0.98308 0.0
H3524 H 0.09878 0.44837 0.02117 0.0
H3525 H 0.95325 0.34877 0.90837 0.0
H3526 H 0.02439 0.82402 0.14361 0.0
H3527 H 0.99534 0.82366 0.15362 0.0
H3528 H 0.9984 0.77652 0.17944 0.0
H3529 H 0.02729 0.77697 0.16986 0.0
H3530 H 0.96565 0.77268 0.15826 0.0
H3531 H 0.00673 0.81733 0.20539 0.0
H3532 H 0.0301 0.84571 0.2167 0.0
H3533 H 0.99753 0.87903 0.19612 0.0
H3534 H 0.97405 0.85078 0.18445 0.0
H3535 H 0.9061 0.76634 0.22349 0.0
H3536 H 0.93142 0.76936 0.20654 0.0
H3537 H 0.9229 0.82112 0.19331 0.0
H3538 H 0.89774 0.81847 0.21085 0.0
H3539 H 0.95667 0.82478 0.20408 0.0
H3540 H 0.91422 0.78138 0.16018 0.0
H3541 H 0.89054 0.75345 0.1483 0.0
H3542 H 0.92466 0.71837 0.16115 0.0
H3543 H 0.94853 0.74611 0.17331 0.0
C3544 C 0.01882 0.81356 0.15136 0.0
C3545 C 0.02824 0.8006 0.15602 0.0
C3546 C 1.00225 0.81338 0.1571 0.0
C3547 C 0.99469 0.80006 0.16731 0.0
C3548 C 0.00391 0.78689 0.17155 0.0
C3549 C 0.02051 0.78725 0.16613 0.0
C3550 C 0.97742 0.79993 0.17412 0.0
C3551 C 0.96368 0.78404 0.16833 0.0
C3552 C 0.97465 0.81497 0.18682 0.0
C3553 C 0.98874 0.83193 0.19384 0.0
C3554 C 0.00462 0.83069 0.20311 0.0
C3555 C 0.01787 0.84675 0.20963 0.0
C3556 C 0.01533 0.86416 0.20707 0.0
C3557 C 0.9995 0.86554 0.19805 0.0
C3558 C 0.98622 0.84951 0.19149 0.0
C3559 C 0.90959 0.7784 0.21701 0.0
C3560 C 0.89987 0.7922 0.21865 0.0
C3561 C 0.92401 0.78002 0.20712 0.0
C3562 C 0.92905 0.79538 0.19842 0.0
C3563 C 0.91928 0.80911 0.19983 0.0
C3564 C 0.90479 0.80749 0.20974 0.0
C3565 C 0.94492 0.79732 0.18854 0.0
C3566 C 0.95844 0.81353 0.19377 0.0
C3567 C 0.94742 0.78263 0.17515 0.0
C3568 C 0.93314 0.76586 0.16779 0.0
C3569 C 0.91665 0.76772 0.1606 0.0
C3570 C 0.90319 0.75192 0.1538 0.0
C3571 C 0.90607 0.73415 0.15403 0.0
C3572 C 0.92244 0.73215 0.161 0.0
C3573 C 0.93596 0.74791 0.16782 0.0
H3574 H 0.89563 0.72193 0.14876 0.0
H3575 H 0.0256 0.87658 0.21213 0.0
H3576 H 0.47922 0.28146 0.09088 0.0
H3577 H 0.48191 0.30698 0.07357 0.0
H3578 H 0.50032 0.34683 0.12393 0.0
H3579 H 0.49689 0.32146 0.14135 0.0
H3580 H 0.48193 0.36125 0.1016 0.0
H3581 H 0.52895 0.32943 0.09593 0.0
H3582 H 0.54164 0.30214 0.08847 0.0
H3583 H 0.51775 0.29253 0.03257 0.0
H3584 H 0.50473 0.31965 0.03977 0.0
H3585 H 0.53087 0.43544 0.06488 0.0
H3586 H 0.52232 0.41006 0.08173 0.0
H3587 H 0.50335 0.37171 0.03053 0.0
H3588 H 0.51283 0.39671 0.01356 0.0
H3589 H 0.52084 0.35642 0.05277 0.0
H3590 H 0.47602 0.39084 0.05854 0.0
H3591 H 0.46541 0.41942 0.06648 0.0
H3592 H 0.48625 0.42508 0.12294 0.0
H3593 H 0.49752 0.39682 0.11524 0.0
C3594 C 0.48346 0.29569 0.09828 0.0
C3595 C 0.48805 0.29947 0.11743 0.0
C3596 C 0.4851 0.31025 0.08838 0.0
C3597 C 0.49181 0.32879 0.0974 0.0
C3598 C 0.49522 0.33264 0.11665 0.0
C3599 C 0.49328 0.31811 0.1266 0.0
C3600 C 0.49669 0.34398 0.08677 0.0
C3601 C 0.49053 0.36025 0.091 0.0
C3602 C 0.50778 0.34264 0.07281 0.0
C3603 C 0.51573 0.32644 0.06843 0.0
C3604 C 0.52633 0.32143 0.08208 0.0
C3605 C 0.53358 0.306 0.07789 0.0
C3606 C 0.53046 0.29558 0.06007 0.0
C3607 C 0.52013 0.3006 0.04637 0.0
C3608 C 0.51282 0.316 0.05049 0.0
C3609 C 0.52512 0.42156 0.05718 0.0
C3610 C 0.52246 0.41816 0.03783 0.0
C3611 C 0.52001 0.4071 0.06685 0.0
C3612 C 0.51188 0.38905 0.0574 0.0
C3613 C 0.50948 0.38556 0.03812 0.0
C3614 C 0.51476 0.39993 0.02844 0.0
C3615 C 0.50603 0.37367 0.06751 0.0
C3616 C 0.5121 0.35737 0.06324 0.0
C3617 C 0.49498 0.3751 0.0815 0.0
C3618 C 0.48773 0.39176 0.08627 0.0
C3619 C 0.47842 0.39821 0.07264 0.0
C3620 C 0.47229 0.41437 0.0771 0.0
C3621 C 0.47509 0.42403 0.09521 0.0
C3622 C 0.48407 0.41757 0.10891 0.0
C3623 C 0.49036 0.40149 0.1045 0.0
H3624 H 0.47029 0.43652 0.09863 0.0
H3625 H 0.53609 0.28363 0.05686 0.0
H3626 H 0.02979 0.28747 0.35179 0.0
H3627 H 1.00047 0.27946 0.33506 0.0
H3628 H 0.02206 0.29253 0.28591 0.0
H3629 H 0.05148 0.30113 0.30275 0.0
H3630 H 0.99791 0.31015 0.29239 0.0
H3631 H 1.0009 0.2472 0.28923 0.0
H3632 H 0.00637 0.21918 0.3 0.0
H3633 H 0.96674 0.22105 0.33606 0.0
H3634 H 0.96124 0.24928 0.32578 0.0
H3635 H 0.90999 0.2936 0.25189 0.0
H3636 H 0.93887 0.28651 0.25614 0.0
H3637 H 0.93293 0.28354 0.3129 0.0
H3638 H 0.9041 0.29054 0.30871 0.0
H3639 H 0.94945 0.25636 0.29548 0.0
H3640 H 0.95254 0.32316 0.30364 0.0
H3641 H 0.94707 0.35141 0.2933 0.0
H3642 H 0.97572 0.3415 0.24748 0.0
H3643 H 0.98113 0.31302 0.25744 0.0
C3644 C 0.02834 0.28836 0.33735 0.0
C3645 C 0.04293 0.29513 0.32864 0.0
C3646 C 0.01156 0.2836 0.32773 0.0
C3647 C 0.00907 0.2852 0.30916 0.0
C3648 C 0.02369 0.29116 0.30022 0.0
C3649 C 0.04048 0.29611 0.30988 0.0
C3650 C 0.99117 0.28299 0.29991 0.0
C3651 C 0.98744 0.29811 0.29259 0.0
C3652 C 0.97741 0.26743 0.30044 0.0
C3653 C 0.98073 0.25047 0.30678 0.0
C3654 C 0.99345 0.24175 0.29957 0.0
C3655 C 0.99654 0.2258 0.30558 0.0
C3656 C 0.98693 0.21836 0.31873 0.0
C3657 C 0.97419 0.22683 0.32588 0.0
C3658 C 0.97106 0.2428 0.31995 0.0
C3659 C 0.91474 0.29106 0.26515 0.0
C3660 C 0.90502 0.29284 0.28006 0.0
C3661 C 0.93118 0.28702 0.26754 0.0
C3662 C 0.93798 0.28462 0.28484 0.0
C3663 C 0.92783 0.2853 0.29944 0.0
C3664 C 0.9115 0.2895 0.2971 0.0
C3665 C 0.95639 0.28364 0.28849 0.0
C3666 C 0.96013 0.26804 0.29481 0.0
C3667 C 0.97022 0.29871 0.28706 0.0
C3668 C 0.96703 0.31585 0.28113 0.0
C3669 C 0.95753 0.32692 0.29127 0.0
C3670 C 0.95447 0.34299 0.2855 0.0
C3671 C 0.96099 0.34821 0.26971 0.0
C3672 C 0.97063 0.33741 0.25969 0.0
C3673 C 0.9737 0.32131 0.26538 0.0
H3674 H 0.95861 0.36066 0.26527 0.0
H3675 H 0.98934 0.206 0.32335 0.0
H3676 H 0.01133 0.67979 0.64199 0.0
H3677 H 0.01065 0.65004 0.62262 0.0
H3678 H 0.98537 0.66727 0.57671 0.0
H3679 H 0.98615 0.69732 0.59601 0.0
H3680 H 0.98537 0.62148 0.60297 0.0
H3681 H 0.00345 0.65169 0.53854 0.0
H3682 H 0.01818 0.68141 0.53028 0.0
H3683 H 0.04891 0.69739 0.58331 0.0
H3684 H 0.03453 0.66768 0.59177 0.0
H3685 H 0.98605 0.54782 0.52705 0.0
H3686 H 0.98007 0.57443 0.54732 0.0
H3687 H 0.03546 0.59945 0.55853 0.0
H3688 H 0.04139 0.57333 0.53777 0.0
H3689 H 0.01796 0.62354 0.54874 0.0
H3690 H 0.01338 0.58705 0.60073 0.0
H3691 H 1.00213 0.55874 0.61341 0.0
H3692 H 0.95021 0.55572 0.58845 0.0
H3693 H 0.96108 0.58452 0.57637 0.0
C3694 C 0.00551 0.67727 0.6278 0.0
C3695 C 0.99896 0.69104 0.62049 0.0
C3696 C 0.00502 0.66017 0.6168 0.0
C3697 C 0.99806 0.6565 0.59823 0.0
C3698 C 0.99093 0.66991 0.591 0.0
C3699 C 0.99139 0.68707 0.60203 0.0
C3700 C 0.99953 0.6392 0.58627 0.0
C3701 C 0.99235 0.62192 0.591 0.0
C3702 C 0.00889 0.63976 0.57086 0.0
C3703 C 0.01775 0.65758 0.56585 0.0
C3704 C 0.01338 0.66154 0.54841 0.0
C3705 C 0.02166 0.67838 0.54369 0.0
C3706 C 0.03442 0.69131 0.55629 0.0
C3707 C 0.03897 0.6874 0.5736 0.0
C3708 C 0.03074 0.67058 0.57836 0.0
C3709 C 0.99691 0.55898 0.53396 0.0
C3710 C 0.01417 0.55863 0.53086 0.0
C3711 C 0.99351 0.57405 0.5457 0.0
C3712 C 0.00734 0.58885 0.55458 0.0
C3713 C 0.0246 0.58817 0.55183 0.0
C3714 C 0.02798 0.57323 0.54003 0.0
C3715 C 0.00391 0.60581 0.56548 0.0
C3716 C 0.01071 0.62306 0.56051 0.0
C3717 C 0.99455 0.60525 0.58086 0.0
C3718 C 0.98804 0.5877 0.5875 0.0
C3719 C 0.99958 0.58028 0.59793 0.0
C3720 C 0.99326 0.56425 0.60511 0.0
C3721 C 0.9755 0.55531 0.60155 0.0
C3722 C 0.96397 0.5626 0.59111 0.0
C3723 C 0.97017 0.57887 0.58425 0.0
H3724 H 0.97068 0.5428 0.60697 0.0
H3725 H 0.0408 0.70434 0.55262 0.0
H3726 H 0.65585 0.81017 0.8785 0.0
H3727 H 0.68117 0.8143 0.86121 0.0
H3728 H 0.65276 0.83684 0.82149 0.0
H3729 H 0.62739 0.83186 0.83808 0.0
H3730 H 0.66404 0.81066 0.80455 0.0
H3731 H 0.6901 0.86374 0.85038 0.0
H3732 H 0.69986 0.8819 0.88168 0.0
H3733 H 0.73447 0.84636 0.89142 0.0
H3734 H 0.72475 0.82781 0.86026 0.0
H3735 H 0.76119 0.83227 0.78066 0.0
H3736 H 0.73738 0.84229 0.79553 0.0
H3737 H 0.70987 0.78479 0.79047 0.0
H3738 H 0.73321 0.77472 0.77534 0.0
H3739 H 0.72702 0.8353 0.82755 0.0
H3740 H 0.66726 0.77982 0.7859 0.0
H3741 H 0.65749 0.76366 0.75388 0.0
H3742 H 0.68988 0.80872 0.73432 0.0
H3743 H 0.69966 0.8253 0.76621 0.0
C3744 C 0.65522 0.81633 0.86627 0.0
C3745 C 0.63966 0.82047 0.85946 0.0
C3746 C 0.66969 0.81879 0.85645 0.0
C3747 C 0.66885 0.82588 0.84002 0.0
C3748 C 0.65366 0.83121 0.83402 0.0
C3749 C 0.63916 0.82835 0.84353 0.0
C3750 C 0.68276 0.82557 0.82785 0.0
C3751 C 0.6778 0.81626 0.80957 0.0
C3752 C 0.70068 0.83317 0.83425 0.0
C3753 C 0.70661 0.84431 0.853 0.0
C3754 C 0.6997 0.85971 0.85924 0.0
C3755 C 0.70524 0.87009 0.87695 0.0
C3756 C 0.71775 0.86527 0.88854 0.0
C3757 C 0.72478 0.85008 0.88242 0.0
C3758 C 0.71928 0.83964 0.86472 0.0
C3759 C 0.74989 0.82179 0.78237 0.0
C3760 C 0.74909 0.8027 0.77685 0.0
C3761 C 0.73637 0.82754 0.79095 0.0
C3762 C 0.72185 0.81429 0.794 0.0
C3763 C 0.72081 0.79527 0.78797 0.0
C3764 C 0.73423 0.78953 0.77936 0.0
C3765 C 0.70822 0.81997 0.80453 0.0
C3766 C 0.71322 0.83015 0.8225 0.0
C3767 C 0.69028 0.81353 0.79775 0.0
C3768 C 0.68426 0.80376 0.77848 0.0
C3769 C 0.67221 0.78635 0.77478 0.0
C3770 C 0.6667 0.77709 0.75664 0.0
C3771 C 0.67308 0.78514 0.74208 0.0
C3772 C 0.68497 0.80248 0.74562 0.0
C3773 C 0.69053 0.8118 0.76372 0.0
H3774 H 0.66881 0.77795 0.72806 0.0
H3775 H 0.72202 0.87333 0.90225 0.0
H3776 H 0.42155 0.53516 0.6792 0.0
H3777 H 0.43569 0.53293 0.65089 0.0
H3778 H 0.48442 0.56507 0.68148 0.0
H3779 H 0.47037 0.56697 0.7099 0.0
H3780 H 0.48054 0.57699 0.6488 0.0
H3781 H 0.47601 0.51615 0.66405 0.0
H3782 H 0.46077 0.48605 0.67107 0.0
H3783 H 0.42882 0.47352 0.61884 0.0
H3784 H 0.44371 0.50367 0.61162 0.0
H3785 H 0.53845 0.56493 0.58227 0.0
H3786 H 0.52199 0.56497 0.60835 0.0
H3787 H 0.47862 0.52498 0.57516 0.0
H3788 H 0.49583 0.52422 0.54868 0.0
H3789 H 0.47781 0.51682 0.60803 0.0
H3790 H 0.48085 0.57618 0.59195 0.0
H3791 H 0.4942 0.6065 0.58406 0.0
H3792 H 0.52608 0.62246 0.63642 0.0
H3793 H 0.51309 0.59213 0.64455 0.0
C3794 C 0.43531 0.54177 0.68008 0.0
C3795 C 0.44455 0.55126 0.69741 0.0
C3796 C 0.44356 0.54039 0.66361 0.0
C3797 C 0.46152 0.54866 0.66337 0.0
C3798 C 0.47068 0.5584 0.68065 0.0
C3799 C 0.46251 0.55947 0.69719 0.0
C3800 C 0.4706 0.54739 0.64541 0.0
C3801 C 0.48005 0.56371 0.64015 0.0
C3802 C 0.46981 0.53035 0.63307 0.0
C3803 C 0.46084 0.51225 0.63738 0.0
C3804 C 0.46563 0.50704 0.65413 0.0
C3805 C 0.45708 0.48996 0.65813 0.0
C3806 C 0.4438 0.47791 0.64543 0.0
C3807 C 0.43908 0.48289 0.62868 0.0
C3808 C 0.44758 0.49997 0.62462 0.0
C3809 C 0.52534 0.55611 0.58015 0.0
C3810 C 0.51875 0.54485 0.56264 0.0
C3811 C 0.51565 0.5563 0.59543 0.0
C3812 C 0.49839 0.54548 0.59439 0.0
C3813 C 0.49169 0.53383 0.57695 0.0
C3814 C 0.50159 0.53351 0.56146 0.0
C3815 C 0.48798 0.54646 0.61149 0.0
C3816 C 0.4783 0.53012 0.61663 0.0
C3817 C 0.48824 0.56355 0.62358 0.0
C3818 C 0.49611 0.5818 0.61879 0.0
C3819 C 0.4908 0.5861 0.60174 0.0
C3820 C 0.49829 0.6033 0.59722 0.0
C3821 C 0.51101 0.61638 0.60971 0.0
C3822 C 0.51624 0.6123 0.62675 0.0
C3823 C 0.5088 0.59512 0.63133 0.0
H3824 H 0.5168 0.62968 0.60619 0.0
H3825 H 0.4372 0.46469 0.64855 0.0
H3826 H 0.81013 0.18889 0.99705 0.0
H3827 H 0.81399 0.20836 0.97348 0.0
H3828 H 0.78307 0.1625 0.93286 0.0
H3829 H 0.78001 0.14273 0.95614 0.0
H3830 H 0.80625 0.18241 0.91694 0.0
H3831 H 0.76449 0.19557 0.95745 0.0
H3832 H 0.75392 0.20374 0.98731 0.0
H3833 H 0.79189 0.25609 0.99831 0.0
H3834 H 0.80284 0.24811 0.9686 0.0
H3835 H 0.76891 0.23454 0.85839 0.0
H3836 H 0.77315 0.21411 0.88025 0.0
H3837 H 0.81078 0.2596 0.91516 0.0
H3838 H 0.80639 0.28019 0.89351 0.0
H3839 H 0.78571 0.24045 0.93372 0.0
H3840 H 0.8251 0.22624 0.88976 0.0
H3841 H 0.83241 0.21681 0.85853 0.0
H3842 H 0.79445 0.16482 0.85237 0.0
H3843 H 0.7868 0.17401 0.8835 0.0
C3844 C 0.80458 0.18286 0.98298 0.0
C3845 C 0.79459 0.16443 0.97841 0.0
C3846 C 0.80669 0.19399 0.96955 0.0
C3847 C 0.79833 0.18704 0.95155 0.0
C3848 C 0.78953 0.1682 0.94669 0.0
C3849 C 0.78778 0.15692 0.96001 0.0
C3850 C 0.79722 0.19977 0.93834 0.0
C3851 C 0.80168 0.19505 0.92058 0.0
C3852 C 0.79122 0.21627 0.94308 0.0
C3853 C 0.78461 0.22115 0.9609 0.0
C3854 C 0.77066 0.20877 0.96629 0.0
C3855 C 0.76459 0.21337 0.98318 0.0
C3856 C 0.77226 0.2304 0.99472 0.0
C3857 C 0.78598 0.24289 0.98937 0.0
C3858 C 0.79212 0.23834 0.97251 0.0
C3859 C 0.77798 0.2402 0.87079 0.0
C3860 C 0.78732 0.25892 0.8743 0.0
C3861 C 0.78052 0.22849 0.88314 0.0
C3862 C 0.79243 0.23535 0.89915 0.0
C3863 C 0.80162 0.25408 0.90279 0.0
C3864 C 0.79916 0.26576 0.89041 0.0
C3865 C 0.79487 0.22316 0.91246 0.0
C3866 C 0.7905 0.22793 0.93019 0.0
C3867 C 0.80051 0.20652 0.90752 0.0
C3868 C 0.8053 0.20087 0.88891 0.0
C3869 C 0.81825 0.21284 0.8817 0.0
C3870 C 0.82246 0.20753 0.86403 0.0
C3871 C 0.81387 0.19024 0.85346 0.0
C3872 C 0.80109 0.1782 0.86057 0.0
C3873 C 0.79684 0.18344 0.87824 0.0
H3874 H 0.81714 0.18616 0.83977 0.0
H3875 H 0.76755 0.23394 0.00779 0.0
H3876 H 0.13935 0.48597 0.1664 0.0
H3877 H 0.12323 0.48224 0.1358 0.0
H3878 H 0.08078 0.50029 0.16073 0.0
H3879 H 0.09626 0.50286 0.19108 0.0
H3880 H 0.0674 0.47639 0.13263 0.0
H3881 H 0.11642 0.53045 0.14462 0.0
H3882 H 0.14756 0.54696 0.15126 0.0
H3883 H 0.15861 0.5149 0.10216 0.0
H3884 H 0.12756 0.49806 0.09535 0.0
H3885 H 0.05945 0.54342 0.06523 0.0
H3886 H 0.07592 0.53331 0.08946 0.0
H3887 H 0.04952 0.47598 0.0677 0.0
H3888 H 0.0324 0.48629 0.04386 0.0
H3889 H 0.0984 0.51339 0.09037 0.0
H3890 H 0.04583 0.45165 0.10286 0.0
H3891 H 0.01367 0.44051 0.09909 0.0
H3892 H 0.00804 0.49693 0.1042 0.0
H3893 H 0.04015 0.50838 0.1082 0.0
C3894 C 0.12643 0.48878 0.16527 0.0
C3895 C 0.11912 0.4949 0.18106 0.0
C3896 C 0.11727 0.48674 0.14781 0.0
C3897 C 0.10095 0.49139 0.14591 0.0
C3898 C 0.09333 0.4966 0.16176 0.0
C3899 C 0.10225 0.49816 0.17916 0.0
C3900 C 0.09224 0.49238 0.12768 0.0
C3901 C 0.07424 0.48433 0.12331 0.0
C3902 C 0.10108 0.50282 0.11549 0.0
C3903 C 0.11975 0.51281 0.11965 0.0
C3904 C 0.12553 0.52683 0.13534 0.0
C3905 C 0.14315 0.53625 0.13911 0.0
C3906 C 0.15507 0.53192 0.12719 0.0
C3907 C 0.14938 0.51819 0.11143 0.0
C3908 C 0.13178 0.50869 0.10761 0.0
C3909 C 0.05716 0.52867 0.06571 0.0
C3910 C 0.04462 0.51561 0.05293 0.0
C3911 C 0.06665 0.52288 0.07943 0.0
C3912 C 0.06389 0.50389 0.0805 0.0
C3913 C 0.05165 0.49073 0.06736 0.0
C3914 C 0.04188 0.4966 0.0538 0.0
C3915 C 0.07345 0.49824 0.09589 0.0
C3916 C 0.09164 0.50515 0.09953 0.0
C3917 C 0.06465 0.48753 0.10786 0.0
C3918 C 0.04535 0.48082 0.10556 0.0
C3919 C 0.03771 0.46165 0.10319 0.0
C3920 C 0.0195 0.4553 0.10102 0.0
C3921 C 0.00882 0.468 0.10133 0.0
C3922 C 0.01632 0.4871 0.10388 0.0
C3923 C 0.03452 0.49353 0.10608 0.0
H3924 H 0.99473 0.46305 0.09963 0.0
H3925 H 0.16871 0.53925 0.13012 0.0
H3926 H 0.79374 0.88873 0.45655 0.0
H3927 H 0.79314 0.87056 0.42637 0.0
H3928 H 0.79698 0.82257 0.45053 0.0
H3929 H 0.79803 0.84109 0.48139 0.0
H3930 H 0.81726 0.82506 0.42316 0.0
H3931 H 0.75785 0.82534 0.42838 0.0
H3932 H 0.7325 0.83848 0.4352 0.0
H3933 H 0.74199 0.87208 0.39363 0.0
H3934 H 0.76757 0.85935 0.38673 0.0
H3935 H 0.7676 0.78449 0.32246 0.0
H3936 H 0.76796 0.79469 0.35536 0.0
H3937 H 0.82226 0.82334 0.35937 0.0
H3938 H 0.82214 0.81237 0.32643 0.0
H3939 H 0.7708 0.82596 0.37416 0.0
H3940 H 0.84289 0.83019 0.40266 0.0
H3941 H 0.86613 0.81345 0.39642 0.0
H3942 H 0.8274 0.76391 0.37148 0.0
H3943 H 0.80393 0.78027 0.37778 0.0
C3944 C 0.79439 0.8743 0.45565 0.0
C3945 C 0.79577 0.8664 0.47159 0.0
C3946 C 0.794 0.86385 0.43821 0.0
C3947 C 0.79468 0.84504 0.43599 0.0
C3948 C 0.79633 0.83705 0.45183 0.0
C3949 C 0.79684 0.84762 0.46947 0.0
C3950 C 0.79363 0.83408 0.41703 0.0
C3951 C 0.80705 0.82515 0.41245 0.0
C3952 C 0.7801 0.83374 0.40304 0.0
C3953 C 0.76471 0.84147 0.40713 0.0
C3954 C 0.75461 0.83563 0.42078 0.0
C3955 C 0.74019 0.84299 0.42465 0.0
C3956 C 0.73565 0.85613 0.41488 0.0
C3957 C 0.74552 0.86191 0.40119 0.0
C3958 C 0.75998 0.85461 0.39728 0.0
C3959 C 0.7797 0.7928 0.33035 0.0
C3960 C 0.79485 0.79762 0.32174 0.0
C3961 C 0.77989 0.79868 0.34925 0.0
C3962 C 0.79515 0.80977 0.36011 0.0
C3963 C 0.81038 0.81447 0.35154 0.0
C3964 C 0.81029 0.80827 0.33263 0.0
C3965 C 0.79469 0.81724 0.38003 0.0
C3966 C 0.78097 0.82564 0.38481 0.0
C3967 C 0.80764 0.81654 0.39422 0.0
C3968 C 0.82166 0.80653 0.39055 0.0
C3969 C 0.83933 0.81571 0.39591 0.0
C3970 C 0.85255 0.80629 0.39235 0.0
C3971 C 0.84824 0.78765 0.38351 0.0
C3972 C 0.83071 0.77837 0.37827 0.0
C3973 C 0.81745 0.78772 0.38181 0.0
H3974 H 0.85849 0.78039 0.38076 0.0
H3975 H 0.72448 0.86181 0.41789 0.0
H3976 H 0.46492 0.52567 0.80655 0.0
H3977 H 0.47678 0.5255 0.83776 0.0
H3978 H 0.45791 0.57402 0.85736 0.0
H3979 H 0.44556 0.57417 0.8255 0.0
H3980 H 0.49271 0.5763 0.87531 0.0
H3981 H 0.43782 0.53135 0.86587 0.0
H3982 H 0.41527 0.50407 0.84946 0.0
H3983 H 0.45179 0.46927 0.85281 0.0
H3984 H 0.47465 0.49641 0.86901 0.0
H3985 H 0.51638 0.56754 0.96965 0.0
H3986 H 0.50228 0.57139 0.94025 0.0
H3987 H 0.50413 0.51551 0.91631 0.0
H3988 H 0.5175 0.51142 0.9459 0.0
H3989 H 0.47633 0.51866 0.90117 0.0
H3990 H 0.53171 0.56199 0.90705 0.0
H3991 H 0.55599 0.58846 0.92167 0.0
H3992 H 0.52092 0.62519 0.92388 0.0
H3993 H 0.49638 0.59892 0.90925 0.0
C3994 C 0.4631 0.53645 0.81731 0.0
C3995 C 0.454 0.54994 0.81284 0.0
C3996 C 0.47 0.53626 0.83551 0.0
C3997 C 0.46845 0.54964 0.85058 0.0
C3998 C 0.45952 0.56338 0.84634 0.0
C3999 C 0.45228 0.56342 0.82792 0.0
C4000 C 0.47599 0.54874 0.87034 0.0
C4001 C 0.4888 0.56377 0.88102 0.0
C4002 C 0.47173 0.53232 0.87817 0.0
C4003 C 0.45799 0.51596 0.86853 0.0
C4004 C 0.44108 0.51791 0.86299 0.0
C4005 C 0.42824 0.50246 0.85375 0.0
C4006 C 0.43211 0.48496 0.85006 0.0
C4007 C 0.44882 0.48285 0.85566 0.0
C4008 C 0.46172 0.49825 0.86489 0.0
C4009 C 0.51388 0.55601 0.95817 0.0
C4010 C 0.51837 0.53912 0.96066 0.0
C4011 C 0.50582 0.5583 0.94098 0.0
C4012 C 0.50208 0.54395 0.92516 0.0
C4013 C 0.50657 0.52707 0.92776 0.0
C4014 C 0.51443 0.52471 0.94496 0.0
C4015 C 0.49332 0.54616 0.90626 0.0
C4016 C 0.48025 0.53129 0.89564 0.0
C4017 C 0.49758 0.56262 0.89839 0.0
C4018 C 0.5122 0.57846 0.90721 0.0
C4019 C 0.52916 0.5757 0.91073 0.0
C4020 C 0.54297 0.59067 0.91897 0.0
C4021 C 0.53999 0.6085 0.92365 0.0
C4022 C 0.52319 0.61139 0.92015 0.0
C4023 C 0.50934 0.59647 0.91186 0.0
H4024 H 0.55072 0.62007 0.92997 0.0
H4025 H 0.42215 0.47301 0.8429 0.0
H4026 H 0.77938 0.18811 0.06496 0.0
H4027 H 0.78169 0.21309 0.09125 0.0
H4028 H 0.75984 0.17264 0.12358 0.0
H4029 H 0.75704 0.1476 0.09719 0.0
H4030 H 0.7462 0.2022 0.12972 0.0
H4031 H 0.80445 0.19193 0.12748 0.0
H4032 H 0.83117 0.18943 0.1132 0.0
H4033 H 0.83845 0.24595 0.10463 0.0
H4034 H 0.81164 0.24871 0.11868 0.0
H4035 H 0.78008 0.244 0.22096 0.0
H4036 H 0.7723 0.22541 0.19013 0.0
H4037 H 0.78961 0.27461 0.16687 0.0
H4038 H 0.79716 0.29354 0.19797 0.0
H4039 H 0.80406 0.24464 0.15368 0.0
H4040 H 0.74772 0.2558 0.16123 0.0
H4041 H 0.72174 0.25768 0.17709 0.0
H4042 H 0.71132 0.19888 0.17716 0.0
H4043 H 0.73742 0.19667 0.16161 0.0
C4044 C 0.77506 0.18451 0.07766 0.0
C4045 C 0.76813 0.16584 0.07902 0.0
C4046 C 0.77642 0.19882 0.09269 0.0
C4047 C 0.77113 0.19472 0.10945 0.0
C4048 C 0.76398 0.17613 0.11077 0.0
C4049 C 0.76246 0.16182 0.09569 0.0
C4050 C 0.77341 0.2097 0.12578 0.0
C4051 C 0.75886 0.21141 0.13503 0.0
C4052 C 0.78984 0.22209 0.13239 0.0
C4053 C 0.80593 0.22044 0.12392 0.0
C4054 C 0.81167 0.20377 0.12241 0.0
C4055 C 0.82685 0.20232 0.11439 0.0
C4056 C 0.83647 0.2175 0.10796 0.0
C4057 C 0.83097 0.23419 0.10958 0.0
C4058 C 0.81579 0.23571 0.11758 0.0
C4059 C 0.78185 0.25098 0.20931 0.0
C4060 C 0.78905 0.27024 0.21182 0.0
C4061 C 0.77741 0.24032 0.19169 0.0
C4062 C 0.78019 0.24869 0.17626 0.0
C4063 C 0.78726 0.26797 0.17867 0.0
C4064 C 0.79154 0.27873 0.19637 0.0
C4065 C 0.77694 0.23684 0.15781 0.0
C4066 C 0.79132 0.23568 0.14817 0.0
C4067 C 0.7604 0.22485 0.15098 0.0
C4068 C 0.74461 0.22609 0.1603 0.0
C4069 C 0.73998 0.24328 0.16474 0.0
C4070 C 0.72521 0.24441 0.17366 0.0
C4071 C 0.71488 0.22841 0.17811 0.0
C4072 C 0.71932 0.21126 0.17368 0.0
C4073 C 0.73409 0.21006 0.16479 0.0
H4074 H 0.70343 0.22929 0.18497 0.0
H4075 H 0.84822 0.21635 0.10175 0.0
H4076 H 0.08954 0.53696 0.27812 0.0
H4077 H 0.08544 0.54642 0.31003 0.0
H4078 H 0.13946 0.54769 0.32711 0.0
H4079 H 0.14352 0.53756 0.29509 0.0
H4080 H 0.12042 0.53162 0.34888 0.0
H4081 H 0.12532 0.58901 0.33052 0.0
H4082 H 0.12164 0.61207 0.31108 0.0
H4083 H 0.06655 0.60051 0.31546 0.0
H4084 H 0.06981 0.57715 0.33467 0.0
H4085 H 0.08114 0.54657 0.43155 0.0
H4086 H 0.10148 0.55839 0.41067 0.0
H4087 H 0.05949 0.54184 0.36589 0.0
H4088 H 0.03929 0.5295 0.38636 0.0
H4089 H 0.08414 0.57693 0.36561 0.0
H4090 H 0.08293 0.51069 0.3738 0.0
H4091 H 0.08793 0.4896 0.39512 0.0
H4092 H 0.14002 0.52307 0.41275 0.0
H4093 H 0.13522 0.54442 0.39163 0.0
C4094 C 0.10057 0.53927 0.28864 0.0
C4095 C 0.11683 0.53648 0.28409 0.0
C4096 C 0.09828 0.54492 0.30688 0.0
C4097 C 0.11229 0.54829 0.32094 0.0
C4098 C 0.12853 0.54538 0.31648 0.0
C4099 C 0.13078 0.53949 0.29819 0.0
C4100 C 0.10927 0.55336 0.3403 0.0
C4101 C 0.11302 0.542 0.35273 0.0
C4102 C 0.1 0.56721 0.34563 0.0
C4103 C 0.09784 0.58128 0.33407 0.0
C4104 C 0.1124 0.5913 0.32727 0.0
C4105 C 0.11038 0.60444 0.31629 0.0
C4106 C 0.09387 0.60776 0.31205 0.0
C4107 C 0.07934 0.59795 0.31879 0.0
C4108 C 0.08127 0.58478 0.32977 0.0
C4109 C 0.07623 0.54556 0.41726 0.0
C4110 C 0.05866 0.53683 0.41051 0.0
C4111 C 0.08782 0.55254 0.40546 0.0
C4112 C 0.08192 0.55097 0.38682 0.0
C4113 C 0.0642 0.54336 0.38033 0.0
C4114 C 0.05267 0.53626 0.39203 0.0
C4115 C 0.09426 0.55434 0.37324 0.0
C4116 C 0.09231 0.56728 0.36197 0.0
C4117 C 0.10562 0.54239 0.36922 0.0
C4118 C 0.10872 0.5291 0.38121 0.0
C4119 C 0.09545 0.51348 0.38219 0.0
C4120 C 0.09824 0.50152 0.39426 0.0
C4121 C 0.11429 0.50499 0.40527 0.0
C4122 C 0.12761 0.52039 0.4042 0.0
C4123 C 0.12487 0.53241 0.39218 0.0
H4124 H 0.1164 0.49574 0.41464 0.0
H4125 H 0.09233 0.61793 0.30354 0.0
H4126 H 0.80377 0.8369 0.57327 0.0
H4127 H 0.80227 0.82294 0.60094 0.0
H4128 H 0.79573 0.87444 0.632 0.0
H4129 H 0.79832 0.8887 0.60464 0.0
H4130 H 0.8143 0.86195 0.65332 0.0
H4131 H 0.76056 0.83265 0.6155 0.0
H4132 H 0.74106 0.81541 0.58757 0.0
H4133 H 0.76372 0.76826 0.5892 0.0
H4134 H 0.78352 0.78532 0.61703 0.0
H4135 H 0.78368 0.8182 0.72838 0.0
H4136 H 0.78548 0.83433 0.70195 0.0
H4137 H 0.80111 0.7882 0.67051 0.0
H4138 H 0.79922 0.77213 0.69676 0.0
H4139 H 0.77668 0.79886 0.65028 0.0
H4140 H 0.83062 0.8309 0.68997 0.0
H4141 H 0.84689 0.84886 0.71946 0.0
H4142 H 0.81953 0.89222 0.71571 0.0
H4143 H 0.80295 0.87441 0.6863 0.0
C4144 C 0.80208 0.84526 0.58602 0.0
C4145 C 0.80112 0.86392 0.58666 0.0
C4146 C 0.80106 0.83721 0.60189 0.0
C4147 C 0.79844 0.84739 0.61872 0.0
C4148 C 0.79772 0.86613 0.61935 0.0
C4149 C 0.79916 0.8743 0.60361 0.0
C4150 C 0.79646 0.83858 0.63557 0.0
C4151 C 0.80587 0.84824 0.65259 0.0
C4152 C 0.78551 0.82064 0.63498 0.0
C4153 C 0.77364 0.81034 0.61824 0.0
C4154 C 0.76147 0.81865 0.60983 0.0
C4155 C 0.75035 0.80891 0.59403 0.0
C4156 C 0.75118 0.79077 0.58659 0.0
C4157 C 0.76311 0.78232 0.59496 0.0
C4158 C 0.77427 0.79202 0.61076 0.0
C4159 C 0.78766 0.81163 0.71587 0.0
C4160 C 0.79143 0.79395 0.71471 0.0
C4161 C 0.78869 0.82085 0.70074 0.0
C4162 C 0.79359 0.8126 0.68415 0.0
C4163 C 0.79728 0.79491 0.68306 0.0
C4164 C 0.79625 0.78574 0.69812 0.0
C4165 C 0.79471 0.8221 0.66778 0.0
C4166 C 0.78509 0.81257 0.6509 0.0
C4167 C 0.80509 0.84032 0.66863 0.0
C4168 C 0.81548 0.85128 0.68599 0.0
C4169 C 0.82806 0.84425 0.69545 0.0
C4170 C 0.83734 0.8544 0.71215 0.0
C4171 C 0.83427 0.87168 0.71944 0.0
C4172 C 0.82194 0.87886 0.71002 0.0
C4173 C 0.81261 0.86875 0.69333 0.0
H4174 H 0.8414 0.87947 0.7324 0.0
H4175 H 0.74256 0.78325 0.57435 0.0
H4176 H 0.73173 0.41971 0.52375 0.0
H4177 H 0.70787 0.43599 0.52451 0.0
H4178 H 0.73933 0.48045 0.50267 0.0
H4179 H 0.76337 0.46473 0.50276 0.0
H4180 H 0.72575 0.49474 0.52968 0.0
H4181 H 0.70301 0.44641 0.47673 0.0
H4182 H 0.69369 0.41409 0.45963 0.0
H4183 H 0.65525 0.40126 0.4962 0.0
H4184 H 0.6645 0.43344 0.51367 0.0
H4185 H 0.65954 0.54097 0.50649 0.0
H4186 H 0.68117 0.52186 0.50313 0.0
H4187 H 0.6531 0.48442 0.53495 0.0
H4188 H 0.63145 0.50339 0.53829 0.0
H4189 H 0.66412 0.46619 0.5032 0.0
H4190 H 0.68728 0.51473 0.55591 0.0
H4191 H 0.6964 0.54728 0.57241 0.0
H4192 H 0.73412 0.55979 0.53504 0.0
H4193 H 0.72504 0.52736 0.51814 0.0
C4194 C 0.73344 0.4329 0.51901 0.0
C4195 C 0.74936 0.44104 0.51329 0.0
C4196 C 0.71979 0.44214 0.51935 0.0
C4197 C 0.72174 0.45938 0.51348 0.0
C4198 C 0.73754 0.46722 0.50734 0.0
C4199 C 0.75126 0.45822 0.50737 0.0
C4200 C 0.70778 0.46984 0.51456 0.0
C4201 C 0.71235 0.48852 0.52361 0.0
C4202 C 0.69016 0.46163 0.50711 0.0
C4203 C 0.68458 0.44228 0.49662 0.0
C4204 C 0.69267 0.43665 0.48121 0.0
C4205 C 0.68737 0.41837 0.47144 0.0
C4206 C 0.67392 0.40561 0.47686 0.0
C4207 C 0.66569 0.41114 0.49204 0.0
C4208 C 0.67094 0.4294 0.50187 0.0
C4209 C 0.65796 0.52859 0.51263 0.0
C4210 C 0.64399 0.52373 0.52281 0.0
C4211 C 0.67029 0.51775 0.51076 0.0
C4212 C 0.66872 0.50185 0.51892 0.0
C4213 C 0.6545 0.49667 0.52859 0.0
C4214 C 0.64228 0.50758 0.53062 0.0
C4215 C 0.68228 0.49101 0.51796 0.0
C4216 C 0.67759 0.47231 0.50911 0.0
C4217 C 0.69983 0.49919 0.52545 0.0
C4218 C 0.70536 0.51867 0.53565 0.0
C4219 C 0.69742 0.52446 0.55111 0.0
C4220 C 0.7026 0.54288 0.56056 0.0
C4221 C 0.7158 0.55561 0.55475 0.0
C4222 C 0.72388 0.54993 0.53951 0.0
C4223 C 0.71873 0.53152 0.53 0.0
H4224 H 0.71979 0.56986 0.56208 0.0
H4225 H 0.66984 0.39146 0.46927 0.0
H4226 H 0.21112 0.16921 0.50504 0.0
H4227 H 0.18168 0.15163 0.50806 0.0
H4228 H 0.18898 0.10475 0.47008 0.0
H4229 H 0.2186 0.122 0.46738 0.0
H4230 H 0.15419 0.117 0.46496 0.0
H4231 H 0.19448 0.1005 0.51035 0.0
H4232 H 0.21765 0.10929 0.53678 0.0
H4233 H 0.18495 0.13702 0.569 0.0
H4234 H 0.16167 0.12858 0.54265 0.0
H4235 H 0.08785 0.04047 0.4732 0.0
H4236 H 0.11502 0.06241 0.47082 0.0
H4237 H 0.11241 0.09391 0.52413 0.0
H4238 H 0.08571 0.07119 0.52699 0.0
H4239 H 0.14407 0.09298 0.52266 0.0
H4240 H 0.10339 0.10938 0.48211 0.0
H4241 H 0.07933 0.10517 0.45724 0.0
H4242 H 0.11045 0.08409 0.41793 0.0
H4243 H 0.13463 0.08792 0.44261 0.0
C4244 C 0.20641 0.15522 0.49721 0.0
C4245 C 0.21722 0.14698 0.48599 0.0
C4246 C 0.18959 0.14518 0.49897 0.0
C4247 C 0.18314 0.12687 0.48929 0.0
C4248 C 0.19368 0.11884 0.47762 0.0
C4249 C 0.21062 0.12872 0.47615 0.0
C4250 C 0.16572 0.11574 0.49187 0.0
C4251 C 0.15197 0.11155 0.47747 0.0
C4252 C 0.16259 0.10945 0.50855 0.0
C4253 C 0.17642 0.11407 0.52449 0.0
C4254 C 0.19228 0.10857 0.52303 0.0
C4255 C 0.20542 0.11347 0.538 0.0
C4256 C 0.20279 0.12375 0.55454 0.0
C4257 C 0.18698 0.12907 0.55617 0.0
C4258 C 0.1738 0.12422 0.54124 0.0
C4259 C 0.09302 0.05211 0.4844 0.0
C4260 C 0.08448 0.05419 0.5002 0.0
C4261 C 0.10854 0.06479 0.48297 0.0
C4262 C 0.11574 0.08019 0.49711 0.0
C4263 C 0.10719 0.08227 0.51294 0.0
C4264 C 0.09178 0.06936 0.51451 0.0
C4265 C 0.13241 0.09366 0.49549 0.0
C4266 C 0.14608 0.0984 0.51011 0.0
C4267 C 0.13525 0.10105 0.47922 0.0
C4268 C 0.12079 0.0988 0.46426 0.0
C4269 C 0.10507 0.10373 0.46818 0.0
C4270 C 0.09141 0.10143 0.45411 0.0
C4271 C 0.09335 0.09433 0.43602 0.0
C4272 C 0.10897 0.08957 0.43195 0.0
C4273 C 0.12267 0.09183 0.44598 0.0
H4274 H 0.08275 0.09255 0.42515 0.0
H4275 H 0.21299 0.12757 0.5661 0.0
H4276 H 0.22008 0.97456 0.77328 0.0
H4277 H 0.23504 0.94894 0.77257 0.0
H4278 H 0.18527 0.90925 0.76102 0.0
H4279 H 0.17031 0.935 0.76236 0.0
H4280 H 0.20314 0.89348 0.78002 0.0
H4281 H 0.22037 0.92009 0.72812 0.0
H4282 H 0.23277 0.94462 0.71109 0.0
H4283 H 0.28222 0.95529 0.74465 0.0
H4284 H 0.27006 0.93095 0.76202 0.0
H4285 H 0.24079 0.81346 0.75624 0.0
H4286 H 0.22558 0.83888 0.75673 0.0
H4287 H 0.27492 0.87905 0.77102 0.0
H4288 H 0.29016 0.85358 0.77016 0.0
H4289 H 0.25707 0.89421 0.7502 0.0
H4290 H 0.2382 0.86961 0.80407 0.0
H4291 H 0.22525 0.84494 0.82072 0.0
H4292 H 0.17899 0.82941 0.78147 0.0
H4293 H 0.19164 0.85426 0.76483 0.0
C4294 C 0.21216 0.96042 0.77053 0.0
C4295 C 0.19365 0.95745 0.76782 0.0
C4296 C 0.2209 0.9454 0.76992 0.0
C4297 C 0.21177 0.9263 0.76628 0.0
C4298 C 0.19322 0.92338 0.7638 0.0
C4299 C 0.18447 0.93841 0.76452 0.0
C4300 C 0.22128 0.90968 0.7653 0.0
C4301 C 0.21481 0.89383 0.77321 0.0
C4302 C 0.23691 0.90918 0.75682 0.0
C4303 C 0.24425 0.92385 0.74649 0.0
C4304 C 0.23385 0.92776 0.73194 0.0
C4305 C 0.24084 0.94161 0.72222 0.0
C4306 C 0.25826 0.95154 0.72682 0.0
C4307 C 0.26873 0.94761 0.74112 0.0
C4308 C 0.2618 0.93378 0.75091 0.0
C4309 C 0.24857 0.82766 0.75955 0.0
C4310 C 0.26706 0.83087 0.76318 0.0
C4311 C 0.23966 0.84255 0.76004 0.0
C4312 C 0.24862 0.86171 0.76432 0.0
C4313 C 0.26713 0.86486 0.7677 0.0
C4314 C 0.27603 0.84998 0.76724 0.0
C4315 C 0.239 0.87818 0.76502 0.0
C4316 C 0.24543 0.89397 0.75704 0.0
C4317 C 0.22331 0.8786 0.77331 0.0
C4318 C 0.21581 0.86368 0.78322 0.0
C4319 C 0.22528 0.86089 0.799 0.0
C4320 C 0.21802 0.84689 0.80844 0.0
C4321 C 0.20137 0.83551 0.80209 0.0
C4322 C 0.19189 0.83822 0.78639 0.0
C4323 C 0.19903 0.85233 0.77703 0.0
H4324 H 0.19581 0.82463 0.80938 0.0
H4325 H 0.26364 0.96226 0.71927 0.0
H4326 H 0.34785 0.99193 0.0261 0.0
H4327 H 0.37796 1.00237 0.0415 0.0
H4328 H 0.38792 0.94908 0.01923 0.0
H4329 H 0.35746 0.93824 0.00526 0.0
H4330 H 0.40506 0.95957 0.05087 0.0
H4331 H 0.39777 0.99148 0.99901 0.0
H4332 H 0.38525 0.01217 0.98171 0.0
H4333 H 0.40192 0.05718 0.02787 0.0
H4334 H 0.41437 0.03667 0.0455 0.0
H4335 H 0.48355 0.97905 0.01088 0.0
H4336 H 0.45458 0.97078 0.02089 0.0
H4337 H 0.46858 0.0187 0.06458 0.0
H4338 H 0.49779 0.02683 0.05512 0.0
H4339 H 0.44027 0.01677 0.03437 0.0
H4340 H 0.45809 0.98439 0.07883 0.0
H4341 H 0.47376 0.96274 0.09069 0.0
H4342 H 0.43928 0.91657 0.05399 0.0
H4343 H 0.42386 0.93801 0.04127 0.0
C4344 C 0.35658 0.98256 0.02456 0.0
C4345 C 0.35065 0.96449 0.01425 0.0
C4346 C 0.37372 0.98846 0.03337 0.0
C4347 C 0.38538 0.97666 0.03125 0.0
C4348 C 0.37923 0.95846 0.02116 0.0
C4349 C 0.36194 0.95234 0.01296 0.0
C4350 C 0.40428 0.98348 0.03816 0.0
C4351 C 0.41277 0.97207 0.04726 0.0
C4352 C 0.41433 1.00023 0.03418 0.0
C4353 C 0.40671 0.01248 0.02366 0.0
C4354 C 0.39862 0.00575 0.0055 0.0
C4355 C 0.39157 0.01744 0.99564 0.0
C4356 C 0.39271 0.03595 0.00372 0.0
C4357 C 0.40097 0.04282 0.02166 0.0
C4358 C 0.40802 0.03117 0.0316 0.0
C4359 C 0.48066 0.98745 0.023 0.0
C4360 C 0.49276 1.0037 0.03204 0.0
C4361 C 0.46418 0.98268 0.02876 0.0
C4362 C 0.45958 0.99424 0.04342 0.0
C4363 C 0.47206 0.00966 0.05333 0.0
C4364 C 0.48869 0.01423 0.04786 0.0
C4365 C 0.44096 0.99215 0.0457 0.0
C4366 C 0.43251 1.00457 0.0385 0.0
C4367 C 0.43111 0.97607 0.05085 0.0
C4368 C 0.43987 0.96292 0.05895 0.0
C4369 C 0.45397 0.96967 0.07307 0.0
C4370 C 0.46287 0.95742 0.07992 0.0
C4371 C 0.45757 0.9383 0.07304 0.0
C4372 C 0.44338 0.9314 0.05929 0.0
C4373 C 0.43457 0.94361 0.05222 0.0
H4374 H 0.4644 0.92883 0.07845 0.0
H4375 H 0.38726 0.04499 0.99606 0.0
H4376 H 0.90675 0.60422 0.77804 0.0
H4377 H 0.88416 0.62118 0.77347 0.0
H4378 H 0.84654 0.57841 0.79116 0.0
H4379 H 0.86908 0.56085 0.79502 0.0
H4380 H 0.83304 0.58647 0.76106 0.0
H4381 H 0.86195 0.62367 0.81853 0.0
H4382 H 0.88703 0.64186 0.84093 0.0
H4383 H 0.90091 0.67976 0.80385 0.0
H4384 H 0.87612 0.66157 0.78112 0.0
H4385 H 0.77336 0.64961 0.76483 0.0
H4386 H 0.79089 0.62706 0.77044 0.0
H4387 H 0.83308 0.65758 0.74607 0.0
H4388 H 0.81574 0.67996 0.74043 0.0
H4389 H 0.84175 0.65448 0.7828 0.0
H4390 H 0.81343 0.61627 0.72497 0.0
H4391 H 0.78817 0.59823 0.70279 0.0
H4392 H 0.77278 0.56225 0.74118 0.0
H4393 H 0.79784 0.58025 0.76371 0.0
C4394 C 0.89376 0.59857 0.7813 0.0
C4395 C 0.88968 0.58123 0.78692 0.0
C4396 C 0.88084 0.60833 0.77875 0.0
C4397 C 0.86369 0.6012 0.78222 0.0
C4398 C 0.8597 0.58417 0.78843 0.0
C4399 C 0.87259 0.57422 0.79072 0.0
C4400 C 0.84981 0.61106 0.77816 0.0
C4401 C 0.83476 0.60127 0.76615 0.0
C4402 C 0.85217 0.63041 0.78453 0.0
C4403 C 0.86715 0.64131 0.79816 0.0
C4404 C 0.8704 0.63584 0.81514 0.0
C4405 C 0.88457 0.64614 0.82789 0.0
C4406 C 0.89555 0.66196 0.82383 0.0
C4407 C 0.89238 0.66752 0.80701 0.0
C4408 C 0.87824 0.65726 0.79421 0.0
C4409 C 0.78614 0.65106 0.76013 0.0
C4410 C 0.79334 0.66653 0.7524 0.0
C4411 C 0.79613 0.63827 0.76339 0.0
C4412 C 0.81332 0.64089 0.75886 0.0
C4413 C 0.81991 0.6555 0.74981 0.0
C4414 C 0.80999 0.66819 0.74655 0.0
C4415 C 0.82529 0.62998 0.76542 0.0
C4416 C 0.83994 0.63962 0.77797 0.0
C4417 C 0.82248 0.61054 0.75961 0.0
C4418 C 0.80738 0.59976 0.74612 0.0
C4419 C 0.80455 0.60464 0.72877 0.0
C4420 C 0.7903 0.59439 0.71611 0.0
C4421 C 0.77884 0.57914 0.7206 0.0
C4422 C 0.78164 0.57409 0.73774 0.0
C4423 C 0.79587 0.5843 0.75045 0.0
H4424 H 0.76781 0.57122 0.71077 0.0
H4425 H 0.90651 0.66991 0.83372 0.0
H4426 H 0.81475 0.62421 0.01755 0.0
H4427 H 0.84274 0.61555 0.01651 0.0
H4428 H 0.85614 0.6506 0.97655 0.0
H4429 H 0.82791 0.65954 0.97757 0.0
H4430 H 0.86312 0.61432 0.9677 0.0
H4431 H 0.87595 0.66564 0.01805 0.0
H4432 H 0.87109 0.68411 0.04694 0.0
H4433 H 0.87451 0.63881 0.07506 0.0
H4434 H 0.87915 0.61995 0.04627 0.0
H4435 H 0.94882 0.59541 0.97625 0.0
H4436 H 0.92499 0.6117 0.97446 0.0
H4437 H 0.9056 0.58981 0.02111 0.0
H4438 H 0.92941 0.57393 0.02313 0.0
H4439 H 0.904 0.62432 0.02487 0.0
H4440 H 0.887 0.57162 0.97469 0.0
H4441 H 0.89066 0.55185 0.94602 0.0
H4442 H 0.89403 0.59824 0.9179 0.0
H4443 H 0.8906 0.61834 0.94649 0.0
C4444 C 0.82359 0.63015 0.00851 0.0
C4445 C 0.81903 0.64263 0.99765 0.0
C4446 C 0.83966 0.62521 0.00799 0.0
C4447 C 0.85162 0.63252 0.99657 0.0
C4448 C 0.84712 0.64482 0.98551 0.0
C4449 C 0.83102 0.64997 0.98616 0.0
C4450 C 0.86869 0.62704 0.99632 0.0
C4451 C 0.87228 0.61683 0.98009 0.0
C4452 C 0.88046 0.63 0.01257 0.0
C4453 C 0.87779 0.64134 0.02996 0.0
C4454 C 0.87554 0.65956 0.03036 0.0
C4455 C 0.87285 0.67011 0.04673 0.0
C4456 C 0.87246 0.66263 0.06282 0.0
C4457 C 0.87481 0.64459 0.06258 0.0
C4458 C 0.8775 0.63397 0.04625 0.0
C4459 C 0.93945 0.5941 0.98611 0.0
C4460 C 0.94108 0.58342 0.99988 0.0
C4461 C 0.9258 0.60339 0.98506 0.0
C4462 C 0.9133 0.60189 0.99754 0.0
C4463 C 0.91506 0.59134 0.01136 0.0
C4464 C 0.92875 0.58226 0.01253 0.0
C4465 C 0.89826 0.61107 0.99637 0.0
C4466 C 0.89504 0.62201 0.01237 0.0
C4467 C 0.88675 0.6086 0.97995 0.0
C4468 C 0.88876 0.59653 0.96277 0.0
C4469 C 0.88865 0.57763 0.96243 0.0
C4470 C 0.89067 0.56637 0.94619 0.0
C4471 C 0.89264 0.5738 0.93016 0.0
C4472 C 0.89255 0.59251 0.93033 0.0
C4473 C 0.89056 0.60384 0.94654 0.0
H4474 H 0.89419 0.56506 0.91761 0.0
H4475 H 0.87037 0.67082 0.07548 0.0
H4476 H 0.17026 0.08622 0.75624 0.0
H4477 H 0.18776 0.11723 0.75588 0.0
H4478 H 0.23184 0.10452 0.78515 0.0
H4479 H 0.21415 0.07285 0.7854 0.0
H4480 H 0.2282 0.14081 0.79932 0.0
H4481 H 0.23081 0.10759 0.73919 0.0
H4482 H 0.21881 0.08771 0.70908 0.0
H4483 H 0.18957 0.12736 0.69651 0.0
H4484 H 0.20121 0.14737 0.72666 0.0
H4485 H 0.28834 0.22396 0.78941 0.0
H4486 H 0.2725 0.19209 0.78923 0.0
H4487 H 0.23164 0.19832 0.75004 0.0
H4488 H 0.2481 0.23033 0.74963 0.0
H4489 H 0.23393 0.16474 0.74101 0.0
H4490 H 0.22917 0.19728 0.80022 0.0
H4491 H 0.23924 0.21749 0.83055 0.0
H4492 H 0.26993 0.17988 0.84535 0.0
H4493 H 0.26022 0.15955 0.81499 0.0
C4494 C 0.18371 0.08976 0.76262 0.0
C4495 C 0.19053 0.0765 0.77084 0.0
C4496 C 0.19385 0.10777 0.76231 0.0
C4497 C 0.21143 0.11373 0.77035 0.0
C4498 C 0.2184 0.10063 0.77875 0.0
C4499 C 0.20823 0.08231 0.77881 0.0
C4500 C 0.22211 0.13351 0.76995 0.0
C4501 C 0.22968 0.14584 0.78649 0.0
C4502 C 0.22374 0.14086 0.75343 0.0
C4503 C 0.21677 0.1289 0.73526 0.0
C4504 C 0.22172 0.112 0.73006 0.0
C4505 C 0.215 0.10072 0.71297 0.0
C4506 C 0.2034 0.10624 0.7009 0.0
C4507 C 0.19854 0.12309 0.70588 0.0
C4508 C 0.20521 0.13441 0.72296 0.0
C4509 C 0.27595 0.21871 0.78072 0.0
C4510 C 0.26967 0.23017 0.76959 0.0
C4511 C 0.26667 0.20023 0.78076 0.0
C4512 C 0.25032 0.19225 0.76999 0.0
C4513 C 0.24405 0.20366 0.75867 0.0
C4514 C 0.25351 0.2222 0.75847 0.0
C4515 C 0.24014 0.17219 0.77042 0.0
C4516 C 0.23257 0.15978 0.75388 0.0
C4517 C 0.23826 0.16486 0.78699 0.0
C4518 C 0.2441 0.177 0.80526 0.0
C4519 C 0.23816 0.19338 0.80989 0.0
C4520 C 0.24379 0.20485 0.8271 0.0
C4521 C 0.25526 0.2 0.83985 0.0
C4522 C 0.26107 0.18363 0.83544 0.0
C4523 C 0.2555 0.17213 0.81825 0.0
H4524 H 0.2596 0.20889 0.85316 0.0
H4525 H 0.19822 0.09749 0.68768 0.0
H4526 H 0.37598 0.9881 0.26068 0.0
H4527 H 0.3528 0.95944 0.25409 0.0
H4528 H 0.39131 0.92731 0.26216 0.0
H4529 H 0.4145 0.95572 0.26802 0.0
H4530 H 0.36861 0.90996 0.23402 0.0
H4531 H 0.36572 0.94056 0.29638 0.0
H4532 H 0.36214 0.96653 0.31968 0.0
H4533 H 0.31145 0.96387 0.29177 0.0
H4534 H 0.31483 0.938 0.26819 0.0
H4535 H 0.31692 0.84396 0.28833 0.0
H4536 H 0.33093 0.87526 0.28461 0.0
H4537 H 0.31356 0.86086 0.2263 0.0
H4538 H 0.29993 0.82911 0.22986 0.0
H4539 H 0.32092 0.90304 0.27369 0.0
H4540 H 0.34733 0.88624 0.20453 0.0
H4541 H 0.35396 0.85985 0.18411 0.0
H4542 H 0.36144 0.83306 0.23022 0.0
H4543 H 0.3556 0.85964 0.25103 0.0
C4544 C 0.37946 0.9749 0.26105 0.0
C4545 C 0.39701 0.97411 0.26499 0.0
C4546 C 0.36623 0.95856 0.25725 0.0
C4547 C 0.37033 0.94127 0.25776 0.0
C4548 C 0.38786 0.94049 0.26155 0.0
C4549 C 0.40109 0.95675 0.26503 0.0
C4550 C 0.35647 0.92392 0.25522 0.0
C4551 C 0.35804 0.90847 0.24254 0.0
C4552 C 0.34266 0.92203 0.26626 0.0
C4553 C 0.34062 0.93754 0.28042 0.0
C4554 C 0.35387 0.94561 0.29516 0.0
C4555 C 0.35187 0.96029 0.30842 0.0
C4556 C 0.3366 0.96689 0.30717 0.0
C4557 C 0.32328 0.95878 0.29269 0.0
C4558 C 0.32523 0.94411 0.27938 0.0
C4559 C 0.31595 0.84746 0.27473 0.0
C4560 C 0.30754 0.83405 0.25936 0.0
C4561 C 0.32387 0.8654 0.27263 0.0
C4562 C 0.3234 0.87034 0.25516 0.0
C4563 C 0.31428 0.85724 0.23986 0.0
C4564 C 0.30655 0.83913 0.24192 0.0
C4565 C 0.33361 0.88883 0.25319 0.0
C4566 C 0.3312 0.9046 0.26482 0.0
C4567 C 0.347 0.89085 0.24158 0.0
C4568 C 0.35067 0.87478 0.22928 0.0
C4569 C 0.35045 0.87475 0.21032 0.0
C4570 C 0.35415 0.8598 0.19869 0.0
C4571 C 0.35796 0.84472 0.20584 0.0
C4572 C 0.35836 0.84469 0.22469 0.0
C4573 C 0.35493 0.85974 0.23642 0.0
H4574 H 0.36069 0.8331 0.19679 0.0
H4575 H 0.33507 0.97825 0.31745 0.0
H4576 H 0.56051 0.3427 0.56785 0.0
H4577 H 0.55673 0.36891 0.55311 0.0
H4578 H 0.5777 0.40703 0.60402 0.0
H4579 H 0.58074 0.38082 0.61893 0.0
H4580 H 0.55244 0.41816 0.5907 0.0
H4581 H 0.60093 0.40114 0.56395 0.0
H4582 H 0.61748 0.38063 0.54749 0.0
H4583 H 0.57955 0.36914 0.49963 0.0
H4584 H 0.56265 0.38942 0.51588 0.0
H4585 H 0.57152 0.50107 0.55101 0.0
H4586 H 0.57623 0.47392 0.56371 0.0
H4587 H 0.53716 0.43772 0.52192 0.0
H4588 H 0.53197 0.46486 0.50943 0.0
H4589 H 0.57154 0.42595 0.52989 0.0
H4590 H 0.52361 0.44452 0.55873 0.0
H4591 H 0.50971 0.46731 0.5759 0.0
H4592 H 0.55038 0.47816 0.62119 0.0
H4593 H 0.56469 0.45563 0.60413 0.0
C4594 C 0.56439 0.35668 0.57588 0.0
C4595 C 0.57097 0.35958 0.5946 0.0
C4596 C 0.56232 0.37175 0.56739 0.0
C4597 C 0.56715 0.39022 0.57726 0.0
C4598 C 0.5738 0.39306 0.59596 0.0
C4599 C 0.57561 0.37799 0.60451 0.0
C4600 C 0.5649 0.40651 0.56838 0.0
C4601 C 0.55687 0.41986 0.57751 0.0
C4602 C 0.57039 0.40894 0.55099 0.0
C4603 C 0.58043 0.39663 0.54121 0.0
C4604 C 0.59604 0.39411 0.54997 0.0
C4605 C 0.6055 0.38255 0.54067 0.0
C4606 C 0.59954 0.37354 0.52255 0.0
C4607 C 0.58413 0.3761 0.51368 0.0
C4608 C 0.57461 0.38764 0.52292 0.0
C4609 C 0.56403 0.48733 0.54437 0.0
C4610 C 0.55133 0.48522 0.52917 0.0
C4611 C 0.56672 0.47181 0.55171 0.0
C4612 C 0.55704 0.45373 0.54381 0.0
C4613 C 0.54481 0.45149 0.52824 0.0
C4614 C 0.54183 0.46706 0.52115 0.0
C4615 C 0.55919 0.43733 0.55228 0.0
C4616 C 0.56717 0.42407 0.54307 0.0
C4617 C 0.554 0.43515 0.56974 0.0
C4618 C 0.54533 0.44855 0.58007 0.0
C4619 C 0.52968 0.45189 0.57228 0.0
C4620 C 0.52171 0.46474 0.582 0.0
C4621 C 0.52919 0.47422 0.5996 0.0
C4622 C 0.54462 0.47083 0.60754 0.0
C4623 C 0.55266 0.45802 0.59785 0.0
H4624 H 0.52299 0.48416 0.60711 0.0
H4625 H 0.60689 0.36461 0.51537 0.0
H4626 H 0.44497 0.73951 0.37732 0.0
H4627 H 0.41482 0.73799 0.36401 0.0
H4628 H 0.43267 0.79027 0.34618 0.0
H4629 H 0.46243 0.7918 0.3591 0.0
H4630 H 0.40165 0.78857 0.36178 0.0
H4631 H 0.42623 0.74978 0.3164 0.0
H4632 H 0.43911 0.72315 0.30618 0.0
H4633 H 0.39409 0.68538 0.31848 0.0
H4634 H 0.38105 0.71182 0.32899 0.0
H4635 H 0.33755 0.79617 0.29275 0.0
H4636 H 0.36344 0.79482 0.31254 0.0
H4637 H 0.342 0.73626 0.31131 0.0
H4638 H 0.31685 0.73739 0.29013 0.0
H4639 H 0.37297 0.7387 0.309 0.0
H4640 H 0.34623 0.77518 0.35139 0.0
H4641 H 0.33243 0.80065 0.36302 0.0
H4642 H 0.37936 0.84104 0.35961 0.0
H4643 H 0.39335 0.81582 0.34771 0.0
C4644 C 0.4424 0.75071 0.37068 0.0
C4645 C 0.45621 0.76569 0.36919 0.0
C4646 C 0.42518 0.74981 0.36302 0.0
C4647 C 0.42143 0.764 0.35398 0.0
C4648 C 0.43513 0.77916 0.35306 0.0
C4649 C 0.45223 0.77994 0.36041 0.0
C4650 C 0.40352 0.76309 0.34481 0.0
C4651 C 0.39535 0.77769 0.35021 0.0
C4652 C 0.39496 0.74862 0.33011 0.0
C4653 C 0.40277 0.73277 0.32366 0.0
C4654 C 0.41915 0.7358 0.31705 0.0
C4655 C 0.42646 0.72074 0.31119 0.0
C4656 C 0.41744 0.70259 0.31174 0.0
C4657 C 0.40107 0.69945 0.3181 0.0
C4658 C 0.39371 0.71446 0.324 0.0
C4659 C 0.33829 0.78308 0.29692 0.0
C4660 C 0.32513 0.76691 0.29001 0.0
C4661 C 0.3531 0.7823 0.30842 0.0
C4662 C 0.35478 0.76549 0.31397 0.0
C4663 C 0.34127 0.74944 0.30736 0.0
C4664 C 0.32677 0.7501 0.29535 0.0
C4665 C 0.37094 0.76441 0.32573 0.0
C4666 C 0.37891 0.74947 0.32078 0.0
C4667 C 0.3791 0.77838 0.34117 0.0
C4668 C 0.3708 0.79359 0.34853 0.0
C4669 C 0.35358 0.78949 0.35303 0.0
C4670 C 0.34572 0.80389 0.35968 0.0
C4671 C 0.35501 0.82245 0.36203 0.0
C4672 C 0.37218 0.82665 0.35778 0.0
C4673 C 0.38009 0.81231 0.35111 0.0
H4674 H 0.3489 0.83358 0.36716 0.0
H4675 H 0.42313 0.69095 0.30719 0.0
H4676 H 0.08699 0.73541 0.11626 0.0
H4677 H 0.08141 0.7043 0.09796 0.0
H4678 H 0.04901 0.72036 0.05658 0.0
H4679 H 0.05457 0.752 0.07509 0.0
H4680 H 0.03384 0.6853 0.06589 0.0
H4681 H 0.08777 0.71467 0.04699 0.0
H4682 H 0.11801 0.7338 0.05158 0.0
H4683 H 0.13491 0.69539 0.08228 0.0
H4684 H 0.10473 0.67613 0.07807 0.0
H4685 H 0.02767 0.59558 0.01129 0.0
H4686 H 0.0321 0.62923 0.02145 0.0
H4687 H 0.07384 0.62836 0.06261 0.0
H4688 H 0.07003 0.59493 0.05184 0.0
H4689 H 0.08327 0.65751 0.04878 0.0
H4690 H 0.02936 0.63047 0.07131 0.0
H4691 H 0.99927 0.61102 0.06749 0.0
H4692 H 0.98239 0.64472 0.03106 0.0
H4693 H 0.01244 0.66424 0.0345 0.0
C4694 C 0.07869 0.73248 0.10325 0.0
C4695 C 0.07122 0.74632 0.09719 0.0
C4696 C 0.07557 0.71461 0.09274 0.0
C4697 C 0.06488 0.70994 0.07581 0.0
C4698 C 0.05733 0.72364 0.0696 0.0
C4699 C 0.0606 0.74175 0.08012 0.0
C4700 C 0.06167 0.69061 0.06502 0.0
C4701 C 0.0446 0.6793 0.06179 0.0
C4702 C 0.07571 0.68262 0.05997 0.0
C4703 C 0.09395 0.69401 0.06229 0.0
C4704 C 0.09792 0.71035 0.0548 0.0
C4705 C 0.11505 0.72121 0.05732 0.0
C4706 C 0.12837 0.71583 0.06723 0.0
C4707 C 0.12458 0.69953 0.0746 0.0
C4708 C 0.10747 0.68862 0.07212 0.0
C4709 C 0.03779 0.60257 0.02252 0.0
C4710 C 0.04844 0.59253 0.03083 0.0
C4711 C 0.04026 0.62185 0.0284 0.0
C4712 C 0.05311 0.63147 0.0431 0.0
C4713 C 0.06383 0.62141 0.05126 0.0
C4714 C 0.06161 0.60223 0.04513 0.0
C4715 C 0.05547 0.65192 0.05011 0.0
C4716 C 0.07244 0.66348 0.05264 0.0
C4717 C 0.04133 0.66006 0.05463 0.0
C4718 C 0.02317 0.6487 0.05303 0.0
C4719 C 0.01923 0.6337 0.06245 0.0
C4720 C 1.00219 0.62265 0.06034 0.0
C4721 C 0.98894 0.6266 0.049 0.0
C4722 C 0.99267 0.64167 0.03982 0.0
C4723 C 0.0097 0.65274 0.04186 0.0
H4724 H 0.97576 0.618 0.04734 0.0
H4725 H 0.14162 0.72427 0.06919 0.0
H4726 H 0.04482 0.25255 0.84987 0.0
H4727 H 0.07178 0.25524 0.83549 0.0
H4728 H 0.10183 0.26423 0.8888 0.0
H4729 H 0.07486 0.26207 0.9033 0.0
H4730 H 0.11785 0.28758 0.8696 0.0
H4731 H 0.09387 0.2218 0.85733 0.0
H4732 H 0.07131 0.19267 0.84647 0.0
H4733 H 0.06842 0.20461 0.79176 0.0
H4734 H 0.09081 0.23395 0.80234 0.0
H4735 H 0.19653 0.27823 0.83131 0.0
H4736 H 0.17091 0.27274 0.84799 0.0
H4737 H 0.13697 0.2663 0.79756 0.0
H4738 H 0.16238 0.27115 0.78076 0.0
H4739 H 0.12395 0.2405 0.81687 0.0
H4740 H 0.14713 0.30719 0.82999 0.0
H4741 H 0.17023 0.33587 0.84105 0.0
H4742 H 0.1751 0.32147 0.89467 0.0
H4743 H 0.15218 0.29257 0.88385 0.0
C4744 C 0.05716 0.25499 0.85856 0.0
C4745 C 0.05765 0.25703 0.87776 0.0
C4746 C 0.0726 0.25645 0.85028 0.0
C4747 C 0.08894 0.25967 0.86098 0.0
C4748 C 0.08945 0.26171 0.88019 0.0
C4749 C 0.074 0.26041 0.8885 0.0
C4750 C 0.10545 0.26129 0.85211 0.0
C4751 C 0.11925 0.2771 0.85827 0.0
C4752 C 0.10734 0.24783 0.8371 0.0
C4753 C 0.09392 0.23015 0.83067 0.0
C4754 C 0.08834 0.21828 0.84301 0.0
C4755 C 0.07559 0.20172 0.8369 0.0
C4756 C 0.06841 0.19681 0.81844 0.0
C4757 C 0.07399 0.20844 0.80605 0.0
C4758 C 0.08672 0.22502 0.81209 0.0
C4759 C 0.1836 0.27545 0.82373 0.0
C4760 C 0.18159 0.27531 0.80468 0.0
C4761 C 0.16894 0.27247 0.83333 0.0
C4762 C 0.15193 0.26935 0.82411 0.0
C4763 C 0.1499 0.26876 0.80504 0.0
C4764 C 0.1645 0.27173 0.79546 0.0
C4765 C 0.1362 0.26687 0.83421 0.0
C4766 C 0.12256 0.25089 0.82828 0.0
C4767 C 0.1345 0.28012 0.84947 0.0
C4768 C 0.14807 0.29763 0.85606 0.0
C4769 C 0.1532 0.31009 0.84411 0.0
C4770 C 0.16625 0.32638 0.85033 0.0
C4771 C 0.17417 0.33046 0.86853 0.0
C4772 C 0.16899 0.31828 0.88056 0.0
C4773 C 0.15596 0.30195 0.8744 0.0
H4774 H 0.18429 0.34307 0.87332 0.0
H4775 H 0.05854 0.18398 0.81374 0.0
H4776 H 0.57937 0.78314 0.93811 0.0
H4777 H 0.57148 0.75758 0.95498 0.0
H4778 H 0.56603 0.7177 0.90474 0.0
H4779 H 0.57354 0.74315 0.88773 0.0
H4780 H 0.53975 0.70776 0.92415 0.0
H4781 H 0.6025 0.72725 0.93656 0.0
H4782 H 0.63088 0.74967 0.94684 0.0
H4783 H 0.61566 0.76216 1.00074 0.0
H4784 H 0.58708 0.73998 0.99071 0.0
H4785 H 0.54207 0.62711 0.96282 0.0
H4786 H 0.54729 0.65308 0.94619 0.0
H4787 H 0.55475 0.69199 0.9974 0.0
H4788 H 0.55066 0.66615 0.01418 0.0
H4789 H 0.57938 0.70279 0.97773 0.0
H4790 H 0.51682 0.68176 0.96541 0.0
H4791 H 0.4888 0.65879 0.95486 0.0
H4792 H 0.50368 0.6488 0.90052 0.0
H4793 H 0.53193 0.67145 0.91082 0.0
C4794 C 0.5765 0.76893 0.93066 0.0
C4795 C 0.57717 0.76516 0.91161 0.0
C4796 C 0.57203 0.75434 0.94032 0.0
C4797 C 0.56836 0.73572 0.93115 0.0
C4798 C 0.56881 0.73195 0.9121 0.0
C4799 C 0.57318 0.74652 0.90241 0.0
C4800 C 0.56417 0.72015 0.9414 0.0
C4801 C 0.54848 0.70655 0.93576 0.0
C4802 C 0.5754 0.71879 0.95676 0.0
C4803 C 0.59259 0.7321 0.96283 0.0
C4804 C 0.60516 0.73488 0.95056 0.0
C4805 C 0.62129 0.74753 0.95635 0.0
C4806 C 0.62505 0.75737 0.97442 0.0
C4807 C 0.61271 0.75455 0.98675 0.0
C4808 C 0.59655 0.74193 0.98102 0.0
C4809 C 0.54495 0.6412 0.97055 0.0
C4810 C 0.54602 0.64453 0.98985 0.0
C4811 C 0.54769 0.65603 0.961 0.0
C4812 C 0.55121 0.6745 0.97052 0.0
C4813 C 0.552 0.67786 0.98975 0.0
C4814 C 0.54947 0.66304 0.99932 0.0
C4815 C 0.5549 0.69038 0.96056 0.0
C4816 C 0.57054 0.70403 0.96621 0.0
C4817 C 0.54363 0.69173 0.94519 0.0
C4818 C 0.52657 0.6782 0.93894 0.0
C4819 C 0.51417 0.67457 0.95124 0.0
C4820 C 0.49824 0.66161 0.9453 0.0
C4821 C 0.49448 0.65232 0.92704 0.0
C4822 C 0.50661 0.65602 0.91466 0.0
C4823 C 0.52259 0.6689 0.92054 0.0
H4824 H 0.48215 0.64227 0.92247 0.0
H4825 H 0.63755 0.76715 0.97887 0.0
H4826 H 0.06011 0.77615 0.63469 0.0
H4827 H 0.09106 0.78297 0.64689 0.0
H4828 H 0.07708 0.78539 0.70203 0.0
H4829 H 0.04618 0.77902 0.69 0.0
H4830 H 0.10716 0.81069 0.70125 0.0
H4831 H 0.08254 0.7453 0.67848 0.0
H4832 H 0.06698 0.71804 0.6552 0.0
H4833 H 0.10644 0.73045 0.61963 0.0
H4834 H 0.12211 0.75797 0.64261 0.0
H4835 H 0.17403 0.77789 0.74743 0.0
H4836 H 0.14739 0.78472 0.73368 0.0
H4837 H 0.16753 0.78226 0.6813 0.0
H4838 H 0.19392 0.77485 0.6948 0.0
H4839 H 0.13581 0.75991 0.67875 0.0
H4840 H 0.16265 0.82364 0.70535 0.0
H4841 H 0.17701 0.85053 0.7296 0.0
H4842 H 0.13292 0.84012 0.75983 0.0
H4843 H 0.11838 0.81304 0.73588 0.0
C4844 C 0.06366 0.77845 0.64943 0.0
C4845 C 0.05076 0.77673 0.66139 0.0
C4846 C 0.08132 0.78235 0.65636 0.0
C4847 C 0.08628 0.78433 0.67531 0.0
C4848 C 0.07349 0.78386 0.68736 0.0
C4849 C 0.05585 0.78011 0.68045 0.0
C4850 C 0.10447 0.78487 0.68243 0.0
C4851 C 0.11347 0.7996 0.69642 0.0
C4852 C 0.11267 0.77046 0.67591 0.0
C4853 C 0.10338 0.75381 0.66216 0.0
C4854 C 0.08783 0.74229 0.66564 0.0
C4855 C 0.079 0.72679 0.6525 0.0
C4856 C 0.08569 0.72255 0.63592 0.0
C4857 C 0.10126 0.73378 0.63246 0.0
C4858 C 0.11012 0.74932 0.64554 0.0
C4859 C 0.17279 0.77891 0.73301 0.0
C4860 C 0.18596 0.7757 0.72214 0.0
C4861 C 0.1577 0.78307 0.72524 0.0
C4862 C 0.15559 0.78416 0.70652 0.0
C4863 C 0.16899 0.78159 0.6958 0.0
C4864 C 0.18406 0.77743 0.70355 0.0
C4865 C 0.13863 0.78575 0.69766 0.0
C4866 C 0.12974 0.77126 0.68339 0.0
C4867 C 0.1305 0.80024 0.70417 0.0
C4868 C 0.13946 0.81623 0.71884 0.0
C4869 C 0.15609 0.82696 0.71725 0.0
C4870 C 0.16424 0.84228 0.73092 0.0
C4871 C 0.15586 0.84705 0.74622 0.0
C4872 C 0.13937 0.83644 0.74795 0.0
C4873 C 0.13116 0.82112 0.73432 0.0
H4874 H 0.16211 0.85899 0.75672 0.0
H4875 H 0.07882 0.71055 0.62576 0.0
H4876 H 0.1091 0.38705 0.38568 0.0
H4877 H 0.10499 0.41651 0.40268 0.0
H4878 H 0.06045 0.38634 0.42406 0.0
H4879 H 0.06462 0.35696 0.40751 0.0
H4880 H 0.05561 0.4192 0.40914 0.0
H4881 H 0.09565 0.3985 0.45077 0.0
H4882 H 0.12305 0.38934 0.45925 0.0
H4883 H 0.15297 0.44206 0.45107 0.0
H4884 H 0.12571 0.45143 0.44228 0.0
H4885 H 0.0357 0.4702 0.48843 0.0
H4886 H 0.04247 0.44883 0.46312 0.0
H4887 H 0.09288 0.48622 0.46443 0.0
H4888 H 0.08641 0.50715 0.4905 0.0
H4889 H 0.09758 0.45384 0.46339 0.0
H4890 H 0.05946 0.47554 0.42153 0.0
H4891 H 0.03297 0.48476 0.40972 0.0
H4892 H 1.00091 0.4328 0.41697 0.0
H4893 H 0.02724 0.4229 0.42799 0.0
C4894 C 0.09841 0.38674 0.39397 0.0
C4895 C 0.08722 0.36972 0.39535 0.0
C4896 C 0.0961 0.40353 0.40364 0.0
C4897 C 0.08242 0.4035 0.41454 0.0
C4898 C 0.07105 0.38659 0.41564 0.0
C4899 C 0.07352 0.36983 0.40627 0.0
C4900 C 0.08005 0.42094 0.42535 0.0
C4901 C 0.06477 0.42685 0.421 0.0
C4902 C 0.09232 0.43121 0.44037 0.0
C4903 C 0.10867 0.42555 0.44562 0.0
C4904 C 0.10807 0.40806 0.45059 0.0
C4905 C 0.12358 0.40284 0.4555 0.0
C4906 C 0.13974 0.41508 0.45563 0.0
C4907 C 0.14044 0.43258 0.45091 0.0
C4908 C 0.12497 0.43784 0.44597 0.0
C4909 C 0.04814 0.47389 0.48316 0.0
C4910 C 0.06057 0.49019 0.49137 0.0
C4911 C 0.05193 0.46182 0.4685 0.0
C4912 C 0.06806 0.46605 0.46151 0.0
C4913 C 0.08032 0.48265 0.4695 0.0
C4914 C 0.07666 0.49455 0.48442 0.0
C4915 C 0.07283 0.45206 0.4475 0.0
C4916 C 0.08858 0.44667 0.45125 0.0
C4917 C 0.06113 0.44246 0.43171 0.0
C4918 C 0.04526 0.4486 0.42577 0.0
C4919 C 0.04674 0.46615 0.42071 0.0
C4920 C 0.03178 0.47144 0.41406 0.0
C4921 C 0.01528 0.45951 0.41287 0.0
C4922 C 0.0137 0.44208 0.41799 0.0
C4923 C 0.02863 0.43653 0.42425 0.0
H4924 H 0.00373 0.46373 0.40786 0.0
H4925 H 0.15173 0.41103 0.45945 0.0
H4926 H 0.44237 0.24641 0.16503 0.0
H4927 H 0.41628 0.24935 0.17966 0.0
H4928 H 0.44076 0.24 0.23043 0.0
H4929 H 0.46674 0.23649 0.21575 0.0
H4930 H 0.40605 0.22442 0.22573 0.0
H4931 H 0.44335 0.28384 0.22361 0.0
H4932 H 0.46084 0.30763 0.20883 0.0
H4933 H 0.41482 0.3089 0.17422 0.0
H4934 H 0.39709 0.28492 0.18863 0.0
H4935 H 0.3575 0.29955 0.26825 0.0
H4936 H 0.38321 0.2906 0.25681 0.0
H4937 H 0.3504 0.2386 0.22695 0.0
H4938 H 0.32485 0.24706 0.23913 0.0
H4939 H 0.39072 0.28517 0.22362 0.0
H4940 H 0.37277 0.20532 0.22151 0.0
H4941 H 0.35434 0.18381 0.23793 0.0
H4942 H 0.3637 0.2266 0.28604 0.0
H4943 H 0.38267 0.24812 0.27019 0.0
C4944 C 0.44211 0.24471 0.17923 0.0
C4945 C 0.4567 0.24153 0.18934 0.0
C4946 C 0.4272 0.24637 0.18756 0.0
C4947 C 0.42678 0.24527 0.20621 0.0
C4948 C 0.44087 0.24095 0.21603 0.0
C4949 C 0.45573 0.23904 0.20764 0.0
C4950 C 0.4124 0.2504 0.21585 0.0
C4951 C 0.40268 0.23769 0.22531 0.0
C4952 C 0.40833 0.26791 0.21566 0.0
C4953 C 0.41893 0.28247 0.20708 0.0
C4954 C 0.43698 0.28911 0.21276 0.0
C4955 C 0.44694 0.30263 0.20446 0.0
C4956 C 0.43895 0.30974 0.19056 0.0
C4957 C 0.42099 0.30337 0.18497 0.0
C4958 C 0.41098 0.28982 0.19321 0.0
C4959 C 0.35587 0.28608 0.2595 0.0
C4960 C 0.33927 0.27395 0.25461 0.0
C4961 C 0.37051 0.28104 0.2529 0.0
C4962 C 0.36873 0.2639 0.24112 0.0
C4963 C 0.35214 0.25172 0.23633 0.0
C4964 C 0.33756 0.25657 0.24327 0.0
C4965 C 0.38414 0.25912 0.23329 0.0
C4966 C 0.3941 0.27191 0.22415 0.0
C4967 C 0.38869 0.24194 0.23425 0.0
C4968 C 0.37899 0.2284 0.24456 0.0
C4969 C 0.37114 0.21003 0.23569 0.0
C4970 C 0.36055 0.19786 0.24489 0.0
C4971 C 0.35773 0.20392 0.26294 0.0
C4972 C 0.36581 0.22198 0.27201 0.0
C4973 C 0.37657 0.23412 0.26297 0.0
H4974 H 0.34937 0.19461 0.27 0.0
H4975 H 0.44668 0.32021 0.18415 0.0
H4976 H 0.60404 0.51942 0.31629 0.0
H4977 H 0.59188 0.52033 0.34529 0.0
H4978 H 0.6408 0.51574 0.37235 0.0
H4979 H 0.65295 0.51394 0.34257 0.0
H4980 H 0.61766 0.49971 0.39103 0.0
H4981 H 0.62305 0.55952 0.37536 0.0
H4982 H 0.61992 0.58316 0.35641 0.0
H4983 H 0.56396 0.56519 0.35198 0.0
H4984 H 0.56676 0.54128 0.37072 0.0
H4985 H 0.58486 0.52641 0.47966 0.0
H4986 H 0.60205 0.52589 0.4532 0.0
H4987 H 0.55552 0.52251 0.41687 0.0
H4988 H 0.53864 0.52301 0.44292 0.0
H4989 H 0.58062 0.54467 0.40501 0.0
H4990 H 0.57698 0.48386 0.42133 0.0
H4991 H 0.58194 0.46243 0.44225 0.0
H4992 H 0.63731 0.48573 0.44809 0.0
H4993 H 0.63265 0.50742 0.42734 0.0
C4994 C 0.61243 0.51849 0.32827 0.0
C4995 C 0.62978 0.51664 0.32642 0.0
C4996 C 0.60535 0.51928 0.3453 0.0
C4997 C 0.61524 0.51886 0.362 0.0
C4998 C 0.6325 0.51636 0.3602 0.0
C4999 C 0.63958 0.51526 0.34288 0.0
C5000 C 0.60744 0.52116 0.38078 0.0
C5001 C 0.6098 0.50981 0.394 0.0
C5002 C 0.5969 0.53418 0.38561 0.0
C5003 C 0.59513 0.54849 0.3743 0.0
C5004 C 0.61008 0.56053 0.37024 0.0
C5005 C 0.60836 0.57399 0.35955 0.0
C5006 C 0.59175 0.57564 0.35295 0.0
C5007 C 0.57682 0.56387 0.35707 0.0
C5008 C 0.57846 0.55037 0.36774 0.0
C5009 C 0.57832 0.52595 0.46613 0.0
C5010 C 0.56011 0.52511 0.46396 0.0
C5011 C 0.58821 0.52534 0.45068 0.0
C5012 C 0.58042 0.52397 0.43229 0.0
C5013 C 0.56235 0.52358 0.43042 0.0
C5014 C 0.55254 0.5239 0.44564 0.0
C5015 C 0.59049 0.52298 0.415 0.0
C5016 C 0.58851 0.5346 0.40203 0.0
C5017 C 0.60163 0.51052 0.41066 0.0
C5018 C 0.60445 0.49737 0.42294 0.0
C5019 C 0.5902 0.48447 0.42716 0.0
C5020 C 0.59296 0.47227 0.43897 0.0
C5021 C 0.60993 0.47275 0.44653 0.0
C5022 C 0.62418 0.48539 0.44224 0.0
C5023 C 0.62149 0.49762 0.43044 0.0
H5024 H 0.61204 0.46331 0.45568 0.0
H5025 H 0.59045 0.58608 0.34468 0.0
H5026 H 0.31348 0.92667 0.07177 0.0
H5027 H 0.31987 0.9132 0.09874 0.0
H5028 H 0.29239 0.85868 0.06934 0.0
H5029 H 0.28589 0.87203 0.04225 0.0
H5030 H 0.28369 0.86664 0.10453 0.0
H5031 H 0.33573 0.87026 0.07371 0.0
H5032 H 0.36087 0.88643 0.0602 0.0
H5033 H 0.38069 0.92215 0.11233 0.0
H5034 H 0.35552 0.90635 0.12609 0.0
H5035 H 0.33068 0.80832 0.151 0.0
H5036 H 0.33236 0.83024 0.12977 0.0
H5037 H 0.31044 0.86657 0.16741 0.0
H5038 H 0.30909 0.84495 0.18901 0.0
H5039 H 0.3449 0.86979 0.12963 0.0
H5040 H 0.27511 0.87296 0.14135 0.0
H5041 H 0.25038 0.85594 0.1549 0.0
H5042 H 0.26642 0.80483 0.13939 0.0
H5043 H 0.29103 0.8215 0.12549 0.0
C5044 C 0.3087 0.91182 0.07107 0.0
C5045 C 0.2992 0.90036 0.05491 0.0
C5046 C 0.31245 0.90417 0.08645 0.0
C5047 C 0.30674 0.88498 0.08589 0.0
C5048 C 0.29692 0.87355 0.06994 0.0
C5049 C 0.29324 0.88118 0.05451 0.0
C5050 C 0.31096 0.87671 0.10194 0.0
C5051 C 0.29707 0.86743 0.11007 0.0
C5052 C 0.32845 0.87782 0.10913 0.0
C5053 C 0.34363 0.88725 0.10088 0.0
C5054 C 0.34537 0.88166 0.08225 0.0
C5055 C 0.35964 0.89074 0.07456 0.0
C5056 C 0.37235 0.90535 0.08539 0.0
C5057 C 0.37083 0.91086 0.10395 0.0
C5058 C 0.35656 0.90184 0.11171 0.0
C5059 C 0.3268 0.82128 0.15509 0.0
C5060 C 0.31932 0.8247 0.17144 0.0
C5061 C 0.32783 0.8338 0.14296 0.0
C5062 C 0.32129 0.84979 0.14698 0.0
C5063 C 0.31538 0.85415 0.16405 0.0
C5064 C 0.31439 0.84167 0.17622 0.0
C5065 C 0.31762 0.8598 0.13212 0.0
C5066 C 0.33156 0.86933 0.12422 0.0
C5067 C 0.30018 0.85884 0.12499 0.0
C5068 C 0.28499 0.84851 0.13257 0.0
C5069 C 0.27327 0.85807 0.14074 0.0
C5070 C 0.25929 0.84849 0.14849 0.0
C5071 C 0.25686 0.82933 0.14806 0.0
C5072 C 0.26834 0.81968 0.13976 0.0
C5073 C 0.2823 0.82918 0.13195 0.0
H5074 H 0.24607 0.82195 0.15413 0.0
H5075 H 0.38339 0.91236 0.07941 0.0
H5076 H 1.00138 0.56194 0.81871 0.0
H5077 H 0.01695 0.56687 0.84959 0.0
H5078 H 0.96828 0.56485 0.87264 0.0
H5079 H 0.9527 0.5606 0.84181 0.0
H5080 H 0.99414 0.58818 0.89559 0.0
H5081 H 0.98355 0.52569 0.86275 0.0
H5082 H 0.98398 0.50062 0.83693 0.0
H5083 H 0.04017 0.51563 0.84391 0.0
H5084 H 0.04006 0.54099 0.86962 0.0
H5085 H 0.01347 0.55022 0.97478 0.0
H5086 H 1.0014 0.55622 0.94555 0.0
H5087 H 0.05258 0.56335 0.92732 0.0
H5088 H 0.06445 0.55658 0.95646 0.0
H5089 H 0.02679 0.53928 0.90221 0.0
H5090 H 0.03528 0.60077 0.93897 0.0
H5091 H 0.0319 0.62237 0.96651 0.0
H5092 H 0.97599 0.60534 0.95384 0.0
H5093 H 0.97903 0.58348 0.92632 0.0
C5094 C 0.99405 0.56295 0.83038 0.0
C5095 C 0.97579 0.56058 0.82785 0.0
C5096 C 0.00295 0.56574 0.84801 0.0
C5097 C 0.9937 0.56573 0.86336 0.0
C5098 C 0.97566 0.5648 0.86098 0.0
C5099 C 0.96677 0.56233 0.84334 0.0
C5100 C 1.00244 0.56464 0.88148 0.0
C5101 C 1.00124 0.57748 0.89706 0.0
C5102 C 0.01166 0.55061 0.88341 0.0
C5103 C 0.01179 0.53538 0.86795 0.0
C5104 C 0.99599 0.52374 0.85868 0.0
C5105 C 0.99618 0.50946 0.84408 0.0
C5106 C 0.01209 0.50657 0.83875 0.0
C5107 C 0.02785 0.51792 0.84803 0.0
C5108 C 0.02774 0.53224 0.86262 0.0
C5109 C 0.02197 0.55262 0.96439 0.0
C5110 C 0.03964 0.55226 0.96753 0.0
C5111 C 0.01521 0.55648 0.94786 0.0
C5112 C 0.02613 0.56028 0.93431 0.0
C5113 C 0.04396 0.56044 0.93763 0.0
C5114 C 0.0507 0.55661 0.95423 0.0
C5115 C 0.01872 0.56296 0.91625 0.0
C5116 C 0.02001 0.55024 0.90068 0.0
C5117 C 0.00922 0.57676 0.91449 0.0
C5118 C 0.00739 0.59044 0.93062 0.0
C5119 C 0.02226 0.60161 0.94207 0.0
C5120 C 0.02041 0.6139 0.95768 0.0
C5121 C 0.00374 0.61522 0.96193 0.0
C5122 C 0.98889 0.60432 0.95052 0.0
C5123 C 0.99068 0.59201 0.93489 0.0
H5124 H 1.00234 0.62469 0.97405 0.0
H5125 H 0.01221 0.4955 0.82745 0.0
H5126 H 0.27891 0.1742 0.56722 0.0
H5127 H 0.2812 0.19209 0.59806 0.0
H5128 H 0.28035 0.24171 0.5756 0.0
H5129 H 0.2785 0.22379 0.54435 0.0
H5130 H 0.30254 0.25017 0.60701 0.0
H5131 H 0.24321 0.21686 0.58921 0.0
H5132 H 0.21924 0.18932 0.57677 0.0
H5133 H 0.23372 0.16226 0.62057 0.0
H5134 H 0.25795 0.18953 0.63314 0.0
H5135 H 0.25728 0.26682 0.69765 0.0
H5136 H 0.2558 0.25555 0.66463 0.0
H5137 H 0.31029 0.25398 0.67171 0.0
H5138 H 0.31199 0.26578 0.70457 0.0
H5139 H 0.2589 0.22466 0.64631 0.0
H5140 H 0.32918 0.25909 0.63338 0.0
H5141 H 0.35176 0.28805 0.64516 0.0
H5142 H 0.31208 0.31642 0.66144 0.0
H5143 H 0.28925 0.28771 0.64955 0.0
C5144 C 0.27931 0.18896 0.56874 0.0
C5145 C 0.2783 0.19749 0.55321 0.0
C5146 C 0.28057 0.19918 0.58647 0.0
C5147 C 0.2805 0.2182 0.58925 0.0
C5148 C 0.28029 0.22703 0.57385 0.0
C5149 C 0.27923 0.21678 0.55598 0.0
C5150 C 0.28001 0.2284 0.60819 0.0
C5151 C 0.29297 0.24464 0.61558 0.0
C5152 C 0.26727 0.22151 0.61935 0.0
C5153 C 0.25248 0.20521 0.61205 0.0
C5154 C 0.24134 0.20501 0.59615 0.0
C5155 C 0.2277 0.18944 0.58907 0.0
C5156 C 0.22498 0.17403 0.59785 0.0
C5157 C 0.23585 0.1742 0.61378 0.0
C5158 C 0.24952 0.18972 0.6209 0.0
C5159 C 0.26901 0.26427 0.69216 0.0
C5160 C 0.28477 0.26729 0.70384 0.0
C5161 C 0.26813 0.25775 0.67324 0.0
C5162 C 0.28296 0.25404 0.66547 0.0
C5163 C 0.29872 0.25709 0.67714 0.0
C5164 C 0.29965 0.26377 0.69603 0.0
C5165 C 0.28175 0.24619 0.6454 0.0
C5166 C 0.26843 0.23034 0.63776 0.0
C5167 C 0.29391 0.25371 0.63394 0.0
C5168 C 0.30752 0.27119 0.6407 0.0
C5169 C 0.32526 0.27154 0.63937 0.0
C5170 C 0.33811 0.2879 0.64609 0.0
C5171 C 0.33337 0.30405 0.65409 0.0
C5172 C 0.31575 0.30389 0.65529 0.0
C5173 C 0.30285 0.28757 0.64858 0.0
H5174 H 0.34333 0.31668 0.65933 0.0
H5175 H 0.21443 0.16198 0.59233 0.0
H5176 H 0.65789 0.50878 0.19681 0.0
H5177 H 0.64333 0.51131 0.16719 0.0
H5178 H 0.59565 0.51213 0.19128 0.0
H5179 H 0.61012 0.50882 0.22085 0.0
H5180 H 0.58509 0.49513 0.15876 0.0
H5181 H 0.62736 0.55331 0.17854 0.0
H5182 H 0.65671 0.57378 0.18909 0.0
H5183 H 0.67544 0.55132 0.13976 0.0
H5184 H 0.64625 0.53057 0.12902 0.0
H5185 H 0.5748 0.5549 0.07971 0.0
H5186 H 0.58879 0.55104 0.10918 0.0
H5187 H 0.57385 0.49144 0.09196 0.0
H5188 H 0.55979 0.49527 0.06244 0.0
H5189 H 0.61506 0.53889 0.12155 0.0
H5190 H 0.57041 0.46879 0.12902 0.0
H5191 H 0.53978 0.45113 0.11995 0.0
H5192 H 0.52369 0.50211 0.11739 0.0
H5193 H 0.55417 0.52007 0.12663 0.0
C5194 C 0.64427 0.50946 0.19594 0.0
C5195 C 0.63544 0.5086 0.21174 0.0
C5196 C 0.63584 0.51113 0.17874 0.0
C5197 C 0.61813 0.51246 0.17636 0.0
C5198 C 0.60921 0.51126 0.19211 0.0
C5199 C 0.61762 0.50938 0.20931 0.0
C5200 C 0.60908 0.51505 0.15776 0.0
C5201 C 0.59187 0.50469 0.15074 0.0
C5202 C 0.61718 0.5277 0.14672 0.0
C5203 C 0.63467 0.54028 0.15306 0.0
C5204 C 0.63777 0.55269 0.16999 0.0
C5205 C 0.65437 0.56433 0.17599 0.0
C5206 C 0.66794 0.56381 0.16512 0.0
C5207 C 0.66492 0.55169 0.14818 0.0
C5208 C 0.64835 0.54 0.14212 0.0
C5209 C 0.57436 0.54089 0.08208 0.0
C5210 C 0.56585 0.52546 0.0682 0.0
C5211 C 0.58257 0.53866 0.09918 0.0
C5212 C 0.58254 0.52088 0.10356 0.0
C5213 C 0.57409 0.50543 0.08965 0.0
C5214 C 0.56601 0.50766 0.07245 0.0
C5215 C 0.59131 0.51866 0.1224 0.0
C5216 C 0.6084 0.52918 0.12951 0.0
C5217 C 0.583 0.50639 0.13364 0.0
C5218 C 0.56461 0.49573 0.12832 0.0
C5219 C 0.56032 0.47622 0.12658 0.0
C5220 C 0.54299 0.46617 0.1214 0.0
C5221 C 0.5298 0.47549 0.11804 0.0
C5222 C 0.53392 0.4949 0.11993 0.0
C5223 C 0.55122 0.50502 0.12511 0.0
H5224 H 0.5164 0.46767 0.11401 0.0
H5225 H 0.68078 0.57283 0.1698 0.0
H5226 H 0.30191 0.87571 0.96158 0.0
H5227 H 0.30233 0.85197 0.93498 0.0
H5228 H 0.28815 0.88746 0.89868 0.0
H5229 H 0.28775 0.91139 0.92521 0.0
H5230 H 0.26904 0.85013 0.88881 0.0
H5231 H 0.32891 0.88553 0.90476 0.0
H5232 H 0.35622 0.89937 0.92567 0.0
H5233 H 0.36013 0.84496 0.93468 0.0
H5234 H 0.33268 0.83082 0.91401 0.0
H5235 H 0.30924 0.81997 0.80782 0.0
H5236 H 0.31237 0.83826 0.83857 0.0
H5237 H 0.28429 0.79013 0.85773 0.0
H5238 H 0.28218 0.77119 0.82699 0.0
H5239 H 0.32455 0.83165 0.87731 0.0
H5240 H 0.25076 0.81132 0.87642 0.0
H5241 H 0.22419 0.79831 0.85408 0.0
H5242 H 0.24951 0.82489 0.81306 0.0
H5243 H 0.27596 0.83848 0.8353 0.0
C5244 C 0.29883 0.87848 0.94795 0.0
C5245 C 0.29487 0.89548 0.9455 0.0
C5246 C 0.29909 0.86489 0.93279 0.0
C5247 C 0.29532 0.86802 0.91493 0.0
C5248 C 0.29105 0.88481 0.9124 0.0
C5249 C 0.29094 0.89849 0.92756 0.0
C5250 C 0.2963 0.85401 0.89883 0.0
C5251 C 0.28114 0.846 0.88639 0.0
C5252 C 0.31211 0.84867 0.89566 0.0
C5253 C 0.32865 0.85714 0.90801 0.0
C5254 C 0.33551 0.87653 0.91133 0.0
C5255 C 0.35103 0.88443 0.92311 0.0
C5256 C 0.35988 0.87306 0.93154 0.0
C5257 C 0.35325 0.85376 0.92817 0.0
C5258 C 0.33772 0.84579 0.91641 0.0
C5259 C 0.30451 0.81298 0.81871 0.0
C5260 C 0.29576 0.79406 0.81506 0.0
C5261 C 0.30621 0.82351 0.83627 0.0
C5262 C 0.2986 0.81549 0.85031 0.0
C5263 C 0.29036 0.79645 0.847 0.0
C5264 C 0.28914 0.7857 0.82948 0.0
C5265 C 0.29731 0.82776 0.86749 0.0
C5266 C 0.31239 0.8355 0.88003 0.0
C5267 C 0.28151 0.83304 0.87065 0.0
C5268 C 0.26541 0.82563 0.85743 0.0
C5269 C 0.25059 0.81445 0.86266 0.0
C5270 C 0.23555 0.807 0.85002 0.0
C5271 C 0.2352 0.81069 0.83213 0.0
C5272 C 0.24983 0.82196 0.82689 0.0
C5273 C 0.26483 0.82955 0.83951 0.0
H5274 H 0.22356 0.80489 0.82237 0.0
H5275 H 0.3719 0.8792 0.94066 0.0
H5276 H 0.9627 0.54643 0.73007 0.0
H5277 H 0.96986 0.5324 0.70066 0.0
H5278 H 0.91531 0.50651 0.68312 0.0
H5279 H 0.90792 0.5204 0.7129 0.0
H5280 H 0.96046 0.49139 0.68611 0.0
H5281 H 0.91578 0.50821 0.63207 0.0
H5282 H 0.89543 0.52848 0.62766 0.0
H5283 H 0.92722 0.57163 0.66982 0.0
H5284 H 0.94784 0.55169 0.67427 0.0
H5285 H 0.98964 0.50603 0.58837 0.0
H5286 H 0.96577 0.49645 0.60635 0.0
H5287 H 1.00239 0.51342 0.65597 0.0
H5288 H 0.02614 0.52289 0.63808 0.0
H5289 H 0.95414 0.51846 0.62981 0.0
H5290 H 0.99169 0.49176 0.68878 0.0
H5291 H 0.01047 0.46961 0.69094 0.0
H5292 H 0.99066 0.44188 0.63559 0.0
H5293 H 0.97151 0.46365 0.63315 0.0
C5294 C 0.95216 0.5379 0.71995 0.0
C5295 C 0.93476 0.53445 0.72381 0.0
C5296 C 0.9563 0.52978 0.70323 0.0
C5297 C 0.94312 0.51827 0.68994 0.0
C5298 C 0.92562 0.51527 0.69335 0.0
C5299 C 0.92146 0.52327 0.71027 0.0
C5300 C 0.94828 0.50967 0.67265 0.0
C5301 C 0.959 0.49705 0.67364 0.0
C5302 C 0.94532 0.51614 0.65609 0.0
C5303 C 0.93311 0.52833 0.65373 0.0
C5304 C 0.91836 0.52201 0.64042 0.0
C5305 C 0.90681 0.53345 0.63789 0.0
C5306 C 0.90997 0.55129 0.64854 0.0
C5307 C 0.92473 0.55776 0.66167 0.0
C5308 C 0.93633 0.54638 0.66423 0.0
C5309 C 0.99257 0.50746 0.6031 0.0
C5310 C 0.00968 0.51538 0.61191 0.0
C5311 C 0.97896 0.50185 0.61331 0.0
C5312 C 0.9823 0.50396 0.63247 0.0
C5313 C 0.99954 0.51113 0.64114 0.0
C5314 C 0.01313 0.51668 0.63095 0.0
C5315 C 0.96779 0.50155 0.6439 0.0
C5316 C 0.95513 0.51195 0.6418 0.0
C5317 C 0.96866 0.49264 0.65926 0.0
C5318 C 0.98011 0.47939 0.66079 0.0
C5319 C 0.99118 0.48084 0.67711 0.0
C5320 C 1.00194 0.46837 0.67837 0.0
C5321 C 1.00176 0.45434 0.66342 0.0
C5322 C 0.99081 0.45276 0.64716 0.0
C5323 C 0.98001 0.46519 0.64582 0.0
H5324 H 0.01011 0.44471 0.66442 0.0
H5325 H 0.90102 0.56014 0.64656 0.0
H5326 H 0.26436 0.18008 0.42039 0.0
H5327 H 0.26824 0.19472 0.39343 0.0
H5328 H 0.30191 0.24385 0.42753 0.0
H5329 H 0.29713 0.22955 0.45475 0.0
H5330 H 0.28411 0.25536 0.40477 0.0
H5331 H 0.31644 0.20842 0.39605 0.0
H5332 H 0.32241 0.17709 0.3932 0.0
H5333 H 0.28279 0.1572 0.34668 0.0
H5334 H 0.2764 0.18835 0.34941 0.0
H5335 H 0.32258 0.29087 0.32952 0.0
H5336 H 0.31833 0.27558 0.35617 0.0
H5337 H 0.27153 0.23792 0.32653 0.0
H5338 H 0.27525 0.25381 0.30004 0.0
H5339 H 0.29633 0.2208 0.34639 0.0
H5340 H 0.26453 0.26971 0.35759 0.0
H5341 H 0.26169 0.30232 0.36062 0.0
H5342 H 0.30532 0.31952 0.40315 0.0
H5343 H 0.30847 0.28705 0.40026 0.0
C5344 C 0.27261 0.19401 0.42217 0.0
C5345 C 0.28048 0.2036 0.43978 0.0
C5346 C 0.27497 0.20236 0.40663 0.0
C5347 C 0.28576 0.22034 0.40812 0.0
C5348 C 0.29355 0.22998 0.42579 0.0
C5349 C 0.29085 0.22177 0.44142 0.0
C5350 C 0.28854 0.22923 0.39142 0.0
C5351 C 0.28704 0.24776 0.39216 0.0
C5352 C 0.29217 0.2195 0.37463 0.0
C5353 C 0.29581 0.20068 0.37308 0.0
C5354 C 0.30888 0.19732 0.38532 0.0
C5355 C 0.31236 0.1796 0.3837 0.0
C5356 C 0.30295 0.16515 0.3698 0.0
C5357 C 0.29005 0.1684 0.35746 0.0
C5358 C 0.2865 0.18608 0.35904 0.0
C5359 C 0.31136 0.27934 0.32863 0.0
C5360 C 0.29925 0.27357 0.31259 0.0
C5361 C 0.30893 0.27063 0.34392 0.0
C5362 C 0.29453 0.25567 0.34345 0.0
C5363 C 0.28268 0.2495 0.32727 0.0
C5364 C 0.28485 0.25854 0.3121 0.0
C5365 C 0.29184 0.24668 0.35994 0.0
C5366 C 0.2934 0.22822 0.3591 0.0
C5367 C 0.28873 0.25657 0.37676 0.0
C5368 C 0.28684 0.27604 0.37855 0.0
C5369 C 0.2736 0.2805 0.36744 0.0
C5370 C 0.27191 0.29893 0.36917 0.0
C5371 C 0.28337 0.31298 0.38199 0.0
C5372 C 0.29648 0.30863 0.39319 0.0
C5373 C 0.2982 0.29022 0.39154 0.0
H5374 H 0.28204 0.32724 0.3833 0.0
H5375 H 0.30568 0.15145 0.36856 0.0
H5376 H 0.32635 0.6051 0.54952 0.0
H5377 H 0.35312 0.59504 0.54328 0.0
H5378 H 0.35095 0.61368 0.49125 0.0
H5379 H 0.32428 0.62415 0.49752 0.0
H5380 H 0.35344 0.57531 0.49017 0.0
H5381 H 0.38198 0.63712 0.52041 0.0
H5382 H 0.38814 0.66487 0.54498 0.0
H5383 H 0.40393 0.633 0.5839 0.0
H5384 H 0.39761 0.60496 0.55961 0.0
H5385 H 0.43215 0.54664 0.47379 0.0
H5386 H 0.41012 0.56522 0.47632 0.0
H5387 H 0.41147 0.56308 0.53419 0.0
H5388 H 0.4338 0.54493 0.53176 0.0
H5389 H 0.41091 0.59681 0.52904 0.0
H5390 H 0.37844 0.5346 0.50124 0.0
H5391 H 0.37118 0.50578 0.4779 0.0
H5392 H 0.36158 0.53706 0.43591 0.0
H5393 H 0.36901 0.56612 0.459 0.0
C5394 C 0.33168 0.60727 0.53685 0.0
C5395 C 0.32322 0.61533 0.52397 0.0
C5396 C 0.347 0.6016 0.53336 0.0
C5397 C 0.35395 0.60371 0.51685 0.0
C5398 C 0.34574 0.61205 0.50409 0.0
C5399 C 0.33058 0.61803 0.50772 0.0
C5400 C 0.36902 0.59582 0.51247 0.0
C5401 C 0.36616 0.58023 0.49837 0.0
C5402 C 0.38537 0.60206 0.52353 0.0
C5403 C 0.38918 0.61889 0.5382 0.0
C5404 C 0.38661 0.63598 0.53424 0.0
C5405 C 0.39017 0.65177 0.54811 0.0
C5406 C 0.39639 0.65069 0.566 0.0
C5407 C 0.3991 0.63381 0.57004 0.0
C5408 C 0.39555 0.61797 0.55621 0.0
C5409 C 0.4276 0.55003 0.48698 0.0
C5410 C 0.43448 0.54426 0.50256 0.0
C5411 C 0.41506 0.56065 0.48843 0.0
C5412 C 0.40902 0.56535 0.5054 0.0
C5413 C 0.416 0.55966 0.52097 0.0
C5414 C 0.42867 0.54926 0.51958 0.0
C5415 C 0.39522 0.57594 0.50703 0.0
C5416 C 0.39831 0.59205 0.52061 0.0
C5417 C 0.37896 0.57001 0.49568 0.0
C5418 C 0.37448 0.55255 0.4818 0.0
C5419 C 0.37491 0.53535 0.48701 0.0
C5420 C 0.37075 0.51897 0.47383 0.0
C5421 C 0.36598 0.5196 0.45542 0.0
C5422 C 0.36532 0.5366 0.45017 0.0
C5423 C 0.36949 0.55303 0.46329 0.0
H5424 H 0.36275 0.5069 0.44524 0.0
H5425 H 0.39914 0.66294 0.57672 0.0
H5426 H 0.86396 0.92235 0.55866 0.0
H5427 H 0.89581 0.93529 0.56111 0.0
H5428 H 0.88926 0.95073 0.50788 0.0
H5429 H 0.85773 0.93845 0.50558 0.0
H5430 H 0.91827 0.93269 0.51417 0.0
H5431 H 0.89255 0.98288 0.54187 0.0
H5432 H 0.87569 0.99675 0.5645 0.0
H5433 H 0.91112 0.9898 0.60865 0.0
H5434 H 0.92805 0.97565 0.58623 0.0
H5435 H 0.99062 1.00149 0.502 0.0
H5436 H 0.9625 0.98111 0.50432 0.0
H5437 H 0.97541 0.98977 0.56325 0.0
H5438 H 0.00306 0.01133 0.56094 0.0
H5439 H 0.9445 0.99169 0.5578 0.0
H5440 H 0.97349 0.94643 0.53098 0.0
H5441 H 0.99048 0.93175 0.50902 0.0
H5442 H 0.95021 0.92732 0.46485 0.0
H5443 H 0.93302 0.94212 0.48641 0.0
C5444 C 0.86938 0.9284 0.54747 0.0
C5445 C 0.85832 0.92952 0.532 0.0
C5446 C 0.88753 0.93578 0.54888 0.0
C5447 C 0.89489 0.94396 0.53465 0.0
C5448 C 0.8839 0.94445 0.51898 0.0
C5449 C 0.86584 0.93752 0.51776 0.0
C5450 C 0.91386 0.95295 0.53617 0.0
C5451 C 0.9241 0.94559 0.5237 0.0
C5452 C 0.92155 0.96945 0.54897 0.0
C5453 C 0.91141 0.97799 0.56239 0.0
C5454 C 0.89664 0.98414 0.5564 0.0
C5455 C 0.88709 0.99209 0.56918 0.0
C5456 C 0.89229 0.99409 0.588 0.0
C5457 C 0.90708 0.9882 0.59407 0.0
C5458 C 0.91666 0.98022 0.58133 0.0
C5459 C 0.9875 0.99889 0.51542 0.0
C5460 C 0.99896 0.00802 0.5313 0.0
C5461 C 0.97145 0.98706 0.51676 0.0
C5462 C 0.96677 0.98348 0.53396 0.0
C5463 C 0.97855 0.99223 0.5498 0.0
C5464 C 0.9944 1.0045 0.54849 0.0
C5465 C 0.94915 0.97169 0.53548 0.0
C5466 C 0.93904 0.97856 0.5485 0.0
C5467 C 0.9417 0.95453 0.52335 0.0
C5468 C 0.95198 0.94547 0.51034 0.0
C5469 C 0.96828 0.9424 0.51657 0.0
C5470 C 0.97796 0.93407 0.5042 0.0
C5471 C 0.97146 0.92866 0.48558 0.0
C5472 C 0.95523 0.93152 0.47928 0.0
C5473 C 0.94549 0.93984 0.49158 0.0
H5474 H 0.97899 0.92223 0.47605 0.0
H5475 H 0.88489 1.00025 0.59788 0.0
H5476 H 0.9132 0.12849 0.26418 0.0
H5477 H 0.89955 0.15509 0.26524 0.0
H5478 H 0.84871 0.11747 0.25201 0.0
H5479 H 0.86251 0.09082 0.2503 0.0
H5480 H 0.84496 0.14382 0.23626 0.0
H5481 H 0.87018 0.15001 0.29893 0.0
H5482 H 0.89367 0.1532 0.3242 0.0
H5483 H 0.9222 0.20313 0.30882 0.0
H5484 H 0.89896 0.20012 0.28334 0.0
H5485 H 0.79558 0.21378 0.2584 0.0
H5486 H 0.81013 0.18788 0.25738 0.0
H5487 H 0.86033 0.22675 0.26738 0.0
H5488 H 0.84569 0.25283 0.26869 0.0
H5489 H 0.86481 0.20031 0.28459 0.0
H5490 H 0.83991 0.19482 0.22263 0.0
H5491 H 0.81674 0.1922 0.19722 0.0
H5492 H 0.78809 0.14142 0.21089 0.0
H5493 H 0.811 0.14387 0.23655 0.0
C5494 C 0.89908 0.12569 0.26155 0.0
C5495 C 0.88928 0.10689 0.25724 0.0
C5496 C 0.89105 0.14125 0.26234 0.0
C5497 C 0.8726 0.13916 0.25919 0.0
C5498 C 0.86283 0.12031 0.25467 0.0
C5499 C 0.87088 0.10473 0.25375 0.0
C5500 C 0.8636 0.15616 0.26024 0.0
C5501 C 0.84931 0.15593 0.24713 0.0
C5502 C 0.86895 0.1729 0.27385 0.0
C5503 C 0.88292 0.17472 0.28912 0.0
C5504 C 0.88152 0.1616 0.30088 0.0
C5505 C 0.89478 0.16339 0.31524 0.0
C5506 C 0.90944 0.17833 0.31808 0.0
C5507 C 0.91085 0.19154 0.30659 0.0
C5508 C 0.89763 0.18981 0.29219 0.0
C5509 C 0.80975 0.21705 0.26039 0.0
C5510 C 0.81911 0.23601 0.26361 0.0
C5511 C 0.81826 0.20188 0.25963 0.0
C5512 C 0.83678 0.20455 0.26191 0.0
C5513 C 0.84616 0.22355 0.26544 0.0
C5514 C 0.83763 0.23877 0.26616 0.0
C5515 C 0.84611 0.18783 0.26073 0.0
C5516 C 0.86045 0.18815 0.27378 0.0
C5517 C 0.84086 0.1712 0.24704 0.0
C5518 C 0.82708 0.16964 0.23163 0.0
C5519 C 0.82861 0.18316 0.2203 0.0
C5520 C 0.81554 0.1817 0.20584 0.0
C5521 C 0.80093 0.16668 0.20248 0.0
C5522 C 0.7994 0.15306 0.21353 0.0
C5523 C 0.81243 0.15447 0.22803 0.0
H5524 H 0.79082 0.16557 0.19128 0.0
H5525 H 0.91969 0.17968 0.32921 0.0
H5526 H 0.71997 0.13659 0.9814 0.0
H5527 H 0.6895 0.12577 0.96727 0.0
H5528 H 0.68374 0.0781 0.99434 0.0
H5529 H 0.71446 0.08825 0.00738 0.0
H5530 H 0.66451 0.06789 0.96349 0.0
H5531 H 0.67348 0.12185 0.01306 0.0
H5532 H 0.68621 0.15451 0.02807 0.0
H5533 H 0.66518 0.17354 0.9813 0.0
H5534 H 0.65247 0.14095 0.96596 0.0
H5535 H 0.58878 0.08113 0.0138 0.0
H5536 H 0.61642 0.09386 0.00386 0.0
H5537 H 0.59931 0.06049 0.94968 0.0
H5538 H 0.57146 0.04664 0.96002 0.0
H5539 H 0.62855 0.11319 0.98113 0.0
H5540 H 0.63518 0.0503 0.93209 0.0
H5541 H 0.62273 0.0164 0.92313 0.0
H5542 H 0.61319 0.01336 0.97878 0.0
H5543 H 0.6254 0.04724 0.98798 0.0
C5544 C 0.7122 0.12367 0.98408 0.0
C5545 C 0.71938 0.11335 0.99567 0.0
C5546 C 0.69482 0.1175 0.97602 0.0
C5547 C 0.68418 0.10133 0.98004 0.0
C5548 C 0.69165 0.0906 0.99096 0.0
C5549 C 0.70916 0.09646 0.99855 0.0
C5550 C 0.66496 0.09646 0.97468 0.0
C5551 C 0.65664 0.07786 0.96713 0.0
C5552 C 0.6546 0.10947 0.97913 0.0
C5553 C 0.66228 0.12902 0.98827 0.0
C5554 C 0.67169 0.13302 0.00595 0.0
C5555 C 0.67887 0.1515 0.01451 0.0
C5556 C 0.67656 0.16609 0.00561 0.0
C5557 C 0.66701 0.16222 0.98815 0.0
C5558 C 0.65982 0.14376 0.97951 0.0
C5559 C 0.59069 0.07653 0.99968 0.0
C5560 C 0.57799 0.06263 0.9878 0.0
C5561 C 0.60656 0.08399 0.99393 0.0
C5562 C 0.61011 0.07801 0.97606 0.0
C5563 C 0.59699 0.06506 0.96365 0.0
C5564 C 0.58107 0.05725 0.96955 0.0
C5565 C 0.62821 0.0843 0.97165 0.0
C5566 C 0.63637 0.10332 0.97689 0.0
C5567 C 0.63845 0.07153 0.96598 0.0
C5568 C 0.63093 0.05125 0.96062 0.0
C5569 C 0.63035 0.04236 0.94237 0.0
C5570 C 0.62333 0.02318 0.93725 0.0
C5571 C 0.61703 0.01275 0.95032 0.0
C5572 C 0.61786 0.02146 0.9686 0.0
C5573 C 0.6248 0.04065 0.97377 0.0
H5574 H 0.61156 0.99793 0.94625 0.0
H5575 H 0.68213 0.18039 0.01227 0.0
H5576 H 0.20833 0.51217 0.25513 0.0
H5577 H 0.23013 0.49706 0.26743 0.0
H5578 H 0.18903 0.4504 0.27298 0.0
H5579 H 0.1671 0.46569 0.26117 0.0
H5580 H 0.21366 0.45873 0.30183 0.0
H5581 H 0.21213 0.44892 0.23595 0.0
H5582 H 0.21373 0.45833 0.20566 0.0
H5583 H 0.26635 0.4903 0.22324 0.0
H5584 H 0.26497 0.48126 0.25374 0.0
H5585 H 0.25394 0.38254 0.2916 0.0
H5586 H 0.2367 0.40596 0.2908 0.0
H5587 H 0.28382 0.44808 0.29106 0.0
H5588 H 0.30116 0.42454 0.29158 0.0
H5589 H 0.2591 0.44607 0.2625 0.0
H5590 H 0.26111 0.45027 0.32748 0.0
H5591 H 0.25849 0.43833 0.35647 0.0
H5592 H 0.20382 0.41424 0.33939 0.0
H5593 H 0.20616 0.42572 0.31016 0.0
C5594 C 0.20393 0.49872 0.25904 0.0
C5595 C 0.18604 0.48999 0.25701 0.0
C5596 C 0.21639 0.49012 0.26607 0.0
C5597 C 0.21119 0.47251 0.27087 0.0
C5598 C 0.1933 0.464 0.26935 0.0
C5599 C 0.18081 0.47269 0.26251 0.0
C5600 C 0.22439 0.46249 0.27658 0.0
C5601 C 0.22356 0.45587 0.29323 0.0
C5602 C 0.23752 0.45915 0.26551 0.0
C5603 C 0.23837 0.46461 0.24719 0.0
C5604 C 0.22399 0.45809 0.2334 0.0
C5605 C 0.22486 0.46333 0.21619 0.0
C5606 C 0.24011 0.47496 0.21254 0.0
C5607 C 0.25453 0.48133 0.22609 0.0
C5608 C 0.25372 0.47615 0.24334 0.0
C5609 C 0.26063 0.39685 0.29173 0.0
C5610 C 0.27882 0.40176 0.29145 0.0
C5611 C 0.25081 0.41024 0.29147 0.0
C5612 C 0.25902 0.42875 0.29098 0.0
C5613 C 0.27729 0.43386 0.29152 0.0
C5614 C 0.28716 0.42046 0.29188 0.0
C5615 C 0.24826 0.44206 0.28764 0.0
C5616 C 0.24947 0.44926 0.27135 0.0
C5617 C 0.23534 0.44564 0.29891 0.0
C5618 C 0.23385 0.43879 0.31656 0.0
C5619 C 0.24856 0.4423 0.32984 0.0
C5620 C 0.24711 0.43562 0.34633 0.0
C5621 C 0.231 0.42549 0.34976 0.0
C5622 C 0.2163 0.42205 0.33671 0.0
C5623 C 0.21767 0.42867 0.32019 0.0
H5624 H 0.22991 0.42032 0.36253 0.0
H5625 H 0.24076 0.479 0.19921 0.0
H5626 H 0.26776 0.44242 0.04549 0.0
H5627 H 0.24217 0.4559 0.04408 0.0
H5628 H 0.20875 0.40106 0.02492 0.0
H5629 H 0.23432 0.38744 0.02657 0.0
H5630 H 0.21957 0.45682 0.01625 0.0
H5631 H 0.16841 0.39985 0.03939 0.0
H5632 H 0.16727 0.37618 0.05924 0.0
H5633 H 0.21465 0.40885 0.09186 0.0
H5634 H 0.21595 0.43282 0.07237 0.0
H5635 H 0.13554 0.47306 0.99591 0.0
H5636 H 0.1591 0.4567 0.99862 0.0
H5637 H 0.16377 0.47127 0.05769 0.0
H5638 H 0.1403 0.48778 0.0551 0.0
H5639 H 0.16741 0.43605 0.04729 0.0
H5640 H 0.19161 0.49642 0.03375 0.0
H5641 H 0.19377 0.52201 0.01616 0.0
H5642 H 0.20247 0.48597 0.96845 0.0
H5643 H 0.2001 0.46008 0.9857 0.0
C5644 C 0.25496 0.43319 0.04107 0.0
C5645 C 0.25311 0.41383 0.03619 0.0
C5646 C 0.24032 0.44094 0.04021 0.0
C5647 C 0.22345 0.42954 0.03451 0.0
C5648 C 0.22156 0.41017 0.02962 0.0
C5649 C 0.23622 0.4024 0.03051 0.0
C5650 C 0.20797 0.43801 0.03338 0.0
C5651 C 0.20816 0.4522 0.023 0.0
C5652 C 0.1931 0.43223 0.04236 0.0
C5653 C 0.19236 0.41802 0.05429 0.0
C5654 C 0.17855 0.402 0.05084 0.0
C5655 C 0.17788 0.38853 0.06202 0.0
C5656 C 0.19091 0.39098 0.07676 0.0
C5657 C 0.2046 0.40694 0.08039 0.0
C5658 C 0.20532 0.42045 0.06927 0.0
C5659 C 0.14155 0.47277 0.00949 0.0
C5660 C 0.13612 0.48195 0.02528 0.0
C5661 C 0.15501 0.46336 0.01102 0.0
C5662 C 0.16344 0.46299 0.02836 0.0
C5663 C 0.1575 0.47137 0.04416 0.0
C5664 C 0.14402 0.48077 0.04265 0.0
C5665 C 0.17897 0.45466 0.02998 0.0
C5666 C 0.17878 0.44053 0.04044 0.0
C5667 C 0.19399 0.4607 0.02133 0.0
C5668 C 0.1955 0.47627 0.01096 0.0
C5669 C 0.19385 0.49392 0.01947 0.0
C5670 C 0.19513 0.50848 0.00957 0.0
C5671 C 0.19821 0.50561 0.99119 0.0
C5672 C 0.20006 0.48817 0.98268 0.0
C5673 C 0.19876 0.47355 0.99252 0.0
H5674 H 0.1992 0.5169 0.98354 0.0
H5675 H 0.19038 0.38053 0.08539 0.0
H5676 H 0.90494 0.96992 0.23898 0.0
H5677 H 0.88747 0.93959 0.24139 0.0
H5678 H 0.849 0.96557 0.26549 0.0
H5679 H 0.86693 0.99657 0.2634 0.0
H5680 H 0.8522 0.93782 0.28306 0.0
H5681 H 0.84276 0.93875 0.21899 0.0
H5682 H 0.85067 0.94275 0.18821 0.0
H5683 H 0.87895 0.89964 0.18777 0.0
H5684 H 0.8714 0.89555 0.21868 0.0
H5685 H 0.78775 0.85153 0.27312 0.0
H5686 H 0.80495 0.88246 0.27139 0.0
H5687 H 0.84481 0.85782 0.24862 0.0
H5688 H 0.82726 0.82654 0.25009 0.0
H5689 H 0.84052 0.88502 0.23046 0.0
H5690 H 0.84975 0.88417 0.29469 0.0
H5691 H 0.8414 0.88007 0.3253 0.0
H5692 H 0.81295 0.923 0.32519 0.0
H5693 H 0.82094 0.92718 0.29445 0.0
C5694 C 0.8927 0.96946 0.24471 0.0
C5695 C 0.88758 0.98626 0.25083 0.0
C5696 C 0.8825 0.95174 0.24599 0.0
C5697 C 0.86643 0.94961 0.25336 0.0
C5698 C 0.86119 0.96634 0.25962 0.0
C5699 C 0.87148 0.98427 0.2583 0.0
C5700 C 0.85558 0.93007 0.25466 0.0
C5701 C 0.84946 0.92645 0.27137 0.0
C5702 C 0.85206 0.91456 0.2398 0.0
C5703 C 0.85665 0.91697 0.22123 0.0
C5704 C 0.85077 0.93022 0.21239 0.0
C5705 C 0.85518 0.93249 0.19491 0.0
C5706 C 0.86534 0.92149 0.18606 0.0
C5707 C 0.8711 0.90817 0.19466 0.0
C5708 C 0.86675 0.90586 0.21215 0.0
C5709 C 0.80031 0.85256 0.26796 0.0
C5710 C 0.8061 0.83615 0.26223 0.0
C5711 C 0.81029 0.87052 0.26702 0.0
C5712 C 0.82664 0.87312 0.26015 0.0
C5713 C 0.83244 0.85669 0.25419 0.0
C5714 C 0.82244 0.8386 0.25529 0.0
C5715 C 0.8372 0.89277 0.25885 0.0
C5716 C 0.84326 0.8964 0.24214 0.0
C5717 C 0.8406 0.90829 0.27369 0.0
C5718 C 0.8358 0.90585 0.29218 0.0
C5719 C 0.8416 0.89264 0.30113 0.0
C5720 C 0.83695 0.89031 0.31851 0.0
C5721 C 0.82661 0.90123 0.32716 0.0
C5722 C 0.82094 0.91453 0.31846 0.0
C5723 C 0.82554 0.91689 0.30106 0.0
H5724 H 0.82303 0.89941 0.34062 0.0
H5725 H 0.86874 0.92326 0.17253 0.0
H5726 H 0.70548 0.08113 0.74248 0.0
H5727 H 0.72171 0.11344 0.75192 0.0
H5728 H 0.67472 0.13209 0.73926 0.0
H5729 H 0.65836 0.09968 0.72943 0.0
H5730 H 0.70172 0.15263 0.72745 0.0
H5731 H 0.68988 0.13266 0.7837 0.0
H5732 H 0.68859 0.11209 0.80668 0.0
H5733 H 0.74456 0.12087 0.81252 0.0
H5734 H 0.74618 0.14128 0.78937 0.0
H5735 H 0.75082 0.24139 0.79399 0.0
H5736 H 0.73269 0.20966 0.79058 0.0
H5737 H 0.75823 0.19204 0.74404 0.0
H5738 H 0.77619 0.22352 0.74717 0.0
H5739 H 0.73788 0.17315 0.78839 0.0
H5740 H 0.72507 0.1686 0.7091 0.0
H5741 H 0.7262 0.1904 0.6873 0.0
H5742 H 0.71729 0.23254 0.72954 0.0
H5743 H 0.71502 0.21069 0.75124 0.0
C5744 C 0.69858 0.09208 0.7416 0.0
C5745 C 0.6806 0.08784 0.73529 0.0
C5746 C 0.70786 0.11054 0.74713 0.0
C5747 C 0.69932 0.12512 0.74667 0.0
C5748 C 0.6815 0.121 0.73985 0.0
C5749 C 0.6722 0.10249 0.73419 0.0
C5750 C 0.70916 0.14464 0.75307 0.0
C5751 C 0.70953 0.15714 0.7408 0.0
C5752 C 0.71903 0.15062 0.77069 0.0
C5753 C 0.71814 0.13841 0.7847 0.0
C5754 C 0.70191 0.1301 0.78979 0.0
C5755 C 0.70112 0.11848 0.80286 0.0
C5756 C 0.71648 0.11515 0.81103 0.0
C5757 C 0.73267 0.12346 0.80618 0.0
C5758 C 0.73354 0.13508 0.7931 0.0
C5759 C 0.7528 0.23065 0.78326 0.0
C5760 C 0.76463 0.235 0.77058 0.0
C5761 C 0.74249 0.21256 0.78139 0.0
C5762 C 0.74394 0.19872 0.76684 0.0
C5763 C 0.75677 0.20268 0.75517 0.0
C5764 C 0.76697 0.22069 0.75695 0.0
C5765 C 0.73093 0.18073 0.76247 0.0
C5766 C 0.72992 0.16862 0.77512 0.0
C5767 C 0.72018 0.17522 0.74534 0.0
C5768 C 0.72011 0.18802 0.73191 0.0
C5769 C 0.72306 0.18241 0.71367 0.0
C5770 C 0.72383 0.19477 0.70129 0.0
C5771 C 0.72178 0.21283 0.70701 0.0
C5772 C 0.71876 0.21851 0.72507 0.0
C5773 C 0.71763 0.2061 0.73739 0.0
H5774 H 0.72253 0.22244 0.69746 0.0
H5775 H 0.71584 0.10615 0.82115 0.0
loop_
_geom_bond_atom_site_label_1
_geom_bond_atom_site_label_2
_geom_bond_distance
_geom_bond_site_symmetry_2
_ccdc_geom_bond_type
C0 O1 1.306 . S
C0 O3 1.160 . S
O1 C0 1.306 . S
O1 Cd2 2.228 . S
Cd2 O1 2.228 . S
Cd2 O6 2.273 . S
Cd2 O10 2.277 . S
O3 C0 1.160 . S
O3 Cd4 2.203 . S
Cd4 O3 2.203 . S
Cd4 O6 2.411 . S
Cd4 O7 2.333 . S
Cd4 O8 2.352 . S
Cd4 O12 2.277 . S
Cd4 O13 2.356 . S
C5 O10 1.209 . S
C5 O12 1.226 . S
O6 Cd2 2.273 . S
O6 Cd4 2.411 . S
O6 C9 1.320 . S
O7 Cd4 2.333 . S
O7 C9 1.214 . S
O8 Cd4 2.352 . S
O8 C11 1.258 . S
C9 O6 1.320 . S
C9 O7 1.214 . S
O10 Cd2 2.277 . S
O10 C5 1.209 . S
C11 O8 1.258 . S
C11 O13 1.282 . S
O12 Cd4 2.277 . S
O12 C5 1.226 . S
O13 Cd4 2.356 . S
O13 C11 1.282 . S
C14 O15 1.306 . S
C14 O17 1.160 . S
O15 C14 1.306 . S
O15 Cd16 2.228 1_655 S
Cd16 O15 2.228 1_455 S
Cd16 O20 2.273 . S
Cd16 O24 2.277 1_455 S
O17 C14 1.160 . S
O17 Cd18 2.148 1_655 S
Cd18 O17 2.148 1_455 S
Cd18 O20 2.438 . S
Cd18 O21 2.389 . S
Cd18 O22 2.343 . S
Cd18 O26 2.281 1_455 S
Cd18 O27 2.360 . S
C19 O24 1.209 . S
C19 O26 1.226 . S
O20 Cd16 2.273 . S
O20 Cd18 2.438 . S
O20 C23 1.320 . S
O21 Cd18 2.389 . S
O21 C23 1.214 . S
O22 Cd18 2.343 . S
O22 C25 1.258 . S
C23 O20 1.320 . S
C23 O21 1.214 . S
O24 Cd16 2.277 1_655 S
O24 C19 1.209 . S
C25 O22 1.258 . S
C25 O27 1.282 . S
O26 Cd18 2.281 1_655 S
O26 C19 1.226 . S
O27 Cd18 2.360 . S
O27 C25 1.282 . S
C28 O29 1.306 . S
C28 O31 1.160 . S
O29 C28 1.306 . S
O29 Cd30 2.228 . S
Cd30 O29 2.228 . S
Cd30 O34 2.273 . S
Cd30 O38 2.277 . S
O31 C28 1.160 . S
O31 Cd32 2.203 . S
Cd32 O31 2.203 . S
Cd32 O34 2.411 . S
Cd32 O35 2.333 . S
Cd32 O36 2.352 . S
Cd32 O40 2.277 . S
Cd32 O41 2.356 . S
C33 O38 1.209 . S
C33 O40 1.226 . S
O34 Cd30 2.273 . S
O34 Cd32 2.411 . S
O34 C37 1.320 . S
O35 Cd32 2.333 . S
O35 C37 1.214 . S
O36 Cd32 2.352 . S
O36 C39 1.258 . S
C37 O34 1.320 . S
C37 O35 1.214 . S
O38 Cd30 2.277 . S
O38 C33 1.209 . S
C39 O36 1.258 . S
C39 O41 1.282 . S
O40 Cd32 2.277 . S
O40 C33 1.226 . S
O41 Cd32 2.356 . S
O41 C39 1.282 . S
C42 O43 1.306 . S
C42 O45 1.160 . S
O43 C42 1.306 . S
O43 Cd44 2.228 . S
Cd44 O43 2.228 . S
Cd44 O48 2.273 . S
Cd44 O52 2.277 . S
O45 C42 1.160 . S
O45 Cd46 2.203 . S
Cd46 O45 2.203 . S
Cd46 O48 2.411 . S
Cd46 O49 2.333 . S
Cd46 O50 2.352 . S
Cd46 O54 2.277 . S
Cd46 O55 2.356 . S
C47 O52 1.209 . S
C47 O54 1.226 . S
O48 Cd44 2.273 . S
O48 Cd46 2.411 . S
O48 C51 1.320 . S
O49 Cd46 2.333 . S
O49 C51 1.214 . S
O50 Cd46 2.352 . S
O50 C53 1.258 . S
C51 O48 1.320 . S
C51 O49 1.214 . S
O52 Cd44 2.277 . S
O52 C47 1.209 . S
C53 O50 1.258 . S
C53 O55 1.282 . S
O54 Cd46 2.277 . S
O54 C47 1.226 . S
O55 Cd46 2.356 . S
O55 C53 1.282 . S
C56 O57 1.306 . S
C56 O59 1.160 . S
O57 C56 1.306 . S
O57 Cd58 2.228 . S
Cd58 O57 2.228 . S
Cd58 O62 2.273 . S
Cd58 O66 2.277 . S
O59 C56 1.160 . S
O59 Cd60 2.203 . S
Cd60 O59 2.203 . S
Cd60 O62 2.411 . S
Cd60 O63 2.333 . S
Cd60 O64 2.352 . S
Cd60 O68 2.277 . S
Cd60 O69 2.356 . S
C61 O66 1.209 . S
C61 O68 1.226 . S
O62 Cd58 2.273 . S
O62 Cd60 2.411 . S
O62 C65 1.320 . S
O63 Cd60 2.333 . S
O63 C65 1.214 . S
O64 Cd60 2.352 . S
O64 C67 1.258 . S
C65 O62 1.320 . S
C65 O63 1.214 . S
O66 Cd58 2.277 . S
O66 C61 1.209 . S
C67 O64 1.258 . S
C67 O69 1.282 . S
O68 Cd60 2.277 . S
O68 C61 1.226 . S
O69 Cd60 2.356 . S
O69 C67 1.282 . S
C70 O71 1.306 . S
C70 O73 1.160 . S
O71 C70 1.306 . S
O71 Cd72 2.228 . S
Cd72 O71 2.228 . S
Cd72 O76 2.273 . S
Cd72 O80 2.277 . S
O73 C70 1.160 . S
O73 Cd74 2.203 . S
Cd74 O73 2.203 . S
Cd74 O76 2.411 . S
Cd74 O77 2.333 . S
Cd74 O78 2.352 . S
Cd74 O82 2.277 . S
Cd74 O83 2.356 . S
C75 O80 1.209 . S
C75 O82 1.226 . S
O76 Cd72 2.273 . S
O76 Cd74 2.411 . S
O76 C79 1.320 . S
O77 Cd74 2.333 . S
O77 C79 1.214 . S
O78 Cd74 2.352 . S
O78 C81 1.258 . S
C79 O76 1.320 . S
C79 O77 1.214 . S
O80 Cd72 2.277 . S
O80 C75 1.209 . S
C81 O78 1.258 . S
C81 O83 1.282 . S
O82 Cd74 2.277 . S
O82 C75 1.226 . S
O83 Cd74 2.356 . S
O83 C81 1.282 . S
C84 O85 1.306 . S
C84 O87 1.160 . S
O85 C84 1.306 . S
O85 Cd86 2.228 . S
Cd86 O85 2.228 . S
Cd86 O90 2.273 . S
Cd86 O94 2.277 . S
O87 C84 1.160 . S
O87 Cd88 2.203 . S
Cd88 O87 2.203 . S
Cd88 O90 2.411 . S
Cd88 O91 2.333 . S
Cd88 O92 2.352 . S
Cd88 O96 2.277 . S
Cd88 O97 2.356 . S
C89 O94 1.209 . S
C89 O96 1.226 . S
O90 Cd86 2.273 . S
O90 Cd88 2.411 . S
O90 C93 1.320 . S
O91 Cd88 2.333 . S
O91 C93 1.214 . S
O92 Cd88 2.352 . S
O92 C95 1.258 . S
C93 O90 1.320 . S
C93 O91 1.214 . S
O94 Cd86 2.277 . S
O94 C89 1.209 . S
C95 O92 1.258 . S
C95 O97 1.282 . S
O96 Cd88 2.277 . S
O96 C89 1.226 . S
O97 Cd88 2.356 . S
O97 C95 1.282 . S
C98 O99 1.306 . S
C98 O101 1.160 . S
O99 C98 1.306 . S
O99 Cd100 2.228 1_655 S
Cd100 O99 2.228 1_455 S
Cd100 O104 2.273 . S
Cd100 O108 2.277 . S
O101 C98 1.160 . S
O101 Cd102 2.203 1_655 S
Cd102 O101 2.203 1_455 S
Cd102 O104 2.411 . S
Cd102 O105 2.333 . S
Cd102 O106 2.352 . S
Cd102 O110 2.277 . S
Cd102 O111 2.356 . S
C103 O108 1.209 . S
C103 O110 1.226 . S
O104 Cd100 2.273 . S
O104 Cd102 2.411 . S
O104 C107 1.320 . S
O105 Cd102 2.333 . S
O105 C107 1.214 . S
O106 Cd102 2.352 . S
O106 C109 1.258 . S
C107 O104 1.320 . S
C107 O105 1.214 . S
O108 Cd100 2.277 . S
O108 C103 1.209 . S
C109 O106 1.258 . S
C109 O111 1.282 . S
O110 Cd102 2.277 . S
O110 C103 1.226 . S
O111 Cd102 2.356 . S
O111 C109 1.282 . S
C112 O113 1.323 . S
C112 O115 1.160 . S
O113 C112 1.323 . S
O113 Cd114 2.210 1_545 S
Cd114 O113 2.210 1_565 S
Cd114 O118 2.273 1_565 S
Cd114 O122 2.277 . S
O115 C112 1.160 . S
O115 Cd116 2.203 . S
Cd116 O115 2.203 . S
Cd116 O118 2.411 . S
Cd116 O119 2.333 . S
Cd116 O120 2.352 . S
Cd116 O124 2.277 1_545 S
Cd116 O125 2.356 . S
C117 O122 1.209 . S
C117 O124 1.226 . S
O118 Cd114 2.273 1_545 S
O118 Cd116 2.411 . S
O118 C121 1.320 . S
O119 Cd116 2.333 . S
O119 C121 1.214 . S
O120 Cd116 2.352 . S
O120 C123 1.258 . S
C121 O118 1.320 . S
C121 O119 1.214 . S
O122 Cd114 2.277 . S
O122 C117 1.209 . S
C123 O120 1.258 . S
C123 O125 1.282 . S
O124 Cd116 2.277 1_565 S
O124 C117 1.226 . S
O125 Cd116 2.356 . S
O125 C123 1.282 . S
C126 O127 1.306 . S
C126 O129 1.160 . S
O127 C126 1.306 . S
O127 Cd128 2.228 . S
Cd128 O127 2.228 . S
Cd128 O132 2.273 . S
Cd128 O136 2.277 . S
O129 C126 1.160 . S
O129 Cd130 2.203 . S
Cd130 O129 2.203 . S
Cd130 O132 2.411 . S
Cd130 O133 2.333 . S
Cd130 O134 2.352 . S
Cd130 O138 2.277 . S
Cd130 O139 2.356 . S
C131 O136 1.209 . S
C131 O138 1.226 . S
O132 Cd128 2.273 . S
O132 Cd130 2.411 . S
O132 C135 1.320 . S
O133 Cd130 2.333 . S
O133 C135 1.214 . S
O134 Cd130 2.352 . S
O134 C137 1.258 . S
C135 O132 1.320 . S
C135 O133 1.214 . S
O136 Cd128 2.277 . S
O136 C131 1.209 . S
C137 O134 1.258 . S
C137 O139 1.282 . S
O138 Cd130 2.277 . S
O138 C131 1.226 . S
O139 Cd130 2.356 . S
O139 C137 1.282 . S
C140 O141 1.306 . S
C140 O143 1.160 . S
O141 C140 1.306 . S
O141 Cd142 2.228 . S
Cd142 O141 2.228 . S
Cd142 O146 2.273 1_545 S
Cd142 O150 2.277 . S
O143 C140 1.160 . S
O143 Cd144 2.205 1_545 S
Cd144 O143 2.205 1_565 S
Cd144 O146 2.402 . S
Cd144 O147 2.329 . S
Cd144 O148 2.391 . S
Cd144 O152 2.247 1_565 S
Cd144 O153 2.385 . S
C145 O150 1.209 . S
C145 O152 1.226 . S
O146 Cd142 2.273 1_565 S
O146 Cd144 2.402 . S
O146 C149 1.320 . S
O147 Cd144 2.329 . S
O147 C149 1.214 . S
O148 Cd144 2.391 . S
O148 C151 1.258 . S
C149 O146 1.320 . S
C149 O147 1.214 . S
O150 Cd142 2.277 . S
O150 C145 1.209 . S
C151 O148 1.258 . S
C151 O153 1.282 . S
O152 Cd144 2.247 1_545 S
O152 C145 1.226 . S
O153 Cd144 2.385 . S
O153 C151 1.282 . S
C154 O155 1.306 . S
C154 O157 1.160 . S
O155 C154 1.306 . S
O155 Cd156 2.228 1_554 S
Cd156 O155 2.228 1_556 S
Cd156 O160 2.273 1_556 S
Cd156 O164 2.277 . S
O157 C154 1.160 . S
O157 Cd158 2.203 . S
Cd158 O157 2.203 . S
Cd158 O160 2.411 . S
Cd158 O161 2.333 . S
Cd158 O162 2.352 . S
Cd158 O166 2.277 1_554 S
Cd158 O167 2.356 . S
C159 O164 1.209 . S
C159 O166 1.226 . S
O160 Cd156 2.273 1_554 S
O160 Cd158 2.411 . S
O160 C163 1.320 . S
O161 Cd158 2.333 . S
O161 C163 1.214 . S
O162 Cd158 2.352 . S
O162 C165 1.258 . S
C163 O160 1.320 . S
C163 O161 1.214 . S
O164 Cd156 2.277 . S
O164 C159 1.209 . S
C165 O162 1.258 . S
C165 O167 1.282 . S
O166 Cd158 2.277 1_556 S
O166 C159 1.226 . S
O167 Cd158 2.356 . S
O167 C165 1.282 . S
C168 O169 1.306 . S
C168 O171 1.160 . S
O169 C168 1.306 . S
O169 Cd170 2.228 1_554 S
Cd170 O169 2.228 1_556 S
Cd170 O174 2.273 1_556 S
Cd170 O178 2.277 . S
O171 C168 1.160 . S
O171 Cd172 2.203 . S
Cd172 O171 2.203 . S
Cd172 O174 2.411 . S
Cd172 O175 2.333 . S
Cd172 O176 2.352 . S
Cd172 O180 2.277 1_554 S
Cd172 O181 2.356 . S
C173 O178 1.209 . S
C173 O180 1.226 . S
O174 Cd170 2.273 1_554 S
O174 Cd172 2.411 . S
O174 C177 1.320 . S
O175 Cd172 2.333 . S
O175 C177 1.214 . S
O176 Cd172 2.352 . S
O176 C179 1.258 . S
C177 O174 1.320 . S
C177 O175 1.214 . S
O178 Cd170 2.277 . S
O178 C173 1.209 . S
C179 O176 1.258 . S
C179 O181 1.282 . S
O180 Cd172 2.277 1_556 S
O180 C173 1.226 . S
O181 Cd172 2.356 . S
O181 C179 1.282 . S
C182 O183 1.306 . S
C182 O185 1.160 . S
O183 C182 1.306 . S
O183 Cd184 2.228 . S
Cd184 O183 2.228 . S
Cd184 O188 2.273 . S
Cd184 O192 2.277 . S
O185 C182 1.160 . S
O185 Cd186 2.203 . S
Cd186 O185 2.203 . S
Cd186 O188 2.411 . S
Cd186 O189 2.333 . S
Cd186 O190 2.352 1_554 S
Cd186 O194 2.277 . S
Cd186 O195 2.356 1_554 S
C187 O192 1.209 . S
C187 O194 1.226 . S
O188 Cd184 2.273 . S
O188 Cd186 2.411 . S
O188 C191 1.320 . S
O189 Cd186 2.333 . S
O189 C191 1.214 . S
O190 Cd186 2.352 1_556 S
O190 C193 1.258 . S
C191 O188 1.320 . S
C191 O189 1.214 . S
O192 Cd184 2.277 . S
O192 C187 1.209 . S
C193 O190 1.258 . S
C193 O195 1.282 . S
O194 Cd186 2.277 . S
O194 C187 1.226 . S
O195 Cd186 2.356 1_556 S
O195 C193 1.282 . S
C196 O197 1.306 . S
C196 O199 1.160 . S
O197 C196 1.306 . S
O197 Cd198 2.228 . S
Cd198 O197 2.228 . S
Cd198 O202 2.273 . S
Cd198 O206 2.277 . S
O199 C196 1.160 . S
O199 Cd200 2.203 . S
Cd200 O199 2.203 . S
Cd200 O202 2.411 . S
Cd200 O203 2.333 . S
Cd200 O204 2.352 . S
Cd200 O208 2.277 . S
Cd200 O209 2.356 . S
C201 O206 1.209 . S
C201 O208 1.226 . S
O202 Cd198 2.273 . S
O202 Cd200 2.411 . S
O202 C205 1.320 . S
O203 Cd200 2.333 . S
O203 C205 1.214 . S
O204 Cd200 2.352 . S
O204 C207 1.258 . S
C205 O202 1.320 . S
C205 O203 1.214 . S
O206 Cd198 2.277 . S
O206 C201 1.209 . S
C207 O204 1.258 . S
C207 O209 1.282 . S
O208 Cd200 2.277 . S
O208 C201 1.226 . S
O209 Cd200 2.356 . S
O209 C207 1.282 . S
C210 O211 1.306 . S
C210 O213 1.160 . S
O211 C210 1.306 . S
O211 Cd212 2.228 . S
Cd212 O211 2.228 . S
Cd212 O216 2.273 . S
Cd212 O220 2.277 . S
O213 C210 1.160 . S
O213 Cd214 2.203 . S
Cd214 O213 2.203 . S
Cd214 O216 2.411 . S
Cd214 O217 2.333 . S
Cd214 O218 2.352 . S
Cd214 O222 2.277 . S
Cd214 O223 2.356 . S
C215 O220 1.209 . S
C215 O222 1.226 . S
O216 Cd212 2.273 . S
O216 Cd214 2.411 . S
O216 C219 1.320 . S
O217 Cd214 2.333 . S
O217 C219 1.214 . S
O218 Cd214 2.352 . S
O218 C221 1.258 . S
C219 O216 1.320 . S
C219 O217 1.214 . S
O220 Cd212 2.277 . S
O220 C215 1.209 . S
C221 O218 1.258 . S
C221 O223 1.282 . S
O222 Cd214 2.277 . S
O222 C215 1.226 . S
O223 Cd214 2.356 . S
O223 C221 1.282 . S
C224 O225 1.306 . S
C224 O227 1.160 . S
O225 C224 1.306 . S
O225 Cd226 2.228 . S
Cd226 O225 2.228 . S
Cd226 O230 2.273 . S
Cd226 O234 2.277 . S
O227 C224 1.160 . S
O227 Cd228 2.203 . S
Cd228 O227 2.203 . S
Cd228 O230 2.411 . S
Cd228 O231 2.333 . S
Cd228 O232 2.352 . S
Cd228 O236 2.277 . S
Cd228 O237 2.356 . S
C229 O234 1.209 . S
C229 O236 1.226 . S
O230 Cd226 2.273 . S
O230 Cd228 2.411 . S
O230 C233 1.320 . S
O231 Cd228 2.333 . S
O231 C233 1.214 . S
O232 Cd228 2.352 . S
O232 C235 1.258 . S
C233 O230 1.320 . S
C233 O231 1.214 . S
O234 Cd226 2.277 . S
O234 C229 1.209 . S
C235 O232 1.258 . S
C235 O237 1.282 . S
O236 Cd228 2.277 . S
O236 C229 1.226 . S
O237 Cd228 2.356 . S
O237 C235 1.282 . S
C238 O239 1.306 . S
C238 O241 1.160 . S
O239 C238 1.306 . S
O239 Cd240 2.228 . S
Cd240 O239 2.228 . S
Cd240 O244 2.273 . S
Cd240 O248 2.277 . S
O241 C238 1.160 . S
O241 Cd242 2.203 . S
Cd242 O241 2.203 . S
Cd242 O244 2.411 . S
Cd242 O245 2.333 . S
Cd242 O246 2.352 . S
Cd242 O250 2.277 . S
Cd242 O251 2.356 . S
C243 O248 1.209 . S
C243 O250 1.226 . S
O244 Cd240 2.273 . S
O244 Cd242 2.411 . S
O244 C247 1.320 . S
O245 Cd242 2.333 . S
O245 C247 1.214 . S
O246 Cd242 2.352 . S
O246 C249 1.258 . S
C247 O244 1.320 . S
C247 O245 1.214 . S
O248 Cd240 2.277 . S
O248 C243 1.209 . S
C249 O246 1.258 . S
C249 O251 1.282 . S
O250 Cd242 2.277 . S
O250 C243 1.226 . S
O251 Cd242 2.356 . S
O251 C249 1.282 . S
C252 O253 1.306 . S
C252 O255 1.160 . S
O253 C252 1.306 . S
O253 Cd254 2.228 . S
Cd254 O253 2.228 . S
Cd254 O258 2.273 . S
Cd254 O262 2.277 . S
O255 C252 1.160 . S
O255 Cd256 2.203 . S
Cd256 O255 2.203 . S
Cd256 O258 2.411 . S
Cd256 O259 2.333 . S
Cd256 O260 2.352 . S
Cd256 O264 2.277 . S
Cd256 O265 2.356 . S
C257 O262 1.209 . S
C257 O264 1.226 . S
O258 Cd254 2.273 . S
O258 Cd256 2.411 . S
O258 C261 1.320 . S
O259 Cd256 2.333 . S
O259 C261 1.214 . S
O260 Cd256 2.352 . S
O260 C263 1.258 . S
C261 O258 1.320 . S
C261 O259 1.214 . S
O262 Cd254 2.277 . S
O262 C257 1.209 . S
C263 O260 1.258 . S
C263 O265 1.282 . S
O264 Cd256 2.277 . S
O264 C257 1.226 . S
O265 Cd256 2.356 . S
O265 C263 1.282 . S
C266 O267 1.306 . S
C266 O269 1.160 . S
O267 C266 1.306 . S
O267 Cd268 2.228 . S
Cd268 O267 2.228 . S
Cd268 O272 2.273 . S
Cd268 O276 2.277 . S
O269 C266 1.160 . S
O269 Cd270 2.203 . S
Cd270 O269 2.203 . S
Cd270 O272 2.411 . S
Cd270 O273 2.333 . S
Cd270 O274 2.352 . S
Cd270 O278 2.277 . S
Cd270 O279 2.356 . S
C271 O276 1.209 . S
C271 O278 1.226 . S
O272 Cd268 2.273 . S
O272 Cd270 2.411 . S
O272 C275 1.320 . S
O273 Cd270 2.333 . S
O273 C275 1.214 . S
O274 Cd270 2.352 . S
O274 C277 1.258 . S
C275 O272 1.320 . S
C275 O273 1.214 . S
O276 Cd268 2.277 . S
O276 C271 1.209 . S
C277 O274 1.258 . S
C277 O279 1.282 . S
O278 Cd270 2.277 . S
O278 C271 1.226 . S
O279 Cd270 2.356 . S
O279 C277 1.282 . S
C280 O281 1.306 . S
C280 O283 1.160 . S
O281 C280 1.306 . S
O281 Cd282 2.228 . S
Cd282 O281 2.228 . S
Cd282 O286 2.273 . S
Cd282 O290 2.277 . S
O283 C280 1.160 . S
O283 Cd284 2.203 . S
Cd284 O283 2.203 . S
Cd284 O286 2.411 . S
Cd284 O287 2.332 1_554 S
Cd284 O288 2.352 1_554 S
Cd284 O292 2.277 . S
Cd284 O293 2.356 1_554 S
C285 O290 1.209 . S
C285 O292 1.226 . S
O286 Cd282 2.273 . S
O286 Cd284 2.411 . S
O286 C289 1.323 . S
O287 Cd284 2.332 1_556 S
O287 C289 1.209 1_556 S
O288 Cd284 2.352 1_556 S
O288 C291 1.258 . S
C289 O286 1.323 . S
C289 O287 1.209 1_554 S
O290 Cd282 2.277 . S
O290 C285 1.209 . S
C291 O288 1.258 . S
C291 O293 1.282 . S
O292 Cd284 2.277 . S
O292 C285 1.226 . S
O293 Cd284 2.356 1_556 S
O293 C291 1.282 . S
C294 O295 1.306 . S
C294 O297 1.160 . S
O295 C294 1.306 . S
O295 Cd296 2.228 . S
Cd296 O295 2.228 . S
Cd296 O300 2.273 . S
Cd296 O304 2.277 . S
O297 C294 1.160 . S
O297 Cd298 2.203 . S
Cd298 O297 2.203 . S
Cd298 O300 2.411 . S
Cd298 O301 2.333 . S
Cd298 O302 2.352 . S
Cd298 O306 2.277 . S
Cd298 O307 2.356 . S
C299 O304 1.209 . S
C299 O306 1.226 . S
O300 Cd296 2.273 . S
O300 Cd298 2.411 . S
O300 C303 1.320 . S
O301 Cd298 2.333 . S
O301 C303 1.214 . S
O302 Cd298 2.352 . S
O302 C305 1.258 . S
C303 O300 1.320 . S
C303 O301 1.214 . S
O304 Cd296 2.277 . S
O304 C299 1.209 . S
C305 O302 1.258 . S
C305 O307 1.282 . S
O306 Cd298 2.277 . S
O306 C299 1.226 . S
O307 Cd298 2.356 . S
O307 C305 1.282 . S
C308 O309 1.306 . S
C308 O311 1.160 . S
O309 C308 1.306 . S
O309 Cd310 2.228 . S
Cd310 O309 2.228 . S
Cd310 O314 2.273 . S
Cd310 O318 2.277 . S
O311 C308 1.160 . S
O311 Cd312 2.203 . S
Cd312 O311 2.203 . S
Cd312 O314 2.411 . S
Cd312 O315 2.333 . S
Cd312 O316 2.352 . S
Cd312 O320 2.277 . S
Cd312 O321 2.356 . S
C313 O318 1.209 . S
C313 O320 1.226 . S
O314 Cd310 2.273 . S
O314 Cd312 2.411 . S
O314 C317 1.320 . S
O315 Cd312 2.333 . S
O315 C317 1.214 . S
O316 Cd312 2.352 . S
O316 C319 1.258 . S
C317 O314 1.320 . S
C317 O315 1.214 . S
O318 Cd310 2.277 . S
O318 C313 1.209 . S
C319 O316 1.258 . S
C319 O321 1.282 . S
O320 Cd312 2.277 . S
O320 C313 1.226 . S
O321 Cd312 2.356 . S
O321 C319 1.282 . S
C322 O323 1.306 . S
C322 O325 1.160 . S
O323 C322 1.306 . S
O323 Cd324 2.228 . S
Cd324 O323 2.228 . S
Cd324 O328 2.273 . S
Cd324 O332 2.277 . S
O325 C322 1.160 . S
O325 Cd326 2.203 . S
Cd326 O325 2.203 . S
Cd326 O328 2.411 . S
Cd326 O329 2.333 . S
Cd326 O330 2.352 . S
Cd326 O334 2.277 . S
Cd326 O335 2.356 . S
C327 O332 1.209 . S
C327 O334 1.226 . S
O328 Cd324 2.273 . S
O328 Cd326 2.411 . S
O328 C331 1.320 . S
O329 Cd326 2.333 . S
O329 C331 1.214 . S
O330 Cd326 2.352 . S
O330 C333 1.258 . S
C331 O328 1.320 . S
C331 O329 1.214 . S
O332 Cd324 2.277 . S
O332 C327 1.209 . S
C333 O330 1.258 . S
C333 O335 1.282 . S
O334 Cd326 2.277 . S
O334 C327 1.226 . S
O335 Cd326 2.356 . S
O335 C333 1.282 . S
La336 C338 2.929 1_454 S
La336 O356 2.522 1_454 S
La336 O357 2.627 1_455 S
La336 O358 2.556 1_554 S
La336 O359 2.757 1_554 S
La336 O360 2.471 1_554 S
La336 O365 2.480 . S
La336 O367 2.502 1_545 S
La337 C347 2.928 . S
La337 O359 2.482 1_554 S
La337 O361 2.503 . S
La337 O362 2.521 . S
La337 O363 2.628 . S
La337 O364 2.554 . S
La337 O365 2.757 . S
La337 O366 2.470 . S
C338 La336 2.929 1_656 S
C338 C339 1.503 . S
C338 O356 1.261 . S
C338 O357 1.243 1_556 S
C339 C338 1.503 . S
C339 C340 1.394 . S
C339 C344 1.373 1_556 S
C340 C339 1.394 . S
C340 C341 1.380 . S
C340 H368 0.930 . S
C341 C340 1.380 . S
C341 C342 1.376 . S
C341 H369 0.930 . S
C342 C341 1.376 . S
C342 C343 1.370 . S
C343 C342 1.370 . S
C343 C344 1.396 1_556 S
C343 H370 0.929 1_556 S
C344 C339 1.373 1_554 S
C344 C343 1.396 1_554 S
C344 H371 0.929 . S
C345 O358 1.240 . S
C345 O359 1.289 . S
C346 O360 1.258 1_554 S
C346 O361 1.256 . S
C347 La337 2.928 . S
C347 C348 1.503 . S
C347 O362 1.261 . S
C347 O363 1.243 . S
C348 C347 1.503 . S
C348 C349 1.394 . S
C348 C353 1.373 . S
C349 C348 1.394 . S
C349 C350 1.380 . S
C349 H372 0.930 . S
C350 C349 1.380 . S
C350 C351 1.405 . S
C350 H373 0.930 . S
C351 C350 1.405 . S
C351 C352 1.369 1_545 S
C352 C351 1.369 1_565 S
C352 C353 1.396 1_565 S
C352 H374 0.929 . S
C353 C348 1.373 . S
C353 C352 1.396 1_545 S
C353 H375 0.929 1_545 S
C354 O364 1.240 . S
C354 O365 1.289 . S
C355 O366 1.258 1_565 S
C355 O367 1.256 . S
O356 La336 2.522 1_656 S
O356 C338 1.261 . S
O357 La336 2.627 1_655 S
O357 C338 1.243 1_554 S
O358 La336 2.556 1_556 S
O358 C345 1.240 . S
O359 La336 2.757 1_556 S
O359 La337 2.482 1_556 S
O359 C345 1.289 . S
O360 La336 2.471 1_556 S
O360 C346 1.258 1_556 S
O361 La337 2.503 . S
O361 C346 1.256 . S
O362 La337 2.521 . S
O362 C347 1.261 . S
O363 La337 2.628 . S
O363 C347 1.243 . S
O364 La337 2.554 . S
O364 C354 1.240 . S
O365 La336 2.480 . S
O365 La337 2.757 . S
O365 C354 1.289 . S
O366 La337 2.470 . S
O366 C355 1.258 1_545 S
O367 La336 2.502 1_565 S
O367 C355 1.256 . S
H368 C340 0.930 . S
H369 C341 0.930 . S
H370 C343 0.929 1_554 S
H371 C344 0.929 . S
H372 C349 0.930 . S
H373 C350 0.930 . S
H374 C352 0.929 . S
H375 C353 0.929 1_565 S
La376 C378 2.928 . S
La376 O396 2.521 . S
La376 O397 2.628 . S
La376 O398 2.554 . S
La376 O399 2.757 . S
La376 O400 2.470 . S
La376 O405 2.482 . S
La376 O407 2.503 . S
La377 C387 2.928 . S
La377 O399 2.482 . S
La377 O401 2.503 . S
La377 O402 2.521 . S
La377 O403 2.628 . S
La377 O404 2.554 . S
La377 O405 2.757 . S
La377 O406 2.470 . S
C378 La376 2.928 . S
C378 C379 1.503 . S
C378 O396 1.261 . S
C378 O397 1.243 . S
C379 C378 1.503 . S
C379 C380 1.394 . S
C379 C384 1.373 . S
C380 C379 1.394 . S
C380 C381 1.380 . S
C380 H408 0.930 . S
C381 C380 1.380 . S
C381 C382 1.376 . S
C381 H409 0.930 . S
C382 C381 1.376 . S
C382 C383 1.370 . S
C383 C382 1.370 . S
C383 C384 1.396 . S
C383 H410 0.929 . S
C384 C379 1.373 . S
C384 C383 1.396 . S
C384 H411 0.929 . S
C385 O398 1.240 . S
C385 O399 1.289 . S
C386 O400 1.258 . S
C386 O401 1.256 . S
C387 La377 2.928 . S
C387 C388 1.503 . S
C387 O402 1.261 . S
C387 O403 1.243 . S
C388 C387 1.503 . S
C388 C389 1.394 . S
C388 C393 1.373 . S
C389 C388 1.394 . S
C389 C390 1.380 . S
C389 H412 0.930 . S
C390 C389 1.380 . S
C390 C391 1.376 . S
C390 H413 0.930 . S
C391 C390 1.376 . S
C391 C392 1.370 . S
C392 C391 1.370 . S
C392 C393 1.396 . S
C392 H414 0.929 . S
C393 C388 1.373 . S
C393 C392 1.396 . S
C393 H415 0.929 . S
C394 O404 1.240 . S
C394 O405 1.289 . S
C395 O406 1.258 . S
C395 O407 1.256 . S
O396 La376 2.521 . S
O396 C378 1.261 . S
O397 La376 2.628 . S
O397 C378 1.243 . S
O398 La376 2.554 . S
O398 C385 1.240 . S
O399 La376 2.757 . S
O399 La377 2.482 . S
O399 C385 1.289 . S
O400 La376 2.470 . S
O400 C386 1.258 . S
O401 La377 2.503 . S
O401 C386 1.256 . S
O402 La377 2.521 . S
O402 C387 1.261 . S
O403 La377 2.628 . S
O403 C387 1.243 . S
O404 La377 2.554 . S
O404 C394 1.240 . S
O405 La376 2.482 . S
O405 La377 2.757 . S
O405 C394 1.289 . S
O406 La377 2.470 . S
O406 C395 1.258 . S
O407 La376 2.503 . S
O407 C395 1.256 . S
H408 C380 0.930 . S
H409 C381 0.930 . S
H410 C383 0.929 . S
H411 C384 0.929 . S
H412 C389 0.930 . S
H413 C390 0.930 . S
H414 C392 0.929 . S
H415 C393 0.929 . S
La416 C418 2.928 . S
La416 O436 2.521 . S
La416 O437 2.628 . S
La416 O438 2.554 . S
La416 O439 2.757 . S
La416 O440 2.470 1_545 S
La416 O445 2.482 . S
La416 O447 2.503 . S
La417 C427 2.928 . S
La417 O439 2.482 . S
La417 O441 2.503 1_545 S
La417 O442 2.521 . S
La417 O443 2.628 . S
La417 O444 2.554 . S
La417 O445 2.757 . S
La417 O446 2.470 . S
C418 La416 2.928 . S
C418 C419 1.503 1_545 S
C418 O436 1.261 . S
C418 O437 1.243 . S
C419 C418 1.503 1_565 S
C419 C420 1.394 . S
C419 C424 1.373 . S
C420 C419 1.394 . S
C420 C421 1.380 . S
C420 H448 0.930 1_565 S
C421 C420 1.380 . S
C421 C422 1.376 . S
C421 H449 0.930 . S
C422 C421 1.376 . S
C422 C423 1.370 . S
C423 C422 1.370 . S
C423 C424 1.396 . S
C423 H450 0.929 . S
C424 C419 1.373 . S
C424 C423 1.396 . S
C424 H451 0.929 . S
C425 O438 1.240 . S
C425 O439 1.289 . S
C426 O440 1.258 . S
C426 O441 1.256 . S
C427 La417 2.928 . S
C427 C428 1.503 . S
C427 O442 1.261 . S
C427 O443 1.243 . S
C428 C427 1.503 . S
C428 C429 1.394 . S
C428 C433 1.373 . S
C429 C428 1.394 . S
C429 C430 1.380 . S
C429 H452 0.930 . S
C430 C429 1.380 . S
C430 C431 1.376 . S
C430 H453 0.930 . S
C431 C430 1.376 . S
C431 C432 1.370 . S
C432 C431 1.370 . S
C432 C433 1.396 . S
C432 H454 0.929 . S
C433 C428 1.373 . S
C433 C432 1.396 . S
C433 H455 0.929 . S
C434 O444 1.240 . S
C434 O445 1.289 . S
C435 O446 1.258 . S
C435 O447 1.256 . S
O436 La416 2.521 . S
O436 C418 1.261 . S
O437 La416 2.628 . S
O437 C418 1.243 . S
O438 La416 2.554 . S
O438 C425 1.240 . S
O439 La416 2.757 . S
O439 La417 2.482 . S
O439 C425 1.289 . S
O440 La416 2.470 1_565 S
O440 C426 1.258 . S
O441 La417 2.503 1_565 S
O441 C426 1.256 . S
O442 La417 2.521 . S
O442 C427 1.261 . S
O443 La417 2.628 . S
O443 C427 1.243 . S
O444 La417 2.554 . S
O444 C434 1.240 . S
O445 La416 2.482 . S
O445 La417 2.757 . S
O445 C434 1.289 . S
O446 La417 2.470 . S
O446 C435 1.258 . S
O447 La416 2.503 . S
O447 C435 1.256 . S
H448 C420 0.930 1_545 S
H449 C421 0.930 . S
H450 C423 0.929 . S
H451 C424 0.929 . S
H452 C429 0.930 . S
H453 C430 0.930 . S
H454 C432 0.929 . S
H455 C433 0.929 . S
La456 C458 2.928 . S
La456 O476 2.521 . S
La456 O477 2.628 . S
La456 O478 2.554 . S
La456 O479 2.757 . S
La456 O480 2.470 . S
La456 O485 2.482 . S
La456 O487 2.503 . S
La457 C467 2.928 . S
La457 O479 2.482 . S
La457 O481 2.503 . S
La457 O482 2.521 . S
La457 O483 2.628 . S
La457 O484 2.554 . S
La457 O485 2.757 . S
La457 O486 2.470 . S
C458 La456 2.928 . S
C458 C459 1.503 . S
C458 O476 1.261 . S
C458 O477 1.243 . S
C459 C458 1.503 . S
C459 C460 1.394 . S
C459 C464 1.373 . S
C460 C459 1.394 . S
C460 C461 1.380 . S
C460 H488 0.930 . S
C461 C460 1.380 . S
C461 C462 1.376 . S
C461 H489 0.930 . S
C462 C461 1.376 . S
C462 C463 1.370 . S
C463 C462 1.370 . S
C463 C464 1.396 . S
C463 H490 0.929 . S
C464 C459 1.373 . S
C464 C463 1.396 . S
C464 H491 0.929 . S
C465 O478 1.240 . S
C465 O479 1.289 . S
C466 O480 1.258 . S
C466 O481 1.256 . S
C467 La457 2.928 . S
C467 C468 1.503 . S
C467 O482 1.261 . S
C467 O483 1.243 . S
C468 C467 1.503 . S
C468 C469 1.394 . S
C468 C473 1.373 . S
C469 C468 1.394 . S
C469 C470 1.380 . S
C469 H492 0.930 . S
C470 C469 1.380 . S
C470 C471 1.376 . S
C470 H493 0.930 . S
C471 C470 1.376 . S
C471 C472 1.370 . S
C472 C471 1.370 . S
C472 C473 1.396 . S
C472 H494 0.929 . S
C473 C468 1.373 . S
C473 C472 1.396 . S
C473 H495 0.929 . S
C474 O484 1.240 . S
C474 O485 1.289 . S
C475 O486 1.258 . S
C475 O487 1.256 . S
O476 La456 2.521 . S
O476 C458 1.261 . S
O477 La456 2.628 . S
O477 C458 1.243 . S
O478 La456 2.554 . S
O478 C465 1.240 . S
O479 La456 2.757 . S
O479 La457 2.482 . S
O479 C465 1.289 . S
O480 La456 2.470 . S
O480 C466 1.258 . S
O481 La457 2.503 . S
O481 C466 1.256 . S
O482 La457 2.521 . S
O482 C467 1.261 . S
O483 La457 2.628 . S
O483 C467 1.243 . S
O484 La457 2.554 . S
O484 C474 1.240 . S
O485 La456 2.482 . S
O485 La457 2.757 . S
O485 C474 1.289 . S
O486 La457 2.470 . S
O486 C475 1.258 . S
O487 La456 2.503 . S
O487 C475 1.256 . S
H488 C460 0.930 . S
H489 C461 0.930 . S
H490 C463 0.929 . S
H491 C464 0.929 . S
H492 C469 0.930 . S
H493 C470 0.930 . S
H494 C472 0.929 . S
H495 C473 0.929 . S
La496 C498 2.928 . S
La496 O516 2.521 . S
La496 O517 2.628 . S
La496 O518 2.554 . S
La496 O519 2.757 . S
La496 O520 2.470 . S
La496 O525 2.482 . S
La496 O527 2.503 . S
La497 C507 2.928 1_545 S
La497 O519 2.482 . S
La497 O521 2.503 . S
La497 O522 2.521 1_545 S
La497 O523 2.628 1_545 S
La497 O524 2.554 . S
La497 O525 2.757 . S
La497 O526 2.470 . S
C498 La496 2.928 . S
C498 C499 1.503 . S
C498 O516 1.261 . S
C498 O517 1.243 . S
C499 C498 1.503 . S
C499 C500 1.394 . S
C499 C504 1.373 . S
C500 C499 1.394 . S
C500 C501 1.380 . S
C500 H528 0.930 . S
C501 C500 1.380 . S
C501 C502 1.376 . S
C501 H529 0.930 . S
C502 C501 1.376 . S
C502 C503 1.370 . S
C503 C502 1.370 . S
C503 C504 1.396 . S
C503 H530 0.929 . S
C504 C499 1.373 . S
C504 C503 1.396 . S
C504 H531 0.929 . S
C505 O518 1.240 . S
C505 O519 1.289 . S
C506 O520 1.258 . S
C506 O521 1.256 . S
C507 La497 2.928 1_565 S
C507 C508 1.503 . S
C507 O522 1.261 . S
C507 O523 1.243 . S
C508 C507 1.503 . S
C508 C509 1.394 . S
C508 C513 1.373 . S
C509 C508 1.394 . S
C509 C510 1.380 . S
C509 H532 0.930 . S
C510 C509 1.380 . S
C510 C511 1.376 . S
C510 H533 0.930 . S
C511 C510 1.376 . S
C511 C512 1.370 . S
C512 C511 1.370 . S
C512 C513 1.396 . S
C512 H534 0.929 . S
C513 C508 1.373 . S
C513 C512 1.396 . S
C513 H535 0.929 . S
C514 O524 1.240 . S
C514 O525 1.289 . S
C515 O526 1.258 . S
C515 O527 1.256 . S
O516 La496 2.521 . S
O516 C498 1.261 . S
O517 La496 2.628 . S
O517 C498 1.243 . S
O518 La496 2.554 . S
O518 C505 1.240 . S
O519 La496 2.757 . S
O519 La497 2.482 . S
O519 C505 1.289 . S
O520 La496 2.470 . S
O520 C506 1.258 . S
O521 La497 2.503 . S
O521 C506 1.256 . S
O522 La497 2.521 1_565 S
O522 C507 1.261 . S
O523 La497 2.628 1_565 S
O523 C507 1.243 . S
O524 La497 2.554 . S
O524 C514 1.240 . S
O525 La496 2.482 . S
O525 La497 2.757 . S
O525 C514 1.289 . S
O526 La497 2.470 . S
O526 C515 1.258 . S
O527 La496 2.503 . S
O527 C515 1.256 . S
H528 C500 0.930 . S
H529 C501 0.930 . S
H530 C503 0.929 . S
H531 C504 0.929 . S
H532 C509 0.930 . S
H533 C510 0.930 . S
H534 C512 0.929 . S
H535 C513 0.929 . S
La536 C538 2.928 . S
La536 O556 2.521 . S
La536 O557 2.628 . S
La536 O558 2.554 . S
La536 O559 2.757 . S
La536 O560 2.470 . S
La536 O565 2.482 . S
La536 O567 2.503 . S
La537 C547 2.928 . S
La537 O559 2.482 . S
La537 O561 2.503 . S
La537 O562 2.521 . S
La537 O563 2.628 . S
La537 O564 2.554 . S
La537 O565 2.757 . S
La537 O566 2.470 . S
C538 La536 2.928 . S
C538 C539 1.503 . S
C538 O556 1.261 . S
C538 O557 1.243 . S
C539 C538 1.503 . S
C539 C540 1.394 . S
C539 C544 1.373 . S
C540 C539 1.394 . S
C540 C541 1.380 . S
C540 H568 0.930 . S
C541 C540 1.380 . S
C541 C542 1.376 . S
C541 H569 0.930 . S
C542 C541 1.376 . S
C542 C543 1.370 . S
C543 C542 1.370 . S
C543 C544 1.396 . S
C543 H570 0.929 . S
C544 C539 1.373 . S
C544 C543 1.396 . S
C544 H571 0.929 . S
C545 O558 1.240 . S
C545 O559 1.289 . S
C546 O560 1.258 . S
C546 O561 1.256 . S
C547 La537 2.928 . S
C547 C548 1.503 . S
C547 O562 1.261 . S
C547 O563 1.243 . S
C548 C547 1.503 . S
C548 C549 1.394 . S
C548 C553 1.373 . S
C549 C548 1.394 . S
C549 C550 1.380 . S
C549 H572 0.930 . S
C550 C549 1.380 . S
C550 C551 1.376 . S
C550 H573 0.930 . S
C551 C550 1.376 . S
C551 C552 1.370 . S
C552 C551 1.370 . S
C552 C553 1.396 . S
C552 H574 0.929 . S
C553 C548 1.373 . S
C553 C552 1.396 . S
C553 H575 0.929 . S
C554 O564 1.240 . S
C554 O565 1.289 . S
C555 O566 1.258 . S
C555 O567 1.256 . S
O556 La536 2.521 . S
O556 C538 1.261 . S
O557 La536 2.628 . S
O557 C538 1.243 . S
O558 La536 2.554 . S
O558 C545 1.240 . S
O559 La536 2.757 . S
O559 La537 2.482 . S
O559 C545 1.289 . S
O560 La536 2.470 . S
O560 C546 1.258 . S
O561 La537 2.503 . S
O561 C546 1.256 . S
O562 La537 2.521 . S
O562 C547 1.261 . S
O563 La537 2.628 . S
O563 C547 1.243 . S
O564 La537 2.554 . S
O564 C554 1.240 . S
O565 La536 2.482 . S
O565 La537 2.757 . S
O565 C554 1.289 . S
O566 La537 2.470 . S
O566 C555 1.258 . S
O567 La536 2.503 . S
O567 C555 1.256 . S
H568 C540 0.930 . S
H569 C541 0.930 . S
H570 C543 0.929 . S
H571 C544 0.929 . S
H572 C549 0.930 . S
H573 C550 0.930 . S
H574 C552 0.929 . S
H575 C553 0.929 . S
La576 C578 2.928 . S
La576 O596 2.521 . S
La576 O597 2.628 . S
La576 O598 2.554 1_545 S
La576 O599 2.757 1_554 S
La576 O600 2.470 . S
La576 O605 2.482 . S
La576 O607 2.503 . S
La577 C587 2.928 . S
La577 O599 2.482 . S
La577 O601 2.503 . S
La577 O602 2.521 . S
La577 O603 2.628 . S
La577 O604 2.554 1_556 S
La577 O605 2.757 1_556 S
La577 O606 2.491 . S
C578 La576 2.928 . S
C578 C579 1.503 . S
C578 O596 1.261 . S
C578 O597 1.243 . S
C579 C578 1.503 . S
C579 C580 1.394 1_545 S
C579 C584 1.373 . S
C580 C579 1.394 1_565 S
C580 C581 1.380 . S
C580 H608 0.930 . S
C581 C580 1.380 . S
C581 C582 1.376 . S
C581 H609 0.930 . S
C582 C581 1.376 . S
C582 C583 1.370 1_565 S
C583 C582 1.370 1_545 S
C583 C584 1.396 . S
C583 H610 0.929 . S
C584 C579 1.373 . S
C584 C583 1.396 . S
C584 H611 0.929 . S
C585 O598 1.237 . S
C585 O599 1.291 1_564 S
C586 O600 1.258 . S
C586 O601 1.256 1_554 S
C587 La577 2.928 . S
C587 C588 1.503 . S
C587 O602 1.261 . S
C587 O603 1.243 . S
C588 C587 1.503 . S
C588 C589 1.394 . S
C588 C593 1.373 . S
C589 C588 1.394 . S
C589 C590 1.380 . S
C589 H612 0.930 . S
C590 C589 1.380 . S
C590 C591 1.376 . S
C590 H613 0.930 . S
C591 C590 1.376 . S
C591 C592 1.370 . S
C592 C591 1.370 . S
C592 C593 1.396 . S
C592 H614 0.929 . S
C593 C588 1.373 . S
C593 C592 1.396 . S
C593 H615 0.929 . S
C594 O604 1.240 . S
C594 O605 1.289 . S
C595 O606 1.220 1_554 S
C595 O607 1.256 . S
O596 La576 2.521 . S
O596 C578 1.261 . S
O597 La576 2.628 . S
O597 C578 1.243 . S
O598 La576 2.554 1_565 S
O598 C585 1.237 . S
O599 La576 2.757 1_556 S
O599 La577 2.482 . S
O599 C585 1.291 1_546 S
O600 La576 2.470 . S
O600 C586 1.258 . S
O601 La577 2.503 . S
O601 C586 1.256 1_556 S
O602 La577 2.521 . S
O602 C587 1.261 . S
O603 La577 2.628 . S
O603 C587 1.243 . S
O604 La577 2.554 1_554 S
O604 C594 1.240 . S
O605 La576 2.482 . S
O605 La577 2.757 1_554 S
O605 C594 1.289 . S
O606 La577 2.491 . S
O606 C595 1.220 1_556 S
O607 La576 2.503 . S
O607 C595 1.256 . S
H608 C580 0.930 . S
H609 C581 0.930 . S
H610 C583 0.929 . S
H611 C584 0.929 . S
H612 C589 0.930 . S
H613 C590 0.930 . S
H614 C592 0.929 . S
H615 C593 0.929 . S
La616 C618 2.928 . S
La616 O636 2.521 . S
La616 O637 2.628 . S
La616 O638 2.554 . S
La616 O639 2.757 . S
La616 O640 2.470 . S
La616 O645 2.482 . S
La616 O647 2.503 . S
La617 C627 2.928 . S
La617 O639 2.482 . S
La617 O641 2.503 . S
La617 O642 2.521 . S
La617 O643 2.628 . S
La617 O644 2.554 . S
La617 O645 2.757 . S
La617 O646 2.470 . S
C618 La616 2.928 . S
C618 C619 1.503 . S
C618 O636 1.261 . S
C618 O637 1.243 . S
C619 C618 1.503 . S
C619 C620 1.394 . S
C619 C624 1.373 . S
C620 C619 1.394 . S
C620 C621 1.380 . S
C620 H648 0.930 . S
C621 C620 1.380 . S
C621 C622 1.376 . S
C621 H649 0.930 . S
C622 C621 1.376 . S
C622 C623 1.370 . S
C623 C622 1.370 . S
C623 C624 1.396 . S
C623 H650 0.929 . S
C624 C619 1.373 . S
C624 C623 1.396 . S
C624 H651 0.929 . S
C625 O638 1.240 . S
C625 O639 1.289 . S
C626 O640 1.258 . S
C626 O641 1.256 . S
C627 La617 2.928 . S
C627 C628 1.503 . S
C627 O642 1.261 . S
C627 O643 1.243 . S
C628 C627 1.503 . S
C628 C629 1.394 . S
C628 C633 1.373 . S
C629 C628 1.394 . S
C629 C630 1.380 . S
C629 H652 0.930 . S
C630 C629 1.380 . S
C630 C631 1.376 . S
C630 H653 0.930 . S
C631 C630 1.376 . S
C631 C632 1.370 . S
C632 C631 1.370 . S
C632 C633 1.396 . S
C632 H654 0.929 . S
C633 C628 1.373 . S
C633 C632 1.396 . S
C633 H655 0.929 . S
C634 O644 1.240 . S
C634 O645 1.289 . S
C635 O646 1.258 . S
C635 O647 1.256 . S
O636 La616 2.521 . S
O636 C618 1.261 . S
O637 La616 2.628 . S
O637 C618 1.243 . S
O638 La616 2.554 . S
O638 C625 1.240 . S
O639 La616 2.757 . S
O639 La617 2.482 . S
O639 C625 1.289 . S
O640 La616 2.470 . S
O640 C626 1.258 . S
O641 La617 2.503 . S
O641 C626 1.256 . S
O642 La617 2.521 . S
O642 C627 1.261 . S
O643 La617 2.628 . S
O643 C627 1.243 . S
O644 La617 2.554 . S
O644 C634 1.240 . S
O645 La616 2.482 . S
O645 La617 2.757 . S
O645 C634 1.289 . S
O646 La617 2.470 . S
O646 C635 1.258 . S
O647 La616 2.503 . S
O647 C635 1.256 . S
H648 C620 0.930 . S
H649 C621 0.930 . S
H650 C623 0.929 . S
H651 C624 0.929 . S
H652 C629 0.930 . S
H653 C630 0.930 . S
H654 C632 0.929 . S
H655 C633 0.929 . S
La656 C658 2.928 1_554 S
La656 O676 2.521 . S
La656 O677 2.628 1_554 S
La656 O678 2.554 . S
La656 O679 2.757 . S
La656 O680 2.470 1_554 S
La656 O685 2.482 . S
La656 O687 2.503 . S
La657 C667 2.951 . S
La657 O679 2.497 . S
La657 O681 2.471 1_554 S
La657 O682 2.534 . S
La657 O683 2.656 . S
La657 O684 2.553 . S
La657 O685 2.753 . S
La657 O686 2.503 . S
C658 La656 2.928 1_556 S
C658 C659 1.503 . S
C658 O676 1.261 1_556 S
C658 O677 1.243 . S
C659 C658 1.503 . S
C659 C660 1.394 . S
C659 C664 1.373 . S
C660 C659 1.394 . S
C660 C661 1.380 . S
C660 H688 0.908 1_556 S
C661 C660 1.380 . S
C661 C662 1.376 . S
C661 H689 0.930 . S
C662 C661 1.376 . S
C662 C663 1.370 . S
C663 C662 1.370 . S
C663 C664 1.396 . S
C663 H690 0.929 . S
C664 C659 1.373 . S
C664 C663 1.396 . S
C664 H691 0.929 . S
C665 O678 1.240 . S
C665 O679 1.289 . S
C666 O680 1.258 . S
C666 O681 1.256 . S
C667 La657 2.951 . S
C667 C668 1.503 . S
C667 O682 1.261 . S
C667 O683 1.243 . S
C668 C667 1.503 . S
C668 C669 1.394 . S
C668 C673 1.373 . S
C669 C668 1.394 . S
C669 C670 1.380 . S
C669 H692 0.930 . S
C670 C669 1.380 . S
C670 C671 1.376 . S
C670 H693 0.930 . S
C671 C670 1.376 . S
C671 C672 1.370 . S
C672 C671 1.370 . S
C672 C673 1.396 . S
C672 H694 0.929 . S
C673 C668 1.373 . S
C673 C672 1.396 . S
C673 H695 0.929 . S
C674 O684 1.240 . S
C674 O685 1.289 . S
C675 O686 1.258 . S
C675 O687 1.256 . S
O676 La656 2.521 . S
O676 C658 1.261 1_554 S
O677 La656 2.628 1_556 S
O677 C658 1.243 . S
O678 La656 2.554 . S
O678 C665 1.240 . S
O679 La656 2.757 . S
O679 La657 2.497 . S
O679 C665 1.289 . S
O680 La656 2.470 1_556 S
O680 C666 1.258 . S
O681 La657 2.471 1_556 S
O681 C666 1.256 . S
O682 La657 2.534 . S
O682 C667 1.261 . S
O683 La657 2.656 . S
O683 C667 1.243 . S
O684 La657 2.553 . S
O684 C674 1.240 . S
O685 La656 2.482 . S
O685 La657 2.753 . S
O685 C674 1.289 . S
O686 La657 2.503 . S
O686 C675 1.258 . S
O687 La656 2.503 . S
O687 C675 1.256 . S
H688 C660 0.908 1_554 S
H689 C661 0.930 . S
H690 C663 0.929 . S
H691 C664 0.929 . S
H692 C669 0.930 . S
H693 C670 0.930 . S
H694 C672 0.929 . S
H695 C673 0.929 . S
La696 C698 2.928 . S
La696 O716 2.521 . S
La696 O717 2.628 . S
La696 O718 2.554 . S
La696 O719 2.757 . S
La696 O720 2.470 . S
La696 O725 2.482 . S
La696 O727 2.503 . S
La697 C707 2.928 . S
La697 O719 2.482 . S
La697 O721 2.503 . S
La697 O722 2.521 . S
La697 O723 2.628 . S
La697 O724 2.554 . S
La697 O725 2.757 . S
La697 O726 2.470 . S
C698 La696 2.928 . S
C698 C699 1.503 . S
C698 O716 1.261 . S
C698 O717 1.243 . S
C699 C698 1.503 . S
C699 C700 1.394 . S
C699 C704 1.373 . S
C700 C699 1.394 . S
C700 C701 1.380 . S
C700 H728 0.930 . S
C701 C700 1.380 . S
C701 C702 1.376 . S
C701 H729 0.930 . S
C702 C701 1.376 . S
C702 C703 1.370 . S
C703 C702 1.370 . S
C703 C704 1.396 . S
C703 H730 0.929 . S
C704 C699 1.373 . S
C704 C703 1.396 . S
C704 H731 0.929 . S
C705 O718 1.240 . S
C705 O719 1.289 . S
C706 O720 1.258 . S
C706 O721 1.256 . S
C707 La697 2.928 . S
C707 C708 1.503 . S
C707 O722 1.261 . S
C707 O723 1.243 . S
C708 C707 1.503 . S
C708 C709 1.394 . S
C708 C713 1.373 . S
C709 C708 1.394 . S
C709 C710 1.380 . S
C709 H732 0.930 . S
C710 C709 1.380 . S
C710 C711 1.376 . S
C710 H733 0.930 . S
C711 C710 1.376 . S
C711 C712 1.370 . S
C712 C711 1.370 . S
C712 C713 1.396 . S
C712 H734 0.929 . S
C713 C708 1.373 . S
C713 C712 1.396 . S
C713 H735 0.929 . S
C714 O724 1.240 . S
C714 O725 1.289 . S
C715 O726 1.258 . S
C715 O727 1.256 . S
O716 La696 2.521 . S
O716 C698 1.261 . S
O717 La696 2.628 . S
O717 C698 1.243 . S
O718 La696 2.554 . S
O718 C705 1.240 . S
O719 La696 2.757 . S
O719 La697 2.482 . S
O719 C705 1.289 . S
O720 La696 2.470 . S
O720 C706 1.258 . S
O721 La697 2.503 . S
O721 C706 1.256 . S
O722 La697 2.521 . S
O722 C707 1.261 . S
O723 La697 2.628 . S
O723 C707 1.243 . S
O724 La697 2.554 . S
O724 C714 1.240 . S
O725 La696 2.482 . S
O725 La697 2.757 . S
O725 C714 1.289 . S
O726 La697 2.470 . S
O726 C715 1.258 . S
O727 La696 2.503 . S
O727 C715 1.256 . S
H728 C700 0.930 . S
H729 C701 0.930 . S
H730 C703 0.929 . S
H731 C704 0.929 . S
H732 C709 0.930 . S
H733 C710 0.930 . S
H734 C712 0.929 . S
H735 C713 0.929 . S
La736 C738 2.928 . S
La736 O756 2.521 . S
La736 O757 2.628 . S
La736 O758 2.554 . S
La736 O759 2.757 . S
La736 O760 2.470 . S
La736 O765 2.482 . S
La736 O767 2.503 . S
La737 C747 2.928 . S
La737 O759 2.482 . S
La737 O761 2.503 . S
La737 O762 2.521 . S
La737 O763 2.628 . S
La737 O764 2.554 . S
La737 O765 2.757 . S
La737 O766 2.470 . S
C738 La736 2.928 . S
C738 C739 1.503 . S
C738 O756 1.261 . S
C738 O757 1.243 . S
C739 C738 1.503 . S
C739 C740 1.394 . S
C739 C744 1.373 1_455 S
C740 C739 1.394 . S
C740 C741 1.380 . S
C740 H768 0.930 . S
C741 C740 1.380 . S
C741 C742 1.376 1_455 S
C741 H769 0.930 . S
C742 C741 1.376 1_655 S
C742 C743 1.370 . S
C743 C742 1.370 . S
C743 C744 1.396 . S
C743 H770 0.929 . S
C744 C739 1.373 1_655 S
C744 C743 1.396 . S
C744 H771 0.929 . S
C745 O758 1.240 . S
C745 O759 1.289 . S
C746 O760 1.261 . S
C746 O761 1.257 . S
C747 La737 2.928 . S
C747 C748 1.503 . S
C747 O762 1.261 . S
C747 O763 1.243 . S
C748 C747 1.503 . S
C748 C749 1.394 . S
C748 C753 1.373 . S
C749 C748 1.394 . S
C749 C750 1.380 . S
C749 H772 0.930 . S
C750 C749 1.380 . S
C750 C751 1.376 . S
C750 H773 0.930 . S
C751 C750 1.376 . S
C751 C752 1.370 . S
C752 C751 1.370 . S
C752 C753 1.396 . S
C752 H774 0.929 . S
C753 C748 1.373 . S
C753 C752 1.396 . S
C753 H775 0.929 . S
C754 O764 1.240 . S
C754 O765 1.289 . S
C755 O766 1.258 . S
C755 O767 1.256 . S
O756 La736 2.521 . S
O756 C738 1.261 . S
O757 La736 2.628 . S
O757 C738 1.243 . S
O758 La736 2.554 . S
O758 C745 1.240 . S
O759 La736 2.757 . S
O759 La737 2.482 . S
O759 C745 1.289 . S
O760 La736 2.470 . S
O760 C746 1.261 . S
O761 La737 2.503 . S
O761 C746 1.257 . S
O762 La737 2.521 . S
O762 C747 1.261 . S
O763 La737 2.628 . S
O763 C747 1.243 . S
O764 La737 2.554 . S
O764 C754 1.240 . S
O765 La736 2.482 . S
O765 La737 2.757 . S
O765 C754 1.289 . S
O766 La737 2.470 . S
O766 C755 1.258 . S
O767 La736 2.503 . S
O767 C755 1.256 . S
H768 C740 0.930 . S
H769 C741 0.930 . S
H770 C743 0.929 . S
H771 C744 0.929 . S
H772 C749 0.930 . S
H773 C750 0.930 . S
H774 C752 0.929 . S
H775 C753 0.929 . S
La776 C778 2.928 . S
La776 O796 2.521 . S
La776 O797 2.628 . S
La776 O798 2.554 . S
La776 O799 2.757 . S
La776 O800 2.470 . S
La776 O805 2.482 . S
La776 O807 2.503 . S
La777 C787 2.928 . S
La777 O799 2.482 . S
La777 O801 2.503 . S
La777 O802 2.521 . S
La777 O803 2.628 . S
La777 O804 2.554 . S
La777 O805 2.757 . S
La777 O806 2.470 . S
C778 La776 2.928 . S
C778 C779 1.503 . S
C778 O796 1.261 . S
C778 O797 1.243 . S
C779 C778 1.503 . S
C779 C780 1.394 . S
C779 C784 1.373 . S
C780 C779 1.394 . S
C780 C781 1.380 . S
C780 H808 0.930 . S
C781 C780 1.380 . S
C781 C782 1.376 . S
C781 H809 0.930 . S
C782 C781 1.376 . S
C782 C783 1.370 . S
C783 C782 1.370 . S
C783 C784 1.396 . S
C783 H810 0.929 . S
C784 C779 1.373 . S
C784 C783 1.396 . S
C784 H811 0.929 . S
C785 O798 1.240 . S
C785 O799 1.289 . S
C786 O800 1.258 . S
C786 O801 1.256 . S
C787 La777 2.928 . S
C787 C788 1.503 . S
C787 O802 1.261 . S
C787 O803 1.243 . S
C788 C787 1.503 . S
C788 C789 1.394 . S
C788 C793 1.373 . S
C789 C788 1.394 . S
C789 C790 1.380 . S
C789 H812 0.930 . S
C790 C789 1.380 . S
C790 C791 1.376 . S
C790 H813 0.930 . S
C791 C790 1.376 . S
C791 C792 1.370 . S
C792 C791 1.370 . S
C792 C793 1.396 . S
C792 H814 0.929 . S
C793 C788 1.373 . S
C793 C792 1.396 . S
C793 H815 0.929 . S
C794 O804 1.240 . S
C794 O805 1.289 . S
C795 O806 1.258 . S
C795 O807 1.256 . S
O796 La776 2.521 . S
O796 C778 1.261 . S
O797 La776 2.628 . S
O797 C778 1.243 . S
O798 La776 2.554 . S
O798 C785 1.240 . S
O799 La776 2.757 . S
O799 La777 2.482 . S
O799 C785 1.289 . S
O800 La776 2.470 . S
O800 C786 1.258 . S
O801 La777 2.503 . S
O801 C786 1.256 . S
O802 La777 2.521 . S
O802 C787 1.261 . S
O803 La777 2.628 . S
O803 C787 1.243 . S
O804 La777 2.554 . S
O804 C794 1.240 . S
O805 La776 2.482 . S
O805 La777 2.757 . S
O805 C794 1.289 . S
O806 La777 2.470 . S
O806 C795 1.258 . S
O807 La776 2.503 . S
O807 C795 1.256 . S
H808 C780 0.930 . S
H809 C781 0.930 . S
H810 C783 0.929 . S
H811 C784 0.929 . S
H812 C789 0.930 . S
H813 C790 0.930 . S
H814 C792 0.929 . S
H815 C793 0.929 . S
La816 C818 2.928 . S
La816 O836 2.521 . S
La816 O837 2.628 . S
La816 O838 2.554 . S
La816 O839 2.757 . S
La816 O840 2.470 . S
La816 O845 2.482 . S
La816 O847 2.503 . S
La817 C827 2.928 . S
La817 O839 2.482 . S
La817 O841 2.503 . S
La817 O842 2.521 . S
La817 O843 2.628 . S
La817 O844 2.554 . S
La817 O845 2.757 . S
La817 O846 2.470 . S
C818 La816 2.928 . S
C818 C819 1.503 . S
C818 O836 1.261 . S
C818 O837 1.243 . S
C819 C818 1.503 . S
C819 C820 1.394 . S
C819 C824 1.373 . S
C820 C819 1.394 . S
C820 C821 1.380 . S
C820 H848 0.930 . S
C821 C820 1.380 . S
C821 C822 1.376 . S
C821 H849 0.930 . S
C822 C821 1.376 . S
C822 C823 1.370 . S
C823 C822 1.370 . S
C823 C824 1.396 . S
C823 H850 0.929 . S
C824 C819 1.373 . S
C824 C823 1.396 . S
C824 H851 0.929 . S
C825 O838 1.240 . S
C825 O839 1.289 . S
C826 O840 1.258 . S
C826 O841 1.256 . S
C827 La817 2.928 . S
C827 C828 1.503 . S
C827 O842 1.261 . S
C827 O843 1.243 . S
C828 C827 1.503 . S
C828 C829 1.394 . S
C828 C833 1.373 . S
C829 C828 1.394 . S
C829 C830 1.380 . S
C829 H852 0.930 . S
C830 C829 1.380 . S
C830 C831 1.376 . S
C830 H853 0.930 . S
C831 C830 1.376 . S
C831 C832 1.370 . S
C832 C831 1.370 . S
C832 C833 1.396 . S
C832 H854 0.929 . S
C833 C828 1.373 . S
C833 C832 1.396 . S
C833 H855 0.929 . S
C834 O844 1.240 . S
C834 O845 1.289 . S
C835 O846 1.258 . S
C835 O847 1.256 . S
O836 La816 2.521 . S
O836 C818 1.261 . S
O837 La816 2.628 . S
O837 C818 1.243 . S
O838 La816 2.554 . S
O838 C825 1.240 . S
O839 La816 2.757 . S
O839 La817 2.482 . S
O839 C825 1.289 . S
O840 La816 2.470 . S
O840 C826 1.258 . S
O841 La817 2.503 . S
O841 C826 1.256 . S
O842 La817 2.521 . S
O842 C827 1.261 . S
O843 La817 2.628 . S
O843 C827 1.243 . S
O844 La817 2.554 . S
O844 C834 1.240 . S
O845 La816 2.482 . S
O845 La817 2.757 . S
O845 C834 1.289 . S
O846 La817 2.470 . S
O846 C835 1.258 . S
O847 La816 2.503 . S
O847 C835 1.256 . S
H848 C820 0.930 . S
H849 C821 0.930 . S
H850 C823 0.929 . S
H851 C824 0.929 . S
H852 C829 0.930 . S
H853 C830 0.930 . S
H854 C832 0.929 . S
H855 C833 0.929 . S
La856 C858 2.928 . S
La856 O876 2.521 . S
La856 O877 2.628 . S
La856 O878 2.554 . S
La856 O879 2.757 . S
La856 O880 2.470 . S
La856 O885 2.482 . S
La856 O887 2.503 . S
La857 C867 2.928 . S
La857 O879 2.482 . S
La857 O881 2.503 . S
La857 O882 2.521 . S
La857 O883 2.628 . S
La857 O884 2.554 . S
La857 O885 2.757 . S
La857 O886 2.470 . S
C858 La856 2.928 . S
C858 C859 1.503 . S
C858 O876 1.261 . S
C858 O877 1.243 . S
C859 C858 1.503 . S
C859 C860 1.394 . S
C859 C864 1.373 . S
C860 C859 1.394 . S
C860 C861 1.380 . S
C860 H888 0.930 . S
C861 C860 1.380 . S
C861 C862 1.376 . S
C861 H889 0.930 . S
C862 C861 1.376 . S
C862 C863 1.370 . S
C863 C862 1.370 . S
C863 C864 1.396 . S
C863 H890 0.929 . S
C864 C859 1.373 . S
C864 C863 1.396 . S
C864 H891 0.929 . S
C865 O878 1.240 . S
C865 O879 1.289 . S
C866 O880 1.258 . S
C866 O881 1.256 . S
C867 La857 2.928 . S
C867 C868 1.503 . S
C867 O882 1.261 . S
C867 O883 1.243 . S
C868 C867 1.503 . S
C868 C869 1.394 . S
C868 C873 1.373 . S
C869 C868 1.394 . S
C869 C870 1.380 . S
C869 H892 0.930 . S
C870 C869 1.380 . S
C870 C871 1.376 . S
C870 H893 0.930 . S
C871 C870 1.376 . S
C871 C872 1.370 . S
C872 C871 1.370 . S
C872 C873 1.396 . S
C872 H894 0.929 . S
C873 C868 1.373 . S
C873 C872 1.396 . S
C873 H895 0.929 . S
C874 O884 1.240 . S
C874 O885 1.289 . S
C875 O886 1.258 . S
C875 O887 1.256 . S
O876 La856 2.521 . S
O876 C858 1.261 . S
O877 La856 2.628 . S
O877 C858 1.243 . S
O878 La856 2.554 . S
O878 C865 1.240 . S
O879 La856 2.757 . S
O879 La857 2.482 . S
O879 C865 1.289 . S
O880 La856 2.470 . S
O880 C866 1.258 . S
O881 La857 2.503 . S
O881 C866 1.256 . S
O882 La857 2.521 . S
O882 C867 1.261 . S
O883 La857 2.628 . S
O883 C867 1.243 . S
O884 La857 2.554 . S
O884 C874 1.240 . S
O885 La856 2.482 . S
O885 La857 2.757 . S
O885 C874 1.289 . S
O886 La857 2.470 . S
O886 C875 1.258 . S
O887 La856 2.503 . S
O887 C875 1.256 . S
H888 C860 0.930 . S
H889 C861 0.930 . S
H890 C863 0.929 . S
H891 C864 0.929 . S
H892 C869 0.930 . S
H893 C870 0.930 . S
H894 C872 0.929 . S
H895 C873 0.929 . S
La896 C898 2.928 . S
La896 O916 2.521 . S
La896 O917 2.628 . S
La896 O918 2.554 . S
La896 O919 2.757 . S
La896 O920 2.470 . S
La896 O925 2.482 . S
La896 O927 2.503 . S
La897 C907 2.928 . S
La897 O919 2.482 . S
La897 O921 2.503 . S
La897 O922 2.521 . S
La897 O923 2.628 . S
La897 O924 2.554 . S
La897 O925 2.757 . S
La897 O926 2.470 . S
C898 La896 2.928 . S
C898 C899 1.503 . S
C898 O916 1.261 . S
C898 O917 1.243 . S
C899 C898 1.503 . S
C899 C900 1.394 . S
C899 C904 1.373 . S
C900 C899 1.394 . S
C900 C901 1.380 . S
C900 H928 0.930 . S
C901 C900 1.380 . S
C901 C902 1.376 . S
C901 H929 0.930 . S
C902 C901 1.376 . S
C902 C903 1.370 . S
C903 C902 1.370 . S
C903 C904 1.396 . S
C903 H930 0.929 . S
C904 C899 1.373 . S
C904 C903 1.396 . S
C904 H931 0.929 . S
C905 O918 1.240 . S
C905 O919 1.289 . S
C906 O920 1.258 . S
C906 O921 1.256 . S
C907 La897 2.928 . S
C907 C908 1.503 . S
C907 O922 1.261 . S
C907 O923 1.243 . S
C908 C907 1.503 . S
C908 C909 1.394 . S
C908 C913 1.373 . S
C909 C908 1.394 . S
C909 C910 1.380 . S
C909 H932 0.930 . S
C910 C909 1.380 . S
C910 C911 1.376 . S
C910 H933 0.930 . S
C911 C910 1.376 . S
C911 C912 1.370 . S
C912 C911 1.370 . S
C912 C913 1.396 . S
C912 H934 0.929 . S
C913 C908 1.373 . S
C913 C912 1.396 . S
C913 H935 0.929 . S
C914 O924 1.240 . S
C914 O925 1.289 . S
C915 O926 1.258 . S
C915 O927 1.256 . S
O916 La896 2.521 . S
O916 C898 1.261 . S
O917 La896 2.628 . S
O917 C898 1.243 . S
O918 La896 2.554 . S
O918 C905 1.240 . S
O919 La896 2.757 . S
O919 La897 2.482 . S
O919 C905 1.289 . S
O920 La896 2.470 . S
O920 C906 1.258 . S
O921 La897 2.503 . S
O921 C906 1.256 . S
O922 La897 2.521 . S
O922 C907 1.261 . S
O923 La897 2.628 . S
O923 C907 1.243 . S
O924 La897 2.554 . S
O924 C914 1.240 . S
O925 La896 2.482 . S
O925 La897 2.757 . S
O925 C914 1.289 . S
O926 La897 2.470 . S
O926 C915 1.258 . S
O927 La896 2.503 . S
O927 C915 1.256 . S
H928 C900 0.930 . S
H929 C901 0.930 . S
H930 C903 0.929 . S
H931 C904 0.929 . S
H932 C909 0.930 . S
H933 C910 0.930 . S
H934 C912 0.929 . S
H935 C913 0.929 . S
La936 C938 2.928 1_554 S
La936 O956 2.521 1_554 S
La936 O957 2.628 . S
La936 O958 2.554 1_554 S
La936 O959 2.757 1_554 S
La936 O960 2.470 1_554 S
La936 O965 2.482 . S
La936 O967 2.503 . S
La937 C947 2.928 1_455 S
La937 O959 2.482 1_554 S
La937 O961 2.503 . S
La937 O962 2.521 1_455 S
La937 O963 2.628 1_455 S
La937 O964 2.554 . S
La937 O965 2.757 . S
La937 O966 2.470 . S
C938 La936 2.928 1_556 S
C938 C939 1.503 . S
C938 O956 1.261 . S
C938 O957 1.243 1_556 S
C939 C938 1.503 . S
C939 C940 1.394 . S
C939 C944 1.373 1_556 S
C940 C939 1.394 . S
C940 C941 1.380 . S
C940 H968 0.930 . S
C941 C940 1.380 . S
C941 C942 1.376 . S
C941 H969 0.930 . S
C942 C941 1.376 . S
C942 C943 1.370 1_556 S
C943 C942 1.370 1_554 S
C943 C944 1.396 . S
C943 H970 0.929 . S
C944 C939 1.373 1_554 S
C944 C943 1.396 . S
C944 H971 0.929 . S
C945 O958 1.240 . S
C945 O959 1.289 . S
C946 O960 1.258 1_554 S
C946 O961 1.256 . S
C947 La937 2.928 1_655 S
C947 C948 1.503 . S
C947 O962 1.261 . S
C947 O963 1.243 . S
C948 C947 1.503 . S
C948 C949 1.394 . S
C948 C953 1.373 . S
C949 C948 1.394 . S
C949 C950 1.380 . S
C949 H972 0.930 . S
C950 C949 1.380 . S
C950 C951 1.376 . S
C950 H973 0.930 . S
C951 C950 1.376 . S
C951 C952 1.370 . S
C952 C951 1.370 . S
C952 C953 1.396 . S
C952 H974 0.929 . S
C953 C948 1.373 . S
C953 C952 1.396 . S
C953 H975 0.929 . S
C954 O964 1.240 . S
C954 O965 1.289 . S
C955 O966 1.258 . S
C955 O967 1.256 . S
O956 La936 2.521 1_556 S
O956 C938 1.261 . S
O957 La936 2.628 . S
O957 C938 1.243 1_554 S
O958 La936 2.554 1_556 S
O958 C945 1.240 . S
O959 La936 2.757 1_556 S
O959 La937 2.482 1_556 S
O959 C945 1.289 . S
O960 La936 2.470 1_556 S
O960 C946 1.258 1_556 S
O961 La937 2.503 . S
O961 C946 1.256 . S
O962 La937 2.521 1_655 S
O962 C947 1.261 . S
O963 La937 2.628 1_655 S
O963 C947 1.243 . S
O964 La937 2.554 . S
O964 C954 1.240 . S
O965 La936 2.482 . S
O965 La937 2.757 . S
O965 C954 1.289 . S
O966 La937 2.470 . S
O966 C955 1.258 . S
O967 La936 2.503 . S
O967 C955 1.256 . S
H968 C940 0.930 . S
H969 C941 0.930 . S
H970 C943 0.929 . S
H971 C944 0.929 . S
H972 C949 0.930 . S
H973 C950 0.930 . S
H974 C952 0.929 . S
H975 C953 0.929 . S
H976 C994 0.951 . S
H977 C996 0.951 . S
H978 C998 0.950 . S
H979 C999 0.950 . S
H980 C1001 0.950 1_655 S
H981 C1004 0.950 . S
H982 C1005 0.950 . S
H983 C1007 0.950 . S
H984 C1008 0.950 1_554 S
H985 C1009 0.951 . S
H986 C1011 0.951 . S
H987 C1013 0.950 . S
H988 C1014 0.950 . S
H989 C1016 0.950 . S
H990 C1019 0.950 . S
H991 C1020 0.950 . S
H992 C1022 0.950 . S
H993 C1023 0.950 . S
C994 H976 0.951 . S
C994 C995 1.366 . S
C994 C996 1.388 . S
C995 C994 1.366 . S
C995 C999 1.385 . S
C996 H977 0.951 . S
C996 C994 1.388 . S
C996 C997 1.366 . S
C997 C996 1.366 . S
C997 C998 1.414 . S
C997 C1000 1.499 . S
C998 H978 0.950 . S
C998 C997 1.414 . S
C998 C999 1.374 . S
C999 H979 0.950 . S
C999 C995 1.385 . S
C999 C998 1.374 . S
C1000 C997 1.499 . S
C1000 C1001 1.373 . S
C1000 C1002 1.389 . S
C1001 H980 0.950 1_455 S
C1001 C1000 1.373 . S
C1001 C1017 1.377 . S
C1002 C1000 1.389 . S
C1002 C1003 1.524 . S
C1002 C1016 1.377 . S
C1003 C1002 1.524 . S
C1003 C1004 1.397 . S
C1003 C1008 1.363 . S
C1004 H981 0.950 . S
C1004 C1003 1.397 . S
C1004 C1005 1.334 . S
C1005 H982 0.950 . S
C1005 C1004 1.334 . S
C1005 C1006 1.287 . S
C1006 C1005 1.287 . S
C1006 C1007 1.524 1_556 S
C1006 H1025 0.913 . S
C1007 H983 0.950 . S
C1007 C1006 1.524 1_554 S
C1007 C1008 1.415 1_554 S
C1008 H984 0.950 1_556 S
C1008 C1003 1.363 . S
C1008 C1007 1.415 1_556 S
C1009 H985 0.951 . S
C1009 C1010 1.366 . S
C1009 C1011 1.388 . S
C1010 C1009 1.366 . S
C1010 C1014 1.385 1_556 S
C1011 H986 0.951 . S
C1011 C1009 1.388 . S
C1011 C1012 1.366 . S
C1012 C1011 1.366 . S
C1012 C1013 1.414 1_556 S
C1012 C1015 1.499 . S
C1013 H987 0.950 . S
C1013 C1012 1.414 1_554 S
C1013 C1014 1.374 . S
C1014 H988 0.950 . S
C1014 C1010 1.385 1_554 S
C1014 C1013 1.374 . S
C1015 C1012 1.499 . S
C1015 C1016 1.373 . S
C1015 C1017 1.389 . S
C1016 H989 0.950 . S
C1016 C1002 1.377 . S
C1016 C1015 1.373 . S
C1017 C1001 1.377 . S
C1017 C1015 1.389 . S
C1017 C1018 1.524 1_455 S
C1018 C1017 1.524 1_655 S
C1018 C1019 1.397 . S
C1018 C1023 1.363 . S
C1019 H990 0.950 . S
C1019 C1018 1.397 . S
C1019 C1020 1.334 . S
C1020 H991 0.950 . S
C1020 C1019 1.334 . S
C1020 C1021 1.287 . S
C1021 C1020 1.287 . S
C1021 C1022 1.524 . S
C1021 H1024 0.999 . S
C1022 H992 0.950 . S
C1022 C1021 1.524 . S
C1022 C1023 1.415 . S
C1023 H993 0.950 . S
C1023 C1018 1.363 . S
C1023 C1022 1.415 . S
H1024 C1021 0.999 . S
H1025 C1006 0.913 . S
H1026 C1044 0.951 . S
H1027 C1046 0.951 . S
H1028 C1048 0.950 . S
H1029 C1049 0.950 . S
H1030 C1051 0.950 . S
H1031 C1054 0.950 . S
H1032 C1055 0.950 . S
H1033 C1057 0.950 . S
H1034 C1058 0.950 . S
H1035 C1059 0.951 . S
H1036 C1061 0.951 . S
H1037 C1063 0.950 . S
H1038 C1064 0.950 . S
H1039 C1066 0.950 . S
H1040 C1069 0.950 . S
H1041 C1070 0.950 . S
H1042 C1072 0.950 . S
H1043 C1073 0.950 . S
C1044 H1026 0.951 . S
C1044 C1045 1.366 . S
C1044 C1046 1.388 . S
C1045 C1044 1.366 . S
C1045 C1049 1.385 . S
C1046 H1027 0.951 . S
C1046 C1044 1.388 . S
C1046 C1047 1.366 . S
C1047 C1046 1.366 . S
C1047 C1048 1.414 . S
C1047 C1050 1.499 . S
C1048 H1028 0.950 . S
C1048 C1047 1.414 . S
C1048 C1049 1.374 . S
C1049 H1029 0.950 . S
C1049 C1045 1.385 . S
C1049 C1048 1.374 . S
C1050 C1047 1.499 . S
C1050 C1051 1.373 . S
C1050 C1052 1.389 . S
C1051 H1030 0.950 . S
C1051 C1050 1.373 . S
C1051 C1067 1.377 . S
C1052 C1050 1.389 . S
C1052 C1053 1.524 . S
C1052 C1066 1.377 . S
C1053 C1052 1.524 . S
C1053 C1054 1.397 . S
C1053 C1058 1.363 . S
C1054 H1031 0.950 . S
C1054 C1053 1.397 . S
C1054 C1055 1.334 . S
C1055 H1032 0.950 . S
C1055 C1054 1.334 . S
C1055 C1056 1.287 . S
C1056 C1055 1.287 . S
C1056 C1057 1.524 . S
C1056 H1075 0.913 . S
C1057 H1033 0.950 . S
C1057 C1056 1.524 . S
C1057 C1058 1.415 . S
C1058 H1034 0.950 . S
C1058 C1053 1.363 . S
C1058 C1057 1.415 . S
C1059 H1035 0.951 . S
C1059 C1060 1.366 . S
C1059 C1061 1.388 . S
C1060 C1059 1.366 . S
C1060 C1064 1.385 . S
C1061 H1036 0.951 . S
C1061 C1059 1.388 . S
C1061 C1062 1.366 . S
C1062 C1061 1.366 . S
C1062 C1063 1.414 . S
C1062 C1065 1.499 . S
C1063 H1037 0.950 . S
C1063 C1062 1.414 . S
C1063 C1064 1.374 . S
C1064 H1038 0.950 . S
C1064 C1060 1.385 . S
C1064 C1063 1.374 . S
C1065 C1062 1.499 . S
C1065 C1066 1.373 . S
C1065 C1067 1.389 . S
C1066 H1039 0.950 . S
C1066 C1052 1.377 . S
C1066 C1065 1.373 . S
C1067 C1051 1.377 . S
C1067 C1065 1.389 . S
C1067 C1068 1.524 . S
C1068 C1067 1.524 . S
C1068 C1069 1.397 . S
C1068 C1073 1.363 . S
C1069 H1040 0.950 . S
C1069 C1068 1.397 . S
C1069 C1070 1.334 . S
C1070 H1041 0.950 . S
C1070 C1069 1.334 . S
C1070 C1071 1.287 . S
C1071 C1070 1.287 . S
C1071 C1072 1.524 . S
C1071 H1074 0.999 . S
C1072 H1042 0.950 . S
C1072 C1071 1.524 . S
C1072 C1073 1.415 . S
C1073 H1043 0.950 . S
C1073 C1068 1.363 . S
C1073 C1072 1.415 . S
H1074 C1071 0.999 . S
H1075 C1056 0.913 . S
H1076 C1094 0.951 . S
H1077 C1096 0.951 . S
H1078 C1098 0.950 . S
H1079 C1099 0.950 . S
H1080 C1101 0.950 . S
H1081 C1104 0.950 . S
H1082 C1105 0.950 . S
H1083 C1107 0.950 . S
H1084 C1108 0.950 . S
H1085 C1109 0.951 . S
H1086 C1111 0.951 . S
H1087 C1113 0.950 . S
H1088 C1114 0.950 . S
H1089 C1116 0.950 . S
H1090 C1119 0.950 . S
H1091 C1120 0.950 . S
H1092 C1122 0.950 . S
H1093 C1123 0.950 . S
C1094 H1076 0.951 . S
C1094 C1095 1.366 . S
C1094 C1096 1.388 . S
C1095 C1094 1.366 . S
C1095 C1099 1.385 . S
C1096 H1077 0.951 . S
C1096 C1094 1.388 . S
C1096 C1097 1.366 . S
C1097 C1096 1.366 . S
C1097 C1098 1.414 . S
C1097 C1100 1.499 . S
C1098 H1078 0.950 . S
C1098 C1097 1.414 . S
C1098 C1099 1.374 . S
C1099 H1079 0.950 . S
C1099 C1095 1.385 . S
C1099 C1098 1.374 . S
C1100 C1097 1.499 . S
C1100 C1101 1.373 . S
C1100 C1102 1.389 . S
C1101 H1080 0.950 . S
C1101 C1100 1.373 . S
C1101 C1117 1.377 . S
C1102 C1100 1.389 . S
C1102 C1103 1.524 . S
C1102 C1116 1.377 . S
C1103 C1102 1.524 . S
C1103 C1104 1.397 . S
C1103 C1108 1.363 . S
C1104 H1081 0.950 . S
C1104 C1103 1.397 . S
C1104 C1105 1.334 . S
C1105 H1082 0.950 . S
C1105 C1104 1.334 . S
C1105 C1106 1.287 . S
C1106 C1105 1.287 . S
C1106 C1107 1.524 . S
C1106 H1125 0.913 . S
C1107 H1083 0.950 . S
C1107 C1106 1.524 . S
C1107 C1108 1.415 . S
C1108 H1084 0.950 . S
C1108 C1103 1.363 . S
C1108 C1107 1.415 . S
C1109 H1085 0.951 . S
C1109 C1110 1.366 . S
C1109 C1111 1.388 . S
C1110 C1109 1.366 . S
C1110 C1114 1.385 . S
C1111 H1086 0.951 . S
C1111 C1109 1.388 . S
C1111 C1112 1.366 . S
C1112 C1111 1.366 . S
C1112 C1113 1.414 . S
C1112 C1115 1.499 . S
C1113 H1087 0.950 . S
C1113 C1112 1.414 . S
C1113 C1114 1.374 . S
C1114 H1088 0.950 . S
C1114 C1110 1.385 . S
C1114 C1113 1.374 . S
C1115 C1112 1.499 . S
C1115 C1116 1.373 . S
C1115 C1117 1.389 . S
C1116 H1089 0.950 . S
C1116 C1102 1.377 . S
C1116 C1115 1.373 . S
C1117 C1101 1.377 . S
C1117 C1115 1.389 . S
C1117 C1118 1.524 . S
C1118 C1117 1.524 . S
C1118 C1119 1.397 . S
C1118 C1123 1.363 . S
C1119 H1090 0.950 . S
C1119 C1118 1.397 . S
C1119 C1120 1.334 . S
C1120 H1091 0.950 . S
C1120 C1119 1.334 . S
C1120 C1121 1.287 . S
C1121 C1120 1.287 . S
C1121 C1122 1.524 . S
C1121 H1124 0.999 . S
C1122 H1092 0.950 . S
C1122 C1121 1.524 . S
C1122 C1123 1.415 . S
C1123 H1093 0.950 . S
C1123 C1118 1.363 . S
C1123 C1122 1.415 . S
H1124 C1121 0.999 . S
H1125 C1106 0.913 . S
H1126 C1144 0.951 . S
H1127 C1146 0.951 . S
H1128 C1148 0.950 . S
H1129 C1149 0.950 . S
H1130 C1151 0.950 . S
H1131 C1154 0.950 . S
H1132 C1155 0.950 . S
H1133 C1157 0.950 . S
H1134 C1158 0.950 . S
H1135 C1159 0.951 . S
H1136 C1161 0.951 . S
H1137 C1163 0.950 . S
H1138 C1164 0.950 . S
H1139 C1166 0.950 . S
H1140 C1169 0.950 . S
H1141 C1170 0.950 . S
H1142 C1172 0.950 . S
H1143 C1173 0.950 . S
C1144 H1126 0.951 . S
C1144 C1145 1.366 . S
C1144 C1146 1.388 . S
C1145 C1144 1.366 . S
C1145 C1149 1.385 . S
C1146 H1127 0.951 . S
C1146 C1144 1.388 . S
C1146 C1147 1.366 . S
C1147 C1146 1.366 . S
C1147 C1148 1.414 . S
C1147 C1150 1.499 . S
C1148 H1128 0.950 . S
C1148 C1147 1.414 . S
C1148 C1149 1.374 . S
C1149 H1129 0.950 . S
C1149 C1145 1.385 . S
C1149 C1148 1.374 . S
C1150 C1147 1.499 . S
C1150 C1151 1.373 . S
C1150 C1152 1.389 . S
C1151 H1130 0.950 . S
C1151 C1150 1.373 . S
C1151 C1167 1.377 . S
C1152 C1150 1.389 . S
C1152 C1153 1.524 . S
C1152 C1166 1.377 . S
C1153 C1152 1.524 . S
C1153 C1154 1.397 . S
C1153 C1158 1.363 . S
C1154 H1131 0.950 . S
C1154 C1153 1.397 . S
C1154 C1155 1.334 . S
C1155 H1132 0.950 . S
C1155 C1154 1.334 . S
C1155 C1156 1.287 . S
C1156 C1155 1.287 . S
C1156 C1157 1.524 . S
C1156 H1175 0.913 . S
C1157 H1133 0.950 . S
C1157 C1156 1.524 . S
C1157 C1158 1.415 . S
C1158 H1134 0.950 . S
C1158 C1153 1.363 . S
C1158 C1157 1.415 . S
C1159 H1135 0.951 . S
C1159 C1160 1.366 . S
C1159 C1161 1.388 . S
C1160 C1159 1.366 . S
C1160 C1164 1.385 . S
C1161 H1136 0.951 . S
C1161 C1159 1.388 . S
C1161 C1162 1.366 . S
C1162 C1161 1.366 . S
C1162 C1163 1.414 . S
C1162 C1165 1.499 . S
C1163 H1137 0.950 . S
C1163 C1162 1.414 . S
C1163 C1164 1.374 . S
C1164 H1138 0.950 . S
C1164 C1160 1.385 . S
C1164 C1163 1.374 . S
C1165 C1162 1.499 . S
C1165 C1166 1.373 . S
C1165 C1167 1.389 . S
C1166 H1139 0.950 . S
C1166 C1152 1.377 . S
C1166 C1165 1.373 . S
C1167 C1151 1.377 . S
C1167 C1165 1.389 . S
C1167 C1168 1.524 . S
C1168 C1167 1.524 . S
C1168 C1169 1.397 . S
C1168 C1173 1.363 . S
C1169 H1140 0.950 . S
C1169 C1168 1.397 . S
C1169 C1170 1.334 . S
C1170 H1141 0.950 . S
C1170 C1169 1.334 . S
C1170 C1171 1.287 . S
C1171 C1170 1.287 . S
C1171 C1172 1.524 . S
C1171 H1174 0.999 . S
C1172 H1142 0.950 . S
C1172 C1171 1.524 . S
C1172 C1173 1.415 . S
C1173 H1143 0.950 . S
C1173 C1168 1.363 . S
C1173 C1172 1.415 . S
H1174 C1171 0.999 . S
H1175 C1156 0.913 . S
H1176 C1194 0.951 . S
H1177 C1196 0.951 1_655 S
H1178 C1198 0.950 . S
H1179 C1199 0.950 . S
H1180 C1201 0.950 . S
H1181 C1204 0.950 . S
H1182 C1205 0.950 . S
H1183 C1207 0.950 . S
H1184 C1208 0.950 . S
H1185 C1209 0.951 . S
H1186 C1211 0.951 . S
H1187 C1213 0.950 . S
H1188 C1214 0.950 . S
H1189 C1216 0.950 . S
H1190 C1219 0.950 . S
H1191 C1220 0.950 . S
H1192 C1222 0.950 . S
H1193 C1223 0.950 . S
C1194 H1176 0.951 . S
C1194 C1195 1.366 1_655 S
C1194 C1196 1.388 1_655 S
C1195 C1194 1.366 1_455 S
C1195 C1199 1.385 . S
C1196 H1177 0.951 1_455 S
C1196 C1194 1.388 1_455 S
C1196 C1197 1.366 . S
C1197 C1196 1.366 . S
C1197 C1198 1.414 . S
C1197 C1200 1.499 . S
C1198 H1178 0.950 . S
C1198 C1197 1.414 . S
C1198 C1199 1.374 . S
C1199 H1179 0.950 . S
C1199 C1195 1.385 . S
C1199 C1198 1.374 . S
C1200 C1197 1.499 . S
C1200 C1201 1.373 . S
C1200 C1202 1.389 . S
C1201 H1180 0.950 . S
C1201 C1200 1.373 . S
C1201 C1217 1.377 . S
C1202 C1200 1.389 . S
C1202 C1203 1.511 1_455 S
C1202 C1216 1.377 . S
C1203 C1202 1.511 1_655 S
C1203 C1204 1.390 1_655 S
C1203 C1208 1.382 . S
C1204 H1181 0.950 . S
C1204 C1203 1.390 1_455 S
C1204 C1205 1.334 1_455 S
C1205 H1182 0.950 . S
C1205 C1204 1.334 1_655 S
C1205 C1206 1.287 . S
C1206 C1205 1.287 . S
C1206 C1207 1.524 . S
C1206 H1225 0.913 . S
C1207 H1183 0.950 . S
C1207 C1206 1.524 . S
C1207 C1208 1.415 . S
C1208 H1184 0.950 . S
C1208 C1203 1.382 . S
C1208 C1207 1.415 . S
C1209 H1185 0.951 . S
C1209 C1210 1.366 . S
C1209 C1211 1.388 . S
C1210 C1209 1.366 . S
C1210 C1214 1.385 . S
C1211 H1186 0.951 . S
C1211 C1209 1.388 . S
C1211 C1212 1.366 . S
C1212 C1211 1.366 . S
C1212 C1213 1.414 . S
C1212 C1215 1.499 . S
C1213 H1187 0.950 . S
C1213 C1212 1.414 . S
C1213 C1214 1.374 . S
C1214 H1188 0.950 . S
C1214 C1210 1.385 . S
C1214 C1213 1.374 . S
C1215 C1212 1.499 . S
C1215 C1216 1.373 . S
C1215 C1217 1.389 . S
C1216 H1189 0.950 . S
C1216 C1202 1.377 . S
C1216 C1215 1.373 . S
C1217 C1201 1.377 . S
C1217 C1215 1.389 . S
C1217 C1218 1.524 . S
C1218 C1217 1.524 . S
C1218 C1219 1.397 . S
C1218 C1223 1.363 . S
C1219 H1190 0.950 . S
C1219 C1218 1.397 . S
C1219 C1220 1.334 . S
C1220 H1191 0.950 . S
C1220 C1219 1.334 . S
C1220 C1221 1.287 . S
C1221 C1220 1.287 . S
C1221 C1222 1.524 . S
C1221 H1224 0.999 . S
C1222 H1192 0.950 . S
C1222 C1221 1.524 . S
C1222 C1223 1.415 . S
C1223 H1193 0.950 . S
C1223 C1218 1.363 . S
C1223 C1222 1.415 . S
H1224 C1221 0.999 . S
H1225 C1206 0.913 . S
H1226 C1244 0.951 . S
H1227 C1246 0.951 . S
H1228 C1248 0.950 . S
H1229 C1249 0.950 . S
H1230 C1251 0.950 . S
H1231 C1254 0.950 . S
H1232 C1255 0.950 . S
H1233 C1257 0.950 . S
H1234 C1258 0.950 . S
H1235 C1259 0.951 . S
H1236 C1261 0.951 . S
H1237 C1263 0.950 . S
H1238 C1264 0.950 . S
H1239 C1266 0.950 . S
H1240 C1269 0.950 . S
H1241 C1270 0.950 . S
H1242 C1272 0.950 . S
H1243 C1273 0.950 . S
C1244 H1226 0.951 . S
C1244 C1245 1.366 . S
C1244 C1246 1.388 . S
C1245 C1244 1.366 . S
C1245 C1249 1.385 . S
C1246 H1227 0.951 . S
C1246 C1244 1.388 . S
C1246 C1247 1.366 . S
C1247 C1246 1.366 . S
C1247 C1248 1.414 . S
C1247 C1250 1.499 . S
C1248 H1228 0.950 . S
C1248 C1247 1.414 . S
C1248 C1249 1.374 . S
C1249 H1229 0.950 . S
C1249 C1245 1.385 . S
C1249 C1248 1.374 . S
C1250 C1247 1.499 . S
C1250 C1251 1.373 . S
C1250 C1252 1.389 . S
C1251 H1230 0.950 . S
C1251 C1250 1.373 . S
C1251 C1267 1.377 . S
C1252 C1250 1.389 . S
C1252 C1253 1.524 . S
C1252 C1266 1.377 . S
C1253 C1252 1.524 . S
C1253 C1254 1.397 . S
C1253 C1258 1.363 . S
C1254 H1231 0.950 . S
C1254 C1253 1.397 . S
C1254 C1255 1.334 . S
C1255 H1232 0.950 . S
C1255 C1254 1.334 . S
C1255 C1256 1.287 . S
C1256 C1255 1.287 . S
C1256 C1257 1.524 . S
C1256 H1275 0.913 . S
C1257 H1233 0.950 . S
C1257 C1256 1.524 . S
C1257 C1258 1.415 . S
C1258 H1234 0.950 . S
C1258 C1253 1.363 . S
C1258 C1257 1.415 . S
C1259 H1235 0.951 . S
C1259 C1260 1.366 . S
C1259 C1261 1.388 . S
C1260 C1259 1.366 . S
C1260 C1264 1.385 . S
C1261 H1236 0.951 . S
C1261 C1259 1.388 . S
C1261 C1262 1.366 . S
C1262 C1261 1.366 . S
C1262 C1263 1.414 . S
C1262 C1265 1.499 . S
C1263 H1237 0.950 . S
C1263 C1262 1.414 . S
C1263 C1264 1.374 . S
C1264 H1238 0.950 . S
C1264 C1260 1.385 . S
C1264 C1263 1.374 . S
C1265 C1262 1.499 . S
C1265 C1266 1.373 . S
C1265 C1267 1.389 . S
C1266 H1239 0.950 . S
C1266 C1252 1.377 . S
C1266 C1265 1.373 . S
C1267 C1251 1.377 . S
C1267 C1265 1.389 . S
C1267 C1268 1.524 . S
C1268 C1267 1.524 . S
C1268 C1269 1.397 . S
C1268 C1273 1.363 . S
C1269 H1240 0.950 . S
C1269 C1268 1.397 . S
C1269 C1270 1.334 . S
C1270 H1241 0.950 . S
C1270 C1269 1.334 . S
C1270 C1271 1.287 . S
C1271 C1270 1.287 . S
C1271 C1272 1.524 . S
C1271 H1274 0.999 . S
C1272 H1242 0.950 . S
C1272 C1271 1.524 . S
C1272 C1273 1.415 . S
C1273 H1243 0.950 . S
C1273 C1268 1.363 . S
C1273 C1272 1.415 . S
H1274 C1271 0.999 . S
H1275 C1256 0.913 . S
H1276 C1294 0.951 . S
H1277 C1296 0.951 . S
H1278 C1298 0.950 . S
H1279 C1299 0.950 . S
H1280 C1301 0.950 . S
H1281 C1304 0.950 . S
H1282 C1305 0.950 . S
H1283 C1307 0.950 . S
H1284 C1308 0.950 . S
H1285 C1309 0.951 . S
H1286 C1311 0.951 . S
H1287 C1313 0.950 . S
H1288 C1314 0.950 . S
H1289 C1316 0.950 . S
H1290 C1319 0.950 . S
H1291 C1320 0.950 . S
H1292 C1322 0.950 . S
H1293 C1323 0.950 . S
C1294 H1276 0.951 . S
C1294 C1295 1.366 . S
C1294 C1296 1.388 . S
C1295 C1294 1.366 . S
C1295 C1299 1.385 . S
C1296 H1277 0.951 . S
C1296 C1294 1.388 . S
C1296 C1297 1.366 . S
C1297 C1296 1.366 . S
C1297 C1298 1.414 . S
C1297 C1300 1.499 . S
C1298 H1278 0.950 . S
C1298 C1297 1.414 . S
C1298 C1299 1.374 . S
C1299 H1279 0.950 . S
C1299 C1295 1.385 . S
C1299 C1298 1.374 . S
C1300 C1297 1.499 . S
C1300 C1301 1.373 . S
C1300 C1302 1.389 . S
C1301 H1280 0.950 . S
C1301 C1300 1.373 . S
C1301 C1317 1.377 . S
C1302 C1300 1.389 . S
C1302 C1303 1.524 . S
C1302 C1316 1.377 . S
C1303 C1302 1.524 . S
C1303 C1304 1.397 . S
C1303 C1308 1.363 . S
C1304 H1281 0.950 . S
C1304 C1303 1.397 . S
C1304 C1305 1.334 . S
C1305 H1282 0.950 . S
C1305 C1304 1.334 . S
C1305 C1306 1.287 . S
C1306 C1305 1.287 . S
C1306 C1307 1.524 . S
C1306 H1325 0.913 . S
C1307 H1283 0.950 . S
C1307 C1306 1.524 . S
C1307 C1308 1.415 . S
C1308 H1284 0.950 . S
C1308 C1303 1.363 . S
C1308 C1307 1.415 . S
C1309 H1285 0.951 . S
C1309 C1310 1.366 . S
C1309 C1311 1.388 . S
C1310 C1309 1.366 . S
C1310 C1314 1.385 . S
C1311 H1286 0.951 . S
C1311 C1309 1.388 . S
C1311 C1312 1.366 . S
C1312 C1311 1.366 . S
C1312 C1313 1.414 . S
C1312 C1315 1.499 . S
C1313 H1287 0.950 . S
C1313 C1312 1.414 . S
C1313 C1314 1.374 . S
C1314 H1288 0.950 . S
C1314 C1310 1.385 . S
C1314 C1313 1.374 . S
C1315 C1312 1.499 . S
C1315 C1316 1.373 . S
C1315 C1317 1.389 . S
C1316 H1289 0.950 . S
C1316 C1302 1.377 . S
C1316 C1315 1.373 . S
C1317 C1301 1.377 . S
C1317 C1315 1.389 . S
C1317 C1318 1.524 . S
C1318 C1317 1.524 . S
C1318 C1319 1.397 . S
C1318 C1323 1.363 . S
C1319 H1290 0.950 . S
C1319 C1318 1.397 . S
C1319 C1320 1.334 . S
C1320 H1291 0.950 . S
C1320 C1319 1.334 . S
C1320 C1321 1.287 . S
C1321 C1320 1.287 . S
C1321 C1322 1.524 . S
C1321 H1324 0.999 . S
C1322 H1292 0.950 . S
C1322 C1321 1.524 . S
C1322 C1323 1.415 . S
C1323 H1293 0.950 . S
C1323 C1318 1.363 . S
C1323 C1322 1.415 . S
H1324 C1321 0.999 . S
H1325 C1306 0.913 . S
H1326 C1344 0.951 . S
H1327 C1346 0.951 . S
H1328 C1348 0.950 . S
H1329 C1349 0.950 . S
H1330 C1351 0.950 . S
H1331 C1354 0.950 . S
H1332 C1355 0.950 . S
H1333 C1357 0.950 . S
H1334 C1358 0.950 . S
H1335 C1359 0.951 . S
H1336 C1361 0.951 . S
H1337 C1363 0.950 . S
H1338 C1364 0.950 . S
H1339 C1366 0.950 . S
H1340 C1369 0.950 . S
H1341 C1370 0.950 . S
H1342 C1372 0.950 . S
H1343 C1373 0.950 . S
C1344 H1326 0.951 . S
C1344 C1345 1.366 . S
C1344 C1346 1.388 . S
C1345 C1344 1.366 . S
C1345 C1349 1.385 . S
C1346 H1327 0.951 . S
C1346 C1344 1.388 . S
C1346 C1347 1.366 . S
C1347 C1346 1.366 . S
C1347 C1348 1.414 . S
C1347 C1350 1.499 . S
C1348 H1328 0.950 . S
C1348 C1347 1.414 . S
C1348 C1349 1.374 . S
C1349 H1329 0.950 . S
C1349 C1345 1.385 . S
C1349 C1348 1.374 . S
C1350 C1347 1.499 . S
C1350 C1351 1.373 . S
C1350 C1352 1.389 . S
C1351 H1330 0.950 . S
C1351 C1350 1.373 . S
C1351 C1367 1.377 . S
C1352 C1350 1.389 . S
C1352 C1353 1.524 . S
C1352 C1366 1.377 . S
C1353 C1352 1.524 . S
C1353 C1354 1.397 . S
C1353 C1358 1.363 . S
C1354 H1331 0.950 . S
C1354 C1353 1.397 . S
C1354 C1355 1.334 . S
C1355 H1332 0.950 . S
C1355 C1354 1.334 . S
C1355 C1356 1.287 . S
C1356 C1355 1.287 . S
C1356 C1357 1.524 . S
C1356 H1375 0.913 . S
C1357 H1333 0.950 . S
C1357 C1356 1.524 . S
C1357 C1358 1.415 . S
C1358 H1334 0.950 . S
C1358 C1353 1.363 . S
C1358 C1357 1.415 . S
C1359 H1335 0.951 . S
C1359 C1360 1.366 . S
C1359 C1361 1.388 . S
C1360 C1359 1.366 . S
C1360 C1364 1.385 . S
C1361 H1336 0.951 . S
C1361 C1359 1.388 . S
C1361 C1362 1.366 . S
C1362 C1361 1.366 . S
C1362 C1363 1.414 . S
C1362 C1365 1.499 . S
C1363 H1337 0.950 . S
C1363 C1362 1.414 . S
C1363 C1364 1.374 . S
C1364 H1338 0.950 . S
C1364 C1360 1.385 . S
C1364 C1363 1.374 . S
C1365 C1362 1.499 . S
C1365 C1366 1.373 . S
C1365 C1367 1.389 . S
C1366 H1339 0.950 . S
C1366 C1352 1.377 . S
C1366 C1365 1.373 . S
C1367 C1351 1.377 . S
C1367 C1365 1.389 . S
C1367 C1368 1.524 . S
C1368 C1367 1.524 . S
C1368 C1369 1.397 . S
C1368 C1373 1.363 . S
C1369 H1340 0.950 . S
C1369 C1368 1.397 . S
C1369 C1370 1.334 . S
C1370 H1341 0.950 . S
C1370 C1369 1.334 . S
C1370 C1371 1.287 . S
C1371 C1370 1.287 . S
C1371 C1372 1.524 . S
C1371 H1374 0.999 . S
C1372 H1342 0.950 . S
C1372 C1371 1.524 . S
C1372 C1373 1.415 . S
C1373 H1343 0.950 . S
C1373 C1368 1.363 . S
C1373 C1372 1.415 . S
H1374 C1371 0.999 . S
H1375 C1356 0.913 . S
H1376 C1394 0.951 . S
H1377 C1396 0.951 . S
H1378 C1398 0.950 . S
H1379 C1399 0.950 . S
H1380 C1401 0.950 . S
H1381 C1404 0.947 1_655 S
H1382 C1405 0.950 . S
H1383 C1407 0.950 . S
H1384 C1408 0.950 . S
H1385 C1409 0.951 . S
H1386 C1411 0.951 . S
H1387 C1413 0.950 . S
H1388 C1414 0.950 . S
H1389 C1416 0.950 . S
H1390 C1419 0.950 . S
H1391 C1420 0.950 1_565 S
H1392 C1422 0.950 . S
H1393 C1423 0.950 . S
C1394 H1376 0.951 . S
C1394 C1395 1.366 . S
C1394 C1396 1.388 . S
C1395 C1394 1.366 . S
C1395 C1399 1.385 . S
C1396 H1377 0.951 . S
C1396 C1394 1.388 . S
C1396 C1397 1.366 . S
C1397 C1396 1.366 . S
C1397 C1398 1.414 . S
C1397 C1400 1.499 . S
C1398 H1378 0.950 . S
C1398 C1397 1.414 . S
C1398 C1399 1.374 . S
C1399 H1379 0.950 . S
C1399 C1395 1.385 . S
C1399 C1398 1.374 . S
C1400 C1397 1.499 . S
C1400 C1401 1.373 . S
C1400 C1402 1.389 . S
C1401 H1380 0.950 . S
C1401 C1400 1.373 . S
C1401 C1417 1.377 . S
C1402 C1400 1.389 . S
C1402 C1403 1.524 1_655 S
C1402 C1416 1.377 1_655 S
C1403 C1402 1.524 1_455 S
C1403 C1404 1.397 . S
C1403 C1408 1.363 . S
C1404 H1381 0.947 1_455 S
C1404 C1403 1.397 . S
C1404 C1405 1.334 . S
C1405 H1382 0.950 . S
C1405 C1404 1.334 . S
C1405 C1406 1.287 . S
C1406 C1405 1.287 . S
C1406 C1407 1.524 . S
C1406 H1425 0.913 . S
C1407 H1383 0.950 . S
C1407 C1406 1.524 . S
C1407 C1408 1.415 . S
C1408 H1384 0.950 . S
C1408 C1403 1.363 . S
C1408 C1407 1.415 . S
C1409 H1385 0.951 . S
C1409 C1410 1.366 . S
C1409 C1411 1.388 1_455 S
C1410 C1409 1.366 . S
C1410 C1414 1.385 . S
C1411 H1386 0.951 . S
C1411 C1409 1.388 1_655 S
C1411 C1412 1.366 1_655 S
C1412 C1411 1.366 1_455 S
C1412 C1413 1.414 . S
C1412 C1415 1.499 1_455 S
C1413 H1387 0.950 . S
C1413 C1412 1.414 . S
C1413 C1414 1.374 . S
C1414 H1388 0.950 . S
C1414 C1410 1.385 . S
C1414 C1413 1.374 . S
C1415 C1412 1.499 1_655 S
C1415 C1416 1.373 1_655 S
C1415 C1417 1.389 . S
C1416 H1389 0.950 . S
C1416 C1402 1.377 1_455 S
C1416 C1415 1.373 1_455 S
C1417 C1401 1.377 . S
C1417 C1415 1.389 . S
C1417 C1418 1.524 . S
C1418 C1417 1.524 . S
C1418 C1419 1.397 . S
C1418 C1423 1.363 . S
C1419 H1390 0.950 . S
C1419 C1418 1.397 . S
C1419 C1420 1.334 . S
C1420 H1391 0.950 1_545 S
C1420 C1419 1.334 . S
C1420 C1421 1.287 . S
C1421 C1420 1.287 . S
C1421 C1422 1.524 . S
C1421 H1424 0.999 . S
C1422 H1392 0.950 . S
C1422 C1421 1.524 . S
C1422 C1423 1.415 . S
C1423 H1393 0.950 . S
C1423 C1418 1.363 . S
C1423 C1422 1.415 . S
H1424 C1421 0.999 . S
H1425 C1406 0.913 . S
H1426 C1444 0.951 . S
H1427 C1446 0.951 . S
H1428 C1448 0.950 . S
H1429 C1449 0.950 . S
H1430 C1451 0.950 . S
H1431 C1454 0.950 . S
H1432 C1455 0.950 . S
H1433 C1457 0.950 . S
H1434 C1458 0.950 . S
H1435 C1459 0.951 . S
H1436 C1461 0.951 . S
H1437 C1463 0.950 . S
H1438 C1464 0.950 . S
H1439 C1466 0.950 . S
H1440 C1469 0.950 . S
H1441 C1470 0.950 . S
H1442 C1472 0.950 . S
H1443 C1473 0.950 . S
C1444 H1426 0.951 . S
C1444 C1445 1.366 . S
C1444 C1446 1.388 . S
C1445 C1444 1.366 . S
C1445 C1449 1.385 . S
C1446 H1427 0.951 . S
C1446 C1444 1.388 . S
C1446 C1447 1.366 . S
C1447 C1446 1.366 . S
C1447 C1448 1.414 . S
C1447 C1450 1.499 . S
C1448 H1428 0.950 . S
C1448 C1447 1.414 . S
C1448 C1449 1.374 . S
C1449 H1429 0.950 . S
C1449 C1445 1.385 . S
C1449 C1448 1.374 . S
C1450 C1447 1.499 . S
C1450 C1451 1.373 . S
C1450 C1452 1.389 . S
C1451 H1430 0.950 . S
C1451 C1450 1.373 . S
C1451 C1467 1.377 . S
C1452 C1450 1.389 . S
C1452 C1453 1.524 . S
C1452 C1466 1.377 . S
C1453 C1452 1.524 . S
C1453 C1454 1.397 . S
C1453 C1458 1.363 . S
C1454 H1431 0.950 . S
C1454 C1453 1.397 . S
C1454 C1455 1.334 . S
C1455 H1432 0.950 . S
C1455 C1454 1.334 . S
C1455 C1456 1.287 . S
C1456 C1455 1.287 . S
C1456 C1457 1.524 . S
C1456 H1475 0.913 . S
C1457 H1433 0.950 . S
C1457 C1456 1.524 . S
C1457 C1458 1.415 . S
C1458 H1434 0.950 . S
C1458 C1453 1.363 . S
C1458 C1457 1.415 . S
C1459 H1435 0.951 . S
C1459 C1460 1.366 . S
C1459 C1461 1.388 . S
C1460 C1459 1.366 . S
C1460 C1464 1.385 . S
C1461 H1436 0.951 . S
C1461 C1459 1.388 . S
C1461 C1462 1.366 . S
C1462 C1461 1.366 . S
C1462 C1463 1.414 . S
C1462 C1465 1.499 . S
C1463 H1437 0.950 . S
C1463 C1462 1.414 . S
C1463 C1464 1.374 . S
C1464 H1438 0.950 . S
C1464 C1460 1.385 . S
C1464 C1463 1.374 . S
C1465 C1462 1.499 . S
C1465 C1466 1.373 . S
C1465 C1467 1.389 . S
C1466 H1439 0.950 . S
C1466 C1452 1.377 . S
C1466 C1465 1.373 . S
C1467 C1451 1.377 . S
C1467 C1465 1.389 . S
C1467 C1468 1.524 . S
C1468 C1467 1.524 . S
C1468 C1469 1.397 . S
C1468 C1473 1.363 . S
C1469 H1440 0.950 . S
C1469 C1468 1.397 . S
C1469 C1470 1.334 . S
C1470 H1441 0.950 . S
C1470 C1469 1.334 . S
C1470 C1471 1.287 . S
C1471 C1470 1.287 . S
C1471 C1472 1.524 . S
C1471 H1474 0.999 . S
C1472 H1442 0.950 . S
C1472 C1471 1.524 . S
C1472 C1473 1.415 . S
C1473 H1443 0.950 . S
C1473 C1468 1.363 . S
C1473 C1472 1.415 . S
H1474 C1471 0.999 . S
H1475 C1456 0.913 . S
H1476 C1494 0.951 . S
H1477 C1496 0.951 . S
H1478 C1498 0.950 . S
H1479 C1499 0.950 . S
H1480 C1501 0.950 . S
H1481 C1504 0.950 1_545 S
H1482 C1505 0.950 . S
H1483 C1507 0.950 . S
H1484 C1508 0.950 . S
H1485 C1509 0.951 . S
H1486 C1511 0.951 . S
H1487 C1513 0.950 . S
H1488 C1514 0.950 . S
H1489 C1516 0.950 . S
H1490 C1519 0.950 . S
H1491 C1520 0.950 . S
H1492 C1522 0.950 . S
H1493 C1523 0.950 . S
C1494 H1476 0.951 . S
C1494 C1495 1.366 . S
C1494 C1496 1.388 . S
C1495 C1494 1.366 . S
C1495 C1499 1.385 . S
C1496 H1477 0.951 . S
C1496 C1494 1.388 . S
C1496 C1497 1.366 . S
C1497 C1496 1.366 . S
C1497 C1498 1.414 . S
C1497 C1500 1.499 . S
C1498 H1478 0.950 . S
C1498 C1497 1.414 . S
C1498 C1499 1.374 . S
C1499 H1479 0.950 . S
C1499 C1495 1.385 . S
C1499 C1498 1.374 . S
C1500 C1497 1.499 . S
C1500 C1501 1.373 . S
C1500 C1502 1.389 . S
C1501 H1480 0.950 . S
C1501 C1500 1.373 . S
C1501 C1517 1.377 . S
C1502 C1500 1.389 . S
C1502 C1503 1.524 . S
C1502 C1516 1.377 . S
C1503 C1502 1.524 . S
C1503 C1504 1.397 1_545 S
C1503 C1508 1.363 1_545 S
C1504 H1481 0.950 1_565 S
C1504 C1503 1.397 1_565 S
C1504 C1505 1.334 . S
C1505 H1482 0.950 . S
C1505 C1504 1.334 . S
C1505 C1506 1.287 . S
C1506 C1505 1.287 . S
C1506 C1507 1.524 . S
C1506 H1525 0.913 . S
C1507 H1483 0.950 . S
C1507 C1506 1.524 . S
C1507 C1508 1.415 . S
C1508 H1484 0.950 . S
C1508 C1503 1.363 1_565 S
C1508 C1507 1.415 . S
C1509 H1485 0.951 . S
C1509 C1510 1.366 . S
C1509 C1511 1.388 . S
C1510 C1509 1.366 . S
C1510 C1514 1.385 . S
C1511 H1486 0.951 . S
C1511 C1509 1.388 . S
C1511 C1512 1.366 . S
C1512 C1511 1.366 . S
C1512 C1513 1.414 . S
C1512 C1515 1.499 . S
C1513 H1487 0.950 . S
C1513 C1512 1.414 . S
C1513 C1514 1.374 . S
C1514 H1488 0.950 . S
C1514 C1510 1.385 . S
C1514 C1513 1.374 . S
C1515 C1512 1.499 . S
C1515 C1516 1.373 . S
C1515 C1517 1.389 . S
C1516 H1489 0.950 . S
C1516 C1502 1.377 . S
C1516 C1515 1.373 . S
C1517 C1501 1.377 . S
C1517 C1515 1.389 . S
C1517 C1518 1.524 . S
C1518 C1517 1.524 . S
C1518 C1519 1.397 . S
C1518 C1523 1.363 . S
C1519 H1490 0.950 . S
C1519 C1518 1.397 . S
C1519 C1520 1.334 . S
C1520 H1491 0.950 . S
C1520 C1519 1.334 . S
C1520 C1521 1.287 . S
C1521 C1520 1.287 . S
C1521 C1522 1.524 . S
C1521 H1524 0.999 . S
C1522 H1492 0.950 . S
C1522 C1521 1.524 . S
C1522 C1523 1.415 . S
C1523 H1493 0.950 . S
C1523 C1518 1.363 . S
C1523 C1522 1.415 . S
H1524 C1521 0.999 . S
H1525 C1506 0.913 . S
H1526 C1544 0.951 . S
H1527 C1546 0.951 . S
H1528 C1548 0.950 . S
H1529 C1549 0.950 . S
H1530 C1551 0.950 . S
H1531 C1554 0.950 . S
H1532 C1555 0.950 . S
H1533 C1557 0.950 . S
H1534 C1558 0.950 . S
H1535 C1559 0.951 . S
H1536 C1561 0.951 . S
H1537 C1563 0.950 . S
H1538 C1564 0.950 . S
H1539 C1566 0.950 . S
H1540 C1569 0.950 . S
H1541 C1570 0.950 . S
H1542 C1572 0.950 . S
H1543 C1573 0.950 . S
C1544 H1526 0.951 . S
C1544 C1545 1.366 . S
C1544 C1546 1.388 . S
C1545 C1544 1.366 . S
C1545 C1549 1.385 . S
C1546 H1527 0.951 . S
C1546 C1544 1.388 . S
C1546 C1547 1.366 . S
C1547 C1546 1.366 . S
C1547 C1548 1.414 . S
C1547 C1550 1.499 . S
C1548 H1528 0.950 . S
C1548 C1547 1.414 . S
C1548 C1549 1.374 . S
C1549 H1529 0.950 . S
C1549 C1545 1.385 . S
C1549 C1548 1.374 . S
C1550 C1547 1.499 . S
C1550 C1551 1.373 . S
C1550 C1552 1.389 . S
C1551 H1530 0.950 . S
C1551 C1550 1.373 . S
C1551 C1567 1.377 . S
C1552 C1550 1.389 . S
C1552 C1553 1.524 . S
C1552 C1566 1.377 . S
C1553 C1552 1.524 . S
C1553 C1554 1.397 . S
C1553 C1558 1.363 . S
C1554 H1531 0.950 . S
C1554 C1553 1.397 . S
C1554 C1555 1.334 . S
C1555 H1532 0.950 . S
C1555 C1554 1.334 . S
C1555 C1556 1.287 . S
C1556 C1555 1.287 . S
C1556 C1557 1.524 . S
C1556 H1575 0.913 . S
C1557 H1533 0.950 . S
C1557 C1556 1.524 . S
C1557 C1558 1.415 . S
C1558 H1534 0.950 . S
C1558 C1553 1.363 . S
C1558 C1557 1.415 . S
C1559 H1535 0.951 . S
C1559 C1560 1.366 . S
C1559 C1561 1.388 . S
C1560 C1559 1.366 . S
C1560 C1564 1.385 . S
C1561 H1536 0.951 . S
C1561 C1559 1.388 . S
C1561 C1562 1.366 . S
C1562 C1561 1.366 . S
C1562 C1563 1.414 . S
C1562 C1565 1.499 . S
C1563 H1537 0.950 . S
C1563 C1562 1.414 . S
C1563 C1564 1.374 . S
C1564 H1538 0.950 . S
C1564 C1560 1.385 . S
C1564 C1563 1.374 . S
C1565 C1562 1.499 . S
C1565 C1566 1.373 . S
C1565 C1567 1.389 . S
C1566 H1539 0.950 . S
C1566 C1552 1.377 . S
C1566 C1565 1.373 . S
C1567 C1551 1.377 . S
C1567 C1565 1.389 . S
C1567 C1568 1.524 . S
C1568 C1567 1.524 . S
C1568 C1569 1.397 . S
C1568 C1573 1.363 . S
C1569 H1540 0.950 . S
C1569 C1568 1.397 . S
C1569 C1570 1.334 . S
C1570 H1541 0.950 . S
C1570 C1569 1.334 . S
C1570 C1571 1.287 . S
C1571 C1570 1.287 . S
C1571 C1572 1.524 . S
C1571 H1574 0.999 . S
C1572 H1542 0.950 . S
C1572 C1571 1.524 . S
C1572 C1573 1.415 . S
C1573 H1543 0.950 . S
C1573 C1568 1.363 . S
C1573 C1572 1.415 . S
H1574 C1571 0.999 . S
H1575 C1556 0.913 . S
H1576 C1594 0.951 . S
H1577 C1596 0.951 . S
H1578 C1598 0.950 . S
H1579 C1599 0.950 . S
H1580 C1601 0.950 . S
H1581 C1604 0.950 . S
H1582 C1605 0.950 . S
H1583 C1607 0.950 . S
H1584 C1608 0.950 . S
H1585 C1609 0.951 1_655 S
H1586 C1611 0.951 . S
H1587 C1613 0.950 . S
H1588 C1614 0.950 . S
H1589 C1616 0.950 1_455 S
H1590 C1619 0.950 . S
H1591 C1620 0.950 . S
H1592 C1622 0.950 . S
H1593 C1623 0.950 . S
C1594 H1576 0.951 . S
C1594 C1595 1.366 . S
C1594 C1596 1.388 . S
C1595 C1594 1.366 . S
C1595 C1599 1.385 . S
C1596 H1577 0.951 . S
C1596 C1594 1.388 . S
C1596 C1597 1.366 . S
C1597 C1596 1.366 . S
C1597 C1598 1.414 . S
C1597 C1600 1.499 . S
C1598 H1578 0.950 . S
C1598 C1597 1.414 . S
C1598 C1599 1.374 . S
C1599 H1579 0.950 . S
C1599 C1595 1.385 . S
C1599 C1598 1.374 . S
C1600 C1597 1.499 . S
C1600 C1601 1.373 . S
C1600 C1602 1.389 . S
C1601 H1580 0.950 . S
C1601 C1600 1.373 . S
C1601 C1617 1.377 . S
C1602 C1600 1.389 . S
C1602 C1603 1.524 . S
C1602 C1616 1.377 . S
C1603 C1602 1.524 . S
C1603 C1604 1.397 . S
C1603 C1608 1.363 1_655 S
C1604 H1581 0.950 . S
C1604 C1603 1.397 . S
C1604 C1605 1.334 1_545 S
C1605 H1582 0.950 . S
C1605 C1604 1.334 1_565 S
C1605 C1606 1.287 . S
C1606 C1605 1.287 . S
C1606 C1607 1.524 1_665 S
C1606 H1625 0.913 . S
C1607 H1583 0.950 . S
C1607 C1606 1.524 1_445 S
C1607 C1608 1.415 . S
C1608 H1584 0.950 . S
C1608 C1603 1.363 1_455 S
C1608 C1607 1.415 . S
C1609 H1585 0.951 1_455 S
C1609 C1610 1.366 . S
C1609 C1611 1.388 1_455 S
C1610 C1609 1.366 . S
C1610 C1614 1.385 . S
C1611 H1586 0.951 . S
C1611 C1609 1.388 1_655 S
C1611 C1612 1.366 1_655 S
C1612 C1611 1.366 1_455 S
C1612 C1613 1.414 . S
C1612 C1615 1.499 1_455 S
C1613 H1587 0.950 . S
C1613 C1612 1.414 . S
C1613 C1614 1.374 . S
C1614 H1588 0.950 . S
C1614 C1610 1.385 . S
C1614 C1613 1.374 . S
C1615 C1612 1.499 1_655 S
C1615 C1616 1.373 . S
C1615 C1617 1.389 . S
C1616 H1589 0.950 1_655 S
C1616 C1602 1.377 . S
C1616 C1615 1.373 . S
C1617 C1601 1.377 . S
C1617 C1615 1.389 . S
C1617 C1618 1.524 . S
C1618 C1617 1.524 . S
C1618 C1619 1.397 1_655 S
C1618 C1623 1.363 . S
C1619 H1590 0.950 . S
C1619 C1618 1.397 1_455 S
C1619 C1620 1.334 . S
C1620 H1591 0.950 . S
C1620 C1619 1.334 . S
C1620 C1621 1.287 1_455 S
C1621 C1620 1.287 1_655 S
C1621 C1622 1.524 . S
C1621 H1624 0.999 . S
C1622 H1592 0.950 . S
C1622 C1621 1.524 . S
C1622 C1623 1.415 . S
C1623 H1593 0.950 . S
C1623 C1618 1.363 . S
C1623 C1622 1.415 . S
H1624 C1621 0.999 . S
H1625 C1606 0.913 . S
H1626 C1644 0.951 . S
H1627 C1646 0.951 . S
H1628 C1648 0.950 . S
H1629 C1649 0.950 . S
H1630 C1651 0.950 . S
H1631 C1654 0.950 . S
H1632 C1655 0.950 . S
H1633 C1657 0.950 . S
H1634 C1658 0.950 . S
H1635 C1659 0.951 . S
H1636 C1661 0.951 . S
H1637 C1663 0.950 . S
H1638 C1664 0.950 . S
H1639 C1666 0.950 . S
H1640 C1669 0.950 . S
H1641 C1670 0.950 . S
H1642 C1672 0.950 . S
H1643 C1673 0.950 . S
C1644 H1626 0.951 . S
C1644 C1645 1.366 . S
C1644 C1646 1.388 . S
C1645 C1644 1.366 . S
C1645 C1649 1.385 . S
C1646 H1627 0.951 . S
C1646 C1644 1.388 . S
C1646 C1647 1.366 . S
C1647 C1646 1.366 . S
C1647 C1648 1.414 . S
C1647 C1650 1.499 . S
C1648 H1628 0.950 . S
C1648 C1647 1.414 . S
C1648 C1649 1.374 . S
C1649 H1629 0.950 . S
C1649 C1645 1.385 . S
C1649 C1648 1.374 . S
C1650 C1647 1.499 . S
C1650 C1651 1.373 . S
C1650 C1652 1.389 . S
C1651 H1630 0.950 . S
C1651 C1650 1.373 . S
C1651 C1667 1.377 . S
C1652 C1650 1.389 . S
C1652 C1653 1.524 . S
C1652 C1666 1.377 . S
C1653 C1652 1.524 . S
C1653 C1654 1.397 . S
C1653 C1658 1.363 . S
C1654 H1631 0.950 . S
C1654 C1653 1.397 . S
C1654 C1655 1.334 . S
C1655 H1632 0.950 . S
C1655 C1654 1.334 . S
C1655 C1656 1.287 . S
C1656 C1655 1.287 . S
C1656 C1657 1.524 . S
C1656 H1675 0.913 . S
C1657 H1633 0.950 . S
C1657 C1656 1.524 . S
C1657 C1658 1.415 . S
C1658 H1634 0.950 . S
C1658 C1653 1.363 . S
C1658 C1657 1.415 . S
C1659 H1635 0.951 . S
C1659 C1660 1.366 . S
C1659 C1661 1.388 . S
C1660 C1659 1.366 . S
C1660 C1664 1.385 . S
C1661 H1636 0.951 . S
C1661 C1659 1.388 . S
C1661 C1662 1.366 . S
C1662 C1661 1.366 . S
C1662 C1663 1.414 . S
C1662 C1665 1.499 . S
C1663 H1637 0.950 . S
C1663 C1662 1.414 . S
C1663 C1664 1.374 . S
C1664 H1638 0.950 . S
C1664 C1660 1.385 . S
C1664 C1663 1.374 . S
C1665 C1662 1.499 . S
C1665 C1666 1.373 . S
C1665 C1667 1.389 . S
C1666 H1639 0.950 . S
C1666 C1652 1.377 . S
C1666 C1665 1.373 . S
C1667 C1651 1.377 . S
C1667 C1665 1.389 . S
C1667 C1668 1.524 . S
C1668 C1667 1.524 . S
C1668 C1669 1.397 . S
C1668 C1673 1.363 . S
C1669 H1640 0.950 . S
C1669 C1668 1.397 . S
C1669 C1670 1.334 . S
C1670 H1641 0.950 . S
C1670 C1669 1.334 . S
C1670 C1671 1.287 . S
C1671 C1670 1.287 . S
C1671 C1672 1.524 . S
C1671 H1674 0.999 . S
C1672 H1642 0.950 . S
C1672 C1671 1.524 . S
C1672 C1673 1.415 . S
C1673 H1643 0.950 . S
C1673 C1668 1.363 . S
C1673 C1672 1.415 . S
H1674 C1671 0.999 . S
H1675 C1656 0.913 . S
H1676 C1694 0.951 . S
H1677 C1696 0.951 . S
H1678 C1698 0.950 . S
H1679 C1699 0.950 . S
H1680 C1701 0.950 . S
H1681 C1704 0.950 . S
H1682 C1705 0.950 . S
H1683 C1707 0.950 . S
H1684 C1708 0.950 . S
H1685 C1709 0.951 . S
H1686 C1711 0.951 . S
H1687 C1713 0.950 . S
H1688 C1714 0.950 . S
H1689 C1716 0.950 . S
H1690 C1719 0.950 . S
H1691 C1720 0.950 . S
H1692 C1722 0.950 . S
H1693 C1723 0.950 . S
C1694 H1676 0.951 . S
C1694 C1695 1.366 . S
C1694 C1696 1.388 . S
C1695 C1694 1.366 . S
C1695 C1699 1.385 . S
C1696 H1677 0.951 . S
C1696 C1694 1.388 . S
C1696 C1697 1.366 . S
C1697 C1696 1.366 . S
C1697 C1698 1.414 . S
C1697 C1700 1.499 . S
C1698 H1678 0.950 . S
C1698 C1697 1.414 . S
C1698 C1699 1.374 . S
C1699 H1679 0.950 . S
C1699 C1695 1.385 . S
C1699 C1698 1.374 . S
C1700 C1697 1.499 . S
C1700 C1701 1.373 . S
C1700 C1702 1.389 . S
C1701 H1680 0.950 . S
C1701 C1700 1.373 . S
C1701 C1717 1.377 . S
C1702 C1700 1.389 . S
C1702 C1703 1.524 . S
C1702 C1716 1.377 . S
C1703 C1702 1.524 . S
C1703 C1704 1.397 . S
C1703 C1708 1.363 . S
C1704 H1681 0.950 . S
C1704 C1703 1.397 . S
C1704 C1705 1.334 . S
C1705 H1682 0.950 . S
C1705 C1704 1.334 . S
C1705 C1706 1.287 . S
C1706 C1705 1.287 . S
C1706 C1707 1.524 . S
C1706 H1725 0.913 . S
C1707 H1683 0.950 . S
C1707 C1706 1.524 . S
C1707 C1708 1.415 . S
C1708 H1684 0.950 . S
C1708 C1703 1.363 . S
C1708 C1707 1.415 . S
C1709 H1685 0.951 . S
C1709 C1710 1.366 . S
C1709 C1711 1.388 . S
C1710 C1709 1.366 . S
C1710 C1714 1.385 . S
C1711 H1686 0.951 . S
C1711 C1709 1.388 . S
C1711 C1712 1.366 . S
C1712 C1711 1.366 . S
C1712 C1713 1.414 . S
C1712 C1715 1.499 . S
C1713 H1687 0.950 . S
C1713 C1712 1.414 . S
C1713 C1714 1.374 . S
C1714 H1688 0.950 . S
C1714 C1710 1.385 . S
C1714 C1713 1.374 . S
C1715 C1712 1.499 . S
C1715 C1716 1.373 . S
C1715 C1717 1.389 . S
C1716 H1689 0.950 . S
C1716 C1702 1.377 . S
C1716 C1715 1.373 . S
C1717 C1701 1.377 . S
C1717 C1715 1.389 . S
C1717 C1718 1.524 . S
C1718 C1717 1.524 . S
C1718 C1719 1.397 . S
C1718 C1723 1.363 . S
C1719 H1690 0.950 . S
C1719 C1718 1.397 . S
C1719 C1720 1.334 . S
C1720 H1691 0.950 . S
C1720 C1719 1.334 . S
C1720 C1721 1.287 . S
C1721 C1720 1.287 . S
C1721 C1722 1.524 . S
C1721 H1724 0.999 1_545 S
C1722 H1692 0.950 . S
C1722 C1721 1.524 . S
C1722 C1723 1.415 . S
C1723 H1693 0.950 . S
C1723 C1718 1.363 . S
C1723 C1722 1.415 . S
H1724 C1721 0.999 1_565 S
H1725 C1706 0.913 . S
H1726 C1744 0.951 . S
H1727 C1746 0.951 . S
H1728 C1748 0.950 . S
H1729 C1749 0.950 . S
H1730 C1751 0.950 . S
H1731 C1754 0.950 . S
H1732 C1755 0.950 . S
H1733 C1757 0.950 . S
H1734 C1758 0.950 . S
H1735 C1759 0.951 . S
H1736 C1761 0.951 . S
H1737 C1763 0.950 . S
H1738 C1764 0.950 . S
H1739 C1766 0.950 . S
H1740 C1769 0.950 . S
H1741 C1770 0.950 . S
H1742 C1772 0.950 . S
H1743 C1773 0.950 . S
C1744 H1726 0.951 . S
C1744 C1745 1.366 . S
C1744 C1746 1.388 . S
C1745 C1744 1.366 . S
C1745 C1749 1.385 . S
C1746 H1727 0.951 . S
C1746 C1744 1.388 . S
C1746 C1747 1.366 . S
C1747 C1746 1.366 . S
C1747 C1748 1.414 . S
C1747 C1750 1.499 . S
C1748 H1728 0.950 . S
C1748 C1747 1.414 . S
C1748 C1749 1.374 . S
C1749 H1729 0.950 . S
C1749 C1745 1.385 . S
C1749 C1748 1.374 . S
C1750 C1747 1.499 . S
C1750 C1751 1.373 . S
C1750 C1752 1.389 . S
C1751 H1730 0.950 . S
C1751 C1750 1.373 . S
C1751 C1767 1.377 . S
C1752 C1750 1.389 . S
C1752 C1753 1.524 . S
C1752 C1766 1.377 . S
C1753 C1752 1.524 . S
C1753 C1754 1.397 . S
C1753 C1758 1.363 . S
C1754 H1731 0.950 . S
C1754 C1753 1.397 . S
C1754 C1755 1.334 . S
C1755 H1732 0.950 . S
C1755 C1754 1.334 . S
C1755 C1756 1.287 . S
C1756 C1755 1.287 . S
C1756 C1757 1.524 . S
C1756 H1775 0.913 . S
C1757 H1733 0.950 . S
C1757 C1756 1.524 . S
C1757 C1758 1.415 . S
C1758 H1734 0.950 . S
C1758 C1753 1.363 . S
C1758 C1757 1.415 . S
C1759 H1735 0.951 . S
C1759 C1760 1.366 . S
C1759 C1761 1.388 . S
C1760 C1759 1.366 . S
C1760 C1764 1.385 . S
C1761 H1736 0.951 . S
C1761 C1759 1.388 . S
C1761 C1762 1.366 . S
C1762 C1761 1.366 . S
C1762 C1763 1.414 . S
C1762 C1765 1.499 . S
C1763 H1737 0.950 . S
C1763 C1762 1.414 . S
C1763 C1764 1.374 . S
C1764 H1738 0.950 . S
C1764 C1760 1.385 . S
C1764 C1763 1.374 . S
C1765 C1762 1.499 . S
C1765 C1766 1.373 . S
C1765 C1767 1.389 . S
C1766 H1739 0.950 . S
C1766 C1752 1.377 . S
C1766 C1765 1.373 . S
C1767 C1751 1.377 . S
C1767 C1765 1.389 . S
C1767 C1768 1.524 . S
C1768 C1767 1.524 . S
C1768 C1769 1.397 . S
C1768 C1773 1.363 . S
C1769 H1740 0.950 . S
C1769 C1768 1.397 . S
C1769 C1770 1.334 . S
C1770 H1741 0.950 . S
C1770 C1769 1.334 . S
C1770 C1771 1.287 . S
C1771 C1770 1.287 . S
C1771 C1772 1.524 . S
C1771 H1774 0.999 . S
C1772 H1742 0.950 . S
C1772 C1771 1.524 . S
C1772 C1773 1.415 . S
C1773 H1743 0.950 . S
C1773 C1768 1.363 . S
C1773 C1772 1.415 . S
H1774 C1771 0.999 . S
H1775 C1756 0.913 . S
H1776 C1794 0.951 . S
H1777 C1796 0.917 1_556 S
H1778 C1798 0.950 . S
H1779 C1799 0.950 . S
H1780 C1801 0.950 . S
H1781 C1804 0.950 . S
H1782 C1805 0.955 1_554 S
H1783 C1807 0.950 . S
H1784 C1808 0.950 . S
H1785 C1809 0.951 . S
H1786 C1811 0.951 . S
H1787 C1813 0.950 . S
H1788 C1814 0.950 . S
H1789 C1816 0.950 . S
H1790 C1819 0.950 . S
H1791 C1820 0.950 . S
H1792 C1822 0.950 . S
H1793 C1823 0.950 . S
C1794 H1776 0.951 . S
C1794 C1795 1.366 1_556 S
C1794 C1796 1.379 1_556 S
C1795 C1794 1.366 1_554 S
C1795 C1799 1.385 . S
C1796 H1777 0.917 1_554 S
C1796 C1794 1.379 1_554 S
C1796 C1797 1.409 . S
C1797 C1796 1.409 . S
C1797 C1798 1.414 . S
C1797 C1800 1.499 . S
C1798 H1778 0.950 . S
C1798 C1797 1.414 . S
C1798 C1799 1.374 . S
C1799 H1779 0.950 . S
C1799 C1795 1.385 . S
C1799 C1798 1.374 . S
C1800 C1797 1.499 . S
C1800 C1801 1.373 . S
C1800 C1802 1.389 . S
C1801 H1780 0.950 . S
C1801 C1800 1.373 . S
C1801 C1817 1.377 . S
C1802 C1800 1.389 . S
C1802 C1803 1.524 . S
C1802 C1816 1.377 . S
C1803 C1802 1.524 . S
C1803 C1804 1.397 . S
C1803 C1808 1.363 1_554 S
C1804 H1781 0.950 . S
C1804 C1803 1.397 . S
C1804 C1805 1.317 1_564 S
C1805 H1782 0.955 1_556 S
C1805 C1804 1.317 1_546 S
C1805 C1806 1.300 . S
C1806 C1805 1.300 . S
C1806 C1807 1.524 1_545 S
C1806 H1825 0.913 . S
C1807 H1783 0.950 . S
C1807 C1806 1.524 1_565 S
C1807 C1808 1.415 . S
C1808 H1784 0.950 . S
C1808 C1803 1.363 1_556 S
C1808 C1807 1.415 . S
C1809 H1785 0.951 . S
C1809 C1810 1.366 . S
C1809 C1811 1.388 . S
C1810 C1809 1.366 . S
C1810 C1814 1.385 . S
C1811 H1786 0.951 . S
C1811 C1809 1.388 . S
C1811 C1812 1.366 . S
C1812 C1811 1.366 . S
C1812 C1813 1.414 . S
C1812 C1815 1.499 . S
C1813 H1787 0.950 . S
C1813 C1812 1.414 . S
C1813 C1814 1.374 . S
C1814 H1788 0.950 . S
C1814 C1810 1.385 . S
C1814 C1813 1.374 . S
C1815 C1812 1.499 . S
C1815 C1816 1.373 . S
C1815 C1817 1.389 . S
C1816 H1789 0.950 . S
C1816 C1802 1.377 . S
C1816 C1815 1.373 . S
C1817 C1801 1.377 . S
C1817 C1815 1.389 . S
C1817 C1818 1.524 . S
C1818 C1817 1.524 . S
C1818 C1819 1.397 . S
C1818 C1823 1.363 . S
C1819 H1790 0.950 . S
C1819 C1818 1.397 . S
C1819 C1820 1.334 . S
C1820 H1791 0.950 . S
C1820 C1819 1.334 . S
C1820 C1821 1.287 . S
C1821 C1820 1.287 . S
C1821 C1822 1.524 . S
C1821 H1824 0.999 . S
C1822 H1792 0.950 . S
C1822 C1821 1.524 . S
C1822 C1823 1.415 . S
C1823 H1793 0.950 . S
C1823 C1818 1.363 . S
C1823 C1822 1.415 . S
H1824 C1821 0.999 . S
H1825 C1806 0.913 . S
H1826 C1844 0.951 . S
H1827 C1846 0.951 . S
H1828 C1848 0.950 . S
H1829 C1849 0.950 . S
H1830 C1851 0.950 . S
H1831 C1854 0.950 . S
H1832 C1855 0.950 . S
H1833 C1857 0.950 . S
H1834 C1858 0.950 . S
H1835 C1859 0.951 . S
H1836 C1861 0.951 . S
H1837 C1863 0.950 . S
H1838 C1864 0.950 . S
H1839 C1866 0.950 . S
H1840 C1869 0.950 . S
H1841 C1870 0.950 . S
H1842 C1872 0.950 . S
H1843 C1873 0.950 . S
C1844 H1826 0.951 . S
C1844 C1845 1.354 1_556 S
C1844 C1846 1.388 . S
C1845 C1844 1.354 1_554 S
C1845 C1849 1.406 . S
C1846 H1827 0.951 . S
C1846 C1844 1.388 . S
C1846 C1847 1.356 1_556 S
C1847 C1846 1.356 1_554 S
C1847 C1848 1.420 . S
C1847 C1850 1.491 . S
C1848 H1828 0.950 . S
C1848 C1847 1.420 . S
C1848 C1849 1.374 . S
C1849 H1829 0.950 . S
C1849 C1845 1.406 . S
C1849 C1848 1.374 . S
C1850 C1847 1.491 . S
C1850 C1851 1.429 . S
C1850 C1852 1.349 1_554 S
C1851 H1830 0.950 . S
C1851 C1850 1.429 . S
C1851 C1867 1.377 . S
C1852 C1850 1.349 1_556 S
C1852 C1853 1.524 . S
C1852 C1866 1.377 . S
C1853 C1852 1.524 . S
C1853 C1854 1.397 . S
C1853 C1858 1.363 . S
C1854 H1831 0.950 . S
C1854 C1853 1.397 . S
C1854 C1855 1.334 . S
C1855 H1832 0.950 . S
C1855 C1854 1.334 . S
C1855 C1856 1.287 . S
C1856 C1855 1.287 . S
C1856 C1857 1.524 . S
C1856 H1875 0.913 . S
C1857 H1833 0.950 . S
C1857 C1856 1.524 . S
C1857 C1858 1.415 . S
C1858 H1834 0.950 . S
C1858 C1853 1.363 . S
C1858 C1857 1.415 . S
C1859 H1835 0.951 . S
C1859 C1860 1.366 . S
C1859 C1861 1.388 . S
C1860 C1859 1.366 . S
C1860 C1864 1.385 1_554 S
C1861 H1836 0.951 . S
C1861 C1859 1.388 . S
C1861 C1862 1.366 . S
C1862 C1861 1.366 . S
C1862 C1863 1.414 1_554 S
C1862 C1865 1.499 . S
C1863 H1837 0.950 . S
C1863 C1862 1.414 1_556 S
C1863 C1864 1.374 . S
C1864 H1838 0.950 . S
C1864 C1860 1.385 1_556 S
C1864 C1863 1.374 . S
C1865 C1862 1.499 . S
C1865 C1866 1.373 1_554 S
C1865 C1867 1.389 . S
C1866 H1839 0.950 . S
C1866 C1852 1.377 . S
C1866 C1865 1.373 1_556 S
C1867 C1851 1.377 . S
C1867 C1865 1.389 . S
C1867 C1868 1.524 . S
C1868 C1867 1.524 . S
C1868 C1869 1.397 . S
C1868 C1873 1.363 . S
C1869 H1840 0.950 . S
C1869 C1868 1.397 . S
C1869 C1870 1.334 . S
C1870 H1841 0.950 . S
C1870 C1869 1.334 . S
C1870 C1871 1.287 . S
C1871 C1870 1.287 . S
C1871 C1872 1.524 . S
C1871 H1874 0.999 . S
C1872 H1842 0.950 . S
C1872 C1871 1.524 . S
C1872 C1873 1.415 . S
C1873 H1843 0.950 . S
C1873 C1868 1.363 . S
C1873 C1872 1.415 . S
H1874 C1871 0.999 . S
H1875 C1856 0.913 . S
H1876 C1894 0.951 . S
H1877 C1896 0.951 . S
H1878 C1898 0.950 . S
H1879 C1899 0.950 . S
H1880 C1901 0.950 . S
H1881 C1904 0.950 . S
H1882 C1905 0.950 . S
H1883 C1907 0.950 . S
H1884 C1908 0.950 . S
H1885 C1909 0.951 . S
H1886 C1911 0.951 . S
H1887 C1913 0.950 . S
H1888 C1914 0.950 . S
H1889 C1916 0.950 . S
H1890 C1919 0.950 . S
H1891 C1920 0.950 . S
H1892 C1922 0.950 . S
H1893 C1923 0.950 . S
C1894 H1876 0.951 . S
C1894 C1895 1.366 . S
C1894 C1896 1.388 . S
C1895 C1894 1.366 . S
C1895 C1899 1.385 . S
C1896 H1877 0.951 . S
C1896 C1894 1.388 . S
C1896 C1897 1.366 . S
C1897 C1896 1.366 . S
C1897 C1898 1.414 . S
C1897 C1900 1.499 . S
C1898 H1878 0.950 . S
C1898 C1897 1.414 . S
C1898 C1899 1.374 . S
C1899 H1879 0.950 . S
C1899 C1895 1.385 . S
C1899 C1898 1.374 . S
C1900 C1897 1.499 . S
C1900 C1901 1.373 . S
C1900 C1902 1.389 . S
C1901 H1880 0.950 . S
C1901 C1900 1.373 . S
C1901 C1917 1.377 . S
C1902 C1900 1.389 . S
C1902 C1903 1.524 . S
C1902 C1916 1.377 . S
C1903 C1902 1.524 . S
C1903 C1904 1.397 . S
C1903 C1908 1.363 . S
C1904 H1881 0.950 . S
C1904 C1903 1.397 . S
C1904 C1905 1.334 . S
C1905 H1882 0.950 . S
C1905 C1904 1.334 . S
C1905 C1906 1.287 . S
C1906 C1905 1.287 . S
C1906 C1907 1.524 . S
C1906 H1925 0.913 . S
C1907 H1883 0.950 . S
C1907 C1906 1.524 . S
C1907 C1908 1.415 . S
C1908 H1884 0.950 . S
C1908 C1903 1.363 . S
C1908 C1907 1.415 . S
C1909 H1885 0.951 . S
C1909 C1910 1.366 . S
C1909 C1911 1.388 . S
C1910 C1909 1.366 . S
C1910 C1914 1.385 . S
C1911 H1886 0.951 . S
C1911 C1909 1.388 . S
C1911 C1912 1.366 . S
C1912 C1911 1.366 . S
C1912 C1913 1.414 . S
C1912 C1915 1.499 . S
C1913 H1887 0.950 . S
C1913 C1912 1.414 . S
C1913 C1914 1.374 . S
C1914 H1888 0.950 . S
C1914 C1910 1.385 . S
C1914 C1913 1.374 . S
C1915 C1912 1.499 . S
C1915 C1916 1.373 . S
C1915 C1917 1.389 . S
C1916 H1889 0.950 . S
C1916 C1902 1.377 . S
C1916 C1915 1.373 . S
C1917 C1901 1.377 . S
C1917 C1915 1.389 . S
C1917 C1918 1.524 . S
C1918 C1917 1.524 . S
C1918 C1919 1.397 . S
C1918 C1923 1.363 . S
C1919 H1890 0.950 . S
C1919 C1918 1.397 . S
C1919 C1920 1.334 . S
C1920 H1891 0.950 . S
C1920 C1919 1.334 . S
C1920 C1921 1.287 . S
C1921 C1920 1.287 . S
C1921 C1922 1.524 . S
C1921 H1924 0.999 . S
C1922 H1892 0.950 . S
C1922 C1921 1.524 . S
C1922 C1923 1.415 . S
C1923 H1893 0.950 . S
C1923 C1918 1.363 . S
C1923 C1922 1.415 . S
H1924 C1921 0.999 . S
H1925 C1906 0.913 . S
H1926 C1944 0.951 . S
H1927 C1946 0.951 . S
H1928 C1948 0.950 . S
H1929 C1949 0.950 . S
H1930 C1951 0.950 . S
H1931 C1954 0.950 . S
H1932 C1955 0.950 . S
H1933 C1957 0.950 . S
H1934 C1958 0.950 . S
H1935 C1959 0.951 . S
H1936 C1961 0.951 . S
H1937 C1963 0.950 . S
H1938 C1964 0.949 1_455 S
H1939 C1966 0.950 . S
H1940 C1969 0.950 . S
H1941 C1970 0.950 . S
H1942 C1972 0.950 . S
H1943 C1973 0.950 . S
C1944 H1926 0.951 . S
C1944 C1945 1.366 . S
C1944 C1946 1.388 . S
C1945 C1944 1.366 . S
C1945 C1949 1.385 . S
C1946 H1927 0.951 . S
C1946 C1944 1.388 . S
C1946 C1947 1.366 . S
C1947 C1946 1.366 . S
C1947 C1948 1.414 . S
C1947 C1950 1.499 . S
C1948 H1928 0.950 . S
C1948 C1947 1.414 . S
C1948 C1949 1.374 . S
C1949 H1929 0.950 . S
C1949 C1945 1.385 . S
C1949 C1948 1.374 . S
C1950 C1947 1.499 . S
C1950 C1951 1.373 . S
C1950 C1952 1.389 . S
C1951 H1930 0.950 . S
C1951 C1950 1.373 . S
C1951 C1967 1.377 . S
C1952 C1950 1.389 . S
C1952 C1953 1.524 . S
C1952 C1966 1.377 . S
C1953 C1952 1.524 . S
C1953 C1954 1.397 . S
C1953 C1958 1.363 . S
C1954 H1931 0.950 . S
C1954 C1953 1.397 . S
C1954 C1955 1.334 . S
C1955 H1932 0.950 . S
C1955 C1954 1.334 . S
C1955 C1956 1.287 . S
C1956 C1955 1.287 . S
C1956 C1957 1.524 . S
C1956 H1975 0.913 . S
C1957 H1933 0.950 . S
C1957 C1956 1.524 . S
C1957 C1958 1.415 . S
C1958 H1934 0.950 . S
C1958 C1953 1.363 . S
C1958 C1957 1.415 . S
C1959 H1935 0.951 . S
C1959 C1960 1.366 . S
C1959 C1961 1.388 . S
C1960 C1959 1.366 . S
C1960 C1964 1.385 . S
C1961 H1936 0.951 . S
C1961 C1959 1.388 . S
C1961 C1962 1.366 . S
C1962 C1961 1.366 . S
C1962 C1963 1.414 . S
C1962 C1965 1.499 . S
C1963 H1937 0.950 . S
C1963 C1962 1.414 . S
C1963 C1964 1.374 . S
C1964 H1938 0.949 1_655 S
C1964 C1960 1.385 . S
C1964 C1963 1.374 . S
C1965 C1962 1.499 . S
C1965 C1966 1.373 . S
C1965 C1967 1.389 . S
C1966 H1939 0.950 . S
C1966 C1952 1.377 . S
C1966 C1965 1.373 . S
C1967 C1951 1.377 . S
C1967 C1965 1.389 . S
C1967 C1968 1.524 . S
C1968 C1967 1.524 . S
C1968 C1969 1.397 . S
C1968 C1973 1.363 . S
C1969 H1940 0.950 . S
C1969 C1968 1.397 . S
C1969 C1970 1.334 . S
C1970 H1941 0.950 . S
C1970 C1969 1.334 . S
C1970 C1971 1.287 . S
C1971 C1970 1.287 . S
C1971 C1972 1.524 . S
C1971 H1974 0.999 . S
C1972 H1942 0.950 . S
C1972 C1971 1.524 . S
C1972 C1973 1.415 . S
C1973 H1943 0.950 . S
C1973 C1968 1.363 . S
C1973 C1972 1.415 . S
H1974 C1971 0.999 . S
H1975 C1956 0.913 . S
H1976 C1994 0.951 . S
H1977 C1996 0.951 . S
H1978 C1998 0.950 . S
H1979 C1999 0.950 . S
H1980 C2001 0.950 . S
H1981 C2004 0.950 . S
H1982 C2005 0.950 . S
H1983 C2007 0.950 . S
H1984 C2008 0.950 . S
H1985 C2009 0.951 . S
H1986 C2011 0.951 . S
H1987 C2013 0.950 . S
H1988 C2014 0.950 . S
H1989 C2016 0.950 . S
H1990 C2019 0.950 . S
H1991 C2020 0.950 . S
H1992 C2022 0.950 . S
H1993 C2023 0.950 . S
C1994 H1976 0.951 . S
C1994 C1995 1.366 . S
C1994 C1996 1.388 . S
C1995 C1994 1.366 . S
C1995 C1999 1.385 . S
C1996 H1977 0.951 . S
C1996 C1994 1.388 . S
C1996 C1997 1.366 . S
C1997 C1996 1.366 . S
C1997 C1998 1.414 . S
C1997 C2000 1.499 . S
C1998 H1978 0.950 . S
C1998 C1997 1.414 . S
C1998 C1999 1.374 . S
C1999 H1979 0.950 . S
C1999 C1995 1.385 . S
C1999 C1998 1.374 . S
C2000 C1997 1.499 . S
C2000 C2001 1.373 . S
C2000 C2002 1.389 . S
C2001 H1980 0.950 . S
C2001 C2000 1.373 . S
C2001 C2017 1.377 . S
C2002 C2000 1.389 . S
C2002 C2003 1.524 . S
C2002 C2016 1.377 . S
C2003 C2002 1.524 . S
C2003 C2004 1.397 . S
C2003 C2008 1.363 . S
C2004 H1981 0.950 . S
C2004 C2003 1.397 . S
C2004 C2005 1.334 . S
C2005 H1982 0.950 . S
C2005 C2004 1.334 . S
C2005 C2006 1.287 . S
C2006 C2005 1.287 . S
C2006 C2007 1.524 . S
C2006 H2025 0.913 . S
C2007 H1983 0.950 . S
C2007 C2006 1.524 . S
C2007 C2008 1.415 . S
C2008 H1984 0.950 . S
C2008 C2003 1.363 . S
C2008 C2007 1.415 . S
C2009 H1985 0.951 . S
C2009 C2010 1.366 . S
C2009 C2011 1.388 . S
C2010 C2009 1.366 . S
C2010 C2014 1.385 . S
C2011 H1986 0.951 . S
C2011 C2009 1.388 . S
C2011 C2012 1.366 . S
C2012 C2011 1.366 . S
C2012 C2013 1.414 . S
C2012 C2015 1.499 . S
C2013 H1987 0.950 . S
C2013 C2012 1.414 . S
C2013 C2014 1.374 . S
C2014 H1988 0.950 . S
C2014 C2010 1.385 . S
C2014 C2013 1.374 . S
C2015 C2012 1.499 . S
C2015 C2016 1.373 . S
C2015 C2017 1.389 . S
C2016 H1989 0.950 . S
C2016 C2002 1.377 . S
C2016 C2015 1.373 . S
C2017 C2001 1.377 . S
C2017 C2015 1.389 . S
C2017 C2018 1.524 . S
C2018 C2017 1.524 . S
C2018 C2019 1.397 . S
C2018 C2023 1.363 . S
C2019 H1990 0.950 . S
C2019 C2018 1.397 . S
C2019 C2020 1.334 . S
C2020 H1991 0.950 . S
C2020 C2019 1.334 . S
C2020 C2021 1.287 . S
C2021 C2020 1.287 . S
C2021 C2022 1.524 . S
C2021 H2024 0.999 . S
C2022 H1992 0.950 . S
C2022 C2021 1.524 . S
C2022 C2023 1.415 . S
C2023 H1993 0.950 . S
C2023 C2018 1.363 . S
C2023 C2022 1.415 . S
H2024 C2021 0.999 . S
H2025 C2006 0.913 . S
H2026 C2044 0.951 . S
H2027 C2046 0.951 . S
H2028 C2048 0.950 . S
H2029 C2049 0.950 . S
H2030 C2051 0.950 . S
H2031 C2054 0.950 . S
H2032 C2055 0.950 . S
H2033 C2057 0.950 . S
H2034 C2058 0.950 . S
H2035 C2059 0.951 . S
H2036 C2061 0.951 . S
H2037 C2063 0.950 . S
H2038 C2064 0.950 . S
H2039 C2066 0.950 . S
H2040 C2069 0.950 . S
H2041 C2070 0.950 . S
H2042 C2072 0.950 . S
H2043 C2073 0.950 . S
C2044 H2026 0.951 . S
C2044 C2045 1.366 . S
C2044 C2046 1.388 . S
C2045 C2044 1.366 . S
C2045 C2049 1.385 . S
C2046 H2027 0.951 . S
C2046 C2044 1.388 . S
C2046 C2047 1.366 . S
C2047 C2046 1.366 . S
C2047 C2048 1.414 . S
C2047 C2050 1.499 . S
C2048 H2028 0.950 . S
C2048 C2047 1.414 . S
C2048 C2049 1.374 . S
C2049 H2029 0.950 . S
C2049 C2045 1.385 . S
C2049 C2048 1.374 . S
C2050 C2047 1.499 . S
C2050 C2051 1.373 . S
C2050 C2052 1.389 . S
C2051 H2030 0.950 . S
C2051 C2050 1.373 . S
C2051 C2067 1.377 . S
C2052 C2050 1.389 . S
C2052 C2053 1.524 . S
C2052 C2066 1.377 . S
C2053 C2052 1.524 . S
C2053 C2054 1.397 . S
C2053 C2058 1.363 . S
C2054 H2031 0.950 . S
C2054 C2053 1.397 . S
C2054 C2055 1.334 . S
C2055 H2032 0.950 . S
C2055 C2054 1.334 . S
C2055 C2056 1.287 . S
C2056 C2055 1.287 . S
C2056 C2057 1.524 . S
C2056 H2075 0.913 . S
C2057 H2033 0.950 . S
C2057 C2056 1.524 . S
C2057 C2058 1.415 . S
C2058 H2034 0.950 . S
C2058 C2053 1.363 . S
C2058 C2057 1.415 . S
C2059 H2035 0.951 . S
C2059 C2060 1.366 . S
C2059 C2061 1.388 . S
C2060 C2059 1.366 . S
C2060 C2064 1.385 . S
C2061 H2036 0.951 . S
C2061 C2059 1.388 . S
C2061 C2062 1.366 . S
C2062 C2061 1.366 . S
C2062 C2063 1.414 . S
C2062 C2065 1.499 . S
C2063 H2037 0.950 . S
C2063 C2062 1.414 . S
C2063 C2064 1.374 . S
C2064 H2038 0.950 . S
C2064 C2060 1.385 . S
C2064 C2063 1.374 . S
C2065 C2062 1.499 . S
C2065 C2066 1.373 . S
C2065 C2067 1.389 . S
C2066 H2039 0.950 . S
C2066 C2052 1.377 . S
C2066 C2065 1.373 . S
C2067 C2051 1.377 . S
C2067 C2065 1.389 . S
C2067 C2068 1.524 . S
C2068 C2067 1.524 . S
C2068 C2069 1.397 . S
C2068 C2073 1.363 . S
C2069 H2040 0.950 . S
C2069 C2068 1.397 . S
C2069 C2070 1.334 . S
C2070 H2041 0.950 . S
C2070 C2069 1.334 . S
C2070 C2071 1.287 . S
C2071 C2070 1.287 . S
C2071 C2072 1.524 . S
C2071 H2074 0.999 . S
C2072 H2042 0.950 . S
C2072 C2071 1.524 . S
C2072 C2073 1.415 . S
C2073 H2043 0.950 . S
C2073 C2068 1.363 . S
C2073 C2072 1.415 . S
H2074 C2071 0.999 . S
H2075 C2056 0.913 . S
H2076 C2094 0.951 . S
H2077 C2096 0.951 . S
H2078 C2098 0.950 . S
H2079 C2099 0.950 . S
H2080 C2101 0.950 . S
H2081 C2104 0.950 . S
H2082 C2105 0.950 . S
H2083 C2107 0.950 . S
H2084 C2108 0.950 . S
H2085 C2109 0.951 . S
H2086 C2111 0.951 . S
H2087 C2113 0.950 . S
H2088 C2114 0.950 . S
H2089 C2116 0.950 . S
H2090 C2119 0.950 . S
H2091 C2120 0.950 . S
H2092 C2122 0.950 . S
H2093 C2123 0.950 . S
C2094 H2076 0.951 . S
C2094 C2095 1.366 . S
C2094 C2096 1.388 . S
C2095 C2094 1.366 . S
C2095 C2099 1.385 . S
C2096 H2077 0.951 . S
C2096 C2094 1.388 . S
C2096 C2097 1.366 . S
C2097 C2096 1.366 . S
C2097 C2098 1.414 . S
C2097 C2100 1.499 . S
C2098 H2078 0.950 . S
C2098 C2097 1.414 . S
C2098 C2099 1.374 . S
C2099 H2079 0.950 . S
C2099 C2095 1.385 . S
C2099 C2098 1.374 . S
C2100 C2097 1.499 . S
C2100 C2101 1.373 . S
C2100 C2102 1.389 . S
C2101 H2080 0.950 . S
C2101 C2100 1.373 . S
C2101 C2117 1.377 . S
C2102 C2100 1.389 . S
C2102 C2103 1.524 . S
C2102 C2116 1.377 . S
C2103 C2102 1.524 . S
C2103 C2104 1.397 . S
C2103 C2108 1.363 . S
C2104 H2081 0.950 . S
C2104 C2103 1.397 . S
C2104 C2105 1.334 . S
C2105 H2082 0.950 . S
C2105 C2104 1.334 . S
C2105 C2106 1.287 . S
C2106 C2105 1.287 . S
C2106 C2107 1.524 . S
C2106 H2125 0.913 . S
C2107 H2083 0.950 . S
C2107 C2106 1.524 . S
C2107 C2108 1.415 . S
C2108 H2084 0.950 . S
C2108 C2103 1.363 . S
C2108 C2107 1.415 . S
C2109 H2085 0.951 . S
C2109 C2110 1.366 . S
C2109 C2111 1.388 . S
C2110 C2109 1.366 . S
C2110 C2114 1.385 . S
C2111 H2086 0.951 . S
C2111 C2109 1.388 . S
C2111 C2112 1.366 . S
C2112 C2111 1.366 . S
C2112 C2113 1.414 . S
C2112 C2115 1.499 . S
C2113 H2087 0.950 . S
C2113 C2112 1.414 . S
C2113 C2114 1.374 . S
C2114 H2088 0.950 . S
C2114 C2110 1.385 . S
C2114 C2113 1.374 . S
C2115 C2112 1.499 . S
C2115 C2116 1.373 . S
C2115 C2117 1.389 . S
C2116 H2089 0.950 . S
C2116 C2102 1.377 . S
C2116 C2115 1.373 . S
C2117 C2101 1.377 . S
C2117 C2115 1.389 . S
C2117 C2118 1.524 . S
C2118 C2117 1.524 . S
C2118 C2119 1.397 . S
C2118 C2123 1.363 . S
C2119 H2090 0.950 . S
C2119 C2118 1.397 . S
C2119 C2120 1.334 . S
C2120 H2091 0.950 . S
C2120 C2119 1.334 . S
C2120 C2121 1.287 . S
C2121 C2120 1.287 . S
C2121 C2122 1.524 . S
C2121 H2124 0.999 . S
C2122 H2092 0.950 . S
C2122 C2121 1.524 . S
C2122 C2123 1.415 . S
C2123 H2093 0.950 . S
C2123 C2118 1.363 . S
C2123 C2122 1.415 . S
H2124 C2121 0.999 . S
H2125 C2106 0.913 . S
H2126 C2144 0.951 . S
H2127 C2146 0.951 . S
H2128 C2148 0.950 . S
H2129 C2149 0.950 . S
H2130 C2151 0.950 . S
H2131 C2154 0.950 . S
H2132 C2155 0.950 . S
H2133 C2157 0.950 . S
H2134 C2158 0.950 . S
H2135 C2159 0.951 . S
H2136 C2161 0.951 . S
H2137 C2163 0.950 . S
H2138 C2164 0.950 . S
H2139 C2166 0.950 . S
H2140 C2169 0.950 . S
H2141 C2170 0.950 . S
H2142 C2172 0.950 . S
H2143 C2173 0.950 . S
C2144 H2126 0.951 . S
C2144 C2145 1.366 . S
C2144 C2146 1.388 . S
C2145 C2144 1.366 . S
C2145 C2149 1.385 . S
C2146 H2127 0.951 . S
C2146 C2144 1.388 . S
C2146 C2147 1.366 . S
C2147 C2146 1.366 . S
C2147 C2148 1.414 . S
C2147 C2150 1.499 . S
C2148 H2128 0.950 . S
C2148 C2147 1.414 . S
C2148 C2149 1.374 . S
C2149 H2129 0.950 . S
C2149 C2145 1.385 . S
C2149 C2148 1.374 . S
C2150 C2147 1.499 . S
C2150 C2151 1.373 . S
C2150 C2152 1.389 . S
C2151 H2130 0.950 . S
C2151 C2150 1.373 . S
C2151 C2167 1.377 . S
C2152 C2150 1.389 . S
C2152 C2153 1.524 . S
C2152 C2166 1.377 . S
C2153 C2152 1.524 . S
C2153 C2154 1.397 . S
C2153 C2158 1.363 . S
C2154 H2131 0.950 . S
C2154 C2153 1.397 . S
C2154 C2155 1.334 . S
C2155 H2132 0.950 . S
C2155 C2154 1.334 . S
C2155 C2156 1.287 . S
C2156 C2155 1.287 . S
C2156 C2157 1.524 . S
C2156 H2175 0.913 . S
C2157 H2133 0.950 . S
C2157 C2156 1.524 . S
C2157 C2158 1.415 . S
C2158 H2134 0.950 . S
C2158 C2153 1.363 . S
C2158 C2157 1.415 . S
C2159 H2135 0.951 . S
C2159 C2160 1.366 . S
C2159 C2161 1.388 . S
C2160 C2159 1.366 . S
C2160 C2164 1.385 . S
C2161 H2136 0.951 . S
C2161 C2159 1.388 . S
C2161 C2162 1.366 . S
C2162 C2161 1.366 . S
C2162 C2163 1.414 . S
C2162 C2165 1.499 . S
C2163 H2137 0.950 . S
C2163 C2162 1.414 . S
C2163 C2164 1.374 . S
C2164 H2138 0.950 . S
C2164 C2160 1.385 . S
C2164 C2163 1.374 . S
C2165 C2162 1.499 . S
C2165 C2166 1.373 . S
C2165 C2167 1.389 . S
C2166 H2139 0.950 . S
C2166 C2152 1.377 . S
C2166 C2165 1.373 . S
C2167 C2151 1.377 . S
C2167 C2165 1.389 . S
C2167 C2168 1.524 . S
C2168 C2167 1.524 . S
C2168 C2169 1.397 . S
C2168 C2173 1.363 . S
C2169 H2140 0.950 . S
C2169 C2168 1.397 . S
C2169 C2170 1.334 . S
C2170 H2141 0.950 . S
C2170 C2169 1.334 . S
C2170 C2171 1.287 . S
C2171 C2170 1.287 . S
C2171 C2172 1.524 . S
C2171 H2174 0.999 . S
C2172 H2142 0.950 . S
C2172 C2171 1.524 . S
C2172 C2173 1.415 . S
C2173 H2143 0.950 . S
C2173 C2168 1.363 . S
C2173 C2172 1.415 . S
H2174 C2171 0.999 . S
H2175 C2156 0.913 . S
H2176 C2194 0.951 . S
H2177 C2196 0.951 . S
H2178 C2198 0.950 . S
H2179 C2199 0.950 . S
H2180 C2201 0.950 . S
H2181 C2204 0.950 . S
H2182 C2205 0.950 . S
H2183 C2207 0.950 . S
H2184 C2208 0.950 . S
H2185 C2209 0.951 . S
H2186 C2211 0.951 . S
H2187 C2213 0.950 . S
H2188 C2214 0.950 . S
H2189 C2216 0.950 . S
H2190 C2219 0.950 . S
H2191 C2220 0.950 . S
H2192 C2222 0.950 . S
H2193 C2223 0.950 . S
C2194 H2176 0.951 . S
C2194 C2195 1.366 . S
C2194 C2196 1.388 . S
C2195 C2194 1.366 . S
C2195 C2199 1.385 . S
C2196 H2177 0.951 . S
C2196 C2194 1.388 . S
C2196 C2197 1.366 . S
C2197 C2196 1.366 . S
C2197 C2198 1.414 . S
C2197 C2200 1.499 . S
C2198 H2178 0.950 . S
C2198 C2197 1.414 . S
C2198 C2199 1.374 . S
C2199 H2179 0.950 . S
C2199 C2195 1.385 . S
C2199 C2198 1.374 . S
C2200 C2197 1.499 . S
C2200 C2201 1.373 . S
C2200 C2202 1.389 . S
C2201 H2180 0.950 . S
C2201 C2200 1.373 . S
C2201 C2217 1.377 . S
C2202 C2200 1.389 . S
C2202 C2203 1.524 . S
C2202 C2216 1.377 . S
C2203 C2202 1.524 . S
C2203 C2204 1.397 . S
C2203 C2208 1.363 . S
C2204 H2181 0.950 . S
C2204 C2203 1.397 . S
C2204 C2205 1.334 . S
C2205 H2182 0.950 . S
C2205 C2204 1.334 . S
C2205 C2206 1.287 1_554 S
C2206 C2205 1.287 1_556 S
C2206 C2207 1.524 . S
C2206 H2225 0.913 . S
C2207 H2183 0.950 . S
C2207 C2206 1.524 . S
C2207 C2208 1.415 1_556 S
C2208 H2184 0.950 . S
C2208 C2203 1.363 . S
C2208 C2207 1.415 1_554 S
C2209 H2185 0.951 . S
C2209 C2210 1.366 . S
C2209 C2211 1.388 . S
C2210 C2209 1.366 . S
C2210 C2214 1.385 . S
C2211 H2186 0.951 . S
C2211 C2209 1.388 . S
C2211 C2212 1.366 . S
C2212 C2211 1.366 . S
C2212 C2213 1.414 . S
C2212 C2215 1.499 . S
C2213 H2187 0.950 . S
C2213 C2212 1.414 . S
C2213 C2214 1.374 . S
C2214 H2188 0.950 . S
C2214 C2210 1.385 . S
C2214 C2213 1.374 . S
C2215 C2212 1.499 . S
C2215 C2216 1.373 . S
C2215 C2217 1.389 . S
C2216 H2189 0.950 . S
C2216 C2202 1.377 . S
C2216 C2215 1.373 . S
C2217 C2201 1.377 . S
C2217 C2215 1.389 . S
C2217 C2218 1.524 . S
C2218 C2217 1.524 . S
C2218 C2219 1.397 . S
C2218 C2223 1.363 . S
C2219 H2190 0.950 . S
C2219 C2218 1.397 . S
C2219 C2220 1.334 . S
C2220 H2191 0.950 . S
C2220 C2219 1.334 . S
C2220 C2221 1.287 . S
C2221 C2220 1.287 . S
C2221 C2222 1.524 . S
C2221 H2224 0.999 . S
C2222 H2192 0.950 . S
C2222 C2221 1.524 . S
C2222 C2223 1.415 . S
C2223 H2193 0.950 . S
C2223 C2218 1.363 . S
C2223 C2222 1.415 . S
H2224 C2221 0.999 . S
H2225 C2206 0.913 . S
H2226 C2244 0.951 . S
H2227 C2246 0.951 . S
H2228 C2248 0.950 . S
H2229 C2249 0.950 . S
H2230 C2251 0.950 . S
H2231 C2254 0.950 . S
H2232 C2255 0.950 . S
H2233 C2257 0.950 . S
H2234 C2258 0.950 . S
H2235 C2259 0.951 . S
H2236 C2261 0.951 . S
H2237 C2263 0.950 . S
H2238 C2264 0.950 . S
H2239 C2266 0.950 . S
H2240 C2269 0.950 . S
H2241 C2270 0.950 . S
H2242 C2272 0.950 . S
H2243 C2273 0.950 . S
C2244 H2226 0.951 . S
C2244 C2245 1.366 . S
C2244 C2246 1.388 . S
C2245 C2244 1.366 . S
C2245 C2249 1.385 . S
C2246 H2227 0.951 . S
C2246 C2244 1.388 . S
C2246 C2247 1.366 . S
C2247 C2246 1.366 . S
C2247 C2248 1.414 . S
C2247 C2250 1.499 . S
C2248 H2228 0.950 . S
C2248 C2247 1.414 . S
C2248 C2249 1.374 . S
C2249 H2229 0.950 . S
C2249 C2245 1.385 . S
C2249 C2248 1.374 . S
C2250 C2247 1.499 . S
C2250 C2251 1.373 . S
C2250 C2252 1.389 . S
C2251 H2230 0.950 . S
C2251 C2250 1.373 . S
C2251 C2267 1.377 . S
C2252 C2250 1.389 . S
C2252 C2253 1.524 . S
C2252 C2266 1.377 . S
C2253 C2252 1.524 . S
C2253 C2254 1.397 . S
C2253 C2258 1.363 . S
C2254 H2231 0.950 . S
C2254 C2253 1.397 . S
C2254 C2255 1.334 . S
C2255 H2232 0.950 . S
C2255 C2254 1.334 . S
C2255 C2256 1.287 . S
C2256 C2255 1.287 . S
C2256 C2257 1.524 . S
C2256 H2275 0.913 . S
C2257 H2233 0.950 . S
C2257 C2256 1.524 . S
C2257 C2258 1.415 . S
C2258 H2234 0.950 . S
C2258 C2253 1.363 . S
C2258 C2257 1.415 . S
C2259 H2235 0.951 . S
C2259 C2260 1.366 . S
C2259 C2261 1.388 . S
C2260 C2259 1.366 . S
C2260 C2264 1.385 . S
C2261 H2236 0.951 . S
C2261 C2259 1.388 . S
C2261 C2262 1.366 . S
C2262 C2261 1.366 . S
C2262 C2263 1.414 . S
C2262 C2265 1.499 . S
C2263 H2237 0.950 . S
C2263 C2262 1.414 . S
C2263 C2264 1.374 . S
C2264 H2238 0.950 . S
C2264 C2260 1.385 . S
C2264 C2263 1.374 . S
C2265 C2262 1.499 . S
C2265 C2266 1.373 . S
C2265 C2267 1.389 . S
C2266 H2239 0.950 . S
C2266 C2252 1.377 . S
C2266 C2265 1.373 . S
C2267 C2251 1.377 . S
C2267 C2265 1.389 . S
C2267 C2268 1.524 . S
C2268 C2267 1.524 . S
C2268 C2269 1.397 . S
C2268 C2273 1.363 . S
C2269 H2240 0.950 . S
C2269 C2268 1.397 . S
C2269 C2270 1.334 . S
C2270 H2241 0.950 . S
C2270 C2269 1.334 . S
C2270 C2271 1.287 . S
C2271 C2270 1.287 . S
C2271 C2272 1.524 . S
C2271 H2274 0.999 . S
C2272 H2242 0.950 . S
C2272 C2271 1.524 . S
C2272 C2273 1.415 . S
C2273 H2243 0.950 . S
C2273 C2268 1.363 . S
C2273 C2272 1.415 . S
H2274 C2271 0.999 . S
H2275 C2256 0.913 . S
H2276 C2294 0.951 . S
H2277 C2296 0.951 . S
H2278 C2298 0.950 . S
H2279 C2299 0.950 . S
H2280 C2301 0.950 . S
H2281 C2304 0.950 . S
H2282 C2305 0.950 . S
H2283 C2307 0.950 . S
H2284 C2308 0.950 . S
H2285 C2309 0.951 . S
H2286 C2311 0.951 . S
H2287 C2313 0.950 . S
H2288 C2314 0.950 . S
H2289 C2316 0.950 . S
H2290 C2319 0.950 . S
H2291 C2320 0.950 . S
H2292 C2322 0.950 . S
H2293 C2323 0.950 . S
C2294 H2276 0.951 . S
C2294 C2295 1.366 . S
C2294 C2296 1.388 . S
C2295 C2294 1.366 . S
C2295 C2299 1.385 . S
C2296 H2277 0.951 . S
C2296 C2294 1.388 . S
C2296 C2297 1.366 . S
C2297 C2296 1.366 . S
C2297 C2298 1.414 . S
C2297 C2300 1.499 . S
C2298 H2278 0.950 . S
C2298 C2297 1.414 . S
C2298 C2299 1.374 . S
C2299 H2279 0.950 . S
C2299 C2295 1.385 . S
C2299 C2298 1.374 . S
C2300 C2297 1.499 . S
C2300 C2301 1.373 . S
C2300 C2302 1.389 . S
C2301 H2280 0.950 . S
C2301 C2300 1.373 . S
C2301 C2317 1.377 . S
C2302 C2300 1.389 . S
C2302 C2303 1.524 . S
C2302 C2316 1.377 . S
C2303 C2302 1.524 . S
C2303 C2304 1.397 . S
C2303 C2308 1.363 . S
C2304 H2281 0.950 . S
C2304 C2303 1.397 . S
C2304 C2305 1.334 . S
C2305 H2282 0.950 . S
C2305 C2304 1.334 . S
C2305 C2306 1.287 . S
C2306 C2305 1.287 . S
C2306 C2307 1.524 . S
C2306 H2325 0.913 . S
C2307 H2283 0.950 . S
C2307 C2306 1.524 . S
C2307 C2308 1.415 . S
C2308 H2284 0.950 . S
C2308 C2303 1.363 . S
C2308 C2307 1.415 . S
C2309 H2285 0.951 . S
C2309 C2310 1.366 . S
C2309 C2311 1.388 . S
C2310 C2309 1.366 . S
C2310 C2314 1.385 . S
C2311 H2286 0.951 . S
C2311 C2309 1.388 . S
C2311 C2312 1.366 . S
C2312 C2311 1.366 . S
C2312 C2313 1.414 . S
C2312 C2315 1.499 . S
C2313 H2287 0.950 . S
C2313 C2312 1.414 . S
C2313 C2314 1.374 . S
C2314 H2288 0.950 . S
C2314 C2310 1.385 . S
C2314 C2313 1.374 . S
C2315 C2312 1.499 . S
C2315 C2316 1.373 . S
C2315 C2317 1.389 . S
C2316 H2289 0.950 . S
C2316 C2302 1.377 . S
C2316 C2315 1.373 . S
C2317 C2301 1.377 . S
C2317 C2315 1.389 . S
C2317 C2318 1.524 . S
C2318 C2317 1.524 . S
C2318 C2319 1.397 . S
C2318 C2323 1.363 . S
C2319 H2290 0.950 . S
C2319 C2318 1.397 . S
C2319 C2320 1.334 . S
C2320 H2291 0.950 . S
C2320 C2319 1.334 . S
C2320 C2321 1.287 . S
C2321 C2320 1.287 . S
C2321 C2322 1.524 . S
C2321 H2324 0.999 . S
C2322 H2292 0.950 . S
C2322 C2321 1.524 . S
C2322 C2323 1.415 . S
C2323 H2293 0.950 . S
C2323 C2318 1.363 . S
C2323 C2322 1.415 . S
H2324 C2321 0.999 . S
H2325 C2306 0.913 . S
H2326 C2344 0.951 . S
H2327 C2346 0.951 . S
H2328 C2348 0.950 . S
H2329 C2349 0.950 . S
H2330 C2351 0.950 . S
H2331 C2354 0.950 . S
H2332 C2355 0.950 . S
H2333 C2357 0.950 . S
H2334 C2358 0.950 . S
H2335 C2359 0.951 . S
H2336 C2361 0.951 . S
H2337 C2363 0.950 . S
H2338 C2364 0.950 . S
H2339 C2366 0.950 . S
H2340 C2369 0.950 . S
H2341 C2370 0.950 . S
H2342 C2372 0.950 . S
H2343 C2373 0.950 . S
C2344 H2326 0.951 . S
C2344 C2345 1.366 . S
C2344 C2346 1.388 . S
C2345 C2344 1.366 . S
C2345 C2349 1.385 . S
C2346 H2327 0.951 . S
C2346 C2344 1.388 . S
C2346 C2347 1.366 . S
C2347 C2346 1.366 . S
C2347 C2348 1.414 . S
C2347 C2350 1.499 . S
C2348 H2328 0.950 . S
C2348 C2347 1.414 . S
C2348 C2349 1.374 . S
C2349 H2329 0.950 . S
C2349 C2345 1.385 . S
C2349 C2348 1.374 . S
C2350 C2347 1.499 . S
C2350 C2351 1.373 . S
C2350 C2352 1.389 . S
C2351 H2330 0.950 . S
C2351 C2350 1.373 . S
C2351 C2367 1.377 . S
C2352 C2350 1.389 . S
C2352 C2353 1.524 . S
C2352 C2366 1.377 . S
C2353 C2352 1.524 . S
C2353 C2354 1.397 . S
C2353 C2358 1.363 . S
C2354 H2331 0.950 . S
C2354 C2353 1.397 . S
C2354 C2355 1.334 . S
C2355 H2332 0.950 . S
C2355 C2354 1.334 . S
C2355 C2356 1.287 . S
C2356 C2355 1.287 . S
C2356 C2357 1.524 . S
C2356 H2375 0.913 . S
C2357 H2333 0.950 . S
C2357 C2356 1.524 . S
C2357 C2358 1.415 . S
C2358 H2334 0.950 . S
C2358 C2353 1.363 . S
C2358 C2357 1.415 . S
C2359 H2335 0.951 . S
C2359 C2360 1.366 . S
C2359 C2361 1.388 . S
C2360 C2359 1.366 . S
C2360 C2364 1.385 . S
C2361 H2336 0.951 . S
C2361 C2359 1.388 . S
C2361 C2362 1.366 . S
C2362 C2361 1.366 . S
C2362 C2363 1.414 . S
C2362 C2365 1.499 . S
C2363 H2337 0.950 . S
C2363 C2362 1.414 . S
C2363 C2364 1.374 . S
C2364 H2338 0.950 . S
C2364 C2360 1.385 . S
C2364 C2363 1.374 . S
C2365 C2362 1.499 . S
C2365 C2366 1.373 . S
C2365 C2367 1.389 . S
C2366 H2339 0.950 . S
C2366 C2352 1.377 . S
C2366 C2365 1.373 . S
C2367 C2351 1.377 . S
C2367 C2365 1.389 . S
C2367 C2368 1.524 . S
C2368 C2367 1.524 . S
C2368 C2369 1.397 . S
C2368 C2373 1.363 . S
C2369 H2340 0.950 . S
C2369 C2368 1.397 . S
C2369 C2370 1.334 . S
C2370 H2341 0.950 . S
C2370 C2369 1.334 . S
C2370 C2371 1.287 . S
C2371 C2370 1.287 . S
C2371 C2372 1.524 . S
C2371 H2374 0.999 . S
C2372 H2342 0.950 . S
C2372 C2371 1.524 . S
C2372 C2373 1.415 . S
C2373 H2343 0.950 . S
C2373 C2368 1.363 . S
C2373 C2372 1.415 . S
H2374 C2371 0.999 . S
H2375 C2356 0.913 . S
H2376 C2394 0.951 . S
H2377 C2396 0.951 . S
H2378 C2398 0.950 . S
H2379 C2399 0.950 . S
H2380 C2401 0.950 . S
H2381 C2404 0.950 . S
H2382 C2405 0.950 . S
H2383 C2407 0.950 . S
H2384 C2408 0.950 . S
H2385 C2409 0.951 . S
H2386 C2411 0.951 . S
H2387 C2413 0.950 . S
H2388 C2414 0.950 . S
H2389 C2416 0.950 . S
H2390 C2419 0.950 . S
H2391 C2420 0.950 . S
H2392 C2422 0.950 . S
H2393 C2423 0.950 . S
C2394 H2376 0.951 . S
C2394 C2395 1.366 . S
C2394 C2396 1.388 . S
C2395 C2394 1.366 . S
C2395 C2399 1.385 . S
C2396 H2377 0.951 . S
C2396 C2394 1.388 . S
C2396 C2397 1.366 . S
C2397 C2396 1.366 . S
C2397 C2398 1.414 . S
C2397 C2400 1.499 . S
C2398 H2378 0.950 . S
C2398 C2397 1.414 . S
C2398 C2399 1.374 . S
C2399 H2379 0.950 . S
C2399 C2395 1.385 . S
C2399 C2398 1.374 . S
C2400 C2397 1.499 . S
C2400 C2401 1.373 . S
C2400 C2402 1.389 . S
C2401 H2380 0.950 . S
C2401 C2400 1.373 . S
C2401 C2417 1.377 . S
C2402 C2400 1.389 . S
C2402 C2403 1.524 . S
C2402 C2416 1.377 . S
C2403 C2402 1.524 . S
C2403 C2404 1.397 . S
C2403 C2408 1.363 . S
C2404 H2381 0.950 . S
C2404 C2403 1.397 . S
C2404 C2405 1.334 . S
C2405 H2382 0.950 . S
C2405 C2404 1.334 . S
C2405 C2406 1.287 . S
C2406 C2405 1.287 . S
C2406 C2407 1.524 . S
C2406 H2425 0.913 . S
C2407 H2383 0.950 . S
C2407 C2406 1.524 . S
C2407 C2408 1.415 . S
C2408 H2384 0.950 . S
C2408 C2403 1.363 . S
C2408 C2407 1.415 . S
C2409 H2385 0.951 . S
C2409 C2410 1.366 . S
C2409 C2411 1.388 . S
C2410 C2409 1.366 . S
C2410 C2414 1.385 . S
C2411 H2386 0.951 . S
C2411 C2409 1.388 . S
C2411 C2412 1.366 . S
C2412 C2411 1.366 . S
C2412 C2413 1.414 . S
C2412 C2415 1.499 . S
C2413 H2387 0.950 . S
C2413 C2412 1.414 . S
C2413 C2414 1.374 . S
C2414 H2388 0.950 . S
C2414 C2410 1.385 . S
C2414 C2413 1.374 . S
C2415 C2412 1.499 . S
C2415 C2416 1.373 . S
C2415 C2417 1.389 . S
C2416 H2389 0.950 . S
C2416 C2402 1.377 . S
C2416 C2415 1.373 . S
C2417 C2401 1.377 . S
C2417 C2415 1.389 . S
C2417 C2418 1.524 . S
C2418 C2417 1.524 . S
C2418 C2419 1.397 . S
C2418 C2423 1.363 . S
C2419 H2390 0.950 . S
C2419 C2418 1.397 . S
C2419 C2420 1.334 1_455 S
C2420 H2391 0.950 . S
C2420 C2419 1.334 1_655 S
C2420 C2421 1.287 . S
C2421 C2420 1.287 . S
C2421 C2422 1.524 1_655 S
C2421 H2424 0.999 . S
C2422 H2392 0.950 . S
C2422 C2421 1.524 1_455 S
C2422 C2423 1.415 . S
C2423 H2393 0.950 . S
C2423 C2418 1.363 . S
C2423 C2422 1.415 . S
H2424 C2421 0.999 . S
H2425 C2406 0.913 . S
H2426 C2444 0.951 . S
H2427 C2446 0.951 . S
H2428 C2448 0.950 . S
H2429 C2449 0.950 . S
H2430 C2451 0.950 . S
H2431 C2454 0.950 . S
H2432 C2455 0.950 . S
H2433 C2457 0.950 . S
H2434 C2458 0.950 . S
H2435 C2459 0.951 . S
H2436 C2461 0.951 . S
H2437 C2463 0.950 . S
H2438 C2464 0.950 . S
H2439 C2466 0.950 . S
H2440 C2469 0.950 . S
H2441 C2470 0.950 . S
H2442 C2472 0.950 . S
H2443 C2473 0.950 . S
C2444 H2426 0.951 . S
C2444 C2445 1.366 . S
C2444 C2446 1.388 . S
C2445 C2444 1.366 . S
C2445 C2449 1.385 . S
C2446 H2427 0.951 . S
C2446 C2444 1.388 . S
C2446 C2447 1.366 . S
C2447 C2446 1.366 . S
C2447 C2448 1.414 . S
C2447 C2450 1.499 . S
C2448 H2428 0.950 . S
C2448 C2447 1.414 . S
C2448 C2449 1.374 . S
C2449 H2429 0.950 . S
C2449 C2445 1.385 . S
C2449 C2448 1.374 . S
C2450 C2447 1.499 . S
C2450 C2451 1.373 . S
C2450 C2452 1.389 . S
C2451 H2430 0.950 . S
C2451 C2450 1.373 . S
C2451 C2467 1.377 . S
C2452 C2450 1.389 . S
C2452 C2453 1.524 . S
C2452 C2466 1.377 . S
C2453 C2452 1.524 . S
C2453 C2454 1.397 . S
C2453 C2458 1.363 . S
C2454 H2431 0.950 . S
C2454 C2453 1.397 . S
C2454 C2455 1.334 . S
C2455 H2432 0.950 . S
C2455 C2454 1.334 . S
C2455 C2456 1.287 . S
C2456 C2455 1.287 . S
C2456 C2457 1.524 . S
C2456 H2475 0.913 . S
C2457 H2433 0.950 . S
C2457 C2456 1.524 . S
C2457 C2458 1.415 . S
C2458 H2434 0.950 . S
C2458 C2453 1.363 . S
C2458 C2457 1.415 . S
C2459 H2435 0.951 . S
C2459 C2460 1.366 . S
C2459 C2461 1.388 . S
C2460 C2459 1.366 . S
C2460 C2464 1.385 . S
C2461 H2436 0.951 . S
C2461 C2459 1.388 . S
C2461 C2462 1.366 . S
C2462 C2461 1.366 . S
C2462 C2463 1.414 . S
C2462 C2465 1.499 . S
C2463 H2437 0.950 . S
C2463 C2462 1.414 . S
C2463 C2464 1.374 . S
C2464 H2438 0.950 . S
C2464 C2460 1.385 . S
C2464 C2463 1.374 . S
C2465 C2462 1.499 . S
C2465 C2466 1.373 . S
C2465 C2467 1.389 . S
C2466 H2439 0.950 . S
C2466 C2452 1.377 . S
C2466 C2465 1.373 . S
C2467 C2451 1.377 . S
C2467 C2465 1.389 . S
C2467 C2468 1.524 . S
C2468 C2467 1.524 . S
C2468 C2469 1.397 . S
C2468 C2473 1.363 . S
C2469 H2440 0.950 . S
C2469 C2468 1.397 . S
C2469 C2470 1.334 . S
C2470 H2441 0.950 . S
C2470 C2469 1.334 . S
C2470 C2471 1.287 . S
C2471 C2470 1.287 . S
C2471 C2472 1.524 . S
C2471 H2474 0.999 . S
C2472 H2442 0.950 . S
C2472 C2471 1.524 . S
C2472 C2473 1.415 . S
C2473 H2443 0.950 . S
C2473 C2468 1.363 . S
C2473 C2472 1.415 . S
H2474 C2471 0.999 . S
H2475 C2456 0.913 . S
H2476 C2494 0.951 . S
H2477 C2496 0.951 . S
H2478 C2498 0.950 . S
H2479 C2499 0.950 . S
H2480 C2501 0.950 . S
H2481 C2504 0.950 . S
H2482 C2505 0.950 . S
H2483 C2507 0.950 . S
H2484 C2508 0.950 . S
H2485 C2509 0.951 . S
H2486 C2511 0.951 . S
H2487 C2513 0.950 . S
H2488 C2514 0.950 . S
H2489 C2516 0.950 . S
H2490 C2519 0.950 . S
H2491 C2520 0.950 . S
H2492 C2522 0.950 . S
H2493 C2523 0.950 . S
C2494 H2476 0.951 . S
C2494 C2495 1.366 . S
C2494 C2496 1.388 . S
C2495 C2494 1.366 . S
C2495 C2499 1.385 . S
C2496 H2477 0.951 . S
C2496 C2494 1.388 . S
C2496 C2497 1.366 . S
C2497 C2496 1.366 . S
C2497 C2498 1.414 . S
C2497 C2500 1.499 . S
C2498 H2478 0.950 . S
C2498 C2497 1.414 . S
C2498 C2499 1.374 . S
C2499 H2479 0.950 . S
C2499 C2495 1.385 . S
C2499 C2498 1.374 . S
C2500 C2497 1.499 . S
C2500 C2501 1.373 . S
C2500 C2502 1.389 . S
C2501 H2480 0.950 . S
C2501 C2500 1.373 . S
C2501 C2517 1.377 . S
C2502 C2500 1.389 . S
C2502 C2503 1.524 . S
C2502 C2516 1.377 . S
C2503 C2502 1.524 . S
C2503 C2504 1.397 . S
C2503 C2508 1.363 . S
C2504 H2481 0.950 . S
C2504 C2503 1.397 . S
C2504 C2505 1.334 . S
C2505 H2482 0.950 . S
C2505 C2504 1.334 . S
C2505 C2506 1.287 . S
C2506 C2505 1.287 . S
C2506 C2507 1.524 . S
C2506 H2525 0.913 . S
C2507 H2483 0.950 . S
C2507 C2506 1.524 . S
C2507 C2508 1.415 . S
C2508 H2484 0.950 . S
C2508 C2503 1.363 . S
C2508 C2507 1.415 . S
C2509 H2485 0.951 . S
C2509 C2510 1.366 . S
C2509 C2511 1.388 . S
C2510 C2509 1.366 . S
C2510 C2514 1.385 . S
C2511 H2486 0.951 . S
C2511 C2509 1.388 . S
C2511 C2512 1.366 . S
C2512 C2511 1.366 . S
C2512 C2513 1.414 . S
C2512 C2515 1.499 . S
C2513 H2487 0.950 . S
C2513 C2512 1.414 . S
C2513 C2514 1.374 . S
C2514 H2488 0.950 . S
C2514 C2510 1.385 . S
C2514 C2513 1.374 . S
C2515 C2512 1.499 . S
C2515 C2516 1.373 . S
C2515 C2517 1.389 . S
C2516 H2489 0.950 . S
C2516 C2502 1.377 . S
C2516 C2515 1.373 . S
C2517 C2501 1.377 . S
C2517 C2515 1.389 . S
C2517 C2518 1.524 . S
C2518 C2517 1.524 . S
C2518 C2519 1.397 . S
C2518 C2523 1.363 . S
C2519 H2490 0.950 . S
C2519 C2518 1.397 . S
C2519 C2520 1.334 1_556 S
C2520 H2491 0.950 . S
C2520 C2519 1.334 1_554 S
C2520 C2521 1.287 1_554 S
C2521 C2520 1.287 1_556 S
C2521 C2522 1.524 . S
C2521 H2524 0.999 1_556 S
C2522 H2492 0.950 . S
C2522 C2521 1.524 . S
C2522 C2523 1.415 . S
C2523 H2493 0.950 . S
C2523 C2518 1.363 . S
C2523 C2522 1.415 . S
H2524 C2521 0.999 1_554 S
H2525 C2506 0.913 . S
H2526 C2544 0.951 . S
H2527 C2546 0.951 . S
H2528 C2548 0.950 . S
H2529 C2549 0.950 . S
H2530 C2551 0.950 . S
H2531 C2554 0.950 . S
H2532 C2555 0.950 . S
H2533 C2557 0.950 . S
H2534 C2558 0.950 . S
H2535 C2559 0.951 . S
H2536 C2561 0.951 . S
H2537 C2563 0.950 . S
H2538 C2564 0.950 . S
H2539 C2566 0.950 . S
H2540 C2569 0.950 . S
H2541 C2570 0.950 . S
H2542 C2572 0.950 . S
H2543 C2573 0.950 . S
C2544 H2526 0.951 . S
C2544 C2545 1.366 . S
C2544 C2546 1.388 . S
C2545 C2544 1.366 . S
C2545 C2549 1.385 . S
C2546 H2527 0.951 . S
C2546 C2544 1.388 . S
C2546 C2547 1.366 . S
C2547 C2546 1.366 . S
C2547 C2548 1.414 . S
C2547 C2550 1.499 . S
C2548 H2528 0.950 . S
C2548 C2547 1.414 . S
C2548 C2549 1.374 . S
C2549 H2529 0.950 . S
C2549 C2545 1.385 . S
C2549 C2548 1.374 . S
C2550 C2547 1.499 . S
C2550 C2551 1.373 . S
C2550 C2552 1.389 . S
C2551 H2530 0.950 . S
C2551 C2550 1.373 . S
C2551 C2567 1.377 . S
C2552 C2550 1.389 . S
C2552 C2553 1.524 . S
C2552 C2566 1.377 . S
C2553 C2552 1.524 . S
C2553 C2554 1.397 . S
C2553 C2558 1.363 . S
C2554 H2531 0.950 . S
C2554 C2553 1.397 . S
C2554 C2555 1.334 . S
C2555 H2532 0.950 . S
C2555 C2554 1.334 . S
C2555 C2556 1.287 . S
C2556 C2555 1.287 . S
C2556 C2557 1.524 . S
C2556 H2575 0.913 . S
C2557 H2533 0.950 . S
C2557 C2556 1.524 . S
C2557 C2558 1.415 . S
C2558 H2534 0.950 . S
C2558 C2553 1.363 . S
C2558 C2557 1.415 . S
C2559 H2535 0.951 . S
C2559 C2560 1.366 . S
C2559 C2561 1.388 . S
C2560 C2559 1.366 . S
C2560 C2564 1.385 . S
C2561 H2536 0.951 . S
C2561 C2559 1.388 . S
C2561 C2562 1.366 . S
C2562 C2561 1.366 . S
C2562 C2563 1.414 . S
C2562 C2565 1.499 . S
C2563 H2537 0.950 . S
C2563 C2562 1.414 . S
C2563 C2564 1.374 . S
C2564 H2538 0.950 . S
C2564 C2560 1.385 . S
C2564 C2563 1.374 . S
C2565 C2562 1.499 . S
C2565 C2566 1.373 . S
C2565 C2567 1.389 . S
C2566 H2539 0.950 . S
C2566 C2552 1.377 . S
C2566 C2565 1.373 . S
C2567 C2551 1.377 . S
C2567 C2565 1.389 . S
C2567 C2568 1.524 . S
C2568 C2567 1.524 . S
C2568 C2569 1.397 . S
C2568 C2573 1.363 . S
C2569 H2540 0.950 . S
C2569 C2568 1.397 . S
C2569 C2570 1.334 . S
C2570 H2541 0.950 . S
C2570 C2569 1.334 . S
C2570 C2571 1.287 . S
C2571 C2570 1.287 . S
C2571 C2572 1.524 . S
C2571 H2574 0.999 . S
C2572 H2542 0.950 . S
C2572 C2571 1.524 . S
C2572 C2573 1.415 . S
C2573 H2543 0.950 . S
C2573 C2568 1.363 . S
C2573 C2572 1.415 . S
H2574 C2571 0.999 . S
H2575 C2556 0.913 . S
H2576 C2594 0.951 . S
H2577 C2596 0.951 . S
H2578 C2598 0.950 . S
H2579 C2599 0.950 . S
H2580 C2601 0.950 . S
H2581 C2604 0.950 . S
H2582 C2605 0.950 . S
H2583 C2607 0.950 . S
H2584 C2608 0.975 . S
H2585 C2609 0.951 . S
H2586 C2611 0.951 . S
H2587 C2613 0.950 1_565 S
H2588 C2614 0.950 1_565 S
H2589 C2616 0.950 . S
H2590 C2619 0.950 . S
H2591 C2620 0.950 . S
H2592 C2622 0.950 . S
H2593 C2623 0.950 . S
C2594 H2576 0.951 . S
C2594 C2595 1.366 1_565 S
C2594 C2596 1.388 . S
C2595 C2594 1.366 1_545 S
C2595 C2599 1.385 . S
C2596 H2577 0.951 . S
C2596 C2594 1.388 . S
C2596 C2597 1.366 1_565 S
C2597 C2596 1.366 1_545 S
C2597 C2598 1.414 . S
C2597 C2600 1.499 . S
C2598 H2578 0.950 . S
C2598 C2597 1.414 . S
C2598 C2599 1.374 . S
C2599 H2579 0.950 . S
C2599 C2595 1.385 . S
C2599 C2598 1.374 . S
C2600 C2597 1.499 . S
C2600 C2601 1.373 . S
C2600 C2602 1.389 . S
C2601 H2580 0.950 . S
C2601 C2600 1.373 . S
C2601 C2617 1.377 . S
C2602 C2600 1.389 . S
C2602 C2603 1.524 . S
C2602 C2616 1.377 . S
C2603 C2602 1.524 . S
C2603 C2604 1.397 . S
C2603 C2608 1.363 . S
C2604 H2581 0.950 . S
C2604 C2603 1.397 . S
C2604 C2605 1.334 . S
C2605 H2582 0.950 . S
C2605 C2604 1.334 . S
C2605 C2606 1.287 . S
C2606 C2605 1.287 . S
C2606 C2607 1.524 . S
C2606 H2625 0.913 . S
C2607 H2583 0.950 . S
C2607 C2606 1.524 . S
C2607 C2608 1.415 . S
C2608 H2584 0.975 . S
C2608 C2603 1.363 . S
C2608 C2607 1.415 . S
C2609 H2585 0.951 . S
C2609 C2610 1.366 . S
C2609 C2611 1.388 . S
C2610 C2609 1.366 . S
C2610 C2614 1.385 . S
C2611 H2586 0.951 . S
C2611 C2609 1.388 . S
C2611 C2612 1.366 . S
C2612 C2611 1.366 . S
C2612 C2613 1.414 . S
C2612 C2615 1.499 . S
C2613 H2587 0.950 1_545 S
C2613 C2612 1.414 . S
C2613 C2614 1.374 . S
C2614 H2588 0.950 1_545 S
C2614 C2610 1.385 . S
C2614 C2613 1.374 . S
C2615 C2612 1.499 . S
C2615 C2616 1.373 . S
C2615 C2617 1.389 . S
C2616 H2589 0.950 . S
C2616 C2602 1.377 . S
C2616 C2615 1.373 . S
C2617 C2601 1.377 . S
C2617 C2615 1.389 . S
C2617 C2618 1.524 . S
C2618 C2617 1.524 . S
C2618 C2619 1.397 1_545 S
C2618 C2623 1.363 . S
C2619 H2590 0.950 . S
C2619 C2618 1.397 1_565 S
C2619 C2620 1.334 . S
C2620 H2591 0.950 . S
C2620 C2619 1.334 . S
C2620 C2621 1.287 . S
C2621 C2620 1.287 . S
C2621 C2622 1.524 1_565 S
C2621 H2624 0.999 . S
C2622 H2592 0.950 . S
C2622 C2621 1.524 1_545 S
C2622 C2623 1.415 . S
C2623 H2593 0.950 . S
C2623 C2618 1.363 . S
C2623 C2622 1.415 . S
H2624 C2621 0.999 . S
H2625 C2606 0.913 . S
H2626 C2644 0.951 . S
H2627 C2646 0.951 . S
H2628 C2648 0.950 . S
H2629 C2649 0.950 . S
H2630 C2651 0.950 . S
H2631 C2654 0.950 . S
H2632 C2655 0.950 . S
H2633 C2657 0.950 . S
H2634 C2658 0.950 . S
H2635 C2659 0.951 . S
H2636 C2661 0.951 . S
H2637 C2663 0.950 . S
H2638 C2664 0.950 . S
H2639 C2666 0.950 . S
H2640 C2669 0.950 . S
H2641 C2670 0.950 . S
H2642 C2672 0.950 . S
H2643 C2673 0.950 . S
C2644 H2626 0.951 . S
C2644 C2645 1.366 . S
C2644 C2646 1.388 . S
C2645 C2644 1.366 . S
C2645 C2649 1.385 . S
C2646 H2627 0.951 . S
C2646 C2644 1.388 . S
C2646 C2647 1.366 . S
C2647 C2646 1.366 . S
C2647 C2648 1.414 . S
C2647 C2650 1.499 . S
C2648 H2628 0.950 . S
C2648 C2647 1.414 . S
C2648 C2649 1.374 . S
C2649 H2629 0.950 . S
C2649 C2645 1.385 . S
C2649 C2648 1.374 . S
C2650 C2647 1.499 . S
C2650 C2651 1.373 . S
C2650 C2652 1.389 . S
C2651 H2630 0.950 . S
C2651 C2650 1.373 . S
C2651 C2667 1.377 . S
C2652 C2650 1.389 . S
C2652 C2653 1.524 . S
C2652 C2666 1.377 . S
C2653 C2652 1.524 . S
C2653 C2654 1.397 . S
C2653 C2658 1.363 . S
C2654 H2631 0.950 . S
C2654 C2653 1.397 . S
C2654 C2655 1.334 . S
C2655 H2632 0.950 . S
C2655 C2654 1.334 . S
C2655 C2656 1.287 . S
C2656 C2655 1.287 . S
C2656 C2657 1.524 . S
C2656 H2675 0.913 . S
C2657 H2633 0.950 . S
C2657 C2656 1.524 . S
C2657 C2658 1.415 . S
C2658 H2634 0.950 . S
C2658 C2653 1.363 . S
C2658 C2657 1.415 . S
C2659 H2635 0.951 . S
C2659 C2660 1.366 . S
C2659 C2661 1.388 . S
C2660 C2659 1.366 . S
C2660 C2664 1.385 . S
C2661 H2636 0.951 . S
C2661 C2659 1.388 . S
C2661 C2662 1.366 . S
C2662 C2661 1.366 . S
C2662 C2663 1.414 . S
C2662 C2665 1.499 . S
C2663 H2637 0.950 . S
C2663 C2662 1.414 . S
C2663 C2664 1.374 . S
C2664 H2638 0.950 . S
C2664 C2660 1.385 . S
C2664 C2663 1.374 . S
C2665 C2662 1.499 . S
C2665 C2666 1.373 . S
C2665 C2667 1.389 . S
C2666 H2639 0.950 . S
C2666 C2652 1.377 . S
C2666 C2665 1.373 . S
C2667 C2651 1.377 . S
C2667 C2665 1.389 . S
C2667 C2668 1.524 . S
C2668 C2667 1.524 . S
C2668 C2669 1.397 . S
C2668 C2673 1.363 . S
C2669 H2640 0.950 . S
C2669 C2668 1.397 . S
C2669 C2670 1.334 . S
C2670 H2641 0.950 . S
C2670 C2669 1.334 . S
C2670 C2671 1.287 . S
C2671 C2670 1.287 . S
C2671 C2672 1.524 . S
C2671 H2674 0.999 . S
C2672 H2642 0.950 . S
C2672 C2671 1.524 . S
C2672 C2673 1.415 . S
C2673 H2643 0.950 . S
C2673 C2668 1.363 . S
C2673 C2672 1.415 . S
H2674 C2671 0.999 . S
H2675 C2656 0.913 . S
H2676 C2694 0.951 . S
H2677 C2696 0.951 . S
H2678 C2698 0.950 1_565 S
H2679 C2699 0.950 . S
H2680 C2701 0.950 1_565 S
H2681 C2704 0.950 . S
H2682 C2705 0.950 . S
H2683 C2707 0.950 . S
H2684 C2708 0.950 . S
H2685 C2709 0.951 . S
H2686 C2711 0.955 1_565 S
H2687 C2713 0.950 . S
H2688 C2714 0.950 . S
H2689 C2716 0.950 . S
H2690 C2719 0.950 1_545 S
H2691 C2720 0.950 . S
H2692 C2722 0.950 . S
H2693 C2723 0.950 . S
C2694 H2676 0.951 . S
C2694 C2695 1.366 . S
C2694 C2696 1.388 . S
C2695 C2694 1.366 . S
C2695 C2699 1.385 1_545 S
C2696 H2677 0.951 . S
C2696 C2694 1.388 . S
C2696 C2697 1.366 . S
C2697 C2696 1.366 . S
C2697 C2698 1.414 . S
C2697 C2700 1.499 . S
C2698 H2678 0.950 1_545 S
C2698 C2697 1.414 . S
C2698 C2699 1.374 1_545 S
C2699 H2679 0.950 . S
C2699 C2695 1.385 1_565 S
C2699 C2698 1.374 1_565 S
C2700 C2697 1.499 . S
C2700 C2701 1.373 . S
C2700 C2702 1.389 . S
C2701 H2680 0.950 1_545 S
C2701 C2700 1.373 . S
C2701 C2717 1.377 . S
C2702 C2700 1.389 . S
C2702 C2703 1.524 . S
C2702 C2716 1.377 . S
C2703 C2702 1.524 . S
C2703 C2704 1.397 . S
C2703 C2708 1.363 . S
C2704 H2681 0.950 . S
C2704 C2703 1.397 . S
C2704 C2705 1.334 . S
C2705 H2682 0.950 . S
C2705 C2704 1.334 . S
C2705 C2706 1.287 . S
C2706 C2705 1.287 . S
C2706 C2707 1.524 . S
C2706 H2725 0.913 . S
C2707 H2683 0.950 . S
C2707 C2706 1.524 . S
C2707 C2708 1.415 . S
C2708 H2684 0.950 . S
C2708 C2703 1.363 . S
C2708 C2707 1.415 . S
C2709 H2685 0.951 . S
C2709 C2710 1.366 . S
C2709 C2711 1.388 . S
C2710 C2709 1.366 . S
C2710 C2714 1.385 . S
C2711 H2686 0.955 1_545 S
C2711 C2709 1.388 . S
C2711 C2712 1.366 . S
C2712 C2711 1.366 . S
C2712 C2713 1.414 . S
C2712 C2715 1.499 . S
C2713 H2687 0.950 . S
C2713 C2712 1.414 . S
C2713 C2714 1.374 . S
C2714 H2688 0.950 . S
C2714 C2710 1.385 . S
C2714 C2713 1.374 . S
C2715 C2712 1.499 . S
C2715 C2716 1.373 . S
C2715 C2717 1.389 . S
C2716 H2689 0.950 . S
C2716 C2702 1.377 . S
C2716 C2715 1.373 . S
C2717 C2701 1.377 . S
C2717 C2715 1.389 . S
C2717 C2718 1.524 1_545 S
C2718 C2717 1.524 1_565 S
C2718 C2719 1.397 . S
C2718 C2723 1.363 . S
C2719 H2690 0.950 1_565 S
C2719 C2718 1.397 . S
C2719 C2720 1.334 . S
C2720 H2691 0.950 . S
C2720 C2719 1.334 . S
C2720 C2721 1.287 . S
C2721 C2720 1.287 . S
C2721 C2722 1.524 . S
C2721 H2724 0.999 . S
C2722 H2692 0.950 . S
C2722 C2721 1.524 . S
C2722 C2723 1.415 . S
C2723 H2693 0.950 . S
C2723 C2718 1.363 . S
C2723 C2722 1.415 . S
H2724 C2721 0.999 . S
H2725 C2706 0.913 . S
H2726 C2744 0.951 . S
H2727 C2746 0.951 . S
H2728 C2748 0.950 . S
H2729 C2749 0.950 . S
H2730 C2751 0.950 . S
H2731 C2754 0.950 . S
H2732 C2755 0.950 . S
H2733 C2757 0.950 . S
H2734 C2758 0.950 . S
H2735 C2759 0.951 . S
H2736 C2761 0.951 . S
H2737 C2763 0.950 . S
H2738 C2764 0.950 . S
H2739 C2766 0.950 . S
H2740 C2769 0.950 . S
H2741 C2770 0.950 . S
H2742 C2772 0.950 . S
H2743 C2773 0.950 . S
C2744 H2726 0.951 . S
C2744 C2745 1.366 . S
C2744 C2746 1.388 . S
C2745 C2744 1.366 . S
C2745 C2749 1.385 . S
C2746 H2727 0.951 . S
C2746 C2744 1.388 . S
C2746 C2747 1.366 . S
C2747 C2746 1.366 . S
C2747 C2748 1.414 . S
C2747 C2750 1.499 . S
C2748 H2728 0.950 . S
C2748 C2747 1.414 . S
C2748 C2749 1.374 . S
C2749 H2729 0.950 . S
C2749 C2745 1.385 . S
C2749 C2748 1.374 . S
C2750 C2747 1.499 . S
C2750 C2751 1.373 . S
C2750 C2752 1.389 . S
C2751 H2730 0.950 . S
C2751 C2750 1.373 . S
C2751 C2767 1.377 . S
C2752 C2750 1.389 . S
C2752 C2753 1.524 . S
C2752 C2766 1.377 . S
C2753 C2752 1.524 . S
C2753 C2754 1.397 . S
C2753 C2758 1.363 . S
C2754 H2731 0.950 . S
C2754 C2753 1.397 . S
C2754 C2755 1.334 . S
C2755 H2732 0.950 . S
C2755 C2754 1.334 . S
C2755 C2756 1.287 . S
C2756 C2755 1.287 . S
C2756 C2757 1.524 . S
C2756 H2775 0.913 . S
C2757 H2733 0.950 . S
C2757 C2756 1.524 . S
C2757 C2758 1.415 . S
C2758 H2734 0.950 . S
C2758 C2753 1.363 . S
C2758 C2757 1.415 . S
C2759 H2735 0.951 . S
C2759 C2760 1.366 . S
C2759 C2761 1.388 . S
C2760 C2759 1.366 . S
C2760 C2764 1.385 . S
C2761 H2736 0.951 . S
C2761 C2759 1.388 . S
C2761 C2762 1.366 . S
C2762 C2761 1.366 . S
C2762 C2763 1.414 . S
C2762 C2765 1.499 . S
C2763 H2737 0.950 . S
C2763 C2762 1.414 . S
C2763 C2764 1.374 . S
C2764 H2738 0.950 . S
C2764 C2760 1.385 . S
C2764 C2763 1.374 . S
C2765 C2762 1.499 . S
C2765 C2766 1.373 . S
C2765 C2767 1.389 . S
C2766 H2739 0.950 . S
C2766 C2752 1.377 . S
C2766 C2765 1.373 . S
C2767 C2751 1.377 . S
C2767 C2765 1.389 . S
C2767 C2768 1.524 . S
C2768 C2767 1.524 . S
C2768 C2769 1.397 . S
C2768 C2773 1.363 . S
C2769 H2740 0.950 . S
C2769 C2768 1.397 . S
C2769 C2770 1.334 . S
C2770 H2741 0.950 . S
C2770 C2769 1.334 . S
C2770 C2771 1.287 . S
C2771 C2770 1.287 . S
C2771 C2772 1.524 . S
C2771 H2774 0.999 . S
C2772 H2742 0.950 . S
C2772 C2771 1.524 . S
C2772 C2773 1.415 . S
C2773 H2743 0.950 . S
C2773 C2768 1.363 . S
C2773 C2772 1.415 . S
H2774 C2771 0.999 . S
H2775 C2756 0.913 . S
H2776 C2794 0.951 . S
H2777 C2796 0.951 . S
H2778 C2798 0.950 . S
H2779 C2799 0.950 . S
H2780 C2801 0.950 . S
H2781 C2804 0.950 . S
H2782 C2805 0.950 . S
H2783 C2807 0.950 . S
H2784 C2808 0.950 1_545 S
H2785 C2809 0.951 . S
H2786 C2811 0.951 . S
H2787 C2813 0.950 . S
H2788 C2814 0.950 . S
H2789 C2816 0.950 1_565 S
H2790 C2819 0.950 . S
H2791 C2820 0.950 . S
H2792 C2822 0.950 . S
H2793 C2823 0.950 . S
C2794 H2776 0.951 . S
C2794 C2795 1.366 1_545 S
C2794 C2796 1.388 . S
C2795 C2794 1.366 1_565 S
C2795 C2799 1.385 . S
C2796 H2777 0.951 . S
C2796 C2794 1.388 . S
C2796 C2797 1.366 . S
C2797 C2796 1.366 . S
C2797 C2798 1.414 1_545 S
C2797 C2800 1.499 . S
C2798 H2778 0.950 . S
C2798 C2797 1.414 1_565 S
C2798 C2799 1.374 . S
C2799 H2779 0.950 . S
C2799 C2795 1.385 . S
C2799 C2798 1.374 . S
C2800 C2797 1.499 . S
C2800 C2801 1.373 . S
C2800 C2802 1.389 1_545 S
C2801 H2780 0.950 . S
C2801 C2800 1.373 . S
C2801 C2817 1.377 . S
C2802 C2800 1.389 1_565 S
C2802 C2803 1.538 . S
C2802 C2816 1.366 1_565 S
C2803 C2802 1.538 . S
C2803 C2804 1.397 . S
C2803 C2808 1.363 . S
C2804 H2781 0.950 . S
C2804 C2803 1.397 . S
C2804 C2805 1.334 . S
C2805 H2782 0.950 . S
C2805 C2804 1.334 . S
C2805 C2806 1.287 . S
C2806 C2805 1.287 . S
C2806 C2807 1.524 . S
C2806 H2825 0.913 . S
C2807 H2783 0.950 . S
C2807 C2806 1.524 . S
C2807 C2808 1.415 . S
C2808 H2784 0.950 1_565 S
C2808 C2803 1.363 . S
C2808 C2807 1.415 . S
C2809 H2785 0.951 . S
C2809 C2810 1.366 . S
C2809 C2811 1.388 . S
C2810 C2809 1.366 . S
C2810 C2814 1.385 . S
C2811 H2786 0.951 . S
C2811 C2809 1.388 . S
C2811 C2812 1.366 . S
C2812 C2811 1.366 . S
C2812 C2813 1.414 . S
C2812 C2815 1.499 . S
C2813 H2787 0.950 . S
C2813 C2812 1.414 . S
C2813 C2814 1.374 . S
C2814 H2788 0.950 . S
C2814 C2810 1.385 . S
C2814 C2813 1.374 . S
C2815 C2812 1.499 . S
C2815 C2816 1.373 . S
C2815 C2817 1.389 . S
C2816 H2789 0.950 1_545 S
C2816 C2802 1.366 1_545 S
C2816 C2815 1.373 . S
C2817 C2801 1.377 . S
C2817 C2815 1.389 . S
C2817 C2818 1.524 . S
C2818 C2817 1.524 . S
C2818 C2819 1.397 . S
C2818 C2823 1.363 . S
C2819 H2790 0.950 . S
C2819 C2818 1.397 . S
C2819 C2820 1.334 . S
C2820 H2791 0.950 . S
C2820 C2819 1.334 . S
C2820 C2821 1.287 . S
C2821 C2820 1.287 . S
C2821 C2822 1.524 . S
C2821 H2824 0.999 . S
C2822 H2792 0.950 . S
C2822 C2821 1.524 . S
C2822 C2823 1.415 . S
C2823 H2793 0.950 . S
C2823 C2818 1.363 . S
C2823 C2822 1.415 . S
H2824 C2821 0.999 . S
H2825 C2806 0.913 . S
H2826 C2844 0.951 . S
H2827 C2846 0.951 . S
H2828 C2848 0.950 . S
H2829 C2849 0.950 . S
H2830 C2851 0.950 . S
H2831 C2854 0.950 . S
H2832 C2855 0.950 . S
H2833 C2857 0.950 . S
H2834 C2858 0.950 . S
H2835 C2859 0.951 . S
H2836 C2861 0.951 . S
H2837 C2863 0.950 . S
H2838 C2864 0.950 . S
H2839 C2866 0.950 . S
H2840 C2869 0.950 . S
H2841 C2870 0.950 . S
H2842 C2872 0.950 . S
H2843 C2873 0.950 . S
C2844 H2826 0.951 . S
C2844 C2845 1.366 . S
C2844 C2846 1.388 . S
C2845 C2844 1.366 . S
C2845 C2849 1.385 . S
C2846 H2827 0.951 . S
C2846 C2844 1.388 . S
C2846 C2847 1.366 . S
C2847 C2846 1.366 . S
C2847 C2848 1.414 . S
C2847 C2850 1.499 . S
C2848 H2828 0.950 . S
C2848 C2847 1.414 . S
C2848 C2849 1.374 . S
C2849 H2829 0.950 . S
C2849 C2845 1.385 . S
C2849 C2848 1.374 . S
C2850 C2847 1.499 . S
C2850 C2851 1.373 . S
C2850 C2852 1.389 . S
C2851 H2830 0.950 . S
C2851 C2850 1.373 . S
C2851 C2867 1.377 . S
C2852 C2850 1.389 . S
C2852 C2853 1.524 . S
C2852 C2866 1.377 . S
C2853 C2852 1.524 . S
C2853 C2854 1.397 . S
C2853 C2858 1.363 . S
C2854 H2831 0.950 . S
C2854 C2853 1.397 . S
C2854 C2855 1.334 . S
C2855 H2832 0.950 . S
C2855 C2854 1.334 . S
C2855 C2856 1.287 . S
C2856 C2855 1.287 . S
C2856 C2857 1.524 . S
C2856 H2875 0.913 . S
C2857 H2833 0.950 . S
C2857 C2856 1.524 . S
C2857 C2858 1.415 . S
C2858 H2834 0.950 . S
C2858 C2853 1.363 . S
C2858 C2857 1.415 . S
C2859 H2835 0.951 . S
C2859 C2860 1.366 . S
C2859 C2861 1.388 . S
C2860 C2859 1.366 . S
C2860 C2864 1.385 . S
C2861 H2836 0.951 . S
C2861 C2859 1.388 . S
C2861 C2862 1.366 . S
C2862 C2861 1.366 . S
C2862 C2863 1.414 . S
C2862 C2865 1.499 . S
C2863 H2837 0.950 . S
C2863 C2862 1.414 . S
C2863 C2864 1.374 . S
C2864 H2838 0.950 . S
C2864 C2860 1.385 . S
C2864 C2863 1.374 . S
C2865 C2862 1.499 . S
C2865 C2866 1.373 . S
C2865 C2867 1.389 . S
C2866 H2839 0.950 . S
C2866 C2852 1.377 . S
C2866 C2865 1.373 . S
C2867 C2851 1.377 . S
C2867 C2865 1.389 . S
C2867 C2868 1.524 . S
C2868 C2867 1.524 . S
C2868 C2869 1.397 . S
C2868 C2873 1.363 . S
C2869 H2840 0.950 . S
C2869 C2868 1.397 . S
C2869 C2870 1.334 . S
C2870 H2841 0.950 . S
C2870 C2869 1.334 . S
C2870 C2871 1.287 . S
C2871 C2870 1.287 . S
C2871 C2872 1.524 . S
C2871 H2874 0.999 . S
C2872 H2842 0.950 . S
C2872 C2871 1.524 . S
C2872 C2873 1.415 . S
C2873 H2843 0.950 . S
C2873 C2868 1.363 . S
C2873 C2872 1.415 . S
H2874 C2871 0.999 . S
H2875 C2856 0.913 . S
H2876 C2894 0.952 1_565 S
H2877 C2896 0.980 . S
H2878 C2898 0.950 . S
H2879 C2899 0.950 . S
H2880 C2901 0.950 . S
H2881 C2904 0.950 . S
H2882 C2905 0.950 . S
H2883 C2907 0.950 . S
H2884 C2908 0.950 . S
H2885 C2909 0.951 . S
H2886 C2911 0.979 . S
H2887 C2913 0.950 . S
H2888 C2914 0.950 . S
H2889 C2916 0.950 . S
H2890 C2919 0.950 . S
H2891 C2920 0.950 . S
H2892 C2922 0.950 . S
H2893 C2923 0.950 . S
C2894 H2876 0.952 1_545 S
C2894 C2895 1.364 . S
C2894 C2896 1.389 1_545 S
C2895 C2894 1.364 . S
C2895 C2899 1.385 . S
C2896 H2877 0.980 . S
C2896 C2894 1.389 1_565 S
C2896 C2897 1.341 1_565 S
C2897 C2896 1.341 1_545 S
C2897 C2898 1.414 . S
C2897 C2900 1.499 . S
C2898 H2878 0.950 . S
C2898 C2897 1.414 . S
C2898 C2899 1.374 . S
C2899 H2879 0.950 . S
C2899 C2895 1.385 . S
C2899 C2898 1.374 . S
C2900 C2897 1.499 . S
C2900 C2901 1.366 1_545 S
C2900 C2902 1.395 . S
C2901 H2880 0.950 . S
C2901 C2900 1.366 1_565 S
C2901 C2917 1.377 . S
C2902 C2900 1.395 . S
C2902 C2903 1.524 . S
C2902 C2916 1.377 . S
C2903 C2902 1.524 . S
C2903 C2904 1.397 . S
C2903 C2908 1.363 . S
C2904 H2881 0.950 . S
C2904 C2903 1.397 . S
C2904 C2905 1.334 . S
C2905 H2882 0.950 . S
C2905 C2904 1.334 . S
C2905 C2906 1.287 . S
C2906 C2905 1.287 . S
C2906 C2907 1.524 . S
C2906 H2925 0.913 . S
C2907 H2883 0.950 . S
C2907 C2906 1.524 . S
C2907 C2908 1.415 . S
C2908 H2884 0.950 . S
C2908 C2903 1.363 . S
C2908 C2907 1.415 . S
C2909 H2885 0.951 . S
C2909 C2910 1.366 . S
C2909 C2911 1.388 . S
C2910 C2909 1.366 . S
C2910 C2914 1.385 . S
C2911 H2886 0.979 . S
C2911 C2909 1.388 . S
C2911 C2912 1.366 . S
C2912 C2911 1.366 . S
C2912 C2913 1.414 . S
C2912 C2915 1.499 . S
C2913 H2887 0.950 . S
C2913 C2912 1.414 . S
C2913 C2914 1.374 . S
C2914 H2888 0.950 . S
C2914 C2910 1.385 . S
C2914 C2913 1.374 . S
C2915 C2912 1.499 . S
C2915 C2916 1.373 1_565 S
C2915 C2917 1.389 . S
C2916 H2889 0.950 . S
C2916 C2902 1.377 . S
C2916 C2915 1.373 1_545 S
C2917 C2901 1.377 . S
C2917 C2915 1.389 . S
C2917 C2918 1.524 . S
C2918 C2917 1.524 . S
C2918 C2919 1.397 . S
C2918 C2923 1.363 . S
C2919 H2890 0.950 . S
C2919 C2918 1.397 . S
C2919 C2920 1.334 . S
C2920 H2891 0.950 . S
C2920 C2919 1.334 . S
C2920 C2921 1.287 . S
C2921 C2920 1.287 . S
C2921 C2922 1.524 . S
C2921 H2924 0.999 . S
C2922 H2892 0.950 . S
C2922 C2921 1.524 . S
C2922 C2923 1.415 . S
C2923 H2893 0.950 . S
C2923 C2918 1.363 . S
C2923 C2922 1.415 . S
H2924 C2921 0.999 . S
H2925 C2906 0.913 . S
H2926 C2944 0.951 . S
H2927 C2946 0.951 . S
H2928 C2948 0.950 . S
H2929 C2949 0.950 . S
H2930 C2951 0.950 . S
H2931 C2954 0.950 . S
H2932 C2955 0.950 . S
H2933 C2957 0.950 . S
H2934 C2958 0.950 . S
H2935 C2959 0.951 . S
H2936 C2961 0.951 . S
H2937 C2963 0.950 . S
H2938 C2964 0.950 . S
H2939 C2966 0.950 . S
H2940 C2969 0.950 . S
H2941 C2970 0.950 . S
H2942 C2972 0.950 . S
H2943 C2973 0.950 . S
C2944 H2926 0.951 . S
C2944 C2945 1.366 . S
C2944 C2946 1.388 . S
C2945 C2944 1.366 . S
C2945 C2949 1.385 . S
C2946 H2927 0.951 . S
C2946 C2944 1.388 . S
C2946 C2947 1.366 . S
C2947 C2946 1.366 . S
C2947 C2948 1.414 . S
C2947 C2950 1.499 . S
C2948 H2928 0.950 . S
C2948 C2947 1.414 . S
C2948 C2949 1.374 . S
C2949 H2929 0.950 . S
C2949 C2945 1.385 . S
C2949 C2948 1.374 . S
C2950 C2947 1.499 . S
C2950 C2951 1.373 . S
C2950 C2952 1.389 . S
C2951 H2930 0.950 . S
C2951 C2950 1.373 . S
C2951 C2967 1.377 . S
C2952 C2950 1.389 . S
C2952 C2953 1.524 . S
C2952 C2966 1.377 . S
C2953 C2952 1.524 . S
C2953 C2954 1.397 . S
C2953 C2958 1.363 . S
C2954 H2931 0.950 . S
C2954 C2953 1.397 . S
C2954 C2955 1.334 . S
C2955 H2932 0.950 . S
C2955 C2954 1.334 . S
C2955 C2956 1.287 . S
C2956 C2955 1.287 . S
C2956 C2957 1.524 . S
C2956 H2975 0.913 . S
C2957 H2933 0.950 . S
C2957 C2956 1.524 . S
C2957 C2958 1.415 . S
C2958 H2934 0.950 . S
C2958 C2953 1.363 . S
C2958 C2957 1.415 . S
C2959 H2935 0.951 . S
C2959 C2960 1.366 . S
C2959 C2961 1.388 . S
C2960 C2959 1.366 . S
C2960 C2964 1.385 . S
C2961 H2936 0.951 . S
C2961 C2959 1.388 . S
C2961 C2962 1.366 . S
C2962 C2961 1.366 . S
C2962 C2963 1.414 . S
C2962 C2965 1.499 . S
C2963 H2937 0.950 . S
C2963 C2962 1.414 . S
C2963 C2964 1.374 . S
C2964 H2938 0.950 . S
C2964 C2960 1.385 . S
C2964 C2963 1.374 . S
C2965 C2962 1.499 . S
C2965 C2966 1.373 . S
C2965 C2967 1.389 . S
C2966 H2939 0.950 . S
C2966 C2952 1.377 . S
C2966 C2965 1.373 . S
C2967 C2951 1.377 . S
C2967 C2965 1.389 . S
C2967 C2968 1.524 . S
C2968 C2967 1.524 . S
C2968 C2969 1.397 . S
C2968 C2973 1.363 . S
C2969 H2940 0.950 . S
C2969 C2968 1.397 . S
C2969 C2970 1.334 . S
C2970 H2941 0.950 . S
C2970 C2969 1.334 . S
C2970 C2971 1.287 . S
C2971 C2970 1.287 . S
C2971 C2972 1.524 . S
C2971 H2974 0.999 . S
C2972 H2942 0.950 . S
C2972 C2971 1.524 . S
C2972 C2973 1.415 . S
C2973 H2943 0.950 . S
C2973 C2968 1.363 . S
C2973 C2972 1.415 . S
H2974 C2971 0.999 . S
H2975 C2956 0.913 . S
H2976 C2994 0.951 . S
H2977 C2996 0.951 . S
H2978 C2998 0.950 . S
H2979 C2999 0.950 . S
H2980 C3001 0.950 . S
H2981 C3004 0.950 . S
H2982 C3005 0.950 . S
H2983 C3007 0.941 1_556 S
H2984 C3008 0.950 . S
H2985 C3009 0.951 . S
H2986 C3011 0.951 1_554 S
H2987 C3013 0.950 . S
H2988 C3014 0.950 . S
H2989 C3016 0.950 . S
H2990 C3019 0.950 . S
H2991 C3020 0.950 . S
H2992 C3022 0.950 . S
H2993 C3023 0.950 1_554 S
C2994 H2976 0.951 . S
C2994 C2995 1.366 1_556 S
C2994 C2996 1.388 . S
C2995 C2994 1.366 1_554 S
C2995 C2999 1.385 . S
C2996 H2977 0.951 . S
C2996 C2994 1.388 . S
C2996 C2997 1.366 1_556 S
C2997 C2996 1.366 1_554 S
C2997 C2998 1.414 . S
C2997 C3000 1.499 1_554 S
C2998 H2978 0.950 . S
C2998 C2997 1.414 . S
C2998 C2999 1.374 . S
C2999 H2979 0.950 . S
C2999 C2995 1.385 . S
C2999 C2998 1.374 . S
C3000 C2997 1.499 1_556 S
C3000 C3001 1.373 . S
C3000 C3002 1.393 . S
C3001 H2980 0.950 . S
C3001 C3000 1.373 . S
C3001 C3017 1.377 . S
C3002 C3000 1.393 . S
C3002 C3003 1.514 1_556 S
C3002 C3016 1.382 . S
C3003 C3002 1.514 1_554 S
C3003 C3004 1.397 . S
C3003 C3008 1.363 1_554 S
C3004 H2981 0.950 . S
C3004 C3003 1.397 . S
C3004 C3005 1.334 . S
C3005 H2982 0.950 . S
C3005 C3004 1.334 . S
C3005 C3006 1.287 . S
C3006 C3005 1.287 . S
C3006 C3007 1.524 . S
C3006 H3025 0.913 . S
C3007 H2983 0.941 1_554 S
C3007 C3006 1.524 . S
C3007 C3008 1.415 1_554 S
C3008 H2984 0.950 . S
C3008 C3003 1.363 1_556 S
C3008 C3007 1.415 1_556 S
C3009 H2985 0.951 . S
C3009 C3010 1.366 . S
C3009 C3011 1.388 . S
C3010 C3009 1.366 . S
C3010 C3014 1.385 . S
C3011 H2986 0.951 1_556 S
C3011 C3009 1.388 . S
C3011 C3012 1.366 . S
C3012 C3011 1.366 . S
C3012 C3013 1.414 . S
C3012 C3015 1.499 . S
C3013 H2987 0.950 . S
C3013 C3012 1.414 . S
C3013 C3014 1.374 . S
C3014 H2988 0.950 . S
C3014 C3010 1.385 . S
C3014 C3013 1.374 . S
C3015 C3012 1.499 . S
C3015 C3016 1.373 . S
C3015 C3017 1.389 . S
C3016 H2989 0.950 . S
C3016 C3002 1.382 . S
C3016 C3015 1.373 . S
C3017 C3001 1.377 . S
C3017 C3015 1.389 . S
C3017 C3018 1.524 . S
C3018 C3017 1.524 . S
C3018 C3019 1.397 . S
C3018 C3023 1.363 . S
C3019 H2990 0.950 . S
C3019 C3018 1.397 . S
C3019 C3020 1.334 . S
C3020 H2991 0.950 . S
C3020 C3019 1.334 . S
C3020 C3021 1.287 . S
C3021 C3020 1.287 . S
C3021 C3022 1.524 . S
C3021 H3024 0.999 . S
C3022 H2992 0.950 . S
C3022 C3021 1.524 . S
C3022 C3023 1.415 . S
C3023 H2993 0.950 1_556 S
C3023 C3018 1.363 . S
C3023 C3022 1.415 . S
H3024 C3021 0.999 . S
H3025 C3006 0.913 . S
H3026 C3044 0.951 . S
H3027 C3046 0.951 . S
H3028 C3048 0.950 . S
H3029 C3049 0.950 . S
H3030 C3051 0.950 . S
H3031 C3054 0.950 . S
H3032 C3055 0.950 . S
H3033 C3057 0.950 . S
H3034 C3058 0.950 . S
H3035 C3059 0.951 . S
H3036 C3061 0.951 . S
H3037 C3063 0.950 . S
H3038 C3064 0.975 . S
H3039 C3066 0.950 . S
H3040 C3069 0.950 . S
H3041 C3070 0.950 . S
H3042 C3072 0.949 . S
H3043 C3073 0.950 . S
C3044 H3026 0.951 . S
C3044 C3045 1.366 . S
C3044 C3046 1.388 . S
C3045 C3044 1.366 . S
C3045 C3049 1.385 . S
C3046 H3027 0.951 . S
C3046 C3044 1.388 . S
C3046 C3047 1.366 . S
C3047 C3046 1.366 . S
C3047 C3048 1.414 . S
C3047 C3050 1.499 . S
C3048 H3028 0.950 . S
C3048 C3047 1.414 . S
C3048 C3049 1.374 . S
C3049 H3029 0.950 . S
C3049 C3045 1.385 . S
C3049 C3048 1.374 . S
C3050 C3047 1.499 . S
C3050 C3051 1.373 . S
C3050 C3052 1.389 . S
C3051 H3030 0.950 . S
C3051 C3050 1.373 . S
C3051 C3067 1.377 . S
C3052 C3050 1.389 . S
C3052 C3053 1.524 . S
C3052 C3066 1.377 . S
C3053 C3052 1.524 . S
C3053 C3054 1.397 . S
C3053 C3058 1.363 . S
C3054 H3031 0.950 . S
C3054 C3053 1.397 . S
C3054 C3055 1.334 . S
C3055 H3032 0.950 . S
C3055 C3054 1.334 . S
C3055 C3056 1.287 . S
C3056 C3055 1.287 . S
C3056 C3057 1.524 . S
C3056 H3075 0.913 . S
C3057 H3033 0.950 . S
C3057 C3056 1.524 . S
C3057 C3058 1.415 . S
C3058 H3034 0.950 . S
C3058 C3053 1.363 . S
C3058 C3057 1.415 . S
C3059 H3035 0.951 . S
C3059 C3060 1.366 . S
C3059 C3061 1.388 . S
C3060 C3059 1.366 . S
C3060 C3064 1.385 . S
C3061 H3036 0.951 . S
C3061 C3059 1.388 . S
C3061 C3062 1.366 . S
C3062 C3061 1.366 . S
C3062 C3063 1.414 . S
C3062 C3065 1.499 . S
C3063 H3037 0.950 . S
C3063 C3062 1.414 . S
C3063 C3064 1.374 . S
C3064 H3038 0.975 . S
C3064 C3060 1.385 . S
C3064 C3063 1.374 . S
C3065 C3062 1.499 . S
C3065 C3066 1.373 . S
C3065 C3067 1.389 . S
C3066 H3039 0.950 . S
C3066 C3052 1.377 . S
C3066 C3065 1.373 . S
C3067 C3051 1.377 . S
C3067 C3065 1.389 . S
C3067 C3068 1.524 . S
C3068 C3067 1.524 . S
C3068 C3069 1.397 1_554 S
C3068 C3073 1.363 . S
C3069 H3040 0.950 . S
C3069 C3068 1.397 1_556 S
C3069 C3070 1.334 . S
C3070 H3041 0.950 . S
C3070 C3069 1.334 . S
C3070 C3071 1.287 . S
C3071 C3070 1.287 . S
C3071 C3072 1.525 1_556 S
C3071 H3074 0.999 . S
C3072 H3042 0.949 . S
C3072 C3071 1.525 1_554 S
C3072 C3073 1.414 . S
C3073 H3043 0.950 . S
C3073 C3068 1.363 . S
C3073 C3072 1.414 . S
H3074 C3071 0.999 . S
H3075 C3056 0.913 . S
H3076 C3094 0.951 . S
H3077 C3096 0.951 . S
H3078 C3098 0.950 . S
H3079 C3099 0.950 . S
H3080 C3101 0.950 . S
H3081 C3104 0.950 . S
H3082 C3105 0.950 . S
H3083 C3107 0.950 . S
H3084 C3108 0.950 . S
H3085 C3109 0.951 . S
H3086 C3111 0.951 . S
H3087 C3113 0.950 . S
H3088 C3114 0.950 . S
H3089 C3116 0.950 . S
H3090 C3119 0.950 . S
H3091 C3120 0.950 . S
H3092 C3122 0.950 . S
H3093 C3123 0.950 . S
C3094 H3076 0.951 . S
C3094 C3095 1.366 . S
C3094 C3096 1.388 . S
C3095 C3094 1.366 . S
C3095 C3099 1.385 . S
C3096 H3077 0.951 . S
C3096 C3094 1.388 . S
C3096 C3097 1.366 . S
C3097 C3096 1.366 . S
C3097 C3098 1.414 . S
C3097 C3100 1.499 . S
C3098 H3078 0.950 . S
C3098 C3097 1.414 . S
C3098 C3099 1.374 . S
C3099 H3079 0.950 . S
C3099 C3095 1.385 . S
C3099 C3098 1.374 . S
C3100 C3097 1.499 . S
C3100 C3101 1.373 . S
C3100 C3102 1.389 . S
C3101 H3080 0.950 . S
C3101 C3100 1.373 . S
C3101 C3117 1.377 . S
C3102 C3100 1.389 . S
C3102 C3103 1.524 . S
C3102 C3116 1.377 . S
C3103 C3102 1.524 . S
C3103 C3104 1.397 . S
C3103 C3108 1.363 . S
C3104 H3081 0.950 . S
C3104 C3103 1.397 . S
C3104 C3105 1.334 . S
C3105 H3082 0.950 . S
C3105 C3104 1.334 . S
C3105 C3106 1.287 . S
C3106 C3105 1.287 . S
C3106 C3107 1.524 . S
C3106 H3125 0.913 . S
C3107 H3083 0.950 . S
C3107 C3106 1.524 . S
C3107 C3108 1.415 . S
C3108 H3084 0.950 . S
C3108 C3103 1.363 . S
C3108 C3107 1.415 . S
C3109 H3085 0.951 . S
C3109 C3110 1.366 . S
C3109 C3111 1.388 . S
C3110 C3109 1.366 . S
C3110 C3114 1.385 . S
C3111 H3086 0.951 . S
C3111 C3109 1.388 . S
C3111 C3112 1.366 . S
C3112 C3111 1.366 . S
C3112 C3113 1.414 . S
C3112 C3115 1.499 . S
C3113 H3087 0.950 . S
C3113 C3112 1.414 . S
C3113 C3114 1.374 . S
C3114 H3088 0.950 . S
C3114 C3110 1.385 . S
C3114 C3113 1.374 . S
C3115 C3112 1.499 . S
C3115 C3116 1.373 . S
C3115 C3117 1.389 . S
C3116 H3089 0.950 . S
C3116 C3102 1.377 . S
C3116 C3115 1.373 . S
C3117 C3101 1.377 . S
C3117 C3115 1.389 . S
C3117 C3118 1.524 . S
C3118 C3117 1.524 . S
C3118 C3119 1.397 . S
C3118 C3123 1.363 . S
C3119 H3090 0.950 . S
C3119 C3118 1.397 . S
C3119 C3120 1.334 . S
C3120 H3091 0.950 . S
C3120 C3119 1.334 . S
C3120 C3121 1.287 . S
C3121 C3120 1.287 . S
C3121 C3122 1.524 . S
C3121 H3124 0.999 . S
C3122 H3092 0.950 . S
C3122 C3121 1.524 . S
C3122 C3123 1.415 . S
C3123 H3093 0.950 . S
C3123 C3118 1.363 . S
C3123 C3122 1.415 . S
H3124 C3121 0.999 . S
H3125 C3106 0.913 . S
H3126 C3144 0.951 . S
H3127 C3146 0.951 . S
H3128 C3148 0.950 . S
H3129 C3149 0.950 . S
H3130 C3151 0.950 . S
H3131 C3154 0.950 . S
H3132 C3155 0.950 . S
H3133 C3157 0.950 . S
H3134 C3158 0.950 . S
H3135 C3159 0.951 . S
H3136 C3161 0.951 . S
H3137 C3163 0.950 . S
H3138 C3164 0.950 . S
H3139 C3166 0.950 . S
H3140 C3169 0.950 . S
H3141 C3170 0.950 . S
H3142 C3172 0.950 . S
H3143 C3173 0.950 . S
C3144 H3126 0.951 . S
C3144 C3145 1.366 . S
C3144 C3146 1.388 . S
C3145 C3144 1.366 . S
C3145 C3149 1.385 . S
C3146 H3127 0.951 . S
C3146 C3144 1.388 . S
C3146 C3147 1.366 . S
C3147 C3146 1.366 . S
C3147 C3148 1.414 . S
C3147 C3150 1.499 . S
C3148 H3128 0.950 . S
C3148 C3147 1.414 . S
C3148 C3149 1.374 . S
C3149 H3129 0.950 . S
C3149 C3145 1.385 . S
C3149 C3148 1.374 . S
C3150 C3147 1.499 . S
C3150 C3151 1.373 . S
C3150 C3152 1.389 . S
C3151 H3130 0.950 . S
C3151 C3150 1.373 . S
C3151 C3167 1.377 . S
C3152 C3150 1.389 . S
C3152 C3153 1.524 . S
C3152 C3166 1.377 . S
C3153 C3152 1.524 . S
C3153 C3154 1.397 . S
C3153 C3158 1.363 . S
C3154 H3131 0.950 . S
C3154 C3153 1.397 . S
C3154 C3155 1.334 . S
C3155 H3132 0.950 . S
C3155 C3154 1.334 . S
C3155 C3156 1.287 . S
C3156 C3155 1.287 . S
C3156 C3157 1.524 . S
C3156 H3175 0.913 . S
C3157 H3133 0.950 . S
C3157 C3156 1.524 . S
C3157 C3158 1.415 . S
C3158 H3134 0.950 . S
C3158 C3153 1.363 . S
C3158 C3157 1.415 . S
C3159 H3135 0.951 . S
C3159 C3160 1.366 . S
C3159 C3161 1.388 . S
C3160 C3159 1.366 . S
C3160 C3164 1.385 . S
C3161 H3136 0.951 . S
C3161 C3159 1.388 . S
C3161 C3162 1.366 . S
C3162 C3161 1.366 . S
C3162 C3163 1.414 . S
C3162 C3165 1.499 . S
C3163 H3137 0.950 . S
C3163 C3162 1.414 . S
C3163 C3164 1.374 . S
C3164 H3138 0.950 . S
C3164 C3160 1.385 . S
C3164 C3163 1.374 . S
C3165 C3162 1.499 . S
C3165 C3166 1.373 . S
C3165 C3167 1.389 . S
C3166 H3139 0.950 . S
C3166 C3152 1.377 . S
C3166 C3165 1.373 . S
C3167 C3151 1.377 . S
C3167 C3165 1.389 . S
C3167 C3168 1.524 . S
C3168 C3167 1.524 . S
C3168 C3169 1.397 . S
C3168 C3173 1.363 . S
C3169 H3140 0.950 . S
C3169 C3168 1.397 . S
C3169 C3170 1.334 . S
C3170 H3141 0.950 . S
C3170 C3169 1.334 . S
C3170 C3171 1.287 . S
C3171 C3170 1.287 . S
C3171 C3172 1.524 . S
C3171 H3174 0.999 . S
C3172 H3142 0.950 . S
C3172 C3171 1.524 . S
C3172 C3173 1.415 . S
C3173 H3143 0.950 . S
C3173 C3168 1.363 . S
C3173 C3172 1.415 . S
H3174 C3171 0.999 . S
H3175 C3156 0.913 . S
H3176 C3194 0.951 . S
H3177 C3196 0.951 . S
H3178 C3198 0.950 . S
H3179 C3199 0.950 . S
H3180 C3201 0.950 . S
H3181 C3204 0.950 . S
H3182 C3205 0.950 . S
H3183 C3207 0.950 . S
H3184 C3208 0.950 . S
H3185 C3209 0.951 . S
H3186 C3211 0.951 . S
H3187 C3213 0.950 . S
H3188 C3214 0.950 . S
H3189 C3216 0.950 . S
H3190 C3219 0.950 . S
H3191 C3220 0.950 . S
H3192 C3222 0.950 . S
H3193 C3223 0.950 . S
C3194 H3176 0.951 . S
C3194 C3195 1.366 1_565 S
C3194 C3196 1.388 . S
C3195 C3194 1.366 1_545 S
C3195 C3199 1.385 . S
C3196 H3177 0.951 . S
C3196 C3194 1.388 . S
C3196 C3197 1.366 . S
C3197 C3196 1.366 . S
C3197 C3198 1.414 . S
C3197 C3200 1.499 . S
C3198 H3178 0.950 . S
C3198 C3197 1.414 . S
C3198 C3199 1.374 1_565 S
C3199 H3179 0.950 . S
C3199 C3195 1.385 . S
C3199 C3198 1.374 1_545 S
C3200 C3197 1.499 . S
C3200 C3201 1.373 . S
C3200 C3202 1.389 . S
C3201 H3180 0.950 . S
C3201 C3200 1.373 . S
C3201 C3217 1.377 . S
C3202 C3200 1.389 . S
C3202 C3203 1.524 . S
C3202 C3216 1.377 . S
C3203 C3202 1.524 . S
C3203 C3204 1.397 . S
C3203 C3208 1.363 . S
C3204 H3181 0.950 . S
C3204 C3203 1.397 . S
C3204 C3205 1.334 . S
C3205 H3182 0.950 . S
C3205 C3204 1.334 . S
C3205 C3206 1.287 . S
C3206 C3205 1.287 . S
C3206 C3207 1.524 . S
C3206 H3225 0.913 . S
C3207 H3183 0.950 . S
C3207 C3206 1.524 . S
C3207 C3208 1.415 . S
C3208 H3184 0.950 . S
C3208 C3203 1.363 . S
C3208 C3207 1.415 . S
C3209 H3185 0.951 . S
C3209 C3210 1.366 . S
C3209 C3211 1.388 . S
C3210 C3209 1.366 . S
C3210 C3214 1.385 . S
C3211 H3186 0.951 . S
C3211 C3209 1.388 . S
C3211 C3212 1.366 . S
C3212 C3211 1.366 . S
C3212 C3213 1.414 . S
C3212 C3215 1.499 . S
C3213 H3187 0.950 . S
C3213 C3212 1.414 . S
C3213 C3214 1.374 . S
C3214 H3188 0.950 . S
C3214 C3210 1.385 . S
C3214 C3213 1.374 . S
C3215 C3212 1.499 . S
C3215 C3216 1.373 . S
C3215 C3217 1.389 . S
C3216 H3189 0.950 . S
C3216 C3202 1.377 . S
C3216 C3215 1.373 . S
C3217 C3201 1.377 . S
C3217 C3215 1.389 . S
C3217 C3218 1.524 . S
C3218 C3217 1.524 . S
C3218 C3219 1.397 . S
C3218 C3223 1.363 . S
C3219 H3190 0.950 . S
C3219 C3218 1.397 . S
C3219 C3220 1.334 . S
C3220 H3191 0.950 . S
C3220 C3219 1.334 . S
C3220 C3221 1.287 . S
C3221 C3220 1.287 . S
C3221 C3222 1.524 . S
C3221 H3224 0.999 . S
C3222 H3192 0.950 . S
C3222 C3221 1.524 . S
C3222 C3223 1.415 . S
C3223 H3193 0.950 . S
C3223 C3218 1.363 . S
C3223 C3222 1.415 . S
H3224 C3221 0.999 . S
H3225 C3206 0.913 . S
H3226 C3244 0.951 . S
H3227 C3246 0.951 . S
H3228 C3248 0.950 . S
H3229 C3249 0.950 . S
H3230 C3251 0.950 . S
H3231 C3254 0.950 . S
H3232 C3255 0.950 . S
H3233 C3257 0.950 . S
H3234 C3258 0.950 . S
H3235 C3259 0.951 . S
H3236 C3261 0.951 . S
H3237 C3263 0.950 . S
H3238 C3264 0.950 . S
H3239 C3266 0.950 . S
H3240 C3269 0.950 . S
H3241 C3270 0.950 1_545 S
H3242 C3272 0.950 . S
H3243 C3273 0.950 . S
C3244 H3226 0.951 . S
C3244 C3245 1.366 . S
C3244 C3246 1.388 . S
C3245 C3244 1.366 . S
C3245 C3249 1.385 . S
C3246 H3227 0.951 . S
C3246 C3244 1.388 . S
C3246 C3247 1.366 . S
C3247 C3246 1.366 . S
C3247 C3248 1.414 . S
C3247 C3250 1.499 . S
C3248 H3228 0.950 . S
C3248 C3247 1.414 . S
C3248 C3249 1.374 . S
C3249 H3229 0.950 . S
C3249 C3245 1.385 . S
C3249 C3248 1.374 . S
C3250 C3247 1.499 . S
C3250 C3251 1.373 . S
C3250 C3252 1.389 . S
C3251 H3230 0.950 . S
C3251 C3250 1.373 . S
C3251 C3267 1.377 . S
C3252 C3250 1.389 . S
C3252 C3253 1.524 . S
C3252 C3266 1.377 . S
C3253 C3252 1.524 . S
C3253 C3254 1.397 . S
C3253 C3258 1.363 . S
C3254 H3231 0.950 . S
C3254 C3253 1.397 . S
C3254 C3255 1.334 . S
C3255 H3232 0.950 . S
C3255 C3254 1.334 . S
C3255 C3256 1.287 . S
C3256 C3255 1.287 . S
C3256 C3257 1.524 . S
C3256 H3275 0.913 . S
C3257 H3233 0.950 . S
C3257 C3256 1.524 . S
C3257 C3258 1.415 . S
C3258 H3234 0.950 . S
C3258 C3253 1.363 . S
C3258 C3257 1.415 . S
C3259 H3235 0.951 . S
C3259 C3260 1.366 . S
C3259 C3261 1.388 . S
C3260 C3259 1.366 . S
C3260 C3264 1.385 . S
C3261 H3236 0.951 . S
C3261 C3259 1.388 . S
C3261 C3262 1.366 . S
C3262 C3261 1.366 . S
C3262 C3263 1.414 . S
C3262 C3265 1.499 . S
C3263 H3237 0.950 . S
C3263 C3262 1.414 . S
C3263 C3264 1.374 . S
C3264 H3238 0.950 . S
C3264 C3260 1.385 . S
C3264 C3263 1.374 . S
C3265 C3262 1.499 . S
C3265 C3266 1.373 . S
C3265 C3267 1.389 . S
C3266 H3239 0.950 . S
C3266 C3252 1.377 . S
C3266 C3265 1.373 . S
C3267 C3251 1.377 . S
C3267 C3265 1.389 . S
C3267 C3268 1.524 . S
C3268 C3267 1.524 . S
C3268 C3269 1.397 . S
C3268 C3273 1.363 . S
C3269 H3240 0.950 . S
C3269 C3268 1.397 . S
C3269 C3270 1.334 . S
C3270 H3241 0.950 1_565 S
C3270 C3269 1.334 . S
C3270 C3271 1.287 1_565 S
C3271 C3270 1.287 1_545 S
C3271 C3272 1.524 1_545 S
C3271 H3274 0.999 . S
C3272 H3242 0.950 . S
C3272 C3271 1.524 1_565 S
C3272 C3273 1.415 . S
C3273 H3243 0.950 . S
C3273 C3268 1.363 . S
C3273 C3272 1.415 . S
H3274 C3271 0.999 . S
H3275 C3256 0.913 . S
H3276 C3294 0.951 . S
H3277 C3296 0.951 . S
H3278 C3298 0.950 . S
H3279 C3299 0.950 . S
H3280 C3301 0.950 . S
H3281 C3304 0.950 . S
H3282 C3305 0.950 . S
H3283 C3307 0.950 . S
H3284 C3308 0.950 . S
H3285 C3309 0.951 . S
H3286 C3311 0.951 . S
H3287 C3313 0.950 . S
H3288 C3314 0.950 . S
H3289 C3316 0.950 . S
H3290 C3319 0.950 . S
H3291 C3320 0.950 . S
H3292 C3322 0.950 . S
H3293 C3323 0.950 . S
C3294 H3276 0.951 . S
C3294 C3295 1.366 . S
C3294 C3296 1.388 . S
C3295 C3294 1.366 . S
C3295 C3299 1.385 . S
C3296 H3277 0.951 . S
C3296 C3294 1.388 . S
C3296 C3297 1.366 . S
C3297 C3296 1.366 . S
C3297 C3298 1.414 . S
C3297 C3300 1.499 . S
C3298 H3278 0.950 . S
C3298 C3297 1.414 . S
C3298 C3299 1.374 . S
C3299 H3279 0.950 . S
C3299 C3295 1.385 . S
C3299 C3298 1.374 . S
C3300 C3297 1.499 . S
C3300 C3301 1.373 . S
C3300 C3302 1.389 . S
C3301 H3280 0.950 . S
C3301 C3300 1.373 . S
C3301 C3317 1.377 . S
C3302 C3300 1.389 . S
C3302 C3303 1.524 . S
C3302 C3316 1.377 . S
C3303 C3302 1.524 . S
C3303 C3304 1.397 . S
C3303 C3308 1.363 . S
C3304 H3281 0.950 . S
C3304 C3303 1.397 . S
C3304 C3305 1.334 . S
C3305 H3282 0.950 . S
C3305 C3304 1.334 . S
C3305 C3306 1.287 . S
C3306 C3305 1.287 . S
C3306 C3307 1.524 . S
C3306 H3325 0.913 . S
C3307 H3283 0.950 . S
C3307 C3306 1.524 . S
C3307 C3308 1.415 . S
C3308 H3284 0.950 . S
C3308 C3303 1.363 . S
C3308 C3307 1.415 . S
C3309 H3285 0.951 . S
C3309 C3310 1.366 . S
C3309 C3311 1.388 . S
C3310 C3309 1.366 . S
C3310 C3314 1.385 . S
C3311 H3286 0.951 . S
C3311 C3309 1.388 . S
C3311 C3312 1.366 . S
C3312 C3311 1.366 . S
C3312 C3313 1.414 . S
C3312 C3315 1.499 . S
C3313 H3287 0.950 . S
C3313 C3312 1.414 . S
C3313 C3314 1.374 . S
C3314 H3288 0.950 . S
C3314 C3310 1.385 . S
C3314 C3313 1.374 . S
C3315 C3312 1.499 . S
C3315 C3316 1.373 . S
C3315 C3317 1.389 . S
C3316 H3289 0.950 . S
C3316 C3302 1.377 . S
C3316 C3315 1.373 . S
C3317 C3301 1.377 . S
C3317 C3315 1.389 . S
C3317 C3318 1.524 . S
C3318 C3317 1.524 . S
C3318 C3319 1.397 . S
C3318 C3323 1.363 . S
C3319 H3290 0.950 . S
C3319 C3318 1.397 . S
C3319 C3320 1.334 . S
C3320 H3291 0.950 . S
C3320 C3319 1.334 . S
C3320 C3321 1.287 . S
C3321 C3320 1.287 . S
C3321 C3322 1.524 . S
C3321 H3324 0.999 . S
C3322 H3292 0.950 . S
C3322 C3321 1.524 . S
C3322 C3323 1.415 . S
C3323 H3293 0.950 . S
C3323 C3318 1.363 . S
C3323 C3322 1.415 . S
H3324 C3321 0.999 . S
H3325 C3306 0.913 . S
H3326 C3344 0.951 . S
H3327 C3346 0.951 . S
H3328 C3348 0.950 . S
H3329 C3349 0.950 . S
H3330 C3351 0.950 . S
H3331 C3354 0.950 . S
H3332 C3355 0.950 . S
H3333 C3357 0.950 . S
H3334 C3358 0.950 . S
H3335 C3359 0.951 . S
H3336 C3361 0.951 . S
H3337 C3363 0.950 . S
H3338 C3364 0.950 . S
H3339 C3366 0.950 . S
H3340 C3369 0.950 . S
H3341 C3370 0.950 . S
H3342 C3372 0.950 . S
H3343 C3373 0.950 . S
C3344 H3326 0.951 . S
C3344 C3345 1.366 . S
C3344 C3346 1.388 . S
C3345 C3344 1.366 . S
C3345 C3349 1.385 . S
C3346 H3327 0.951 . S
C3346 C3344 1.388 . S
C3346 C3347 1.366 . S
C3347 C3346 1.366 . S
C3347 C3348 1.414 . S
C3347 C3350 1.499 . S
C3348 H3328 0.950 . S
C3348 C3347 1.414 . S
C3348 C3349 1.374 . S
C3349 H3329 0.950 . S
C3349 C3345 1.385 . S
C3349 C3348 1.374 . S
C3350 C3347 1.499 . S
C3350 C3351 1.373 . S
C3350 C3352 1.389 . S
C3351 H3330 0.950 . S
C3351 C3350 1.373 . S
C3351 C3367 1.377 . S
C3352 C3350 1.389 . S
C3352 C3353 1.524 . S
C3352 C3366 1.377 . S
C3353 C3352 1.524 . S
C3353 C3354 1.397 . S
C3353 C3358 1.363 . S
C3354 H3331 0.950 . S
C3354 C3353 1.397 . S
C3354 C3355 1.334 . S
C3355 H3332 0.950 . S
C3355 C3354 1.334 . S
C3355 C3356 1.287 . S
C3356 C3355 1.287 . S
C3356 C3357 1.524 . S
C3356 H3375 0.913 . S
C3357 H3333 0.950 . S
C3357 C3356 1.524 . S
C3357 C3358 1.415 . S
C3358 H3334 0.950 . S
C3358 C3353 1.363 . S
C3358 C3357 1.415 . S
C3359 H3335 0.951 . S
C3359 C3360 1.366 . S
C3359 C3361 1.388 . S
C3360 C3359 1.366 . S
C3360 C3364 1.385 . S
C3361 H3336 0.951 . S
C3361 C3359 1.388 . S
C3361 C3362 1.366 . S
C3362 C3361 1.366 . S
C3362 C3363 1.414 . S
C3362 C3365 1.499 . S
C3363 H3337 0.950 . S
C3363 C3362 1.414 . S
C3363 C3364 1.374 . S
C3364 H3338 0.950 . S
C3364 C3360 1.385 . S
C3364 C3363 1.374 . S
C3365 C3362 1.499 . S
C3365 C3366 1.373 . S
C3365 C3367 1.389 . S
C3366 H3339 0.950 . S
C3366 C3352 1.377 . S
C3366 C3365 1.373 . S
C3367 C3351 1.377 . S
C3367 C3365 1.389 . S
C3367 C3368 1.524 . S
C3368 C3367 1.524 . S
C3368 C3369 1.397 . S
C3368 C3373 1.363 . S
C3369 H3340 0.950 . S
C3369 C3368 1.397 . S
C3369 C3370 1.334 . S
C3370 H3341 0.950 . S
C3370 C3369 1.334 . S
C3370 C3371 1.287 . S
C3371 C3370 1.287 . S
C3371 C3372 1.524 . S
C3371 H3374 0.999 . S
C3372 H3342 0.950 . S
C3372 C3371 1.524 . S
C3372 C3373 1.415 . S
C3373 H3343 0.950 . S
C3373 C3368 1.363 . S
C3373 C3372 1.415 . S
H3374 C3371 0.999 . S
H3375 C3356 0.913 . S
H3376 C3394 0.951 . S
H3377 C3396 0.951 . S
H3378 C3398 0.950 . S
H3379 C3399 0.950 . S
H3380 C3401 0.950 . S
H3381 C3404 0.950 . S
H3382 C3405 0.950 . S
H3383 C3407 0.950 . S
H3384 C3408 0.950 . S
H3385 C3409 0.951 . S
H3386 C3411 0.951 . S
H3387 C3413 0.950 . S
H3388 C3414 0.950 . S
H3389 C3416 0.950 . S
H3390 C3419 0.950 . S
H3391 C3420 0.950 . S
H3392 C3422 0.950 . S
H3393 C3423 0.950 . S
C3394 H3376 0.951 . S
C3394 C3395 1.366 . S
C3394 C3396 1.388 . S
C3395 C3394 1.366 . S
C3395 C3399 1.385 . S
C3396 H3377 0.951 . S
C3396 C3394 1.388 . S
C3396 C3397 1.366 . S
C3397 C3396 1.366 . S
C3397 C3398 1.414 . S
C3397 C3400 1.499 . S
C3398 H3378 0.950 . S
C3398 C3397 1.414 . S
C3398 C3399 1.374 . S
C3399 H3379 0.950 . S
C3399 C3395 1.385 . S
C3399 C3398 1.374 . S
C3400 C3397 1.499 . S
C3400 C3401 1.373 . S
C3400 C3402 1.389 . S
C3401 H3380 0.950 . S
C3401 C3400 1.373 . S
C3401 C3417 1.377 . S
C3402 C3400 1.389 . S
C3402 C3403 1.524 . S
C3402 C3416 1.377 . S
C3403 C3402 1.524 . S
C3403 C3404 1.397 . S
C3403 C3408 1.363 . S
C3404 H3381 0.950 . S
C3404 C3403 1.397 . S
C3404 C3405 1.334 . S
C3405 H3382 0.950 . S
C3405 C3404 1.334 . S
C3405 C3406 1.287 . S
C3406 C3405 1.287 . S
C3406 C3407 1.524 . S
C3406 H3425 0.913 . S
C3407 H3383 0.950 . S
C3407 C3406 1.524 . S
C3407 C3408 1.415 . S
C3408 H3384 0.950 . S
C3408 C3403 1.363 . S
C3408 C3407 1.415 . S
C3409 H3385 0.951 . S
C3409 C3410 1.366 . S
C3409 C3411 1.388 . S
C3410 C3409 1.366 . S
C3410 C3414 1.385 . S
C3411 H3386 0.951 . S
C3411 C3409 1.388 . S
C3411 C3412 1.366 . S
C3412 C3411 1.366 . S
C3412 C3413 1.414 . S
C3412 C3415 1.499 . S
C3413 H3387 0.950 . S
C3413 C3412 1.414 . S
C3413 C3414 1.374 . S
C3414 H3388 0.950 . S
C3414 C3410 1.385 . S
C3414 C3413 1.374 . S
C3415 C3412 1.499 . S
C3415 C3416 1.373 . S
C3415 C3417 1.389 . S
C3416 H3389 0.950 . S
C3416 C3402 1.377 . S
C3416 C3415 1.373 . S
C3417 C3401 1.377 . S
C3417 C3415 1.389 . S
C3417 C3418 1.524 . S
C3418 C3417 1.524 . S
C3418 C3419 1.397 . S
C3418 C3423 1.363 . S
C3419 H3390 0.950 . S
C3419 C3418 1.397 . S
C3419 C3420 1.334 . S
C3420 H3391 0.950 . S
C3420 C3419 1.334 . S
C3420 C3421 1.287 . S
C3421 C3420 1.287 . S
C3421 C3422 1.524 . S
C3421 H3424 0.999 . S
C3422 H3392 0.950 . S
C3422 C3421 1.524 . S
C3422 C3423 1.415 . S
C3423 H3393 0.950 . S
C3423 C3418 1.363 . S
C3423 C3422 1.415 . S
H3424 C3421 0.999 . S
H3425 C3406 0.913 . S
H3426 C3444 0.951 . S
H3427 C3446 0.951 . S
H3428 C3448 0.950 . S
H3429 C3449 0.950 . S
H3430 C3451 0.950 . S
H3431 C3454 0.950 . S
H3432 C3455 0.950 . S
H3433 C3457 0.950 . S
H3434 C3458 0.950 . S
H3435 C3459 0.951 . S
H3436 C3461 0.951 . S
H3437 C3463 0.950 . S
H3438 C3464 0.950 . S
H3439 C3466 0.950 . S
H3440 C3469 0.950 . S
H3441 C3470 0.950 . S
H3442 C3472 0.950 . S
H3443 C3473 0.950 . S
C3444 H3426 0.951 . S
C3444 C3445 1.366 . S
C3444 C3446 1.388 . S
C3445 C3444 1.366 . S
C3445 C3449 1.385 . S
C3446 H3427 0.951 . S
C3446 C3444 1.388 . S
C3446 C3447 1.366 . S
C3447 C3446 1.366 . S
C3447 C3448 1.414 . S
C3447 C3450 1.499 . S
C3448 H3428 0.950 . S
C3448 C3447 1.414 . S
C3448 C3449 1.374 . S
C3449 H3429 0.950 . S
C3449 C3445 1.385 . S
C3449 C3448 1.374 . S
C3450 C3447 1.499 . S
C3450 C3451 1.373 . S
C3450 C3452 1.389 . S
C3451 H3430 0.950 . S
C3451 C3450 1.373 . S
C3451 C3467 1.377 . S
C3452 C3450 1.389 . S
C3452 C3453 1.524 . S
C3452 C3466 1.377 . S
C3453 C3452 1.524 . S
C3453 C3454 1.397 . S
C3453 C3458 1.363 . S
C3454 H3431 0.950 . S
C3454 C3453 1.397 . S
C3454 C3455 1.334 . S
C3455 H3432 0.950 . S
C3455 C3454 1.334 . S
C3455 C3456 1.287 . S
C3456 C3455 1.287 . S
C3456 C3457 1.524 . S
C3456 H3475 0.913 . S
C3457 H3433 0.950 . S
C3457 C3456 1.524 . S
C3457 C3458 1.415 . S
C3458 H3434 0.950 . S
C3458 C3453 1.363 . S
C3458 C3457 1.415 . S
C3459 H3435 0.951 . S
C3459 C3460 1.366 . S
C3459 C3461 1.388 . S
C3460 C3459 1.366 . S
C3460 C3464 1.385 . S
C3461 H3436 0.951 . S
C3461 C3459 1.388 . S
C3461 C3462 1.366 . S
C3462 C3461 1.366 . S
C3462 C3463 1.414 . S
C3462 C3465 1.499 . S
C3463 H3437 0.950 . S
C3463 C3462 1.414 . S
C3463 C3464 1.374 . S
C3464 H3438 0.950 . S
C3464 C3460 1.385 . S
C3464 C3463 1.374 . S
C3465 C3462 1.499 . S
C3465 C3466 1.373 . S
C3465 C3467 1.389 . S
C3466 H3439 0.950 . S
C3466 C3452 1.377 . S
C3466 C3465 1.373 . S
C3467 C3451 1.377 . S
C3467 C3465 1.389 . S
C3467 C3468 1.524 . S
C3468 C3467 1.524 . S
C3468 C3469 1.397 . S
C3468 C3473 1.363 . S
C3469 H3440 0.950 . S
C3469 C3468 1.397 . S
C3469 C3470 1.334 . S
C3470 H3441 0.950 . S
C3470 C3469 1.334 . S
C3470 C3471 1.287 . S
C3471 C3470 1.287 . S
C3471 C3472 1.524 . S
C3471 H3474 0.999 . S
C3472 H3442 0.950 . S
C3472 C3471 1.524 . S
C3472 C3473 1.415 . S
C3473 H3443 0.950 . S
C3473 C3468 1.363 . S
C3473 C3472 1.415 . S
H3474 C3471 0.999 . S
H3475 C3456 0.913 . S
H3476 C3494 0.951 . S
H3477 C3496 0.951 . S
H3478 C3498 0.950 . S
H3479 C3499 0.950 . S
H3480 C3501 0.950 . S
H3481 C3504 0.950 . S
H3482 C3505 0.950 . S
H3483 C3507 0.950 . S
H3484 C3508 0.950 . S
H3485 C3509 0.951 . S
H3486 C3511 0.951 . S
H3487 C3513 0.950 . S
H3488 C3514 0.950 . S
H3489 C3516 0.950 . S
H3490 C3519 0.950 . S
H3491 C3520 0.964 . S
H3492 C3522 0.950 . S
H3493 C3523 0.950 . S
C3494 H3476 0.951 . S
C3494 C3495 1.366 . S
C3494 C3496 1.388 . S
C3495 C3494 1.366 . S
C3495 C3499 1.385 . S
C3496 H3477 0.951 . S
C3496 C3494 1.388 . S
C3496 C3497 1.366 . S
C3497 C3496 1.366 . S
C3497 C3498 1.414 . S
C3497 C3500 1.499 . S
C3498 H3478 0.950 . S
C3498 C3497 1.414 . S
C3498 C3499 1.374 . S
C3499 H3479 0.950 . S
C3499 C3495 1.385 . S
C3499 C3498 1.374 . S
C3500 C3497 1.499 . S
C3500 C3501 1.373 . S
C3500 C3502 1.389 . S
C3501 H3480 0.950 . S
C3501 C3500 1.373 . S
C3501 C3517 1.377 . S
C3502 C3500 1.389 . S
C3502 C3503 1.524 1_455 S
C3502 C3516 1.377 . S
C3503 C3502 1.524 1_655 S
C3503 C3504 1.397 . S
C3503 C3508 1.363 . S
C3504 H3481 0.950 . S
C3504 C3503 1.397 . S
C3504 C3505 1.334 . S
C3505 H3482 0.950 . S
C3505 C3504 1.334 . S
C3505 C3506 1.287 . S
C3506 C3505 1.287 . S
C3506 C3507 1.524 . S
C3506 H3525 0.913 . S
C3507 H3483 0.950 . S
C3507 C3506 1.524 . S
C3507 C3508 1.415 . S
C3508 H3484 0.950 . S
C3508 C3503 1.363 . S
C3508 C3507 1.415 . S
C3509 H3485 0.951 . S
C3509 C3510 1.318 1_556 S
C3509 C3511 1.388 . S
C3510 C3509 1.318 1_554 S
C3510 C3514 1.422 . S
C3511 H3486 0.951 . S
C3511 C3509 1.388 . S
C3511 C3512 1.366 . S
C3512 C3511 1.366 . S
C3512 C3513 1.414 1_556 S
C3512 C3515 1.499 . S
C3513 H3487 0.950 . S
C3513 C3512 1.414 1_554 S
C3513 C3514 1.374 . S
C3514 H3488 0.950 . S
C3514 C3510 1.422 . S
C3514 C3513 1.374 . S
C3515 C3512 1.499 . S
C3515 C3516 1.373 . S
C3515 C3517 1.389 . S
C3516 H3489 0.950 . S
C3516 C3502 1.377 . S
C3516 C3515 1.373 . S
C3517 C3501 1.377 . S
C3517 C3515 1.389 . S
C3517 C3518 1.524 . S
C3518 C3517 1.524 . S
C3518 C3519 1.397 . S
C3518 C3523 1.363 . S
C3519 H3490 0.950 . S
C3519 C3518 1.397 . S
C3519 C3520 1.334 . S
C3520 H3491 0.964 . S
C3520 C3519 1.334 . S
C3520 C3521 1.287 . S
C3521 C3520 1.287 . S
C3521 C3522 1.524 . S
C3521 H3524 0.999 . S
C3522 H3492 0.950 . S
C3522 C3521 1.524 . S
C3522 C3523 1.415 . S
C3523 H3493 0.950 . S
C3523 C3518 1.363 . S
C3523 C3522 1.415 . S
H3524 C3521 0.999 . S
H3525 C3506 0.913 . S
H3526 C3544 0.951 . S
H3527 C3546 0.951 . S
H3528 C3548 0.950 . S
H3529 C3549 0.950 . S
H3530 C3551 0.950 . S
H3531 C3554 0.950 . S
H3532 C3555 0.950 . S
H3533 C3557 0.950 . S
H3534 C3558 0.950 . S
H3535 C3559 0.951 . S
H3536 C3561 0.951 . S
H3537 C3563 0.950 . S
H3538 C3564 0.950 . S
H3539 C3566 0.950 . S
H3540 C3569 0.950 . S
H3541 C3570 0.950 . S
H3542 C3572 0.950 . S
H3543 C3573 0.950 . S
C3544 H3526 0.951 . S
C3544 C3545 1.366 . S
C3544 C3546 1.388 1_455 S
C3545 C3544 1.366 . S
C3545 C3549 1.385 . S
C3546 H3527 0.951 . S
C3546 C3544 1.388 1_655 S
C3546 C3547 1.366 . S
C3547 C3546 1.366 . S
C3547 C3548 1.414 . S
C3547 C3550 1.499 . S
C3548 H3528 0.950 . S
C3548 C3547 1.414 . S
C3548 C3549 1.374 1_655 S
C3549 H3529 0.950 . S
C3549 C3545 1.385 . S
C3549 C3548 1.374 1_455 S
C3550 C3547 1.499 . S
C3550 C3551 1.373 . S
C3550 C3552 1.389 . S
C3551 H3530 0.950 . S
C3551 C3550 1.373 . S
C3551 C3567 1.377 . S
C3552 C3550 1.389 . S
C3552 C3553 1.524 . S
C3552 C3566 1.377 . S
C3553 C3552 1.524 . S
C3553 C3554 1.397 . S
C3553 C3558 1.363 . S
C3554 H3531 0.950 . S
C3554 C3553 1.397 . S
C3554 C3555 1.334 1_655 S
C3555 H3532 0.950 . S
C3555 C3554 1.334 1_455 S
C3555 C3556 1.287 . S
C3556 C3555 1.287 . S
C3556 C3557 1.524 . S
C3556 H3575 0.913 . S
C3557 H3533 0.950 . S
C3557 C3556 1.524 . S
C3557 C3558 1.415 1_455 S
C3558 H3534 0.950 . S
C3558 C3553 1.363 . S
C3558 C3557 1.415 1_655 S
C3559 H3535 0.951 . S
C3559 C3560 1.366 . S
C3559 C3561 1.388 . S
C3560 C3559 1.366 . S
C3560 C3564 1.385 . S
C3561 H3536 0.951 . S
C3561 C3559 1.388 . S
C3561 C3562 1.366 . S
C3562 C3561 1.366 . S
C3562 C3563 1.414 . S
C3562 C3565 1.499 . S
C3563 H3537 0.950 . S
C3563 C3562 1.414 . S
C3563 C3564 1.374 . S
C3564 H3538 0.950 . S
C3564 C3560 1.385 . S
C3564 C3563 1.374 . S
C3565 C3562 1.499 . S
C3565 C3566 1.373 . S
C3565 C3567 1.389 . S
C3566 H3539 0.950 . S
C3566 C3552 1.377 . S
C3566 C3565 1.373 . S
C3567 C3551 1.377 . S
C3567 C3565 1.389 . S
C3567 C3568 1.524 . S
C3568 C3567 1.524 . S
C3568 C3569 1.397 . S
C3568 C3573 1.363 . S
C3569 H3540 0.950 . S
C3569 C3568 1.397 . S
C3569 C3570 1.334 . S
C3570 H3541 0.950 . S
C3570 C3569 1.334 . S
C3570 C3571 1.287 . S
C3571 C3570 1.287 . S
C3571 C3572 1.524 . S
C3571 H3574 0.999 . S
C3572 H3542 0.950 . S
C3572 C3571 1.524 . S
C3572 C3573 1.415 . S
C3573 H3543 0.950 . S
C3573 C3568 1.363 . S
C3573 C3572 1.415 . S
H3574 C3571 0.999 . S
H3575 C3556 0.913 . S
H3576 C3594 0.951 . S
H3577 C3596 0.951 . S
H3578 C3598 0.950 . S
H3579 C3599 0.950 . S
H3580 C3601 0.950 . S
H3581 C3604 0.950 . S
H3582 C3605 0.950 . S
H3583 C3607 0.950 . S
H3584 C3608 0.950 . S
H3585 C3609 0.951 . S
H3586 C3611 0.951 . S
H3587 C3613 0.950 . S
H3588 C3614 0.950 . S
H3589 C3616 0.950 . S
H3590 C3619 0.950 . S
H3591 C3620 0.950 . S
H3592 C3622 0.950 . S
H3593 C3623 0.950 . S
C3594 H3576 0.951 . S
C3594 C3595 1.366 . S
C3594 C3596 1.388 . S
C3595 C3594 1.366 . S
C3595 C3599 1.385 . S
C3596 H3577 0.951 . S
C3596 C3594 1.388 . S
C3596 C3597 1.366 . S
C3597 C3596 1.366 . S
C3597 C3598 1.414 . S
C3597 C3600 1.499 . S
C3598 H3578 0.950 . S
C3598 C3597 1.414 . S
C3598 C3599 1.374 . S
C3599 H3579 0.950 . S
C3599 C3595 1.385 . S
C3599 C3598 1.374 . S
C3600 C3597 1.499 . S
C3600 C3601 1.373 . S
C3600 C3602 1.389 . S
C3601 H3580 0.950 . S
C3601 C3600 1.373 . S
C3601 C3617 1.377 . S
C3602 C3600 1.389 . S
C3602 C3603 1.524 . S
C3602 C3616 1.377 . S
C3603 C3602 1.524 . S
C3603 C3604 1.397 . S
C3603 C3608 1.363 . S
C3604 H3581 0.950 . S
C3604 C3603 1.397 . S
C3604 C3605 1.334 . S
C3605 H3582 0.950 . S
C3605 C3604 1.334 . S
C3605 C3606 1.287 . S
C3606 C3605 1.287 . S
C3606 C3607 1.524 . S
C3606 H3625 0.913 . S
C3607 H3583 0.950 . S
C3607 C3606 1.524 . S
C3607 C3608 1.415 . S
C3608 H3584 0.950 . S
C3608 C3603 1.363 . S
C3608 C3607 1.415 . S
C3609 H3585 0.951 . S
C3609 C3610 1.366 . S
C3609 C3611 1.388 . S
C3610 C3609 1.366 . S
C3610 C3614 1.385 . S
C3611 H3586 0.951 . S
C3611 C3609 1.388 . S
C3611 C3612 1.366 . S
C3612 C3611 1.366 . S
C3612 C3613 1.414 . S
C3612 C3615 1.499 . S
C3613 H3587 0.950 . S
C3613 C3612 1.414 . S
C3613 C3614 1.374 . S
C3614 H3588 0.950 . S
C3614 C3610 1.385 . S
C3614 C3613 1.374 . S
C3615 C3612 1.499 . S
C3615 C3616 1.373 . S
C3615 C3617 1.389 . S
C3616 H3589 0.950 . S
C3616 C3602 1.377 . S
C3616 C3615 1.373 . S
C3617 C3601 1.377 . S
C3617 C3615 1.389 . S
C3617 C3618 1.524 . S
C3618 C3617 1.524 . S
C3618 C3619 1.397 . S
C3618 C3623 1.363 . S
C3619 H3590 0.950 . S
C3619 C3618 1.397 . S
C3619 C3620 1.334 . S
C3620 H3591 0.950 . S
C3620 C3619 1.334 . S
C3620 C3621 1.287 . S
C3621 C3620 1.287 . S
C3621 C3622 1.524 . S
C3621 H3624 0.999 . S
C3622 H3592 0.950 . S
C3622 C3621 1.524 . S
C3622 C3623 1.415 . S
C3623 H3593 0.950 . S
C3623 C3618 1.363 . S
C3623 C3622 1.415 . S
H3624 C3621 0.999 . S
H3625 C3606 0.913 . S
H3626 C3644 0.951 . S
H3627 C3646 0.951 1_655 S
H3628 C3648 0.950 . S
H3629 C3649 0.950 . S
H3630 C3651 0.950 . S
H3631 C3654 0.950 . S
H3632 C3655 0.950 1_455 S
H3633 C3657 0.950 . S
H3634 C3658 0.950 . S
H3635 C3659 0.951 . S
H3636 C3661 0.951 . S
H3637 C3663 0.950 . S
H3638 C3664 0.950 . S
H3639 C3666 0.950 . S
H3640 C3669 0.950 . S
H3641 C3670 0.950 . S
H3642 C3672 0.950 . S
H3643 C3673 0.950 . S
C3644 H3626 0.951 . S
C3644 C3645 1.366 . S
C3644 C3646 1.388 . S
C3645 C3644 1.366 . S
C3645 C3649 1.385 . S
C3646 H3627 0.951 1_455 S
C3646 C3644 1.388 . S
C3646 C3647 1.366 . S
C3647 C3646 1.366 . S
C3647 C3648 1.414 . S
C3647 C3650 1.499 1_455 S
C3648 H3628 0.950 . S
C3648 C3647 1.414 . S
C3648 C3649 1.374 . S
C3649 H3629 0.950 . S
C3649 C3645 1.385 . S
C3649 C3648 1.374 . S
C3650 C3647 1.499 1_655 S
C3650 C3651 1.373 . S
C3650 C3652 1.389 . S
C3651 H3630 0.950 . S
C3651 C3650 1.373 . S
C3651 C3667 1.377 . S
C3652 C3650 1.389 . S
C3652 C3653 1.524 . S
C3652 C3666 1.377 . S
C3653 C3652 1.524 . S
C3653 C3654 1.397 . S
C3653 C3658 1.363 . S
C3654 H3631 0.950 . S
C3654 C3653 1.397 . S
C3654 C3655 1.334 . S
C3655 H3632 0.950 1_655 S
C3655 C3654 1.334 . S
C3655 C3656 1.287 . S
C3656 C3655 1.287 . S
C3656 C3657 1.524 . S
C3656 H3675 0.913 . S
C3657 H3633 0.950 . S
C3657 C3656 1.524 . S
C3657 C3658 1.415 . S
C3658 H3634 0.950 . S
C3658 C3653 1.363 . S
C3658 C3657 1.415 . S
C3659 H3635 0.951 . S
C3659 C3660 1.366 . S
C3659 C3661 1.388 . S
C3660 C3659 1.366 . S
C3660 C3664 1.385 . S
C3661 H3636 0.951 . S
C3661 C3659 1.388 . S
C3661 C3662 1.366 . S
C3662 C3661 1.366 . S
C3662 C3663 1.414 . S
C3662 C3665 1.499 . S
C3663 H3637 0.950 . S
C3663 C3662 1.414 . S
C3663 C3664 1.374 . S
C3664 H3638 0.950 . S
C3664 C3660 1.385 . S
C3664 C3663 1.374 . S
C3665 C3662 1.499 . S
C3665 C3666 1.373 . S
C3665 C3667 1.389 . S
C3666 H3639 0.950 . S
C3666 C3652 1.377 . S
C3666 C3665 1.373 . S
C3667 C3651 1.377 . S
C3667 C3665 1.389 . S
C3667 C3668 1.524 . S
C3668 C3667 1.524 . S
C3668 C3669 1.397 . S
C3668 C3673 1.363 . S
C3669 H3640 0.950 . S
C3669 C3668 1.397 . S
C3669 C3670 1.334 . S
C3670 H3641 0.950 . S
C3670 C3669 1.334 . S
C3670 C3671 1.287 . S
C3671 C3670 1.287 . S
C3671 C3672 1.524 . S
C3671 H3674 0.999 . S
C3672 H3642 0.950 . S
C3672 C3671 1.524 . S
C3672 C3673 1.415 . S
C3673 H3643 0.950 . S
C3673 C3668 1.363 . S
C3673 C3672 1.415 . S
H3674 C3671 0.999 . S
H3675 C3656 0.913 . S
H3676 C3694 0.951 . S
H3677 C3696 0.951 . S
H3678 C3698 0.950 . S
H3679 C3699 0.950 . S
H3680 C3701 0.947 . S
H3681 C3704 0.973 . S
H3682 C3705 0.950 . S
H3683 C3707 0.950 . S
H3684 C3708 0.950 . S
H3685 C3709 0.951 . S
H3686 C3711 0.951 1_655 S
H3687 C3713 0.950 . S
H3688 C3714 0.950 . S
H3689 C3716 0.950 . S
H3690 C3719 0.950 . S
H3691 C3720 0.950 . S
H3692 C3722 0.950 . S
H3693 C3723 0.950 . S
C3694 H3676 0.951 . S
C3694 C3695 1.366 1_455 S
C3694 C3696 1.388 . S
C3695 C3694 1.366 1_655 S
C3695 C3699 1.385 . S
C3696 H3677 0.951 . S
C3696 C3694 1.388 . S
C3696 C3697 1.366 . S
C3697 C3696 1.366 . S
C3697 C3698 1.414 1_455 S
C3697 C3700 1.499 . S
C3698 H3678 0.950 . S
C3698 C3697 1.414 1_655 S
C3698 C3699 1.374 . S
C3699 H3679 0.950 . S
C3699 C3695 1.385 . S
C3699 C3698 1.374 . S
C3700 C3697 1.499 . S
C3700 C3701 1.374 1_455 S
C3700 C3702 1.389 . S
C3701 H3680 0.947 . S
C3701 C3700 1.374 1_655 S
C3701 C3717 1.379 1_655 S
C3702 C3700 1.389 . S
C3702 C3703 1.524 . S
C3702 C3716 1.377 . S
C3703 C3702 1.524 . S
C3703 C3704 1.397 . S
C3703 C3708 1.363 . S
C3704 H3681 0.973 . S
C3704 C3703 1.397 . S
C3704 C3705 1.334 . S
C3705 H3682 0.950 . S
C3705 C3704 1.334 . S
C3705 C3706 1.287 . S
C3706 C3705 1.287 . S
C3706 C3707 1.524 . S
C3706 H3725 0.913 . S
C3707 H3683 0.950 . S
C3707 C3706 1.524 . S
C3707 C3708 1.415 . S
C3708 H3684 0.950 . S
C3708 C3703 1.363 . S
C3708 C3707 1.415 . S
C3709 H3685 0.951 . S
C3709 C3710 1.366 . S
C3709 C3711 1.388 . S
C3710 C3709 1.366 . S
C3710 C3714 1.385 . S
C3711 H3686 0.951 1_455 S
C3711 C3709 1.388 . S
C3711 C3712 1.366 . S
C3712 C3711 1.366 . S
C3712 C3713 1.414 . S
C3712 C3715 1.499 . S
C3713 H3687 0.950 . S
C3713 C3712 1.414 . S
C3713 C3714 1.374 . S
C3714 H3688 0.950 . S
C3714 C3710 1.385 . S
C3714 C3713 1.374 . S
C3715 C3712 1.499 . S
C3715 C3716 1.373 . S
C3715 C3717 1.389 . S
C3716 H3689 0.950 . S
C3716 C3702 1.377 . S
C3716 C3715 1.373 . S
C3717 C3701 1.379 1_455 S
C3717 C3715 1.389 . S
C3717 C3718 1.524 1_455 S
C3718 C3717 1.524 1_655 S
C3718 C3719 1.397 1_655 S
C3718 C3723 1.363 . S
C3719 H3690 0.950 . S
C3719 C3718 1.397 1_455 S
C3719 C3720 1.334 . S
C3720 H3691 0.950 . S
C3720 C3719 1.334 . S
C3720 C3721 1.287 1_455 S
C3721 C3720 1.287 1_655 S
C3721 C3722 1.524 . S
C3721 H3724 0.999 . S
C3722 H3692 0.950 . S
C3722 C3721 1.524 . S
C3722 C3723 1.415 . S
C3723 H3693 0.950 . S
C3723 C3718 1.363 . S
C3723 C3722 1.415 . S
H3724 C3721 0.999 . S
H3725 C3706 0.913 . S
H3726 C3744 0.951 . S
H3727 C3746 0.951 . S
H3728 C3748 0.950 . S
H3729 C3749 0.950 . S
H3730 C3751 0.950 . S
H3731 C3754 0.950 . S
H3732 C3755 0.950 . S
H3733 C3757 0.950 . S
H3734 C3758 0.950 . S
H3735 C3759 0.951 . S
H3736 C3761 0.951 . S
H3737 C3763 0.950 . S
H3738 C3764 0.950 . S
H3739 C3766 0.950 . S
H3740 C3769 0.950 . S
H3741 C3770 0.950 . S
H3742 C3772 0.950 . S
H3743 C3773 0.950 . S
C3744 H3726 0.951 . S
C3744 C3745 1.366 . S
C3744 C3746 1.388 . S
C3745 C3744 1.366 . S
C3745 C3749 1.385 . S
C3746 H3727 0.951 . S
C3746 C3744 1.388 . S
C3746 C3747 1.366 . S
C3747 C3746 1.366 . S
C3747 C3748 1.414 . S
C3747 C3750 1.499 . S
C3748 H3728 0.950 . S
C3748 C3747 1.414 . S
C3748 C3749 1.374 . S
C3749 H3729 0.950 . S
C3749 C3745 1.385 . S
C3749 C3748 1.374 . S
C3750 C3747 1.499 . S
C3750 C3751 1.373 . S
C3750 C3752 1.389 . S
C3751 H3730 0.950 . S
C3751 C3750 1.373 . S
C3751 C3767 1.377 . S
C3752 C3750 1.389 . S
C3752 C3753 1.524 . S
C3752 C3766 1.377 . S
C3753 C3752 1.524 . S
C3753 C3754 1.397 . S
C3753 C3758 1.363 . S
C3754 H3731 0.950 . S
C3754 C3753 1.397 . S
C3754 C3755 1.334 . S
C3755 H3732 0.950 . S
C3755 C3754 1.334 . S
C3755 C3756 1.287 . S
C3756 C3755 1.287 . S
C3756 C3757 1.524 . S
C3756 H3775 0.913 . S
C3757 H3733 0.950 . S
C3757 C3756 1.524 . S
C3757 C3758 1.415 . S
C3758 H3734 0.950 . S
C3758 C3753 1.363 . S
C3758 C3757 1.415 . S
C3759 H3735 0.951 . S
C3759 C3760 1.366 . S
C3759 C3761 1.388 . S
C3760 C3759 1.366 . S
C3760 C3764 1.385 . S
C3761 H3736 0.951 . S
C3761 C3759 1.388 . S
C3761 C3762 1.366 . S
C3762 C3761 1.366 . S
C3762 C3763 1.414 . S
C3762 C3765 1.499 . S
C3763 H3737 0.950 . S
C3763 C3762 1.414 . S
C3763 C3764 1.374 . S
C3764 H3738 0.950 . S
C3764 C3760 1.385 . S
C3764 C3763 1.374 . S
C3765 C3762 1.499 . S
C3765 C3766 1.373 . S
C3765 C3767 1.389 . S
C3766 H3739 0.950 . S
C3766 C3752 1.377 . S
C3766 C3765 1.373 . S
C3767 C3751 1.377 . S
C3767 C3765 1.389 . S
C3767 C3768 1.524 . S
C3768 C3767 1.524 . S
C3768 C3769 1.397 . S
C3768 C3773 1.363 . S
C3769 H3740 0.950 . S
C3769 C3768 1.397 . S
C3769 C3770 1.334 . S
C3770 H3741 0.950 . S
C3770 C3769 1.334 . S
C3770 C3771 1.287 . S
C3771 C3770 1.287 . S
C3771 C3772 1.524 . S
C3771 H3774 0.999 . S
C3772 H3742 0.950 . S
C3772 C3771 1.524 . S
C3772 C3773 1.415 . S
C3773 H3743 0.950 . S
C3773 C3768 1.363 . S
C3773 C3772 1.415 . S
H3774 C3771 0.999 . S
H3775 C3756 0.913 . S
H3776 C3794 0.951 . S
H3777 C3796 0.951 . S
H3778 C3798 0.950 . S
H3779 C3799 0.950 . S
H3780 C3801 0.950 . S
H3781 C3804 0.950 . S
H3782 C3805 0.950 . S
H3783 C3807 0.950 . S
H3784 C3808 0.950 . S
H3785 C3809 0.951 . S
H3786 C3811 0.951 . S
H3787 C3813 0.950 . S
H3788 C3814 0.950 . S
H3789 C3816 0.950 . S
H3790 C3819 0.950 . S
H3791 C3820 0.950 . S
H3792 C3822 0.950 . S
H3793 C3823 0.950 . S
C3794 H3776 0.951 . S
C3794 C3795 1.366 . S
C3794 C3796 1.388 . S
C3795 C3794 1.366 . S
C3795 C3799 1.385 . S
C3796 H3777 0.951 . S
C3796 C3794 1.388 . S
C3796 C3797 1.366 . S
C3797 C3796 1.366 . S
C3797 C3798 1.414 . S
C3797 C3800 1.499 . S
C3798 H3778 0.950 . S
C3798 C3797 1.414 . S
C3798 C3799 1.374 . S
C3799 H3779 0.950 . S
C3799 C3795 1.385 . S
C3799 C3798 1.374 . S
C3800 C3797 1.499 . S
C3800 C3801 1.373 . S
C3800 C3802 1.389 . S
C3801 H3780 0.950 . S
C3801 C3800 1.373 . S
C3801 C3817 1.377 . S
C3802 C3800 1.389 . S
C3802 C3803 1.524 . S
C3802 C3816 1.377 . S
C3803 C3802 1.524 . S
C3803 C3804 1.397 . S
C3803 C3808 1.363 . S
C3804 H3781 0.950 . S
C3804 C3803 1.397 . S
C3804 C3805 1.334 . S
C3805 H3782 0.950 . S
C3805 C3804 1.334 . S
C3805 C3806 1.287 . S
C3806 C3805 1.287 . S
C3806 C3807 1.524 . S
C3806 H3825 0.913 . S
C3807 H3783 0.950 . S
C3807 C3806 1.524 . S
C3807 C3808 1.415 . S
C3808 H3784 0.950 . S
C3808 C3803 1.363 . S
C3808 C3807 1.415 . S
C3809 H3785 0.951 . S
C3809 C3810 1.366 . S
C3809 C3811 1.388 . S
C3810 C3809 1.366 . S
C3810 C3814 1.385 . S
C3811 H3786 0.951 . S
C3811 C3809 1.388 . S
C3811 C3812 1.366 . S
C3812 C3811 1.366 . S
C3812 C3813 1.414 . S
C3812 C3815 1.499 . S
C3813 H3787 0.950 . S
C3813 C3812 1.414 . S
C3813 C3814 1.374 . S
C3814 H3788 0.950 . S
C3814 C3810 1.385 . S
C3814 C3813 1.374 . S
C3815 C3812 1.499 . S
C3815 C3816 1.373 . S
C3815 C3817 1.389 . S
C3816 H3789 0.950 . S
C3816 C3802 1.377 . S
C3816 C3815 1.373 . S
C3817 C3801 1.377 . S
C3817 C3815 1.389 . S
C3817 C3818 1.524 . S
C3818 C3817 1.524 . S
C3818 C3819 1.397 . S
C3818 C3823 1.363 . S
C3819 H3790 0.950 . S
C3819 C3818 1.397 . S
C3819 C3820 1.334 . S
C3820 H3791 0.950 . S
C3820 C3819 1.334 . S
C3820 C3821 1.287 . S
C3821 C3820 1.287 . S
C3821 C3822 1.524 . S
C3821 H3824 0.999 . S
C3822 H3792 0.950 . S
C3822 C3821 1.524 . S
C3822 C3823 1.415 . S
C3823 H3793 0.950 . S
C3823 C3818 1.363 . S
C3823 C3822 1.415 . S
H3824 C3821 0.999 . S
H3825 C3806 0.913 . S
H3826 C3844 0.951 . S
H3827 C3846 0.951 . S
H3828 C3848 0.950 . S
H3829 C3849 0.950 . S
H3830 C3851 0.950 . S
H3831 C3854 0.950 . S
H3832 C3855 0.950 . S
H3833 C3857 0.950 . S
H3834 C3858 0.950 . S
H3835 C3859 0.951 . S
H3836 C3861 0.951 . S
H3837 C3863 0.950 . S
H3838 C3864 0.950 . S
H3839 C3866 0.950 . S
H3840 C3869 0.950 . S
H3841 C3870 0.950 . S
H3842 C3872 0.950 . S
H3843 C3873 0.950 . S
C3844 H3826 0.951 . S
C3844 C3845 1.366 . S
C3844 C3846 1.388 . S
C3845 C3844 1.366 . S
C3845 C3849 1.385 . S
C3846 H3827 0.951 . S
C3846 C3844 1.388 . S
C3846 C3847 1.366 . S
C3847 C3846 1.366 . S
C3847 C3848 1.414 . S
C3847 C3850 1.499 . S
C3848 H3828 0.950 . S
C3848 C3847 1.414 . S
C3848 C3849 1.374 . S
C3849 H3829 0.950 . S
C3849 C3845 1.385 . S
C3849 C3848 1.374 . S
C3850 C3847 1.499 . S
C3850 C3851 1.373 . S
C3850 C3852 1.389 . S
C3851 H3830 0.950 . S
C3851 C3850 1.373 . S
C3851 C3867 1.377 . S
C3852 C3850 1.389 . S
C3852 C3853 1.524 . S
C3852 C3866 1.377 . S
C3853 C3852 1.524 . S
C3853 C3854 1.397 . S
C3853 C3858 1.363 . S
C3854 H3831 0.950 . S
C3854 C3853 1.397 . S
C3854 C3855 1.334 . S
C3855 H3832 0.950 . S
C3855 C3854 1.334 . S
C3855 C3856 1.287 . S
C3856 C3855 1.287 . S
C3856 C3857 1.524 . S
C3856 H3875 0.913 . S
C3857 H3833 0.950 . S
C3857 C3856 1.524 . S
C3857 C3858 1.415 . S
C3858 H3834 0.950 . S
C3858 C3853 1.363 . S
C3858 C3857 1.415 . S
C3859 H3835 0.951 . S
C3859 C3860 1.366 . S
C3859 C3861 1.388 . S
C3860 C3859 1.366 . S
C3860 C3864 1.385 . S
C3861 H3836 0.951 . S
C3861 C3859 1.388 . S
C3861 C3862 1.366 . S
C3862 C3861 1.366 . S
C3862 C3863 1.414 . S
C3862 C3865 1.499 . S
C3863 H3837 0.950 . S
C3863 C3862 1.414 . S
C3863 C3864 1.374 . S
C3864 H3838 0.950 . S
C3864 C3860 1.385 . S
C3864 C3863 1.374 . S
C3865 C3862 1.499 . S
C3865 C3866 1.373 . S
C3865 C3867 1.389 . S
C3866 H3839 0.950 . S
C3866 C3852 1.377 . S
C3866 C3865 1.373 . S
C3867 C3851 1.377 . S
C3867 C3865 1.389 . S
C3867 C3868 1.524 . S
C3868 C3867 1.524 . S
C3868 C3869 1.397 . S
C3868 C3873 1.363 . S
C3869 H3840 0.950 . S
C3869 C3868 1.397 . S
C3869 C3870 1.334 . S
C3870 H3841 0.950 . S
C3870 C3869 1.334 . S
C3870 C3871 1.287 . S
C3871 C3870 1.287 . S
C3871 C3872 1.524 . S
C3871 H3874 0.999 . S
C3872 H3842 0.950 . S
C3872 C3871 1.524 . S
C3872 C3873 1.415 . S
C3873 H3843 0.950 . S
C3873 C3868 1.363 . S
C3873 C3872 1.415 . S
H3874 C3871 0.999 . S
H3875 C3856 0.913 . S
H3876 C3894 0.951 . S
H3877 C3896 0.951 . S
H3878 C3898 0.950 . S
H3879 C3899 0.950 . S
H3880 C3901 0.950 . S
H3881 C3904 0.950 . S
H3882 C3905 0.950 . S
H3883 C3907 0.950 . S
H3884 C3908 0.950 . S
H3885 C3909 0.951 . S
H3886 C3911 0.951 . S
H3887 C3913 0.950 . S
H3888 C3914 0.950 . S
H3889 C3916 0.950 . S
H3890 C3919 0.950 . S
H3891 C3920 0.950 . S
H3892 C3922 0.950 . S
H3893 C3923 0.950 . S
C3894 H3876 0.951 . S
C3894 C3895 1.366 . S
C3894 C3896 1.388 . S
C3895 C3894 1.366 . S
C3895 C3899 1.385 . S
C3896 H3877 0.951 . S
C3896 C3894 1.388 . S
C3896 C3897 1.366 . S
C3897 C3896 1.366 . S
C3897 C3898 1.414 . S
C3897 C3900 1.499 . S
C3898 H3878 0.950 . S
C3898 C3897 1.414 . S
C3898 C3899 1.374 . S
C3899 H3879 0.950 . S
C3899 C3895 1.385 . S
C3899 C3898 1.374 . S
C3900 C3897 1.499 . S
C3900 C3901 1.373 . S
C3900 C3902 1.389 . S
C3901 H3880 0.950 . S
C3901 C3900 1.373 . S
C3901 C3917 1.377 . S
C3902 C3900 1.389 . S
C3902 C3903 1.524 . S
C3902 C3916 1.377 . S
C3903 C3902 1.524 . S
C3903 C3904 1.397 . S
C3903 C3908 1.363 . S
C3904 H3881 0.950 . S
C3904 C3903 1.397 . S
C3904 C3905 1.334 . S
C3905 H3882 0.950 . S
C3905 C3904 1.334 . S
C3905 C3906 1.287 . S
C3906 C3905 1.287 . S
C3906 C3907 1.524 . S
C3906 H3925 0.913 . S
C3907 H3883 0.950 . S
C3907 C3906 1.524 . S
C3907 C3908 1.415 . S
C3908 H3884 0.950 . S
C3908 C3903 1.363 . S
C3908 C3907 1.415 . S
C3909 H3885 0.951 . S
C3909 C3910 1.366 . S
C3909 C3911 1.388 . S
C3910 C3909 1.366 . S
C3910 C3914 1.385 . S
C3911 H3886 0.951 . S
C3911 C3909 1.388 . S
C3911 C3912 1.366 . S
C3912 C3911 1.366 . S
C3912 C3913 1.414 . S
C3912 C3915 1.499 . S
C3913 H3887 0.950 . S
C3913 C3912 1.414 . S
C3913 C3914 1.374 . S
C3914 H3888 0.950 . S
C3914 C3910 1.385 . S
C3914 C3913 1.374 . S
C3915 C3912 1.499 . S
C3915 C3916 1.373 . S
C3915 C3917 1.389 . S
C3916 H3889 0.950 . S
C3916 C3902 1.377 . S
C3916 C3915 1.373 . S
C3917 C3901 1.377 . S
C3917 C3915 1.389 . S
C3917 C3918 1.524 . S
C3918 C3917 1.524 . S
C3918 C3919 1.397 . S
C3918 C3923 1.363 . S
C3919 H3890 0.950 . S
C3919 C3918 1.397 . S
C3919 C3920 1.334 . S
C3920 H3891 0.950 . S
C3920 C3919 1.334 . S
C3920 C3921 1.287 . S
C3921 C3920 1.287 . S
C3921 C3922 1.524 . S
C3921 H3924 0.999 . S
C3922 H3892 0.950 . S
C3922 C3921 1.524 . S
C3922 C3923 1.415 . S
C3923 H3893 0.950 . S
C3923 C3918 1.363 . S
C3923 C3922 1.415 . S
H3924 C3921 0.999 . S
H3925 C3906 0.913 . S
H3926 C3944 0.951 . S
H3927 C3946 0.951 . S
H3928 C3948 0.950 . S
H3929 C3949 0.950 . S
H3930 C3951 0.950 . S
H3931 C3954 0.950 . S
H3932 C3955 0.950 . S
H3933 C3957 0.950 . S
H3934 C3958 0.950 . S
H3935 C3959 0.951 . S
H3936 C3961 0.951 . S
H3937 C3963 0.950 . S
H3938 C3964 0.950 . S
H3939 C3966 0.950 . S
H3940 C3969 0.950 . S
H3941 C3970 0.950 . S
H3942 C3972 0.950 . S
H3943 C3973 0.950 . S
C3944 H3926 0.951 . S
C3944 C3945 1.366 . S
C3944 C3946 1.388 . S
C3945 C3944 1.366 . S
C3945 C3949 1.385 . S
C3946 H3927 0.951 . S
C3946 C3944 1.388 . S
C3946 C3947 1.366 . S
C3947 C3946 1.366 . S
C3947 C3948 1.414 . S
C3947 C3950 1.499 . S
C3948 H3928 0.950 . S
C3948 C3947 1.414 . S
C3948 C3949 1.374 . S
C3949 H3929 0.950 . S
C3949 C3945 1.385 . S
C3949 C3948 1.374 . S
C3950 C3947 1.499 . S
C3950 C3951 1.373 . S
C3950 C3952 1.389 . S
C3951 H3930 0.950 . S
C3951 C3950 1.373 . S
C3951 C3967 1.377 . S
C3952 C3950 1.389 . S
C3952 C3953 1.524 . S
C3952 C3966 1.377 . S
C3953 C3952 1.524 . S
C3953 C3954 1.397 . S
C3953 C3958 1.363 . S
C3954 H3931 0.950 . S
C3954 C3953 1.397 . S
C3954 C3955 1.334 . S
C3955 H3932 0.950 . S
C3955 C3954 1.334 . S
C3955 C3956 1.287 . S
C3956 C3955 1.287 . S
C3956 C3957 1.524 . S
C3956 H3975 0.913 . S
C3957 H3933 0.950 . S
C3957 C3956 1.524 . S
C3957 C3958 1.415 . S
C3958 H3934 0.950 . S
C3958 C3953 1.363 . S
C3958 C3957 1.415 . S
C3959 H3935 0.951 . S
C3959 C3960 1.366 . S
C3959 C3961 1.388 . S
C3960 C3959 1.366 . S
C3960 C3964 1.385 . S
C3961 H3936 0.951 . S
C3961 C3959 1.388 . S
C3961 C3962 1.366 . S
C3962 C3961 1.366 . S
C3962 C3963 1.414 . S
C3962 C3965 1.499 . S
C3963 H3937 0.950 . S
C3963 C3962 1.414 . S
C3963 C3964 1.374 . S
C3964 H3938 0.950 . S
C3964 C3960 1.385 . S
C3964 C3963 1.374 . S
C3965 C3962 1.499 . S
C3965 C3966 1.373 . S
C3965 C3967 1.389 . S
C3966 H3939 0.950 . S
C3966 C3952 1.377 . S
C3966 C3965 1.373 . S
C3967 C3951 1.377 . S
C3967 C3965 1.389 . S
C3967 C3968 1.524 . S
C3968 C3967 1.524 . S
C3968 C3969 1.397 . S
C3968 C3973 1.363 . S
C3969 H3940 0.950 . S
C3969 C3968 1.397 . S
C3969 C3970 1.334 . S
C3970 H3941 0.950 . S
C3970 C3969 1.334 . S
C3970 C3971 1.287 . S
C3971 C3970 1.287 . S
C3971 C3972 1.524 . S
C3971 H3974 0.999 . S
C3972 H3942 0.950 . S
C3972 C3971 1.524 . S
C3972 C3973 1.415 . S
C3973 H3943 0.950 . S
C3973 C3968 1.363 . S
C3973 C3972 1.415 . S
H3974 C3971 0.999 . S
H3975 C3956 0.913 . S
H3976 C3994 0.951 . S
H3977 C3996 0.951 . S
H3978 C3998 0.950 . S
H3979 C3999 0.950 . S
H3980 C4001 0.950 . S
H3981 C4004 0.950 . S
H3982 C4005 0.950 . S
H3983 C4007 0.950 . S
H3984 C4008 0.950 . S
H3985 C4009 0.951 . S
H3986 C4011 0.951 . S
H3987 C4013 0.950 . S
H3988 C4014 0.950 . S
H3989 C4016 0.950 . S
H3990 C4019 0.950 . S
H3991 C4020 0.950 . S
H3992 C4022 0.950 . S
H3993 C4023 0.950 . S
C3994 H3976 0.951 . S
C3994 C3995 1.366 . S
C3994 C3996 1.388 . S
C3995 C3994 1.366 . S
C3995 C3999 1.385 . S
C3996 H3977 0.951 . S
C3996 C3994 1.388 . S
C3996 C3997 1.366 . S
C3997 C3996 1.366 . S
C3997 C3998 1.414 . S
C3997 C4000 1.499 . S
C3998 H3978 0.950 . S
C3998 C3997 1.414 . S
C3998 C3999 1.374 . S
C3999 H3979 0.950 . S
C3999 C3995 1.385 . S
C3999 C3998 1.374 . S
C4000 C3997 1.499 . S
C4000 C4001 1.373 . S
C4000 C4002 1.389 . S
C4001 H3980 0.950 . S
C4001 C4000 1.373 . S
C4001 C4017 1.377 . S
C4002 C4000 1.389 . S
C4002 C4003 1.524 . S
C4002 C4016 1.377 . S
C4003 C4002 1.524 . S
C4003 C4004 1.397 . S
C4003 C4008 1.363 . S
C4004 H3981 0.950 . S
C4004 C4003 1.397 . S
C4004 C4005 1.334 . S
C4005 H3982 0.950 . S
C4005 C4004 1.334 . S
C4005 C4006 1.287 . S
C4006 C4005 1.287 . S
C4006 C4007 1.524 . S
C4006 H4025 0.913 . S
C4007 H3983 0.950 . S
C4007 C4006 1.524 . S
C4007 C4008 1.415 . S
C4008 H3984 0.950 . S
C4008 C4003 1.363 . S
C4008 C4007 1.415 . S
C4009 H3985 0.951 . S
C4009 C4010 1.366 . S
C4009 C4011 1.388 . S
C4010 C4009 1.366 . S
C4010 C4014 1.385 . S
C4011 H3986 0.951 . S
C4011 C4009 1.388 . S
C4011 C4012 1.366 . S
C4012 C4011 1.366 . S
C4012 C4013 1.414 . S
C4012 C4015 1.499 . S
C4013 H3987 0.950 . S
C4013 C4012 1.414 . S
C4013 C4014 1.374 . S
C4014 H3988 0.950 . S
C4014 C4010 1.385 . S
C4014 C4013 1.374 . S
C4015 C4012 1.499 . S
C4015 C4016 1.373 . S
C4015 C4017 1.389 . S
C4016 H3989 0.950 . S
C4016 C4002 1.377 . S
C4016 C4015 1.373 . S
C4017 C4001 1.377 . S
C4017 C4015 1.389 . S
C4017 C4018 1.524 . S
C4018 C4017 1.524 . S
C4018 C4019 1.397 . S
C4018 C4023 1.363 . S
C4019 H3990 0.950 . S
C4019 C4018 1.397 . S
C4019 C4020 1.334 . S
C4020 H3991 0.950 . S
C4020 C4019 1.334 . S
C4020 C4021 1.287 . S
C4021 C4020 1.287 . S
C4021 C4022 1.524 . S
C4021 H4024 0.999 . S
C4022 H3992 0.950 . S
C4022 C4021 1.524 . S
C4022 C4023 1.415 . S
C4023 H3993 0.950 . S
C4023 C4018 1.363 . S
C4023 C4022 1.415 . S
H4024 C4021 0.999 . S
H4025 C4006 0.913 . S
H4026 C4044 0.951 . S
H4027 C4046 0.951 . S
H4028 C4048 0.950 . S
H4029 C4049 0.950 . S
H4030 C4051 0.950 . S
H4031 C4054 0.950 . S
H4032 C4055 0.950 . S
H4033 C4057 0.950 . S
H4034 C4058 0.950 . S
H4035 C4059 0.951 . S
H4036 C4061 0.951 . S
H4037 C4063 0.950 . S
H4038 C4064 0.950 . S
H4039 C4066 0.950 . S
H4040 C4069 0.950 . S
H4041 C4070 0.950 . S
H4042 C4072 0.950 . S
H4043 C4073 0.950 . S
C4044 H4026 0.951 . S
C4044 C4045 1.366 . S
C4044 C4046 1.388 . S
C4045 C4044 1.366 . S
C4045 C4049 1.385 . S
C4046 H4027 0.951 . S
C4046 C4044 1.388 . S
C4046 C4047 1.366 . S
C4047 C4046 1.366 . S
C4047 C4048 1.414 . S
C4047 C4050 1.499 . S
C4048 H4028 0.950 . S
C4048 C4047 1.414 . S
C4048 C4049 1.374 . S
C4049 H4029 0.950 . S
C4049 C4045 1.385 . S
C4049 C4048 1.374 . S
C4050 C4047 1.499 . S
C4050 C4051 1.373 . S
C4050 C4052 1.389 . S
C4051 H4030 0.950 . S
C4051 C4050 1.373 . S
C4051 C4067 1.377 . S
C4052 C4050 1.389 . S
C4052 C4053 1.524 . S
C4052 C4066 1.377 . S
C4053 C4052 1.524 . S
C4053 C4054 1.397 . S
C4053 C4058 1.363 . S
C4054 H4031 0.950 . S
C4054 C4053 1.397 . S
C4054 C4055 1.334 . S
C4055 H4032 0.950 . S
C4055 C4054 1.334 . S
C4055 C4056 1.287 . S
C4056 C4055 1.287 . S
C4056 C4057 1.524 . S
C4056 H4075 0.913 . S
C4057 H4033 0.950 . S
C4057 C4056 1.524 . S
C4057 C4058 1.415 . S
C4058 H4034 0.950 . S
C4058 C4053 1.363 . S
C4058 C4057 1.415 . S
C4059 H4035 0.951 . S
C4059 C4060 1.366 . S
C4059 C4061 1.388 . S
C4060 C4059 1.366 . S
C4060 C4064 1.385 . S
C4061 H4036 0.951 . S
C4061 C4059 1.388 . S
C4061 C4062 1.366 . S
C4062 C4061 1.366 . S
C4062 C4063 1.414 . S
C4062 C4065 1.499 . S
C4063 H4037 0.950 . S
C4063 C4062 1.414 . S
C4063 C4064 1.374 . S
C4064 H4038 0.950 . S
C4064 C4060 1.385 . S
C4064 C4063 1.374 . S
C4065 C4062 1.499 . S
C4065 C4066 1.373 . S
C4065 C4067 1.389 . S
C4066 H4039 0.950 . S
C4066 C4052 1.377 . S
C4066 C4065 1.373 . S
C4067 C4051 1.377 . S
C4067 C4065 1.389 . S
C4067 C4068 1.524 . S
C4068 C4067 1.524 . S
C4068 C4069 1.397 . S
C4068 C4073 1.363 . S
C4069 H4040 0.950 . S
C4069 C4068 1.397 . S
C4069 C4070 1.334 . S
C4070 H4041 0.950 . S
C4070 C4069 1.334 . S
C4070 C4071 1.287 . S
C4071 C4070 1.287 . S
C4071 C4072 1.524 . S
C4071 H4074 0.999 . S
C4072 H4042 0.950 . S
C4072 C4071 1.524 . S
C4072 C4073 1.415 . S
C4073 H4043 0.950 . S
C4073 C4068 1.363 . S
C4073 C4072 1.415 . S
H4074 C4071 0.999 . S
H4075 C4056 0.913 . S
H4076 C4094 0.951 . S
H4077 C4096 0.951 . S
H4078 C4098 0.950 . S
H4079 C4099 0.950 . S
H4080 C4101 0.950 . S
H4081 C4104 0.950 . S
H4082 C4105 0.950 . S
H4083 C4107 0.950 . S
H4084 C4108 0.950 . S
H4085 C4109 0.951 . S
H4086 C4111 0.951 . S
H4087 C4113 0.950 . S
H4088 C4114 0.950 . S
H4089 C4116 0.950 . S
H4090 C4119 0.950 . S
H4091 C4120 0.950 . S
H4092 C4122 0.950 . S
H4093 C4123 0.950 . S
C4094 H4076 0.951 . S
C4094 C4095 1.366 . S
C4094 C4096 1.388 . S
C4095 C4094 1.366 . S
C4095 C4099 1.385 . S
C4096 H4077 0.951 . S
C4096 C4094 1.388 . S
C4096 C4097 1.366 . S
C4097 C4096 1.366 . S
C4097 C4098 1.414 . S
C4097 C4100 1.499 . S
C4098 H4078 0.950 . S
C4098 C4097 1.414 . S
C4098 C4099 1.374 . S
C4099 H4079 0.950 . S
C4099 C4095 1.385 . S
C4099 C4098 1.374 . S
C4100 C4097 1.499 . S
C4100 C4101 1.373 . S
C4100 C4102 1.389 . S
C4101 H4080 0.950 . S
C4101 C4100 1.373 . S
C4101 C4117 1.377 . S
C4102 C4100 1.389 . S
C4102 C4103 1.524 . S
C4102 C4116 1.377 . S
C4103 C4102 1.524 . S
C4103 C4104 1.397 . S
C4103 C4108 1.363 . S
C4104 H4081 0.950 . S
C4104 C4103 1.397 . S
C4104 C4105 1.334 . S
C4105 H4082 0.950 . S
C4105 C4104 1.334 . S
C4105 C4106 1.287 . S
C4106 C4105 1.287 . S
C4106 C4107 1.524 . S
C4106 H4125 0.913 . S
C4107 H4083 0.950 . S
C4107 C4106 1.524 . S
C4107 C4108 1.415 . S
C4108 H4084 0.950 . S
C4108 C4103 1.363 . S
C4108 C4107 1.415 . S
C4109 H4085 0.951 . S
C4109 C4110 1.366 . S
C4109 C4111 1.388 . S
C4110 C4109 1.366 . S
C4110 C4114 1.385 . S
C4111 H4086 0.951 . S
C4111 C4109 1.388 . S
C4111 C4112 1.366 . S
C4112 C4111 1.366 . S
C4112 C4113 1.414 . S
C4112 C4115 1.499 . S
C4113 H4087 0.950 . S
C4113 C4112 1.414 . S
C4113 C4114 1.374 . S
C4114 H4088 0.950 . S
C4114 C4110 1.385 . S
C4114 C4113 1.374 . S
C4115 C4112 1.499 . S
C4115 C4116 1.373 . S
C4115 C4117 1.389 . S
C4116 H4089 0.950 . S
C4116 C4102 1.377 . S
C4116 C4115 1.373 . S
C4117 C4101 1.377 . S
C4117 C4115 1.389 . S
C4117 C4118 1.524 . S
C4118 C4117 1.524 . S
C4118 C4119 1.397 . S
C4118 C4123 1.363 . S
C4119 H4090 0.950 . S
C4119 C4118 1.397 . S
C4119 C4120 1.334 . S
C4120 H4091 0.950 . S
C4120 C4119 1.334 . S
C4120 C4121 1.287 . S
C4121 C4120 1.287 . S
C4121 C4122 1.524 . S
C4121 H4124 0.999 . S
C4122 H4092 0.950 . S
C4122 C4121 1.524 . S
C4122 C4123 1.415 . S
C4123 H4093 0.950 . S
C4123 C4118 1.363 . S
C4123 C4122 1.415 . S
H4124 C4121 0.999 . S
H4125 C4106 0.913 . S
H4126 C4144 0.951 . S
H4127 C4146 0.951 . S
H4128 C4148 0.950 . S
H4129 C4149 0.950 . S
H4130 C4151 0.950 . S
H4131 C4154 0.950 . S
H4132 C4155 0.950 . S
H4133 C4157 0.950 . S
H4134 C4158 0.950 . S
H4135 C4159 0.951 . S
H4136 C4161 0.951 . S
H4137 C4163 0.950 . S
H4138 C4164 0.950 . S
H4139 C4166 0.950 . S
H4140 C4169 0.950 . S
H4141 C4170 0.950 . S
H4142 C4172 0.950 . S
H4143 C4173 0.950 . S
C4144 H4126 0.951 . S
C4144 C4145 1.366 . S
C4144 C4146 1.388 . S
C4145 C4144 1.366 . S
C4145 C4149 1.385 . S
C4146 H4127 0.951 . S
C4146 C4144 1.388 . S
C4146 C4147 1.366 . S
C4147 C4146 1.366 . S
C4147 C4148 1.414 . S
C4147 C4150 1.499 . S
C4148 H4128 0.950 . S
C4148 C4147 1.414 . S
C4148 C4149 1.374 . S
C4149 H4129 0.950 . S
C4149 C4145 1.385 . S
C4149 C4148 1.374 . S
C4150 C4147 1.499 . S
C4150 C4151 1.373 . S
C4150 C4152 1.389 . S
C4151 H4130 0.950 . S
C4151 C4150 1.373 . S
C4151 C4167 1.377 . S
C4152 C4150 1.389 . S
C4152 C4153 1.524 . S
C4152 C4166 1.377 . S
C4153 C4152 1.524 . S
C4153 C4154 1.397 . S
C4153 C4158 1.363 . S
C4154 H4131 0.950 . S
C4154 C4153 1.397 . S
C4154 C4155 1.334 . S
C4155 H4132 0.950 . S
C4155 C4154 1.334 . S
C4155 C4156 1.287 . S
C4156 C4155 1.287 . S
C4156 C4157 1.524 . S
C4156 H4175 0.913 . S
C4157 H4133 0.950 . S
C4157 C4156 1.524 . S
C4157 C4158 1.415 . S
C4158 H4134 0.950 . S
C4158 C4153 1.363 . S
C4158 C4157 1.415 . S
C4159 H4135 0.951 . S
C4159 C4160 1.366 . S
C4159 C4161 1.388 . S
C4160 C4159 1.366 . S
C4160 C4164 1.385 . S
C4161 H4136 0.951 . S
C4161 C4159 1.388 . S
C4161 C4162 1.366 . S
C4162 C4161 1.366 . S
C4162 C4163 1.414 . S
C4162 C4165 1.499 . S
C4163 H4137 0.950 . S
C4163 C4162 1.414 . S
C4163 C4164 1.374 . S
C4164 H4138 0.950 . S
C4164 C4160 1.385 . S
C4164 C4163 1.374 . S
C4165 C4162 1.499 . S
C4165 C4166 1.373 . S
C4165 C4167 1.389 . S
C4166 H4139 0.950 . S
C4166 C4152 1.377 . S
C4166 C4165 1.373 . S
C4167 C4151 1.377 . S
C4167 C4165 1.389 . S
C4167 C4168 1.524 . S
C4168 C4167 1.524 . S
C4168 C4169 1.397 . S
C4168 C4173 1.363 . S
C4169 H4140 0.950 . S
C4169 C4168 1.397 . S
C4169 C4170 1.334 . S
C4170 H4141 0.950 . S
C4170 C4169 1.334 . S
C4170 C4171 1.287 . S
C4171 C4170 1.287 . S
C4171 C4172 1.524 . S
C4171 H4174 0.999 . S
C4172 H4142 0.950 . S
C4172 C4171 1.524 . S
C4172 C4173 1.415 . S
C4173 H4143 0.950 . S
C4173 C4168 1.363 . S
C4173 C4172 1.415 . S
H4174 C4171 0.999 . S
H4175 C4156 0.913 . S
H4176 C4194 0.951 . S
H4177 C4196 0.951 . S
H4178 C4198 0.950 . S
H4179 C4199 0.950 . S
H4180 C4201 0.950 . S
H4181 C4204 0.950 . S
H4182 C4205 0.950 . S
H4183 C4207 0.950 . S
H4184 C4208 0.950 . S
H4185 C4209 0.951 . S
H4186 C4211 0.951 . S
H4187 C4213 0.950 . S
H4188 C4214 0.950 . S
H4189 C4216 0.950 . S
H4190 C4219 0.950 . S
H4191 C4220 0.950 . S
H4192 C4222 0.950 . S
H4193 C4223 0.950 . S
C4194 H4176 0.951 . S
C4194 C4195 1.366 . S
C4194 C4196 1.388 . S
C4195 C4194 1.366 . S
C4195 C4199 1.385 . S
C4196 H4177 0.951 . S
C4196 C4194 1.388 . S
C4196 C4197 1.366 . S
C4197 C4196 1.366 . S
C4197 C4198 1.414 . S
C4197 C4200 1.499 . S
C4198 H4178 0.950 . S
C4198 C4197 1.414 . S
C4198 C4199 1.374 . S
C4199 H4179 0.950 . S
C4199 C4195 1.385 . S
C4199 C4198 1.374 . S
C4200 C4197 1.499 . S
C4200 C4201 1.373 . S
C4200 C4202 1.389 . S
C4201 H4180 0.950 . S
C4201 C4200 1.373 . S
C4201 C4217 1.377 . S
C4202 C4200 1.389 . S
C4202 C4203 1.524 . S
C4202 C4216 1.377 . S
C4203 C4202 1.524 . S
C4203 C4204 1.397 . S
C4203 C4208 1.363 . S
C4204 H4181 0.950 . S
C4204 C4203 1.397 . S
C4204 C4205 1.334 . S
C4205 H4182 0.950 . S
C4205 C4204 1.334 . S
C4205 C4206 1.287 . S
C4206 C4205 1.287 . S
C4206 C4207 1.524 . S
C4206 H4225 0.913 . S
C4207 H4183 0.950 . S
C4207 C4206 1.524 . S
C4207 C4208 1.415 . S
C4208 H4184 0.950 . S
C4208 C4203 1.363 . S
C4208 C4207 1.415 . S
C4209 H4185 0.951 . S
C4209 C4210 1.366 . S
C4209 C4211 1.388 . S
C4210 C4209 1.366 . S
C4210 C4214 1.385 . S
C4211 H4186 0.951 . S
C4211 C4209 1.388 . S
C4211 C4212 1.366 . S
C4212 C4211 1.366 . S
C4212 C4213 1.414 . S
C4212 C4215 1.499 . S
C4213 H4187 0.950 . S
C4213 C4212 1.414 . S
C4213 C4214 1.374 . S
C4214 H4188 0.950 . S
C4214 C4210 1.385 . S
C4214 C4213 1.374 . S
C4215 C4212 1.499 . S
C4215 C4216 1.373 . S
C4215 C4217 1.389 . S
C4216 H4189 0.950 . S
C4216 C4202 1.377 . S
C4216 C4215 1.373 . S
C4217 C4201 1.377 . S
C4217 C4215 1.389 . S
C4217 C4218 1.524 . S
C4218 C4217 1.524 . S
C4218 C4219 1.397 . S
C4218 C4223 1.363 . S
C4219 H4190 0.950 . S
C4219 C4218 1.397 . S
C4219 C4220 1.334 . S
C4220 H4191 0.950 . S
C4220 C4219 1.334 . S
C4220 C4221 1.287 . S
C4221 C4220 1.287 . S
C4221 C4222 1.524 . S
C4221 H4224 0.999 . S
C4222 H4192 0.950 . S
C4222 C4221 1.524 . S
C4222 C4223 1.415 . S
C4223 H4193 0.950 . S
C4223 C4218 1.363 . S
C4223 C4222 1.415 . S
H4224 C4221 0.999 . S
H4225 C4206 0.913 . S
H4226 C4244 0.951 . S
H4227 C4246 0.951 . S
H4228 C4248 0.950 . S
H4229 C4249 0.950 . S
H4230 C4251 0.950 . S
H4231 C4254 0.950 . S
H4232 C4255 0.950 . S
H4233 C4257 0.950 . S
H4234 C4258 0.950 . S
H4235 C4259 0.951 . S
H4236 C4261 0.951 . S
H4237 C4263 0.950 . S
H4238 C4264 0.950 . S
H4239 C4266 0.950 . S
H4240 C4269 0.950 . S
H4241 C4270 0.950 . S
H4242 C4272 0.950 . S
H4243 C4273 0.950 . S
C4244 H4226 0.951 . S
C4244 C4245 1.366 . S
C4244 C4246 1.388 . S
C4245 C4244 1.366 . S
C4245 C4249 1.385 . S
C4246 H4227 0.951 . S
C4246 C4244 1.388 . S
C4246 C4247 1.366 . S
C4247 C4246 1.366 . S
C4247 C4248 1.414 . S
C4247 C4250 1.499 . S
C4248 H4228 0.950 . S
C4248 C4247 1.414 . S
C4248 C4249 1.374 . S
C4249 H4229 0.950 . S
C4249 C4245 1.385 . S
C4249 C4248 1.374 . S
C4250 C4247 1.499 . S
C4250 C4251 1.373 . S
C4250 C4252 1.389 . S
C4251 H4230 0.950 . S
C4251 C4250 1.373 . S
C4251 C4267 1.377 . S
C4252 C4250 1.389 . S
C4252 C4253 1.524 . S
C4252 C4266 1.377 . S
C4253 C4252 1.524 . S
C4253 C4254 1.397 . S
C4253 C4258 1.363 . S
C4254 H4231 0.950 . S
C4254 C4253 1.397 . S
C4254 C4255 1.334 . S
C4255 H4232 0.950 . S
C4255 C4254 1.334 . S
C4255 C4256 1.287 . S
C4256 C4255 1.287 . S
C4256 C4257 1.524 . S
C4256 H4275 0.913 . S
C4257 H4233 0.950 . S
C4257 C4256 1.524 . S
C4257 C4258 1.415 . S
C4258 H4234 0.950 . S
C4258 C4253 1.363 . S
C4258 C4257 1.415 . S
C4259 H4235 0.951 . S
C4259 C4260 1.366 . S
C4259 C4261 1.388 . S
C4260 C4259 1.366 . S
C4260 C4264 1.385 . S
C4261 H4236 0.951 . S
C4261 C4259 1.388 . S
C4261 C4262 1.366 . S
C4262 C4261 1.366 . S
C4262 C4263 1.414 . S
C4262 C4265 1.499 . S
C4263 H4237 0.950 . S
C4263 C4262 1.414 . S
C4263 C4264 1.374 . S
C4264 H4238 0.950 . S
C4264 C4260 1.385 . S
C4264 C4263 1.374 . S
C4265 C4262 1.499 . S
C4265 C4266 1.373 . S
C4265 C4267 1.389 . S
C4266 H4239 0.950 . S
C4266 C4252 1.377 . S
C4266 C4265 1.373 . S
C4267 C4251 1.377 . S
C4267 C4265 1.389 . S
C4267 C4268 1.524 . S
C4268 C4267 1.524 . S
C4268 C4269 1.397 . S
C4268 C4273 1.363 . S
C4269 H4240 0.950 . S
C4269 C4268 1.397 . S
C4269 C4270 1.334 . S
C4270 H4241 0.950 . S
C4270 C4269 1.334 . S
C4270 C4271 1.287 . S
C4271 C4270 1.287 . S
C4271 C4272 1.524 . S
C4271 H4274 0.999 . S
C4272 H4242 0.950 . S
C4272 C4271 1.524 . S
C4272 C4273 1.415 . S
C4273 H4243 0.950 . S
C4273 C4268 1.363 . S
C4273 C4272 1.415 . S
H4274 C4271 0.999 . S
H4275 C4256 0.913 . S
H4276 C4294 0.951 . S
H4277 C4296 0.951 . S
H4278 C4298 0.950 . S
H4279 C4299 0.950 . S
H4280 C4301 0.950 . S
H4281 C4304 0.950 . S
H4282 C4305 0.950 . S
H4283 C4307 0.950 . S
H4284 C4308 0.950 . S
H4285 C4309 0.951 . S
H4286 C4311 0.951 . S
H4287 C4313 0.950 . S
H4288 C4314 0.950 . S
H4289 C4316 0.950 . S
H4290 C4319 0.950 . S
H4291 C4320 0.950 . S
H4292 C4322 0.950 . S
H4293 C4323 0.950 . S
C4294 H4276 0.951 . S
C4294 C4295 1.366 . S
C4294 C4296 1.388 . S
C4295 C4294 1.366 . S
C4295 C4299 1.385 . S
C4296 H4277 0.951 . S
C4296 C4294 1.388 . S
C4296 C4297 1.366 . S
C4297 C4296 1.366 . S
C4297 C4298 1.414 . S
C4297 C4300 1.499 . S
C4298 H4278 0.950 . S
C4298 C4297 1.414 . S
C4298 C4299 1.374 . S
C4299 H4279 0.950 . S
C4299 C4295 1.385 . S
C4299 C4298 1.374 . S
C4300 C4297 1.499 . S
C4300 C4301 1.373 . S
C4300 C4302 1.389 . S
C4301 H4280 0.950 . S
C4301 C4300 1.373 . S
C4301 C4317 1.377 . S
C4302 C4300 1.389 . S
C4302 C4303 1.524 . S
C4302 C4316 1.377 . S
C4303 C4302 1.524 . S
C4303 C4304 1.397 . S
C4303 C4308 1.363 . S
C4304 H4281 0.950 . S
C4304 C4303 1.397 . S
C4304 C4305 1.334 . S
C4305 H4282 0.950 . S
C4305 C4304 1.334 . S
C4305 C4306 1.287 . S
C4306 C4305 1.287 . S
C4306 C4307 1.524 . S
C4306 H4325 0.913 . S
C4307 H4283 0.950 . S
C4307 C4306 1.524 . S
C4307 C4308 1.415 . S
C4308 H4284 0.950 . S
C4308 C4303 1.363 . S
C4308 C4307 1.415 . S
C4309 H4285 0.951 . S
C4309 C4310 1.366 . S
C4309 C4311 1.388 . S
C4310 C4309 1.366 . S
C4310 C4314 1.385 . S
C4311 H4286 0.951 . S
C4311 C4309 1.388 . S
C4311 C4312 1.366 . S
C4312 C4311 1.366 . S
C4312 C4313 1.414 . S
C4312 C4315 1.499 . S
C4313 H4287 0.950 . S
C4313 C4312 1.414 . S
C4313 C4314 1.374 . S
C4314 H4288 0.950 . S
C4314 C4310 1.385 . S
C4314 C4313 1.374 . S
C4315 C4312 1.499 . S
C4315 C4316 1.373 . S
C4315 C4317 1.389 . S
C4316 H4289 0.950 . S
C4316 C4302 1.377 . S
C4316 C4315 1.373 . S
C4317 C4301 1.377 . S
C4317 C4315 1.389 . S
C4317 C4318 1.524 . S
C4318 C4317 1.524 . S
C4318 C4319 1.397 . S
C4318 C4323 1.363 . S
C4319 H4290 0.950 . S
C4319 C4318 1.397 . S
C4319 C4320 1.334 . S
C4320 H4291 0.950 . S
C4320 C4319 1.334 . S
C4320 C4321 1.287 . S
C4321 C4320 1.287 . S
C4321 C4322 1.524 . S
C4321 H4324 0.999 . S
C4322 H4292 0.950 . S
C4322 C4321 1.524 . S
C4322 C4323 1.415 . S
C4323 H4293 0.950 . S
C4323 C4318 1.363 . S
C4323 C4322 1.415 . S
H4324 C4321 0.999 . S
H4325 C4306 0.913 . S
H4326 C4344 0.951 . S
H4327 C4346 0.951 . S
H4328 C4348 0.950 . S
H4329 C4349 0.982 . S
H4330 C4351 0.950 . S
H4331 C4354 0.950 . S
H4332 C4355 0.950 1_565 S
H4333 C4357 0.950 . S
H4334 C4358 0.950 . S
H4335 C4359 0.951 . S
H4336 C4361 0.951 . S
H4337 C4363 0.950 . S
H4338 C4364 0.950 . S
H4339 C4366 0.950 1_545 S
H4340 C4369 0.950 . S
H4341 C4370 0.950 . S
H4342 C4372 0.943 1_556 S
H4343 C4373 0.989 . S
C4344 H4326 0.951 . S
C4344 C4345 1.366 . S
C4344 C4346 1.388 . S
C4345 C4344 1.366 . S
C4345 C4349 1.343 1_554 S
C4346 H4327 0.951 . S
C4346 C4344 1.388 . S
C4346 C4347 1.366 . S
C4347 C4346 1.366 . S
C4347 C4348 1.414 1_554 S
C4347 C4350 1.499 . S
C4348 H4328 0.950 . S
C4348 C4347 1.414 1_556 S
C4348 C4349 1.387 . S
C4349 H4329 0.982 . S
C4349 C4345 1.343 1_556 S
C4349 C4348 1.387 . S
C4350 C4347 1.499 . S
C4350 C4351 1.373 . S
C4350 C4352 1.389 . S
C4351 H4330 0.950 . S
C4351 C4350 1.373 . S
C4351 C4367 1.377 . S
C4352 C4350 1.389 . S
C4352 C4353 1.524 . S
C4352 C4366 1.377 . S
C4353 C4352 1.524 . S
C4353 C4354 1.397 1_554 S
C4353 C4358 1.363 1_565 S
C4354 H4331 0.950 . S
C4354 C4353 1.397 1_556 S
C4354 C4355 1.334 1_565 S
C4355 H4332 0.950 1_545 S
C4355 C4354 1.334 1_545 S
C4355 C4356 1.287 1_556 S
C4356 C4355 1.287 1_554 S
C4356 C4357 1.524 . S
C4356 H4375 0.913 . S
C4357 H4333 0.950 . S
C4357 C4356 1.524 . S
C4357 C4358 1.415 . S
C4358 H4334 0.950 . S
C4358 C4353 1.363 1_545 S
C4358 C4357 1.415 . S
C4359 H4335 0.951 . S
C4359 C4360 1.366 1_566 S
C4359 C4361 1.388 . S
C4360 C4359 1.366 1_544 S
C4360 C4364 1.385 . S
C4361 H4336 0.951 . S
C4361 C4359 1.388 . S
C4361 C4362 1.366 1_556 S
C4362 C4361 1.366 1_554 S
C4362 C4363 1.414 1_565 S
C4362 C4365 1.499 . S
C4363 H4337 0.950 . S
C4363 C4362 1.414 1_545 S
C4363 C4364 1.374 . S
C4364 H4338 0.950 . S
C4364 C4360 1.385 . S
C4364 C4363 1.374 . S
C4365 C4362 1.499 . S
C4365 C4366 1.373 . S
C4365 C4367 1.389 . S
C4366 H4339 0.950 1_565 S
C4366 C4352 1.377 . S
C4366 C4365 1.373 . S
C4367 C4351 1.377 . S
C4367 C4365 1.389 . S
C4367 C4368 1.524 . S
C4368 C4367 1.524 . S
C4368 C4369 1.397 . S
C4368 C4373 1.333 1_554 S
C4369 H4340 0.950 . S
C4369 C4368 1.397 . S
C4369 C4370 1.334 . S
C4370 H4341 0.950 . S
C4370 C4369 1.334 . S
C4370 C4371 1.287 . S
C4371 C4370 1.287 . S
C4371 C4372 1.533 . S
C4371 H4374 0.999 . S
C4372 H4342 0.943 1_554 S
C4372 C4371 1.533 . S
C4372 C4373 1.409 1_554 S
C4373 H4343 0.989 . S
C4373 C4368 1.333 1_556 S
C4373 C4372 1.409 1_556 S
H4374 C4371 0.999 . S
H4375 C4356 0.913 . S
H4376 C4394 0.951 . S
H4377 C4396 0.951 . S
H4378 C4398 0.950 . S
H4379 C4399 0.950 . S
H4380 C4401 0.950 . S
H4381 C4404 0.950 . S
H4382 C4405 0.950 . S
H4383 C4407 0.950 . S
H4384 C4408 0.950 . S
H4385 C4409 0.951 . S
H4386 C4411 0.951 . S
H4387 C4413 0.950 . S
H4388 C4414 0.950 . S
H4389 C4416 0.950 . S
H4390 C4419 0.950 . S
H4391 C4420 0.950 . S
H4392 C4422 0.950 . S
H4393 C4423 0.950 . S
C4394 H4376 0.951 . S
C4394 C4395 1.366 . S
C4394 C4396 1.388 . S
C4395 C4394 1.366 . S
C4395 C4399 1.385 . S
C4396 H4377 0.951 . S
C4396 C4394 1.388 . S
C4396 C4397 1.366 . S
C4397 C4396 1.366 . S
C4397 C4398 1.414 . S
C4397 C4400 1.499 . S
C4398 H4378 0.950 . S
C4398 C4397 1.414 . S
C4398 C4399 1.374 . S
C4399 H4379 0.950 . S
C4399 C4395 1.385 . S
C4399 C4398 1.374 . S
C4400 C4397 1.499 . S
C4400 C4401 1.373 . S
C4400 C4402 1.389 . S
C4401 H4380 0.950 . S
C4401 C4400 1.373 . S
C4401 C4417 1.377 . S
C4402 C4400 1.389 . S
C4402 C4403 1.524 . S
C4402 C4416 1.377 . S
C4403 C4402 1.524 . S
C4403 C4404 1.397 . S
C4403 C4408 1.363 . S
C4404 H4381 0.950 . S
C4404 C4403 1.397 . S
C4404 C4405 1.334 . S
C4405 H4382 0.950 . S
C4405 C4404 1.334 . S
C4405 C4406 1.287 . S
C4406 C4405 1.287 . S
C4406 C4407 1.524 . S
C4406 H4425 0.913 . S
C4407 H4383 0.950 . S
C4407 C4406 1.524 . S
C4407 C4408 1.415 . S
C4408 H4384 0.950 . S
C4408 C4403 1.363 . S
C4408 C4407 1.415 . S
C4409 H4385 0.951 . S
C4409 C4410 1.366 . S
C4409 C4411 1.388 . S
C4410 C4409 1.366 . S
C4410 C4414 1.385 . S
C4411 H4386 0.951 . S
C4411 C4409 1.388 . S
C4411 C4412 1.366 . S
C4412 C4411 1.366 . S
C4412 C4413 1.414 . S
C4412 C4415 1.499 . S
C4413 H4387 0.950 . S
C4413 C4412 1.414 . S
C4413 C4414 1.374 . S
C4414 H4388 0.950 . S
C4414 C4410 1.385 . S
C4414 C4413 1.374 . S
C4415 C4412 1.499 . S
C4415 C4416 1.373 . S
C4415 C4417 1.389 . S
C4416 H4389 0.950 . S
C4416 C4402 1.377 . S
C4416 C4415 1.373 . S
C4417 C4401 1.377 . S
C4417 C4415 1.389 . S
C4417 C4418 1.524 . S
C4418 C4417 1.524 . S
C4418 C4419 1.397 . S
C4418 C4423 1.363 . S
C4419 H4390 0.950 . S
C4419 C4418 1.397 . S
C4419 C4420 1.334 . S
C4420 H4391 0.950 . S
C4420 C4419 1.334 . S
C4420 C4421 1.287 . S
C4421 C4420 1.287 . S
C4421 C4422 1.524 . S
C4421 H4424 0.999 . S
C4422 H4392 0.950 . S
C4422 C4421 1.524 . S
C4422 C4423 1.415 . S
C4423 H4393 0.950 . S
C4423 C4418 1.363 . S
C4423 C4422 1.415 . S
H4424 C4421 0.999 . S
H4425 C4406 0.913 . S
H4426 C4444 0.951 . S
H4427 C4446 0.951 . S
H4428 C4448 0.950 1_556 S
H4429 C4449 0.984 . S
H4430 C4451 0.950 1_556 S
H4431 C4454 0.950 . S
H4432 C4455 0.950 . S
H4433 C4457 0.950 . S
H4434 C4458 0.950 . S
H4435 C4459 0.951 . S
H4436 C4461 0.951 . S
H4437 C4463 0.950 . S
H4438 C4464 0.950 . S
H4439 C4466 0.950 . S
H4440 C4469 1.003 . S
H4441 C4470 0.950 . S
H4442 C4472 0.950 . S
H4443 C4473 0.950 . S
C4444 H4426 0.951 . S
C4444 C4445 1.366 . S
C4444 C4446 1.388 . S
C4445 C4444 1.366 . S
C4445 C4449 1.360 1_554 S
C4446 H4427 0.951 . S
C4446 C4444 1.388 . S
C4446 C4447 1.366 . S
C4447 C4446 1.366 . S
C4447 C4448 1.414 . S
C4447 C4450 1.499 . S
C4448 H4428 0.950 1_554 S
C4448 C4447 1.414 . S
C4448 C4449 1.366 1_554 S
C4449 H4429 0.984 . S
C4449 C4445 1.360 1_556 S
C4449 C4448 1.366 1_556 S
C4450 C4447 1.499 . S
C4450 C4451 1.373 . S
C4450 C4452 1.389 . S
C4451 H4430 0.950 1_554 S
C4451 C4450 1.373 . S
C4451 C4467 1.377 . S
C4452 C4450 1.389 . S
C4452 C4453 1.524 . S
C4452 C4466 1.377 . S
C4453 C4452 1.524 . S
C4453 C4454 1.397 . S
C4453 C4458 1.363 . S
C4454 H4431 0.950 . S
C4454 C4453 1.397 . S
C4454 C4455 1.334 . S
C4455 H4432 0.950 . S
C4455 C4454 1.334 . S
C4455 C4456 1.287 . S
C4456 C4455 1.287 . S
C4456 C4457 1.524 . S
C4456 H4475 0.913 . S
C4457 H4433 0.950 . S
C4457 C4456 1.524 . S
C4457 C4458 1.415 . S
C4458 H4434 0.950 . S
C4458 C4453 1.363 . S
C4458 C4457 1.415 . S
C4459 H4435 0.951 . S
C4459 C4460 1.366 . S
C4459 C4461 1.388 . S
C4460 C4459 1.366 . S
C4460 C4464 1.385 . S
C4461 H4436 0.951 . S
C4461 C4459 1.388 . S
C4461 C4462 1.366 . S
C4462 C4461 1.366 . S
C4462 C4463 1.414 . S
C4462 C4465 1.499 . S
C4463 H4437 0.950 . S
C4463 C4462 1.414 . S
C4463 C4464 1.374 . S
C4464 H4438 0.950 . S
C4464 C4460 1.385 . S
C4464 C4463 1.374 . S
C4465 C4462 1.499 . S
C4465 C4466 1.373 . S
C4465 C4467 1.389 . S
C4466 H4439 0.950 . S
C4466 C4452 1.377 . S
C4466 C4465 1.373 . S
C4467 C4451 1.377 . S
C4467 C4465 1.389 . S
C4467 C4468 1.524 1_554 S
C4468 C4467 1.524 1_556 S
C4468 C4469 1.397 . S
C4468 C4473 1.363 . S
C4469 H4440 1.003 . S
C4469 C4468 1.397 . S
C4469 C4470 1.334 . S
C4470 H4441 0.950 . S
C4470 C4469 1.334 . S
C4470 C4471 1.287 . S
C4471 C4470 1.287 . S
C4471 C4472 1.524 . S
C4471 H4474 0.999 . S
C4472 H4442 0.950 . S
C4472 C4471 1.524 . S
C4472 C4473 1.415 . S
C4473 H4443 0.950 . S
C4473 C4468 1.363 . S
C4473 C4472 1.415 . S
H4474 C4471 0.999 . S
H4475 C4456 0.913 . S
H4476 C4494 0.951 . S
H4477 C4496 0.951 . S
H4478 C4498 0.950 . S
H4479 C4499 0.950 . S
H4480 C4501 0.950 . S
H4481 C4504 0.950 . S
H4482 C4505 0.950 . S
H4483 C4507 0.950 . S
H4484 C4508 0.950 . S
H4485 C4509 0.951 . S
H4486 C4511 0.951 . S
H4487 C4513 0.950 . S
H4488 C4514 0.950 . S
H4489 C4516 0.950 . S
H4490 C4519 0.950 . S
H4491 C4520 0.950 . S
H4492 C4522 0.950 . S
H4493 C4523 0.950 . S
C4494 H4476 0.951 . S
C4494 C4495 1.366 . S
C4494 C4496 1.388 . S
C4495 C4494 1.366 . S
C4495 C4499 1.385 . S
C4496 H4477 0.951 . S
C4496 C4494 1.388 . S
C4496 C4497 1.366 . S
C4497 C4496 1.366 . S
C4497 C4498 1.414 . S
C4497 C4500 1.499 . S
C4498 H4478 0.950 . S
C4498 C4497 1.414 . S
C4498 C4499 1.374 . S
C4499 H4479 0.950 . S
C4499 C4495 1.385 . S
C4499 C4498 1.374 . S
C4500 C4497 1.499 . S
C4500 C4501 1.373 . S
C4500 C4502 1.389 . S
C4501 H4480 0.950 . S
C4501 C4500 1.373 . S
C4501 C4517 1.377 . S
C4502 C4500 1.389 . S
C4502 C4503 1.524 . S
C4502 C4516 1.377 . S
C4503 C4502 1.524 . S
C4503 C4504 1.397 . S
C4503 C4508 1.363 . S
C4504 H4481 0.950 . S
C4504 C4503 1.397 . S
C4504 C4505 1.334 . S
C4505 H4482 0.950 . S
C4505 C4504 1.334 . S
C4505 C4506 1.287 . S
C4506 C4505 1.287 . S
C4506 C4507 1.524 . S
C4506 H4525 0.913 . S
C4507 H4483 0.950 . S
C4507 C4506 1.524 . S
C4507 C4508 1.415 . S
C4508 H4484 0.950 . S
C4508 C4503 1.363 . S
C4508 C4507 1.415 . S
C4509 H4485 0.951 . S
C4509 C4510 1.366 . S
C4509 C4511 1.388 . S
C4510 C4509 1.366 . S
C4510 C4514 1.385 . S
C4511 H4486 0.951 . S
C4511 C4509 1.388 . S
C4511 C4512 1.366 . S
C4512 C4511 1.366 . S
C4512 C4513 1.414 . S
C4512 C4515 1.499 . S
C4513 H4487 0.950 . S
C4513 C4512 1.414 . S
C4513 C4514 1.374 . S
C4514 H4488 0.950 . S
C4514 C4510 1.385 . S
C4514 C4513 1.374 . S
C4515 C4512 1.499 . S
C4515 C4516 1.373 . S
C4515 C4517 1.389 . S
C4516 H4489 0.950 . S
C4516 C4502 1.377 . S
C4516 C4515 1.373 . S
C4517 C4501 1.377 . S
C4517 C4515 1.389 . S
C4517 C4518 1.524 . S
C4518 C4517 1.524 . S
C4518 C4519 1.397 . S
C4518 C4523 1.363 . S
C4519 H4490 0.950 . S
C4519 C4518 1.397 . S
C4519 C4520 1.334 . S
C4520 H4491 0.950 . S
C4520 C4519 1.334 . S
C4520 C4521 1.287 . S
C4521 C4520 1.287 . S
C4521 C4522 1.524 . S
C4521 H4524 0.999 . S
C4522 H4492 0.950 . S
C4522 C4521 1.524 . S
C4522 C4523 1.415 . S
C4523 H4493 0.950 . S
C4523 C4518 1.363 . S
C4523 C4522 1.415 . S
H4524 C4521 0.999 . S
H4525 C4506 0.913 . S
H4526 C4544 0.951 . S
H4527 C4546 0.951 . S
H4528 C4548 0.950 . S
H4529 C4549 0.950 . S
H4530 C4551 0.950 . S
H4531 C4554 0.950 . S
H4532 C4555 0.950 . S
H4533 C4557 0.950 . S
H4534 C4558 0.950 . S
H4535 C4559 0.951 . S
H4536 C4561 0.951 . S
H4537 C4563 0.950 . S
H4538 C4564 0.950 . S
H4539 C4566 0.950 . S
H4540 C4569 0.950 . S
H4541 C4570 0.950 . S
H4542 C4572 0.950 . S
H4543 C4573 0.950 . S
C4544 H4526 0.951 . S
C4544 C4545 1.366 . S
C4544 C4546 1.388 . S
C4545 C4544 1.366 . S
C4545 C4549 1.385 . S
C4546 H4527 0.951 . S
C4546 C4544 1.388 . S
C4546 C4547 1.366 . S
C4547 C4546 1.366 . S
C4547 C4548 1.414 . S
C4547 C4550 1.499 . S
C4548 H4528 0.950 . S
C4548 C4547 1.414 . S
C4548 C4549 1.374 . S
C4549 H4529 0.950 . S
C4549 C4545 1.385 . S
C4549 C4548 1.374 . S
C4550 C4547 1.499 . S
C4550 C4551 1.373 . S
C4550 C4552 1.389 . S
C4551 H4530 0.950 . S
C4551 C4550 1.373 . S
C4551 C4567 1.377 . S
C4552 C4550 1.389 . S
C4552 C4553 1.524 . S
C4552 C4566 1.377 . S
C4553 C4552 1.524 . S
C4553 C4554 1.397 . S
C4553 C4558 1.363 . S
C4554 H4531 0.950 . S
C4554 C4553 1.397 . S
C4554 C4555 1.334 . S
C4555 H4532 0.950 . S
C4555 C4554 1.334 . S
C4555 C4556 1.287 . S
C4556 C4555 1.287 . S
C4556 C4557 1.524 . S
C4556 H4575 0.913 . S
C4557 H4533 0.950 . S
C4557 C4556 1.524 . S
C4557 C4558 1.415 . S
C4558 H4534 0.950 . S
C4558 C4553 1.363 . S
C4558 C4557 1.415 . S
C4559 H4535 0.951 . S
C4559 C4560 1.366 . S
C4559 C4561 1.388 . S
C4560 C4559 1.366 . S
C4560 C4564 1.385 . S
C4561 H4536 0.951 . S
C4561 C4559 1.388 . S
C4561 C4562 1.366 . S
C4562 C4561 1.366 . S
C4562 C4563 1.414 . S
C4562 C4565 1.499 . S
C4563 H4537 0.950 . S
C4563 C4562 1.414 . S
C4563 C4564 1.374 . S
C4564 H4538 0.950 . S
C4564 C4560 1.385 . S
C4564 C4563 1.374 . S
C4565 C4562 1.499 . S
C4565 C4566 1.373 . S
C4565 C4567 1.389 . S
C4566 H4539 0.950 . S
C4566 C4552 1.377 . S
C4566 C4565 1.373 . S
C4567 C4551 1.377 . S
C4567 C4565 1.389 . S
C4567 C4568 1.524 . S
C4568 C4567 1.524 . S
C4568 C4569 1.397 . S
C4568 C4573 1.363 . S
C4569 H4540 0.950 . S
C4569 C4568 1.397 . S
C4569 C4570 1.334 . S
C4570 H4541 0.950 . S
C4570 C4569 1.334 . S
C4570 C4571 1.287 . S
C4571 C4570 1.287 . S
C4571 C4572 1.524 . S
C4571 H4574 0.999 . S
C4572 H4542 0.950 . S
C4572 C4571 1.524 . S
C4572 C4573 1.415 . S
C4573 H4543 0.950 . S
C4573 C4568 1.363 . S
C4573 C4572 1.415 . S
H4574 C4571 0.999 . S
H4575 C4556 0.913 . S
H4576 C4594 0.951 . S
H4577 C4596 0.951 . S
H4578 C4598 0.950 . S
H4579 C4599 0.950 . S
H4580 C4601 0.950 . S
H4581 C4604 0.950 . S
H4582 C4605 0.950 . S
H4583 C4607 0.950 . S
H4584 C4608 0.950 . S
H4585 C4609 0.951 . S
H4586 C4611 0.951 . S
H4587 C4613 0.950 . S
H4588 C4614 0.950 . S
H4589 C4616 0.950 . S
H4590 C4619 0.950 . S
H4591 C4620 0.950 . S
H4592 C4622 0.950 . S
H4593 C4623 0.950 . S
C4594 H4576 0.951 . S
C4594 C4595 1.366 . S
C4594 C4596 1.388 . S
C4595 C4594 1.366 . S
C4595 C4599 1.385 . S
C4596 H4577 0.951 . S
C4596 C4594 1.388 . S
C4596 C4597 1.366 . S
C4597 C4596 1.366 . S
C4597 C4598 1.414 . S
C4597 C4600 1.499 . S
C4598 H4578 0.950 . S
C4598 C4597 1.414 . S
C4598 C4599 1.374 . S
C4599 H4579 0.950 . S
C4599 C4595 1.385 . S
C4599 C4598 1.374 . S
C4600 C4597 1.499 . S
C4600 C4601 1.373 . S
C4600 C4602 1.389 . S
C4601 H4580 0.950 . S
C4601 C4600 1.373 . S
C4601 C4617 1.377 . S
C4602 C4600 1.389 . S
C4602 C4603 1.524 . S
C4602 C4616 1.377 . S
C4603 C4602 1.524 . S
C4603 C4604 1.397 . S
C4603 C4608 1.363 . S
C4604 H4581 0.950 . S
C4604 C4603 1.397 . S
C4604 C4605 1.334 . S
C4605 H4582 0.950 . S
C4605 C4604 1.334 . S
C4605 C4606 1.287 . S
C4606 C4605 1.287 . S
C4606 C4607 1.524 . S
C4606 H4625 0.913 . S
C4607 H4583 0.950 . S
C4607 C4606 1.524 . S
C4607 C4608 1.415 . S
C4608 H4584 0.950 . S
C4608 C4603 1.363 . S
C4608 C4607 1.415 . S
C4609 H4585 0.951 . S
C4609 C4610 1.366 . S
C4609 C4611 1.388 . S
C4610 C4609 1.366 . S
C4610 C4614 1.385 . S
C4611 H4586 0.951 . S
C4611 C4609 1.388 . S
C4611 C4612 1.366 . S
C4612 C4611 1.366 . S
C4612 C4613 1.414 . S
C4612 C4615 1.499 . S
C4613 H4587 0.950 . S
C4613 C4612 1.414 . S
C4613 C4614 1.374 . S
C4614 H4588 0.950 . S
C4614 C4610 1.385 . S
C4614 C4613 1.374 . S
C4615 C4612 1.499 . S
C4615 C4616 1.373 . S
C4615 C4617 1.389 . S
C4616 H4589 0.950 . S
C4616 C4602 1.377 . S
C4616 C4615 1.373 . S
C4617 C4601 1.377 . S
C4617 C4615 1.389 . S
C4617 C4618 1.524 . S
C4618 C4617 1.524 . S
C4618 C4619 1.397 . S
C4618 C4623 1.363 . S
C4619 H4590 0.950 . S
C4619 C4618 1.397 . S
C4619 C4620 1.334 . S
C4620 H4591 0.950 . S
C4620 C4619 1.334 . S
C4620 C4621 1.287 . S
C4621 C4620 1.287 . S
C4621 C4622 1.524 . S
C4621 H4624 0.999 . S
C4622 H4592 0.950 . S
C4622 C4621 1.524 . S
C4622 C4623 1.415 . S
C4623 H4593 0.950 . S
C4623 C4618 1.363 . S
C4623 C4622 1.415 . S
H4624 C4621 0.999 . S
H4625 C4606 0.913 . S
H4626 C4644 0.951 . S
H4627 C4646 0.951 . S
H4628 C4648 0.950 . S
H4629 C4649 0.950 . S
H4630 C4651 0.950 . S
H4631 C4654 0.950 . S
H4632 C4655 0.950 . S
H4633 C4657 0.950 . S
H4634 C4658 0.950 . S
H4635 C4659 0.951 . S
H4636 C4661 0.951 . S
H4637 C4663 0.950 . S
H4638 C4664 0.950 . S
H4639 C4666 0.950 . S
H4640 C4669 0.950 . S
H4641 C4670 0.950 . S
H4642 C4672 0.950 . S
H4643 C4673 0.950 . S
C4644 H4626 0.951 . S
C4644 C4645 1.366 . S
C4644 C4646 1.388 . S
C4645 C4644 1.366 . S
C4645 C4649 1.385 . S
C4646 H4627 0.951 . S
C4646 C4644 1.388 . S
C4646 C4647 1.366 . S
C4647 C4646 1.366 . S
C4647 C4648 1.414 . S
C4647 C4650 1.499 . S
C4648 H4628 0.950 . S
C4648 C4647 1.414 . S
C4648 C4649 1.374 . S
C4649 H4629 0.950 . S
C4649 C4645 1.385 . S
C4649 C4648 1.374 . S
C4650 C4647 1.499 . S
C4650 C4651 1.373 . S
C4650 C4652 1.389 . S
C4651 H4630 0.950 . S
C4651 C4650 1.373 . S
C4651 C4667 1.377 . S
C4652 C4650 1.389 . S
C4652 C4653 1.524 . S
C4652 C4666 1.377 . S
C4653 C4652 1.524 . S
C4653 C4654 1.397 . S
C4653 C4658 1.363 . S
C4654 H4631 0.950 . S
C4654 C4653 1.397 . S
C4654 C4655 1.334 . S
C4655 H4632 0.950 . S
C4655 C4654 1.334 . S
C4655 C4656 1.287 . S
C4656 C4655 1.287 . S
C4656 C4657 1.524 . S
C4656 H4675 0.913 . S
C4657 H4633 0.950 . S
C4657 C4656 1.524 . S
C4657 C4658 1.415 . S
C4658 H4634 0.950 . S
C4658 C4653 1.363 . S
C4658 C4657 1.415 . S
C4659 H4635 0.951 . S
C4659 C4660 1.366 . S
C4659 C4661 1.388 . S
C4660 C4659 1.366 . S
C4660 C4664 1.385 . S
C4661 H4636 0.951 . S
C4661 C4659 1.388 . S
C4661 C4662 1.366 . S
C4662 C4661 1.366 . S
C4662 C4663 1.414 . S
C4662 C4665 1.499 . S
C4663 H4637 0.950 . S
C4663 C4662 1.414 . S
C4663 C4664 1.374 . S
C4664 H4638 0.950 . S
C4664 C4660 1.385 . S
C4664 C4663 1.374 . S
C4665 C4662 1.499 . S
C4665 C4666 1.373 . S
C4665 C4667 1.389 . S
C4666 H4639 0.950 . S
C4666 C4652 1.377 . S
C4666 C4665 1.373 . S
C4667 C4651 1.377 . S
C4667 C4665 1.389 . S
C4667 C4668 1.524 . S
C4668 C4667 1.524 . S
C4668 C4669 1.397 . S
C4668 C4673 1.363 . S
C4669 H4640 0.950 . S
C4669 C4668 1.397 . S
C4669 C4670 1.334 . S
C4670 H4641 0.950 . S
C4670 C4669 1.334 . S
C4670 C4671 1.287 . S
C4671 C4670 1.287 . S
C4671 C4672 1.524 . S
C4671 H4674 0.999 . S
C4672 H4642 0.950 . S
C4672 C4671 1.524 . S
C4672 C4673 1.415 . S
C4673 H4643 0.950 . S
C4673 C4668 1.363 . S
C4673 C4672 1.415 . S
H4674 C4671 0.999 . S
H4675 C4656 0.913 . S
H4676 C4694 0.951 . S
H4677 C4696 0.951 . S
H4678 C4698 0.950 . S
H4679 C4699 0.950 . S
H4680 C4701 0.950 . S
H4681 C4704 0.950 . S
H4682 C4705 0.950 . S
H4683 C4707 0.950 . S
H4684 C4708 0.950 . S
H4685 C4709 0.951 . S
H4686 C4711 0.951 . S
H4687 C4713 0.950 . S
H4688 C4714 0.950 . S
H4689 C4716 0.950 . S
H4690 C4719 0.950 . S
H4691 C4720 0.948 1_455 S
H4692 C4722 0.950 . S
H4693 C4723 0.945 . S
C4694 H4676 0.951 . S
C4694 C4695 1.366 . S
C4694 C4696 1.388 . S
C4695 C4694 1.366 . S
C4695 C4699 1.385 . S
C4696 H4677 0.951 . S
C4696 C4694 1.388 . S
C4696 C4697 1.366 . S
C4697 C4696 1.366 . S
C4697 C4698 1.414 . S
C4697 C4700 1.499 . S
C4698 H4678 0.950 . S
C4698 C4697 1.414 . S
C4698 C4699 1.374 . S
C4699 H4679 0.950 . S
C4699 C4695 1.385 . S
C4699 C4698 1.374 . S
C4700 C4697 1.499 . S
C4700 C4701 1.373 . S
C4700 C4702 1.389 . S
C4701 H4680 0.950 . S
C4701 C4700 1.373 . S
C4701 C4717 1.377 . S
C4702 C4700 1.389 . S
C4702 C4703 1.524 . S
C4702 C4716 1.377 . S
C4703 C4702 1.524 . S
C4703 C4704 1.397 . S
C4703 C4708 1.363 . S
C4704 H4681 0.950 . S
C4704 C4703 1.397 . S
C4704 C4705 1.334 . S
C4705 H4682 0.950 . S
C4705 C4704 1.334 . S
C4705 C4706 1.287 . S
C4706 C4705 1.287 . S
C4706 C4707 1.524 . S
C4706 H4725 0.913 . S
C4707 H4683 0.950 . S
C4707 C4706 1.524 . S
C4707 C4708 1.415 . S
C4708 H4684 0.950 . S
C4708 C4703 1.363 . S
C4708 C4707 1.415 . S
C4709 H4685 0.951 . S
C4709 C4710 1.366 . S
C4709 C4711 1.388 . S
C4710 C4709 1.366 . S
C4710 C4714 1.385 . S
C4711 H4686 0.951 . S
C4711 C4709 1.388 . S
C4711 C4712 1.366 . S
C4712 C4711 1.366 . S
C4712 C4713 1.414 . S
C4712 C4715 1.499 . S
C4713 H4687 0.950 . S
C4713 C4712 1.414 . S
C4713 C4714 1.374 . S
C4714 H4688 0.950 . S
C4714 C4710 1.385 . S
C4714 C4713 1.374 . S
C4715 C4712 1.499 . S
C4715 C4716 1.373 . S
C4715 C4717 1.389 . S
C4716 H4689 0.950 . S
C4716 C4702 1.377 . S
C4716 C4715 1.373 . S
C4717 C4701 1.377 . S
C4717 C4715 1.389 . S
C4717 C4718 1.524 . S
C4718 C4717 1.524 . S
C4718 C4719 1.397 . S
C4718 C4723 1.363 1_455 S
C4719 H4690 0.950 . S
C4719 C4718 1.397 . S
C4719 C4720 1.338 1_455 S
C4720 H4691 0.948 1_655 S
C4720 C4719 1.338 1_655 S
C4720 C4721 1.281 . S
C4721 C4720 1.281 . S
C4721 C4722 1.524 . S
C4721 H4724 0.999 . S
C4722 H4692 0.950 . S
C4722 C4721 1.524 . S
C4722 C4723 1.415 . S
C4723 H4693 0.945 . S
C4723 C4718 1.363 1_655 S
C4723 C4722 1.415 . S
H4724 C4721 0.999 . S
H4725 C4706 0.913 . S
H4726 C4744 0.951 . S
H4727 C4746 0.951 . S
H4728 C4748 0.950 . S
H4729 C4749 0.950 . S
H4730 C4751 0.950 . S
H4731 C4754 0.950 . S
H4732 C4755 0.950 . S
H4733 C4757 0.950 . S
H4734 C4758 0.950 . S
H4735 C4759 0.951 . S
H4736 C4761 0.951 . S
H4737 C4763 0.950 . S
H4738 C4764 0.950 . S
H4739 C4766 0.950 . S
H4740 C4769 0.950 . S
H4741 C4770 0.950 . S
H4742 C4772 0.950 . S
H4743 C4773 0.950 . S
C4744 H4726 0.951 . S
C4744 C4745 1.366 . S
C4744 C4746 1.388 . S
C4745 C4744 1.366 . S
C4745 C4749 1.385 . S
C4746 H4727 0.951 . S
C4746 C4744 1.388 . S
C4746 C4747 1.366 . S
C4747 C4746 1.366 . S
C4747 C4748 1.414 . S
C4747 C4750 1.499 . S
C4748 H4728 0.950 . S
C4748 C4747 1.414 . S
C4748 C4749 1.374 . S
C4749 H4729 0.950 . S
C4749 C4745 1.385 . S
C4749 C4748 1.374 . S
C4750 C4747 1.499 . S
C4750 C4751 1.373 . S
C4750 C4752 1.389 . S
C4751 H4730 0.950 . S
C4751 C4750 1.373 . S
C4751 C4767 1.377 . S
C4752 C4750 1.389 . S
C4752 C4753 1.524 . S
C4752 C4766 1.377 . S
C4753 C4752 1.524 . S
C4753 C4754 1.397 . S
C4753 C4758 1.363 . S
C4754 H4731 0.950 . S
C4754 C4753 1.397 . S
C4754 C4755 1.334 . S
C4755 H4732 0.950 . S
C4755 C4754 1.334 . S
C4755 C4756 1.287 . S
C4756 C4755 1.287 . S
C4756 C4757 1.524 . S
C4756 H4775 0.913 . S
C4757 H4733 0.950 . S
C4757 C4756 1.524 . S
C4757 C4758 1.415 . S
C4758 H4734 0.950 . S
C4758 C4753 1.363 . S
C4758 C4757 1.415 . S
C4759 H4735 0.951 . S
C4759 C4760 1.366 . S
C4759 C4761 1.388 . S
C4760 C4759 1.366 . S
C4760 C4764 1.385 . S
C4761 H4736 0.951 . S
C4761 C4759 1.388 . S
C4761 C4762 1.366 . S
C4762 C4761 1.366 . S
C4762 C4763 1.414 . S
C4762 C4765 1.499 . S
C4763 H4737 0.950 . S
C4763 C4762 1.414 . S
C4763 C4764 1.374 . S
C4764 H4738 0.950 . S
C4764 C4760 1.385 . S
C4764 C4763 1.374 . S
C4765 C4762 1.499 . S
C4765 C4766 1.373 . S
C4765 C4767 1.389 . S
C4766 H4739 0.950 . S
C4766 C4752 1.377 . S
C4766 C4765 1.373 . S
C4767 C4751 1.377 . S
C4767 C4765 1.389 . S
C4767 C4768 1.524 . S
C4768 C4767 1.524 . S
C4768 C4769 1.397 . S
C4768 C4773 1.363 . S
C4769 H4740 0.950 . S
C4769 C4768 1.397 . S
C4769 C4770 1.334 . S
C4770 H4741 0.950 . S
C4770 C4769 1.334 . S
C4770 C4771 1.287 . S
C4771 C4770 1.287 . S
C4771 C4772 1.524 . S
C4771 H4774 0.999 . S
C4772 H4742 0.950 . S
C4772 C4771 1.524 . S
C4772 C4773 1.415 . S
C4773 H4743 0.950 . S
C4773 C4768 1.363 . S
C4773 C4772 1.415 . S
H4774 C4771 0.999 . S
H4775 C4756 0.913 . S
H4776 C4794 0.951 . S
H4777 C4796 0.951 . S
H4778 C4798 0.950 . S
H4779 C4799 0.950 . S
H4780 C4801 0.950 . S
H4781 C4804 0.950 . S
H4782 C4805 0.950 . S
H4783 C4807 0.950 . S
H4784 C4808 0.950 . S
H4785 C4809 0.951 . S
H4786 C4811 0.951 . S
H4787 C4813 0.950 . S
H4788 C4814 0.950 . S
H4789 C4816 0.950 . S
H4790 C4819 0.950 . S
H4791 C4820 0.950 . S
H4792 C4822 0.950 . S
H4793 C4823 0.950 . S
C4794 H4776 0.951 . S
C4794 C4795 1.366 . S
C4794 C4796 1.388 . S
C4795 C4794 1.366 . S
C4795 C4799 1.385 . S
C4796 H4777 0.951 . S
C4796 C4794 1.388 . S
C4796 C4797 1.366 . S
C4797 C4796 1.366 . S
C4797 C4798 1.414 . S
C4797 C4800 1.499 . S
C4798 H4778 0.950 . S
C4798 C4797 1.414 . S
C4798 C4799 1.374 . S
C4799 H4779 0.950 . S
C4799 C4795 1.385 . S
C4799 C4798 1.374 . S
C4800 C4797 1.499 . S
C4800 C4801 1.373 . S
C4800 C4802 1.389 . S
C4801 H4780 0.950 . S
C4801 C4800 1.373 . S
C4801 C4817 1.377 . S
C4802 C4800 1.389 . S
C4802 C4803 1.524 . S
C4802 C4816 1.377 . S
C4803 C4802 1.524 . S
C4803 C4804 1.397 . S
C4803 C4808 1.363 . S
C4804 H4781 0.950 . S
C4804 C4803 1.397 . S
C4804 C4805 1.334 . S
C4805 H4782 0.950 . S
C4805 C4804 1.334 . S
C4805 C4806 1.287 . S
C4806 C4805 1.287 . S
C4806 C4807 1.524 . S
C4806 H4825 0.913 . S
C4807 H4783 0.950 . S
C4807 C4806 1.524 . S
C4807 C4808 1.415 . S
C4808 H4784 0.950 . S
C4808 C4803 1.363 . S
C4808 C4807 1.415 . S
C4809 H4785 0.951 . S
C4809 C4810 1.366 . S
C4809 C4811 1.388 . S
C4810 C4809 1.366 . S
C4810 C4814 1.385 . S
C4811 H4786 0.951 . S
C4811 C4809 1.388 . S
C4811 C4812 1.366 . S
C4812 C4811 1.366 . S
C4812 C4813 1.414 . S
C4812 C4815 1.499 . S
C4813 H4787 0.950 . S
C4813 C4812 1.414 . S
C4813 C4814 1.374 . S
C4814 H4788 0.950 . S
C4814 C4810 1.385 . S
C4814 C4813 1.374 . S
C4815 C4812 1.499 . S
C4815 C4816 1.373 . S
C4815 C4817 1.389 . S
C4816 H4789 0.950 . S
C4816 C4802 1.377 . S
C4816 C4815 1.373 . S
C4817 C4801 1.377 . S
C4817 C4815 1.389 . S
C4817 C4818 1.524 . S
C4818 C4817 1.524 . S
C4818 C4819 1.397 . S
C4818 C4823 1.363 . S
C4819 H4790 0.950 . S
C4819 C4818 1.397 . S
C4819 C4820 1.334 . S
C4820 H4791 0.950 . S
C4820 C4819 1.334 . S
C4820 C4821 1.287 . S
C4821 C4820 1.287 . S
C4821 C4822 1.524 . S
C4821 H4824 0.999 . S
C4822 H4792 0.950 . S
C4822 C4821 1.524 . S
C4822 C4823 1.415 . S
C4823 H4793 0.950 . S
C4823 C4818 1.363 . S
C4823 C4822 1.415 . S
H4824 C4821 0.999 . S
H4825 C4806 0.913 . S
H4826 C4844 0.951 . S
H4827 C4846 0.951 . S
H4828 C4848 0.950 . S
H4829 C4849 0.950 . S
H4830 C4851 0.950 . S
H4831 C4854 0.950 . S
H4832 C4855 0.950 . S
H4833 C4857 0.950 . S
H4834 C4858 0.950 . S
H4835 C4859 0.951 . S
H4836 C4861 0.951 . S
H4837 C4863 0.950 . S
H4838 C4864 0.950 . S
H4839 C4866 0.950 . S
H4840 C4869 0.950 . S
H4841 C4870 0.950 . S
H4842 C4872 0.950 . S
H4843 C4873 0.950 . S
C4844 H4826 0.951 . S
C4844 C4845 1.366 . S
C4844 C4846 1.388 . S
C4845 C4844 1.366 . S
C4845 C4849 1.385 . S
C4846 H4827 0.951 . S
C4846 C4844 1.388 . S
C4846 C4847 1.366 . S
C4847 C4846 1.366 . S
C4847 C4848 1.414 . S
C4847 C4850 1.499 . S
C4848 H4828 0.950 . S
C4848 C4847 1.414 . S
C4848 C4849 1.374 . S
C4849 H4829 0.950 . S
C4849 C4845 1.385 . S
C4849 C4848 1.374 . S
C4850 C4847 1.499 . S
C4850 C4851 1.373 . S
C4850 C4852 1.389 . S
C4851 H4830 0.950 . S
C4851 C4850 1.373 . S
C4851 C4867 1.377 . S
C4852 C4850 1.389 . S
C4852 C4853 1.524 . S
C4852 C4866 1.377 . S
C4853 C4852 1.524 . S
C4853 C4854 1.397 . S
C4853 C4858 1.363 . S
C4854 H4831 0.950 . S
C4854 C4853 1.397 . S
C4854 C4855 1.334 . S
C4855 H4832 0.950 . S
C4855 C4854 1.334 . S
C4855 C4856 1.287 . S
C4856 C4855 1.287 . S
C4856 C4857 1.524 . S
C4856 H4875 0.913 . S
C4857 H4833 0.950 . S
C4857 C4856 1.524 . S
C4857 C4858 1.415 . S
C4858 H4834 0.950 . S
C4858 C4853 1.363 . S
C4858 C4857 1.415 . S
C4859 H4835 0.951 . S
C4859 C4860 1.366 . S
C4859 C4861 1.388 . S
C4860 C4859 1.366 . S
C4860 C4864 1.385 . S
C4861 H4836 0.951 . S
C4861 C4859 1.388 . S
C4861 C4862 1.366 . S
C4862 C4861 1.366 . S
C4862 C4863 1.414 . S
C4862 C4865 1.499 . S
C4863 H4837 0.950 . S
C4863 C4862 1.414 . S
C4863 C4864 1.374 . S
C4864 H4838 0.950 . S
C4864 C4860 1.385 . S
C4864 C4863 1.374 . S
C4865 C4862 1.499 . S
C4865 C4866 1.373 . S
C4865 C4867 1.389 . S
C4866 H4839 0.950 . S
C4866 C4852 1.377 . S
C4866 C4865 1.373 . S
C4867 C4851 1.377 . S
C4867 C4865 1.389 . S
C4867 C4868 1.524 . S
C4868 C4867 1.524 . S
C4868 C4869 1.397 . S
C4868 C4873 1.363 . S
C4869 H4840 0.950 . S
C4869 C4868 1.397 . S
C4869 C4870 1.334 . S
C4870 H4841 0.950 . S
C4870 C4869 1.334 . S
C4870 C4871 1.287 . S
C4871 C4870 1.287 . S
C4871 C4872 1.524 . S
C4871 H4874 0.999 . S
C4872 H4842 0.950 . S
C4872 C4871 1.524 . S
C4872 C4873 1.415 . S
C4873 H4843 0.950 . S
C4873 C4868 1.363 . S
C4873 C4872 1.415 . S
H4874 C4871 0.999 . S
H4875 C4856 0.913 . S
H4876 C4894 0.951 . S
H4877 C4896 0.951 . S
H4878 C4898 0.950 . S
H4879 C4899 0.950 . S
H4880 C4901 0.950 . S
H4881 C4904 0.950 . S
H4882 C4905 0.950 . S
H4883 C4907 0.950 . S
H4884 C4908 0.950 . S
H4885 C4909 0.951 . S
H4886 C4911 0.951 . S
H4887 C4913 0.950 . S
H4888 C4914 0.950 . S
H4889 C4916 0.950 . S
H4890 C4919 0.950 . S
H4891 C4920 0.950 1_655 S
H4892 C4922 0.950 . S
H4893 C4923 0.950 . S
C4894 H4876 0.951 . S
C4894 C4895 1.366 . S
C4894 C4896 1.388 . S
C4895 C4894 1.366 . S
C4895 C4899 1.385 . S
C4896 H4877 0.951 . S
C4896 C4894 1.388 . S
C4896 C4897 1.366 . S
C4897 C4896 1.366 . S
C4897 C4898 1.414 . S
C4897 C4900 1.499 . S
C4898 H4878 0.950 . S
C4898 C4897 1.414 . S
C4898 C4899 1.374 . S
C4899 H4879 0.950 . S
C4899 C4895 1.385 . S
C4899 C4898 1.374 . S
C4900 C4897 1.499 . S
C4900 C4901 1.373 . S
C4900 C4902 1.389 . S
C4901 H4880 0.950 . S
C4901 C4900 1.373 . S
C4901 C4917 1.377 . S
C4902 C4900 1.389 . S
C4902 C4903 1.524 . S
C4902 C4916 1.377 . S
C4903 C4902 1.524 . S
C4903 C4904 1.397 . S
C4903 C4908 1.363 . S
C4904 H4881 0.950 . S
C4904 C4903 1.397 . S
C4904 C4905 1.334 . S
C4905 H4882 0.950 . S
C4905 C4904 1.334 . S
C4905 C4906 1.287 . S
C4906 C4905 1.287 . S
C4906 C4907 1.524 . S
C4906 H4925 0.913 . S
C4907 H4883 0.950 . S
C4907 C4906 1.524 . S
C4907 C4908 1.415 . S
C4908 H4884 0.950 . S
C4908 C4903 1.363 . S
C4908 C4907 1.415 . S
C4909 H4885 0.951 . S
C4909 C4910 1.366 . S
C4909 C4911 1.388 . S
C4910 C4909 1.366 . S
C4910 C4914 1.385 . S
C4911 H4886 0.951 . S
C4911 C4909 1.388 . S
C4911 C4912 1.366 . S
C4912 C4911 1.366 . S
C4912 C4913 1.414 . S
C4912 C4915 1.499 . S
C4913 H4887 0.950 . S
C4913 C4912 1.414 . S
C4913 C4914 1.374 . S
C4914 H4888 0.950 . S
C4914 C4910 1.385 . S
C4914 C4913 1.374 . S
C4915 C4912 1.499 . S
C4915 C4916 1.373 . S
C4915 C4917 1.389 . S
C4916 H4889 0.950 . S
C4916 C4902 1.377 . S
C4916 C4915 1.373 . S
C4917 C4901 1.377 . S
C4917 C4915 1.389 . S
C4917 C4918 1.524 . S
C4918 C4917 1.524 . S
C4918 C4919 1.397 . S
C4918 C4923 1.363 . S
C4919 H4890 0.950 . S
C4919 C4918 1.397 . S
C4919 C4920 1.334 . S
C4920 H4891 0.950 1_455 S
C4920 C4919 1.334 . S
C4920 C4921 1.287 1_455 S
C4921 C4920 1.287 1_655 S
C4921 C4922 1.524 . S
C4921 H4924 0.999 . S
C4922 H4892 0.950 . S
C4922 C4921 1.524 . S
C4922 C4923 1.415 1_655 S
C4923 H4893 0.950 . S
C4923 C4918 1.363 . S
C4923 C4922 1.415 1_455 S
H4924 C4921 0.999 . S
H4925 C4906 0.913 . S
H4926 C4944 0.951 . S
H4927 C4946 0.951 . S
H4928 C4948 0.950 . S
H4929 C4949 0.950 . S
H4930 C4951 0.950 . S
H4931 C4954 0.950 . S
H4932 C4955 0.950 . S
H4933 C4957 0.950 . S
H4934 C4958 0.950 . S
H4935 C4959 0.951 . S
H4936 C4961 0.951 . S
H4937 C4963 0.950 . S
H4938 C4964 0.950 . S
H4939 C4966 0.950 . S
H4940 C4969 0.950 . S
H4941 C4970 0.950 . S
H4942 C4972 0.950 . S
H4943 C4973 0.950 . S
C4944 H4926 0.951 . S
C4944 C4945 1.366 . S
C4944 C4946 1.388 . S
C4945 C4944 1.366 . S
C4945 C4949 1.385 . S
C4946 H4927 0.951 . S
C4946 C4944 1.388 . S
C4946 C4947 1.366 . S
C4947 C4946 1.366 . S
C4947 C4948 1.414 . S
C4947 C4950 1.499 . S
C4948 H4928 0.950 . S
C4948 C4947 1.414 . S
C4948 C4949 1.374 . S
C4949 H4929 0.950 . S
C4949 C4945 1.385 . S
C4949 C4948 1.374 . S
C4950 C4947 1.499 . S
C4950 C4951 1.373 . S
C4950 C4952 1.389 . S
C4951 H4930 0.950 . S
C4951 C4950 1.373 . S
C4951 C4967 1.377 . S
C4952 C4950 1.389 . S
C4952 C4953 1.524 . S
C4952 C4966 1.377 . S
C4953 C4952 1.524 . S
C4953 C4954 1.397 . S
C4953 C4958 1.363 . S
C4954 H4931 0.950 . S
C4954 C4953 1.397 . S
C4954 C4955 1.334 . S
C4955 H4932 0.950 . S
C4955 C4954 1.334 . S
C4955 C4956 1.287 . S
C4956 C4955 1.287 . S
C4956 C4957 1.524 . S
C4956 H4975 0.913 . S
C4957 H4933 0.950 . S
C4957 C4956 1.524 . S
C4957 C4958 1.415 . S
C4958 H4934 0.950 . S
C4958 C4953 1.363 . S
C4958 C4957 1.415 . S
C4959 H4935 0.951 . S
C4959 C4960 1.366 . S
C4959 C4961 1.388 . S
C4960 C4959 1.366 . S
C4960 C4964 1.385 . S
C4961 H4936 0.951 . S
C4961 C4959 1.388 . S
C4961 C4962 1.366 . S
C4962 C4961 1.366 . S
C4962 C4963 1.414 . S
C4962 C4965 1.499 . S
C4963 H4937 0.950 . S
C4963 C4962 1.414 . S
C4963 C4964 1.374 . S
C4964 H4938 0.950 . S
C4964 C4960 1.385 . S
C4964 C4963 1.374 . S
C4965 C4962 1.499 . S
C4965 C4966 1.373 . S
C4965 C4967 1.389 . S
C4966 H4939 0.950 . S
C4966 C4952 1.377 . S
C4966 C4965 1.373 . S
C4967 C4951 1.377 . S
C4967 C4965 1.389 . S
C4967 C4968 1.524 . S
C4968 C4967 1.524 . S
C4968 C4969 1.397 . S
C4968 C4973 1.363 . S
C4969 H4940 0.950 . S
C4969 C4968 1.397 . S
C4969 C4970 1.334 . S
C4970 H4941 0.950 . S
C4970 C4969 1.334 . S
C4970 C4971 1.287 . S
C4971 C4970 1.287 . S
C4971 C4972 1.524 . S
C4971 H4974 0.999 . S
C4972 H4942 0.950 . S
C4972 C4971 1.524 . S
C4972 C4973 1.415 . S
C4973 H4943 0.950 . S
C4973 C4968 1.363 . S
C4973 C4972 1.415 . S
H4974 C4971 0.999 . S
H4975 C4956 0.913 . S
H4976 C4994 0.951 . S
H4977 C4996 0.951 . S
H4978 C4998 0.950 . S
H4979 C4999 0.950 . S
H4980 C5001 0.950 . S
H4981 C5004 0.950 . S
H4982 C5005 0.950 . S
H4983 C5007 0.950 . S
H4984 C5008 0.950 . S
H4985 C5009 0.951 . S
H4986 C5011 0.951 . S
H4987 C5013 0.950 . S
H4988 C5014 0.950 . S
H4989 C5016 0.950 . S
H4990 C5019 0.950 . S
H4991 C5020 0.950 . S
H4992 C5022 0.950 . S
H4993 C5023 0.950 . S
C4994 H4976 0.951 . S
C4994 C4995 1.366 . S
C4994 C4996 1.388 . S
C4995 C4994 1.366 . S
C4995 C4999 1.385 . S
C4996 H4977 0.951 . S
C4996 C4994 1.388 . S
C4996 C4997 1.366 . S
C4997 C4996 1.366 . S
C4997 C4998 1.414 . S
C4997 C5000 1.499 . S
C4998 H4978 0.950 . S
C4998 C4997 1.414 . S
C4998 C4999 1.374 . S
C4999 H4979 0.950 . S
C4999 C4995 1.385 . S
C4999 C4998 1.374 . S
C5000 C4997 1.499 . S
C5000 C5001 1.373 . S
C5000 C5002 1.389 . S
C5001 H4980 0.950 . S
C5001 C5000 1.373 . S
C5001 C5017 1.377 . S
C5002 C5000 1.389 . S
C5002 C5003 1.524 . S
C5002 C5016 1.377 . S
C5003 C5002 1.524 . S
C5003 C5004 1.397 . S
C5003 C5008 1.363 . S
C5004 H4981 0.950 . S
C5004 C5003 1.397 . S
C5004 C5005 1.334 . S
C5005 H4982 0.950 . S
C5005 C5004 1.334 . S
C5005 C5006 1.287 . S
C5006 C5005 1.287 . S
C5006 C5007 1.524 . S
C5006 H5025 0.913 . S
C5007 H4983 0.950 . S
C5007 C5006 1.524 . S
C5007 C5008 1.415 . S
C5008 H4984 0.950 . S
C5008 C5003 1.363 . S
C5008 C5007 1.415 . S
C5009 H4985 0.951 . S
C5009 C5010 1.366 . S
C5009 C5011 1.388 . S
C5010 C5009 1.366 . S
C5010 C5014 1.385 . S
C5011 H4986 0.951 . S
C5011 C5009 1.388 . S
C5011 C5012 1.366 . S
C5012 C5011 1.366 . S
C5012 C5013 1.414 . S
C5012 C5015 1.499 . S
C5013 H4987 0.950 . S
C5013 C5012 1.414 . S
C5013 C5014 1.374 . S
C5014 H4988 0.950 . S
C5014 C5010 1.385 . S
C5014 C5013 1.374 . S
C5015 C5012 1.499 . S
C5015 C5016 1.373 . S
C5015 C5017 1.389 . S
C5016 H4989 0.950 . S
C5016 C5002 1.377 . S
C5016 C5015 1.373 . S
C5017 C5001 1.377 . S
C5017 C5015 1.389 . S
C5017 C5018 1.524 . S
C5018 C5017 1.524 . S
C5018 C5019 1.397 . S
C5018 C5023 1.363 . S
C5019 H4990 0.950 . S
C5019 C5018 1.397 . S
C5019 C5020 1.334 . S
C5020 H4991 0.950 . S
C5020 C5019 1.334 . S
C5020 C5021 1.287 . S
C5021 C5020 1.287 . S
C5021 C5022 1.524 . S
C5021 H5024 0.999 . S
C5022 H4992 0.950 . S
C5022 C5021 1.524 . S
C5022 C5023 1.415 . S
C5023 H4993 0.950 . S
C5023 C5018 1.363 . S
C5023 C5022 1.415 . S
H5024 C5021 0.999 . S
H5025 C5006 0.913 . S
H5026 C5044 0.951 . S
H5027 C5046 0.951 . S
H5028 C5048 0.950 . S
H5029 C5049 0.950 . S
H5030 C5051 0.950 . S
H5031 C5054 0.950 . S
H5032 C5055 0.950 . S
H5033 C5057 0.950 . S
H5034 C5058 0.950 . S
H5035 C5059 0.951 . S
H5036 C5061 0.951 . S
H5037 C5063 0.950 . S
H5038 C5064 0.950 . S
H5039 C5066 0.950 . S
H5040 C5069 0.950 . S
H5041 C5070 0.950 . S
H5042 C5072 0.950 . S
H5043 C5073 0.950 . S
C5044 H5026 0.951 . S
C5044 C5045 1.366 . S
C5044 C5046 1.388 . S
C5045 C5044 1.366 . S
C5045 C5049 1.385 . S
C5046 H5027 0.951 . S
C5046 C5044 1.388 . S
C5046 C5047 1.366 . S
C5047 C5046 1.366 . S
C5047 C5048 1.414 . S
C5047 C5050 1.499 . S
C5048 H5028 0.950 . S
C5048 C5047 1.414 . S
C5048 C5049 1.374 . S
C5049 H5029 0.950 . S
C5049 C5045 1.385 . S
C5049 C5048 1.374 . S
C5050 C5047 1.499 . S
C5050 C5051 1.373 . S
C5050 C5052 1.389 . S
C5051 H5030 0.950 . S
C5051 C5050 1.373 . S
C5051 C5067 1.377 . S
C5052 C5050 1.389 . S
C5052 C5053 1.524 . S
C5052 C5066 1.377 . S
C5053 C5052 1.524 . S
C5053 C5054 1.397 . S
C5053 C5058 1.363 . S
C5054 H5031 0.950 . S
C5054 C5053 1.397 . S
C5054 C5055 1.334 . S
C5055 H5032 0.950 . S
C5055 C5054 1.334 . S
C5055 C5056 1.287 . S
C5056 C5055 1.287 . S
C5056 C5057 1.524 . S
C5056 H5075 0.913 . S
C5057 H5033 0.950 . S
C5057 C5056 1.524 . S
C5057 C5058 1.415 . S
C5058 H5034 0.950 . S
C5058 C5053 1.363 . S
C5058 C5057 1.415 . S
C5059 H5035 0.951 . S
C5059 C5060 1.366 . S
C5059 C5061 1.388 . S
C5060 C5059 1.366 . S
C5060 C5064 1.385 . S
C5061 H5036 0.951 . S
C5061 C5059 1.388 . S
C5061 C5062 1.366 . S
C5062 C5061 1.366 . S
C5062 C5063 1.414 . S
C5062 C5065 1.499 . S
C5063 H5037 0.950 . S
C5063 C5062 1.414 . S
C5063 C5064 1.374 . S
C5064 H5038 0.950 . S
C5064 C5060 1.385 . S
C5064 C5063 1.374 . S
C5065 C5062 1.499 . S
C5065 C5066 1.373 . S
C5065 C5067 1.389 . S
C5066 H5039 0.950 . S
C5066 C5052 1.377 . S
C5066 C5065 1.373 . S
C5067 C5051 1.377 . S
C5067 C5065 1.389 . S
C5067 C5068 1.524 . S
C5068 C5067 1.524 . S
C5068 C5069 1.397 . S
C5068 C5073 1.363 . S
C5069 H5040 0.950 . S
C5069 C5068 1.397 . S
C5069 C5070 1.334 . S
C5070 H5041 0.950 . S
C5070 C5069 1.334 . S
C5070 C5071 1.287 . S
C5071 C5070 1.287 . S
C5071 C5072 1.524 . S
C5071 H5074 0.999 . S
C5072 H5042 0.950 . S
C5072 C5071 1.524 . S
C5072 C5073 1.415 . S
C5073 H5043 0.950 . S
C5073 C5068 1.363 . S
C5073 C5072 1.415 . S
H5074 C5071 0.999 . S
H5075 C5056 0.913 . S
H5076 C5094 0.951 . S
H5077 C5096 0.951 . S
H5078 C5098 0.950 . S
H5079 C5099 0.950 . S
H5080 C5101 0.950 . S
H5081 C5104 0.950 . S
H5082 C5105 0.950 . S
H5083 C5107 0.950 . S
H5084 C5108 0.950 . S
H5085 C5109 0.927 1_655 S
H5086 C5111 0.951 . S
H5087 C5113 0.950 . S
H5088 C5114 0.950 . S
H5089 C5116 0.950 . S
H5090 C5119 0.950 . S
H5091 C5120 0.950 . S
H5092 C5122 0.950 . S
H5093 C5123 0.950 . S
C5094 H5076 0.951 . S
C5094 C5095 1.366 . S
C5094 C5096 1.388 . S
C5095 C5094 1.366 . S
C5095 C5099 1.385 . S
C5096 H5077 0.951 . S
C5096 C5094 1.388 . S
C5096 C5097 1.366 . S
C5097 C5096 1.366 . S
C5097 C5098 1.414 . S
C5097 C5100 1.499 . S
C5098 H5078 0.950 . S
C5098 C5097 1.414 . S
C5098 C5099 1.374 . S
C5099 H5079 0.950 . S
C5099 C5095 1.385 . S
C5099 C5098 1.374 . S
C5100 C5097 1.499 . S
C5100 C5101 1.373 . S
C5100 C5102 1.389 . S
C5101 H5080 0.950 . S
C5101 C5100 1.373 . S
C5101 C5117 1.377 . S
C5102 C5100 1.389 . S
C5102 C5103 1.524 . S
C5102 C5116 1.377 . S
C5103 C5102 1.524 . S
C5103 C5104 1.397 . S
C5103 C5108 1.363 . S
C5104 H5081 0.950 . S
C5104 C5103 1.397 . S
C5104 C5105 1.334 . S
C5105 H5082 0.950 . S
C5105 C5104 1.334 . S
C5105 C5106 1.287 . S
C5106 C5105 1.287 . S
C5106 C5107 1.524 . S
C5106 H5125 0.913 . S
C5107 H5083 0.950 . S
C5107 C5106 1.524 . S
C5107 C5108 1.415 . S
C5108 H5084 0.950 . S
C5108 C5103 1.363 . S
C5108 C5107 1.415 . S
C5109 H5085 0.927 1_455 S
C5109 C5110 1.366 . S
C5109 C5111 1.388 1_455 S
C5110 C5109 1.366 . S
C5110 C5114 1.385 . S
C5111 H5086 0.951 . S
C5111 C5109 1.388 1_655 S
C5111 C5112 1.346 1_655 S
C5112 C5111 1.346 1_455 S
C5112 C5113 1.451 . S
C5112 C5115 1.483 1_455 S
C5113 H5087 0.950 . S
C5113 C5112 1.451 . S
C5113 C5114 1.374 . S
C5114 H5088 0.950 . S
C5114 C5110 1.385 . S
C5114 C5113 1.374 . S
C5115 C5112 1.483 1_655 S
C5115 C5116 1.373 . S
C5115 C5117 1.389 . S
C5116 H5089 0.950 . S
C5116 C5102 1.377 . S
C5116 C5115 1.373 . S
C5117 C5101 1.377 . S
C5117 C5115 1.389 . S
C5117 C5118 1.524 . S
C5118 C5117 1.524 . S
C5118 C5119 1.397 1_655 S
C5118 C5123 1.363 . S
C5119 H5090 0.950 . S
C5119 C5118 1.397 1_455 S
C5119 C5120 1.334 . S
C5120 H5091 0.950 . S
C5120 C5119 1.334 . S
C5120 C5121 1.247 1_455 S
C5121 C5120 1.247 1_655 S
C5121 C5122 1.567 . S
C5121 H5124 1.001 1_655 S
C5122 H5092 0.950 . S
C5122 C5121 1.567 . S
C5122 C5123 1.415 . S
C5123 H5093 0.950 . S
C5123 C5118 1.363 . S
C5123 C5122 1.415 . S
H5124 C5121 1.001 1_455 S
H5125 C5106 0.913 . S
H5126 C5144 0.951 . S
H5127 C5146 0.951 . S
H5128 C5148 0.950 . S
H5129 C5149 0.950 . S
H5130 C5151 0.950 . S
H5131 C5154 0.950 . S
H5132 C5155 0.950 . S
H5133 C5157 0.950 . S
H5134 C5158 0.950 . S
H5135 C5159 0.951 . S
H5136 C5161 0.951 . S
H5137 C5163 0.950 . S
H5138 C5164 0.950 . S
H5139 C5166 0.950 . S
H5140 C5169 0.950 . S
H5141 C5170 0.950 . S
H5142 C5172 0.950 . S
H5143 C5173 0.950 . S
C5144 H5126 0.951 . S
C5144 C5145 1.366 . S
C5144 C5146 1.388 . S
C5145 C5144 1.366 . S
C5145 C5149 1.385 . S
C5146 H5127 0.951 . S
C5146 C5144 1.388 . S
C5146 C5147 1.366 . S
C5147 C5146 1.366 . S
C5147 C5148 1.414 . S
C5147 C5150 1.499 . S
C5148 H5128 0.950 . S
C5148 C5147 1.414 . S
C5148 C5149 1.374 . S
C5149 H5129 0.950 . S
C5149 C5145 1.385 . S
C5149 C5148 1.374 . S
C5150 C5147 1.499 . S
C5150 C5151 1.373 . S
C5150 C5152 1.389 . S
C5151 H5130 0.950 . S
C5151 C5150 1.373 . S
C5151 C5167 1.377 . S
C5152 C5150 1.389 . S
C5152 C5153 1.524 . S
C5152 C5166 1.377 . S
C5153 C5152 1.524 . S
C5153 C5154 1.397 . S
C5153 C5158 1.363 . S
C5154 H5131 0.950 . S
C5154 C5153 1.397 . S
C5154 C5155 1.334 . S
C5155 H5132 0.950 . S
C5155 C5154 1.334 . S
C5155 C5156 1.287 . S
C5156 C5155 1.287 . S
C5156 C5157 1.524 . S
C5156 H5175 0.913 . S
C5157 H5133 0.950 . S
C5157 C5156 1.524 . S
C5157 C5158 1.415 . S
C5158 H5134 0.950 . S
C5158 C5153 1.363 . S
C5158 C5157 1.415 . S
C5159 H5135 0.951 . S
C5159 C5160 1.366 . S
C5159 C5161 1.388 . S
C5160 C5159 1.366 . S
C5160 C5164 1.385 . S
C5161 H5136 0.951 . S
C5161 C5159 1.388 . S
C5161 C5162 1.366 . S
C5162 C5161 1.366 . S
C5162 C5163 1.414 . S
C5162 C5165 1.499 . S
C5163 H5137 0.950 . S
C5163 C5162 1.414 . S
C5163 C5164 1.374 . S
C5164 H5138 0.950 . S
C5164 C5160 1.385 . S
C5164 C5163 1.374 . S
C5165 C5162 1.499 . S
C5165 C5166 1.373 . S
C5165 C5167 1.389 . S
C5166 H5139 0.950 . S
C5166 C5152 1.377 . S
C5166 C5165 1.373 . S
C5167 C5151 1.377 . S
C5167 C5165 1.389 . S
C5167 C5168 1.524 . S
C5168 C5167 1.524 . S
C5168 C5169 1.397 . S
C5168 C5173 1.363 . S
C5169 H5140 0.950 . S
C5169 C5168 1.397 . S
C5169 C5170 1.334 . S
C5170 H5141 0.950 . S
C5170 C5169 1.334 . S
C5170 C5171 1.287 . S
C5171 C5170 1.287 . S
C5171 C5172 1.524 . S
C5171 H5174 0.999 . S
C5172 H5142 0.950 . S
C5172 C5171 1.524 . S
C5172 C5173 1.415 . S
C5173 H5143 0.950 . S
C5173 C5168 1.363 . S
C5173 C5172 1.415 . S
H5174 C5171 0.999 . S
H5175 C5156 0.913 . S
H5176 C5194 0.951 . S
H5177 C5196 0.951 . S
H5178 C5198 0.950 . S
H5179 C5199 0.950 . S
H5180 C5201 0.950 . S
H5181 C5204 0.950 . S
H5182 C5205 0.950 . S
H5183 C5207 0.950 . S
H5184 C5208 0.950 . S
H5185 C5209 0.951 . S
H5186 C5211 0.951 . S
H5187 C5213 0.950 . S
H5188 C5214 0.950 . S
H5189 C5216 0.950 . S
H5190 C5219 0.950 . S
H5191 C5220 0.950 . S
H5192 C5222 0.950 . S
H5193 C5223 0.950 . S
C5194 H5176 0.951 . S
C5194 C5195 1.366 . S
C5194 C5196 1.388 . S
C5195 C5194 1.366 . S
C5195 C5199 1.385 . S
C5196 H5177 0.951 . S
C5196 C5194 1.388 . S
C5196 C5197 1.366 . S
C5197 C5196 1.366 . S
C5197 C5198 1.414 . S
C5197 C5200 1.499 . S
C5198 H5178 0.950 . S
C5198 C5197 1.414 . S
C5198 C5199 1.374 . S
C5199 H5179 0.950 . S
C5199 C5195 1.385 . S
C5199 C5198 1.374 . S
C5200 C5197 1.499 . S
C5200 C5201 1.373 . S
C5200 C5202 1.389 . S
C5201 H5180 0.950 . S
C5201 C5200 1.373 . S
C5201 C5217 1.377 . S
C5202 C5200 1.389 . S
C5202 C5203 1.524 . S
C5202 C5216 1.377 . S
C5203 C5202 1.524 . S
C5203 C5204 1.397 . S
C5203 C5208 1.363 . S
C5204 H5181 0.950 . S
C5204 C5203 1.397 . S
C5204 C5205 1.334 . S
C5205 H5182 0.950 . S
C5205 C5204 1.334 . S
C5205 C5206 1.287 . S
C5206 C5205 1.287 . S
C5206 C5207 1.524 . S
C5206 H5225 0.913 . S
C5207 H5183 0.950 . S
C5207 C5206 1.524 . S
C5207 C5208 1.415 . S
C5208 H5184 0.950 . S
C5208 C5203 1.363 . S
C5208 C5207 1.415 . S
C5209 H5185 0.951 . S
C5209 C5210 1.366 . S
C5209 C5211 1.388 . S
C5210 C5209 1.366 . S
C5210 C5214 1.385 . S
C5211 H5186 0.951 . S
C5211 C5209 1.388 . S
C5211 C5212 1.366 . S
C5212 C5211 1.366 . S
C5212 C5213 1.414 . S
C5212 C5215 1.499 . S
C5213 H5187 0.950 . S
C5213 C5212 1.414 . S
C5213 C5214 1.374 . S
C5214 H5188 0.950 . S
C5214 C5210 1.385 . S
C5214 C5213 1.374 . S
C5215 C5212 1.499 . S
C5215 C5216 1.373 . S
C5215 C5217 1.389 . S
C5216 H5189 0.950 . S
C5216 C5202 1.377 . S
C5216 C5215 1.373 . S
C5217 C5201 1.377 . S
C5217 C5215 1.389 . S
C5217 C5218 1.524 . S
C5218 C5217 1.524 . S
C5218 C5219 1.397 . S
C5218 C5223 1.363 . S
C5219 H5190 0.950 . S
C5219 C5218 1.397 . S
C5219 C5220 1.334 . S
C5220 H5191 0.950 . S
C5220 C5219 1.334 . S
C5220 C5221 1.287 . S
C5221 C5220 1.287 . S
C5221 C5222 1.524 . S
C5221 H5224 0.999 . S
C5222 H5192 0.950 . S
C5222 C5221 1.524 . S
C5222 C5223 1.415 . S
C5223 H5193 0.950 . S
C5223 C5218 1.363 . S
C5223 C5222 1.415 . S
H5224 C5221 0.999 . S
H5225 C5206 0.913 . S
H5226 C5244 0.951 . S
H5227 C5246 0.951 . S
H5228 C5248 0.950 . S
H5229 C5249 0.950 . S
H5230 C5251 0.950 . S
H5231 C5254 0.950 . S
H5232 C5255 0.950 . S
H5233 C5257 0.950 . S
H5234 C5258 0.950 . S
H5235 C5259 0.951 . S
H5236 C5261 0.951 . S
H5237 C5263 0.950 . S
H5238 C5264 0.950 . S
H5239 C5266 0.950 . S
H5240 C5269 0.950 . S
H5241 C5270 0.950 . S
H5242 C5272 0.950 . S
H5243 C5273 0.950 . S
C5244 H5226 0.951 . S
C5244 C5245 1.366 . S
C5244 C5246 1.388 . S
C5245 C5244 1.366 . S
C5245 C5249 1.385 . S
C5246 H5227 0.951 . S
C5246 C5244 1.388 . S
C5246 C5247 1.366 . S
C5247 C5246 1.366 . S
C5247 C5248 1.414 . S
C5247 C5250 1.499 . S
C5248 H5228 0.950 . S
C5248 C5247 1.414 . S
C5248 C5249 1.374 . S
C5249 H5229 0.950 . S
C5249 C5245 1.385 . S
C5249 C5248 1.374 . S
C5250 C5247 1.499 . S
C5250 C5251 1.373 . S
C5250 C5252 1.389 . S
C5251 H5230 0.950 . S
C5251 C5250 1.373 . S
C5251 C5267 1.377 . S
C5252 C5250 1.389 . S
C5252 C5253 1.524 . S
C5252 C5266 1.377 . S
C5253 C5252 1.524 . S
C5253 C5254 1.397 . S
C5253 C5258 1.363 . S
C5254 H5231 0.950 . S
C5254 C5253 1.397 . S
C5254 C5255 1.334 . S
C5255 H5232 0.950 . S
C5255 C5254 1.334 . S
C5255 C5256 1.287 . S
C5256 C5255 1.287 . S
C5256 C5257 1.524 . S
C5256 H5275 0.913 . S
C5257 H5233 0.950 . S
C5257 C5256 1.524 . S
C5257 C5258 1.415 . S
C5258 H5234 0.950 . S
C5258 C5253 1.363 . S
C5258 C5257 1.415 . S
C5259 H5235 0.951 . S
C5259 C5260 1.366 . S
C5259 C5261 1.388 . S
C5260 C5259 1.366 . S
C5260 C5264 1.385 . S
C5261 H5236 0.951 . S
C5261 C5259 1.388 . S
C5261 C5262 1.366 . S
C5262 C5261 1.366 . S
C5262 C5263 1.414 . S
C5262 C5265 1.499 . S
C5263 H5237 0.950 . S
C5263 C5262 1.414 . S
C5263 C5264 1.374 . S
C5264 H5238 0.950 . S
C5264 C5260 1.385 . S
C5264 C5263 1.374 . S
C5265 C5262 1.499 . S
C5265 C5266 1.373 . S
C5265 C5267 1.389 . S
C5266 H5239 0.950 . S
C5266 C5252 1.377 . S
C5266 C5265 1.373 . S
C5267 C5251 1.377 . S
C5267 C5265 1.389 . S
C5267 C5268 1.524 . S
C5268 C5267 1.524 . S
C5268 C5269 1.397 . S
C5268 C5273 1.363 . S
C5269 H5240 0.950 . S
C5269 C5268 1.397 . S
C5269 C5270 1.334 . S
C5270 H5241 0.950 . S
C5270 C5269 1.334 . S
C5270 C5271 1.287 . S
C5271 C5270 1.287 . S
C5271 C5272 1.524 . S
C5271 H5274 0.999 . S
C5272 H5242 0.950 . S
C5272 C5271 1.524 . S
C5272 C5273 1.415 . S
C5273 H5243 0.950 . S
C5273 C5268 1.363 . S
C5273 C5272 1.415 . S
H5274 C5271 0.999 . S
H5275 C5256 0.913 . S
H5276 C5294 0.951 . S
H5277 C5296 0.951 . S
H5278 C5298 0.950 . S
H5279 C5299 0.950 . S
H5280 C5301 0.950 . S
H5281 C5304 0.950 . S
H5282 C5305 0.950 . S
H5283 C5307 0.950 . S
H5284 C5308 0.950 . S
H5285 C5309 0.951 . S
H5286 C5311 0.951 . S
H5287 C5313 0.950 . S
H5288 C5314 0.950 1_455 S
H5289 C5316 0.950 . S
H5290 C5319 0.950 . S
H5291 C5320 0.950 . S
H5292 C5322 0.950 . S
H5293 C5323 0.950 . S
C5294 H5276 0.951 . S
C5294 C5295 1.366 . S
C5294 C5296 1.388 . S
C5295 C5294 1.366 . S
C5295 C5299 1.385 . S
C5296 H5277 0.951 . S
C5296 C5294 1.388 . S
C5296 C5297 1.366 . S
C5297 C5296 1.366 . S
C5297 C5298 1.414 . S
C5297 C5300 1.499 . S
C5298 H5278 0.950 . S
C5298 C5297 1.414 . S
C5298 C5299 1.374 . S
C5299 H5279 0.950 . S
C5299 C5295 1.385 . S
C5299 C5298 1.374 . S
C5300 C5297 1.499 . S
C5300 C5301 1.373 . S
C5300 C5302 1.389 . S
C5301 H5280 0.950 . S
C5301 C5300 1.373 . S
C5301 C5317 1.377 . S
C5302 C5300 1.389 . S
C5302 C5303 1.524 . S
C5302 C5316 1.377 . S
C5303 C5302 1.524 . S
C5303 C5304 1.397 . S
C5303 C5308 1.363 . S
C5304 H5281 0.950 . S
C5304 C5303 1.397 . S
C5304 C5305 1.334 . S
C5305 H5282 0.950 . S
C5305 C5304 1.334 . S
C5305 C5306 1.287 . S
C5306 C5305 1.287 . S
C5306 C5307 1.524 . S
C5306 H5325 0.913 . S
C5307 H5283 0.950 . S
C5307 C5306 1.524 . S
C5307 C5308 1.415 . S
C5308 H5284 0.950 . S
C5308 C5303 1.363 . S
C5308 C5307 1.415 . S
C5309 H5285 0.951 . S
C5309 C5310 1.366 . S
C5309 C5311 1.388 . S
C5310 C5309 1.366 . S
C5310 C5314 1.385 . S
C5311 H5286 0.951 . S
C5311 C5309 1.388 . S
C5311 C5312 1.366 . S
C5312 C5311 1.366 . S
C5312 C5313 1.414 . S
C5312 C5315 1.499 . S
C5313 H5287 0.950 . S
C5313 C5312 1.414 . S
C5313 C5314 1.374 . S
C5314 H5288 0.950 1_655 S
C5314 C5310 1.385 . S
C5314 C5313 1.374 . S
C5315 C5312 1.499 . S
C5315 C5316 1.373 . S
C5315 C5317 1.389 . S
C5316 H5289 0.950 . S
C5316 C5302 1.377 . S
C5316 C5315 1.373 . S
C5317 C5301 1.377 . S
C5317 C5315 1.389 . S
C5317 C5318 1.524 . S
C5318 C5317 1.524 . S
C5318 C5319 1.397 . S
C5318 C5323 1.363 . S
C5319 H5290 0.950 . S
C5319 C5318 1.397 . S
C5319 C5320 1.334 1_655 S
C5320 H5291 0.950 . S
C5320 C5319 1.334 1_455 S
C5320 C5321 1.287 1_455 S
C5321 C5320 1.287 1_655 S
C5321 C5322 1.524 . S
C5321 H5324 0.999 . S
C5322 H5292 0.950 . S
C5322 C5321 1.524 . S
C5322 C5323 1.415 . S
C5323 H5293 0.950 . S
C5323 C5318 1.363 . S
C5323 C5322 1.415 . S
H5324 C5321 0.999 . S
H5325 C5306 0.913 . S
H5326 C5344 0.951 . S
H5327 C5346 0.951 . S
H5328 C5348 0.950 . S
H5329 C5349 0.950 . S
H5330 C5351 0.950 . S
H5331 C5354 0.950 . S
H5332 C5355 0.950 . S
H5333 C5357 0.950 . S
H5334 C5358 0.950 . S
H5335 C5359 0.951 . S
H5336 C5361 0.951 . S
H5337 C5363 0.950 . S
H5338 C5364 0.950 . S
H5339 C5366 0.950 . S
H5340 C5369 0.950 . S
H5341 C5370 0.950 . S
H5342 C5372 0.950 . S
H5343 C5373 0.950 . S
C5344 H5326 0.951 . S
C5344 C5345 1.366 . S
C5344 C5346 1.388 . S
C5345 C5344 1.366 . S
C5345 C5349 1.385 . S
C5346 H5327 0.951 . S
C5346 C5344 1.388 . S
C5346 C5347 1.366 . S
C5347 C5346 1.366 . S
C5347 C5348 1.414 . S
C5347 C5350 1.499 . S
C5348 H5328 0.950 . S
C5348 C5347 1.414 . S
C5348 C5349 1.374 . S
C5349 H5329 0.950 . S
C5349 C5345 1.385 . S
C5349 C5348 1.374 . S
C5350 C5347 1.499 . S
C5350 C5351 1.373 . S
C5350 C5352 1.389 . S
C5351 H5330 0.950 . S
C5351 C5350 1.373 . S
C5351 C5367 1.377 . S
C5352 C5350 1.389 . S
C5352 C5353 1.524 . S
C5352 C5366 1.377 . S
C5353 C5352 1.524 . S
C5353 C5354 1.397 . S
C5353 C5358 1.363 . S
C5354 H5331 0.950 . S
C5354 C5353 1.397 . S
C5354 C5355 1.334 . S
C5355 H5332 0.950 . S
C5355 C5354 1.334 . S
C5355 C5356 1.287 . S
C5356 C5355 1.287 . S
C5356 C5357 1.524 . S
C5356 H5375 0.913 . S
C5357 H5333 0.950 . S
C5357 C5356 1.524 . S
C5357 C5358 1.415 . S
C5358 H5334 0.950 . S
C5358 C5353 1.363 . S
C5358 C5357 1.415 . S
C5359 H5335 0.951 . S
C5359 C5360 1.366 . S
C5359 C5361 1.388 . S
C5360 C5359 1.366 . S
C5360 C5364 1.385 . S
C5361 H5336 0.951 . S
C5361 C5359 1.388 . S
C5361 C5362 1.366 . S
C5362 C5361 1.366 . S
C5362 C5363 1.414 . S
C5362 C5365 1.499 . S
C5363 H5337 0.950 . S
C5363 C5362 1.414 . S
C5363 C5364 1.374 . S
C5364 H5338 0.950 . S
C5364 C5360 1.385 . S
C5364 C5363 1.374 . S
C5365 C5362 1.499 . S
C5365 C5366 1.373 . S
C5365 C5367 1.389 . S
C5366 H5339 0.950 . S
C5366 C5352 1.377 . S
C5366 C5365 1.373 . S
C5367 C5351 1.377 . S
C5367 C5365 1.389 . S
C5367 C5368 1.524 . S
C5368 C5367 1.524 . S
C5368 C5369 1.397 . S
C5368 C5373 1.363 . S
C5369 H5340 0.950 . S
C5369 C5368 1.397 . S
C5369 C5370 1.334 . S
C5370 H5341 0.950 . S
C5370 C5369 1.334 . S
C5370 C5371 1.287 . S
C5371 C5370 1.287 . S
C5371 C5372 1.524 . S
C5371 H5374 0.999 . S
C5372 H5342 0.950 . S
C5372 C5371 1.524 . S
C5372 C5373 1.415 . S
C5373 H5343 0.950 . S
C5373 C5368 1.363 . S
C5373 C5372 1.415 . S
H5374 C5371 0.999 . S
H5375 C5356 0.913 . S
H5376 C5394 0.951 . S
H5377 C5396 0.951 . S
H5378 C5398 0.950 . S
H5379 C5399 0.950 . S
H5380 C5401 0.950 . S
H5381 C5404 0.950 . S
H5382 C5405 0.950 . S
H5383 C5407 0.950 . S
H5384 C5408 0.950 . S
H5385 C5409 0.951 . S
H5386 C5411 0.951 . S
H5387 C5413 0.950 . S
H5388 C5414 0.950 . S
H5389 C5416 0.950 . S
H5390 C5419 0.950 . S
H5391 C5420 0.950 . S
H5392 C5422 0.950 . S
H5393 C5423 0.950 . S
C5394 H5376 0.951 . S
C5394 C5395 1.366 . S
C5394 C5396 1.388 . S
C5395 C5394 1.366 . S
C5395 C5399 1.385 . S
C5396 H5377 0.951 . S
C5396 C5394 1.388 . S
C5396 C5397 1.366 . S
C5397 C5396 1.366 . S
C5397 C5398 1.414 . S
C5397 C5400 1.499 . S
C5398 H5378 0.950 . S
C5398 C5397 1.414 . S
C5398 C5399 1.374 . S
C5399 H5379 0.950 . S
C5399 C5395 1.385 . S
C5399 C5398 1.374 . S
C5400 C5397 1.499 . S
C5400 C5401 1.373 . S
C5400 C5402 1.389 . S
C5401 H5380 0.950 . S
C5401 C5400 1.373 . S
C5401 C5417 1.377 . S
C5402 C5400 1.389 . S
C5402 C5403 1.524 . S
C5402 C5416 1.377 . S
C5403 C5402 1.524 . S
C5403 C5404 1.397 . S
C5403 C5408 1.363 . S
C5404 H5381 0.950 . S
C5404 C5403 1.397 . S
C5404 C5405 1.334 . S
C5405 H5382 0.950 . S
C5405 C5404 1.334 . S
C5405 C5406 1.287 . S
C5406 C5405 1.287 . S
C5406 C5407 1.524 . S
C5406 H5425 0.913 . S
C5407 H5383 0.950 . S
C5407 C5406 1.524 . S
C5407 C5408 1.415 . S
C5408 H5384 0.950 . S
C5408 C5403 1.363 . S
C5408 C5407 1.415 . S
C5409 H5385 0.951 . S
C5409 C5410 1.366 . S
C5409 C5411 1.388 . S
C5410 C5409 1.366 . S
C5410 C5414 1.385 . S
C5411 H5386 0.951 . S
C5411 C5409 1.388 . S
C5411 C5412 1.366 . S
C5412 C5411 1.366 . S
C5412 C5413 1.414 . S
C5412 C5415 1.499 . S
C5413 H5387 0.950 . S
C5413 C5412 1.414 . S
C5413 C5414 1.374 . S
C5414 H5388 0.950 . S
C5414 C5410 1.385 . S
C5414 C5413 1.374 . S
C5415 C5412 1.499 . S
C5415 C5416 1.373 . S
C5415 C5417 1.389 . S
C5416 H5389 0.950 . S
C5416 C5402 1.377 . S
C5416 C5415 1.373 . S
C5417 C5401 1.377 . S
C5417 C5415 1.389 . S
C5417 C5418 1.524 . S
C5418 C5417 1.524 . S
C5418 C5419 1.397 . S
C5418 C5423 1.363 . S
C5419 H5390 0.950 . S
C5419 C5418 1.397 . S
C5419 C5420 1.334 . S
C5420 H5391 0.950 . S
C5420 C5419 1.334 . S
C5420 C5421 1.287 . S
C5421 C5420 1.287 . S
C5421 C5422 1.524 . S
C5421 H5424 0.999 . S
C5422 H5392 0.950 . S
C5422 C5421 1.524 . S
C5422 C5423 1.415 . S
C5423 H5393 0.950 . S
C5423 C5418 1.363 . S
C5423 C5422 1.415 . S
H5424 C5421 0.999 . S
H5425 C5406 0.913 . S
H5426 C5444 0.951 . S
H5427 C5446 0.951 . S
H5428 C5448 0.950 . S
H5429 C5449 0.950 . S
H5430 C5451 0.950 . S
H5431 C5454 0.950 . S
H5432 C5455 0.950 . S
H5433 C5457 0.950 . S
H5434 C5458 0.950 . S
H5435 C5459 0.951 1_545 S
H5436 C5461 0.951 . S
H5437 C5463 0.950 . S
H5438 C5464 0.950 . S
H5439 C5466 0.950 . S
H5440 C5469 0.950 . S
H5441 C5470 0.950 . S
H5442 C5472 0.950 . S
H5443 C5473 0.950 . S
C5444 H5426 0.951 . S
C5444 C5445 1.366 . S
C5444 C5446 1.388 . S
C5445 C5444 1.366 . S
C5445 C5449 1.385 . S
C5446 H5427 0.951 . S
C5446 C5444 1.388 . S
C5446 C5447 1.366 . S
C5447 C5446 1.366 . S
C5447 C5448 1.414 . S
C5447 C5450 1.499 . S
C5448 H5428 0.950 . S
C5448 C5447 1.414 . S
C5448 C5449 1.374 . S
C5449 H5429 0.950 . S
C5449 C5445 1.385 . S
C5449 C5448 1.374 . S
C5450 C5447 1.499 . S
C5450 C5451 1.373 . S
C5450 C5452 1.389 . S
C5451 H5430 0.950 . S
C5451 C5450 1.373 . S
C5451 C5467 1.377 . S
C5452 C5450 1.389 . S
C5452 C5453 1.524 . S
C5452 C5466 1.377 . S
C5453 C5452 1.524 . S
C5453 C5454 1.397 . S
C5453 C5458 1.363 . S
C5454 H5431 0.950 . S
C5454 C5453 1.397 . S
C5454 C5455 1.334 . S
C5455 H5432 0.950 . S
C5455 C5454 1.334 . S
C5455 C5456 1.287 . S
C5456 C5455 1.287 . S
C5456 C5457 1.524 . S
C5456 H5475 0.913 . S
C5457 H5433 0.950 . S
C5457 C5456 1.524 . S
C5457 C5458 1.415 . S
C5458 H5434 0.950 . S
C5458 C5453 1.363 . S
C5458 C5457 1.415 . S
C5459 H5435 0.951 1_565 S
C5459 C5460 1.374 1_565 S
C5459 C5461 1.388 . S
C5460 C5459 1.374 1_545 S
C5460 C5464 1.358 1_545 S
C5461 H5436 0.951 . S
C5461 C5459 1.388 . S
C5461 C5462 1.366 . S
C5462 C5461 1.366 . S
C5462 C5463 1.414 . S
C5462 C5465 1.499 . S
C5463 H5437 0.950 . S
C5463 C5462 1.414 . S
C5463 C5464 1.374 . S
C5464 H5438 0.950 . S
C5464 C5460 1.358 1_565 S
C5464 C5463 1.374 . S
C5465 C5462 1.499 . S
C5465 C5466 1.373 . S
C5465 C5467 1.389 . S
C5466 H5439 0.950 . S
C5466 C5452 1.377 . S
C5466 C5465 1.373 . S
C5467 C5451 1.377 . S
C5467 C5465 1.389 . S
C5467 C5468 1.524 . S
C5468 C5467 1.524 . S
C5468 C5469 1.397 . S
C5468 C5473 1.363 . S
C5469 H5440 0.950 . S
C5469 C5468 1.397 . S
C5469 C5470 1.334 . S
C5470 H5441 0.950 . S
C5470 C5469 1.334 . S
C5470 C5471 1.287 . S
C5471 C5470 1.287 . S
C5471 C5472 1.524 . S
C5471 H5474 0.999 . S
C5472 H5442 0.950 . S
C5472 C5471 1.524 . S
C5472 C5473 1.415 . S
C5473 H5443 0.950 . S
C5473 C5468 1.363 . S
C5473 C5472 1.415 . S
H5474 C5471 0.999 . S
H5475 C5456 0.913 . S
H5476 C5494 0.951 . S
H5477 C5496 0.951 . S
H5478 C5498 0.950 . S
H5479 C5499 0.950 . S
H5480 C5501 0.950 . S
H5481 C5504 0.950 . S
H5482 C5505 0.950 . S
H5483 C5507 0.950 . S
H5484 C5508 0.950 . S
H5485 C5509 0.951 . S
H5486 C5511 0.951 . S
H5487 C5513 0.950 . S
H5488 C5514 0.950 . S
H5489 C5516 0.950 . S
H5490 C5519 0.950 . S
H5491 C5520 0.950 . S
H5492 C5522 0.950 . S
H5493 C5523 0.950 . S
C5494 H5476 0.951 . S
C5494 C5495 1.366 . S
C5494 C5496 1.388 . S
C5495 C5494 1.366 . S
C5495 C5499 1.385 . S
C5496 H5477 0.951 . S
C5496 C5494 1.388 . S
C5496 C5497 1.366 . S
C5497 C5496 1.366 . S
C5497 C5498 1.414 . S
C5497 C5500 1.499 . S
C5498 H5478 0.950 . S
C5498 C5497 1.414 . S
C5498 C5499 1.374 . S
C5499 H5479 0.950 . S
C5499 C5495 1.385 . S
C5499 C5498 1.374 . S
C5500 C5497 1.499 . S
C5500 C5501 1.373 . S
C5500 C5502 1.389 . S
C5501 H5480 0.950 . S
C5501 C5500 1.373 . S
C5501 C5517 1.377 . S
C5502 C5500 1.389 . S
C5502 C5503 1.524 . S
C5502 C5516 1.377 . S
C5503 C5502 1.524 . S
C5503 C5504 1.397 . S
C5503 C5508 1.363 . S
C5504 H5481 0.950 . S
C5504 C5503 1.397 . S
C5504 C5505 1.334 . S
C5505 H5482 0.950 . S
C5505 C5504 1.334 . S
C5505 C5506 1.287 . S
C5506 C5505 1.287 . S
C5506 C5507 1.524 . S
C5506 H5525 0.913 . S
C5507 H5483 0.950 . S
C5507 C5506 1.524 . S
C5507 C5508 1.415 . S
C5508 H5484 0.950 . S
C5508 C5503 1.363 . S
C5508 C5507 1.415 . S
C5509 H5485 0.951 . S
C5509 C5510 1.366 . S
C5509 C5511 1.388 . S
C5510 C5509 1.366 . S
C5510 C5514 1.385 . S
C5511 H5486 0.951 . S
C5511 C5509 1.388 . S
C5511 C5512 1.366 . S
C5512 C5511 1.366 . S
C5512 C5513 1.414 . S
C5512 C5515 1.499 . S
C5513 H5487 0.950 . S
C5513 C5512 1.414 . S
C5513 C5514 1.374 . S
C5514 H5488 0.950 . S
C5514 C5510 1.385 . S
C5514 C5513 1.374 . S
C5515 C5512 1.499 . S
C5515 C5516 1.373 . S
C5515 C5517 1.389 . S
C5516 H5489 0.950 . S
C5516 C5502 1.377 . S
C5516 C5515 1.373 . S
C5517 C5501 1.377 . S
C5517 C5515 1.389 . S
C5517 C5518 1.524 . S
C5518 C5517 1.524 . S
C5518 C5519 1.397 . S
C5518 C5523 1.363 . S
C5519 H5490 0.950 . S
C5519 C5518 1.397 . S
C5519 C5520 1.334 . S
C5520 H5491 0.950 . S
C5520 C5519 1.334 . S
C5520 C5521 1.287 . S
C5521 C5520 1.287 . S
C5521 C5522 1.524 . S
C5521 H5524 0.999 . S
C5522 H5492 0.950 . S
C5522 C5521 1.524 . S
C5522 C5523 1.415 . S
C5523 H5493 0.950 . S
C5523 C5518 1.363 . S
C5523 C5522 1.415 . S
H5524 C5521 0.999 . S
H5525 C5506 0.913 . S
H5526 C5544 0.951 . S
H5527 C5546 0.951 . S
H5528 C5548 0.950 . S
H5529 C5549 0.950 . S
H5530 C5551 0.950 . S
H5531 C5554 0.950 . S
H5532 C5555 0.950 . S
H5533 C5557 0.950 1_556 S
H5534 C5558 0.950 . S
H5535 C5559 0.951 . S
H5536 C5561 0.951 . S
H5537 C5563 0.950 . S
H5538 C5564 0.950 . S
H5539 C5566 0.950 . S
H5540 C5569 0.950 . S
H5541 C5570 0.950 . S
H5542 C5572 0.950 . S
H5543 C5573 0.950 . S
C5544 H5526 0.951 . S
C5544 C5545 1.366 1_556 S
C5544 C5546 1.388 . S
C5545 C5544 1.366 1_554 S
C5545 C5549 1.385 . S
C5546 H5527 0.951 . S
C5546 C5544 1.388 . S
C5546 C5547 1.366 1_556 S
C5547 C5546 1.366 1_554 S
C5547 C5548 1.414 . S
C5547 C5550 1.499 . S
C5548 H5528 0.950 . S
C5548 C5547 1.414 . S
C5548 C5549 1.374 . S
C5549 H5529 0.950 . S
C5549 C5545 1.385 . S
C5549 C5548 1.374 . S
C5550 C5547 1.499 . S
C5550 C5551 1.373 . S
C5550 C5552 1.389 . S
C5551 H5530 0.950 . S
C5551 C5550 1.373 . S
C5551 C5567 1.377 . S
C5552 C5550 1.389 . S
C5552 C5553 1.524 . S
C5552 C5566 1.377 . S
C5553 C5552 1.524 . S
C5553 C5554 1.397 . S
C5553 C5558 1.363 1_554 S
C5554 H5531 0.950 . S
C5554 C5553 1.397 . S
C5554 C5555 1.334 . S
C5555 H5532 0.950 . S
C5555 C5554 1.334 . S
C5555 C5556 1.287 . S
C5556 C5555 1.287 . S
C5556 C5557 1.524 . S
C5556 H5575 0.913 . S
C5557 H5533 0.950 1_554 S
C5557 C5556 1.524 . S
C5557 C5558 1.415 1_554 S
C5558 H5534 0.950 . S
C5558 C5553 1.363 1_556 S
C5558 C5557 1.415 1_556 S
C5559 H5535 0.951 . S
C5559 C5560 1.366 . S
C5559 C5561 1.388 . S
C5560 C5559 1.366 . S
C5560 C5564 1.385 1_554 S
C5561 H5536 0.951 . S
C5561 C5559 1.388 . S
C5561 C5562 1.366 . S
C5562 C5561 1.366 . S
C5562 C5563 1.414 1_554 S
C5562 C5565 1.499 . S
C5563 H5537 0.950 . S
C5563 C5562 1.414 1_556 S
C5563 C5564 1.374 . S
C5564 H5538 0.950 . S
C5564 C5560 1.385 1_556 S
C5564 C5563 1.374 . S
C5565 C5562 1.499 . S
C5565 C5566 1.373 . S
C5565 C5567 1.389 . S
C5566 H5539 0.950 . S
C5566 C5552 1.377 . S
C5566 C5565 1.373 . S
C5567 C5551 1.377 . S
C5567 C5565 1.389 . S
C5567 C5568 1.524 . S
C5568 C5567 1.524 . S
C5568 C5569 1.397 1_554 S
C5568 C5573 1.363 . S
C5569 H5540 0.950 . S
C5569 C5568 1.397 1_556 S
C5569 C5570 1.334 . S
C5570 H5541 0.950 . S
C5570 C5569 1.334 . S
C5570 C5571 1.287 . S
C5571 C5570 1.287 . S
C5571 C5572 1.524 1_556 S
C5571 H5574 0.999 1_545 S
C5572 H5542 0.950 . S
C5572 C5571 1.524 1_554 S
C5572 C5573 1.415 . S
C5573 H5543 0.950 . S
C5573 C5568 1.363 . S
C5573 C5572 1.415 . S
H5574 C5571 0.999 1_565 S
H5575 C5556 0.913 . S
H5576 C5594 0.951 . S
H5577 C5596 0.951 . S
H5578 C5598 0.950 . S
H5579 C5599 0.950 . S
H5580 C5601 0.950 . S
H5581 C5604 0.950 . S
H5582 C5605 0.950 . S
H5583 C5607 0.950 . S
H5584 C5608 0.950 . S
H5585 C5609 0.951 . S
H5586 C5611 0.951 . S
H5587 C5613 0.950 . S
H5588 C5614 0.950 . S
H5589 C5616 0.950 . S
H5590 C5619 0.950 . S
H5591 C5620 0.950 . S
H5592 C5622 0.950 . S
H5593 C5623 0.950 . S
C5594 H5576 0.951 . S
C5594 C5595 1.366 . S
C5594 C5596 1.388 . S
C5595 C5594 1.366 . S
C5595 C5599 1.385 . S
C5596 H5577 0.951 . S
C5596 C5594 1.388 . S
C5596 C5597 1.366 . S
C5597 C5596 1.366 . S
C5597 C5598 1.414 . S
C5597 C5600 1.499 . S
C5598 H5578 0.950 . S
C5598 C5597 1.414 . S
C5598 C5599 1.374 . S
C5599 H5579 0.950 . S
C5599 C5595 1.385 . S
C5599 C5598 1.374 . S
C5600 C5597 1.499 . S
C5600 C5601 1.373 . S
C5600 C5602 1.389 . S
C5601 H5580 0.950 . S
C5601 C5600 1.373 . S
C5601 C5617 1.377 . S
C5602 C5600 1.389 . S
C5602 C5603 1.524 . S
C5602 C5616 1.377 . S
C5603 C5602 1.524 . S
C5603 C5604 1.397 . S
C5603 C5608 1.363 . S
C5604 H5581 0.950 . S
C5604 C5603 1.397 . S
C5604 C5605 1.334 . S
C5605 H5582 0.950 . S
C5605 C5604 1.334 . S
C5605 C5606 1.287 . S
C5606 C5605 1.287 . S
C5606 C5607 1.524 . S
C5606 H5625 0.913 . S
C5607 H5583 0.950 . S
C5607 C5606 1.524 . S
C5607 C5608 1.415 . S
C5608 H5584 0.950 . S
C5608 C5603 1.363 . S
C5608 C5607 1.415 . S
C5609 H5585 0.951 . S
C5609 C5610 1.366 . S
C5609 C5611 1.388 . S
C5610 C5609 1.366 . S
C5610 C5614 1.385 . S
C5611 H5586 0.951 . S
C5611 C5609 1.388 . S
C5611 C5612 1.366 . S
C5612 C5611 1.366 . S
C5612 C5613 1.414 . S
C5612 C5615 1.499 . S
C5613 H5587 0.950 . S
C5613 C5612 1.414 . S
C5613 C5614 1.374 . S
C5614 H5588 0.950 . S
C5614 C5610 1.385 . S
C5614 C5613 1.374 . S
C5615 C5612 1.499 . S
C5615 C5616 1.373 . S
C5615 C5617 1.389 . S
C5616 H5589 0.950 . S
C5616 C5602 1.377 . S
C5616 C5615 1.373 . S
C5617 C5601 1.377 . S
C5617 C5615 1.389 . S
C5617 C5618 1.524 . S
C5618 C5617 1.524 . S
C5618 C5619 1.397 . S
C5618 C5623 1.363 . S
C5619 H5590 0.950 . S
C5619 C5618 1.397 . S
C5619 C5620 1.334 . S
C5620 H5591 0.950 . S
C5620 C5619 1.334 . S
C5620 C5621 1.287 . S
C5621 C5620 1.287 . S
C5621 C5622 1.524 . S
C5621 H5624 0.999 . S
C5622 H5592 0.950 . S
C5622 C5621 1.524 . S
C5622 C5623 1.415 . S
C5623 H5593 0.950 . S
C5623 C5618 1.363 . S
C5623 C5622 1.415 . S
H5624 C5621 0.999 . S
H5625 C5606 0.913 . S
H5626 C5644 0.951 . S
H5627 C5646 0.951 . S
H5628 C5648 0.950 . S
H5629 C5649 0.950 . S
H5630 C5651 0.950 . S
H5631 C5654 0.950 . S
H5632 C5655 0.950 . S
H5633 C5657 0.950 . S
H5634 C5658 0.950 . S
H5635 C5659 0.951 . S
H5636 C5661 0.951 . S
H5637 C5663 0.950 . S
H5638 C5664 0.950 . S
H5639 C5666 0.950 . S
H5640 C5669 0.950 . S
H5641 C5670 0.950 . S
H5642 C5672 0.950 . S
H5643 C5673 0.950 . S
C5644 H5626 0.951 . S
C5644 C5645 1.366 . S
C5644 C5646 1.388 . S
C5645 C5644 1.366 . S
C5645 C5649 1.385 1_554 S
C5646 H5627 0.951 . S
C5646 C5644 1.388 . S
C5646 C5647 1.366 . S
C5647 C5646 1.366 . S
C5647 C5648 1.414 1_554 S
C5647 C5650 1.499 . S
C5648 H5628 0.950 . S
C5648 C5647 1.414 1_556 S
C5648 C5649 1.374 . S
C5649 H5629 0.950 . S
C5649 C5645 1.385 1_556 S
C5649 C5648 1.374 . S
C5650 C5647 1.499 . S
C5650 C5651 1.373 1_554 S
C5650 C5652 1.389 . S
C5651 H5630 0.950 . S
C5651 C5650 1.373 1_556 S
C5651 C5667 1.377 . S
C5652 C5650 1.389 . S
C5652 C5653 1.524 . S
C5652 C5666 1.377 . S
C5653 C5652 1.524 . S
C5653 C5654 1.397 . S
C5653 C5658 1.363 . S
C5654 H5631 0.950 . S
C5654 C5653 1.397 . S
C5654 C5655 1.334 . S
C5655 H5632 0.950 . S
C5655 C5654 1.334 . S
C5655 C5656 1.287 . S
C5656 C5655 1.287 . S
C5656 C5657 1.524 . S
C5656 H5675 0.913 . S
C5657 H5633 0.950 . S
C5657 C5656 1.524 . S
C5657 C5658 1.415 . S
C5658 H5634 0.950 . S
C5658 C5653 1.363 . S
C5658 C5657 1.415 . S
C5659 H5635 0.951 . S
C5659 C5660 1.366 . S
C5659 C5661 1.388 . S
C5660 C5659 1.366 . S
C5660 C5664 1.385 1_556 S
C5661 H5636 0.951 . S
C5661 C5659 1.388 . S
C5661 C5662 1.366 . S
C5662 C5661 1.366 . S
C5662 C5663 1.414 1_556 S
C5662 C5665 1.499 . S
C5663 H5637 0.950 . S
C5663 C5662 1.414 1_554 S
C5663 C5664 1.374 . S
C5664 H5638 0.950 . S
C5664 C5660 1.385 1_554 S
C5664 C5663 1.374 . S
C5665 C5662 1.499 . S
C5665 C5666 1.373 1_556 S
C5665 C5667 1.389 . S
C5666 H5639 0.950 . S
C5666 C5652 1.377 . S
C5666 C5665 1.373 1_554 S
C5667 C5651 1.377 . S
C5667 C5665 1.389 . S
C5667 C5668 1.524 . S
C5668 C5667 1.524 . S
C5668 C5669 1.397 . S
C5668 C5673 1.363 . S
C5669 H5640 0.950 . S
C5669 C5668 1.397 . S
C5669 C5670 1.334 . S
C5670 H5641 0.950 . S
C5670 C5669 1.334 . S
C5670 C5671 1.287 . S
C5671 C5670 1.287 . S
C5671 C5672 1.524 . S
C5671 H5674 0.999 . S
C5672 H5642 0.950 . S
C5672 C5671 1.524 . S
C5672 C5673 1.415 . S
C5673 H5643 0.950 . S
C5673 C5668 1.363 . S
C5673 C5672 1.415 . S
H5674 C5671 0.999 . S
H5675 C5656 0.913 . S
H5676 C5694 0.951 . S
H5677 C5696 0.951 . S
H5678 C5698 0.950 . S
H5679 C5699 0.950 . S
H5680 C5701 0.950 . S
H5681 C5704 0.950 . S
H5682 C5705 0.950 . S
H5683 C5707 0.950 . S
H5684 C5708 0.950 . S
H5685 C5709 0.951 . S
H5686 C5711 0.951 . S
H5687 C5713 0.950 . S
H5688 C5714 0.950 . S
H5689 C5716 0.950 . S
H5690 C5719 0.950 . S
H5691 C5720 0.950 . S
H5692 C5722 0.950 . S
H5693 C5723 0.950 . S
C5694 H5676 0.951 . S
C5694 C5695 1.366 . S
C5694 C5696 1.388 . S
C5695 C5694 1.366 . S
C5695 C5699 1.385 . S
C5696 H5677 0.951 . S
C5696 C5694 1.388 . S
C5696 C5697 1.366 . S
C5697 C5696 1.366 . S
C5697 C5698 1.414 . S
C5697 C5700 1.499 . S
C5698 H5678 0.950 . S
C5698 C5697 1.414 . S
C5698 C5699 1.374 . S
C5699 H5679 0.950 . S
C5699 C5695 1.385 . S
C5699 C5698 1.374 . S
C5700 C5697 1.499 . S
C5700 C5701 1.373 . S
C5700 C5702 1.389 . S
C5701 H5680 0.950 . S
C5701 C5700 1.373 . S
C5701 C5717 1.377 . S
C5702 C5700 1.389 . S
C5702 C5703 1.524 . S
C5702 C5716 1.377 . S
C5703 C5702 1.524 . S
C5703 C5704 1.397 . S
C5703 C5708 1.363 . S
C5704 H5681 0.950 . S
C5704 C5703 1.397 . S
C5704 C5705 1.334 . S
C5705 H5682 0.950 . S
C5705 C5704 1.334 . S
C5705 C5706 1.287 . S
C5706 C5705 1.287 . S
C5706 C5707 1.524 . S
C5706 H5725 0.913 . S
C5707 H5683 0.950 . S
C5707 C5706 1.524 . S
C5707 C5708 1.415 . S
C5708 H5684 0.950 . S
C5708 C5703 1.363 . S
C5708 C5707 1.415 . S
C5709 H5685 0.951 . S
C5709 C5710 1.366 . S
C5709 C5711 1.388 . S
C5710 C5709 1.366 . S
C5710 C5714 1.385 . S
C5711 H5686 0.951 . S
C5711 C5709 1.388 . S
C5711 C5712 1.366 . S
C5712 C5711 1.366 . S
C5712 C5713 1.414 . S
C5712 C5715 1.499 . S
C5713 H5687 0.950 . S
C5713 C5712 1.414 . S
C5713 C5714 1.374 . S
C5714 H5688 0.950 . S
C5714 C5710 1.385 . S
C5714 C5713 1.374 . S
C5715 C5712 1.499 . S
C5715 C5716 1.373 . S
C5715 C5717 1.389 . S
C5716 H5689 0.950 . S
C5716 C5702 1.377 . S
C5716 C5715 1.373 . S
C5717 C5701 1.377 . S
C5717 C5715 1.389 . S
C5717 C5718 1.524 . S
C5718 C5717 1.524 . S
C5718 C5719 1.397 . S
C5718 C5723 1.363 . S
C5719 H5690 0.950 . S
C5719 C5718 1.397 . S
C5719 C5720 1.334 . S
C5720 H5691 0.950 . S
C5720 C5719 1.334 . S
C5720 C5721 1.287 . S
C5721 C5720 1.287 . S
C5721 C5722 1.524 . S
C5721 H5724 0.999 . S
C5722 H5692 0.950 . S
C5722 C5721 1.524 . S
C5722 C5723 1.415 . S
C5723 H5693 0.950 . S
C5723 C5718 1.363 . S
C5723 C5722 1.415 . S
H5724 C5721 0.999 . S
H5725 C5706 0.913 . S
H5726 C5744 0.951 . S
H5727 C5746 0.951 . S
H5728 C5748 0.950 . S
H5729 C5749 0.950 . S
H5730 C5751 0.950 . S
H5731 C5754 0.950 . S
H5732 C5755 0.950 . S
H5733 C5757 0.950 . S
H5734 C5758 0.950 . S
H5735 C5759 0.951 . S
H5736 C5761 0.951 . S
H5737 C5763 0.950 . S
H5738 C5764 0.950 . S
H5739 C5766 0.950 . S
H5740 C5769 0.950 . S
H5741 C5770 0.950 . S
H5742 C5772 0.950 . S
H5743 C5773 0.950 . S
C5744 H5726 0.951 . S
C5744 C5745 1.366 . S
C5744 C5746 1.388 . S
C5745 C5744 1.366 . S
C5745 C5749 1.385 . S
C5746 H5727 0.951 . S
C5746 C5744 1.388 . S
C5746 C5747 1.366 . S
C5747 C5746 1.366 . S
C5747 C5748 1.414 . S
C5747 C5750 1.499 . S
C5748 H5728 0.950 . S
C5748 C5747 1.414 . S
C5748 C5749 1.374 . S
C5749 H5729 0.950 . S
C5749 C5745 1.385 . S
C5749 C5748 1.374 . S
C5750 C5747 1.499 . S
C5750 C5751 1.373 . S
C5750 C5752 1.389 . S
C5751 H5730 0.950 . S
C5751 C5750 1.373 . S
C5751 C5767 1.377 . S
C5752 C5750 1.389 . S
C5752 C5753 1.524 . S
C5752 C5766 1.377 . S
C5753 C5752 1.524 . S
C5753 C5754 1.397 . S
C5753 C5758 1.363 . S
C5754 H5731 0.950 . S
C5754 C5753 1.397 . S
C5754 C5755 1.334 . S
C5755 H5732 0.950 . S
C5755 C5754 1.334 . S
C5755 C5756 1.287 . S
C5756 C5755 1.287 . S
C5756 C5757 1.524 . S
C5756 H5775 0.913 . S
C5757 H5733 0.950 . S
C5757 C5756 1.524 . S
C5757 C5758 1.415 . S
C5758 H5734 0.950 . S
C5758 C5753 1.363 . S
C5758 C5757 1.415 . S
C5759 H5735 0.951 . S
C5759 C5760 1.366 . S
C5759 C5761 1.388 . S
C5760 C5759 1.366 . S
C5760 C5764 1.385 . S
C5761 H5736 0.951 . S
C5761 C5759 1.388 . S
C5761 C5762 1.366 . S
C5762 C5761 1.366 . S
C5762 C5763 1.414 . S
C5762 C5765 1.499 . S
C5763 H5737 0.950 . S
C5763 C5762 1.414 . S
C5763 C5764 1.374 . S
C5764 H5738 0.950 . S
C5764 C5760 1.385 . S
C5764 C5763 1.374 . S
C5765 C5762 1.499 . S
C5765 C5766 1.373 . S
C5765 C5767 1.389 . S
C5766 H5739 0.950 . S
C5766 C5752 1.377 . S
C5766 C5765 1.373 . S
C5767 C5751 1.377 . S
C5767 C5765 1.389 . S
C5767 C5768 1.524 . S
C5768 C5767 1.524 . S
C5768 C5769 1.397 . S
C5768 C5773 1.363 . S
C5769 H5740 0.950 . S
C5769 C5768 1.397 . S
C5769 C5770 1.334 . S
C5770 H5741 0.950 . S
C5770 C5769 1.334 . S
C5770 C5771 1.287 . S
C5771 C5770 1.287 . S
C5771 C5772 1.524 . S
C5771 H5774 0.999 . S
C5772 H5742 0.950 . S
C5772 C5771 1.524 . S
C5772 C5773 1.415 . S
C5773 H5743 0.950 . S
C5773 C5768 1.363 . S
C5773 C5772 1.415 . S
H5774 C5771 0.999 . S
H5775 C5756 0.913 . S
C995 C109 2.181 . S
C1010 C346 2.131 1_556 S
C1045 C65 2.067 . S
C1060 C394 2.058 . S
C1095 C75 1.043 . S
C1110 C426 1.018 . S
C1160 C471 1.413 . S
C1145 C84 1.415 . S
C1195 C25 1.187 . S
C1210 C511 1.173 . S
C1260 C542 0.285 . S
C1245 C28 0.266 . S
C1310 C594 1.190 . S
C1295 C47 1.178 . S
C1345 C9 1.741 . S
C1360 C626 1.673 . S
C1410 C354 2.513 . S
C1395 C233 2.531 . S
C1445 C249 0.296 . S
C1460 C391 0.370 . S
C1510 C434 1.367 . S
C1495 C275 1.380 . S
C1560 C466 1.154 . S
C1545 C173 1.177 . S
C1595 C224 1.801 . S
C1610 C506 1.790 . S
C1660 C545 1.449 . S
C1645 C243 1.476 . S
C1710 C591 0.283 . S
C1695 C266 0.188 . S
C1760 C634 1.930 . S
C1745 C179 1.946 . S
C1810 C351 1.438 1_565 S
C1795 C163 1.477 . S
C1845 C289 1.979 . S
C1860 C674 1.971 . S
C1910 C715 2.531 . S
C1895 C333 2.585 . S
C1960 C746 0.494 1_655 S
C1945 C308 0.477 . S
C1995 C123 1.339 . S
C2010 C631 1.325 . S
C2045 C126 1.548 . S
C2060 C431 1.550 . S
C2095 C327 2.332 . S
C2110 C794 2.309 . S
C2160 C826 0.559 . S
C2145 C299 0.504 . S
C2210 C355 2.144 . S
C2195 C67 2.201 . S
C2260 C825 2.098 . S
C2245 C98 2.069 . S
C2295 C89 1.082 . S
C2310 C435 1.056 . S
C2345 C79 1.475 . S
C2360 C782 1.461 . S
C2410 C502 1.172 . S
C2395 C11 1.193 . S
C2445 C51 0.266 . S
C2460 C711 0.303 . S
C2510 C585 1.267 1_556 S
C2495 C33 1.255 . S
C2560 C875 1.664 . S
C2545 C14 1.748 . S
C2610 C345 2.499 . S
C2595 C140 2.508 . S
C2660 C822 0.358 . S
C2645 C319 0.263 . S
C2695 C112 1.397 . S
C2710 C425 1.391 . S
C2745 C285 1.208 . S
C2760 C795 1.186 . S
C2795 C149 1.858 . S
C2810 C515 1.820 . S
C2860 C714 1.489 . S
C2845 C313 1.517 . S
C2895 C121 0.129 . S
C2910 C582 0.269 . S
C2945 C291 1.987 . S
C2960 C865 1.965 . S
C2995 C182 1.485 . S
C3010 C342 1.452 . S
C3045 C168 1.983 . S
C3060 C665 1.998 . S
C3095 C263 2.641 . S
C3110 C546 2.587 . S
C3145 C247 0.553 . S
C3160 C755 0.568 . S
C3210 C862 1.307 . S
C3195 C277 1.329 . S
C3245 C219 1.595 . S
C3260 C422 1.570 . S
C3310 C465 2.358 . S
C3295 C257 2.383 . S
C3360 C395 0.559 . S
C3345 C201 0.513 . S
C3395 C81 2.181 . S
C3410 C906 2.131 . S
C3460 C834 2.058 . S
C3445 C93 2.067 . S
C3495 C103 1.043 . S
C3510 C946 1.013 . S
C3545 C56 1.414 . S
C3560 C791 1.413 . S
C3595 C53 1.188 . S
C3610 C671 1.173 . S
C3660 C702 0.286 . S
C3645 C0 0.267 . S
C3710 C754 1.190 . S
C3695 C19 1.176 . S
C3760 C866 1.673 . S
C3745 C37 1.741 . S
C3810 C914 2.513 . S
C3795 C261 2.530 . S
C3845 C193 0.299 . S
C3860 C831 0.372 . S
C3910 C954 1.367 . S
C3895 C205 1.380 . S
C3960 C786 1.154 . S
C3945 C215 1.178 . S
C4010 C666 1.790 . S
C3995 C252 1.800 . S
C4045 C187 1.476 . S
C4060 C705 1.450 . S
C4110 C751 0.282 . S
C4095 C196 0.188 . S
C4145 C221 1.946 . S
C4160 C874 1.930 . S
C4210 C911 1.461 . S
C4195 C317 1.477 . S
C4245 C135 1.981 . S
C4260 C514 1.971 . S
C4310 C555 2.531 . S
C4295 C151 2.586 . S
C4360 C586 0.498 . S
C4345 C154 0.478 . S
C4410 C871 1.324 . S
C4395 C305 1.337 . S
C4445 C280 1.548 . S
C4460 C951 1.550 . S
C4510 C474 2.308 . S
C4495 C145 2.332 . S
C4560 C386 0.559 . S
C4545 C117 0.504 . S
C4595 C95 2.201 . S
C4610 C915 2.144 . S
C4660 C385 2.098 . S
C4645 C70 2.069 . S
C4695 C61 1.082 . S
C4710 C955 1.056 . S
C4745 C107 1.475 . S
C4760 C462 1.461 . S
C4795 C39 1.193 . S
C4810 C662 1.172 . S
C4860 C551 0.300 . S
C4845 C23 0.260 . S
C4895 C5 1.254 . S
C4910 C745 1.264 . S
C4945 C42 1.740 . S
C4960 C635 1.664 . S
C5010 C905 2.499 . S
C4995 C322 2.507 . S
C5045 C165 0.265 . S
C5060 C382 0.362 . S
C5110 C945 1.391 . S
C5095 C294 1.397 . S
C5145 C131 1.208 . S
C5160 C475 1.185 . S
C5195 C331 1.859 . S
C5210 C675 1.820 . S
C5260 C554 1.489 . S
C5245 C159 1.517 . S
C5295 C303 0.131 . S
C5310 C742 0.270 . S
C5360 C625 1.966 . S
C5345 C137 1.987 . S
C5410 C902 1.452 . S
C5395 C238 1.484 . S
C5460 C505 2.019 1_655 S
C5445 C210 1.983 . S
C5495 C235 2.641 . S
C5510 C706 2.587 . S
C5560 C595 0.567 . S
C5545 C191 0.553 . S
C5595 C207 1.329 . S
C5610 C622 1.307 . S
C5645 C177 1.595 . S
C5660 C942 1.570 . S
C5710 C785 2.358 . S
C5695 C229 2.383 1_565 S
C5760 C835 0.561 . S
C5745 C271 0.513 . S
