# Generated by pormake.
# Topology myd, (4,6)-cn, num edge types: 1
# Building blocks:
#     Node 0, Type 0, BuildingBlock: NAWXER_clean_sbu_0, # of connection points: 4
#     Node 1, Type 0, BuildingBlock: NAWXER_clean_sbu_0, # of connection points: 4
#     Node 2, Type 0, BuildingBlock: NAWXER_clean_sbu_0, # of connection points: 4
#     Node 3, Type 0, BuildingBlock: NAWXER_clean_sbu_0, # of connection points: 4
#     Node 4, Type 0, BuildingBlock: NAWXER_clean_sbu_0, # of connection points: 4
#     Node 5, Type 0, BuildingBlock: NAWXER_clean_sbu_0, # of connection points: 4
#     Node 6, Type 0, BuildingBlock: NAWXER_clean_sbu_0, # of connection points: 4
#     Node 7, Type 0, BuildingBlock: NAWXER_clean_sbu_0, # of connection points: 4
#     Node 8, Type 0, BuildingBlock: NAWXER_clean_sbu_0, # of connection points: 4
#     Node 9, Type 0, BuildingBlock: NAWXER_clean_sbu_0, # of connection points: 4
#     Node 10, Type 0, BuildingBlock: NAWXER_clean_sbu_0, # of connection points: 4
#     Node 11, Type 0, BuildingBlock: NAWXER_clean_sbu_0, # of connection points: 4
#     Node 12, Type 1, BuildingBlock: JUFBIX_clean_sbu_0, # of connection points: 6
#     Node 13, Type 1, BuildingBlock: JUFBIX_clean_sbu_0, # of connection points: 6
#     Node 14, Type 1, BuildingBlock: JUFBIX_clean_sbu_0, # of connection points: 6
#     Node 15, Type 1, BuildingBlock: JUFBIX_clean_sbu_0, # of connection points: 6
#     Node 16, Type 1, BuildingBlock: JUFBIX_clean_sbu_0, # of connection points: 6
#     Node 17, Type 1, BuildingBlock: JUFBIX_clean_sbu_0, # of connection points: 6
#     Node 18, Type 1, BuildingBlock: JUFBIX_clean_sbu_0, # of connection points: 6
#     Node 19, Type 1, BuildingBlock: JUFBIX_clean_sbu_0, # of connection points: 6
#     Edge 20, Type (0, 1), BuildingBlock: XIVTED_clean_linker_0, # of connection points: 2
#     Edge 21, Type (0, 1), BuildingBlock: XIVTED_clean_linker_0, # of connection points: 2
#     Edge 22, Type (0, 1), BuildingBlock: XIVTED_clean_linker_0, # of connection points: 2
#     Edge 23, Type (0, 1), BuildingBlock: XIVTED_clean_linker_0, # of connection points: 2
#     Edge 24, Type (0, 1), BuildingBlock: XIVTED_clean_linker_0, # of connection points: 2
#     Edge 25, Type (0, 1), BuildingBlock: XIVTED_clean_linker_0, # of connection points: 2
#     Edge 26, Type (0, 1), BuildingBlock: XIVTED_clean_linker_0, # of connection points: 2
#     Edge 27, Type (0, 1), BuildingBlock: XIVTED_clean_linker_0, # of connection points: 2
#     Edge 28, Type (0, 1), BuildingBlock: XIVTED_clean_linker_0, # of connection points: 2
#     Edge 29, Type (0, 1), BuildingBlock: XIVTED_clean_linker_0, # of connection points: 2
#     Edge 30, Type (0, 1), BuildingBlock: XIVTED_clean_linker_0, # of connection points: 2
#     Edge 31, Type (0, 1), BuildingBlock: XIVTED_clean_linker_0, # of connection points: 2
#     Edge 32, Type (0, 1), BuildingBlock: XIVTED_clean_linker_0, # of connection points: 2
#     Edge 33, Type (0, 1), BuildingBlock: XIVTED_clean_linker_0, # of connection points: 2
#     Edge 34, Type (0, 1), BuildingBlock: XIVTED_clean_linker_0, # of connection points: 2
#     Edge 35, Type (0, 1), BuildingBlock: XIVTED_clean_linker_0, # of connection points: 2
#     Edge 36, Type (0, 1), BuildingBlock: XIVTED_clean_linker_0, # of connection points: 2
#     Edge 37, Type (0, 1), BuildingBlock: XIVTED_clean_linker_0, # of connection points: 2
#     Edge 38, Type (0, 1), BuildingBlock: XIVTED_clean_linker_0, # of connection points: 2
#     Edge 39, Type (0, 1), BuildingBlock: XIVTED_clean_linker_0, # of connection points: 2
#     Edge 40, Type (0, 1), BuildingBlock: XIVTED_clean_linker_0, # of connection points: 2
#     Edge 41, Type (0, 1), BuildingBlock: XIVTED_clean_linker_0, # of connection points: 2
#     Edge 42, Type (0, 1), BuildingBlock: XIVTED_clean_linker_0, # of connection points: 2
#     Edge 43, Type (0, 1), BuildingBlock: XIVTED_clean_linker_0, # of connection points: 2
#     Edge 44, Type (0, 1), BuildingBlock: XIVTED_clean_linker_0, # of connection points: 2
#     Edge 45, Type (0, 1), BuildingBlock: XIVTED_clean_linker_0, # of connection points: 2
#     Edge 46, Type (0, 1), BuildingBlock: XIVTED_clean_linker_0, # of connection points: 2
#     Edge 47, Type (0, 1), BuildingBlock: XIVTED_clean_linker_0, # of connection points: 2
#     Edge 48, Type (0, 1), BuildingBlock: XIVTED_clean_linker_0, # of connection points: 2
#     Edge 49, Type (0, 1), BuildingBlock: XIVTED_clean_linker_0, # of connection points: 2
#     Edge 50, Type (0, 1), BuildingBlock: XIVTED_clean_linker_0, # of connection points: 2
#     Edge 51, Type (0, 1), BuildingBlock: XIVTED_clean_linker_0, # of connection points: 2
#     Edge 52, Type (0, 1), BuildingBlock: XIVTED_clean_linker_0, # of connection points: 2
#     Edge 53, Type (0, 1), BuildingBlock: XIVTED_clean_linker_0, # of connection points: 2
#     Edge 54, Type (0, 1), BuildingBlock: XIVTED_clean_linker_0, # of connection points: 2
#     Edge 55, Type (0, 1), BuildingBlock: XIVTED_clean_linker_0, # of connection points: 2
#     Edge 56, Type (0, 1), BuildingBlock: XIVTED_clean_linker_0, # of connection points: 2
#     Edge 57, Type (0, 1), BuildingBlock: XIVTED_clean_linker_0, # of connection points: 2
#     Edge 58, Type (0, 1), BuildingBlock: XIVTED_clean_linker_0, # of connection points: 2
#     Edge 59, Type (0, 1), BuildingBlock: XIVTED_clean_linker_0, # of connection points: 2
#     Edge 60, Type (0, 1), BuildingBlock: XIVTED_clean_linker_0, # of connection points: 2
#     Edge 61, Type (0, 1), BuildingBlock: XIVTED_clean_linker_0, # of connection points: 2
#     Edge 62, Type (0, 1), BuildingBlock: XIVTED_clean_linker_0, # of connection points: 2
#     Edge 63, Type (0, 1), BuildingBlock: XIVTED_clean_linker_0, # of connection points: 2
#     Edge 64, Type (0, 1), BuildingBlock: XIVTED_clean_linker_0, # of connection points: 2
#     Edge 65, Type (0, 1), BuildingBlock: XIVTED_clean_linker_0, # of connection points: 2
#     Edge 66, Type (0, 1), BuildingBlock: XIVTED_clean_linker_0, # of connection points: 2
#     Edge 67, Type (0, 1), BuildingBlock: XIVTED_clean_linker_0, # of connection points: 2
# Relax obj value: 0.265
# Max RMSD: 0.230
# Mean RMSD: 0.144
data_MOF--net-myd--node1-NAWXER_clean_sbu_0--node2-JUFBIX_clean_sbu_0--edge1-XIVTED_clean_linker_0
_symmetry_space_group_name_H-M    P1
_symmetry_Int_Tables_number       1
_symmetry_cell_setting            triclinic
loop_
_symmetry_equiv_pos_as_xyz
'x, y, z'
_cell_length_a     44.655078
_cell_length_b     47.47505
_cell_length_c     46.749442
_cell_angle_alpha  90.262377
_cell_angle_beta   87.559662
_cell_angle_gamma 91.175133
loop_
_atom_site_label
_atom_site_type_symbol
_atom_site_fract_x
_atom_site_fract_y
_atom_site_fract_z
_atom_type_partial_charge
C0 C 0.0334 0.19074 0.28557 0.0
C1 C 0.02982 0.2601 0.36365 0.0
O2 O 0.05516 0.20581 0.29418 0.0
Zn3 Zn 0.03375 0.22319 0.32668 0.0
O4 O 1.00776 0.19196 0.29877 0.0
Zn5 Zn 0.98701 0.2136 0.33415 0.0
O6 O 0.95663 0.23439 0.31472 0.0
O7 O 1.00335 0.24914 0.30524 0.0
O8 O 1.0049 0.24667 0.36055 0.0
O9 O 0.05317 0.25231 0.34944 0.0
O10 O 0.02435 0.18819 0.35478 0.0
O11 O 0.97518 0.18288 0.35948 0.0
C12 C 0.97515 0.25164 0.30242 0.0
C13 C 1.00118 0.17468 0.3651 0.0
C14 C 0.05962 0.73618 0.21982 0.0
C15 C 0.04014 0.67627 0.13735 0.0
O16 O 0.07991 0.7259 0.20313 0.0
Zn17 Zn 0.05176 0.70775 0.17754 0.0
O18 O 0.03191 0.73265 0.21454 0.0
Zn19 Zn 1.00421 0.71279 0.18433 0.0
O20 O 0.98142 0.68714 0.20988 0.0
O21 O 0.02973 0.67809 0.20665 0.0
O22 O 0.01636 0.6861 0.14958 0.0
O23 O 0.06567 0.68345 0.14638 0.0
O24 O 0.03437 0.74412 0.15748 0.0
O25 O 0.98564 0.74494 0.16701 0.0
C26 C 1.00336 0.67252 0.21737 0.0
C27 C 0.00917 0.75623 0.15535 0.0
C28 C 0.35002 0.00604 0.19722 0.0
C29 C 0.27717 0.97772 0.27349 0.0
O30 O 0.34193 0.98104 0.20411 0.0
Zn31 Zn 0.3137 0.99045 0.23507 0.0
O32 O 0.33949 0.02688 0.21179 0.0
Zn33 Zn 0.30836 0.03396 0.24736 0.0
O34 O 0.33237 0.0496 0.27816 0.0
O35 O 0.34138 1.00492 0.26858 0.0
O36 O 0.28239 1.00426 0.2719 0.0
O37 O 0.28965 0.96121 0.25528 0.0
O38 O 0.28053 0.01208 0.21272 0.0
O39 O 0.27674 0.0553 0.23001 0.0
C40 C 0.34606 0.0271 0.28364 0.0
C41 C 0.26834 0.03623 0.21269 0.0
C42 C 0.73943 0.47386 0.23751 0.0
C43 C 0.66532 0.47908 0.31944 0.0
O44 O 0.72938 0.45289 0.25224 0.0
Zn45 Zn 0.7028 0.4741 0.27909 0.0
O46 O 0.73077 0.49863 0.2443 0.0
Zn47 Zn 0.70142 0.51942 0.2742 0.0
O48 O 0.7291 0.54306 0.29555 0.0
O49 O 0.73408 0.4976 0.30309 0.0
O50 O 0.6724 0.50261 0.3074 0.0
O51 O 0.67756 0.4566 0.31021 0.0
O52 O 0.67116 0.48877 0.24989 0.0
O53 O 0.67363 0.53524 0.24801 0.0
C54 C 0.74205 0.52317 0.308 0.0
C55 C 0.66241 0.51196 0.23944 0.0
C56 C 0.21759 0.38506 0.01224 0.0
C57 C 0.29919 0.31976 0.99202 0.0
O58 O 0.2284 0.37777 0.9878 0.0
Zn59 Zn 0.26162 0.35562 1.00029 0.0
O60 O 0.23128 0.37829 0.03471 0.0
Zn61 Zn 0.2693 0.35439 0.04533 0.0
O62 O 0.30026 0.37979 0.05978 0.0
O63 O 0.29631 0.38362 0.01317 0.0
O64 O 0.29567 0.32673 0.01844 0.0
O65 O 0.28439 0.33205 0.97315 0.0
O66 O 0.23915 0.32248 0.02423 0.0
O67 O 0.24987 0.32561 0.07001 0.0
C68 C 0.30959 0.3904 0.03604 0.0
C69 C 0.23668 0.31296 0.04983 0.0
C70 C 0.22812 0.72568 0.48448 0.0
C71 C 0.30499 0.65232 0.48811 0.0
O72 O 0.24274 0.71539 0.46302 0.0
Zn73 Zn 0.26536 0.68753 0.48396 0.0
O74 O 0.23192 0.71572 0.50945 0.0
Zn75 Zn 0.25711 0.6843 0.52967 0.0
O76 O 0.2807 0.70785 0.55547 0.0
O77 O 0.29239 0.71407 0.50954 0.0
O78 O 0.29142 0.65749 0.51223 0.0
O79 O 0.29694 0.66474 0.46567 0.0
O80 O 0.23117 0.6576 0.49662 0.0
O81 O 0.2255 0.65828 0.54373 0.0
C82 C 0.29675 0.72003 0.53579 0.0
C83 C 0.21772 0.6486 0.51965 0.0
C84 C 0.72092 0.89055 0.52164 0.0
C85 C 0.79489 0.8183 0.49993 0.0
O86 O 0.73123 0.88321 0.497 0.0
Zn87 Zn 0.76119 0.85748 0.50933 0.0
O88 O 0.73355 0.88178 0.54402 0.0
Zn89 Zn 0.7687 0.85343 0.55414 0.0
O90 O 0.80171 0.87548 0.56977 0.0
O91 O 0.79771 0.88253 0.52356 0.0
O92 O 0.79181 0.82438 0.52659 0.0
O93 O 0.78147 0.83267 0.48165 0.0
O94 O 0.73303 0.82767 0.53264 0.0
O95 O 0.74591 0.8261 0.57785 0.0
C96 C 0.81142 0.88717 0.5467 0.0
C97 C 0.72924 0.81763 0.55795 0.0
C98 C 0.4656 0.75009 0.80782 0.0
C99 C 0.50819 0.67468 0.86229 0.0
O100 O 0.45105 0.73201 0.82319 0.0
Zn101 Zn 0.48642 0.71358 0.83629 0.0
O102 O 0.49426 0.74967 0.80555 0.0
Zn103 Zn 0.53034 0.72584 0.82141 0.0
O104 O 0.54745 0.71102 0.78602 0.0
O105 O 0.50238 0.69327 0.79721 0.0
O106 O 0.5284 0.68884 0.84791 0.0
O107 O 0.48127 0.68283 0.86309 0.0
O108 O 0.50634 0.74775 0.85964 0.0
O109 O 0.5521 0.75548 0.84157 0.0
C110 C 0.52581 0.69436 0.78033 0.0
C111 C 0.53092 0.76223 0.85914 0.0
C112 C 0.50923 0.18301 0.72845 0.0
C113 C 0.50846 0.26128 0.66033 0.0
O114 O 0.48875 0.20093 0.7257 0.0
Zn115 Zn 0.50701 0.22095 0.69333 0.0
O116 O 0.53267 0.18395 0.71158 0.0
Zn117 Zn 0.55032 0.20956 0.67626 0.0
O118 O 0.58665 0.22559 0.69229 0.0
O119 O 0.54419 0.24062 0.7127 0.0
O120 O 0.53239 0.24683 0.65777 0.0
O121 O 0.4873 0.25301 0.67754 0.0
O122 O 0.5064 0.18988 0.66071 0.0
O123 O 0.55279 0.18241 0.64494 0.0
C124 C 0.57284 0.24089 0.71075 0.0
C125 C 0.52488 0.17674 0.64405 0.0
C126 C 0.76806 0.53773 0.71165 0.0
C127 C 0.8475 0.53872 0.78198 0.0
O128 O 0.77681 0.55895 0.72608 0.0
Zn129 Zn 0.80939 0.54067 0.74531 0.0
O130 O 0.78147 0.5143 0.71388 0.0
Zn131 Zn 0.81771 0.49704 0.73605 0.0
O132 O 0.79672 0.46753 0.75849 0.0
O133 O 0.78557 0.51089 0.772 0.0
O134 O 0.84466 0.51535 0.76843 0.0
O135 O 0.83205 0.55971 0.77508 0.0
O136 O 0.84096 0.5337 0.7104 0.0
O137 O 0.84615 0.48788 0.70494 0.0
C138 C 0.78275 0.48424 0.77552 0.0
C139 C 0.85275 0.51287 0.69682 0.0
C140 C 0.24069 0.97138 0.74163 0.0
C141 C 0.16849 0.98129 0.82411 0.0
O142 O 0.23049 0.95157 0.75784 0.0
Zn143 Zn 0.20543 0.97477 0.78378 0.0
O144 O 0.23317 0.99678 0.74726 0.0
Zn145 Zn 0.20517 0.0195 0.77728 0.0
O146 O 0.23365 0.0435 0.79693 0.0
O147 O 0.23805 0.99837 0.80647 0.0
O148 O 0.17593 1.00446 0.81147 0.0
O149 O 0.18023 0.95845 0.81531 0.0
O150 O 0.17381 0.98925 0.75415 0.0
O151 O 0.17769 0.03562 0.75126 0.0
C152 C 0.24659 0.02404 0.81 0.0
C153 C 0.16576 0.01249 0.74321 0.0
C154 C 0.71951 0.14784 0.02649 0.0
C155 C 0.79597 0.22226 0.03894 0.0
O156 O 0.72708 0.15873 0.05011 0.0
Zn157 Zn 0.75779 0.1849 0.03466 0.0
O158 O 0.73247 0.15629 1.00301 0.0
Zn159 Zn 0.76555 0.18655 0.98877 0.0
O160 O 0.7975 0.16393 0.97108 0.0
O161 O 0.79255 0.15824 0.01792 0.0
O162 O 0.79171 0.21503 0.013 0.0
O163 O 0.78072 0.21019 0.05923 0.0
O164 O 0.73155 0.21474 0.01337 0.0
O165 O 0.74195 0.2128 0.9669 0.0
C166 C 0.80595 0.15244 0.99387 0.0
C167 C 0.72731 0.2236 0.98806 0.0
Co168 Co 0.04054 0.03364 0.06552 0.0
C169 C 0.03846 0.08049 0.10205 0.0
Co170 Co 0.0613 0.07248 0.04704 0.0
C171 C 0.02866 0.97435 0.08119 0.0
C172 C 0.99395 1.00234 0.09504 0.0
N173 N 0.021 1.00181 0.08113 0.0
N174 N 1.00726 0.95779 0.09449 0.0
C175 C 0.98551 0.97553 0.10325 0.0
H176 H 0.0493 0.96667 0.07132 0.0
H177 H 0.98107 0.02113 0.09894 0.0
C178 C 0.06515 0.02659 0.01015 0.0
N179 N 0.07986 0.10445 0.03195 0.0
C180 C 0.09751 0.12308 0.04563 0.0
C181 C 0.0791 0.11411 1.00492 0.0
N182 N 0.10795 0.14387 0.02817 0.0
C183 C 0.09651 0.1383 1.00249 0.0
C184 C 0.09976 0.0403 0.07883 0.0
O185 O 0.05201 0.01292 0.03071 0.0
O186 O 0.07097 0.05263 0.01333 0.0
O187 O 0.09807 0.06178 0.06285 0.0
O188 O 0.07697 0.02396 0.0825 0.0
O189 O 0.05178 0.09233 0.08075 0.0
H190 H 0.06683 0.10411 0.98805 0.0
H191 H 0.10318 0.12104 0.0678 0.0
O192 O 0.03014 0.05477 0.09992 0.0
O193 O 1.00379 0.04427 0.0489 0.0
O194 O 0.02444 0.08319 0.03165 0.0
C195 C 1.00147 0.06713 0.03514 0.0
H196 H 0.96504 0.96971 0.11518 0.0
H197 H 0.10037 0.15087 0.98338 0.0
Co198 Co 0.95289 0.43897 0.08815 0.0
C199 C 0.96899 0.49337 0.07012 0.0
Co200 Co 0.94234 0.44838 0.04331 0.0
C201 C 0.96099 0.40778 0.13984 0.0
C202 C 0.95873 0.45208 0.14789 0.0
N203 N 0.95951 0.43286 0.12653 0.0
N204 N 0.96053 0.41051 0.16858 0.0
C205 C 0.95949 0.43841 0.17375 0.0
H206 H 0.9614 0.38775 0.12872 0.0
H207 H 0.95602 0.47446 0.14502 0.0
C208 C 0.92632 0.3938 0.06148 0.0
N209 N 0.93576 0.45379 1.00434 0.0
C210 C 0.92602 0.47578 0.98897 0.0
C211 C 0.94349 0.43425 0.98448 0.0
N212 N 0.92788 0.47054 0.96038 0.0
C213 C 0.93872 0.44437 0.95773 0.0
C214 C 1.00064 0.42792 0.0518 0.0
O215 O 0.93621 0.40223 0.08508 0.0
O216 O 0.92791 0.41032 0.04014 0.0
O217 O 0.98314 0.43701 0.03319 0.0
O218 O 0.99106 0.42587 0.07768 0.0
O219 O 0.9567 0.48633 0.04701 0.0
H220 H 0.95282 0.414 0.98911 0.0
H221 H 0.91882 0.4955 0.99841 0.0
O222 O 0.96946 0.47581 0.09053 0.0
O223 O 0.91487 0.45194 0.09886 0.0
O224 O 0.90185 0.45948 0.05471 0.0
C225 C 0.89532 0.45906 0.0816 0.0
H226 H 0.95766 0.44816 0.19471 0.0
H227 H 0.94308 0.43332 0.93771 0.0
Co228 Co 0.08032 0.94643 0.47313 0.0
C229 C 0.11643 0.94279 0.4229 0.0
Co230 Co 0.05816 0.92701 0.43651 0.0
C231 C 0.09415 0.96433 0.53113 0.0
C232 C 0.11785 0.98795 0.49816 0.0
N233 N 0.09874 0.96584 0.50239 0.0
N234 N 0.10944 0.98486 0.54484 0.0
C235 C 0.12451 0.99957 0.52408 0.0
H236 H 0.07895 0.94925 0.54167 0.0
H237 H 0.12567 0.99585 0.47745 0.0
C238 C 0.02093 0.93022 0.48537 0.0
N239 N 0.04043 0.90856 0.40675 0.0
C240 C 0.05401 0.8898 0.3891 0.0
C241 C 0.0119 0.90933 0.39849 0.0
N242 N 0.03515 0.87864 0.37026 0.0
C243 C 1.00851 0.89071 0.37608 0.0
C244 C 0.09014 0.88973 0.47035 0.0
O245 O 0.04364 0.94166 0.49672 0.0
O246 O 0.02334 0.92151 0.45971 0.0
O247 O 0.07386 0.892 0.44881 0.0
O248 O 0.09482 0.91135 0.48589 0.0
O249 O 0.09259 0.93257 0.41314 0.0
H250 H 0.99461 0.92217 0.40844 0.0
H251 H 0.07708 0.88364 0.39071 0.0
O252 O 0.11639 0.95077 0.44892 0.0
O253 O 0.06631 0.98142 0.45997 0.0
O254 O 0.04314 0.96219 0.4242 0.0
C255 C 0.05032 0.98406 0.43837 0.0
H256 H 0.13917 0.01764 0.52734 0.0
H257 H 0.9881 0.88624 0.36508 0.0
Co258 Co 0.9639 0.58284 0.45461 0.0
C259 C 0.02177 0.56641 0.46834 0.0
Co260 Co 0.9731 0.5374 0.44841 0.0
C261 C 0.93465 0.636 0.46377 0.0
C262 C 0.98008 0.64127 0.44794 0.0
N263 N 0.9596 0.62152 0.4567 0.0
N264 N 0.93861 0.66395 0.45936 0.0
C265 C 0.96723 0.66736 0.4495 0.0
H266 H 0.91357 0.62607 0.47075 0.0
H267 H 1.0026 0.63687 0.43996 0.0
C268 C 0.9154 0.55445 0.43428 0.0
N269 N 0.97587 0.49791 0.44655 0.0
C270 C 0.99309 0.4794 0.43124 0.0
C271 C 0.95556 0.48144 0.46117 0.0
N272 N 0.98385 0.4523 0.43593 0.0
C273 C 0.96047 0.4538 0.45492 0.0
C274 C 0.95003 0.55428 0.50366 0.0
O275 O 0.92462 0.57879 0.44147 0.0
O276 O 0.93256 0.53363 0.43681 0.0
O277 O 0.96004 0.53425 0.48812 0.0
O278 O 0.94921 0.5788 0.49302 0.0
O279 O 0.01379 0.54192 0.45979 0.0
H280 H 0.93726 0.48902 0.47479 0.0
H281 H 0.01093 0.48565 0.41605 0.0
O282 O 1.0034 0.5865 0.46766 0.0
O283 O 0.97802 0.58674 0.4161 0.0
O284 O 0.98568 0.54159 0.40883 0.0
C285 C 0.98543 0.56672 0.39934 0.0
H286 H 0.97801 0.68723 0.44354 0.0
H287 H 0.94721 0.43603 0.46316 0.0
Co288 Co 0.4531 0.9314 0.59365 0.0
C289 C 0.46041 0.98793 0.57758 0.0
Co290 Co 0.44294 0.94071 0.5487 0.0
C291 C 0.44436 0.90653 0.6488 0.0
C292 C 0.48136 0.93591 0.6481 0.0
N293 N 0.4597 0.92516 0.63181 0.0
N294 N 0.45581 0.90469 0.67493 0.0
C295 C 0.47903 0.92334 0.67466 0.0
H296 H 0.42549 0.89404 0.6418 0.0
H297 H 0.49839 0.95106 0.64079 0.0
C298 C 0.43433 0.88413 0.56517 0.0
N299 N 0.43669 0.94526 0.50956 0.0
C300 C 0.42173 0.96374 0.49354 0.0
C301 C 0.44898 0.9272 0.4903 0.0
N302 N 0.42424 0.95745 0.46515 0.0
C303 C 0.4416 0.93459 0.46336 0.0
C304 C 0.5034 0.92779 0.55835 0.0
O305 O 0.44439 0.89243 0.58877 0.0
O306 O 0.43256 0.9017 0.54496 0.0
O307 O 0.48486 0.93337 0.53931 0.0
O308 O 0.49389 0.92565 0.58421 0.0
O309 O 0.45311 0.9794 0.55294 0.0
H310 H 0.46265 0.90954 0.4955 0.0
H311 H 0.40904 0.98109 0.5025 0.0
O312 O 0.46118 0.97054 0.59818 0.0
O313 O 0.41283 0.93706 0.60321 0.0
O314 O 0.40111 0.9482 0.55949 0.0
C315 C 0.39341 0.94421 0.58586 0.0
H316 H 0.49425 0.92663 0.69183 0.0
H317 H 0.44891 0.92398 0.44383 0.0
Co318 Co 0.54063 0.53604 0.5612 0.0
C319 C 0.53587 0.58328 0.59711 0.0
Co320 Co 0.56048 0.57523 0.54272 0.0
C321 C 0.52965 0.4767 0.57758 0.0
C322 C 0.4942 0.50436 0.59023 0.0
N323 N 0.52147 0.50399 0.57674 0.0
N324 N 0.50836 0.46009 0.591 0.0
C325 C 0.48615 0.47765 0.59899 0.0
H326 H 0.55065 0.4692 0.56832 0.0
H327 H 0.48096 0.52301 0.5936 0.0
C328 C 0.56661 0.52913 0.5063 0.0
N329 N 0.57861 0.60764 0.5281 0.0
C330 C 0.59497 0.62662 0.54268 0.0
C331 C 0.57673 0.61863 0.50173 0.0
N332 N 0.60308 0.64923 0.52664 0.0
C333 C 0.59171 0.64428 0.50078 0.0
C334 C 0.59926 0.54431 0.57584 0.0
O335 O 0.55273 0.51553 0.52651 0.0
O336 O 0.57234 0.55522 0.50958 0.0
O337 O 0.59673 0.56603 0.56037 0.0
O338 O 0.5773 0.5268 0.57835 0.0
O339 O 0.54867 0.59524 0.57563 0.0
H340 H 0.56466 0.60894 0.48455 0.0
H341 H 0.5998 0.62437 0.56504 0.0
O342 O 0.52943 0.55708 0.59561 0.0
O343 O 0.5037 0.54611 0.54424 0.0
O344 O 0.52403 0.58458 0.52569 0.0
C345 C 0.50121 0.56843 0.52961 0.0
H346 H 0.46566 0.47182 0.61088 0.0
H347 H 0.59384 0.65827 0.48256 0.0
Co348 Co 0.5811 0.44466 0.96823 0.0
C349 C 0.62192 0.44021 0.92143 0.0
Co350 Co 0.5629 0.42406 0.93009 0.0
C351 C 0.59104 0.46281 0.02743 0.0
C352 C 0.61443 0.48776 0.9953 0.0
N353 N 0.59651 0.46469 0.99879 0.0
N354 N 0.60468 0.48404 0.04172 0.0
C355 C 0.61952 0.49957 0.02146 0.0
H356 H 0.57653 0.44685 0.03746 0.0
H357 H 0.62261 0.49607 0.97486 0.0
C358 C 0.52116 0.42811 0.97561 0.0
N359 N 0.54862 0.40528 0.89864 0.0
C360 C 0.56357 0.38532 0.88359 0.0
C361 C 0.52427 0.4104 0.88353 0.0
N362 N 0.54991 0.37804 0.85946 0.0
C363 C 0.52509 0.39372 0.85927 0.0
C364 C 0.59111 0.38768 0.96726 0.0
O365 O 0.54302 0.43885 0.98893 0.0
O366 O 0.52549 0.41994 0.94986 0.0
O367 O 0.57583 0.38928 0.945 0.0
O368 O 0.59558 0.40985 0.98211 0.0
O369 O 0.59974 0.42819 0.91036 0.0
H370 H 0.50771 0.426 0.88918 0.0
H371 H 0.58505 0.37743 0.88939 0.0
O372 O 0.61889 0.4501 0.9467 0.0
O373 O 0.56689 0.47921 0.95404 0.0
O374 O 0.5508 0.45923 0.91511 0.0
C375 C 0.55464 0.48125 0.93017 0.0
H376 H 0.63314 0.51823 0.02525 0.0
H377 H 0.50903 0.39351 0.84256 0.0
Co378 Co 0.46813 0.08266 0.96053 0.0
C379 C 0.52434 0.06525 0.97784 0.0
Co380 Co 0.4783 0.03794 0.95162 0.0
C381 C 0.43829 0.13578 0.9682 0.0
C382 C 0.48551 0.14103 0.95952 0.0
N383 N 0.4638 0.12123 0.96438 0.0
N384 N 0.44317 0.16382 0.96543 0.0
C385 C 0.47289 0.16722 0.96009 0.0
H386 H 0.41634 0.12592 0.97146 0.0
H387 H 0.50884 0.13664 0.95462 0.0
C388 C 0.42216 0.05549 0.93409 0.0
N389 N 0.48136 0.99856 0.94769 0.0
C390 C 0.49916 0.98071 0.93212 0.0
C391 C 0.46036 0.98148 0.96057 0.0
N392 N 0.48961 0.95345 0.93501 0.0
C393 C 0.46547 0.95418 0.95316 0.0
C394 C 0.44997 0.05159 1.00615 0.0
O395 O 0.43057 0.07963 0.94278 0.0
O396 O 0.43919 0.03472 0.93709 0.0
O397 O 0.46206 0.03261 0.99047 0.0
O398 O 0.44914 0.07652 0.99663 0.0
O399 O 0.51771 0.04174 0.96612 0.0
H400 H 0.44141 0.98841 0.97374 0.0
H401 H 0.51771 0.9876 0.91803 0.0
O402 O 0.50562 0.08511 0.97802 0.0
O403 O 0.48704 0.08894 0.9247 0.0
O404 O 0.49431 0.04471 0.91295 0.0
C405 C 0.49625 0.07083 0.90656 0.0
H406 H 0.48458 0.18716 0.95642 0.0
H407 H 0.45187 0.93614 0.96013 0.0
H408 H 0.96174 0.12982 0.37091 0.0
H409 H 0.0736 0.03458 0.45544 0.0
H410 H 0.05014 0.15816 0.39333 0.0
H411 H 1.00622 0.99851 0.40194 0.0
H412 H 0.0595 0.08158 0.44069 0.0
H413 H 0.97192 0.08323 0.39049 0.0
C414 C 0.98306 0.12642 0.38043 0.0
C415 C 1.00516 0.1479 0.38049 0.0
C416 C 0.04774 0.06339 0.43224 0.0
C417 C 0.01687 0.09477 0.40279 0.0
C418 C 0.0557 0.03653 0.44068 0.0
C419 C 0.04116 0.01252 0.42979 0.0
C420 C 0.02473 0.06644 0.41306 0.0
C421 C 0.01816 0.01643 0.4107 0.0
C422 C 0.98892 0.09977 0.39132 0.0
C423 C 0.03251 0.1422 0.39278 0.0
N424 N 0.01057 0.04291 0.40298 0.0
N425 N 0.03757 0.11622 0.40344 0.0
H426 H 0.07186 0.30392 0.3621 0.0
H427 H 0.94807 0.41051 0.41769 0.0
H428 H 0.98528 0.27942 0.39958 0.0
H429 H 0.0411 0.43499 0.42309 0.0
H430 H 0.96282 0.36363 0.40252 0.0
H431 H 0.06343 0.35255 0.37899 0.0
C432 C 0.05146 0.30853 0.37445 0.0
C433 C 0.02912 0.2875 0.37921 0.0
C434 C 0.98016 0.37914 0.40697 0.0
C435 C 0.01911 0.34301 0.39767 0.0
C436 C 0.97173 0.40598 0.4155 0.0
C437 C 0.99337 0.42653 0.42214 0.0
C438 C 0.01061 0.37246 0.40476 0.0
C439 C 0.02376 0.41968 0.41821 0.0
C440 C 0.04661 0.33632 0.38385 0.0
C441 C 1.00305 0.29483 0.3951 0.0
N442 N 0.03158 0.39304 0.40989 0.0
N443 N 0.99864 0.32191 0.40333 0.0
H444 H 0.0563 0.78703 0.13148 0.0
H445 H 0.95873 0.92282 0.10285 0.0
H446 H 0.96062 0.79008 0.14834 0.0
H447 H 0.05543 0.92345 0.0966 0.0
H448 H 0.95873 0.87288 0.11449 0.0
H449 H 0.05589 0.83517 0.11344 0.0
C450 C 0.0351 0.79768 0.13114 0.0
C451 C 1.00843 0.78439 0.14162 0.0
C452 C 0.97997 0.88388 0.1105 0.0
C453 C 1.00792 0.83985 0.121 0.0
C454 C 0.98003 0.91254 0.10398 0.0
C455 C 1.00717 0.92766 0.09911 0.0
C456 C 1.00724 0.86995 0.11217 0.0
C457 C 0.03397 0.91277 0.10012 0.0
C458 C 0.03495 0.82527 0.12089 0.0
C459 C 0.98173 0.7994 0.14057 0.0
N460 N 0.03333 0.88481 0.10671 0.0
N461 N 0.98219 0.82633 0.1306 0.0
H462 H 0.9949 0.66822 0.10076 0.0
H463 H 0.01559 0.50614 0.10346 0.0
H464 H 0.07665 0.63145 0.12742 0.0
H465 H 0.95707 0.54332 0.04367 0.0
H466 H 0.03901 0.55223 0.1111 0.0
H467 H 0.98186 0.62399 0.07687 0.0
C468 C 0.01051 0.65105 0.10086 0.0
C469 C 0.03673 0.65332 0.11632 0.0
C470 C 0.02133 0.55032 0.09601 0.0
C471 C 0.02155 0.60254 0.08981 0.0
C472 C 1.00773 0.52407 0.09186 0.0
C473 C 0.98408 0.52106 0.07322 0.0
C474 C 0.01075 0.57395 0.08196 0.0
C475 C 0.97512 0.54486 0.05838 0.0
C476 C 1.00303 0.62582 0.08727 0.0
C477 C 0.05621 0.63054 0.11577 0.0
N478 N 0.98811 0.5705 0.06349 0.0
N479 N 0.04786 0.60581 0.10335 0.0
H480 H 0.37347 0.9679 0.15812 0.0
H481 H 0.42783 0.08805 0.0469 0.0
H482 H 0.36937 0.05708 0.17595 0.0
H483 H 0.44321 0.99966 0.0317 0.0
H484 H 0.40655 0.07664 0.09444 0.0
H485 H 0.39987 0.97856 0.11227 0.0
C486 C 0.3784 0.98968 0.15259 0.0
C487 C 0.36903 0.01161 0.17094 0.0
C488 C 0.41466 0.05971 0.08079 0.0
C489 C 0.39892 0.02395 0.11834 0.0
C490 C 0.42675 0.06622 0.05355 0.0
C491 C 0.43727 0.04479 0.03519 0.0
C492 C 0.41281 0.03151 0.08983 0.0
C493 C 0.43536 0.01687 0.04511 0.0
C494 C 0.3934 0.99575 0.12636 0.0
C495 C 0.37601 0.03944 0.16254 0.0
N496 N 0.42324 0.01102 0.07169 0.0
N497 N 0.3903 0.04478 0.13685 0.0
H498 H 0.62989 0.4667 0.22085 0.0
H499 H 0.60934 0.53498 0.06773 0.0
H500 H 0.6515 0.55358 0.20067 0.0
H501 H 0.59833 0.44616 0.08518 0.0
H502 H 0.61506 0.54386 0.11862 0.0
H503 H 0.60796 0.46104 0.17426 0.0
C504 C 0.62952 0.48479 0.20684 0.0
C505 C 0.64302 0.51057 0.21453 0.0
C506 C 0.61111 0.52245 0.11141 0.0
C507 C 0.61819 0.50404 0.16088 0.0
C508 C 0.60802 0.51731 0.0823 0.0
C509 C 0.60402 0.48967 0.07207 0.0
C510 C 0.61029 0.49979 0.13059 0.0
C511 C 0.60153 0.46775 0.09209 0.0
C512 C 0.61706 0.48147 0.18016 0.0
C513 C 0.64153 0.53329 0.1956 0.0
N514 N 0.60511 0.47323 0.12037 0.0
N515 N 0.62978 0.52937 0.16945 0.0
H516 H 0.38986 0.98977 0.29186 0.0
H517 H 0.40909 0.01292 0.45919 0.0
H518 H 0.3415 0.05647 0.33498 0.0
H519 H 0.40986 0.93279 0.41528 0.0
H520 H 0.39281 0.03517 0.41473 0.0
H521 H 0.40966 0.97605 0.33729 0.0
C522 C 0.38388 1.00195 0.31084 0.0
C523 C 0.36374 0.02413 0.3096 0.0
C524 C 0.39663 0.01272 0.41509 0.0
C525 C 0.38599 0.00806 0.36212 0.0
C526 C 0.4057 1.00001 0.44042 0.0
C527 C 0.41154 0.97099 0.44088 0.0
C528 C 0.39385 0.99627 0.3902 0.0
C529 C 0.40671 0.9553 0.41588 0.0
C530 C 0.39501 0.99394 0.33686 0.0
C531 C 0.35701 0.03925 0.33498 0.0
N532 N 0.39854 0.96813 0.39169 0.0
N533 N 0.36782 0.03071 0.36041 0.0
H534 H 0.6199 0.51507 0.32918 0.0
H535 H 0.58662 0.47507 0.49427 0.0
H536 H 0.66282 0.44498 0.36764 0.0
H537 H 0.56669 0.55393 0.45461 0.0
H538 H 0.60636 0.45771 0.44726 0.0
H539 H 0.59097 0.52267 0.37361 0.0
C540 C 0.62295 0.50099 0.34695 0.0
C541 C 0.64406 0.47955 0.34474 0.0
C542 C 0.59732 0.47867 0.44894 0.0
C543 C 0.61121 0.48857 0.39639 0.0
C544 C 0.58594 0.48849 0.47565 0.0
C545 C 0.57523 0.51605 0.47834 0.0
C546 C 0.59736 0.49642 0.42487 0.0
C547 C 0.57501 0.53266 0.45362 0.0
C548 C 0.60646 0.50542 0.37245 0.0
C549 C 0.64676 0.46177 0.36846 0.0
N550 N 0.58589 0.52264 0.42814 0.0
N551 N 0.63084 0.46693 0.39353 0.0
H552 H 0.17639 0.39388 0.97086 0.0
H553 H 0.04391 0.41472 0.08848 0.0
H554 H 0.18885 0.40286 0.06154 0.0
H555 H 0.03065 0.42819 0.99866 0.0
H556 H 0.0969 0.40796 0.07765 0.0
H557 H 0.12339 0.40573 0.97911 0.0
C558 C 0.1682 0.39883 0.9924 0.0
C559 C 0.18718 0.39716 0.01557 0.0
C560 C 0.08253 0.41242 0.06021 0.0
C561 C 0.12648 0.41015 0.02515 0.0
C562 C 0.05208 0.4161 0.06636 0.0
C563 C 0.03262 0.422 0.04445 0.0
C564 C 0.09395 0.41437 0.03184 0.0
C565 C 0.04479 0.42362 0.01623 0.0
C566 C 0.13789 0.40544 0.99709 0.0
C567 C 0.17517 0.40367 0.043 0.0
N568 N 0.0747 0.41973 0.0107 0.0
N569 N 0.14566 0.40954 0.04701 0.0
H570 H 0.16913 0.64218 0.55718 0.0
H571 H 0.07578 0.54236 0.45272 0.0
H572 H 0.20594 0.61187 0.47624 0.0
H573 H 0.03572 0.60388 0.50984 0.0
H574 H 0.12558 0.55699 0.46905 0.0
H575 H 0.122 0.6168 0.54814 0.0
C576 C 0.16755 0.62967 0.53785 0.0
C577 C 0.19137 0.62935 0.51731 0.0
C578 C 0.10576 0.56696 0.4782 0.0
C579 C 0.13766 0.60031 0.50687 0.0
C580 C 0.07744 0.55857 0.46898 0.0
C581 C 0.05171 0.57217 0.47973 0.0
C582 C 0.10814 0.58857 0.49873 0.0
C583 C 0.05505 0.59311 0.50074 0.0
C584 C 0.14061 0.61536 0.53261 0.0
C585 C 0.188 0.61291 0.49251 0.0
N586 N 0.08269 0.60067 0.50953 0.0
N587 N 0.1616 0.59916 0.4879 0.0
H588 H 0.83019 0.92596 0.507 0.0
H589 H 1.00414 0.92104 0.54263 0.0
H590 H 0.85973 0.88241 0.58116 0.0
H591 H 0.96887 0.93855 0.46026 0.0
H592 H 0.95208 0.91669 0.56292 0.0
H593 H 0.88148 0.94231 0.4965 0.0
C594 C 0.84742 0.92029 0.52143 0.0
C595 C 0.84069 0.9025 0.54478 0.0
C596 C 0.95594 0.92176 0.5405 0.0
C597 C 0.89991 0.92063 0.53244 0.0
C598 C 0.98552 0.92429 0.52898 0.0
C599 C 0.99072 0.92973 0.49967 0.0
C600 C 0.93173 0.92542 0.5226 0.0
C601 C 0.96591 0.93384 0.48287 0.0
C602 C 0.87679 0.92949 0.51533 0.0
C603 C 0.86397 0.89605 0.56289 0.0
N604 N 0.93768 0.93158 0.49452 0.0
N605 N 0.89273 0.9047 0.55606 0.0
H606 H 0.3551 0.65497 0.45175 0.0
H607 H 0.44573 0.5454 0.54373 0.0
H608 H 0.31688 0.61005 0.52496 0.0
H609 H 0.48922 0.61004 0.49127 0.0
H610 H 0.39702 0.56182 0.52931 0.0
H611 H 0.40286 0.63132 0.45812 0.0
C612 C 0.35652 0.63965 0.46871 0.0
C613 C 0.33198 0.63453 0.4879 0.0
C614 C 0.41724 0.57226 0.52076 0.0
C615 C 0.38649 0.60757 0.4954 0.0
C616 C 0.4451 0.56283 0.52891 0.0
C617 C 0.47168 0.57647 0.51888 0.0
C618 C 0.41583 0.59534 0.50218 0.0
C619 C 0.46934 0.599 0.49972 0.0
C620 C 0.38385 0.62637 0.47251 0.0
C621 C 0.33524 0.61474 0.50974 0.0
N622 N 0.44194 0.60777 0.49206 0.0
N623 N 0.36194 0.60209 0.51294 0.0
H624 H 0.48118 0.64769 0.90872 0.0
H625 H 0.55333 0.49989 0.87495 0.0
H626 H 0.55118 0.63864 0.84303 0.0
H627 H 0.53645 0.52621 0.96249 0.0
H628 H 0.54222 0.54777 0.85914 0.0
H629 H 0.49166 0.60004 0.92582 0.0
C630 C 0.49884 0.63576 0.89806 0.0
C631 C 0.51555 0.64717 0.87463 0.0
C632 C 0.54084 0.54291 0.88178 0.0
C633 C 0.52679 0.59267 0.89332 0.0
C634 C 0.54695 0.51565 0.89077 0.0
C635 C 0.54587 0.50921 0.92004 0.0
C636 C 0.53282 0.56354 0.90217 0.0
C637 C 0.53768 0.53043 0.93972 0.0
C638 C 0.50475 0.60868 0.90777 0.0
C639 C 0.53805 0.63077 0.86141 0.0
N640 N 0.53123 0.55664 0.93043 0.0
N641 N 0.54276 0.6042 0.87069 0.0
H642 H 0.49138 0.77971 0.90102 0.0
H643 H 0.54738 0.93791 0.92141 0.0
H644 H 0.57122 0.80725 0.85288 0.0
H645 H 0.455 0.91098 0.91601 0.0
H646 H 0.56278 0.89047 0.90454 0.0
H647 H 0.48499 0.82751 0.91877 0.0
C648 C 0.50797 0.79567 0.89459 0.0
C649 C 0.53166 0.7894 0.87509 0.0
C650 C 0.5392 0.89525 0.90694 0.0
C651 C 0.52418 0.8446 0.89527 0.0
C652 C 0.53044 0.92225 0.91631 0.0
C653 C 0.49986 0.92819 0.92065 0.0
C654 C 0.51711 0.8743 0.90243 0.0
C655 C 0.47879 0.90715 0.91378 0.0
C656 C 0.50415 0.82306 0.90459 0.0
C657 C 0.55255 0.81114 0.86781 0.0
N658 N 0.48777 0.8812 0.90547 0.0
N659 N 0.54818 0.83796 0.87768 0.0
H660 H 0.46007 0.29567 0.6562 0.0
H661 H 0.55715 0.42651 0.59366 0.0
H662 H 0.554 0.29018 0.63146 0.0
H663 H 0.46045 0.42472 0.60119 0.0
H664 H 0.55687 0.37662 0.60698 0.0
H665 H 0.45993 0.3431 0.636 0.0
C666 C 0.48059 0.3043 0.64628 0.0
C667 C 0.50707 0.28885 0.64557 0.0
C668 C 0.53573 0.38718 0.60556 0.0
C669 C 0.50721 0.34342 0.62271 0.0
C670 C 0.53587 0.41568 0.59783 0.0
C671 C 0.50881 0.43014 0.59665 0.0
C672 C 0.50835 0.37304 0.61228 0.0
C673 C 0.48194 0.41484 0.60249 0.0
C674 C 0.48052 0.33142 0.63474 0.0
C675 C 0.53302 0.30122 0.63243 0.0
N676 N 0.48241 0.38732 0.61023 0.0
N677 N 0.5325 0.32783 0.62178 0.0
H678 H 0.46775 0.15576 0.64453 0.0
H679 H 0.49255 0.02433 0.54218 0.0
H680 H 0.55585 0.14244 0.60557 0.0
H681 H 0.44583 0.01884 0.62468 0.0
H682 H 0.50774 0.07334 0.55344 0.0
H683 H 0.45055 0.11142 0.62403 0.0
C684 C 0.48342 0.14383 0.63121 0.0
C685 C 0.51351 0.15267 0.62715 0.0
C686 C 0.49397 0.06132 0.56883 0.0
C687 C 0.49358 0.10199 0.60345 0.0
C688 C 0.4852 0.0336 0.56243 0.0
C689 C 0.46802 0.01773 0.58264 0.0
C690 C 0.48454 0.07321 0.59512 0.0
C691 C 0.45921 0.03042 0.60865 0.0
C692 C 0.4735 0.11849 0.61963 0.0
C693 C 0.53257 0.13627 0.60947 0.0
N694 N 0.46738 0.05751 0.61408 0.0
N695 N 0.52232 0.11147 0.59835 0.0
H696 H 0.87823 0.47442 0.65923 0.0
H697 H 0.9293 0.59225 0.54392 0.0
H698 H 0.86986 0.56383 0.67376 0.0
H699 H 0.94492 0.50353 0.53141 0.0
H700 H 0.90894 0.58216 0.59225 0.0
H701 H 0.90458 0.48448 0.61325 0.0
C702 C 0.8822 0.49615 0.65295 0.0
C703 C 0.87164 0.51828 0.67041 0.0
C704 C 0.91696 0.5649 0.579 0.0
C705 C 0.90154 0.52996 0.61762 0.0
C706 C 0.92857 0.57066 0.55135 0.0
C707 C 0.93876 0.54872 0.53348 0.0
C708 C 0.91532 0.53695 0.58889 0.0
C709 C 0.93728 0.52113 0.54437 0.0
C710 C 0.89718 0.50189 0.62663 0.0
C711 C 0.87743 0.54604 0.66104 0.0
N712 N 0.92565 0.51603 0.57127 0.0
N713 N 0.89176 0.55105 0.63528 0.0
H714 H 0.1329 0.96754 0.72424 0.0
H715 H 0.11781 0.03568 0.57031 0.0
H716 H 0.15581 0.05425 0.70443 0.0
H717 H 0.10081 0.9477 0.58865 0.0
H718 H 0.12321 0.04469 0.62122 0.0
H719 H 0.11166 0.9622 0.67729 0.0
C720 C 0.13293 0.98566 0.71024 0.0
C721 C 0.14662 0.01129 0.71813 0.0
C722 C 0.11804 0.02344 0.6142 0.0
C723 C 0.12268 1.00513 0.66408 0.0
C724 C 0.11517 0.01822 0.58507 0.0
C725 C 0.10946 0.99075 0.57511 0.0
C726 C 0.11533 1.00102 0.63364 0.0
C727 C 0.10533 0.96915 0.59535 0.0
C728 C 0.12089 0.98253 0.68335 0.0
C729 C 0.1457 0.03407 0.6992 0.0
N730 N 0.10872 0.97468 0.62363 0.0
N731 N 0.1344 0.03032 0.67285 0.0
H732 H 0.83419 0.56381 0.83397 0.0
H733 H 0.95893 0.47486 0.90986 0.0
H734 H 0.89968 0.51201 0.78996 0.0
H735 H 0.88154 0.50691 0.9565 0.0
H736 H 0.94355 0.49856 0.86694 0.0
H737 H 0.85714 0.55319 0.87962 0.0
C738 C 0.854 0.55101 0.83379 0.0
C739 C 0.86517 0.53886 0.80813 0.0
C740 C 0.92996 0.50071 0.88655 0.0
C741 C 0.89119 0.52637 0.86012 0.0
C742 C 0.93874 0.48714 0.91109 0.0
C743 C 0.9212 0.48848 0.93668 0.0
C744 C 0.90323 0.51579 0.88729 0.0
C745 C 0.89563 0.50527 0.93718 0.0
C746 C 0.86684 0.54468 0.85987 0.0
C747 C 0.8904 0.52187 0.80921 0.0
N748 N 0.88713 0.51798 0.9127 0.0
N749 N 0.90241 0.51606 0.83469 0.0
H750 H 0.12573 0.01993 0.83509 0.0
H751 H 0.08853 0.9739 0.9978 0.0
H752 H 0.16292 0.94541 0.87081 0.0
H753 H 0.06113 0.05065 0.95853 0.0
H754 H 0.10955 0.9582 0.95069 0.0
H755 H 0.09533 0.02632 0.87882 0.0
C756 C 0.12732 1.00471 0.85214 0.0
C757 C 0.14716 0.98227 0.84935 0.0
C758 C 0.0985 0.97826 0.95242 0.0
C759 C 0.1125 0.98976 0.90024 0.0
C760 C 0.08634 0.9871 0.9792 0.0
C761 C 0.07327 0.01368 0.98204 0.0
C762 C 0.09716 0.99608 0.92849 0.0
C763 C 0.07126 0.03012 0.95738 0.0
C764 C 0.10991 0.00838 0.87724 0.0
C765 C 0.14792 0.96303 0.8721 0.0
N766 N 0.08315 0.02115 0.93187 0.0
N767 N 0.13115 0.96743 0.89682 0.0
H768 H 0.69436 0.91162 0.5707 0.0
H769 H 0.53239 0.92621 0.505 0.0
H770 H 0.67932 0.89937 0.48087 0.0
H771 H 0.54879 0.92393 0.59528 0.0
H772 H 0.58659 0.92246 0.49448 0.0
H773 H 0.64195 0.92392 0.57853 0.0
C774 C 0.68019 0.91202 0.55248 0.0
C775 C 0.69133 0.90419 0.52511 0.0
C776 C 0.57825 0.92286 0.51656 0.0
C777 C 0.63078 0.91778 0.53408 0.0
C778 C 0.54732 0.92493 0.52258 0.0
C779 C 0.53593 0.92516 0.55107 0.0
C780 C 0.59791 0.92129 0.5392 0.0
C781 C 0.5564 0.92359 0.57298 0.0
C782 C 0.65012 0.91885 0.55701 0.0
C783 C 0.67177 0.90523 0.50235 0.0
N784 N 0.58625 0.92173 0.56658 0.0
N785 N 0.64235 0.91153 0.50739 0.0
H786 H 0.7094 0.10868 0.98503 0.0
H787 H 0.53647 0.1009 0.0216 0.0
H788 H 0.6708 0.14192 0.06398 0.0
H789 H 0.57883 0.04208 0.96295 0.0
H790 H 0.58559 0.11469 0.0386 0.0
H791 H 0.66278 0.08226 0.97766 0.0
C792 C 0.69126 0.11 1.0011 0.0
C793 C 0.69387 0.12771 0.02504 0.0
C794 C 0.58419 0.09844 0.02234 0.0
C795 C 0.64022 0.09796 0.01642 0.0
C796 C 0.55616 0.09063 0.01253 0.0
C797 C 0.55364 0.07048 0.99066 0.0
C798 C 0.61007 0.08652 0.00974 0.0
C799 C 0.57983 0.05771 0.97984 0.0
C800 C 0.66467 0.09487 0.99688 0.0
C801 C 0.66974 0.12853 0.04523 0.0
N802 N 0.60707 0.06634 0.98911 0.0
N803 N 0.64369 0.11431 0.04017 0.0
H804 H 0.32944 0.42425 0.99215 0.0
H805 H 0.50196 0.42731 0.03289 0.0
H806 H 0.35679 0.39061 0.07232 0.0
H807 H 0.46963 0.42712 0.9472 0.0
H808 H 0.44942 0.42459 0.05185 0.0
H809 H 0.38122 0.43846 0.98051 0.0
C810 C 0.34624 0.42043 0.00765 0.0
C811 C 0.33877 0.40586 0.03308 0.0
C812 C 0.45403 0.42531 0.02894 0.0
C813 C 0.39847 0.42161 0.01954 0.0
C814 C 0.4839 0.42684 0.01813 0.0
C815 C 0.49019 0.42707 0.98842 0.0
C816 C 0.43051 0.42476 0.00983 0.0
C817 C 0.46596 0.42656 0.97024 0.0
C818 C 0.37589 0.42836 1.00087 0.0
C819 C 0.36156 0.40173 0.05243 0.0
N820 N 0.43737 0.42551 0.98121 0.0
N821 N 0.39056 0.40914 0.04505 0.0
H822 H 0.85589 0.15445 0.95731 0.0
H823 H 0.94588 0.04447 0.04915 0.0
H824 H 0.81785 0.1109 0.03146 0.0
H825 H 0.98988 0.10945 0.9975 0.0
H826 H 0.89731 0.06138 0.03489 0.0
H827 H 0.90352 0.13059 0.96375 0.0
C828 C 0.85733 0.1394 0.97451 0.0
C829 C 0.83291 0.13471 0.99394 0.0
C830 C 0.91762 0.07179 0.0265 0.0
C831 C 0.88719 0.1075 1.00146 0.0
C832 C 0.94537 0.0621 0.03456 0.0
C833 C 0.97204 0.07569 0.0247 0.0
C834 C 0.91641 0.09507 0.00816 0.0
C835 C 0.9699 0.09847 1.00583 0.0
C836 C 0.88457 0.12601 0.97834 0.0
C837 C 0.83616 0.11525 0.01608 0.0
N838 N 0.94259 0.10748 0.99822 0.0
N839 N 0.86276 0.10244 0.01927 0.0
H840 H 0.07645 0.19358 0.2418 0.0
H841 H 1.00799 0.065 0.15234 0.0
H842 H 0.99718 0.14661 0.27074 0.0
H843 H 0.06452 0.13108 0.11475 0.0
H844 H 1.00815 0.0904 0.19831 0.0
H845 H 0.07777 0.16572 0.19745 0.0
C846 C 0.05955 0.17723 0.23897 0.0
C847 C 0.03657 0.17255 0.25987 0.0
C848 C 0.0204 0.09929 0.17988 0.0
C849 C 0.03789 0.14067 0.20934 0.0
C850 C 0.02023 0.08486 0.15368 0.0
C851 C 0.03607 0.09598 0.1296 0.0
C852 C 0.03692 0.1247 0.18204 0.0
C853 C 0.05177 0.12174 0.13263 0.0
C854 C 0.06017 0.16147 0.21361 0.0
C855 C 0.01516 0.15111 0.25504 0.0
N856 N 0.05193 0.13509 0.15834 0.0
N857 N 0.01632 0.13597 0.2303 0.0
H858 H 0.99325 0.30512 0.31062 0.0
H859 H 0.93585 0.35813 0.16207 0.0
H860 H 0.93611 0.25391 0.25853 0.0
H861 H 0.97965 0.412 0.22276 0.0
H862 H 0.93354 0.32027 0.1974 0.0
H863 H 0.98528 0.34534 0.27993 0.0
C864 C 0.97856 0.30259 0.29286 0.0
C865 C 0.96532 0.27634 0.28691 0.0
C866 C 0.94345 0.34044 0.20305 0.0
C867 C 0.95671 0.32203 0.25117 0.0
C868 C 0.94511 0.36198 0.18278 0.0
C869 C 0.95838 0.38819 0.18935 0.0
C870 C 0.95533 0.34507 0.23001 0.0
C871 C 0.96924 0.39219 0.21679 0.0
C872 C 0.97406 0.32551 0.27531 0.0
C873 C 0.94651 0.27396 0.26378 0.0
N874 N 0.9677 0.3708 0.236 0.0
N875 N 0.94311 0.29651 0.24636 0.0
H876 H 0.0996 0.78044 0.2261 0.0
H877 H 0.99886 0.83524 0.35603 0.0
H878 H 0.03317 0.7288 0.27178 0.0
H879 H 0.08685 0.8719 0.33879 0.0
H880 H 0.01099 0.79715 0.32254 0.0
H881 H 0.09743 0.81461 0.26601 0.0
C882 C 0.08546 0.77586 0.24497 0.0
C883 C 0.06637 0.75207 0.24579 0.0
C884 C 0.02777 0.81342 0.32616 0.0
C885 C 0.06303 0.79094 0.2905 0.0
C886 C 0.02067 0.83529 0.34499 0.0
C887 C 0.04183 0.85666 0.34996 0.0
C888 C 0.05607 0.81319 0.3118 0.0
C889 C 0.07002 0.85561 0.33548 0.0
C890 C 0.08398 0.7954 0.26754 0.0
C891 C 0.04802 0.74713 0.27037 0.0
N892 N 0.07629 0.83432 0.31674 0.0
N893 N 0.04642 0.76663 0.29153 0.0
H894 H 0.04634 0.63885 0.23828 0.0
H895 H 0.93969 0.58019 0.36713 0.0
H896 H 0.95211 0.65674 0.24876 0.0
H897 H 0.0353 0.56958 0.36263 0.0
H898 H 0.94269 0.60115 0.31941 0.0
H899 H 0.04154 0.60714 0.27923 0.0
C900 C 0.02451 0.63592 0.24897 0.0
C901 C 0.99961 0.65078 0.24011 0.0
C902 C 0.96301 0.59382 0.3285 0.0
C903 C 0.99406 0.61434 0.28728 0.0
C904 C 0.96126 0.58163 0.35561 0.0
C905 C 0.98726 0.57289 0.36851 0.0
C906 C 0.99109 0.59771 0.31425 0.0
C907 C 0.01474 0.57569 0.35312 0.0
C908 C 0.02184 0.61777 0.27243 0.0
C909 C 0.97195 0.6459 0.25483 0.0
N910 N 0.016 0.58813 0.32684 0.0
N911 N 0.96999 0.62828 0.27778 0.0
H912 H 0.21136 0.05458 0.22423 0.0
H913 H 0.15832 0.05454 0.06497 0.0
H914 H 0.27115 0.02698 0.15542 0.0
H915 H 0.1007 0.0213 0.13366 0.0
H916 H 0.20038 0.0554 0.09738 0.0
H917 H 0.17017 0.05475 0.19068 0.0
C918 C 0.2159 0.04922 0.20194 0.0
C919 C 0.24457 0.04095 0.1924 0.0
C920 C 0.17854 0.04774 0.10518 0.0
C921 C 0.19804 0.04117 0.15423 0.0
C922 C 0.15466 0.04709 0.08674 0.0
C923 C 0.12617 0.03739 0.09656 0.0
C924 C 0.17356 0.03964 0.13385 0.0
C925 C 0.12246 0.02842 0.1251 0.0
C926 C 0.19244 0.049 0.18297 0.0
C927 C 0.2493 0.03361 0.16346 0.0
N928 N 0.14578 0.03013 0.14289 0.0
N929 N 0.22632 0.03408 0.1453 0.0
H930 H 0.75933 0.425 0.21074 0.0
H931 H 0.86873 0.50798 0.09836 0.0
H932 H 0.76614 0.51565 0.20509 0.0
H933 H 0.85533 0.41798 0.09658 0.0
H934 H 0.82746 0.51141 0.13447 0.0
H935 H 0.79225 0.42168 0.16736 0.0
C936 C 0.76775 0.44416 0.2005 0.0
C937 C 0.76001 0.47061 0.21181 0.0
C938 C 0.83293 0.49093 0.12566 0.0
C939 C 0.79746 0.46703 0.16199 0.0
C940 C 0.85614 0.4891 0.10465 0.0
C941 C 0.86478 0.46278 0.09393 0.0
C942 C 0.81879 0.46616 0.13653 0.0
C943 C 0.8487 0.43875 0.1038 0.0
C944 C 0.78638 0.44228 0.17561 0.0
C945 C 0.77147 0.49474 0.19737 0.0
N946 N 0.82677 0.44094 0.12479 0.0
N947 N 0.78959 0.49236 0.17343 0.0
H948 H 0.24058 0.93015 0.27631 0.0
H949 H 0.16873 0.9731 0.4304 0.0
H950 H 0.26954 1.00204 0.32554 0.0
H951 H 0.126 0.91589 0.37196 0.0
H952 H 0.2118 0.97731 0.39617 0.0
H953 H 0.20422 0.91778 0.31555 0.0
C954 C 0.23955 0.94304 0.29548 0.0
C955 C 0.25762 0.96736 0.29755 0.0
C956 C 0.19302 0.9637 0.39099 0.0
C957 C 0.21656 0.95346 0.34227 0.0
C958 C 0.16851 0.9613 0.41051 0.0
C959 C 0.1436 0.94451 0.40381 0.0
C960 C 0.19263 0.94899 0.36478 0.0
C961 C 0.14454 0.92948 0.3778 0.0
C962 C 0.21879 0.93611 0.31778 0.0
C963 C 0.25555 0.98339 0.32287 0.0
N964 N 0.16856 0.93218 0.35919 0.0
N965 N 0.2353 0.97625 0.34414 0.0
H966 H 0.77232 0.48435 0.33742 0.0
H967 H 0.87835 0.59545 0.41586 0.0
H968 H 0.76638 0.5742 0.32554 0.0
H969 H 0.88736 0.50517 0.4193 0.0
H970 H 0.83443 0.58879 0.38671 0.0
H971 H 0.81171 0.49241 0.37076 0.0
C972 C 0.77928 0.50588 0.34179 0.0
C973 C 0.76602 0.52865 0.32843 0.0
C974 C 0.84589 0.57047 0.39406 0.0
C975 C 0.81154 0.53804 0.36701 0.0
C976 C 0.87085 0.57422 0.41085 0.0
C977 C 0.88663 0.5508 0.41998 0.0
C978 C 0.8366 0.54312 0.38643 0.0
C979 C 0.87599 0.52383 0.41269 0.0
C980 C 0.80187 0.51045 0.36096 0.0
C981 C 0.77604 0.55602 0.33522 0.0
N982 N 0.85177 0.52077 0.39628 0.0
N983 N 0.7983 0.55996 0.35402 0.0
H984 H 0.24859 0.26743 0.01806 0.0
H985 H 0.11057 0.17257 0.07848 0.0
H986 H 0.19201 0.29547 0.08915 0.0
H987 H 0.15175 0.16654 0.99364 0.0
H988 H 0.14526 0.21198 0.08897 0.0
H989 H 0.21959 0.22365 0.0164 0.0
C990 C 0.23021 0.26406 0.03366 0.0
C991 C 0.2224 0.28503 0.0536 0.0
C992 C 0.14667 0.20189 0.06815 0.0
C993 C 0.18852 0.23521 0.05136 0.0
C994 C 0.12704 0.17944 0.06219 0.0
C995 C 0.12826 0.16652 0.03507 0.0
C996 C 0.16789 0.21092 0.04697 0.0
C997 C 0.1498 0.1762 0.01463 0.0
C998 C 0.21355 0.23916 0.03259 0.0
C999 C 0.19861 0.27967 0.07349 0.0
N1000 N 0.16876 0.19773 0.02103 0.0
N1001 N 0.18208 0.25526 0.07163 0.0
H1002 H 0.20327 0.7461 0.43563 0.0
H1003 H 0.12212 0.87439 0.51659 0.0
H1004 H 0.20461 0.75909 0.527 0.0
H1005 H 0.09777 0.84569 0.43283 0.0
H1006 H 0.15493 0.8339 0.51989 0.0
H1007 H 0.16758 0.7847 0.4328 0.0
C1008 C 0.19617 0.75706 0.45504 0.0
C1009 C 0.20698 0.74925 0.48157 0.0
C1010 C 0.14218 0.83632 0.50089 0.0
C1011 C 0.1663 0.79347 0.47851 0.0
C1012 C 0.12336 0.85941 0.49905 0.0
C1013 C 0.10699 0.86345 0.47448 0.0
C1014 C 0.14514 0.81733 0.4778 0.0
C1015 C 0.10974 0.84337 0.45231 0.0
C1016 C 0.17568 0.77899 0.45345 0.0
C1017 C 0.19685 0.76421 0.50606 0.0
N1018 N 0.12865 0.82139 0.45437 0.0
N1019 N 0.1773 0.78559 0.50391 0.0
H1020 H 0.80575 0.77286 0.53227 0.0
H1021 H 0.93461 0.71214 0.42878 0.0
H1022 H 0.82626 0.80847 0.44879 0.0
H1023 H 0.89191 0.6647 0.49818 0.0
H1024 H 0.89728 0.74889 0.43631 0.0
H1025 H 0.83902 0.73415 0.52067 0.0
C1026 C 0.81725 0.77247 0.51139 0.0
C1027 C 0.81342 0.794 0.4915 0.0
C1028 C 0.896 0.73033 0.44974 0.0
C1029 C 0.85186 0.74969 0.47815 0.0
C1030 C 0.91743 0.7095 0.44564 0.0
C1031 C 0.91646 0.68542 0.46305 0.0
C1032 C 0.87372 0.72723 0.47165 0.0
C1033 C 0.8934 0.68283 0.48422 0.0
C1034 C 0.83616 0.75027 0.50475 0.0
C1035 C 0.82861 0.79224 0.46468 0.0
N1036 N 0.87312 0.70357 0.48809 0.0
N1037 N 0.84753 0.77058 0.45887 0.0
H1038 H 0.338 0.74271 0.49786 0.0
H1039 H 0.4142 0.84835 0.60808 0.0
H1040 H 0.31073 0.74491 0.58759 0.0
H1041 H 0.42204 0.85582 0.51608 0.0
H1042 H 0.38347 0.80532 0.60267 0.0
H1043 H 0.37571 0.7788 0.50619 0.0
C1044 C 0.33991 0.75076 0.51944 0.0
C1045 C 0.32074 0.74095 0.54202 0.0
C1046 C 0.39227 0.81622 0.58372 0.0
C1047 C 0.36439 0.78271 0.55168 0.0
C1048 C 0.41002 0.84061 0.58675 0.0
C1049 C 0.42061 0.85572 0.56244 0.0
C1050 C 0.38541 0.8068 0.55621 0.0
C1051 C 0.41425 0.84492 0.53538 0.0
C1052 C 0.3616 0.77144 0.52416 0.0
C1053 C 0.32484 0.75201 0.56953 0.0
N1054 N 0.39699 0.82124 0.53303 0.0
N1055 N 0.34613 0.77251 0.57359 0.0
H1056 H 0.49021 0.64864 0.76772 0.0
H1057 H 0.55496 0.63702 0.60704 0.0
H1058 H 0.56399 0.69988 0.7332 0.0
H1059 H 0.50794 0.56702 0.64863 0.0
H1060 H 0.5524 0.6631 0.65181 0.0
H1061 H 0.4913 0.62087 0.72334 0.0
C1062 C 0.50666 0.65404 0.75084 0.0
C1063 C 0.52702 0.67669 0.75414 0.0
C1064 C 0.54258 0.64207 0.65121 0.0
C1065 C 0.52807 0.64521 0.70332 0.0
C1066 C 0.54382 0.62714 0.62555 0.0
C1067 C 0.53166 0.59966 0.624 0.0
C1068 C 0.5288 0.62972 0.67568 0.0
C1069 C 0.5176 0.58812 0.64885 0.0
C1070 C 0.50729 0.63812 0.72559 0.0
C1071 C 0.54792 0.68261 0.73163 0.0
N1072 N 0.5165 0.60325 0.67373 0.0
N1073 N 0.54774 0.66712 0.70712 0.0
H1074 H 0.46697 0.80445 0.82391 0.0
H1075 H 0.42812 0.8536 0.66798 0.0
H1076 H 0.43339 0.74836 0.75955 0.0
H1077 H 0.46521 0.90854 0.73187 0.0
H1078 H 0.41993 0.81721 0.7041 0.0
H1079 H 0.45573 0.84471 0.79407 0.0
C1080 C 0.45623 0.80079 0.80382 0.0
C1081 C 0.45075 0.77331 0.79412 0.0
C1082 C 0.42949 0.83735 0.71033 0.0
C1083 C 0.43907 0.81896 0.75933 0.0
C1084 C 0.43407 0.85829 0.68969 0.0
C1085 C 0.44778 0.88419 0.69676 0.0
C1086 C 0.43876 0.8422 0.73826 0.0
C1087 C 0.45522 0.88874 0.72529 0.0
C1088 C 0.45009 0.82369 0.78667 0.0
C1089 C 0.43749 0.76938 0.76779 0.0
N1090 N 0.4509 0.86786 0.7449 0.0
N1091 N 0.43251 0.79201 0.75102 0.0
H1092 H 0.58556 0.29543 0.69962 0.0
H1093 H 0.58128 0.33061 0.86679 0.0
H1094 H 0.59054 0.23199 0.76463 0.0
H1095 H 0.54498 0.383 0.80219 0.0
H1096 H 0.59968 0.29837 0.82912 0.0
H1097 H 0.58811 0.33199 0.73658 0.0
C1098 C 0.58886 0.28931 0.72156 0.0
C1099 C 0.58829 0.26083 0.72921 0.0
C1100 C 0.58794 0.31708 0.82323 0.0
C1101 C 0.58974 0.3022 0.77158 0.0
C1102 C 0.57742 0.33541 0.84465 0.0
C1103 C 0.56122 0.35923 0.83754 0.0
C1104 C 0.58258 0.32287 0.79451 0.0
C1105 C 0.5568 0.36455 0.80858 0.0
C1106 C 0.58972 0.31011 0.74268 0.0
C1107 C 0.59147 0.25382 0.75797 0.0
N1108 N 0.56736 0.34647 0.78811 0.0
N1109 N 0.59156 0.2744 0.77828 0.0
H1110 H 0.53448 0.13082 0.7302 0.0
H1111 H 0.52262 0.12131 0.89562 0.0
H1112 H 0.48005 0.18824 0.78057 0.0
H1113 H 0.49165 0.04615 0.85278 0.0
H1114 H 0.52597 0.14577 0.8499 0.0
H1115 H 0.53454 0.09879 0.77166 0.0
C1116 C 0.52237 0.13656 0.74987 0.0
C1117 C 0.50724 0.16224 0.75203 0.0
C1118 C 0.51901 0.12376 0.85046 0.0
C1119 C 0.50792 0.12624 0.79918 0.0
C1120 C 0.51727 0.10967 0.87644 0.0
C1121 C 0.50648 0.08169 0.87808 0.0
C1122 C 0.51044 0.10978 0.82566 0.0
C1123 C 0.50013 0.06767 0.85242 0.0
C1124 C 0.52235 0.11826 0.77331 0.0
C1125 C 0.49186 0.16865 0.77792 0.0
N1126 N 0.50192 0.08202 0.82707 0.0
N1127 N 0.49308 0.15103 0.80065 0.0
H1128 H 0.74274 0.58493 0.68926 0.0
H1129 H 0.61615 0.49881 0.60725 0.0
H1130 H 0.73604 0.49413 0.68893 0.0
H1131 H 0.64249 0.58439 0.58588 0.0
H1132 H 0.65724 0.4973 0.64035 0.0
H1133 H 0.70256 0.58611 0.65496 0.0
C1134 C 0.73273 0.56529 0.68214 0.0
C1135 C 0.74286 0.53941 0.69197 0.0
C1136 C 0.65414 0.51633 0.62823 0.0
C1137 C 0.69687 0.54058 0.65283 0.0
C1138 C 0.63073 0.51716 0.60927 0.0
C1139 C 0.6259 0.54168 0.59359 0.0
C1140 C 0.67257 0.54034 0.63196 0.0
C1141 C 0.64545 0.56492 0.5973 0.0
C1142 C 0.70994 0.56595 0.66244 0.0
C1143 C 0.72911 0.51458 0.68186 0.0
N1144 N 0.6677 0.56376 0.61624 0.0
N1145 N 0.70682 0.51578 0.663 0.0
H1146 H 0.26133 0.92053 0.72051 0.0
H1147 H 0.36011 0.99183 0.59189 0.0
H1148 H 0.26352 0.00968 0.70259 0.0
H1149 H 0.35903 0.90304 0.6103 0.0
H1150 H 0.31869 0.99784 0.62759 0.0
H1151 H 0.29258 0.91282 0.67683 0.0
C1152 C 0.26836 0.93846 0.70747 0.0
C1153 C 0.25996 0.9658 0.7155 0.0
C1154 C 0.32694 0.97689 0.62329 0.0
C1155 C 0.29551 0.95714 0.66522 0.0
C1156 C 0.35019 0.97344 0.6025 0.0
C1157 C 0.36254 0.94685 0.59783 0.0
C1158 C 0.31632 0.9536 0.63966 0.0
C1159 C 0.34971 0.92383 0.613 0.0
C1160 C 0.28609 0.93406 0.68242 0.0
C1161 C 0.26959 0.98821 0.6975 0.0
N1162 N 0.32761 0.92776 0.63344 0.0
N1163 N 0.28687 0.98341 0.67339 0.0
H1164 H 0.77043 0.51236 0.82496 0.0
H1165 H 0.63954 0.40731 0.87649 0.0
H1166 H 0.75292 0.43309 0.7827 0.0
H1167 H 0.66881 0.47813 0.92711 0.0
H1168 H 0.68315 0.41426 0.84405 0.0
H1169 H 0.73594 0.49834 0.86422 0.0
C1170 C 0.75936 0.49187 0.82401 0.0
C1171 C 0.76411 0.47401 0.80029 0.0
C1172 C 0.68032 0.4281 0.8624 0.0
C1173 C 0.72441 0.45786 0.84532 0.0
C1174 C 0.65535 0.42423 0.88091 0.0
C1175 C 0.65035 0.44249 0.90429 0.0
C1176 C 0.7003 0.45064 0.86701 0.0
C1177 C 0.67176 0.46372 0.90925 0.0
C1178 C 0.73978 0.48383 0.84657 0.0
C1179 C 0.74968 0.44753 0.8005 0.0
N1180 N 0.69562 0.4675 0.89046 0.0
N1181 N 0.73007 0.4404 0.82251 0.0
H1182 H 0.27112 0.07574 0.82487 0.0
H1183 H 0.39476 0.00592 0.91987 0.0
H1184 H 0.27828 0.98648 0.83975 0.0
H1185 H 0.38565 0.09597 0.91319 0.0
H1186 H 0.35107 0.99915 0.89111 0.0
H1187 H 0.3123 0.08442 0.85726 0.0
C1188 C 0.28128 0.05801 0.83491 0.0
C1189 C 0.27126 0.03033 0.82946 0.0
C1190 C 0.35842 0.02044 0.896 0.0
C1191 C 0.31819 0.04009 0.86648 0.0
C1192 C 0.38342 0.02432 0.9125 0.0
C1193 C 0.39397 0.05156 0.91888 0.0
C1194 C 0.34381 0.04395 0.8855 0.0
C1195 C 0.37824 0.07459 0.90879 0.0
C1196 C 0.30472 0.06297 0.85344 0.0
C1197 C 0.28521 0.00817 0.84315 0.0
N1198 N 0.35405 0.07027 0.89239 0.0
N1199 N 0.30791 0.01354 0.86088 0.0
H1200 H 0.67431 0.81689 0.53643 0.0
H1201 H 0.64474 0.65317 0.5673 0.0
H1202 H 0.73152 0.76836 0.58849 0.0
H1203 H 0.59704 0.70241 0.50743 0.0
H1204 H 0.6718 0.696 0.5819 0.0
H1205 H 0.64 0.77658 0.5336 0.0
C1206 C 0.67928 0.79778 0.54777 0.0
C1207 C 0.70579 0.79575 0.56253 0.0
C1208 C 0.65528 0.6974 0.5657 0.0
C1209 C 0.6671 0.74915 0.55868 0.0
C1210 C 0.63981 0.67301 0.55738 0.0
C1211 C 0.61884 0.6742 0.53586 0.0
C1212 C 0.64952 0.72314 0.55255 0.0
C1213 C 0.61342 0.7004 0.52364 0.0
C1214 C 0.6598 0.77471 0.546 0.0
C1215 C 0.71119 0.77067 0.57697 0.0
N1216 N 0.6287 0.72376 0.53211 0.0
N1217 N 0.69221 0.74805 0.57428 0.0
H1218 H 0.70216 0.24213 0.93864 0.0
H1219 H 0.62288 0.37408 0.01432 0.0
H1220 H 0.70372 0.25817 0.02952 0.0
H1221 H 0.59746 0.34167 0.93221 0.0
H1222 H 0.65498 0.3333 0.01949 0.0
H1223 H 0.66663 0.28067 0.93452 0.0
C1224 C 0.6951 0.25372 0.95767 0.0
C1225 C 0.70594 0.24682 0.98445 0.0
C1226 C 0.64213 0.335 1.00047 0.0
C1227 C 0.66551 0.29098 0.9799 0.0
C1228 C 0.6237 0.35824 0.99757 0.0
C1229 C 0.60732 0.36135 0.97286 0.0
C1230 C 0.64463 0.31494 0.9783 0.0
C1231 C 0.60951 0.34016 0.95173 0.0
C1232 C 0.67472 0.27561 0.95535 0.0
C1233 C 0.69591 0.26258 0.00843 0.0
N1234 N 0.62804 0.31808 0.95479 0.0
N1235 N 0.67648 0.28394 1.00556 0.0
H1236 H 0.30736 0.27492 0.0256 0.0
H1237 H 0.44432 0.2126 0.93525 0.0
H1238 H 0.33419 0.30934 0.94295 0.0
H1239 H 0.39143 0.16425 0.99758 0.0
H1240 H 0.407 0.24984 0.93863 0.0
H1241 H 0.3406 0.23571 0.01671 0.0
C1242 C 0.3203 0.27417 1.00547 0.0
C1243 C 0.31824 0.2955 0.98503 0.0
C1244 C 0.4035 0.23096 0.95135 0.0
C1245 C 0.35666 0.25059 0.97481 0.0
C1246 C 0.42488 0.20986 0.94966 0.0
C1247 C 0.42104 0.18544 0.96639 0.0
C1248 C 0.37843 0.22774 0.97024 0.0
C1249 C 0.39519 0.18268 0.98429 0.0
C1250 C 0.33916 0.25166 1.00036 0.0
C1251 C 0.33522 0.29328 0.95922 0.0
N1252 N 0.37504 0.2037 0.98597 0.0
N1253 N 0.35415 0.27132 0.95495 0.0
H1254 H 0.83466 0.24648 0.99961 0.0
H1255 H 0.90663 0.35904 0.10535 0.0
H1256 H 0.80867 0.24985 0.08961 0.0
H1257 H 0.91051 0.36563 0.01318 0.0
H1258 H 0.87711 0.31513 0.10149 0.0
H1259 H 0.86908 0.28581 1.00608 0.0
C1260 C 0.83619 0.25544 0.02086 0.0
C1261 C 0.81835 0.24498 0.04407 0.0
C1262 C 0.88462 0.32615 0.08217 0.0
C1263 C 0.85813 0.29045 0.05156 0.0
C1264 C 0.90158 0.35109 0.0843 0.0
C1265 C 0.91097 0.36604 0.0595 0.0
C1266 C 0.87732 0.31599 0.05505 0.0
C1267 C 0.90366 0.35488 0.03284 0.0
C1268 C 0.85594 0.27801 0.02449 0.0
C1269 C 0.82183 0.25735 0.0711 0.0
N1270 N 0.88728 0.33057 0.03135 0.0
N1271 N 0.84126 0.27962 0.07411 0.0
loop_
_geom_bond_atom_site_label_1
_geom_bond_atom_site_label_2
_geom_bond_distance
_geom_bond_site_symmetry_2
_ccdc_geom_bond_type
C0 O2 1.247 . S
C0 O4 1.258 . S
C1 O8 1.247 1_455 S
C1 O9 1.258 . S
O2 C0 1.247 . S
O2 Zn3 2.028 . S
Zn3 O2 2.028 . S
Zn3 O7 2.035 . S
Zn3 O9 2.035 . S
Zn3 O10 2.028 . S
O4 C0 1.258 . S
O4 Zn5 2.035 1_455 S
Zn5 O4 2.035 1_655 S
Zn5 O6 2.028 . S
Zn5 O8 2.028 . S
Zn5 O11 2.035 1_655 S
O6 Zn5 2.028 . S
O6 C12 1.247 1_655 S
O7 Zn3 2.035 . S
O7 C12 1.258 . S
O8 C1 1.247 1_655 S
O8 Zn5 2.028 . S
O9 C1 1.258 . S
O9 Zn3 2.035 . S
O10 Zn3 2.028 . S
O10 C13 1.247 . S
O11 Zn5 2.035 1_455 S
O11 C13 1.258 . S
C12 O6 1.247 1_455 S
C12 O7 1.258 . S
C13 O10 1.247 . S
C13 O11 1.258 . S
C14 O16 1.247 . S
C14 O18 1.258 1_455 S
C15 O22 1.217 1_455 S
C15 O23 1.293 . S
O16 C14 1.247 . S
O16 Zn17 2.028 . S
Zn17 O16 2.028 . S
Zn17 O21 2.035 . S
Zn17 O23 2.035 . S
Zn17 O24 2.028 . S
O18 C14 1.258 1_655 S
O18 Zn19 2.035 . S
Zn19 O18 2.035 . S
Zn19 O20 2.028 . S
Zn19 O22 2.028 . S
Zn19 O25 2.035 . S
O20 Zn19 2.028 . S
O20 C26 1.247 1_655 S
O21 Zn17 2.035 . S
O21 C26 1.258 . S
O22 C15 1.217 1_655 S
O22 Zn19 2.028 . S
O23 C15 1.293 . S
O23 Zn17 2.035 . S
O24 Zn17 2.028 . S
O24 C27 1.247 . S
O25 Zn19 2.035 . S
O25 C27 1.258 1_655 S
C26 O20 1.247 1_455 S
C26 O21 1.258 . S
C27 O24 1.247 . S
C27 O25 1.258 1_455 S
C28 O30 1.247 1_545 S
C28 O32 1.258 . S
C29 O36 1.247 1_565 S
C29 O37 1.258 . S
O30 C28 1.247 1_565 S
O30 Zn31 2.028 . S
Zn31 O30 2.028 . S
Zn31 O35 2.035 . S
Zn31 O37 2.035 . S
Zn31 O38 2.028 . S
O32 C28 1.258 . S
O32 Zn33 2.035 . S
Zn33 O32 2.035 . S
Zn33 O34 2.028 . S
Zn33 O36 2.028 . S
Zn33 O39 2.035 . S
O34 Zn33 2.028 . S
O34 C40 1.247 1_545 S
O35 Zn31 2.035 . S
O35 C40 1.258 . S
O36 C29 1.247 1_545 S
O36 Zn33 2.028 . S
O37 C29 1.258 . S
O37 Zn31 2.035 . S
O38 Zn31 2.028 . S
O38 C41 1.247 1_565 S
O39 Zn33 2.035 . S
O39 C41 1.258 . S
C40 O34 1.247 1_565 S
C40 O35 1.258 . S
C41 O38 1.247 1_545 S
C41 O39 1.258 . S
C42 O44 1.247 . S
C42 O46 1.258 . S
C43 O50 1.247 . S
C43 O51 1.258 . S
O44 C42 1.247 . S
O44 Zn45 2.028 . S
Zn45 O44 2.028 . S
Zn45 O49 2.035 . S
Zn45 O51 2.035 . S
Zn45 O52 2.028 . S
O46 C42 1.258 . S
O46 Zn47 2.035 . S
Zn47 O46 2.035 . S
Zn47 O48 2.028 . S
Zn47 O50 2.028 . S
Zn47 O53 2.035 . S
O48 Zn47 2.028 . S
O48 C54 1.247 . S
O49 Zn45 2.035 . S
O49 C54 1.258 . S
O50 C43 1.247 . S
O50 Zn47 2.028 . S
O51 C43 1.258 . S
O51 Zn45 2.035 . S
O52 Zn45 2.028 . S
O52 C55 1.247 . S
O53 Zn47 2.035 . S
O53 C55 1.258 . S
C54 O48 1.247 . S
C54 O49 1.258 . S
C55 O52 1.247 . S
C55 O53 1.258 . S
C56 O58 1.217 1_554 S
C56 O60 1.258 . S
C57 O64 1.247 . S
C57 O65 1.258 1_554 S
O58 C56 1.217 1_556 S
O58 Zn59 2.037 . S
Zn59 O58 2.037 . S
Zn59 O63 2.035 . S
Zn59 O65 2.035 . S
Zn59 O66 2.035 . S
O60 C56 1.258 . S
O60 Zn61 2.035 . S
Zn61 O60 2.035 . S
Zn61 O62 2.028 . S
Zn61 O64 2.028 . S
Zn61 O67 2.035 . S
O62 Zn61 2.028 . S
O62 C68 1.247 . S
O63 Zn59 2.035 . S
O63 C68 1.258 1_556 S
O64 C57 1.247 . S
O64 Zn61 2.028 . S
O65 C57 1.258 1_556 S
O65 Zn59 2.035 . S
O66 Zn59 2.035 . S
O66 C69 1.226 1_556 S
O67 Zn61 2.035 . S
O67 C69 1.258 . S
C68 O62 1.247 . S
C68 O63 1.258 1_554 S
C69 O66 1.226 1_554 S
C69 O67 1.258 . S
C70 O72 1.247 . S
C70 O74 1.258 . S
C71 O78 1.247 . S
C71 O79 1.258 . S
O72 C70 1.247 . S
O72 Zn73 2.028 . S
Zn73 O72 2.028 . S
Zn73 O77 2.035 . S
Zn73 O79 2.035 . S
Zn73 O80 2.028 . S
O74 C70 1.258 . S
O74 Zn75 2.035 . S
Zn75 O74 2.035 . S
Zn75 O76 2.028 . S
Zn75 O78 2.028 . S
Zn75 O81 2.035 . S
O76 Zn75 2.028 . S
O76 C82 1.247 . S
O77 Zn73 2.035 . S
O77 C82 1.258 . S
O78 C71 1.247 . S
O78 Zn75 2.028 . S
O79 C71 1.258 . S
O79 Zn73 2.035 . S
O80 Zn73 2.028 . S
O80 C83 1.247 . S
O81 Zn75 2.035 . S
O81 C83 1.258 . S
C82 O76 1.247 . S
C82 O77 1.258 . S
C83 O80 1.247 . S
C83 O81 1.258 . S
C84 O86 1.247 . S
C84 O88 1.258 . S
C85 O92 1.247 . S
C85 O93 1.258 . S
O86 C84 1.247 . S
O86 Zn87 2.028 . S
Zn87 O86 2.028 . S
Zn87 O91 2.035 . S
Zn87 O93 2.035 . S
Zn87 O94 2.028 . S
O88 C84 1.258 . S
O88 Zn89 2.035 . S
Zn89 O88 2.035 . S
Zn89 O90 2.028 . S
Zn89 O92 2.028 . S
Zn89 O95 2.035 . S
O90 Zn89 2.028 . S
O90 C96 1.247 . S
O91 Zn87 2.035 . S
O91 C96 1.258 . S
O92 C85 1.247 . S
O92 Zn89 2.028 . S
O93 C85 1.258 . S
O93 Zn87 2.035 . S
O94 Zn87 2.028 . S
O94 C97 1.247 . S
O95 Zn89 2.035 . S
O95 C97 1.258 . S
C96 O90 1.247 . S
C96 O91 1.258 . S
C97 O94 1.247 . S
C97 O95 1.258 . S
C98 O100 1.247 . S
C98 O102 1.258 . S
C99 O106 1.247 . S
C99 O107 1.258 . S
O100 C98 1.247 . S
O100 Zn101 2.028 . S
Zn101 O100 2.028 . S
Zn101 O105 2.035 . S
Zn101 O107 2.035 . S
Zn101 O108 2.028 . S
O102 C98 1.258 . S
O102 Zn103 2.035 . S
Zn103 O102 2.035 . S
Zn103 O104 2.028 . S
Zn103 O106 2.028 . S
Zn103 O109 2.035 . S
O104 Zn103 2.028 . S
O104 C110 1.247 . S
O105 Zn101 2.035 . S
O105 C110 1.258 . S
O106 C99 1.247 . S
O106 Zn103 2.028 . S
O107 C99 1.258 . S
O107 Zn101 2.035 . S
O108 Zn101 2.028 . S
O108 C111 1.247 . S
O109 Zn103 2.035 . S
O109 C111 1.258 . S
C110 O104 1.247 . S
C110 O105 1.258 . S
C111 O108 1.247 . S
C111 O109 1.258 . S
C112 O114 1.247 . S
C112 O116 1.258 . S
C113 O120 1.247 . S
C113 O121 1.258 . S
O114 C112 1.247 . S
O114 Zn115 2.028 . S
Zn115 O114 2.028 . S
Zn115 O119 2.035 . S
Zn115 O121 2.035 . S
Zn115 O122 2.028 . S
O116 C112 1.258 . S
O116 Zn117 2.035 . S
Zn117 O116 2.035 . S
Zn117 O118 2.028 . S
Zn117 O120 2.028 . S
Zn117 O123 2.035 . S
O118 Zn117 2.028 . S
O118 C124 1.247 . S
O119 Zn115 2.035 . S
O119 C124 1.258 . S
O120 C113 1.247 . S
O120 Zn117 2.028 . S
O121 C113 1.258 . S
O121 Zn115 2.035 . S
O122 Zn115 2.028 . S
O122 C125 1.247 . S
O123 Zn117 2.035 . S
O123 C125 1.258 . S
C124 O118 1.247 . S
C124 O119 1.258 . S
C125 O122 1.247 . S
C125 O123 1.258 . S
C126 O128 1.247 . S
C126 O130 1.258 . S
C127 O134 1.247 . S
C127 O135 1.258 . S
O128 C126 1.247 . S
O128 Zn129 2.028 . S
Zn129 O128 2.028 . S
Zn129 O133 2.035 . S
Zn129 O135 2.035 . S
Zn129 O136 2.028 . S
O130 C126 1.258 . S
O130 Zn131 2.035 . S
Zn131 O130 2.035 . S
Zn131 O132 2.028 . S
Zn131 O134 2.028 . S
Zn131 O137 2.035 . S
O132 Zn131 2.028 . S
O132 C138 1.247 . S
O133 Zn129 2.035 . S
O133 C138 1.258 . S
O134 C127 1.247 . S
O134 Zn131 2.028 . S
O135 C127 1.258 . S
O135 Zn129 2.035 . S
O136 Zn129 2.028 . S
O136 C139 1.247 . S
O137 Zn131 2.035 . S
O137 C139 1.258 . S
C138 O132 1.247 . S
C138 O133 1.258 . S
C139 O136 1.247 . S
C139 O137 1.258 . S
C140 O142 1.247 . S
C140 O144 1.258 1_565 S
C141 O148 1.247 . S
C141 O149 1.258 1_545 S
O142 C140 1.247 . S
O142 Zn143 2.028 . S
Zn143 O142 2.028 . S
Zn143 O147 2.035 . S
Zn143 O149 2.035 . S
Zn143 O150 2.028 . S
O144 C140 1.258 1_545 S
O144 Zn145 2.035 . S
Zn145 O144 2.035 . S
Zn145 O146 2.028 . S
Zn145 O148 2.028 . S
Zn145 O151 2.035 . S
O146 Zn145 2.028 . S
O146 C152 1.247 . S
O147 Zn143 2.035 . S
O147 C152 1.258 1_565 S
O148 C141 1.247 . S
O148 Zn145 2.028 . S
O149 C141 1.258 1_565 S
O149 Zn143 2.035 . S
O150 Zn143 2.028 . S
O150 C153 1.247 . S
O151 Zn145 2.035 . S
O151 C153 1.258 1_545 S
C152 O146 1.247 . S
C152 O147 1.258 1_545 S
C153 O150 1.247 . S
C153 O151 1.258 1_565 S
C154 O156 1.247 . S
C154 O158 1.258 1_554 S
C155 O162 1.215 1_554 S
C155 O163 1.258 . S
O156 C154 1.247 . S
O156 Zn157 2.028 . S
Zn157 O156 2.028 . S
Zn157 O161 2.035 . S
Zn157 O163 2.035 . S
Zn157 O164 2.028 . S
O158 C154 1.258 1_556 S
O158 Zn159 2.035 . S
Zn159 O158 2.035 . S
Zn159 O160 2.043 . S
Zn159 O162 2.040 . S
Zn159 O165 2.035 . S
O160 Zn159 2.043 . S
O160 C166 1.208 1_556 S
O161 Zn157 2.035 . S
O161 C166 1.258 . S
O162 C155 1.215 1_556 S
O162 Zn159 2.040 . S
O163 C155 1.258 . S
O163 Zn157 2.035 . S
O164 Zn157 2.028 . S
O164 C167 1.247 . S
O165 Zn159 2.035 . S
O165 C167 1.258 1_556 S
C166 O160 1.208 1_554 S
C166 O161 1.258 . S
C167 O164 1.247 . S
C167 O165 1.258 1_554 S
Co168 N173 2.057 1_545 S
Co168 O185 2.021 . S
Co168 O188 2.062 . S
Co168 O192 2.117 . S
Co168 O193 2.020 1_455 S
C169 O189 1.259 . S
C169 O192 1.258 . S
Co170 N179 2.057 . S
Co170 O186 2.117 . S
Co170 O187 2.020 . S
Co170 O189 2.021 . S
Co170 O194 2.062 . S
C171 N173 1.316 . S
C171 N174 1.347 1_455 S
C171 H176 0.931 . S
C172 N173 1.375 1_655 S
C172 C175 1.350 . S
C172 H177 0.930 . S
N173 Co168 2.057 1_565 S
N173 C171 1.316 . S
N173 C172 1.375 1_455 S
N174 C171 1.347 1_655 S
N174 C175 1.373 . S
C175 C172 1.350 . S
C175 N174 1.373 . S
C175 H196 0.931 . S
H176 C171 0.931 . S
H177 C172 0.930 . S
C178 O185 1.259 1_556 S
C178 O186 1.258 1_556 S
N179 Co170 2.057 . S
N179 C180 1.316 . S
N179 C181 1.375 1_554 S
C180 N179 1.316 . S
C180 N182 1.347 . S
C180 H191 0.931 . S
C181 N179 1.375 1_556 S
C181 C183 1.350 . S
C181 H190 0.930 . S
N182 C180 1.347 . S
N182 C183 1.373 1_554 S
C183 C181 1.350 . S
C183 N182 1.373 1_556 S
C183 H197 0.931 . S
C184 O187 1.256 . S
C184 O188 1.255 . S
O185 Co168 2.021 . S
O185 C178 1.259 1_554 S
O186 Co170 2.117 . S
O186 C178 1.258 1_554 S
O187 Co170 2.020 . S
O187 C184 1.256 . S
O188 Co168 2.062 . S
O188 C184 1.255 . S
O189 C169 1.259 . S
O189 Co170 2.021 . S
H190 C181 0.930 . S
H191 C180 0.931 . S
O192 Co168 2.117 . S
O192 C169 1.258 . S
O193 Co168 2.020 1_655 S
O193 C195 1.256 . S
O194 Co170 2.062 . S
O194 C195 1.255 1_455 S
C195 O193 1.256 . S
C195 O194 1.255 1_655 S
H196 C175 0.931 . S
H197 C183 0.931 . S
Co198 N203 2.057 . S
Co198 O215 2.021 . S
Co198 O218 2.062 . S
Co198 O222 2.117 . S
Co198 O223 2.020 . S
C199 O219 1.259 . S
C199 O222 1.258 . S
Co200 N209 2.057 1_554 S
Co200 O216 2.117 . S
Co200 O217 2.020 . S
Co200 O219 2.021 . S
Co200 O224 2.062 . S
C201 N203 1.316 . S
C201 N204 1.347 . S
C201 H206 0.931 . S
C202 N203 1.375 . S
C202 C205 1.350 1_655 S
C202 H207 0.930 . S
N203 Co198 2.057 . S
N203 C201 1.316 . S
N203 C202 1.375 . S
N204 C201 1.347 . S
N204 C205 1.373 1_655 S
C205 C202 1.350 1_455 S
C205 N204 1.373 1_455 S
C205 H226 0.931 . S
H206 C201 0.931 . S
H207 C202 0.930 . S
C208 O215 1.259 . S
C208 O216 1.258 . S
N209 Co200 2.057 1_556 S
N209 C210 1.316 . S
N209 C211 1.375 . S
C210 N209 1.316 . S
C210 N212 1.347 . S
C210 H221 0.931 . S
C211 N209 1.375 . S
C211 C213 1.350 . S
C211 H220 0.930 . S
N212 C210 1.347 . S
N212 C213 1.373 . S
C213 C211 1.350 . S
C213 N212 1.373 . S
C213 H227 0.931 . S
C214 O217 1.238 1_455 S
C214 O218 1.249 1_455 S
O215 Co198 2.021 . S
O215 C208 1.259 . S
O216 Co200 2.117 . S
O216 C208 1.258 . S
O217 Co200 2.020 . S
O217 C214 1.238 1_655 S
O218 Co198 2.062 . S
O218 C214 1.249 1_655 S
O219 C199 1.259 . S
O219 Co200 2.021 . S
H220 C211 0.930 . S
H221 C210 0.931 . S
O222 Co198 2.117 . S
O222 C199 1.258 . S
O223 Co198 2.020 . S
O223 C225 1.256 . S
O224 Co200 2.062 . S
O224 C225 1.255 . S
C225 O223 1.256 . S
C225 O224 1.255 . S
H226 C205 0.931 . S
H227 C213 0.931 . S
Co228 N233 2.057 . S
Co228 O245 2.021 . S
Co228 O248 2.062 . S
Co228 O252 2.117 . S
Co228 O253 2.020 . S
C229 O249 1.259 . S
C229 O252 1.258 . S
Co230 N239 2.057 . S
Co230 O246 2.117 . S
Co230 O247 2.020 . S
Co230 O249 2.021 . S
Co230 O254 2.062 . S
C231 N233 1.316 . S
C231 N234 1.347 . S
C231 H236 0.931 . S
C232 N233 1.375 . S
C232 C235 1.356 . S
C232 H237 0.930 . S
N233 Co228 2.057 . S
N233 C231 1.316 . S
N233 C232 1.375 . S
N234 C231 1.347 . S
N234 C235 1.379 . S
C235 C232 1.356 . S
C235 N234 1.379 . S
C235 H256 0.922 1_565 S
H236 C231 0.931 . S
H237 C232 0.930 . S
C238 O245 1.259 . S
C238 O246 1.258 . S
N239 Co230 2.057 . S
N239 C240 1.316 . S
N239 C241 1.375 1_455 S
C240 N239 1.316 . S
C240 N242 1.347 . S
C240 H251 0.931 . S
C241 N239 1.375 1_655 S
C241 C243 1.350 . S
C241 H250 0.930 . S
N242 C240 1.347 . S
N242 C243 1.373 1_455 S
C243 C241 1.350 . S
C243 N242 1.373 1_655 S
C243 H257 0.931 . S
C244 O247 1.256 . S
C244 O248 1.255 . S
O245 Co228 2.021 . S
O245 C238 1.259 . S
O246 Co230 2.117 . S
O246 C238 1.258 . S
O247 Co230 2.020 . S
O247 C244 1.256 . S
O248 Co228 2.062 . S
O248 C244 1.255 . S
O249 C229 1.259 . S
O249 Co230 2.021 . S
H250 C241 0.930 . S
H251 C240 0.931 . S
O252 Co228 2.117 . S
O252 C229 1.258 . S
O253 Co228 2.020 . S
O253 C255 1.256 . S
O254 Co230 2.062 . S
O254 C255 1.255 . S
C255 O253 1.256 . S
C255 O254 1.255 . S
H256 C235 0.922 1_545 S
H257 C243 0.931 . S
Co258 N263 2.057 . S
Co258 O275 2.021 . S
Co258 O278 2.062 . S
Co258 O282 2.117 . S
Co258 O283 2.020 . S
C259 O279 1.259 . S
C259 O282 1.258 1_455 S
Co260 N269 2.057 . S
Co260 O276 2.117 . S
Co260 O277 2.020 . S
Co260 O279 2.021 1_655 S
Co260 O284 2.062 . S
C261 N263 1.316 . S
C261 N264 1.347 . S
C261 H266 0.931 . S
C262 N263 1.375 . S
C262 C265 1.350 . S
C262 H267 0.930 . S
N263 Co258 2.057 . S
N263 C261 1.316 . S
N263 C262 1.375 . S
N264 C261 1.347 . S
N264 C265 1.373 . S
C265 C262 1.350 . S
C265 N264 1.373 . S
C265 H286 0.931 . S
H266 C261 0.931 . S
H267 C262 0.930 . S
C268 O275 1.259 . S
C268 O276 1.258 . S
N269 Co260 2.057 . S
N269 C270 1.316 1_655 S
N269 C271 1.375 . S
C270 N269 1.316 1_455 S
C270 N272 1.347 . S
C270 H281 0.931 . S
C271 N269 1.375 . S
C271 C273 1.350 . S
C271 H280 0.930 . S
N272 C270 1.347 . S
N272 C273 1.373 1_455 S
C273 C271 1.350 . S
C273 N272 1.373 1_655 S
C273 H287 0.931 . S
C274 O277 1.256 . S
C274 O278 1.255 . S
O275 Co258 2.021 . S
O275 C268 1.259 . S
O276 Co260 2.117 . S
O276 C268 1.258 . S
O277 Co260 2.020 . S
O277 C274 1.256 . S
O278 Co258 2.062 . S
O278 C274 1.255 . S
O279 C259 1.259 . S
O279 Co260 2.021 1_455 S
H280 C271 0.930 . S
H281 C270 0.931 . S
O282 Co258 2.117 . S
O282 C259 1.258 1_655 S
O283 Co258 2.020 . S
O283 C285 1.256 . S
O284 Co260 2.062 . S
O284 C285 1.255 . S
C285 O283 1.256 . S
C285 O284 1.255 . S
H286 C265 0.931 . S
H287 C273 0.931 . S
Co288 N293 2.057 . S
Co288 O305 2.021 . S
Co288 O308 2.062 . S
Co288 O312 2.117 . S
Co288 O313 2.020 . S
C289 O309 1.259 . S
C289 O312 1.258 . S
Co290 N299 2.057 . S
Co290 O306 2.117 . S
Co290 O307 2.020 . S
Co290 O309 2.021 . S
Co290 O314 2.062 . S
C291 N293 1.316 . S
C291 N294 1.347 . S
C291 H296 0.931 . S
C292 N293 1.375 . S
C292 C295 1.350 . S
C292 H297 0.930 . S
N293 Co288 2.057 . S
N293 C291 1.316 . S
N293 C292 1.375 . S
N294 C291 1.347 . S
N294 C295 1.373 . S
C295 C292 1.350 . S
C295 N294 1.373 . S
C295 H316 0.931 . S
H296 C291 0.931 . S
H297 C292 0.930 . S
C298 O305 1.259 . S
C298 O306 1.258 . S
N299 Co290 2.057 . S
N299 C300 1.316 . S
N299 C301 1.375 . S
C300 N299 1.316 . S
C300 N302 1.347 . S
C300 H311 0.931 1_565 S
C301 N299 1.375 . S
C301 C303 1.350 . S
C301 H310 0.930 . S
N302 C300 1.347 . S
N302 C303 1.373 . S
C303 C301 1.350 . S
C303 N302 1.373 . S
C303 H317 0.931 . S
C304 O307 1.256 . S
C304 O308 1.255 . S
O305 Co288 2.021 . S
O305 C298 1.259 . S
O306 Co290 2.117 . S
O306 C298 1.258 . S
O307 Co290 2.020 . S
O307 C304 1.256 . S
O308 Co288 2.062 . S
O308 C304 1.255 . S
O309 C289 1.259 . S
O309 Co290 2.021 . S
H310 C301 0.930 . S
H311 C300 0.931 1_545 S
O312 Co288 2.117 . S
O312 C289 1.258 . S
O313 Co288 2.020 . S
O313 C315 1.256 . S
O314 Co290 2.062 . S
O314 C315 1.255 . S
C315 O313 1.256 . S
C315 O314 1.255 . S
H316 C295 0.931 . S
H317 C303 0.931 . S
Co318 N323 2.057 . S
Co318 O335 2.021 . S
Co318 O338 2.062 . S
Co318 O342 2.117 . S
Co318 O343 2.020 . S
C319 O339 1.259 . S
C319 O342 1.258 . S
Co320 N329 2.057 . S
Co320 O336 2.117 . S
Co320 O337 2.020 . S
Co320 O339 2.021 . S
Co320 O344 2.062 . S
C321 N323 1.316 . S
C321 N324 1.347 . S
C321 H326 0.931 . S
C322 N323 1.375 . S
C322 C325 1.350 . S
C322 H327 0.930 . S
N323 Co318 2.057 . S
N323 C321 1.316 . S
N323 C322 1.375 . S
N324 C321 1.347 . S
N324 C325 1.373 . S
C325 C322 1.350 . S
C325 N324 1.373 . S
C325 H346 0.931 . S
H326 C321 0.931 . S
H327 C322 0.930 . S
C328 O335 1.259 . S
C328 O336 1.258 . S
N329 Co320 2.057 . S
N329 C330 1.316 . S
N329 C331 1.375 . S
C330 N329 1.316 . S
C330 N332 1.347 . S
C330 H341 0.931 . S
C331 N329 1.375 . S
C331 C333 1.350 . S
C331 H340 0.930 . S
N332 C330 1.347 . S
N332 C333 1.373 . S
C333 C331 1.350 . S
C333 N332 1.373 . S
C333 H347 0.931 . S
C334 O337 1.256 . S
C334 O338 1.255 . S
O335 Co318 2.021 . S
O335 C328 1.259 . S
O336 Co320 2.117 . S
O336 C328 1.258 . S
O337 Co320 2.020 . S
O337 C334 1.256 . S
O338 Co318 2.062 . S
O338 C334 1.255 . S
O339 C319 1.259 . S
O339 Co320 2.021 . S
H340 C331 0.930 . S
H341 C330 0.931 . S
O342 Co318 2.117 . S
O342 C319 1.258 . S
O343 Co318 2.020 . S
O343 C345 1.256 . S
O344 Co320 2.062 . S
O344 C345 1.255 . S
C345 O343 1.256 . S
C345 O344 1.255 . S
H346 C325 0.931 . S
H347 C333 0.931 . S
Co348 N353 2.057 1_556 S
Co348 O365 2.021 . S
Co348 O368 2.062 . S
Co348 O372 2.117 . S
Co348 O373 2.020 . S
C349 O369 1.259 . S
C349 O372 1.258 . S
Co350 N359 2.057 . S
Co350 O366 2.117 . S
Co350 O367 2.020 . S
Co350 O369 2.021 . S
Co350 O374 2.062 . S
C351 N353 1.316 . S
C351 N354 1.347 . S
C351 H356 0.931 . S
C352 N353 1.375 1_556 S
C352 C355 1.350 1_556 S
C352 H357 0.930 . S
N353 Co348 2.057 1_554 S
N353 C351 1.316 . S
N353 C352 1.375 1_554 S
N354 C351 1.347 . S
N354 C355 1.373 . S
C355 C352 1.350 1_554 S
C355 N354 1.373 . S
C355 H376 0.931 . S
H356 C351 0.931 . S
H357 C352 0.930 . S
C358 O365 1.259 . S
C358 O366 1.258 . S
N359 Co350 2.057 . S
N359 C360 1.316 . S
N359 C361 1.375 . S
C360 N359 1.316 . S
C360 N362 1.347 . S
C360 H371 0.931 . S
C361 N359 1.375 . S
C361 C363 1.350 . S
C361 H370 0.930 . S
N362 C360 1.347 . S
N362 C363 1.373 . S
C363 C361 1.350 . S
C363 N362 1.373 . S
C363 H377 0.931 . S
C364 O367 1.256 . S
C364 O368 1.255 . S
O365 Co348 2.021 . S
O365 C358 1.259 . S
O366 Co350 2.117 . S
O366 C358 1.258 . S
O367 Co350 2.020 . S
O367 C364 1.256 . S
O368 Co348 2.062 . S
O368 C364 1.255 . S
O369 C349 1.259 . S
O369 Co350 2.021 . S
H370 C361 0.930 . S
H371 C360 0.931 . S
O372 Co348 2.117 . S
O372 C349 1.258 . S
O373 Co348 2.020 . S
O373 C375 1.256 . S
O374 Co350 2.062 . S
O374 C375 1.255 . S
C375 O373 1.256 . S
C375 O374 1.255 . S
H376 C355 0.931 . S
H377 C363 0.931 . S
Co378 N383 2.057 . S
Co378 O395 2.021 . S
Co378 O398 2.062 . S
Co378 O402 2.117 . S
Co378 O403 2.020 . S
C379 O399 1.259 . S
C379 O402 1.258 . S
Co380 N389 2.057 1_545 S
Co380 O396 2.117 . S
Co380 O397 2.020 . S
Co380 O399 2.021 . S
Co380 O404 2.062 . S
C381 N383 1.316 . S
C381 N384 1.347 . S
C381 H386 0.931 . S
C382 N383 1.375 . S
C382 C385 1.350 . S
C382 H387 0.930 . S
N383 Co378 2.057 . S
N383 C381 1.316 . S
N383 C382 1.375 . S
N384 C381 1.347 . S
N384 C385 1.373 . S
C385 C382 1.350 . S
C385 N384 1.373 . S
C385 H406 0.931 1_556 S
H386 C381 0.931 . S
H387 C382 0.930 . S
C388 O395 1.259 . S
C388 O396 1.258 . S
N389 Co380 2.057 1_565 S
N389 C390 1.316 . S
N389 C391 1.375 . S
C390 N389 1.316 . S
C390 N392 1.347 . S
C390 H401 0.931 . S
C391 N389 1.375 . S
C391 C393 1.350 . S
C391 H400 0.930 . S
N392 C390 1.347 . S
N392 C393 1.373 . S
C393 C391 1.350 . S
C393 N392 1.373 . S
C393 H407 0.931 . S
C394 O397 1.256 1_554 S
C394 O398 1.255 1_554 S
O395 Co378 2.021 . S
O395 C388 1.259 . S
O396 Co380 2.117 . S
O396 C388 1.258 . S
O397 Co380 2.020 . S
O397 C394 1.256 1_556 S
O398 Co378 2.062 . S
O398 C394 1.255 1_556 S
O399 C379 1.259 . S
O399 Co380 2.021 . S
H400 C391 0.930 . S
H401 C390 0.931 . S
O402 Co378 2.117 . S
O402 C379 1.258 . S
O403 Co378 2.020 . S
O403 C405 1.256 . S
O404 Co380 2.062 . S
O404 C405 1.255 . S
C405 O403 1.256 . S
C405 O404 1.255 . S
H406 C385 0.931 1_554 S
H407 C393 0.931 . S
H408 C414 0.930 1_655 S
H409 C418 0.930 . S
H410 C423 0.929 . S
H411 C421 0.941 . S
H412 C416 0.929 . S
H413 C422 0.929 1_655 S
C414 H408 0.930 1_455 S
C414 C415 1.367 . S
C414 C422 1.378 . S
C415 C414 1.367 . S
C415 C423 1.433 . S
C416 H412 0.929 . S
C416 C418 1.378 . S
C416 C420 1.350 . S
C417 C420 1.463 . S
C417 C422 1.350 . S
C417 N425 1.427 . S
C418 H409 0.930 . S
C418 C416 1.378 . S
C418 C419 1.367 . S
C419 C418 1.367 . S
C419 C421 1.422 1_455 S
C420 C416 1.350 . S
C420 C417 1.463 . S
C420 N424 1.427 . S
C421 H411 0.941 . S
C421 C419 1.422 1_655 S
C421 N424 1.383 1_655 S
C422 H413 0.929 1_455 S
C422 C414 1.378 . S
C422 C417 1.350 . S
C423 H410 0.929 . S
C423 C415 1.433 . S
C423 N425 1.384 . S
N424 C420 1.427 . S
N424 C421 1.383 1_455 S
N425 C417 1.427 . S
N425 C423 1.384 . S
H426 C432 0.930 . S
H427 C436 0.930 . S
H428 C441 0.929 . S
H429 C439 0.929 . S
H430 C434 0.929 . S
H431 C440 0.929 . S
C432 H426 0.930 . S
C432 C433 1.367 . S
C432 C440 1.378 . S
C433 C432 1.367 . S
C433 C441 1.433 . S
C434 H430 0.929 . S
C434 C436 1.378 . S
C434 C438 1.350 . S
C435 C438 1.463 . S
C435 C440 1.350 . S
C435 N443 1.427 . S
C436 H427 0.930 . S
C436 C434 1.378 . S
C436 C437 1.367 . S
C437 C436 1.367 . S
C437 C439 1.433 . S
C438 C434 1.350 . S
C438 C435 1.463 . S
C438 N442 1.427 . S
C439 H429 0.929 . S
C439 C437 1.433 . S
C439 N442 1.384 . S
C440 H431 0.929 . S
C440 C432 1.378 . S
C440 C435 1.350 . S
C441 H428 0.929 . S
C441 C433 1.433 . S
C441 N443 1.384 . S
N442 C438 1.427 . S
N442 C439 1.384 . S
N443 C435 1.427 . S
N443 C441 1.384 . S
H444 C450 0.930 . S
H445 C454 0.930 . S
H446 C459 0.929 . S
H447 C457 0.929 . S
H448 C452 0.929 . S
H449 C458 0.929 . S
C450 H444 0.930 . S
C450 C451 1.367 . S
C450 C458 1.378 . S
C451 C450 1.367 . S
C451 C459 1.433 1_455 S
C452 H448 0.929 . S
C452 C454 1.378 . S
C452 C456 1.350 1_655 S
C453 C456 1.463 . S
C453 C458 1.350 . S
C453 N461 1.427 1_455 S
C454 H445 0.930 . S
C454 C452 1.378 . S
C454 C455 1.367 . S
C455 C454 1.367 . S
C455 C457 1.433 1_655 S
C456 C452 1.350 1_455 S
C456 C453 1.463 . S
C456 N460 1.427 . S
C457 H447 0.929 . S
C457 C455 1.433 1_455 S
C457 N460 1.384 . S
C458 H449 0.929 . S
C458 C450 1.378 . S
C458 C453 1.350 . S
C459 H446 0.929 . S
C459 C451 1.433 1_655 S
C459 N461 1.384 . S
N460 C456 1.427 . S
N460 C457 1.384 . S
N461 C453 1.427 1_655 S
N461 C459 1.384 . S
H462 C468 0.930 . S
H463 C472 0.930 . S
H464 C477 0.929 . S
H465 C475 0.929 . S
H466 C470 0.929 . S
H467 C476 0.929 . S
C468 H462 0.930 . S
C468 C469 1.367 . S
C468 C476 1.378 . S
C469 C468 1.367 . S
C469 C477 1.433 1_655 S
C470 H466 0.929 . S
C470 C472 1.378 . S
C470 C474 1.350 1_455 S
C471 C474 1.463 . S
C471 C476 1.350 . S
C471 N479 1.427 1_655 S
C472 H463 0.930 . S
C472 C470 1.378 . S
C472 C473 1.367 1_455 S
C473 C472 1.367 1_655 S
C473 C475 1.433 . S
C474 C470 1.350 1_655 S
C474 C471 1.463 . S
C474 N478 1.427 . S
C475 H465 0.929 . S
C475 C473 1.433 . S
C475 N478 1.384 . S
C476 H467 0.929 . S
C476 C468 1.378 . S
C476 C471 1.350 . S
C477 H464 0.929 . S
C477 C469 1.433 1_455 S
C477 N479 1.384 . S
N478 C474 1.427 . S
N478 C475 1.384 . S
N479 C471 1.427 1_455 S
N479 C477 1.384 . S
H480 C486 0.930 . S
H481 C490 0.930 . S
H482 C495 0.929 . S
H483 C493 0.929 . S
H484 C488 0.929 . S
H485 C494 0.929 . S
C486 H480 0.930 . S
C486 C487 1.367 1_565 S
C486 C494 1.378 . S
C487 C486 1.367 1_545 S
C487 C495 1.433 . S
C488 H484 0.929 . S
C488 C490 1.378 . S
C488 C492 1.350 . S
C489 C492 1.463 . S
C489 C494 1.350 1_545 S
C489 N497 1.427 . S
C490 H481 0.930 . S
C490 C488 1.378 . S
C490 C491 1.367 . S
C491 C490 1.367 . S
C491 C493 1.433 1_545 S
C492 C488 1.350 . S
C492 C489 1.463 . S
C492 N496 1.427 1_545 S
C493 H483 0.929 . S
C493 C491 1.433 1_565 S
C493 N496 1.384 . S
C494 H485 0.929 . S
C494 C486 1.378 . S
C494 C489 1.350 1_565 S
C495 H482 0.929 . S
C495 C487 1.433 . S
C495 N497 1.384 . S
N496 C492 1.427 1_565 S
N496 C493 1.384 . S
N497 C489 1.427 . S
N497 C495 1.384 . S
H498 C504 0.930 . S
H499 C508 0.930 . S
H500 C513 0.929 . S
H501 C511 0.929 . S
H502 C506 0.929 . S
H503 C512 0.929 . S
C504 H498 0.930 . S
C504 C505 1.367 . S
C504 C512 1.378 . S
C505 C504 1.367 . S
C505 C513 1.433 . S
C506 H502 0.929 . S
C506 C508 1.378 . S
C506 C510 1.350 . S
C507 C510 1.463 . S
C507 C512 1.350 . S
C507 N515 1.427 . S
C508 H499 0.930 . S
C508 C506 1.378 . S
C508 C509 1.367 . S
C509 C508 1.367 . S
C509 C511 1.433 . S
C510 C506 1.350 . S
C510 C507 1.463 . S
C510 N514 1.427 . S
C511 H501 0.929 . S
C511 C509 1.433 . S
C511 N514 1.384 . S
C512 H503 0.929 . S
C512 C504 1.378 . S
C512 C507 1.350 . S
C513 H500 0.929 . S
C513 C505 1.433 . S
C513 N515 1.384 . S
N514 C510 1.427 . S
N514 C511 1.384 . S
N515 C507 1.427 . S
N515 C513 1.384 . S
H516 C522 0.930 . S
H517 C526 0.930 . S
H518 C531 0.929 . S
H519 C529 0.929 . S
H520 C524 0.929 . S
H521 C530 0.929 . S
C522 H516 0.930 . S
C522 C523 1.367 . S
C522 C530 1.378 . S
C523 C522 1.367 . S
C523 C531 1.433 1_565 S
C524 H520 0.929 . S
C524 C526 1.378 . S
C524 C528 1.350 1_545 S
C525 C528 1.463 . S
C525 C530 1.350 . S
C525 N533 1.427 1_565 S
C526 H517 0.930 . S
C526 C524 1.378 . S
C526 C527 1.359 1_545 S
C527 C526 1.359 1_565 S
C527 C529 1.441 . S
C528 C524 1.350 1_565 S
C528 C525 1.463 . S
C528 N532 1.427 . S
C529 H519 0.929 . S
C529 C527 1.441 . S
C529 N532 1.384 . S
C530 H521 0.929 . S
C530 C522 1.378 . S
C530 C525 1.350 . S
C531 H518 0.929 . S
C531 C523 1.433 1_545 S
C531 N533 1.384 . S
N532 C528 1.427 . S
N532 C529 1.384 . S
N533 C525 1.427 1_545 S
N533 C531 1.384 . S
H534 C540 0.930 . S
H535 C544 0.930 . S
H536 C549 0.929 . S
H537 C547 0.929 . S
H538 C542 0.929 . S
H539 C548 0.929 . S
C540 H534 0.930 . S
C540 C541 1.367 . S
C540 C548 1.378 . S
C541 C540 1.367 . S
C541 C549 1.433 . S
C542 H538 0.929 . S
C542 C544 1.378 . S
C542 C546 1.350 . S
C543 C546 1.463 . S
C543 C548 1.350 . S
C543 N551 1.427 . S
C544 H535 0.930 . S
C544 C542 1.378 . S
C544 C545 1.367 . S
C545 C544 1.367 . S
C545 C547 1.433 . S
C546 C542 1.350 . S
C546 C543 1.463 . S
C546 N550 1.427 . S
C547 H537 0.929 . S
C547 C545 1.433 . S
C547 N550 1.384 . S
C548 H539 0.929 . S
C548 C540 1.378 . S
C548 C543 1.350 . S
C549 H536 0.929 . S
C549 C541 1.433 . S
C549 N551 1.384 . S
N550 C546 1.427 . S
N550 C547 1.384 . S
N551 C543 1.427 . S
N551 C549 1.384 . S
H552 C558 0.930 . S
H553 C562 0.930 . S
H554 C567 0.929 . S
H555 C565 0.929 . S
H556 C560 0.929 . S
H557 C566 0.929 . S
C558 H552 0.930 . S
C558 C559 1.367 . S
C558 C566 1.378 . S
C559 C558 1.367 . S
C559 C567 1.433 . S
C560 H556 0.929 . S
C560 C562 1.378 . S
C560 C564 1.350 . S
C561 C564 1.463 . S
C561 C566 1.350 . S
C561 N569 1.427 . S
C562 H553 0.930 . S
C562 C560 1.378 . S
C562 C563 1.367 . S
C563 C562 1.367 . S
C563 C565 1.433 . S
C564 C560 1.350 . S
C564 C561 1.463 . S
C564 N568 1.427 . S
C565 H555 0.929 . S
C565 C563 1.433 . S
C565 N568 1.384 . S
C566 H557 0.929 . S
C566 C558 1.378 . S
C566 C561 1.350 . S
C567 H554 0.929 . S
C567 C559 1.433 . S
C567 N569 1.384 . S
N568 C564 1.427 . S
N568 C565 1.384 . S
N569 C561 1.427 . S
N569 C567 1.384 . S
H570 C576 0.930 . S
H571 C580 0.930 . S
H572 C585 0.929 . S
H573 C583 0.929 . S
H574 C578 0.929 . S
H575 C584 0.929 . S
C576 H570 0.930 . S
C576 C577 1.367 . S
C576 C584 1.378 . S
C577 C576 1.367 . S
C577 C585 1.433 . S
C578 H574 0.929 . S
C578 C580 1.378 . S
C578 C582 1.350 . S
C579 C582 1.463 . S
C579 C584 1.350 . S
C579 N587 1.427 . S
C580 H571 0.930 . S
C580 C578 1.378 . S
C580 C581 1.367 . S
C581 C580 1.367 . S
C581 C583 1.433 . S
C582 C578 1.350 . S
C582 C579 1.463 . S
C582 N586 1.427 . S
C583 H573 0.929 . S
C583 C581 1.433 . S
C583 N586 1.384 . S
C584 H575 0.929 . S
C584 C576 1.378 . S
C584 C579 1.350 . S
C585 H572 0.929 . S
C585 C577 1.433 . S
C585 N587 1.384 . S
N586 C582 1.427 . S
N586 C583 1.384 . S
N587 C579 1.427 . S
N587 C585 1.384 . S
H588 C594 0.930 . S
H589 C598 0.930 . S
H590 C603 0.929 . S
H591 C601 0.929 . S
H592 C596 0.929 . S
H593 C602 0.929 . S
C594 H588 0.930 . S
C594 C595 1.367 . S
C594 C602 1.378 . S
C595 C594 1.367 . S
C595 C603 1.433 . S
C596 H592 0.929 . S
C596 C598 1.378 . S
C596 C600 1.350 . S
C597 C600 1.463 . S
C597 C602 1.350 . S
C597 N605 1.427 . S
C598 H589 0.930 . S
C598 C596 1.378 . S
C598 C599 1.367 . S
C599 C598 1.367 . S
C599 C601 1.433 . S
C600 C596 1.350 . S
C600 C597 1.463 . S
C600 N604 1.427 . S
C601 H591 0.929 . S
C601 C599 1.433 . S
C601 N604 1.384 . S
C602 H593 0.929 . S
C602 C594 1.378 . S
C602 C597 1.350 . S
C603 H590 0.929 . S
C603 C595 1.433 . S
C603 N605 1.384 . S
N604 C600 1.427 . S
N604 C601 1.384 . S
N605 C597 1.427 . S
N605 C603 1.384 . S
H606 C612 0.930 . S
H607 C616 0.930 . S
H608 C621 0.929 . S
H609 C619 0.929 . S
H610 C614 0.929 . S
H611 C620 0.929 . S
C612 H606 0.930 . S
C612 C613 1.367 . S
C612 C620 1.378 . S
C613 C612 1.367 . S
C613 C621 1.433 . S
C614 H610 0.929 . S
C614 C616 1.378 . S
C614 C618 1.350 . S
C615 C618 1.463 . S
C615 C620 1.350 . S
C615 N623 1.427 . S
C616 H607 0.930 . S
C616 C614 1.378 . S
C616 C617 1.367 . S
C617 C616 1.367 . S
C617 C619 1.433 . S
C618 C614 1.350 . S
C618 C615 1.463 . S
C618 N622 1.427 . S
C619 H609 0.929 . S
C619 C617 1.433 . S
C619 N622 1.384 . S
C620 H611 0.929 . S
C620 C612 1.378 . S
C620 C615 1.350 . S
C621 H608 0.929 . S
C621 C613 1.433 . S
C621 N623 1.384 . S
N622 C618 1.427 . S
N622 C619 1.384 . S
N623 C615 1.427 . S
N623 C621 1.384 . S
H624 C630 0.930 . S
H625 C634 0.930 . S
H626 C639 0.929 . S
H627 C637 0.929 . S
H628 C632 0.929 . S
H629 C638 0.929 . S
C630 H624 0.930 . S
C630 C631 1.367 . S
C630 C638 1.378 . S
C631 C630 1.367 . S
C631 C639 1.433 . S
C632 H628 0.929 . S
C632 C634 1.378 . S
C632 C636 1.350 . S
C633 C636 1.463 . S
C633 C638 1.350 . S
C633 N641 1.427 . S
C634 H625 0.930 . S
C634 C632 1.378 . S
C634 C635 1.367 . S
C635 C634 1.367 . S
C635 C637 1.433 . S
C636 C632 1.350 . S
C636 C633 1.463 . S
C636 N640 1.427 . S
C637 H627 0.929 . S
C637 C635 1.433 . S
C637 N640 1.384 . S
C638 H629 0.929 . S
C638 C630 1.378 . S
C638 C633 1.350 . S
C639 H626 0.929 . S
C639 C631 1.433 . S
C639 N641 1.384 . S
N640 C636 1.427 . S
N640 C637 1.384 . S
N641 C633 1.427 . S
N641 C639 1.384 . S
H642 C648 0.930 . S
H643 C652 0.930 . S
H644 C657 0.929 . S
H645 C655 0.929 . S
H646 C650 0.929 . S
H647 C656 0.929 . S
C648 H642 0.930 . S
C648 C649 1.367 . S
C648 C656 1.378 . S
C649 C648 1.367 . S
C649 C657 1.433 . S
C650 H646 0.929 . S
C650 C652 1.378 . S
C650 C654 1.350 . S
C651 C654 1.463 . S
C651 C656 1.350 . S
C651 N659 1.427 . S
C652 H643 0.930 . S
C652 C650 1.378 . S
C652 C653 1.367 . S
C653 C652 1.367 . S
C653 C655 1.433 . S
C654 C650 1.350 . S
C654 C651 1.463 . S
C654 N658 1.427 . S
C655 H645 0.929 . S
C655 C653 1.433 . S
C655 N658 1.384 . S
C656 H647 0.929 . S
C656 C648 1.378 . S
C656 C651 1.350 . S
C657 H644 0.929 . S
C657 C649 1.433 . S
C657 N659 1.384 . S
N658 C654 1.427 . S
N658 C655 1.384 . S
N659 C651 1.427 . S
N659 C657 1.384 . S
H660 C666 0.930 . S
H661 C670 0.930 . S
H662 C675 0.929 . S
H663 C673 0.929 . S
H664 C668 0.929 . S
H665 C674 0.929 . S
C666 H660 0.930 . S
C666 C667 1.367 . S
C666 C674 1.378 . S
C667 C666 1.367 . S
C667 C675 1.433 . S
C668 H664 0.929 . S
C668 C670 1.378 . S
C668 C672 1.350 . S
C669 C672 1.463 . S
C669 C674 1.350 . S
C669 N677 1.427 . S
C670 H661 0.930 . S
C670 C668 1.378 . S
C670 C671 1.367 . S
C671 C670 1.367 . S
C671 C673 1.433 . S
C672 C668 1.350 . S
C672 C669 1.463 . S
C672 N676 1.427 . S
C673 H663 0.929 . S
C673 C671 1.433 . S
C673 N676 1.384 . S
C674 H665 0.929 . S
C674 C666 1.378 . S
C674 C669 1.350 . S
C675 H662 0.929 . S
C675 C667 1.433 . S
C675 N677 1.384 . S
N676 C672 1.427 . S
N676 C673 1.384 . S
N677 C669 1.427 . S
N677 C675 1.384 . S
H678 C684 0.930 . S
H679 C688 0.930 . S
H680 C693 0.929 . S
H681 C691 0.929 . S
H682 C686 0.929 . S
H683 C692 0.929 . S
C684 H678 0.930 . S
C684 C685 1.367 . S
C684 C692 1.378 . S
C685 C684 1.367 . S
C685 C693 1.433 . S
C686 H682 0.929 . S
C686 C688 1.378 . S
C686 C690 1.350 . S
C687 C690 1.463 . S
C687 C692 1.350 . S
C687 N695 1.427 . S
C688 H679 0.930 . S
C688 C686 1.378 . S
C688 C689 1.367 . S
C689 C688 1.367 . S
C689 C691 1.433 . S
C690 C686 1.350 . S
C690 C687 1.463 . S
C690 N694 1.427 . S
C691 H681 0.929 . S
C691 C689 1.433 . S
C691 N694 1.384 . S
C692 H683 0.929 . S
C692 C684 1.378 . S
C692 C687 1.350 . S
C693 H680 0.929 . S
C693 C685 1.433 . S
C693 N695 1.384 . S
N694 C690 1.427 . S
N694 C691 1.384 . S
N695 C687 1.427 . S
N695 C693 1.384 . S
H696 C702 0.930 . S
H697 C706 0.930 . S
H698 C711 0.929 . S
H699 C709 0.929 . S
H700 C704 0.929 . S
H701 C710 0.929 . S
C702 H696 0.930 . S
C702 C703 1.367 . S
C702 C710 1.378 . S
C703 C702 1.367 . S
C703 C711 1.433 . S
C704 H700 0.929 . S
C704 C706 1.378 . S
C704 C708 1.350 . S
C705 C708 1.463 . S
C705 C710 1.350 . S
C705 N713 1.427 . S
C706 H697 0.930 . S
C706 C704 1.378 . S
C706 C707 1.367 . S
C707 C706 1.367 . S
C707 C709 1.433 . S
C708 C704 1.350 . S
C708 C705 1.463 . S
C708 N712 1.427 . S
C709 H699 0.929 . S
C709 C707 1.433 . S
C709 N712 1.384 . S
C710 H701 0.929 . S
C710 C702 1.378 . S
C710 C705 1.350 . S
C711 H698 0.929 . S
C711 C703 1.433 . S
C711 N713 1.384 . S
N712 C708 1.427 . S
N712 C709 1.384 . S
N713 C705 1.427 . S
N713 C711 1.384 . S
H714 C720 0.930 . S
H715 C724 0.930 . S
H716 C729 0.929 . S
H717 C727 0.929 . S
H718 C722 0.929 . S
H719 C728 0.929 . S
C720 H714 0.930 . S
C720 C721 1.367 . S
C720 C728 1.378 . S
C721 C720 1.367 . S
C721 C729 1.433 1_565 S
C722 H718 0.929 . S
C722 C724 1.378 . S
C722 C726 1.350 1_545 S
C723 C726 1.463 . S
C723 C728 1.350 . S
C723 N731 1.427 1_565 S
C724 H715 0.930 . S
C724 C722 1.378 . S
C724 C725 1.367 1_545 S
C725 C724 1.367 1_565 S
C725 C727 1.433 . S
C726 C722 1.350 1_565 S
C726 C723 1.463 . S
C726 N730 1.427 . S
C727 H717 0.929 . S
C727 C725 1.433 . S
C727 N730 1.384 . S
C728 H719 0.929 . S
C728 C720 1.378 . S
C728 C723 1.350 . S
C729 H716 0.929 . S
C729 C721 1.433 1_545 S
C729 N731 1.384 . S
N730 C726 1.427 . S
N730 C727 1.384 . S
N731 C723 1.427 1_545 S
N731 C729 1.384 . S
H732 C738 0.930 . S
H733 C742 0.930 . S
H734 C747 0.929 . S
H735 C745 0.929 . S
H736 C740 0.929 . S
H737 C746 0.929 . S
C738 H732 0.930 . S
C738 C739 1.367 . S
C738 C746 1.378 . S
C739 C738 1.367 . S
C739 C747 1.433 . S
C740 H736 0.929 . S
C740 C742 1.378 . S
C740 C744 1.350 . S
C741 C744 1.463 . S
C741 C746 1.350 . S
C741 N749 1.427 . S
C742 H733 0.930 . S
C742 C740 1.378 . S
C742 C743 1.367 . S
C743 C742 1.367 . S
C743 C745 1.433 . S
C744 C740 1.350 . S
C744 C741 1.463 . S
C744 N748 1.427 . S
C745 H735 0.929 . S
C745 C743 1.433 . S
C745 N748 1.384 . S
C746 H737 0.929 . S
C746 C738 1.378 . S
C746 C741 1.350 . S
C747 H734 0.929 . S
C747 C739 1.433 . S
C747 N749 1.384 . S
N748 C744 1.427 . S
N748 C745 1.384 . S
N749 C741 1.427 . S
N749 C747 1.384 . S
H750 C756 0.930 . S
H751 C760 0.930 . S
H752 C765 0.929 . S
H753 C763 0.929 . S
H754 C758 0.929 . S
H755 C764 0.929 . S
C756 H750 0.930 . S
C756 C757 1.367 . S
C756 C764 1.378 . S
C757 C756 1.367 . S
C757 C765 1.433 1_545 S
C758 H754 0.929 . S
C758 C760 1.378 . S
C758 C762 1.350 1_565 S
C759 C762 1.463 . S
C759 C764 1.350 . S
C759 N767 1.427 1_545 S
C760 H751 0.930 . S
C760 C758 1.378 . S
C760 C761 1.367 1_565 S
C761 C760 1.367 1_545 S
C761 C763 1.433 . S
C762 C758 1.350 1_545 S
C762 C759 1.463 . S
C762 N766 1.427 . S
C763 H753 0.929 . S
C763 C761 1.433 . S
C763 N766 1.384 . S
C764 H755 0.929 . S
C764 C756 1.378 . S
C764 C759 1.350 . S
C765 H752 0.929 . S
C765 C757 1.433 1_565 S
C765 N767 1.384 . S
N766 C762 1.427 . S
N766 C763 1.384 . S
N767 C759 1.427 1_565 S
N767 C765 1.384 . S
H768 C774 0.930 . S
H769 C778 0.930 . S
H770 C783 0.929 . S
H771 C781 0.929 . S
H772 C776 0.929 . S
H773 C782 0.929 . S
C774 H768 0.930 . S
C774 C775 1.367 . S
C774 C782 1.378 . S
C775 C774 1.367 . S
C775 C783 1.433 . S
C776 H772 0.929 . S
C776 C778 1.378 . S
C776 C780 1.350 . S
C777 C780 1.463 . S
C777 C782 1.350 . S
C777 N785 1.427 . S
C778 H769 0.930 . S
C778 C776 1.378 . S
C778 C779 1.367 . S
C779 C778 1.367 . S
C779 C781 1.433 . S
C780 C776 1.350 . S
C780 C777 1.463 . S
C780 N784 1.427 . S
C781 H771 0.929 . S
C781 C779 1.433 . S
C781 N784 1.384 . S
C782 H773 0.929 . S
C782 C774 1.378 . S
C782 C777 1.350 . S
C783 H770 0.929 . S
C783 C775 1.433 . S
C783 N785 1.384 . S
N784 C780 1.427 . S
N784 C781 1.384 . S
N785 C777 1.427 . S
N785 C783 1.384 . S
H786 C792 0.930 . S
H787 C796 0.930 . S
H788 C801 0.929 . S
H789 C799 0.929 . S
H790 C794 0.929 . S
H791 C800 0.929 . S
C792 H786 0.930 . S
C792 C793 1.367 1_556 S
C792 C800 1.378 . S
C793 C792 1.367 1_554 S
C793 C801 1.433 . S
C794 H790 0.929 . S
C794 C796 1.378 . S
C794 C798 1.350 1_554 S
C795 C798 1.463 . S
C795 C800 1.350 . S
C795 N803 1.427 1_556 S
C796 H787 0.930 . S
C796 C794 1.378 . S
C796 C797 1.367 1_554 S
C797 C796 1.367 1_556 S
C797 C799 1.433 . S
C798 C794 1.350 1_556 S
C798 C795 1.463 . S
C798 N802 1.427 . S
C799 H789 0.929 . S
C799 C797 1.433 . S
C799 N802 1.384 . S
C800 H791 0.929 . S
C800 C792 1.378 . S
C800 C795 1.350 . S
C801 H788 0.929 . S
C801 C793 1.433 . S
C801 N803 1.384 . S
N802 C798 1.427 . S
N802 C799 1.384 . S
N803 C795 1.427 1_554 S
N803 C801 1.384 . S
H804 C810 0.930 . S
H805 C814 0.930 . S
H806 C819 0.929 . S
H807 C817 0.929 . S
H808 C812 0.929 . S
H809 C818 0.929 . S
C810 H804 0.930 . S
C810 C811 1.367 1_556 S
C810 C818 1.378 . S
C811 C810 1.367 1_554 S
C811 C819 1.433 . S
C812 H808 0.929 . S
C812 C814 1.378 . S
C812 C816 1.350 1_554 S
C813 C816 1.463 . S
C813 C818 1.350 . S
C813 N821 1.427 1_556 S
C814 H805 0.930 . S
C814 C812 1.378 . S
C814 C815 1.367 1_554 S
C815 C814 1.367 1_556 S
C815 C817 1.433 . S
C816 C812 1.350 1_556 S
C816 C813 1.463 . S
C816 N820 1.427 . S
C817 H807 0.929 . S
C817 C815 1.433 . S
C817 N820 1.384 . S
C818 H809 0.929 . S
C818 C810 1.378 . S
C818 C813 1.350 . S
C819 H806 0.929 . S
C819 C811 1.433 . S
C819 N821 1.384 . S
N820 C816 1.427 . S
N820 C817 1.384 . S
N821 C813 1.427 1_554 S
N821 C819 1.384 . S
H822 C828 0.930 1_556 S
H823 C832 0.930 . S
H824 C837 0.929 . S
H825 C835 0.929 1_556 S
H826 C830 0.929 . S
H827 C836 0.929 1_556 S
C828 H822 0.930 1_554 S
C828 C829 1.367 . S
C828 C836 1.378 . S
C829 C828 1.367 . S
C829 C837 1.433 . S
C830 H826 0.929 . S
C830 C832 1.378 . S
C830 C834 1.350 . S
C831 C834 1.463 . S
C831 C836 1.350 . S
C831 N839 1.427 . S
C832 H823 0.930 . S
C832 C830 1.378 . S
C832 C833 1.367 . S
C833 C832 1.367 . S
C833 C835 1.433 . S
C834 C830 1.350 . S
C834 C831 1.463 . S
C834 N838 1.427 . S
C835 H825 0.929 1_554 S
C835 C833 1.433 . S
C835 N838 1.384 . S
C836 H827 0.929 1_554 S
C836 C828 1.378 . S
C836 C831 1.350 . S
C837 H824 0.929 . S
C837 C829 1.433 . S
C837 N839 1.384 . S
N838 C834 1.427 . S
N838 C835 1.384 . S
N839 C831 1.427 . S
N839 C837 1.384 . S
H840 C846 0.930 . S
H841 C850 0.930 . S
H842 C855 0.929 . S
H843 C853 0.929 . S
H844 C848 0.929 . S
H845 C854 0.929 . S
C846 H840 0.930 . S
C846 C847 1.367 . S
C846 C854 1.378 . S
C847 C846 1.367 . S
C847 C855 1.433 . S
C848 H844 0.929 . S
C848 C850 1.378 . S
C848 C852 1.350 . S
C849 C852 1.463 . S
C849 C854 1.350 . S
C849 N857 1.427 . S
C850 H841 0.930 . S
C850 C848 1.378 . S
C850 C851 1.367 . S
C851 C850 1.367 . S
C851 C853 1.433 . S
C852 C848 1.350 . S
C852 C849 1.463 . S
C852 N856 1.427 . S
C853 H843 0.929 . S
C853 C851 1.433 . S
C853 N856 1.384 . S
C854 H845 0.929 . S
C854 C846 1.378 . S
C854 C849 1.350 . S
C855 H842 0.929 . S
C855 C847 1.433 . S
C855 N857 1.384 . S
N856 C852 1.427 . S
N856 C853 1.384 . S
N857 C849 1.427 . S
N857 C855 1.384 . S
H858 C864 0.930 . S
H859 C868 0.930 . S
H860 C873 0.929 . S
H861 C871 0.929 . S
H862 C866 0.929 . S
H863 C872 0.929 . S
C864 H858 0.930 . S
C864 C865 1.367 . S
C864 C872 1.378 . S
C865 C864 1.367 . S
C865 C873 1.433 1_455 S
C866 H862 0.929 . S
C866 C868 1.378 . S
C866 C870 1.350 1_655 S
C867 C870 1.463 . S
C867 C872 1.350 . S
C867 N875 1.427 1_455 S
C868 H859 0.930 . S
C868 C866 1.378 . S
C868 C869 1.389 . S
C869 C868 1.389 . S
C869 C871 1.407 1_655 S
C870 C866 1.350 1_455 S
C870 C867 1.463 . S
C870 N874 1.427 . S
C871 H861 0.929 . S
C871 C869 1.407 1_455 S
C871 N874 1.384 . S
C872 H863 0.929 . S
C872 C864 1.378 . S
C872 C867 1.350 . S
C873 H860 0.929 . S
C873 C865 1.433 1_655 S
C873 N875 1.384 . S
N874 C870 1.427 . S
N874 C871 1.384 . S
N875 C867 1.427 1_655 S
N875 C873 1.384 . S
H876 C882 0.930 . S
H877 C886 0.930 . S
H878 C891 0.929 . S
H879 C889 0.929 . S
H880 C884 0.929 . S
H881 C890 0.929 . S
C882 H876 0.930 . S
C882 C883 1.367 . S
C882 C890 1.378 . S
C883 C882 1.367 . S
C883 C891 1.433 1_455 S
C884 H880 0.929 . S
C884 C886 1.378 . S
C884 C888 1.350 1_655 S
C885 C888 1.463 . S
C885 C890 1.350 . S
C885 N893 1.427 1_455 S
C886 H877 0.930 . S
C886 C884 1.378 . S
C886 C887 1.367 1_655 S
C887 C886 1.367 1_455 S
C887 C889 1.433 . S
C888 C884 1.350 1_455 S
C888 C885 1.463 . S
C888 N892 1.427 . S
C889 H879 0.929 . S
C889 C887 1.433 . S
C889 N892 1.384 . S
C890 H881 0.929 . S
C890 C882 1.378 . S
C890 C885 1.350 . S
C891 H878 0.929 . S
C891 C883 1.433 1_655 S
C891 N893 1.384 . S
N892 C888 1.427 . S
N892 C889 1.384 . S
N893 C885 1.427 1_655 S
N893 C891 1.384 . S
H894 C900 0.930 . S
H895 C904 0.930 . S
H896 C909 0.929 . S
H897 C907 0.929 . S
H898 C902 0.929 . S
H899 C908 0.929 . S
C900 H894 0.930 . S
C900 C901 1.359 1_455 S
C900 C908 1.378 . S
C901 C900 1.359 1_655 S
C901 C909 1.441 . S
C902 H898 0.929 . S
C902 C904 1.378 . S
C902 C906 1.350 . S
C903 C906 1.463 . S
C903 C908 1.350 1_655 S
C903 N911 1.427 . S
C904 H895 0.930 . S
C904 C902 1.378 . S
C904 C905 1.367 . S
C905 C904 1.367 . S
C905 C907 1.433 1_655 S
C906 C902 1.350 . S
C906 C903 1.463 . S
C906 N910 1.427 1_655 S
C907 H897 0.929 . S
C907 C905 1.433 1_455 S
C907 N910 1.384 . S
C908 H899 0.929 . S
C908 C900 1.378 . S
C908 C903 1.350 1_455 S
C909 H896 0.929 . S
C909 C901 1.441 . S
C909 N911 1.384 . S
N910 C906 1.427 1_455 S
N910 C907 1.384 . S
N911 C903 1.427 . S
N911 C909 1.384 . S
H912 C918 0.930 . S
H913 C922 0.930 . S
H914 C927 0.929 . S
H915 C925 0.929 . S
H916 C920 0.929 . S
H917 C926 0.929 . S
C918 H912 0.930 . S
C918 C919 1.367 . S
C918 C926 1.378 . S
C919 C918 1.367 . S
C919 C927 1.433 . S
C920 H916 0.929 . S
C920 C922 1.378 . S
C920 C924 1.350 . S
C921 C924 1.463 . S
C921 C926 1.350 . S
C921 N929 1.427 . S
C922 H913 0.930 . S
C922 C920 1.378 . S
C922 C923 1.367 . S
C923 C922 1.367 . S
C923 C925 1.433 . S
C924 C920 1.350 . S
C924 C921 1.463 . S
C924 N928 1.427 . S
C925 H915 0.929 . S
C925 C923 1.433 . S
C925 N928 1.384 . S
C926 H917 0.929 . S
C926 C918 1.378 . S
C926 C921 1.350 . S
C927 H914 0.929 . S
C927 C919 1.433 . S
C927 N929 1.384 . S
N928 C924 1.427 . S
N928 C925 1.384 . S
N929 C921 1.427 . S
N929 C927 1.384 . S
H930 C936 0.930 . S
H931 C940 0.930 . S
H932 C945 0.929 . S
H933 C943 0.929 . S
H934 C938 0.929 . S
H935 C944 0.929 . S
C936 H930 0.930 . S
C936 C937 1.367 . S
C936 C944 1.378 . S
C937 C936 1.367 . S
C937 C945 1.433 . S
C938 H934 0.929 . S
C938 C940 1.378 . S
C938 C942 1.350 . S
C939 C942 1.463 . S
C939 C944 1.350 . S
C939 N947 1.427 . S
C940 H931 0.930 . S
C940 C938 1.378 . S
C940 C941 1.367 . S
C941 C940 1.367 . S
C941 C943 1.433 . S
C942 C938 1.350 . S
C942 C939 1.463 . S
C942 N946 1.427 . S
C943 H933 0.929 . S
C943 C941 1.433 . S
C943 N946 1.384 . S
C944 H935 0.929 . S
C944 C936 1.378 . S
C944 C939 1.350 . S
C945 H932 0.929 . S
C945 C937 1.433 . S
C945 N947 1.384 . S
N946 C942 1.427 . S
N946 C943 1.384 . S
N947 C939 1.427 . S
N947 C945 1.384 . S
H948 C954 0.930 . S
H949 C958 0.930 1_545 S
H950 C963 0.929 . S
H951 C961 0.929 . S
H952 C956 0.929 1_545 S
H953 C962 0.929 . S
C954 H948 0.930 . S
C954 C955 1.367 . S
C954 C962 1.378 . S
C955 C954 1.367 . S
C955 C963 1.433 1_565 S
C956 H952 0.929 1_565 S
C956 C958 1.378 . S
C956 C960 1.350 . S
C957 C960 1.463 . S
C957 C962 1.350 . S
C957 N965 1.427 1_565 S
C958 H949 0.930 1_565 S
C958 C956 1.378 . S
C958 C959 1.367 . S
C959 C958 1.367 . S
C959 C961 1.433 . S
C960 C956 1.350 . S
C960 C957 1.463 . S
C960 N964 1.427 . S
C961 H951 0.929 . S
C961 C959 1.433 . S
C961 N964 1.384 . S
C962 H953 0.929 . S
C962 C954 1.378 . S
C962 C957 1.350 . S
C963 H950 0.929 . S
C963 C955 1.433 1_545 S
C963 N965 1.384 . S
N964 C960 1.427 . S
N964 C961 1.384 . S
N965 C957 1.427 1_545 S
N965 C963 1.384 . S
H966 C972 0.930 . S
H967 C976 0.930 . S
H968 C981 0.929 . S
H969 C979 0.929 . S
H970 C974 0.929 . S
H971 C980 0.929 . S
C972 H966 0.930 . S
C972 C973 1.367 . S
C972 C980 1.378 . S
C973 C972 1.367 . S
C973 C981 1.433 . S
C974 H970 0.929 . S
C974 C976 1.378 . S
C974 C978 1.350 . S
C975 C978 1.463 . S
C975 C980 1.350 . S
C975 N983 1.427 . S
C976 H967 0.930 . S
C976 C974 1.378 . S
C976 C977 1.367 . S
C977 C976 1.367 . S
C977 C979 1.433 . S
C978 C974 1.350 . S
C978 C975 1.463 . S
C978 N982 1.427 . S
C979 H969 0.929 . S
C979 C977 1.433 . S
C979 N982 1.384 . S
C980 H971 0.929 . S
C980 C972 1.378 . S
C980 C975 1.350 . S
C981 H968 0.929 . S
C981 C973 1.433 . S
C981 N983 1.384 . S
N982 C978 1.427 . S
N982 C979 1.384 . S
N983 C975 1.427 . S
N983 C981 1.384 . S
H984 C990 0.930 . S
H985 C994 0.930 . S
H986 C999 0.929 . S
H987 C997 0.929 1_556 S
H988 C992 0.929 . S
H989 C998 0.927 1_556 S
C990 H984 0.930 . S
C990 C991 1.367 . S
C990 C998 1.378 . S
C991 C990 1.367 . S
C991 C999 1.433 . S
C992 H988 0.929 . S
C992 C994 1.378 . S
C992 C996 1.350 . S
C993 C996 1.463 . S
C993 C998 1.350 . S
C993 N1001 1.427 . S
C994 H985 0.930 . S
C994 C992 1.378 . S
C994 C995 1.367 . S
C995 C994 1.367 . S
C995 C997 1.433 . S
C996 C992 1.350 . S
C996 C993 1.463 . S
C996 N1000 1.427 . S
C997 H987 0.929 1_554 S
C997 C995 1.433 . S
C997 N1000 1.384 . S
C998 H989 0.927 1_554 S
C998 C990 1.378 . S
C998 C993 1.350 . S
C999 H986 0.929 . S
C999 C991 1.433 . S
C999 N1001 1.384 . S
N1000 C996 1.427 . S
N1000 C997 1.384 . S
N1001 C993 1.427 . S
N1001 C999 1.384 . S
H1002 C1008 0.930 . S
H1003 C1012 0.930 . S
H1004 C1017 0.929 . S
H1005 C1015 0.929 . S
H1006 C1010 0.929 . S
H1007 C1016 0.929 . S
C1008 H1002 0.930 . S
C1008 C1009 1.367 . S
C1008 C1016 1.378 . S
C1009 C1008 1.367 . S
C1009 C1017 1.433 . S
C1010 H1006 0.929 . S
C1010 C1012 1.378 . S
C1010 C1014 1.350 . S
C1011 C1014 1.463 . S
C1011 C1016 1.350 . S
C1011 N1019 1.427 . S
C1012 H1003 0.930 . S
C1012 C1010 1.378 . S
C1012 C1013 1.367 . S
C1013 C1012 1.367 . S
C1013 C1015 1.433 . S
C1014 C1010 1.350 . S
C1014 C1011 1.463 . S
C1014 N1018 1.427 . S
C1015 H1005 0.929 . S
C1015 C1013 1.433 . S
C1015 N1018 1.384 . S
C1016 H1007 0.929 . S
C1016 C1008 1.378 . S
C1016 C1011 1.350 . S
C1017 H1004 0.929 . S
C1017 C1009 1.433 . S
C1017 N1019 1.384 . S
N1018 C1014 1.427 . S
N1018 C1015 1.384 . S
N1019 C1011 1.427 . S
N1019 C1017 1.384 . S
H1020 C1026 0.930 . S
H1021 C1030 0.930 . S
H1022 C1035 0.929 . S
H1023 C1033 0.929 . S
H1024 C1028 0.929 . S
H1025 C1034 0.929 . S
C1026 H1020 0.930 . S
C1026 C1027 1.367 . S
C1026 C1034 1.378 . S
C1027 C1026 1.367 . S
C1027 C1035 1.433 . S
C1028 H1024 0.929 . S
C1028 C1030 1.378 . S
C1028 C1032 1.350 . S
C1029 C1032 1.463 . S
C1029 C1034 1.350 . S
C1029 N1037 1.427 . S
C1030 H1021 0.930 . S
C1030 C1028 1.378 . S
C1030 C1031 1.367 . S
C1031 C1030 1.367 . S
C1031 C1033 1.433 . S
C1032 C1028 1.350 . S
C1032 C1029 1.463 . S
C1032 N1036 1.427 . S
C1033 H1023 0.929 . S
C1033 C1031 1.433 . S
C1033 N1036 1.384 . S
C1034 H1025 0.929 . S
C1034 C1026 1.378 . S
C1034 C1029 1.350 . S
C1035 H1022 0.929 . S
C1035 C1027 1.433 . S
C1035 N1037 1.384 . S
N1036 C1032 1.427 . S
N1036 C1033 1.384 . S
N1037 C1029 1.427 . S
N1037 C1035 1.384 . S
H1038 C1044 0.930 . S
H1039 C1048 0.930 . S
H1040 C1053 0.929 . S
H1041 C1051 0.929 . S
H1042 C1046 0.929 . S
H1043 C1052 0.929 . S
C1044 H1038 0.930 . S
C1044 C1045 1.367 . S
C1044 C1052 1.378 . S
C1045 C1044 1.367 . S
C1045 C1053 1.433 . S
C1046 H1042 0.929 . S
C1046 C1048 1.378 . S
C1046 C1050 1.350 . S
C1047 C1050 1.463 . S
C1047 C1052 1.350 . S
C1047 N1055 1.427 . S
C1048 H1039 0.930 . S
C1048 C1046 1.378 . S
C1048 C1049 1.367 . S
C1049 C1048 1.367 . S
C1049 C1051 1.433 . S
C1050 C1046 1.350 . S
C1050 C1047 1.463 . S
C1050 N1054 1.427 . S
C1051 H1041 0.929 . S
C1051 C1049 1.433 . S
C1051 N1054 1.384 . S
C1052 H1043 0.929 . S
C1052 C1044 1.378 . S
C1052 C1047 1.350 . S
C1053 H1040 0.929 . S
C1053 C1045 1.433 . S
C1053 N1055 1.384 . S
N1054 C1050 1.427 . S
N1054 C1051 1.384 . S
N1055 C1047 1.427 . S
N1055 C1053 1.384 . S
H1056 C1062 0.930 . S
H1057 C1066 0.930 . S
H1058 C1071 0.929 . S
H1059 C1069 0.929 . S
H1060 C1064 0.929 . S
H1061 C1070 0.929 . S
C1062 H1056 0.930 . S
C1062 C1063 1.367 . S
C1062 C1070 1.378 . S
C1063 C1062 1.367 . S
C1063 C1071 1.433 . S
C1064 H1060 0.929 . S
C1064 C1066 1.378 . S
C1064 C1068 1.350 . S
C1065 C1068 1.463 . S
C1065 C1070 1.350 . S
C1065 N1073 1.427 . S
C1066 H1057 0.930 . S
C1066 C1064 1.378 . S
C1066 C1067 1.367 . S
C1067 C1066 1.367 . S
C1067 C1069 1.433 . S
C1068 C1064 1.350 . S
C1068 C1065 1.463 . S
C1068 N1072 1.427 . S
C1069 H1059 0.929 . S
C1069 C1067 1.433 . S
C1069 N1072 1.384 . S
C1070 H1061 0.929 . S
C1070 C1062 1.378 . S
C1070 C1065 1.350 . S
C1071 H1058 0.929 . S
C1071 C1063 1.433 . S
C1071 N1073 1.384 . S
N1072 C1068 1.427 . S
N1072 C1069 1.384 . S
N1073 C1065 1.427 . S
N1073 C1071 1.384 . S
H1074 C1080 0.930 . S
H1075 C1084 0.930 . S
H1076 C1089 0.929 . S
H1077 C1087 0.929 . S
H1078 C1082 0.929 . S
H1079 C1088 0.929 . S
C1080 H1074 0.930 . S
C1080 C1081 1.367 . S
C1080 C1088 1.378 . S
C1081 C1080 1.367 . S
C1081 C1089 1.433 . S
C1082 H1078 0.929 . S
C1082 C1084 1.378 . S
C1082 C1086 1.350 . S
C1083 C1086 1.463 . S
C1083 C1088 1.350 . S
C1083 N1091 1.427 . S
C1084 H1075 0.930 . S
C1084 C1082 1.378 . S
C1084 C1085 1.367 . S
C1085 C1084 1.367 . S
C1085 C1087 1.433 . S
C1086 C1082 1.350 . S
C1086 C1083 1.463 . S
C1086 N1090 1.427 . S
C1087 H1077 0.929 . S
C1087 C1085 1.433 . S
C1087 N1090 1.384 . S
C1088 H1079 0.929 . S
C1088 C1080 1.378 . S
C1088 C1083 1.350 . S
C1089 H1076 0.929 . S
C1089 C1081 1.433 . S
C1089 N1091 1.384 . S
N1090 C1086 1.427 . S
N1090 C1087 1.384 . S
N1091 C1083 1.427 . S
N1091 C1089 1.384 . S
H1092 C1098 0.930 . S
H1093 C1102 0.930 . S
H1094 C1107 0.929 . S
H1095 C1105 0.929 . S
H1096 C1100 0.929 . S
H1097 C1106 0.929 . S
C1098 H1092 0.930 . S
C1098 C1099 1.367 . S
C1098 C1106 1.378 . S
C1099 C1098 1.367 . S
C1099 C1107 1.433 . S
C1100 H1096 0.929 . S
C1100 C1102 1.378 . S
C1100 C1104 1.350 . S
C1101 C1104 1.463 . S
C1101 C1106 1.350 . S
C1101 N1109 1.427 . S
C1102 H1093 0.930 . S
C1102 C1100 1.378 . S
C1102 C1103 1.367 . S
C1103 C1102 1.367 . S
C1103 C1105 1.433 . S
C1104 C1100 1.350 . S
C1104 C1101 1.463 . S
C1104 N1108 1.427 . S
C1105 H1095 0.929 . S
C1105 C1103 1.433 . S
C1105 N1108 1.384 . S
C1106 H1097 0.929 . S
C1106 C1098 1.378 . S
C1106 C1101 1.350 . S
C1107 H1094 0.929 . S
C1107 C1099 1.433 . S
C1107 N1109 1.384 . S
N1108 C1104 1.427 . S
N1108 C1105 1.384 . S
N1109 C1101 1.427 . S
N1109 C1107 1.384 . S
H1110 C1116 0.930 . S
H1111 C1120 0.930 . S
H1112 C1125 0.929 . S
H1113 C1123 0.929 . S
H1114 C1118 0.929 . S
H1115 C1124 0.929 . S
C1116 H1110 0.930 . S
C1116 C1117 1.367 . S
C1116 C1124 1.378 . S
C1117 C1116 1.367 . S
C1117 C1125 1.433 . S
C1118 H1114 0.929 . S
C1118 C1120 1.378 . S
C1118 C1122 1.350 . S
C1119 C1122 1.463 . S
C1119 C1124 1.350 . S
C1119 N1127 1.427 . S
C1120 H1111 0.930 . S
C1120 C1118 1.378 . S
C1120 C1121 1.367 . S
C1121 C1120 1.367 . S
C1121 C1123 1.433 . S
C1122 C1118 1.350 . S
C1122 C1119 1.463 . S
C1122 N1126 1.427 . S
C1123 H1113 0.929 . S
C1123 C1121 1.433 . S
C1123 N1126 1.384 . S
C1124 H1115 0.929 . S
C1124 C1116 1.378 . S
C1124 C1119 1.350 . S
C1125 H1112 0.929 . S
C1125 C1117 1.433 . S
C1125 N1127 1.384 . S
N1126 C1122 1.427 . S
N1126 C1123 1.384 . S
N1127 C1119 1.427 . S
N1127 C1125 1.384 . S
H1128 C1134 0.930 . S
H1129 C1138 0.930 . S
H1130 C1143 0.929 . S
H1131 C1141 0.929 . S
H1132 C1136 0.929 . S
H1133 C1142 0.929 . S
C1134 H1128 0.930 . S
C1134 C1135 1.367 . S
C1134 C1142 1.378 . S
C1135 C1134 1.367 . S
C1135 C1143 1.433 . S
C1136 H1132 0.929 . S
C1136 C1138 1.378 . S
C1136 C1140 1.350 . S
C1137 C1140 1.463 . S
C1137 C1142 1.350 . S
C1137 N1145 1.427 . S
C1138 H1129 0.930 . S
C1138 C1136 1.378 . S
C1138 C1139 1.367 . S
C1139 C1138 1.367 . S
C1139 C1141 1.433 . S
C1140 C1136 1.350 . S
C1140 C1137 1.463 . S
C1140 N1144 1.427 . S
C1141 H1131 0.929 . S
C1141 C1139 1.433 . S
C1141 N1144 1.384 . S
C1142 H1133 0.929 . S
C1142 C1134 1.378 . S
C1142 C1137 1.350 . S
C1143 H1130 0.929 . S
C1143 C1135 1.433 . S
C1143 N1145 1.384 . S
N1144 C1140 1.427 . S
N1144 C1141 1.384 . S
N1145 C1137 1.427 . S
N1145 C1143 1.384 . S
H1146 C1152 0.930 . S
H1147 C1156 0.930 1_545 S
H1148 C1161 0.929 . S
H1149 C1159 0.929 . S
H1150 C1154 0.929 1_545 S
H1151 C1160 0.929 . S
C1152 H1146 0.930 . S
C1152 C1153 1.367 . S
C1152 C1160 1.378 . S
C1153 C1152 1.367 . S
C1153 C1161 1.433 1_565 S
C1154 H1150 0.929 1_565 S
C1154 C1156 1.378 . S
C1154 C1158 1.350 . S
C1155 C1158 1.463 . S
C1155 C1160 1.350 . S
C1155 N1163 1.427 1_565 S
C1156 H1147 0.930 1_565 S
C1156 C1154 1.378 . S
C1156 C1157 1.367 . S
C1157 C1156 1.367 . S
C1157 C1159 1.433 . S
C1158 C1154 1.350 . S
C1158 C1155 1.463 . S
C1158 N1162 1.427 . S
C1159 H1149 0.929 . S
C1159 C1157 1.433 . S
C1159 N1162 1.384 . S
C1160 H1151 0.929 . S
C1160 C1152 1.378 . S
C1160 C1155 1.350 . S
C1161 H1148 0.929 . S
C1161 C1153 1.433 1_545 S
C1161 N1163 1.384 . S
N1162 C1158 1.427 . S
N1162 C1159 1.384 . S
N1163 C1155 1.427 1_545 S
N1163 C1161 1.384 . S
H1164 C1170 0.930 . S
H1165 C1174 0.930 . S
H1166 C1179 0.929 . S
H1167 C1177 0.929 . S
H1168 C1172 0.929 . S
H1169 C1178 0.929 . S
C1170 H1164 0.930 . S
C1170 C1171 1.367 . S
C1170 C1178 1.378 . S
C1171 C1170 1.367 . S
C1171 C1179 1.433 . S
C1172 H1168 0.929 . S
C1172 C1174 1.378 . S
C1172 C1176 1.350 . S
C1173 C1176 1.463 . S
C1173 C1178 1.350 . S
C1173 N1181 1.427 . S
C1174 H1165 0.930 . S
C1174 C1172 1.378 . S
C1174 C1175 1.367 . S
C1175 C1174 1.367 . S
C1175 C1177 1.433 . S
C1176 C1172 1.350 . S
C1176 C1173 1.463 . S
C1176 N1180 1.427 . S
C1177 H1167 0.929 . S
C1177 C1175 1.433 . S
C1177 N1180 1.384 . S
C1178 H1169 0.929 . S
C1178 C1170 1.378 . S
C1178 C1173 1.350 . S
C1179 H1166 0.929 . S
C1179 C1171 1.433 . S
C1179 N1181 1.384 . S
N1180 C1176 1.427 . S
N1180 C1177 1.384 . S
N1181 C1173 1.427 . S
N1181 C1179 1.384 . S
H1182 C1188 0.930 . S
H1183 C1192 0.930 1_565 S
H1184 C1197 0.929 1_565 S
H1185 C1195 0.929 . S
H1186 C1190 0.929 1_565 S
H1187 C1196 0.929 . S
C1188 H1182 0.930 . S
C1188 C1189 1.367 . S
C1188 C1196 1.378 . S
C1189 C1188 1.367 . S
C1189 C1197 1.433 . S
C1190 H1186 0.929 1_545 S
C1190 C1192 1.378 . S
C1190 C1194 1.350 . S
C1191 C1194 1.463 . S
C1191 C1196 1.350 . S
C1191 N1199 1.427 . S
C1192 H1183 0.930 1_545 S
C1192 C1190 1.378 . S
C1192 C1193 1.367 . S
C1193 C1192 1.367 . S
C1193 C1195 1.433 . S
C1194 C1190 1.350 . S
C1194 C1191 1.463 . S
C1194 N1198 1.427 . S
C1195 H1185 0.929 . S
C1195 C1193 1.433 . S
C1195 N1198 1.384 . S
C1196 H1187 0.929 . S
C1196 C1188 1.378 . S
C1196 C1191 1.350 . S
C1197 H1184 0.929 1_545 S
C1197 C1189 1.433 . S
C1197 N1199 1.384 . S
N1198 C1194 1.427 . S
N1198 C1195 1.384 . S
N1199 C1191 1.427 . S
N1199 C1197 1.384 . S
H1200 C1206 0.930 . S
H1201 C1210 0.930 . S
H1202 C1215 0.929 . S
H1203 C1213 0.929 . S
H1204 C1208 0.929 . S
H1205 C1214 0.929 . S
C1206 H1200 0.930 . S
C1206 C1207 1.367 . S
C1206 C1214 1.378 . S
C1207 C1206 1.367 . S
C1207 C1215 1.433 . S
C1208 H1204 0.929 . S
C1208 C1210 1.378 . S
C1208 C1212 1.350 . S
C1209 C1212 1.463 . S
C1209 C1214 1.350 . S
C1209 N1217 1.427 . S
C1210 H1201 0.930 . S
C1210 C1208 1.378 . S
C1210 C1211 1.367 . S
C1211 C1210 1.367 . S
C1211 C1213 1.433 . S
C1212 C1208 1.350 . S
C1212 C1209 1.463 . S
C1212 N1216 1.427 . S
C1213 H1203 0.929 . S
C1213 C1211 1.433 . S
C1213 N1216 1.384 . S
C1214 H1205 0.929 . S
C1214 C1206 1.378 . S
C1214 C1209 1.350 . S
C1215 H1202 0.929 . S
C1215 C1207 1.433 . S
C1215 N1217 1.384 . S
N1216 C1212 1.427 . S
N1216 C1213 1.384 . S
N1217 C1209 1.427 . S
N1217 C1215 1.384 . S
H1218 C1224 0.930 . S
H1219 C1228 0.948 . S
H1220 C1233 0.929 . S
H1221 C1231 0.929 . S
H1222 C1226 0.929 . S
H1223 C1232 0.929 . S
C1224 H1218 0.930 . S
C1224 C1225 1.365 1_556 S
C1224 C1232 1.378 . S
C1225 C1224 1.365 1_554 S
C1225 C1233 1.435 . S
C1226 H1222 0.929 . S
C1226 C1228 1.384 . S
C1226 C1230 1.350 1_554 S
C1227 C1230 1.463 . S
C1227 C1232 1.350 . S
C1227 N1235 1.427 1_556 S
C1228 H1219 0.948 . S
C1228 C1226 1.384 . S
C1228 C1229 1.343 1_554 S
C1229 C1228 1.343 1_556 S
C1229 C1231 1.433 . S
C1230 C1226 1.350 1_556 S
C1230 C1227 1.463 . S
C1230 N1234 1.427 . S
C1231 H1221 0.929 . S
C1231 C1229 1.433 . S
C1231 N1234 1.384 . S
C1232 H1223 0.929 . S
C1232 C1224 1.378 . S
C1232 C1227 1.350 . S
C1233 H1220 0.929 . S
C1233 C1225 1.435 . S
C1233 N1235 1.384 . S
N1234 C1230 1.427 . S
N1234 C1231 1.384 . S
N1235 C1227 1.427 1_554 S
N1235 C1233 1.384 . S
H1236 C1242 0.930 . S
H1237 C1246 0.930 . S
H1238 C1251 0.929 . S
H1239 C1249 0.929 . S
H1240 C1244 0.929 . S
H1241 C1250 0.929 . S
C1242 H1236 0.930 . S
C1242 C1243 1.367 . S
C1242 C1250 1.378 . S
C1243 C1242 1.367 . S
C1243 C1251 1.433 1_554 S
C1244 H1240 0.929 . S
C1244 C1246 1.378 . S
C1244 C1248 1.349 . S
C1245 C1248 1.463 1_554 S
C1245 C1250 1.350 . S
C1245 N1253 1.427 1_554 S
C1246 H1237 0.930 . S
C1246 C1244 1.378 . S
C1246 C1247 1.367 . S
C1247 C1246 1.367 . S
C1247 C1249 1.433 1_556 S
C1248 C1244 1.349 . S
C1248 C1245 1.463 1_556 S
C1248 N1252 1.428 1_556 S
C1249 H1239 0.929 . S
C1249 C1247 1.433 1_554 S
C1249 N1252 1.384 . S
C1250 H1241 0.929 . S
C1250 C1242 1.378 . S
C1250 C1245 1.350 . S
C1251 H1238 0.929 . S
C1251 C1243 1.433 1_556 S
C1251 N1253 1.384 . S
N1252 C1248 1.428 1_554 S
N1252 C1249 1.384 . S
N1253 C1245 1.427 1_556 S
N1253 C1251 1.384 . S
H1254 C1260 0.930 1_556 S
H1255 C1264 0.930 . S
H1256 C1269 0.929 . S
H1257 C1267 0.929 1_556 S
H1258 C1262 0.929 . S
H1259 C1268 0.929 1_556 S
C1260 H1254 0.930 1_554 S
C1260 C1261 1.367 . S
C1260 C1268 1.378 . S
C1261 C1260 1.367 . S
C1261 C1269 1.433 . S
C1262 H1258 0.929 . S
C1262 C1264 1.378 . S
C1262 C1266 1.350 . S
C1263 C1266 1.463 . S
C1263 C1268 1.350 . S
C1263 N1271 1.427 . S
C1264 H1255 0.930 . S
C1264 C1262 1.378 . S
C1264 C1265 1.367 . S
C1265 C1264 1.367 . S
C1265 C1267 1.433 . S
C1266 C1262 1.350 . S
C1266 C1263 1.463 . S
C1266 N1270 1.427 . S
C1267 H1257 0.929 1_554 S
C1267 C1265 1.433 . S
C1267 N1270 1.384 . S
C1268 H1259 0.929 1_554 S
C1268 C1260 1.378 . S
C1268 C1263 1.350 . S
C1269 H1256 0.929 . S
C1269 C1261 1.433 . S
C1269 N1271 1.384 . S
N1270 C1266 1.427 . S
N1270 C1267 1.384 . S
N1271 C1263 1.427 . S
N1271 C1269 1.384 . S
C415 C13 1.577 . S
C419 C255 1.540 1_545 S
C437 N272 1.599 . S
C433 C1 1.746 . S
C455 N174 1.607 . S
C451 C27 1.606 . S
C469 C15 1.224 1_655 S
C473 C199 1.226 . S
C487 C28 1.682 . S
C491 C394 1.670 . S
C505 C55 1.414 . S
C509 N354 1.395 . S
C527 N302 1.528 . S
C523 C40 1.677 . S
C541 C43 1.656 . S
C545 C328 1.649 . S
C563 C214 1.539 . S
C559 C56 1.509 . S
C581 C259 1.728 . S
C577 C83 1.738 . S
C595 C96 1.617 . S
C599 C238 1.632 1_655 S
C613 C71 1.825 . S
C617 C345 1.793 . S
C635 C375 1.541 . S
C631 C99 1.579 . S
C653 N392 1.606 . S
C649 C111 1.741 . S
C667 C113 1.605 . S
C671 N324 1.600 . S
C689 C289 1.224 1_545 S
C685 C125 1.227 . S
C703 C139 1.682 . S
C707 C274 1.672 . S
C721 C153 1.414 . S
C725 N234 1.396 . S
C743 N212 1.510 . S
C739 C127 1.677 . S
C757 C141 1.656 . S
C761 C178 1.650 . S
C779 C304 1.516 . S
C775 C84 1.520 . S
C797 C379 1.734 . S
C793 C154 1.739 . S
C811 C68 1.619 . S
C815 C358 1.632 . S
C829 C166 1.823 . S
C833 C195 1.796 . S
C851 C169 1.311 . S
C847 C0 1.324 . S
C865 C12 1.003 . S
C869 N204 1.003 . S
C887 N242 1.130 . S
C883 C14 1.232 . S
C905 C285 1.717 . S
C901 C26 1.709 1_655 S
C919 C41 1.487 . S
C923 C184 1.476 . S
C937 C42 1.635 . S
C941 C225 1.609 . S
C959 C229 1.258 . S
C955 C29 1.284 . S
C973 C54 1.489 . S
C977 C268 1.471 . S
C991 C69 1.041 . S
C995 N182 1.018 . S
C1013 C244 1.806 . S
C1009 C70 1.807 . S
C1027 C85 1.178 . S
C1031 N264 1.169 . S
C1045 C82 1.432 . S
C1049 C298 1.416 . S
C1067 C319 1.300 . S
C1063 C110 1.330 . S
C1081 C98 1.005 . S
C1085 N294 1.000 . S
C1099 C124 1.228 . S
C1103 N362 1.119 . S
C1117 C112 1.711 . S
C1121 C405 1.718 . S
C1135 C126 1.494 . S
C1139 C334 1.470 . S
C1157 C315 1.610 . S
C1153 C140 1.635 . S
C1171 C138 1.284 . S
C1175 C349 1.253 . S
C1193 C388 1.469 . S
C1189 C152 1.497 . S
C1211 N332 0.993 . S
C1207 C97 1.050 . S
C1229 C364 1.808 . S
C1225 C167 1.805 . S
C1247 N384 1.169 . S
C1243 C57 1.178 . S
C1261 C155 1.434 . S
C1265 C208 1.412 . S
