# Generated by pormake.
# Topology pth, (4,4)-cn, num edge types: 1
# Building blocks:
#     Node 0, Type 0, BuildingBlock: KUFVIS_clean_sbu_0, # of connection points: 4
#     Node 1, Type 0, BuildingBlock: KUFVIS_clean_sbu_0, # of connection points: 4
#     Node 2, Type 0, BuildingBlock: KUFVIS_clean_sbu_0, # of connection points: 4
#     Node 3, Type 1, BuildingBlock: KOZSID_clean_sbu_0, # of connection points: 4
#     Node 4, Type 1, BuildingBlock: KOZSID_clean_sbu_0, # of connection points: 4
#     Node 5, Type 1, BuildingBlock: KOZSID_clean_sbu_0, # of connection points: 4
#     Edge 6, Type (0, 1), BuildingBlock: FUNLAD_clean_linker_1, # of connection points: 2
#     Edge 7, Type (0, 1), BuildingBlock: FUNLAD_clean_linker_1, # of connection points: 2
#     Edge 8, Type (0, 1), BuildingBlock: FUNLAD_clean_linker_1, # of connection points: 2
#     Edge 9, Type (0, 1), BuildingBlock: FUNLAD_clean_linker_1, # of connection points: 2
#     Edge 10, Type (0, 1), BuildingBlock: FUNLAD_clean_linker_1, # of connection points: 2
#     Edge 11, Type (0, 1), BuildingBlock: FUNLAD_clean_linker_1, # of connection points: 2
#     Edge 12, Type (0, 1), BuildingBlock: FUNLAD_clean_linker_1, # of connection points: 2
#     Edge 13, Type (0, 1), BuildingBlock: FUNLAD_clean_linker_1, # of connection points: 2
#     Edge 14, Type (0, 1), BuildingBlock: FUNLAD_clean_linker_1, # of connection points: 2
#     Edge 15, Type (0, 1), BuildingBlock: FUNLAD_clean_linker_1, # of connection points: 2
#     Edge 16, Type (0, 1), BuildingBlock: FUNLAD_clean_linker_1, # of connection points: 2
#     Edge 17, Type (0, 1), BuildingBlock: FUNLAD_clean_linker_1, # of connection points: 2
# Relax obj value: 0.010
# Max RMSD: 0.084
# Mean RMSD: 0.052
data_MOF--net-pth--node1-KUFVIS_clean_sbu_0--node2-KOZSID_clean_sbu_0--edge1-FUNLAD_clean_linker_1
_symmetry_space_group_name_H-M    P1
_symmetry_Int_Tables_number       1
_symmetry_cell_setting            triclinic
loop_
_symmetry_equiv_pos_as_xyz
'x, y, z'
_cell_length_a     27.141211
_cell_length_b     27.264205
_cell_length_c     63.187358
_cell_angle_alpha  87.838995
_cell_angle_beta   89.365134
_cell_angle_gamma 120.03832
loop_
_atom_site_label
_atom_site_type_symbol
_atom_site_fract_x
_atom_site_fract_y
_atom_site_fract_z
_atom_type_partial_charge
Mn0 Mn 0.10772 0.04451 0.04666 0.0
Mn1 Mn 0.04035 0.10296 0.0202 0.0
C2 C 0.05522 0.99985 0.01745 0.0
C3 C 0.11079 0.98611 0.07433 0.0
C4 C 0.16708 0.14691 0.0146 0.0
O5 O 0.10846 0.10051 0.06737 0.0
O6 O 0.05981 0.13364 0.04903 0.0
C7 C 0.93482 0.04957 0.04719 0.0
N8 N 0.96092 0.06087 0.02766 0.0
C9 C 0.87084 0.01223 0.01081 0.0
C10 C 0.84292 1.0003 0.03074 0.0
C11 C 0.87508 0.01885 0.04902 0.0
C12 C 0.93044 0.04258 0.01001 0.0
H13 H 0.95945 0.06384 0.06126 0.0
C14 C 0.08618 0.1319 0.06547 0.0
O15 O 0.15682 0.02764 0.0654 0.0
O16 O 0.06278 0.97908 0.06759 0.0
N17 N 0.01812 0.07945 0.99205 0.0
C18 C 0.05165 0.09547 0.97402 0.0
C19 C 0.02625 0.08327 0.95421 0.0
C20 C 0.96662 0.05407 0.95314 0.0
C21 C 0.93298 0.03806 0.97189 0.0
C22 C 0.96077 0.05339 0.9911 0.0
H23 H 0.09748 0.11848 0.97469 0.0
O24 O 0.09486 0.99064 0.02425 0.0
O25 O 0.0464 0.03511 0.02817 0.0
O26 O 0.16874 0.11058 0.0275 0.0
O27 O 0.12161 0.14844 0.01103 0.0
C28 C 0.87298 0.0082 0.97226 0.0
C29 C 0.84193 0.99476 0.99173 0.0
H30 H 0.79685 0.9767 0.03221 0.0
H31 H 0.85385 0.00961 0.06446 0.0
H32 H 0.05256 0.09592 0.93982 0.0
H33 H 0.94715 0.04389 0.93786 0.0
H34 H 0.8503 0.99526 0.95767 0.0
H35 H 0.79582 0.97128 0.99184 0.0
Mn36 Mn 0.05444 0.04985 0.38204 0.0
Mn37 Mn 0.11511 0.1761 0.40512 0.0
C38 C 0.11918 0.06691 0.40851 0.0
C39 C 0.05598 0.9962 0.35397 0.0
C40 C 0.99341 0.0816 0.41521 0.0
O41 O 0.03568 0.10002 0.36255 0.0
O42 O 0.09039 0.18503 0.3764 0.0
C43 C 0.21736 0.23777 0.3766 0.0
N44 N 0.19386 0.21836 0.39645 0.0
C45 C 0.28636 0.25661 0.41143 0.0
C46 C 0.31156 0.27731 0.39116 0.0
C47 C 0.27689 0.26773 0.37367 0.0
C48 C 0.22682 0.22684 0.41336 0.0
H49 H 0.19085 0.23023 0.3631 0.0
C50 C 0.05766 0.15395 0.36213 0.0
O51 O 0.00926 0.98161 0.36479 0.0
O52 O 0.10077 0.04274 0.35885 0.0
N53 N 0.14159 0.17472 0.43296 0.0
C54 C 0.11061 0.1531 0.45152 0.0
C55 C 0.13893 0.15872 0.47052 0.0
C56 C 0.19873 0.18735 0.47031 0.0
C57 C 0.22971 0.21097 0.45114 0.0
C58 C 0.19917 0.20428 0.43271 0.0
H59 H 0.06467 0.1313 0.45182 0.0
O60 O 0.08597 0.0158 0.4027 0.0
O61 O 0.11477 0.1066 0.39811 0.0
O62 O 0.99543 0.04343 0.4046 0.0
O63 O 0.03408 0.13322 0.41527 0.0
C64 C 0.28967 0.24092 0.44959 0.0
C65 C 0.31797 0.26389 0.42976 0.0
H66 H 0.35746 0.30034 0.38884 0.0
H67 H 0.29602 0.28333 0.35796 0.0
H68 H 0.11474 0.14099 0.4853 0.0
H69 H 0.22041 0.19134 0.48499 0.0
H70 H 0.31445 0.2465 0.46354 0.0
H71 H 0.36409 0.28671 0.42876 0.0
Mn72 Mn 0.09935 0.05155 0.71438 0.0
Mn73 Mn 0.05897 0.13371 0.73974 0.0
C74 C 0.15024 0.10039 0.74352 0.0
C75 C 0.15365 0.04012 0.68767 0.0
C76 C 0.99602 0.00484 0.74524 0.0
O77 O 0.04625 0.05982 0.69328 0.0
O78 O 0.03071 0.12209 0.71041 0.0
C79 C 0.12854 0.24062 0.71405 0.0
N80 N 0.11149 0.21222 0.73332 0.0
C81 C 0.16856 0.29793 0.75143 0.0
C82 C 0.1865 0.32825 0.73179 0.0
C83 C 0.16658 0.29942 0.71302 0.0
C84 C 0.13078 0.23941 0.75145 0.0
H85 H 0.11327 0.21848 0.69962 0.0
C86 C 0.02451 0.09186 0.69457 0.0
O87 O 0.10774 0.99732 0.69615 0.0
O88 O 0.16643 0.08984 0.69383 0.0
N89 N 0.08177 0.14956 0.76838 0.0
C90 C 0.06105 0.11386 0.78599 0.0
C91 C 0.07497 0.13613 0.80615 0.0
C92 C 0.11052 0.1948 0.808 0.0
C93 C 0.13144 0.23069 0.78967 0.0
C94 C 0.11431 0.20629 0.77006 0.0
H95 H 0.03315 0.06882 0.78471 0.0
O96 O 0.15175 0.05657 0.73714 0.0
O97 O 0.11883 0.11527 0.73253 0.0
O98 O 0.0297 0.9965 0.73359 0.0
O99 O 1.00234 0.05385 0.74783 0.0
C100 C 0.16846 0.28974 0.79008 0.0
C101 C 0.18749 0.32325 0.77096 0.0
H102 H 0.21594 0.37357 0.73092 0.0
H103 H 0.18049 0.32247 0.6978 0.0
H104 H 0.05867 0.10813 0.82022 0.0
H105 H 0.12197 0.21171 0.82356 0.0
H106 H 0.18295 0.30972 0.80501 0.0
H107 H 0.21669 0.36845 0.77145 0.0
C108 C 0.09823 0.64534 0.17988 0.0
C109 C 0.15025 0.68253 0.16961 0.0
C110 C 0.19112 0.67808 0.1804 0.0
C111 C 0.16198 0.637 0.19603 0.0
N112 N 0.1049 0.61408 0.19569 0.0
Co113 Co 0.04742 0.54624 0.21346 0.0
N114 N 0.10789 0.54355 0.23059 0.0
C115 C 0.16423 0.58188 0.22909 0.0
C116 C 0.19581 0.57182 0.24345 0.0
C117 C 0.15761 0.52366 0.25467 0.0
C118 C 0.10443 0.506 0.24617 0.0
N119 N 0.99004 0.47655 0.23068 0.0
C120 C 0.99739 0.44132 0.2446 0.0
C121 C 0.94617 0.39075 0.24856 0.0
C122 C 0.90518 0.39578 0.23818 0.0
C123 C 0.93334 0.44764 0.22766 0.0
N124 N 0.98685 0.55071 0.19682 0.0
C125 C 0.93005 0.51578 0.19967 0.0
C126 C 0.8981 0.52956 0.18688 0.0
C127 C 0.93658 0.57694 0.17535 0.0
C128 C 0.99058 0.58953 0.18168 0.0
N129 N 0.05243 0.49539 0.19255 0.0
C130 C 0.05711 0.41891 0.16438 0.0
C131 C 1.00641 0.41865 0.16865 0.0
C132 C 1.00495 0.45661 0.18256 0.0
C133 C 0.10602 0.45915 0.17426 0.0
C134 C 0.10272 0.49663 0.18811 0.0
N135 N 0.04219 0.59691 0.23423 0.0
C136 C 0.98499 0.62017 0.25691 0.0
C137 C 0.03181 0.67305 0.26081 0.0
C138 C 0.08451 0.68658 0.25146 0.0
C139 C 0.0887 0.64813 0.23842 0.0
C140 C 0.99103 0.58303 0.24385 0.0
H141 H 0.12984 0.66118 0.23155 0.0
H142 H 0.95341 0.54359 0.24148 0.0
H143 H 0.96455 0.45325 0.18502 0.0
H144 H 0.14147 0.52602 0.19512 0.0
C145 C 0.18702 0.6224 0.21232 0.0
C146 C 0.04365 0.64085 0.17409 0.0
C147 C 0.05249 0.45295 0.25329 0.0
C148 C 0.90814 0.46855 0.21371 0.0
H149 H 0.15851 0.71031 0.15575 0.0
H150 H 0.23671 0.70241 0.17735 0.0
H151 H 0.2415 0.59562 0.24511 0.0
H152 H 0.16844 0.50369 0.26746 0.0
H153 H 0.93847 0.35229 0.25697 0.0
H154 H 0.86059 0.36401 0.23745 0.0
H155 H 0.85217 0.5078 0.18607 0.0
H156 H 0.92511 0.59954 0.16387 0.0
H157 H 0.96739 0.38871 0.16135 0.0
H158 H 0.14692 0.46239 0.17146 0.0
H159 H 0.94334 0.6075 0.26382 0.0
H160 H 0.12236 0.72697 0.25361 0.0
C161 C 0.47432 0.01499 0.58337 0.0
C162 C 0.42365 0.96433 0.58827 0.0
C163 C 0.41918 0.92622 0.57401 0.0
C164 C 0.46631 0.95497 0.56092 0.0
N165 N 0.50144 0.00891 0.56613 0.0
Co166 Co 0.57085 0.06514 0.54884 0.0
N167 N 0.57053 0.00519 0.5315 0.0
C168 C 0.52646 0.95216 0.53017 0.0
C169 C 0.5371 0.92001 0.51674 0.0
C170 C 0.59138 0.95503 0.50891 0.0
C171 C 0.61074 0.00711 0.51792 0.0
N172 N 0.64018 0.12087 0.53173 0.0
C173 C 0.6761 0.11286 0.51901 0.0
C174 C 0.71727 0.16411 0.50928 0.0
C175 C 0.708 0.20537 0.51667 0.0
C176 C 0.66121 0.17729 0.53012 0.0
N177 N 0.57085 0.12555 0.56573 0.0
C178 C 0.6025 0.18181 0.561 0.0
C179 C 0.59521 0.21429 0.57529 0.0
C180 C 0.55522 0.17638 0.5897 0.0
C181 C 0.53912 0.1223 0.58314 0.0
N182 N 0.62027 0.056 0.56931 0.0
C183 C 0.69873 0.04304 0.59447 0.0
C184 C 0.70749 0.0971 0.58854 0.0
C185 C 0.66787 0.10253 0.57608 0.0
C186 C 0.64891 0.99582 0.5879 0.0
C187 C 0.61022 1.0031 0.57554 0.0
N188 N 0.52189 0.07432 0.5281 0.0
C189 C 0.49673 0.07845 0.49181 0.0
C190 C 0.44872 0.08123 0.49832 0.0
C191 C 0.43861 0.0812 0.52015 0.0
C192 C 0.47561 0.07795 0.53465 0.0
C193 C 0.5328 0.07543 0.50683 0.0
H194 H 0.46582 0.07746 0.55117 0.0
H195 H 0.56913 0.07318 0.50115 0.0
H196 H 0.67693 0.14465 0.57136 0.0
H197 H 0.57291 0.96578 0.57054 0.0
C198 C 0.47932 0.93198 0.54391 0.0
C199 C 0.48945 0.07011 0.59257 0.0
C200 C 0.66738 0.05713 0.5133 0.0
C201 C 0.64162 0.20289 0.5439 0.0
H202 H 0.39041 0.95518 0.59984 0.0
H203 H 0.38465 0.88303 0.57296 0.0
H204 H 0.50956 0.87574 0.51364 0.0
H205 H 0.61398 0.94298 0.49799 0.0
H206 H 0.74951 0.17109 0.49748 0.0
H207 H 0.73312 0.25057 0.51298 0.0
H208 H 0.61667 0.26012 0.57532 0.0
H209 H 0.53877 0.18764 0.60321 0.0
H210 H 0.74547 0.13529 0.59271 0.0
H211 H 0.64017 0.95323 0.59208 0.0
H212 H 0.50624 0.07821 0.47513 0.0
H213 H 0.40166 0.08199 0.52626 0.0
C214 C 0.69134 0.60875 0.84861 0.0
C215 C 0.72943 0.59166 0.84213 0.0
C216 C 0.71815 0.54506 0.85454 0.0
C217 C 0.67338 0.53542 0.86762 0.0
N218 N 0.65461 0.57247 0.86412 0.0
Co219 Co 0.58844 0.57102 0.87922 0.0
N220 N 0.57627 0.5062 0.89902 0.0
C221 C 0.61035 0.48337 0.90037 0.0
C222 C 0.59665 0.44501 0.91711 0.0
C223 C 0.55013 0.44213 0.9268 0.0
C224 C 0.5364 0.47723 0.91481 0.0
N225 N 0.52116 0.56836 0.89412 0.0
C226 C 0.48486 0.53221 0.90983 0.0
C227 C 0.44355 0.54627 0.91505 0.0
C228 C 0.45332 0.59142 0.90206 0.0
C229 C 0.49968 0.6027 0.88965 0.0
N230 N 0.60192 0.63722 0.85974 0.0
C231 C 0.57217 0.66484 0.86038 0.0
C232 C 0.59537 0.7138 0.84799 0.0
C233 C 0.6432 0.71836 0.8389 0.0
C234 C 0.64573 0.67037 0.84561 0.0
N235 N 0.53565 0.51635 0.85883 0.0
C236 C 0.45667 0.43662 0.83128 0.0
C237 C 0.45888 0.48815 0.83441 0.0
C238 C 0.49813 0.52693 0.84807 0.0
C239 C 0.49574 0.42621 0.84203 0.0
C240 C 0.5344 0.46626 0.85559 0.0
N241 N 0.64134 0.62588 0.89967 0.0
C242 C 0.67211 0.71001 0.91968 0.0
C243 C 0.71965 0.70797 0.92669 0.0
C244 C 0.72703 0.66352 0.9201 0.0
C245 C 0.68773 0.62336 0.90673 0.0
C246 C 0.63375 0.66888 0.9065 0.0
H247 H 0.69646 0.59129 0.90204 0.0
H248 H 0.59868 0.67341 0.90185 0.0
H249 H 0.49693 0.56503 0.8498 0.0
H250 H 0.56263 0.45557 0.86344 0.0
C251 C 0.65288 0.49657 0.88498 0.0
C252 C 0.69243 0.65989 0.83955 0.0
C253 C 0.48519 0.48165 0.91884 0.0
C254 C 0.52513 0.64645 0.87413 0.0
H255 H 0.76273 0.61117 0.82989 0.0
H256 H 0.74115 0.52212 0.85453 0.0
H257 H 0.61779 0.42168 0.92167 0.0
H258 H 0.52895 0.41678 0.9411 0.0
H259 H 0.40904 0.52617 0.92677 0.0
H260 H 0.42923 0.61326 0.90165 0.0
H261 H 0.58103 0.74434 0.84668 0.0
H262 H 0.6737 0.75524 0.82949 0.0
H263 H 0.42988 0.49852 0.82643 0.0
H264 H 0.49711 0.38767 0.8402 0.0
H265 H 0.66456 0.74363 0.9243 0.0
H266 H 0.76364 0.66023 0.9246 0.0
H267 H 0.11414 0.16682 0.09709 0.0
C268 C 0.09211 0.16888 0.08312 0.0
H269 H 0.05249 0.20973 0.06792 0.0
H270 H 0.03562 0.27411 0.16686 0.0
H271 H 0.97272 0.17316 0.1741 0.0
H272 H 0.95797 0.10476 0.14698 0.0
H273 H 1.00667 0.13673 0.11257 0.0
C274 C 0.07262 0.20573 0.08213 0.0
C275 C 0.08243 0.24631 0.09909 0.0
C276 C 0.05255 0.22705 0.11899 0.0
C277 C 0.05945 0.26678 0.13441 0.0
C278 C 0.03059 0.24607 0.15437 0.0
C279 C 0.99457 0.18819 0.15877 0.0
C280 C 0.98639 0.14966 0.14352 0.0
C281 C 0.01483 0.1686 0.12384 0.0
H282 H 0.01648 0.35078 0.14165 0.0
C283 C 0.05615 0.3769 0.14952 0.0
H284 H 0.14095 0.39346 0.15232 0.0
H285 H 0.14815 0.29766 0.06312 0.0
H286 H 0.21013 0.3987 0.05575 0.0
H287 H 0.21997 0.46747 0.08202 0.0
H288 H 0.16805 0.43567 0.11587 0.0
C289 C 0.09998 0.36824 0.14531 0.0
C290 C 0.09488 0.32593 0.12972 0.0
C291 C 0.12555 0.34504 0.10999 0.0
C292 C 0.11932 0.30532 0.09471 0.0
C293 C 0.15066 0.32589 0.07519 0.0
C294 C 0.18653 0.38379 0.07077 0.0
C295 C 0.19213 0.42251 0.08557 0.0
C296 C 0.1621 0.40364 0.10495 0.0
H297 H 0.93004 0.02647 0.44017 0.0
C298 C 0.9442 0.06455 0.43005 0.0
H299 H 0.93633 0.13538 0.422 0.0
H300 H 0.73031 0.97185 0.49655 0.0
H301 H 0.70545 0.89048 0.47552 0.0
H302 H 0.75648 0.90151 0.44152 0.0
H303 H 0.83494 0.99308 0.42916 0.0
C304 C 0.92111 0.09786 0.43256 0.0
C305 C 0.88185 0.09117 0.4509 0.0
C306 C 0.83154 0.03883 0.45638 0.0
C307 C 0.797 0.0339 0.47447 0.0
C308 C 0.75355 0.9791 0.48168 0.0
C309 C 0.73953 0.93189 0.46994 0.0
C310 C 0.7686 0.93802 0.45091 0.0
C311 C 0.81411 0.99076 0.44414 0.0
H312 H 0.68867 0.02617 0.48576 0.0
C313 C 0.70592 0.05346 0.49895 0.0
H314 H 0.78142 0.10367 0.51595 0.0
H315 H 0.97901 0.19587 0.44751 0.0
H316 H 0.99885 0.27822 0.46672 0.0
H317 H 0.93072 0.27367 0.49391 0.0
H318 H 0.84347 0.18662 0.50244 0.0
C319 C 0.76518 0.08099 0.50159 0.0
C320 C 0.80697 0.08311 0.48506 0.0
C321 C 0.85722 0.13559 0.47954 0.0
C322 C 0.89539 0.13904 0.46302 0.0
C323 C 0.94701 0.1911 0.45904 0.0
C324 C 0.95935 0.23887 0.47011 0.0
C325 C 0.9211 0.23625 0.48545 0.0
C326 C 0.8708 0.18551 0.49019 0.0
H327 H 0.91699 0.96555 0.76502 0.0
C328 C 0.94715 0.95662 0.75703 0.0
H329 H 0.96875 0.89367 0.75147 0.0
H330 H 0.79172 0.80488 0.83772 0.0
H331 H 0.86722 0.88539 0.85441 0.0
H332 H 0.95561 0.95274 0.83433 0.0
H333 H 0.96831 0.9406 0.79727 0.0
C334 C 0.93977 0.90405 0.75948 0.0
C335 C 0.89059 0.85833 0.77261 0.0
C336 C 0.88515 0.86393 0.79467 0.0
C337 C 0.83556 0.82299 0.80662 0.0
C338 C 0.82954 0.83262 0.82813 0.0
C339 C 0.87244 0.87907 0.8379 0.0
C340 C 0.92208 0.91713 0.82658 0.0
C341 C 0.92859 0.90989 0.80524 0.0
H342 H 0.78143 0.70177 0.82938 0.0
C343 C 0.74078 0.69917 0.82662 0.0
H344 H 0.69916 0.72197 0.80251 0.0
H345 H 0.88834 0.83277 0.73108 0.0
H346 H 0.81607 0.74859 0.71488 0.0
H347 H 0.73338 0.67469 0.73601 0.0
H348 H 0.72206 0.68471 0.77342 0.0
C349 C 0.73973 0.7318 0.80904 0.0
C350 C 0.79289 0.77431 0.79685 0.0
C351 C 0.79978 0.76735 0.77506 0.0
C352 C 0.84829 0.80947 0.76293 0.0
C353 C 0.85292 0.80187 0.7411 0.0
C354 C 0.81169 0.75374 0.73158 0.0
C355 C 0.76508 0.71218 0.74347 0.0
C356 C 0.75899 0.71862 0.76494 0.0
H357 H 0.15571 0.95408 0.09448 0.0
C358 C 0.11386 0.94726 0.09066 0.0
H359 H 0.02516 0.89592 0.09679 0.0
H360 H 0.10247 0.70919 0.12398 0.0
H361 H 0.11401 0.70541 0.08614 0.0
H362 H 0.1051 0.77202 0.06115 0.0
H363 H 0.08527 0.84334 0.0739 0.0
C364 C 0.06733 0.90291 0.10011 0.0
C365 C 0.0717 0.86178 0.11527 0.0
C366 C 0.082 0.81935 0.10759 0.0
C367 C 0.08553 0.77979 0.12202 0.0
C368 C 0.09784 0.73931 0.11382 0.0
C369 C 0.10483 0.7368 0.09209 0.0
C370 C 0.09993 0.77438 0.07803 0.0
C371 C 0.08868 0.81524 0.08558 0.0
H372 H 1.00336 0.67136 0.15172 0.0
C373 C 0.04089 0.68295 0.16081 0.0
H374 H 0.11566 0.75831 0.17082 0.0
H375 H 0.05059 0.93672 0.13527 0.0
H376 H 0.03691 0.9394 0.17318 0.0
H377 H 0.04139 0.87004 0.19813 0.0
H378 H 0.05959 0.79754 0.1854 0.0
C379 C 0.08216 0.74101 0.15943 0.0
C380 C 0.07756 0.78181 0.14416 0.0
C381 C 0.06689 0.82402 0.15181 0.0
C382 C 0.06382 0.86385 0.13737 0.0
C383 C 0.05304 0.90536 0.14552 0.0
C384 C 0.04516 0.90739 0.16723 0.0
C385 C 0.04774 0.86836 0.18128 0.0
C386 C 0.05839 0.82705 0.17376 0.0
H387 H 0.1553 0.08928 0.44031 0.0
C388 C 0.16128 0.07721 0.42483 0.0
H389 H 0.20943 0.05298 0.40615 0.0
H390 H 0.4346 0.17527 0.45735 0.0
H391 H 0.4635 0.23089 0.42404 0.0
H392 H 0.39338 0.21521 0.39679 0.0
H393 H 0.29384 0.14451 0.4028 0.0
C394 C 0.20345 0.06576 0.42163 0.0
C395 C 0.24561 0.07421 0.43821 0.0
C396 C 0.30401 0.11492 0.4343 0.0
C397 C 0.34476 0.12322 0.44988 0.0
C398 C 0.40223 0.16595 0.44585 0.0
C399 C 0.41935 0.19846 0.42684 0.0
C400 C 0.37989 0.18962 0.41149 0.0
C401 C 0.32284 0.14865 0.41513 0.0
H402 H 0.41199 0.06683 0.46644 0.0
C403 C 0.409 0.08088 0.48204 0.0
H404 H 0.3655 0.1113 0.5007 0.0
H405 H 0.13826 0.9882 0.45017 0.0
H406 H 0.10944 0.9336 0.4836 0.0
H407 H 0.17956 0.94978 0.5109 0.0
H408 H 0.2791 0.02039 0.5048 0.0
C409 C 0.36977 0.09659 0.48545 0.0
C410 C 0.32737 0.08982 0.4692 0.0
C411 C 0.26891 0.04947 0.47319 0.0
C412 C 0.22814 0.04108 0.45761 0.0
C413 C 0.17071 0.99816 0.46168 0.0
C414 C 0.15359 0.966 0.48077 0.0
C415 C 0.19308 0.97503 0.49611 0.0
C416 C 0.25013 0.0159 0.49241 0.0
H417 H 0.20557 0.11206 0.77025 0.0
C418 C 0.19114 0.1344 0.75974 0.0
H419 H 0.20862 0.21278 0.74695 0.0
H420 H 0.33591 0.27141 0.84182 0.0
H421 H 0.25238 0.18966 0.85784 0.0
H422 H 0.17337 0.12547 0.83596 0.0
H423 H 0.17749 0.14208 0.79831 0.0
C424 C 0.21807 0.19135 0.75961 0.0
C425 C 0.26636 0.22753 0.77378 0.0
C426 C 0.26268 0.21738 0.79627 0.0
C427 C 0.30791 0.25518 0.8091 0.0
C428 C 0.30309 0.24412 0.83136 0.0
C429 C 0.25528 0.19747 0.84082 0.0
C430 C 0.21095 0.16124 0.82851 0.0
C431 C 0.21427 0.17108 0.80662 0.0
H432 H 0.38697 0.40982 0.80856 0.0
C433 C 0.41316 0.39592 0.81681 0.0
H434 H 0.4261 0.32592 0.82201 0.0
H435 H 0.29289 0.25781 0.73129 0.0
H436 H 0.37654 0.33993 0.716 0.0
H437 H 0.45259 0.40602 0.73855 0.0
H438 H 0.44508 0.39004 0.77665 0.0
C439 C 0.40312 0.34307 0.81356 0.0
C440 C 0.35629 0.30378 0.79979 0.0
C441 C 0.36063 0.31362 0.77748 0.0
C442 C 0.31613 0.27553 0.76449 0.0
C443 C 0.32352 0.28595 0.74218 0.0
C444 C 0.37195 0.3328 0.73306 0.0
C445 C 0.41479 0.36996 0.74574 0.0
C446 C 0.40968 0.36044 0.76765 0.0
H447 H 0.98209 0.13115 0.67727 0.0
C448 C 0.98849 0.09481 0.67759 0.0
H449 H 0.95961 0.01373 0.66588 0.0
H450 H 0.71944 0.99196 0.64592 0.0
H451 H 0.6941 0.92198 0.67485 0.0
H452 H 0.76787 0.91093 0.69324 0.0
H453 H 0.86763 0.97034 0.68293 0.0
C454 C 0.95743 0.05245 0.66475 0.0
C455 C 0.91256 0.0541 0.65147 0.0
C456 C 0.854 0.01757 0.65705 0.0
C457 C 0.81114 0.02304 0.64603 0.0
C458 C 0.75356 0.98839 0.65305 0.0
C459 C 0.7384 0.94827 0.66981 0.0
C460 C 0.77994 0.94211 0.68019 0.0
C461 C 0.8371 0.97646 0.67406 0.0
H462 H 0.73794 0.99266 0.60584 0.0
C463 C 0.74129 0.03404 0.60642 0.0
H464 H 0.78736 0.11513 0.61906 0.0
H465 H 0.01964 0.12627 0.63501 0.0
H466 H 0.04535 0.19501 0.60546 0.0
H467 H 0.97157 0.20415 0.5862 0.0
H468 H 0.87164 0.14463 0.59632 0.0
C469 C 0.78278 0.07345 0.61804 0.0
C470 C 0.82661 0.06394 0.62889 0.0
C471 C 0.88511 0.09904 0.62285 0.0
C472 C 0.92791 0.09404 0.63406 0.0
C473 C 0.98565 0.12913 0.62737 0.0
C474 C 1.00096 0.16852 0.61034 0.0
C475 C 0.95941 0.17364 0.59949 0.0
C476 C 0.90216 0.13933 0.60554 0.0
H477 H 0.03652 0.94481 0.99074 0.0
C478 C 0.01777 0.96236 1.00115 0.0
H479 H 0.9421 0.9526 0.01381 0.0
H480 H 0.86989 0.81472 0.922 0.0
H481 H 0.94968 0.8968 0.90431 0.0
H482 H 0.01708 0.97766 0.92459 0.0
H483 H 1.0053 0.97656 0.9624 0.0
C484 C 0.96095 0.94008 1.00149 0.0
C485 C 0.92145 0.89134 0.98833 0.0
C486 C 0.92867 0.89293 0.96584 0.0
C487 C 0.88892 0.84679 0.95395 0.0
C488 C 0.8979 0.84898 0.93171 0.0
C489 C 0.9437 0.89575 0.92132 0.0
C490 C 0.98167 0.94114 0.93274 0.0
C491 C 0.97444 0.93985 0.95464 0.0
H492 H 0.76012 0.7936 0.93962 0.0
C493 C 0.76148 0.75438 0.93977 0.0
H494 H 0.80086 0.71128 0.95362 0.0
H495 H 0.89621 0.86942 0.03122 0.0
H496 H 0.81472 0.78802 0.04815 0.0
H497 H 0.74422 0.71103 0.02713 0.0
H498 H 0.75531 0.7151 0.98888 0.0
C499 C 0.80019 0.75067 0.95187 0.0
C500 C 0.84143 0.79939 0.96429 0.0
C501 C 0.83425 0.79737 0.98659 0.0
C502 C 0.87427 0.84285 0.99863 0.0
C503 C 0.86644 0.83783 0.02102 0.0
C504 C 0.81993 0.79083 0.03106 0.0
C505 C 0.78034 0.74741 0.01924 0.0
C506 C 0.78728 0.7503 0.99729 0.0
H507 H 0.09945 0.97876 0.32805 0.0
C508 C 0.0603 0.96053 0.3377 0.0
H509 H 0.98324 0.88565 0.3463 0.0
H510 H 0.03772 0.8122 0.25382 0.0
H511 H 1.00786 0.87581 0.2386 0.0
H512 H 0.98796 0.93597 0.2613 0.0
H513 H 0.9982 0.93326 0.29939 0.0
C514 C 0.02102 0.90554 0.33588 0.0
C515 C 0.03187 0.86838 0.32195 0.0
C516 C 0.02496 0.86972 0.29974 0.0
C517 C 0.03544 0.83409 0.28666 0.0
C518 C 0.02937 0.83745 0.26452 0.0
C519 C 0.01243 0.87392 0.25557 0.0
C520 C 1.0013 0.90787 0.26835 0.0
C521 C 1.00743 0.90599 0.29018 0.0
H522 H 0.97921 0.70198 0.27752 0.0
C523 C 0.02292 0.71274 0.274 0.0
H524 H 0.10907 0.77111 0.28022 0.0
H525 H 0.04905 0.85475 0.36379 0.0
H526 H 0.07831 0.79072 0.37905 0.0
H527 H 0.0958 0.72873 0.35649 0.0
H528 H 0.08415 0.73031 0.31849 0.0
C529 C 0.06491 0.76009 0.28216 0.0
C530 C 0.0523 0.79659 0.2958 0.0
C531 C 0.05916 0.79526 0.318 0.0
C532 C 0.04873 0.83089 0.33106 0.0
C533 C 0.05607 0.82848 0.35315 0.0
C534 C 0.07291 0.79196 0.36212 0.0
C535 C 0.0828 0.75708 0.34942 0.0
C536 C 0.07605 0.75849 0.32762 0.0
H537 H 0.17784 0.9886 0.66845 0.0
C538 C 0.1918 0.03147 0.6731 0.0
H539 H 0.25971 0.11588 0.6726 0.0
H540 H 0.4615 0.0698 0.65765 0.0
H541 H 0.47422 0.09753 0.69409 0.0
H542 H 0.4014 0.10912 0.71331 0.0
H543 H 0.31547 0.09326 0.69624 0.0
C544 C 0.24456 0.07357 0.66706 0.0
C545 C 0.28686 0.06314 0.65544 0.0
C546 C 0.33679 0.07186 0.66568 0.0
C547 C 0.37858 0.06432 0.65468 0.0
C548 C 0.42813 0.07414 0.66531 0.0
C549 C 0.43606 0.09022 0.68622 0.0
C550 C 0.39509 0.09683 0.69703 0.0
C551 C 0.34599 0.08775 0.687 0.0
H552 H 0.44801 0.11553 0.60342 0.0
C553 C 0.44986 0.07679 0.60556 0.0
H554 H 0.42199 0.00583 0.62824 0.0
H555 H 0.19915 0.04729 0.63029 0.0
H556 H 0.18575 0.01791 0.59407 0.0
H557 H 0.25579 1.00066 0.57562 0.0
H558 H 0.34003 0.01335 0.59314 0.0
C559 C 0.41437 0.03904 0.62204 0.0
C560 C 0.37076 0.04798 0.63338 0.0
C561 C 0.32075 0.03903 0.62313 0.0
C562 C 0.27922 0.04723 0.63405 0.0
C563 C 0.23107 0.04003 0.62305 0.0
C564 C 0.22298 0.02345 0.60219 0.0
C565 C 0.26249 0.01387 0.59178 0.0
C566 C 0.31083 0.0215 0.60203 0.0
H567 H 0.25896 0.1866 0.00572 0.0
C568 C 0.22047 0.18829 1.00272 0.0
H569 H 0.18355 0.2269 0.98427 0.0
H570 H 0.45957 0.4184 0.97127 0.0
H571 H 0.45853 0.4296 0.0091 0.0
H572 H 0.37287 0.36731 0.03148 0.0
H573 H 0.28814 0.29272 0.01625 0.0
C574 C 0.22229 0.22636 0.98796 0.0
C575 C 0.27464 0.265 0.97464 0.0
C576 C 0.32334 0.30975 0.9837 0.0
C577 C 0.37198 0.34746 0.9706 0.0
C578 C 0.42079 0.38995 0.98027 0.0
C579 C 0.42091 0.39667 1.00201 0.0
C580 C 0.37275 0.36147 0.01463 0.0
C581 C 0.32443 0.31853 0.00567 0.0
H582 H 0.40778 0.45079 0.93841 0.0
C583 C 0.43726 0.43978 0.93138 0.0
H584 H 0.44174 0.36464 0.92482 0.0
H585 H 0.1894 0.18351 0.95205 0.0
H586 H 0.18896 0.17497 0.914 0.0
H587 H 0.27136 0.24295 0.89122 0.0
H588 H 0.3549 0.31946 0.90633 0.0
C589 C 0.42152 0.38229 0.93439 0.0
C590 C 0.3712 0.34196 0.94831 0.0
C591 C 0.32244 0.29745 0.93927 0.0
C592 C 0.27436 0.25891 0.95241 0.0
C593 C 0.22666 0.21457 0.94285 0.0
C594 C 0.22589 0.20903 0.92101 0.0
C595 C 0.27232 0.2472 0.90819 0.0
C596 C 0.32011 0.29091 0.9171 0.0
H597 H 1.00677 0.15622 0.33515 0.0
C598 C 0.04299 0.18221 0.34471 0.0
H599 H 0.10804 0.26482 0.35083 0.0
H600 H 0.02083 0.30769 0.25681 0.0
H601 H 0.04274 0.23865 0.24321 0.0
H602 H 0.07324 0.18584 0.26703 0.0
H603 H 0.08038 0.20052 0.30469 0.0
C604 C 0.0722 0.23914 0.34106 0.0
C605 C 0.05422 0.27074 0.326 0.0
C606 C 0.05312 0.26379 0.30381 0.0
C607 C 0.0391 0.29707 0.28981 0.0
C608 C 0.03428 0.28607 0.26798 0.0
C609 C 0.04626 0.24615 0.25997 0.0
C610 C 0.06317 0.21622 0.2734 0.0
C611 C 0.06669 0.22479 0.29506 0.0
H612 H 0.09875 0.41468 0.2672 0.0
C613 C 0.0584 0.41392 0.26732 0.0
H614 H 0.982 0.38234 0.28697 0.0
H615 H 0.04771 0.29226 0.36763 0.0
H616 H 0.03104 0.3649 0.381 0.0
H617 H 0.0155 0.4282 0.35659 0.0
H618 H 0.01567 0.41872 0.31871 0.0
C619 C 0.0184 0.37762 0.28313 0.0
C620 C 0.02993 0.34007 0.29778 0.0
C621 C 0.03121 0.34708 0.31996 0.0
C622 C 0.04232 0.31186 0.33404 0.0
C623 C 0.04129 0.31879 0.35614 0.0
C624 C 0.03147 0.3602 0.36408 0.0
C625 C 0.02255 0.39571 0.35034 0.0
C626 C 0.02246 0.38951 0.32857 0.0
loop_
_geom_bond_atom_site_label_1
_geom_bond_atom_site_label_2
_geom_bond_distance
_geom_bond_site_symmetry_2
_ccdc_geom_bond_type
Mn0 O5 2.095 . S
Mn0 O15 2.162 . S
Mn0 O16 2.297 1_545 S
Mn0 O24 2.385 1_545 S
Mn0 O25 2.209 . S
Mn0 O26 2.094 . S
Mn1 O6 2.121 . S
Mn1 N8 2.257 1_455 S
Mn1 N17 2.282 1_554 S
Mn1 O25 2.215 . S
Mn1 O27 2.117 . S
C2 O24 1.234 . S
C2 O25 1.283 1_565 S
C3 O15 1.281 1_565 S
C3 O16 1.236 . S
C4 O26 1.240 . S
C4 O27 1.264 . S
O5 Mn0 2.095 . S
O5 C14 1.250 . S
O6 Mn1 2.121 . S
O6 C14 1.258 . S
C7 N8 1.326 . S
C7 C11 1.460 . S
C7 H13 0.929 . S
N8 Mn1 2.257 1_655 S
N8 C7 1.326 . S
N8 C12 1.362 1_554 S
C9 C10 1.258 1_556 S
C9 C12 1.431 . S
C9 C29 1.449 . S
C10 C9 1.258 1_554 S
C10 C11 1.477 . S
C10 H30 0.945 . S
C11 C7 1.460 . S
C11 C10 1.477 . S
C11 H31 0.930 . S
C12 N8 1.362 1_556 S
C12 C9 1.431 . S
C12 C22 1.476 . S
H13 C7 0.929 . S
C14 O5 1.250 . S
C14 O6 1.258 . S
O15 Mn0 2.162 . S
O15 C3 1.281 1_545 S
O16 Mn0 2.297 1_565 S
O16 C3 1.236 . S
N17 Mn1 2.282 1_556 S
N17 C18 1.328 . S
N17 C22 1.318 1_455 S
C18 N17 1.328 . S
C18 C19 1.457 . S
C18 H23 0.929 . S
C19 C18 1.457 . S
C19 C20 1.291 1_455 S
C19 H32 0.931 . S
C20 C19 1.291 1_655 S
C20 C21 1.373 . S
C20 H33 0.929 . S
C21 C20 1.373 . S
C21 C22 1.396 . S
C21 C28 1.403 . S
C22 C12 1.476 . S
C22 N17 1.318 1_655 S
C22 C21 1.396 . S
H23 C18 0.929 . S
O24 Mn0 2.385 1_565 S
O24 C2 1.234 . S
O25 Mn0 2.209 . S
O25 Mn1 2.215 . S
O25 C2 1.283 1_545 S
O26 Mn0 2.094 . S
O26 C4 1.240 . S
O27 Mn1 2.117 . S
O27 C4 1.264 . S
C28 C21 1.403 . S
C28 C29 1.399 . S
C28 H34 0.929 . S
C29 C9 1.449 . S
C29 C28 1.399 . S
C29 H35 0.930 . S
H30 C10 0.945 . S
H31 C11 0.930 . S
H32 C19 0.931 . S
H33 C20 0.929 . S
H34 C28 0.929 . S
H35 C29 0.930 . S
Mn36 O41 2.095 . S
Mn36 O51 2.162 1_445 S
Mn36 O52 2.297 . S
Mn36 O60 2.385 . S
Mn36 O61 2.209 . S
Mn36 O62 2.094 1_455 S
Mn37 O42 2.121 . S
Mn37 N44 2.257 . S
Mn37 N53 2.282 . S
Mn37 O61 2.215 . S
Mn37 O63 2.117 . S
C38 O60 1.234 . S
C38 O61 1.283 . S
C39 O51 1.281 1_455 S
C39 O52 1.236 1_565 S
C40 O62 1.240 . S
C40 O63 1.264 1_655 S
O41 Mn36 2.095 . S
O41 C50 1.250 . S
O42 Mn37 2.121 . S
O42 C50 1.258 . S
C43 N44 1.326 . S
C43 C47 1.460 . S
C43 H49 0.929 . S
N44 Mn37 2.257 . S
N44 C43 1.326 . S
N44 C48 1.362 . S
C45 C46 1.258 . S
C45 C48 1.431 . S
C45 C65 1.449 . S
C46 C45 1.258 . S
C46 C47 1.477 . S
C46 H66 0.931 . S
C47 C43 1.460 . S
C47 C46 1.477 . S
C47 H67 0.930 . S
C48 N44 1.362 . S
C48 C45 1.431 . S
C48 C58 1.476 . S
H49 C43 0.929 . S
C50 O41 1.250 . S
C50 O42 1.258 . S
O51 Mn36 2.162 1_665 S
O51 C39 1.281 1_655 S
O52 Mn36 2.297 . S
O52 C39 1.236 1_545 S
N53 Mn37 2.282 . S
N53 C54 1.328 . S
N53 C58 1.318 . S
C54 N53 1.328 . S
C54 C55 1.457 . S
C54 H59 0.929 . S
C55 C54 1.457 . S
C55 C56 1.291 . S
C55 H68 0.931 . S
C56 C55 1.291 . S
C56 C57 1.373 . S
C56 H69 0.929 . S
C57 C56 1.373 . S
C57 C58 1.396 . S
C57 C64 1.403 . S
C58 C48 1.476 . S
C58 N53 1.318 . S
C58 C57 1.396 . S
H59 C54 0.929 . S
O60 Mn36 2.385 . S
O60 C38 1.234 . S
O61 Mn36 2.209 . S
O61 Mn37 2.215 . S
O61 C38 1.283 . S
O62 Mn36 2.094 1_655 S
O62 C40 1.240 . S
O63 Mn37 2.117 . S
O63 C40 1.264 1_455 S
C64 C57 1.403 . S
C64 C65 1.399 . S
C64 H70 0.929 . S
C65 C45 1.449 . S
C65 C64 1.399 . S
C65 H71 0.930 . S
H66 C46 0.931 . S
H67 C47 0.930 . S
H68 C55 0.931 . S
H69 C56 0.929 . S
H70 C64 0.929 . S
H71 C65 0.930 . S
Mn72 O77 2.095 . S
Mn72 O87 2.162 1_545 S
Mn72 O88 2.297 . S
Mn72 O96 2.385 . S
Mn72 O97 2.209 . S
Mn72 O98 2.094 1_545 S
Mn73 O78 2.121 1_455 S
Mn73 N80 2.257 . S
Mn73 N89 2.282 . S
Mn73 O97 2.215 . S
Mn73 O99 2.117 1_445 S
C74 O96 1.234 . S
C74 O97 1.283 . S
C75 O87 1.281 1_545 S
C75 O88 1.236 . S
C76 O98 1.240 1_655 S
C76 O99 1.264 . S
O77 Mn72 2.095 . S
O77 C86 1.250 1_455 S
O78 Mn73 2.121 1_655 S
O78 C86 1.258 . S
C79 N80 1.326 . S
C79 C83 1.460 . S
C79 H85 0.929 . S
N80 Mn73 2.257 . S
N80 C79 1.326 . S
N80 C84 1.362 . S
C81 C82 1.258 . S
C81 C84 1.431 . S
C81 C101 1.449 . S
C82 C81 1.258 . S
C82 C83 1.477 . S
C82 H102 0.931 . S
C83 C79 1.460 . S
C83 C82 1.477 . S
C83 H103 0.930 . S
C84 N80 1.362 . S
C84 C81 1.431 . S
C84 C94 1.476 . S
H85 C79 0.929 . S
C86 O77 1.250 1_655 S
C86 O78 1.258 . S
O87 Mn72 2.162 1_565 S
O87 C75 1.281 1_565 S
O88 Mn72 2.297 . S
O88 C75 1.236 . S
N89 Mn73 2.282 . S
N89 C90 1.328 . S
N89 C94 1.318 . S
C90 N89 1.328 . S
C90 C91 1.457 . S
C90 H95 0.929 . S
C91 C90 1.457 . S
C91 C92 1.291 . S
C91 H104 0.931 . S
C92 C91 1.291 . S
C92 C93 1.373 . S
C92 H105 0.929 . S
C93 C92 1.373 . S
C93 C94 1.396 . S
C93 C100 1.403 . S
C94 C84 1.476 . S
C94 N89 1.318 . S
C94 C93 1.396 . S
H95 C90 0.929 . S
O96 Mn72 2.385 . S
O96 C74 1.234 . S
O97 Mn72 2.209 . S
O97 Mn73 2.215 . S
O97 C74 1.283 . S
O98 Mn72 2.094 1_565 S
O98 C76 1.240 1_455 S
O99 Mn73 2.117 1_665 S
O99 C76 1.264 . S
C100 C93 1.403 . S
C100 C101 1.399 . S
C100 H106 0.929 . S
C101 C81 1.449 . S
C101 C100 1.399 . S
C101 H107 0.930 . S
H102 C82 0.931 . S
H103 C83 0.930 . S
H104 C91 0.931 . S
H105 C92 0.929 . S
H106 C100 0.929 . S
H107 C101 0.930 . S
C108 C109 1.443 . S
C108 N112 1.376 . S
C108 C146 1.389 . S
C109 C108 1.443 . S
C109 C110 1.340 . S
C109 H149 0.951 . S
C110 C109 1.340 . S
C110 C111 1.439 . S
C110 H150 0.950 . S
C111 C110 1.439 . S
C111 N112 1.374 . S
C111 C145 1.395 . S
N112 C108 1.376 . S
N112 C111 1.374 . S
N112 Co113 2.008 . S
Co113 N112 2.008 . S
Co113 N114 1.995 . S
Co113 N119 2.008 1_455 S
Co113 N124 1.995 1_455 S
Co113 N129 2.282 . S
Co113 N135 2.282 . S
N114 Co113 1.995 . S
N114 C115 1.376 . S
N114 C118 1.383 . S
C115 N114 1.376 . S
C115 C116 1.446 . S
C115 C145 1.391 . S
C116 C115 1.446 . S
C116 C117 1.339 . S
C116 H151 0.949 . S
C117 C116 1.339 . S
C117 C118 1.439 . S
C117 H152 0.950 . S
C118 N114 1.383 . S
C118 C117 1.439 . S
C118 C147 1.392 . S
N119 Co113 2.008 1_655 S
N119 C120 1.376 . S
N119 C123 1.374 . S
C120 N119 1.376 . S
C120 C121 1.443 . S
C120 C147 1.389 1_655 S
C121 C120 1.443 . S
C121 C122 1.340 . S
C121 H153 0.951 . S
C122 C121 1.340 . S
C122 C123 1.439 . S
C122 H154 0.950 . S
C123 N119 1.374 . S
C123 C122 1.439 . S
C123 C148 1.395 . S
N124 Co113 1.995 1_655 S
N124 C125 1.376 . S
N124 C128 1.383 1_655 S
C125 N124 1.376 . S
C125 C126 1.446 . S
C125 C148 1.391 . S
C126 C125 1.446 . S
C126 C127 1.339 . S
C126 H155 0.949 . S
C127 C126 1.339 . S
C127 C128 1.439 1_655 S
C127 H156 0.950 . S
C128 N124 1.383 1_455 S
C128 C127 1.439 1_455 S
C128 C146 1.392 . S
N129 Co113 2.282 . S
N129 C132 1.332 . S
N129 C134 1.332 . S
C130 C131 1.386 . S
C130 C133 1.388 . S
C131 C130 1.386 . S
C131 C132 1.382 . S
C131 H157 0.950 1_455 S
C132 N129 1.332 . S
C132 C131 1.382 . S
C132 H143 0.952 1_455 S
C133 C130 1.388 . S
C133 C134 1.382 . S
C133 H158 0.950 . S
C134 N129 1.332 . S
C134 C133 1.382 . S
C134 H144 0.948 . S
N135 Co113 2.282 . S
N135 C139 1.332 . S
N135 C140 1.332 1_455 S
C136 C137 1.388 1_655 S
C136 C140 1.382 . S
C136 H159 0.950 . S
C137 C136 1.388 1_455 S
C137 C138 1.386 . S
C138 C137 1.386 . S
C138 C139 1.382 . S
C138 H160 0.950 . S
C139 N135 1.332 . S
C139 C138 1.382 . S
C139 H141 0.952 . S
C140 N135 1.332 1_655 S
C140 C136 1.382 . S
C140 H142 0.948 . S
H141 C139 0.952 . S
H142 C140 0.948 . S
H143 C132 0.952 1_655 S
H144 C134 0.948 . S
C145 C111 1.395 . S
C145 C115 1.391 . S
C146 C108 1.389 . S
C146 C128 1.392 . S
C147 C118 1.392 . S
C147 C120 1.389 1_455 S
C148 C123 1.395 . S
C148 C125 1.391 . S
H149 C109 0.951 . S
H150 C110 0.950 . S
H151 C116 0.949 . S
H152 C117 0.950 . S
H153 C121 0.951 . S
H154 C122 0.950 . S
H155 C126 0.949 . S
H156 C127 0.950 . S
H157 C131 0.950 1_655 S
H158 C133 0.950 . S
H159 C136 0.950 . S
H160 C138 0.950 . S
C161 C162 1.443 1_545 S
C161 N165 1.376 . S
C161 C199 1.389 . S
C162 C161 1.443 1_565 S
C162 C163 1.340 . S
C162 H202 0.951 . S
C163 C162 1.340 . S
C163 C164 1.439 . S
C163 H203 0.950 . S
C164 C163 1.439 . S
C164 N165 1.374 1_565 S
C164 C198 1.395 . S
N165 C161 1.376 . S
N165 C164 1.374 1_545 S
N165 Co166 2.008 . S
Co166 N165 2.008 . S
Co166 N167 1.995 . S
Co166 N172 2.008 . S
Co166 N177 1.995 . S
Co166 N182 2.282 . S
Co166 N188 2.282 . S
N167 Co166 1.995 . S
N167 C168 1.376 1_545 S
N167 C171 1.383 . S
C168 N167 1.376 1_565 S
C168 C169 1.446 . S
C168 C198 1.391 . S
C169 C168 1.446 . S
C169 C170 1.339 . S
C169 H204 0.949 . S
C170 C169 1.339 . S
C170 C171 1.439 1_565 S
C170 H205 0.950 . S
C171 N167 1.383 . S
C171 C170 1.439 1_545 S
C171 C200 1.392 . S
N172 Co166 2.008 . S
N172 C173 1.376 . S
N172 C176 1.374 . S
C173 N172 1.376 . S
C173 C174 1.443 . S
C173 C200 1.389 . S
C174 C173 1.443 . S
C174 C175 1.340 . S
C174 H206 0.951 . S
C175 C174 1.340 . S
C175 C176 1.439 . S
C175 H207 0.950 . S
C176 N172 1.374 . S
C176 C175 1.439 . S
C176 C201 1.395 . S
N177 Co166 1.995 . S
N177 C178 1.376 . S
N177 C181 1.383 . S
C178 N177 1.376 . S
C178 C179 1.446 . S
C178 C201 1.391 . S
C179 C178 1.446 . S
C179 C180 1.339 . S
C179 H208 0.949 . S
C180 C179 1.339 . S
C180 C181 1.439 . S
C180 H209 0.950 . S
C181 N177 1.383 . S
C181 C180 1.439 . S
C181 C199 1.392 . S
N182 Co166 2.282 . S
N182 C185 1.332 . S
N182 C187 1.332 . S
C183 C184 1.386 . S
C183 C186 1.388 . S
C184 C183 1.386 . S
C184 C185 1.382 . S
C184 H210 0.950 . S
C185 N182 1.332 . S
C185 C184 1.382 . S
C185 H196 0.952 . S
C186 C183 1.388 . S
C186 C187 1.382 . S
C186 H211 0.950 . S
C187 N182 1.332 . S
C187 C186 1.382 . S
C187 H197 0.948 . S
N188 Co166 2.282 . S
N188 C192 1.332 . S
N188 C193 1.332 . S
C189 C190 1.388 . S
C189 C193 1.382 . S
C189 H212 0.950 . S
C190 C189 1.388 . S
C190 C191 1.386 . S
C191 C190 1.386 . S
C191 C192 1.382 . S
C191 H213 0.950 . S
C192 N188 1.332 . S
C192 C191 1.382 . S
C192 H194 0.952 . S
C193 N188 1.332 . S
C193 C189 1.382 . S
C193 H195 0.948 . S
H194 C192 0.952 . S
H195 C193 0.948 . S
H196 C185 0.952 . S
H197 C187 0.948 . S
C198 C164 1.395 . S
C198 C168 1.391 . S
C199 C161 1.389 . S
C199 C181 1.392 . S
C200 C171 1.392 . S
C200 C173 1.389 . S
C201 C176 1.395 . S
C201 C178 1.391 . S
H202 C162 0.951 . S
H203 C163 0.950 . S
H204 C169 0.949 . S
H205 C170 0.950 . S
H206 C174 0.951 . S
H207 C175 0.950 . S
H208 C179 0.949 . S
H209 C180 0.950 . S
H210 C184 0.950 . S
H211 C186 0.950 . S
H212 C189 0.950 . S
H213 C191 0.950 . S
C214 C215 1.443 . S
C214 N218 1.376 . S
C214 C252 1.389 . S
C215 C214 1.443 . S
C215 C216 1.340 . S
C215 H255 0.951 . S
C216 C215 1.340 . S
C216 C217 1.439 . S
C216 H256 0.950 . S
C217 C216 1.439 . S
C217 N218 1.374 . S
C217 C251 1.395 . S
N218 C214 1.376 . S
N218 C217 1.374 . S
N218 Co219 2.008 . S
Co219 N218 2.008 . S
Co219 N220 1.995 . S
Co219 N225 2.008 . S
Co219 N230 1.995 . S
Co219 N235 2.282 . S
Co219 N241 2.282 . S
N220 Co219 1.995 . S
N220 C221 1.376 . S
N220 C224 1.383 . S
C221 N220 1.376 . S
C221 C222 1.446 . S
C221 C251 1.391 . S
C222 C221 1.446 . S
C222 C223 1.339 . S
C222 H257 0.949 . S
C223 C222 1.339 . S
C223 C224 1.439 . S
C223 H258 0.950 . S
C224 N220 1.383 . S
C224 C223 1.439 . S
C224 C253 1.392 . S
N225 Co219 2.008 . S
N225 C226 1.376 . S
N225 C229 1.374 . S
C226 N225 1.376 . S
C226 C227 1.443 . S
C226 C253 1.389 . S
C227 C226 1.443 . S
C227 C228 1.340 . S
C227 H259 0.951 . S
C228 C227 1.340 . S
C228 C229 1.439 . S
C228 H260 0.950 . S
C229 N225 1.374 . S
C229 C228 1.439 . S
C229 C254 1.395 . S
N230 Co219 1.995 . S
N230 C231 1.376 . S
N230 C234 1.383 . S
C231 N230 1.376 . S
C231 C232 1.446 . S
C231 C254 1.391 . S
C232 C231 1.446 . S
C232 C233 1.339 . S
C232 H261 0.949 . S
C233 C232 1.339 . S
C233 C234 1.439 . S
C233 H262 0.950 . S
C234 N230 1.383 . S
C234 C233 1.439 . S
C234 C252 1.392 . S
N235 Co219 2.282 . S
N235 C238 1.332 . S
N235 C240 1.332 . S
C236 C237 1.386 . S
C236 C239 1.388 . S
C237 C236 1.386 . S
C237 C238 1.382 . S
C237 H263 0.950 . S
C238 N235 1.332 . S
C238 C237 1.382 . S
C238 H249 0.952 . S
C239 C236 1.388 . S
C239 C240 1.382 . S
C239 H264 0.950 . S
C240 N235 1.332 . S
C240 C239 1.382 . S
C240 H250 0.948 . S
N241 Co219 2.282 . S
N241 C245 1.332 . S
N241 C246 1.332 . S
C242 C243 1.388 . S
C242 C246 1.382 . S
C242 H265 0.950 . S
C243 C242 1.388 . S
C243 C244 1.386 . S
C244 C243 1.386 . S
C244 C245 1.382 . S
C244 H266 0.950 . S
C245 N241 1.332 . S
C245 C244 1.382 . S
C245 H247 0.952 . S
C246 N241 1.332 . S
C246 C242 1.382 . S
C246 H248 0.948 . S
H247 C245 0.952 . S
H248 C246 0.948 . S
H249 C238 0.952 . S
H250 C240 0.948 . S
C251 C217 1.395 . S
C251 C221 1.391 . S
C252 C214 1.389 . S
C252 C234 1.392 . S
C253 C224 1.392 . S
C253 C226 1.389 . S
C254 C229 1.395 . S
C254 C231 1.391 . S
H255 C215 0.951 . S
H256 C216 0.950 . S
H257 C222 0.949 . S
H258 C223 0.950 . S
H259 C227 0.951 . S
H260 C228 0.950 . S
H261 C232 0.949 . S
H262 C233 0.950 . S
H263 C237 0.950 . S
H264 C239 0.950 . S
H265 C242 0.950 . S
H266 C244 0.950 . S
H267 C268 0.951 . S
C268 H267 0.951 . S
C268 C274 1.265 . S
H269 C274 0.950 . S
H270 C278 0.949 . S
H271 C279 0.950 . S
H272 C280 0.951 1_655 S
H273 C281 0.951 . S
C274 C268 1.265 . S
C274 H269 0.950 . S
C274 C275 1.478 . S
C275 C274 1.478 . S
C275 C276 1.397 . S
C275 C292 1.394 . S
C276 C275 1.397 . S
C276 C277 1.438 . S
C276 C281 1.429 . S
C277 C276 1.438 . S
C277 C278 1.428 . S
C277 C290 1.394 . S
C278 H270 0.949 . S
C278 C277 1.428 . S
C278 C279 1.345 . S
C279 H271 0.950 . S
C279 C278 1.345 . S
C279 C280 1.424 . S
C280 H272 0.951 1_455 S
C280 C279 1.424 . S
C280 C281 1.347 . S
C281 H273 0.951 . S
C281 C276 1.429 . S
C281 C280 1.347 . S
H282 C283 0.951 . S
C283 H282 0.951 . S
C283 C289 1.265 . S
H284 C289 0.950 . S
H285 C293 0.949 . S
H286 C294 0.950 . S
H287 C295 0.951 . S
H288 C296 0.951 . S
C289 C283 1.265 . S
C289 H284 0.950 . S
C289 C290 1.478 . S
C290 C277 1.394 . S
C290 C289 1.478 . S
C290 C291 1.397 . S
C291 C290 1.397 . S
C291 C292 1.438 . S
C291 C296 1.429 . S
C292 C275 1.394 . S
C292 C291 1.438 . S
C292 C293 1.428 . S
C293 H285 0.949 . S
C293 C292 1.428 . S
C293 C294 1.345 . S
C294 H286 0.950 . S
C294 C293 1.345 . S
C294 C295 1.424 . S
C295 H287 0.951 . S
C295 C294 1.424 . S
C295 C296 1.347 . S
C296 H288 0.951 . S
C296 C291 1.429 . S
C296 C295 1.347 . S
H297 C298 0.951 . S
C298 H297 0.951 . S
C298 C304 1.265 . S
H299 C304 0.950 . S
H300 C308 0.949 . S
H301 C309 0.950 . S
H302 C310 0.951 . S
H303 C311 0.951 . S
C304 C298 1.265 . S
C304 H299 0.950 . S
C304 C305 1.478 . S
C305 C304 1.478 . S
C305 C306 1.397 . S
C305 C322 1.394 . S
C306 C305 1.397 . S
C306 C307 1.438 . S
C306 C311 1.429 1_545 S
C307 C306 1.438 . S
C307 C308 1.428 1_545 S
C307 C320 1.394 . S
C308 H300 0.949 . S
C308 C307 1.428 1_565 S
C308 C309 1.345 . S
C309 H301 0.950 . S
C309 C308 1.345 . S
C309 C310 1.424 . S
C310 H302 0.951 . S
C310 C309 1.424 . S
C310 C311 1.347 . S
C311 H303 0.951 . S
C311 C306 1.429 1_565 S
C311 C310 1.347 . S
H312 C313 0.951 . S
C313 H312 0.951 . S
C313 C319 1.265 . S
H314 C319 0.950 . S
H315 C323 0.949 . S
H316 C324 0.950 . S
H317 C325 0.951 . S
H318 C326 0.951 . S
C319 C313 1.265 . S
C319 H314 0.950 . S
C319 C320 1.478 . S
C320 C307 1.394 . S
C320 C319 1.478 . S
C320 C321 1.397 . S
C321 C320 1.397 . S
C321 C322 1.438 . S
C321 C326 1.429 . S
C322 C305 1.394 . S
C322 C321 1.438 . S
C322 C323 1.428 . S
C323 H315 0.949 . S
C323 C322 1.428 . S
C323 C324 1.345 . S
C324 H316 0.950 . S
C324 C323 1.345 . S
C324 C325 1.424 . S
C325 H317 0.951 . S
C325 C324 1.424 . S
C325 C326 1.347 . S
C326 H318 0.951 . S
C326 C321 1.429 . S
C326 C325 1.347 . S
H327 C328 0.951 . S
C328 H327 0.951 . S
C328 C334 1.265 . S
H329 C334 0.950 . S
H330 C338 0.949 . S
H331 C339 0.950 . S
H332 C340 0.951 . S
H333 C341 0.951 . S
C334 C328 1.265 . S
C334 H329 0.950 . S
C334 C335 1.478 . S
C335 C334 1.478 . S
C335 C336 1.397 . S
C335 C352 1.394 . S
C336 C335 1.397 . S
C336 C337 1.438 . S
C336 C341 1.429 . S
C337 C336 1.438 . S
C337 C338 1.428 . S
C337 C350 1.394 . S
C338 H330 0.949 . S
C338 C337 1.428 . S
C338 C339 1.345 . S
C339 H331 0.950 . S
C339 C338 1.345 . S
C339 C340 1.424 . S
C340 H332 0.951 . S
C340 C339 1.424 . S
C340 C341 1.347 . S
C341 H333 0.951 . S
C341 C336 1.429 . S
C341 C340 1.347 . S
H342 C343 0.951 . S
C343 H342 0.951 . S
C343 C349 1.265 . S
H344 C349 0.950 . S
H345 C353 0.949 . S
H346 C354 0.950 . S
H347 C355 0.951 . S
H348 C356 0.951 . S
C349 C343 1.265 . S
C349 H344 0.950 . S
C349 C350 1.478 . S
C350 C337 1.394 . S
C350 C349 1.478 . S
C350 C351 1.397 . S
C351 C350 1.397 . S
C351 C352 1.438 . S
C351 C356 1.429 . S
C352 C335 1.394 . S
C352 C351 1.438 . S
C352 C353 1.428 . S
C353 H345 0.949 . S
C353 C352 1.428 . S
C353 C354 1.345 . S
C354 H346 0.950 . S
C354 C353 1.345 . S
C354 C355 1.424 . S
C355 H347 0.951 . S
C355 C354 1.424 . S
C355 C356 1.347 . S
C356 H348 0.951 . S
C356 C351 1.429 . S
C356 C355 1.347 . S
H357 C358 0.951 . S
C358 H357 0.951 . S
C358 C364 1.265 . S
H359 C364 0.950 . S
H360 C368 0.949 . S
H361 C369 0.950 . S
H362 C370 0.951 . S
H363 C371 0.951 . S
C364 C358 1.265 . S
C364 H359 0.950 . S
C364 C365 1.478 . S
C365 C364 1.478 . S
C365 C366 1.397 . S
C365 C382 1.394 . S
C366 C365 1.397 . S
C366 C367 1.438 . S
C366 C371 1.429 . S
C367 C366 1.438 . S
C367 C368 1.428 . S
C367 C380 1.394 . S
C368 H360 0.949 . S
C368 C367 1.428 . S
C368 C369 1.345 . S
C369 H361 0.950 . S
C369 C368 1.345 . S
C369 C370 1.424 . S
C370 H362 0.951 . S
C370 C369 1.424 . S
C370 C371 1.347 . S
C371 H363 0.951 . S
C371 C366 1.429 . S
C371 C370 1.347 . S
H372 C373 0.951 . S
C373 H372 0.951 . S
C373 C379 1.265 . S
H374 C379 0.950 . S
H375 C383 0.949 . S
H376 C384 0.950 . S
H377 C385 0.951 . S
H378 C386 0.951 . S
C379 C373 1.265 . S
C379 H374 0.950 . S
C379 C380 1.478 . S
C380 C367 1.394 . S
C380 C379 1.478 . S
C380 C381 1.397 . S
C381 C380 1.397 . S
C381 C382 1.438 . S
C381 C386 1.429 . S
C382 C365 1.394 . S
C382 C381 1.438 . S
C382 C383 1.428 . S
C383 H375 0.949 . S
C383 C382 1.428 . S
C383 C384 1.345 . S
C384 H376 0.950 . S
C384 C383 1.345 . S
C384 C385 1.424 . S
C385 H377 0.951 . S
C385 C384 1.424 . S
C385 C386 1.347 . S
C386 H378 0.951 . S
C386 C381 1.429 . S
C386 C385 1.347 . S
H387 C388 0.951 . S
C388 H387 0.951 . S
C388 C394 1.265 . S
H389 C394 0.950 . S
H390 C398 0.949 . S
H391 C399 0.950 . S
H392 C400 0.951 . S
H393 C401 0.951 . S
C394 C388 1.265 . S
C394 H389 0.950 . S
C394 C395 1.478 . S
C395 C394 1.478 . S
C395 C396 1.397 . S
C395 C412 1.394 . S
C396 C395 1.397 . S
C396 C397 1.438 . S
C396 C401 1.429 . S
C397 C396 1.438 . S
C397 C398 1.428 . S
C397 C410 1.394 . S
C398 H390 0.949 . S
C398 C397 1.428 . S
C398 C399 1.345 . S
C399 H391 0.950 . S
C399 C398 1.345 . S
C399 C400 1.424 . S
C400 H392 0.951 . S
C400 C399 1.424 . S
C400 C401 1.347 . S
C401 H393 0.951 . S
C401 C396 1.429 . S
C401 C400 1.347 . S
H402 C403 0.951 . S
C403 H402 0.951 . S
C403 C409 1.265 . S
H404 C409 0.950 . S
H405 C413 0.949 . S
H406 C414 0.950 . S
H407 C415 0.951 . S
H408 C416 0.951 . S
C409 C403 1.265 . S
C409 H404 0.950 . S
C409 C410 1.478 . S
C410 C397 1.394 . S
C410 C409 1.478 . S
C410 C411 1.397 . S
C411 C410 1.397 . S
C411 C412 1.438 . S
C411 C416 1.429 1_545 S
C412 C395 1.394 . S
C412 C411 1.438 . S
C412 C413 1.428 1_545 S
C413 H405 0.949 . S
C413 C412 1.428 1_565 S
C413 C414 1.345 . S
C414 H406 0.950 . S
C414 C413 1.345 . S
C414 C415 1.424 . S
C415 H407 0.951 . S
C415 C414 1.424 . S
C415 C416 1.347 . S
C416 H408 0.951 . S
C416 C411 1.429 1_565 S
C416 C415 1.347 . S
H417 C418 0.951 . S
C418 H417 0.951 . S
C418 C424 1.265 . S
H419 C424 0.950 . S
H420 C428 0.949 . S
H421 C429 0.950 . S
H422 C430 0.951 . S
H423 C431 0.951 . S
C424 C418 1.265 . S
C424 H419 0.950 . S
C424 C425 1.478 . S
C425 C424 1.478 . S
C425 C426 1.397 . S
C425 C442 1.394 . S
C426 C425 1.397 . S
C426 C427 1.438 . S
C426 C431 1.429 . S
C427 C426 1.438 . S
C427 C428 1.428 . S
C427 C440 1.394 . S
C428 H420 0.949 . S
C428 C427 1.428 . S
C428 C429 1.345 . S
C429 H421 0.950 . S
C429 C428 1.345 . S
C429 C430 1.424 . S
C430 H422 0.951 . S
C430 C429 1.424 . S
C430 C431 1.347 . S
C431 H423 0.951 . S
C431 C426 1.429 . S
C431 C430 1.347 . S
H432 C433 0.951 . S
C433 H432 0.951 . S
C433 C439 1.265 . S
H434 C439 0.950 . S
H435 C443 0.949 . S
H436 C444 0.950 . S
H437 C445 0.951 . S
H438 C446 0.951 . S
C439 C433 1.265 . S
C439 H434 0.950 . S
C439 C440 1.478 . S
C440 C427 1.394 . S
C440 C439 1.478 . S
C440 C441 1.397 . S
C441 C440 1.397 . S
C441 C442 1.438 . S
C441 C446 1.429 . S
C442 C425 1.394 . S
C442 C441 1.438 . S
C442 C443 1.428 . S
C443 H435 0.949 . S
C443 C442 1.428 . S
C443 C444 1.345 . S
C444 H436 0.950 . S
C444 C443 1.345 . S
C444 C445 1.424 . S
C445 H437 0.951 . S
C445 C444 1.424 . S
C445 C446 1.347 . S
C446 H438 0.951 . S
C446 C441 1.429 . S
C446 C445 1.347 . S
H447 C448 0.951 . S
C448 H447 0.951 . S
C448 C454 1.265 . S
H449 C454 0.950 . S
H450 C458 0.949 . S
H451 C459 0.950 . S
H452 C460 0.951 . S
H453 C461 0.951 . S
C454 C448 1.265 . S
C454 H449 0.950 . S
C454 C455 1.478 . S
C455 C454 1.478 . S
C455 C456 1.397 . S
C455 C472 1.394 . S
C456 C455 1.397 . S
C456 C457 1.438 . S
C456 C461 1.429 1_545 S
C457 C456 1.438 . S
C457 C458 1.428 1_545 S
C457 C470 1.394 . S
C458 H450 0.949 . S
C458 C457 1.428 1_565 S
C458 C459 1.345 . S
C459 H451 0.950 . S
C459 C458 1.345 . S
C459 C460 1.424 . S
C460 H452 0.951 . S
C460 C459 1.424 . S
C460 C461 1.347 . S
C461 H453 0.951 . S
C461 C456 1.429 1_565 S
C461 C460 1.347 . S
H462 C463 0.951 . S
C463 H462 0.951 . S
C463 C469 1.265 . S
H464 C469 0.950 . S
H465 C473 0.949 . S
H466 C474 0.950 . S
H467 C475 0.951 . S
H468 C476 0.951 . S
C469 C463 1.265 . S
C469 H464 0.950 . S
C469 C470 1.478 . S
C470 C457 1.394 . S
C470 C469 1.478 . S
C470 C471 1.397 . S
C471 C470 1.397 . S
C471 C472 1.438 . S
C471 C476 1.429 . S
C472 C455 1.394 . S
C472 C471 1.438 . S
C472 C473 1.428 . S
C473 H465 0.949 . S
C473 C472 1.428 . S
C473 C474 1.345 . S
C474 H466 0.950 . S
C474 C473 1.345 . S
C474 C475 1.424 . S
C475 H467 0.951 . S
C475 C474 1.424 . S
C475 C476 1.347 . S
C476 H468 0.951 . S
C476 C471 1.429 . S
C476 C475 1.347 . S
H477 C478 0.951 1_455 S
C478 H477 0.951 1_655 S
C478 C484 1.265 1_554 S
H479 C484 0.950 1_554 S
H480 C488 0.949 . S
H481 C489 0.950 . S
H482 C490 0.951 1_545 S
H483 C491 0.951 . S
C484 C478 1.265 1_556 S
C484 H479 0.950 1_556 S
C484 C485 1.478 . S
C485 C484 1.478 . S
C485 C486 1.397 . S
C485 C502 1.394 . S
C486 C485 1.397 . S
C486 C487 1.438 . S
C486 C491 1.429 . S
C487 C486 1.438 . S
C487 C488 1.428 . S
C487 C500 1.394 . S
C488 H480 0.949 . S
C488 C487 1.428 . S
C488 C489 1.345 . S
C489 H481 0.950 . S
C489 C488 1.345 . S
C489 C490 1.424 . S
C490 H482 0.951 1_565 S
C490 C489 1.424 . S
C490 C491 1.347 . S
C491 H483 0.951 . S
C491 C486 1.429 . S
C491 C490 1.347 . S
H492 C493 0.951 . S
C493 H492 0.951 . S
C493 C499 1.265 . S
H494 C499 0.950 . S
H495 C503 0.949 . S
H496 C504 0.950 . S
H497 C505 0.951 . S
H498 C506 0.951 . S
C499 C493 1.265 . S
C499 H494 0.950 . S
C499 C500 1.478 . S
C500 C487 1.394 . S
C500 C499 1.478 . S
C500 C501 1.397 . S
C501 C500 1.397 . S
C501 C502 1.438 . S
C501 C506 1.429 . S
C502 C485 1.394 . S
C502 C501 1.438 . S
C502 C503 1.428 1_556 S
C503 H495 0.949 . S
C503 C502 1.428 1_554 S
C503 C504 1.345 . S
C504 H496 0.950 . S
C504 C503 1.345 . S
C504 C505 1.424 . S
C505 H497 0.951 . S
C505 C504 1.424 . S
C505 C506 1.347 1_554 S
C506 H498 0.951 . S
C506 C501 1.429 . S
C506 C505 1.347 1_556 S
H507 C508 0.951 . S
C508 H507 0.951 . S
C508 C514 1.265 . S
H509 C514 0.950 1_655 S
H510 C518 0.949 . S
H511 C519 0.950 . S
H512 C520 0.951 . S
H513 C521 0.953 . S
C514 C508 1.265 . S
C514 H509 0.950 1_455 S
C514 C515 1.478 . S
C515 C514 1.478 . S
C515 C516 1.397 . S
C515 C532 1.394 . S
C516 C515 1.397 . S
C516 C517 1.438 . S
C516 C521 1.426 1_455 S
C517 C516 1.438 . S
C517 C518 1.428 . S
C517 C530 1.394 . S
C518 H510 0.949 . S
C518 C517 1.428 . S
C518 C519 1.345 . S
C519 H511 0.950 . S
C519 C518 1.345 . S
C519 C520 1.424 1_455 S
C520 H512 0.951 . S
C520 C519 1.424 1_655 S
C520 C521 1.347 . S
C521 H513 0.953 . S
C521 C516 1.426 1_655 S
C521 C520 1.347 . S
H522 C523 0.951 1_655 S
C523 H522 0.951 1_455 S
C523 C529 1.265 . S
H524 C529 0.950 . S
H525 C533 0.949 . S
H526 C534 0.950 . S
H527 C535 0.951 . S
H528 C536 0.951 . S
C529 C523 1.265 . S
C529 H524 0.950 . S
C529 C530 1.478 . S
C530 C517 1.394 . S
C530 C529 1.478 . S
C530 C531 1.397 . S
C531 C530 1.397 . S
C531 C532 1.438 . S
C531 C536 1.429 . S
C532 C515 1.394 . S
C532 C531 1.438 . S
C532 C533 1.428 . S
C533 H525 0.949 . S
C533 C532 1.428 . S
C533 C534 1.345 . S
C534 H526 0.950 . S
C534 C533 1.345 . S
C534 C535 1.424 . S
C535 H527 0.951 . S
C535 C534 1.424 . S
C535 C536 1.347 . S
C536 H528 0.951 . S
C536 C531 1.429 . S
C536 C535 1.347 . S
H537 C538 0.951 . S
C538 H537 0.951 . S
C538 C544 1.265 . S
H539 C544 0.950 . S
H540 C548 0.949 . S
H541 C549 0.950 . S
H542 C550 0.951 . S
H543 C551 0.951 . S
C544 C538 1.265 . S
C544 H539 0.950 . S
C544 C545 1.478 . S
C545 C544 1.478 . S
C545 C546 1.397 . S
C545 C562 1.394 . S
C546 C545 1.397 . S
C546 C547 1.438 . S
C546 C551 1.429 . S
C547 C546 1.438 . S
C547 C548 1.428 . S
C547 C560 1.394 . S
C548 H540 0.949 . S
C548 C547 1.428 . S
C548 C549 1.345 . S
C549 H541 0.950 . S
C549 C548 1.345 . S
C549 C550 1.424 . S
C550 H542 0.951 . S
C550 C549 1.424 . S
C550 C551 1.347 . S
C551 H543 0.951 . S
C551 C546 1.429 . S
C551 C550 1.347 . S
H552 C553 0.951 . S
C553 H552 0.951 . S
C553 C559 1.265 . S
H554 C559 0.950 . S
H555 C563 0.949 . S
H556 C564 0.950 . S
H557 C565 0.951 . S
H558 C566 0.951 . S
C559 C553 1.265 . S
C559 H554 0.950 . S
C559 C560 1.478 . S
C560 C547 1.394 . S
C560 C559 1.478 . S
C560 C561 1.397 . S
C561 C560 1.397 . S
C561 C562 1.438 . S
C561 C566 1.429 1_545 S
C562 C545 1.394 . S
C562 C561 1.438 . S
C562 C563 1.428 1_545 S
C563 H555 0.949 . S
C563 C562 1.428 1_565 S
C563 C564 1.345 . S
C564 H556 0.950 . S
C564 C563 1.345 . S
C564 C565 1.424 . S
C565 H557 0.951 . S
C565 C564 1.424 . S
C565 C566 1.347 . S
C566 H558 0.951 . S
C566 C561 1.429 1_565 S
C566 C565 1.347 . S
H567 C568 0.958 . S
C568 H567 0.958 . S
C568 C574 1.274 . S
H569 C574 0.950 . S
H570 C578 0.949 . S
H571 C579 0.950 . S
H572 C580 0.951 . S
H573 C581 0.951 . S
C574 C568 1.274 . S
C574 H569 0.950 . S
C574 C575 1.478 . S
C575 C574 1.478 . S
C575 C576 1.397 . S
C575 C592 1.394 . S
C576 C575 1.397 . S
C576 C577 1.438 . S
C576 C581 1.429 1_556 S
C577 C576 1.438 . S
C577 C578 1.428 . S
C577 C590 1.394 . S
C578 H570 0.949 . S
C578 C577 1.428 . S
C578 C579 1.345 . S
C579 H571 0.950 . S
C579 C578 1.345 . S
C579 C580 1.424 1_556 S
C580 H572 0.951 . S
C580 C579 1.424 1_554 S
C580 C581 1.347 . S
C581 H573 0.951 . S
C581 C576 1.429 1_554 S
C581 C580 1.347 . S
H582 C583 0.951 . S
C583 H582 0.951 . S
C583 C589 1.265 . S
H584 C589 0.950 . S
H585 C593 0.949 . S
H586 C594 0.950 . S
H587 C595 0.951 . S
H588 C596 0.951 . S
C589 C583 1.265 . S
C589 H584 0.950 . S
C589 C590 1.478 . S
C590 C577 1.394 . S
C590 C589 1.478 . S
C590 C591 1.397 . S
C591 C590 1.397 . S
C591 C592 1.438 . S
C591 C596 1.429 . S
C592 C575 1.394 . S
C592 C591 1.438 . S
C592 C593 1.428 . S
C593 H585 0.949 . S
C593 C592 1.428 . S
C593 C594 1.345 . S
C594 H586 0.950 . S
C594 C593 1.345 . S
C594 C595 1.424 . S
C595 H587 0.951 . S
C595 C594 1.424 . S
C595 C596 1.347 . S
C596 H588 0.951 . S
C596 C591 1.429 . S
C596 C595 1.347 . S
H597 C598 0.951 . S
C598 H597 0.951 . S
C598 C604 1.265 . S
H599 C604 0.950 . S
H600 C608 0.949 . S
H601 C609 0.950 . S
H602 C610 0.951 . S
H603 C611 0.951 . S
C604 C598 1.265 . S
C604 H599 0.950 . S
C604 C605 1.478 . S
C605 C604 1.478 . S
C605 C606 1.397 . S
C605 C622 1.394 . S
C606 C605 1.397 . S
C606 C607 1.438 . S
C606 C611 1.429 . S
C607 C606 1.438 . S
C607 C608 1.428 . S
C607 C620 1.394 . S
C608 H600 0.949 . S
C608 C607 1.428 . S
C608 C609 1.345 . S
C609 H601 0.950 . S
C609 C608 1.345 . S
C609 C610 1.424 . S
C610 H602 0.951 . S
C610 C609 1.424 . S
C610 C611 1.347 . S
C611 H603 0.951 . S
C611 C606 1.429 . S
C611 C610 1.347 . S
H612 C613 0.951 . S
C613 H612 0.951 . S
C613 C619 1.265 . S
H614 C619 0.950 1_655 S
H615 C623 0.949 . S
H616 C624 0.950 . S
H617 C625 0.951 . S
H618 C626 0.951 1_655 S
C619 C613 1.265 . S
C619 H614 0.950 1_455 S
C619 C620 1.478 . S
C620 C607 1.394 . S
C620 C619 1.478 . S
C620 C621 1.397 . S
C621 C620 1.397 . S
C621 C622 1.438 . S
C621 C626 1.429 . S
C622 C605 1.394 . S
C622 C621 1.438 . S
C622 C623 1.428 . S
C623 H615 0.949 . S
C623 C622 1.428 . S
C623 C624 1.345 . S
C624 H616 0.950 . S
C624 C623 1.345 . S
C624 C625 1.424 1_455 S
C625 H617 0.951 . S
C625 C624 1.424 1_655 S
C625 C626 1.347 1_655 S
C626 H618 0.951 1_455 S
C626 C621 1.429 . S
C626 C625 1.347 1_455 S
C283 C130 1.475 . S
C268 C14 1.420 . S
C298 C40 1.470 . S
C313 C200 1.489 . S
C328 C76 1.438 . S
C343 C252 1.466 . S
C358 C3 1.459 . S
C373 C146 1.457 . S
C403 C190 1.487 . S
C388 C38 1.473 . S
C418 C74 1.423 . S
C433 C236 1.465 . S
C463 C183 1.458 . S
C448 C86 1.361 . S
C478 C2 1.423 1_655 S
C493 C243 1.462 . S
C523 C137 1.452 . S
C508 C39 1.451 . S
C553 C199 1.469 . S
C538 C75 1.468 . S
C583 C253 1.474 . S
C568 C4 1.467 1_556 S
C598 C50 1.412 . S
C613 C147 1.467 . S
