# Generated by pormake.
# Topology ocu, (6,8)-cn, num edge types: 1
# Building blocks:
#     Node 0, Type 0, BuildingBlock: JUFBIX_clean_sbu_0, # of connection points: 6
#     Node 1, Type 0, BuildingBlock: JUFBIX_clean_sbu_0, # of connection points: 6
#     Node 2, Type 0, BuildingBlock: JUFBIX_clean_sbu_0, # of connection points: 6
#     Node 3, Type 0, BuildingBlock: JUFBIX_clean_sbu_0, # of connection points: 6
#     Node 4, Type 0, BuildingBlock: JUFBIX_clean_sbu_0, # of connection points: 6
#     Node 5, Type 0, BuildingBlock: JUFBIX_clean_sbu_0, # of connection points: 6
#     Node 6, Type 0, BuildingBlock: JUFBIX_clean_sbu_0, # of connection points: 6
#     Node 7, Type 0, BuildingBlock: JUFBIX_clean_sbu_0, # of connection points: 6
#     Node 8, Type 1, BuildingBlock: VETTIZ_charged_sbu_0, # of connection points: 8
#     Node 9, Type 1, BuildingBlock: VETTIZ_charged_sbu_0, # of connection points: 8
#     Node 10, Type 1, BuildingBlock: VETTIZ_charged_sbu_0, # of connection points: 8
#     Node 11, Type 1, BuildingBlock: VETTIZ_charged_sbu_0, # of connection points: 8
#     Node 12, Type 1, BuildingBlock: VETTIZ_charged_sbu_0, # of connection points: 8
#     Node 13, Type 1, BuildingBlock: VETTIZ_charged_sbu_0, # of connection points: 8
#     Edge 14, Type (0, 1), BuildingBlock: KIFKEQ_clean_linker_1, # of connection points: 2
#     Edge 15, Type (0, 1), BuildingBlock: KIFKEQ_clean_linker_1, # of connection points: 2
#     Edge 16, Type (0, 1), BuildingBlock: KIFKEQ_clean_linker_1, # of connection points: 2
#     Edge 17, Type (0, 1), BuildingBlock: KIFKEQ_clean_linker_1, # of connection points: 2
#     Edge 18, Type (0, 1), BuildingBlock: KIFKEQ_clean_linker_1, # of connection points: 2
#     Edge 19, Type (0, 1), BuildingBlock: KIFKEQ_clean_linker_1, # of connection points: 2
#     Edge 20, Type (0, 1), BuildingBlock: KIFKEQ_clean_linker_1, # of connection points: 2
#     Edge 21, Type (0, 1), BuildingBlock: KIFKEQ_clean_linker_1, # of connection points: 2
#     Edge 22, Type (0, 1), BuildingBlock: KIFKEQ_clean_linker_1, # of connection points: 2
#     Edge 23, Type (0, 1), BuildingBlock: KIFKEQ_clean_linker_1, # of connection points: 2
#     Edge 24, Type (0, 1), BuildingBlock: KIFKEQ_clean_linker_1, # of connection points: 2
#     Edge 25, Type (0, 1), BuildingBlock: KIFKEQ_clean_linker_1, # of connection points: 2
#     Edge 26, Type (0, 1), BuildingBlock: KIFKEQ_clean_linker_1, # of connection points: 2
#     Edge 27, Type (0, 1), BuildingBlock: KIFKEQ_clean_linker_1, # of connection points: 2
#     Edge 28, Type (0, 1), BuildingBlock: KIFKEQ_clean_linker_1, # of connection points: 2
#     Edge 29, Type (0, 1), BuildingBlock: KIFKEQ_clean_linker_1, # of connection points: 2
#     Edge 30, Type (0, 1), BuildingBlock: KIFKEQ_clean_linker_1, # of connection points: 2
#     Edge 31, Type (0, 1), BuildingBlock: KIFKEQ_clean_linker_1, # of connection points: 2
#     Edge 32, Type (0, 1), BuildingBlock: KIFKEQ_clean_linker_1, # of connection points: 2
#     Edge 33, Type (0, 1), BuildingBlock: KIFKEQ_clean_linker_1, # of connection points: 2
#     Edge 34, Type (0, 1), BuildingBlock: KIFKEQ_clean_linker_1, # of connection points: 2
#     Edge 35, Type (0, 1), BuildingBlock: KIFKEQ_clean_linker_1, # of connection points: 2
#     Edge 36, Type (0, 1), BuildingBlock: KIFKEQ_clean_linker_1, # of connection points: 2
#     Edge 37, Type (0, 1), BuildingBlock: KIFKEQ_clean_linker_1, # of connection points: 2
#     Edge 38, Type (0, 1), BuildingBlock: KIFKEQ_clean_linker_1, # of connection points: 2
#     Edge 39, Type (0, 1), BuildingBlock: KIFKEQ_clean_linker_1, # of connection points: 2
#     Edge 40, Type (0, 1), BuildingBlock: KIFKEQ_clean_linker_1, # of connection points: 2
#     Edge 41, Type (0, 1), BuildingBlock: KIFKEQ_clean_linker_1, # of connection points: 2
#     Edge 42, Type (0, 1), BuildingBlock: KIFKEQ_clean_linker_1, # of connection points: 2
#     Edge 43, Type (0, 1), BuildingBlock: KIFKEQ_clean_linker_1, # of connection points: 2
#     Edge 44, Type (0, 1), BuildingBlock: KIFKEQ_clean_linker_1, # of connection points: 2
#     Edge 45, Type (0, 1), BuildingBlock: KIFKEQ_clean_linker_1, # of connection points: 2
#     Edge 46, Type (0, 1), BuildingBlock: KIFKEQ_clean_linker_1, # of connection points: 2
#     Edge 47, Type (0, 1), BuildingBlock: KIFKEQ_clean_linker_1, # of connection points: 2
#     Edge 48, Type (0, 1), BuildingBlock: KIFKEQ_clean_linker_1, # of connection points: 2
#     Edge 49, Type (0, 1), BuildingBlock: KIFKEQ_clean_linker_1, # of connection points: 2
#     Edge 50, Type (0, 1), BuildingBlock: KIFKEQ_clean_linker_1, # of connection points: 2
#     Edge 51, Type (0, 1), BuildingBlock: KIFKEQ_clean_linker_1, # of connection points: 2
#     Edge 52, Type (0, 1), BuildingBlock: KIFKEQ_clean_linker_1, # of connection points: 2
#     Edge 53, Type (0, 1), BuildingBlock: KIFKEQ_clean_linker_1, # of connection points: 2
#     Edge 54, Type (0, 1), BuildingBlock: KIFKEQ_clean_linker_1, # of connection points: 2
#     Edge 55, Type (0, 1), BuildingBlock: KIFKEQ_clean_linker_1, # of connection points: 2
#     Edge 56, Type (0, 1), BuildingBlock: KIFKEQ_clean_linker_1, # of connection points: 2
#     Edge 57, Type (0, 1), BuildingBlock: KIFKEQ_clean_linker_1, # of connection points: 2
#     Edge 58, Type (0, 1), BuildingBlock: KIFKEQ_clean_linker_1, # of connection points: 2
#     Edge 59, Type (0, 1), BuildingBlock: KIFKEQ_clean_linker_1, # of connection points: 2
#     Edge 60, Type (0, 1), BuildingBlock: KIFKEQ_clean_linker_1, # of connection points: 2
#     Edge 61, Type (0, 1), BuildingBlock: KIFKEQ_clean_linker_1, # of connection points: 2
# Relax obj value: 0.157
# Max RMSD: 0.269
# Mean RMSD: 0.151
data_MOF--net-ocu--node1-JUFBIX_clean_sbu_0--node2-VETTIZ_charged_sbu_0--edge1-KIFKEQ_clean_linker_1
_symmetry_space_group_name_H-M    P1
_symmetry_Int_Tables_number       1
_symmetry_cell_setting            triclinic
loop_
_symmetry_equiv_pos_as_xyz
'x, y, z'
_cell_length_a     37.406877
_cell_length_b     38.69217
_cell_length_c     37.907492
_cell_angle_alpha  93.355453
_cell_angle_beta   91.737627
_cell_angle_gamma 89.838819
loop_
_atom_site_label
_atom_site_type_symbol
_atom_site_fract_x
_atom_site_fract_y
_atom_site_fract_z
_atom_type_partial_charge
Co0 Co 0.24014 0.237 0.26595 0.0
C1 C 0.22795 0.28597 0.3201 0.0
Co2 Co 0.28207 0.27676 0.27154 0.0
C3 C 0.19598 0.17919 0.28036 0.0
C4 C 0.18752 0.19533 0.22779 0.0
N5 N 0.20555 0.20348 0.2586 0.0
N6 N 0.17302 0.15607 0.26428 0.0
C7 C 0.16724 0.16628 0.23131 0.0
H8 H 0.2061 0.17818 0.30734 0.0
H9 H 0.19007 0.20875 0.20376 0.0
C10 C 0.29374 0.22662 0.21795 0.0
N11 N 0.31763 0.30989 0.27582 0.0
C12 C 0.32845 0.32813 0.24894 0.0
C13 C 0.34165 0.31742 0.30249 0.0
N14 N 0.35827 0.34639 0.25745 0.0
C15 C 0.36706 0.3397 0.29103 0.0
C16 C 0.2967 0.22029 0.31206 0.0
O17 O 0.26453 0.21523 0.22843 0.0
O18 O 0.30671 0.25423 0.23294 0.0
O19 O 0.30819 0.24932 0.30333 0.0
O20 O 0.26681 0.20929 0.29882 0.0
O21 O 0.25718 0.29862 0.31012 0.0
H22 H 0.34175 0.30615 0.32794 0.0
H23 H 0.31612 0.32629 0.22269 0.0
O24 O 0.21538 0.25863 0.30407 0.0
O25 O 0.21417 0.26484 0.23367 0.0
O26 O 0.25564 0.30442 0.23962 0.0
C27 C 0.22601 0.29399 0.22578 0.0
H28 H 0.15065 0.15299 0.21094 0.0
H29 H 0.39053 0.34948 0.30575 0.0
Co30 Co 0.79606 0.27127 0.25209 0.0
C31 C 0.80251 0.32439 0.3061 0.0
Co32 Co 0.75311 0.27455 0.28988 0.0
C33 C 0.8518 0.29915 0.21506 0.0
C34 C 0.85452 0.24387 0.21121 0.0
N35 N 0.83405 0.27073 0.22289 0.0
N36 N 0.8832 0.29144 0.20026 0.0
C37 C 0.88494 0.25667 0.19694 0.0
H38 H 0.84247 0.3252 0.22147 0.0
H39 H 0.84881 0.21694 0.21484 0.0
C40 C 0.74701 0.22104 0.23595 0.0
N41 N 0.71585 0.27464 0.31981 0.0
C42 C 0.70543 0.24654 0.33575 0.0
C43 C 0.69248 0.29976 0.32976 0.0
N44 N 0.67665 0.25279 0.35538 0.0
C45 C 0.6679 0.28617 0.35159 0.0
C46 C 0.7395 0.3134 0.23149 0.0
O47 O 0.77595 0.23335 0.22559 0.0
O48 O 0.73291 0.23487 0.26348 0.0
O49 O 0.72674 0.30411 0.26012 0.0
O50 O 0.77023 0.30225 0.2227 0.0
O51 O 0.77271 0.31354 0.31595 0.0
H52 H 0.69292 0.32593 0.32119 0.0
H53 H 0.71799 0.22141 0.33188 0.0
O54 O 0.81656 0.30952 0.27921 0.0
O55 O 0.82178 0.24086 0.28092 0.0
O56 O 0.78029 0.24499 0.32017 0.0
C57 C 0.81042 0.23315 0.31059 0.0
H58 H 0.90727 0.24176 0.1867 0.0
H59 H 0.6454 0.29952 0.36348 0.0
Co60 Co 0.76964 0.73178 0.29101 0.0
C61 C 0.82032 0.78034 0.31415 0.0
Co62 Co 0.7755 0.77257 0.25379 0.0
C63 C 0.78626 0.67014 0.32604 0.0
C64 C 0.7341 0.68869 0.33881 0.0
N65 N 0.76332 0.69621 0.32055 0.0
N66 N 0.77255 0.64665 0.34657 0.0
C67 C 0.73997 0.65832 0.35537 0.0
H68 H 0.81288 0.66844 0.31566 0.0
H69 H 0.70983 0.70393 0.33966 0.0
C70 C 0.72569 0.72305 0.23017 0.0
N71 N 0.78071 0.80778 0.22337 0.0
C72 C 0.76852 0.84045 0.22815 0.0
C73 C 0.78968 0.80457 0.18915 0.0
N74 N 0.76722 0.85708 0.1979 0.0
C75 C 0.78146 0.83484 0.17347 0.0
C76 C 0.82059 0.71639 0.23826 0.0
O77 O 0.7336 0.71145 0.26008 0.0
O78 O 0.7403 0.75096 0.22185 0.0
O79 O 0.81199 0.74659 0.22966 0.0
O80 O 0.8055 0.70449 0.26467 0.0
O81 O 0.81061 0.79357 0.28541 0.0
H82 H 0.79789 0.78069 0.17546 0.0
H83 H 0.75715 0.85081 0.25244 0.0
O84 O 0.80619 0.75199 0.322 0.0
O85 O 0.73433 0.75949 0.31697 0.0
O86 O 0.73857 0.79875 0.27848 0.0
C87 C 0.72497 0.78893 0.30654 0.0
H88 H 0.72181 0.64566 0.37217 0.0
H89 H 0.78137 0.83834 0.14533 0.0
Co90 Co 0.25333 0.79433 0.27175 0.0
C91 C 0.30626 0.79802 0.32429 0.0
Co92 Co 0.29105 0.7514 0.26805 0.0
C93 C 0.18714 0.83131 0.2695 0.0
C94 C 0.23247 0.86511 0.27319 0.0
N95 N 0.2231 0.8315 0.27207 0.0
N96 N 0.17343 0.86361 0.26939 0.0
C97 C 0.20207 0.88488 0.27161 0.0
H98 H 0.17139 0.80785 0.26866 0.0
H99 H 0.25963 0.87464 0.27586 0.0
C100 C 0.23779 0.74642 0.21603 0.0
N101 N 0.32148 0.71433 0.26761 0.0
C102 C 0.35743 0.71489 0.27033 0.0
C103 C 0.31248 0.68062 0.26641 0.0
N104 N 0.3715 0.68275 0.27059 0.0
C105 C 0.34312 0.66115 0.26812 0.0
C106 C 0.23035 0.7388 0.31118 0.0
O107 O 0.22813 0.77505 0.23082 0.0
O108 O 0.26546 0.73148 0.22806 0.0
O109 O 0.25981 0.72683 0.29941 0.0
O110 O 0.22112 0.76899 0.30223 0.0
O111 O 0.31651 0.77067 0.30764 0.0
H112 H 0.2854 0.67084 0.2638 0.0
H113 H 0.37289 0.73854 0.27153 0.0
O114 O 0.27836 0.81349 0.31339 0.0
O115 O 0.28538 0.8196 0.24146 0.0
O116 O 0.32265 0.77642 0.23673 0.0
C117 C 0.3144 0.80726 0.22906 0.0
H118 H 0.20122 0.91286 0.27456 0.0
H119 H 0.34431 0.63317 0.26552 0.0
Co120 Co 0.2875 0.76251 0.74618 0.0
C121 C 0.29506 0.81619 0.7992 0.0
Co122 Co 0.24419 0.76677 0.78378 0.0
C123 C 0.34326 0.78792 0.70708 0.0
C124 C 0.34253 0.73262 0.70164 0.0
N125 N 0.32516 0.76021 0.71643 0.0
N126 N 0.37161 0.77898 0.68774 0.0
C127 C 0.37126 0.74423 0.68359 0.0
H128 H 0.33605 0.81438 0.71468 0.0
H129 H 0.33538 0.7059 0.70462 0.0
C130 C 0.23655 0.71332 0.73123 0.0
N131 N 0.20587 0.77024 0.81296 0.0
C132 C 0.18375 0.74461 0.82052 0.0
C133 C 0.19099 0.7994 0.82748 0.0
N134 N 0.15554 0.75654 0.83874 0.0
C135 C 0.16013 0.79092 0.84384 0.0
C136 C 0.23173 0.80406 0.72373 0.0
O137 O 0.26613 0.72412 0.72075 0.0
O138 O 0.22285 0.72827 0.75828 0.0
O139 O 0.21931 0.79668 0.75315 0.0
O140 O 0.26241 0.79252 0.71548 0.0
O141 O 0.26543 0.80506 0.80903 0.0
H142 H 0.20137 0.82525 0.82551 0.0
H143 H 0.18825 0.71758 0.81293 0.0
O144 O 0.30926 0.80141 0.7723 0.0
O145 O 0.31213 0.73243 0.7762 0.0
O146 O 0.26943 0.73597 0.81461 0.0
C147 C 0.29973 0.72386 0.80526 0.0
H148 H 0.39093 0.72852 0.66969 0.0
H149 H 0.14227 0.80854 0.85793 0.0
Co150 Co 0.27489 0.25545 0.77705 0.0
C151 C 0.32377 0.30637 0.80096 0.0
Co152 Co 0.2827 0.29523 0.73916 0.0
C153 C 0.28259 0.1886 0.80472 0.0
C154 C 0.25997 0.22501 0.84234 0.0
N155 N 0.26981 0.22113 0.80841 0.0
N156 N 0.28329 0.17267 0.83538 0.0
C157 C 0.26821 0.19524 0.85895 0.0
H158 H 0.2946 0.17785 0.78091 0.0
H159 H 0.25095 0.24903 0.85518 0.0
C160 C 0.23309 0.24491 0.71587 0.0
N161 N 0.28807 0.32973 0.70835 0.0
C162 C 0.28109 0.36354 0.71532 0.0
C163 C 0.29327 0.32648 0.67333 0.0
N164 N 0.27947 0.38138 0.68582 0.0
C165 C 0.28798 0.3582 0.6594 0.0
C166 C 0.32796 0.23894 0.72628 0.0
O167 O 0.2418 0.23244 0.7452 0.0
O168 O 0.24698 0.27337 0.70807 0.0
O169 O 0.31893 0.26807 0.71489 0.0
O170 O 0.31353 0.22964 0.75419 0.0
O171 O 0.31798 0.31701 0.77021 0.0
H172 H 0.29729 0.30214 0.65844 0.0
H173 H 0.27402 0.37427 0.74116 0.0
O174 O 0.30809 0.27907 0.80944 0.0
O175 O 0.23669 0.28105 0.79913 0.0
O176 O 0.24588 0.3223 0.76369 0.0
C177 C 0.22922 0.31118 0.78954 0.0
H178 H 0.26753 0.1923 0.88716 0.0
H179 H 0.28612 0.36272 0.63149 0.0
Co180 Co 0.75464 0.27512 0.77019 0.0
C181 C 0.80794 0.28039 0.82229 0.0
Co182 Co 0.79199 0.23182 0.76733 0.0
C183 C 0.68842 0.31224 0.76666 0.0
C184 C 0.7338 0.34597 0.77139 0.0
N185 N 0.72436 0.31237 0.77012 0.0
N186 N 0.67486 0.34456 0.76586 0.0
C187 C 0.7035 0.3658 0.76887 0.0
H188 H 0.6726 0.28881 0.76521 0.0
H189 H 0.76097 0.35544 0.77446 0.0
C190 C 0.73956 0.22764 0.71431 0.0
N191 N 0.82216 0.19462 0.76754 0.0
C192 C 0.85813 0.19489 0.76894 0.0
C193 C 0.8129 0.16103 0.76711 0.0
N194 N 0.87202 0.16262 0.76862 0.0
C195 C 0.84339 0.14132 0.76771 0.0
C196 C 0.73091 0.21979 0.80978 0.0
O197 O 0.72981 0.25581 0.72985 0.0
O198 O 0.76658 0.21178 0.72661 0.0
O199 O 0.76029 0.20744 0.79836 0.0
O200 O 0.72244 0.25027 0.80106 0.0
O201 O 0.81757 0.25181 0.8074 0.0
H202 H 0.78573 0.15144 0.76524 0.0
H203 H 0.87367 0.2184 0.76889 0.0
O204 O 0.77991 0.29511 0.81072 0.0
O205 O 0.7863 0.29941 0.73943 0.0
O206 O 0.82398 0.25644 0.73595 0.0
C207 C 0.81533 0.28688 0.72732 0.0
H208 H 0.70266 0.3938 0.77118 0.0
H209 H 0.84414 0.11335 0.76473 0.0
Co210 Co 0.76839 0.75761 0.76571 0.0
C211 C 0.75607 0.80858 0.81896 0.0
Co212 Co 0.81046 0.79713 0.77236 0.0
C213 C 0.71198 0.71538 0.78714 0.0
C214 C 0.71921 0.70739 0.73151 0.0
N215 N 0.73251 0.72492 0.76083 0.0
N216 N 0.68618 0.69304 0.77556 0.0
C217 C 0.69078 0.68738 0.74062 0.0
H218 H 0.71606 0.7244 0.81453 0.0
H219 H 0.72917 0.70941 0.70522 0.0
C220 C 0.82324 0.7476 0.71838 0.0
N221 N 0.84538 0.83038 0.77936 0.0
C222 C 0.85415 0.85461 0.75723 0.0
C223 C 0.8645 0.83851 0.80953 0.0
N224 N 0.87752 0.87778 0.77244 0.0
C225 C 0.88459 0.8676 0.80522 0.0
C226 C 0.82315 0.74032 0.81291 0.0
O227 O 0.79412 0.7348 0.72832 0.0
O228 O 0.83548 0.77516 0.73424 0.0
O229 O 0.83592 0.76895 0.80447 0.0
O230 O 0.79313 0.73047 0.79929 0.0
O231 O 0.78617 0.81932 0.81003 0.0
H232 H 0.8629 0.82501 0.83363 0.0
H233 H 0.84317 0.85556 0.73056 0.0
O234 O 0.74297 0.78162 0.80287 0.0
O235 O 0.74378 0.78392 0.73239 0.0
O236 O 0.78382 0.8251 0.73944 0.0
C237 C 0.75493 0.81334 0.72458 0.0
H238 H 0.6745 0.67048 0.72298 0.0
H239 H 0.90191 0.88093 0.82494 0.0
Fe240 Fe 0.0241 0.05646 0.50929 0.0
O241 O 0.98787 0.01897 0.50073 0.0
Fe242 Fe 0.10391 1.01125 0.51536 0.0
Fe243 Fe 0.938 0.0244 0.51469 0.0
O244 O 0.05427 0.01889 0.52875 0.0
O245 O 0.05395 0.01553 0.52988 0.0
O246 O 0.98761 0.01565 0.50163 0.0
Fe247 Fe 1.01783 0.97788 0.52072 0.0
C248 C 0.97522 0.07517 0.56783 0.0
O249 O 0.98686 0.09106 0.48679 0.0
O250 O 0.93691 0.0571 0.47377 0.0
O251 O 0.03544 0.96745 0.47128 0.0
O252 O 0.09445 0.96863 0.48077 0.0
O253 O 0.0999 0.04177 0.47301 0.0
O254 O 0.0419 0.04568 0.45953 0.0
O255 O 0.93065 0.97851 0.48518 0.0
O256 O 0.97532 0.94311 0.50628 0.0
C257 C 0.07418 0.0435 0.45052 0.0
O258 O 0.05564 0.9432 0.54294 0.0
O259 O 0.1058 0.97722 0.55477 0.0
O260 O 1.00659 0.06752 0.55863 0.0
O261 O 0.9478 0.06784 0.54805 0.0
C262 C 0.95633 0.08433 0.47011 0.0
C263 C 0.94599 0.9485 0.48763 0.0
C264 C 0.96757 0.99097 0.57997 0.0
O265 O 0.94155 0.99526 0.55825 0.0
O266 O 0.99967 0.98787 0.57042 0.0
C267 C 0.06681 0.96052 0.46157 0.0
O268 O 0.11072 0.05655 0.5462 0.0
O269 O 0.06651 0.09126 0.52289 0.0
C270 C 0.08727 0.94931 0.55784 0.0
C271 C 0.09514 0.08625 0.54256 0.0
Fe272 Fe 0.52213 0.93478 1.00253 0.0
O273 O 0.52378 0.98613 0.99772 0.0
Fe274 Fe 0.48044 1.01313 0.02187 0.0
Fe275 Fe 0.56456 0.01607 0.01737 0.0
O276 O 0.51991 0.98448 1.00166 0.0
O277 O 0.52118 0.04297 0.04203 0.0
O278 O 0.52524 0.04456 0.03823 0.0
Fe279 Fe 0.52333 0.09434 0.03659 0.0
C280 C 0.57242 0.95768 0.06448 0.0
O281 O 0.56234 0.9381 0.96709 0.0
O282 O 0.60009 0.98029 0.99282 0.0
O283 O 0.48392 0.09463 0.9972 0.0
O284 O 0.48138 0.03954 0.97686 0.0
O285 O 0.44365 0.97952 0.99447 0.0
O286 O 0.47931 0.9375 0.96725 0.0
O287 O 0.56888 0.04543 0.97189 0.0
O288 O 0.56214 0.09741 0.99877 0.0
C289 C 0.44954 0.95455 0.97074 0.0
O290 O 0.48208 0.09197 0.0709 0.0
O291 O 0.44472 0.04951 0.04499 0.0
O292 O 0.56244 0.93442 0.04108 0.0
O293 O 0.56455 0.9893 0.06213 0.0
C294 C 0.59278 0.95417 0.97038 0.0
C295 C 0.57389 0.0784 0.97309 0.0
C296 C 0.59553 0.0748 0.06854 0.0
O297 O 0.60142 0.05001 0.04455 0.0
O298 O 0.56562 0.09159 0.07238 0.0
C299 C 0.47409 0.07121 0.97392 0.0
O300 O 0.47511 0.98367 0.06725 0.0
O301 O 0.48414 0.93147 0.04126 0.0
C302 C 0.45115 0.07719 0.06554 0.0
C303 C 0.47114 0.95052 0.06636 0.0
Fe304 Fe 1.02308 0.55379 1.01513 0.0
O305 O 0.99483 0.51262 0.99682 0.0
Fe306 Fe 0.10927 0.51953 0.02465 0.0
Fe307 Fe 0.94364 0.50918 1.00369 0.0
O308 O 0.05711 0.51832 0.03349 0.0
O309 O 0.05834 0.51467 0.03088 0.0
O310 O 0.99589 0.50876 0.99479 0.0
Fe311 Fe 0.02948 0.47341 1.01426 0.0
C312 C 0.96225 0.56384 0.064 0.0
O313 O 0.98411 0.58511 0.99005 0.0
O314 O 0.94218 0.54573 0.96631 0.0
O315 O 0.0557 0.46604 0.96672 0.0
O316 O 0.11132 0.48149 0.98401 0.0
O317 O 0.10481 0.55677 0.98829 0.0
O318 O 0.0489 0.55112 0.96837 0.0
O319 O 0.94596 0.46498 0.97096 0.0
O320 O 0.99319 0.43453 0.99492 0.0
C321 C 0.08005 0.5631 0.96586 0.0
O322 O 0.06798 0.44183 0.03895 0.0
O323 O 0.11273 0.47983 0.05868 0.0
O324 O 0.99596 0.55888 0.06273 0.0
O325 O 0.94125 0.55123 0.03963 0.0
C326 C 0.95737 0.57606 0.96831 0.0
C327 C 0.9638 0.43675 0.97574 0.0
C328 C 0.97294 0.47167 0.06722 0.0
O329 O 0.94757 0.47649 0.04483 0.0
O330 O 1.00511 0.47867 0.06136 0.0
C331 C 0.08944 0.46588 0.96211 0.0
O332 O 0.10512 0.56028 0.06147 0.0
O333 O 0.0586 0.59226 0.0379 0.0
C334 C 0.09703 0.44988 0.05759 0.0
C335 C 0.08624 0.58841 0.05938 0.0
Fe336 Fe 0.51364 0.51987 0.97485 0.0
O337 O 0.55005 0.49643 1.00514 0.0
Fe338 Fe 0.44486 0.53761 0.03231 0.0
Fe339 Fe 0.60136 0.49594 0.99666 0.0
O340 O 0.49574 0.53955 0.02063 0.0
O341 O 0.49635 0.53848 0.0239 0.0
O342 O 0.55074 0.49554 1.00836 0.0
Fe343 Fe 0.53322 0.51545 0.05409 0.0
C344 C 0.55948 0.46933 0.92977 0.0
O345 O 0.54608 0.5621 0.9703 0.0
O346 O 0.59783 0.53452 0.96199 0.0
O347 O 0.51031 0.54017 0.09798 0.0
O348 O 0.46167 0.56973 0.07538 0.0
O349 O 0.44098 0.57397 0.99478 0.0
O350 O 0.47231 0.54785 0.94898 0.0
O351 O 0.61639 0.53245 0.03719 0.0
O352 O 0.5653 0.55817 0.05187 0.0
C353 C 0.44943 0.57065 0.96176 0.0
O354 O 0.50177 0.47281 0.05866 0.0
O355 O 0.44871 0.49823 0.06619 0.0
O356 O 0.53641 0.4946 0.93095 0.0
O357 O 0.5837 0.46357 0.95424 0.0
C358 C 0.57741 0.56047 0.9581 0.0
C359 C 0.59924 0.55761 0.05211 0.0
C360 C 0.59651 0.46442 0.06795 0.0
O361 O 0.60476 0.46013 0.03493 0.0
O362 O 0.57427 0.48796 0.08022 0.0
C363 C 0.48616 0.56438 0.09971 0.0
O364 O 0.43015 0.50138 0.99114 0.0
O365 O 0.48195 0.47729 0.97692 0.0
C366 C 0.47005 0.47294 0.06965 0.0
C367 C 0.44811 0.47715 0.97565 0.0
Fe368 Fe 1.02117 0.47242 0.52333 0.0
O369 O 0.99953 0.5148 0.54645 0.0
Fe370 Fe 0.04748 0.50267 0.44248 0.0
Fe371 Fe 0.99896 0.5237 0.59802 0.0
O372 O 0.0454 0.50718 0.49425 0.0
O373 O 0.04692 0.5113 0.4942 0.0
O374 O 1.00089 0.51875 0.54631 0.0
Fe375 Fe 0.02431 0.55354 0.51674 0.0
C376 C 0.96839 0.45013 0.5831 0.0
O377 O 0.06417 0.47621 0.55723 0.0
O378 O 0.03907 0.48871 0.60891 0.0
O379 O 0.0536 0.58468 0.48061 0.0
O380 O 0.0836 0.54359 0.44644 0.0
O381 O 0.08156 0.46279 0.45441 0.0
O382 O 0.04921 0.4331 0.49432 0.0
O383 O 0.03709 0.56198 0.60188 0.0
O384 O 0.06701 0.55934 0.55178 0.0
C385 C 0.07498 0.43579 0.47204 0.0
O386 O 0.98143 0.54797 0.48267 0.0
O387 O 1.00905 0.53931 0.43192 0.0
O388 O 0.99185 0.44117 0.55892 0.0
O389 O 0.96371 0.48201 0.59489 0.0
C390 C 0.06598 0.47991 0.59065 0.0
C391 C 0.06553 0.56587 0.58496 0.0
C392 C 0.96895 0.5892 0.56761 0.0
O393 O 0.96367 0.56211 0.58556 0.0
O394 O 0.99468 0.59259 0.54526 0.0
C395 C 0.07802 0.57565 0.45728 0.0
O396 O 1.00769 0.46572 0.43792 0.0
O397 O 0.97827 0.46806 0.48842 0.0
C398 C 0.98092 0.54527 0.44923 0.0
C399 C 0.97933 0.46207 0.45513 0.0
Fe400 Fe 0.52862 0.97273 0.52073 0.0
O401 O 0.55216 0.01663 0.53992 0.0
Fe402 Fe 0.4911 0.99792 0.44075 0.0
Fe403 Fe 0.55915 0.02763 0.5916 0.0
O404 O 0.49934 1.0046 0.49172 0.0
O405 O 0.49672 1.0084 0.49278 0.0
O406 O 0.54937 0.0204 0.54115 0.0
Fe407 Fe 0.51995 0.05222 0.51241 0.0
C408 C 0.49864 0.97503 0.59095 0.0
O409 O 0.56345 0.94553 0.55502 0.0
O410 O 0.59685 0.98898 0.58458 0.0
O411 O 0.55782 0.04513 0.4754 0.0
O412 O 0.52437 0.03727 0.42674 0.0
O413 O 0.53205 0.96211 0.43353 0.0
O414 O 0.56685 0.96353 0.48226 0.0
O415 O 0.58866 0.06823 0.57555 0.0
O416 O 0.5506 0.09387 0.5354 0.0
C417 C 0.56101 0.95413 0.44971 0.0
O418 O 0.48514 0.07973 0.47796 0.0
O419 O 0.45332 0.03626 0.44704 0.0
O420 O 0.49124 0.97921 0.55868 0.0
O421 O 0.52636 0.9886 0.60624 0.0
C422 C 0.59119 0.95677 0.57428 0.0
C423 C 0.57903 0.09341 0.5562 0.0
C424 C 0.48853 0.07079 0.58349 0.0
O425 O 0.51796 0.06324 0.59917 0.0
O426 O 0.482 0.06116 0.55107 0.0
C427 C 0.55192 0.04991 0.44314 0.0
O428 O 0.46119 0.95756 0.45623 0.0
O429 O 0.49716 0.93138 0.49787 0.0
C430 C 0.45814 0.06848 0.45759 0.0
C431 C 0.46897 0.9327 0.47673 0.0
H432 H 0.10782 0.12752 0.25022 0.0
H433 H 0.20565 0.11724 0.31205 0.0
H434 H 0.0795 0.08397 0.28431 0.0
H435 H 0.17751 0.07559 0.34701 0.0
H436 H 0.1297 1.01317 0.41691 0.0
H437 H 0.14972 0.02364 0.35811 0.0
H438 H 0.05915 0.09165 0.34305 0.0
H439 H 0.03745 0.0782 0.40047 0.0
C440 C 0.12343 0.11536 0.27058 0.0
C441 C 0.15844 0.1264 0.27945 0.0
C442 C 0.10725 0.09059 0.29015 0.0
C443 C 0.12593 0.07673 0.31881 0.0
C444 C 0.16217 0.08539 0.32506 0.0
C445 C 0.17823 0.10989 0.30551 0.0
C446 C 0.11346 0.02929 0.40038 0.0
C447 C 0.08264 0.04564 0.41331 0.0
C448 C 0.12491 0.03536 0.36678 0.0
C449 C 0.10679 0.05945 0.34643 0.0
C450 C 0.07386 0.07296 0.35796 0.0
C451 C 0.06165 0.06573 0.39111 0.0
H452 H 0.80481 0.2256 0.38185 0.0
H453 H 0.86802 0.19357 0.29216 0.0
H454 H 0.84443 0.1925 0.42018 0.0
H455 H 0.90707 0.16038 0.33029 0.0
H456 H 0.93084 0.06904 0.4038 0.0
H457 H 0.89727 0.10662 0.36522 0.0
H458 H 0.91213 0.19231 0.44239 0.0
H459 H 0.94662 0.15446 0.48096 0.0
C460 C 0.82699 0.2114 0.3703 0.0
C461 C 0.83312 0.21206 0.33392 0.0
C462 C 0.84987 0.19279 0.39229 0.0
C463 C 0.87894 0.17402 0.37823 0.0
C464 C 0.88487 0.17455 0.34186 0.0
C465 C 0.86243 0.19353 0.32003 0.0
C466 C 0.92758 0.0961 0.41218 0.0
C467 C 0.9415 0.10897 0.44517 0.0
C468 C 0.90834 0.11759 0.39014 0.0
C469 C 0.90188 0.15233 0.40088 0.0
C470 C 0.91653 0.16554 0.43358 0.0
C471 C 0.93656 0.14409 0.45542 0.0
H472 H 0.84133 0.7647 0.38177 0.0
H473 H 0.85601 0.83996 0.30359 0.0
H474 H 0.87562 0.80172 0.4254 0.0
H475 H 0.88989 0.87647 0.34696 0.0
H476 H 0.88701 0.95162 0.44398 0.0
H477 H 0.86233 0.90744 0.40289 0.0
H478 H 0.94091 0.83431 0.43816 0.0
H479 H 0.96685 0.87939 0.47989 0.0
C480 C 0.8524 0.78872 0.37367 0.0
C481 C 0.84544 0.79958 0.33928 0.0
C482 C 0.87214 0.80979 0.39863 0.0
C483 C 0.88504 0.84208 0.38963 0.0
C484 C 0.87989 0.85186 0.35472 0.0
C485 C 0.86044 0.83089 0.32987 0.0
C486 C 0.89929 0.92623 0.4435 0.0
C487 C 0.92931 0.91938 0.4654 0.0
C488 C 0.88506 0.90087 0.41962 0.0
C489 C 0.89999 0.86762 0.41694 0.0
C490 C 0.92901 0.85988 0.43966 0.0
C491 C 0.94378 0.88566 0.46353 0.0
H492 H 0.14193 0.92533 0.25787 0.0
H493 H 0.12221 0.82533 0.29865 0.0
H494 H 0.09782 0.95103 0.29741 0.0
H495 H 0.0775 0.85099 0.33683 0.0
H496 H 1.01444 0.93434 0.41542 0.0
H497 H 1.02194 0.91083 0.35455 0.0
H498 H 0.13562 0.92853 0.36603 0.0
H499 H 0.12881 0.95055 0.42678 0.0
C500 C 0.12695 0.90851 0.27381 0.0
C501 C 0.13738 0.87388 0.27708 0.0
C502 C 0.10125 0.92316 0.29593 0.0
C503 C 0.08548 0.90297 0.3207 0.0
C504 C 0.08979 0.86698 0.31803 0.0
C505 C 0.11581 0.85237 0.29625 0.0
C506 C 0.04106 0.93317 0.40492 0.0
C507 C 0.07113 0.94453 0.42579 0.0
C508 C 0.0451 0.92008 0.37013 0.0
C509 C 0.07907 0.91905 0.35578 0.0
C510 C 0.10901 0.93009 0.37659 0.0
C511 C 0.10515 0.94233 0.4114 0.0
H512 H 0.16717 0.83608 0.73497 0.0
H513 H 0.24516 0.81503 0.65477 0.0
H514 H 0.12996 0.86668 0.69283 0.0
H515 H 0.20757 0.84448 0.61244 0.0
H516 H 0.15839 0.93841 0.56324 0.0
H517 H 0.19121 0.90189 0.60221 0.0
H518 H 0.09188 0.86248 0.63905 0.0
H519 H 0.0584 0.90068 0.60002 0.0
C520 C 0.17637 0.83791 0.70833 0.0
C521 C 0.20948 0.82353 0.69844 0.0
C522 C 0.15477 0.85511 0.68402 0.0
C523 C 0.16566 0.85823 0.64915 0.0
C524 C 0.1985 0.8432 0.63919 0.0
C525 C 0.22016 0.82628 0.66351 0.0
C526 C 0.1433 0.92186 0.57943 0.0
C527 C 0.10566 0.92274 0.57867 0.0
C528 C 0.16228 0.90053 0.60166 0.0
C529 C 0.14438 0.87906 0.62391 0.0
C530 C 0.10658 0.87896 0.6225 0.0
C531 C 0.08736 0.9005 0.59991 0.0
H532 H 0.21073 0.17854 0.71961 0.0
H533 H 0.20138 0.26601 0.65417 0.0
H534 H 0.17463 0.14405 0.67703 0.0
H535 H 0.16335 0.23165 0.61175 0.0
H536 H 0.13294 0.14347 0.52585 0.0
H537 H 0.16374 0.18494 0.56783 0.0
H538 H 0.11723 0.13472 0.65455 0.0
H539 H 0.08931 0.09227 0.61276 0.0
C540 C 0.20038 0.19066 0.69636 0.0
C541 C 0.20887 0.22513 0.69043 0.0
C542 C 0.17931 0.17086 0.67189 0.0
C543 C 0.16549 0.18502 0.64092 0.0
C544 C 0.17369 0.21971 0.63509 0.0
C545 C 0.19528 0.23951 0.65952 0.0
C546 C 0.12908 0.1419 0.55391 0.0
C547 C 0.10867 0.11503 0.56627 0.0
C548 C 0.14657 0.16563 0.57801 0.0
C549 C 0.14356 0.16298 0.61479 0.0
C550 C 0.12118 0.13713 0.62662 0.0
C551 C 0.10458 0.11311 0.6027 0.0
H552 H 0.92286 0.20247 0.74029 0.0
H553 H 0.90343 0.09966 0.77455 0.0
H554 H 0.96524 0.17891 0.6985 0.0
H555 H 0.94515 0.07618 0.7313 0.0
H556 H 0.9135 0.08078 0.60381 0.0
H557 H 0.90711 0.09948 0.66567 0.0
H558 H 1.01955 0.12403 0.67517 0.0
H559 H 0.0265 0.104 0.61314 0.0
C560 C 0.92868 0.1751 0.74034 0.0
C561 C 0.90759 0.15249 0.75878 0.0
C562 C 0.95342 0.16169 0.71645 0.0
C563 C 0.95706 0.12581 0.71105 0.0
C564 C 0.94205 0.10402 0.73484 0.0
C565 C 0.91771 0.11747 0.75912 0.0
C566 C 0.93695 0.08988 0.619 0.0
C567 C 0.97059 0.09036 0.60384 0.0
C568 C 0.93339 0.10015 0.65443 0.0
C569 C 0.96319 0.11194 0.67504 0.0
C570 C 0.99659 0.114 0.65979 0.0
C571 C 1.00035 0.10287 0.6244 0.0
H572 H 0.8419 0.91692 0.72705 0.0
H573 H 0.94343 0.906 0.78233 0.0
H574 H 0.86779 0.95772 0.6896 0.0
H575 H 0.96964 0.94887 0.7458 0.0
H576 H 1.00555 0.955 0.62818 0.0
H577 H 0.98629 0.94097 0.68624 0.0
H578 H 0.89472 1.00856 0.67518 0.0
H579 H 0.91216 0.0195 0.61567 0.0
C580 C 0.8697 0.92403 0.73165 0.0
C581 C 0.89108 0.90748 0.7565 0.0
C582 C 0.88453 0.94803 0.71063 0.0
C583 C 0.92112 0.95622 0.71422 0.0
C584 C 0.94157 0.94251 0.74189 0.0
C585 C 0.92661 0.91818 0.7629 0.0
C586 C 0.98157 0.96716 0.63845 0.0
C587 C 0.95972 0.98749 0.61723 0.0
C588 C 0.97078 0.9596 0.67201 0.0
C589 C 0.93841 0.973 0.68507 0.0
C590 C 0.91913 0.9969 0.66542 0.0
C591 C 0.92916 1.00329 0.6314 0.0
H592 H 0.36057 0.23837 0.19377 0.0
H593 H 0.27096 0.16797 0.18076 0.0
H594 H 0.39444 0.20092 0.15298 0.0
H595 H 0.30463 0.13088 0.13957 0.0
H596 H 0.39842 0.0546 0.1076 0.0
H597 H 0.35674 0.09176 0.14158 0.0
H598 H 0.39574 0.18108 0.0912 0.0
H599 H 0.4375 0.14429 0.05839 0.0
C600 C 0.34793 0.21522 0.18181 0.0
C601 C 0.31317 0.20614 0.19056 0.0
C602 C 0.36725 0.19377 0.15835 0.0
C603 C 0.35217 0.16287 0.14309 0.0
C604 C 0.31711 0.15425 0.15122 0.0
C605 C 0.29779 0.17568 0.17465 0.0
C606 C 0.39732 0.08204 0.10342 0.0
C607 C 0.4212 0.09681 0.08087 0.0
C608 C 0.37362 0.10333 0.12279 0.0
C609 C 0.37353 0.13947 0.11953 0.0
C610 C 0.39583 0.15355 0.095 0.0
C611 C 0.4195 0.13247 0.07605 0.0
H612 H 0.92733 0.28689 0.14518 0.0
H613 H 0.89785 0.35211 0.23605 0.0
H614 H 0.95929 0.33571 0.12238 0.0
H615 H 0.92834 0.40096 0.21253 0.0
H616 H 0.90882 0.45844 0.09602 0.0
H617 H 0.89772 0.41529 0.13896 0.0
H618 H 1.01092 0.39511 0.14923 0.0
H619 H 1.02253 0.43917 0.10761 0.0
C620 C 0.92878 0.31121 0.16079 0.0
C621 C 0.90927 0.31626 0.19163 0.0
C622 C 0.94699 0.33897 0.14788 0.0
C623 C 0.94564 0.37169 0.16582 0.0
C624 C 0.92947 0.37578 0.19849 0.0
C625 C 0.91175 0.34802 0.21156 0.0
C626 C 0.93137 0.44557 0.10821 0.0
C627 C 0.96639 0.45162 0.09801 0.0
C628 C 0.92507 0.4211 0.13272 0.0
C629 C 0.95362 0.4022 0.14679 0.0
C630 C 0.98874 0.40967 0.13851 0.0
C631 C 0.99516 0.43474 0.11468 0.0
H632 H 0.7728 0.90445 0.14885 0.0
H633 H 0.7028 0.86779 0.22718 0.0
H634 H 0.72268 0.93675 0.12351 0.0
H635 H 0.65336 0.89969 0.20193 0.0
H636 H 0.58286 0.89487 0.09226 0.0
H637 H 0.63073 0.87935 0.13383 0.0
H638 H 0.66863 0.98485 0.14044 0.0
H639 H 0.62038 1.00078 0.09969 0.0
C640 C 0.74718 0.90439 0.1614 0.0
C641 C 0.74174 0.88349 0.18978 0.0
C642 C 0.71866 0.92282 0.14705 0.0
C643 C 0.6844 0.92016 0.16077 0.0
C644 C 0.67966 0.90194 0.19105 0.0
C645 C 0.70815 0.88394 0.20563 0.0
C646 C 0.60096 0.91483 0.10314 0.0
C647 C 0.59801 0.9489 0.09273 0.0
C648 C 0.62813 0.90605 0.12696 0.0
C649 C 0.65303 0.93107 0.1401 0.0
C650 C 0.64953 0.96532 0.1306 0.0
C651 C 0.6219 0.97429 0.10741 0.0
H652 H 0.24891 0.68323 0.18272 0.0
H653 H 0.17481 0.76926 0.18604 0.0
H654 H 0.20734 0.64996 0.14366 0.0
H655 H 0.13311 0.73553 0.14644 0.0
H656 H 0.09446 0.65668 0.04413 0.0
H657 H 0.13014 0.7003 0.07981 0.0
H658 H 0.14357 0.62858 0.16221 0.0
H659 H 0.1083 0.58565 0.12718 0.0
C660 C 0.22405 0.69531 0.17466 0.0
C661 C 0.21503 0.72876 0.18786 0.0
C662 C 0.20021 0.67618 0.15237 0.0
C663 C 0.16689 0.69009 0.14253 0.0
C664 C 0.15865 0.7243 0.15373 0.0
C665 C 0.1825 0.74348 0.1764 0.0
C666 C 0.10409 0.65087 0.07037 0.0
C667 C 0.09901 0.6178 0.08287 0.0
C668 C 0.12462 0.67563 0.0906 0.0
C669 C 0.14018 0.66733 0.12329 0.0
C670 C 0.13248 0.63531 0.13677 0.0
C671 C 0.11214 0.61085 0.11681 0.0
H672 H 0.26843 0.85847 0.8524 0.0
H673 H 0.36445 0.83655 0.79458 0.0
H674 H 0.3013 0.89985 0.89194 0.0
H675 H 0.39764 0.87665 0.83482 0.0
H676 H 0.45066 0.95996 0.90038 0.0
H677 H 0.40901 0.93386 0.8558 0.0
H678 H 0.34423 0.89784 0.93888 0.0
H679 H 0.38521 0.92579 0.98319 0.0
C680 C 0.29653 0.86267 0.848 0.0
C681 C 0.31394 0.84406 0.82053 0.0
C682 C 0.31542 0.88624 0.87082 0.0
C683 C 0.35223 0.89149 0.86688 0.0
C684 C 0.36923 0.8738 0.83846 0.0
C685 C 0.35025 0.85054 0.81543 0.0
C686 C 0.42691 0.94721 0.90887 0.0
C687 C 0.4209 0.94469 0.94493 0.0
C688 C 0.40326 0.93195 0.88344 0.0
C689 C 0.37358 0.91307 0.89363 0.0
C690 C 0.36657 0.91238 0.92995 0.0
C691 C 0.38999 0.92827 0.9554 0.0
H692 H 0.18311 0.29306 0.84054 0.0
H693 H 0.21809 0.38121 0.7861 0.0
H694 H 0.1459 0.33105 0.87807 0.0
H695 H 0.18094 0.41917 0.82364 0.0
H696 H 0.153 0.47663 0.93099 0.0
H697 H 0.18287 0.43991 0.88655 0.0
H698 H 0.09241 0.37063 0.87983 0.0
H699 H 0.06218 0.40781 0.92454 0.0
C700 C 0.18255 0.32048 0.83621 0.0
C701 C 0.20374 0.33393 0.81012 0.0
C702 C 0.16101 0.3423 0.8577 0.0
C703 C 0.16036 0.37834 0.85413 0.0
C704 C 0.18092 0.39166 0.82747 0.0
C705 C 0.2021 0.36979 0.8057 0.0
C706 C 0.13914 0.45384 0.91976 0.0
C707 C 0.10505 0.44533 0.93151 0.0
C708 C 0.1563 0.43276 0.89405 0.0
C709 C 0.14026 0.4021 0.87948 0.0
C710 C 0.10577 0.39388 0.8906 0.0
C711 C 0.08825 0.41538 0.91602 0.0
H712 H 0.66436 0.236 0.83759 0.0
H713 H 0.7424 0.15395 0.83341 0.0
H714 H 0.62626 0.2013 0.87295 0.0
H715 H 0.70484 0.11941 0.86956 0.0
H716 H 0.61818 0.05187 0.91843 0.0
H717 H 0.65445 0.08441 0.87854 0.0
H718 H 0.61538 0.18029 0.92703 0.0
H719 H 0.57912 0.14828 0.96544 0.0
C720 C 0.67368 0.21063 0.84434 0.0
C721 C 0.70703 0.19837 0.83235 0.0
C722 C 0.65168 0.19045 0.86507 0.0
C723 C 0.66186 0.1569 0.87503 0.0
C724 C 0.69516 0.14459 0.86266 0.0
C725 C 0.71714 0.16478 0.8419 0.0
C726 C 0.61695 0.07987 0.92028 0.0
C727 C 0.59506 0.09689 0.94565 0.0
C728 C 0.63824 0.09885 0.89744 0.0
C729 C 0.63848 0.13569 0.89878 0.0
C730 C 0.61615 0.15233 0.92393 0.0
C731 C 0.59516 0.13356 0.94657 0.0
H732 H 0.8018 0.67962 0.83911 0.0
H733 H 0.89056 0.75101 0.8422 0.0
H734 H 0.83576 0.6421 0.87709 0.0
H735 H 0.92504 0.71287 0.87962 0.0
H736 H 0.96228 0.64755 0.97423 0.0
H737 H 0.93043 0.68885 0.93785 0.0
H738 H 0.88564 0.60375 0.87223 0.0
H739 H 0.91645 0.563 0.90851 0.0
C740 C 0.82861 0.68731 0.84784 0.0
C741 C 0.84347 0.71825 0.83736 0.0
C742 C 0.84824 0.66565 0.86949 0.0
C743 C 0.88342 0.67415 0.88114 0.0
C744 C 0.89801 0.70555 0.87137 0.0
C745 C 0.87827 0.72734 0.84974 0.0
C746 C 0.94583 0.63777 0.95186 0.0
C747 C 0.94155 0.6019 0.94473 0.0
C748 C 0.92758 0.66142 0.93097 0.0
C749 C 0.90481 0.64967 0.90245 0.0
C750 C 0.90197 0.61384 0.89455 0.0
C751 C 0.91992 0.59038 0.91536 0.0
H752 H 0.169 0.27487 0.18159 0.0
H753 H 0.23684 0.36191 0.21368 0.0
H754 H 0.13712 0.31006 0.13932 0.0
H755 H 0.20418 0.39743 0.17293 0.0
H756 H 0.16773 0.4448 0.07411 0.0
H757 H 0.1976 0.4058 0.113 0.0
H758 H 0.09658 0.3565 0.13042 0.0
H759 H 0.0668 0.39486 0.08945 0.0
C760 C 0.17691 0.30161 0.17984 0.0
C761 C 0.20569 0.31549 0.20083 0.0
C762 C 0.15846 0.32189 0.15571 0.0
C763 C 0.16814 0.35664 0.15222 0.0
C764 C 0.19643 0.37058 0.17397 0.0
C765 C 0.2151 0.35024 0.19765 0.0
C766 C 0.15179 0.42556 0.08607 0.0
C767 C 0.1147 0.4234 0.07909 0.0
C768 C 0.16895 0.40327 0.10874 0.0
C769 C 0.14955 0.37839 0.12581 0.0
C770 C 0.11253 0.37527 0.11783 0.0
C771 C 0.09535 0.39736 0.09445 0.0
H772 H 0.12816 0.7641 0.90347 0.0
H773 H 0.12341 0.70115 0.80568 0.0
H774 H 0.09843 0.7182 0.93316 0.0
H775 H 0.09369 0.65522 0.83532 0.0
H776 H 0.03479 0.58355 0.91273 0.0
H777 H 0.04 0.63606 0.87993 0.0
H778 H 0.14016 0.66011 0.93534 0.0
H779 H 0.1357 0.60801 0.96743 0.0
C780 C 0.11922 0.74113 0.88805 0.0
C781 C 0.12871 0.73549 0.85273 0.0
C782 C 0.10233 0.71497 0.90495 0.0
C783 C 0.0945 0.68328 0.88643 0.0
C784 C 0.09955 0.67954 0.84997 0.0
C785 C 0.11677 0.70556 0.83319 0.0
C786 C 0.0581 0.5999 0.91755 0.0
C787 C 0.08492 0.59164 0.94257 0.0
C788 C 0.06078 0.62995 0.89912 0.0
C789 C 0.08988 0.65225 0.90611 0.0
C790 C 0.11697 0.6436 0.93038 0.0
C791 C 0.11467 0.61348 0.94828 0.0
H792 H 0.34836 0.16124 0.80776 0.0
H793 H 0.27633 0.12628 0.88519 0.0
H794 H 0.39694 0.12913 0.83433 0.0
H795 H 0.32556 0.09376 0.91185 0.0
H796 H 0.42618 0.02849 0.93814 0.0
H797 H 0.37905 0.04475 0.89629 0.0
H798 H 0.41876 0.14962 0.90254 0.0
H799 H 0.4655 0.13378 0.94517 0.0
C800 C 0.34241 0.14544 0.82944 0.0
C801 C 0.30849 0.14639 0.8446 0.0
C802 C 0.37039 0.12732 0.84475 0.0
C803 C 0.3648 0.10946 0.87511 0.0
C804 C 0.33024 0.10738 0.88825 0.0
C805 C 0.30223 0.12596 0.87316 0.0
C806 C 0.42531 0.05489 0.93009 0.0
C807 C 0.44936 0.08004 0.94498 0.0
C808 C 0.39831 0.06406 0.90628 0.0
C809 C 0.39562 0.09824 0.89639 0.0
C810 C 0.42074 0.12297 0.90973 0.0
C811 C 0.44726 0.114 0.93414 0.0
H812 H 0.79398 0.33991 0.86179 0.0
H813 H 0.8744 0.26057 0.8459 0.0
H814 H 0.83426 0.37173 0.90343 0.0
H815 H 0.91472 0.29243 0.888 0.0
H816 H 0.98652 0.39098 0.92319 0.0
H817 H 0.94896 0.34776 0.88967 0.0
H818 H 0.86324 0.36938 0.96166 0.0
H819 H 0.90041 0.41277 0.99423 0.0
C820 C 0.82004 0.32897 0.8676 0.0
C821 C 0.83091 0.29771 0.85051 0.0
C822 C 0.84313 0.34714 0.89163 0.0
C823 C 0.87773 0.33457 0.89911 0.0
C824 C 0.88836 0.30289 0.88262 0.0
C825 C 0.86513 0.28457 0.8587 0.0
C826 C 0.96006 0.38552 0.93231 0.0
C827 C 0.94618 0.40497 0.96111 0.0
C828 C 0.93851 0.36093 0.91317 0.0
C829 C 0.90286 0.35562 0.92267 0.0
C830 C 0.89025 0.37337 0.95321 0.0
C831 C 0.9116 0.39792 0.97206 0.0
H832 H 0.68842 0.79641 0.84046 0.0
H833 H 0.77702 0.86764 0.85699 0.0
H834 H 0.65197 0.83443 0.8783 0.0
H835 H 0.74026 0.90586 0.89448 0.0
H836 H 0.66462 0.94699 0.98599 0.0
H837 H 0.70714 0.91117 0.95163 0.0
H838 H 0.62586 0.89216 0.86943 0.0
H839 H 0.58384 0.92728 0.90352 0.0
C840 C 0.70023 0.81997 0.85243 0.0
C841 C 0.73545 0.82918 0.8454 0.0
C842 C 0.6793 0.84188 0.8739 0.0
C843 C 0.69312 0.87342 0.88881 0.0
C844 C 0.72892 0.88176 0.88333 0.0
C845 C 0.74987 0.85988 0.86176 0.0
C846 C 0.65631 0.93579 0.9602 0.0
C847 C 0.62092 0.93954 0.94754 0.0
C848 C 0.68046 0.91514 0.94067 0.0
C849 C 0.66943 0.89812 0.90832 0.0
C850 C 0.63479 0.90403 0.89476 0.0
C851 C 0.61084 0.92442 0.91414 0.0
H852 H 0.84887 0.73216 0.17551 0.0
H853 H 0.85004 0.65192 0.25002 0.0
H854 H 0.88621 0.69658 0.13638 0.0
H855 H 0.88818 0.61619 0.21052 0.0
H856 H 0.98317 0.57722 0.13489 0.0
H857 H 0.95192 0.61408 0.17974 0.0
H858 H 0.87323 0.64069 0.10031 0.0
H859 H 0.90355 0.60414 0.05638 0.0
C860 C 0.85736 0.70705 0.18385 0.0
C861 C 0.84605 0.69503 0.21606 0.0
C862 C 0.87883 0.68654 0.16123 0.0
C863 C 0.89021 0.65336 0.17008 0.0
C864 C 0.88014 0.64167 0.2029 0.0
C865 C 0.85811 0.66213 0.22548 0.0
C866 C 0.95934 0.59115 0.12709 0.0
C867 C 0.94597 0.58756 0.09191 0.0
C868 C 0.94127 0.61206 0.15282 0.0
C869 C 0.91 0.63051 0.14369 0.0
C870 C 0.89728 0.62722 0.10839 0.0
C871 C 0.91472 0.60601 0.08313 0.0
H872 H 0.30288 0.87358 0.20637 0.0
H873 H 0.38062 0.79134 0.20038 0.0
H874 H 0.34016 0.90847 0.17026 0.0
H875 H 0.41847 0.82638 0.16517 0.0
H876 H 0.46626 0.8805 0.07388 0.0
H877 H 0.43 0.84814 0.11193 0.0
H878 H 0.38984 0.9436 0.16032 0.0
H879 H 0.42605 0.97651 0.1207 0.0
C880 C 0.32802 0.86277 0.1975 0.0
C881 C 0.3381 0.82902 0.20654 0.0
C882 C 0.34985 0.88318 0.17674 0.0
C883 C 0.38302 0.87096 0.16387 0.0
C884 C 0.39316 0.83723 0.17336 0.0
C885 C 0.37129 0.81683 0.19404 0.0
C886 C 0.44998 0.89507 0.09265 0.0
C887 C 0.44982 0.93176 0.09359 0.0
C888 C 0.42897 0.87608 0.11511 0.0
C889 C 0.40633 0.89245 0.14018 0.0
C890 C 0.40627 0.92931 0.14152 0.0
C891 C 0.42755 0.94851 0.11882 0.0
H892 H 0.67864 0.198 0.24156 0.0
H893 H 0.77439 0.17982 0.1823 0.0
H894 H 0.64669 0.15604 0.20231 0.0
H895 H 0.74284 0.13663 0.14373 0.0
H896 H 0.65833 0.10551 0.05437 0.0
H897 H 0.69888 0.13574 0.09749 0.0
H898 H 0.63791 0.09804 0.18248 0.0
H899 H 0.59659 0.06956 0.13906 0.0
C900 C 0.69307 0.18448 0.22057 0.0
C901 C 0.72891 0.19248 0.21484 0.0
C902 C 0.67482 0.16015 0.19812 0.0
C903 C 0.6921 0.14288 0.16963 0.0
C904 C 0.72848 0.14982 0.16495 0.0
C905 C 0.74663 0.17445 0.18719 0.0
C906 C 0.65437 0.10307 0.08232 0.0
C907 C 0.62456 0.08546 0.09364 0.0
C908 C 0.67754 0.12033 0.1071 0.0
C909 C 0.67138 0.11987 0.1436 0.0
C910 C 0.64296 0.09979 0.15467 0.0
C911 C 0.61954 0.08313 0.1299 0.0
H912 H 0.66409 0.62669 0.77066 0.0
H913 H 0.6516 0.72436 0.82997 0.0
H914 H 0.6309 0.59779 0.8153 0.0
H915 H 0.6181 0.69549 0.87443 0.0
H916 H 0.53741 0.61091 0.92654 0.0
H917 H 0.55648 0.64629 0.87858 0.0
H918 H 0.66235 0.60245 0.88622 0.0
H919 H 0.64428 0.56821 0.93419 0.0
C920 C 0.65318 0.64206 0.79258 0.0
C921 C 0.66072 0.67751 0.7973 0.0
C922 C 0.63431 0.62563 0.81802 0.0
C923 C 0.62219 0.64462 0.84806 0.0
C924 C 0.62705 0.68053 0.85129 0.0
C925 C 0.6464 0.69686 0.82613 0.0
C926 C 0.56494 0.60945 0.91847 0.0
C927 C 0.58922 0.58646 0.93391 0.0
C928 C 0.57565 0.6294 0.89095 0.0
C929 C 0.6105 0.62615 0.87846 0.0
C930 C 0.6351 0.60466 0.89506 0.0
C931 C 0.6247 0.58525 0.92264 0.0
H932 H 0.28314 0.6989 0.86944 0.0
H933 H 0.36518 0.69544 0.79154 0.0
H934 H 0.3195 0.66122 0.90575 0.0
H935 H 0.40169 0.65863 0.82802 0.0
H936 H 0.44459 0.56625 0.88856 0.0
H937 H 0.40775 0.60181 0.85027 0.0
H938 H 0.373 0.66293 0.94194 0.0
H939 H 0.4089 0.62745 0.97988 0.0
C940 C 0.3089 0.69019 0.86006 0.0
C941 C 0.32114 0.70039 0.82758 0.0
C942 C 0.32992 0.6687 0.88097 0.0
C943 C 0.36377 0.65686 0.86998 0.0
C944 C 0.3757 0.66676 0.83725 0.0
C945 C 0.35474 0.68817 0.8164 0.0
C946 C 0.42928 0.58742 0.90049 0.0
C947 C 0.42971 0.59364 0.93744 0.0
C948 C 0.40811 0.60788 0.87853 0.0
C949 C 0.38689 0.63511 0.89296 0.0
C950 C 0.38813 0.64175 0.9298 0.0
C951 C 0.40912 0.6214 0.95163 0.0
H952 H 0.3216 0.306 0.87306 0.0
H953 H 0.37271 0.35649 0.78937 0.0
H954 H 0.35122 0.34621 0.91691 0.0
H955 H 0.40272 0.39615 0.83323 0.0
H956 H 0.47833 0.43493 0.92474 0.0
H957 H 0.44951 0.39212 0.88398 0.0
H958 H 0.34827 0.41346 0.93237 0.0
H959 H 0.37714 0.45718 0.97338 0.0
C960 C 0.33961 0.32527 0.86405 0.0
C961 C 0.34498 0.3279 0.8277 0.0
C962 C 0.35625 0.3485 0.88916 0.0
C963 C 0.37916 0.3744 0.87851 0.0
C964 C 0.38532 0.37636 0.84226 0.0
C965 C 0.36817 0.35362 0.81714 0.0
C966 C 0.44994 0.43049 0.92706 0.0
C967 C 0.43005 0.44964 0.95248 0.0
C968 C 0.43343 0.406 0.90346 0.0
C969 C 0.39665 0.39948 0.90488 0.0
C970 C 0.37675 0.41785 0.93081 0.0
C971 C 0.39322 0.44295 0.95417 0.0
H972 H 0.62048 0.30665 0.79034 0.0
H973 H 0.64488 0.406 0.75056 0.0
H974 H 0.56921 0.33179 0.81983 0.0
H975 H 0.59496 0.43153 0.78181 0.0
H976 H 0.53205 0.48086 0.86355 0.0
H977 H 0.53818 0.44312 0.80998 0.0
H978 H 0.58906 0.3658 0.87251 0.0
H979 H 0.58268 0.40293 0.92526 0.0
C980 C 0.61429 0.33353 0.78667 0.0
C981 C 0.6382 0.35498 0.77018 0.0
C982 C 0.58474 0.34796 0.80363 0.0
C983 C 0.57944 0.38397 0.80492 0.0
C984 C 0.59885 0.40381 0.78224 0.0
C985 C 0.62802 0.38929 0.76481 0.0
C986 C 0.54382 0.45544 0.86576 0.0
C987 C 0.55818 0.44526 0.89826 0.0
C988 C 0.54705 0.43379 0.83517 0.0
C989 C 0.56436 0.40161 0.83684 0.0
C990 C 0.57526 0.39023 0.87007 0.0
C991 C 0.57236 0.41188 0.90037 0.0
H992 H 0.67217 0.33948 0.2418 0.0
H993 H 0.75906 0.33977 0.16932 0.0
H994 H 0.6368 0.37574 0.2034 0.0
H995 H 0.72403 0.37668 0.13135 0.0
H996 H 0.63928 0.40858 0.05193 0.0
H997 H 0.67288 0.37316 0.09186 0.0
H998 H 0.63145 0.43314 0.18126 0.0
H999 H 0.59691 0.46853 0.14102 0.0
C1000 C 0.68386 0.34745 0.21777 0.0
C1001 C 0.71846 0.33649 0.20859 0.0
C1002 C 0.66359 0.36847 0.19583 0.0
C1003 C 0.67737 0.3791 0.1641 0.0
C1004 C 0.71222 0.36854 0.15523 0.0
C1005 C 0.73245 0.34749 0.17714 0.0
C1006 C 0.63711 0.41437 0.08008 0.0
C1007 C 0.61538 0.44175 0.09309 0.0
C1008 C 0.65672 0.39407 0.10307 0.0
C1009 C 0.65538 0.40045 0.13988 0.0
C1010 C 0.63304 0.42731 0.15307 0.0
C1011 C 0.61327 0.44771 0.12996 0.0
H1012 H 0.69574 0.74149 0.16657 0.0
H1013 H 0.70685 0.65543 0.23377 0.0
H1014 H 0.66517 0.70336 0.12113 0.0
H1015 H 0.6773 0.61762 0.18828 0.0
H1016 H 0.66682 0.55425 0.08156 0.0
H1017 H 0.69591 0.59615 0.12386 0.0
H1018 H 0.60519 0.66454 0.1154 0.0
H1019 H 0.57561 0.62237 0.07355 0.0
C1020 C 0.69138 0.71463 0.17181 0.0
C1021 C 0.70368 0.70161 0.2039 0.0
C1022 C 0.67397 0.69283 0.14578 0.0
C1023 C 0.66928 0.65745 0.15104 0.0
C1024 C 0.68095 0.64467 0.18333 0.0
C1025 C 0.69761 0.66649 0.20952 0.0
C1026 C 0.65325 0.57841 0.08825 0.0
C1027 C 0.61885 0.58489 0.07414 0.0
C1028 C 0.66982 0.60229 0.11268 0.0
C1029 C 0.65271 0.63351 0.12304 0.0
C1030 C 0.61903 0.64075 0.1078 0.0
C1031 C 0.60212 0.61656 0.08389 0.0
H1032 H 0.42448 0.72219 0.24564 0.0
H1033 H 0.4029 0.62122 0.28319 0.0
H1034 H 0.47476 0.69851 0.21357 0.0
H1035 H 0.45202 0.59725 0.2495 0.0
H1036 H 0.51534 0.55221 0.16498 0.0
H1037 H 0.50896 0.58821 0.21963 0.0
H1038 H 0.45243 0.66484 0.16069 0.0
H1039 H 0.45897 0.62936 0.10673 0.0
C1040 C 0.43111 0.69524 0.24829 0.0
C1041 C 0.40811 0.67296 0.2649 0.0
C1042 C 0.46014 0.68169 0.22987 0.0
C1043 C 0.4659 0.64577 0.22737 0.0
C1044 C 0.44767 0.62496 0.25007 0.0
C1045 C 0.41898 0.63859 0.26891 0.0
C1046 C 0.50223 0.57713 0.16374 0.0
C1047 C 0.48656 0.58757 0.13187 0.0
C1048 C 0.49887 0.59779 0.19494 0.0
C1049 C 0.48014 0.62927 0.19456 0.0
C1050 C 0.46745 0.64096 0.16202 0.0
C1051 C 0.47048 0.62025 0.13107 0.0
H1052 H 0.33187 0.39402 0.21574 0.0
H1053 H 0.42843 0.33997 0.24383 0.0
H1054 H 0.36232 0.42064 0.16845 0.0
H1055 H 0.4591 0.36506 0.19505 0.0
H1056 H 0.5075 0.44797 0.12512 0.0
H1057 H 0.48264 0.41592 0.17233 0.0
H1058 H 0.38274 0.40495 0.11216 0.0
H1059 H 0.40707 0.43886 0.06639 0.0
C1060 C 0.35982 0.38811 0.21167 0.0
C1061 C 0.37799 0.36527 0.2332 0.0
C1062 C 0.37719 0.40281 0.1843 0.0
C1063 C 0.41298 0.39428 0.17724 0.0
C1064 C 0.43158 0.37224 0.19973 0.0
C1065 C 0.41421 0.358 0.22768 0.0
C1066 C 0.48055 0.43781 0.12177 0.0
C1067 C 0.45897 0.44589 0.09246 0.0
C1068 C 0.46624 0.41956 0.14881 0.0
C1069 C 0.43032 0.40871 0.14655 0.0
C1070 C 0.41004 0.41407 0.11544 0.0
C1071 C 0.42405 0.43298 0.08894 0.0
H1072 H 0.89497 0.74946 0.70734 0.0
H1073 H 0.79578 0.70733 0.66278 0.0
H1074 H 0.92799 0.71665 0.66215 0.0
H1075 H 0.82824 0.67637 0.61602 0.0
H1076 H 0.89895 0.58464 0.58105 0.0
H1077 H 0.86253 0.62753 0.6115 0.0
H1078 H 0.94624 0.70354 0.60425 0.0
H1079 H 0.98382 0.65911 0.57497 0.0
C1080 C 0.88019 0.73368 0.68737 0.0
C1081 C 0.8429 0.73036 0.68897 0.0
C1082 C 0.89909 0.71511 0.66112 0.0
C1083 C 0.88102 0.69332 0.63539 0.0
C1084 C 0.84336 0.69194 0.63586 0.0
C1085 C 0.82462 0.7098 0.66262 0.0
C1086 C 0.90934 0.61073 0.58522 0.0
C1087 C 0.94443 0.61838 0.57606 0.0
C1088 C 0.88823 0.63562 0.60258 0.0
C1089 C 0.90138 0.6692 0.61102 0.0
C1090 C 0.93545 0.67776 0.59899 0.0
C1091 C 0.95683 0.65252 0.58166 0.0
H1092 H 0.40062 0.77831 0.62348 0.0
H1093 H 0.39924 0.83348 0.72564 0.0
H1094 H 0.43498 0.82566 0.60054 0.0
H1095 H 0.43259 0.88086 0.70299 0.0
H1096 H 0.51453 0.94946 0.65517 0.0
H1097 H 0.48958 0.89797 0.67895 0.0
H1098 H 0.41635 0.88602 0.58871 0.0
H1099 H 0.4415 0.9371 0.56452 0.0
C1100 C 0.40845 0.80022 0.64108 0.0
C1101 C 0.39715 0.80277 0.676 0.0
C1102 C 0.42763 0.82735 0.62801 0.0
C1103 C 0.43588 0.85704 0.64994 0.0
C1104 C 0.42668 0.85828 0.68555 0.0
C1105 C 0.40746 0.83135 0.69844 0.0
C1106 C 0.49281 0.93613 0.6406 0.0
C1107 C 0.47997 0.94739 0.60799 0.0
C1108 C 0.47872 0.90656 0.65412 0.0
C1109 C 0.45151 0.8878 0.63533 0.0
C1110 C 0.43795 0.89957 0.60327 0.0
C1111 C 0.45199 0.92913 0.58974 0.0
H1112 H 0.22422 0.40434 0.72562 0.0
H1113 H 0.28553 0.4273 0.63515 0.0
H1114 H 0.17661 0.44078 0.70598 0.0
H1115 H 0.23763 0.46548 0.61571 0.0
H1116 H 0.12597 0.45318 0.56089 0.0
H1117 H 0.1837 0.44438 0.58891 0.0
H1118 H 0.14483 0.48916 0.6878 0.0
H1119 H 0.08584 0.49621 0.65988 0.0
C1120 C 0.22845 0.41853 0.70239 0.0
C1121 C 0.25827 0.41196 0.68123 0.0
C1122 C 0.20085 0.43972 0.69105 0.0
C1123 C 0.20266 0.45506 0.65851 0.0
C1124 C 0.2349 0.45289 0.64026 0.0
C1125 C 0.2624 0.43123 0.65141 0.0
C1126 C 0.12962 0.46126 0.58862 0.0
C1127 C 0.10111 0.47491 0.60831 0.0
C1128 C 0.16311 0.45684 0.6046 0.0
C1129 C 0.16916 0.4663 0.64065 0.0
C1130 C 0.141 0.48129 0.66006 0.0
C1131 C 0.10718 0.48521 0.64413 0.0
H1132 H 0.68626 0.25966 0.67781 0.0
H1133 H 0.74643 0.16423 0.67923 0.0
H1134 H 0.64939 0.23557 0.62837 0.0
H1135 H 0.70893 0.13975 0.6305 0.0
H1136 H 0.64777 0.10051 0.53851 0.0
H1137 H 0.69046 0.1401 0.56946 0.0
H1138 H 0.60311 0.19282 0.62209 0.0
H1139 H 0.56072 0.15391 0.59003 0.0
C1140 C 0.69175 0.23356 0.66745 0.0
C1141 C 0.71905 0.21366 0.6827 0.0
C1142 C 0.67056 0.21978 0.63909 0.0
C1143 C 0.67606 0.18572 0.62541 0.0
C1144 C 0.70427 0.16631 0.63988 0.0
C1145 C 0.7256 0.18018 0.66811 0.0
C1146 C 0.63777 0.12181 0.55529 0.0
C1147 C 0.60115 0.12448 0.56188 0.0
C1148 C 0.66217 0.14409 0.57348 0.0
C1149 C 0.65033 0.16899 0.59904 0.0
C1150 C 0.61325 0.17403 0.60257 0.0
C1151 C 0.58883 0.15193 0.58403 0.0
H1152 H 0.7849 0.35727 0.36946 0.0
H1153 H 0.86571 0.3529 0.29028 0.0
H1154 H 0.82229 0.39748 0.40663 0.0
H1155 H 0.90305 0.39187 0.32727 0.0
H1156 H 0.95976 0.47494 0.38794 0.0
H1157 H 0.91058 0.44921 0.35217 0.0
H1158 H 0.87768 0.39371 0.44144 0.0
H1159 H 0.92616 0.42098 0.47776 0.0
C1160 C 0.81037 0.36523 0.35979 0.0
C1161 C 0.82244 0.35182 0.32699 0.0
C1162 C 0.83185 0.38805 0.38115 0.0
C1163 C 0.86568 0.39789 0.36998 0.0
C1164 C 0.87693 0.38542 0.33655 0.0
C1165 C 0.85557 0.36279 0.31534 0.0
C1166 C 0.94174 0.45752 0.39999 0.0
C1167 C 0.94715 0.44923 0.4353 0.0
C1168 C 0.9136 0.44277 0.37952 0.0
C1169 C 0.89069 0.41877 0.39369 0.0
C1170 C 0.89476 0.41217 0.42973 0.0
C1171 C 0.92264 0.42754 0.45048 0.0
H1172 H 0.69772 0.852 0.28935 0.0
H1173 H 0.69728 0.78048 0.37243 0.0
H1174 H 0.66077 0.89211 0.32428 0.0
H1175 H 0.65981 0.82069 0.40753 0.0
H1176 H 0.6189 0.91654 0.47511 0.0
H1177 H 0.65833 0.87681 0.44147 0.0
H1178 H 0.6014 0.89994 0.34496 0.0
H1179 H 0.56267 0.93949 0.37816 0.0
C1180 C 0.68953 0.8446 0.31498 0.0
C1181 C 0.70051 0.81263 0.3277 0.0
C1182 C 0.66811 0.86773 0.33515 0.0
C1183 C 0.65694 0.85996 0.36902 0.0
C1184 C 0.66801 0.82799 0.38185 0.0
C1185 C 0.68931 0.80467 0.36148 0.0
C1186 C 0.61505 0.91344 0.44667 0.0
C1187 C 0.58742 0.9316 0.42959 0.0
C1188 C 0.63751 0.89029 0.42732 0.0
C1189 C 0.63334 0.88484 0.39021 0.0
C1190 C 0.60605 0.90349 0.37327 0.0
C1191 C 0.58354 0.92625 0.39253 0.0
H1192 H 0.1617 0.75145 0.33716 0.0
H1193 H 0.24704 0.67663 0.33972 0.0
H1194 H 0.12563 0.71505 0.37347 0.0
H1195 H 0.21216 0.64118 0.37662 0.0
H1196 H 0.13323 0.56352 0.41196 0.0
H1197 H 0.16703 0.60257 0.37892 0.0
H1198 H 0.11018 0.68941 0.42697 0.0
H1199 H 0.07459 0.64919 0.45986 0.0
C1200 C 0.17303 0.72738 0.34555 0.0
C1201 C 0.20764 0.7173 0.33478 0.0
C1202 C 0.15222 0.70633 0.36679 0.0
C1203 C 0.16506 0.67422 0.37833 0.0
C1204 C 0.20006 0.66481 0.36804 0.0
C1205 C 0.2206 0.6856 0.34677 0.0
C1206 C 0.12759 0.5909 0.41606 0.0
C1207 C 0.10057 0.60246 0.43938 0.0
C1208 C 0.14769 0.61381 0.39688 0.0
C1209 C 0.14244 0.65002 0.39983 0.0
C1210 C 0.11547 0.66195 0.42327 0.0
C1211 C 0.09503 0.63871 0.44265 0.0
H1212 H 0.27621 0.16438 0.34818 0.0
H1213 H 0.3667 0.23022 0.33285 0.0
H1214 H 0.31247 0.13119 0.38874 0.0
H1215 H 0.40352 0.19613 0.37179 0.0
H1216 H 0.46022 0.14046 0.45949 0.0
H1217 H 0.41937 0.17898 0.42859 0.0
H1218 H 0.35721 0.09036 0.38861 0.0
H1219 H 0.39617 0.05282 0.42041 0.0
C1220 C 0.30392 0.17162 0.35327 0.0
C1221 C 0.3185 0.19984 0.33702 0.0
C1222 C 0.32493 0.15247 0.37647 0.0
C1223 C 0.36135 0.16057 0.38362 0.0
C1224 C 0.37564 0.1892 0.36764 0.0
C1225 C 0.35449 0.20864 0.3449 0.0
C1226 C 0.43743 0.12938 0.44463 0.0
C1227 C 0.4319 0.09336 0.44247 0.0
C1228 C 0.41412 0.15143 0.42651 0.0
C1229 C 0.38477 0.13801 0.40568 0.0
C1230 C 0.37886 0.10212 0.40462 0.0
C1231 C 0.40176 0.08032 0.4228 0.0
H1232 H 0.7038 0.78847 0.67713 0.0
H1233 H 0.75767 0.88298 0.71361 0.0
H1234 H 0.66661 0.82025 0.63652 0.0
H1235 H 0.71918 0.91537 0.67416 0.0
H1236 H 0.663 0.96471 0.584 0.0
H1237 H 0.70435 0.9289 0.61667 0.0
H1238 H 0.61826 0.85782 0.63335 0.0
H1239 H 0.57744 0.89308 0.59899 0.0
C1240 C 0.70762 0.81618 0.67658 0.0
C1241 C 0.73371 0.83319 0.69876 0.0
C1242 C 0.68599 0.83453 0.65337 0.0
C1243 C 0.68939 0.87062 0.65193 0.0
C1244 C 0.71594 0.88757 0.67387 0.0
C1245 C 0.73799 0.86905 0.69677 0.0
C1246 C 0.65313 0.94101 0.59406 0.0
C1247 C 0.61699 0.93164 0.58879 0.0
C1248 C 0.67677 0.92063 0.61327 0.0
C1249 C 0.66483 0.89055 0.62843 0.0
C1250 C 0.62883 0.88049 0.62189 0.0
C1251 C 0.60528 0.90066 0.60209 0.0
H1252 H 0.60515 0.24536 0.36009 0.0
H1253 H 0.70711 0.20175 0.39014 0.0
H1254 H 0.57477 0.19487 0.38145 0.0
H1255 H 0.67749 0.15094 0.40961 0.0
H1256 H 0.61211 0.08029 0.47166 0.0
H1257 H 0.64029 0.13225 0.45395 0.0
H1258 H 0.56853 0.13331 0.36239 0.0
H1259 H 0.53867 0.0817 0.38127 0.0
C1260 C 0.62088 0.22525 0.37184 0.0
C1261 C 0.65831 0.22706 0.37336 0.0
C1262 C 0.60368 0.19619 0.38342 0.0
C1263 C 0.62384 0.1688 0.39667 0.0
C1264 C 0.66119 0.17165 0.39972 0.0
C1265 C 0.67818 0.20062 0.38844 0.0
C1266 C 0.60245 0.09126 0.4475 0.0
C1267 C 0.57302 0.07696 0.42789 0.0
C1268 C 0.61869 0.12111 0.43736 0.0
C1269 C 0.60639 0.13699 0.40697 0.0
C1270 C 0.57802 0.12192 0.38637 0.0
C1271 C 0.56138 0.09208 0.39679 0.0
H1272 H 0.80879 0.59979 0.30695 0.0
H1273 H 0.77961 0.62879 0.41368 0.0
H1274 H 0.85477 0.5609 0.32898 0.0
H1275 H 0.82645 0.5915 0.43621 0.0
H1276 H 0.91577 0.52939 0.47291 0.0
H1277 H 0.8577 0.53921 0.44445 0.0
H1278 H 0.91055 0.57856 0.35507 0.0
H1279 H 0.96844 0.56711 0.38293 0.0
C1280 C 0.81172 0.59692 0.33514 0.0
C1281 C 0.79142 0.61738 0.35883 0.0
C1282 C 0.83808 0.57497 0.34778 0.0
C1283 C 0.84499 0.57388 0.38432 0.0
C1284 C 0.82185 0.59156 0.40787 0.0
C1285 C 0.79504 0.61301 0.39512 0.0
C1286 C 0.91482 0.53985 0.44699 0.0
C1287 C 0.94638 0.54854 0.43042 0.0
C1288 C 0.88162 0.54529 0.43066 0.0
C1289 C 0.87941 0.56014 0.39777 0.0
C1290 C 0.91117 0.56669 0.38025 0.0
C1291 C 0.94441 0.56063 0.39634 0.0
H1292 H 0.3778 0.79306 0.33415 0.0
H1293 H 0.28283 0.83216 0.38453 0.0
H1294 H 0.41452 0.81711 0.38307 0.0
H1295 H 0.3192 0.85401 0.43553 0.0
H1296 H 0.3978 0.93883 0.4791 0.0
H1297 H 0.35529 0.89932 0.4501 0.0
H1298 H 0.43828 0.82142 0.43923 0.0
H1299 H 0.48168 0.86295 0.46627 0.0
C1300 C 0.36477 0.80634 0.35622 0.0
C1301 C 0.32763 0.8115 0.3553 0.0
C1302 C 0.38581 0.8197 0.38476 0.0
C1303 C 0.37017 0.83784 0.41368 0.0
C1304 C 0.33255 0.84111 0.4135 0.0
C1305 C 0.31156 0.82862 0.38432 0.0
C1306 C 0.40666 0.9128 0.47155 0.0
C1307 C 0.44306 0.90413 0.47399 0.0
C1308 C 0.38212 0.88985 0.4549 0.0
C1309 C 0.39336 0.85733 0.44079 0.0
C1310 C 0.42889 0.84681 0.44827 0.0
C1311 C 0.45373 0.87024 0.46446 0.0
H1312 H 0.23882 0.35087 0.35076 0.0
H1313 H 0.17181 0.26062 0.35532 0.0
H1314 H 0.20298 0.38143 0.39493 0.0
H1315 H 0.13666 0.29069 0.40077 0.0
H1316 H 0.05426 0.37573 0.43717 0.0
H1317 H 0.09349 0.33511 0.40529 0.0
H1318 H 0.18576 0.38813 0.45379 0.0
H1319 H 0.14617 0.42964 0.48398 0.0
C1320 C 0.2168 0.33733 0.36169 0.0
C1321 C 0.20801 0.30344 0.34927 0.0
C1322 C 0.19633 0.35476 0.38736 0.0
C1323 C 0.16677 0.3386 0.40165 0.0
C1324 C 0.15882 0.30419 0.39007 0.0
C1325 C 0.17908 0.28689 0.36407 0.0
C1326 C 0.08291 0.37774 0.44192 0.0
C1327 C 0.09734 0.4055 0.46305 0.0
C1328 C 0.10552 0.35457 0.42357 0.0
C1329 C 0.14297 0.35867 0.42631 0.0
C1330 C 0.15714 0.38471 0.45019 0.0
C1331 C 0.13454 0.40816 0.46798 0.0
H1332 H 0.35478 0.17599 0.74477 0.0
H1333 H 0.3559 0.24622 0.66054 0.0
H1334 H 0.39101 0.13487 0.71009 0.0
H1335 H 0.39253 0.20511 0.62581 0.0
H1336 H 0.43055 0.10845 0.5587 0.0
H1337 H 0.39204 0.14876 0.59265 0.0
H1338 H 0.45013 0.12578 0.68858 0.0
H1339 H 0.488 0.08562 0.65503 0.0
C1340 C 0.36301 0.1829 0.71898 0.0
C1341 C 0.35243 0.21478 0.70581 0.0
C1342 C 0.38396 0.1592 0.69896 0.0
C1343 C 0.39495 0.16634 0.66485 0.0
C1344 C 0.3844 0.19829 0.65167 0.0
C1345 C 0.36362 0.22214 0.67184 0.0
C1346 C 0.43483 0.11169 0.58708 0.0
C1347 C 0.46255 0.09345 0.6039 0.0
C1348 C 0.41292 0.13516 0.60661 0.0
C1349 C 0.41776 0.14086 0.64362 0.0
C1350 C 0.44505 0.12205 0.66034 0.0
C1351 C 0.46703 0.09895 0.64089 0.0
H1352 H 0.88372 0.27357 0.70096 0.0
H1353 H 0.79907 0.34921 0.69928 0.0
H1354 H 0.92004 0.31003 0.66486 0.0
H1355 H 0.83419 0.38468 0.66267 0.0
H1356 H 0.91422 0.4622 0.62955 0.0
H1357 H 0.88022 0.42284 0.66204 0.0
H1358 H 0.93475 0.33615 0.61092 0.0
H1359 H 0.97053 0.37663 0.57852 0.0
C1360 C 0.8726 0.29781 0.6928 0.0
C1361 C 0.83815 0.30816 0.70374 0.0
C1362 C 0.89353 0.31888 0.67171 0.0
C1363 C 0.88092 0.35122 0.66059 0.0
C1364 C 0.84605 0.36085 0.67099 0.0
C1365 C 0.8254 0.34005 0.69208 0.0
C1366 C 0.9193 0.4348 0.62466 0.0
C1367 C 0.9457 0.4233 0.60066 0.0
C1368 C 0.8991 0.41174 0.64351 0.0
C1369 C 0.90367 0.37551 0.6395 0.0
C1370 C 0.93004 0.36364 0.61539 0.0
C1371 C 0.95056 0.38702 0.59632 0.0
H1372 H 0.1717 0.68734 0.74586 0.0
H1373 H 0.25627 0.67683 0.67067 0.0
H1374 H 0.13556 0.6466 0.70973 0.0
H1375 H 0.22014 0.6347 0.63467 0.0
H1376 H 0.11985 0.60487 0.56088 0.0
H1377 H 0.16649 0.63538 0.59698 0.0
H1378 H 0.12934 0.5879 0.68961 0.0
H1379 H 0.08175 0.55952 0.65413 0.0
C1380 C 0.18288 0.67581 0.72189 0.0
C1381 C 0.21676 0.68546 0.71101 0.0
C1382 C 0.16221 0.65215 0.70124 0.0
C1383 C 0.17501 0.63726 0.66932 0.0
C1384 C 0.20943 0.646 0.65895 0.0
C1385 C 0.23016 0.66993 0.67965 0.0
C1386 C 0.12205 0.60076 0.58888 0.0
C1387 C 0.09686 0.58044 0.6049 0.0
C1388 C 0.14888 0.61798 0.60952 0.0
C1389 C 0.15117 0.61455 0.6463 0.0
C1390 C 0.12766 0.5919 0.66156 0.0
C1391 C 0.10051 0.57547 0.6412 0.0
loop_
_geom_bond_atom_site_label_1
_geom_bond_atom_site_label_2
_geom_bond_distance
_geom_bond_site_symmetry_2
_ccdc_geom_bond_type
Co0 N5 2.057 . S
Co0 O17 2.021 . S
Co0 O20 2.062 . S
Co0 O24 2.117 . S
Co0 O25 2.020 . S
C1 O21 1.259 . S
C1 O24 1.258 . S
Co2 N11 2.057 . S
Co2 O18 2.117 . S
Co2 O19 2.020 . S
Co2 O21 2.021 . S
Co2 O26 2.062 . S
C3 N5 1.316 . S
C3 N6 1.347 . S
C3 H8 0.931 . S
C4 N5 1.375 . S
C4 C7 1.350 . S
C4 H9 0.930 . S
N5 Co0 2.057 . S
N5 C3 1.316 . S
N5 C4 1.375 . S
N6 C3 1.347 . S
N6 C7 1.373 . S
C7 C4 1.350 . S
C7 N6 1.373 . S
C7 H28 0.931 . S
H8 C3 0.931 . S
H9 C4 0.930 . S
C10 O17 1.259 . S
C10 O18 1.258 . S
N11 Co2 2.057 . S
N11 C12 1.316 . S
N11 C13 1.375 . S
C12 N11 1.316 . S
C12 N14 1.347 . S
C12 H23 0.931 . S
C13 N11 1.375 . S
C13 C15 1.350 . S
C13 H22 0.930 . S
N14 C12 1.347 . S
N14 C15 1.373 . S
C15 C13 1.350 . S
C15 N14 1.373 . S
C15 H29 0.931 . S
C16 O19 1.256 . S
C16 O20 1.255 . S
O17 Co0 2.021 . S
O17 C10 1.259 . S
O18 Co2 2.117 . S
O18 C10 1.258 . S
O19 Co2 2.020 . S
O19 C16 1.256 . S
O20 Co0 2.062 . S
O20 C16 1.255 . S
O21 C1 1.259 . S
O21 Co2 2.021 . S
H22 C13 0.930 . S
H23 C12 0.931 . S
O24 Co0 2.117 . S
O24 C1 1.258 . S
O25 Co0 2.020 . S
O25 C27 1.256 . S
O26 Co2 2.062 . S
O26 C27 1.255 . S
C27 O25 1.256 . S
C27 O26 1.255 . S
H28 C7 0.931 . S
H29 C15 0.931 . S
Co30 N35 2.057 . S
Co30 O47 2.021 . S
Co30 O50 2.062 . S
Co30 O54 2.117 . S
Co30 O55 2.020 . S
C31 O51 1.259 . S
C31 O54 1.258 . S
Co32 N41 2.057 . S
Co32 O48 2.117 . S
Co32 O49 2.020 . S
Co32 O51 2.021 . S
Co32 O56 2.062 . S
C33 N35 1.316 . S
C33 N36 1.347 . S
C33 H38 0.931 . S
C34 N35 1.375 . S
C34 C37 1.350 . S
C34 H39 0.930 . S
N35 Co30 2.057 . S
N35 C33 1.316 . S
N35 C34 1.375 . S
N36 C33 1.347 . S
N36 C37 1.373 . S
C37 C34 1.350 . S
C37 N36 1.373 . S
C37 H58 0.931 . S
H38 C33 0.931 . S
H39 C34 0.930 . S
C40 O47 1.259 . S
C40 O48 1.258 . S
N41 Co32 2.057 . S
N41 C42 1.316 . S
N41 C43 1.375 . S
C42 N41 1.316 . S
C42 N44 1.347 . S
C42 H53 0.931 . S
C43 N41 1.375 . S
C43 C45 1.350 . S
C43 H52 0.930 . S
N44 C42 1.347 . S
N44 C45 1.373 . S
C45 C43 1.350 . S
C45 N44 1.373 . S
C45 H59 0.931 . S
C46 O49 1.256 . S
C46 O50 1.255 . S
O47 Co30 2.021 . S
O47 C40 1.259 . S
O48 Co32 2.117 . S
O48 C40 1.258 . S
O49 Co32 2.020 . S
O49 C46 1.256 . S
O50 Co30 2.062 . S
O50 C46 1.255 . S
O51 C31 1.259 . S
O51 Co32 2.021 . S
H52 C43 0.930 . S
H53 C42 0.931 . S
O54 Co30 2.117 . S
O54 C31 1.258 . S
O55 Co30 2.020 . S
O55 C57 1.256 . S
O56 Co32 2.062 . S
O56 C57 1.255 . S
C57 O55 1.256 . S
C57 O56 1.255 . S
H58 C37 0.931 . S
H59 C45 0.931 . S
Co60 N65 2.057 . S
Co60 O77 2.021 . S
Co60 O80 2.062 . S
Co60 O84 2.117 . S
Co60 O85 2.020 . S
C61 O81 1.259 . S
C61 O84 1.258 . S
Co62 N71 2.057 . S
Co62 O78 2.117 . S
Co62 O79 2.020 . S
Co62 O81 2.021 . S
Co62 O86 2.062 . S
C63 N65 1.316 . S
C63 N66 1.347 . S
C63 H68 0.931 . S
C64 N65 1.375 . S
C64 C67 1.350 . S
C64 H69 0.930 . S
N65 Co60 2.057 . S
N65 C63 1.316 . S
N65 C64 1.375 . S
N66 C63 1.347 . S
N66 C67 1.373 . S
C67 C64 1.350 . S
C67 N66 1.373 . S
C67 H88 0.931 . S
H68 C63 0.931 . S
H69 C64 0.930 . S
C70 O77 1.259 . S
C70 O78 1.258 . S
N71 Co62 2.057 . S
N71 C72 1.316 . S
N71 C73 1.375 . S
C72 N71 1.316 . S
C72 N74 1.347 . S
C72 H83 0.931 . S
C73 N71 1.375 . S
C73 C75 1.350 . S
C73 H82 0.930 . S
N74 C72 1.347 . S
N74 C75 1.373 . S
C75 C73 1.350 . S
C75 N74 1.373 . S
C75 H89 0.931 . S
C76 O79 1.256 . S
C76 O80 1.255 . S
O77 Co60 2.021 . S
O77 C70 1.259 . S
O78 Co62 2.117 . S
O78 C70 1.258 . S
O79 Co62 2.020 . S
O79 C76 1.256 . S
O80 Co60 2.062 . S
O80 C76 1.255 . S
O81 C61 1.259 . S
O81 Co62 2.021 . S
H82 C73 0.930 . S
H83 C72 0.931 . S
O84 Co60 2.117 . S
O84 C61 1.258 . S
O85 Co60 2.020 . S
O85 C87 1.256 . S
O86 Co62 2.062 . S
O86 C87 1.255 . S
C87 O85 1.256 . S
C87 O86 1.255 . S
H88 C67 0.931 . S
H89 C75 0.931 . S
Co90 N95 2.057 . S
Co90 O107 2.021 . S
Co90 O110 2.062 . S
Co90 O114 2.117 . S
Co90 O115 2.020 . S
C91 O111 1.259 . S
C91 O114 1.258 . S
Co92 N101 2.057 . S
Co92 O108 2.117 . S
Co92 O109 2.020 . S
Co92 O111 2.021 . S
Co92 O116 2.062 . S
C93 N95 1.316 . S
C93 N96 1.347 . S
C93 H98 0.931 . S
C94 N95 1.375 . S
C94 C97 1.350 . S
C94 H99 0.930 . S
N95 Co90 2.057 . S
N95 C93 1.316 . S
N95 C94 1.375 . S
N96 C93 1.347 . S
N96 C97 1.373 . S
C97 C94 1.350 . S
C97 N96 1.373 . S
C97 H118 0.931 . S
H98 C93 0.931 . S
H99 C94 0.930 . S
C100 O107 1.259 . S
C100 O108 1.258 . S
N101 Co92 2.057 . S
N101 C102 1.316 . S
N101 C103 1.375 . S
C102 N101 1.316 . S
C102 N104 1.347 . S
C102 H113 0.931 . S
C103 N101 1.375 . S
C103 C105 1.350 . S
C103 H112 0.930 . S
N104 C102 1.347 . S
N104 C105 1.373 . S
C105 C103 1.350 . S
C105 N104 1.373 . S
C105 H119 0.931 . S
C106 O109 1.256 . S
C106 O110 1.255 . S
O107 Co90 2.021 . S
O107 C100 1.259 . S
O108 Co92 2.117 . S
O108 C100 1.258 . S
O109 Co92 2.020 . S
O109 C106 1.256 . S
O110 Co90 2.062 . S
O110 C106 1.255 . S
O111 C91 1.259 . S
O111 Co92 2.021 . S
H112 C103 0.930 . S
H113 C102 0.931 . S
O114 Co90 2.117 . S
O114 C91 1.258 . S
O115 Co90 2.020 . S
O115 C117 1.256 . S
O116 Co92 2.062 . S
O116 C117 1.255 . S
C117 O115 1.256 . S
C117 O116 1.255 . S
H118 C97 0.931 . S
H119 C105 0.931 . S
Co120 N125 2.057 . S
Co120 O137 2.021 . S
Co120 O140 2.062 . S
Co120 O144 2.117 . S
Co120 O145 2.020 . S
C121 O141 1.259 . S
C121 O144 1.258 . S
Co122 N131 2.057 . S
Co122 O138 2.117 . S
Co122 O139 2.020 . S
Co122 O141 2.021 . S
Co122 O146 2.062 . S
C123 N125 1.316 . S
C123 N126 1.347 . S
C123 H128 0.931 . S
C124 N125 1.375 . S
C124 C127 1.350 . S
C124 H129 0.930 . S
N125 Co120 2.057 . S
N125 C123 1.316 . S
N125 C124 1.375 . S
N126 C123 1.347 . S
N126 C127 1.373 . S
C127 C124 1.350 . S
C127 N126 1.373 . S
C127 H148 0.931 . S
H128 C123 0.931 . S
H129 C124 0.930 . S
C130 O137 1.259 . S
C130 O138 1.258 . S
N131 Co122 2.057 . S
N131 C132 1.316 . S
N131 C133 1.375 . S
C132 N131 1.316 . S
C132 N134 1.347 . S
C132 H143 0.931 . S
C133 N131 1.375 . S
C133 C135 1.350 . S
C133 H142 0.930 . S
N134 C132 1.347 . S
N134 C135 1.373 . S
C135 C133 1.350 . S
C135 N134 1.373 . S
C135 H149 0.931 . S
C136 O139 1.256 . S
C136 O140 1.255 . S
O137 Co120 2.021 . S
O137 C130 1.259 . S
O138 Co122 2.117 . S
O138 C130 1.258 . S
O139 Co122 2.020 . S
O139 C136 1.256 . S
O140 Co120 2.062 . S
O140 C136 1.255 . S
O141 C121 1.259 . S
O141 Co122 2.021 . S
H142 C133 0.930 . S
H143 C132 0.931 . S
O144 Co120 2.117 . S
O144 C121 1.258 . S
O145 Co120 2.020 . S
O145 C147 1.256 . S
O146 Co122 2.062 . S
O146 C147 1.255 . S
C147 O145 1.256 . S
C147 O146 1.255 . S
H148 C127 0.931 . S
H149 C135 0.931 . S
Co150 N155 2.057 . S
Co150 O167 2.021 . S
Co150 O170 2.062 . S
Co150 O174 2.117 . S
Co150 O175 2.020 . S
C151 O171 1.259 . S
C151 O174 1.258 . S
Co152 N161 2.057 . S
Co152 O168 2.117 . S
Co152 O169 2.020 . S
Co152 O171 2.021 . S
Co152 O176 2.062 . S
C153 N155 1.316 . S
C153 N156 1.347 . S
C153 H158 0.931 . S
C154 N155 1.375 . S
C154 C157 1.350 . S
C154 H159 0.930 . S
N155 Co150 2.057 . S
N155 C153 1.316 . S
N155 C154 1.375 . S
N156 C153 1.347 . S
N156 C157 1.373 . S
C157 C154 1.350 . S
C157 N156 1.373 . S
C157 H178 0.931 . S
H158 C153 0.931 . S
H159 C154 0.930 . S
C160 O167 1.259 . S
C160 O168 1.258 . S
N161 Co152 2.057 . S
N161 C162 1.316 . S
N161 C163 1.375 . S
C162 N161 1.316 . S
C162 N164 1.347 . S
C162 H173 0.931 . S
C163 N161 1.375 . S
C163 C165 1.350 . S
C163 H172 0.930 . S
N164 C162 1.347 . S
N164 C165 1.373 . S
C165 C163 1.350 . S
C165 N164 1.373 . S
C165 H179 0.931 . S
C166 O169 1.256 . S
C166 O170 1.255 . S
O167 Co150 2.021 . S
O167 C160 1.259 . S
O168 Co152 2.117 . S
O168 C160 1.258 . S
O169 Co152 2.020 . S
O169 C166 1.256 . S
O170 Co150 2.062 . S
O170 C166 1.255 . S
O171 C151 1.259 . S
O171 Co152 2.021 . S
H172 C163 0.930 . S
H173 C162 0.931 . S
O174 Co150 2.117 . S
O174 C151 1.258 . S
O175 Co150 2.020 . S
O175 C177 1.256 . S
O176 Co152 2.062 . S
O176 C177 1.255 . S
C177 O175 1.256 . S
C177 O176 1.255 . S
H178 C157 0.931 . S
H179 C165 0.931 . S
Co180 N185 2.057 . S
Co180 O197 2.021 . S
Co180 O200 2.062 . S
Co180 O204 2.117 . S
Co180 O205 2.020 . S
C181 O201 1.259 . S
C181 O204 1.258 . S
Co182 N191 2.057 . S
Co182 O198 2.117 . S
Co182 O199 2.020 . S
Co182 O201 2.021 . S
Co182 O206 2.062 . S
C183 N185 1.316 . S
C183 N186 1.347 . S
C183 H188 0.931 . S
C184 N185 1.375 . S
C184 C187 1.350 . S
C184 H189 0.930 . S
N185 Co180 2.057 . S
N185 C183 1.316 . S
N185 C184 1.375 . S
N186 C183 1.347 . S
N186 C187 1.373 . S
C187 C184 1.350 . S
C187 N186 1.373 . S
C187 H208 0.931 . S
H188 C183 0.931 . S
H189 C184 0.930 . S
C190 O197 1.259 . S
C190 O198 1.258 . S
N191 Co182 2.057 . S
N191 C192 1.316 . S
N191 C193 1.375 . S
C192 N191 1.316 . S
C192 N194 1.347 . S
C192 H203 0.931 . S
C193 N191 1.375 . S
C193 C195 1.350 . S
C193 H202 0.930 . S
N194 C192 1.347 . S
N194 C195 1.373 . S
C195 C193 1.350 . S
C195 N194 1.373 . S
C195 H209 0.931 . S
C196 O199 1.256 . S
C196 O200 1.255 . S
O197 Co180 2.021 . S
O197 C190 1.259 . S
O198 Co182 2.117 . S
O198 C190 1.258 . S
O199 Co182 2.020 . S
O199 C196 1.256 . S
O200 Co180 2.062 . S
O200 C196 1.255 . S
O201 C181 1.259 . S
O201 Co182 2.021 . S
H202 C193 0.930 . S
H203 C192 0.931 . S
O204 Co180 2.117 . S
O204 C181 1.258 . S
O205 Co180 2.020 . S
O205 C207 1.256 . S
O206 Co182 2.062 . S
O206 C207 1.255 . S
C207 O205 1.256 . S
C207 O206 1.255 . S
H208 C187 0.931 . S
H209 C195 0.931 . S
Co210 N215 2.057 . S
Co210 O227 2.021 . S
Co210 O230 2.062 . S
Co210 O234 2.117 . S
Co210 O235 2.020 . S
C211 O231 1.259 . S
C211 O234 1.258 . S
Co212 N221 2.057 . S
Co212 O228 2.117 . S
Co212 O229 2.020 . S
Co212 O231 2.021 . S
Co212 O236 2.062 . S
C213 N215 1.316 . S
C213 N216 1.347 . S
C213 H218 0.931 . S
C214 N215 1.375 . S
C214 C217 1.350 . S
C214 H219 0.930 . S
N215 Co210 2.057 . S
N215 C213 1.316 . S
N215 C214 1.375 . S
N216 C213 1.347 . S
N216 C217 1.373 . S
C217 C214 1.350 . S
C217 N216 1.373 . S
C217 H238 0.931 . S
H218 C213 0.931 . S
H219 C214 0.930 . S
C220 O227 1.259 . S
C220 O228 1.258 . S
N221 Co212 2.057 . S
N221 C222 1.316 . S
N221 C223 1.375 . S
C222 N221 1.316 . S
C222 N224 1.347 . S
C222 H233 0.931 . S
C223 N221 1.375 . S
C223 C225 1.350 . S
C223 H232 0.930 . S
N224 C222 1.347 . S
N224 C225 1.373 . S
C225 C223 1.350 . S
C225 N224 1.373 . S
C225 H239 0.931 . S
C226 O229 1.256 . S
C226 O230 1.255 . S
O227 Co210 2.021 . S
O227 C220 1.259 . S
O228 Co212 2.117 . S
O228 C220 1.258 . S
O229 Co212 2.020 . S
O229 C226 1.256 . S
O230 Co210 2.062 . S
O230 C226 1.255 . S
O231 C211 1.259 . S
O231 Co212 2.021 . S
H232 C223 0.930 . S
H233 C222 0.931 . S
O234 Co210 2.117 . S
O234 C211 1.258 . S
O235 Co210 2.020 . S
O235 C237 1.256 . S
O236 Co212 2.062 . S
O236 C237 1.255 . S
C237 O235 1.256 . S
C237 O236 1.255 . S
H238 C217 0.931 . S
H239 C225 0.931 . S
Fe240 O241 1.889 . S
Fe240 O244 1.712 1_655 S
Fe240 O249 2.080 . S
Fe240 O254 1.932 1_655 S
Fe240 O260 2.080 . S
Fe240 O269 1.933 1_655 S
O241 Fe240 1.889 . S
O241 Fe243 1.715 1_545 S
Fe242 O244 1.886 . S
Fe242 O245 1.715 1_545 S
Fe242 O252 1.935 1_545 S
Fe242 O253 2.077 . S
Fe242 O259 1.935 1_545 S
Fe242 O268 2.077 . S
Fe243 O241 1.715 1_565 S
Fe243 O246 1.886 . S
Fe243 O250 1.935 1_565 S
Fe243 O255 2.077 . S
Fe243 O261 1.935 1_565 S
Fe243 O265 2.077 . S
O244 Fe240 1.712 1_455 S
O244 Fe242 1.886 . S
O245 Fe242 1.715 1_565 S
O245 Fe247 1.895 . S
O246 Fe243 1.886 . S
O246 Fe247 1.706 1_655 S
Fe247 O245 1.895 . S
Fe247 O246 1.706 1_455 S
Fe247 O251 2.086 . S
Fe247 O256 1.929 1_455 S
Fe247 O258 2.085 . S
Fe247 O266 1.928 1_455 S
C248 O260 1.381 . S
C248 O261 1.421 . S
O249 Fe240 2.080 . S
O249 C262 1.381 . S
O250 Fe243 1.935 1_545 S
O250 C262 1.421 . S
O251 Fe247 2.086 . S
O251 C267 1.381 . S
O252 Fe242 1.935 1_565 S
O252 C267 1.421 . S
O253 Fe242 2.077 . S
O253 C257 1.381 . S
O254 Fe240 1.932 1_455 S
O254 C257 1.421 . S
O255 Fe243 2.077 . S
O255 C263 1.381 . S
O256 Fe247 1.929 1_655 S
O256 C263 1.421 . S
C257 O253 1.381 . S
C257 O254 1.421 . S
O258 Fe247 2.085 . S
O258 C270 1.381 . S
O259 Fe242 1.935 1_565 S
O259 C270 1.421 . S
O260 Fe240 2.080 . S
O260 C248 1.381 . S
O261 Fe243 1.935 1_545 S
O261 C248 1.421 . S
C262 O249 1.381 . S
C262 O250 1.421 . S
C263 O255 1.381 . S
C263 O256 1.421 . S
C264 O265 1.381 . S
C264 O266 1.421 . S
O265 Fe243 2.077 . S
O265 C264 1.381 . S
O266 Fe247 1.928 1_655 S
O266 C264 1.421 . S
C267 O251 1.381 . S
C267 O252 1.421 . S
O268 Fe242 2.077 . S
O268 C271 1.381 . S
O269 Fe240 1.933 1_455 S
O269 C271 1.421 . S
C270 O258 1.381 . S
C270 O259 1.421 . S
C271 O268 1.381 . S
C271 O269 1.421 . S
Fe272 O273 1.886 1_556 S
Fe272 O276 1.715 . S
Fe272 O281 2.077 . S
Fe272 O286 1.935 . S
Fe272 O292 2.077 1_556 S
Fe272 O301 1.935 1_556 S
O273 Fe272 1.886 1_554 S
O273 Fe275 1.715 1_565 S
Fe274 O276 1.886 . S
Fe274 O277 1.715 1_566 S
Fe274 O284 1.935 1_565 S
Fe274 O285 2.077 . S
Fe274 O291 1.935 1_566 S
Fe274 O300 2.077 1_556 S
Fe275 O273 1.715 1_545 S
Fe275 O278 1.886 . S
Fe275 O282 1.935 1_544 S
Fe275 O287 2.077 1_554 S
Fe275 O293 1.935 1_545 S
Fe275 O297 2.077 . S
O276 Fe272 1.715 . S
O276 Fe274 1.886 . S
O277 Fe274 1.715 1_544 S
O277 Fe279 1.886 . S
O278 Fe275 1.886 . S
O278 Fe279 1.715 . S
Fe279 O277 1.886 . S
Fe279 O278 1.715 . S
Fe279 O283 2.077 1_554 S
Fe279 O288 1.935 1_554 S
Fe279 O290 2.077 . S
Fe279 O298 1.935 . S
C280 O292 1.381 . S
C280 O293 1.421 . S
O281 Fe272 2.077 . S
O281 C294 1.381 . S
O282 Fe275 1.935 1_566 S
O282 C294 1.421 . S
O283 Fe279 2.077 1_556 S
O283 C299 1.381 . S
O284 Fe274 1.935 1_545 S
O284 C299 1.421 . S
O285 Fe274 2.077 . S
O285 C289 1.381 . S
O286 Fe272 1.935 . S
O286 C289 1.421 . S
O287 Fe275 2.077 1_556 S
O287 C295 1.381 . S
O288 Fe279 1.935 1_556 S
O288 C295 1.421 . S
C289 O285 1.381 . S
C289 O286 1.421 . S
O290 Fe279 2.077 . S
O290 C302 1.381 . S
O291 Fe274 1.935 1_544 S
O291 C302 1.421 . S
O292 Fe272 2.077 1_554 S
O292 C280 1.381 . S
O293 Fe275 1.935 1_565 S
O293 C280 1.421 . S
C294 O281 1.381 . S
C294 O282 1.421 . S
C295 O287 1.381 . S
C295 O288 1.421 . S
C296 O297 1.381 . S
C296 O298 1.421 . S
O297 Fe275 2.077 . S
O297 C296 1.381 . S
O298 Fe279 1.935 . S
O298 C296 1.421 . S
C299 O283 1.381 . S
C299 O284 1.421 . S
O300 Fe274 2.077 1_554 S
O300 C303 1.381 . S
O301 Fe272 1.935 1_554 S
O301 C303 1.421 . S
C302 O290 1.381 . S
C302 O291 1.421 . S
C303 O300 1.381 . S
C303 O301 1.421 . S
Fe304 O305 1.889 . S
Fe304 O308 1.712 1_655 S
Fe304 O313 2.080 1_554 S
Fe304 O318 1.933 1_654 S
Fe304 O324 2.080 . S
Fe304 O333 1.933 1_655 S
O305 Fe304 1.889 . S
O305 Fe307 1.715 1_554 S
Fe306 O308 1.886 . S
Fe306 O309 1.715 . S
Fe306 O316 1.935 1_554 S
Fe306 O317 2.077 1_554 S
Fe306 O323 1.935 . S
Fe306 O332 2.077 . S
Fe307 O305 1.715 1_556 S
Fe307 O310 1.886 . S
Fe307 O314 1.935 . S
Fe307 O319 2.077 . S
Fe307 O325 1.935 1_556 S
Fe307 O329 2.077 1_556 S
O308 Fe304 1.712 1_455 S
O308 Fe306 1.886 . S
O309 Fe306 1.715 . S
O309 Fe311 1.894 1_554 S
O310 Fe307 1.886 . S
O310 Fe311 1.706 1_655 S
Fe311 O309 1.894 1_556 S
Fe311 O310 1.706 1_455 S
Fe311 O315 2.086 . S
Fe311 O320 1.929 1_455 S
Fe311 O322 2.085 1_556 S
Fe311 O330 1.928 1_456 S
C312 O324 1.381 . S
C312 O325 1.421 . S
O313 Fe304 2.080 1_556 S
O313 C326 1.381 . S
O314 Fe307 1.935 . S
O314 C326 1.421 . S
O315 Fe311 2.086 . S
O315 C331 1.381 . S
O316 Fe306 1.935 1_556 S
O316 C331 1.421 . S
O317 Fe306 2.077 1_556 S
O317 C321 1.381 . S
O318 Fe304 1.933 1_456 S
O318 C321 1.421 . S
O319 Fe307 2.077 . S
O319 C327 1.381 . S
O320 Fe311 1.929 1_655 S
O320 C327 1.421 . S
C321 O317 1.381 . S
C321 O318 1.421 . S
O322 Fe311 2.085 1_554 S
O322 C334 1.381 . S
O323 Fe306 1.935 . S
O323 C334 1.421 . S
O324 Fe304 2.080 . S
O324 C312 1.381 . S
O325 Fe307 1.935 1_554 S
O325 C312 1.421 . S
C326 O313 1.381 . S
C326 O314 1.421 . S
C327 O319 1.381 . S
C327 O320 1.421 . S
C328 O329 1.381 . S
C328 O330 1.421 . S
O329 Fe307 2.077 1_554 S
O329 C328 1.381 . S
O330 Fe311 1.928 1_654 S
O330 C328 1.421 . S
C331 O315 1.381 . S
C331 O316 1.421 . S
O332 Fe306 2.077 . S
O332 C335 1.381 . S
O333 Fe304 1.933 1_455 S
O333 C335 1.421 . S
C334 O322 1.381 . S
C334 O323 1.421 . S
C335 O332 1.381 . S
C335 O333 1.421 . S
Fe336 O337 1.886 . S
Fe336 O340 1.715 . S
Fe336 O345 2.077 . S
Fe336 O350 1.935 . S
Fe336 O356 2.077 . S
Fe336 O365 1.935 . S
O337 Fe336 1.886 . S
O337 Fe339 1.715 1_556 S
Fe338 O340 1.886 . S
Fe338 O341 1.715 1_556 S
Fe338 O348 1.935 1_556 S
Fe338 O349 2.077 . S
Fe338 O355 1.935 1_556 S
Fe338 O364 2.077 . S
Fe339 O337 1.715 1_554 S
Fe339 O342 1.886 . S
Fe339 O346 1.935 1_554 S
Fe339 O351 2.077 . S
Fe339 O357 1.935 1_554 S
Fe339 O361 2.077 . S
O340 Fe336 1.715 . S
O340 Fe338 1.886 . S
O341 Fe338 1.715 1_554 S
O341 Fe343 1.886 . S
O342 Fe339 1.886 . S
O342 Fe343 1.715 . S
Fe343 O341 1.886 . S
Fe343 O342 1.715 . S
Fe343 O347 2.077 . S
Fe343 O352 1.935 . S
Fe343 O354 2.077 . S
Fe343 O362 1.935 . S
C344 O356 1.381 . S
C344 O357 1.421 . S
O345 Fe336 2.077 . S
O345 C358 1.381 . S
O346 Fe339 1.935 1_556 S
O346 C358 1.421 . S
O347 Fe343 2.077 . S
O347 C363 1.381 . S
O348 Fe338 1.935 1_554 S
O348 C363 1.421 . S
O349 Fe338 2.077 . S
O349 C353 1.381 . S
O350 Fe336 1.935 . S
O350 C353 1.421 . S
O351 Fe339 2.077 . S
O351 C359 1.381 . S
O352 Fe343 1.935 . S
O352 C359 1.421 . S
C353 O349 1.381 . S
C353 O350 1.421 . S
O354 Fe343 2.077 . S
O354 C366 1.381 . S
O355 Fe338 1.935 1_554 S
O355 C366 1.421 . S
O356 Fe336 2.077 . S
O356 C344 1.381 . S
O357 Fe339 1.935 1_556 S
O357 C344 1.421 . S
C358 O345 1.381 . S
C358 O346 1.421 . S
C359 O351 1.381 . S
C359 O352 1.421 . S
C360 O361 1.381 . S
C360 O362 1.421 . S
O361 Fe339 2.077 . S
O361 C360 1.381 . S
O362 Fe343 1.935 . S
O362 C360 1.421 . S
C363 O347 1.381 . S
C363 O348 1.421 . S
O364 Fe338 2.077 . S
O364 C367 1.381 . S
O365 Fe336 1.935 . S
O365 C367 1.421 . S
C366 O354 1.381 . S
C366 O355 1.421 . S
C367 O364 1.381 . S
C367 O365 1.421 . S
Fe368 O369 1.886 1_655 S
Fe368 O372 1.715 . S
Fe368 O377 2.070 1_655 S
Fe368 O382 1.926 1_655 S
Fe368 O388 2.085 . S
Fe368 O397 1.944 . S
O369 Fe368 1.886 1_455 S
O369 Fe371 1.715 . S
Fe370 O372 1.886 . S
Fe370 O373 1.715 . S
Fe370 O380 1.935 1_655 S
Fe370 O381 2.077 1_655 S
Fe370 O387 1.935 . S
Fe370 O396 2.077 . S
Fe371 O369 1.715 . S
Fe371 O374 1.886 . S
Fe371 O378 1.935 . S
Fe371 O383 2.077 . S
Fe371 O389 1.935 1_455 S
Fe371 O393 2.077 1_455 S
O372 Fe368 1.715 . S
O372 Fe370 1.886 . S
O373 Fe370 1.715 . S
O373 Fe375 1.888 1_655 S
O374 Fe371 1.886 . S
O374 Fe375 1.715 . S
Fe375 O373 1.888 1_455 S
Fe375 O374 1.715 . S
Fe375 O379 2.091 . S
Fe375 O384 1.950 . S
Fe375 O386 2.064 1_455 S
Fe375 O394 1.919 1_455 S
C376 O388 1.381 . S
C376 O389 1.421 . S
O377 Fe368 2.070 1_455 S
O377 C390 1.381 . S
O378 Fe371 1.935 . S
O378 C390 1.421 . S
O379 Fe375 2.091 . S
O379 C395 1.381 . S
O380 Fe370 1.935 1_455 S
O380 C395 1.421 . S
O381 Fe370 2.077 1_455 S
O381 C385 1.381 . S
O382 Fe368 1.926 1_455 S
O382 C385 1.421 . S
O383 Fe371 2.077 . S
O383 C391 1.381 . S
O384 Fe375 1.950 . S
O384 C391 1.421 . S
C385 O381 1.381 . S
C385 O382 1.421 . S
O386 Fe375 2.064 1_655 S
O386 C398 1.381 . S
O387 Fe370 1.935 . S
O387 C398 1.421 . S
O388 Fe368 2.085 . S
O388 C376 1.381 . S
O389 Fe371 1.935 1_655 S
O389 C376 1.421 . S
C390 O377 1.381 . S
C390 O378 1.421 . S
C391 O383 1.381 . S
C391 O384 1.421 . S
C392 O393 1.381 . S
C392 O394 1.421 . S
O393 Fe371 2.077 1_655 S
O393 C392 1.381 . S
O394 Fe375 1.919 1_655 S
O394 C392 1.421 . S
C395 O379 1.381 . S
C395 O380 1.421 . S
O396 Fe370 2.077 . S
O396 C399 1.381 . S
O397 Fe368 1.944 . S
O397 C399 1.421 . S
C398 O386 1.381 . S
C398 O387 1.421 . S
C399 O396 1.381 . S
C399 O397 1.421 . S
Fe400 O401 1.886 . S
Fe400 O404 1.715 . S
Fe400 O409 2.077 . S
Fe400 O414 1.935 . S
Fe400 O420 2.077 . S
Fe400 O429 1.935 . S
O401 Fe400 1.886 . S
O401 Fe403 1.715 1_565 S
Fe402 O404 1.886 . S
Fe402 O405 1.715 1_565 S
Fe402 O412 1.935 1_565 S
Fe402 O413 2.077 . S
Fe402 O419 1.935 1_565 S
Fe402 O428 2.077 . S
Fe403 O401 1.715 1_545 S
Fe403 O406 1.886 . S
Fe403 O410 1.935 1_545 S
Fe403 O415 2.077 . S
Fe403 O421 1.935 1_545 S
Fe403 O425 2.077 . S
O404 Fe400 1.715 . S
O404 Fe402 1.886 . S
O405 Fe402 1.715 1_545 S
O405 Fe407 1.886 . S
O406 Fe403 1.886 . S
O406 Fe407 1.715 . S
Fe407 O405 1.886 . S
Fe407 O406 1.715 . S
Fe407 O411 2.077 . S
Fe407 O416 1.935 . S
Fe407 O418 2.077 . S
Fe407 O426 1.935 . S
C408 O420 1.381 . S
C408 O421 1.421 . S
O409 Fe400 2.077 . S
O409 C422 1.381 . S
O410 Fe403 1.935 1_565 S
O410 C422 1.421 . S
O411 Fe407 2.077 . S
O411 C427 1.381 . S
O412 Fe402 1.935 1_545 S
O412 C427 1.421 . S
O413 Fe402 2.077 . S
O413 C417 1.381 . S
O414 Fe400 1.935 . S
O414 C417 1.421 . S
O415 Fe403 2.077 . S
O415 C423 1.381 . S
O416 Fe407 1.935 . S
O416 C423 1.421 . S
C417 O413 1.381 . S
C417 O414 1.421 . S
O418 Fe407 2.077 . S
O418 C430 1.381 . S
O419 Fe402 1.935 1_545 S
O419 C430 1.421 . S
O420 Fe400 2.077 . S
O420 C408 1.381 . S
O421 Fe403 1.935 1_565 S
O421 C408 1.421 . S
C422 O409 1.381 . S
C422 O410 1.421 . S
C423 O415 1.381 . S
C423 O416 1.421 . S
C424 O425 1.381 . S
C424 O426 1.421 . S
O425 Fe403 2.077 . S
O425 C424 1.381 . S
O426 Fe407 1.935 . S
O426 C424 1.421 . S
C427 O411 1.381 . S
C427 O412 1.421 . S
O428 Fe402 2.077 . S
O428 C431 1.381 . S
O429 Fe400 1.935 . S
O429 C431 1.421 . S
C430 O418 1.381 . S
C430 O419 1.421 . S
C431 O428 1.381 . S
C431 O429 1.421 . S
H432 C440 0.950 . S
H433 C445 0.950 . S
H434 C442 0.950 . S
H435 C444 0.950 . S
H436 C446 0.950 . S
H437 C448 0.950 . S
H438 C450 0.950 . S
H439 C451 0.950 . S
C440 H432 0.950 . S
C440 C441 1.386 . S
C440 C442 1.391 . S
C441 C440 1.386 . S
C441 C445 1.393 . S
C442 H434 0.950 . S
C442 C440 1.391 . S
C442 C443 1.400 . S
C443 C442 1.400 . S
C443 C444 1.398 . S
C443 C449 1.491 . S
C444 H435 0.950 . S
C444 C443 1.398 . S
C444 C445 1.391 . S
C445 H433 0.950 . S
C445 C441 1.393 . S
C445 C444 1.391 . S
C446 H436 0.950 . S
C446 C447 1.386 . S
C446 C448 1.391 . S
C447 C446 1.386 . S
C447 C451 1.393 . S
C448 H437 0.950 . S
C448 C446 1.391 . S
C448 C449 1.400 . S
C449 C443 1.491 . S
C449 C448 1.400 . S
C449 C450 1.398 . S
C450 H438 0.950 . S
C450 C449 1.398 . S
C450 C451 1.391 . S
C451 H439 0.950 . S
C451 C447 1.393 . S
C451 C450 1.391 . S
H452 C460 0.950 . S
H453 C465 0.950 . S
H454 C462 0.950 . S
H455 C464 0.950 . S
H456 C466 0.950 . S
H457 C468 0.950 . S
H458 C470 0.950 . S
H459 C471 0.950 . S
C460 H452 0.950 . S
C460 C461 1.386 . S
C460 C462 1.391 . S
C461 C460 1.386 . S
C461 C465 1.393 . S
C462 H454 0.950 . S
C462 C460 1.391 . S
C462 C463 1.400 . S
C463 C462 1.400 . S
C463 C464 1.398 . S
C463 C469 1.491 . S
C464 H455 0.950 . S
C464 C463 1.398 . S
C464 C465 1.391 . S
C465 H453 0.950 . S
C465 C461 1.393 . S
C465 C464 1.391 . S
C466 H456 0.950 . S
C466 C467 1.386 . S
C466 C468 1.391 . S
C467 C466 1.386 . S
C467 C471 1.393 . S
C468 H457 0.950 . S
C468 C466 1.391 . S
C468 C469 1.400 . S
C469 C463 1.491 . S
C469 C468 1.400 . S
C469 C470 1.398 . S
C470 H458 0.950 . S
C470 C469 1.398 . S
C470 C471 1.391 . S
C471 H459 0.950 . S
C471 C467 1.393 . S
C471 C470 1.391 . S
H472 C480 0.950 . S
H473 C485 0.950 . S
H474 C482 0.950 . S
H475 C484 0.950 . S
H476 C486 0.950 . S
H477 C488 0.950 . S
H478 C490 0.950 . S
H479 C491 0.950 . S
C480 H472 0.950 . S
C480 C481 1.386 . S
C480 C482 1.391 . S
C481 C480 1.386 . S
C481 C485 1.393 . S
C482 H474 0.950 . S
C482 C480 1.391 . S
C482 C483 1.400 . S
C483 C482 1.400 . S
C483 C484 1.398 . S
C483 C489 1.491 . S
C484 H475 0.950 . S
C484 C483 1.398 . S
C484 C485 1.391 . S
C485 H473 0.950 . S
C485 C481 1.393 . S
C485 C484 1.391 . S
C486 H476 0.950 . S
C486 C487 1.386 . S
C486 C488 1.391 . S
C487 C486 1.386 . S
C487 C491 1.393 . S
C488 H477 0.950 . S
C488 C486 1.391 . S
C488 C489 1.400 . S
C489 C483 1.491 . S
C489 C488 1.400 . S
C489 C490 1.398 . S
C490 H478 0.950 . S
C490 C489 1.398 . S
C490 C491 1.391 . S
C491 H479 0.950 . S
C491 C487 1.393 . S
C491 C490 1.391 . S
H492 C500 0.950 . S
H493 C505 0.950 . S
H494 C502 0.950 . S
H495 C504 0.950 . S
H496 C506 0.950 . S
H497 C508 0.950 . S
H498 C510 0.950 . S
H499 C511 0.950 . S
C500 H492 0.950 . S
C500 C501 1.386 . S
C500 C502 1.391 . S
C501 C500 1.386 . S
C501 C505 1.393 . S
C502 H494 0.950 . S
C502 C500 1.391 . S
C502 C503 1.400 . S
C503 C502 1.400 . S
C503 C504 1.398 . S
C503 C509 1.491 . S
C504 H495 0.950 . S
C504 C503 1.398 . S
C504 C505 1.391 . S
C505 H493 0.950 . S
C505 C501 1.393 . S
C505 C504 1.391 . S
C506 H496 0.950 . S
C506 C507 1.386 . S
C506 C508 1.391 . S
C507 C506 1.386 . S
C507 C511 1.393 . S
C508 H497 0.950 . S
C508 C506 1.391 . S
C508 C509 1.400 . S
C509 C503 1.491 . S
C509 C508 1.400 . S
C509 C510 1.398 . S
C510 H498 0.950 . S
C510 C509 1.398 . S
C510 C511 1.391 . S
C511 H499 0.950 . S
C511 C507 1.393 . S
C511 C510 1.391 . S
H512 C520 0.950 . S
H513 C525 0.950 . S
H514 C522 0.950 . S
H515 C524 0.950 . S
H516 C526 0.950 . S
H517 C528 0.950 . S
H518 C530 0.950 . S
H519 C531 0.950 . S
C520 H512 0.950 . S
C520 C521 1.386 . S
C520 C522 1.391 . S
C521 C520 1.386 . S
C521 C525 1.393 . S
C522 H514 0.950 . S
C522 C520 1.391 . S
C522 C523 1.400 . S
C523 C522 1.400 . S
C523 C524 1.398 . S
C523 C529 1.491 . S
C524 H515 0.950 . S
C524 C523 1.398 . S
C524 C525 1.391 . S
C525 H513 0.950 . S
C525 C521 1.393 . S
C525 C524 1.391 . S
C526 H516 0.950 . S
C526 C527 1.386 . S
C526 C528 1.391 . S
C527 C526 1.386 . S
C527 C531 1.393 . S
C528 H517 0.950 . S
C528 C526 1.391 . S
C528 C529 1.400 . S
C529 C523 1.491 . S
C529 C528 1.400 . S
C529 C530 1.398 . S
C530 H518 0.950 . S
C530 C529 1.398 . S
C530 C531 1.391 . S
C531 H519 0.950 . S
C531 C527 1.393 . S
C531 C530 1.391 . S
H532 C540 0.950 . S
H533 C545 0.950 . S
H534 C542 0.950 . S
H535 C544 0.950 . S
H536 C546 0.950 . S
H537 C548 0.950 . S
H538 C550 0.950 . S
H539 C551 0.950 . S
C540 H532 0.950 . S
C540 C541 1.386 . S
C540 C542 1.391 . S
C541 C540 1.386 . S
C541 C545 1.393 . S
C542 H534 0.950 . S
C542 C540 1.391 . S
C542 C543 1.400 . S
C543 C542 1.400 . S
C543 C544 1.398 . S
C543 C549 1.491 . S
C544 H535 0.950 . S
C544 C543 1.398 . S
C544 C545 1.391 . S
C545 H533 0.950 . S
C545 C541 1.393 . S
C545 C544 1.391 . S
C546 H536 0.950 . S
C546 C547 1.386 . S
C546 C548 1.391 . S
C547 C546 1.386 . S
C547 C551 1.393 . S
C548 H537 0.950 . S
C548 C546 1.391 . S
C548 C549 1.400 . S
C549 C543 1.491 . S
C549 C548 1.400 . S
C549 C550 1.398 . S
C550 H538 0.950 . S
C550 C549 1.398 . S
C550 C551 1.391 . S
C551 H539 0.950 . S
C551 C547 1.393 . S
C551 C550 1.391 . S
H552 C560 0.950 . S
H553 C565 0.950 . S
H554 C562 0.950 . S
H555 C564 0.950 . S
H556 C566 0.950 . S
H557 C568 0.950 . S
H558 C570 0.950 . S
H559 C571 0.950 . S
C560 H552 0.950 . S
C560 C561 1.386 . S
C560 C562 1.391 . S
C561 C560 1.386 . S
C561 C565 1.393 . S
C562 H554 0.950 . S
C562 C560 1.391 . S
C562 C563 1.400 . S
C563 C562 1.400 . S
C563 C564 1.398 . S
C563 C569 1.491 . S
C564 H555 0.950 . S
C564 C563 1.398 . S
C564 C565 1.391 . S
C565 H553 0.950 . S
C565 C561 1.393 . S
C565 C564 1.391 . S
C566 H556 0.950 . S
C566 C567 1.386 . S
C566 C568 1.391 . S
C567 C566 1.386 . S
C567 C571 1.393 . S
C568 H557 0.950 . S
C568 C566 1.391 . S
C568 C569 1.400 . S
C569 C563 1.491 . S
C569 C568 1.400 . S
C569 C570 1.398 . S
C570 H558 0.950 . S
C570 C569 1.398 . S
C570 C571 1.391 . S
C571 H559 0.950 . S
C571 C567 1.393 . S
C571 C570 1.391 . S
H572 C580 0.950 . S
H573 C585 0.950 . S
H574 C582 0.950 . S
H575 C584 0.950 . S
H576 C586 0.950 . S
H577 C588 0.950 . S
H578 C590 0.950 . S
H579 C591 0.950 . S
C580 H572 0.950 . S
C580 C581 1.386 . S
C580 C582 1.391 . S
C581 C580 1.386 . S
C581 C585 1.393 . S
C582 H574 0.950 . S
C582 C580 1.391 . S
C582 C583 1.400 . S
C583 C582 1.400 . S
C583 C584 1.398 . S
C583 C589 1.491 . S
C584 H575 0.950 . S
C584 C583 1.398 . S
C584 C585 1.391 . S
C585 H573 0.950 . S
C585 C581 1.393 . S
C585 C584 1.391 . S
C586 H576 0.950 . S
C586 C587 1.386 . S
C586 C588 1.391 . S
C587 C586 1.386 . S
C587 C591 1.393 . S
C588 H577 0.950 . S
C588 C586 1.391 . S
C588 C589 1.400 . S
C589 C583 1.491 . S
C589 C588 1.400 . S
C589 C590 1.398 . S
C590 H578 0.950 . S
C590 C589 1.398 . S
C590 C591 1.391 . S
C591 H579 0.950 . S
C591 C587 1.393 . S
C591 C590 1.391 . S
H592 C600 0.950 . S
H593 C605 0.950 . S
H594 C602 0.950 . S
H595 C604 0.950 . S
H596 C606 0.950 . S
H597 C608 0.950 . S
H598 C610 0.950 . S
H599 C611 0.950 . S
C600 H592 0.950 . S
C600 C601 1.386 . S
C600 C602 1.391 . S
C601 C600 1.386 . S
C601 C605 1.393 . S
C602 H594 0.950 . S
C602 C600 1.391 . S
C602 C603 1.400 . S
C603 C602 1.400 . S
C603 C604 1.398 . S
C603 C609 1.491 . S
C604 H595 0.950 . S
C604 C603 1.398 . S
C604 C605 1.391 . S
C605 H593 0.950 . S
C605 C601 1.393 . S
C605 C604 1.391 . S
C606 H596 0.950 . S
C606 C607 1.386 . S
C606 C608 1.391 . S
C607 C606 1.386 . S
C607 C611 1.393 . S
C608 H597 0.950 . S
C608 C606 1.391 . S
C608 C609 1.400 . S
C609 C603 1.491 . S
C609 C608 1.400 . S
C609 C610 1.398 . S
C610 H598 0.950 . S
C610 C609 1.398 . S
C610 C611 1.391 . S
C611 H599 0.950 . S
C611 C607 1.393 . S
C611 C610 1.391 . S
H612 C620 0.950 . S
H613 C625 0.950 . S
H614 C622 0.950 . S
H615 C624 0.950 . S
H616 C626 0.950 . S
H617 C628 0.950 . S
H618 C630 0.950 . S
H619 C631 0.950 . S
C620 H612 0.950 . S
C620 C621 1.386 . S
C620 C622 1.391 . S
C621 C620 1.386 . S
C621 C625 1.393 . S
C622 H614 0.950 . S
C622 C620 1.391 . S
C622 C623 1.400 . S
C623 C622 1.400 . S
C623 C624 1.398 . S
C623 C629 1.491 . S
C624 H615 0.950 . S
C624 C623 1.398 . S
C624 C625 1.391 . S
C625 H613 0.950 . S
C625 C621 1.393 . S
C625 C624 1.391 . S
C626 H616 0.950 . S
C626 C627 1.386 . S
C626 C628 1.391 . S
C627 C626 1.386 . S
C627 C631 1.393 . S
C628 H617 0.950 . S
C628 C626 1.391 . S
C628 C629 1.400 . S
C629 C623 1.491 . S
C629 C628 1.400 . S
C629 C630 1.398 . S
C630 H618 0.950 . S
C630 C629 1.398 . S
C630 C631 1.391 . S
C631 H619 0.950 . S
C631 C627 1.393 . S
C631 C630 1.391 . S
H632 C640 0.950 . S
H633 C645 0.950 . S
H634 C642 0.950 . S
H635 C644 0.950 . S
H636 C646 0.950 . S
H637 C648 0.950 . S
H638 C650 0.950 . S
H639 C651 0.950 . S
C640 H632 0.950 . S
C640 C641 1.386 . S
C640 C642 1.391 . S
C641 C640 1.386 . S
C641 C645 1.393 . S
C642 H634 0.950 . S
C642 C640 1.391 . S
C642 C643 1.400 . S
C643 C642 1.400 . S
C643 C644 1.398 . S
C643 C649 1.491 . S
C644 H635 0.950 . S
C644 C643 1.398 . S
C644 C645 1.391 . S
C645 H633 0.950 . S
C645 C641 1.393 . S
C645 C644 1.391 . S
C646 H636 0.950 . S
C646 C647 1.386 . S
C646 C648 1.391 . S
C647 C646 1.386 . S
C647 C651 1.393 . S
C648 H637 0.950 . S
C648 C646 1.391 . S
C648 C649 1.400 . S
C649 C643 1.491 . S
C649 C648 1.400 . S
C649 C650 1.398 . S
C650 H638 0.950 . S
C650 C649 1.398 . S
C650 C651 1.391 . S
C651 H639 0.950 . S
C651 C647 1.393 . S
C651 C650 1.391 . S
H652 C660 0.950 . S
H653 C665 0.950 . S
H654 C662 0.950 . S
H655 C664 0.950 . S
H656 C666 0.950 . S
H657 C668 0.950 . S
H658 C670 0.950 . S
H659 C671 0.950 . S
C660 H652 0.950 . S
C660 C661 1.386 . S
C660 C662 1.391 . S
C661 C660 1.386 . S
C661 C665 1.393 . S
C662 H654 0.950 . S
C662 C660 1.391 . S
C662 C663 1.400 . S
C663 C662 1.400 . S
C663 C664 1.398 . S
C663 C669 1.491 . S
C664 H655 0.950 . S
C664 C663 1.398 . S
C664 C665 1.391 . S
C665 H653 0.950 . S
C665 C661 1.393 . S
C665 C664 1.391 . S
C666 H656 0.950 . S
C666 C667 1.386 . S
C666 C668 1.391 . S
C667 C666 1.386 . S
C667 C671 1.393 . S
C668 H657 0.950 . S
C668 C666 1.391 . S
C668 C669 1.400 . S
C669 C663 1.491 . S
C669 C668 1.400 . S
C669 C670 1.398 . S
C670 H658 0.950 . S
C670 C669 1.398 . S
C670 C671 1.391 . S
C671 H659 0.950 . S
C671 C667 1.393 . S
C671 C670 1.391 . S
H672 C680 0.950 . S
H673 C685 0.950 . S
H674 C682 0.950 . S
H675 C684 0.950 . S
H676 C686 0.950 . S
H677 C688 0.950 . S
H678 C690 0.950 . S
H679 C691 0.950 . S
C680 H672 0.950 . S
C680 C681 1.386 . S
C680 C682 1.391 . S
C681 C680 1.386 . S
C681 C685 1.393 . S
C682 H674 0.950 . S
C682 C680 1.391 . S
C682 C683 1.400 . S
C683 C682 1.400 . S
C683 C684 1.398 . S
C683 C689 1.491 . S
C684 H675 0.950 . S
C684 C683 1.398 . S
C684 C685 1.391 . S
C685 H673 0.950 . S
C685 C681 1.393 . S
C685 C684 1.391 . S
C686 H676 0.950 . S
C686 C687 1.386 . S
C686 C688 1.391 . S
C687 C686 1.386 . S
C687 C691 1.393 . S
C688 H677 0.950 . S
C688 C686 1.391 . S
C688 C689 1.400 . S
C689 C683 1.491 . S
C689 C688 1.400 . S
C689 C690 1.398 . S
C690 H678 0.950 . S
C690 C689 1.398 . S
C690 C691 1.391 . S
C691 H679 0.950 . S
C691 C687 1.393 . S
C691 C690 1.391 . S
H692 C700 0.950 . S
H693 C705 0.950 . S
H694 C702 0.950 . S
H695 C704 0.950 . S
H696 C706 0.950 . S
H697 C708 0.950 . S
H698 C710 0.950 . S
H699 C711 0.950 . S
C700 H692 0.950 . S
C700 C701 1.386 . S
C700 C702 1.391 . S
C701 C700 1.386 . S
C701 C705 1.393 . S
C702 H694 0.950 . S
C702 C700 1.391 . S
C702 C703 1.400 . S
C703 C702 1.400 . S
C703 C704 1.398 . S
C703 C709 1.491 . S
C704 H695 0.950 . S
C704 C703 1.398 . S
C704 C705 1.391 . S
C705 H693 0.950 . S
C705 C701 1.393 . S
C705 C704 1.391 . S
C706 H696 0.950 . S
C706 C707 1.386 . S
C706 C708 1.391 . S
C707 C706 1.386 . S
C707 C711 1.393 . S
C708 H697 0.950 . S
C708 C706 1.391 . S
C708 C709 1.400 . S
C709 C703 1.491 . S
C709 C708 1.400 . S
C709 C710 1.398 . S
C710 H698 0.950 . S
C710 C709 1.398 . S
C710 C711 1.391 . S
C711 H699 0.950 . S
C711 C707 1.393 . S
C711 C710 1.391 . S
H712 C720 0.950 . S
H713 C725 0.950 . S
H714 C722 0.950 . S
H715 C724 0.950 . S
H716 C726 0.950 . S
H717 C728 0.950 . S
H718 C730 0.950 . S
H719 C731 0.950 . S
C720 H712 0.950 . S
C720 C721 1.386 . S
C720 C722 1.391 . S
C721 C720 1.386 . S
C721 C725 1.393 . S
C722 H714 0.950 . S
C722 C720 1.391 . S
C722 C723 1.400 . S
C723 C722 1.400 . S
C723 C724 1.398 . S
C723 C729 1.491 . S
C724 H715 0.950 . S
C724 C723 1.398 . S
C724 C725 1.391 . S
C725 H713 0.950 . S
C725 C721 1.393 . S
C725 C724 1.391 . S
C726 H716 0.950 . S
C726 C727 1.386 . S
C726 C728 1.391 . S
C727 C726 1.386 . S
C727 C731 1.393 . S
C728 H717 0.950 . S
C728 C726 1.391 . S
C728 C729 1.400 . S
C729 C723 1.491 . S
C729 C728 1.400 . S
C729 C730 1.398 . S
C730 H718 0.950 . S
C730 C729 1.398 . S
C730 C731 1.391 . S
C731 H719 0.950 . S
C731 C727 1.393 . S
C731 C730 1.391 . S
H732 C740 0.950 . S
H733 C745 0.950 . S
H734 C742 0.950 . S
H735 C744 0.950 . S
H736 C746 0.950 . S
H737 C748 0.950 . S
H738 C750 0.950 . S
H739 C751 0.950 . S
C740 H732 0.950 . S
C740 C741 1.386 . S
C740 C742 1.391 . S
C741 C740 1.386 . S
C741 C745 1.393 . S
C742 H734 0.950 . S
C742 C740 1.391 . S
C742 C743 1.400 . S
C743 C742 1.400 . S
C743 C744 1.398 . S
C743 C749 1.491 . S
C744 H735 0.950 . S
C744 C743 1.398 . S
C744 C745 1.391 . S
C745 H733 0.950 . S
C745 C741 1.393 . S
C745 C744 1.391 . S
C746 H736 0.950 . S
C746 C747 1.386 . S
C746 C748 1.391 . S
C747 C746 1.386 . S
C747 C751 1.393 . S
C748 H737 0.950 . S
C748 C746 1.391 . S
C748 C749 1.400 . S
C749 C743 1.491 . S
C749 C748 1.400 . S
C749 C750 1.398 . S
C750 H738 0.950 . S
C750 C749 1.398 . S
C750 C751 1.391 . S
C751 H739 0.950 . S
C751 C747 1.393 . S
C751 C750 1.391 . S
H752 C760 0.950 . S
H753 C765 0.950 . S
H754 C762 0.950 . S
H755 C764 0.950 . S
H756 C766 0.950 . S
H757 C768 0.950 . S
H758 C770 0.950 . S
H759 C771 0.950 . S
C760 H752 0.950 . S
C760 C761 1.386 . S
C760 C762 1.391 . S
C761 C760 1.386 . S
C761 C765 1.393 . S
C762 H754 0.950 . S
C762 C760 1.391 . S
C762 C763 1.400 . S
C763 C762 1.400 . S
C763 C764 1.398 . S
C763 C769 1.491 . S
C764 H755 0.950 . S
C764 C763 1.398 . S
C764 C765 1.391 . S
C765 H753 0.950 . S
C765 C761 1.393 . S
C765 C764 1.391 . S
C766 H756 0.950 . S
C766 C767 1.386 . S
C766 C768 1.391 . S
C767 C766 1.386 . S
C767 C771 1.393 . S
C768 H757 0.950 . S
C768 C766 1.391 . S
C768 C769 1.400 . S
C769 C763 1.491 . S
C769 C768 1.400 . S
C769 C770 1.398 . S
C770 H758 0.950 . S
C770 C769 1.398 . S
C770 C771 1.391 . S
C771 H759 0.950 . S
C771 C767 1.393 . S
C771 C770 1.391 . S
H772 C780 0.950 . S
H773 C785 0.950 . S
H774 C782 0.950 . S
H775 C784 0.950 . S
H776 C786 0.950 . S
H777 C788 0.950 . S
H778 C790 0.950 . S
H779 C791 0.950 . S
C780 H772 0.950 . S
C780 C781 1.386 . S
C780 C782 1.391 . S
C781 C780 1.386 . S
C781 C785 1.393 . S
C782 H774 0.950 . S
C782 C780 1.391 . S
C782 C783 1.400 . S
C783 C782 1.400 . S
C783 C784 1.398 . S
C783 C789 1.491 . S
C784 H775 0.950 . S
C784 C783 1.398 . S
C784 C785 1.391 . S
C785 H773 0.950 . S
C785 C781 1.393 . S
C785 C784 1.391 . S
C786 H776 0.950 . S
C786 C787 1.386 . S
C786 C788 1.391 . S
C787 C786 1.386 . S
C787 C791 1.393 . S
C788 H777 0.950 . S
C788 C786 1.391 . S
C788 C789 1.400 . S
C789 C783 1.491 . S
C789 C788 1.400 . S
C789 C790 1.398 . S
C790 H778 0.950 . S
C790 C789 1.398 . S
C790 C791 1.391 . S
C791 H779 0.950 . S
C791 C787 1.393 . S
C791 C790 1.391 . S
H792 C800 0.950 . S
H793 C805 0.950 . S
H794 C802 0.950 . S
H795 C804 0.950 . S
H796 C806 0.950 . S
H797 C808 0.950 . S
H798 C810 0.950 . S
H799 C811 0.950 . S
C800 H792 0.950 . S
C800 C801 1.386 . S
C800 C802 1.391 . S
C801 C800 1.386 . S
C801 C805 1.393 . S
C802 H794 0.950 . S
C802 C800 1.391 . S
C802 C803 1.400 . S
C803 C802 1.400 . S
C803 C804 1.398 . S
C803 C809 1.491 . S
C804 H795 0.950 . S
C804 C803 1.398 . S
C804 C805 1.391 . S
C805 H793 0.950 . S
C805 C801 1.393 . S
C805 C804 1.391 . S
C806 H796 0.950 . S
C806 C807 1.386 . S
C806 C808 1.391 . S
C807 C806 1.386 . S
C807 C811 1.393 . S
C808 H797 0.950 . S
C808 C806 1.391 . S
C808 C809 1.400 . S
C809 C803 1.491 . S
C809 C808 1.400 . S
C809 C810 1.398 . S
C810 H798 0.950 . S
C810 C809 1.398 . S
C810 C811 1.391 . S
C811 H799 0.950 . S
C811 C807 1.393 . S
C811 C810 1.391 . S
H812 C820 0.950 . S
H813 C825 0.950 . S
H814 C822 0.950 . S
H815 C824 0.950 . S
H816 C826 0.950 . S
H817 C828 0.950 . S
H818 C830 0.950 . S
H819 C831 0.950 . S
C820 H812 0.950 . S
C820 C821 1.386 . S
C820 C822 1.391 . S
C821 C820 1.386 . S
C821 C825 1.393 . S
C822 H814 0.950 . S
C822 C820 1.391 . S
C822 C823 1.400 . S
C823 C822 1.400 . S
C823 C824 1.398 . S
C823 C829 1.491 . S
C824 H815 0.950 . S
C824 C823 1.398 . S
C824 C825 1.391 . S
C825 H813 0.950 . S
C825 C821 1.393 . S
C825 C824 1.391 . S
C826 H816 0.950 . S
C826 C827 1.386 . S
C826 C828 1.391 . S
C827 C826 1.386 . S
C827 C831 1.393 . S
C828 H817 0.950 . S
C828 C826 1.391 . S
C828 C829 1.400 . S
C829 C823 1.491 . S
C829 C828 1.400 . S
C829 C830 1.398 . S
C830 H818 0.950 . S
C830 C829 1.398 . S
C830 C831 1.391 . S
C831 H819 0.950 . S
C831 C827 1.393 . S
C831 C830 1.391 . S
H832 C840 0.950 . S
H833 C845 0.950 . S
H834 C842 0.950 . S
H835 C844 0.950 . S
H836 C846 0.950 . S
H837 C848 0.950 . S
H838 C850 0.950 . S
H839 C851 0.950 . S
C840 H832 0.950 . S
C840 C841 1.386 . S
C840 C842 1.391 . S
C841 C840 1.386 . S
C841 C845 1.393 . S
C842 H834 0.950 . S
C842 C840 1.391 . S
C842 C843 1.400 . S
C843 C842 1.400 . S
C843 C844 1.398 . S
C843 C849 1.491 . S
C844 H835 0.950 . S
C844 C843 1.398 . S
C844 C845 1.391 . S
C845 H833 0.950 . S
C845 C841 1.393 . S
C845 C844 1.391 . S
C846 H836 0.950 . S
C846 C847 1.386 . S
C846 C848 1.391 . S
C847 C846 1.386 . S
C847 C851 1.393 . S
C848 H837 0.950 . S
C848 C846 1.391 . S
C848 C849 1.400 . S
C849 C843 1.491 . S
C849 C848 1.400 . S
C849 C850 1.398 . S
C850 H838 0.950 . S
C850 C849 1.398 . S
C850 C851 1.391 . S
C851 H839 0.950 . S
C851 C847 1.393 . S
C851 C850 1.391 . S
H852 C860 0.950 . S
H853 C865 0.950 . S
H854 C862 0.950 . S
H855 C864 0.950 . S
H856 C866 0.950 . S
H857 C868 0.950 . S
H858 C870 0.950 . S
H859 C871 0.950 . S
C860 H852 0.950 . S
C860 C861 1.386 . S
C860 C862 1.391 . S
C861 C860 1.386 . S
C861 C865 1.393 . S
C862 H854 0.950 . S
C862 C860 1.391 . S
C862 C863 1.400 . S
C863 C862 1.400 . S
C863 C864 1.398 . S
C863 C869 1.491 . S
C864 H855 0.950 . S
C864 C863 1.398 . S
C864 C865 1.391 . S
C865 H853 0.950 . S
C865 C861 1.393 . S
C865 C864 1.391 . S
C866 H856 0.950 . S
C866 C867 1.386 . S
C866 C868 1.391 . S
C867 C866 1.386 . S
C867 C871 1.393 . S
C868 H857 0.950 . S
C868 C866 1.391 . S
C868 C869 1.400 . S
C869 C863 1.491 . S
C869 C868 1.400 . S
C869 C870 1.398 . S
C870 H858 0.950 . S
C870 C869 1.398 . S
C870 C871 1.391 . S
C871 H859 0.950 . S
C871 C867 1.393 . S
C871 C870 1.391 . S
H872 C880 0.950 . S
H873 C885 0.950 . S
H874 C882 0.950 . S
H875 C884 0.950 . S
H876 C886 0.950 . S
H877 C888 0.950 . S
H878 C890 0.950 . S
H879 C891 0.950 . S
C880 H872 0.950 . S
C880 C881 1.386 . S
C880 C882 1.391 . S
C881 C880 1.386 . S
C881 C885 1.393 . S
C882 H874 0.950 . S
C882 C880 1.391 . S
C882 C883 1.400 . S
C883 C882 1.400 . S
C883 C884 1.398 . S
C883 C889 1.491 . S
C884 H875 0.950 . S
C884 C883 1.398 . S
C884 C885 1.391 . S
C885 H873 0.950 . S
C885 C881 1.393 . S
C885 C884 1.391 . S
C886 H876 0.950 . S
C886 C887 1.386 . S
C886 C888 1.391 . S
C887 C886 1.386 . S
C887 C891 1.393 . S
C888 H877 0.950 . S
C888 C886 1.391 . S
C888 C889 1.400 . S
C889 C883 1.491 . S
C889 C888 1.400 . S
C889 C890 1.398 . S
C890 H878 0.950 . S
C890 C889 1.398 . S
C890 C891 1.391 . S
C891 H879 0.950 . S
C891 C887 1.393 . S
C891 C890 1.391 . S
H892 C900 0.950 . S
H893 C905 0.950 . S
H894 C902 0.950 . S
H895 C904 0.950 . S
H896 C906 0.950 . S
H897 C908 0.950 . S
H898 C910 0.950 . S
H899 C911 0.950 . S
C900 H892 0.950 . S
C900 C901 1.386 . S
C900 C902 1.391 . S
C901 C900 1.386 . S
C901 C905 1.393 . S
C902 H894 0.950 . S
C902 C900 1.391 . S
C902 C903 1.400 . S
C903 C902 1.400 . S
C903 C904 1.398 . S
C903 C909 1.491 . S
C904 H895 0.950 . S
C904 C903 1.398 . S
C904 C905 1.391 . S
C905 H893 0.950 . S
C905 C901 1.393 . S
C905 C904 1.391 . S
C906 H896 0.950 . S
C906 C907 1.386 . S
C906 C908 1.391 . S
C907 C906 1.386 . S
C907 C911 1.393 . S
C908 H897 0.950 . S
C908 C906 1.391 . S
C908 C909 1.400 . S
C909 C903 1.491 . S
C909 C908 1.400 . S
C909 C910 1.398 . S
C910 H898 0.950 . S
C910 C909 1.398 . S
C910 C911 1.391 . S
C911 H899 0.950 . S
C911 C907 1.393 . S
C911 C910 1.391 . S
H912 C920 0.950 . S
H913 C925 0.950 . S
H914 C922 0.950 . S
H915 C924 0.950 . S
H916 C926 0.950 . S
H917 C928 0.950 . S
H918 C930 0.950 . S
H919 C931 0.950 . S
C920 H912 0.950 . S
C920 C921 1.386 . S
C920 C922 1.391 . S
C921 C920 1.386 . S
C921 C925 1.393 . S
C922 H914 0.950 . S
C922 C920 1.391 . S
C922 C923 1.400 . S
C923 C922 1.400 . S
C923 C924 1.398 . S
C923 C929 1.491 . S
C924 H915 0.950 . S
C924 C923 1.398 . S
C924 C925 1.391 . S
C925 H913 0.950 . S
C925 C921 1.393 . S
C925 C924 1.391 . S
C926 H916 0.950 . S
C926 C927 1.386 . S
C926 C928 1.391 . S
C927 C926 1.386 . S
C927 C931 1.393 . S
C928 H917 0.950 . S
C928 C926 1.391 . S
C928 C929 1.400 . S
C929 C923 1.491 . S
C929 C928 1.400 . S
C929 C930 1.398 . S
C930 H918 0.950 . S
C930 C929 1.398 . S
C930 C931 1.391 . S
C931 H919 0.950 . S
C931 C927 1.393 . S
C931 C930 1.391 . S
H932 C940 0.950 . S
H933 C945 0.950 . S
H934 C942 0.950 . S
H935 C944 0.950 . S
H936 C946 0.950 . S
H937 C948 0.950 . S
H938 C950 0.950 . S
H939 C951 0.950 . S
C940 H932 0.950 . S
C940 C941 1.386 . S
C940 C942 1.391 . S
C941 C940 1.386 . S
C941 C945 1.393 . S
C942 H934 0.950 . S
C942 C940 1.391 . S
C942 C943 1.400 . S
C943 C942 1.400 . S
C943 C944 1.398 . S
C943 C949 1.491 . S
C944 H935 0.950 . S
C944 C943 1.398 . S
C944 C945 1.391 . S
C945 H933 0.950 . S
C945 C941 1.393 . S
C945 C944 1.391 . S
C946 H936 0.950 . S
C946 C947 1.386 . S
C946 C948 1.391 . S
C947 C946 1.386 . S
C947 C951 1.393 . S
C948 H937 0.950 . S
C948 C946 1.391 . S
C948 C949 1.400 . S
C949 C943 1.491 . S
C949 C948 1.400 . S
C949 C950 1.398 . S
C950 H938 0.950 . S
C950 C949 1.398 . S
C950 C951 1.391 . S
C951 H939 0.950 . S
C951 C947 1.393 . S
C951 C950 1.391 . S
H952 C960 0.950 . S
H953 C965 0.950 . S
H954 C962 0.950 . S
H955 C964 0.950 . S
H956 C966 0.950 . S
H957 C968 0.950 . S
H958 C970 0.950 . S
H959 C971 0.950 . S
C960 H952 0.950 . S
C960 C961 1.386 . S
C960 C962 1.391 . S
C961 C960 1.386 . S
C961 C965 1.393 . S
C962 H954 0.950 . S
C962 C960 1.391 . S
C962 C963 1.400 . S
C963 C962 1.400 . S
C963 C964 1.398 . S
C963 C969 1.491 . S
C964 H955 0.950 . S
C964 C963 1.398 . S
C964 C965 1.391 . S
C965 H953 0.950 . S
C965 C961 1.393 . S
C965 C964 1.391 . S
C966 H956 0.950 . S
C966 C967 1.386 . S
C966 C968 1.391 . S
C967 C966 1.386 . S
C967 C971 1.393 . S
C968 H957 0.950 . S
C968 C966 1.391 . S
C968 C969 1.400 . S
C969 C963 1.491 . S
C969 C968 1.400 . S
C969 C970 1.398 . S
C970 H958 0.950 . S
C970 C969 1.398 . S
C970 C971 1.391 . S
C971 H959 0.950 . S
C971 C967 1.393 . S
C971 C970 1.391 . S
H972 C980 0.950 . S
H973 C985 0.950 . S
H974 C982 0.950 . S
H975 C984 0.950 . S
H976 C986 0.950 . S
H977 C988 0.950 . S
H978 C990 0.950 . S
H979 C991 0.950 . S
C980 H972 0.950 . S
C980 C981 1.386 . S
C980 C982 1.391 . S
C981 C980 1.386 . S
C981 C985 1.393 . S
C982 H974 0.950 . S
C982 C980 1.391 . S
C982 C983 1.400 . S
C983 C982 1.400 . S
C983 C984 1.398 . S
C983 C989 1.491 . S
C984 H975 0.950 . S
C984 C983 1.398 . S
C984 C985 1.391 . S
C985 H973 0.950 . S
C985 C981 1.393 . S
C985 C984 1.391 . S
C986 H976 0.950 . S
C986 C987 1.386 . S
C986 C988 1.391 . S
C987 C986 1.386 . S
C987 C991 1.393 . S
C988 H977 0.950 . S
C988 C986 1.391 . S
C988 C989 1.400 . S
C989 C983 1.491 . S
C989 C988 1.400 . S
C989 C990 1.398 . S
C990 H978 0.950 . S
C990 C989 1.398 . S
C990 C991 1.391 . S
C991 H979 0.950 . S
C991 C987 1.393 . S
C991 C990 1.391 . S
H992 C1000 0.950 . S
H993 C1005 0.950 . S
H994 C1002 0.950 . S
H995 C1004 0.950 . S
H996 C1006 0.950 . S
H997 C1008 0.950 . S
H998 C1010 0.950 . S
H999 C1011 0.950 . S
C1000 H992 0.950 . S
C1000 C1001 1.386 . S
C1000 C1002 1.391 . S
C1001 C1000 1.386 . S
C1001 C1005 1.393 . S
C1002 H994 0.950 . S
C1002 C1000 1.391 . S
C1002 C1003 1.400 . S
C1003 C1002 1.400 . S
C1003 C1004 1.398 . S
C1003 C1009 1.491 . S
C1004 H995 0.950 . S
C1004 C1003 1.398 . S
C1004 C1005 1.391 . S
C1005 H993 0.950 . S
C1005 C1001 1.393 . S
C1005 C1004 1.391 . S
C1006 H996 0.950 . S
C1006 C1007 1.386 . S
C1006 C1008 1.391 . S
C1007 C1006 1.386 . S
C1007 C1011 1.393 . S
C1008 H997 0.950 . S
C1008 C1006 1.391 . S
C1008 C1009 1.400 . S
C1009 C1003 1.491 . S
C1009 C1008 1.400 . S
C1009 C1010 1.398 . S
C1010 H998 0.950 . S
C1010 C1009 1.398 . S
C1010 C1011 1.391 . S
C1011 H999 0.950 . S
C1011 C1007 1.393 . S
C1011 C1010 1.391 . S
H1012 C1020 0.950 . S
H1013 C1025 0.950 . S
H1014 C1022 0.950 . S
H1015 C1024 0.950 . S
H1016 C1026 0.950 . S
H1017 C1028 0.950 . S
H1018 C1030 0.950 . S
H1019 C1031 0.950 . S
C1020 H1012 0.950 . S
C1020 C1021 1.386 . S
C1020 C1022 1.391 . S
C1021 C1020 1.386 . S
C1021 C1025 1.393 . S
C1022 H1014 0.950 . S
C1022 C1020 1.391 . S
C1022 C1023 1.400 . S
C1023 C1022 1.400 . S
C1023 C1024 1.398 . S
C1023 C1029 1.491 . S
C1024 H1015 0.950 . S
C1024 C1023 1.398 . S
C1024 C1025 1.391 . S
C1025 H1013 0.950 . S
C1025 C1021 1.393 . S
C1025 C1024 1.391 . S
C1026 H1016 0.950 . S
C1026 C1027 1.386 . S
C1026 C1028 1.391 . S
C1027 C1026 1.386 . S
C1027 C1031 1.393 . S
C1028 H1017 0.950 . S
C1028 C1026 1.391 . S
C1028 C1029 1.400 . S
C1029 C1023 1.491 . S
C1029 C1028 1.400 . S
C1029 C1030 1.398 . S
C1030 H1018 0.950 . S
C1030 C1029 1.398 . S
C1030 C1031 1.391 . S
C1031 H1019 0.950 . S
C1031 C1027 1.393 . S
C1031 C1030 1.391 . S
H1032 C1040 0.950 . S
H1033 C1045 0.950 . S
H1034 C1042 0.950 . S
H1035 C1044 0.950 . S
H1036 C1046 0.950 . S
H1037 C1048 0.950 . S
H1038 C1050 0.950 . S
H1039 C1051 0.950 . S
C1040 H1032 0.950 . S
C1040 C1041 1.386 . S
C1040 C1042 1.391 . S
C1041 C1040 1.386 . S
C1041 C1045 1.393 . S
C1042 H1034 0.950 . S
C1042 C1040 1.391 . S
C1042 C1043 1.400 . S
C1043 C1042 1.400 . S
C1043 C1044 1.398 . S
C1043 C1049 1.491 . S
C1044 H1035 0.950 . S
C1044 C1043 1.398 . S
C1044 C1045 1.391 . S
C1045 H1033 0.950 . S
C1045 C1041 1.393 . S
C1045 C1044 1.391 . S
C1046 H1036 0.950 . S
C1046 C1047 1.386 . S
C1046 C1048 1.391 . S
C1047 C1046 1.386 . S
C1047 C1051 1.393 . S
C1048 H1037 0.950 . S
C1048 C1046 1.391 . S
C1048 C1049 1.400 . S
C1049 C1043 1.491 . S
C1049 C1048 1.400 . S
C1049 C1050 1.398 . S
C1050 H1038 0.950 . S
C1050 C1049 1.398 . S
C1050 C1051 1.391 . S
C1051 H1039 0.950 . S
C1051 C1047 1.393 . S
C1051 C1050 1.391 . S
H1052 C1060 0.950 . S
H1053 C1065 0.950 . S
H1054 C1062 0.950 . S
H1055 C1064 0.950 . S
H1056 C1066 0.950 . S
H1057 C1068 0.950 . S
H1058 C1070 0.950 . S
H1059 C1071 0.950 . S
C1060 H1052 0.950 . S
C1060 C1061 1.386 . S
C1060 C1062 1.391 . S
C1061 C1060 1.386 . S
C1061 C1065 1.393 . S
C1062 H1054 0.950 . S
C1062 C1060 1.391 . S
C1062 C1063 1.400 . S
C1063 C1062 1.400 . S
C1063 C1064 1.398 . S
C1063 C1069 1.491 . S
C1064 H1055 0.950 . S
C1064 C1063 1.398 . S
C1064 C1065 1.391 . S
C1065 H1053 0.950 . S
C1065 C1061 1.393 . S
C1065 C1064 1.391 . S
C1066 H1056 0.950 . S
C1066 C1067 1.386 . S
C1066 C1068 1.391 . S
C1067 C1066 1.386 . S
C1067 C1071 1.393 . S
C1068 H1057 0.950 . S
C1068 C1066 1.391 . S
C1068 C1069 1.400 . S
C1069 C1063 1.491 . S
C1069 C1068 1.400 . S
C1069 C1070 1.398 . S
C1070 H1058 0.950 . S
C1070 C1069 1.398 . S
C1070 C1071 1.391 . S
C1071 H1059 0.950 . S
C1071 C1067 1.393 . S
C1071 C1070 1.391 . S
H1072 C1080 0.950 . S
H1073 C1085 0.950 . S
H1074 C1082 0.950 . S
H1075 C1084 0.950 . S
H1076 C1086 0.950 . S
H1077 C1088 0.950 . S
H1078 C1090 0.950 . S
H1079 C1091 0.950 . S
C1080 H1072 0.950 . S
C1080 C1081 1.386 . S
C1080 C1082 1.391 . S
C1081 C1080 1.386 . S
C1081 C1085 1.393 . S
C1082 H1074 0.950 . S
C1082 C1080 1.391 . S
C1082 C1083 1.400 . S
C1083 C1082 1.400 . S
C1083 C1084 1.398 . S
C1083 C1089 1.491 . S
C1084 H1075 0.950 . S
C1084 C1083 1.398 . S
C1084 C1085 1.391 . S
C1085 H1073 0.950 . S
C1085 C1081 1.393 . S
C1085 C1084 1.391 . S
C1086 H1076 0.950 . S
C1086 C1087 1.386 . S
C1086 C1088 1.391 . S
C1087 C1086 1.386 . S
C1087 C1091 1.393 . S
C1088 H1077 0.950 . S
C1088 C1086 1.391 . S
C1088 C1089 1.400 . S
C1089 C1083 1.491 . S
C1089 C1088 1.400 . S
C1089 C1090 1.398 . S
C1090 H1078 0.950 . S
C1090 C1089 1.398 . S
C1090 C1091 1.391 . S
C1091 H1079 0.950 . S
C1091 C1087 1.393 . S
C1091 C1090 1.391 . S
H1092 C1100 0.950 . S
H1093 C1105 0.950 . S
H1094 C1102 0.950 . S
H1095 C1104 0.950 . S
H1096 C1106 0.950 . S
H1097 C1108 0.950 . S
H1098 C1110 0.950 . S
H1099 C1111 0.950 . S
C1100 H1092 0.950 . S
C1100 C1101 1.386 . S
C1100 C1102 1.391 . S
C1101 C1100 1.386 . S
C1101 C1105 1.393 . S
C1102 H1094 0.950 . S
C1102 C1100 1.391 . S
C1102 C1103 1.400 . S
C1103 C1102 1.400 . S
C1103 C1104 1.398 . S
C1103 C1109 1.491 . S
C1104 H1095 0.950 . S
C1104 C1103 1.398 . S
C1104 C1105 1.391 . S
C1105 H1093 0.950 . S
C1105 C1101 1.393 . S
C1105 C1104 1.391 . S
C1106 H1096 0.950 . S
C1106 C1107 1.386 . S
C1106 C1108 1.391 . S
C1107 C1106 1.386 . S
C1107 C1111 1.393 . S
C1108 H1097 0.950 . S
C1108 C1106 1.391 . S
C1108 C1109 1.400 . S
C1109 C1103 1.491 . S
C1109 C1108 1.400 . S
C1109 C1110 1.398 . S
C1110 H1098 0.950 . S
C1110 C1109 1.398 . S
C1110 C1111 1.391 . S
C1111 H1099 0.950 . S
C1111 C1107 1.393 . S
C1111 C1110 1.391 . S
H1112 C1120 0.950 . S
H1113 C1125 0.950 . S
H1114 C1122 0.950 . S
H1115 C1124 0.950 . S
H1116 C1126 0.950 . S
H1117 C1128 0.950 . S
H1118 C1130 0.950 . S
H1119 C1131 0.950 . S
C1120 H1112 0.950 . S
C1120 C1121 1.386 . S
C1120 C1122 1.391 . S
C1121 C1120 1.386 . S
C1121 C1125 1.393 . S
C1122 H1114 0.950 . S
C1122 C1120 1.391 . S
C1122 C1123 1.400 . S
C1123 C1122 1.400 . S
C1123 C1124 1.398 . S
C1123 C1129 1.491 . S
C1124 H1115 0.950 . S
C1124 C1123 1.398 . S
C1124 C1125 1.391 . S
C1125 H1113 0.950 . S
C1125 C1121 1.393 . S
C1125 C1124 1.391 . S
C1126 H1116 0.950 . S
C1126 C1127 1.386 . S
C1126 C1128 1.391 . S
C1127 C1126 1.386 . S
C1127 C1131 1.393 . S
C1128 H1117 0.950 . S
C1128 C1126 1.391 . S
C1128 C1129 1.400 . S
C1129 C1123 1.491 . S
C1129 C1128 1.400 . S
C1129 C1130 1.398 . S
C1130 H1118 0.950 . S
C1130 C1129 1.398 . S
C1130 C1131 1.391 . S
C1131 H1119 0.950 . S
C1131 C1127 1.393 . S
C1131 C1130 1.391 . S
H1132 C1140 0.950 . S
H1133 C1145 0.950 . S
H1134 C1142 0.950 . S
H1135 C1144 0.950 . S
H1136 C1146 0.950 . S
H1137 C1148 0.950 . S
H1138 C1150 0.950 . S
H1139 C1151 0.950 . S
C1140 H1132 0.950 . S
C1140 C1141 1.386 . S
C1140 C1142 1.391 . S
C1141 C1140 1.386 . S
C1141 C1145 1.393 . S
C1142 H1134 0.950 . S
C1142 C1140 1.391 . S
C1142 C1143 1.400 . S
C1143 C1142 1.400 . S
C1143 C1144 1.398 . S
C1143 C1149 1.491 . S
C1144 H1135 0.950 . S
C1144 C1143 1.398 . S
C1144 C1145 1.391 . S
C1145 H1133 0.950 . S
C1145 C1141 1.393 . S
C1145 C1144 1.391 . S
C1146 H1136 0.950 . S
C1146 C1147 1.386 . S
C1146 C1148 1.391 . S
C1147 C1146 1.386 . S
C1147 C1151 1.393 . S
C1148 H1137 0.950 . S
C1148 C1146 1.391 . S
C1148 C1149 1.400 . S
C1149 C1143 1.491 . S
C1149 C1148 1.400 . S
C1149 C1150 1.398 . S
C1150 H1138 0.950 . S
C1150 C1149 1.398 . S
C1150 C1151 1.391 . S
C1151 H1139 0.950 . S
C1151 C1147 1.393 . S
C1151 C1150 1.391 . S
H1152 C1160 0.950 . S
H1153 C1165 0.950 . S
H1154 C1162 0.950 . S
H1155 C1164 0.950 . S
H1156 C1166 0.950 . S
H1157 C1168 0.950 . S
H1158 C1170 0.950 . S
H1159 C1171 0.950 . S
C1160 H1152 0.950 . S
C1160 C1161 1.386 . S
C1160 C1162 1.391 . S
C1161 C1160 1.386 . S
C1161 C1165 1.393 . S
C1162 H1154 0.950 . S
C1162 C1160 1.391 . S
C1162 C1163 1.400 . S
C1163 C1162 1.400 . S
C1163 C1164 1.398 . S
C1163 C1169 1.491 . S
C1164 H1155 0.950 . S
C1164 C1163 1.398 . S
C1164 C1165 1.391 . S
C1165 H1153 0.950 . S
C1165 C1161 1.393 . S
C1165 C1164 1.391 . S
C1166 H1156 0.950 . S
C1166 C1167 1.386 . S
C1166 C1168 1.391 . S
C1167 C1166 1.386 . S
C1167 C1171 1.393 . S
C1168 H1157 0.950 . S
C1168 C1166 1.391 . S
C1168 C1169 1.400 . S
C1169 C1163 1.491 . S
C1169 C1168 1.400 . S
C1169 C1170 1.398 . S
C1170 H1158 0.950 . S
C1170 C1169 1.398 . S
C1170 C1171 1.391 . S
C1171 H1159 0.950 . S
C1171 C1167 1.393 . S
C1171 C1170 1.391 . S
H1172 C1180 0.950 . S
H1173 C1185 0.950 . S
H1174 C1182 0.950 . S
H1175 C1184 0.950 . S
H1176 C1186 0.950 . S
H1177 C1188 0.950 . S
H1178 C1190 0.950 . S
H1179 C1191 0.950 . S
C1180 H1172 0.950 . S
C1180 C1181 1.386 . S
C1180 C1182 1.391 . S
C1181 C1180 1.386 . S
C1181 C1185 1.393 . S
C1182 H1174 0.950 . S
C1182 C1180 1.391 . S
C1182 C1183 1.400 . S
C1183 C1182 1.400 . S
C1183 C1184 1.398 . S
C1183 C1189 1.491 . S
C1184 H1175 0.950 . S
C1184 C1183 1.398 . S
C1184 C1185 1.391 . S
C1185 H1173 0.950 . S
C1185 C1181 1.393 . S
C1185 C1184 1.391 . S
C1186 H1176 0.950 . S
C1186 C1187 1.386 . S
C1186 C1188 1.391 . S
C1187 C1186 1.386 . S
C1187 C1191 1.393 . S
C1188 H1177 0.950 . S
C1188 C1186 1.391 . S
C1188 C1189 1.400 . S
C1189 C1183 1.491 . S
C1189 C1188 1.400 . S
C1189 C1190 1.398 . S
C1190 H1178 0.950 . S
C1190 C1189 1.398 . S
C1190 C1191 1.391 . S
C1191 H1179 0.950 . S
C1191 C1187 1.393 . S
C1191 C1190 1.391 . S
H1192 C1200 0.950 . S
H1193 C1205 0.950 . S
H1194 C1202 0.950 . S
H1195 C1204 0.950 . S
H1196 C1206 0.950 . S
H1197 C1208 0.950 . S
H1198 C1210 0.950 . S
H1199 C1211 0.950 . S
C1200 H1192 0.950 . S
C1200 C1201 1.386 . S
C1200 C1202 1.391 . S
C1201 C1200 1.386 . S
C1201 C1205 1.393 . S
C1202 H1194 0.950 . S
C1202 C1200 1.391 . S
C1202 C1203 1.400 . S
C1203 C1202 1.400 . S
C1203 C1204 1.398 . S
C1203 C1209 1.491 . S
C1204 H1195 0.950 . S
C1204 C1203 1.398 . S
C1204 C1205 1.391 . S
C1205 H1193 0.950 . S
C1205 C1201 1.393 . S
C1205 C1204 1.391 . S
C1206 H1196 0.950 . S
C1206 C1207 1.386 . S
C1206 C1208 1.391 . S
C1207 C1206 1.386 . S
C1207 C1211 1.393 . S
C1208 H1197 0.950 . S
C1208 C1206 1.391 . S
C1208 C1209 1.400 . S
C1209 C1203 1.491 . S
C1209 C1208 1.400 . S
C1209 C1210 1.398 . S
C1210 H1198 0.950 . S
C1210 C1209 1.398 . S
C1210 C1211 1.391 . S
C1211 H1199 0.950 . S
C1211 C1207 1.393 . S
C1211 C1210 1.391 . S
H1212 C1220 0.950 . S
H1213 C1225 0.950 . S
H1214 C1222 0.950 . S
H1215 C1224 0.950 . S
H1216 C1226 0.950 . S
H1217 C1228 0.950 . S
H1218 C1230 0.950 . S
H1219 C1231 0.950 . S
C1220 H1212 0.950 . S
C1220 C1221 1.386 . S
C1220 C1222 1.391 . S
C1221 C1220 1.386 . S
C1221 C1225 1.393 . S
C1222 H1214 0.950 . S
C1222 C1220 1.391 . S
C1222 C1223 1.400 . S
C1223 C1222 1.400 . S
C1223 C1224 1.398 . S
C1223 C1229 1.491 . S
C1224 H1215 0.950 . S
C1224 C1223 1.398 . S
C1224 C1225 1.391 . S
C1225 H1213 0.950 . S
C1225 C1221 1.393 . S
C1225 C1224 1.391 . S
C1226 H1216 0.950 . S
C1226 C1227 1.386 . S
C1226 C1228 1.391 . S
C1227 C1226 1.386 . S
C1227 C1231 1.393 . S
C1228 H1217 0.950 . S
C1228 C1226 1.391 . S
C1228 C1229 1.400 . S
C1229 C1223 1.491 . S
C1229 C1228 1.400 . S
C1229 C1230 1.398 . S
C1230 H1218 0.950 . S
C1230 C1229 1.398 . S
C1230 C1231 1.391 . S
C1231 H1219 0.950 . S
C1231 C1227 1.393 . S
C1231 C1230 1.391 . S
H1232 C1240 0.950 . S
H1233 C1245 0.950 . S
H1234 C1242 0.950 . S
H1235 C1244 0.950 . S
H1236 C1246 0.950 . S
H1237 C1248 0.950 . S
H1238 C1250 0.950 . S
H1239 C1251 0.950 . S
C1240 H1232 0.950 . S
C1240 C1241 1.386 . S
C1240 C1242 1.391 . S
C1241 C1240 1.386 . S
C1241 C1245 1.393 . S
C1242 H1234 0.950 . S
C1242 C1240 1.391 . S
C1242 C1243 1.400 . S
C1243 C1242 1.400 . S
C1243 C1244 1.398 . S
C1243 C1249 1.491 . S
C1244 H1235 0.950 . S
C1244 C1243 1.398 . S
C1244 C1245 1.391 . S
C1245 H1233 0.950 . S
C1245 C1241 1.393 . S
C1245 C1244 1.391 . S
C1246 H1236 0.950 . S
C1246 C1247 1.386 . S
C1246 C1248 1.391 . S
C1247 C1246 1.386 . S
C1247 C1251 1.393 . S
C1248 H1237 0.950 . S
C1248 C1246 1.391 . S
C1248 C1249 1.400 . S
C1249 C1243 1.491 . S
C1249 C1248 1.400 . S
C1249 C1250 1.398 . S
C1250 H1238 0.950 . S
C1250 C1249 1.398 . S
C1250 C1251 1.391 . S
C1251 H1239 0.950 . S
C1251 C1247 1.393 . S
C1251 C1250 1.391 . S
H1252 C1260 0.950 . S
H1253 C1265 0.950 . S
H1254 C1262 0.950 . S
H1255 C1264 0.950 . S
H1256 C1266 0.950 . S
H1257 C1268 0.950 . S
H1258 C1270 0.950 . S
H1259 C1271 0.950 . S
C1260 H1252 0.950 . S
C1260 C1261 1.386 . S
C1260 C1262 1.391 . S
C1261 C1260 1.386 . S
C1261 C1265 1.393 . S
C1262 H1254 0.950 . S
C1262 C1260 1.391 . S
C1262 C1263 1.400 . S
C1263 C1262 1.400 . S
C1263 C1264 1.398 . S
C1263 C1269 1.491 . S
C1264 H1255 0.950 . S
C1264 C1263 1.398 . S
C1264 C1265 1.391 . S
C1265 H1253 0.950 . S
C1265 C1261 1.393 . S
C1265 C1264 1.391 . S
C1266 H1256 0.950 . S
C1266 C1267 1.386 . S
C1266 C1268 1.391 . S
C1267 C1266 1.386 . S
C1267 C1271 1.393 . S
C1268 H1257 0.950 . S
C1268 C1266 1.391 . S
C1268 C1269 1.400 . S
C1269 C1263 1.491 . S
C1269 C1268 1.400 . S
C1269 C1270 1.398 . S
C1270 H1258 0.950 . S
C1270 C1269 1.398 . S
C1270 C1271 1.391 . S
C1271 H1259 0.950 . S
C1271 C1267 1.393 . S
C1271 C1270 1.391 . S
H1272 C1280 0.950 . S
H1273 C1285 0.950 . S
H1274 C1282 0.950 . S
H1275 C1284 0.950 . S
H1276 C1286 0.950 . S
H1277 C1288 0.950 . S
H1278 C1290 0.950 . S
H1279 C1291 0.950 . S
C1280 H1272 0.950 . S
C1280 C1281 1.386 . S
C1280 C1282 1.391 . S
C1281 C1280 1.386 . S
C1281 C1285 1.393 . S
C1282 H1274 0.950 . S
C1282 C1280 1.391 . S
C1282 C1283 1.400 . S
C1283 C1282 1.400 . S
C1283 C1284 1.398 . S
C1283 C1289 1.491 . S
C1284 H1275 0.950 . S
C1284 C1283 1.398 . S
C1284 C1285 1.391 . S
C1285 H1273 0.950 . S
C1285 C1281 1.393 . S
C1285 C1284 1.391 . S
C1286 H1276 0.950 . S
C1286 C1287 1.386 . S
C1286 C1288 1.391 . S
C1287 C1286 1.386 . S
C1287 C1291 1.393 . S
C1288 H1277 0.950 . S
C1288 C1286 1.391 . S
C1288 C1289 1.400 . S
C1289 C1283 1.491 . S
C1289 C1288 1.400 . S
C1289 C1290 1.398 . S
C1290 H1278 0.950 . S
C1290 C1289 1.398 . S
C1290 C1291 1.391 . S
C1291 H1279 0.950 . S
C1291 C1287 1.393 . S
C1291 C1290 1.391 . S
H1292 C1300 0.950 . S
H1293 C1305 0.950 . S
H1294 C1302 0.950 . S
H1295 C1304 0.950 . S
H1296 C1306 0.950 . S
H1297 C1308 0.950 . S
H1298 C1310 0.950 . S
H1299 C1311 0.950 . S
C1300 H1292 0.950 . S
C1300 C1301 1.386 . S
C1300 C1302 1.391 . S
C1301 C1300 1.386 . S
C1301 C1305 1.393 . S
C1302 H1294 0.950 . S
C1302 C1300 1.391 . S
C1302 C1303 1.400 . S
C1303 C1302 1.400 . S
C1303 C1304 1.398 . S
C1303 C1309 1.491 . S
C1304 H1295 0.950 . S
C1304 C1303 1.398 . S
C1304 C1305 1.391 . S
C1305 H1293 0.950 . S
C1305 C1301 1.393 . S
C1305 C1304 1.391 . S
C1306 H1296 0.950 . S
C1306 C1307 1.386 . S
C1306 C1308 1.391 . S
C1307 C1306 1.386 . S
C1307 C1311 1.393 . S
C1308 H1297 0.950 . S
C1308 C1306 1.391 . S
C1308 C1309 1.400 . S
C1309 C1303 1.491 . S
C1309 C1308 1.400 . S
C1309 C1310 1.398 . S
C1310 H1298 0.950 . S
C1310 C1309 1.398 . S
C1310 C1311 1.391 . S
C1311 H1299 0.950 . S
C1311 C1307 1.393 . S
C1311 C1310 1.391 . S
H1312 C1320 0.950 . S
H1313 C1325 0.950 . S
H1314 C1322 0.950 . S
H1315 C1324 0.950 . S
H1316 C1326 0.950 . S
H1317 C1328 0.950 . S
H1318 C1330 0.950 . S
H1319 C1331 0.950 . S
C1320 H1312 0.950 . S
C1320 C1321 1.386 . S
C1320 C1322 1.391 . S
C1321 C1320 1.386 . S
C1321 C1325 1.393 . S
C1322 H1314 0.950 . S
C1322 C1320 1.391 . S
C1322 C1323 1.400 . S
C1323 C1322 1.400 . S
C1323 C1324 1.398 . S
C1323 C1329 1.491 . S
C1324 H1315 0.950 . S
C1324 C1323 1.398 . S
C1324 C1325 1.391 . S
C1325 H1313 0.950 . S
C1325 C1321 1.393 . S
C1325 C1324 1.391 . S
C1326 H1316 0.950 . S
C1326 C1327 1.386 . S
C1326 C1328 1.391 . S
C1327 C1326 1.386 . S
C1327 C1331 1.393 . S
C1328 H1317 0.950 . S
C1328 C1326 1.391 . S
C1328 C1329 1.400 . S
C1329 C1323 1.491 . S
C1329 C1328 1.400 . S
C1329 C1330 1.398 . S
C1330 H1318 0.950 . S
C1330 C1329 1.398 . S
C1330 C1331 1.391 . S
C1331 H1319 0.950 . S
C1331 C1327 1.393 . S
C1331 C1330 1.391 . S
H1332 C1340 0.950 . S
H1333 C1345 0.950 . S
H1334 C1342 0.950 . S
H1335 C1344 0.950 . S
H1336 C1346 0.950 . S
H1337 C1348 0.950 . S
H1338 C1350 0.950 . S
H1339 C1351 0.950 . S
C1340 H1332 0.950 . S
C1340 C1341 1.386 . S
C1340 C1342 1.391 . S
C1341 C1340 1.386 . S
C1341 C1345 1.393 . S
C1342 H1334 0.950 . S
C1342 C1340 1.391 . S
C1342 C1343 1.400 . S
C1343 C1342 1.400 . S
C1343 C1344 1.398 . S
C1343 C1349 1.491 . S
C1344 H1335 0.950 . S
C1344 C1343 1.398 . S
C1344 C1345 1.391 . S
C1345 H1333 0.950 . S
C1345 C1341 1.393 . S
C1345 C1344 1.391 . S
C1346 H1336 0.950 . S
C1346 C1347 1.386 . S
C1346 C1348 1.391 . S
C1347 C1346 1.386 . S
C1347 C1351 1.393 . S
C1348 H1337 0.950 . S
C1348 C1346 1.391 . S
C1348 C1349 1.400 . S
C1349 C1343 1.491 . S
C1349 C1348 1.400 . S
C1349 C1350 1.398 . S
C1350 H1338 0.950 . S
C1350 C1349 1.398 . S
C1350 C1351 1.391 . S
C1351 H1339 0.950 . S
C1351 C1347 1.393 . S
C1351 C1350 1.391 . S
H1352 C1360 0.950 . S
H1353 C1365 0.950 . S
H1354 C1362 0.950 . S
H1355 C1364 0.950 . S
H1356 C1366 0.950 . S
H1357 C1368 0.950 . S
H1358 C1370 0.950 . S
H1359 C1371 0.950 . S
C1360 H1352 0.950 . S
C1360 C1361 1.386 . S
C1360 C1362 1.391 . S
C1361 C1360 1.386 . S
C1361 C1365 1.393 . S
C1362 H1354 0.950 . S
C1362 C1360 1.391 . S
C1362 C1363 1.400 . S
C1363 C1362 1.400 . S
C1363 C1364 1.398 . S
C1363 C1369 1.491 . S
C1364 H1355 0.950 . S
C1364 C1363 1.398 . S
C1364 C1365 1.391 . S
C1365 H1353 0.950 . S
C1365 C1361 1.393 . S
C1365 C1364 1.391 . S
C1366 H1356 0.950 . S
C1366 C1367 1.386 . S
C1366 C1368 1.391 . S
C1367 C1366 1.386 . S
C1367 C1371 1.393 . S
C1368 H1357 0.950 . S
C1368 C1366 1.391 . S
C1368 C1369 1.400 . S
C1369 C1363 1.491 . S
C1369 C1368 1.400 . S
C1369 C1370 1.398 . S
C1370 H1358 0.950 . S
C1370 C1369 1.398 . S
C1370 C1371 1.391 . S
C1371 H1359 0.950 . S
C1371 C1367 1.393 . S
C1371 C1370 1.391 . S
H1372 C1380 0.950 . S
H1373 C1385 0.950 . S
H1374 C1382 0.950 . S
H1375 C1384 0.950 . S
H1376 C1386 0.950 . S
H1377 C1388 0.950 . S
H1378 C1390 0.950 . S
H1379 C1391 0.950 . S
C1380 H1372 0.950 . S
C1380 C1381 1.386 . S
C1380 C1382 1.391 . S
C1381 C1380 1.386 . S
C1381 C1385 1.393 . S
C1382 H1374 0.950 . S
C1382 C1380 1.391 . S
C1382 C1383 1.400 . S
C1383 C1382 1.400 . S
C1383 C1384 1.398 . S
C1383 C1389 1.491 . S
C1384 H1375 0.950 . S
C1384 C1383 1.398 . S
C1384 C1385 1.391 . S
C1385 H1373 0.950 . S
C1385 C1381 1.393 . S
C1385 C1384 1.391 . S
C1386 H1376 0.950 . S
C1386 C1387 1.386 . S
C1386 C1388 1.391 . S
C1387 C1386 1.386 . S
C1387 C1391 1.393 . S
C1388 H1377 0.950 . S
C1388 C1386 1.391 . S
C1388 C1389 1.400 . S
C1389 C1383 1.491 . S
C1389 C1388 1.400 . S
C1389 C1390 1.398 . S
C1390 H1378 0.950 . S
C1390 C1389 1.398 . S
C1390 C1391 1.391 . S
C1391 H1379 0.950 . S
C1391 C1387 1.393 . S
C1391 C1390 1.391 . S
C447 C257 0.937 . S
C441 N6 0.913 . S
C467 C262 1.876 . S
C461 C57 1.891 . S
C487 C263 1.327 . S
C481 C61 1.367 . S
C501 N96 0.609 . S
C507 C267 0.499 . S
C521 C136 1.898 . S
C527 C270 1.866 . S
C547 C271 1.323 . S
C541 C160 1.360 . S
C561 N194 0.616 . S
C567 C248 0.497 . S
C581 N224 0.925 . S
C587 C264 0.939 . S
C607 C302 1.802 . S
C601 C10 1.863 . S
C621 N36 0.874 . S
C627 C328 0.880 . S
C647 C280 0.586 . S
C641 N74 0.558 . S
C667 C335 1.282 . S
C661 C100 1.341 . S
C681 C121 1.351 . S
C687 C289 1.301 . S
C707 C331 1.758 . S
C701 C177 1.791 . S
C721 C196 2.203 . S
C727 C295 2.164 . S
C741 C226 1.877 . S
C747 C326 1.833 . S
C761 C27 1.873 . S
C767 C334 1.834 . S
C781 N134 0.843 . S
C787 C321 0.855 . S
C807 C299 0.589 . S
C801 N156 0.554 . S
C827 C327 1.313 . S
C821 C181 1.355 . S
C841 C211 1.867 . S
C847 C294 1.810 . S
C861 C76 1.800 . S
C867 C312 1.746 . S
C887 C303 2.165 . S
C881 C117 2.204 . S
C901 C40 1.351 . S
C907 C296 1.297 . S
C921 N216 0.871 . S
C927 C358 0.889 . S
C941 C147 1.865 . S
C947 C353 1.831 . S
C967 C367 1.295 . S
C961 C151 1.340 . S
C987 C344 0.577 . S
C981 N186 0.574 . S
C1001 C46 1.865 . S
C1007 C360 1.830 . S
C1027 C359 1.280 . S
C1021 C70 1.328 . S
C1041 N104 0.613 . S
C1047 C363 0.511 . S
C1061 N14 0.903 . S
C1067 C366 0.912 . S
C1081 C220 1.860 . S
C1087 C392 1.838 . S
C1107 C408 0.858 . S
C1101 N126 0.868 . S
C1121 N164 0.595 . S
C1127 C390 0.513 . S
C1141 C190 1.378 . S
C1147 C423 1.331 . S
C1167 C399 1.345 . S
C1161 C31 1.367 . S
C1181 C87 1.827 . S
C1187 C417 1.787 . S
C1207 C395 2.182 . S
C1201 C106 2.197 . S
C1227 C430 1.858 . S
C1221 C16 1.895 . S
C1247 C422 1.851 . S
C1241 C237 1.899 . S
C1261 N44 0.838 . S
C1267 C427 0.881 . S
C1281 N66 0.565 . S
C1287 C398 0.533 . S
C1307 C431 1.313 . S
C1301 C91 1.368 . S
C1321 C1 1.852 . S
C1327 C385 1.844 . S
C1341 C166 1.817 . S
C1347 C424 1.769 . S
C1367 C376 2.169 . S
C1361 C207 2.209 . S
C1387 C391 1.351 . S
C1381 C130 1.360 . S
