# Generated by pormake.
# Topology gar, (4,6)-cn, num edge types: 1
# Building blocks:
#     Node 0, Type 0, BuildingBlock: AZAVOO_clean_sbu_0, # of connection points: 4
#     Node 1, Type 0, BuildingBlock: AZAVOO_clean_sbu_0, # of connection points: 4
#     Node 2, Type 0, BuildingBlock: AZAVOO_clean_sbu_0, # of connection points: 4
#     Node 3, Type 0, BuildingBlock: AZAVOO_clean_sbu_0, # of connection points: 4
#     Node 4, Type 0, BuildingBlock: AZAVOO_clean_sbu_0, # of connection points: 4
#     Node 5, Type 0, BuildingBlock: AZAVOO_clean_sbu_0, # of connection points: 4
#     Node 6, Type 0, BuildingBlock: AZAVOO_clean_sbu_0, # of connection points: 4
#     Node 7, Type 0, BuildingBlock: AZAVOO_clean_sbu_0, # of connection points: 4
#     Node 8, Type 0, BuildingBlock: AZAVOO_clean_sbu_0, # of connection points: 4
#     Node 9, Type 0, BuildingBlock: AZAVOO_clean_sbu_0, # of connection points: 4
#     Node 10, Type 0, BuildingBlock: AZAVOO_clean_sbu_0, # of connection points: 4
#     Node 11, Type 0, BuildingBlock: AZAVOO_clean_sbu_0, # of connection points: 4
#     Node 12, Type 0, BuildingBlock: AZAVOO_clean_sbu_0, # of connection points: 4
#     Node 13, Type 0, BuildingBlock: AZAVOO_clean_sbu_0, # of connection points: 4
#     Node 14, Type 0, BuildingBlock: AZAVOO_clean_sbu_0, # of connection points: 4
#     Node 15, Type 0, BuildingBlock: AZAVOO_clean_sbu_0, # of connection points: 4
#     Node 16, Type 0, BuildingBlock: AZAVOO_clean_sbu_0, # of connection points: 4
#     Node 17, Type 0, BuildingBlock: AZAVOO_clean_sbu_0, # of connection points: 4
#     Node 18, Type 0, BuildingBlock: AZAVOO_clean_sbu_0, # of connection points: 4
#     Node 19, Type 0, BuildingBlock: AZAVOO_clean_sbu_0, # of connection points: 4
#     Node 20, Type 0, BuildingBlock: AZAVOO_clean_sbu_0, # of connection points: 4
#     Node 21, Type 0, BuildingBlock: AZAVOO_clean_sbu_0, # of connection points: 4
#     Node 22, Type 0, BuildingBlock: AZAVOO_clean_sbu_0, # of connection points: 4
#     Node 23, Type 0, BuildingBlock: AZAVOO_clean_sbu_0, # of connection points: 4
#     Node 24, Type 1, BuildingBlock: KUMBOL_clean_sbu_0, # of connection points: 6
#     Node 25, Type 1, BuildingBlock: KUMBOL_clean_sbu_0, # of connection points: 6
#     Node 26, Type 1, BuildingBlock: KUMBOL_clean_sbu_0, # of connection points: 6
#     Node 27, Type 1, BuildingBlock: KUMBOL_clean_sbu_0, # of connection points: 6
#     Node 28, Type 1, BuildingBlock: KUMBOL_clean_sbu_0, # of connection points: 6
#     Node 29, Type 1, BuildingBlock: KUMBOL_clean_sbu_0, # of connection points: 6
#     Node 30, Type 1, BuildingBlock: KUMBOL_clean_sbu_0, # of connection points: 6
#     Node 31, Type 1, BuildingBlock: KUMBOL_clean_sbu_0, # of connection points: 6
#     Node 32, Type 1, BuildingBlock: KUMBOL_clean_sbu_0, # of connection points: 6
#     Node 33, Type 1, BuildingBlock: KUMBOL_clean_sbu_0, # of connection points: 6
#     Node 34, Type 1, BuildingBlock: KUMBOL_clean_sbu_0, # of connection points: 6
#     Node 35, Type 1, BuildingBlock: KUMBOL_clean_sbu_0, # of connection points: 6
#     Node 36, Type 1, BuildingBlock: KUMBOL_clean_sbu_0, # of connection points: 6
#     Node 37, Type 1, BuildingBlock: KUMBOL_clean_sbu_0, # of connection points: 6
#     Node 38, Type 1, BuildingBlock: KUMBOL_clean_sbu_0, # of connection points: 6
#     Node 39, Type 1, BuildingBlock: KUMBOL_clean_sbu_0, # of connection points: 6
#     Edge 40, Type (0, 1), BuildingBlock: MIFKUJ_clean_linker_0, # of connection points: 2
#     Edge 41, Type (0, 1), BuildingBlock: MIFKUJ_clean_linker_0, # of connection points: 2
#     Edge 42, Type (0, 1), BuildingBlock: MIFKUJ_clean_linker_0, # of connection points: 2
#     Edge 43, Type (0, 1), BuildingBlock: MIFKUJ_clean_linker_0, # of connection points: 2
#     Edge 44, Type (0, 1), BuildingBlock: MIFKUJ_clean_linker_0, # of connection points: 2
#     Edge 45, Type (0, 1), BuildingBlock: MIFKUJ_clean_linker_0, # of connection points: 2
#     Edge 46, Type (0, 1), BuildingBlock: MIFKUJ_clean_linker_0, # of connection points: 2
#     Edge 47, Type (0, 1), BuildingBlock: MIFKUJ_clean_linker_0, # of connection points: 2
#     Edge 48, Type (0, 1), BuildingBlock: MIFKUJ_clean_linker_0, # of connection points: 2
#     Edge 49, Type (0, 1), BuildingBlock: MIFKUJ_clean_linker_0, # of connection points: 2
#     Edge 50, Type (0, 1), BuildingBlock: MIFKUJ_clean_linker_0, # of connection points: 2
#     Edge 51, Type (0, 1), BuildingBlock: MIFKUJ_clean_linker_0, # of connection points: 2
#     Edge 52, Type (0, 1), BuildingBlock: MIFKUJ_clean_linker_0, # of connection points: 2
#     Edge 53, Type (0, 1), BuildingBlock: MIFKUJ_clean_linker_0, # of connection points: 2
#     Edge 54, Type (0, 1), BuildingBlock: MIFKUJ_clean_linker_0, # of connection points: 2
#     Edge 55, Type (0, 1), BuildingBlock: MIFKUJ_clean_linker_0, # of connection points: 2
#     Edge 56, Type (0, 1), BuildingBlock: MIFKUJ_clean_linker_0, # of connection points: 2
#     Edge 57, Type (0, 1), BuildingBlock: MIFKUJ_clean_linker_0, # of connection points: 2
#     Edge 58, Type (0, 1), BuildingBlock: MIFKUJ_clean_linker_0, # of connection points: 2
#     Edge 59, Type (0, 1), BuildingBlock: MIFKUJ_clean_linker_0, # of connection points: 2
#     Edge 60, Type (0, 1), BuildingBlock: MIFKUJ_clean_linker_0, # of connection points: 2
#     Edge 61, Type (0, 1), BuildingBlock: MIFKUJ_clean_linker_0, # of connection points: 2
#     Edge 62, Type (0, 1), BuildingBlock: MIFKUJ_clean_linker_0, # of connection points: 2
#     Edge 63, Type (0, 1), BuildingBlock: MIFKUJ_clean_linker_0, # of connection points: 2
#     Edge 64, Type (0, 1), BuildingBlock: MIFKUJ_clean_linker_0, # of connection points: 2
#     Edge 65, Type (0, 1), BuildingBlock: MIFKUJ_clean_linker_0, # of connection points: 2
#     Edge 66, Type (0, 1), BuildingBlock: MIFKUJ_clean_linker_0, # of connection points: 2
#     Edge 67, Type (0, 1), BuildingBlock: MIFKUJ_clean_linker_0, # of connection points: 2
#     Edge 68, Type (0, 1), BuildingBlock: MIFKUJ_clean_linker_0, # of connection points: 2
#     Edge 69, Type (0, 1), BuildingBlock: MIFKUJ_clean_linker_0, # of connection points: 2
#     Edge 70, Type (0, 1), BuildingBlock: MIFKUJ_clean_linker_0, # of connection points: 2
#     Edge 71, Type (0, 1), BuildingBlock: MIFKUJ_clean_linker_0, # of connection points: 2
#     Edge 72, Type (0, 1), BuildingBlock: MIFKUJ_clean_linker_0, # of connection points: 2
#     Edge 73, Type (0, 1), BuildingBlock: MIFKUJ_clean_linker_0, # of connection points: 2
#     Edge 74, Type (0, 1), BuildingBlock: MIFKUJ_clean_linker_0, # of connection points: 2
#     Edge 75, Type (0, 1), BuildingBlock: MIFKUJ_clean_linker_0, # of connection points: 2
#     Edge 76, Type (0, 1), BuildingBlock: MIFKUJ_clean_linker_0, # of connection points: 2
#     Edge 77, Type (0, 1), BuildingBlock: MIFKUJ_clean_linker_0, # of connection points: 2
#     Edge 78, Type (0, 1), BuildingBlock: MIFKUJ_clean_linker_0, # of connection points: 2
#     Edge 79, Type (0, 1), BuildingBlock: MIFKUJ_clean_linker_0, # of connection points: 2
#     Edge 80, Type (0, 1), BuildingBlock: MIFKUJ_clean_linker_0, # of connection points: 2
#     Edge 81, Type (0, 1), BuildingBlock: MIFKUJ_clean_linker_0, # of connection points: 2
#     Edge 82, Type (0, 1), BuildingBlock: MIFKUJ_clean_linker_0, # of connection points: 2
#     Edge 83, Type (0, 1), BuildingBlock: MIFKUJ_clean_linker_0, # of connection points: 2
#     Edge 84, Type (0, 1), BuildingBlock: MIFKUJ_clean_linker_0, # of connection points: 2
#     Edge 85, Type (0, 1), BuildingBlock: MIFKUJ_clean_linker_0, # of connection points: 2
#     Edge 86, Type (0, 1), BuildingBlock: MIFKUJ_clean_linker_0, # of connection points: 2
#     Edge 87, Type (0, 1), BuildingBlock: MIFKUJ_clean_linker_0, # of connection points: 2
#     Edge 88, Type (0, 1), BuildingBlock: MIFKUJ_clean_linker_0, # of connection points: 2
#     Edge 89, Type (0, 1), BuildingBlock: MIFKUJ_clean_linker_0, # of connection points: 2
#     Edge 90, Type (0, 1), BuildingBlock: MIFKUJ_clean_linker_0, # of connection points: 2
#     Edge 91, Type (0, 1), BuildingBlock: MIFKUJ_clean_linker_0, # of connection points: 2
#     Edge 92, Type (0, 1), BuildingBlock: MIFKUJ_clean_linker_0, # of connection points: 2
#     Edge 93, Type (0, 1), BuildingBlock: MIFKUJ_clean_linker_0, # of connection points: 2
#     Edge 94, Type (0, 1), BuildingBlock: MIFKUJ_clean_linker_0, # of connection points: 2
#     Edge 95, Type (0, 1), BuildingBlock: MIFKUJ_clean_linker_0, # of connection points: 2
#     Edge 96, Type (0, 1), BuildingBlock: MIFKUJ_clean_linker_0, # of connection points: 2
#     Edge 97, Type (0, 1), BuildingBlock: MIFKUJ_clean_linker_0, # of connection points: 2
#     Edge 98, Type (0, 1), BuildingBlock: MIFKUJ_clean_linker_0, # of connection points: 2
#     Edge 99, Type (0, 1), BuildingBlock: MIFKUJ_clean_linker_0, # of connection points: 2
#     Edge 100, Type (0, 1), BuildingBlock: MIFKUJ_clean_linker_0, # of connection points: 2
#     Edge 101, Type (0, 1), BuildingBlock: MIFKUJ_clean_linker_0, # of connection points: 2
#     Edge 102, Type (0, 1), BuildingBlock: MIFKUJ_clean_linker_0, # of connection points: 2
#     Edge 103, Type (0, 1), BuildingBlock: MIFKUJ_clean_linker_0, # of connection points: 2
#     Edge 104, Type (0, 1), BuildingBlock: MIFKUJ_clean_linker_0, # of connection points: 2
#     Edge 105, Type (0, 1), BuildingBlock: MIFKUJ_clean_linker_0, # of connection points: 2
#     Edge 106, Type (0, 1), BuildingBlock: MIFKUJ_clean_linker_0, # of connection points: 2
#     Edge 107, Type (0, 1), BuildingBlock: MIFKUJ_clean_linker_0, # of connection points: 2
#     Edge 108, Type (0, 1), BuildingBlock: MIFKUJ_clean_linker_0, # of connection points: 2
#     Edge 109, Type (0, 1), BuildingBlock: MIFKUJ_clean_linker_0, # of connection points: 2
#     Edge 110, Type (0, 1), BuildingBlock: MIFKUJ_clean_linker_0, # of connection points: 2
#     Edge 111, Type (0, 1), BuildingBlock: MIFKUJ_clean_linker_0, # of connection points: 2
#     Edge 112, Type (0, 1), BuildingBlock: MIFKUJ_clean_linker_0, # of connection points: 2
#     Edge 113, Type (0, 1), BuildingBlock: MIFKUJ_clean_linker_0, # of connection points: 2
#     Edge 114, Type (0, 1), BuildingBlock: MIFKUJ_clean_linker_0, # of connection points: 2
#     Edge 115, Type (0, 1), BuildingBlock: MIFKUJ_clean_linker_0, # of connection points: 2
#     Edge 116, Type (0, 1), BuildingBlock: MIFKUJ_clean_linker_0, # of connection points: 2
#     Edge 117, Type (0, 1), BuildingBlock: MIFKUJ_clean_linker_0, # of connection points: 2
#     Edge 118, Type (0, 1), BuildingBlock: MIFKUJ_clean_linker_0, # of connection points: 2
#     Edge 119, Type (0, 1), BuildingBlock: MIFKUJ_clean_linker_0, # of connection points: 2
#     Edge 120, Type (0, 1), BuildingBlock: MIFKUJ_clean_linker_0, # of connection points: 2
#     Edge 121, Type (0, 1), BuildingBlock: MIFKUJ_clean_linker_0, # of connection points: 2
#     Edge 122, Type (0, 1), BuildingBlock: MIFKUJ_clean_linker_0, # of connection points: 2
#     Edge 123, Type (0, 1), BuildingBlock: MIFKUJ_clean_linker_0, # of connection points: 2
#     Edge 124, Type (0, 1), BuildingBlock: MIFKUJ_clean_linker_0, # of connection points: 2
#     Edge 125, Type (0, 1), BuildingBlock: MIFKUJ_clean_linker_0, # of connection points: 2
#     Edge 126, Type (0, 1), BuildingBlock: MIFKUJ_clean_linker_0, # of connection points: 2
#     Edge 127, Type (0, 1), BuildingBlock: MIFKUJ_clean_linker_0, # of connection points: 2
#     Edge 128, Type (0, 1), BuildingBlock: MIFKUJ_clean_linker_0, # of connection points: 2
#     Edge 129, Type (0, 1), BuildingBlock: MIFKUJ_clean_linker_0, # of connection points: 2
#     Edge 130, Type (0, 1), BuildingBlock: MIFKUJ_clean_linker_0, # of connection points: 2
#     Edge 131, Type (0, 1), BuildingBlock: MIFKUJ_clean_linker_0, # of connection points: 2
#     Edge 132, Type (0, 1), BuildingBlock: MIFKUJ_clean_linker_0, # of connection points: 2
#     Edge 133, Type (0, 1), BuildingBlock: MIFKUJ_clean_linker_0, # of connection points: 2
#     Edge 134, Type (0, 1), BuildingBlock: MIFKUJ_clean_linker_0, # of connection points: 2
#     Edge 135, Type (0, 1), BuildingBlock: MIFKUJ_clean_linker_0, # of connection points: 2
# Relax obj value: 0.135
# Max RMSD: 0.308
# Mean RMSD: 0.189
data_MOF--net-gar--node1-AZAVOO_clean_sbu_0--node2-KUMBOL_clean_sbu_0--edge1-MIFKUJ_clean_linker_0
_symmetry_space_group_name_H-M    P1
_symmetry_Int_Tables_number       1
_symmetry_cell_setting            triclinic
loop_
_symmetry_equiv_pos_as_xyz
'x, y, z'
_cell_length_a     77.825554
_cell_length_b     71.15561
_cell_length_c     72.078318
_cell_angle_alpha  102.54103
_cell_angle_beta   92.58991
_cell_angle_gamma 103.31978
loop_
_atom_site_label
_atom_site_type_symbol
_atom_site_fract_x
_atom_site_fract_y
_atom_site_fract_z
_atom_type_partial_charge
Mg0 Mg 0.08667 0.29614 0.36222 0.0
O1 O 0.08969 0.32523 0.3839 0.0
O2 O 0.06573 0.3238 0.40005 0.0
Mg3 Mg 0.04718 0.29325 0.3886 0.0
C4 C 0.08101 0.33287 0.39673 0.0
C5 C 0.1192 0.32329 0.35208 0.0
O6 O 0.10661 0.33182 0.34832 0.0
O7 O 0.09355 0.28223 0.38624 0.0
O8 O 0.06877 0.28179 0.40099 0.0
O9 O 0.0721 0.30765 0.34172 0.0
O10 O 0.05936 0.29041 0.36172 0.0
C11 C 0.08419 0.27864 0.39975 0.0
C12 C 0.05807 0.30088 0.34953 0.0
O13 O 0.11533 0.30742 0.35803 0.0
Mg14 Mg 0.00316 0.78313 0.67222 0.0
O15 O 0.99825 0.75445 0.64951 0.0
O16 O 0.97036 0.74411 0.63586 0.0
Mg17 Mg 0.9579 0.76944 0.64834 0.0
C18 C 0.98604 0.74181 0.63794 0.0
C19 C 0.0344 0.76736 0.6777 0.0
O20 O 0.0204 0.75304 0.67789 0.0
O21 O 0.00553 0.79969 0.64912 0.0
O22 O 0.97785 0.79029 0.63443 0.0
O23 O 0.99374 0.7667 0.6936 0.0
O24 O 0.9763 0.77677 0.67453 0.0
C25 C 0.99408 0.79999 0.63607 0.0
C26 C 0.97801 0.76658 0.68698 0.0
O27 O 0.03225 0.78376 0.67497 0.0
Mg28 Mg 0.58169 0.79298 0.86434 0.0
O29 O 0.58418 0.82215 0.88608 0.0
O30 O 0.55925 0.81951 0.90074 0.0
Mg31 Mg 0.54136 0.78863 0.8892 0.0
C32 C 0.57454 0.82933 0.89819 0.0
C33 C 0.6157 0.81659 0.85238 0.0
O34 O 0.60389 0.82463 0.84575 0.0
O35 O 0.58801 0.77905 0.88851 0.0
O36 O 0.56285 0.77787 0.90237 0.0
O37 O 0.56891 0.80509 0.84313 0.0
O38 O 0.5542 0.78893 0.86282 0.0
C39 C 0.57844 0.77518 0.90172 0.0
C40 C 0.55444 0.80015 0.85092 0.0
O41 O 0.61079 0.80273 0.86095 0.0
Mg42 Mg 0.50431 0.2758 0.16837 0.0
O43 O 0.49553 0.2457 0.14804 0.0
O44 O 0.46698 0.23982 0.13683 0.0
Mg45 Mg 0.45774 0.26726 0.15079 0.0
C46 C 0.4816 0.23474 0.13779 0.0
C47 C 0.54004 0.27835 0.18421 0.0
O48 O 0.53168 0.28566 0.19842 0.0
O49 O 0.50526 0.29006 0.14376 0.0
O50 O 0.47662 0.28578 0.13399 0.0
O51 O 0.49629 0.26255 0.19239 0.0
O52 O 0.47877 0.27379 0.17441 0.0
C53 C 0.49314 0.2926 0.1328 0.0
C54 C 0.48075 0.26475 0.18774 0.0
O55 O 0.53238 0.27367 0.16741 0.0
Mg56 Mg 0.08178 0.82325 0.12643 0.0
O57 O 0.07686 0.79167 0.10656 0.0
O58 O 0.05081 0.78436 0.0889 0.0
Mg59 Mg 0.03689 0.80933 0.09938 0.0
C60 C 0.06514 0.77997 0.09357 0.0
C61 C 0.12204 0.83389 0.14818 0.0
O62 O 0.11692 0.84911 0.15802 0.0
O63 O 0.08578 0.84054 0.10126 0.0
O64 O 0.05735 0.83212 0.08931 0.0
O65 O 0.06715 0.811 0.14974 0.0
O66 O 0.05367 0.81945 0.12674 0.0
C67 C 0.07325 0.84227 0.08986 0.0
C68 C 0.05252 0.81261 0.14177 0.0
O69 O 0.11162 0.82216 0.134 0.0
Mg70 Mg 0.51017 0.7573 0.41388 0.0
O71 O 0.5144 0.7883 0.43461 0.0
O72 O 0.49149 0.78644 0.45235 0.0
Mg73 Mg 0.47201 0.75571 0.44192 0.0
C74 C 0.50602 0.79617 0.44784 0.0
C75 C 0.54605 0.77512 0.39726 0.0
O76 O 0.5356 0.78492 0.39086 0.0
O77 O 0.51617 0.74215 0.43768 0.0
O78 O 0.49149 0.73893 0.45254 0.0
O79 O 0.49546 0.76717 0.39161 0.0
O80 O 0.48225 0.75349 0.41351 0.0
C81 C 0.50677 0.73552 0.45005 0.0
C82 C 0.48102 0.7616 0.39931 0.0
O83 O 0.53982 0.7633 0.40765 0.0
Mg84 Mg 0.58172 0.32292 0.62686 0.0
O85 O 0.577 0.29276 0.60443 0.0
O86 O 0.55044 0.28752 0.5885 0.0
Mg87 Mg 0.538 0.31373 0.59936 0.0
C88 C 0.5645 0.28194 0.59181 0.0
C89 C 0.61545 0.32228 0.65223 0.0
O90 O 0.60316 0.32384 0.66399 0.0
O91 O 0.58722 0.34291 0.60435 0.0
O92 O 0.5595 0.3372 0.59058 0.0
O93 O 0.56543 0.30746 0.6475 0.0
O94 O 0.55397 0.32097 0.62702 0.0
C95 C 0.57588 0.34635 0.59273 0.0
C96 C 0.55166 0.31177 0.64046 0.0
O97 O 0.61142 0.32188 0.63469 0.0
Mg98 Mg 0.01292 0.26064 0.9149 0.0
O99 O 0.01629 0.29054 0.93698 0.0
O100 O 0.99196 0.28784 0.95246 0.0
Mg101 Mg 0.97347 0.25674 0.94074 0.0
C102 C 0.007 0.2979 0.94946 0.0
C103 C 0.04839 0.25665 0.8979 0.0
O104 O 0.03756 0.23936 0.88991 0.0
O105 O 0.01842 0.24427 0.93788 0.0
O106 O 0.99317 0.24031 0.95172 0.0
O107 O 0.99925 0.27189 0.8933 0.0
O108 O 0.98473 0.25573 0.91291 0.0
C109 C 0.0086 0.23716 0.94972 0.0
C110 C 0.98424 0.26505 0.89945 0.0
O111 O 0.04253 0.26912 0.9098 0.0
Mg112 Mg 0.42039 0.05414 0.30584 0.0
O113 O 0.39583 0.02916 0.29682 0.0
O114 O 0.38195 0.02492 0.32261 0.0
Mg115 Mg 0.39784 0.04813 0.34811 0.0
C116 C 0.38313 0.02027 0.30467 0.0
C117 C 0.43669 0.05019 0.26978 0.0
O118 O 0.44859 0.04839 0.28233 0.0
O119 O 0.40425 0.07586 0.30925 0.0
O120 O 0.38991 0.07187 0.33494 0.0
O121 O 0.4348 0.03251 0.31003 0.0
O122 O 0.42186 0.04915 0.33274 0.0
C123 C 0.39344 0.08024 0.32114 0.0
C124 C 0.43072 0.03597 0.32742 0.0
O125 O 0.42248 0.0543 0.27515 0.0
Mg126 Mg 0.29423 0.18349 0.50127 0.0
O127 O 0.29803 0.20527 0.53085 0.0
O128 O 0.32606 0.22357 0.53541 0.0
Mg129 Mg 0.34011 0.21455 0.50901 0.0
C130 C 0.31071 0.21881 0.54109 0.0
C131 C 0.25433 0.16167 0.48921 0.0
O132 O 0.26151 0.15553 0.47359 0.0
O133 O 0.29296 0.20792 0.4858 0.0
O134 O 0.32156 0.22467 0.48982 0.0
O135 O 0.30452 0.16133 0.51317 0.0
O136 O 0.32147 0.18515 0.50227 0.0
C137 C 0.30555 0.22163 0.4827 0.0
C138 C 0.32017 0.17021 0.50989 0.0
O139 O 0.26414 0.17434 0.5031 0.0
Mg140 Mg 0.15854 0.00339 0.76584 0.0
O141 O 0.17878 0.03561 0.76964 0.0
O142 O 0.19555 0.04195 0.79722 0.0
Mg143 Mg 0.18701 0.01546 0.81209 0.0
C144 C 0.19118 0.04723 0.78215 0.0
C145 C 0.134 0.00842 0.72892 0.0
O146 O 0.12471 0.01264 0.74334 0.0
O147 O 0.18003 0.98205 0.76132 0.0
O148 O 0.19544 0.99037 0.79013 0.0
O149 O 0.1373 0.01424 0.78494 0.0
O150 O 0.15954 0.00646 0.79746 0.0
C151 C 0.19194 0.97939 0.77312 0.0
C152 C 0.14513 0.0121 0.80018 0.0
O153 O 0.14861 0.00358 0.7326 0.0
Mg154 Mg 0.31921 0.95117 0.0326 0.0
O155 O 0.32365 0.92925 0.00606 0.0
O156 O 0.35128 0.92566 0.00998 0.0
Mg157 Mg 0.36317 0.94267 0.03995 0.0
C158 C 0.33642 0.92194 0.99998 0.0
C159 C 0.2879 0.96301 0.02684 0.0
O160 O 0.30082 0.97765 0.03661 0.0
O161 O 0.31414 0.92697 0.04841 0.0
O162 O 0.34147 0.92204 0.05166 0.0
O163 O 0.33171 0.97577 0.0197 0.0
O164 O 0.34595 0.96286 0.03922 0.0
C165 C 0.32494 0.91781 0.05387 0.0
C166 C 0.34641 0.97488 0.02816 0.0
O167 O 0.29043 0.9457 0.0224 0.0
Mg168 Mg 0.3011 0.39845 0.04275 0.0
O169 O 0.29859 0.37663 0.01335 0.0
O170 O 0.32046 0.36114 0.01376 0.0
Mg171 Mg 0.33812 0.37474 0.0422 0.0
C172 C 0.30684 0.36397 0.00532 0.0
C173 C 0.27165 0.41982 0.04308 0.0
O174 O 0.28583 0.43323 0.05203 0.0
O175 O 0.29188 0.374 0.05916 0.0
O176 O 0.31648 0.36298 0.06019 0.0
O177 O 0.31887 0.42209 0.03124 0.0
O178 O 0.32858 0.40202 0.04624 0.0
C179 C 0.301 0.36329 0.06522 0.0
C180 C 0.33207 0.41631 0.03769 0.0
O181 O 0.27297 0.40211 0.03686 0.0
Mg182 Mg 0.76977 0.12384 0.01118 0.0
O183 O 0.77443 0.14431 0.04064 0.0
O184 O 0.80242 0.16257 0.04385 0.0
Mg185 Mg 0.81687 0.15182 0.01846 0.0
C186 C 0.78719 0.15828 0.04998 0.0
C187 C 0.7486 0.09867 0.97477 0.0
O188 O 0.74402 0.08951 0.95674 0.0
O189 O 0.77042 0.15018 0.99832 0.0
O190 O 0.79954 0.16413 1.00069 0.0
O191 O 0.77968 0.1 0.02229 0.0
O192 O 0.79669 0.12386 0.0123 0.0
C193 C 0.78352 0.16306 0.99497 0.0
C194 C 0.79535 0.10913 0.01987 0.0
O195 O 0.76485 0.10444 0.98118 0.0
Mg196 Mg 0.17048 0.52241 0.24114 0.0
O197 O 0.1898 0.55243 0.2457 0.0
O198 O 0.20714 0.55868 0.27302 0.0
Mg199 Mg 0.19862 0.53196 0.28569 0.0
C200 C 0.20238 0.56343 0.25788 0.0
C201 C 0.14852 0.5276 0.21025 0.0
O202 O 0.13753 0.52274 0.22268 0.0
O203 O 0.19204 0.50798 0.23152 0.0
O204 O 0.20877 0.51537 0.25944 0.0
O205 O 0.15204 0.53665 0.25734 0.0
O206 O 0.17199 0.5243 0.27031 0.0
C207 C 0.20592 0.50801 0.24146 0.0
C208 C 0.15976 0.53389 0.27238 0.0
O209 O 0.16421 0.5257 0.21204 0.0
Mg210 Mg 0.80156 0.89966 0.5435 0.0
O211 O 0.7983 0.87818 0.51394 0.0
O212 O 0.8193 0.86135 0.51366 0.0
Mg213 Mg 0.83722 0.87381 0.54196 0.0
C214 C 0.80593 0.86505 0.5056 0.0
C215 C 0.77355 0.92229 0.53986 0.0
O216 O 0.78872 0.93577 0.54403 0.0
O217 O 0.79168 0.87517 0.55919 0.0
O218 O 0.81527 0.86229 0.55989 0.0
O219 O 0.81952 0.92295 0.53216 0.0
O220 O 0.8289 0.90194 0.54607 0.0
C221 C 0.79993 0.86352 0.56485 0.0
C222 C 0.83259 0.91639 0.53769 0.0
O223 O 0.77368 0.9042 0.53837 0.0
Mg224 Mg 0.93712 0.07785 0.27879 0.0
O225 O 0.91563 0.04627 0.27445 0.0
O226 O 0.90269 0.04868 0.30164 0.0
Mg227 Mg 0.91322 0.07992 0.32198 0.0
C228 C 0.9048 0.03848 0.28532 0.0
C229 C 0.95883 0.08071 0.24016 0.0
O230 O 0.96994 0.09397 0.2536 0.0
O231 O 0.91602 0.09827 0.27502 0.0
O232 O 0.90419 0.09958 0.30268 0.0
O233 O 0.95729 0.06571 0.29505 0.0
O234 O 0.93928 0.08104 0.31034 0.0
C235 C 0.90578 0.10524 0.28697 0.0
C236 C 0.95161 0.07176 0.31131 0.0
O237 O 0.94406 0.07161 0.2452 0.0
Mg238 Mg 0.28115 0.62776 0.50676 0.0
O239 O 0.27064 0.64449 0.53385 0.0
O240 O 0.29528 0.66818 0.54728 0.0
Mg241 Mg 0.32 0.66539 0.53246 0.0
C242 C 0.27877 0.65994 0.54674 0.0
C243 C 0.23905 0.61035 0.48828 0.0
O244 O 0.22847 0.6027 0.47238 0.0
O245 O 0.28274 0.65403 0.49482 0.0
O246 O 0.30772 0.6763 0.50841 0.0
O247 O 0.28779 0.60491 0.52048 0.0
O248 O 0.30517 0.63454 0.52193 0.0
C249 C 0.29381 0.67059 0.49658 0.0
C250 C 0.30303 0.61752 0.52599 0.0
O251 O 0.25562 0.61368 0.48743 0.0
Mg252 Mg 0.43706 0.57752 0.77819 0.0
O253 O 0.41635 0.5458 0.7741 0.0
O254 O 0.40064 0.54903 0.79937 0.0
Mg255 Mg 0.41225 0.57956 0.82083 0.0
C256 C 0.40398 0.53854 0.78375 0.0
C257 C 0.46035 0.57574 0.74053 0.0
O258 O 0.47294 0.5826 0.7548 0.0
O259 O 0.41507 0.59651 0.77381 0.0
O260 O 0.40407 0.60001 0.80209 0.0
O261 O 0.45814 0.5671 0.79498 0.0
O262 O 0.43827 0.5801 0.80931 0.0
C263 C 0.40542 0.60447 0.78584 0.0
C264 C 0.45148 0.57221 0.81083 0.0
O265 O 0.44416 0.57194 0.74477 0.0
Mg266 Mg 0.66965 0.02264 0.74402 0.0
O267 O 0.68817 0.05333 0.75215 0.0
O268 O 0.70419 0.05836 0.78014 0.0
Mg269 Mg 0.69751 0.02852 0.78798 0.0
C270 C 0.69951 0.06427 0.7657 0.0
C271 C 0.66076 0.01749 0.70051 0.0
O272 O 0.66154 0.99902 0.69927 0.0
O273 O 0.69213 0.01051 0.73288 0.0
O274 O 0.7089 0.01616 0.7605 0.0
O275 O 0.65043 0.0338 0.76144 0.0
O276 O 0.67116 0.02066 0.77206 0.0
C277 C 0.70632 0.01054 0.74231 0.0
C278 C 0.65883 0.02992 0.77551 0.0
O279 O 0.66344 0.0296 0.71661 0.0
Mg280 Mg 0.79437 0.68512 1.00031 0.0
O281 O 0.79767 0.70586 0.03046 0.0
O282 O 0.82595 0.72338 0.03598 0.0
Mg283 Mg 0.84097 0.71456 0.01038 0.0
C284 C 0.81038 0.71891 0.04121 0.0
C285 C 0.75744 0.65796 0.99955 0.0
O286 O 0.76834 0.64622 0.99816 0.0
O287 O 0.79463 0.71087 0.98584 0.0
O288 O 0.82367 0.72554 0.99103 0.0
O289 O 0.80367 0.66184 0.01175 0.0
O290 O 0.82157 0.68588 0.0022 0.0
C291 C 0.80813 0.72393 0.98335 0.0
C292 C 0.8196 0.67048 0.00915 0.0
O293 O 0.76386 0.67636 1.00052 0.0
Mg294 Mg 0.92008 0.56446 0.79241 0.0
O295 O 0.90694 0.53205 0.7887 0.0
O296 O 0.90265 0.52619 0.81767 0.0
Mg297 Mg 0.91298 0.55529 0.84015 0.0
C298 C 0.90155 0.52046 0.79952 0.0
C299 C 0.91059 0.55075 0.74601 0.0
O300 O 0.90081 0.55137 0.73092 0.0
O301 O 0.89459 0.57107 0.79998 0.0
O302 O 0.89054 0.56755 0.82971 0.0
O303 O 0.94707 0.55775 0.79692 0.0
O304 O 0.93027 0.56624 0.81942 0.0
C305 C 0.88557 0.57164 0.81427 0.0
C306 C 0.94425 0.56075 0.81475 0.0
O307 O 0.90955 0.56203 0.76191 0.0
Mg308 Mg 0.8165 0.44868 0.53659 0.0
O309 O 0.82165 0.42945 0.50864 0.0
O310 O 0.84871 0.42435 0.51236 0.0
Mg311 Mg 0.86041 0.43996 0.54284 0.0
C312 C 0.83415 0.42187 0.5022 0.0
C313 C 0.78529 0.4601 0.53062 0.0
O314 O 0.79757 0.47495 0.54111 0.0
O315 O 0.81127 0.42232 0.54895 0.0
O316 O 0.8387 0.41802 0.553 0.0
O317 O 0.82891 0.47564 0.52713 0.0
O318 O 0.84283 0.46012 0.54436 0.0
C319 C 0.822 0.41303 0.55425 0.0
C320 C 0.84338 0.47398 0.5354 0.0
O321 O 0.78825 0.44306 0.52589 0.0
Mg322 Mg 0.658 0.50374 0.26523 0.0
O323 O 0.67773 0.53599 0.26973 0.0
O324 O 0.69572 0.54154 0.29635 0.0
Mg325 Mg 0.68585 0.51576 0.31192 0.0
C326 C 0.69082 0.54704 0.28163 0.0
C327 C 0.63217 0.50374 0.22625 0.0
O328 O 0.62022 0.50032 0.23821 0.0
O329 O 0.68035 0.48299 0.26057 0.0
O330 O 0.69321 0.48998 0.29048 0.0
O331 O 0.63661 0.51468 0.28413 0.0
O332 O 0.65861 0.50664 0.2968 0.0
C333 C 0.69092 0.47952 0.27329 0.0
C334 C 0.64424 0.51237 0.29942 0.0
O335 O 0.64849 0.50501 0.23206 0.0
Gd336 Gd 0.0658 0.05233 0.02936 0.0
Gd337 Gd 0.02308 0.0276 0.00368 0.0
C338 C 0.99129 0.96462 0.00331 0.0
C339 C 0.98595 0.94918 0.96939 0.0
C340 C 0.00365 0.98323 0.98059 0.0
C341 C 0.00154 0.98217 0.99927 0.0
C342 C 0.99565 0.96682 0.96541 0.0
C343 C 0.98372 0.9481 0.98831 0.0
C344 C 0.98872 0.96422 0.02228 0.0
C345 C 0.99645 0.98091 0.03673 0.0
N346 N 0.00915 0.99839 0.01347 0.0
C347 C 0.00674 0.99782 0.03212 0.0
H348 H 0.0133 0.00975 0.04388 0.0
C349 C 0.01308 0.00305 0.95886 0.0
N350 N 0.01268 1.00062 0.97717 0.0
C351 C 0.00571 0.98714 0.94336 0.0
C352 C 0.9971 0.96886 0.94664 0.0
H353 H 0.01911 0.0174 0.95623 0.0
H354 H 0.97592 0.93451 0.99118 0.0
H355 H 0.08049 0.07218 0.99198 0.0
H356 H 0.98087 0.95108 0.02593 0.0
H357 H 0.99479 0.98067 0.05152 0.0
H358 H 0.97977 0.93643 0.95793 0.0
H359 H 0.07146 0.05989 0.07687 0.0
H360 H 0.09864 0.13474 0.01192 0.0
H361 H 0.09322 0.10447 0.9859 0.0
H362 H 0.09596 0.14541 0.07931 0.0
H363 H 0.00641 0.9891 0.92891 0.0
H364 H 0.99115 0.95662 0.93462 0.0
H365 H 0.09922 0.1499 0.04668 0.0
H366 H 0.08078 0.08786 0.10523 0.0
N367 N 0.07789 0.08319 0.02157 0.0
C368 C 0.09291 0.1204 0.0148 0.0
C369 C 0.08997 0.10337 1.00013 0.0
C370 C 0.08924 0.11863 0.03322 0.0
C371 C 0.08182 0.09957 0.03624 0.0
C372 C 0.08265 0.08484 0.0038 0.0
N373 N 0.07427 0.0784 0.05706 0.0
C374 C 0.07997 0.09709 0.05457 0.0
C375 C 0.08049 0.0907 0.09108 0.0
C376 C 0.08533 0.11012 0.08878 0.0
C377 C 0.07527 0.07492 0.07499 0.0
C378 C 0.0855 0.1135 0.07038 0.0
H379 H 0.08952 0.12233 0.10126 0.0
O380 O 0.08492 0.04405 0.04657 0.0
O381 O 0.04762 0.02228 0.01672 0.0
O382 O 0.01978 0.0392 0.03556 0.0
O383 O 0.04627 0.06072 0.05051 0.0
O384 O 0.05699 0.02796 0.04476 0.0
O385 O 0.09095 0.0495 0.01877 0.0
O386 O 0.00593 0.0383 0.9862 0.0
O387 O 0.04181 0.05705 0.01555 0.0
O388 O 0.06915 0.04158 0.99738 0.0
O389 O 0.04295 0.01923 0.98249 0.0
O390 O 0.03229 0.0507 0.98704 0.0
O391 O 0.99796 0.03247 0.01322 0.0
C392 C 0.04856 0.01399 0.03056 0.0
C393 C 0.09182 0.13261 0.06735 0.0
C394 C 0.09367 0.13517 0.04879 0.0
C395 C 0.09654 0.04515 0.03421 0.0
C396 C 0.115 0.05392 0.04162 0.0
C397 C 0.1204 0.07097 0.05657 0.0
C398 C 0.12734 0.04378 0.03408 0.0
C399 C 0.14507 0.04998 0.04173 0.0
C400 C 0.13821 0.07756 0.06404 0.0
C401 C 0.15053 0.06707 0.05675 0.0
C402 C 0.02933 0.05196 0.05087 0.0
C403 C 0.04165 0.06422 1.00097 0.0
C404 C 0.99364 0.0378 0.99783 0.0
C405 C 0.97525 0.03 0.98915 0.0
C406 C 0.97054 0.01417 0.97295 0.0
C407 C 0.9624 0.03959 0.99661 0.0
C408 C 0.94494 0.03383 0.98772 0.0
C409 C 0.95325 0.00831 0.96405 0.0
C410 C 0.94054 0.01815 0.97125 0.0
C411 C 0.05985 0.02851 0.98209 0.0
H412 H 0.11093 0.07895 0.06258 0.0
H413 H 0.12297 0.03071 0.02239 0.0
H414 H 0.14242 0.0906 0.0757 0.0
H415 H 0.16416 0.07202 0.06312 0.0
H416 H 0.98019 0.00656 0.96695 0.0
H417 H 0.96609 0.05158 0.00934 0.0
H418 H 0.94974 0.99626 0.9514 0.0
H419 H 0.92734 0.01361 0.96376 0.0
Gd420 Gd 0.29049 0.80143 0.2923 0.0
Gd421 Gd 0.30813 0.77762 0.24957 0.0
C422 C 0.2805 0.71383 0.21741 0.0
C423 C 0.30433 0.69715 0.21803 0.0
C424 C 0.30906 0.73195 0.23449 0.0
C425 C 0.29191 0.73167 0.22831 0.0
C426 C 0.31549 0.71469 0.22927 0.0
C427 C 0.28686 0.69671 0.21215 0.0
C428 C 0.26284 0.71348 0.21258 0.0
C429 C 0.25667 0.73027 0.21948 0.0
N430 N 0.28605 0.74842 0.23388 0.0
C431 C 0.26836 0.74745 0.23047 0.0
H432 H 0.26266 0.7593 0.23703 0.0
C433 C 0.33691 0.75004 0.25076 0.0
N434 N 0.31943 0.74898 0.24575 0.0
C435 C 0.3438 0.73336 0.24603 0.0
C436 C 0.33301 0.71554 0.23535 0.0
H437 H 0.34586 0.76384 0.25833 0.0
H438 H 0.27829 0.68295 0.20377 0.0
H439 H 0.33606 0.82049 0.30488 0.0
H440 H 0.2537 0.70009 0.20428 0.0
H441 H 0.24277 0.72984 0.21679 0.0
H442 H 0.30906 0.68381 0.21391 0.0
H443 H 0.25274 0.81477 0.28204 0.0
H444 H 0.34177 0.87606 0.34397 0.0
H445 H 0.35458 0.84879 0.32826 0.0
H446 H 0.28662 0.89246 0.3329 0.0
H447 H 0.35755 0.73439 0.25038 0.0
H448 H 0.33841 0.70264 0.23159 0.0
H449 H 0.31663 0.89271 0.34502 0.0
H450 H 0.24047 0.84377 0.29079 0.0
N451 N 0.31222 0.83053 0.30813 0.0
C452 C 0.33363 0.8638 0.33336 0.0
C453 C 0.34076 0.84823 0.32482 0.0
C454 C 0.31621 0.86363 0.32765 0.0
C455 C 0.30574 0.84665 0.31464 0.0
C456 C 0.32992 0.83181 0.3119 0.0
N457 N 0.27883 0.82972 0.29564 0.0
C458 C 0.28867 0.84636 0.308 0.0
C459 C 0.25414 0.84485 0.2955 0.0
C460 C 0.26434 0.86223 0.30759 0.0
C461 C 0.26141 0.82852 0.29017 0.0
C462 C 0.28167 0.86303 0.31431 0.0
H463 H 0.25853 0.87473 0.3121 0.0
O464 O 0.26335 0.79049 0.29798 0.0
O465 O 0.28756 0.77435 0.26929 0.0
O466 O 0.28517 0.78723 0.23708 0.0
O467 O 0.27546 0.80389 0.26494 0.0
O468 O 0.28643 0.77067 0.29725 0.0
O469 O 0.28393 0.80633 0.32142 0.0
O470 O 0.33549 0.78809 0.24489 0.0
O471 O 0.31126 0.80463 0.2729 0.0
O472 O 0.31356 0.79211 0.30464 0.0
O473 O 0.32354 0.77545 0.27692 0.0
O474 O 0.31224 0.80862 0.24513 0.0
O475 O 0.31544 0.77451 0.22058 0.0
C476 C 0.2857 0.76194 0.27955 0.0
C477 C 0.29191 0.8797 0.32764 0.0
C478 C 0.30903 0.87987 0.3345 0.0
C479 C 0.26731 0.79667 0.31646 0.0
C480 C 0.25916 0.7832 0.32809 0.0
C481 C 0.24058 0.77674 0.32656 0.0
C482 C 0.26946 0.77784 0.3416 0.0
C483 C 0.26113 0.76665 0.3538 0.0
C484 C 0.23233 0.76524 0.33856 0.0
C485 C 0.24257 0.76032 0.35227 0.0
C486 C 0.27448 0.79759 0.24601 0.0
C487 C 0.31326 0.81725 0.26289 0.0
C488 C 0.33207 0.78372 0.22636 0.0
C489 C 0.34068 0.79929 0.21708 0.0
C490 C 0.35921 0.80652 0.22021 0.0
C491 C 0.33076 0.80756 0.20581 0.0
C492 C 0.33929 0.82311 0.19794 0.0
C493 C 0.36771 0.82204 0.21238 0.0
C494 C 0.35781 0.83039 0.20133 0.0
C495 C 0.32444 0.78196 0.29587 0.0
H496 H 0.23244 0.78089 0.31629 0.0
H497 H 0.28382 0.7828 0.34305 0.0
H498 H 0.218 0.7604 0.33743 0.0
H499 H 0.23604 0.75168 0.36176 0.0
H500 H 0.36706 0.80026 0.22887 0.0
H501 H 0.31644 0.80213 0.2033 0.0
H502 H 0.38199 0.82756 0.21483 0.0
H503 H 0.36463 0.84223 0.19509 0.0
Gd504 Gd 0.5219 0.0343 0.52102 0.0
Gd505 Gd 0.56961 0.04642 0.51493 0.0
C506 C 0.60711 0.1082 0.52683 0.0
C507 C 0.61295 0.11173 0.49482 0.0
C508 C 0.59312 0.08154 0.49945 0.0
C509 C 0.59593 0.08903 0.51924 0.0
C510 C 0.6019 0.09277 0.48716 0.0
C511 C 0.61548 0.11945 0.51455 0.0
C512 C 0.60962 0.11565 0.54661 0.0
C513 C 0.60138 0.10402 0.55842 0.0
N514 N 0.5877 0.07788 0.53101 0.0
C515 C 0.59063 0.08508 0.55045 0.0
H516 H 0.58491 0.0767 0.56031 0.0
C517 C 0.58047 0.05482 0.47295 0.0
N518 N 0.58213 0.06328 0.49218 0.0
C519 C 0.58888 0.06542 0.46035 0.0
C520 C 0.59952 0.08455 0.46746 0.0
H521 H 0.57235 0.0399 0.46733 0.0
H522 H 0.62407 0.13414 0.52022 0.0
H523 H 0.50809 0.99877 0.48061 0.0
H524 H 0.61799 0.13032 0.55291 0.0
H525 H 0.60338 0.10962 0.57378 0.0
H526 H 0.6197 0.12054 0.48557 0.0
H527 H 0.51547 0.04934 0.56807 0.0
H528 H 0.48131 0.94545 0.49548 0.0
H529 H 0.49246 0.96348 0.47105 0.0
H530 H 0.47962 0.9655 0.563 0.0
H531 H 0.58723 0.05879 0.44517 0.0
H532 H 0.60608 0.09273 0.45765 0.0
H533 H 0.47678 0.94629 0.52978 0.0
H534 H 0.50276 0.03424 0.59351 0.0
N535 N 0.50669 1.00076 0.51043 0.0
C536 C 0.48832 0.96098 0.49983 0.0
C537 C 0.49459 0.9711 0.486 0.0
C538 C 0.49071 0.97116 0.51905 0.0
C539 C 0.49997 0.99139 0.524 0.0
C540 C 0.5036 0.99115 0.49155 0.0
N541 N 0.50993 0.02192 0.54695 0.0
C542 C 0.50162 1.00224 0.54276 0.0
C543 C 0.50247 0.02505 0.57935 0.0
C544 C 0.4948 0.0047 0.57549 0.0
C545 C 0.5097 0.03355 0.56482 0.0
C546 C 0.494 0.99309 0.55698 0.0
H547 H 0.48911 0.99819 0.58677 0.0
O548 O 0.51031 0.05808 0.5156 0.0
O549 O 0.5462 0.0587 0.52235 0.0
O550 O 0.56583 0.04789 0.54562 0.0
O551 O 0.53688 0.02886 0.54591 0.0
O552 O 0.52938 0.06309 0.54331 0.0
O553 O 0.49421 0.02838 0.50997 0.0
O554 O 0.58035 0.0254 0.49532 0.0
O555 O 0.54376 0.02257 0.50794 0.0
O556 O 0.52979 0.02936 0.49117 0.0
O557 O 0.55357 0.05526 0.49298 0.0
O558 O 0.56499 0.0158 0.52089 0.0
O559 O 0.59549 0.04217 0.52276 0.0
C560 C 0.54381 0.07116 0.53689 0.0
C561 C 0.48541 0.97278 0.55222 0.0
C562 C 0.48378 0.96185 0.53331 0.0
C563 C 0.49436 0.04691 0.51152 0.0
C564 C 0.48068 0.05412 0.52243 0.0
C565 C 0.47685 0.04858 0.53962 0.0
C566 C 0.47139 0.06657 0.51588 0.0
C567 C 0.45842 0.07328 0.52659 0.0
C568 C 0.46436 0.05571 0.55047 0.0
C569 C 0.45515 0.068 0.54399 0.0
C570 C 0.55297 0.03837 0.554 0.0
C571 C 0.54887 0.00897 0.51354 0.0
C572 C 0.59471 0.02857 0.50697 0.0
C573 C 0.61137 0.02671 0.49868 0.0
C574 C 0.61624 0.03384 0.48253 0.0
C575 C 0.6221 0.01643 0.50659 0.0
C576 C 0.63757 0.01321 0.4984 0.0
C577 C 0.63149 0.03064 0.47428 0.0
C578 C 0.64206 0.02034 0.48207 0.0
C579 C 0.53814 0.04434 0.48449 0.0
H580 H 0.48329 0.03849 0.54454 0.0
H581 H 0.47395 0.07065 0.50243 0.0
H582 H 0.46159 0.05141 0.56375 0.0
H583 H 0.44517 0.0731 0.55236 0.0
H584 H 0.60829 0.04166 0.47611 0.0
H585 H 0.61838 0.01096 0.51912 0.0
H586 H 0.63505 0.03601 0.46169 0.0
H587 H 0.65363 0.01774 0.47513 0.0
Gd588 Gd 0.3225 0.28519 0.7746 0.0
Gd589 Gd 0.27843 0.29505 0.76926 0.0
C590 C 0.2495 0.28217 0.70947 0.0
C591 C 0.24586 0.31474 0.70766 0.0
C592 C 0.26066 0.3103 0.73627 0.0
C593 C 0.2583 0.29036 0.72804 0.0
C594 C 0.25399 0.32262 0.72641 0.0
C595 C 0.24365 0.29455 0.69919 0.0
C596 C 0.24647 0.26172 0.70198 0.0
C597 C 0.25169 0.24991 0.71316 0.0
N598 N 0.26405 0.27882 0.73843 0.0
C599 C 0.26027 0.25868 0.7315 0.0
H600 H 0.26422 0.24916 0.73972 0.0
C601 C 0.26816 0.33603 0.76433 0.0
N602 N 0.26833 0.31736 0.75446 0.0
C603 C 0.26194 0.3489 0.75513 0.0
C604 C 0.25508 0.34227 0.73597 0.0
H605 H 0.2732 0.34105 0.77926 0.0
H606 H 0.237 0.28856 0.68487 0.0
H607 H 0.3393 0.33098 0.80353 0.0
H608 H 0.23978 0.25486 0.68779 0.0
H609 H 0.24907 0.23402 0.70773 0.0
H610 H 0.24081 0.32401 0.69978 0.0
H611 H 0.32763 0.2389 0.76491 0.0
H612 H 0.35789 0.32398 0.85759 0.0
H613 H 0.35255 0.34561 0.83647 0.0
H614 H 0.3533 0.25408 0.84653 0.0
H615 H 0.26232 0.36386 0.76286 0.0
H616 H 0.2501 0.3522 0.7289 0.0
H617 H 0.3578 0.28968 0.86133 0.0
H618 H 0.33596 0.21533 0.78223 0.0
N619 N 0.33649 0.30097 0.80568 0.0
C620 C 0.35202 0.31739 0.84303 0.0
C621 C 0.34909 0.32964 0.83114 0.0
C622 C 0.34803 0.29683 0.83574 0.0
C623 C 0.34034 0.289 0.81671 0.0
C624 C 0.34154 0.32117 0.81234 0.0
N625 N 0.33154 0.26245 0.78977 0.0
C626 C 0.33774 0.26905 0.80847 0.0
C627 C 0.33641 0.23036 0.78982 0.0
C628 C 0.3417 0.23657 0.80941 0.0
C629 C 0.33175 0.24371 0.78007 0.0
C630 C 0.34283 0.25626 0.8189 0.0
H631 H 0.34545 0.22626 0.81692 0.0
O632 O 0.33789 0.27407 0.75208 0.0
O633 O 0.30117 0.28739 0.75394 0.0
O634 O 0.2752 0.26286 0.77192 0.0
O635 O 0.30296 0.25751 0.77948 0.0
O636 O 0.31084 0.26201 0.74844 0.0
O637 O 0.3489 0.30237 0.77132 0.0
O638 O 0.26352 0.30617 0.79218 0.0
O639 O 0.2999 0.29301 0.78961 0.0
O640 O 0.32523 0.31751 0.77234 0.0
O641 O 0.29757 0.3224 0.76351 0.0
O642 O 0.29009 0.31821 0.79587 0.0
O643 O 0.25194 0.27814 0.7725 0.0
C644 C 0.30075 0.27148 0.74164 0.0
C645 C 0.34952 0.26372 0.83819 0.0
C646 C 0.35209 0.28399 0.84661 0.0
C647 C 0.35153 0.28919 0.75685 0.0
C648 C 0.36913 0.28456 0.75679 0.0
C649 C 0.37437 0.27494 0.77029 0.0
C650 C 0.38039 0.28874 0.74252 0.0
C651 C 0.3965 0.28274 0.74154 0.0
C652 C 0.39028 0.26908 0.76939 0.0
C653 C 0.40119 0.27278 0.75508 0.0
C654 C 0.28533 0.25147 0.77638 0.0
C655 C 0.30063 0.30884 0.80206 0.0
C656 C 0.24966 0.2913 0.78722 0.0
C657 C 0.23231 0.29639 0.78773 0.0
C658 C 0.2271 0.30669 0.77482 0.0
C659 C 0.22132 0.29206 0.80207 0.0
C660 C 0.20564 0.29874 0.80389 0.0
C661 C 0.21158 0.3133 0.7766 0.0
C662 C 0.201 0.30955 0.79114 0.0
C663 C 0.31514 0.32873 0.7673 0.0
H664 H 0.36609 0.27178 0.78142 0.0
H665 H 0.37646 0.29617 0.73201 0.0
H666 H 0.39415 0.26152 0.7798 0.0
H667 H 0.41348 0.26806 0.75471 0.0
H668 H 0.23506 0.30978 0.76347 0.0
H669 H 0.22512 0.28391 0.81199 0.0
H670 H 0.20777 0.32143 0.76669 0.0
H671 H 0.18899 0.3148 0.79227 0.0
Gd672 Gd 0.04575 0.01693 0.50755 0.0
Gd673 Gd 0.04241 0.06448 0.53275 0.0
C674 C 0.04906 0.08134 0.59801 0.0
C675 C 0.01964 0.08444 0.60559 0.0
C676 C 0.02564 0.0751 0.5724 0.0
C677 C 0.04307 0.07586 0.57832 0.0
C678 C 0.01386 0.07975 0.58604 0.0
C679 C 0.03718 0.08523 0.61156 0.0
C680 C 0.06698 0.08349 0.60355 0.0
C681 C 0.0786 0.08092 0.58965 0.0
N682 N 0.05447 0.07254 0.56493 0.0
C683 C 0.07219 0.07573 0.57038 0.0
H684 H 0.08164 0.0739 0.56017 0.0
C685 C 0.00397 0.07245 0.54719 0.0
N686 N 0.02046 0.07096 0.55336 0.0
C687 C 0.99185 0.07671 0.56019 0.0
C688 C 0.99675 0.0802 0.57969 0.0
H689 H 0.99999 0.07013 0.53218 0.0
H690 H 0.04157 0.08938 0.62669 0.0
H691 H 1.00052 0.00738 0.49132 0.0
H692 H 0.07207 0.08767 0.6185 0.0
H693 H 0.09254 0.08302 0.59369 0.0
H694 H 0.01075 0.08799 0.61623 0.0
H695 H 0.08694 0.01502 0.49509 0.0
H696 H 0.99522 0.98521 0.43145 0.0
H697 H 0.98219 0.9949 0.46146 0.0
H698 H 0.05388 0.98468 0.41586 0.0
H699 H 0.97878 0.07748 0.55514 0.0
H700 H 0.98737 0.08373 0.58974 0.0
H701 H 0.02182 0.98162 0.41472 0.0
H702 H 0.10105 0.00496 0.46613 0.0
N703 N 0.02514 0.0051 0.47956 0.0
C704 C 0.00371 0.99067 0.44479 0.0
C705 C 0.99629 0.99595 0.4617 0.0
C706 C 0.02199 0.99262 0.44523 0.0
C707 C 0.0326 1.0001 0.46297 0.0
C708 C 0.00709 0.00295 0.47896 0.0
N709 N 0.06111 0.0097 0.48046 0.0
C710 C 0.05092 1.00237 0.46347 0.0
C711 C 0.087 0.0043 0.46512 0.0
C712 C 0.07692 0.99771 0.44748 0.0
C713 C 0.07884 0.00997 0.48153 0.0
C714 C 0.0587 0.99649 0.44647 0.0
H715 H 0.08328 0.99325 0.43475 0.0
O716 O 0.06577 0.003 0.51634 0.0
O717 O 0.05534 0.0401 0.53541 0.0
O718 O 0.07101 0.06523 0.52859 0.0
O719 O 0.06869 0.04052 0.50153 0.0
O720 O 0.04292 0.01212 0.53757 0.0
O721 O 0.03948 0.98476 0.50209 0.0
O722 O 0.04924 0.08566 0.51488 0.0
O723 O 0.03944 0.04488 0.50299 0.0
O724 O 0.01876 0.01178 0.51776 0.0
O725 O 0.01822 0.04219 0.53778 0.0
O726 O 0.01953 0.05893 0.51012 0.0
O727 O 0.04964 0.0962 0.54521 0.0
C728 C 0.05133 0.02937 0.54739 0.0
C729 C 0.04809 0.98915 0.42899 0.0
C730 C 0.02983 0.98733 0.42836 0.0
C731 C 0.05515 0.98535 0.50999 0.0
C732 C 0.06053 0.96734 0.51136 0.0
C733 C 0.07658 0.96437 0.50481 0.0
C734 C 0.05002 0.95344 0.51991 0.0
C735 C 0.05554 0.93649 0.5219 0.0
C736 C 0.082 0.9474 0.50651 0.0
C737 C 0.07156 0.93351 0.515 0.0
C738 C 0.07763 0.0572 0.51324 0.0
C739 C 0.02491 0.04761 0.49629 0.0
C740 C 0.0509 0.10101 0.52892 0.0
C741 C 0.04168 0.11594 0.5257 0.0
C742 C 0.02498 0.11637 0.53205 0.0
C743 C 0.04986 0.13005 0.51607 0.0
C744 C 0.0414 0.14451 0.51252 0.0
C745 C 0.01638 0.13054 0.52843 0.0
C746 C 0.0245 0.14456 0.51867 0.0
C747 C 0.0111 0.02329 0.52974 0.0
H748 H 0.08487 0.97512 0.49834 0.0
H749 H 0.0377 0.95593 0.5252 0.0
H750 H 0.0944 0.94511 0.50141 0.0
H751 H 0.0762 0.92064 0.51655 0.0
H752 H 0.01867 0.10597 0.53995 0.0
H753 H 0.06297 0.12992 0.51164 0.0
H754 H 0.00343 0.13071 0.53325 0.0
H755 H 0.01751 0.1553 0.51581 0.0
Gd756 Gd 0.27638 0.77395 0.77638 0.0
Gd757 Gd 0.31668 0.80121 0.76471 0.0
C758 C 0.33024 0.86604 0.76096 0.0
C759 C 0.33713 0.86333 0.72813 0.0
C760 C 0.32744 0.83354 0.74012 0.0
C761 C 0.32597 0.84511 0.75785 0.0
C762 C 0.3333 0.84258 0.72518 0.0
C763 C 0.33561 0.87502 0.74598 0.0
C764 C 0.32907 0.87739 0.77908 0.0
C765 C 0.32366 0.86791 0.79357 0.0
N766 N 0.32057 0.83602 0.77211 0.0
C767 C 0.31944 0.84719 0.78988 0.0
H768 H 0.31485 0.84056 0.80136 0.0
C769 C 0.32705 0.80181 0.72111 0.0
N770 N 0.32385 0.81353 0.73766 0.0
C771 C 0.33262 0.81007 0.70585 0.0
C772 C 0.33562 0.83053 0.70782 0.0
H773 H 0.32521 0.78601 0.71973 0.0
H774 H 0.33879 0.89104 0.7481 0.0
H775 H 0.2795 0.73135 0.74636 0.0
H776 H 0.33222 0.89346 0.78201 0.0
H777 H 0.32247 0.87655 0.80754 0.0
H778 H 0.34156 0.8705 0.71678 0.0
H779 H 0.25674 0.79015 0.81478 0.0
H780 H 0.27635 0.68649 0.77759 0.0
H781 H 0.2795 0.69724 0.74729 0.0
H782 H 0.26153 0.71703 0.8386 0.0
H783 H 0.33483 0.8007 0.69268 0.0
H784 H 0.34013 0.83693 0.69603 0.0
H785 H 0.27016 0.69423 0.81188 0.0
H786 H 0.24826 0.78054 0.84466 0.0
N787 N 0.2767 0.74064 0.776 0.0
C788 C 0.27636 0.70165 0.7773 0.0
C789 C 0.27804 0.70763 0.76017 0.0
C790 C 0.27372 0.71502 0.79359 0.0
C791 C 0.27373 0.73457 0.79239 0.0
C792 C 0.278 0.72716 0.75974 0.0
N793 N 0.26713 0.76507 0.80469 0.0
C794 C 0.26881 0.74727 0.8073 0.0
C795 C 0.25417 0.7711 0.83435 0.0
C796 C 0.2569 0.7534 0.8378 0.0
C797 C 0.259 0.77651 0.81743 0.0
C798 C 0.26385 0.74096 0.82396 0.0
H799 H 0.25293 0.7491 0.8508 0.0
O800 O 0.24997 0.77884 0.77683 0.0
O801 O 0.28778 0.802 0.76627 0.0
O802 O 0.31606 0.80818 0.79684 0.0
O803 O 0.29181 0.78658 0.8049 0.0
O804 O 0.27244 0.8047 0.78833 0.0
O805 O 0.25522 0.75505 0.75523 0.0
O806 O 0.34022 0.7912 0.75793 0.0
O807 O 0.30529 0.77386 0.77533 0.0
O808 O 0.28048 0.76435 0.7453 0.0
O809 O 0.29755 0.79216 0.73792 0.0
O810 O 0.3189 0.76999 0.75153 0.0
O811 O 0.34216 0.8172 0.78104 0.0
C812 C 0.28057 0.8145 0.77688 0.0
C813 C 0.26509 0.72207 0.82582 0.0
C814 C 0.27002 0.70909 0.81063 0.0
C815 C 0.24339 0.7639 0.7625 0.0
C816 C 0.22625 0.7513 0.76429 0.0
C817 C 0.22345 0.7411 0.77891 0.0
C818 C 0.21214 0.75051 0.75137 0.0
C819 C 0.19494 0.74022 0.75324 0.0
C820 C 0.20637 0.73034 0.7806 0.0
C821 C 0.19211 0.72995 0.76788 0.0
C822 C 0.30628 0.80112 0.80946 0.0
C823 C 0.31166 0.76113 0.76407 0.0
C824 C 0.35065 0.80558 0.77069 0.0
C825 C 0.36801 0.81442 0.76497 0.0
C826 C 0.37113 0.81186 0.74566 0.0
C827 C 0.38231 0.82265 0.77913 0.0
C828 C 0.39987 0.82699 0.77421 0.0
C829 C 0.38835 0.81694 0.74061 0.0
C830 C 0.40265 0.82407 0.75469 0.0
C831 C 0.2862 0.77461 0.7327 0.0
H832 H 0.23429 0.74159 0.78903 0.0
H833 H 0.21455 0.75835 0.74002 0.0
H834 H 0.20413 0.7226 0.79198 0.0
H835 H 0.17887 0.72212 0.76981 0.0
H836 H 0.36045 0.80512 0.73443 0.0
H837 H 0.37965 0.82474 0.79396 0.0
H838 H 0.39068 0.81451 0.72568 0.0
H839 H 0.41585 0.82648 0.75009 0.0
Gd840 Gd 0.54375 0.04492 0.99802 0.0
Gd841 Gd 0.56063 0.03941 0.04542 0.0
C842 C 0.6178 0.05089 0.07067 0.0
C843 C 0.62011 0.01776 0.07206 0.0
C844 C 0.59252 0.02271 0.05905 0.0
C845 C 0.60012 0.04296 0.06234 0.0
C846 C 0.60243 0.00995 0.06407 0.0
C847 C 0.62776 0.03817 0.07538 0.0
C848 C 0.62499 0.07139 0.07399 0.0
C849 C 0.61461 0.08348 0.06908 0.0
N850 N 0.59028 0.05491 0.05736 0.0
C851 C 0.59717 0.075 0.06087 0.0
H852 H 0.58942 0.08465 0.05724 0.0
C853 C 0.56698 0.99598 0.04958 0.0
N854 N 0.57533 0.01555 0.0514 0.0
C855 C 0.57636 0.98277 0.0541 0.0
C856 C 0.59419 0.98975 0.06125 0.0
H857 H 0.55317 0.99036 0.04421 0.0
H858 H 0.64138 0.044 0.0817 0.0
H859 H 0.54406 0.00516 0.96192 0.0
H860 H 0.63852 0.07801 0.08032 0.0
H861 H 0.62004 0.09935 0.07161 0.0
H862 H 0.62793 0.00816 0.07594 0.0
H863 H 0.52204 0.08234 0.00566 0.0
H864 H 0.49045 0.97563 0.93974 0.0
H865 H 0.52251 0.97688 0.94085 0.0
H866 H 0.45804 0.02279 0.96634 0.0
H867 H 0.56979 0.96722 0.05218 0.0
H868 H 0.60139 0.97948 0.06487 0.0
H869 H 0.46646 0.99288 0.94934 0.0
H870 H 0.49184 0.08626 0.00221 0.0
N871 N 0.52434 0.01873 0.97469 0.0
C872 C 0.49984 0.98787 0.94939 0.0
C873 C 0.5179 0.98853 0.94999 0.0
C874 C 0.49424 0.00368 0.96035 0.0
C875 C 0.507 0.01916 0.97289 0.0
C876 C 0.53006 0.00449 0.96223 0.0
N877 N 0.51519 0.0511 0.9929 0.0
C878 C 0.50224 0.03586 0.98244 0.0
C879 C 0.49446 0.07186 0.99685 0.0
C880 C 0.48076 0.05579 0.98757 0.0
C881 C 0.51166 0.06939 0.99898 0.0
C882 C 0.48463 0.03768 0.97968 0.0
H883 H 0.46744 0.05778 0.98575 0.0
O884 O 0.5491 0.07456 0.99223 0.0
O885 O 0.56612 0.05405 0.02147 0.0
O886 O 0.55926 0.07074 0.04615 0.0
O887 O 0.5356 0.06424 0.02343 0.0
O888 O 0.57225 0.04554 0.99346 0.0
O889 O 0.55729 0.05035 0.97385 0.0
O890 O 0.53929 0.03811 0.0638 0.0
O891 O 0.53812 0.03539 0.02435 0.0
O892 O 0.54832 0.01421 0.99602 0.0
O893 O 0.56862 0.01699 0.02237 0.0
O894 O 0.53617 0.01344 0.03917 0.0
O895 O 0.56617 0.05226 0.07594 0.0
C896 C 0.57851 0.05212 0.01109 0.0
C897 C 0.47166 0.02178 0.96831 0.0
C898 C 0.47646 0.00478 0.95862 0.0
C899 C 0.55647 0.0688 0.97683 0.0
C900 C 0.55245 0.07487 0.95941 0.0
C901 C 0.53647 0.07948 0.95481 0.0
C902 C 0.56462 0.07337 0.94591 0.0
C903 C 0.56063 0.07495 0.92734 0.0
C904 C 0.53286 0.08244 0.93658 0.0
C905 C 0.54481 0.08001 0.92277 0.0
C906 C 0.54541 0.07537 0.03897 0.0
C907 C 0.52852 0.01914 0.02584 0.0
C908 C 0.54996 0.04543 0.07929 0.0
C909 C 0.54725 0.0337 0.09366 0.0
C910 C 0.55958 0.0234 0.09832 0.0
C911 C 0.53122 0.03168 0.1018 0.0
C912 C 0.52737 0.01963 0.11478 0.0
C913 C 0.55579 0.01126 0.11119 0.0
C914 C 0.53977 0.00937 0.11945 0.0
C915 C 0.56053 0.00817 0.00502 0.0
H916 H 0.52675 0.0804 0.96503 0.0
H917 H 0.57699 0.06985 0.94969 0.0
H918 H 0.52053 0.08598 0.93294 0.0
H919 H 0.54146 0.08144 0.90848 0.0
H920 H 0.572 0.02459 0.09197 0.0
H921 H 0.52159 0.0393 0.09774 0.0
H922 H 0.56531 0.00335 0.11481 0.0
H923 H 0.53724 1.00022 0.12971 0.0
Gd924 Gd 0.29061 0.27653 0.26774 0.0
Gd925 Gd 0.31856 0.32634 0.28897 0.0
C926 C 0.37543 0.34412 0.27228 0.0
C927 C 0.39299 0.35297 0.30293 0.0
C928 C 0.36094 0.33965 0.30055 0.0
C929 C 0.35982 0.33864 0.28121 0.0
C930 C 0.37757 0.34706 0.31168 0.0
C931 C 0.39193 0.35147 0.28325 0.0
C932 C 0.37408 0.34167 0.2525 0.0
C933 C 0.35764 0.33308 0.24206 0.0
N934 N 0.34364 0.33139 0.27099 0.0
C935 C 0.3427 0.32766 0.25151 0.0
H936 H 0.33073 0.31981 0.24292 0.0
C937 C 0.34637 0.33709 0.32806 0.0
N938 N 0.34578 0.33372 0.30857 0.0
C939 C 0.36245 0.34402 0.33964 0.0
C940 C 0.37819 0.34881 0.33138 0.0
H941 H 0.33437 0.3356 0.33496 0.0
H942 H 0.40397 0.35587 0.27662 0.0
H943 H 0.28061 0.28183 0.31556 0.0
H944 H 0.38569 0.34578 0.24512 0.0
H945 H 0.35636 0.33042 0.22668 0.0
H946 H 0.40581 0.35876 0.31127 0.0
H947 H 0.2704 0.27745 0.22447 0.0
H948 H 0.22924 0.24406 0.31348 0.0
H949 H 0.2572 0.26507 0.33181 0.0
H950 H 0.2057 0.23264 0.24861 0.0
H951 H 0.36261 0.34633 0.355 0.0
H952 H 0.39065 0.35452 0.3404 0.0
H953 H 0.211 0.23025 0.28182 0.0
H954 H 0.24135 0.26469 0.20686 0.0
N955 N 0.26724 0.26934 0.28744 0.0
C956 C 0.23969 0.25134 0.30612 0.0
C957 C 0.25545 0.26309 0.31647 0.0
C958 C 0.23723 0.25006 0.28655 0.0
C959 C 0.25116 0.26003 0.27769 0.0
C960 C 0.26904 0.27219 0.30694 0.0
N961 N 0.2621 0.27091 0.25097 0.0
C962 C 0.24842 0.26107 0.25895 0.0
C963 C 0.24304 0.26381 0.22161 0.0
C964 C 0.22904 0.25365 0.22971 0.0
C965 C 0.2596 0.27179 0.23218 0.0
C966 C 0.23169 0.25185 0.24845 0.0
H967 H 0.21638 0.24685 0.22125 0.0
O968 O 0.2931 0.26127 0.23902 0.0
O969 O 0.31691 0.29758 0.26903 0.0
O970 O 0.30843 0.32975 0.26032 0.0
O971 O 0.29167 0.29713 0.24771 0.0
O972 O 0.31676 0.26913 0.27172 0.0
O973 O 0.28416 0.24438 0.26009 0.0
O974 O 0.31254 0.34343 0.31546 0.0
O975 O 0.29246 0.30496 0.28763 0.0
O976 O 0.30223 0.27312 0.29543 0.0
O977 O 0.31917 0.3056 0.30928 0.0
O978 O 0.29184 0.33312 0.28464 0.0
O979 O 0.32729 0.35836 0.29543 0.0
C980 C 0.32669 0.28619 0.27116 0.0
C981 C 0.21833 0.24052 0.25672 0.0
C982 C 0.22126 0.23931 0.27564 0.0
C983 C 0.28903 0.24381 0.24286 0.0
C984 C 0.30076 0.23092 0.23599 0.0
C985 C 0.3053 0.22872 0.21713 0.0
C986 C 0.30762 0.2209 0.24807 0.0
C987 C 0.31893 0.20884 0.24143 0.0
C988 C 0.31678 0.21684 0.21056 0.0
C989 C 0.32365 0.20694 0.22268 0.0
C990 C 0.29808 0.31565 0.24654 0.0
C991 C 0.28239 0.31581 0.28513 0.0
C992 C 0.32071 0.36029 0.31195 0.0
C993 C 0.31301 0.37713 0.31836 0.0
C994 C 0.31371 0.38518 0.33803 0.0
C995 C 0.3061 0.38605 0.3053 0.0
C996 C 0.30031 0.40331 0.31186 0.0
C997 C 0.30772 0.40223 0.3446 0.0
C998 C 0.30113 0.41138 0.33158 0.0
C999 C 0.3127 0.28661 0.30957 0.0
H1000 H 0.30004 0.23628 0.20753 0.0
H1001 H 0.30426 0.22247 0.26268 0.0
H1002 H 0.32026 0.21521 0.19603 0.0
H1003 H 0.33232 0.19749 0.21735 0.0
H1004 H 0.31915 0.37843 0.34827 0.0
H1005 H 0.30573 0.37993 0.29009 0.0
H1006 H 0.30836 0.40846 0.35979 0.0
H1007 H 0.29658 0.42465 0.33689 0.0
Gd1008 Gd 0.54763 0.51594 0.00683 0.0
Gd1009 Gd 0.53927 0.5619 0.03028 0.0
C1010 C 0.55471 0.58852 0.094 0.0
C1011 C 0.5261 0.58997 0.10561 0.0
C1012 C 0.52798 0.57654 0.07194 0.0
C1013 C 0.54621 0.57985 0.07537 0.0
C1014 C 0.51776 0.5819 0.08697 0.0
C1015 C 0.54452 0.59324 0.10912 0.0
C1016 C 0.57323 0.59279 0.09679 0.0
C1017 C 0.58286 0.58901 0.08114 0.0
N1018 N 0.55573 0.5756 0.06038 0.0
C1019 C 0.57389 0.58064 0.06293 0.0
H1020 H 0.58166 0.57791 0.0511 0.0
C1021 C 0.50272 0.56758 0.04936 0.0
N1022 N 0.52032 0.56903 0.05375 0.0
C1023 C 0.49202 0.57249 0.06379 0.0
C1024 C 0.49954 0.57953 0.08272 0.0
H1025 H 0.49691 0.56227 0.03469 0.0
H1026 H 0.55082 0.59986 0.12352 0.0
H1027 H 0.50826 0.50179 0.97985 0.0
H1028 H 0.58024 0.59942 0.11087 0.0
H1029 H 0.59722 0.59257 0.08308 0.0
H1030 H 0.51847 0.59411 0.11736 0.0
H1031 H 0.58887 0.50909 0.00909 0.0
H1032 H 0.51725 0.4838 0.92146 0.0
H1033 H 0.49674 0.48963 0.94608 0.0
H1034 H 0.57897 0.48479 0.92489 0.0
H1035 H 0.47802 0.57096 0.06031 0.0
H1036 H 0.49126 0.58349 0.09387 0.0
H1037 H 0.54794 0.48182 0.91375 0.0
H1038 H 0.61049 0.49999 0.9871 0.0
N1039 N 0.53535 0.50437 0.97469 0.0
C1040 C 0.52245 0.48948 0.93633 0.0
C1041 C 0.51085 0.4927 0.95017 0.0
C1042 C 0.54052 0.49265 0.94197 0.0
C1043 C 0.54665 0.50013 0.96153 0.0
C1044 C 0.5175 0.49976 0.96939 0.0
N1045 N 0.56903 0.50709 0.9869 0.0
C1046 C 0.56404 0.50153 0.96782 0.0
C1047 C 0.59752 0.50052 0.98147 0.0
C1048 C 0.5929 0.49571 0.96179 0.0
C1049 C 0.58524 0.50579 0.9939 0.0
C1050 C 0.57586 0.49572 0.95474 0.0
H1051 H 0.60236 0.49135 0.95219 0.0
O1052 O 0.55206 0.49589 0.02425 0.0
O1053 O 0.54843 0.53596 0.0358 0.0
O1054 O 0.56685 0.56705 0.01998 0.0
O1055 O 0.57034 0.53807 0.99963 0.0
O1056 O 0.57054 0.52536 0.0301 0.0
O1057 O 0.53243 0.48516 0.99981 0.0
O1058 O 0.52657 0.58074 0.01803 0.0
O1059 O 0.53896 0.54239 1.0012 0.0
O1060 O 0.51894 0.51313 0.01301 0.0
O1061 O 0.51959 0.53808 0.03969 0.0
O1062 O 0.51635 0.55207 0.00702 0.0
O1063 O 0.55333 0.5928 0.03262 0.0
C1064 C 0.56359 0.53572 0.04327 0.0
C1065 C 0.57007 0.48925 0.93516 0.0
C1066 C 0.55241 0.48762 0.9288 0.0
C1067 C 0.54053 0.48074 0.0138 0.0
C1068 C 0.54603 0.4622 0.00978 0.0
C1069 C 0.55692 0.45769 0.99531 0.0
C1070 C 0.54097 0.44925 0.02165 0.0
C1071 C 0.54698 0.43197 0.0194 0.0
C1072 C 0.56298 0.44038 0.99309 0.0
C1073 C 0.55812 0.42755 0.0052 0.0
C1074 C 0.57586 0.55719 0.0079 0.0
C1075 C 0.52389 0.54279 0.99363 0.0
C1076 C 0.54003 0.59607 0.0232 0.0
C1077 C 0.53592 0.61539 0.02807 0.0
C1078 C 0.52076 0.61812 0.03698 0.0
C1079 C 0.54539 0.62997 0.01974 0.0
C1080 C 0.53894 0.64651 0.0183 0.0
C1081 C 0.51477 0.63511 0.03673 0.0
C1082 C 0.52351 0.649 0.02707 0.0
C1083 C 0.5118 0.52075 0.02825 0.0
H1084 H 0.56077 0.4675 0.98588 0.0
H1085 H 0.53255 0.45275 0.03286 0.0
H1086 H 0.57145 0.43692 0.982 0.0
H1087 H 0.56281 0.41413 0.00335 0.0
H1088 H 0.51318 0.60682 0.04333 0.0
H1089 H 0.55734 0.62765 0.01346 0.0
H1090 H 0.50286 0.63707 0.04327 0.0
H1091 H 0.51779 0.66128 0.02607 0.0
Gd1092 Gd 0.77812 0.27684 0.27518 0.0
Gd1093 Gd 0.81966 0.30646 0.27011 0.0
C1094 C 0.81338 0.36963 0.27298 0.0
C1095 C 0.81487 0.37173 0.23995 0.0
C1096 C 0.81759 0.34156 0.24935 0.0
C1097 C 0.81571 0.35006 0.26815 0.0
C1098 C 0.81787 0.35267 0.23525 0.0
C1099 C 0.81257 0.38016 0.25876 0.0
C1100 C 0.81211 0.37825 0.29203 0.0
C1101 C 0.81387 0.3678 0.3059 0.0
N1102 N 0.81672 0.3396 0.28177 0.0
C1103 C 0.81648 0.34867 0.30062 0.0
H1104 H 0.81826 0.34175 0.3121 0.0
C1105 C 0.82661 0.31648 0.22793 0.0
N1106 N 0.82056 0.32312 0.24507 0.0
C1107 C 0.82689 0.32677 0.21349 0.0
C1108 C 0.82204 0.34474 0.217 0.0
H1109 H 0.83172 0.30343 0.22538 0.0
H1110 H 0.81061 0.39507 0.26225 0.0
H1111 H 0.78749 0.24202 0.2409 0.0
H1112 H 0.81017 0.39313 0.29622 0.0
H1113 H 0.81334 0.37454 0.32078 0.0
H1114 H 0.81484 0.38033 0.22925 0.0
H1115 H 0.75875 0.28619 0.31564 0.0
H1116 H 0.78296 0.18943 0.26157 0.0
H1117 H 0.78887 0.20699 0.23573 0.0
H1118 H 0.76448 0.20725 0.32405 0.0
H1119 H 0.83125 0.32103 0.19982 0.0
H1120 H 0.82249 0.35288 0.20588 0.0
H1121 H 0.77353 0.18968 0.29447 0.0
H1122 H 0.75059 0.2704 0.34244 0.0
N1123 N 0.7818 0.24447 0.26976 0.0
C1124 C 0.78278 0.20491 0.26414 0.0
C1125 C 0.78607 0.21477 0.24944 0.0
C1126 C 0.77858 0.21492 0.28164 0.0
C1127 C 0.7782 0.235 0.28409 0.0
C1128 C 0.78532 0.23461 0.25244 0.0
N1129 N 0.77049 0.26344 0.30163 0.0
C1130 C 0.77263 0.24487 0.30064 0.0
C1131 C 0.75694 0.26315 0.33089 0.0
C1132 C 0.76006 0.24458 0.33071 0.0
C1133 C 0.76167 0.27209 0.31581 0.0
C1134 C 0.76741 0.23492 0.31517 0.0
H1135 H 0.75595 0.23742 0.34216 0.0
O1136 O 0.75116 0.28018 0.27584 0.0
O1137 O 0.79026 0.30627 0.26807 0.0
O1138 O 0.81875 0.30981 0.30159 0.0
O1139 O 0.79159 0.28927 0.30481 0.0
O1140 O 0.7734 0.30625 0.2897 0.0
O1141 O 0.75673 0.25554 0.25578 0.0
O1142 O 0.84257 0.30017 0.25603 0.0
O1143 O 0.80598 0.27446 0.26915 0.0
O1144 O 0.77904 0.27871 0.24473 0.0
O1145 O 0.80897 0.28509 0.24163 0.0
O1146 O 0.82958 0.28619 0.28619 0.0
O1147 O 0.84575 0.32584 0.28046 0.0
C1148 C 0.78189 0.31708 0.27919 0.0
C1149 C 0.76854 0.2152 0.31313 0.0
C1150 C 0.77388 0.20519 0.29631 0.0
C1151 C 0.74464 0.26418 0.26261 0.0
C1152 C 0.72792 0.25153 0.26579 0.0
C1153 C 0.7267 0.24029 0.27966 0.0
C1154 C 0.71258 0.25186 0.25527 0.0
C1155 C 0.69597 0.24159 0.25889 0.0
C1156 C 0.7101 0.22997 0.28331 0.0
C1157 C 0.69469 0.23078 0.2731 0.0
C1158 C 0.80667 0.30214 0.31187 0.0
C1159 C 0.8174 0.27 0.27988 0.0
C1160 C 0.85318 0.31572 0.26729 0.0
C1161 C 0.87225 0.32101 0.2659 0.0
C1162 C 0.87878 0.32107 0.2481 0.0
C1163 C 0.88402 0.32603 0.28246 0.0
C1164 C 0.90236 0.33107 0.2813 0.0
C1165 C 0.89704 0.32644 0.24693 0.0
C1166 C 0.90881 0.33145 0.26344 0.0
C1167 C 0.79229 0.27856 0.23419 0.0
H1168 H 0.7384 0.23962 0.28776 0.0
H1169 H 0.7135 0.26069 0.24465 0.0
H1170 H 0.70916 0.22151 0.29418 0.0
H1171 H 0.68186 0.22295 0.27617 0.0
H1172 H 0.86977 0.31715 0.23519 0.0
H1173 H 0.87894 0.32561 0.29618 0.0
H1174 H 0.90209 0.3265 0.23319 0.0
H1175 H 0.92295 0.33494 0.26216 0.0
Gd1176 Gd 0.04253 0.54785 0.49683 0.0
Gd1177 Gd 0.0532 0.53381 0.54172 0.0
C1178 C 0.1075 0.54596 0.57513 0.0
C1179 C 0.11166 0.51271 0.57219 0.0
C1180 C 0.0853 0.5177 0.55645 0.0
C1181 C 0.09129 0.53795 0.56343 0.0
C1182 C 0.09524 0.50479 0.56107 0.0
C1183 C 0.11776 0.53327 0.57925 0.0
C1184 C 0.11276 0.56646 0.58267 0.0
C1185 C 0.10208 0.57847 0.57831 0.0
N1186 N 0.08104 0.5498 0.5592 0.0
C1187 C 0.08623 0.56989 0.56654 0.0
H1188 H 0.07832 0.57962 0.56352 0.0
C1189 C 0.06148 0.49057 0.54174 0.0
N1190 N 0.06916 0.51052 0.54622 0.0
C1191 C 0.07097 0.47716 0.54559 0.0
C1192 C 0.08803 0.4843 0.55508 0.0
H1193 H 0.04805 0.48499 0.535 0.0
H1194 H 0.13028 0.53918 0.58814 0.0
H1195 H 0.03292 0.49514 0.48165 0.0
H1196 H 0.12489 0.57308 0.59209 0.0
H1197 H 0.10587 0.59433 0.58415 0.0
H1198 H 0.11951 0.50304 0.57583 0.0
H1199 H 0.02249 0.58554 0.50405 0.0
H1200 H 0.99 0.47757 0.43825 0.0
H1201 H 0.01346 0.4696 0.45706 0.0
H1202 H 0.97023 0.53656 0.44043 0.0
H1203 H 0.06499 0.46135 0.5415 0.0
H1204 H 0.09526 0.4739 0.55834 0.0
H1205 H 0.97418 0.50263 0.43198 0.0
H1206 H 0.99718 0.59415 0.48968 0.0
N1207 N 0.02244 0.51915 0.47641 0.0
C1208 C 0.99883 0.48924 0.44903 0.0
C1209 C 0.01214 0.48474 0.45948 0.0
C1210 C 0.9966 0.50854 0.45318 0.0
C1211 C 0.00833 0.5232 0.46756 0.0
C1212 C 0.02369 0.49977 0.47324 0.0
N1213 N 0.01585 0.55537 0.48791 0.0
C1214 C 0.00505 0.54183 0.47338 0.0
C1215 C 0.99909 0.57931 0.48509 0.0
C1216 C 0.98798 0.56561 0.47009 0.0
C1217 C 0.01323 0.57411 0.49355 0.0
C1218 C 0.99091 0.54667 0.464 0.0
H1219 H 0.97735 0.56989 0.46315 0.0
O1220 O 0.05323 0.57887 0.49629 0.0
O1221 O 0.06165 0.55391 0.52253 0.0
O1222 O 0.05044 0.56535 0.54737 0.0
O1223 O 0.03101 0.56386 0.52172 0.0
O1224 O 0.07227 0.55416 0.49645 0.0
O1225 O 0.04332 0.5561 0.46999 0.0
O1226 O 0.03143 0.51992 0.55592 0.0
O1227 O 0.03274 0.53428 0.51973 0.0
O1228 O 0.05625 0.52311 0.4885 0.0
O1229 O 0.06437 0.51541 0.5177 0.0
O1230 O 0.0299 0.50784 0.52783 0.0
O1231 O 0.05092 0.54566 0.57175 0.0
C1232 C 0.07586 0.55656 0.5146 0.0
C1233 C 0.98042 0.53271 0.44851 0.0
C1234 C 0.98291 0.51352 0.44345 0.0
C1235 C 0.05083 0.57477 0.47766 0.0
C1236 C 0.06468 0.5844 0.46742 0.0
C1237 C 0.06768 0.6049 0.46891 0.0
C1238 C 0.07282 0.57295 0.45391 0.0
C1239 C 0.08308 0.58178 0.44132 0.0
C1240 C 0.07842 0.61381 0.45664 0.0
C1241 C 0.08592 0.60223 0.44267 0.0
C1242 C 0.03809 0.57175 0.53939 0.0
C1243 C 0.02307 0.5171 0.51707 0.0
C1244 C 0.03707 0.53173 0.5725 0.0
C1245 C 0.03751 0.522 0.58837 0.0
C1246 C 0.04906 0.50969 0.58947 0.0
C1247 C 0.02562 0.52433 0.60217 0.0
C1248 C 0.02513 0.51417 0.6168 0.0
C1249 C 0.04849 0.49947 0.60399 0.0
C1250 C 0.03649 0.50162 0.61761 0.0
C1251 C 0.0636 0.51301 0.4988 0.0
H1252 H 0.06119 0.61384 0.47906 0.0
H1253 H 0.07033 0.55701 0.45235 0.0
H1254 H 0.08043 0.62956 0.45753 0.0
H1255 H 0.09358 0.60911 0.43268 0.0
H1256 H 0.05845 0.50787 0.57915 0.0
H1257 H 0.0167 0.5339 0.60148 0.0
H1258 H 0.05737 0.4899 0.60469 0.0
H1259 H 0.03621 0.49374 0.62892 0.0
Gd1260 Gd 0.82204 0.78443 0.27495 0.0
Gd1261 Gd 0.77888 0.79617 0.27054 0.0
C1262 C 0.74634 0.7838 0.21302 0.0
C1263 C 0.74389 0.8168 0.21133 0.0
C1264 C 0.76041 0.81217 0.23879 0.0
C1265 C 0.75647 0.79186 0.23093 0.0
C1266 C 0.75398 0.82481 0.22911 0.0
C1267 C 0.74011 0.79637 0.20329 0.0
C1268 C 0.74283 0.76334 0.20531 0.0
C1269 C 0.74925 0.75137 0.21544 0.0
N1270 N 0.76291 0.78004 0.24051 0.0
C1271 C 0.75914 0.75994 0.23316 0.0
H1272 H 0.76398 0.75027 0.24052 0.0
C1273 C 0.77341 0.83934 0.26469 0.0
N1274 N 0.77032 0.81959 0.25593 0.0
C1275 C 0.76738 0.85239 0.2556 0.0
C1276 C 0.75773 0.84513 0.23767 0.0
H1277 H 0.78062 0.84495 0.27875 0.0
H1278 H 0.73233 0.79042 0.18954 0.0
H1279 H 0.83876 0.82873 0.30638 0.0
H1280 H 0.73519 0.75663 0.19157 0.0
H1281 H 0.74661 0.73551 0.2096 0.0
H1282 H 0.73889 0.82629 0.20369 0.0
H1283 H 0.8245 0.73753 0.26214 0.0
H1284 H 0.8653 0.81898 0.35501 0.0
H1285 H 0.85581 0.84179 0.33761 0.0
H1286 H 0.86121 0.74916 0.33865 0.0
H1287 H 0.77006 0.86801 0.2625 0.0
H1288 H 0.75301 0.85528 0.23068 0.0
H1289 H 0.86812 0.78457 0.35463 0.0
H1290 H 0.83443 0.71261 0.27619 0.0
N1291 N 0.83744 0.79834 0.30581 0.0
C1292 C 0.85753 0.81304 0.34125 0.0
C1293 C 0.85228 0.82595 0.33145 0.0
C1294 C 0.85321 0.7927 0.33286 0.0
C1295 C 0.84291 0.78569 0.31498 0.0
C1296 C 0.84255 0.81837 0.31354 0.0
N1297 N 0.83126 0.76024 0.28775 0.0
C1298 C 0.83956 0.76594 0.3057 0.0
C1299 C 0.83586 0.72752 0.28471 0.0
C1300 C 0.84373 0.73291 0.30349 0.0
C1301 C 0.83016 0.74161 0.27685 0.0
C1302 C 0.84616 0.75248 0.31404 0.0
H1303 H 0.84851 0.72211 0.30944 0.0
O1304 O 0.83703 0.77308 0.2521 0.0
O1305 O 0.80094 0.78756 0.25457 0.0
O1306 O 0.77472 0.76358 0.27256 0.0
O1307 O 0.80208 0.75769 0.28094 0.0
O1308 O 0.80899 0.7614 0.24909 0.0
O1309 O 0.84762 0.80216 0.27009 0.0
O1310 O 0.76611 0.80662 0.29557 0.0
O1311 O 0.80006 0.79295 0.29047 0.0
O1312 O 0.82549 0.81755 0.27505 0.0
O1313 O 0.79892 0.82097 0.26165 0.0
O1314 O 0.79187 0.8192 0.29695 0.0
O1315 O 0.75063 0.78344 0.27281 0.0
C1316 C 0.79987 0.77165 0.24206 0.0
C1317 C 0.85587 0.75921 0.33209 0.0
C1318 C 0.85963 0.77935 0.34132 0.0
C1319 C 0.85035 0.78859 0.25603 0.0
C1320 C 0.86825 0.78472 0.2562 0.0
C1321 C 0.87371 0.77526 0.26973 0.0
C1322 C 0.87995 0.79027 0.24273 0.0
C1323 C 0.89706 0.78662 0.24318 0.0
C1324 C 0.89043 0.77128 0.26994 0.0
C1325 C 0.90203 0.77695 0.25685 0.0
C1326 C 0.78445 0.75192 0.27738 0.0
C1327 C 0.80175 0.80896 0.30295 0.0
C1328 C 0.75051 0.79501 0.28949 0.0
C1329 C 0.73539 0.80442 0.29308 0.0
C1330 C 0.73683 0.82352 0.29014 0.0
C1331 C 0.72042 0.79557 0.30151 0.0
C1332 C 0.70717 0.80596 0.30691 0.0
C1333 C 0.72403 0.83383 0.29549 0.0
C1334 C 0.70949 0.8253 0.30397 0.0
C1335 C 0.8161 0.82809 0.26764 0.0
H1336 H 0.86509 0.77094 0.28017 0.0
H1337 H 0.8759 0.79766 0.23225 0.0
H1338 H 0.89445 0.76385 0.28038 0.0
H1339 H 0.91498 0.77375 0.25737 0.0
H1340 H 0.74822 0.8309 0.28441 0.0
H1341 H 0.71922 0.78086 0.30398 0.0
H1342 H 0.72561 0.84874 0.29344 0.0
H1343 H 0.70021 0.83418 0.30855 0.0
Gd1344 Gd 0.79158 0.30059 0.7946 0.0
Gd1345 Gd 0.81046 0.28245 0.75102 0.0
C1346 C 0.78447 0.22181 0.711 0.0
C1347 C 0.80862 0.20544 0.70925 0.0
C1348 C 0.8122 0.2381 0.73049 0.0
C1349 C 0.79524 0.23837 0.72436 0.0
C1350 C 0.81904 0.22154 0.72307 0.0
C1351 C 0.79136 0.20559 0.70319 0.0
C1352 C 0.76687 0.22168 0.70634 0.0
C1353 C 0.75992 0.23684 0.71621 0.0
N1354 N 0.78884 0.2541 0.73252 0.0
C1355 C 0.77098 0.25263 0.72966 0.0
H1356 H 0.76473 0.263 0.73802 0.0
C1357 C 0.83901 0.25418 0.74978 0.0
N1358 N 0.82184 0.25376 0.74409 0.0
C1359 C 0.84627 0.23809 0.74304 0.0
C1360 C 0.83622 0.22163 0.72966 0.0
H1361 H 0.84763 0.26725 0.75887 0.0
H1362 H 0.78329 0.19287 0.69282 0.0
H1363 H 0.83731 0.3191 0.80806 0.0
H1364 H 0.75838 0.20945 0.69584 0.0
H1365 H 0.74598 0.23627 0.71371 0.0
H1366 H 0.81371 0.1927 0.70332 0.0
H1367 H 0.75366 0.31415 0.78749 0.0
H1368 H 0.84421 0.37547 0.84607 0.0
H1369 H 0.8563 0.34752 0.83046 0.0
H1370 H 0.78758 0.38988 0.84017 0.0
H1371 H 0.85981 0.23867 0.74779 0.0
H1372 H 0.84194 0.20924 0.72428 0.0
H1373 H 0.8182 0.3902 0.85066 0.0
H1374 H 0.74131 0.34284 0.79734 0.0
N1375 N 0.81357 0.32935 0.81123 0.0
C1376 C 0.83559 0.36275 0.83617 0.0
C1377 C 0.84241 0.34696 0.82753 0.0
C1378 C 0.81789 0.36225 0.83141 0.0
C1379 C 0.80724 0.34548 0.81823 0.0
C1380 C 0.83124 0.3304 0.81504 0.0
N1381 N 0.78007 0.32907 0.7995 0.0
C1382 C 0.79008 0.34539 0.8121 0.0
C1383 C 0.75517 0.34401 0.80126 0.0
C1384 C 0.76548 0.36106 0.81365 0.0
C1385 C 0.76252 0.32792 0.79491 0.0
C1386 C 0.78297 0.36172 0.81963 0.0
H1387 H 0.75959 0.3733 0.81912 0.0
O1388 O 0.76463 0.28949 0.80094 0.0
O1389 O 0.78979 0.27539 0.76981 0.0
O1390 O 0.78745 0.29259 0.7395 0.0
O1391 O 0.77466 0.30225 0.76788 0.0
O1392 O 0.78793 0.2687 0.79629 0.0
O1393 O 0.78598 0.30373 0.8241 0.0
O1394 O 0.83822 0.29514 0.74927 0.0
O1395 O 0.81218 0.30789 0.77577 0.0
O1396 O 0.81425 0.29005 0.80594 0.0
O1397 O 0.82613 0.27911 0.77741 0.0
O1398 O 0.81176 0.31366 0.74855 0.0
O1399 O 0.82003 0.28221 0.7233 0.0
C1400 C 0.78817 0.26154 0.77833 0.0
C1401 C 0.79316 0.37774 0.83363 0.0
C1402 C 0.81055 0.37795 0.83957 0.0
C1403 C 0.76898 0.29616 0.8193 0.0
C1404 C 0.75835 0.28666 0.83239 0.0
C1405 C 0.74304 0.29296 0.83732 0.0
C1406 C 0.76343 0.27244 0.84067 0.0
C1407 C 0.75317 0.26465 0.85409 0.0
C1408 C 0.73289 0.28532 0.85062 0.0
C1409 C 0.73794 0.27134 0.85905 0.0
C1410 C 0.77495 0.29942 0.74892 0.0
C1411 C 0.81257 0.32118 0.76664 0.0
C1412 C 0.83622 0.29168 0.73067 0.0
C1413 C 0.84575 0.30755 0.72224 0.0
C1414 C 0.86404 0.31554 0.72744 0.0
C1415 C 0.83718 0.31381 0.7081 0.0
C1416 C 0.84689 0.32739 0.69876 0.0
C1417 C 0.87366 0.32944 0.71837 0.0
C1418 C 0.86516 0.33522 0.70389 0.0
C1419 C 0.82616 0.28242 0.7963 0.0
H1420 H 0.73909 0.30407 0.83108 0.0
H1421 H 0.77529 0.26761 0.83677 0.0
H1422 H 0.72122 0.29045 0.85459 0.0
H1423 H 0.7301 0.26609 0.86978 0.0
H1424 H 0.87092 0.31077 0.73828 0.0
H1425 H 0.82312 0.3076 0.70379 0.0
H1426 H 0.88776 0.33546 0.72233 0.0
H1427 H 0.8728 0.34573 0.69668 0.0
Gd1428 Gd 0.79322 0.77839 0.76889 0.0
Gd1429 Gd 0.81928 0.82934 0.78848 0.0
C1430 C 0.87599 0.84291 0.77078 0.0
C1431 C 0.89378 0.84899 0.80089 0.0
C1432 C 0.86147 0.83834 0.7991 0.0
C1433 C 0.86029 0.83832 0.77986 0.0
C1434 C 0.87832 0.84382 0.8098 0.0
C1435 C 0.89263 0.84844 0.78142 0.0
C1436 C 0.87462 0.84144 0.75114 0.0
C1437 C 0.85798 0.83525 0.74091 0.0
N1438 N 0.84398 0.83299 0.76983 0.0
C1439 C 0.84284 0.8311 0.75044 0.0
H1440 H 0.83055 0.82612 0.74172 0.0
C1441 C 0.84731 0.83446 0.82676 0.0
N1442 N 0.84629 0.83295 0.80737 0.0
C1443 C 0.86364 0.83962 0.83778 0.0
C1444 C 0.87922 0.8442 0.82925 0.0
H1445 H 0.83566 0.83272 0.83438 0.0
H1446 H 0.90471 0.85218 0.77467 0.0
H1447 H 0.77943 0.77004 0.8124 0.0
H1448 H 0.88634 0.8447 0.74369 0.0
H1449 H 0.85675 0.83365 0.7256 0.0
H1450 H 0.90674 0.85331 0.80894 0.0
H1451 H 0.77903 0.77126 0.72217 0.0
H1452 H 0.72355 0.75973 0.80909 0.0
H1453 H 0.75228 0.76373 0.82722 0.0
H1454 H 0.70641 0.75829 0.74452 0.0
H1455 H 0.86414 0.84061 0.85301 0.0
H1456 H 0.89187 0.84844 0.8379 0.0
H1457 H 0.70669 0.75744 0.77831 0.0
H1458 H 0.75141 0.76433 0.70203 0.0
N1459 N 0.76749 0.77199 0.78566 0.0
C1460 C 0.73571 0.76309 0.80238 0.0
C1461 C 0.75188 0.76537 0.81264 0.0
C1462 C 0.73537 0.7646 0.78341 0.0
C1463 C 0.75162 0.76923 0.7753 0.0
C1464 C 0.76758 0.76942 0.80399 0.0
N1465 N 0.76707 0.77411 0.74855 0.0
C1466 C 0.75142 0.77026 0.7563 0.0
C1467 C 0.75116 0.76655 0.71729 0.0
C1468 C 0.73513 0.76443 0.72527 0.0
C1469 C 0.76694 0.77087 0.72903 0.0
C1470 C 0.73504 0.76578 0.74488 0.0
H1471 H 0.72286 0.76077 0.71605 0.0
O1472 O 0.79885 0.75982 0.743 0.0
O1473 O 0.81917 0.80017 0.77021 0.0
O1474 O 0.80727 0.8315 0.76032 0.0
O1475 O 0.79512 0.79758 0.74735 0.0
O1476 O 0.81978 0.77294 0.77573 0.0
O1477 O 0.78411 0.74641 0.76395 0.0
O1478 O 0.81767 0.84912 0.8154 0.0
O1479 O 0.79353 0.80751 0.78742 0.0
O1480 O 0.80442 0.77741 0.79767 0.0
O1481 O 0.81468 0.8115 0.81116 0.0
O1482 O 0.79238 0.83546 0.78407 0.0
O1483 O 0.82859 0.86108 0.79187 0.0
C1484 C 0.82932 0.78989 0.77426 0.0
C1485 C 0.71903 0.76166 0.75308 0.0
C1486 C 0.71919 0.76113 0.7723 0.0
C1487 C 0.78993 0.74361 0.74708 0.0
C1488 C 0.79511 0.72526 0.73969 0.0
C1489 C 0.78547 0.71246 0.72308 0.0
C1490 C 0.80864 0.71991 0.74916 0.0
C1491 C 0.81201 0.70111 0.74252 0.0
C1492 C 0.78891 0.69403 0.71619 0.0
C1493 C 0.80187 0.68821 0.72595 0.0
C1494 C 0.79884 0.81638 0.74627 0.0
C1495 C 0.78318 0.81804 0.78468 0.0
C1496 C 0.82466 0.86498 0.80953 0.0
C1497 C 0.81729 0.88208 0.81593 0.0
C1498 C 0.82005 0.89182 0.83535 0.0
C1499 C 0.80851 0.8895 0.80292 0.0
C1500 C 0.80301 0.907 0.80916 0.0
C1501 C 0.81435 0.90912 0.84164 0.0
C1502 C 0.80597 0.91683 0.82858 0.0
C1503 C 0.81124 0.79267 0.81216 0.0
H1504 H 0.77501 0.71659 0.71565 0.0
H1505 H 0.81618 0.73025 0.76177 0.0
H1506 H 0.7812 0.684 0.70354 0.0
H1507 H 0.80344 0.67332 0.72073 0.0
H1508 H 0.82687 0.8862 0.84556 0.0
H1509 H 0.80646 0.88206 0.78789 0.0
H1510 H 0.81657 0.91666 0.85662 0.0
H1511 H 0.8017 0.93033 0.83363 0.0
Gd1512 Gd 0.56626 0.5518 0.5289 0.0
Gd1513 Gd 0.52307 0.52652 0.50382 0.0
C1514 C 0.49658 0.46165 0.50279 0.0
C1515 C 0.49129 0.44663 0.46878 0.0
C1516 C 0.50657 0.48154 0.48025 0.0
C1517 C 0.50536 0.47989 0.4989 0.0
C1518 C 0.4993 0.46499 0.46496 0.0
C1519 C 0.48976 0.44503 0.48766 0.0
C1520 C 0.49407 0.46089 0.5217 0.0
C1521 C 0.50006 0.478 0.53617 0.0
N1522 N 0.51141 0.49646 0.51315 0.0
C1523 C 0.50848 0.49573 0.53163 0.0
H1524 H 0.51281 0.50857 0.54328 0.0
C1525 C 0.51224 0.50262 0.45891 0.0
N1526 N 0.51345 0.49971 0.47702 0.0
C1527 C 0.50571 0.48661 0.44327 0.0
C1528 C 0.49939 0.46763 0.44629 0.0
H1529 H 0.51647 0.51743 0.45657 0.0
H1530 H 0.48274 0.43103 0.49037 0.0
H1531 H 0.5787 0.56968 0.48959 0.0
H1532 H 0.48702 0.44737 0.52523 0.0
H1533 H 0.49801 0.47763 0.55086 0.0
H1534 H 0.48558 0.43379 0.45724 0.0
H1535 H 0.57356 0.56134 0.57617 0.0
H1536 H 0.59972 0.63201 0.5072 0.0
H1537 H 0.59181 0.60102 0.48195 0.0
H1538 H 0.60055 0.64562 0.5751 0.0
H1539 H 0.50523 0.48898 0.42895 0.0
H1540 H 0.49396 0.45528 0.43419 0.0
H1541 H 0.60306 0.64841 0.54187 0.0
H1542 H 0.5841 0.59008 0.60364 0.0
N1543 N 0.57833 0.58188 0.51949 0.0
C1544 C 0.5938 0.61809 0.51081 0.0
C1545 C 0.58946 0.60064 0.49656 0.0
C1546 C 0.59116 0.61723 0.52966 0.0
C1547 C 0.58334 0.59871 0.53361 0.0
C1548 C 0.58196 0.58263 0.50117 0.0
N1549 N 0.57602 0.57886 0.55552 0.0
C1550 C 0.58209 0.59714 0.55224 0.0
C1551 C 0.58347 0.59233 0.58928 0.0
C1552 C 0.58879 0.6114 0.58619 0.0
C1553 C 0.57748 0.57612 0.57369 0.0
C1554 C 0.58859 0.61395 0.56749 0.0
H1555 H 0.59367 0.62394 0.59826 0.0
O1556 O 0.58469 0.54234 0.54599 0.0
O1557 O 0.54751 0.52205 0.51752 0.0
O1558 O 0.52015 0.53883 0.53568 0.0
O1559 O 0.54704 0.55975 0.55065 0.0
O1560 O 0.55772 0.52893 0.54587 0.0
O1561 O 0.59082 0.54725 0.51806 0.0
O1562 O 0.50501 0.53768 0.48794 0.0
O1563 O 0.54183 0.55598 0.51548 0.0
O1564 O 0.56924 0.5399 0.49703 0.0
O1565 O 0.54237 0.51934 0.48164 0.0
O1566 O 0.53141 0.54992 0.48728 0.0
O1567 O 0.4973 0.5282 0.5136 0.0
C1568 C 0.54829 0.51508 0.53224 0.0
C1569 C 0.59557 0.63254 0.56359 0.0
C1570 C 0.59696 0.63413 0.54469 0.0
C1571 C 0.59619 0.54275 0.53352 0.0
C1572 C 0.61465 0.55135 0.54079 0.0
C1573 C 0.62056 0.56975 0.55396 0.0
C1574 C 0.62662 0.54034 0.53418 0.0
C1575 C 0.64457 0.54745 0.54052 0.0
C1576 C 0.6386 0.57694 0.56042 0.0
C1577 C 0.65066 0.56585 0.55366 0.0
C1578 C 0.52996 0.55134 0.55099 0.0
C1579 C 0.54116 0.56331 0.50105 0.0
C1580 C 0.49268 0.53505 0.49932 0.0
C1581 C 0.47446 0.52724 0.49036 0.0
C1582 C 0.46964 0.51081 0.47473 0.0
C1583 C 0.46192 0.53761 0.49697 0.0
C1584 C 0.44465 0.5322 0.48774 0.0
C1585 C 0.45245 0.50518 0.46551 0.0
C1586 C 0.44002 0.51589 0.47185 0.0
C1587 C 0.5595 0.52779 0.48148 0.0
H1588 H 0.61138 0.57847 0.5592 0.0
H1589 H 0.62195 0.52617 0.52388 0.0
H1590 H 0.64323 0.59107 0.57065 0.0
H1591 H 0.66461 0.57147 0.55878 0.0
H1592 H 0.47911 0.50251 0.46951 0.0
H1593 H 0.46574 0.55 0.50936 0.0
H1594 H 0.4488 0.49264 0.4533 0.0
H1595 H 0.42689 0.51151 0.46421 0.0
Gd1596 Gd 0.02271 0.53924 0.02607 0.0
Gd1597 Gd 0.06638 0.5423 0.00697 0.0
C1598 C 0.10639 0.60232 0.01605 0.0
C1599 C 0.10914 0.60598 0.98352 0.0
C1600 C 0.08949 0.57655 0.9897 0.0
C1601 C 0.09392 0.58395 0.00911 0.0
C1602 C 0.09739 0.58723 0.97664 0.0
C1603 C 0.11365 0.61351 0.00321 0.0
C1604 C 0.11173 0.60854 0.03563 0.0
C1605 C 0.10492 0.59645 0.04775 0.0
N1606 N 0.08691 0.57263 0.02111 0.0
C1607 C 0.09266 0.57832 0.04018 0.0
H1608 H 0.08767 0.5692 0.04983 0.0
C1609 C 0.07576 0.54901 0.96454 0.0
N1610 N 0.07841 0.55825 0.98353 0.0
C1611 C 0.08309 0.55908 0.95102 0.0
C1612 C 0.09376 0.5784 0.95708 0.0
H1613 H 0.06769 0.53397 0.9599 0.0
H1614 H 0.12312 0.62775 0.00832 0.0
H1615 H 0.99803 0.5126 0.98469 0.0
H1616 H 0.12155 0.62229 0.04138 0.0
H1617 H 0.1092 0.60102 0.06289 0.0
H1618 H 0.11523 0.6145 0.97373 0.0
H1619 H 0.02115 0.54974 0.07302 0.0
H1620 H 0.96539 0.4597 0.99509 0.0
H1621 H 0.97545 0.48139 0.97316 0.0
H1622 H 0.97509 0.46891 0.06279 0.0
H1623 H 0.0806 0.5519 0.93597 0.0
H1624 H 0.09958 0.58612 0.9466 0.0
H1625 H 0.96588 0.4548 0.02852 0.0
H1626 H 0.00896 0.53302 0.09802 0.0
N1627 N 0.00128 0.50905 0.01323 0.0
C1628 C 0.97539 0.47351 1.00034 0.0
C1629 C 0.98097 0.48575 0.98795 0.0
C1630 C 0.98211 0.47975 0.01957 0.0
C1631 C 0.99498 0.49797 0.02571 0.0
C1632 C 0.99395 0.50355 0.99465 0.0
N1633 N 0.01092 0.52438 0.05031 0.0
C1634 C 1.00002 0.5059 0.04492 0.0
C1635 C 0.00648 0.52513 0.08315 0.0
C1636 C 0.99631 0.50553 0.07795 0.0
C1637 C 0.0134 0.53452 0.069 0.0
C1638 C 0.99253 0.49585 0.0586 0.0
H1639 H 0.99081 0.49833 0.08891 0.0
O1640 O 0.01226 0.56306 0.0418 0.0
O1641 O 0.04799 0.5592 0.0214 0.0
O1642 O 0.06676 0.53874 0.0372 0.0
O1643 O 0.03798 0.52555 0.04414 0.0
O1644 O 0.03917 0.5656 0.04803 0.0
O1645 O 1.00027 0.54712 0.01339 0.0
O1646 O 0.07803 0.51978 0.99068 0.0
O1647 O 0.04123 0.52278 0.01162 0.0
O1648 O 0.02171 0.54056 0.99514 0.0
O1649 O 0.05031 0.55398 0.98793 0.0
O1650 O 0.05019 0.51495 0.98572 0.0
O1651 O 0.08882 0.53453 0.01977 0.0
C1652 C 0.05107 0.57166 0.03733 0.0
C1653 C 0.9808 0.47699 0.05251 0.0
C1654 C 0.97557 0.46895 0.033 0.0
C1655 C 0.99937 0.56043 0.02864 0.0
C1656 C 0.9817 0.55968 0.03519 0.0
C1657 C 0.97509 0.54752 0.0475 0.0
C1658 C 0.97131 0.5713 0.02908 0.0
C1659 C 0.95433 0.57064 0.03515 0.0
C1660 C 0.9584 0.54713 0.05384 0.0
C1661 C 0.94803 0.5586 0.04771 0.0
C1662 C 0.05542 0.52949 0.04734 0.0
C1663 C 0.03818 0.50926 0.99648 0.0
C1664 C 0.09035 0.52181 0.00432 0.0
C1665 C 0.10843 0.52272 0.99879 0.0
C1666 C 0.1161 0.53589 0.98781 0.0
C1667 C 0.11818 0.51029 0.00465 0.0
C1668 C 0.13562 0.51124 0.99979 0.0
C1669 C 0.13329 0.53666 0.98273 0.0
C1670 C 0.14303 0.52449 0.98872 0.0
C1671 C 0.03292 0.5488 0.98431 0.0
H1672 H 0.98275 0.53835 0.05226 0.0
H1673 H 0.97629 0.58056 0.01941 0.0
H1674 H 0.95345 0.53786 0.06347 0.0
H1675 H 0.9351 0.55812 0.05284 0.0
H1676 H 0.10884 0.54555 0.98316 0.0
H1677 H 0.11234 0.50021 0.01327 0.0
H1678 H 0.13911 0.54679 0.97419 0.0
H1679 H 0.15637 0.52536 0.98464 0.0
H1680 H 0.99317 0.22117 0.97836 0.0
H1681 H 1.00047 0.19461 0.99152 0.0
H1682 H 0.04389 0.19385 0.95658 0.0
H1683 H 0.03689 0.22043 0.94351 0.0
H1684 H 0.01912 0.15649 0.95242 0.0
H1685 H 0.05195 0.21168 0.00403 0.0
H1686 H 0.05408 0.24098 0.03043 0.0
H1687 H 0.01581 0.2061 0.0585 0.0
H1688 H 0.01328 0.17666 0.03214 0.0
H1689 H 0.05431 0.0833 0.97422 0.0
H1690 H 0.05184 0.11575 0.97051 0.0
H1691 H 0.02491 0.12336 0.0217 0.0
H1692 H 0.02992 0.09191 0.02689 0.0
H1693 H 0.03855 0.15739 0.01917 0.0
H1694 H 0.00277 0.10427 0.97191 0.0
H1695 H 0.99557 0.07327 0.94667 0.0
H1696 H 0.03088 0.10159 0.91124 0.0
H1697 H 0.03847 0.13267 0.93638 0.0
C1698 C 0.00449 0.21563 0.97372 0.0
C1699 C 0.0144 0.22302 0.95979 0.0
C1700 C 0.00866 0.20044 0.98132 0.0
C1701 C 0.02275 0.19221 0.97507 0.0
C1702 C 0.03298 0.19997 0.96165 0.0
C1703 C 0.02897 0.21526 0.95422 0.0
C1704 C 0.02595 0.17439 0.98107 0.0
C1705 C 0.0236 0.15676 0.96698 0.0
C1706 C 0.03071 0.17432 1.00025 0.0
C1707 C 0.03231 0.19204 0.01603 0.0
C1708 C 0.04388 0.21031 0.01575 0.0
C1709 C 0.04518 0.22693 0.03073 0.0
C1710 C 0.03506 0.22541 0.04611 0.0
C1711 C 0.02363 0.20726 0.04657 0.0
C1712 C 0.02228 0.19061 0.03163 0.0
C1713 C 0.04849 0.09228 0.98508 0.0
C1714 C 0.04266 0.08528 1.00102 0.0
C1715 C 0.04667 0.11069 0.98273 0.0
C1716 C 0.0373 0.12178 0.99521 0.0
C1717 C 0.03202 0.11516 0.01165 0.0
C1718 C 0.0349 0.09717 0.01466 0.0
C1719 C 0.03231 0.13948 0.99034 0.0
C1720 C 0.03409 0.15701 0.00459 0.0
C1721 C 0.02611 0.13924 0.97141 0.0
C1722 C 0.02126 0.12074 0.95607 0.0
C1723 C 0.00902 0.10386 0.95875 0.0
C1724 C 0.00489 0.08627 0.94447 0.0
C1725 C 0.01279 0.08546 0.92738 0.0
C1726 C 0.02478 0.10224 0.92449 0.0
C1727 C 0.02898 0.11985 0.93874 0.0
H1728 H 0.00959 0.07182 0.91635 0.0
H1729 H 0.03609 0.2383 0.05769 0.0
H1730 H 0.15129 0.86026 0.16933 0.0
H1731 H 0.17763 0.85339 0.18363 0.0
H1732 H 0.15732 0.79093 0.15834 0.0
H1733 H 0.13101 0.79781 0.14353 0.0
H1734 H 0.16897 0.79855 0.19737 0.0
H1735 H 0.19236 0.81517 0.14152 0.0
H1736 H 0.2007 0.83443 0.11731 0.0
H1737 H 0.23264 0.88274 0.16063 0.0
H1738 H 0.22427 0.86386 0.18514 0.0
H1739 H 0.25485 0.77405 0.21277 0.0
H1740 H 0.22899 0.7794 0.1959 0.0
H1741 H 0.2358 0.83638 0.23486 0.0
H1742 H 0.26125 0.83077 0.25231 0.0
H1743 H 0.2309 0.83008 0.18849 0.0
H1744 H 0.20619 0.81331 0.24461 0.0
H1745 H 0.19915 0.79274 0.268 0.0
H1746 H 0.17016 0.74379 0.22333 0.0
H1747 H 0.17744 0.76395 0.19957 0.0
C1748 C 0.1525 0.84507 0.16652 0.0
C1749 C 0.13897 0.82964 0.15509 0.0
C1750 C 0.16765 0.84115 0.17474 0.0
C1751 C 0.16965 0.82162 0.17212 0.0
C1752 C 0.15622 0.80615 0.16061 0.0
C1753 C 0.14119 0.81012 0.15201 0.0
C1754 C 0.18535 0.81746 0.18206 0.0
C1755 C 0.18248 0.80527 0.19517 0.0
C1756 C 0.20315 0.82644 0.17968 0.0
C1757 C 0.20745 0.83823 0.16519 0.0
C1758 C 0.20091 0.83003 0.14593 0.0
C1759 C 0.20572 0.84084 0.13214 0.0
C1760 C 0.21713 0.85983 0.13744 0.0
C1761 C 0.22375 0.86806 0.15655 0.0
C1762 C 0.21897 0.85732 0.17039 0.0
C1763 C 0.25081 0.78765 0.21794 0.0
C1764 C 0.25992 0.80171 0.23436 0.0
C1765 C 0.23595 0.79068 0.20822 0.0
C1766 C 0.23016 0.80812 0.21429 0.0
C1767 C 0.23976 0.82263 0.23008 0.0
C1768 C 0.25429 0.81935 0.24012 0.0
C1769 C 0.21445 0.81144 0.2038 0.0
C1770 C 0.21735 0.82341 0.1906 0.0
C1771 C 0.19674 0.80228 0.20611 0.0
C1772 C 0.19268 0.79 0.22026 0.0
C1773 C 0.19862 0.79804 0.23971 0.0
C1774 C 0.19451 0.78649 0.25305 0.0
C1775 C 0.18429 0.76693 0.24714 0.0
C1776 C 0.17814 0.75891 0.22787 0.0
C1777 C 0.18228 0.77038 0.21446 0.0
H1778 H 0.18107 0.75803 0.2575 0.0
H1779 H 0.22089 0.86814 0.12673 0.0
H1780 H 0.49741 0.8165 0.48158 0.0
H1781 H 0.50442 0.85243 0.4943 0.0
H1782 H 0.53428 0.86098 0.44649 0.0
H1783 H 0.52806 0.82503 0.43427 0.0
H1784 H 0.55035 0.8871 0.47503 0.0
H1785 H 0.48919 0.86565 0.45043 0.0
H1786 H 0.45822 0.84593 0.44704 0.0
H1787 H 0.45373 0.87046 0.50602 0.0
H1788 H 0.48479 0.8901 0.50986 0.0
H1789 H 0.54426 0.98642 0.47733 0.0
H1790 H 0.53623 0.94992 0.46736 0.0
H1791 H 0.52851 0.94665 0.52554 0.0
H1792 H 0.53722 0.98314 0.53561 0.0
H1793 H 0.50095 0.91855 0.493 0.0
H1794 H 0.56384 0.94191 0.51492 0.0
H1795 H 0.59413 0.96212 0.51473 0.0
H1796 H 0.59424 0.93393 0.4557 0.0
H1797 H 0.56372 0.914 0.45536 0.0
C1798 C 0.50568 0.82602 0.47391 0.0
C1799 C 0.51209 0.81783 0.45683 0.0
C1800 C 0.50955 0.84664 0.48111 0.0
C1801 C 0.51947 0.85963 0.47112 0.0
C1802 C 0.5265 0.85142 0.45449 0.0
C1803 C 0.52295 0.83078 0.44749 0.0
C1804 C 0.52226 0.88169 0.4777 0.0
C1805 C 0.53946 0.89388 0.47874 0.0
C1806 C 0.50815 0.89079 0.48279 0.0
C1807 C 0.4894 0.87917 0.48049 0.0
C1808 C 0.48164 0.86674 0.46272 0.0
C1809 C 0.46407 0.85558 0.46071 0.0
C1810 C 0.45403 0.85689 0.47632 0.0
C1811 C 0.46153 0.86942 0.49395 0.0
C1812 C 0.47913 0.88058 0.49606 0.0
C1813 C 0.54049 0.97785 0.48786 0.0
C1814 C 0.541 0.98745 0.50715 0.0
C1815 C 0.53598 0.95707 0.4822 0.0
C1816 C 0.53179 0.9456 0.49572 0.0
C1817 C 0.53164 0.95522 0.51489 0.0
C1818 C 0.53659 0.976 0.52062 0.0
C1819 C 0.52891 0.92365 0.49009 0.0
C1820 C 0.51175 0.9116 0.48929 0.0
C1821 C 0.54294 0.91468 0.48473 0.0
C1822 C 0.56135 0.92666 0.48504 0.0
C1823 C 0.5702 0.94023 0.50182 0.0
C1824 C 0.58744 0.95161 0.50182 0.0
C1825 C 0.59607 0.94936 0.48518 0.0
C1826 C 0.5875 0.9357 0.46855 0.0
C1827 C 0.57023 0.92439 0.46844 0.0
H1828 H 0.60941 0.95812 0.48513 0.0
H1829 H 0.44042 0.84824 0.47473 0.0
H1830 H 0.52805 0.33471 0.64338 0.0
H1831 H 0.50009 0.33018 0.65814 0.0
H1832 H 0.50724 0.27532 0.66948 0.0
H1833 H 0.53582 0.28029 0.65549 0.0
H1834 H 0.46863 0.28265 0.64931 0.0
H1835 H 0.5147 0.29903 0.70408 0.0
H1836 H 0.54243 0.32051 0.72235 0.0
H1837 H 0.52009 0.37112 0.72865 0.0
H1838 H 0.49237 0.34997 0.70996 0.0
H1839 H 0.40753 0.25548 0.71521 0.0
H1840 H 0.43147 0.2615 0.6947 0.0
H1841 H 0.43802 0.32467 0.71459 0.0
H1842 H 0.41381 0.31858 0.73504 0.0
H1843 H 0.46931 0.31565 0.71756 0.0
H1844 H 0.42349 0.30257 0.66876 0.0
H1845 H 0.39582 0.28613 0.64777 0.0
H1846 H 0.41625 0.23505 0.6276 0.0
H1847 H 0.44396 0.25104 0.64872 0.0
C1848 C 0.52363 0.32159 0.64891 0.0
C1849 C 0.53416 0.30784 0.64829 0.0
C1850 C 0.50764 0.31905 0.65734 0.0
C1851 C 0.50156 0.30243 0.66492 0.0
C1852 C 0.51171 0.28828 0.66375 0.0
C1853 C 0.52804 0.29114 0.65581 0.0
C1854 C 0.48499 0.3004 0.67474 0.0
C1855 C 0.46876 0.2895 0.66432 0.0
C1856 C 0.48502 0.31037 0.69398 0.0
C1857 C 0.50159 0.32299 0.70537 0.0
C1858 C 0.5158 0.31478 0.70912 0.0
C1859 C 0.5315 0.32689 0.71959 0.0
C1860 C 0.53305 0.34719 0.72659 0.0
C1861 C 0.51889 0.35541 0.72316 0.0
C1862 C 0.50319 0.34337 0.71262 0.0
C1863 C 0.4138 0.27064 0.71485 0.0
C1864 C 0.40875 0.28655 0.72667 0.0
C1865 C 0.42749 0.27409 0.7031 0.0
C1866 C 0.43667 0.29356 0.70303 0.0
C1867 C 0.43121 0.30951 0.71435 0.0
C1868 C 0.41728 0.30603 0.72593 0.0
C1869 C 0.4528 0.29707 0.69241 0.0
C1870 C 0.46902 0.30852 0.70259 0.0
C1871 C 0.45263 0.28798 0.67279 0.0
C1872 C 0.43575 0.27793 0.66054 0.0
C1873 C 0.422 0.28771 0.66007 0.0
C1874 C 0.40633 0.27851 0.64808 0.0
C1875 C 0.40426 0.25953 0.6364 0.0
C1876 C 0.41786 0.24973 0.63669 0.0
C1877 C 0.43356 0.25887 0.64866 0.0
H1878 H 0.39213 0.25245 0.62709 0.0
H1879 H 0.54521 0.35653 0.73473 0.0
H1880 H 0.01521 0.83722 0.64541 0.0
H1881 H 0.02352 0.85965 0.62408 0.0
H1882 H 0.99446 0.81399 0.57625 0.0
H1883 H 0.98541 0.79171 0.59771 0.0
H1884 H 0.03862 0.84438 0.58098 0.0
H1885 H 0.97259 0.83537 0.57509 0.0
H1886 H 0.94566 0.8328 0.59212 0.0
H1887 H 0.96871 0.8898 0.62971 0.0
H1888 H 0.99595 0.89245 0.6131 0.0
H1889 H 0.04537 0.89631 0.50965 0.0
H1890 H 0.03166 0.87244 0.52774 0.0
H1891 H 0.02892 0.92062 0.57469 0.0
H1892 H 0.04234 0.94463 0.55643 0.0
H1893 H 1.00003 0.88878 0.5709 0.0
H1894 H 0.0633 0.90109 0.5759 0.0
H1895 H 0.09265 0.90472 0.5636 0.0
H1896 H 0.07779 0.84367 0.53255 0.0
H1897 H 0.04824 0.83978 0.54447 0.0
C1898 C 0.01066 0.83199 0.63033 0.0
C1899 C 0.99963 0.8129 0.62308 0.0
C1900 C 0.0154 0.84475 0.61824 0.0
C1901 C 0.00946 0.83837 0.59877 0.0
C1902 C 0.99895 0.81909 0.59135 0.0
C1903 C 0.9938 0.80648 0.60353 0.0
C1904 C 0.01393 0.85222 0.58635 0.0
C1905 C 0.03008 0.85382 0.57838 0.0
C1906 C 0.00303 0.86498 0.58384 0.0
C1907 C 0.98628 0.86406 0.59294 0.0
C1908 C 0.97191 0.84732 0.58702 0.0
C1909 C 0.95661 0.84583 0.5966 0.0
C1910 C 0.95548 0.86112 0.61201 0.0
C1911 C 0.96961 0.87797 0.61778 0.0
C1912 C 0.98497 0.87948 0.60828 0.0
C1913 C 0.04159 0.90177 0.52371 0.0
C1914 C 0.0451 0.92224 0.53178 0.0
C1915 C 0.03374 0.88817 0.53399 0.0
C1916 C 0.02958 0.89481 0.55264 0.0
C1917 C 0.03204 0.91524 0.56031 0.0
C1918 C 0.03973 0.9289 0.5499 0.0
C1919 C 0.02454 0.8805 0.56473 0.0
C1920 C 0.00845 0.87907 0.57304 0.0
C1921 C 0.03567 0.86804 0.56782 0.0
C1922 C 0.05353 0.87019 0.56094 0.0
C1923 C 0.06627 0.88848 0.56637 0.0
C1924 C 0.08294 0.89058 0.55947 0.0
C1925 C 0.08707 0.87445 0.54726 0.0
C1926 C 0.07456 0.85616 0.54199 0.0
C1927 C 0.05786 0.85399 0.54883 0.0
H1928 H 0.09998 0.87611 0.54192 0.0
H1929 H 0.94364 0.85992 0.61945 0.0
H1930 H 0.53085 0.80975 0.87639 0.0
H1931 H 0.50589 0.82343 0.87126 0.0
H1932 H 0.5204 0.82754 0.81501 0.0
H1933 H 0.54571 0.81345 0.82004 0.0
H1934 H 0.50547 0.86076 0.83849 0.0
H1935 H 0.49398 0.78706 0.81575 0.0
H1936 H 0.49566 0.75526 0.82326 0.0
H1937 H 0.46486 0.76662 0.87054 0.0
H1938 H 0.46322 0.79861 0.86341 0.0
H1939 H 0.43367 0.84951 0.77348 0.0
H1940 H 0.45979 0.85205 0.79413 0.0
H1941 H 0.42723 0.82233 0.83125 0.0
H1942 H 0.40136 0.81685 0.80909 0.0
H1943 H 0.4508 0.80585 0.82601 0.0
H1944 H 0.45432 0.87393 0.84501 0.0
H1945 H 0.45325 0.90755 0.8422 0.0
H1946 H 0.49818 0.91069 0.8095 0.0
H1947 H 0.49937 0.87697 0.81186 0.0
C1948 C 0.5288 0.81322 0.86286 0.0
C1949 C 0.53982 0.80954 0.84828 0.0
C1950 C 0.51471 0.82158 0.86015 0.0
C1951 C 0.51134 0.8263 0.84276 0.0
C1952 C 0.52295 0.824 0.82859 0.0
C1953 C 0.53719 0.81571 0.83137 0.0
C1954 C 0.49414 0.83015 0.8381 0.0
C1955 C 0.49342 0.84889 0.83566 0.0
C1956 C 0.47846 0.81488 0.83561 0.0
C1957 C 0.47853 0.79516 0.8391 0.0
C1958 C 0.48756 0.78272 0.82772 0.0
C1959 C 0.48853 0.76471 0.83193 0.0
C1960 C 0.48039 0.75893 0.84738 0.0
C1961 C 0.47115 0.7711 0.85858 0.0
C1962 C 0.47017 0.78916 0.85445 0.0
C1963 C 0.43195 0.84329 0.78589 0.0
C1964 C 0.41524 0.83252 0.78914 0.0
C1965 C 0.44698 0.84531 0.79811 0.0
C1966 C 0.44558 0.83761 0.81449 0.0
C1967 C 0.42873 0.82836 0.81868 0.0
C1968 C 0.41379 0.82551 0.806 0.0
C1969 C 0.46181 0.83656 0.82543 0.0
C1970 C 0.4625 0.81817 0.82919 0.0
C1971 C 0.47728 0.85246 0.82978 0.0
C1972 C 0.47687 0.87288 0.82854 0.0
C1973 C 0.46392 0.88175 0.83714 0.0
C1974 C 0.4633 0.90083 0.83563 0.0
C1975 C 0.47563 0.91124 0.82565 0.0
C1976 C 0.48865 0.90262 0.81723 0.0
C1977 C 0.48933 0.88353 0.81869 0.0
H1978 H 0.4751 0.926 0.82446 0.0
H1979 H 0.48121 0.74501 0.85067 0.0
H1980 H 0.49208 0.22783 0.10252 0.0
H1981 H 0.49963 0.19748 0.08559 0.0
H1982 H 0.48279 0.16933 0.13134 0.0
H1983 H 0.47543 0.19991 0.14838 0.0
H1984 H 0.51611 0.16687 0.12228 0.0
H1985 H 0.45835 0.15361 0.08906 0.0
H1986 H 0.43432 0.16198 0.07151 0.0
H1987 H 0.46762 0.17162 0.02685 0.0
H1988 H 0.49194 0.16356 0.04427 0.0
H1989 H 0.53126 0.07567 0.07231 0.0
H1990 H 0.51648 0.10037 0.08905 0.0
H1991 H 0.52918 0.13445 0.04648 0.0
H1992 H 0.54353 0.10938 0.0295 0.0
H1993 H 0.49524 0.13118 0.05499 0.0
H1994 H 0.55355 0.14781 0.08893 0.0
H1995 H 0.57806 0.13938 0.10562 0.0
H1996 H 0.54442 0.12414 0.14847 0.0
H1997 H 0.5196 0.13216 0.13181 0.0
C1998 C 0.48955 0.21491 0.10859 0.0
C1999 C 0.48291 0.21575 0.12638 0.0
C2000 C 0.49387 0.19769 0.09902 0.0
C2001 C 0.49154 0.1812 0.10719 0.0
C2002 C 0.48452 0.18192 0.12483 0.0
C2003 C 0.48021 0.19919 0.13442 0.0
C2004 C 0.49772 0.16381 0.09787 0.0
C2005 C 0.5113 0.15877 0.10771 0.0
C2006 C 0.4917 0.15368 0.07874 0.0
C2007 C 0.47698 0.15808 0.06802 0.0
C2008 C 0.46057 0.1576 0.07554 0.0
C2009 C 0.4469 0.16229 0.06561 0.0
C2010 C 0.44945 0.16736 0.04809 0.0
C2011 C 0.46566 0.16769 0.04043 0.0
C2012 C 0.47938 0.16302 0.0503 0.0
C2013 C 0.53112 0.08866 0.06683 0.0
C2014 C 0.53874 0.09117 0.05005 0.0
C2015 C 0.52259 0.10258 0.07622 0.0
C2016 C 0.52194 0.11923 0.06902 0.0
C2017 C 0.52957 0.12164 0.05217 0.0
C2018 C 0.53788 0.10756 0.04265 0.0
C2019 C 0.51372 0.13446 0.07933 0.0
C2020 C 0.49984 0.13911 0.06966 0.0
C2021 C 0.51956 0.14435 0.09856 0.0
C2022 C 0.5347 0.14045 0.10907 0.0
C2023 C 0.55138 0.14262 0.10189 0.0
C2024 C 0.56531 0.13789 0.11132 0.0
C2025 C 0.56279 0.13119 0.12808 0.0
C2026 C 0.54635 0.12932 0.13548 0.0
C2027 C 0.53235 0.13397 0.12606 0.0
H2028 H 0.57358 0.12748 0.13534 0.0
H2029 H 0.43886 0.17102 0.04045 0.0
H2030 H 0.15012 0.32257 0.37047 0.0
H2031 H 0.17934 0.32826 0.35843 0.0
H2032 H 0.15757 0.34458 0.30989 0.0
H2033 H 0.12845 0.33971 0.32226 0.0
H2034 H 0.17024 0.30506 0.30731 0.0
H2035 H 0.18725 0.3761 0.3263 0.0
H2036 H 0.19291 0.40905 0.34845 0.0
H2037 H 0.23165 0.3937 0.38283 0.0
H2038 H 0.22604 0.36054 0.36102 0.0
H2039 H 0.25237 0.31052 0.26186 0.0
H2040 H 0.22293 0.31201 0.27229 0.0
H2041 H 0.24307 0.31722 0.33046 0.0
H2042 H 0.27231 0.31581 0.32007 0.0
H2043 H 0.23069 0.34928 0.325 0.0
H2044 H 0.20166 0.27806 0.31928 0.0
H2045 H 0.1897 0.24231 0.30501 0.0
H2046 H 0.17391 0.25544 0.25232 0.0
H2047 H 0.18507 0.29139 0.2667 0.0
C2048 C 0.15177 0.32807 0.35761 0.0
C2049 C 0.13716 0.33049 0.34711 0.0
C2050 C 0.16843 0.33153 0.35089 0.0
C2051 C 0.17049 0.33699 0.33343 0.0
C2052 C 0.15619 0.34074 0.32359 0.0
C2053 C 0.13961 0.33782 0.33059 0.0
C2054 C 0.18582 0.33348 0.32341 0.0
C2055 C 0.18342 0.315 0.31067 0.0
C2056 C 0.20296 0.34605 0.32873 0.0
C2057 C 0.20608 0.36577 0.34213 0.0
C2058 C 0.1968 0.37965 0.33872 0.0
C2059 C 0.20006 0.3984 0.35117 0.0
C2060 C 0.2126 0.40345 0.36707 0.0
C2061 C 0.22192 0.38976 0.37053 0.0
C2062 C 0.21873 0.371 0.35811 0.0
C2063 C 0.25021 0.31135 0.27673 0.0
C2064 C 0.26426 0.3128 0.29022 0.0
C2065 C 0.23348 0.31206 0.28265 0.0
C2066 C 0.23093 0.31467 0.30211 0.0
C2067 C 0.24482 0.31506 0.31537 0.0
C2068 C 0.26143 0.31425 0.30946 0.0
C2069 C 0.2151 0.32066 0.30907 0.0
C2070 C 0.21744 0.33958 0.32122 0.0
C2071 C 0.19791 0.30827 0.30377 0.0
C2072 C 0.19455 0.28722 0.29384 0.0
C2073 C 0.19595 0.27324 0.30453 0.0
C2074 C 0.18896 0.25302 0.29658 0.0
C2075 C 0.18099 0.24661 0.27777 0.0
C2076 C 0.18007 0.26044 0.26687 0.0
C2077 C 0.18664 0.28074 0.27494 0.0
H2078 H 0.17568 0.23091 0.27161 0.0
H2079 H 0.21511 0.41798 0.37668 0.0
H2080 H 0.94346 0.05073 0.20722 0.0
H2081 H 0.95405 0.04545 0.17517 0.0
H2082 H 0.99764 0.09701 0.19482 0.0
H2083 H 0.98719 0.10234 0.22638 0.0
H2084 H 0.98717 0.09827 0.16122 0.0
H2085 H 0.00215 0.04714 0.18601 0.0
H2086 H 0.99799 0.01799 0.20009 0.0
H2087 H 0.96177 0.98299 0.15164 0.0
H2088 H 0.96552 0.01206 0.13738 0.0
H2089 H 0.04208 0.08052 0.08466 0.0
H2090 H 0.02963 0.08474 0.11543 0.0
H2091 H 0.98438 0.03644 0.09109 0.0
H2092 H 0.99687 0.03208 0.06028 0.0
H2093 H 0.99497 0.0331 0.12642 0.0
H2094 H 0.9825 0.08669 0.10165 0.0
H2095 H 0.99012 0.11644 0.08846 0.0
H2096 H 0.02564 0.14759 0.13868 0.0
H2097 H 0.0184 0.11792 0.15205 0.0
C2098 C 0.95525 0.061 0.20473 0.0
C2099 C 0.96431 0.07702 0.2198 0.0
C2100 C 0.96147 0.05789 0.18626 0.0
C2101 C 0.97693 0.07071 0.18211 0.0
C2102 C 0.98573 0.08679 0.19714 0.0
C2103 C 0.97965 0.08979 0.21547 0.0
C2104 C 0.98406 0.06771 0.16241 0.0
C2105 C 0.98895 0.08397 0.15383 0.0
C2106 C 0.98653 0.04919 0.15212 0.0
C2107 C 0.9839 0.03183 0.16078 0.0
C2108 C 0.99313 0.03329 0.17847 0.0
C2109 C 0.99089 0.01677 0.18646 0.0
C2110 C 0.97957 0.99867 0.1768 0.0
C2111 C 0.97049 0.99704 0.15912 0.0
C2112 C 0.97266 0.01353 0.15109 0.0
C2113 C 0.02954 0.07065 0.08573 0.0
C2114 C 0.02084 0.05568 0.06963 0.0
C2115 C 0.02225 0.07321 0.10352 0.0
C2116 C 0.00585 0.06098 0.10605 0.0
C2117 C 0.99705 0.04613 0.08994 0.0
C2118 C 0.00428 0.04367 0.07211 0.0
C2119 C 0.99794 0.06361 0.12528 0.0
C2120 C 0.99299 0.04732 0.13379 0.0
C2121 C 0.99576 0.0822 0.1357 0.0
C2122 C 1.00002 0.10006 0.12777 0.0
C2123 C 0.99202 0.09985 0.10982 0.0
C2124 C 0.99626 0.1167 0.10232 0.0
C2125 C 0.00839 0.13388 0.11271 0.0
C2126 C 0.01626 0.13426 0.13064 0.0
C2127 C 0.01208 0.11745 0.1382 0.0
H2128 H 0.01165 0.14691 0.10688 0.0
H2129 H 0.97788 0.98588 0.18299 0.0
H2130 H 0.27692 0.65744 0.46094 0.0
H2131 H 0.27303 0.67721 0.43805 0.0
H2132 H 0.29896 0.7308 0.47983 0.0
H2133 H 0.3034 0.71101 0.50286 0.0
H2134 H 0.25912 0.71971 0.44757 0.0
H2135 H 0.32634 0.72943 0.4599 0.0
H2136 H 0.34902 0.71116 0.46428 0.0
H2137 H 0.32864 0.6693 0.41097 0.0
H2138 H 0.30562 0.68715 0.40654 0.0
H2139 H 0.26599 0.78501 0.39112 0.0
H2140 H 0.2766 0.7722 0.41715 0.0
H2141 H 0.28897 0.72446 0.37595 0.0
H2142 H 0.27965 0.73841 0.34998 0.0
H2143 H 0.30939 0.73134 0.40785 0.0
H2144 H 0.24829 0.71803 0.38993 0.0
H2145 H 0.21987 0.72518 0.38128 0.0
H2146 H 0.22147 0.76085 0.43794 0.0
H2147 H 0.25007 0.75411 0.44686 0.0
C2148 C 0.28163 0.67346 0.46534 0.0
C2149 C 0.29066 0.6828 0.48352 0.0
C2150 C 0.27932 0.68465 0.45231 0.0
C2151 C 0.28575 0.70527 0.45744 0.0
C2152 C 0.29398 0.7148 0.47584 0.0
C2153 C 0.29663 0.70355 0.48882 0.0
C2154 C 0.28547 0.71652 0.44281 0.0
C2155 C 0.27023 0.72283 0.4392 0.0
C2156 C 0.29946 0.71898 0.43112 0.0
C2157 C 0.31435 0.7096 0.43289 0.0
C2158 C 0.32677 0.71638 0.4491 0.0
C2159 C 0.33963 0.70606 0.45163 0.0
C2160 C 0.34028 0.68908 0.43791 0.0
C2161 C 0.32815 0.68247 0.42157 0.0
C2162 C 0.31521 0.69269 0.41903 0.0
C2163 C 0.27163 0.77225 0.38777 0.0
C2164 C 0.27158 0.76214 0.36881 0.0
C2165 C 0.27762 0.76492 0.40253 0.0
C2166 C 0.28285 0.74699 0.39836 0.0
C2167 C 0.28469 0.73815 0.3794 0.0
C2168 C 0.27919 0.74589 0.36463 0.0
C2169 C 0.28346 0.73599 0.41335 0.0
C2170 C 0.29849 0.72905 0.41664 0.0
C2171 C 0.26879 0.73196 0.42411 0.0
C2172 C 0.25142 0.73577 0.419 0.0
C2173 C 0.24264 0.7275 0.40052 0.0
C2174 C 0.22649 0.73147 0.39556 0.0
C2175 C 0.2189 0.74353 0.40903 0.0
C2176 C 0.22739 0.75155 0.42751 0.0
C2177 C 0.24357 0.74765 0.43254 0.0
H2178 H 0.20642 0.74662 0.40516 0.0
H2179 H 0.35018 0.68104 0.43994 0.0
H2180 H 0.64576 0.99421 0.66571 0.0
H2181 H 0.62956 0.00437 0.64134 0.0
H2182 H 0.64394 0.06497 0.6745 0.0
H2183 H 0.66041 0.05512 0.69879 0.0
H2184 H 0.60669 0.04767 0.66558 0.0
H2185 H 0.65932 0.05938 0.63531 0.0
H2186 H 0.68695 0.05274 0.62318 0.0
H2187 H 0.65696 1.0005 0.58277 0.0
H2188 H 0.62913 0.00662 0.59488 0.0
H2189 H 0.56114 0.06867 0.58479 0.0
H2190 H 0.58092 0.06979 0.61263 0.0
H2191 H 0.57737 0.00713 0.59243 0.0
H2192 H 0.55751 0.00603 0.56467 0.0
H2193 H 0.61235 0.03394 0.5959 0.0
H2194 H 0.56122 0.01897 0.63191 0.0
H2195 H 0.53319 0.0258 0.64274 0.0
H2196 H 0.56083 0.08546 0.67104 0.0
H2197 H 0.58904 0.07897 0.66022 0.0
C2198 C 0.6459 0.00977 0.66754 0.0
C2199 C 0.65409 0.02381 0.68419 0.0
C2200 C 0.63667 0.01554 0.65368 0.0
C2201 C 0.63562 0.03535 0.65638 0.0
C2202 C 0.64466 0.04963 0.67238 0.0
C2203 C 0.654 0.04392 0.68616 0.0
C2204 C 0.62347 0.04043 0.64338 0.0
C2205 C 0.60809 0.0452 0.65039 0.0
C2206 C 0.62545 0.03707 0.62369 0.0
C2207 C 0.64212 0.03343 0.61608 0.0
C2208 C 0.65861 0.0464 0.62392 0.0
C2209 C 0.67431 0.04273 0.61704 0.0
C2210 C 0.67371 0.02619 0.60223 0.0
C2211 C 0.6574 0.01331 0.59424 0.0
C2212 C 0.64164 0.01689 0.60109 0.0
C2213 C 0.56391 0.05501 0.58696 0.0
C2214 C 0.55792 0.03723 0.57306 0.0
C2215 C 0.57527 0.0557 0.60262 0.0
C2216 C 0.58063 0.03859 0.60418 0.0
C2217 C 0.57329 0.02041 0.59119 0.0
C2218 C 0.5618 0.0197 0.57563 0.0
C2219 C 0.59533 0.04009 0.61806 0.0
C2220 C 0.61119 0.03682 0.61115 0.0
C2221 C 0.59385 0.04491 0.63779 0.0
C2222 C 0.57719 0.0485 0.64529 0.0
C2223 C 0.56131 0.03352 0.6405 0.0
C2224 C 0.5454 0.03734 0.64659 0.0
C2225 C 0.54523 0.05606 0.65758 0.0
C2226 C 0.561 0.07096 0.66257 0.0
C2227 C 0.57696 0.0672 0.65651 0.0
H2228 H 0.53288 0.05902 0.66222 0.0
H2229 H 0.68589 0.02336 0.59693 0.0
H2230 H 0.30518 0.32545 0.98723 0.0
H2231 H 0.30102 0.31095 0.95275 0.0
H2232 H 0.29591 0.36713 0.94257 0.0
H2233 H 0.29843 0.38093 0.97697 0.0
H2234 H 0.27596 0.34087 0.91703 0.0
H2235 H 0.33768 0.34764 0.94139 0.0
H2236 H 0.36029 0.34031 0.96199 0.0
H2237 H 0.34025 0.27784 0.93754 0.0
H2238 H 0.31746 0.28483 0.91692 0.0
H2239 H 0.30681 0.34321 0.82855 0.0
H2240 H 0.3061 0.3479 0.86303 0.0
H2241 H 0.29956 0.28501 0.85751 0.0
H2242 H 0.30021 0.28021 0.82265 0.0
H2243 H 0.32234 0.30861 0.88988 0.0
H2244 H 0.2639 0.30194 0.86229 0.0
H2245 H 0.241 0.30848 0.84154 0.0
H2246 H 0.25435 0.36982 0.87162 0.0
H2247 H 0.27747 0.3637 0.89246 0.0
C2248 C 0.3028 0.33451 0.97757 0.0
C2249 C 0.30213 0.3543 0.98476 0.0
C2250 C 0.30067 0.32632 0.95782 0.0
C2251 C 0.29879 0.33808 0.94481 0.0
C2252 C 0.29742 0.35765 0.95212 0.0
C2253 C 0.29886 0.36557 0.97184 0.0
C2254 C 0.29894 0.33055 0.92371 0.0
C2255 C 0.28624 0.334 0.9112 0.0
C2256 C 0.31184 0.32078 0.91577 0.0
C2257 C 0.32582 0.31673 0.92778 0.0
C2258 C 0.33811 0.33235 0.94045 0.0
C2259 C 0.35094 0.32826 0.95213 0.0
C2260 C 0.35167 0.30862 0.95111 0.0
C2261 C 0.33966 0.29304 0.93833 0.0
C2262 C 0.32681 0.29705 0.92664 0.0
C2263 C 0.30553 0.33041 0.83472 0.0
C2264 C 0.30365 0.31138 0.82297 0.0
C2265 C 0.30502 0.33309 0.8544 0.0
C2266 C 0.30239 0.31677 0.86281 0.0
C2267 C 0.30147 0.2978 0.85128 0.0
C2268 C 0.30195 0.29508 0.83142 0.0
C2269 C 0.29988 0.31974 0.8835 0.0
C2270 C 0.31203 0.31537 0.89582 0.0
C2271 C 0.28648 0.32864 0.89128 0.0
C2272 C 0.2725 0.33238 0.87887 0.0
C2273 C 0.26204 0.31686 0.8644 0.0
C2274 C 0.249 0.32048 0.85263 0.0
C2275 C 0.24624 0.33956 0.85521 0.0
C2276 C 0.25649 0.35505 0.86962 0.0
C2277 C 0.26955 0.3515 0.88145 0.0
H2278 H 0.23614 0.34232 0.84607 0.0
H2279 H 0.36158 0.30547 0.9602 0.0
H2280 H 0.98065 0.05678 0.31717 0.0
H2281 H 0.99422 0.05237 0.34664 0.0
H2282 H 0.95405 0.07411 0.37778 0.0
H2283 H 0.94085 0.07936 0.34823 0.0
H2284 H 0.98303 0.08804 0.40003 0.0
H2285 H 0.95784 0.02051 0.3633 0.0
H2286 H 0.95398 0.99309 0.33462 0.0
H2287 H 0.00991 0.99679 0.33995 0.0
H2288 H 0.01412 0.02437 0.36852 0.0
H2289 H 0.9934 0.05292 0.48367 0.0
H2290 H 0.98289 0.05629 0.45246 0.0
H2291 H 0.03069 0.0446 0.43006 0.0
H2292 H 0.04173 0.04201 0.46196 0.0
H2293 H 1.00023 0.02574 0.40291 0.0
H2294 H 0.02618 0.09011 0.43945 0.0
H2295 H 0.03257 0.11884 0.46697 0.0
H2296 H 0.97869 0.12341 0.46077 0.0
H2297 H 0.97174 0.09417 0.43354 0.0
C2298 C 0.97452 0.06054 0.33022 0.0
C2299 C 0.95935 0.0683 0.32988 0.0
C2300 C 0.98234 0.05784 0.34731 0.0
C2301 C 0.97518 0.06233 0.36497 0.0
C2302 C 0.96008 0.07028 0.36468 0.0
C2303 C 0.95236 0.07322 0.34757 0.0
C2304 C 0.98346 0.05909 0.38357 0.0
C2305 C 0.98641 0.0742 0.40055 0.0
C2306 C 0.98894 0.0415 0.38475 0.0
C2307 C 0.9863 0.02456 0.36795 0.0
C2308 C 0.96931 0.01548 0.35832 0.0
C2309 C 0.96706 0.99993 0.34208 0.0
C2310 C 0.98169 0.99323 0.33545 0.0
C2311 C 0.99859 1.002 0.34509 0.0
C2312 C 1.00091 0.01757 0.36132 0.0
C2313 C 0.00178 0.05093 0.47217 0.0
C2314 C 0.01849 0.04699 0.4757 0.0
C2315 C 0.99567 0.05293 0.45411 0.0
C2316 C 0.00585 0.05093 0.43845 0.0
C2317 C 0.02235 0.04627 0.44163 0.0
C2318 C 0.02869 0.04463 0.45999 0.0
C2319 C 0.99927 0.05448 0.41935 0.0
C2320 C 0.99669 0.0395 0.40235 0.0
C2321 C 0.99439 0.0723 0.41805 0.0
C2322 C 0.99837 0.08974 0.43458 0.0
C2323 C 0.01561 0.09704 0.4441 0.0
C2324 C 0.01935 0.11346 0.45964 0.0
C2325 C 0.00606 0.12296 0.46565 0.0
C2326 C 0.98896 0.116 0.45614 0.0
C2327 C 0.9851 0.09946 0.44067 0.0
H2328 H 0.00903 0.13578 0.47759 0.0
H2329 H 0.97993 0.98122 0.32285 0.0
H2330 H 0.26559 0.64582 0.57683 0.0
H2331 H 0.26101 0.6667 0.60725 0.0
H2332 H 0.26852 0.71718 0.58179 0.0
H2333 H 0.27319 0.69642 0.55159 0.0
H2334 H 0.29247 0.72278 0.61295 0.0
H2335 H 0.22895 0.6989 0.59671 0.0
H2336 H 0.20102 0.67285 0.58713 0.0
H2337 H 0.20926 0.65134 0.63722 0.0
H2338 H 0.23736 0.67704 0.64696 0.0
H2339 H 0.29157 0.7905 0.70105 0.0
H2340 H 0.28481 0.77257 0.66742 0.0
H2341 H 0.26346 0.71813 0.68475 0.0
H2342 H 0.269 0.73597 0.71778 0.0
H2343 H 0.24462 0.71643 0.65595 0.0
H2344 H 0.308 0.73365 0.67064 0.0
H2345 H 0.33785 0.75581 0.68102 0.0
H2346 H 0.33263 0.78498 0.63556 0.0
H2347 H 0.30261 0.76321 0.62509 0.0
C2348 C 0.26532 0.66111 0.57752 0.0
C2349 C 0.26944 0.6695 0.56187 0.0
C2350 C 0.26287 0.67308 0.59493 0.0
C2351 C 0.26453 0.69354 0.5968 0.0
C2352 C 0.26721 0.70147 0.58067 0.0
C2353 C 0.26967 0.68956 0.56338 0.0
C2354 C 0.26591 0.70715 0.6159 0.0
C2355 C 0.28189 0.72166 0.62226 0.0
C2356 C 0.25237 0.70514 0.62826 0.0
C2357 C 0.23534 0.68984 0.62249 0.0
C2358 C 0.22487 0.68853 0.60562 0.0
C2359 C 0.20899 0.67383 0.60017 0.0
C2360 C 0.20338 0.66043 0.61154 0.0
C2361 C 0.21361 0.66172 0.62842 0.0
C2362 C 0.22951 0.67637 0.63392 0.0
C2363 C 0.28538 0.77474 0.69763 0.0
C2364 C 0.28128 0.76464 0.71221 0.0
C2365 C 0.28156 0.76445 0.67838 0.0
C2366 C 0.27398 0.7438 0.67341 0.0
C2367 C 0.26933 0.73398 0.68802 0.0
C2368 C 0.27273 0.74427 0.70708 0.0
C2369 C 0.27135 0.73201 0.65323 0.0
C2370 C 0.25517 0.71779 0.64662 0.0
C2371 C 0.28498 0.73375 0.64085 0.0
C2372 C 0.30298 0.74694 0.64721 0.0
C2373 C 0.31317 0.74488 0.66294 0.0
C2374 C 0.33013 0.75735 0.66882 0.0
C2375 C 0.33714 0.77176 0.65893 0.0
C2376 C 0.32718 0.77379 0.64319 0.0
C2377 C 0.31019 0.76141 0.63729 0.0
H2378 H 0.35028 0.78139 0.6635 0.0
H2379 H 0.1911 0.64906 0.60729 0.0
H2380 H 0.64282 0.05959 0.78849 0.0
H2381 H 0.63418 0.0694 0.82058 0.0
H2382 H 0.65831 0.02668 0.83877 0.0
H2383 H 0.66728 0.01692 0.80665 0.0
H2384 H 0.62078 0.02151 0.84054 0.0
H2385 H 0.67452 0.07101 0.86033 0.0
H2386 H 0.69864 0.09879 0.85657 0.0
H2387 H 0.66191 0.13557 0.85724 0.0
H2388 H 0.63747 0.10792 0.86052 0.0
H2389 H 0.57571 0.04361 0.92205 0.0
H2390 H 0.59849 0.03728 0.90128 0.0
H2391 H 0.5952 0.08784 0.87851 0.0
H2392 H 0.57308 0.09509 0.9004 0.0
H2393 H 0.62845 0.08757 0.88461 0.0
H2394 H 0.57524 0.03886 0.85521 0.0
H2395 H 0.54895 0.01081 0.85146 0.0
H2396 H 0.58221 0.97311 0.8623 0.0
H2397 H 0.60869 1.00106 0.8665 0.0
C2398 C 0.64656 0.05255 0.79942 0.0
C2399 C 0.65539 0.03729 0.79515 0.0
C2400 C 0.64185 0.05834 0.81775 0.0
C2401 C 0.64579 0.04882 0.8319 0.0
C2402 C 0.6554 0.03427 0.82796 0.0
C2403 C 0.66037 0.02867 0.80966 0.0
C2404 C 0.63682 0.05148 0.84932 0.0
C2405 C 0.62275 0.03575 0.85067 0.0
C2406 C 0.63923 0.07031 0.86182 0.0
C2407 C 0.65409 0.08729 0.86064 0.0
C2408 C 0.67154 0.08498 0.8596 0.0
C2409 C 0.68528 0.10072 0.85752 0.0
C2410 C 0.68179 0.11891 0.85663 0.0
C2411 C 0.66459 0.12146 0.85794 0.0
C2412 C 0.65078 0.10576 0.85993 0.0
C2413 C 0.57992 0.0535 0.91272 0.0
C2414 C 0.57277 0.07 0.91293 0.0
C2415 C 0.59285 0.04975 0.90076 0.0
C2416 C 0.59846 0.06203 0.88832 0.0
C2417 C 0.59107 0.07825 0.88814 0.0
C2418 C 0.57829 0.08223 0.90039 0.0
C2419 C 0.61186 0.05776 0.87529 0.0
C2420 C 0.62676 0.07316 0.87491 0.0
C2421 C 0.60993 0.03872 0.86313 0.0
C2422 C 0.59392 0.02217 0.86153 0.0
C2423 C 0.57693 0.02469 0.85712 0.0
C2424 C 0.562 0.00878 0.85484 0.0
C2425 C 0.5639 0.99021 0.85673 0.0
C2426 C 0.58075 0.98752 0.86093 0.0
C2427 C 0.59571 0.0034 0.8633 0.0
H2428 H 0.55233 0.97789 0.85486 0.0
H2429 H 0.69239 0.13104 0.8549 0.0
H2430 H 0.31786 0.34054 0.08166 0.0
H2431 H 0.3123 0.33011 0.11106 0.0
H2432 H 0.26551 0.35299 0.11443 0.0
H2433 H 0.27156 0.36458 0.08512 0.0
H2434 H 0.28468 0.3646 0.14799 0.0
H2435 H 0.26382 0.30094 0.10339 0.0
H2436 H 0.26605 0.27425 0.07601 0.0
H2437 H 0.31288 0.2672 0.10476 0.0
H2438 H 0.31106 0.29399 0.1322 0.0
H2439 H 0.27265 0.33173 0.23382 0.0
H2440 H 0.26622 0.33454 0.201 0.0
H2441 H 0.31063 0.31026 0.18391 0.0
H2442 H 0.31516 0.30472 0.21562 0.0
H2443 H 0.28711 0.29782 0.15637 0.0
H2444 H 0.31293 0.36477 0.19566 0.0
H2445 H 0.31172 0.38782 0.2263 0.0
H2446 H 0.25815 0.38761 0.20898 0.0
H2447 H 0.25904 0.3645 0.17822 0.0
C2448 C 0.30616 0.34312 0.08835 0.0
C2449 C 0.29515 0.35345 0.08088 0.0
C2450 C 0.30295 0.337 0.10524 0.0
C2451 C 0.28832 0.34045 0.11492 0.0
C2452 C 0.27686 0.35009 0.10719 0.0
C2453 C 0.28023 0.35653 0.09032 0.0
C2454 C 0.28584 0.33501 0.13363 0.0
C2455 C 0.28484 0.34986 0.14969 0.0
C2456 C 0.28646 0.31594 0.13613 0.0
C2457 C 0.2873 0.29949 0.11982 0.0
C2458 C 0.27461 0.29372 0.10385 0.0
C2459 C 0.27581 0.27858 0.08832 0.0
C2460 C 0.2896 0.26905 0.08864 0.0
C2461 C 0.3022 0.27458 0.10453 0.0
C2462 C 0.30106 0.28971 0.12009 0.0
C2463 C 0.2811 0.32728 0.22302 0.0
C2464 C 0.29523 0.31944 0.22755 0.0
C2465 C 0.27747 0.32888 0.20428 0.0
C2466 C 0.28846 0.3235 0.19005 0.0
C2467 C 0.30214 0.31492 0.19458 0.0
C2468 C 0.30513 0.31238 0.21297 0.0
C2469 C 0.28641 0.32749 0.17068 0.0
C2470 C 0.28663 0.31243 0.15455 0.0
C2471 C 0.28547 0.34642 0.16813 0.0
C2472 C 0.28604 0.36298 0.18474 0.0
C2473 C 0.30103 0.36997 0.19827 0.0
C2474 C 0.30033 0.38283 0.21571 0.0
C2475 C 0.28477 0.38887 0.21965 0.0
C2476 C 0.27011 0.38271 0.20592 0.0
C2477 C 0.27074 0.36987 0.18843 0.0
H2478 H 0.2842 0.39858 0.23327 0.0
H2479 H 0.29052 0.25736 0.07659 0.0
H2480 H 0.25467 0.93758 0.01849 0.0
H2481 H 0.22659 0.9473 0.01426 0.0
H2482 H 0.25598 0.00757 0.01802 0.0
H2483 H 0.2837 0.99819 0.02237 0.0
H2484 H 0.23254 1.00173 0.04663 0.0
H2485 H 0.23508 0.98371 0.97786 0.0
H2486 H 0.23622 0.95983 0.9478 0.0
H2487 H 0.18665 0.92242 0.95583 0.0
H2488 H 0.18534 0.946 0.9861 0.0
H2489 H 0.17918 0.06307 0.03408 0.0
H2490 H 0.20026 0.04289 0.02453 0.0
H2491 H 0.15982 0.98959 0.02312 0.0
H2492 H 0.13877 0.00957 0.03303 0.0
H2493 H 0.18514 0.98649 0.99322 0.0
H2494 H 0.18218 0.00444 0.06137 0.0
H2495 H 0.18093 0.02806 0.09158 0.0
H2496 H 0.23154 0.06454 0.08512 0.0
H2497 H 0.23294 0.04125 0.0547 0.0
C2498 C 0.25504 0.95277 0.01797 0.0
C2499 C 0.2712 0.96728 0.02118 0.0
C2500 C 0.23909 0.95824 0.01549 0.0
C2501 C 0.23941 0.97813 0.016 0.0
C2502 C 0.2556 0.99218 0.01771 0.0
C2503 C 0.27137 0.98682 0.02032 0.0
C2504 C 0.22325 0.98532 0.01771 0.0
C2505 C 0.2222 0.99841 0.03493 0.0
C2506 C 0.2096 0.98041 0.00264 0.0
C2507 C 0.21021 0.96648 0.98432 0.0
C2508 C 0.2245 0.97031 0.97328 0.0
C2509 C 0.22516 0.95685 0.9562 0.0
C2510 C 0.21155 0.93958 0.94994 0.0
C2511 C 0.1972 0.93578 0.96071 0.0
C2512 C 0.19648 0.9492 0.97782 0.0
C2513 C 0.17477 0.04706 0.0316 0.0
C2514 C 0.15746 0.03791 0.03451 0.0
C2515 C 0.18668 0.03557 0.02587 0.0
C2516 C 0.18144 0.01486 0.02315 0.0
C2517 C 0.16393 0.00556 0.02495 0.0
C2518 C 0.15201 0.01702 0.03072 0.0
C2519 C 0.19501 0.00352 0.02181 0.0
C2520 C 0.19542 0.98955 0.00491 0.0
C2521 C 0.20816 0.00747 0.03722 0.0
C2522 C 0.20761 0.0212 0.05574 0.0
C2523 C 0.19299 0.01756 0.06636 0.0
C2524 C 0.19226 0.03087 0.08351 0.0
C2525 C 0.20613 0.04781 0.09026 0.0
C2526 C 0.2208 0.05142 0.07988 0.0
C2527 C 0.22158 0.03816 0.0627 0.0
H2528 H 0.20553 0.05811 0.10353 0.0
H2529 H 0.2121 0.92916 0.93671 0.0
H2530 H 0.7418 0.62126 0.0043 0.0
H2531 H 0.7104 0.60625 0.00426 0.0
H2532 H 0.69767 0.6598 0.99562 0.0
H2533 H 0.72947 0.67528 0.99614 0.0
H2534 H 0.67767 0.64455 0.02139 0.0
H2535 H 0.69202 0.61824 0.95818 0.0
H2536 H 0.70949 0.60201 0.9349 0.0
H2537 H 0.69758 0.55004 0.95772 0.0
H2538 H 0.68022 0.56604 0.98127 0.0
H2539 H 0.58578 0.59541 0.00409 0.0
H2540 H 0.61553 0.61412 1.00024 0.0
H2541 H 0.63578 0.56278 0.00172 0.0
H2542 H 0.60601 0.54395 0.00462 0.0
H2543 H 0.65125 0.57916 0.9771 0.0
H2544 H 0.6396 0.60488 0.04159 0.0
H2545 H 0.62255 0.62002 0.0661 0.0
H2546 H 0.63014 0.67178 0.04297 0.0
H2547 H 0.64698 0.65679 0.01813 0.0
C2548 C 0.73239 0.62993 0.00237 0.0
C2549 C 0.73818 0.64945 1.00003 0.0
C2550 C 0.71436 0.62125 0.00228 0.0
C2551 C 0.70157 0.63169 0.99951 0.0
C2552 C 0.70728 0.65139 0.99765 0.0
C2553 C 0.72544 0.66021 0.99791 0.0
C2554 C 0.68233 0.62181 0.99852 0.0
C2555 C 0.6718 0.63042 0.01147 0.0
C2556 C 0.6747 0.60312 0.98591 0.0
C2557 C 0.68489 0.59338 0.97153 0.0
C2558 C 0.69319 0.60338 0.95827 0.0
C2559 C 0.70307 0.59422 0.94503 0.0
C2560 C 0.70466 0.57501 0.94484 0.0
C2561 C 0.69633 0.56491 0.95787 0.0
C2562 C 0.68645 0.574 0.97114 0.0
C2563 C 0.5966 0.58811 0.00338 0.0
C2564 C 0.59356 0.56816 0.00447 0.0
C2565 C 0.61363 0.59885 1.00133 0.0
C2566 C 0.6281 0.59005 1.00104 0.0
C2567 C 0.62493 0.56998 0.00182 0.0
C2568 C 0.60785 0.55914 0.0034 0.0
C2569 C 0.6466 0.60165 1.00026 0.0
C2570 C 0.65701 0.59337 0.98693 0.0
C2571 C 0.65417 0.62047 0.01273 0.0
C2572 C 0.6444 0.62965 0.02791 0.0
C2573 C 0.63756 0.61945 0.04169 0.0
C2574 C 0.62793 0.628 0.05563 0.0
C2575 C 0.62524 0.64684 0.05607 0.0
C2576 C 0.63222 0.65719 0.0426 0.0
C2577 C 0.6418 0.64868 0.02859 0.0
H2578 H 0.61777 0.65343 0.06686 0.0
H2579 H 0.71233 0.56796 0.93459 0.0
H2580 H 0.69427 0.45618 0.29794 0.0
H2581 H 0.70906 0.42941 0.29603 0.0
H2582 H 0.72309 0.43469 0.23997 0.0
H2583 H 0.70712 0.46131 0.24149 0.0
H2584 H 0.71872 0.39674 0.2401 0.0
H2585 H 0.75391 0.45404 0.28622 0.0
H2586 H 0.75896 0.48177 0.31478 0.0
H2587 H 0.74084 0.4406 0.34954 0.0
H2588 H 0.73554 0.41267 0.32115 0.0
H2589 H 0.77883 0.33244 0.24609 0.0
H2590 H 0.76528 0.35963 0.24232 0.0
H2591 H 0.75257 0.36714 0.30066 0.0
H2592 H 0.76734 0.34148 0.30472 0.0
H2593 H 0.75837 0.4004 0.29716 0.0
H2594 H 0.72151 0.3432 0.25225 0.0
H2595 H 0.71523 0.31475 0.22426 0.0
H2596 H 0.73496 0.3539 0.18812 0.0
H2597 H 0.74155 0.38255 0.21595 0.0
C2598 C 0.7004 0.45178 0.28503 0.0
C2599 C 0.69937 0.46155 0.26999 0.0
C2600 C 0.70921 0.43631 0.28404 0.0
C2601 C 0.71821 0.42993 0.26819 0.0
C2602 C 0.71668 0.43907 0.25266 0.0
C2603 C 0.70741 0.45449 0.2535 0.0
C2604 C 0.72916 0.41419 0.26832 0.0
C2605 C 0.72754 0.39782 0.25257 0.0
C2606 C 0.74069 0.4146 0.28448 0.0
C2607 C 0.74423 0.43133 0.30157 0.0
C2608 C 0.75097 0.45094 0.29995 0.0
C2609 C 0.75387 0.46667 0.31611 0.0
C2610 C 0.75019 0.46295 0.33395 0.0
C2611 C 0.74368 0.44347 0.33571 0.0
C2612 C 0.74076 0.42768 0.31961 0.0
C2613 C 0.77355 0.34021 0.25826 0.0
C2614 C 0.77481 0.33474 0.27593 0.0
C2615 C 0.76528 0.35571 0.256 0.0
C2616 C 0.7572 0.36592 0.27105 0.0
C2617 C 0.75853 0.36021 0.28858 0.0
C2618 C 0.76707 0.34519 0.29093 0.0
C2619 C 0.74759 0.38247 0.2692 0.0
C2620 C 0.74952 0.39914 0.28466 0.0
C2621 C 0.73621 0.3821 0.25288 0.0
C2622 C 0.73219 0.36495 0.23619 0.0
C2623 C 0.72459 0.34571 0.23834 0.0
C2624 C 0.72097 0.32955 0.22251 0.0
C2625 C 0.72474 0.33251 0.20444 0.0
C2626 C 0.73209 0.35163 0.20214 0.0
C2627 C 0.73575 0.36783 0.21793 0.0
H2628 H 0.72194 0.31999 0.1922 0.0
H2629 H 0.75241 0.47516 0.34643 0.0
H2630 H 0.85895 0.46135 0.50475 0.0
H2631 H 0.89063 0.47136 0.50138 0.0
H2632 H 0.89756 0.51833 0.55242 0.0
H2633 H 0.8658 0.50737 0.55651 0.0
H2634 H 0.91161 0.51914 0.50685 0.0
H2635 H 0.91531 0.49967 0.56698 0.0
H2636 H 0.90557 0.47807 0.58894 0.0
H2637 H 0.91572 0.42842 0.5491 0.0
H2638 H 0.92494 0.44961 0.5266 0.0
H2639 H 0.00265 0.54318 0.51878 0.0
H2640 H 0.97131 0.53672 0.51562 0.0
H2641 H 0.96752 0.47364 0.50064 0.0
H2642 H 1.00014 0.48049 0.50404 0.0
H2643 H 0.9516 0.4823 0.53022 0.0
H2644 H 0.93776 0.49642 0.4677 0.0
H2645 H 0.93793 0.51377 0.44152 0.0
H2646 H 0.94427 0.56935 0.48235 0.0
H2647 H 0.94337 0.55211 0.50868 0.0
C2648 C 0.86723 0.47402 0.515 0.0
C2649 C 0.86033 0.48381 0.53077 0.0
C2650 C 0.88519 0.47954 0.51321 0.0
C2651 C 0.89618 0.49507 0.52702 0.0
C2652 C 0.8891 0.50595 0.54201 0.0
C2653 C 0.87111 0.50001 0.54411 0.0
C2654 C 0.91503 0.49978 0.52499 0.0
C2655 C 0.92064 0.51157 0.51231 0.0
C2656 C 0.92611 0.48895 0.53149 0.0
C2657 C 0.92045 0.47615 0.54494 0.0
C2658 C 0.9151 0.48406 0.56272 0.0
C2659 C 0.90975 0.47191 0.57531 0.0
C2660 C 0.90993 0.45185 0.57038 0.0
C2661 C 0.9155 0.44393 0.55286 0.0
C2662 C 0.92076 0.456 0.54017 0.0
C2663 C 0.99548 0.52799 0.51376 0.0
C2664 C 0.00399 0.51242 0.51132 0.0
C2665 C 0.97724 0.52423 0.51182 0.0
C2666 C 0.96696 0.50471 0.50751 0.0
C2667 C 0.97531 0.48889 0.50381 0.0
C2668 C 0.99383 0.49275 0.50585 0.0
C2669 C 0.94829 0.50144 0.51147 0.0
C2670 C 0.94274 0.49001 0.52471 0.0
C2671 C 0.93703 0.5123 0.50523 0.0
C2672 C 0.9409 0.5231 0.49005 0.0
C2673 C 0.93954 0.51239 0.47105 0.0
C2674 C 0.93937 0.52213 0.4562 0.0
C2675 C 0.94105 0.54264 0.46027 0.0
C2676 C 0.94294 0.55347 0.47921 0.0
C2677 C 0.94267 0.54372 0.49408 0.0
H2678 H 0.941 0.55016 0.44875 0.0
H2679 H 0.90583 0.44248 0.58017 0.0
H2680 H 0.35849 0.07888 0.32322 0.0
H2681 H 0.34266 0.1015 0.31263 0.0
H2682 H 0.39227 0.13671 0.30096 0.0
H2683 H 0.40799 0.11407 0.31107 0.0
H2684 H 0.36939 0.15787 0.3228 0.0
H2685 H 0.37127 0.10945 0.26576 0.0
H2686 H 0.36641 0.07637 0.24405 0.0
H2687 H 0.31015 0.06706 0.24666 0.0
H2688 H 0.31471 0.1 0.2687 0.0
H2689 H 0.353 0.20869 0.25105 0.0
H2690 H 0.36304 0.18845 0.27082 0.0
H2691 H 0.30874 0.16365 0.27937 0.0
H2692 H 0.29866 0.18402 0.25987 0.0
H2693 H 0.33022 0.13637 0.26191 0.0
H2694 H 0.33045 0.18843 0.31789 0.0
H2695 H 0.33793 0.22223 0.33879 0.0
H2696 H 0.39347 0.22555 0.33532 0.0
H2697 H 0.38629 0.19181 0.31439 0.0
C2698 C 0.36594 0.0917 0.31874 0.0
C2699 C 0.38433 0.09503 0.31799 0.0
C2700 C 0.35695 0.10435 0.31255 0.0
C2701 C 0.36644 0.12045 0.30598 0.0
C2702 C 0.38488 0.12423 0.30601 0.0
C2703 C 0.39378 0.11143 0.3118 0.0
C2704 C 0.3573 0.13358 0.299 0.0
C2705 C 0.36077 0.15324 0.30951 0.0
C2706 C 0.34609 0.12719 0.28176 0.0
C2707 C 0.34336 0.10701 0.26924 0.0
C2708 C 0.35788 0.1002 0.26203 0.0
C2709 C 0.35518 0.08151 0.24957 0.0
C2710 C 0.33799 0.06956 0.24407 0.0
C2711 C 0.32346 0.07629 0.25101 0.0
C2712 C 0.3261 0.09495 0.26351 0.0
C2713 C 0.34331 0.19905 0.25736 0.0
C2714 C 0.32514 0.19764 0.25397 0.0
C2715 C 0.34901 0.18775 0.26873 0.0
C2716 C 0.33655 0.17488 0.27657 0.0
C2717 C 0.31844 0.17376 0.27354 0.0
C2718 C 0.31275 0.18527 0.26241 0.0
C2719 C 0.34234 0.16073 0.28571 0.0
C2720 C 0.33839 0.14087 0.27549 0.0
C2721 C 0.35351 0.16702 0.30296 0.0
C2722 C 0.35782 0.18774 0.31444 0.0
C2723 C 0.34424 0.19651 0.32138 0.0
C2724 C 0.34843 0.21559 0.33331 0.0
C2725 C 0.36616 0.22605 0.33834 0.0
C2726 C 0.37974 0.21746 0.33141 0.0
C2727 C 0.37562 0.19835 0.31953 0.0
H2728 H 0.36938 0.24079 0.34765 0.0
H2729 H 0.33591 0.05514 0.23435 0.0
H2730 H 0.32037 0.13197 0.50821 0.0
H2731 H 0.34608 0.11806 0.50965 0.0
H2732 H 0.38091 0.17687 0.52022 0.0
H2733 H 0.35513 0.19072 0.51764 0.0
H2734 H 0.39467 0.15273 0.49675 0.0
H2735 H 0.37179 0.15121 0.55671 0.0
H2736 H 0.34817 0.14457 0.57781 0.0
H2737 H 0.33721 0.08213 0.55207 0.0
H2738 H 0.36063 0.08843 0.53064 0.0
H2739 H 0.46625 0.11304 0.52856 0.0
H2740 H 0.44461 0.13255 0.52453 0.0
H2741 H 0.40341 0.0783 0.50595 0.0
H2742 H 0.42493 0.05899 0.5102 0.0
H2743 H 0.3954 0.10388 0.53635 0.0
H2744 H 0.41688 0.10733 0.47414 0.0
H2745 H 0.44036 0.11522 0.45315 0.0
H2746 H 0.45563 0.17559 0.48594 0.0
H2747 H 0.43204 0.16811 0.50694 0.0
C2748 C 0.3335 0.14196 0.5111 0.0
C2749 C 0.33575 0.16243 0.51304 0.0
C2750 C 0.34821 0.13401 0.51191 0.0
C2751 C 0.36547 0.14645 0.51545 0.0
C2752 C 0.36775 0.16697 0.51751 0.0
C2753 C 0.353 0.17489 0.51617 0.0
C2754 C 0.381 0.13787 0.51696 0.0
C2755 C 0.39496 0.1423 0.50566 0.0
C2756 C 0.38146 0.12428 0.52858 0.0
C2757 C 0.36793 0.12031 0.54204 0.0
C2758 C 0.36434 0.13607 0.55556 0.0
C2759 C 0.35097 0.13236 0.56755 0.0
C2760 C 0.34118 0.11294 0.56627 0.0
C2761 C 0.34482 0.09716 0.55306 0.0
C2762 C 0.35817 0.10079 0.54101 0.0
C2763 C 0.45269 0.10539 0.52298 0.0
C2764 C 0.44713 0.08464 0.5195 0.0
C2765 C 0.44036 0.11648 0.52075 0.0
C2766 C 0.42241 0.10683 0.51503 0.0
C2767 C 0.41718 0.08601 0.51044 0.0
C2768 C 0.42945 0.07499 0.51269 0.0
C2769 C 0.40866 0.11819 0.51564 0.0
C2770 C 0.39514 0.11442 0.52755 0.0
C2771 C 0.4088 0.13259 0.50488 0.0
C2772 C 0.4228 0.13714 0.49214 0.0
C2773 C 0.42528 0.12227 0.47688 0.0
C2774 C 0.43857 0.12668 0.46496 0.0
C2775 C 0.44956 0.14585 0.46829 0.0
C2776 C 0.44714 0.16073 0.4834 0.0
C2777 C 0.43374 0.15645 0.49524 0.0
H2778 H 0.45992 0.14918 0.45912 0.0
H2779 H 0.3308 0.11011 0.57552 0.0
H2780 H 0.67971 0.58138 0.29216 0.0
H2781 H 0.69505 0.61535 0.29135 0.0
H2782 H 0.7377 0.59363 0.26531 0.0
H2783 H 0.72262 0.55972 0.26706 0.0
H2784 H 0.75251 0.62594 0.28838 0.0
H2785 H 0.70279 0.61153 0.24122 0.0
H2786 H 0.67115 0.60115 0.22882 0.0
H2787 H 0.66057 0.64908 0.27061 0.0
H2788 H 0.69211 0.65957 0.28346 0.0
H2789 H 0.7954 0.71726 0.2661 0.0
H2790 H 0.77956 0.68321 0.26514 0.0
H2791 H 0.73571 0.70419 0.289 0.0
H2792 H 0.75121 0.73828 0.28861 0.0
H2793 H 0.72148 0.67202 0.26675 0.0
H2794 H 0.77146 0.68588 0.31433 0.0
H2795 H 0.80334 0.69653 0.32581 0.0
H2796 H 0.81348 0.64949 0.2826 0.0
H2797 H 0.7817 0.63874 0.2707 0.0
C2798 C 0.69227 0.58381 0.28605 0.0
C2799 C 0.69972 0.56761 0.27941 0.0
C2800 C 0.70111 0.6034 0.28548 0.0
C2801 C 0.71763 0.60759 0.27786 0.0
C2802 C 0.72505 0.59128 0.27123 0.0
C2803 C 0.71632 0.5717 0.27208 0.0
C2804 C 0.72733 0.6288 0.27728 0.0
C2805 C 0.74565 0.63582 0.28338 0.0
C2806 C 0.71872 0.6424 0.27122 0.0
C2807 C 0.69979 0.63624 0.26339 0.0
C2808 C 0.6937 0.6198 0.24783 0.0
C2809 C 0.67578 0.6139 0.24071 0.0
C2810 C 0.66385 0.62443 0.24893 0.0
C2811 C 0.66982 0.64092 0.26426 0.0
C2812 C 0.68772 0.64686 0.27146 0.0
C2813 C 0.78253 0.71476 0.27145 0.0
C2814 C 0.77494 0.73088 0.27789 0.0
C2815 C 0.77334 0.69501 0.27098 0.0
C2816 C 0.75639 0.69053 0.27766 0.0
C2817 C 0.74871 0.70672 0.28387 0.0
C2818 C 0.75771 0.72643 0.28378 0.0
C2819 C 0.74666 0.66922 0.27797 0.0
C2820 C 0.72834 0.66217 0.2718 0.0
C2821 C 0.75526 0.65557 0.28397 0.0
C2822 C 0.77423 0.66158 0.29157 0.0
C2823 C 0.7805 0.67782 0.30729 0.0
C2824 C 0.79855 0.6839 0.31384 0.0
C2825 C 0.81043 0.67372 0.30492 0.0
C2826 C 0.80427 0.65738 0.28949 0.0
C2827 C 0.78624 0.65127 0.28285 0.0
H2828 H 0.82441 0.67848 0.30998 0.0
H2829 H 0.64999 0.61984 0.24339 0.0
H2830 H 0.91277 0.4876 0.80122 0.0
H2831 H 0.89551 0.45302 0.78972 0.0
H2832 H 0.85253 0.4733 0.76733 0.0
H2833 H 0.87006 0.50782 0.77818 0.0
H2834 H 0.84718 0.45217 0.79888 0.0
H2835 H 0.86637 0.44704 0.73672 0.0
H2836 H 0.88781 0.44963 0.71273 0.0
H2837 H 0.91113 0.407 0.73152 0.0
H2838 H 0.89002 0.40438 0.75589 0.0
H2839 H 0.79421 0.34924 0.76731 0.0
H2840 H 0.80726 0.38509 0.77247 0.0
H2841 H 0.85877 0.37608 0.78667 0.0
H2842 H 0.84582 0.34037 0.78111 0.0
H2843 H 0.85623 0.39212 0.75475 0.0
H2844 H 0.8519 0.42161 0.82665 0.0
H2845 H 0.83621 0.42758 0.85553 0.0
H2846 H 0.78884 0.42454 0.82086 0.0
H2847 H 0.80455 0.41933 0.79184 0.0
C2848 C 0.89984 0.4845 0.79337 0.0
C2849 C 0.8925 0.5 0.79061 0.0
C2850 C 0.89012 0.46489 0.78668 0.0
C2851 C 0.87291 0.46081 0.77759 0.0
C2852 C 0.86593 0.47631 0.77407 0.0
C2853 C 0.87582 0.49588 0.78034 0.0
C2854 C 0.86114 0.44104 0.77549 0.0
C2855 C 0.84878 0.43903 0.78886 0.0
C2856 C 0.86386 0.42409 0.76287 0.0
C2857 C 0.87668 0.42565 0.74829 0.0
C2858 C 0.8762 0.43839 0.73592 0.0
C2859 C 0.88827 0.43982 0.7222 0.0
C2860 C 0.90086 0.42853 0.72064 0.0
C2861 C 0.90138 0.41575 0.73276 0.0
C2862 C 0.88934 0.41426 0.74652 0.0
C2863 C 0.80817 0.35517 0.77229 0.0
C2864 C 0.81903 0.34243 0.77442 0.0
C2865 C 0.81558 0.37554 0.7753 0.0
C2866 C 0.83392 0.38313 0.78011 0.0
C2867 C 0.84456 0.37045 0.78319 0.0
C2868 C 0.83717 0.35016 0.78016 0.0
C2869 C 0.84253 0.40328 0.77848 0.0
C2870 C 0.85432 0.40531 0.76441 0.0
C2871 C 0.83964 0.42034 0.7907 0.0
C2872 C 0.8292 0.41959 0.80716 0.0
C2873 C 0.83803 0.42186 0.82522 0.0
C2874 C 0.82927 0.42552 0.84161 0.0
C2875 C 0.81156 0.42653 0.84004 0.0
C2876 C 0.80256 0.42377 0.82204 0.0
C2877 C 0.81139 0.42049 0.80562 0.0
H2878 H 0.80477 0.42927 0.85275 0.0
H2879 H 0.91018 0.42965 0.70999 0.0
H2880 H 0.10249 0.87406 0.09004 0.0
H2881 H 0.10284 0.90206 0.07498 0.0
H2882 H 0.04847 0.87526 0.05145 0.0
H2883 H 0.04871 0.84702 0.0644 0.0
H2884 H 0.06033 0.89148 0.02791 0.0
H2885 H 0.06659 0.9174 0.09695 0.0
H2886 H 0.08137 0.92579 0.12974 0.0
H2887 H 0.12776 0.96064 0.11214 0.0
H2888 H 0.11329 0.95228 0.0792 0.0
H2889 H 0.02699 0.97496 0.02173 0.0
H2890 H 0.03436 0.94601 0.02861 0.0
H2891 H 0.08941 0.97784 0.04064 0.0
H2892 H 0.08159 0.00747 0.03537 0.0
H2893 H 0.08145 0.96009 0.06754 0.0
H2894 H 0.07013 0.93722 0.99873 0.0
H2895 H 0.05182 0.93046 0.96805 0.0
H2896 H 0.01059 0.89028 0.98777 0.0
H2897 H 0.02855 0.89698 0.01863 0.0
C2898 C 0.09083 0.87394 0.0812 0.0
C2899 C 0.07557 0.85813 0.07871 0.0
C2900 C 0.09087 0.89021 0.07284 0.0
C2901 C 0.07546 0.8914 0.06237 0.0
C2902 C 0.06063 0.87514 0.0593 0.0
C2903 C 0.06078 0.8588 0.06699 0.0
C2904 C 0.07404 0.90937 0.05495 0.0
C2905 C 0.06486 0.90642 0.03679 0.0
C2906 C 0.08024 0.9292 0.06594 0.0
C2907 C 0.08898 0.93398 0.08562 0.0
C2908 C 0.07999 0.92672 0.10007 0.0
C2909 C 0.0883 0.9315 0.11867 0.0
C2910 C 0.10552 0.94368 0.123 0.0
C2911 C 0.11445 0.95116 0.10875 0.0
C2912 C 0.10621 0.9464 0.09012 0.0
C2913 C 0.04054 0.9762 0.02597 0.0
C2914 C 0.05334 0.99434 0.02873 0.0
C2915 C 0.04494 0.95919 0.02961 0.0
C2916 C 0.06255 0.95947 0.03528 0.0
C2917 C 0.07565 0.97708 0.03658 0.0
C2918 C 0.07111 0.99417 0.0334 0.0
C2919 C 0.06718 0.94198 0.04099 0.0
C2920 C 0.07705 0.9451 0.0587 0.0
C2921 C 0.06115 0.92226 0.02984 0.0
C2922 C 0.05068 0.91765 0.011 0.0
C2923 C 0.05716 0.92695 0.99651 0.0
C2924 C 0.04683 0.92315 0.97911 0.0
C2925 C 0.03005 0.90997 0.97597 0.0
C2926 C 0.02359 0.90048 0.99021 0.0
C2927 C 0.03386 0.90424 0.00764 0.0
H2928 H 0.02205 0.9071 0.96251 0.0
H2929 H 0.11192 0.94737 0.13742 0.0
H2930 H 0.97932 0.27501 0.86565 0.0
H2931 H 0.95201 0.27695 0.84935 0.0
H2932 H 0.92328 0.26215 0.89613 0.0
H2933 H 0.95075 0.2591 0.91217 0.0
H2934 H 0.90344 0.24381 0.86445 0.0
H2935 H 0.93513 0.31223 0.88795 0.0
H2936 H 0.96072 0.34117 0.89309 0.0
H2937 H 0.96185 0.33383 0.83245 0.0
H2938 H 0.93621 0.30474 0.82697 0.0
H2939 H 0.82734 0.27321 0.83141 0.0
H2940 H 0.85322 0.26996 0.85009 0.0
H2941 H 0.88575 0.2821 0.80514 0.0
H2942 H 0.86032 0.2865 0.78714 0.0
H2943 H 0.90285 0.3022 0.83756 0.0
H2944 H 0.87141 0.23391 0.81379 0.0
H2945 H 0.84532 0.20536 0.80828 0.0
H2946 H 0.84361 0.21243 0.86882 0.0
H2947 H 0.8696 0.24117 0.87469 0.0
C2948 C 0.96725 0.27229 0.87262 0.0
C2949 C 0.96735 0.26712 0.89038 0.0
C2950 C 0.95155 0.27351 0.86326 0.0
C2951 C 0.93546 0.27023 0.87161 0.0
C2952 C 0.93546 0.2649 0.88934 0.0
C2953 C 0.95121 0.26326 0.89859 0.0
C2954 C 0.9188 0.27223 0.86164 0.0
C2955 C 0.90327 0.25676 0.85888 0.0
C2956 C 0.91844 0.28884 0.85385 0.0
C2957 C 0.93381 0.30631 0.85707 0.0
C2958 C 0.94088 0.31676 0.87572 0.0
C2959 C 0.95539 0.3332 0.87869 0.0
C2960 C 0.96293 0.33937 0.8631 0.0
C2961 C 0.95597 0.32907 0.84451 0.0
C2962 C 0.94142 0.31264 0.84146 0.0
C2963 C 0.83999 0.27502 0.82547 0.0
C2964 C 0.84153 0.27936 0.80739 0.0
C2965 C 0.85479 0.27304 0.83611 0.0
C2966 C 0.87151 0.27537 0.82894 0.0
C2967 C 0.87305 0.27997 0.81099 0.0
C2968 C 0.85833 0.28205 0.80044 0.0
C2969 C 0.88756 0.27375 0.84024 0.0
C2970 C 0.90298 0.2893 0.84323 0.0
C2971 C 0.88779 0.25721 0.84816 0.0
C2972 C 0.87236 0.23977 0.84468 0.0
C2973 C 0.86542 0.22943 0.82593 0.0
C2974 C 0.85066 0.21321 0.82273 0.0
C2975 C 0.8428 0.20711 0.83819 0.0
C2976 C 0.84972 0.21718 0.85686 0.0
C2977 C 0.86447 0.23341 0.86013 0.0
H2978 H 0.83136 0.19456 0.83569 0.0
H2979 H 0.97413 0.35216 0.86541 0.0
H2980 H 0.59384 0.26632 0.58723 0.0
H2981 H 0.59416 0.23143 0.57427 0.0
H2982 H 0.53722 0.21591 0.56319 0.0
H2983 H 0.53676 0.25055 0.57536 0.0
H2984 H 0.56783 0.1983 0.59144 0.0
H2985 H 0.54019 0.20647 0.52924 0.0
H2986 H 0.5431 0.22335 0.50266 0.0
H2987 H 0.59298 0.20871 0.4929 0.0
H2988 H 0.59059 0.19227 0.51985 0.0
H2989 H 0.53489 0.09681 0.56564 0.0
H2990 H 0.5398 0.13226 0.5708 0.0
H2991 H 0.57258 0.13195 0.52402 0.0
H2992 H 0.56368 0.09545 0.51596 0.0
H2993 H 0.56044 0.15975 0.52417 0.0
H2994 H 0.58789 0.14703 0.57928 0.0
H2995 H 0.58918 0.13041 0.60582 0.0
H2996 H 0.54722 0.15455 0.63002 0.0
H2997 H 0.54554 0.1711 0.60352 0.0
C2998 C 0.58143 0.25555 0.58162 0.0
C2999 C 0.56529 0.26136 0.58221 0.0
C3000 C 0.58165 0.23563 0.57416 0.0
C3001 C 0.56575 0.22113 0.56729 0.0
C3002 C 0.54969 0.22691 0.56778 0.0
C3003 C 0.54948 0.24679 0.57486 0.0
C3004 C 0.56549 0.19963 0.56201 0.0
C3005 C 0.56619 0.1898 0.57675 0.0
C3006 C 0.56412 0.18871 0.5429 0.0
C3007 C 0.56541 0.1986 0.52682 0.0
C3008 C 0.55194 0.20722 0.5217 0.0
C3009 C 0.55346 0.21663 0.5065 0.0
C3010 C 0.56827 0.21722 0.49617 0.0
C3011 C 0.58157 0.20835 0.50098 0.0
C3012 C 0.58015 0.19904 0.51623 0.0
C3013 C 0.5433 0.1042 0.55646 0.0
C3014 C 0.54996 0.0932 0.54108 0.0
C3015 C 0.54644 0.12477 0.55971 0.0
C3016 C 0.55777 0.13544 0.54887 0.0
C3017 C 0.56427 0.12445 0.53318 0.0
C3018 C 0.5598 0.10351 0.52892 0.0
C3019 C 0.56204 0.15784 0.5537 0.0
C3020 C 0.56226 0.168 0.53894 0.0
C3021 C 0.56487 0.16926 0.57293 0.0
C3022 C 0.56661 0.16029 0.58943 0.0
C3023 C 0.57901 0.14886 0.59032 0.0
C3024 C 0.57976 0.1394 0.60532 0.0
C3025 C 0.56829 0.14143 0.61959 0.0
C3026 C 0.55612 0.15303 0.61898 0.0
C3027 C 0.5553 0.1625 0.60401 0.0
H3028 H 0.56883 0.13401 0.63114 0.0
H3029 H 0.5694 0.22446 0.48439 0.0
H3030 H 0.57124 0.75553 0.40569 0.0
H3031 H 0.60001 0.75645 0.3926 0.0
H3032 H 0.59066 0.79907 0.36148 0.0
H3033 H 0.56218 0.79824 0.37433 0.0
H3034 H 0.59921 0.76726 0.33863 0.0
H3035 H 0.62083 0.81145 0.40157 0.0
H3036 H 0.62579 0.81908 0.43673 0.0
H3037 H 0.65371 0.77314 0.4334 0.0
H3038 H 0.64868 0.76504 0.39823 0.0
H3039 H 0.67366 0.81095 0.30141 0.0
H3040 H 0.64856 0.80222 0.31897 0.0
H3041 H 0.67733 0.77123 0.34939 0.0
H3042 H 0.70365 0.78191 0.33299 0.0
H3043 H 0.65947 0.78916 0.37342 0.0
H3044 H 0.64137 0.74645 0.31209 0.0
H3045 H 0.63682 0.73674 0.2769 0.0
H3046 H 0.60186 0.77544 0.2769 0.0
H3047 H 0.6064 0.78561 0.31206 0.0
C3048 C 0.57542 0.76526 0.39623 0.0
C3049 C 0.56426 0.77671 0.39098 0.0
C3050 C 0.59192 0.76581 0.3888 0.0
C3051 C 0.59756 0.77781 0.37599 0.0
C3052 C 0.58664 0.78963 0.37125 0.0
C3053 C 0.57029 0.78914 0.37866 0.0
C3054 C 0.61409 0.77736 0.36628 0.0
C3055 C 0.6124 0.77216 0.34626 0.0
C3056 C 0.63131 0.78262 0.37617 0.0
C3057 C 0.63416 0.78746 0.39729 0.0
C3058 C 0.62785 0.80283 0.40834 0.0
C3059 C 0.63072 0.80727 0.42828 0.0
C3060 C 0.64 0.79655 0.4373 0.0
C3061 C 0.64648 0.7814 0.4264 0.0
C3062 C 0.64363 0.77688 0.40648 0.0
C3063 C 0.67491 0.80247 0.31196 0.0
C3064 C 0.69098 0.79748 0.31588 0.0
C3065 C 0.66026 0.79709 0.32182 0.0
C3066 C 0.66067 0.78558 0.33531 0.0
C3067 C 0.67651 0.78002 0.339 0.0
C3068 C 0.69152 0.78591 0.3294 0.0
C3069 C 0.6446 0.78012 0.34565 0.0
C3070 C 0.64632 0.78398 0.36574 0.0
C3071 C 0.62728 0.77316 0.33586 0.0
C3072 C 0.62428 0.76683 0.31471 0.0
C3073 C 0.63276 0.75294 0.30458 0.0
C3074 C 0.63019 0.74736 0.28464 0.0
C3075 C 0.61907 0.75548 0.27467 0.0
C3076 C 0.61045 0.76915 0.28463 0.0
C3077 C 0.613 0.7748 0.30457 0.0
H3078 H 0.61711 0.75116 0.25923 0.0
H3079 H 0.64222 0.80003 0.45273 0.0
H3080 H 0.07981 0.28734 0.43708 0.0
H3081 H 0.08064 0.26577 0.45877 0.0
H3082 H 0.10287 0.22744 0.41678 0.0
H3083 H 0.10159 0.24899 0.39463 0.0
H3084 H 0.07126 0.20896 0.4262 0.0
H3085 H 0.12555 0.25173 0.46196 0.0
H3086 H 0.14466 0.28426 0.47892 0.0
H3087 H 0.10602 0.29156 0.51882 0.0
H3088 H 0.08658 0.25923 0.50198 0.0
H3089 H 0.06115 0.13894 0.48229 0.0
H3090 H 0.07519 0.16352 0.46531 0.0
H3091 H 0.05575 0.20838 0.50276 0.0
H3092 H 0.04204 0.18398 0.52029 0.0
H3093 H 0.08953 0.22261 0.49563 0.0
H3094 H 0.03419 0.18709 0.4611 0.0
H3095 H 0.01063 0.15767 0.44505 0.0
H3096 H 0.0455 0.14052 0.40367 0.0
H3097 H 0.06942 0.1697 0.41969 0.0
C3098 C 0.08551 0.27472 0.43277 0.0
C3099 C 0.09045 0.26958 0.41422 0.0
C3100 C 0.08611 0.26248 0.44523 0.0
C3101 C 0.09186 0.24505 0.43938 0.0
C3102 C 0.09847 0.24092 0.42151 0.0
C3103 C 0.09785 0.25324 0.40895 0.0
C3104 C 0.0877 0.22967 0.45036 0.0
C3105 C 0.07574 0.21165 0.44124 0.0
C3106 C 0.09266 0.23383 0.47022 0.0
C3107 C 0.10461 0.25303 0.48069 0.0
C3108 C 0.12111 0.26029 0.47433 0.0
C3109 C 0.132 0.2787 0.48392 0.0
C3110 C 0.12656 0.28996 0.49994 0.0
C3111 C 0.11024 0.28281 0.50644 0.0
C3112 C 0.0993 0.26441 0.4969 0.0
C3113 C 0.05998 0.15406 0.48708 0.0
C3114 C 0.05024 0.15947 0.50246 0.0
C3115 C 0.06798 0.16805 0.47732 0.0
C3116 C 0.06631 0.18762 0.48273 0.0
C3117 C 0.05711 0.19328 0.49842 0.0
C3118 C 0.0491 0.17928 0.50822 0.0
C3119 C 0.07341 0.20191 0.47135 0.0
C3120 C 0.08559 0.2197 0.48044 0.0
C3121 C 0.06812 0.19795 0.4516 0.0
C3122 C 0.05371 0.18044 0.44178 0.0
C3123 C 0.03691 0.17694 0.4487 0.0
C3124 C 0.02348 0.16032 0.43959 0.0
C3125 C 0.02659 0.14716 0.42342 0.0
C3126 C 0.04313 0.15068 0.41625 0.0
C3127 C 0.05664 0.16727 0.42534 0.0
H3128 H 0.01618 0.13427 0.41642 0.0
H3129 H 0.135 0.30423 0.50732 0.0
H3130 H 0.55776 0.28363 0.21889 0.0
H3131 H 0.58536 0.27484 0.22579 0.0
H3132 H 0.58806 0.25281 0.16559 0.0
H3133 H 0.56008 0.26138 0.15841 0.0
H3134 H 0.59691 0.22834 0.19155 0.0
H3135 H 0.61298 0.29405 0.18164 0.0
H3136 H 0.6082 0.32766 0.18521 0.0
H3137 H 0.61957 0.33899 0.24604 0.0
H3138 H 0.62406 0.30528 0.24286 0.0
H3139 H 0.68767 0.23093 0.22057 0.0
H3140 H 0.6625 0.23657 0.2026 0.0
H3141 H 0.6444 0.2628 0.25553 0.0
H3142 H 0.66939 0.25691 0.27352 0.0
H3143 H 0.64589 0.28504 0.22608 0.0
H3144 H 0.62456 0.21882 0.23648 0.0
H3145 H 0.62714 0.18457 0.23446 0.0
H3146 H 0.62481 0.17402 0.17332 0.0
H3147 H 0.62257 0.20841 0.17504 0.0
C3148 C 0.56418 0.27695 0.20707 0.0
C3149 C 0.55695 0.27348 0.1881 0.0
C3150 C 0.57986 0.27184 0.21105 0.0
C3151 C 0.58866 0.26338 0.19615 0.0
C3152 C 0.58133 0.25935 0.1772 0.0
C3153 C 0.56552 0.26444 0.17316 0.0
C3154 C 0.60613 0.26016 0.20075 0.0
C3155 C 0.60785 0.24069 0.19859 0.0
C3156 C 0.62018 0.27637 0.2101 0.0
C3157 C 0.61885 0.29715 0.212 0.0
C3158 C 0.61449 0.30373 0.19577 0.0
C3159 C 0.61177 0.32277 0.19773 0.0
C3160 C 0.61357 0.33545 0.21584 0.0
C3161 C 0.6182 0.32916 0.23202 0.0
C3162 C 0.62087 0.3101 0.23015 0.0
C3163 C 0.67814 0.23769 0.22827 0.0
C3164 C 0.68011 0.24325 0.2483 0.0
C3165 C 0.66395 0.241 0.21806 0.0
C3166 C 0.65179 0.25012 0.22784 0.0
C3167 C 0.65379 0.25579 0.24785 0.0
C3168 C 0.66783 0.25221 0.25807 0.0
C3169 C 0.63651 0.2532 0.21732 0.0
C3170 C 0.63523 0.27269 0.21842 0.0
C3171 C 0.62291 0.23701 0.20699 0.0
C3172 C 0.62363 0.2162 0.20589 0.0
C3173 C 0.62473 0.20923 0.22262 0.0
C3174 C 0.62612 0.18981 0.22153 0.0
C3175 C 0.6262 0.17715 0.20378 0.0
C3176 C 0.62479 0.18387 0.18706 0.0
C3177 C 0.62346 0.20332 0.18808 0.0
H3178 H 0.62731 0.16211 0.20296 0.0
H3179 H 0.61138 0.35016 0.21734 0.0
H3180 H 0.56116 0.84733 0.92933 0.0
H3181 H 0.56819 0.88261 0.94431 0.0
H3182 H 0.60874 0.89393 0.90651 0.0
H3183 H 0.6017 0.85832 0.89107 0.0
H3184 H 0.61044 0.91384 0.9562 0.0
H3185 H 0.5875 0.9113 0.89097 0.0
H3186 H 0.56796 0.8937 0.86141 0.0
H3187 H 0.52233 0.89059 0.89302 0.0
H3188 H 0.54165 0.90795 0.92281 0.0
H3189 H 0.59415 0.00854 0.99714 0.0
H3190 H 0.60416 0.98265 0.97556 0.0
H3191 H 0.5507 0.94557 0.96584 0.0
H3192 H 0.54053 0.97199 0.98679 0.0
H3193 H 0.56463 0.94436 0.93369 0.0
H3194 H 0.58474 0.94185 0.9977 0.0
H3195 H 0.60182 0.95517 0.02934 0.0
H3196 H 0.65045 0.96356 0.00285 0.0
H3197 H 0.63362 0.9509 0.971 0.0
C3198 C 0.57174 0.8572 0.9243 0.0
C3199 C 0.5807 0.85013 0.90886 0.0
C3200 C 0.57579 0.87729 0.93295 0.0
C3201 C 0.58885 0.89061 0.92632 0.0
C3202 C 0.59863 0.88366 0.91169 0.0
C3203 C 0.59456 0.86341 0.90295 0.0
C3204 C 0.59046 0.91181 0.93377 0.0
C3205 C 0.601 0.92108 0.95101 0.0
C3206 C 0.57774 0.92065 0.92704 0.0
C3207 C 0.56602 0.91084 0.90909 0.0
C3208 C 0.57331 0.90679 0.89161 0.0
C3209 C 0.56228 0.89687 0.87483 0.0
C3210 C 0.54392 0.891 0.87534 0.0
C3211 C 0.53655 0.89515 0.89264 0.0
C3212 C 0.54753 0.90506 0.90947 0.0
C3213 C 0.58467 0.99469 0.99075 0.0
C3214 C 0.56673 0.99184 0.99395 0.0
C3215 C 0.59037 0.98003 0.97831 0.0
C3216 C 0.57825 0.96216 0.96934 0.0
C3217 C 0.56027 0.95931 0.97263 0.0
C3218 C 0.5545 0.97419 0.98471 0.0
C3219 C 0.58415 0.94618 0.95666 0.0
C3220 C 0.57485 0.9379 0.93852 0.0
C3221 C 0.59784 0.93811 0.96277 0.0
C3222 C 0.6079 0.9458 0.98195 0.0
C3223 C 0.59906 0.94681 0.99861 0.0
C3224 C 0.6087 0.95426 0.01659 0.0
C3225 C 0.62721 0.9604 0.01811 0.0
C3226 C 0.63611 0.95898 1.00165 0.0
C3227 C 0.62653 0.95172 0.98363 0.0
H3228 H 0.63465 0.96613 0.03204 0.0
H3229 H 0.5354 0.88326 0.86234 0.0
H3230 H 0.94601 0.74389 0.66878 0.0
H3231 H 0.9184 0.73839 0.68413 0.0
H3232 H 0.94842 0.76531 0.73923 0.0
H3233 H 0.97576 0.76863 0.72417 0.0
H3234 H 0.9194 0.74681 0.74555 0.0
H3235 H 0.93635 0.7928 0.70204 0.0
H3236 H 0.94126 0.79858 0.66989 0.0
H3237 H 0.88868 0.76323 0.64852 0.0
H3238 H 0.88359 0.75707 0.68047 0.0
H3239 H 0.86244 0.79886 0.79276 0.0
H3240 H 0.88957 0.79571 0.7778 0.0
H3241 H 0.85849 0.77254 0.72277 0.0
H3242 H 0.83264 0.78009 0.73722 0.0
H3243 H 0.88742 0.78747 0.71604 0.0
H3244 H 0.87025 0.74332 0.76183 0.0
H3245 H 0.86616 0.74103 0.79514 0.0
H3246 H 0.91969 0.77547 0.81306 0.0
H3247 H 0.92402 0.77799 0.77991 0.0
C3248 C 0.94659 0.7477 0.68422 0.0
C3249 C 0.96267 0.75737 0.69542 0.0
C3250 C 0.93091 0.74463 0.69297 0.0
C3251 C 0.93133 0.75266 0.71264 0.0
C3252 C 0.94768 0.75941 0.72395 0.0
C3253 C 0.96335 0.76147 0.71534 0.0
C3254 C 0.91583 0.75852 0.72086 0.0
C3255 C 0.91219 0.75544 0.73897 0.0
C3256 C 0.90663 0.77012 0.71248 0.0
C3257 C 0.90968 0.77432 0.69351 0.0
C3258 C 0.92587 0.7863 0.69046 0.0
C3259 C 0.92869 0.78959 0.67228 0.0
C3260 C 0.91531 0.78123 0.65716 0.0
C3261 C 0.89905 0.76964 0.66021 0.0
C3262 C 0.8962 0.76623 0.67833 0.0
C3263 C 0.86184 0.79414 0.77737 0.0
C3264 C 0.84585 0.79013 0.76594 0.0
C3265 C 0.87714 0.79175 0.76887 0.0
C3266 C 0.87594 0.78283 0.74928 0.0
C3267 C 0.85988 0.77936 0.73791 0.0
C3268 C 0.84505 0.78344 0.74615 0.0
C3269 C 0.89057 0.77533 0.74056 0.0
C3270 C 0.89421 0.77836 0.72245 0.0
C3271 C 0.89978 0.76377 0.74899 0.0
C3272 C 0.89744 0.76082 0.76848 0.0
C3273 C 0.88116 0.75021 0.77287 0.0
C3274 C 0.87879 0.74897 0.79173 0.0
C3275 C 0.89265 0.75811 0.80621 0.0
C3276 C 0.90897 0.76837 0.80185 0.0
C3277 C 0.91141 0.76966 0.78304 0.0
H3278 H 0.89075 0.75725 0.82081 0.0
H3279 H 0.91754 0.78376 0.6431 0.0
H3280 H 0.11004 0.99969 0.80554 0.0
H3281 H 0.0959 1.00005 0.83503 0.0
H3282 H 0.14635 0.02991 0.86764 0.0
H3283 H 0.16079 0.02736 0.83785 0.0
H3284 H 0.13189 0.0108 0.88863 0.0
H3285 H 0.10309 0.05054 0.85619 0.0
H3286 H 0.08573 0.05672 0.82961 0.0
H3287 H 0.04296 0.00732 0.83237 0.0
H3288 H 0.06013 1.00074 0.85882 0.0
H3289 H 0.0945 0.04451 0.97557 0.0
H3290 H 0.10847 0.04109 0.94572 0.0
H3291 H 0.05994 1.00163 0.91583 0.0
H3292 H 0.04591 0.00503 0.94571 0.0
H3293 H 0.07264 0.02491 0.89378 0.0
H3294 H 0.0996 0.98605 0.92636 0.0
H3295 H 0.11581 0.97875 0.95305 0.0
H3296 H 0.16103 0.02538 0.95005 0.0
H3297 H 0.14498 0.03314 0.9235 0.0
C3298 C 0.11818 0.00647 0.81898 0.0
C3299 C 0.13666 0.01376 0.81899 0.0
C3300 C 0.10993 0.00697 0.83616 0.0
C3301 C 0.11954 0.01587 0.85432 0.0
C3302 C 0.13815 0.02305 0.85427 0.0
C3303 C 0.14654 0.02174 0.83704 0.0
C3304 C 0.11047 0.01725 0.87312 0.0
C3305 C 0.11909 0.01433 0.8896 0.0
C3306 C 0.09326 0.021 0.8751 0.0
C3307 C 0.08295 0.02506 0.85932 0.0
C3308 C 0.09001 0.04097 0.85106 0.0
C3309 C 0.0802 0.04453 0.83603 0.0
C3310 C 0.06327 0.03239 0.82928 0.0
C3311 C 0.05608 0.01669 0.83759 0.0
C3312 C 0.06583 0.01305 0.8526 0.0
C3313 C 0.08669 0.03496 0.96274 0.0
C3314 C 0.06879 0.02517 0.96352 0.0
C3315 C 0.09485 0.03291 0.94545 0.0
C3316 C 0.08557 0.02091 0.92801 0.0
C3317 C 0.06769 0.01107 0.92875 0.0
C3318 C 0.05956 0.01303 0.94609 0.0
C3319 C 0.09428 0.01895 0.90914 0.0
C3320 C 0.08554 0.02163 0.89272 0.0
C3321 C 0.11131 0.01495 0.90721 0.0
C3322 C 0.12102 0.01031 0.9231 0.0
C3323 C 0.11295 0.99484 0.9315 0.0
C3324 C 0.12212 0.99061 0.94658 0.0
C3325 C 0.13943 1.00164 0.95328 0.0
C3326 C 0.14762 0.01688 0.94487 0.0
C3327 C 0.13849 0.0212 0.92979 0.0
H3328 H 0.1465 0.99834 0.96497 0.0
H3329 H 0.05571 0.03516 0.81763 0.0
H3330 H 0.83674 0.38296 0.55804 0.0
H3331 H 0.82959 0.36203 0.58062 0.0
H3332 H 0.78553 0.38757 0.59598 0.0
H3333 H 0.79252 0.40857 0.57326 0.0
H3334 H 0.81357 0.39326 0.62563 0.0
H3335 H 0.77523 0.34089 0.57854 0.0
H3336 H 0.76807 0.31997 0.54578 0.0
H3337 H 0.81248 0.29506 0.5532 0.0
H3338 H 0.82011 0.3161 0.58588 0.0
H3339 H 0.81807 0.34279 0.69952 0.0
H3340 H 0.80345 0.35154 0.67284 0.0
H3341 H 0.84076 0.33104 0.63581 0.0
H3342 H 0.85544 0.32247 0.66244 0.0
H3343 H 0.80626 0.32074 0.61793 0.0
H3344 H 0.84995 0.37621 0.6561 0.0
H3345 H 0.8646 0.40095 0.6853 0.0
H3346 H 0.81784 0.42317 0.69135 0.0
H3347 H 0.80272 0.39817 0.66244 0.0
C3348 C 0.82522 0.38368 0.56581 0.0
C3349 C 0.81532 0.39747 0.56419 0.0
C3350 C 0.82108 0.37165 0.57856 0.0
C3351 C 0.80703 0.37337 0.58978 0.0
C3352 C 0.79631 0.38609 0.58723 0.0
C3353 C 0.80033 0.39798 0.57428 0.0
C3354 C 0.80576 0.36442 0.60622 0.0
C3355 C 0.81122 0.37734 0.6242 0.0
C3356 C 0.80346 0.34378 0.60385 0.0
C3357 C 0.79818 0.33001 0.58473 0.0
C3358 C 0.78343 0.33089 0.57321 0.0
C3359 C 0.77933 0.31907 0.55463 0.0
C3360 C 0.7898 0.30617 0.54742 0.0
C3361 C 0.80434 0.30501 0.55882 0.0
C3362 C 0.80854 0.31685 0.57741 0.0
C3363 C 0.82299 0.34009 0.68561 0.0
C3364 C 0.83798 0.33239 0.68289 0.0
C3365 C 0.8146 0.3449 0.67046 0.0
C3366 C 0.82108 0.34182 0.65251 0.0
C3367 C 0.83557 0.33332 0.64961 0.0
C3368 C 0.84408 0.32876 0.66479 0.0
C3369 C 0.81428 0.34964 0.6373 0.0
C3370 C 0.80756 0.33654 0.61961 0.0
C3371 C 0.81612 0.37027 0.6397 0.0
C3372 C 0.82504 0.385 0.65736 0.0
C3373 C 0.84266 0.38611 0.66385 0.0
C3374 C 0.85108 0.40023 0.68031 0.0
C3375 C 0.84211 0.41354 0.69023 0.0
C3376 C 0.82472 0.41276 0.68371 0.0
C3377 C 0.8162 0.39859 0.66732 0.0
H3378 H 0.84865 0.42452 0.70291 0.0
H3379 H 0.78665 0.29709 0.53299 0.0
H3380 H 0.46364 0.03087 0.32609 0.0
H3381 H 0.48401 0.03589 0.35376 0.0
H3382 H 0.44038 0.03129 0.38905 0.0
H3383 H 0.42003 0.02883 0.36127 0.0
H3384 H 0.46156 0.06233 0.40401 0.0
H3385 H 0.47097 0.99797 0.38162 0.0
H3386 H 0.47669 0.96902 0.3593 0.0
H3387 H 0.52701 0.00443 0.35061 0.0
H3388 H 0.52151 0.03366 0.37274 0.0
H3389 H 0.50291 0.03344 0.47459 0.0
H3390 H 0.48683 0.04193 0.44959 0.0
H3391 H 0.53557 0.07738 0.43628 0.0
H3392 H 0.55186 0.0702 0.46281 0.0
H3393 H 0.51664 0.03938 0.40952 0.0
H3394 H 0.50543 0.10129 0.44186 0.0
H3395 H 0.49804 0.12289 0.47048 0.0
H3396 H 0.44747 0.08179 0.46741 0.0
H3397 H 0.45452 0.05994 0.43875 0.0
C3398 C 0.45825 0.03013 0.3396 0.0
C3399 C 0.44041 0.02987 0.34178 0.0
C3400 C 0.46997 0.03289 0.3555 0.0
C3401 C 0.46379 0.0341 0.37359 0.0
C3402 C 0.44547 0.03083 0.37526 0.0
C3403 C 0.43382 0.02913 0.35943 0.0
C3404 C 0.47658 0.0418 0.39074 0.0
C3405 C 0.47345 0.05703 0.40526 0.0
C3406 C 0.49246 0.03553 0.39217 0.0
C3407 C 0.49574 0.01805 0.37867 0.0
C3408 C 0.48318 0.99963 0.37481 0.0
C3409 C 0.4864 0.98316 0.36223 0.0
C3410 C 0.50218 0.9849 0.3535 0.0
C3411 C 0.51479 0.00311 0.35737 0.0
C3412 C 0.51164 0.01962 0.36994 0.0
C3413 C 0.5102 0.04366 0.46691 0.0
C3414 C 0.52865 0.05089 0.47031 0.0
C3415 C 0.50094 0.04871 0.45279 0.0
C3416 C 0.5101 0.06041 0.44141 0.0
C3417 C 0.5284 0.0686 0.44531 0.0
C3418 C 0.53766 0.06416 0.4601 0.0
C3419 C 0.50107 0.05891 0.42289 0.0
C3420 C 0.5049 0.0449 0.40785 0.0
C3421 C 0.48533 0.06527 0.42165 0.0
C3422 C 0.48048 0.07904 0.43807 0.0
C3423 C 0.49269 0.09691 0.44722 0.0
C3424 C 0.48857 0.10918 0.46347 0.0
C3425 C 0.47231 0.10369 0.47077 0.0
C3426 C 0.46005 0.08603 0.46171 0.0
C3427 C 0.46405 0.07377 0.44538 0.0
H3428 H 0.4692 0.11313 0.48344 0.0
H3429 H 0.50465 0.97212 0.34377 0.0
H3430 H 0.77884 0.72247 0.05564 0.0
H3431 H 0.77441 0.73605 0.08901 0.0
H3432 H 0.83072 0.7491 0.1046 0.0
H3433 H 0.83536 0.73617 0.07149 0.0
H3434 H 0.79585 0.71927 0.12186 0.0
H3435 H 0.82795 0.78486 0.11046 0.0
H3436 H 0.82908 0.81096 0.09263 0.0
H3437 H 0.7775 0.81635 0.10817 0.0
H3438 H 0.77591 0.78989 0.12568 0.0
H3439 H 0.81621 0.74871 0.21752 0.0
H3440 H 0.81788 0.74584 0.18399 0.0
H3441 H 0.78475 0.78683 0.18417 0.0
H3442 H 0.78756 0.79408 0.21926 0.0
H3443 H 0.8012 0.78899 0.15673 0.0
H3444 H 0.76942 0.72865 0.17172 0.0
H3445 H 0.76545 0.70183 0.18903 0.0
H3446 H 0.81067 0.68429 0.16557 0.0
H3447 H 0.81502 0.7111 0.14831 0.0
C3448 C 0.79029 0.72855 0.06614 0.0
C3449 C 0.80745 0.72829 0.0609 0.0
C3450 C 0.78774 0.73639 0.08512 0.0
C3451 C 0.80229 0.74393 0.0991 0.0
C3452 C 0.81939 0.74381 0.09389 0.0
C3453 C 0.82199 0.73633 0.07495 0.0
C3454 C 0.79967 0.74948 0.11956 0.0
C3455 C 0.79699 0.73449 0.12956 0.0
C3456 C 0.80049 0.76918 0.12933 0.0
C3457 C 0.80168 0.78519 0.11905 0.0
C3458 C 0.81675 0.79139 0.10981 0.0
C3459 C 0.81749 0.80629 0.09982 0.0
C3460 C 0.80333 0.81524 0.09918 0.0
C3461 C 0.78842 0.80936 0.1086 0.0
C3462 C 0.78759 0.7944 0.11854 0.0
C3463 C 0.80924 0.75732 0.21068 0.0
C3464 C 0.80012 0.77036 0.22115 0.0
C3465 C 0.80994 0.75528 0.19117 0.0
C3466 C 0.7999 0.76441 0.18096 0.0
C3467 C 0.79184 0.77864 0.19142 0.0
C3468 C 0.79273 0.78223 0.21148 0.0
C3469 C 0.79808 0.7588 0.15957 0.0
C3470 C 0.79975 0.77367 0.14924 0.0
C3471 C 0.79584 0.73874 0.1493 0.0
C3472 C 0.79251 0.72185 0.15871 0.0
C3473 C 0.77843 0.71898 0.17018 0.0
C3474 C 0.77617 0.70383 0.18003 0.0
C3475 C 0.78779 0.69136 0.1784 0.0
C3476 C 0.80165 0.69392 0.1668 0.0
C3477 C 0.80399 0.70904 0.15692 0.0
H3478 H 0.78607 0.67972 0.18612 0.0
H3479 H 0.80394 0.82679 0.09145 0.0
H3480 H 0.10221 0.01586 0.71904 0.0
H3481 H 0.08997 0.01966 0.68892 0.0
H3482 H 0.13634 0.0082 0.66276 0.0
H3483 H 0.14904 0.00473 0.69355 0.0
H3484 H 0.12738 0.0364 0.64916 0.0
H3485 H 0.09184 0.97326 0.65392 0.0
H3486 H 0.07207 0.94901 0.66815 0.0
H3487 H 0.03346 0.98381 0.67229 0.0
H3488 H 0.05308 0.00838 0.65828 0.0
H3489 H 0.08668 0.03002 0.55489 0.0
H3490 H 0.10171 0.02654 0.58412 0.0
H3491 H 0.05422 0.02854 0.61236 0.0
H3492 H 0.03898 0.03055 0.58261 0.0
H3493 H 0.06483 0.0037 0.62411 0.0
H3494 H 0.10178 0.06936 0.62456 0.0
H3495 H 0.12179 0.09472 0.61165 0.0
H3496 H 0.15661 0.05599 0.5978 0.0
H3497 H 0.13705 0.03064 0.61105 0.0
C3498 C 0.10997 0.01399 0.70699 0.0
C3499 C 0.1268 0.00982 0.7092 0.0
C3500 C 0.10273 0.01604 0.68942 0.0
C3501 C 0.11179 0.01387 0.67289 0.0
C3502 C 0.12874 0.00988 0.67497 0.0
C3503 C 0.13607 0.00779 0.69273 0.0
C3504 C 0.10367 0.01631 0.65393 0.0
C3505 C 0.11375 0.02896 0.64364 0.0
C3506 C 0.08566 0.00726 0.64642 0.0
C3507 C 0.07403 0.99276 0.65525 0.0
C3508 C 0.07921 0.97583 0.65804 0.0
C3509 C 0.06801 0.96201 0.66602 0.0
C3510 C 0.05155 0.96489 0.67117 0.0
C3511 C 0.04623 0.98161 0.66833 0.0
C3512 C 0.05738 0.99548 0.66036 0.0
C3513 C 0.07957 0.03015 0.56747 0.0
C3514 C 0.06164 0.03106 0.56633 0.0
C3515 C 0.08828 0.02826 0.58448 0.0
C3516 C 0.07954 0.02758 0.60126 0.0
C3517 C 0.06165 0.0289 0.60004 0.0
C3518 C 0.05285 0.03029 0.58293 0.0
C3519 C 0.08837 0.02424 0.61949 0.0
C3520 C 0.07843 0.0113 0.62963 0.0
C3521 C 0.10642 0.03317 0.62695 0.0
C3522 C 0.11788 0.04807 0.61853 0.0
C3523 C 0.11366 0.06624 0.61864 0.0
C3524 C 0.12494 0.08062 0.61135 0.0
C3525 C 0.14034 0.07687 0.60372 0.0
C3526 C 0.14462 0.05883 0.6036 0.0
C3527 C 0.13352 0.04452 0.61112 0.0
H3528 H 0.14899 0.088 0.59801 0.0
H3529 H 0.04289 0.95415 0.67732 0.0
H3530 H 0.85726 0.40238 0.48386 0.0
H3531 H 0.85234 0.38033 0.45208 0.0
H3532 H 0.80025 0.39054 0.44425 0.0
H3533 H 0.8049 0.41246 0.4762 0.0
H3534 H 0.79948 0.35156 0.43299 0.0
H3535 H 0.8337 0.41272 0.4224 0.0
H3536 H 0.85876 0.44231 0.42753 0.0
H3537 H 0.89491 0.40499 0.41457 0.0
H3538 H 0.87006 0.37516 0.40961 0.0
H3539 H 0.78256 0.31507 0.33323 0.0
H3540 H 0.78728 0.33369 0.36633 0.0
H3541 H 0.84103 0.32697 0.36996 0.0
H3542 H 0.83655 0.30934 0.33613 0.0
H3543 H 0.84107 0.36304 0.38413 0.0
H3544 H 0.80493 0.30111 0.39242 0.0
H3545 H 0.77858 0.27279 0.3844 0.0
H3546 H 0.74478 0.31238 0.40007 0.0
H3547 H 0.7709 0.34099 0.40786 0.0
C3548 C 0.84476 0.40004 0.47539 0.0
C3549 C 0.83148 0.40922 0.48259 0.0
C3550 C 0.842 0.38744 0.45721 0.0
C3551 C 0.82598 0.38392 0.44581 0.0
C3552 C 0.81269 0.39306 0.45288 0.0
C3553 C 0.81542 0.40565 0.4711 0.0
C3554 C 0.82311 0.37062 0.42653 0.0
C3555 C 0.80848 0.3541 0.42223 0.0
C3556 C 0.83505 0.37382 0.41267 0.0
C3557 C 0.85005 0.39172 0.41586 0.0
C3558 C 0.84701 0.41083 0.42084 0.0
C3559 C 0.86117 0.42764 0.42367 0.0
C3560 C 0.87842 0.42553 0.42144 0.0
C3561 C 0.88154 0.4066 0.41633 0.0
C3562 C 0.86743 0.38974 0.4135 0.0
C3563 C 0.7952 0.31708 0.34128 0.0
C3564 C 0.8091 0.31046 0.33245 0.0
C3565 C 0.7979 0.32773 0.3602 0.0
C3566 C 0.81437 0.3313 0.37083 0.0
C3567 C 0.82817 0.32424 0.36207 0.0
C3568 C 0.82562 0.3141 0.34288 0.0
C3569 C 0.81754 0.34374 0.39056 0.0
C3570 C 0.8322 0.36022 0.39495 0.0
C3571 C 0.80554 0.34053 0.40442 0.0
C3572 C 0.78989 0.32321 0.40068 0.0
C3573 C 0.79188 0.30378 0.39416 0.0
C3574 C 0.77698 0.28768 0.38961 0.0
C3575 C 0.76002 0.29079 0.39171 0.0
C3576 C 0.75793 0.31 0.39846 0.0
C3577 C 0.77278 0.32616 0.40298 0.0
H3578 H 0.7485 0.27831 0.38811 0.0
H3579 H 0.88937 0.43857 0.42362 0.0
H3580 H 0.43827 0.07094 0.2423 0.0
H3581 H 0.44505 0.05971 0.20944 0.0
H3582 H 0.44383 1.00172 0.21949 0.0
H3583 H 0.43814 0.01339 0.25258 0.0
H3584 H 0.47398 0.01708 0.20851 0.0
H3585 H 0.41308 0.00893 0.18596 0.0
H3586 H 0.38536 0.02001 0.18468 0.0
H3587 H 0.41163 0.06909 0.16228 0.0
H3588 H 0.43956 0.05842 0.16362 0.0
H3589 H 0.50499 0.98682 0.12188 0.0
H3590 H 0.47999 0.98634 0.14133 0.0
H3591 H 0.48705 0.04935 0.14725 0.0
H3592 H 0.51222 0.05013 0.12835 0.0
H3593 H 0.4499 0.02642 0.14709 0.0
H3594 H 0.5099 0.04156 0.17874 0.0
H3595 H 0.53957 0.03512 0.18223 0.0
H3596 H 0.51588 0.97672 0.18952 0.0
H3597 H 0.48604 0.98279 0.18582 0.0
C3598 C 0.43916 0.05574 0.23722 0.0
C3599 C 0.43804 0.04301 0.24965 0.0
C3600 C 0.44279 0.04925 0.21849 0.0
C3601 C 0.44478 0.02982 0.21205 0.0
C3602 C 0.44234 0.01674 0.22424 0.0
C3603 C 0.4392 0.02339 0.24304 0.0
C3604 C 0.45235 0.02426 0.19395 0.0
C3605 C 0.46833 0.01846 0.19497 0.0
C3606 C 0.44537 0.02692 0.17652 0.0
C3607 C 0.42841 0.03286 0.17488 0.0
C3608 C 0.41294 0.02208 0.18076 0.0
C3609 C 0.3972 0.0283 0.18004 0.0
C3610 C 0.39674 0.04524 0.17341 0.0
C3611 C 0.412 0.05594 0.16738 0.0
C3612 C 0.42778 0.04978 0.16806 0.0
C3613 C 0.50102 1.00049 0.12708 0.0
C3614 C 0.51073 0.01856 0.12395 0.0
C3615 C 0.48657 1.00012 0.13783 0.0
C3616 C 0.48178 0.01781 0.14556 0.0
C3617 C 0.49044 0.03553 0.14108 0.0
C3618 C 0.50492 0.03595 0.13043 0.0
C3619 C 0.47112 0.01885 0.16181 0.0
C3620 C 0.45493 0.02419 0.16052 0.0
C3621 C 0.47794 0.01611 0.17922 0.0
C3622 C 0.4958 0.01252 0.1818 0.0
C3623 C 0.51105 0.02731 0.18097 0.0
C3624 C 0.52787 0.02374 0.183 0.0
C3625 C 0.5296 0.00549 0.18604 0.0
C3626 C 0.51451 0.99082 0.18713 0.0
C3627 C 0.49764 0.99432 0.18508 0.0
H3628 H 0.54264 1.00274 0.1876 0.0
H3629 H 0.38455 0.05008 0.17292 0.0
H3630 H 0.77884 0.72229 0.95947 0.0
H3631 H 0.77875 0.73701 0.93174 0.0
H3632 H 0.83469 0.76477 0.94578 0.0
H3633 H 0.83464 0.75136 0.97381 0.0
H3634 H 0.82208 0.78828 0.93272 0.0
H3635 H 0.81683 0.71849 0.91142 0.0
H3636 H 0.80437 0.68239 0.90632 0.0
H3637 H 0.75646 0.68743 0.87801 0.0
H3638 H 0.76855 0.72361 0.88318 0.0
H3639 H 0.82773 0.76649 0.82291 0.0
H3640 H 0.8282 0.75811 0.85426 0.0
H3641 H 0.79718 0.80018 0.87418 0.0
H3642 H 0.79775 0.80947 0.84346 0.0
H3643 H 0.79757 0.7427 0.86998 0.0
H3644 H 0.80884 0.81994 0.90539 0.0
H3645 H 0.82836 0.85312 0.90713 0.0
H3646 H 0.87402 0.82872 0.90578 0.0
H3647 H 0.85463 0.79529 0.90335 0.0
C3648 C 0.79098 0.73197 0.9569 0.0
C3649 C 0.80675 0.73547 0.9688 0.0
C3650 C 0.79098 0.74016 0.94091 0.0
C3651 C 0.80682 0.7516 0.93638 0.0
C3652 C 0.82228 0.75599 0.94887 0.0
C3653 C 0.82222 0.7482 0.96496 0.0
C3654 C 0.80774 0.75844 0.91833 0.0
C3655 C 0.81656 0.77824 0.91908 0.0
C3656 C 0.80107 0.74536 0.90033 0.0
C3657 C 0.79347 0.72378 0.89798 0.0
C3658 C 0.80354 0.71193 0.90435 0.0
C3659 C 0.79657 0.69145 0.90138 0.0
C3660 C 0.77961 0.68264 0.89192 0.0
C3661 C 0.76957 0.69429 0.8854 0.0
C3662 C 0.77647 0.71478 0.88836 0.0
C3663 C 0.82142 0.77421 0.83424 0.0
C3664 C 0.81287 0.7887 0.83109 0.0
C3665 C 0.82169 0.76947 0.85203 0.0
C3666 C 0.81311 0.77893 0.86664 0.0
C3667 C 0.80455 0.79339 0.8634 0.0
C3668 C 0.80472 0.79853 0.84584 0.0
C3669 C 0.8116 0.77234 0.88463 0.0
C3670 C 0.80275 0.75264 0.88378 0.0
C3671 C 0.81885 0.78518 0.90241 0.0
C3672 C 0.83032 0.80518 0.90381 0.0
C3673 C 0.82302 0.82166 0.9052 0.0
C3674 C 0.83404 0.84048 0.9063 0.0
C3675 C 0.85241 0.84301 0.90646 0.0
C3676 C 0.85978 0.82672 0.9055 0.0
C3677 C 0.84878 0.80783 0.90414 0.0
H3678 H 0.86093 0.85761 0.90741 0.0
H3679 H 0.77426 0.66677 0.88958 0.0
H3680 H 0.79984 0.07177 0.01245 0.0
H3681 H 0.82826 0.06261 0.01389 0.0
H3682 H 0.855 0.12373 0.03945 0.0
H3683 H 0.8266 0.13281 0.03819 0.0
H3684 H 0.86995 0.10814 0.00792 0.0
H3685 H 0.85331 0.09105 0.06582 0.0
H3686 H 0.83202 0.07598 0.08595 0.0
H3687 H 0.82787 0.01815 0.04996 0.0
H3688 H 0.84895 0.03292 0.02943 0.0
H3689 H 0.94927 0.07358 0.00404 0.0
H3690 H 0.92671 0.09011 0.01699 0.0
H3691 H 0.88725 0.03423 1.00087 0.0
H3692 H 0.90987 0.01738 0.98936 0.0
H3693 H 0.88234 0.05322 0.03429 0.0
H3694 H 0.89497 0.07135 0.97372 0.0
H3695 H 0.91393 0.0869 0.9519 0.0
H3696 H 0.92443 0.14337 0.99213 0.0
H3697 H 0.90577 0.12809 0.01433 0.0
C3698 C 0.81173 0.08306 0.01891 0.0
C3699 C 0.81122 0.10297 0.02494 0.0
C3700 C 0.82793 0.0779 0.01964 0.0
C3701 C 0.84369 0.09258 0.02668 0.0
C3702 C 0.84299 0.11228 0.03379 0.0
C3703 C 0.82682 0.11743 0.03299 0.0
C3704 C 0.86094 0.08744 0.02533 0.0
C3705 C 0.87293 0.09644 0.01403 0.0
C3706 C 0.86464 0.07218 0.03325 0.0
C3707 C 0.85271 0.06309 0.0461 0.0
C3708 C 0.84786 0.07512 0.06221 0.0
C3709 C 0.83581 0.06664 0.07366 0.0
C3710 C 0.8286 0.04612 0.06924 0.0
C3711 C 0.8335 0.03404 0.05339 0.0
C3712 C 0.84553 0.04245 0.04186 0.0
C3713 C 0.93586 0.06473 0.00358 0.0
C3714 C 0.93138 0.04412 0.99555 0.0
C3715 C 0.92294 0.07427 0.01079 0.0
C3716 C 0.90526 0.06344 0.00968 0.0
C3717 C 0.90082 0.04289 0.00189 0.0
C3718 C 0.91374 0.03331 0.99503 0.0
C3719 C 0.89106 0.07326 0.0161 0.0
C3720 C 0.87965 0.06523 0.02851 0.0
C3721 C 0.8879 0.08943 0.00913 0.0
C3722 C 0.8992 0.09852 0.99579 0.0
C3723 C 0.90146 0.08704 0.97798 0.0
C3724 C 0.91214 0.09581 0.96554 0.0
C3725 C 0.92043 0.11609 0.97065 0.0
C3726 C 0.91805 0.12766 0.98821 0.0
C3727 C 0.90744 0.11895 1.00073 0.0
H3728 H 0.92867 0.12286 0.96099 0.0
H3729 H 0.81921 0.03958 0.07809 0.0
H3730 H 0.35797 0.42898 0.06691 0.0
H3731 H 0.3887 0.44761 0.06684 0.0
H3732 H 0.37888 0.44522 0.00693 0.0
H3733 H 0.34774 0.42738 0.00717 0.0
H3734 H 0.41293 0.4321 0.02656 0.0
H3735 H 0.38044 0.48354 0.02485 0.0
H3736 H 0.35928 0.50279 0.03772 0.0
H3737 H 0.39063 0.52258 0.09208 0.0
H3738 H 0.41175 0.50301 0.07963 0.0
H3739 H 0.48846 0.4914 0.00235 0.0
H3740 H 0.45847 0.47452 0.00598 0.0
H3741 H 0.46358 0.50888 0.06408 0.0
H3742 H 0.49373 0.52671 0.06019 0.0
H3743 H 0.43207 0.50553 0.04874 0.0
H3744 H 0.4655 0.45886 0.05286 0.0
H3745 H 0.48718 0.43887 0.04406 0.0
H3746 H 0.45546 0.40897 0.991 0.0
H3747 H 0.43374 0.42901 0.99932 0.0
C3748 C 0.3624 0.43244 0.05373 0.0
C3749 C 0.35061 0.4268 0.03702 0.0
C3750 C 0.37989 0.44309 0.05374 0.0
C3751 C 0.38597 0.4478 0.03692 0.0
C3752 C 0.37433 0.44178 0.02007 0.0
C3753 C 0.35662 0.43165 0.0202 0.0
C3754 C 0.40457 0.45889 0.037 0.0
C3755 C 0.41714 0.44817 0.03111 0.0
C3756 C 0.41011 0.47971 0.04401 0.0
C3757 C 0.3975 0.49157 0.0514 0.0
C3758 C 0.38268 0.49175 0.03962 0.0
C3759 C 0.37072 0.50277 0.04682 0.0
C3760 C 0.37357 0.51384 0.06573 0.0
C3761 C 0.38841 0.51395 0.07745 0.0
C3762 C 0.40037 0.50289 0.07033 0.0
C3763 C 0.48333 0.49545 0.01595 0.0
C3764 C 0.4936 0.51038 0.03102 0.0
C3765 C 0.46611 0.48562 0.01805 0.0
C3766 C 0.45881 0.49 0.03546 0.0
C3767 C 0.46893 0.50511 0.05053 0.0
C3768 C 0.48617 0.51526 0.04831 0.0
C3769 C 0.44055 0.47885 0.03753 0.0
C3770 C 0.42801 0.48947 0.04409 0.0
C3771 C 0.43512 0.45782 0.03166 0.0
C3772 C 0.44804 0.44554 0.02667 0.0
C3773 C 0.4632 0.4481 0.03926 0.0
C3774 C 0.47549 0.43676 0.03436 0.0
C3775 C 0.47271 0.42268 0.01697 0.0
C3776 C 0.4576 0.41989 0.00447 0.0
C3777 C 0.44528 0.43122 0.00927 0.0
H3778 H 0.48224 0.41391 0.0132 0.0
H3779 H 0.36431 0.52238 0.07127 0.0
H3780 H 0.38016 0.60379 0.7564 0.0
H3781 H 0.36389 0.62898 0.75375 0.0
H3782 H 0.3946 0.66801 0.80462 0.0
H3783 H 0.40961 0.64212 0.80803 0.0
H3784 H 0.36654 0.67625 0.80751 0.0
H3785 H 0.39658 0.67136 0.74991 0.0
H3786 H 0.40458 0.65394 0.71927 0.0
H3787 H 0.34953 0.6338 0.69757 0.0
H3788 H 0.34122 0.65096 0.72813 0.0
H3789 H 0.33266 0.7608 0.79657 0.0
H3790 H 0.34967 0.73677 0.80044 0.0
H3791 H 0.32484 0.69905 0.74608 0.0
H3792 H 0.31057 0.72478 0.74106 0.0
H3793 H 0.35116 0.69061 0.74563 0.0
H3794 H 0.32118 0.69507 0.80524 0.0
H3795 H 0.31454 0.71348 0.83618 0.0
H3796 H 0.37031 0.73536 0.8543 0.0
H3797 H 0.37724 0.71719 0.82345 0.0
C3798 C 0.38364 0.61784 0.76689 0.0
C3799 C 0.3966 0.62074 0.78228 0.0
C3800 C 0.37431 0.63259 0.76532 0.0
C3801 C 0.37794 0.65133 0.77866 0.0
C3802 C 0.39107 0.65412 0.79392 0.0
C3803 C 0.39995 0.63917 0.7958 0.0
C3804 C 0.36807 0.66773 0.7772 0.0
C3805 C 0.36332 0.6793 0.79385 0.0
C3806 C 0.36326 0.67235 0.75969 0.0
C3807 C 0.36829 0.66228 0.74131 0.0
C3808 C 0.3862 0.66316 0.7386 0.0
C3809 C 0.39079 0.65333 0.72126 0.0
C3810 C 0.37757 0.64273 0.7065 0.0
C3811 C 0.35975 0.64199 0.70902 0.0
C3812 C 0.3551 0.65178 0.72632 0.0
C3813 C 0.33053 0.74716 0.78563 0.0
C3814 C 0.31929 0.74454 0.76885 0.0
C3815 C 0.34027 0.73294 0.78793 0.0
C3816 C 0.33853 0.71479 0.77403 0.0
C3817 C 0.32703 0.71238 0.75738 0.0
C3818 C 0.3183 0.72712 0.75461 0.0
C3819 C 0.34887 0.69879 0.7759 0.0
C3820 C 0.35395 0.6874 0.75931 0.0
C3821 C 0.35397 0.69436 0.7935 0.0
C3822 C 0.3497 0.7049 0.81206 0.0
C3823 C 0.33199 0.7038 0.81586 0.0
C3824 C 0.32819 0.71421 0.83335 0.0
C3825 C 0.342 0.7256 0.84719 0.0
C3826 C 0.35963 0.72655 0.84358 0.0
C3827 C 0.3635 0.71619 0.82612 0.0
H3828 H 0.33903 0.73367 0.8607 0.0
H3829 H 0.38115 0.63511 0.69309 0.0
H3830 H 0.24065 0.59129 0.51665 0.0
H3831 H 0.21686 0.58555 0.53742 0.0
H3832 H 0.19538 0.63054 0.52007 0.0
H3833 H 0.21883 0.63589 0.4991 0.0
H3834 H 0.18543 0.62453 0.55567 0.0
H3835 H 0.18597 0.5885 0.4903 0.0
H3836 H 0.19672 0.56765 0.46361 0.0
H3837 H 0.19345 0.52223 0.49492 0.0
H3838 H 0.18288 0.54299 0.52191 0.0
H3839 H 0.0944 0.59447 0.5244 0.0
H3840 H 0.12609 0.6067 0.53385 0.0
H3841 H 0.12936 0.54735 0.53608 0.0
H3842 H 0.09824 0.53487 0.52345 0.0
H3843 H 0.15159 0.55875 0.51712 0.0
H3844 H 0.14561 0.59749 0.58207 0.0
H3845 H 0.13228 0.62043 0.60442 0.0
H3846 H 0.1432 0.66271 0.56944 0.0
H3847 H 0.15668 0.64005 0.54712 0.0
C3848 C 0.23147 0.60076 0.51825 0.0
C3849 C 0.23127 0.61386 0.50631 0.0
C3850 C 0.21788 0.59745 0.53005 0.0
C3851 C 0.20423 0.60734 0.5299 0.0
C3852 C 0.2058 0.62276 0.52035 0.0
C3853 C 0.21917 0.62582 0.50836 0.0
C3854 C 0.18647 0.59836 0.53468 0.0
C3855 C 0.17801 0.60994 0.54763 0.0
C3856 C 0.17681 0.57948 0.52397 0.0
C3857 C 0.18411 0.56748 0.50828 0.0
C3858 C 0.18788 0.57423 0.49162 0.0
C3859 C 0.19384 0.56239 0.47641 0.0
C3860 C 0.1959 0.54369 0.47762 0.0
C3861 C 0.192 0.53679 0.49406 0.0
C3862 C 0.18605 0.54859 0.50933 0.0
C3863 C 0.10194 0.58422 0.52735 0.0
C3864 C 0.09391 0.5639 0.52395 0.0
C3865 C 0.12004 0.59128 0.53323 0.0
C3866 C 0.13031 0.5782 0.5365 0.0
C3867 C 0.12188 0.5579 0.53384 0.0
C3868 C 0.10404 0.55071 0.52679 0.0
C3869 C 0.15005 0.58469 0.53847 0.0
C3870 C 0.15896 0.57274 0.52634 0.0
C3871 C 0.15989 0.60344 0.54957 0.0
C3872 C 0.15171 0.61693 0.56283 0.0
C3873 C 0.14489 0.61156 0.5791 0.0
C3874 C 0.13747 0.62458 0.59182 0.0
C3875 C 0.13673 0.64294 0.58825 0.0
C3876 C 0.14368 0.64846 0.57214 0.0
C3877 C 0.15131 0.6356 0.55955 0.0
H3878 H 0.13088 0.65293 0.59804 0.0
H3879 H 0.20043 0.53449 0.46579 0.0
H3880 H 0.69809 0.97333 0.72068 0.0
H3881 H 0.71781 0.95118 0.72046 0.0
H3882 H 0.76185 1.00159 0.74336 0.0
H3883 H 0.74198 0.02376 0.74439 0.0
H3884 H 0.76846 0.96074 0.7195 0.0
H3885 H 0.74514 0.99496 0.77649 0.0
H3886 H 0.72172 0.00647 0.79429 0.0
H3887 H 0.68897 0.94686 0.78081 0.0
H3888 H 0.71223 0.93505 0.76281 0.0
H3889 H 0.81192 0.94478 0.8047 0.0
H3890 H 0.79733 0.95866 0.78194 0.0
H3891 H 0.76078 0.90155 0.75974 0.0
H3892 H 0.7756 0.8874 0.78205 0.0
H3893 H 0.74957 0.942 0.77932 0.0
H3894 H 0.77701 0.90752 0.72826 0.0
H3895 H 0.80179 0.89722 0.7122 0.0
H3896 H 0.82815 0.95832 0.71653 0.0
H3897 H 0.80355 0.96896 0.73275 0.0
C3898 C 0.71219 0.97975 0.72443 0.0
C3899 C 0.71864 1.00003 0.73286 0.0
C3900 C 0.72341 0.96709 0.72431 0.0
C3901 C 0.74107 0.9749 0.7322 0.0
C3902 C 0.7482 0.99547 0.73721 0.0
C3903 C 0.73689 0.00809 0.73781 0.0
C3904 C 0.74996 0.96243 0.74074 0.0
C3905 C 0.76437 0.95653 0.73251 0.0
C3906 C 0.74445 0.95709 0.75773 0.0
C3907 C 0.73019 0.96423 0.76789 0.0
C3908 C 0.73281 0.98438 0.77703 0.0
C3909 C 0.71962 0.99093 0.78726 0.0
C3910 C 0.70377 0.97745 0.7885 0.0
C3911 C 0.70117 0.95733 0.77968 0.0
C3912 C 0.71436 0.9507 0.76947 0.0
C3913 C 0.80087 0.93521 0.79484 0.0
C3914 C 0.79464 0.91518 0.79521 0.0
C3915 C 0.79276 0.94303 0.78176 0.0
C3916 C 0.7783 0.93092 0.76912 0.0
C3917 C 0.77219 0.91087 0.76925 0.0
C3918 C 0.78051 0.90293 0.78206 0.0
C3919 C 0.76797 0.94005 0.75797 0.0
C3920 C 0.75341 0.94568 0.766 0.0
C3921 C 0.77349 0.94526 0.74101 0.0
C3922 C 0.78857 0.93902 0.73191 0.0
C3923 C 0.78822 0.91876 0.72603 0.0
C3924 C 0.80218 0.91285 0.71682 0.0
C3925 C 0.81657 0.92711 0.71341 0.0
C3926 C 0.81702 0.94729 0.71921 0.0
C3927 C 0.80305 0.95327 0.72838 0.0
H3928 H 0.82734 0.92251 0.70621 0.0
H3929 H 0.69357 0.98256 0.7964 0.0
H3930 H 0.77047 0.95845 0.53605 0.0
H3931 H 0.7436 0.96968 0.53251 0.0
H3932 H 0.7118 0.91186 0.53415 0.0
H3933 H 0.73898 0.90019 0.53723 0.0
H3934 H 0.697 0.92627 0.50771 0.0
H3935 H 0.71644 0.95024 0.57316 0.0
H3936 H 0.73756 0.96568 0.60191 0.0
H3937 H 0.74939 0.02094 0.58458 0.0
H3938 H 0.7285 0.00576 0.55558 0.0
H3939 H 0.62737 0.97987 0.51264 0.0
H3940 H 0.64654 0.96046 0.52325 0.0
H3941 H 0.69268 1.0028 0.51365 0.0
H3942 H 0.67373 0.02209 0.50294 0.0
H3943 H 0.69478 0.99096 0.54939 0.0
H3944 H 0.67741 0.96239 0.48069 0.0
H3945 H 0.65484 0.94579 0.45335 0.0
H3946 H 0.63667 0.89725 0.47986 0.0
H3947 H 0.65898 0.91374 0.50751 0.0
C3948 C 0.7578 0.94804 0.53568 0.0
C3949 C 0.75688 0.92847 0.53712 0.0
C3950 C 0.74241 0.95454 0.53374 0.0
C3951 C 0.72567 0.94177 0.53355 0.0
C3952 C 0.72459 0.92201 0.53445 0.0
C3953 C 0.7401 0.91539 0.53623 0.0
C3954 C 0.70957 0.94947 0.53229 0.0
C3955 C 0.69629 0.94016 0.51711 0.0
C3956 C 0.70846 0.96749 0.54466 0.0
C3957 C 0.72094 0.97683 0.56216 0.0
C3958 C 0.72361 0.96566 0.57543 0.0
C3959 C 0.73553 0.97437 0.59178 0.0
C3960 C 0.74482 0.99427 0.59506 0.0
C3961 C 0.74217 0.00552 0.58202 0.0
C3962 C 0.73026 0.99689 0.56564 0.0
C3963 C 0.64159 0.98506 0.51285 0.0
C3964 C 0.649 1.00229 0.50653 0.0
C3965 C 0.6525 0.97395 0.5189 0.0
C3966 C 0.67097 0.98015 0.51904 0.0
C3967 C 0.67842 0.99775 0.51355 0.0
C3968 C 0.66757 0.00867 0.5073 0.0
C3969 C 0.68284 0.96825 0.52435 0.0
C3970 C 0.69528 0.9768 0.54033 0.0
C3971 C 0.68289 0.94936 0.51299 0.0
C3972 C 0.6697 0.93939 0.49625 0.0
C3973 C 0.6685 0.94825 0.48075 0.0
C3974 C 0.65578 0.93886 0.46519 0.0
C3975 C 0.64429 0.92051 0.4649 0.0
C3976 C 0.64555 0.91148 0.48013 0.0
C3977 C 0.65823 0.92084 0.49574 0.0
H3978 H 0.63444 0.91326 0.45284 0.0
H3979 H 0.75406 1.00098 0.60773 0.0
H3980 H 0.3705 0.52127 0.79131 0.0
H3981 H 0.35584 0.48611 0.78632 0.0
H3982 H 0.40102 0.47059 0.7603 0.0
H3983 H 0.41534 0.50605 0.76432 0.0
H3984 H 0.37449 0.4434 0.74341 0.0
H3985 H 0.39131 0.46915 0.80975 0.0
H3986 H 0.39381 0.49223 0.84123 0.0
H3987 H 0.33707 0.47732 0.84092 0.0
H3988 H 0.33424 0.45432 0.8093 0.0
H3989 H 0.34988 0.3441 0.76119 0.0
H3990 H 0.36493 0.37866 0.76182 0.0
H3991 H 0.31654 0.39637 0.7739 0.0
H3992 H 0.30143 0.36192 0.77302 0.0
H3993 H 0.34598 0.42166 0.79791 0.0
H3994 H 0.33115 0.39399 0.73018 0.0
H3995 H 0.33127 0.37051 0.69952 0.0
H3996 H 0.38821 0.38808 0.70435 0.0
H3997 H 0.38843 0.41146 0.73519 0.0
C3998 C 0.37728 0.51043 0.78425 0.0
C3999 C 0.39421 0.51678 0.77824 0.0
C4000 C 0.36892 0.49011 0.78161 0.0
C4001 C 0.37737 0.47517 0.77349 0.0
C4002 C 0.39403 0.48147 0.76676 0.0
C4003 C 0.40227 0.50191 0.76901 0.0
C4004 C 0.36895 0.45328 0.77244 0.0
C4005 C 0.36851 0.43876 0.7555 0.0
C4006 C 0.36094 0.4466 0.788 0.0
C4007 C 0.36256 0.46016 0.8071 0.0
C4008 C 0.37937 0.47087 0.81636 0.0
C4009 C 0.38084 0.48393 0.83423 0.0
C4010 C 0.3656 0.48628 0.84305 0.0
C4011 C 0.34886 0.4755 0.83406 0.0
C4012 C 0.34731 0.46243 0.81618 0.0
C4013 C 0.34233 0.35528 0.7638 0.0
C4014 C 0.3242 0.34986 0.76677 0.0
C4015 C 0.35102 0.37516 0.76413 0.0
C4016 C 0.34199 0.39044 0.7678 0.0
C4017 C 0.32395 0.38508 0.77094 0.0
C4018 C 0.31519 0.36517 0.77025 0.0
C4019 C 0.35132 0.41198 0.76886 0.0
C4020 C 0.35198 0.42639 0.78586 0.0
C4021 C 0.35995 0.4184 0.75356 0.0
C4022 C 0.35981 0.4043 0.73509 0.0
C4023 C 0.3437 0.3927 0.72479 0.0
C4024 C 0.3437 0.37944 0.70737 0.0
C4025 C 0.35974 0.37776 0.70002 0.0
C4026 C 0.3758 0.38937 0.71007 0.0
C4027 C 0.37587 0.40263 0.72752 0.0
H4028 H 0.35971 0.3675 0.68651 0.0
H4029 H 0.36677 0.49642 0.85687 0.0
H4030 H 0.1898 0.59196 0.24625 0.0
H4031 H 0.20743 0.62375 0.242 0.0
H4032 H 0.25557 0.60609 0.2538 0.0
H4033 H 0.23793 0.57504 0.25939 0.0
H4034 H 0.25571 0.63882 0.27654 0.0
H4035 H 0.24146 0.6142 0.20852 0.0
H4036 H 0.22152 0.59893 0.17884 0.0
H4037 H 0.19539 0.6466 0.1901 0.0
H4038 H 0.21497 0.66202 0.22001 0.0
H4039 H 0.30546 0.73509 0.27809 0.0
H4040 H 0.29482 0.6989 0.2665 0.0
H4041 H 0.24157 0.70535 0.25634 0.0
H4042 H 0.25239 0.74146 0.26722 0.0
H4043 H 0.24841 0.67708 0.22811 0.0
H4044 H 0.25153 0.69296 0.29695 0.0
H4045 H 0.26586 0.7087 0.32947 0.0
H4046 H 0.30782 0.67896 0.31836 0.0
H4047 H 0.29334 0.66258 0.28576 0.0
C4048 C 0.20415 0.59494 0.24774 0.0
C4049 C 0.21266 0.58156 0.25358 0.0
C4050 C 0.21421 0.61288 0.24501 0.0
C4051 C 0.23283 0.61718 0.24741 0.0
C4052 C 0.24123 0.60305 0.25193 0.0
C4053 C 0.23121 0.58548 0.25528 0.0
C4054 C 0.24348 0.63748 0.2486 0.0
C4055 C 0.25455 0.64689 0.26556 0.0
C4056 C 0.24129 0.64834 0.23474 0.0
C4057 C 0.22967 0.63922 0.21659 0.0
C4058 C 0.23141 0.62138 0.20474 0.0
C4059 C 0.22017 0.6127 0.18786 0.0
C4060 C 0.20719 0.62178 0.18261 0.0
C4061 C 0.20546 0.63959 0.19419 0.0
C4062 C 0.21664 0.64832 0.21109 0.0
C4063 C 0.29158 0.72863 0.27305 0.0
C4064 C 0.27973 0.74064 0.27272 0.0
C4065 C 0.28553 0.70813 0.26647 0.0
C4066 C 0.26747 0.69961 0.26037 0.0
C4067 C 0.2556 0.71174 0.26057 0.0
C4068 C 0.26171 0.7322 0.26691 0.0
C4069 C 0.26045 0.67799 0.25588 0.0
C4070 C 0.25004 0.66853 0.23852 0.0
C4071 C 0.26269 0.66707 0.26953 0.0
C4072 C 0.27151 0.67677 0.28897 0.0
C4073 C 0.26386 0.68987 0.30145 0.0
C4074 C 0.27201 0.6989 0.31989 0.0
C4075 C 0.28791 0.69508 0.32596 0.0
C4076 C 0.29555 0.68198 0.31362 0.0
C4077 C 0.28733 0.67273 0.2952 0.0
H4078 H 0.29424 0.70216 0.34025 0.0
H4079 H 0.1985 0.61501 0.16957 0.0
H4080 H 0.53447 0.71801 0.44284 0.0
H4081 H 0.54157 0.69149 0.45595 0.0
H4082 H 0.49981 0.69419 0.49295 0.0
H4083 H 0.49241 0.72067 0.47974 0.0
H4084 H 0.53215 0.68831 0.51062 0.0
H4085 H 0.48962 0.65989 0.45571 0.0
H4086 H 0.47745 0.65537 0.42241 0.0
H4087 H 0.52361 0.63739 0.40219 0.0
H4088 H 0.53616 0.64208 0.43541 0.0
H4089 H 0.53124 0.59139 0.52829 0.0
H4090 H 0.52609 0.62294 0.524 0.0
H4091 H 0.54929 0.61458 0.47035 0.0
H4092 H 0.55193 0.58206 0.47352 0.0
H4093 H 0.52311 0.62414 0.4632 0.0
H4094 H 0.56752 0.65679 0.51968 0.0
H4095 H 0.5792 0.66377 0.55361 0.0
H4096 H 0.52923 0.67273 0.57116 0.0
H4097 H 0.51744 0.66668 0.53746 0.0
C4098 C 0.52695 0.71329 0.454 0.0
C4099 C 0.51278 0.72152 0.46012 0.0
C4100 C 0.53103 0.69804 0.46147 0.0
C4101 C 0.52116 0.69074 0.47535 0.0
C4102 C 0.50763 0.6996 0.48228 0.0
C4103 C 0.50339 0.71473 0.47465 0.0
C4104 C 0.52406 0.67281 0.48132 0.0
C4105 C 0.53018 0.67421 0.5003 0.0
C4106 C 0.52141 0.6544 0.46797 0.0
C4107 C 0.5139 0.65153 0.44801 0.0
C4108 C 0.49724 0.65514 0.44415 0.0
C4109 C 0.49026 0.65251 0.4253 0.0
C4110 C 0.49977 0.64615 0.41019 0.0
C4111 C 0.51627 0.64235 0.41391 0.0
C4112 C 0.52331 0.64497 0.43274 0.0
C4113 C 0.53558 0.59662 0.51584 0.0
C4114 C 0.54234 0.58447 0.5014 0.0
C4115 C 0.53276 0.61483 0.5134 0.0
C4116 C 0.53739 0.62164 0.49685 0.0
C4117 C 0.54525 0.60987 0.48315 0.0
C4118 C 0.54707 0.59132 0.48507 0.0
C4119 C 0.5326 0.63966 0.49243 0.0
C4120 C 0.52562 0.63821 0.47364 0.0
C4121 C 0.53456 0.65798 0.50601 0.0
C4122 C 0.54157 0.66108 0.52612 0.0
C4123 C 0.55901 0.66013 0.5308 0.0
C4124 C 0.56565 0.66394 0.54995 0.0
C4125 C 0.5549 0.66832 0.56448 0.0
C4126 C 0.53752 0.66923 0.5599 0.0
C4127 C 0.5309 0.66579 0.54081 0.0
H4128 H 0.56008 0.67117 0.57928 0.0
H4129 H 0.49434 0.64412 0.3956 0.0
H4130 H 0.64486 0.31645 0.63296 0.0
H4131 H 0.67347 0.31357 0.64669 0.0
H4132 H 0.65466 0.32121 0.70254 0.0
H4133 H 0.6266 0.32442 0.68916 0.0
H4134 H 0.68674 0.34216 0.70639 0.0
H4135 H 0.65787 0.27498 0.67376 0.0
H4136 H 0.64381 0.2474 0.64637 0.0
H4137 H 0.69143 0.25763 0.61827 0.0
H4138 H 0.70567 0.28551 0.64538 0.0
H4139 H 0.74137 0.30085 0.75898 0.0
H4140 H 0.71708 0.30702 0.74078 0.0
H4141 H 0.74802 0.3082 0.69282 0.0
H4142 H 0.77311 0.30343 0.71167 0.0
H4143 H 0.71265 0.28507 0.68252 0.0
H4144 H 0.74218 0.35054 0.71759 0.0
H4145 H 0.75598 0.37652 0.74631 0.0
H4146 H 0.70638 0.36816 0.77097 0.0
H4147 H 0.69236 0.34185 0.74255 0.0
C4148 C 0.64687 0.31758 0.64817 0.0
C4149 C 0.63326 0.3207 0.65986 0.0
C4150 C 0.66325 0.31581 0.65604 0.0
C4151 C 0.66641 0.31703 0.67578 0.0
C4152 C 0.65282 0.32027 0.68735 0.0
C4153 C 0.63661 0.32204 0.67956 0.0
C4154 C 0.68366 0.31513 0.68475 0.0
C4155 C 0.69225 0.32956 0.70116 0.0
C4156 C 0.69139 0.29902 0.67788 0.0
C4157 C 0.68273 0.28251 0.66146 0.0
C4158 C 0.66527 0.2715 0.66164 0.0
C4159 C 0.65728 0.25579 0.64619 0.0
C4160 C 0.6667 0.25082 0.63056 0.0
C4161 C 0.68413 0.26154 0.63036 0.0
C4162 C 0.69216 0.27731 0.64575 0.0
C4163 C 0.7435 0.30338 0.74499 0.0
C4164 C 0.75976 0.30268 0.73737 0.0
C4165 C 0.72931 0.30648 0.73433 0.0
C4166 C 0.73068 0.30843 0.71544 0.0
C4167 C 0.7466 0.30695 0.70741 0.0
C4168 C 0.76099 0.30424 0.71827 0.0
C4169 C 0.71535 0.31186 0.70426 0.0
C4170 C 0.70718 0.29776 0.68753 0.0
C4171 C 0.70789 0.32817 0.71092 0.0
C4172 C 0.71625 0.3441 0.72799 0.0
C4173 C 0.73425 0.35412 0.7292 0.0
C4174 C 0.74211 0.36893 0.74542 0.0
C4175 C 0.73207 0.37396 0.76047 0.0
C4176 C 0.71414 0.36423 0.75931 0.0
C4177 C 0.70623 0.34937 0.74315 0.0
H4178 H 0.73818 0.38543 0.77302 0.0
H4179 H 0.66051 0.23861 0.61862 0.0
H4180 H 0.98656 0.32167 0.9668 0.0
H4181 H 0.99489 0.35769 0.9789 0.0
H4182 H 0.04878 0.35912 0.96669 0.0
H4183 H 0.04047 0.32294 0.9539 0.0
H4184 H 0.03736 0.38633 0.00707 0.0
H4185 H 0.03784 0.37206 0.93757 0.0
H4186 H 0.02515 0.35399 0.90484 0.0
H4187 H 0.97704 0.37286 0.91451 0.0
H4188 H 0.98928 0.39048 0.9475 0.0
H4189 H 0.05862 0.49197 0.01505 0.0
H4190 H 0.05716 0.45675 0.00983 0.0
H4191 H 0.00704 0.4436 0.97524 0.0
H4192 H 0.01159 0.47869 0.97622 0.0
H4193 H 0.02071 0.42093 0.95893 0.0
H4194 H 0.02075 0.43627 0.03011 0.0
H4195 H 0.0349 0.45474 0.06234 0.0
H4196 H 0.08231 0.43517 0.05026 0.0
H4197 H 0.06851 0.41673 0.018 0.0
C4198 C 1.00028 0.32951 0.96698 0.0
C4199 C 0.01282 0.31935 0.95927 0.0
C4200 C 0.00501 0.35013 0.97396 0.0
C4201 C 0.02244 0.36103 0.97374 0.0
C4202 C 0.03527 0.35092 0.96708 0.0
C4203 C 0.03047 0.33027 0.9597 0.0
C4204 C 0.02648 0.38305 0.97829 0.0
C4205 C 0.03374 0.39406 0.99665 0.0
C4206 C 0.02179 0.39304 0.96473 0.0
C4207 C 0.01434 0.38225 0.94504 0.0
C4208 C 0.02444 0.37203 0.9328 0.0
C4209 C 0.01735 0.36191 0.91421 0.0
C4210 C 1.00026 0.36215 0.90764 0.0
C4211 C 0.99022 0.37253 0.91964 0.0
C4212 C 0.99721 0.38256 0.9383 0.0
C4213 C 0.04715 0.48143 0.00661 0.0
C4214 C 0.03445 0.48813 0.99708 0.0
C4215 C 0.04612 0.46108 0.00386 0.0
C4216 C 0.03156 0.44685 0.99275 0.0
C4217 C 0.01848 0.45384 0.98397 0.0
C4218 C 0.02051 0.47412 0.98522 0.0
C4219 C 0.03049 0.42489 0.98849 0.0
C4220 C 0.02398 0.41363 0.96986 0.0
C4221 C 0.0358 0.41481 0.00198 0.0
C4222 C 0.04363 0.42522 0.02166 0.0
C4223 C 0.03416 0.43588 0.03439 0.0
C4224 C 0.04214 0.44636 0.05263 0.0
C4225 C 0.05951 0.44616 0.05831 0.0
C4226 C 0.06888 0.43533 0.04584 0.0
C4227 C 0.06097 0.42483 0.02762 0.0
H4228 H 0.06574 0.45442 0.07233 0.0
H4229 H 0.99488 0.35437 0.89321 0.0
H4230 H 0.0188 0.79794 0.12325 0.0
H4231 H 0.99066 0.79349 0.13745 0.0
H4232 H 0.01924 0.81461 0.1937 0.0
H4233 H 0.04735 0.81784 0.17944 0.0
H4234 H 0.99423 0.7868 0.19566 0.0
H4235 H 0.99545 0.84281 0.16712 0.0
H4236 H 0.99679 0.85991 0.14069 0.0
H4237 H 0.94977 0.81733 0.11139 0.0
H4238 H 0.9483 0.79983 0.13753 0.0
H4239 H 0.93002 0.81098 0.25297 0.0
H4240 H 0.95414 0.81616 0.23265 0.0
H4241 H 0.91871 0.78084 0.18336 0.0
H4242 H 0.89426 0.77591 0.20382 0.0
H4243 H 0.9447 0.81324 0.17514 0.0
H4244 H 0.94311 0.75844 0.20435 0.0
H4245 H 0.94105 0.74244 0.23155 0.0
H4246 H 0.98899 0.78405 0.25988 0.0
H4247 H 0.99115 0.8005 0.23296 0.0
C4248 C 0.01908 0.80153 0.13864 0.0
C4249 C 0.03536 0.80823 0.15021 0.0
C4250 C 0.0029 0.79918 0.1468 0.0
C4251 C 0.00257 0.80417 0.16676 0.0
C4252 C 0.01892 0.81062 0.17828 0.0
C4253 C 0.03506 0.81242 0.17012 0.0
C4254 C 0.98543 0.80221 0.17586 0.0
C4255 C 0.9836 0.79289 0.19121 0.0
C4256 C 0.97099 0.80937 0.16983 0.0
C4257 C 0.97189 0.81991 0.15417 0.0
C4258 C 0.98548 0.83703 0.15497 0.0
C4259 C 0.98625 0.8468 0.14005 0.0
C4260 C 0.9734 0.83968 0.12434 0.0
C4261 C 0.95973 0.8228 0.12354 0.0
C4262 C 0.95892 0.81296 0.1384 0.0
C4263 C 0.92725 0.80473 0.23773 0.0
C4264 C 0.91029 0.79296 0.23001 0.0
C4265 C 0.94106 0.80765 0.22611 0.0
C4266 C 0.93839 0.79859 0.2065 0.0
C4267 C 0.92114 0.78795 0.19845 0.0
C4268 C 0.90717 0.78516 0.21013 0.0
C4269 C 0.95406 0.79856 0.19519 0.0
C4270 C 0.95547 0.80726 0.17944 0.0
C4271 C 0.96822 0.79095 0.20082 0.0
C4272 C 0.96724 0.78073 0.21672 0.0
C4273 C 0.95317 0.7642 0.21642 0.0
C4274 C 0.95198 0.75507 0.23178 0.0
C4275 C 0.96487 0.76223 0.24744 0.0
C4276 C 0.97901 0.77851 0.24774 0.0
C4277 C 0.98024 0.78774 0.23243 0.0
H4278 H 0.96392 0.75515 0.25934 0.0
H4279 H 0.97402 0.84726 0.11281 0.0
H4280 H 0.52534 0.31781 0.13343 0.0
H4281 H 0.53344 0.34162 0.11371 0.0
H4282 H 0.48147 0.32034 0.08245 0.0
H4283 H 0.47303 0.29641 0.10233 0.0
H4284 H 0.51203 0.32696 0.0599 0.0
H4285 H 0.48609 0.35909 0.11317 0.0
H4286 H 0.48249 0.36892 0.14744 0.0
H4287 H 0.5367 0.40292 0.15836 0.0
H4288 H 0.54072 0.39296 0.12416 0.0
H4289 H 0.51423 0.40851 0.01822 0.0
H4290 H 0.50436 0.38533 0.03856 0.0
H4291 H 0.55659 0.40313 0.0693 0.0
H4292 H 0.5666 0.426 0.04859 0.0
H4293 H 0.52498 0.39861 0.09229 0.0
H4294 H 0.55181 0.36526 0.04047 0.0
H4295 H 0.55665 0.35477 0.00662 0.0
H4296 H 0.50197 0.32263 0.99357 0.0
H4297 H 0.49672 0.33331 0.02733 0.0
C4298 C 0.51566 0.31796 0.12222 0.0
C4299 C 0.49849 0.30534 0.11948 0.0
C4300 C 0.52032 0.33161 0.11104 0.0
C4301 C 0.50795 0.33274 0.0969 0.0
C4302 C 0.49109 0.3196 0.09344 0.0
C4303 C 0.48631 0.30605 0.1048 0.0
C4304 C 0.51254 0.34828 0.08629 0.0
C4305 C 0.51457 0.34261 0.06686 0.0
C4306 C 0.51626 0.36862 0.09567 0.0
C4307 C 0.51375 0.37513 0.11614 0.0
C4308 C 0.49728 0.36855 0.1229 0.0
C4309 C 0.49516 0.37415 0.14231 0.0
C4310 C 0.50937 0.3865 0.15508 0.0
C4311 C 0.52571 0.39334 0.14845 0.0
C4312 C 0.52792 0.38773 0.12905 0.0
C4313 C 0.52352 0.40738 0.02934 0.0
C4314 C 0.54118 0.41848 0.03178 0.0
C4315 C 0.51789 0.39435 0.04095 0.0
C4316 C 0.52983 0.39262 0.05526 0.0
C4317 C 0.54728 0.4044 0.05827 0.0
C4318 C 0.55301 0.41718 0.04641 0.0
C4319 C 0.52442 0.37723 0.0659 0.0
C4320 C 0.52229 0.38295 0.08532 0.0
C4321 C 0.52071 0.35691 0.05657 0.0
C4322 C 0.52382 0.3503 0.03634 0.0
C4323 C 0.54077 0.35615 0.03033 0.0
C4324 C 0.5436 0.35014 0.01118 0.0
C4325 C 0.52961 0.3381 0.99793 0.0
C4326 C 0.51278 0.332 0.00384 0.0
C4327 C 0.50987 0.33803 0.02298 0.0
H4328 H 0.53182 0.33344 0.98311 0.0
H4329 H 0.50771 0.3908 0.17012 0.0
H4330 H 0.02542 0.28278 0.35684 0.0
H4331 H 0.99789 0.29298 0.3531 0.0
H4332 H 0.02589 0.34331 0.33305 0.0
H4333 H 0.05375 0.33318 0.33679 0.0
H4334 H 0.99701 0.34872 0.3614 0.0
H4335 H 0.00812 0.31176 0.30001 0.0
H4336 H 0.01678 0.28374 0.27926 0.0
H4337 H 0.974 0.24256 0.29573 0.0
H4338 H 0.96528 0.27039 0.31683 0.0
H4339 H 0.93178 0.3613 0.29465 0.0
H4340 H 0.95636 0.36071 0.31675 0.0
H4341 H 0.92584 0.30603 0.32753 0.0
H4342 H 0.90121 0.30662 0.30558 0.0
H4343 H 0.95553 0.30319 0.30737 0.0
H4344 H 0.9415 0.34064 0.36492 0.0
H4345 H 0.93321 0.36836 0.38653 0.0
H4346 H 0.98074 0.40871 0.3777 0.0
H4347 H 0.98923 0.38125 0.35588 0.0
C4348 C 0.02578 0.29612 0.35179 0.0
C4349 C 0.04162 0.30709 0.34687 0.0
C4350 C 0.0101 0.30198 0.34982 0.0
C4351 C 0.01003 0.3189 0.34295 0.0
C4352 C 0.02587 0.3303 0.33856 0.0
C4353 C 0.04163 0.32434 0.34039 0.0
C4354 C 0.99297 0.32293 0.3381 0.0
C4355 C 0.98794 0.33902 0.34946 0.0
C4356 C 0.98113 0.30981 0.32293 0.0
C4357 C 0.98618 0.29309 0.31012 0.0
C4358 C 1.00067 0.29671 0.29932 0.0
C4359 C 0.00557 0.28088 0.28748 0.0
C4360 C 0.99598 0.26138 0.28623 0.0
C4361 C 0.98144 0.25768 0.29676 0.0
C4362 C 0.9765 0.27347 0.30864 0.0
C4363 C 0.93012 0.34959 0.30231 0.0
C4364 C 0.91485 0.33382 0.29821 0.0
C4365 C 0.94405 0.34937 0.31507 0.0
C4366 C 0.94286 0.33328 0.32363 0.0
C4367 C 0.92688 0.31863 0.32111 0.0
C4368 C 0.91288 0.31895 0.30853 0.0
C4369 C 0.95933 0.32914 0.33058 0.0
C4370 C 0.96439 0.31294 0.31946 0.0
C4371 C 0.97111 0.34227 0.34588 0.0
C4372 C 0.96591 0.35892 0.35861 0.0
C4373 C 0.95009 0.35547 0.36741 0.0
C4374 C 0.94538 0.37112 0.37976 0.0
C4375 C 0.95642 0.39029 0.38344 0.0
C4376 C 0.97219 0.39385 0.37481 0.0
C4377 C 0.97698 0.37824 0.36248 0.0
H4378 H 0.95276 0.40239 0.39302 0.0
H4379 H 0.9998 0.24913 0.27705 0.0
H4380 H 0.96302 0.70658 0.61992 0.0
H4381 H 0.97077 0.67617 0.60337 0.0
H4382 H 0.02638 0.70592 0.61545 0.0
H4383 H 0.01889 0.73618 0.63208 0.0
H4384 H 0.01579 0.68528 0.57697 0.0
H4385 H 0.01193 0.676 0.64075 0.0
H4386 H 0.99871 0.67296 0.67073 0.0
H4387 H 0.95661 0.62434 0.63981 0.0
H4388 H 0.96946 0.62729 0.60958 0.0
H4389 H 0.05764 0.60442 0.5647 0.0
H4390 H 0.047 0.63291 0.58127 0.0
H4391 H 0.99376 0.60353 0.55549 0.0
H4392 H 0.00437 0.57545 0.53836 0.0
H4393 H 0.00176 0.62293 0.59974 0.0
H4394 H 0.00671 0.6324 0.53559 0.0
H4395 H 0.02245 0.63379 0.50683 0.0
H4396 H 0.06416 0.68173 0.53953 0.0
H4397 H 0.04885 0.68026 0.56864 0.0
C4398 C 0.97687 0.70664 0.61894 0.0
C4399 C 0.99035 0.72372 0.62722 0.0
C4400 C 0.98125 0.6893 0.60962 0.0
C4401 C 0.9991 0.68898 0.60835 0.0
C4402 C 0.01254 0.70603 0.61636 0.0
C4403 C 0.00821 0.72324 0.62584 0.0
C4404 C 0.00388 0.67097 0.59838 0.0
C4405 C 0.01279 0.67167 0.58198 0.0
C4406 C 0.99972 0.65326 0.60489 0.0
C4407 C 0.99148 0.6521 0.62288 0.0
C4408 C 0.99969 0.66489 0.6403 0.0
C4409 C 0.99231 0.66312 0.65735 0.0
C4410 C 0.97678 0.64853 0.65716 0.0
C4411 C 0.96859 0.63569 0.63992 0.0
C4412 C 0.97591 0.63741 0.62283 0.0
C4413 C 0.04367 0.60407 0.56276 0.0
C4414 C 0.03176 0.588 0.55035 0.0
C4415 C 0.03767 0.62022 0.57212 0.0
C4416 C 0.01969 0.62006 0.5694 0.0
C4417 C 0.00767 0.6037 0.5576 0.0
C4418 C 0.01374 0.58781 0.54785 0.0
C4419 C 0.01356 0.63736 0.57847 0.0
C4420 C 0.00448 0.63651 0.59466 0.0
C4421 C 0.01761 0.65493 0.57183 0.0
C4422 C 0.02675 0.65605 0.55433 0.0
C4423 C 0.01935 0.64307 0.5367 0.0
C4424 C 0.02817 0.6439 0.52033 0.0
C4425 C 0.04432 0.65781 0.52136 0.0
C4426 C 0.05166 0.67094 0.53877 0.0
C4427 C 0.04292 0.67011 0.55521 0.0
H4428 H 0.05113 0.65844 0.50866 0.0
H4429 H 0.97114 0.64711 0.67039 0.0
H4430 H 0.6265 0.82407 0.81903 0.0
H4431 H 0.65628 0.82612 0.8087 0.0
H4432 H 0.67575 0.82244 0.86445 0.0
H4433 H 0.64574 0.81948 0.87463 0.0
H4434 H 0.69924 0.85129 0.84257 0.0
H4435 H 0.66923 0.78432 0.84218 0.0
H4436 H 0.64321 0.75571 0.83601 0.0
H4437 H 0.64167 0.75337 0.7759 0.0
H4438 H 0.66744 0.7824 0.78182 0.0
H4439 H 0.7745 0.815 0.81958 0.0
H4440 H 0.7455 0.81449 0.83161 0.0
H4441 H 0.72347 0.81515 0.77577 0.0
H4442 H 0.75277 0.81626 0.76384 0.0
H4443 H 0.70161 0.78779 0.79865 0.0
H4444 H 0.73607 0.85526 0.8019 0.0
H4445 H 0.76395 0.88126 0.81145 0.0
H4446 H 0.75894 0.88051 0.87033 0.0
H4447 H 0.73133 0.85393 0.86111 0.0
C4448 C 0.63723 0.82418 0.82919 0.0
C4449 C 0.63397 0.82144 0.84751 0.0
C4450 C 0.65416 0.82538 0.8233 0.0
C4451 C 0.66801 0.82438 0.83586 0.0
C4452 C 0.66511 0.8233 0.85468 0.0
C4453 C 0.64805 0.82148 0.8604 0.0
C4454 C 0.68471 0.82161 0.82846 0.0
C4455 C 0.69985 0.83742 0.83306 0.0
C4456 C 0.68534 0.80339 0.81623 0.0
C4457 C 0.67003 0.78577 0.81248 0.0
C4458 C 0.66318 0.77791 0.82768 0.0
C4459 C 0.6485 0.76159 0.82423 0.0
C4460 C 0.64073 0.75279 0.80558 0.0
C4461 C 0.64766 0.76026 0.79035 0.0
C4462 C 0.66229 0.77667 0.79374 0.0
C4463 C 0.76334 0.81468 0.80988 0.0
C4464 C 0.76549 0.81539 0.79084 0.0
C4465 C 0.74689 0.81435 0.81669 0.0
C4466 C 0.73253 0.81474 0.80449 0.0
C4467 C 0.73451 0.81472 0.78525 0.0
C4468 C 0.75111 0.81549 0.77852 0.0
C4469 C 0.71609 0.81756 0.81245 0.0
C4470 C 0.70099 0.80171 0.80801 0.0
C4471 C 0.71567 0.83559 0.82521 0.0
C4472 C 0.7317 0.85242 0.83079 0.0
C4473 C 0.74097 0.86049 0.81688 0.0
C4474 C 0.75675 0.87532 0.82222 0.0
C4475 C 0.76323 0.88249 0.84146 0.0
C4476 C 0.75391 0.8749 0.85542 0.0
C4477 C 0.73821 0.85993 0.85014 0.0
H4478 H 0.77543 0.89398 0.84558 0.0
H4479 H 0.62937 0.74013 0.80293 0.0
H4480 H 0.49402 0.58196 0.72938 0.0
H4481 H 0.50398 0.5781 0.69764 0.0
H4482 H 0.44969 0.55941 0.67268 0.0
H4483 H 0.43947 0.56293 0.70494 0.0
H4484 H 0.46865 0.53726 0.65147 0.0
H4485 H 0.47893 0.60812 0.67547 0.0
H4486 H 0.49094 0.64032 0.69839 0.0
H4487 H 0.5439 0.63304 0.69315 0.0
H4488 H 0.53219 0.60067 0.6704 0.0
H4489 H 0.49441 0.54135 0.55769 0.0
H4490 H 0.4813 0.54611 0.58809 0.0
H4491 H 0.53333 0.57339 0.61795 0.0
H4492 H 0.54617 0.56972 0.58765 0.0
H4493 H 0.51396 0.59173 0.63623 0.0
H4494 H 0.50589 0.52168 0.61513 0.0
H4495 H 0.49604 0.48907 0.59235 0.0
H4496 H 0.44193 0.49337 0.59317 0.0
H4497 H 0.4515 0.5262 0.61571 0.0
C4498 C 0.48401 0.57704 0.71727 0.0
C4499 C 0.46577 0.57291 0.72017 0.0
C4500 C 0.48984 0.57495 0.69885 0.0
C4501 C 0.47778 0.56883 0.68226 0.0
C4502 C 0.45949 0.56429 0.68498 0.0
C4503 C 0.45359 0.56636 0.70358 0.0
C4504 C 0.48442 0.56712 0.66238 0.0
C4505 C 0.47834 0.54937 0.64813 0.0
C4506 C 0.49762 0.58244 0.65769 0.0
C4507 C 0.50466 0.6019 0.67136 0.0
C4508 C 0.49313 0.61333 0.67931 0.0
C4509 C 0.49989 0.63162 0.69226 0.0
C4510 C 0.51817 0.6387 0.69726 0.0
C4511 C 0.52974 0.62752 0.68929 0.0
C4512 C 0.52305 0.60921 0.67635 0.0
C4513 C 0.50312 0.54852 0.57068 0.0
C4514 C 0.52158 0.55508 0.56978 0.0
C4515 C 0.49555 0.55105 0.58832 0.0
C4516 C 0.50615 0.55974 0.60595 0.0
C4517 C 0.52453 0.5666 0.60496 0.0
C4518 C 0.53202 0.5644 0.58733 0.0
C4519 C 0.49833 0.56179 0.62528 0.0
C4520 C 0.50422 0.57961 0.63947 0.0
C4521 C 0.48528 0.54638 0.63006 0.0
C4522 C 0.47942 0.52646 0.61694 0.0
C4523 C 0.4919 0.5157 0.61039 0.0
C4524 C 0.48637 0.49719 0.59751 0.0
C4525 C 0.46837 0.48917 0.59128 0.0
C4526 C 0.45586 0.49962 0.59799 0.0
C4527 C 0.46133 0.51817 0.61082 0.0
H4528 H 0.46412 0.47485 0.58129 0.0
H4529 H 0.52337 0.65287 0.70728 0.0
H4530 H 0.80843 0.19088 0.98384 0.0
H4531 H 0.80453 0.20756 0.95863 0.0
H4532 H 0.74809 0.18145 0.95224 0.0
H4533 H 0.75193 0.16382 0.97712 0.0
H4534 H 0.76237 0.17564 0.91883 0.0
H4535 H 0.76559 0.23241 0.97172 0.0
H4536 H 0.77966 0.25516 0.00229 0.0
H4537 H 0.82783 0.27192 0.97657 0.0
H4538 H 0.81405 0.2492 0.94588 0.0
H4539 H 0.73195 0.23213 0.86255 0.0
H4540 H 0.7397 0.21332 0.88462 0.0
H4541 H 0.79461 0.24551 0.88927 0.0
H4542 H 0.7867 0.26536 0.86801 0.0
H4543 H 0.78386 0.24781 0.92287 0.0
H4544 H 0.78082 0.19449 0.86952 0.0
H4545 H 0.76925 0.16978 0.83928 0.0
H4546 H 0.72365 0.14461 0.86521 0.0
H4547 H 0.73468 0.16942 0.89546 0.0
C4548 C 0.79511 0.18886 0.97734 0.0
C4549 C 0.78049 0.17587 0.98234 0.0
C4550 C 0.79291 0.19854 0.96299 0.0
C4551 C 0.77603 0.19581 0.95372 0.0
C4552 C 0.76124 0.18367 0.9593 0.0
C4553 C 0.76344 0.17373 0.97356 0.0
C4554 C 0.77411 0.20441 0.93722 0.0
C4555 C 0.76673 0.19146 0.91969 0.0
C4556 C 0.78077 0.22486 0.93833 0.0
C4557 C 0.7888 0.23911 0.95654 0.0
C4558 C 0.77917 0.24097 0.9726 0.0
C4559 C 0.7871 0.25384 0.98994 0.0
C4560 C 0.80463 0.26497 0.99137 0.0
C4561 C 0.81424 0.26332 0.97543 0.0
C4562 C 0.80636 0.25051 0.95805 0.0
C4563 C 0.74571 0.23506 0.8681 0.0
C4564 C 0.75865 0.25048 0.86389 0.0
C4565 C 0.75018 0.22408 0.88049 0.0
C4566 C 0.76774 0.228 0.88852 0.0
C4567 C 0.78097 0.24233 0.8832 0.0
C4568 C 0.77645 0.25353 0.87095 0.0
C4569 C 0.77163 0.21908 0.90436 0.0
C4570 C 0.77947 0.23196 0.92184 0.0
C4571 C 0.76557 0.19849 0.90313 0.0
C4572 C 0.75854 0.18394 0.88474 0.0
C4573 C 0.7682 0.18386 0.86871 0.0
C4574 C 0.76174 0.16981 0.85156 0.0
C4575 C 0.74567 0.1557 0.85029 0.0
C4576 C 0.73602 0.15561 0.86617 0.0
C4577 C 0.74239 0.16966 0.88332 0.0
H4578 H 0.74073 0.14478 0.83703 0.0
H4579 H 0.81076 0.27487 0.00483 0.0
H4580 H 0.16215 0.52904 0.17641 0.0
H4581 H 0.149 0.53947 0.15017 0.0
H4582 H 0.1111 0.55973 0.18648 0.0
H4583 H 0.12385 0.54887 0.21256 0.0
H4584 H 0.09757 0.52525 0.15971 0.0
H4585 H 0.13245 0.5898 0.16259 0.0
H4586 H 0.1591 0.61707 0.16485 0.0
H4587 H 0.1735 0.58659 0.11193 0.0
H4588 H 0.14716 0.55889 0.10952 0.0
H4589 H 0.0446 0.5359 0.08273 0.0
H4590 H 0.06192 0.53792 0.11206 0.0
H4591 H 0.10249 0.51831 0.0797 0.0
H4592 H 0.08468 0.51574 0.04997 0.0
H4593 H 0.11394 0.55551 0.1052 0.0
H4594 H 0.08095 0.48927 0.105 0.0
H4595 H 0.05387 0.46244 0.10274 0.0
H4596 H 0.03615 0.49716 0.15106 0.0
H4597 H 0.06303 0.52428 0.15358 0.0
C4598 C 0.15133 0.53623 0.17887 0.0
C4599 C 0.1433 0.53728 0.19594 0.0
C4600 C 0.14411 0.54256 0.16407 0.0
C4601 C 0.12899 0.55005 0.1665 0.0
C4602 C 0.12274 0.55385 0.18449 0.0
C4603 C 0.12974 0.54723 0.19914 0.0
C4604 C 0.11671 0.54715 0.14971 0.0
C4605 C 0.10094 0.53227 0.14797 0.0
C4606 C 0.12164 0.55575 0.1343 0.0
C4607 C 0.13782 0.57215 0.13594 0.0
C4608 C 0.1414 0.58875 0.15154 0.0
C4609 C 0.15644 0.60434 0.15283 0.0
C4610 C 0.16797 0.60357 0.13853 0.0
C4611 C 0.16454 0.58717 0.12298 0.0
C4612 C 0.14955 0.57152 0.12165 0.0
C4613 C 0.05659 0.53089 0.08176 0.0
C4614 C 0.06321 0.52547 0.06422 0.0
C4615 C 0.06664 0.53233 0.09854 0.0
C4616 C 0.0834 0.52834 0.09781 0.0
C4617 C 0.08954 0.52149 0.0803 0.0
C4618 C 0.0794 0.51998 0.06348 0.0
C4619 C 0.09515 0.53354 0.11534 0.0
C4620 C 0.11068 0.54874 0.11712 0.0
C4621 C 0.09011 0.52523 0.13086 0.0
C4622 C 0.07396 0.50887 0.1294 0.0
C4623 C 0.07122 0.49125 0.11507 0.0
C4624 C 0.05592 0.47598 0.11374 0.0
C4625 C 0.04329 0.47813 0.12669 0.0
C4626 C 0.04594 0.49553 0.14103 0.0
C4627 C 0.06122 0.51083 0.14245 0.0
H4628 H 0.03146 0.46629 0.12563 0.0
H4629 H 0.17954 0.6157 0.13949 0.0
H4630 H 0.80762 0.88508 0.47785 0.0
H4631 H 0.80468 0.87161 0.44348 0.0
H4632 H 0.79029 0.81203 0.4523 0.0
H4633 H 0.79505 0.82577 0.48701 0.0
H4634 H 0.80966 0.81033 0.42691 0.0
H4635 H 0.7596 0.83734 0.43169 0.0
H4636 H 0.74214 0.862 0.44169 0.0
H4637 H 0.77405 0.90148 0.41219 0.0
H4638 H 0.79184 0.87719 0.40222 0.0
H4639 H 0.79533 0.77963 0.32289 0.0
H4640 H 0.79303 0.78453 0.35731 0.0
H4641 H 0.81242 0.84787 0.36425 0.0
H4642 H 0.81333 0.84299 0.3298 0.0
H4643 H 0.78434 0.84174 0.3809 0.0
H4644 H 0.83952 0.81392 0.38883 0.0
H4645 H 0.85481 0.78678 0.38212 0.0
H4646 H 0.80657 0.74444 0.38553 0.0
H4647 H 0.79137 0.7716 0.3937 0.0
C4648 C 0.80352 0.86911 0.47238 0.0
C4649 C 0.80129 0.85643 0.48497 0.0
C4650 C 0.80168 0.86136 0.45266 0.0
C4651 C 0.79673 0.84069 0.44498 0.0
C4652 C 0.79406 0.828 0.45769 0.0
C4653 C 0.79661 0.83581 0.47751 0.0
C4654 C 0.79564 0.83253 0.42385 0.0
C4655 C 0.80381 0.81708 0.41694 0.0
C4656 C 0.78786 0.84088 0.41047 0.0
C4657 C 0.77709 0.85547 0.41628 0.0
C4658 C 0.76293 0.85132 0.42741 0.0
C4659 C 0.75298 0.86523 0.43307 0.0
C4660 C 0.75699 0.8833 0.4276 0.0
C4661 C 0.77094 0.88748 0.41641 0.0
C4662 C 0.78095 0.87363 0.41072 0.0
C4663 C 0.79954 0.79452 0.3319 0.0
C4664 C 0.80462 0.81096 0.32377 0.0
C4665 C 0.79831 0.79734 0.35166 0.0
C4666 C 0.80263 0.81662 0.36362 0.0
C4667 C 0.80881 0.83285 0.35545 0.0
C4668 C 0.8095 0.83008 0.33577 0.0
C4669 C 0.79932 0.82053 0.38423 0.0
C4670 C 0.79006 0.83501 0.39099 0.0
C4671 C 0.80549 0.81084 0.39737 0.0
C4672 C 0.81431 0.79461 0.39147 0.0
C4673 C 0.83219 0.79879 0.38796 0.0
C4674 C 0.84084 0.78342 0.38397 0.0
C4675 C 0.83158 0.76382 0.38285 0.0
C4676 C 0.81371 0.75959 0.3862 0.0
C4677 C 0.80513 0.77497 0.39075 0.0
H4678 H 0.8383 0.75195 0.37962 0.0
H4679 H 0.74928 0.89406 0.43201 0.0
H4680 H 0.43425 0.55444 0.83795 0.0
H4681 H 0.44717 0.54815 0.86693 0.0
H4682 H 0.49913 0.57861 0.85618 0.0
H4683 H 0.48629 0.58279 0.82616 0.0
H4684 H 0.50658 0.55516 0.87183 0.0
H4685 H 0.46785 0.59654 0.89526 0.0
H4686 H 0.43962 0.60669 0.89757 0.0
H4687 H 0.41501 0.55241 0.91291 0.0
H4688 H 0.44307 0.54188 0.91054 0.0
H4689 H 0.54439 0.55953 0.96763 0.0
H4690 H 0.53382 0.56581 0.93749 0.0
H4691 H 0.48086 0.53334 0.94295 0.0
H4692 H 0.49119 0.52918 0.97389 0.0
H4693 H 0.47532 0.55978 0.93029 0.0
H4694 H 0.51747 0.51984 0.90622 0.0
H4695 H 0.54751 0.51399 0.90549 0.0
H4696 H 0.56787 0.5712 0.89387 0.0
H4697 H 0.53796 0.5774 0.89447 0.0
C4698 C 0.44843 0.55985 0.84179 0.0
C4699 C 0.45909 0.56931 0.82956 0.0
C4700 C 0.45595 0.55648 0.85875 0.0
C4701 C 0.4744 0.5634 0.86484 0.0
C4702 C 0.48497 0.57292 0.85245 0.0
C4703 C 0.47753 0.57551 0.83512 0.0
C4704 C 0.48271 0.56057 0.88365 0.0
C4705 C 0.49963 0.55639 0.88456 0.0
C4706 C 0.47425 0.56198 0.90088 0.0
C4707 C 0.45748 0.56837 0.90255 0.0
C4708 C 0.45639 0.58676 0.89907 0.0
C4709 C 0.44043 0.59257 0.90039 0.0
C4710 C 0.42552 0.58018 0.90533 0.0
C4711 C 0.42656 0.56198 0.90905 0.0
C4712 C 0.44249 0.5561 0.90776 0.0
C4713 C 0.53057 0.55337 0.96217 0.0
C4714 C 0.5188 0.54331 0.97316 0.0
C4715 C 0.5244 0.55687 0.94463 0.0
C4716 C 0.50631 0.54975 0.93696 0.0
C4717 C 0.4948 0.53928 0.94795 0.0
C4718 C 0.5008 0.53658 0.96575 0.0
C4719 C 0.49888 0.55371 0.91831 0.0
C4720 C 0.48217 0.5583 0.91749 0.0
C4721 C 0.50774 0.55315 0.90136 0.0
C4722 C 0.52553 0.5491 0.90048 0.0
C4723 C 0.52836 0.53114 0.90349 0.0
C4724 C 0.54536 0.52779 0.90315 0.0
C4725 C 0.5596 0.54223 0.89975 0.0
C4726 C 0.55685 0.56003 0.89653 0.0
C4727 C 0.53987 0.56345 0.8968 0.0
H4728 H 0.57275 0.5396 0.89956 0.0
H4729 H 0.41317 0.58469 0.90631 0.0
H4730 H 0.75742 0.15302 0.0692 0.0
H4731 H 0.75293 0.17357 0.09972 0.0
H4732 H 0.80495 0.21215 0.10153 0.0
H4733 H 0.80969 0.19181 0.07145 0.0
H4734 H 0.79985 0.19736 0.13326 0.0
H4735 H 0.76848 0.22685 0.09204 0.0
H4736 H 0.74504 0.22858 0.06875 0.0
H4737 H 0.70524 0.2088 0.10433 0.0
H4738 H 0.72843 0.20666 0.12773 0.0
H4739 H 0.81425 0.27876 0.20547 0.0
H4740 H 0.8077 0.25969 0.1729 0.0
H4741 H 0.75463 0.23377 0.18438 0.0
H4742 H 0.76048 0.25469 0.21673 0.0
H4743 H 0.75553 0.23735 0.14764 0.0
H4744 H 0.78769 0.21124 0.19038 0.0
H4745 H 0.81186 0.21423 0.21506 0.0
H4746 H 0.85052 0.22886 0.17655 0.0
H4747 H 0.82666 0.22633 0.15175 0.0
C4748 C 0.76788 0.16591 0.0761 0.0
C4749 C 0.78406 0.17061 0.0681 0.0
C4750 C 0.7652 0.17769 0.0934 0.0
C4751 C 0.77863 0.19427 0.10273 0.0
C4752 C 0.79449 0.19931 0.09447 0.0
C4753 C 0.7972 0.18758 0.07734 0.0
C4754 C 0.77722 0.20552 0.122 0.0
C4755 C 0.79016 0.20612 0.1364 0.0
C4756 C 0.76413 0.21626 0.12615 0.0
C4757 C 0.75018 0.21634 0.1115 0.0
C4758 C 0.75471 0.22253 0.09474 0.0
C4759 C 0.74148 0.2237 0.08158 0.0
C4760 C 0.72367 0.21887 0.0851 0.0
C4761 C 0.71904 0.21258 0.10165 0.0
C4762 C 0.73222 0.21136 0.11485 0.0
C4763 C 0.80099 0.26983 0.20107 0.0
C4764 C 0.78797 0.26849 0.21384 0.0
C4765 C 0.79729 0.25865 0.18239 0.0
C4766 C 0.78087 0.24493 0.17651 0.0
C4767 C 0.76743 0.24423 0.18876 0.0
C4768 C 0.7709 0.25611 0.20728 0.0
C4769 C 0.77871 0.2299 0.15847 0.0
C4770 C 0.76498 0.22829 0.14452 0.0
C4771 C 0.79106 0.21812 0.15463 0.0
C4772 C 0.80537 0.21858 0.1692 0.0
C4773 C 0.80134 0.21506 0.18717 0.0
C4774 C 0.81498 0.21673 0.20119 0.0
C4775 C 0.83268 0.22171 0.19737 0.0
C4776 C 0.8368 0.22496 0.17948 0.0
C4777 C 0.82323 0.22338 0.16542 0.0
H4778 H 0.8432 0.22305 0.20828 0.0
H4779 H 0.71347 0.22005 0.07502 0.0
H4780 H 0.17511 0.534 0.30723 0.0
H4781 H 0.16278 0.54111 0.33775 0.0
H4782 H 0.11881 0.55554 0.31007 0.0
H4783 H 0.13138 0.5493 0.2797 0.0
H4784 H 0.12913 0.57916 0.34528 0.0
H4785 H 0.11356 0.50922 0.31549 0.0
H4786 H 0.12236 0.47926 0.29891 0.0
H4787 H 0.15613 0.48232 0.34883 0.0
H4788 H 0.14764 0.51246 0.36564 0.0
H4789 H 0.06582 0.56614 0.40625 0.0
H4790 H 0.07826 0.55119 0.37773 0.0
H4791 H 0.1262 0.55482 0.41226 0.0
H4792 H 0.11365 0.56969 0.44089 0.0
H4793 H 0.114 0.5206 0.37404 0.0
H4794 H 0.13085 0.59369 0.40157 0.0
H4795 H 0.12198 0.62432 0.41609 0.0
H4796 H 0.08385 0.61415 0.36774 0.0
H4797 H 0.09252 0.58341 0.353 0.0
C4798 C 0.16307 0.53914 0.30773 0.0
C4799 C 0.15407 0.54087 0.29112 0.0
C4800 C 0.15603 0.54312 0.32512 0.0
C4801 C 0.13976 0.54838 0.3259 0.0
C4802 C 0.13138 0.55141 0.30961 0.0
C4803 C 0.13854 0.54775 0.2923 0.0
C4804 C 0.13057 0.54892 0.34321 0.0
C4805 C 0.12579 0.56635 0.3515 0.0
C4806 C 0.12614 0.5321 0.35115 0.0
C4807 C 0.12997 0.51302 0.3418 0.0
C4808 C 0.12276 0.50339 0.32296 0.0
C4809 C 0.12775 0.48644 0.3135 0.0
C4810 C 0.13981 0.47889 0.32281 0.0
C4811 C 0.14677 0.48817 0.34166 0.0
C4812 C 0.14183 0.50515 0.35118 0.0
C4813 C 0.07875 0.56306 0.40773 0.0
C4814 C 0.08909 0.56931 0.42537 0.0
C4815 C 0.08571 0.55433 0.39159 0.0
C4816 C 0.1031 0.55207 0.39306 0.0
C4817 C 0.11269 0.55634 0.41103 0.0
C4818 C 0.10568 0.56505 0.42723 0.0
C4819 C 0.11272 0.5509 0.37604 0.0
C4820 C 0.11748 0.53338 0.36781 0.0
C4821 C 0.11694 0.56753 0.36787 0.0
C4822 C 0.11226 0.58633 0.37628 0.0
C4823 C 0.12059 0.59803 0.39407 0.0
C4824 C 0.11561 0.61539 0.40232 0.0
C4825 C 0.10233 0.62115 0.39287 0.0
C4826 C 0.09412 0.60966 0.37506 0.0
C4827 C 0.0991 0.59232 0.36672 0.0
H4828 H 0.09841 0.63454 0.39934 0.0
H4829 H 0.14376 0.46585 0.31542 0.0
H4830 H 0.77596 0.87333 0.58965 0.0
H4831 H 0.77119 0.8633 0.61979 0.0
H4832 H 0.80499 0.82303 0.60599 0.0
H4833 H 0.8098 0.83288 0.57588 0.0
H4834 H 0.77669 0.8075 0.62358 0.0
H4835 H 0.82131 0.86898 0.63253 0.0
H4836 H 0.83385 0.90404 0.63229 0.0
H4837 H 0.79588 0.9217 0.66945 0.0
H4838 H 0.78285 0.88669 0.66955 0.0
H4839 H 0.80661 0.79599 0.71297 0.0
H4840 H 0.80226 0.80182 0.68126 0.0
H4841 H 0.77836 0.8498 0.70477 0.0
H4842 H 0.78406 0.84481 0.73693 0.0
H4843 H 0.79848 0.86129 0.68194 0.0
H4844 H 0.75247 0.79968 0.6717 0.0
H4845 H 0.73945 0.76445 0.67112 0.0
H4846 H 0.78029 0.74741 0.63811 0.0
H4847 H 0.7931 0.78246 0.63783 0.0
C4848 C 0.78196 0.86191 0.59275 0.0
C4849 C 0.79338 0.85401 0.5804 0.0
C4850 C 0.77936 0.85636 0.61008 0.0
C4851 C 0.78804 0.84275 0.61528 0.0
C4852 C 0.79827 0.83367 0.60231 0.0
C4853 C 0.80098 0.8393 0.58508 0.0
C4854 C 0.78751 0.83886 0.63466 0.0
C4855 C 0.78145 0.81925 0.63637 0.0
C4856 C 0.79344 0.85422 0.65137 0.0
C4857 C 0.80088 0.87518 0.65072 0.0
C4858 C 0.81544 0.8803 0.64037 0.0
C4859 C 0.82267 0.90018 0.64032 0.0
C4860 C 0.8156 0.91508 0.65075 0.0
C4861 C 0.80127 0.91014 0.66127 0.0
C4862 C 0.79394 0.89028 0.66129 0.0
C4863 C 0.8003 0.80769 0.71129 0.0
C4864 C 0.79559 0.81995 0.72726 0.0
C4865 C 0.79757 0.81084 0.6931 0.0
C4866 C 0.78941 0.82583 0.69036 0.0
C4867 C 0.78455 0.83802 0.70641 0.0
C4868 C 0.78782 0.83524 0.72476 0.0
C4869 C 0.78739 0.82988 0.67105 0.0
C4870 C 0.79322 0.84953 0.66928 0.0
C4871 C 0.78117 0.81457 0.6543 0.0
C4872 C 0.77381 0.79364 0.65492 0.0
C4873 C 0.75871 0.78841 0.66442 0.0
C4874 C 0.75133 0.76848 0.66416 0.0
C4875 C 0.75918 0.75373 0.65483 0.0
C4876 C 0.77426 0.75884 0.64542 0.0
C4877 C 0.78148 0.7787 0.6453 0.0
H4878 H 0.75351 0.73833 0.65478 0.0
H4879 H 0.82127 0.93047 0.65075 0.0
H4880 H 0.78274 0.49025 0.51503 0.0
H4881 H 0.75579 0.50086 0.50902 0.0
H4882 H 0.72467 0.44984 0.52595 0.0
H4883 H 0.75171 0.4386 0.53098 0.0
H4884 H 0.70638 0.45977 0.49908 0.0
H4885 H 0.74066 0.49284 0.55863 0.0
H4886 H 0.76695 0.512 0.58085 0.0
H4887 H 0.77067 0.56107 0.55425 0.0
H4888 H 0.74458 0.54206 0.53166 0.0
H4889 H 0.64188 0.50903 0.54126 0.0
H4890 H 0.66275 0.48909 0.53023 0.0
H4891 H 0.69434 0.53831 0.51106 0.0
H4892 H 0.67373 0.5585 0.52266 0.0
H4893 H 0.71147 0.52776 0.53821 0.0
H4894 H 0.6795 0.48918 0.47444 0.0
H4895 H 0.65462 0.46668 0.45204 0.0
H4896 H 0.64494 0.42792 0.49054 0.0
H4897 H 0.67047 0.44962 0.51264 0.0
C4898 C 0.77005 0.48108 0.51694 0.0
C4899 C 0.76902 0.46391 0.52372 0.0
C4900 C 0.75476 0.48711 0.51355 0.0
C4901 C 0.7385 0.47639 0.51765 0.0
C4902 C 0.73724 0.4583 0.52289 0.0
C4903 C 0.75256 0.45195 0.52579 0.0
C4904 C 0.72335 0.48531 0.51858 0.0
C4905 C 0.7074 0.4746 0.5077 0.0
C4906 C 0.72483 0.5046 0.52995 0.0
C4907 C 0.74077 0.51592 0.5433 0.0
C4908 C 0.7472 0.50763 0.55738 0.0
C4909 C 0.76204 0.51848 0.57007 0.0
C4910 C 0.7705 0.53772 0.56893 0.0
C4911 C 0.76413 0.54615 0.55509 0.0
C4912 C 0.74932 0.53534 0.54234 0.0
C4913 C 0.6532 0.51541 0.53445 0.0
C4914 C 0.65665 0.53533 0.53316 0.0
C4915 C 0.66485 0.50392 0.52782 0.0
C4916 C 0.67989 0.51221 0.51964 0.0
C4917 C 0.68267 0.53171 0.51723 0.0
C4918 C 0.67118 0.54329 0.52413 0.0
C4919 C 0.69464 0.50261 0.518 0.0
C4920 C 0.7105 0.51309 0.52925 0.0
C4921 C 0.6929 0.48302 0.5074 0.0
C4922 C 0.67658 0.47117 0.49528 0.0
C4923 C 0.67187 0.47602 0.47822 0.0
C4924 C 0.65776 0.46333 0.46553 0.0
C4925 C 0.64795 0.4461 0.47002 0.0
C4926 C 0.65243 0.44135 0.48713 0.0
C4927 C 0.66682 0.45373 0.49966 0.0
H4928 H 0.637 0.43634 0.46016 0.0
H4929 H 0.78197 0.54612 0.5788 0.0
H4930 H 0.22905 0.13761 0.46117 0.0
H4931 H 0.19891 0.12003 0.46471 0.0
H4932 H 0.20693 0.14646 0.52521 0.0
H4933 H 0.23717 0.16417 0.52179 0.0
H4934 H 0.19206 0.10669 0.51799 0.0
H4935 H 0.18078 0.16199 0.49751 0.0
H4936 H 0.18232 0.18619 0.47745 0.0
H4937 H 0.15681 0.13925 0.42926 0.0
H4938 H 0.15537 0.1147 0.449 0.0
H4939 H 0.1023 0.08602 0.53842 0.0
H4940 H 0.13198 0.10286 0.53306 0.0
H4941 H 0.12419 0.06811 0.47501 0.0
H4942 H 0.09421 0.05099 0.48026 0.0
H4943 H 0.13877 0.11116 0.48032 0.0
H4944 H 0.14973 0.05599 0.50343 0.0
H4945 H 0.14654 0.03409 0.52595 0.0
H4946 H 0.17159 0.0838 0.57192 0.0
H4947 H 0.17467 0.10606 0.54971 0.0
C4948 C 0.22438 0.13985 0.47522 0.0
C4949 C 0.23555 0.15234 0.49119 0.0
C4950 C 0.20711 0.12979 0.47721 0.0
C4951 C 0.20061 0.13193 0.49522 0.0
C4952 C 0.21166 0.14454 0.51118 0.0
C4953 C 0.22891 0.15476 0.50917 0.0
C4954 C 0.18243 0.12066 0.49738 0.0
C4955 C 0.18042 0.10784 0.50987 0.0
C4956 C 0.16719 0.12188 0.48664 0.0
C4957 C 0.16817 0.1365 0.47465 0.0
C4958 C 0.17567 0.1568 0.48258 0.0
C4959 C 0.17649 0.17059 0.47128 0.0
C4960 C 0.16972 0.16425 0.45207 0.0
C4961 C 0.16209 0.14412 0.44413 0.0
C4962 C 0.16126 0.13027 0.45536 0.0
C4963 C 0.10683 0.0818 0.52451 0.0
C4964 C 0.09586 0.06695 0.50982 0.0
C4965 C 0.12386 0.09148 0.52149 0.0
C4966 C 0.13033 0.08668 0.50369 0.0
C4967 C 0.11944 0.07201 0.48888 0.0
C4968 C 0.10238 0.06213 0.49195 0.0
C4969 C 0.1485 0.09716 0.50077 0.0
C4970 C 0.15048 0.10988 0.48822 0.0
C4971 C 0.16367 0.0961 0.51168 0.0
C4972 C 0.16232 0.08269 0.52495 0.0
C4973 C 0.15447 0.06226 0.51837 0.0
C4974 C 0.15268 0.04979 0.53107 0.0
C4975 C 0.15881 0.05756 0.55037 0.0
C4976 C 0.16682 0.07781 0.55698 0.0
C4977 C 0.16862 0.09036 0.54434 0.0
H4978 H 0.15739 0.04788 0.56018 0.0
H4979 H 0.17034 0.17495 0.44335 0.0
H4980 H 0.17817 0.93932 0.75402 0.0
H4981 H 0.19212 0.91117 0.75218 0.0
H4982 H 0.24063 0.9515 0.78092 0.0
H4983 H 0.22661 0.97939 0.78334 0.0
H4984 H 0.24751 0.92207 0.75027 0.0
H4985 H 0.21234 0.92279 0.80446 0.0
H4986 H 0.18442 0.92083 0.81968 0.0
H4987 H 0.16196 0.86336 0.78269 0.0
H4988 H 0.18966 0.86511 0.76706 0.0
H4989 H 0.2947 0.85125 0.76681 0.0
H4990 H 0.2811 0.8782 0.76674 0.0
H4991 H 0.2301 0.83959 0.76935 0.0
H4992 H 0.24481 0.81397 0.77367 0.0
H4993 H 0.22324 0.86855 0.78271 0.0
H4994 H 0.25344 0.86561 0.72598 0.0
H4995 H 0.27898 0.86488 0.70698 0.0
H4996 H 0.30692 0.92208 0.74114 0.0
H4997 H 0.28161 0.92305 0.76046 0.0
C4998 C 0.19194 0.94235 0.7596 0.0
C4999 C 0.20117 0.96213 0.76851 0.0
C5000 C 0.19995 0.92603 0.75874 0.0
C5001 C 0.2177 0.9287 0.76645 0.0
C5002 C 0.22705 0.94852 0.77474 0.0
C5003 C 0.21893 0.96469 0.77603 0.0
C5004 C 0.22647 0.91119 0.76637 0.0
C5005 C 0.24218 0.91042 0.75747 0.0
C5006 C 0.2196 0.89518 0.77502 0.0
C5007 C 0.203 0.89418 0.78446 0.0
C5008 C 0.20139 0.90982 0.79946 0.0
C5009 C 0.18562 0.90873 0.80818 0.0
C5010 C 0.17141 0.89201 0.80212 0.0
C5011 C 0.17296 0.87632 0.78735 0.0
C5012 C 0.18869 0.87735 0.77856 0.0
C5013 C 0.28081 0.84836 0.76791 0.0
C5014 C 0.27154 0.82991 0.77088 0.0
C5015 C 0.27249 0.86406 0.76706 0.0
C5016 C 0.25387 0.86181 0.76732 0.0
C5017 C 0.24437 0.84285 0.76924 0.0
C5018 C 0.25295 0.82765 0.77138 0.0
C5019 C 0.24445 0.87887 0.76622 0.0
C5020 C 0.22863 0.87978 0.7751 0.0
C5021 C 0.25076 0.89452 0.7567 0.0
C5022 C 0.26571 0.89432 0.74473 0.0
C5023 C 0.26503 0.87803 0.72941 0.0
C5024 C 0.27948 0.87756 0.71862 0.0
C5025 C 0.29458 0.89339 0.72289 0.0
C5026 C 0.29522 0.90981 0.73787 0.0
C5027 C 0.28083 0.91035 0.74872 0.0
H5028 H 0.30578 0.89296 0.71457 0.0
H5029 H 0.15922 0.89119 0.8089 0.0
H5030 H 0.37542 0.994 0.05237 0.0
H5031 H 0.40561 0.00454 0.04384 0.0
H5032 H 0.38614 0.98652 0.98406 0.0
H5033 H 0.35566 0.97648 0.99263 0.0
H5034 H 0.41413 0.9679 0.00171 0.0
H5035 H 0.40192 0.03089 0.99552 0.0
H5036 H 0.38938 0.05922 0.00884 0.0
H5037 H 0.42566 0.07427 0.05953 0.0
H5038 H 0.43826 0.04593 0.04661 0.0
H5039 H 0.50786 0.98947 0.99779 0.0
H5040 H 0.47583 0.98385 0.99 0.0
H5041 H 0.47463 0.03088 0.03907 0.0
H5042 H 0.50665 0.03785 0.04513 0.0
H5043 H 0.45475 0.03518 0.01569 0.0
H5044 H 0.45992 0.97507 0.03394 0.0
H5045 H 0.47058 0.94469 0.03203 0.0
H5046 H 0.447 0.92215 0.97404 0.0
H5047 H 0.4364 0.95255 0.97557 0.0
C5048 C 0.37758 0.99292 0.03747 0.0
C5049 C 0.36347 0.98467 0.0231 0.0
C5050 C 0.3947 0.99888 0.03262 0.0
C5051 C 0.39788 0.99627 0.01337 0.0
C5052 C 0.38373 0.98874 0.99897 0.0
C5053 C 0.36646 0.98317 0.00385 0.0
C5054 C 0.41627 0.99934 0.00871 0.0
C5055 C 0.4231 0.98256 0.00421 0.0
C5056 C 0.42775 0.01847 0.01298 0.0
C5057 C 0.42109 0.03638 0.02003 0.0
C5058 C 0.40727 0.04032 0.00946 0.0
C5059 C 0.40012 0.05634 0.01697 0.0
C5060 C 0.40673 0.06856 0.03501 0.0
C5061 C 0.42059 0.06485 0.04553 0.0
C5062 C 0.42779 0.04886 0.03809 0.0
C5063 C 0.50056 0.99855 0.0067 0.0
C5064 C 0.5094 0.01421 0.02178 0.0
C5065 C 0.48228 0.99526 0.00242 0.0
C5066 C 0.47261 0.00692 0.0139 0.0
C5067 C 0.48165 0.02198 0.02958 0.0
C5068 C 0.49991 0.02582 0.03325 0.0
C5069 C 0.45312 0.00363 0.01006 0.0
C5070 C 0.44599 0.02039 0.01266 0.0
C5071 C 0.44142 0.98442 0.00566 0.0
C5072 C 0.44762 0.96613 0.00477 0.0
C5073 C 0.45711 0.96366 0.02076 0.0
C5074 C 0.46313 0.94646 0.01975 0.0
C5075 C 0.45954 0.93154 0.00289 0.0
C5076 C 0.44983 0.93375 0.98705 0.0
C5077 C 0.44382 0.95095 0.98798 0.0
H5078 H 0.46423 0.91823 0.00213 0.0
H5079 H 0.40111 0.08088 0.04084 0.0
H5080 H 0.86141 0.56589 0.78435 0.0
H5081 H 0.84903 0.59246 0.77757 0.0
H5082 H 0.86581 0.62657 0.83537 0.0
H5083 H 0.87828 0.59996 0.84226 0.0
H5084 H 0.83309 0.63125 0.81631 0.0
H5085 H 0.8946 0.63205 0.80725 0.0
H5086 H 0.91837 0.61682 0.79456 0.0
H5087 H 0.89522 0.60862 0.73728 0.0
H5088 H 0.87105 0.62332 0.74963 0.0
H5089 H 0.8214 0.71126 0.78152 0.0
H5090 H 0.83768 0.69473 0.79954 0.0
H5091 H 0.84589 0.65676 0.74692 0.0
H5092 H 0.83217 0.67518 0.72879 0.0
H5093 H 0.87048 0.65874 0.76977 0.0
H5094 H 0.8067 0.64698 0.77555 0.0
H5095 H 0.77871 0.65517 0.78503 0.0
H5096 H 0.80169 0.6776 0.84325 0.0
H5097 H 0.82984 0.66968 0.83404 0.0
C5098 C 0.86153 0.57856 0.7959 0.0
C5099 C 0.87103 0.58123 0.81367 0.0
C5100 C 0.85466 0.59376 0.79196 0.0
C5101 C 0.85722 0.61154 0.80583 0.0
C5102 C 0.86405 0.61291 0.82451 0.0
C5103 C 0.87094 0.59765 0.82848 0.0
C5104 C 0.85526 0.62939 0.79999 0.0
C5105 C 0.84138 0.63759 0.80639 0.0
C5106 C 0.8661 0.63717 0.78685 0.0
C5107 C 0.8809 0.62867 0.77942 0.0
C5108 C 0.89447 0.62685 0.79196 0.0
C5109 C 0.90803 0.61831 0.78482 0.0
C5110 C 0.90829 0.61173 0.76513 0.0
C5111 C 0.895 0.61371 0.75253 0.0
C5112 C 0.88137 0.62214 0.7596 0.0
C5113 C 0.82732 0.70002 0.77366 0.0
C5114 C 0.82476 0.69404 0.75356 0.0
C5115 C 0.83636 0.69029 0.78408 0.0
C5116 C 0.84216 0.67383 0.77465 0.0
C5117 C 0.84122 0.66917 0.75463 0.0
C5118 C 0.83298 0.67949 0.74422 0.0
C5119 C 0.84747 0.66009 0.78518 0.0
C5120 C 0.86225 0.65275 0.77991 0.0
C5121 C 0.837 0.65249 0.79877 0.0
C5122 C 0.82041 0.6581 0.80406 0.0
C5123 C 0.80582 0.65388 0.79032 0.0
C5124 C 0.78993 0.65841 0.79565 0.0
C5125 C 0.78846 0.66699 0.81471 0.0
C5126 C 0.80287 0.67105 0.82848 0.0
C5127 C 0.81879 0.66657 0.82321 0.0
H5128 H 0.77612 0.67041 0.81883 0.0
H5129 H 0.91881 0.60514 0.75964 0.0
H5130 H 0.81872 0.63226 0.00941 0.0
H5131 H 0.84387 0.61759 0.01185 0.0
H5132 H 0.88004 0.67523 0.01915 0.0
H5133 H 0.85493 0.68978 0.01575 0.0
H5134 H 0.8929 0.64876 0.99688 0.0
H5135 H 0.87037 0.65381 0.05771 0.0
H5136 H 0.84718 0.64998 0.07978 0.0
H5137 H 0.83477 0.58662 0.05887 0.0
H5138 H 0.85774 0.59009 0.0365 0.0
H5139 H 0.96291 0.61018 0.035 0.0
H5140 H 0.94227 0.62994 0.02844 0.0
H5141 H 0.89961 0.57673 0.01361 0.0
H5142 H 0.92002 0.55712 0.02029 0.0
H5143 H 0.89268 0.60498 0.04189 0.0
H5144 H 0.91656 0.6015 0.98043 0.0
H5145 H 0.94043 0.60713 0.95941 0.0
H5146 H 0.95207 0.66991 0.98367 0.0
H5147 H 0.92845 0.66464 0.00506 0.0
C5148 C 0.83202 0.64184 0.01175 0.0
C5149 C 0.83482 0.66221 0.01263 0.0
C5150 C 0.8464 0.63345 0.0131 0.0
C5151 C 0.86385 0.64538 0.01601 0.0
C5152 C 0.8667 0.66575 0.01691 0.0
C5153 C 0.8523 0.67408 0.01511 0.0
C5154 C 0.87902 0.63653 0.01848 0.0
C5155 C 0.89301 0.6394 0.0069 0.0
C5156 C 0.87921 0.62442 0.03161 0.0
C5157 C 0.86571 0.62222 0.04539 0.0
C5158 C 0.86266 0.63907 0.05779 0.0
C5159 C 0.84955 0.63696 0.07034 0.0
C5160 C 0.83949 0.61807 0.07071 0.0
C5161 C 0.84257 0.60124 0.05857 0.0
C5162 C 0.85566 0.60326 0.04599 0.0
C5163 C 0.9492 0.60273 0.02994 0.0
C5164 C 0.94291 0.58223 0.02844 0.0
C5165 C 0.93746 0.61399 0.02618 0.0
C5166 C 0.91942 0.60476 0.02068 0.0
C5167 C 0.91346 0.58412 0.01799 0.0
C5168 C 0.92509 0.57296 0.02186 0.0
C5169 C 0.90618 0.61652 0.01977 0.0
C5170 C 0.89264 0.6144 0.03189 0.0
C5171 C 0.90667 0.62953 0.0074 0.0
C5172 C 0.92086 0.63265 0.99451 0.0
C5173 C 0.92432 0.61649 0.98142 0.0
C5174 C 0.93778 0.61962 0.96941 0.0
C5175 C 0.94779 0.63886 0.97024 0.0
C5176 C 0.94433 0.65501 0.98306 0.0
C5177 C 0.9309 0.65196 0.99513 0.0
H5178 H 0.95819 0.64125 0.96092 0.0
H5179 H 0.82933 0.61647 0.08042 0.0
H5180 H 0.20012 0.08199 0.80994 0.0
H5181 H 0.215 0.11566 0.8075 0.0
H5182 H 0.21858 0.09369 0.74765 0.0
H5183 H 0.20283 0.05998 0.74982 0.0
H5184 H 0.25327 0.12152 0.77512 0.0
H5185 H 0.19295 0.1175 0.75193 0.0
H5186 H 0.16066 0.11165 0.75369 0.0
H5187 H 0.16925 0.1571 0.80562 0.0
H5188 H 0.20164 0.16297 0.80436 0.0
H5189 H 0.29198 0.21645 0.75702 0.0
H5190 H 0.27554 0.18237 0.75556 0.0
H5191 H 0.24181 0.20439 0.79647 0.0
H5192 H 0.25711 0.23852 0.79608 0.0
H5193 H 0.22192 0.17512 0.77761 0.0
H5194 H 0.28106 0.17873 0.80342 0.0
H5195 H 0.31365 0.18543 0.80376 0.0
H5196 H 0.30816 0.14158 0.75106 0.0
H5197 H 0.27555 0.13485 0.75025 0.0
C5198 C 0.20397 0.08425 0.79618 0.0
C5199 C 0.20015 0.06798 0.78009 0.0
C5200 C 0.21253 0.10366 0.7948 0.0
C5201 C 0.21815 0.10756 0.77741 0.0
C5202 C 0.21451 0.09134 0.7613 0.0
C5203 C 0.20539 0.07196 0.76254 0.0
C5204 C 0.22785 0.12845 0.77626 0.0
C5205 C 0.24636 0.13317 0.77542 0.0
C5206 C 0.2192 0.14412 0.77731 0.0
C5207 C 0.19974 0.14048 0.77818 0.0
C5208 C 0.18797 0.12606 0.76387 0.0
C5209 C 0.16964 0.12278 0.76474 0.0
C5210 C 0.1629 0.13394 0.77979 0.0
C5211 C 0.17449 0.14843 0.79399 0.0
C5212 C 0.19283 0.15174 0.7932 0.0
C5213 C 0.28115 0.21401 0.76584 0.0
C5214 C 0.2762 0.23041 0.77697 0.0
C5215 C 0.27172 0.19427 0.76519 0.0
C5216 C 0.2575 0.19 0.77648 0.0
C5217 C 0.2526 0.2066 0.78757 0.0
C5218 C 0.26154 0.22634 0.78755 0.0
C5219 C 0.24766 0.16858 0.77659 0.0
C5220 C 0.22905 0.16366 0.77735 0.0
C5221 C 0.25631 0.1528 0.77593 0.0
C5222 C 0.27588 0.15638 0.77672 0.0
C5223 C 0.28682 0.17054 0.7919 0.0
C5224 C 0.30529 0.17436 0.79216 0.0
C5225 C 0.31296 0.16395 0.77743 0.0
C5226 C 0.30219 0.14964 0.76245 0.0
C5227 C 0.28372 0.1458 0.76209 0.0
H5228 H 0.32726 0.16696 0.77764 0.0
H5229 H 0.14871 0.13141 0.78042 0.0
H5230 H 0.39036 0.99549 0.27335 0.0
H5231 H 0.3752 0.96058 0.26173 0.0
H5232 H 0.33378 0.96876 0.29826 0.0
H5233 H 0.34933 0.00357 0.31063 0.0
H5234 H 0.35469 0.94641 0.30869 0.0
H5235 H 0.32616 0.95072 0.24846 0.0
H5236 H 0.32655 0.95922 0.21706 0.0
H5237 H 0.36123 0.92109 0.19948 0.0
H5238 H 0.36133 0.91266 0.23087 0.0
H5239 H 0.2946 0.84522 0.26702 0.0
H5240 H 0.30677 0.8813 0.27569 0.0
H5241 H 0.35978 0.87257 0.27891 0.0
H5242 H 0.34748 0.83656 0.27209 0.0
H5243 H 0.33575 0.89471 0.24852 0.0
H5244 H 0.3727 0.89758 0.30505 0.0
H5245 H 0.38403 0.89662 0.33716 0.0
H5246 H 0.34473 0.92528 0.36168 0.0
H5247 H 0.33269 0.9256 0.32953 0.0
C5248 C 0.37764 0.99006 0.27832 0.0
C5249 C 0.37119 1.00196 0.29326 0.0
C5250 C 0.36892 0.97012 0.27152 0.0
C5251 C 0.3535 0.96216 0.27929 0.0
C5252 C 0.34574 0.97475 0.29219 0.0
C5253 C 0.35466 0.99455 0.29932 0.0
C5254 C 0.34839 0.94074 0.27827 0.0
C5255 C 0.35004 0.93506 0.29556 0.0
C5256 C 0.34405 0.92613 0.26096 0.0
C5257 C 0.34385 0.9312 0.24209 0.0
C5258 C 0.334 0.9443 0.23797 0.0
C5259 C 0.33412 0.94908 0.22015 0.0
C5260 C 0.34394 0.94074 0.2063 0.0
C5261 C 0.35364 0.92757 0.21022 0.0
C5262 C 0.3536 0.92277 0.22801 0.0
C5263 C 0.30876 0.85115 0.27062 0.0
C5264 C 0.32015 0.83851 0.26987 0.0
C5265 C 0.3157 0.87162 0.27553 0.0
C5266 C 0.33412 0.87952 0.27878 0.0
C5267 C 0.34554 0.8668 0.27763 0.0
C5268 C 0.33854 0.84633 0.27341 0.0
C5269 C 0.34107 0.90052 0.27911 0.0
C5270 C 0.34 0.9061 0.26166 0.0
C5271 C 0.34688 0.91514 0.2962 0.0
C5272 C 0.35128 0.91079 0.31476 0.0
C5273 C 0.36587 0.90272 0.31714 0.0
C5274 C 0.37267 0.90267 0.33542 0.0
C5275 C 0.36517 0.91098 0.35147 0.0
C5276 C 0.35057 0.9189 0.34925 0.0
C5277 C 0.34363 0.9188 0.33098 0.0
H5278 H 0.37056 0.91112 0.36562 0.0
H5279 H 0.34401 0.94446 0.19252 0.0
H5280 H 0.58718 0.35145 0.55787 0.0
H5281 H 0.58491 0.37931 0.5433 0.0
H5282 H 0.5682 0.40899 0.59547 0.0
H5283 H 0.57108 0.38178 0.61014 0.0
H5284 H 0.54383 0.39811 0.55729 0.0
H5285 H 0.6033 0.43045 0.58858 0.0
H5286 H 0.63545 0.43411 0.59465 0.0
H5287 H 0.64168 0.43337 0.53562 0.0
H5288 H 0.60947 0.42926 0.52911 0.0
H5289 H 0.53928 0.49709 0.56082 0.0
H5290 H 0.54491 0.46599 0.56561 0.0
H5291 H 0.56532 0.45582 0.5107 0.0
H5292 H 0.55883 0.48678 0.50543 0.0
H5293 H 0.58891 0.45422 0.54427 0.0
H5294 H 0.53298 0.42038 0.51076 0.0
H5295 H 0.50107 0.41144 0.50005 0.0
H5296 H 0.48866 0.41259 0.55767 0.0
H5297 H 0.52062 0.42088 0.56864 0.0
C5298 C 0.58388 0.36439 0.56647 0.0
C5299 C 0.5799 0.36472 0.58538 0.0
C5300 C 0.58239 0.38021 0.55808 0.0
C5301 C 0.57644 0.39634 0.56831 0.0
C5302 C 0.573 0.39688 0.58734 0.0
C5303 C 0.57484 0.38139 0.59579 0.0
C5304 C 0.57178 0.41154 0.55886 0.0
C5305 C 0.55373 0.41042 0.55457 0.0
C5306 C 0.58463 0.42717 0.55443 0.0
C5307 C 0.6039 0.42916 0.55829 0.0
C5308 C 0.61146 0.4307 0.57682 0.0
C5309 C 0.62972 0.43295 0.58036 0.0
C5310 C 0.64059 0.43387 0.56551 0.0
C5311 C 0.63323 0.43257 0.54709 0.0
C5312 C 0.61497 0.43026 0.54347 0.0
C5313 C 0.54435 0.48787 0.54943 0.0
C5314 C 0.54815 0.49416 0.53255 0.0
C5315 C 0.5477 0.47014 0.55225 0.0
C5316 C 0.55559 0.4585 0.53858 0.0
C5317 C 0.55917 0.46449 0.52146 0.0
C5318 C 0.55526 0.48206 0.51835 0.0
C5319 C 0.56095 0.44096 0.54314 0.0
C5320 C 0.57905 0.44171 0.54671 0.0
C5321 C 0.54823 0.42468 0.54651 0.0
C5322 C 0.52914 0.42142 0.54052 0.0
C5323 C 0.52344 0.41897 0.52118 0.0
C5324 C 0.50535 0.41384 0.51504 0.0
C5325 C 0.49282 0.41149 0.52817 0.0
C5326 C 0.49838 0.41434 0.54751 0.0
C5327 C 0.51649 0.41912 0.55368 0.0
H5328 H 0.4788 0.40756 0.52337 0.0
H5329 H 0.65473 0.43567 0.5683 0.0
H5330 H 0.46417 0.74061 0.365 0.0
H5331 H 0.43666 0.74318 0.34914 0.0
H5332 H 0.43189 0.78884 0.39759 0.0
H5333 H 0.45903 0.78522 0.41401 0.0
H5334 H 0.40011 0.76726 0.38428 0.0
H5335 H 0.44872 0.79861 0.35371 0.0
H5336 H 0.47625 0.80012 0.3378 0.0
H5337 H 0.44916 0.75084 0.29239 0.0
H5338 H 0.42152 0.74889 0.30815 0.0
H5339 H 0.33924 0.80319 0.33192 0.0
H5340 H 0.36507 0.79981 0.35033 0.0
H5341 H 0.36903 0.74993 0.30598 0.0
H5342 H 0.343 0.75298 0.28779 0.0
H5343 H 0.40143 0.77509 0.31757 0.0
H5344 H 0.35306 0.74353 0.34796 0.0
H5345 H 0.32542 0.74156 0.36372 0.0
H5346 H 0.3519 0.79115 0.40913 0.0
H5347 H 0.37964 0.7936 0.3935 0.0
C5348 C 0.45713 0.75105 0.37232 0.0
C5349 C 0.46373 0.76275 0.39067 0.0
C5350 C 0.44145 0.75268 0.36318 0.0
C5351 C 0.43229 0.76666 0.3718 0.0
C5352 C 0.43866 0.77802 0.39047 0.0
C5353 C 0.45418 0.77599 0.39986 0.0
C5354 C 0.41642 0.76962 0.3611 0.0
C5355 C 0.40054 0.76928 0.36981 0.0
C5356 C 0.41664 0.77192 0.34201 0.0
C5357 C 0.43308 0.77355 0.33216 0.0
C5358 C 0.44865 0.78809 0.34034 0.0
C5359 C 0.46427 0.789 0.33136 0.0
C5360 C 0.46446 0.77556 0.31411 0.0
C5361 C 0.449 0.76124 0.30575 0.0
C5362 C 0.43334 0.76025 0.31468 0.0
C5363 C 0.34553 0.79143 0.32604 0.0
C5364 C 0.33924 0.77875 0.30791 0.0
C5365 C 0.36036 0.78951 0.33665 0.0
C5366 C 0.3692 0.77467 0.32957 0.0
C5367 C 0.36271 0.76172 0.3117 0.0
C5368 C 0.34785 0.76361 0.30114 0.0
C5369 C 0.38517 0.77262 0.34072 0.0
C5370 C 0.40106 0.77316 0.33208 0.0
C5371 C 0.38494 0.77055 0.35985 0.0
C5372 C 0.3684 0.76884 0.36949 0.0
C5373 C 0.35296 0.75408 0.36126 0.0
C5374 C 0.33728 0.75287 0.37017 0.0
C5375 C 0.3369 0.76625 0.3874 0.0
C5376 C 0.35221 0.78081 0.39578 0.0
C5377 C 0.36793 0.7821 0.38692 0.0
H5378 H 0.32474 0.76531 0.39427 0.0
H5379 H 0.47658 0.77626 0.30721 0.0
H5380 H 0.05931 0.75978 0.05595 0.0
H5381 H 0.06099 0.72556 0.04263 0.0
H5382 H 0.07497 0.71971 0.09945 0.0
H5383 H 0.07501 0.75438 0.1123 0.0
H5384 H 0.09234 0.70148 0.07911 0.0
H5385 H 0.02952 0.70022 0.06885 0.0
H5386 H 0.00392 0.70973 0.05541 0.0
H5387 H 0.01777 0.69018 0.99867 0.0
H5388 H 0.04354 0.68077 0.01179 0.0
H5389 H 0.06126 0.59835 0.07103 0.0
H5390 H 0.06776 0.63444 0.07701 0.0
H5391 H 0.0639 0.6305 0.01634 0.0
H5392 H 0.05687 0.59405 0.01031 0.0
H5393 H 0.0439 0.65375 0.03387 0.0
H5394 H 0.10925 0.66127 0.04521 0.0
H5395 H 0.13624 0.65474 0.05925 0.0
H5396 H 0.11587 0.66122 0.11404 0.0
H5397 H 0.08928 0.66892 0.10054 0.0
C5398 C 0.06299 0.75118 0.06548 0.0
C5399 C 0.06717 0.75975 0.08513 0.0
C5400 C 0.06367 0.73146 0.05791 0.0
C5401 C 0.06762 0.71955 0.06998 0.0
C5402 C 0.07192 0.72834 0.08965 0.0
C5403 C 0.07195 0.74823 0.09706 0.0
C5404 C 0.0676 0.6981 0.06248 0.0
C5405 C 0.08154 0.69114 0.06939 0.0
C5406 C 0.05404 0.68435 0.0491 0.0
C5407 C 0.03855 0.69003 0.04131 0.0
C5408 C 0.02715 0.69808 0.05352 0.0
C5409 C 0.01261 0.70343 0.04595 0.0
C5410 C 0.00926 0.70062 0.0262 0.0
C5411 C 0.0204 0.69239 0.01396 0.0
C5412 C 0.03496 0.68704 0.02145 0.0
C5413 C 0.06228 0.60519 0.05894 0.0
C5414 C 0.05874 0.59335 0.04022 0.0
C5415 C 0.06613 0.6259 0.06238 0.0
C5416 C 0.06664 0.63539 0.04716 0.0
C5417 C 0.06373 0.62361 0.02835 0.0
C5418 C 0.05985 0.60277 0.02489 0.0
C5419 C 0.06824 0.65729 0.05115 0.0
C5420 C 0.05466 0.66427 0.04351 0.0
C5421 C 0.08196 0.67109 0.06401 0.0
C5422 C 0.09725 0.66528 0.07184 0.0
C5423 C 0.11052 0.66113 0.06021 0.0
C5424 C 0.12579 0.65741 0.06811 0.0
C5425 C 0.12763 0.65724 0.08744 0.0
C5426 C 0.11438 0.66121 0.09904 0.0
C5427 C 0.09932 0.66547 0.09134 0.0
H5428 H 0.1394 0.65418 0.09346 0.0
H5429 H 0.998 0.70478 0.02038 0.0
H5430 H 0.06475 0.23238 0.87419 0.0
H5431 H 0.09393 0.24083 0.86283 0.0
H5432 H 0.10287 0.3008 0.89661 0.0
H5433 H 0.07344 0.29247 0.90803 0.0
H5434 H 0.11159 0.29996 0.86022 0.0
H5435 H 0.12537 0.26974 0.90995 0.0
H5436 H 0.12091 0.24378 0.92826 0.0
H5437 H 0.12787 0.20114 0.8788 0.0
H5438 H 0.13215 0.2268 0.86013 0.0
H5439 H 0.19835 0.32519 0.83398 0.0
H5440 H 0.17477 0.31906 0.85495 0.0
H5441 H 0.16147 0.25669 0.82707 0.0
H5442 H 0.1856 0.26279 0.80664 0.0
H5443 H 0.15639 0.2609 0.86379 0.0
H5444 H 0.13973 0.29023 0.81349 0.0
H5445 H 0.14375 0.3159 0.79484 0.0
H5446 H 0.14155 0.36001 0.84529 0.0
H5447 H 0.13781 0.33462 0.86429 0.0
C5448 C 0.07293 0.24736 0.87937 0.0
C5449 C 0.06669 0.26173 0.89206 0.0
C5450 C 0.0897 0.25214 0.87289 0.0
C5451 C 0.10073 0.27141 0.87896 0.0
C5452 C 0.09463 0.28582 0.89174 0.0
C5453 C 0.07782 0.28101 0.89831 0.0
C5454 C 0.11829 0.27654 0.87131 0.0
C5455 C 0.12153 0.29168 0.86135 0.0
C5456 C 0.13117 0.26551 0.87238 0.0
C5457 C 0.12897 0.25015 0.88363 0.0
C5458 C 0.12586 0.2548 0.90296 0.0
C5459 C 0.12338 0.24014 0.91341 0.0
C5460 C 0.12408 0.22081 0.90469 0.0
C5461 C 0.12733 0.21612 0.88553 0.0
C5462 C 0.12982 0.23072 0.87502 0.0
C5463 C 0.19064 0.31012 0.8327 0.0
C5464 C 0.19371 0.29445 0.81872 0.0
C5465 C 0.17708 0.30662 0.84457 0.0
C5466 C 0.16597 0.28747 0.84231 0.0
C5467 C 0.16976 0.27161 0.82908 0.0
C5468 C 0.18355 0.27507 0.81742 0.0
C5469 C 0.14962 0.28421 0.85253 0.0
C5470 C 0.14656 0.26937 0.86289 0.0
C5471 C 0.13685 0.29547 0.85179 0.0
C5472 C 0.13866 0.3106 0.84031 0.0
C5473 C 0.14018 0.30543 0.8206 0.0
C5474 C 0.14242 0.31992 0.80998 0.0
C5475 C 0.14294 0.33958 0.81888 0.0
C5476 C 0.14117 0.34478 0.83842 0.0
C5477 C 0.13898 0.33035 0.84912 0.0
H5478 H 0.14469 0.35079 0.81064 0.0
H5479 H 0.12212 0.20948 0.91279 0.0
H5480 H 0.56879 0.77978 0.93744 0.0
H5481 H 0.57263 0.75988 0.95973 0.0
H5482 H 0.6069 0.73243 0.92319 0.0
H5483 H 0.60234 0.75203 0.90004 0.0
H5484 H 0.57893 0.70625 0.92877 0.0
H5485 H 0.62148 0.75979 0.97192 0.0
H5486 H 0.63279 0.79451 0.99015 0.0
H5487 H 0.58632 0.78998 0.02046 0.0
H5488 H 0.57466 0.75537 0.00233 0.0
H5489 H 0.55781 0.63819 0.98717 0.0
H5490 H 0.57399 0.6611 0.97017 0.0
H5491 H 0.55391 0.70821 0.0033 0.0
H5492 H 0.54018 0.68625 0.02272 0.0
H5493 H 0.58451 0.72315 0.99953 0.0
H5494 H 0.53749 0.67844 0.95316 0.0
H5495 H 0.52022 0.64662 0.93256 0.0
H5496 H 0.56712 0.63745 0.90658 0.0
H5497 H 0.58468 0.6691 0.92716 0.0
C5498 C 0.57753 0.76988 0.93433 0.0
C5499 C 0.58493 0.76701 0.91686 0.0
C5500 C 0.57999 0.75874 0.9473 0.0
C5501 C 0.59024 0.74481 0.94326 0.0
C5502 C 0.59906 0.74325 0.92659 0.0
C5503 C 0.59646 0.7544 0.91343 0.0
C5504 C 0.58834 0.7294 0.95428 0.0
C5505 C 0.58065 0.70979 0.94427 0.0
C5506 C 0.58993 0.73425 0.97447 0.0
C5507 C 0.59727 0.75491 0.98582 0.0
C5508 C 0.61369 0.7662 0.98249 0.0
C5509 C 0.62015 0.78588 0.99279 0.0
C5510 C 0.6103 0.79443 0.00647 0.0
C5511 C 0.59398 0.78332 0.00992 0.0
C5512 C 0.58748 0.76365 0.99969 0.0
C5513 C 0.55727 0.65356 0.99149 0.0
C5514 C 0.54782 0.66029 0.0068 0.0
C5515 C 0.56621 0.66658 0.98123 0.0
C5516 C 0.56498 0.68635 0.98515 0.0
C5517 C 0.55518 0.69302 1.00002 0.0
C5518 C 0.54699 0.68027 0.01094 0.0
C5519 C 0.57395 0.70029 0.97401 0.0
C5520 C 0.58317 0.71945 0.98403 0.0
C5521 C 0.57291 0.6953 0.95378 0.0
C5522 C 0.56244 0.67595 0.94192 0.0
C5523 C 0.54414 0.66951 0.94321 0.0
C5524 C 0.5343 0.65154 0.9315 0.0
C5525 C 0.54258 0.63998 0.91833 0.0
C5526 C 0.56073 0.64637 0.91683 0.0
C5527 C 0.57063 0.66431 0.92852 0.0
H5528 H 0.53493 0.62609 0.90925 0.0
H5529 H 0.6153 0.80968 0.01439 0.0
H5530 H 0.04235 0.73315 0.68122 0.0
H5531 H 0.07103 0.72862 0.69131 0.0
H5532 H 0.09505 0.7905 0.69481 0.0
H5533 H 0.06619 0.79523 0.68449 0.0
H5534 H 0.11515 0.76644 0.67801 0.0
H5535 H 0.08639 0.77601 0.73483 0.0
H5536 H 0.06334 0.77139 0.75694 0.0
H5537 H 0.06588 0.71078 0.75125 0.0
H5538 H 0.08875 0.71494 0.72887 0.0
H5539 H 0.19006 0.77308 0.74236 0.0
H5540 H 0.1645 0.77611 0.72362 0.0
H5541 H 0.14034 0.71377 0.71733 0.0
H5542 H 0.16617 0.71048 0.73591 0.0
H5543 H 0.1208 0.73845 0.73465 0.0
H5544 H 0.15244 0.73157 0.67867 0.0
H5545 H 0.17686 0.73926 0.65876 0.0
H5546 H 0.17055 0.79869 0.66565 0.0
H5547 H 0.14629 0.79148 0.68585 0.0
C5548 C 0.05372 0.74582 0.68404 0.0
C5549 C 0.05207 0.7646 0.68221 0.0
C5550 C 0.07006 0.7432 0.68987 0.0
C5551 C 0.08496 0.75931 0.69408 0.0
C5552 C 0.08356 0.77796 0.69168 0.0
C5553 C 0.06715 0.78061 0.68579 0.0
C5554 C 0.10197 0.7565 0.70104 0.0
C5555 C 0.11653 0.76056 0.69053 0.0
C5556 C 0.1035 0.74856 0.71721 0.0
C5557 C 0.08914 0.74573 0.72997 0.0
C5558 C 0.08185 0.76161 0.73806 0.0
C5559 C 0.06886 0.75909 0.75071 0.0
C5560 C 0.06311 0.74079 0.75545 0.0
C5561 C 0.07031 0.72494 0.74753 0.0
C5562 C 0.08328 0.72737 0.73486 0.0
C5563 C 0.17956 0.75985 0.73653 0.0
C5564 C 0.18002 0.74152 0.74065 0.0
C5565 C 0.16502 0.76162 0.72574 0.0
C5566 C 0.15072 0.74512 0.71899 0.0
C5567 C 0.15141 0.72661 0.72238 0.0
C5568 C 0.166 0.7248 0.73315 0.0
C5569 C 0.13394 0.74798 0.71142 0.0
C5570 C 0.11941 0.74411 0.72198 0.0
C5571 C 0.13264 0.75651 0.6956 0.0
C5572 C 0.14763 0.76102 0.68394 0.0
C5573 C 0.1564 0.74636 0.67615 0.0
C5574 C 0.17019 0.75061 0.66475 0.0
C5575 C 0.17528 0.76946 0.66097 0.0
C5576 C 0.16662 0.7841 0.6686 0.0
C5577 C 0.15285 0.77993 0.68002 0.0
H5578 H 0.18591 0.7727 0.65209 0.0
H5579 H 0.05311 0.7389 0.76531 0.0
H5580 H 0.08044 0.34666 0.4346 0.0
H5581 H 0.08749 0.38146 0.45188 0.0
H5582 H 0.10522 0.39935 0.40108 0.0
H5583 H 0.09889 0.36434 0.38387 0.0
H5584 H 0.12071 0.4273 0.44357 0.0
H5585 H 0.06698 0.39674 0.39749 0.0
H5586 H 0.04357 0.36657 0.3826 0.0
H5587 H 0.02703 0.36202 0.43784 0.0
H5588 H 0.05046 0.39208 0.45302 0.0
H5589 H 0.08339 0.51348 0.46863 0.0
H5590 H 0.09272 0.48512 0.44948 0.0
H5591 H 0.06737 0.44799 0.48545 0.0
H5592 H 0.05769 0.47585 0.50398 0.0
H5593 H 0.0581 0.43219 0.44611 0.0
H5594 H 0.11008 0.46211 0.49217 0.0
H5595 H 0.13371 0.49129 0.50875 0.0
H5596 H 0.15367 0.49708 0.45517 0.0
H5597 H 0.12999 0.46801 0.43824 0.0
C5598 C 0.08646 0.358 0.42737 0.0
C5599 C 0.08871 0.35309 0.40789 0.0
C5600 C 0.09075 0.37779 0.43729 0.0
C5601 C 0.0967 0.3928 0.42762 0.0
C5602 C 0.1008 0.38786 0.40874 0.0
C5603 C 0.09694 0.36795 0.3989 0.0
C5604 C 0.09319 0.41223 0.43519 0.0
C5605 C 0.10711 0.42862 0.44379 0.0
C5606 C 0.07539 0.41369 0.43552 0.0
C5607 C 0.0604 0.39663 0.42635 0.0
C5608 C 0.05826 0.38935 0.40642 0.0
C5609 C 0.04504 0.37225 0.39794 0.0
C5610 C 0.03381 0.3624 0.40927 0.0
C5611 C 0.0357 0.36971 0.42908 0.0
C5612 C 0.0489 0.38681 0.43762 0.0
C5613 C 0.08007 0.49928 0.47248 0.0
C5614 C 0.07041 0.49686 0.48813 0.0
C5615 C 0.08537 0.48321 0.46162 0.0
C5616 C 0.08081 0.46467 0.46627 0.0
C5617 C 0.07111 0.4623 0.48184 0.0
C5618 C 0.06592 0.47829 0.49266 0.0
C5619 C 0.08559 0.44735 0.45472 0.0
C5620 C 0.07178 0.43121 0.4454 0.0
C5621 C 0.10345 0.44628 0.45376 0.0
C5622 C 0.11825 0.46298 0.46395 0.0
C5623 C 0.11952 0.46961 0.48393 0.0
C5624 C 0.1329 0.48613 0.49339 0.0
C5625 C 0.14516 0.49605 0.48301 0.0
C5626 C 0.14416 0.48937 0.46317 0.0
C5627 C 0.13078 0.47285 0.45364 0.0
H5628 H 0.15544 0.5089 0.49035 0.0
H5629 H 0.02365 0.3491 0.40269 0.0
H5630 H 0.4798 0.27806 0.22516 0.0
H5631 H 0.45297 0.27777 0.2412 0.0
H5632 H 0.42193 0.23777 0.19074 0.0
H5633 H 0.44881 0.2397 0.17413 0.0
H5634 H 0.41128 0.26913 0.19846 0.0
H5635 H 0.42441 0.22649 0.23848 0.0
H5636 H 0.44383 0.21636 0.26043 0.0
H5637 H 0.45107 0.27264 0.30036 0.0
H5638 H 0.43176 0.28312 0.27862 0.0
H5639 H 0.32951 0.27078 0.23479 0.0
H5640 H 0.35598 0.26423 0.22115 0.0
H5641 H 0.38751 0.29742 0.27414 0.0
H5642 H 0.36017 0.30009 0.28882 0.0
H5643 H 0.39768 0.26801 0.26473 0.0
H5644 H 0.38968 0.31313 0.22355 0.0
H5645 H 0.37333 0.32563 0.20058 0.0
H5646 H 0.35814 0.26732 0.16342 0.0
H5647 H 0.37498 0.25471 0.18575 0.0
C5648 C 0.46729 0.26863 0.21784 0.0
C5649 C 0.46605 0.25901 0.19857 0.0
C5650 C 0.45197 0.2683 0.22704 0.0
C5651 C 0.43542 0.25766 0.21719 0.0
C5652 C 0.43458 0.24613 0.19854 0.0
C5653 C 0.44983 0.24715 0.18909 0.0
C5654 C 0.4191 0.26193 0.22466 0.0
C5655 C 0.4081 0.26849 0.21286 0.0
C5656 C 0.41545 0.26208 0.24368 0.0
C5657 C 0.42669 0.25557 0.25691 0.0
C5658 C 0.43017 0.23669 0.25193 0.0
C5659 C 0.44115 0.2309 0.26434 0.0
C5660 C 0.44869 0.24385 0.28177 0.0
C5661 C 0.4452 0.2626 0.28688 0.0
C5662 C 0.43419 0.26845 0.27455 0.0
C5663 C 0.3422 0.27689 0.24334 0.0
C5664 C 0.34314 0.28661 0.26255 0.0
C5665 C 0.35742 0.27353 0.23542 0.0
C5666 C 0.37399 0.281 0.24628 0.0
C5667 C 0.37492 0.29159 0.26537 0.0
C5668 C 0.35945 0.29357 0.27369 0.0
C5669 C 0.38989 0.27549 0.23861 0.0
C5670 C 0.4008 0.26868 0.25034 0.0
C5671 C 0.39368 0.27543 0.21959 0.0
C5672 C 0.38335 0.28298 0.2064 0.0
C5673 C 0.38274 0.30301 0.21053 0.0
C5674 C 0.37347 0.3101 0.1976 0.0
C5675 C 0.36447 0.29722 0.18073 0.0
C5676 C 0.36502 0.27727 0.17654 0.0
C5677 C 0.37457 0.27019 0.18922 0.0
H5678 H 0.35719 0.30273 0.17083 0.0
H5679 H 0.45723 0.23935 0.29133 0.0
H5680 H 0.6091 0.50939 0.30535 0.0
H5681 H 0.59481 0.51015 0.3348 0.0
H5682 H 0.6458 0.52151 0.36673 0.0
H5683 H 0.65994 0.51899 0.33675 0.0
H5684 H 0.62552 0.50123 0.38437 0.0
H5685 H 0.61529 0.55847 0.36309 0.0
H5686 H 0.60443 0.57541 0.34023 0.0
H5687 H 0.55178 0.53861 0.33753 0.0
H5688 H 0.56238 0.52132 0.36021 0.0
H5689 H 0.59529 0.53677 0.47572 0.0
H5690 H 0.60916 0.53374 0.44567 0.0
H5691 H 0.55765 0.50968 0.41402 0.0
H5692 H 0.54379 0.51243 0.44397 0.0
H5693 H 0.57755 0.53628 0.39667 0.0
H5694 H 0.58585 0.47914 0.41584 0.0
H5695 H 0.59396 0.46199 0.43992 0.0
H5696 H 0.64759 0.49749 0.44666 0.0
H5697 H 0.63974 0.51483 0.42258 0.0
C5698 C 0.6174 0.51226 0.31862 0.0
C5699 C 0.63589 0.51447 0.31835 0.0
C5700 C 0.60912 0.51292 0.33579 0.0
C5701 C 0.61897 0.51672 0.3538 0.0
C5702 C 0.63751 0.51875 0.35348 0.0
C5703 C 0.64575 0.51745 0.33615 0.0
C5704 C 0.61004 0.51824 0.37264 0.0
C5705 C 0.61529 0.50929 0.38696 0.0
C5706 C 0.59601 0.52799 0.3766 0.0
C5707 C 0.58965 0.53853 0.36319 0.0
C5708 C 0.60141 0.55397 0.35756 0.0
C5709 C 0.5953 0.56362 0.34463 0.0
C5710 C 0.57743 0.55806 0.3374 0.0
C5711 C 0.56561 0.54288 0.34312 0.0
C5712 C 0.57166 0.53317 0.35602 0.0
C5713 C 0.58681 0.53063 0.46243 0.0
C5714 C 0.56818 0.52472 0.46274 0.0
C5715 C 0.59485 0.52888 0.44505 0.0
C5716 C 0.58466 0.52137 0.42709 0.0
C5717 C 0.56608 0.51556 0.42737 0.0
C5718 C 0.55806 0.51703 0.44476 0.0
C5719 C 0.59331 0.51966 0.40823 0.0
C5720 C 0.58793 0.52845 0.39399 0.0
C5721 C 0.60703 0.50963 0.40425 0.0
C5722 C 0.6122 0.49835 0.41758 0.0
C5723 C 0.59939 0.4832 0.42242 0.0
C5724 C 0.60392 0.47346 0.43605 0.0
C5725 C 0.62125 0.47868 0.44486 0.0
C5726 C 0.63417 0.49343 0.43981 0.0
C5727 C 0.6297 0.50318 0.42612 0.0
H5728 H 0.62457 0.47134 0.45566 0.0
H5729 H 0.57274 0.56554 0.32738 0.0
H5730 H 0.30713 0.92336 0.08491 0.0
H5731 H 0.3031 0.90264 0.1082 0.0
H5732 H 0.3246 0.85925 0.07133 0.0
H5733 H 0.3297 0.88058 0.0485 0.0
H5734 H 0.28682 0.85566 0.1024 0.0
H5735 H 0.35206 0.86566 0.09087 0.0
H5736 H 0.38029 0.88719 0.0857 0.0
H5737 H 0.37626 0.93158 0.13514 0.0
H5738 H 0.34766 0.91054 0.14016 0.0
H5739 H 0.31698 0.80235 0.16646 0.0
H5740 H 0.30601 0.81613 0.14135 0.0
H5741 H 0.3277 0.87543 0.17602 0.0
H5742 H 0.33909 0.86167 0.20087 0.0
H5743 H 0.34276 0.86931 0.1443 0.0
H5744 H 0.28289 0.85876 0.16073 0.0
H5745 H 0.25359 0.84118 0.1676 0.0
H5746 H 0.24639 0.80083 0.1125 0.0
H5747 H 0.27574 0.81813 0.10533 0.0
C5748 C 0.31055 0.90915 0.08162 0.0
C5749 C 0.31878 0.90343 0.06517 0.0
C5750 C 0.30827 0.89741 0.09485 0.0
C5751 C 0.31387 0.87974 0.09145 0.0
C5752 C 0.32056 0.8731 0.07419 0.0
C5753 C 0.32336 0.88514 0.06121 0.0
C5754 C 0.31475 0.86977 0.10702 0.0
C5755 C 0.29905 0.85819 0.11145 0.0
C5756 C 0.33064 0.8739 0.119 0.0
C5757 C 0.34747 0.88681 0.11551 0.0
C5758 C 0.35696 0.88022 0.10033 0.0
C5759 C 0.37308 0.89229 0.09749 0.0
C5760 C 0.37999 0.91082 0.10999 0.0
C5761 C 0.37081 0.91731 0.12536 0.0
C5762 C 0.35461 0.90536 0.12815 0.0
C5763 C 0.31884 0.81829 0.16891 0.0
C5764 C 0.32913 0.83107 0.18526 0.0
C5765 C 0.31246 0.82612 0.15466 0.0
C5766 C 0.31616 0.84676 0.15684 0.0
C5767 C 0.3248 0.85944 0.1741 0.0
C5768 C 0.33138 0.85163 0.18819 0.0
C5769 C 0.31473 0.85499 0.13998 0.0
C5770 C 0.33044 0.86637 0.13527 0.0
C5771 C 0.29881 0.85071 0.12792 0.0
C5772 C 0.28162 0.83959 0.1326 0.0
C5773 C 0.27518 0.84595 0.15019 0.0
C5774 C 0.25851 0.8361 0.1541 0.0
C5775 C 0.24814 0.81985 0.14053 0.0
C5776 C 0.25444 0.8134 0.12302 0.0
C5777 C 0.27109 0.82324 0.11901 0.0
H5778 H 0.23521 0.8123 0.14357 0.0
H5779 H 0.39253 0.92009 0.10784 0.0
H5780 H 0.94477 0.57514 0.85236 0.0
H5781 H 0.9605 0.56742 0.87822 0.0
H5782 H 0.98502 0.53023 0.83785 0.0
H5783 H 0.96836 0.53729 0.81116 0.0
H5784 H 0.96813 0.51752 0.87639 0.0
H5785 H 0.01132 0.56829 0.85305 0.0
H5786 H 0.01753 0.59919 0.84155 0.0
H5787 H 1.00087 0.63012 0.89294 0.0
H5788 H 0.9944 0.59936 0.90461 0.0
H5789 H 0.03589 0.52511 0.95089 0.0
H5790 H 0.02091 0.5234 0.91967 0.0
H5791 H 0.99758 0.57101 0.94555 0.0
H5792 H 0.01234 0.57243 0.9769 0.0
H5793 H 0.01559 0.57532 0.91187 0.0
H5794 H 0.9717 0.53257 0.93619 0.0
H5795 H 0.95918 0.50532 0.9514 0.0
H5796 H 0.96911 0.4629 0.90346 0.0
H5797 H 0.98219 0.49002 0.88816 0.0
C5798 C 0.95327 0.56505 0.84879 0.0
C5799 C 0.9553 0.55671 0.82972 0.0
C5800 C 0.96218 0.56063 0.86364 0.0
C5801 C 0.97369 0.54819 0.8598 0.0
C5802 C 0.97593 0.53971 0.84086 0.0
C5803 C 0.96672 0.54398 0.82576 0.0
C5804 C 0.98456 0.54628 0.87605 0.0
C5805 C 0.979 0.52973 0.88385 0.0
C5806 C 0.99772 0.56295 0.88631 0.0
C5807 C 0.00243 0.58159 0.87967 0.0
C5808 C 0.00901 0.5817 0.86187 0.0
C5809 C 0.01255 0.59918 0.85532 0.0
C5810 C 0.0096 0.61661 0.86651 0.0
C5811 C 0.00319 0.61663 0.88431 0.0
C5812 C 0.99963 0.5992 0.89091 0.0
C5813 C 0.02782 0.53541 0.94971 0.0
C5814 C 0.0255 0.5493 0.9658 0.0
C5815 C 0.01914 0.53423 0.93209 0.0
C5816 C 0.00823 0.54705 0.93057 0.0
C5817 C 0.00604 0.56107 0.94667 0.0
C5818 C 0.01447 0.56198 0.96437 0.0
C5819 C 0.99963 0.54631 0.91195 0.0
C5820 C 0.00536 0.5626 0.904 0.0
C5821 C 0.98612 0.52978 0.90208 0.0
C5822 C 0.97827 0.51338 0.91118 0.0
C5823 C 0.9715 0.51747 0.92901 0.0
C5824 C 0.96424 0.50205 0.93763 0.0
C5825 C 0.96343 0.4824 0.92845 0.0
C5826 C 0.96982 0.47815 0.91059 0.0
C5827 C 0.97719 0.49355 0.90194 0.0
H5828 H 0.95778 0.47046 0.93513 0.0
H5829 H 0.0123 0.63011 0.86138 0.0
H5830 H 0.28044 0.22789 0.55441 0.0
H5831 H 0.276 0.24181 0.58772 0.0
H5832 H 0.3301 0.24353 0.60537 0.0
H5833 H 0.33486 0.23055 0.57223 0.0
H5834 H 0.28807 0.21947 0.6193 0.0
H5835 H 0.33613 0.27948 0.61494 0.0
H5836 H 0.34601 0.30705 0.59921 0.0
H5837 H 0.29818 0.32595 0.61065 0.0
H5838 H 0.28778 0.29803 0.6259 0.0
H5839 H 0.3075 0.24139 0.71588 0.0
H5840 H 0.30849 0.23749 0.68211 0.0
H5841 H 0.28911 0.29007 0.68457 0.0
H5842 H 0.29236 0.29666 0.71969 0.0
H5843 H 0.30735 0.28876 0.65818 0.0
H5844 H 0.26126 0.23423 0.66772 0.0
H5845 H 0.24861 0.20603 0.68188 0.0
H5846 H 0.28821 0.17651 0.65979 0.0
H5847 H 0.30094 0.20432 0.64531 0.0
C5848 C 0.29145 0.23163 0.56539 0.0
C5849 C 0.30803 0.2283 0.56075 0.0
C5850 C 0.28894 0.23967 0.58432 0.0
C5851 C 0.30289 0.24423 0.59886 0.0
C5852 C 0.31938 0.24083 0.59424 0.0
C5853 C 0.32204 0.23328 0.57533 0.0
C5854 C 0.29972 0.24984 0.61916 0.0
C5855 C 0.29223 0.2346 0.62787 0.0
C5856 C 0.30458 0.26964 0.63007 0.0
C5857 C 0.31102 0.28644 0.62114 0.0
C5858 C 0.32758 0.28927 0.61376 0.0
C5859 C 0.3333 0.30501 0.605 0.0
C5860 C 0.32268 0.31818 0.60382 0.0
C5861 C 0.30635 0.31567 0.61147 0.0
C5862 C 0.30052 0.29988 0.62012 0.0
C5863 C 0.3034 0.25225 0.7094 0.0
C5864 C 0.29884 0.26884 0.72057 0.0
C5865 C 0.30357 0.24968 0.68979 0.0
C5866 C 0.29748 0.26247 0.68025 0.0
C5867 C 0.29329 0.27947 0.69135 0.0
C5868 C 0.29462 0.28299 0.71142 0.0
C5869 C 0.2963 0.25815 0.65888 0.0
C5870 C 0.30283 0.2736 0.64979 0.0
C5871 C 0.29021 0.23844 0.64745 0.0
C5872 C 0.28202 0.22135 0.65545 0.0
C5873 C 0.26721 0.22169 0.66585 0.0
C5874 C 0.26006 0.2058 0.67396 0.0
C5875 C 0.26767 0.18958 0.67185 0.0
C5876 C 0.28232 0.18907 0.66141 0.0
C5877 C 0.28942 0.20481 0.65313 0.0
H5878 H 0.26219 0.17737 0.67825 0.0
H5879 H 0.32715 0.33038 0.59706 0.0
H5880 H 0.6512 0.52106 0.19909 0.0
H5881 H 0.6393 0.52722 0.16926 0.0
H5882 H 0.5864 0.49933 0.17932 0.0
H5883 H 0.59813 0.49311 0.20872 0.0
H5884 H 0.58702 0.48907 0.14316 0.0
H5885 H 0.60289 0.55163 0.18641 0.0
H5886 H 0.6216 0.58047 0.20982 0.0
H5887 H 0.65722 0.59211 0.16759 0.0
H5888 H 0.63885 0.5631 0.14398 0.0
H5889 H 0.54301 0.5267 0.07279 0.0
H5890 H 0.55361 0.52191 0.1039 0.0
H5891 H 0.60768 0.54045 0.0915 0.0
H5892 H 0.59716 0.54478 0.06055 0.0
H5893 H 0.60513 0.55569 0.12931 0.0
H5894 H 0.58549 0.49105 0.0856 0.0
H5895 H 0.56334 0.46384 0.06383 0.0
H5896 H 0.53058 0.45787 0.1096 0.0
H5897 H 0.55236 0.48538 0.13156 0.0
C5898 C 0.63706 0.51604 0.1949 0.0
C5899 C 0.62582 0.5065 0.20674 0.0
C5900 C 0.63012 0.51975 0.17774 0.0
C5901 C 0.61166 0.51403 0.17162 0.0
C5902 C 0.6006 0.50404 0.18321 0.0
C5903 C 0.60746 0.5005 0.20032 0.0
C5904 C 0.60375 0.51863 0.15357 0.0
C5905 C 0.59096 0.50376 0.14037 0.0
C5906 C 0.60841 0.53773 0.14938 0.0
C5907 C 0.61963 0.55504 0.1635 0.0
C5908 C 0.61482 0.56022 0.18217 0.0
C5909 C 0.62534 0.57661 0.19547 0.0
C5910 C 0.64062 0.58808 0.19022 0.0
C5911 C 0.6454 0.58317 0.17165 0.0
C5912 C 0.63494 0.56676 0.15829 0.0
C5913 C 0.55715 0.53018 0.07687 0.0
C5914 C 0.56917 0.5364 0.064 0.0
C5915 C 0.56329 0.52721 0.0947 0.0
C5916 C 0.58165 0.53055 0.1004 0.0
C5917 C 0.59352 0.53764 0.08785 0.0
C5918 C 0.58743 0.54021 0.07001 0.0
C5919 C 0.5887 0.52608 0.11883 0.0
C5920 C 0.60128 0.541 0.13211 0.0
C5921 C 0.58347 0.50717 0.12332 0.0
C5922 C 0.5705 0.49042 0.11019 0.0
C5923 C 0.57351 0.48404 0.091 0.0
C5924 C 0.56101 0.46856 0.07862 0.0
C5925 C 0.54555 0.45915 0.08532 0.0
C5926 C 0.54255 0.46519 0.10442 0.0
C5927 C 0.55497 0.48074 0.11684 0.0
H5928 H 0.5359 0.44715 0.07572 0.0
H5929 H 0.64871 0.60081 0.20051 0.0
H5930 H 0.30544 0.90474 0.97677 0.0
H5931 H 0.30169 0.88269 0.94491 0.0
H5932 H 0.35803 0.88726 0.94778 0.0
H5933 H 0.36197 0.90933 0.97955 0.0
H5934 H 0.34388 0.89268 0.91365 0.0
H5935 H 0.33079 0.84658 0.95455 0.0
H5936 H 0.31492 0.83279 0.97933 0.0
H5937 H 0.26533 0.82066 0.94499 0.0
H5938 H 0.28088 0.83469 0.92014 0.0
H5939 H 0.33923 0.81845 0.82863 0.0
H5940 H 0.34601 0.83771 0.8619 0.0
H5941 H 0.28995 0.82783 0.86824 0.0
H5942 H 0.28334 0.80866 0.83548 0.0
H5943 H 0.3057 0.82397 0.89871 0.0
H5944 H 0.31401 0.87581 0.86407 0.0
H5945 H 0.32568 0.89365 0.8398 0.0
H5946 H 0.379 0.89663 0.86083 0.0
H5947 H 0.36757 0.87939 0.88572 0.0
C5948 C 0.31704 0.90106 0.97063 0.0
C5949 C 0.334 0.90871 0.98071 0.0
C5950 C 0.31485 0.88841 0.95249 0.0
C5951 C 0.32957 0.88324 0.94418 0.0
C5952 C 0.34652 0.89104 0.95406 0.0
C5953 C 0.34872 0.90358 0.97222 0.0
C5954 C 0.32738 0.86998 0.92498 0.0
C5955 C 0.33581 0.87751 0.91044 0.0
C5956 C 0.31631 0.8505 0.92074 0.0
C5957 C 0.307 0.84182 0.93556 0.0
C5958 C 0.31649 0.8411 0.95235 0.0
C5959 C 0.30755 0.83323 0.9664 0.0
C5960 C 0.28912 0.82589 0.96375 0.0
C5961 C 0.2796 0.82636 0.94703 0.0
C5962 C 0.28847 0.83426 0.93295 0.0
C5963 C 0.32843 0.82022 0.83729 0.0
C5964 C 0.31075 0.81154 0.82969 0.0
C5965 C 0.33228 0.83132 0.85619 0.0
C5966 C 0.31847 0.83426 0.86754 0.0
C5967 C 0.30084 0.82553 0.85989 0.0
C5968 C 0.29705 0.81432 0.84117 0.0
C5969 C 0.32214 0.8467 0.88729 0.0
C5970 C 0.31399 0.83903 0.90195 0.0
C5971 C 0.33299 0.86628 0.89158 0.0
C5972 C 0.33997 0.87614 0.8765 0.0
C5973 C 0.32821 0.88017 0.8634 0.0
C5974 C 0.33478 0.89021 0.84958 0.0
C5975 C 0.35306 0.89602 0.84857 0.0
C5976 C 0.36483 0.89204 0.86157 0.0
C5977 C 0.35833 0.88227 0.87562 0.0
H5978 H 0.35811 0.90373 0.83779 0.0
H5979 H 0.28223 0.8198 0.97465 0.0
H5980 H 0.90635 0.51394 0.72354 0.0
H5981 H 0.9303 0.50156 0.70865 0.0
H5982 H 0.96874 0.54921 0.74705 0.0
H5983 H 0.94473 0.56184 0.76171 0.0
H5984 H 0.96418 0.55374 0.7102 0.0
H5985 H 0.97608 0.50281 0.73956 0.0
H5986 H 0.96849 0.47254 0.75197 0.0
H5987 H 0.94308 0.43879 0.6968 0.0
H5988 H 0.95048 0.46887 0.68409 0.0
H5989 H 0.03076 0.54454 0.64786 0.0
H5990 H 0.01262 0.54775 0.67472 0.0
H5991 H 0.9746 0.49359 0.64564 0.0
H5992 H 0.9932 0.4901 0.61907 0.0
H5993 H 0.98159 0.49214 0.68055 0.0
H5994 H 0.96469 0.5398 0.65143 0.0
H5995 H 0.96682 0.56883 0.63738 0.0
H5996 H 0.99527 0.60726 0.68939 0.0
H5997 H 0.99345 0.57843 0.70368 0.0
C5998 C 0.91992 0.52108 0.7295 0.0
C5999 C 0.92382 0.53896 0.74351 0.0
C6000 C 0.93362 0.51389 0.72111 0.0
C6001 C 0.95127 0.52469 0.72657 0.0
C6002 C 0.95517 0.54068 0.7427 0.0
C6003 C 0.94144 0.54786 0.75113 0.0
C6004 C 0.96394 0.52384 0.71199 0.0
C6005 C 0.96854 0.54047 0.70412 0.0
C6006 C 0.96846 0.50612 0.70329 0.0
C6007 C 0.96376 0.48809 0.71093 0.0
C6008 C 0.96876 0.48895 0.73013 0.0
C6009 C 0.96454 0.47182 0.73719 0.0
C6010 C 0.95528 0.45376 0.72519 0.0
C6011 C 0.95026 0.45278 0.70608 0.0
C6012 C 0.95451 0.46985 0.69893 0.0
C6013 C 0.0184 0.53352 0.64723 0.0
C6014 C 0.01322 0.5171 0.63168 0.0
C6015 C 0.00803 0.53537 0.66245 0.0
C6016 C 0.99222 0.52094 0.66213 0.0
C6017 C 0.9868 0.50481 0.6462 0.0
C6018 C 0.9973 0.50286 0.63107 0.0
C6019 C 0.98194 0.52214 0.67889 0.0
C6020 C 0.97764 0.50556 0.68695 0.0
C6021 C 0.97708 0.53973 0.68745 0.0
C6022 C 0.97917 0.55693 0.67851 0.0
C6023 C 0.97165 0.55441 0.65976 0.0
C6024 C 0.97272 0.57084 0.65179 0.0
C6025 C 0.98123 0.58987 0.66246 0.0
C6026 C 0.98873 0.59251 0.68112 0.0
C6027 C 0.98768 0.57614 0.68916 0.0
H6028 H 0.98198 0.60258 0.65629 0.0
H6029 H 0.952 0.44052 0.7307 0.0
H6030 H 0.28477 0.20518 0.44926 0.0
H6031 H 0.28679 0.21788 0.42027 0.0
H6032 H 0.32245 0.27244 0.45184 0.0
H6033 H 0.32105 0.25952 0.48081 0.0
H6034 H 0.29298 0.27411 0.42253 0.0
H6035 H 0.34234 0.24604 0.43224 0.0
H6036 H 0.35731 0.22052 0.43782 0.0
H6037 H 0.3299 0.18059 0.38603 0.0
H6038 H 0.31436 0.20569 0.38042 0.0
H6039 H 0.32533 0.31001 0.34538 0.0
H6040 H 0.3258 0.30015 0.37527 0.0
H6041 H 0.30463 0.23899 0.34538 0.0
H6042 H 0.30541 0.24875 0.31494 0.0
H6043 H 0.32751 0.24162 0.37475 0.0
H6044 H 0.27788 0.26943 0.36491 0.0
H6045 H 0.26386 0.29547 0.35849 0.0
H6046 H 0.292 0.3359 0.40965 0.0
H6047 H 0.30645 0.31027 0.41619 0.0
C6048 C 0.29255 0.22014 0.45018 0.0
C6049 C 0.30268 0.23145 0.46726 0.0
C6050 C 0.29383 0.22726 0.43359 0.0
C6051 C 0.30493 0.24593 0.434 0.0
C6052 C 0.31388 0.25795 0.45135 0.0
C6053 C 0.31298 0.25063 0.46785 0.0
C6054 C 0.30817 0.25223 0.41604 0.0
C6055 C 0.30067 0.26719 0.41214 0.0
C6056 C 0.31799 0.24291 0.40247 0.0
C6057 C 0.32688 0.22759 0.40615 0.0
C6058 C 0.3392 0.23167 0.42226 0.0
C6059 C 0.34786 0.21731 0.42538 0.0
C6060 C 0.34448 0.19889 0.41235 0.0
C6061 C 0.33243 0.19481 0.39617 0.0
C6062 C 0.32367 0.20908 0.39304 0.0
C6063 C 0.32152 0.29446 0.34484 0.0
C6064 C 0.31551 0.28032 0.32754 0.0
C6065 C 0.32144 0.28881 0.36215 0.0
C6066 C 0.31476 0.26892 0.36259 0.0
C6067 C 0.30967 0.2545 0.34535 0.0
C6068 C 0.31009 0.26014 0.32796 0.0
C6069 C 0.31212 0.26335 0.38103 0.0
C6070 C 0.31977 0.24854 0.38508 0.0
C6071 C 0.30235 0.27275 0.39468 0.0
C6072 C 0.29336 0.28799 0.39095 0.0
C6073 C 0.28114 0.28391 0.37473 0.0
C6074 C 0.27313 0.29859 0.37106 0.0
C6075 C 0.27706 0.31731 0.38363 0.0
C6076 C 0.28898 0.32139 0.39992 0.0
C6077 C 0.29709 0.3068 0.40361 0.0
H6078 H 0.27085 0.32865 0.38076 0.0
H6079 H 0.35126 0.18782 0.41475 0.0
H6080 H 0.30565 0.57989 0.5239 0.0
H6081 H 0.33306 0.56933 0.52494 0.0
H6082 H 0.36281 0.63042 0.54444 0.0
H6083 H 0.33528 0.64119 0.5426 0.0
H6084 H 0.37483 0.61283 0.51358 0.0
H6085 H 0.36144 0.59588 0.57285 0.0
H6086 H 0.34121 0.58132 0.5942 0.0
H6087 H 0.33322 0.52354 0.5567 0.0
H6088 H 0.35319 0.53778 0.53499 0.0
H6089 H 0.45054 0.57239 0.50212 0.0
H6090 H 0.42948 0.59052 0.51623 0.0
H6091 H 0.38801 0.53621 0.50253 0.0
H6092 H 0.40926 0.5177 0.48978 0.0
H6093 H 0.38637 0.55592 0.53708 0.0
H6094 H 0.39371 0.5723 0.47563 0.0
H6095 H 0.41058 0.58563 0.45122 0.0
H6096 H 0.42728 0.64298 0.49004 0.0
H6097 H 0.41074 0.62988 0.51481 0.0
C6098 C 0.31792 0.59107 0.52913 0.0
C6099 C 0.31836 0.61136 0.53298 0.0
C6100 C 0.33364 0.585 0.52974 0.0
C6101 C 0.35 0.5991 0.53483 0.0
C6102 C 0.35032 0.61933 0.54041 0.0
C6103 C 0.33458 0.62544 0.53947 0.0
C6104 C 0.36661 0.59272 0.53179 0.0
C6105 C 0.37768 0.60077 0.51915 0.0
C6106 C 0.37003 0.57669 0.53872 0.0
C6107 C 0.35886 0.56791 0.55232 0.0
C6108 C 0.3554 0.58006 0.56918 0.0
C6109 C 0.34394 0.57187 0.58132 0.0
C6110 C 0.33594 0.55152 0.57681 0.0
C6111 C 0.33946 0.53929 0.5602 0.0
C6112 C 0.35089 0.54741 0.54801 0.0
C6113 C 0.43699 0.56423 0.50235 0.0
C6114 C 0.4316 0.54353 0.49492 0.0
C6115 C 0.42494 0.57468 0.51023 0.0
C6116 C 0.40719 0.56472 0.51034 0.0
C6117 C 0.4017 0.54416 0.50266 0.0
C6118 C 0.4138 0.53364 0.49511 0.0
C6119 C 0.39413 0.57554 0.51832 0.0
C6120 C 0.38383 0.56837 0.53195 0.0
C6121 C 0.39125 0.59219 0.51207 0.0
C6122 C 0.40119 0.60004 0.49716 0.0
C6123 C 0.40111 0.5877 0.47902 0.0
C6124 C 0.4106 0.59522 0.46511 0.0
C6125 C 0.42005 0.61512 0.4691 0.0
C6126 C 0.42 0.62755 0.48699 0.0
C6127 C 0.41058 0.62009 0.50097 0.0
H6128 H 0.42737 0.62092 0.4583 0.0
H6129 H 0.32701 0.54522 0.58619 0.0
H6130 H 0.86279 0.91069 0.55395 0.0
H6131 H 0.89336 0.92925 0.55349 0.0
H6132 H 0.87503 0.96262 0.51683 0.0
H6133 H 0.84438 0.94417 0.51727 0.0
H6134 H 0.90504 0.95025 0.50547 0.0
H6135 H 0.88484 0.983 0.56275 0.0
H6136 H 0.87218 0.98549 0.59367 0.0
H6137 H 0.91492 0.96571 0.61658 0.0
H6138 H 0.92767 0.96276 0.58568 0.0
H6139 H 0.98074 0.03175 0.51852 0.0
H6140 H 0.95028 0.01334 0.5206 0.0
H6141 H 0.97074 0.97626 0.55147 0.0
H6142 H 0.00123 0.99427 0.5488 0.0
H6143 H 0.94 0.99033 0.56623 0.0
H6144 H 0.9603 0.9576 0.5095 0.0
H6145 H 0.97294 0.95421 0.47857 0.0
H6146 H 0.93002 0.97289 0.45459 0.0
H6147 H 0.91738 0.97694 0.48556 0.0
C6148 C 0.86527 0.9218 0.54559 0.0
C6149 C 0.85117 0.92599 0.53566 0.0
C6150 C 0.88274 0.93249 0.54546 0.0
C6151 C 0.88642 0.94747 0.53533 0.0
C6152 C 0.87245 0.95116 0.5248 0.0
C6153 C 0.85496 0.94061 0.52506 0.0
C6154 C 0.90482 0.95952 0.53591 0.0
C6155 C 0.91259 0.95922 0.51872 0.0
C6156 C 0.91482 0.97081 0.55328 0.0
C6157 C 0.90709 0.97243 0.57183 0.0
C6158 C 0.89144 0.97897 0.57432 0.0
C6159 C 0.88426 0.9805 0.59185 0.0
C6160 C 0.89271 0.9757 0.60707 0.0
C6161 C 0.90836 0.96938 0.60478 0.0
C6162 C 0.91557 0.96778 0.58725 0.0
C6163 C 0.97864 0.01992 0.52607 0.0
C6164 C 0.99312 0.01441 0.53367 0.0
C6165 C 0.96132 0.00938 0.52715 0.0
C6166 C 0.95832 0.99343 0.53612 0.0
C6167 C 0.97282 0.98856 0.54453 0.0
C6168 C 0.99015 0.99879 0.54303 0.0
C6169 C 0.94011 0.98115 0.53578 0.0
C6170 C 0.9324 0.98137 0.55299 0.0
C6171 C 0.93018 0.96972 0.51844 0.0
C6172 C 0.93802 0.96785 0.49995 0.0
C6173 C 0.95371 0.96131 0.49774 0.0
C6174 C 0.96084 0.95918 0.48017 0.0
C6175 C 0.95227 0.96329 0.46462 0.0
C6176 C 0.93664 0.9697 0.46665 0.0
C6177 C 0.9295 0.97195 0.48422 0.0
H6178 H 0.95775 0.96151 0.45099 0.0
H6179 H 0.88715 0.97692 0.62064 0.0
H6180 H 0.90606 0.12589 0.25727 0.0
H6181 H 0.8911 0.15228 0.25438 0.0
H6182 H 0.86922 0.14869 0.3077 0.0
H6183 H 0.88347 0.12224 0.31022 0.0
H6184 H 0.84526 0.15474 0.28944 0.0
H6185 H 0.90563 0.19019 0.29764 0.0
H6186 H 0.93706 0.19929 0.2916 0.0
H6187 H 0.92163 0.2064 0.23609 0.0
H6188 H 0.89007 0.19712 0.24171 0.0
H6189 H 0.81782 0.24763 0.30682 0.0
H6190 H 0.83124 0.21955 0.30652 0.0
H6191 H 0.84464 0.22002 0.2493 0.0
H6192 H 0.83095 0.24805 0.24962 0.0
H6193 H 0.87273 0.21547 0.26826 0.0
H6194 H 0.8113 0.1696 0.2608 0.0
H6195 H 0.78145 0.15552 0.26938 0.0
H6196 H 0.80164 0.1701 0.32851 0.0
H6197 H 0.83169 0.18359 0.32014 0.0
C6198 C 0.89797 0.13056 0.26835 0.0
C6199 C 0.89616 0.12131 0.28395 0.0
C6200 C 0.88944 0.14608 0.26682 0.0
C6201 C 0.8788 0.15331 0.2809 0.0
C6202 C 0.87702 0.14391 0.29635 0.0
C6203 C 0.88539 0.12848 0.29782 0.0
C6204 C 0.86908 0.16993 0.27967 0.0
C6205 C 0.85163 0.16807 0.28503 0.0
C6206 C 0.87658 0.18771 0.27371 0.0
C6207 C 0.89547 0.19269 0.26999 0.0
C6208 C 0.90893 0.19346 0.28405 0.0
C6209 C 0.92677 0.19871 0.28073 0.0
C6210 C 0.93134 0.20335 0.26345 0.0
C6211 C 0.91807 0.20275 0.24945 0.0
C6212 C 0.9002 0.1975 0.25269 0.0
C6213 C 0.8231 0.2414 0.29389 0.0
C6214 C 0.82253 0.25004 0.27802 0.0
C6215 C 0.83092 0.22509 0.2937 0.0
C6216 C 0.8391 0.21681 0.27779 0.0
C6217 C 0.83855 0.22553 0.26189 0.0
C6218 C 0.83043 0.24164 0.26197 0.0
C6219 C 0.849 0.20018 0.27815 0.0
C6220 C 0.86648 0.20208 0.27264 0.0
C6221 C 0.84181 0.18264 0.28454 0.0
C6222 C 0.82355 0.17794 0.28991 0.0
C6223 C 0.80926 0.1701 0.27565 0.0
C6224 C 0.79241 0.1619 0.28044 0.0
C6225 C 0.78969 0.16181 0.29947 0.0
C6226 C 0.80377 0.17013 0.31378 0.0
C6227 C 0.82071 0.17797 0.30902 0.0
H6228 H 0.77662 0.15549 0.30313 0.0
H6229 H 0.94516 0.20748 0.26093 0.0
H6230 H 0.71977 0.11312 0.9689 0.0
H6231 H 0.69507 0.11358 0.9889 0.0
H6232 H 0.72194 0.0909 0.02947 0.0
H6233 H 0.74649 0.09037 0.00957 0.0
H6234 H 0.68927 0.06567 0.00493 0.0
H6235 H 0.71163 0.12769 0.05016 0.0
H6236 H 0.72436 0.16381 0.0614 0.0
H6237 H 0.67972 0.17513 0.03244 0.0
H6238 H 0.66682 0.13916 0.02088 0.0
H6239 H 0.60222 0.03371 0.02338 0.0
H6240 H 0.63401 0.04719 0.03121 0.0
H6241 H 0.62939 0.101 0.0149 0.0
H6242 H 0.59716 0.08854 0.0103 0.0
H6243 H 0.65514 0.11149 0.03799 0.0
H6244 H 0.63896 0.05385 0.98337 0.0
H6245 H 0.62612 0.01865 0.96722 0.0
H6246 H 0.65858 1.0006 0.00644 0.0
H6247 H 0.67135 0.03561 0.02295 0.0
C6248 C 0.72057 0.10881 0.98237 0.0
C6249 C 0.73496 0.10174 0.98778 0.0
C6250 C 0.70668 0.10943 0.99394 0.0
C6251 C 0.70691 0.10264 0.01082 0.0
C6252 C 0.72178 0.09671 0.01677 0.0
C6253 C 0.73572 0.09629 0.00533 0.0
C6254 C 0.68994 0.09593 0.01843 0.0
C6255 C 0.6819 0.07562 0.01257 0.0
C6256 C 0.68036 0.10906 0.02793 0.0
C6257 C 0.68833 0.1307 0.03452 0.0
C6258 C 0.70463 0.13788 0.04602 0.0
C6259 C 0.71184 0.15833 0.05251 0.0
C6260 C 0.70288 0.17172 0.04756 0.0
C6261 C 0.68665 0.16473 0.03623 0.0
C6262 C 0.67938 0.14432 0.02974 0.0
C6263 C 0.60801 0.0486 0.02203 0.0
C6264 C 0.59739 0.06033 0.01678 0.0
C6265 C 0.62624 0.05624 0.02621 0.0
C6266 C 0.63438 0.07489 0.023 0.0
C6267 C 0.62361 0.08664 0.01769 0.0
C6268 C 0.60522 0.07948 0.01483 0.0
C6269 C 0.65395 0.08135 0.02309 0.0
C6270 C 0.66255 0.10147 0.03061 0.0
C6271 C 0.66395 0.06825 0.01415 0.0
C6272 C 0.65598 0.04725 0.00444 0.0
C6273 C 0.64325 0.04232 0.98857 0.0
C6274 C 0.63598 0.02242 0.97938 0.0
C6275 C 0.64154 0.0074 0.98579 0.0
C6276 C 0.65425 0.01221 1.0015 0.0
C6277 C 0.6615 0.03207 0.01078 0.0
H6278 H 0.63612 0.99204 0.97848 0.0
H6279 H 0.70852 0.18751 0.05243 0.0
H6280 H 0.19767 0.46977 0.22216 0.0
H6281 H 0.2178 0.44816 0.22297 0.0
H6282 H 0.26155 0.49961 0.24332 0.0
H6283 H 0.24138 0.52119 0.24302 0.0
H6284 H 0.27132 0.46365 0.22412 0.0
H6285 H 0.23955 0.49081 0.27571 0.0
H6286 H 0.21329 0.49824 0.29077 0.0
H6287 H 0.18776 0.43598 0.27813 0.0
H6288 H 0.21385 0.42822 0.26278 0.0
H6289 H 0.30956 0.44248 0.31184 0.0
H6290 H 0.29693 0.45893 0.29011 0.0
H6291 H 0.26389 0.40244 0.25904 0.0
H6292 H 0.27608 0.38589 0.28104 0.0
H6293 H 0.24971 0.43934 0.28051 0.0
H6294 H 0.28225 0.42712 0.21187 0.0
H6295 H 0.31092 0.42425 0.19976 0.0
H6296 H 0.33862 0.46471 0.25116 0.0
H6297 H 0.3101 0.46767 0.26349 0.0
C6298 C 0.21177 0.47641 0.22557 0.0
C6299 C 0.21813 0.49691 0.23288 0.0
C6300 C 0.22322 0.46409 0.22605 0.0
C6301 C 0.24093 0.47246 0.23359 0.0
C6302 C 0.24786 0.49304 0.2375 0.0
C6303 C 0.23637 0.50532 0.23737 0.0
C6304 C 0.25044 0.46087 0.24266 0.0
C6305 C 0.26657 0.45808 0.23629 0.0
C6306 C 0.24436 0.45437 0.25896 0.0
C6307 C 0.22846 0.45897 0.2677 0.0
C6308 C 0.22822 0.47873 0.27586 0.0
C6309 C 0.2134 0.483 0.28452 0.0
C6310 C 0.1988 0.4676 0.28524 0.0
C6311 C 0.19903 0.4479 0.27742 0.0
C6312 C 0.21382 0.44356 0.26873 0.0
C6313 C 0.29978 0.43358 0.3002 0.0
C6314 C 0.2937 0.41301 0.29804 0.0
C6315 C 0.29292 0.4429 0.28759 0.0
C6316 C 0.28022 0.43167 0.27252 0.0
C6317 C 0.27428 0.4111 0.27017 0.0
C6318 C 0.2811 0.40176 0.28278 0.0
C6319 C 0.2705 0.44177 0.26178 0.0
C6320 C 0.25429 0.44441 0.26802 0.0
C6321 C 0.27687 0.44881 0.24591 0.0
C6322 C 0.29407 0.44679 0.23897 0.0
C6323 C 0.29449 0.43512 0.22069 0.0
C6324 C 0.3107 0.43356 0.21374 0.0
C6325 C 0.3266 0.44407 0.2248 0.0
C6326 C 0.3263 0.45626 0.24276 0.0
C6327 C 0.3101 0.4577 0.24982 0.0
H6328 H 0.33915 0.44294 0.21937 0.0
H6329 H 0.18735 0.47094 0.29198 0.0
H6330 H 0.26621 0.45692 0.05317 0.0
H6331 H 0.23932 0.46746 0.04742 0.0
H6332 H 0.21187 0.40702 0.02039 0.0
H6333 H 0.23915 0.39629 0.02574 0.0
H6334 H 0.20442 0.43141 1.0 0.0
H6335 H 0.20249 0.42962 0.0651 0.0
H6336 H 0.21369 0.43553 0.09894 0.0
H6337 H 0.2244 0.49854 0.10429 0.0
H6338 H 0.2135 0.49301 0.07041 0.0
H6339 H 0.12681 0.47091 0.9961 0.0
H6340 H 0.14604 0.45053 0.00494 0.0
H6341 H 0.18777 0.50353 0.02728 0.0
H6342 H 0.16877 0.52378 0.01836 0.0
H6343 H 0.18295 0.47665 0.05114 0.0
H6344 H 0.1886 0.47705 0.98424 0.0
H6345 H 0.17723 0.47042 0.95037 0.0
H6346 H 0.1584 0.4084 0.94894 0.0
H6347 H 0.16943 0.41474 0.98293 0.0
C6348 C 0.25447 0.44576 0.04609 0.0
C6349 C 0.25486 0.42572 0.03997 0.0
C6350 C 0.23901 0.45183 0.04292 0.0
C6351 C 0.22342 0.438 0.03379 0.0
C6352 C 0.2237 0.41794 0.02758 0.0
C6353 C 0.23928 0.41183 0.03068 0.0
C6354 C 0.20722 0.44494 0.03013 0.0
C6355 C 0.19944 0.44089 0.01128 0.0
C6356 C 0.20073 0.45744 0.04478 0.0
C6357 C 0.20726 0.46089 0.06518 0.0
C6358 C 0.20734 0.44474 0.07346 0.0
C6359 C 0.21362 0.44802 0.09265 0.0
C6360 C 0.21978 0.4674 0.10375 0.0
C6361 C 0.21963 0.48354 0.09568 0.0
C6362 C 0.21337 0.48034 0.07649 0.0
C6363 C 0.14002 0.47815 0.00309 0.0
C6364 C 0.14639 0.49888 0.00645 0.0
C6365 C 0.15099 0.46653 0.00805 0.0
C6366 C 0.16835 0.47554 0.01666 0.0
C6367 C 0.17442 0.49629 0.02065 0.0
C6368 C 0.16361 0.50783 0.01547 0.0
C6369 C 0.18065 0.4636 0.02101 0.0
C6370 C 0.18767 0.46675 0.03998 0.0
C6371 C 0.18631 0.45015 0.00652 0.0
C6372 C 0.17959 0.44641 0.98617 0.0
C6373 C 0.18186 0.46204 0.97676 0.0
C6374 C 0.17551 0.45833 0.95753 0.0
C6375 C 0.16704 0.43902 0.94753 0.0
C6376 C 0.16492 0.42336 0.95673 0.0
C6377 C 0.17121 0.427 0.97597 0.0
H6378 H 0.16216 0.43617 0.93263 0.0
H6379 H 0.22464 0.46991 0.11861 0.0
H6380 H 0.90005 0.01385 0.3098 0.0
H6381 H 0.88575 0.97837 0.30362 0.0
H6382 H 0.87439 0.97692 0.24425 0.0
H6383 H 0.8895 0.01264 0.25027 0.0
H6384 H 0.84361 0.95713 0.26575 0.0
H6385 H 0.90283 0.95581 0.25015 0.0
H6386 H 0.93548 0.96528 0.25596 0.0
H6387 H 0.93265 0.94238 0.30646 0.0
H6388 H 0.89994 0.93301 0.30109 0.0
H6389 H 0.80721 0.85154 0.24437 0.0
H6390 H 0.82223 0.88556 0.24363 0.0
H6391 H 0.86014 0.88743 0.28998 0.0
H6392 H 0.84618 0.85299 0.28938 0.0
H6393 H 0.87777 0.90766 0.27198 0.0
H6394 H 0.81966 0.91203 0.29076 0.0
H6395 H 0.78692 0.90371 0.28723 0.0
H6396 H 0.78718 0.92202 0.23425 0.0
H6397 H 0.81993 0.93028 0.23738 0.0
C6398 C 0.89455 0.00609 0.29535 0.0
C6399 C 0.89596 0.01641 0.28059 0.0
C6400 C 0.88634 0.98563 0.29183 0.0
C6401 C 0.87877 0.97467 0.27347 0.0
C6402 C 0.88001 0.98487 0.2586 0.0
C6403 C 0.88874 0.00536 0.26204 0.0
C6404 C 0.86972 0.9527 0.27015 0.0
C6405 C 0.85111 0.94625 0.26681 0.0
C6406 C 0.87925 0.93835 0.27209 0.0
C6407 C 0.89892 0.94389 0.27532 0.0
C6408 C 0.90916 0.95296 0.26259 0.0
C6409 C 0.92768 0.95827 0.26578 0.0
C6410 C 0.93614 0.95448 0.2816 0.0
C6411 C 0.92608 0.94532 0.29422 0.0
C6412 C 0.90755 0.93999 0.2911 0.0
C6413 C 0.81877 0.85918 0.2544 0.0
C6414 C 0.82522 0.84923 0.26706 0.0
C6415 C 0.82735 0.87898 0.25417 0.0
C6416 C 0.8423 0.89 0.26719 0.0
C6417 C 0.84876 0.87985 0.27969 0.0
C6418 C 0.84057 0.85989 0.27945 0.0
C6419 C 0.85134 0.91177 0.26788 0.0
C6420 C 0.87007 0.91833 0.27084 0.0
C6421 C 0.84186 0.92631 0.26597 0.0
C6422 C 0.82222 0.92161 0.26423 0.0
C6423 C 0.81272 0.91423 0.27834 0.0
C6424 C 0.79417 0.90952 0.27641 0.0
C6425 C 0.78498 0.91229 0.26051 0.0
C6426 C 0.79432 0.91985 0.24654 0.0
C6427 C 0.81287 0.92457 0.2484 0.0
H6428 H 0.77062 0.90859 0.25902 0.0
H6429 H 0.95048 0.95861 0.28405 0.0
H6430 H 0.72799 0.07295 0.74664 0.0
H6431 H 0.74313 0.1058 0.74231 0.0
H6432 H 0.70592 0.13187 0.77525 0.0
H6433 H 0.69079 0.09893 0.77959 0.0
H6434 H 0.7132 0.14494 0.74065 0.0
H6435 H 0.74414 0.13689 0.79764 0.0
H6436 H 0.76016 0.11893 0.81521 0.0
H6437 H 0.79925 0.12009 0.77496 0.0
H6438 H 0.78334 0.13795 0.7571 0.0
H6439 H 0.7532 0.24609 0.77383 0.0
H6440 H 0.73793 0.21117 0.76472 0.0
H6441 H 0.7878 0.19623 0.75272 0.0
H6442 H 0.80325 0.23104 0.76558 0.0
H6443 H 0.77459 0.17478 0.77141 0.0
H6444 H 0.74429 0.18376 0.71398 0.0
H6445 H 0.72699 0.19968 0.69516 0.0
H6446 H 0.68715 0.19661 0.73437 0.0
H6447 H 0.70383 0.18012 0.75297 0.0
C6448 C 0.72317 0.08579 0.75296 0.0
C6449 C 0.70855 0.08384 0.76364 0.0
C6450 C 0.7317 0.10438 0.75043 0.0
C6451 C 0.72559 0.12108 0.75853 0.0
C6452 C 0.71071 0.11903 0.76889 0.0
C6453 C 0.70222 0.10041 0.7715 0.0
C6454 C 0.73527 0.14086 0.757 0.0
C6455 C 0.72666 0.15161 0.74729 0.0
C6456 C 0.7529 0.1491 0.76519 0.0
C6457 C 0.76247 0.13849 0.77595 0.0
C6458 C 0.75608 0.13317 0.79248 0.0
C6459 C 0.76515 0.12305 0.8025 0.0
C6460 C 0.78067 0.1183 0.79616 0.0
C6461 C 0.7872 0.12374 0.77984 0.0
C6462 C 0.77819 0.13388 0.76978 0.0
C6463 C 0.76075 0.23524 0.76895 0.0
C6464 C 0.77923 0.24102 0.76964 0.0
C6465 C 0.75197 0.21526 0.76324 0.0
C6466 C 0.76149 0.20082 0.75725 0.0
C6467 C 0.78003 0.20696 0.75712 0.0
C6468 C 0.7889 0.22684 0.76411 0.0
C6469 C 0.75273 0.17947 0.75478 0.0
C6470 C 0.76142 0.16823 0.764 0.0
C6471 C 0.73521 0.17076 0.74588 0.0
C6472 C 0.72541 0.181 0.73494 0.0
C6473 C 0.73191 0.18665 0.71861 0.0
C6474 C 0.72218 0.19564 0.70795 0.0
C6475 C 0.70615 0.19938 0.71371 0.0
C6476 C 0.69961 0.1938 0.72996 0.0
C6477 C 0.70909 0.18446 0.74045 0.0
H6478 H 0.69873 0.20648 0.70551 0.0
H6479 H 0.78767 0.11044 0.80392 0.0
loop_
_geom_bond_atom_site_label_1
_geom_bond_atom_site_label_2
_geom_bond_distance
_geom_bond_site_symmetry_2
_ccdc_geom_bond_type
Mg0 O1 2.028 . S
Mg0 O7 1.986 . S
Mg0 O9 2.114 . S
Mg0 O10 2.251 . S
Mg0 O13 2.010 . S
O1 Mg0 2.028 . S
O1 C4 1.250 . S
O2 Mg3 2.028 . S
O2 C4 1.248 . S
Mg3 O2 2.028 . S
Mg3 O8 2.032 . S
Mg3 O10 2.079 . S
C4 O1 1.250 . S
C4 O2 1.248 . S
C5 O6 1.264 . S
C5 O13 1.249 . S
O6 C5 1.264 . S
O7 Mg0 1.986 . S
O7 C11 1.246 . S
O8 Mg3 2.032 . S
O8 C11 1.259 . S
O9 Mg0 2.114 . S
O9 C12 1.252 . S
O10 Mg0 2.251 . S
O10 Mg3 2.079 . S
O10 C12 1.273 . S
C11 O7 1.246 . S
C11 O8 1.259 . S
C12 O9 1.252 . S
C12 O10 1.273 . S
O13 Mg0 2.010 . S
O13 C5 1.249 . S
Mg14 O15 2.028 . S
Mg14 O21 1.986 . S
Mg14 O23 2.114 1_455 S
Mg14 O24 2.251 1_455 S
Mg14 O27 2.010 . S
O15 Mg14 2.028 . S
O15 C18 1.250 1_455 S
O16 Mg17 2.028 . S
O16 C18 1.248 . S
Mg17 O16 2.028 . S
Mg17 O22 2.032 . S
Mg17 O24 2.079 . S
C18 O15 1.250 1_655 S
C18 O16 1.248 . S
C19 O20 1.264 . S
C19 O27 1.249 . S
O20 C19 1.264 . S
O21 Mg14 1.986 . S
O21 C25 1.246 1_455 S
O22 Mg17 2.032 . S
O22 C25 1.259 . S
O23 Mg14 2.114 1_655 S
O23 C26 1.252 . S
O24 Mg14 2.251 1_655 S
O24 Mg17 2.079 . S
O24 C26 1.273 . S
C25 O21 1.246 1_655 S
C25 O22 1.259 . S
C26 O23 1.252 . S
C26 O24 1.273 . S
O27 Mg14 2.010 . S
O27 C19 1.249 . S
Mg28 O29 2.028 . S
Mg28 O35 1.986 . S
Mg28 O37 2.114 . S
Mg28 O38 2.251 . S
Mg28 O41 2.010 . S
O29 Mg28 2.028 . S
O29 C32 1.250 . S
O30 Mg31 2.028 . S
O30 C32 1.248 . S
Mg31 O30 2.028 . S
Mg31 O36 2.032 . S
Mg31 O38 2.079 . S
C32 O29 1.250 . S
C32 O30 1.248 . S
C33 O34 1.264 . S
C33 O41 1.249 . S
O34 C33 1.264 . S
O35 Mg28 1.986 . S
O35 C39 1.246 . S
O36 Mg31 2.032 . S
O36 C39 1.259 . S
O37 Mg28 2.114 . S
O37 C40 1.252 . S
O38 Mg28 2.251 . S
O38 Mg31 2.079 . S
O38 C40 1.273 . S
C39 O35 1.246 . S
C39 O36 1.259 . S
C40 O37 1.252 . S
C40 O38 1.273 . S
O41 Mg28 2.010 . S
O41 C33 1.249 . S
Mg42 O43 2.028 . S
Mg42 O49 1.986 . S
Mg42 O51 2.114 . S
Mg42 O52 2.251 . S
Mg42 O55 2.010 . S
O43 Mg42 2.028 . S
O43 C46 1.250 . S
O44 Mg45 2.028 . S
O44 C46 1.248 . S
Mg45 O44 2.028 . S
Mg45 O50 2.032 . S
Mg45 O52 2.079 . S
C46 O43 1.250 . S
C46 O44 1.248 . S
C47 O48 1.264 . S
C47 O55 1.249 . S
O48 C47 1.264 . S
O49 Mg42 1.986 . S
O49 C53 1.246 . S
O50 Mg45 2.032 . S
O50 C53 1.259 . S
O51 Mg42 2.114 . S
O51 C54 1.252 . S
O52 Mg42 2.251 . S
O52 Mg45 2.079 . S
O52 C54 1.273 . S
C53 O49 1.246 . S
C53 O50 1.259 . S
C54 O51 1.252 . S
C54 O52 1.273 . S
O55 Mg42 2.010 . S
O55 C47 1.249 . S
Mg56 O57 2.028 . S
Mg56 O63 1.986 . S
Mg56 O65 2.114 . S
Mg56 O66 2.251 . S
Mg56 O69 2.010 . S
O57 Mg56 2.028 . S
O57 C60 1.250 . S
O58 Mg59 2.028 . S
O58 C60 1.248 . S
Mg59 O58 2.028 . S
Mg59 O64 2.032 . S
Mg59 O66 2.079 . S
C60 O57 1.250 . S
C60 O58 1.248 . S
C61 O62 1.264 . S
C61 O69 1.249 . S
O62 C61 1.264 . S
O63 Mg56 1.986 . S
O63 C67 1.246 . S
O64 Mg59 2.032 . S
O64 C67 1.259 . S
O65 Mg56 2.114 . S
O65 C68 1.252 . S
O66 Mg56 2.251 . S
O66 Mg59 2.079 . S
O66 C68 1.273 . S
C67 O63 1.246 . S
C67 O64 1.259 . S
C68 O65 1.252 . S
C68 O66 1.273 . S
O69 Mg56 2.010 . S
O69 C61 1.249 . S
Mg70 O71 2.028 . S
Mg70 O77 1.986 . S
Mg70 O79 2.114 . S
Mg70 O80 2.251 . S
Mg70 O83 2.010 . S
O71 Mg70 2.028 . S
O71 C74 1.250 . S
O72 Mg73 2.028 . S
O72 C74 1.248 . S
Mg73 O72 2.028 . S
Mg73 O78 2.032 . S
Mg73 O80 2.079 . S
C74 O71 1.250 . S
C74 O72 1.248 . S
C75 O76 1.264 . S
C75 O83 1.249 . S
O76 C75 1.264 . S
O77 Mg70 1.986 . S
O77 C81 1.246 . S
O78 Mg73 2.032 . S
O78 C81 1.259 . S
O79 Mg70 2.114 . S
O79 C82 1.252 . S
O80 Mg70 2.251 . S
O80 Mg73 2.079 . S
O80 C82 1.273 . S
C81 O77 1.246 . S
C81 O78 1.259 . S
C82 O79 1.252 . S
C82 O80 1.273 . S
O83 Mg70 2.010 . S
O83 C75 1.249 . S
Mg84 O85 2.028 . S
Mg84 O91 1.986 . S
Mg84 O93 2.114 . S
Mg84 O94 2.251 . S
Mg84 O97 2.010 . S
O85 Mg84 2.028 . S
O85 C88 1.250 . S
O86 Mg87 2.028 . S
O86 C88 1.248 . S
Mg87 O86 2.028 . S
Mg87 O92 2.032 . S
Mg87 O94 2.079 . S
C88 O85 1.250 . S
C88 O86 1.248 . S
C89 O90 1.264 . S
C89 O97 1.249 . S
O90 C89 1.264 . S
O91 Mg84 1.986 . S
O91 C95 1.246 . S
O92 Mg87 2.032 . S
O92 C95 1.259 . S
O93 Mg84 2.114 . S
O93 C96 1.252 . S
O94 Mg84 2.251 . S
O94 Mg87 2.079 . S
O94 C96 1.273 . S
C95 O91 1.246 . S
C95 O92 1.259 . S
C96 O93 1.252 . S
C96 O94 1.273 . S
O97 Mg84 2.010 . S
O97 C89 1.249 . S
Mg98 O99 2.028 . S
Mg98 O105 1.986 . S
Mg98 O107 2.115 . S
Mg98 O108 2.251 1_455 S
Mg98 O111 2.010 . S
O99 Mg98 2.028 . S
O99 C102 1.250 . S
O100 Mg101 2.028 1_455 S
O100 C102 1.248 . S
Mg101 O100 2.028 1_655 S
Mg101 O106 2.032 . S
Mg101 O108 2.079 . S
C102 O99 1.250 . S
C102 O100 1.248 . S
C103 O104 1.264 . S
C103 O111 1.249 . S
O104 C103 1.264 . S
O105 Mg98 1.986 . S
O105 C109 1.246 . S
O106 Mg101 2.032 . S
O106 C109 1.259 1_655 S
O107 Mg98 2.115 . S
O107 C110 1.250 1_455 S
O108 Mg98 2.251 1_655 S
O108 Mg101 2.079 . S
O108 C110 1.273 . S
C109 O105 1.246 . S
C109 O106 1.259 1_455 S
C110 O107 1.250 1_655 S
C110 O108 1.273 . S
O111 Mg98 2.010 . S
O111 C103 1.249 . S
Mg112 O113 2.028 . S
Mg112 O119 1.986 . S
Mg112 O121 2.114 . S
Mg112 O122 2.251 . S
Mg112 O125 2.010 . S
O113 Mg112 2.028 . S
O113 C116 1.250 . S
O114 Mg115 2.028 . S
O114 C116 1.248 . S
Mg115 O114 2.028 . S
Mg115 O120 2.032 . S
Mg115 O122 2.079 . S
C116 O113 1.250 . S
C116 O114 1.248 . S
C117 O118 1.264 . S
C117 O125 1.249 . S
O118 C117 1.264 . S
O119 Mg112 1.986 . S
O119 C123 1.246 . S
O120 Mg115 2.032 . S
O120 C123 1.259 . S
O121 Mg112 2.114 . S
O121 C124 1.252 . S
O122 Mg112 2.251 . S
O122 Mg115 2.079 . S
O122 C124 1.273 . S
C123 O119 1.246 . S
C123 O120 1.259 . S
C124 O121 1.252 . S
C124 O122 1.273 . S
O125 Mg112 2.010 . S
O125 C117 1.249 . S
Mg126 O127 2.028 . S
Mg126 O133 1.986 . S
Mg126 O135 2.114 . S
Mg126 O136 2.251 . S
Mg126 O139 2.010 . S
O127 Mg126 2.028 . S
O127 C130 1.250 . S
O128 Mg129 2.028 . S
O128 C130 1.248 . S
Mg129 O128 2.028 . S
Mg129 O134 2.032 . S
Mg129 O136 2.079 . S
C130 O127 1.250 . S
C130 O128 1.248 . S
C131 O132 1.264 . S
C131 O139 1.249 . S
O132 C131 1.264 . S
O133 Mg126 1.986 . S
O133 C137 1.246 . S
O134 Mg129 2.032 . S
O134 C137 1.259 . S
O135 Mg126 2.114 . S
O135 C138 1.252 . S
O136 Mg126 2.251 . S
O136 Mg129 2.079 . S
O136 C138 1.273 . S
C137 O133 1.246 . S
C137 O134 1.259 . S
C138 O135 1.252 . S
C138 O136 1.273 . S
O139 Mg126 2.010 . S
O139 C131 1.249 . S
Mg140 O141 2.028 1_565 S
Mg140 O147 1.986 . S
Mg140 O149 2.114 1_565 S
Mg140 O150 2.251 . S
Mg140 O153 2.010 . S
O141 Mg140 2.028 1_545 S
O141 C144 1.250 . S
O142 Mg143 2.028 . S
O142 C144 1.248 . S
Mg143 O142 2.028 . S
Mg143 O148 2.032 1_545 S
Mg143 O150 2.079 1_545 S
C144 O141 1.250 . S
C144 O142 1.248 . S
C145 O146 1.264 . S
C145 O153 1.249 . S
O146 C145 1.264 . S
O147 Mg140 1.986 . S
O147 C151 1.246 . S
O148 Mg143 2.032 1_565 S
O148 C151 1.259 . S
O149 Mg140 2.114 1_545 S
O149 C152 1.252 . S
O150 Mg140 2.251 . S
O150 Mg143 2.079 1_565 S
O150 C152 1.273 1_565 S
C151 O147 1.246 . S
C151 O148 1.259 . S
C152 O149 1.252 . S
C152 O150 1.273 1_545 S
O153 Mg140 2.010 . S
O153 C145 1.249 . S
Mg154 O155 2.028 . S
Mg154 O161 1.986 . S
Mg154 O163 2.114 . S
Mg154 O164 2.251 . S
Mg154 O167 2.010 . S
O155 Mg154 2.028 . S
O155 C158 1.250 1_554 S
O156 Mg157 2.028 1_556 S
O156 C158 1.248 . S
Mg157 O156 2.028 1_554 S
Mg157 O162 2.032 . S
Mg157 O164 2.079 . S
C158 O155 1.250 1_556 S
C158 O156 1.248 . S
C159 O160 1.264 . S
C159 O167 1.249 . S
O160 C159 1.264 . S
O161 Mg154 1.986 . S
O161 C165 1.246 . S
O162 Mg157 2.032 . S
O162 C165 1.259 . S
O163 Mg154 2.114 . S
O163 C166 1.252 . S
O164 Mg154 2.251 . S
O164 Mg157 2.079 . S
O164 C166 1.273 . S
C165 O161 1.246 . S
C165 O162 1.259 . S
C166 O163 1.252 . S
C166 O164 1.273 . S
O167 Mg154 2.010 . S
O167 C159 1.249 . S
Mg168 O169 2.028 . S
Mg168 O175 1.986 . S
Mg168 O177 2.114 . S
Mg168 O178 2.251 . S
Mg168 O181 2.010 . S
O169 Mg168 2.028 . S
O169 C172 1.250 . S
O170 Mg171 2.028 . S
O170 C172 1.248 . S
Mg171 O170 2.028 . S
Mg171 O176 2.032 . S
Mg171 O178 2.079 . S
C172 O169 1.250 . S
C172 O170 1.248 . S
C173 O174 1.264 . S
C173 O181 1.249 . S
O174 C173 1.264 . S
O175 Mg168 1.986 . S
O175 C179 1.246 . S
O176 Mg171 2.032 . S
O176 C179 1.259 . S
O177 Mg168 2.114 . S
O177 C180 1.252 . S
O178 Mg168 2.251 . S
O178 Mg171 2.079 . S
O178 C180 1.273 . S
C179 O175 1.246 . S
C179 O176 1.259 . S
C180 O177 1.252 . S
C180 O178 1.273 . S
O181 Mg168 2.010 . S
O181 C173 1.249 . S
Mg182 O183 2.028 . S
Mg182 O189 1.986 1_554 S
Mg182 O191 2.114 . S
Mg182 O192 2.251 . S
Mg182 O195 2.010 . S
O183 Mg182 2.028 . S
O183 C186 1.250 . S
O184 Mg185 2.028 . S
O184 C186 1.248 . S
Mg185 O184 2.028 . S
Mg185 O190 2.032 . S
Mg185 O192 2.079 . S
C186 O183 1.250 . S
C186 O184 1.248 . S
C187 O188 1.264 1_554 S
C187 O195 1.249 . S
O188 C187 1.264 1_556 S
O189 Mg182 1.986 1_556 S
O189 C193 1.246 . S
O190 Mg185 2.032 . S
O190 C193 1.259 1_554 S
O191 Mg182 2.114 . S
O191 C194 1.252 . S
O192 Mg182 2.251 . S
O192 Mg185 2.079 . S
O192 C194 1.273 . S
C193 O189 1.246 . S
C193 O190 1.259 1_556 S
C194 O191 1.252 . S
C194 O192 1.273 . S
O195 Mg182 2.010 . S
O195 C187 1.249 . S
Mg196 O197 2.028 . S
Mg196 O203 1.986 . S
Mg196 O205 2.114 . S
Mg196 O206 2.251 . S
Mg196 O209 2.010 . S
O197 Mg196 2.028 . S
O197 C200 1.250 . S
O198 Mg199 2.028 . S
O198 C200 1.248 . S
Mg199 O198 2.028 . S
Mg199 O204 2.032 . S
Mg199 O206 2.079 . S
C200 O197 1.250 . S
C200 O198 1.248 . S
C201 O202 1.264 . S
C201 O209 1.249 . S
O202 C201 1.264 . S
O203 Mg196 1.986 . S
O203 C207 1.246 . S
O204 Mg199 2.032 . S
O204 C207 1.259 . S
O205 Mg196 2.114 . S
O205 C208 1.252 . S
O206 Mg196 2.251 . S
O206 Mg199 2.079 . S
O206 C208 1.273 . S
C207 O203 1.246 . S
C207 O204 1.259 . S
C208 O205 1.252 . S
C208 O206 1.273 . S
O209 Mg196 2.010 . S
O209 C201 1.249 . S
Mg210 O211 2.028 . S
Mg210 O217 1.986 . S
Mg210 O219 2.114 . S
Mg210 O220 2.251 . S
Mg210 O223 2.010 . S
O211 Mg210 2.028 . S
O211 C214 1.250 . S
O212 Mg213 2.028 . S
O212 C214 1.248 . S
Mg213 O212 2.028 . S
Mg213 O218 2.032 . S
Mg213 O220 2.079 . S
C214 O211 1.250 . S
C214 O212 1.248 . S
C215 O216 1.264 . S
C215 O223 1.249 . S
O216 C215 1.264 . S
O217 Mg210 1.986 . S
O217 C221 1.246 . S
O218 Mg213 2.032 . S
O218 C221 1.259 . S
O219 Mg210 2.114 . S
O219 C222 1.252 . S
O220 Mg210 2.251 . S
O220 Mg213 2.079 . S
O220 C222 1.273 . S
C221 O217 1.246 . S
C221 O218 1.259 . S
C222 O219 1.252 . S
C222 O220 1.273 . S
O223 Mg210 2.010 . S
O223 C215 1.249 . S
Mg224 O225 2.028 . S
Mg224 O231 1.986 . S
Mg224 O233 2.114 . S
Mg224 O234 2.251 . S
Mg224 O237 2.010 . S
O225 Mg224 2.028 . S
O225 C228 1.250 . S
O226 Mg227 2.028 . S
O226 C228 1.248 . S
Mg227 O226 2.028 . S
Mg227 O232 2.032 . S
Mg227 O234 2.079 . S
C228 O225 1.250 . S
C228 O226 1.248 . S
C229 O230 1.264 . S
C229 O237 1.249 . S
O230 C229 1.264 . S
O231 Mg224 1.986 . S
O231 C235 1.246 . S
O232 Mg227 2.032 . S
O232 C235 1.259 . S
O233 Mg224 2.114 . S
O233 C236 1.252 . S
O234 Mg224 2.251 . S
O234 Mg227 2.079 . S
O234 C236 1.273 . S
C235 O231 1.246 . S
C235 O232 1.259 . S
C236 O233 1.252 . S
C236 O234 1.273 . S
O237 Mg224 2.010 . S
O237 C229 1.249 . S
Mg238 O239 2.028 . S
Mg238 O245 1.986 . S
Mg238 O247 2.114 . S
Mg238 O248 2.251 . S
Mg238 O251 2.010 . S
O239 Mg238 2.028 . S
O239 C242 1.250 . S
O240 Mg241 2.028 . S
O240 C242 1.248 . S
Mg241 O240 2.028 . S
Mg241 O246 2.032 . S
Mg241 O248 2.079 . S
C242 O239 1.250 . S
C242 O240 1.248 . S
C243 O244 1.264 . S
C243 O251 1.249 . S
O244 C243 1.264 . S
O245 Mg238 1.986 . S
O245 C249 1.246 . S
O246 Mg241 2.032 . S
O246 C249 1.259 . S
O247 Mg238 2.114 . S
O247 C250 1.252 . S
O248 Mg238 2.251 . S
O248 Mg241 2.079 . S
O248 C250 1.273 . S
C249 O245 1.246 . S
C249 O246 1.259 . S
C250 O247 1.252 . S
C250 O248 1.273 . S
O251 Mg238 2.010 . S
O251 C243 1.249 . S
Mg252 O253 2.028 . S
Mg252 O259 1.986 . S
Mg252 O261 2.114 . S
Mg252 O262 2.251 . S
Mg252 O265 2.010 . S
O253 Mg252 2.028 . S
O253 C256 1.250 . S
O254 Mg255 2.028 . S
O254 C256 1.248 . S
Mg255 O254 2.028 . S
Mg255 O260 2.032 . S
Mg255 O262 2.079 . S
C256 O253 1.250 . S
C256 O254 1.248 . S
C257 O258 1.264 . S
C257 O265 1.249 . S
O258 C257 1.264 . S
O259 Mg252 1.986 . S
O259 C263 1.246 . S
O260 Mg255 2.032 . S
O260 C263 1.259 . S
O261 Mg252 2.114 . S
O261 C264 1.252 . S
O262 Mg252 2.251 . S
O262 Mg255 2.079 . S
O262 C264 1.273 . S
C263 O259 1.246 . S
C263 O260 1.259 . S
C264 O261 1.252 . S
C264 O262 1.273 . S
O265 Mg252 2.010 . S
O265 C257 1.249 . S
Mg266 O267 2.028 . S
Mg266 O273 1.986 . S
Mg266 O275 2.114 . S
Mg266 O276 2.251 . S
Mg266 O279 2.010 . S
O267 Mg266 2.028 . S
O267 C270 1.250 . S
O268 Mg269 2.028 . S
O268 C270 1.248 . S
Mg269 O268 2.028 . S
Mg269 O274 2.032 . S
Mg269 O276 2.079 . S
C270 O267 1.250 . S
C270 O268 1.248 . S
C271 O272 1.264 . S
C271 O279 1.249 . S
O272 C271 1.264 . S
O273 Mg266 1.986 . S
O273 C277 1.246 . S
O274 Mg269 2.032 . S
O274 C277 1.259 . S
O275 Mg266 2.114 . S
O275 C278 1.252 . S
O276 Mg266 2.251 . S
O276 Mg269 2.079 . S
O276 C278 1.273 . S
C277 O273 1.246 . S
C277 O274 1.259 . S
C278 O275 1.252 . S
C278 O276 1.273 . S
O279 Mg266 2.010 . S
O279 C271 1.249 . S
Mg280 O281 2.028 1_556 S
Mg280 O287 1.986 . S
Mg280 O289 2.114 1_556 S
Mg280 O290 2.251 . S
Mg280 O293 2.010 . S
O281 Mg280 2.028 1_554 S
O281 C284 1.250 . S
O282 Mg283 2.028 . S
O282 C284 1.248 . S
Mg283 O282 2.028 . S
Mg283 O288 2.032 1_554 S
Mg283 O290 2.079 1_554 S
C284 O281 1.250 . S
C284 O282 1.248 . S
C285 O286 1.264 . S
C285 O293 1.249 . S
O286 C285 1.264 . S
O287 Mg280 1.986 . S
O287 C291 1.246 . S
O288 Mg283 2.032 1_556 S
O288 C291 1.259 . S
O289 Mg280 2.114 1_554 S
O289 C292 1.246 1_554 S
O290 Mg280 2.251 . S
O290 Mg283 2.079 1_556 S
O290 C292 1.282 . S
C291 O287 1.246 . S
C291 O288 1.259 . S
C292 O289 1.246 1_556 S
C292 O290 1.282 . S
O293 Mg280 2.010 . S
O293 C285 1.249 . S
Mg294 O295 2.028 . S
Mg294 O301 1.986 . S
Mg294 O303 2.114 . S
Mg294 O304 2.251 . S
Mg294 O307 2.010 . S
O295 Mg294 2.028 . S
O295 C298 1.250 . S
O296 Mg297 2.028 . S
O296 C298 1.248 . S
Mg297 O296 2.028 . S
Mg297 O302 2.032 . S
Mg297 O304 2.079 . S
C298 O295 1.250 . S
C298 O296 1.248 . S
C299 O300 1.264 . S
C299 O307 1.249 . S
O300 C299 1.264 . S
O301 Mg294 1.986 . S
O301 C305 1.246 . S
O302 Mg297 2.032 . S
O302 C305 1.259 . S
O303 Mg294 2.114 . S
O303 C306 1.252 . S
O304 Mg294 2.251 . S
O304 Mg297 2.079 . S
O304 C306 1.273 . S
C305 O301 1.246 . S
C305 O302 1.259 . S
C306 O303 1.252 . S
C306 O304 1.273 . S
O307 Mg294 2.010 . S
O307 C299 1.249 . S
Mg308 O309 2.028 . S
Mg308 O315 1.986 . S
Mg308 O317 2.114 . S
Mg308 O318 2.251 . S
Mg308 O321 2.010 . S
O309 Mg308 2.028 . S
O309 C312 1.250 . S
O310 Mg311 2.028 . S
O310 C312 1.248 . S
Mg311 O310 2.028 . S
Mg311 O316 2.032 . S
Mg311 O318 2.079 . S
C312 O309 1.250 . S
C312 O310 1.248 . S
C313 O314 1.264 . S
C313 O321 1.249 . S
O314 C313 1.264 . S
O315 Mg308 1.986 . S
O315 C319 1.246 . S
O316 Mg311 2.032 . S
O316 C319 1.259 . S
O317 Mg308 2.114 . S
O317 C320 1.252 . S
O318 Mg308 2.251 . S
O318 Mg311 2.079 . S
O318 C320 1.273 . S
C319 O315 1.246 . S
C319 O316 1.259 . S
C320 O317 1.252 . S
C320 O318 1.273 . S
O321 Mg308 2.010 . S
O321 C313 1.249 . S
Mg322 O323 2.028 . S
Mg322 O329 1.986 . S
Mg322 O331 2.114 . S
Mg322 O332 2.251 . S
Mg322 O335 2.010 . S
O323 Mg322 2.028 . S
O323 C326 1.250 . S
O324 Mg325 2.028 . S
O324 C326 1.248 . S
Mg325 O324 2.028 . S
Mg325 O330 2.032 . S
Mg325 O332 2.079 . S
C326 O323 1.250 . S
C326 O324 1.248 . S
C327 O328 1.264 . S
C327 O335 1.249 . S
O328 C327 1.264 . S
O329 Mg322 1.986 . S
O329 C333 1.246 . S
O330 Mg325 2.032 . S
O330 C333 1.259 . S
O331 Mg322 2.114 . S
O331 C334 1.252 . S
O332 Mg322 2.251 . S
O332 Mg325 2.079 . S
O332 C334 1.273 . S
C333 O329 1.246 . S
C333 O330 1.259 . S
C334 O331 1.252 . S
C334 O332 1.273 . S
O335 Mg322 2.010 . S
O335 C327 1.249 . S
Gd336 N367 2.661 . S
Gd336 N373 2.601 . S
Gd336 O380 2.545 . S
Gd336 O381 2.606 . S
Gd336 O383 2.429 . S
Gd336 O384 2.545 . S
Gd336 O385 2.412 . S
Gd336 O387 2.362 . S
Gd336 O388 2.324 1_554 S
Gd336 C395 2.828 . S
Gd337 N346 2.661 1_545 S
Gd337 N350 2.601 1_544 S
Gd337 O381 2.362 . S
Gd337 O382 2.324 . S
Gd337 O386 2.545 1_454 S
Gd337 O387 2.606 . S
Gd337 O389 2.429 1_554 S
Gd337 O390 2.564 . S
Gd337 O391 2.412 1_455 S
Gd337 C404 2.828 1_454 S
C338 C341 1.417 . S
C338 C343 1.431 1_554 S
C338 C344 1.412 . S
C339 C342 1.437 . S
C339 C343 1.317 . S
C339 H358 0.929 . S
C340 C341 1.426 1_556 S
C340 C342 1.413 . S
C340 N350 1.359 1_655 S
C341 C338 1.417 . S
C341 C340 1.426 1_554 S
C341 N346 1.350 1_655 S
C342 C339 1.437 . S
C342 C340 1.413 . S
C342 C352 1.391 . S
C343 C338 1.431 1_556 S
C343 C339 1.317 . S
C343 H354 0.930 1_556 S
C344 C338 1.412 . S
C344 C345 1.355 . S
C344 H356 0.930 . S
C345 C344 1.355 . S
C345 C347 1.402 1_655 S
C345 H357 0.930 . S
N346 Gd337 2.661 1_565 S
N346 C341 1.350 1_455 S
N346 C347 1.307 . S
C347 C345 1.402 1_455 S
C347 N346 1.307 . S
C347 H348 0.930 1_565 S
H348 C347 0.930 1_545 S
C349 N350 1.334 . S
C349 C351 1.394 1_455 S
C349 H353 0.885 1_565 S
N350 Gd337 2.601 1_566 S
N350 C340 1.359 1_455 S
N350 C349 1.334 . S
C351 C349 1.394 1_655 S
C351 C352 1.359 . S
C351 H363 0.930 . S
C352 C342 1.391 . S
C352 C351 1.359 . S
C352 H364 0.929 . S
H353 C349 0.885 1_545 S
H354 C343 0.930 1_554 S
H355 C372 0.930 . S
H356 C344 0.930 . S
H357 C345 0.930 . S
H358 C339 0.929 . S
H359 C377 0.930 . S
H360 C368 0.946 . S
H361 C369 0.930 . S
H362 C393 0.929 . S
H363 C351 0.930 . S
H364 C352 0.929 . S
H365 C394 0.930 . S
H366 C375 0.930 . S
N367 Gd336 2.661 . S
N367 C371 1.350 . S
N367 C372 1.307 1_554 S
C368 H360 0.946 . S
C368 C369 1.366 . S
C368 C370 1.384 1_556 S
C369 H361 0.930 . S
C369 C368 1.366 . S
C369 C372 1.402 . S
C370 C368 1.384 1_554 S
C370 C371 1.417 . S
C370 C394 1.431 . S
C371 N367 1.350 . S
C371 C370 1.417 . S
C371 C374 1.426 . S
C372 H355 0.930 . S
C372 N367 1.307 1_556 S
C372 C369 1.402 . S
N373 Gd336 2.601 . S
N373 C374 1.359 . S
N373 C377 1.334 . S
C374 C371 1.426 . S
C374 N373 1.359 . S
C374 C378 1.413 . S
C375 H366 0.930 . S
C375 C376 1.359 . S
C375 C377 1.394 . S
C376 C375 1.359 . S
C376 C378 1.391 . S
C376 H379 0.929 . S
C377 H359 0.930 . S
C377 N373 1.334 . S
C377 C375 1.394 . S
C378 C374 1.413 . S
C378 C376 1.391 . S
C378 C393 1.437 . S
H379 C376 0.929 . S
O380 Gd336 2.545 . S
O380 C395 1.258 . S
O381 Gd336 2.606 . S
O381 Gd337 2.362 . S
O381 C392 1.284 . S
O382 Gd337 2.324 . S
O382 C402 1.254 . S
O383 Gd336 2.429 . S
O383 C402 1.268 . S
O384 Gd336 2.545 . S
O384 C392 1.250 . S
O385 Gd336 2.412 . S
O385 C395 1.252 . S
O386 Gd337 2.545 1_656 S
O386 C404 1.258 . S
O387 Gd336 2.362 . S
O387 Gd337 2.606 . S
O387 C403 1.284 . S
O388 Gd336 2.324 1_556 S
O388 C411 1.254 . S
O389 Gd337 2.429 1_556 S
O389 C411 1.268 . S
O390 Gd337 2.564 . S
O390 C403 1.279 . S
O391 Gd337 2.412 1_655 S
O391 C404 1.252 1_554 S
C392 O381 1.284 . S
C392 O384 1.250 . S
C393 H362 0.929 . S
C393 C378 1.437 . S
C393 C394 1.317 . S
C394 H365 0.930 . S
C394 C370 1.431 . S
C394 C393 1.317 . S
C395 Gd336 2.828 . S
C395 O380 1.258 . S
C395 O385 1.252 . S
C395 C396 1.497 . S
C396 C395 1.497 . S
C396 C397 1.395 . S
C396 C398 1.380 . S
C397 C396 1.395 . S
C397 C400 1.398 . S
C397 H412 0.930 . S
C398 C396 1.380 . S
C398 C399 1.391 . S
C398 H413 0.930 . S
C399 C398 1.391 . S
C399 C401 1.387 . S
C400 C397 1.398 . S
C400 C401 1.380 . S
C400 H414 0.930 . S
C401 C399 1.387 . S
C401 C400 1.380 . S
C401 H415 0.930 . S
C402 O382 1.254 . S
C402 O383 1.268 . S
C403 O387 1.284 . S
C403 O390 1.279 . S
C404 Gd337 2.828 1_656 S
C404 O386 1.258 . S
C404 O391 1.252 1_556 S
C404 C405 1.497 . S
C405 C404 1.497 . S
C405 C406 1.395 . S
C405 C407 1.380 1_556 S
C406 C405 1.395 . S
C406 C409 1.398 . S
C406 H416 0.930 . S
C407 C405 1.380 1_554 S
C407 C408 1.391 1_554 S
C407 H417 0.930 . S
C408 C407 1.391 1_556 S
C408 C410 1.387 . S
C409 C406 1.398 . S
C409 C410 1.380 . S
C409 H418 0.930 . S
C410 C408 1.387 . S
C410 C409 1.380 . S
C410 H419 0.930 . S
C411 O388 1.254 . S
C411 O389 1.268 . S
H412 C397 0.930 . S
H413 C398 0.930 . S
H414 C400 0.930 . S
H415 C401 0.930 . S
H416 C406 0.930 . S
H417 C407 0.930 . S
H418 C409 0.930 . S
H419 C410 0.930 . S
Gd420 N451 2.661 . S
Gd420 N457 2.601 . S
Gd420 O464 2.545 . S
Gd420 O465 2.606 . S
Gd420 O467 2.429 . S
Gd420 O468 2.545 . S
Gd420 O469 2.412 . S
Gd420 O471 2.362 . S
Gd420 O472 2.324 . S
Gd420 C479 2.828 . S
Gd421 N430 2.661 . S
Gd421 N434 2.601 . S
Gd421 O465 2.362 . S
Gd421 O466 2.324 . S
Gd421 O470 2.545 . S
Gd421 O471 2.606 . S
Gd421 O473 2.429 . S
Gd421 O474 2.545 . S
Gd421 O475 2.412 . S
Gd421 C488 2.828 . S
C422 C425 1.417 . S
C422 C427 1.431 . S
C422 C428 1.412 . S
C423 C426 1.437 . S
C423 C427 1.317 . S
C423 H442 0.929 . S
C424 C425 1.426 . S
C424 C426 1.413 . S
C424 N434 1.359 . S
C425 C422 1.417 . S
C425 C424 1.426 . S
C425 N430 1.350 . S
C426 C423 1.437 . S
C426 C424 1.413 . S
C426 C436 1.391 . S
C427 C422 1.431 . S
C427 C423 1.317 . S
C427 H438 0.930 . S
C428 C422 1.412 . S
C428 C429 1.355 . S
C428 H440 0.930 . S
C429 C428 1.355 . S
C429 C431 1.402 . S
C429 H441 0.930 . S
N430 Gd421 2.661 . S
N430 C425 1.350 . S
N430 C431 1.307 . S
C431 C429 1.402 . S
C431 N430 1.307 . S
C431 H432 0.930 . S
H432 C431 0.930 . S
C433 N434 1.334 . S
C433 C435 1.394 . S
C433 H437 0.930 . S
N434 Gd421 2.601 . S
N434 C424 1.359 . S
N434 C433 1.334 . S
C435 C433 1.394 . S
C435 C436 1.359 . S
C435 H447 0.930 . S
C436 C426 1.391 . S
C436 C435 1.359 . S
C436 H448 0.929 . S
H437 C433 0.930 . S
H438 C427 0.930 . S
H439 C456 0.930 . S
H440 C428 0.930 . S
H441 C429 0.930 . S
H442 C423 0.929 . S
H443 C461 0.930 . S
H444 C452 0.930 . S
H445 C453 0.930 . S
H446 C477 0.929 . S
H447 C435 0.930 . S
H448 C436 0.929 . S
H449 C478 0.930 . S
H450 C459 0.930 . S
N451 Gd420 2.661 . S
N451 C455 1.350 . S
N451 C456 1.307 . S
C452 H444 0.930 . S
C452 C453 1.355 . S
C452 C454 1.412 . S
C453 H445 0.930 . S
C453 C452 1.355 . S
C453 C456 1.402 . S
C454 C452 1.412 . S
C454 C455 1.417 . S
C454 C478 1.431 . S
C455 N451 1.350 . S
C455 C454 1.417 . S
C455 C458 1.426 . S
C456 H439 0.930 . S
C456 N451 1.307 . S
C456 C453 1.402 . S
N457 Gd420 2.601 . S
N457 C458 1.359 . S
N457 C461 1.334 . S
C458 C455 1.426 . S
C458 N457 1.359 . S
C458 C462 1.413 . S
C459 H450 0.930 . S
C459 C460 1.359 . S
C459 C461 1.394 . S
C460 C459 1.359 . S
C460 C462 1.391 . S
C460 H463 0.929 . S
C461 H443 0.930 . S
C461 N457 1.334 . S
C461 C459 1.394 . S
C462 C458 1.413 . S
C462 C460 1.391 . S
C462 C477 1.437 . S
H463 C460 0.929 . S
O464 Gd420 2.545 . S
O464 C479 1.258 . S
O465 Gd420 2.606 . S
O465 Gd421 2.362 . S
O465 C476 1.284 . S
O466 Gd421 2.324 . S
O466 C486 1.254 . S
O467 Gd420 2.429 . S
O467 C486 1.268 . S
O468 Gd420 2.545 . S
O468 C476 1.250 . S
O469 Gd420 2.412 . S
O469 C479 1.252 . S
O470 Gd421 2.545 . S
O470 C488 1.258 . S
O471 Gd420 2.362 . S
O471 Gd421 2.606 . S
O471 C487 1.284 . S
O472 Gd420 2.324 . S
O472 C495 1.254 . S
O473 Gd421 2.429 . S
O473 C495 1.268 . S
O474 Gd421 2.545 . S
O474 C487 1.250 . S
O475 Gd421 2.412 . S
O475 C488 1.252 . S
C476 O465 1.284 . S
C476 O468 1.250 . S
C477 H446 0.929 . S
C477 C462 1.437 . S
C477 C478 1.317 . S
C478 H449 0.930 . S
C478 C454 1.431 . S
C478 C477 1.317 . S
C479 Gd420 2.828 . S
C479 O464 1.258 . S
C479 O469 1.252 . S
C479 C480 1.497 . S
C480 C479 1.497 . S
C480 C481 1.395 . S
C480 C482 1.380 . S
C481 C480 1.395 . S
C481 C484 1.398 . S
C481 H496 0.930 . S
C482 C480 1.380 . S
C482 C483 1.391 . S
C482 H497 0.930 . S
C483 C482 1.391 . S
C483 C485 1.387 . S
C484 C481 1.398 . S
C484 C485 1.380 . S
C484 H498 0.930 . S
C485 C483 1.387 . S
C485 C484 1.380 . S
C485 H499 0.930 . S
C486 O466 1.254 . S
C486 O467 1.268 . S
C487 O471 1.284 . S
C487 O474 1.250 . S
C488 Gd421 2.828 . S
C488 O470 1.258 . S
C488 O475 1.252 . S
C488 C489 1.497 . S
C489 C488 1.497 . S
C489 C490 1.395 . S
C489 C491 1.380 . S
C490 C489 1.395 . S
C490 C493 1.398 . S
C490 H500 0.930 . S
C491 C489 1.380 . S
C491 C492 1.391 . S
C491 H501 0.930 . S
C492 C491 1.391 . S
C492 C494 1.387 . S
C493 C490 1.398 . S
C493 C494 1.380 . S
C493 H502 0.930 . S
C494 C492 1.387 . S
C494 C493 1.380 . S
C494 H503 0.930 . S
C495 O472 1.254 . S
C495 O473 1.268 . S
H496 C481 0.930 . S
H497 C482 0.930 . S
H498 C484 0.930 . S
H499 C485 0.930 . S
H500 C490 0.930 . S
H501 C491 0.930 . S
H502 C493 0.930 . S
H503 C494 0.930 . S
Gd504 N535 2.661 . S
Gd504 N541 2.601 . S
Gd504 O548 2.545 . S
Gd504 O549 2.606 . S
Gd504 O551 2.429 . S
Gd504 O552 2.545 . S
Gd504 O553 2.412 . S
Gd504 O555 2.362 . S
Gd504 O556 2.324 . S
Gd504 C563 2.828 . S
Gd505 N514 2.661 . S
Gd505 N518 2.601 . S
Gd505 O549 2.362 . S
Gd505 O550 2.324 . S
Gd505 O554 2.545 . S
Gd505 O555 2.606 . S
Gd505 O557 2.429 . S
Gd505 O558 2.545 . S
Gd505 O559 2.412 . S
Gd505 C572 2.828 . S
C506 C509 1.417 . S
C506 C511 1.431 . S
C506 C512 1.412 . S
C507 C510 1.437 . S
C507 C511 1.317 . S
C507 H526 0.929 . S
C508 C509 1.426 . S
C508 C510 1.413 . S
C508 N518 1.359 . S
C509 C506 1.417 . S
C509 C508 1.426 . S
C509 N514 1.350 . S
C510 C507 1.437 . S
C510 C508 1.413 . S
C510 C520 1.391 . S
C511 C506 1.431 . S
C511 C507 1.317 . S
C511 H522 0.930 . S
C512 C506 1.412 . S
C512 C513 1.355 . S
C512 H524 0.930 . S
C513 C512 1.355 . S
C513 C515 1.402 . S
C513 H525 0.930 . S
N514 Gd505 2.661 . S
N514 C509 1.350 . S
N514 C515 1.307 . S
C515 C513 1.402 . S
C515 N514 1.307 . S
C515 H516 0.930 . S
H516 C515 0.930 . S
C517 N518 1.334 . S
C517 C519 1.394 . S
C517 H521 0.930 . S
N518 Gd505 2.601 . S
N518 C508 1.359 . S
N518 C517 1.334 . S
C519 C517 1.394 . S
C519 C520 1.359 . S
C519 H531 0.930 . S
C520 C510 1.391 . S
C520 C519 1.359 . S
C520 H532 0.929 . S
H521 C517 0.930 . S
H522 C511 0.930 . S
H523 C540 0.930 1_545 S
H524 C512 0.930 . S
H525 C513 0.930 . S
H526 C507 0.929 . S
H527 C545 0.930 . S
H528 C536 0.930 . S
H529 C537 0.930 . S
H530 C561 0.929 . S
H531 C519 0.930 . S
H532 C520 0.929 . S
H533 C562 0.930 . S
H534 C543 0.930 . S
N535 Gd504 2.661 . S
N535 C539 1.350 1_545 S
N535 C540 1.307 1_545 S
C536 H528 0.930 . S
C536 C537 1.355 . S
C536 C538 1.412 . S
C537 H529 0.930 . S
C537 C536 1.355 . S
C537 C540 1.402 . S
C538 C536 1.412 . S
C538 C539 1.417 . S
C538 C562 1.431 . S
C539 N535 1.350 1_565 S
C539 C538 1.417 . S
C539 C542 1.426 . S
C540 H523 0.930 1_565 S
C540 N535 1.307 1_565 S
C540 C537 1.402 . S
N541 Gd504 2.601 . S
N541 C542 1.359 1_545 S
N541 C545 1.334 . S
C542 C539 1.426 . S
C542 N541 1.359 1_565 S
C542 C546 1.413 . S
C543 H534 0.930 . S
C543 C544 1.359 1_545 S
C543 C545 1.394 . S
C544 C543 1.359 1_565 S
C544 C546 1.391 . S
C544 H547 0.929 . S
C545 H527 0.930 . S
C545 N541 1.334 . S
C545 C543 1.394 . S
C546 C542 1.413 . S
C546 C544 1.391 . S
C546 C561 1.437 . S
H547 C544 0.929 . S
O548 Gd504 2.545 . S
O548 C563 1.258 . S
O549 Gd504 2.606 . S
O549 Gd505 2.362 . S
O549 C560 1.284 . S
O550 Gd505 2.324 . S
O550 C570 1.254 . S
O551 Gd504 2.429 . S
O551 C570 1.268 . S
O552 Gd504 2.545 . S
O552 C560 1.250 . S
O553 Gd504 2.412 . S
O553 C563 1.252 . S
O554 Gd505 2.545 . S
O554 C572 1.258 . S
O555 Gd504 2.362 . S
O555 Gd505 2.606 . S
O555 C571 1.284 . S
O556 Gd504 2.324 . S
O556 C579 1.254 . S
O557 Gd505 2.429 . S
O557 C579 1.268 . S
O558 Gd505 2.545 . S
O558 C571 1.250 . S
O559 Gd505 2.412 . S
O559 C572 1.252 . S
C560 O549 1.284 . S
C560 O552 1.250 . S
C561 H530 0.929 . S
C561 C546 1.437 . S
C561 C562 1.317 . S
C562 H533 0.930 . S
C562 C538 1.431 . S
C562 C561 1.317 . S
C563 Gd504 2.828 . S
C563 O548 1.258 . S
C563 O553 1.252 . S
C563 C564 1.497 . S
C564 C563 1.497 . S
C564 C565 1.395 . S
C564 C566 1.380 . S
C565 C564 1.395 . S
C565 C568 1.398 . S
C565 H580 0.930 . S
C566 C564 1.380 . S
C566 C567 1.391 . S
C566 H581 0.930 . S
C567 C566 1.391 . S
C567 C569 1.387 . S
C568 C565 1.398 . S
C568 C569 1.380 . S
C568 H582 0.930 . S
C569 C567 1.387 . S
C569 C568 1.380 . S
C569 H583 0.930 . S
C570 O550 1.254 . S
C570 O551 1.268 . S
C571 O555 1.284 . S
C571 O558 1.250 . S
C572 Gd505 2.828 . S
C572 O554 1.258 . S
C572 O559 1.252 . S
C572 C573 1.497 . S
C573 C572 1.497 . S
C573 C574 1.395 . S
C573 C575 1.380 . S
C574 C573 1.395 . S
C574 C577 1.398 . S
C574 H584 0.930 . S
C575 C573 1.380 . S
C575 C576 1.391 1_545 S
C575 H585 0.930 . S
C576 C575 1.391 1_565 S
C576 C578 1.387 . S
C577 C574 1.398 . S
C577 C578 1.380 1_545 S
C577 H586 0.930 . S
C578 C576 1.387 . S
C578 C577 1.380 1_565 S
C578 H587 0.930 . S
C579 O556 1.254 . S
C579 O557 1.268 . S
H580 C565 0.930 . S
H581 C566 0.930 . S
H582 C568 0.930 . S
H583 C569 0.930 . S
H584 C574 0.930 . S
H585 C575 0.930 . S
H586 C577 0.930 . S
H587 C578 0.930 . S
Gd588 N619 2.661 . S
Gd588 N625 2.601 . S
Gd588 O632 2.545 . S
Gd588 O633 2.606 . S
Gd588 O635 2.429 . S
Gd588 O636 2.545 . S
Gd588 O637 2.412 . S
Gd588 O639 2.362 . S
Gd588 O640 2.324 . S
Gd588 C647 2.828 . S
Gd589 N598 2.661 . S
Gd589 N602 2.601 . S
Gd589 O633 2.362 . S
Gd589 O634 2.324 . S
Gd589 O638 2.545 . S
Gd589 O639 2.606 . S
Gd589 O641 2.429 . S
Gd589 O642 2.545 . S
Gd589 O643 2.412 . S
Gd589 C656 2.828 . S
C590 C593 1.417 . S
C590 C595 1.431 . S
C590 C596 1.412 . S
C591 C594 1.437 . S
C591 C595 1.317 . S
C591 H610 0.929 . S
C592 C593 1.426 . S
C592 C594 1.413 . S
C592 N602 1.359 . S
C593 C590 1.417 . S
C593 C592 1.426 . S
C593 N598 1.350 . S
C594 C591 1.437 . S
C594 C592 1.413 . S
C594 C604 1.391 . S
C595 C590 1.431 . S
C595 C591 1.317 . S
C595 H606 0.930 . S
C596 C590 1.412 . S
C596 C597 1.355 . S
C596 H608 0.930 . S
C597 C596 1.355 . S
C597 C599 1.402 . S
C597 H609 0.930 . S
N598 Gd589 2.661 . S
N598 C593 1.350 . S
N598 C599 1.307 . S
C599 C597 1.402 . S
C599 N598 1.307 . S
C599 H600 0.930 . S
H600 C599 0.930 . S
C601 N602 1.334 . S
C601 C603 1.394 . S
C601 H605 0.930 . S
N602 Gd589 2.601 . S
N602 C592 1.359 . S
N602 C601 1.334 . S
C603 C601 1.394 . S
C603 C604 1.359 . S
C603 H615 0.930 . S
C604 C594 1.391 . S
C604 C603 1.359 . S
C604 H616 0.929 . S
H605 C601 0.930 . S
H606 C595 0.930 . S
H607 C624 0.930 . S
H608 C596 0.930 . S
H609 C597 0.930 . S
H610 C591 0.929 . S
H611 C629 0.930 . S
H612 C620 0.930 . S
H613 C621 0.930 . S
H614 C645 0.929 . S
H615 C603 0.930 . S
H616 C604 0.929 . S
H617 C646 0.930 . S
H618 C627 0.930 . S
N619 Gd588 2.661 . S
N619 C623 1.350 . S
N619 C624 1.307 . S
C620 H612 0.930 . S
C620 C621 1.355 . S
C620 C622 1.412 . S
C621 H613 0.930 . S
C621 C620 1.355 . S
C621 C624 1.402 . S
C622 C620 1.412 . S
C622 C623 1.417 . S
C622 C646 1.431 . S
C623 N619 1.350 . S
C623 C622 1.417 . S
C623 C626 1.426 . S
C624 H607 0.930 . S
C624 N619 1.307 . S
C624 C621 1.402 . S
N625 Gd588 2.601 . S
N625 C626 1.359 . S
N625 C629 1.334 . S
C626 C623 1.426 . S
C626 N625 1.359 . S
C626 C630 1.413 . S
C627 H618 0.930 . S
C627 C628 1.359 . S
C627 C629 1.394 . S
C628 C627 1.359 . S
C628 C630 1.391 . S
C628 H631 0.929 . S
C629 H611 0.930 . S
C629 N625 1.334 . S
C629 C627 1.394 . S
C630 C626 1.413 . S
C630 C628 1.391 . S
C630 C645 1.437 . S
H631 C628 0.929 . S
O632 Gd588 2.545 . S
O632 C647 1.258 . S
O633 Gd588 2.606 . S
O633 Gd589 2.362 . S
O633 C644 1.284 . S
O634 Gd589 2.324 . S
O634 C654 1.254 . S
O635 Gd588 2.429 . S
O635 C654 1.268 . S
O636 Gd588 2.545 . S
O636 C644 1.250 . S
O637 Gd588 2.412 . S
O637 C647 1.252 . S
O638 Gd589 2.545 . S
O638 C656 1.258 . S
O639 Gd588 2.362 . S
O639 Gd589 2.606 . S
O639 C655 1.284 . S
O640 Gd588 2.324 . S
O640 C663 1.254 . S
O641 Gd589 2.429 . S
O641 C663 1.268 . S
O642 Gd589 2.545 . S
O642 C655 1.250 . S
O643 Gd589 2.412 . S
O643 C656 1.252 . S
C644 O633 1.284 . S
C644 O636 1.250 . S
C645 H614 0.929 . S
C645 C630 1.437 . S
C645 C646 1.317 . S
C646 H617 0.930 . S
C646 C622 1.431 . S
C646 C645 1.317 . S
C647 Gd588 2.828 . S
C647 O632 1.258 . S
C647 O637 1.252 . S
C647 C648 1.497 . S
C648 C647 1.497 . S
C648 C649 1.395 . S
C648 C650 1.380 . S
C649 C648 1.395 . S
C649 C652 1.398 . S
C649 H664 0.930 . S
C650 C648 1.380 . S
C650 C651 1.391 . S
C650 H665 0.930 . S
C651 C650 1.391 . S
C651 C653 1.387 . S
C652 C649 1.398 . S
C652 C653 1.380 . S
C652 H666 0.930 . S
C653 C651 1.387 . S
C653 C652 1.380 . S
C653 H667 0.930 . S
C654 O634 1.254 . S
C654 O635 1.268 . S
C655 O639 1.284 . S
C655 O642 1.250 . S
C656 Gd589 2.828 . S
C656 O638 1.258 . S
C656 O643 1.252 . S
C656 C657 1.497 . S
C657 C656 1.497 . S
C657 C658 1.395 . S
C657 C659 1.380 . S
C658 C657 1.395 . S
C658 C661 1.398 . S
C658 H668 0.930 . S
C659 C657 1.380 . S
C659 C660 1.391 . S
C659 H669 0.930 . S
C660 C659 1.391 . S
C660 C662 1.387 . S
C661 C658 1.398 . S
C661 C662 1.380 . S
C661 H670 0.930 . S
C662 C660 1.387 . S
C662 C661 1.380 . S
C662 H671 0.930 . S
C663 O640 1.254 . S
C663 O641 1.268 . S
H664 C649 0.930 . S
H665 C650 0.930 . S
H666 C652 0.930 . S
H667 C653 0.930 . S
H668 C658 0.930 . S
H669 C659 0.930 . S
H670 C661 0.930 . S
H671 C662 0.930 . S
Gd672 N703 2.661 1_545 S
Gd672 N709 2.601 1_545 S
Gd672 O716 2.545 1_545 S
Gd672 O717 2.606 . S
Gd672 O719 2.429 . S
Gd672 O720 2.545 . S
Gd672 O721 2.412 1_545 S
Gd672 O723 2.362 . S
Gd672 O724 2.324 . S
Gd672 C731 2.828 1_545 S
Gd673 N682 2.661 . S
Gd673 N686 2.601 . S
Gd673 O717 2.362 . S
Gd673 O718 2.324 . S
Gd673 O722 2.545 . S
Gd673 O723 2.606 . S
Gd673 O725 2.429 . S
Gd673 O726 2.545 . S
Gd673 O727 2.412 . S
Gd673 C740 2.828 . S
C674 C677 1.417 . S
C674 C679 1.431 . S
C674 C680 1.412 . S
C675 C678 1.437 . S
C675 C679 1.317 . S
C675 H694 0.929 . S
C676 C677 1.426 . S
C676 C678 1.413 . S
C676 N686 1.359 . S
C677 C674 1.417 . S
C677 C676 1.426 . S
C677 N682 1.350 . S
C678 C675 1.437 . S
C678 C676 1.413 . S
C678 C688 1.391 . S
C679 C674 1.431 . S
C679 C675 1.317 . S
C679 H690 0.930 . S
C680 C674 1.412 . S
C680 C681 1.355 . S
C680 H692 0.930 . S
C681 C680 1.355 . S
C681 C683 1.402 . S
C681 H693 0.930 . S
N682 Gd673 2.661 . S
N682 C677 1.350 . S
N682 C683 1.307 . S
C683 C681 1.402 . S
C683 N682 1.307 . S
C683 H684 0.930 . S
H684 C683 0.930 . S
C685 N686 1.334 . S
C685 C687 1.394 1_455 S
C685 H689 0.930 1_455 S
N686 Gd673 2.601 . S
N686 C676 1.359 . S
N686 C685 1.334 . S
C687 C685 1.394 1_655 S
C687 C688 1.359 1_655 S
C687 H699 0.930 . S
C688 C678 1.391 . S
C688 C687 1.359 1_455 S
C688 H700 0.929 . S
H689 C685 0.930 1_655 S
H690 C679 0.930 . S
H691 C708 0.930 . S
H692 C680 0.930 . S
H693 C681 0.930 . S
H694 C675 0.929 . S
H695 C713 0.927 1_545 S
H696 C704 0.930 1_655 S
H697 C705 0.930 . S
H698 C729 0.929 . S
H699 C687 0.930 . S
H700 C688 0.929 . S
H701 C730 0.930 . S
H702 C711 0.930 . S
N703 Gd672 2.661 1_565 S
N703 C707 1.350 . S
N703 C708 1.307 . S
C704 H696 0.930 1_455 S
C704 C705 1.355 1_455 S
C704 C706 1.412 . S
C705 H697 0.930 . S
C705 C704 1.355 1_655 S
C705 C708 1.402 1_655 S
C706 C704 1.412 . S
C706 C707 1.417 . S
C706 C730 1.431 . S
C707 N703 1.350 . S
C707 C706 1.417 . S
C707 C710 1.426 . S
C708 H691 0.930 . S
C708 N703 1.307 . S
C708 C705 1.402 1_455 S
N709 Gd672 2.601 1_565 S
N709 C710 1.359 . S
N709 C713 1.333 . S
C710 C707 1.426 . S
C710 N709 1.359 . S
C710 C714 1.413 . S
C711 H702 0.930 . S
C711 C712 1.359 . S
C711 C713 1.398 . S
C712 C711 1.359 . S
C712 C714 1.391 . S
C712 H715 0.929 . S
C713 H695 0.927 1_565 S
C713 N709 1.333 . S
C713 C711 1.398 . S
C714 C710 1.413 . S
C714 C712 1.391 . S
C714 C729 1.437 . S
H715 C712 0.929 . S
O716 Gd672 2.545 1_565 S
O716 C731 1.258 . S
O717 Gd672 2.606 . S
O717 Gd673 2.362 . S
O717 C728 1.284 . S
O718 Gd673 2.324 . S
O718 C738 1.254 . S
O719 Gd672 2.429 . S
O719 C738 1.268 . S
O720 Gd672 2.545 . S
O720 C728 1.250 . S
O721 Gd672 2.412 1_565 S
O721 C731 1.252 . S
O722 Gd673 2.545 . S
O722 C740 1.258 . S
O723 Gd672 2.362 . S
O723 Gd673 2.606 . S
O723 C739 1.284 . S
O724 Gd672 2.324 . S
O724 C747 1.254 . S
O725 Gd673 2.429 . S
O725 C747 1.268 . S
O726 Gd673 2.545 . S
O726 C739 1.250 . S
O727 Gd673 2.412 . S
O727 C740 1.252 . S
C728 O717 1.284 . S
C728 O720 1.250 . S
C729 H698 0.929 . S
C729 C714 1.437 . S
C729 C730 1.317 . S
C730 H701 0.930 . S
C730 C706 1.431 . S
C730 C729 1.317 . S
C731 Gd672 2.828 1_565 S
C731 O716 1.258 . S
C731 O721 1.252 . S
C731 C732 1.497 . S
C732 C731 1.497 . S
C732 C733 1.395 . S
C732 C734 1.380 . S
C733 C732 1.395 . S
C733 C736 1.398 . S
C733 H748 0.930 . S
C734 C732 1.380 . S
C734 C735 1.391 . S
C734 H749 0.930 . S
C735 C734 1.391 . S
C735 C737 1.387 . S
C736 C733 1.398 . S
C736 C737 1.380 . S
C736 H750 0.930 . S
C737 C735 1.387 . S
C737 C736 1.380 . S
C737 H751 0.930 . S
C738 O718 1.254 . S
C738 O719 1.268 . S
C739 O723 1.284 . S
C739 O726 1.250 . S
C740 Gd673 2.828 . S
C740 O722 1.258 . S
C740 O727 1.252 . S
C740 C741 1.497 . S
C741 C740 1.497 . S
C741 C742 1.395 . S
C741 C743 1.380 . S
C742 C741 1.395 . S
C742 C745 1.398 . S
C742 H752 0.930 . S
C743 C741 1.380 . S
C743 C744 1.391 . S
C743 H753 0.930 . S
C744 C743 1.391 . S
C744 C746 1.387 . S
C745 C742 1.398 . S
C745 C746 1.380 . S
C745 H754 0.930 . S
C746 C744 1.387 . S
C746 C745 1.380 . S
C746 H755 0.930 . S
C747 O724 1.254 . S
C747 O725 1.268 . S
H748 C733 0.930 . S
H749 C734 0.930 . S
H750 C736 0.930 . S
H751 C737 0.930 . S
H752 C742 0.930 . S
H753 C743 0.930 . S
H754 C745 0.930 . S
H755 C746 0.930 . S
Gd756 N787 2.661 . S
Gd756 N793 2.601 . S
Gd756 O800 2.545 . S
Gd756 O801 2.606 . S
Gd756 O803 2.429 . S
Gd756 O804 2.545 . S
Gd756 O805 2.412 . S
Gd756 O807 2.362 . S
Gd756 O808 2.324 . S
Gd756 C815 2.828 . S
Gd757 N766 2.661 . S
Gd757 N770 2.601 . S
Gd757 O801 2.362 . S
Gd757 O802 2.324 . S
Gd757 O806 2.545 . S
Gd757 O807 2.606 . S
Gd757 O809 2.429 . S
Gd757 O810 2.545 . S
Gd757 O811 2.412 . S
Gd757 C824 2.828 . S
C758 C761 1.417 . S
C758 C763 1.431 . S
C758 C764 1.412 . S
C759 C762 1.437 . S
C759 C763 1.317 . S
C759 H778 0.929 . S
C760 C761 1.426 . S
C760 C762 1.413 . S
C760 N770 1.359 . S
C761 C758 1.417 . S
C761 C760 1.426 . S
C761 N766 1.350 . S
C762 C759 1.437 . S
C762 C760 1.413 . S
C762 C772 1.391 . S
C763 C758 1.431 . S
C763 C759 1.317 . S
C763 H774 0.930 . S
C764 C758 1.412 . S
C764 C765 1.355 . S
C764 H776 0.930 . S
C765 C764 1.355 . S
C765 C767 1.402 . S
C765 H777 0.930 . S
N766 Gd757 2.661 . S
N766 C761 1.350 . S
N766 C767 1.307 . S
C767 C765 1.402 . S
C767 N766 1.307 . S
C767 H768 0.930 . S
H768 C767 0.930 . S
C769 N770 1.334 . S
C769 C771 1.394 . S
C769 H773 0.930 . S
N770 Gd757 2.601 . S
N770 C760 1.359 . S
N770 C769 1.334 . S
C771 C769 1.394 . S
C771 C772 1.359 . S
C771 H783 0.930 . S
C772 C762 1.391 . S
C772 C771 1.359 . S
C772 H784 0.929 . S
H773 C769 0.930 . S
H774 C763 0.930 . S
H775 C792 0.930 . S
H776 C764 0.930 . S
H777 C765 0.930 . S
H778 C759 0.929 . S
H779 C797 0.930 . S
H780 C788 0.930 . S
H781 C789 0.930 . S
H782 C813 0.929 . S
H783 C771 0.930 . S
H784 C772 0.929 . S
H785 C814 0.930 . S
H786 C795 0.930 . S
N787 Gd756 2.661 . S
N787 C791 1.350 . S
N787 C792 1.307 . S
C788 H780 0.930 . S
C788 C789 1.355 . S
C788 C790 1.412 . S
C789 H781 0.930 . S
C789 C788 1.355 . S
C789 C792 1.402 . S
C790 C788 1.412 . S
C790 C791 1.417 . S
C790 C814 1.431 . S
C791 N787 1.350 . S
C791 C790 1.417 . S
C791 C794 1.426 . S
C792 H775 0.930 . S
C792 N787 1.307 . S
C792 C789 1.402 . S
N793 Gd756 2.601 . S
N793 C794 1.359 . S
N793 C797 1.334 . S
C794 C791 1.426 . S
C794 N793 1.359 . S
C794 C798 1.413 . S
C795 H786 0.930 . S
C795 C796 1.359 . S
C795 C797 1.394 . S
C796 C795 1.359 . S
C796 C798 1.391 . S
C796 H799 0.929 . S
C797 H779 0.930 . S
C797 N793 1.334 . S
C797 C795 1.394 . S
C798 C794 1.413 . S
C798 C796 1.391 . S
C798 C813 1.437 . S
H799 C796 0.929 . S
O800 Gd756 2.545 . S
O800 C815 1.258 . S
O801 Gd756 2.606 . S
O801 Gd757 2.362 . S
O801 C812 1.284 . S
O802 Gd757 2.324 . S
O802 C822 1.254 . S
O803 Gd756 2.429 . S
O803 C822 1.268 . S
O804 Gd756 2.545 . S
O804 C812 1.250 . S
O805 Gd756 2.412 . S
O805 C815 1.252 . S
O806 Gd757 2.545 . S
O806 C824 1.258 . S
O807 Gd756 2.362 . S
O807 Gd757 2.606 . S
O807 C823 1.284 . S
O808 Gd756 2.324 . S
O808 C831 1.254 . S
O809 Gd757 2.429 . S
O809 C831 1.268 . S
O810 Gd757 2.545 . S
O810 C823 1.250 . S
O811 Gd757 2.412 . S
O811 C824 1.252 . S
C812 O801 1.284 . S
C812 O804 1.250 . S
C813 H782 0.929 . S
C813 C798 1.437 . S
C813 C814 1.317 . S
C814 H785 0.930 . S
C814 C790 1.431 . S
C814 C813 1.317 . S
C815 Gd756 2.828 . S
C815 O800 1.258 . S
C815 O805 1.252 . S
C815 C816 1.497 . S
C816 C815 1.497 . S
C816 C817 1.395 . S
C816 C818 1.380 . S
C817 C816 1.395 . S
C817 C820 1.398 . S
C817 H832 0.930 . S
C818 C816 1.380 . S
C818 C819 1.391 . S
C818 H833 0.930 . S
C819 C818 1.391 . S
C819 C821 1.387 . S
C820 C817 1.398 . S
C820 C821 1.380 . S
C820 H834 0.930 . S
C821 C819 1.387 . S
C821 C820 1.380 . S
C821 H835 0.930 . S
C822 O802 1.254 . S
C822 O803 1.268 . S
C823 O807 1.284 . S
C823 O810 1.250 . S
C824 Gd757 2.828 . S
C824 O806 1.258 . S
C824 O811 1.252 . S
C824 C825 1.497 . S
C825 C824 1.497 . S
C825 C826 1.395 . S
C825 C827 1.380 . S
C826 C825 1.395 . S
C826 C829 1.398 . S
C826 H836 0.930 . S
C827 C825 1.380 . S
C827 C828 1.391 . S
C827 H837 0.930 . S
C828 C827 1.391 . S
C828 C830 1.387 . S
C829 C826 1.398 . S
C829 C830 1.380 . S
C829 H838 0.930 . S
C830 C828 1.387 . S
C830 C829 1.380 . S
C830 H839 0.930 . S
C831 O808 1.254 . S
C831 O809 1.268 . S
H832 C817 0.930 . S
H833 C818 0.930 . S
H834 C820 0.930 . S
H835 C821 0.930 . S
H836 C826 0.930 . S
H837 C827 0.930 . S
H838 C829 0.930 . S
H839 C830 0.930 . S
Gd840 N871 2.661 . S
Gd840 N877 2.601 . S
Gd840 O884 2.545 . S
Gd840 O885 2.606 1_556 S
Gd840 O887 2.429 1_556 S
Gd840 O888 2.545 . S
Gd840 O889 2.412 . S
Gd840 O891 2.362 1_556 S
Gd840 O892 2.324 . S
Gd840 C899 2.828 . S
Gd841 N850 2.661 . S
Gd841 N854 2.601 . S
Gd841 O885 2.362 . S
Gd841 O886 2.324 . S
Gd841 O890 2.545 . S
Gd841 O891 2.606 . S
Gd841 O893 2.389 1_545 S
Gd841 O894 2.545 . S
Gd841 O895 2.412 . S
Gd841 C908 2.828 . S
C842 C845 1.417 . S
C842 C847 1.431 . S
C842 C848 1.412 . S
C843 C846 1.437 . S
C843 C847 1.317 . S
C843 H862 0.929 . S
C844 C845 1.426 . S
C844 C846 1.413 . S
C844 N854 1.359 . S
C845 C842 1.417 . S
C845 C844 1.426 . S
C845 N850 1.350 . S
C846 C843 1.437 . S
C846 C844 1.413 . S
C846 C856 1.391 1_545 S
C847 C842 1.431 . S
C847 C843 1.317 . S
C847 H858 0.930 . S
C848 C842 1.412 . S
C848 C849 1.355 . S
C848 H860 0.930 . S
C849 C848 1.355 . S
C849 C851 1.402 . S
C849 H861 0.930 . S
N850 Gd841 2.661 . S
N850 C845 1.350 . S
N850 C851 1.307 . S
C851 C849 1.402 . S
C851 N850 1.307 . S
C851 H852 0.930 . S
H852 C851 0.930 . S
C853 N854 1.334 1_565 S
C853 C855 1.394 . S
C853 H857 0.930 . S
N854 Gd841 2.601 . S
N854 C844 1.359 . S
N854 C853 1.334 1_545 S
C855 C853 1.394 . S
C855 C856 1.359 . S
C855 H867 0.930 . S
C856 C846 1.391 1_565 S
C856 C855 1.359 . S
C856 H868 0.929 . S
H857 C853 0.930 . S
H858 C847 0.930 . S
H859 C876 0.930 . S
H860 C848 0.930 . S
H861 C849 0.930 . S
H862 C843 0.929 . S
H863 C881 0.930 . S
H864 C872 0.930 . S
H865 C873 0.930 . S
H866 C897 0.929 . S
H867 C855 0.930 . S
H868 C856 0.929 . S
H869 C898 0.930 . S
H870 C879 0.930 . S
N871 Gd840 2.661 . S
N871 C875 1.350 . S
N871 C876 1.307 1_545 S
C872 H864 0.930 . S
C872 C873 1.355 . S
C872 C874 1.412 1_565 S
C873 H865 0.930 . S
C873 C872 1.355 . S
C873 C876 1.402 . S
C874 C872 1.412 1_545 S
C874 C875 1.417 . S
C874 C898 1.431 . S
C875 N871 1.350 . S
C875 C874 1.417 . S
C875 C878 1.426 . S
C876 H859 0.930 . S
C876 N871 1.307 1_565 S
C876 C873 1.402 . S
N877 Gd840 2.601 . S
N877 C878 1.359 . S
N877 C881 1.334 . S
C878 C875 1.426 . S
C878 N877 1.359 . S
C878 C882 1.413 . S
C879 H870 0.930 . S
C879 C880 1.359 . S
C879 C881 1.394 . S
C880 C879 1.359 . S
C880 C882 1.391 . S
C880 H883 0.929 . S
C881 H863 0.930 . S
C881 N877 1.334 . S
C881 C879 1.394 . S
C882 C878 1.413 . S
C882 C880 1.391 . S
C882 C897 1.437 . S
H883 C880 0.929 . S
O884 Gd840 2.545 . S
O884 C899 1.258 . S
O885 Gd840 2.606 1_554 S
O885 Gd841 2.362 . S
O885 C896 1.284 . S
O886 Gd841 2.324 . S
O886 C906 1.254 . S
O887 Gd840 2.429 1_554 S
O887 C906 1.268 . S
O888 Gd840 2.545 . S
O888 C896 1.250 1_556 S
O889 Gd840 2.412 . S
O889 C899 1.252 . S
O890 Gd841 2.545 . S
O890 C908 1.258 . S
O891 Gd840 2.362 1_554 S
O891 Gd841 2.606 . S
O891 C907 1.284 . S
O892 Gd840 2.324 . S
O892 C915 1.255 . S
O893 Gd841 2.389 1_565 S
O893 C915 1.255 1_564 S
O894 Gd841 2.545 . S
O894 C907 1.250 . S
O895 Gd841 2.412 . S
O895 C908 1.252 . S
C896 O885 1.284 . S
C896 O888 1.250 1_554 S
C897 H866 0.929 . S
C897 C882 1.437 . S
C897 C898 1.317 . S
C898 H869 0.930 . S
C898 C874 1.431 . S
C898 C897 1.317 . S
C899 Gd840 2.828 . S
C899 O884 1.258 . S
C899 O889 1.252 . S
C899 C900 1.497 . S
C900 C899 1.497 . S
C900 C901 1.395 . S
C900 C902 1.380 . S
C901 C900 1.395 . S
C901 C904 1.398 . S
C901 H916 0.930 . S
C902 C900 1.380 . S
C902 C903 1.391 . S
C902 H917 0.930 . S
C903 C902 1.391 . S
C903 C905 1.387 . S
C904 C901 1.398 . S
C904 C905 1.380 . S
C904 H918 0.930 . S
C905 C903 1.387 . S
C905 C904 1.380 . S
C905 H919 0.930 . S
C906 O886 1.254 . S
C906 O887 1.268 . S
C907 O891 1.284 . S
C907 O894 1.250 . S
C908 Gd841 2.828 . S
C908 O890 1.258 . S
C908 O895 1.252 . S
C908 C909 1.497 . S
C909 C908 1.497 . S
C909 C910 1.395 1_545 S
C909 C911 1.380 . S
C910 C909 1.395 1_565 S
C910 C913 1.398 . S
C910 H920 0.930 . S
C911 C909 1.380 . S
C911 C912 1.391 . S
C911 H921 0.930 . S
C912 C911 1.391 . S
C912 C914 1.387 . S
C913 C910 1.398 . S
C913 C914 1.380 1_565 S
C913 H922 0.930 . S
C914 C912 1.387 . S
C914 C913 1.380 1_545 S
C914 H923 0.930 . S
C915 O892 1.255 . S
C915 O893 1.255 1_546 S
H916 C901 0.930 . S
H917 C902 0.930 . S
H918 C904 0.930 . S
H919 C905 0.930 . S
H920 C910 0.930 . S
H921 C911 0.930 . S
H922 C913 0.930 . S
H923 C914 0.930 . S
Gd924 N955 2.661 . S
Gd924 N961 2.601 . S
Gd924 O968 2.545 . S
Gd924 O969 2.606 . S
Gd924 O971 2.429 . S
Gd924 O972 2.545 . S
Gd924 O973 2.412 . S
Gd924 O975 2.362 . S
Gd924 O976 2.324 . S
Gd924 C983 2.828 . S
Gd925 N934 2.661 . S
Gd925 N938 2.601 . S
Gd925 O969 2.362 . S
Gd925 O970 2.324 . S
Gd925 O974 2.545 . S
Gd925 O975 2.606 . S
Gd925 O977 2.429 . S
Gd925 O978 2.545 . S
Gd925 O979 2.412 . S
Gd925 C992 2.828 . S
C926 C929 1.417 . S
C926 C931 1.431 . S
C926 C932 1.412 . S
C927 C930 1.437 . S
C927 C931 1.317 . S
C927 H946 0.929 . S
C928 C929 1.426 . S
C928 C930 1.413 . S
C928 N938 1.359 . S
C929 C926 1.417 . S
C929 C928 1.426 . S
C929 N934 1.350 . S
C930 C927 1.437 . S
C930 C928 1.413 . S
C930 C940 1.391 . S
C931 C926 1.431 . S
C931 C927 1.317 . S
C931 H942 0.930 . S
C932 C926 1.412 . S
C932 C933 1.355 . S
C932 H944 0.930 . S
C933 C932 1.355 . S
C933 C935 1.402 . S
C933 H945 0.930 . S
N934 Gd925 2.661 . S
N934 C929 1.350 . S
N934 C935 1.307 . S
C935 C933 1.402 . S
C935 N934 1.307 . S
C935 H936 0.930 . S
H936 C935 0.930 . S
C937 N938 1.334 . S
C937 C939 1.394 . S
C937 H941 0.930 . S
N938 Gd925 2.601 . S
N938 C928 1.359 . S
N938 C937 1.334 . S
C939 C937 1.394 . S
C939 C940 1.359 . S
C939 H951 0.930 . S
C940 C930 1.391 . S
C940 C939 1.359 . S
C940 H952 0.929 . S
H941 C937 0.930 . S
H942 C931 0.930 . S
H943 C960 0.930 . S
H944 C932 0.930 . S
H945 C933 0.930 . S
H946 C927 0.929 . S
H947 C965 0.930 . S
H948 C956 0.930 . S
H949 C957 0.930 . S
H950 C981 0.929 . S
H951 C939 0.930 . S
H952 C940 0.929 . S
H953 C982 0.930 . S
H954 C963 0.930 . S
N955 Gd924 2.661 . S
N955 C959 1.350 . S
N955 C960 1.307 . S
C956 H948 0.930 . S
C956 C957 1.355 . S
C956 C958 1.412 . S
C957 H949 0.930 . S
C957 C956 1.355 . S
C957 C960 1.402 . S
C958 C956 1.412 . S
C958 C959 1.417 . S
C958 C982 1.431 . S
C959 N955 1.350 . S
C959 C958 1.417 . S
C959 C962 1.426 . S
C960 H943 0.930 . S
C960 N955 1.307 . S
C960 C957 1.402 . S
N961 Gd924 2.601 . S
N961 C962 1.359 . S
N961 C965 1.334 . S
C962 C959 1.426 . S
C962 N961 1.359 . S
C962 C966 1.413 . S
C963 H954 0.930 . S
C963 C964 1.359 . S
C963 C965 1.394 . S
C964 C963 1.359 . S
C964 C966 1.391 . S
C964 H967 0.929 . S
C965 H947 0.930 . S
C965 N961 1.334 . S
C965 C963 1.394 . S
C966 C962 1.413 . S
C966 C964 1.391 . S
C966 C981 1.437 . S
H967 C964 0.929 . S
O968 Gd924 2.545 . S
O968 C983 1.258 . S
O969 Gd924 2.606 . S
O969 Gd925 2.362 . S
O969 C980 1.284 . S
O970 Gd925 2.324 . S
O970 C990 1.254 . S
O971 Gd924 2.429 . S
O971 C990 1.268 . S
O972 Gd924 2.545 . S
O972 C980 1.250 . S
O973 Gd924 2.412 . S
O973 C983 1.252 . S
O974 Gd925 2.545 . S
O974 C992 1.258 . S
O975 Gd924 2.362 . S
O975 Gd925 2.606 . S
O975 C991 1.284 . S
O976 Gd924 2.324 . S
O976 C999 1.254 . S
O977 Gd925 2.429 . S
O977 C999 1.268 . S
O978 Gd925 2.545 . S
O978 C991 1.250 . S
O979 Gd925 2.412 . S
O979 C992 1.252 . S
C980 O969 1.284 . S
C980 O972 1.250 . S
C981 H950 0.929 . S
C981 C966 1.437 . S
C981 C982 1.317 . S
C982 H953 0.930 . S
C982 C958 1.431 . S
C982 C981 1.317 . S
C983 Gd924 2.828 . S
C983 O968 1.258 . S
C983 O973 1.252 . S
C983 C984 1.497 . S
C984 C983 1.497 . S
C984 C985 1.395 . S
C984 C986 1.380 . S
C985 C984 1.395 . S
C985 C988 1.398 . S
C985 H1000 0.930 . S
C986 C984 1.380 . S
C986 C987 1.391 . S
C986 H1001 0.930 . S
C987 C986 1.391 . S
C987 C989 1.387 . S
C988 C985 1.398 . S
C988 C989 1.380 . S
C988 H1002 0.930 . S
C989 C987 1.387 . S
C989 C988 1.380 . S
C989 H1003 0.930 . S
C990 O970 1.254 . S
C990 O971 1.268 . S
C991 O975 1.284 . S
C991 O978 1.250 . S
C992 Gd925 2.828 . S
C992 O974 1.258 . S
C992 O979 1.252 . S
C992 C993 1.497 . S
C993 C992 1.497 . S
C993 C994 1.395 . S
C993 C995 1.380 . S
C994 C993 1.395 . S
C994 C997 1.398 . S
C994 H1004 0.930 . S
C995 C993 1.380 . S
C995 C996 1.391 . S
C995 H1005 0.930 . S
C996 C995 1.391 . S
C996 C998 1.387 . S
C997 C994 1.398 . S
C997 C998 1.380 . S
C997 H1006 0.930 . S
C998 C996 1.387 . S
C998 C997 1.380 . S
C998 H1007 0.930 . S
C999 O976 1.254 . S
C999 O977 1.268 . S
H1000 C985 0.930 . S
H1001 C986 0.930 . S
H1002 C988 0.930 . S
H1003 C989 0.930 . S
H1004 C994 0.930 . S
H1005 C995 0.930 . S
H1006 C997 0.930 . S
H1007 C998 0.930 . S
Gd1008 N1039 2.661 1_554 S
Gd1008 N1045 2.601 1_554 S
Gd1008 O1052 2.545 . S
Gd1008 O1053 2.606 . S
Gd1008 O1055 2.429 . S
Gd1008 O1056 2.545 . S
Gd1008 O1057 2.412 . S
Gd1008 O1059 2.362 1_554 S
Gd1008 O1060 2.324 . S
Gd1008 C1067 2.828 . S
Gd1009 N1018 2.661 . S
Gd1009 N1022 2.601 . S
Gd1009 O1053 2.362 . S
Gd1009 O1054 2.324 . S
Gd1009 O1058 2.545 . S
Gd1009 O1059 2.606 1_554 S
Gd1009 O1061 2.429 . S
Gd1009 O1062 2.545 1_554 S
Gd1009 O1063 2.412 . S
Gd1009 C1076 2.828 . S
C1010 C1013 1.417 . S
C1010 C1015 1.431 . S
C1010 C1016 1.412 . S
C1011 C1014 1.437 . S
C1011 C1015 1.317 . S
C1011 H1030 0.929 . S
C1012 C1013 1.426 . S
C1012 C1014 1.413 . S
C1012 N1022 1.359 . S
C1013 C1010 1.417 . S
C1013 C1012 1.426 . S
C1013 N1018 1.350 . S
C1014 C1011 1.437 . S
C1014 C1012 1.413 . S
C1014 C1024 1.391 . S
C1015 C1010 1.431 . S
C1015 C1011 1.317 . S
C1015 H1026 0.930 . S
C1016 C1010 1.412 . S
C1016 C1017 1.355 . S
C1016 H1028 0.930 . S
C1017 C1016 1.355 . S
C1017 C1019 1.402 . S
C1017 H1029 0.930 . S
N1018 Gd1009 2.661 . S
N1018 C1013 1.350 . S
N1018 C1019 1.307 . S
C1019 C1017 1.402 . S
C1019 N1018 1.307 . S
C1019 H1020 0.930 . S
H1020 C1019 0.930 . S
C1021 N1022 1.334 . S
C1021 C1023 1.394 . S
C1021 H1025 0.930 . S
N1022 Gd1009 2.601 . S
N1022 C1012 1.359 . S
N1022 C1021 1.334 . S
C1023 C1021 1.394 . S
C1023 C1024 1.359 . S
C1023 H1035 0.930 . S
C1024 C1014 1.391 . S
C1024 C1023 1.359 . S
C1024 H1036 0.929 . S
H1025 C1021 0.930 . S
H1026 C1015 0.930 . S
H1027 C1044 0.930 . S
H1028 C1016 0.930 . S
H1029 C1017 0.930 . S
H1030 C1011 0.929 . S
H1031 C1049 0.930 . S
H1032 C1040 0.930 . S
H1033 C1041 0.930 . S
H1034 C1065 0.929 . S
H1035 C1023 0.930 . S
H1036 C1024 0.929 . S
H1037 C1066 0.930 . S
H1038 C1047 0.930 . S
N1039 Gd1008 2.661 1_556 S
N1039 C1043 1.350 . S
N1039 C1044 1.307 . S
C1040 H1032 0.930 . S
C1040 C1041 1.355 . S
C1040 C1042 1.412 . S
C1041 H1033 0.930 . S
C1041 C1040 1.355 . S
C1041 C1044 1.402 . S
C1042 C1040 1.412 . S
C1042 C1043 1.417 . S
C1042 C1066 1.431 . S
C1043 N1039 1.350 . S
C1043 C1042 1.417 . S
C1043 C1046 1.426 . S
C1044 H1027 0.930 . S
C1044 N1039 1.307 . S
C1044 C1041 1.402 . S
N1045 Gd1008 2.601 1_556 S
N1045 C1046 1.359 . S
N1045 C1049 1.334 . S
C1046 C1043 1.426 . S
C1046 N1045 1.359 . S
C1046 C1050 1.413 . S
C1047 H1038 0.930 . S
C1047 C1048 1.359 . S
C1047 C1049 1.394 . S
C1048 C1047 1.359 . S
C1048 C1050 1.391 . S
C1048 H1051 0.929 . S
C1049 H1031 0.930 . S
C1049 N1045 1.334 . S
C1049 C1047 1.394 . S
C1050 C1046 1.413 . S
C1050 C1048 1.391 . S
C1050 C1065 1.437 . S
H1051 C1048 0.929 . S
O1052 Gd1008 2.545 . S
O1052 C1067 1.258 . S
O1053 Gd1008 2.606 . S
O1053 Gd1009 2.362 . S
O1053 C1064 1.284 . S
O1054 Gd1009 2.324 . S
O1054 C1074 1.254 . S
O1055 Gd1008 2.429 . S
O1055 C1074 1.268 . S
O1056 Gd1008 2.545 . S
O1056 C1064 1.250 . S
O1057 Gd1008 2.412 . S
O1057 C1067 1.252 . S
O1058 Gd1009 2.545 . S
O1058 C1076 1.258 . S
O1059 Gd1008 2.362 1_556 S
O1059 Gd1009 2.606 1_556 S
O1059 C1075 1.284 . S
O1060 Gd1008 2.324 . S
O1060 C1083 1.254 . S
O1061 Gd1009 2.429 . S
O1061 C1083 1.268 . S
O1062 Gd1009 2.545 1_556 S
O1062 C1075 1.250 . S
O1063 Gd1009 2.412 . S
O1063 C1076 1.252 . S
C1064 O1053 1.284 . S
C1064 O1056 1.250 . S
C1065 H1034 0.929 . S
C1065 C1050 1.437 . S
C1065 C1066 1.317 . S
C1066 H1037 0.930 . S
C1066 C1042 1.431 . S
C1066 C1065 1.317 . S
C1067 Gd1008 2.828 . S
C1067 O1052 1.258 . S
C1067 O1057 1.252 . S
C1067 C1068 1.497 . S
C1068 C1067 1.497 . S
C1068 C1069 1.395 . S
C1068 C1070 1.380 . S
C1069 C1068 1.395 . S
C1069 C1072 1.398 . S
C1069 H1084 0.930 . S
C1070 C1068 1.380 . S
C1070 C1071 1.391 . S
C1070 H1085 0.930 . S
C1071 C1070 1.391 . S
C1071 C1073 1.387 . S
C1072 C1069 1.398 . S
C1072 C1073 1.380 . S
C1072 H1086 0.930 . S
C1073 C1071 1.387 . S
C1073 C1072 1.380 . S
C1073 H1087 0.930 . S
C1074 O1054 1.254 . S
C1074 O1055 1.268 . S
C1075 O1059 1.284 . S
C1075 O1062 1.250 . S
C1076 Gd1009 2.828 . S
C1076 O1058 1.258 . S
C1076 O1063 1.252 . S
C1076 C1077 1.497 . S
C1077 C1076 1.497 . S
C1077 C1078 1.395 . S
C1077 C1079 1.380 . S
C1078 C1077 1.395 . S
C1078 C1081 1.398 . S
C1078 H1088 0.930 . S
C1079 C1077 1.380 . S
C1079 C1080 1.415 . S
C1079 H1089 0.930 . S
C1080 C1079 1.415 . S
C1080 C1082 1.402 . S
C1081 C1078 1.398 . S
C1081 C1082 1.380 . S
C1081 H1090 0.930 . S
C1082 C1080 1.402 . S
C1082 C1081 1.380 . S
C1082 H1091 0.930 . S
C1083 O1060 1.254 . S
C1083 O1061 1.268 . S
H1084 C1069 0.930 . S
H1085 C1070 0.930 . S
H1086 C1072 0.930 . S
H1087 C1073 0.930 . S
H1088 C1078 0.930 . S
H1089 C1079 0.930 . S
H1090 C1081 0.930 . S
H1091 C1082 0.930 . S
Gd1092 N1123 2.661 . S
Gd1092 N1129 2.601 . S
Gd1092 O1136 2.545 . S
Gd1092 O1137 2.606 . S
Gd1092 O1139 2.429 . S
Gd1092 O1140 2.545 . S
Gd1092 O1141 2.412 . S
Gd1092 O1143 2.362 . S
Gd1092 O1144 2.324 . S
Gd1092 C1151 2.828 . S
Gd1093 N1102 2.661 . S
Gd1093 N1106 2.601 . S
Gd1093 O1137 2.362 . S
Gd1093 O1138 2.324 . S
Gd1093 O1142 2.545 . S
Gd1093 O1143 2.606 . S
Gd1093 O1145 2.429 . S
Gd1093 O1146 2.545 . S
Gd1093 O1147 2.412 . S
Gd1093 C1160 2.828 . S
C1094 C1097 1.417 . S
C1094 C1099 1.431 . S
C1094 C1100 1.412 . S
C1095 C1098 1.437 . S
C1095 C1099 1.317 . S
C1095 H1114 0.929 . S
C1096 C1097 1.426 . S
C1096 C1098 1.413 . S
C1096 N1106 1.359 . S
C1097 C1094 1.417 . S
C1097 C1096 1.426 . S
C1097 N1102 1.350 . S
C1098 C1095 1.437 . S
C1098 C1096 1.413 . S
C1098 C1108 1.391 . S
C1099 C1094 1.431 . S
C1099 C1095 1.317 . S
C1099 H1110 0.930 . S
C1100 C1094 1.412 . S
C1100 C1101 1.355 . S
C1100 H1112 0.930 . S
C1101 C1100 1.355 . S
C1101 C1103 1.402 . S
C1101 H1113 0.930 . S
N1102 Gd1093 2.661 . S
N1102 C1097 1.350 . S
N1102 C1103 1.307 . S
C1103 C1101 1.402 . S
C1103 N1102 1.307 . S
C1103 H1104 0.930 . S
H1104 C1103 0.930 . S
C1105 N1106 1.334 . S
C1105 C1107 1.394 . S
C1105 H1109 0.930 . S
N1106 Gd1093 2.601 . S
N1106 C1096 1.359 . S
N1106 C1105 1.334 . S
C1107 C1105 1.394 . S
C1107 C1108 1.359 . S
C1107 H1119 0.930 . S
C1108 C1098 1.391 . S
C1108 C1107 1.359 . S
C1108 H1120 0.929 . S
H1109 C1105 0.930 . S
H1110 C1099 0.930 . S
H1111 C1128 0.930 . S
H1112 C1100 0.930 . S
H1113 C1101 0.930 . S
H1114 C1095 0.929 . S
H1115 C1133 0.930 . S
H1116 C1124 0.930 . S
H1117 C1125 0.930 . S
H1118 C1149 0.929 . S
H1119 C1107 0.930 . S
H1120 C1108 0.929 . S
H1121 C1150 0.930 . S
H1122 C1131 0.930 . S
N1123 Gd1092 2.661 . S
N1123 C1127 1.350 . S
N1123 C1128 1.307 . S
C1124 H1116 0.930 . S
C1124 C1125 1.355 . S
C1124 C1126 1.412 . S
C1125 H1117 0.930 . S
C1125 C1124 1.355 . S
C1125 C1128 1.402 . S
C1126 C1124 1.412 . S
C1126 C1127 1.417 . S
C1126 C1150 1.431 . S
C1127 N1123 1.350 . S
C1127 C1126 1.417 . S
C1127 C1130 1.426 . S
C1128 H1111 0.930 . S
C1128 N1123 1.307 . S
C1128 C1125 1.402 . S
N1129 Gd1092 2.601 . S
N1129 C1130 1.359 . S
N1129 C1133 1.334 . S
C1130 C1127 1.426 . S
C1130 N1129 1.359 . S
C1130 C1134 1.413 . S
C1131 H1122 0.930 . S
C1131 C1132 1.359 . S
C1131 C1133 1.394 . S
C1132 C1131 1.359 . S
C1132 C1134 1.391 . S
C1132 H1135 0.929 . S
C1133 H1115 0.930 . S
C1133 N1129 1.334 . S
C1133 C1131 1.394 . S
C1134 C1130 1.413 . S
C1134 C1132 1.391 . S
C1134 C1149 1.437 . S
H1135 C1132 0.929 . S
O1136 Gd1092 2.545 . S
O1136 C1151 1.258 . S
O1137 Gd1092 2.606 . S
O1137 Gd1093 2.362 . S
O1137 C1148 1.284 . S
O1138 Gd1093 2.324 . S
O1138 C1158 1.254 . S
O1139 Gd1092 2.429 . S
O1139 C1158 1.268 . S
O1140 Gd1092 2.545 . S
O1140 C1148 1.250 . S
O1141 Gd1092 2.412 . S
O1141 C1151 1.252 . S
O1142 Gd1093 2.545 . S
O1142 C1160 1.258 . S
O1143 Gd1092 2.362 . S
O1143 Gd1093 2.606 . S
O1143 C1159 1.284 . S
O1144 Gd1092 2.324 . S
O1144 C1167 1.254 . S
O1145 Gd1093 2.429 . S
O1145 C1167 1.268 . S
O1146 Gd1093 2.545 . S
O1146 C1159 1.250 . S
O1147 Gd1093 2.412 . S
O1147 C1160 1.252 . S
C1148 O1137 1.284 . S
C1148 O1140 1.250 . S
C1149 H1118 0.929 . S
C1149 C1134 1.437 . S
C1149 C1150 1.317 . S
C1150 H1121 0.930 . S
C1150 C1126 1.431 . S
C1150 C1149 1.317 . S
C1151 Gd1092 2.828 . S
C1151 O1136 1.258 . S
C1151 O1141 1.252 . S
C1151 C1152 1.497 . S
C1152 C1151 1.497 . S
C1152 C1153 1.395 . S
C1152 C1154 1.380 . S
C1153 C1152 1.395 . S
C1153 C1156 1.398 . S
C1153 H1168 0.930 . S
C1154 C1152 1.380 . S
C1154 C1155 1.391 . S
C1154 H1169 0.930 . S
C1155 C1154 1.391 . S
C1155 C1157 1.387 . S
C1156 C1153 1.398 . S
C1156 C1157 1.380 . S
C1156 H1170 0.930 . S
C1157 C1155 1.387 . S
C1157 C1156 1.380 . S
C1157 H1171 0.930 . S
C1158 O1138 1.254 . S
C1158 O1139 1.268 . S
C1159 O1143 1.284 . S
C1159 O1146 1.250 . S
C1160 Gd1093 2.828 . S
C1160 O1142 1.258 . S
C1160 O1147 1.252 . S
C1160 C1161 1.497 . S
C1161 C1160 1.497 . S
C1161 C1162 1.395 . S
C1161 C1163 1.380 . S
C1162 C1161 1.395 . S
C1162 C1165 1.398 . S
C1162 H1172 0.930 . S
C1163 C1161 1.380 . S
C1163 C1164 1.391 . S
C1163 H1173 0.930 . S
C1164 C1163 1.391 . S
C1164 C1166 1.387 . S
C1165 C1162 1.398 . S
C1165 C1166 1.380 . S
C1165 H1174 0.930 . S
C1166 C1164 1.387 . S
C1166 C1165 1.380 . S
C1166 H1175 0.930 . S
C1167 O1144 1.254 . S
C1167 O1145 1.268 . S
H1168 C1153 0.930 . S
H1169 C1154 0.930 . S
H1170 C1156 0.930 . S
H1171 C1157 0.930 . S
H1172 C1162 0.930 . S
H1173 C1163 0.930 . S
H1174 C1165 0.930 . S
H1175 C1166 0.930 . S
Gd1176 N1207 2.661 . S
Gd1176 N1213 2.601 . S
Gd1176 O1220 2.545 . S
Gd1176 O1221 2.606 . S
Gd1176 O1223 2.429 . S
Gd1176 O1224 2.545 . S
Gd1176 O1225 2.412 . S
Gd1176 O1227 2.362 . S
Gd1176 O1228 2.324 . S
Gd1176 C1235 2.828 . S
Gd1177 N1186 2.661 . S
Gd1177 N1190 2.601 . S
Gd1177 O1221 2.362 . S
Gd1177 O1222 2.324 . S
Gd1177 O1226 2.545 . S
Gd1177 O1227 2.606 . S
Gd1177 O1229 2.429 . S
Gd1177 O1230 2.545 . S
Gd1177 O1231 2.412 . S
Gd1177 C1244 2.828 . S
C1178 C1181 1.417 . S
C1178 C1183 1.431 . S
C1178 C1184 1.412 . S
C1179 C1182 1.437 . S
C1179 C1183 1.317 . S
C1179 H1198 0.929 . S
C1180 C1181 1.426 . S
C1180 C1182 1.413 . S
C1180 N1190 1.359 . S
C1181 C1178 1.417 . S
C1181 C1180 1.426 . S
C1181 N1186 1.350 . S
C1182 C1179 1.437 . S
C1182 C1180 1.413 . S
C1182 C1192 1.391 . S
C1183 C1178 1.431 . S
C1183 C1179 1.317 . S
C1183 H1194 0.930 . S
C1184 C1178 1.412 . S
C1184 C1185 1.355 . S
C1184 H1196 0.930 . S
C1185 C1184 1.355 . S
C1185 C1187 1.402 . S
C1185 H1197 0.930 . S
N1186 Gd1177 2.661 . S
N1186 C1181 1.350 . S
N1186 C1187 1.307 . S
C1187 C1185 1.402 . S
C1187 N1186 1.307 . S
C1187 H1188 0.930 . S
H1188 C1187 0.930 . S
C1189 N1190 1.334 . S
C1189 C1191 1.394 . S
C1189 H1193 0.930 . S
N1190 Gd1177 2.601 . S
N1190 C1180 1.359 . S
N1190 C1189 1.334 . S
C1191 C1189 1.394 . S
C1191 C1192 1.359 . S
C1191 H1203 0.930 . S
C1192 C1182 1.391 . S
C1192 C1191 1.359 . S
C1192 H1204 0.929 . S
H1193 C1189 0.930 . S
H1194 C1183 0.930 . S
H1195 C1212 0.930 . S
H1196 C1184 0.930 . S
H1197 C1185 0.930 . S
H1198 C1179 0.929 . S
H1199 C1217 0.930 . S
H1200 C1208 0.930 . S
H1201 C1209 0.930 . S
H1202 C1233 0.929 . S
H1203 C1191 0.930 . S
H1204 C1192 0.929 . S
H1205 C1234 0.930 . S
H1206 C1215 0.930 . S
N1207 Gd1176 2.661 . S
N1207 C1211 1.383 . S
N1207 C1212 1.307 . S
C1208 H1200 0.930 . S
C1208 C1209 1.355 . S
C1208 C1210 1.412 . S
C1209 H1201 0.930 . S
C1209 C1208 1.355 . S
C1209 C1212 1.402 1_655 S
C1210 C1208 1.412 . S
C1210 C1211 1.390 1_655 S
C1210 C1234 1.431 . S
C1211 N1207 1.383 . S
C1211 C1210 1.390 1_455 S
C1211 C1214 1.422 . S
C1212 H1195 0.930 . S
C1212 N1207 1.307 . S
C1212 C1209 1.402 1_455 S
N1213 Gd1176 2.601 . S
N1213 C1214 1.359 . S
N1213 C1217 1.334 . S
C1214 C1211 1.422 . S
C1214 N1213 1.359 . S
C1214 C1218 1.413 1_455 S
C1215 H1206 0.930 . S
C1215 C1216 1.359 1_455 S
C1215 C1217 1.394 . S
C1216 C1215 1.359 1_655 S
C1216 C1218 1.391 . S
C1216 H1219 0.929 . S
C1217 H1199 0.930 . S
C1217 N1213 1.334 . S
C1217 C1215 1.394 . S
C1218 C1214 1.413 1_655 S
C1218 C1216 1.391 . S
C1218 C1233 1.437 . S
H1219 C1216 0.929 . S
O1220 Gd1176 2.545 . S
O1220 C1235 1.258 . S
O1221 Gd1176 2.606 . S
O1221 Gd1177 2.362 . S
O1221 C1232 1.284 . S
O1222 Gd1177 2.324 . S
O1222 C1242 1.254 . S
O1223 Gd1176 2.429 . S
O1223 C1242 1.268 . S
O1224 Gd1176 2.545 . S
O1224 C1232 1.250 . S
O1225 Gd1176 2.412 . S
O1225 C1235 1.252 . S
O1226 Gd1177 2.545 . S
O1226 C1244 1.258 . S
O1227 Gd1176 2.362 . S
O1227 Gd1177 2.606 . S
O1227 C1243 1.284 . S
O1228 Gd1176 2.324 . S
O1228 C1251 1.254 . S
O1229 Gd1177 2.429 . S
O1229 C1251 1.268 . S
O1230 Gd1177 2.545 . S
O1230 C1243 1.250 . S
O1231 Gd1177 2.412 . S
O1231 C1244 1.252 . S
C1232 O1221 1.284 . S
C1232 O1224 1.250 . S
C1233 H1202 0.929 . S
C1233 C1218 1.437 . S
C1233 C1234 1.317 . S
C1234 H1205 0.930 . S
C1234 C1210 1.431 . S
C1234 C1233 1.317 . S
C1235 Gd1176 2.828 . S
C1235 O1220 1.258 . S
C1235 O1225 1.252 . S
C1235 C1236 1.497 . S
C1236 C1235 1.497 . S
C1236 C1237 1.395 . S
C1236 C1238 1.380 . S
C1237 C1236 1.395 . S
C1237 C1240 1.398 . S
C1237 H1252 0.930 . S
C1238 C1236 1.380 . S
C1238 C1239 1.391 . S
C1238 H1253 0.930 . S
C1239 C1238 1.391 . S
C1239 C1241 1.387 . S
C1240 C1237 1.398 . S
C1240 C1241 1.380 . S
C1240 H1254 0.930 . S
C1241 C1239 1.387 . S
C1241 C1240 1.380 . S
C1241 H1255 0.930 . S
C1242 O1222 1.254 . S
C1242 O1223 1.268 . S
C1243 O1227 1.284 . S
C1243 O1230 1.250 . S
C1244 Gd1177 2.828 . S
C1244 O1226 1.258 . S
C1244 O1231 1.252 . S
C1244 C1245 1.497 . S
C1245 C1244 1.497 . S
C1245 C1246 1.395 . S
C1245 C1247 1.380 . S
C1246 C1245 1.395 . S
C1246 C1249 1.398 . S
C1246 H1256 0.930 . S
C1247 C1245 1.380 . S
C1247 C1248 1.391 . S
C1247 H1257 0.930 . S
C1248 C1247 1.391 . S
C1248 C1250 1.387 . S
C1249 C1246 1.398 . S
C1249 C1250 1.380 . S
C1249 H1258 0.930 . S
C1250 C1248 1.387 . S
C1250 C1249 1.380 . S
C1250 H1259 0.930 . S
C1251 O1228 1.254 . S
C1251 O1229 1.268 . S
H1252 C1237 0.930 . S
H1253 C1238 0.930 . S
H1254 C1240 0.930 . S
H1255 C1241 0.930 . S
H1256 C1246 0.930 . S
H1257 C1247 0.930 . S
H1258 C1249 0.930 . S
H1259 C1250 0.930 . S
Gd1260 N1291 2.661 . S
Gd1260 N1297 2.601 . S
Gd1260 O1304 2.545 . S
Gd1260 O1305 2.606 . S
Gd1260 O1307 2.429 . S
Gd1260 O1308 2.545 . S
Gd1260 O1309 2.412 . S
Gd1260 O1311 2.362 . S
Gd1260 O1312 2.324 . S
Gd1260 C1319 2.828 . S
Gd1261 N1270 2.661 . S
Gd1261 N1274 2.601 . S
Gd1261 O1305 2.362 . S
Gd1261 O1306 2.324 . S
Gd1261 O1310 2.545 . S
Gd1261 O1311 2.606 . S
Gd1261 O1313 2.429 . S
Gd1261 O1314 2.545 . S
Gd1261 O1315 2.412 . S
Gd1261 C1328 2.828 . S
C1262 C1265 1.417 . S
C1262 C1267 1.431 . S
C1262 C1268 1.412 . S
C1263 C1266 1.437 . S
C1263 C1267 1.317 . S
C1263 H1282 0.929 . S
C1264 C1265 1.426 . S
C1264 C1266 1.413 . S
C1264 N1274 1.359 . S
C1265 C1262 1.417 . S
C1265 C1264 1.426 . S
C1265 N1270 1.350 . S
C1266 C1263 1.437 . S
C1266 C1264 1.413 . S
C1266 C1276 1.391 . S
C1267 C1262 1.431 . S
C1267 C1263 1.317 . S
C1267 H1278 0.930 . S
C1268 C1262 1.412 . S
C1268 C1269 1.355 . S
C1268 H1280 0.930 . S
C1269 C1268 1.355 . S
C1269 C1271 1.402 . S
C1269 H1281 0.930 . S
N1270 Gd1261 2.661 . S
N1270 C1265 1.350 . S
N1270 C1271 1.307 . S
C1271 C1269 1.402 . S
C1271 N1270 1.307 . S
C1271 H1272 0.930 . S
H1272 C1271 0.930 . S
C1273 N1274 1.334 . S
C1273 C1275 1.394 . S
C1273 H1277 0.930 . S
N1274 Gd1261 2.601 . S
N1274 C1264 1.359 . S
N1274 C1273 1.334 . S
C1275 C1273 1.394 . S
C1275 C1276 1.359 . S
C1275 H1287 0.930 . S
C1276 C1266 1.391 . S
C1276 C1275 1.359 . S
C1276 H1288 0.929 . S
H1277 C1273 0.930 . S
H1278 C1267 0.930 . S
H1279 C1296 0.930 . S
H1280 C1268 0.930 . S
H1281 C1269 0.930 . S
H1282 C1263 0.929 . S
H1283 C1301 0.930 . S
H1284 C1292 0.930 . S
H1285 C1293 0.930 . S
H1286 C1317 0.929 . S
H1287 C1275 0.930 . S
H1288 C1276 0.929 . S
H1289 C1318 0.930 . S
H1290 C1299 0.930 . S
N1291 Gd1260 2.661 . S
N1291 C1295 1.350 . S
N1291 C1296 1.307 . S
C1292 H1284 0.930 . S
C1292 C1293 1.355 . S
C1292 C1294 1.412 . S
C1293 H1285 0.930 . S
C1293 C1292 1.355 . S
C1293 C1296 1.402 . S
C1294 C1292 1.412 . S
C1294 C1295 1.417 . S
C1294 C1318 1.431 . S
C1295 N1291 1.350 . S
C1295 C1294 1.417 . S
C1295 C1298 1.426 . S
C1296 H1279 0.930 . S
C1296 N1291 1.307 . S
C1296 C1293 1.402 . S
N1297 Gd1260 2.601 . S
N1297 C1298 1.359 . S
N1297 C1301 1.334 . S
C1298 C1295 1.426 . S
C1298 N1297 1.359 . S
C1298 C1302 1.413 . S
C1299 H1290 0.930 . S
C1299 C1300 1.359 . S
C1299 C1301 1.394 . S
C1300 C1299 1.359 . S
C1300 C1302 1.391 . S
C1300 H1303 0.929 . S
C1301 H1283 0.930 . S
C1301 N1297 1.334 . S
C1301 C1299 1.394 . S
C1302 C1298 1.413 . S
C1302 C1300 1.391 . S
C1302 C1317 1.437 . S
H1303 C1300 0.929 . S
O1304 Gd1260 2.545 . S
O1304 C1319 1.258 . S
O1305 Gd1260 2.606 . S
O1305 Gd1261 2.362 . S
O1305 C1316 1.284 . S
O1306 Gd1261 2.324 . S
O1306 C1326 1.254 . S
O1307 Gd1260 2.429 . S
O1307 C1326 1.268 . S
O1308 Gd1260 2.545 . S
O1308 C1316 1.250 . S
O1309 Gd1260 2.412 . S
O1309 C1319 1.252 . S
O1310 Gd1261 2.545 . S
O1310 C1328 1.258 . S
O1311 Gd1260 2.362 . S
O1311 Gd1261 2.606 . S
O1311 C1327 1.284 . S
O1312 Gd1260 2.324 . S
O1312 C1335 1.254 . S
O1313 Gd1261 2.429 . S
O1313 C1335 1.268 . S
O1314 Gd1261 2.545 . S
O1314 C1327 1.250 . S
O1315 Gd1261 2.412 . S
O1315 C1328 1.252 . S
C1316 O1305 1.284 . S
C1316 O1308 1.250 . S
C1317 H1286 0.929 . S
C1317 C1302 1.437 . S
C1317 C1318 1.317 . S
C1318 H1289 0.930 . S
C1318 C1294 1.431 . S
C1318 C1317 1.317 . S
C1319 Gd1260 2.828 . S
C1319 O1304 1.258 . S
C1319 O1309 1.252 . S
C1319 C1320 1.497 . S
C1320 C1319 1.497 . S
C1320 C1321 1.395 . S
C1320 C1322 1.380 . S
C1321 C1320 1.395 . S
C1321 C1324 1.398 . S
C1321 H1336 0.930 . S
C1322 C1320 1.380 . S
C1322 C1323 1.391 . S
C1322 H1337 0.930 . S
C1323 C1322 1.391 . S
C1323 C1325 1.387 . S
C1324 C1321 1.398 . S
C1324 C1325 1.380 . S
C1324 H1338 0.930 . S
C1325 C1323 1.387 . S
C1325 C1324 1.380 . S
C1325 H1339 0.930 . S
C1326 O1306 1.254 . S
C1326 O1307 1.268 . S
C1327 O1311 1.284 . S
C1327 O1314 1.250 . S
C1328 Gd1261 2.828 . S
C1328 O1310 1.258 . S
C1328 O1315 1.252 . S
C1328 C1329 1.497 . S
C1329 C1328 1.497 . S
C1329 C1330 1.395 . S
C1329 C1331 1.380 . S
C1330 C1329 1.395 . S
C1330 C1333 1.398 . S
C1330 H1340 0.930 . S
C1331 C1329 1.380 . S
C1331 C1332 1.391 . S
C1331 H1341 0.930 . S
C1332 C1331 1.391 . S
C1332 C1334 1.387 . S
C1333 C1330 1.398 . S
C1333 C1334 1.380 . S
C1333 H1342 0.930 . S
C1334 C1332 1.387 . S
C1334 C1333 1.380 . S
C1334 H1343 0.930 . S
C1335 O1312 1.254 . S
C1335 O1313 1.268 . S
H1336 C1321 0.930 . S
H1337 C1322 0.930 . S
H1338 C1324 0.930 . S
H1339 C1325 0.930 . S
H1340 C1330 0.930 . S
H1341 C1331 0.930 . S
H1342 C1333 0.930 . S
H1343 C1334 0.930 . S
Gd1344 N1375 2.661 . S
Gd1344 N1381 2.601 . S
Gd1344 O1388 2.545 . S
Gd1344 O1389 2.606 . S
Gd1344 O1391 2.429 . S
Gd1344 O1392 2.545 . S
Gd1344 O1393 2.412 . S
Gd1344 O1395 2.362 . S
Gd1344 O1396 2.324 . S
Gd1344 C1403 2.828 . S
Gd1345 N1354 2.661 . S
Gd1345 N1358 2.601 . S
Gd1345 O1389 2.362 . S
Gd1345 O1390 2.324 . S
Gd1345 O1394 2.545 . S
Gd1345 O1395 2.606 . S
Gd1345 O1397 2.429 . S
Gd1345 O1398 2.545 . S
Gd1345 O1399 2.412 . S
Gd1345 C1412 2.828 . S
C1346 C1349 1.417 . S
C1346 C1351 1.431 . S
C1346 C1352 1.412 . S
C1347 C1350 1.437 . S
C1347 C1351 1.317 . S
C1347 H1366 0.929 . S
C1348 C1349 1.426 . S
C1348 C1350 1.413 . S
C1348 N1358 1.359 . S
C1349 C1346 1.417 . S
C1349 C1348 1.426 . S
C1349 N1354 1.350 . S
C1350 C1347 1.437 . S
C1350 C1348 1.413 . S
C1350 C1360 1.391 . S
C1351 C1346 1.431 . S
C1351 C1347 1.317 . S
C1351 H1362 0.930 . S
C1352 C1346 1.412 . S
C1352 C1353 1.355 . S
C1352 H1364 0.930 . S
C1353 C1352 1.355 . S
C1353 C1355 1.402 . S
C1353 H1365 0.930 . S
N1354 Gd1345 2.661 . S
N1354 C1349 1.350 . S
N1354 C1355 1.307 . S
C1355 C1353 1.402 . S
C1355 N1354 1.307 . S
C1355 H1356 0.930 . S
H1356 C1355 0.930 . S
C1357 N1358 1.334 . S
C1357 C1359 1.394 . S
C1357 H1361 0.930 . S
N1358 Gd1345 2.601 . S
N1358 C1348 1.359 . S
N1358 C1357 1.334 . S
C1359 C1357 1.394 . S
C1359 C1360 1.359 . S
C1359 H1371 0.930 . S
C1360 C1350 1.391 . S
C1360 C1359 1.359 . S
C1360 H1372 0.929 . S
H1361 C1357 0.930 . S
H1362 C1351 0.930 . S
H1363 C1380 0.930 . S
H1364 C1352 0.930 . S
H1365 C1353 0.930 . S
H1366 C1347 0.929 . S
H1367 C1385 0.930 . S
H1368 C1376 0.930 . S
H1369 C1377 0.930 . S
H1370 C1401 0.929 . S
H1371 C1359 0.930 . S
H1372 C1360 0.929 . S
H1373 C1402 0.930 . S
H1374 C1383 0.930 . S
N1375 Gd1344 2.661 . S
N1375 C1379 1.350 . S
N1375 C1380 1.307 . S
C1376 H1368 0.930 . S
C1376 C1377 1.355 . S
C1376 C1378 1.412 . S
C1377 H1369 0.930 . S
C1377 C1376 1.355 . S
C1377 C1380 1.402 . S
C1378 C1376 1.412 . S
C1378 C1379 1.417 . S
C1378 C1402 1.431 . S
C1379 N1375 1.350 . S
C1379 C1378 1.417 . S
C1379 C1382 1.426 . S
C1380 H1363 0.930 . S
C1380 N1375 1.307 . S
C1380 C1377 1.402 . S
N1381 Gd1344 2.601 . S
N1381 C1382 1.359 . S
N1381 C1385 1.334 . S
C1382 C1379 1.426 . S
C1382 N1381 1.359 . S
C1382 C1386 1.413 . S
C1383 H1374 0.930 . S
C1383 C1384 1.359 . S
C1383 C1385 1.394 . S
C1384 C1383 1.359 . S
C1384 C1386 1.391 . S
C1384 H1387 0.929 . S
C1385 H1367 0.930 . S
C1385 N1381 1.334 . S
C1385 C1383 1.394 . S
C1386 C1382 1.413 . S
C1386 C1384 1.391 . S
C1386 C1401 1.437 . S
H1387 C1384 0.929 . S
O1388 Gd1344 2.545 . S
O1388 C1403 1.258 . S
O1389 Gd1344 2.606 . S
O1389 Gd1345 2.362 . S
O1389 C1400 1.284 . S
O1390 Gd1345 2.324 . S
O1390 C1410 1.254 . S
O1391 Gd1344 2.429 . S
O1391 C1410 1.268 . S
O1392 Gd1344 2.545 . S
O1392 C1400 1.250 . S
O1393 Gd1344 2.412 . S
O1393 C1403 1.252 . S
O1394 Gd1345 2.545 . S
O1394 C1412 1.258 . S
O1395 Gd1344 2.362 . S
O1395 Gd1345 2.606 . S
O1395 C1411 1.284 . S
O1396 Gd1344 2.324 . S
O1396 C1419 1.254 . S
O1397 Gd1345 2.429 . S
O1397 C1419 1.268 . S
O1398 Gd1345 2.545 . S
O1398 C1411 1.250 . S
O1399 Gd1345 2.412 . S
O1399 C1412 1.252 . S
C1400 O1389 1.284 . S
C1400 O1392 1.250 . S
C1401 H1370 0.929 . S
C1401 C1386 1.437 . S
C1401 C1402 1.317 . S
C1402 H1373 0.930 . S
C1402 C1378 1.431 . S
C1402 C1401 1.317 . S
C1403 Gd1344 2.828 . S
C1403 O1388 1.258 . S
C1403 O1393 1.252 . S
C1403 C1404 1.497 . S
C1404 C1403 1.497 . S
C1404 C1405 1.395 . S
C1404 C1406 1.380 . S
C1405 C1404 1.395 . S
C1405 C1408 1.398 . S
C1405 H1420 0.930 . S
C1406 C1404 1.380 . S
C1406 C1407 1.391 . S
C1406 H1421 0.930 . S
C1407 C1406 1.391 . S
C1407 C1409 1.387 . S
C1408 C1405 1.398 . S
C1408 C1409 1.380 . S
C1408 H1422 0.930 . S
C1409 C1407 1.387 . S
C1409 C1408 1.380 . S
C1409 H1423 0.930 . S
C1410 O1390 1.254 . S
C1410 O1391 1.268 . S
C1411 O1395 1.284 . S
C1411 O1398 1.250 . S
C1412 Gd1345 2.828 . S
C1412 O1394 1.258 . S
C1412 O1399 1.252 . S
C1412 C1413 1.497 . S
C1413 C1412 1.497 . S
C1413 C1414 1.395 . S
C1413 C1415 1.380 . S
C1414 C1413 1.395 . S
C1414 C1417 1.398 . S
C1414 H1424 0.930 . S
C1415 C1413 1.380 . S
C1415 C1416 1.391 . S
C1415 H1425 0.930 . S
C1416 C1415 1.391 . S
C1416 C1418 1.387 . S
C1417 C1414 1.398 . S
C1417 C1418 1.380 . S
C1417 H1426 0.930 . S
C1418 C1416 1.387 . S
C1418 C1417 1.380 . S
C1418 H1427 0.930 . S
C1419 O1396 1.254 . S
C1419 O1397 1.268 . S
H1420 C1405 0.930 . S
H1421 C1406 0.930 . S
H1422 C1408 0.930 . S
H1423 C1409 0.930 . S
H1424 C1414 0.930 . S
H1425 C1415 0.930 . S
H1426 C1417 0.930 . S
H1427 C1418 0.930 . S
Gd1428 N1459 2.661 . S
Gd1428 N1465 2.601 . S
Gd1428 O1472 2.545 . S
Gd1428 O1473 2.606 . S
Gd1428 O1475 2.429 . S
Gd1428 O1476 2.545 . S
Gd1428 O1477 2.412 . S
Gd1428 O1479 2.362 . S
Gd1428 O1480 2.324 . S
Gd1428 C1487 2.828 . S
Gd1429 N1438 2.661 . S
Gd1429 N1442 2.601 . S
Gd1429 O1473 2.362 . S
Gd1429 O1474 2.324 . S
Gd1429 O1478 2.545 . S
Gd1429 O1479 2.606 . S
Gd1429 O1481 2.429 . S
Gd1429 O1482 2.545 . S
Gd1429 O1483 2.412 . S
Gd1429 C1496 2.828 . S
C1430 C1433 1.417 . S
C1430 C1435 1.431 . S
C1430 C1436 1.412 . S
C1431 C1434 1.437 . S
C1431 C1435 1.317 . S
C1431 H1450 0.929 . S
C1432 C1433 1.426 . S
C1432 C1434 1.413 . S
C1432 N1442 1.359 . S
C1433 C1430 1.417 . S
C1433 C1432 1.426 . S
C1433 N1438 1.350 . S
C1434 C1431 1.437 . S
C1434 C1432 1.413 . S
C1434 C1444 1.391 . S
C1435 C1430 1.431 . S
C1435 C1431 1.317 . S
C1435 H1446 0.930 . S
C1436 C1430 1.412 . S
C1436 C1437 1.355 . S
C1436 H1448 0.930 . S
C1437 C1436 1.355 . S
C1437 C1439 1.402 . S
C1437 H1449 0.930 . S
N1438 Gd1429 2.661 . S
N1438 C1433 1.350 . S
N1438 C1439 1.307 . S
C1439 C1437 1.402 . S
C1439 N1438 1.307 . S
C1439 H1440 0.930 . S
H1440 C1439 0.930 . S
C1441 N1442 1.334 . S
C1441 C1443 1.394 . S
C1441 H1445 0.930 . S
N1442 Gd1429 2.601 . S
N1442 C1432 1.359 . S
N1442 C1441 1.334 . S
C1443 C1441 1.394 . S
C1443 C1444 1.359 . S
C1443 H1455 0.930 . S
C1444 C1434 1.391 . S
C1444 C1443 1.359 . S
C1444 H1456 0.929 . S
H1445 C1441 0.930 . S
H1446 C1435 0.930 . S
H1447 C1464 0.930 . S
H1448 C1436 0.930 . S
H1449 C1437 0.930 . S
H1450 C1431 0.929 . S
H1451 C1469 0.930 . S
H1452 C1460 0.930 . S
H1453 C1461 0.930 . S
H1454 C1485 0.929 . S
H1455 C1443 0.930 . S
H1456 C1444 0.929 . S
H1457 C1486 0.930 . S
H1458 C1467 0.930 . S
N1459 Gd1428 2.661 . S
N1459 C1463 1.350 . S
N1459 C1464 1.307 . S
C1460 H1452 0.930 . S
C1460 C1461 1.355 . S
C1460 C1462 1.412 . S
C1461 H1453 0.930 . S
C1461 C1460 1.355 . S
C1461 C1464 1.402 . S
C1462 C1460 1.412 . S
C1462 C1463 1.417 . S
C1462 C1486 1.431 . S
C1463 N1459 1.350 . S
C1463 C1462 1.417 . S
C1463 C1466 1.426 . S
C1464 H1447 0.930 . S
C1464 N1459 1.307 . S
C1464 C1461 1.402 . S
N1465 Gd1428 2.601 . S
N1465 C1466 1.359 . S
N1465 C1469 1.334 . S
C1466 C1463 1.426 . S
C1466 N1465 1.359 . S
C1466 C1470 1.413 . S
C1467 H1458 0.930 . S
C1467 C1468 1.359 . S
C1467 C1469 1.394 . S
C1468 C1467 1.359 . S
C1468 C1470 1.391 . S
C1468 H1471 0.929 . S
C1469 H1451 0.930 . S
C1469 N1465 1.334 . S
C1469 C1467 1.394 . S
C1470 C1466 1.413 . S
C1470 C1468 1.391 . S
C1470 C1485 1.437 . S
H1471 C1468 0.929 . S
O1472 Gd1428 2.545 . S
O1472 C1487 1.258 . S
O1473 Gd1428 2.606 . S
O1473 Gd1429 2.362 . S
O1473 C1484 1.284 . S
O1474 Gd1429 2.324 . S
O1474 C1494 1.254 . S
O1475 Gd1428 2.429 . S
O1475 C1494 1.268 . S
O1476 Gd1428 2.545 . S
O1476 C1484 1.250 . S
O1477 Gd1428 2.412 . S
O1477 C1487 1.252 . S
O1478 Gd1429 2.545 . S
O1478 C1496 1.258 . S
O1479 Gd1428 2.362 . S
O1479 Gd1429 2.606 . S
O1479 C1495 1.284 . S
O1480 Gd1428 2.324 . S
O1480 C1503 1.254 . S
O1481 Gd1429 2.429 . S
O1481 C1503 1.268 . S
O1482 Gd1429 2.545 . S
O1482 C1495 1.250 . S
O1483 Gd1429 2.412 . S
O1483 C1496 1.252 . S
C1484 O1473 1.284 . S
C1484 O1476 1.250 . S
C1485 H1454 0.929 . S
C1485 C1470 1.437 . S
C1485 C1486 1.317 . S
C1486 H1457 0.930 . S
C1486 C1462 1.431 . S
C1486 C1485 1.317 . S
C1487 Gd1428 2.828 . S
C1487 O1472 1.258 . S
C1487 O1477 1.252 . S
C1487 C1488 1.497 . S
C1488 C1487 1.497 . S
C1488 C1489 1.395 . S
C1488 C1490 1.380 . S
C1489 C1488 1.395 . S
C1489 C1492 1.398 . S
C1489 H1504 0.930 . S
C1490 C1488 1.380 . S
C1490 C1491 1.391 . S
C1490 H1505 0.930 . S
C1491 C1490 1.391 . S
C1491 C1493 1.387 . S
C1492 C1489 1.398 . S
C1492 C1493 1.380 . S
C1492 H1506 0.930 . S
C1493 C1491 1.387 . S
C1493 C1492 1.380 . S
C1493 H1507 0.930 . S
C1494 O1474 1.254 . S
C1494 O1475 1.268 . S
C1495 O1479 1.284 . S
C1495 O1482 1.250 . S
C1496 Gd1429 2.828 . S
C1496 O1478 1.258 . S
C1496 O1483 1.252 . S
C1496 C1497 1.497 . S
C1497 C1496 1.497 . S
C1497 C1498 1.395 . S
C1497 C1499 1.380 . S
C1498 C1497 1.395 . S
C1498 C1501 1.398 . S
C1498 H1508 0.930 . S
C1499 C1497 1.380 . S
C1499 C1500 1.391 . S
C1499 H1509 0.930 . S
C1500 C1499 1.391 . S
C1500 C1502 1.387 . S
C1501 C1498 1.398 . S
C1501 C1502 1.380 . S
C1501 H1510 0.930 . S
C1502 C1500 1.387 . S
C1502 C1501 1.380 . S
C1502 H1511 0.930 . S
C1503 O1480 1.254 . S
C1503 O1481 1.268 . S
H1504 C1489 0.930 . S
H1505 C1490 0.930 . S
H1506 C1492 0.930 . S
H1507 C1493 0.930 . S
H1508 C1498 0.930 . S
H1509 C1499 0.930 . S
H1510 C1501 0.930 . S
H1511 C1502 0.930 . S
Gd1512 N1543 2.661 . S
Gd1512 N1549 2.601 . S
Gd1512 O1556 2.545 . S
Gd1512 O1557 2.606 . S
Gd1512 O1559 2.429 . S
Gd1512 O1560 2.545 . S
Gd1512 O1561 2.412 . S
Gd1512 O1563 2.362 . S
Gd1512 O1564 2.324 . S
Gd1512 C1571 2.828 . S
Gd1513 N1522 2.661 . S
Gd1513 N1526 2.601 . S
Gd1513 O1557 2.362 . S
Gd1513 O1558 2.324 . S
Gd1513 O1562 2.545 . S
Gd1513 O1563 2.606 . S
Gd1513 O1565 2.429 . S
Gd1513 O1566 2.545 . S
Gd1513 O1567 2.412 . S
Gd1513 C1580 2.828 . S
C1514 C1517 1.417 . S
C1514 C1519 1.431 . S
C1514 C1520 1.412 . S
C1515 C1518 1.437 . S
C1515 C1519 1.317 . S
C1515 H1534 0.929 . S
C1516 C1517 1.426 . S
C1516 C1518 1.413 . S
C1516 N1526 1.359 . S
C1517 C1514 1.417 . S
C1517 C1516 1.426 . S
C1517 N1522 1.350 . S
C1518 C1515 1.437 . S
C1518 C1516 1.413 . S
C1518 C1528 1.391 . S
C1519 C1514 1.431 . S
C1519 C1515 1.317 . S
C1519 H1530 0.930 . S
C1520 C1514 1.412 . S
C1520 C1521 1.355 . S
C1520 H1532 0.930 . S
C1521 C1520 1.355 . S
C1521 C1523 1.402 . S
C1521 H1533 0.930 . S
N1522 Gd1513 2.661 . S
N1522 C1517 1.350 . S
N1522 C1523 1.307 . S
C1523 C1521 1.402 . S
C1523 N1522 1.307 . S
C1523 H1524 0.930 . S
H1524 C1523 0.930 . S
C1525 N1526 1.334 . S
C1525 C1527 1.394 . S
C1525 H1529 0.930 . S
N1526 Gd1513 2.601 . S
N1526 C1516 1.359 . S
N1526 C1525 1.334 . S
C1527 C1525 1.394 . S
C1527 C1528 1.359 . S
C1527 H1539 0.930 . S
C1528 C1518 1.391 . S
C1528 C1527 1.359 . S
C1528 H1540 0.929 . S
H1529 C1525 0.930 . S
H1530 C1519 0.930 . S
H1531 C1548 0.930 . S
H1532 C1520 0.930 . S
H1533 C1521 0.930 . S
H1534 C1515 0.929 . S
H1535 C1553 0.930 . S
H1536 C1544 0.930 . S
H1537 C1545 0.930 . S
H1538 C1569 0.929 . S
H1539 C1527 0.930 . S
H1540 C1528 0.929 . S
H1541 C1570 0.930 . S
H1542 C1551 0.930 . S
N1543 Gd1512 2.661 . S
N1543 C1547 1.350 . S
N1543 C1548 1.307 . S
C1544 H1536 0.930 . S
C1544 C1545 1.355 . S
C1544 C1546 1.412 . S
C1545 H1537 0.930 . S
C1545 C1544 1.355 . S
C1545 C1548 1.402 . S
C1546 C1544 1.412 . S
C1546 C1547 1.417 . S
C1546 C1570 1.431 . S
C1547 N1543 1.350 . S
C1547 C1546 1.417 . S
C1547 C1550 1.426 . S
C1548 H1531 0.930 . S
C1548 N1543 1.307 . S
C1548 C1545 1.402 . S
N1549 Gd1512 2.601 . S
N1549 C1550 1.359 . S
N1549 C1553 1.334 . S
C1550 C1547 1.426 . S
C1550 N1549 1.359 . S
C1550 C1554 1.413 . S
C1551 H1542 0.930 . S
C1551 C1552 1.359 . S
C1551 C1553 1.394 . S
C1552 C1551 1.359 . S
C1552 C1554 1.391 . S
C1552 H1555 0.929 . S
C1553 H1535 0.930 . S
C1553 N1549 1.334 . S
C1553 C1551 1.394 . S
C1554 C1550 1.413 . S
C1554 C1552 1.391 . S
C1554 C1569 1.437 . S
H1555 C1552 0.929 . S
O1556 Gd1512 2.545 . S
O1556 C1571 1.258 . S
O1557 Gd1512 2.606 . S
O1557 Gd1513 2.362 . S
O1557 C1568 1.284 . S
O1558 Gd1513 2.324 . S
O1558 C1578 1.254 . S
O1559 Gd1512 2.429 . S
O1559 C1578 1.268 . S
O1560 Gd1512 2.545 . S
O1560 C1568 1.250 . S
O1561 Gd1512 2.412 . S
O1561 C1571 1.252 . S
O1562 Gd1513 2.545 . S
O1562 C1580 1.258 . S
O1563 Gd1512 2.362 . S
O1563 Gd1513 2.606 . S
O1563 C1579 1.284 . S
O1564 Gd1512 2.324 . S
O1564 C1587 1.254 . S
O1565 Gd1513 2.429 . S
O1565 C1587 1.268 . S
O1566 Gd1513 2.545 . S
O1566 C1579 1.250 . S
O1567 Gd1513 2.412 . S
O1567 C1580 1.252 . S
C1568 O1557 1.284 . S
C1568 O1560 1.250 . S
C1569 H1538 0.929 . S
C1569 C1554 1.437 . S
C1569 C1570 1.317 . S
C1570 H1541 0.930 . S
C1570 C1546 1.431 . S
C1570 C1569 1.317 . S
C1571 Gd1512 2.828 . S
C1571 O1556 1.258 . S
C1571 O1561 1.252 . S
C1571 C1572 1.497 . S
C1572 C1571 1.497 . S
C1572 C1573 1.395 . S
C1572 C1574 1.380 . S
C1573 C1572 1.395 . S
C1573 C1576 1.398 . S
C1573 H1588 0.930 . S
C1574 C1572 1.380 . S
C1574 C1575 1.391 . S
C1574 H1589 0.930 . S
C1575 C1574 1.391 . S
C1575 C1577 1.387 . S
C1576 C1573 1.398 . S
C1576 C1577 1.380 . S
C1576 H1590 0.930 . S
C1577 C1575 1.387 . S
C1577 C1576 1.380 . S
C1577 H1591 0.930 . S
C1578 O1558 1.254 . S
C1578 O1559 1.268 . S
C1579 O1563 1.284 . S
C1579 O1566 1.250 . S
C1580 Gd1513 2.828 . S
C1580 O1562 1.258 . S
C1580 O1567 1.252 . S
C1580 C1581 1.497 . S
C1581 C1580 1.497 . S
C1581 C1582 1.395 . S
C1581 C1583 1.380 . S
C1582 C1581 1.395 . S
C1582 C1585 1.398 . S
C1582 H1592 0.930 . S
C1583 C1581 1.380 . S
C1583 C1584 1.391 . S
C1583 H1593 0.930 . S
C1584 C1583 1.391 . S
C1584 C1586 1.387 . S
C1585 C1582 1.398 . S
C1585 C1586 1.380 . S
C1585 H1594 0.930 . S
C1586 C1584 1.387 . S
C1586 C1585 1.380 . S
C1586 H1595 0.930 . S
C1587 O1564 1.254 . S
C1587 O1565 1.268 . S
H1588 C1573 0.930 . S
H1589 C1574 0.930 . S
H1590 C1576 0.930 . S
H1591 C1577 0.930 . S
H1592 C1582 0.930 . S
H1593 C1583 0.930 . S
H1594 C1585 0.930 . S
H1595 C1586 0.930 . S
Gd1596 N1627 2.649 1_455 S
Gd1596 N1633 2.601 . S
Gd1596 O1640 2.545 . S
Gd1596 O1641 2.606 . S
Gd1596 O1643 2.429 . S
Gd1596 O1644 2.545 . S
Gd1596 O1645 2.412 1_455 S
Gd1596 O1647 2.362 . S
Gd1596 O1648 2.324 1_554 S
Gd1596 C1655 2.828 1_455 S
Gd1597 N1606 2.661 . S
Gd1597 N1610 2.601 1_554 S
Gd1597 O1641 2.362 . S
Gd1597 O1642 2.324 . S
Gd1597 O1646 2.545 1_554 S
Gd1597 O1647 2.606 . S
Gd1597 O1649 2.429 1_554 S
Gd1597 O1650 2.544 . S
Gd1597 O1651 2.412 . S
Gd1597 C1664 2.828 1_554 S
C1598 C1601 1.417 . S
C1598 C1603 1.431 . S
C1598 C1604 1.412 . S
C1599 C1602 1.437 . S
C1599 C1603 1.317 1_556 S
C1599 H1618 0.929 . S
C1600 C1601 1.426 1_556 S
C1600 C1602 1.413 . S
C1600 N1610 1.359 . S
C1601 C1598 1.417 . S
C1601 C1600 1.426 1_554 S
C1601 N1606 1.350 . S
C1602 C1599 1.437 . S
C1602 C1600 1.413 . S
C1602 C1612 1.391 . S
C1603 C1598 1.431 . S
C1603 C1599 1.317 1_554 S
C1603 H1614 0.930 . S
C1604 C1598 1.412 . S
C1604 C1605 1.355 . S
C1604 H1616 0.930 . S
C1605 C1604 1.355 . S
C1605 C1607 1.402 . S
C1605 H1617 0.930 . S
N1606 Gd1597 2.661 . S
N1606 C1601 1.350 . S
N1606 C1607 1.307 . S
C1607 C1605 1.402 . S
C1607 N1606 1.307 . S
C1607 H1608 0.930 . S
H1608 C1607 0.930 . S
C1609 N1610 1.334 . S
C1609 C1611 1.394 . S
C1609 H1613 0.930 . S
N1610 Gd1597 2.601 1_556 S
N1610 C1600 1.359 . S
N1610 C1609 1.334 . S
C1611 C1609 1.394 . S
C1611 C1612 1.359 . S
C1611 H1623 0.930 . S
C1612 C1602 1.391 . S
C1612 C1611 1.359 . S
C1612 H1624 0.929 . S
H1613 C1609 0.930 . S
H1614 C1603 0.930 . S
H1615 C1632 0.930 1_455 S
H1616 C1604 0.930 . S
H1617 C1605 0.930 . S
H1618 C1599 0.929 . S
H1619 C1637 0.930 . S
H1620 C1628 0.930 . S
H1621 C1629 0.930 . S
H1622 C1653 0.929 . S
H1623 C1611 0.930 . S
H1624 C1612 0.929 . S
H1625 C1654 0.930 . S
H1626 C1635 0.930 . S
N1627 Gd1596 2.649 1_655 S
N1627 C1631 1.361 . S
N1627 C1632 1.308 1_554 S
C1628 H1620 0.930 . S
C1628 C1629 1.355 . S
C1628 C1630 1.412 1_556 S
C1629 H1621 0.930 . S
C1629 C1628 1.355 . S
C1629 C1632 1.402 . S
C1630 C1628 1.412 1_554 S
C1630 C1631 1.417 . S
C1630 C1654 1.431 . S
C1631 N1627 1.361 . S
C1631 C1630 1.417 . S
C1631 C1634 1.426 . S
C1632 H1615 0.930 1_655 S
C1632 N1627 1.308 1_556 S
C1632 C1629 1.402 . S
N1633 Gd1596 2.601 . S
N1633 C1634 1.359 1_455 S
N1633 C1637 1.334 . S
C1634 C1631 1.426 . S
C1634 N1633 1.359 1_655 S
C1634 C1638 1.413 . S
C1635 H1626 0.930 . S
C1635 C1636 1.359 1_455 S
C1635 C1637 1.394 . S
C1636 C1635 1.359 1_655 S
C1636 C1638 1.391 . S
C1636 H1639 0.929 . S
C1637 H1619 0.930 . S
C1637 N1633 1.334 . S
C1637 C1635 1.394 . S
C1638 C1634 1.413 . S
C1638 C1636 1.391 . S
C1638 C1653 1.437 . S
H1639 C1636 0.929 . S
O1640 Gd1596 2.545 . S
O1640 C1655 1.258 1_455 S
O1641 Gd1596 2.606 . S
O1641 Gd1597 2.362 . S
O1641 C1652 1.284 . S
O1642 Gd1597 2.324 . S
O1642 C1662 1.254 . S
O1643 Gd1596 2.429 . S
O1643 C1662 1.268 . S
O1644 Gd1596 2.545 . S
O1644 C1652 1.250 . S
O1645 Gd1596 2.412 1_655 S
O1645 C1655 1.252 . S
O1646 Gd1597 2.545 1_556 S
O1646 C1664 1.258 . S
O1647 Gd1596 2.362 . S
O1647 Gd1597 2.606 . S
O1647 C1663 1.284 . S
O1648 Gd1596 2.324 1_556 S
O1648 C1671 1.254 . S
O1649 Gd1597 2.429 1_556 S
O1649 C1671 1.268 . S
O1650 Gd1597 2.544 . S
O1650 C1663 1.257 . S
O1651 Gd1597 2.412 . S
O1651 C1664 1.252 1_554 S
C1652 O1641 1.284 . S
C1652 O1644 1.250 . S
C1653 H1622 0.929 . S
C1653 C1638 1.437 . S
C1653 C1654 1.317 . S
C1654 H1625 0.930 . S
C1654 C1630 1.431 . S
C1654 C1653 1.317 . S
C1655 Gd1596 2.828 1_655 S
C1655 O1640 1.258 1_655 S
C1655 O1645 1.252 . S
C1655 C1656 1.497 . S
C1656 C1655 1.497 . S
C1656 C1657 1.395 . S
C1656 C1658 1.380 . S
C1657 C1656 1.395 . S
C1657 C1660 1.398 . S
C1657 H1672 0.930 . S
C1658 C1656 1.380 . S
C1658 C1659 1.391 . S
C1658 H1673 0.930 . S
C1659 C1658 1.391 . S
C1659 C1661 1.387 . S
C1660 C1657 1.398 . S
C1660 C1661 1.380 . S
C1660 H1674 0.930 . S
C1661 C1659 1.387 . S
C1661 C1660 1.380 . S
C1661 H1675 0.930 . S
C1662 O1642 1.254 . S
C1662 O1643 1.268 . S
C1663 O1647 1.284 . S
C1663 O1650 1.257 . S
C1664 Gd1597 2.828 1_556 S
C1664 O1646 1.258 . S
C1664 O1651 1.252 1_556 S
C1664 C1665 1.497 . S
C1665 C1664 1.497 . S
C1665 C1666 1.395 . S
C1665 C1667 1.380 1_556 S
C1666 C1665 1.395 . S
C1666 C1669 1.398 . S
C1666 H1676 0.930 . S
C1667 C1665 1.380 1_554 S
C1667 C1668 1.392 . S
C1667 H1677 0.930 . S
C1668 C1667 1.392 . S
C1668 C1670 1.380 1_554 S
C1669 C1666 1.398 . S
C1669 C1670 1.380 . S
C1669 H1678 0.930 . S
C1670 C1668 1.380 1_556 S
C1670 C1669 1.380 . S
C1670 H1679 0.930 . S
C1671 O1648 1.254 . S
C1671 O1649 1.268 . S
H1672 C1657 0.930 . S
H1673 C1658 0.930 . S
H1674 C1660 0.930 . S
H1675 C1661 0.930 . S
H1676 C1666 0.930 . S
H1677 C1667 0.930 . S
H1678 C1669 0.930 . S
H1679 C1670 0.930 . S
H1680 C1698 0.951 1_655 S
H1681 C1700 0.949 1_655 S
H1682 C1702 0.950 . S
H1683 C1703 0.950 . S
H1684 C1705 0.950 . S
H1685 C1708 0.950 . S
H1686 C1709 0.950 . S
H1687 C1711 0.950 . S
H1688 C1712 0.950 . S
H1689 C1713 0.951 . S
H1690 C1715 0.951 . S
H1691 C1717 0.950 . S
H1692 C1718 0.950 . S
H1693 C1720 0.950 . S
H1694 C1723 0.950 . S
H1695 C1724 0.951 1_655 S
H1696 C1726 0.950 . S
H1697 C1727 0.950 . S
C1698 H1680 0.951 1_455 S
C1698 C1699 1.366 . S
C1698 C1700 1.388 . S
C1699 C1698 1.366 . S
C1699 C1703 1.385 . S
C1700 H1681 0.949 1_455 S
C1700 C1698 1.388 . S
C1700 C1701 1.366 . S
C1701 C1700 1.366 . S
C1701 C1702 1.414 . S
C1701 C1704 1.499 . S
C1702 H1682 0.950 . S
C1702 C1701 1.414 . S
C1702 C1703 1.374 . S
C1703 H1683 0.950 . S
C1703 C1699 1.385 . S
C1703 C1702 1.374 . S
C1704 C1701 1.499 . S
C1704 C1705 1.373 . S
C1704 C1706 1.389 1_556 S
C1705 H1684 0.950 . S
C1705 C1704 1.373 . S
C1705 C1721 1.377 . S
C1706 C1704 1.389 1_554 S
C1706 C1707 1.524 . S
C1706 C1720 1.377 . S
C1707 C1706 1.524 . S
C1707 C1708 1.397 . S
C1707 C1712 1.363 . S
C1708 H1685 0.950 . S
C1708 C1707 1.397 . S
C1708 C1709 1.334 . S
C1709 H1686 0.950 . S
C1709 C1708 1.334 . S
C1709 C1710 1.287 . S
C1710 C1709 1.287 . S
C1710 C1711 1.524 . S
C1710 H1729 0.913 . S
C1711 H1687 0.950 . S
C1711 C1710 1.524 . S
C1711 C1712 1.415 . S
C1712 H1688 0.950 . S
C1712 C1707 1.363 . S
C1712 C1711 1.415 . S
C1713 H1689 0.951 . S
C1713 C1714 1.366 1_556 S
C1713 C1715 1.388 . S
C1714 C1713 1.366 1_554 S
C1714 C1718 1.385 . S
C1715 H1690 0.951 . S
C1715 C1713 1.388 . S
C1715 C1716 1.366 . S
C1716 C1715 1.366 . S
C1716 C1717 1.414 1_556 S
C1716 C1719 1.499 . S
C1717 H1691 0.950 . S
C1717 C1716 1.414 1_554 S
C1717 C1718 1.374 . S
C1718 H1692 0.950 . S
C1718 C1714 1.385 . S
C1718 C1717 1.374 . S
C1719 C1716 1.499 . S
C1719 C1720 1.373 1_556 S
C1719 C1721 1.389 . S
C1720 H1693 0.950 . S
C1720 C1706 1.377 . S
C1720 C1719 1.373 1_554 S
C1721 C1705 1.377 . S
C1721 C1719 1.389 . S
C1721 C1722 1.524 . S
C1722 C1721 1.524 . S
C1722 C1723 1.397 . S
C1722 C1727 1.363 . S
C1723 H1694 0.950 . S
C1723 C1722 1.397 . S
C1723 C1724 1.334 . S
C1724 H1695 0.951 1_455 S
C1724 C1723 1.334 . S
C1724 C1725 1.287 . S
C1725 C1724 1.287 . S
C1725 C1726 1.524 . S
C1725 H1728 0.999 . S
C1726 H1696 0.950 . S
C1726 C1725 1.524 . S
C1726 C1727 1.415 . S
C1727 H1697 0.950 . S
C1727 C1722 1.363 . S
C1727 C1726 1.415 . S
H1728 C1725 0.999 . S
H1729 C1710 0.913 . S
H1730 C1748 0.951 . S
H1731 C1750 0.951 . S
H1732 C1752 0.950 . S
H1733 C1753 0.950 . S
H1734 C1755 0.950 . S
H1735 C1758 0.950 . S
H1736 C1759 0.950 . S
H1737 C1761 0.950 . S
H1738 C1762 0.950 . S
H1739 C1763 0.951 . S
H1740 C1765 0.951 . S
H1741 C1767 0.950 . S
H1742 C1768 0.950 . S
H1743 C1770 0.950 . S
H1744 C1773 0.950 . S
H1745 C1774 0.950 . S
H1746 C1776 0.950 . S
H1747 C1777 0.950 . S
C1748 H1730 0.951 . S
C1748 C1749 1.366 . S
C1748 C1750 1.388 . S
C1749 C1748 1.366 . S
C1749 C1753 1.385 . S
C1750 H1731 0.951 . S
C1750 C1748 1.388 . S
C1750 C1751 1.366 . S
C1751 C1750 1.366 . S
C1751 C1752 1.414 . S
C1751 C1754 1.499 . S
C1752 H1732 0.950 . S
C1752 C1751 1.414 . S
C1752 C1753 1.374 . S
C1753 H1733 0.950 . S
C1753 C1749 1.385 . S
C1753 C1752 1.374 . S
C1754 C1751 1.499 . S
C1754 C1755 1.373 . S
C1754 C1756 1.389 . S
C1755 H1734 0.950 . S
C1755 C1754 1.373 . S
C1755 C1771 1.377 . S
C1756 C1754 1.389 . S
C1756 C1757 1.524 . S
C1756 C1770 1.377 . S
C1757 C1756 1.524 . S
C1757 C1758 1.397 . S
C1757 C1762 1.363 . S
C1758 H1735 0.950 . S
C1758 C1757 1.397 . S
C1758 C1759 1.334 . S
C1759 H1736 0.950 . S
C1759 C1758 1.334 . S
C1759 C1760 1.287 . S
C1760 C1759 1.287 . S
C1760 C1761 1.524 . S
C1760 H1779 0.913 . S
C1761 H1737 0.950 . S
C1761 C1760 1.524 . S
C1761 C1762 1.415 . S
C1762 H1738 0.950 . S
C1762 C1757 1.363 . S
C1762 C1761 1.415 . S
C1763 H1739 0.951 . S
C1763 C1764 1.366 . S
C1763 C1765 1.388 . S
C1764 C1763 1.366 . S
C1764 C1768 1.385 . S
C1765 H1740 0.951 . S
C1765 C1763 1.388 . S
C1765 C1766 1.366 . S
C1766 C1765 1.366 . S
C1766 C1767 1.414 . S
C1766 C1769 1.499 . S
C1767 H1741 0.950 . S
C1767 C1766 1.414 . S
C1767 C1768 1.374 . S
C1768 H1742 0.950 . S
C1768 C1764 1.385 . S
C1768 C1767 1.374 . S
C1769 C1766 1.499 . S
C1769 C1770 1.373 . S
C1769 C1771 1.389 . S
C1770 H1743 0.950 . S
C1770 C1756 1.377 . S
C1770 C1769 1.373 . S
C1771 C1755 1.377 . S
C1771 C1769 1.389 . S
C1771 C1772 1.524 . S
C1772 C1771 1.524 . S
C1772 C1773 1.397 . S
C1772 C1777 1.363 . S
C1773 H1744 0.950 . S
C1773 C1772 1.397 . S
C1773 C1774 1.334 . S
C1774 H1745 0.950 . S
C1774 C1773 1.334 . S
C1774 C1775 1.287 . S
C1775 C1774 1.287 . S
C1775 C1776 1.524 . S
C1775 H1778 0.999 . S
C1776 H1746 0.950 . S
C1776 C1775 1.524 . S
C1776 C1777 1.415 . S
C1777 H1747 0.950 . S
C1777 C1772 1.363 . S
C1777 C1776 1.415 . S
H1778 C1775 0.999 . S
H1779 C1760 0.913 . S
H1780 C1798 0.951 . S
H1781 C1800 0.951 . S
H1782 C1802 0.950 . S
H1783 C1803 0.950 . S
H1784 C1805 0.950 . S
H1785 C1808 0.950 . S
H1786 C1809 0.950 . S
H1787 C1811 0.950 . S
H1788 C1812 0.950 . S
H1789 C1813 0.951 . S
H1790 C1815 0.951 . S
H1791 C1817 0.950 . S
H1792 C1818 0.950 . S
H1793 C1820 0.950 . S
H1794 C1823 0.950 . S
H1795 C1824 0.950 . S
H1796 C1826 0.950 . S
H1797 C1827 0.950 . S
C1798 H1780 0.951 . S
C1798 C1799 1.366 . S
C1798 C1800 1.388 . S
C1799 C1798 1.366 . S
C1799 C1803 1.385 . S
C1800 H1781 0.951 . S
C1800 C1798 1.388 . S
C1800 C1801 1.366 . S
C1801 C1800 1.366 . S
C1801 C1802 1.414 . S
C1801 C1804 1.499 . S
C1802 H1782 0.950 . S
C1802 C1801 1.414 . S
C1802 C1803 1.374 . S
C1803 H1783 0.950 . S
C1803 C1799 1.385 . S
C1803 C1802 1.374 . S
C1804 C1801 1.499 . S
C1804 C1805 1.373 . S
C1804 C1806 1.389 . S
C1805 H1784 0.950 . S
C1805 C1804 1.373 . S
C1805 C1821 1.377 . S
C1806 C1804 1.389 . S
C1806 C1807 1.524 . S
C1806 C1820 1.377 . S
C1807 C1806 1.524 . S
C1807 C1808 1.397 . S
C1807 C1812 1.363 . S
C1808 H1785 0.950 . S
C1808 C1807 1.397 . S
C1808 C1809 1.334 . S
C1809 H1786 0.950 . S
C1809 C1808 1.334 . S
C1809 C1810 1.287 . S
C1810 C1809 1.287 . S
C1810 C1811 1.524 . S
C1810 H1829 0.913 . S
C1811 H1787 0.950 . S
C1811 C1810 1.524 . S
C1811 C1812 1.415 . S
C1812 H1788 0.950 . S
C1812 C1807 1.363 . S
C1812 C1811 1.415 . S
C1813 H1789 0.951 . S
C1813 C1814 1.366 . S
C1813 C1815 1.388 . S
C1814 C1813 1.366 . S
C1814 C1818 1.385 . S
C1815 H1790 0.951 . S
C1815 C1813 1.388 . S
C1815 C1816 1.366 . S
C1816 C1815 1.366 . S
C1816 C1817 1.414 . S
C1816 C1819 1.499 . S
C1817 H1791 0.950 . S
C1817 C1816 1.414 . S
C1817 C1818 1.374 . S
C1818 H1792 0.950 . S
C1818 C1814 1.385 . S
C1818 C1817 1.374 . S
C1819 C1816 1.499 . S
C1819 C1820 1.373 . S
C1819 C1821 1.389 . S
C1820 H1793 0.950 . S
C1820 C1806 1.377 . S
C1820 C1819 1.373 . S
C1821 C1805 1.377 . S
C1821 C1819 1.389 . S
C1821 C1822 1.524 . S
C1822 C1821 1.524 . S
C1822 C1823 1.397 . S
C1822 C1827 1.363 . S
C1823 H1794 0.950 . S
C1823 C1822 1.397 . S
C1823 C1824 1.334 . S
C1824 H1795 0.950 . S
C1824 C1823 1.334 . S
C1824 C1825 1.287 . S
C1825 C1824 1.287 . S
C1825 C1826 1.524 . S
C1825 H1828 0.999 . S
C1826 H1796 0.950 . S
C1826 C1825 1.524 . S
C1826 C1827 1.415 . S
C1827 H1797 0.950 . S
C1827 C1822 1.363 . S
C1827 C1826 1.415 . S
H1828 C1825 0.999 . S
H1829 C1810 0.913 . S
H1830 C1848 0.951 . S
H1831 C1850 0.951 . S
H1832 C1852 0.950 . S
H1833 C1853 0.950 . S
H1834 C1855 0.950 . S
H1835 C1858 0.950 . S
H1836 C1859 0.950 . S
H1837 C1861 0.950 . S
H1838 C1862 0.950 . S
H1839 C1863 0.951 . S
H1840 C1865 0.951 . S
H1841 C1867 0.950 . S
H1842 C1868 0.950 . S
H1843 C1870 0.950 . S
H1844 C1873 0.950 . S
H1845 C1874 0.950 . S
H1846 C1876 0.950 . S
H1847 C1877 0.950 . S
C1848 H1830 0.951 . S
C1848 C1849 1.366 . S
C1848 C1850 1.388 . S
C1849 C1848 1.366 . S
C1849 C1853 1.385 . S
C1850 H1831 0.951 . S
C1850 C1848 1.388 . S
C1850 C1851 1.366 . S
C1851 C1850 1.366 . S
C1851 C1852 1.414 . S
C1851 C1854 1.499 . S
C1852 H1832 0.950 . S
C1852 C1851 1.414 . S
C1852 C1853 1.374 . S
C1853 H1833 0.950 . S
C1853 C1849 1.385 . S
C1853 C1852 1.374 . S
C1854 C1851 1.499 . S
C1854 C1855 1.373 . S
C1854 C1856 1.389 . S
C1855 H1834 0.950 . S
C1855 C1854 1.373 . S
C1855 C1871 1.377 . S
C1856 C1854 1.389 . S
C1856 C1857 1.524 . S
C1856 C1870 1.377 . S
C1857 C1856 1.524 . S
C1857 C1858 1.397 . S
C1857 C1862 1.363 . S
C1858 H1835 0.950 . S
C1858 C1857 1.397 . S
C1858 C1859 1.334 . S
C1859 H1836 0.950 . S
C1859 C1858 1.334 . S
C1859 C1860 1.287 . S
C1860 C1859 1.287 . S
C1860 C1861 1.524 . S
C1860 H1879 0.913 . S
C1861 H1837 0.950 . S
C1861 C1860 1.524 . S
C1861 C1862 1.415 . S
C1862 H1838 0.950 . S
C1862 C1857 1.363 . S
C1862 C1861 1.415 . S
C1863 H1839 0.951 . S
C1863 C1864 1.366 . S
C1863 C1865 1.388 . S
C1864 C1863 1.366 . S
C1864 C1868 1.385 . S
C1865 H1840 0.951 . S
C1865 C1863 1.388 . S
C1865 C1866 1.366 . S
C1866 C1865 1.366 . S
C1866 C1867 1.414 . S
C1866 C1869 1.499 . S
C1867 H1841 0.950 . S
C1867 C1866 1.414 . S
C1867 C1868 1.374 . S
C1868 H1842 0.950 . S
C1868 C1864 1.385 . S
C1868 C1867 1.374 . S
C1869 C1866 1.499 . S
C1869 C1870 1.373 . S
C1869 C1871 1.389 . S
C1870 H1843 0.950 . S
C1870 C1856 1.377 . S
C1870 C1869 1.373 . S
C1871 C1855 1.377 . S
C1871 C1869 1.389 . S
C1871 C1872 1.524 . S
C1872 C1871 1.524 . S
C1872 C1873 1.397 . S
C1872 C1877 1.363 . S
C1873 H1844 0.950 . S
C1873 C1872 1.397 . S
C1873 C1874 1.334 . S
C1874 H1845 0.950 . S
C1874 C1873 1.334 . S
C1874 C1875 1.287 . S
C1875 C1874 1.287 . S
C1875 C1876 1.524 . S
C1875 H1878 0.999 . S
C1876 H1846 0.950 . S
C1876 C1875 1.524 . S
C1876 C1877 1.415 . S
C1877 H1847 0.950 . S
C1877 C1872 1.363 . S
C1877 C1876 1.415 . S
H1878 C1875 0.999 . S
H1879 C1860 0.913 . S
H1880 C1898 0.951 . S
H1881 C1900 0.951 . S
H1882 C1902 0.950 . S
H1883 C1903 0.950 . S
H1884 C1905 0.950 . S
H1885 C1908 0.950 . S
H1886 C1909 0.950 . S
H1887 C1911 0.950 . S
H1888 C1912 0.950 . S
H1889 C1913 0.951 . S
H1890 C1915 0.951 . S
H1891 C1917 0.950 . S
H1892 C1918 0.950 . S
H1893 C1920 0.950 1_655 S
H1894 C1923 0.950 . S
H1895 C1924 0.950 . S
H1896 C1926 0.950 . S
H1897 C1927 0.950 . S
C1898 H1880 0.951 . S
C1898 C1899 1.366 . S
C1898 C1900 1.388 . S
C1899 C1898 1.366 . S
C1899 C1903 1.385 . S
C1900 H1881 0.951 . S
C1900 C1898 1.388 . S
C1900 C1901 1.366 . S
C1901 C1900 1.366 . S
C1901 C1902 1.414 . S
C1901 C1904 1.499 . S
C1902 H1882 0.950 . S
C1902 C1901 1.414 . S
C1902 C1903 1.374 . S
C1903 H1883 0.950 . S
C1903 C1899 1.385 . S
C1903 C1902 1.374 . S
C1904 C1901 1.499 . S
C1904 C1905 1.373 . S
C1904 C1906 1.389 . S
C1905 H1884 0.950 . S
C1905 C1904 1.373 . S
C1905 C1921 1.377 . S
C1906 C1904 1.389 . S
C1906 C1907 1.524 1_455 S
C1906 C1920 1.377 . S
C1907 C1906 1.524 1_655 S
C1907 C1908 1.397 . S
C1907 C1912 1.363 . S
C1908 H1885 0.950 . S
C1908 C1907 1.397 . S
C1908 C1909 1.334 . S
C1909 H1886 0.950 . S
C1909 C1908 1.334 . S
C1909 C1910 1.287 . S
C1910 C1909 1.287 . S
C1910 C1911 1.524 . S
C1910 H1929 0.913 . S
C1911 H1887 0.950 . S
C1911 C1910 1.524 . S
C1911 C1912 1.415 . S
C1912 H1888 0.950 . S
C1912 C1907 1.363 . S
C1912 C1911 1.415 . S
C1913 H1889 0.951 . S
C1913 C1914 1.366 . S
C1913 C1915 1.388 . S
C1914 C1913 1.366 . S
C1914 C1918 1.385 . S
C1915 H1890 0.951 . S
C1915 C1913 1.388 . S
C1915 C1916 1.366 . S
C1916 C1915 1.366 . S
C1916 C1917 1.414 . S
C1916 C1919 1.499 . S
C1917 H1891 0.950 . S
C1917 C1916 1.414 . S
C1917 C1918 1.374 . S
C1918 H1892 0.950 . S
C1918 C1914 1.385 . S
C1918 C1917 1.374 . S
C1919 C1916 1.499 . S
C1919 C1920 1.373 . S
C1919 C1921 1.389 . S
C1920 H1893 0.950 1_455 S
C1920 C1906 1.377 . S
C1920 C1919 1.373 . S
C1921 C1905 1.377 . S
C1921 C1919 1.389 . S
C1921 C1922 1.524 . S
C1922 C1921 1.524 . S
C1922 C1923 1.397 . S
C1922 C1927 1.363 . S
C1923 H1894 0.950 . S
C1923 C1922 1.397 . S
C1923 C1924 1.334 . S
C1924 H1895 0.950 . S
C1924 C1923 1.334 . S
C1924 C1925 1.287 . S
C1925 C1924 1.287 . S
C1925 C1926 1.524 . S
C1925 H1928 0.999 . S
C1926 H1896 0.950 . S
C1926 C1925 1.524 . S
C1926 C1927 1.415 . S
C1927 H1897 0.950 . S
C1927 C1922 1.363 . S
C1927 C1926 1.415 . S
H1928 C1925 0.999 . S
H1929 C1910 0.913 . S
H1930 C1948 0.951 . S
H1931 C1950 0.951 . S
H1932 C1952 0.950 . S
H1933 C1953 0.950 . S
H1934 C1955 0.950 . S
H1935 C1958 0.950 . S
H1936 C1959 0.950 . S
H1937 C1961 0.950 . S
H1938 C1962 0.950 . S
H1939 C1963 0.951 . S
H1940 C1965 0.951 . S
H1941 C1967 0.950 . S
H1942 C1968 0.950 . S
H1943 C1970 0.950 . S
H1944 C1973 0.950 . S
H1945 C1974 0.950 . S
H1946 C1976 0.950 . S
H1947 C1977 0.950 . S
C1948 H1930 0.951 . S
C1948 C1949 1.366 . S
C1948 C1950 1.388 . S
C1949 C1948 1.366 . S
C1949 C1953 1.385 . S
C1950 H1931 0.951 . S
C1950 C1948 1.388 . S
C1950 C1951 1.366 . S
C1951 C1950 1.366 . S
C1951 C1952 1.414 . S
C1951 C1954 1.499 . S
C1952 H1932 0.950 . S
C1952 C1951 1.414 . S
C1952 C1953 1.374 . S
C1953 H1933 0.950 . S
C1953 C1949 1.385 . S
C1953 C1952 1.374 . S
C1954 C1951 1.499 . S
C1954 C1955 1.373 . S
C1954 C1956 1.389 . S
C1955 H1934 0.950 . S
C1955 C1954 1.373 . S
C1955 C1971 1.377 . S
C1956 C1954 1.389 . S
C1956 C1957 1.524 . S
C1956 C1970 1.377 . S
C1957 C1956 1.524 . S
C1957 C1958 1.397 . S
C1957 C1962 1.363 . S
C1958 H1935 0.950 . S
C1958 C1957 1.397 . S
C1958 C1959 1.334 . S
C1959 H1936 0.950 . S
C1959 C1958 1.334 . S
C1959 C1960 1.287 . S
C1960 C1959 1.287 . S
C1960 C1961 1.524 . S
C1960 H1979 0.913 . S
C1961 H1937 0.950 . S
C1961 C1960 1.524 . S
C1961 C1962 1.415 . S
C1962 H1938 0.950 . S
C1962 C1957 1.363 . S
C1962 C1961 1.415 . S
C1963 H1939 0.951 . S
C1963 C1964 1.366 . S
C1963 C1965 1.388 . S
C1964 C1963 1.366 . S
C1964 C1968 1.385 . S
C1965 H1940 0.951 . S
C1965 C1963 1.388 . S
C1965 C1966 1.366 . S
C1966 C1965 1.366 . S
C1966 C1967 1.414 . S
C1966 C1969 1.499 . S
C1967 H1941 0.950 . S
C1967 C1966 1.414 . S
C1967 C1968 1.374 . S
C1968 H1942 0.950 . S
C1968 C1964 1.385 . S
C1968 C1967 1.374 . S
C1969 C1966 1.499 . S
C1969 C1970 1.373 . S
C1969 C1971 1.389 . S
C1970 H1943 0.950 . S
C1970 C1956 1.377 . S
C1970 C1969 1.373 . S
C1971 C1955 1.377 . S
C1971 C1969 1.389 . S
C1971 C1972 1.524 . S
C1972 C1971 1.524 . S
C1972 C1973 1.397 . S
C1972 C1977 1.363 . S
C1973 H1944 0.950 . S
C1973 C1972 1.397 . S
C1973 C1974 1.334 . S
C1974 H1945 0.950 . S
C1974 C1973 1.334 . S
C1974 C1975 1.287 . S
C1975 C1974 1.287 . S
C1975 C1976 1.524 . S
C1975 H1978 0.999 . S
C1976 H1946 0.950 . S
C1976 C1975 1.524 . S
C1976 C1977 1.415 . S
C1977 H1947 0.950 . S
C1977 C1972 1.363 . S
C1977 C1976 1.415 . S
H1978 C1975 0.999 . S
H1979 C1960 0.913 . S
H1980 C1998 0.951 . S
H1981 C2000 0.951 . S
H1982 C2002 0.950 . S
H1983 C2003 0.950 . S
H1984 C2005 0.950 . S
H1985 C2008 0.950 . S
H1986 C2009 0.950 . S
H1987 C2011 0.950 . S
H1988 C2012 0.950 . S
H1989 C2013 0.951 . S
H1990 C2015 0.951 . S
H1991 C2017 0.950 . S
H1992 C2018 0.950 . S
H1993 C2020 0.950 . S
H1994 C2023 0.950 . S
H1995 C2024 0.950 . S
H1996 C2026 0.950 . S
H1997 C2027 0.950 . S
C1998 H1980 0.951 . S
C1998 C1999 1.366 . S
C1998 C2000 1.388 . S
C1999 C1998 1.366 . S
C1999 C2003 1.385 . S
C2000 H1981 0.951 . S
C2000 C1998 1.388 . S
C2000 C2001 1.366 . S
C2001 C2000 1.366 . S
C2001 C2002 1.414 . S
C2001 C2004 1.499 . S
C2002 H1982 0.950 . S
C2002 C2001 1.414 . S
C2002 C2003 1.374 . S
C2003 H1983 0.950 . S
C2003 C1999 1.385 . S
C2003 C2002 1.374 . S
C2004 C2001 1.499 . S
C2004 C2005 1.373 . S
C2004 C2006 1.389 . S
C2005 H1984 0.950 . S
C2005 C2004 1.373 . S
C2005 C2021 1.377 . S
C2006 C2004 1.389 . S
C2006 C2007 1.524 . S
C2006 C2020 1.377 . S
C2007 C2006 1.524 . S
C2007 C2008 1.397 . S
C2007 C2012 1.363 . S
C2008 H1985 0.950 . S
C2008 C2007 1.397 . S
C2008 C2009 1.334 . S
C2009 H1986 0.950 . S
C2009 C2008 1.334 . S
C2009 C2010 1.287 . S
C2010 C2009 1.287 . S
C2010 C2011 1.524 . S
C2010 H2029 0.913 . S
C2011 H1987 0.950 . S
C2011 C2010 1.524 . S
C2011 C2012 1.415 . S
C2012 H1988 0.950 . S
C2012 C2007 1.363 . S
C2012 C2011 1.415 . S
C2013 H1989 0.951 . S
C2013 C2014 1.366 . S
C2013 C2015 1.388 . S
C2014 C2013 1.366 . S
C2014 C2018 1.385 . S
C2015 H1990 0.951 . S
C2015 C2013 1.388 . S
C2015 C2016 1.366 . S
C2016 C2015 1.366 . S
C2016 C2017 1.414 . S
C2016 C2019 1.499 . S
C2017 H1991 0.950 . S
C2017 C2016 1.414 . S
C2017 C2018 1.374 . S
C2018 H1992 0.950 . S
C2018 C2014 1.385 . S
C2018 C2017 1.374 . S
C2019 C2016 1.499 . S
C2019 C2020 1.373 . S
C2019 C2021 1.389 . S
C2020 H1993 0.950 . S
C2020 C2006 1.377 . S
C2020 C2019 1.373 . S
C2021 C2005 1.377 . S
C2021 C2019 1.389 . S
C2021 C2022 1.524 . S
C2022 C2021 1.524 . S
C2022 C2023 1.397 . S
C2022 C2027 1.363 . S
C2023 H1994 0.950 . S
C2023 C2022 1.397 . S
C2023 C2024 1.334 . S
C2024 H1995 0.950 . S
C2024 C2023 1.334 . S
C2024 C2025 1.287 . S
C2025 C2024 1.287 . S
C2025 C2026 1.524 . S
C2025 H2028 0.999 . S
C2026 H1996 0.950 . S
C2026 C2025 1.524 . S
C2026 C2027 1.415 . S
C2027 H1997 0.950 . S
C2027 C2022 1.363 . S
C2027 C2026 1.415 . S
H2028 C2025 0.999 . S
H2029 C2010 0.913 . S
H2030 C2048 0.951 . S
H2031 C2050 0.951 . S
H2032 C2052 0.950 . S
H2033 C2053 0.950 . S
H2034 C2055 0.950 . S
H2035 C2058 0.950 . S
H2036 C2059 0.950 . S
H2037 C2061 0.950 . S
H2038 C2062 0.950 . S
H2039 C2063 0.951 . S
H2040 C2065 0.951 . S
H2041 C2067 0.950 . S
H2042 C2068 0.950 . S
H2043 C2070 0.950 . S
H2044 C2073 0.950 . S
H2045 C2074 0.950 . S
H2046 C2076 0.950 . S
H2047 C2077 0.950 . S
C2048 H2030 0.951 . S
C2048 C2049 1.366 . S
C2048 C2050 1.388 . S
C2049 C2048 1.366 . S
C2049 C2053 1.385 . S
C2050 H2031 0.951 . S
C2050 C2048 1.388 . S
C2050 C2051 1.366 . S
C2051 C2050 1.366 . S
C2051 C2052 1.414 . S
C2051 C2054 1.499 . S
C2052 H2032 0.950 . S
C2052 C2051 1.414 . S
C2052 C2053 1.374 . S
C2053 H2033 0.950 . S
C2053 C2049 1.385 . S
C2053 C2052 1.374 . S
C2054 C2051 1.499 . S
C2054 C2055 1.373 . S
C2054 C2056 1.389 . S
C2055 H2034 0.950 . S
C2055 C2054 1.373 . S
C2055 C2071 1.377 . S
C2056 C2054 1.389 . S
C2056 C2057 1.524 . S
C2056 C2070 1.377 . S
C2057 C2056 1.524 . S
C2057 C2058 1.397 . S
C2057 C2062 1.363 . S
C2058 H2035 0.950 . S
C2058 C2057 1.397 . S
C2058 C2059 1.334 . S
C2059 H2036 0.950 . S
C2059 C2058 1.334 . S
C2059 C2060 1.287 . S
C2060 C2059 1.287 . S
C2060 C2061 1.524 . S
C2060 H2079 0.913 . S
C2061 H2037 0.950 . S
C2061 C2060 1.524 . S
C2061 C2062 1.415 . S
C2062 H2038 0.950 . S
C2062 C2057 1.363 . S
C2062 C2061 1.415 . S
C2063 H2039 0.951 . S
C2063 C2064 1.366 . S
C2063 C2065 1.388 . S
C2064 C2063 1.366 . S
C2064 C2068 1.385 . S
C2065 H2040 0.951 . S
C2065 C2063 1.388 . S
C2065 C2066 1.366 . S
C2066 C2065 1.366 . S
C2066 C2067 1.414 . S
C2066 C2069 1.499 . S
C2067 H2041 0.950 . S
C2067 C2066 1.414 . S
C2067 C2068 1.374 . S
C2068 H2042 0.950 . S
C2068 C2064 1.385 . S
C2068 C2067 1.374 . S
C2069 C2066 1.499 . S
C2069 C2070 1.373 . S
C2069 C2071 1.389 . S
C2070 H2043 0.950 . S
C2070 C2056 1.377 . S
C2070 C2069 1.373 . S
C2071 C2055 1.377 . S
C2071 C2069 1.389 . S
C2071 C2072 1.524 . S
C2072 C2071 1.524 . S
C2072 C2073 1.397 . S
C2072 C2077 1.363 . S
C2073 H2044 0.950 . S
C2073 C2072 1.397 . S
C2073 C2074 1.334 . S
C2074 H2045 0.950 . S
C2074 C2073 1.334 . S
C2074 C2075 1.287 . S
C2075 C2074 1.287 . S
C2075 C2076 1.524 . S
C2075 H2078 0.999 . S
C2076 H2046 0.950 . S
C2076 C2075 1.524 . S
C2076 C2077 1.415 . S
C2077 H2047 0.950 . S
C2077 C2072 1.363 . S
C2077 C2076 1.415 . S
H2078 C2075 0.999 . S
H2079 C2060 0.913 . S
H2080 C2098 0.951 . S
H2081 C2100 0.951 . S
H2082 C2102 0.950 1_455 S
H2083 C2103 0.950 . S
H2084 C2105 0.950 . S
H2085 C2108 0.950 1_455 S
H2086 C2109 0.950 1_455 S
H2087 C2111 0.950 . S
H2088 C2112 0.950 . S
H2089 C2113 0.951 . S
H2090 C2115 0.951 . S
H2091 C2117 0.953 . S
H2092 C2118 0.970 . S
H2093 C2120 0.950 . S
H2094 C2123 0.950 . S
H2095 C2124 0.950 . S
H2096 C2126 0.950 . S
H2097 C2127 0.950 . S
C2098 H2080 0.951 . S
C2098 C2099 1.366 . S
C2098 C2100 1.388 . S
C2099 C2098 1.366 . S
C2099 C2103 1.385 . S
C2100 H2081 0.951 . S
C2100 C2098 1.388 . S
C2100 C2101 1.366 . S
C2101 C2100 1.366 . S
C2101 C2102 1.414 . S
C2101 C2104 1.499 . S
C2102 H2082 0.950 1_655 S
C2102 C2101 1.414 . S
C2102 C2103 1.374 . S
C2103 H2083 0.950 . S
C2103 C2099 1.385 . S
C2103 C2102 1.374 . S
C2104 C2101 1.499 . S
C2104 C2105 1.373 . S
C2104 C2106 1.389 . S
C2105 H2084 0.950 . S
C2105 C2104 1.373 . S
C2105 C2121 1.377 . S
C2106 C2104 1.389 . S
C2106 C2107 1.524 . S
C2106 C2120 1.377 . S
C2107 C2106 1.524 . S
C2107 C2108 1.397 . S
C2107 C2112 1.363 . S
C2108 H2085 0.950 1_655 S
C2108 C2107 1.397 . S
C2108 C2109 1.334 . S
C2109 H2086 0.950 1_655 S
C2109 C2108 1.334 . S
C2109 C2110 1.287 1_545 S
C2110 C2109 1.287 1_565 S
C2110 C2111 1.524 . S
C2110 H2129 0.913 . S
C2111 H2087 0.950 . S
C2111 C2110 1.524 . S
C2111 C2112 1.415 1_565 S
C2112 H2088 0.950 . S
C2112 C2107 1.363 . S
C2112 C2111 1.415 1_545 S
C2113 H2089 0.951 . S
C2113 C2114 1.366 . S
C2113 C2115 1.388 . S
C2114 C2113 1.366 . S
C2114 C2118 1.385 . S
C2115 H2090 0.951 . S
C2115 C2113 1.388 . S
C2115 C2116 1.366 . S
C2116 C2115 1.366 . S
C2116 C2117 1.413 1_455 S
C2116 C2119 1.514 . S
C2117 H2091 0.953 . S
C2117 C2116 1.413 1_655 S
C2117 C2118 1.372 1_655 S
C2118 H2092 0.970 . S
C2118 C2114 1.385 . S
C2118 C2117 1.372 1_455 S
C2119 C2116 1.514 . S
C2119 C2120 1.372 1_455 S
C2119 C2121 1.379 1_455 S
C2120 H2093 0.950 . S
C2120 C2106 1.377 . S
C2120 C2119 1.372 1_655 S
C2121 C2105 1.377 . S
C2121 C2119 1.379 1_655 S
C2121 C2122 1.524 1_655 S
C2122 C2121 1.524 1_455 S
C2122 C2123 1.397 1_455 S
C2122 C2127 1.363 . S
C2123 H2094 0.950 . S
C2123 C2122 1.397 1_655 S
C2123 C2124 1.334 . S
C2124 H2095 0.950 . S
C2124 C2123 1.334 . S
C2124 C2125 1.287 1_655 S
C2125 C2124 1.287 1_455 S
C2125 C2126 1.524 . S
C2125 H2128 0.999 . S
C2126 H2096 0.950 . S
C2126 C2125 1.524 . S
C2126 C2127 1.415 . S
C2127 H2097 0.950 . S
C2127 C2122 1.363 . S
C2127 C2126 1.415 . S
H2128 C2125 0.999 . S
H2129 C2110 0.913 . S
H2130 C2148 0.951 . S
H2131 C2150 0.951 . S
H2132 C2152 0.950 . S
H2133 C2153 0.950 . S
H2134 C2155 0.950 . S
H2135 C2158 0.950 . S
H2136 C2159 0.950 . S
H2137 C2161 0.950 . S
H2138 C2162 0.950 . S
H2139 C2163 0.951 . S
H2140 C2165 0.951 . S
H2141 C2167 0.950 . S
H2142 C2168 0.950 . S
H2143 C2170 0.950 . S
H2144 C2173 0.950 . S
H2145 C2174 0.950 . S
H2146 C2176 0.950 . S
H2147 C2177 0.950 . S
C2148 H2130 0.951 . S
C2148 C2149 1.366 . S
C2148 C2150 1.388 . S
C2149 C2148 1.366 . S
C2149 C2153 1.385 . S
C2150 H2131 0.951 . S
C2150 C2148 1.388 . S
C2150 C2151 1.366 . S
C2151 C2150 1.366 . S
C2151 C2152 1.414 . S
C2151 C2154 1.499 . S
C2152 H2132 0.950 . S
C2152 C2151 1.414 . S
C2152 C2153 1.374 . S
C2153 H2133 0.950 . S
C2153 C2149 1.385 . S
C2153 C2152 1.374 . S
C2154 C2151 1.499 . S
C2154 C2155 1.373 . S
C2154 C2156 1.389 . S
C2155 H2134 0.950 . S
C2155 C2154 1.373 . S
C2155 C2171 1.377 . S
C2156 C2154 1.389 . S
C2156 C2157 1.524 . S
C2156 C2170 1.377 . S
C2157 C2156 1.524 . S
C2157 C2158 1.397 . S
C2157 C2162 1.363 . S
C2158 H2135 0.950 . S
C2158 C2157 1.397 . S
C2158 C2159 1.334 . S
C2159 H2136 0.950 . S
C2159 C2158 1.334 . S
C2159 C2160 1.287 . S
C2160 C2159 1.287 . S
C2160 C2161 1.524 . S
C2160 H2179 0.913 . S
C2161 H2137 0.950 . S
C2161 C2160 1.524 . S
C2161 C2162 1.415 . S
C2162 H2138 0.950 . S
C2162 C2157 1.363 . S
C2162 C2161 1.415 . S
C2163 H2139 0.951 . S
C2163 C2164 1.366 . S
C2163 C2165 1.388 . S
C2164 C2163 1.366 . S
C2164 C2168 1.385 . S
C2165 H2140 0.951 . S
C2165 C2163 1.388 . S
C2165 C2166 1.366 . S
C2166 C2165 1.366 . S
C2166 C2167 1.414 . S
C2166 C2169 1.499 . S
C2167 H2141 0.950 . S
C2167 C2166 1.414 . S
C2167 C2168 1.374 . S
C2168 H2142 0.950 . S
C2168 C2164 1.385 . S
C2168 C2167 1.374 . S
C2169 C2166 1.499 . S
C2169 C2170 1.373 . S
C2169 C2171 1.389 . S
C2170 H2143 0.950 . S
C2170 C2156 1.377 . S
C2170 C2169 1.373 . S
C2171 C2155 1.377 . S
C2171 C2169 1.389 . S
C2171 C2172 1.524 . S
C2172 C2171 1.524 . S
C2172 C2173 1.397 . S
C2172 C2177 1.363 . S
C2173 H2144 0.950 . S
C2173 C2172 1.397 . S
C2173 C2174 1.334 . S
C2174 H2145 0.950 . S
C2174 C2173 1.334 . S
C2174 C2175 1.287 . S
C2175 C2174 1.287 . S
C2175 C2176 1.524 . S
C2175 H2178 0.999 . S
C2176 H2146 0.950 . S
C2176 C2175 1.524 . S
C2176 C2177 1.415 . S
C2177 H2147 0.950 . S
C2177 C2172 1.363 . S
C2177 C2176 1.415 . S
H2178 C2175 0.999 . S
H2179 C2160 0.913 . S
H2180 C2198 0.951 . S
H2181 C2200 0.951 . S
H2182 C2202 0.950 . S
H2183 C2203 0.950 . S
H2184 C2205 0.950 . S
H2185 C2208 0.950 . S
H2186 C2209 0.950 . S
H2187 C2211 0.950 1_565 S
H2188 C2212 0.950 1_565 S
H2189 C2213 0.951 . S
H2190 C2215 0.951 . S
H2191 C2217 0.950 . S
H2192 C2218 0.950 . S
H2193 C2220 0.950 . S
H2194 C2223 0.950 . S
H2195 C2224 0.950 . S
H2196 C2226 0.950 . S
H2197 C2227 0.950 . S
C2198 H2180 0.951 . S
C2198 C2199 1.366 . S
C2198 C2200 1.388 . S
C2199 C2198 1.366 . S
C2199 C2203 1.385 . S
C2200 H2181 0.951 . S
C2200 C2198 1.388 . S
C2200 C2201 1.366 . S
C2201 C2200 1.366 . S
C2201 C2202 1.414 . S
C2201 C2204 1.499 . S
C2202 H2182 0.950 . S
C2202 C2201 1.414 . S
C2202 C2203 1.374 . S
C2203 H2183 0.950 . S
C2203 C2199 1.385 . S
C2203 C2202 1.374 . S
C2204 C2201 1.499 . S
C2204 C2205 1.373 . S
C2204 C2206 1.389 . S
C2205 H2184 0.950 . S
C2205 C2204 1.373 . S
C2205 C2221 1.377 . S
C2206 C2204 1.389 . S
C2206 C2207 1.524 . S
C2206 C2220 1.377 . S
C2207 C2206 1.524 . S
C2207 C2208 1.397 . S
C2207 C2212 1.363 . S
C2208 H2185 0.950 . S
C2208 C2207 1.397 . S
C2208 C2209 1.334 . S
C2209 H2186 0.950 . S
C2209 C2208 1.334 . S
C2209 C2210 1.287 . S
C2210 C2209 1.287 . S
C2210 C2211 1.524 . S
C2210 H2229 0.913 . S
C2211 H2187 0.950 1_545 S
C2211 C2210 1.524 . S
C2211 C2212 1.415 . S
C2212 H2188 0.950 1_545 S
C2212 C2207 1.363 . S
C2212 C2211 1.415 . S
C2213 H2189 0.951 . S
C2213 C2214 1.366 . S
C2213 C2215 1.388 . S
C2214 C2213 1.366 . S
C2214 C2218 1.385 . S
C2215 H2190 0.951 . S
C2215 C2213 1.388 . S
C2215 C2216 1.366 . S
C2216 C2215 1.366 . S
C2216 C2217 1.414 . S
C2216 C2219 1.499 . S
C2217 H2191 0.950 . S
C2217 C2216 1.414 . S
C2217 C2218 1.374 . S
C2218 H2192 0.950 . S
C2218 C2214 1.385 . S
C2218 C2217 1.374 . S
C2219 C2216 1.499 . S
C2219 C2220 1.373 . S
C2219 C2221 1.389 . S
C2220 H2193 0.950 . S
C2220 C2206 1.377 . S
C2220 C2219 1.373 . S
C2221 C2205 1.377 . S
C2221 C2219 1.389 . S
C2221 C2222 1.524 . S
C2222 C2221 1.524 . S
C2222 C2223 1.397 . S
C2222 C2227 1.363 . S
C2223 H2194 0.950 . S
C2223 C2222 1.397 . S
C2223 C2224 1.334 . S
C2224 H2195 0.950 . S
C2224 C2223 1.334 . S
C2224 C2225 1.287 . S
C2225 C2224 1.287 . S
C2225 C2226 1.524 . S
C2225 H2228 0.999 . S
C2226 H2196 0.950 . S
C2226 C2225 1.524 . S
C2226 C2227 1.415 . S
C2227 H2197 0.950 . S
C2227 C2222 1.363 . S
C2227 C2226 1.415 . S
H2228 C2225 0.999 . S
H2229 C2210 0.913 . S
H2230 C2248 0.951 . S
H2231 C2250 0.951 . S
H2232 C2252 0.950 . S
H2233 C2253 0.950 . S
H2234 C2255 0.950 . S
H2235 C2258 0.950 . S
H2236 C2259 0.950 . S
H2237 C2261 0.950 . S
H2238 C2262 0.950 . S
H2239 C2263 0.951 . S
H2240 C2265 0.951 . S
H2241 C2267 0.950 . S
H2242 C2268 0.950 . S
H2243 C2270 0.950 . S
H2244 C2273 0.950 . S
H2245 C2274 0.950 . S
H2246 C2276 0.950 . S
H2247 C2277 0.950 . S
C2248 H2230 0.951 . S
C2248 C2249 1.366 . S
C2248 C2250 1.388 . S
C2249 C2248 1.366 . S
C2249 C2253 1.385 . S
C2250 H2231 0.951 . S
C2250 C2248 1.388 . S
C2250 C2251 1.366 . S
C2251 C2250 1.366 . S
C2251 C2252 1.414 . S
C2251 C2254 1.499 . S
C2252 H2232 0.950 . S
C2252 C2251 1.414 . S
C2252 C2253 1.374 . S
C2253 H2233 0.950 . S
C2253 C2249 1.385 . S
C2253 C2252 1.374 . S
C2254 C2251 1.499 . S
C2254 C2255 1.373 . S
C2254 C2256 1.389 . S
C2255 H2234 0.950 . S
C2255 C2254 1.373 . S
C2255 C2271 1.377 . S
C2256 C2254 1.389 . S
C2256 C2257 1.524 . S
C2256 C2270 1.377 . S
C2257 C2256 1.524 . S
C2257 C2258 1.397 . S
C2257 C2262 1.363 . S
C2258 H2235 0.950 . S
C2258 C2257 1.397 . S
C2258 C2259 1.334 . S
C2259 H2236 0.950 . S
C2259 C2258 1.334 . S
C2259 C2260 1.287 . S
C2260 C2259 1.287 . S
C2260 C2261 1.524 . S
C2260 H2279 0.913 . S
C2261 H2237 0.950 . S
C2261 C2260 1.524 . S
C2261 C2262 1.415 . S
C2262 H2238 0.950 . S
C2262 C2257 1.363 . S
C2262 C2261 1.415 . S
C2263 H2239 0.951 . S
C2263 C2264 1.366 . S
C2263 C2265 1.388 . S
C2264 C2263 1.366 . S
C2264 C2268 1.385 . S
C2265 H2240 0.951 . S
C2265 C2263 1.388 . S
C2265 C2266 1.366 . S
C2266 C2265 1.366 . S
C2266 C2267 1.414 . S
C2266 C2269 1.499 . S
C2267 H2241 0.950 . S
C2267 C2266 1.414 . S
C2267 C2268 1.374 . S
C2268 H2242 0.950 . S
C2268 C2264 1.385 . S
C2268 C2267 1.374 . S
C2269 C2266 1.499 . S
C2269 C2270 1.373 . S
C2269 C2271 1.389 . S
C2270 H2243 0.950 . S
C2270 C2256 1.377 . S
C2270 C2269 1.373 . S
C2271 C2255 1.377 . S
C2271 C2269 1.389 . S
C2271 C2272 1.524 . S
C2272 C2271 1.524 . S
C2272 C2273 1.397 . S
C2272 C2277 1.363 . S
C2273 H2244 0.950 . S
C2273 C2272 1.397 . S
C2273 C2274 1.334 . S
C2274 H2245 0.950 . S
C2274 C2273 1.334 . S
C2274 C2275 1.287 . S
C2275 C2274 1.287 . S
C2275 C2276 1.524 . S
C2275 H2278 0.999 . S
C2276 H2246 0.950 . S
C2276 C2275 1.524 . S
C2276 C2277 1.415 . S
C2277 H2247 0.950 . S
C2277 C2272 1.363 . S
C2277 C2276 1.415 . S
H2278 C2275 0.999 . S
H2279 C2260 0.913 . S
H2280 C2298 0.951 . S
H2281 C2300 0.890 1_455 S
H2282 C2302 0.950 . S
H2283 C2303 0.950 . S
H2284 C2305 0.950 . S
H2285 C2308 0.950 . S
H2286 C2309 0.950 . S
H2287 C2311 0.958 . S
H2288 C2312 0.950 . S
H2289 C2313 0.951 . S
H2290 C2315 0.951 1_655 S
H2291 C2317 0.950 . S
H2292 C2318 0.950 . S
H2293 C2320 0.950 . S
H2294 C2323 0.950 . S
H2295 C2324 0.950 . S
H2296 C2326 0.950 . S
H2297 C2327 0.950 . S
C2298 H2280 0.951 . S
C2298 C2299 1.366 . S
C2298 C2300 1.388 . S
C2299 C2298 1.366 . S
C2299 C2303 1.385 . S
C2300 H2281 0.890 1_655 S
C2300 C2298 1.388 . S
C2300 C2301 1.366 . S
C2301 C2300 1.366 . S
C2301 C2302 1.414 . S
C2301 C2304 1.499 . S
C2302 H2282 0.950 . S
C2302 C2301 1.414 . S
C2302 C2303 1.374 . S
C2303 H2283 0.950 . S
C2303 C2299 1.385 . S
C2303 C2302 1.374 . S
C2304 C2301 1.499 . S
C2304 C2305 1.373 . S
C2304 C2306 1.389 . S
C2305 H2284 0.950 . S
C2305 C2304 1.373 . S
C2305 C2321 1.378 1_655 S
C2306 C2304 1.389 . S
C2306 C2307 1.524 . S
C2306 C2320 1.377 1_655 S
C2307 C2306 1.524 . S
C2307 C2308 1.397 . S
C2307 C2312 1.363 1_655 S
C2308 H2285 0.950 . S
C2308 C2307 1.397 . S
C2308 C2309 1.334 . S
C2309 H2286 0.950 . S
C2309 C2308 1.334 . S
C2309 C2310 1.283 1_545 S
C2310 C2309 1.283 1_565 S
C2310 C2311 1.524 1_665 S
C2310 H2329 0.917 . S
C2311 H2287 0.958 . S
C2311 C2310 1.524 1_445 S
C2311 C2312 1.415 . S
C2312 H2288 0.950 . S
C2312 C2307 1.363 1_455 S
C2312 C2311 1.415 . S
C2313 H2289 0.951 . S
C2313 C2314 1.366 . S
C2313 C2315 1.388 . S
C2314 C2313 1.366 . S
C2314 C2318 1.385 . S
C2315 H2290 0.951 1_455 S
C2315 C2313 1.388 . S
C2315 C2316 1.366 . S
C2316 C2315 1.366 . S
C2316 C2317 1.414 . S
C2316 C2319 1.499 . S
C2317 H2291 0.950 . S
C2317 C2316 1.414 . S
C2317 C2318 1.374 . S
C2318 H2292 0.950 . S
C2318 C2314 1.385 . S
C2318 C2317 1.374 . S
C2319 C2316 1.499 . S
C2319 C2320 1.373 . S
C2319 C2321 1.388 . S
C2320 H2293 0.950 . S
C2320 C2306 1.377 1_455 S
C2320 C2319 1.373 . S
C2321 C2305 1.378 1_455 S
C2321 C2319 1.388 . S
C2321 C2322 1.525 . S
C2322 C2321 1.525 . S
C2322 C2323 1.397 . S
C2322 C2327 1.363 1_455 S
C2323 H2294 0.950 . S
C2323 C2322 1.397 . S
C2323 C2324 1.334 . S
C2324 H2295 0.950 . S
C2324 C2323 1.334 . S
C2324 C2325 1.287 . S
C2325 C2324 1.287 . S
C2325 C2326 1.524 1_455 S
C2325 H2328 0.999 . S
C2326 H2296 0.950 . S
C2326 C2325 1.524 1_655 S
C2326 C2327 1.415 . S
C2327 H2297 0.950 . S
C2327 C2322 1.363 1_655 S
C2327 C2326 1.415 . S
H2328 C2325 0.999 . S
H2329 C2310 0.917 . S
H2330 C2348 0.951 . S
H2331 C2350 0.951 . S
H2332 C2352 0.950 . S
H2333 C2353 0.950 . S
H2334 C2355 0.950 . S
H2335 C2358 0.950 . S
H2336 C2359 0.950 . S
H2337 C2361 0.950 . S
H2338 C2362 0.950 . S
H2339 C2363 0.951 . S
H2340 C2365 0.951 . S
H2341 C2367 0.950 . S
H2342 C2368 0.950 . S
H2343 C2370 0.950 . S
H2344 C2373 0.950 . S
H2345 C2374 0.950 . S
H2346 C2376 0.950 . S
H2347 C2377 0.950 . S
C2348 H2330 0.951 . S
C2348 C2349 1.366 . S
C2348 C2350 1.388 . S
C2349 C2348 1.366 . S
C2349 C2353 1.385 . S
C2350 H2331 0.951 . S
C2350 C2348 1.388 . S
C2350 C2351 1.366 . S
C2351 C2350 1.366 . S
C2351 C2352 1.414 . S
C2351 C2354 1.499 . S
C2352 H2332 0.950 . S
C2352 C2351 1.414 . S
C2352 C2353 1.374 . S
C2353 H2333 0.950 . S
C2353 C2349 1.385 . S
C2353 C2352 1.374 . S
C2354 C2351 1.499 . S
C2354 C2355 1.373 . S
C2354 C2356 1.389 . S
C2355 H2334 0.950 . S
C2355 C2354 1.373 . S
C2355 C2371 1.377 . S
C2356 C2354 1.389 . S
C2356 C2357 1.524 . S
C2356 C2370 1.377 . S
C2357 C2356 1.524 . S
C2357 C2358 1.397 . S
C2357 C2362 1.363 . S
C2358 H2335 0.950 . S
C2358 C2357 1.397 . S
C2358 C2359 1.334 . S
C2359 H2336 0.950 . S
C2359 C2358 1.334 . S
C2359 C2360 1.287 . S
C2360 C2359 1.287 . S
C2360 C2361 1.524 . S
C2360 H2379 0.913 . S
C2361 H2337 0.950 . S
C2361 C2360 1.524 . S
C2361 C2362 1.415 . S
C2362 H2338 0.950 . S
C2362 C2357 1.363 . S
C2362 C2361 1.415 . S
C2363 H2339 0.951 . S
C2363 C2364 1.366 . S
C2363 C2365 1.388 . S
C2364 C2363 1.366 . S
C2364 C2368 1.385 . S
C2365 H2340 0.951 . S
C2365 C2363 1.388 . S
C2365 C2366 1.366 . S
C2366 C2365 1.366 . S
C2366 C2367 1.414 . S
C2366 C2369 1.499 . S
C2367 H2341 0.950 . S
C2367 C2366 1.414 . S
C2367 C2368 1.374 . S
C2368 H2342 0.950 . S
C2368 C2364 1.385 . S
C2368 C2367 1.374 . S
C2369 C2366 1.499 . S
C2369 C2370 1.373 . S
C2369 C2371 1.389 . S
C2370 H2343 0.950 . S
C2370 C2356 1.377 . S
C2370 C2369 1.373 . S
C2371 C2355 1.377 . S
C2371 C2369 1.389 . S
C2371 C2372 1.524 . S
C2372 C2371 1.524 . S
C2372 C2373 1.397 . S
C2372 C2377 1.363 . S
C2373 H2344 0.950 . S
C2373 C2372 1.397 . S
C2373 C2374 1.334 . S
C2374 H2345 0.950 . S
C2374 C2373 1.334 . S
C2374 C2375 1.287 . S
C2375 C2374 1.287 . S
C2375 C2376 1.524 . S
C2375 H2378 0.999 . S
C2376 H2346 0.950 . S
C2376 C2375 1.524 . S
C2376 C2377 1.415 . S
C2377 H2347 0.950 . S
C2377 C2372 1.363 . S
C2377 C2376 1.415 . S
H2378 C2375 0.999 . S
H2379 C2360 0.913 . S
H2380 C2398 0.951 . S
H2381 C2400 0.951 . S
H2382 C2402 0.950 . S
H2383 C2403 0.950 . S
H2384 C2405 0.950 . S
H2385 C2408 0.950 . S
H2386 C2409 0.950 . S
H2387 C2411 0.950 . S
H2388 C2412 0.950 . S
H2389 C2413 0.951 . S
H2390 C2415 0.951 . S
H2391 C2417 0.950 . S
H2392 C2418 0.950 . S
H2393 C2420 0.950 . S
H2394 C2423 0.950 . S
H2395 C2424 0.960 . S
H2396 C2426 0.950 . S
H2397 C2427 0.950 . S
C2398 H2380 0.951 . S
C2398 C2399 1.366 . S
C2398 C2400 1.388 . S
C2399 C2398 1.366 . S
C2399 C2403 1.385 . S
C2400 H2381 0.951 . S
C2400 C2398 1.388 . S
C2400 C2401 1.366 . S
C2401 C2400 1.366 . S
C2401 C2402 1.414 . S
C2401 C2404 1.499 . S
C2402 H2382 0.950 . S
C2402 C2401 1.414 . S
C2402 C2403 1.374 . S
C2403 H2383 0.950 . S
C2403 C2399 1.385 . S
C2403 C2402 1.374 . S
C2404 C2401 1.499 . S
C2404 C2405 1.373 . S
C2404 C2406 1.389 . S
C2405 H2384 0.950 . S
C2405 C2404 1.373 . S
C2405 C2421 1.377 . S
C2406 C2404 1.389 . S
C2406 C2407 1.524 . S
C2406 C2420 1.377 . S
C2407 C2406 1.524 . S
C2407 C2408 1.397 . S
C2407 C2412 1.363 . S
C2408 H2385 0.950 . S
C2408 C2407 1.397 . S
C2408 C2409 1.334 . S
C2409 H2386 0.950 . S
C2409 C2408 1.334 . S
C2409 C2410 1.287 . S
C2410 C2409 1.287 . S
C2410 C2411 1.524 . S
C2410 H2429 0.913 . S
C2411 H2387 0.950 . S
C2411 C2410 1.524 . S
C2411 C2412 1.415 . S
C2412 H2388 0.950 . S
C2412 C2407 1.363 . S
C2412 C2411 1.415 . S
C2413 H2389 0.951 . S
C2413 C2414 1.366 . S
C2413 C2415 1.388 . S
C2414 C2413 1.366 . S
C2414 C2418 1.385 . S
C2415 H2390 0.951 . S
C2415 C2413 1.388 . S
C2415 C2416 1.366 . S
C2416 C2415 1.366 . S
C2416 C2417 1.414 . S
C2416 C2419 1.499 . S
C2417 H2391 0.950 . S
C2417 C2416 1.414 . S
C2417 C2418 1.374 . S
C2418 H2392 0.950 . S
C2418 C2414 1.385 . S
C2418 C2417 1.374 . S
C2419 C2416 1.499 . S
C2419 C2420 1.373 . S
C2419 C2421 1.389 . S
C2420 H2393 0.950 . S
C2420 C2406 1.377 . S
C2420 C2419 1.373 . S
C2421 C2405 1.377 . S
C2421 C2419 1.389 . S
C2421 C2422 1.524 . S
C2422 C2421 1.524 . S
C2422 C2423 1.397 . S
C2422 C2427 1.363 1_545 S
C2423 H2394 0.950 . S
C2423 C2422 1.397 . S
C2423 C2424 1.334 1_545 S
C2424 H2395 0.960 . S
C2424 C2423 1.334 1_565 S
C2424 C2425 1.287 . S
C2425 C2424 1.287 . S
C2425 C2426 1.524 . S
C2425 H2428 0.999 . S
C2426 H2396 0.950 . S
C2426 C2425 1.524 . S
C2426 C2427 1.415 . S
C2427 H2397 0.950 . S
C2427 C2422 1.363 1_565 S
C2427 C2426 1.415 . S
H2428 C2425 0.999 . S
H2429 C2410 0.913 . S
H2430 C2448 0.951 . S
H2431 C2450 0.951 . S
H2432 C2452 0.950 . S
H2433 C2453 0.950 . S
H2434 C2455 0.950 . S
H2435 C2458 0.950 . S
H2436 C2459 0.950 . S
H2437 C2461 0.950 . S
H2438 C2462 0.950 . S
H2439 C2463 0.951 . S
H2440 C2465 0.951 . S
H2441 C2467 0.950 . S
H2442 C2468 0.950 . S
H2443 C2470 0.950 . S
H2444 C2473 0.950 . S
H2445 C2474 0.950 . S
H2446 C2476 0.950 . S
H2447 C2477 0.950 . S
C2448 H2430 0.951 . S
C2448 C2449 1.366 . S
C2448 C2450 1.388 . S
C2449 C2448 1.366 . S
C2449 C2453 1.385 . S
C2450 H2431 0.951 . S
C2450 C2448 1.388 . S
C2450 C2451 1.366 . S
C2451 C2450 1.366 . S
C2451 C2452 1.414 . S
C2451 C2454 1.499 . S
C2452 H2432 0.950 . S
C2452 C2451 1.414 . S
C2452 C2453 1.374 . S
C2453 H2433 0.950 . S
C2453 C2449 1.385 . S
C2453 C2452 1.374 . S
C2454 C2451 1.499 . S
C2454 C2455 1.373 . S
C2454 C2456 1.389 . S
C2455 H2434 0.950 . S
C2455 C2454 1.373 . S
C2455 C2471 1.377 . S
C2456 C2454 1.389 . S
C2456 C2457 1.524 . S
C2456 C2470 1.377 . S
C2457 C2456 1.524 . S
C2457 C2458 1.397 . S
C2457 C2462 1.363 . S
C2458 H2435 0.950 . S
C2458 C2457 1.397 . S
C2458 C2459 1.334 . S
C2459 H2436 0.950 . S
C2459 C2458 1.334 . S
C2459 C2460 1.287 . S
C2460 C2459 1.287 . S
C2460 C2461 1.524 . S
C2460 H2479 0.913 . S
C2461 H2437 0.950 . S
C2461 C2460 1.524 . S
C2461 C2462 1.415 . S
C2462 H2438 0.950 . S
C2462 C2457 1.363 . S
C2462 C2461 1.415 . S
C2463 H2439 0.951 . S
C2463 C2464 1.366 . S
C2463 C2465 1.388 . S
C2464 C2463 1.366 . S
C2464 C2468 1.385 . S
C2465 H2440 0.951 . S
C2465 C2463 1.388 . S
C2465 C2466 1.366 . S
C2466 C2465 1.366 . S
C2466 C2467 1.414 . S
C2466 C2469 1.499 . S
C2467 H2441 0.950 . S
C2467 C2466 1.414 . S
C2467 C2468 1.374 . S
C2468 H2442 0.950 . S
C2468 C2464 1.385 . S
C2468 C2467 1.374 . S
C2469 C2466 1.499 . S
C2469 C2470 1.373 . S
C2469 C2471 1.389 . S
C2470 H2443 0.950 . S
C2470 C2456 1.377 . S
C2470 C2469 1.373 . S
C2471 C2455 1.377 . S
C2471 C2469 1.389 . S
C2471 C2472 1.524 . S
C2472 C2471 1.524 . S
C2472 C2473 1.397 . S
C2472 C2477 1.363 . S
C2473 H2444 0.950 . S
C2473 C2472 1.397 . S
C2473 C2474 1.334 . S
C2474 H2445 0.950 . S
C2474 C2473 1.334 . S
C2474 C2475 1.287 . S
C2475 C2474 1.287 . S
C2475 C2476 1.524 . S
C2475 H2478 0.999 . S
C2476 H2446 0.950 . S
C2476 C2475 1.524 . S
C2476 C2477 1.415 . S
C2477 H2447 0.950 . S
C2477 C2472 1.363 . S
C2477 C2476 1.415 . S
H2478 C2475 0.999 . S
H2479 C2460 0.913 . S
H2480 C2498 0.951 . S
H2481 C2500 0.951 . S
H2482 C2502 0.950 1_545 S
H2483 C2503 0.950 . S
H2484 C2505 0.950 1_545 S
H2485 C2508 0.950 . S
H2486 C2509 0.950 . S
H2487 C2511 0.950 . S
H2488 C2512 0.950 . S
H2489 C2513 0.951 . S
H2490 C2515 0.951 . S
H2491 C2517 0.950 . S
H2492 C2518 0.950 . S
H2493 C2520 0.918 1_556 S
H2494 C2523 0.928 1_565 S
H2495 C2524 0.950 . S
H2496 C2526 0.950 . S
H2497 C2527 0.950 . S
C2498 H2480 0.951 . S
C2498 C2499 1.366 . S
C2498 C2500 1.388 . S
C2499 C2498 1.366 . S
C2499 C2503 1.385 . S
C2500 H2481 0.951 . S
C2500 C2498 1.388 . S
C2500 C2501 1.366 . S
C2501 C2500 1.366 . S
C2501 C2502 1.414 . S
C2501 C2504 1.499 . S
C2502 H2482 0.950 1_565 S
C2502 C2501 1.414 . S
C2502 C2503 1.374 . S
C2503 H2483 0.950 . S
C2503 C2499 1.385 . S
C2503 C2502 1.374 . S
C2504 C2501 1.499 . S
C2504 C2505 1.373 . S
C2504 C2506 1.389 . S
C2505 H2484 0.950 1_565 S
C2505 C2504 1.373 . S
C2505 C2521 1.377 1_565 S
C2506 C2504 1.389 . S
C2506 C2507 1.524 1_554 S
C2506 C2520 1.377 . S
C2507 C2506 1.524 1_556 S
C2507 C2508 1.397 . S
C2507 C2512 1.363 . S
C2508 H2485 0.950 . S
C2508 C2507 1.397 . S
C2508 C2509 1.334 . S
C2509 H2486 0.950 . S
C2509 C2508 1.334 . S
C2509 C2510 1.287 . S
C2510 C2509 1.287 . S
C2510 C2511 1.524 . S
C2510 H2529 0.913 . S
C2511 H2487 0.950 . S
C2511 C2510 1.524 . S
C2511 C2512 1.415 . S
C2512 H2488 0.950 . S
C2512 C2507 1.363 . S
C2512 C2511 1.415 . S
C2513 H2489 0.951 . S
C2513 C2514 1.366 . S
C2513 C2515 1.388 . S
C2514 C2513 1.366 . S
C2514 C2518 1.385 1_545 S
C2515 H2490 0.951 . S
C2515 C2513 1.388 . S
C2515 C2516 1.366 . S
C2516 C2515 1.366 . S
C2516 C2517 1.414 1_545 S
C2516 C2519 1.499 1_545 S
C2517 H2491 0.950 . S
C2517 C2516 1.414 1_565 S
C2517 C2518 1.374 . S
C2518 H2492 0.950 . S
C2518 C2514 1.385 1_565 S
C2518 C2517 1.374 . S
C2519 C2516 1.499 1_565 S
C2519 C2520 1.373 . S
C2519 C2521 1.389 1_565 S
C2520 H2493 0.918 1_554 S
C2520 C2506 1.377 . S
C2520 C2519 1.373 . S
C2521 C2505 1.377 1_545 S
C2521 C2519 1.389 1_545 S
C2521 C2522 1.524 . S
C2522 C2521 1.524 . S
C2522 C2523 1.397 . S
C2522 C2527 1.363 . S
C2523 H2494 0.928 1_545 S
C2523 C2522 1.397 . S
C2523 C2524 1.334 . S
C2524 H2495 0.950 . S
C2524 C2523 1.334 . S
C2524 C2525 1.287 . S
C2525 C2524 1.287 . S
C2525 C2526 1.524 . S
C2525 H2528 0.999 . S
C2526 H2496 0.950 . S
C2526 C2525 1.524 . S
C2526 C2527 1.415 . S
C2527 H2497 0.950 . S
C2527 C2522 1.363 . S
C2527 C2526 1.415 . S
H2528 C2525 0.999 . S
H2529 C2510 0.913 . S
H2530 C2548 0.962 . S
H2531 C2550 0.977 . S
H2532 C2552 0.950 . S
H2533 C2553 0.950 . S
H2534 C2555 0.950 . S
H2535 C2558 0.950 . S
H2536 C2559 0.950 . S
H2537 C2561 0.950 . S
H2538 C2562 0.950 . S
H2539 C2563 0.952 . S
H2540 C2565 0.959 . S
H2541 C2567 0.950 . S
H2542 C2568 0.950 . S
H2543 C2570 0.950 . S
H2544 C2573 0.950 . S
H2545 C2574 0.950 . S
H2546 C2576 0.950 . S
H2547 C2577 0.950 . S
C2548 H2530 0.962 . S
C2548 C2549 1.348 1_554 S
C2548 C2550 1.385 . S
C2549 C2548 1.348 1_556 S
C2549 C2553 1.385 . S
C2550 H2531 0.977 . S
C2550 C2548 1.385 . S
C2550 C2551 1.353 1_554 S
C2551 C2550 1.353 1_556 S
C2551 C2552 1.414 . S
C2551 C2554 1.499 . S
C2552 H2532 0.950 . S
C2552 C2551 1.414 . S
C2552 C2553 1.374 . S
C2553 H2533 0.950 . S
C2553 C2549 1.385 . S
C2553 C2552 1.374 . S
C2554 C2551 1.499 . S
C2554 C2555 1.373 1_556 S
C2554 C2556 1.389 . S
C2555 H2534 0.950 . S
C2555 C2554 1.373 1_554 S
C2555 C2571 1.377 . S
C2556 C2554 1.389 . S
C2556 C2557 1.524 . S
C2556 C2570 1.377 . S
C2557 C2556 1.524 . S
C2557 C2558 1.397 . S
C2557 C2562 1.363 . S
C2558 H2535 0.950 . S
C2558 C2557 1.397 . S
C2558 C2559 1.334 . S
C2559 H2536 0.950 . S
C2559 C2558 1.334 . S
C2559 C2560 1.287 . S
C2560 C2559 1.287 . S
C2560 C2561 1.524 . S
C2560 H2579 0.913 . S
C2561 H2537 0.950 . S
C2561 C2560 1.524 . S
C2561 C2562 1.415 . S
C2562 H2538 0.950 . S
C2562 C2557 1.363 . S
C2562 C2561 1.415 . S
C2563 H2539 0.952 . S
C2563 C2564 1.364 1_556 S
C2563 C2565 1.385 . S
C2564 C2563 1.364 1_554 S
C2564 C2568 1.385 . S
C2565 H2540 0.959 . S
C2565 C2563 1.385 . S
C2565 C2566 1.361 1_556 S
C2566 C2565 1.361 1_554 S
C2566 C2567 1.414 . S
C2566 C2569 1.499 . S
C2567 H2541 0.950 . S
C2567 C2566 1.414 . S
C2567 C2568 1.374 . S
C2568 H2542 0.950 . S
C2568 C2564 1.385 . S
C2568 C2567 1.374 . S
C2569 C2566 1.499 . S
C2569 C2570 1.373 1_554 S
C2569 C2571 1.389 . S
C2570 H2543 0.950 . S
C2570 C2556 1.377 . S
C2570 C2569 1.373 1_556 S
C2571 C2555 1.377 . S
C2571 C2569 1.389 . S
C2571 C2572 1.524 . S
C2572 C2571 1.524 . S
C2572 C2573 1.397 . S
C2572 C2577 1.363 . S
C2573 H2544 0.950 . S
C2573 C2572 1.397 . S
C2573 C2574 1.334 . S
C2574 H2545 0.950 . S
C2574 C2573 1.334 . S
C2574 C2575 1.287 . S
C2575 C2574 1.287 . S
C2575 C2576 1.524 . S
C2575 H2578 0.999 . S
C2576 H2546 0.950 . S
C2576 C2575 1.524 . S
C2576 C2577 1.415 . S
C2577 H2547 0.950 . S
C2577 C2572 1.363 . S
C2577 C2576 1.415 . S
H2578 C2575 0.999 . S
H2579 C2560 0.913 . S
H2580 C2598 0.951 . S
H2581 C2600 0.951 . S
H2582 C2602 0.950 . S
H2583 C2603 0.950 . S
H2584 C2605 0.950 . S
H2585 C2608 0.950 . S
H2586 C2609 0.950 . S
H2587 C2611 0.950 . S
H2588 C2612 0.950 . S
H2589 C2613 0.951 . S
H2590 C2615 0.951 . S
H2591 C2617 0.950 . S
H2592 C2618 0.950 . S
H2593 C2620 0.950 . S
H2594 C2623 0.950 . S
H2595 C2624 0.950 . S
H2596 C2626 0.950 . S
H2597 C2627 0.950 . S
C2598 H2580 0.951 . S
C2598 C2599 1.366 . S
C2598 C2600 1.388 . S
C2599 C2598 1.366 . S
C2599 C2603 1.385 . S
C2600 H2581 0.951 . S
C2600 C2598 1.388 . S
C2600 C2601 1.366 . S
C2601 C2600 1.366 . S
C2601 C2602 1.414 . S
C2601 C2604 1.499 . S
C2602 H2582 0.950 . S
C2602 C2601 1.414 . S
C2602 C2603 1.374 . S
C2603 H2583 0.950 . S
C2603 C2599 1.385 . S
C2603 C2602 1.374 . S
C2604 C2601 1.499 . S
C2604 C2605 1.373 . S
C2604 C2606 1.389 . S
C2605 H2584 0.950 . S
C2605 C2604 1.373 . S
C2605 C2621 1.377 . S
C2606 C2604 1.389 . S
C2606 C2607 1.524 . S
C2606 C2620 1.377 . S
C2607 C2606 1.524 . S
C2607 C2608 1.397 . S
C2607 C2612 1.363 . S
C2608 H2585 0.950 . S
C2608 C2607 1.397 . S
C2608 C2609 1.334 . S
C2609 H2586 0.950 . S
C2609 C2608 1.334 . S
C2609 C2610 1.287 . S
C2610 C2609 1.287 . S
C2610 C2611 1.524 . S
C2610 H2629 0.913 . S
C2611 H2587 0.950 . S
C2611 C2610 1.524 . S
C2611 C2612 1.415 . S
C2612 H2588 0.950 . S
C2612 C2607 1.363 . S
C2612 C2611 1.415 . S
C2613 H2589 0.951 . S
C2613 C2614 1.366 . S
C2613 C2615 1.388 . S
C2614 C2613 1.366 . S
C2614 C2618 1.385 . S
C2615 H2590 0.951 . S
C2615 C2613 1.388 . S
C2615 C2616 1.366 . S
C2616 C2615 1.366 . S
C2616 C2617 1.414 . S
C2616 C2619 1.499 . S
C2617 H2591 0.950 . S
C2617 C2616 1.414 . S
C2617 C2618 1.374 . S
C2618 H2592 0.950 . S
C2618 C2614 1.385 . S
C2618 C2617 1.374 . S
C2619 C2616 1.499 . S
C2619 C2620 1.373 . S
C2619 C2621 1.389 . S
C2620 H2593 0.950 . S
C2620 C2606 1.377 . S
C2620 C2619 1.373 . S
C2621 C2605 1.377 . S
C2621 C2619 1.389 . S
C2621 C2622 1.524 . S
C2622 C2621 1.524 . S
C2622 C2623 1.397 . S
C2622 C2627 1.363 . S
C2623 H2594 0.950 . S
C2623 C2622 1.397 . S
C2623 C2624 1.334 . S
C2624 H2595 0.950 . S
C2624 C2623 1.334 . S
C2624 C2625 1.287 . S
C2625 C2624 1.287 . S
C2625 C2626 1.524 . S
C2625 H2628 0.999 . S
C2626 H2596 0.950 . S
C2626 C2625 1.524 . S
C2626 C2627 1.415 . S
C2627 H2597 0.950 . S
C2627 C2622 1.363 . S
C2627 C2626 1.415 . S
H2628 C2625 0.999 . S
H2629 C2610 0.913 . S
H2630 C2648 0.951 . S
H2631 C2650 0.951 . S
H2632 C2652 0.950 . S
H2633 C2653 0.950 . S
H2634 C2655 0.950 . S
H2635 C2658 0.950 . S
H2636 C2659 0.950 . S
H2637 C2661 0.950 . S
H2638 C2662 0.950 . S
H2639 C2663 0.945 1_455 S
H2640 C2665 0.951 . S
H2641 C2667 0.950 . S
H2642 C2668 0.950 . S
H2643 C2670 0.950 . S
H2644 C2673 0.950 . S
H2645 C2674 0.950 . S
H2646 C2676 0.950 . S
H2647 C2677 0.950 . S
C2648 H2630 0.951 . S
C2648 C2649 1.366 . S
C2648 C2650 1.388 . S
C2649 C2648 1.366 . S
C2649 C2653 1.385 . S
C2650 H2631 0.951 . S
C2650 C2648 1.388 . S
C2650 C2651 1.366 . S
C2651 C2650 1.366 . S
C2651 C2652 1.414 . S
C2651 C2654 1.499 . S
C2652 H2632 0.950 . S
C2652 C2651 1.414 . S
C2652 C2653 1.374 . S
C2653 H2633 0.950 . S
C2653 C2649 1.385 . S
C2653 C2652 1.374 . S
C2654 C2651 1.499 . S
C2654 C2655 1.373 . S
C2654 C2656 1.389 . S
C2655 H2634 0.950 . S
C2655 C2654 1.373 . S
C2655 C2671 1.377 . S
C2656 C2654 1.389 . S
C2656 C2657 1.524 . S
C2656 C2670 1.377 . S
C2657 C2656 1.524 . S
C2657 C2658 1.397 . S
C2657 C2662 1.363 . S
C2658 H2635 0.950 . S
C2658 C2657 1.397 . S
C2658 C2659 1.334 . S
C2659 H2636 0.950 . S
C2659 C2658 1.334 . S
C2659 C2660 1.287 . S
C2660 C2659 1.287 . S
C2660 C2661 1.524 . S
C2660 H2679 0.913 . S
C2661 H2637 0.950 . S
C2661 C2660 1.524 . S
C2661 C2662 1.415 . S
C2662 H2638 0.950 . S
C2662 C2657 1.363 . S
C2662 C2661 1.415 . S
C2663 H2639 0.945 1_655 S
C2663 C2664 1.320 1_655 S
C2663 C2665 1.443 . S
C2664 C2663 1.320 1_455 S
C2664 C2668 1.385 . S
C2665 H2640 0.951 . S
C2665 C2663 1.443 . S
C2665 C2666 1.366 . S
C2666 C2665 1.366 . S
C2666 C2667 1.414 . S
C2666 C2669 1.499 . S
C2667 H2641 0.950 . S
C2667 C2666 1.414 . S
C2667 C2668 1.374 1_655 S
C2668 H2642 0.950 . S
C2668 C2664 1.385 . S
C2668 C2667 1.374 1_455 S
C2669 C2666 1.499 . S
C2669 C2670 1.373 . S
C2669 C2671 1.389 . S
C2670 H2643 0.950 . S
C2670 C2656 1.377 . S
C2670 C2669 1.373 . S
C2671 C2655 1.377 . S
C2671 C2669 1.389 . S
C2671 C2672 1.524 . S
C2672 C2671 1.524 . S
C2672 C2673 1.397 . S
C2672 C2677 1.363 . S
C2673 H2644 0.950 . S
C2673 C2672 1.397 . S
C2673 C2674 1.334 . S
C2674 H2645 0.950 . S
C2674 C2673 1.334 . S
C2674 C2675 1.287 . S
C2675 C2674 1.287 . S
C2675 C2676 1.524 . S
C2675 H2678 0.999 . S
C2676 H2646 0.950 . S
C2676 C2675 1.524 . S
C2676 C2677 1.415 . S
C2677 H2647 0.950 . S
C2677 C2672 1.363 . S
C2677 C2676 1.415 . S
H2678 C2675 0.999 . S
H2679 C2660 0.913 . S
H2680 C2698 0.951 . S
H2681 C2700 0.951 . S
H2682 C2702 0.950 . S
H2683 C2703 0.950 . S
H2684 C2705 0.950 . S
H2685 C2708 0.950 . S
H2686 C2709 0.950 . S
H2687 C2711 0.950 . S
H2688 C2712 0.950 . S
H2689 C2713 0.951 . S
H2690 C2715 0.951 . S
H2691 C2717 0.950 . S
H2692 C2718 0.950 . S
H2693 C2720 0.950 . S
H2694 C2723 0.950 . S
H2695 C2724 0.950 . S
H2696 C2726 0.950 . S
H2697 C2727 0.950 . S
C2698 H2680 0.951 . S
C2698 C2699 1.366 . S
C2698 C2700 1.388 . S
C2699 C2698 1.366 . S
C2699 C2703 1.385 . S
C2700 H2681 0.951 . S
C2700 C2698 1.388 . S
C2700 C2701 1.366 . S
C2701 C2700 1.366 . S
C2701 C2702 1.414 . S
C2701 C2704 1.499 . S
C2702 H2682 0.950 . S
C2702 C2701 1.414 . S
C2702 C2703 1.374 . S
C2703 H2683 0.950 . S
C2703 C2699 1.385 . S
C2703 C2702 1.374 . S
C2704 C2701 1.499 . S
C2704 C2705 1.373 . S
C2704 C2706 1.389 . S
C2705 H2684 0.950 . S
C2705 C2704 1.373 . S
C2705 C2721 1.377 . S
C2706 C2704 1.389 . S
C2706 C2707 1.524 . S
C2706 C2720 1.377 . S
C2707 C2706 1.524 . S
C2707 C2708 1.397 . S
C2707 C2712 1.363 . S
C2708 H2685 0.950 . S
C2708 C2707 1.397 . S
C2708 C2709 1.334 . S
C2709 H2686 0.950 . S
C2709 C2708 1.334 . S
C2709 C2710 1.287 . S
C2710 C2709 1.287 . S
C2710 C2711 1.524 . S
C2710 H2729 0.913 . S
C2711 H2687 0.950 . S
C2711 C2710 1.524 . S
C2711 C2712 1.415 . S
C2712 H2688 0.950 . S
C2712 C2707 1.363 . S
C2712 C2711 1.415 . S
C2713 H2689 0.951 . S
C2713 C2714 1.366 . S
C2713 C2715 1.388 . S
C2714 C2713 1.366 . S
C2714 C2718 1.385 . S
C2715 H2690 0.951 . S
C2715 C2713 1.388 . S
C2715 C2716 1.366 . S
C2716 C2715 1.366 . S
C2716 C2717 1.414 . S
C2716 C2719 1.499 . S
C2717 H2691 0.950 . S
C2717 C2716 1.414 . S
C2717 C2718 1.374 . S
C2718 H2692 0.950 . S
C2718 C2714 1.385 . S
C2718 C2717 1.374 . S
C2719 C2716 1.499 . S
C2719 C2720 1.373 . S
C2719 C2721 1.389 . S
C2720 H2693 0.950 . S
C2720 C2706 1.377 . S
C2720 C2719 1.373 . S
C2721 C2705 1.377 . S
C2721 C2719 1.389 . S
C2721 C2722 1.524 . S
C2722 C2721 1.524 . S
C2722 C2723 1.397 . S
C2722 C2727 1.363 . S
C2723 H2694 0.950 . S
C2723 C2722 1.397 . S
C2723 C2724 1.334 . S
C2724 H2695 0.950 . S
C2724 C2723 1.334 . S
C2724 C2725 1.287 . S
C2725 C2724 1.287 . S
C2725 C2726 1.524 . S
C2725 H2728 0.999 . S
C2726 H2696 0.950 . S
C2726 C2725 1.524 . S
C2726 C2727 1.415 . S
C2727 H2697 0.950 . S
C2727 C2722 1.363 . S
C2727 C2726 1.415 . S
H2728 C2725 0.999 . S
H2729 C2710 0.913 . S
H2730 C2748 0.951 . S
H2731 C2750 0.951 . S
H2732 C2752 0.950 . S
H2733 C2753 0.950 . S
H2734 C2755 0.950 . S
H2735 C2758 0.950 . S
H2736 C2759 0.950 . S
H2737 C2761 0.950 . S
H2738 C2762 0.950 . S
H2739 C2763 0.951 . S
H2740 C2765 0.951 . S
H2741 C2767 0.950 . S
H2742 C2768 0.950 . S
H2743 C2770 0.950 . S
H2744 C2773 0.950 . S
H2745 C2774 0.950 . S
H2746 C2776 0.950 . S
H2747 C2777 0.950 . S
C2748 H2730 0.951 . S
C2748 C2749 1.366 . S
C2748 C2750 1.388 . S
C2749 C2748 1.366 . S
C2749 C2753 1.385 . S
C2750 H2731 0.951 . S
C2750 C2748 1.388 . S
C2750 C2751 1.366 . S
C2751 C2750 1.366 . S
C2751 C2752 1.414 . S
C2751 C2754 1.499 . S
C2752 H2732 0.950 . S
C2752 C2751 1.414 . S
C2752 C2753 1.374 . S
C2753 H2733 0.950 . S
C2753 C2749 1.385 . S
C2753 C2752 1.374 . S
C2754 C2751 1.499 . S
C2754 C2755 1.373 . S
C2754 C2756 1.389 . S
C2755 H2734 0.950 . S
C2755 C2754 1.373 . S
C2755 C2771 1.377 . S
C2756 C2754 1.389 . S
C2756 C2757 1.524 . S
C2756 C2770 1.377 . S
C2757 C2756 1.524 . S
C2757 C2758 1.397 . S
C2757 C2762 1.363 . S
C2758 H2735 0.950 . S
C2758 C2757 1.397 . S
C2758 C2759 1.334 . S
C2759 H2736 0.950 . S
C2759 C2758 1.334 . S
C2759 C2760 1.287 . S
C2760 C2759 1.287 . S
C2760 C2761 1.524 . S
C2760 H2779 0.913 . S
C2761 H2737 0.950 . S
C2761 C2760 1.524 . S
C2761 C2762 1.415 . S
C2762 H2738 0.950 . S
C2762 C2757 1.363 . S
C2762 C2761 1.415 . S
C2763 H2739 0.951 . S
C2763 C2764 1.366 . S
C2763 C2765 1.388 . S
C2764 C2763 1.366 . S
C2764 C2768 1.385 . S
C2765 H2740 0.951 . S
C2765 C2763 1.388 . S
C2765 C2766 1.366 . S
C2766 C2765 1.366 . S
C2766 C2767 1.414 . S
C2766 C2769 1.499 . S
C2767 H2741 0.950 . S
C2767 C2766 1.414 . S
C2767 C2768 1.374 . S
C2768 H2742 0.950 . S
C2768 C2764 1.385 . S
C2768 C2767 1.374 . S
C2769 C2766 1.499 . S
C2769 C2770 1.373 . S
C2769 C2771 1.389 . S
C2770 H2743 0.950 . S
C2770 C2756 1.377 . S
C2770 C2769 1.373 . S
C2771 C2755 1.377 . S
C2771 C2769 1.389 . S
C2771 C2772 1.524 . S
C2772 C2771 1.524 . S
C2772 C2773 1.397 . S
C2772 C2777 1.363 . S
C2773 H2744 0.950 . S
C2773 C2772 1.397 . S
C2773 C2774 1.334 . S
C2774 H2745 0.950 . S
C2774 C2773 1.334 . S
C2774 C2775 1.287 . S
C2775 C2774 1.287 . S
C2775 C2776 1.524 . S
C2775 H2778 0.999 . S
C2776 H2746 0.950 . S
C2776 C2775 1.524 . S
C2776 C2777 1.415 . S
C2777 H2747 0.950 . S
C2777 C2772 1.363 . S
C2777 C2776 1.415 . S
H2778 C2775 0.999 . S
H2779 C2760 0.913 . S
H2780 C2798 0.951 . S
H2781 C2800 0.951 . S
H2782 C2802 0.950 . S
H2783 C2803 0.950 . S
H2784 C2805 0.950 . S
H2785 C2808 0.950 . S
H2786 C2809 0.950 . S
H2787 C2811 0.950 . S
H2788 C2812 0.950 . S
H2789 C2813 0.951 . S
H2790 C2815 0.951 . S
H2791 C2817 0.950 . S
H2792 C2818 0.950 . S
H2793 C2820 0.950 . S
H2794 C2823 0.950 . S
H2795 C2824 0.950 . S
H2796 C2826 0.950 . S
H2797 C2827 0.950 . S
C2798 H2780 0.951 . S
C2798 C2799 1.366 . S
C2798 C2800 1.388 . S
C2799 C2798 1.366 . S
C2799 C2803 1.385 . S
C2800 H2781 0.951 . S
C2800 C2798 1.388 . S
C2800 C2801 1.366 . S
C2801 C2800 1.366 . S
C2801 C2802 1.414 . S
C2801 C2804 1.499 . S
C2802 H2782 0.950 . S
C2802 C2801 1.414 . S
C2802 C2803 1.374 . S
C2803 H2783 0.950 . S
C2803 C2799 1.385 . S
C2803 C2802 1.374 . S
C2804 C2801 1.499 . S
C2804 C2805 1.373 . S
C2804 C2806 1.389 . S
C2805 H2784 0.950 . S
C2805 C2804 1.373 . S
C2805 C2821 1.377 . S
C2806 C2804 1.389 . S
C2806 C2807 1.524 . S
C2806 C2820 1.377 . S
C2807 C2806 1.524 . S
C2807 C2808 1.397 . S
C2807 C2812 1.363 . S
C2808 H2785 0.950 . S
C2808 C2807 1.397 . S
C2808 C2809 1.334 . S
C2809 H2786 0.950 . S
C2809 C2808 1.334 . S
C2809 C2810 1.287 . S
C2810 C2809 1.287 . S
C2810 C2811 1.524 . S
C2810 H2829 0.913 . S
C2811 H2787 0.950 . S
C2811 C2810 1.524 . S
C2811 C2812 1.415 . S
C2812 H2788 0.950 . S
C2812 C2807 1.363 . S
C2812 C2811 1.415 . S
C2813 H2789 0.951 . S
C2813 C2814 1.366 . S
C2813 C2815 1.388 . S
C2814 C2813 1.366 . S
C2814 C2818 1.385 . S
C2815 H2790 0.951 . S
C2815 C2813 1.388 . S
C2815 C2816 1.366 . S
C2816 C2815 1.366 . S
C2816 C2817 1.414 . S
C2816 C2819 1.499 . S
C2817 H2791 0.950 . S
C2817 C2816 1.414 . S
C2817 C2818 1.374 . S
C2818 H2792 0.950 . S
C2818 C2814 1.385 . S
C2818 C2817 1.374 . S
C2819 C2816 1.499 . S
C2819 C2820 1.373 . S
C2819 C2821 1.389 . S
C2820 H2793 0.950 . S
C2820 C2806 1.377 . S
C2820 C2819 1.373 . S
C2821 C2805 1.377 . S
C2821 C2819 1.389 . S
C2821 C2822 1.524 . S
C2822 C2821 1.524 . S
C2822 C2823 1.397 . S
C2822 C2827 1.363 . S
C2823 H2794 0.950 . S
C2823 C2822 1.397 . S
C2823 C2824 1.334 . S
C2824 H2795 0.950 . S
C2824 C2823 1.334 . S
C2824 C2825 1.287 . S
C2825 C2824 1.287 . S
C2825 C2826 1.524 . S
C2825 H2828 0.999 . S
C2826 H2796 0.950 . S
C2826 C2825 1.524 . S
C2826 C2827 1.415 . S
C2827 H2797 0.950 . S
C2827 C2822 1.363 . S
C2827 C2826 1.415 . S
H2828 C2825 0.999 . S
H2829 C2810 0.913 . S
H2830 C2848 0.951 . S
H2831 C2850 0.951 . S
H2832 C2852 0.950 . S
H2833 C2853 0.950 . S
H2834 C2855 0.950 . S
H2835 C2858 0.950 . S
H2836 C2859 0.950 . S
H2837 C2861 0.950 . S
H2838 C2862 0.950 . S
H2839 C2863 0.951 . S
H2840 C2865 0.951 . S
H2841 C2867 0.950 . S
H2842 C2868 0.950 . S
H2843 C2870 0.950 . S
H2844 C2873 0.950 . S
H2845 C2874 0.950 . S
H2846 C2876 0.950 . S
H2847 C2877 0.950 . S
C2848 H2830 0.951 . S
C2848 C2849 1.366 . S
C2848 C2850 1.388 . S
C2849 C2848 1.366 . S
C2849 C2853 1.385 . S
C2850 H2831 0.951 . S
C2850 C2848 1.388 . S
C2850 C2851 1.366 . S
C2851 C2850 1.366 . S
C2851 C2852 1.414 . S
C2851 C2854 1.499 . S
C2852 H2832 0.950 . S
C2852 C2851 1.414 . S
C2852 C2853 1.374 . S
C2853 H2833 0.950 . S
C2853 C2849 1.385 . S
C2853 C2852 1.374 . S
C2854 C2851 1.499 . S
C2854 C2855 1.373 . S
C2854 C2856 1.389 . S
C2855 H2834 0.950 . S
C2855 C2854 1.373 . S
C2855 C2871 1.377 . S
C2856 C2854 1.389 . S
C2856 C2857 1.524 . S
C2856 C2870 1.377 . S
C2857 C2856 1.524 . S
C2857 C2858 1.397 . S
C2857 C2862 1.363 . S
C2858 H2835 0.950 . S
C2858 C2857 1.397 . S
C2858 C2859 1.334 . S
C2859 H2836 0.950 . S
C2859 C2858 1.334 . S
C2859 C2860 1.287 . S
C2860 C2859 1.287 . S
C2860 C2861 1.524 . S
C2860 H2879 0.913 . S
C2861 H2837 0.950 . S
C2861 C2860 1.524 . S
C2861 C2862 1.415 . S
C2862 H2838 0.950 . S
C2862 C2857 1.363 . S
C2862 C2861 1.415 . S
C2863 H2839 0.951 . S
C2863 C2864 1.366 . S
C2863 C2865 1.388 . S
C2864 C2863 1.366 . S
C2864 C2868 1.385 . S
C2865 H2840 0.951 . S
C2865 C2863 1.388 . S
C2865 C2866 1.366 . S
C2866 C2865 1.366 . S
C2866 C2867 1.414 . S
C2866 C2869 1.499 . S
C2867 H2841 0.950 . S
C2867 C2866 1.414 . S
C2867 C2868 1.374 . S
C2868 H2842 0.950 . S
C2868 C2864 1.385 . S
C2868 C2867 1.374 . S
C2869 C2866 1.499 . S
C2869 C2870 1.373 . S
C2869 C2871 1.389 . S
C2870 H2843 0.950 . S
C2870 C2856 1.377 . S
C2870 C2869 1.373 . S
C2871 C2855 1.377 . S
C2871 C2869 1.389 . S
C2871 C2872 1.524 . S
C2872 C2871 1.524 . S
C2872 C2873 1.397 . S
C2872 C2877 1.363 . S
C2873 H2844 0.950 . S
C2873 C2872 1.397 . S
C2873 C2874 1.334 . S
C2874 H2845 0.950 . S
C2874 C2873 1.334 . S
C2874 C2875 1.287 . S
C2875 C2874 1.287 . S
C2875 C2876 1.524 . S
C2875 H2878 0.999 . S
C2876 H2846 0.950 . S
C2876 C2875 1.524 . S
C2876 C2877 1.415 . S
C2877 H2847 0.950 . S
C2877 C2872 1.363 . S
C2877 C2876 1.415 . S
H2878 C2875 0.999 . S
H2879 C2860 0.913 . S
H2880 C2898 0.951 . S
H2881 C2900 0.951 . S
H2882 C2902 0.950 . S
H2883 C2903 0.950 . S
H2884 C2905 0.950 . S
H2885 C2908 0.950 . S
H2886 C2909 0.950 . S
H2887 C2911 0.950 . S
H2888 C2912 0.950 . S
H2889 C2913 0.951 . S
H2890 C2915 0.951 . S
H2891 C2917 0.950 . S
H2892 C2918 0.950 . S
H2893 C2920 0.950 . S
H2894 C2923 0.950 . S
H2895 C2924 0.950 . S
H2896 C2926 0.950 . S
H2897 C2927 0.950 . S
C2898 H2880 0.951 . S
C2898 C2899 1.366 . S
C2898 C2900 1.388 . S
C2899 C2898 1.366 . S
C2899 C2903 1.385 . S
C2900 H2881 0.951 . S
C2900 C2898 1.388 . S
C2900 C2901 1.366 . S
C2901 C2900 1.366 . S
C2901 C2902 1.414 . S
C2901 C2904 1.499 . S
C2902 H2882 0.950 . S
C2902 C2901 1.414 . S
C2902 C2903 1.374 . S
C2903 H2883 0.950 . S
C2903 C2899 1.385 . S
C2903 C2902 1.374 . S
C2904 C2901 1.499 . S
C2904 C2905 1.373 . S
C2904 C2906 1.389 . S
C2905 H2884 0.950 . S
C2905 C2904 1.373 . S
C2905 C2921 1.377 . S
C2906 C2904 1.389 . S
C2906 C2907 1.524 . S
C2906 C2920 1.377 . S
C2907 C2906 1.524 . S
C2907 C2908 1.397 . S
C2907 C2912 1.363 . S
C2908 H2885 0.950 . S
C2908 C2907 1.397 . S
C2908 C2909 1.334 . S
C2909 H2886 0.950 . S
C2909 C2908 1.334 . S
C2909 C2910 1.287 . S
C2910 C2909 1.287 . S
C2910 C2911 1.524 . S
C2910 H2929 0.913 . S
C2911 H2887 0.950 . S
C2911 C2910 1.524 . S
C2911 C2912 1.415 . S
C2912 H2888 0.950 . S
C2912 C2907 1.363 . S
C2912 C2911 1.415 . S
C2913 H2889 0.951 . S
C2913 C2914 1.366 . S
C2913 C2915 1.388 . S
C2914 C2913 1.366 . S
C2914 C2918 1.385 . S
C2915 H2890 0.951 . S
C2915 C2913 1.388 . S
C2915 C2916 1.366 . S
C2916 C2915 1.366 . S
C2916 C2917 1.414 . S
C2916 C2919 1.499 . S
C2917 H2891 0.950 . S
C2917 C2916 1.414 . S
C2917 C2918 1.374 . S
C2918 H2892 0.950 . S
C2918 C2914 1.385 . S
C2918 C2917 1.374 . S
C2919 C2916 1.499 . S
C2919 C2920 1.373 . S
C2919 C2921 1.389 . S
C2920 H2893 0.950 . S
C2920 C2906 1.377 . S
C2920 C2919 1.373 . S
C2921 C2905 1.377 . S
C2921 C2919 1.389 . S
C2921 C2922 1.524 . S
C2922 C2921 1.524 . S
C2922 C2923 1.397 1_554 S
C2922 C2927 1.363 . S
C2923 H2894 0.950 . S
C2923 C2922 1.397 1_556 S
C2923 C2924 1.334 . S
C2924 H2895 0.950 . S
C2924 C2923 1.334 . S
C2924 C2925 1.287 . S
C2925 C2924 1.287 . S
C2925 C2926 1.524 . S
C2925 H2928 0.999 . S
C2926 H2896 0.950 . S
C2926 C2925 1.524 . S
C2926 C2927 1.415 1_556 S
C2927 H2897 0.950 . S
C2927 C2922 1.363 . S
C2927 C2926 1.415 1_554 S
H2928 C2925 0.999 . S
H2929 C2910 0.913 . S
H2930 C2948 0.951 . S
H2931 C2950 0.951 . S
H2932 C2952 0.950 . S
H2933 C2953 0.950 . S
H2934 C2955 0.950 . S
H2935 C2958 0.950 . S
H2936 C2959 0.950 . S
H2937 C2961 0.950 . S
H2938 C2962 0.950 . S
H2939 C2963 0.951 . S
H2940 C2965 0.951 . S
H2941 C2967 0.950 . S
H2942 C2968 0.950 . S
H2943 C2970 0.950 . S
H2944 C2973 0.950 . S
H2945 C2974 0.950 . S
H2946 C2976 0.950 . S
H2947 C2977 0.950 . S
C2948 H2930 0.951 . S
C2948 C2949 1.366 . S
C2948 C2950 1.388 . S
C2949 C2948 1.366 . S
C2949 C2953 1.385 . S
C2950 H2931 0.951 . S
C2950 C2948 1.388 . S
C2950 C2951 1.366 . S
C2951 C2950 1.366 . S
C2951 C2952 1.414 . S
C2951 C2954 1.499 . S
C2952 H2932 0.950 . S
C2952 C2951 1.414 . S
C2952 C2953 1.374 . S
C2953 H2933 0.950 . S
C2953 C2949 1.385 . S
C2953 C2952 1.374 . S
C2954 C2951 1.499 . S
C2954 C2955 1.373 . S
C2954 C2956 1.389 . S
C2955 H2934 0.950 . S
C2955 C2954 1.373 . S
C2955 C2971 1.377 . S
C2956 C2954 1.389 . S
C2956 C2957 1.524 . S
C2956 C2970 1.377 . S
C2957 C2956 1.524 . S
C2957 C2958 1.397 . S
C2957 C2962 1.363 . S
C2958 H2935 0.950 . S
C2958 C2957 1.397 . S
C2958 C2959 1.334 . S
C2959 H2936 0.950 . S
C2959 C2958 1.334 . S
C2959 C2960 1.287 . S
C2960 C2959 1.287 . S
C2960 C2961 1.524 . S
C2960 H2979 0.913 . S
C2961 H2937 0.950 . S
C2961 C2960 1.524 . S
C2961 C2962 1.415 . S
C2962 H2938 0.950 . S
C2962 C2957 1.363 . S
C2962 C2961 1.415 . S
C2963 H2939 0.951 . S
C2963 C2964 1.366 . S
C2963 C2965 1.388 . S
C2964 C2963 1.366 . S
C2964 C2968 1.385 . S
C2965 H2940 0.951 . S
C2965 C2963 1.388 . S
C2965 C2966 1.366 . S
C2966 C2965 1.366 . S
C2966 C2967 1.414 . S
C2966 C2969 1.499 . S
C2967 H2941 0.950 . S
C2967 C2966 1.414 . S
C2967 C2968 1.374 . S
C2968 H2942 0.950 . S
C2968 C2964 1.385 . S
C2968 C2967 1.374 . S
C2969 C2966 1.499 . S
C2969 C2970 1.373 . S
C2969 C2971 1.389 . S
C2970 H2943 0.950 . S
C2970 C2956 1.377 . S
C2970 C2969 1.373 . S
C2971 C2955 1.377 . S
C2971 C2969 1.389 . S
C2971 C2972 1.524 . S
C2972 C2971 1.524 . S
C2972 C2973 1.397 . S
C2972 C2977 1.363 . S
C2973 H2944 0.950 . S
C2973 C2972 1.397 . S
C2973 C2974 1.334 . S
C2974 H2945 0.950 . S
C2974 C2973 1.334 . S
C2974 C2975 1.287 . S
C2975 C2974 1.287 . S
C2975 C2976 1.524 . S
C2975 H2978 0.999 . S
C2976 H2946 0.950 . S
C2976 C2975 1.524 . S
C2976 C2977 1.415 . S
C2977 H2947 0.950 . S
C2977 C2972 1.363 . S
C2977 C2976 1.415 . S
H2978 C2975 0.999 . S
H2979 C2960 0.913 . S
H2980 C2998 0.951 . S
H2981 C3000 0.951 . S
H2982 C3002 0.950 . S
H2983 C3003 0.950 . S
H2984 C3005 0.950 . S
H2985 C3008 0.950 . S
H2986 C3009 0.950 . S
H2987 C3011 0.950 . S
H2988 C3012 0.950 . S
H2989 C3013 0.951 . S
H2990 C3015 0.951 . S
H2991 C3017 0.950 . S
H2992 C3018 0.950 . S
H2993 C3020 0.950 . S
H2994 C3023 0.950 . S
H2995 C3024 0.950 . S
H2996 C3026 0.950 . S
H2997 C3027 0.950 . S
C2998 H2980 0.951 . S
C2998 C2999 1.366 . S
C2998 C3000 1.388 . S
C2999 C2998 1.366 . S
C2999 C3003 1.385 . S
C3000 H2981 0.951 . S
C3000 C2998 1.388 . S
C3000 C3001 1.366 . S
C3001 C3000 1.366 . S
C3001 C3002 1.414 . S
C3001 C3004 1.499 . S
C3002 H2982 0.950 . S
C3002 C3001 1.414 . S
C3002 C3003 1.374 . S
C3003 H2983 0.950 . S
C3003 C2999 1.385 . S
C3003 C3002 1.374 . S
C3004 C3001 1.499 . S
C3004 C3005 1.373 . S
C3004 C3006 1.389 . S
C3005 H2984 0.950 . S
C3005 C3004 1.373 . S
C3005 C3021 1.377 . S
C3006 C3004 1.389 . S
C3006 C3007 1.524 . S
C3006 C3020 1.377 . S
C3007 C3006 1.524 . S
C3007 C3008 1.397 . S
C3007 C3012 1.363 . S
C3008 H2985 0.950 . S
C3008 C3007 1.397 . S
C3008 C3009 1.334 . S
C3009 H2986 0.950 . S
C3009 C3008 1.334 . S
C3009 C3010 1.287 . S
C3010 C3009 1.287 . S
C3010 C3011 1.524 . S
C3010 H3029 0.913 . S
C3011 H2987 0.950 . S
C3011 C3010 1.524 . S
C3011 C3012 1.415 . S
C3012 H2988 0.950 . S
C3012 C3007 1.363 . S
C3012 C3011 1.415 . S
C3013 H2989 0.951 . S
C3013 C3014 1.366 . S
C3013 C3015 1.388 . S
C3014 C3013 1.366 . S
C3014 C3018 1.385 . S
C3015 H2990 0.951 . S
C3015 C3013 1.388 . S
C3015 C3016 1.366 . S
C3016 C3015 1.366 . S
C3016 C3017 1.414 . S
C3016 C3019 1.499 . S
C3017 H2991 0.950 . S
C3017 C3016 1.414 . S
C3017 C3018 1.374 . S
C3018 H2992 0.950 . S
C3018 C3014 1.385 . S
C3018 C3017 1.374 . S
C3019 C3016 1.499 . S
C3019 C3020 1.373 . S
C3019 C3021 1.389 . S
C3020 H2993 0.950 . S
C3020 C3006 1.377 . S
C3020 C3019 1.373 . S
C3021 C3005 1.377 . S
C3021 C3019 1.389 . S
C3021 C3022 1.524 . S
C3022 C3021 1.524 . S
C3022 C3023 1.397 . S
C3022 C3027 1.363 . S
C3023 H2994 0.950 . S
C3023 C3022 1.397 . S
C3023 C3024 1.334 . S
C3024 H2995 0.950 . S
C3024 C3023 1.334 . S
C3024 C3025 1.287 . S
C3025 C3024 1.287 . S
C3025 C3026 1.524 . S
C3025 H3028 0.999 . S
C3026 H2996 0.950 . S
C3026 C3025 1.524 . S
C3026 C3027 1.415 . S
C3027 H2997 0.950 . S
C3027 C3022 1.363 . S
C3027 C3026 1.415 . S
H3028 C3025 0.999 . S
H3029 C3010 0.913 . S
H3030 C3048 0.951 . S
H3031 C3050 0.951 . S
H3032 C3052 0.950 . S
H3033 C3053 0.950 . S
H3034 C3055 0.950 . S
H3035 C3058 0.950 . S
H3036 C3059 0.950 . S
H3037 C3061 0.950 . S
H3038 C3062 0.950 . S
H3039 C3063 0.951 . S
H3040 C3065 0.951 . S
H3041 C3067 0.950 . S
H3042 C3068 0.950 . S
H3043 C3070 0.950 . S
H3044 C3073 0.950 . S
H3045 C3074 0.950 . S
H3046 C3076 0.950 . S
H3047 C3077 0.950 . S
C3048 H3030 0.951 . S
C3048 C3049 1.366 . S
C3048 C3050 1.388 . S
C3049 C3048 1.366 . S
C3049 C3053 1.385 . S
C3050 H3031 0.951 . S
C3050 C3048 1.388 . S
C3050 C3051 1.366 . S
C3051 C3050 1.366 . S
C3051 C3052 1.414 . S
C3051 C3054 1.499 . S
C3052 H3032 0.950 . S
C3052 C3051 1.414 . S
C3052 C3053 1.374 . S
C3053 H3033 0.950 . S
C3053 C3049 1.385 . S
C3053 C3052 1.374 . S
C3054 C3051 1.499 . S
C3054 C3055 1.373 . S
C3054 C3056 1.389 . S
C3055 H3034 0.950 . S
C3055 C3054 1.373 . S
C3055 C3071 1.377 . S
C3056 C3054 1.389 . S
C3056 C3057 1.524 . S
C3056 C3070 1.377 . S
C3057 C3056 1.524 . S
C3057 C3058 1.397 . S
C3057 C3062 1.363 . S
C3058 H3035 0.950 . S
C3058 C3057 1.397 . S
C3058 C3059 1.334 . S
C3059 H3036 0.950 . S
C3059 C3058 1.334 . S
C3059 C3060 1.287 . S
C3060 C3059 1.287 . S
C3060 C3061 1.524 . S
C3060 H3079 0.913 . S
C3061 H3037 0.950 . S
C3061 C3060 1.524 . S
C3061 C3062 1.415 . S
C3062 H3038 0.950 . S
C3062 C3057 1.363 . S
C3062 C3061 1.415 . S
C3063 H3039 0.951 . S
C3063 C3064 1.366 . S
C3063 C3065 1.388 . S
C3064 C3063 1.366 . S
C3064 C3068 1.385 . S
C3065 H3040 0.951 . S
C3065 C3063 1.388 . S
C3065 C3066 1.366 . S
C3066 C3065 1.366 . S
C3066 C3067 1.414 . S
C3066 C3069 1.499 . S
C3067 H3041 0.950 . S
C3067 C3066 1.414 . S
C3067 C3068 1.374 . S
C3068 H3042 0.950 . S
C3068 C3064 1.385 . S
C3068 C3067 1.374 . S
C3069 C3066 1.499 . S
C3069 C3070 1.373 . S
C3069 C3071 1.389 . S
C3070 H3043 0.950 . S
C3070 C3056 1.377 . S
C3070 C3069 1.373 . S
C3071 C3055 1.377 . S
C3071 C3069 1.389 . S
C3071 C3072 1.524 . S
C3072 C3071 1.524 . S
C3072 C3073 1.397 . S
C3072 C3077 1.363 . S
C3073 H3044 0.950 . S
C3073 C3072 1.397 . S
C3073 C3074 1.334 . S
C3074 H3045 0.950 . S
C3074 C3073 1.334 . S
C3074 C3075 1.287 . S
C3075 C3074 1.287 . S
C3075 C3076 1.524 . S
C3075 H3078 0.999 . S
C3076 H3046 0.950 . S
C3076 C3075 1.524 . S
C3076 C3077 1.415 . S
C3077 H3047 0.950 . S
C3077 C3072 1.363 . S
C3077 C3076 1.415 . S
H3078 C3075 0.999 . S
H3079 C3060 0.913 . S
H3080 C3098 0.951 . S
H3081 C3100 0.951 . S
H3082 C3102 0.950 . S
H3083 C3103 0.950 . S
H3084 C3105 0.950 . S
H3085 C3108 0.950 . S
H3086 C3109 0.950 . S
H3087 C3111 0.950 . S
H3088 C3112 0.950 . S
H3089 C3113 0.951 . S
H3090 C3115 0.951 . S
H3091 C3117 0.950 . S
H3092 C3118 0.950 . S
H3093 C3120 0.950 . S
H3094 C3123 0.950 . S
H3095 C3124 0.950 . S
H3096 C3126 0.950 . S
H3097 C3127 0.950 . S
C3098 H3080 0.951 . S
C3098 C3099 1.366 . S
C3098 C3100 1.388 . S
C3099 C3098 1.366 . S
C3099 C3103 1.385 . S
C3100 H3081 0.951 . S
C3100 C3098 1.388 . S
C3100 C3101 1.366 . S
C3101 C3100 1.366 . S
C3101 C3102 1.414 . S
C3101 C3104 1.499 . S
C3102 H3082 0.950 . S
C3102 C3101 1.414 . S
C3102 C3103 1.374 . S
C3103 H3083 0.950 . S
C3103 C3099 1.385 . S
C3103 C3102 1.374 . S
C3104 C3101 1.499 . S
C3104 C3105 1.373 . S
C3104 C3106 1.389 . S
C3105 H3084 0.950 . S
C3105 C3104 1.373 . S
C3105 C3121 1.377 . S
C3106 C3104 1.389 . S
C3106 C3107 1.524 . S
C3106 C3120 1.377 . S
C3107 C3106 1.524 . S
C3107 C3108 1.397 . S
C3107 C3112 1.363 . S
C3108 H3085 0.950 . S
C3108 C3107 1.397 . S
C3108 C3109 1.334 . S
C3109 H3086 0.950 . S
C3109 C3108 1.334 . S
C3109 C3110 1.287 . S
C3110 C3109 1.287 . S
C3110 C3111 1.524 . S
C3110 H3129 0.913 . S
C3111 H3087 0.950 . S
C3111 C3110 1.524 . S
C3111 C3112 1.415 . S
C3112 H3088 0.950 . S
C3112 C3107 1.363 . S
C3112 C3111 1.415 . S
C3113 H3089 0.951 . S
C3113 C3114 1.366 . S
C3113 C3115 1.388 . S
C3114 C3113 1.366 . S
C3114 C3118 1.385 . S
C3115 H3090 0.951 . S
C3115 C3113 1.388 . S
C3115 C3116 1.366 . S
C3116 C3115 1.366 . S
C3116 C3117 1.414 . S
C3116 C3119 1.499 . S
C3117 H3091 0.950 . S
C3117 C3116 1.414 . S
C3117 C3118 1.374 . S
C3118 H3092 0.950 . S
C3118 C3114 1.385 . S
C3118 C3117 1.374 . S
C3119 C3116 1.499 . S
C3119 C3120 1.373 . S
C3119 C3121 1.389 . S
C3120 H3093 0.950 . S
C3120 C3106 1.377 . S
C3120 C3119 1.373 . S
C3121 C3105 1.377 . S
C3121 C3119 1.389 . S
C3121 C3122 1.524 . S
C3122 C3121 1.524 . S
C3122 C3123 1.397 . S
C3122 C3127 1.363 . S
C3123 H3094 0.950 . S
C3123 C3122 1.397 . S
C3123 C3124 1.334 . S
C3124 H3095 0.950 . S
C3124 C3123 1.334 . S
C3124 C3125 1.287 . S
C3125 C3124 1.287 . S
C3125 C3126 1.524 . S
C3125 H3128 0.999 . S
C3126 H3096 0.950 . S
C3126 C3125 1.524 . S
C3126 C3127 1.415 . S
C3127 H3097 0.950 . S
C3127 C3122 1.363 . S
C3127 C3126 1.415 . S
H3128 C3125 0.999 . S
H3129 C3110 0.913 . S
H3130 C3148 0.951 . S
H3131 C3150 0.951 . S
H3132 C3152 0.950 . S
H3133 C3153 0.950 . S
H3134 C3155 0.950 . S
H3135 C3158 0.950 . S
H3136 C3159 0.950 . S
H3137 C3161 0.950 . S
H3138 C3162 0.950 . S
H3139 C3163 0.951 . S
H3140 C3165 0.951 . S
H3141 C3167 0.950 . S
H3142 C3168 0.950 . S
H3143 C3170 0.950 . S
H3144 C3173 0.950 . S
H3145 C3174 0.950 . S
H3146 C3176 0.950 . S
H3147 C3177 0.950 . S
C3148 H3130 0.951 . S
C3148 C3149 1.366 . S
C3148 C3150 1.388 . S
C3149 C3148 1.366 . S
C3149 C3153 1.385 . S
C3150 H3131 0.951 . S
C3150 C3148 1.388 . S
C3150 C3151 1.366 . S
C3151 C3150 1.366 . S
C3151 C3152 1.414 . S
C3151 C3154 1.499 . S
C3152 H3132 0.950 . S
C3152 C3151 1.414 . S
C3152 C3153 1.374 . S
C3153 H3133 0.950 . S
C3153 C3149 1.385 . S
C3153 C3152 1.374 . S
C3154 C3151 1.499 . S
C3154 C3155 1.373 . S
C3154 C3156 1.389 . S
C3155 H3134 0.950 . S
C3155 C3154 1.373 . S
C3155 C3171 1.377 . S
C3156 C3154 1.389 . S
C3156 C3157 1.524 . S
C3156 C3170 1.377 . S
C3157 C3156 1.524 . S
C3157 C3158 1.397 . S
C3157 C3162 1.363 . S
C3158 H3135 0.950 . S
C3158 C3157 1.397 . S
C3158 C3159 1.334 . S
C3159 H3136 0.950 . S
C3159 C3158 1.334 . S
C3159 C3160 1.287 . S
C3160 C3159 1.287 . S
C3160 C3161 1.524 . S
C3160 H3179 0.913 . S
C3161 H3137 0.950 . S
C3161 C3160 1.524 . S
C3161 C3162 1.415 . S
C3162 H3138 0.950 . S
C3162 C3157 1.363 . S
C3162 C3161 1.415 . S
C3163 H3139 0.951 . S
C3163 C3164 1.366 . S
C3163 C3165 1.388 . S
C3164 C3163 1.366 . S
C3164 C3168 1.385 . S
C3165 H3140 0.951 . S
C3165 C3163 1.388 . S
C3165 C3166 1.366 . S
C3166 C3165 1.366 . S
C3166 C3167 1.414 . S
C3166 C3169 1.499 . S
C3167 H3141 0.950 . S
C3167 C3166 1.414 . S
C3167 C3168 1.374 . S
C3168 H3142 0.950 . S
C3168 C3164 1.385 . S
C3168 C3167 1.374 . S
C3169 C3166 1.499 . S
C3169 C3170 1.373 . S
C3169 C3171 1.389 . S
C3170 H3143 0.950 . S
C3170 C3156 1.377 . S
C3170 C3169 1.373 . S
C3171 C3155 1.377 . S
C3171 C3169 1.389 . S
C3171 C3172 1.524 . S
C3172 C3171 1.524 . S
C3172 C3173 1.397 . S
C3172 C3177 1.363 . S
C3173 H3144 0.950 . S
C3173 C3172 1.397 . S
C3173 C3174 1.334 . S
C3174 H3145 0.950 . S
C3174 C3173 1.334 . S
C3174 C3175 1.287 . S
C3175 C3174 1.287 . S
C3175 C3176 1.524 . S
C3175 H3178 0.999 . S
C3176 H3146 0.950 . S
C3176 C3175 1.524 . S
C3176 C3177 1.415 . S
C3177 H3147 0.950 . S
C3177 C3172 1.363 . S
C3177 C3176 1.415 . S
H3178 C3175 0.999 . S
H3179 C3160 0.913 . S
H3180 C3198 0.951 . S
H3181 C3200 0.951 . S
H3182 C3202 0.950 . S
H3183 C3203 0.950 . S
H3184 C3205 0.950 . S
H3185 C3208 0.950 . S
H3186 C3209 0.950 . S
H3187 C3211 0.950 . S
H3188 C3212 0.950 . S
H3189 C3213 0.906 1_545 S
H3190 C3215 0.951 . S
H3191 C3217 0.950 . S
H3192 C3218 0.950 . S
H3193 C3220 0.950 . S
H3194 C3223 0.950 . S
H3195 C3224 0.950 . S
H3196 C3226 0.950 . S
H3197 C3227 0.950 . S
C3198 H3180 0.951 . S
C3198 C3199 1.366 . S
C3198 C3200 1.388 . S
C3199 C3198 1.366 . S
C3199 C3203 1.385 . S
C3200 H3181 0.951 . S
C3200 C3198 1.388 . S
C3200 C3201 1.366 . S
C3201 C3200 1.366 . S
C3201 C3202 1.414 . S
C3201 C3204 1.499 . S
C3202 H3182 0.950 . S
C3202 C3201 1.414 . S
C3202 C3203 1.374 . S
C3203 H3183 0.950 . S
C3203 C3199 1.385 . S
C3203 C3202 1.374 . S
C3204 C3201 1.499 . S
C3204 C3205 1.373 . S
C3204 C3206 1.389 . S
C3205 H3184 0.950 . S
C3205 C3204 1.373 . S
C3205 C3221 1.377 . S
C3206 C3204 1.389 . S
C3206 C3207 1.524 . S
C3206 C3220 1.377 . S
C3207 C3206 1.524 . S
C3207 C3208 1.397 . S
C3207 C3212 1.363 . S
C3208 H3185 0.950 . S
C3208 C3207 1.397 . S
C3208 C3209 1.334 . S
C3209 H3186 0.950 . S
C3209 C3208 1.334 . S
C3209 C3210 1.287 . S
C3210 C3209 1.287 . S
C3210 C3211 1.524 . S
C3210 H3229 0.913 . S
C3211 H3187 0.950 . S
C3211 C3210 1.524 . S
C3211 C3212 1.415 . S
C3212 H3188 0.950 . S
C3212 C3207 1.363 . S
C3212 C3211 1.415 . S
C3213 H3189 0.906 1_565 S
C3213 C3214 1.364 . S
C3213 C3215 1.436 . S
C3214 C3213 1.364 . S
C3214 C3218 1.385 . S
C3215 H3190 0.951 . S
C3215 C3213 1.436 . S
C3215 C3216 1.366 . S
C3216 C3215 1.366 . S
C3216 C3217 1.414 . S
C3216 C3219 1.499 . S
C3217 H3191 0.950 . S
C3217 C3216 1.414 . S
C3217 C3218 1.374 . S
C3218 H3192 0.950 . S
C3218 C3214 1.385 . S
C3218 C3217 1.374 . S
C3219 C3216 1.499 . S
C3219 C3220 1.373 . S
C3219 C3221 1.389 . S
C3220 H3193 0.950 . S
C3220 C3206 1.377 . S
C3220 C3219 1.373 . S
C3221 C3205 1.377 . S
C3221 C3219 1.389 . S
C3221 C3222 1.524 . S
C3222 C3221 1.524 . S
C3222 C3223 1.397 1_556 S
C3222 C3227 1.363 . S
C3223 H3194 0.950 . S
C3223 C3222 1.397 1_554 S
C3223 C3224 1.334 . S
C3224 H3195 0.950 . S
C3224 C3223 1.334 . S
C3224 C3225 1.287 . S
C3225 C3224 1.287 . S
C3225 C3226 1.524 . S
C3225 H3228 0.999 . S
C3226 H3196 0.950 . S
C3226 C3225 1.524 . S
C3226 C3227 1.415 1_554 S
C3227 H3197 0.950 . S
C3227 C3222 1.363 . S
C3227 C3226 1.415 1_556 S
H3228 C3225 0.999 . S
H3229 C3210 0.913 . S
H3230 C3248 0.951 . S
H3231 C3250 0.951 . S
H3232 C3252 0.950 . S
H3233 C3253 0.950 . S
H3234 C3255 0.950 . S
H3235 C3258 0.950 . S
H3236 C3259 0.950 . S
H3237 C3261 0.950 . S
H3238 C3262 0.950 . S
H3239 C3263 0.951 . S
H3240 C3265 0.951 . S
H3241 C3267 0.950 . S
H3242 C3268 0.950 . S
H3243 C3270 0.950 . S
H3244 C3273 0.950 . S
H3245 C3274 0.950 . S
H3246 C3276 0.950 . S
H3247 C3277 0.950 . S
C3248 H3230 0.951 . S
C3248 C3249 1.366 . S
C3248 C3250 1.388 . S
C3249 C3248 1.366 . S
C3249 C3253 1.385 . S
C3250 H3231 0.951 . S
C3250 C3248 1.388 . S
C3250 C3251 1.366 . S
C3251 C3250 1.366 . S
C3251 C3252 1.414 . S
C3251 C3254 1.499 . S
C3252 H3232 0.950 . S
C3252 C3251 1.414 . S
C3252 C3253 1.374 . S
C3253 H3233 0.950 . S
C3253 C3249 1.385 . S
C3253 C3252 1.374 . S
C3254 C3251 1.499 . S
C3254 C3255 1.373 . S
C3254 C3256 1.389 . S
C3255 H3234 0.950 . S
C3255 C3254 1.373 . S
C3255 C3271 1.377 . S
C3256 C3254 1.389 . S
C3256 C3257 1.524 . S
C3256 C3270 1.377 . S
C3257 C3256 1.524 . S
C3257 C3258 1.397 . S
C3257 C3262 1.363 . S
C3258 H3235 0.950 . S
C3258 C3257 1.397 . S
C3258 C3259 1.334 . S
C3259 H3236 0.950 . S
C3259 C3258 1.334 . S
C3259 C3260 1.287 . S
C3260 C3259 1.287 . S
C3260 C3261 1.524 . S
C3260 H3279 0.913 . S
C3261 H3237 0.950 . S
C3261 C3260 1.524 . S
C3261 C3262 1.415 . S
C3262 H3238 0.950 . S
C3262 C3257 1.363 . S
C3262 C3261 1.415 . S
C3263 H3239 0.951 . S
C3263 C3264 1.366 . S
C3263 C3265 1.388 . S
C3264 C3263 1.366 . S
C3264 C3268 1.385 . S
C3265 H3240 0.951 . S
C3265 C3263 1.388 . S
C3265 C3266 1.366 . S
C3266 C3265 1.366 . S
C3266 C3267 1.414 . S
C3266 C3269 1.499 . S
C3267 H3241 0.950 . S
C3267 C3266 1.414 . S
C3267 C3268 1.374 . S
C3268 H3242 0.950 . S
C3268 C3264 1.385 . S
C3268 C3267 1.374 . S
C3269 C3266 1.499 . S
C3269 C3270 1.373 . S
C3269 C3271 1.389 . S
C3270 H3243 0.950 . S
C3270 C3256 1.377 . S
C3270 C3269 1.373 . S
C3271 C3255 1.377 . S
C3271 C3269 1.389 . S
C3271 C3272 1.524 . S
C3272 C3271 1.524 . S
C3272 C3273 1.397 . S
C3272 C3277 1.363 . S
C3273 H3244 0.950 . S
C3273 C3272 1.397 . S
C3273 C3274 1.334 . S
C3274 H3245 0.950 . S
C3274 C3273 1.334 . S
C3274 C3275 1.287 . S
C3275 C3274 1.287 . S
C3275 C3276 1.524 . S
C3275 H3278 0.999 . S
C3276 H3246 0.950 . S
C3276 C3275 1.524 . S
C3276 C3277 1.415 . S
C3277 H3247 0.950 . S
C3277 C3272 1.363 . S
C3277 C3276 1.415 . S
H3278 C3275 0.999 . S
H3279 C3260 0.913 . S
H3280 C3298 0.951 . S
H3281 C3300 0.951 . S
H3282 C3302 0.950 . S
H3283 C3303 0.950 . S
H3284 C3305 0.950 . S
H3285 C3308 0.950 . S
H3286 C3309 0.950 . S
H3287 C3311 0.950 1_565 S
H3288 C3312 0.950 1_565 S
H3289 C3313 0.951 . S
H3290 C3315 0.951 . S
H3291 C3317 0.931 1_565 S
H3292 C3318 0.950 1_565 S
H3293 C3320 0.950 . S
H3294 C3323 0.950 . S
H3295 C3324 0.950 . S
H3296 C3326 0.950 . S
H3297 C3327 0.950 . S
C3298 H3280 0.951 . S
C3298 C3299 1.366 1_565 S
C3298 C3300 1.388 . S
C3299 C3298 1.366 1_545 S
C3299 C3303 1.385 . S
C3300 H3281 0.951 . S
C3300 C3298 1.388 . S
C3300 C3301 1.366 1_565 S
C3301 C3300 1.366 1_545 S
C3301 C3302 1.414 . S
C3301 C3304 1.499 . S
C3302 H3282 0.950 . S
C3302 C3301 1.414 . S
C3302 C3303 1.374 . S
C3303 H3283 0.950 . S
C3303 C3299 1.385 . S
C3303 C3302 1.374 . S
C3304 C3301 1.499 . S
C3304 C3305 1.373 . S
C3304 C3306 1.389 . S
C3305 H3284 0.950 . S
C3305 C3304 1.373 . S
C3305 C3321 1.377 . S
C3306 C3304 1.389 . S
C3306 C3307 1.524 . S
C3306 C3320 1.377 . S
C3307 C3306 1.524 . S
C3307 C3308 1.397 . S
C3307 C3312 1.363 . S
C3308 H3285 0.950 . S
C3308 C3307 1.397 . S
C3308 C3309 1.334 . S
C3309 H3286 0.950 . S
C3309 C3308 1.334 . S
C3309 C3310 1.287 . S
C3310 C3309 1.287 . S
C3310 C3311 1.524 . S
C3310 H3329 0.913 . S
C3311 H3287 0.950 1_545 S
C3311 C3310 1.524 . S
C3311 C3312 1.415 . S
C3312 H3288 0.950 1_545 S
C3312 C3307 1.363 . S
C3312 C3311 1.415 . S
C3313 H3289 0.951 . S
C3313 C3314 1.366 . S
C3313 C3315 1.388 . S
C3314 C3313 1.366 . S
C3314 C3318 1.385 . S
C3315 H3290 0.951 . S
C3315 C3313 1.388 . S
C3315 C3316 1.366 . S
C3316 C3315 1.366 . S
C3316 C3317 1.436 . S
C3316 C3319 1.499 . S
C3317 H3291 0.931 1_545 S
C3317 C3316 1.436 . S
C3317 C3318 1.374 . S
C3318 H3292 0.950 1_545 S
C3318 C3314 1.385 . S
C3318 C3317 1.374 . S
C3319 C3316 1.499 . S
C3319 C3320 1.373 . S
C3319 C3321 1.389 . S
C3320 H3293 0.950 . S
C3320 C3306 1.377 . S
C3320 C3319 1.373 . S
C3321 C3305 1.377 . S
C3321 C3319 1.389 . S
C3321 C3322 1.524 . S
C3322 C3321 1.524 . S
C3322 C3323 1.397 1_545 S
C3322 C3327 1.363 . S
C3323 H3294 0.950 . S
C3323 C3322 1.397 1_565 S
C3323 C3324 1.334 . S
C3324 H3295 0.950 . S
C3324 C3323 1.334 . S
C3324 C3325 1.287 . S
C3325 C3324 1.287 . S
C3325 C3326 1.524 1_565 S
C3325 H3328 0.999 . S
C3326 H3296 0.950 . S
C3326 C3325 1.524 1_545 S
C3326 C3327 1.415 . S
C3327 H3297 0.950 . S
C3327 C3322 1.363 . S
C3327 C3326 1.415 . S
H3328 C3325 0.999 . S
H3329 C3310 0.913 . S
H3330 C3348 0.951 . S
H3331 C3350 0.951 . S
H3332 C3352 0.950 . S
H3333 C3353 0.950 . S
H3334 C3355 0.950 . S
H3335 C3358 0.950 . S
H3336 C3359 0.950 . S
H3337 C3361 0.950 . S
H3338 C3362 0.950 . S
H3339 C3363 0.951 . S
H3340 C3365 0.951 . S
H3341 C3367 0.950 . S
H3342 C3368 0.950 . S
H3343 C3370 0.950 . S
H3344 C3373 0.950 . S
H3345 C3374 0.950 . S
H3346 C3376 0.950 . S
H3347 C3377 0.950 . S
C3348 H3330 0.951 . S
C3348 C3349 1.366 . S
C3348 C3350 1.388 . S
C3349 C3348 1.366 . S
C3349 C3353 1.385 . S
C3350 H3331 0.951 . S
C3350 C3348 1.388 . S
C3350 C3351 1.366 . S
C3351 C3350 1.366 . S
C3351 C3352 1.414 . S
C3351 C3354 1.499 . S
C3352 H3332 0.950 . S
C3352 C3351 1.414 . S
C3352 C3353 1.374 . S
C3353 H3333 0.950 . S
C3353 C3349 1.385 . S
C3353 C3352 1.374 . S
C3354 C3351 1.499 . S
C3354 C3355 1.373 . S
C3354 C3356 1.389 . S
C3355 H3334 0.950 . S
C3355 C3354 1.373 . S
C3355 C3371 1.377 . S
C3356 C3354 1.389 . S
C3356 C3357 1.524 . S
C3356 C3370 1.377 . S
C3357 C3356 1.524 . S
C3357 C3358 1.397 . S
C3357 C3362 1.363 . S
C3358 H3335 0.950 . S
C3358 C3357 1.397 . S
C3358 C3359 1.334 . S
C3359 H3336 0.950 . S
C3359 C3358 1.334 . S
C3359 C3360 1.287 . S
C3360 C3359 1.287 . S
C3360 C3361 1.524 . S
C3360 H3379 0.913 . S
C3361 H3337 0.950 . S
C3361 C3360 1.524 . S
C3361 C3362 1.415 . S
C3362 H3338 0.950 . S
C3362 C3357 1.363 . S
C3362 C3361 1.415 . S
C3363 H3339 0.951 . S
C3363 C3364 1.366 . S
C3363 C3365 1.388 . S
C3364 C3363 1.366 . S
C3364 C3368 1.385 . S
C3365 H3340 0.951 . S
C3365 C3363 1.388 . S
C3365 C3366 1.366 . S
C3366 C3365 1.366 . S
C3366 C3367 1.414 . S
C3366 C3369 1.499 . S
C3367 H3341 0.950 . S
C3367 C3366 1.414 . S
C3367 C3368 1.374 . S
C3368 H3342 0.950 . S
C3368 C3364 1.385 . S
C3368 C3367 1.374 . S
C3369 C3366 1.499 . S
C3369 C3370 1.373 . S
C3369 C3371 1.389 . S
C3370 H3343 0.950 . S
C3370 C3356 1.377 . S
C3370 C3369 1.373 . S
C3371 C3355 1.377 . S
C3371 C3369 1.389 . S
C3371 C3372 1.524 . S
C3372 C3371 1.524 . S
C3372 C3373 1.397 . S
C3372 C3377 1.363 . S
C3373 H3344 0.950 . S
C3373 C3372 1.397 . S
C3373 C3374 1.334 . S
C3374 H3345 0.950 . S
C3374 C3373 1.334 . S
C3374 C3375 1.287 . S
C3375 C3374 1.287 . S
C3375 C3376 1.524 . S
C3375 H3378 0.999 . S
C3376 H3346 0.950 . S
C3376 C3375 1.524 . S
C3376 C3377 1.415 . S
C3377 H3347 0.950 . S
C3377 C3372 1.363 . S
C3377 C3376 1.415 . S
H3378 C3375 0.999 . S
H3379 C3360 0.913 . S
H3380 C3398 0.951 . S
H3381 C3400 0.951 . S
H3382 C3402 0.950 . S
H3383 C3403 0.950 . S
H3384 C3405 0.950 . S
H3385 C3408 0.946 . S
H3386 C3409 0.950 . S
H3387 C3411 0.950 . S
H3388 C3412 0.950 . S
H3389 C3413 0.951 . S
H3390 C3415 0.951 . S
H3391 C3417 0.950 . S
H3392 C3418 0.950 . S
H3393 C3420 0.950 . S
H3394 C3423 0.950 . S
H3395 C3424 0.950 . S
H3396 C3426 0.950 . S
H3397 C3427 0.950 . S
C3398 H3380 0.951 . S
C3398 C3399 1.366 . S
C3398 C3400 1.388 . S
C3399 C3398 1.366 . S
C3399 C3403 1.385 . S
C3400 H3381 0.951 . S
C3400 C3398 1.388 . S
C3400 C3401 1.366 . S
C3401 C3400 1.366 . S
C3401 C3402 1.414 . S
C3401 C3404 1.499 . S
C3402 H3382 0.950 . S
C3402 C3401 1.414 . S
C3402 C3403 1.374 . S
C3403 H3383 0.950 . S
C3403 C3399 1.385 . S
C3403 C3402 1.374 . S
C3404 C3401 1.499 . S
C3404 C3405 1.373 . S
C3404 C3406 1.389 . S
C3405 H3384 0.950 . S
C3405 C3404 1.373 . S
C3405 C3421 1.377 . S
C3406 C3404 1.389 . S
C3406 C3407 1.524 . S
C3406 C3420 1.377 . S
C3407 C3406 1.524 . S
C3407 C3408 1.397 . S
C3407 C3412 1.363 . S
C3408 H3385 0.946 . S
C3408 C3407 1.397 . S
C3408 C3409 1.334 1_545 S
C3409 H3386 0.950 . S
C3409 C3408 1.334 1_565 S
C3409 C3410 1.287 . S
C3410 C3409 1.287 . S
C3410 C3411 1.524 1_565 S
C3410 H3429 0.913 . S
C3411 H3387 0.950 . S
C3411 C3410 1.524 1_545 S
C3411 C3412 1.415 . S
C3412 H3388 0.950 . S
C3412 C3407 1.363 . S
C3412 C3411 1.415 . S
C3413 H3389 0.951 . S
C3413 C3414 1.366 . S
C3413 C3415 1.388 . S
C3414 C3413 1.366 . S
C3414 C3418 1.385 . S
C3415 H3390 0.951 . S
C3415 C3413 1.388 . S
C3415 C3416 1.366 . S
C3416 C3415 1.366 . S
C3416 C3417 1.414 . S
C3416 C3419 1.499 . S
C3417 H3391 0.950 . S
C3417 C3416 1.414 . S
C3417 C3418 1.374 . S
C3418 H3392 0.950 . S
C3418 C3414 1.385 . S
C3418 C3417 1.374 . S
C3419 C3416 1.499 . S
C3419 C3420 1.373 . S
C3419 C3421 1.389 . S
C3420 H3393 0.950 . S
C3420 C3406 1.377 . S
C3420 C3419 1.373 . S
C3421 C3405 1.377 . S
C3421 C3419 1.389 . S
C3421 C3422 1.524 . S
C3422 C3421 1.524 . S
C3422 C3423 1.397 . S
C3422 C3427 1.363 . S
C3423 H3394 0.950 . S
C3423 C3422 1.397 . S
C3423 C3424 1.334 . S
C3424 H3395 0.950 . S
C3424 C3423 1.334 . S
C3424 C3425 1.287 . S
C3425 C3424 1.287 . S
C3425 C3426 1.524 . S
C3425 H3428 0.999 . S
C3426 H3396 0.950 . S
C3426 C3425 1.524 . S
C3426 C3427 1.415 . S
C3427 H3397 0.950 . S
C3427 C3422 1.363 . S
C3427 C3426 1.415 . S
H3428 C3425 0.999 . S
H3429 C3410 0.913 . S
H3430 C3448 0.951 . S
H3431 C3450 0.951 . S
H3432 C3452 0.950 . S
H3433 C3453 0.950 . S
H3434 C3455 0.950 . S
H3435 C3458 0.950 . S
H3436 C3459 0.950 . S
H3437 C3461 0.950 . S
H3438 C3462 0.950 . S
H3439 C3463 0.951 . S
H3440 C3465 0.951 . S
H3441 C3467 0.950 . S
H3442 C3468 0.950 . S
H3443 C3470 0.950 . S
H3444 C3473 0.950 . S
H3445 C3474 0.950 . S
H3446 C3476 0.950 . S
H3447 C3477 0.950 . S
C3448 H3430 0.951 . S
C3448 C3449 1.366 . S
C3448 C3450 1.388 . S
C3449 C3448 1.366 . S
C3449 C3453 1.385 . S
C3450 H3431 0.951 . S
C3450 C3448 1.388 . S
C3450 C3451 1.366 . S
C3451 C3450 1.366 . S
C3451 C3452 1.414 . S
C3451 C3454 1.499 . S
C3452 H3432 0.950 . S
C3452 C3451 1.414 . S
C3452 C3453 1.374 . S
C3453 H3433 0.950 . S
C3453 C3449 1.385 . S
C3453 C3452 1.374 . S
C3454 C3451 1.499 . S
C3454 C3455 1.373 . S
C3454 C3456 1.389 . S
C3455 H3434 0.950 . S
C3455 C3454 1.373 . S
C3455 C3471 1.377 . S
C3456 C3454 1.389 . S
C3456 C3457 1.524 . S
C3456 C3470 1.377 . S
C3457 C3456 1.524 . S
C3457 C3458 1.397 . S
C3457 C3462 1.363 . S
C3458 H3435 0.950 . S
C3458 C3457 1.397 . S
C3458 C3459 1.334 . S
C3459 H3436 0.950 . S
C3459 C3458 1.334 . S
C3459 C3460 1.287 . S
C3460 C3459 1.287 . S
C3460 C3461 1.524 . S
C3460 H3479 0.913 . S
C3461 H3437 0.950 . S
C3461 C3460 1.524 . S
C3461 C3462 1.415 . S
C3462 H3438 0.950 . S
C3462 C3457 1.363 . S
C3462 C3461 1.415 . S
C3463 H3439 0.951 . S
C3463 C3464 1.366 . S
C3463 C3465 1.388 . S
C3464 C3463 1.366 . S
C3464 C3468 1.385 . S
C3465 H3440 0.951 . S
C3465 C3463 1.388 . S
C3465 C3466 1.366 . S
C3466 C3465 1.366 . S
C3466 C3467 1.414 . S
C3466 C3469 1.499 . S
C3467 H3441 0.950 . S
C3467 C3466 1.414 . S
C3467 C3468 1.374 . S
C3468 H3442 0.950 . S
C3468 C3464 1.385 . S
C3468 C3467 1.374 . S
C3469 C3466 1.499 . S
C3469 C3470 1.373 . S
C3469 C3471 1.389 . S
C3470 H3443 0.950 . S
C3470 C3456 1.377 . S
C3470 C3469 1.373 . S
C3471 C3455 1.377 . S
C3471 C3469 1.389 . S
C3471 C3472 1.524 . S
C3472 C3471 1.524 . S
C3472 C3473 1.397 . S
C3472 C3477 1.363 . S
C3473 H3444 0.950 . S
C3473 C3472 1.397 . S
C3473 C3474 1.334 . S
C3474 H3445 0.950 . S
C3474 C3473 1.334 . S
C3474 C3475 1.287 . S
C3475 C3474 1.287 . S
C3475 C3476 1.524 . S
C3475 H3478 0.999 . S
C3476 H3446 0.950 . S
C3476 C3475 1.524 . S
C3476 C3477 1.415 . S
C3477 H3447 0.950 . S
C3477 C3472 1.363 . S
C3477 C3476 1.415 . S
H3478 C3475 0.999 . S
H3479 C3460 0.913 . S
H3480 C3498 0.951 . S
H3481 C3500 0.951 . S
H3482 C3502 0.950 . S
H3483 C3503 0.950 . S
H3484 C3505 0.950 . S
H3485 C3508 0.950 . S
H3486 C3509 0.950 . S
H3487 C3511 0.950 . S
H3488 C3512 0.950 1_545 S
H3489 C3513 0.951 . S
H3490 C3515 0.951 . S
H3491 C3517 0.950 . S
H3492 C3518 0.950 . S
H3493 C3520 0.950 . S
H3494 C3523 0.950 . S
H3495 C3524 0.950 . S
H3496 C3526 0.950 . S
H3497 C3527 0.950 . S
C3498 H3480 0.951 . S
C3498 C3499 1.366 1_545 S
C3498 C3500 1.388 . S
C3499 C3498 1.366 1_565 S
C3499 C3503 1.385 . S
C3500 H3481 0.951 . S
C3500 C3498 1.388 . S
C3500 C3501 1.366 . S
C3501 C3500 1.366 . S
C3501 C3502 1.414 1_545 S
C3501 C3504 1.499 . S
C3502 H3482 0.950 . S
C3502 C3501 1.414 1_565 S
C3502 C3503 1.374 . S
C3503 H3483 0.950 . S
C3503 C3499 1.385 . S
C3503 C3502 1.374 . S
C3504 C3501 1.499 . S
C3504 C3505 1.373 . S
C3504 C3506 1.389 . S
C3505 H3484 0.950 . S
C3505 C3504 1.373 . S
C3505 C3521 1.377 . S
C3506 C3504 1.389 . S
C3506 C3507 1.524 1_545 S
C3506 C3520 1.377 . S
C3507 C3506 1.524 1_565 S
C3507 C3508 1.397 . S
C3507 C3512 1.363 . S
C3508 H3485 0.950 . S
C3508 C3507 1.397 . S
C3508 C3509 1.334 . S
C3509 H3486 0.950 . S
C3509 C3508 1.334 . S
C3509 C3510 1.287 . S
C3510 C3509 1.287 . S
C3510 C3511 1.524 . S
C3510 H3529 0.913 . S
C3511 H3487 0.950 . S
C3511 C3510 1.524 . S
C3511 C3512 1.415 . S
C3512 H3488 0.950 1_565 S
C3512 C3507 1.363 . S
C3512 C3511 1.415 . S
C3513 H3489 0.951 . S
C3513 C3514 1.366 . S
C3513 C3515 1.388 . S
C3514 C3513 1.366 . S
C3514 C3518 1.385 . S
C3515 H3490 0.951 . S
C3515 C3513 1.388 . S
C3515 C3516 1.366 . S
C3516 C3515 1.366 . S
C3516 C3517 1.414 . S
C3516 C3519 1.499 . S
C3517 H3491 0.950 . S
C3517 C3516 1.414 . S
C3517 C3518 1.374 . S
C3518 H3492 0.950 . S
C3518 C3514 1.385 . S
C3518 C3517 1.374 . S
C3519 C3516 1.499 . S
C3519 C3520 1.373 . S
C3519 C3521 1.389 . S
C3520 H3493 0.950 . S
C3520 C3506 1.377 . S
C3520 C3519 1.373 . S
C3521 C3505 1.377 . S
C3521 C3519 1.389 . S
C3521 C3522 1.524 . S
C3522 C3521 1.524 . S
C3522 C3523 1.397 . S
C3522 C3527 1.363 . S
C3523 H3494 0.950 . S
C3523 C3522 1.397 . S
C3523 C3524 1.334 . S
C3524 H3495 0.950 . S
C3524 C3523 1.334 . S
C3524 C3525 1.287 . S
C3525 C3524 1.287 . S
C3525 C3526 1.524 . S
C3525 H3528 0.999 . S
C3526 H3496 0.950 . S
C3526 C3525 1.524 . S
C3526 C3527 1.415 . S
C3527 H3497 0.950 . S
C3527 C3522 1.363 . S
C3527 C3526 1.415 . S
H3528 C3525 0.999 . S
H3529 C3510 0.913 . S
H3530 C3548 0.951 . S
H3531 C3550 0.951 . S
H3532 C3552 0.950 . S
H3533 C3553 0.950 . S
H3534 C3555 0.950 . S
H3535 C3558 0.950 . S
H3536 C3559 0.950 . S
H3537 C3561 0.950 . S
H3538 C3562 0.950 . S
H3539 C3563 0.951 . S
H3540 C3565 0.951 . S
H3541 C3567 0.950 . S
H3542 C3568 0.950 . S
H3543 C3570 0.950 . S
H3544 C3573 0.950 . S
H3545 C3574 0.950 . S
H3546 C3576 0.950 . S
H3547 C3577 0.950 . S
C3548 H3530 0.951 . S
C3548 C3549 1.366 . S
C3548 C3550 1.388 . S
C3549 C3548 1.366 . S
C3549 C3553 1.385 . S
C3550 H3531 0.951 . S
C3550 C3548 1.388 . S
C3550 C3551 1.366 . S
C3551 C3550 1.366 . S
C3551 C3552 1.414 . S
C3551 C3554 1.499 . S
C3552 H3532 0.950 . S
C3552 C3551 1.414 . S
C3552 C3553 1.374 . S
C3553 H3533 0.950 . S
C3553 C3549 1.385 . S
C3553 C3552 1.374 . S
C3554 C3551 1.499 . S
C3554 C3555 1.373 . S
C3554 C3556 1.389 . S
C3555 H3534 0.950 . S
C3555 C3554 1.373 . S
C3555 C3571 1.377 . S
C3556 C3554 1.389 . S
C3556 C3557 1.524 . S
C3556 C3570 1.377 . S
C3557 C3556 1.524 . S
C3557 C3558 1.397 . S
C3557 C3562 1.363 . S
C3558 H3535 0.950 . S
C3558 C3557 1.397 . S
C3558 C3559 1.334 . S
C3559 H3536 0.950 . S
C3559 C3558 1.334 . S
C3559 C3560 1.287 . S
C3560 C3559 1.287 . S
C3560 C3561 1.524 . S
C3560 H3579 0.913 . S
C3561 H3537 0.950 . S
C3561 C3560 1.524 . S
C3561 C3562 1.415 . S
C3562 H3538 0.950 . S
C3562 C3557 1.363 . S
C3562 C3561 1.415 . S
C3563 H3539 0.951 . S
C3563 C3564 1.366 . S
C3563 C3565 1.388 . S
C3564 C3563 1.366 . S
C3564 C3568 1.385 . S
C3565 H3540 0.951 . S
C3565 C3563 1.388 . S
C3565 C3566 1.366 . S
C3566 C3565 1.366 . S
C3566 C3567 1.414 . S
C3566 C3569 1.499 . S
C3567 H3541 0.950 . S
C3567 C3566 1.414 . S
C3567 C3568 1.374 . S
C3568 H3542 0.950 . S
C3568 C3564 1.385 . S
C3568 C3567 1.374 . S
C3569 C3566 1.499 . S
C3569 C3570 1.373 . S
C3569 C3571 1.389 . S
C3570 H3543 0.950 . S
C3570 C3556 1.377 . S
C3570 C3569 1.373 . S
C3571 C3555 1.377 . S
C3571 C3569 1.389 . S
C3571 C3572 1.524 . S
C3572 C3571 1.524 . S
C3572 C3573 1.397 . S
C3572 C3577 1.363 . S
C3573 H3544 0.950 . S
C3573 C3572 1.397 . S
C3573 C3574 1.334 . S
C3574 H3545 0.950 . S
C3574 C3573 1.334 . S
C3574 C3575 1.287 . S
C3575 C3574 1.287 . S
C3575 C3576 1.524 . S
C3575 H3578 0.999 . S
C3576 H3546 0.950 . S
C3576 C3575 1.524 . S
C3576 C3577 1.415 . S
C3577 H3547 0.950 . S
C3577 C3572 1.363 . S
C3577 C3576 1.415 . S
H3578 C3575 0.999 . S
H3579 C3560 0.913 . S
H3580 C3598 0.951 . S
H3581 C3600 0.951 . S
H3582 C3602 0.900 1_565 S
H3583 C3603 0.961 . S
H3584 C3605 0.950 . S
H3585 C3608 0.950 . S
H3586 C3609 0.950 . S
H3587 C3611 0.950 . S
H3588 C3612 0.950 . S
H3589 C3613 0.951 1_565 S
H3590 C3615 0.951 1_565 S
H3591 C3617 0.950 . S
H3592 C3618 0.950 . S
H3593 C3620 0.950 . S
H3594 C3623 0.950 . S
H3595 C3624 0.950 . S
H3596 C3626 0.950 . S
H3597 C3627 0.950 . S
C3598 H3580 0.951 . S
C3598 C3599 1.366 . S
C3598 C3600 1.388 . S
C3599 C3598 1.366 . S
C3599 C3603 1.385 . S
C3600 H3581 0.951 . S
C3600 C3598 1.388 . S
C3600 C3601 1.366 . S
C3601 C3600 1.366 . S
C3601 C3602 1.414 . S
C3601 C3604 1.499 . S
C3602 H3582 0.900 1_545 S
C3602 C3601 1.414 . S
C3602 C3603 1.374 . S
C3603 H3583 0.961 . S
C3603 C3599 1.385 . S
C3603 C3602 1.374 . S
C3604 C3601 1.499 . S
C3604 C3605 1.373 . S
C3604 C3606 1.389 . S
C3605 H3584 0.950 . S
C3605 C3604 1.373 . S
C3605 C3621 1.377 . S
C3606 C3604 1.389 . S
C3606 C3607 1.524 . S
C3606 C3620 1.377 . S
C3607 C3606 1.524 . S
C3607 C3608 1.397 . S
C3607 C3612 1.363 . S
C3608 H3585 0.950 . S
C3608 C3607 1.397 . S
C3608 C3609 1.334 . S
C3609 H3586 0.950 . S
C3609 C3608 1.334 . S
C3609 C3610 1.287 . S
C3610 C3609 1.287 . S
C3610 C3611 1.524 . S
C3610 H3629 0.913 . S
C3611 H3587 0.950 . S
C3611 C3610 1.524 . S
C3611 C3612 1.415 . S
C3612 H3588 0.950 . S
C3612 C3607 1.363 . S
C3612 C3611 1.415 . S
C3613 H3589 0.951 1_545 S
C3613 C3614 1.366 . S
C3613 C3615 1.388 . S
C3614 C3613 1.366 . S
C3614 C3618 1.385 . S
C3615 H3590 0.951 1_545 S
C3615 C3613 1.388 . S
C3615 C3616 1.366 . S
C3616 C3615 1.366 . S
C3616 C3617 1.414 . S
C3616 C3619 1.499 . S
C3617 H3591 0.950 . S
C3617 C3616 1.414 . S
C3617 C3618 1.374 . S
C3618 H3592 0.950 . S
C3618 C3614 1.385 . S
C3618 C3617 1.374 . S
C3619 C3616 1.499 . S
C3619 C3620 1.373 . S
C3619 C3621 1.389 . S
C3620 H3593 0.950 . S
C3620 C3606 1.377 . S
C3620 C3619 1.373 . S
C3621 C3605 1.377 . S
C3621 C3619 1.389 . S
C3621 C3622 1.524 . S
C3622 C3621 1.524 . S
C3622 C3623 1.397 . S
C3622 C3627 1.363 1_545 S
C3623 H3594 0.950 . S
C3623 C3622 1.397 . S
C3623 C3624 1.334 . S
C3624 H3595 0.950 . S
C3624 C3623 1.334 . S
C3624 C3625 1.287 . S
C3625 C3624 1.287 . S
C3625 C3626 1.524 1_545 S
C3625 H3628 0.999 . S
C3626 H3596 0.950 . S
C3626 C3625 1.524 1_565 S
C3626 C3627 1.415 . S
C3627 H3597 0.950 . S
C3627 C3622 1.363 1_565 S
C3627 C3626 1.415 . S
H3628 C3625 0.999 . S
H3629 C3610 0.913 . S
H3630 C3648 0.951 . S
H3631 C3650 0.951 . S
H3632 C3652 0.950 . S
H3633 C3653 0.950 . S
H3634 C3655 0.950 . S
H3635 C3658 0.950 . S
H3636 C3659 0.950 . S
H3637 C3661 0.950 . S
H3638 C3662 0.950 . S
H3639 C3663 0.951 . S
H3640 C3665 0.951 . S
H3641 C3667 0.950 . S
H3642 C3668 0.950 . S
H3643 C3670 0.950 . S
H3644 C3673 0.950 . S
H3645 C3674 0.950 . S
H3646 C3676 0.950 . S
H3647 C3677 0.950 . S
C3648 H3630 0.951 . S
C3648 C3649 1.366 . S
C3648 C3650 1.388 . S
C3649 C3648 1.366 . S
C3649 C3653 1.385 . S
C3650 H3631 0.951 . S
C3650 C3648 1.388 . S
C3650 C3651 1.366 . S
C3651 C3650 1.366 . S
C3651 C3652 1.414 . S
C3651 C3654 1.499 . S
C3652 H3632 0.950 . S
C3652 C3651 1.414 . S
C3652 C3653 1.374 . S
C3653 H3633 0.950 . S
C3653 C3649 1.385 . S
C3653 C3652 1.374 . S
C3654 C3651 1.499 . S
C3654 C3655 1.373 . S
C3654 C3656 1.389 . S
C3655 H3634 0.950 . S
C3655 C3654 1.373 . S
C3655 C3671 1.377 . S
C3656 C3654 1.389 . S
C3656 C3657 1.524 . S
C3656 C3670 1.377 . S
C3657 C3656 1.524 . S
C3657 C3658 1.397 . S
C3657 C3662 1.363 . S
C3658 H3635 0.950 . S
C3658 C3657 1.397 . S
C3658 C3659 1.334 . S
C3659 H3636 0.950 . S
C3659 C3658 1.334 . S
C3659 C3660 1.287 . S
C3660 C3659 1.287 . S
C3660 C3661 1.524 . S
C3660 H3679 0.913 . S
C3661 H3637 0.950 . S
C3661 C3660 1.524 . S
C3661 C3662 1.415 . S
C3662 H3638 0.950 . S
C3662 C3657 1.363 . S
C3662 C3661 1.415 . S
C3663 H3639 0.951 . S
C3663 C3664 1.366 . S
C3663 C3665 1.388 . S
C3664 C3663 1.366 . S
C3664 C3668 1.385 . S
C3665 H3640 0.951 . S
C3665 C3663 1.388 . S
C3665 C3666 1.366 . S
C3666 C3665 1.366 . S
C3666 C3667 1.414 . S
C3666 C3669 1.499 . S
C3667 H3641 0.950 . S
C3667 C3666 1.414 . S
C3667 C3668 1.374 . S
C3668 H3642 0.950 . S
C3668 C3664 1.385 . S
C3668 C3667 1.374 . S
C3669 C3666 1.499 . S
C3669 C3670 1.373 . S
C3669 C3671 1.389 . S
C3670 H3643 0.950 . S
C3670 C3656 1.377 . S
C3670 C3669 1.373 . S
C3671 C3655 1.377 . S
C3671 C3669 1.389 . S
C3671 C3672 1.524 . S
C3672 C3671 1.524 . S
C3672 C3673 1.397 . S
C3672 C3677 1.363 . S
C3673 H3644 0.950 . S
C3673 C3672 1.397 . S
C3673 C3674 1.334 . S
C3674 H3645 0.950 . S
C3674 C3673 1.334 . S
C3674 C3675 1.287 . S
C3675 C3674 1.287 . S
C3675 C3676 1.524 . S
C3675 H3678 0.999 . S
C3676 H3646 0.950 . S
C3676 C3675 1.524 . S
C3676 C3677 1.415 . S
C3677 H3647 0.950 . S
C3677 C3672 1.363 . S
C3677 C3676 1.415 . S
H3678 C3675 0.999 . S
H3679 C3660 0.913 . S
H3680 C3698 0.951 . S
H3681 C3700 0.951 . S
H3682 C3702 0.950 . S
H3683 C3703 0.950 . S
H3684 C3705 0.950 . S
H3685 C3708 0.950 . S
H3686 C3709 0.950 . S
H3687 C3711 0.950 . S
H3688 C3712 0.950 . S
H3689 C3713 0.951 . S
H3690 C3715 0.951 . S
H3691 C3717 0.950 1_556 S
H3692 C3718 0.946 1_556 S
H3693 C3720 0.950 . S
H3694 C3723 0.950 . S
H3695 C3724 0.950 . S
H3696 C3726 0.950 . S
H3697 C3727 0.950 1_554 S
C3698 H3680 0.951 . S
C3698 C3699 1.366 . S
C3698 C3700 1.388 . S
C3699 C3698 1.366 . S
C3699 C3703 1.385 . S
C3700 H3681 0.951 . S
C3700 C3698 1.388 . S
C3700 C3701 1.366 . S
C3701 C3700 1.366 . S
C3701 C3702 1.414 . S
C3701 C3704 1.499 . S
C3702 H3682 0.950 . S
C3702 C3701 1.414 . S
C3702 C3703 1.374 . S
C3703 H3683 0.950 . S
C3703 C3699 1.385 . S
C3703 C3702 1.374 . S
C3704 C3701 1.499 . S
C3704 C3705 1.373 . S
C3704 C3706 1.389 . S
C3705 H3684 0.950 . S
C3705 C3704 1.373 . S
C3705 C3721 1.377 . S
C3706 C3704 1.389 . S
C3706 C3707 1.524 . S
C3706 C3720 1.377 . S
C3707 C3706 1.524 . S
C3707 C3708 1.397 . S
C3707 C3712 1.363 . S
C3708 H3685 0.950 . S
C3708 C3707 1.397 . S
C3708 C3709 1.334 . S
C3709 H3686 0.950 . S
C3709 C3708 1.334 . S
C3709 C3710 1.287 . S
C3710 C3709 1.287 . S
C3710 C3711 1.524 . S
C3710 H3729 0.913 . S
C3711 H3687 0.950 . S
C3711 C3710 1.524 . S
C3711 C3712 1.415 . S
C3712 H3688 0.950 . S
C3712 C3707 1.363 . S
C3712 C3711 1.415 . S
C3713 H3689 0.951 . S
C3713 C3714 1.366 . S
C3713 C3715 1.388 . S
C3714 C3713 1.366 . S
C3714 C3718 1.389 . S
C3715 H3690 0.951 . S
C3715 C3713 1.388 . S
C3715 C3716 1.366 . S
C3716 C3715 1.366 . S
C3716 C3717 1.414 . S
C3716 C3719 1.499 . S
C3717 H3691 0.950 1_554 S
C3717 C3716 1.414 . S
C3717 C3718 1.375 . S
C3718 H3692 0.946 1_554 S
C3718 C3714 1.389 . S
C3718 C3717 1.375 . S
C3719 C3716 1.499 . S
C3719 C3720 1.373 . S
C3719 C3721 1.389 . S
C3720 H3693 0.950 . S
C3720 C3706 1.377 . S
C3720 C3719 1.373 . S
C3721 C3705 1.377 . S
C3721 C3719 1.389 . S
C3721 C3722 1.524 1_554 S
C3722 C3721 1.524 1_556 S
C3722 C3723 1.397 . S
C3722 C3727 1.363 . S
C3723 H3694 0.950 . S
C3723 C3722 1.397 . S
C3723 C3724 1.334 . S
C3724 H3695 0.950 . S
C3724 C3723 1.334 . S
C3724 C3725 1.287 . S
C3725 C3724 1.287 . S
C3725 C3726 1.524 . S
C3725 H3728 0.999 . S
C3726 H3696 0.950 . S
C3726 C3725 1.524 . S
C3726 C3727 1.415 . S
C3727 H3697 0.950 1_556 S
C3727 C3722 1.363 . S
C3727 C3726 1.415 . S
H3728 C3725 0.999 . S
H3729 C3710 0.913 . S
H3730 C3748 0.951 . S
H3731 C3750 0.951 . S
H3732 C3752 0.950 . S
H3733 C3753 0.950 . S
H3734 C3755 0.950 . S
H3735 C3758 0.950 . S
H3736 C3759 0.950 . S
H3737 C3761 0.950 . S
H3738 C3762 0.950 . S
H3739 C3763 0.951 . S
H3740 C3765 0.951 . S
H3741 C3767 0.950 . S
H3742 C3768 0.950 . S
H3743 C3770 0.950 . S
H3744 C3773 0.950 . S
H3745 C3774 0.950 . S
H3746 C3776 0.950 . S
H3747 C3777 0.950 1_556 S
C3748 H3730 0.951 . S
C3748 C3749 1.366 . S
C3748 C3750 1.388 . S
C3749 C3748 1.366 . S
C3749 C3753 1.385 . S
C3750 H3731 0.951 . S
C3750 C3748 1.388 . S
C3750 C3751 1.366 . S
C3751 C3750 1.366 . S
C3751 C3752 1.414 . S
C3751 C3754 1.499 . S
C3752 H3732 0.950 . S
C3752 C3751 1.414 . S
C3752 C3753 1.374 . S
C3753 H3733 0.950 . S
C3753 C3749 1.385 . S
C3753 C3752 1.374 . S
C3754 C3751 1.499 . S
C3754 C3755 1.373 . S
C3754 C3756 1.389 . S
C3755 H3734 0.950 . S
C3755 C3754 1.373 . S
C3755 C3771 1.377 . S
C3756 C3754 1.389 . S
C3756 C3757 1.524 . S
C3756 C3770 1.377 . S
C3757 C3756 1.524 . S
C3757 C3758 1.397 . S
C3757 C3762 1.363 . S
C3758 H3735 0.950 . S
C3758 C3757 1.397 . S
C3758 C3759 1.334 . S
C3759 H3736 0.950 . S
C3759 C3758 1.334 . S
C3759 C3760 1.287 . S
C3760 C3759 1.287 . S
C3760 C3761 1.524 . S
C3760 H3779 0.913 . S
C3761 H3737 0.950 . S
C3761 C3760 1.524 . S
C3761 C3762 1.415 . S
C3762 H3738 0.950 . S
C3762 C3757 1.363 . S
C3762 C3761 1.415 . S
C3763 H3739 0.951 . S
C3763 C3764 1.366 . S
C3763 C3765 1.388 . S
C3764 C3763 1.366 . S
C3764 C3768 1.385 . S
C3765 H3740 0.951 . S
C3765 C3763 1.388 . S
C3765 C3766 1.366 . S
C3766 C3765 1.366 . S
C3766 C3767 1.414 . S
C3766 C3769 1.499 . S
C3767 H3741 0.950 . S
C3767 C3766 1.414 . S
C3767 C3768 1.374 . S
C3768 H3742 0.950 . S
C3768 C3764 1.385 . S
C3768 C3767 1.374 . S
C3769 C3766 1.499 . S
C3769 C3770 1.373 . S
C3769 C3771 1.389 . S
C3770 H3743 0.950 . S
C3770 C3756 1.377 . S
C3770 C3769 1.373 . S
C3771 C3755 1.377 . S
C3771 C3769 1.389 . S
C3771 C3772 1.524 . S
C3772 C3771 1.524 . S
C3772 C3773 1.397 . S
C3772 C3777 1.363 . S
C3773 H3744 0.950 . S
C3773 C3772 1.397 . S
C3773 C3774 1.334 . S
C3774 H3745 0.950 . S
C3774 C3773 1.334 . S
C3774 C3775 1.287 . S
C3775 C3774 1.287 . S
C3775 C3776 1.524 1_554 S
C3775 H3778 0.999 . S
C3776 H3746 0.950 . S
C3776 C3775 1.524 1_556 S
C3776 C3777 1.415 1_556 S
C3777 H3747 0.950 1_554 S
C3777 C3772 1.363 . S
C3777 C3776 1.415 1_554 S
H3778 C3775 0.999 . S
H3779 C3760 0.913 . S
H3780 C3798 0.951 . S
H3781 C3800 0.951 . S
H3782 C3802 0.950 . S
H3783 C3803 0.950 . S
H3784 C3805 0.950 . S
H3785 C3808 0.950 . S
H3786 C3809 0.950 . S
H3787 C3811 0.950 . S
H3788 C3812 0.950 . S
H3789 C3813 0.951 . S
H3790 C3815 0.951 . S
H3791 C3817 0.950 . S
H3792 C3818 0.950 . S
H3793 C3820 0.950 . S
H3794 C3823 0.950 . S
H3795 C3824 0.950 . S
H3796 C3826 0.950 . S
H3797 C3827 0.950 . S
C3798 H3780 0.951 . S
C3798 C3799 1.366 . S
C3798 C3800 1.388 . S
C3799 C3798 1.366 . S
C3799 C3803 1.385 . S
C3800 H3781 0.951 . S
C3800 C3798 1.388 . S
C3800 C3801 1.366 . S
C3801 C3800 1.366 . S
C3801 C3802 1.414 . S
C3801 C3804 1.499 . S
C3802 H3782 0.950 . S
C3802 C3801 1.414 . S
C3802 C3803 1.374 . S
C3803 H3783 0.950 . S
C3803 C3799 1.385 . S
C3803 C3802 1.374 . S
C3804 C3801 1.499 . S
C3804 C3805 1.373 . S
C3804 C3806 1.389 . S
C3805 H3784 0.950 . S
C3805 C3804 1.373 . S
C3805 C3821 1.377 . S
C3806 C3804 1.389 . S
C3806 C3807 1.524 . S
C3806 C3820 1.377 . S
C3807 C3806 1.524 . S
C3807 C3808 1.397 . S
C3807 C3812 1.363 . S
C3808 H3785 0.950 . S
C3808 C3807 1.397 . S
C3808 C3809 1.334 . S
C3809 H3786 0.950 . S
C3809 C3808 1.334 . S
C3809 C3810 1.287 . S
C3810 C3809 1.287 . S
C3810 C3811 1.524 . S
C3810 H3829 0.913 . S
C3811 H3787 0.950 . S
C3811 C3810 1.524 . S
C3811 C3812 1.415 . S
C3812 H3788 0.950 . S
C3812 C3807 1.363 . S
C3812 C3811 1.415 . S
C3813 H3789 0.951 . S
C3813 C3814 1.366 . S
C3813 C3815 1.388 . S
C3814 C3813 1.366 . S
C3814 C3818 1.385 . S
C3815 H3790 0.951 . S
C3815 C3813 1.388 . S
C3815 C3816 1.366 . S
C3816 C3815 1.366 . S
C3816 C3817 1.414 . S
C3816 C3819 1.499 . S
C3817 H3791 0.950 . S
C3817 C3816 1.414 . S
C3817 C3818 1.374 . S
C3818 H3792 0.950 . S
C3818 C3814 1.385 . S
C3818 C3817 1.374 . S
C3819 C3816 1.499 . S
C3819 C3820 1.373 . S
C3819 C3821 1.389 . S
C3820 H3793 0.950 . S
C3820 C3806 1.377 . S
C3820 C3819 1.373 . S
C3821 C3805 1.377 . S
C3821 C3819 1.389 . S
C3821 C3822 1.524 . S
C3822 C3821 1.524 . S
C3822 C3823 1.397 . S
C3822 C3827 1.363 . S
C3823 H3794 0.950 . S
C3823 C3822 1.397 . S
C3823 C3824 1.334 . S
C3824 H3795 0.950 . S
C3824 C3823 1.334 . S
C3824 C3825 1.287 . S
C3825 C3824 1.287 . S
C3825 C3826 1.524 . S
C3825 H3828 0.999 . S
C3826 H3796 0.950 . S
C3826 C3825 1.524 . S
C3826 C3827 1.415 . S
C3827 H3797 0.950 . S
C3827 C3822 1.363 . S
C3827 C3826 1.415 . S
H3828 C3825 0.999 . S
H3829 C3810 0.913 . S
H3830 C3848 0.951 . S
H3831 C3850 0.951 . S
H3832 C3852 0.950 . S
H3833 C3853 0.950 . S
H3834 C3855 0.950 . S
H3835 C3858 0.950 . S
H3836 C3859 0.950 . S
H3837 C3861 0.950 . S
H3838 C3862 0.950 . S
H3839 C3863 0.951 . S
H3840 C3865 0.951 . S
H3841 C3867 0.950 . S
H3842 C3868 0.950 . S
H3843 C3870 0.950 . S
H3844 C3873 0.950 . S
H3845 C3874 0.950 . S
H3846 C3876 0.950 . S
H3847 C3877 0.950 . S
C3848 H3830 0.951 . S
C3848 C3849 1.366 . S
C3848 C3850 1.388 . S
C3849 C3848 1.366 . S
C3849 C3853 1.385 . S
C3850 H3831 0.951 . S
C3850 C3848 1.388 . S
C3850 C3851 1.366 . S
C3851 C3850 1.366 . S
C3851 C3852 1.414 . S
C3851 C3854 1.499 . S
C3852 H3832 0.950 . S
C3852 C3851 1.414 . S
C3852 C3853 1.374 . S
C3853 H3833 0.950 . S
C3853 C3849 1.385 . S
C3853 C3852 1.374 . S
C3854 C3851 1.499 . S
C3854 C3855 1.373 . S
C3854 C3856 1.389 . S
C3855 H3834 0.950 . S
C3855 C3854 1.373 . S
C3855 C3871 1.377 . S
C3856 C3854 1.389 . S
C3856 C3857 1.524 . S
C3856 C3870 1.377 . S
C3857 C3856 1.524 . S
C3857 C3858 1.397 . S
C3857 C3862 1.363 . S
C3858 H3835 0.950 . S
C3858 C3857 1.397 . S
C3858 C3859 1.334 . S
C3859 H3836 0.950 . S
C3859 C3858 1.334 . S
C3859 C3860 1.287 . S
C3860 C3859 1.287 . S
C3860 C3861 1.524 . S
C3860 H3879 0.913 . S
C3861 H3837 0.950 . S
C3861 C3860 1.524 . S
C3861 C3862 1.415 . S
C3862 H3838 0.950 . S
C3862 C3857 1.363 . S
C3862 C3861 1.415 . S
C3863 H3839 0.951 . S
C3863 C3864 1.366 . S
C3863 C3865 1.388 . S
C3864 C3863 1.366 . S
C3864 C3868 1.385 . S
C3865 H3840 0.951 . S
C3865 C3863 1.388 . S
C3865 C3866 1.366 . S
C3866 C3865 1.366 . S
C3866 C3867 1.414 . S
C3866 C3869 1.499 . S
C3867 H3841 0.950 . S
C3867 C3866 1.414 . S
C3867 C3868 1.374 . S
C3868 H3842 0.950 . S
C3868 C3864 1.385 . S
C3868 C3867 1.374 . S
C3869 C3866 1.499 . S
C3869 C3870 1.373 . S
C3869 C3871 1.389 . S
C3870 H3843 0.950 . S
C3870 C3856 1.377 . S
C3870 C3869 1.373 . S
C3871 C3855 1.377 . S
C3871 C3869 1.389 . S
C3871 C3872 1.524 . S
C3872 C3871 1.524 . S
C3872 C3873 1.397 . S
C3872 C3877 1.363 . S
C3873 H3844 0.950 . S
C3873 C3872 1.397 . S
C3873 C3874 1.334 . S
C3874 H3845 0.950 . S
C3874 C3873 1.334 . S
C3874 C3875 1.287 . S
C3875 C3874 1.287 . S
C3875 C3876 1.524 . S
C3875 H3878 0.999 . S
C3876 H3846 0.950 . S
C3876 C3875 1.524 . S
C3876 C3877 1.415 . S
C3877 H3847 0.950 . S
C3877 C3872 1.363 . S
C3877 C3876 1.415 . S
H3878 C3875 0.999 . S
H3879 C3860 0.913 . S
H3880 C3898 0.951 . S
H3881 C3900 0.951 . S
H3882 C3902 0.950 . S
H3883 C3903 0.950 . S
H3884 C3905 0.950 . S
H3885 C3908 0.950 . S
H3886 C3909 0.950 1_545 S
H3887 C3911 0.950 . S
H3888 C3912 0.950 . S
H3889 C3913 0.951 . S
H3890 C3915 0.951 . S
H3891 C3917 0.950 . S
H3892 C3918 0.950 . S
H3893 C3920 0.950 . S
H3894 C3923 0.950 . S
H3895 C3924 0.950 . S
H3896 C3926 0.950 . S
H3897 C3927 0.950 . S
C3898 H3880 0.951 . S
C3898 C3899 1.366 1_565 S
C3898 C3900 1.388 . S
C3899 C3898 1.366 1_545 S
C3899 C3903 1.385 . S
C3900 H3881 0.951 . S
C3900 C3898 1.388 . S
C3900 C3901 1.366 . S
C3901 C3900 1.366 . S
C3901 C3902 1.414 1_565 S
C3901 C3904 1.499 . S
C3902 H3882 0.950 . S
C3902 C3901 1.414 1_545 S
C3902 C3903 1.374 . S
C3903 H3883 0.950 . S
C3903 C3899 1.385 . S
C3903 C3902 1.374 . S
C3904 C3901 1.499 . S
C3904 C3905 1.373 . S
C3904 C3906 1.389 . S
C3905 H3884 0.950 . S
C3905 C3904 1.373 . S
C3905 C3921 1.377 . S
C3906 C3904 1.389 . S
C3906 C3907 1.524 . S
C3906 C3920 1.377 . S
C3907 C3906 1.524 . S
C3907 C3908 1.397 . S
C3907 C3912 1.363 . S
C3908 H3885 0.950 . S
C3908 C3907 1.397 . S
C3908 C3909 1.334 . S
C3909 H3886 0.950 1_565 S
C3909 C3908 1.334 . S
C3909 C3910 1.287 . S
C3910 C3909 1.287 . S
C3910 C3911 1.524 . S
C3910 H3929 0.913 . S
C3911 H3887 0.950 . S
C3911 C3910 1.524 . S
C3911 C3912 1.415 . S
C3912 H3888 0.950 . S
C3912 C3907 1.363 . S
C3912 C3911 1.415 . S
C3913 H3889 0.951 . S
C3913 C3914 1.366 . S
C3913 C3915 1.388 . S
C3914 C3913 1.366 . S
C3914 C3918 1.385 . S
C3915 H3890 0.951 . S
C3915 C3913 1.388 . S
C3915 C3916 1.366 . S
C3916 C3915 1.366 . S
C3916 C3917 1.414 . S
C3916 C3919 1.499 . S
C3917 H3891 0.950 . S
C3917 C3916 1.414 . S
C3917 C3918 1.374 . S
C3918 H3892 0.950 . S
C3918 C3914 1.385 . S
C3918 C3917 1.374 . S
C3919 C3916 1.499 . S
C3919 C3920 1.373 . S
C3919 C3921 1.389 . S
C3920 H3893 0.950 . S
C3920 C3906 1.377 . S
C3920 C3919 1.373 . S
C3921 C3905 1.377 . S
C3921 C3919 1.389 . S
C3921 C3922 1.524 . S
C3922 C3921 1.524 . S
C3922 C3923 1.397 . S
C3922 C3927 1.363 . S
C3923 H3894 0.950 . S
C3923 C3922 1.397 . S
C3923 C3924 1.334 . S
C3924 H3895 0.950 . S
C3924 C3923 1.334 . S
C3924 C3925 1.287 . S
C3925 C3924 1.287 . S
C3925 C3926 1.524 . S
C3925 H3928 0.999 . S
C3926 H3896 0.950 . S
C3926 C3925 1.524 . S
C3926 C3927 1.415 . S
C3927 H3897 0.950 . S
C3927 C3922 1.363 . S
C3927 C3926 1.415 . S
H3928 C3925 0.999 . S
H3929 C3910 0.913 . S
H3930 C3948 0.951 . S
H3931 C3950 0.951 . S
H3932 C3952 0.950 . S
H3933 C3953 0.950 . S
H3934 C3955 0.950 . S
H3935 C3958 0.950 . S
H3936 C3959 0.950 . S
H3937 C3961 0.950 1_545 S
H3938 C3962 0.950 . S
H3939 C3963 0.951 . S
H3940 C3965 0.951 . S
H3941 C3967 0.950 . S
H3942 C3968 0.950 1_545 S
H3943 C3970 0.950 . S
H3944 C3973 0.950 . S
H3945 C3974 0.950 . S
H3946 C3976 0.950 . S
H3947 C3977 0.950 . S
C3948 H3930 0.951 . S
C3948 C3949 1.366 . S
C3948 C3950 1.388 . S
C3949 C3948 1.366 . S
C3949 C3953 1.385 . S
C3950 H3931 0.951 . S
C3950 C3948 1.388 . S
C3950 C3951 1.366 . S
C3951 C3950 1.366 . S
C3951 C3952 1.414 . S
C3951 C3954 1.499 . S
C3952 H3932 0.950 . S
C3952 C3951 1.414 . S
C3952 C3953 1.374 . S
C3953 H3933 0.950 . S
C3953 C3949 1.385 . S
C3953 C3952 1.374 . S
C3954 C3951 1.499 . S
C3954 C3955 1.373 . S
C3954 C3956 1.389 . S
C3955 H3934 0.950 . S
C3955 C3954 1.373 . S
C3955 C3971 1.377 . S
C3956 C3954 1.389 . S
C3956 C3957 1.524 . S
C3956 C3970 1.377 . S
C3957 C3956 1.524 . S
C3957 C3958 1.397 . S
C3957 C3962 1.363 . S
C3958 H3935 0.950 . S
C3958 C3957 1.397 . S
C3958 C3959 1.334 . S
C3959 H3936 0.950 . S
C3959 C3958 1.334 . S
C3959 C3960 1.287 . S
C3960 C3959 1.287 . S
C3960 C3961 1.524 . S
C3960 H3979 0.913 . S
C3961 H3937 0.950 1_565 S
C3961 C3960 1.524 . S
C3961 C3962 1.415 . S
C3962 H3938 0.950 . S
C3962 C3957 1.363 . S
C3962 C3961 1.415 . S
C3963 H3939 0.951 . S
C3963 C3964 1.366 . S
C3963 C3965 1.388 . S
C3964 C3963 1.366 . S
C3964 C3968 1.385 . S
C3965 H3940 0.951 . S
C3965 C3963 1.388 . S
C3965 C3966 1.366 . S
C3966 C3965 1.366 . S
C3966 C3967 1.414 . S
C3966 C3969 1.499 . S
C3967 H3941 0.950 . S
C3967 C3966 1.414 . S
C3967 C3968 1.374 . S
C3968 H3942 0.950 1_565 S
C3968 C3964 1.385 . S
C3968 C3967 1.374 . S
C3969 C3966 1.499 . S
C3969 C3970 1.373 . S
C3969 C3971 1.389 . S
C3970 H3943 0.950 . S
C3970 C3956 1.377 . S
C3970 C3969 1.373 . S
C3971 C3955 1.377 . S
C3971 C3969 1.389 . S
C3971 C3972 1.524 . S
C3972 C3971 1.524 . S
C3972 C3973 1.397 . S
C3972 C3977 1.363 . S
C3973 H3944 0.950 . S
C3973 C3972 1.397 . S
C3973 C3974 1.334 . S
C3974 H3945 0.950 . S
C3974 C3973 1.334 . S
C3974 C3975 1.287 . S
C3975 C3974 1.287 . S
C3975 C3976 1.524 . S
C3975 H3978 0.999 . S
C3976 H3946 0.950 . S
C3976 C3975 1.524 . S
C3976 C3977 1.415 . S
C3977 H3947 0.950 . S
C3977 C3972 1.363 . S
C3977 C3976 1.415 . S
H3978 C3975 0.999 . S
H3979 C3960 0.913 . S
H3980 C3998 0.951 . S
H3981 C4000 0.951 . S
H3982 C4002 0.950 . S
H3983 C4003 0.950 . S
H3984 C4005 0.950 . S
H3985 C4008 0.950 . S
H3986 C4009 0.950 . S
H3987 C4011 0.950 . S
H3988 C4012 0.950 . S
H3989 C4013 0.951 . S
H3990 C4015 0.951 . S
H3991 C4017 0.950 . S
H3992 C4018 0.950 . S
H3993 C4020 0.950 . S
H3994 C4023 0.950 . S
H3995 C4024 0.950 . S
H3996 C4026 0.950 . S
H3997 C4027 0.950 . S
C3998 H3980 0.951 . S
C3998 C3999 1.366 . S
C3998 C4000 1.388 . S
C3999 C3998 1.366 . S
C3999 C4003 1.385 . S
C4000 H3981 0.951 . S
C4000 C3998 1.388 . S
C4000 C4001 1.366 . S
C4001 C4000 1.366 . S
C4001 C4002 1.414 . S
C4001 C4004 1.499 . S
C4002 H3982 0.950 . S
C4002 C4001 1.414 . S
C4002 C4003 1.374 . S
C4003 H3983 0.950 . S
C4003 C3999 1.385 . S
C4003 C4002 1.374 . S
C4004 C4001 1.499 . S
C4004 C4005 1.373 . S
C4004 C4006 1.389 . S
C4005 H3984 0.950 . S
C4005 C4004 1.373 . S
C4005 C4021 1.377 . S
C4006 C4004 1.389 . S
C4006 C4007 1.524 . S
C4006 C4020 1.377 . S
C4007 C4006 1.524 . S
C4007 C4008 1.397 . S
C4007 C4012 1.363 . S
C4008 H3985 0.950 . S
C4008 C4007 1.397 . S
C4008 C4009 1.334 . S
C4009 H3986 0.950 . S
C4009 C4008 1.334 . S
C4009 C4010 1.287 . S
C4010 C4009 1.287 . S
C4010 C4011 1.524 . S
C4010 H4029 0.913 . S
C4011 H3987 0.950 . S
C4011 C4010 1.524 . S
C4011 C4012 1.415 . S
C4012 H3988 0.950 . S
C4012 C4007 1.363 . S
C4012 C4011 1.415 . S
C4013 H3989 0.951 . S
C4013 C4014 1.366 . S
C4013 C4015 1.388 . S
C4014 C4013 1.366 . S
C4014 C4018 1.385 . S
C4015 H3990 0.951 . S
C4015 C4013 1.388 . S
C4015 C4016 1.366 . S
C4016 C4015 1.366 . S
C4016 C4017 1.414 . S
C4016 C4019 1.499 . S
C4017 H3991 0.950 . S
C4017 C4016 1.414 . S
C4017 C4018 1.374 . S
C4018 H3992 0.950 . S
C4018 C4014 1.385 . S
C4018 C4017 1.374 . S
C4019 C4016 1.499 . S
C4019 C4020 1.373 . S
C4019 C4021 1.389 . S
C4020 H3993 0.950 . S
C4020 C4006 1.377 . S
C4020 C4019 1.373 . S
C4021 C4005 1.377 . S
C4021 C4019 1.389 . S
C4021 C4022 1.524 . S
C4022 C4021 1.524 . S
C4022 C4023 1.397 . S
C4022 C4027 1.363 . S
C4023 H3994 0.950 . S
C4023 C4022 1.397 . S
C4023 C4024 1.334 . S
C4024 H3995 0.950 . S
C4024 C4023 1.334 . S
C4024 C4025 1.287 . S
C4025 C4024 1.287 . S
C4025 C4026 1.524 . S
C4025 H4028 0.999 . S
C4026 H3996 0.950 . S
C4026 C4025 1.524 . S
C4026 C4027 1.415 . S
C4027 H3997 0.950 . S
C4027 C4022 1.363 . S
C4027 C4026 1.415 . S
H4028 C4025 0.999 . S
H4029 C4010 0.913 . S
H4030 C4048 0.951 . S
H4031 C4050 0.951 . S
H4032 C4052 0.950 . S
H4033 C4053 0.950 . S
H4034 C4055 0.950 . S
H4035 C4058 0.950 . S
H4036 C4059 0.950 . S
H4037 C4061 0.950 . S
H4038 C4062 0.950 . S
H4039 C4063 0.951 . S
H4040 C4065 0.951 . S
H4041 C4067 0.950 . S
H4042 C4068 0.950 . S
H4043 C4070 0.950 . S
H4044 C4073 0.950 . S
H4045 C4074 0.950 . S
H4046 C4076 0.950 . S
H4047 C4077 0.950 . S
C4048 H4030 0.951 . S
C4048 C4049 1.366 . S
C4048 C4050 1.388 . S
C4049 C4048 1.366 . S
C4049 C4053 1.385 . S
C4050 H4031 0.951 . S
C4050 C4048 1.388 . S
C4050 C4051 1.366 . S
C4051 C4050 1.366 . S
C4051 C4052 1.414 . S
C4051 C4054 1.499 . S
C4052 H4032 0.950 . S
C4052 C4051 1.414 . S
C4052 C4053 1.374 . S
C4053 H4033 0.950 . S
C4053 C4049 1.385 . S
C4053 C4052 1.374 . S
C4054 C4051 1.499 . S
C4054 C4055 1.373 . S
C4054 C4056 1.389 . S
C4055 H4034 0.950 . S
C4055 C4054 1.373 . S
C4055 C4071 1.377 . S
C4056 C4054 1.389 . S
C4056 C4057 1.524 . S
C4056 C4070 1.377 . S
C4057 C4056 1.524 . S
C4057 C4058 1.397 . S
C4057 C4062 1.363 . S
C4058 H4035 0.950 . S
C4058 C4057 1.397 . S
C4058 C4059 1.334 . S
C4059 H4036 0.950 . S
C4059 C4058 1.334 . S
C4059 C4060 1.287 . S
C4060 C4059 1.287 . S
C4060 C4061 1.524 . S
C4060 H4079 0.913 . S
C4061 H4037 0.950 . S
C4061 C4060 1.524 . S
C4061 C4062 1.415 . S
C4062 H4038 0.950 . S
C4062 C4057 1.363 . S
C4062 C4061 1.415 . S
C4063 H4039 0.951 . S
C4063 C4064 1.366 . S
C4063 C4065 1.388 . S
C4064 C4063 1.366 . S
C4064 C4068 1.385 . S
C4065 H4040 0.951 . S
C4065 C4063 1.388 . S
C4065 C4066 1.366 . S
C4066 C4065 1.366 . S
C4066 C4067 1.414 . S
C4066 C4069 1.499 . S
C4067 H4041 0.950 . S
C4067 C4066 1.414 . S
C4067 C4068 1.374 . S
C4068 H4042 0.950 . S
C4068 C4064 1.385 . S
C4068 C4067 1.374 . S
C4069 C4066 1.499 . S
C4069 C4070 1.373 . S
C4069 C4071 1.389 . S
C4070 H4043 0.950 . S
C4070 C4056 1.377 . S
C4070 C4069 1.373 . S
C4071 C4055 1.377 . S
C4071 C4069 1.389 . S
C4071 C4072 1.524 . S
C4072 C4071 1.524 . S
C4072 C4073 1.397 . S
C4072 C4077 1.363 . S
C4073 H4044 0.950 . S
C4073 C4072 1.397 . S
C4073 C4074 1.334 . S
C4074 H4045 0.950 . S
C4074 C4073 1.334 . S
C4074 C4075 1.287 . S
C4075 C4074 1.287 . S
C4075 C4076 1.524 . S
C4075 H4078 0.999 . S
C4076 H4046 0.950 . S
C4076 C4075 1.524 . S
C4076 C4077 1.415 . S
C4077 H4047 0.950 . S
C4077 C4072 1.363 . S
C4077 C4076 1.415 . S
H4078 C4075 0.999 . S
H4079 C4060 0.913 . S
H4080 C4098 0.951 . S
H4081 C4100 0.951 . S
H4082 C4102 0.950 . S
H4083 C4103 0.950 . S
H4084 C4105 0.950 . S
H4085 C4108 0.950 . S
H4086 C4109 0.950 . S
H4087 C4111 0.950 . S
H4088 C4112 0.950 . S
H4089 C4113 0.951 . S
H4090 C4115 0.951 . S
H4091 C4117 0.950 . S
H4092 C4118 0.950 . S
H4093 C4120 0.950 . S
H4094 C4123 0.950 . S
H4095 C4124 0.950 . S
H4096 C4126 0.950 . S
H4097 C4127 0.950 . S
C4098 H4080 0.951 . S
C4098 C4099 1.366 . S
C4098 C4100 1.388 . S
C4099 C4098 1.366 . S
C4099 C4103 1.385 . S
C4100 H4081 0.951 . S
C4100 C4098 1.388 . S
C4100 C4101 1.366 . S
C4101 C4100 1.366 . S
C4101 C4102 1.414 . S
C4101 C4104 1.499 . S
C4102 H4082 0.950 . S
C4102 C4101 1.414 . S
C4102 C4103 1.374 . S
C4103 H4083 0.950 . S
C4103 C4099 1.385 . S
C4103 C4102 1.374 . S
C4104 C4101 1.499 . S
C4104 C4105 1.373 . S
C4104 C4106 1.389 . S
C4105 H4084 0.950 . S
C4105 C4104 1.373 . S
C4105 C4121 1.377 . S
C4106 C4104 1.389 . S
C4106 C4107 1.524 . S
C4106 C4120 1.377 . S
C4107 C4106 1.524 . S
C4107 C4108 1.397 . S
C4107 C4112 1.363 . S
C4108 H4085 0.950 . S
C4108 C4107 1.397 . S
C4108 C4109 1.334 . S
C4109 H4086 0.950 . S
C4109 C4108 1.334 . S
C4109 C4110 1.287 . S
C4110 C4109 1.287 . S
C4110 C4111 1.524 . S
C4110 H4129 0.913 . S
C4111 H4087 0.950 . S
C4111 C4110 1.524 . S
C4111 C4112 1.415 . S
C4112 H4088 0.950 . S
C4112 C4107 1.363 . S
C4112 C4111 1.415 . S
C4113 H4089 0.951 . S
C4113 C4114 1.366 . S
C4113 C4115 1.388 . S
C4114 C4113 1.366 . S
C4114 C4118 1.385 . S
C4115 H4090 0.951 . S
C4115 C4113 1.388 . S
C4115 C4116 1.366 . S
C4116 C4115 1.366 . S
C4116 C4117 1.414 . S
C4116 C4119 1.499 . S
C4117 H4091 0.950 . S
C4117 C4116 1.414 . S
C4117 C4118 1.374 . S
C4118 H4092 0.950 . S
C4118 C4114 1.385 . S
C4118 C4117 1.374 . S
C4119 C4116 1.499 . S
C4119 C4120 1.373 . S
C4119 C4121 1.389 . S
C4120 H4093 0.950 . S
C4120 C4106 1.377 . S
C4120 C4119 1.373 . S
C4121 C4105 1.377 . S
C4121 C4119 1.389 . S
C4121 C4122 1.524 . S
C4122 C4121 1.524 . S
C4122 C4123 1.397 . S
C4122 C4127 1.363 . S
C4123 H4094 0.950 . S
C4123 C4122 1.397 . S
C4123 C4124 1.334 . S
C4124 H4095 0.950 . S
C4124 C4123 1.334 . S
C4124 C4125 1.287 . S
C4125 C4124 1.287 . S
C4125 C4126 1.524 . S
C4125 H4128 0.999 . S
C4126 H4096 0.950 . S
C4126 C4125 1.524 . S
C4126 C4127 1.415 . S
C4127 H4097 0.950 . S
C4127 C4122 1.363 . S
C4127 C4126 1.415 . S
H4128 C4125 0.999 . S
H4129 C4110 0.913 . S
H4130 C4148 0.951 . S
H4131 C4150 0.951 . S
H4132 C4152 0.950 . S
H4133 C4153 0.950 . S
H4134 C4155 0.950 . S
H4135 C4158 0.950 . S
H4136 C4159 0.950 . S
H4137 C4161 0.950 . S
H4138 C4162 0.950 . S
H4139 C4163 0.951 . S
H4140 C4165 0.951 . S
H4141 C4167 0.950 . S
H4142 C4168 0.950 . S
H4143 C4170 0.950 . S
H4144 C4173 0.950 . S
H4145 C4174 0.950 . S
H4146 C4176 0.950 . S
H4147 C4177 0.950 . S
C4148 H4130 0.951 . S
C4148 C4149 1.366 . S
C4148 C4150 1.388 . S
C4149 C4148 1.366 . S
C4149 C4153 1.385 . S
C4150 H4131 0.951 . S
C4150 C4148 1.388 . S
C4150 C4151 1.366 . S
C4151 C4150 1.366 . S
C4151 C4152 1.414 . S
C4151 C4154 1.499 . S
C4152 H4132 0.950 . S
C4152 C4151 1.414 . S
C4152 C4153 1.374 . S
C4153 H4133 0.950 . S
C4153 C4149 1.385 . S
C4153 C4152 1.374 . S
C4154 C4151 1.499 . S
C4154 C4155 1.373 . S
C4154 C4156 1.389 . S
C4155 H4134 0.950 . S
C4155 C4154 1.373 . S
C4155 C4171 1.377 . S
C4156 C4154 1.389 . S
C4156 C4157 1.524 . S
C4156 C4170 1.377 . S
C4157 C4156 1.524 . S
C4157 C4158 1.397 . S
C4157 C4162 1.363 . S
C4158 H4135 0.950 . S
C4158 C4157 1.397 . S
C4158 C4159 1.334 . S
C4159 H4136 0.950 . S
C4159 C4158 1.334 . S
C4159 C4160 1.287 . S
C4160 C4159 1.287 . S
C4160 C4161 1.524 . S
C4160 H4179 0.913 . S
C4161 H4137 0.950 . S
C4161 C4160 1.524 . S
C4161 C4162 1.415 . S
C4162 H4138 0.950 . S
C4162 C4157 1.363 . S
C4162 C4161 1.415 . S
C4163 H4139 0.951 . S
C4163 C4164 1.366 . S
C4163 C4165 1.388 . S
C4164 C4163 1.366 . S
C4164 C4168 1.385 . S
C4165 H4140 0.951 . S
C4165 C4163 1.388 . S
C4165 C4166 1.366 . S
C4166 C4165 1.366 . S
C4166 C4167 1.414 . S
C4166 C4169 1.499 . S
C4167 H4141 0.950 . S
C4167 C4166 1.414 . S
C4167 C4168 1.374 . S
C4168 H4142 0.950 . S
C4168 C4164 1.385 . S
C4168 C4167 1.374 . S
C4169 C4166 1.499 . S
C4169 C4170 1.373 . S
C4169 C4171 1.389 . S
C4170 H4143 0.950 . S
C4170 C4156 1.377 . S
C4170 C4169 1.373 . S
C4171 C4155 1.377 . S
C4171 C4169 1.389 . S
C4171 C4172 1.524 . S
C4172 C4171 1.524 . S
C4172 C4173 1.397 . S
C4172 C4177 1.363 . S
C4173 H4144 0.950 . S
C4173 C4172 1.397 . S
C4173 C4174 1.334 . S
C4174 H4145 0.950 . S
C4174 C4173 1.334 . S
C4174 C4175 1.287 . S
C4175 C4174 1.287 . S
C4175 C4176 1.524 . S
C4175 H4178 0.999 . S
C4176 H4146 0.950 . S
C4176 C4175 1.524 . S
C4176 C4177 1.415 . S
C4177 H4147 0.950 . S
C4177 C4172 1.363 . S
C4177 C4176 1.415 . S
H4178 C4175 0.999 . S
H4179 C4160 0.913 . S
H4180 C4198 0.951 1_655 S
H4181 C4200 0.938 1_655 S
H4182 C4202 0.950 . S
H4183 C4203 0.950 . S
H4184 C4205 0.950 1_554 S
H4185 C4208 0.950 . S
H4186 C4209 0.950 . S
H4187 C4211 0.950 . S
H4188 C4212 0.950 . S
H4189 C4213 0.951 . S
H4190 C4215 0.951 . S
H4191 C4217 0.950 . S
H4192 C4218 0.950 . S
H4193 C4220 0.950 . S
H4194 C4223 0.950 . S
H4195 C4224 0.950 . S
H4196 C4226 0.950 . S
H4197 C4227 0.950 . S
C4198 H4180 0.951 1_455 S
C4198 C4199 1.366 . S
C4198 C4200 1.388 . S
C4199 C4198 1.366 . S
C4199 C4203 1.385 . S
C4200 H4181 0.938 1_455 S
C4200 C4198 1.388 . S
C4200 C4201 1.366 . S
C4201 C4200 1.366 . S
C4201 C4202 1.414 . S
C4201 C4204 1.499 . S
C4202 H4182 0.950 . S
C4202 C4201 1.414 . S
C4202 C4203 1.374 . S
C4203 H4183 0.950 . S
C4203 C4199 1.385 . S
C4203 C4202 1.374 . S
C4204 C4201 1.499 . S
C4204 C4205 1.373 . S
C4204 C4206 1.389 . S
C4205 H4184 0.950 1_556 S
C4205 C4204 1.373 . S
C4205 C4221 1.377 1_556 S
C4206 C4204 1.389 . S
C4206 C4207 1.524 . S
C4206 C4220 1.377 . S
C4207 C4206 1.524 . S
C4207 C4208 1.397 . S
C4207 C4212 1.363 1_455 S
C4208 H4185 0.950 . S
C4208 C4207 1.397 . S
C4208 C4209 1.334 . S
C4209 H4186 0.950 . S
C4209 C4208 1.334 . S
C4209 C4210 1.287 1_455 S
C4210 C4209 1.287 1_655 S
C4210 C4211 1.524 . S
C4210 H4229 0.913 . S
C4211 H4187 0.950 . S
C4211 C4210 1.524 . S
C4211 C4212 1.415 . S
C4212 H4188 0.950 . S
C4212 C4207 1.363 1_655 S
C4212 C4211 1.415 . S
C4213 H4189 0.951 . S
C4213 C4214 1.366 . S
C4213 C4215 1.388 . S
C4214 C4213 1.366 . S
C4214 C4218 1.385 . S
C4215 H4190 0.951 . S
C4215 C4213 1.388 . S
C4215 C4216 1.366 1_554 S
C4216 C4215 1.366 1_556 S
C4216 C4217 1.414 . S
C4216 C4219 1.499 . S
C4217 H4191 0.950 . S
C4217 C4216 1.414 . S
C4217 C4218 1.374 1_556 S
C4218 H4192 0.950 . S
C4218 C4214 1.385 . S
C4218 C4217 1.374 1_554 S
C4219 C4216 1.499 . S
C4219 C4220 1.373 . S
C4219 C4221 1.389 1_556 S
C4220 H4193 0.950 . S
C4220 C4206 1.377 . S
C4220 C4219 1.373 . S
C4221 C4205 1.377 1_554 S
C4221 C4219 1.389 1_554 S
C4221 C4222 1.524 . S
C4222 C4221 1.524 . S
C4222 C4223 1.397 . S
C4222 C4227 1.363 . S
C4223 H4194 0.950 . S
C4223 C4222 1.397 . S
C4223 C4224 1.334 . S
C4224 H4195 0.950 . S
C4224 C4223 1.334 . S
C4224 C4225 1.287 . S
C4225 C4224 1.287 . S
C4225 C4226 1.524 . S
C4225 H4228 0.999 . S
C4226 H4196 0.950 . S
C4226 C4225 1.524 . S
C4226 C4227 1.415 . S
C4227 H4197 0.950 . S
C4227 C4222 1.363 . S
C4227 C4226 1.415 . S
H4228 C4225 0.999 . S
H4229 C4210 0.913 . S
H4230 C4248 0.951 . S
H4231 C4250 0.949 1_655 S
H4232 C4252 0.950 . S
H4233 C4253 0.950 . S
H4234 C4255 0.950 . S
H4235 C4258 0.950 . S
H4236 C4259 0.950 . S
H4237 C4261 0.950 . S
H4238 C4262 0.950 . S
H4239 C4263 0.951 . S
H4240 C4265 0.951 . S
H4241 C4267 0.950 . S
H4242 C4268 0.950 . S
H4243 C4270 0.950 . S
H4244 C4273 0.950 . S
H4245 C4274 0.950 . S
H4246 C4276 0.950 . S
H4247 C4277 0.950 . S
C4248 H4230 0.951 . S
C4248 C4249 1.366 . S
C4248 C4250 1.390 . S
C4249 C4248 1.366 . S
C4249 C4253 1.385 . S
C4250 H4231 0.949 1_455 S
C4250 C4248 1.390 . S
C4250 C4251 1.365 . S
C4251 C4250 1.365 . S
C4251 C4252 1.414 . S
C4251 C4254 1.499 1_455 S
C4252 H4232 0.950 . S
C4252 C4251 1.414 . S
C4252 C4253 1.374 . S
C4253 H4233 0.950 . S
C4253 C4249 1.385 . S
C4253 C4252 1.374 . S
C4254 C4251 1.499 1_655 S
C4254 C4255 1.373 . S
C4254 C4256 1.389 . S
C4255 H4234 0.950 . S
C4255 C4254 1.373 . S
C4255 C4271 1.377 . S
C4256 C4254 1.389 . S
C4256 C4257 1.524 . S
C4256 C4270 1.377 . S
C4257 C4256 1.524 . S
C4257 C4258 1.397 . S
C4257 C4262 1.363 . S
C4258 H4235 0.950 . S
C4258 C4257 1.397 . S
C4258 C4259 1.334 . S
C4259 H4236 0.950 . S
C4259 C4258 1.334 . S
C4259 C4260 1.287 . S
C4260 C4259 1.287 . S
C4260 C4261 1.524 . S
C4260 H4279 0.913 . S
C4261 H4237 0.950 . S
C4261 C4260 1.524 . S
C4261 C4262 1.415 . S
C4262 H4238 0.950 . S
C4262 C4257 1.363 . S
C4262 C4261 1.415 . S
C4263 H4239 0.951 . S
C4263 C4264 1.366 . S
C4263 C4265 1.388 . S
C4264 C4263 1.366 . S
C4264 C4268 1.385 . S
C4265 H4240 0.951 . S
C4265 C4263 1.388 . S
C4265 C4266 1.366 . S
C4266 C4265 1.366 . S
C4266 C4267 1.414 . S
C4266 C4269 1.499 . S
C4267 H4241 0.950 . S
C4267 C4266 1.414 . S
C4267 C4268 1.374 . S
C4268 H4242 0.950 . S
C4268 C4264 1.385 . S
C4268 C4267 1.374 . S
C4269 C4266 1.499 . S
C4269 C4270 1.373 . S
C4269 C4271 1.389 . S
C4270 H4243 0.950 . S
C4270 C4256 1.377 . S
C4270 C4269 1.373 . S
C4271 C4255 1.377 . S
C4271 C4269 1.389 . S
C4271 C4272 1.524 . S
C4272 C4271 1.524 . S
C4272 C4273 1.397 . S
C4272 C4277 1.363 . S
C4273 H4244 0.950 . S
C4273 C4272 1.397 . S
C4273 C4274 1.334 . S
C4274 H4245 0.950 . S
C4274 C4273 1.334 . S
C4274 C4275 1.287 . S
C4275 C4274 1.287 . S
C4275 C4276 1.524 . S
C4275 H4278 0.999 . S
C4276 H4246 0.950 . S
C4276 C4275 1.524 . S
C4276 C4277 1.415 . S
C4277 H4247 0.950 . S
C4277 C4272 1.363 . S
C4277 C4276 1.415 . S
H4278 C4275 0.999 . S
H4279 C4260 0.913 . S
H4280 C4298 0.951 . S
H4281 C4300 0.951 . S
H4282 C4302 0.950 . S
H4283 C4303 0.950 . S
H4284 C4305 0.950 . S
H4285 C4308 0.950 . S
H4286 C4309 0.950 . S
H4287 C4311 0.950 . S
H4288 C4312 0.950 . S
H4289 C4313 0.951 . S
H4290 C4315 0.951 . S
H4291 C4317 0.950 . S
H4292 C4318 0.950 . S
H4293 C4320 0.950 . S
H4294 C4323 0.950 . S
H4295 C4324 0.950 . S
H4296 C4326 0.950 . S
H4297 C4327 0.950 . S
C4298 H4280 0.951 . S
C4298 C4299 1.366 . S
C4298 C4300 1.388 . S
C4299 C4298 1.366 . S
C4299 C4303 1.385 . S
C4300 H4281 0.951 . S
C4300 C4298 1.388 . S
C4300 C4301 1.366 . S
C4301 C4300 1.366 . S
C4301 C4302 1.414 . S
C4301 C4304 1.499 . S
C4302 H4282 0.950 . S
C4302 C4301 1.414 . S
C4302 C4303 1.374 . S
C4303 H4283 0.950 . S
C4303 C4299 1.385 . S
C4303 C4302 1.374 . S
C4304 C4301 1.499 . S
C4304 C4305 1.373 . S
C4304 C4306 1.389 . S
C4305 H4284 0.950 . S
C4305 C4304 1.373 . S
C4305 C4321 1.377 . S
C4306 C4304 1.389 . S
C4306 C4307 1.524 . S
C4306 C4320 1.377 . S
C4307 C4306 1.524 . S
C4307 C4308 1.397 . S
C4307 C4312 1.363 . S
C4308 H4285 0.950 . S
C4308 C4307 1.397 . S
C4308 C4309 1.334 . S
C4309 H4286 0.950 . S
C4309 C4308 1.334 . S
C4309 C4310 1.287 . S
C4310 C4309 1.287 . S
C4310 C4311 1.524 . S
C4310 H4329 0.913 . S
C4311 H4287 0.950 . S
C4311 C4310 1.524 . S
C4311 C4312 1.415 . S
C4312 H4288 0.950 . S
C4312 C4307 1.363 . S
C4312 C4311 1.415 . S
C4313 H4289 0.951 . S
C4313 C4314 1.366 . S
C4313 C4315 1.388 . S
C4314 C4313 1.366 . S
C4314 C4318 1.385 . S
C4315 H4290 0.951 . S
C4315 C4313 1.388 . S
C4315 C4316 1.366 . S
C4316 C4315 1.366 . S
C4316 C4317 1.414 . S
C4316 C4319 1.499 . S
C4317 H4291 0.950 . S
C4317 C4316 1.414 . S
C4317 C4318 1.374 . S
C4318 H4292 0.950 . S
C4318 C4314 1.385 . S
C4318 C4317 1.374 . S
C4319 C4316 1.499 . S
C4319 C4320 1.373 . S
C4319 C4321 1.389 . S
C4320 H4293 0.950 . S
C4320 C4306 1.377 . S
C4320 C4319 1.373 . S
C4321 C4305 1.377 . S
C4321 C4319 1.389 . S
C4321 C4322 1.524 . S
C4322 C4321 1.524 . S
C4322 C4323 1.397 . S
C4322 C4327 1.363 . S
C4323 H4294 0.950 . S
C4323 C4322 1.397 . S
C4323 C4324 1.334 . S
C4324 H4295 0.950 . S
C4324 C4323 1.334 . S
C4324 C4325 1.287 . S
C4325 C4324 1.287 . S
C4325 C4326 1.524 . S
C4325 H4328 0.999 1_554 S
C4326 H4296 0.950 . S
C4326 C4325 1.524 . S
C4326 C4327 1.415 . S
C4327 H4297 0.950 . S
C4327 C4322 1.363 . S
C4327 C4326 1.415 . S
H4328 C4325 0.999 1_556 S
H4329 C4310 0.913 . S
H4330 C4348 0.951 . S
H4331 C4350 0.951 . S
H4332 C4352 0.950 . S
H4333 C4353 0.950 . S
H4334 C4355 0.962 . S
H4335 C4358 0.950 . S
H4336 C4359 0.950 . S
H4337 C4361 0.950 . S
H4338 C4362 0.950 . S
H4339 C4363 0.951 . S
H4340 C4365 0.951 . S
H4341 C4367 0.950 . S
H4342 C4368 0.950 . S
H4343 C4370 0.950 . S
H4344 C4373 0.950 . S
H4345 C4374 0.950 . S
H4346 C4376 0.950 . S
H4347 C4377 0.950 . S
C4348 H4330 0.951 . S
C4348 C4349 1.366 . S
C4348 C4350 1.388 . S
C4349 C4348 1.366 . S
C4349 C4353 1.385 . S
C4350 H4331 0.951 . S
C4350 C4348 1.388 . S
C4350 C4351 1.366 . S
C4351 C4350 1.366 . S
C4351 C4352 1.414 . S
C4351 C4354 1.435 1_455 S
C4352 H4332 0.950 . S
C4352 C4351 1.414 . S
C4352 C4353 1.374 . S
C4353 H4333 0.950 . S
C4353 C4349 1.385 . S
C4353 C4352 1.374 . S
C4354 C4351 1.435 1_655 S
C4354 C4355 1.414 . S
C4354 C4356 1.418 . S
C4355 H4334 0.962 . S
C4355 C4354 1.414 . S
C4355 C4371 1.377 . S
C4356 C4354 1.418 . S
C4356 C4357 1.524 . S
C4356 C4370 1.377 . S
C4357 C4356 1.524 . S
C4357 C4358 1.397 1_655 S
C4357 C4362 1.363 . S
C4358 H4335 0.950 . S
C4358 C4357 1.397 1_455 S
C4358 C4359 1.334 . S
C4359 H4336 0.950 . S
C4359 C4358 1.334 . S
C4359 C4360 1.287 . S
C4360 C4359 1.287 . S
C4360 C4361 1.524 1_455 S
C4360 H4379 0.913 . S
C4361 H4337 0.950 . S
C4361 C4360 1.524 1_655 S
C4361 C4362 1.415 . S
C4362 H4338 0.950 . S
C4362 C4357 1.363 . S
C4362 C4361 1.415 . S
C4363 H4339 0.951 . S
C4363 C4364 1.366 . S
C4363 C4365 1.388 . S
C4364 C4363 1.366 . S
C4364 C4368 1.385 . S
C4365 H4340 0.951 . S
C4365 C4363 1.388 . S
C4365 C4366 1.366 . S
C4366 C4365 1.366 . S
C4366 C4367 1.414 . S
C4366 C4369 1.499 . S
C4367 H4341 0.950 . S
C4367 C4366 1.414 . S
C4367 C4368 1.374 . S
C4368 H4342 0.950 . S
C4368 C4364 1.385 . S
C4368 C4367 1.374 . S
C4369 C4366 1.499 . S
C4369 C4370 1.373 . S
C4369 C4371 1.389 . S
C4370 H4343 0.950 . S
C4370 C4356 1.377 . S
C4370 C4369 1.373 . S
C4371 C4355 1.377 . S
C4371 C4369 1.389 . S
C4371 C4372 1.524 . S
C4372 C4371 1.524 . S
C4372 C4373 1.397 . S
C4372 C4377 1.363 . S
C4373 H4344 0.950 . S
C4373 C4372 1.397 . S
C4373 C4374 1.334 . S
C4374 H4345 0.950 . S
C4374 C4373 1.334 . S
C4374 C4375 1.287 . S
C4375 C4374 1.287 . S
C4375 C4376 1.524 . S
C4375 H4378 0.999 . S
C4376 H4346 0.950 . S
C4376 C4375 1.524 . S
C4376 C4377 1.415 . S
C4377 H4347 0.950 . S
C4377 C4372 1.363 . S
C4377 C4376 1.415 . S
H4378 C4375 0.999 . S
H4379 C4360 0.913 . S
H4380 C4398 0.951 . S
H4381 C4400 0.951 . S
H4382 C4402 0.950 . S
H4383 C4403 0.950 . S
H4384 C4405 0.950 . S
H4385 C4408 0.950 . S
H4386 C4409 0.934 1_455 S
H4387 C4411 0.950 . S
H4388 C4412 0.950 . S
H4389 C4413 0.951 . S
H4390 C4415 0.951 . S
H4391 C4417 0.950 1_655 S
H4392 C4418 0.950 . S
H4393 C4420 0.950 . S
H4394 C4423 0.950 . S
H4395 C4424 0.950 . S
H4396 C4426 0.950 . S
H4397 C4427 0.950 . S
C4398 H4380 0.951 . S
C4398 C4399 1.366 . S
C4398 C4400 1.388 . S
C4399 C4398 1.366 . S
C4399 C4403 1.385 1_655 S
C4400 H4381 0.951 . S
C4400 C4398 1.388 . S
C4400 C4401 1.366 1_655 S
C4401 C4400 1.366 1_455 S
C4401 C4402 1.414 . S
C4401 C4404 1.499 . S
C4402 H4382 0.950 . S
C4402 C4401 1.414 . S
C4402 C4403 1.374 . S
C4403 H4383 0.950 . S
C4403 C4399 1.385 1_455 S
C4403 C4402 1.374 . S
C4404 C4401 1.499 . S
C4404 C4405 1.373 . S
C4404 C4406 1.389 . S
C4405 H4384 0.950 . S
C4405 C4404 1.373 . S
C4405 C4421 1.377 . S
C4406 C4404 1.389 . S
C4406 C4407 1.524 1_455 S
C4406 C4420 1.377 . S
C4407 C4406 1.524 1_655 S
C4407 C4408 1.397 1_655 S
C4407 C4412 1.363 . S
C4408 H4385 0.950 . S
C4408 C4407 1.397 1_455 S
C4408 C4409 1.312 1_455 S
C4409 H4386 0.934 1_655 S
C4409 C4408 1.312 1_655 S
C4409 C4410 1.330 . S
C4410 C4409 1.330 . S
C4410 C4411 1.524 . S
C4410 H4429 0.913 . S
C4411 H4387 0.950 . S
C4411 C4410 1.524 . S
C4411 C4412 1.415 . S
C4412 H4388 0.950 . S
C4412 C4407 1.363 . S
C4412 C4411 1.415 . S
C4413 H4389 0.951 . S
C4413 C4414 1.366 . S
C4413 C4415 1.388 . S
C4414 C4413 1.366 . S
C4414 C4418 1.385 . S
C4415 H4390 0.951 . S
C4415 C4413 1.388 . S
C4415 C4416 1.366 . S
C4416 C4415 1.366 . S
C4416 C4417 1.414 . S
C4416 C4419 1.499 . S
C4417 H4391 0.950 1_455 S
C4417 C4416 1.414 . S
C4417 C4418 1.374 . S
C4418 H4392 0.950 . S
C4418 C4414 1.385 . S
C4418 C4417 1.374 . S
C4419 C4416 1.499 . S
C4419 C4420 1.373 . S
C4419 C4421 1.389 . S
C4420 H4393 0.950 . S
C4420 C4406 1.377 . S
C4420 C4419 1.373 . S
C4421 C4405 1.377 . S
C4421 C4419 1.389 . S
C4421 C4422 1.524 . S
C4422 C4421 1.524 . S
C4422 C4423 1.397 . S
C4422 C4427 1.363 . S
C4423 H4394 0.950 . S
C4423 C4422 1.397 . S
C4423 C4424 1.334 . S
C4424 H4395 0.950 . S
C4424 C4423 1.334 . S
C4424 C4425 1.287 . S
C4425 C4424 1.287 . S
C4425 C4426 1.524 . S
C4425 H4428 0.999 . S
C4426 H4396 0.950 . S
C4426 C4425 1.524 . S
C4426 C4427 1.415 . S
C4427 H4397 0.950 . S
C4427 C4422 1.363 . S
C4427 C4426 1.415 . S
H4428 C4425 0.999 . S
H4429 C4410 0.913 . S
H4430 C4448 0.951 . S
H4431 C4450 0.951 . S
H4432 C4452 0.950 . S
H4433 C4453 0.950 . S
H4434 C4455 0.950 . S
H4435 C4458 0.950 . S
H4436 C4459 0.950 . S
H4437 C4461 0.950 . S
H4438 C4462 0.950 . S
H4439 C4463 0.951 . S
H4440 C4465 0.951 . S
H4441 C4467 0.950 . S
H4442 C4468 0.950 . S
H4443 C4470 0.950 . S
H4444 C4473 0.950 . S
H4445 C4474 0.950 . S
H4446 C4476 0.950 . S
H4447 C4477 0.950 . S
C4448 H4430 0.951 . S
C4448 C4449 1.366 . S
C4448 C4450 1.388 . S
C4449 C4448 1.366 . S
C4449 C4453 1.385 . S
C4450 H4431 0.951 . S
C4450 C4448 1.388 . S
C4450 C4451 1.366 . S
C4451 C4450 1.366 . S
C4451 C4452 1.414 . S
C4451 C4454 1.499 . S
C4452 H4432 0.950 . S
C4452 C4451 1.414 . S
C4452 C4453 1.374 . S
C4453 H4433 0.950 . S
C4453 C4449 1.385 . S
C4453 C4452 1.374 . S
C4454 C4451 1.499 . S
C4454 C4455 1.373 . S
C4454 C4456 1.389 . S
C4455 H4434 0.950 . S
C4455 C4454 1.373 . S
C4455 C4471 1.377 . S
C4456 C4454 1.389 . S
C4456 C4457 1.524 . S
C4456 C4470 1.377 . S
C4457 C4456 1.524 . S
C4457 C4458 1.397 . S
C4457 C4462 1.363 . S
C4458 H4435 0.950 . S
C4458 C4457 1.397 . S
C4458 C4459 1.334 . S
C4459 H4436 0.950 . S
C4459 C4458 1.334 . S
C4459 C4460 1.287 . S
C4460 C4459 1.287 . S
C4460 C4461 1.524 . S
C4460 H4479 0.913 . S
C4461 H4437 0.950 . S
C4461 C4460 1.524 . S
C4461 C4462 1.415 . S
C4462 H4438 0.950 . S
C4462 C4457 1.363 . S
C4462 C4461 1.415 . S
C4463 H4439 0.951 . S
C4463 C4464 1.366 . S
C4463 C4465 1.388 . S
C4464 C4463 1.366 . S
C4464 C4468 1.385 . S
C4465 H4440 0.951 . S
C4465 C4463 1.388 . S
C4465 C4466 1.366 . S
C4466 C4465 1.366 . S
C4466 C4467 1.414 . S
C4466 C4469 1.499 . S
C4467 H4441 0.950 . S
C4467 C4466 1.414 . S
C4467 C4468 1.374 . S
C4468 H4442 0.950 . S
C4468 C4464 1.385 . S
C4468 C4467 1.374 . S
C4469 C4466 1.499 . S
C4469 C4470 1.373 . S
C4469 C4471 1.389 . S
C4470 H4443 0.950 . S
C4470 C4456 1.377 . S
C4470 C4469 1.373 . S
C4471 C4455 1.377 . S
C4471 C4469 1.389 . S
C4471 C4472 1.524 . S
C4472 C4471 1.524 . S
C4472 C4473 1.397 . S
C4472 C4477 1.363 . S
C4473 H4444 0.950 . S
C4473 C4472 1.397 . S
C4473 C4474 1.334 . S
C4474 H4445 0.950 . S
C4474 C4473 1.334 . S
C4474 C4475 1.287 . S
C4475 C4474 1.287 . S
C4475 C4476 1.524 . S
C4475 H4478 0.999 . S
C4476 H4446 0.950 . S
C4476 C4475 1.524 . S
C4476 C4477 1.415 . S
C4477 H4447 0.950 . S
C4477 C4472 1.363 . S
C4477 C4476 1.415 . S
H4478 C4475 0.999 . S
H4479 C4460 0.913 . S
H4480 C4498 0.951 . S
H4481 C4500 0.951 . S
H4482 C4502 0.950 . S
H4483 C4503 0.950 . S
H4484 C4505 0.950 . S
H4485 C4508 0.950 . S
H4486 C4509 0.950 . S
H4487 C4511 0.950 . S
H4488 C4512 0.950 . S
H4489 C4513 0.951 . S
H4490 C4515 0.951 . S
H4491 C4517 0.950 . S
H4492 C4518 0.950 . S
H4493 C4520 0.950 . S
H4494 C4523 0.950 . S
H4495 C4524 0.950 . S
H4496 C4526 0.950 . S
H4497 C4527 0.950 . S
C4498 H4480 0.951 . S
C4498 C4499 1.366 . S
C4498 C4500 1.388 . S
C4499 C4498 1.366 . S
C4499 C4503 1.385 . S
C4500 H4481 0.951 . S
C4500 C4498 1.388 . S
C4500 C4501 1.366 . S
C4501 C4500 1.366 . S
C4501 C4502 1.414 . S
C4501 C4504 1.499 . S
C4502 H4482 0.950 . S
C4502 C4501 1.414 . S
C4502 C4503 1.374 . S
C4503 H4483 0.950 . S
C4503 C4499 1.385 . S
C4503 C4502 1.374 . S
C4504 C4501 1.499 . S
C4504 C4505 1.373 . S
C4504 C4506 1.389 . S
C4505 H4484 0.950 . S
C4505 C4504 1.373 . S
C4505 C4521 1.377 . S
C4506 C4504 1.389 . S
C4506 C4507 1.524 . S
C4506 C4520 1.377 . S
C4507 C4506 1.524 . S
C4507 C4508 1.397 . S
C4507 C4512 1.363 . S
C4508 H4485 0.950 . S
C4508 C4507 1.397 . S
C4508 C4509 1.334 . S
C4509 H4486 0.950 . S
C4509 C4508 1.334 . S
C4509 C4510 1.287 . S
C4510 C4509 1.287 . S
C4510 C4511 1.524 . S
C4510 H4529 0.913 . S
C4511 H4487 0.950 . S
C4511 C4510 1.524 . S
C4511 C4512 1.415 . S
C4512 H4488 0.950 . S
C4512 C4507 1.363 . S
C4512 C4511 1.415 . S
C4513 H4489 0.951 . S
C4513 C4514 1.366 . S
C4513 C4515 1.388 . S
C4514 C4513 1.366 . S
C4514 C4518 1.385 . S
C4515 H4490 0.951 . S
C4515 C4513 1.388 . S
C4515 C4516 1.366 . S
C4516 C4515 1.366 . S
C4516 C4517 1.414 . S
C4516 C4519 1.499 . S
C4517 H4491 0.950 . S
C4517 C4516 1.414 . S
C4517 C4518 1.374 . S
C4518 H4492 0.950 . S
C4518 C4514 1.385 . S
C4518 C4517 1.374 . S
C4519 C4516 1.499 . S
C4519 C4520 1.373 . S
C4519 C4521 1.389 . S
C4520 H4493 0.950 . S
C4520 C4506 1.377 . S
C4520 C4519 1.373 . S
C4521 C4505 1.377 . S
C4521 C4519 1.389 . S
C4521 C4522 1.524 . S
C4522 C4521 1.524 . S
C4522 C4523 1.397 . S
C4522 C4527 1.363 . S
C4523 H4494 0.950 . S
C4523 C4522 1.397 . S
C4523 C4524 1.334 . S
C4524 H4495 0.950 . S
C4524 C4523 1.334 . S
C4524 C4525 1.287 . S
C4525 C4524 1.287 . S
C4525 C4526 1.524 . S
C4525 H4528 0.999 . S
C4526 H4496 0.950 . S
C4526 C4525 1.524 . S
C4526 C4527 1.415 . S
C4527 H4497 0.950 . S
C4527 C4522 1.363 . S
C4527 C4526 1.415 . S
H4528 C4525 0.999 . S
H4529 C4510 0.913 . S
H4530 C4548 0.951 . S
H4531 C4550 0.951 . S
H4532 C4552 0.950 . S
H4533 C4553 0.950 . S
H4534 C4555 0.950 . S
H4535 C4558 0.950 . S
H4536 C4559 0.950 1_554 S
H4537 C4561 0.950 . S
H4538 C4562 0.950 . S
H4539 C4563 0.951 . S
H4540 C4565 0.951 . S
H4541 C4567 0.950 . S
H4542 C4568 0.950 . S
H4543 C4570 0.950 . S
H4544 C4573 0.950 . S
H4545 C4574 0.950 . S
H4546 C4576 0.950 . S
H4547 C4577 0.950 . S
C4548 H4530 0.951 . S
C4548 C4549 1.366 . S
C4548 C4550 1.388 . S
C4549 C4548 1.366 . S
C4549 C4553 1.385 . S
C4550 H4531 0.951 . S
C4550 C4548 1.388 . S
C4550 C4551 1.366 . S
C4551 C4550 1.366 . S
C4551 C4552 1.414 . S
C4551 C4554 1.499 . S
C4552 H4532 0.950 . S
C4552 C4551 1.414 . S
C4552 C4553 1.374 . S
C4553 H4533 0.950 . S
C4553 C4549 1.385 . S
C4553 C4552 1.374 . S
C4554 C4551 1.499 . S
C4554 C4555 1.373 . S
C4554 C4556 1.389 . S
C4555 H4534 0.950 . S
C4555 C4554 1.373 . S
C4555 C4571 1.377 . S
C4556 C4554 1.389 . S
C4556 C4557 1.524 . S
C4556 C4570 1.377 . S
C4557 C4556 1.524 . S
C4557 C4558 1.397 . S
C4557 C4562 1.363 . S
C4558 H4535 0.950 . S
C4558 C4557 1.397 . S
C4558 C4559 1.334 . S
C4559 H4536 0.950 1_556 S
C4559 C4558 1.334 . S
C4559 C4560 1.287 . S
C4560 C4559 1.287 . S
C4560 C4561 1.524 . S
C4560 H4579 0.913 1_556 S
C4561 H4537 0.950 . S
C4561 C4560 1.524 . S
C4561 C4562 1.415 . S
C4562 H4538 0.950 . S
C4562 C4557 1.363 . S
C4562 C4561 1.415 . S
C4563 H4539 0.951 . S
C4563 C4564 1.366 . S
C4563 C4565 1.388 . S
C4564 C4563 1.366 . S
C4564 C4568 1.385 . S
C4565 H4540 0.951 . S
C4565 C4563 1.388 . S
C4565 C4566 1.366 . S
C4566 C4565 1.366 . S
C4566 C4567 1.414 . S
C4566 C4569 1.499 . S
C4567 H4541 0.950 . S
C4567 C4566 1.414 . S
C4567 C4568 1.374 . S
C4568 H4542 0.950 . S
C4568 C4564 1.385 . S
C4568 C4567 1.374 . S
C4569 C4566 1.499 . S
C4569 C4570 1.373 . S
C4569 C4571 1.389 . S
C4570 H4543 0.950 . S
C4570 C4556 1.377 . S
C4570 C4569 1.373 . S
C4571 C4555 1.377 . S
C4571 C4569 1.389 . S
C4571 C4572 1.524 . S
C4572 C4571 1.524 . S
C4572 C4573 1.397 . S
C4572 C4577 1.363 . S
C4573 H4544 0.950 . S
C4573 C4572 1.397 . S
C4573 C4574 1.334 . S
C4574 H4545 0.950 . S
C4574 C4573 1.334 . S
C4574 C4575 1.287 . S
C4575 C4574 1.287 . S
C4575 C4576 1.524 . S
C4575 H4578 0.999 . S
C4576 H4546 0.950 . S
C4576 C4575 1.524 . S
C4576 C4577 1.415 . S
C4577 H4547 0.950 . S
C4577 C4572 1.363 . S
C4577 C4576 1.415 . S
H4578 C4575 0.999 . S
H4579 C4560 0.913 1_554 S
H4580 C4598 0.951 . S
H4581 C4600 0.951 . S
H4582 C4602 0.950 . S
H4583 C4603 0.950 . S
H4584 C4605 0.950 . S
H4585 C4608 0.950 . S
H4586 C4609 0.950 . S
H4587 C4611 0.950 . S
H4588 C4612 0.950 . S
H4589 C4613 0.951 . S
H4590 C4615 0.951 . S
H4591 C4617 0.950 . S
H4592 C4618 0.950 . S
H4593 C4620 0.950 . S
H4594 C4623 0.950 . S
H4595 C4624 0.950 . S
H4596 C4626 0.950 . S
H4597 C4627 0.950 . S
C4598 H4580 0.951 . S
C4598 C4599 1.366 . S
C4598 C4600 1.388 . S
C4599 C4598 1.366 . S
C4599 C4603 1.385 . S
C4600 H4581 0.951 . S
C4600 C4598 1.388 . S
C4600 C4601 1.366 . S
C4601 C4600 1.366 . S
C4601 C4602 1.414 . S
C4601 C4604 1.499 . S
C4602 H4582 0.950 . S
C4602 C4601 1.414 . S
C4602 C4603 1.374 . S
C4603 H4583 0.950 . S
C4603 C4599 1.385 . S
C4603 C4602 1.374 . S
C4604 C4601 1.499 . S
C4604 C4605 1.373 . S
C4604 C4606 1.389 . S
C4605 H4584 0.950 . S
C4605 C4604 1.373 . S
C4605 C4621 1.377 . S
C4606 C4604 1.389 . S
C4606 C4607 1.524 . S
C4606 C4620 1.377 . S
C4607 C4606 1.524 . S
C4607 C4608 1.397 . S
C4607 C4612 1.363 . S
C4608 H4585 0.950 . S
C4608 C4607 1.397 . S
C4608 C4609 1.334 . S
C4609 H4586 0.950 . S
C4609 C4608 1.334 . S
C4609 C4610 1.287 . S
C4610 C4609 1.287 . S
C4610 C4611 1.524 . S
C4610 H4629 0.913 . S
C4611 H4587 0.950 . S
C4611 C4610 1.524 . S
C4611 C4612 1.415 . S
C4612 H4588 0.950 . S
C4612 C4607 1.363 . S
C4612 C4611 1.415 . S
C4613 H4589 0.951 . S
C4613 C4614 1.366 . S
C4613 C4615 1.388 . S
C4614 C4613 1.366 . S
C4614 C4618 1.385 . S
C4615 H4590 0.951 . S
C4615 C4613 1.388 . S
C4615 C4616 1.366 . S
C4616 C4615 1.366 . S
C4616 C4617 1.414 . S
C4616 C4619 1.499 . S
C4617 H4591 0.950 . S
C4617 C4616 1.414 . S
C4617 C4618 1.374 . S
C4618 H4592 0.950 . S
C4618 C4614 1.385 . S
C4618 C4617 1.374 . S
C4619 C4616 1.499 . S
C4619 C4620 1.373 . S
C4619 C4621 1.389 . S
C4620 H4593 0.950 . S
C4620 C4606 1.377 . S
C4620 C4619 1.373 . S
C4621 C4605 1.377 . S
C4621 C4619 1.389 . S
C4621 C4622 1.524 . S
C4622 C4621 1.524 . S
C4622 C4623 1.397 . S
C4622 C4627 1.363 . S
C4623 H4594 0.950 . S
C4623 C4622 1.397 . S
C4623 C4624 1.334 . S
C4624 H4595 0.950 . S
C4624 C4623 1.334 . S
C4624 C4625 1.287 . S
C4625 C4624 1.287 . S
C4625 C4626 1.524 . S
C4625 H4628 0.999 . S
C4626 H4596 0.950 . S
C4626 C4625 1.524 . S
C4626 C4627 1.415 . S
C4627 H4597 0.950 . S
C4627 C4622 1.363 . S
C4627 C4626 1.415 . S
H4628 C4625 0.999 . S
H4629 C4610 0.913 . S
H4630 C4648 0.951 . S
H4631 C4650 0.951 . S
H4632 C4652 0.950 . S
H4633 C4653 0.950 . S
H4634 C4655 0.950 . S
H4635 C4658 0.950 . S
H4636 C4659 0.950 . S
H4637 C4661 0.950 . S
H4638 C4662 0.950 . S
H4639 C4663 0.951 . S
H4640 C4665 0.951 . S
H4641 C4667 0.950 . S
H4642 C4668 0.950 . S
H4643 C4670 0.950 . S
H4644 C4673 0.950 . S
H4645 C4674 0.950 . S
H4646 C4676 0.950 . S
H4647 C4677 0.950 . S
C4648 H4630 0.951 . S
C4648 C4649 1.366 . S
C4648 C4650 1.388 . S
C4649 C4648 1.366 . S
C4649 C4653 1.385 . S
C4650 H4631 0.951 . S
C4650 C4648 1.388 . S
C4650 C4651 1.366 . S
C4651 C4650 1.366 . S
C4651 C4652 1.414 . S
C4651 C4654 1.499 . S
C4652 H4632 0.950 . S
C4652 C4651 1.414 . S
C4652 C4653 1.374 . S
C4653 H4633 0.950 . S
C4653 C4649 1.385 . S
C4653 C4652 1.374 . S
C4654 C4651 1.499 . S
C4654 C4655 1.373 . S
C4654 C4656 1.389 . S
C4655 H4634 0.950 . S
C4655 C4654 1.373 . S
C4655 C4671 1.377 . S
C4656 C4654 1.389 . S
C4656 C4657 1.524 . S
C4656 C4670 1.377 . S
C4657 C4656 1.524 . S
C4657 C4658 1.397 . S
C4657 C4662 1.363 . S
C4658 H4635 0.950 . S
C4658 C4657 1.397 . S
C4658 C4659 1.334 . S
C4659 H4636 0.950 . S
C4659 C4658 1.334 . S
C4659 C4660 1.287 . S
C4660 C4659 1.287 . S
C4660 C4661 1.524 . S
C4660 H4679 0.913 . S
C4661 H4637 0.950 . S
C4661 C4660 1.524 . S
C4661 C4662 1.415 . S
C4662 H4638 0.950 . S
C4662 C4657 1.363 . S
C4662 C4661 1.415 . S
C4663 H4639 0.951 . S
C4663 C4664 1.366 . S
C4663 C4665 1.388 . S
C4664 C4663 1.366 . S
C4664 C4668 1.385 . S
C4665 H4640 0.951 . S
C4665 C4663 1.388 . S
C4665 C4666 1.366 . S
C4666 C4665 1.366 . S
C4666 C4667 1.414 . S
C4666 C4669 1.499 . S
C4667 H4641 0.950 . S
C4667 C4666 1.414 . S
C4667 C4668 1.374 . S
C4668 H4642 0.950 . S
C4668 C4664 1.385 . S
C4668 C4667 1.374 . S
C4669 C4666 1.499 . S
C4669 C4670 1.373 . S
C4669 C4671 1.389 . S
C4670 H4643 0.950 . S
C4670 C4656 1.377 . S
C4670 C4669 1.373 . S
C4671 C4655 1.377 . S
C4671 C4669 1.389 . S
C4671 C4672 1.524 . S
C4672 C4671 1.524 . S
C4672 C4673 1.397 . S
C4672 C4677 1.363 . S
C4673 H4644 0.950 . S
C4673 C4672 1.397 . S
C4673 C4674 1.334 . S
C4674 H4645 0.950 . S
C4674 C4673 1.334 . S
C4674 C4675 1.287 . S
C4675 C4674 1.287 . S
C4675 C4676 1.524 . S
C4675 H4678 0.999 . S
C4676 H4646 0.950 . S
C4676 C4675 1.524 . S
C4676 C4677 1.415 . S
C4677 H4647 0.950 . S
C4677 C4672 1.363 . S
C4677 C4676 1.415 . S
H4678 C4675 0.999 . S
H4679 C4660 0.913 . S
H4680 C4698 0.951 . S
H4681 C4700 0.951 . S
H4682 C4702 0.950 . S
H4683 C4703 0.950 . S
H4684 C4705 0.950 . S
H4685 C4708 0.950 . S
H4686 C4709 0.950 . S
H4687 C4711 0.950 . S
H4688 C4712 0.950 . S
H4689 C4713 0.951 . S
H4690 C4715 0.951 . S
H4691 C4717 0.950 . S
H4692 C4718 0.950 . S
H4693 C4720 0.950 . S
H4694 C4723 0.950 . S
H4695 C4724 0.950 . S
H4696 C4726 0.950 . S
H4697 C4727 0.950 . S
C4698 H4680 0.951 . S
C4698 C4699 1.366 . S
C4698 C4700 1.388 . S
C4699 C4698 1.366 . S
C4699 C4703 1.385 . S
C4700 H4681 0.951 . S
C4700 C4698 1.388 . S
C4700 C4701 1.366 . S
C4701 C4700 1.366 . S
C4701 C4702 1.414 . S
C4701 C4704 1.499 . S
C4702 H4682 0.950 . S
C4702 C4701 1.414 . S
C4702 C4703 1.374 . S
C4703 H4683 0.950 . S
C4703 C4699 1.385 . S
C4703 C4702 1.374 . S
C4704 C4701 1.499 . S
C4704 C4705 1.373 . S
C4704 C4706 1.389 . S
C4705 H4684 0.950 . S
C4705 C4704 1.373 . S
C4705 C4721 1.377 . S
C4706 C4704 1.389 . S
C4706 C4707 1.524 . S
C4706 C4720 1.377 . S
C4707 C4706 1.524 . S
C4707 C4708 1.397 . S
C4707 C4712 1.363 . S
C4708 H4685 0.950 . S
C4708 C4707 1.397 . S
C4708 C4709 1.334 . S
C4709 H4686 0.950 . S
C4709 C4708 1.334 . S
C4709 C4710 1.287 . S
C4710 C4709 1.287 . S
C4710 C4711 1.524 . S
C4710 H4729 0.913 . S
C4711 H4687 0.950 . S
C4711 C4710 1.524 . S
C4711 C4712 1.415 . S
C4712 H4688 0.950 . S
C4712 C4707 1.363 . S
C4712 C4711 1.415 . S
C4713 H4689 0.951 . S
C4713 C4714 1.366 . S
C4713 C4715 1.388 . S
C4714 C4713 1.366 . S
C4714 C4718 1.385 . S
C4715 H4690 0.951 . S
C4715 C4713 1.388 . S
C4715 C4716 1.366 . S
C4716 C4715 1.366 . S
C4716 C4717 1.414 . S
C4716 C4719 1.499 . S
C4717 H4691 0.950 . S
C4717 C4716 1.414 . S
C4717 C4718 1.374 . S
C4718 H4692 0.950 . S
C4718 C4714 1.385 . S
C4718 C4717 1.374 . S
C4719 C4716 1.499 . S
C4719 C4720 1.373 . S
C4719 C4721 1.389 . S
C4720 H4693 0.950 . S
C4720 C4706 1.377 . S
C4720 C4719 1.373 . S
C4721 C4705 1.377 . S
C4721 C4719 1.389 . S
C4721 C4722 1.524 . S
C4722 C4721 1.524 . S
C4722 C4723 1.397 . S
C4722 C4727 1.363 . S
C4723 H4694 0.950 . S
C4723 C4722 1.397 . S
C4723 C4724 1.334 . S
C4724 H4695 0.950 . S
C4724 C4723 1.334 . S
C4724 C4725 1.287 . S
C4725 C4724 1.287 . S
C4725 C4726 1.524 . S
C4725 H4728 0.999 . S
C4726 H4696 0.950 . S
C4726 C4725 1.524 . S
C4726 C4727 1.415 . S
C4727 H4697 0.950 . S
C4727 C4722 1.363 . S
C4727 C4726 1.415 . S
H4728 C4725 0.999 . S
H4729 C4710 0.913 . S
H4730 C4748 0.951 . S
H4731 C4750 0.951 . S
H4732 C4752 0.950 . S
H4733 C4753 0.950 . S
H4734 C4755 0.950 . S
H4735 C4758 0.950 . S
H4736 C4759 0.950 . S
H4737 C4761 0.950 . S
H4738 C4762 0.950 . S
H4739 C4763 0.951 . S
H4740 C4765 0.951 . S
H4741 C4767 0.950 . S
H4742 C4768 0.950 . S
H4743 C4770 0.950 . S
H4744 C4773 0.950 . S
H4745 C4774 0.950 . S
H4746 C4776 0.950 . S
H4747 C4777 0.950 . S
C4748 H4730 0.951 . S
C4748 C4749 1.366 . S
C4748 C4750 1.388 . S
C4749 C4748 1.366 . S
C4749 C4753 1.385 . S
C4750 H4731 0.951 . S
C4750 C4748 1.388 . S
C4750 C4751 1.366 . S
C4751 C4750 1.366 . S
C4751 C4752 1.414 . S
C4751 C4754 1.499 . S
C4752 H4732 0.950 . S
C4752 C4751 1.414 . S
C4752 C4753 1.374 . S
C4753 H4733 0.950 . S
C4753 C4749 1.385 . S
C4753 C4752 1.374 . S
C4754 C4751 1.499 . S
C4754 C4755 1.373 . S
C4754 C4756 1.389 . S
C4755 H4734 0.950 . S
C4755 C4754 1.373 . S
C4755 C4771 1.377 . S
C4756 C4754 1.389 . S
C4756 C4757 1.524 . S
C4756 C4770 1.377 . S
C4757 C4756 1.524 . S
C4757 C4758 1.397 . S
C4757 C4762 1.363 . S
C4758 H4735 0.950 . S
C4758 C4757 1.397 . S
C4758 C4759 1.334 . S
C4759 H4736 0.950 . S
C4759 C4758 1.334 . S
C4759 C4760 1.287 . S
C4760 C4759 1.287 . S
C4760 C4761 1.524 . S
C4760 H4779 0.913 . S
C4761 H4737 0.950 . S
C4761 C4760 1.524 . S
C4761 C4762 1.415 . S
C4762 H4738 0.950 . S
C4762 C4757 1.363 . S
C4762 C4761 1.415 . S
C4763 H4739 0.951 . S
C4763 C4764 1.366 . S
C4763 C4765 1.388 . S
C4764 C4763 1.366 . S
C4764 C4768 1.385 . S
C4765 H4740 0.951 . S
C4765 C4763 1.388 . S
C4765 C4766 1.366 . S
C4766 C4765 1.366 . S
C4766 C4767 1.414 . S
C4766 C4769 1.499 . S
C4767 H4741 0.950 . S
C4767 C4766 1.414 . S
C4767 C4768 1.374 . S
C4768 H4742 0.950 . S
C4768 C4764 1.385 . S
C4768 C4767 1.374 . S
C4769 C4766 1.499 . S
C4769 C4770 1.373 . S
C4769 C4771 1.389 . S
C4770 H4743 0.950 . S
C4770 C4756 1.377 . S
C4770 C4769 1.373 . S
C4771 C4755 1.377 . S
C4771 C4769 1.389 . S
C4771 C4772 1.524 . S
C4772 C4771 1.524 . S
C4772 C4773 1.397 . S
C4772 C4777 1.363 . S
C4773 H4744 0.950 . S
C4773 C4772 1.397 . S
C4773 C4774 1.334 . S
C4774 H4745 0.950 . S
C4774 C4773 1.334 . S
C4774 C4775 1.287 . S
C4775 C4774 1.287 . S
C4775 C4776 1.524 . S
C4775 H4778 0.999 . S
C4776 H4746 0.950 . S
C4776 C4775 1.524 . S
C4776 C4777 1.415 . S
C4777 H4747 0.950 . S
C4777 C4772 1.363 . S
C4777 C4776 1.415 . S
H4778 C4775 0.999 . S
H4779 C4760 0.913 . S
H4780 C4798 0.951 . S
H4781 C4800 0.951 . S
H4782 C4802 0.950 . S
H4783 C4803 0.950 . S
H4784 C4805 0.950 . S
H4785 C4808 0.950 . S
H4786 C4809 0.950 . S
H4787 C4811 0.950 . S
H4788 C4812 0.950 . S
H4789 C4813 0.951 . S
H4790 C4815 0.951 . S
H4791 C4817 0.950 . S
H4792 C4818 0.950 . S
H4793 C4820 0.950 . S
H4794 C4823 0.950 . S
H4795 C4824 0.950 . S
H4796 C4826 0.950 . S
H4797 C4827 0.950 . S
C4798 H4780 0.951 . S
C4798 C4799 1.366 . S
C4798 C4800 1.388 . S
C4799 C4798 1.366 . S
C4799 C4803 1.385 . S
C4800 H4781 0.951 . S
C4800 C4798 1.388 . S
C4800 C4801 1.366 . S
C4801 C4800 1.366 . S
C4801 C4802 1.414 . S
C4801 C4804 1.499 . S
C4802 H4782 0.950 . S
C4802 C4801 1.414 . S
C4802 C4803 1.374 . S
C4803 H4783 0.950 . S
C4803 C4799 1.385 . S
C4803 C4802 1.374 . S
C4804 C4801 1.499 . S
C4804 C4805 1.373 . S
C4804 C4806 1.389 . S
C4805 H4784 0.950 . S
C4805 C4804 1.373 . S
C4805 C4821 1.377 . S
C4806 C4804 1.389 . S
C4806 C4807 1.524 . S
C4806 C4820 1.377 . S
C4807 C4806 1.524 . S
C4807 C4808 1.397 . S
C4807 C4812 1.363 . S
C4808 H4785 0.950 . S
C4808 C4807 1.397 . S
C4808 C4809 1.334 . S
C4809 H4786 0.950 . S
C4809 C4808 1.334 . S
C4809 C4810 1.287 . S
C4810 C4809 1.287 . S
C4810 C4811 1.524 . S
C4810 H4829 0.913 . S
C4811 H4787 0.950 . S
C4811 C4810 1.524 . S
C4811 C4812 1.415 . S
C4812 H4788 0.950 . S
C4812 C4807 1.363 . S
C4812 C4811 1.415 . S
C4813 H4789 0.951 . S
C4813 C4814 1.366 . S
C4813 C4815 1.388 . S
C4814 C4813 1.366 . S
C4814 C4818 1.385 . S
C4815 H4790 0.951 . S
C4815 C4813 1.388 . S
C4815 C4816 1.366 . S
C4816 C4815 1.366 . S
C4816 C4817 1.414 . S
C4816 C4819 1.499 . S
C4817 H4791 0.950 . S
C4817 C4816 1.414 . S
C4817 C4818 1.374 . S
C4818 H4792 0.950 . S
C4818 C4814 1.385 . S
C4818 C4817 1.374 . S
C4819 C4816 1.499 . S
C4819 C4820 1.373 . S
C4819 C4821 1.389 . S
C4820 H4793 0.950 . S
C4820 C4806 1.377 . S
C4820 C4819 1.373 . S
C4821 C4805 1.377 . S
C4821 C4819 1.389 . S
C4821 C4822 1.524 . S
C4822 C4821 1.524 . S
C4822 C4823 1.397 . S
C4822 C4827 1.363 . S
C4823 H4794 0.950 . S
C4823 C4822 1.397 . S
C4823 C4824 1.334 . S
C4824 H4795 0.950 . S
C4824 C4823 1.334 . S
C4824 C4825 1.287 . S
C4825 C4824 1.287 . S
C4825 C4826 1.524 . S
C4825 H4828 0.999 . S
C4826 H4796 0.950 . S
C4826 C4825 1.524 . S
C4826 C4827 1.415 . S
C4827 H4797 0.950 . S
C4827 C4822 1.363 . S
C4827 C4826 1.415 . S
H4828 C4825 0.999 . S
H4829 C4810 0.913 . S
H4830 C4848 0.951 . S
H4831 C4850 0.951 . S
H4832 C4852 0.950 . S
H4833 C4853 0.950 . S
H4834 C4855 0.950 . S
H4835 C4858 0.950 . S
H4836 C4859 0.950 . S
H4837 C4861 0.950 . S
H4838 C4862 0.950 . S
H4839 C4863 0.951 . S
H4840 C4865 0.951 . S
H4841 C4867 0.950 . S
H4842 C4868 0.950 . S
H4843 C4870 0.950 . S
H4844 C4873 0.950 . S
H4845 C4874 0.950 . S
H4846 C4876 0.950 . S
H4847 C4877 0.950 . S
C4848 H4830 0.951 . S
C4848 C4849 1.366 . S
C4848 C4850 1.388 . S
C4849 C4848 1.366 . S
C4849 C4853 1.385 . S
C4850 H4831 0.951 . S
C4850 C4848 1.388 . S
C4850 C4851 1.366 . S
C4851 C4850 1.366 . S
C4851 C4852 1.414 . S
C4851 C4854 1.499 . S
C4852 H4832 0.950 . S
C4852 C4851 1.414 . S
C4852 C4853 1.374 . S
C4853 H4833 0.950 . S
C4853 C4849 1.385 . S
C4853 C4852 1.374 . S
C4854 C4851 1.499 . S
C4854 C4855 1.373 . S
C4854 C4856 1.389 . S
C4855 H4834 0.950 . S
C4855 C4854 1.373 . S
C4855 C4871 1.377 . S
C4856 C4854 1.389 . S
C4856 C4857 1.524 . S
C4856 C4870 1.377 . S
C4857 C4856 1.524 . S
C4857 C4858 1.397 . S
C4857 C4862 1.363 . S
C4858 H4835 0.950 . S
C4858 C4857 1.397 . S
C4858 C4859 1.334 . S
C4859 H4836 0.950 . S
C4859 C4858 1.334 . S
C4859 C4860 1.287 . S
C4860 C4859 1.287 . S
C4860 C4861 1.524 . S
C4860 H4879 0.913 . S
C4861 H4837 0.950 . S
C4861 C4860 1.524 . S
C4861 C4862 1.415 . S
C4862 H4838 0.950 . S
C4862 C4857 1.363 . S
C4862 C4861 1.415 . S
C4863 H4839 0.951 . S
C4863 C4864 1.366 . S
C4863 C4865 1.388 . S
C4864 C4863 1.366 . S
C4864 C4868 1.385 . S
C4865 H4840 0.951 . S
C4865 C4863 1.388 . S
C4865 C4866 1.366 . S
C4866 C4865 1.366 . S
C4866 C4867 1.414 . S
C4866 C4869 1.499 . S
C4867 H4841 0.950 . S
C4867 C4866 1.414 . S
C4867 C4868 1.374 . S
C4868 H4842 0.950 . S
C4868 C4864 1.385 . S
C4868 C4867 1.374 . S
C4869 C4866 1.499 . S
C4869 C4870 1.373 . S
C4869 C4871 1.389 . S
C4870 H4843 0.950 . S
C4870 C4856 1.377 . S
C4870 C4869 1.373 . S
C4871 C4855 1.377 . S
C4871 C4869 1.389 . S
C4871 C4872 1.524 . S
C4872 C4871 1.524 . S
C4872 C4873 1.397 . S
C4872 C4877 1.363 . S
C4873 H4844 0.950 . S
C4873 C4872 1.397 . S
C4873 C4874 1.334 . S
C4874 H4845 0.950 . S
C4874 C4873 1.334 . S
C4874 C4875 1.287 . S
C4875 C4874 1.287 . S
C4875 C4876 1.524 . S
C4875 H4878 0.999 . S
C4876 H4846 0.950 . S
C4876 C4875 1.524 . S
C4876 C4877 1.415 . S
C4877 H4847 0.950 . S
C4877 C4872 1.363 . S
C4877 C4876 1.415 . S
H4878 C4875 0.999 . S
H4879 C4860 0.913 . S
H4880 C4898 0.951 . S
H4881 C4900 0.951 . S
H4882 C4902 0.950 . S
H4883 C4903 0.950 . S
H4884 C4905 0.950 . S
H4885 C4908 0.950 . S
H4886 C4909 0.950 . S
H4887 C4911 0.950 . S
H4888 C4912 0.950 . S
H4889 C4913 0.951 . S
H4890 C4915 0.951 . S
H4891 C4917 0.950 . S
H4892 C4918 0.950 . S
H4893 C4920 0.950 . S
H4894 C4923 0.950 . S
H4895 C4924 0.950 . S
H4896 C4926 0.950 . S
H4897 C4927 0.950 . S
C4898 H4880 0.951 . S
C4898 C4899 1.366 . S
C4898 C4900 1.388 . S
C4899 C4898 1.366 . S
C4899 C4903 1.385 . S
C4900 H4881 0.951 . S
C4900 C4898 1.388 . S
C4900 C4901 1.366 . S
C4901 C4900 1.366 . S
C4901 C4902 1.414 . S
C4901 C4904 1.499 . S
C4902 H4882 0.950 . S
C4902 C4901 1.414 . S
C4902 C4903 1.374 . S
C4903 H4883 0.950 . S
C4903 C4899 1.385 . S
C4903 C4902 1.374 . S
C4904 C4901 1.499 . S
C4904 C4905 1.373 . S
C4904 C4906 1.389 . S
C4905 H4884 0.950 . S
C4905 C4904 1.373 . S
C4905 C4921 1.377 . S
C4906 C4904 1.389 . S
C4906 C4907 1.524 . S
C4906 C4920 1.377 . S
C4907 C4906 1.524 . S
C4907 C4908 1.397 . S
C4907 C4912 1.363 . S
C4908 H4885 0.950 . S
C4908 C4907 1.397 . S
C4908 C4909 1.334 . S
C4909 H4886 0.950 . S
C4909 C4908 1.334 . S
C4909 C4910 1.287 . S
C4910 C4909 1.287 . S
C4910 C4911 1.524 . S
C4910 H4929 0.913 . S
C4911 H4887 0.950 . S
C4911 C4910 1.524 . S
C4911 C4912 1.415 . S
C4912 H4888 0.950 . S
C4912 C4907 1.363 . S
C4912 C4911 1.415 . S
C4913 H4889 0.951 . S
C4913 C4914 1.366 . S
C4913 C4915 1.388 . S
C4914 C4913 1.366 . S
C4914 C4918 1.385 . S
C4915 H4890 0.951 . S
C4915 C4913 1.388 . S
C4915 C4916 1.366 . S
C4916 C4915 1.366 . S
C4916 C4917 1.414 . S
C4916 C4919 1.499 . S
C4917 H4891 0.950 . S
C4917 C4916 1.414 . S
C4917 C4918 1.374 . S
C4918 H4892 0.950 . S
C4918 C4914 1.385 . S
C4918 C4917 1.374 . S
C4919 C4916 1.499 . S
C4919 C4920 1.373 . S
C4919 C4921 1.389 . S
C4920 H4893 0.950 . S
C4920 C4906 1.377 . S
C4920 C4919 1.373 . S
C4921 C4905 1.377 . S
C4921 C4919 1.389 . S
C4921 C4922 1.524 . S
C4922 C4921 1.524 . S
C4922 C4923 1.397 . S
C4922 C4927 1.363 . S
C4923 H4894 0.950 . S
C4923 C4922 1.397 . S
C4923 C4924 1.334 . S
C4924 H4895 0.950 . S
C4924 C4923 1.334 . S
C4924 C4925 1.287 . S
C4925 C4924 1.287 . S
C4925 C4926 1.524 . S
C4925 H4928 0.999 . S
C4926 H4896 0.950 . S
C4926 C4925 1.524 . S
C4926 C4927 1.415 . S
C4927 H4897 0.950 . S
C4927 C4922 1.363 . S
C4927 C4926 1.415 . S
H4928 C4925 0.999 . S
H4929 C4910 0.913 . S
H4930 C4948 0.951 . S
H4931 C4950 0.951 . S
H4932 C4952 0.950 . S
H4933 C4953 0.950 . S
H4934 C4955 0.950 . S
H4935 C4958 0.950 . S
H4936 C4959 0.950 . S
H4937 C4961 0.950 . S
H4938 C4962 0.950 . S
H4939 C4963 0.951 . S
H4940 C4965 0.951 . S
H4941 C4967 0.950 . S
H4942 C4968 0.950 . S
H4943 C4970 0.950 . S
H4944 C4973 0.950 . S
H4945 C4974 0.950 . S
H4946 C4976 0.950 . S
H4947 C4977 0.950 . S
C4948 H4930 0.951 . S
C4948 C4949 1.366 . S
C4948 C4950 1.388 . S
C4949 C4948 1.366 . S
C4949 C4953 1.385 . S
C4950 H4931 0.951 . S
C4950 C4948 1.388 . S
C4950 C4951 1.366 . S
C4951 C4950 1.366 . S
C4951 C4952 1.414 . S
C4951 C4954 1.499 . S
C4952 H4932 0.950 . S
C4952 C4951 1.414 . S
C4952 C4953 1.374 . S
C4953 H4933 0.950 . S
C4953 C4949 1.385 . S
C4953 C4952 1.374 . S
C4954 C4951 1.499 . S
C4954 C4955 1.373 . S
C4954 C4956 1.389 . S
C4955 H4934 0.950 . S
C4955 C4954 1.373 . S
C4955 C4971 1.377 . S
C4956 C4954 1.389 . S
C4956 C4957 1.524 . S
C4956 C4970 1.377 . S
C4957 C4956 1.524 . S
C4957 C4958 1.397 . S
C4957 C4962 1.363 . S
C4958 H4935 0.950 . S
C4958 C4957 1.397 . S
C4958 C4959 1.334 . S
C4959 H4936 0.950 . S
C4959 C4958 1.334 . S
C4959 C4960 1.287 . S
C4960 C4959 1.287 . S
C4960 C4961 1.524 . S
C4960 H4979 0.913 . S
C4961 H4937 0.950 . S
C4961 C4960 1.524 . S
C4961 C4962 1.415 . S
C4962 H4938 0.950 . S
C4962 C4957 1.363 . S
C4962 C4961 1.415 . S
C4963 H4939 0.951 . S
C4963 C4964 1.366 . S
C4963 C4965 1.388 . S
C4964 C4963 1.366 . S
C4964 C4968 1.385 . S
C4965 H4940 0.951 . S
C4965 C4963 1.388 . S
C4965 C4966 1.366 . S
C4966 C4965 1.366 . S
C4966 C4967 1.414 . S
C4966 C4969 1.499 . S
C4967 H4941 0.950 . S
C4967 C4966 1.414 . S
C4967 C4968 1.374 . S
C4968 H4942 0.950 . S
C4968 C4964 1.385 . S
C4968 C4967 1.374 . S
C4969 C4966 1.499 . S
C4969 C4970 1.373 . S
C4969 C4971 1.389 . S
C4970 H4943 0.950 . S
C4970 C4956 1.377 . S
C4970 C4969 1.373 . S
C4971 C4955 1.377 . S
C4971 C4969 1.389 . S
C4971 C4972 1.524 . S
C4972 C4971 1.524 . S
C4972 C4973 1.397 . S
C4972 C4977 1.363 . S
C4973 H4944 0.950 . S
C4973 C4972 1.397 . S
C4973 C4974 1.334 . S
C4974 H4945 0.950 . S
C4974 C4973 1.334 . S
C4974 C4975 1.287 . S
C4975 C4974 1.287 . S
C4975 C4976 1.524 . S
C4975 H4978 0.999 . S
C4976 H4946 0.950 . S
C4976 C4975 1.524 . S
C4976 C4977 1.415 . S
C4977 H4947 0.950 . S
C4977 C4972 1.363 . S
C4977 C4976 1.415 . S
H4978 C4975 0.999 . S
H4979 C4960 0.913 . S
H4980 C4998 0.951 . S
H4981 C5000 0.951 . S
H4982 C5002 0.950 . S
H4983 C5003 0.950 . S
H4984 C5005 0.950 . S
H4985 C5008 0.950 . S
H4986 C5009 0.950 . S
H4987 C5011 0.950 . S
H4988 C5012 0.950 . S
H4989 C5013 0.951 . S
H4990 C5015 0.951 . S
H4991 C5017 0.950 . S
H4992 C5018 0.950 . S
H4993 C5020 0.950 . S
H4994 C5023 0.950 . S
H4995 C5024 0.950 . S
H4996 C5026 0.950 . S
H4997 C5027 0.950 . S
C4998 H4980 0.951 . S
C4998 C4999 1.366 . S
C4998 C5000 1.388 . S
C4999 C4998 1.366 . S
C4999 C5003 1.385 . S
C5000 H4981 0.951 . S
C5000 C4998 1.388 . S
C5000 C5001 1.366 . S
C5001 C5000 1.366 . S
C5001 C5002 1.414 . S
C5001 C5004 1.499 . S
C5002 H4982 0.950 . S
C5002 C5001 1.414 . S
C5002 C5003 1.374 . S
C5003 H4983 0.950 . S
C5003 C4999 1.385 . S
C5003 C5002 1.374 . S
C5004 C5001 1.499 . S
C5004 C5005 1.373 . S
C5004 C5006 1.389 . S
C5005 H4984 0.950 . S
C5005 C5004 1.373 . S
C5005 C5021 1.377 . S
C5006 C5004 1.389 . S
C5006 C5007 1.524 . S
C5006 C5020 1.377 . S
C5007 C5006 1.524 . S
C5007 C5008 1.397 . S
C5007 C5012 1.363 . S
C5008 H4985 0.950 . S
C5008 C5007 1.397 . S
C5008 C5009 1.334 . S
C5009 H4986 0.950 . S
C5009 C5008 1.334 . S
C5009 C5010 1.287 . S
C5010 C5009 1.287 . S
C5010 C5011 1.524 . S
C5010 H5029 0.913 . S
C5011 H4987 0.950 . S
C5011 C5010 1.524 . S
C5011 C5012 1.415 . S
C5012 H4988 0.950 . S
C5012 C5007 1.363 . S
C5012 C5011 1.415 . S
C5013 H4989 0.951 . S
C5013 C5014 1.366 . S
C5013 C5015 1.388 . S
C5014 C5013 1.366 . S
C5014 C5018 1.385 . S
C5015 H4990 0.951 . S
C5015 C5013 1.388 . S
C5015 C5016 1.366 . S
C5016 C5015 1.366 . S
C5016 C5017 1.414 . S
C5016 C5019 1.499 . S
C5017 H4991 0.950 . S
C5017 C5016 1.414 . S
C5017 C5018 1.374 . S
C5018 H4992 0.950 . S
C5018 C5014 1.385 . S
C5018 C5017 1.374 . S
C5019 C5016 1.499 . S
C5019 C5020 1.373 . S
C5019 C5021 1.389 . S
C5020 H4993 0.950 . S
C5020 C5006 1.377 . S
C5020 C5019 1.373 . S
C5021 C5005 1.377 . S
C5021 C5019 1.389 . S
C5021 C5022 1.524 . S
C5022 C5021 1.524 . S
C5022 C5023 1.397 . S
C5022 C5027 1.363 . S
C5023 H4994 0.950 . S
C5023 C5022 1.397 . S
C5023 C5024 1.334 . S
C5024 H4995 0.950 . S
C5024 C5023 1.334 . S
C5024 C5025 1.287 . S
C5025 C5024 1.287 . S
C5025 C5026 1.524 . S
C5025 H5028 0.999 . S
C5026 H4996 0.950 . S
C5026 C5025 1.524 . S
C5026 C5027 1.415 . S
C5027 H4997 0.950 . S
C5027 C5022 1.363 . S
C5027 C5026 1.415 . S
H5028 C5025 0.999 . S
H5029 C5010 0.913 . S
H5030 C5048 0.951 . S
H5031 C5050 0.951 . S
H5032 C5052 0.950 1_556 S
H5033 C5053 0.950 1_556 S
H5034 C5055 0.950 . S
H5035 C5058 0.950 . S
H5036 C5059 0.950 . S
H5037 C5061 0.950 . S
H5038 C5062 0.950 . S
H5039 C5063 0.951 1_556 S
H5040 C5065 0.951 1_566 S
H5041 C5067 0.950 . S
H5042 C5068 0.950 . S
H5043 C5070 0.950 . S
H5044 C5073 0.950 . S
H5045 C5074 0.950 . S
H5046 C5076 0.950 . S
H5047 C5077 0.950 . S
C5048 H5030 0.951 . S
C5048 C5049 1.366 . S
C5048 C5050 1.388 . S
C5049 C5048 1.366 . S
C5049 C5053 1.385 . S
C5050 H5031 0.951 . S
C5050 C5048 1.388 . S
C5050 C5051 1.366 . S
C5051 C5050 1.366 . S
C5051 C5052 1.414 . S
C5051 C5054 1.499 . S
C5052 H5032 0.950 1_554 S
C5052 C5051 1.414 . S
C5052 C5053 1.374 . S
C5053 H5033 0.950 1_554 S
C5053 C5049 1.385 . S
C5053 C5052 1.374 . S
C5054 C5051 1.499 . S
C5054 C5055 1.373 . S
C5054 C5056 1.389 1_565 S
C5055 H5034 0.950 . S
C5055 C5054 1.373 . S
C5055 C5071 1.377 . S
C5056 C5054 1.389 1_545 S
C5056 C5057 1.524 . S
C5056 C5070 1.377 . S
C5057 C5056 1.524 . S
C5057 C5058 1.397 . S
C5057 C5062 1.363 . S
C5058 H5035 0.950 . S
C5058 C5057 1.397 . S
C5058 C5059 1.334 . S
C5059 H5036 0.950 . S
C5059 C5058 1.334 . S
C5059 C5060 1.287 . S
C5060 C5059 1.287 . S
C5060 C5061 1.524 . S
C5060 H5079 0.913 . S
C5061 H5037 0.950 . S
C5061 C5060 1.524 . S
C5061 C5062 1.415 . S
C5062 H5038 0.950 . S
C5062 C5057 1.363 . S
C5062 C5061 1.415 . S
C5063 H5039 0.951 1_554 S
C5063 C5064 1.366 . S
C5063 C5065 1.388 . S
C5064 C5063 1.366 . S
C5064 C5068 1.385 . S
C5065 H5040 0.951 1_544 S
C5065 C5063 1.388 . S
C5065 C5066 1.366 . S
C5066 C5065 1.366 . S
C5066 C5067 1.414 . S
C5066 C5069 1.499 1_545 S
C5067 H5041 0.950 . S
C5067 C5066 1.414 . S
C5067 C5068 1.374 . S
C5068 H5042 0.950 . S
C5068 C5064 1.385 . S
C5068 C5067 1.374 . S
C5069 C5066 1.499 1_565 S
C5069 C5070 1.373 1_565 S
C5069 C5071 1.389 . S
C5070 H5043 0.950 . S
C5070 C5056 1.377 . S
C5070 C5069 1.373 1_545 S
C5071 C5055 1.377 . S
C5071 C5069 1.389 . S
C5071 C5072 1.524 . S
C5072 C5071 1.524 . S
C5072 C5073 1.397 . S
C5072 C5077 1.363 1_554 S
C5073 H5044 0.950 . S
C5073 C5072 1.397 . S
C5073 C5074 1.334 . S
C5074 H5045 0.950 . S
C5074 C5073 1.334 . S
C5074 C5075 1.287 1_554 S
C5075 C5074 1.287 1_556 S
C5075 C5076 1.524 . S
C5075 H5078 0.999 . S
C5076 H5046 0.950 . S
C5076 C5075 1.524 . S
C5076 C5077 1.415 . S
C5077 H5047 0.950 . S
C5077 C5072 1.363 1_556 S
C5077 C5076 1.415 . S
H5078 C5075 0.999 . S
H5079 C5060 0.913 . S
H5080 C5098 0.951 . S
H5081 C5100 0.951 . S
H5082 C5102 0.950 . S
H5083 C5103 0.950 . S
H5084 C5105 0.950 . S
H5085 C5108 0.950 . S
H5086 C5109 0.950 . S
H5087 C5111 0.950 . S
H5088 C5112 0.950 . S
H5089 C5113 0.951 . S
H5090 C5115 0.951 . S
H5091 C5117 0.950 . S
H5092 C5118 0.950 . S
H5093 C5120 0.950 . S
H5094 C5123 0.950 . S
H5095 C5124 0.950 . S
H5096 C5126 0.950 . S
H5097 C5127 0.950 . S
C5098 H5080 0.951 . S
C5098 C5099 1.366 . S
C5098 C5100 1.388 . S
C5099 C5098 1.366 . S
C5099 C5103 1.385 . S
C5100 H5081 0.951 . S
C5100 C5098 1.388 . S
C5100 C5101 1.366 . S
C5101 C5100 1.366 . S
C5101 C5102 1.414 . S
C5101 C5104 1.499 . S
C5102 H5082 0.950 . S
C5102 C5101 1.414 . S
C5102 C5103 1.374 . S
C5103 H5083 0.950 . S
C5103 C5099 1.385 . S
C5103 C5102 1.374 . S
C5104 C5101 1.499 . S
C5104 C5105 1.373 . S
C5104 C5106 1.389 . S
C5105 H5084 0.950 . S
C5105 C5104 1.373 . S
C5105 C5121 1.377 . S
C5106 C5104 1.389 . S
C5106 C5107 1.524 . S
C5106 C5120 1.377 . S
C5107 C5106 1.524 . S
C5107 C5108 1.397 . S
C5107 C5112 1.363 . S
C5108 H5085 0.950 . S
C5108 C5107 1.397 . S
C5108 C5109 1.334 . S
C5109 H5086 0.950 . S
C5109 C5108 1.334 . S
C5109 C5110 1.287 . S
C5110 C5109 1.287 . S
C5110 C5111 1.524 . S
C5110 H5129 0.913 . S
C5111 H5087 0.950 . S
C5111 C5110 1.524 . S
C5111 C5112 1.415 . S
C5112 H5088 0.950 . S
C5112 C5107 1.363 . S
C5112 C5111 1.415 . S
C5113 H5089 0.951 . S
C5113 C5114 1.366 . S
C5113 C5115 1.388 . S
C5114 C5113 1.366 . S
C5114 C5118 1.385 . S
C5115 H5090 0.951 . S
C5115 C5113 1.388 . S
C5115 C5116 1.366 . S
C5116 C5115 1.366 . S
C5116 C5117 1.414 . S
C5116 C5119 1.499 . S
C5117 H5091 0.950 . S
C5117 C5116 1.414 . S
C5117 C5118 1.374 . S
C5118 H5092 0.950 . S
C5118 C5114 1.385 . S
C5118 C5117 1.374 . S
C5119 C5116 1.499 . S
C5119 C5120 1.373 . S
C5119 C5121 1.389 . S
C5120 H5093 0.950 . S
C5120 C5106 1.377 . S
C5120 C5119 1.373 . S
C5121 C5105 1.377 . S
C5121 C5119 1.389 . S
C5121 C5122 1.524 . S
C5122 C5121 1.524 . S
C5122 C5123 1.397 . S
C5122 C5127 1.363 . S
C5123 H5094 0.950 . S
C5123 C5122 1.397 . S
C5123 C5124 1.334 . S
C5124 H5095 0.950 . S
C5124 C5123 1.334 . S
C5124 C5125 1.287 . S
C5125 C5124 1.287 . S
C5125 C5126 1.524 . S
C5125 H5128 0.999 . S
C5126 H5096 0.950 . S
C5126 C5125 1.524 . S
C5126 C5127 1.415 . S
C5127 H5097 0.950 . S
C5127 C5122 1.363 . S
C5127 C5126 1.415 . S
H5128 C5125 0.999 . S
H5129 C5110 0.913 . S
H5130 C5148 0.951 . S
H5131 C5150 0.951 . S
H5132 C5152 0.950 . S
H5133 C5153 0.950 . S
H5134 C5155 0.950 1_556 S
H5135 C5158 0.950 . S
H5136 C5159 0.950 . S
H5137 C5161 0.950 . S
H5138 C5162 0.950 . S
H5139 C5163 0.951 . S
H5140 C5165 0.951 . S
H5141 C5167 0.950 . S
H5142 C5168 0.950 . S
H5143 C5170 0.950 . S
H5144 C5173 0.950 . S
H5145 C5174 0.950 . S
H5146 C5176 0.950 . S
H5147 C5177 0.950 . S
C5148 H5130 0.951 . S
C5148 C5149 1.366 1_556 S
C5148 C5150 1.387 1_556 S
C5149 C5148 1.366 1_554 S
C5149 C5153 1.385 . S
C5150 H5131 0.951 . S
C5150 C5148 1.387 1_554 S
C5150 C5151 1.366 . S
C5151 C5150 1.366 . S
C5151 C5152 1.414 . S
C5151 C5154 1.499 . S
C5152 H5132 0.950 . S
C5152 C5151 1.414 . S
C5152 C5153 1.374 . S
C5153 H5133 0.950 . S
C5153 C5149 1.385 . S
C5153 C5152 1.374 . S
C5154 C5151 1.499 . S
C5154 C5155 1.373 . S
C5154 C5156 1.389 . S
C5155 H5134 0.950 1_554 S
C5155 C5154 1.373 . S
C5155 C5171 1.377 . S
C5156 C5154 1.389 . S
C5156 C5157 1.524 . S
C5156 C5170 1.377 . S
C5157 C5156 1.524 . S
C5157 C5158 1.397 . S
C5157 C5162 1.363 . S
C5158 H5135 0.950 . S
C5158 C5157 1.397 . S
C5158 C5159 1.334 . S
C5159 H5136 0.950 . S
C5159 C5158 1.334 . S
C5159 C5160 1.287 . S
C5160 C5159 1.287 . S
C5160 C5161 1.524 . S
C5160 H5179 0.913 . S
C5161 H5137 0.950 . S
C5161 C5160 1.524 . S
C5161 C5162 1.415 . S
C5162 H5138 0.950 . S
C5162 C5157 1.363 . S
C5162 C5161 1.415 . S
C5163 H5139 0.951 . S
C5163 C5164 1.366 . S
C5163 C5165 1.388 . S
C5164 C5163 1.366 . S
C5164 C5168 1.385 . S
C5165 H5140 0.951 . S
C5165 C5163 1.388 . S
C5165 C5166 1.366 . S
C5166 C5165 1.366 . S
C5166 C5167 1.414 . S
C5166 C5169 1.499 . S
C5167 H5141 0.950 . S
C5167 C5166 1.414 . S
C5167 C5168 1.374 . S
C5168 H5142 0.950 . S
C5168 C5164 1.385 . S
C5168 C5167 1.374 . S
C5169 C5166 1.499 . S
C5169 C5170 1.373 . S
C5169 C5171 1.389 . S
C5170 H5143 0.950 . S
C5170 C5156 1.377 . S
C5170 C5169 1.373 . S
C5171 C5155 1.377 . S
C5171 C5169 1.389 . S
C5171 C5172 1.524 1_554 S
C5172 C5171 1.524 1_556 S
C5172 C5173 1.397 . S
C5172 C5177 1.363 . S
C5173 H5144 0.950 . S
C5173 C5172 1.397 . S
C5173 C5174 1.334 . S
C5174 H5145 0.950 . S
C5174 C5173 1.334 . S
C5174 C5175 1.287 . S
C5175 C5174 1.287 . S
C5175 C5176 1.524 . S
C5175 H5178 0.999 . S
C5176 H5146 0.950 . S
C5176 C5175 1.524 . S
C5176 C5177 1.415 . S
C5177 H5147 0.950 . S
C5177 C5172 1.363 . S
C5177 C5176 1.415 . S
H5178 C5175 0.999 . S
H5179 C5160 0.913 . S
H5180 C5198 0.951 . S
H5181 C5200 0.951 . S
H5182 C5202 0.950 . S
H5183 C5203 0.950 . S
H5184 C5205 0.950 . S
H5185 C5208 0.950 . S
H5186 C5209 0.950 . S
H5187 C5211 0.950 . S
H5188 C5212 0.950 . S
H5189 C5213 0.951 . S
H5190 C5215 0.951 . S
H5191 C5217 0.950 . S
H5192 C5218 0.950 . S
H5193 C5220 0.950 . S
H5194 C5223 0.950 . S
H5195 C5224 0.950 . S
H5196 C5226 0.950 . S
H5197 C5227 0.950 . S
C5198 H5180 0.951 . S
C5198 C5199 1.366 . S
C5198 C5200 1.388 . S
C5199 C5198 1.366 . S
C5199 C5203 1.385 . S
C5200 H5181 0.951 . S
C5200 C5198 1.388 . S
C5200 C5201 1.366 . S
C5201 C5200 1.366 . S
C5201 C5202 1.414 . S
C5201 C5204 1.499 . S
C5202 H5182 0.950 . S
C5202 C5201 1.414 . S
C5202 C5203 1.374 . S
C5203 H5183 0.950 . S
C5203 C5199 1.385 . S
C5203 C5202 1.374 . S
C5204 C5201 1.499 . S
C5204 C5205 1.373 . S
C5204 C5206 1.389 . S
C5205 H5184 0.950 . S
C5205 C5204 1.373 . S
C5205 C5221 1.377 . S
C5206 C5204 1.389 . S
C5206 C5207 1.524 . S
C5206 C5220 1.377 . S
C5207 C5206 1.524 . S
C5207 C5208 1.397 . S
C5207 C5212 1.363 . S
C5208 H5185 0.950 . S
C5208 C5207 1.397 . S
C5208 C5209 1.334 . S
C5209 H5186 0.950 . S
C5209 C5208 1.334 . S
C5209 C5210 1.287 . S
C5210 C5209 1.287 . S
C5210 C5211 1.524 . S
C5210 H5229 0.913 . S
C5211 H5187 0.950 . S
C5211 C5210 1.524 . S
C5211 C5212 1.415 . S
C5212 H5188 0.950 . S
C5212 C5207 1.363 . S
C5212 C5211 1.415 . S
C5213 H5189 0.951 . S
C5213 C5214 1.366 . S
C5213 C5215 1.388 . S
C5214 C5213 1.366 . S
C5214 C5218 1.385 . S
C5215 H5190 0.951 . S
C5215 C5213 1.388 . S
C5215 C5216 1.366 . S
C5216 C5215 1.366 . S
C5216 C5217 1.414 . S
C5216 C5219 1.499 . S
C5217 H5191 0.950 . S
C5217 C5216 1.414 . S
C5217 C5218 1.374 . S
C5218 H5192 0.950 . S
C5218 C5214 1.385 . S
C5218 C5217 1.374 . S
C5219 C5216 1.499 . S
C5219 C5220 1.373 . S
C5219 C5221 1.389 . S
C5220 H5193 0.950 . S
C5220 C5206 1.377 . S
C5220 C5219 1.373 . S
C5221 C5205 1.377 . S
C5221 C5219 1.389 . S
C5221 C5222 1.524 . S
C5222 C5221 1.524 . S
C5222 C5223 1.397 . S
C5222 C5227 1.363 . S
C5223 H5194 0.950 . S
C5223 C5222 1.397 . S
C5223 C5224 1.334 . S
C5224 H5195 0.950 . S
C5224 C5223 1.334 . S
C5224 C5225 1.287 . S
C5225 C5224 1.287 . S
C5225 C5226 1.524 . S
C5225 H5228 0.999 . S
C5226 H5196 0.950 . S
C5226 C5225 1.524 . S
C5226 C5227 1.415 . S
C5227 H5197 0.950 . S
C5227 C5222 1.363 . S
C5227 C5226 1.415 . S
H5228 C5225 0.999 . S
H5229 C5210 0.913 . S
H5230 C5248 0.951 . S
H5231 C5250 0.951 . S
H5232 C5252 0.950 . S
H5233 C5253 0.910 1_545 S
H5234 C5255 0.950 . S
H5235 C5258 0.950 . S
H5236 C5259 0.950 . S
H5237 C5261 0.950 . S
H5238 C5262 0.950 . S
H5239 C5263 0.951 . S
H5240 C5265 0.951 . S
H5241 C5267 0.950 . S
H5242 C5268 0.950 . S
H5243 C5270 0.950 . S
H5244 C5273 0.950 . S
H5245 C5274 0.950 . S
H5246 C5276 0.950 . S
H5247 C5277 0.950 . S
C5248 H5230 0.951 . S
C5248 C5249 1.366 . S
C5248 C5250 1.388 . S
C5249 C5248 1.366 . S
C5249 C5253 1.385 . S
C5250 H5231 0.951 . S
C5250 C5248 1.388 . S
C5250 C5251 1.366 . S
C5251 C5250 1.366 . S
C5251 C5252 1.414 . S
C5251 C5254 1.499 . S
C5252 H5232 0.950 . S
C5252 C5251 1.414 . S
C5252 C5253 1.374 . S
C5253 H5233 0.910 1_565 S
C5253 C5249 1.385 . S
C5253 C5252 1.374 . S
C5254 C5251 1.499 . S
C5254 C5255 1.373 . S
C5254 C5256 1.389 . S
C5255 H5234 0.950 . S
C5255 C5254 1.373 . S
C5255 C5271 1.377 . S
C5256 C5254 1.389 . S
C5256 C5257 1.524 . S
C5256 C5270 1.377 . S
C5257 C5256 1.524 . S
C5257 C5258 1.397 . S
C5257 C5262 1.363 . S
C5258 H5235 0.950 . S
C5258 C5257 1.397 . S
C5258 C5259 1.334 . S
C5259 H5236 0.950 . S
C5259 C5258 1.334 . S
C5259 C5260 1.287 . S
C5260 C5259 1.287 . S
C5260 C5261 1.524 . S
C5260 H5279 0.913 . S
C5261 H5237 0.950 . S
C5261 C5260 1.524 . S
C5261 C5262 1.415 . S
C5262 H5238 0.950 . S
C5262 C5257 1.363 . S
C5262 C5261 1.415 . S
C5263 H5239 0.951 . S
C5263 C5264 1.366 . S
C5263 C5265 1.388 . S
C5264 C5263 1.366 . S
C5264 C5268 1.385 . S
C5265 H5240 0.951 . S
C5265 C5263 1.388 . S
C5265 C5266 1.366 . S
C5266 C5265 1.366 . S
C5266 C5267 1.414 . S
C5266 C5269 1.499 . S
C5267 H5241 0.950 . S
C5267 C5266 1.414 . S
C5267 C5268 1.374 . S
C5268 H5242 0.950 . S
C5268 C5264 1.385 . S
C5268 C5267 1.374 . S
C5269 C5266 1.499 . S
C5269 C5270 1.373 . S
C5269 C5271 1.389 . S
C5270 H5243 0.950 . S
C5270 C5256 1.377 . S
C5270 C5269 1.373 . S
C5271 C5255 1.377 . S
C5271 C5269 1.389 . S
C5271 C5272 1.524 . S
C5272 C5271 1.524 . S
C5272 C5273 1.397 . S
C5272 C5277 1.363 . S
C5273 H5244 0.950 . S
C5273 C5272 1.397 . S
C5273 C5274 1.334 . S
C5274 H5245 0.950 . S
C5274 C5273 1.334 . S
C5274 C5275 1.287 . S
C5275 C5274 1.287 . S
C5275 C5276 1.524 . S
C5275 H5278 0.999 . S
C5276 H5246 0.950 . S
C5276 C5275 1.524 . S
C5276 C5277 1.415 . S
C5277 H5247 0.950 . S
C5277 C5272 1.363 . S
C5277 C5276 1.415 . S
H5278 C5275 0.999 . S
H5279 C5260 0.913 . S
H5280 C5298 0.951 . S
H5281 C5300 0.951 . S
H5282 C5302 0.950 . S
H5283 C5303 0.950 . S
H5284 C5305 0.950 . S
H5285 C5308 0.950 . S
H5286 C5309 0.950 . S
H5287 C5311 0.950 . S
H5288 C5312 0.950 . S
H5289 C5313 0.951 . S
H5290 C5315 0.951 . S
H5291 C5317 0.950 . S
H5292 C5318 0.950 . S
H5293 C5320 0.950 . S
H5294 C5323 0.950 . S
H5295 C5324 0.950 . S
H5296 C5326 0.950 . S
H5297 C5327 0.950 . S
C5298 H5280 0.951 . S
C5298 C5299 1.366 . S
C5298 C5300 1.388 . S
C5299 C5298 1.366 . S
C5299 C5303 1.385 . S
C5300 H5281 0.951 . S
C5300 C5298 1.388 . S
C5300 C5301 1.366 . S
C5301 C5300 1.366 . S
C5301 C5302 1.414 . S
C5301 C5304 1.499 . S
C5302 H5282 0.950 . S
C5302 C5301 1.414 . S
C5302 C5303 1.374 . S
C5303 H5283 0.950 . S
C5303 C5299 1.385 . S
C5303 C5302 1.374 . S
C5304 C5301 1.499 . S
C5304 C5305 1.373 . S
C5304 C5306 1.389 . S
C5305 H5284 0.950 . S
C5305 C5304 1.373 . S
C5305 C5321 1.377 . S
C5306 C5304 1.389 . S
C5306 C5307 1.524 . S
C5306 C5320 1.377 . S
C5307 C5306 1.524 . S
C5307 C5308 1.397 . S
C5307 C5312 1.363 . S
C5308 H5285 0.950 . S
C5308 C5307 1.397 . S
C5308 C5309 1.334 . S
C5309 H5286 0.950 . S
C5309 C5308 1.334 . S
C5309 C5310 1.287 . S
C5310 C5309 1.287 . S
C5310 C5311 1.524 . S
C5310 H5329 0.913 . S
C5311 H5287 0.950 . S
C5311 C5310 1.524 . S
C5311 C5312 1.415 . S
C5312 H5288 0.950 . S
C5312 C5307 1.363 . S
C5312 C5311 1.415 . S
C5313 H5289 0.951 . S
C5313 C5314 1.366 . S
C5313 C5315 1.388 . S
C5314 C5313 1.366 . S
C5314 C5318 1.385 . S
C5315 H5290 0.951 . S
C5315 C5313 1.388 . S
C5315 C5316 1.366 . S
C5316 C5315 1.366 . S
C5316 C5317 1.414 . S
C5316 C5319 1.499 . S
C5317 H5291 0.950 . S
C5317 C5316 1.414 . S
C5317 C5318 1.374 . S
C5318 H5292 0.950 . S
C5318 C5314 1.385 . S
C5318 C5317 1.374 . S
C5319 C5316 1.499 . S
C5319 C5320 1.373 . S
C5319 C5321 1.389 . S
C5320 H5293 0.950 . S
C5320 C5306 1.377 . S
C5320 C5319 1.373 . S
C5321 C5305 1.377 . S
C5321 C5319 1.389 . S
C5321 C5322 1.524 . S
C5322 C5321 1.524 . S
C5322 C5323 1.397 . S
C5322 C5327 1.363 . S
C5323 H5294 0.950 . S
C5323 C5322 1.397 . S
C5323 C5324 1.334 . S
C5324 H5295 0.950 . S
C5324 C5323 1.334 . S
C5324 C5325 1.287 . S
C5325 C5324 1.287 . S
C5325 C5326 1.524 . S
C5325 H5328 0.999 . S
C5326 H5296 0.950 . S
C5326 C5325 1.524 . S
C5326 C5327 1.415 . S
C5327 H5297 0.950 . S
C5327 C5322 1.363 . S
C5327 C5326 1.415 . S
H5328 C5325 0.999 . S
H5329 C5310 0.913 . S
H5330 C5348 0.951 . S
H5331 C5350 0.951 . S
H5332 C5352 0.950 . S
H5333 C5353 0.950 . S
H5334 C5355 0.950 . S
H5335 C5358 0.950 . S
H5336 C5359 0.950 . S
H5337 C5361 0.950 . S
H5338 C5362 0.950 . S
H5339 C5363 0.951 . S
H5340 C5365 0.951 . S
H5341 C5367 0.950 . S
H5342 C5368 0.950 . S
H5343 C5370 0.950 . S
H5344 C5373 0.950 . S
H5345 C5374 0.950 . S
H5346 C5376 0.950 . S
H5347 C5377 0.950 . S
C5348 H5330 0.951 . S
C5348 C5349 1.366 . S
C5348 C5350 1.388 . S
C5349 C5348 1.366 . S
C5349 C5353 1.385 . S
C5350 H5331 0.951 . S
C5350 C5348 1.388 . S
C5350 C5351 1.366 . S
C5351 C5350 1.366 . S
C5351 C5352 1.414 . S
C5351 C5354 1.499 . S
C5352 H5332 0.950 . S
C5352 C5351 1.414 . S
C5352 C5353 1.374 . S
C5353 H5333 0.950 . S
C5353 C5349 1.385 . S
C5353 C5352 1.374 . S
C5354 C5351 1.499 . S
C5354 C5355 1.373 . S
C5354 C5356 1.389 . S
C5355 H5334 0.950 . S
C5355 C5354 1.373 . S
C5355 C5371 1.377 . S
C5356 C5354 1.389 . S
C5356 C5357 1.524 . S
C5356 C5370 1.377 . S
C5357 C5356 1.524 . S
C5357 C5358 1.397 . S
C5357 C5362 1.363 . S
C5358 H5335 0.950 . S
C5358 C5357 1.397 . S
C5358 C5359 1.334 . S
C5359 H5336 0.950 . S
C5359 C5358 1.334 . S
C5359 C5360 1.287 . S
C5360 C5359 1.287 . S
C5360 C5361 1.524 . S
C5360 H5379 0.913 . S
C5361 H5337 0.950 . S
C5361 C5360 1.524 . S
C5361 C5362 1.415 . S
C5362 H5338 0.950 . S
C5362 C5357 1.363 . S
C5362 C5361 1.415 . S
C5363 H5339 0.951 . S
C5363 C5364 1.366 . S
C5363 C5365 1.388 . S
C5364 C5363 1.366 . S
C5364 C5368 1.385 . S
C5365 H5340 0.951 . S
C5365 C5363 1.388 . S
C5365 C5366 1.366 . S
C5366 C5365 1.366 . S
C5366 C5367 1.414 . S
C5366 C5369 1.499 . S
C5367 H5341 0.950 . S
C5367 C5366 1.414 . S
C5367 C5368 1.374 . S
C5368 H5342 0.950 . S
C5368 C5364 1.385 . S
C5368 C5367 1.374 . S
C5369 C5366 1.499 . S
C5369 C5370 1.373 . S
C5369 C5371 1.389 . S
C5370 H5343 0.950 . S
C5370 C5356 1.377 . S
C5370 C5369 1.373 . S
C5371 C5355 1.377 . S
C5371 C5369 1.389 . S
C5371 C5372 1.524 . S
C5372 C5371 1.524 . S
C5372 C5373 1.397 . S
C5372 C5377 1.363 . S
C5373 H5344 0.950 . S
C5373 C5372 1.397 . S
C5373 C5374 1.334 . S
C5374 H5345 0.950 . S
C5374 C5373 1.334 . S
C5374 C5375 1.287 . S
C5375 C5374 1.287 . S
C5375 C5376 1.524 . S
C5375 H5378 0.999 . S
C5376 H5346 0.950 . S
C5376 C5375 1.524 . S
C5376 C5377 1.415 . S
C5377 H5347 0.950 . S
C5377 C5372 1.363 . S
C5377 C5376 1.415 . S
H5378 C5375 0.999 . S
H5379 C5360 0.913 . S
H5380 C5398 0.951 . S
H5381 C5400 0.951 . S
H5382 C5402 0.950 . S
H5383 C5403 0.950 . S
H5384 C5405 0.950 . S
H5385 C5408 0.950 . S
H5386 C5409 0.950 . S
H5387 C5411 0.950 1_556 S
H5388 C5412 0.950 . S
H5389 C5413 0.951 . S
H5390 C5415 0.951 . S
H5391 C5417 0.950 . S
H5392 C5418 0.922 1_556 S
H5393 C5420 0.950 . S
H5394 C5423 0.950 . S
H5395 C5424 0.950 . S
H5396 C5426 0.950 . S
H5397 C5427 0.950 . S
C5398 H5380 0.951 . S
C5398 C5399 1.366 . S
C5398 C5400 1.388 . S
C5399 C5398 1.366 . S
C5399 C5403 1.385 . S
C5400 H5381 0.951 . S
C5400 C5398 1.388 . S
C5400 C5401 1.366 . S
C5401 C5400 1.366 . S
C5401 C5402 1.414 . S
C5401 C5404 1.499 . S
C5402 H5382 0.950 . S
C5402 C5401 1.414 . S
C5402 C5403 1.374 . S
C5403 H5383 0.950 . S
C5403 C5399 1.385 . S
C5403 C5402 1.374 . S
C5404 C5401 1.499 . S
C5404 C5405 1.373 . S
C5404 C5406 1.389 . S
C5405 H5384 0.950 . S
C5405 C5404 1.373 . S
C5405 C5421 1.377 . S
C5406 C5404 1.389 . S
C5406 C5407 1.524 . S
C5406 C5420 1.377 . S
C5407 C5406 1.524 . S
C5407 C5408 1.397 . S
C5407 C5412 1.363 . S
C5408 H5385 0.950 . S
C5408 C5407 1.397 . S
C5408 C5409 1.334 . S
C5409 H5386 0.950 . S
C5409 C5408 1.334 . S
C5409 C5410 1.287 . S
C5410 C5409 1.287 . S
C5410 C5411 1.524 . S
C5410 H5429 0.953 . S
C5411 H5387 0.950 1_554 S
C5411 C5410 1.524 . S
C5411 C5412 1.415 . S
C5412 H5388 0.950 . S
C5412 C5407 1.363 . S
C5412 C5411 1.415 . S
C5413 H5389 0.951 . S
C5413 C5414 1.366 . S
C5413 C5415 1.388 . S
C5414 C5413 1.366 . S
C5414 C5418 1.385 . S
C5415 H5390 0.951 . S
C5415 C5413 1.388 . S
C5415 C5416 1.366 . S
C5416 C5415 1.366 . S
C5416 C5417 1.414 . S
C5416 C5419 1.499 . S
C5417 H5391 0.950 . S
C5417 C5416 1.414 . S
C5417 C5418 1.374 . S
C5418 H5392 0.922 1_554 S
C5418 C5414 1.385 . S
C5418 C5417 1.374 . S
C5419 C5416 1.499 . S
C5419 C5420 1.373 . S
C5419 C5421 1.389 . S
C5420 H5393 0.950 . S
C5420 C5406 1.377 . S
C5420 C5419 1.373 . S
C5421 C5405 1.377 . S
C5421 C5419 1.389 . S
C5421 C5422 1.524 . S
C5422 C5421 1.524 . S
C5422 C5423 1.397 . S
C5422 C5427 1.363 . S
C5423 H5394 0.950 . S
C5423 C5422 1.397 . S
C5423 C5424 1.334 . S
C5424 H5395 0.950 . S
C5424 C5423 1.334 . S
C5424 C5425 1.287 . S
C5425 C5424 1.287 . S
C5425 C5426 1.524 . S
C5425 H5428 0.999 . S
C5426 H5396 0.950 . S
C5426 C5425 1.524 . S
C5426 C5427 1.415 . S
C5427 H5397 0.950 . S
C5427 C5422 1.363 . S
C5427 C5426 1.415 . S
H5428 C5425 0.999 . S
H5429 C5410 0.953 . S
H5430 C5448 0.951 . S
H5431 C5450 0.951 . S
H5432 C5452 0.950 . S
H5433 C5453 0.950 . S
H5434 C5455 0.950 . S
H5435 C5458 0.950 . S
H5436 C5459 0.950 . S
H5437 C5461 0.950 . S
H5438 C5462 0.950 . S
H5439 C5463 0.951 . S
H5440 C5465 0.951 . S
H5441 C5467 0.950 . S
H5442 C5468 0.950 . S
H5443 C5470 0.950 . S
H5444 C5473 0.950 . S
H5445 C5474 0.950 . S
H5446 C5476 0.950 . S
H5447 C5477 0.950 . S
C5448 H5430 0.951 . S
C5448 C5449 1.366 . S
C5448 C5450 1.388 . S
C5449 C5448 1.366 . S
C5449 C5453 1.385 . S
C5450 H5431 0.951 . S
C5450 C5448 1.388 . S
C5450 C5451 1.366 . S
C5451 C5450 1.366 . S
C5451 C5452 1.414 . S
C5451 C5454 1.499 . S
C5452 H5432 0.950 . S
C5452 C5451 1.414 . S
C5452 C5453 1.374 . S
C5453 H5433 0.950 . S
C5453 C5449 1.385 . S
C5453 C5452 1.374 . S
C5454 C5451 1.499 . S
C5454 C5455 1.373 . S
C5454 C5456 1.389 . S
C5455 H5434 0.950 . S
C5455 C5454 1.373 . S
C5455 C5471 1.377 . S
C5456 C5454 1.389 . S
C5456 C5457 1.524 . S
C5456 C5470 1.377 . S
C5457 C5456 1.524 . S
C5457 C5458 1.397 . S
C5457 C5462 1.363 . S
C5458 H5435 0.950 . S
C5458 C5457 1.397 . S
C5458 C5459 1.334 . S
C5459 H5436 0.950 . S
C5459 C5458 1.334 . S
C5459 C5460 1.287 . S
C5460 C5459 1.287 . S
C5460 C5461 1.524 . S
C5460 H5479 0.913 . S
C5461 H5437 0.950 . S
C5461 C5460 1.524 . S
C5461 C5462 1.415 . S
C5462 H5438 0.950 . S
C5462 C5457 1.363 . S
C5462 C5461 1.415 . S
C5463 H5439 0.951 . S
C5463 C5464 1.366 . S
C5463 C5465 1.388 . S
C5464 C5463 1.366 . S
C5464 C5468 1.385 . S
C5465 H5440 0.951 . S
C5465 C5463 1.388 . S
C5465 C5466 1.366 . S
C5466 C5465 1.366 . S
C5466 C5467 1.414 . S
C5466 C5469 1.499 . S
C5467 H5441 0.950 . S
C5467 C5466 1.414 . S
C5467 C5468 1.374 . S
C5468 H5442 0.950 . S
C5468 C5464 1.385 . S
C5468 C5467 1.374 . S
C5469 C5466 1.499 . S
C5469 C5470 1.373 . S
C5469 C5471 1.389 . S
C5470 H5443 0.950 . S
C5470 C5456 1.377 . S
C5470 C5469 1.373 . S
C5471 C5455 1.377 . S
C5471 C5469 1.389 . S
C5471 C5472 1.524 . S
C5472 C5471 1.524 . S
C5472 C5473 1.397 . S
C5472 C5477 1.363 . S
C5473 H5444 0.950 . S
C5473 C5472 1.397 . S
C5473 C5474 1.334 . S
C5474 H5445 0.950 . S
C5474 C5473 1.334 . S
C5474 C5475 1.287 . S
C5475 C5474 1.287 . S
C5475 C5476 1.524 . S
C5475 H5478 0.999 . S
C5476 H5446 0.950 . S
C5476 C5475 1.524 . S
C5476 C5477 1.415 . S
C5477 H5447 0.950 . S
C5477 C5472 1.363 . S
C5477 C5476 1.415 . S
H5478 C5475 0.999 . S
H5479 C5460 0.913 . S
H5480 C5498 0.951 . S
H5481 C5500 0.951 . S
H5482 C5502 0.950 . S
H5483 C5503 0.950 . S
H5484 C5505 0.950 . S
H5485 C5508 0.950 . S
H5486 C5509 0.950 . S
H5487 C5511 0.950 . S
H5488 C5512 0.950 . S
H5489 C5513 0.951 . S
H5490 C5515 0.951 . S
H5491 C5517 0.950 . S
H5492 C5518 0.950 1_554 S
H5493 C5520 0.950 . S
H5494 C5523 0.950 . S
H5495 C5524 0.950 . S
H5496 C5526 0.950 . S
H5497 C5527 0.950 . S
C5498 H5480 0.951 . S
C5498 C5499 1.366 . S
C5498 C5500 1.388 . S
C5499 C5498 1.366 . S
C5499 C5503 1.385 . S
C5500 H5481 0.951 . S
C5500 C5498 1.388 . S
C5500 C5501 1.366 . S
C5501 C5500 1.366 . S
C5501 C5502 1.414 . S
C5501 C5504 1.499 . S
C5502 H5482 0.950 . S
C5502 C5501 1.414 . S
C5502 C5503 1.374 . S
C5503 H5483 0.950 . S
C5503 C5499 1.385 . S
C5503 C5502 1.374 . S
C5504 C5501 1.499 . S
C5504 C5505 1.373 . S
C5504 C5506 1.389 . S
C5505 H5484 0.950 . S
C5505 C5504 1.373 . S
C5505 C5521 1.377 . S
C5506 C5504 1.389 . S
C5506 C5507 1.524 . S
C5506 C5520 1.377 . S
C5507 C5506 1.524 . S
C5507 C5508 1.397 . S
C5507 C5512 1.363 . S
C5508 H5485 0.950 . S
C5508 C5507 1.397 . S
C5508 C5509 1.334 . S
C5509 H5486 0.950 . S
C5509 C5508 1.334 . S
C5509 C5510 1.294 . S
C5510 C5509 1.294 . S
C5510 C5511 1.521 1_556 S
C5510 H5529 0.909 1_556 S
C5511 H5487 0.950 . S
C5511 C5510 1.521 1_554 S
C5511 C5512 1.415 1_554 S
C5512 H5488 0.950 . S
C5512 C5507 1.363 . S
C5512 C5511 1.415 1_556 S
C5513 H5489 0.951 . S
C5513 C5514 1.366 . S
C5513 C5515 1.388 . S
C5514 C5513 1.366 . S
C5514 C5518 1.385 . S
C5515 H5490 0.951 . S
C5515 C5513 1.388 . S
C5515 C5516 1.366 . S
C5516 C5515 1.366 . S
C5516 C5517 1.414 . S
C5516 C5519 1.499 . S
C5517 H5491 0.950 . S
C5517 C5516 1.414 . S
C5517 C5518 1.374 . S
C5518 H5492 0.950 1_556 S
C5518 C5514 1.385 . S
C5518 C5517 1.374 . S
C5519 C5516 1.499 . S
C5519 C5520 1.373 . S
C5519 C5521 1.389 . S
C5520 H5493 0.950 . S
C5520 C5506 1.377 . S
C5520 C5519 1.373 . S
C5521 C5505 1.377 . S
C5521 C5519 1.389 . S
C5521 C5522 1.524 . S
C5522 C5521 1.524 . S
C5522 C5523 1.397 . S
C5522 C5527 1.363 . S
C5523 H5494 0.950 . S
C5523 C5522 1.397 . S
C5523 C5524 1.334 . S
C5524 H5495 0.950 . S
C5524 C5523 1.334 . S
C5524 C5525 1.287 . S
C5525 C5524 1.287 . S
C5525 C5526 1.524 . S
C5525 H5528 0.999 . S
C5526 H5496 0.950 . S
C5526 C5525 1.524 . S
C5526 C5527 1.415 . S
C5527 H5497 0.950 . S
C5527 C5522 1.363 . S
C5527 C5526 1.415 . S
H5528 C5525 0.999 . S
H5529 C5510 0.909 1_554 S
H5530 C5548 0.951 . S
H5531 C5550 0.951 . S
H5532 C5552 0.950 . S
H5533 C5553 0.950 . S
H5534 C5555 0.950 . S
H5535 C5558 0.950 . S
H5536 C5559 0.950 . S
H5537 C5561 0.950 . S
H5538 C5562 0.950 . S
H5539 C5563 0.951 . S
H5540 C5565 0.951 . S
H5541 C5567 0.950 . S
H5542 C5568 0.950 . S
H5543 C5570 0.950 . S
H5544 C5573 0.950 . S
H5545 C5574 0.950 . S
H5546 C5576 0.950 . S
H5547 C5577 0.950 . S
C5548 H5530 0.951 . S
C5548 C5549 1.366 . S
C5548 C5550 1.388 . S
C5549 C5548 1.366 . S
C5549 C5553 1.385 . S
C5550 H5531 0.951 . S
C5550 C5548 1.388 . S
C5550 C5551 1.366 . S
C5551 C5550 1.366 . S
C5551 C5552 1.414 . S
C5551 C5554 1.499 . S
C5552 H5532 0.950 . S
C5552 C5551 1.414 . S
C5552 C5553 1.374 . S
C5553 H5533 0.950 . S
C5553 C5549 1.385 . S
C5553 C5552 1.374 . S
C5554 C5551 1.499 . S
C5554 C5555 1.373 . S
C5554 C5556 1.389 . S
C5555 H5534 0.950 . S
C5555 C5554 1.373 . S
C5555 C5571 1.377 . S
C5556 C5554 1.389 . S
C5556 C5557 1.524 . S
C5556 C5570 1.377 . S
C5557 C5556 1.524 . S
C5557 C5558 1.397 . S
C5557 C5562 1.363 . S
C5558 H5535 0.950 . S
C5558 C5557 1.397 . S
C5558 C5559 1.334 . S
C5559 H5536 0.950 . S
C5559 C5558 1.334 . S
C5559 C5560 1.287 . S
C5560 C5559 1.287 . S
C5560 C5561 1.524 . S
C5560 H5579 0.913 . S
C5561 H5537 0.950 . S
C5561 C5560 1.524 . S
C5561 C5562 1.415 . S
C5562 H5538 0.950 . S
C5562 C5557 1.363 . S
C5562 C5561 1.415 . S
C5563 H5539 0.951 . S
C5563 C5564 1.366 . S
C5563 C5565 1.388 . S
C5564 C5563 1.366 . S
C5564 C5568 1.385 . S
C5565 H5540 0.951 . S
C5565 C5563 1.388 . S
C5565 C5566 1.366 . S
C5566 C5565 1.366 . S
C5566 C5567 1.414 . S
C5566 C5569 1.499 . S
C5567 H5541 0.950 . S
C5567 C5566 1.414 . S
C5567 C5568 1.374 . S
C5568 H5542 0.950 . S
C5568 C5564 1.385 . S
C5568 C5567 1.374 . S
C5569 C5566 1.499 . S
C5569 C5570 1.373 . S
C5569 C5571 1.389 . S
C5570 H5543 0.950 . S
C5570 C5556 1.377 . S
C5570 C5569 1.373 . S
C5571 C5555 1.377 . S
C5571 C5569 1.389 . S
C5571 C5572 1.524 . S
C5572 C5571 1.524 . S
C5572 C5573 1.397 . S
C5572 C5577 1.363 . S
C5573 H5544 0.950 . S
C5573 C5572 1.397 . S
C5573 C5574 1.334 . S
C5574 H5545 0.950 . S
C5574 C5573 1.334 . S
C5574 C5575 1.287 . S
C5575 C5574 1.287 . S
C5575 C5576 1.524 . S
C5575 H5578 0.999 . S
C5576 H5546 0.950 . S
C5576 C5575 1.524 . S
C5576 C5577 1.415 . S
C5577 H5547 0.950 . S
C5577 C5572 1.363 . S
C5577 C5576 1.415 . S
H5578 C5575 0.999 . S
H5579 C5560 0.913 . S
H5580 C5598 0.951 . S
H5581 C5600 0.951 . S
H5582 C5602 0.950 . S
H5583 C5603 0.950 . S
H5584 C5605 0.950 . S
H5585 C5608 0.950 . S
H5586 C5609 0.950 . S
H5587 C5611 0.950 . S
H5588 C5612 0.950 . S
H5589 C5613 0.951 . S
H5590 C5615 0.951 . S
H5591 C5617 0.950 . S
H5592 C5618 0.950 . S
H5593 C5620 0.950 . S
H5594 C5623 0.950 . S
H5595 C5624 0.950 . S
H5596 C5626 0.950 . S
H5597 C5627 0.950 . S
C5598 H5580 0.951 . S
C5598 C5599 1.366 . S
C5598 C5600 1.388 . S
C5599 C5598 1.366 . S
C5599 C5603 1.385 . S
C5600 H5581 0.951 . S
C5600 C5598 1.388 . S
C5600 C5601 1.366 . S
C5601 C5600 1.366 . S
C5601 C5602 1.414 . S
C5601 C5604 1.499 . S
C5602 H5582 0.950 . S
C5602 C5601 1.414 . S
C5602 C5603 1.374 . S
C5603 H5583 0.950 . S
C5603 C5599 1.385 . S
C5603 C5602 1.374 . S
C5604 C5601 1.499 . S
C5604 C5605 1.373 . S
C5604 C5606 1.389 . S
C5605 H5584 0.950 . S
C5605 C5604 1.373 . S
C5605 C5621 1.377 . S
C5606 C5604 1.389 . S
C5606 C5607 1.524 . S
C5606 C5620 1.377 . S
C5607 C5606 1.524 . S
C5607 C5608 1.397 . S
C5607 C5612 1.363 . S
C5608 H5585 0.950 . S
C5608 C5607 1.397 . S
C5608 C5609 1.334 . S
C5609 H5586 0.950 . S
C5609 C5608 1.334 . S
C5609 C5610 1.287 . S
C5610 C5609 1.287 . S
C5610 C5611 1.524 . S
C5610 H5629 0.913 . S
C5611 H5587 0.950 . S
C5611 C5610 1.524 . S
C5611 C5612 1.415 . S
C5612 H5588 0.950 . S
C5612 C5607 1.363 . S
C5612 C5611 1.415 . S
C5613 H5589 0.951 . S
C5613 C5614 1.366 . S
C5613 C5615 1.388 . S
C5614 C5613 1.366 . S
C5614 C5618 1.385 . S
C5615 H5590 0.951 . S
C5615 C5613 1.388 . S
C5615 C5616 1.366 . S
C5616 C5615 1.366 . S
C5616 C5617 1.414 . S
C5616 C5619 1.499 . S
C5617 H5591 0.950 . S
C5617 C5616 1.414 . S
C5617 C5618 1.374 . S
C5618 H5592 0.950 . S
C5618 C5614 1.385 . S
C5618 C5617 1.374 . S
C5619 C5616 1.499 . S
C5619 C5620 1.373 . S
C5619 C5621 1.389 . S
C5620 H5593 0.950 . S
C5620 C5606 1.377 . S
C5620 C5619 1.373 . S
C5621 C5605 1.377 . S
C5621 C5619 1.389 . S
C5621 C5622 1.524 . S
C5622 C5621 1.524 . S
C5622 C5623 1.397 . S
C5622 C5627 1.363 . S
C5623 H5594 0.950 . S
C5623 C5622 1.397 . S
C5623 C5624 1.334 . S
C5624 H5595 0.950 . S
C5624 C5623 1.334 . S
C5624 C5625 1.287 . S
C5625 C5624 1.287 . S
C5625 C5626 1.524 . S
C5625 H5628 0.999 . S
C5626 H5596 0.950 . S
C5626 C5625 1.524 . S
C5626 C5627 1.415 . S
C5627 H5597 0.950 . S
C5627 C5622 1.363 . S
C5627 C5626 1.415 . S
H5628 C5625 0.999 . S
H5629 C5610 0.913 . S
H5630 C5648 0.951 . S
H5631 C5650 0.951 . S
H5632 C5652 0.950 . S
H5633 C5653 0.950 . S
H5634 C5655 0.950 . S
H5635 C5658 0.950 . S
H5636 C5659 0.950 . S
H5637 C5661 0.950 . S
H5638 C5662 0.950 . S
H5639 C5663 0.951 . S
H5640 C5665 0.951 . S
H5641 C5667 0.950 . S
H5642 C5668 0.950 . S
H5643 C5670 0.950 . S
H5644 C5673 0.950 . S
H5645 C5674 0.950 . S
H5646 C5676 0.950 . S
H5647 C5677 0.950 . S
C5648 H5630 0.951 . S
C5648 C5649 1.366 . S
C5648 C5650 1.388 . S
C5649 C5648 1.366 . S
C5649 C5653 1.385 . S
C5650 H5631 0.951 . S
C5650 C5648 1.388 . S
C5650 C5651 1.366 . S
C5651 C5650 1.366 . S
C5651 C5652 1.414 . S
C5651 C5654 1.499 . S
C5652 H5632 0.950 . S
C5652 C5651 1.414 . S
C5652 C5653 1.374 . S
C5653 H5633 0.950 . S
C5653 C5649 1.385 . S
C5653 C5652 1.374 . S
C5654 C5651 1.499 . S
C5654 C5655 1.373 . S
C5654 C5656 1.389 . S
C5655 H5634 0.950 . S
C5655 C5654 1.373 . S
C5655 C5671 1.377 . S
C5656 C5654 1.389 . S
C5656 C5657 1.524 . S
C5656 C5670 1.377 . S
C5657 C5656 1.524 . S
C5657 C5658 1.397 . S
C5657 C5662 1.363 . S
C5658 H5635 0.950 . S
C5658 C5657 1.397 . S
C5658 C5659 1.334 . S
C5659 H5636 0.950 . S
C5659 C5658 1.334 . S
C5659 C5660 1.287 . S
C5660 C5659 1.287 . S
C5660 C5661 1.524 . S
C5660 H5679 0.913 . S
C5661 H5637 0.950 . S
C5661 C5660 1.524 . S
C5661 C5662 1.415 . S
C5662 H5638 0.950 . S
C5662 C5657 1.363 . S
C5662 C5661 1.415 . S
C5663 H5639 0.951 . S
C5663 C5664 1.366 . S
C5663 C5665 1.388 . S
C5664 C5663 1.366 . S
C5664 C5668 1.385 . S
C5665 H5640 0.951 . S
C5665 C5663 1.388 . S
C5665 C5666 1.366 . S
C5666 C5665 1.366 . S
C5666 C5667 1.414 . S
C5666 C5669 1.499 . S
C5667 H5641 0.950 . S
C5667 C5666 1.414 . S
C5667 C5668 1.374 . S
C5668 H5642 0.950 . S
C5668 C5664 1.385 . S
C5668 C5667 1.374 . S
C5669 C5666 1.499 . S
C5669 C5670 1.373 . S
C5669 C5671 1.389 . S
C5670 H5643 0.950 . S
C5670 C5656 1.377 . S
C5670 C5669 1.373 . S
C5671 C5655 1.377 . S
C5671 C5669 1.389 . S
C5671 C5672 1.524 . S
C5672 C5671 1.524 . S
C5672 C5673 1.397 . S
C5672 C5677 1.363 . S
C5673 H5644 0.950 . S
C5673 C5672 1.397 . S
C5673 C5674 1.334 . S
C5674 H5645 0.950 . S
C5674 C5673 1.334 . S
C5674 C5675 1.287 . S
C5675 C5674 1.287 . S
C5675 C5676 1.524 . S
C5675 H5678 0.999 . S
C5676 H5646 0.950 . S
C5676 C5675 1.524 . S
C5676 C5677 1.415 . S
C5677 H5647 0.950 . S
C5677 C5672 1.363 . S
C5677 C5676 1.415 . S
H5678 C5675 0.999 . S
H5679 C5660 0.913 . S
H5680 C5698 0.951 . S
H5681 C5700 0.951 . S
H5682 C5702 0.950 . S
H5683 C5703 0.950 . S
H5684 C5705 0.950 . S
H5685 C5708 0.950 . S
H5686 C5709 0.950 . S
H5687 C5711 0.950 . S
H5688 C5712 0.950 . S
H5689 C5713 0.951 . S
H5690 C5715 0.951 . S
H5691 C5717 0.950 . S
H5692 C5718 0.950 . S
H5693 C5720 0.950 . S
H5694 C5723 0.950 . S
H5695 C5724 0.950 . S
H5696 C5726 0.950 . S
H5697 C5727 0.950 . S
C5698 H5680 0.951 . S
C5698 C5699 1.366 . S
C5698 C5700 1.388 . S
C5699 C5698 1.366 . S
C5699 C5703 1.385 . S
C5700 H5681 0.951 . S
C5700 C5698 1.388 . S
C5700 C5701 1.366 . S
C5701 C5700 1.366 . S
C5701 C5702 1.414 . S
C5701 C5704 1.499 . S
C5702 H5682 0.950 . S
C5702 C5701 1.414 . S
C5702 C5703 1.374 . S
C5703 H5683 0.950 . S
C5703 C5699 1.385 . S
C5703 C5702 1.374 . S
C5704 C5701 1.499 . S
C5704 C5705 1.373 . S
C5704 C5706 1.389 . S
C5705 H5684 0.950 . S
C5705 C5704 1.373 . S
C5705 C5721 1.377 . S
C5706 C5704 1.389 . S
C5706 C5707 1.524 . S
C5706 C5720 1.377 . S
C5707 C5706 1.524 . S
C5707 C5708 1.397 . S
C5707 C5712 1.363 . S
C5708 H5685 0.950 . S
C5708 C5707 1.397 . S
C5708 C5709 1.334 . S
C5709 H5686 0.950 . S
C5709 C5708 1.334 . S
C5709 C5710 1.287 . S
C5710 C5709 1.287 . S
C5710 C5711 1.524 . S
C5710 H5729 0.913 . S
C5711 H5687 0.950 . S
C5711 C5710 1.524 . S
C5711 C5712 1.415 . S
C5712 H5688 0.950 . S
C5712 C5707 1.363 . S
C5712 C5711 1.415 . S
C5713 H5689 0.951 . S
C5713 C5714 1.366 . S
C5713 C5715 1.388 . S
C5714 C5713 1.366 . S
C5714 C5718 1.385 . S
C5715 H5690 0.951 . S
C5715 C5713 1.388 . S
C5715 C5716 1.366 . S
C5716 C5715 1.366 . S
C5716 C5717 1.414 . S
C5716 C5719 1.499 . S
C5717 H5691 0.950 . S
C5717 C5716 1.414 . S
C5717 C5718 1.374 . S
C5718 H5692 0.950 . S
C5718 C5714 1.385 . S
C5718 C5717 1.374 . S
C5719 C5716 1.499 . S
C5719 C5720 1.373 . S
C5719 C5721 1.389 . S
C5720 H5693 0.950 . S
C5720 C5706 1.377 . S
C5720 C5719 1.373 . S
C5721 C5705 1.377 . S
C5721 C5719 1.389 . S
C5721 C5722 1.524 . S
C5722 C5721 1.524 . S
C5722 C5723 1.397 . S
C5722 C5727 1.363 . S
C5723 H5694 0.950 . S
C5723 C5722 1.397 . S
C5723 C5724 1.334 . S
C5724 H5695 0.950 . S
C5724 C5723 1.334 . S
C5724 C5725 1.287 . S
C5725 C5724 1.287 . S
C5725 C5726 1.524 . S
C5725 H5728 0.999 . S
C5726 H5696 0.950 . S
C5726 C5725 1.524 . S
C5726 C5727 1.415 . S
C5727 H5697 0.950 . S
C5727 C5722 1.363 . S
C5727 C5726 1.415 . S
H5728 C5725 0.999 . S
H5729 C5710 0.913 . S
H5730 C5748 0.951 . S
H5731 C5750 0.951 . S
H5732 C5752 0.950 . S
H5733 C5753 0.950 . S
H5734 C5755 0.950 . S
H5735 C5758 0.950 . S
H5736 C5759 0.950 . S
H5737 C5761 0.950 . S
H5738 C5762 0.950 . S
H5739 C5763 0.951 . S
H5740 C5765 0.951 . S
H5741 C5767 0.950 . S
H5742 C5768 0.950 . S
H5743 C5770 0.950 . S
H5744 C5773 0.950 . S
H5745 C5774 0.950 . S
H5746 C5776 0.950 . S
H5747 C5777 0.950 . S
C5748 H5730 0.951 . S
C5748 C5749 1.366 . S
C5748 C5750 1.388 . S
C5749 C5748 1.366 . S
C5749 C5753 1.385 . S
C5750 H5731 0.951 . S
C5750 C5748 1.388 . S
C5750 C5751 1.366 . S
C5751 C5750 1.366 . S
C5751 C5752 1.414 . S
C5751 C5754 1.499 . S
C5752 H5732 0.950 . S
C5752 C5751 1.414 . S
C5752 C5753 1.374 . S
C5753 H5733 0.950 . S
C5753 C5749 1.385 . S
C5753 C5752 1.374 . S
C5754 C5751 1.499 . S
C5754 C5755 1.373 . S
C5754 C5756 1.389 . S
C5755 H5734 0.950 . S
C5755 C5754 1.373 . S
C5755 C5771 1.377 . S
C5756 C5754 1.389 . S
C5756 C5757 1.524 . S
C5756 C5770 1.377 . S
C5757 C5756 1.524 . S
C5757 C5758 1.397 . S
C5757 C5762 1.363 . S
C5758 H5735 0.950 . S
C5758 C5757 1.397 . S
C5758 C5759 1.334 . S
C5759 H5736 0.950 . S
C5759 C5758 1.334 . S
C5759 C5760 1.287 . S
C5760 C5759 1.287 . S
C5760 C5761 1.524 . S
C5760 H5779 0.913 . S
C5761 H5737 0.950 . S
C5761 C5760 1.524 . S
C5761 C5762 1.415 . S
C5762 H5738 0.950 . S
C5762 C5757 1.363 . S
C5762 C5761 1.415 . S
C5763 H5739 0.951 . S
C5763 C5764 1.366 . S
C5763 C5765 1.388 . S
C5764 C5763 1.366 . S
C5764 C5768 1.385 . S
C5765 H5740 0.951 . S
C5765 C5763 1.388 . S
C5765 C5766 1.366 . S
C5766 C5765 1.366 . S
C5766 C5767 1.414 . S
C5766 C5769 1.499 . S
C5767 H5741 0.950 . S
C5767 C5766 1.414 . S
C5767 C5768 1.374 . S
C5768 H5742 0.950 . S
C5768 C5764 1.385 . S
C5768 C5767 1.374 . S
C5769 C5766 1.499 . S
C5769 C5770 1.373 . S
C5769 C5771 1.389 . S
C5770 H5743 0.950 . S
C5770 C5756 1.377 . S
C5770 C5769 1.373 . S
C5771 C5755 1.377 . S
C5771 C5769 1.389 . S
C5771 C5772 1.524 . S
C5772 C5771 1.524 . S
C5772 C5773 1.397 . S
C5772 C5777 1.363 . S
C5773 H5744 0.950 . S
C5773 C5772 1.397 . S
C5773 C5774 1.334 . S
C5774 H5745 0.950 . S
C5774 C5773 1.334 . S
C5774 C5775 1.287 . S
C5775 C5774 1.287 . S
C5775 C5776 1.524 . S
C5775 H5778 0.999 . S
C5776 H5746 0.950 . S
C5776 C5775 1.524 . S
C5776 C5777 1.415 . S
C5777 H5747 0.950 . S
C5777 C5772 1.363 . S
C5777 C5776 1.415 . S
H5778 C5775 0.999 . S
H5779 C5760 0.913 . S
H5780 C5798 0.951 . S
H5781 C5800 0.951 . S
H5782 C5802 0.950 . S
H5783 C5803 0.950 . S
H5784 C5805 0.950 . S
H5785 C5808 0.950 . S
H5786 C5809 0.972 . S
H5787 C5811 0.950 . S
H5788 C5812 0.950 . S
H5789 C5813 0.951 . S
H5790 C5815 0.951 . S
H5791 C5817 0.951 . S
H5792 C5818 0.950 . S
H5793 C5820 0.950 1_455 S
H5794 C5823 0.950 . S
H5795 C5824 0.950 . S
H5796 C5826 0.950 . S
H5797 C5827 0.950 . S
C5798 H5780 0.951 . S
C5798 C5799 1.366 . S
C5798 C5800 1.388 . S
C5799 C5798 1.366 . S
C5799 C5803 1.385 . S
C5800 H5781 0.951 . S
C5800 C5798 1.388 . S
C5800 C5801 1.366 . S
C5801 C5800 1.366 . S
C5801 C5802 1.414 . S
C5801 C5804 1.499 . S
C5802 H5782 0.950 . S
C5802 C5801 1.414 . S
C5802 C5803 1.374 . S
C5803 H5783 0.950 . S
C5803 C5799 1.385 . S
C5803 C5802 1.374 . S
C5804 C5801 1.499 . S
C5804 C5805 1.373 . S
C5804 C5806 1.389 . S
C5805 H5784 0.950 . S
C5805 C5804 1.373 . S
C5805 C5821 1.377 . S
C5806 C5804 1.389 . S
C5806 C5807 1.524 . S
C5806 C5820 1.377 . S
C5807 C5806 1.524 . S
C5807 C5808 1.397 . S
C5807 C5812 1.363 . S
C5808 H5785 0.950 . S
C5808 C5807 1.397 . S
C5808 C5809 1.326 1_655 S
C5809 H5786 0.972 . S
C5809 C5808 1.326 1_455 S
C5809 C5810 1.278 . S
C5810 C5809 1.278 . S
C5810 C5811 1.524 1_455 S
C5810 H5829 0.913 . S
C5811 H5787 0.950 . S
C5811 C5810 1.524 1_655 S
C5811 C5812 1.415 . S
C5812 H5788 0.950 . S
C5812 C5807 1.363 . S
C5812 C5811 1.415 . S
C5813 H5789 0.951 . S
C5813 C5814 1.366 . S
C5813 C5815 1.388 . S
C5814 C5813 1.366 . S
C5814 C5818 1.385 . S
C5815 H5790 0.951 . S
C5815 C5813 1.388 . S
C5815 C5816 1.366 . S
C5816 C5815 1.366 . S
C5816 C5817 1.414 . S
C5816 C5819 1.499 1_455 S
C5817 H5791 0.951 . S
C5817 C5816 1.414 . S
C5817 C5818 1.374 . S
C5818 H5792 0.950 . S
C5818 C5814 1.385 . S
C5818 C5817 1.374 . S
C5819 C5816 1.499 1_655 S
C5819 C5820 1.373 . S
C5819 C5821 1.389 . S
C5820 H5793 0.950 1_655 S
C5820 C5806 1.377 . S
C5820 C5819 1.373 . S
C5821 C5805 1.377 . S
C5821 C5819 1.389 . S
C5821 C5822 1.524 . S
C5822 C5821 1.524 . S
C5822 C5823 1.397 . S
C5822 C5827 1.363 . S
C5823 H5794 0.950 . S
C5823 C5822 1.397 . S
C5823 C5824 1.334 . S
C5824 H5795 0.950 . S
C5824 C5823 1.334 . S
C5824 C5825 1.287 . S
C5825 C5824 1.287 . S
C5825 C5826 1.524 . S
C5825 H5828 0.999 . S
C5826 H5796 0.950 . S
C5826 C5825 1.524 . S
C5826 C5827 1.415 . S
C5827 H5797 0.950 . S
C5827 C5822 1.363 . S
C5827 C5826 1.415 . S
H5828 C5825 0.999 . S
H5829 C5810 0.913 . S
H5830 C5848 0.951 . S
H5831 C5850 0.951 . S
H5832 C5852 0.950 . S
H5833 C5853 0.950 . S
H5834 C5855 0.950 . S
H5835 C5858 0.950 . S
H5836 C5859 0.950 . S
H5837 C5861 0.950 . S
H5838 C5862 0.950 . S
H5839 C5863 0.951 . S
H5840 C5865 0.951 . S
H5841 C5867 0.950 . S
H5842 C5868 0.950 . S
H5843 C5870 0.950 . S
H5844 C5873 0.950 . S
H5845 C5874 0.950 . S
H5846 C5876 0.950 . S
H5847 C5877 0.950 . S
C5848 H5830 0.951 . S
C5848 C5849 1.366 . S
C5848 C5850 1.388 . S
C5849 C5848 1.366 . S
C5849 C5853 1.385 . S
C5850 H5831 0.951 . S
C5850 C5848 1.388 . S
C5850 C5851 1.366 . S
C5851 C5850 1.366 . S
C5851 C5852 1.414 . S
C5851 C5854 1.499 . S
C5852 H5832 0.950 . S
C5852 C5851 1.414 . S
C5852 C5853 1.374 . S
C5853 H5833 0.950 . S
C5853 C5849 1.385 . S
C5853 C5852 1.374 . S
C5854 C5851 1.499 . S
C5854 C5855 1.373 . S
C5854 C5856 1.389 . S
C5855 H5834 0.950 . S
C5855 C5854 1.373 . S
C5855 C5871 1.377 . S
C5856 C5854 1.389 . S
C5856 C5857 1.524 . S
C5856 C5870 1.377 . S
C5857 C5856 1.524 . S
C5857 C5858 1.397 . S
C5857 C5862 1.363 . S
C5858 H5835 0.950 . S
C5858 C5857 1.397 . S
C5858 C5859 1.334 . S
C5859 H5836 0.950 . S
C5859 C5858 1.334 . S
C5859 C5860 1.287 . S
C5860 C5859 1.287 . S
C5860 C5861 1.524 . S
C5860 H5879 0.913 . S
C5861 H5837 0.950 . S
C5861 C5860 1.524 . S
C5861 C5862 1.415 . S
C5862 H5838 0.950 . S
C5862 C5857 1.363 . S
C5862 C5861 1.415 . S
C5863 H5839 0.951 . S
C5863 C5864 1.366 . S
C5863 C5865 1.388 . S
C5864 C5863 1.366 . S
C5864 C5868 1.385 . S
C5865 H5840 0.951 . S
C5865 C5863 1.388 . S
C5865 C5866 1.366 . S
C5866 C5865 1.366 . S
C5866 C5867 1.414 . S
C5866 C5869 1.499 . S
C5867 H5841 0.950 . S
C5867 C5866 1.414 . S
C5867 C5868 1.374 . S
C5868 H5842 0.950 . S
C5868 C5864 1.385 . S
C5868 C5867 1.374 . S
C5869 C5866 1.499 . S
C5869 C5870 1.373 . S
C5869 C5871 1.389 . S
C5870 H5843 0.950 . S
C5870 C5856 1.377 . S
C5870 C5869 1.373 . S
C5871 C5855 1.377 . S
C5871 C5869 1.389 . S
C5871 C5872 1.524 . S
C5872 C5871 1.524 . S
C5872 C5873 1.397 . S
C5872 C5877 1.363 . S
C5873 H5844 0.950 . S
C5873 C5872 1.397 . S
C5873 C5874 1.334 . S
C5874 H5845 0.950 . S
C5874 C5873 1.334 . S
C5874 C5875 1.287 . S
C5875 C5874 1.287 . S
C5875 C5876 1.524 . S
C5875 H5878 0.999 . S
C5876 H5846 0.950 . S
C5876 C5875 1.524 . S
C5876 C5877 1.415 . S
C5877 H5847 0.950 . S
C5877 C5872 1.363 . S
C5877 C5876 1.415 . S
H5878 C5875 0.999 . S
H5879 C5860 0.913 . S
H5880 C5898 0.951 . S
H5881 C5900 0.951 . S
H5882 C5902 0.950 . S
H5883 C5903 0.950 . S
H5884 C5905 0.950 . S
H5885 C5908 0.950 . S
H5886 C5909 0.950 . S
H5887 C5911 0.950 . S
H5888 C5912 0.950 . S
H5889 C5913 0.951 . S
H5890 C5915 0.951 . S
H5891 C5917 0.950 . S
H5892 C5918 0.950 . S
H5893 C5920 0.950 . S
H5894 C5923 0.950 . S
H5895 C5924 0.950 . S
H5896 C5926 0.950 . S
H5897 C5927 0.950 . S
C5898 H5880 0.951 . S
C5898 C5899 1.366 . S
C5898 C5900 1.388 . S
C5899 C5898 1.366 . S
C5899 C5903 1.385 . S
C5900 H5881 0.951 . S
C5900 C5898 1.388 . S
C5900 C5901 1.366 . S
C5901 C5900 1.366 . S
C5901 C5902 1.414 . S
C5901 C5904 1.499 . S
C5902 H5882 0.950 . S
C5902 C5901 1.414 . S
C5902 C5903 1.374 . S
C5903 H5883 0.950 . S
C5903 C5899 1.385 . S
C5903 C5902 1.374 . S
C5904 C5901 1.499 . S
C5904 C5905 1.373 . S
C5904 C5906 1.389 . S
C5905 H5884 0.950 . S
C5905 C5904 1.373 . S
C5905 C5921 1.377 . S
C5906 C5904 1.389 . S
C5906 C5907 1.524 . S
C5906 C5920 1.377 . S
C5907 C5906 1.524 . S
C5907 C5908 1.397 . S
C5907 C5912 1.363 . S
C5908 H5885 0.950 . S
C5908 C5907 1.397 . S
C5908 C5909 1.334 . S
C5909 H5886 0.950 . S
C5909 C5908 1.334 . S
C5909 C5910 1.287 . S
C5910 C5909 1.287 . S
C5910 C5911 1.524 . S
C5910 H5929 0.913 . S
C5911 H5887 0.950 . S
C5911 C5910 1.524 . S
C5911 C5912 1.415 . S
C5912 H5888 0.950 . S
C5912 C5907 1.363 . S
C5912 C5911 1.415 . S
C5913 H5889 0.951 . S
C5913 C5914 1.366 . S
C5913 C5915 1.388 . S
C5914 C5913 1.366 . S
C5914 C5918 1.385 . S
C5915 H5890 0.951 . S
C5915 C5913 1.388 . S
C5915 C5916 1.366 . S
C5916 C5915 1.366 . S
C5916 C5917 1.414 . S
C5916 C5919 1.499 . S
C5917 H5891 0.950 . S
C5917 C5916 1.414 . S
C5917 C5918 1.374 . S
C5918 H5892 0.950 . S
C5918 C5914 1.385 . S
C5918 C5917 1.374 . S
C5919 C5916 1.499 . S
C5919 C5920 1.373 . S
C5919 C5921 1.389 . S
C5920 H5893 0.950 . S
C5920 C5906 1.377 . S
C5920 C5919 1.373 . S
C5921 C5905 1.377 . S
C5921 C5919 1.389 . S
C5921 C5922 1.524 . S
C5922 C5921 1.524 . S
C5922 C5923 1.397 . S
C5922 C5927 1.363 . S
C5923 H5894 0.950 . S
C5923 C5922 1.397 . S
C5923 C5924 1.334 . S
C5924 H5895 0.950 . S
C5924 C5923 1.334 . S
C5924 C5925 1.287 . S
C5925 C5924 1.287 . S
C5925 C5926 1.524 . S
C5925 H5928 0.999 . S
C5926 H5896 0.950 . S
C5926 C5925 1.524 . S
C5926 C5927 1.415 . S
C5927 H5897 0.950 . S
C5927 C5922 1.363 . S
C5927 C5926 1.415 . S
H5928 C5925 0.999 . S
H5929 C5910 0.913 . S
H5930 C5948 0.951 . S
H5931 C5950 0.951 . S
H5932 C5952 0.950 . S
H5933 C5953 0.950 . S
H5934 C5955 0.950 . S
H5935 C5958 0.950 . S
H5936 C5959 0.950 . S
H5937 C5961 0.950 . S
H5938 C5962 0.950 . S
H5939 C5963 0.951 . S
H5940 C5965 0.951 . S
H5941 C5967 0.950 . S
H5942 C5968 0.950 . S
H5943 C5970 0.950 . S
H5944 C5973 0.950 . S
H5945 C5974 0.950 . S
H5946 C5976 0.950 . S
H5947 C5977 0.950 . S
C5948 H5930 0.951 . S
C5948 C5949 1.366 . S
C5948 C5950 1.388 . S
C5949 C5948 1.366 . S
C5949 C5953 1.385 . S
C5950 H5931 0.951 . S
C5950 C5948 1.388 . S
C5950 C5951 1.366 . S
C5951 C5950 1.366 . S
C5951 C5952 1.414 . S
C5951 C5954 1.499 . S
C5952 H5932 0.950 . S
C5952 C5951 1.414 . S
C5952 C5953 1.374 . S
C5953 H5933 0.950 . S
C5953 C5949 1.385 . S
C5953 C5952 1.374 . S
C5954 C5951 1.499 . S
C5954 C5955 1.373 . S
C5954 C5956 1.389 . S
C5955 H5934 0.950 . S
C5955 C5954 1.373 . S
C5955 C5971 1.377 . S
C5956 C5954 1.389 . S
C5956 C5957 1.524 . S
C5956 C5970 1.377 . S
C5957 C5956 1.524 . S
C5957 C5958 1.397 . S
C5957 C5962 1.363 . S
C5958 H5935 0.950 . S
C5958 C5957 1.397 . S
C5958 C5959 1.334 . S
C5959 H5936 0.950 . S
C5959 C5958 1.334 . S
C5959 C5960 1.287 . S
C5960 C5959 1.287 . S
C5960 C5961 1.524 . S
C5960 H5979 0.913 . S
C5961 H5937 0.950 . S
C5961 C5960 1.524 . S
C5961 C5962 1.415 . S
C5962 H5938 0.950 . S
C5962 C5957 1.363 . S
C5962 C5961 1.415 . S
C5963 H5939 0.951 . S
C5963 C5964 1.366 . S
C5963 C5965 1.388 . S
C5964 C5963 1.366 . S
C5964 C5968 1.385 . S
C5965 H5940 0.951 . S
C5965 C5963 1.388 . S
C5965 C5966 1.366 . S
C5966 C5965 1.366 . S
C5966 C5967 1.414 . S
C5966 C5969 1.499 . S
C5967 H5941 0.950 . S
C5967 C5966 1.414 . S
C5967 C5968 1.374 . S
C5968 H5942 0.950 . S
C5968 C5964 1.385 . S
C5968 C5967 1.374 . S
C5969 C5966 1.499 . S
C5969 C5970 1.373 . S
C5969 C5971 1.389 . S
C5970 H5943 0.950 . S
C5970 C5956 1.377 . S
C5970 C5969 1.373 . S
C5971 C5955 1.377 . S
C5971 C5969 1.389 . S
C5971 C5972 1.524 . S
C5972 C5971 1.524 . S
C5972 C5973 1.397 . S
C5972 C5977 1.363 . S
C5973 H5944 0.950 . S
C5973 C5972 1.397 . S
C5973 C5974 1.334 . S
C5974 H5945 0.950 . S
C5974 C5973 1.334 . S
C5974 C5975 1.287 . S
C5975 C5974 1.287 . S
C5975 C5976 1.524 . S
C5975 H5978 0.999 . S
C5976 H5946 0.950 . S
C5976 C5975 1.524 . S
C5976 C5977 1.415 . S
C5977 H5947 0.950 . S
C5977 C5972 1.363 . S
C5977 C5976 1.415 . S
H5978 C5975 0.999 . S
H5979 C5960 0.913 . S
H5980 C5998 0.951 . S
H5981 C6000 0.951 . S
H5982 C6002 0.950 . S
H5983 C6003 0.950 . S
H5984 C6005 0.950 . S
H5985 C6008 0.950 . S
H5986 C6009 0.950 . S
H5987 C6011 0.950 . S
H5988 C6012 0.950 . S
H5989 C6013 0.951 . S
H5990 C6015 0.951 . S
H5991 C6017 0.950 . S
H5992 C6018 0.950 . S
H5993 C6020 0.950 . S
H5994 C6023 0.950 . S
H5995 C6024 0.950 . S
H5996 C6026 0.950 . S
H5997 C6027 0.950 . S
C5998 H5980 0.951 . S
C5998 C5999 1.366 . S
C5998 C6000 1.388 . S
C5999 C5998 1.366 . S
C5999 C6003 1.385 . S
C6000 H5981 0.951 . S
C6000 C5998 1.388 . S
C6000 C6001 1.366 . S
C6001 C6000 1.366 . S
C6001 C6002 1.414 . S
C6001 C6004 1.499 . S
C6002 H5982 0.950 . S
C6002 C6001 1.414 . S
C6002 C6003 1.374 . S
C6003 H5983 0.950 . S
C6003 C5999 1.385 . S
C6003 C6002 1.374 . S
C6004 C6001 1.499 . S
C6004 C6005 1.373 . S
C6004 C6006 1.389 . S
C6005 H5984 0.950 . S
C6005 C6004 1.373 . S
C6005 C6021 1.377 . S
C6006 C6004 1.389 . S
C6006 C6007 1.524 . S
C6006 C6020 1.377 . S
C6007 C6006 1.524 . S
C6007 C6008 1.397 . S
C6007 C6012 1.363 . S
C6008 H5985 0.950 . S
C6008 C6007 1.397 . S
C6008 C6009 1.334 . S
C6009 H5986 0.950 . S
C6009 C6008 1.334 . S
C6009 C6010 1.287 . S
C6010 C6009 1.287 . S
C6010 C6011 1.524 . S
C6010 H6029 0.913 . S
C6011 H5987 0.950 . S
C6011 C6010 1.524 . S
C6011 C6012 1.415 . S
C6012 H5988 0.950 . S
C6012 C6007 1.363 . S
C6012 C6011 1.415 . S
C6013 H5989 0.951 . S
C6013 C6014 1.366 . S
C6013 C6015 1.388 . S
C6014 C6013 1.366 . S
C6014 C6018 1.385 1_455 S
C6015 H5990 0.951 . S
C6015 C6013 1.388 . S
C6015 C6016 1.366 1_455 S
C6016 C6015 1.366 1_655 S
C6016 C6017 1.414 . S
C6016 C6019 1.499 . S
C6017 H5991 0.950 . S
C6017 C6016 1.414 . S
C6017 C6018 1.374 . S
C6018 H5992 0.950 . S
C6018 C6014 1.385 1_655 S
C6018 C6017 1.374 . S
C6019 C6016 1.499 . S
C6019 C6020 1.373 . S
C6019 C6021 1.389 . S
C6020 H5993 0.950 . S
C6020 C6006 1.377 . S
C6020 C6019 1.373 . S
C6021 C6005 1.377 . S
C6021 C6019 1.389 . S
C6021 C6022 1.524 . S
C6022 C6021 1.524 . S
C6022 C6023 1.397 . S
C6022 C6027 1.363 . S
C6023 H5994 0.950 . S
C6023 C6022 1.397 . S
C6023 C6024 1.334 . S
C6024 H5995 0.950 . S
C6024 C6023 1.334 . S
C6024 C6025 1.287 . S
C6025 C6024 1.287 . S
C6025 C6026 1.524 . S
C6025 H6028 0.999 . S
C6026 H5996 0.950 . S
C6026 C6025 1.524 . S
C6026 C6027 1.415 . S
C6027 H5997 0.950 . S
C6027 C6022 1.363 . S
C6027 C6026 1.415 . S
H6028 C6025 0.999 . S
H6029 C6010 0.913 . S
H6030 C6048 0.951 . S
H6031 C6050 0.951 . S
H6032 C6052 0.950 . S
H6033 C6053 0.950 . S
H6034 C6055 0.950 . S
H6035 C6058 0.950 . S
H6036 C6059 0.950 . S
H6037 C6061 0.950 . S
H6038 C6062 0.950 . S
H6039 C6063 0.951 . S
H6040 C6065 0.951 . S
H6041 C6067 0.950 . S
H6042 C6068 0.950 . S
H6043 C6070 0.950 . S
H6044 C6073 0.950 . S
H6045 C6074 0.950 . S
H6046 C6076 0.950 . S
H6047 C6077 0.950 . S
C6048 H6030 0.951 . S
C6048 C6049 1.366 . S
C6048 C6050 1.388 . S
C6049 C6048 1.366 . S
C6049 C6053 1.385 . S
C6050 H6031 0.951 . S
C6050 C6048 1.388 . S
C6050 C6051 1.366 . S
C6051 C6050 1.366 . S
C6051 C6052 1.414 . S
C6051 C6054 1.499 . S
C6052 H6032 0.950 . S
C6052 C6051 1.414 . S
C6052 C6053 1.374 . S
C6053 H6033 0.950 . S
C6053 C6049 1.385 . S
C6053 C6052 1.374 . S
C6054 C6051 1.499 . S
C6054 C6055 1.373 . S
C6054 C6056 1.389 . S
C6055 H6034 0.950 . S
C6055 C6054 1.373 . S
C6055 C6071 1.377 . S
C6056 C6054 1.389 . S
C6056 C6057 1.524 . S
C6056 C6070 1.377 . S
C6057 C6056 1.524 . S
C6057 C6058 1.397 . S
C6057 C6062 1.363 . S
C6058 H6035 0.950 . S
C6058 C6057 1.397 . S
C6058 C6059 1.334 . S
C6059 H6036 0.950 . S
C6059 C6058 1.334 . S
C6059 C6060 1.287 . S
C6060 C6059 1.287 . S
C6060 C6061 1.524 . S
C6060 H6079 0.913 . S
C6061 H6037 0.950 . S
C6061 C6060 1.524 . S
C6061 C6062 1.415 . S
C6062 H6038 0.950 . S
C6062 C6057 1.363 . S
C6062 C6061 1.415 . S
C6063 H6039 0.951 . S
C6063 C6064 1.366 . S
C6063 C6065 1.388 . S
C6064 C6063 1.366 . S
C6064 C6068 1.385 . S
C6065 H6040 0.951 . S
C6065 C6063 1.388 . S
C6065 C6066 1.366 . S
C6066 C6065 1.366 . S
C6066 C6067 1.414 . S
C6066 C6069 1.499 . S
C6067 H6041 0.950 . S
C6067 C6066 1.414 . S
C6067 C6068 1.374 . S
C6068 H6042 0.950 . S
C6068 C6064 1.385 . S
C6068 C6067 1.374 . S
C6069 C6066 1.499 . S
C6069 C6070 1.373 . S
C6069 C6071 1.389 . S
C6070 H6043 0.950 . S
C6070 C6056 1.377 . S
C6070 C6069 1.373 . S
C6071 C6055 1.377 . S
C6071 C6069 1.389 . S
C6071 C6072 1.524 . S
C6072 C6071 1.524 . S
C6072 C6073 1.397 . S
C6072 C6077 1.363 . S
C6073 H6044 0.950 . S
C6073 C6072 1.397 . S
C6073 C6074 1.334 . S
C6074 H6045 0.950 . S
C6074 C6073 1.334 . S
C6074 C6075 1.287 . S
C6075 C6074 1.287 . S
C6075 C6076 1.524 . S
C6075 H6078 0.999 . S
C6076 H6046 0.950 . S
C6076 C6075 1.524 . S
C6076 C6077 1.415 . S
C6077 H6047 0.950 . S
C6077 C6072 1.363 . S
C6077 C6076 1.415 . S
H6078 C6075 0.999 . S
H6079 C6060 0.913 . S
H6080 C6098 0.951 . S
H6081 C6100 0.951 . S
H6082 C6102 0.950 . S
H6083 C6103 0.950 . S
H6084 C6105 0.950 . S
H6085 C6108 0.950 . S
H6086 C6109 0.950 . S
H6087 C6111 0.950 . S
H6088 C6112 0.950 . S
H6089 C6113 0.951 . S
H6090 C6115 0.951 . S
H6091 C6117 0.950 . S
H6092 C6118 0.950 . S
H6093 C6120 0.950 . S
H6094 C6123 0.950 . S
H6095 C6124 0.950 . S
H6096 C6126 0.950 . S
H6097 C6127 0.950 . S
C6098 H6080 0.951 . S
C6098 C6099 1.366 . S
C6098 C6100 1.388 . S
C6099 C6098 1.366 . S
C6099 C6103 1.385 . S
C6100 H6081 0.951 . S
C6100 C6098 1.388 . S
C6100 C6101 1.366 . S
C6101 C6100 1.366 . S
C6101 C6102 1.414 . S
C6101 C6104 1.499 . S
C6102 H6082 0.950 . S
C6102 C6101 1.414 . S
C6102 C6103 1.374 . S
C6103 H6083 0.950 . S
C6103 C6099 1.385 . S
C6103 C6102 1.374 . S
C6104 C6101 1.499 . S
C6104 C6105 1.373 . S
C6104 C6106 1.389 . S
C6105 H6084 0.950 . S
C6105 C6104 1.373 . S
C6105 C6121 1.377 . S
C6106 C6104 1.389 . S
C6106 C6107 1.524 . S
C6106 C6120 1.377 . S
C6107 C6106 1.524 . S
C6107 C6108 1.397 . S
C6107 C6112 1.363 . S
C6108 H6085 0.950 . S
C6108 C6107 1.397 . S
C6108 C6109 1.334 . S
C6109 H6086 0.950 . S
C6109 C6108 1.334 . S
C6109 C6110 1.287 . S
C6110 C6109 1.287 . S
C6110 C6111 1.524 . S
C6110 H6129 0.913 . S
C6111 H6087 0.950 . S
C6111 C6110 1.524 . S
C6111 C6112 1.415 . S
C6112 H6088 0.950 . S
C6112 C6107 1.363 . S
C6112 C6111 1.415 . S
C6113 H6089 0.951 . S
C6113 C6114 1.366 . S
C6113 C6115 1.388 . S
C6114 C6113 1.366 . S
C6114 C6118 1.385 . S
C6115 H6090 0.951 . S
C6115 C6113 1.388 . S
C6115 C6116 1.366 . S
C6116 C6115 1.366 . S
C6116 C6117 1.414 . S
C6116 C6119 1.499 . S
C6117 H6091 0.950 . S
C6117 C6116 1.414 . S
C6117 C6118 1.374 . S
C6118 H6092 0.950 . S
C6118 C6114 1.385 . S
C6118 C6117 1.374 . S
C6119 C6116 1.499 . S
C6119 C6120 1.373 . S
C6119 C6121 1.389 . S
C6120 H6093 0.950 . S
C6120 C6106 1.377 . S
C6120 C6119 1.373 . S
C6121 C6105 1.377 . S
C6121 C6119 1.389 . S
C6121 C6122 1.524 . S
C6122 C6121 1.524 . S
C6122 C6123 1.397 . S
C6122 C6127 1.363 . S
C6123 H6094 0.950 . S
C6123 C6122 1.397 . S
C6123 C6124 1.334 . S
C6124 H6095 0.950 . S
C6124 C6123 1.334 . S
C6124 C6125 1.287 . S
C6125 C6124 1.287 . S
C6125 C6126 1.524 . S
C6125 H6128 0.999 . S
C6126 H6096 0.950 . S
C6126 C6125 1.524 . S
C6126 C6127 1.415 . S
C6127 H6097 0.950 . S
C6127 C6122 1.363 . S
C6127 C6126 1.415 . S
H6128 C6125 0.999 . S
H6129 C6110 0.913 . S
H6130 C6148 0.951 . S
H6131 C6150 0.951 . S
H6132 C6152 0.950 . S
H6133 C6153 0.950 . S
H6134 C6155 0.950 . S
H6135 C6158 0.950 . S
H6136 C6159 0.950 . S
H6137 C6161 0.950 . S
H6138 C6162 0.950 . S
H6139 C6163 0.951 . S
H6140 C6165 0.976 . S
H6141 C6167 0.950 . S
H6142 C6168 0.950 . S
H6143 C6170 0.950 . S
H6144 C6173 0.950 . S
H6145 C6174 0.950 . S
H6146 C6176 0.950 . S
H6147 C6177 0.950 . S
C6148 H6130 0.951 . S
C6148 C6149 1.366 . S
C6148 C6150 1.388 . S
C6149 C6148 1.366 . S
C6149 C6153 1.385 . S
C6150 H6131 0.951 . S
C6150 C6148 1.388 . S
C6150 C6151 1.366 . S
C6151 C6150 1.366 . S
C6151 C6152 1.414 . S
C6151 C6154 1.499 . S
C6152 H6132 0.950 . S
C6152 C6151 1.414 . S
C6152 C6153 1.374 . S
C6153 H6133 0.950 . S
C6153 C6149 1.385 . S
C6153 C6152 1.374 . S
C6154 C6151 1.499 . S
C6154 C6155 1.373 . S
C6154 C6156 1.389 . S
C6155 H6134 0.950 . S
C6155 C6154 1.373 . S
C6155 C6171 1.377 . S
C6156 C6154 1.389 . S
C6156 C6157 1.524 . S
C6156 C6170 1.377 . S
C6157 C6156 1.524 . S
C6157 C6158 1.397 . S
C6157 C6162 1.363 . S
C6158 H6135 0.950 . S
C6158 C6157 1.397 . S
C6158 C6159 1.334 . S
C6159 H6136 0.950 . S
C6159 C6158 1.334 . S
C6159 C6160 1.287 . S
C6160 C6159 1.287 . S
C6160 C6161 1.524 . S
C6160 H6179 0.913 . S
C6161 H6137 0.950 . S
C6161 C6160 1.524 . S
C6161 C6162 1.415 . S
C6162 H6138 0.950 . S
C6162 C6157 1.363 . S
C6162 C6161 1.415 . S
C6163 H6139 0.951 . S
C6163 C6164 1.366 . S
C6163 C6165 1.388 1_545 S
C6164 C6163 1.366 . S
C6164 C6168 1.385 1_545 S
C6165 H6140 0.976 . S
C6165 C6163 1.388 1_565 S
C6165 C6166 1.366 . S
C6166 C6165 1.366 . S
C6166 C6167 1.414 . S
C6166 C6169 1.499 . S
C6167 H6141 0.950 . S
C6167 C6166 1.414 . S
C6167 C6168 1.374 . S
C6168 H6142 0.950 . S
C6168 C6164 1.385 1_565 S
C6168 C6167 1.374 . S
C6169 C6166 1.499 . S
C6169 C6170 1.373 . S
C6169 C6171 1.389 . S
C6170 H6143 0.950 . S
C6170 C6156 1.377 . S
C6170 C6169 1.373 . S
C6171 C6155 1.377 . S
C6171 C6169 1.389 . S
C6171 C6172 1.524 . S
C6172 C6171 1.524 . S
C6172 C6173 1.397 . S
C6172 C6177 1.363 . S
C6173 H6144 0.950 . S
C6173 C6172 1.397 . S
C6173 C6174 1.334 . S
C6174 H6145 0.950 . S
C6174 C6173 1.334 . S
C6174 C6175 1.287 . S
C6175 C6174 1.287 . S
C6175 C6176 1.524 . S
C6175 H6178 0.999 . S
C6176 H6146 0.950 . S
C6176 C6175 1.524 . S
C6176 C6177 1.415 . S
C6177 H6147 0.950 . S
C6177 C6172 1.363 . S
C6177 C6176 1.415 . S
H6178 C6175 0.999 . S
H6179 C6160 0.913 . S
H6180 C6198 0.951 . S
H6181 C6200 0.951 . S
H6182 C6202 0.950 . S
H6183 C6203 0.950 . S
H6184 C6205 0.950 . S
H6185 C6208 0.950 . S
H6186 C6209 0.950 . S
H6187 C6211 0.950 . S
H6188 C6212 0.950 . S
H6189 C6213 0.951 . S
H6190 C6215 0.951 . S
H6191 C6217 0.950 . S
H6192 C6218 0.950 . S
H6193 C6220 0.950 . S
H6194 C6223 0.950 . S
H6195 C6224 0.950 . S
H6196 C6226 0.950 . S
H6197 C6227 0.950 . S
C6198 H6180 0.951 . S
C6198 C6199 1.366 . S
C6198 C6200 1.388 . S
C6199 C6198 1.366 . S
C6199 C6203 1.385 . S
C6200 H6181 0.951 . S
C6200 C6198 1.388 . S
C6200 C6201 1.366 . S
C6201 C6200 1.366 . S
C6201 C6202 1.414 . S
C6201 C6204 1.499 . S
C6202 H6182 0.950 . S
C6202 C6201 1.414 . S
C6202 C6203 1.374 . S
C6203 H6183 0.950 . S
C6203 C6199 1.385 . S
C6203 C6202 1.374 . S
C6204 C6201 1.499 . S
C6204 C6205 1.373 . S
C6204 C6206 1.389 . S
C6205 H6184 0.950 . S
C6205 C6204 1.373 . S
C6205 C6221 1.377 . S
C6206 C6204 1.389 . S
C6206 C6207 1.524 . S
C6206 C6220 1.377 . S
C6207 C6206 1.524 . S
C6207 C6208 1.397 . S
C6207 C6212 1.363 . S
C6208 H6185 0.950 . S
C6208 C6207 1.397 . S
C6208 C6209 1.334 . S
C6209 H6186 0.950 . S
C6209 C6208 1.334 . S
C6209 C6210 1.287 . S
C6210 C6209 1.287 . S
C6210 C6211 1.524 . S
C6210 H6229 0.913 . S
C6211 H6187 0.950 . S
C6211 C6210 1.524 . S
C6211 C6212 1.415 . S
C6212 H6188 0.950 . S
C6212 C6207 1.363 . S
C6212 C6211 1.415 . S
C6213 H6189 0.951 . S
C6213 C6214 1.366 . S
C6213 C6215 1.388 . S
C6214 C6213 1.366 . S
C6214 C6218 1.385 . S
C6215 H6190 0.951 . S
C6215 C6213 1.388 . S
C6215 C6216 1.366 . S
C6216 C6215 1.366 . S
C6216 C6217 1.414 . S
C6216 C6219 1.499 . S
C6217 H6191 0.950 . S
C6217 C6216 1.414 . S
C6217 C6218 1.374 . S
C6218 H6192 0.950 . S
C6218 C6214 1.385 . S
C6218 C6217 1.374 . S
C6219 C6216 1.499 . S
C6219 C6220 1.373 . S
C6219 C6221 1.389 . S
C6220 H6193 0.950 . S
C6220 C6206 1.377 . S
C6220 C6219 1.373 . S
C6221 C6205 1.377 . S
C6221 C6219 1.389 . S
C6221 C6222 1.524 . S
C6222 C6221 1.524 . S
C6222 C6223 1.397 . S
C6222 C6227 1.363 . S
C6223 H6194 0.950 . S
C6223 C6222 1.397 . S
C6223 C6224 1.334 . S
C6224 H6195 0.950 . S
C6224 C6223 1.334 . S
C6224 C6225 1.287 . S
C6225 C6224 1.287 . S
C6225 C6226 1.524 . S
C6225 H6228 0.999 . S
C6226 H6196 0.950 . S
C6226 C6225 1.524 . S
C6226 C6227 1.415 . S
C6227 H6197 0.950 . S
C6227 C6222 1.363 . S
C6227 C6226 1.415 . S
H6228 C6225 0.999 . S
H6229 C6210 0.913 . S
H6230 C6248 0.951 . S
H6231 C6250 0.951 . S
H6232 C6252 0.950 . S
H6233 C6253 0.950 . S
H6234 C6255 0.950 . S
H6235 C6258 0.950 . S
H6236 C6259 0.950 . S
H6237 C6261 0.950 . S
H6238 C6262 0.950 . S
H6239 C6263 0.951 . S
H6240 C6265 0.951 . S
H6241 C6267 0.974 . S
H6242 C6268 0.976 . S
H6243 C6270 0.950 . S
H6244 C6273 0.950 . S
H6245 C6274 0.950 . S
H6246 C6276 0.950 1_565 S
H6247 C6277 0.950 . S
C6248 H6230 0.951 . S
C6248 C6249 1.366 . S
C6248 C6250 1.388 . S
C6249 C6248 1.366 . S
C6249 C6253 1.385 . S
C6250 H6231 0.951 . S
C6250 C6248 1.388 . S
C6250 C6251 1.366 . S
C6251 C6250 1.366 . S
C6251 C6252 1.414 . S
C6251 C6254 1.499 . S
C6252 H6232 0.950 . S
C6252 C6251 1.414 . S
C6252 C6253 1.374 . S
C6253 H6233 0.950 . S
C6253 C6249 1.385 . S
C6253 C6252 1.374 . S
C6254 C6251 1.499 . S
C6254 C6255 1.373 . S
C6254 C6256 1.389 . S
C6255 H6234 0.950 . S
C6255 C6254 1.373 . S
C6255 C6271 1.377 . S
C6256 C6254 1.389 . S
C6256 C6257 1.524 . S
C6256 C6270 1.377 . S
C6257 C6256 1.524 . S
C6257 C6258 1.397 . S
C6257 C6262 1.363 . S
C6258 H6235 0.950 . S
C6258 C6257 1.397 . S
C6258 C6259 1.334 . S
C6259 H6236 0.950 . S
C6259 C6258 1.334 . S
C6259 C6260 1.287 . S
C6260 C6259 1.287 . S
C6260 C6261 1.524 . S
C6260 H6279 0.913 . S
C6261 H6237 0.950 . S
C6261 C6260 1.524 . S
C6261 C6262 1.415 . S
C6262 H6238 0.950 . S
C6262 C6257 1.363 . S
C6262 C6261 1.415 . S
C6263 H6239 0.951 . S
C6263 C6264 1.366 . S
C6263 C6265 1.388 . S
C6264 C6263 1.366 . S
C6264 C6268 1.385 . S
C6265 H6240 0.951 . S
C6265 C6263 1.388 . S
C6265 C6266 1.366 . S
C6266 C6265 1.366 . S
C6266 C6267 1.414 . S
C6266 C6269 1.499 . S
C6267 H6241 0.974 . S
C6267 C6266 1.414 . S
C6267 C6268 1.374 . S
C6268 H6242 0.976 . S
C6268 C6264 1.385 . S
C6268 C6267 1.374 . S
C6269 C6266 1.499 . S
C6269 C6270 1.373 . S
C6269 C6271 1.389 . S
C6270 H6243 0.950 . S
C6270 C6256 1.377 . S
C6270 C6269 1.373 . S
C6271 C6255 1.377 . S
C6271 C6269 1.389 . S
C6271 C6272 1.524 . S
C6272 C6271 1.524 . S
C6272 C6273 1.397 1_554 S
C6272 C6277 1.363 . S
C6273 H6244 0.950 . S
C6273 C6272 1.397 1_556 S
C6273 C6274 1.334 . S
C6274 H6245 0.950 . S
C6274 C6273 1.334 . S
C6274 C6275 1.287 1_545 S
C6275 C6274 1.287 1_565 S
C6275 C6276 1.524 1_566 S
C6275 H6278 0.999 . S
C6276 H6246 0.950 1_545 S
C6276 C6275 1.524 1_544 S
C6276 C6277 1.415 . S
C6277 H6247 0.950 . S
C6277 C6272 1.363 . S
C6277 C6276 1.415 . S
H6278 C6275 0.999 . S
H6279 C6260 0.913 . S
H6280 C6298 0.951 . S
H6281 C6300 0.951 . S
H6282 C6302 0.950 . S
H6283 C6303 0.950 . S
H6284 C6305 0.950 . S
H6285 C6308 0.950 . S
H6286 C6309 0.950 . S
H6287 C6311 0.950 . S
H6288 C6312 0.950 . S
H6289 C6313 0.951 . S
H6290 C6315 0.951 . S
H6291 C6317 0.950 . S
H6292 C6318 0.950 . S
H6293 C6320 0.950 . S
H6294 C6323 0.950 . S
H6295 C6324 0.950 . S
H6296 C6326 0.950 . S
H6297 C6327 0.950 . S
C6298 H6280 0.951 . S
C6298 C6299 1.366 . S
C6298 C6300 1.388 . S
C6299 C6298 1.366 . S
C6299 C6303 1.385 . S
C6300 H6281 0.951 . S
C6300 C6298 1.388 . S
C6300 C6301 1.366 . S
C6301 C6300 1.366 . S
C6301 C6302 1.414 . S
C6301 C6304 1.499 . S
C6302 H6282 0.950 . S
C6302 C6301 1.414 . S
C6302 C6303 1.374 . S
C6303 H6283 0.950 . S
C6303 C6299 1.385 . S
C6303 C6302 1.374 . S
C6304 C6301 1.499 . S
C6304 C6305 1.373 . S
C6304 C6306 1.389 . S
C6305 H6284 0.950 . S
C6305 C6304 1.373 . S
C6305 C6321 1.377 . S
C6306 C6304 1.389 . S
C6306 C6307 1.524 . S
C6306 C6320 1.377 . S
C6307 C6306 1.524 . S
C6307 C6308 1.397 . S
C6307 C6312 1.363 . S
C6308 H6285 0.950 . S
C6308 C6307 1.397 . S
C6308 C6309 1.334 . S
C6309 H6286 0.950 . S
C6309 C6308 1.334 . S
C6309 C6310 1.287 . S
C6310 C6309 1.287 . S
C6310 C6311 1.524 . S
C6310 H6329 0.913 . S
C6311 H6287 0.950 . S
C6311 C6310 1.524 . S
C6311 C6312 1.415 . S
C6312 H6288 0.950 . S
C6312 C6307 1.363 . S
C6312 C6311 1.415 . S
C6313 H6289 0.951 . S
C6313 C6314 1.366 . S
C6313 C6315 1.388 . S
C6314 C6313 1.366 . S
C6314 C6318 1.385 . S
C6315 H6290 0.951 . S
C6315 C6313 1.388 . S
C6315 C6316 1.366 . S
C6316 C6315 1.366 . S
C6316 C6317 1.414 . S
C6316 C6319 1.499 . S
C6317 H6291 0.950 . S
C6317 C6316 1.414 . S
C6317 C6318 1.374 . S
C6318 H6292 0.950 . S
C6318 C6314 1.385 . S
C6318 C6317 1.374 . S
C6319 C6316 1.499 . S
C6319 C6320 1.373 . S
C6319 C6321 1.389 . S
C6320 H6293 0.950 . S
C6320 C6306 1.377 . S
C6320 C6319 1.373 . S
C6321 C6305 1.377 . S
C6321 C6319 1.389 . S
C6321 C6322 1.524 . S
C6322 C6321 1.524 . S
C6322 C6323 1.397 . S
C6322 C6327 1.363 . S
C6323 H6294 0.950 . S
C6323 C6322 1.397 . S
C6323 C6324 1.334 . S
C6324 H6295 0.950 . S
C6324 C6323 1.334 . S
C6324 C6325 1.287 . S
C6325 C6324 1.287 . S
C6325 C6326 1.524 . S
C6325 H6328 0.999 . S
C6326 H6296 0.950 . S
C6326 C6325 1.524 . S
C6326 C6327 1.415 . S
C6327 H6297 0.950 . S
C6327 C6322 1.363 . S
C6327 C6326 1.415 . S
H6328 C6325 0.999 . S
H6329 C6310 0.913 . S
H6330 C6348 0.951 . S
H6331 C6350 0.951 . S
H6332 C6352 0.950 . S
H6333 C6353 0.950 . S
H6334 C6355 0.950 1_556 S
H6335 C6358 0.950 . S
H6336 C6359 0.950 . S
H6337 C6361 0.950 . S
H6338 C6362 0.950 . S
H6339 C6363 0.951 1_556 S
H6340 C6365 0.951 . S
H6341 C6367 0.950 . S
H6342 C6368 0.950 . S
H6343 C6370 0.950 . S
H6344 C6373 0.950 . S
H6345 C6374 0.950 . S
H6346 C6376 0.950 . S
H6347 C6377 0.950 . S
C6348 H6330 0.951 . S
C6348 C6349 1.366 . S
C6348 C6350 1.388 . S
C6349 C6348 1.366 . S
C6349 C6353 1.385 . S
C6350 H6331 0.951 . S
C6350 C6348 1.388 . S
C6350 C6351 1.366 . S
C6351 C6350 1.366 . S
C6351 C6352 1.414 . S
C6351 C6354 1.499 . S
C6352 H6332 0.950 . S
C6352 C6351 1.414 . S
C6352 C6353 1.374 . S
C6353 H6333 0.950 . S
C6353 C6349 1.385 . S
C6353 C6352 1.374 . S
C6354 C6351 1.499 . S
C6354 C6355 1.373 . S
C6354 C6356 1.389 . S
C6355 H6334 0.950 1_554 S
C6355 C6354 1.373 . S
C6355 C6371 1.377 . S
C6356 C6354 1.389 . S
C6356 C6357 1.524 . S
C6356 C6370 1.377 . S
C6357 C6356 1.524 . S
C6357 C6358 1.397 . S
C6357 C6362 1.363 . S
C6358 H6335 0.950 . S
C6358 C6357 1.397 . S
C6358 C6359 1.334 . S
C6359 H6336 0.950 . S
C6359 C6358 1.334 . S
C6359 C6360 1.287 . S
C6360 C6359 1.287 . S
C6360 C6361 1.524 . S
C6360 H6379 0.913 . S
C6361 H6337 0.950 . S
C6361 C6360 1.524 . S
C6361 C6362 1.415 . S
C6362 H6338 0.950 . S
C6362 C6357 1.363 . S
C6362 C6361 1.415 . S
C6363 H6339 0.951 1_554 S
C6363 C6364 1.366 . S
C6363 C6365 1.388 . S
C6364 C6363 1.366 . S
C6364 C6368 1.385 . S
C6365 H6340 0.951 . S
C6365 C6363 1.388 . S
C6365 C6366 1.366 . S
C6366 C6365 1.366 . S
C6366 C6367 1.414 . S
C6366 C6369 1.499 . S
C6367 H6341 0.950 . S
C6367 C6366 1.414 . S
C6367 C6368 1.374 . S
C6368 H6342 0.950 . S
C6368 C6364 1.385 . S
C6368 C6367 1.374 . S
C6369 C6366 1.499 . S
C6369 C6370 1.373 . S
C6369 C6371 1.389 . S
C6370 H6343 0.950 . S
C6370 C6356 1.377 . S
C6370 C6369 1.373 . S
C6371 C6355 1.377 . S
C6371 C6369 1.389 . S
C6371 C6372 1.524 1_554 S
C6372 C6371 1.524 1_556 S
C6372 C6373 1.397 . S
C6372 C6377 1.363 . S
C6373 H6344 0.950 . S
C6373 C6372 1.397 . S
C6373 C6374 1.334 . S
C6374 H6345 0.950 . S
C6374 C6373 1.334 . S
C6374 C6375 1.287 . S
C6375 C6374 1.287 . S
C6375 C6376 1.524 . S
C6375 H6378 0.999 . S
C6376 H6346 0.950 . S
C6376 C6375 1.524 . S
C6376 C6377 1.415 . S
C6377 H6347 0.950 . S
C6377 C6372 1.363 . S
C6377 C6376 1.415 . S
H6378 C6375 0.999 . S
H6379 C6360 0.913 . S
H6380 C6398 0.951 . S
H6381 C6400 0.951 . S
H6382 C6402 0.950 . S
H6383 C6403 0.950 . S
H6384 C6405 0.950 . S
H6385 C6408 0.950 . S
H6386 C6409 0.950 . S
H6387 C6411 0.950 . S
H6388 C6412 0.950 . S
H6389 C6413 0.951 . S
H6390 C6415 0.951 . S
H6391 C6417 0.950 . S
H6392 C6418 0.950 . S
H6393 C6420 0.950 . S
H6394 C6423 0.950 . S
H6395 C6424 0.950 . S
H6396 C6426 0.950 . S
H6397 C6427 0.950 . S
C6398 H6380 0.951 . S
C6398 C6399 1.366 . S
C6398 C6400 1.388 1_545 S
C6399 C6398 1.366 . S
C6399 C6403 1.385 . S
C6400 H6381 0.951 . S
C6400 C6398 1.388 1_565 S
C6400 C6401 1.366 . S
C6401 C6400 1.366 . S
C6401 C6402 1.414 . S
C6401 C6404 1.499 . S
C6402 H6382 0.950 . S
C6402 C6401 1.414 . S
C6402 C6403 1.374 1_565 S
C6403 H6383 0.950 . S
C6403 C6399 1.385 . S
C6403 C6402 1.374 1_545 S
C6404 C6401 1.499 . S
C6404 C6405 1.373 . S
C6404 C6406 1.389 . S
C6405 H6384 0.950 . S
C6405 C6404 1.373 . S
C6405 C6421 1.377 . S
C6406 C6404 1.389 . S
C6406 C6407 1.524 . S
C6406 C6420 1.377 . S
C6407 C6406 1.524 . S
C6407 C6408 1.397 . S
C6407 C6412 1.363 . S
C6408 H6385 0.950 . S
C6408 C6407 1.397 . S
C6408 C6409 1.334 . S
C6409 H6386 0.950 . S
C6409 C6408 1.334 . S
C6409 C6410 1.287 . S
C6410 C6409 1.287 . S
C6410 C6411 1.524 . S
C6410 H6429 0.913 . S
C6411 H6387 0.950 . S
C6411 C6410 1.524 . S
C6411 C6412 1.415 . S
C6412 H6388 0.950 . S
C6412 C6407 1.363 . S
C6412 C6411 1.415 . S
C6413 H6389 0.951 . S
C6413 C6414 1.366 . S
C6413 C6415 1.388 . S
C6414 C6413 1.366 . S
C6414 C6418 1.385 . S
C6415 H6390 0.951 . S
C6415 C6413 1.388 . S
C6415 C6416 1.366 . S
C6416 C6415 1.366 . S
C6416 C6417 1.414 . S
C6416 C6419 1.499 . S
C6417 H6391 0.950 . S
C6417 C6416 1.414 . S
C6417 C6418 1.374 . S
C6418 H6392 0.950 . S
C6418 C6414 1.385 . S
C6418 C6417 1.374 . S
C6419 C6416 1.499 . S
C6419 C6420 1.373 . S
C6419 C6421 1.389 . S
C6420 H6393 0.950 . S
C6420 C6406 1.377 . S
C6420 C6419 1.373 . S
C6421 C6405 1.377 . S
C6421 C6419 1.389 . S
C6421 C6422 1.524 . S
C6422 C6421 1.524 . S
C6422 C6423 1.397 . S
C6422 C6427 1.363 . S
C6423 H6394 0.950 . S
C6423 C6422 1.397 . S
C6423 C6424 1.334 . S
C6424 H6395 0.950 . S
C6424 C6423 1.334 . S
C6424 C6425 1.287 . S
C6425 C6424 1.287 . S
C6425 C6426 1.524 . S
C6425 H6428 0.999 . S
C6426 H6396 0.950 . S
C6426 C6425 1.524 . S
C6426 C6427 1.415 . S
C6427 H6397 0.950 . S
C6427 C6422 1.363 . S
C6427 C6426 1.415 . S
H6428 C6425 0.999 . S
H6429 C6410 0.913 . S
H6430 C6448 0.951 . S
H6431 C6450 0.951 . S
H6432 C6452 0.950 . S
H6433 C6453 0.950 . S
H6434 C6455 0.950 . S
H6435 C6458 0.950 . S
H6436 C6459 0.950 . S
H6437 C6461 0.950 . S
H6438 C6462 0.950 . S
H6439 C6463 0.951 . S
H6440 C6465 0.951 . S
H6441 C6467 0.950 . S
H6442 C6468 0.950 . S
H6443 C6470 0.950 . S
H6444 C6473 0.950 . S
H6445 C6474 0.950 . S
H6446 C6476 0.950 . S
H6447 C6477 0.950 . S
C6448 H6430 0.951 . S
C6448 C6449 1.366 . S
C6448 C6450 1.388 . S
C6449 C6448 1.366 . S
C6449 C6453 1.385 . S
C6450 H6431 0.951 . S
C6450 C6448 1.388 . S
C6450 C6451 1.366 . S
C6451 C6450 1.366 . S
C6451 C6452 1.414 . S
C6451 C6454 1.499 . S
C6452 H6432 0.950 . S
C6452 C6451 1.414 . S
C6452 C6453 1.374 . S
C6453 H6433 0.950 . S
C6453 C6449 1.385 . S
C6453 C6452 1.374 . S
C6454 C6451 1.499 . S
C6454 C6455 1.373 . S
C6454 C6456 1.389 . S
C6455 H6434 0.950 . S
C6455 C6454 1.373 . S
C6455 C6471 1.377 . S
C6456 C6454 1.389 . S
C6456 C6457 1.524 . S
C6456 C6470 1.377 . S
C6457 C6456 1.524 . S
C6457 C6458 1.397 . S
C6457 C6462 1.363 . S
C6458 H6435 0.950 . S
C6458 C6457 1.397 . S
C6458 C6459 1.334 . S
C6459 H6436 0.950 . S
C6459 C6458 1.334 . S
C6459 C6460 1.287 . S
C6460 C6459 1.287 . S
C6460 C6461 1.524 . S
C6460 H6479 0.913 . S
C6461 H6437 0.950 . S
C6461 C6460 1.524 . S
C6461 C6462 1.415 . S
C6462 H6438 0.950 . S
C6462 C6457 1.363 . S
C6462 C6461 1.415 . S
C6463 H6439 0.951 . S
C6463 C6464 1.366 . S
C6463 C6465 1.388 . S
C6464 C6463 1.366 . S
C6464 C6468 1.385 . S
C6465 H6440 0.951 . S
C6465 C6463 1.388 . S
C6465 C6466 1.366 . S
C6466 C6465 1.366 . S
C6466 C6467 1.414 . S
C6466 C6469 1.499 . S
C6467 H6441 0.950 . S
C6467 C6466 1.414 . S
C6467 C6468 1.374 . S
C6468 H6442 0.950 . S
C6468 C6464 1.385 . S
C6468 C6467 1.374 . S
C6469 C6466 1.499 . S
C6469 C6470 1.373 . S
C6469 C6471 1.389 . S
C6470 H6443 0.950 . S
C6470 C6456 1.377 . S
C6470 C6469 1.373 . S
C6471 C6455 1.377 . S
C6471 C6469 1.389 . S
C6471 C6472 1.524 . S
C6472 C6471 1.524 . S
C6472 C6473 1.397 . S
C6472 C6477 1.363 . S
C6473 H6444 0.950 . S
C6473 C6472 1.397 . S
C6473 C6474 1.334 . S
C6474 H6445 0.950 . S
C6474 C6473 1.334 . S
C6474 C6475 1.287 . S
C6475 C6474 1.287 . S
C6475 C6476 1.524 . S
C6475 H6478 0.999 . S
C6476 H6446 0.950 . S
C6476 C6475 1.524 . S
C6476 C6477 1.415 . S
C6477 H6447 0.950 . S
C6477 C6472 1.363 . S
C6477 C6476 1.415 . S
H6478 C6475 0.999 . S
H6479 C6460 0.913 . S
C1699 C109 1.490 . S
C1714 C403 1.381 . S
C1749 C61 1.886 . S
C1764 C486 2.053 . S
C1799 C74 1.417 . S
C1814 C571 1.368 1_565 S
C1864 C651 1.575 . S
C1849 C96 1.731 . S
C1899 C25 1.489 1_455 S
C1914 C735 1.409 . S
C1964 C828 0.869 . S
C1949 C40 0.925 . S
C2014 C906 0.715 . S
C1999 C46 0.711 . S
C2049 C5 0.955 . S
C2064 C991 1.104 . S
C2114 C402 1.819 . S
C2099 C229 1.666 . S
C2149 C249 0.511 . S
C2164 C483 0.595 . S
C2214 C570 0.967 . S
C2199 C271 0.891 . S
C2264 C655 1.603 . S
C2249 C172 1.650 1_556 S
C2299 C236 1.947 . S
C2314 C739 1.801 . S
C2364 C831 1.234 . S
C2349 C242 1.288 . S
C2414 C903 0.688 . S
C2399 C278 0.651 . S
C2464 C990 1.371 . S
C2449 C179 1.445 . S
C2514 C399 1.354 . S
C2499 C159 1.241 . S
C2549 C285 1.701 . S
C2564 C1074 1.840 . S
C2614 C1148 2.023 . S
C2599 C333 2.155 . S
C2664 C1243 0.456 . S
C2649 C320 0.246 . S
C2699 C123 0.547 . S
C2714 C987 0.596 . S
C2749 C138 1.444 . S
C2764 C567 1.361 . S
C2799 C326 2.404 . S
C2814 C1326 2.336 . S
C2864 C1411 0.718 . S
C2849 C298 0.712 . S
C2914 C392 1.354 1_565 S
C2899 C67 1.422 . S
C2964 C1419 2.000 . S
C2949 C110 2.063 . S
C2999 C88 1.415 . S
C3014 C560 1.363 . S
C3049 C75 1.365 . S
C3064 C1332 1.471 . S
C3114 C744 1.394 . S
C3099 C11 1.435 . S
C3149 C47 0.825 . S
C3164 C1155 0.827 . S
C3214 C915 0.556 1_565 S
C3199 C32 0.621 . S
C3264 C1484 1.101 . S
C3249 C26 1.226 . S
C3314 C411 1.904 . S
C3299 C152 2.013 . S
C3364 C1416 0.584 . S
C3349 C319 0.510 . S
C3399 C124 0.989 . S
C3414 C579 0.962 . S
C3449 C284 1.698 . S
C3464 C1316 1.614 . S
C3499 C145 1.806 . S
C3514 C728 1.783 . S
C3564 C1158 1.110 . S
C3549 C312 1.160 . S
C3599 C117 0.690 . S
C3614 C912 0.603 . S
C3649 C291 1.303 . S
C3664 C1503 1.226 . S
C3699 C194 1.496 . S
C3714 C408 1.394 1_554 S
C3749 C180 1.895 . S
C3764 C1083 1.812 . S
C3799 C263 2.012 . S
C3814 C823 1.866 . S
C3849 C243 0.665 . S
C3864 C1232 0.450 . S
C3914 C1500 0.646 . S
C3899 C277 0.662 . S
C3949 C215 1.233 . S
C3964 C576 1.337 . S
C4014 C663 2.232 . S
C3999 C256 2.262 . S
C4064 C476 0.787 . S
C4049 C200 0.795 . S
C4099 C81 1.490 . S
C4114 C1579 1.379 . S
C4164 C1410 2.052 . S
C4149 C89 1.886 . S
C4199 C102 1.418 . S
C4214 C1663 1.368 . S
C4249 C68 1.731 . S
C4264 C1323 1.576 . S
C4299 C53 1.489 . S
C4314 C1071 1.409 . S
C4364 C1164 0.868 . S
C4349 C12 0.925 . S
C4414 C1242 0.714 . S
C4399 C18 0.710 . S
C4464 C1495 1.106 . S
C4449 C33 0.958 . S
C4514 C1578 1.820 . S
C4499 C257 1.668 . S
C4549 C193 0.510 . S
C4564 C1407 0.592 . S
C4614 C1662 0.966 . S
C4599 C201 0.890 . S
C4664 C1327 1.602 . S
C4649 C214 1.649 . S
C4714 C1075 1.800 . S
C4699 C264 1.947 . S
C4749 C186 1.289 . S
C4764 C1167 1.234 . S
C4814 C1239 0.690 . S
C4799 C208 0.651 . S
C4849 C221 1.446 . S
C4864 C1494 1.371 . S
C4914 C1575 1.352 . S
C4899 C313 1.243 . S
C4949 C131 1.700 . S
C4964 C738 1.841 . S
C5014 C812 2.023 . S
C4999 C151 2.162 . S
C5064 C907 0.459 . S
C5049 C166 0.244 . S
C5114 C1491 0.598 . S
C5099 C305 0.546 . S
C5149 C292 1.441 1_554 S
C5164 C1659 1.359 . S
C5214 C654 2.336 . S
C5199 C144 2.397 . S
C5264 C487 0.719 . S
C5249 C116 0.712 1_565 S
C5299 C95 1.421 . S
C5314 C1568 1.353 . S
C5364 C495 2.000 . S
C5349 C82 2.063 . S
C5399 C60 1.415 . S
C5414 C1652 1.362 . S
C5449 C103 1.366 . S
C5464 C660 1.472 . S
C5499 C39 1.435 . S
C5514 C1080 1.356 1_556 S
C5564 C819 0.825 . S
C5549 C19 0.824 . S
C5599 C4 0.622 . S
C5614 C1251 0.556 . S
C5649 C54 1.225 . S
C5664 C980 1.101 . S
C5714 C1587 1.905 . S
C5699 C334 2.013 . S
C5749 C165 0.511 . S
C5764 C492 0.583 . S
C5814 C1671 0.963 . S
C5799 C306 0.989 . S
C5849 C130 1.698 . S
C5864 C644 1.619 . S
C5899 C327 1.804 . S
C5914 C1064 1.785 . S
C5964 C822 1.111 . S
C5949 C158 1.160 . S
C5999 C299 0.690 . S
C6014 C1248 0.600 . S
C6064 C999 1.223 . S
C6049 C137 1.303 . S
C6114 C1584 1.394 . S
C6099 C250 1.496 . S
C6164 C747 1.813 1_655 S
C6149 C222 1.895 . S
C6199 C235 2.012 . S
C6214 C1159 1.866 . S
C6264 C896 0.450 . S
C6249 C187 0.661 . S
C6299 C207 0.661 . S
C6314 C996 0.646 . S
C6349 C173 1.233 . S
C6364 C1668 1.342 . S
C6414 C1335 2.233 . S
C6399 C228 2.262 . S
C6464 C1400 0.786 . S
C6449 C270 0.796 . S
