# Generated by pormake.
# Topology gar, (4,6)-cn, num edge types: 1
# Building blocks:
#     Node 0, Type 0, BuildingBlock: QUQFOY_clean_sbu_3, # of connection points: 4
#     Node 1, Type 0, BuildingBlock: QUQFOY_clean_sbu_3, # of connection points: 4
#     Node 2, Type 0, BuildingBlock: QUQFOY_clean_sbu_3, # of connection points: 4
#     Node 3, Type 0, BuildingBlock: QUQFOY_clean_sbu_3, # of connection points: 4
#     Node 4, Type 0, BuildingBlock: QUQFOY_clean_sbu_3, # of connection points: 4
#     Node 5, Type 0, BuildingBlock: QUQFOY_clean_sbu_3, # of connection points: 4
#     Node 6, Type 0, BuildingBlock: QUQFOY_clean_sbu_3, # of connection points: 4
#     Node 7, Type 0, BuildingBlock: QUQFOY_clean_sbu_3, # of connection points: 4
#     Node 8, Type 0, BuildingBlock: QUQFOY_clean_sbu_3, # of connection points: 4
#     Node 9, Type 0, BuildingBlock: QUQFOY_clean_sbu_3, # of connection points: 4
#     Node 10, Type 0, BuildingBlock: QUQFOY_clean_sbu_3, # of connection points: 4
#     Node 11, Type 0, BuildingBlock: QUQFOY_clean_sbu_3, # of connection points: 4
#     Node 12, Type 0, BuildingBlock: QUQFOY_clean_sbu_3, # of connection points: 4
#     Node 13, Type 0, BuildingBlock: QUQFOY_clean_sbu_3, # of connection points: 4
#     Node 14, Type 0, BuildingBlock: QUQFOY_clean_sbu_3, # of connection points: 4
#     Node 15, Type 0, BuildingBlock: QUQFOY_clean_sbu_3, # of connection points: 4
#     Node 16, Type 0, BuildingBlock: QUQFOY_clean_sbu_3, # of connection points: 4
#     Node 17, Type 0, BuildingBlock: QUQFOY_clean_sbu_3, # of connection points: 4
#     Node 18, Type 0, BuildingBlock: QUQFOY_clean_sbu_3, # of connection points: 4
#     Node 19, Type 0, BuildingBlock: QUQFOY_clean_sbu_3, # of connection points: 4
#     Node 20, Type 0, BuildingBlock: QUQFOY_clean_sbu_3, # of connection points: 4
#     Node 21, Type 0, BuildingBlock: QUQFOY_clean_sbu_3, # of connection points: 4
#     Node 22, Type 0, BuildingBlock: QUQFOY_clean_sbu_3, # of connection points: 4
#     Node 23, Type 0, BuildingBlock: QUQFOY_clean_sbu_3, # of connection points: 4
#     Node 24, Type 1, BuildingBlock: NUHQIS_clean_sbu_0, # of connection points: 6
#     Node 25, Type 1, BuildingBlock: NUHQIS_clean_sbu_0, # of connection points: 6
#     Node 26, Type 1, BuildingBlock: NUHQIS_clean_sbu_0, # of connection points: 6
#     Node 27, Type 1, BuildingBlock: NUHQIS_clean_sbu_0, # of connection points: 6
#     Node 28, Type 1, BuildingBlock: NUHQIS_clean_sbu_0, # of connection points: 6
#     Node 29, Type 1, BuildingBlock: NUHQIS_clean_sbu_0, # of connection points: 6
#     Node 30, Type 1, BuildingBlock: NUHQIS_clean_sbu_0, # of connection points: 6
#     Node 31, Type 1, BuildingBlock: NUHQIS_clean_sbu_0, # of connection points: 6
#     Node 32, Type 1, BuildingBlock: NUHQIS_clean_sbu_0, # of connection points: 6
#     Node 33, Type 1, BuildingBlock: NUHQIS_clean_sbu_0, # of connection points: 6
#     Node 34, Type 1, BuildingBlock: NUHQIS_clean_sbu_0, # of connection points: 6
#     Node 35, Type 1, BuildingBlock: NUHQIS_clean_sbu_0, # of connection points: 6
#     Node 36, Type 1, BuildingBlock: NUHQIS_clean_sbu_0, # of connection points: 6
#     Node 37, Type 1, BuildingBlock: NUHQIS_clean_sbu_0, # of connection points: 6
#     Node 38, Type 1, BuildingBlock: NUHQIS_clean_sbu_0, # of connection points: 6
#     Node 39, Type 1, BuildingBlock: NUHQIS_clean_sbu_0, # of connection points: 6
#     Edge 40, Type (0, 1), BuildingBlock: UVAHIK_clean_linker_0, # of connection points: 2
#     Edge 41, Type (0, 1), BuildingBlock: UVAHIK_clean_linker_0, # of connection points: 2
#     Edge 42, Type (0, 1), BuildingBlock: UVAHIK_clean_linker_0, # of connection points: 2
#     Edge 43, Type (0, 1), BuildingBlock: UVAHIK_clean_linker_0, # of connection points: 2
#     Edge 44, Type (0, 1), BuildingBlock: UVAHIK_clean_linker_0, # of connection points: 2
#     Edge 45, Type (0, 1), BuildingBlock: UVAHIK_clean_linker_0, # of connection points: 2
#     Edge 46, Type (0, 1), BuildingBlock: UVAHIK_clean_linker_0, # of connection points: 2
#     Edge 47, Type (0, 1), BuildingBlock: UVAHIK_clean_linker_0, # of connection points: 2
#     Edge 48, Type (0, 1), BuildingBlock: UVAHIK_clean_linker_0, # of connection points: 2
#     Edge 49, Type (0, 1), BuildingBlock: UVAHIK_clean_linker_0, # of connection points: 2
#     Edge 50, Type (0, 1), BuildingBlock: UVAHIK_clean_linker_0, # of connection points: 2
#     Edge 51, Type (0, 1), BuildingBlock: UVAHIK_clean_linker_0, # of connection points: 2
#     Edge 52, Type (0, 1), BuildingBlock: UVAHIK_clean_linker_0, # of connection points: 2
#     Edge 53, Type (0, 1), BuildingBlock: UVAHIK_clean_linker_0, # of connection points: 2
#     Edge 54, Type (0, 1), BuildingBlock: UVAHIK_clean_linker_0, # of connection points: 2
#     Edge 55, Type (0, 1), BuildingBlock: UVAHIK_clean_linker_0, # of connection points: 2
#     Edge 56, Type (0, 1), BuildingBlock: UVAHIK_clean_linker_0, # of connection points: 2
#     Edge 57, Type (0, 1), BuildingBlock: UVAHIK_clean_linker_0, # of connection points: 2
#     Edge 58, Type (0, 1), BuildingBlock: UVAHIK_clean_linker_0, # of connection points: 2
#     Edge 59, Type (0, 1), BuildingBlock: UVAHIK_clean_linker_0, # of connection points: 2
#     Edge 60, Type (0, 1), BuildingBlock: UVAHIK_clean_linker_0, # of connection points: 2
#     Edge 61, Type (0, 1), BuildingBlock: UVAHIK_clean_linker_0, # of connection points: 2
#     Edge 62, Type (0, 1), BuildingBlock: UVAHIK_clean_linker_0, # of connection points: 2
#     Edge 63, Type (0, 1), BuildingBlock: UVAHIK_clean_linker_0, # of connection points: 2
#     Edge 64, Type (0, 1), BuildingBlock: UVAHIK_clean_linker_0, # of connection points: 2
#     Edge 65, Type (0, 1), BuildingBlock: UVAHIK_clean_linker_0, # of connection points: 2
#     Edge 66, Type (0, 1), BuildingBlock: UVAHIK_clean_linker_0, # of connection points: 2
#     Edge 67, Type (0, 1), BuildingBlock: UVAHIK_clean_linker_0, # of connection points: 2
#     Edge 68, Type (0, 1), BuildingBlock: UVAHIK_clean_linker_0, # of connection points: 2
#     Edge 69, Type (0, 1), BuildingBlock: UVAHIK_clean_linker_0, # of connection points: 2
#     Edge 70, Type (0, 1), BuildingBlock: UVAHIK_clean_linker_0, # of connection points: 2
#     Edge 71, Type (0, 1), BuildingBlock: UVAHIK_clean_linker_0, # of connection points: 2
#     Edge 72, Type (0, 1), BuildingBlock: UVAHIK_clean_linker_0, # of connection points: 2
#     Edge 73, Type (0, 1), BuildingBlock: UVAHIK_clean_linker_0, # of connection points: 2
#     Edge 74, Type (0, 1), BuildingBlock: UVAHIK_clean_linker_0, # of connection points: 2
#     Edge 75, Type (0, 1), BuildingBlock: UVAHIK_clean_linker_0, # of connection points: 2
#     Edge 76, Type (0, 1), BuildingBlock: UVAHIK_clean_linker_0, # of connection points: 2
#     Edge 77, Type (0, 1), BuildingBlock: UVAHIK_clean_linker_0, # of connection points: 2
#     Edge 78, Type (0, 1), BuildingBlock: UVAHIK_clean_linker_0, # of connection points: 2
#     Edge 79, Type (0, 1), BuildingBlock: UVAHIK_clean_linker_0, # of connection points: 2
#     Edge 80, Type (0, 1), BuildingBlock: UVAHIK_clean_linker_0, # of connection points: 2
#     Edge 81, Type (0, 1), BuildingBlock: UVAHIK_clean_linker_0, # of connection points: 2
#     Edge 82, Type (0, 1), BuildingBlock: UVAHIK_clean_linker_0, # of connection points: 2
#     Edge 83, Type (0, 1), BuildingBlock: UVAHIK_clean_linker_0, # of connection points: 2
#     Edge 84, Type (0, 1), BuildingBlock: UVAHIK_clean_linker_0, # of connection points: 2
#     Edge 85, Type (0, 1), BuildingBlock: UVAHIK_clean_linker_0, # of connection points: 2
#     Edge 86, Type (0, 1), BuildingBlock: UVAHIK_clean_linker_0, # of connection points: 2
#     Edge 87, Type (0, 1), BuildingBlock: UVAHIK_clean_linker_0, # of connection points: 2
#     Edge 88, Type (0, 1), BuildingBlock: UVAHIK_clean_linker_0, # of connection points: 2
#     Edge 89, Type (0, 1), BuildingBlock: UVAHIK_clean_linker_0, # of connection points: 2
#     Edge 90, Type (0, 1), BuildingBlock: UVAHIK_clean_linker_0, # of connection points: 2
#     Edge 91, Type (0, 1), BuildingBlock: UVAHIK_clean_linker_0, # of connection points: 2
#     Edge 92, Type (0, 1), BuildingBlock: UVAHIK_clean_linker_0, # of connection points: 2
#     Edge 93, Type (0, 1), BuildingBlock: UVAHIK_clean_linker_0, # of connection points: 2
#     Edge 94, Type (0, 1), BuildingBlock: UVAHIK_clean_linker_0, # of connection points: 2
#     Edge 95, Type (0, 1), BuildingBlock: UVAHIK_clean_linker_0, # of connection points: 2
#     Edge 96, Type (0, 1), BuildingBlock: UVAHIK_clean_linker_0, # of connection points: 2
#     Edge 97, Type (0, 1), BuildingBlock: UVAHIK_clean_linker_0, # of connection points: 2
#     Edge 98, Type (0, 1), BuildingBlock: UVAHIK_clean_linker_0, # of connection points: 2
#     Edge 99, Type (0, 1), BuildingBlock: UVAHIK_clean_linker_0, # of connection points: 2
#     Edge 100, Type (0, 1), BuildingBlock: UVAHIK_clean_linker_0, # of connection points: 2
#     Edge 101, Type (0, 1), BuildingBlock: UVAHIK_clean_linker_0, # of connection points: 2
#     Edge 102, Type (0, 1), BuildingBlock: UVAHIK_clean_linker_0, # of connection points: 2
#     Edge 103, Type (0, 1), BuildingBlock: UVAHIK_clean_linker_0, # of connection points: 2
#     Edge 104, Type (0, 1), BuildingBlock: UVAHIK_clean_linker_0, # of connection points: 2
#     Edge 105, Type (0, 1), BuildingBlock: UVAHIK_clean_linker_0, # of connection points: 2
#     Edge 106, Type (0, 1), BuildingBlock: UVAHIK_clean_linker_0, # of connection points: 2
#     Edge 107, Type (0, 1), BuildingBlock: UVAHIK_clean_linker_0, # of connection points: 2
#     Edge 108, Type (0, 1), BuildingBlock: UVAHIK_clean_linker_0, # of connection points: 2
#     Edge 109, Type (0, 1), BuildingBlock: UVAHIK_clean_linker_0, # of connection points: 2
#     Edge 110, Type (0, 1), BuildingBlock: UVAHIK_clean_linker_0, # of connection points: 2
#     Edge 111, Type (0, 1), BuildingBlock: UVAHIK_clean_linker_0, # of connection points: 2
#     Edge 112, Type (0, 1), BuildingBlock: UVAHIK_clean_linker_0, # of connection points: 2
#     Edge 113, Type (0, 1), BuildingBlock: UVAHIK_clean_linker_0, # of connection points: 2
#     Edge 114, Type (0, 1), BuildingBlock: UVAHIK_clean_linker_0, # of connection points: 2
#     Edge 115, Type (0, 1), BuildingBlock: UVAHIK_clean_linker_0, # of connection points: 2
#     Edge 116, Type (0, 1), BuildingBlock: UVAHIK_clean_linker_0, # of connection points: 2
#     Edge 117, Type (0, 1), BuildingBlock: UVAHIK_clean_linker_0, # of connection points: 2
#     Edge 118, Type (0, 1), BuildingBlock: UVAHIK_clean_linker_0, # of connection points: 2
#     Edge 119, Type (0, 1), BuildingBlock: UVAHIK_clean_linker_0, # of connection points: 2
#     Edge 120, Type (0, 1), BuildingBlock: UVAHIK_clean_linker_0, # of connection points: 2
#     Edge 121, Type (0, 1), BuildingBlock: UVAHIK_clean_linker_0, # of connection points: 2
#     Edge 122, Type (0, 1), BuildingBlock: UVAHIK_clean_linker_0, # of connection points: 2
#     Edge 123, Type (0, 1), BuildingBlock: UVAHIK_clean_linker_0, # of connection points: 2
#     Edge 124, Type (0, 1), BuildingBlock: UVAHIK_clean_linker_0, # of connection points: 2
#     Edge 125, Type (0, 1), BuildingBlock: UVAHIK_clean_linker_0, # of connection points: 2
#     Edge 126, Type (0, 1), BuildingBlock: UVAHIK_clean_linker_0, # of connection points: 2
#     Edge 127, Type (0, 1), BuildingBlock: UVAHIK_clean_linker_0, # of connection points: 2
#     Edge 128, Type (0, 1), BuildingBlock: UVAHIK_clean_linker_0, # of connection points: 2
#     Edge 129, Type (0, 1), BuildingBlock: UVAHIK_clean_linker_0, # of connection points: 2
#     Edge 130, Type (0, 1), BuildingBlock: UVAHIK_clean_linker_0, # of connection points: 2
#     Edge 131, Type (0, 1), BuildingBlock: UVAHIK_clean_linker_0, # of connection points: 2
#     Edge 132, Type (0, 1), BuildingBlock: UVAHIK_clean_linker_0, # of connection points: 2
#     Edge 133, Type (0, 1), BuildingBlock: UVAHIK_clean_linker_0, # of connection points: 2
#     Edge 134, Type (0, 1), BuildingBlock: UVAHIK_clean_linker_0, # of connection points: 2
#     Edge 135, Type (0, 1), BuildingBlock: UVAHIK_clean_linker_0, # of connection points: 2
# Relax obj value: 0.168
# Max RMSD: 0.280
# Mean RMSD: 0.129
data_MOF--net-gar--node1-QUQFOY_clean_sbu_3--node2-NUHQIS_clean_sbu_0--edge1-UVAHIK_clean_linker_0
_symmetry_space_group_name_H-M    P1
_symmetry_Int_Tables_number       1
_symmetry_cell_setting            triclinic
loop_
_symmetry_equiv_pos_as_xyz
'x, y, z'
_cell_length_a     73.891025
_cell_length_b     77.601918
_cell_length_c     73.837816
_cell_angle_alpha  93.956969
_cell_angle_beta   96.007432
_cell_angle_gamma 100.38004
loop_
_atom_site_label
_atom_site_type_symbol
_atom_site_fract_x
_atom_site_fract_y
_atom_site_fract_z
_atom_type_partial_charge
C0 C 0.02122 0.27871 0.37648 0.0
O1 O 0.03269 0.28953 0.36922 0.0
Cd2 Cd 0.06493 0.29937 0.37937 0.0
O3 O 0.02719 0.27115 0.39039 0.0
Cd4 Cd 0.06088 0.27221 0.40962 0.0
C5 C 0.06244 0.31972 0.42203 0.0
O6 O 0.07903 0.27366 0.38151 0.0
O7 O 0.09646 0.2776 0.40683 0.0
O8 O 0.05262 0.2381 0.411 0.0
C9 C 0.09547 0.27579 0.38949 0.0
O10 O 0.06544 0.32095 0.40545 0.0
C11 C 0.05662 0.23703 0.42803 0.0
O12 O 0.06001 0.30422 0.428 0.0
O13 O 0.06222 0.25201 0.43709 0.0
C14 C 1.00348 0.77958 0.67365 0.0
O15 O 0.01328 0.76965 0.6813 0.0
Cd16 Cd 0.04353 0.76539 0.67408 0.0
O17 O 0.00977 0.7881 0.66041 0.0
Cd18 Cd 0.04139 0.79075 0.64297 0.0
C19 C 0.03933 0.74294 0.63139 0.0
O20 O 0.06455 0.79269 0.67201 0.0
O21 O 0.07596 0.78979 0.64682 0.0
O22 O 0.04322 0.8246 0.64146 0.0
C23 C 0.07892 0.79177 0.66416 0.0
O24 O 0.04201 0.74294 0.64871 0.0
C25 C 0.04261 0.82573 0.62431 0.0
O26 O 0.0374 0.75762 0.6246 0.0
O27 O 0.04119 0.81086 0.61519 0.0
C28 C 0.52301 0.77967 0.87884 0.0
O29 O 0.53445 0.79075 0.87181 0.0
Cd30 Cd 0.56664 0.80073 0.8822 0.0
O31 O 0.529 0.77189 0.89257 0.0
Cd32 Cd 0.56256 0.77263 0.91199 0.0
C33 C 0.56345 0.81976 0.92537 0.0
O34 O 0.58062 0.77488 0.88364 0.0
O35 O 0.59794 0.7769 0.90886 0.0
O36 O 0.54975 0.73914 0.91453 0.0
C37 C 0.59701 0.77626 0.89154 0.0
O38 O 0.56637 0.82143 0.90883 0.0
C39 C 0.55792 0.73734 0.93015 0.0
O40 O 0.5614 0.80413 0.93103 0.0
O41 O 0.56783 0.75163 0.93794 0.0
C42 C 0.50205 0.27866 0.17215 0.0
O43 O 0.51165 0.26859 0.17985 0.0
Cd44 Cd 0.54237 0.26489 0.17362 0.0
O45 O 0.50862 0.28748 0.15924 0.0
Cd46 Cd 0.54015 0.29041 0.14192 0.0
C47 C 0.53839 0.24258 0.13086 0.0
O48 O 0.56304 0.29227 0.17098 0.0
O49 O 0.5746 0.28963 0.1458 0.0
O50 O 0.54188 0.32425 0.14053 0.0
C51 C 0.57744 0.29143 0.16314 0.0
O52 O 0.54102 0.24269 0.14818 0.0
C53 C 0.54143 0.32545 0.1234 0.0
O54 O 0.53644 0.25719 0.1239 0.0
O55 O 0.5401 0.31061 0.11422 0.0
C56 C 0.06898 0.82934 0.19033 0.0
O57 O 0.08417 0.82825 0.19958 0.0
Cd58 Cd 0.11355 0.83197 0.18806 0.0
O59 O 0.06852 0.83349 0.1739 0.0
Cd60 Cd 0.08909 0.84191 0.15048 0.0
C61 C 0.10061 0.80133 0.15053 0.0
O62 O 0.11383 0.85737 0.17181 0.0
O63 O 0.12122 0.85414 0.14472 0.0
O64 O 0.0702 0.86296 0.14143 0.0
C65 C 0.12645 0.85931 0.16144 0.0
O66 O 0.11028 0.80596 0.16603 0.0
C67 C 0.06725 0.85717 0.12465 0.0
O68 O 0.09126 0.81163 0.1428 0.0
O69 O 0.07477 0.84436 0.11986 0.0
C70 C 0.4933 0.73663 0.36495 0.0
O71 O 0.50824 0.74266 0.35856 0.0
Cd72 Cd 0.53893 0.74121 0.37085 0.0
O73 O 0.49351 0.72888 0.37965 0.0
Cd74 Cd 0.51783 0.72216 0.40262 0.0
C75 C 0.5385 0.76526 0.41123 0.0
O76 O 0.53626 0.71238 0.3807 0.0
O77 O 0.54981 0.71649 0.40817 0.0
O78 O 0.49993 0.69435 0.40946 0.0
C79 C 0.5503 0.71134 0.3916 0.0
O80 O 0.54548 0.76419 0.39623 0.0
C81 C 0.5018 0.69837 0.42662 0.0
O82 O 0.52739 0.75228 0.41594 0.0
O83 O 0.51003 0.71388 0.43235 0.0
C84 C 0.5642 0.31353 0.68428 0.0
O85 O 0.57867 0.31186 0.6944 0.0
Cd86 Cd 0.60966 0.32249 0.68855 0.0
O87 O 0.56529 0.32214 0.67021 0.0
Cd88 Cd 0.58857 0.3395 0.6536 0.0
C89 C 0.60526 0.3022 0.6447 0.0
O90 O 0.60874 0.35141 0.68038 0.0
O91 O 0.62089 0.35604 0.65573 0.0
O92 O 0.56684 0.35912 0.6474 0.0
C93 C 0.62301 0.3573 0.67306 0.0
O94 O 0.61255 0.30356 0.6613 0.0
C95 C 0.56849 0.35883 0.63042 0.0
O96 O 0.59531 0.31297 0.639 0.0
O97 O 0.57968 0.34978 0.62446 0.0
C98 C 0.99094 0.22512 0.86023 0.0
O99 O 1.00574 0.23221 0.85425 0.0
Cd100 Cd 0.03593 0.23772 0.87048 0.0
O101 O 0.99128 0.22003 0.87633 0.0
Cd102 Cd 0.01566 0.21982 0.90229 0.0
C103 C 0.02735 0.26418 0.9063 0.0
O104 O 0.03726 0.21073 0.88363 0.0
O105 O 0.04953 0.22085 0.91067 0.0
O106 O 1.00023 0.19178 0.91115 0.0
C107 C 0.0514 0.21341 0.89533 0.0
O108 O 0.0365 0.26297 0.89271 0.0
C109 C 1.00139 0.19698 0.928 0.0
O110 O 0.0177 0.25059 0.91155 0.0
O111 O 1.00831 0.21307 0.93262 0.0
C112 C 0.51903 0.0679 0.30813 0.0
O113 O 0.52454 0.05883 0.29555 0.0
Cd114 Cd 0.50853 0.04736 0.26601 0.0
O115 O 0.50334 0.07262 0.30576 0.0
Cd116 Cd 0.47661 0.0687 0.28161 0.0
C117 C 0.47032 0.02409 0.28236 0.0
O118 O 0.49224 0.06863 0.25477 0.0
O119 O 0.4629 0.05892 0.25016 0.0
O120 O 0.46883 0.098 0.28416 0.0
C121 C 0.47825 0.06146 0.24362 0.0
O122 O 0.48418 0.02406 0.27341 0.0
C123 C 0.45306 0.09271 0.28939 0.0
O124 O 0.46576 0.03843 0.28805 0.0
O125 O 0.44878 0.07648 0.2917 0.0
C126 C 0.35286 0.13197 0.52657 0.0
O127 O 0.34148 0.12597 0.53728 0.0
Cd128 Cd 0.31908 0.14486 0.53312 0.0
O129 O 0.34853 0.14439 0.51717 0.0
Cd130 Cd 0.31642 0.15857 0.51636 0.0
C131 C 0.31582 0.17321 0.56283 0.0
O132 O 0.29143 0.12938 0.51541 0.0
O133 O 0.28165 0.15344 0.5193 0.0
O134 O 0.31396 0.16079 0.48143 0.0
C135 C 0.27758 0.13678 0.5167 0.0
O136 O 0.31297 0.15661 0.56268 0.0
C137 C 0.31621 0.17741 0.48126 0.0
O138 O 0.31949 0.17961 0.54771 0.0
O139 O 0.31877 0.18565 0.49711 0.0
C140 C 0.15754 0.03699 0.85798 0.0
O141 O 0.14605 0.04406 0.84844 0.0
Cd142 Cd 0.1489 0.05161 0.81812 0.0
O143 O 0.17251 0.03446 0.85205 0.0
Cd144 Cd 0.18775 0.0398 0.82424 0.0
C145 C 0.18802 0.08342 0.8254 0.0
O146 O 0.15923 0.0264 0.80547 0.0
O147 O 0.18179 0.03624 0.79053 0.0
O148 O 0.20157 0.01538 0.83354 0.0
C149 C 0.16545 0.02767 0.79024 0.0
O150 O 0.17074 0.0794 0.82003 0.0
C151 C 0.21715 0.02085 0.82813 0.0
O152 O 0.19728 0.07156 0.82917 0.0
O153 O 0.21932 0.03558 0.82139 0.0
C154 C 0.33365 0.90997 0.03121 0.0
O155 O 0.32217 0.91784 0.02274 0.0
Cd156 Cd 0.28977 0.90818 0.01729 0.0
O157 O 0.3281 0.8953 0.03766 0.0
Cd158 Cd 0.29723 0.87528 0.03921 0.0
C159 C 0.28876 0.86854 0.99253 0.0
O160 O 0.28329 0.90019 0.04674 0.0
O161 O 0.26365 0.87593 0.042 0.0
O162 O 0.31122 0.87091 0.0696 0.0
C163 C 0.26692 0.89223 0.04716 0.0
O164 O 0.28597 0.88427 0.99336 0.0
C165 C 0.30472 0.85459 0.06913 0.0
O166 O 0.2936 0.86169 0.00707 0.0
O167 O 0.29523 0.84742 0.05429 0.0
C168 C 0.31555 0.43424 0.02441 0.0
O169 O 0.30478 0.44106 0.01374 0.0
Cd170 Cd 0.27202 0.43122 0.00663 0.0
O171 O 0.3086 0.42135 0.03327 0.0
Cd172 Cd 0.27421 0.40304 0.03476 0.0
C173 C 0.27274 0.38992 0.98663 0.0
O174 O 0.25707 0.42917 0.03426 0.0
O175 O 0.23909 0.40415 0.02991 0.0
O176 O 0.28238 0.40098 0.0694 0.0
C177 C 0.24046 0.42074 0.03225 0.0
O178 O 0.27003 0.40549 0.98484 0.0
C179 C 0.27677 0.38455 0.06998 0.0
O180 O 0.27516 0.38493 0.00288 0.0
O181 O 0.27019 0.37635 0.05447 0.0
C182 C 0.81821 0.14513 0.01963 0.0
O183 O 0.80583 0.13529 0.02685 0.0
Cd184 Cd 0.77686 0.14222 0.0324 0.0
O185 O 0.81541 0.15982 0.01425 0.0
Cd186 Cd 0.7894 0.17682 0.01239 0.0
C187 C 0.79208 0.18199 0.0587 0.0
O188 O 0.76496 0.15126 0.00416 0.0
O189 O 0.75564 0.17492 0.01272 0.0
O190 O 0.79702 0.18079 0.98162 0.0
C191 C 0.75155 0.15907 0.00588 0.0
O192 O 0.78444 0.16579 0.05704 0.0
C193 C 0.79565 0.19683 0.98152 0.0
O194 O 0.79652 0.1898 0.04468 0.0
O195 O 0.79222 0.20424 0.99636 0.0
C196 C 0.07114 0.46201 0.27579 0.0
O197 O 0.05716 0.46315 0.26475 0.0
Cd198 Cd 0.07278 0.47434 0.2389 0.0
O199 O 0.08284 0.45404 0.26926 0.0
Cd200 Cd 0.11363 0.46876 0.26589 0.0
C201 C 0.10154 0.50971 0.26543 0.0
O202 O 0.09967 0.46097 0.23573 0.0
O203 O 0.12817 0.47394 0.23755 0.0
O204 O 0.1269 0.44531 0.27933 0.0
C205 C 0.11284 0.46832 0.22761 0.0
O206 O 0.08842 0.50415 0.25249 0.0
C207 C 0.14068 0.45565 0.2884 0.0
O208 O 0.11097 0.4993 0.27295 0.0
O209 O 0.14173 0.472 0.28695 0.0
C210 C 0.81541 0.93354 0.52315 0.0
O211 O 0.80475 0.9402 0.5122 0.0
Cd212 Cd 0.77196 0.93051 0.50496 0.0
O213 O 0.80836 0.92077 0.53211 0.0
Cd214 Cd 0.77397 0.90239 0.53335 0.0
C215 C 0.77232 0.88904 0.4852 0.0
O216 O 0.75716 0.9288 0.53271 0.0
O217 O 0.73893 0.90391 0.52931 0.0
O218 O 0.78319 0.89989 0.56772 0.0
C219 C 0.7405 0.92054 0.53115 0.0
O220 O 0.76974 0.90463 0.4833 0.0
C221 C 0.77666 0.88363 0.56835 0.0
O222 O 0.77474 0.88414 0.50149 0.0
O223 O 0.76907 0.87573 0.55299 0.0
C224 C 0.93266 1.00231 0.23891 0.0
O225 O 0.94068 0.99731 0.22563 0.0
Cd226 Cd 0.92861 0.99818 0.19451 0.0
O227 O 0.91766 0.00817 0.23606 0.0
Cd228 Cd 0.89587 0.01418 0.21047 0.0
C229 C 0.88696 0.97076 0.1952 0.0
O230 O 0.92084 0.027 0.19474 0.0
O231 O 0.89392 0.025 0.17957 0.0
O232 O 0.89216 0.03814 0.23176 0.0
C233 C 0.91127 0.03054 0.18077 0.0
O234 O 0.90303 0.97288 0.18998 0.0
C235 C 0.87464 0.03569 0.22849 0.0
O236 O 0.88136 0.98352 0.20319 0.0
O237 O 0.86687 0.02306 0.21679 0.0
C238 C 0.32453 0.64798 0.52213 0.0
O239 O 0.31391 0.63812 0.53118 0.0
Cd240 Cd 0.28424 0.64267 0.53768 0.0
O241 O 0.31982 0.66165 0.51587 0.0
Cd242 Cd 0.29307 0.67728 0.51552 0.0
C243 C 0.29744 0.68346 0.56206 0.0
O244 O 0.27033 0.65046 0.50974 0.0
O245 O 0.25919 0.67376 0.51556 0.0
O246 O 0.29803 0.67958 0.48396 0.0
C247 C 0.25621 0.6574 0.51074 0.0
O248 O 0.29107 0.66702 0.56104 0.0
C249 C 0.29621 0.69544 0.48315 0.0
O250 O 0.3006 0.69117 0.54764 0.0
O251 O 0.29404 0.70372 0.49802 0.0
C252 C 0.43601 0.50219 0.73712 0.0
O253 O 0.4438 0.49724 0.72366 0.0
Cd254 Cd 0.43076 0.49866 0.69289 0.0
O255 O 0.4211 0.50822 0.73451 0.0
Cd256 Cd 0.39905 0.51506 0.70971 0.0
C257 C 0.38872 0.47193 0.69396 0.0
O258 O 0.42371 0.52785 0.69334 0.0
O259 O 0.39637 0.52621 0.67912 0.0
O260 O 0.39708 0.53826 0.73262 0.0
C261 C 0.4137 0.53159 0.67976 0.0
O262 O 0.40467 0.47379 0.6885 0.0
C263 C 0.37969 0.53716 0.72944 0.0
O264 O 0.38355 0.48477 0.70229 0.0
O265 O 0.3711 0.52561 0.71695 0.0
C266 C 0.58333 0.99204 0.77589 0.0
O267 O 0.57241 0.99155 0.76129 0.0
Cd268 Cd 0.57749 0.981 0.73139 0.0
O269 O 0.59767 0.98499 0.77605 0.0
Cd270 Cd 0.6138 0.96817 0.7553 0.0
C271 C 0.62141 1.00622 0.73391 0.0
O272 O 0.58712 0.95385 0.73519 0.0
O273 O 0.61293 0.9521 0.72506 0.0
O274 O 0.62168 0.94667 0.77629 0.0
C275 C 0.59536 0.94895 0.72214 0.0
O276 O 0.60451 1.00319 0.72684 0.0
C277 C 0.63906 0.95236 0.77733 0.0
O278 O 0.62755 0.99588 0.74466 0.0
O279 O 0.64443 0.96515 0.76811 0.0
C280 C 0.85258 0.63127 0.02488 0.0
O281 O 0.84091 0.62487 0.03515 0.0
Cd282 Cd 0.81881 0.64408 0.03136 0.0
O283 O 0.8485 0.64405 0.0159 0.0
Cd284 Cd 0.8162 0.65804 0.01498 0.0
C285 C 0.81598 0.67216 0.06158 0.0
O286 O 0.79113 0.62881 0.01368 0.0
O287 O 0.78149 0.65285 0.01825 0.0
O288 O 0.81501 0.66068 0.9801 0.0
C289 C 0.77734 0.63623 0.01534 0.0
O290 O 0.81291 0.65553 0.06113 0.0
C291 C 0.81571 0.67716 0.98001 0.0
O292 O 0.81971 0.67876 0.04657 0.0
O293 O 0.8169 0.68514 0.99587 0.0
C294 C 0.01055 0.57989 0.81201 0.0
O295 O 0.02017 0.5738 0.80069 0.0
Cd296 Cd 0.01076 0.56266 0.76939 0.0
O297 O 0.99394 0.58163 0.80708 0.0
Cd298 Cd 0.9713 0.57636 0.77923 0.0
C299 C 0.97374 0.5325 0.77875 0.0
O300 O 0.99267 0.58239 0.75753 0.0
O301 O 0.96517 0.57066 0.74567 0.0
O302 O 0.9563 0.60155 0.7853 0.0
C303 C 0.98202 0.5755 0.74335 0.0
O304 O 0.98922 0.53507 0.7722 0.0
C305 C 0.94032 0.59199 0.78509 0.0
O306 O 0.96583 0.54523 0.78309 0.0
O307 O 0.93915 0.57546 0.78252 0.0
C308 C 0.83047 0.41378 0.52303 0.0
O309 O 0.81818 0.42086 0.51472 0.0
Cd310 Cd 0.78598 0.40974 0.51168 0.0
O311 O 0.82594 0.39955 0.53058 0.0
Cd312 Cd 0.79653 0.37893 0.53498 0.0
C313 C 0.78594 0.36937 0.48884 0.0
O314 O 0.78175 0.40331 0.54215 0.0
O315 O 0.76321 0.37833 0.53942 0.0
O316 O 0.81339 0.37727 0.56489 0.0
C317 C 0.76591 0.39475 0.54389 0.0
O318 O 0.78222 0.38477 0.48904 0.0
C319 C 0.80719 0.36113 0.56617 0.0
O320 O 0.79201 0.36357 0.5036 0.0
O321 O 0.79663 0.3528 0.55244 0.0
C322 C 0.65918 0.53295 0.35476 0.0
O323 O 0.64832 0.53977 0.34418 0.0
Cd324 Cd 0.65355 0.54733 0.31432 0.0
O325 O 0.67479 0.53059 0.35022 0.0
Cd326 Cd 0.69234 0.53611 0.32371 0.0
C327 C 0.69184 0.57978 0.32433 0.0
O328 O 0.66551 0.52264 0.30279 0.0
O329 O 0.68893 0.53388 0.28976 0.0
O330 O 0.70594 0.51134 0.33286 0.0
C331 C 0.67265 0.52483 0.28816 0.0
O332 O 0.67494 0.57549 0.31753 0.0
C333 C 0.72225 0.51786 0.32985 0.0
O334 O 0.70098 0.56808 0.32908 0.0
O335 O 0.72478 0.53316 0.32438 0.0
Tb336 Tb 0.03444 0.0278 0.01235 0.0
Eu337 Eu 0.06957 0.03773 0.04549 0.0
C338 C 0.0725 0.01839 0.00643 0.0
C339 C 0.04423 0.99911 0.03738 0.0
C340 C 0.99432 0.03646 0.98448 0.0
C341 C 0.96294 0.0405 0.97544 0.0
C342 C 0.9764 0.0299 0.97575 0.0
C343 C 0.99882 0.05391 0.9924 0.0
C344 C 0.98545 0.06452 0.992 0.0
C345 C 0.96729 0.05782 0.98382 0.0
C346 C 1.00753 0.02462 0.98765 0.0
O347 O 0.02553 0.04446 0.03311 0.0
O348 O 0.04388 0.03972 0.05872 0.0
O349 O 0.06246 0.06339 0.03757 0.0
O350 O 0.05367 0.05157 0.00843 0.0
C351 C 0.02906 0.04468 0.05093 0.0
O352 O 0.08264 0.03432 0.07255 0.0
O353 O 0.09813 0.0507 0.05465 0.0
O354 O 0.08003 0.03142 0.01876 0.0
O355 O 0.0545 0.01268 0.0037 0.0
O356 O 0.03085 1.00572 0.02899 0.0
O357 O 0.06099 0.00837 0.04188 0.0
C358 C 0.05752 0.06535 0.02041 0.0
O359 O 0.02462 0.03081 0.9852 0.0
O360 O 1.00661 0.01721 0.0029 0.0
C361 C 0.11288 0.03048 0.06977 0.0
C362 C 0.13734 0.00647 0.07122 0.0
C363 C 0.13911 0.02023 0.08517 0.0
C364 C 0.12688 0.03213 0.08448 0.0
C365 C 0.11135 0.01698 0.05572 0.0
C366 C 0.12344 1.00513 0.05641 0.0
C367 C 0.09902 0.04191 0.06909 0.0
H368 H 0.949 0.03503 0.96911 0.0
H369 H 0.97262 0.01639 0.96983 0.0
H370 H 0.01244 0.05906 0.99965 0.0
H371 H 0.98903 0.07761 0.999 0.0
H372 H 0.14966 0.02154 0.09678 0.0
H373 H 0.12817 0.0424 0.09549 0.0
H374 H 0.1006 0.01546 0.04425 0.0
H375 H 0.1219 0.99492 0.04529 0.0
Tb376 Tb 0.28961 0.78763 0.28149 0.0
Eu377 Eu 0.27596 0.74653 0.26287 0.0
C378 C 0.25021 0.77513 0.26209 0.0
C379 C 0.27358 0.75714 0.30478 0.0
C380 C 0.313 0.83438 0.29423 0.0
C381 C 0.32218 0.86611 0.2963 0.0
C382 C 0.30875 0.85114 0.29711 0.0
C383 C 0.33079 0.8327 0.29022 0.0
C384 C 0.3443 0.84769 0.28954 0.0
C385 C 0.34018 0.86457 0.29271 0.0
C386 C 0.29876 0.81892 0.29574 0.0
O387 O 0.31525 0.77864 0.2777 0.0
O388 O 0.30442 0.74899 0.27788 0.0
O389 O 0.2925 0.76035 0.24228 0.0
O390 O 0.29179 0.78906 0.25244 0.0
C391 C 0.31805 0.76264 0.27994 0.0
O392 O 0.27726 0.71861 0.26289 0.0
O393 O 0.25867 0.72727 0.24236 0.0
O394 O 0.2557 0.76274 0.25241 0.0
O395 O 0.25955 0.78183 0.2778 0.0
O396 O 0.28625 0.77114 0.30389 0.0
O397 O 0.26455 0.74781 0.28999 0.0
C398 C 0.29468 0.77724 0.2399 0.0
O399 O 0.28643 0.81401 0.28152 0.0
O400 O 0.30448 0.80558 0.30269 0.0
C401 C 0.24857 0.69961 0.2535 0.0
C402 C 0.22053 0.67226 0.26129 0.0
C403 C 0.23898 0.66986 0.26182 0.0
C404 C 0.25285 0.68339 0.25789 0.0
C405 C 0.23013 0.70206 0.25301 0.0
C406 C 0.21623 0.68847 0.25677 0.0
C407 C 0.26356 0.71384 0.24988 0.0
H408 H 0.31842 0.87889 0.29843 0.0
H409 H 0.29503 0.85264 0.30007 0.0
H410 H 0.3343 0.81983 0.28785 0.0
H411 H 0.35806 0.84604 0.28689 0.0
H412 H 0.24266 0.65744 0.26506 0.0
H413 H 0.26696 0.6812 0.25834 0.0
H414 H 0.22643 0.71449 0.24982 0.0
H415 H 0.20215 0.69073 0.25641 0.0
Tb416 Tb 0.53571 0.01282 0.51993 0.0
Eu417 Eu 0.56397 0.04863 0.5361 0.0
C418 C 0.54828 0.01949 0.56091 0.0
C419 C 0.51911 0.04802 0.52828 0.0
C420 C 0.51779 0.96764 0.49946 0.0
C421 C 0.50771 0.93624 0.49224 0.0
C422 C 0.50396 0.95255 0.49819 0.0
C423 C 0.5353 0.96639 0.49436 0.0
C424 C 0.53906 0.95009 0.48838 0.0
C425 C 0.52537 0.93482 0.48752 0.0
C426 C 0.51448 0.98425 0.50779 0.0
O427 O 0.55029 0.02298 0.49758 0.0
O428 O 0.55406 0.05201 0.50715 0.0
O429 O 0.58287 0.02979 0.52766 0.0
O430 O 0.56238 1.00348 0.52518 0.0
C431 C 0.5526 0.0395 0.49402 0.0
O432 O 0.58792 0.06889 0.53348 0.0
O433 O 0.57452 0.06888 0.55841 0.0
O434 O 0.56349 0.02931 0.55724 0.0
O435 O 0.53349 0.01685 0.54897 0.0
O436 O 0.51743 0.03256 0.51882 0.0
O437 O 0.53511 0.05551 0.53788 0.0
C438 C 0.57959 0.01239 0.52619 0.0
O439 O 0.52158 0.98799 0.52479 0.0
O440 O 0.51766 0.99782 0.49832 0.0
C441 C 0.59004 0.09619 0.55047 0.0
C442 C 0.59621 0.13307 0.55568 0.0
C443 C 0.57804 0.12327 0.55229 0.0
C444 C 0.57496 0.10491 0.54969 0.0
C445 C 0.60813 0.10593 0.55306 0.0
C446 C 0.61122 0.12423 0.55562 0.0
C447 C 0.5874 0.07698 0.54946 0.0
H448 H 0.49683 0.92471 0.49147 0.0
H449 H 0.49042 0.95333 0.50222 0.0
H450 H 0.5462 0.97794 0.49549 0.0
H451 H 0.55283 0.94936 0.485 0.0
H452 H 0.56621 0.12973 0.55239 0.0
H453 H 0.56088 0.09754 0.54758 0.0
H454 H 0.61991 0.09935 0.55355 0.0
H455 H 0.62536 0.13145 0.55792 0.0
Tb456 Tb 0.27499 0.28484 0.76782 0.0
Eu457 Eu 0.31652 0.28024 0.78246 0.0
C458 C 0.30903 0.31181 0.75877 0.0
C459 C 0.29814 0.26665 0.74036 0.0
C460 C 0.22645 0.28061 0.77067 0.0
C461 C 0.19398 0.27474 0.77524 0.0
C462 C 0.20799 0.28123 0.7647 0.0
C463 C 0.2308 0.27355 0.78719 0.0
C464 C 0.21698 0.26722 0.79771 0.0
C465 C 0.19838 0.26759 0.79183 0.0
C466 C 0.24151 0.28687 0.75996 0.0
O467 O 0.27286 0.25808 0.77503 0.0
O468 O 0.29762 0.26129 0.79695 0.0
O469 O 0.30905 0.29928 0.8041 0.0
O470 O 0.27768 0.29076 0.79798 0.0
C471 C 0.28137 0.25279 0.78944 0.0
O472 O 0.3364 0.26301 0.78766 0.0
O473 O 0.34476 0.29117 0.79449 0.0
O474 O 0.31989 0.3005 0.76211 0.0
O475 O 0.2922 0.30952 0.76346 0.0
O476 O 0.28571 0.2768 0.74221 0.0
O477 O 0.3092 0.26403 0.75474 0.0
C478 C 0.29239 0.29891 0.80906 0.0
O479 O 0.254 0.29984 0.76816 0.0
O480 O 0.24908 0.2745 0.75284 0.0
C481 C 0.36585 0.27624 0.78165 0.0
C482 C 0.39524 0.27599 0.76055 0.0
C483 C 0.39515 0.26783 0.77697 0.0
C484 C 0.38052 0.26801 0.78751 0.0
C485 C 0.36574 0.28405 0.76507 0.0
C486 C 0.38037 0.28402 0.75466 0.0
C487 C 0.35022 0.27614 0.79227 0.0
H488 H 0.17974 0.27506 0.77027 0.0
H489 H 0.20441 0.28656 0.75192 0.0
H490 H 0.24496 0.27282 0.79196 0.0
H491 H 0.22093 0.26215 0.81054 0.0
H492 H 0.40654 0.26164 0.7818 0.0
H493 H 0.38066 0.26176 0.80019 0.0
H494 H 0.35432 0.29019 0.76018 0.0
H495 H 0.38003 0.29019 0.74194 0.0
Tb496 Tb 0.04913 0.02183 0.50728 0.0
Eu497 Eu 0.04891 0.04175 0.54646 0.0
C498 C 0.08647 0.04461 0.5272 0.0
C499 C 0.05264 0.99983 0.54335 0.0
C500 C 0.03953 1.00602 0.45773 0.0
C501 C 0.03998 1.00377 0.42489 0.0
C502 C 0.04906 1.00424 0.4425 0.0
C503 C 0.0208 0.00749 0.4552 0.0
C504 C 0.01164 0.00687 0.43758 0.0
C505 C 0.02112 1.00496 0.42221 0.0
C506 C 0.0494 1.00635 0.47606 0.0
O507 O 0.01923 0.02045 0.5096 0.0
O508 O 0.02114 0.0232 0.54068 0.0
O509 O 0.04251 0.06247 0.52717 0.0
O510 O 0.04794 0.04923 0.50005 0.0
C511 C 0.01135 0.01809 0.52473 0.0
O512 O 0.03444 0.05383 0.5668 0.0
O513 O 0.06397 0.05408 0.57222 0.0
O514 O 0.07642 0.05308 0.53689 0.0
O515 O 0.07878 0.02933 0.51825 0.0
O516 O 0.04959 0.99997 0.52535 0.0
O517 O 0.05512 0.01478 0.5539 0.0
C518 C 0.0449 0.06329 0.50972 0.0
O519 O 0.0604 0.02106 0.4823 0.0
O520 O 0.03965 0.99973 0.48847 0.0
C521 C 0.04711 0.05103 0.59693 0.0
C522 C 0.0541 0.0382 0.63096 0.0
C523 C 0.05695 0.05641 0.6294 0.0
C524 C 0.0535 0.06279 0.61244 0.0
C525 C 0.04252 0.03292 0.59873 0.0
C526 C 0.04593 0.02652 0.61574 0.0
C527 C 0.04912 0.05727 0.57891 0.0
H528 H 0.04778 1.00263 0.41339 0.0
H529 H 0.06357 1.00324 0.44425 0.0
H530 H 0.01321 0.00898 0.46682 0.0
H531 H 0.99708 0.00763 0.436 0.0
H532 H 0.06318 0.06563 0.64103 0.0
H533 H 0.05721 0.07678 0.6112 0.0
H534 H 0.03774 0.02367 0.58679 0.0
H535 H 0.04376 0.01243 0.61661 0.0
Tb536 Tb 0.28951 0.76041 0.78134 0.0
Eu537 Eu 0.30643 0.79947 0.77061 0.0
C538 C 0.28939 0.79339 0.80859 0.0
C539 C 0.26253 0.78364 0.76133 0.0
C540 C 0.28522 0.71363 0.78896 0.0
C541 C 0.28121 0.68183 0.78717 0.0
C542 C 0.27375 0.69712 0.78865 0.0
C543 C 0.30427 0.71479 0.78821 0.0
C544 C 0.31174 0.69957 0.78679 0.0
C545 C 0.30025 0.68291 0.78594 0.0
C546 C 0.27719 0.72954 0.78886 0.0
O547 O 0.30494 0.75591 0.7583 0.0
O548 O 0.30297 0.78135 0.74517 0.0
O549 O 0.33163 0.78723 0.77855 0.0
O550 O 0.31809 0.76617 0.79571 0.0
C551 C 0.30557 0.76513 0.74404 0.0
O552 O 0.3091 0.81882 0.75056 0.0
O553 O 0.32519 0.82479 0.77716 0.0
O554 O 0.30163 0.80302 0.80003 0.0
O555 O 0.28043 0.7778 0.80152 0.0
O556 O 0.26658 0.76797 0.76372 0.0
O557 O 0.27509 0.79802 0.76639 0.0
C558 C 0.33311 0.77598 0.79096 0.0
O559 O 0.28512 0.74234 0.80105 0.0
O560 O 0.27417 0.73514 0.77281 0.0
C561 C 0.31367 0.84777 0.76412 0.0
C562 C 0.30229 0.87951 0.77329 0.0
C563 C 0.3211 0.87929 0.77209 0.0
C564 C 0.32676 0.86346 0.76757 0.0
C565 C 0.29481 0.84811 0.76451 0.0
C566 C 0.28916 0.86387 0.76895 0.0
C567 C 0.31979 0.83092 0.76195 0.0
H568 H 0.27199 0.66919 0.78636 0.0
H569 H 0.25898 0.69605 0.78909 0.0
H570 H 0.31331 0.72748 0.78836 0.0
H571 H 0.32649 0.70083 0.78615 0.0
H572 H 0.33149 0.89116 0.77548 0.0
H573 H 0.34139 0.86335 0.76743 0.0
H574 H 0.28449 0.83611 0.76198 0.0
H575 H 0.27454 0.86374 0.7695 0.0
Tb576 Tb 0.55773 0.0256 0.0484 0.0
Eu577 Eu 0.53677 0.0338 0.01037 0.0
C578 C 0.54968 0.99565 0.01404 0.0
C579 C 0.58015 0.04621 0.02014 0.0
C580 C 0.56834 1.00205 0.0879 0.0
C581 C 0.56513 0.99143 0.11764 0.0
C582 C 0.57453 1.00296 0.10655 0.0
C583 C 0.55426 0.98812 0.08 0.0
C584 C 0.54474 0.97669 0.09109 0.0
C585 C 0.54924 0.9791 0.11017 0.0
C586 C 0.57296 0.01766 0.07801 0.0
O587 O 0.54821 0.05078 0.05558 0.0
O588 O 0.54478 0.06056 0.02719 0.0
O589 O 0.51441 0.02528 0.02797 0.0
O590 O 0.53031 0.00922 0.04634 0.0
C591 C 0.54618 0.0637 0.04511 0.0
O592 O 0.52129 0.05097 0.99547 0.0
O593 O 0.52636 0.0272 0.98159 0.0
O594 O 0.53792 1.00442 0.00579 0.0
O595 O 0.56027 1.00285 0.02926 0.0
O596 O 0.57787 0.04471 0.03736 0.0
O597 O 0.56705 0.03935 0.00696 0.0
C598 C 0.51468 0.01315 0.03941 0.0
O599 O 0.57922 0.01535 0.06233 0.0
O600 O 0.56005 0.02709 0.07695 0.0
C601 C 0.52767 0.05199 0.96508 0.0
C602 C 0.54045 0.06755 0.93435 0.0
C603 C 0.52202 0.06707 0.93797 0.0
C604 C 0.51566 0.05922 0.95318 0.0
C605 C 0.54639 0.05375 0.9624 0.0
C606 C 0.5527 0.06134 0.94713 0.0
C607 C 0.52065 0.04199 0.9798 0.0
H608 H 0.56891 0.99371 0.1323 0.0
H609 H 0.58533 0.01367 0.11285 0.0
H610 H 0.54935 0.98721 0.06555 0.0
H611 H 0.53265 0.96723 0.08498 0.0
H612 H 0.51231 0.07205 0.92864 0.0
H613 H 0.50123 0.05824 0.95529 0.0
H614 H 0.55594 0.04846 0.97163 0.0
H615 H 0.56689 0.0612 0.94481 0.0
Tb616 Tb 0.30473 0.29897 0.28632 0.0
Eu617 Eu 0.28725 0.26102 0.26431 0.0
C618 C 0.30561 0.26351 0.30721 0.0
C619 C 0.33118 0.27917 0.26323 0.0
C620 C 0.30461 0.34157 0.30976 0.0
C621 C 0.3002 0.36604 0.33009 0.0
C622 C 0.31155 0.35473 0.32402 0.0
C623 C 0.2863 0.33984 0.30159 0.0
C624 C 0.27501 0.35102 0.30763 0.0
C625 C 0.28174 0.36415 0.32205 0.0
C626 C 0.31574 0.32878 0.30403 0.0
O627 O 0.29329 0.30656 0.25955 0.0
O628 O 0.28337 0.27997 0.24256 0.0
O629 O 0.26199 0.26889 0.27592 0.0
O630 O 0.27601 0.29413 0.29376 0.0
C631 C 0.28695 0.2973 0.24368 0.0
O632 O 0.28628 0.24211 0.24073 0.0
O633 O 0.26875 0.23539 0.26173 0.0
O634 O 0.29571 0.25391 0.29296 0.0
O635 O 0.31226 0.28041 0.30627 0.0
O636 O 0.32838 0.29369 0.27206 0.0
O637 O 0.31832 0.26472 0.26131 0.0
C638 C 0.26129 0.28169 0.28845 0.0
O639 O 0.31281 0.31409 0.3116 0.0
O640 O 0.31578 0.32594 0.28649 0.0
C641 C 0.28404 0.21351 0.24991 0.0
C642 C 0.30656 0.18824 0.25564 0.0
C643 C 0.30305 0.19385 0.23813 0.0
C644 C 0.29182 0.20633 0.23528 0.0
C645 C 0.28655 0.20702 0.26714 0.0
C646 C 0.29765 0.19445 0.26995 0.0
C647 C 0.27602 0.22947 0.2478 0.0
H648 H 0.30573 0.37602 0.34124 0.0
H649 H 0.32562 0.3561 0.33058 0.0
H650 H 0.28067 0.32972 0.29058 0.0
H651 H 0.261 0.34946 0.30087 0.0
H652 H 0.30958 0.18909 0.22681 0.0
H653 H 0.29008 0.21111 0.22188 0.0
H654 H 0.28083 0.21232 0.27875 0.0
H655 H 0.30021 0.19047 0.28361 0.0
Tb656 Tb 0.54943 0.52167 0.00681 0.0
Eu657 Eu 0.54851 0.54177 0.04556 0.0
C658 C 0.58645 0.54422 0.02693 0.0
C659 C 0.5526 0.49986 0.04298 0.0
C660 C 0.54039 0.50603 0.95704 0.0
C661 C 0.54182 0.5042 0.92434 0.0
C662 C 0.55046 0.50468 0.94214 0.0
C663 C 0.52157 0.50708 0.95399 0.0
C664 C 0.51287 0.50646 0.93617 0.0
C665 C 0.52289 0.50495 0.92113 0.0
C666 C 0.54979 0.50622 0.97558 0.0
O667 O 0.51946 0.52048 0.00903 0.0
O668 O 0.52129 0.52251 0.04005 0.0
O669 O 0.5403 0.56138 0.02565 0.0
O670 O 0.55006 0.54948 1.00005 0.0
C671 C 0.51153 0.51764 0.02407 0.0
O672 O 0.53384 0.55367 0.06587 0.0
O673 O 0.56358 0.5551 0.0709 0.0
O674 O 0.57614 0.55295 0.03603 0.0
O675 O 0.57889 0.52875 0.01833 0.0
O676 O 0.55014 0.49994 0.02495 0.0
O677 O 0.5545 0.51481 0.05346 0.0
C678 C 0.54491 0.5629 0.00893 0.0
O679 O 0.56101 0.52073 0.982 0.0
O680 O 0.53965 0.49978 0.98779 0.0
C681 C 0.54732 0.55237 0.09607 0.0
C682 C 0.55584 0.54179 0.13094 0.0
C683 C 0.55661 0.5597 0.12847 0.0
C684 C 0.55243 0.56496 0.11108 0.0
C685 C 0.54465 0.53441 0.09878 0.0
C686 C 0.54884 0.52913 0.11617 0.0
C687 C 0.54868 0.55797 0.07771 0.0
H688 H 0.55003 0.50338 0.9131 0.0
H689 H 0.56504 0.50398 0.94428 0.0
H690 H 0.51355 0.50823 0.96534 0.0
H691 H 0.49823 0.50688 0.93419 0.0
H692 H 0.56179 0.56968 0.13972 0.0
H693 H 0.55461 0.57887 0.10916 0.0
H694 H 0.5408 0.52454 0.08723 0.0
H695 H 0.54823 0.51526 0.11769 0.0
Tb696 Tb 0.78771 0.25904 0.27906 0.0
Eu697 Eu 0.80467 0.29833 0.26869 0.0
C698 C 0.78831 0.29187 0.30666 0.0
C699 C 0.76076 0.28218 0.25938 0.0
C700 C 0.78142 0.21171 0.28688 0.0
C701 C 0.77554 0.18036 0.2899 0.0
C702 C 0.76968 0.1965 0.29077 0.0
C703 C 0.79922 0.21078 0.28243 0.0
C704 C 0.8051 0.19466 0.28158 0.0
C705 C 0.79325 0.17924 0.28514 0.0
C706 C 0.77476 0.22835 0.2868 0.0
O707 O 0.80259 0.25475 0.25555 0.0
O708 O 0.80165 0.28072 0.24284 0.0
O709 O 0.82976 0.2858 0.27625 0.0
O710 O 0.81635 0.26447 0.29319 0.0
C711 C 0.8035 0.26422 0.24144 0.0
O712 O 0.80255 0.32132 0.25364 0.0
O713 O 0.82749 0.32079 0.27149 0.0
O714 O 0.80101 0.30125 0.29842 0.0
O715 O 0.77875 0.27668 0.29912 0.0
O716 O 0.76486 0.26651 0.26141 0.0
O717 O 0.77325 0.29651 0.26477 0.0
C718 C 0.83131 0.2744 0.2885 0.0
O719 O 0.78362 0.24092 0.29879 0.0
O720 O 0.77181 0.23398 0.27076 0.0
C721 C 0.81729 0.34769 0.27058 0.0
C722 C 0.8128 0.38027 0.28691 0.0
C723 C 0.81548 0.37838 0.26833 0.0
C724 C 0.81769 0.36218 0.26023 0.0
C725 C 0.81503 0.34962 0.2892 0.0
C726 C 0.81289 0.36577 0.29731 0.0
C727 C 0.81818 0.33038 0.26179 0.0
H728 H 0.76619 0.16874 0.29289 0.0
H729 H 0.75589 0.19707 0.29423 0.0
H730 H 0.8084 0.22245 0.2793 0.0
H731 H 0.81872 0.19419 0.27761 0.0
H732 H 0.81523 0.38924 0.25991 0.0
H733 H 0.8193 0.36087 0.24582 0.0
H734 H 0.81463 0.33855 0.29742 0.0
H735 H 0.8111 0.36685 0.31169 0.0
Tb736 Tb 0.05637 0.52619 0.54482 0.0
Eu737 Eu 0.04014 0.53647 0.50539 0.0
C738 C 0.05058 0.49706 0.50928 0.0
C739 C 0.08269 0.54449 0.51855 0.0
C740 C 0.06576 0.50264 0.58596 0.0
C741 C 0.07594 0.48803 0.61206 0.0
C742 C 0.08007 0.498 0.59744 0.0
C743 C 0.04735 0.49503 0.58752 0.0
C744 C 0.0432 0.48553 0.60237 0.0
C745 C 0.05745 0.48336 0.61584 0.0
C746 C 0.06983 0.51755 0.57486 0.0
O747 O 0.04795 0.55178 0.55233 0.0
O748 O 0.04456 0.56212 0.52412 0.0
O749 O 0.01522 0.52842 0.51996 0.0
O750 O 0.02798 0.51192 0.54061 0.0
C751 C 0.04578 0.56482 0.54209 0.0
O752 O 0.0391 0.55745 0.48748 0.0
O753 O 0.02396 0.53122 0.47839 0.0
O754 O 0.04259 0.50759 0.49905 0.0
O755 O 0.05754 0.50238 0.52648 0.0
O756 O 0.07823 0.54454 0.53522 0.0
O757 O 0.07051 0.5376 0.5047 0.0
C758 C 0.01351 0.51646 0.53171 0.0
O759 O 0.07649 0.51468 0.55952 0.0
O760 O 0.05713 0.52721 0.57317 0.0
C761 C 0.03954 0.54785 0.45717 0.0
C762 C 0.06101 0.55259 0.42798 0.0
C763 C 0.04724 0.56265 0.43034 0.0
C764 C 0.03661 0.56032 0.44489 0.0
C765 C 0.05323 0.53779 0.45487 0.0
C766 C 0.0638 0.54007 0.44037 0.0
C767 C 0.03018 0.54692 0.47368 0.0
H768 H 0.08733 0.48568 0.62143 0.0
H769 H 0.09442 0.50331 0.59607 0.0
H770 H 0.03606 0.49797 0.5784 0.0
H771 H 0.02873 0.48193 0.60422 0.0
H772 H 0.04483 0.57245 0.42108 0.0
H773 H 0.02637 0.56847 0.44676 0.0
H774 H 0.05594 0.52833 0.46446 0.0
H775 H 0.07399 0.53182 0.43874 0.0
Tb776 Tb 0.77455 0.78148 0.26721 0.0
Eu777 Eu 0.81612 0.77761 0.28235 0.0
C778 C 0.80861 0.8089 0.25849 0.0
C779 C 0.79841 0.76372 0.24013 0.0
C780 C 0.72591 0.7771 0.26913 0.0
C781 C 0.69372 0.77347 0.27458 0.0
C782 C 0.70778 0.77936 0.26388 0.0
C783 C 0.72986 0.76887 0.28499 0.0
C784 C 0.71598 0.76309 0.29564 0.0
C785 C 0.6978 0.76542 0.29064 0.0
C786 C 0.74114 0.78333 0.25864 0.0
O787 O 0.77246 0.7548 0.27493 0.0
O788 O 0.79727 0.75872 0.29687 0.0
O789 O 0.80797 0.79688 0.30333 0.0
O790 O 0.7767 0.78763 0.2973 0.0
C791 C 0.78118 0.74981 0.28942 0.0
O792 O 0.8366 0.76098 0.28762 0.0
O793 O 0.84365 0.78897 0.29589 0.0
O794 O 0.81968 0.79782 0.26202 0.0
O795 O 0.79167 0.80632 0.26295 0.0
O796 O 0.7857 0.77356 0.24185 0.0
O797 O 0.80956 0.76137 0.25458 0.0
C798 C 0.79128 0.7962 0.3083 0.0
O799 O 0.75345 0.79637 0.26699 0.0
O800 O 0.74891 0.77097 0.25181 0.0
C801 C 0.86669 0.77554 0.28493 0.0
C802 C 0.89965 0.77947 0.26858 0.0
C803 C 0.89849 0.77168 0.28519 0.0
C804 C 0.8821 0.76978 0.29334 0.0
C805 C 0.86757 0.78285 0.26814 0.0
C806 C 0.88395 0.78488 0.26007 0.0
C807 C 0.84978 0.77429 0.29376 0.0
H808 H 0.67977 0.77541 0.27048 0.0
H809 H 0.70456 0.78571 0.25165 0.0
H810 H 0.74377 0.76691 0.28919 0.0
H811 H 0.71945 0.75661 0.30772 0.0
H812 H 0.91027 0.76715 0.29194 0.0
H813 H 0.88152 0.76399 0.30625 0.0
H814 H 0.8557 0.7873 0.26146 0.0
H815 H 0.88443 0.79116 0.24744 0.0
Tb816 Tb 0.80008 0.29583 0.78276 0.0
Eu817 Eu 0.7856 0.25643 0.76045 0.0
C818 C 0.7577 0.28175 0.7685 0.0
C819 C 0.78608 0.26344 0.80401 0.0
C820 C 0.82724 0.34028 0.79951 0.0
C821 C 0.83992 0.37148 0.80376 0.0
C822 C 0.8253 0.35751 0.80442 0.0
C823 C 0.84403 0.33706 0.79399 0.0
C824 C 0.85876 0.35106 0.79343 0.0
C825 C 0.85683 0.36844 0.79825 0.0
C826 C 0.81127 0.32602 0.79938 0.0
O827 O 0.82264 0.28162 0.78689 0.0
O828 O 0.81649 0.26256 0.76097 0.0
O829 O 0.78823 0.27631 0.73977 0.0
O830 O 0.81006 0.29818 0.75602 0.0
C831 C 0.82778 0.27053 0.77514 0.0
O832 O 0.78798 0.22895 0.75589 0.0
O833 O 0.76835 0.2395 0.73794 0.0
O834 O 0.75971 0.26528 0.76746 0.0
O835 O 0.77183 0.29493 0.77105 0.0
O836 O 0.78536 0.27998 0.80179 0.0
O837 O 0.78877 0.25261 0.7905 0.0
C838 C 0.80092 0.29059 0.74041 0.0
O839 O 0.80006 0.32291 0.78422 0.0
O840 O 0.81455 0.31155 0.80588 0.0
C841 C 0.76089 0.20929 0.74211 0.0
C842 C 0.73557 0.17729 0.74047 0.0
C843 C 0.73929 0.18528 0.72442 0.0
C844 C 0.75188 0.20112 0.72525 0.0
C845 C 0.75694 0.20159 0.75825 0.0
C846 C 0.74442 0.18565 0.75742 0.0
C847 C 0.77467 0.22553 0.74233 0.0
H848 H 0.83779 0.38471 0.80715 0.0
H849 H 0.81234 0.3602 0.80849 0.0
H850 H 0.84567 0.32378 0.78999 0.0
H851 H 0.87163 0.34827 0.78925 0.0
H852 H 0.73286 0.17904 0.71116 0.0
H853 H 0.75479 0.20688 0.71266 0.0
H854 H 0.76365 0.20777 0.77145 0.0
H855 H 0.74166 0.17986 0.77002 0.0
Tb856 Tb 0.8042 0.80041 0.78537 0.0
Eu857 Eu 0.78716 0.76257 0.76442 0.0
C858 C 0.80409 0.76544 0.8071 0.0
C859 C 0.83077 0.78143 0.76184 0.0
C860 C 0.80556 0.84112 0.81418 0.0
C861 C 0.77881 0.84256 0.83035 0.0
C862 C 0.79097 0.83281 0.82311 0.0
C863 C 0.80867 0.8594 0.81376 0.0
C864 C 0.79646 0.86914 0.82085 0.0
C865 C 0.7809 0.86074 0.82851 0.0
C866 C 0.81468 0.83075 0.80185 0.0
O867 O 0.80086 0.80533 0.75607 0.0
O868 O 0.7786 0.78177 0.74435 0.0
O869 O 0.76574 0.76751 0.7835 0.0
O870 O 0.77428 0.79728 0.78919 0.0
C871 C 0.78844 0.79739 0.74251 0.0
O872 O 0.78862 0.74123 0.74413 0.0
O873 O 0.76507 0.73927 0.75924 0.0
O874 O 0.80183 0.756 0.79119 0.0
O875 O 0.80343 0.7824 0.80761 0.0
O876 O 0.82952 0.79344 0.77511 0.0
O877 O 0.8162 0.76921 0.75548 0.0
C878 C 0.76247 0.78256 0.79052 0.0
O879 O 0.81989 0.81673 0.80773 0.0
O880 O 0.806 0.8276 0.78538 0.0
C881 C 0.77732 0.71372 0.75344 0.0
C882 C 0.7914 0.68337 0.7615 0.0
C883 C 0.78228 0.68455 0.74401 0.0
C884 C 0.77544 0.6997 0.73997 0.0
C885 C 0.78505 0.71204 0.77124 0.0
C886 C 0.79208 0.69706 0.77524 0.0
C887 C 0.77407 0.73095 0.7484 0.0
H888 H 0.76719 0.8357 0.83644 0.0
H889 H 0.78822 0.81864 0.82341 0.0
H890 H 0.81969 0.86598 0.80666 0.0
H891 H 0.79846 0.88304 0.81894 0.0
H892 H 0.78114 0.67411 0.7332 0.0
H893 H 0.76952 0.7008 0.72614 0.0
H894 H 0.78662 0.72275 0.7818 0.0
H895 H 0.79915 0.69681 0.7888 0.0
Tb896 Tb 0.53348 0.52693 0.51026 0.0
Eu897 Eu 0.56808 0.53638 0.54383 0.0
C898 C 0.571 0.51598 0.50525 0.0
C899 C 0.541 0.49878 0.53681 0.0
C900 C 0.49522 0.53673 0.48044 0.0
C901 C 0.46667 0.543 0.46535 0.0
C902 C 0.47963 0.53194 0.46739 0.0
C903 C 0.49813 0.55297 0.49092 0.0
C904 C 0.48512 0.56388 0.48911 0.0
C905 C 0.46898 0.5589 0.47657 0.0
C906 C 0.50767 0.52439 0.48445 0.0
O907 O 0.52461 0.54433 0.53041 0.0
O908 O 0.54234 0.53951 0.55641 0.0
O909 O 0.56199 0.5622 0.53531 0.0
O910 O 0.55391 0.54984 0.50639 0.0
C911 C 0.52789 0.54481 0.54828 0.0
O912 O 0.58026 0.53332 0.57133 0.0
O913 O 0.59673 0.54875 0.55339 0.0
O914 O 0.57885 0.52891 0.51758 0.0
O915 O 0.55294 0.51066 0.50261 0.0
O916 O 0.52823 0.50581 0.52795 0.0
O917 O 0.5582 0.50712 0.54079 0.0
C918 C 0.55765 0.56388 0.51798 0.0
O919 O 0.52505 0.5301 0.48279 0.0
O920 O 0.50575 0.51714 0.49969 0.0
C921 C 0.61043 0.52874 0.56985 0.0
C922 C 0.63474 0.50473 0.57294 0.0
C923 C 0.63692 0.51941 0.58585 0.0
C924 C 0.62475 0.53133 0.58435 0.0
C925 C 0.60844 0.51426 0.55685 0.0
C926 C 0.62045 0.50239 0.55836 0.0
C927 C 0.59692 0.54043 0.5682 0.0
H928 H 0.45464 0.53889 0.45528 0.0
H929 H 0.47723 0.51947 0.45914 0.0
H930 H 0.51015 0.55693 0.50104 0.0
H931 H 0.48739 0.57581 0.49822 0.0
H932 H 0.6478 0.52151 0.59724 0.0
H933 H 0.62642 0.54241 0.59453 0.0
H934 H 0.59747 0.51207 0.54553 0.0
H935 H 0.61862 0.49143 0.54801 0.0
Tb936 Tb 0.03557 0.51248 0.02475 0.0
Eu937 Eu 0.0646 0.54956 0.02802 0.0
C938 C 0.05141 0.53303 0.06354 0.0
C939 C 0.01959 0.54808 0.02744 0.0
C940 C 0.01486 0.46568 0.01167 0.0
C941 C 0.00992 0.43393 0.01177 0.0
C942 C 1.00834 0.45035 0.01979 0.0
C943 C 0.02297 0.46446 0.99539 0.0
C944 C 0.02439 0.44805 0.98726 0.0
C945 C 0.01798 0.43259 0.9954 0.0
C946 C 0.01403 0.48287 0.02083 0.0
O947 O 0.03437 0.52295 0.99816 0.0
O948 O 0.06445 0.53617 1.00024 0.0
O949 O 0.08266 0.52894 0.03302 0.0
O950 O 0.06226 0.50442 0.01974 0.0
C951 C 0.04877 0.52964 0.99031 0.0
O952 O 0.0741 0.57396 0.01603 0.0
O953 O 0.08919 0.5679 0.04086 0.0
O954 O 0.0566 0.54775 0.05627 0.0
O955 O 0.04537 0.51801 0.05363 0.0
O956 O 0.01805 0.53169 0.03196 0.0
O957 O 0.03553 0.55647 0.02299 0.0
C958 C 0.07932 0.51223 0.02658 0.0
O959 O 0.02633 0.4882 0.03492 0.0
O960 O 0.01242 0.49546 0.01036 0.0
C961 C 0.0882 0.59753 0.03769 0.0
C962 C 0.09057 0.63114 0.05559 0.0
C963 C 0.07324 0.61999 0.0508 0.0
C964 C 0.07208 0.60325 0.04199 0.0
C965 C 0.10546 0.60868 0.0422 0.0
C966 C 0.10665 0.62537 0.05112 0.0
C967 C 0.08732 0.57967 0.02938 0.0
H968 H 1.00512 0.42234 0.01857 0.0
H969 H 1.00226 0.45109 0.03249 0.0
H970 H 0.0283 0.47617 0.98899 0.0
H971 H 0.03042 0.44751 0.97453 0.0
H972 H 0.06065 0.62403 0.05427 0.0
H973 H 0.05864 0.59469 0.03877 0.0
H974 H 0.11803 0.60439 0.03903 0.0
H975 H 0.12015 0.63377 0.05451 0.0
C976 C 0.99372 0.16629 0.93662 0.0
C977 C 0.99779 0.18441 0.94189 0.0
C978 C 0.99519 0.15427 0.94963 0.0
C979 C 0.02327 0.15318 0.9931 0.0
H980 H 1.00056 0.10385 0.98496 0.0
C981 C 0.04993 0.09507 0.02804 0.0
C982 C 0.05219 0.08184 0.01491 0.0
C983 C 0.04125 0.10886 0.02274 0.0
C984 C 1.00681 0.11763 0.98762 0.0
H985 H 1.0043 0.20413 0.96509 0.0
H986 H 1.00646 0.18307 0.9879 0.0
H987 H 0.98531 0.12549 0.97031 0.0
H988 H 0.04824 0.07331 0.98589 0.0
H989 H 0.03305 0.09716 0.97682 0.0
H990 H 0.04495 0.14505 0.01018 0.0
C991 C 1.0027 0.17817 0.97366 0.0
C992 C 0.99819 0.13002 0.97916 0.0
C993 C 1.00134 0.19022 0.9606 0.0
C994 C 0.04661 0.08321 0.99637 0.0
C995 C 0.03776 0.09676 0.99116 0.0
C996 C 0.03171 0.14077 0.00187 0.0
C997 C 1.0006 0.16013 0.96821 0.0
C998 C 1.00681 0.14783 0.98101 0.0
C999 C 0.03456 0.10941 0.00432 0.0
C1000 C 0.02395 0.12284 0.99848 0.0
H1001 H 0.99082 0.1614 0.92232 0.0
H1002 H 0.99356 0.14052 0.94484 0.0
H1003 H 0.03043 0.16676 0.99475 0.0
H1004 H 0.05403 0.09432 0.04244 0.0
H1005 H 0.03905 0.11863 0.03307 0.0
C1006 C 0.15638 0.84907 0.16029 0.0
C1007 C 0.14552 0.85911 0.16944 0.0
C1008 C 0.17074 0.84295 0.17013 0.0
C1009 C 0.19959 0.84429 0.21392 0.0
H1010 H 0.1841 0.79353 0.20752 0.0
C1011 C 0.23171 0.79924 0.26195 0.0
C1012 C 0.23585 0.78391 0.25341 0.0
C1013 C 0.22068 0.80922 0.25225 0.0
C1014 C 0.18885 0.80764 0.20933 0.0
H1015 H 0.14285 0.87285 0.1953 0.0
H1016 H 0.16827 0.86246 0.21239 0.0
H1017 H 0.1686 0.81171 0.18801 0.0
H1018 H 0.2309 0.76655 0.22832 0.0
H1019 H 0.21227 0.784 0.21144 0.0
H1020 H 0.22012 0.84021 0.23506 0.0
C1021 C 0.16548 0.85908 0.19775 0.0
C1022 C 0.17998 0.81804 0.19811 0.0
C1023 C 0.15096 0.86503 0.18797 0.0
C1024 C 0.22799 0.77828 0.23535 0.0
C1025 C 0.21718 0.7883 0.22565 0.0
C1026 C 0.20874 0.83383 0.225 0.0
C1027 C 0.17462 0.84707 0.18912 0.0
C1028 C 0.1853 0.83643 0.20025 0.0
C1029 C 0.2137 0.80409 0.23382 0.0
C1030 C 0.20348 0.81536 0.2228 0.0
H1031 H 0.15257 0.84434 0.146 0.0
H1032 H 0.17781 0.83385 0.16318 0.0
H1033 H 0.20376 0.85847 0.21591 0.0
H1034 H 0.23754 0.80392 0.27587 0.0
H1035 H 0.21794 0.82112 0.25908 0.0
C1036 C 0.53536 0.78326 0.43973 0.0
C1037 C 0.54216 0.78217 0.42269 0.0
C1038 C 0.53665 0.79955 0.44952 0.0
C1039 C 0.55831 0.84681 0.45239 0.0
H1040 H 0.51179 0.85334 0.46918 0.0
C1041 C 0.53962 0.91501 0.46736 0.0
C1042 C 0.52963 0.91738 0.48222 0.0
C1043 C 0.54324 0.89844 0.46218 0.0
C1044 C 0.52499 0.85169 0.46488 0.0
H1045 H 0.55664 0.79721 0.40309 0.0
H1046 H 0.5586 0.82566 0.42004 0.0
H1047 H 0.51509 0.82437 0.45696 0.0
H1048 H 0.51631 0.90448 0.5038 0.0
H1049 H 0.52262 0.87555 0.49475 0.0
H1050 H 0.56799 0.87434 0.45995 0.0
C1051 C 0.55243 0.81392 0.42591 0.0
C1052 C 0.5269 0.83506 0.45789 0.0
C1053 C 0.55121 0.79761 0.41615 0.0
C1054 C 0.5237 0.90296 0.49205 0.0
C1055 C 0.52736 0.88642 0.4869 0.0
C1056 C 0.55639 0.86349 0.4594 0.0
C1057 C 0.54469 0.81509 0.44245 0.0
C1058 C 0.54349 0.83247 0.45138 0.0
C1059 C 0.53698 0.88394 0.47179 0.0
C1060 C 0.53962 0.86612 0.46551 0.0
H1061 H 0.52852 0.77159 0.44529 0.0
H1062 H 0.53089 0.80002 0.4624 0.0
H1063 H 0.57133 0.84516 0.44765 0.0
H1064 H 0.54424 0.92588 0.45946 0.0
H1065 H 0.55047 0.89689 0.45032 0.0
C1066 C 0.53002 0.30352 0.67621 0.0
C1067 C 0.54584 0.30562 0.68907 0.0
C1068 C 0.51257 0.29665 0.68102 0.0
C1069 C 0.47734 0.29486 0.69862 0.0
H1070 H 0.47084 0.26188 0.7356 0.0
C1071 C 0.41912 0.29273 0.74378 0.0
C1072 C 0.41104 0.2767 0.74979 0.0
C1073 C 0.43418 0.29367 0.73381 0.0
C1074 C 0.47226 0.27085 0.72501 0.0
H1075 H 0.55588 0.3019 0.71693 0.0
H1076 H 0.52547 0.29061 0.72554 0.0
H1077 H 0.49981 0.26708 0.7222 0.0
H1078 H 0.41201 0.24897 0.74986 0.0
H1079 H 0.43828 0.25049 0.73204 0.0
H1080 H 0.44972 0.29844 0.70123 0.0
C1081 C 0.52649 0.29375 0.71158 0.0
C1082 C 0.48898 0.27402 0.71752 0.0
C1083 C 0.54394 0.30039 0.7067 0.0
C1084 C 0.41816 0.26152 0.7455 0.0
C1085 C 0.43316 0.26241 0.73533 0.0
C1086 C 0.46055 0.29152 0.70594 0.0
C1087 C 0.51057 0.29197 0.69886 0.0
C1088 C 0.49193 0.28651 0.70469 0.0
C1089 C 0.4414 0.27853 0.72945 0.0
C1090 C 0.45806 0.27995 0.71968 0.0
H1091 H 0.53109 0.30724 0.66243 0.0
H1092 H 0.50063 0.29518 0.6708 0.0
H1093 H 0.47911 0.30463 0.68885 0.0
H1094 H 0.41402 0.30467 0.74715 0.0
H1095 H 0.44046 0.30639 0.72993 0.0
C1096 C 0.04282 0.84482 0.59663 0.0
C1097 C 0.04365 0.84349 0.61573 0.0
C1098 C 0.0439 0.86134 0.58894 0.0
C1099 C 0.05637 0.91172 0.60147 0.0
H1100 H 0.03339 0.91388 0.55236 0.0
C1101 C 0.05403 0.98077 0.57096 0.0
C1102 C 0.05251 0.9821 0.55183 0.0
C1103 C 0.05312 0.96426 0.57862 0.0
C1104 C 0.04022 0.91382 0.56604 0.0
H1105 H 0.04628 0.85954 0.64137 0.0
H1106 H 0.04797 0.88776 0.62829 0.0
H1107 H 0.03161 0.88567 0.56523 0.0
H1108 H 0.04882 0.96597 0.52611 0.0
H1109 H 0.0476 0.9378 0.53912 0.0
H1110 H 0.06502 0.93984 0.60228 0.0
C1111 C 0.04673 0.8761 0.619 0.0
C1112 C 0.03915 0.89725 0.57359 0.0
C1113 C 0.04561 0.85961 0.62666 0.0
C1114 C 0.0501 0.96595 0.54085 0.0
C1115 C 0.04921 0.94947 0.54848 0.0
C1116 C 0.05746 0.92828 0.59391 0.0
C1117 C 0.04593 0.87755 0.59988 0.0
C1118 C 0.04717 0.89563 0.59157 0.0
C1119 C 0.05061 0.94802 0.56763 0.0
C1120 C 0.04942 0.92991 0.57593 0.0
H1121 H 0.04138 0.83301 0.58749 0.0
H1122 H 0.04341 0.86131 0.57424 0.0
H1123 H 0.06316 0.91163 0.61516 0.0
H1124 H 0.05572 0.99258 0.58017 0.0
H1125 H 0.05405 0.96433 0.59334 0.0
C1126 C 0.49807 0.78554 0.85509 0.0
C1127 C 0.50277 0.7768 0.8706 0.0
C1128 C 0.47966 0.78405 0.84712 0.0
C1129 C 0.42948 0.77076 0.85501 0.0
H1130 H 0.42135 0.77431 0.8028 0.0
C1131 C 0.35446 0.76407 0.81472 0.0
C1132 C 0.35218 0.77468 0.80015 0.0
C1133 C 0.37225 0.76336 0.82357 0.0
C1134 C 0.42321 0.77352 0.81743 0.0
H1135 H 0.49075 0.75944 0.88971 0.0
H1136 H 0.45843 0.75661 0.87563 0.0
H1137 H 0.45232 0.77418 0.81739 0.0
H1138 H 0.36752 0.79289 0.78375 0.0
H1139 H 0.39814 0.79166 0.79892 0.0
H1140 H 0.40014 0.76993 0.85485 0.0
C1141 C 0.46929 0.76485 0.86971 0.0
C1142 C 0.44122 0.77345 0.82594 0.0
C1143 C 0.48796 0.76636 0.87779 0.0
C1144 C 0.36845 0.78446 0.79477 0.0
C1145 C 0.3862 0.78367 0.80351 0.0
C1146 C 0.41136 0.77074 0.84643 0.0
C1147 C 0.46476 0.77365 0.8541 0.0
C1148 C 0.4449 0.77237 0.84498 0.0
C1149 C 0.38856 0.77312 0.81814 0.0
C1150 C 0.40786 0.77237 0.82746 0.0
H1151 H 0.50873 0.79385 0.84897 0.0
H1152 H 0.47717 0.79147 0.83553 0.0
H1153 H 0.43143 0.77002 0.86964 0.0
H1154 H 0.34243 0.75631 0.81941 0.0
H1155 H 0.3732 0.75491 0.83456 0.0
C1156 C 0.53825 0.22225 0.10072 0.0
C1157 C 0.53803 0.2248 0.11987 0.0
C1158 C 0.53901 0.20538 0.09185 0.0
C1159 C 0.55012 0.16019 0.1026 0.0
H1160 H 0.52729 0.1444 0.05331 0.0
C1161 C 0.54609 0.08651 0.07248 0.0
C1162 C 0.54535 0.08228 0.05344 0.0
C1163 C 0.54524 0.10374 0.07996 0.0
C1164 C 0.53402 0.14845 0.06705 0.0
H1165 H 0.53794 0.21042 0.14412 0.0
H1166 H 0.53899 0.18211 0.12915 0.0
H1167 H 0.52598 0.17388 0.06648 0.0
H1168 H 0.54313 0.09387 0.02761 0.0
H1169 H 0.54194 0.12342 0.04039 0.0
H1170 H 0.55832 0.13501 0.10326 0.0
C1171 C 0.53906 0.193 0.12074 0.0
C1172 C 0.53323 0.16567 0.07472 0.0
C1173 C 0.53828 0.2096 0.12947 0.0
C1174 C 0.54371 0.09621 0.04231 0.0
C1175 C 0.54288 0.11342 0.04977 0.0
C1176 C 0.55094 0.14307 0.09496 0.0
C1177 C 0.53969 0.19032 0.10173 0.0
C1178 C 0.54111 0.17199 0.09281 0.0
C1179 C 0.54362 0.11776 0.06884 0.0
C1180 C 0.54282 0.13657 0.07699 0.0
H1181 H 0.53813 0.23331 0.09257 0.0
H1182 H 0.53947 0.20429 0.07723 0.0
H1183 H 0.5569 0.16422 0.11633 0.0
H1184 H 0.54726 0.07643 0.08173 0.0
H1185 H 0.54558 0.10591 0.09463 0.0
C1186 C 0.13066 0.27867 0.38811 0.0
C1187 C 0.11246 0.27655 0.37904 0.0
C1188 C 0.14635 0.27934 0.37834 0.0
C1189 C 0.1605 0.27018 0.33042 0.0
H1190 H 0.20851 0.29566 0.35252 0.0
C1191 C 0.22826 0.26764 0.29443 0.0
C1192 C 0.24361 0.28174 0.29771 0.0
C1193 C 0.21244 0.26716 0.30397 0.0
C1194 C 0.19528 0.28855 0.34584 0.0
H1195 H 0.09718 0.27358 0.352 0.0
H1196 H 0.12407 0.27498 0.33517 0.0
H1197 H 0.18167 0.29486 0.36913 0.0
H1198 H 0.25351 0.30661 0.31403 0.0
H1199 H 0.22623 0.306 0.33014 0.0
H1200 H 0.17401 0.26422 0.30696 0.0
C1201 C 0.12642 0.27584 0.34994 0.0
C1202 C 0.17963 0.28787 0.35567 0.0
C1203 C 0.11076 0.27515 0.35971 0.0
C1204 C 0.24222 0.29543 0.31089 0.0
C1205 C 0.22639 0.29497 0.3204 0.0
C1206 C 0.17614 0.27086 0.3206 0.0
C1207 C 0.14471 0.27794 0.35894 0.0
C1208 C 0.16176 0.27867 0.34826 0.0
C1209 C 0.21107 0.28075 0.31734 0.0
C1210 C 0.19401 0.28007 0.328 0.0
H1211 H 0.13284 0.27975 0.4029 0.0
H1212 H 0.15983 0.2807 0.38617 0.0
H1213 H 0.14736 0.26269 0.32393 0.0
H1214 H 0.22855 0.25668 0.28464 0.0
H1215 H 0.20142 0.25575 0.30106 0.0
C1216 C 0.9395 0.04595 0.16899 0.0
C1217 C 0.92032 0.03949 0.16621 0.0
C1218 C 0.9487 0.05304 0.15494 0.0
C1219 C 0.94506 0.04816 0.10543 0.0
H1220 H 0.99113 0.0822 0.11475 0.0
C1221 C 0.99863 0.05357 0.05427 0.0
C1222 C 0.01588 0.05085 0.06237 0.0
C1223 C 0.98542 0.05783 0.06512 0.0
C1224 C 0.97818 0.07283 0.11188 0.0
H1225 H 0.89551 0.03631 0.14689 0.0
H1226 H 0.91171 0.04879 0.12211 0.0
H1227 H 0.96927 0.08007 0.13749 0.0
H1228 H 0.03322 0.05153 0.0881 0.0
H1229 H 0.01013 0.05895 0.10703 0.0
H1230 H 0.95434 0.04043 0.08018 0.0
C1231 C 0.9196 0.04818 0.13518 0.0
C1232 C 0.9657 0.07157 0.12487 0.0
C1233 C 0.91034 0.04107 0.14934 0.0
C1234 C 0.02002 0.0534 0.08147 0.0
C1235 C 1.00687 0.05783 0.09229 0.0
C1236 C 0.95747 0.04954 0.09237 0.0
C1237 C 0.93895 0.05389 0.13774 0.0
C1238 C 0.94948 0.05858 0.1222 0.0
C1239 C 0.9893 0.05966 0.08423 0.0
C1240 C 0.97452 0.0613 0.09589 0.0
H1241 H 0.94757 0.04504 0.18189 0.0
H1242 H 0.96363 0.05699 0.15734 0.0
H1243 H 0.93277 0.03794 0.10297 0.0
H1244 H 0.99504 0.05184 0.03957 0.0
H1245 H 0.972 0.05924 0.0586 0.0
C1246 C 0.29336 0.72067 0.46391 0.0
C1247 C 0.29497 0.70303 0.46528 0.0
C1248 C 0.29056 0.72705 0.44671 0.0
C1249 C 0.29289 0.71556 0.39697 0.0
H1250 H 0.26058 0.74938 0.39008 0.0
C1251 C 0.26712 0.73285 0.32526 0.0
C1252 C 0.27127 0.75091 0.32302 0.0
C1253 C 0.26838 0.72699 0.34279 0.0
C1254 C 0.26962 0.73992 0.39185 0.0
H1255 H 0.29499 0.6783 0.44963 0.0
H1256 H 0.28957 0.68913 0.42002 0.0
H1257 H 0.26722 0.7397 0.42047 0.0
H1258 H 0.2788 0.77701 0.33732 0.0
H1259 H 0.28047 0.76678 0.36788 0.0
H1260 H 0.29489 0.71552 0.36824 0.0
C1261 C 0.29097 0.69829 0.43204 0.0
C1262 C 0.27359 0.73448 0.40929 0.0
C1263 C 0.294 0.69202 0.44913 0.0
C1264 C 0.27555 0.763 0.33864 0.0
C1265 C 0.27646 0.75717 0.35613 0.0
C1266 C 0.28867 0.72077 0.37954 0.0
C1267 C 0.28911 0.71587 0.43052 0.0
C1268 C 0.28529 0.72221 0.4121 0.0
C1269 C 0.27344 0.7391 0.35837 0.0
C1270 C 0.27701 0.73299 0.37679 0.0
H1271 H 0.29404 0.72947 0.4761 0.0
H1272 H 0.2895 0.74074 0.44613 0.0
H1273 H 0.30231 0.70644 0.39857 0.0
H1274 H 0.26391 0.72324 0.31347 0.0
H1275 H 0.26586 0.71298 0.34417 0.0
C1276 C 0.5963 0.94804 0.68837 0.0
C1277 C 0.58589 0.94661 0.70324 0.0
C1278 C 0.58798 0.95042 0.6711 0.0
C1279 C 0.56761 0.95341 0.63434 0.0
H1280 H 0.53631 0.98839 0.63755 0.0
C1281 C 0.53259 1.00025 0.58293 0.0
C1282 C 0.5489 0.00907 0.57687 0.0
C1283 C 0.53358 0.98932 0.59721 0.0
C1284 C 0.54473 0.97837 0.63639 0.0
H1285 H 0.55822 0.94454 0.71124 0.0
H1286 H 0.54357 0.94817 0.68094 0.0
H1287 H 0.54418 0.97345 0.66444 0.0
H1288 H 0.57897 0.01334 0.58098 0.0
H1289 H 0.58059 0.99415 0.60553 0.0
H1290 H 0.56922 0.95946 0.60661 0.0
C1291 C 0.55829 0.94807 0.68275 0.0
C1292 C 0.5492 0.96972 0.65175 0.0
C1293 C 0.56665 0.94583 0.70008 0.0
C1294 C 0.56614 0.00685 0.58539 0.0
C1295 C 0.56709 0.99572 0.59931 0.0
C1296 C 0.56335 0.96225 0.61909 0.0
C1297 C 0.56901 0.95122 0.66826 0.0
C1298 C 0.56124 0.95757 0.65109 0.0
C1299 C 0.55086 0.98677 0.60526 0.0
C1300 C 0.55238 0.9752 0.62018 0.0
H1301 H 0.61114 0.94863 0.69032 0.0
H1302 H 0.59676 0.95292 0.66036 0.0
H1303 H 0.57655 0.94385 0.6332 0.0
H1304 H 0.51912 1.00169 0.57657 0.0
H1305 H 0.52089 0.9826 0.6017 0.0
C1306 C 0.27561 0.36071 0.96867 0.0
C1307 C 0.27423 0.37866 0.96925 0.0
C1308 C 0.27739 0.3511 0.95199 0.0
C1309 C 0.29208 0.35797 0.90504 0.0
H1310 H 0.26574 0.31034 0.89082 0.0
C1311 C 0.30542 0.31814 0.83873 0.0
C1312 C 0.29025 0.3073 0.82778 0.0
C1313 C 0.30355 0.32606 0.85611 0.0
C1314 C 0.2732 0.32367 0.89446 0.0
H1315 H 0.27371 0.4002 0.95199 0.0
H1316 H 0.27694 0.38388 0.92377 0.0
H1317 H 0.26255 0.32499 0.92057 0.0
H1318 H 0.26105 0.29636 0.82729 0.0
H1319 H 0.25785 0.30993 0.8575 0.0
H1320 H 0.30271 0.35679 0.87908 0.0
C1321 C 0.27673 0.37706 0.93608 0.0
C1322 C 0.27149 0.33207 0.91174 0.0
C1323 C 0.2747 0.38648 0.9525 0.0
C1324 C 0.27313 0.30458 0.8351 0.0
C1325 C 0.27131 0.31234 0.85262 0.0
C1326 C 0.29399 0.34952 0.88795 0.0
C1327 C 0.27821 0.35919 0.93536 0.0
C1328 C 0.28075 0.3495 0.91733 0.0
C1329 C 0.28646 0.32336 0.86349 0.0
C1330 C 0.2845 0.33222 0.88217 0.0
H1331 H 0.27535 0.35406 0.98108 0.0
H1332 H 0.27853 0.3374 0.95221 0.0
H1333 H 0.29965 0.37127 0.90866 0.0
H1334 H 0.31888 0.32064 0.83383 0.0
H1335 H 0.31569 0.33419 0.8639 0.0
C1336 C 0.95545 0.99239 0.26145 0.0
C1337 C 0.94101 1.00168 0.25785 0.0
C1338 C 0.96361 0.99213 0.27932 0.0
C1339 C 0.95628 1.00079 0.32777 0.0
H1340 H 1.00952 1.00396 0.33623 0.0
C1341 C 0.99837 0.01489 0.39942 0.0
C1342 C 0.01141 1.00413 0.40346 0.0
C1343 C 0.98937 0.01417 0.38172 0.0
C1344 C 0.99462 1.00293 0.33403 0.0
H1345 H 0.92379 0.01798 0.27016 0.0
H1346 H 0.93835 0.01792 0.30127 0.0
H1347 H 0.99455 1.00354 0.30515 0.0
H1348 H 0.02488 0.98389 0.3921 0.0
H1349 H 1.00944 0.98296 0.36113 0.0
H1350 H 0.95653 1.00058 0.3568 0.0
C1351 C 0.94311 0.0105 0.29035 0.0
C1352 C 0.98602 1.00262 0.31624 0.0
C1353 C 0.93482 0.01061 0.2725 0.0
C1354 C 0.01519 0.99261 0.3894 0.0
C1355 C 1.00632 0.99201 0.37168 0.0
C1356 C 0.96492 1.00127 0.34559 0.0
C1357 C 0.95764 1.0013 0.29397 0.0
C1358 C 0.96674 1.00151 0.31289 0.0
C1359 C 0.99335 1.0028 0.36769 0.0
C1360 C 0.98416 1.00231 0.34885 0.0
H1361 H 0.96042 0.98525 0.25047 0.0
H1362 H 0.97454 0.98465 0.28166 0.0
H1363 H 0.94137 0.99965 0.32566 0.0
H1364 H 0.99535 0.0241 0.40986 0.0
H1365 H 0.97957 0.02276 0.37893 0.0
C1366 C 0.30008 0.68376 0.59608 0.0
C1367 C 0.30127 0.69322 0.58051 0.0
C1368 C 0.30305 0.69244 0.61359 0.0
C1369 C 0.30121 0.73446 0.63852 0.0
H1370 H 0.32691 0.71514 0.67857 0.0
C1371 C 0.31195 0.76809 0.71173 0.0
C1372 C 0.3086 0.75724 0.72599 0.0
C1373 C 0.31317 0.76088 0.69417 0.0
C1374 C 0.31957 0.72061 0.66757 0.0
H1375 H 0.30679 0.71937 0.57129 0.0
H1376 H 0.31198 0.73467 0.60214 0.0
H1377 H 0.32564 0.70206 0.64733 0.0
H1378 H 0.30452 0.73027 0.73305 0.0
H1379 H 0.30648 0.71758 0.70218 0.0
H1380 H 0.29484 0.75281 0.65873 0.0
C1381 C 0.30864 0.72044 0.60062 0.0
C1382 C 0.31888 0.71316 0.64965 0.0
C1383 C 0.30575 0.71169 0.58297 0.0
C1384 C 0.30714 0.73899 0.72238 0.0
C1385 C 0.30831 0.73174 0.7047 0.0
C1386 C 0.30189 0.74191 0.65643 0.0
C1387 C 0.30727 0.71087 0.61613 0.0
C1388 C 0.30949 0.71985 0.63493 0.0
C1389 C 0.31102 0.7426 0.69031 0.0
C1390 C 0.31093 0.73498 0.67121 0.0
H1391 H 0.29671 0.66953 0.59481 0.0
H1392 H 0.30158 0.68466 0.62516 0.0
H1393 H 0.29363 0.73977 0.62755 0.0
H1394 H 0.31337 0.78223 0.71403 0.0
H1395 H 0.31568 0.76967 0.68354 0.0
C1396 C 0.56344 0.00778 0.79381 0.0
C1397 C 0.58066 1.00297 0.79219 0.0
C1398 C 0.56147 0.01981 0.80806 0.0
C1399 C 0.58378 0.04013 0.85357 0.0
H1400 H 0.54807 0.07073 0.84577 0.0
C1401 C 0.56479 0.07838 0.91425 0.0
C1402 C 0.54616 0.07152 0.91614 0.0
C1403 C 0.57137 0.07669 0.89729 0.0
C1404 C 0.55832 0.06248 0.84804 0.0
H1405 H 0.60934 0.00696 0.80421 0.0
H1406 H 0.60603 0.02825 0.82882 0.0
H1407 H 0.55538 0.05308 0.81979 0.0
H1408 H 0.51938 0.05982 0.90107 0.0
H1409 H 0.53075 0.0575 0.87165 0.0
H1410 H 0.5864 0.04925 0.88185 0.0
C1411 C 0.59391 0.02247 0.81935 0.0
C1412 C 0.56233 0.05219 0.83325 0.0
C1413 C 0.59581 0.01021 0.80526 0.0
C1414 C 0.53379 0.06529 0.90027 0.0
C1415 C 0.54032 0.06391 0.8833 0.0
C1416 C 0.57997 0.0506 0.86827 0.0
C1417 C 0.57675 0.02754 0.82084 0.0
C1418 C 0.57455 0.04037 0.83597 0.0
C1419 C 0.55934 0.06852 0.8819 0.0
C1420 C 0.5667 0.06136 0.86575 0.0
H1421 H 0.5515 1.00237 0.78396 0.0
H1422 H 0.54791 0.023 0.80906 0.0
H1423 H 0.59313 0.03111 0.85626 0.0
H1424 H 0.57458 0.0838 0.9261 0.0
H1425 H 0.58608 0.08058 0.89646 0.0
C1426 C 0.28464 0.38522 0.10484 0.0
C1427 C 0.2777 0.37557 0.08782 0.0
C1428 C 0.28535 0.377 0.12145 0.0
C1429 C 0.28243 0.3321 0.14062 0.0
H1430 H 0.27738 0.35804 0.18593 0.0
C1431 C 0.27784 0.29706 0.20904 0.0
C1432 C 0.28452 0.30663 0.22617 0.0
C1433 C 0.27674 0.30542 0.19256 0.0
C1434 C 0.27908 0.35048 0.17356 0.0
H1435 H 0.26604 0.34922 0.07561 0.0
H1436 H 0.26714 0.33502 0.10418 0.0
H1437 H 0.27615 0.37212 0.15746 0.0
H1438 H 0.29528 0.33308 0.23862 0.0
H1439 H 0.29353 0.34752 0.21025 0.0
H1440 H 0.28546 0.31049 0.15668 0.0
C1441 C 0.27231 0.34904 0.10482 0.0
C1442 C 0.27836 0.3587 0.15695 0.0
C1443 C 0.27156 0.35728 0.08822 0.0
C1444 C 0.28988 0.32505 0.22597 0.0
C1445 C 0.2888 0.33344 0.20945 0.0
C1446 C 0.28319 0.32389 0.15723 0.0
C1447 C 0.27921 0.35867 0.12193 0.0
C1448 C 0.27999 0.34974 0.13999 0.0
C1449 C 0.28232 0.32384 0.19224 0.0
C1450 C 0.28151 0.33282 0.1742 0.0
H1451 H 0.28958 0.39927 0.10539 0.0
H1452 H 0.29105 0.38514 0.13395 0.0
H1453 H 0.28413 0.32455 0.12824 0.0
H1454 H 0.27354 0.28291 0.20827 0.0
H1455 H 0.27131 0.29727 0.18001 0.0
C1456 C 0.25752 0.91989 0.05853 0.0
C1457 C 0.2524 0.90207 0.05189 0.0
C1458 C 0.24414 0.92967 0.06257 0.0
C1459 C 0.19518 0.93162 0.05107 0.0
H1460 H 0.20457 0.96613 0.09319 0.0
C1461 C 0.14255 0.97547 0.06693 0.0
C1462 C 0.14978 0.9934 0.07191 0.0
C1463 C 0.15427 0.96325 0.06622 0.0
C1464 C 0.2018 0.95665 0.0813 0.0
H1465 H 0.2292 0.88043 0.0445 0.0
H1466 H 0.20563 0.89765 0.05155 0.0
H1467 H 0.22621 0.94632 0.08887 0.0
H1468 H 0.17499 0.01251 0.08046 0.0
H1469 H 0.19553 0.99118 0.07915 0.0
H1470 H 0.17099 0.94217 0.04328 0.0
C1471 C 0.22008 0.90402 0.05353 0.0
C1472 C 0.21417 0.94526 0.07884 0.0
C1473 C 0.23355 0.89415 0.04957 0.0
C1474 C 0.16898 0.99877 0.07672 0.0
C1475 C 0.18074 0.98653 0.07598 0.0
C1476 C 0.18281 0.94302 0.05352 0.0
C1477 C 0.22526 0.92191 0.06003 0.0
C1478 C 0.21116 0.9328 0.06355 0.0
C1479 C 0.17353 0.96866 0.07048 0.0
C1480 C 0.1861 0.95584 0.06853 0.0
H1481 H 0.27192 0.92641 0.06049 0.0
H1482 H 0.2486 0.94347 0.06726 0.0
H1483 H 0.19259 0.92232 0.03903 0.0
H1484 H 0.12777 0.97087 0.06348 0.0
H1485 H 0.14822 0.94956 0.06229 0.0
C1486 C 0.75303 0.60778 0.01115 0.0
C1487 C 0.75777 0.62616 0.01545 0.0
C1488 C 0.73485 0.59845 0.01201 0.0
C1489 C 0.69137 0.60183 0.03331 0.0
H1490 H 0.66786 0.56362 0.99721 0.0
C1491 C 0.61325 0.57027 0.03261 0.0
C1492 C 0.60647 0.55258 0.02584 0.0
C1493 C 0.6316 0.5786 0.03124 0.0
C1494 C 0.67416 0.57405 0.00766 0.0
H1495 H 0.74657 0.64893 0.02404 0.0
H1496 H 0.71526 0.63285 0.02568 0.0
H1497 H 0.69937 0.57892 0.99502 0.0
H1498 H 0.61433 0.52991 0.01225 0.0
H1499 H 0.6464 0.54414 0.01035 0.0
H1500 H 0.66657 0.59686 0.04626 0.0
C1501 C 0.72557 0.62552 0.02166 0.0
C1502 C 0.69241 0.58295 0.00633 0.0
C1503 C 0.74363 0.63484 0.02058 0.0
C1504 C 0.61888 0.54351 0.01767 0.0
C1505 C 0.63739 0.55183 0.01645 0.0
C1506 C 0.67326 0.59284 0.03476 0.0
C1507 C 0.72077 0.60712 0.01747 0.0
C1508 C 0.70133 0.59715 0.01904 0.0
C1509 C 0.6442 0.56961 0.0232 0.0
C1510 C 0.66409 0.57884 0.02187 0.0
H1511 H 0.76343 0.60052 0.00719 0.0
H1512 H 0.73196 0.58433 0.00879 0.0
H1513 H 0.69768 0.61238 0.04365 0.0
H1514 H 0.60425 0.57792 0.0388 0.0
H1515 H 0.63572 0.59233 0.03626 0.0
C1516 C 0.75408 0.51348 0.32454 0.0
C1517 C 0.73715 0.50749 0.33122 0.0
C1518 C 0.76708 0.50252 0.32343 0.0
C1519 C 0.7793 0.46085 0.3381 0.0
H1520 H 0.79422 0.45578 0.28949 0.0
C1521 C 0.79491 0.39652 0.30683 0.0
C1522 C 0.80882 0.39694 0.29518 0.0
C1523 C 0.79032 0.41206 0.3139 0.0
C1524 C 0.79057 0.45726 0.30326 0.0
H1525 H 0.72106 0.48584 0.34309 0.0
H1526 H 0.74363 0.46675 0.34108 0.0
H1527 H 0.77901 0.47999 0.29787 0.0
H1528 H 0.82923 0.41406 0.28226 0.0
H1529 H 0.82107 0.44135 0.29456 0.0
H1530 H 0.79021 0.43768 0.34322 0.0
C1531 C 0.74696 0.4799 0.33678 0.0
C1532 C 0.78186 0.47115 0.30808 0.0
C1533 C 0.73395 0.49079 0.3378 0.0
C1534 C 0.8183 0.41331 0.29103 0.0
C1535 C 0.81367 0.42892 0.2981 0.0
C1536 C 0.78804 0.44697 0.33329 0.0
C1537 C 0.76342 0.48545 0.32911 0.0
C1538 C 0.7756 0.47275 0.32534 0.0
C1539 C 0.7995 0.42843 0.30947 0.0
C1540 C 0.7932 0.44471 0.31562 0.0
H1541 H 0.75697 0.52633 0.31945 0.0
H1542 H 0.77974 0.5072 0.31764 0.0
H1543 H 0.77489 0.46194 0.3516 0.0
H1544 H 0.78709 0.38413 0.31002 0.0
H1545 H 0.77907 0.41121 0.32229 0.0
C1546 C 0.86394 0.41757 0.53626 0.0
C1547 C 0.85006 0.42292 0.52464 0.0
C1548 C 0.88205 0.42735 0.53875 0.0
C1549 C 0.90752 0.47214 0.53478 0.0
H1550 H 0.95081 0.45046 0.53411 0.0
C1551 C 0.97899 0.5108 0.52409 0.0
C1552 C 0.99481 0.50681 0.53395 0.0
C1553 C 0.9615 0.50072 0.52503 0.0
C1554 C 0.93886 0.4567 0.53462 0.0
H1555 H 0.84455 0.44229 0.50594 0.0
H1556 H 0.87593 0.45905 0.51014 0.0
H1557 H 0.92001 0.43192 0.53155 0.0
H1558 H 1.00452 0.48939 0.55299 0.0
H1559 H 0.97393 0.47191 0.55468 0.0
H1560 H 0.92624 0.49688 0.53758 0.0
C1561 C 0.8728 0.44758 0.51765 0.0
C1562 C 0.92125 0.44608 0.53313 0.0
C1563 C 0.85481 0.43787 0.51515 0.0
C1564 C 0.99265 0.49281 0.54516 0.0
C1565 C 0.97514 0.4827 0.54605 0.0
C1566 C 0.92508 0.48273 0.53627 0.0
C1567 C 0.88655 0.44265 0.52971 0.0
C1568 C 0.90537 0.4537 0.53284 0.0
C1569 C 0.95941 0.48643 0.53584 0.0
C1570 C 0.94092 0.47514 0.53587 0.0
H1571 H 0.86073 0.40612 0.54377 0.0
H1572 H 0.89239 0.42324 0.54814 0.0
H1573 H 0.89556 0.4784 0.535 0.0
H1574 H 0.98014 0.52146 0.5153 0.0
H1575 H 0.94967 0.50382 0.51683 0.0
C1576 C 0.44216 0.12072 0.28347 0.0
C1577 C 0.43946 0.10439 0.29086 0.0
C1578 C 0.42797 0.13044 0.28214 0.0
C1579 C 0.37703 0.12354 0.27923 0.0
H1580 H 0.38563 0.17449 0.28228 0.0
C1581 C 0.31805 0.16357 0.27071 0.0
C1582 C 0.32094 0.17749 0.25951 0.0
C1583 C 0.33234 0.15459 0.27567 0.0
C1584 C 0.38306 0.16024 0.2813 0.0
H1585 H 0.42031 0.08601 0.30387 0.0
H1586 H 0.39576 0.10319 0.30204 0.0
H1587 H 0.41135 0.15963 0.29051 0.0
H1588 H 0.34099 0.19291 0.24469 0.0
H1589 H 0.36585 0.17713 0.25321 0.0
H1590 H 0.34873 0.12421 0.27 0.0
C1591 C 0.40861 0.10826 0.29675 0.0
C1592 C 0.39778 0.15173 0.286 0.0
C1593 C 0.42274 0.09848 0.29793 0.0
C1594 C 0.33827 0.18208 0.25314 0.0
C1595 C 0.35258 0.17321 0.25821 0.0
C1596 C 0.3623 0.13206 0.27466 0.0
C1597 C 0.41084 0.12409 0.28833 0.0
C1598 C 0.39499 0.13327 0.28481 0.0
C1599 C 0.34982 0.15951 0.26968 0.0
C1600 C 0.36523 0.15048 0.27541 0.0
H1601 H 0.45488 0.12559 0.27786 0.0
H1602 H 0.43013 0.1425 0.27544 0.0
H1603 H 0.37443 0.1093 0.27782 0.0
H1604 H 0.30481 0.15976 0.27579 0.0
H1605 H 0.32986 0.14409 0.28456 0.0
C1606 C 0.38514 0.13117 0.51568 0.0
C1607 C 0.37046 0.12424 0.52551 0.0
C1608 C 0.40136 0.1236 0.5155 0.0
C1609 C 0.41947 0.08167 0.52561 0.0
H1610 H 0.46806 0.1101 0.52461 0.0
C1611 C 0.48482 0.04886 0.51889 0.0
C1612 C 0.5024 0.05725 0.52777 0.0
C1613 C 0.46924 0.05724 0.51826 0.0
C1614 C 0.45467 0.10183 0.52501 0.0
H1615 H 0.3621 0.10351 0.54289 0.0
H1616 H 0.38964 0.09064 0.54254 0.0
H1617 H 0.44077 0.12402 0.52398 0.0
H1618 H 0.51676 0.08165 0.54289 0.0
H1619 H 0.48985 0.09616 0.54183 0.0
H1620 H 0.43322 0.05954 0.52684 0.0
C1621 C 0.38878 0.10182 0.53473 0.0
C1622 C 0.4388 0.1099 0.52443 0.0
C1623 C 0.37279 0.10941 0.53502 0.0
C1624 C 0.50364 0.07454 0.53592 0.0
C1625 C 0.48805 0.083 0.53518 0.0
C1626 C 0.43526 0.07362 0.52604 0.0
C1627 C 0.40353 0.10863 0.52497 0.0
C1628 C 0.42077 0.10004 0.52485 0.0
C1629 C 0.47039 0.07454 0.5264 0.0
C1630 C 0.45332 0.08345 0.52582 0.0
H1631 H 0.38416 0.14253 0.50817 0.0
H1632 H 0.41212 0.12937 0.50767 0.0
H1633 H 0.40609 0.0733 0.52572 0.0
H1634 H 0.48299 0.03565 0.51232 0.0
H1635 H 0.45625 0.05011 0.51108 0.0
C1636 C 0.71964 0.60367 0.33393 0.0
C1637 C 0.70116 0.59847 0.3259 0.0
C1638 C 0.72881 0.6211 0.33412 0.0
C1639 C 0.72108 0.66631 0.32651 0.0
H1640 H 0.77066 0.67267 0.31205 0.0
C1641 C 0.75379 0.72648 0.29212 0.0
C1642 C 0.77261 0.73376 0.29727 0.0
C1643 C 0.74565 0.7111 0.2991 0.0
C1644 C 0.75695 0.67116 0.31642 0.0
H1645 H 0.67765 0.60768 0.31234 0.0
H1646 H 0.69371 0.63786 0.31232 0.0
H1647 H 0.75524 0.64356 0.31821 0.0
H1648 H 0.79758 0.73082 0.31406 0.0
H1649 H 0.78334 0.70365 0.32606 0.0
H1650 H 0.72258 0.69384 0.3239 0.0
C1651 C 0.70107 0.62859 0.31875 0.0
C1652 C 0.74811 0.65448 0.31998 0.0
C1653 C 0.69188 0.61121 0.31863 0.0
C1654 C 0.78306 0.72549 0.3098 0.0
C1655 C 0.77494 0.70994 0.31663 0.0
C1656 C 0.72988 0.68296 0.32281 0.0
C1657 C 0.71973 0.63369 0.32625 0.0
C1658 C 0.72991 0.65178 0.32468 0.0
C1659 C 0.75618 0.70255 0.31125 0.0
C1660 C 0.74775 0.68546 0.31735 0.0
H1661 H 0.72714 0.59421 0.33979 0.0
H1662 H 0.74309 0.62465 0.34025 0.0
H1663 H 0.70721 0.66476 0.33046 0.0
H1664 H 0.74532 0.7326 0.28259 0.0
H1665 H 0.73121 0.7056 0.29455 0.0
C1666 C 0.96778 0.49982 0.77082 0.0
C1667 C 0.96441 0.51451 0.78124 0.0
C1668 C 0.95759 0.48303 0.77234 0.0
C1669 C 0.91338 0.4621 0.78768 0.0
H1670 H 0.93433 0.41971 0.78631 0.0
C1671 C 0.87527 0.39811 0.81013 0.0
C1672 C 0.87204 0.38353 0.79704 0.0
C1673 C 0.88801 0.41318 0.80795 0.0
C1674 C 0.92835 0.43148 0.78659 0.0
H1675 H 0.94861 0.52306 0.80217 0.0
H1676 H 0.93145 0.49393 0.80528 0.0
H1677 H 0.954 0.4481 0.78299 0.0
H1678 H 0.88043 0.37304 0.77186 0.0
H1679 H 0.90315 0.39939 0.76837 0.0
H1680 H 0.88794 0.44562 0.79179 0.0
C1681 C 0.94136 0.49532 0.79542 0.0
C1682 C 0.93954 0.44768 0.78463 0.0
C1683 C 0.95129 0.51203 0.79372 0.0
C1684 C 0.88267 0.38399 0.78226 0.0
C1685 C 0.89562 0.39906 0.78021 0.0
C1686 C 0.90235 0.44603 0.78987 0.0
C1687 C 0.94403 0.48067 0.78445 0.0
C1688 C 0.93221 0.46321 0.78544 0.0
C1689 C 0.89799 0.41391 0.79279 0.0
C1690 C 0.90978 0.43063 0.7896 0.0
H1691 H 0.9778 0.50138 0.76107 0.0
H1692 H 0.95994 0.47202 0.76365 0.0
H1693 H 0.90712 0.47369 0.7878 0.0
H1694 H 0.86768 0.39803 0.82191 0.0
H1695 H 0.88984 0.42442 0.81798 0.0
C1696 C 0.04878 0.88008 0.1169 0.0
C1697 C 0.05628 0.86553 0.11122 0.0
C1698 C 0.04033 0.88937 0.10407 0.0
C1699 C 0.02042 0.90647 0.07486 0.0
H1700 H 0.05388 0.91885 0.03874 0.0
C1701 C 0.02275 0.97033 0.03865 0.0
C1702 C 0.04081 0.98037 0.04075 0.0
C1703 C 0.01979 0.95261 0.04214 0.0
C1704 C 0.04423 0.91537 0.04856 0.0
H1705 H 0.05951 0.84837 0.08778 0.0
H1706 H 0.04467 0.86465 0.06528 0.0
H1707 H 0.05596 0.89311 0.05518 0.0
H1708 H 0.06996 0.97958 0.04758 0.0
H1709 H 0.06479 0.94897 0.05378 0.0
H1710 H 0.0099 0.92976 0.06935 0.0
C1711 C 0.04556 0.869 0.07966 0.0
C1712 C 0.04526 0.90049 0.05786 0.0
C1713 C 0.05406 0.8597 0.09253 0.0
C1714 C 0.05585 0.97228 0.04594 0.0
C1715 C 0.05291 0.95463 0.04925 0.0
C1716 C 0.01946 0.92143 0.0656 0.0
C1717 C 0.03916 0.88428 0.08527 0.0
C1718 C 0.03411 0.89648 0.07186 0.0
C1719 C 0.03487 0.94464 0.04753 0.0
C1720 C 0.0321 0.92653 0.05316 0.0
H1721 H 0.05013 0.8848 0.13122 0.0
H1722 H 0.03581 0.90122 0.10889 0.0
H1723 H 0.01137 0.90347 0.08531 0.0
H1724 H 0.01089 0.97621 0.03459 0.0
H1725 H 1.00574 0.94519 0.04077 0.0
C1726 C 0.97285 0.23003 0.83118 0.0
C1727 C 0.97309 0.22407 0.84875 0.0
C1728 C 0.9562 0.23146 0.82121 0.0
C1729 C 0.91828 0.22932 0.80021 0.0
H1730 H 0.88731 0.25209 0.82958 0.0
C1731 C 0.84915 0.24918 0.77184 0.0
C1732 C 0.84577 0.2652 0.77958 0.0
C1733 C 0.86471 0.24266 0.77861 0.0
C1734 C 0.89588 0.24582 0.82118 0.0
H1735 H 0.95589 0.21363 0.86902 0.0
H1736 H 0.92669 0.21597 0.85146 0.0
H1737 H 0.91351 0.24149 0.84452 0.0
H1738 H 0.85676 0.28764 0.79932 0.0
H1739 H 0.88402 0.27642 0.81083 0.0
H1740 H 0.90091 0.23436 0.77681 0.0
C1741 C 0.93949 0.21986 0.8456 0.0
C1742 C 0.9107 0.23945 0.82976 0.0
C1743 C 0.95619 0.21845 0.85562 0.0
C1744 C 0.85885 0.27513 0.79327 0.0
C1745 C 0.87439 0.26865 0.79995 0.0
C1746 C 0.90339 0.23571 0.7916 0.0
C1747 C 0.93939 0.22691 0.82854 0.0
C1748 C 0.92227 0.23141 0.81937 0.0
C1749 C 0.87713 0.25208 0.79315 0.0
C1750 C 0.89231 0.24436 0.80202 0.0
H1751 H 0.98561 0.23432 0.82539 0.0
H1752 H 0.95664 0.23708 0.8082 0.0
H1753 H 0.92687 0.22303 0.79186 0.0
H1754 H 0.83928 0.24123 0.76128 0.0
H1755 H 0.86651 0.22986 0.7731 0.0
C1756 C 0.61867 0.27539 0.63768 0.0
C1757 C 0.60745 0.28732 0.63203 0.0
C1758 C 0.61944 0.26053 0.62621 0.0
C1759 C 0.59094 0.23067 0.58979 0.0
H1760 H 0.63588 0.21223 0.58564 0.0
C1761 C 0.5891 0.16309 0.55141 0.0
C1762 C 0.59956 0.15228 0.56069 0.0
C1763 C 0.59156 0.181 0.55711 0.0
C1764 C 0.62321 0.2172 0.58671 0.0
H1765 H 0.58886 0.29337 0.60957 0.0
H1766 H 0.59019 0.2674 0.58964 0.0
H1767 H 0.63775 0.24131 0.60145 0.0
H1768 H 0.62081 0.15173 0.58314 0.0
H1769 H 0.62497 0.18277 0.59316 0.0
H1770 H 0.57629 0.20636 0.57578 0.0
C1771 C 0.59825 0.2695 0.60299 0.0
C1772 C 0.6243 0.23383 0.59573 0.0
C1773 C 0.59756 0.2844 0.61441 0.0
C1774 C 0.61278 0.15978 0.5755 0.0
C1775 C 0.61519 0.17761 0.58123 0.0
C1776 C 0.58984 0.21401 0.58088 0.0
C1777 C 0.60895 0.25728 0.6089 0.0
C1778 C 0.60814 0.24057 0.59766 0.0
C1779 C 0.60447 0.18839 0.57225 0.0
C1780 C 0.60592 0.20693 0.57958 0.0
H1781 H 0.62651 0.27728 0.65114 0.0
H1782 H 0.62767 0.25123 0.63117 0.0
H1783 H 0.57823 0.23546 0.59127 0.0
H1784 H 0.57895 0.15769 0.53982 0.0
H1785 H 0.58324 0.18903 0.54979 0.0
C1786 C 0.58491 0.71654 0.39512 0.0
C1787 C 0.56788 0.70999 0.38442 0.0
C1788 C 0.60129 0.71918 0.38695 0.0
C1789 C 0.62142 0.71154 0.34366 0.0
H1790 H 0.64697 0.75989 0.3554 0.0
C1791 C 0.66628 0.74895 0.29454 0.0
C1792 C 0.68333 0.75917 0.30227 0.0
C1793 C 0.65344 0.7416 0.30578 0.0
C1794 C 0.64018 0.74628 0.35213 0.0
H1795 H 0.55477 0.69924 0.35736 0.0
H1796 H 0.58321 0.70392 0.34313 0.0
H1797 H 0.62351 0.7473 0.37397 0.0
H1798 H 0.70006 0.77038 0.32767 0.0
H1799 H 0.6777 0.75747 0.34728 0.0
H1800 H 0.63776 0.71077 0.32143 0.0
C1801 C 0.58403 0.70707 0.35775 0.0
C1802 C 0.62682 0.73902 0.36284 0.0
C1803 C 0.5677 0.7045 0.36588 0.0
C1804 C 0.68707 0.76239 0.32138 0.0
C1805 C 0.67425 0.7551 0.33259 0.0
C1806 C 0.63478 0.71882 0.33292 0.0
C1807 C 0.60085 0.7152 0.36803 0.0
C1808 C 0.61705 0.72169 0.35851 0.0
C1809 C 0.65742 0.74443 0.32491 0.0
C1810 C 0.64403 0.73636 0.33686 0.0
H1811 H 0.58547 0.72075 0.4095 0.0
H1812 H 0.61414 0.72519 0.39524 0.0
H1813 H 0.6142 0.6981 0.3401 0.0
H1814 H 0.66313 0.7462 0.27985 0.0
H1815 H 0.64042 0.73366 0.29951 0.0
C1816 C 0.0577 0.21808 0.45572 0.0
C1817 C 0.05508 0.21925 0.43659 0.0
C1818 C 0.05632 0.20157 0.46344 0.0
C1819 C 0.05616 0.15241 0.45174 0.0
H1820 H 0.03788 0.14685 0.49859 0.0
C1821 C 0.04604 0.08241 0.48211 0.0
C1822 C 0.04505 0.08089 0.501 0.0
C1823 C 0.04695 0.09885 0.47433 0.0
C1824 C 0.04334 0.14788 0.48561 0.0
H1825 H 0.04893 0.20293 0.4109 0.0
H1826 H 0.04671 0.17464 0.42409 0.0
H1827 H 0.04033 0.17505 0.48567 0.0
H1828 H 0.04455 0.09665 0.52625 0.0
H1829 H 0.04658 0.12478 0.51319 0.0
H1830 H 0.05953 0.12546 0.4517 0.0
C1831 C 0.04993 0.18651 0.43333 0.0
C1832 C 0.04472 0.16444 0.47803 0.0
C1833 C 0.05109 0.20298 0.42564 0.0
C1834 C 0.04507 0.0968 0.51166 0.0
C1835 C 0.04616 0.11326 0.50394 0.0
C1836 C 0.05497 0.1359 0.45939 0.0
C1837 C 0.05247 0.18525 0.45249 0.0
C1838 C 0.05112 0.16724 0.46083 0.0
C1839 C 0.04716 0.11491 0.48499 0.0
C1840 C 0.04847 0.13301 0.47659 0.0
H1841 H 0.06083 0.23002 0.46486 0.0
H1842 H 0.05863 0.2017 0.47817 0.0
H1843 H 0.06145 0.15358 0.43867 0.0
H1844 H 0.0461 0.07076 0.47316 0.0
H1845 H 0.04735 0.09877 0.45974 0.0
C1846 C 0.61116 0.28781 0.16411 0.0
C1847 C 0.59627 0.29115 0.17348 0.0
C1848 C 0.62861 0.28706 0.17356 0.0
C1849 C 0.65863 0.29994 0.21888 0.0
H1850 H 0.68657 0.26615 0.20059 0.0
C1851 C 0.73593 0.29983 0.24896 0.0
C1852 C 0.7417 0.28352 0.25023 0.0
C1853 C 0.71828 0.30092 0.24006 0.0
C1854 C 0.67903 0.27565 0.20606 0.0
H1855 H 0.58865 0.29644 0.20055 0.0
H1856 H 0.61896 0.29528 0.21699 0.0
H1857 H 0.65628 0.26759 0.18477 0.0
H1858 H 0.73276 0.25552 0.2428 0.0
H1859 H 0.70239 0.25741 0.22742 0.0
H1860 H 0.6814 0.30792 0.24024 0.0
C1861 C 0.61718 0.29329 0.20221 0.0
C1862 C 0.66155 0.27662 0.19677 0.0
C1863 C 0.59963 0.29387 0.19273 0.0
C1864 C 0.72906 0.26837 0.24223 0.0
C1865 C 0.71152 0.26948 0.23321 0.0
C1866 C 0.67622 0.29909 0.22807 0.0
C1867 C 0.63205 0.28975 0.19284 0.0
C1868 C 0.65091 0.28876 0.20296 0.0
C1869 C 0.70571 0.28577 0.23187 0.0
C1870 C 0.6868 0.28688 0.22191 0.0
H1871 H 0.60932 0.28564 0.14933 0.0
H1872 H 0.63954 0.28455 0.16564 0.0
H1873 H 0.65118 0.30961 0.22416 0.0
H1874 H 0.7451 0.31185 0.25482 0.0
H1875 H 0.71464 0.31378 0.23931 0.0
C1876 C 0.56431 0.8394 0.95604 0.0
C1877 C 0.5613 0.83657 0.93672 0.0
C1878 C 0.56308 0.85589 0.96542 0.0
C1879 C 0.54323 0.89759 0.95873 0.0
H1880 H 0.5781 0.91911 1.00032 0.0
C1881 C 0.54289 0.97051 0.98806 0.0
C1882 C 0.55107 0.97717 0.00592 0.0
C1883 C 0.54413 0.95347 0.98045 0.0
C1884 C 0.56793 0.91344 0.98889 0.0
H1885 H 0.55418 0.84965 0.91264 0.0
H1886 H 0.55175 0.87734 0.92855 0.0
H1887 H 0.57971 0.88989 0.98672 0.0
H1888 H 0.56697 0.97007 0.02963 0.0
H1889 H 0.56863 0.94059 0.01691 0.0
H1890 H 0.53102 0.92057 0.96092 0.0
C1891 C 0.55515 0.86703 0.9367 0.0
C1892 C 0.56893 0.89638 0.98096 0.0
C1893 C 0.5567 0.85088 0.92743 0.0
C1894 C 0.5605 0.96579 0.01582 0.0
C1895 C 0.56154 0.94861 0.00831 0.0
C1896 C 0.54204 0.91447 0.96677 0.0
C1897 C 0.55837 0.87012 0.95592 0.0
C1898 C 0.55675 0.88807 0.9655 0.0
C1899 C 0.5534 0.94186 0.99033 0.0
C1900 C 0.55448 0.92312 0.98198 0.0
H1901 H 0.56797 0.82902 0.96394 0.0
H1902 H 0.56563 0.8574 0.9802 0.0
H1903 H 0.53323 0.89188 0.94714 0.0
H1904 H 0.53558 0.97861 0.97971 0.0
H1905 H 0.53789 0.94963 0.96652 0.0
C1906 C 0.97441 0.79388 0.67739 0.0
C1907 C 0.98491 0.78067 0.68096 0.0
C1908 C 0.95783 0.79466 0.68561 0.0
C1909 C 0.92154 0.76679 0.71047 0.0
H1910 H 0.90762 0.81098 0.72514 0.0
C1911 C 0.85046 0.76826 0.7398 0.0
C1912 C 0.84882 0.78174 0.7531 0.0
C1913 C 0.86668 0.7686 0.73099 0.0
C1914 C 0.91122 0.79842 0.72131 0.0
H1915 H 0.98521 0.75783 0.69631 0.0
H1916 H 0.95717 0.75913 0.71013 0.0
H1917 H 0.93551 0.81083 0.70983 0.0
H1918 H 0.86388 0.80642 0.76709 0.0
H1919 H 0.89199 0.80701 0.75191 0.0
H1920 H 0.89755 0.75432 0.72204 0.0
C1921 C 0.9614 0.76894 0.7009 0.0
C1922 C 0.92731 0.79834 0.71221 0.0
C1923 C 0.97786 0.76827 0.69291 0.0
C1924 C 0.86432 0.79565 0.7571 0.0
C1925 C 0.88057 0.79606 0.74816 0.0
C1926 C 0.90545 0.76686 0.7194 0.0
C1927 C 0.95087 0.78212 0.69758 0.0
C1928 C 0.933 0.7825 0.70667 0.0
C1929 C 0.88222 0.7825 0.73485 0.0
C1930 C 0.89981 0.78266 0.72515 0.0
H1931 H 0.97912 0.80381 0.66845 0.0
H1932 H 0.95036 0.80505 0.6824 0.0
H1933 H 0.92487 0.75417 0.70641 0.0
H1934 H 0.83905 0.7573 0.73601 0.0
H1935 H 0.86679 0.75794 0.72077 0.0
C1936 C 0.16271 0.01884 0.88422 0.0
C1937 C 0.15236 0.0299 0.87513 0.0
C1938 C 0.1563 0.01041 0.89911 0.0
C1939 C 0.11303 0.99715 0.91938 0.0
H1940 H 0.14375 1.00312 0.96605 0.0
C1941 C 0.07766 0.99547 0.983 0.0
C1942 C 0.08455 0.01081 0.9947 0.0
C1943 C 0.08853 0.98965 0.97035 0.0
C1944 C 0.13502 1.00114 0.95307 0.0
H1945 H 0.12767 0.04144 0.87504 0.0
H1946 H 0.11675 0.02703 0.90098 0.0
H1947 H 0.15797 0.00992 0.93836 0.0
H1948 H 0.10879 0.03106 0.00368 0.0
H1949 H 0.12723 0.02162 0.98117 0.0
H1950 H 0.08988 0.99019 0.93394 0.0
C1951 C 0.12952 0.02446 0.89634 0.0
C1952 C 0.1432 1.00488 0.93722 0.0
C1953 C 0.1359 0.03288 0.8816 0.0
C1954 C 0.10296 0.01935 0.99461 0.0
C1955 C 0.11369 0.01372 0.98182 0.0
C1956 C 0.10484 0.99362 0.93517 0.0
C1957 C 0.13942 0.01285 0.90498 0.0
C1958 C 0.13206 1.00402 0.92047 0.0
C1959 C 0.10633 0.99927 0.96898 0.0
C1960 C 0.11559 0.99675 0.95236 0.0
H1961 H 0.17546 0.01628 0.87952 0.0
H1962 H 0.16427 1.00167 0.90571 0.0
H1963 H 0.10423 0.99591 0.90648 0.0
H1964 H 0.06367 0.98831 0.98314 0.0
H1965 H 0.0826 0.97819 0.96097 0.0
C1966 C 0.80186 0.33582 0.58567 0.0
C1967 C 0.81083 0.35298 0.58346 0.0
C1968 C 0.80363 0.32898 0.60269 0.0
C1969 C 0.81413 0.34361 0.652 0.0
H1970 H 0.81541 0.29441 0.65673 0.0
C1971 C 0.81681 0.31418 0.7224 0.0
C1972 C 0.8048 0.29799 0.72287 0.0
C1973 C 0.81982 0.32108 0.70565 0.0
C1974 C 0.81497 0.30817 0.65564 0.0
H1975 H 0.82933 0.37615 0.59725 0.0
H1976 H 0.8326 0.36415 0.6268 0.0
H1977 H 0.81671 0.3058 0.62683 0.0
H1978 H 0.78671 0.27631 0.70599 0.0
H1979 H 0.79185 0.28831 0.67713 0.0
H1980 H 0.81207 0.3459 0.68077 0.0
C1981 C 0.82393 0.35607 0.61548 0.0
C1982 C 0.81569 0.3147 0.63848 0.0
C1983 C 0.82216 0.3629 0.59848 0.0
C1984 C 0.79608 0.28881 0.70623 0.0
C1985 C 0.79913 0.29563 0.68959 0.0
C1986 C 0.81341 0.33708 0.66917 0.0
C1987 C 0.81441 0.33915 0.61791 0.0
C1988 C 0.81501 0.33244 0.63638 0.0
C1989 C 0.81099 0.31186 0.68904 0.0
C1990 C 0.81351 0.31921 0.67115 0.0
H1991 H 0.79297 0.32786 0.5744 0.0
H1992 H 0.79596 0.31596 0.60408 0.0
H1993 H 0.81333 0.3573 0.65087 0.0
H1994 H 0.82376 0.3216 0.73495 0.0
H1995 H 0.82913 0.33357 0.7057 0.0
C1996 C 0.54332 0.06046 0.33082 0.0
C1997 C 0.52948 0.07035 0.32664 0.0
C1998 C 0.55025 0.05945 0.34895 0.0
C1999 C 0.55445 0.07828 0.39629 0.0
H2000 H 0.54319 0.0298 0.40785 0.0
C2001 C 0.54918 0.0602 0.47008 0.0
C2002 C 0.55346 0.04414 0.47506 0.0
C2003 C 0.54924 0.06443 0.45202 0.0
C2004 C 0.5469 0.04337 0.40493 0.0
H2005 H 0.51344 0.08833 0.33809 0.0
H2006 H 0.52592 0.08681 0.36982 0.0
H2007 H 0.53951 0.03654 0.37621 0.0
H2008 H 0.56184 0.02016 0.46528 0.0
H2009 H 0.56278 0.02781 0.43388 0.0
H2010 H 0.56207 0.08519 0.42495 0.0
C2011 C 0.53116 0.07969 0.35901 0.0
C2012 C 0.54469 0.04722 0.38675 0.0
C2013 C 0.52399 0.0805 0.34086 0.0
C2014 C 0.55828 0.03255 0.46175 0.0
C2015 C 0.55872 0.03693 0.44374 0.0
C2016 C 0.55703 0.07442 0.41449 0.0
C2017 C 0.54374 0.06857 0.36321 0.0
C2018 C 0.54814 0.06471 0.38231 0.0
C2019 C 0.55393 0.05283 0.43856 0.0
C2020 C 0.55292 0.05692 0.4191 0.0
H2021 H 0.54795 0.05253 0.32022 0.0
H2022 H 0.56008 0.05091 0.3519 0.0
H2023 H 0.55726 0.09187 0.39313 0.0
H2024 H 0.54527 0.06934 0.48005 0.0
H2025 H 0.54508 0.07659 0.44858 0.0
C2026 C 0.81758 0.70152 0.08122 0.0
C2027 C 0.81488 0.68296 0.07936 0.0
C2028 C 0.81613 0.71092 0.0981 0.0
C2029 C 0.8154 0.70511 0.14899 0.0
H2030 H 0.79693 0.74873 0.15072 0.0
C2031 C 0.81459 0.74535 0.21917 0.0
C2032 C 0.80053 0.75519 0.22143 0.0
C2033 C 0.81663 0.7373 0.2019 0.0
C2034 C 0.802 0.73649 0.15065 0.0
H2035 H 0.80828 0.66007 0.09445 0.0
H2036 H 0.80561 0.67604 0.12309 0.0
H2037 H 0.79979 0.73375 0.12121 0.0
H2038 H 0.77761 0.76407 0.2065 0.0
H2039 H 0.78094 0.74997 0.17667 0.0
H2040 H 0.81721 0.70749 0.17827 0.0
C2041 C 0.80923 0.6836 0.11178 0.0
C2042 C 0.80388 0.72791 0.13352 0.0
C2043 C 0.81065 0.67429 0.09505 0.0
C2044 C 0.78865 0.7567 0.20556 0.0
C2045 C 0.79068 0.74861 0.18825 0.0
C2046 C 0.81353 0.71365 0.16605 0.0
C2047 C 0.81199 0.70214 0.11383 0.0
C2048 C 0.81052 0.71193 0.13225 0.0
C2049 C 0.80468 0.73864 0.18598 0.0
C2050 C 0.80675 0.72954 0.16737 0.0
H2051 H 0.82082 0.70882 0.06963 0.0
H2052 H 0.81854 0.72513 0.09885 0.0
H2053 H 0.82086 0.69308 0.14903 0.0
H2054 H 0.82419 0.74386 0.23082 0.0
H2055 H 0.82786 0.73017 0.20108 0.0
C2056 C 0.13561 0.01117 0.77353 0.0
C2057 C 0.15338 0.02122 0.77307 0.0
C2058 C 0.1234 0.00645 0.75751 0.0
C2059 C 0.12032 1.0057 0.70684 0.0
H2060 H 0.07211 0.01778 0.71108 0.0
C2061 C 0.08195 0.03768 0.65245 0.0
C2062 C 0.06297 0.0315 0.64713 0.0
C2063 C 0.09111 0.03093 0.66692 0.0
C2064 C 0.08531 0.0139 0.70972 0.0
H2065 H 0.17266 0.03344 0.75544 0.0
H2066 H 0.15124 0.02561 0.72752 0.0
H2067 H 0.09249 0.01553 0.73864 0.0
H2068 H 0.03863 0.01335 0.65248 0.0
H2069 H 0.05474 1.00186 0.67866 0.0
H2070 H 0.11357 1.00542 0.6779 0.0
C2071 C 0.14679 0.02109 0.74018 0.0
C2072 C 0.09701 0.01261 0.72548 0.0
C2073 C 0.15904 0.02574 0.7562 0.0
C2074 C 0.05325 0.01837 0.65652 0.0
C2075 C 0.06242 0.0118 0.67134 0.0
C2076 C 0.10868 0.00714 0.69112 0.0
C2077 C 0.1287 0.01174 0.74073 0.0
C2078 C 0.11495 0.00925 0.7242 0.0
C2079 C 0.08147 0.01796 0.67649 0.0
C2080 C 0.09144 0.01199 0.69249 0.0
H2081 H 0.13095 0.00731 0.78634 0.0
H2082 H 0.10966 0.99903 0.75833 0.0
H2083 H 0.13388 1.00269 0.70542 0.0
H2084 H 0.08981 0.04757 0.6452 0.0
H2085 H 0.10574 0.03609 0.67084 0.0
C2086 C 0.78515 0.34097 0.46941 0.0
C2087 C 0.78452 0.35903 0.47086 0.0
C2088 C 0.78464 0.33183 0.45219 0.0
C2089 C 0.79835 0.33889 0.40731 0.0
H2090 H 0.76008 0.29931 0.38699 0.0
C2091 C 0.79038 0.31645 0.33095 0.0
C2092 C 0.7854 0.29842 0.32526 0.0
C2093 C 0.78948 0.32262 0.34899 0.0
C2094 C 0.77107 0.31016 0.39253 0.0
H2095 H 0.78274 0.38154 0.45526 0.0
H2096 H 0.78235 0.36577 0.42562 0.0
H2097 H 0.76054 0.31156 0.41858 0.0
H2098 H 0.77516 0.27273 0.33395 0.0
H2099 H 0.77411 0.28342 0.36568 0.0
H2100 H 0.80924 0.33753 0.38173 0.0
C2101 C 0.78305 0.35865 0.43772 0.0
C2102 C 0.77128 0.31716 0.41062 0.0
C2103 C 0.7832 0.36765 0.45475 0.0
C2104 C 0.77898 0.28672 0.33792 0.0
C2105 C 0.77836 0.29288 0.35612 0.0
C2106 C 0.79834 0.33177 0.38943 0.0
C2107 C 0.78391 0.34073 0.43624 0.0
C2108 C 0.78471 0.33182 0.418 0.0
C2109 C 0.78392 0.31091 0.36199 0.0
C2110 C 0.78444 0.31758 0.38157 0.0
H2111 H 0.78613 0.33394 0.48154 0.0
H2112 H 0.78535 0.31798 0.45135 0.0
H2113 H 0.80898 0.35009 0.41278 0.0
H2114 H 0.79514 0.32583 0.32147 0.0
H2115 H 0.79329 0.33665 0.35274 0.0
C2116 C 0.4977 0.05297 0.22018 0.0
C2117 C 0.48073 0.05029 0.22743 0.0
C2118 C 0.50163 0.04038 0.20754 0.0
C2119 C 0.51211 0.00718 0.19276 0.0
H2120 H 0.47684 0.98115 0.15344 0.0
C2121 C 0.54018 0.96829 0.13975 0.0
C2122 C 0.53503 0.97323 0.1223 0.0
C2123 C 0.52908 0.97007 0.15372 0.0
C2124 C 0.48686 0.98824 0.16441 0.0
H2125 H 0.45409 0.03277 0.22634 0.0
H2126 H 0.4611 0.01063 0.20456 0.0
H2127 H 0.46705 1.00243 0.17431 0.0
H2128 H 0.51292 0.9812 0.10505 0.0
H2129 H 0.4941 0.98485 0.12918 0.0
H2130 H 0.53232 0.99429 0.18224 0.0
C2131 C 0.47133 0.02253 0.20847 0.0
C2132 C 0.4812 1.00038 0.17645 0.0
C2133 C 0.4673 0.03527 0.22094 0.0
C2134 C 0.51735 0.97734 0.11838 0.0
C2135 C 0.50646 0.97945 0.13237 0.0
C2136 C 0.51783 0.9953 0.18062 0.0
C2137 C 0.48878 0.02468 0.20208 0.0
C2138 C 0.49397 0.01045 0.19035 0.0
C2139 C 0.51294 0.97725 0.15051 0.0
C2140 C 0.50548 0.98612 0.16585 0.0
H2141 H 0.50825 0.06448 0.22485 0.0
H2142 H 0.51498 0.04274 0.20241 0.0
H2143 H 0.52216 0.01425 0.20372 0.0
H2144 H 0.55359 0.96474 0.14302 0.0
H2145 H 0.53409 0.96747 0.16738 0.0
C2146 C 0.81533 0.70472 0.96247 0.0
C2147 C 0.81498 0.68643 0.96236 0.0
C2148 C 0.81445 0.71322 0.94603 0.0
C2149 C 0.81929 0.70688 0.89493 0.0
H2150 H 0.79632 0.74783 0.89225 0.0
C2151 C 0.80671 0.73844 0.82499 0.0
C2152 C 0.80638 0.7566 0.82493 0.0
C2153 C 0.80799 0.7301 0.84149 0.0
C2154 C 0.80307 0.73657 0.8926 0.0
H2155 H 0.81333 0.66302 0.94406 0.0
H2156 H 0.81167 0.67755 0.91577 0.0
H2157 H 0.79806 0.73345 0.9205 0.0
H2158 H 0.80732 0.77998 0.84308 0.0
H2159 H 0.80985 0.76576 0.87149 0.0
H2160 H 0.82432 0.71 0.86706 0.0
C2161 C 0.81289 0.68556 0.92858 0.0
C2162 C 0.80407 0.72817 0.90909 0.0
C2163 C 0.81374 0.67708 0.94501 0.0
C2164 C 0.80753 0.76603 0.84222 0.0
C2165 C 0.80881 0.7577 0.85874 0.0
C2166 C 0.8183 0.71529 0.87846 0.0
C2167 C 0.8132 0.70388 0.92861 0.0
C2168 C 0.81219 0.71307 0.91073 0.0
C2169 C 0.809 0.73947 0.85886 0.0
C2170 C 0.81015 0.73037 0.87679 0.0
H2171 H 0.81631 0.71257 0.97536 0.0
H2172 H 0.81501 0.72728 0.94711 0.0
H2173 H 0.826 0.69559 0.89529 0.0
H2174 H 0.80582 0.73049 0.81218 0.0
H2175 H 0.8078 0.71609 0.84049 0.0
C2176 C 0.84951 0.14873 0.0081 0.0
C2177 C 0.83566 0.13892 0.01694 0.0
C2178 C 0.86548 0.14216 0.00495 0.0
C2179 C 0.89245 0.1084 0.0197 0.0
H2180 H 0.90992 0.111 0.97204 0.0
C2181 C 0.93642 0.06094 0.99294 0.0
C2182 C 0.95263 0.06829 0.98576 0.0
C2183 C 0.92336 0.07121 0.99668 0.0
C2184 C 0.90531 0.11036 0.98547 0.0
H2185 H 0.8279 0.1146 0.02954 0.0
H2186 H 0.85531 0.10317 0.02381 0.0
H2187 H 0.88522 0.12656 0.9794 0.0
H2188 H 0.96759 0.09188 0.97616 0.0
H2189 H 0.94451 0.10991 0.98254 0.0
H2190 H 0.91202 0.0917 0.02551 0.0
C2191 C 0.85412 0.11604 0.01959 0.0
C2192 C 0.89123 0.11931 0.98973 0.0
C2193 C 0.83827 0.12258 0.02275 0.0
C2194 C 0.95525 0.08598 0.98183 0.0
C2195 C 0.94205 0.09623 0.98538 0.0
C2196 C 0.90633 0.09935 0.01538 0.0
C2197 C 0.86792 0.12569 0.01061 0.0
C2198 C 0.88435 0.11809 0.00675 0.0
C2199 C 0.92616 0.08901 0.99317 0.0
C2200 C 0.91261 0.09993 0.9981 0.0
H2201 H 0.84793 0.16137 0.00346 0.0
H2202 H 0.87592 0.14997 0.99811 0.0
H2203 H 0.88782 0.10754 0.0331 0.0
H2204 H 0.93414 0.04739 0.99625 0.0
H2205 H 0.91111 0.06527 0.00249 0.0
C2206 C 0.34277 0.45014 0.01033 0.0
C2207 C 0.33619 0.4412 0.02506 0.0
C2208 C 0.36158 0.45759 0.01034 0.0
C2209 C 0.40998 0.45956 0.03482 0.0
H2210 H 0.42154 0.4997 0.00673 0.0
C2211 C 0.48478 0.50239 0.03964 0.0
C2212 C 0.49147 0.50859 0.02357 0.0
C2213 C 0.46627 0.4938 0.03969 0.0
C2214 C 0.4187 0.48839 0.0145 0.0
H2215 H 0.34507 0.43309 0.05146 0.0
H2216 H 0.37792 0.44658 0.05188 0.0
H2217 H 0.38944 0.48615 0.00791 0.0
H2218 H 0.48328 0.51028 0.99483 0.0
H2219 H 0.45088 0.49562 0.99498 0.0
H2220 H 0.43946 0.46239 0.04185 0.0
C2221 C 0.36843 0.44756 0.03997 0.0
C2222 C 0.40005 0.48042 0.01516 0.0
C2223 C 0.34943 0.43979 0.03982 0.0
C2224 C 0.4788 0.50583 0.00751 0.0
C2225 C 0.46011 0.49742 0.00763 0.0
C2226 C 0.42866 0.46772 0.03435 0.0
C2227 C 0.37491 0.45681 0.02525 0.0
C2228 C 0.39518 0.46569 0.02519 0.0
C2229 C 0.45349 0.49118 0.02374 0.0
C2230 C 0.43342 0.48225 0.0241 0.0
H2231 H 0.33328 0.45136 0.99848 0.0
H2232 H 0.36559 0.46386 0.99835 0.0
H2233 H 0.40725 0.44822 0.04254 0.0
H2234 H 0.49394 0.5041 0.05234 0.0
H2235 H 0.4619 0.48946 0.05245 0.0
C2236 C 0.35182 0.55061 0.73323 0.0
C2237 C 0.37016 0.54938 0.73927 0.0
C2238 C 0.34359 0.56353 0.7414 0.0
C2239 C 0.32699 0.58878 0.76524 0.0
H2240 H 0.35897 0.63476 0.77318 0.0
C2241 C 0.30256 0.65187 0.79215 0.0
C2242 C 0.30801 0.66678 0.78281 0.0
C2243 C 0.30995 0.63671 0.78895 0.0
C2244 C 0.34986 0.62201 0.77103 0.0
H2245 H 0.39386 0.55988 0.75937 0.0
H2246 H 0.37941 0.58219 0.77381 0.0
H2247 H 0.37176 0.60922 0.76409 0.0
H2248 H 0.32498 0.67729 0.76239 0.0
H2249 H 0.33786 0.651 0.7569 0.0
H2250 H 0.30492 0.60187 0.77147 0.0
C2251 C 0.37153 0.57348 0.76248 0.0
C2252 C 0.35723 0.60732 0.76605 0.0
C2253 C 0.37978 0.56067 0.75425 0.0
C2254 C 0.32084 0.66618 0.77013 0.0
C2255 C 0.32821 0.65111 0.76697 0.0
C2256 C 0.3196 0.60353 0.77025 0.0
C2257 C 0.35353 0.57538 0.75583 0.0
C2258 C 0.34584 0.59057 0.76282 0.0
C2259 C 0.32293 0.63624 0.77639 0.0
C2260 C 0.33091 0.62033 0.77283 0.0
H2261 H 0.34407 0.54205 0.72173 0.0
H2262 H 0.32976 0.56474 0.73585 0.0
H2263 H 0.31791 0.57602 0.76302 0.0
H2264 H 0.29279 0.652 0.80209 0.0
H2265 H 0.30572 0.62547 0.79648 0.0
C2266 C 0.23504 0.62832 0.50369 0.0
C2267 C 0.23743 0.64656 0.50807 0.0
C2268 C 0.21746 0.61778 0.50209 0.0
C2269 C 0.17255 0.61682 0.51873 0.0
H2270 H 0.15723 0.57572 0.48379 0.0
C2271 C 0.11425 0.56118 0.53022 0.0
C2272 C 0.10086 0.55443 0.51532 0.0
C2273 C 0.13057 0.57235 0.52762 0.0
C2274 C 0.16125 0.58724 0.49351 0.0
H2275 H 0.22326 0.66819 0.5135 0.0
H2276 H 0.19242 0.64971 0.51061 0.0
H2277 H 0.18581 0.59642 0.48127 0.0
H2278 H 0.0944 0.55345 0.48585 0.0
H2279 H 0.12303 0.57311 0.48132 0.0
H2280 H 0.14806 0.60772 0.53097 0.0
C2281 C 0.20421 0.64357 0.50865 0.0
C2282 C 0.17765 0.599 0.49216 0.0
C2283 C 0.22183 0.65414 0.51026 0.0
C2284 C 0.10448 0.55845 0.49761 0.0
C2285 C 0.12086 0.56969 0.49501 0.0
C2286 C 0.1562 0.60509 0.52008 0.0
C2287 C 0.2019 0.62525 0.50481 0.0
C2288 C 0.18361 0.61376 0.50495 0.0
C2289 C 0.13385 0.57706 0.51006 0.0
C2290 C 0.15057 0.59001 0.50771 0.0
H2291 H 0.2468 0.6221 0.50187 0.0
H2292 H 0.21618 0.60369 0.49938 0.0
H2293 H 0.17684 0.62796 0.52889 0.0
H2294 H 0.11197 0.55818 0.54401 0.0
H2295 H 0.14055 0.5775 0.53942 0.0
C2296 C 0.64825 0.92678 0.79242 0.0
C2297 C 0.65262 0.94433 0.78834 0.0
C2298 C 0.6618 0.91881 0.80134 0.0
C2299 C 0.71305 0.92433 0.80992 0.0
H2300 H 0.70164 0.8855 0.83977 0.0
C2301 C 0.76969 0.88847 0.83782 0.0
C2302 C 0.76572 0.87041 0.83193 0.0
C2303 C 0.7556 0.89833 0.83716 0.0
C2304 C 0.705 0.89641 0.83155 0.0
H2305 H 0.67413 0.9677 0.79144 0.0
H2306 H 0.69744 0.95418 0.80775 0.0
H2307 H 0.67745 0.9017 0.82974 0.0
H2308 H 0.74344 0.84838 0.82201 0.0
H2309 H 0.71895 0.86551 0.82141 0.0
H2310 H 0.74054 0.91901 0.81171 0.0
C2311 C 0.68387 0.94623 0.80341 0.0
C2312 C 0.69114 0.90562 0.82567 0.0
C2313 C 0.67046 0.95404 0.79416 0.0
C2314 C 0.74709 0.86219 0.82688 0.0
C2315 C 0.73299 0.87202 0.82645 0.0
C2316 C 0.72691 0.91534 0.81603 0.0
C2317 C 0.6799 0.92836 0.80668 0.0
C2318 C 0.6949 0.9195 0.81447 0.0
C2319 C 0.73722 0.89029 0.83086 0.0
C2320 C 0.72297 0.9011 0.82663 0.0
H2321 H 0.63459 0.91898 0.78804 0.0
H2322 H 0.65822 0.90499 0.80339 0.0
H2323 H 0.71647 0.93462 0.80099 0.0
H2324 H 0.7838 0.89517 0.84219 0.0
H2325 H 0.75917 0.91238 0.84088 0.0
C2326 C 0.70544 0.92029 0.52866 0.0
C2327 C 0.72385 0.9298 0.53068 0.0
C2328 C 0.68999 0.9289 0.52811 0.0
C2329 C 0.67656 0.97373 0.53824 0.0
H2330 H 0.62978 0.95146 0.51058 0.0
C2331 C 0.61442 0.01186 0.52801 0.0
C2332 C 0.59589 1.00266 0.5262 0.0
C2333 C 0.62963 1.00298 0.52846 0.0
C2334 C 0.64259 0.95795 0.51862 0.0
H2335 H 0.73987 0.9563 0.53362 0.0
H2336 H 0.71336 0.97118 0.53249 0.0
H2337 H 0.65614 0.93652 0.51154 0.0
H2338 H 0.57944 0.97631 0.5234 0.0
H2339 H 0.60564 0.96096 0.52432 0.0
H2340 H 0.66303 0.99514 0.54534 0.0
C2341 C 0.71065 0.95696 0.53159 0.0
C2342 C 0.65796 0.94923 0.51918 0.0
C2343 C 0.72608 0.94833 0.53213 0.0
C2344 C 0.59332 0.98408 0.52476 0.0
C2345 C 0.60856 0.97518 0.52519 0.0
C2346 C 0.6612 0.98243 0.53767 0.0
C2347 C 0.69215 0.94749 0.52957 0.0
C2348 C 0.67541 0.95689 0.52899 0.0
C2349 C 0.62716 0.98439 0.52713 0.0
C2350 C 0.64378 0.97482 0.52782 0.0
H2351 H 0.70289 0.90605 0.52753 0.0
H2352 H 0.67628 0.92083 0.52681 0.0
H2353 H 0.68934 0.98022 0.54632 0.0
H2354 H 0.61728 0.0261 0.52912 0.0
H2355 H 0.64343 0.01087 0.52964 0.0
C2356 C 0.35864 0.45224 0.69683 0.0
C2357 C 0.3771 0.45421 0.69303 0.0
C2358 C 0.34883 0.43575 0.69976 0.0
C2359 C 0.35032 0.38785 0.69809 0.0
H2360 H 0.3256 0.39066 0.74173 0.0
C2361 C 0.33292 0.3297 0.74242 0.0
C2362 C 0.31559 0.32737 0.7491 0.0
C2363 C 0.33891 0.3444 0.73315 0.0
C2364 C 0.33221 0.38962 0.72938 0.0
H2365 H 0.39924 0.44025 0.68786 0.0
H2366 H 0.38231 0.4116 0.69344 0.0
H2367 H 0.33787 0.41745 0.72851 0.0
H2368 H 0.29084 0.33852 0.75101 0.0
H2369 H 0.30133 0.36408 0.73493 0.0
H2370 H 0.34511 0.35991 0.6995 0.0
C2371 C 0.37529 0.4227 0.69394 0.0
C2372 C 0.33917 0.40499 0.72171 0.0
C2373 C 0.38504 0.43917 0.69079 0.0
C2374 C 0.30433 0.33994 0.74616 0.0
C2375 C 0.31033 0.35463 0.73698 0.0
C2376 C 0.34342 0.37243 0.70585 0.0
C2377 C 0.35734 0.42094 0.69919 0.0
C2378 C 0.34845 0.40433 0.70607 0.0
C2379 C 0.32771 0.35707 0.73047 0.0
C2380 C 0.33442 0.3732 0.72166 0.0
H2381 H 0.35205 0.46355 0.69837 0.0
H2382 H 0.33483 0.43475 0.70328 0.0
H2383 H 0.35725 0.38688 0.68594 0.0
H2384 H 0.3419 0.32021 0.74438 0.0
H2385 H 0.35246 0.34605 0.72844 0.0
C2386 C 0.12019 0.53486 0.28622 0.0
C2387 C 0.10784 0.52883 0.27032 0.0
C2388 C 0.1296 0.5523 0.28885 0.0
C2389 C 0.13332 0.59649 0.2715 0.0
H2390 H 0.18607 0.59759 0.28201 0.0
C2391 C 0.18892 0.65335 0.25385 0.0
C2392 C 0.20582 0.6578 0.26528 0.0
C2393 C 0.1755 0.63906 0.25701 0.0
C2394 C 0.17139 0.59769 0.27943 0.0
H2395 H 0.09432 0.53676 0.2456 0.0
H2396 H 0.11088 0.56719 0.25013 0.0
H2397 H 0.16435 0.57054 0.28392 0.0
H2398 H 0.22155 0.65137 0.28948 0.0
H2399 H 0.19804 0.62665 0.29524 0.0
H2400 H 0.14049 0.62366 0.26671 0.0
C2401 C 0.11328 0.55845 0.26057 0.0
C2402 C 0.1589 0.58213 0.28053 0.0
C2403 C 0.1038 0.54099 0.25796 0.0
C2404 C 0.20878 0.64804 0.28027 0.0
C2405 C 0.19531 0.63387 0.28353 0.0
C2406 C 0.14585 0.61215 0.27051 0.0
C2407 C 0.12688 0.56407 0.27563 0.0
C2408 C 0.13974 0.58126 0.27635 0.0
C2409 C 0.17862 0.62899 0.27176 0.0
C2410 C 0.16507 0.61287 0.27421 0.0
H2411 H 0.12335 0.52589 0.29619 0.0
H2412 H 0.13967 0.55636 0.30082 0.0
H2413 H 0.11863 0.59625 0.26832 0.0
H2414 H 0.18633 0.66056 0.2421 0.0
H2415 H 0.16296 0.63556 0.2475 0.0
C2416 C 0.50095 0.68944 0.45844 0.0
C2417 C 0.4979 0.68481 0.43948 0.0
C2418 C 0.5025 0.6766 0.47057 0.0
C2419 C 0.50019 0.62803 0.47249 0.0
H2420 H 0.54445 0.6434 0.50707 0.0
C2421 C 0.54785 0.58127 0.49303 0.0
C2422 C 0.55265 0.58025 0.51179 0.0
C2423 C 0.53941 0.59481 0.48703 0.0
C2424 C 0.53193 0.63898 0.49767 0.0
H2425 H 0.49203 0.66297 0.41847 0.0
H2426 H 0.49527 0.64077 0.43935 0.0
H2427 H 0.5298 0.66516 0.49195 0.0
H2428 H 0.55339 0.59322 0.53892 0.0
H2429 H 0.53891 0.61735 0.52822 0.0
H2430 H 0.50355 0.60179 0.47701 0.0
C2431 C 0.49628 0.65418 0.44508 0.0
C2432 C 0.52338 0.65142 0.48909 0.0
C2433 C 0.49449 0.66697 0.433 0.0
C2434 C 0.54993 0.59373 0.52437 0.0
C2435 C 0.54157 0.60745 0.51829 0.0
C2436 C 0.50901 0.61564 0.48071 0.0
C2437 C 0.50125 0.65894 0.46394 0.0
C2438 C 0.50775 0.64607 0.47591 0.0
C2439 C 0.5357 0.60772 0.49961 0.0
C2440 C 0.52521 0.62099 0.49299 0.0
H2441 H 0.50337 0.7031 0.46384 0.0
H2442 H 0.50576 0.68067 0.48505 0.0
H2443 H 0.48793 0.6234 0.46281 0.0
H2444 H 0.54985 0.57116 0.48297 0.0
H2445 H 0.53538 0.59496 0.47251 0.0
C2446 C 0.64389 0.36049 0.70214 0.0
C2447 C 0.6411 0.35661 0.68307 0.0
C2448 C 0.65759 0.3541 0.71272 0.0
C2449 C 0.67474 0.31476 0.71333 0.0
H2450 H 0.71576 0.33828 0.7486 0.0
C2451 C 0.72926 0.2787 0.74671 0.0
C2452 C 0.73952 0.28613 0.76331 0.0
C2453 C 0.71546 0.2868 0.73857 0.0
C2454 C 0.70408 0.33144 0.73915 0.0
H2455 H 0.65141 0.34435 0.65995 0.0
H2456 H 0.67513 0.33294 0.67854 0.0
H2457 H 0.69754 0.3557 0.73053 0.0
H2458 H 0.74236 0.30653 0.78548 0.0
H2459 H 0.71736 0.31996 0.77202 0.0
H2460 H 0.6806 0.29052 0.72222 0.0
C2461 C 0.66679 0.34101 0.68521 0.0
C2462 C 0.69387 0.34148 0.72866 0.0
C2463 C 0.65337 0.34771 0.6746 0.0
C2464 C 0.73457 0.30062 0.77261 0.0
C2465 C 0.72047 0.30846 0.76473 0.0
C2466 C 0.68467 0.3047 0.72407 0.0
C2467 C 0.66841 0.34353 0.70434 0.0
C2468 C 0.67936 0.33318 0.71549 0.0
C2469 C 0.71149 0.30228 0.74712 0.0
C2470 C 0.69965 0.31289 0.73696 0.0
H2471 H 0.6345 0.36721 0.70896 0.0
H2472 H 0.65867 0.35616 0.72749 0.0
H2473 H 0.6633 0.30814 0.70344 0.0
H2474 H 0.73308 0.26768 0.73919 0.0
H2475 H 0.70898 0.28166 0.72498 0.0
C2476 C 0.01421 0.28343 0.92787 0.0
C2477 C 0.02745 0.28156 0.91588 0.0
C2478 C 0.01379 0.29984 0.93659 0.0
C2479 C 0.04183 0.34291 0.95201 0.0
H2480 H 0.99459 0.3583 0.94978 0.0
C2481 C 0.03542 0.41313 0.97831 0.0
C2482 C 0.01968 0.41516 0.98683 0.0
C2483 C 0.03679 0.39685 0.96983 0.0
C2484 C 1.00784 0.35412 0.9508 0.0
H2485 H 0.05087 0.29538 0.90392 0.0
H2486 H 0.05025 0.32415 0.91946 0.0
H2487 H 0.99638 0.32982 0.93477 0.0
H2488 H 0.9931 0.40153 0.9932 0.0
H2489 H 0.99586 0.37302 0.97915 0.0
H2490 H 0.05326 0.36699 0.9684 0.0
C2491 C 0.04018 0.31284 0.92197 0.0
C2492 C 1.00886 0.33784 0.94211 0.0
C2493 C 0.04047 0.29642 0.91304 0.0
C2494 C 1.0055 0.40043 0.98694 0.0
C2495 C 1.00696 0.38411 0.97863 0.0
C2496 C 0.04078 0.35913 0.9609 0.0
C2497 C 0.02671 0.31469 0.93368 0.0
C2498 C 0.02584 0.33209 0.94266 0.0
C2499 C 0.02254 0.38215 0.96982 0.0
C2500 C 0.02376 0.36492 0.96042 0.0
H2501 H 1.00397 0.27225 0.93036 0.0
H2502 H 1.00338 0.30091 0.94569 0.0
H2503 H 0.05505 0.33867 0.95276 0.0
H2504 H 0.04674 0.42412 0.97822 0.0
H2505 H 0.04891 0.39588 0.96303 0.0
C2506 C 0.05176 0.82383 0.21738 0.0
C2507 C 0.05151 0.82507 0.19846 0.0
C2508 C 0.03527 0.81902 0.22494 0.0
C2509 C 0.9883 0.79432 0.21373 0.0
H2510 H 0.97787 0.82073 0.25667 0.0
C2511 C 0.91754 0.78094 0.24151 0.0
C2512 C 0.91737 0.78279 0.26056 0.0
C2513 C 0.93403 0.78558 0.2339 0.0
C2514 C 0.9807 0.81305 0.24486 0.0
H2515 H 0.03378 0.82242 0.17265 0.0
H2516 H 1.00496 0.81381 0.18593 0.0
H2517 H 1.00645 0.83041 0.24343 0.0
H2518 H 0.93451 0.79055 0.28657 0.0
H2519 H 0.96338 0.79792 0.27334 0.0
H2520 H 0.9628 0.77674 0.21529 0.0
C2521 C 0.01795 0.81658 0.19483 0.0
C2522 C 0.99701 0.81866 0.23724 0.0
C2523 C 0.03442 0.8216 0.18729 0.0
C2524 C 0.93416 0.7888 0.27186 0.0
C2525 C 0.95068 0.7933 0.26425 0.0
C2526 C 0.97208 0.78859 0.22145 0.0
C2527 C 0.01826 0.81516 0.2137 0.0
C2528 C 1.00091 0.80935 0.22162 0.0
C2529 C 0.95075 0.79203 0.24518 0.0
C2530 C 0.9681 0.7979 0.2371 0.0
H2531 H 0.06471 0.82647 0.22634 0.0
H2532 H 0.03583 0.81791 0.23953 0.0
H2533 H 0.99116 0.78682 0.20178 0.0
H2534 H 0.90487 0.7761 0.23244 0.0
H2535 H 0.93357 0.78456 0.21915 0.0
C2536 C 0.54432 0.35931 0.12588 0.0
C2537 C 0.54257 0.34325 0.1149 0.0
C2538 C 0.54556 0.37584 0.11831 0.0
C2539 C 0.53881 0.39722 0.0729 0.0
H2540 H 0.56397 0.43976 0.10212 0.0
C2541 C 0.55044 0.46605 0.04054 0.0
C2542 C 0.55242 0.48215 0.05152 0.0
C2543 C 0.54944 0.44955 0.04815 0.0
C2544 C 0.55662 0.42821 0.0936 0.0
H2545 H 0.54082 0.33292 0.08666 0.0
H2546 H 0.54306 0.3613 0.07356 0.0
H2547 H 0.56192 0.41147 0.11488 0.0
H2548 H 0.55476 0.49253 0.07982 0.0
H2549 H 0.55292 0.46423 0.09295 0.0
H2550 H 0.53347 0.41394 0.05163 0.0
C2551 C 0.54328 0.36125 0.08822 0.0
C2552 C 0.55541 0.41161 0.10109 0.0
C2553 C 0.54208 0.34469 0.09584 0.0
C2554 C 0.55342 0.48076 0.07062 0.0
C2555 C 0.5524 0.46422 0.07826 0.0
C2556 C 0.54 0.41382 0.06542 0.0
C2557 C 0.54509 0.37741 0.09922 0.0
C2558 C 0.54646 0.39554 0.091 0.0
C2559 C 0.5503 0.44803 0.06727 0.0
C2560 C 0.54896 0.4299 0.0755 0.0
H2561 H 0.54474 0.35916 0.14057 0.0
H2562 H 0.54661 0.38746 0.12763 0.0
H2563 H 0.53147 0.38566 0.06438 0.0
H2564 H 0.54957 0.46611 0.02582 0.0
H2565 H 0.54817 0.43792 0.0388 0.0
C2566 C 0.98618 0.26541 0.37552 0.0
C2567 C 1.00097 0.27584 0.36829 0.0
C2568 C 0.96751 0.26384 0.36742 0.0
C2569 C 0.93946 0.27219 0.32354 0.0
H2570 H 0.89834 0.2687 0.35238 0.0
C2571 C 0.86664 0.28296 0.29224 0.0
C2572 C 0.8504 0.27313 0.29763 0.0
C2573 C 0.88441 0.28223 0.301 0.0
C2574 C 0.90957 0.2695 0.34399 0.0
H2575 H 1.0069 0.29282 0.34659 0.0
H2576 H 0.97535 0.29034 0.33313 0.0
H2577 H 0.92963 0.26892 0.36725 0.0
H2578 H 0.84071 0.25475 0.31691 0.0
H2579 H 0.8715 0.25347 0.33207 0.0
H2580 H 0.91961 0.27292 0.30035 0.0
C2581 C 0.97785 0.28296 0.34475 0.0
C2582 C 0.92769 0.2696 0.3526 0.0
C2583 C 0.99626 0.28451 0.35273 0.0
C2584 C 0.85272 0.26253 0.3122 0.0
C2585 C 0.87052 0.26189 0.32107 0.0
C2586 C 0.92146 0.27218 0.31499 0.0
C2587 C 0.96297 0.27256 0.35176 0.0
C2588 C 0.94312 0.2712 0.3426 0.0
C2589 C 0.8868 0.27171 0.31564 0.0
C2590 C 0.90609 0.27104 0.325 0.0
H2591 H 0.98898 0.25854 0.38746 0.0
H2592 H 0.95666 0.2556 0.37335 0.0
H2593 H 0.95057 0.2729 0.315 0.0
H2594 H 0.86568 0.29138 0.28122 0.0
H2595 H 0.89632 0.29025 0.29641 0.0
C2596 C 0.03792 0.72266 0.60091 0.0
C2597 C 0.0389 0.72522 0.6202 0.0
C2598 C 0.03827 0.70581 0.59174 0.0
C2599 C 0.03339 0.65655 0.60014 0.0
H2600 H 0.05406 0.65186 0.55446 0.0
C2601 C 0.04549 0.58712 0.56991 0.0
C2602 C 0.04474 0.58323 0.55081 0.0
C2603 C 0.04456 0.60421 0.57775 0.0
C2604 C 0.04802 0.65267 0.56715 0.0
H2605 H 0.0411 0.71097 0.64442 0.0
H2606 H 0.04192 0.68281 0.62902 0.0
H2607 H 0.05247 0.68105 0.56823 0.0
H2608 H 0.04244 0.59533 0.52529 0.0
H2609 H 0.04073 0.62457 0.53867 0.0
H2610 H 0.0289 0.6283 0.59914 0.0
C2611 C 0.04049 0.69347 0.62061 0.0
C2612 C 0.04709 0.66973 0.57517 0.0
C2613 C 0.04017 0.71008 0.62964 0.0
C2614 C 0.0431 0.5974 0.54001 0.0
C2615 C 0.04224 0.61449 0.54783 0.0
C2616 C 0.03436 0.63956 0.59217 0.0
C2617 C 0.0395 0.69068 0.6014 0.0
C2618 C 0.03988 0.67221 0.59201 0.0
C2619 C 0.04291 0.61845 0.56696 0.0
C2620 C 0.04179 0.63705 0.57548 0.0
H2621 H 0.03701 0.73367 0.59285 0.0
H2622 H 0.03736 0.70466 0.57698 0.0
H2623 H 0.02722 0.65724 0.61275 0.0
H2624 H 0.04683 0.57689 0.57895 0.0
H2625 H 0.04544 0.60626 0.59249 0.0
C2626 C 0.63148 0.77517 0.88977 0.0
C2627 C 0.61408 0.77728 0.88117 0.0
C2628 C 0.64725 0.77595 0.88013 0.0
C2629 C 0.66753 0.7922 0.83775 0.0
H2630 H 0.70153 0.76043 0.84742 0.0
C2631 C 0.73943 0.79828 0.80638 0.0
C2632 C 0.74529 0.78262 0.80057 0.0
C2633 C 0.72361 0.798 0.81596 0.0
C2634 C 0.69226 0.76945 0.84439 0.0
H2635 H 0.60039 0.78215 0.85516 0.0
H2636 H 0.6277 0.78391 0.83861 0.0
H2637 H 0.67442 0.75921 0.86402 0.0
H2638 H 0.73847 0.7543 0.80102 0.0
H2639 H 0.71156 0.75385 0.81771 0.0
H2640 H 0.68552 0.80255 0.81823 0.0
C2641 C 0.62919 0.78152 0.85291 0.0
C2642 C 0.67659 0.76884 0.85415 0.0
C2643 C 0.61332 0.78041 0.86247 0.0
C2644 C 0.73465 0.76673 0.805 0.0
C2645 C 0.71909 0.76647 0.81481 0.0
C2646 C 0.68341 0.79304 0.82823 0.0
C2647 C 0.64657 0.77922 0.86145 0.0
C2648 C 0.66372 0.78011 0.85102 0.0
C2649 C 0.71309 0.78207 0.82054 0.0
C2650 C 0.69614 0.78159 0.83119 0.0
H2651 H 0.63291 0.77275 0.90407 0.0
H2652 H 0.66017 0.77423 0.88751 0.0
H2653 H 0.6583 0.80128 0.83482 0.0
H2654 H 0.74708 0.81086 0.80351 0.0
H2655 H 0.71985 0.81041 0.8201 0.0
C2656 C 0.41162 0.54224 0.64841 0.0
C2657 C 0.42217 0.54068 0.66497 0.0
C2658 C 0.42028 0.54945 0.63395 0.0
C2659 C 0.46552 0.5733 0.62218 0.0
H2660 H 0.45359 0.5416 0.57789 0.0
C2661 C 0.51916 0.55476 0.57852 0.0
C2662 C 0.51482 0.55151 0.55948 0.0
C2663 C 0.50613 0.55953 0.58927 0.0
C2664 C 0.45684 0.55089 0.58994 0.0
H2665 H 0.44981 0.54641 0.67983 0.0
H2666 H 0.46486 0.5586 0.65475 0.0
H2667 H 0.43265 0.53911 0.60126 0.0
H2668 H 0.49375 0.55166 0.53666 0.0
H2669 H 0.47084 0.55967 0.5556 0.0
H2670 H 0.49047 0.58412 0.61135 0.0
C2671 C 0.44992 0.55452 0.65283 0.0
C2672 C 0.44481 0.54949 0.60335 0.0
C2673 C 0.44131 0.54729 0.66717 0.0
C2674 C 0.49748 0.55395 0.55133 0.0
C2675 C 0.48436 0.55855 0.56212 0.0
C2676 C 0.47762 0.5746 0.60883 0.0
C2677 C 0.4396 0.55532 0.63592 0.0
C2678 C 0.4495 0.56008 0.61999 0.0
C2679 C 0.48845 0.56102 0.58122 0.0
C2680 C 0.47379 0.56284 0.593 0.0
H2681 H 0.3968 0.53736 0.6464 0.0
H2682 H 0.41196 0.55 0.6211 0.0
H2683 H 0.46928 0.58191 0.6347 0.0
H2684 H 0.53244 0.55315 0.5852 0.0
H2685 H 0.50957 0.56114 0.604 0.0
C2686 C 0.79971 0.19647 0.94834 0.0
C2687 C 0.79643 0.2057 0.96437 0.0
C2688 C 0.79832 0.20369 0.93157 0.0
C2689 C 0.79821 0.2448 0.90946 0.0
H2690 H 0.77126 0.21319 0.86859 0.0
C2691 C 0.78271 0.26837 0.83746 0.0
C2692 C 0.78489 0.25706 0.82245 0.0
C2693 C 0.78308 0.26267 0.85508 0.0
C2694 C 0.77899 0.22217 0.87978 0.0
H2695 H 0.78984 0.23013 0.97541 0.0
H2696 H 0.78752 0.24287 0.94596 0.0
H2697 H 0.77484 0.20267 0.8988 0.0
H2698 H 0.78891 0.23074 0.81425 0.0
H2699 H 0.78979 0.22094 0.8448 0.0
H2700 H 0.80264 0.26424 0.89031 0.0
C2701 C 0.79116 0.22999 0.94647 0.0
C2702 C 0.78103 0.21613 0.89713 0.0
C2703 C 0.79247 0.22269 0.96333 0.0
C2704 C 0.78708 0.23982 0.82543 0.0
C2705 C 0.7875 0.23415 0.84301 0.0
C2706 C 0.79626 0.25084 0.89202 0.0
C2707 C 0.79365 0.22038 0.93034 0.0
C2708 C 0.79086 0.22728 0.91214 0.0
C2709 C 0.78565 0.24552 0.85811 0.0
C2710 C 0.78681 0.23953 0.87691 0.0
H2711 H 0.80291 0.1834 0.94863 0.0
H2712 H 0.80071 0.1961 0.91949 0.0
H2713 H 0.80594 0.25369 0.92072 0.0
H2714 H 0.78098 0.28174 0.83569 0.0
H2715 H 0.78136 0.27172 0.86632 0.0
C2716 C 0.09145 0.46908 0.1995 0.0
C2717 C 0.10873 0.47526 0.20987 0.0
C2718 C 0.08571 0.47786 0.18474 0.0
C2719 C 0.07162 0.50578 0.16415 0.0
H2720 H 0.10317 0.52271 0.12788 0.0
C2721 C 0.07027 0.5438 0.09354 0.0
C2722 C 0.05501 0.53249 0.08345 0.0
C2723 C 0.07646 0.54043 0.11126 0.0
C2724 C 0.09432 0.51841 0.13814 0.0
H2725 H 0.13402 0.49486 0.2123 0.0
H2726 H 0.12394 0.51025 0.18645 0.0
H2727 H 0.11575 0.50826 0.15333 0.0
H2728 H 0.03321 0.50991 0.08442 0.0
H2729 H 0.04377 0.50422 0.11537 0.0
H2730 H 0.05001 0.51532 0.14855 0.0
C2731 C 0.11485 0.4986 0.18974 0.0
C2732 C 0.1015 0.51006 0.15266 0.0
C2733 C 0.12065 0.48975 0.2045 0.0
C2734 C 0.04507 0.51877 0.09189 0.0
C2735 C 0.05107 0.51556 0.10964 0.0
C2736 C 0.06444 0.51404 0.14961 0.0
C2737 C 0.09708 0.49305 0.18008 0.0
C2738 C 0.09008 0.50324 0.16553 0.0
C2739 C 0.06727 0.52591 0.1192 0.0
C2740 C 0.0756 0.52006 0.13624 0.0
H2741 H 0.08202 0.45787 0.20325 0.0
H2742 H 0.07215 0.47295 0.17723 0.0
H2743 H 0.06261 0.50109 0.17415 0.0
H2744 H 0.07823 0.55444 0.0873 0.0
H2745 H 0.08889 0.54868 0.11843 0.0
C2746 C 0.77496 0.85965 0.46743 0.0
C2747 C 0.77365 0.87762 0.46787 0.0
C2748 C 0.77659 0.84988 0.45079 0.0
C2749 C 0.79094 0.85628 0.40363 0.0
H2750 H 0.76466 0.80854 0.39001 0.0
C2751 C 0.80415 0.81588 0.3377 0.0
C2752 C 0.78904 0.80482 0.3269 0.0
C2753 C 0.80228 0.82398 0.35499 0.0
C2754 C 0.77209 0.8219 0.39348 0.0
H2755 H 0.77308 0.89899 0.45041 0.0
H2756 H 0.77606 0.8824 0.42227 0.0
H2757 H 0.76161 0.82349 0.41966 0.0
H2758 H 0.75991 0.79366 0.32658 0.0
H2759 H 0.75668 0.80757 0.35665 0.0
H2760 H 0.8014 0.85486 0.3776 0.0
C2761 C 0.7759 0.87569 0.43465 0.0
C2762 C 0.77048 0.83047 0.4107 0.0
C2763 C 0.77404 0.88528 0.45103 0.0
C2764 C 0.77195 0.80206 0.33427 0.0
C2765 C 0.77012 0.81001 0.35171 0.0
C2766 C 0.79275 0.84767 0.3866 0.0
C2767 C 0.77732 0.85781 0.43407 0.0
C2768 C 0.77973 0.84794 0.41608 0.0
C2769 C 0.78523 0.82125 0.36243 0.0
C2770 C 0.7833 0.83032 0.38103 0.0
H2771 H 0.77475 0.85311 0.47991 0.0
H2772 H 0.77768 0.83618 0.45112 0.0
H2773 H 0.79851 0.86961 0.40708 0.0
H2774 H 0.81759 0.81842 0.33275 0.0
H2775 H 0.81439 0.83226 0.36265 0.0
C2776 C 0.45906 0.49224 0.75944 0.0
C2777 C 0.44446 0.50137 0.756 0.0
C2778 C 0.46721 0.4918 0.7773 0.0
C2779 C 0.45937 0.49952 0.82578 0.0
H2780 H 0.51272 0.50371 0.83477 0.0
C2781 C 0.5003 0.5144 0.8978 0.0
C2782 C 0.51363 0.50404 0.90216 0.0
C2783 C 0.49161 0.5135 0.87995 0.0
C2784 C 0.49779 0.50238 0.83242 0.0
H2785 H 0.42698 0.51723 0.76858 0.0
H2786 H 0.44149 0.51684 0.7996 0.0
H2787 H 0.49796 0.50314 0.80356 0.0
H2788 H 0.52804 0.48436 0.8912 0.0
H2789 H 0.51312 0.48311 0.85996 0.0
H2790 H 0.45935 0.49918 0.85475 0.0
C2791 C 0.44638 0.50967 0.78859 0.0
C2792 C 0.48932 0.50198 0.81456 0.0
C2793 C 0.43813 0.50998 0.77077 0.0
C2794 C 0.51809 0.49277 0.88825 0.0
C2795 C 0.50952 0.49199 0.87038 0.0
C2796 C 0.46788 0.50008 0.84365 0.0
C2797 C 0.46104 0.5006 0.79207 0.0
C2798 C 0.47001 0.50059 0.81102 0.0
C2799 C 0.49619 0.50233 0.86608 0.0
C2800 C 0.48716 0.50155 0.84713 0.0
H2801 H 0.46417 0.48538 0.74835 0.0
H2802 H 0.47828 0.48446 0.77953 0.0
H2803 H 0.44444 0.49811 0.82352 0.0
H2804 H 0.49676 0.52343 0.90811 0.0
H2805 H 0.48153 0.52177 0.87693 0.0
C2806 C 0.80181 0.20976 0.08012 0.0
C2807 C 0.79585 0.19141 0.07733 0.0
C2808 C 0.80477 0.21834 0.09785 0.0
C2809 C 0.81296 0.21026 0.1468 0.0
H2810 H 0.79269 0.25234 0.1557 0.0
C2811 C 0.80357 0.23782 0.21959 0.0
C2812 C 0.80599 0.25616 0.22326 0.0
C2813 C 0.80422 0.23036 0.20188 0.0
C2814 C 0.79872 0.24076 0.15347 0.0
H2815 H 0.78865 0.16772 0.09115 0.0
H2816 H 0.79375 0.18259 0.12173 0.0
H2817 H 0.79076 0.23899 0.12455 0.0
H2818 H 0.81188 0.28106 0.2113 0.0
H2819 H 0.81341 0.26813 0.18072 0.0
H2820 H 0.82082 0.21195 0.17571 0.0
C2821 C 0.79628 0.19039 0.11032 0.0
C2822 C 0.7976 0.23311 0.13556 0.0
C2823 C 0.7932 0.18187 0.09269 0.0
C2824 C 0.80975 0.26686 0.20896 0.0
C2825 C 0.81051 0.25944 0.19134 0.0
C2826 C 0.81415 0.21796 0.1647 0.0
C2827 C 0.80201 0.20872 0.11315 0.0
C2828 C 0.8045 0.21764 0.13202 0.0
C2829 C 0.80742 0.24108 0.18745 0.0
C2830 C 0.80689 0.23322 0.16831 0.0
H2831 H 0.80399 0.21751 0.06862 0.0
H2832 H 0.8093 0.23248 0.09959 0.0
H2833 H 0.81866 0.19849 0.14452 0.0
H2834 H 0.80058 0.22919 0.23026 0.0
H2835 H 0.80161 0.21617 0.19939 0.0
C2836 C 0.09457 0.47718 0.30155 0.0
C2837 C 0.078 0.47669 0.2901 0.0
C2838 C 0.10123 0.49121 0.31487 0.0
C2839 C 0.09323 0.53557 0.33153 0.0
H2840 H 0.10395 0.51927 0.3792 0.0
C2841 C 0.09034 0.55231 0.41371 0.0
C2842 C 0.07163 0.55408 0.41202 0.0
C2843 C 0.09909 0.54966 0.39817 0.0
C2844 C 0.10158 0.52431 0.36601 0.0
H2845 H 0.05539 0.49053 0.28375 0.0
H2846 H 0.06656 0.51449 0.30728 0.0
H2847 H 0.10444 0.50018 0.35203 0.0
H2848 H 0.04812 0.55643 0.39276 0.0
H2849 H 0.06334 0.5519 0.36575 0.0
H2850 H 0.08866 0.55912 0.34579 0.0
C2851 C 0.07483 0.50443 0.3056 0.0
C2852 C 0.10184 0.51331 0.35036 0.0
C2853 C 0.06823 0.49049 0.29227 0.0
C2854 C 0.06253 0.55512 0.39457 0.0
C2855 C 0.07131 0.55259 0.37904 0.0
C2856 C 0.09278 0.54653 0.34723 0.0
C2857 C 0.09131 0.5049 0.31718 0.0
C2858 C 0.09653 0.51839 0.33299 0.0
C2859 C 0.08932 0.54888 0.38068 0.0
C2860 C 0.09588 0.54055 0.3646 0.0
H2861 H 0.10239 0.46672 0.30022 0.0
H2862 H 0.11399 0.4912 0.32354 0.0
H2863 H 0.08966 0.54005 0.31828 0.0
H2864 H 0.09789 0.55197 0.42703 0.0
H2865 H 0.11306 0.54706 0.3998 0.0
C2866 C 0.76915 0.85679 0.58685 0.0
C2867 C 0.77773 0.8745 0.58608 0.0
C2868 C 0.76997 0.84845 0.60339 0.0
C2869 C 0.78268 0.85808 0.65542 0.0
H2870 H 0.77896 0.8076 0.65421 0.0
C2871 C 0.79606 0.82326 0.72294 0.0
C2872 C 0.78633 0.8061 0.72459 0.0
C2873 C 0.79468 0.83134 0.70631 0.0
C2874 C 0.77984 0.82171 0.655 0.0
H2875 H 0.79415 0.89701 0.60288 0.0
H2876 H 0.79597 0.88267 0.63121 0.0
H2877 H 0.7775 0.82166 0.62571 0.0
H2878 H 0.76736 0.78423 0.70913 0.0
H2879 H 0.76492 0.79815 0.68039 0.0
H2880 H 0.7852 0.85812 0.68472 0.0
C2881 C 0.78815 0.8751 0.61915 0.0
C2882 C 0.77896 0.82992 0.63838 0.0
C2883 C 0.78724 0.88344 0.60264 0.0
C2884 C 0.77511 0.79741 0.70872 0.0
C2885 C 0.77382 0.80546 0.69201 0.0
C2886 C 0.78366 0.84989 0.67201 0.0
C2887 C 0.77949 0.85736 0.62005 0.0
C2888 C 0.78037 0.84837 0.63809 0.0
C2889 C 0.78357 0.82266 0.69035 0.0
C2890 C 0.78229 0.83147 0.67228 0.0
H2891 H 0.76159 0.8493 0.5746 0.0
H2892 H 0.76278 0.83497 0.60305 0.0
H2893 H 0.78345 0.87217 0.65632 0.0
H2894 H 0.80495 0.83057 0.73458 0.0
H2895 H 0.80271 0.84441 0.70596 0.0
C2896 C 0.73286 0.39514 0.54908 0.0
C2897 C 0.75131 0.40392 0.54966 0.0
C2898 C 0.71922 0.40433 0.55413 0.0
C2899 C 0.71314 0.44539 0.57957 0.0
H2900 H 0.66756 0.44004 0.5468 0.0
C2901 C 0.6666 0.49759 0.57795 0.0
C2902 C 0.64734 0.49187 0.57428 0.0
C2903 C 0.67849 0.48549 0.57737 0.0
C2904 C 0.68006 0.44149 0.55629 0.0
H2905 H 0.77 0.42907 0.55631 0.0
H2906 H 0.74637 0.44497 0.56497 0.0
H2907 H 0.68958 0.4209 0.54139 0.0
H2908 H 0.62537 0.46891 0.56823 0.0
H2909 H 0.64609 0.44781 0.56731 0.0
H2910 H 0.70381 0.46623 0.59425 0.0
C2911 C 0.74238 0.43102 0.56081 0.0
C2912 C 0.69267 0.4305 0.55318 0.0
C2913 C 0.75591 0.42191 0.55568 0.0
C2914 C 0.64018 0.47375 0.57078 0.0
C2915 C 0.65205 0.46166 0.57023 0.0
C2916 C 0.70053 0.45636 0.58269 0.0
C2917 C 0.72387 0.42239 0.56001 0.0
C2918 C 0.70951 0.43257 0.56457 0.0
C2919 C 0.67135 0.46741 0.57317 0.0
C2920 C 0.684 0.45476 0.57089 0.0
H2921 H 0.72893 0.38127 0.54453 0.0
H2922 H 0.70506 0.39733 0.55347 0.0
H2923 H 0.72588 0.44711 0.58876 0.0
H2924 H 0.67252 0.51148 0.58053 0.0
H2925 H 0.6933 0.49039 0.57949 0.0
C2926 C 0.2533 0.10831 0.51241 0.0
C2927 C 0.258 0.12669 0.51669 0.0
C2928 C 0.2351 0.09897 0.51312 0.0
C2929 C 0.19144 0.10222 0.53408 0.0
H2930 H 0.16807 0.06424 0.49768 0.0
C2931 C 0.11332 0.07061 0.53309 0.0
C2932 C 0.10648 0.053 0.52608 0.0
C2933 C 0.13167 0.07896 0.53179 0.0
C2934 C 0.17433 0.0746 0.50822 0.0
H2935 H 0.24669 0.14946 0.52509 0.0
H2936 H 0.21533 0.13334 0.5265 0.0
H2937 H 0.19963 0.07955 0.49573 0.0
H2938 H 0.11427 0.03048 0.51212 0.0
H2939 H 0.14637 0.04472 0.51036 0.0
H2940 H 0.16658 0.09716 0.54691 0.0
C2941 C 0.2257 0.12602 0.5226 0.0
C2942 C 0.1926 0.08351 0.50702 0.0
C2943 C 0.24379 0.13536 0.52166 0.0
C2944 C 0.11886 0.04402 0.51773 0.0
C2945 C 0.13739 0.05235 0.51659 0.0
C2946 C 0.17331 0.09322 0.53541 0.0
C2947 C 0.22095 0.10762 0.51842 0.0
C2948 C 0.20148 0.09763 0.51984 0.0
C2949 C 0.14425 0.07006 0.5236 0.0
C2950 C 0.16417 0.07929 0.52241 0.0
H2951 H 0.26375 0.10106 0.50857 0.0
H2952 H 0.23223 0.08485 0.5099 0.0
H2953 H 0.19772 0.11271 0.5445 0.0
H2954 H 0.10434 0.0782 0.53943 0.0
H2955 H 0.13581 0.09264 0.537 0.0
C2956 C 0.22843 0.99366 0.83594 0.0
C2957 C 0.23108 0.0095 0.82762 0.0
C2958 C 0.23916 0.9811 0.83234 0.0
C2959 C 0.2801 0.97166 0.81181 0.0
H2960 H 0.24789 0.92651 0.79706 0.0
C2961 C 0.303 0.91206 0.77436 0.0
C2962 C 0.29636 0.89559 0.78043 0.0
C2963 C 0.29678 0.92701 0.78097 0.0
C2964 C 0.25711 0.93897 0.80132 0.0
H2965 H 0.2481 0.02535 0.81038 0.0
H2966 H 0.26678 1.00319 0.80392 0.0
H2967 H 0.23485 0.95103 0.80861 0.0
H2968 H 0.27897 0.88196 0.79889 0.0
H2969 H 0.26818 0.9079 0.81038 0.0
H2970 H 0.30239 0.95939 0.80434 0.0
C2971 C 0.25643 1.00055 0.81324 0.0
C2972 C 0.24966 0.953 0.80799 0.0
C2973 C 0.24571 0.0132 0.81691 0.0
C2974 C 0.28392 0.8944 0.7936 0.0
C2975 C 0.27777 0.90926 0.8002 0.0
C2976 C 0.28762 0.95752 0.80515 0.0
C2977 C 0.25267 0.98411 0.8203 0.0
C2978 C 0.26108 0.96941 0.8135 0.0
C2979 C 0.28389 0.92565 0.79377 0.0
C2980 C 0.27618 0.941 0.80005 0.0
H2981 H 0.21742 0.99057 0.84447 0.0
H2982 H 0.23628 0.96866 0.83828 0.0
H2983 H 0.28916 0.98424 0.8159 0.0
H2984 H 0.31261 0.91329 0.7642 0.0
H2985 H 0.30164 0.9395 0.77574 0.0
C2986 C 0.36686 0.91167 0.04484 0.0
C2987 C 0.35343 0.91874 0.03432 0.0
C2988 C 0.38518 0.92098 0.04861 0.0
C2989 C 0.41178 0.96622 0.0515 0.0
H2990 H 0.45419 0.9453 0.04243 0.0
C2991 C 0.48004 0.00717 0.03655 0.0
C2992 C 0.49691 1.00272 0.04336 0.0
C2993 C 0.46322 0.99661 0.03893 0.0
C2994 C 0.44252 0.95127 0.04538 0.0
H2995 H 0.34899 0.9409 0.01905 0.0
H2996 H 0.38056 0.95686 0.02559 0.0
H2997 H 0.42336 0.92667 0.03992 0.0
H2998 H 0.50929 0.9839 0.05852 0.0
H2999 H 0.47977 0.96541 0.06265 0.0
H3000 H 0.43069 0.99084 0.05647 0.0
C3001 C 0.37696 0.94431 0.03118 0.0
C3002 C 0.4249 0.9406 0.04392 0.0
C3003 C 0.35884 0.93505 0.02733 0.0
C3004 C 0.49654 0.98769 0.05306 0.0
C3005 C 0.47965 0.97704 0.05535 0.0
C3006 C 0.42932 0.97684 0.05298 0.0
C3007 C 0.39026 0.93756 0.04207 0.0
C3008 C 0.40928 0.94809 0.04638 0.0
C3009 C 0.46282 0.98131 0.04815 0.0
C3010 C 0.4448 0.96959 0.04936 0.0
H3011 H 0.36316 0.89914 0.05041 0.0
H3012 H 0.39522 0.91545 0.05699 0.0
H3013 H 0.40003 0.9723 0.05385 0.0
H3014 H 0.47979 0.01864 0.02903 0.0
H3015 H 0.45051 1.00015 0.033 0.0
C3016 C 0.92466 0.61786 0.78932 0.0
C3017 C 0.92354 0.59958 0.78667 0.0
C3018 C 0.90851 0.62492 0.78912 0.0
C3019 C 0.86035 0.61495 0.76891 0.0
H3020 H 0.8546 0.65421 0.80186 0.0
C3021 C 0.81222 0.6634 0.75126 0.0
C3022 C 0.80218 0.66922 0.76488 0.0
C3023 C 0.82472 0.65229 0.75516 0.0
C3024 C 0.85591 0.64308 0.79271 0.0
H3025 H 0.90469 0.57434 0.7825 0.0
H3026 H 0.87662 0.58669 0.78204 0.0
H3027 H 0.88166 0.64033 0.80747 0.0
H3028 H 0.79657 0.66685 0.79298 0.0
H3029 H 0.81889 0.64781 0.79989 0.0
H3030 H 0.83493 0.61805 0.75382 0.0
C3031 C 0.88994 0.59554 0.78415 0.0
C3032 C 0.87145 0.63528 0.79583 0.0
C3033 C 0.90603 0.58849 0.78448 0.0
C3034 C 0.80432 0.66292 0.78226 0.0
C3035 C 0.81704 0.65199 0.78623 0.0
C3036 C 0.84494 0.62287 0.76569 0.0
C3037 C 0.891 0.61382 0.78614 0.0
C3038 C 0.87392 0.62129 0.78381 0.0
C3039 C 0.82762 0.64689 0.77281 0.0
C3040 C 0.84271 0.63716 0.77741 0.0
H3041 H 0.93796 0.62673 0.79108 0.0
H3042 H 0.90972 0.63908 0.79057 0.0
H3043 H 0.86198 0.60427 0.75934 0.0
H3044 H 0.81127 0.66818 0.73783 0.0
H3045 H 0.83285 0.6487 0.74462 0.0
C3046 C 0.8719 0.60799 0.03226 0.0
C3047 C 0.8702 0.62356 0.02387 0.0
C3048 C 0.88799 0.6005 0.03224 0.0
C3049 C 0.93342 0.60211 0.01102 0.0
H3050 H 0.94439 0.57373 0.05041 0.0
C3051 C 1.00316 0.57389 0.02033 0.0
C3052 C 1.00284 0.55724 0.02713 0.0
C3053 C 0.98749 0.5822 0.01968 0.0
C3054 C 0.9416 0.5814 0.0391 0.0
H3055 H 0.88504 0.6432 0.00865 0.0
H3056 H 0.91323 0.63045 0.00887 0.0
H3057 H 0.91748 0.58766 0.04984 0.0
H3058 H 0.98497 0.5366 0.03863 0.0
H3059 H 0.95805 0.55092 0.03766 0.0
H3060 H 0.95795 0.59602 1.00058 0.0
C3061 C 0.90182 0.62376 0.01535 0.0
C3062 C 0.92584 0.58951 0.0387 0.0
C3063 C 0.88551 0.63124 0.01526 0.0
C3064 C 0.9861 0.54937 0.03334 0.0
C3065 C 0.9705 0.55774 0.03286 0.0
C3066 C 0.94932 0.59409 0.01151 0.0
C3067 C 0.90355 0.6082 0.02399 0.0
C3068 C 0.92114 0.59997 0.02456 0.0
C3069 C 0.97073 0.57437 0.02598 0.0
C3070 C 0.95375 0.5834 0.0255 0.0
H3071 H 0.8606 0.60135 0.03895 0.0
H3072 H 0.88797 0.58837 0.03864 0.0
H3073 H 0.93063 0.60975 0.99969 0.0
H3074 H 0.0156 0.58057 0.01536 0.0
H3075 H 0.98867 0.59499 0.01444 0.0
C3076 C 0.21682 0.10669 0.83152 0.0
C3077 C 0.19762 0.10194 0.82611 0.0
C3078 C 0.22613 0.12385 0.83033 0.0
C3079 C 0.2223 0.16051 0.80312 0.0
H3080 H 0.2598 0.18822 0.83961 0.0
C3081 C 0.25303 0.23119 0.79277 0.0
C3082 C 0.27227 0.23676 0.79685 0.0
C3083 C 0.24421 0.21549 0.79852 0.0
C3084 C 0.24949 0.18054 0.82924 0.0
H3085 H 0.17301 0.11174 0.81621 0.0
H3086 H 0.18929 0.14158 0.8141 0.0
H3087 H 0.24368 0.15922 0.8461 0.0
H3088 H 0.29733 0.23064 0.81075 0.0
H3089 H 0.28192 0.20266 0.82037 0.0
H3090 H 0.22824 0.18134 0.78604 0.0
C3091 C 0.19713 0.13198 0.81905 0.0
C3092 C 0.24025 0.16401 0.83298 0.0
C3093 C 0.18782 0.11489 0.82032 0.0
C3094 C 0.28248 0.2266 0.80739 0.0
C3095 C 0.27364 0.21065 0.81296 0.0
C3096 C 0.23158 0.17686 0.79934 0.0
C3097 C 0.21642 0.1365 0.82362 0.0
C3098 C 0.22644 0.15396 0.82 0.0
C3099 C 0.25446 0.20478 0.80822 0.0
C3100 C 0.24512 0.18718 0.81241 0.0
H3101 H 0.22476 0.09705 0.83614 0.0
H3102 H 0.24103 0.12701 0.83387 0.0
H3103 H 0.21204 0.15284 0.79269 0.0
H3104 H 0.24473 0.2389 0.78494 0.0
H3105 H 0.22934 0.21162 0.7951 0.0
C3106 C 0.46016 0.99158 0.27523 0.0
C3107 C 0.45867 0.00719 0.28532 0.0
C3108 C 0.44814 0.97585 0.27693 0.0
C3109 C 0.40231 0.95943 0.29146 0.0
H3110 H 0.41844 0.91453 0.28904 0.0
C3111 C 0.35563 0.89512 0.30527 0.0
C3112 C 0.35459 0.88056 0.29251 0.0
C3113 C 0.36886 0.91034 0.30489 0.0
C3114 C 0.41375 0.92698 0.28961 0.0
H3115 H 0.44391 0.0184 0.30566 0.0
H3116 H 0.42331 0.99088 0.30902 0.0
H3117 H 0.44094 0.94159 0.28813 0.0
H3118 H 0.36674 0.87057 0.26939 0.0
H3119 H 0.3901 0.89713 0.26897 0.0
H3120 H 0.37517 0.9448 0.29314 0.0
C3121 C 0.43341 0.99087 0.29941 0.0
C3122 C 0.4266 0.94247 0.28906 0.0
C3123 C 0.44531 0.00663 0.29757 0.0
C3124 C 0.36731 0.88146 0.27956 0.0
C3125 C 0.38066 0.89666 0.27928 0.0
C3126 C 0.38953 0.94397 0.29217 0.0
C3127 C 0.43449 0.97535 0.28889 0.0
C3128 C 0.42101 0.95887 0.28994 0.0
C3129 C 0.38144 0.91127 0.29186 0.0
C3130 C 0.39511 0.92761 0.29122 0.0
H3131 H 0.47024 0.9916 0.26557 0.0
H3132 H 0.44921 0.9642 0.26846 0.0
H3133 H 0.39744 0.97178 0.29177 0.0
H3134 H 0.34631 0.89474 0.31569 0.0
H3135 H 0.36935 0.92134 0.31492 0.0
C3136 C 0.56365 0.37185 0.60083 0.0
C3137 C 0.5582 0.36885 0.61815 0.0
C3138 C 0.55482 0.38229 0.5896 0.0
C3139 C 0.52861 0.41812 0.59307 0.0
H3140 H 0.52983 0.41432 0.54058 0.0
C3141 C 0.51899 0.47464 0.54801 0.0
C3142 C 0.5362 0.48076 0.54196 0.0
C3143 C 0.51541 0.45809 0.5547 0.0
C3144 C 0.52903 0.41534 0.55517 0.0
H3145 H 0.53856 0.37349 0.63693 0.0
H3146 H 0.5227 0.39137 0.61705 0.0
H3147 H 0.53423 0.38938 0.55788 0.0
H3148 H 0.56266 0.47423 0.53698 0.0
H3149 H 0.55617 0.44512 0.54812 0.0
H3150 H 0.52384 0.44427 0.59026 0.0
C3151 C 0.53415 0.38607 0.61234 0.0
C3152 C 0.53176 0.40119 0.56513 0.0
C3153 C 0.5432 0.37582 0.62372 0.0
C3154 C 0.54934 0.4698 0.5417 0.0
C3155 C 0.54557 0.45314 0.54789 0.0
C3156 C 0.52551 0.43212 0.58305 0.0
C3157 C 0.54013 0.38976 0.5953 0.0
C3158 C 0.53261 0.40278 0.58432 0.0
C3159 C 0.52878 0.44734 0.55482 0.0
C3160 C 0.52661 0.4311 0.56418 0.0
H3161 H 0.57519 0.36666 0.59619 0.0
H3162 H 0.56014 0.38511 0.57679 0.0
H3163 H 0.52929 0.41993 0.60781 0.0
H3164 H 0.5087 0.48296 0.54835 0.0
H3165 H 0.50245 0.45385 0.56016 0.0
C3166 C 0.47548 0.75241 0.34324 0.0
C3167 C 0.4756 0.73917 0.35532 0.0
C3168 C 0.45884 0.75508 0.33416 0.0
C3169 C 0.41228 0.7331 0.31686 0.0
H3170 H 0.3997 0.77954 0.32042 0.0
C3171 C 0.33915 0.74406 0.29351 0.0
C3172 C 0.33685 0.75988 0.28622 0.0
C3173 C 0.35661 0.74165 0.30066 0.0
C3174 C 0.40313 0.76657 0.31896 0.0
H3175 H 0.45846 0.71827 0.36724 0.0
H3176 H 0.42927 0.72273 0.35093 0.0
H3177 H 0.42919 0.77503 0.33565 0.0
H3178 H 0.35113 0.78542 0.28023 0.0
H3179 H 0.38188 0.78096 0.29217 0.0
H3180 H 0.38658 0.72461 0.29984 0.0
C3181 C 0.44212 0.73106 0.34868 0.0
C3182 C 0.41995 0.76399 0.3278 0.0
C3183 C 0.45876 0.72857 0.35804 0.0
C3184 C 0.35248 0.77311 0.28583 0.0
C3185 C 0.37006 0.77058 0.29279 0.0
C3186 C 0.39562 0.73572 0.30776 0.0
C3187 C 0.44206 0.74439 0.33675 0.0
C3188 C 0.42452 0.74719 0.327 0.0
C3189 C 0.37229 0.75488 0.30048 0.0
C3190 C 0.39069 0.75243 0.30893 0.0
H3191 H 0.48824 0.76085 0.34094 0.0
H3192 H 0.45911 0.76538 0.32495 0.0
H3193 H 0.41569 0.72009 0.31585 0.0
H3194 H 0.32737 0.73366 0.29421 0.0
H3195 H 0.35768 0.72955 0.30681 0.0
C3196 C 0.08768 0.77773 0.12537 0.0
C3197 C 0.09995 0.78364 0.14136 0.0
C3198 C 0.08679 0.76101 0.11671 0.0
C3199 C 0.11347 0.72599 0.11135 0.0
H3200 H 0.06543 0.697 0.09425 0.0
C3201 C 0.10533 0.65419 0.08077 0.0
C3202 C 0.09189 0.64859 0.06561 0.0
C3203 C 0.1064 0.67051 0.09044 0.0
C3204 C 0.07895 0.70501 0.09874 0.0
H3205 H 0.121 0.77659 0.16073 0.0
H3206 H 0.11944 0.7473 0.14548 0.0
H3207 H 0.06719 0.72578 0.11053 0.0
H3208 H 0.06924 0.65573 0.04848 0.0
H3209 H 0.07126 0.68437 0.0652 0.0
H3210 H 0.12525 0.70537 0.09933 0.0
C3211 C 0.11057 0.75572 0.13968 0.0
C3212 C 0.07995 0.72146 0.10811 0.0
C3213 C 0.11139 0.77245 0.14844 0.0
C3214 C 0.07959 0.65964 0.06025 0.0
C3215 C 0.08073 0.67601 0.06986 0.0
C3216 C 0.11247 0.70956 0.10189 0.0
C3217 C 0.09821 0.74984 0.12377 0.0
C3218 C 0.09721 0.73214 0.11442 0.0
C3219 C 0.0941 0.6816 0.08511 0.0
C3220 C 0.0952 0.69893 0.09541 0.0
H3221 H 0.07867 0.786 0.11952 0.0
H3222 H 0.0773 0.75691 0.10433 0.0
H3223 H 0.12696 0.73405 0.11587 0.0
H3224 H 0.11481 0.64581 0.08536 0.0
H3225 H 0.11667 0.6743 0.10229 0.0
C3226 C 0.08547 0.22527 0.8977 0.0
C3227 C 0.06968 0.21356 0.88908 0.0
C3228 C 0.10136 0.22883 0.88879 0.0
C3229 C 0.13497 0.22977 0.86652 0.0
H3230 H 0.11995 0.24206 0.81783 0.0
C3231 C 0.18504 0.2453 0.81217 0.0
C3232 C 0.18382 0.26052 0.80315 0.0
C3233 C 0.17198 0.23911 0.82365 0.0
C3234 C 0.12433 0.23874 0.83141 0.0
H3235 H 0.05879 0.19485 0.8656 0.0
H3236 H 0.0865 0.201 0.85018 0.0
H3237 H 0.09645 0.23046 0.83693 0.0
H3238 H 0.16782 0.28108 0.79904 0.0
H3239 H 0.14461 0.26988 0.81873 0.0
H3240 H 0.16294 0.23812 0.86086 0.0
C3241 C 0.08649 0.20768 0.86356 0.0
C3242 C 0.11093 0.23193 0.84225 0.0
C3243 C 0.07069 0.20413 0.87241 0.0
C3244 C 0.16901 0.2692 0.80558 0.0
C3245 C 0.15581 0.26287 0.81693 0.0
C3246 C 0.14844 0.23639 0.85554 0.0
C3247 C 0.10156 0.22069 0.87124 0.0
C3248 C 0.11611 0.22735 0.85987 0.0
C3249 C 0.15727 0.24784 0.82614 0.0
C3250 C 0.14319 0.24098 0.83791 0.0
H3251 H 0.08505 0.2327 0.91057 0.0
H3252 H 0.11288 0.2389 0.89498 0.0
H3253 H 0.13925 0.2264 0.8801 0.0
H3254 H 0.19607 0.2381 0.8103 0.0
H3255 H 0.1732 0.22731 0.83035 0.0
C3256 C 0.54155 0.7052 0.9324 0.0
C3257 C 0.55623 0.7195 0.93856 0.0
C3258 C 0.54003 0.68866 0.94002 0.0
C3259 C 0.56764 0.65934 0.96592 0.0
H3260 H 0.52003 0.63406 0.97582 0.0
C3261 C 0.55644 0.58522 0.98618 0.0
C3262 C 0.54535 0.58053 1.00027 0.0
C3263 C 0.55778 0.60191 0.97889 0.0
C3264 C 0.53353 0.64081 0.97321 0.0
H3265 H 0.58105 0.72662 0.9579 0.0
H3266 H 0.57883 0.69793 0.97057 0.0
H3267 H 0.5223 0.66264 0.96301 0.0
H3268 H 0.52676 0.59066 0.01724 0.0
H3269 H 0.52844 0.6191 0.00415 0.0
H3270 H 0.57879 0.6373 0.97567 0.0
C3271 C 0.5682 0.69956 0.95992 0.0
C3272 C 0.53483 0.65737 0.96566 0.0
C3273 C 0.56945 0.71625 0.95263 0.0
C3274 C 0.53543 0.59338 0.00644 0.0
C3275 C 0.53638 0.60989 0.99881 0.0
C3276 C 0.56626 0.64256 0.97301 0.0
C3277 C 0.5534 0.6853 0.9539 0.0
C3278 C 0.55195 0.66719 0.96191 0.0
C3279 C 0.54774 0.61472 0.98494 0.0
C3280 C 0.54918 0.63284 0.97698 0.0
H3281 H 0.531 0.70681 0.92165 0.0
H3282 H 0.52844 0.67831 0.9347 0.0
H3283 H 0.58113 0.66608 0.96329 0.0
H3284 H 0.5645 0.57606 0.98094 0.0
H3285 H 0.56663 0.60469 0.96825 0.0
C3286 C 0.11265 0.78797 0.66522 0.0
C3287 C 0.09781 0.79163 0.6745 0.0
C3288 C 0.13014 0.78734 0.67472 0.0
C3289 C 0.16041 0.80113 0.71985 0.0
H3290 H 0.18818 0.7668 0.70245 0.0
C3291 C 0.23775 0.8012 0.75035 0.0
C3292 C 0.24347 0.7849 0.75203 0.0
C3293 C 0.22011 0.80221 0.74133 0.0
C3294 C 0.1807 0.77646 0.70768 0.0
H3295 H 0.09038 0.79763 0.70151 0.0
H3296 H 0.12074 0.79671 0.718 0.0
H3297 H 0.15789 0.76807 0.68648 0.0
H3298 H 0.2344 0.75684 0.74515 0.0
H3299 H 0.20408 0.75858 0.72956 0.0
H3300 H 0.18325 0.80947 0.74111 0.0
C3301 C 0.11889 0.79435 0.70324 0.0
C3302 C 0.16321 0.77733 0.6983 0.0
C3303 C 0.1013 0.7948 0.69373 0.0
C3304 C 0.23077 0.76969 0.74429 0.0
C3305 C 0.21324 0.77071 0.73513 0.0
C3306 C 0.17802 0.8004 0.72913 0.0
C3307 C 0.1337 0.7905 0.69396 0.0
C3308 C 0.15261 0.78965 0.70416 0.0
C3309 C 0.20747 0.78699 0.7334 0.0
C3310 C 0.18855 0.78799 0.72331 0.0
H3311 H 0.11072 0.78544 0.65047 0.0
H3312 H 0.141 0.78455 0.66684 0.0
H3313 H 0.15302 0.81095 0.7249 0.0
H3314 H 0.24696 0.81328 0.75599 0.0
H3315 H 0.21653 0.81506 0.74028 0.0
C3316 C 0.05921 0.35201 0.42366 0.0
C3317 C 0.06085 0.33694 0.43309 0.0
C3318 C 0.05781 0.36833 0.43267 0.0
C3319 C 0.06631 0.39596 0.47835 0.0
H3320 H 0.03549 0.42418 0.4529 0.0
C3321 C 0.0575 0.46571 0.51212 0.0
C3322 C 0.0518 0.4785 0.50117 0.0
C3323 C 0.05837 0.44847 0.50462 0.0
C3324 C 0.04453 0.4169 0.46033 0.0
H3325 H 0.06236 0.32828 0.46036 0.0
H3326 H 0.06021 0.35689 0.47621 0.0
H3327 H 0.03738 0.39528 0.43941 0.0
H3328 H 0.04283 0.48233 0.47313 0.0
H3329 H 0.04485 0.45315 0.46014 0.0
H3330 H 0.07376 0.41771 0.49914 0.0
C3331 C 0.05995 0.35587 0.46149 0.0
C3332 C 0.04555 0.39991 0.45244 0.0
C3333 C 0.0611 0.33925 0.45233 0.0
C3334 C 0.04717 0.47315 0.48229 0.0
C3335 C 0.04822 0.45601 0.47476 0.0
C3336 C 0.06546 0.41311 0.4862 0.0
C3337 C 0.05813 0.37085 0.45182 0.0
C3338 C 0.05654 0.38895 0.46112 0.0
C3339 C 0.05374 0.44302 0.48567 0.0
C3340 C 0.0546 0.4242 0.47738 0.0
H3341 H 0.05891 0.35129 0.40893 0.0
H3342 H 0.05677 0.37919 0.42441 0.0
H3343 H 0.07511 0.38836 0.48567 0.0
H3344 H 0.06115 0.46893 0.5267 0.0
H3345 H 0.06247 0.43936 0.51397 0.0
C3346 C 0.47558 0.29477 0.18039 0.0
C3347 C 0.48323 0.27938 0.17887 0.0
C3348 C 0.45925 0.29519 0.18911 0.0
C3349 C 0.42672 0.26764 0.21886 0.0
H3350 H 0.39695 0.30333 0.21138 0.0
C3351 C 0.35422 0.26372 0.2474 0.0
C3352 C 0.3491 0.27936 0.25439 0.0
C3353 C 0.37038 0.26402 0.23842 0.0
C3354 C 0.40509 0.29325 0.21381 0.0
H3355 H 0.47858 0.25216 0.18496 0.0
H3356 H 0.45038 0.25248 0.19873 0.0
H3357 H 0.42417 0.30333 0.19526 0.0
H3358 H 0.35764 0.30772 0.25675 0.0
H3359 H 0.38533 0.30823 0.24105 0.0
H3360 H 0.40733 0.25737 0.2371 0.0
C3361 C 0.45711 0.26468 0.19415 0.0
C3362 C 0.421 0.29326 0.20446 0.0
C3363 C 0.47346 0.26438 0.18584 0.0
C3364 C 0.36091 0.2953 0.25184 0.0
C3365 C 0.37688 0.29561 0.24258 0.0
C3366 C 0.41069 0.26747 0.22794 0.0
C3367 C 0.44965 0.28016 0.1965 0.0
C3368 C 0.43232 0.28041 0.20666 0.0
C3369 C 0.38206 0.27997 0.23564 0.0
C3370 C 0.39943 0.28026 0.22569 0.0
H3371 H 0.4826 0.30673 0.17551 0.0
H3372 H 0.45454 0.30756 0.19044 0.0
H3373 H 0.43484 0.25768 0.22183 0.0
H3374 H 0.34567 0.25111 0.24881 0.0
H3375 H 0.37347 0.2516 0.23329 0.0
C3376 C 0.66215 0.51508 0.38162 0.0
C3377 C 0.65277 0.52633 0.37169 0.0
C3378 C 0.65479 0.50744 0.39653 0.0
C3379 C 0.61046 0.49744 0.4162 0.0
H3380 H 0.6409 0.50069 0.46278 0.0
C3381 C 0.57519 0.494 0.48031 0.0
C3382 C 0.58269 0.50849 0.49301 0.0
C3383 C 0.58563 0.48872 0.46696 0.0
C3384 C 0.63221 0.49954 0.44983 0.0
H3385 H 0.62877 0.53893 0.37003 0.0
H3386 H 0.61625 0.52599 0.39606 0.0
H3387 H 0.65556 0.50714 0.43528 0.0
H3388 H 0.60759 0.52766 0.50288 0.0
H3389 H 0.62535 0.51913 0.4793 0.0
H3390 H 0.58705 0.49152 0.43069 0.0
C3391 C 0.62896 0.52261 0.39207 0.0
C3392 C 0.64064 0.50308 0.43406 0.0
C3393 C 0.63625 0.5302 0.37726 0.0
C3394 C 0.60129 0.51661 0.49311 0.0
C3395 C 0.61161 0.51152 0.47966 0.0
C3396 C 0.60204 0.49412 0.43192 0.0
C3397 C 0.63793 0.5109 0.40165 0.0
C3398 C 0.62973 0.50302 0.41731 0.0
C3399 C 0.60365 0.49803 0.46592 0.0
C3400 C 0.61276 0.49612 0.44909 0.0
H3401 H 0.6749 0.51182 0.37761 0.0
H3402 H 0.66204 0.49855 0.40377 0.0
H3403 H 0.60176 0.4968 0.40332 0.0
H3404 H 0.56102 0.4872 0.48018 0.0
H3405 H 0.57923 0.47797 0.45687 0.0
C3406 C 0.299 0.82699 0.08549 0.0
C3407 C 0.30695 0.8449 0.08564 0.0
C3408 C 0.29954 0.81853 0.10169 0.0
C3409 C 0.30211 0.82887 0.15121 0.0
H3410 H 0.3131 0.78222 0.15548 0.0
C3411 C 0.30714 0.80122 0.22111 0.0
C3412 C 0.29942 0.78344 0.22212 0.0
C3413 C 0.30966 0.80781 0.20424 0.0
C3414 C 0.3098 0.79518 0.15448 0.0
H3415 H 0.32237 0.86774 0.10283 0.0
H3416 H 0.32324 0.85306 0.1309 0.0
H3417 H 0.31437 0.79518 0.12621 0.0
H3418 H 0.28887 0.75848 0.20618 0.0
H3419 H 0.29283 0.77008 0.17658 0.0
H3420 H 0.29701 0.82889 0.17912 0.0
C3421 C 0.31643 0.84558 0.11834 0.0
C3422 C 0.31057 0.80261 0.13771 0.0
C3423 C 0.31602 0.85397 0.10219 0.0
C3424 C 0.29494 0.77223 0.20586 0.0
C3425 C 0.29725 0.7789 0.18888 0.0
C3426 C 0.30116 0.82143 0.16785 0.0
C3427 C 0.3079 0.82787 0.11837 0.0
C3428 C 0.3069 0.81962 0.13595 0.0
C3429 C 0.30426 0.79689 0.18783 0.0
C3430 C 0.30517 0.80455 0.16983 0.0
H3431 H 0.29191 0.81963 0.07297 0.0
H3432 H 0.29278 0.80489 0.10128 0.0
H3433 H 0.29879 0.84184 0.15021 0.0
H3434 H 0.31099 0.81017 0.23339 0.0
H3435 H 0.31563 0.82161 0.20409 0.0
C3436 C 0.03618 0.58118 0.83728 0.0
C3437 C 0.01758 0.58185 0.83165 0.0
C3438 C 0.04183 0.57862 0.85537 0.0
C3439 C 0.02606 0.57574 0.9017 0.0
H3440 H 0.05644 0.53989 0.90502 0.0
C3441 C 0.02857 0.53348 0.96224 0.0
C3442 C 0.04638 0.5335 0.97104 0.0
C3443 C 0.0264 0.54012 0.94524 0.0
C3444 C 0.04808 0.55 0.90429 0.0
H3445 H 0.99068 0.58193 0.84092 0.0
H3446 H 1.00034 0.57705 0.87223 0.0
H3447 H 0.05103 0.55258 0.87611 0.0
H3448 H 0.07579 0.53936 0.96846 0.0
H3449 H 0.07188 0.55056 0.93842 0.0
H3450 H 0.02249 0.57246 0.92975 0.0
C3451 C 0.01071 0.57869 0.86283 0.0
C3452 C 0.04509 0.55742 0.8878 0.0
C3453 C 1.00512 0.58146 0.8448 0.0
C3454 C 0.0619 0.53925 0.96202 0.0
C3455 C 0.05969 0.54565 0.94486 0.0
C3456 C 0.02884 0.56813 0.91809 0.0
C3457 C 0.02894 0.57651 0.86815 0.0
C3458 C 0.03384 0.57022 0.88623 0.0
C3459 C 0.04196 0.54662 0.93662 0.0
C3460 C 0.03966 0.55505 0.91944 0.0
H3461 H 0.04618 0.58168 0.8275 0.0
H3462 H 0.05611 0.57752 0.85914 0.0
H3463 H 0.0176 0.58577 0.90109 0.0
H3464 H 0.01634 0.52916 0.96885 0.0
H3465 H 0.01256 0.54051 0.93897 0.0
C3466 C 0.31715 0.20278 0.58201 0.0
C3467 C 0.31454 0.18423 0.58043 0.0
C3468 C 0.3156 0.21238 0.59875 0.0
C3469 C 0.31476 0.20719 0.64973 0.0
H3470 H 0.29625 0.2508 0.65085 0.0
C3471 C 0.31413 0.24814 0.71943 0.0
C3472 C 0.30011 0.25803 0.72165 0.0
C3473 C 0.3161 0.23994 0.70222 0.0
C3474 C 0.30133 0.23856 0.65095 0.0
H3475 H 0.30794 0.16156 0.59583 0.0
H3476 H 0.30507 0.17786 0.6242 0.0
H3477 H 0.29915 0.23548 0.62151 0.0
H3478 H 0.27719 0.26688 0.7067 0.0
H3479 H 0.28038 0.25249 0.67692 0.0
H3480 H 0.31655 0.20991 0.67899 0.0
C3481 C 0.30872 0.18527 0.61279 0.0
C3482 C 0.30324 0.2298 0.63392 0.0
C3483 C 0.31026 0.17577 0.59622 0.0
C3484 C 0.28819 0.25946 0.70579 0.0
C3485 C 0.29014 0.2512 0.68851 0.0
C3486 C 0.31288 0.21592 0.66668 0.0
C3487 C 0.31143 0.20381 0.61459 0.0
C3488 C 0.3099 0.21381 0.63288 0.0
C3489 C 0.3041 0.24115 0.68631 0.0
C3490 C 0.30609 0.23183 0.66779 0.0
H3491 H 0.32042 0.20993 0.57032 0.0
H3492 H 0.31795 0.22659 0.59929 0.0
H3493 H 0.32025 0.19518 0.64995 0.0
H3494 H 0.32378 0.24671 0.73107 0.0
H3495 H 0.32732 0.23278 0.70145 0.0
C3496 C 0.66673 0.5277 0.25467 0.0
C3497 C 0.66123 0.52004 0.27035 0.0
C3498 C 0.65459 0.52507 0.2385 0.0
C3499 C 0.60457 0.51536 0.22368 0.0
H3500 H 0.62112 0.51734 0.17563 0.0
C3501 C 0.55794 0.52207 0.15644 0.0
C3502 C 0.56563 0.53664 0.14759 0.0
C3503 C 0.5684 0.51637 0.17098 0.0
C3504 C 0.6163 0.51661 0.18897 0.0
H3505 H 0.63938 0.50254 0.28115 0.0
H3506 H 0.61841 0.49766 0.25277 0.0
H3507 H 0.64245 0.51269 0.20158 0.0
H3508 H 0.59024 0.5565 0.14678 0.0
H3509 H 0.60835 0.54658 0.17203 0.0
H3510 H 0.57851 0.51968 0.21097 0.0
C3511 C 0.63182 0.50606 0.25308 0.0
C3512 C 0.6285 0.51405 0.20382 0.0
C3513 C 0.64389 0.50882 0.26927 0.0
C3514 C 0.58382 0.54544 0.15357 0.0
C3515 C 0.59429 0.53962 0.16782 0.0
C3516 C 0.5923 0.51774 0.20876 0.0
C3517 C 0.63681 0.5146 0.23767 0.0
C3518 C 0.623 0.51406 0.22146 0.0
C3519 C 0.58677 0.52494 0.1765 0.0
C3520 C 0.59832 0.51903 0.19145 0.0
H3521 H 0.68001 0.5364 0.25512 0.0
H3522 H 0.65882 0.53203 0.22694 0.0
H3523 H 0.59992 0.51561 0.23711 0.0
H3524 H 0.54397 0.51503 0.15198 0.0
H3525 H 0.56234 0.50506 0.17761 0.0
C3526 C 0.28668 0.84059 0.97191 0.0
C3527 C 0.28747 0.85888 0.97418 0.0
C3528 C 0.286 0.832 0.95437 0.0
C3529 C 0.30027 0.84023 0.90948 0.0
H3530 H 0.26157 0.80102 0.88917 0.0
C3531 C 0.29156 0.81806 0.83288 0.0
C3532 C 0.28649 0.80002 0.8272 0.0
C3533 C 0.29077 0.82426 0.85096 0.0
C3534 C 0.27266 0.81178 0.89468 0.0
H3535 H 0.2881 0.8824 0.95972 0.0
H3536 H 0.28732 0.86755 0.92953 0.0
H3537 H 0.26252 0.81293 0.92093 0.0
H3538 H 0.27622 0.77437 0.83598 0.0
H3539 H 0.27534 0.7851 0.8677 0.0
H3540 H 0.31077 0.83907 0.88368 0.0
C3541 C 0.28711 0.85983 0.94122 0.0
C3542 C 0.27316 0.8186 0.91288 0.0
C3543 C 0.28746 0.86831 0.95856 0.0
C3544 C 0.28009 0.78837 0.8399 0.0
C3545 C 0.27957 0.79455 0.85811 0.0
C3546 C 0.29995 0.83331 0.89146 0.0
C3547 C 0.28647 0.84163 0.93891 0.0
C3548 C 0.28678 0.8331 0.92032 0.0
C3549 C 0.28523 0.81257 0.86399 0.0
C3550 C 0.28592 0.81922 0.88362 0.0
H3551 H 0.28663 0.83294 0.98364 0.0
H3552 H 0.28554 0.81794 0.95294 0.0
H3553 H 0.31109 0.85127 0.91495 0.0
H3554 H 0.29635 0.82742 0.82339 0.0
H3555 H 0.29468 0.83827 0.85471 0.0
C3556 C 1.00897 0.56969 0.72793 0.0
C3557 C 0.98973 0.56652 0.72852 0.0
C3558 C 0.01699 0.55833 0.71724 0.0
C3559 C 1.00807 0.51247 0.69686 0.0
H3560 H 0.04996 0.52942 0.67122 0.0
C3561 C 0.03503 0.47474 0.63864 0.0
C3562 C 0.0532 0.48155 0.63507 0.0
C3563 C 0.0283 0.48119 0.65425 0.0
C3564 C 0.03856 0.52439 0.67868 0.0
H3565 H 0.96364 0.54981 0.71714 0.0
H3566 H 0.97767 0.53024 0.69803 0.0
H3567 H 0.03529 0.55036 0.68726 0.0
H3568 H 0.07986 0.49654 0.64792 0.0
H3569 H 0.06844 0.50655 0.67525 0.0
H3570 H 0.01113 0.48641 0.68766 0.0
C3571 C 0.98657 0.5412 0.70632 0.0
C3572 C 0.03005 0.53645 0.68776 0.0
C3573 C 0.97853 0.55258 0.71705 0.0
C3574 C 0.06558 0.49138 0.64952 0.0
C3575 C 0.05898 0.49741 0.66529 0.0
C3576 C 0.01659 0.50033 0.68766 0.0
C3577 C 1.00593 0.54364 0.70677 0.0
C3578 C 0.01468 0.53067 0.69689 0.0
C3579 C 0.03993 0.4939 0.6668 0.0
C3580 C 0.03193 0.50619 0.67847 0.0
H3581 H 0.01797 0.58034 0.7366 0.0
H3582 H 0.03196 0.56058 0.71791 0.0
H3583 H 0.99641 0.50762 0.70405 0.0
H3584 H 0.02534 0.46616 0.62842 0.0
H3585 H 0.01361 0.47774 0.65532 0.0
C3586 C 0.31953 0.20506 0.46352 0.0
C3587 C 0.3157 0.18654 0.46353 0.0
C3588 C 0.31897 0.21343 0.44699 0.0
C3589 C 0.30089 0.20533 0.39623 0.0
H3590 H 0.33447 0.24901 0.39232 0.0
C3591 C 0.30326 0.23653 0.32569 0.0
C3592 C 0.30856 0.2549 0.32507 0.0
C3593 C 0.30461 0.22848 0.34233 0.0
C3594 C 0.32471 0.23695 0.39301 0.0
H3595 H 0.30825 0.16257 0.4454 0.0
H3596 H 0.30724 0.17692 0.41696 0.0
H3597 H 0.33562 0.235 0.42087 0.0
H3598 H 0.31957 0.27897 0.34235 0.0
H3599 H 0.32165 0.26521 0.37112 0.0
H3600 H 0.28973 0.20731 0.36858 0.0
C3601 C 0.31057 0.18516 0.42974 0.0
C3602 C 0.32542 0.22878 0.40965 0.0
C3603 C 0.31127 0.1768 0.44624 0.0
C3604 C 0.31548 0.26482 0.34194 0.0
C3605 C 0.31672 0.25677 0.35865 0.0
C3606 C 0.30009 0.21354 0.37965 0.0
C3607 C 0.3144 0.2037 0.42965 0.0
C3608 C 0.31357 0.2127 0.41169 0.0
C3609 C 0.31117 0.23836 0.35935 0.0
C3610 C 0.31203 0.22956 0.37749 0.0
H3611 H 0.32297 0.21319 0.47637 0.0
H3612 H 0.32185 0.22766 0.44791 0.0
H3613 H 0.29119 0.19323 0.39696 0.0
H3614 H 0.29789 0.22821 0.31321 0.0
H3615 H 0.30053 0.21433 0.34167 0.0
C3616 C 0.34991 0.6313 0.52866 0.0
C3617 C 0.34175 0.64251 0.51762 0.0
C3618 C 0.36456 0.62396 0.52319 0.0
C3619 C 0.39903 0.62582 0.48973 0.0
H3620 H 0.39642 0.57713 0.49987 0.0
C3621 C 0.45838 0.58788 0.48054 0.0
C3622 C 0.45405 0.56952 0.47645 0.0
C3623 C 0.44449 0.5975 0.48321 0.0
C3624 C 0.39723 0.59062 0.49661 0.0
H3625 H 0.34301 0.65549 0.49259 0.0
H3626 H 0.36829 0.64221 0.48268 0.0
H3627 H 0.37336 0.593 0.50977 0.0
H3628 H 0.43131 0.5471 0.4709 0.0
H3629 H 0.40712 0.56396 0.47457 0.0
H3630 H 0.42261 0.62314 0.47598 0.0
C3631 C 0.36361 0.63933 0.49575 0.0
C3632 C 0.38418 0.59987 0.50265 0.0
C3633 C 0.3491 0.64693 0.5014 0.0
C3634 C 0.4353 0.56121 0.4739 0.0
C3635 C 0.42138 0.57087 0.47633 0.0
C3636 C 0.41203 0.61647 0.48349 0.0
C3637 C 0.37115 0.62737 0.50635 0.0
C3638 C 0.38504 0.61765 0.49952 0.0
C3639 C 0.42585 0.58904 0.48165 0.0
C3640 C 0.41137 0.59878 0.487 0.0
H3641 H 0.34468 0.62787 0.54137 0.0
H3642 H 0.37042 0.61526 0.53198 0.0
H3643 H 0.40015 0.63951 0.48713 0.0
H3644 H 0.47255 0.59483 0.48231 0.0
H3645 H 0.44853 0.61145 0.48736 0.0
C3646 C 0.8429 0.94918 0.50926 0.0
C3647 C 0.83607 0.94059 0.52408 0.0
C3648 C 0.86171 0.95679 0.50955 0.0
C3649 C 0.90976 0.95997 0.53536 0.0
H3650 H 0.92144 0.99931 0.50623 0.0
C3651 C 0.98437 1.00342 0.54045 0.0
C3652 C 0.99126 0.00912 0.52428 0.0
C3653 C 0.96586 0.99475 0.54044 0.0
C3654 C 0.91856 0.98823 0.51432 0.0
H3655 H 0.84448 0.93327 0.55098 0.0
H3656 H 0.87731 0.94705 0.55188 0.0
H3657 H 0.88934 0.98549 0.50699 0.0
H3658 H 0.98341 0.00989 0.49531 0.0
H3659 H 0.95106 0.99514 0.49533 0.0
H3660 H 0.93919 0.96332 0.54312 0.0
C3661 C 0.86803 0.94762 0.53969 0.0
C3662 C 0.89992 0.9801 0.51473 0.0
C3663 C 0.84905 0.93969 0.53925 0.0
C3664 C 0.97879 1.00584 0.50807 0.0
C3665 C 0.96011 0.99738 0.50812 0.0
C3666 C 0.92843 0.9683 0.53515 0.0
C3667 C 0.87476 0.95655 0.52487 0.0
C3668 C 0.89501 0.96563 0.5251 0.0
C3669 C 0.95329 0.99159 0.52431 0.0
C3670 C 0.93323 0.98254 0.52452 0.0
H3671 H 0.83362 0.95001 0.49712 0.0
H3672 H 0.86593 0.96278 0.49749 0.0
H3673 H 0.907 0.94885 0.54339 0.0
H3674 H 0.99337 1.00553 0.55327 0.0
H3675 H 0.96133 0.99077 0.55325 0.0
C3676 C 0.8731 0.06146 0.25006 0.0
C3677 C 0.86394 0.04743 0.23745 0.0
C3678 C 0.86327 0.07334 0.25763 0.0
C3679 C 0.82129 0.09136 0.24736 0.0
H3680 H 0.83385 0.11292 0.29714 0.0
C3681 C 0.78677 0.14727 0.27392 0.0
C3682 C 0.79909 0.16199 0.28302 0.0
C3683 C 0.79271 0.13139 0.27052 0.0
C3684 C 0.83023 0.10703 0.2832 0.0
H3685 H 0.83721 0.03442 0.2234 0.0
H3686 H 0.81999 0.05517 0.23675 0.0
H3687 H 0.84776 0.08813 0.28726 0.0
H3688 H 0.82701 0.17138 0.29646 0.0
H3689 H 0.83749 0.14376 0.29023 0.0
H3690 H 0.80417 0.11051 0.24313 0.0
C3691 C 0.83481 0.05708 0.24059 0.0
C3692 C 0.83817 0.09285 0.27755 0.0
C3693 C 0.84466 0.04518 0.233 0.0
C3694 C 0.81727 0.16032 0.28922 0.0
C3695 C 0.8232 0.14444 0.28585 0.0
C3696 C 0.81334 0.10551 0.25302 0.0
C3697 C 0.84407 0.07144 0.25277 0.0
C3698 C 0.83407 0.0851 0.25946 0.0
C3699 C 0.81108 0.1299 0.27617 0.0
C3700 C 0.81799 0.11371 0.27089 0.0
H3701 H 0.88795 0.06354 0.25378 0.0
H3702 H 0.87085 0.08439 0.26678 0.0
H3703 H 0.81804 0.08585 0.23327 0.0
H3704 H 0.77271 0.14818 0.26884 0.0
H3705 H 0.78301 0.12036 0.26319 0.0
C3706 C 0.71883 0.15419 0.01317 0.0
C3707 C 0.73235 0.14918 0.00302 0.0
C3708 C 0.70125 0.14357 0.01192 0.0
C3709 C 0.67745 0.09736 0.99793 0.0
H3710 H 0.63407 0.1162 0.00823 0.0
C3711 C 0.60306 0.05595 0.99835 0.0
C3712 C 0.59707 0.05759 0.01574 0.0
C3713 C 0.61885 0.06724 0.9943 0.0
C3714 C 0.64608 0.11082 0.00519 0.0
H3715 H 0.73787 0.12985 0.98278 0.0
H3716 H 0.70696 0.11181 0.97979 0.0
H3717 H 0.66269 0.1363 0.00469 0.0
H3718 H 0.60262 0.07253 0.04234 0.0
H3719 H 0.62985 0.09244 0.03503 0.0
H3720 H 0.66051 0.07186 0.99821 0.0
C3721 C 0.71004 0.12347 0.98934 0.0
C3722 C 0.66253 0.12229 0.00334 0.0
C3723 C 0.72773 0.13388 0.99091 0.0
C3724 C 0.607 0.07081 0.02888 0.0
C3725 C 0.62247 0.0823 0.02469 0.0
C3726 C 0.66087 0.08591 0.9994 0.0
C3727 C 0.6967 0.1279 1.00019 0.0
C3728 C 0.67859 0.11574 1.00014 0.0
C3729 C 0.62852 0.08059 0.00741 0.0
C3730 C 0.64522 0.09258 0.00346 0.0
H3731 H 0.7221 0.16588 0.02269 0.0
H3732 H 0.69154 0.14734 0.02073 0.0
H3733 H 0.68952 0.09174 0.9958 0.0
H3734 H 0.59561 0.04591 0.98796 0.0
H3735 H 0.62338 0.06572 0.98089 0.0
C3736 C 0.1718 0.46041 0.30686 0.0
C3737 C 0.15532 0.44896 0.29942 0.0
C3738 C 0.18641 0.45385 0.31574 0.0
C3739 C 0.19918 0.41497 0.33634 0.0
H3740 H 0.24493 0.42801 0.31502 0.0
C3741 C 0.25069 0.36908 0.32933 0.0
C3742 C 0.26942 0.37595 0.32811 0.0
C3743 C 0.23823 0.38028 0.3319 0.0
C3744 C 0.2325 0.42452 0.32158 0.0
H3745 H 0.14082 0.42183 0.29634 0.0
H3746 H 0.16634 0.41038 0.31186 0.0
H3747 H 0.21975 0.44367 0.30831 0.0
H3748 H 0.29009 0.39989 0.33021 0.0
H3749 H 0.26836 0.41953 0.33524 0.0
H3750 H 0.21176 0.39547 0.34921 0.0
C3751 C 0.16794 0.42443 0.31087 0.0
C3752 C 0.21802 0.43349 0.31766 0.0
C3753 C 0.15339 0.43096 0.30185 0.0
C3754 C 0.27572 0.39422 0.33102 0.0
C3755 C 0.26324 0.40546 0.33372 0.0
C3756 C 0.21375 0.4061 0.34043 0.0
C3757 C 0.18474 0.43576 0.31752 0.0
C3758 C 0.201 0.42839 0.32446 0.0
C3759 C 0.24422 0.39863 0.33349 0.0
C3760 C 0.23033 0.41032 0.33251 0.0
H3761 H 0.17367 0.47438 0.3053 0.0
H3762 H 0.19918 0.46288 0.32085 0.0
H3763 H 0.18628 0.41096 0.34198 0.0
H3764 H 0.2455 0.35502 0.32751 0.0
H3765 H 0.2237 0.37448 0.33151 0.0
C3766 C 0.22573 0.44825 0.03506 0.0
C3767 C 0.22368 0.42981 0.0317 0.0
C3768 C 0.2102 0.45672 0.03452 0.0
C3769 C 0.15853 0.45009 0.01784 0.0
H3770 H 0.16064 0.49191 0.0503 0.0
C3771 C 0.09296 0.48407 0.02163 0.0
C3772 C 0.09548 0.5023 0.02682 0.0
C3773 C 0.10815 0.47507 0.02219 0.0
C3774 C 0.15966 0.48043 0.04082 0.0
H3775 H 0.20292 0.40606 0.02501 0.0
H3776 H 0.1761 0.42063 0.02405 0.0
H3777 H 0.18705 0.47719 0.05116 0.0
H3778 H 0.11675 0.52507 0.03652 0.0
H3779 H 0.14277 0.50984 0.03708 0.0
H3780 H 0.1312 0.45341 0.00737 0.0
C3781 C 0.18979 0.42871 0.02702 0.0
C3782 C 0.17508 0.47182 0.04136 0.0
C3783 C 0.20534 0.42024 0.02769 0.0
C3784 C 0.1139 0.51108 0.03248 0.0
C3785 C 0.12905 0.50215 0.03295 0.0
C3786 C 0.14313 0.45877 0.01721 0.0
C3787 C 0.19179 0.44719 0.03046 0.0
C3788 C 0.17497 0.45643 0.02988 0.0
C3789 C 0.12665 0.48386 0.02791 0.0
C3790 C 0.14325 0.47423 0.02866 0.0
H3791 H 0.23946 0.45626 0.03814 0.0
H3792 H 0.21274 0.4709 0.03704 0.0
H3793 H 0.15762 0.4385 0.0085 0.0
H3794 H 0.07915 0.47662 0.01724 0.0
H3795 H 0.10521 0.46105 0.01837 0.0
C3796 C 0.88406 0.93805 0.19235 0.0
C3797 C 0.87573 0.95287 0.19444 0.0
C3798 C 0.87464 0.92145 0.19556 0.0
C3799 C 0.83848 0.90291 0.22298 0.0
H3800 H 0.84534 0.85824 0.20053 0.0
C3801 C 0.80379 0.83713 0.24615 0.0
C3802 C 0.81517 0.82465 0.24909 0.0
C3803 C 0.80985 0.85203 0.23729 0.0
C3804 C 0.84339 0.87065 0.20696 0.0
H3805 H 0.85036 0.96165 0.19965 0.0
H3806 H 0.83373 0.93264 0.20468 0.0
H3807 H 0.85733 0.88548 0.18737 0.0
H3808 H 0.84174 0.8179 0.24473 0.0
H3809 H 0.85237 0.84409 0.22935 0.0
H3810 H 0.82476 0.88818 0.24265 0.0
C3811 C 0.84777 0.93391 0.20122 0.0
C3812 C 0.85023 0.88622 0.19942 0.0
C3813 C 0.85725 0.95052 0.19821 0.0
C3814 C 0.83267 0.8273 0.24274 0.0
C3815 C 0.8387 0.84221 0.2338 0.0
C3816 C 0.83159 0.88738 0.23041 0.0
C3817 C 0.85664 0.91933 0.20073 0.0
C3818 C 0.84799 0.90256 0.20747 0.0
C3819 C 0.82739 0.85479 0.23112 0.0
C3820 C 0.83411 0.87111 0.2226 0.0
H3821 H 0.89829 0.93941 0.18945 0.0
H3822 H 0.88194 0.91055 0.19513 0.0
H3823 H 0.8369 0.91525 0.22983 0.0
H3824 H 0.79019 0.83547 0.25075 0.0
H3825 H 0.80076 0.86141 0.23524 0.0
C3826 C 0.62712 0.03527 0.72043 0.0
C3827 C 0.63375 0.02282 0.731 0.0
C3828 C 0.63817 0.05175 0.7195 0.0
C3829 C 0.68656 0.07655 0.72915 0.0
H3830 H 0.66292 0.11705 0.73475 0.0
C3831 C 0.72827 0.14648 0.74936 0.0
C3832 C 0.72308 0.15994 0.73936 0.0
C3833 C 0.71711 0.12976 0.7474 0.0
C3834 C 0.66967 0.10586 0.73299 0.0
H3835 H 0.65749 0.01771 0.7483 0.0
H3836 H 0.67656 0.04639 0.74686 0.0
H3837 H 0.64417 0.0875 0.73194 0.0
H3838 H 0.70191 0.16662 0.71993 0.0
H3839 H 0.68238 0.13733 0.71651 0.0
H3840 H 0.71211 0.09495 0.73061 0.0
C3841 C 0.66292 0.04341 0.73911 0.0
C3842 C 0.65894 0.08894 0.7313 0.0
C3843 C 0.65192 0.02696 0.74001 0.0
C3844 C 0.70631 0.15644 0.72769 0.0
C3845 C 0.69509 0.13974 0.72583 0.0
C3846 C 0.69729 0.09347 0.73094 0.0
C3847 C 0.65608 0.05611 0.72911 0.0
C3848 C 0.66729 0.07408 0.72954 0.0
C3849 C 0.70049 0.12618 0.7355 0.0
C3850 C 0.68898 0.10828 0.73306 0.0
H3851 H 0.61322 0.03249 0.71325 0.0
H3852 H 0.63261 0.06115 0.71143 0.0
H3853 H 0.69338 0.0654 0.72751 0.0
H3854 H 0.74119 0.14876 0.75834 0.0
H3855 H 0.7215 0.11961 0.7552 0.0
loop_
_geom_bond_atom_site_label_1
_geom_bond_atom_site_label_2
_geom_bond_distance
_geom_bond_site_symmetry_2
_ccdc_geom_bond_type
C0 O1 1.306 . S
C0 O3 1.160 . S
O1 C0 1.306 . S
O1 Cd2 2.228 . S
Cd2 O1 2.228 . S
Cd2 O6 2.273 . S
Cd2 O10 2.277 . S
O3 C0 1.160 . S
O3 Cd4 2.203 . S
Cd4 O3 2.203 . S
Cd4 O6 2.411 . S
Cd4 O7 2.333 . S
Cd4 O8 2.352 . S
Cd4 O12 2.277 . S
Cd4 O13 2.356 . S
C5 O10 1.209 . S
C5 O12 1.226 . S
O6 Cd2 2.273 . S
O6 Cd4 2.411 . S
O6 C9 1.320 . S
O7 Cd4 2.333 . S
O7 C9 1.214 . S
O8 Cd4 2.352 . S
O8 C11 1.258 . S
C9 O6 1.320 . S
C9 O7 1.214 . S
O10 Cd2 2.277 . S
O10 C5 1.209 . S
C11 O8 1.258 . S
C11 O13 1.282 . S
O12 Cd4 2.277 . S
O12 C5 1.226 . S
O13 Cd4 2.356 . S
O13 C11 1.282 . S
C14 O15 1.306 . S
C14 O17 1.160 . S
O15 C14 1.306 . S
O15 Cd16 2.228 . S
Cd16 O15 2.228 . S
Cd16 O20 2.273 . S
Cd16 O24 2.277 . S
O17 C14 1.160 . S
O17 Cd18 2.203 . S
Cd18 O17 2.203 . S
Cd18 O20 2.411 . S
Cd18 O21 2.333 . S
Cd18 O22 2.352 . S
Cd18 O26 2.277 . S
Cd18 O27 2.356 . S
C19 O24 1.209 . S
C19 O26 1.226 . S
O20 Cd16 2.273 . S
O20 Cd18 2.411 . S
O20 C23 1.320 . S
O21 Cd18 2.333 . S
O21 C23 1.214 . S
O22 Cd18 2.352 . S
O22 C25 1.258 . S
C23 O20 1.320 . S
C23 O21 1.214 . S
O24 Cd16 2.277 . S
O24 C19 1.209 . S
C25 O22 1.258 . S
C25 O27 1.282 . S
O26 Cd18 2.277 . S
O26 C19 1.226 . S
O27 Cd18 2.356 . S
O27 C25 1.282 . S
C28 O29 1.306 . S
C28 O31 1.160 . S
O29 C28 1.306 . S
O29 Cd30 2.228 . S
Cd30 O29 2.228 . S
Cd30 O34 2.273 . S
Cd30 O38 2.277 . S
O31 C28 1.160 . S
O31 Cd32 2.203 . S
Cd32 O31 2.203 . S
Cd32 O34 2.411 . S
Cd32 O35 2.333 . S
Cd32 O36 2.352 . S
Cd32 O40 2.277 . S
Cd32 O41 2.356 . S
C33 O38 1.209 . S
C33 O40 1.226 . S
O34 Cd30 2.273 . S
O34 Cd32 2.411 . S
O34 C37 1.320 . S
O35 Cd32 2.333 . S
O35 C37 1.214 . S
O36 Cd32 2.352 . S
O36 C39 1.258 . S
C37 O34 1.320 . S
C37 O35 1.214 . S
O38 Cd30 2.277 . S
O38 C33 1.209 . S
C39 O36 1.258 . S
C39 O41 1.282 . S
O40 Cd32 2.277 . S
O40 C33 1.226 . S
O41 Cd32 2.356 . S
O41 C39 1.282 . S
C42 O43 1.306 . S
C42 O45 1.160 . S
O43 C42 1.306 . S
O43 Cd44 2.228 . S
Cd44 O43 2.228 . S
Cd44 O48 2.273 . S
Cd44 O52 2.277 . S
O45 C42 1.160 . S
O45 Cd46 2.203 . S
Cd46 O45 2.203 . S
Cd46 O48 2.411 . S
Cd46 O49 2.333 . S
Cd46 O50 2.352 . S
Cd46 O54 2.277 . S
Cd46 O55 2.356 . S
C47 O52 1.209 . S
C47 O54 1.226 . S
O48 Cd44 2.273 . S
O48 Cd46 2.411 . S
O48 C51 1.320 . S
O49 Cd46 2.333 . S
O49 C51 1.214 . S
O50 Cd46 2.352 . S
O50 C53 1.258 . S
C51 O48 1.320 . S
C51 O49 1.214 . S
O52 Cd44 2.277 . S
O52 C47 1.209 . S
C53 O50 1.258 . S
C53 O55 1.282 . S
O54 Cd46 2.277 . S
O54 C47 1.226 . S
O55 Cd46 2.356 . S
O55 C53 1.282 . S
C56 O57 1.306 . S
C56 O59 1.160 . S
O57 C56 1.306 . S
O57 Cd58 2.228 . S
Cd58 O57 2.228 . S
Cd58 O62 2.273 . S
Cd58 O66 2.277 . S
O59 C56 1.160 . S
O59 Cd60 2.203 . S
Cd60 O59 2.203 . S
Cd60 O62 2.411 . S
Cd60 O63 2.333 . S
Cd60 O64 2.352 . S
Cd60 O68 2.277 . S
Cd60 O69 2.356 . S
C61 O66 1.209 . S
C61 O68 1.226 . S
O62 Cd58 2.273 . S
O62 Cd60 2.411 . S
O62 C65 1.320 . S
O63 Cd60 2.333 . S
O63 C65 1.214 . S
O64 Cd60 2.352 . S
O64 C67 1.258 . S
C65 O62 1.320 . S
C65 O63 1.214 . S
O66 Cd58 2.277 . S
O66 C61 1.209 . S
C67 O64 1.258 . S
C67 O69 1.282 . S
O68 Cd60 2.277 . S
O68 C61 1.226 . S
O69 Cd60 2.356 . S
O69 C67 1.282 . S
C70 O71 1.306 . S
C70 O73 1.160 . S
O71 C70 1.306 . S
O71 Cd72 2.228 . S
Cd72 O71 2.228 . S
Cd72 O76 2.273 . S
Cd72 O80 2.277 . S
O73 C70 1.160 . S
O73 Cd74 2.203 . S
Cd74 O73 2.203 . S
Cd74 O76 2.411 . S
Cd74 O77 2.333 . S
Cd74 O78 2.352 . S
Cd74 O82 2.277 . S
Cd74 O83 2.356 . S
C75 O80 1.209 . S
C75 O82 1.226 . S
O76 Cd72 2.273 . S
O76 Cd74 2.411 . S
O76 C79 1.320 . S
O77 Cd74 2.333 . S
O77 C79 1.214 . S
O78 Cd74 2.352 . S
O78 C81 1.258 . S
C79 O76 1.320 . S
C79 O77 1.214 . S
O80 Cd72 2.277 . S
O80 C75 1.209 . S
C81 O78 1.258 . S
C81 O83 1.282 . S
O82 Cd74 2.277 . S
O82 C75 1.226 . S
O83 Cd74 2.356 . S
O83 C81 1.282 . S
C84 O85 1.306 . S
C84 O87 1.160 . S
O85 C84 1.306 . S
O85 Cd86 2.228 . S
Cd86 O85 2.228 . S
Cd86 O90 2.273 . S
Cd86 O94 2.277 . S
O87 C84 1.160 . S
O87 Cd88 2.203 . S
Cd88 O87 2.203 . S
Cd88 O90 2.411 . S
Cd88 O91 2.333 . S
Cd88 O92 2.352 . S
Cd88 O96 2.277 . S
Cd88 O97 2.356 . S
C89 O94 1.209 . S
C89 O96 1.226 . S
O90 Cd86 2.273 . S
O90 Cd88 2.411 . S
O90 C93 1.320 . S
O91 Cd88 2.333 . S
O91 C93 1.214 . S
O92 Cd88 2.352 . S
O92 C95 1.258 . S
C93 O90 1.320 . S
C93 O91 1.214 . S
O94 Cd86 2.277 . S
O94 C89 1.209 . S
C95 O92 1.258 . S
C95 O97 1.282 . S
O96 Cd88 2.277 . S
O96 C89 1.226 . S
O97 Cd88 2.356 . S
O97 C95 1.282 . S
C98 O99 1.306 . S
C98 O101 1.160 . S
O99 C98 1.306 . S
O99 Cd100 2.228 1_655 S
Cd100 O99 2.228 1_455 S
Cd100 O104 2.273 . S
Cd100 O108 2.277 . S
O101 C98 1.160 . S
O101 Cd102 2.203 1_655 S
Cd102 O101 2.203 1_455 S
Cd102 O104 2.411 . S
Cd102 O105 2.333 . S
Cd102 O106 2.352 1_455 S
Cd102 O110 2.277 . S
Cd102 O111 2.356 . S
C103 O108 1.209 . S
C103 O110 1.226 . S
O104 Cd100 2.273 . S
O104 Cd102 2.411 . S
O104 C107 1.320 . S
O105 Cd102 2.333 . S
O105 C107 1.214 . S
O106 Cd102 2.352 1_655 S
O106 C109 1.262 . S
C107 O104 1.320 . S
C107 O105 1.214 . S
O108 Cd100 2.277 . S
O108 C103 1.209 . S
C109 O106 1.262 . S
C109 O111 1.281 1_655 S
O110 Cd102 2.277 . S
O110 C103 1.226 . S
O111 Cd102 2.356 . S
O111 C109 1.281 1_455 S
C112 O113 1.306 . S
C112 O115 1.160 . S
O113 C112 1.306 . S
O113 Cd114 2.228 . S
Cd114 O113 2.228 . S
Cd114 O118 2.273 . S
Cd114 O122 2.277 . S
O115 C112 1.160 . S
O115 Cd116 2.203 . S
Cd116 O115 2.203 . S
Cd116 O118 2.411 . S
Cd116 O119 2.333 . S
Cd116 O120 2.352 . S
Cd116 O124 2.277 . S
Cd116 O125 2.356 . S
C117 O122 1.209 . S
C117 O124 1.226 . S
O118 Cd114 2.273 . S
O118 Cd116 2.411 . S
O118 C121 1.320 . S
O119 Cd116 2.333 . S
O119 C121 1.214 . S
O120 Cd116 2.352 . S
O120 C123 1.258 . S
C121 O118 1.320 . S
C121 O119 1.214 . S
O122 Cd114 2.277 . S
O122 C117 1.209 . S
C123 O120 1.258 . S
C123 O125 1.282 . S
O124 Cd116 2.277 . S
O124 C117 1.226 . S
O125 Cd116 2.356 . S
O125 C123 1.282 . S
C126 O127 1.306 . S
C126 O129 1.160 . S
O127 C126 1.306 . S
O127 Cd128 2.228 . S
Cd128 O127 2.228 . S
Cd128 O132 2.273 . S
Cd128 O136 2.277 . S
O129 C126 1.160 . S
O129 Cd130 2.203 . S
Cd130 O129 2.203 . S
Cd130 O132 2.411 . S
Cd130 O133 2.333 . S
Cd130 O134 2.352 . S
Cd130 O138 2.277 . S
Cd130 O139 2.356 . S
C131 O136 1.209 . S
C131 O138 1.226 . S
O132 Cd128 2.273 . S
O132 Cd130 2.411 . S
O132 C135 1.320 . S
O133 Cd130 2.333 . S
O133 C135 1.214 . S
O134 Cd130 2.352 . S
O134 C137 1.258 . S
C135 O132 1.320 . S
C135 O133 1.214 . S
O136 Cd128 2.277 . S
O136 C131 1.209 . S
C137 O134 1.258 . S
C137 O139 1.282 . S
O138 Cd130 2.277 . S
O138 C131 1.226 . S
O139 Cd130 2.356 . S
O139 C137 1.282 . S
C140 O141 1.306 . S
C140 O143 1.160 . S
O141 C140 1.306 . S
O141 Cd142 2.228 . S
Cd142 O141 2.228 . S
Cd142 O146 2.273 . S
Cd142 O150 2.277 . S
O143 C140 1.160 . S
O143 Cd144 2.203 . S
Cd144 O143 2.203 . S
Cd144 O146 2.411 . S
Cd144 O147 2.333 . S
Cd144 O148 2.352 . S
Cd144 O152 2.277 . S
Cd144 O153 2.356 . S
C145 O150 1.209 . S
C145 O152 1.226 . S
O146 Cd142 2.273 . S
O146 Cd144 2.411 . S
O146 C149 1.320 . S
O147 Cd144 2.333 . S
O147 C149 1.214 . S
O148 Cd144 2.352 . S
O148 C151 1.258 . S
C149 O146 1.320 . S
C149 O147 1.214 . S
O150 Cd142 2.277 . S
O150 C145 1.209 . S
C151 O148 1.258 . S
C151 O153 1.282 . S
O152 Cd144 2.277 . S
O152 C145 1.226 . S
O153 Cd144 2.356 . S
O153 C151 1.282 . S
C154 O155 1.306 . S
C154 O157 1.160 . S
O155 C154 1.306 . S
O155 Cd156 2.228 . S
Cd156 O155 2.228 . S
Cd156 O160 2.273 . S
Cd156 O164 2.277 . S
O157 C154 1.160 . S
O157 Cd158 2.203 . S
Cd158 O157 2.203 . S
Cd158 O160 2.411 . S
Cd158 O161 2.333 . S
Cd158 O162 2.352 . S
Cd158 O166 2.277 . S
Cd158 O167 2.356 . S
C159 O164 1.209 . S
C159 O166 1.226 . S
O160 Cd156 2.273 . S
O160 Cd158 2.411 . S
O160 C163 1.320 . S
O161 Cd158 2.333 . S
O161 C163 1.214 . S
O162 Cd158 2.352 . S
O162 C165 1.258 . S
C163 O160 1.320 . S
C163 O161 1.214 . S
O164 Cd156 2.277 . S
O164 C159 1.209 . S
C165 O162 1.258 . S
C165 O167 1.282 . S
O166 Cd158 2.277 . S
O166 C159 1.226 . S
O167 Cd158 2.356 . S
O167 C165 1.282 . S
C168 O169 1.306 . S
C168 O171 1.160 . S
O169 C168 1.306 . S
O169 Cd170 2.228 . S
Cd170 O169 2.228 . S
Cd170 O174 2.273 . S
Cd170 O178 2.277 1_554 S
O171 C168 1.160 . S
O171 Cd172 2.203 . S
Cd172 O171 2.203 . S
Cd172 O174 2.411 . S
Cd172 O175 2.333 . S
Cd172 O176 2.352 . S
Cd172 O180 2.277 . S
Cd172 O181 2.356 . S
C173 O178 1.209 . S
C173 O180 1.226 1_556 S
O174 Cd170 2.273 . S
O174 Cd172 2.411 . S
O174 C177 1.320 . S
O175 Cd172 2.333 . S
O175 C177 1.214 . S
O176 Cd172 2.352 . S
O176 C179 1.258 . S
C177 O174 1.320 . S
C177 O175 1.214 . S
O178 Cd170 2.277 1_556 S
O178 C173 1.209 . S
C179 O176 1.258 . S
C179 O181 1.282 . S
O180 Cd172 2.277 . S
O180 C173 1.226 1_554 S
O181 Cd172 2.356 . S
O181 C179 1.282 . S
C182 O183 1.306 . S
C182 O185 1.161 1_554 S
O183 C182 1.306 . S
O183 Cd184 2.228 . S
Cd184 O183 2.228 . S
Cd184 O188 2.224 1_554 S
Cd184 O192 2.277 . S
O185 C182 1.161 1_556 S
O185 Cd186 2.203 . S
Cd186 O185 2.203 . S
Cd186 O188 2.422 . S
Cd186 O189 2.333 . S
Cd186 O190 2.352 . S
Cd186 O194 2.277 1_556 S
Cd186 O195 2.356 . S
C187 O192 1.209 . S
C187 O194 1.226 . S
O188 Cd184 2.224 1_556 S
O188 Cd186 2.422 . S
O188 C191 1.325 . S
O189 Cd186 2.333 . S
O189 C191 1.214 . S
O190 Cd186 2.352 . S
O190 C193 1.258 . S
C191 O188 1.325 . S
C191 O189 1.214 . S
O192 Cd184 2.277 . S
O192 C187 1.209 . S
C193 O190 1.258 . S
C193 O195 1.282 . S
O194 Cd186 2.277 1_554 S
O194 C187 1.226 . S
O195 Cd186 2.356 . S
O195 C193 1.282 . S
C196 O197 1.306 . S
C196 O199 1.160 . S
O197 C196 1.306 . S
O197 Cd198 2.228 . S
Cd198 O197 2.228 . S
Cd198 O202 2.273 . S
Cd198 O206 2.277 . S
O199 C196 1.160 . S
O199 Cd200 2.203 . S
Cd200 O199 2.203 . S
Cd200 O202 2.411 . S
Cd200 O203 2.333 . S
Cd200 O204 2.352 . S
Cd200 O208 2.277 . S
Cd200 O209 2.356 . S
C201 O206 1.209 . S
C201 O208 1.226 . S
O202 Cd198 2.273 . S
O202 Cd200 2.411 . S
O202 C205 1.320 . S
O203 Cd200 2.333 . S
O203 C205 1.214 . S
O204 Cd200 2.352 . S
O204 C207 1.258 . S
C205 O202 1.320 . S
C205 O203 1.214 . S
O206 Cd198 2.277 . S
O206 C201 1.209 . S
C207 O204 1.258 . S
C207 O209 1.282 . S
O208 Cd200 2.277 . S
O208 C201 1.226 . S
O209 Cd200 2.356 . S
O209 C207 1.282 . S
C210 O211 1.306 . S
C210 O213 1.160 . S
O211 C210 1.306 . S
O211 Cd212 2.228 . S
Cd212 O211 2.228 . S
Cd212 O216 2.273 . S
Cd212 O220 2.277 . S
O213 C210 1.160 . S
O213 Cd214 2.203 . S
Cd214 O213 2.203 . S
Cd214 O216 2.411 . S
Cd214 O217 2.333 . S
Cd214 O218 2.352 . S
Cd214 O222 2.277 . S
Cd214 O223 2.356 . S
C215 O220 1.209 . S
C215 O222 1.226 . S
O216 Cd212 2.273 . S
O216 Cd214 2.411 . S
O216 C219 1.320 . S
O217 Cd214 2.333 . S
O217 C219 1.214 . S
O218 Cd214 2.352 . S
O218 C221 1.258 . S
C219 O216 1.320 . S
C219 O217 1.214 . S
O220 Cd212 2.277 . S
O220 C215 1.209 . S
C221 O218 1.258 . S
C221 O223 1.282 . S
O222 Cd214 2.277 . S
O222 C215 1.226 . S
O223 Cd214 2.356 . S
O223 C221 1.282 . S
C224 O225 1.306 1_545 S
C224 O227 1.160 . S
O225 C224 1.306 1_565 S
O225 Cd226 2.228 . S
Cd226 O225 2.228 . S
Cd226 O230 2.273 1_565 S
Cd226 O234 2.277 . S
O227 C224 1.160 . S
O227 Cd228 2.203 . S
Cd228 O227 2.203 . S
Cd228 O230 2.411 . S
Cd228 O231 2.333 . S
Cd228 O232 2.352 . S
Cd228 O236 2.277 1_545 S
Cd228 O237 2.356 . S
C229 O234 1.209 . S
C229 O236 1.226 . S
O230 Cd226 2.273 1_545 S
O230 Cd228 2.411 . S
O230 C233 1.320 . S
O231 Cd228 2.333 . S
O231 C233 1.214 . S
O232 Cd228 2.352 . S
O232 C235 1.258 . S
C233 O230 1.320 . S
C233 O231 1.214 . S
O234 Cd226 2.277 . S
O234 C229 1.209 . S
C235 O232 1.258 . S
C235 O237 1.282 . S
O236 Cd228 2.277 1_565 S
O236 C229 1.226 . S
O237 Cd228 2.356 . S
O237 C235 1.282 . S
C238 O239 1.306 . S
C238 O241 1.160 . S
O239 C238 1.306 . S
O239 Cd240 2.228 . S
Cd240 O239 2.228 . S
Cd240 O244 2.273 . S
Cd240 O248 2.277 . S
O241 C238 1.160 . S
O241 Cd242 2.203 . S
Cd242 O241 2.203 . S
Cd242 O244 2.411 . S
Cd242 O245 2.333 . S
Cd242 O246 2.352 . S
Cd242 O250 2.277 . S
Cd242 O251 2.356 . S
C243 O248 1.209 . S
C243 O250 1.226 . S
O244 Cd240 2.273 . S
O244 Cd242 2.411 . S
O244 C247 1.320 . S
O245 Cd242 2.333 . S
O245 C247 1.214 . S
O246 Cd242 2.352 . S
O246 C249 1.258 . S
C247 O244 1.320 . S
C247 O245 1.214 . S
O248 Cd240 2.277 . S
O248 C243 1.209 . S
C249 O246 1.258 . S
C249 O251 1.282 . S
O250 Cd242 2.277 . S
O250 C243 1.226 . S
O251 Cd242 2.356 . S
O251 C249 1.282 . S
C252 O253 1.306 . S
C252 O255 1.160 . S
O253 C252 1.306 . S
O253 Cd254 2.228 . S
Cd254 O253 2.228 . S
Cd254 O258 2.273 . S
Cd254 O262 2.277 . S
O255 C252 1.160 . S
O255 Cd256 2.203 . S
Cd256 O255 2.203 . S
Cd256 O258 2.411 . S
Cd256 O259 2.333 . S
Cd256 O260 2.352 . S
Cd256 O264 2.277 . S
Cd256 O265 2.356 . S
C257 O262 1.209 . S
C257 O264 1.226 . S
O258 Cd254 2.273 . S
O258 Cd256 2.411 . S
O258 C261 1.320 . S
O259 Cd256 2.333 . S
O259 C261 1.214 . S
O260 Cd256 2.352 . S
O260 C263 1.258 . S
C261 O258 1.320 . S
C261 O259 1.214 . S
O262 Cd254 2.277 . S
O262 C257 1.209 . S
C263 O260 1.258 . S
C263 O265 1.282 . S
O264 Cd256 2.277 . S
O264 C257 1.226 . S
O265 Cd256 2.356 . S
O265 C263 1.282 . S
C266 O267 1.306 . S
C266 O269 1.141 1_545 S
O267 C266 1.306 . S
O267 Cd268 2.228 . S
Cd268 O267 2.228 . S
Cd268 O272 2.273 1_545 S
Cd268 O276 2.277 . S
O269 C266 1.141 1_565 S
O269 Cd270 2.205 . S
Cd270 O269 2.205 . S
Cd270 O272 2.411 . S
Cd270 O273 2.333 . S
Cd270 O274 2.352 . S
Cd270 O278 2.277 1_565 S
Cd270 O279 2.356 . S
C271 O276 1.209 . S
C271 O278 1.226 . S
O272 Cd268 2.273 1_565 S
O272 Cd270 2.411 . S
O272 C275 1.320 . S
O273 Cd270 2.333 . S
O273 C275 1.214 . S
O274 Cd270 2.352 . S
O274 C277 1.258 . S
C275 O272 1.320 . S
C275 O273 1.214 . S
O276 Cd268 2.277 . S
O276 C271 1.209 . S
C277 O274 1.258 . S
C277 O279 1.282 . S
O278 Cd270 2.277 1_545 S
O278 C271 1.226 . S
O279 Cd270 2.356 . S
O279 C277 1.282 . S
C280 O281 1.306 . S
C280 O283 1.160 . S
O281 C280 1.306 . S
O281 Cd282 2.228 . S
Cd282 O281 2.228 . S
Cd282 O286 2.273 . S
Cd282 O290 2.277 . S
O283 C280 1.160 . S
O283 Cd284 2.203 . S
Cd284 O283 2.203 . S
Cd284 O286 2.411 . S
Cd284 O287 2.333 . S
Cd284 O288 2.352 1_554 S
Cd284 O292 2.277 . S
Cd284 O293 2.356 1_554 S
C285 O290 1.209 . S
C285 O292 1.226 . S
O286 Cd282 2.273 . S
O286 Cd284 2.411 . S
O286 C289 1.320 . S
O287 Cd284 2.333 . S
O287 C289 1.214 . S
O288 Cd284 2.352 1_556 S
O288 C291 1.258 . S
C289 O286 1.320 . S
C289 O287 1.214 . S
O290 Cd282 2.277 . S
O290 C285 1.209 . S
C291 O288 1.258 . S
C291 O293 1.282 . S
O292 Cd284 2.277 . S
O292 C285 1.226 . S
O293 Cd284 2.356 1_556 S
O293 C291 1.282 . S
C294 O295 1.306 . S
C294 O297 1.160 . S
O295 C294 1.306 . S
O295 Cd296 2.228 . S
Cd296 O295 2.228 . S
Cd296 O300 2.273 . S
Cd296 O304 2.277 . S
O297 C294 1.160 . S
O297 Cd298 2.203 . S
Cd298 O297 2.203 . S
Cd298 O300 2.411 . S
Cd298 O301 2.333 . S
Cd298 O302 2.352 . S
Cd298 O306 2.277 . S
Cd298 O307 2.356 . S
C299 O304 1.209 . S
C299 O306 1.226 . S
O300 Cd296 2.273 . S
O300 Cd298 2.411 . S
O300 C303 1.320 . S
O301 Cd298 2.333 . S
O301 C303 1.214 . S
O302 Cd298 2.352 . S
O302 C305 1.258 . S
C303 O300 1.320 . S
C303 O301 1.214 . S
O304 Cd296 2.277 . S
O304 C299 1.209 . S
C305 O302 1.258 . S
C305 O307 1.282 . S
O306 Cd298 2.277 . S
O306 C299 1.226 . S
O307 Cd298 2.356 . S
O307 C305 1.282 . S
C308 O309 1.306 . S
C308 O311 1.160 . S
O309 C308 1.306 . S
O309 Cd310 2.228 . S
Cd310 O309 2.228 . S
Cd310 O314 2.273 . S
Cd310 O318 2.277 . S
O311 C308 1.160 . S
O311 Cd312 2.203 . S
Cd312 O311 2.203 . S
Cd312 O314 2.411 . S
Cd312 O315 2.333 . S
Cd312 O316 2.352 . S
Cd312 O320 2.277 . S
Cd312 O321 2.356 . S
C313 O318 1.209 . S
C313 O320 1.226 . S
O314 Cd310 2.273 . S
O314 Cd312 2.411 . S
O314 C317 1.320 . S
O315 Cd312 2.333 . S
O315 C317 1.214 . S
O316 Cd312 2.352 . S
O316 C319 1.258 . S
C317 O314 1.320 . S
C317 O315 1.214 . S
O318 Cd310 2.277 . S
O318 C313 1.209 . S
C319 O316 1.258 . S
C319 O321 1.282 . S
O320 Cd312 2.277 . S
O320 C313 1.226 . S
O321 Cd312 2.356 . S
O321 C319 1.282 . S
C322 O323 1.306 . S
C322 O325 1.160 . S
O323 C322 1.306 . S
O323 Cd324 2.228 . S
Cd324 O323 2.228 . S
Cd324 O328 2.273 . S
Cd324 O332 2.277 . S
O325 C322 1.160 . S
O325 Cd326 2.203 . S
Cd326 O325 2.203 . S
Cd326 O328 2.411 . S
Cd326 O329 2.333 . S
Cd326 O330 2.352 . S
Cd326 O334 2.277 . S
Cd326 O335 2.356 . S
C327 O332 1.209 . S
C327 O334 1.226 . S
O328 Cd324 2.273 . S
O328 Cd326 2.411 . S
O328 C331 1.320 . S
O329 Cd326 2.333 . S
O329 C331 1.214 . S
O330 Cd326 2.352 . S
O330 C333 1.258 . S
C331 O328 1.320 . S
C331 O329 1.214 . S
O332 Cd324 2.277 . S
O332 C327 1.209 . S
C333 O330 1.258 . S
C333 O335 1.282 . S
O334 Cd326 2.277 . S
O334 C327 1.226 . S
O335 Cd326 2.356 . S
O335 C333 1.282 . S
Tb336 C346 2.825 1_455 S
Tb336 O347 2.347 . S
Tb336 O350 2.366 . S
Tb336 O355 2.418 1_554 S
Tb336 O356 2.384 1_545 S
Tb336 O359 2.479 1_454 S
Tb336 O360 2.471 1_455 S
Eu337 O348 2.418 . S
Eu337 O349 2.384 . S
Eu337 O352 2.479 . S
Eu337 O353 2.471 . S
Eu337 O354 2.347 . S
Eu337 O357 2.366 . S
Eu337 C367 2.825 . S
C338 O354 1.259 1_556 S
C338 O355 1.265 . S
C339 O356 1.255 . S
C339 O357 1.265 1_565 S
C340 C342 1.380 . S
C340 C343 1.374 1_556 S
C340 C346 1.507 1_556 S
C341 C342 1.384 . S
C341 C345 1.387 . S
C341 H368 0.930 . S
C342 C340 1.380 . S
C342 C341 1.384 . S
C342 H369 0.931 . S
C343 C340 1.374 1_554 S
C343 C344 1.390 . S
C343 H370 0.930 . S
C344 C343 1.390 . S
C344 C345 1.391 1_554 S
C344 H371 0.930 . S
C345 C341 1.387 . S
C345 C344 1.391 1_556 S
C346 Tb336 2.825 1_655 S
C346 C340 1.507 1_554 S
C346 O359 1.238 1_554 S
C346 O360 1.247 . S
O347 Tb336 2.347 . S
O347 C351 1.259 . S
O348 Eu337 2.418 . S
O348 C351 1.265 . S
O349 Eu337 2.384 . S
O349 C358 1.255 . S
O350 Tb336 2.366 . S
O350 C358 1.265 . S
C351 O347 1.259 . S
C351 O348 1.265 . S
O352 Eu337 2.479 . S
O352 C367 1.238 . S
O353 Eu337 2.471 . S
O353 C367 1.247 . S
O354 Eu337 2.347 . S
O354 C338 1.259 1_554 S
O355 Tb336 2.418 1_556 S
O355 C338 1.265 . S
O356 Tb336 2.384 1_565 S
O356 C339 1.255 . S
O357 Eu337 2.366 . S
O357 C339 1.265 1_545 S
C358 O349 1.255 . S
C358 O350 1.265 . S
O359 Tb336 2.479 1_656 S
O359 C346 1.238 1_556 S
O360 Tb336 2.471 1_655 S
O360 C346 1.247 . S
C361 C364 1.380 . S
C361 C365 1.374 1_545 S
C361 C367 1.507 . S
C362 C363 1.387 1_565 S
C362 C366 1.391 . S
C363 C362 1.387 1_545 S
C363 C364 1.384 . S
C363 H372 0.930 . S
C364 C361 1.380 . S
C364 C363 1.384 . S
C364 H373 0.931 . S
C365 C361 1.374 1_565 S
C365 C366 1.390 . S
C365 H374 0.930 . S
C366 C362 1.391 . S
C366 C365 1.390 . S
C366 H375 0.930 . S
C367 Eu337 2.825 . S
C367 O352 1.238 . S
C367 O353 1.247 . S
C367 C361 1.507 . S
H368 C341 0.930 . S
H369 C342 0.931 . S
H370 C343 0.930 . S
H371 C344 0.930 . S
H372 C363 0.930 . S
H373 C364 0.931 . S
H374 C365 0.930 . S
H375 C366 0.930 . S
Tb376 C386 2.825 . S
Tb376 O387 2.347 . S
Tb376 O390 2.366 . S
Tb376 O395 2.418 . S
Tb376 O396 2.384 . S
Tb376 O399 2.479 . S
Tb376 O400 2.471 . S
Eu377 O388 2.418 . S
Eu377 O389 2.384 . S
Eu377 O392 2.479 . S
Eu377 O393 2.471 . S
Eu377 O394 2.347 . S
Eu377 O397 2.366 . S
Eu377 C407 2.825 . S
C378 O394 1.259 . S
C378 O395 1.265 . S
C379 O396 1.255 . S
C379 O397 1.265 . S
C380 C382 1.380 . S
C380 C383 1.374 . S
C380 C386 1.507 . S
C381 C382 1.384 . S
C381 C385 1.387 . S
C381 H408 0.930 . S
C382 C380 1.380 . S
C382 C381 1.384 . S
C382 H409 0.931 . S
C383 C380 1.374 . S
C383 C384 1.390 . S
C383 H410 0.930 . S
C384 C383 1.390 . S
C384 C385 1.391 . S
C384 H411 0.930 . S
C385 C381 1.387 . S
C385 C384 1.391 . S
C386 Tb376 2.825 . S
C386 C380 1.507 . S
C386 O399 1.238 . S
C386 O400 1.247 . S
O387 Tb376 2.347 . S
O387 C391 1.259 . S
O388 Eu377 2.418 . S
O388 C391 1.265 . S
O389 Eu377 2.384 . S
O389 C398 1.255 . S
O390 Tb376 2.366 . S
O390 C398 1.265 . S
C391 O387 1.259 . S
C391 O388 1.265 . S
O392 Eu377 2.479 . S
O392 C407 1.238 . S
O393 Eu377 2.471 . S
O393 C407 1.247 . S
O394 Eu377 2.347 . S
O394 C378 1.259 . S
O395 Tb376 2.418 . S
O395 C378 1.265 . S
O396 Tb376 2.384 . S
O396 C379 1.255 . S
O397 Eu377 2.366 . S
O397 C379 1.265 . S
C398 O389 1.255 . S
C398 O390 1.265 . S
O399 Tb376 2.479 . S
O399 C386 1.238 . S
O400 Tb376 2.471 . S
O400 C386 1.247 . S
C401 C404 1.380 . S
C401 C405 1.374 . S
C401 C407 1.507 . S
C402 C403 1.387 . S
C402 C406 1.391 . S
C403 C402 1.387 . S
C403 C404 1.384 . S
C403 H412 0.930 . S
C404 C401 1.380 . S
C404 C403 1.384 . S
C404 H413 0.931 . S
C405 C401 1.374 . S
C405 C406 1.390 . S
C405 H414 0.930 . S
C406 C402 1.391 . S
C406 C405 1.390 . S
C406 H415 0.930 . S
C407 Eu377 2.825 . S
C407 O392 1.238 . S
C407 O393 1.247 . S
C407 C401 1.507 . S
H408 C381 0.930 . S
H409 C382 0.931 . S
H410 C383 0.930 . S
H411 C384 0.930 . S
H412 C403 0.930 . S
H413 C404 0.931 . S
H414 C405 0.930 . S
H415 C406 0.930 . S
Tb416 C426 2.825 . S
Tb416 O427 2.347 1_565 S
Tb416 O430 2.366 . S
Tb416 O435 2.418 . S
Tb416 O436 2.384 1_565 S
Tb416 O439 2.479 . S
Tb416 O440 2.471 . S
Eu417 O428 2.418 . S
Eu417 O429 2.384 . S
Eu417 O432 2.479 . S
Eu417 O433 2.471 . S
Eu417 O434 2.347 . S
Eu417 O437 2.366 . S
Eu417 C447 2.825 . S
C418 O434 1.259 . S
C418 O435 1.265 1_545 S
C419 O436 1.255 . S
C419 O437 1.265 . S
C420 C422 1.380 . S
C420 C423 1.374 . S
C420 C426 1.507 . S
C421 C422 1.384 . S
C421 C425 1.387 . S
C421 H448 0.930 . S
C422 C420 1.380 . S
C422 C421 1.384 . S
C422 H449 0.931 . S
C423 C420 1.374 . S
C423 C424 1.390 . S
C423 H450 0.930 . S
C424 C423 1.390 . S
C424 C425 1.391 . S
C424 H451 0.930 . S
C425 C421 1.387 . S
C425 C424 1.391 . S
C426 Tb416 2.825 . S
C426 C420 1.507 . S
C426 O439 1.238 . S
C426 O440 1.247 . S
O427 Tb416 2.347 1_545 S
O427 C431 1.259 . S
O428 Eu417 2.418 . S
O428 C431 1.265 . S
O429 Eu417 2.384 . S
O429 C438 1.255 . S
O430 Tb416 2.366 . S
O430 C438 1.265 1_565 S
C431 O427 1.259 . S
C431 O428 1.265 . S
O432 Eu417 2.479 . S
O432 C447 1.238 . S
O433 Eu417 2.471 . S
O433 C447 1.247 . S
O434 Eu417 2.347 . S
O434 C418 1.259 . S
O435 Tb416 2.418 . S
O435 C418 1.265 1_565 S
O436 Tb416 2.384 1_545 S
O436 C419 1.255 . S
O437 Eu417 2.366 . S
O437 C419 1.265 . S
C438 O429 1.255 . S
C438 O430 1.265 1_545 S
O439 Tb416 2.479 . S
O439 C426 1.238 . S
O440 Tb416 2.471 . S
O440 C426 1.247 . S
C441 C444 1.380 . S
C441 C445 1.374 . S
C441 C447 1.507 . S
C442 C443 1.387 . S
C442 C446 1.391 . S
C443 C442 1.387 . S
C443 C444 1.384 . S
C443 H452 0.930 . S
C444 C441 1.380 . S
C444 C443 1.384 . S
C444 H453 0.931 . S
C445 C441 1.374 . S
C445 C446 1.390 . S
C445 H454 0.930 . S
C446 C442 1.391 . S
C446 C445 1.390 . S
C446 H455 0.930 . S
C447 Eu417 2.825 . S
C447 O432 1.238 . S
C447 O433 1.247 . S
C447 C441 1.507 . S
H448 C421 0.930 . S
H449 C422 0.931 . S
H450 C423 0.930 . S
H451 C424 0.930 . S
H452 C443 0.930 . S
H453 C444 0.931 . S
H454 C445 0.930 . S
H455 C446 0.930 . S
Tb456 C466 2.825 . S
Tb456 O467 2.347 . S
Tb456 O470 2.366 . S
Tb456 O475 2.418 . S
Tb456 O476 2.384 . S
Tb456 O479 2.479 . S
Tb456 O480 2.471 . S
Eu457 O468 2.418 . S
Eu457 O469 2.384 . S
Eu457 O472 2.479 . S
Eu457 O473 2.471 . S
Eu457 O474 2.347 . S
Eu457 O477 2.366 . S
Eu457 C487 2.825 . S
C458 O474 1.259 . S
C458 O475 1.265 . S
C459 O476 1.255 . S
C459 O477 1.265 . S
C460 C462 1.380 . S
C460 C463 1.374 . S
C460 C466 1.507 . S
C461 C462 1.384 . S
C461 C465 1.387 . S
C461 H488 0.930 . S
C462 C460 1.380 . S
C462 C461 1.384 . S
C462 H489 0.931 . S
C463 C460 1.374 . S
C463 C464 1.390 . S
C463 H490 0.930 . S
C464 C463 1.390 . S
C464 C465 1.391 . S
C464 H491 0.930 . S
C465 C461 1.387 . S
C465 C464 1.391 . S
C466 Tb456 2.825 . S
C466 C460 1.507 . S
C466 O479 1.238 . S
C466 O480 1.247 . S
O467 Tb456 2.347 . S
O467 C471 1.259 . S
O468 Eu457 2.418 . S
O468 C471 1.265 . S
O469 Eu457 2.384 . S
O469 C478 1.255 . S
O470 Tb456 2.366 . S
O470 C478 1.265 . S
C471 O467 1.259 . S
C471 O468 1.265 . S
O472 Eu457 2.479 . S
O472 C487 1.238 . S
O473 Eu457 2.471 . S
O473 C487 1.247 . S
O474 Eu457 2.347 . S
O474 C458 1.259 . S
O475 Tb456 2.418 . S
O475 C458 1.265 . S
O476 Tb456 2.384 . S
O476 C459 1.255 . S
O477 Eu457 2.366 . S
O477 C459 1.265 . S
C478 O469 1.255 . S
C478 O470 1.265 . S
O479 Tb456 2.479 . S
O479 C466 1.238 . S
O480 Tb456 2.471 . S
O480 C466 1.247 . S
C481 C484 1.380 . S
C481 C485 1.374 . S
C481 C487 1.507 . S
C482 C483 1.387 . S
C482 C486 1.391 . S
C483 C482 1.387 . S
C483 C484 1.384 . S
C483 H492 0.930 . S
C484 C481 1.380 . S
C484 C483 1.384 . S
C484 H493 0.931 . S
C485 C481 1.374 . S
C485 C486 1.390 . S
C485 H494 0.930 . S
C486 C482 1.391 . S
C486 C485 1.390 . S
C486 H495 0.930 . S
C487 Eu457 2.825 . S
C487 O472 1.238 . S
C487 O473 1.247 . S
C487 C481 1.507 . S
H488 C461 0.930 . S
H489 C462 0.931 . S
H490 C463 0.930 . S
H491 C464 0.930 . S
H492 C483 0.930 . S
H493 C484 0.931 . S
H494 C485 0.930 . S
H495 C486 0.930 . S
Tb496 C506 2.825 . S
Tb496 O507 2.347 . S
Tb496 O510 2.366 . S
Tb496 O515 2.418 . S
Tb496 O516 2.384 1_545 S
Tb496 O519 2.479 . S
Tb496 O520 2.471 . S
Eu497 O508 2.418 . S
Eu497 O509 2.384 . S
Eu497 O512 2.479 . S
Eu497 O513 2.471 . S
Eu497 O514 2.347 . S
Eu497 O517 2.366 . S
Eu497 C527 2.825 . S
C498 O514 1.259 . S
C498 O515 1.265 . S
C499 O516 1.255 . S
C499 O517 1.265 1_565 S
C500 C502 1.380 . S
C500 C503 1.315 1_455 S
C500 C506 1.507 . S
C501 C502 1.384 . S
C501 C505 1.387 . S
C501 H528 0.930 . S
C502 C500 1.380 . S
C502 C501 1.384 . S
C502 H529 0.931 . S
C503 C500 1.315 1_655 S
C503 C504 1.411 . S
C503 H530 0.971 . S
C504 C503 1.411 . S
C504 C505 1.391 1_655 S
C504 H531 0.930 . S
C505 C501 1.387 . S
C505 C504 1.391 1_455 S
C506 Tb496 2.825 . S
C506 C500 1.507 . S
C506 O519 1.238 . S
C506 O520 1.247 . S
O507 Tb496 2.347 . S
O507 C511 1.259 . S
O508 Eu497 2.418 . S
O508 C511 1.265 . S
O509 Eu497 2.384 . S
O509 C518 1.255 . S
O510 Tb496 2.366 . S
O510 C518 1.265 . S
C511 O507 1.259 . S
C511 O508 1.265 . S
O512 Eu497 2.479 . S
O512 C527 1.238 . S
O513 Eu497 2.471 . S
O513 C527 1.247 . S
O514 Eu497 2.347 . S
O514 C498 1.259 . S
O515 Tb496 2.418 . S
O515 C498 1.265 . S
O516 Tb496 2.384 1_565 S
O516 C499 1.255 . S
O517 Eu497 2.366 . S
O517 C499 1.265 1_545 S
C518 O509 1.255 . S
C518 O510 1.265 . S
O519 Tb496 2.479 . S
O519 C506 1.238 . S
O520 Tb496 2.471 . S
O520 C506 1.247 . S
C521 C524 1.380 . S
C521 C525 1.374 . S
C521 C527 1.507 . S
C522 C523 1.387 . S
C522 C526 1.391 . S
C523 C522 1.387 . S
C523 C524 1.384 . S
C523 H532 0.930 . S
C524 C521 1.380 . S
C524 C523 1.384 . S
C524 H533 0.931 . S
C525 C521 1.374 . S
C525 C526 1.390 . S
C525 H534 0.930 . S
C526 C522 1.391 . S
C526 C525 1.390 . S
C526 H535 0.930 . S
C527 Eu497 2.825 . S
C527 O512 1.238 . S
C527 O513 1.247 . S
C527 C521 1.507 . S
H528 C501 0.930 . S
H529 C502 0.931 . S
H530 C503 0.971 . S
H531 C504 0.930 . S
H532 C523 0.930 . S
H533 C524 0.931 . S
H534 C525 0.930 . S
H535 C526 0.930 . S
Tb536 C546 2.825 . S
Tb536 O547 2.347 . S
Tb536 O550 2.366 . S
Tb536 O555 2.418 . S
Tb536 O556 2.384 . S
Tb536 O559 2.479 . S
Tb536 O560 2.471 . S
Eu537 O548 2.418 . S
Eu537 O549 2.384 . S
Eu537 O552 2.479 . S
Eu537 O553 2.471 . S
Eu537 O554 2.347 . S
Eu537 O557 2.366 . S
Eu537 C567 2.825 . S
C538 O554 1.259 . S
C538 O555 1.265 . S
C539 O556 1.255 . S
C539 O557 1.265 . S
C540 C542 1.380 . S
C540 C543 1.374 . S
C540 C546 1.507 . S
C541 C542 1.384 . S
C541 C545 1.387 . S
C541 H568 0.930 . S
C542 C540 1.380 . S
C542 C541 1.384 . S
C542 H569 0.931 . S
C543 C540 1.374 . S
C543 C544 1.390 . S
C543 H570 0.930 . S
C544 C543 1.390 . S
C544 C545 1.391 . S
C544 H571 0.930 . S
C545 C541 1.387 . S
C545 C544 1.391 . S
C546 Tb536 2.825 . S
C546 C540 1.507 . S
C546 O559 1.238 . S
C546 O560 1.247 . S
O547 Tb536 2.347 . S
O547 C551 1.259 . S
O548 Eu537 2.418 . S
O548 C551 1.265 . S
O549 Eu537 2.384 . S
O549 C558 1.255 . S
O550 Tb536 2.366 . S
O550 C558 1.265 . S
C551 O547 1.259 . S
C551 O548 1.265 . S
O552 Eu537 2.479 . S
O552 C567 1.238 . S
O553 Eu537 2.471 . S
O553 C567 1.247 . S
O554 Eu537 2.347 . S
O554 C538 1.259 . S
O555 Tb536 2.418 . S
O555 C538 1.265 . S
O556 Tb536 2.384 . S
O556 C539 1.255 . S
O557 Eu537 2.366 . S
O557 C539 1.265 . S
C558 O549 1.255 . S
C558 O550 1.265 . S
O559 Tb536 2.479 . S
O559 C546 1.238 . S
O560 Tb536 2.471 . S
O560 C546 1.247 . S
C561 C564 1.380 . S
C561 C565 1.374 . S
C561 C567 1.507 . S
C562 C563 1.387 . S
C562 C566 1.391 . S
C563 C562 1.387 . S
C563 C564 1.384 . S
C563 H572 0.930 . S
C564 C561 1.380 . S
C564 C563 1.384 . S
C564 H573 0.931 . S
C565 C561 1.374 . S
C565 C566 1.390 . S
C565 H574 0.930 . S
C566 C562 1.391 . S
C566 C565 1.390 . S
C566 H575 0.930 . S
C567 Eu537 2.825 . S
C567 O552 1.238 . S
C567 O553 1.247 . S
C567 C561 1.507 . S
H568 C541 0.930 . S
H569 C542 0.931 . S
H570 C543 0.930 . S
H571 C544 0.930 . S
H572 C563 0.930 . S
H573 C564 0.931 . S
H574 C565 0.930 . S
H575 C566 0.930 . S
Tb576 C586 2.825 . S
Tb576 O587 2.347 . S
Tb576 O590 2.366 . S
Tb576 O595 2.418 1_545 S
Tb576 O596 2.384 . S
Tb576 O599 2.497 . S
Tb576 O600 2.471 . S
Eu577 O588 2.418 1_556 S
Eu577 O589 2.384 1_556 S
Eu577 O592 2.479 . S
Eu577 O593 2.471 . S
Eu577 O594 2.347 1_556 S
Eu577 O597 2.366 1_556 S
Eu577 C607 2.825 . S
C578 O594 1.259 1_565 S
C578 O595 1.265 . S
C579 O596 1.255 . S
C579 O597 1.265 . S
C580 C582 1.380 1_545 S
C580 C583 1.374 . S
C580 C586 1.507 . S
C581 C582 1.384 . S
C581 C585 1.387 1_565 S
C581 H608 0.930 . S
C582 C580 1.380 1_565 S
C582 C581 1.384 . S
C582 H609 0.931 . S
C583 C580 1.374 . S
C583 C584 1.390 . S
C583 H610 0.930 . S
C584 C583 1.390 . S
C584 C585 1.391 . S
C584 H611 0.930 . S
C585 C581 1.387 1_545 S
C585 C584 1.391 . S
C586 Tb576 2.825 . S
C586 C580 1.507 . S
C586 O599 1.263 . S
C586 O600 1.247 . S
O587 Tb576 2.347 . S
O587 C591 1.259 . S
O588 Eu577 2.418 1_554 S
O588 C591 1.265 . S
O589 Eu577 2.384 1_554 S
O589 C598 1.255 . S
O590 Tb576 2.366 . S
O590 C598 1.265 . S
C591 O587 1.259 . S
C591 O588 1.265 . S
O592 Eu577 2.479 . S
O592 C607 1.238 . S
O593 Eu577 2.471 . S
O593 C607 1.247 . S
O594 Eu577 2.347 1_554 S
O594 C578 1.259 1_545 S
O595 Tb576 2.418 1_565 S
O595 C578 1.265 . S
O596 Tb576 2.384 . S
O596 C579 1.255 . S
O597 Eu577 2.366 1_554 S
O597 C579 1.265 . S
C598 O589 1.255 . S
C598 O590 1.265 . S
O599 Tb576 2.497 . S
O599 C586 1.263 . S
O600 Tb576 2.471 . S
O600 C586 1.247 . S
C601 C604 1.380 . S
C601 C605 1.374 . S
C601 C607 1.507 . S
C602 C603 1.387 . S
C602 C606 1.391 . S
C603 C602 1.387 . S
C603 C604 1.384 . S
C603 H612 0.930 . S
C604 C601 1.380 . S
C604 C603 1.384 . S
C604 H613 0.931 . S
C605 C601 1.374 . S
C605 C606 1.390 . S
C605 H614 0.930 . S
C606 C602 1.391 . S
C606 C605 1.390 . S
C606 H615 0.930 . S
C607 Eu577 2.825 . S
C607 O592 1.238 . S
C607 O593 1.247 . S
C607 C601 1.507 . S
H608 C581 0.930 . S
H609 C582 0.931 . S
H610 C583 0.930 . S
H611 C584 0.930 . S
H612 C603 0.930 . S
H613 C604 0.931 . S
H614 C605 0.930 . S
H615 C606 0.930 . S
Tb616 C626 2.825 . S
Tb616 O627 2.347 . S
Tb616 O630 2.366 . S
Tb616 O635 2.418 . S
Tb616 O636 2.384 . S
Tb616 O639 2.479 . S
Tb616 O640 2.471 . S
Eu617 O628 2.418 . S
Eu617 O629 2.384 . S
Eu617 O632 2.479 . S
Eu617 O633 2.471 . S
Eu617 O634 2.347 . S
Eu617 O637 2.366 . S
Eu617 C647 2.825 . S
C618 O634 1.259 . S
C618 O635 1.265 . S
C619 O636 1.255 . S
C619 O637 1.265 . S
C620 C622 1.380 . S
C620 C623 1.374 . S
C620 C626 1.507 . S
C621 C622 1.384 . S
C621 C625 1.387 . S
C621 H648 0.930 . S
C622 C620 1.380 . S
C622 C621 1.384 . S
C622 H649 0.931 . S
C623 C620 1.374 . S
C623 C624 1.390 . S
C623 H650 0.930 . S
C624 C623 1.390 . S
C624 C625 1.391 . S
C624 H651 0.930 . S
C625 C621 1.387 . S
C625 C624 1.391 . S
C626 Tb616 2.825 . S
C626 C620 1.507 . S
C626 O639 1.238 . S
C626 O640 1.247 . S
O627 Tb616 2.347 . S
O627 C631 1.259 . S
O628 Eu617 2.418 . S
O628 C631 1.265 . S
O629 Eu617 2.384 . S
O629 C638 1.255 . S
O630 Tb616 2.366 . S
O630 C638 1.265 . S
C631 O627 1.259 . S
C631 O628 1.265 . S
O632 Eu617 2.479 . S
O632 C647 1.238 . S
O633 Eu617 2.471 . S
O633 C647 1.247 . S
O634 Eu617 2.347 . S
O634 C618 1.259 . S
O635 Tb616 2.418 . S
O635 C618 1.265 . S
O636 Tb616 2.384 . S
O636 C619 1.255 . S
O637 Eu617 2.366 . S
O637 C619 1.265 . S
C638 O629 1.255 . S
C638 O630 1.265 . S
O639 Tb616 2.479 . S
O639 C626 1.238 . S
O640 Tb616 2.471 . S
O640 C626 1.247 . S
C641 C644 1.380 . S
C641 C645 1.374 . S
C641 C647 1.507 . S
C642 C643 1.387 . S
C642 C646 1.391 . S
C643 C642 1.387 . S
C643 C644 1.384 . S
C643 H652 0.930 . S
C644 C641 1.380 . S
C644 C643 1.384 . S
C644 H653 0.931 . S
C645 C641 1.374 . S
C645 C646 1.390 . S
C645 H654 0.930 . S
C646 C642 1.391 . S
C646 C645 1.390 . S
C646 H655 0.930 . S
C647 Eu617 2.825 . S
C647 O632 1.238 . S
C647 O633 1.247 . S
C647 C641 1.507 . S
H648 C621 0.930 . S
H649 C622 0.931 . S
H650 C623 0.930 . S
H651 C624 0.930 . S
H652 C643 0.930 . S
H653 C644 0.931 . S
H654 C645 0.930 . S
H655 C646 0.930 . S
Tb656 C666 2.871 . S
Tb656 O667 2.313 1_556 S
Tb656 O670 2.373 . S
Tb656 O675 2.421 1_556 S
Tb656 O676 2.346 1_556 S
Tb656 O679 2.528 . S
Tb656 O680 2.504 . S
Eu657 O668 2.418 . S
Eu657 O669 2.384 . S
Eu657 O672 2.479 . S
Eu657 O673 2.471 . S
Eu657 O674 2.347 . S
Eu657 O677 2.366 . S
Eu657 C687 2.825 . S
C658 O674 1.259 . S
C658 O675 1.265 . S
C659 O676 1.255 . S
C659 O677 1.265 . S
C660 C662 1.380 . S
C660 C663 1.374 . S
C660 C666 1.507 . S
C661 C662 1.384 . S
C661 C665 1.387 . S
C661 H688 0.930 . S
C662 C660 1.380 . S
C662 C661 1.384 . S
C662 H689 0.931 . S
C663 C660 1.374 . S
C663 C664 1.390 . S
C663 H690 0.930 . S
C664 C663 1.390 . S
C664 C665 1.391 . S
C664 H691 0.930 . S
C665 C661 1.387 . S
C665 C664 1.391 . S
C666 Tb656 2.871 . S
C666 C660 1.507 . S
C666 O679 1.238 . S
C666 O680 1.247 . S
O667 Tb656 2.313 1_554 S
O667 C671 1.259 . S
O668 Eu657 2.418 . S
O668 C671 1.265 . S
O669 Eu657 2.384 . S
O669 C678 1.255 . S
O670 Tb656 2.373 . S
O670 C678 1.265 1_556 S
C671 O667 1.259 . S
C671 O668 1.265 . S
O672 Eu657 2.479 . S
O672 C687 1.238 . S
O673 Eu657 2.471 . S
O673 C687 1.247 . S
O674 Eu657 2.347 . S
O674 C658 1.259 . S
O675 Tb656 2.421 1_554 S
O675 C658 1.265 . S
O676 Tb656 2.346 1_554 S
O676 C659 1.255 . S
O677 Eu657 2.366 . S
O677 C659 1.265 . S
C678 O669 1.255 . S
C678 O670 1.265 1_554 S
O679 Tb656 2.528 . S
O679 C666 1.238 . S
O680 Tb656 2.504 . S
O680 C666 1.247 . S
C681 C684 1.380 . S
C681 C685 1.374 . S
C681 C687 1.507 . S
C682 C683 1.387 . S
C682 C686 1.391 . S
C683 C682 1.387 . S
C683 C684 1.384 . S
C683 H692 0.930 . S
C684 C681 1.380 . S
C684 C683 1.384 . S
C684 H693 0.931 . S
C685 C681 1.374 . S
C685 C686 1.390 . S
C685 H694 0.930 . S
C686 C682 1.391 . S
C686 C685 1.390 . S
C686 H695 0.930 . S
C687 Eu657 2.825 . S
C687 O672 1.238 . S
C687 O673 1.247 . S
C687 C681 1.507 . S
H688 C661 0.930 . S
H689 C662 0.931 . S
H690 C663 0.930 . S
H691 C664 0.930 . S
H692 C683 0.930 . S
H693 C684 0.931 . S
H694 C685 0.930 . S
H695 C686 0.930 . S
Tb696 C706 2.825 . S
Tb696 O707 2.347 . S
Tb696 O710 2.366 . S
Tb696 O715 2.418 . S
Tb696 O716 2.384 . S
Tb696 O719 2.479 . S
Tb696 O720 2.471 . S
Eu697 O708 2.418 . S
Eu697 O709 2.384 . S
Eu697 O712 2.479 . S
Eu697 O713 2.471 . S
Eu697 O714 2.347 . S
Eu697 O717 2.366 . S
Eu697 C727 2.825 . S
C698 O714 1.259 . S
C698 O715 1.265 . S
C699 O716 1.255 . S
C699 O717 1.265 . S
C700 C702 1.380 . S
C700 C703 1.374 . S
C700 C706 1.507 . S
C701 C702 1.384 . S
C701 C705 1.387 . S
C701 H728 0.930 . S
C702 C700 1.380 . S
C702 C701 1.384 . S
C702 H729 0.931 . S
C703 C700 1.374 . S
C703 C704 1.390 . S
C703 H730 0.930 . S
C704 C703 1.390 . S
C704 C705 1.391 . S
C704 H731 0.930 . S
C705 C701 1.387 . S
C705 C704 1.391 . S
C706 Tb696 2.825 . S
C706 C700 1.507 . S
C706 O719 1.238 . S
C706 O720 1.247 . S
O707 Tb696 2.347 . S
O707 C711 1.259 . S
O708 Eu697 2.418 . S
O708 C711 1.265 . S
O709 Eu697 2.384 . S
O709 C718 1.255 . S
O710 Tb696 2.366 . S
O710 C718 1.265 . S
C711 O707 1.259 . S
C711 O708 1.265 . S
O712 Eu697 2.479 . S
O712 C727 1.238 . S
O713 Eu697 2.471 . S
O713 C727 1.247 . S
O714 Eu697 2.347 . S
O714 C698 1.259 . S
O715 Tb696 2.418 . S
O715 C698 1.265 . S
O716 Tb696 2.384 . S
O716 C699 1.255 . S
O717 Eu697 2.366 . S
O717 C699 1.265 . S
C718 O709 1.255 . S
C718 O710 1.265 . S
O719 Tb696 2.479 . S
O719 C706 1.238 . S
O720 Tb696 2.471 . S
O720 C706 1.247 . S
C721 C724 1.380 . S
C721 C725 1.374 . S
C721 C727 1.507 . S
C722 C723 1.387 . S
C722 C726 1.391 . S
C723 C722 1.387 . S
C723 C724 1.384 . S
C723 H732 0.930 . S
C724 C721 1.380 . S
C724 C723 1.384 . S
C724 H733 0.931 . S
C725 C721 1.374 . S
C725 C726 1.390 . S
C725 H734 0.930 . S
C726 C722 1.391 . S
C726 C725 1.390 . S
C726 H735 0.930 . S
C727 Eu697 2.825 . S
C727 O712 1.238 . S
C727 O713 1.247 . S
C727 C721 1.507 . S
H728 C701 0.930 . S
H729 C702 0.931 . S
H730 C703 0.930 . S
H731 C704 0.930 . S
H732 C723 0.930 . S
H733 C724 0.931 . S
H734 C725 0.930 . S
H735 C726 0.930 . S
Tb736 C746 2.825 . S
Tb736 O747 2.347 . S
Tb736 O750 2.366 . S
Tb736 O755 2.418 . S
Tb736 O756 2.384 . S
Tb736 O759 2.479 . S
Tb736 O760 2.471 . S
Eu737 O748 2.418 . S
Eu737 O749 2.384 . S
Eu737 O752 2.479 . S
Eu737 O753 2.471 . S
Eu737 O754 2.347 . S
Eu737 O757 2.366 . S
Eu737 C767 2.825 . S
C738 O754 1.259 . S
C738 O755 1.265 . S
C739 O756 1.255 . S
C739 O757 1.265 . S
C740 C742 1.380 . S
C740 C743 1.374 . S
C740 C746 1.507 . S
C741 C742 1.384 . S
C741 C745 1.387 . S
C741 H768 0.930 . S
C742 C740 1.380 . S
C742 C741 1.384 . S
C742 H769 0.931 . S
C743 C740 1.374 . S
C743 C744 1.390 . S
C743 H770 0.930 . S
C744 C743 1.390 . S
C744 C745 1.391 . S
C744 H771 0.930 1_455 S
C745 C741 1.387 . S
C745 C744 1.391 . S
C746 Tb736 2.825 . S
C746 C740 1.507 . S
C746 O759 1.238 . S
C746 O760 1.247 . S
O747 Tb736 2.347 . S
O747 C751 1.259 . S
O748 Eu737 2.418 . S
O748 C751 1.265 . S
O749 Eu737 2.384 . S
O749 C758 1.255 . S
O750 Tb736 2.366 . S
O750 C758 1.265 . S
C751 O747 1.259 . S
C751 O748 1.265 . S
O752 Eu737 2.479 . S
O752 C767 1.238 . S
O753 Eu737 2.471 . S
O753 C767 1.247 . S
O754 Eu737 2.347 . S
O754 C738 1.259 . S
O755 Tb736 2.418 . S
O755 C738 1.265 . S
O756 Tb736 2.384 . S
O756 C739 1.255 . S
O757 Eu737 2.366 . S
O757 C739 1.265 . S
C758 O749 1.255 . S
C758 O750 1.265 . S
O759 Tb736 2.479 . S
O759 C746 1.238 . S
O760 Tb736 2.471 . S
O760 C746 1.247 . S
C761 C764 1.380 . S
C761 C765 1.374 . S
C761 C767 1.507 . S
C762 C763 1.387 . S
C762 C766 1.391 . S
C763 C762 1.387 . S
C763 C764 1.384 . S
C763 H772 0.930 . S
C764 C761 1.380 . S
C764 C763 1.384 . S
C764 H773 0.931 . S
C765 C761 1.374 . S
C765 C766 1.390 . S
C765 H774 0.930 . S
C766 C762 1.391 . S
C766 C765 1.390 . S
C766 H775 0.930 . S
C767 Eu737 2.825 . S
C767 O752 1.238 . S
C767 O753 1.247 . S
C767 C761 1.507 . S
H768 C741 0.930 . S
H769 C742 0.931 . S
H770 C743 0.930 . S
H771 C744 0.930 1_655 S
H772 C763 0.930 . S
H773 C764 0.931 . S
H774 C765 0.930 . S
H775 C766 0.930 . S
Tb776 C786 2.825 . S
Tb776 O787 2.347 . S
Tb776 O790 2.366 . S
Tb776 O795 2.418 . S
Tb776 O796 2.384 . S
Tb776 O799 2.479 . S
Tb776 O800 2.471 . S
Eu777 O788 2.418 . S
Eu777 O789 2.384 . S
Eu777 O792 2.479 . S
Eu777 O793 2.471 . S
Eu777 O794 2.347 . S
Eu777 O797 2.366 . S
Eu777 C807 2.825 . S
C778 O794 1.259 . S
C778 O795 1.265 . S
C779 O796 1.255 . S
C779 O797 1.265 . S
C780 C782 1.380 . S
C780 C783 1.374 . S
C780 C786 1.507 . S
C781 C782 1.384 . S
C781 C785 1.387 . S
C781 H808 0.930 . S
C782 C780 1.380 . S
C782 C781 1.384 . S
C782 H809 0.931 . S
C783 C780 1.374 . S
C783 C784 1.390 . S
C783 H810 0.930 . S
C784 C783 1.390 . S
C784 C785 1.391 . S
C784 H811 0.930 . S
C785 C781 1.387 . S
C785 C784 1.391 . S
C786 Tb776 2.825 . S
C786 C780 1.507 . S
C786 O799 1.238 . S
C786 O800 1.247 . S
O787 Tb776 2.347 . S
O787 C791 1.259 . S
O788 Eu777 2.418 . S
O788 C791 1.265 . S
O789 Eu777 2.384 . S
O789 C798 1.255 . S
O790 Tb776 2.366 . S
O790 C798 1.265 . S
C791 O787 1.259 . S
C791 O788 1.265 . S
O792 Eu777 2.479 . S
O792 C807 1.238 . S
O793 Eu777 2.471 . S
O793 C807 1.247 . S
O794 Eu777 2.347 . S
O794 C778 1.259 . S
O795 Tb776 2.418 . S
O795 C778 1.265 . S
O796 Tb776 2.384 . S
O796 C779 1.255 . S
O797 Eu777 2.366 . S
O797 C779 1.265 . S
C798 O789 1.255 . S
C798 O790 1.265 . S
O799 Tb776 2.479 . S
O799 C786 1.238 . S
O800 Tb776 2.471 . S
O800 C786 1.247 . S
C801 C804 1.380 . S
C801 C805 1.374 . S
C801 C807 1.507 . S
C802 C803 1.387 . S
C802 C806 1.391 . S
C803 C802 1.387 . S
C803 C804 1.384 . S
C803 H812 0.930 . S
C804 C801 1.380 . S
C804 C803 1.384 . S
C804 H813 0.931 . S
C805 C801 1.374 . S
C805 C806 1.390 . S
C805 H814 0.930 . S
C806 C802 1.391 . S
C806 C805 1.390 . S
C806 H815 0.930 . S
C807 Eu777 2.825 . S
C807 O792 1.238 . S
C807 O793 1.247 . S
C807 C801 1.507 . S
H808 C781 0.930 . S
H809 C782 0.931 . S
H810 C783 0.930 . S
H811 C784 0.930 . S
H812 C803 0.930 . S
H813 C804 0.931 . S
H814 C805 0.930 . S
H815 C806 0.930 . S
Tb816 C826 2.825 . S
Tb816 O827 2.347 . S
Tb816 O830 2.366 . S
Tb816 O835 2.418 . S
Tb816 O836 2.384 . S
Tb816 O839 2.479 . S
Tb816 O840 2.471 . S
Eu817 O828 2.418 . S
Eu817 O829 2.384 . S
Eu817 O832 2.479 . S
Eu817 O833 2.471 . S
Eu817 O834 2.347 . S
Eu817 O837 2.366 . S
Eu817 C847 2.825 . S
C818 O834 1.259 . S
C818 O835 1.265 . S
C819 O836 1.255 . S
C819 O837 1.265 . S
C820 C822 1.380 . S
C820 C823 1.374 . S
C820 C826 1.507 . S
C821 C822 1.384 . S
C821 C825 1.387 . S
C821 H848 0.930 . S
C822 C820 1.380 . S
C822 C821 1.384 . S
C822 H849 0.931 . S
C823 C820 1.374 . S
C823 C824 1.390 . S
C823 H850 0.930 . S
C824 C823 1.390 . S
C824 C825 1.391 . S
C824 H851 0.930 . S
C825 C821 1.387 . S
C825 C824 1.391 . S
C826 Tb816 2.825 . S
C826 C820 1.507 . S
C826 O839 1.238 . S
C826 O840 1.247 . S
O827 Tb816 2.347 . S
O827 C831 1.259 . S
O828 Eu817 2.418 . S
O828 C831 1.265 . S
O829 Eu817 2.384 . S
O829 C838 1.255 . S
O830 Tb816 2.366 . S
O830 C838 1.265 . S
C831 O827 1.259 . S
C831 O828 1.265 . S
O832 Eu817 2.479 . S
O832 C847 1.238 . S
O833 Eu817 2.471 . S
O833 C847 1.247 . S
O834 Eu817 2.347 . S
O834 C818 1.259 . S
O835 Tb816 2.418 . S
O835 C818 1.265 . S
O836 Tb816 2.384 . S
O836 C819 1.255 . S
O837 Eu817 2.366 . S
O837 C819 1.265 . S
C838 O829 1.255 . S
C838 O830 1.265 . S
O839 Tb816 2.479 . S
O839 C826 1.238 . S
O840 Tb816 2.471 . S
O840 C826 1.247 . S
C841 C844 1.380 . S
C841 C845 1.374 . S
C841 C847 1.507 . S
C842 C843 1.387 . S
C842 C846 1.391 . S
C843 C842 1.387 . S
C843 C844 1.384 . S
C843 H852 0.930 . S
C844 C841 1.380 . S
C844 C843 1.384 . S
C844 H853 0.931 . S
C845 C841 1.374 . S
C845 C846 1.390 . S
C845 H854 0.930 . S
C846 C842 1.391 . S
C846 C845 1.390 . S
C846 H855 0.930 . S
C847 Eu817 2.825 . S
C847 O832 1.238 . S
C847 O833 1.247 . S
C847 C841 1.507 . S
H848 C821 0.930 . S
H849 C822 0.931 . S
H850 C823 0.930 . S
H851 C824 0.930 . S
H852 C843 0.930 . S
H853 C844 0.931 . S
H854 C845 0.930 . S
H855 C846 0.930 . S
Tb856 C866 2.825 . S
Tb856 O867 2.347 . S
Tb856 O870 2.366 . S
Tb856 O875 2.418 . S
Tb856 O876 2.384 . S
Tb856 O879 2.479 . S
Tb856 O880 2.471 . S
Eu857 O868 2.418 . S
Eu857 O869 2.384 . S
Eu857 O872 2.479 . S
Eu857 O873 2.471 . S
Eu857 O874 2.347 . S
Eu857 O877 2.366 . S
Eu857 C887 2.825 . S
C858 O874 1.259 . S
C858 O875 1.265 . S
C859 O876 1.255 . S
C859 O877 1.265 . S
C860 C862 1.380 . S
C860 C863 1.374 . S
C860 C866 1.507 . S
C861 C862 1.384 . S
C861 C865 1.387 . S
C861 H888 0.930 . S
C862 C860 1.380 . S
C862 C861 1.384 . S
C862 H889 0.931 . S
C863 C860 1.374 . S
C863 C864 1.390 . S
C863 H890 0.930 . S
C864 C863 1.390 . S
C864 C865 1.391 . S
C864 H891 0.930 . S
C865 C861 1.387 . S
C865 C864 1.391 . S
C866 Tb856 2.825 . S
C866 C860 1.507 . S
C866 O879 1.238 . S
C866 O880 1.247 . S
O867 Tb856 2.347 . S
O867 C871 1.259 . S
O868 Eu857 2.418 . S
O868 C871 1.265 . S
O869 Eu857 2.384 . S
O869 C878 1.255 . S
O870 Tb856 2.366 . S
O870 C878 1.265 . S
C871 O867 1.259 . S
C871 O868 1.265 . S
O872 Eu857 2.479 . S
O872 C887 1.238 . S
O873 Eu857 2.471 . S
O873 C887 1.247 . S
O874 Eu857 2.347 . S
O874 C858 1.259 . S
O875 Tb856 2.418 . S
O875 C858 1.265 . S
O876 Tb856 2.384 . S
O876 C859 1.255 . S
O877 Eu857 2.366 . S
O877 C859 1.265 . S
C878 O869 1.255 . S
C878 O870 1.265 . S
O879 Tb856 2.479 . S
O879 C866 1.238 . S
O880 Tb856 2.471 . S
O880 C866 1.247 . S
C881 C884 1.380 . S
C881 C885 1.374 . S
C881 C887 1.507 . S
C882 C883 1.387 . S
C882 C886 1.391 . S
C883 C882 1.387 . S
C883 C884 1.384 . S
C883 H892 0.930 . S
C884 C881 1.380 . S
C884 C883 1.384 . S
C884 H893 0.931 . S
C885 C881 1.374 . S
C885 C886 1.390 . S
C885 H894 0.930 . S
C886 C882 1.391 . S
C886 C885 1.390 . S
C886 H895 0.930 . S
C887 Eu857 2.825 . S
C887 O872 1.238 . S
C887 O873 1.247 . S
C887 C881 1.507 . S
H888 C861 0.930 . S
H889 C862 0.931 . S
H890 C863 0.930 . S
H891 C864 0.930 . S
H892 C883 0.930 . S
H893 C884 0.931 . S
H894 C885 0.930 . S
H895 C886 0.930 . S
Tb896 C906 2.825 . S
Tb896 O907 2.347 . S
Tb896 O910 2.366 . S
Tb896 O915 2.418 . S
Tb896 O916 2.384 . S
Tb896 O919 2.479 . S
Tb896 O920 2.471 . S
Eu897 O908 2.418 . S
Eu897 O909 2.384 . S
Eu897 O912 2.479 . S
Eu897 O913 2.471 . S
Eu897 O914 2.347 . S
Eu897 O917 2.366 . S
Eu897 C927 2.825 . S
C898 O914 1.259 . S
C898 O915 1.265 . S
C899 O916 1.255 . S
C899 O917 1.265 . S
C900 C902 1.380 . S
C900 C903 1.374 . S
C900 C906 1.507 . S
C901 C902 1.384 . S
C901 C905 1.387 . S
C901 H928 0.930 . S
C902 C900 1.380 . S
C902 C901 1.384 . S
C902 H929 0.931 . S
C903 C900 1.374 . S
C903 C904 1.390 . S
C903 H930 0.930 . S
C904 C903 1.390 . S
C904 C905 1.391 . S
C904 H931 0.930 . S
C905 C901 1.387 . S
C905 C904 1.391 . S
C906 Tb896 2.825 . S
C906 C900 1.507 . S
C906 O919 1.238 . S
C906 O920 1.247 . S
O907 Tb896 2.347 . S
O907 C911 1.259 . S
O908 Eu897 2.418 . S
O908 C911 1.265 . S
O909 Eu897 2.384 . S
O909 C918 1.255 . S
O910 Tb896 2.366 . S
O910 C918 1.265 . S
C911 O907 1.259 . S
C911 O908 1.265 . S
O912 Eu897 2.479 . S
O912 C927 1.238 . S
O913 Eu897 2.471 . S
O913 C927 1.247 . S
O914 Eu897 2.347 . S
O914 C898 1.259 . S
O915 Tb896 2.418 . S
O915 C898 1.265 . S
O916 Tb896 2.384 . S
O916 C899 1.255 . S
O917 Eu897 2.366 . S
O917 C899 1.265 . S
C918 O909 1.255 . S
C918 O910 1.265 . S
O919 Tb896 2.479 . S
O919 C906 1.238 . S
O920 Tb896 2.471 . S
O920 C906 1.247 . S
C921 C924 1.380 . S
C921 C925 1.374 . S
C921 C927 1.507 . S
C922 C923 1.387 . S
C922 C926 1.391 . S
C923 C922 1.387 . S
C923 C924 1.384 . S
C923 H932 0.930 . S
C924 C921 1.380 . S
C924 C923 1.384 . S
C924 H933 0.931 . S
C925 C921 1.374 . S
C925 C926 1.390 . S
C925 H934 0.930 . S
C926 C922 1.391 . S
C926 C925 1.390 . S
C926 H935 0.930 . S
C927 Eu897 2.825 . S
C927 O912 1.238 . S
C927 O913 1.247 . S
C927 C921 1.507 . S
H928 C901 0.930 . S
H929 C902 0.931 . S
H930 C903 0.930 . S
H931 C904 0.930 . S
H932 C923 0.930 . S
H933 C924 0.931 . S
H934 C925 0.930 . S
H935 C926 0.930 . S
Tb936 C946 2.825 . S
Tb936 O947 2.347 . S
Tb936 O950 2.366 . S
Tb936 O955 2.418 . S
Tb936 O956 2.384 . S
Tb936 O959 2.479 . S
Tb936 O960 2.471 1_554 S
Eu937 O948 2.418 1_554 S
Eu937 O949 2.384 . S
Eu937 O952 2.479 . S
Eu937 O953 2.471 . S
Eu937 O954 2.347 . S
Eu937 O957 2.366 . S
Eu937 C967 2.825 . S
C938 O954 1.259 . S
C938 O955 1.265 . S
C939 O956 1.255 . S
C939 O957 1.265 . S
C940 C942 1.380 . S
C940 C943 1.374 1_554 S
C940 C946 1.507 . S
C941 C942 1.384 . S
C941 C945 1.387 1_554 S
C941 H968 0.930 . S
C942 C940 1.380 . S
C942 C941 1.384 . S
C942 H969 0.931 . S
C943 C940 1.374 1_556 S
C943 C944 1.390 . S
C943 H970 0.930 . S
C944 C943 1.390 . S
C944 C945 1.391 . S
C944 H971 0.930 . S
C945 C941 1.387 1_556 S
C945 C944 1.391 . S
C946 Tb936 2.825 . S
C946 C940 1.507 . S
C946 O959 1.238 . S
C946 O960 1.247 1_554 S
O947 Tb936 2.347 . S
O947 C951 1.259 1_554 S
O948 Eu937 2.418 1_556 S
O948 C951 1.265 . S
O949 Eu937 2.384 . S
O949 C958 1.255 . S
O950 Tb936 2.366 . S
O950 C958 1.265 . S
C951 O947 1.259 1_556 S
C951 O948 1.265 . S
O952 Eu937 2.479 . S
O952 C967 1.238 . S
O953 Eu937 2.471 . S
O953 C967 1.247 . S
O954 Eu937 2.347 . S
O954 C938 1.259 . S
O955 Tb936 2.418 . S
O955 C938 1.265 . S
O956 Tb936 2.384 . S
O956 C939 1.255 . S
O957 Eu937 2.366 . S
O957 C939 1.265 . S
C958 O949 1.255 . S
C958 O950 1.265 . S
O959 Tb936 2.479 . S
O959 C946 1.238 . S
O960 Tb936 2.471 1_556 S
O960 C946 1.247 1_556 S
C961 C964 1.380 . S
C961 C965 1.374 . S
C961 C967 1.507 . S
C962 C963 1.387 . S
C962 C966 1.391 . S
C963 C962 1.387 . S
C963 C964 1.384 . S
C963 H972 0.930 . S
C964 C961 1.380 . S
C964 C963 1.384 . S
C964 H973 0.931 . S
C965 C961 1.374 . S
C965 C966 1.390 . S
C965 H974 0.930 . S
C966 C962 1.391 . S
C966 C965 1.390 . S
C966 H975 0.930 . S
C967 Eu937 2.825 . S
C967 O952 1.238 . S
C967 O953 1.247 . S
C967 C961 1.507 . S
H968 C941 0.930 . S
H969 C942 0.931 . S
H970 C943 0.930 . S
H971 C944 0.930 . S
H972 C963 0.930 . S
H973 C964 0.931 . S
H974 C965 0.930 . S
H975 C966 0.930 . S
C976 C977 1.349 . S
C976 C978 1.327 . S
C976 H1001 0.950 . S
C977 C976 1.349 . S
C977 C993 1.349 1_455 S
C978 C976 1.327 . S
C978 C997 1.429 . S
C978 H1002 0.950 . S
C979 C996 1.574 . S
C979 C998 1.368 . S
C979 H1003 0.949 . S
H980 C984 0.949 . S
C981 C982 1.349 . S
C981 C983 1.327 . S
C981 H1004 0.950 . S
C982 C981 1.349 . S
C982 C994 1.349 1_554 S
C983 C981 1.327 . S
C983 C999 1.429 1_554 S
C983 H1005 0.950 . S
C984 H980 0.949 . S
C984 C992 1.574 . S
C984 C1000 1.368 . S
H985 C993 0.950 . S
H986 C991 0.950 1_655 S
H987 C992 0.949 . S
H988 C994 0.950 . S
H989 C995 0.950 . S
H990 C996 0.949 . S
C991 H986 0.950 1_455 S
C991 C993 1.327 1_455 S
C991 C997 1.429 . S
C992 C984 1.574 . S
C992 H987 0.949 . S
C992 C998 1.368 . S
C993 C977 1.349 1_655 S
C993 H985 0.950 . S
C993 C991 1.327 1_655 S
C994 C982 1.349 1_556 S
C994 H988 0.950 . S
C994 C995 1.327 . S
C995 H989 0.950 . S
C995 C994 1.327 . S
C995 C999 1.429 . S
C996 C979 1.574 . S
C996 H990 0.949 . S
C996 C1000 1.368 . S
C997 C978 1.429 . S
C997 C991 1.429 . S
C997 C998 1.523 . S
C998 C979 1.368 . S
C998 C992 1.368 . S
C998 C997 1.523 . S
C999 C983 1.429 1_556 S
C999 C995 1.429 . S
C999 C1000 1.523 . S
C1000 C984 1.368 . S
C1000 C996 1.368 . S
C1000 C999 1.523 . S
H1001 C976 0.950 . S
H1002 C978 0.950 . S
H1003 C979 0.949 . S
H1004 C981 0.950 . S
H1005 C983 0.950 . S
C1006 C1007 1.349 . S
C1006 C1008 1.327 . S
C1006 H1031 0.950 . S
C1007 C1006 1.349 . S
C1007 C1023 1.349 . S
C1008 C1006 1.327 . S
C1008 C1027 1.429 . S
C1008 H1032 0.950 . S
C1009 C1026 1.574 . S
C1009 C1028 1.368 . S
C1009 H1033 0.949 . S
H1010 C1014 0.949 . S
C1011 C1012 1.349 . S
C1011 C1013 1.327 . S
C1011 H1034 0.950 . S
C1012 C1011 1.349 . S
C1012 C1024 1.349 . S
C1013 C1011 1.327 . S
C1013 C1029 1.429 . S
C1013 H1035 0.950 . S
C1014 H1010 0.949 . S
C1014 C1022 1.574 . S
C1014 C1030 1.368 . S
H1015 C1023 0.950 . S
H1016 C1021 0.950 . S
H1017 C1022 0.949 . S
H1018 C1024 0.950 . S
H1019 C1025 0.950 . S
H1020 C1026 0.949 . S
C1021 H1016 0.950 . S
C1021 C1023 1.327 . S
C1021 C1027 1.429 . S
C1022 C1014 1.574 . S
C1022 H1017 0.949 . S
C1022 C1028 1.368 . S
C1023 C1007 1.349 . S
C1023 H1015 0.950 . S
C1023 C1021 1.327 . S
C1024 C1012 1.349 . S
C1024 H1018 0.950 . S
C1024 C1025 1.327 . S
C1025 H1019 0.950 . S
C1025 C1024 1.327 . S
C1025 C1029 1.429 . S
C1026 C1009 1.574 . S
C1026 H1020 0.949 . S
C1026 C1030 1.368 . S
C1027 C1008 1.429 . S
C1027 C1021 1.429 . S
C1027 C1028 1.523 . S
C1028 C1009 1.368 . S
C1028 C1022 1.368 . S
C1028 C1027 1.523 . S
C1029 C1013 1.429 . S
C1029 C1025 1.429 . S
C1029 C1030 1.523 . S
C1030 C1014 1.368 . S
C1030 C1026 1.368 . S
C1030 C1029 1.523 . S
H1031 C1006 0.950 . S
H1032 C1008 0.950 . S
H1033 C1009 0.949 . S
H1034 C1011 0.950 . S
H1035 C1013 0.950 . S
C1036 C1037 1.349 . S
C1036 C1038 1.327 . S
C1036 H1061 0.950 . S
C1037 C1036 1.349 . S
C1037 C1053 1.349 . S
C1038 C1036 1.327 . S
C1038 C1057 1.429 . S
C1038 H1062 0.950 . S
C1039 C1056 1.574 . S
C1039 C1058 1.368 . S
C1039 H1063 0.949 . S
H1040 C1044 0.949 . S
C1041 C1042 1.349 . S
C1041 C1043 1.327 . S
C1041 H1064 0.950 . S
C1042 C1041 1.349 . S
C1042 C1054 1.349 . S
C1043 C1041 1.327 . S
C1043 C1059 1.429 . S
C1043 H1065 0.950 . S
C1044 H1040 0.949 . S
C1044 C1052 1.574 . S
C1044 C1060 1.368 . S
H1045 C1053 0.950 . S
H1046 C1051 0.950 . S
H1047 C1052 0.949 . S
H1048 C1054 0.950 . S
H1049 C1055 0.950 . S
H1050 C1056 0.949 . S
C1051 H1046 0.950 . S
C1051 C1053 1.327 . S
C1051 C1057 1.429 . S
C1052 C1044 1.574 . S
C1052 H1047 0.949 . S
C1052 C1058 1.368 . S
C1053 C1037 1.349 . S
C1053 H1045 0.950 . S
C1053 C1051 1.327 . S
C1054 C1042 1.349 . S
C1054 H1048 0.950 . S
C1054 C1055 1.327 . S
C1055 H1049 0.950 . S
C1055 C1054 1.327 . S
C1055 C1059 1.429 . S
C1056 C1039 1.574 . S
C1056 H1050 0.949 . S
C1056 C1060 1.368 . S
C1057 C1038 1.429 . S
C1057 C1051 1.429 . S
C1057 C1058 1.523 . S
C1058 C1039 1.368 . S
C1058 C1052 1.368 . S
C1058 C1057 1.523 . S
C1059 C1043 1.429 . S
C1059 C1055 1.429 . S
C1059 C1060 1.523 . S
C1060 C1044 1.368 . S
C1060 C1056 1.368 . S
C1060 C1059 1.523 . S
H1061 C1036 0.950 . S
H1062 C1038 0.950 . S
H1063 C1039 0.949 . S
H1064 C1041 0.950 . S
H1065 C1043 0.950 . S
C1066 C1067 1.349 . S
C1066 C1068 1.327 . S
C1066 H1091 0.950 . S
C1067 C1066 1.349 . S
C1067 C1083 1.349 . S
C1068 C1066 1.327 . S
C1068 C1087 1.429 . S
C1068 H1092 0.950 . S
C1069 C1086 1.574 . S
C1069 C1088 1.368 . S
C1069 H1093 0.949 . S
H1070 C1074 0.949 . S
C1071 C1072 1.349 . S
C1071 C1073 1.327 . S
C1071 H1094 0.950 . S
C1072 C1071 1.349 . S
C1072 C1084 1.349 . S
C1073 C1071 1.327 . S
C1073 C1089 1.429 . S
C1073 H1095 0.950 . S
C1074 H1070 0.949 . S
C1074 C1082 1.574 . S
C1074 C1090 1.368 . S
H1075 C1083 0.950 . S
H1076 C1081 0.950 . S
H1077 C1082 0.949 . S
H1078 C1084 0.950 . S
H1079 C1085 0.950 . S
H1080 C1086 0.949 . S
C1081 H1076 0.950 . S
C1081 C1083 1.327 . S
C1081 C1087 1.429 . S
C1082 C1074 1.574 . S
C1082 H1077 0.949 . S
C1082 C1088 1.368 . S
C1083 C1067 1.349 . S
C1083 H1075 0.950 . S
C1083 C1081 1.327 . S
C1084 C1072 1.349 . S
C1084 H1078 0.950 . S
C1084 C1085 1.327 . S
C1085 H1079 0.950 . S
C1085 C1084 1.327 . S
C1085 C1089 1.429 . S
C1086 C1069 1.574 . S
C1086 H1080 0.949 . S
C1086 C1090 1.368 . S
C1087 C1068 1.429 . S
C1087 C1081 1.429 . S
C1087 C1088 1.523 . S
C1088 C1069 1.368 . S
C1088 C1082 1.368 . S
C1088 C1087 1.523 . S
C1089 C1073 1.429 . S
C1089 C1085 1.429 . S
C1089 C1090 1.523 . S
C1090 C1074 1.368 . S
C1090 C1086 1.368 . S
C1090 C1089 1.523 . S
H1091 C1066 0.950 . S
H1092 C1068 0.950 . S
H1093 C1069 0.949 . S
H1094 C1071 0.950 . S
H1095 C1073 0.950 . S
C1096 C1097 1.349 . S
C1096 C1098 1.327 . S
C1096 H1121 0.950 . S
C1097 C1096 1.349 . S
C1097 C1113 1.349 . S
C1098 C1096 1.327 . S
C1098 C1117 1.429 . S
C1098 H1122 0.950 . S
C1099 C1116 1.574 . S
C1099 C1118 1.368 . S
C1099 H1123 0.949 . S
H1100 C1104 0.949 . S
C1101 C1102 1.349 . S
C1101 C1103 1.327 . S
C1101 H1124 0.950 . S
C1102 C1101 1.349 . S
C1102 C1114 1.349 . S
C1103 C1101 1.327 . S
C1103 C1119 1.429 . S
C1103 H1125 0.950 . S
C1104 H1100 0.949 . S
C1104 C1112 1.574 . S
C1104 C1120 1.368 . S
H1105 C1113 0.950 . S
H1106 C1111 0.950 . S
H1107 C1112 0.949 . S
H1108 C1114 0.950 . S
H1109 C1115 0.950 . S
H1110 C1116 0.949 . S
C1111 H1106 0.950 . S
C1111 C1113 1.327 . S
C1111 C1117 1.429 . S
C1112 C1104 1.574 . S
C1112 H1107 0.949 . S
C1112 C1118 1.368 . S
C1113 C1097 1.349 . S
C1113 H1105 0.950 . S
C1113 C1111 1.327 . S
C1114 C1102 1.349 . S
C1114 H1108 0.950 . S
C1114 C1115 1.327 . S
C1115 H1109 0.950 . S
C1115 C1114 1.327 . S
C1115 C1119 1.429 . S
C1116 C1099 1.574 . S
C1116 H1110 0.949 . S
C1116 C1120 1.368 . S
C1117 C1098 1.429 . S
C1117 C1111 1.429 . S
C1117 C1118 1.523 . S
C1118 C1099 1.368 . S
C1118 C1112 1.368 . S
C1118 C1117 1.523 . S
C1119 C1103 1.429 . S
C1119 C1115 1.429 . S
C1119 C1120 1.523 . S
C1120 C1104 1.368 . S
C1120 C1116 1.368 . S
C1120 C1119 1.523 . S
H1121 C1096 0.950 . S
H1122 C1098 0.950 . S
H1123 C1099 0.949 . S
H1124 C1101 0.950 . S
H1125 C1103 0.950 . S
C1126 C1127 1.349 . S
C1126 C1128 1.327 . S
C1126 H1151 0.950 . S
C1127 C1126 1.349 . S
C1127 C1143 1.349 . S
C1128 C1126 1.327 . S
C1128 C1147 1.429 . S
C1128 H1152 0.950 . S
C1129 C1146 1.574 . S
C1129 C1148 1.368 . S
C1129 H1153 0.949 . S
H1130 C1134 0.949 . S
C1131 C1132 1.349 . S
C1131 C1133 1.327 . S
C1131 H1154 0.950 . S
C1132 C1131 1.349 . S
C1132 C1144 1.349 . S
C1133 C1131 1.327 . S
C1133 C1149 1.429 . S
C1133 H1155 0.950 . S
C1134 H1130 0.949 . S
C1134 C1142 1.574 . S
C1134 C1150 1.368 . S
H1135 C1143 0.950 . S
H1136 C1141 0.950 . S
H1137 C1142 0.949 . S
H1138 C1144 0.950 . S
H1139 C1145 0.950 . S
H1140 C1146 0.949 . S
C1141 H1136 0.950 . S
C1141 C1143 1.327 . S
C1141 C1147 1.429 . S
C1142 C1134 1.574 . S
C1142 H1137 0.949 . S
C1142 C1148 1.368 . S
C1143 C1127 1.349 . S
C1143 H1135 0.950 . S
C1143 C1141 1.327 . S
C1144 C1132 1.349 . S
C1144 H1138 0.950 . S
C1144 C1145 1.327 . S
C1145 H1139 0.950 . S
C1145 C1144 1.327 . S
C1145 C1149 1.429 . S
C1146 C1129 1.574 . S
C1146 H1140 0.949 . S
C1146 C1150 1.368 . S
C1147 C1128 1.429 . S
C1147 C1141 1.429 . S
C1147 C1148 1.523 . S
C1148 C1129 1.368 . S
C1148 C1142 1.368 . S
C1148 C1147 1.523 . S
C1149 C1133 1.429 . S
C1149 C1145 1.429 . S
C1149 C1150 1.523 . S
C1150 C1134 1.368 . S
C1150 C1146 1.368 . S
C1150 C1149 1.523 . S
H1151 C1126 0.950 . S
H1152 C1128 0.950 . S
H1153 C1129 0.949 . S
H1154 C1131 0.950 . S
H1155 C1133 0.950 . S
C1156 C1157 1.349 . S
C1156 C1158 1.327 . S
C1156 H1181 0.950 . S
C1157 C1156 1.349 . S
C1157 C1173 1.349 . S
C1158 C1156 1.327 . S
C1158 C1177 1.429 . S
C1158 H1182 0.950 . S
C1159 C1176 1.574 . S
C1159 C1178 1.368 . S
C1159 H1183 0.949 . S
H1160 C1164 0.949 . S
C1161 C1162 1.349 . S
C1161 C1163 1.327 . S
C1161 H1184 0.950 . S
C1162 C1161 1.349 . S
C1162 C1174 1.349 . S
C1163 C1161 1.327 . S
C1163 C1179 1.429 . S
C1163 H1185 0.950 . S
C1164 H1160 0.949 . S
C1164 C1172 1.574 . S
C1164 C1180 1.368 . S
H1165 C1173 0.950 . S
H1166 C1171 0.950 . S
H1167 C1172 0.949 . S
H1168 C1174 0.950 . S
H1169 C1175 0.950 . S
H1170 C1176 0.949 . S
C1171 H1166 0.950 . S
C1171 C1173 1.327 . S
C1171 C1177 1.429 . S
C1172 C1164 1.574 . S
C1172 H1167 0.949 . S
C1172 C1178 1.368 . S
C1173 C1157 1.349 . S
C1173 H1165 0.950 . S
C1173 C1171 1.327 . S
C1174 C1162 1.349 . S
C1174 H1168 0.950 . S
C1174 C1175 1.327 . S
C1175 H1169 0.950 . S
C1175 C1174 1.327 . S
C1175 C1179 1.429 . S
C1176 C1159 1.574 . S
C1176 H1170 0.949 . S
C1176 C1180 1.368 . S
C1177 C1158 1.429 . S
C1177 C1171 1.429 . S
C1177 C1178 1.523 . S
C1178 C1159 1.368 . S
C1178 C1172 1.368 . S
C1178 C1177 1.523 . S
C1179 C1163 1.429 . S
C1179 C1175 1.429 . S
C1179 C1180 1.523 . S
C1180 C1164 1.368 . S
C1180 C1176 1.368 . S
C1180 C1179 1.523 . S
H1181 C1156 0.950 . S
H1182 C1158 0.950 . S
H1183 C1159 0.949 . S
H1184 C1161 0.950 . S
H1185 C1163 0.950 . S
C1186 C1187 1.349 . S
C1186 C1188 1.327 . S
C1186 H1211 0.950 . S
C1187 C1186 1.349 . S
C1187 C1203 1.349 . S
C1188 C1186 1.327 . S
C1188 C1207 1.429 . S
C1188 H1212 0.950 . S
C1189 C1206 1.574 . S
C1189 C1208 1.368 . S
C1189 H1213 0.949 . S
H1190 C1194 0.949 . S
C1191 C1192 1.349 . S
C1191 C1193 1.327 . S
C1191 H1214 0.950 . S
C1192 C1191 1.349 . S
C1192 C1204 1.349 . S
C1193 C1191 1.327 . S
C1193 C1209 1.429 . S
C1193 H1215 0.950 . S
C1194 H1190 0.949 . S
C1194 C1202 1.574 . S
C1194 C1210 1.368 . S
H1195 C1203 0.950 . S
H1196 C1201 0.950 . S
H1197 C1202 0.949 . S
H1198 C1204 0.950 . S
H1199 C1205 0.950 . S
H1200 C1206 0.949 . S
C1201 H1196 0.950 . S
C1201 C1203 1.327 . S
C1201 C1207 1.429 . S
C1202 C1194 1.574 . S
C1202 H1197 0.949 . S
C1202 C1208 1.368 . S
C1203 C1187 1.349 . S
C1203 H1195 0.950 . S
C1203 C1201 1.327 . S
C1204 C1192 1.349 . S
C1204 H1198 0.950 . S
C1204 C1205 1.327 . S
C1205 H1199 0.950 . S
C1205 C1204 1.327 . S
C1205 C1209 1.429 . S
C1206 C1189 1.574 . S
C1206 H1200 0.949 . S
C1206 C1210 1.368 . S
C1207 C1188 1.429 . S
C1207 C1201 1.429 . S
C1207 C1208 1.523 . S
C1208 C1189 1.368 . S
C1208 C1202 1.368 . S
C1208 C1207 1.523 . S
C1209 C1193 1.429 . S
C1209 C1205 1.429 . S
C1209 C1210 1.523 . S
C1210 C1194 1.368 . S
C1210 C1206 1.368 . S
C1210 C1209 1.523 . S
H1211 C1186 0.950 . S
H1212 C1188 0.950 . S
H1213 C1189 0.949 . S
H1214 C1191 0.950 . S
H1215 C1193 0.950 . S
C1216 C1217 1.349 . S
C1216 C1218 1.327 . S
C1216 H1241 0.950 . S
C1217 C1216 1.349 . S
C1217 C1233 1.349 1_545 S
C1218 C1216 1.327 . S
C1218 C1237 1.429 . S
C1218 H1242 0.950 . S
C1219 C1236 1.570 1_565 S
C1219 C1238 1.335 1_565 S
C1219 H1243 0.985 . S
H1220 C1224 0.949 . S
C1221 C1222 1.349 . S
C1221 C1223 1.327 1_455 S
C1221 H1244 0.950 . S
C1222 C1221 1.349 . S
C1222 C1234 1.349 . S
C1223 C1221 1.327 1_655 S
C1223 C1239 1.429 . S
C1223 H1245 0.950 1_545 S
C1224 H1220 0.949 . S
C1224 C1232 1.574 . S
C1224 C1240 1.368 . S
H1225 C1233 0.950 . S
H1226 C1231 0.950 . S
H1227 C1232 0.949 . S
H1228 C1234 0.950 . S
H1229 C1235 0.950 . S
H1230 C1236 0.949 1_565 S
C1231 H1226 0.950 . S
C1231 C1233 1.327 . S
C1231 C1237 1.429 1_565 S
C1232 C1224 1.574 . S
C1232 H1227 0.949 . S
C1232 C1238 1.368 . S
C1233 C1217 1.349 1_565 S
C1233 H1225 0.950 . S
C1233 C1231 1.327 . S
C1234 C1222 1.349 . S
C1234 H1228 0.950 . S
C1234 C1235 1.327 . S
C1235 H1229 0.950 . S
C1235 C1234 1.327 . S
C1235 C1239 1.429 1_455 S
C1236 C1219 1.570 1_545 S
C1236 H1230 0.949 1_545 S
C1236 C1240 1.368 . S
C1237 C1218 1.429 . S
C1237 C1231 1.429 1_545 S
C1237 C1238 1.523 . S
C1238 C1219 1.335 1_545 S
C1238 C1232 1.368 . S
C1238 C1237 1.523 . S
C1239 C1223 1.429 . S
C1239 C1235 1.429 1_655 S
C1239 C1240 1.523 . S
C1240 C1224 1.368 . S
C1240 C1236 1.368 . S
C1240 C1239 1.523 . S
H1241 C1216 0.950 . S
H1242 C1218 0.950 . S
H1243 C1219 0.985 . S
H1244 C1221 0.950 . S
H1245 C1223 0.950 1_565 S
C1246 C1247 1.349 . S
C1246 C1248 1.327 . S
C1246 H1271 0.950 . S
C1247 C1246 1.349 . S
C1247 C1263 1.349 . S
C1248 C1246 1.327 . S
C1248 C1267 1.429 . S
C1248 H1272 0.950 . S
C1249 C1266 1.574 . S
C1249 C1268 1.368 . S
C1249 H1273 0.949 . S
H1250 C1254 0.949 . S
C1251 C1252 1.349 . S
C1251 C1253 1.327 . S
C1251 H1274 0.950 . S
C1252 C1251 1.349 . S
C1252 C1264 1.349 . S
C1253 C1251 1.327 . S
C1253 C1269 1.429 . S
C1253 H1275 0.950 . S
C1254 H1250 0.949 . S
C1254 C1262 1.574 . S
C1254 C1270 1.368 . S
H1255 C1263 0.950 . S
H1256 C1261 0.950 . S
H1257 C1262 0.949 . S
H1258 C1264 0.950 . S
H1259 C1265 0.950 . S
H1260 C1266 0.949 . S
C1261 H1256 0.950 . S
C1261 C1263 1.327 . S
C1261 C1267 1.429 . S
C1262 C1254 1.574 . S
C1262 H1257 0.949 . S
C1262 C1268 1.368 . S
C1263 C1247 1.349 . S
C1263 H1255 0.950 . S
C1263 C1261 1.327 . S
C1264 C1252 1.349 . S
C1264 H1258 0.950 . S
C1264 C1265 1.327 . S
C1265 H1259 0.950 . S
C1265 C1264 1.327 . S
C1265 C1269 1.429 . S
C1266 C1249 1.574 . S
C1266 H1260 0.949 . S
C1266 C1270 1.368 . S
C1267 C1248 1.429 . S
C1267 C1261 1.429 . S
C1267 C1268 1.523 . S
C1268 C1249 1.368 . S
C1268 C1262 1.368 . S
C1268 C1267 1.523 . S
C1269 C1253 1.429 . S
C1269 C1265 1.429 . S
C1269 C1270 1.523 . S
C1270 C1254 1.368 . S
C1270 C1266 1.368 . S
C1270 C1269 1.523 . S
H1271 C1246 0.950 . S
H1272 C1248 0.950 . S
H1273 C1249 0.949 . S
H1274 C1251 0.950 . S
H1275 C1253 0.950 . S
C1276 C1277 1.349 1_545 S
C1276 C1278 1.327 . S
C1276 H1301 0.950 . S
C1277 C1276 1.349 1_565 S
C1277 C1293 1.349 . S
C1278 C1276 1.327 . S
C1278 C1297 1.429 . S
C1278 H1302 0.950 . S
C1279 C1296 1.574 . S
C1279 C1298 1.368 1_565 S
C1279 H1303 0.949 . S
H1280 C1284 0.949 . S
C1281 C1282 1.349 . S
C1281 C1283 1.326 1_545 S
C1281 H1304 0.950 1_545 S
C1282 C1281 1.349 . S
C1282 C1294 1.349 . S
C1283 C1281 1.326 1_565 S
C1283 C1299 1.427 1_565 S
C1283 H1305 0.951 . S
C1284 H1280 0.949 . S
C1284 C1292 1.574 . S
C1284 C1300 1.368 . S
H1285 C1293 0.950 . S
H1286 C1291 0.950 . S
H1287 C1292 0.949 . S
H1288 C1294 0.950 . S
H1289 C1295 0.950 . S
H1290 C1296 0.949 . S
C1291 H1286 0.950 . S
C1291 C1293 1.327 . S
C1291 C1297 1.429 1_565 S
C1292 C1284 1.574 . S
C1292 H1287 0.949 . S
C1292 C1298 1.368 . S
C1293 C1277 1.349 . S
C1293 H1285 0.950 . S
C1293 C1291 1.327 . S
C1294 C1282 1.349 . S
C1294 H1288 0.950 . S
C1294 C1295 1.327 . S
C1295 H1289 0.950 . S
C1295 C1294 1.327 . S
C1295 C1299 1.429 . S
C1296 C1279 1.574 . S
C1296 H1290 0.949 . S
C1296 C1300 1.368 1_565 S
C1297 C1278 1.429 . S
C1297 C1291 1.429 1_545 S
C1297 C1298 1.523 . S
C1298 C1279 1.368 1_545 S
C1298 C1292 1.368 . S
C1298 C1297 1.523 . S
C1299 C1283 1.427 1_545 S
C1299 C1295 1.429 . S
C1299 C1300 1.523 . S
C1300 C1284 1.368 . S
C1300 C1296 1.368 1_545 S
C1300 C1299 1.523 . S
H1301 C1276 0.950 . S
H1302 C1278 0.950 . S
H1303 C1279 0.949 . S
H1304 C1281 0.950 1_565 S
H1305 C1283 0.951 . S
C1306 C1307 1.349 . S
C1306 C1308 1.327 . S
C1306 H1331 0.950 . S
C1307 C1306 1.349 . S
C1307 C1323 1.349 . S
C1308 C1306 1.327 . S
C1308 C1327 1.429 . S
C1308 H1332 0.950 . S
C1309 C1326 1.574 . S
C1309 C1328 1.368 . S
C1309 H1333 0.949 . S
H1310 C1314 0.949 . S
C1311 C1312 1.349 . S
C1311 C1313 1.327 . S
C1311 H1334 0.950 . S
C1312 C1311 1.349 . S
C1312 C1324 1.349 . S
C1313 C1311 1.327 . S
C1313 C1329 1.429 . S
C1313 H1335 0.950 . S
C1314 H1310 0.949 . S
C1314 C1322 1.574 . S
C1314 C1330 1.368 . S
H1315 C1323 0.950 . S
H1316 C1321 0.950 . S
H1317 C1322 0.949 . S
H1318 C1324 0.950 . S
H1319 C1325 0.950 . S
H1320 C1326 0.949 . S
C1321 H1316 0.950 . S
C1321 C1323 1.327 . S
C1321 C1327 1.429 . S
C1322 C1314 1.574 . S
C1322 H1317 0.949 . S
C1322 C1328 1.368 . S
C1323 C1307 1.349 . S
C1323 H1315 0.950 . S
C1323 C1321 1.327 . S
C1324 C1312 1.349 . S
C1324 H1318 0.950 . S
C1324 C1325 1.327 . S
C1325 H1319 0.950 . S
C1325 C1324 1.327 . S
C1325 C1329 1.429 . S
C1326 C1309 1.574 . S
C1326 H1320 0.949 . S
C1326 C1330 1.368 . S
C1327 C1308 1.429 . S
C1327 C1321 1.429 . S
C1327 C1328 1.523 . S
C1328 C1309 1.368 . S
C1328 C1322 1.368 . S
C1328 C1327 1.523 . S
C1329 C1313 1.429 . S
C1329 C1325 1.429 . S
C1329 C1330 1.523 . S
C1330 C1314 1.368 . S
C1330 C1326 1.368 . S
C1330 C1329 1.523 . S
H1331 C1306 0.950 . S
H1332 C1308 0.950 . S
H1333 C1309 0.949 . S
H1334 C1311 0.950 . S
H1335 C1313 0.950 . S
C1336 C1337 1.349 1_565 S
C1336 C1338 1.327 . S
C1336 H1361 0.950 . S
C1337 C1336 1.349 1_545 S
C1337 C1353 1.349 . S
C1338 C1336 1.327 . S
C1338 C1357 1.429 1_565 S
C1338 H1362 0.950 . S
C1339 C1356 1.574 . S
C1339 C1358 1.368 . S
C1339 H1363 0.949 . S
H1340 C1344 0.964 . S
C1341 C1342 1.349 1_655 S
C1341 C1343 1.327 . S
C1341 H1364 0.950 . S
C1342 C1341 1.349 1_455 S
C1342 C1354 1.349 . S
C1343 C1341 1.327 . S
C1343 C1359 1.429 . S
C1343 H1365 0.950 . S
C1344 H1340 0.964 . S
C1344 C1352 1.573 . S
C1344 C1360 1.353 1_565 S
H1345 C1353 0.950 . S
H1346 C1351 0.950 . S
H1347 C1352 0.949 . S
H1348 C1354 0.950 1_565 S
H1349 C1355 0.950 1_565 S
H1350 C1356 0.949 . S
C1351 H1346 0.950 . S
C1351 C1353 1.327 . S
C1351 C1357 1.429 . S
C1352 C1344 1.573 . S
C1352 H1347 0.949 . S
C1352 C1358 1.368 1_565 S
C1353 C1337 1.349 . S
C1353 H1345 0.950 . S
C1353 C1351 1.327 . S
C1354 C1342 1.349 . S
C1354 H1348 0.950 1_545 S
C1354 C1355 1.327 1_455 S
C1355 H1349 0.950 1_545 S
C1355 C1354 1.327 1_655 S
C1355 C1359 1.429 . S
C1356 C1339 1.574 . S
C1356 H1350 0.949 . S
C1356 C1360 1.368 . S
C1357 C1338 1.429 1_545 S
C1357 C1351 1.429 . S
C1357 C1358 1.523 . S
C1358 C1339 1.368 . S
C1358 C1352 1.368 1_545 S
C1358 C1357 1.523 . S
C1359 C1343 1.429 . S
C1359 C1355 1.429 . S
C1359 C1360 1.523 . S
C1360 C1344 1.353 1_545 S
C1360 C1356 1.368 . S
C1360 C1359 1.523 . S
H1361 C1336 0.950 . S
H1362 C1338 0.950 . S
H1363 C1339 0.949 . S
H1364 C1341 0.950 . S
H1365 C1343 0.950 . S
C1366 C1367 1.349 . S
C1366 C1368 1.327 . S
C1366 H1391 0.950 . S
C1367 C1366 1.349 . S
C1367 C1383 1.349 . S
C1368 C1366 1.327 . S
C1368 C1387 1.429 . S
C1368 H1392 0.950 . S
C1369 C1386 1.574 . S
C1369 C1388 1.368 . S
C1369 H1393 0.949 . S
H1370 C1374 0.949 . S
C1371 C1372 1.349 . S
C1371 C1373 1.327 . S
C1371 H1394 0.950 . S
C1372 C1371 1.349 . S
C1372 C1384 1.349 . S
C1373 C1371 1.327 . S
C1373 C1389 1.429 . S
C1373 H1395 0.950 . S
C1374 H1370 0.949 . S
C1374 C1382 1.574 . S
C1374 C1390 1.368 . S
H1375 C1383 0.950 . S
H1376 C1381 0.950 . S
H1377 C1382 0.949 . S
H1378 C1384 0.950 . S
H1379 C1385 0.950 . S
H1380 C1386 0.949 . S
C1381 H1376 0.950 . S
C1381 C1383 1.327 . S
C1381 C1387 1.429 . S
C1382 C1374 1.574 . S
C1382 H1377 0.949 . S
C1382 C1388 1.368 . S
C1383 C1367 1.349 . S
C1383 H1375 0.950 . S
C1383 C1381 1.327 . S
C1384 C1372 1.349 . S
C1384 H1378 0.950 . S
C1384 C1385 1.327 . S
C1385 H1379 0.950 . S
C1385 C1384 1.327 . S
C1385 C1389 1.429 . S
C1386 C1369 1.574 . S
C1386 H1380 0.949 . S
C1386 C1390 1.368 . S
C1387 C1368 1.429 . S
C1387 C1381 1.429 . S
C1387 C1388 1.523 . S
C1388 C1369 1.368 . S
C1388 C1382 1.368 . S
C1388 C1387 1.523 . S
C1389 C1373 1.429 . S
C1389 C1385 1.429 . S
C1389 C1390 1.523 . S
C1390 C1374 1.368 . S
C1390 C1386 1.368 . S
C1390 C1389 1.523 . S
H1391 C1366 0.950 . S
H1392 C1368 0.950 . S
H1393 C1369 0.949 . S
H1394 C1371 0.950 . S
H1395 C1373 0.950 . S
C1396 C1397 1.349 1_545 S
C1396 C1398 1.327 . S
C1396 H1421 0.950 . S
C1397 C1396 1.349 1_565 S
C1397 C1413 1.349 . S
C1398 C1396 1.327 . S
C1398 C1417 1.429 . S
C1398 H1422 0.950 . S
C1399 C1416 1.574 . S
C1399 C1418 1.368 . S
C1399 H1423 0.949 1_545 S
H1400 C1404 0.949 . S
C1401 C1402 1.349 . S
C1401 C1403 1.327 . S
C1401 H1424 0.950 . S
C1402 C1401 1.349 . S
C1402 C1414 1.349 . S
C1403 C1401 1.327 . S
C1403 C1419 1.429 . S
C1403 H1425 0.950 . S
C1404 H1400 0.949 . S
C1404 C1412 1.574 . S
C1404 C1420 1.368 . S
H1405 C1413 0.950 . S
H1406 C1411 0.950 . S
H1407 C1412 0.949 . S
H1408 C1414 0.950 . S
H1409 C1415 0.950 . S
H1410 C1416 0.949 . S
C1411 H1406 0.950 . S
C1411 C1413 1.327 . S
C1411 C1417 1.429 1_565 S
C1412 C1404 1.574 . S
C1412 H1407 0.949 . S
C1412 C1418 1.368 . S
C1413 C1397 1.349 . S
C1413 H1405 0.950 . S
C1413 C1411 1.327 . S
C1414 C1402 1.349 . S
C1414 H1408 0.950 . S
C1414 C1415 1.327 . S
C1415 H1409 0.950 . S
C1415 C1414 1.327 . S
C1415 C1419 1.429 . S
C1416 C1399 1.574 . S
C1416 H1410 0.949 . S
C1416 C1420 1.368 . S
C1417 C1398 1.429 . S
C1417 C1411 1.429 1_545 S
C1417 C1418 1.523 . S
C1418 C1399 1.368 . S
C1418 C1412 1.368 . S
C1418 C1417 1.523 . S
C1419 C1403 1.429 . S
C1419 C1415 1.429 . S
C1419 C1420 1.523 . S
C1420 C1404 1.368 . S
C1420 C1416 1.368 . S
C1420 C1419 1.523 . S
H1421 C1396 0.950 . S
H1422 C1398 0.950 . S
H1423 C1399 0.949 1_565 S
H1424 C1401 0.950 . S
H1425 C1403 0.950 . S
C1426 C1427 1.349 . S
C1426 C1428 1.327 . S
C1426 H1451 0.950 . S
C1427 C1426 1.349 . S
C1427 C1443 1.349 . S
C1428 C1426 1.327 . S
C1428 C1447 1.429 . S
C1428 H1452 0.950 . S
C1429 C1446 1.574 . S
C1429 C1448 1.368 . S
C1429 H1453 0.949 . S
H1430 C1434 0.949 . S
C1431 C1432 1.349 . S
C1431 C1433 1.327 . S
C1431 H1454 0.950 . S
C1432 C1431 1.349 . S
C1432 C1444 1.349 . S
C1433 C1431 1.327 . S
C1433 C1449 1.429 . S
C1433 H1455 0.950 . S
C1434 H1430 0.949 . S
C1434 C1442 1.574 . S
C1434 C1450 1.368 . S
H1435 C1443 0.950 . S
H1436 C1441 0.950 . S
H1437 C1442 0.949 . S
H1438 C1444 0.950 . S
H1439 C1445 0.950 . S
H1440 C1446 0.949 . S
C1441 H1436 0.950 . S
C1441 C1443 1.327 . S
C1441 C1447 1.429 . S
C1442 C1434 1.574 . S
C1442 H1437 0.949 . S
C1442 C1448 1.368 . S
C1443 C1427 1.349 . S
C1443 H1435 0.950 . S
C1443 C1441 1.327 . S
C1444 C1432 1.349 . S
C1444 H1438 0.950 . S
C1444 C1445 1.327 . S
C1445 H1439 0.950 . S
C1445 C1444 1.327 . S
C1445 C1449 1.429 . S
C1446 C1429 1.574 . S
C1446 H1440 0.949 . S
C1446 C1450 1.368 . S
C1447 C1428 1.429 . S
C1447 C1441 1.429 . S
C1447 C1448 1.523 . S
C1448 C1429 1.368 . S
C1448 C1442 1.368 . S
C1448 C1447 1.523 . S
C1449 C1433 1.429 . S
C1449 C1445 1.429 . S
C1449 C1450 1.523 . S
C1450 C1434 1.368 . S
C1450 C1446 1.368 . S
C1450 C1449 1.523 . S
H1451 C1426 0.950 . S
H1452 C1428 0.950 . S
H1453 C1429 0.949 . S
H1454 C1431 0.950 . S
H1455 C1433 0.950 . S
C1456 C1457 1.349 . S
C1456 C1458 1.327 . S
C1456 H1481 0.950 . S
C1457 C1456 1.349 . S
C1457 C1473 1.349 . S
C1458 C1456 1.327 . S
C1458 C1477 1.429 . S
C1458 H1482 0.950 . S
C1459 C1476 1.574 . S
C1459 C1478 1.368 . S
C1459 H1483 0.949 . S
H1460 C1464 0.949 . S
C1461 C1462 1.349 . S
C1461 C1463 1.327 . S
C1461 H1484 0.950 . S
C1462 C1461 1.349 . S
C1462 C1474 1.349 . S
C1463 C1461 1.327 . S
C1463 C1479 1.429 . S
C1463 H1485 0.950 . S
C1464 H1460 0.949 . S
C1464 C1472 1.574 . S
C1464 C1480 1.368 . S
H1465 C1473 0.950 . S
H1466 C1471 0.950 . S
H1467 C1472 0.949 . S
H1468 C1474 0.950 . S
H1469 C1475 0.950 . S
H1470 C1476 0.949 . S
C1471 H1466 0.950 . S
C1471 C1473 1.327 . S
C1471 C1477 1.429 . S
C1472 C1464 1.574 . S
C1472 H1467 0.949 . S
C1472 C1478 1.368 . S
C1473 C1457 1.349 . S
C1473 H1465 0.950 . S
C1473 C1471 1.327 . S
C1474 C1462 1.349 . S
C1474 H1468 0.950 . S
C1474 C1475 1.327 . S
C1475 H1469 0.950 . S
C1475 C1474 1.327 . S
C1475 C1479 1.429 . S
C1476 C1459 1.574 . S
C1476 H1470 0.949 . S
C1476 C1480 1.368 . S
C1477 C1458 1.429 . S
C1477 C1471 1.429 . S
C1477 C1478 1.523 . S
C1478 C1459 1.368 . S
C1478 C1472 1.368 . S
C1478 C1477 1.523 . S
C1479 C1463 1.429 . S
C1479 C1475 1.429 . S
C1479 C1480 1.523 . S
C1480 C1464 1.368 . S
C1480 C1476 1.368 . S
C1480 C1479 1.523 . S
H1481 C1456 0.950 . S
H1482 C1458 0.950 . S
H1483 C1459 0.949 . S
H1484 C1461 0.950 . S
H1485 C1463 0.950 . S
C1486 C1487 1.349 . S
C1486 C1488 1.327 . S
C1486 H1511 0.950 1_554 S
C1487 C1486 1.349 . S
C1487 C1503 1.349 . S
C1488 C1486 1.327 . S
C1488 C1507 1.429 . S
C1488 H1512 0.950 1_554 S
C1489 C1506 1.574 . S
C1489 C1508 1.368 . S
C1489 H1513 0.949 . S
H1490 C1494 0.949 1_556 S
C1491 C1492 1.349 . S
C1491 C1493 1.327 . S
C1491 H1514 0.950 . S
C1492 C1491 1.349 . S
C1492 C1504 1.349 . S
C1493 C1491 1.327 . S
C1493 C1509 1.429 . S
C1493 H1515 0.950 . S
C1494 H1490 0.949 1_554 S
C1494 C1502 1.574 . S
C1494 C1510 1.368 . S
H1495 C1503 0.950 . S
H1496 C1501 0.950 . S
H1497 C1502 0.949 1_556 S
H1498 C1504 0.950 1_556 S
H1499 C1505 0.950 1_556 S
H1500 C1506 0.949 . S
C1501 H1496 0.950 . S
C1501 C1503 1.327 . S
C1501 C1507 1.429 . S
C1502 C1494 1.574 . S
C1502 H1497 0.949 1_554 S
C1502 C1508 1.368 . S
C1503 C1487 1.349 . S
C1503 H1495 0.950 . S
C1503 C1501 1.327 . S
C1504 C1492 1.349 . S
C1504 H1498 0.950 1_554 S
C1504 C1505 1.327 . S
C1505 H1499 0.950 1_554 S
C1505 C1504 1.327 . S
C1505 C1509 1.429 . S
C1506 C1489 1.574 . S
C1506 H1500 0.949 . S
C1506 C1510 1.368 . S
C1507 C1488 1.429 . S
C1507 C1501 1.429 . S
C1507 C1508 1.523 . S
C1508 C1489 1.368 . S
C1508 C1502 1.368 . S
C1508 C1507 1.523 . S
C1509 C1493 1.429 . S
C1509 C1505 1.429 . S
C1509 C1510 1.523 . S
C1510 C1494 1.368 . S
C1510 C1506 1.368 . S
C1510 C1509 1.523 . S
H1511 C1486 0.950 1_556 S
H1512 C1488 0.950 1_556 S
H1513 C1489 0.949 . S
H1514 C1491 0.950 . S
H1515 C1493 0.950 . S
C1516 C1517 1.349 . S
C1516 C1518 1.327 . S
C1516 H1541 0.950 . S
C1517 C1516 1.349 . S
C1517 C1533 1.349 . S
C1518 C1516 1.327 . S
C1518 C1537 1.429 . S
C1518 H1542 0.950 . S
C1519 C1536 1.574 . S
C1519 C1538 1.368 . S
C1519 H1543 0.949 . S
H1520 C1524 0.949 . S
C1521 C1522 1.349 . S
C1521 C1523 1.327 . S
C1521 H1544 0.950 . S
C1522 C1521 1.349 . S
C1522 C1534 1.349 . S
C1523 C1521 1.327 . S
C1523 C1539 1.429 . S
C1523 H1545 0.950 . S
C1524 H1520 0.949 . S
C1524 C1532 1.574 . S
C1524 C1540 1.368 . S
H1525 C1533 0.950 . S
H1526 C1531 0.950 . S
H1527 C1532 0.949 . S
H1528 C1534 0.950 . S
H1529 C1535 0.950 . S
H1530 C1536 0.949 . S
C1531 H1526 0.950 . S
C1531 C1533 1.327 . S
C1531 C1537 1.429 . S
C1532 C1524 1.574 . S
C1532 H1527 0.949 . S
C1532 C1538 1.368 . S
C1533 C1517 1.349 . S
C1533 H1525 0.950 . S
C1533 C1531 1.327 . S
C1534 C1522 1.349 . S
C1534 H1528 0.950 . S
C1534 C1535 1.327 . S
C1535 H1529 0.950 . S
C1535 C1534 1.327 . S
C1535 C1539 1.429 . S
C1536 C1519 1.574 . S
C1536 H1530 0.949 . S
C1536 C1540 1.368 . S
C1537 C1518 1.429 . S
C1537 C1531 1.429 . S
C1537 C1538 1.523 . S
C1538 C1519 1.368 . S
C1538 C1532 1.368 . S
C1538 C1537 1.523 . S
C1539 C1523 1.429 . S
C1539 C1535 1.429 . S
C1539 C1540 1.523 . S
C1540 C1524 1.368 . S
C1540 C1536 1.368 . S
C1540 C1539 1.523 . S
H1541 C1516 0.950 . S
H1542 C1518 0.950 . S
H1543 C1519 0.949 . S
H1544 C1521 0.950 . S
H1545 C1523 0.950 . S
C1546 C1547 1.349 . S
C1546 C1548 1.327 . S
C1546 H1571 0.950 . S
C1547 C1546 1.349 . S
C1547 C1563 1.349 . S
C1548 C1546 1.327 . S
C1548 C1567 1.429 . S
C1548 H1572 0.950 . S
C1549 C1566 1.574 . S
C1549 C1568 1.368 . S
C1549 H1573 0.949 . S
H1550 C1554 0.949 . S
C1551 C1552 1.349 . S
C1551 C1553 1.327 . S
C1551 H1574 0.950 . S
C1552 C1551 1.349 . S
C1552 C1564 1.349 . S
C1553 C1551 1.327 . S
C1553 C1569 1.429 . S
C1553 H1575 0.950 . S
C1554 H1550 0.949 . S
C1554 C1562 1.574 . S
C1554 C1570 1.368 . S
H1555 C1563 0.950 . S
H1556 C1561 0.950 . S
H1557 C1562 0.949 . S
H1558 C1564 0.950 . S
H1559 C1565 0.950 . S
H1560 C1566 0.949 . S
C1561 H1556 0.950 . S
C1561 C1563 1.327 . S
C1561 C1567 1.429 . S
C1562 C1554 1.574 . S
C1562 H1557 0.949 . S
C1562 C1568 1.368 . S
C1563 C1547 1.349 . S
C1563 H1555 0.950 . S
C1563 C1561 1.327 . S
C1564 C1552 1.349 . S
C1564 H1558 0.950 . S
C1564 C1565 1.327 . S
C1565 H1559 0.950 . S
C1565 C1564 1.327 . S
C1565 C1569 1.429 . S
C1566 C1549 1.574 . S
C1566 H1560 0.949 . S
C1566 C1570 1.368 . S
C1567 C1548 1.429 . S
C1567 C1561 1.429 . S
C1567 C1568 1.523 . S
C1568 C1549 1.368 . S
C1568 C1562 1.368 . S
C1568 C1567 1.523 . S
C1569 C1553 1.429 . S
C1569 C1565 1.429 . S
C1569 C1570 1.523 . S
C1570 C1554 1.368 . S
C1570 C1566 1.368 . S
C1570 C1569 1.523 . S
H1571 C1546 0.950 . S
H1572 C1548 0.950 . S
H1573 C1549 0.949 . S
H1574 C1551 0.950 . S
H1575 C1553 0.950 . S
C1576 C1577 1.349 . S
C1576 C1578 1.327 . S
C1576 H1601 0.950 . S
C1577 C1576 1.349 . S
C1577 C1593 1.349 . S
C1578 C1576 1.327 . S
C1578 C1597 1.429 . S
C1578 H1602 0.950 . S
C1579 C1596 1.574 . S
C1579 C1598 1.368 . S
C1579 H1603 0.949 . S
H1580 C1584 0.949 . S
C1581 C1582 1.349 . S
C1581 C1583 1.327 . S
C1581 H1604 0.950 . S
C1582 C1581 1.349 . S
C1582 C1594 1.349 . S
C1583 C1581 1.327 . S
C1583 C1599 1.429 . S
C1583 H1605 0.950 . S
C1584 H1580 0.949 . S
C1584 C1592 1.574 . S
C1584 C1600 1.368 . S
H1585 C1593 0.950 . S
H1586 C1591 0.950 . S
H1587 C1592 0.949 . S
H1588 C1594 0.950 . S
H1589 C1595 0.950 . S
H1590 C1596 0.949 . S
C1591 H1586 0.950 . S
C1591 C1593 1.327 . S
C1591 C1597 1.429 . S
C1592 C1584 1.574 . S
C1592 H1587 0.949 . S
C1592 C1598 1.368 . S
C1593 C1577 1.349 . S
C1593 H1585 0.950 . S
C1593 C1591 1.327 . S
C1594 C1582 1.349 . S
C1594 H1588 0.950 . S
C1594 C1595 1.327 . S
C1595 H1589 0.950 . S
C1595 C1594 1.327 . S
C1595 C1599 1.429 . S
C1596 C1579 1.574 . S
C1596 H1590 0.949 . S
C1596 C1600 1.368 . S
C1597 C1578 1.429 . S
C1597 C1591 1.429 . S
C1597 C1598 1.523 . S
C1598 C1579 1.368 . S
C1598 C1592 1.368 . S
C1598 C1597 1.523 . S
C1599 C1583 1.429 . S
C1599 C1595 1.429 . S
C1599 C1600 1.523 . S
C1600 C1584 1.368 . S
C1600 C1596 1.368 . S
C1600 C1599 1.523 . S
H1601 C1576 0.950 . S
H1602 C1578 0.950 . S
H1603 C1579 0.949 . S
H1604 C1581 0.950 . S
H1605 C1583 0.950 . S
C1606 C1607 1.349 . S
C1606 C1608 1.327 . S
C1606 H1631 0.950 . S
C1607 C1606 1.349 . S
C1607 C1623 1.349 . S
C1608 C1606 1.327 . S
C1608 C1627 1.429 . S
C1608 H1632 0.950 . S
C1609 C1626 1.574 . S
C1609 C1628 1.368 . S
C1609 H1633 0.949 . S
H1610 C1614 0.949 . S
C1611 C1612 1.349 . S
C1611 C1613 1.327 . S
C1611 H1634 0.950 . S
C1612 C1611 1.349 . S
C1612 C1624 1.349 . S
C1613 C1611 1.327 . S
C1613 C1629 1.429 . S
C1613 H1635 0.950 . S
C1614 H1610 0.949 . S
C1614 C1622 1.574 . S
C1614 C1630 1.368 . S
H1615 C1623 0.950 . S
H1616 C1621 0.950 . S
H1617 C1622 0.949 . S
H1618 C1624 0.950 . S
H1619 C1625 0.950 . S
H1620 C1626 0.949 . S
C1621 H1616 0.950 . S
C1621 C1623 1.327 . S
C1621 C1627 1.429 . S
C1622 C1614 1.574 . S
C1622 H1617 0.949 . S
C1622 C1628 1.368 . S
C1623 C1607 1.349 . S
C1623 H1615 0.950 . S
C1623 C1621 1.327 . S
C1624 C1612 1.349 . S
C1624 H1618 0.950 . S
C1624 C1625 1.327 . S
C1625 H1619 0.950 . S
C1625 C1624 1.327 . S
C1625 C1629 1.429 . S
C1626 C1609 1.574 . S
C1626 H1620 0.949 . S
C1626 C1630 1.368 . S
C1627 C1608 1.429 . S
C1627 C1621 1.429 . S
C1627 C1628 1.523 . S
C1628 C1609 1.368 . S
C1628 C1622 1.368 . S
C1628 C1627 1.523 . S
C1629 C1613 1.429 . S
C1629 C1625 1.429 . S
C1629 C1630 1.523 . S
C1630 C1614 1.368 . S
C1630 C1626 1.368 . S
C1630 C1629 1.523 . S
H1631 C1606 0.950 . S
H1632 C1608 0.950 . S
H1633 C1609 0.949 . S
H1634 C1611 0.950 . S
H1635 C1613 0.950 . S
C1636 C1637 1.349 . S
C1636 C1638 1.327 . S
C1636 H1661 0.950 . S
C1637 C1636 1.349 . S
C1637 C1653 1.349 . S
C1638 C1636 1.327 . S
C1638 C1657 1.429 . S
C1638 H1662 0.950 . S
C1639 C1656 1.574 . S
C1639 C1658 1.368 . S
C1639 H1663 0.949 . S
H1640 C1644 0.949 . S
C1641 C1642 1.349 . S
C1641 C1643 1.327 . S
C1641 H1664 0.950 . S
C1642 C1641 1.349 . S
C1642 C1654 1.349 . S
C1643 C1641 1.327 . S
C1643 C1659 1.429 . S
C1643 H1665 0.950 . S
C1644 H1640 0.949 . S
C1644 C1652 1.574 . S
C1644 C1660 1.368 . S
H1645 C1653 0.950 . S
H1646 C1651 0.950 . S
H1647 C1652 0.949 . S
H1648 C1654 0.950 . S
H1649 C1655 0.950 . S
H1650 C1656 0.949 . S
C1651 H1646 0.950 . S
C1651 C1653 1.327 . S
C1651 C1657 1.429 . S
C1652 C1644 1.574 . S
C1652 H1647 0.949 . S
C1652 C1658 1.368 . S
C1653 C1637 1.349 . S
C1653 H1645 0.950 . S
C1653 C1651 1.327 . S
C1654 C1642 1.349 . S
C1654 H1648 0.950 . S
C1654 C1655 1.327 . S
C1655 H1649 0.950 . S
C1655 C1654 1.327 . S
C1655 C1659 1.429 . S
C1656 C1639 1.574 . S
C1656 H1650 0.949 . S
C1656 C1660 1.368 . S
C1657 C1638 1.429 . S
C1657 C1651 1.429 . S
C1657 C1658 1.523 . S
C1658 C1639 1.368 . S
C1658 C1652 1.368 . S
C1658 C1657 1.523 . S
C1659 C1643 1.429 . S
C1659 C1655 1.429 . S
C1659 C1660 1.523 . S
C1660 C1644 1.368 . S
C1660 C1656 1.368 . S
C1660 C1659 1.523 . S
H1661 C1636 0.950 . S
H1662 C1638 0.950 . S
H1663 C1639 0.949 . S
H1664 C1641 0.950 . S
H1665 C1643 0.950 . S
C1666 C1667 1.349 . S
C1666 C1668 1.327 . S
C1666 H1691 0.950 . S
C1667 C1666 1.349 . S
C1667 C1683 1.349 . S
C1668 C1666 1.327 . S
C1668 C1687 1.429 . S
C1668 H1692 0.950 . S
C1669 C1686 1.574 . S
C1669 C1688 1.368 . S
C1669 H1693 0.949 . S
H1670 C1674 0.949 . S
C1671 C1672 1.349 . S
C1671 C1673 1.327 . S
C1671 H1694 0.950 . S
C1672 C1671 1.349 . S
C1672 C1684 1.349 . S
C1673 C1671 1.327 . S
C1673 C1689 1.429 . S
C1673 H1695 0.950 . S
C1674 H1670 0.949 . S
C1674 C1682 1.574 . S
C1674 C1690 1.368 . S
H1675 C1683 0.950 . S
H1676 C1681 0.950 . S
H1677 C1682 0.949 . S
H1678 C1684 0.950 . S
H1679 C1685 0.950 . S
H1680 C1686 0.949 . S
C1681 H1676 0.950 . S
C1681 C1683 1.327 . S
C1681 C1687 1.429 . S
C1682 C1674 1.574 . S
C1682 H1677 0.949 . S
C1682 C1688 1.368 . S
C1683 C1667 1.349 . S
C1683 H1675 0.950 . S
C1683 C1681 1.327 . S
C1684 C1672 1.349 . S
C1684 H1678 0.950 . S
C1684 C1685 1.327 . S
C1685 H1679 0.950 . S
C1685 C1684 1.327 . S
C1685 C1689 1.429 . S
C1686 C1669 1.574 . S
C1686 H1680 0.949 . S
C1686 C1690 1.368 . S
C1687 C1668 1.429 . S
C1687 C1681 1.429 . S
C1687 C1688 1.523 . S
C1688 C1669 1.368 . S
C1688 C1682 1.368 . S
C1688 C1687 1.523 . S
C1689 C1673 1.429 . S
C1689 C1685 1.429 . S
C1689 C1690 1.523 . S
C1690 C1674 1.368 . S
C1690 C1686 1.368 . S
C1690 C1689 1.523 . S
H1691 C1666 0.950 . S
H1692 C1668 0.950 . S
H1693 C1669 0.949 . S
H1694 C1671 0.950 . S
H1695 C1673 0.950 . S
C1696 C1697 1.349 . S
C1696 C1698 1.327 . S
C1696 H1721 0.950 . S
C1697 C1696 1.349 . S
C1697 C1713 1.349 . S
C1698 C1696 1.327 . S
C1698 C1717 1.429 . S
C1698 H1722 0.950 . S
C1699 C1716 1.574 . S
C1699 C1718 1.368 . S
C1699 H1723 0.949 . S
H1700 C1704 0.949 . S
C1701 C1702 1.349 . S
C1701 C1703 1.327 . S
C1701 H1724 0.950 . S
C1702 C1701 1.349 . S
C1702 C1714 1.349 . S
C1703 C1701 1.327 . S
C1703 C1719 1.429 . S
C1703 H1725 0.950 . S
C1704 H1700 0.949 . S
C1704 C1712 1.574 . S
C1704 C1720 1.368 . S
H1705 C1713 0.950 . S
H1706 C1711 0.950 . S
H1707 C1712 0.949 . S
H1708 C1714 0.950 . S
H1709 C1715 0.950 . S
H1710 C1716 0.949 . S
C1711 H1706 0.950 . S
C1711 C1713 1.327 . S
C1711 C1717 1.429 . S
C1712 C1704 1.574 . S
C1712 H1707 0.949 . S
C1712 C1718 1.368 . S
C1713 C1697 1.349 . S
C1713 H1705 0.950 . S
C1713 C1711 1.327 . S
C1714 C1702 1.349 . S
C1714 H1708 0.950 . S
C1714 C1715 1.327 . S
C1715 H1709 0.950 . S
C1715 C1714 1.327 . S
C1715 C1719 1.429 . S
C1716 C1699 1.574 . S
C1716 H1710 0.949 . S
C1716 C1720 1.368 . S
C1717 C1698 1.429 . S
C1717 C1711 1.429 . S
C1717 C1718 1.523 . S
C1718 C1699 1.368 . S
C1718 C1712 1.368 . S
C1718 C1717 1.523 . S
C1719 C1703 1.429 . S
C1719 C1715 1.429 . S
C1719 C1720 1.523 . S
C1720 C1704 1.368 . S
C1720 C1716 1.368 . S
C1720 C1719 1.523 . S
H1721 C1696 0.950 . S
H1722 C1698 0.950 . S
H1723 C1699 0.949 . S
H1724 C1701 0.950 . S
H1725 C1703 0.950 . S
C1726 C1727 1.349 . S
C1726 C1728 1.327 . S
C1726 H1751 0.950 . S
C1727 C1726 1.349 . S
C1727 C1743 1.349 . S
C1728 C1726 1.327 . S
C1728 C1747 1.429 . S
C1728 H1752 0.950 . S
C1729 C1746 1.574 . S
C1729 C1748 1.368 . S
C1729 H1753 0.949 . S
H1730 C1734 0.949 . S
C1731 C1732 1.349 . S
C1731 C1733 1.327 . S
C1731 H1754 0.950 . S
C1732 C1731 1.349 . S
C1732 C1744 1.349 . S
C1733 C1731 1.327 . S
C1733 C1749 1.429 . S
C1733 H1755 0.950 . S
C1734 H1730 0.949 . S
C1734 C1742 1.574 . S
C1734 C1750 1.368 . S
H1735 C1743 0.950 . S
H1736 C1741 0.950 . S
H1737 C1742 0.949 . S
H1738 C1744 0.950 . S
H1739 C1745 0.950 . S
H1740 C1746 0.949 . S
C1741 H1736 0.950 . S
C1741 C1743 1.327 . S
C1741 C1747 1.429 . S
C1742 C1734 1.574 . S
C1742 H1737 0.949 . S
C1742 C1748 1.368 . S
C1743 C1727 1.349 . S
C1743 H1735 0.950 . S
C1743 C1741 1.327 . S
C1744 C1732 1.349 . S
C1744 H1738 0.950 . S
C1744 C1745 1.327 . S
C1745 H1739 0.950 . S
C1745 C1744 1.327 . S
C1745 C1749 1.429 . S
C1746 C1729 1.574 . S
C1746 H1740 0.949 . S
C1746 C1750 1.368 . S
C1747 C1728 1.429 . S
C1747 C1741 1.429 . S
C1747 C1748 1.523 . S
C1748 C1729 1.368 . S
C1748 C1742 1.368 . S
C1748 C1747 1.523 . S
C1749 C1733 1.429 . S
C1749 C1745 1.429 . S
C1749 C1750 1.523 . S
C1750 C1734 1.368 . S
C1750 C1746 1.368 . S
C1750 C1749 1.523 . S
H1751 C1726 0.950 . S
H1752 C1728 0.950 . S
H1753 C1729 0.949 . S
H1754 C1731 0.950 . S
H1755 C1733 0.950 . S
C1756 C1757 1.349 . S
C1756 C1758 1.327 . S
C1756 H1781 0.950 . S
C1757 C1756 1.349 . S
C1757 C1773 1.349 . S
C1758 C1756 1.327 . S
C1758 C1777 1.429 . S
C1758 H1782 0.950 . S
C1759 C1776 1.574 . S
C1759 C1778 1.368 . S
C1759 H1783 0.949 . S
H1760 C1764 0.949 . S
C1761 C1762 1.349 . S
C1761 C1763 1.327 . S
C1761 H1784 0.950 . S
C1762 C1761 1.349 . S
C1762 C1774 1.349 . S
C1763 C1761 1.327 . S
C1763 C1779 1.429 . S
C1763 H1785 0.950 . S
C1764 H1760 0.949 . S
C1764 C1772 1.574 . S
C1764 C1780 1.368 . S
H1765 C1773 0.950 . S
H1766 C1771 0.950 . S
H1767 C1772 0.949 . S
H1768 C1774 0.950 . S
H1769 C1775 0.950 . S
H1770 C1776 0.949 . S
C1771 H1766 0.950 . S
C1771 C1773 1.327 . S
C1771 C1777 1.429 . S
C1772 C1764 1.574 . S
C1772 H1767 0.949 . S
C1772 C1778 1.368 . S
C1773 C1757 1.349 . S
C1773 H1765 0.950 . S
C1773 C1771 1.327 . S
C1774 C1762 1.349 . S
C1774 H1768 0.950 . S
C1774 C1775 1.327 . S
C1775 H1769 0.950 . S
C1775 C1774 1.327 . S
C1775 C1779 1.429 . S
C1776 C1759 1.574 . S
C1776 H1770 0.949 . S
C1776 C1780 1.368 . S
C1777 C1758 1.429 . S
C1777 C1771 1.429 . S
C1777 C1778 1.523 . S
C1778 C1759 1.368 . S
C1778 C1772 1.368 . S
C1778 C1777 1.523 . S
C1779 C1763 1.429 . S
C1779 C1775 1.429 . S
C1779 C1780 1.523 . S
C1780 C1764 1.368 . S
C1780 C1776 1.368 . S
C1780 C1779 1.523 . S
H1781 C1756 0.950 . S
H1782 C1758 0.950 . S
H1783 C1759 0.949 . S
H1784 C1761 0.950 . S
H1785 C1763 0.950 . S
C1786 C1787 1.349 . S
C1786 C1788 1.327 . S
C1786 H1811 0.950 . S
C1787 C1786 1.349 . S
C1787 C1803 1.349 . S
C1788 C1786 1.327 . S
C1788 C1807 1.429 . S
C1788 H1812 0.950 . S
C1789 C1806 1.574 . S
C1789 C1808 1.368 . S
C1789 H1813 0.949 . S
H1790 C1794 0.949 . S
C1791 C1792 1.349 . S
C1791 C1793 1.327 . S
C1791 H1814 0.950 . S
C1792 C1791 1.349 . S
C1792 C1804 1.349 . S
C1793 C1791 1.327 . S
C1793 C1809 1.429 . S
C1793 H1815 0.950 . S
C1794 H1790 0.949 . S
C1794 C1802 1.574 . S
C1794 C1810 1.368 . S
H1795 C1803 0.950 . S
H1796 C1801 0.950 . S
H1797 C1802 0.949 . S
H1798 C1804 0.950 . S
H1799 C1805 0.950 . S
H1800 C1806 0.949 . S
C1801 H1796 0.950 . S
C1801 C1803 1.327 . S
C1801 C1807 1.429 . S
C1802 C1794 1.574 . S
C1802 H1797 0.949 . S
C1802 C1808 1.368 . S
C1803 C1787 1.349 . S
C1803 H1795 0.950 . S
C1803 C1801 1.327 . S
C1804 C1792 1.349 . S
C1804 H1798 0.950 . S
C1804 C1805 1.327 . S
C1805 H1799 0.950 . S
C1805 C1804 1.327 . S
C1805 C1809 1.429 . S
C1806 C1789 1.574 . S
C1806 H1800 0.949 . S
C1806 C1810 1.368 . S
C1807 C1788 1.429 . S
C1807 C1801 1.429 . S
C1807 C1808 1.523 . S
C1808 C1789 1.368 . S
C1808 C1802 1.368 . S
C1808 C1807 1.523 . S
C1809 C1793 1.429 . S
C1809 C1805 1.429 . S
C1809 C1810 1.523 . S
C1810 C1794 1.368 . S
C1810 C1806 1.368 . S
C1810 C1809 1.523 . S
H1811 C1786 0.950 . S
H1812 C1788 0.950 . S
H1813 C1789 0.949 . S
H1814 C1791 0.950 . S
H1815 C1793 0.950 . S
C1816 C1817 1.349 . S
C1816 C1818 1.327 . S
C1816 H1841 0.950 . S
C1817 C1816 1.349 . S
C1817 C1833 1.349 . S
C1818 C1816 1.327 . S
C1818 C1837 1.429 . S
C1818 H1842 0.950 . S
C1819 C1836 1.574 . S
C1819 C1838 1.368 . S
C1819 H1843 0.949 . S
H1820 C1824 0.949 . S
C1821 C1822 1.349 . S
C1821 C1823 1.327 . S
C1821 H1844 0.950 . S
C1822 C1821 1.349 . S
C1822 C1834 1.349 . S
C1823 C1821 1.327 . S
C1823 C1839 1.429 . S
C1823 H1845 0.950 . S
C1824 H1820 0.949 . S
C1824 C1832 1.574 . S
C1824 C1840 1.368 . S
H1825 C1833 0.950 . S
H1826 C1831 0.950 . S
H1827 C1832 0.949 . S
H1828 C1834 0.950 . S
H1829 C1835 0.950 . S
H1830 C1836 0.949 . S
C1831 H1826 0.950 . S
C1831 C1833 1.327 . S
C1831 C1837 1.429 . S
C1832 C1824 1.574 . S
C1832 H1827 0.949 . S
C1832 C1838 1.368 . S
C1833 C1817 1.349 . S
C1833 H1825 0.950 . S
C1833 C1831 1.327 . S
C1834 C1822 1.349 . S
C1834 H1828 0.950 . S
C1834 C1835 1.327 . S
C1835 H1829 0.950 . S
C1835 C1834 1.327 . S
C1835 C1839 1.429 . S
C1836 C1819 1.574 . S
C1836 H1830 0.949 . S
C1836 C1840 1.368 . S
C1837 C1818 1.429 . S
C1837 C1831 1.429 . S
C1837 C1838 1.523 . S
C1838 C1819 1.368 . S
C1838 C1832 1.368 . S
C1838 C1837 1.523 . S
C1839 C1823 1.429 . S
C1839 C1835 1.429 . S
C1839 C1840 1.523 . S
C1840 C1824 1.368 . S
C1840 C1836 1.368 . S
C1840 C1839 1.523 . S
H1841 C1816 0.950 . S
H1842 C1818 0.950 . S
H1843 C1819 0.949 . S
H1844 C1821 0.950 . S
H1845 C1823 0.950 . S
C1846 C1847 1.349 . S
C1846 C1848 1.327 . S
C1846 H1871 0.950 . S
C1847 C1846 1.349 . S
C1847 C1863 1.349 . S
C1848 C1846 1.327 . S
C1848 C1867 1.429 . S
C1848 H1872 0.950 . S
C1849 C1866 1.574 . S
C1849 C1868 1.368 . S
C1849 H1873 0.949 . S
H1850 C1854 0.949 . S
C1851 C1852 1.349 . S
C1851 C1853 1.327 . S
C1851 H1874 0.950 . S
C1852 C1851 1.349 . S
C1852 C1864 1.349 . S
C1853 C1851 1.327 . S
C1853 C1869 1.429 . S
C1853 H1875 0.950 . S
C1854 H1850 0.949 . S
C1854 C1862 1.574 . S
C1854 C1870 1.368 . S
H1855 C1863 0.950 . S
H1856 C1861 0.950 . S
H1857 C1862 0.949 . S
H1858 C1864 0.950 . S
H1859 C1865 0.950 . S
H1860 C1866 0.949 . S
C1861 H1856 0.950 . S
C1861 C1863 1.327 . S
C1861 C1867 1.429 . S
C1862 C1854 1.574 . S
C1862 H1857 0.949 . S
C1862 C1868 1.368 . S
C1863 C1847 1.349 . S
C1863 H1855 0.950 . S
C1863 C1861 1.327 . S
C1864 C1852 1.349 . S
C1864 H1858 0.950 . S
C1864 C1865 1.327 . S
C1865 H1859 0.950 . S
C1865 C1864 1.327 . S
C1865 C1869 1.429 . S
C1866 C1849 1.574 . S
C1866 H1860 0.949 . S
C1866 C1870 1.368 . S
C1867 C1848 1.429 . S
C1867 C1861 1.429 . S
C1867 C1868 1.523 . S
C1868 C1849 1.368 . S
C1868 C1862 1.368 . S
C1868 C1867 1.523 . S
C1869 C1853 1.429 . S
C1869 C1865 1.429 . S
C1869 C1870 1.523 . S
C1870 C1854 1.368 . S
C1870 C1866 1.368 . S
C1870 C1869 1.523 . S
H1871 C1846 0.950 . S
H1872 C1848 0.950 . S
H1873 C1849 0.949 . S
H1874 C1851 0.950 . S
H1875 C1853 0.950 . S
C1876 C1877 1.349 . S
C1876 C1878 1.327 . S
C1876 H1901 0.950 . S
C1877 C1876 1.349 . S
C1877 C1893 1.349 . S
C1878 C1876 1.327 . S
C1878 C1897 1.429 . S
C1878 H1902 0.950 . S
C1879 C1896 1.574 . S
C1879 C1898 1.368 . S
C1879 H1903 0.949 . S
H1880 C1884 0.949 . S
C1881 C1882 1.349 . S
C1881 C1883 1.327 . S
C1881 H1904 0.950 . S
C1882 C1881 1.349 . S
C1882 C1894 1.349 1_556 S
C1883 C1881 1.327 . S
C1883 C1899 1.429 . S
C1883 H1905 0.950 . S
C1884 H1880 0.949 . S
C1884 C1892 1.574 . S
C1884 C1900 1.368 . S
H1885 C1893 0.950 . S
H1886 C1891 0.950 . S
H1887 C1892 0.949 . S
H1888 C1894 0.950 . S
H1889 C1895 0.933 1_554 S
H1890 C1896 0.949 . S
C1891 H1886 0.950 . S
C1891 C1893 1.327 . S
C1891 C1897 1.429 . S
C1892 C1884 1.574 . S
C1892 H1887 0.949 . S
C1892 C1898 1.368 . S
C1893 C1877 1.349 . S
C1893 H1885 0.950 . S
C1893 C1891 1.327 . S
C1894 C1882 1.349 1_554 S
C1894 H1888 0.950 . S
C1894 C1895 1.327 1_554 S
C1895 H1889 0.933 1_556 S
C1895 C1894 1.327 1_556 S
C1895 C1899 1.429 . S
C1896 C1879 1.574 . S
C1896 H1890 0.949 . S
C1896 C1900 1.368 . S
C1897 C1878 1.429 . S
C1897 C1891 1.429 . S
C1897 C1898 1.523 . S
C1898 C1879 1.368 . S
C1898 C1892 1.368 . S
C1898 C1897 1.523 . S
C1899 C1883 1.429 . S
C1899 C1895 1.429 . S
C1899 C1900 1.523 . S
C1900 C1884 1.368 . S
C1900 C1896 1.368 . S
C1900 C1899 1.523 . S
H1901 C1876 0.950 . S
H1902 C1878 0.950 . S
H1903 C1879 0.949 . S
H1904 C1881 0.950 . S
H1905 C1883 0.950 . S
C1906 C1907 1.349 . S
C1906 C1908 1.327 . S
C1906 H1931 0.950 . S
C1907 C1906 1.349 . S
C1907 C1923 1.349 . S
C1908 C1906 1.327 . S
C1908 C1927 1.429 . S
C1908 H1932 0.950 . S
C1909 C1926 1.574 . S
C1909 C1928 1.368 . S
C1909 H1933 0.949 . S
H1910 C1914 0.949 . S
C1911 C1912 1.349 . S
C1911 C1913 1.327 . S
C1911 H1934 0.950 . S
C1912 C1911 1.349 . S
C1912 C1924 1.349 . S
C1913 C1911 1.327 . S
C1913 C1929 1.429 . S
C1913 H1935 0.950 . S
C1914 H1910 0.949 . S
C1914 C1922 1.574 . S
C1914 C1930 1.368 . S
H1915 C1923 0.950 . S
H1916 C1921 0.950 . S
H1917 C1922 0.949 . S
H1918 C1924 0.950 . S
H1919 C1925 0.950 . S
H1920 C1926 0.949 . S
C1921 H1916 0.950 . S
C1921 C1923 1.327 . S
C1921 C1927 1.429 . S
C1922 C1914 1.574 . S
C1922 H1917 0.949 . S
C1922 C1928 1.368 . S
C1923 C1907 1.349 . S
C1923 H1915 0.950 . S
C1923 C1921 1.327 . S
C1924 C1912 1.349 . S
C1924 H1918 0.950 . S
C1924 C1925 1.327 . S
C1925 H1919 0.950 . S
C1925 C1924 1.327 . S
C1925 C1929 1.429 . S
C1926 C1909 1.574 . S
C1926 H1920 0.949 . S
C1926 C1930 1.368 . S
C1927 C1908 1.429 . S
C1927 C1921 1.429 . S
C1927 C1928 1.523 . S
C1928 C1909 1.368 . S
C1928 C1922 1.368 . S
C1928 C1927 1.523 . S
C1929 C1913 1.429 . S
C1929 C1925 1.429 . S
C1929 C1930 1.523 . S
C1930 C1914 1.368 . S
C1930 C1926 1.368 . S
C1930 C1929 1.523 . S
H1931 C1906 0.950 . S
H1932 C1908 0.950 . S
H1933 C1909 0.949 . S
H1934 C1911 0.950 . S
H1935 C1913 0.950 . S
C1936 C1937 1.349 . S
C1936 C1938 1.327 . S
C1936 H1961 0.950 . S
C1937 C1936 1.349 . S
C1937 C1953 1.349 . S
C1938 C1936 1.327 . S
C1938 C1957 1.429 . S
C1938 H1962 0.950 . S
C1939 C1956 1.574 . S
C1939 C1958 1.368 . S
C1939 H1963 0.949 . S
H1940 C1944 0.949 . S
C1941 C1942 1.349 . S
C1941 C1943 1.327 . S
C1941 H1964 0.950 . S
C1942 C1941 1.349 . S
C1942 C1954 1.349 . S
C1943 C1941 1.327 . S
C1943 C1959 1.429 . S
C1943 H1965 0.950 . S
C1944 H1940 0.949 . S
C1944 C1952 1.574 . S
C1944 C1960 1.368 . S
H1945 C1953 0.950 . S
H1946 C1951 0.950 . S
H1947 C1952 0.949 . S
H1948 C1954 0.950 . S
H1949 C1955 0.950 . S
H1950 C1956 0.949 . S
C1951 H1946 0.950 . S
C1951 C1953 1.327 . S
C1951 C1957 1.429 . S
C1952 C1944 1.574 . S
C1952 H1947 0.949 . S
C1952 C1958 1.368 . S
C1953 C1937 1.349 . S
C1953 H1945 0.950 . S
C1953 C1951 1.327 . S
C1954 C1942 1.349 . S
C1954 H1948 0.950 . S
C1954 C1955 1.327 . S
C1955 H1949 0.950 . S
C1955 C1954 1.327 . S
C1955 C1959 1.429 . S
C1956 C1939 1.574 . S
C1956 H1950 0.949 . S
C1956 C1960 1.368 . S
C1957 C1938 1.429 . S
C1957 C1951 1.429 . S
C1957 C1958 1.523 . S
C1958 C1939 1.368 . S
C1958 C1952 1.368 . S
C1958 C1957 1.523 . S
C1959 C1943 1.429 . S
C1959 C1955 1.429 . S
C1959 C1960 1.523 . S
C1960 C1944 1.368 . S
C1960 C1956 1.368 . S
C1960 C1959 1.523 . S
H1961 C1936 0.950 . S
H1962 C1938 0.950 . S
H1963 C1939 0.949 . S
H1964 C1941 0.950 . S
H1965 C1943 0.950 . S
C1966 C1967 1.349 . S
C1966 C1968 1.327 . S
C1966 H1991 0.950 . S
C1967 C1966 1.349 . S
C1967 C1983 1.349 . S
C1968 C1966 1.327 . S
C1968 C1987 1.429 . S
C1968 H1992 0.950 . S
C1969 C1986 1.574 . S
C1969 C1988 1.368 . S
C1969 H1993 0.949 . S
H1970 C1974 0.949 . S
C1971 C1972 1.349 . S
C1971 C1973 1.327 . S
C1971 H1994 0.950 . S
C1972 C1971 1.349 . S
C1972 C1984 1.349 . S
C1973 C1971 1.327 . S
C1973 C1989 1.429 . S
C1973 H1995 0.950 . S
C1974 H1970 0.949 . S
C1974 C1982 1.574 . S
C1974 C1990 1.368 . S
H1975 C1983 0.950 . S
H1976 C1981 0.950 . S
H1977 C1982 0.949 . S
H1978 C1984 0.950 . S
H1979 C1985 0.950 . S
H1980 C1986 0.949 . S
C1981 H1976 0.950 . S
C1981 C1983 1.327 . S
C1981 C1987 1.429 . S
C1982 C1974 1.574 . S
C1982 H1977 0.949 . S
C1982 C1988 1.368 . S
C1983 C1967 1.349 . S
C1983 H1975 0.950 . S
C1983 C1981 1.327 . S
C1984 C1972 1.349 . S
C1984 H1978 0.950 . S
C1984 C1985 1.327 . S
C1985 H1979 0.950 . S
C1985 C1984 1.327 . S
C1985 C1989 1.429 . S
C1986 C1969 1.574 . S
C1986 H1980 0.949 . S
C1986 C1990 1.368 . S
C1987 C1968 1.429 . S
C1987 C1981 1.429 . S
C1987 C1988 1.523 . S
C1988 C1969 1.368 . S
C1988 C1982 1.368 . S
C1988 C1987 1.523 . S
C1989 C1973 1.429 . S
C1989 C1985 1.429 . S
C1989 C1990 1.523 . S
C1990 C1974 1.368 . S
C1990 C1986 1.368 . S
C1990 C1989 1.523 . S
H1991 C1966 0.950 . S
H1992 C1968 0.950 . S
H1993 C1969 0.949 . S
H1994 C1971 0.950 . S
H1995 C1973 0.950 . S
C1996 C1997 1.349 . S
C1996 C1998 1.327 . S
C1996 H2021 0.950 . S
C1997 C1996 1.349 . S
C1997 C2013 1.349 . S
C1998 C1996 1.327 . S
C1998 C2017 1.429 . S
C1998 H2022 0.950 . S
C1999 C2016 1.574 . S
C1999 C2018 1.368 . S
C1999 H2023 0.949 . S
H2000 C2004 0.949 . S
C2001 C2002 1.349 . S
C2001 C2003 1.327 . S
C2001 H2024 0.950 . S
C2002 C2001 1.349 . S
C2002 C2014 1.349 . S
C2003 C2001 1.327 . S
C2003 C2019 1.429 . S
C2003 H2025 0.950 . S
C2004 H2000 0.949 . S
C2004 C2012 1.574 . S
C2004 C2020 1.368 . S
H2005 C2013 0.950 . S
H2006 C2011 0.950 . S
H2007 C2012 0.949 . S
H2008 C2014 0.894 1_565 S
H2009 C2015 0.950 . S
H2010 C2016 0.949 . S
C2011 H2006 0.950 . S
C2011 C2013 1.327 . S
C2011 C2017 1.429 . S
C2012 C2004 1.574 . S
C2012 H2007 0.949 . S
C2012 C2018 1.368 . S
C2013 C1997 1.349 . S
C2013 H2005 0.950 . S
C2013 C2011 1.327 . S
C2014 C2002 1.349 . S
C2014 H2008 0.894 1_545 S
C2014 C2015 1.327 . S
C2015 H2009 0.950 . S
C2015 C2014 1.327 . S
C2015 C2019 1.429 . S
C2016 C1999 1.574 . S
C2016 H2010 0.949 . S
C2016 C2020 1.368 . S
C2017 C1998 1.429 . S
C2017 C2011 1.429 . S
C2017 C2018 1.523 . S
C2018 C1999 1.368 . S
C2018 C2012 1.368 . S
C2018 C2017 1.523 . S
C2019 C2003 1.429 . S
C2019 C2015 1.429 . S
C2019 C2020 1.523 . S
C2020 C2004 1.368 . S
C2020 C2016 1.368 . S
C2020 C2019 1.523 . S
H2021 C1996 0.950 . S
H2022 C1998 0.950 . S
H2023 C1999 0.949 . S
H2024 C2001 0.950 . S
H2025 C2003 0.950 . S
C2026 C2027 1.349 . S
C2026 C2028 1.327 . S
C2026 H2051 0.950 . S
C2027 C2026 1.349 . S
C2027 C2043 1.349 . S
C2028 C2026 1.327 . S
C2028 C2047 1.429 . S
C2028 H2052 0.950 . S
C2029 C2046 1.574 . S
C2029 C2048 1.368 . S
C2029 H2053 0.949 . S
H2030 C2034 0.949 . S
C2031 C2032 1.349 . S
C2031 C2033 1.327 . S
C2031 H2054 0.950 . S
C2032 C2031 1.349 . S
C2032 C2044 1.349 . S
C2033 C2031 1.327 . S
C2033 C2049 1.429 . S
C2033 H2055 0.950 . S
C2034 H2030 0.949 . S
C2034 C2042 1.574 . S
C2034 C2050 1.368 . S
H2035 C2043 0.950 . S
H2036 C2041 0.950 . S
H2037 C2042 0.949 . S
H2038 C2044 0.950 . S
H2039 C2045 0.950 . S
H2040 C2046 0.949 . S
C2041 H2036 0.950 . S
C2041 C2043 1.327 . S
C2041 C2047 1.429 . S
C2042 C2034 1.574 . S
C2042 H2037 0.949 . S
C2042 C2048 1.368 . S
C2043 C2027 1.349 . S
C2043 H2035 0.950 . S
C2043 C2041 1.327 . S
C2044 C2032 1.349 . S
C2044 H2038 0.950 . S
C2044 C2045 1.327 . S
C2045 H2039 0.950 . S
C2045 C2044 1.327 . S
C2045 C2049 1.429 . S
C2046 C2029 1.574 . S
C2046 H2040 0.949 . S
C2046 C2050 1.368 . S
C2047 C2028 1.429 . S
C2047 C2041 1.429 . S
C2047 C2048 1.523 . S
C2048 C2029 1.368 . S
C2048 C2042 1.368 . S
C2048 C2047 1.523 . S
C2049 C2033 1.429 . S
C2049 C2045 1.429 . S
C2049 C2050 1.523 . S
C2050 C2034 1.368 . S
C2050 C2046 1.368 . S
C2050 C2049 1.523 . S
H2051 C2026 0.950 . S
H2052 C2028 0.950 . S
H2053 C2029 0.949 . S
H2054 C2031 0.950 . S
H2055 C2033 0.950 . S
C2056 C2057 1.349 . S
C2056 C2058 1.327 . S
C2056 H2081 0.950 . S
C2057 C2056 1.349 . S
C2057 C2073 1.349 . S
C2058 C2056 1.327 . S
C2058 C2077 1.429 . S
C2058 H2082 0.950 . S
C2059 C2076 1.574 . S
C2059 C2078 1.368 . S
C2059 H2083 0.949 . S
H2060 C2064 0.949 . S
C2061 C2062 1.349 . S
C2061 C2063 1.327 . S
C2061 H2084 0.950 . S
C2062 C2061 1.349 . S
C2062 C2074 1.349 . S
C2063 C2061 1.327 . S
C2063 C2079 1.429 . S
C2063 H2085 0.950 . S
C2064 H2060 0.949 . S
C2064 C2072 1.574 . S
C2064 C2080 1.368 . S
H2065 C2073 0.950 . S
H2066 C2071 0.950 . S
H2067 C2072 0.949 . S
H2068 C2074 0.932 1_565 S
H2069 C2075 0.950 . S
H2070 C2076 0.949 . S
C2071 H2066 0.950 . S
C2071 C2073 1.327 . S
C2071 C2077 1.429 . S
C2072 C2064 1.574 . S
C2072 H2067 0.949 . S
C2072 C2078 1.368 . S
C2073 C2057 1.349 . S
C2073 H2065 0.950 . S
C2073 C2071 1.327 . S
C2074 C2062 1.349 . S
C2074 H2068 0.932 1_545 S
C2074 C2075 1.327 . S
C2075 H2069 0.950 . S
C2075 C2074 1.327 . S
C2075 C2079 1.429 . S
C2076 C2059 1.574 . S
C2076 H2070 0.949 . S
C2076 C2080 1.368 . S
C2077 C2058 1.429 . S
C2077 C2071 1.429 . S
C2077 C2078 1.523 . S
C2078 C2059 1.368 . S
C2078 C2072 1.368 . S
C2078 C2077 1.523 . S
C2079 C2063 1.429 . S
C2079 C2075 1.429 . S
C2079 C2080 1.523 . S
C2080 C2064 1.368 . S
C2080 C2076 1.368 . S
C2080 C2079 1.523 . S
H2081 C2056 0.950 . S
H2082 C2058 0.950 . S
H2083 C2059 0.949 . S
H2084 C2061 0.950 . S
H2085 C2063 0.950 . S
C2086 C2087 1.349 . S
C2086 C2088 1.327 . S
C2086 H2111 0.950 . S
C2087 C2086 1.349 . S
C2087 C2103 1.349 . S
C2088 C2086 1.327 . S
C2088 C2107 1.429 . S
C2088 H2112 0.950 . S
C2089 C2106 1.574 . S
C2089 C2108 1.368 . S
C2089 H2113 0.949 . S
H2090 C2094 0.949 . S
C2091 C2092 1.349 . S
C2091 C2093 1.327 . S
C2091 H2114 0.950 . S
C2092 C2091 1.349 . S
C2092 C2104 1.349 . S
C2093 C2091 1.327 . S
C2093 C2109 1.429 . S
C2093 H2115 0.950 . S
C2094 H2090 0.949 . S
C2094 C2102 1.574 . S
C2094 C2110 1.368 . S
H2095 C2103 0.950 . S
H2096 C2101 0.950 . S
H2097 C2102 0.949 . S
H2098 C2104 0.950 . S
H2099 C2105 0.950 . S
H2100 C2106 0.949 . S
C2101 H2096 0.950 . S
C2101 C2103 1.327 . S
C2101 C2107 1.429 . S
C2102 C2094 1.574 . S
C2102 H2097 0.949 . S
C2102 C2108 1.368 . S
C2103 C2087 1.349 . S
C2103 H2095 0.950 . S
C2103 C2101 1.327 . S
C2104 C2092 1.349 . S
C2104 H2098 0.950 . S
C2104 C2105 1.327 . S
C2105 H2099 0.950 . S
C2105 C2104 1.327 . S
C2105 C2109 1.429 . S
C2106 C2089 1.574 . S
C2106 H2100 0.949 . S
C2106 C2110 1.368 . S
C2107 C2088 1.429 . S
C2107 C2101 1.429 . S
C2107 C2108 1.523 . S
C2108 C2089 1.368 . S
C2108 C2102 1.368 . S
C2108 C2107 1.523 . S
C2109 C2093 1.429 . S
C2109 C2105 1.429 . S
C2109 C2110 1.523 . S
C2110 C2094 1.368 . S
C2110 C2106 1.368 . S
C2110 C2109 1.523 . S
H2111 C2086 0.950 . S
H2112 C2088 0.950 . S
H2113 C2089 0.949 . S
H2114 C2091 0.950 . S
H2115 C2093 0.950 . S
C2116 C2117 1.349 . S
C2116 C2118 1.327 . S
C2116 H2141 0.950 . S
C2117 C2116 1.349 . S
C2117 C2133 1.349 . S
C2118 C2116 1.327 . S
C2118 C2137 1.429 . S
C2118 H2142 0.950 . S
C2119 C2136 1.574 . S
C2119 C2138 1.368 . S
C2119 H2143 0.949 . S
H2120 C2124 0.949 . S
C2121 C2122 1.349 . S
C2121 C2123 1.327 . S
C2121 H2144 0.950 . S
C2122 C2121 1.349 . S
C2122 C2134 1.349 1_565 S
C2123 C2121 1.327 . S
C2123 C2139 1.429 1_565 S
C2123 H2145 0.950 . S
C2124 H2120 0.949 . S
C2124 C2132 1.574 . S
C2124 C2140 1.368 . S
H2125 C2133 0.950 . S
H2126 C2131 0.950 . S
H2127 C2132 0.949 . S
H2128 C2134 0.950 . S
H2129 C2135 0.950 . S
H2130 C2136 0.949 1_565 S
C2131 H2126 0.950 . S
C2131 C2133 1.327 . S
C2131 C2137 1.429 . S
C2132 C2124 1.574 . S
C2132 H2127 0.949 . S
C2132 C2138 1.368 . S
C2133 C2117 1.349 . S
C2133 H2125 0.950 . S
C2133 C2131 1.327 . S
C2134 C2122 1.349 1_545 S
C2134 H2128 0.950 . S
C2134 C2135 1.327 . S
C2135 H2129 0.950 . S
C2135 C2134 1.327 . S
C2135 C2139 1.429 . S
C2136 C2119 1.574 . S
C2136 H2130 0.949 1_545 S
C2136 C2140 1.368 . S
C2137 C2118 1.429 . S
C2137 C2131 1.429 . S
C2137 C2138 1.523 . S
C2138 C2119 1.368 . S
C2138 C2132 1.368 . S
C2138 C2137 1.523 . S
C2139 C2123 1.429 1_545 S
C2139 C2135 1.429 . S
C2139 C2140 1.523 . S
C2140 C2124 1.368 . S
C2140 C2136 1.368 . S
C2140 C2139 1.523 . S
H2141 C2116 0.950 . S
H2142 C2118 0.950 . S
H2143 C2119 0.949 . S
H2144 C2121 0.950 . S
H2145 C2123 0.950 . S
C2146 C2147 1.349 . S
C2146 C2148 1.327 . S
C2146 H2171 0.950 . S
C2147 C2146 1.349 . S
C2147 C2163 1.349 . S
C2148 C2146 1.327 . S
C2148 C2167 1.429 . S
C2148 H2172 0.950 . S
C2149 C2166 1.574 . S
C2149 C2168 1.368 . S
C2149 H2173 0.949 . S
H2150 C2154 0.949 . S
C2151 C2152 1.349 . S
C2151 C2153 1.327 . S
C2151 H2174 0.950 . S
C2152 C2151 1.349 . S
C2152 C2164 1.349 . S
C2153 C2151 1.327 . S
C2153 C2169 1.429 . S
C2153 H2175 0.950 . S
C2154 H2150 0.949 . S
C2154 C2162 1.574 . S
C2154 C2170 1.368 . S
H2155 C2163 0.950 . S
H2156 C2161 0.950 . S
H2157 C2162 0.949 . S
H2158 C2164 0.950 . S
H2159 C2165 0.950 . S
H2160 C2166 0.949 . S
C2161 H2156 0.950 . S
C2161 C2163 1.327 . S
C2161 C2167 1.429 . S
C2162 C2154 1.574 . S
C2162 H2157 0.949 . S
C2162 C2168 1.368 . S
C2163 C2147 1.349 . S
C2163 H2155 0.950 . S
C2163 C2161 1.327 . S
C2164 C2152 1.349 . S
C2164 H2158 0.950 . S
C2164 C2165 1.327 . S
C2165 H2159 0.950 . S
C2165 C2164 1.327 . S
C2165 C2169 1.429 . S
C2166 C2149 1.574 . S
C2166 H2160 0.949 . S
C2166 C2170 1.368 . S
C2167 C2148 1.429 . S
C2167 C2161 1.429 . S
C2167 C2168 1.523 . S
C2168 C2149 1.368 . S
C2168 C2162 1.368 . S
C2168 C2167 1.523 . S
C2169 C2153 1.429 . S
C2169 C2165 1.429 . S
C2169 C2170 1.523 . S
C2170 C2154 1.368 . S
C2170 C2166 1.368 . S
C2170 C2169 1.523 . S
H2171 C2146 0.950 . S
H2172 C2148 0.950 . S
H2173 C2149 0.949 . S
H2174 C2151 0.950 . S
H2175 C2153 0.950 . S
C2176 C2177 1.349 1_556 S
C2176 C2178 1.327 . S
C2176 H2201 0.950 . S
C2177 C2176 1.349 1_554 S
C2177 C2193 1.349 . S
C2178 C2176 1.327 . S
C2178 C2197 1.429 . S
C2178 H2202 0.950 . S
C2179 C2196 1.570 1_554 S
C2179 C2198 1.368 1_554 S
C2179 H2203 0.949 . S
H2180 C2184 0.949 . S
C2181 C2182 1.349 . S
C2181 C2183 1.327 . S
C2181 H2204 0.950 . S
C2182 C2181 1.349 . S
C2182 C2194 1.349 . S
C2183 C2181 1.327 . S
C2183 C2199 1.429 . S
C2183 H2205 0.942 1_556 S
C2184 H2180 0.949 . S
C2184 C2192 1.574 . S
C2184 C2200 1.368 . S
H2185 C2193 0.950 . S
H2186 C2191 0.950 . S
H2187 C2192 0.949 . S
H2188 C2194 0.950 . S
H2189 C2195 0.950 . S
H2190 C2196 0.940 1_554 S
C2191 H2186 0.950 . S
C2191 C2193 1.327 . S
C2191 C2197 1.429 1_554 S
C2192 C2184 1.574 . S
C2192 H2187 0.949 . S
C2192 C2198 1.368 . S
C2193 C2177 1.349 . S
C2193 H2185 0.950 . S
C2193 C2191 1.327 . S
C2194 C2182 1.349 . S
C2194 H2188 0.950 . S
C2194 C2195 1.327 . S
C2195 H2189 0.950 . S
C2195 C2194 1.327 . S
C2195 C2199 1.429 . S
C2196 C2179 1.570 1_556 S
C2196 H2190 0.940 1_556 S
C2196 C2200 1.384 . S
C2197 C2178 1.429 . S
C2197 C2191 1.429 1_556 S
C2197 C2198 1.523 . S
C2198 C2179 1.368 1_556 S
C2198 C2192 1.368 . S
C2198 C2197 1.523 . S
C2199 C2183 1.429 . S
C2199 C2195 1.429 . S
C2199 C2200 1.523 . S
C2200 C2184 1.368 . S
C2200 C2196 1.384 . S
C2200 C2199 1.523 . S
H2201 C2176 0.950 . S
H2202 C2178 0.950 . S
H2203 C2179 0.949 . S
H2204 C2181 0.950 . S
H2205 C2183 0.942 1_554 S
C2206 C2207 1.349 . S
C2206 C2208 1.327 . S
C2206 H2231 0.950 . S
C2207 C2206 1.349 . S
C2207 C2223 1.349 . S
C2208 C2206 1.327 . S
C2208 C2227 1.429 . S
C2208 H2232 0.950 . S
C2209 C2226 1.574 . S
C2209 C2228 1.368 . S
C2209 H2233 0.949 . S
H2210 C2214 0.949 . S
C2211 C2212 1.349 . S
C2211 C2213 1.327 . S
C2211 H2234 0.950 . S
C2212 C2211 1.349 . S
C2212 C2224 1.349 . S
C2213 C2211 1.327 . S
C2213 C2229 1.429 . S
C2213 H2235 0.950 . S
C2214 H2210 0.949 . S
C2214 C2222 1.574 . S
C2214 C2230 1.368 . S
H2215 C2223 0.950 . S
H2216 C2221 0.950 . S
H2217 C2222 0.949 . S
H2218 C2224 0.950 . S
H2219 C2225 0.950 . S
H2220 C2226 0.949 . S
C2221 H2216 0.950 . S
C2221 C2223 1.327 . S
C2221 C2227 1.429 . S
C2222 C2214 1.574 . S
C2222 H2217 0.949 . S
C2222 C2228 1.368 . S
C2223 C2207 1.349 . S
C2223 H2215 0.950 . S
C2223 C2221 1.327 . S
C2224 C2212 1.349 . S
C2224 H2218 0.950 . S
C2224 C2225 1.327 . S
C2225 H2219 0.950 . S
C2225 C2224 1.327 . S
C2225 C2229 1.429 . S
C2226 C2209 1.574 . S
C2226 H2220 0.949 . S
C2226 C2230 1.368 . S
C2227 C2208 1.429 . S
C2227 C2221 1.429 . S
C2227 C2228 1.523 . S
C2228 C2209 1.368 . S
C2228 C2222 1.368 . S
C2228 C2227 1.523 . S
C2229 C2213 1.429 . S
C2229 C2225 1.429 . S
C2229 C2230 1.523 . S
C2230 C2214 1.368 . S
C2230 C2226 1.368 . S
C2230 C2229 1.523 . S
H2231 C2206 0.950 . S
H2232 C2208 0.950 . S
H2233 C2209 0.949 . S
H2234 C2211 0.950 . S
H2235 C2213 0.950 . S
C2236 C2237 1.349 . S
C2236 C2238 1.327 . S
C2236 H2261 0.950 . S
C2237 C2236 1.349 . S
C2237 C2253 1.349 . S
C2238 C2236 1.327 . S
C2238 C2257 1.429 . S
C2238 H2262 0.950 . S
C2239 C2256 1.574 . S
C2239 C2258 1.368 . S
C2239 H2263 0.949 . S
H2240 C2244 0.949 . S
C2241 C2242 1.349 . S
C2241 C2243 1.327 . S
C2241 H2264 0.950 . S
C2242 C2241 1.349 . S
C2242 C2254 1.349 . S
C2243 C2241 1.327 . S
C2243 C2259 1.429 . S
C2243 H2265 0.950 . S
C2244 H2240 0.949 . S
C2244 C2252 1.574 . S
C2244 C2260 1.368 . S
H2245 C2253 0.950 . S
H2246 C2251 0.950 . S
H2247 C2252 0.949 . S
H2248 C2254 0.950 . S
H2249 C2255 0.950 . S
H2250 C2256 0.949 . S
C2251 H2246 0.950 . S
C2251 C2253 1.327 . S
C2251 C2257 1.429 . S
C2252 C2244 1.574 . S
C2252 H2247 0.949 . S
C2252 C2258 1.368 . S
C2253 C2237 1.349 . S
C2253 H2245 0.950 . S
C2253 C2251 1.327 . S
C2254 C2242 1.349 . S
C2254 H2248 0.950 . S
C2254 C2255 1.327 . S
C2255 H2249 0.950 . S
C2255 C2254 1.327 . S
C2255 C2259 1.429 . S
C2256 C2239 1.574 . S
C2256 H2250 0.949 . S
C2256 C2260 1.368 . S
C2257 C2238 1.429 . S
C2257 C2251 1.429 . S
C2257 C2258 1.523 . S
C2258 C2239 1.368 . S
C2258 C2252 1.368 . S
C2258 C2257 1.523 . S
C2259 C2243 1.429 . S
C2259 C2255 1.429 . S
C2259 C2260 1.523 . S
C2260 C2244 1.368 . S
C2260 C2256 1.368 . S
C2260 C2259 1.523 . S
H2261 C2236 0.950 . S
H2262 C2238 0.950 . S
H2263 C2239 0.949 . S
H2264 C2241 0.950 . S
H2265 C2243 0.950 . S
C2266 C2267 1.349 . S
C2266 C2268 1.327 . S
C2266 H2291 0.950 . S
C2267 C2266 1.349 . S
C2267 C2283 1.349 . S
C2268 C2266 1.327 . S
C2268 C2287 1.429 . S
C2268 H2292 0.950 . S
C2269 C2286 1.574 . S
C2269 C2288 1.368 . S
C2269 H2293 0.949 . S
H2270 C2274 0.949 . S
C2271 C2272 1.349 . S
C2271 C2273 1.327 . S
C2271 H2294 0.950 . S
C2272 C2271 1.349 . S
C2272 C2284 1.349 . S
C2273 C2271 1.327 . S
C2273 C2289 1.429 . S
C2273 H2295 0.950 . S
C2274 H2270 0.949 . S
C2274 C2282 1.574 . S
C2274 C2290 1.368 . S
H2275 C2283 0.950 . S
H2276 C2281 0.950 . S
H2277 C2282 0.949 . S
H2278 C2284 0.950 . S
H2279 C2285 0.950 . S
H2280 C2286 0.949 . S
C2281 H2276 0.950 . S
C2281 C2283 1.327 . S
C2281 C2287 1.429 . S
C2282 C2274 1.574 . S
C2282 H2277 0.949 . S
C2282 C2288 1.368 . S
C2283 C2267 1.349 . S
C2283 H2275 0.950 . S
C2283 C2281 1.327 . S
C2284 C2272 1.349 . S
C2284 H2278 0.950 . S
C2284 C2285 1.327 . S
C2285 H2279 0.950 . S
C2285 C2284 1.327 . S
C2285 C2289 1.429 . S
C2286 C2269 1.574 . S
C2286 H2280 0.949 . S
C2286 C2290 1.368 . S
C2287 C2268 1.429 . S
C2287 C2281 1.429 . S
C2287 C2288 1.523 . S
C2288 C2269 1.368 . S
C2288 C2282 1.368 . S
C2288 C2287 1.523 . S
C2289 C2273 1.429 . S
C2289 C2285 1.429 . S
C2289 C2290 1.523 . S
C2290 C2274 1.368 . S
C2290 C2286 1.368 . S
C2290 C2289 1.523 . S
H2291 C2266 0.950 . S
H2292 C2268 0.950 . S
H2293 C2269 0.949 . S
H2294 C2271 0.950 . S
H2295 C2273 0.950 . S
C2296 C2297 1.349 . S
C2296 C2298 1.327 . S
C2296 H2321 0.950 . S
C2297 C2296 1.349 . S
C2297 C2313 1.349 . S
C2298 C2296 1.327 . S
C2298 C2317 1.429 . S
C2298 H2322 0.950 . S
C2299 C2316 1.574 . S
C2299 C2318 1.368 . S
C2299 H2323 0.949 . S
H2300 C2304 0.949 . S
C2301 C2302 1.349 . S
C2301 C2303 1.327 . S
C2301 H2324 0.950 . S
C2302 C2301 1.349 . S
C2302 C2314 1.349 . S
C2303 C2301 1.327 . S
C2303 C2319 1.429 . S
C2303 H2325 0.950 . S
C2304 H2300 0.949 . S
C2304 C2312 1.574 . S
C2304 C2320 1.368 . S
H2305 C2313 0.950 . S
H2306 C2311 0.950 . S
H2307 C2312 0.949 . S
H2308 C2314 0.950 . S
H2309 C2315 0.950 . S
H2310 C2316 0.949 . S
C2311 H2306 0.950 . S
C2311 C2313 1.327 . S
C2311 C2317 1.429 . S
C2312 C2304 1.574 . S
C2312 H2307 0.949 . S
C2312 C2318 1.368 . S
C2313 C2297 1.349 . S
C2313 H2305 0.950 . S
C2313 C2311 1.327 . S
C2314 C2302 1.349 . S
C2314 H2308 0.950 . S
C2314 C2315 1.327 . S
C2315 H2309 0.950 . S
C2315 C2314 1.327 . S
C2315 C2319 1.429 . S
C2316 C2299 1.574 . S
C2316 H2310 0.949 . S
C2316 C2320 1.368 . S
C2317 C2298 1.429 . S
C2317 C2311 1.429 . S
C2317 C2318 1.523 . S
C2318 C2299 1.368 . S
C2318 C2312 1.368 . S
C2318 C2317 1.523 . S
C2319 C2303 1.429 . S
C2319 C2315 1.429 . S
C2319 C2320 1.523 . S
C2320 C2304 1.368 . S
C2320 C2316 1.368 . S
C2320 C2319 1.523 . S
H2321 C2296 0.950 . S
H2322 C2298 0.950 . S
H2323 C2299 0.949 . S
H2324 C2301 0.950 . S
H2325 C2303 0.950 . S
C2326 C2327 1.349 . S
C2326 C2328 1.327 . S
C2326 H2351 0.950 . S
C2327 C2326 1.349 . S
C2327 C2343 1.349 . S
C2328 C2326 1.327 . S
C2328 C2347 1.429 . S
C2328 H2352 0.950 . S
C2329 C2346 1.574 . S
C2329 C2348 1.368 . S
C2329 H2353 0.949 . S
H2330 C2334 0.949 . S
C2331 C2332 1.349 . S
C2331 C2333 1.327 . S
C2331 H2354 0.925 1_565 S
C2332 C2331 1.349 . S
C2332 C2344 1.349 . S
C2333 C2331 1.327 . S
C2333 C2349 1.429 . S
C2333 H2355 0.950 . S
C2334 H2330 0.949 . S
C2334 C2342 1.574 . S
C2334 C2350 1.368 . S
H2335 C2343 0.950 . S
H2336 C2341 0.950 . S
H2337 C2342 0.949 . S
H2338 C2344 0.950 . S
H2339 C2345 0.950 . S
H2340 C2346 0.949 . S
C2341 H2336 0.950 . S
C2341 C2343 1.327 . S
C2341 C2347 1.429 . S
C2342 C2334 1.574 . S
C2342 H2337 0.949 . S
C2342 C2348 1.368 . S
C2343 C2327 1.349 . S
C2343 H2335 0.950 . S
C2343 C2341 1.327 . S
C2344 C2332 1.349 . S
C2344 H2338 0.950 . S
C2344 C2345 1.327 . S
C2345 H2339 0.950 . S
C2345 C2344 1.327 . S
C2345 C2349 1.429 . S
C2346 C2329 1.574 . S
C2346 H2340 0.949 . S
C2346 C2350 1.368 . S
C2347 C2328 1.429 . S
C2347 C2341 1.429 . S
C2347 C2348 1.523 . S
C2348 C2329 1.368 . S
C2348 C2342 1.368 . S
C2348 C2347 1.523 . S
C2349 C2333 1.429 . S
C2349 C2345 1.429 . S
C2349 C2350 1.523 . S
C2350 C2334 1.368 . S
C2350 C2346 1.368 . S
C2350 C2349 1.523 . S
H2351 C2326 0.950 . S
H2352 C2328 0.950 . S
H2353 C2329 0.949 . S
H2354 C2331 0.925 1_545 S
H2355 C2333 0.950 . S
C2356 C2357 1.349 . S
C2356 C2358 1.327 . S
C2356 H2381 0.950 . S
C2357 C2356 1.349 . S
C2357 C2373 1.349 . S
C2358 C2356 1.327 . S
C2358 C2377 1.429 . S
C2358 H2382 0.950 . S
C2359 C2376 1.574 . S
C2359 C2378 1.368 . S
C2359 H2383 0.949 . S
H2360 C2364 0.949 . S
C2361 C2362 1.349 . S
C2361 C2363 1.327 . S
C2361 H2384 0.950 . S
C2362 C2361 1.349 . S
C2362 C2374 1.349 . S
C2363 C2361 1.327 . S
C2363 C2379 1.429 . S
C2363 H2385 0.950 . S
C2364 H2360 0.949 . S
C2364 C2372 1.574 . S
C2364 C2380 1.368 . S
H2365 C2373 0.950 . S
H2366 C2371 0.950 . S
H2367 C2372 0.949 . S
H2368 C2374 0.950 . S
H2369 C2375 0.950 . S
H2370 C2376 0.949 . S
C2371 H2366 0.950 . S
C2371 C2373 1.327 . S
C2371 C2377 1.429 . S
C2372 C2364 1.574 . S
C2372 H2367 0.949 . S
C2372 C2378 1.368 . S
C2373 C2357 1.349 . S
C2373 H2365 0.950 . S
C2373 C2371 1.327 . S
C2374 C2362 1.349 . S
C2374 H2368 0.950 . S
C2374 C2375 1.327 . S
C2375 H2369 0.950 . S
C2375 C2374 1.327 . S
C2375 C2379 1.429 . S
C2376 C2359 1.574 . S
C2376 H2370 0.949 . S
C2376 C2380 1.368 . S
C2377 C2358 1.429 . S
C2377 C2371 1.429 . S
C2377 C2378 1.523 . S
C2378 C2359 1.368 . S
C2378 C2372 1.368 . S
C2378 C2377 1.523 . S
C2379 C2363 1.429 . S
C2379 C2375 1.429 . S
C2379 C2380 1.523 . S
C2380 C2364 1.368 . S
C2380 C2376 1.368 . S
C2380 C2379 1.523 . S
H2381 C2356 0.950 . S
H2382 C2358 0.950 . S
H2383 C2359 0.949 . S
H2384 C2361 0.950 . S
H2385 C2363 0.950 . S
C2386 C2387 1.349 . S
C2386 C2388 1.327 . S
C2386 H2411 0.950 . S
C2387 C2386 1.349 . S
C2387 C2403 1.349 . S
C2388 C2386 1.327 . S
C2388 C2407 1.429 . S
C2388 H2412 0.950 . S
C2389 C2406 1.574 . S
C2389 C2408 1.368 . S
C2389 H2413 0.949 . S
H2390 C2394 0.949 . S
C2391 C2392 1.349 . S
C2391 C2393 1.327 . S
C2391 H2414 0.950 . S
C2392 C2391 1.349 . S
C2392 C2404 1.349 . S
C2393 C2391 1.327 . S
C2393 C2409 1.429 . S
C2393 H2415 0.950 . S
C2394 H2390 0.949 . S
C2394 C2402 1.574 . S
C2394 C2410 1.368 . S
H2395 C2403 0.950 . S
H2396 C2401 0.950 . S
H2397 C2402 0.949 . S
H2398 C2404 0.950 . S
H2399 C2405 0.950 . S
H2400 C2406 0.949 . S
C2401 H2396 0.950 . S
C2401 C2403 1.327 . S
C2401 C2407 1.429 . S
C2402 C2394 1.574 . S
C2402 H2397 0.949 . S
C2402 C2408 1.368 . S
C2403 C2387 1.349 . S
C2403 H2395 0.950 . S
C2403 C2401 1.327 . S
C2404 C2392 1.349 . S
C2404 H2398 0.950 . S
C2404 C2405 1.327 . S
C2405 H2399 0.950 . S
C2405 C2404 1.327 . S
C2405 C2409 1.429 . S
C2406 C2389 1.574 . S
C2406 H2400 0.949 . S
C2406 C2410 1.368 . S
C2407 C2388 1.429 . S
C2407 C2401 1.429 . S
C2407 C2408 1.523 . S
C2408 C2389 1.368 . S
C2408 C2402 1.368 . S
C2408 C2407 1.523 . S
C2409 C2393 1.429 . S
C2409 C2405 1.429 . S
C2409 C2410 1.523 . S
C2410 C2394 1.368 . S
C2410 C2406 1.368 . S
C2410 C2409 1.523 . S
H2411 C2386 0.950 . S
H2412 C2388 0.950 . S
H2413 C2389 0.949 . S
H2414 C2391 0.950 . S
H2415 C2393 0.950 . S
C2416 C2417 1.349 . S
C2416 C2418 1.327 . S
C2416 H2441 0.950 . S
C2417 C2416 1.349 . S
C2417 C2433 1.349 . S
C2418 C2416 1.327 . S
C2418 C2437 1.429 . S
C2418 H2442 0.950 . S
C2419 C2436 1.574 . S
C2419 C2438 1.368 . S
C2419 H2443 0.949 . S
H2420 C2424 0.949 . S
C2421 C2422 1.349 . S
C2421 C2423 1.327 . S
C2421 H2444 0.950 . S
C2422 C2421 1.349 . S
C2422 C2434 1.349 . S
C2423 C2421 1.327 . S
C2423 C2439 1.429 . S
C2423 H2445 0.950 . S
C2424 H2420 0.949 . S
C2424 C2432 1.574 . S
C2424 C2440 1.368 . S
H2425 C2433 0.950 . S
H2426 C2431 0.950 . S
H2427 C2432 0.949 . S
H2428 C2434 0.950 . S
H2429 C2435 0.950 . S
H2430 C2436 0.949 . S
C2431 H2426 0.950 . S
C2431 C2433 1.327 . S
C2431 C2437 1.429 . S
C2432 C2424 1.574 . S
C2432 H2427 0.949 . S
C2432 C2438 1.368 . S
C2433 C2417 1.349 . S
C2433 H2425 0.950 . S
C2433 C2431 1.327 . S
C2434 C2422 1.349 . S
C2434 H2428 0.950 . S
C2434 C2435 1.327 . S
C2435 H2429 0.950 . S
C2435 C2434 1.327 . S
C2435 C2439 1.429 . S
C2436 C2419 1.574 . S
C2436 H2430 0.949 . S
C2436 C2440 1.368 . S
C2437 C2418 1.429 . S
C2437 C2431 1.429 . S
C2437 C2438 1.523 . S
C2438 C2419 1.368 . S
C2438 C2432 1.368 . S
C2438 C2437 1.523 . S
C2439 C2423 1.429 . S
C2439 C2435 1.429 . S
C2439 C2440 1.523 . S
C2440 C2424 1.368 . S
C2440 C2436 1.368 . S
C2440 C2439 1.523 . S
H2441 C2416 0.950 . S
H2442 C2418 0.950 . S
H2443 C2419 0.949 . S
H2444 C2421 0.950 . S
H2445 C2423 0.950 . S
C2446 C2447 1.349 . S
C2446 C2448 1.327 . S
C2446 H2471 0.950 . S
C2447 C2446 1.349 . S
C2447 C2463 1.349 . S
C2448 C2446 1.327 . S
C2448 C2467 1.429 . S
C2448 H2472 0.950 . S
C2449 C2466 1.574 . S
C2449 C2468 1.368 . S
C2449 H2473 0.949 . S
H2450 C2454 0.949 . S
C2451 C2452 1.349 . S
C2451 C2453 1.327 . S
C2451 H2474 0.950 . S
C2452 C2451 1.349 . S
C2452 C2464 1.349 . S
C2453 C2451 1.327 . S
C2453 C2469 1.429 . S
C2453 H2475 0.950 . S
C2454 H2450 0.949 . S
C2454 C2462 1.574 . S
C2454 C2470 1.368 . S
H2455 C2463 0.950 . S
H2456 C2461 0.950 . S
H2457 C2462 0.949 . S
H2458 C2464 0.950 . S
H2459 C2465 0.950 . S
H2460 C2466 0.949 . S
C2461 H2456 0.950 . S
C2461 C2463 1.327 . S
C2461 C2467 1.429 . S
C2462 C2454 1.574 . S
C2462 H2457 0.949 . S
C2462 C2468 1.368 . S
C2463 C2447 1.349 . S
C2463 H2455 0.950 . S
C2463 C2461 1.327 . S
C2464 C2452 1.349 . S
C2464 H2458 0.950 . S
C2464 C2465 1.327 . S
C2465 H2459 0.950 . S
C2465 C2464 1.327 . S
C2465 C2469 1.429 . S
C2466 C2449 1.574 . S
C2466 H2460 0.949 . S
C2466 C2470 1.368 . S
C2467 C2448 1.429 . S
C2467 C2461 1.429 . S
C2467 C2468 1.523 . S
C2468 C2449 1.368 . S
C2468 C2462 1.368 . S
C2468 C2467 1.523 . S
C2469 C2453 1.429 . S
C2469 C2465 1.429 . S
C2469 C2470 1.523 . S
C2470 C2454 1.368 . S
C2470 C2466 1.368 . S
C2470 C2469 1.523 . S
H2471 C2446 0.950 . S
H2472 C2448 0.950 . S
H2473 C2449 0.949 . S
H2474 C2451 0.950 . S
H2475 C2453 0.950 . S
C2476 C2477 1.349 1_655 S
C2476 C2478 1.327 . S
C2476 H2501 0.950 . S
C2477 C2476 1.349 1_455 S
C2477 C2493 1.349 . S
C2478 C2476 1.327 . S
C2478 C2497 1.429 1_655 S
C2478 H2502 0.950 . S
C2479 C2496 1.574 . S
C2479 C2498 1.368 . S
C2479 H2503 0.949 . S
H2480 C2484 0.949 1_655 S
C2481 C2482 1.349 . S
C2481 C2483 1.327 . S
C2481 H2504 0.950 . S
C2482 C2481 1.349 . S
C2482 C2494 1.349 . S
C2483 C2481 1.327 . S
C2483 C2499 1.429 . S
C2483 H2505 0.950 . S
C2484 H2480 0.949 1_455 S
C2484 C2492 1.574 1_455 S
C2484 C2500 1.368 . S
H2485 C2493 0.950 . S
H2486 C2491 0.950 . S
H2487 C2492 0.950 . S
H2488 C2494 0.950 . S
H2489 C2495 0.950 1_655 S
H2490 C2496 0.949 . S
C2491 H2486 0.950 . S
C2491 C2493 1.327 . S
C2491 C2497 1.429 . S
C2492 C2484 1.574 1_655 S
C2492 H2487 0.950 . S
C2492 C2498 1.367 1_655 S
C2493 C2477 1.349 . S
C2493 H2485 0.950 . S
C2493 C2491 1.327 . S
C2494 C2482 1.349 . S
C2494 H2488 0.950 . S
C2494 C2495 1.327 . S
C2495 H2489 0.950 1_455 S
C2495 C2494 1.327 . S
C2495 C2499 1.429 . S
C2496 C2479 1.574 . S
C2496 H2490 0.949 . S
C2496 C2500 1.368 . S
C2497 C2478 1.429 1_455 S
C2497 C2491 1.429 . S
C2497 C2498 1.523 . S
C2498 C2479 1.368 . S
C2498 C2492 1.367 1_455 S
C2498 C2497 1.523 . S
C2499 C2483 1.429 . S
C2499 C2495 1.429 . S
C2499 C2500 1.523 . S
C2500 C2484 1.368 . S
C2500 C2496 1.368 . S
C2500 C2499 1.523 . S
H2501 C2476 0.950 . S
H2502 C2478 0.950 . S
H2503 C2479 0.949 . S
H2504 C2481 0.950 . S
H2505 C2483 0.950 . S
C2506 C2507 1.349 . S
C2506 C2508 1.327 . S
C2506 H2531 0.950 . S
C2507 C2506 1.349 . S
C2507 C2523 1.349 . S
C2508 C2506 1.327 . S
C2508 C2527 1.418 1_455 S
C2508 H2532 0.950 . S
C2509 C2526 1.574 . S
C2509 C2528 1.368 . S
C2509 H2533 0.949 . S
H2510 C2514 0.949 . S
C2511 C2512 1.349 . S
C2511 C2513 1.327 . S
C2511 H2534 0.950 . S
C2512 C2511 1.349 . S
C2512 C2524 1.349 . S
C2513 C2511 1.327 . S
C2513 C2529 1.429 . S
C2513 H2535 0.950 . S
C2514 H2510 0.949 . S
C2514 C2522 1.574 . S
C2514 C2530 1.368 . S
H2515 C2523 0.950 . S
H2516 C2521 0.950 . S
H2517 C2522 0.949 . S
H2518 C2524 0.950 . S
H2519 C2525 0.950 . S
H2520 C2526 0.949 . S
C2521 H2516 0.950 . S
C2521 C2523 1.327 . S
C2521 C2527 1.400 1_455 S
C2522 C2514 1.574 . S
C2522 H2517 0.949 . S
C2522 C2528 1.368 . S
C2523 C2507 1.349 . S
C2523 H2515 0.950 . S
C2523 C2521 1.327 . S
C2524 C2512 1.349 . S
C2524 H2518 0.950 . S
C2524 C2525 1.327 . S
C2525 H2519 0.950 . S
C2525 C2524 1.327 . S
C2525 C2529 1.429 . S
C2526 C2509 1.574 . S
C2526 H2520 0.949 . S
C2526 C2530 1.368 . S
C2527 C2508 1.418 1_655 S
C2527 C2521 1.400 1_655 S
C2527 C2528 1.560 . S
C2528 C2509 1.368 . S
C2528 C2522 1.368 . S
C2528 C2527 1.560 . S
C2529 C2513 1.429 . S
C2529 C2525 1.429 . S
C2529 C2530 1.523 . S
C2530 C2514 1.368 . S
C2530 C2526 1.368 . S
C2530 C2529 1.523 . S
H2531 C2506 0.950 . S
H2532 C2508 0.950 . S
H2533 C2509 0.949 . S
H2534 C2511 0.950 . S
H2535 C2513 0.950 . S
C2536 C2537 1.349 . S
C2536 C2538 1.327 . S
C2536 H2561 0.950 . S
C2537 C2536 1.349 . S
C2537 C2553 1.349 . S
C2538 C2536 1.327 . S
C2538 C2557 1.429 . S
C2538 H2562 0.950 . S
C2539 C2556 1.574 . S
C2539 C2558 1.368 . S
C2539 H2563 0.949 . S
H2540 C2544 0.949 . S
C2541 C2542 1.349 . S
C2541 C2543 1.327 . S
C2541 H2564 0.950 . S
C2542 C2541 1.349 . S
C2542 C2554 1.349 . S
C2543 C2541 1.327 . S
C2543 C2559 1.429 . S
C2543 H2565 0.950 . S
C2544 H2540 0.949 . S
C2544 C2552 1.574 . S
C2544 C2560 1.368 . S
H2545 C2553 0.950 . S
H2546 C2551 0.950 . S
H2547 C2552 0.949 . S
H2548 C2554 0.950 . S
H2549 C2555 0.950 . S
H2550 C2556 0.949 . S
C2551 H2546 0.950 . S
C2551 C2553 1.327 . S
C2551 C2557 1.429 . S
C2552 C2544 1.574 . S
C2552 H2547 0.949 . S
C2552 C2558 1.368 . S
C2553 C2537 1.349 . S
C2553 H2545 0.950 . S
C2553 C2551 1.327 . S
C2554 C2542 1.349 . S
C2554 H2548 0.950 . S
C2554 C2555 1.327 . S
C2555 H2549 0.950 . S
C2555 C2554 1.327 . S
C2555 C2559 1.429 . S
C2556 C2539 1.574 . S
C2556 H2550 0.949 . S
C2556 C2560 1.368 . S
C2557 C2538 1.429 . S
C2557 C2551 1.429 . S
C2557 C2558 1.523 . S
C2558 C2539 1.368 . S
C2558 C2552 1.368 . S
C2558 C2557 1.523 . S
C2559 C2543 1.429 . S
C2559 C2555 1.429 . S
C2559 C2560 1.523 . S
C2560 C2544 1.368 . S
C2560 C2556 1.368 . S
C2560 C2559 1.523 . S
H2561 C2536 0.950 . S
H2562 C2538 0.950 . S
H2563 C2539 0.949 . S
H2564 C2541 0.950 . S
H2565 C2543 0.950 . S
C2566 C2567 1.349 . S
C2566 C2568 1.327 . S
C2566 H2591 0.950 . S
C2567 C2566 1.349 . S
C2567 C2583 1.349 . S
C2568 C2566 1.327 . S
C2568 C2587 1.429 . S
C2568 H2592 0.950 . S
C2569 C2586 1.574 . S
C2569 C2588 1.368 . S
C2569 H2593 0.949 . S
H2570 C2574 0.949 . S
C2571 C2572 1.349 . S
C2571 C2573 1.327 . S
C2571 H2594 0.950 . S
C2572 C2571 1.349 . S
C2572 C2584 1.349 . S
C2573 C2571 1.327 . S
C2573 C2589 1.429 . S
C2573 H2595 0.950 . S
C2574 H2570 0.949 . S
C2574 C2582 1.574 . S
C2574 C2590 1.368 . S
H2575 C2583 0.950 . S
H2576 C2581 0.950 . S
H2577 C2582 0.949 . S
H2578 C2584 0.950 . S
H2579 C2585 0.950 . S
H2580 C2586 0.949 . S
C2581 H2576 0.950 . S
C2581 C2583 1.327 . S
C2581 C2587 1.429 . S
C2582 C2574 1.574 . S
C2582 H2577 0.949 . S
C2582 C2588 1.368 . S
C2583 C2567 1.349 . S
C2583 H2575 0.950 . S
C2583 C2581 1.327 . S
C2584 C2572 1.349 . S
C2584 H2578 0.950 . S
C2584 C2585 1.327 . S
C2585 H2579 0.950 . S
C2585 C2584 1.327 . S
C2585 C2589 1.429 . S
C2586 C2569 1.574 . S
C2586 H2580 0.949 . S
C2586 C2590 1.368 . S
C2587 C2568 1.429 . S
C2587 C2581 1.429 . S
C2587 C2588 1.523 . S
C2588 C2569 1.368 . S
C2588 C2582 1.368 . S
C2588 C2587 1.523 . S
C2589 C2573 1.429 . S
C2589 C2585 1.429 . S
C2589 C2590 1.523 . S
C2590 C2574 1.368 . S
C2590 C2586 1.368 . S
C2590 C2589 1.523 . S
H2591 C2566 0.950 . S
H2592 C2568 0.950 . S
H2593 C2569 0.949 . S
H2594 C2571 0.950 . S
H2595 C2573 0.950 . S
C2596 C2597 1.349 . S
C2596 C2598 1.327 . S
C2596 H2621 0.950 . S
C2597 C2596 1.349 . S
C2597 C2613 1.349 . S
C2598 C2596 1.327 . S
C2598 C2617 1.429 . S
C2598 H2622 0.950 . S
C2599 C2616 1.574 . S
C2599 C2618 1.368 . S
C2599 H2623 0.949 . S
H2600 C2604 0.949 . S
C2601 C2602 1.349 . S
C2601 C2603 1.327 . S
C2601 H2624 0.950 . S
C2602 C2601 1.349 . S
C2602 C2614 1.349 . S
C2603 C2601 1.327 . S
C2603 C2619 1.429 . S
C2603 H2625 0.950 . S
C2604 H2600 0.949 . S
C2604 C2612 1.574 . S
C2604 C2620 1.368 . S
H2605 C2613 0.950 . S
H2606 C2611 0.950 . S
H2607 C2612 0.949 . S
H2608 C2614 0.950 . S
H2609 C2615 0.950 . S
H2610 C2616 0.949 . S
C2611 H2606 0.950 . S
C2611 C2613 1.327 . S
C2611 C2617 1.429 . S
C2612 C2604 1.574 . S
C2612 H2607 0.949 . S
C2612 C2618 1.368 . S
C2613 C2597 1.349 . S
C2613 H2605 0.950 . S
C2613 C2611 1.327 . S
C2614 C2602 1.349 . S
C2614 H2608 0.950 . S
C2614 C2615 1.327 . S
C2615 H2609 0.950 . S
C2615 C2614 1.327 . S
C2615 C2619 1.429 . S
C2616 C2599 1.574 . S
C2616 H2610 0.949 . S
C2616 C2620 1.368 . S
C2617 C2598 1.429 . S
C2617 C2611 1.429 . S
C2617 C2618 1.523 . S
C2618 C2599 1.368 . S
C2618 C2612 1.368 . S
C2618 C2617 1.523 . S
C2619 C2603 1.429 . S
C2619 C2615 1.429 . S
C2619 C2620 1.523 . S
C2620 C2604 1.368 . S
C2620 C2616 1.368 . S
C2620 C2619 1.523 . S
H2621 C2596 0.950 . S
H2622 C2598 0.950 . S
H2623 C2599 0.949 . S
H2624 C2601 0.950 . S
H2625 C2603 0.950 . S
C2626 C2627 1.349 . S
C2626 C2628 1.327 . S
C2626 H2651 0.950 . S
C2627 C2626 1.349 . S
C2627 C2643 1.349 . S
C2628 C2626 1.327 . S
C2628 C2647 1.429 . S
C2628 H2652 0.950 . S
C2629 C2646 1.574 . S
C2629 C2648 1.368 . S
C2629 H2653 0.949 . S
H2630 C2634 0.949 . S
C2631 C2632 1.349 . S
C2631 C2633 1.327 . S
C2631 H2654 0.950 . S
C2632 C2631 1.349 . S
C2632 C2644 1.349 . S
C2633 C2631 1.327 . S
C2633 C2649 1.429 . S
C2633 H2655 0.950 . S
C2634 H2630 0.949 . S
C2634 C2642 1.574 . S
C2634 C2650 1.368 . S
H2635 C2643 0.950 . S
H2636 C2641 0.950 . S
H2637 C2642 0.949 . S
H2638 C2644 0.950 . S
H2639 C2645 0.950 . S
H2640 C2646 0.949 . S
C2641 H2636 0.950 . S
C2641 C2643 1.327 . S
C2641 C2647 1.429 . S
C2642 C2634 1.574 . S
C2642 H2637 0.949 . S
C2642 C2648 1.368 . S
C2643 C2627 1.349 . S
C2643 H2635 0.950 . S
C2643 C2641 1.327 . S
C2644 C2632 1.349 . S
C2644 H2638 0.950 . S
C2644 C2645 1.327 . S
C2645 H2639 0.950 . S
C2645 C2644 1.327 . S
C2645 C2649 1.429 . S
C2646 C2629 1.574 . S
C2646 H2640 0.949 . S
C2646 C2650 1.368 . S
C2647 C2628 1.429 . S
C2647 C2641 1.429 . S
C2647 C2648 1.523 . S
C2648 C2629 1.368 . S
C2648 C2642 1.368 . S
C2648 C2647 1.523 . S
C2649 C2633 1.429 . S
C2649 C2645 1.429 . S
C2649 C2650 1.523 . S
C2650 C2634 1.368 . S
C2650 C2646 1.368 . S
C2650 C2649 1.523 . S
H2651 C2626 0.950 . S
H2652 C2628 0.950 . S
H2653 C2629 0.949 . S
H2654 C2631 0.950 . S
H2655 C2633 0.950 . S
C2656 C2657 1.349 . S
C2656 C2658 1.327 . S
C2656 H2681 0.950 . S
C2657 C2656 1.349 . S
C2657 C2673 1.349 . S
C2658 C2656 1.327 . S
C2658 C2677 1.429 . S
C2658 H2682 0.950 . S
C2659 C2676 1.574 . S
C2659 C2678 1.368 . S
C2659 H2683 0.949 . S
H2660 C2664 0.949 . S
C2661 C2662 1.349 . S
C2661 C2663 1.327 . S
C2661 H2684 0.950 . S
C2662 C2661 1.349 . S
C2662 C2674 1.349 . S
C2663 C2661 1.327 . S
C2663 C2679 1.429 . S
C2663 H2685 0.950 . S
C2664 H2660 0.949 . S
C2664 C2672 1.574 . S
C2664 C2680 1.368 . S
H2665 C2673 0.950 . S
H2666 C2671 0.950 . S
H2667 C2672 0.949 . S
H2668 C2674 0.950 . S
H2669 C2675 0.950 . S
H2670 C2676 0.949 . S
C2671 H2666 0.950 . S
C2671 C2673 1.327 . S
C2671 C2677 1.429 . S
C2672 C2664 1.574 . S
C2672 H2667 0.949 . S
C2672 C2678 1.368 . S
C2673 C2657 1.349 . S
C2673 H2665 0.950 . S
C2673 C2671 1.327 . S
C2674 C2662 1.349 . S
C2674 H2668 0.950 . S
C2674 C2675 1.327 . S
C2675 H2669 0.950 . S
C2675 C2674 1.327 . S
C2675 C2679 1.429 . S
C2676 C2659 1.574 . S
C2676 H2670 0.949 . S
C2676 C2680 1.368 . S
C2677 C2658 1.429 . S
C2677 C2671 1.429 . S
C2677 C2678 1.523 . S
C2678 C2659 1.368 . S
C2678 C2672 1.368 . S
C2678 C2677 1.523 . S
C2679 C2663 1.429 . S
C2679 C2675 1.429 . S
C2679 C2680 1.523 . S
C2680 C2664 1.368 . S
C2680 C2676 1.368 . S
C2680 C2679 1.523 . S
H2681 C2656 0.950 . S
H2682 C2658 0.950 . S
H2683 C2659 0.949 . S
H2684 C2661 0.950 . S
H2685 C2663 0.950 . S
C2686 C2687 1.349 . S
C2686 C2688 1.327 . S
C2686 H2711 0.950 . S
C2687 C2686 1.349 . S
C2687 C2703 1.349 . S
C2688 C2686 1.327 . S
C2688 C2707 1.429 . S
C2688 H2712 0.950 . S
C2689 C2706 1.574 . S
C2689 C2708 1.368 . S
C2689 H2713 0.949 . S
H2690 C2694 0.949 . S
C2691 C2692 1.349 . S
C2691 C2693 1.327 . S
C2691 H2714 0.950 . S
C2692 C2691 1.349 . S
C2692 C2704 1.349 . S
C2693 C2691 1.327 . S
C2693 C2709 1.429 . S
C2693 H2715 0.950 . S
C2694 H2690 0.949 . S
C2694 C2702 1.574 . S
C2694 C2710 1.368 . S
H2695 C2703 0.950 . S
H2696 C2701 0.950 . S
H2697 C2702 0.949 . S
H2698 C2704 0.950 . S
H2699 C2705 0.950 . S
H2700 C2706 0.949 . S
C2701 H2696 0.950 . S
C2701 C2703 1.327 . S
C2701 C2707 1.429 . S
C2702 C2694 1.574 . S
C2702 H2697 0.949 . S
C2702 C2708 1.368 . S
C2703 C2687 1.349 . S
C2703 H2695 0.950 . S
C2703 C2701 1.327 . S
C2704 C2692 1.349 . S
C2704 H2698 0.950 . S
C2704 C2705 1.327 . S
C2705 H2699 0.950 . S
C2705 C2704 1.327 . S
C2705 C2709 1.429 . S
C2706 C2689 1.574 . S
C2706 H2700 0.949 . S
C2706 C2710 1.368 . S
C2707 C2688 1.429 . S
C2707 C2701 1.429 . S
C2707 C2708 1.523 . S
C2708 C2689 1.368 . S
C2708 C2702 1.368 . S
C2708 C2707 1.523 . S
C2709 C2693 1.429 . S
C2709 C2705 1.429 . S
C2709 C2710 1.523 . S
C2710 C2694 1.368 . S
C2710 C2706 1.368 . S
C2710 C2709 1.523 . S
H2711 C2686 0.950 . S
H2712 C2688 0.950 . S
H2713 C2689 0.949 . S
H2714 C2691 0.950 . S
H2715 C2693 0.950 . S
C2716 C2717 1.349 . S
C2716 C2718 1.327 . S
C2716 H2741 0.950 . S
C2717 C2716 1.349 . S
C2717 C2733 1.349 . S
C2718 C2716 1.327 . S
C2718 C2737 1.429 . S
C2718 H2742 0.950 . S
C2719 C2736 1.574 . S
C2719 C2738 1.368 . S
C2719 H2743 0.949 . S
H2720 C2724 0.949 . S
C2721 C2722 1.349 . S
C2721 C2723 1.327 . S
C2721 H2744 0.950 . S
C2722 C2721 1.349 . S
C2722 C2734 1.349 . S
C2723 C2721 1.327 . S
C2723 C2739 1.429 . S
C2723 H2745 0.950 . S
C2724 H2720 0.949 . S
C2724 C2732 1.574 . S
C2724 C2740 1.368 . S
H2725 C2733 0.950 . S
H2726 C2731 0.950 . S
H2727 C2732 0.949 . S
H2728 C2734 0.950 . S
H2729 C2735 0.950 . S
H2730 C2736 0.949 . S
C2731 H2726 0.950 . S
C2731 C2733 1.327 . S
C2731 C2737 1.429 . S
C2732 C2724 1.574 . S
C2732 H2727 0.949 . S
C2732 C2738 1.368 . S
C2733 C2717 1.349 . S
C2733 H2725 0.950 . S
C2733 C2731 1.327 . S
C2734 C2722 1.349 . S
C2734 H2728 0.950 . S
C2734 C2735 1.327 . S
C2735 H2729 0.950 . S
C2735 C2734 1.327 . S
C2735 C2739 1.429 . S
C2736 C2719 1.574 . S
C2736 H2730 0.949 . S
C2736 C2740 1.368 . S
C2737 C2718 1.429 . S
C2737 C2731 1.429 . S
C2737 C2738 1.523 . S
C2738 C2719 1.368 . S
C2738 C2732 1.368 . S
C2738 C2737 1.523 . S
C2739 C2723 1.429 . S
C2739 C2735 1.429 . S
C2739 C2740 1.523 . S
C2740 C2724 1.368 . S
C2740 C2736 1.368 . S
C2740 C2739 1.523 . S
H2741 C2716 0.950 . S
H2742 C2718 0.950 . S
H2743 C2719 0.949 . S
H2744 C2721 0.950 . S
H2745 C2723 0.950 . S
C2746 C2747 1.349 . S
C2746 C2748 1.327 . S
C2746 H2771 0.950 . S
C2747 C2746 1.349 . S
C2747 C2763 1.349 . S
C2748 C2746 1.327 . S
C2748 C2767 1.429 . S
C2748 H2772 0.950 . S
C2749 C2766 1.574 . S
C2749 C2768 1.368 . S
C2749 H2773 0.949 . S
H2750 C2754 0.949 . S
C2751 C2752 1.349 . S
C2751 C2753 1.327 . S
C2751 H2774 0.950 . S
C2752 C2751 1.349 . S
C2752 C2764 1.349 . S
C2753 C2751 1.327 . S
C2753 C2769 1.429 . S
C2753 H2775 0.950 . S
C2754 H2750 0.949 . S
C2754 C2762 1.574 . S
C2754 C2770 1.368 . S
H2755 C2763 0.950 . S
H2756 C2761 0.950 . S
H2757 C2762 0.949 . S
H2758 C2764 0.950 . S
H2759 C2765 0.950 . S
H2760 C2766 0.949 . S
C2761 H2756 0.950 . S
C2761 C2763 1.327 . S
C2761 C2767 1.429 . S
C2762 C2754 1.574 . S
C2762 H2757 0.949 . S
C2762 C2768 1.368 . S
C2763 C2747 1.349 . S
C2763 H2755 0.950 . S
C2763 C2761 1.327 . S
C2764 C2752 1.349 . S
C2764 H2758 0.950 . S
C2764 C2765 1.327 . S
C2765 H2759 0.950 . S
C2765 C2764 1.327 . S
C2765 C2769 1.429 . S
C2766 C2749 1.574 . S
C2766 H2760 0.949 . S
C2766 C2770 1.368 . S
C2767 C2748 1.429 . S
C2767 C2761 1.429 . S
C2767 C2768 1.523 . S
C2768 C2749 1.368 . S
C2768 C2762 1.368 . S
C2768 C2767 1.523 . S
C2769 C2753 1.429 . S
C2769 C2765 1.429 . S
C2769 C2770 1.523 . S
C2770 C2754 1.368 . S
C2770 C2766 1.368 . S
C2770 C2769 1.523 . S
H2771 C2746 0.950 . S
H2772 C2748 0.950 . S
H2773 C2749 0.949 . S
H2774 C2751 0.950 . S
H2775 C2753 0.950 . S
C2776 C2777 1.349 . S
C2776 C2778 1.327 . S
C2776 H2801 0.950 . S
C2777 C2776 1.349 . S
C2777 C2793 1.349 . S
C2778 C2776 1.327 . S
C2778 C2797 1.429 . S
C2778 H2802 0.950 . S
C2779 C2796 1.574 . S
C2779 C2798 1.368 . S
C2779 H2803 0.949 . S
H2780 C2784 0.949 . S
C2781 C2782 1.349 . S
C2781 C2783 1.327 . S
C2781 H2804 0.950 . S
C2782 C2781 1.349 . S
C2782 C2794 1.349 . S
C2783 C2781 1.327 . S
C2783 C2799 1.429 . S
C2783 H2805 0.950 . S
C2784 H2780 0.949 . S
C2784 C2792 1.574 . S
C2784 C2800 1.368 . S
H2785 C2793 0.950 . S
H2786 C2791 0.950 . S
H2787 C2792 0.949 . S
H2788 C2794 0.950 . S
H2789 C2795 0.950 . S
H2790 C2796 0.949 . S
C2791 H2786 0.950 . S
C2791 C2793 1.327 . S
C2791 C2797 1.429 . S
C2792 C2784 1.574 . S
C2792 H2787 0.949 . S
C2792 C2798 1.368 . S
C2793 C2777 1.349 . S
C2793 H2785 0.950 . S
C2793 C2791 1.327 . S
C2794 C2782 1.349 . S
C2794 H2788 0.950 . S
C2794 C2795 1.327 . S
C2795 H2789 0.950 . S
C2795 C2794 1.327 . S
C2795 C2799 1.429 . S
C2796 C2779 1.574 . S
C2796 H2790 0.949 . S
C2796 C2800 1.368 . S
C2797 C2778 1.429 . S
C2797 C2791 1.429 . S
C2797 C2798 1.523 . S
C2798 C2779 1.368 . S
C2798 C2792 1.368 . S
C2798 C2797 1.523 . S
C2799 C2783 1.429 . S
C2799 C2795 1.429 . S
C2799 C2800 1.523 . S
C2800 C2784 1.368 . S
C2800 C2796 1.368 . S
C2800 C2799 1.523 . S
H2801 C2776 0.950 . S
H2802 C2778 0.950 . S
H2803 C2779 0.949 . S
H2804 C2781 0.950 . S
H2805 C2783 0.950 . S
C2806 C2807 1.349 . S
C2806 C2808 1.327 . S
C2806 H2831 0.950 . S
C2807 C2806 1.349 . S
C2807 C2823 1.349 . S
C2808 C2806 1.327 . S
C2808 C2827 1.429 . S
C2808 H2832 0.950 . S
C2809 C2826 1.574 . S
C2809 C2828 1.368 . S
C2809 H2833 0.949 . S
H2810 C2814 0.949 . S
C2811 C2812 1.349 . S
C2811 C2813 1.327 . S
C2811 H2834 0.950 . S
C2812 C2811 1.349 . S
C2812 C2824 1.349 . S
C2813 C2811 1.327 . S
C2813 C2829 1.429 . S
C2813 H2835 0.950 . S
C2814 H2810 0.949 . S
C2814 C2822 1.574 . S
C2814 C2830 1.368 . S
H2815 C2823 0.950 . S
H2816 C2821 0.950 . S
H2817 C2822 0.949 . S
H2818 C2824 0.950 . S
H2819 C2825 0.950 . S
H2820 C2826 0.949 . S
C2821 H2816 0.950 . S
C2821 C2823 1.327 . S
C2821 C2827 1.429 . S
C2822 C2814 1.574 . S
C2822 H2817 0.949 . S
C2822 C2828 1.368 . S
C2823 C2807 1.349 . S
C2823 H2815 0.950 . S
C2823 C2821 1.327 . S
C2824 C2812 1.349 . S
C2824 H2818 0.950 . S
C2824 C2825 1.327 . S
C2825 H2819 0.950 . S
C2825 C2824 1.327 . S
C2825 C2829 1.429 . S
C2826 C2809 1.574 . S
C2826 H2820 0.949 . S
C2826 C2830 1.368 . S
C2827 C2808 1.429 . S
C2827 C2821 1.429 . S
C2827 C2828 1.523 . S
C2828 C2809 1.368 . S
C2828 C2822 1.368 . S
C2828 C2827 1.523 . S
C2829 C2813 1.429 . S
C2829 C2825 1.429 . S
C2829 C2830 1.523 . S
C2830 C2814 1.368 . S
C2830 C2826 1.368 . S
C2830 C2829 1.523 . S
H2831 C2806 0.950 . S
H2832 C2808 0.950 . S
H2833 C2809 0.949 . S
H2834 C2811 0.950 . S
H2835 C2813 0.950 . S
C2836 C2837 1.349 . S
C2836 C2838 1.327 . S
C2836 H2861 0.950 . S
C2837 C2836 1.349 . S
C2837 C2853 1.349 . S
C2838 C2836 1.327 . S
C2838 C2857 1.429 . S
C2838 H2862 0.950 . S
C2839 C2856 1.574 . S
C2839 C2858 1.368 . S
C2839 H2863 0.949 . S
H2840 C2844 0.949 . S
C2841 C2842 1.349 . S
C2841 C2843 1.327 . S
C2841 H2864 0.950 . S
C2842 C2841 1.349 . S
C2842 C2854 1.349 . S
C2843 C2841 1.327 . S
C2843 C2859 1.429 . S
C2843 H2865 0.950 . S
C2844 H2840 0.949 . S
C2844 C2852 1.574 . S
C2844 C2860 1.368 . S
H2845 C2853 0.950 . S
H2846 C2851 0.950 . S
H2847 C2852 0.949 . S
H2848 C2854 0.950 . S
H2849 C2855 0.950 . S
H2850 C2856 0.949 . S
C2851 H2846 0.950 . S
C2851 C2853 1.327 . S
C2851 C2857 1.429 . S
C2852 C2844 1.574 . S
C2852 H2847 0.949 . S
C2852 C2858 1.368 . S
C2853 C2837 1.349 . S
C2853 H2845 0.950 . S
C2853 C2851 1.327 . S
C2854 C2842 1.349 . S
C2854 H2848 0.950 . S
C2854 C2855 1.327 . S
C2855 H2849 0.950 . S
C2855 C2854 1.327 . S
C2855 C2859 1.429 . S
C2856 C2839 1.574 . S
C2856 H2850 0.949 . S
C2856 C2860 1.368 . S
C2857 C2838 1.429 . S
C2857 C2851 1.429 . S
C2857 C2858 1.523 . S
C2858 C2839 1.368 . S
C2858 C2852 1.368 . S
C2858 C2857 1.523 . S
C2859 C2843 1.429 . S
C2859 C2855 1.429 . S
C2859 C2860 1.523 . S
C2860 C2844 1.368 . S
C2860 C2856 1.368 . S
C2860 C2859 1.523 . S
H2861 C2836 0.950 . S
H2862 C2838 0.950 . S
H2863 C2839 0.949 . S
H2864 C2841 0.950 . S
H2865 C2843 0.950 . S
C2866 C2867 1.349 . S
C2866 C2868 1.327 . S
C2866 H2891 0.950 . S
C2867 C2866 1.349 . S
C2867 C2883 1.349 . S
C2868 C2866 1.327 . S
C2868 C2887 1.429 . S
C2868 H2892 0.950 . S
C2869 C2886 1.574 . S
C2869 C2888 1.368 . S
C2869 H2893 0.949 . S
H2870 C2874 0.949 . S
C2871 C2872 1.349 . S
C2871 C2873 1.327 . S
C2871 H2894 0.950 . S
C2872 C2871 1.349 . S
C2872 C2884 1.349 . S
C2873 C2871 1.327 . S
C2873 C2889 1.429 . S
C2873 H2895 0.950 . S
C2874 H2870 0.949 . S
C2874 C2882 1.574 . S
C2874 C2890 1.368 . S
H2875 C2883 0.950 . S
H2876 C2881 0.950 . S
H2877 C2882 0.949 . S
H2878 C2884 0.950 . S
H2879 C2885 0.950 . S
H2880 C2886 0.949 . S
C2881 H2876 0.950 . S
C2881 C2883 1.327 . S
C2881 C2887 1.429 . S
C2882 C2874 1.574 . S
C2882 H2877 0.949 . S
C2882 C2888 1.368 . S
C2883 C2867 1.349 . S
C2883 H2875 0.950 . S
C2883 C2881 1.327 . S
C2884 C2872 1.349 . S
C2884 H2878 0.950 . S
C2884 C2885 1.327 . S
C2885 H2879 0.950 . S
C2885 C2884 1.327 . S
C2885 C2889 1.429 . S
C2886 C2869 1.574 . S
C2886 H2880 0.949 . S
C2886 C2890 1.368 . S
C2887 C2868 1.429 . S
C2887 C2881 1.429 . S
C2887 C2888 1.523 . S
C2888 C2869 1.368 . S
C2888 C2882 1.368 . S
C2888 C2887 1.523 . S
C2889 C2873 1.429 . S
C2889 C2885 1.429 . S
C2889 C2890 1.523 . S
C2890 C2874 1.368 . S
C2890 C2886 1.368 . S
C2890 C2889 1.523 . S
H2891 C2866 0.950 . S
H2892 C2868 0.950 . S
H2893 C2869 0.949 . S
H2894 C2871 0.950 . S
H2895 C2873 0.950 . S
C2896 C2897 1.349 . S
C2896 C2898 1.327 . S
C2896 H2921 0.950 . S
C2897 C2896 1.349 . S
C2897 C2913 1.349 . S
C2898 C2896 1.327 . S
C2898 C2917 1.429 . S
C2898 H2922 0.950 . S
C2899 C2916 1.574 . S
C2899 C2918 1.368 . S
C2899 H2923 0.949 . S
H2900 C2904 0.949 . S
C2901 C2902 1.349 . S
C2901 C2903 1.327 . S
C2901 H2924 0.950 . S
C2902 C2901 1.349 . S
C2902 C2914 1.349 . S
C2903 C2901 1.327 . S
C2903 C2919 1.429 . S
C2903 H2925 0.950 . S
C2904 H2900 0.949 . S
C2904 C2912 1.574 . S
C2904 C2920 1.368 . S
H2905 C2913 0.950 . S
H2906 C2911 0.950 . S
H2907 C2912 0.949 . S
H2908 C2914 0.950 . S
H2909 C2915 0.950 . S
H2910 C2916 0.949 . S
C2911 H2906 0.950 . S
C2911 C2913 1.327 . S
C2911 C2917 1.429 . S
C2912 C2904 1.574 . S
C2912 H2907 0.949 . S
C2912 C2918 1.368 . S
C2913 C2897 1.349 . S
C2913 H2905 0.950 . S
C2913 C2911 1.327 . S
C2914 C2902 1.349 . S
C2914 H2908 0.950 . S
C2914 C2915 1.327 . S
C2915 H2909 0.950 . S
C2915 C2914 1.327 . S
C2915 C2919 1.429 . S
C2916 C2899 1.574 . S
C2916 H2910 0.949 . S
C2916 C2920 1.368 . S
C2917 C2898 1.429 . S
C2917 C2911 1.429 . S
C2917 C2918 1.523 . S
C2918 C2899 1.368 . S
C2918 C2912 1.368 . S
C2918 C2917 1.523 . S
C2919 C2903 1.429 . S
C2919 C2915 1.429 . S
C2919 C2920 1.523 . S
C2920 C2904 1.368 . S
C2920 C2916 1.368 . S
C2920 C2919 1.523 . S
H2921 C2896 0.950 . S
H2922 C2898 0.950 . S
H2923 C2899 0.949 . S
H2924 C2901 0.950 . S
H2925 C2903 0.950 . S
C2926 C2927 1.349 . S
C2926 C2928 1.327 . S
C2926 H2951 0.950 . S
C2927 C2926 1.349 . S
C2927 C2943 1.349 . S
C2928 C2926 1.327 . S
C2928 C2947 1.429 . S
C2928 H2952 0.950 . S
C2929 C2946 1.574 . S
C2929 C2948 1.368 . S
C2929 H2953 0.949 . S
H2930 C2934 0.949 . S
C2931 C2932 1.349 . S
C2931 C2933 1.327 . S
C2931 H2954 0.950 . S
C2932 C2931 1.349 . S
C2932 C2944 1.349 . S
C2933 C2931 1.327 . S
C2933 C2949 1.429 . S
C2933 H2955 0.950 . S
C2934 H2930 0.949 . S
C2934 C2942 1.574 . S
C2934 C2950 1.368 . S
H2935 C2943 0.950 . S
H2936 C2941 0.950 . S
H2937 C2942 0.949 . S
H2938 C2944 0.950 . S
H2939 C2945 0.950 . S
H2940 C2946 0.949 . S
C2941 H2936 0.950 . S
C2941 C2943 1.327 . S
C2941 C2947 1.429 . S
C2942 C2934 1.574 . S
C2942 H2937 0.949 . S
C2942 C2948 1.368 . S
C2943 C2927 1.349 . S
C2943 H2935 0.950 . S
C2943 C2941 1.327 . S
C2944 C2932 1.349 . S
C2944 H2938 0.950 . S
C2944 C2945 1.327 . S
C2945 H2939 0.950 . S
C2945 C2944 1.327 . S
C2945 C2949 1.429 . S
C2946 C2929 1.574 . S
C2946 H2940 0.949 . S
C2946 C2950 1.368 . S
C2947 C2928 1.429 . S
C2947 C2941 1.429 . S
C2947 C2948 1.523 . S
C2948 C2929 1.368 . S
C2948 C2942 1.368 . S
C2948 C2947 1.523 . S
C2949 C2933 1.429 . S
C2949 C2945 1.429 . S
C2949 C2950 1.523 . S
C2950 C2934 1.368 . S
C2950 C2946 1.368 . S
C2950 C2949 1.523 . S
H2951 C2926 0.950 . S
H2952 C2928 0.950 . S
H2953 C2929 0.949 . S
H2954 C2931 0.950 . S
H2955 C2933 0.950 . S
C2956 C2957 1.349 . S
C2956 C2958 1.327 . S
C2956 H2981 0.950 . S
C2957 C2956 1.349 . S
C2957 C2973 1.349 . S
C2958 C2956 1.327 . S
C2958 C2977 1.429 . S
C2958 H2982 0.950 . S
C2959 C2976 1.574 . S
C2959 C2978 1.368 . S
C2959 H2983 0.949 . S
H2960 C2964 0.949 . S
C2961 C2962 1.349 . S
C2961 C2963 1.327 . S
C2961 H2984 0.950 . S
C2962 C2961 1.349 . S
C2962 C2974 1.349 . S
C2963 C2961 1.327 . S
C2963 C2979 1.429 . S
C2963 H2985 0.950 . S
C2964 H2960 0.949 . S
C2964 C2972 1.574 . S
C2964 C2980 1.368 . S
H2965 C2973 0.922 1_545 S
H2966 C2971 0.950 . S
H2967 C2972 0.949 . S
H2968 C2974 0.950 . S
H2969 C2975 0.950 . S
H2970 C2976 0.949 . S
C2971 H2966 0.950 . S
C2971 C2973 1.327 . S
C2971 C2977 1.429 . S
C2972 C2964 1.574 . S
C2972 H2967 0.949 . S
C2972 C2978 1.368 . S
C2973 C2957 1.349 . S
C2973 H2965 0.922 1_565 S
C2973 C2971 1.327 . S
C2974 C2962 1.349 . S
C2974 H2968 0.950 . S
C2974 C2975 1.327 . S
C2975 H2969 0.950 . S
C2975 C2974 1.327 . S
C2975 C2979 1.429 . S
C2976 C2959 1.574 . S
C2976 H2970 0.949 . S
C2976 C2980 1.368 . S
C2977 C2958 1.429 . S
C2977 C2971 1.429 . S
C2977 C2978 1.523 . S
C2978 C2959 1.368 . S
C2978 C2972 1.368 . S
C2978 C2977 1.523 . S
C2979 C2963 1.429 . S
C2979 C2975 1.429 . S
C2979 C2980 1.523 . S
C2980 C2964 1.368 . S
C2980 C2976 1.368 . S
C2980 C2979 1.523 . S
H2981 C2956 0.950 . S
H2982 C2958 0.950 . S
H2983 C2959 0.949 . S
H2984 C2961 0.950 . S
H2985 C2963 0.950 . S
C2986 C2987 1.349 . S
C2986 C2988 1.327 . S
C2986 H3011 0.950 . S
C2987 C2986 1.349 . S
C2987 C3003 1.349 . S
C2988 C2986 1.327 . S
C2988 C3007 1.429 . S
C2988 H3012 0.950 . S
C2989 C3006 1.574 . S
C2989 C3008 1.368 . S
C2989 H3013 0.949 . S
H2990 C2994 0.949 . S
C2991 C2992 1.332 1_545 S
C2991 C2993 1.298 1_545 S
C2991 H3014 0.997 . S
C2992 C2991 1.332 1_565 S
C2992 C3004 1.357 . S
C2993 C2991 1.298 1_565 S
C2993 C3009 1.429 . S
C2993 H3015 0.950 . S
C2994 H2990 0.949 . S
C2994 C3002 1.574 . S
C2994 C3010 1.368 . S
H2995 C3003 0.950 . S
H2996 C3001 0.950 . S
H2997 C3002 0.949 . S
H2998 C3004 0.950 . S
H2999 C3005 0.950 . S
H3000 C3006 0.949 . S
C3001 H2996 0.950 . S
C3001 C3003 1.327 . S
C3001 C3007 1.429 . S
C3002 C2994 1.574 . S
C3002 H2997 0.949 . S
C3002 C3008 1.368 . S
C3003 C2987 1.349 . S
C3003 H2995 0.950 . S
C3003 C3001 1.327 . S
C3004 C2992 1.357 . S
C3004 H2998 0.950 . S
C3004 C3005 1.327 . S
C3005 H2999 0.950 . S
C3005 C3004 1.327 . S
C3005 C3009 1.429 . S
C3006 C2989 1.574 . S
C3006 H3000 0.949 . S
C3006 C3010 1.368 . S
C3007 C2988 1.429 . S
C3007 C3001 1.429 . S
C3007 C3008 1.523 . S
C3008 C2989 1.368 . S
C3008 C3002 1.368 . S
C3008 C3007 1.523 . S
C3009 C2993 1.429 . S
C3009 C3005 1.429 . S
C3009 C3010 1.523 . S
C3010 C2994 1.368 . S
C3010 C3006 1.368 . S
C3010 C3009 1.523 . S
H3011 C2986 0.950 . S
H3012 C2988 0.950 . S
H3013 C2989 0.949 . S
H3014 C2991 0.997 . S
H3015 C2993 0.950 . S
C3016 C3017 1.349 . S
C3016 C3018 1.327 . S
C3016 H3041 0.950 . S
C3017 C3016 1.349 . S
C3017 C3033 1.349 . S
C3018 C3016 1.327 . S
C3018 C3037 1.429 . S
C3018 H3042 0.950 . S
C3019 C3036 1.574 . S
C3019 C3038 1.368 . S
C3019 H3043 0.949 . S
H3020 C3024 0.949 . S
C3021 C3022 1.349 . S
C3021 C3023 1.327 . S
C3021 H3044 0.950 . S
C3022 C3021 1.349 . S
C3022 C3034 1.349 . S
C3023 C3021 1.327 . S
C3023 C3039 1.429 . S
C3023 H3045 0.950 . S
C3024 H3020 0.949 . S
C3024 C3032 1.574 . S
C3024 C3040 1.368 . S
H3025 C3033 0.950 . S
H3026 C3031 0.950 . S
H3027 C3032 0.949 . S
H3028 C3034 0.950 . S
H3029 C3035 0.950 . S
H3030 C3036 0.949 . S
C3031 H3026 0.950 . S
C3031 C3033 1.327 . S
C3031 C3037 1.429 . S
C3032 C3024 1.574 . S
C3032 H3027 0.949 . S
C3032 C3038 1.368 . S
C3033 C3017 1.349 . S
C3033 H3025 0.950 . S
C3033 C3031 1.327 . S
C3034 C3022 1.349 . S
C3034 H3028 0.950 . S
C3034 C3035 1.327 . S
C3035 H3029 0.950 . S
C3035 C3034 1.327 . S
C3035 C3039 1.429 . S
C3036 C3019 1.574 . S
C3036 H3030 0.949 . S
C3036 C3040 1.368 . S
C3037 C3018 1.429 . S
C3037 C3031 1.429 . S
C3037 C3038 1.523 . S
C3038 C3019 1.368 . S
C3038 C3032 1.368 . S
C3038 C3037 1.523 . S
C3039 C3023 1.429 . S
C3039 C3035 1.429 . S
C3039 C3040 1.523 . S
C3040 C3024 1.368 . S
C3040 C3036 1.368 . S
C3040 C3039 1.523 . S
H3041 C3016 0.950 . S
H3042 C3018 0.950 . S
H3043 C3019 0.949 . S
H3044 C3021 0.950 . S
H3045 C3023 0.950 . S
C3046 C3047 1.349 . S
C3046 C3048 1.327 . S
C3046 H3071 0.950 . S
C3047 C3046 1.349 . S
C3047 C3063 1.349 . S
C3048 C3046 1.327 . S
C3048 C3067 1.429 . S
C3048 H3072 0.950 . S
C3049 C3066 1.574 . S
C3049 C3068 1.368 . S
C3049 H3073 0.949 . S
H3050 C3054 0.949 . S
C3051 C3052 1.349 . S
C3051 C3053 1.327 . S
C3051 H3074 0.950 . S
C3052 C3051 1.349 . S
C3052 C3064 1.349 . S
C3053 C3051 1.327 . S
C3053 C3069 1.429 . S
C3053 H3075 0.950 . S
C3054 H3050 0.949 . S
C3054 C3062 1.574 . S
C3054 C3070 1.368 . S
H3055 C3063 0.950 . S
H3056 C3061 0.950 . S
H3057 C3062 0.949 . S
H3058 C3064 0.950 . S
H3059 C3065 0.950 . S
H3060 C3066 0.949 . S
C3061 H3056 0.950 . S
C3061 C3063 1.327 . S
C3061 C3067 1.429 . S
C3062 C3054 1.574 . S
C3062 H3057 0.949 . S
C3062 C3068 1.368 . S
C3063 C3047 1.349 . S
C3063 H3055 0.950 . S
C3063 C3061 1.327 . S
C3064 C3052 1.349 . S
C3064 H3058 0.950 . S
C3064 C3065 1.327 . S
C3065 H3059 0.950 . S
C3065 C3064 1.327 . S
C3065 C3069 1.429 . S
C3066 C3049 1.574 . S
C3066 H3060 0.949 . S
C3066 C3070 1.368 . S
C3067 C3048 1.429 . S
C3067 C3061 1.429 . S
C3067 C3068 1.523 . S
C3068 C3049 1.368 . S
C3068 C3062 1.368 . S
C3068 C3067 1.523 . S
C3069 C3053 1.429 . S
C3069 C3065 1.429 . S
C3069 C3070 1.523 . S
C3070 C3054 1.368 . S
C3070 C3066 1.368 . S
C3070 C3069 1.523 . S
H3071 C3046 0.950 . S
H3072 C3048 0.950 . S
H3073 C3049 0.949 . S
H3074 C3051 0.950 . S
H3075 C3053 0.950 . S
C3076 C3077 1.349 . S
C3076 C3078 1.327 . S
C3076 H3101 0.950 . S
C3077 C3076 1.349 . S
C3077 C3093 1.349 . S
C3078 C3076 1.327 . S
C3078 C3097 1.429 . S
C3078 H3102 0.950 . S
C3079 C3096 1.574 . S
C3079 C3098 1.368 . S
C3079 H3103 0.949 . S
H3080 C3084 0.949 . S
C3081 C3082 1.349 . S
C3081 C3083 1.327 . S
C3081 H3104 0.950 . S
C3082 C3081 1.349 . S
C3082 C3094 1.349 . S
C3083 C3081 1.327 . S
C3083 C3099 1.429 . S
C3083 H3105 0.950 . S
C3084 H3080 0.949 . S
C3084 C3092 1.574 . S
C3084 C3100 1.368 . S
H3085 C3093 0.950 . S
H3086 C3091 0.950 . S
H3087 C3092 0.949 . S
H3088 C3094 0.950 . S
H3089 C3095 0.950 . S
H3090 C3096 0.949 . S
C3091 H3086 0.950 . S
C3091 C3093 1.327 . S
C3091 C3097 1.429 . S
C3092 C3084 1.574 . S
C3092 H3087 0.949 . S
C3092 C3098 1.368 . S
C3093 C3077 1.349 . S
C3093 H3085 0.950 . S
C3093 C3091 1.327 . S
C3094 C3082 1.349 . S
C3094 H3088 0.950 . S
C3094 C3095 1.327 . S
C3095 H3089 0.950 . S
C3095 C3094 1.327 . S
C3095 C3099 1.429 . S
C3096 C3079 1.574 . S
C3096 H3090 0.949 . S
C3096 C3100 1.368 . S
C3097 C3078 1.429 . S
C3097 C3091 1.429 . S
C3097 C3098 1.523 . S
C3098 C3079 1.368 . S
C3098 C3092 1.368 . S
C3098 C3097 1.523 . S
C3099 C3083 1.429 . S
C3099 C3095 1.429 . S
C3099 C3100 1.523 . S
C3100 C3084 1.368 . S
C3100 C3096 1.368 . S
C3100 C3099 1.523 . S
H3101 C3076 0.950 . S
H3102 C3078 0.950 . S
H3103 C3079 0.949 . S
H3104 C3081 0.950 . S
H3105 C3083 0.950 . S
C3106 C3107 1.349 1_565 S
C3106 C3108 1.327 . S
C3106 H3131 0.950 . S
C3107 C3106 1.349 1_545 S
C3107 C3123 1.349 . S
C3108 C3106 1.327 . S
C3108 C3127 1.429 . S
C3108 H3132 0.950 . S
C3109 C3126 1.574 . S
C3109 C3128 1.368 . S
C3109 H3133 0.949 . S
H3110 C3114 0.949 . S
C3111 C3112 1.349 . S
C3111 C3113 1.327 . S
C3111 H3134 0.950 . S
C3112 C3111 1.349 . S
C3112 C3124 1.349 . S
C3113 C3111 1.327 . S
C3113 C3129 1.429 . S
C3113 H3135 0.950 . S
C3114 H3110 0.949 . S
C3114 C3122 1.574 . S
C3114 C3130 1.368 . S
H3115 C3123 0.950 . S
H3116 C3121 0.950 . S
H3117 C3122 0.949 . S
H3118 C3124 0.950 . S
H3119 C3125 0.950 . S
H3120 C3126 0.949 . S
C3121 H3116 0.950 . S
C3121 C3123 1.327 1_565 S
C3121 C3127 1.429 . S
C3122 C3114 1.574 . S
C3122 H3117 0.949 . S
C3122 C3128 1.368 . S
C3123 C3107 1.349 . S
C3123 H3115 0.950 . S
C3123 C3121 1.327 1_545 S
C3124 C3112 1.349 . S
C3124 H3118 0.950 . S
C3124 C3125 1.327 . S
C3125 H3119 0.950 . S
C3125 C3124 1.327 . S
C3125 C3129 1.429 . S
C3126 C3109 1.574 . S
C3126 H3120 0.949 . S
C3126 C3130 1.368 . S
C3127 C3108 1.429 . S
C3127 C3121 1.429 . S
C3127 C3128 1.523 . S
C3128 C3109 1.368 . S
C3128 C3122 1.368 . S
C3128 C3127 1.523 . S
C3129 C3113 1.429 . S
C3129 C3125 1.429 . S
C3129 C3130 1.523 . S
C3130 C3114 1.368 . S
C3130 C3126 1.368 . S
C3130 C3129 1.523 . S
H3131 C3106 0.950 . S
H3132 C3108 0.950 . S
H3133 C3109 0.949 . S
H3134 C3111 0.950 . S
H3135 C3113 0.950 . S
C3136 C3137 1.349 . S
C3136 C3138 1.327 . S
C3136 H3161 0.950 . S
C3137 C3136 1.349 . S
C3137 C3153 1.349 . S
C3138 C3136 1.327 . S
C3138 C3157 1.429 . S
C3138 H3162 0.950 . S
C3139 C3156 1.574 . S
C3139 C3158 1.368 . S
C3139 H3163 0.949 . S
H3140 C3144 0.949 . S
C3141 C3142 1.349 . S
C3141 C3143 1.327 . S
C3141 H3164 0.950 . S
C3142 C3141 1.349 . S
C3142 C3154 1.349 . S
C3143 C3141 1.327 . S
C3143 C3159 1.429 . S
C3143 H3165 0.950 . S
C3144 H3140 0.949 . S
C3144 C3152 1.574 . S
C3144 C3160 1.368 . S
H3145 C3153 0.950 . S
H3146 C3151 0.950 . S
H3147 C3152 0.949 . S
H3148 C3154 0.950 . S
H3149 C3155 0.950 . S
H3150 C3156 0.949 . S
C3151 H3146 0.950 . S
C3151 C3153 1.327 . S
C3151 C3157 1.429 . S
C3152 C3144 1.574 . S
C3152 H3147 0.949 . S
C3152 C3158 1.368 . S
C3153 C3137 1.349 . S
C3153 H3145 0.950 . S
C3153 C3151 1.327 . S
C3154 C3142 1.349 . S
C3154 H3148 0.950 . S
C3154 C3155 1.327 . S
C3155 H3149 0.950 . S
C3155 C3154 1.327 . S
C3155 C3159 1.429 . S
C3156 C3139 1.574 . S
C3156 H3150 0.949 . S
C3156 C3160 1.368 . S
C3157 C3138 1.429 . S
C3157 C3151 1.429 . S
C3157 C3158 1.523 . S
C3158 C3139 1.368 . S
C3158 C3152 1.368 . S
C3158 C3157 1.523 . S
C3159 C3143 1.429 . S
C3159 C3155 1.429 . S
C3159 C3160 1.523 . S
C3160 C3144 1.368 . S
C3160 C3156 1.368 . S
C3160 C3159 1.523 . S
H3161 C3136 0.950 . S
H3162 C3138 0.950 . S
H3163 C3139 0.949 . S
H3164 C3141 0.950 . S
H3165 C3143 0.950 . S
C3166 C3167 1.349 . S
C3166 C3168 1.327 . S
C3166 H3191 0.950 . S
C3167 C3166 1.349 . S
C3167 C3183 1.349 . S
C3168 C3166 1.327 . S
C3168 C3187 1.429 . S
C3168 H3192 0.950 . S
C3169 C3186 1.574 . S
C3169 C3188 1.368 . S
C3169 H3193 0.949 . S
H3170 C3174 0.949 . S
C3171 C3172 1.349 . S
C3171 C3173 1.327 . S
C3171 H3194 0.950 . S
C3172 C3171 1.349 . S
C3172 C3184 1.349 . S
C3173 C3171 1.327 . S
C3173 C3189 1.429 . S
C3173 H3195 0.950 . S
C3174 H3170 0.949 . S
C3174 C3182 1.574 . S
C3174 C3190 1.368 . S
H3175 C3183 0.950 . S
H3176 C3181 0.950 . S
H3177 C3182 0.949 . S
H3178 C3184 0.950 . S
H3179 C3185 0.950 . S
H3180 C3186 0.949 . S
C3181 H3176 0.950 . S
C3181 C3183 1.327 . S
C3181 C3187 1.429 . S
C3182 C3174 1.574 . S
C3182 H3177 0.949 . S
C3182 C3188 1.368 . S
C3183 C3167 1.349 . S
C3183 H3175 0.950 . S
C3183 C3181 1.327 . S
C3184 C3172 1.349 . S
C3184 H3178 0.950 . S
C3184 C3185 1.327 . S
C3185 H3179 0.950 . S
C3185 C3184 1.327 . S
C3185 C3189 1.429 . S
C3186 C3169 1.574 . S
C3186 H3180 0.949 . S
C3186 C3190 1.368 . S
C3187 C3168 1.429 . S
C3187 C3181 1.429 . S
C3187 C3188 1.523 . S
C3188 C3169 1.368 . S
C3188 C3182 1.368 . S
C3188 C3187 1.523 . S
C3189 C3173 1.429 . S
C3189 C3185 1.429 . S
C3189 C3190 1.523 . S
C3190 C3174 1.368 . S
C3190 C3186 1.368 . S
C3190 C3189 1.523 . S
H3191 C3166 0.950 . S
H3192 C3168 0.950 . S
H3193 C3169 0.949 . S
H3194 C3171 0.950 . S
H3195 C3173 0.950 . S
C3196 C3197 1.349 . S
C3196 C3198 1.327 . S
C3196 H3221 0.950 . S
C3197 C3196 1.349 . S
C3197 C3213 1.349 . S
C3198 C3196 1.327 . S
C3198 C3217 1.429 . S
C3198 H3222 0.950 . S
C3199 C3216 1.574 . S
C3199 C3218 1.368 . S
C3199 H3223 0.949 . S
H3200 C3204 0.949 . S
C3201 C3202 1.349 . S
C3201 C3203 1.327 . S
C3201 H3224 0.950 . S
C3202 C3201 1.349 . S
C3202 C3214 1.349 . S
C3203 C3201 1.327 . S
C3203 C3219 1.429 . S
C3203 H3225 0.950 . S
C3204 H3200 0.949 . S
C3204 C3212 1.574 . S
C3204 C3220 1.368 . S
H3205 C3213 0.950 . S
H3206 C3211 0.950 . S
H3207 C3212 0.949 . S
H3208 C3214 0.950 . S
H3209 C3215 0.950 . S
H3210 C3216 0.949 . S
C3211 H3206 0.950 . S
C3211 C3213 1.327 . S
C3211 C3217 1.429 . S
C3212 C3204 1.574 . S
C3212 H3207 0.949 . S
C3212 C3218 1.368 . S
C3213 C3197 1.349 . S
C3213 H3205 0.950 . S
C3213 C3211 1.327 . S
C3214 C3202 1.349 . S
C3214 H3208 0.950 . S
C3214 C3215 1.327 . S
C3215 H3209 0.950 . S
C3215 C3214 1.327 . S
C3215 C3219 1.429 . S
C3216 C3199 1.574 . S
C3216 H3210 0.949 . S
C3216 C3220 1.368 . S
C3217 C3198 1.429 . S
C3217 C3211 1.429 . S
C3217 C3218 1.523 . S
C3218 C3199 1.368 . S
C3218 C3212 1.368 . S
C3218 C3217 1.523 . S
C3219 C3203 1.429 . S
C3219 C3215 1.429 . S
C3219 C3220 1.523 . S
C3220 C3204 1.368 . S
C3220 C3216 1.368 . S
C3220 C3219 1.523 . S
H3221 C3196 0.950 . S
H3222 C3198 0.950 . S
H3223 C3199 0.949 . S
H3224 C3201 0.950 . S
H3225 C3203 0.950 . S
C3226 C3227 1.349 . S
C3226 C3228 1.327 . S
C3226 H3251 0.950 . S
C3227 C3226 1.349 . S
C3227 C3243 1.349 . S
C3228 C3226 1.327 . S
C3228 C3247 1.429 . S
C3228 H3252 0.950 . S
C3229 C3246 1.574 . S
C3229 C3248 1.368 . S
C3229 H3253 0.949 . S
H3230 C3234 0.949 . S
C3231 C3232 1.349 . S
C3231 C3233 1.327 . S
C3231 H3254 0.950 . S
C3232 C3231 1.349 . S
C3232 C3244 1.349 . S
C3233 C3231 1.327 . S
C3233 C3249 1.429 . S
C3233 H3255 0.950 . S
C3234 H3230 0.949 . S
C3234 C3242 1.574 . S
C3234 C3250 1.368 . S
H3235 C3243 0.950 . S
H3236 C3241 0.950 . S
H3237 C3242 0.949 . S
H3238 C3244 0.950 . S
H3239 C3245 0.950 . S
H3240 C3246 0.949 . S
C3241 H3236 0.950 . S
C3241 C3243 1.327 . S
C3241 C3247 1.429 . S
C3242 C3234 1.574 . S
C3242 H3237 0.949 . S
C3242 C3248 1.368 . S
C3243 C3227 1.349 . S
C3243 H3235 0.950 . S
C3243 C3241 1.327 . S
C3244 C3232 1.349 . S
C3244 H3238 0.950 . S
C3244 C3245 1.327 . S
C3245 H3239 0.950 . S
C3245 C3244 1.327 . S
C3245 C3249 1.429 . S
C3246 C3229 1.574 . S
C3246 H3240 0.949 . S
C3246 C3250 1.368 . S
C3247 C3228 1.429 . S
C3247 C3241 1.429 . S
C3247 C3248 1.523 . S
C3248 C3229 1.368 . S
C3248 C3242 1.368 . S
C3248 C3247 1.523 . S
C3249 C3233 1.429 . S
C3249 C3245 1.429 . S
C3249 C3250 1.523 . S
C3250 C3234 1.368 . S
C3250 C3246 1.368 . S
C3250 C3249 1.523 . S
H3251 C3226 0.950 . S
H3252 C3228 0.950 . S
H3253 C3229 0.949 . S
H3254 C3231 0.950 . S
H3255 C3233 0.950 . S
C3256 C3257 1.349 . S
C3256 C3258 1.327 . S
C3256 H3281 0.950 . S
C3257 C3256 1.349 . S
C3257 C3273 1.349 . S
C3258 C3256 1.327 . S
C3258 C3277 1.429 . S
C3258 H3282 0.950 . S
C3259 C3276 1.574 . S
C3259 C3278 1.368 . S
C3259 H3283 0.949 . S
H3260 C3264 0.949 . S
C3261 C3262 1.349 . S
C3261 C3263 1.327 . S
C3261 H3284 0.950 . S
C3262 C3261 1.349 . S
C3262 C3274 1.349 . S
C3263 C3261 1.327 . S
C3263 C3279 1.429 . S
C3263 H3285 0.950 . S
C3264 H3260 0.949 . S
C3264 C3272 1.574 . S
C3264 C3280 1.368 . S
H3265 C3273 0.950 . S
H3266 C3271 0.950 . S
H3267 C3272 0.949 . S
H3268 C3274 0.950 . S
H3269 C3275 0.950 . S
H3270 C3276 0.949 . S
C3271 H3266 0.950 . S
C3271 C3273 1.327 . S
C3271 C3277 1.429 . S
C3272 C3264 1.574 . S
C3272 H3267 0.949 . S
C3272 C3278 1.368 . S
C3273 C3257 1.349 . S
C3273 H3265 0.950 . S
C3273 C3271 1.327 . S
C3274 C3262 1.349 . S
C3274 H3268 0.950 . S
C3274 C3275 1.327 . S
C3275 H3269 0.950 . S
C3275 C3274 1.327 . S
C3275 C3279 1.429 . S
C3276 C3259 1.574 . S
C3276 H3270 0.949 . S
C3276 C3280 1.368 . S
C3277 C3258 1.429 . S
C3277 C3271 1.429 . S
C3277 C3278 1.523 . S
C3278 C3259 1.368 . S
C3278 C3272 1.368 . S
C3278 C3277 1.523 . S
C3279 C3263 1.429 . S
C3279 C3275 1.429 . S
C3279 C3280 1.523 . S
C3280 C3264 1.368 . S
C3280 C3276 1.368 . S
C3280 C3279 1.523 . S
H3281 C3256 0.950 . S
H3282 C3258 0.950 . S
H3283 C3259 0.949 . S
H3284 C3261 0.950 . S
H3285 C3263 0.950 . S
C3286 C3287 1.349 . S
C3286 C3288 1.327 . S
C3286 H3311 0.950 . S
C3287 C3286 1.349 . S
C3287 C3303 1.349 . S
C3288 C3286 1.327 . S
C3288 C3307 1.429 . S
C3288 H3312 0.950 . S
C3289 C3306 1.574 . S
C3289 C3308 1.368 . S
C3289 H3313 0.949 . S
H3290 C3294 0.949 . S
C3291 C3292 1.349 . S
C3291 C3293 1.327 . S
C3291 H3314 0.950 . S
C3292 C3291 1.349 . S
C3292 C3304 1.349 . S
C3293 C3291 1.327 . S
C3293 C3309 1.429 . S
C3293 H3315 0.950 . S
C3294 H3290 0.949 . S
C3294 C3302 1.574 . S
C3294 C3310 1.368 . S
H3295 C3303 0.950 . S
H3296 C3301 0.950 . S
H3297 C3302 0.949 . S
H3298 C3304 0.950 . S
H3299 C3305 0.950 . S
H3300 C3306 0.949 . S
C3301 H3296 0.950 . S
C3301 C3303 1.327 . S
C3301 C3307 1.429 . S
C3302 C3294 1.574 . S
C3302 H3297 0.949 . S
C3302 C3308 1.368 . S
C3303 C3287 1.349 . S
C3303 H3295 0.950 . S
C3303 C3301 1.327 . S
C3304 C3292 1.349 . S
C3304 H3298 0.950 . S
C3304 C3305 1.327 . S
C3305 H3299 0.950 . S
C3305 C3304 1.327 . S
C3305 C3309 1.429 . S
C3306 C3289 1.574 . S
C3306 H3300 0.949 . S
C3306 C3310 1.368 . S
C3307 C3288 1.429 . S
C3307 C3301 1.429 . S
C3307 C3308 1.523 . S
C3308 C3289 1.368 . S
C3308 C3302 1.368 . S
C3308 C3307 1.523 . S
C3309 C3293 1.429 . S
C3309 C3305 1.429 . S
C3309 C3310 1.523 . S
C3310 C3294 1.368 . S
C3310 C3306 1.368 . S
C3310 C3309 1.523 . S
H3311 C3286 0.950 . S
H3312 C3288 0.950 . S
H3313 C3289 0.949 . S
H3314 C3291 0.950 . S
H3315 C3293 0.950 . S
C3316 C3317 1.349 . S
C3316 C3318 1.327 . S
C3316 H3341 0.950 . S
C3317 C3316 1.349 . S
C3317 C3333 1.349 . S
C3318 C3316 1.327 . S
C3318 C3337 1.429 . S
C3318 H3342 0.950 . S
C3319 C3336 1.574 . S
C3319 C3338 1.368 . S
C3319 H3343 0.949 . S
H3320 C3324 0.949 . S
C3321 C3322 1.349 . S
C3321 C3323 1.327 . S
C3321 H3344 0.950 . S
C3322 C3321 1.349 . S
C3322 C3334 1.349 . S
C3323 C3321 1.327 . S
C3323 C3339 1.429 . S
C3323 H3345 0.950 . S
C3324 H3320 0.949 . S
C3324 C3332 1.574 . S
C3324 C3340 1.368 . S
H3325 C3333 0.950 . S
H3326 C3331 0.950 . S
H3327 C3332 0.949 . S
H3328 C3334 0.950 . S
H3329 C3335 0.950 . S
H3330 C3336 0.949 . S
C3331 H3326 0.950 . S
C3331 C3333 1.327 . S
C3331 C3337 1.429 . S
C3332 C3324 1.574 . S
C3332 H3327 0.949 . S
C3332 C3338 1.368 . S
C3333 C3317 1.349 . S
C3333 H3325 0.950 . S
C3333 C3331 1.327 . S
C3334 C3322 1.349 . S
C3334 H3328 0.950 . S
C3334 C3335 1.327 . S
C3335 H3329 0.950 . S
C3335 C3334 1.327 . S
C3335 C3339 1.429 . S
C3336 C3319 1.574 . S
C3336 H3330 0.949 . S
C3336 C3340 1.368 . S
C3337 C3318 1.429 . S
C3337 C3331 1.429 . S
C3337 C3338 1.523 . S
C3338 C3319 1.368 . S
C3338 C3332 1.368 . S
C3338 C3337 1.523 . S
C3339 C3323 1.429 . S
C3339 C3335 1.429 . S
C3339 C3340 1.523 . S
C3340 C3324 1.368 . S
C3340 C3336 1.368 . S
C3340 C3339 1.523 . S
H3341 C3316 0.950 . S
H3342 C3318 0.950 . S
H3343 C3319 0.949 . S
H3344 C3321 0.950 . S
H3345 C3323 0.950 . S
C3346 C3347 1.349 . S
C3346 C3348 1.327 . S
C3346 H3371 0.950 . S
C3347 C3346 1.349 . S
C3347 C3363 1.349 . S
C3348 C3346 1.327 . S
C3348 C3367 1.429 . S
C3348 H3372 0.950 . S
C3349 C3366 1.574 . S
C3349 C3368 1.368 . S
C3349 H3373 0.949 . S
H3350 C3354 0.949 . S
C3351 C3352 1.349 . S
C3351 C3353 1.327 . S
C3351 H3374 0.950 . S
C3352 C3351 1.349 . S
C3352 C3364 1.349 . S
C3353 C3351 1.327 . S
C3353 C3369 1.429 . S
C3353 H3375 0.950 . S
C3354 H3350 0.949 . S
C3354 C3362 1.574 . S
C3354 C3370 1.368 . S
H3355 C3363 0.950 . S
H3356 C3361 0.950 . S
H3357 C3362 0.949 . S
H3358 C3364 0.950 . S
H3359 C3365 0.950 . S
H3360 C3366 0.949 . S
C3361 H3356 0.950 . S
C3361 C3363 1.327 . S
C3361 C3367 1.429 . S
C3362 C3354 1.574 . S
C3362 H3357 0.949 . S
C3362 C3368 1.368 . S
C3363 C3347 1.349 . S
C3363 H3355 0.950 . S
C3363 C3361 1.327 . S
C3364 C3352 1.349 . S
C3364 H3358 0.950 . S
C3364 C3365 1.327 . S
C3365 H3359 0.950 . S
C3365 C3364 1.327 . S
C3365 C3369 1.429 . S
C3366 C3349 1.574 . S
C3366 H3360 0.949 . S
C3366 C3370 1.368 . S
C3367 C3348 1.429 . S
C3367 C3361 1.429 . S
C3367 C3368 1.523 . S
C3368 C3349 1.368 . S
C3368 C3362 1.368 . S
C3368 C3367 1.523 . S
C3369 C3353 1.429 . S
C3369 C3365 1.429 . S
C3369 C3370 1.523 . S
C3370 C3354 1.368 . S
C3370 C3366 1.368 . S
C3370 C3369 1.523 . S
H3371 C3346 0.950 . S
H3372 C3348 0.950 . S
H3373 C3349 0.949 . S
H3374 C3351 0.950 . S
H3375 C3353 0.950 . S
C3376 C3377 1.349 . S
C3376 C3378 1.327 . S
C3376 H3401 0.950 . S
C3377 C3376 1.349 . S
C3377 C3393 1.349 . S
C3378 C3376 1.327 . S
C3378 C3397 1.429 . S
C3378 H3402 0.950 . S
C3379 C3396 1.574 . S
C3379 C3398 1.368 . S
C3379 H3403 0.949 . S
H3380 C3384 0.949 . S
C3381 C3382 1.349 . S
C3381 C3383 1.327 . S
C3381 H3404 0.950 . S
C3382 C3381 1.349 . S
C3382 C3394 1.349 . S
C3383 C3381 1.327 . S
C3383 C3399 1.429 . S
C3383 H3405 0.950 . S
C3384 H3380 0.949 . S
C3384 C3392 1.574 . S
C3384 C3400 1.368 . S
H3385 C3393 0.950 . S
H3386 C3391 0.950 . S
H3387 C3392 0.949 . S
H3388 C3394 0.950 . S
H3389 C3395 0.950 . S
H3390 C3396 0.949 . S
C3391 H3386 0.950 . S
C3391 C3393 1.327 . S
C3391 C3397 1.429 . S
C3392 C3384 1.574 . S
C3392 H3387 0.949 . S
C3392 C3398 1.368 . S
C3393 C3377 1.349 . S
C3393 H3385 0.950 . S
C3393 C3391 1.327 . S
C3394 C3382 1.349 . S
C3394 H3388 0.950 . S
C3394 C3395 1.327 . S
C3395 H3389 0.950 . S
C3395 C3394 1.327 . S
C3395 C3399 1.429 . S
C3396 C3379 1.574 . S
C3396 H3390 0.949 . S
C3396 C3400 1.368 . S
C3397 C3378 1.429 . S
C3397 C3391 1.429 . S
C3397 C3398 1.523 . S
C3398 C3379 1.368 . S
C3398 C3392 1.368 . S
C3398 C3397 1.523 . S
C3399 C3383 1.429 . S
C3399 C3395 1.429 . S
C3399 C3400 1.523 . S
C3400 C3384 1.368 . S
C3400 C3396 1.368 . S
C3400 C3399 1.523 . S
H3401 C3376 0.950 . S
H3402 C3378 0.950 . S
H3403 C3379 0.949 . S
H3404 C3381 0.950 . S
H3405 C3383 0.950 . S
C3406 C3407 1.349 . S
C3406 C3408 1.327 . S
C3406 H3431 0.950 . S
C3407 C3406 1.349 . S
C3407 C3423 1.349 . S
C3408 C3406 1.327 . S
C3408 C3427 1.429 . S
C3408 H3432 0.950 . S
C3409 C3426 1.574 . S
C3409 C3428 1.368 . S
C3409 H3433 0.949 . S
H3410 C3414 0.949 . S
C3411 C3412 1.349 . S
C3411 C3413 1.327 . S
C3411 H3434 0.950 . S
C3412 C3411 1.349 . S
C3412 C3424 1.349 . S
C3413 C3411 1.327 . S
C3413 C3429 1.429 . S
C3413 H3435 0.950 . S
C3414 H3410 0.949 . S
C3414 C3422 1.574 . S
C3414 C3430 1.368 . S
H3415 C3423 0.950 . S
H3416 C3421 0.950 . S
H3417 C3422 0.949 . S
H3418 C3424 0.950 . S
H3419 C3425 0.950 . S
H3420 C3426 0.949 . S
C3421 H3416 0.950 . S
C3421 C3423 1.327 . S
C3421 C3427 1.429 . S
C3422 C3414 1.574 . S
C3422 H3417 0.949 . S
C3422 C3428 1.368 . S
C3423 C3407 1.349 . S
C3423 H3415 0.950 . S
C3423 C3421 1.327 . S
C3424 C3412 1.349 . S
C3424 H3418 0.950 . S
C3424 C3425 1.327 . S
C3425 H3419 0.950 . S
C3425 C3424 1.327 . S
C3425 C3429 1.429 . S
C3426 C3409 1.574 . S
C3426 H3420 0.949 . S
C3426 C3430 1.368 . S
C3427 C3408 1.429 . S
C3427 C3421 1.429 . S
C3427 C3428 1.523 . S
C3428 C3409 1.368 . S
C3428 C3422 1.368 . S
C3428 C3427 1.523 . S
C3429 C3413 1.429 . S
C3429 C3425 1.429 . S
C3429 C3430 1.523 . S
C3430 C3414 1.368 . S
C3430 C3426 1.368 . S
C3430 C3429 1.523 . S
H3431 C3406 0.950 . S
H3432 C3408 0.950 . S
H3433 C3409 0.949 . S
H3434 C3411 0.950 . S
H3435 C3413 0.950 . S
C3436 C3437 1.349 . S
C3436 C3438 1.327 . S
C3436 H3461 0.950 . S
C3437 C3436 1.349 . S
C3437 C3453 1.349 . S
C3438 C3436 1.327 . S
C3438 C3457 1.429 . S
C3438 H3462 0.962 . S
C3439 C3456 1.582 . S
C3439 C3458 1.379 . S
C3439 H3463 0.934 1_455 S
H3440 C3444 0.949 . S
C3441 C3442 1.349 . S
C3441 C3443 1.327 . S
C3441 H3464 0.950 . S
C3442 C3441 1.349 . S
C3442 C3454 1.349 . S
C3443 C3441 1.327 . S
C3443 C3459 1.429 . S
C3443 H3465 0.950 . S
C3444 H3440 0.949 . S
C3444 C3452 1.574 . S
C3444 C3460 1.368 . S
H3445 C3453 0.950 . S
H3446 C3451 0.950 . S
H3447 C3452 0.949 . S
H3448 C3454 0.950 . S
H3449 C3455 0.950 . S
H3450 C3456 0.949 . S
C3451 H3446 0.950 . S
C3451 C3453 1.327 . S
C3451 C3457 1.429 . S
C3452 C3444 1.574 . S
C3452 H3447 0.949 . S
C3452 C3458 1.368 . S
C3453 C3437 1.349 . S
C3453 H3445 0.950 . S
C3453 C3451 1.327 . S
C3454 C3442 1.349 . S
C3454 H3448 0.950 . S
C3454 C3455 1.327 . S
C3455 H3449 0.950 . S
C3455 C3454 1.327 . S
C3455 C3459 1.429 . S
C3456 C3439 1.582 . S
C3456 H3450 0.949 . S
C3456 C3460 1.368 . S
C3457 C3438 1.429 . S
C3457 C3451 1.429 . S
C3457 C3458 1.523 1_655 S
C3458 C3439 1.379 . S
C3458 C3452 1.368 . S
C3458 C3457 1.523 1_455 S
C3459 C3443 1.429 . S
C3459 C3455 1.429 . S
C3459 C3460 1.523 . S
C3460 C3444 1.368 . S
C3460 C3456 1.368 . S
C3460 C3459 1.523 . S
H3461 C3436 0.950 . S
H3462 C3438 0.962 . S
H3463 C3439 0.934 1_655 S
H3464 C3441 0.950 . S
H3465 C3443 0.950 . S
C3466 C3467 1.349 . S
C3466 C3468 1.327 . S
C3466 H3491 0.950 . S
C3467 C3466 1.349 . S
C3467 C3483 1.349 . S
C3468 C3466 1.327 . S
C3468 C3487 1.429 . S
C3468 H3492 0.950 . S
C3469 C3486 1.574 . S
C3469 C3488 1.368 . S
C3469 H3493 0.949 . S
H3470 C3474 0.949 . S
C3471 C3472 1.349 . S
C3471 C3473 1.327 . S
C3471 H3494 0.950 . S
C3472 C3471 1.349 . S
C3472 C3484 1.349 . S
C3473 C3471 1.327 . S
C3473 C3489 1.429 . S
C3473 H3495 0.950 . S
C3474 H3470 0.949 . S
C3474 C3482 1.574 . S
C3474 C3490 1.368 . S
H3475 C3483 0.950 . S
H3476 C3481 0.950 . S
H3477 C3482 0.949 . S
H3478 C3484 0.950 . S
H3479 C3485 0.950 . S
H3480 C3486 0.949 . S
C3481 H3476 0.950 . S
C3481 C3483 1.327 . S
C3481 C3487 1.429 . S
C3482 C3474 1.574 . S
C3482 H3477 0.949 . S
C3482 C3488 1.368 . S
C3483 C3467 1.349 . S
C3483 H3475 0.950 . S
C3483 C3481 1.327 . S
C3484 C3472 1.349 . S
C3484 H3478 0.950 . S
C3484 C3485 1.327 . S
C3485 H3479 0.950 . S
C3485 C3484 1.327 . S
C3485 C3489 1.429 . S
C3486 C3469 1.574 . S
C3486 H3480 0.949 . S
C3486 C3490 1.368 . S
C3487 C3468 1.429 . S
C3487 C3481 1.429 . S
C3487 C3488 1.523 . S
C3488 C3469 1.368 . S
C3488 C3482 1.368 . S
C3488 C3487 1.523 . S
C3489 C3473 1.429 . S
C3489 C3485 1.429 . S
C3489 C3490 1.523 . S
C3490 C3474 1.368 . S
C3490 C3486 1.368 . S
C3490 C3489 1.523 . S
H3491 C3466 0.950 . S
H3492 C3468 0.950 . S
H3493 C3469 0.949 . S
H3494 C3471 0.950 . S
H3495 C3473 0.950 . S
C3496 C3497 1.349 . S
C3496 C3498 1.327 . S
C3496 H3521 0.950 . S
C3497 C3496 1.349 . S
C3497 C3513 1.349 . S
C3498 C3496 1.327 . S
C3498 C3517 1.429 . S
C3498 H3522 0.950 . S
C3499 C3516 1.574 . S
C3499 C3518 1.368 . S
C3499 H3523 0.949 . S
H3500 C3504 0.949 . S
C3501 C3502 1.349 . S
C3501 C3503 1.327 . S
C3501 H3524 0.950 . S
C3502 C3501 1.349 . S
C3502 C3514 1.349 . S
C3503 C3501 1.327 . S
C3503 C3519 1.429 . S
C3503 H3525 0.950 . S
C3504 H3500 0.949 . S
C3504 C3512 1.574 . S
C3504 C3520 1.368 . S
H3505 C3513 0.950 . S
H3506 C3511 0.950 . S
H3507 C3512 0.949 . S
H3508 C3514 0.950 . S
H3509 C3515 0.950 . S
H3510 C3516 0.949 . S
C3511 H3506 0.950 . S
C3511 C3513 1.327 . S
C3511 C3517 1.429 . S
C3512 C3504 1.574 . S
C3512 H3507 0.949 . S
C3512 C3518 1.368 . S
C3513 C3497 1.349 . S
C3513 H3505 0.950 . S
C3513 C3511 1.327 . S
C3514 C3502 1.349 . S
C3514 H3508 0.950 . S
C3514 C3515 1.327 . S
C3515 H3509 0.950 . S
C3515 C3514 1.327 . S
C3515 C3519 1.429 . S
C3516 C3499 1.574 . S
C3516 H3510 0.949 . S
C3516 C3520 1.368 . S
C3517 C3498 1.429 . S
C3517 C3511 1.429 . S
C3517 C3518 1.523 . S
C3518 C3499 1.368 . S
C3518 C3512 1.368 . S
C3518 C3517 1.523 . S
C3519 C3503 1.429 . S
C3519 C3515 1.429 . S
C3519 C3520 1.523 . S
C3520 C3504 1.368 . S
C3520 C3516 1.368 . S
C3520 C3519 1.523 . S
H3521 C3496 0.950 . S
H3522 C3498 0.950 . S
H3523 C3499 0.949 . S
H3524 C3501 0.950 . S
H3525 C3503 0.950 . S
C3526 C3527 1.349 . S
C3526 C3528 1.327 . S
C3526 H3551 0.950 . S
C3527 C3526 1.349 . S
C3527 C3543 1.349 . S
C3528 C3526 1.327 . S
C3528 C3547 1.429 . S
C3528 H3552 0.950 . S
C3529 C3546 1.574 . S
C3529 C3548 1.368 . S
C3529 H3553 0.949 . S
H3530 C3534 0.949 . S
C3531 C3532 1.349 . S
C3531 C3533 1.327 . S
C3531 H3554 0.950 . S
C3532 C3531 1.349 . S
C3532 C3544 1.349 . S
C3533 C3531 1.327 . S
C3533 C3549 1.429 . S
C3533 H3555 0.950 . S
C3534 H3530 0.949 . S
C3534 C3542 1.574 . S
C3534 C3550 1.368 . S
H3535 C3543 0.950 . S
H3536 C3541 0.950 . S
H3537 C3542 0.949 . S
H3538 C3544 0.950 . S
H3539 C3545 0.950 . S
H3540 C3546 0.949 . S
C3541 H3536 0.950 . S
C3541 C3543 1.327 . S
C3541 C3547 1.429 . S
C3542 C3534 1.574 . S
C3542 H3537 0.949 . S
C3542 C3548 1.368 . S
C3543 C3527 1.349 . S
C3543 H3535 0.950 . S
C3543 C3541 1.327 . S
C3544 C3532 1.349 . S
C3544 H3538 0.950 . S
C3544 C3545 1.327 . S
C3545 H3539 0.950 . S
C3545 C3544 1.327 . S
C3545 C3549 1.429 . S
C3546 C3529 1.574 . S
C3546 H3540 0.949 . S
C3546 C3550 1.368 . S
C3547 C3528 1.429 . S
C3547 C3541 1.429 . S
C3547 C3548 1.523 . S
C3548 C3529 1.368 . S
C3548 C3542 1.368 . S
C3548 C3547 1.523 . S
C3549 C3533 1.429 . S
C3549 C3545 1.429 . S
C3549 C3550 1.523 . S
C3550 C3534 1.368 . S
C3550 C3546 1.368 . S
C3550 C3549 1.523 . S
H3551 C3526 0.950 . S
H3552 C3528 0.950 . S
H3553 C3529 0.949 . S
H3554 C3531 0.950 . S
H3555 C3533 0.950 . S
C3556 C3557 1.349 . S
C3556 C3558 1.327 . S
C3556 H3581 0.950 . S
C3557 C3556 1.349 . S
C3557 C3573 1.349 . S
C3558 C3556 1.327 . S
C3558 C3577 1.429 . S
C3558 H3582 0.950 1_655 S
C3559 C3576 1.574 . S
C3559 C3578 1.368 . S
C3559 H3583 0.949 . S
H3560 C3564 0.949 . S
C3561 C3562 1.349 1_655 S
C3561 C3563 1.327 . S
C3561 H3584 0.950 . S
C3562 C3561 1.349 1_455 S
C3562 C3574 1.349 . S
C3563 C3561 1.327 . S
C3563 C3579 1.429 . S
C3563 H3585 0.950 . S
C3564 H3560 0.949 . S
C3564 C3572 1.595 . S
C3564 C3580 1.368 1_455 S
H3565 C3573 0.950 . S
H3566 C3571 0.950 . S
H3567 C3572 0.965 . S
H3568 C3574 0.950 . S
H3569 C3575 0.950 . S
H3570 C3576 0.949 . S
C3571 H3566 0.950 . S
C3571 C3573 1.327 . S
C3571 C3577 1.429 . S
C3572 C3564 1.595 . S
C3572 H3567 0.965 . S
C3572 C3578 1.333 1_455 S
C3573 C3557 1.349 . S
C3573 H3565 0.950 . S
C3573 C3571 1.327 . S
C3574 C3562 1.349 . S
C3574 H3568 0.950 . S
C3574 C3575 1.327 . S
C3575 H3569 0.950 . S
C3575 C3574 1.327 . S
C3575 C3579 1.429 1_455 S
C3576 C3559 1.574 . S
C3576 H3570 0.949 . S
C3576 C3580 1.368 . S
C3577 C3558 1.429 . S
C3577 C3571 1.429 . S
C3577 C3578 1.523 . S
C3578 C3559 1.368 . S
C3578 C3572 1.333 1_655 S
C3578 C3577 1.523 . S
C3579 C3563 1.429 . S
C3579 C3575 1.429 1_655 S
C3579 C3580 1.523 . S
C3580 C3564 1.368 1_655 S
C3580 C3576 1.368 . S
C3580 C3579 1.523 . S
H3581 C3556 0.950 . S
H3582 C3558 0.950 1_455 S
H3583 C3559 0.949 . S
H3584 C3561 0.950 . S
H3585 C3563 0.950 . S
C3586 C3587 1.349 . S
C3586 C3588 1.327 . S
C3586 H3611 0.950 . S
C3587 C3586 1.349 . S
C3587 C3603 1.349 . S
C3588 C3586 1.327 . S
C3588 C3607 1.429 . S
C3588 H3612 0.950 . S
C3589 C3606 1.574 . S
C3589 C3608 1.368 . S
C3589 H3613 0.949 . S
H3590 C3594 0.949 . S
C3591 C3592 1.349 . S
C3591 C3593 1.327 . S
C3591 H3614 0.950 . S
C3592 C3591 1.349 . S
C3592 C3604 1.349 . S
C3593 C3591 1.327 . S
C3593 C3609 1.429 . S
C3593 H3615 0.950 . S
C3594 H3590 0.949 . S
C3594 C3602 1.574 . S
C3594 C3610 1.368 . S
H3595 C3603 0.950 . S
H3596 C3601 0.950 . S
H3597 C3602 0.949 . S
H3598 C3604 0.950 . S
H3599 C3605 0.950 . S
H3600 C3606 0.949 . S
C3601 H3596 0.950 . S
C3601 C3603 1.327 . S
C3601 C3607 1.429 . S
C3602 C3594 1.574 . S
C3602 H3597 0.949 . S
C3602 C3608 1.368 . S
C3603 C3587 1.349 . S
C3603 H3595 0.950 . S
C3603 C3601 1.327 . S
C3604 C3592 1.349 . S
C3604 H3598 0.950 . S
C3604 C3605 1.327 . S
C3605 H3599 0.950 . S
C3605 C3604 1.327 . S
C3605 C3609 1.429 . S
C3606 C3589 1.574 . S
C3606 H3600 0.949 . S
C3606 C3610 1.368 . S
C3607 C3588 1.429 . S
C3607 C3601 1.429 . S
C3607 C3608 1.523 . S
C3608 C3589 1.368 . S
C3608 C3602 1.368 . S
C3608 C3607 1.523 . S
C3609 C3593 1.429 . S
C3609 C3605 1.429 . S
C3609 C3610 1.523 . S
C3610 C3594 1.368 . S
C3610 C3606 1.368 . S
C3610 C3609 1.523 . S
H3611 C3586 0.950 . S
H3612 C3588 0.950 . S
H3613 C3589 0.949 . S
H3614 C3591 0.950 . S
H3615 C3593 0.950 . S
C3616 C3617 1.349 . S
C3616 C3618 1.327 . S
C3616 H3641 0.950 . S
C3617 C3616 1.349 . S
C3617 C3633 1.349 . S
C3618 C3616 1.327 . S
C3618 C3637 1.429 . S
C3618 H3642 0.950 . S
C3619 C3636 1.574 . S
C3619 C3638 1.368 . S
C3619 H3643 0.949 . S
H3620 C3624 0.949 . S
C3621 C3622 1.349 . S
C3621 C3623 1.327 . S
C3621 H3644 0.950 . S
C3622 C3621 1.349 . S
C3622 C3634 1.349 . S
C3623 C3621 1.327 . S
C3623 C3639 1.429 . S
C3623 H3645 0.950 . S
C3624 H3620 0.949 . S
C3624 C3632 1.574 . S
C3624 C3640 1.368 . S
H3625 C3633 0.950 . S
H3626 C3631 0.950 . S
H3627 C3632 0.949 . S
H3628 C3634 0.950 . S
H3629 C3635 0.950 . S
H3630 C3636 0.949 . S
C3631 H3626 0.950 . S
C3631 C3633 1.327 . S
C3631 C3637 1.429 . S
C3632 C3624 1.574 . S
C3632 H3627 0.949 . S
C3632 C3638 1.368 . S
C3633 C3617 1.349 . S
C3633 H3625 0.950 . S
C3633 C3631 1.327 . S
C3634 C3622 1.349 . S
C3634 H3628 0.950 . S
C3634 C3635 1.327 . S
C3635 H3629 0.950 . S
C3635 C3634 1.327 . S
C3635 C3639 1.429 . S
C3636 C3619 1.574 . S
C3636 H3630 0.949 . S
C3636 C3640 1.368 . S
C3637 C3618 1.429 . S
C3637 C3631 1.429 . S
C3637 C3638 1.523 . S
C3638 C3619 1.368 . S
C3638 C3632 1.368 . S
C3638 C3637 1.523 . S
C3639 C3623 1.429 . S
C3639 C3635 1.429 . S
C3639 C3640 1.523 . S
C3640 C3624 1.368 . S
C3640 C3636 1.368 . S
C3640 C3639 1.523 . S
H3641 C3616 0.950 . S
H3642 C3618 0.950 . S
H3643 C3619 0.949 . S
H3644 C3621 0.950 . S
H3645 C3623 0.950 . S
C3646 C3647 1.349 . S
C3646 C3648 1.327 . S
C3646 H3671 0.950 . S
C3647 C3646 1.349 . S
C3647 C3663 1.349 . S
C3648 C3646 1.327 . S
C3648 C3667 1.429 . S
C3648 H3672 0.950 . S
C3649 C3666 1.574 . S
C3649 C3668 1.368 . S
C3649 H3673 0.949 . S
H3650 C3654 0.949 . S
C3651 C3652 1.349 . S
C3651 C3653 1.327 . S
C3651 H3674 0.950 . S
C3652 C3651 1.349 . S
C3652 C3664 1.349 . S
C3653 C3651 1.327 . S
C3653 C3669 1.429 . S
C3653 H3675 0.950 . S
C3654 H3650 0.949 . S
C3654 C3662 1.574 . S
C3654 C3670 1.368 . S
H3655 C3663 0.950 . S
H3656 C3661 0.950 . S
H3657 C3662 0.949 . S
H3658 C3664 0.950 . S
H3659 C3665 0.950 . S
H3660 C3666 0.949 . S
C3661 H3656 0.950 . S
C3661 C3663 1.327 . S
C3661 C3667 1.429 . S
C3662 C3654 1.574 . S
C3662 H3657 0.949 . S
C3662 C3668 1.368 . S
C3663 C3647 1.349 . S
C3663 H3655 0.950 . S
C3663 C3661 1.327 . S
C3664 C3652 1.349 . S
C3664 H3658 0.950 . S
C3664 C3665 1.327 . S
C3665 H3659 0.950 . S
C3665 C3664 1.327 . S
C3665 C3669 1.429 . S
C3666 C3649 1.574 . S
C3666 H3660 0.949 . S
C3666 C3670 1.368 . S
C3667 C3648 1.429 . S
C3667 C3661 1.429 . S
C3667 C3668 1.523 . S
C3668 C3649 1.368 . S
C3668 C3662 1.368 . S
C3668 C3667 1.523 . S
C3669 C3653 1.429 . S
C3669 C3665 1.429 . S
C3669 C3670 1.523 . S
C3670 C3654 1.368 . S
C3670 C3666 1.368 . S
C3670 C3669 1.523 . S
H3671 C3646 0.950 . S
H3672 C3648 0.950 . S
H3673 C3649 0.949 . S
H3674 C3651 0.950 . S
H3675 C3653 0.950 . S
C3676 C3677 1.349 . S
C3676 C3678 1.327 . S
C3676 H3701 0.950 . S
C3677 C3676 1.349 . S
C3677 C3693 1.349 . S
C3678 C3676 1.327 . S
C3678 C3697 1.429 . S
C3678 H3702 0.950 . S
C3679 C3696 1.574 . S
C3679 C3698 1.368 . S
C3679 H3703 0.949 . S
H3680 C3684 0.949 . S
C3681 C3682 1.349 . S
C3681 C3683 1.327 . S
C3681 H3704 0.950 . S
C3682 C3681 1.349 . S
C3682 C3694 1.349 . S
C3683 C3681 1.327 . S
C3683 C3699 1.429 . S
C3683 H3705 0.950 . S
C3684 H3680 0.949 . S
C3684 C3692 1.574 . S
C3684 C3700 1.368 . S
H3685 C3693 0.950 . S
H3686 C3691 0.950 . S
H3687 C3692 0.949 . S
H3688 C3694 0.950 . S
H3689 C3695 0.950 . S
H3690 C3696 0.949 . S
C3691 H3686 0.950 . S
C3691 C3693 1.327 . S
C3691 C3697 1.429 . S
C3692 C3684 1.574 . S
C3692 H3687 0.949 . S
C3692 C3698 1.368 . S
C3693 C3677 1.349 . S
C3693 H3685 0.950 . S
C3693 C3691 1.327 . S
C3694 C3682 1.349 . S
C3694 H3688 0.950 . S
C3694 C3695 1.327 . S
C3695 H3689 0.950 . S
C3695 C3694 1.327 . S
C3695 C3699 1.429 . S
C3696 C3679 1.574 . S
C3696 H3690 0.949 . S
C3696 C3700 1.368 . S
C3697 C3678 1.429 . S
C3697 C3691 1.429 . S
C3697 C3698 1.523 . S
C3698 C3679 1.368 . S
C3698 C3692 1.368 . S
C3698 C3697 1.523 . S
C3699 C3683 1.429 . S
C3699 C3695 1.429 . S
C3699 C3700 1.523 . S
C3700 C3684 1.368 . S
C3700 C3696 1.368 . S
C3700 C3699 1.523 . S
H3701 C3676 0.950 . S
H3702 C3678 0.950 . S
H3703 C3679 0.949 . S
H3704 C3681 0.950 . S
H3705 C3683 0.950 . S
C3706 C3707 1.349 1_554 S
C3706 C3708 1.327 . S
C3706 H3731 0.950 . S
C3707 C3706 1.349 1_556 S
C3707 C3723 1.349 . S
C3708 C3706 1.327 . S
C3708 C3727 1.429 . S
C3708 H3732 0.950 . S
C3709 C3726 1.568 1_556 S
C3709 C3728 1.368 1_556 S
C3709 H3733 0.949 . S
H3710 C3714 0.949 . S
C3711 C3712 1.349 . S
C3711 C3713 1.327 . S
C3711 H3734 0.950 . S
C3712 C3711 1.349 . S
C3712 C3724 1.349 . S
C3713 C3711 1.327 . S
C3713 C3729 1.429 . S
C3713 H3735 0.944 1_554 S
C3714 H3710 0.949 . S
C3714 C3722 1.574 . S
C3714 C3730 1.368 . S
H3715 C3723 0.950 . S
H3716 C3721 0.950 . S
H3717 C3722 0.949 . S
H3718 C3724 0.950 . S
H3719 C3725 0.950 . S
H3720 C3726 0.945 1_556 S
C3721 H3716 0.950 . S
C3721 C3723 1.327 . S
C3721 C3727 1.429 1_556 S
C3722 C3714 1.574 . S
C3722 H3717 0.949 . S
C3722 C3728 1.368 . S
C3723 C3707 1.349 . S
C3723 H3715 0.950 . S
C3723 C3721 1.327 . S
C3724 C3712 1.349 . S
C3724 H3718 0.950 . S
C3724 C3725 1.327 . S
C3725 H3719 0.950 . S
C3725 C3724 1.327 . S
C3725 C3729 1.429 . S
C3726 C3709 1.568 1_554 S
C3726 H3720 0.945 1_554 S
C3726 C3730 1.379 . S
C3727 C3708 1.429 . S
C3727 C3721 1.429 1_554 S
C3727 C3728 1.523 . S
C3728 C3709 1.368 1_554 S
C3728 C3722 1.368 . S
C3728 C3727 1.523 . S
C3729 C3713 1.429 . S
C3729 C3725 1.429 . S
C3729 C3730 1.523 . S
C3730 C3714 1.368 . S
C3730 C3726 1.379 . S
C3730 C3729 1.523 . S
H3731 C3706 0.950 . S
H3732 C3708 0.950 . S
H3733 C3709 0.949 . S
H3734 C3711 0.950 . S
H3735 C3713 0.944 1_556 S
C3736 C3737 1.349 . S
C3736 C3738 1.327 . S
C3736 H3761 0.950 . S
C3737 C3736 1.349 . S
C3737 C3753 1.349 . S
C3738 C3736 1.327 . S
C3738 C3757 1.429 . S
C3738 H3762 0.950 . S
C3739 C3756 1.574 . S
C3739 C3758 1.368 . S
C3739 H3763 0.949 . S
H3740 C3744 0.949 . S
C3741 C3742 1.349 . S
C3741 C3743 1.327 . S
C3741 H3764 0.950 . S
C3742 C3741 1.349 . S
C3742 C3754 1.349 . S
C3743 C3741 1.327 . S
C3743 C3759 1.429 . S
C3743 H3765 0.950 . S
C3744 H3740 0.949 . S
C3744 C3752 1.574 . S
C3744 C3760 1.368 . S
H3745 C3753 0.950 . S
H3746 C3751 0.950 . S
H3747 C3752 0.949 . S
H3748 C3754 0.950 . S
H3749 C3755 0.950 . S
H3750 C3756 0.949 . S
C3751 H3746 0.950 . S
C3751 C3753 1.327 . S
C3751 C3757 1.429 . S
C3752 C3744 1.574 . S
C3752 H3747 0.949 . S
C3752 C3758 1.368 . S
C3753 C3737 1.349 . S
C3753 H3745 0.950 . S
C3753 C3751 1.327 . S
C3754 C3742 1.349 . S
C3754 H3748 0.950 . S
C3754 C3755 1.327 . S
C3755 H3749 0.950 . S
C3755 C3754 1.327 . S
C3755 C3759 1.429 . S
C3756 C3739 1.574 . S
C3756 H3750 0.949 . S
C3756 C3760 1.368 . S
C3757 C3738 1.429 . S
C3757 C3751 1.429 . S
C3757 C3758 1.523 . S
C3758 C3739 1.368 . S
C3758 C3752 1.368 . S
C3758 C3757 1.523 . S
C3759 C3743 1.429 . S
C3759 C3755 1.429 . S
C3759 C3760 1.523 . S
C3760 C3744 1.368 . S
C3760 C3756 1.368 . S
C3760 C3759 1.523 . S
H3761 C3736 0.950 . S
H3762 C3738 0.950 . S
H3763 C3739 0.949 . S
H3764 C3741 0.950 . S
H3765 C3743 0.950 . S
C3766 C3767 1.349 . S
C3766 C3768 1.327 . S
C3766 H3791 0.950 . S
C3767 C3766 1.349 . S
C3767 C3783 1.349 . S
C3768 C3766 1.327 . S
C3768 C3787 1.429 . S
C3768 H3792 0.950 . S
C3769 C3786 1.574 . S
C3769 C3788 1.368 . S
C3769 H3793 0.949 1_554 S
H3770 C3774 0.949 . S
C3771 C3772 1.349 . S
C3771 C3773 1.327 . S
C3771 H3794 0.950 1_554 S
C3772 C3771 1.349 . S
C3772 C3784 1.349 . S
C3773 C3771 1.327 . S
C3773 C3789 1.429 . S
C3773 H3795 0.950 1_554 S
C3774 H3770 0.949 . S
C3774 C3782 1.574 . S
C3774 C3790 1.368 . S
H3775 C3783 0.994 . S
H3776 C3781 0.921 1_556 S
H3777 C3782 0.949 . S
H3778 C3784 0.950 . S
H3779 C3785 0.950 . S
H3780 C3786 0.949 1_556 S
C3781 H3776 0.921 1_554 S
C3781 C3783 1.327 . S
C3781 C3787 1.429 . S
C3782 C3774 1.574 . S
C3782 H3777 0.949 . S
C3782 C3788 1.368 . S
C3783 C3767 1.349 . S
C3783 H3775 0.994 . S
C3783 C3781 1.327 . S
C3784 C3772 1.349 . S
C3784 H3778 0.950 . S
C3784 C3785 1.327 . S
C3785 H3779 0.950 . S
C3785 C3784 1.327 . S
C3785 C3789 1.429 . S
C3786 C3769 1.574 . S
C3786 H3780 0.949 1_554 S
C3786 C3790 1.368 . S
C3787 C3768 1.429 . S
C3787 C3781 1.429 . S
C3787 C3788 1.523 . S
C3788 C3769 1.368 . S
C3788 C3782 1.368 . S
C3788 C3787 1.523 . S
C3789 C3773 1.429 . S
C3789 C3785 1.429 . S
C3789 C3790 1.523 . S
C3790 C3774 1.368 . S
C3790 C3786 1.368 . S
C3790 C3789 1.523 . S
H3791 C3766 0.950 . S
H3792 C3768 0.950 . S
H3793 C3769 0.949 1_556 S
H3794 C3771 0.950 1_556 S
H3795 C3773 0.950 1_556 S
C3796 C3797 1.349 . S
C3796 C3798 1.327 . S
C3796 H3821 0.950 . S
C3797 C3796 1.349 . S
C3797 C3813 1.349 . S
C3798 C3796 1.327 . S
C3798 C3817 1.429 . S
C3798 H3822 0.950 . S
C3799 C3816 1.574 . S
C3799 C3818 1.368 . S
C3799 H3823 0.949 . S
H3800 C3804 0.949 . S
C3801 C3802 1.349 . S
C3801 C3803 1.327 . S
C3801 H3824 0.950 . S
C3802 C3801 1.349 . S
C3802 C3814 1.349 . S
C3803 C3801 1.327 . S
C3803 C3819 1.429 . S
C3803 H3825 0.950 . S
C3804 H3800 0.949 . S
C3804 C3812 1.574 . S
C3804 C3820 1.368 . S
H3805 C3813 0.950 . S
H3806 C3811 0.950 . S
H3807 C3812 0.949 . S
H3808 C3814 0.950 . S
H3809 C3815 0.950 . S
H3810 C3816 0.949 . S
C3811 H3806 0.950 . S
C3811 C3813 1.327 . S
C3811 C3817 1.429 . S
C3812 C3804 1.574 . S
C3812 H3807 0.949 . S
C3812 C3818 1.368 . S
C3813 C3797 1.349 . S
C3813 H3805 0.950 . S
C3813 C3811 1.327 . S
C3814 C3802 1.349 . S
C3814 H3808 0.950 . S
C3814 C3815 1.327 . S
C3815 H3809 0.950 . S
C3815 C3814 1.327 . S
C3815 C3819 1.429 . S
C3816 C3799 1.574 . S
C3816 H3810 0.949 . S
C3816 C3820 1.368 . S
C3817 C3798 1.429 . S
C3817 C3811 1.429 . S
C3817 C3818 1.523 . S
C3818 C3799 1.368 . S
C3818 C3812 1.368 . S
C3818 C3817 1.523 . S
C3819 C3803 1.429 . S
C3819 C3815 1.429 . S
C3819 C3820 1.523 . S
C3820 C3804 1.368 . S
C3820 C3816 1.368 . S
C3820 C3819 1.523 . S
H3821 C3796 0.950 . S
H3822 C3798 0.950 . S
H3823 C3799 0.949 . S
H3824 C3801 0.950 . S
H3825 C3803 0.950 . S
C3826 C3827 1.349 . S
C3826 C3828 1.327 . S
C3826 H3851 0.950 . S
C3827 C3826 1.349 . S
C3827 C3843 1.349 . S
C3828 C3826 1.327 . S
C3828 C3847 1.429 . S
C3828 H3852 0.950 . S
C3829 C3846 1.574 . S
C3829 C3848 1.368 . S
C3829 H3853 0.949 . S
H3830 C3834 0.949 . S
C3831 C3832 1.349 . S
C3831 C3833 1.327 . S
C3831 H3854 0.950 . S
C3832 C3831 1.349 . S
C3832 C3844 1.349 . S
C3833 C3831 1.327 . S
C3833 C3849 1.429 . S
C3833 H3855 0.950 . S
C3834 H3830 0.949 . S
C3834 C3842 1.574 . S
C3834 C3850 1.368 . S
H3835 C3843 0.950 . S
H3836 C3841 0.950 . S
H3837 C3842 0.949 . S
H3838 C3844 0.950 . S
H3839 C3845 0.950 . S
H3840 C3846 0.949 . S
C3841 H3836 0.950 . S
C3841 C3843 1.327 . S
C3841 C3847 1.429 . S
C3842 C3834 1.574 . S
C3842 H3837 0.949 . S
C3842 C3848 1.368 . S
C3843 C3827 1.349 . S
C3843 H3835 0.950 . S
C3843 C3841 1.327 . S
C3844 C3832 1.349 . S
C3844 H3838 0.950 . S
C3844 C3845 1.327 . S
C3845 H3839 0.950 . S
C3845 C3844 1.327 . S
C3845 C3849 1.429 . S
C3846 C3829 1.574 . S
C3846 H3840 0.949 . S
C3846 C3850 1.368 . S
C3847 C3828 1.429 . S
C3847 C3841 1.429 . S
C3847 C3848 1.523 . S
C3848 C3829 1.368 . S
C3848 C3842 1.368 . S
C3848 C3847 1.523 . S
C3849 C3833 1.429 . S
C3849 C3845 1.429 . S
C3849 C3850 1.523 . S
C3850 C3834 1.368 . S
C3850 C3846 1.368 . S
C3850 C3849 1.523 . S
H3851 C3826 0.950 . S
H3852 C3828 0.950 . S
H3853 C3829 0.949 . S
H3854 C3831 0.950 . S
H3855 C3833 0.950 . S
C977 C109 1.677 1_455 S
C982 C358 1.681 . S
C1007 C65 1.075 . S
C1012 C378 1.055 . S
C1037 C75 0.534 . S
C1042 C425 0.540 . S
C1072 C482 0.964 . S
C1067 C84 0.964 . S
C1097 C25 2.629 . S
C1102 C499 2.620 . S
C1132 C558 1.627 . S
C1127 C28 1.621 . S
C1162 C591 2.730 . S
C1157 C47 2.733 . S
C1187 C9 2.512 . S
C1192 C638 2.494 . S
C1222 C351 1.466 . S
C1217 C233 1.465 . S
C1247 C249 1.241 . S
C1252 C379 1.230 . S
C1282 C418 0.608 . S
C1277 C275 0.599 . S
C1312 C478 2.030 . S
C1307 C173 2.024 . S
C1337 C224 0.276 . S
C1342 C505 0.297 . S
C1372 C551 2.345 . S
C1367 C243 2.357 . S
C1402 C602 0.464 . S
C1397 C266 0.430 1_565 S
C1432 C631 2.240 . S
C1427 C179 2.236 . S
C1462 C362 1.662 . S
C1457 C163 1.679 . S
C1487 C289 2.262 . S
C1492 C658 2.233 . S
C1522 C722 1.103 . S
C1517 C333 1.102 . S
C1552 C758 1.205 1_655 S
C1547 C308 1.192 . S
C1577 C123 1.102 . S
C1582 C642 1.113 . S
C1607 C126 2.603 . S
C1612 C419 2.610 . S
C1637 C327 1.436 . S
C1642 C791 1.447 . S
C1672 C825 0.216 . S
C1667 C299 0.189 . S
C1702 C339 1.695 . S
C1697 C67 1.703 . S
C1732 C831 1.098 . S
C1727 C98 1.101 . S
C1757 C89 0.565 . S
C1762 C442 0.569 . S
C1787 C79 1.015 . S
C1792 C785 1.005 . S
C1822 C518 2.673 . S
C1817 C11 2.681 . S
C1847 C51 1.658 . S
C1852 C699 1.650 . S
C1882 C578 2.787 1_556 S
C1877 C33 2.792 . S
C1912 C859 2.483 . S
C1907 C14 2.501 1_655 S
C1942 C338 1.436 . S
C1937 C140 1.429 . S
C1972 C838 1.276 . S
C1967 C319 1.287 . S
C1997 C112 0.631 . S
C2002 C431 0.636 . S
C2027 C285 2.055 . S
C2032 C779 2.063 . S
C2057 C149 0.308 . S
C2062 C522 0.331 . S
C2092 C698 2.401 . S
C2087 C313 2.414 . S
C2117 C121 0.323 . S
C2122 C585 0.424 1_565 S
C2147 C291 2.279 . S
C2152 C858 2.285 . S
C2177 C182 1.645 . S
C2182 C345 1.633 . S
C2207 C168 2.267 . S
C2212 C671 2.251 . S
C2237 C263 1.134 . S
C2242 C545 1.126 . S
C2267 C247 1.275 . S
C2272 C739 1.264 . S
C2302 C865 1.097 . S
C2297 C277 1.101 . S
C2327 C219 2.648 . S
C2332 C438 2.640 1_565 S
C2362 C458 1.502 . S
C2357 C257 1.493 . S
C2392 C402 0.219 . S
C2387 C201 0.178 . S
C2417 C81 1.683 . S
C2422 C918 1.683 . S
C2452 C818 1.055 . S
C2447 C93 1.076 . S
C2477 C103 0.533 . S
C2482 C945 0.542 . S
C2507 C56 0.964 . S
C2512 C802 0.963 . S
C2537 C53 2.629 . S
C2542 C659 2.620 . S
C2572 C718 1.626 . S
C2567 C0 1.621 1_655 S
C2602 C751 2.729 . S
C2597 C19 2.733 . S
C2632 C878 2.494 . S
C2627 C37 2.512 . S
C2662 C911 1.466 . S
C2657 C261 1.465 . S
C2687 C193 1.241 . S
C2692 C819 1.234 . S
C2722 C938 0.608 . S
C2717 C205 0.599 . S
C2752 C798 2.029 . S
C2747 C215 2.024 . S
C2782 C665 0.298 . S
C2777 C252 0.276 . S
C2807 C187 2.357 . S
C2812 C711 2.341 . S
C2842 C762 0.464 . S
C2837 C196 0.423 . S
C2867 C221 2.235 . S
C2872 C871 2.240 . S
C2902 C922 1.662 . S
C2897 C317 1.679 . S
C2927 C135 2.262 . S
C2932 C498 2.233 . S
C2962 C562 1.103 . S
C2957 C151 1.103 1_565 S
C2992 C598 1.202 1_565 S
C2987 C154 1.192 . S
C3022 C882 1.114 . S
C3017 C305 1.102 . S
C3047 C280 2.603 . S
C3052 C939 2.610 1_655 S
C3082 C471 1.447 . S
C3077 C145 1.436 . S
C3112 C385 0.216 . S
C3107 C117 0.189 . S
C3137 C95 1.703 . S
C3142 C899 1.695 . S
C3172 C391 1.098 . S
C3167 C70 1.094 . S
C3197 C61 0.565 . S
C3202 C962 0.569 . S
C3227 C107 1.015 . S
C3232 C465 0.998 . S
C3257 C39 2.681 . S
C3262 C678 2.673 1_556 S
C3292 C539 1.650 . S
C3287 C23 1.658 . S
C3317 C5 2.792 . S
C3322 C738 2.787 . S
C3347 C42 2.500 . S
C3352 C619 2.483 . S
C3382 C898 1.435 . S
C3377 C322 1.429 . S
C3407 C165 1.287 . S
C3412 C398 1.276 . S
C3442 C951 0.636 . S
C3437 C294 0.631 . S
C3467 C131 2.054 . S
C3472 C459 2.062 . S
C3497 C331 0.308 . S
C3502 C682 0.331 . S
C3532 C538 2.400 . S
C3527 C159 2.413 1_556 S
C3557 C303 0.323 . S
C3562 C745 0.424 . S
C3592 C618 2.284 . S
C3587 C137 2.279 . S
C3622 C905 1.633 . S
C3617 C238 1.645 . S
C3652 C511 2.251 1_665 S
C3647 C210 2.267 . S
C3677 C235 1.134 . S
C3682 C705 1.126 . S
C3712 C579 1.264 . S
C3707 C191 1.274 . S
C3737 C207 1.093 . S
C3742 C625 1.097 . S
C3767 C177 2.648 . S
C3772 C958 2.640 . S
C3802 C778 1.503 . S
C3797 C229 1.493 . S
C3832 C842 0.219 . S
C3827 C271 0.170 . S
