# Generated by pormake.
# Topology tsx, (6,3)-cn, num edge types: 1
# Building blocks:
#     Node 0, Type 0, BuildingBlock: VOLQOD_clean_sbu_1, # of connection points: 6
#     Node 1, Type 0, BuildingBlock: VOLQOD_clean_sbu_1, # of connection points: 6
#     Node 2, Type 1, BuildingBlock: WUSLED_clean_sbu_0, # of connection points: 3
#     Node 3, Type 1, BuildingBlock: WUSLED_clean_sbu_0, # of connection points: 3
#     Node 4, Type 1, BuildingBlock: WUSLED_clean_sbu_0, # of connection points: 3
#     Node 5, Type 1, BuildingBlock: WUSLED_clean_sbu_0, # of connection points: 3
#     Edge 6, Type (0, 1), BuildingBlock: FUNLAD_clean_linker_1, # of connection points: 2
#     Edge 7, Type (0, 1), BuildingBlock: FUNLAD_clean_linker_1, # of connection points: 2
#     Edge 8, Type (0, 1), BuildingBlock: FUNLAD_clean_linker_1, # of connection points: 2
#     Edge 9, Type (0, 1), BuildingBlock: FUNLAD_clean_linker_1, # of connection points: 2
#     Edge 10, Type (0, 1), BuildingBlock: FUNLAD_clean_linker_1, # of connection points: 2
#     Edge 11, Type (0, 1), BuildingBlock: FUNLAD_clean_linker_1, # of connection points: 2
#     Edge 12, Type (0, 1), BuildingBlock: FUNLAD_clean_linker_1, # of connection points: 2
#     Edge 13, Type (0, 1), BuildingBlock: FUNLAD_clean_linker_1, # of connection points: 2
#     Edge 14, Type (0, 1), BuildingBlock: FUNLAD_clean_linker_1, # of connection points: 2
#     Edge 15, Type (0, 1), BuildingBlock: FUNLAD_clean_linker_1, # of connection points: 2
#     Edge 16, Type (0, 1), BuildingBlock: FUNLAD_clean_linker_1, # of connection points: 2
#     Edge 17, Type (0, 1), BuildingBlock: FUNLAD_clean_linker_1, # of connection points: 2
# Relax obj value: 0.070
# Max RMSD: 0.104
# Mean RMSD: 0.078
data_MOF--net-tsx--node1-VOLQOD_clean_sbu_1--node2-WUSLED_clean_sbu_0--edge1-FUNLAD_clean_linker_1
_symmetry_space_group_name_H-M    P1
_symmetry_Int_Tables_number       1
_symmetry_cell_setting            triclinic
loop_
_symmetry_equiv_pos_as_xyz
'x, y, z'
_cell_length_a     27.057074
_cell_length_b     27.947796
_cell_length_c     53.22652
_cell_angle_alpha  90.766072
_cell_angle_beta   90.091156
_cell_angle_gamma 89.953851
loop_
_atom_site_label
_atom_site_type_symbol
_atom_site_fract_x
_atom_site_fract_y
_atom_site_fract_z
_atom_type_partial_charge
O0 O 0.05013 0.01486 0.0731 0.0
Zn1 Zn 0.0762 0.01283 0.03744 0.0
O2 O 0.02161 0.01358 0.01313 0.0
Zn3 Zn 0.02092 0.95325 0.99417 0.0
Zn4 Zn 0.95834 0.02175 0.03073 0.0
Zn5 Zn 0.03115 0.066 0.98969 0.0
O6 O 0.01733 0.96477 0.95689 0.0
O7 O 0.03515 0.04209 0.95367 0.0
O8 O 0.11976 0.95426 0.03227 0.0
O9 O 0.08336 0.91592 1.0004 0.0
O10 O 0.96301 0.91216 1.00431 0.0
O11 O 0.91717 0.96158 0.02763 0.0
O12 O 0.91895 0.07811 0.01721 0.0
O13 O 0.11974 0.07108 0.03326 0.0
O14 O 0.97248 0.10993 0.99053 0.0
O15 O 0.0912 0.10559 0.99873 0.0
C16 C 1.00757 0.02439 0.08217 0.0
C17 C 0.02597 1.00138 0.94363 0.0
C18 C 0.92441 0.9208 0.01725 0.0
C19 C 0.11845 0.91994 0.01628 0.0
C20 C 0.93074 0.11022 1.00148 0.0
C21 C 0.12181 0.10391 0.01689 0.0
O22 O 0.97007 0.03068 0.06807 0.0
O23 O 0.56911 0.49097 0.57146 0.0
Zn24 Zn 0.58265 0.49424 0.53415 0.0
O25 O 0.52125 0.50579 0.5158 0.0
Zn26 Zn 0.50575 0.44911 0.49539 0.0
Zn27 Zn 0.46739 0.51779 0.53942 0.0
Zn28 Zn 0.52902 0.56183 0.49444 0.0
O29 O 0.49667 0.46763 0.45925 0.0
O30 O 0.52684 0.54176 0.45766 0.0
O31 O 0.61778 0.43405 0.52178 0.0
O32 O 0.56287 0.40283 0.49519 0.0
O33 O 0.44555 0.41376 0.50842 0.0
O34 O 0.42004 0.46248 0.53909 0.0
O35 O 0.42776 0.57677 0.53022 0.0
O36 O 0.6293 0.54955 0.52981 0.0
O37 O 0.47199 0.60758 0.49926 0.0
O38 O 0.59209 0.59812 0.50292 0.0
C39 C 0.53333 0.50639 0.58486 0.0
C40 C 0.50977 0.50418 0.44685 0.0
C41 C 0.41567 0.42411 0.52618 0.0
C42 C 0.60465 0.40151 0.50614 0.0
C43 C 0.43467 0.60883 0.51381 0.0
C44 C 0.62816 0.58814 0.51741 0.0
O45 O 0.49347 0.52191 0.57503 0.0
C46 C 0.96496 0.09531 0.45153 0.0
C47 C 0.92529 0.10865 0.43608 0.0
C48 C 0.8968 0.16561 0.46807 0.0
C49 C 0.89144 0.14346 0.44426 0.0
C50 C 0.93708 0.15259 0.48321 0.0
C51 C 0.97067 0.11762 0.47508 0.0
U52 U 0.0325 0.0244 0.40005 0.0
O53 O 0.11076 1.00399 0.39695 0.0
O54 O 0.05374 0.94827 0.39827 0.0
C55 C 0.10131 0.95796 0.39852 0.0
C56 C 1.0011 0.05885 0.44332 0.0
C57 C 0.13249 0.92975 0.41591 0.0
C58 C 0.20541 0.92197 0.4425 0.0
C59 C 0.17327 0.95032 0.4284 0.0
C60 C 0.15602 0.85212 0.43259 0.0
C61 C 0.19797 0.87236 0.44432 0.0
C62 C 0.12399 0.88046 0.41842 0.0
C63 C 1.00325 0.04924 0.33099 0.0
C64 C 0.05059 0.01522 0.29632 0.0
C65 C 0.97931 0.06501 0.28786 0.0
C66 C 0.97158 0.07095 0.31369 0.0
C67 C 0.01893 0.0369 0.27883 0.0
C68 C 0.04272 0.02113 0.32218 0.0
C69 C 0.99543 0.05751 0.35805 0.0
O70 O 0.98267 0.02017 0.43255 0.0
O71 O 0.04032 0.07529 0.43176 0.0
O72 O 0.03244 0.07782 0.37012 0.0
O73 O 0.9757 0.02183 0.37035 0.0
H74 H 0.92066 0.09232 0.41765 0.0
H75 H 0.86187 0.15346 0.43168 0.0
H76 H 0.94243 0.1693 0.5015 0.0
H77 H 1.00125 0.10806 0.4872 0.0
H78 H 0.23707 0.93876 0.45145 0.0
H79 H 0.18117 0.98815 0.42685 0.0
H80 H 0.1477 0.81445 0.434 0.0
H81 H 0.09299 0.86352 0.40896 0.0
H82 H 0.08159 0.99372 0.28997 0.0
H83 H 0.95488 0.08354 0.27517 0.0
H84 H 0.94118 0.09312 0.32019 0.0
H85 H 0.06769 1.00421 0.3353 0.0
C86 C 0.93387 0.93895 0.57767 0.0
C87 C 0.89218 0.93259 0.59294 0.0
C88 C 0.85952 0.87296 0.56355 0.0
C89 C 0.85518 0.90021 0.58581 0.0
C90 C 0.90143 0.87937 0.5483 0.0
C91 C 0.93823 0.9121 0.55534 0.0
U92 U 0.00889 1.00709 0.6272 0.0
O93 O 0.08801 0.02483 0.62875 0.0
O94 O 0.0327 0.08236 0.6287 0.0
C95 C 0.07986 0.07116 0.62748 0.0
C96 C 0.97286 0.97346 0.58469 0.0
C97 C 0.11017 0.09863 0.60953 0.0
C98 C 0.17955 0.10449 0.5806 0.0
C99 C 0.14821 0.07686 0.59546 0.0
C100 C 0.13464 0.17589 0.59295 0.0
C101 C 0.17397 0.15442 0.57964 0.0
C102 C 0.10345 0.14832 0.60786 0.0
C103 C 0.98359 0.98635 0.69669 0.0
C104 C 0.0266 0.03083 0.72958 0.0
C105 C 0.97004 0.9673 0.74052 0.0
C106 C 0.96035 0.95889 0.71502 0.0
C107 C 1.00305 1.00374 0.74814 0.0
C108 C 0.0169 0.02232 0.70407 0.0
C109 C 0.97338 0.97653 0.66998 0.0
O110 O 0.95764 0.01354 0.59536 0.0
O111 O 0.01198 0.9552 0.59568 0.0
O112 O 0.00894 0.95455 0.65762 0.0
O113 O 0.95381 0.01212 0.65748 0.0
H114 H 0.88813 0.95278 0.61034 0.0
H115 H 0.82323 0.89614 0.59784 0.0
H116 H 0.90552 0.86 0.53069 0.0
H117 H 0.97003 0.91668 0.54326 0.0
H118 H 0.20918 0.08688 0.57038 0.0
H119 H 0.15457 0.03866 0.59632 0.0
H120 H 0.12778 0.21395 0.59211 0.0
H121 H 0.0745 0.16612 0.61848 0.0
H122 H 0.05254 0.05876 0.73483 0.0
H123 H 0.95225 0.94447 0.75402 0.0
H124 H 0.93495 0.93061 0.70961 0.0
H125 H 0.03547 0.04367 0.69011 0.0
C126 C 0.43631 0.57894 0.94952 0.0
C127 C 0.40939 0.60143 0.93048 0.0
C128 C 0.3653 0.64965 0.96166 0.0
C129 C 0.37412 0.63628 0.93652 0.0
C130 C 0.39246 0.6269 0.98075 0.0
C131 C 0.42773 0.59188 0.97466 0.0
U132 U 0.50326 0.50657 0.89984 0.0
O133 O 0.58107 0.48373 0.8966 0.0
O134 O 0.52171 0.43015 0.8971 0.0
C135 C 0.56962 0.43805 0.89716 0.0
C136 C 0.47277 0.54168 0.94309 0.0
C137 C 0.59956 0.40805 0.91395 0.0
C138 C 0.60945 0.36045 0.95158 0.0
C139 C 0.58148 0.39212 0.9371 0.0
C140 C 0.67426 0.36136 0.92026 0.0
C141 C 0.65612 0.34462 0.94334 0.0
C142 C 0.64626 0.39279 0.90581 0.0
C143 C 0.46983 0.53309 0.83111 0.0
C144 C 0.51785 0.51192 0.79398 0.0
C145 C 0.43212 0.53555 0.78973 0.0
C146 C 0.42875 0.54158 0.81576 0.0
C147 C 0.4768 0.52139 0.77847 0.0
C148 C 0.51433 0.51771 0.82011 0.0
C149 C 0.46524 0.54104 0.85841 0.0
O150 O 0.45422 0.50273 0.93268 0.0
O151 O 0.51258 0.55702 0.9316 0.0
O152 O 0.50381 0.55991 0.86987 0.0
O153 O 0.44484 0.50607 0.87097 0.0
H154 H 0.41548 0.59181 0.91094 0.0
H155 H 0.35364 0.65287 0.92144 0.0
H156 H 0.38604 0.63513 1.00038 0.0
H157 H 0.44799 0.57461 0.98959 0.0
H158 H 0.59435 0.34789 0.96914 0.0
H159 H 0.54543 0.40338 0.94375 0.0
H160 H 0.70918 0.34902 0.91273 0.0
H161 H 0.66063 0.40429 0.88788 0.0
H162 H 0.55251 0.49957 0.78614 0.0
H163 H 0.39982 0.54268 0.77831 0.0
H164 H 0.39401 0.55321 0.82392 0.0
H165 H 0.54634 0.51033 0.83169 0.0
C166 C 0.4535 0.43107 0.08345 0.0
C167 C 0.43832 0.40134 0.10301 0.0
C168 C 0.38748 0.35475 0.07389 0.0
C169 C 0.40588 0.36339 0.09823 0.0
C170 C 0.40299 0.38462 0.05427 0.0
C171 C 0.43569 0.42251 0.05907 0.0
U172 U 0.52001 0.50927 0.13074 0.0
O173 O 0.59677 0.53542 0.1325 0.0
O174 O 0.53496 0.58653 0.13229 0.0
C175 C 0.58319 0.58056 0.13168 0.0
C176 C 0.48774 0.47091 0.08857 0.0
C177 C 0.61165 0.61155 0.11472 0.0
C178 C 0.61641 0.6703 0.08145 0.0
C179 C 0.58908 0.63722 0.09527 0.0
C180 C 0.68939 0.65145 0.10577 0.0
C181 C 0.66678 0.67806 0.08661 0.0
C182 C 0.66208 0.61859 0.11959 0.0
C183 C 0.49654 0.48506 0.20011 0.0
C184 C 0.53435 0.53269 0.23344 0.0
C185 C 0.48104 0.46617 0.24376 0.0
C186 C 0.47379 0.45663 0.21818 0.0
C187 C 0.51102 0.50475 0.25171 0.0
C188 C 0.52705 0.52307 0.20783 0.0
C189 C 0.48819 0.47453 0.17335 0.0
O190 O 0.46755 0.50901 0.09906 0.0
O191 O 0.52975 0.45866 0.09916 0.0
O192 O 0.52637 0.45696 0.1611 0.0
O193 O 0.46462 0.50784 0.1609 0.0
H194 H 0.45165 0.40745 0.12199 0.0
H195 H 0.39484 0.34091 0.11367 0.0
H196 H 0.3908 0.37848 0.03513 0.0
H197 H 0.44724 0.445 0.04374 0.0
H198 H 0.59791 0.69053 0.06697 0.0
H199 H 0.55015 0.63266 0.09115 0.0
H200 H 0.72758 0.65719 0.11101 0.0
H201 H 0.6801 0.59969 0.13472 0.0
H202 H 0.55803 0.56225 0.23899 0.0
H203 H 0.46374 0.44267 0.2571 0.0
H204 H 0.45053 0.42684 0.21249 0.0
H205 H 0.54513 0.54524 0.19406 0.0
H206 H 0.15924 0.17015 1.00519 0.0
C207 C 0.15923 0.14223 0.01923 0.0
H208 H 0.19098 0.11809 0.05307 0.0
H209 H 0.35847 0.27283 0.01081 0.0
H210 H 0.37129 0.21602 0.9766 0.0
H211 H 0.31855 0.14446 0.97208 0.0
H212 H 0.25249 0.12942 1.00164 0.0
C213 C 0.19167 0.14471 0.03838 0.0
C214 C 0.22552 0.18645 0.0416 0.0
C215 C 0.26438 0.19444 0.02428 0.0
C216 C 0.29533 0.23534 0.02713 0.0
C217 C 0.3338 0.24243 0.00955 0.0
C218 C 0.34167 0.21004 0.98984 0.0
C219 C 0.31194 0.16978 0.98728 0.0
C220 C 0.27386 0.16177 1.00429 0.0
H221 H 0.35306 0.28574 0.08389 0.0
C222 C 0.35333 0.31361 0.06981 0.0
H223 H 0.3197 0.33714 0.03615 0.0
H224 H 0.15552 0.18098 0.07858 0.0
H225 H 0.14294 0.23753 0.11289 0.0
H226 H 0.19535 0.30934 0.11727 0.0
H227 H 0.26093 0.32476 0.08753 0.0
C228 C 0.32128 0.31 0.05051 0.0
C229 C 0.28808 0.26769 0.04755 0.0
C230 C 0.2493 0.25962 0.06492 0.0
C231 C 0.21843 0.21866 0.06211 0.0
C232 C 0.18013 0.21142 0.07979 0.0
C233 C 0.17237 0.24369 0.09955 0.0
C234 C 0.20192 0.28407 0.10204 0.0
C235 C 0.23976 0.29228 0.08492 0.0
H236 H 0.18574 0.88531 0.0313 0.0
C237 C 0.15923 0.88464 0.01593 0.0
H238 H 0.13859 0.85199 0.9815 0.0
H239 H 0.37443 0.7865 0.99007 0.0
H240 H 0.39418 0.8711 0.98938 0.0
H241 H 0.32815 0.93196 0.99083 0.0
H242 H 0.24218 0.90872 0.99327 0.0
C243 C 0.16528 0.85323 0.99678 0.0
C244 C 0.20597 0.81713 0.99622 0.0
C245 C 0.25619 0.83151 0.99438 0.0
C246 C 0.29429 0.79637 0.99287 0.0
C247 C 0.34406 0.81164 0.99117 0.0
C248 C 0.35593 0.8601 0.9907 0.0
C249 C 0.31876 0.89435 0.99157 0.0
C250 C 0.26945 0.88046 0.99322 0.0
H251 H 0.30005 0.69362 0.95208 0.0
C252 C 0.32623 0.68594 0.96704 0.0
H253 H 0.34895 0.70674 1.00375 0.0
H254 H 0.11387 0.77717 0.99991 0.0
H255 H 0.09442 0.69255 1.00003 0.0
H256 H 0.16051 0.63188 0.99726 0.0
H257 H 0.24646 0.6555 0.99428 0.0
C258 C 0.32192 0.71057 0.98884 0.0
C259 C 0.28214 0.74704 0.99232 0.0
C260 C 0.23206 0.73266 0.99439 0.0
C261 C 0.19398 0.7677 0.9962 0.0
C262 C 0.14431 0.7522 0.99826 0.0
C263 C 0.13259 0.70369 0.99846 0.0
C264 C 0.16979 0.66954 0.99689 0.0
C265 C 0.21899 0.68362 0.995 0.0
H266 H 0.89922 0.84574 0.0147 0.0
C267 C 0.88955 0.88116 0.02184 0.0
H268 H 0.83972 0.92156 0.04402 0.0
H269 H 0.72344 0.71258 0.02395 0.0
H270 H 0.72049 0.73453 0.98001 0.0
H271 H 0.7616 0.80782 0.96539 0.0
H272 H 0.80653 0.85924 0.99455 0.0
C273 C 0.84886 0.88664 0.03608 0.0
C274 C 0.82009 0.84455 0.04484 0.0
C275 C 0.79268 0.81568 0.02768 0.0
C276 C 0.76742 0.77431 0.03627 0.0
C277 C 0.74207 0.74508 0.01857 0.0
C278 C 0.74026 0.75717 0.99328 0.0
C279 C 0.76353 0.79837 0.98503 0.0
C280 C 0.78944 0.82743 1.00194 0.0
H281 H 0.67147 0.74534 0.06513 0.0
C282 C 0.69342 0.71683 0.07328 0.0
H283 H 0.76617 0.69119 0.07912 0.0
H284 H 0.86824 0.8926 0.08291 0.0
H285 H 0.86792 0.87265 0.12702 0.0
H286 H 0.8222 0.80235 0.14207 0.0
H287 H 0.77631 0.75166 0.11305 0.0
C288 C 0.74299 0.71919 0.07152 0.0
C289 C 0.76839 0.76271 0.06213 0.0
C290 C 0.79479 0.79224 0.07937 0.0
C291 C 0.82067 0.83312 0.07073 0.0
C292 C 0.84731 0.86149 0.08839 0.0
C293 C 0.84764 0.85035 0.11381 0.0
C294 C 0.8219 0.81078 0.12228 0.0
C295 C 0.79577 0.78193 0.10537 0.0
H296 H 0.90838 0.17473 0.98126 0.0
C297 C 0.89529 0.14777 0.99423 0.0
H298 H 0.83322 0.12228 0.01416 0.0
H299 H 0.72724 0.32646 1.00368 0.0
H300 H 0.74186 0.32418 0.04863 0.0
H301 H 0.78887 0.2579 0.06738 0.0
H302 H 0.82172 0.19349 0.04126 0.0
C303 C 0.84748 0.14827 1.00102 0.0
C304 C 0.8131 0.18448 0.99026 0.0
C305 C 0.79303 0.22115 1.00583 0.0
C306 C 0.76541 0.25915 0.99502 0.0
C307 C 0.7476 0.29631 0.01091 0.0
C308 C 0.75593 0.29554 0.03674 0.0
C309 C 0.78245 0.25825 0.0473 0.0
C310 C 0.80107 0.2215 0.03211 0.0
H311 H 0.662 0.28567 0.97073 0.0
C312 C 0.68326 0.30821 0.95823 0.0
H313 H 0.75496 0.32358 0.94467 0.0
H314 H 0.83802 0.11501 0.95571 0.0
H315 H 0.82211 0.1163 0.9109 0.0
H316 H 0.77662 0.18333 0.89194 0.0
H317 H 0.7462 0.24914 0.91776 0.0
C318 C 0.73243 0.30135 0.95664 0.0
C319 C 0.75742 0.25998 0.96867 0.0
C320 C 0.77552 0.22208 0.95327 0.0
C321 C 0.80272 0.18397 0.96411 0.0
C322 C 0.81873 0.14573 0.94837 0.0
C323 C 0.80947 0.14579 0.92262 0.0
C324 C 0.78378 0.18348 0.91196 0.0
C325 C 0.7667 0.22113 0.92701 0.0
H326 H 0.7016 0.61002 0.53122 0.0
C327 C 0.66885 0.62257 0.52142 0.0
H328 H 0.63273 0.68257 0.50608 0.0
H329 H 0.80458 0.76582 0.58663 0.0
H330 H 0.75621 0.7276 0.6189 0.0
H331 H 0.68192 0.68065 0.6079 0.0
H332 H 0.65656 0.67049 0.5645 0.0
C333 C 0.66509 0.66923 0.51588 0.0
C334 C 0.70499 0.7038 0.52295 0.0
C335 C 0.71739 0.71202 0.54861 0.0
C336 C 0.75818 0.7419 0.5551 0.0
C337 C 0.7723 0.7459 0.58069 0.0
C338 C 0.74509 0.72376 0.59943 0.0
C339 C 0.70344 0.69713 0.59323 0.0
C340 C 0.68956 0.69123 0.56817 0.0
H341 H 0.78242 0.84654 0.5641 0.0
C342 C 0.81905 0.83933 0.55654 0.0
H343 H 0.86219 0.79062 0.53509 0.0
H344 H 0.69 0.69735 0.47217 0.0
H345 H 0.73492 0.7399 0.44003 0.0
H346 H 0.80224 0.7956 0.45141 0.0
H347 H 0.82538 0.80881 0.49497 0.0
C348 C 0.82597 0.79933 0.5426 0.0
C349 C 0.78422 0.7665 0.53606 0.0
C350 C 0.77066 0.75961 0.5105 0.0
C351 C 0.73123 0.72808 0.50395 0.0
C352 C 0.71921 0.72127 0.47824 0.0
C353 C 0.74473 0.74544 0.45958 0.0
C354 C 0.78267 0.77676 0.46599 0.0
C355 C 0.79564 0.78393 0.49109 0.0
H356 H 0.62538 0.33499 0.48607 0.0
C357 C 0.63884 0.36227 0.49914 0.0
H358 H 0.70045 0.38687 0.52012 0.0
H359 H 0.80213 0.18062 0.51562 0.0
H360 H 0.7757 0.18373 0.55908 0.0
H361 H 0.724 0.25026 0.57494 0.0
H362 H 0.69805 0.31395 0.54731 0.0
C363 C 0.68617 0.36052 0.50679 0.0
C364 C 0.72011 0.32209 0.49746 0.0
C365 C 0.73618 0.28586 0.51397 0.0
C366 C 0.76691 0.24798 0.50492 0.0
C367 C 0.78025 0.21106 0.52161 0.0
C368 C 0.76498 0.21219 0.54659 0.0
C369 C 0.7358 0.24961 0.55551 0.0
C370 C 0.72126 0.28598 0.53946 0.0
H371 H 0.87575 0.22764 0.49212 0.0
C372 C 0.86235 0.20338 0.47747 0.0
H373 H 0.80008 0.18408 0.4554 0.0
H374 H 0.69993 0.38826 0.46127 0.0
H375 H 0.7264 0.38533 0.41782 0.0
H376 H 0.77887 0.31932 0.40203 0.0
H377 H 0.80535 0.25593 0.42965 0.0
C378 C 0.81519 0.20789 0.46972 0.0
C379 C 0.78262 0.24709 0.47947 0.0
C380 C 0.76676 0.28352 0.463 0.0
C381 C 0.7359 0.32127 0.47203 0.0
C382 C 0.72217 0.35803 0.45531 0.0
C383 C 0.73742 0.357 0.43033 0.0
C384 C 0.767 0.31987 0.42144 0.0
C385 C 0.78182 0.28361 0.43751 0.0
H386 H 0.35117 0.40199 0.54823 0.0
C387 C 0.37642 0.39041 0.53347 0.0
H388 H 0.39731 0.33281 0.50953 0.0
H389 H 0.27904 0.23467 0.60623 0.0
H390 H 0.35127 0.25817 0.63041 0.0
H391 H 0.41824 0.30477 0.61108 0.0
H392 H 0.41321 0.32839 0.5675 0.0
C393 C 0.37301 0.34539 0.52444 0.0
C394 C 0.33608 0.31165 0.53509 0.0
C395 C 0.34026 0.29692 0.56043 0.0
C396 C 0.30206 0.26933 0.57145 0.0
C397 C 0.30685 0.25581 0.59691 0.0
C398 C 0.34823 0.26887 0.611 0.0
C399 C 0.3859 0.29515 0.60012 0.0
C400 C 0.38231 0.30886 0.57513 0.0
H401 H 0.23346 0.16395 0.55146 0.0
C402 C 0.21042 0.18281 0.56509 0.0
H403 H 0.19967 0.24887 0.58424 0.0
H404 H 0.31927 0.32962 0.48546 0.0
H405 H 0.24818 0.30408 0.46083 0.0
H406 H 0.18162 0.25662 0.47996 0.0
H407 H 0.18573 0.23422 0.52378 0.0
C408 C 0.219 0.22967 0.56938 0.0
C409 C 0.26032 0.25539 0.55697 0.0
C410 C 0.25733 0.26803 0.53128 0.0
C411 C 0.29547 0.29592 0.5203 0.0
C412 C 0.29133 0.30855 0.49471 0.0
C413 C 0.25072 0.29416 0.48038 0.0
C414 C 0.21327 0.26739 0.49115 0.0
C415 C 0.2162 0.25457 0.51631 0.0
H416 H 0.35867 0.63737 0.51637 0.0
C417 C 0.39574 0.64511 0.50973 0.0
H418 H 0.44121 0.69225 0.48976 0.0
H419 H 0.28462 0.7737 0.4154 0.0
H420 H 0.34442 0.7361 0.38763 0.0
H421 H 0.41276 0.68783 0.40466 0.0
H422 H 0.42131 0.67621 0.44928 0.0
C423 C 0.40402 0.68482 0.49632 0.0
C424 C 0.36278 0.71505 0.48654 0.0
C425 C 0.35736 0.72024 0.46015 0.0
C426 C 0.31746 0.74745 0.45031 0.0
C427 C 0.31368 0.75279 0.42392 0.0
C428 C 0.34783 0.7315 0.40773 0.0
C429 C 0.38625 0.70429 0.41729 0.0
C430 C 0.39092 0.69826 0.4431 0.0
H431 H 0.26335 0.86239 0.46894 0.0
C432 C 0.23556 0.84329 0.45795 0.0
H433 H 0.21488 0.77496 0.4438 0.0
H434 H 0.36693 0.72006 0.53796 0.0
H435 H 0.30629 0.75662 0.56569 0.0
H436 H 0.23305 0.79751 0.54853 0.0
H437 H 0.22064 0.80305 0.50353 0.0
C438 C 0.23954 0.79531 0.45591 0.0
C439 C 0.28244 0.76894 0.46674 0.0
C440 C 0.28805 0.76424 0.49311 0.0
C441 C 0.32896 0.73837 0.50303 0.0
C442 C 0.3353 0.73704 0.52942 0.0
C443 C 0.30099 0.75829 0.54556 0.0
C444 C 0.25986 0.78148 0.5359 0.0
C445 C 0.25329 0.78458 0.51001 0.0
H446 H 0.96353 0.03495 0.11668 0.0
C447 C 1.00049 0.02733 0.10968 0.0
H448 H 0.07488 0.01392 0.11965 0.0
H449 H 0.04879 0.11421 0.2269 0.0
H450 H 0.09834 0.17325 0.2055 0.0
H451 H 0.11681 0.16448 0.16029 0.0
H452 H 0.08563 0.09667 0.13619 0.0
C453 C 0.03738 0.02025 0.12618 0.0
C454 C 0.0286 0.02365 0.1538 0.0
C455 C 0.04802 0.0629 0.16777 0.0
C456 C 0.03784 0.06764 0.19392 0.0
C457 C 0.0562 0.10821 0.20715 0.0
C458 C 0.08451 0.14255 0.19506 0.0
C459 C 0.09488 0.13764 0.1696 0.0
C460 C 0.07681 0.09847 0.156 0.0
H461 H 0.06676 0.02014 0.24606 0.0
C462 C 0.02971 0.03124 0.2515 0.0
H463 H 0.95777 0.04606 0.23782 0.0
H464 H 0.99091 0.94094 0.13331 0.0
H465 H 0.9428 0.88099 0.15488 0.0
H466 H 0.92362 0.89006 0.19997 0.0
H467 H 0.95326 0.95879 0.22392 0.0
C468 C 0.99606 0.03843 0.23326 0.0
C469 C 0.00883 0.03267 0.20615 0.0
C470 C 0.99034 0.99287 0.19229 0.0
C471 C 1.00061 0.98808 0.16615 0.0
C472 C 0.98314 0.94704 0.15302 0.0
C473 C 0.95564 0.91222 0.1652 0.0
C474 C 0.94496 0.91727 0.19061 0.0
C475 C 0.9621 0.95696 0.20411 0.0
H476 H 0.01425 0.96096 0.90828 0.0
C477 C 0.02334 0.99608 0.91602 0.0
H478 H 0.03708 0.06859 0.90776 0.0
H479 H 0.06355 0.94441 0.79951 0.0
H480 H 0.1349 0.90816 0.81917 0.0
H481 H 0.15659 0.92737 0.86319 0.0
H482 H 0.1064 0.98226 0.88794 0.0
C483 C 0.02974 0.03289 0.90033 0.0
C484 C 0.02149 0.02684 0.87276 0.0
C485 C 0.05257 0.99644 0.85818 0.0
C486 C 0.04138 0.98715 0.83243 0.0
C487 C 0.0713 0.95428 0.81882 0.0
C488 C 0.11228 0.93296 0.82993 0.0
C489 C 0.12439 0.94363 0.85473 0.0
C490 C 0.09505 0.97496 0.86878 0.0
H491 H 0.04842 0.03389 0.77928 0.0
C492 C 0.01517 0.01343 0.77506 0.0
H493 H 0.95162 0.98178 0.79103 0.0
H494 H 0.95589 0.08909 0.89492 0.0
H495 H 0.88735 0.12902 0.87462 0.0
H496 H 0.87 0.11548 0.82958 0.0
H497 H 0.92105 0.06176 0.80455 0.0
C498 C 0.98693 0.99907 0.79436 0.0
C499 C 1.0004 1.01002 0.82099 0.0
C500 C 0.97067 0.04206 0.8353 0.0
C501 C 0.98113 0.0504 0.8612 0.0
C502 C 0.95009 0.08182 0.87512 0.0
C503 C 0.91051 0.10495 0.86372 0.0
C504 C 0.90072 0.0973 0.83836 0.0
C505 C 0.93027 0.06626 0.82423 0.0
H506 H 0.57225 0.49038 0.6203 0.0
C507 C 0.53857 0.50538 0.61248 0.0
H508 H 0.46976 0.53796 0.62077 0.0
H509 H 0.50064 0.42956 0.7281 0.0
H510 H 0.47529 0.35874 0.70458 0.0
H511 H 0.4646 0.36117 0.65856 0.0
H512 H 0.47973 0.43432 0.63576 0.0
C513 C 0.5033 0.52188 0.62808 0.0
C514 C 0.50966 0.52023 0.65582 0.0
C515 C 0.49984 0.47742 0.66889 0.0
C516 C 0.50474 0.47636 0.6955 0.0
C517 C 0.49614 0.43274 0.708 0.0
C518 C 0.48184 0.39174 0.6947 0.0
C519 C 0.47593 0.39308 0.66879 0.0
C520 C 0.4848 0.43529 0.65593 0.0
H521 H 0.44354 0.51364 0.74062 0.0
C522 C 0.47856 0.51653 0.75061 0.0
H523 H 0.55578 0.52515 0.74599 0.0
H524 H 0.5325 0.60748 0.63634 0.0
H525 H 0.55749 0.67852 0.65982 0.0
H526 H 0.56468 0.6772 0.70602 0.0
H527 H 0.54711 0.60486 0.72904 0.0
C528 C 0.52035 0.51866 0.73701 0.0
C529 C 0.5184 0.51843 0.70902 0.0
C530 C 0.52907 0.56099 0.69586 0.0
C531 C 0.52457 0.56189 0.66924 0.0
C532 C 0.53514 0.60492 0.65657 0.0
C533 C 0.54954 0.64594 0.66981 0.0
C534 C 0.55362 0.64518 0.69582 0.0
C535 C 0.54348 0.60336 0.7088 0.0
H536 H 0.49375 0.46769 0.41086 0.0
C537 C 0.50596 0.50139 0.41923 0.0
H538 H 0.52812 0.57249 0.41194 0.0
H539 H 0.56668 0.44883 0.30534 0.0
H540 H 0.63508 0.41337 0.32787 0.0
H541 H 0.64988 0.43319 0.37256 0.0
H542 H 0.59574 0.48807 0.39506 0.0
C543 C 0.5174 0.5379 0.40414 0.0
C544 C 0.51336 0.53211 0.37636 0.0
C545 C 0.54671 0.50174 0.36316 0.0
C546 C 0.53935 0.49186 0.33713 0.0
C547 C 0.57146 0.45905 0.32485 0.0
C548 C 0.61078 0.43817 0.33761 0.0
C549 C 0.61903 0.44921 0.36278 0.0
C550 C 0.5875 0.48057 0.37551 0.0
H551 H 0.55219 0.53734 0.28369 0.0
C552 C 0.51998 0.5159 0.27876 0.0
H553 H 0.45525 0.48363 0.29305 0.0
H554 H 0.44438 0.59391 0.3958 0.0
H555 H 0.37734 0.63158 0.37291 0.0
H556 H 0.36667 0.61716 0.32746 0.0
H557 H 0.42215 0.56414 0.30458 0.0
C558 C 0.48975 0.50175 0.29729 0.0
C559 C 0.49974 0.51392 0.32414 0.0
C560 C 0.46771 0.54588 0.33714 0.0
C561 C 0.47446 0.55491 0.36328 0.0
C562 C 0.44116 0.58609 0.3759 0.0
C563 C 0.40264 0.60804 0.363 0.0
C564 C 0.39651 0.5998 0.3374 0.0
C565 C 0.42855 0.56917 0.32451 0.0
loop_
_geom_bond_atom_site_label_1
_geom_bond_atom_site_label_2
_geom_bond_distance
_geom_bond_site_symmetry_2
_ccdc_geom_bond_type
O0 Zn1 1.953 . S
O0 C16 1.225 1_565 S
Zn1 O0 1.953 . S
Zn1 O2 1.949 1_565 S
Zn1 O8 1.919 . S
Zn1 O13 1.924 1_565 S
O2 Zn1 1.949 1_545 S
O2 Zn3 1.923 1_444 S
O2 Zn4 1.950 1_455 S
O2 Zn5 1.945 1_554 S
Zn3 O2 1.923 1_666 S
Zn3 O6 1.933 . S
Zn3 O9 1.941 1_655 S
Zn3 O10 1.965 . S
Zn4 O2 1.950 1_655 S
Zn4 O11 1.938 1_545 S
Zn4 O12 1.906 . S
Zn4 O22 1.953 . S
Zn5 O2 1.945 1_556 S
Zn5 O7 1.932 . S
Zn5 O14 1.977 1_455 S
Zn5 O15 1.910 . S
O6 Zn3 1.933 . S
O6 C17 1.226 1_665 S
O7 Zn5 1.932 . S
O7 C17 1.307 . S
O8 Zn1 1.919 . S
O8 C19 1.253 1_554 S
O9 Zn3 1.941 1_455 S
O9 C19 1.283 . S
O10 Zn3 1.965 . S
O10 C18 1.303 1_556 S
O11 Zn4 1.938 1_565 S
O11 C18 1.247 . S
O12 Zn4 1.906 . S
O12 C20 1.304 1_554 S
O13 Zn1 1.924 1_545 S
O13 C21 1.311 . S
O14 Zn5 1.977 1_655 S
O14 C20 1.272 . S
O15 Zn5 1.910 . S
O15 C21 1.231 1_556 S
C16 O0 1.225 1_545 S
C16 O22 1.298 1_455 S
C17 O6 1.226 1_445 S
C17 O7 1.307 . S
C18 O10 1.303 1_554 S
C18 O11 1.247 . S
C19 O8 1.253 1_556 S
C19 O9 1.283 . S
C20 O12 1.304 1_556 S
C20 O14 1.272 . S
C21 O13 1.311 . S
C21 O15 1.231 1_554 S
O22 Zn4 1.953 . S
O22 C16 1.298 1_655 S
O23 Zn24 1.953 . S
O23 C39 1.225 . S
Zn24 O23 1.953 . S
Zn24 O25 1.949 . S
Zn24 O31 1.919 . S
Zn24 O36 1.924 . S
O25 Zn24 1.949 . S
O25 Zn26 1.923 . S
O25 Zn27 1.950 . S
O25 Zn28 1.945 . S
Zn26 O25 1.923 . S
Zn26 O29 1.933 . S
Zn26 O32 1.941 . S
Zn26 O33 1.965 . S
Zn27 O25 1.950 . S
Zn27 O34 1.938 . S
Zn27 O35 1.906 . S
Zn27 O45 1.953 . S
Zn28 O25 1.945 . S
Zn28 O30 1.932 . S
Zn28 O37 1.977 . S
Zn28 O38 1.910 . S
O29 Zn26 1.933 . S
O29 C40 1.226 . S
O30 Zn28 1.932 . S
O30 C40 1.307 . S
O31 Zn24 1.919 . S
O31 C42 1.253 . S
O32 Zn26 1.941 . S
O32 C42 1.283 . S
O33 Zn26 1.965 . S
O33 C41 1.303 . S
O34 Zn27 1.938 . S
O34 C41 1.247 . S
O35 Zn27 1.906 . S
O35 C43 1.304 . S
O36 Zn24 1.924 . S
O36 C44 1.311 . S
O37 Zn28 1.977 . S
O37 C43 1.272 . S
O38 Zn28 1.910 . S
O38 C44 1.231 . S
C39 O23 1.225 . S
C39 O45 1.298 . S
C40 O29 1.226 . S
C40 O30 1.307 . S
C41 O33 1.303 . S
C41 O34 1.247 . S
C42 O31 1.253 . S
C42 O32 1.283 . S
C43 O35 1.304 . S
C43 O37 1.272 . S
C44 O36 1.311 . S
C44 O38 1.231 . S
O45 Zn27 1.953 . S
O45 C39 1.298 . S
C46 C47 1.264 . S
C46 C51 1.479 . S
C46 C56 1.465 . S
C47 C46 1.264 . S
C47 C49 1.339 . S
C47 H74 0.931 . S
C48 C49 1.395 . S
C48 C50 1.320 . S
C49 C47 1.339 . S
C49 C48 1.395 . S
C49 H75 0.929 . S
C50 C48 1.320 . S
C50 C51 1.405 . S
C50 H76 0.930 . S
C51 C46 1.479 . S
C51 C50 1.405 . S
C51 H77 0.931 . S
U52 O53 2.454 1_545 S
U52 O54 2.458 1_545 S
U52 C55 2.984 1_545 S
U52 C56 2.847 1_455 S
U52 C69 2.882 . S
U52 O70 2.441 1_455 S
U52 O71 2.420 1_455 S
U52 O72 2.455 1_545 S
U52 O73 2.449 . S
O53 U52 2.454 1_565 S
O53 C55 1.353 . S
O54 U52 2.458 1_565 S
O54 C55 1.286 . S
C55 U52 2.984 1_565 S
C55 O53 1.353 . S
C55 O54 1.286 . S
C55 C57 1.363 . S
C56 C46 1.465 . S
C56 U52 2.847 1_655 S
C56 O70 1.249 . S
C56 O71 1.202 . S
C57 C55 1.363 . S
C57 C59 1.408 . S
C57 C62 1.342 . S
C58 C59 1.310 . S
C58 C61 1.461 . S
C58 H78 0.932 . S
C59 C57 1.408 . S
C59 C58 1.310 . S
C59 H79 0.930 . S
C60 C61 1.474 . S
C60 C62 1.285 . S
C60 H80 0.929 . S
C61 C58 1.461 . S
C61 C60 1.474 . S
C62 C57 1.342 . S
C62 C60 1.285 . S
C62 H81 0.930 . S
C63 C66 1.424 1_455 S
C63 C68 1.245 1_545 S
C63 C69 1.428 . S
C64 C67 1.260 1_565 S
C64 C68 1.477 . S
C64 H82 0.932 . S
C65 C66 1.384 . S
C65 C67 1.479 1_655 S
C65 H83 0.929 . S
C66 C63 1.424 1_655 S
C66 C65 1.384 . S
C66 H84 0.928 . S
C67 C64 1.260 1_545 S
C67 C65 1.479 1_455 S
C68 C63 1.245 1_565 S
C68 C64 1.477 . S
C68 H85 0.932 . S
C69 U52 2.882 . S
C69 C63 1.428 . S
C69 O72 1.301 1_545 S
C69 O73 1.282 . S
O70 U52 2.441 1_655 S
O70 C56 1.249 . S
O71 U52 2.420 1_655 S
O71 C56 1.202 . S
O72 U52 2.455 1_565 S
O72 C69 1.301 1_565 S
O73 U52 2.449 . S
O73 C69 1.282 . S
H74 C47 0.931 . S
H75 C49 0.929 . S
H76 C50 0.930 . S
H77 C51 0.931 . S
H78 C58 0.932 . S
H79 C59 0.930 . S
H80 C60 0.929 . S
H81 C62 0.930 . S
H82 C64 0.932 . S
H83 C65 0.929 . S
H84 C66 0.928 . S
H85 C68 0.932 . S
C86 C87 1.264 . S
C86 C91 1.479 . S
C86 C96 1.465 . S
C87 C86 1.264 . S
C87 C89 1.339 . S
C87 H114 0.931 . S
C88 C89 1.395 . S
C88 C90 1.320 . S
C89 C87 1.339 . S
C89 C88 1.395 . S
C89 H115 0.929 . S
C90 C88 1.320 . S
C90 C91 1.405 . S
C90 H116 0.930 . S
C91 C86 1.479 . S
C91 C90 1.405 . S
C91 H117 0.931 . S
U92 O93 2.454 1_565 S
U92 O94 2.458 1_565 S
U92 C95 2.984 1_565 S
U92 C96 2.847 1_455 S
U92 C109 2.882 . S
U92 O110 2.433 1_455 S
U92 O111 2.420 1_455 S
U92 O112 2.455 1_565 S
U92 O113 2.449 . S
O93 U92 2.454 1_545 S
O93 C95 1.353 . S
O94 U92 2.458 1_545 S
O94 C95 1.286 . S
C95 U92 2.984 1_545 S
C95 O93 1.353 . S
C95 O94 1.286 . S
C95 C97 1.363 . S
C96 C86 1.465 . S
C96 U92 2.847 1_655 S
C96 O110 1.260 . S
C96 O111 1.202 . S
C97 C95 1.363 . S
C97 C99 1.408 . S
C97 C102 1.342 . S
C98 C99 1.310 . S
C98 C101 1.461 . S
C98 H118 0.932 . S
C99 C97 1.408 . S
C99 C98 1.310 . S
C99 H119 0.930 . S
C100 C101 1.474 . S
C100 C102 1.285 . S
C100 H120 0.929 . S
C101 C98 1.461 . S
C101 C100 1.474 . S
C102 C97 1.342 . S
C102 C100 1.285 . S
C102 H121 0.930 . S
C103 C106 1.424 1_455 S
C103 C108 1.245 1_565 S
C103 C109 1.428 . S
C104 C107 1.260 1_545 S
C104 C108 1.477 . S
C104 H122 0.932 . S
C105 C106 1.384 . S
C105 C107 1.479 1_655 S
C105 H123 0.929 . S
C106 C103 1.424 1_655 S
C106 C105 1.384 . S
C106 H124 0.928 . S
C107 C104 1.260 1_565 S
C107 C105 1.479 1_455 S
C108 C103 1.245 1_545 S
C108 C104 1.477 . S
C108 H125 0.932 . S
C109 U92 2.882 . S
C109 C103 1.428 . S
C109 O112 1.301 1_565 S
C109 O113 1.282 . S
O110 U92 2.433 1_655 S
O110 C96 1.260 . S
O111 U92 2.420 1_655 S
O111 C96 1.202 . S
O112 U92 2.455 1_545 S
O112 C109 1.301 1_545 S
O113 U92 2.449 . S
O113 C109 1.282 . S
H114 C87 0.931 . S
H115 C89 0.929 . S
H116 C90 0.930 . S
H117 C91 0.931 . S
H118 C98 0.932 . S
H119 C99 0.930 . S
H120 C100 0.929 . S
H121 C102 0.930 . S
H122 C104 0.932 . S
H123 C105 0.929 . S
H124 C106 0.928 . S
H125 C108 0.932 . S
C126 C127 1.264 . S
C126 C131 1.479 . S
C126 C136 1.465 . S
C127 C126 1.264 . S
C127 C129 1.339 . S
C127 H154 0.931 . S
C128 C129 1.395 . S
C128 C130 1.320 . S
C129 C127 1.339 . S
C129 C128 1.395 . S
C129 H155 0.929 . S
C130 C128 1.320 . S
C130 C131 1.405 . S
C130 H156 0.930 . S
C131 C126 1.479 . S
C131 C130 1.405 . S
C131 H157 0.931 . S
U132 O133 2.454 . S
U132 O134 2.458 . S
U132 C135 2.984 . S
U132 C136 2.847 . S
U132 C149 2.882 . S
U132 O150 2.441 . S
U132 O151 2.420 . S
U132 O152 2.455 . S
U132 O153 2.449 . S
O133 U132 2.454 . S
O133 C135 1.353 . S
O134 U132 2.458 . S
O134 C135 1.286 . S
C135 U132 2.984 . S
C135 O133 1.353 . S
C135 O134 1.286 . S
C135 C137 1.363 . S
C136 C126 1.465 . S
C136 U132 2.847 . S
C136 O150 1.249 . S
C136 O151 1.202 . S
C137 C135 1.363 . S
C137 C139 1.408 . S
C137 C142 1.342 . S
C138 C139 1.310 . S
C138 C141 1.461 . S
C138 H158 0.932 . S
C139 C137 1.408 . S
C139 C138 1.310 . S
C139 H159 0.930 . S
C140 C141 1.474 . S
C140 C142 1.285 . S
C140 H160 0.929 . S
C141 C138 1.461 . S
C141 C140 1.474 . S
C142 C137 1.342 . S
C142 C140 1.285 . S
C142 H161 0.930 . S
C143 C146 1.424 . S
C143 C148 1.245 . S
C143 C149 1.428 . S
C144 C147 1.260 . S
C144 C148 1.477 . S
C144 H162 0.932 . S
C145 C146 1.384 . S
C145 C147 1.479 . S
C145 H163 0.929 . S
C146 C143 1.424 . S
C146 C145 1.384 . S
C146 H164 0.928 . S
C147 C144 1.260 . S
C147 C145 1.479 . S
C148 C143 1.245 . S
C148 C144 1.477 . S
C148 H165 0.932 . S
C149 U132 2.882 . S
C149 C143 1.428 . S
C149 O152 1.301 . S
C149 O153 1.282 . S
O150 U132 2.441 . S
O150 C136 1.249 . S
O151 U132 2.420 . S
O151 C136 1.202 . S
O152 U132 2.455 . S
O152 C149 1.301 . S
O153 U132 2.449 . S
O153 C149 1.282 . S
H154 C127 0.931 . S
H155 C129 0.929 . S
H156 C130 0.930 . S
H157 C131 0.931 . S
H158 C138 0.932 . S
H159 C139 0.930 . S
H160 C140 0.929 . S
H161 C142 0.930 . S
H162 C144 0.932 . S
H163 C145 0.929 . S
H164 C146 0.928 . S
H165 C148 0.932 . S
C166 C167 1.264 . S
C166 C171 1.479 . S
C166 C176 1.465 . S
C167 C166 1.264 . S
C167 C169 1.339 . S
C167 H194 0.931 . S
C168 C169 1.395 . S
C168 C170 1.320 . S
C169 C167 1.339 . S
C169 C168 1.395 . S
C169 H195 0.929 . S
C170 C168 1.320 . S
C170 C171 1.405 . S
C170 H196 0.930 . S
C171 C166 1.479 . S
C171 C170 1.405 . S
C171 H197 0.931 . S
U172 O173 2.454 . S
U172 O174 2.458 . S
U172 C175 2.984 . S
U172 C176 2.847 . S
U172 C189 2.882 . S
U172 O190 2.441 . S
U172 O191 2.420 . S
U172 O192 2.455 . S
U172 O193 2.449 . S
O173 U172 2.454 . S
O173 C175 1.353 . S
O174 U172 2.458 . S
O174 C175 1.286 . S
C175 U172 2.984 . S
C175 O173 1.353 . S
C175 O174 1.286 . S
C175 C177 1.363 . S
C176 C166 1.465 . S
C176 U172 2.847 . S
C176 O190 1.249 . S
C176 O191 1.202 . S
C177 C175 1.363 . S
C177 C179 1.408 . S
C177 C182 1.342 . S
C178 C179 1.310 . S
C178 C181 1.461 . S
C178 H198 0.932 . S
C179 C177 1.408 . S
C179 C178 1.310 . S
C179 H199 0.930 . S
C180 C181 1.474 . S
C180 C182 1.285 . S
C180 H200 0.929 . S
C181 C178 1.461 . S
C181 C180 1.474 . S
C182 C177 1.342 . S
C182 C180 1.285 . S
C182 H201 0.930 . S
C183 C186 1.424 . S
C183 C188 1.245 . S
C183 C189 1.428 . S
C184 C187 1.260 . S
C184 C188 1.477 . S
C184 H202 0.932 . S
C185 C186 1.384 . S
C185 C187 1.479 . S
C185 H203 0.929 . S
C186 C183 1.424 . S
C186 C185 1.384 . S
C186 H204 0.928 . S
C187 C184 1.260 . S
C187 C185 1.479 . S
C188 C183 1.245 . S
C188 C184 1.477 . S
C188 H205 0.932 . S
C189 U172 2.882 . S
C189 C183 1.428 . S
C189 O192 1.301 . S
C189 O193 1.282 . S
O190 U172 2.441 . S
O190 C176 1.249 . S
O191 U172 2.420 . S
O191 C176 1.202 . S
O192 U172 2.455 . S
O192 C189 1.301 . S
O193 U172 2.449 . S
O193 C189 1.282 . S
H194 C167 0.931 . S
H195 C169 0.929 . S
H196 C170 0.930 . S
H197 C171 0.931 . S
H198 C178 0.932 . S
H199 C179 0.930 . S
H200 C180 0.929 . S
H201 C182 0.930 . S
H202 C184 0.932 . S
H203 C185 0.929 . S
H204 C186 0.928 . S
H205 C188 0.932 . S
H206 C207 0.951 . S
C207 H206 0.951 . S
C207 C213 1.265 . S
H208 C213 0.950 . S
H209 C217 0.947 1_554 S
H210 C218 0.950 . S
H211 C219 0.951 . S
H212 C220 0.951 . S
C213 C207 1.265 . S
C213 H208 0.950 . S
C213 C214 1.478 . S
C214 C213 1.478 . S
C214 C215 1.397 . S
C214 C231 1.394 . S
C215 C214 1.397 . S
C215 C216 1.438 . S
C215 C220 1.429 1_554 S
C216 C215 1.438 . S
C216 C217 1.418 1_554 S
C216 C229 1.394 . S
C217 H209 0.947 1_556 S
C217 C216 1.418 1_556 S
C217 C218 1.357 . S
C218 H210 0.950 . S
C218 C217 1.357 . S
C218 C219 1.424 . S
C219 H211 0.951 . S
C219 C218 1.424 . S
C219 C220 1.347 . S
C220 H212 0.951 . S
C220 C215 1.429 1_556 S
C220 C219 1.347 . S
H221 C222 0.951 . S
C222 H221 0.951 . S
C222 C228 1.265 . S
H223 C228 0.950 . S
H224 C232 0.949 . S
H225 C233 0.950 . S
H226 C234 0.951 . S
H227 C235 0.951 . S
C228 C222 1.265 . S
C228 H223 0.950 . S
C228 C229 1.478 . S
C229 C216 1.394 . S
C229 C228 1.478 . S
C229 C230 1.397 . S
C230 C229 1.397 . S
C230 C231 1.438 . S
C230 C235 1.429 . S
C231 C214 1.394 . S
C231 C230 1.438 . S
C231 C232 1.428 . S
C232 H224 0.949 . S
C232 C231 1.428 . S
C232 C233 1.345 . S
C233 H225 0.950 . S
C233 C232 1.345 . S
C233 C234 1.424 . S
C234 H226 0.951 . S
C234 C233 1.424 . S
C234 C235 1.347 . S
C235 H227 0.951 . S
C235 C230 1.429 . S
C235 C234 1.347 . S
H236 C237 0.951 . S
C237 H236 0.951 . S
C237 C243 1.265 . S
H238 C243 0.950 . S
H239 C247 0.949 . S
H240 C248 0.950 . S
H241 C249 0.951 . S
H242 C250 0.951 . S
C243 C237 1.265 . S
C243 H238 0.950 . S
C243 C244 1.478 . S
C244 C243 1.478 . S
C244 C245 1.397 . S
C244 C261 1.394 . S
C245 C244 1.397 . S
C245 C246 1.438 . S
C245 C250 1.429 1_556 S
C246 C245 1.438 . S
C246 C247 1.428 1_556 S
C246 C259 1.394 . S
C247 H239 0.949 . S
C247 C246 1.428 1_554 S
C247 C248 1.345 . S
C248 H240 0.950 . S
C248 C247 1.345 . S
C248 C249 1.424 . S
C249 H241 0.951 . S
C249 C248 1.424 . S
C249 C250 1.347 . S
C250 H242 0.951 . S
C250 C245 1.429 1_554 S
C250 C249 1.347 . S
H251 C252 0.951 . S
C252 H251 0.951 . S
C252 C258 1.265 . S
H253 C258 0.950 . S
H254 C262 0.949 . S
H255 C263 0.950 . S
H256 C264 0.951 . S
H257 C265 0.951 . S
C258 C252 1.265 . S
C258 H253 0.950 . S
C258 C259 1.478 . S
C259 C246 1.394 . S
C259 C258 1.478 . S
C259 C260 1.397 . S
C260 C259 1.397 . S
C260 C261 1.438 . S
C260 C265 1.429 . S
C261 C244 1.394 . S
C261 C260 1.438 . S
C261 C262 1.428 . S
C262 H254 0.949 . S
C262 C261 1.428 . S
C262 C263 1.345 . S
C263 H255 0.950 . S
C263 C262 1.345 . S
C263 C264 1.424 . S
C264 H256 0.951 . S
C264 C263 1.424 . S
C264 C265 1.347 . S
C265 H257 0.951 . S
C265 C260 1.429 . S
C265 C264 1.347 . S
H266 C267 0.951 . S
C267 H266 0.951 . S
C267 C273 1.265 . S
H268 C273 0.950 . S
H269 C277 0.945 1_554 S
H270 C278 0.950 . S
H271 C279 0.951 . S
H272 C280 0.951 . S
C273 C267 1.265 . S
C273 H268 0.950 . S
C273 C274 1.478 . S
C274 C273 1.478 . S
C274 C275 1.397 . S
C274 C291 1.394 . S
C275 C274 1.397 . S
C275 C276 1.438 . S
C275 C280 1.429 1_554 S
C276 C275 1.438 . S
C276 C277 1.428 1_554 S
C276 C289 1.394 . S
C277 H269 0.945 1_556 S
C277 C276 1.428 1_556 S
C277 C278 1.345 . S
C278 H270 0.950 . S
C278 C277 1.345 . S
C278 C279 1.424 . S
C279 H271 0.951 . S
C279 C278 1.424 . S
C279 C280 1.347 . S
C280 H272 0.951 . S
C280 C275 1.429 1_556 S
C280 C279 1.347 . S
H281 C282 0.951 . S
C282 H281 0.951 . S
C282 C288 1.265 . S
H283 C288 0.950 . S
H284 C292 0.949 . S
H285 C293 0.950 . S
H286 C294 0.951 . S
H287 C295 0.951 . S
C288 C282 1.265 . S
C288 H283 0.950 . S
C288 C289 1.478 . S
C289 C276 1.394 . S
C289 C288 1.478 . S
C289 C290 1.397 . S
C290 C289 1.397 . S
C290 C291 1.438 . S
C290 C295 1.429 . S
C291 C274 1.394 . S
C291 C290 1.438 . S
C291 C292 1.428 . S
C292 H284 0.949 . S
C292 C291 1.428 . S
C292 C293 1.345 . S
C293 H285 0.950 . S
C293 C292 1.345 . S
C293 C294 1.424 . S
C294 H286 0.951 . S
C294 C293 1.424 . S
C294 C295 1.347 . S
C295 H287 0.951 . S
C295 C290 1.429 . S
C295 C294 1.347 . S
H296 C297 0.951 . S
C297 H296 0.951 . S
C297 C303 1.265 . S
H298 C303 0.950 1_554 S
H299 C307 0.949 . S
H300 C308 0.950 . S
H301 C309 0.951 . S
H302 C310 0.951 . S
C303 C297 1.265 . S
C303 H298 0.950 1_556 S
C303 C304 1.478 . S
C304 C303 1.478 . S
C304 C305 1.397 1_556 S
C304 C321 1.394 . S
C305 C304 1.397 1_554 S
C305 C306 1.438 1_554 S
C305 C310 1.429 . S
C306 C305 1.438 1_556 S
C306 C307 1.428 1_556 S
C306 C319 1.394 . S
C307 H299 0.949 . S
C307 C306 1.428 1_554 S
C307 C308 1.345 . S
C308 H300 0.950 . S
C308 C307 1.345 . S
C308 C309 1.424 . S
C309 H301 0.951 . S
C309 C308 1.424 . S
C309 C310 1.347 . S
C310 H302 0.951 . S
C310 C305 1.429 . S
C310 C309 1.347 . S
H311 C312 0.951 . S
C312 H311 0.951 . S
C312 C318 1.265 . S
H313 C318 0.950 . S
H314 C322 0.949 . S
H315 C323 0.950 . S
H316 C324 0.951 . S
H317 C325 0.951 . S
C318 C312 1.265 . S
C318 H313 0.950 . S
C318 C319 1.478 . S
C319 C306 1.394 . S
C319 C318 1.478 . S
C319 C320 1.397 . S
C320 C319 1.397 . S
C320 C321 1.438 . S
C320 C325 1.429 . S
C321 C304 1.394 . S
C321 C320 1.438 . S
C321 C322 1.428 . S
C322 H314 0.949 . S
C322 C321 1.428 . S
C322 C323 1.345 . S
C323 H315 0.950 . S
C323 C322 1.345 . S
C323 C324 1.424 . S
C324 H316 0.951 . S
C324 C323 1.424 . S
C324 C325 1.347 . S
C325 H317 0.951 . S
C325 C320 1.429 . S
C325 C324 1.347 . S
H326 C327 0.951 . S
C327 H326 0.951 . S
C327 C333 1.265 . S
H328 C333 0.950 . S
H329 C337 0.949 . S
H330 C338 0.950 . S
H331 C339 0.951 . S
H332 C340 0.951 . S
C333 C327 1.265 . S
C333 H328 0.950 . S
C333 C334 1.478 . S
C334 C333 1.478 . S
C334 C335 1.397 . S
C334 C351 1.394 . S
C335 C334 1.397 . S
C335 C336 1.438 . S
C335 C340 1.429 . S
C336 C335 1.438 . S
C336 C337 1.428 . S
C336 C349 1.394 . S
C337 H329 0.949 . S
C337 C336 1.428 . S
C337 C338 1.345 . S
C338 H330 0.950 . S
C338 C337 1.345 . S
C338 C339 1.424 . S
C339 H331 0.951 . S
C339 C338 1.424 . S
C339 C340 1.347 . S
C340 H332 0.951 . S
C340 C335 1.429 . S
C340 C339 1.347 . S
H341 C342 0.951 . S
C342 H341 0.951 . S
C342 C348 1.265 . S
H343 C348 0.950 . S
H344 C352 0.949 . S
H345 C353 0.950 . S
H346 C354 0.951 . S
H347 C355 0.951 . S
C348 C342 1.265 . S
C348 H343 0.950 . S
C348 C349 1.478 . S
C349 C336 1.394 . S
C349 C348 1.478 . S
C349 C350 1.397 . S
C350 C349 1.397 . S
C350 C351 1.438 . S
C350 C355 1.429 . S
C351 C334 1.394 . S
C351 C350 1.438 . S
C351 C352 1.428 . S
C352 H344 0.949 . S
C352 C351 1.428 . S
C352 C353 1.345 . S
C353 H345 0.950 . S
C353 C352 1.345 . S
C353 C354 1.424 . S
C354 H346 0.951 . S
C354 C353 1.424 . S
C354 C355 1.347 . S
C355 H347 0.951 . S
C355 C350 1.429 . S
C355 C354 1.347 . S
H356 C357 0.951 . S
C357 H356 0.951 . S
C357 C363 1.265 . S
H358 C363 0.950 . S
H359 C367 0.949 . S
H360 C368 0.950 . S
H361 C369 0.951 . S
H362 C370 0.951 . S
C363 C357 1.265 . S
C363 H358 0.950 . S
C363 C364 1.478 . S
C364 C363 1.478 . S
C364 C365 1.397 . S
C364 C381 1.394 . S
C365 C364 1.397 . S
C365 C366 1.438 . S
C365 C370 1.429 . S
C366 C365 1.438 . S
C366 C367 1.428 . S
C366 C379 1.394 . S
C367 H359 0.949 . S
C367 C366 1.428 . S
C367 C368 1.345 . S
C368 H360 0.950 . S
C368 C367 1.345 . S
C368 C369 1.424 . S
C369 H361 0.951 . S
C369 C368 1.424 . S
C369 C370 1.347 . S
C370 H362 0.951 . S
C370 C365 1.429 . S
C370 C369 1.347 . S
H371 C372 0.951 . S
C372 H371 0.951 . S
C372 C378 1.265 . S
H373 C378 0.950 . S
H374 C382 0.949 . S
H375 C383 0.950 . S
H376 C384 0.951 . S
H377 C385 0.951 . S
C378 C372 1.265 . S
C378 H373 0.950 . S
C378 C379 1.478 . S
C379 C366 1.394 . S
C379 C378 1.478 . S
C379 C380 1.397 . S
C380 C379 1.397 . S
C380 C381 1.438 . S
C380 C385 1.429 . S
C381 C364 1.394 . S
C381 C380 1.438 . S
C381 C382 1.428 . S
C382 H374 0.949 . S
C382 C381 1.428 . S
C382 C383 1.345 . S
C383 H375 0.950 . S
C383 C382 1.345 . S
C383 C384 1.424 . S
C384 H376 0.951 . S
C384 C383 1.424 . S
C384 C385 1.347 . S
C385 H377 0.951 . S
C385 C380 1.429 . S
C385 C384 1.347 . S
H386 C387 0.951 . S
C387 H386 0.951 . S
C387 C393 1.265 . S
H388 C393 0.950 . S
H389 C397 0.949 . S
H390 C398 0.950 . S
H391 C399 0.951 . S
H392 C400 0.951 . S
C393 C387 1.265 . S
C393 H388 0.950 . S
C393 C394 1.478 . S
C394 C393 1.478 . S
C394 C395 1.397 . S
C394 C411 1.394 . S
C395 C394 1.397 . S
C395 C396 1.438 . S
C395 C400 1.429 . S
C396 C395 1.438 . S
C396 C397 1.428 . S
C396 C409 1.394 . S
C397 H389 0.949 . S
C397 C396 1.428 . S
C397 C398 1.345 . S
C398 H390 0.950 . S
C398 C397 1.345 . S
C398 C399 1.424 . S
C399 H391 0.951 . S
C399 C398 1.424 . S
C399 C400 1.347 . S
C400 H392 0.951 . S
C400 C395 1.429 . S
C400 C399 1.347 . S
H401 C402 0.951 . S
C402 H401 0.951 . S
C402 C408 1.265 . S
H403 C408 0.950 . S
H404 C412 0.949 . S
H405 C413 0.950 . S
H406 C414 0.951 . S
H407 C415 0.951 . S
C408 C402 1.265 . S
C408 H403 0.950 . S
C408 C409 1.478 . S
C409 C396 1.394 . S
C409 C408 1.478 . S
C409 C410 1.397 . S
C410 C409 1.397 . S
C410 C411 1.438 . S
C410 C415 1.429 . S
C411 C394 1.394 . S
C411 C410 1.438 . S
C411 C412 1.428 . S
C412 H404 0.949 . S
C412 C411 1.428 . S
C412 C413 1.345 . S
C413 H405 0.950 . S
C413 C412 1.345 . S
C413 C414 1.424 . S
C414 H406 0.951 . S
C414 C413 1.424 . S
C414 C415 1.347 . S
C415 H407 0.951 . S
C415 C410 1.429 . S
C415 C414 1.347 . S
H416 C417 0.951 . S
C417 H416 0.951 . S
C417 C423 1.265 . S
H418 C423 0.950 . S
H419 C427 0.949 . S
H420 C428 0.950 . S
H421 C429 0.951 . S
H422 C430 0.951 . S
C423 C417 1.265 . S
C423 H418 0.950 . S
C423 C424 1.478 . S
C424 C423 1.478 . S
C424 C425 1.397 . S
C424 C441 1.394 . S
C425 C424 1.397 . S
C425 C426 1.438 . S
C425 C430 1.429 . S
C426 C425 1.438 . S
C426 C427 1.428 . S
C426 C439 1.394 . S
C427 H419 0.949 . S
C427 C426 1.428 . S
C427 C428 1.345 . S
C428 H420 0.950 . S
C428 C427 1.345 . S
C428 C429 1.424 . S
C429 H421 0.951 . S
C429 C428 1.424 . S
C429 C430 1.347 . S
C430 H422 0.951 . S
C430 C425 1.429 . S
C430 C429 1.347 . S
H431 C432 0.951 . S
C432 H431 0.951 . S
C432 C438 1.265 . S
H433 C438 0.950 . S
H434 C442 0.949 . S
H435 C443 0.950 . S
H436 C444 0.951 . S
H437 C445 0.951 . S
C438 C432 1.265 . S
C438 H433 0.950 . S
C438 C439 1.478 . S
C439 C426 1.394 . S
C439 C438 1.478 . S
C439 C440 1.397 . S
C440 C439 1.397 . S
C440 C441 1.438 . S
C440 C445 1.429 . S
C441 C424 1.394 . S
C441 C440 1.438 . S
C441 C442 1.428 . S
C442 H434 0.949 . S
C442 C441 1.428 . S
C442 C443 1.345 . S
C443 H435 0.950 . S
C443 C442 1.345 . S
C443 C444 1.424 . S
C444 H436 0.951 . S
C444 C443 1.424 . S
C444 C445 1.347 . S
C445 H437 0.951 . S
C445 C440 1.429 . S
C445 C444 1.347 . S
H446 C447 0.951 1_665 S
C447 H446 0.951 1_445 S
C447 C453 1.265 . S
H448 C453 0.950 . S
H449 C457 0.949 . S
H450 C458 0.950 . S
H451 C459 0.951 . S
H452 C460 0.951 . S
C453 C447 1.265 . S
C453 H448 0.950 . S
C453 C454 1.478 . S
C454 C453 1.478 . S
C454 C455 1.397 . S
C454 C471 1.394 1_445 S
C455 C454 1.397 . S
C455 C456 1.438 . S
C455 C460 1.429 . S
C456 C455 1.438 . S
C456 C457 1.428 . S
C456 C469 1.407 1_455 S
C457 H449 0.949 . S
C457 C456 1.428 . S
C457 C458 1.345 . S
C458 H450 0.950 . S
C458 C457 1.345 . S
C458 C459 1.424 . S
C459 H451 0.951 . S
C459 C458 1.424 . S
C459 C460 1.347 . S
C460 H452 0.951 . S
C460 C455 1.429 . S
C460 C459 1.347 . S
H461 C462 0.951 . S
C462 H461 0.951 . S
C462 C468 1.265 1_445 S
H463 C468 0.950 . S
H464 C472 0.949 . S
H465 C473 0.950 . S
H466 C474 0.951 . S
H467 C475 0.951 . S
C468 C462 1.265 1_665 S
C468 H463 0.950 . S
C468 C469 1.477 1_565 S
C469 C456 1.407 1_655 S
C469 C468 1.477 1_545 S
C469 C470 1.385 1_545 S
C470 C469 1.385 1_565 S
C470 C471 1.438 . S
C470 C475 1.429 . S
C471 C454 1.394 1_665 S
C471 C470 1.438 . S
C471 C472 1.428 . S
C472 H464 0.949 . S
C472 C471 1.428 . S
C472 C473 1.345 . S
C473 H465 0.950 . S
C473 C472 1.345 . S
C473 C474 1.424 . S
C474 H466 0.951 . S
C474 C473 1.424 . S
C474 C475 1.347 . S
C475 H467 0.951 . S
C475 C470 1.429 . S
C475 C474 1.347 . S
H476 C477 0.951 1_665 S
C477 H476 0.951 1_445 S
C477 C483 1.265 . S
H478 C483 0.950 . S
H479 C487 0.949 . S
H480 C488 0.950 . S
H481 C489 0.951 . S
H482 C490 0.951 . S
C483 C477 1.265 . S
C483 H478 0.950 . S
C483 C484 1.478 . S
C484 C483 1.478 . S
C484 C485 1.397 1_545 S
C484 C501 1.394 1_455 S
C485 C484 1.397 1_565 S
C485 C486 1.438 . S
C485 C490 1.429 . S
C486 C485 1.438 . S
C486 C487 1.428 . S
C486 C499 1.383 1_565 S
C487 H479 0.949 . S
C487 C486 1.428 . S
C487 C488 1.345 . S
C488 H480 0.950 . S
C488 C487 1.345 . S
C488 C489 1.424 . S
C489 H481 0.951 . S
C489 C488 1.424 . S
C489 C490 1.347 . S
C490 H482 0.951 . S
C490 C485 1.429 . S
C490 C489 1.347 . S
H491 C492 0.951 . S
C492 H491 0.951 . S
C492 C498 1.265 1_445 S
H493 C498 0.950 . S
H494 C502 0.949 . S
H495 C503 0.950 . S
H496 C504 0.951 . S
H497 C505 0.951 . S
C498 C492 1.265 1_665 S
C498 H493 0.950 . S
C498 C499 1.478 1_665 S
C499 C486 1.383 1_545 S
C499 C498 1.478 1_445 S
C499 C500 1.408 1_455 S
C500 C499 1.408 1_655 S
C500 C501 1.438 . S
C500 C505 1.429 . S
C501 C484 1.394 1_655 S
C501 C500 1.438 . S
C501 C502 1.428 . S
C502 H494 0.949 . S
C502 C501 1.428 . S
C502 C503 1.345 . S
C503 H495 0.950 . S
C503 C502 1.345 . S
C503 C504 1.424 . S
C504 H496 0.951 . S
C504 C503 1.424 . S
C504 C505 1.347 . S
C505 H497 0.951 . S
C505 C500 1.429 . S
C505 C504 1.347 . S
H506 C507 0.951 . S
C507 H506 0.951 . S
C507 C513 1.265 . S
H508 C513 0.950 . S
H509 C517 0.949 . S
H510 C518 0.950 . S
H511 C519 0.951 . S
H512 C520 0.951 . S
C513 C507 1.265 . S
C513 H508 0.950 . S
C513 C514 1.478 . S
C514 C513 1.478 . S
C514 C515 1.397 . S
C514 C531 1.394 . S
C515 C514 1.397 . S
C515 C516 1.438 . S
C515 C520 1.429 . S
C516 C515 1.438 . S
C516 C517 1.428 . S
C516 C529 1.394 . S
C517 H509 0.949 . S
C517 C516 1.428 . S
C517 C518 1.345 . S
C518 H510 0.950 . S
C518 C517 1.345 . S
C518 C519 1.424 . S
C519 H511 0.951 . S
C519 C518 1.424 . S
C519 C520 1.347 . S
C520 H512 0.951 . S
C520 C515 1.429 . S
C520 C519 1.347 . S
H521 C522 0.951 . S
C522 H521 0.951 . S
C522 C528 1.265 . S
H523 C528 0.950 . S
H524 C532 0.949 . S
H525 C533 0.950 . S
H526 C534 0.951 . S
H527 C535 0.951 . S
C528 C522 1.265 . S
C528 H523 0.950 . S
C528 C529 1.478 . S
C529 C516 1.394 . S
C529 C528 1.478 . S
C529 C530 1.397 . S
C530 C529 1.397 . S
C530 C531 1.438 . S
C530 C535 1.429 . S
C531 C514 1.394 . S
C531 C530 1.438 . S
C531 C532 1.428 . S
C532 H524 0.949 . S
C532 C531 1.428 . S
C532 C533 1.345 . S
C533 H525 0.950 . S
C533 C532 1.345 . S
C533 C534 1.424 . S
C534 H526 0.951 . S
C534 C533 1.424 . S
C534 C535 1.347 . S
C535 H527 0.951 . S
C535 C530 1.429 . S
C535 C534 1.347 . S
H536 C537 0.951 . S
C537 H536 0.951 . S
C537 C543 1.265 . S
H538 C543 0.950 . S
H539 C547 0.949 . S
H540 C548 0.950 . S
H541 C549 0.951 . S
H542 C550 0.951 . S
C543 C537 1.265 . S
C543 H538 0.950 . S
C543 C544 1.478 . S
C544 C543 1.478 . S
C544 C545 1.397 . S
C544 C561 1.394 . S
C545 C544 1.397 . S
C545 C546 1.438 . S
C545 C550 1.429 . S
C546 C545 1.438 . S
C546 C547 1.428 . S
C546 C559 1.394 . S
C547 H539 0.949 . S
C547 C546 1.428 . S
C547 C548 1.345 . S
C548 H540 0.950 . S
C548 C547 1.345 . S
C548 C549 1.424 . S
C549 H541 0.951 . S
C549 C548 1.424 . S
C549 C550 1.347 . S
C550 H542 0.951 . S
C550 C545 1.429 . S
C550 C549 1.347 . S
H551 C552 0.951 . S
C552 H551 0.951 . S
C552 C558 1.265 . S
H553 C558 0.950 . S
H554 C562 0.949 . S
H555 C563 0.950 . S
H556 C564 0.951 . S
H557 C565 0.951 . S
C558 C552 1.265 . S
C558 H553 0.950 . S
C558 C559 1.478 . S
C559 C546 1.394 . S
C559 C558 1.478 . S
C559 C560 1.397 . S
C560 C559 1.397 . S
C560 C561 1.438 . S
C560 C565 1.429 . S
C561 C544 1.394 . S
C561 C560 1.438 . S
C561 C562 1.428 . S
C562 H554 0.949 . S
C562 C561 1.428 . S
C562 C563 1.345 . S
C563 H555 0.950 . S
C563 C562 1.345 . S
C563 C564 1.424 . S
C564 H556 0.951 . S
C564 C563 1.424 . S
C564 C565 1.347 . S
C565 H557 0.951 . S
C565 C560 1.429 . S
C565 C564 1.347 . S
C222 C168 1.436 . S
C207 C21 1.467 . S
C237 C19 1.421 . S
C252 C128 1.418 . S
C267 C18 1.442 . S
C282 C181 1.423 . S
C297 C20 1.431 . S
C312 C141 1.448 . S
C327 C44 1.433 . S
C342 C88 1.467 . S
C357 C42 1.449 . S
C372 C48 1.440 . S
C402 C101 1.406 . S
C387 C41 1.383 . S
C432 C61 1.438 . S
C417 C43 1.458 . S
C447 C16 1.484 . S
C462 C67 1.451 . S
C477 C17 1.437 . S
C492 C107 1.426 1_545 S
C522 C147 1.488 . S
C507 C39 1.481 . S
C537 C40 1.438 . S
C552 C187 1.421 . S
