# Generated by pormake.
# Topology gar, (4,6)-cn, num edge types: 1
# Building blocks:
#     Node 0, Type 0, BuildingBlock: QUQFOY_clean_sbu_3, # of connection points: 4
#     Node 1, Type 0, BuildingBlock: QUQFOY_clean_sbu_3, # of connection points: 4
#     Node 2, Type 0, BuildingBlock: QUQFOY_clean_sbu_3, # of connection points: 4
#     Node 3, Type 0, BuildingBlock: QUQFOY_clean_sbu_3, # of connection points: 4
#     Node 4, Type 0, BuildingBlock: QUQFOY_clean_sbu_3, # of connection points: 4
#     Node 5, Type 0, BuildingBlock: QUQFOY_clean_sbu_3, # of connection points: 4
#     Node 6, Type 0, BuildingBlock: QUQFOY_clean_sbu_3, # of connection points: 4
#     Node 7, Type 0, BuildingBlock: QUQFOY_clean_sbu_3, # of connection points: 4
#     Node 8, Type 0, BuildingBlock: QUQFOY_clean_sbu_3, # of connection points: 4
#     Node 9, Type 0, BuildingBlock: QUQFOY_clean_sbu_3, # of connection points: 4
#     Node 10, Type 0, BuildingBlock: QUQFOY_clean_sbu_3, # of connection points: 4
#     Node 11, Type 0, BuildingBlock: QUQFOY_clean_sbu_3, # of connection points: 4
#     Node 12, Type 0, BuildingBlock: QUQFOY_clean_sbu_3, # of connection points: 4
#     Node 13, Type 0, BuildingBlock: QUQFOY_clean_sbu_3, # of connection points: 4
#     Node 14, Type 0, BuildingBlock: QUQFOY_clean_sbu_3, # of connection points: 4
#     Node 15, Type 0, BuildingBlock: QUQFOY_clean_sbu_3, # of connection points: 4
#     Node 16, Type 0, BuildingBlock: QUQFOY_clean_sbu_3, # of connection points: 4
#     Node 17, Type 0, BuildingBlock: QUQFOY_clean_sbu_3, # of connection points: 4
#     Node 18, Type 0, BuildingBlock: QUQFOY_clean_sbu_3, # of connection points: 4
#     Node 19, Type 0, BuildingBlock: QUQFOY_clean_sbu_3, # of connection points: 4
#     Node 20, Type 0, BuildingBlock: QUQFOY_clean_sbu_3, # of connection points: 4
#     Node 21, Type 0, BuildingBlock: QUQFOY_clean_sbu_3, # of connection points: 4
#     Node 22, Type 0, BuildingBlock: QUQFOY_clean_sbu_3, # of connection points: 4
#     Node 23, Type 0, BuildingBlock: QUQFOY_clean_sbu_3, # of connection points: 4
#     Node 24, Type 1, BuildingBlock: BETDEL_clean_sbu_0, # of connection points: 6
#     Node 25, Type 1, BuildingBlock: BETDEL_clean_sbu_0, # of connection points: 6
#     Node 26, Type 1, BuildingBlock: BETDEL_clean_sbu_0, # of connection points: 6
#     Node 27, Type 1, BuildingBlock: BETDEL_clean_sbu_0, # of connection points: 6
#     Node 28, Type 1, BuildingBlock: BETDEL_clean_sbu_0, # of connection points: 6
#     Node 29, Type 1, BuildingBlock: BETDEL_clean_sbu_0, # of connection points: 6
#     Node 30, Type 1, BuildingBlock: BETDEL_clean_sbu_0, # of connection points: 6
#     Node 31, Type 1, BuildingBlock: BETDEL_clean_sbu_0, # of connection points: 6
#     Node 32, Type 1, BuildingBlock: BETDEL_clean_sbu_0, # of connection points: 6
#     Node 33, Type 1, BuildingBlock: BETDEL_clean_sbu_0, # of connection points: 6
#     Node 34, Type 1, BuildingBlock: BETDEL_clean_sbu_0, # of connection points: 6
#     Node 35, Type 1, BuildingBlock: BETDEL_clean_sbu_0, # of connection points: 6
#     Node 36, Type 1, BuildingBlock: BETDEL_clean_sbu_0, # of connection points: 6
#     Node 37, Type 1, BuildingBlock: BETDEL_clean_sbu_0, # of connection points: 6
#     Node 38, Type 1, BuildingBlock: BETDEL_clean_sbu_0, # of connection points: 6
#     Node 39, Type 1, BuildingBlock: BETDEL_clean_sbu_0, # of connection points: 6
#     Edge 40, Type (0, 1), BuildingBlock: TEMPAE_clean_linker_10, # of connection points: 2
#     Edge 41, Type (0, 1), BuildingBlock: TEMPAE_clean_linker_10, # of connection points: 2
#     Edge 42, Type (0, 1), BuildingBlock: TEMPAE_clean_linker_10, # of connection points: 2
#     Edge 43, Type (0, 1), BuildingBlock: TEMPAE_clean_linker_10, # of connection points: 2
#     Edge 44, Type (0, 1), BuildingBlock: TEMPAE_clean_linker_10, # of connection points: 2
#     Edge 45, Type (0, 1), BuildingBlock: TEMPAE_clean_linker_10, # of connection points: 2
#     Edge 46, Type (0, 1), BuildingBlock: TEMPAE_clean_linker_10, # of connection points: 2
#     Edge 47, Type (0, 1), BuildingBlock: TEMPAE_clean_linker_10, # of connection points: 2
#     Edge 48, Type (0, 1), BuildingBlock: TEMPAE_clean_linker_10, # of connection points: 2
#     Edge 49, Type (0, 1), BuildingBlock: TEMPAE_clean_linker_10, # of connection points: 2
#     Edge 50, Type (0, 1), BuildingBlock: TEMPAE_clean_linker_10, # of connection points: 2
#     Edge 51, Type (0, 1), BuildingBlock: TEMPAE_clean_linker_10, # of connection points: 2
#     Edge 52, Type (0, 1), BuildingBlock: TEMPAE_clean_linker_10, # of connection points: 2
#     Edge 53, Type (0, 1), BuildingBlock: TEMPAE_clean_linker_10, # of connection points: 2
#     Edge 54, Type (0, 1), BuildingBlock: TEMPAE_clean_linker_10, # of connection points: 2
#     Edge 55, Type (0, 1), BuildingBlock: TEMPAE_clean_linker_10, # of connection points: 2
#     Edge 56, Type (0, 1), BuildingBlock: TEMPAE_clean_linker_10, # of connection points: 2
#     Edge 57, Type (0, 1), BuildingBlock: TEMPAE_clean_linker_10, # of connection points: 2
#     Edge 58, Type (0, 1), BuildingBlock: TEMPAE_clean_linker_10, # of connection points: 2
#     Edge 59, Type (0, 1), BuildingBlock: TEMPAE_clean_linker_10, # of connection points: 2
#     Edge 60, Type (0, 1), BuildingBlock: TEMPAE_clean_linker_10, # of connection points: 2
#     Edge 61, Type (0, 1), BuildingBlock: TEMPAE_clean_linker_10, # of connection points: 2
#     Edge 62, Type (0, 1), BuildingBlock: TEMPAE_clean_linker_10, # of connection points: 2
#     Edge 63, Type (0, 1), BuildingBlock: TEMPAE_clean_linker_10, # of connection points: 2
#     Edge 64, Type (0, 1), BuildingBlock: TEMPAE_clean_linker_10, # of connection points: 2
#     Edge 65, Type (0, 1), BuildingBlock: TEMPAE_clean_linker_10, # of connection points: 2
#     Edge 66, Type (0, 1), BuildingBlock: TEMPAE_clean_linker_10, # of connection points: 2
#     Edge 67, Type (0, 1), BuildingBlock: TEMPAE_clean_linker_10, # of connection points: 2
#     Edge 68, Type (0, 1), BuildingBlock: TEMPAE_clean_linker_10, # of connection points: 2
#     Edge 69, Type (0, 1), BuildingBlock: TEMPAE_clean_linker_10, # of connection points: 2
#     Edge 70, Type (0, 1), BuildingBlock: TEMPAE_clean_linker_10, # of connection points: 2
#     Edge 71, Type (0, 1), BuildingBlock: TEMPAE_clean_linker_10, # of connection points: 2
#     Edge 72, Type (0, 1), BuildingBlock: TEMPAE_clean_linker_10, # of connection points: 2
#     Edge 73, Type (0, 1), BuildingBlock: TEMPAE_clean_linker_10, # of connection points: 2
#     Edge 74, Type (0, 1), BuildingBlock: TEMPAE_clean_linker_10, # of connection points: 2
#     Edge 75, Type (0, 1), BuildingBlock: TEMPAE_clean_linker_10, # of connection points: 2
#     Edge 76, Type (0, 1), BuildingBlock: TEMPAE_clean_linker_10, # of connection points: 2
#     Edge 77, Type (0, 1), BuildingBlock: TEMPAE_clean_linker_10, # of connection points: 2
#     Edge 78, Type (0, 1), BuildingBlock: TEMPAE_clean_linker_10, # of connection points: 2
#     Edge 79, Type (0, 1), BuildingBlock: TEMPAE_clean_linker_10, # of connection points: 2
#     Edge 80, Type (0, 1), BuildingBlock: TEMPAE_clean_linker_10, # of connection points: 2
#     Edge 81, Type (0, 1), BuildingBlock: TEMPAE_clean_linker_10, # of connection points: 2
#     Edge 82, Type (0, 1), BuildingBlock: TEMPAE_clean_linker_10, # of connection points: 2
#     Edge 83, Type (0, 1), BuildingBlock: TEMPAE_clean_linker_10, # of connection points: 2
#     Edge 84, Type (0, 1), BuildingBlock: TEMPAE_clean_linker_10, # of connection points: 2
#     Edge 85, Type (0, 1), BuildingBlock: TEMPAE_clean_linker_10, # of connection points: 2
#     Edge 86, Type (0, 1), BuildingBlock: TEMPAE_clean_linker_10, # of connection points: 2
#     Edge 87, Type (0, 1), BuildingBlock: TEMPAE_clean_linker_10, # of connection points: 2
#     Edge 88, Type (0, 1), BuildingBlock: TEMPAE_clean_linker_10, # of connection points: 2
#     Edge 89, Type (0, 1), BuildingBlock: TEMPAE_clean_linker_10, # of connection points: 2
#     Edge 90, Type (0, 1), BuildingBlock: TEMPAE_clean_linker_10, # of connection points: 2
#     Edge 91, Type (0, 1), BuildingBlock: TEMPAE_clean_linker_10, # of connection points: 2
#     Edge 92, Type (0, 1), BuildingBlock: TEMPAE_clean_linker_10, # of connection points: 2
#     Edge 93, Type (0, 1), BuildingBlock: TEMPAE_clean_linker_10, # of connection points: 2
#     Edge 94, Type (0, 1), BuildingBlock: TEMPAE_clean_linker_10, # of connection points: 2
#     Edge 95, Type (0, 1), BuildingBlock: TEMPAE_clean_linker_10, # of connection points: 2
#     Edge 96, Type (0, 1), BuildingBlock: TEMPAE_clean_linker_10, # of connection points: 2
#     Edge 97, Type (0, 1), BuildingBlock: TEMPAE_clean_linker_10, # of connection points: 2
#     Edge 98, Type (0, 1), BuildingBlock: TEMPAE_clean_linker_10, # of connection points: 2
#     Edge 99, Type (0, 1), BuildingBlock: TEMPAE_clean_linker_10, # of connection points: 2
#     Edge 100, Type (0, 1), BuildingBlock: TEMPAE_clean_linker_10, # of connection points: 2
#     Edge 101, Type (0, 1), BuildingBlock: TEMPAE_clean_linker_10, # of connection points: 2
#     Edge 102, Type (0, 1), BuildingBlock: TEMPAE_clean_linker_10, # of connection points: 2
#     Edge 103, Type (0, 1), BuildingBlock: TEMPAE_clean_linker_10, # of connection points: 2
#     Edge 104, Type (0, 1), BuildingBlock: TEMPAE_clean_linker_10, # of connection points: 2
#     Edge 105, Type (0, 1), BuildingBlock: TEMPAE_clean_linker_10, # of connection points: 2
#     Edge 106, Type (0, 1), BuildingBlock: TEMPAE_clean_linker_10, # of connection points: 2
#     Edge 107, Type (0, 1), BuildingBlock: TEMPAE_clean_linker_10, # of connection points: 2
#     Edge 108, Type (0, 1), BuildingBlock: TEMPAE_clean_linker_10, # of connection points: 2
#     Edge 109, Type (0, 1), BuildingBlock: TEMPAE_clean_linker_10, # of connection points: 2
#     Edge 110, Type (0, 1), BuildingBlock: TEMPAE_clean_linker_10, # of connection points: 2
#     Edge 111, Type (0, 1), BuildingBlock: TEMPAE_clean_linker_10, # of connection points: 2
#     Edge 112, Type (0, 1), BuildingBlock: TEMPAE_clean_linker_10, # of connection points: 2
#     Edge 113, Type (0, 1), BuildingBlock: TEMPAE_clean_linker_10, # of connection points: 2
#     Edge 114, Type (0, 1), BuildingBlock: TEMPAE_clean_linker_10, # of connection points: 2
#     Edge 115, Type (0, 1), BuildingBlock: TEMPAE_clean_linker_10, # of connection points: 2
#     Edge 116, Type (0, 1), BuildingBlock: TEMPAE_clean_linker_10, # of connection points: 2
#     Edge 117, Type (0, 1), BuildingBlock: TEMPAE_clean_linker_10, # of connection points: 2
#     Edge 118, Type (0, 1), BuildingBlock: TEMPAE_clean_linker_10, # of connection points: 2
#     Edge 119, Type (0, 1), BuildingBlock: TEMPAE_clean_linker_10, # of connection points: 2
#     Edge 120, Type (0, 1), BuildingBlock: TEMPAE_clean_linker_10, # of connection points: 2
#     Edge 121, Type (0, 1), BuildingBlock: TEMPAE_clean_linker_10, # of connection points: 2
#     Edge 122, Type (0, 1), BuildingBlock: TEMPAE_clean_linker_10, # of connection points: 2
#     Edge 123, Type (0, 1), BuildingBlock: TEMPAE_clean_linker_10, # of connection points: 2
#     Edge 124, Type (0, 1), BuildingBlock: TEMPAE_clean_linker_10, # of connection points: 2
#     Edge 125, Type (0, 1), BuildingBlock: TEMPAE_clean_linker_10, # of connection points: 2
#     Edge 126, Type (0, 1), BuildingBlock: TEMPAE_clean_linker_10, # of connection points: 2
#     Edge 127, Type (0, 1), BuildingBlock: TEMPAE_clean_linker_10, # of connection points: 2
#     Edge 128, Type (0, 1), BuildingBlock: TEMPAE_clean_linker_10, # of connection points: 2
#     Edge 129, Type (0, 1), BuildingBlock: TEMPAE_clean_linker_10, # of connection points: 2
#     Edge 130, Type (0, 1), BuildingBlock: TEMPAE_clean_linker_10, # of connection points: 2
#     Edge 131, Type (0, 1), BuildingBlock: TEMPAE_clean_linker_10, # of connection points: 2
#     Edge 132, Type (0, 1), BuildingBlock: TEMPAE_clean_linker_10, # of connection points: 2
#     Edge 133, Type (0, 1), BuildingBlock: TEMPAE_clean_linker_10, # of connection points: 2
#     Edge 134, Type (0, 1), BuildingBlock: TEMPAE_clean_linker_10, # of connection points: 2
#     Edge 135, Type (0, 1), BuildingBlock: TEMPAE_clean_linker_10, # of connection points: 2
# Relax obj value: 0.139
# Max RMSD: 0.272
# Mean RMSD: 0.140
data_MOF--net-gar--node1-QUQFOY_clean_sbu_3--node2-BETDEL_clean_sbu_0--edge1-TEMPAE_clean_linker_10
_symmetry_space_group_name_H-M    P1
_symmetry_Int_Tables_number       1
_symmetry_cell_setting            triclinic
loop_
_symmetry_equiv_pos_as_xyz
'x, y, z'
_cell_length_a     56.676597
_cell_length_b     54.995572
_cell_length_c     55.894858
_cell_angle_alpha  96.356641
_cell_angle_beta   92.452993
_cell_angle_gamma 101.0314
loop_
_atom_site_label
_atom_site_type_symbol
_atom_site_fract_x
_atom_site_fract_y
_atom_site_fract_z
_atom_type_partial_charge
C0 C 0.99058 0.28036 0.36321 0.0
O1 O 0.00427 0.29108 0.34849 0.0
Cd2 Cd 0.04727 0.30009 0.35198 0.0
O3 O -0.00085 0.27133 0.38099 0.0
Cd4 Cd 0.03953 0.26594 0.39694 0.0
C5 C 0.05505 0.329 0.4106 0.0
O6 O 0.05737 0.26153 0.35873 0.0
O7 O 0.08252 0.26725 0.38967 0.0
O8 O 0.02577 0.22226 0.40278 0.0
C9 C 0.07888 0.26348 0.36689 0.0
O10 O 0.05705 0.33054 0.38816 0.0
C11 C 0.03076 0.22533 0.42542 0.0
O12 O 0.04816 0.30797 0.41824 0.0
O13 O 0.03951 0.24745 0.43501 0.0
C14 C 0.96635 0.76017 0.65739 0.0
O15 O 0.98086 0.74784 0.66582 0.0
Cd16 Cd 0.01228 0.73515 0.64457 0.0
O17 O 0.96896 0.76788 0.63672 0.0
Cd18 Cd -0.0009 0.76778 0.60475 0.0
C19 C 0.98094 0.70574 0.59162 0.0
O20 O 0.03411 0.77293 0.63246 0.0
O21 O 0.04013 0.76063 0.59587 0.0
O22 O -0.00334 0.81101 0.60012 0.0
C23 C 0.04891 0.76814 0.61723 0.0
O24 O 0.99204 0.70419 0.61153 0.0
C25 C -0.00414 0.80811 0.57722 0.0
O26 O 0.97994 0.72684 0.58481 0.0
O27 O -0.0041 0.7863 0.5671 0.0
C28 C 0.4826 0.77654 0.85982 0.0
O29 O 0.49475 0.78844 0.84476 0.0
Cd30 Cd 0.53669 0.80504 0.85121 0.0
O31 O 0.49299 0.76996 0.87808 0.0
Cd32 Cd 0.53532 0.77069 0.89415 0.0
C33 C 0.53835 0.83216 0.91026 0.0
O34 O 0.55456 0.7699 0.85605 0.0
O35 O 0.57876 0.77949 0.88795 0.0
O36 O 0.52697 0.7261 0.89821 0.0
C37 C 0.57602 0.77483 0.86515 0.0
O38 O 0.53839 0.83447 0.88784 0.0
C39 C 0.53184 0.72874 0.92086 0.0
O40 O 0.53753 0.81104 0.91778 0.0
O41 O 0.53816 0.75095 0.9312 0.0
C42 C 0.47241 0.26187 0.16552 0.0
O43 O 0.48878 0.25231 0.17477 0.0
Cd44 Cd 0.52362 0.24512 0.155 0.0
O45 O 0.47431 0.26936 0.14474 0.0
Cd46 Cd 0.50397 0.27321 0.11292 0.0
C47 C 0.49668 0.21063 0.10195 0.0
O48 O 0.53969 0.28325 0.14007 0.0
O49 O 0.54613 0.27168 0.10341 0.0
O50 O 0.49643 0.31488 0.10912 0.0
C51 C 0.5548 0.27967 0.12473 0.0
O52 O 0.50947 0.21209 0.12158 0.0
C53 C 0.49329 0.31192 0.08628 0.0
O54 O 0.49027 0.22989 0.09513 0.0
O55 O 0.49472 0.29065 0.07565 0.0
C56 C 0.99459 0.78734 0.18812 0.0
O57 O 0.0094 0.77863 0.20083 0.0
Cd58 Cd 0.04932 0.77509 0.19152 0.0
O59 O 0.00031 0.79559 0.16824 0.0
Cd60 Cd 0.03595 0.8028 0.14333 0.0
C61 C 0.03804 0.74055 0.13507 0.0
O62 O 0.0619 0.81479 0.17857 0.0
O63 O 0.08091 0.81632 0.14633 0.0
O64 O 0.02343 0.84062 0.13424 0.0
C65 C 0.08186 0.81916 0.16919 0.0
O66 O 0.04456 0.74203 0.15739 0.0
C67 C 0.0247 0.83649 0.11157 0.0
O68 O 0.03328 0.75945 0.12597 0.0
O69 O 0.03095 0.8163 0.10352 0.0
C70 C 0.44956 0.75993 0.33036 0.0
O71 O 0.46513 0.77561 0.32143 0.0
Cd72 Cd 0.50548 0.79032 0.33676 0.0
O73 O 0.45449 0.75157 0.35002 0.0
Cd74 Cd 0.49067 0.75672 0.37858 0.0
C75 C 0.49759 0.81978 0.3922 0.0
O76 O 0.51393 0.75103 0.34463 0.0
O77 O 0.53527 0.75797 0.37816 0.0
O78 O 0.4739 0.71425 0.38588 0.0
C79 C 0.53402 0.75195 0.35552 0.0
O80 O 0.5052 0.82174 0.37127 0.0
C81 C 0.47915 0.71787 0.40846 0.0
O82 O 0.49016 0.79838 0.39879 0.0
O83 O 0.48913 0.73988 0.41729 0.0
C84 C 0.50595 0.29429 0.69213 0.0
O85 O 0.52189 0.28686 0.70457 0.0
Cd86 Cd 0.56223 0.2865 0.69449 0.0
O87 O 0.51061 0.30277 0.6721 0.0
Cd88 Cd 0.54571 0.31206 0.64662 0.0
C89 C 0.55172 0.25087 0.63881 0.0
O90 O 0.57163 0.32675 0.68155 0.0
O91 O 0.59044 0.32849 0.64924 0.0
O92 O 0.52975 0.34743 0.63524 0.0
C93 C 0.59142 0.33231 0.67208 0.0
O94 O 0.55895 0.2528 0.66098 0.0
C95 C 0.53126 0.34213 0.61272 0.0
O96 O 0.54543 0.26917 0.62992 0.0
O97 O 0.53942 0.3227 0.60601 0.0
C98 C 0.94814 0.24782 0.82475 0.0
O99 O 0.96244 0.26324 0.81419 0.0
Cd100 Cd 0.00297 0.28173 0.82689 0.0
O101 O 0.9547 0.24117 0.84476 0.0
Cd102 Cd 0.99292 0.2506 0.8709 0.0
C103 C -0.00468 0.31321 0.88127 0.0
O104 O 0.0169 0.24558 0.83677 0.0
O105 O 0.03752 0.25768 0.87059 0.0
O106 O 0.9828 0.20854 0.88229 0.0
C107 C 0.03716 0.24999 0.84833 0.0
O108 O 0.00225 0.31472 0.86002 0.0
C109 C 0.98794 0.21516 0.9047 0.0
O110 O 0.98956 0.29207 0.88888 0.0
O111 O 0.99453 0.23837 0.91139 0.0
C112 C 0.44225 0.03972 0.31616 0.0
O113 O 0.45187 0.02828 0.2994 0.0
Cd114 Cd 0.43737 0.01965 0.25814 0.0
O115 O 0.4223 0.0465 0.31212 0.0
Cd116 Cd 0.39371 0.043 0.27664 0.0
C117 C 0.38465 0.97979 0.26256 0.0
O118 O 0.42572 0.05834 0.25211 0.0
O119 O 0.39092 0.04812 0.23311 0.0
O120 O 0.37965 0.07998 0.29365 0.0
C121 C 0.41304 0.05784 0.2329 0.0
O122 O 0.40536 0.98221 0.25413 0.0
C123 C 0.35745 0.06994 0.29014 0.0
O124 O 0.3775 -0.00134 0.27267 0.0
O125 O 0.3524 0.04718 0.28131 0.0
C126 C 0.29076 0.10491 0.49411 0.0
O127 O 0.27278 0.09129 0.50199 0.0
Cd128 Cd 0.23426 0.10084 0.50683 0.0
O129 O 0.28928 0.12586 0.48688 0.0
Cd130 Cd 0.25802 0.15153 0.4803 0.0
C131 C 0.25191 0.15904 0.54107 0.0
O132 O 0.22868 0.11478 0.46911 0.0
O133 O 0.21358 0.14766 0.47084 0.0
O134 O 0.27722 0.16007 0.44299 0.0
C135 C 0.21019 0.12407 0.4668 0.0
O136 O 0.242 0.13598 0.53893 0.0
C137 C 0.27616 0.18306 0.44507 0.0
O138 O 0.25985 0.16935 0.52287 0.0
O139 O 0.26729 0.1916 0.46397 0.0
C140 C 0.09307 0.00983 0.81874 0.0
O141 O 0.08432 0.02186 0.80361 0.0
Cd142 Cd 0.10047 0.03356 0.76725 0.0
O143 O 0.11242 0.00173 0.81484 0.0
Cd144 Cd 0.14086 0.00164 0.7812 0.0
C145 C 0.15715 0.06499 0.78938 0.0
O146 O 0.11047 0.99653 0.74798 0.0
O147 O 0.14696 0.00549 0.73804 0.0
O148 O 0.14408 0.95847 0.78588 0.0
C149 C 0.12474 0.00031 0.7314 0.0
O150 O 0.13633 0.06537 0.78009 0.0
C151 C 0.16694 0.96243 0.78667 0.0
O152 O 0.16334 0.04447 0.79274 0.0
O153 O 0.17769 0.98475 0.78569 0.0
C154 C 0.27762 0.90986 0.97256 0.0
O155 O 0.26681 0.92169 0.95876 0.0
Cd156 Cd 0.22448 0.92052 0.95621 0.0
O157 O 0.26584 0.89539 0.98611 0.0
Cd158 Cd 0.2231 0.88138 0.99462 0.0
C159 C 0.20505 0.85908 0.93602 0.0
O160 O 0.21635 0.92337 -0.00199 0.0
O161 O 0.18478 0.89579 0.00187 0.0
O162 O 0.23633 0.87517 0.03521 0.0
C163 C 0.19446 0.91867 0.00257 0.0
O164 O 0.20683 0.88143 0.93126 0.0
C165 C 0.22517 0.85264 0.03365 0.0
O166 O 0.21088 0.85467 0.95707 0.0
O167 O 0.21293 0.8437 0.01404 0.0
C168 C 0.30669 0.43778 0.03123 0.0
O169 O 0.29587 0.45097 0.01901 0.0
Cd170 Cd 0.25555 0.43995 0.00228 0.0
O171 O 0.29586 0.41684 0.03694 0.0
Cd172 Cd 0.25375 0.39152 0.03302 0.0
C173 C 0.25698 0.38177 0.97173 0.0
O174 O 0.23607 0.42773 0.03672 0.0
O175 O 0.21 0.39367 0.02808 0.0
O176 O 0.25623 0.38494 0.07541 0.0
C177 C 0.2142 0.41725 0.03303 0.0
O178 O 0.25555 0.40459 0.9715 0.0
C179 C 0.252 0.36128 0.0718 0.0
O180 O 0.25729 0.37235 0.99159 0.0
O181 O 0.24897 0.35137 0.04995 0.0
C182 C 0.78751 0.1013 0.0314 0.0
O183 O 0.77152 0.09398 0.04568 0.0
Cd184 Cd 0.73887 0.11392 0.05598 0.0
O185 O 0.78749 0.12116 0.02154 0.0
Cd186 Cd 0.76295 0.15398 0.02077 0.0
C187 C 0.76952 0.17171 0.08123 0.0
O188 O 0.72603 0.12405 0.01793 0.0
O189 O 0.72117 0.16204 0.02064 0.0
O190 O 0.77129 0.15767 0.97883 0.0
C191 C 0.71169 0.13902 0.01823 0.0
O192 O 0.75552 0.15126 0.08388 0.0
C193 C 0.77847 0.1812 0.98195 0.0
O194 O 0.77603 0.17644 0.06046 0.0
O195 O 0.77913 0.19194 0.00334 0.0
C196 C 0.07259 0.47622 0.26737 0.0
O197 O 0.06015 0.48516 0.25233 0.0
Cd198 Cd 0.06998 0.49617 0.21347 0.0
O199 O 0.09344 0.47192 0.26293 0.0
Cd200 Cd 0.12014 0.47449 0.22866 0.0
C201 C 0.12314 0.53789 0.22886 0.0
O202 O 0.08604 0.46013 0.20216 0.0
O203 O 0.11833 0.4626 0.18346 0.0
O204 O 0.13858 0.44129 0.24175 0.0
C205 C 0.0955 0.45768 0.18232 0.0
O206 O 0.10115 0.53467 0.22108 0.0
C207 C 0.16001 0.45341 0.24111 0.0
O208 O 0.13253 0.51941 0.23288 0.0
O209 O 0.16257 0.4751 0.2346 0.0
C210 C 0.79975 0.93631 0.51834 0.0
O211 O 0.78642 0.94665 0.50553 0.0
Cd212 Cd 0.7448 0.93437 0.49531 0.0
O213 O 0.79115 0.91639 0.52749 0.0
Cd214 Cd 0.75076 0.88811 0.52878 0.0
C215 C 0.74602 0.87531 0.46684 0.0
O216 O 0.73367 0.92378 0.53328 0.0
O217 O 0.70663 0.8904 0.53015 0.0
O218 O 0.75948 0.88439 0.57119 0.0
C219 C 0.71174 0.91407 0.53342 0.0
O220 O 0.7427 0.89752 0.46629 0.0
C221 C 0.75445 0.86073 0.56918 0.0
O222 O 0.75009 0.86725 0.48689 0.0
O223 O 0.74855 0.84943 0.54806 0.0
C224 C 0.89736 0.00949 0.27334 0.0
O225 O 0.90913 -0.00147 0.25819 0.0
Cd226 Cd 0.90713 -0.00066 0.2156 0.0
O227 O 0.88229 0.02224 0.26643 0.0
Cd228 Cd 0.86596 0.03121 0.22673 0.0
C229 C 0.84878 0.96876 0.20761 0.0
O230 O 0.90559 0.04171 0.21136 0.0
O231 O 0.87613 0.0409 0.1857 0.0
O232 O 0.85713 0.06835 0.25036 0.0
C233 C 0.8987 0.0453 0.19047 0.0
O234 O 0.87056 0.96868 0.20297 0.0
C235 C 0.83808 0.06871 0.23767 0.0
O236 O 0.84274 0.98853 0.21735 0.0
O237 O 0.8317 0.05135 0.22038 0.0
C238 C 0.29133 0.59876 0.52817 0.0
O239 O 0.27255 0.59138 0.53905 0.0
Cd240 Cd 0.24002 0.6125 0.54316 0.0
O241 O 0.29433 0.61919 0.51876 0.0
Cd242 Cd 0.2709 0.65245 0.51311 0.0
C243 C 0.26783 0.66965 0.57275 0.0
O244 O 0.23579 0.62118 0.5026 0.0
O245 O 0.22844 0.65812 0.50515 0.0
O246 O 0.28745 0.6563 0.47395 0.0
C247 C 0.22082 0.6349 0.49941 0.0
O248 O 0.2529 0.64921 0.57306 0.0
C249 C 0.2916 0.67998 0.47637 0.0
O250 O 0.27797 0.67473 0.55357 0.0
O251 O 0.28747 0.69085 0.49653 0.0
C252 C 0.41004 0.51892 0.77655 0.0
O253 O 0.4253 0.51141 0.76301 0.0
Cd254 Cd 0.42069 0.50557 0.71976 0.0
O255 O 0.39197 0.5264 0.76769 0.0
Cd256 Cd 0.37548 0.53323 0.72752 0.0
C257 C 0.36345 0.46993 0.71462 0.0
O258 O 0.41303 0.5439 0.70825 0.0
O259 O 0.38088 0.53679 0.68446 0.0
O260 O 0.36903 0.57457 0.74253 0.0
C261 C 0.40364 0.54325 0.68716 0.0
O262 O 0.38579 0.47119 0.71165 0.0
C263 C 0.34646 0.5698 0.73722 0.0
O264 O 0.35529 0.48954 0.72101 0.0
O265 O 0.3372 0.54773 0.72783 0.0
C266 C 0.57681 0.97573 0.77749 0.0
O267 O 0.56387 0.98578 0.76391 0.0
Cd268 Cd 0.57339 0.00279 0.72744 0.0
O269 O 0.59819 0.97354 0.77269 0.0
Cd270 Cd 0.62523 0.98206 0.73945 0.0
C271 C 0.62526 0.04531 0.74691 0.0
O272 O 0.59169 0.96978 0.71184 0.0
O273 O 0.62454 0.97515 0.69396 0.0
O274 O 0.64372 0.94775 0.74903 0.0
C275 C 0.60172 0.97004 0.69221 0.0
O276 O 0.60323 0.04157 0.73916 0.0
C277 C 0.66518 0.96002 0.74913 0.0
O278 O 0.63584 0.02712 0.7487 0.0
O279 O 0.66784 0.98249 0.74466 0.0
C280 C 0.78332 0.59573 0.98955 0.0
O281 O 0.76457 0.58268 0.99667 0.0
Cd282 Cd 0.72725 0.59551 0.00102 0.0
O283 O 0.78294 0.61713 0.98284 0.0
Cd284 Cd 0.75253 0.64391 0.9766 0.0
C285 C 0.74609 0.65227 0.03675 0.0
O286 O 0.71947 0.60963 0.96339 0.0
O287 O 0.70891 0.64466 0.97294 0.0
O288 O 0.76988 0.65262 0.93826 0.0
C289 C 0.7027 0.62178 0.96477 0.0
O290 O 0.73479 0.62966 0.03422 0.0
C291 C 0.77084 0.67601 0.94165 0.0
O292 O 0.75551 0.66211 0.01893 0.0
O293 O 0.76383 0.68459 0.96158 0.0
C294 C 0.94472 0.54234 0.81163 0.0
O295 O 0.95527 0.53073 0.79579 0.0
Cd296 Cd 0.94444 0.52108 0.75381 0.0
O297 O 0.92512 0.54929 0.80619 0.0
Cd298 Cd 0.89885 0.54576 0.76876 0.0
C299 C 0.89055 0.4821 0.75629 0.0
O300 O 0.93313 0.55948 0.74692 0.0
O301 O 0.89998 0.55113 0.72507 0.0
O302 O 0.88363 0.58285 0.7835 0.0
C303 C 0.92252 0.55934 0.72664 0.0
O304 O 0.9119 0.48408 0.74947 0.0
C305 C 0.86162 0.57261 0.77855 0.0
O306 O 0.88287 0.50131 0.76479 0.0
O307 O 0.85716 0.54978 0.76991 0.0
C308 C 0.78063 0.42542 0.49202 0.0
O309 O 0.7702 0.43663 0.4773 0.0
Cd310 Cd 0.72807 0.43249 0.46849 0.0
O311 O 0.76852 0.40911 0.50367 0.0
Cd312 Cd 0.72531 0.39033 0.5067 0.0
C313 C 0.71549 0.37067 0.44611 0.0
O314 O 0.71566 0.43056 0.50835 0.0
O315 O 0.68476 0.40162 0.51016 0.0
O316 O 0.73432 0.38258 0.54792 0.0
C317 C 0.69332 0.42471 0.51037 0.0
O318 O 0.71628 0.39312 0.44198 0.0
C319 C 0.72451 0.35956 0.54443 0.0
O320 O 0.71921 0.36561 0.46743 0.0
O321 O 0.71498 0.35108 0.52348 0.0
C322 C 0.58555 0.50441 0.30594 0.0
O323 O 0.57655 0.51609 0.29066 0.0
Cd324 Cd 0.59547 0.53139 0.25661 0.0
O325 O 0.6061 0.49857 0.30312 0.0
Cd326 Cd 0.63696 0.50255 0.27201 0.0
C327 C 0.64896 0.56537 0.28442 0.0
O328 O 0.61024 0.49787 0.23545 0.0
O329 O 0.64776 0.51213 0.23151 0.0
O330 O 0.64284 0.45994 0.27507 0.0
C331 C 0.62665 0.50514 0.22165 0.0
O332 O 0.62877 0.56498 0.27329 0.0
C333 C 0.66561 0.46589 0.27862 0.0
O334 O 0.65591 0.54522 0.28766 0.0
O335 O 0.67496 0.4889 0.2795 0.0
Dy336 Dy 0.9789 0.02059 0.00772 0.0
C337 C 0.08219 0.03594 0.01439 0.0
C338 C 0.93245 0.02375 0.01479 0.0
Dy339 Dy 0.03447 0.0365 0.01697 0.0
O340 O 0.93934 0.01173 0.99577 0.0
O341 O 0.95076 0.03316 0.02987 0.0
O342 O 0.98316 -0.00194 0.97254 0.0
O343 O 0.00899 0.03011 0.98587 0.0
C344 C 0.00428 0.01152 0.96992 0.0
C345 C 0.00843 0.04487 0.05447 0.0
O346 O 0.02816 0.07146 0.00352 0.0
O347 O 0.98634 0.06178 0.0042 0.0
O348 O 0.07179 0.04055 0.03421 0.0
O349 O 0.0666 0.03258 0.99607 0.0
O350 O 0.02878 0.05955 0.0515 0.0
O351 O 0.00446 0.02628 0.03858 0.0
O352 O 0.98554 0.98599 0.02142 0.0
O353 O 0.02692 0.99464 0.01729 0.0
C354 C 0.0067 0.07761 0.00162 0.0
C355 C 0.00675 0.97917 0.02126 0.0
Dy356 Dy 0.25185 0.75748 0.22492 0.0
C357 C 0.26913 0.75583 0.3274 0.0
C358 C 0.24155 0.76448 0.17851 0.0
Dy359 Dy 0.25486 0.76212 0.28185 0.0
O360 O 0.26158 0.75908 0.18647 0.0
O361 O 0.22717 0.76579 0.19584 0.0
O362 O 0.28025 0.73337 0.22494 0.0
O363 O 0.27912 0.76114 0.25341 0.0
C364 C 0.28925 0.74359 0.24636 0.0
C365 C 0.2193 0.77906 0.26144 0.0
O366 O 0.27715 0.79903 0.27683 0.0
O367 O 0.26663 0.79853 0.23588 0.0
O368 O 0.24798 0.75989 0.32103 0.0
O369 O 0.28219 0.75517 0.30897 0.0
O370 O 0.22889 0.78828 0.28297 0.0
O371 O 0.22746 0.76017 0.25355 0.0
O372 O 0.22929 0.72084 0.22924 0.0
O373 O 0.23828 0.72131 0.27055 0.0
C374 C 0.27727 0.81011 0.25688 0.0
C375 C 0.22823 0.70986 0.24922 0.0
Dy376 Dy 0.54417 0.0337 0.51689 0.0
C377 C 0.44426 0.04152 0.5104 0.0
C378 C 0.58807 0.02132 0.52226 0.0
Dy379 Dy 0.4886 0.03122 0.51862 0.0
O380 O 0.57756 0.02383 0.50183 0.0
O381 O 0.57501 0.02664 0.53989 0.0
O382 O 0.54489 0.05786 0.48662 0.0
O383 O 0.51425 0.03105 0.4913 0.0
C384 C 0.52243 0.04859 0.47955 0.0
C385 C 0.50961 0.01402 0.55457 0.0
O386 O 0.48761 0.99399 0.49777 0.0
O387 O 0.52765 0.99276 0.50774 0.0
O388 O 0.45206 0.03521 0.53059 0.0
O389 O 0.46049 0.04176 0.49472 0.0
O390 O 0.48724 0.00505 0.54694 0.0
O391 O 0.51824 0.0326 0.54424 0.0
O392 O 0.5461 0.07132 0.53679 0.0
O393 O 0.5051 0.07175 0.53109 0.0
C394 C 0.50572 0.98188 0.4983 0.0
C395 C 0.52761 0.08286 0.53861 0.0
Dy396 Dy 0.23797 0.26498 0.75681 0.0
C397 C 0.34069 0.27722 0.75469 0.0
C398 C 0.19032 0.25445 0.76461 0.0
Dy399 Dy 0.29277 0.26832 0.76197 0.0
O400 O 0.2015 0.27504 0.75754 0.0
O401 O 0.20506 0.23932 0.76679 0.0
O402 O 0.24302 0.29511 0.73249 0.0
O403 O 0.26933 0.29504 0.76033 0.0
C404 C 0.26435 0.30541 0.74227 0.0
C405 C 0.26582 0.2276 0.77572 0.0
O406 O 0.28887 0.28829 0.79821 0.0
O407 O 0.2471 0.27672 0.79656 0.0
O408 O 0.32781 0.25563 0.75744 0.0
O409 O 0.32752 0.29416 0.75654 0.0
O410 O 0.28678 0.23796 0.78633 0.0
O411 O 0.26149 0.23838 0.7578 0.0
O412 O 0.24178 0.245 0.72092 0.0
O413 O 0.28338 0.25817 0.72181 0.0
C414 C 0.26806 0.2869 0.8085 0.0
C415 C 0.26233 0.24752 0.71016 0.0
Dy416 Dy -0.00167 0.01272 0.48022 0.0
C417 C 0.05515 0.02726 0.57021 0.0
C418 C 0.97028 0.0097 0.43868 0.0
Dy419 Dy 0.02386 0.02507 0.53124 0.0
O420 O 0.99352 0.01643 0.44098 0.0
O421 O 0.96207 0.00407 0.45916 0.0
O422 O 0.03297 0.00601 0.46534 0.0
O423 O 0.03376 0.03256 0.49539 0.0
C424 C 0.04657 0.02157 0.48185 0.0
C425 C 0.97562 0.01414 0.52993 0.0
O426 O 0.02728 0.06325 0.51967 0.0
O427 O 0.99418 0.05213 0.49219 0.0
O428 O 0.05465 0.01301 0.55002 0.0
O429 O 0.03889 0.04093 0.56898 0.0
O430 O 0.98861 0.02858 0.54759 0.0
O431 O 0.98912 0.00477 0.51609 0.0
O432 O -0.00254 0.97365 0.48816 0.0
O433 O 0.02609 0.98477 0.52061 0.0
C434 C 0.0105 0.06941 0.50551 0.0
C435 C 0.01231 0.9677 0.50457 0.0
Dy436 Dy 0.27687 0.77254 0.77757 0.0
C437 C 0.19771 0.74689 0.70508 0.0
C438 C 0.31258 0.778 0.81322 0.0
Dy439 Dy 0.23021 0.75317 0.74365 0.0
O440 O 0.31093 0.79398 0.79804 0.0
O441 O 0.29433 0.75947 0.8093 0.0
O442 O 0.29725 0.78726 0.74644 0.0
O443 O 0.26849 0.75735 0.74015 0.0
C444 C 0.28236 0.77301 0.7301 0.0
C445 C 0.22424 0.75226 0.79095 0.0
O446 O 0.24669 0.71915 0.74047 0.0
O447 O 0.27185 0.73067 0.77548 0.0
O448 O 0.19514 0.73427 0.72348 0.0
O449 O 0.21805 0.76275 0.70778 0.0
O450 O 0.20976 0.73776 0.77431 0.0
O451 O 0.23847 0.76792 0.78112 0.0
O452 O 0.25953 0.80608 0.78255 0.0
O453 O 0.23321 0.79509 0.74826 0.0
C454 C 0.2611 0.71372 0.75761 0.0
C455 C 0.2442 0.81176 0.76635 0.0
Dy456 Dy 0.49506 0.02094 0.03321 0.0
C457 C 0.50523 0.99142 0.93268 0.0
C458 C 0.48997 0.03978 0.07929 0.0
Dy459 Dy 0.49873 0.01103 0.97808 0.0
O460 O 0.49348 0.01746 0.07269 0.0
O461 O 0.48949 0.05194 0.06074 0.0
O462 O 0.50299 0.98288 0.03686 0.0
O463 O 0.51796 0.00311 0.00969 0.0
C464 C 0.51559 0.98253 0.01802 0.0
C465 C 0.47929 0.05026 0.993 0.0
O466 O 0.46613 0.98242 0.98384 0.0
O467 O 0.45809 -0.00096 0.02202 0.0
O468 O 0.50021 0.01329 0.93844 0.0
O469 O 0.50625 0.98001 0.95169 0.0
O470 O 0.49107 0.04887 0.97362 0.0
O471 O 0.4765 0.02974 0.00159 0.0
O472 O 0.52706 0.05032 0.02745 0.0
O473 O 0.5349 0.03478 0.98879 0.0
C474 C 0.45215 0.98283 0.00227 0.0
C475 C 0.54048 0.051 0.00855 0.0
Dy476 Dy 0.27808 0.29978 0.26293 0.0
C477 C 0.2624 0.19337 0.25902 0.0
C478 C 0.27848 0.34885 0.25988 0.0
Dy479 Dy 0.26467 0.24206 0.25287 0.0
O480 O 0.28212 0.3395 0.27976 0.0
O481 O 0.27515 0.33139 0.24173 0.0
O482 O 0.29975 0.29682 0.29689 0.0
O483 O 0.26907 0.26957 0.28441 0.0
C484 C 0.28659 0.27533 0.29992 0.0
C485 C 0.25612 0.26648 0.21579 0.0
O486 O 0.22965 0.24855 0.26532 0.0
O487 O 0.23768 0.29179 0.26621 0.0
O488 O 0.26544 0.20235 0.23853 0.0
O489 O 0.26039 0.21093 0.27579 0.0
O490 O 0.24318 0.24481 0.2187 0.0
O491 O 0.27365 0.2723 0.2313 0.0
O492 O 0.31266 0.29296 0.24903 0.0
O493 O 0.30516 0.25023 0.25184 0.0
C494 C 0.22285 0.27033 0.26829 0.0
C495 C 0.31974 0.27127 0.24803 0.0
Dy496 Dy 0.48857 0.51328 0.98241 0.0
C497 C 0.56455 0.53716 0.06072 0.0
C498 C 0.45141 0.50337 0.94776 0.0
Dy499 Dy 0.52686 0.52713 0.02669 0.0
O500 O 0.46701 0.4892 0.9506 0.0
O501 O 0.45562 0.52226 0.9645 0.0
O502 O 0.5166 0.52604 0.95699 0.0
O503 O 0.52685 0.51309 0.98873 0.0
C504 C 0.53461 0.52377 0.97101 0.0
C505 C 0.48064 0.5167 0.03777 0.0
O506 O 0.53029 0.56349 0.01103 0.0
O507 O 0.4928 0.55471 0.98982 0.0
O508 O 0.54663 0.54882 0.06055 0.0
O509 O 0.56231 0.52085 0.04168 0.0
O510 O 0.49842 0.51392 0.05188 0.0
O511 O 0.48876 0.52743 0.02024 0.0
O512 O 0.48454 0.47709 -0.00157 0.0
O513 O 0.52184 0.48558 0.02005 0.0
C514 C 0.51283 0.5705 -0.00151 0.0
C515 C 0.50178 0.46995 0.01117 0.0
Dy516 Dy 0.78691 0.28553 0.27998 0.0
C517 C 0.70408 0.25682 0.21196 0.0
C518 C 0.82311 0.29217 0.31518 0.0
Dy519 Dy 0.73858 0.26373 0.24892 0.0
O520 O 0.82207 0.30669 0.29846 0.0
O521 O 0.80403 0.27452 0.313 0.0
O522 O 0.805 0.29955 0.24756 0.0
O523 O 0.77669 0.26881 0.24331 0.0
C524 C 0.78966 0.28435 0.2322 0.0
C525 C 0.73558 0.26575 0.2969 0.0
O526 O 0.75406 0.22914 0.24671 0.0
O527 O 0.785 0.24392 0.27674 0.0
O528 O 0.70188 0.24579 0.23141 0.0
O529 O 0.72515 0.27121 0.21271 0.0
O530 O 0.72035 0.25027 0.28161 0.0
O531 O 0.74888 0.28066 0.28547 0.0
O532 O 0.76936 0.31898 0.28395 0.0
O533 O 0.74121 0.30541 0.25132 0.0
C534 C 0.77176 0.22565 0.26147 0.0
C535 C 0.75299 0.32324 0.26799 0.0
Dy536 Dy 0.01001 0.51936 0.5305 0.0
C537 C 0.00586 0.49122 0.42781 0.0
C538 C 0.00636 0.53683 0.57722 0.0
Dy539 Dy 0.00135 0.50792 0.47456 0.0
O540 O 0.00886 0.51429 0.5697 0.0
O541 O 0.00613 0.54983 0.55924 0.0
O542 O 0.03664 0.4937 0.52983 0.0
O543 O 0.00705 0.48704 0.50421 0.0
C544 C 0.02614 0.48017 0.51027 0.0
C545 C 0.98573 0.54746 0.49501 0.0
O546 O 0.96822 0.48398 0.48484 0.0
O547 O 0.97026 0.50259 0.52462 0.0
O548 O -0.00118 0.51179 0.43509 0.0
O549 O 0.01007 0.47964 0.44603 0.0
O550 O 0.97491 0.53404 0.47552 0.0
O551 O 0.00459 0.54012 0.5008 0.0
O552 O 0.04366 0.54273 0.52059 0.0
O553 O 0.04043 0.52726 0.47972 0.0
C554 C 0.95857 0.48752 0.50579 0.0
C555 C 0.05252 0.54107 0.49905 0.0
Dy556 Dy 0.72582 0.76342 0.24963 0.0
C557 C 0.82863 0.77677 0.24725 0.0
C558 C 0.67855 0.75256 0.25898 0.0
Dy559 Dy 0.78078 0.7683 0.25465 0.0
O560 O 0.68956 0.77361 0.25268 0.0
O561 O 0.69318 0.73707 0.25922 0.0
O562 O 0.72965 0.79293 0.22472 0.0
O563 O 0.75654 0.79427 0.25246 0.0
C564 C 0.75091 0.80401 0.23416 0.0
C565 C 0.75484 0.72768 0.26946 0.0
O566 O 0.77676 0.78834 0.29072 0.0
O567 O 0.73523 0.77482 0.2894 0.0
O568 O 0.8157 0.79394 0.24916 0.0
O569 O 0.81556 0.7553 0.24998 0.0
O570 O 0.77564 0.73877 0.27995 0.0
O571 O 0.75015 0.73776 0.25121 0.0
O572 O 0.72978 0.74299 0.21392 0.0
O573 O 0.77127 0.75715 0.21468 0.0
C574 C 0.75603 0.78576 0.30123 0.0
C575 C 0.75038 0.74563 0.2032 0.0
Dy576 Dy 0.75129 0.26196 0.73236 0.0
C577 C 0.77015 0.26638 0.83552 0.0
C578 C 0.74013 0.26653 0.68546 0.0
Dy579 Dy 0.7571 0.27097 0.78912 0.0
O580 O 0.76099 0.26361 0.69394 0.0
O581 O 0.72533 0.26654 0.70254 0.0
O582 O 0.77563 0.23374 0.73285 0.0
O583 O 0.77942 0.26414 0.75986 0.0
C584 C 0.78649 0.24432 0.75348 0.0
C585 C 0.72345 0.29062 0.76843 0.0
O586 O 0.78249 0.30477 0.78089 0.0
O587 O 0.76921 0.30258 0.74046 0.0
O588 O 0.74984 0.27187 0.82843 0.0
O589 O 0.78325 0.26368 0.81733 0.0
O590 O 0.73479 0.30067 0.78901 0.0
O591 O 0.72907 0.26998 0.7617 0.0
O592 O 0.7266 0.22773 0.73983 0.0
O593 O 0.73745 0.23071 0.78102 0.0
C594 C 0.78213 0.31451 0.76021 0.0
C595 C 0.72582 0.21841 0.7607 0.0
Dy596 Dy 0.77804 0.80147 0.76505 0.0
C597 C 0.76088 0.69478 0.75598 0.0
C598 C 0.77994 0.85097 0.76325 0.0
Dy599 Dy 0.76308 0.74413 0.7527 0.0
O600 O 0.78308 0.84097 0.78287 0.0
O601 O 0.77617 0.83391 0.74477 0.0
O602 O 0.79947 0.79631 0.79848 0.0
O603 O 0.76822 0.77031 0.78523 0.0
C604 C 0.78576 0.77486 0.8007 0.0
C605 C 0.75524 0.77061 0.717 0.0
O606 O 0.7286 0.75114 0.76659 0.0
O607 O 0.73768 0.79445 0.76829 0.0
O608 O 0.76161 0.7047 0.73588 0.0
O609 O 0.76098 0.71178 0.774 0.0
O610 O 0.74159 0.74913 0.71934 0.0
O611 O 0.77287 0.77526 0.7324 0.0
O612 O 0.81211 0.79462 0.75017 0.0
O613 O 0.80353 0.75148 0.75023 0.0
C614 C 0.72241 0.77323 0.77023 0.0
C615 C 0.81852 0.77261 0.74735 0.0
Dy616 Dy 0.47056 0.5101 0.49443 0.0
C617 C 0.5737 0.53288 0.50017 0.0
C618 C 0.42242 0.50574 0.499 0.0
Dy619 Dy 0.52547 0.52996 0.50295 0.0
O620 O 0.43262 0.50565 0.4786 0.0
O621 O 0.4385 0.50752 0.51664 0.0
O622 O 0.47663 0.48613 0.46076 0.0
O623 O 0.49994 0.52059 0.47187 0.0
C624 C 0.49654 0.50113 0.45699 0.0
C625 C 0.49961 0.539 0.5404 0.0
O626 O 0.5159 0.56267 0.48783 0.0
O627 O 0.47493 0.55166 0.49331 0.0
O628 O 0.56341 0.53984 0.5194 0.0
O629 O 0.55761 0.52528 0.48234 0.0
O630 O 0.51939 0.55406 0.53648 0.0
O631 O 0.49619 0.51953 0.52552 0.0
O632 O 0.47974 0.47656 0.50829 0.0
O633 O 0.52124 0.48898 0.50686 0.0
C634 C 0.49406 0.56796 0.48826 0.0
C635 C 0.50186 0.47215 0.51026 0.0
Dy636 Dy 0.03748 0.52524 0.01241 0.0
C637 C 0.93607 0.52977 0.00527 0.0
C638 C 0.08213 0.51456 0.01886 0.0
Dy639 Dy 0.98124 0.52085 0.01255 0.0
O640 O 0.07212 0.51744 -0.00171 0.0
O641 O 0.06807 0.5184 0.03604 0.0
O642 O 0.03883 0.55192 0.98426 0.0
O643 O 0.00821 0.52412 0.98639 0.0
C644 C 0.01654 0.54291 0.97631 0.0
C645 C 0.00187 0.50139 0.04726 0.0
O646 O 0.98189 0.48527 0.98951 0.0
O647 O 0.02207 0.48461 -0.00025 0.0
O648 O 0.94527 0.52556 0.02576 0.0
O649 O 0.95135 0.52858 0.98875 0.0
O650 O 0.97982 0.4923 0.03864 0.0
O651 O 0.01033 0.52108 0.03853 0.0
O652 O 0.03741 0.56159 0.03411 0.0
O653 O -0.00347 0.56134 0.02614 0.0
C654 C 0.00048 0.4738 0.98935 0.0
C655 C 0.01853 0.5726 0.0352 0.0
C656 C 0.98296 0.17109 0.91355 0.0
C657 C 0.98808 0.19664 0.92189 0.0
C658 C 0.98557 0.15334 0.92909 0.0
C659 C 0.9934 0.16136 0.95359 0.0
C660 C -0.00231 0.18704 0.96236 0.0
C661 C -0.00497 0.20443 0.94637 0.0
C662 C 0.98072 0.12605 0.9191 0.0
C663 C 0.00584 0.1962 0.98842 0.0
C664 C 0.98258 0.10964 0.99349 0.0
C665 C 0.00469 0.1017 0.99319 0.0
C666 C 0.97903 0.13006 0.98185 0.0
C667 C -0.00197 0.14275 0.96956 0.0
C668 C 0.02086 0.13587 0.97055 0.0
C669 C 0.02395 0.11544 0.98244 0.0
C670 C 0.95453 0.13705 0.98145 0.0
C671 C 0.04158 0.14904 0.9577 0.0
H672 H 0.97755 0.16495 0.89467 0.0
H673 H -0.00104 0.22416 0.95294 0.0
H674 H -0.00246 0.11865 0.92066 0.0
H675 H 0.96732 0.11516 0.9297 0.0
H676 H 0.97389 0.12286 0.89986 0.0
H677 H 0.00651 0.21653 0.99281 0.0
H678 H 0.99358 0.18602 0.00053 0.0
H679 H 0.02407 0.19242 0.99234 0.0
H680 H 0.96769 0.09931 0.00205 0.0
H681 H 0.0411 0.10947 0.98217 0.0
H682 H 0.94557 0.13178 0.96306 0.0
H683 H 0.95626 0.15751 0.98583 0.0
H684 H 0.94272 0.12753 0.99437 0.0
H685 H 0.03744 0.14494 0.93791 0.0
H686 H 0.05873 0.1431 0.9622 0.0
H687 H 0.04415 0.16955 0.96239 0.0
C688 C 0.10337 0.81481 0.20758 0.0
C689 C 0.10448 0.8209 0.18389 0.0
C690 C 0.12402 0.81209 0.22074 0.0
C691 C 0.14644 0.81625 0.21018 0.0
C692 C 0.14808 0.82467 0.18716 0.0
C693 C 0.12693 0.82657 0.17406 0.0
C694 C 0.12145 0.80278 0.24512 0.0
C695 C 0.17201 0.83064 0.1761 0.0
C696 C 0.19941 0.81419 0.25313 0.0
C697 C 0.20164 0.78929 0.24777 0.0
C698 C 0.1824 0.82387 0.24005 0.0
C699 C 0.16707 0.80799 0.2217 0.0
C700 C 0.16977 0.78299 0.21591 0.0
C701 C 0.18707 0.77397 0.22903 0.0
C702 C 0.18039 0.85076 0.24634 0.0
C703 C 0.15378 0.76545 0.19644 0.0
H704 H 0.0861 0.81067 0.21541 0.0
H705 H 0.12789 0.8318 0.15593 0.0
H706 H 0.12493 0.7835 0.24393 0.0
H707 H 0.13487 0.81457 0.2587 0.0
H708 H 0.10317 0.80256 0.25164 0.0
H709 H 0.17026 0.83729 0.15818 0.0
H710 H 0.18454 0.84526 0.18823 0.0
H711 H 0.18033 0.81391 0.17412 0.0
H712 H 0.21097 0.82608 0.26749 0.0
H713 H 0.18884 0.75467 0.22498 0.0
H714 H 0.16423 0.85163 0.25667 0.0
H715 H 0.17819 0.85974 0.22978 0.0
H716 H 0.19641 0.86169 0.25749 0.0
H717 H 0.13475 0.76289 0.20129 0.0
H718 H 0.15882 0.74683 0.19368 0.0
H719 H 0.15482 0.7735 0.17908 0.0
C720 C 0.50591 0.86631 0.402 0.0
C721 C 0.49741 0.84263 0.40899 0.0
C722 C 0.50609 0.8881 0.41769 0.0
C723 C 0.49756 0.88624 0.44099 0.0
C724 C 0.48879 0.86245 0.44815 0.0
C725 C 0.48883 0.84093 0.43208 0.0
C726 C 0.51563 0.91315 0.4094 0.0
C727 C 0.47953 0.85976 0.47284 0.0
C728 C 0.52106 0.94273 0.48695 0.0
C729 C 0.50227 0.95602 0.48604 0.0
C730 C 0.51937 0.91953 0.47307 0.0
C731 C 0.49837 0.9093 0.45792 0.0
C732 C 0.47888 0.92202 0.45776 0.0
C733 C 0.48106 0.94524 0.47183 0.0
C734 C 0.54053 0.90652 0.47383 0.0
C735 C 0.45615 0.91163 0.44192 0.0
H736 H 0.51255 0.86787 0.38422 0.0
H737 H 0.48219 0.82274 0.43767 0.0
H738 H 0.50163 0.92477 0.41046 0.0
H739 H 0.53133 0.92325 0.42146 0.0
H740 H 0.52127 0.9114 0.39059 0.0
H741 H 0.47283 0.83995 0.47546 0.0
H742 H 0.49408 0.86804 0.48695 0.0
H743 H 0.46468 0.87011 0.47561 0.0
H744 H 0.53747 0.95077 0.498 0.0
H745 H 0.46643 0.95531 0.471 0.0
H746 H 0.54853 0.906 0.45605 0.0
H747 H 0.5345 0.88692 0.4774 0.0
H748 H 0.55478 0.91601 0.48787 0.0
H749 H 0.46022 0.91165 0.42268 0.0
H750 H 0.44188 0.92266 0.44543 0.0
H751 H 0.44903 0.892 0.44477 0.0
C752 C 0.47916 0.29334 0.72636 0.0
C753 C 0.48191 0.29365 0.70156 0.0
C754 C 0.45653 0.29237 0.73577 0.0
C755 C 0.4361 0.29118 0.71994 0.0
C756 C 0.43876 0.29177 0.69491 0.0
C757 C 0.46173 0.29326 0.68603 0.0
C758 C 0.45446 0.29223 0.76261 0.0
C759 C 0.41727 0.29011 0.67746 0.0
C760 C 0.37596 0.26047 0.74045 0.0
C761 C 0.36558 0.28112 0.74725 0.0
C762 C 0.39885 0.26353 0.73137 0.0
C763 C 0.41178 0.28786 0.72944 0.0
C764 C 0.40156 0.30885 0.73676 0.0
C765 C 0.37841 0.3052 0.74543 0.0
C766 C 0.40903 0.24068 0.72347 0.0
C767 C 0.41501 0.33508 0.73532 0.0
H768 H 0.49476 0.29398 0.7385 0.0
H769 H 0.46379 0.29348 0.66686 0.0
H770 H 0.44507 0.30717 0.7698 0.0
H771 H 0.44351 0.27419 0.76624 0.0
H772 H 0.47231 0.29499 0.77262 0.0
H773 H 0.4225 0.29163 0.65867 0.0
H774 H 0.40467 0.27203 0.67776 0.0
H775 H 0.40732 0.30511 0.68296 0.0
H776 H 0.36593 0.24182 0.74168 0.0
H777 H 0.37031 0.32116 0.75063 0.0
H778 H 0.4262 0.24133 0.73404 0.0
H779 H 0.4131 0.24033 0.70421 0.0
H780 H 0.39646 0.22306 0.72577 0.0
H781 H 0.43253 0.33852 0.74601 0.0
H782 H 0.40467 0.34938 0.74212 0.0
H783 H 0.41898 0.33749 0.71637 0.0
C784 C 0.00192 0.82749 0.5389 0.0
C785 C -0.00386 0.8294 0.56311 0.0
C786 C 0.00428 0.84823 0.52595 0.0
C787 C 0.00043 0.87127 0.53742 0.0
C788 C 0.9937 0.87302 0.56158 0.0
C789 C 0.99183 0.85213 0.57419 0.0
C790 C 0.01176 0.84573 0.50034 0.0
C791 C 0.98908 0.89718 0.57435 0.0
C792 C 0.03007 0.93402 0.52012 0.0
C793 C 0.01076 0.94128 0.50822 0.0
C794 C 0.02738 0.9105 0.52828 0.0
C795 C 0.00469 0.89405 0.52485 0.0
C796 C 0.98553 0.90069 0.51156 0.0
C797 C 0.98887 0.92421 0.50321 0.0
C798 C 0.04842 0.90396 0.54194 0.0
C799 C 0.961 0.8838 0.50773 0.0
H800 H 0.00537 0.80998 0.53027 0.0
H801 H 0.98722 0.85367 0.59284 0.0
H802 H -0.00095 0.85243 0.4882 0.0
H803 H 0.02981 0.85758 0.49939 0.0
H804 H 0.01254 0.82617 0.4935 0.0
H805 H 0.98241 0.89498 0.59255 0.0
H806 H 0.00596 0.9115 0.57637 0.0
H807 H 0.97564 0.90434 0.56351 0.0
H808 H 0.04707 0.94715 0.52391 0.0
H809 H 0.9738 0.92984 0.49423 0.0
H810 H 0.05075 0.88487 0.53524 0.0
H811 H 0.04487 0.90419 0.56133 0.0
H812 H 0.06552 0.91729 0.54038 0.0
H813 H 0.96259 0.86442 0.50126 0.0
H814 H 0.94899 0.89022 0.49459 0.0
H815 H 0.95237 0.88335 0.52518 0.0
C816 C 0.44482 0.76862 0.83349 0.0
C817 C 0.45607 0.77217 0.85674 0.0
C818 C 0.42008 0.76797 0.82993 0.0
C819 C 0.40636 0.7716 0.85015 0.0
C820 C 0.41743 0.77426 0.87374 0.0
C821 C 0.4422 0.77424 0.87678 0.0
C822 C 0.40887 0.76441 0.80445 0.0
C823 C 0.4035 0.77855 0.89571 0.0
C824 C 0.3529 0.79903 0.83222 0.0
C825 C 0.33471 0.77764 0.82789 0.0
C826 C 0.37591 0.79771 0.84161 0.0
C827 C 0.38092 0.77429 0.84614 0.0
C828 C 0.3621 0.75297 0.84338 0.0
C829 C 0.33909 0.75497 0.8345 0.0
C830 C 0.39533 0.82102 0.84493 0.0
C831 C 0.3667 0.72762 0.84774 0.0
H832 H 0.45552 0.76687 0.81799 0.0
H833 H 0.45095 0.77724 0.89478 0.0
H834 H 0.39253 0.74938 0.80246 0.0
H835 H 0.4032 0.78182 0.8004 0.0
H836 H 0.42152 0.7596 0.79088 0.0
H837 H 0.41391 0.77728 0.91267 0.0
H838 H 0.39899 0.79738 0.89669 0.0
H839 H 0.38626 0.76482 0.89446 0.0
H840 H 0.34945 0.8166 0.82725 0.0
H841 H 0.32503 0.73835 0.83109 0.0
H842 H 0.40806 0.82006 0.83048 0.0
H843 H 0.40578 0.82258 0.86246 0.0
H844 H 0.38778 0.83816 0.84418 0.0
H845 H 0.37692 0.72053 0.83289 0.0
H846 H 0.34968 0.71388 0.84845 0.0
H847 H 0.3778 0.72883 0.86482 0.0
C848 C 0.47265 0.18262 0.06727 0.0
C849 C 0.49037 0.18643 0.08635 0.0
C850 C 0.46778 0.16027 0.05149 0.0
C851 C 0.48114 0.14147 0.05473 0.0
C852 C 0.4987 0.14503 0.07429 0.0
C853 C 0.50295 0.16737 0.0899 0.0
C854 C 0.44888 0.15705 0.03092 0.0
C855 C 0.5142 0.12615 0.07832 0.0
C856 C 0.46129 0.07462 0.02522 0.0
C857 C 0.47718 0.07406 0.00677 0.0
C858 C 0.46148 0.09678 0.04043 0.0
C859 C 0.47797 0.11878 0.03691 0.0
C860 C 0.4932 0.11847 0.01751 0.0
C861 C 0.49252 0.09612 0.00258 0.0
C862 C 0.44427 0.09637 0.06034 0.0
C863 C 0.51112 0.14144 0.01325 0.0
H864 H 0.46276 0.19721 0.06449 0.0
H865 H 0.51683 0.17018 0.10446 0.0
H866 H 0.45733 0.15482 0.01347 0.0
H867 H 0.43519 0.13986 0.03174 0.0
H868 H 0.43965 0.17317 0.03121 0.0
H869 H 0.50653 0.10718 0.06918 0.0
H870 H 0.53211 0.13241 0.07134 0.0
H871 H 0.51714 0.12501 0.09792 0.0
H872 H 0.44918 0.05756 0.02817 0.0
H873 H 0.50484 0.09569 0.98829 0.0
H874 H 0.42812 0.10314 0.05408 0.0
H875 H 0.4524 0.10875 0.07683 0.0
H876 H 0.43822 0.0772 0.06515 0.0
H877 H 0.50217 0.15769 0.01308 0.0
H878 H 0.51985 0.1388 0.99599 0.0
H879 H 0.52537 0.14601 0.02821 0.0
C880 C 0.12256 0.26663 0.35987 0.0
C881 C 0.09893 0.26548 0.3507 0.0
C882 C 0.14172 0.26875 0.34466 0.0
C883 C 0.13713 0.26993 0.31974 0.0
C884 C 0.11336 0.26916 0.31044 0.0
C885 C 0.09451 0.26681 0.32602 0.0
C886 C 0.16684 0.26931 0.35519 0.0
C887 C 0.10782 0.27052 0.28402 0.0
C888 C 0.19247 0.29328 0.28653 0.0
C889 C 0.19882 0.27073 0.27755 0.0
C890 C 0.17169 0.29341 0.29934 0.0
C891 C 0.15707 0.27045 0.3033 0.0
C892 C 0.16257 0.24771 0.29296 0.0
C893 C 0.18328 0.24813 0.28013 0.0
C894 C 0.16615 0.31805 0.30977 0.0
C895 C 0.14736 0.22283 0.29665 0.0
H896 H 0.12607 0.26566 0.37892 0.0
H897 H 0.07629 0.26612 0.31884 0.0
H898 H 0.17367 0.253 0.34675 0.0
H899 H 0.17925 0.28635 0.35119 0.0
H900 H 0.16748 0.26895 0.37504 0.0
H901 H 0.08859 0.27109 0.2799 0.0
H902 H 0.1192 0.28737 0.27829 0.0
H903 H 0.11215 0.25407 0.27304 0.0
H904 H 0.20427 0.31084 0.28455 0.0
H905 H 0.18783 0.23058 0.27304 0.0
H906 H 0.16973 0.3205 0.32964 0.0
H907 H 0.14685 0.31842 0.30605 0.0
H908 H 0.17728 0.33409 0.30239 0.0
H909 H 0.14886 0.22008 0.31598 0.0
H910 H 0.15298 0.20697 0.28582 0.0
H911 H 0.12811 0.22239 0.29174 0.0
C912 C 0.93989 0.04749 0.17564 0.0
C913 C 0.91589 0.04987 0.17155 0.0
C914 C 0.95583 0.04917 0.1571 0.0
C915 C 0.94765 0.0537 0.13404 0.0
C916 C 0.92381 0.05741 0.13018 0.0
C917 C 0.90814 0.05525 0.14894 0.0
C918 C 0.981 0.04473 0.16186 0.0
C919 C 0.91449 0.06255 0.10594 0.0
C920 C 0.99471 0.07068 0.08889 0.0
C921 C 0.99314 0.04765 0.07484 0.0
C922 C 0.9797 0.07314 0.10804 0.0
C923 C 0.9632 0.05194 0.11342 0.0
C924 C 0.96172 0.02864 0.09928 0.0
C925 C 0.97657 0.02684 0.08007 0.0
C926 C 0.98134 0.09838 0.12241 0.0
C927 C 0.94459 0.0055 0.10455 0.0
H928 H 0.94601 0.04334 0.1931 0.0
H929 H 0.88965 0.0573 0.14574 0.0
H930 H 0.98305 0.02714 0.15109 0.0
H931 H 0.9945 0.06003 0.15612 0.0
H932 H 0.98514 0.04331 0.1812 0.0
H933 H 0.89721 0.0692 0.10706 0.0
H934 H 0.92786 0.07672 0.09844 0.0
H935 H 0.91147 0.0452 0.0931 0.0
H936 H 0.00742 0.08679 0.08469 0.0
H937 H 0.97539 0.00897 0.06924 0.0
H938 H 0.98641 0.09749 0.14164 0.0
H939 H 0.96349 0.10384 0.12168 0.0
H940 H 0.99475 0.1131 0.11563 0.0
H941 H 0.94826 0.00185 0.12335 0.0
H942 H 0.94606 0.98872 0.09212 0.0
H943 H 0.92576 0.00834 0.10294 0.0
C944 C 0.30109 0.72015 0.45852 0.0
C945 C 0.29718 0.69399 0.45557 0.0
C946 C 0.3009 0.73337 0.43845 0.0
C947 C 0.2963 0.72002 0.41507 0.0
C948 C 0.2944 0.69381 0.41193 0.0
C949 C 0.29506 0.68111 0.43226 0.0
C950 C 0.30391 0.76142 0.4424 0.0
C951 C 0.28961 0.6789 0.38724 0.0
C952 C 0.25939 0.74324 0.36772 0.0
C953 C 0.27661 0.75004 0.35126 0.0
C954 C 0.26583 0.73432 0.3891 0.0
C955 C 0.29017 0.73272 0.39425 0.0
C956 C 0.3079 0.74115 0.37838 0.0
C957 C 0.30083 0.74941 0.35684 0.0
C958 C 0.24635 0.72532 0.4055 0.0
C959 C 0.3341 0.74041 0.38353 0.0
H960 H 0.30306 0.73024 0.47651 0.0
H961 H 0.29222 0.66091 0.42985 0.0
H962 H 0.31583 0.77014 0.42916 0.0
H963 H 0.28612 0.76666 0.43967 0.0
H964 H 0.31153 0.76924 0.46091 0.0
H965 H 0.2907 0.659 0.38773 0.0
H966 H 0.27133 0.67973 0.37984 0.0
H967 H 0.30268 0.68695 0.37464 0.0
H968 H 0.24068 0.74374 0.36334 0.0
H969 H 0.3142 0.75487 0.34411 0.0
H970 H 0.25113 0.73468 0.42416 0.0
H971 H 0.24471 0.70496 0.4061 0.0
H972 H 0.22853 0.72887 0.39942 0.0
H973 H 0.33967 0.7462 0.40291 0.0
H974 H 0.34602 0.75266 0.37262 0.0
H975 H 0.33686 0.72103 0.37906 0.0
C976 C 0.56473 0.97632 0.67064 0.0
C977 C 0.58757 0.97017 0.66953 0.0
C978 C 0.55197 0.97993 0.64986 0.0
C979 C 0.56181 0.97618 0.62726 0.0
C980 C 0.58388 0.96782 0.62573 0.0
C981 C 0.59686 0.96542 0.64705 0.0
C982 C 0.52876 0.98945 0.65237 0.0
C983 C 0.5939 0.96199 0.60166 0.0
C984 C 0.51702 0.97845 0.57583 0.0
C985 C 0.52367 0.00344 0.57185 0.0
C986 C 0.53047 0.96855 0.59262 0.0
C987 C 0.55045 0.98433 0.60603 0.0
C988 C 0.55764 0.00937 0.60135 0.0
C989 C 0.54419 0.01857 0.58419 0.0
C990 C 0.52277 0.94156 0.5966 0.0
C991 C 0.5788 0.02684 0.61533 0.0
H992 H 0.55726 0.97962 0.68793 0.0
H993 H 0.61428 0.96007 0.64616 0.0
H994 H 0.53107 0.00842 0.64666 0.0
H995 H 0.51402 0.97725 0.64049 0.0
H996 H 0.52312 0.99043 0.67119 0.0
H997 H 0.61115 0.95541 0.60357 0.0
H998 H 0.58071 0.94733 0.59025 0.0
H999 H 0.59676 0.97873 0.59196 0.0
H1000 H 0.50135 0.96669 0.56587 0.0
H1001 H 0.54931 0.0379 0.58094 0.0
H1002 H 0.51308 0.94042 0.61338 0.0
H1003 H 0.53865 0.93274 0.59879 0.0
H1004 H 0.51055 0.93068 0.58143 0.0
H1005 H 0.57519 0.02938 0.63472 0.0
H1006 H 0.5825 0.04547 0.60879 0.0
H1007 H 0.59525 0.01875 0.61392 0.0
C1008 C 0.26318 0.342 0.94812 0.0
C1009 C 0.25899 0.36639 0.94855 0.0
C1010 C 0.26565 0.32768 0.92622 0.0
C1011 C 0.26377 0.33795 0.90422 0.0
C1012 C 0.25953 0.36252 0.90456 0.0
C1013 C 0.25723 0.37641 0.92665 0.0
C1014 C 0.2702 0.30156 0.92659 0.0
C1015 C 0.25724 0.37413 0.88151 0.0
C1016 C 0.28865 0.31188 0.84673 0.0
C1017 C 0.2676 0.29821 0.83386 0.0
C1018 C 0.28783 0.32422 0.87004 0.0
C1019 C 0.26545 0.32289 0.8807 0.0
C1020 C 0.2443 0.30845 0.86812 0.0
C1021 C 0.24563 0.29629 0.84494 0.0
C1022 C 0.3108 0.33935 0.88292 0.0
C1023 C 0.22006 0.30653 0.87879 0.0
H1024 H 0.26468 0.33409 0.96491 0.0
H1025 H 0.25399 0.39521 0.9267 0.0
H1026 H 0.25533 0.28793 0.91619 0.0
H1027 H 0.28705 0.29977 0.91775 0.0
H1028 H 0.27174 0.2965 0.94521 0.0
H1029 H 0.25428 0.39357 0.88488 0.0
H1030 H 0.27377 0.37424 0.87155 0.0
H1031 H 0.24194 0.36285 0.86963 0.0
H1032 H 0.30571 0.31345 0.83841 0.0
H1033 H 0.22924 0.28567 0.8353 0.0
H1034 H 0.31304 0.33394 0.9013 0.0
H1035 H 0.30984 0.35943 0.88501 0.0
H1036 H 0.32695 0.33694 0.87305 0.0
H1037 H 0.2209 0.30032 0.89697 0.0
H1038 H 0.20558 0.29333 0.86734 0.0
H1039 H 0.21509 0.32518 0.88098 0.0
C1040 C 0.8984 0.0266 0.31693 0.0
C1041 C 0.90192 0.0077 0.29926 0.0
C1042 C 0.90589 0.02652 0.34123 0.0
C1043 C 0.91677 0.0069 0.3479 0.0
C1044 C 0.91863 0.98684 0.33037 0.0
C1045 C 0.91137 0.9876 0.30624 0.0
C1046 C 0.90372 0.0483 0.35938 0.0
C1047 C 0.92977 0.96536 0.33677 0.0
C1048 C 0.96713 0.02032 0.39695 0.0
C1049 C 0.95582 0.00966 0.41614 0.0
C1050 C 0.95431 0.0203 0.375 0.0
C1051 C 0.92956 0.00906 0.37204 0.0
C1052 C 0.91785 -0.00135 0.39153 0.0
C1053 C 0.93116 -0.00082 0.4135 0.0
C1054 C 0.96747 0.03181 0.35478 0.0
C1055 C 0.89154 0.98636 0.38894 0.0
H1056 H 0.891 0.04212 0.31162 0.0
H1057 H 0.91372 0.97269 0.29269 0.0
H1058 H 0.89671 0.04172 0.37625 0.0
H1059 H 0.92182 0.06018 0.36412 0.0
H1060 H 0.89172 0.05998 0.35226 0.0
H1061 H 0.92686 0.94972 0.32189 0.0
H1062 H 0.94946 0.97193 0.34073 0.0
H1063 H 0.92221 0.95823 0.3532 0.0
H1064 H 0.98617 0.02865 0.39903 0.0
H1065 H 0.92241 0.991 0.42841 0.0
H1066 H 0.95792 0.04572 0.34791 0.0
H1067 H 0.96783 0.01715 0.33955 0.0
H1068 H 0.98633 0.04118 0.36054 0.0
H1069 H 0.8806 -0.00095 0.38194 0.0
H1070 H 0.88467 0.98096 0.40631 0.0
H1071 H 0.88886 0.96936 0.37565 0.0
C1072 C 0.26161 0.68267 0.61592 0.0
C1073 C 0.27314 0.68784 0.59484 0.0
C1074 C 0.26603 0.69982 0.63685 0.0
C1075 C 0.2824 0.72275 0.63674 0.0
C1076 C 0.29422 0.7281 0.61562 0.0
C1077 C 0.28945 0.71057 0.59488 0.0
C1078 C 0.25308 0.69343 0.65909 0.0
C1079 C 0.31181 0.75234 0.61494 0.0
C1080 C 0.27193 0.77091 0.68664 0.0
C1081 C 0.28779 0.76716 0.70506 0.0
C1082 C 0.27128 0.75801 0.66347 0.0
C1083 C 0.28686 0.74096 0.6589 0.0
C1084 C 0.30436 0.73883 0.67702 0.0
C1085 C 0.30456 0.75198 0.70002 0.0
C1086 C 0.25232 0.76082 0.64472 0.0
C1087 C 0.32118 0.72076 0.67296 0.0
H1088 H 0.24898 0.6652 0.6161 0.0
H1089 H 0.29846 0.71475 0.57868 0.0
H1090 H 0.26635 0.69438 0.67449 0.0
H1091 H 0.24168 0.70726 0.66413 0.0
H1092 H 0.24147 0.6745 0.65644 0.0
H1093 H 0.31966 0.75359 0.59714 0.0
H1094 H 0.30266 0.7683 0.61899 0.0
H1095 H 0.32667 0.75431 0.62903 0.0
H1096 H 0.25893 0.78263 0.69079 0.0
H1097 H 0.31644 0.74876 0.71456 0.0
H1098 H 0.2374 0.74428 0.64313 0.0
H1099 H 0.25984 0.76182 0.62678 0.0
H1100 H 0.24469 0.77774 0.64957 0.0
H1101 H 0.31102 0.70147 0.67343 0.0
H1102 H 0.33629 0.72455 0.68705 0.0
H1103 H 0.32871 0.7216 0.65501 0.0
C1104 C 0.54225 0.95792 0.79997 0.0
C1105 C 0.56691 0.96778 0.79981 0.0
C1106 C 0.53131 0.9553 0.82173 0.0
C1107 C 0.54534 0.96355 0.84367 0.0
C1108 C 0.57066 0.97118 0.84354 0.0
C1109 C 0.58126 0.97297 0.82144 0.0
C1110 C 0.50442 0.94605 0.82122 0.0
C1111 C 0.58619 0.98011 0.86663 0.0
C1112 C 0.51624 -0.00066 0.89158 0.0
C1113 C 0.51279 0.98285 0.90899 0.0
C1114 C 0.52658 0.993 0.87011 0.0
C1115 C 0.53316 0.96938 0.86584 0.0
C1116 C 0.52864 0.95215 0.88289 0.0
C1117 C 0.5187 0.95926 0.90448 0.0
C1118 C 0.5312 0.01199 0.85239 0.0
C1119 C 0.53502 0.92665 0.87879 0.0
H1120 H 0.53128 0.95342 0.78309 0.0
H1121 H 0.60038 0.98046 0.8212 0.0
H1122 H 0.49978 0.93367 0.83541 0.0
H1123 H 0.49542 0.9622 0.82486 0.0
H1124 H 0.49709 0.93575 0.80341 0.0
H1125 H 0.60567 0.98175 0.8637 0.0
H1126 H 0.58309 -0.00127 0.87404 0.0
H1127 H 0.58136 0.96727 0.88038 0.0
H1128 H 0.51171 0.01762 0.89512 0.0
H1129 H 0.51604 0.94662 0.91804 0.0
H1130 H 0.52159 0.00419 0.83469 0.0
H1131 H 0.55073 0.01651 0.84949 0.0
H1132 H 0.52525 0.0296 0.85866 0.0
H1133 H 0.5259 0.91388 0.89109 0.0
H1134 H 0.55474 0.92844 0.88212 0.0
H1135 H 0.53013 0.91807 0.85988 0.0
C1136 C 0.25549 0.32203 0.08934 0.0
C1137 C 0.25058 0.34617 0.0922 0.0
C1138 C 0.25537 0.30814 0.10901 0.0
C1139 C 0.24953 0.3184 0.13188 0.0
C1140 C 0.24367 0.3424 0.13458 0.0
C1141 C 0.2446 0.35614 0.1148 0.0
C1142 C 0.26226 0.28285 0.10553 0.0
C1143 C 0.23673 0.35371 0.15847 0.0
C1144 C 0.23268 0.27492 0.17968 0.0
C1145 C 0.25405 0.27971 0.19445 0.0
C1146 C 0.23083 0.28748 0.15928 0.0
C1147 C 0.25101 0.30478 0.15333 0.0
C1148 C 0.27267 0.30946 0.16814 0.0
C1149 C 0.27384 0.29707 0.18864 0.0
C1150 C 0.20725 0.28246 0.14426 0.0
C1151 C 0.2947 0.32751 0.16231 0.0
H1152 H 0.26018 0.31431 0.07189 0.0
H1153 H 0.2405 0.37469 0.11701 0.0
H1154 H 0.27885 0.28318 0.11696 0.0
H1155 H 0.24785 0.26849 0.11136 0.0
H1156 H 0.26554 0.27716 0.08646 0.0
H1157 H 0.23144 0.37199 0.15725 0.0
H1158 H 0.22148 0.34087 0.16504 0.0
H1159 H 0.25204 0.35639 0.17216 0.0
H1160 H 0.21735 0.26158 0.18424 0.0
H1161 H 0.29045 0.30071 0.19996 0.0
H1162 H 0.20993 0.27528 0.12544 0.0
H1163 H 0.2006 0.3001 0.14361 0.0
H1164 H 0.19319 0.26871 0.15148 0.0
H1165 H 0.29959 0.32216 0.14372 0.0
H1166 H 0.31048 0.32813 0.17504 0.0
H1167 H 0.29077 0.34656 0.16301 0.0
C1168 C 0.1925 0.96381 0.00648 0.0
C1169 C 0.18069 0.93885 0.00606 0.0
C1170 C 0.17968 0.98326 0.00867 0.0
C1171 C 0.15448 0.97756 0.01042 0.0
C1172 C 0.14251 0.95246 0.01049 0.0
C1173 C 0.15579 0.93337 0.00833 0.0
C1174 C 0.19299 0.00981 0.0086 0.0
C1175 C 0.11559 0.94572 0.01234 0.0
C1176 C 0.11722 0.02369 0.03464 0.0
C1177 C 0.10515 0.02732 0.01334 0.0
C1178 C 0.1348 0.00887 0.03392 0.0
C1179 C 0.14029 -0.00239 0.01137 0.0
C1180 C 0.12984 0.00331 0.98975 0.0
C1181 C 0.11234 0.01817 0.99101 0.0
C1182 C 0.14585 0.0035 0.05734 0.0
C1183 C 0.13541 0.99193 0.96531 0.0
H1184 H 0.21179 0.96818 0.00483 0.0
H1185 H 0.14661 0.91413 0.00805 0.0
H1186 H 0.18669 0.0175 0.99251 0.0
H1187 H 0.1891 0.02171 0.02473 0.0
H1188 H 0.2128 0.0112 0.00839 0.0
H1189 H 0.10923 0.92551 0.01351 0.0
H1190 H 0.11027 0.95651 0.02847 0.0
H1191 H 0.1062 0.95074 0.99631 0.0
H1192 H 0.1117 0.03084 0.05193 0.0
H1193 H 0.10307 0.02108 0.9745 0.0
H1194 H 0.16552 0.0046 0.05639 0.0
H1195 H 0.13778 0.98425 0.06071 0.0
H1196 H 0.1427 0.01665 0.0729 0.0
H1197 H 0.15493 0.99194 0.96452 0.0
H1198 H 0.12975 0.00201 0.9506 0.0
H1199 H 0.12564 0.97223 0.96197 0.0
C1200 C 0.66037 0.61856 0.97667 0.0
C1201 C 0.67739 0.60853 0.96335 0.0
C1202 C 0.63701 0.6047 0.97777 0.0
C1203 C 0.6305 0.58047 0.96493 0.0
C1204 C 0.64737 0.57064 0.95076 0.0
C1205 C 0.67072 0.58471 0.95034 0.0
C1206 C 0.6197 0.61561 0.9935 0.0
C1207 C 0.64087 0.54512 0.93636 0.0
C1208 C 0.57822 0.5347 0.985 0.0
C1209 C 0.55941 0.53718 0.96903 0.0
C1210 C 0.60151 0.5488 0.98399 0.0
C1211 C 0.60601 0.56537 0.96628 0.0
C1212 C 0.58708 0.56765 0.94989 0.0
C1213 C 0.56399 0.55354 0.95149 0.0
C1214 C 0.62119 0.5462 0.00204 0.0
C1215 C 0.59111 0.58532 0.93094 0.0
H1216 H 0.66556 0.63683 0.98703 0.0
H1217 H 0.68387 0.57697 0.93999 0.0
H1218 H 0.60144 0.61199 0.98431 0.0
H1219 H 0.61824 0.60651 0.01027 0.0
H1220 H 0.62575 0.63605 -0.00145 0.0
H1221 H 0.65583 0.54056 0.92561 0.0
H1222 H 0.63611 0.53069 0.94866 0.0
H1223 H 0.62482 0.54407 0.92392 0.0
H1224 H 0.57471 0.52181 -0.0017 0.0
H1225 H 0.54941 0.55561 0.93917 0.0
H1226 H 0.62882 0.56463 0.01242 0.0
H1227 H 0.63606 0.53977 0.99249 0.0
H1228 H 0.6146 0.53282 0.01492 0.0
H1229 H 0.59684 0.60478 0.93978 0.0
H1230 H 0.57464 0.58423 0.91903 0.0
H1231 H 0.60578 0.5811 0.91962 0.0
C1232 C 0.70548 0.45272 0.27766 0.0
C1233 C 0.68063 0.44682 0.28045 0.0
C1234 C 0.71959 0.43429 0.27717 0.0
C1235 C 0.70862 0.40946 0.2799 0.0
C1236 C 0.68375 0.40365 0.28384 0.0
C1237 C 0.67001 0.42236 0.28385 0.0
C1238 C 0.74597 0.44116 0.27265 0.0
C1239 C 0.67147 0.37748 0.28725 0.0
C1240 C 0.73327 0.35475 0.25084 0.0
C1241 C 0.74474 0.34725 0.27067 0.0
C1242 C 0.72231 0.3756 0.25348 0.0
C1243 C 0.72253 0.38909 0.27661 0.0
C1244 C 0.73482 0.38213 0.29659 0.0
C1245 C 0.74595 0.36134 0.29335 0.0
C1246 C 0.7097 0.38257 0.23165 0.0
C1247 C 0.7353 0.39598 0.32153 0.0
H1248 H 0.7138 0.4716 0.27498 0.0
H1249 H 0.65086 0.41774 0.28623 0.0
H1250 H 0.75709 0.43446 0.28636 0.0
H1251 H 0.74918 0.43188 0.25476 0.0
H1252 H 0.7522 0.46162 0.27296 0.0
H1253 H 0.65254 0.37649 0.29213 0.0
H1254 H 0.67148 0.36484 0.27034 0.0
H1255 H 0.68146 0.37038 0.3016 0.0
H1256 H 0.7324 0.34397 0.23325 0.0
H1257 H 0.75457 0.35544 0.30878 0.0
H1258 H 0.71603 0.40263 0.22988 0.0
H1259 H 0.69003 0.37963 0.23383 0.0
H1260 H 0.71275 0.37136 0.21468 0.0
H1261 H 0.74248 0.41618 0.32129 0.0
H1262 H 0.74645 0.3889 0.33498 0.0
H1263 H 0.71669 0.39413 0.32751 0.0
C1264 C 0.81995 0.45205 0.48521 0.0
C1265 C 0.80715 0.43229 0.49617 0.0
C1266 C 0.84494 0.45943 0.48918 0.0
C1267 C 0.85754 0.44665 0.50439 0.0
C1268 C 0.84485 0.42669 0.51557 0.0
C1269 C 0.81971 0.41975 0.51137 0.0
C1270 C 0.85787 0.48089 0.47695 0.0
C1271 C 0.85782 0.41261 0.5318 0.0
C1272 C 0.92296 0.45444 0.49082 0.0
C1273 C 0.93351 0.47472 0.50783 0.0
C1274 C 0.89844 0.44385 0.49063 0.0
C1275 C 0.88413 0.45397 0.50771 0.0
C1276 C 0.89497 0.47342 0.52585 0.0
C1277 C 0.91963 0.48353 0.52575 0.0
C1278 C 0.88758 0.42292 0.47116 0.0
C1279 C 0.88024 0.4847 0.54434 0.0
H1280 H 0.81043 0.46196 0.47353 0.0
H1281 H 0.80994 0.40448 0.51995 0.0
H1282 H 0.86823 0.49566 0.49063 0.0
H1283 H 0.87093 0.47434 0.46479 0.0
H1284 H 0.84528 0.48928 0.46618 0.0
H1285 H 0.84525 0.3979 0.53956 0.0
H1286 H 0.8709 0.40374 0.5215 0.0
H1287 H 0.86825 0.4257 0.54678 0.0
H1288 H 0.93371 0.44724 0.47718 0.0
H1289 H 0.92773 0.49914 0.539 0.0
H1290 H 0.87626 0.43004 0.45792 0.0
H1291 H 0.87575 0.40772 0.47896 0.0
H1292 H 0.90158 0.41501 0.46137 0.0
H1293 H 0.86881 0.49581 0.53544 0.0
H1294 H 0.89177 0.49713 0.55912 0.0
H1295 H 0.86804 0.46988 0.55228 0.0
C1296 C 0.31423 0.0735 0.28694 0.0
C1297 C 0.33846 0.08481 0.29287 0.0
C1298 C 0.2967 0.08798 0.2841 0.0
C1299 C 0.30373 0.11426 0.28703 0.0
C1300 C 0.3277 0.12571 0.29525 0.0
C1301 C 0.34478 0.11079 0.29818 0.0
C1302 C 0.27118 0.07509 0.27606 0.0
C1303 C 0.33582 0.15377 0.29897 0.0
C1304 C 0.27793 0.15493 0.24726 0.0
C1305 C 0.26696 0.16903 0.26414 0.0
C1306 C 0.28842 0.13546 0.25408 0.0
C1307 C 0.28747 0.12992 0.27823 0.0
C1308 C 0.2741 0.14236 0.29458 0.0
C1309 C 0.26409 0.162 0.28737 0.0
C1310 C 0.30248 0.12252 0.23607 0.0
C1311 C 0.2718 0.13604 0.32009 0.0
H1312 H 0.30915 0.05336 0.28317 0.0
H1313 H 0.36342 0.1196 0.30307 0.0
H1314 H 0.25795 0.08549 0.28416 0.0
H1315 H 0.26861 0.07414 0.25617 0.0
H1316 H 0.26724 0.05572 0.28087 0.0
H1317 H 0.35451 0.15964 0.30725 0.0
H1318 H 0.33507 0.16119 0.28134 0.0
H1319 H 0.32364 0.16244 0.31071 0.0
H1320 H 0.28002 0.16034 0.22928 0.0
H1321 H 0.25528 0.17279 0.30034 0.0
H1322 H 0.29741 0.10199 0.23574 0.0
H1323 H 0.32201 0.1281 0.24151 0.0
H1324 H 0.29949 0.1273 0.21752 0.0
H1325 H 0.2642 0.11586 0.31987 0.0
H1326 H 0.26012 0.14695 0.33033 0.0
H1327 H 0.28984 0.13973 0.32981 0.0
C1328 C 0.33574 0.11272 0.49552 0.0
C1329 C 0.31361 0.09592 0.49338 0.0
C1330 C 0.35746 0.1041 0.49699 0.0
C1331 C 0.35685 0.07812 0.49576 0.0
C1332 C 0.33456 0.06108 0.49247 0.0
C1333 C 0.31318 0.07021 0.49156 0.0
C1334 C 0.38096 0.12279 0.50082 0.0
C1335 C 0.33324 0.03322 0.49058 0.0
C1336 C 0.4138 0.0537 0.48331 0.0
C1337 C 0.42145 0.04982 0.5065 0.0
C1338 C 0.39274 0.06293 0.47947 0.0
C1339 C 0.37936 0.06871 0.4994 0.0
C1340 C 0.38709 0.06484 0.52286 0.0
C1341 C 0.408 0.05521 0.5261 0.0
C1342 C 0.38477 0.0664 0.45416 0.0
C1343 C 0.37338 0.07105 0.54456 0.0
H1344 H 0.33606 0.1326 0.49698 0.0
H1345 H 0.29606 0.05716 0.48957 0.0
H1346 H 0.38979 0.12168 0.51867 0.0
H1347 H 0.39344 0.11838 0.48696 0.0
H1348 H 0.3784 0.14223 0.5001 0.0
H1349 H 0.31459 0.02249 0.4861 0.0
H1350 H 0.34496 0.02737 0.47655 0.0
H1351 H 0.33992 0.0282 0.50795 0.0
H1352 H 0.4243 0.04952 0.46816 0.0
H1353 H 0.41409 0.05238 0.54405 0.0
H1354 H 0.38365 0.08619 0.45322 0.0
H1355 H 0.36649 0.05504 0.44914 0.0
H1356 H 0.39724 0.06096 0.44065 0.0
H1357 H 0.37166 0.09092 0.54598 0.0
H1358 H 0.38228 0.06772 0.56166 0.0
H1359 H 0.35489 0.05958 0.54246 0.0
C1360 C 0.69045 0.59098 0.28841 0.0
C1361 C 0.66571 0.58951 0.29071 0.0
C1362 C 0.70604 0.61417 0.28894 0.0
C1363 C 0.6967 0.63631 0.29256 0.0
C1364 C 0.67218 0.63491 0.29733 0.0
C1365 C 0.65684 0.61147 0.2959 0.0
C1366 C 0.73195 0.6148 0.28327 0.0
C1367 C 0.66171 0.6581 0.30208 0.0
C1368 C 0.74155 0.6981 0.29934 0.0
C1369 C 0.73995 0.70471 0.27593 0.0
C1370 C 0.7271 0.67614 0.30535 0.0
C1371 C 0.71139 0.66026 0.28727 0.0
C1372 C 0.70986 0.66696 0.26359 0.0
C1373 C 0.72391 0.68929 0.25833 0.0
C1374 C 0.7285 0.67 0.33096 0.0
C1375 C 0.69364 0.65039 0.24366 0.0
H1376 H 0.69733 0.57401 0.28429 0.0
H1377 H 0.63774 0.61033 0.29796 0.0
H1378 H 0.73459 0.62018 0.26487 0.0
H1379 H 0.7443 0.62895 0.29601 0.0
H1380 H 0.73713 0.59639 0.284 0.0
H1381 H 0.64426 0.65418 0.31061 0.0
H1382 H 0.67433 0.67294 0.31391 0.0
H1383 H 0.65859 0.66543 0.28476 0.0
H1384 H 0.7538 0.71027 0.31299 0.0
H1385 H 0.72272 0.69444 0.2402 0.0
H1386 H 0.73469 0.6521 0.33146 0.0
H1387 H 0.71033 0.66755 0.33809 0.0
H1388 H 0.74096 0.68476 0.34306 0.0
H1389 H 0.698 0.63146 0.24164 0.0
H1390 H 0.69535 0.65788 0.22602 0.0
H1391 H 0.67457 0.64834 0.24826 0.0
C1392 C 0.85051 0.45549 0.7613 0.0
C1393 C 0.8744 0.4573 0.75482 0.0
C1394 C 0.83516 0.43224 0.76109 0.0
C1395 C 0.84386 0.41021 0.75427 0.0
C1396 C 0.86775 0.41184 0.74718 0.0
C1397 C 0.88276 0.43539 0.74753 0.0
C1398 C 0.80975 0.43125 0.76868 0.0
C1399 C 0.8776 0.38869 0.73974 0.0
C1400 C 0.81286 0.35149 0.77862 0.0
C1401 C 0.7976 0.33919 0.75873 0.0
C1402 C 0.82817 0.37449 0.77729 0.0
C1403 C 0.82822 0.3855 0.75557 0.0
C1404 C 0.81287 0.37323 0.73542 0.0
C1405 C 0.79773 0.35022 0.73725 0.0
C1406 C 0.84425 0.38707 0.79918 0.0
C1407 C 0.81241 0.38445 0.71198 0.0
H1408 H 0.8438 0.47228 0.76683 0.0
H1409 H 0.90115 0.4366 0.74244 0.0
H1410 H 0.79663 0.42023 0.75437 0.0
H1411 H 0.80726 0.42174 0.78516 0.0
H1412 H 0.80545 0.45012 0.77249 0.0
H1413 H 0.89618 0.39316 0.73367 0.0
H1414 H 0.8778 0.3776 0.75514 0.0
H1415 H 0.8658 0.37673 0.72491 0.0
H1416 H 0.81299 0.34312 0.79527 0.0
H1417 H 0.78604 0.34088 0.72176 0.0
H1418 H 0.83989 0.40556 0.80502 0.0
H1419 H 0.86337 0.39035 0.7946 0.0
H1420 H 0.84234 0.37584 0.81458 0.0
H1421 H 0.80702 0.40286 0.71501 0.0
H1422 H 0.79974 0.37233 0.69787 0.0
H1423 H 0.8307 0.3877 0.70513 0.0
C1424 C 0.01632 0.87826 0.10547 0.0
C1425 C 0.02004 0.85488 0.09552 0.0
C1426 C 0.01332 0.89659 0.09076 0.0
C1427 C 0.01381 0.89132 0.06544 0.0
C1428 C 0.01688 0.86752 0.05518 0.0
C1429 C 0.02009 0.84957 0.07039 0.0
C1430 C 0.01025 0.92185 0.10239 0.0
C1431 C 0.01715 0.86118 0.02823 0.0
C1432 C 0.98776 0.93712 0.03177 0.0
C1433 C 0.00859 0.95457 0.02864 0.0
C1434 C 0.98925 0.91541 0.04226 0.0
C1435 C 0.01209 0.91129 0.05004 0.0
C1436 C 0.03324 0.92804 0.04558 0.0
C1437 C 0.03124 0.94941 0.03475 0.0
C1438 C 0.96633 0.8977 0.04635 0.0
C1439 C 0.05792 0.9243 0.0537 0.0
H1440 H 0.01627 0.88249 0.12488 0.0
H1441 H 0.02286 0.83146 0.0626 0.0
H1442 H 0.02529 0.9365 0.09807 0.0
H1443 H 0.99328 0.92632 0.09511 0.0
H1444 H 0.00985 0.92276 0.12233 0.0
H1445 H 0.01791 0.84127 0.02303 0.0
H1446 H 0.00086 0.86525 0.01903 0.0
H1447 H 0.03301 0.87297 0.02149 0.0
H1448 H 0.9702 0.94081 0.02681 0.0
H1449 H 0.04747 0.96269 0.03225 0.0
H1450 H 0.96308 0.89953 0.06584 0.0
H1451 H 0.96793 0.87808 0.04093 0.0
H1452 H 0.95044 0.90154 0.03618 0.0
H1453 H 0.05962 0.92563 0.07368 0.0
H1454 H 0.07258 0.93838 0.04779 0.0
H1455 H 0.06047 0.90543 0.04651 0.0
C1456 C 0.90502 0.22657 0.82687 0.0
C1457 C 0.92351 0.23819 0.81364 0.0
C1458 C 0.88102 0.22088 0.81721 0.0
C1459 C 0.87563 0.22708 0.79394 0.0
C1460 C 0.89452 0.23663 0.77976 0.0
C1461 C 0.91821 0.24204 0.78978 0.0
C1462 C 0.86129 0.21004 0.83252 0.0
C1463 C 0.88958 0.2435 0.75484 0.0
C1464 C 0.81438 0.21486 0.75972 0.0
C1465 C 0.80778 0.23798 0.76534 0.0
C1466 C 0.83574 0.21006 0.77032 0.0
C1467 C 0.85075 0.22904 0.78642 0.0
C1468 C 0.84345 0.25195 0.79287 0.0
C1469 C 0.82214 0.25611 0.78219 0.0
C1470 C 0.84269 0.1852 0.76345 0.0
C1471 C 0.85886 0.27282 0.80989 0.0
H1472 H 0.90906 0.22312 0.84517 0.0
H1473 H 0.93249 0.2504 0.77919 0.0
H1474 H 0.85123 0.22465 0.839 0.0
H1475 H 0.84824 0.19476 0.82168 0.0
H1476 H 0.86854 0.20274 0.84845 0.0
H1477 H 0.9063 0.24781 0.74513 0.0
H1478 H 0.87683 0.22813 0.74385 0.0
H1479 H 0.88113 0.26018 0.75635 0.0
H1480 H 0.80315 0.20077 0.7468 0.0
H1481 H 0.81723 0.27413 0.78641 0.0
H1482 H 0.85146 0.17887 0.77911 0.0
H1483 H 0.85577 0.18706 0.74923 0.0
H1484 H 0.8268 0.17066 0.75626 0.0
H1485 H 0.86348 0.26595 0.82706 0.0
H1486 H 0.84976 0.28882 0.81413 0.0
H1487 H 0.87599 0.27969 0.80168 0.0
C1488 C 0.54677 0.22577 0.59807 0.0
C1489 C 0.55 0.22688 0.62324 0.0
C1490 C 0.54417 0.20304 0.58312 0.0
C1491 C 0.54447 0.18083 0.59361 0.0
C1492 C 0.54806 0.18185 0.61896 0.0
C1493 C 0.55094 0.20488 0.63346 0.0
C1494 C 0.54075 0.20274 0.55614 0.0
C1495 C 0.54827 0.15851 0.63083 0.0
C1496 C 0.51251 0.11904 0.55931 0.0
C1497 C 0.5319 0.10868 0.5511 0.0
C1498 C 0.51635 0.14263 0.57291 0.0
C1499 C 0.54016 0.15636 0.57819 0.0
C1500 C 0.55977 0.14638 0.56932 0.0
C1501 C 0.55543 0.12258 0.55601 0.0
C1502 C 0.49497 0.15256 0.5822 0.0
C1503 C 0.58538 0.16065 0.57426 0.0
H1504 H 0.54622 0.2427 0.58999 0.0
H1505 H 0.55336 0.20555 0.65288 0.0
H1506 H 0.55435 0.19366 0.54698 0.0
H1507 H 0.52274 0.19162 0.54953 0.0
H1508 H 0.54226 0.2218 0.55076 0.0
H1509 H 0.5518 0.16255 0.65071 0.0
H1510 H 0.53065 0.14548 0.62684 0.0
H1511 H 0.56226 0.14876 0.6234 0.0
H1512 H 0.49427 0.10842 0.55572 0.0
H1513 H 0.57052 0.1148 0.54962 0.0
H1514 H 0.49471 0.17103 0.5761 0.0
H1515 H 0.49646 0.15527 0.60222 0.0
H1516 H 0.47757 0.13981 0.57604 0.0
H1517 H 0.58709 0.17948 0.56835 0.0
H1518 H 0.59849 0.15091 0.56495 0.0
H1519 H 0.59027 0.1633 0.59394 0.0
C1520 C 0.57846 0.75474 0.3524 0.0
C1521 C 0.55496 0.74838 0.34172 0.0
C1522 C 0.59827 0.75311 0.33846 0.0
C1523 C 0.59431 0.74492 0.31341 0.0
C1524 C 0.57059 0.73734 0.30285 0.0
C1525 C 0.55121 0.73924 0.31711 0.0
C1526 C 0.62343 0.76075 0.35031 0.0
C1527 C 0.56572 0.72776 0.27637 0.0
C1528 C 0.64332 0.7692 0.27332 0.0
C1529 C 0.65523 0.74913 0.26993 0.0
C1530 C 0.6233 0.76789 0.28728 0.0
C1531 C 0.6149 0.74587 0.29785 0.0
C1532 C 0.62615 0.72507 0.29348 0.0
C1533 C 0.64638 0.72705 0.2797 0.0
C1534 C 0.61158 0.79035 0.2913 0.0
C1535 C 0.61771 0.70105 0.30405 0.0
H1536 H 0.58139 0.76159 0.37145 0.0
H1537 H 0.53304 0.73387 0.30882 0.0
H1538 H 0.63339 0.74535 0.34672 0.0
H1539 H 0.63337 0.7771 0.34248 0.0
H1540 H 0.62345 0.76568 0.37013 0.0
H1541 H 0.54618 0.7214 0.27122 0.0
H1542 H 0.57309 0.74269 0.26534 0.0
H1543 H 0.57496 0.71195 0.27179 0.0
H1544 H 0.65022 0.78632 0.26583 0.0
H1545 H 0.65569 0.71155 0.27721 0.0
H1546 H 0.61287 0.79722 0.31084 0.0
H1547 H 0.59217 0.78507 0.28536 0.0
H1548 H 0.62007 0.80587 0.28143 0.0
H1549 H 0.62817 0.70167 0.32143 0.0
H1550 H 0.62092 0.68483 0.29184 0.0
H1551 H 0.5983 0.69793 0.30749 0.0
C1552 C 0.02619 0.20781 0.4649 0.0
C1553 C 0.02721 0.20399 0.43976 0.0
C1554 C 0.02302 0.18758 0.47858 0.0
C1555 C 0.02142 0.16307 0.46687 0.0
C1556 C 0.02267 0.15919 0.44151 0.0
C1557 C 0.02526 0.17965 0.42825 0.0
C1558 C 0.02126 0.19238 0.50549 0.0
C1559 C 0.02149 0.13341 0.42837 0.0
C1560 C 0.03581 0.11043 0.4999 0.0
C1561 C 0.01287 0.09547 0.50029 0.0
C1562 C 0.03884 0.13314 0.49003 0.0
C1563 C 0.01836 0.1413 0.48089 0.0
C1564 C -0.00496 0.12711 0.48292 0.0
C1565 C 0.9926 0.10416 0.49228 0.0
C1566 C 0.06405 0.14736 0.48773 0.0
C1567 C 0.97273 0.13544 0.47396 0.0
H1568 H 0.02759 0.22659 0.47385 0.0
H1569 H 0.02623 0.17662 0.40885 0.0
H1570 H 0.00399 0.18163 0.51067 0.0
H1571 H 0.03598 0.18585 0.51508 0.0
H1572 H 0.02235 0.21246 0.51179 0.0
H1573 H 0.0235 0.13368 0.4087 0.0
H1574 H 0.03593 0.12486 0.43595 0.0
H1575 H 0.00402 0.12122 0.43092 0.0
H1576 H 0.05156 0.1036 0.50576 0.0
H1577 H 0.97484 0.09261 0.49261 0.0
H1578 H 0.06552 0.16752 0.49373 0.0
H1579 H 0.06832 0.14548 0.4685 0.0
H1580 H 0.07776 0.14032 0.49838 0.0
H1581 H 0.97355 0.15541 0.48049 0.0
H1582 H 0.95602 0.12424 0.47988 0.0
H1583 H 0.97162 0.13353 0.45396 0.0
C1584 C 0.59197 0.26177 0.11991 0.0
C1585 C 0.57952 0.27807 0.13284 0.0
C1586 C 0.61376 0.25716 0.12961 0.0
C1587 C 0.62337 0.26947 0.15254 0.0
C1588 C 0.61153 0.28705 0.16496 0.0
C1589 C 0.58965 0.29096 0.15504 0.0
C1590 C 0.62579 0.23819 0.11593 0.0
C1591 C 0.62144 0.30097 0.18924 0.0
C1592 C 0.66158 0.24201 0.19545 0.0
C1593 C 0.68436 0.25676 0.1939 0.0
C1594 C 0.64176 0.24481 0.18083 0.0
C1595 C 0.64486 0.26299 0.16453 0.0
C1596 C 0.66816 0.27684 0.16188 0.0
C1597 C 0.68769 0.27346 0.17656 0.0
C1598 C 0.61725 0.22937 0.18387 0.0
C1599 C 0.67222 0.29643 0.14478 0.0
H1600 H 0.5841 0.25164 0.10279 0.0
H1601 H 0.5801 0.30369 0.16499 0.0
H1602 H 0.64527 0.24581 0.11499 0.0
H1603 H 0.62424 0.22144 0.1256 0.0
H1604 H 0.61753 0.23229 0.0973 0.0
H1605 H 0.61108 0.31539 0.1956 0.0
H1606 H 0.62091 0.28763 0.20281 0.0
H1607 H 0.64054 0.31016 0.18834 0.0
H1608 H 0.65903 0.22898 0.20876 0.0
H1609 H 0.70536 0.28484 0.17528 0.0
H1610 H 0.60821 0.22107 0.16604 0.0
H1611 H 0.60577 0.24153 0.19263 0.0
H1612 H 0.61834 0.21413 0.19511 0.0
H1613 H 0.66283 0.28912 0.12688 0.0
H1614 H 0.69167 0.30299 0.14237 0.0
H1615 H 0.66462 0.3127 0.15199 0.0
C1616 C 0.51893 0.86748 0.92368 0.0
C1617 C 0.53693 0.8539 0.92752 0.0
C1618 C 0.51632 0.88763 0.94031 0.0
C1619 C 0.53278 0.8949 0.96084 0.0
C1620 C 0.55107 0.88119 0.96476 0.0
C1621 C 0.55269 0.86051 0.94818 0.0
C1622 C 0.49517 0.90009 0.93617 0.0
C1623 C 0.56878 0.88828 0.9865 0.0
C1624 C 0.53864 0.96233 0.98743 0.0
C1625 C 0.52237 0.96009 0.00559 0.0
C1626 C 0.543 0.94114 0.97331 0.0
C1627 C 0.53102 0.91716 0.97779 0.0
C1628 C 0.51553 0.91479 -0.00304 0.0
C1629 C 0.51141 0.93634 0.01071 0.0
C1630 C 0.5598 0.94447 0.95314 0.0
C1631 C 0.50228 0.88957 0.00211 0.0
H1632 H 0.50635 0.86185 0.90796 0.0
H1633 H 0.56646 0.84974 0.95114 0.0
H1634 H 0.47914 0.88934 0.94364 0.0
H1635 H 0.49813 0.91956 0.94504 0.0
H1636 H 0.4908 0.89998 0.91658 0.0
H1637 H 0.5816 0.87537 0.9872 0.0
H1638 H 0.57921 0.90748 0.98623 0.0
H1639 H 0.55899 0.88827 0.00328 0.0
H1640 H 0.54738 0.98074 0.98374 0.0
H1641 H 0.49885 0.93461 0.02481 0.0
H1642 H 0.55128 0.93351 0.93605 0.0
H1643 H 0.5763 0.93737 0.95763 0.0
H1644 H 0.56517 0.96433 0.95007 0.0
H1645 H 0.48831 0.88171 0.98731 0.0
H1646 H 0.49334 0.89069 0.01939 0.0
H1647 H 0.51481 0.87641 0.00279 0.0
C1648 C 0.92522 0.77022 0.66081 0.0
C1649 C 0.94599 0.76477 0.67175 0.0
C1650 C 0.90507 0.7723 0.67412 0.0
C1651 C 0.90594 0.7692 0.69896 0.0
C1652 C 0.92719 0.76464 0.71026 0.0
C1653 C 0.94688 0.76233 0.6965 0.0
C1654 C 0.88262 0.77704 0.66146 0.0
C1655 C 0.92894 0.76166 0.73679 0.0
C1656 C 0.85928 0.79323 0.73669 0.0
C1657 C 0.84214 0.7713 0.73758 0.0
C1658 C 0.8804 0.79277 0.72461 0.0
C1659 C 0.88435 0.76986 0.71296 0.0
C1660 C 0.86752 0.74753 0.71443 0.0
C1661 C 0.84667 0.7485 0.72686 0.0
C1662 C 0.89818 0.81687 0.7238 0.0
C1663 C 0.87112 0.72274 0.7022 0.0
H1664 H 0.92441 0.77204 0.6417 0.0
H1665 H 0.96299 0.75837 0.70514 0.0
H1666 H 0.86753 0.76102 0.66218 0.0
H1667 H 0.87723 0.79382 0.67076 0.0
H1668 H 0.88511 0.77978 0.64226 0.0
H1669 H 0.94724 0.75967 0.74313 0.0
H1670 H 0.92424 0.77799 0.74765 0.0
H1671 H 0.91584 0.7449 0.74034 0.0
H1672 H 0.85598 0.81092 0.74503 0.0
H1673 H 0.83348 0.73148 0.72733 0.0
H1674 H 0.89928 0.82119 0.70491 0.0
H1675 H 0.91644 0.81497 0.73029 0.0
H1676 H 0.89311 0.83286 0.73494 0.0
H1677 H 0.87158 0.72337 0.68245 0.0
H1678 H 0.85661 0.70703 0.70554 0.0
H1679 H 0.88867 0.71889 0.70865 0.0
C1680 C 0.05844 0.01358 0.84401 0.0
C1681 C 0.08058 0.00604 0.84125 0.0
C1682 C 0.04679 0.01195 0.86551 0.0
C1683 C 0.05743 0.00244 0.88488 0.0
C1684 C 0.07941 0.99407 0.88211 0.0
C1685 C 0.09075 0.99593 0.86026 0.0
C1686 C 0.02343 0.02121 0.86772 0.0
C1687 C 0.09114 0.98368 0.90239 0.0
C1688 C 0.03822 0.02711 0.94532 0.0
C1689 C 0.01916 0.00795 0.9493 0.0
C1690 C 0.0518 0.02488 0.92512 0.0
C1691 C 0.04608 0.003 0.90839 0.0
C1692 C 0.02747 0.98315 0.91283 0.0
C1693 C 0.01413 0.98591 0.93325 0.0
C1694 C 0.07144 0.04653 0.92108 0.0
C1695 C 0.02096 0.95947 0.89549 0.0
H1696 H 0.05026 0.02124 0.82943 0.0
H1697 H 0.10779 0.98997 0.85828 0.0
H1698 H 0.00918 0.0064 0.87312 0.0
H1699 H 0.02588 0.03736 0.88201 0.0
H1700 H 0.01704 0.0271 0.85062 0.0
H1701 H 0.10825 0.97801 0.89743 0.0
H1702 H 0.09494 -0.00218 0.91855 0.0
H1703 H 0.07866 0.96725 0.90755 0.0
H1704 H 0.04206 0.04426 0.95762 0.0
H1705 H -0.00051 0.97101 0.93642 0.0
H1706 H 0.06602 0.05515 0.9052 0.0
H1707 H 0.08835 0.03996 0.91713 0.0
H1708 H 0.07519 0.06112 0.93692 0.0
H1709 H 0.01242 0.96346 0.87851 0.0
H1710 H 0.00825 0.94468 0.90301 0.0
H1711 H 0.03738 0.95227 0.8908 0.0
C1712 C 0.73119 0.35364 0.58761 0.0
C1713 C 0.72456 0.34325 0.5637 0.0
C1714 C 0.73195 0.33838 0.60599 0.0
C1715 C 0.72627 0.31209 0.60021 0.0
C1716 C 0.71929 0.30147 0.57615 0.0
C1717 C 0.71839 0.31721 0.55816 0.0
C1718 C 0.73909 0.35038 0.63158 0.0
C1719 C 0.71339 0.27354 0.56931 0.0
C1720 C 0.75424 0.27889 0.64628 0.0
C1721 C 0.73534 0.27369 0.66142 0.0
C1722 C 0.75109 0.29007 0.62535 0.0
C1723 C 0.72848 0.296 0.61947 0.0
C1724 C 0.70884 0.28904 0.63375 0.0
C1725 C 0.71255 0.27802 0.6547 0.0
C1726 C 0.77241 0.29702 0.61043 0.0
C1727 C 0.68426 0.29429 0.6275 0.0
H1728 H 0.7358 0.37375 0.592 0.0
H1729 H 0.71332 0.30909 0.53965 0.0
H1730 H 0.72488 0.34364 0.64368 0.0
H1731 H 0.75591 0.34499 0.63809 0.0
H1732 H 0.74206 0.37108 0.63317 0.0
H1733 H 0.70677 0.26828 0.55008 0.0
H1734 H 0.72971 0.26566 0.57247 0.0
H1735 H 0.69952 0.26475 0.58078 0.0
H1736 H 0.77185 0.27543 0.65144 0.0
H1737 H 0.69786 0.27374 0.66632 0.0
H1738 H 0.77855 0.31761 0.61286 0.0
H1739 H 0.76725 0.2912 0.59098 0.0
H1740 H 0.78776 0.28841 0.61566 0.0
H1741 H 0.68553 0.31453 0.62653 0.0
H1742 H 0.67102 0.28825 0.64081 0.0
H1743 H 0.67732 0.28446 0.60945 0.0
C1744 C 0.47486 0.03517 0.34563 0.0
C1745 C 0.45467 0.04543 0.34047 0.0
C1746 C 0.48649 0.03958 0.3687 0.0
C1747 C 0.47784 0.05481 0.38703 0.0
C1748 C 0.45809 0.06607 0.38178 0.0
C1749 C 0.44662 0.06113 0.35852 0.0
C1750 C 0.50729 0.0269 0.37374 0.0
C1751 C 0.44855 0.08254 0.40092 0.0
C1752 C 0.48874 0.03586 0.44847 0.0
C1753 C 0.51001 0.05261 0.45715 0.0
C1754 C 0.47733 0.03737 0.42625 0.0
C1755 C 0.48757 0.05604 0.41221 0.0
C1756 C 0.50847 0.07378 0.42129 0.0
C1757 C 0.51959 0.07179 0.44376 0.0
C1758 C 0.45513 0.01799 0.41722 0.0
C1759 C 0.5196 0.09412 0.40683 0.0
H1760 H 0.48128 0.02311 0.33177 0.0
H1761 H 0.4312 0.06938 0.35458 0.0
H1762 H 0.52302 0.04071 0.38243 0.0
H1763 H 0.50202 0.01297 0.38646 0.0
H1764 H 0.51292 0.01717 0.3571 0.0
H1765 H 0.43518 0.0924 0.39322 0.0
H1766 H 0.43976 0.07105 0.41439 0.0
H1767 H 0.46353 0.09658 0.41068 0.0
H1768 H 0.4814 0.0208 0.45864 0.0
H1769 H 0.536 0.08478 0.45054 0.0
H1770 H 0.45932 0.00588 0.40138 0.0
H1771 H 0.44043 0.0271 0.41126 0.0
H1772 H 0.44846 0.00598 0.4312 0.0
H1773 H 0.52792 0.08582 0.39112 0.0
H1774 H 0.53371 0.10834 0.41771 0.0
H1775 H 0.50559 0.10351 0.3997 0.0
C1776 C 0.74369 0.65524 0.08149 0.0
C1777 C 0.74787 0.66722 0.06075 0.0
C1778 C 0.74469 0.66898 0.10433 0.0
C1779 C 0.7496 0.69538 0.10647 0.0
C1780 C 0.75386 0.70763 0.08562 0.0
C1781 C 0.75315 0.69339 0.06301 0.0
C1782 C 0.74044 0.65521 0.12617 0.0
C1783 C 0.7588 0.73574 0.08716 0.0
C1784 C 0.7289 0.72744 0.16327 0.0
C1785 C 0.75041 0.73436 0.17788 0.0
C1786 C 0.72853 0.71553 0.13966 0.0
C1787 C 0.75012 0.71003 0.1306 0.0
C1788 C 0.77197 0.71736 0.14511 0.0
C1789 C 0.77188 0.72962 0.1685 0.0
C1790 C 0.70495 0.70838 0.12458 0.0
C1791 C 0.79529 0.71151 0.13624 0.0
H1792 H 0.73975 0.63503 0.07993 0.0
H1793 H 0.75625 0.70277 0.04704 0.0
H1794 H 0.75608 0.66123 0.13956 0.0
H1795 H 0.72442 0.65979 0.13501 0.0
H1796 H 0.73755 0.63464 0.12151 0.0
H1797 H 0.76173 0.7424 0.06927 0.0
H1798 H 0.74342 0.743 0.09487 0.0
H1799 H 0.77496 0.74382 0.09944 0.0
H1800 H 0.71227 0.73122 0.17032 0.0
H1801 H 0.78857 0.73479 0.17971 0.0
H1802 H 0.6997 0.68776 0.12095 0.0
H1803 H 0.70695 0.71566 0.10688 0.0
H1804 H 0.69016 0.71561 0.1336 0.0
H1805 H 0.79379 0.69098 0.13293 0.0
H1806 H 0.81089 0.7194 0.14936 0.0
H1807 H 0.79895 0.71898 0.11885 0.0
C1808 C 0.13217 0.01066 0.68949 0.0
C1809 C 0.11591 0.00336 0.70681 0.0
C1810 C 0.12395 0.01511 0.66662 0.0
C1811 C 0.0989 0.01207 0.66093 0.0
C1812 C 0.0824 0.00434 0.67822 0.0
C1813 C 0.09111 0.0001 0.70095 0.0
C1814 C 0.14206 0.0234 0.64866 0.0
C1815 C 0.05553 0.00067 0.67276 0.0
C1816 C 0.07382 0.04398 0.61145 0.0
C1817 C 0.06867 0.02451 0.59249 0.0
C1818 C 0.08477 0.04055 0.63353 0.0
C1819 C 0.08979 0.01682 0.63688 0.0
C1820 C 0.08485 -0.00278 0.61759 0.0
C1821 C 0.07471 0.00145 0.59548 0.0
C1822 C 0.0904 0.06209 0.65345 0.0
C1823 C 0.08926 0.97147 0.62063 0.0
H1824 H 0.15136 0.01325 0.69391 0.0
H1825 H 0.07843 0.99448 0.71424 0.0
H1826 H 0.13888 0.01001 0.63197 0.0
H1827 H 0.13985 0.04181 0.64352 0.0
H1828 H 0.16093 0.02498 0.65591 0.0
H1829 H 0.04512 0.99403 0.68797 0.0
H1830 H 0.05072 0.01848 0.66879 0.0
H1831 H 0.04991 0.9869 0.65648 0.0
H1832 H 0.06915 0.06181 0.60905 0.0
H1833 H 0.07044 0.98629 0.58086 0.0
H1834 H 0.1094 0.06471 0.66057 0.0
H1835 H 0.07885 0.05795 0.66862 0.0
H1836 H 0.08738 0.07983 0.64727 0.0
H1837 H 0.10831 0.97252 0.62695 0.0
H1838 H 0.0852 0.95851 0.6036 0.0
H1839 H 0.07784 0.9635 0.63457 0.0
C1840 C 0.70831 0.35558 0.40204 0.0
C1841 C 0.71245 0.35049 0.42571 0.0
C1842 C 0.70902 0.33768 0.38232 0.0
C1843 C 0.71412 0.3142 0.38642 0.0
C1844 C 0.71662 0.3083 0.41026 0.0
C1845 C 0.7157 0.32652 0.42966 0.0
C1846 C 0.70592 0.34452 0.35709 0.0
C1847 C 0.72199 0.28344 0.41531 0.0
C1848 C 0.70773 0.26735 0.33023 0.0
C1849 C 0.73095 0.27304 0.32208 0.0
C1850 C 0.70211 0.27956 0.35206 0.0
C1851 C 0.72025 0.29755 0.36589 0.0
C1852 C 0.74416 0.30169 0.35861 0.0
C1853 C 0.74916 0.28945 0.33672 0.0
C1854 C 0.67646 0.27462 0.35931 0.0
C1855 C 0.76412 0.32048 0.37296 0.0
H1856 H 0.70547 0.37392 0.39882 0.0
H1857 H 0.7187 0.3223 0.4479 0.0
H1858 H 0.72341 0.34641 0.34857 0.0
H1859 H 0.69293 0.32957 0.34578 0.0
H1860 H 0.69948 0.36235 0.35696 0.0
H1861 H 0.71956 0.28026 0.43441 0.0
H1862 H 0.71025 0.26794 0.40344 0.0
H1863 H 0.74092 0.28281 0.41143 0.0
H1864 H 0.6936 0.25474 0.31882 0.0
H1865 H 0.7671 0.29385 0.33036 0.0
H1866 H 0.66788 0.29044 0.35552 0.0
H1867 H 0.67584 0.27321 0.37892 0.0
H1868 H 0.66567 0.25723 0.34921 0.0
H1869 H 0.76091 0.3396 0.37175 0.0
H1870 H 0.78211 0.31938 0.36626 0.0
H1871 H 0.7644 0.31757 0.39229 0.0
C1872 C 0.41185 0.05598 0.18806 0.0
C1873 C 0.42458 0.06348 0.21051 0.0
C1874 C 0.42389 0.0571 0.16671 0.0
C1875 C 0.44913 0.06599 0.16803 0.0
C1876 C 0.4616 0.0758 0.19049 0.0
C1877 C 0.44916 0.07435 0.21154 0.0
C1878 C 0.40996 0.04692 0.14294 0.0
C1879 C 0.48839 0.08604 0.19247 0.0
C1880 C 0.48043 0.03183 0.12084 0.0
C1881 C 0.48323 0.0483 0.10337 0.0
C1882 C 0.47021 0.03793 0.14247 0.0
C1883 C 0.46281 0.06114 0.14666 0.0
C1884 C 0.4671 0.07854 0.12974 0.0
C1885 C 0.4772 0.07179 0.10815 0.0
C1886 C 0.46619 0.01896 0.16024 0.0
C1887 C 0.45986 0.10363 0.13364 0.0
H1888 H 0.39278 0.0479 0.18719 0.0
H1889 H 0.45898 0.08066 0.22888 0.0
H1890 H 0.41452 0.06006 0.12937 0.0
H1891 H 0.41502 0.02905 0.13599 0.0
H1892 H 0.39018 0.04348 0.14467 0.0
H1893 H 0.49459 0.09652 0.21049 0.0
H1894 H 0.49815 0.07041 0.18946 0.0
H1895 H 0.49338 0.09855 0.17844 0.0
H1896 H 0.48524 0.01368 0.11717 0.0
H1897 H 0.47952 0.08454 0.09465 0.0
H1898 H 0.44658 0.01258 0.16177 0.0
H1899 H 0.47418 0.02753 0.1784 0.0
H1900 H 0.47414 0.00239 0.15479 0.0
H1901 H 0.44044 0.10136 0.12811 0.0
H1902 H 0.47018 0.11712 0.12266 0.0
H1903 H 0.46256 0.11161 0.1529 0.0
C1904 C 0.77355 0.71643 0.92436 0.0
C1905 C 0.77812 0.69214 0.9226 0.0
C1906 C 0.77758 0.73087 0.90518 0.0
C1907 C 0.78669 0.7209 0.88384 0.0
C1908 C 0.79262 0.69694 0.88249 0.0
C1909 C 0.78814 0.68278 0.90184 0.0
C1910 C 0.77076 0.75622 0.90724 0.0
C1911 C 0.80283 0.68592 0.86023 0.0
C1912 C 0.76673 0.74283 0.82572 0.0
C1913 C 0.78683 0.76072 0.82157 0.0
C1914 C 0.76669 0.72953 0.84568 0.0
C1915 C 0.78727 0.73427 0.86204 0.0
C1916 C 0.8078 0.75211 0.85781 0.0
C1917 C 0.8073 0.76525 0.83761 0.0
C1918 C 0.74443 0.71063 0.84941 0.0
C1919 C 0.83013 0.75746 0.87473 0.0
H1920 H 0.76583 0.72381 0.94034 0.0
H1921 H 0.79196 0.66412 0.90046 0.0
H1922 H 0.78576 0.77044 0.90217 0.0
H1923 H 0.75502 0.75565 0.89452 0.0
H1924 H 0.76604 0.76224 0.92575 0.0
H1925 H 0.80691 0.66724 0.86219 0.0
H1926 H 0.7899 0.68418 0.84438 0.0
H1927 H 0.81961 0.69852 0.85635 0.0
H1928 H 0.75073 0.7395 0.81356 0.0
H1929 H 0.82286 0.77907 0.83441 0.0
H1930 H 0.7373 0.71582 0.86704 0.0
H1931 H 0.74904 0.69196 0.84983 0.0
H1932 H 0.72996 0.70919 0.83498 0.0
H1933 H 0.82586 0.76504 0.89291 0.0
H1934 H 0.84493 0.77106 0.86835 0.0
H1935 H 0.8366 0.73993 0.87671 0.0
C1936 C 0.82433 0.09425 0.01068 0.0
C1937 C 0.80644 0.08662 0.02635 0.0
C1938 C 0.84314 0.0813 0.00692 0.0
C1939 C 0.84404 0.06025 0.01915 0.0
C1940 C 0.8255 0.0518 0.03414 0.0
C1941 C 0.80691 0.06509 0.03758 0.0
C1942 C 0.86279 0.091 0.99097 0.0
C1943 C 0.82589 0.02941 0.04745 0.0
C1944 C 0.88955 0.02054 4e-05 0.0
C1945 C 0.90874 0.03057 0.01708 0.0
C1946 C 0.86794 0.02948 0.00083 0.0
C1947 C 0.86591 0.04918 0.01873 0.0
C1948 C 0.88518 0.05905 0.03614 0.0
C1949 C 0.9062 0.04932 0.03533 0.0
C1950 C 0.8476 0.01841 0.98215 0.0
C1951 C 0.88386 0.08035 0.05529 0.0
H1952 H 0.82401 0.11073 0.00177 0.0
H1953 H 0.79304 0.05888 0.04955 0.0
H1954 H 0.87978 0.09858 0.00221 0.0
H1955 H 0.86624 0.07565 0.97781 0.0
H1956 H 0.85823 0.10601 0.98093 0.0
H1957 H 0.80873 0.02343 0.05598 0.0
H1958 H 0.82934 0.01349 0.035 0.0
H1959 H 0.84077 0.03404 0.06177 0.0
H1960 H 0.8916 0.00608 0.98589 0.0
H1961 H 0.92109 0.05719 0.04849 0.0
H1962 H 0.84452 0.03271 0.97048 0.0
H1963 H 0.83065 0.0126 0.99106 0.0
H1964 H 0.85138 0.00202 0.97057 0.0
H1965 H 0.87765 0.09572 0.04717 0.0
H1966 H 0.90155 0.08811 0.06524 0.0
H1967 H 0.87064 0.07371 0.06837 0.0
C1968 C 0.34911 0.4316 0.03393 0.0
C1969 C 0.33239 0.44704 0.03822 0.0
C1970 C 0.37394 0.44165 0.03629 0.0
C1971 C 0.38197 0.46751 0.04374 0.0
C1972 C 0.36508 0.48268 0.04994 0.0
C1973 C 0.34044 0.47232 0.0467 0.0
C1974 C 0.39142 0.42502 0.02907 0.0
C1975 C 0.37295 0.51017 0.05863 0.0
C1976 C 0.4483 0.4939 0.06051 0.0
C1977 C 0.4554 0.50451 0.03963 0.0
C1978 C 0.42443 0.4816 0.06217 0.0
C1979 C 0.40757 0.47942 0.04225 0.0
C1980 C 0.41485 0.48974 0.021 0.0
C1981 C 0.43859 0.50252 0.02016 0.0
C1982 C 0.41716 0.47134 0.0853 0.0
C1983 C 0.39756 0.4874 -0.00086 0.0
H1984 H 0.34275 0.41207 0.02719 0.0
H1985 H 0.3274 0.48415 0.05018 0.0
H1986 H 0.39914 0.43004 0.01195 0.0
H1987 H 0.40663 0.42778 0.04288 0.0
H1988 H 0.38264 0.40496 0.02641 0.0
H1989 H 0.35792 0.51843 0.06592 0.0
H1990 H 0.38784 0.51328 0.07286 0.0
H1991 H 0.37981 0.52026 0.04344 0.0
H1992 H 0.46136 0.49542 0.07562 0.0
H1993 H 0.44409 0.51069 0.00413 0.0
H1994 H 0.4096 0.45104 0.08167 0.0
H1995 H 0.40281 0.48042 0.09295 0.0
H1996 H 0.43253 0.47435 0.09903 0.0
H1997 H 0.38905 0.46752 0.99374 0.0
H1998 H 0.40658 0.49493 0.98349 0.0
H1999 H 0.38294 0.49763 0.00358 0.0
C2000 C 0.34314 0.61458 0.74338 0.0
C2001 C 0.33189 0.58934 0.74098 0.0
C2002 C 0.32962 0.63346 0.74593 0.0
C2003 C 0.30428 0.62695 0.74668 0.0
C2004 C 0.29283 0.60149 0.74469 0.0
C2005 C 0.30677 0.58295 0.74157 0.0
C2006 C 0.34247 0.66039 0.74754 0.0
C2007 C 0.26592 0.59389 0.74595 0.0
C2008 C 0.27676 0.67982 0.77534 0.0
C2009 C 0.26853 0.68932 0.755 0.0
C2010 C 0.28714 0.65854 0.77292 0.0
C2011 C 0.28993 0.64696 0.74958 0.0
C2012 C 0.28082 0.65596 0.729 0.0
C2013 C 0.26994 0.67688 0.732 0.0
C2014 C 0.2961 0.64918 0.79533 0.0
C2015 C 0.28395 0.64455 0.70378 0.0
H2016 H 0.36254 0.61961 0.74274 0.0
H2017 H 0.29803 0.56344 0.73981 0.0
H2018 H 0.33505 0.66956 0.73303 0.0
H2019 H 0.33946 0.67064 0.76501 0.0
H2020 H 0.36219 0.66226 0.74593 0.0
H2021 H 0.25986 0.57332 0.74473 0.0
H2022 H 0.26033 0.60254 0.76313 0.0
H2023 H 0.25649 0.60077 0.73106 0.0
H2024 H 0.27558 0.68936 0.79316 0.0
H2025 H 0.2638 0.68435 0.71624 0.0
H2026 H 0.31609 0.65301 0.79664 0.0
H2027 H 0.28989 0.62868 0.79439 0.0
H2028 H 0.2899 0.65824 0.81201 0.0
H2029 H 0.30332 0.64855 0.70016 0.0
H2030 H 0.27373 0.65204 0.68985 0.0
H2031 H 0.27799 0.62398 0.70194 0.0
C2032 C 0.17719 0.63774 0.49602 0.0
C2033 C 0.19521 0.62357 0.49358 0.0
C2034 C 0.15276 0.626 0.49375 0.0
C2035 C 0.14651 0.59964 0.48914 0.0
C2036 C 0.16462 0.5855 0.48505 0.0
C2037 C 0.18873 0.59767 0.4872 0.0
C2038 C 0.13379 0.64164 0.49771 0.0
C2039 C 0.15871 0.55734 0.48018 0.0
C2040 C 0.09229 0.56503 0.51662 0.0
C2041 C 0.07634 0.5564 0.49631 0.0
C2042 C 0.11493 0.57981 0.51457 0.0
C2043 C 0.1216 0.5864 0.49167 0.0
C2044 C 0.10533 0.57833 0.47117 0.0
C2045 C 0.0829 0.56316 0.4737 0.0
C2046 C 0.132 0.58769 0.53679 0.0
C2047 C 0.11177 0.58539 0.44659 0.0
H2048 H 0.18214 0.65779 0.5007 0.0
H2049 H 0.2026 0.58666 0.48489 0.0
H2050 H 0.11854 0.63541 0.48391 0.0
H2051 H 0.12651 0.63935 0.51561 0.0
H2052 H 0.14116 0.66178 0.49714 0.0
H2053 H 0.17468 0.54937 0.47524 0.0
H2054 H 0.15173 0.5495 0.49655 0.0
H2055 H 0.14442 0.55113 0.46541 0.0
H2056 H 0.08728 0.55983 0.53414 0.0
H2057 H 0.07043 0.55682 0.458 0.0
H2058 H 0.13804 0.60826 0.53941 0.0
H2059 H 0.14827 0.57942 0.53445 0.0
H2060 H 0.12365 0.58177 0.55338 0.0
H2061 H 0.11823 0.60585 0.44756 0.0
H2062 H 0.09626 0.57963 0.43298 0.0
H2063 H 0.12668 0.57638 0.4403 0.0
C2064 C 0.70964 0.9628 0.75478 0.0
C2065 C 0.68616 0.94854 0.75364 0.0
C2066 C 0.72973 0.95175 0.75789 0.0
C2067 C 0.72614 0.92589 0.75966 0.0
C2068 C 0.70247 0.91155 0.75911 0.0
C2069 C 0.68277 0.9231 0.75618 0.0
C2070 C 0.75472 0.96755 0.75858 0.0
C2071 C 0.69792 0.88384 0.76094 0.0
C2072 C 0.76752 0.88287 0.74035 0.0
C2073 C 0.77381 0.87564 0.76261 0.0
C2074 C 0.75405 0.90156 0.73915 0.0
C2075 C 0.74681 0.9131 0.76077 0.0
C2076 C 0.7559 0.90816 0.78333 0.0
C2077 C 0.76939 0.88936 0.784 0.0
C2078 C 0.74514 0.90651 0.71466 0.0
C2079 C 0.74908 0.92058 0.80677 0.0
H2080 H 0.71234 0.98254 0.75296 0.0
H2081 H 0.66467 0.91204 0.75539 0.0
H2082 H 0.76583 0.96454 0.7744 0.0
H2083 H 0.76372 0.96192 0.74221 0.0
H2084 H 0.75442 0.98776 0.75939 0.0
H2085 H 0.67842 0.87558 0.76085 0.0
H2086 H 0.70555 0.87407 0.74558 0.0
H2087 H 0.70701 0.8802 0.77778 0.0
H2088 H 0.77126 0.87246 0.72377 0.0
H2089 H 0.77452 0.88393 0.80124 0.0
H2090 H 0.74331 0.92622 0.71461 0.0
H2091 H 0.72714 0.89449 0.70969 0.0
H2092 H 0.75746 0.90208 0.70061 0.0
H2093 H 0.749 0.94058 0.80571 0.0
H2094 H 0.76158 0.91904 0.82215 0.0
H2095 H 0.73063 0.9114 0.81049 0.0
C2096 C 0.70112 0.95544 0.53088 0.0
C2097 C 0.69354 0.92997 0.53303 0.0
C2098 C 0.68461 0.97122 0.5298 0.0
C2099 C 0.65988 0.96137 0.53118 0.0
C2100 C 0.65204 0.93579 0.53383 0.0
C2101 C 0.66903 0.92027 0.53457 0.0
C2102 C 0.69362 -0.00169 0.52666 0.0
C2103 C 0.62573 0.92487 0.53568 0.0
C2104 C 0.61855 0.00651 0.5473 0.0
C2105 C 0.60832 0.00845 0.52451 0.0
C2106 C 0.6357 0.99148 0.54975 0.0
C2107 C 0.64221 0.97777 0.52896 0.0
C2108 C 0.63225 0.98011 0.50588 0.0
C2109 C 0.61555 0.99563 0.50392 0.0
C2110 C 0.6468 0.99017 0.5745 0.0
C2111 C 0.6389 0.96586 0.48331 0.0
H2112 H 0.72007 0.96311 0.52964 0.0
H2113 H 0.66315 0.90065 0.53638 0.0
H2114 H 0.68605 0.00235 0.50923 0.0
H2115 H 0.68747 0.01064 0.54114 0.0
H2116 H 0.71359 0.00322 0.52693 0.0
H2117 H 0.62265 0.90481 0.53832 0.0
H2118 H 0.61861 0.93526 0.55101 0.0
H2119 H 0.61523 0.92687 0.51905 0.0
H2120 H 0.61288 0.01642 0.56322 0.0
H2121 H 0.60746 0.99697 0.48631 0.0
H2122 H 0.6665 -0.00257 0.5752 0.0
H2123 H 0.64421 0.97048 0.57826 0.0
H2124 H 0.63907 0.00117 0.58896 0.0
H2125 H 0.65865 0.97045 0.48171 0.0
H2126 H 0.62974 0.97005 0.46672 0.0
H2127 H 0.63395 0.94551 0.48438 0.0
C2128 C 0.32486 0.4429 0.72336 0.0
C2129 C 0.34736 0.44514 0.71339 0.0
C2130 C 0.31097 0.41942 0.72579 0.0
C2131 C 0.31961 0.39763 0.71771 0.0
C2132 C 0.34161 0.39968 0.70632 0.0
C2133 C 0.35531 0.42344 0.70443 0.0
C2134 C 0.28769 0.418 0.73824 0.0
C2135 C 0.35118 0.37683 0.6971 0.0
C2136 C 0.29863 0.34156 0.75067 0.0
C2137 C 0.27931 0.32812 0.73521 0.0
C2138 C 0.31223 0.36397 0.74489 0.0
C2139 C 0.30652 0.37292 0.72299 0.0
C2140 C 0.28754 0.35893 0.70691 0.0
C2141 C 0.274 0.33672 0.71333 0.0
C2142 C 0.33224 0.37844 0.76259 0.0
C2143 C 0.28129 0.36763 0.68319 0.0
H2144 H 0.31856 0.45954 0.73036 0.0
H2145 H 0.3726 0.42499 0.69653 0.0
H2146 H 0.27274 0.40537 0.72696 0.0
H2147 H 0.28944 0.4101 0.75552 0.0
H2148 H 0.28277 0.43658 0.74214 0.0
H2149 H 0.36691 0.38147 0.68607 0.0
H2150 H 0.35682 0.36776 0.71256 0.0
H2151 H 0.33691 0.36302 0.68605 0.0
H2152 H 0.30272 0.33491 0.76761 0.0
H2153 H 0.25917 0.32616 0.70128 0.0
H2154 H 0.32824 0.39698 0.7689 0.0
H2155 H 0.34948 0.38172 0.75366 0.0
H2156 H 0.33471 0.36859 0.77856 0.0
H2157 H 0.27457 0.38529 0.68655 0.0
H2158 H 0.26728 0.35365 0.67193 0.0
H2159 H 0.2976 0.37157 0.67286 0.0
C2160 C 0.16322 0.56627 0.23864 0.0
C2161 C 0.13832 0.5633 0.23326 0.0
C2162 C 0.17812 0.59 0.24251 0.0
C2163 C 0.16791 0.61136 0.24114 0.0
C2164 C 0.14275 0.6086 0.23618 0.0
C2165 C 0.12824 0.58457 0.23218 0.0
C2166 C 0.2049 0.59215 0.24751 0.0
C2167 C 0.13121 0.63102 0.23476 0.0
C2168 C 0.20489 0.67434 0.26827 0.0
C2169 C 0.21392 0.68417 0.24764 0.0
C2170 C 0.18974 0.65068 0.26647 0.0
C2171 C 0.18379 0.63648 0.24354 0.0
C2172 C 0.19328 0.64611 0.22275 0.0
C2173 C 0.20812 0.66985 0.22504 0.0
C2174 C 0.17982 0.64104 0.28901 0.0
C2175 C 0.18767 0.63137 0.19803 0.0
H2176 H 0.17123 0.54998 0.23952 0.0
H2177 H 0.10903 0.58247 0.22819 0.0
H2178 H 0.21475 0.6008 0.23286 0.0
H2179 H 0.21113 0.60447 0.26457 0.0
H2180 H 0.20988 0.57375 0.24887 0.0
H2181 H 0.11127 0.62579 0.23208 0.0
H2182 H 0.13602 0.64423 0.25151 0.0
H2183 H 0.13816 0.64107 0.21956 0.0
H2184 H 0.20915 0.68537 0.28577 0.0
H2185 H 0.21516 0.67722 0.20901 0.0
H2186 H 0.18517 0.62302 0.29131 0.0
H2187 H 0.15984 0.63748 0.28733 0.0
H2188 H 0.18622 0.65435 0.30547 0.0
H2189 H 0.19338 0.61316 0.19791 0.0
H2190 H 0.19679 0.64141 0.18372 0.0
H2191 H 0.16796 0.62739 0.19349 0.0
C2192 C 0.46852 0.67239 0.41214 0.0
C2193 C 0.47598 0.69697 0.42326 0.0
C2194 C 0.46912 0.65211 0.4251 0.0
C2195 C 0.47716 0.65655 0.44981 0.0
C2196 C 0.48305 0.68128 0.46155 0.0
C2197 C 0.4825 0.70126 0.44808 0.0
C2198 C 0.46269 0.62598 0.41193 0.0
C2199 C 0.49129 0.6867 0.48798 0.0
C2200 C 0.46806 0.5993 0.48307 0.0
C2201 C 0.49043 0.5921 0.48101 0.0
C2202 C 0.46372 0.62094 0.47398 0.0
C2203 C 0.48211 0.63549 0.46238 0.0
C2204 C 0.505 0.62885 0.46112 0.0
C2205 C 0.50891 0.60731 0.47056 0.0
C2206 C 0.43921 0.62767 0.47599 0.0
C2207 C 0.52508 0.64387 0.4488 0.0
H2208 H 0.46331 0.66895 0.39299 0.0
H2209 H 0.48807 0.72023 0.45683 0.0
H2210 H 0.47914 0.61784 0.41073 0.0
H2211 H 0.44975 0.61383 0.42197 0.0
H2212 H 0.45469 0.6256 0.39336 0.0
H2213 H 0.49169 0.70644 0.49516 0.0
H2214 H 0.47931 0.67436 0.49873 0.0
H2215 H 0.50969 0.68286 0.49056 0.0
H2216 H 0.45373 0.58776 0.49133 0.0
H2217 H 0.52625 0.60193 0.46891 0.0
H2218 H 0.42967 0.62479 0.45784 0.0
H2219 H 0.44104 0.64767 0.48298 0.0
H2220 H 0.4279 0.61619 0.48798 0.0
H2221 H 0.5197 0.64309 0.42935 0.0
H2222 H 0.54215 0.63689 0.45042 0.0
H2223 H 0.52848 0.66375 0.45663 0.0
C2224 C 0.63655 0.33895 0.67657 0.0
C2225 C 0.61426 0.33609 0.68698 0.0
C2226 C 0.65755 0.33757 0.69025 0.0
C2227 C 0.65587 0.33254 0.71448 0.0
C2228 C 0.63389 0.33211 0.7256 0.0
C2229 C 0.61341 0.33419 0.71176 0.0
C2230 C 0.68122 0.33989 0.67851 0.0
C2231 C 0.63137 0.32696 0.75145 0.0
C2232 C 0.69058 0.28669 0.73696 0.0
C2233 C 0.70712 0.30196 0.75417 0.0
C2234 C 0.67458 0.29673 0.72315 0.0
C2235 C 0.6752 0.32276 0.72665 0.0
C2236 C 0.69252 0.33846 0.74342 0.0
C2237 C 0.70816 0.32777 0.75728 0.0
C2238 C 0.65639 0.27928 0.70545 0.0
C2239 C 0.69415 0.36634 0.74735 0.0
H2240 H 0.63742 0.34108 0.65756 0.0
H2241 H 0.59634 0.33253 0.72009 0.0
H2242 H 0.69539 0.35344 0.68995 0.0
H2243 H 0.68703 0.32167 0.67688 0.0
H2244 H 0.68002 0.34608 0.66032 0.0
H2245 H 0.61382 0.32991 0.75812 0.0
H2246 H 0.6328 0.30731 0.75289 0.0
H2247 H 0.64606 0.33912 0.76342 0.0
H2248 H 0.68979 0.2667 0.73467 0.0
H2249 H 0.72122 0.33958 0.77045 0.0
H2250 H 0.65773 0.28532 0.68719 0.0
H2251 H 0.63789 0.27985 0.71093 0.0
H2252 H 0.65897 0.25967 0.70431 0.0
H2253 H 0.68966 0.37372 0.73041 0.0
H2254 H 0.71244 0.3762 0.75463 0.0
H2255 H 0.68114 0.37075 0.76065 0.0
C2256 C 0.98619 0.33467 0.92074 0.0
C2257 C 0.99433 0.33622 0.89747 0.0
C2258 C 0.98581 0.35627 0.93653 0.0
C2259 C 0.9938 0.37999 0.92892 0.0
C2260 C 0.00171 0.38171 0.90537 0.0
C2261 C 0.00186 0.35981 0.88992 0.0
C2262 C 0.97717 0.35371 0.96149 0.0
C2263 C 0.0104 0.4067 0.89662 0.0
C2264 C 0.9766 0.4379 0.96136 0.0
C2265 C -0.00219 0.44869 0.97558 0.0
C2266 C 0.97481 0.41522 0.94648 0.0
C2267 C 0.99469 0.40306 0.94582 0.0
C2268 C 0.01585 0.41344 0.96069 0.0
C2269 C 0.01715 0.43609 0.9754 0.0
C2270 C 0.95191 0.40463 0.93095 0.0
C2271 C 0.03742 0.401 0.96055 0.0
H2272 H 0.98026 0.31655 0.92674 0.0
H2273 H 0.00814 0.36123 0.87199 0.0
H2274 H 0.99203 0.36213 0.97525 0.0
H2275 H 0.96233 0.36399 0.96462 0.0
H2276 H 0.9707 0.33392 0.96433 0.0
H2277 H 0.01533 0.40484 0.87757 0.0
H2278 H -0.00377 0.41807 0.89818 0.0
H2279 H 0.0264 0.41712 0.90809 0.0
H2280 H 0.96156 0.44746 0.96135 0.0
H2281 H 0.03358 0.44416 0.98639 0.0
H2282 H 0.94497 0.38504 0.93405 0.0
H2283 H 0.95569 0.40445 0.91163 0.0
H2284 H 0.93761 0.41559 0.93458 0.0
H2285 H 0.03206 0.38146 0.96454 0.0
H2286 H 0.05213 0.41094 0.97393 0.0
H2287 H 0.04456 0.40033 0.94237 0.0
C2288 C 0.96714 0.78824 0.2217 0.0
C2289 C 0.97061 0.78842 0.19703 0.0
C2290 C 0.94445 0.78862 0.23056 0.0
C2291 C 0.92468 0.78867 0.21427 0.0
C2292 C 0.92813 0.78935 0.18939 0.0
C2293 C 0.95117 0.78947 0.18107 0.0
C2294 C 0.94154 0.78832 0.25727 0.0
C2295 C 0.90735 0.789 0.17145 0.0
C2296 C 0.86339 0.75926 0.23296 0.0
C2297 C 0.85355 0.78024 0.23996 0.0
C2298 C 0.88642 0.76181 0.2243 0.0
C2299 C 0.9001 0.78597 0.22305 0.0
C2300 C 0.8904 0.80729 0.23047 0.0
C2301 C 0.86706 0.80415 0.23867 0.0
C2302 C 0.89602 0.73862 0.21626 0.0
C2303 C 0.90467 0.83333 0.22975 0.0
H2304 H 0.9822 0.78781 0.23417 0.0
H2305 H 0.95381 0.78962 0.16199 0.0
H2306 H 0.93238 0.80352 0.26427 0.0
H2307 H 0.93003 0.77042 0.26049 0.0
H2308 H 0.95908 0.79053 0.26774 0.0
H2309 H 0.91328 0.79099 0.15296 0.0
H2310 H 0.89419 0.77115 0.1709 0.0
H2311 H 0.89777 0.80427 0.17709 0.0
H2312 H 0.85285 0.74075 0.23376 0.0
H2313 H 0.85936 0.82037 0.24404 0.0
H2314 H 0.9127 0.73842 0.2273 0.0
H2315 H 0.90079 0.73862 0.19721 0.0
H2316 H 0.8828 0.72122 0.2178 0.0
H2317 H 0.92184 0.83607 0.24093 0.0
H2318 H 0.89462 0.84792 0.23642 0.0
H2319 H 0.90937 0.83595 0.21102 0.0
C2320 C 0.48715 0.35563 0.08534 0.0
C2321 C 0.48958 0.33279 0.0728 0.0
C2322 C 0.48624 0.37646 0.07318 0.0
C2323 C 0.48793 0.37447 0.04786 0.0
C2324 C 0.48909 0.35113 0.03494 0.0
C2325 C 0.48989 0.33053 0.04757 0.0
C2326 C 0.48468 0.40094 0.0876 0.0
C2327 C 0.49063 0.34822 0.00792 0.0
C2328 C 0.4749 0.42951 0.01731 0.0
C2329 C 0.49813 0.44408 0.01744 0.0
C2330 C 0.47124 0.40624 0.02625 0.0
C2331 C 0.49129 0.39744 0.03553 0.0
C2332 C 0.51482 0.41161 0.03466 0.0
C2333 C 0.51793 0.43473 0.02568 0.0
C2334 C 0.44584 0.39181 0.0269 0.0
C2335 C 0.53672 0.40287 0.04418 0.0
H2336 H 0.48664 0.35748 0.10481 0.0
H2337 H 0.4916 0.3129 0.03773 0.0
H2338 H 0.50178 0.41454 0.08699 0.0
H2339 H 0.47003 0.40891 0.07965 0.0
H2340 H 0.48134 0.39887 0.10678 0.0
H2341 H 0.48887 0.32839 0.00026 0.0
H2342 H 0.47633 0.35608 -0.00085 0.0
H2343 H 0.50822 0.35881 0.00333 0.0
H2344 H 0.45947 0.43671 0.01118 0.0
H2345 H 0.53595 0.44579 0.02567 0.0
H2346 H 0.43974 0.39487 0.0454 0.0
H2347 H 0.44489 0.37148 0.02234 0.0
H2348 H 0.43316 0.39796 0.01425 0.0
H2349 H 0.53606 0.40228 0.06393 0.0
H2350 H 0.55383 0.41528 0.04074 0.0
H2351 H 0.53688 0.38368 0.03574 0.0
C2352 C 0.95101 0.28406 0.37983 0.0
C2353 C 0.96448 0.27949 0.35996 0.0
C2354 C 0.92684 0.28642 0.37652 0.0
C2355 C 0.9159 0.28341 0.35284 0.0
C2356 C 0.92921 0.2776 0.33283 0.0
C2357 C 0.95345 0.27612 0.33663 0.0
C2358 C 0.91341 0.29321 0.39822 0.0
C2359 C 0.91802 0.27351 0.30731 0.0
C2360 C 0.84853 0.26935 0.33801 0.0
C2361 C 0.84517 0.29174 0.32989 0.0
C2362 C 0.87127 0.26674 0.34703 0.0
C2363 C 0.89087 0.28723 0.3485 0.0
C2364 C 0.88696 0.31056 0.34244 0.0
C2365 C 0.86418 0.31244 0.33284 0.0
C2366 C 0.87473 0.24144 0.35288 0.0
C2367 C 0.90723 0.33307 0.34446 0.0
H2368 H 0.95968 0.28696 0.39786 0.0
H2369 H 0.96388 0.27246 0.32129 0.0
H2370 H 0.90952 0.31217 0.39763 0.0
H2371 H 0.89585 0.28014 0.39797 0.0
H2372 H 0.92384 0.29301 0.41546 0.0
H2373 H 0.93026 0.26721 0.29399 0.0
H2374 H 0.90104 0.25936 0.30586 0.0
H2375 H 0.91343 0.29113 0.30242 0.0
H2376 H 0.83383 0.25328 0.33565 0.0
H2377 H 0.86152 0.3298 0.32669 0.0
H2378 H 0.8857 0.24313 0.3701 0.0
H2379 H 0.88461 0.23299 0.33849 0.0
H2380 H 0.85728 0.22855 0.35415 0.0
H2381 H 0.91787 0.33512 0.36195 0.0
H2382 H 0.9005 0.35054 0.34284 0.0
H2383 H 0.91959 0.3306 0.32991 0.0
C2384 C 0.97337 0.68273 0.55027 0.0
C2385 C 0.97154 0.68273 0.57518 0.0
C2386 C 0.96999 0.66021 0.53492 0.0
C2387 C 0.96409 0.63734 0.54476 0.0
C2388 C 0.95914 0.63744 0.56936 0.0
C2389 C 0.96345 0.66017 0.58446 0.0
C2390 C 0.97539 0.66091 0.50877 0.0
C2391 C 0.95145 0.61342 0.58012 0.0
C2392 C 0.95652 0.57579 0.50374 0.0
C2393 C 0.97954 0.5704 0.50691 0.0
C2394 C 0.95096 0.59762 0.51587 0.0
C2395 C 0.96896 0.61422 0.53126 0.0
C2396 C 0.99228 0.60882 0.53418 0.0
C2397 C -0.00278 0.58701 0.522 0.0
C2398 C 0.92578 0.60249 0.5127 0.0
C2399 C 0.0121 0.62597 0.55038 0.0
H2400 H 0.97947 0.70019 0.54304 0.0
H2401 H 0.96151 0.66021 0.60368 0.0
H2402 H 0.99345 0.65641 0.50617 0.0
H2403 H 0.96209 0.64677 0.49692 0.0
H2404 H 0.97536 0.67959 0.50297 0.0
H2405 H 0.94477 0.6167 0.59835 0.0
H2406 H 0.93704 0.60061 0.5683 0.0
H2407 H 0.96693 0.60388 0.58149 0.0
H2408 H 0.94282 0.5628 0.49214 0.0
H2409 H 0.01512 0.58299 0.52428 0.0
H2410 H 0.92612 0.62235 0.51049 0.0
H2411 H 0.91609 0.59845 0.52908 0.0
H2412 H 0.91541 0.59056 0.49692 0.0
H2413 H 0.01485 0.64512 0.54508 0.0
H2414 H 0.02951 0.61954 0.5497 0.0
H2415 H 0.00691 0.62704 0.56933 0.0
C2416 C 0.59307 0.77452 0.82458 0.0
C2417 C 0.59678 0.77645 0.84977 0.0
C2418 C 0.61246 0.77541 0.80969 0.0
C2419 C 0.63611 0.77806 0.82023 0.0
C2420 C 0.64 0.78045 0.84567 0.0
C2421 C 0.62029 0.7797 0.86013 0.0
C2422 C 0.60763 0.77298 0.78266 0.0
C2423 C 0.66496 0.78316 0.85758 0.0
C2424 C 0.68367 0.7525 0.78528 0.0
C2425 C 0.6986 0.77438 0.77983 0.0
C2426 C 0.66285 0.75342 0.79772 0.0
C2427 C 0.65663 0.77678 0.80474 0.0
C2428 C 0.67086 0.79884 0.79817 0.0
C2429 C 0.69174 0.79739 0.78584 0.0
C2430 C 0.64814 0.72945 0.80434 0.0
C2431 C 0.66462 0.82406 0.80506 0.0
H2432 H 0.57493 0.77218 0.81644 0.0
H2433 H 0.62329 0.78124 0.8796 0.0
H2434 H 0.61909 0.78867 0.77514 0.0
H2435 H 0.61238 0.75546 0.77424 0.0
H2436 H 0.58845 0.77275 0.7774 0.0
H2437 H 0.66506 0.78577 0.87754 0.0
H2438 H 0.67236 0.76628 0.85196 0.0
H2439 H 0.67723 0.79934 0.85168 0.0
H2440 H 0.68869 0.73459 0.78068 0.0
H2441 H 0.70307 0.81441 0.78163 0.0
H2442 H 0.62892 0.72768 0.79832 0.0
H2443 H 0.64911 0.72973 0.82425 0.0
H2444 H 0.65454 0.71271 0.79625 0.0
H2445 H 0.64543 0.82361 0.79977 0.0
H2446 H 0.67602 0.83903 0.7965 0.0
H2447 H 0.6671 0.8289 0.82493 0.0
C2448 C 0.44216 0.54207 0.66753 0.0
C2449 C 0.41857 0.54636 0.66629 0.0
C2450 C 0.45589 0.54283 0.64723 0.0
C2451 C 0.44596 0.54858 0.62537 0.0
C2452 C 0.42257 0.55411 0.62438 0.0
C2453 C 0.40902 0.55264 0.6448 0.0
C2454 C 0.48061 0.53644 0.6489 0.0
C2455 C 0.4118 0.56129 0.60167 0.0
C2456 C 0.48888 0.56484 0.57643 0.0
C2457 C 0.48547 0.54198 0.56168 0.0
C2458 C 0.47584 0.56749 0.59708 0.0
C2459 C 0.45923 0.5467 0.60308 0.0
C2460 C 0.45559 0.52366 0.58803 0.0
C2461 C 0.46879 0.52159 0.56754 0.0
C2462 C 0.47997 0.5924 0.61255 0.0
C2463 C 0.4379 0.5011 0.59368 0.0
H2464 H 0.44957 0.53714 0.68412 0.0
H2465 H 0.3909 0.55633 0.64394 0.0
H2466 H 0.48065 0.51894 0.63693 0.0
H2467 H 0.49415 0.55134 0.64263 0.0
H2468 H 0.48629 0.53385 0.66757 0.0
H2469 H 0.39278 0.56326 0.60333 0.0
H2470 H 0.42242 0.57931 0.59759 0.0
H2471 H 0.41268 0.54719 0.5861 0.0
H2472 H 0.50175 0.58064 0.57185 0.0
H2473 H 0.4663 0.50381 0.55629 0.0
H2474 H 0.48702 0.59052 0.63093 0.0
H2475 H 0.46266 0.59882 0.61444 0.0
H2476 H 0.4929 0.60693 0.60495 0.0
H2477 H 0.44277 0.49632 0.61178 0.0
H2478 H 0.43735 0.48452 0.58021 0.0
H2479 H 0.41955 0.50535 0.59413 0.0
C2480 C 0.77788 0.18388 0.93774 0.0
C2481 C 0.7836 0.19565 0.96138 0.0
C2482 C 0.77911 0.1978 0.91816 0.0
C2483 C 0.78649 0.22409 0.92232 0.0
C2484 C 0.79388 0.23591 0.94595 0.0
C2485 C 0.79218 0.22154 0.96528 0.0
C2486 C 0.77116 0.1845 0.89317 0.0
C2487 C 0.80253 0.26381 0.95092 0.0
C2488 C 0.79834 0.25394 0.86502 0.0
C2489 C 0.77589 0.25985 0.8596 0.0
C2490 C 0.80275 0.2438 0.88633 0.0
C2491 C 0.78407 0.23913 0.90222 0.0
C2492 C 0.76187 0.24647 0.89745 0.0
C2493 C 0.7581 0.25693 0.8762 0.0
C2494 C 0.82684 0.23671 0.89093 0.0
C2495 C 0.74148 0.24174 0.91394 0.0
H2496 H 0.77136 0.16387 0.9346 0.0
H2497 H 0.79688 0.23071 0.98351 0.0
H2498 H 0.75465 0.19037 0.88645 0.0
H2499 H 0.78527 0.18964 0.88048 0.0
H2500 H 0.76724 0.16388 0.89281 0.0
H2501 H 0.8105 0.26969 0.96966 0.0
H2502 H 0.81616 0.2703 0.93815 0.0
H2503 H 0.78719 0.27329 0.94815 0.0
H2504 H 0.81218 0.25633 0.85219 0.0
H2505 H 0.74075 0.26155 0.872 0.0
H2506 H 0.82528 0.21646 0.88519 0.0
H2507 H 0.83275 0.24033 0.9104 0.0
H2508 H 0.84096 0.24706 0.88063 0.0
H2509 H 0.73493 0.22133 0.91351 0.0
H2510 H 0.72608 0.25026 0.90862 0.0
H2511 H 0.74783 0.24929 0.93282 0.0
C2512 C 0.0569 0.45904 0.16055 0.0
C2513 C 0.08072 0.45552 0.15954 0.0
C2514 C 0.04355 0.46166 0.13976 0.0
C2515 C 0.05398 0.45984 0.11729 0.0
C2516 C 0.07695 0.45347 0.11575 0.0
C2517 C 0.09037 0.45185 0.13706 0.0
C2518 C 0.01914 0.4686 0.14225 0.0
C2519 C 0.08762 0.44948 0.09171 0.0
C2520 C 0.01005 0.46434 0.06575 0.0
C2521 C 0.01586 0.48993 0.06386 0.0
C2522 C 0.02355 0.45362 0.08182 0.0
C2523 C 0.04267 0.46914 0.09669 0.0
C2524 C 0.04902 0.49487 0.09414 0.0
C2525 C 0.03556 0.50489 0.07765 0.0
C2526 C 0.01671 0.42598 0.08341 0.0
C2527 C 0.06927 0.51212 0.10965 0.0
H2528 H 0.04912 0.46139 0.17782 0.0
H2529 H 0.10855 0.44843 0.13618 0.0
H2530 H 0.02001 0.48793 0.13783 0.0
H2531 H 0.00549 0.45607 0.1294 0.0
H2532 H 0.01295 0.46759 0.16077 0.0
H2533 H 0.10501 0.44313 0.09343 0.0
H2534 H 0.07485 0.43534 0.07931 0.0
H2535 H 0.09049 0.46702 0.08325 0.0
H2536 H -0.00499 0.45273 0.05468 0.0
H2537 H 0.04004 0.5247 0.07604 0.0
H2538 H 0.00395 0.42272 0.09775 0.0
H2539 H 0.03268 0.41804 0.08797 0.0
H2540 H 0.00765 0.41576 0.06618 0.0
H2541 H 0.06514 0.5126 0.12892 0.0
H2542 H 0.07226 0.53149 0.10484 0.0
H2543 H 0.08629 0.50514 0.10777 0.0
C2544 C 0.75367 0.83639 0.44265 0.0
C2545 C 0.74653 0.85953 0.44354 0.0
C2546 C 0.75571 0.8224 0.42041 0.0
C2547 C 0.75047 0.83179 0.3986 0.0
C2548 C 0.74284 0.85488 0.39941 0.0
C2549 C 0.74095 0.8684 0.42178 0.0
C2550 C 0.76376 0.79777 0.42024 0.0
C2551 C 0.73693 0.86552 0.3766 0.0
C2552 C 0.7758 0.81157 0.33933 0.0
C2553 C 0.75553 0.79583 0.32694 0.0
C2554 C 0.77472 0.8226 0.36309 0.0
C2555 C 0.75289 0.8177 0.37476 0.0
C2556 C 0.73269 0.80102 0.3627 0.0
C2557 C 0.73424 0.79035 0.33897 0.0
C2558 C 0.79665 0.84033 0.37533 0.0
C2559 C 0.7091 0.7952 0.37449 0.0
H2560 H 0.75807 0.82937 0.45931 0.0
H2561 H 0.73532 0.88619 0.42216 0.0
H2562 H 0.7502 0.78269 0.40977 0.0
H2563 H 0.78089 0.79863 0.41118 0.0
H2564 H 0.76653 0.79273 0.43872 0.0
H2565 H 0.73107 0.88365 0.38034 0.0
H2566 H 0.75296 0.86832 0.36574 0.0
H2567 H 0.72238 0.85221 0.36541 0.0
H2568 H 0.79234 0.81587 0.33025 0.0
H2569 H 0.71851 0.77799 0.32971 0.0
H2570 H 0.80079 0.83512 0.39343 0.0
H2571 H 0.79296 0.85951 0.37797 0.0
H2572 H 0.81277 0.84055 0.36467 0.0
H2573 H 0.71209 0.78939 0.39257 0.0
H2574 H 0.69578 0.78022 0.36353 0.0
H2575 H 0.70123 0.81223 0.3771 0.0
C2576 C 0.43553 0.52063 0.81435 0.0
C2577 C 0.4126 0.51741 0.8027 0.0
C2578 C 0.43833 0.51777 0.83885 0.0
C2579 C 0.41767 0.51072 0.85183 0.0
C2580 C 0.39442 0.50742 0.84014 0.0
C2581 C 0.39216 0.51117 0.81575 0.0
C2582 C 0.46345 0.52215 0.85081 0.0
C2583 C 0.37203 0.49925 0.85319 0.0
C2584 C 0.43387 0.4822 0.90738 0.0
C2585 C 0.43701 0.50287 0.92506 0.0
C2586 C 0.42544 0.48382 0.88372 0.0
C2587 C 0.42075 0.50685 0.8776 0.0
C2588 C 0.42221 0.52718 0.89586 0.0
C2589 C 0.43001 0.5248 0.91949 0.0
C2590 C 0.42327 0.46144 0.86493 0.0
C2591 C 0.41779 0.55218 0.89009 0.0
H2592 H 0.45133 0.52552 0.80427 0.0
H2593 H 0.37439 0.50833 0.80665 0.0
H2594 H 0.46515 0.53615 0.86701 0.0
H2595 H 0.46697 0.50459 0.85692 0.0
H2596 H 0.47753 0.52883 0.83852 0.0
H2597 H 0.35528 0.49805 0.84169 0.0
H2598 H 0.37214 0.48066 0.85912 0.0
H2599 H 0.3717 0.51241 0.86965 0.0
H2600 H 0.43914 0.46518 0.91172 0.0
H2601 H 0.43245 0.54086 0.93314 0.0
H2602 H 0.43858 0.46439 0.85316 0.0
H2603 H 0.40642 0.45895 0.85329 0.0
H2604 H 0.42346 0.44402 0.87322 0.0
H2605 H 0.43278 0.56105 0.87986 0.0
H2606 H 0.41665 0.56499 0.90664 0.0
H2607 H 0.40092 0.54992 0.87856 0.0
C2608 C 0.79228 0.21369 0.0998 0.0
C2609 C 0.77729 0.19076 0.10237 0.0
C2610 C 0.79831 0.23252 0.11939 0.0
C2611 C 0.78904 0.22832 0.14197 0.0
C2612 C 0.77449 0.20498 0.14486 0.0
C2613 C 0.76884 0.18648 0.12504 0.0
C2614 C 0.81411 0.25709 0.11581 0.0
C2615 C 0.76433 0.19974 0.16877 0.0
C2616 C 0.81268 0.26397 0.20247 0.0
C2617 C 0.7945 0.27746 0.20719 0.0
C2618 C 0.81249 0.24947 0.18017 0.0
C2619 C 0.7935 0.24844 0.16254 0.0
C2620 C 0.77647 0.26402 0.16654 0.0
C2621 C 0.77726 0.27846 0.18893 0.0
C2622 C 0.83109 0.23332 0.17655 0.0
C2623 C 0.75591 0.26347 0.14827 0.0
H2624 H 0.799 0.21713 0.08237 0.0
H2625 H 0.75734 0.16881 0.12725 0.0
H2626 H 0.80368 0.27222 0.11829 0.0
H2627 H 0.82952 0.2618 0.12955 0.0
H2628 H 0.82121 0.25679 0.09759 0.0
H2629 H 0.75376 0.18043 0.16811 0.0
H2630 H 0.77912 0.20253 0.18306 0.0
H2631 H 0.75245 0.21301 0.17414 0.0
H2632 H 0.82578 0.26301 0.21689 0.0
H2633 H 0.76339 0.28916 0.19275 0.0
H2634 H 0.83711 0.23293 0.15791 0.0
H2635 H 0.82302 0.2139 0.17935 0.0
H2636 H 0.84706 0.23993 0.18949 0.0
H2637 H 0.76232 0.26374 0.12982 0.0
H2638 H 0.74675 0.27946 0.15236 0.0
H2639 H 0.74243 0.24594 0.14837 0.0
C2640 C 0.07737 0.47637 0.31186 0.0
C2641 C 0.06253 0.47132 0.29054 0.0
C2642 C 0.06731 0.47572 0.33433 0.0
C2643 C 0.04196 0.46926 0.33522 0.0
C2644 C 0.02715 0.462 0.31363 0.0
C2645 C 0.03761 0.46349 0.29149 0.0
C2646 C 0.08363 0.48388 0.35702 0.0
C2647 C 0.00013 0.45422 0.3139 0.0
C2648 C 0.01777 0.46082 0.39659 0.0
C2649 C 0.01232 0.48434 0.40323 0.0
C2650 C 0.02673 0.45519 0.37407 0.0
C2651 C 0.03078 0.47379 0.35831 0.0
C2652 C 0.0247 0.49735 0.36479 0.0
C2653 C 0.01525 0.50222 0.38711 0.0
C2654 C 0.03238 0.42965 0.36744 0.0
C2655 C 0.02901 0.51777 0.34855 0.0
H2656 H 0.09666 0.48239 0.31104 0.0
H2657 H 0.0262 0.45917 0.27489 0.0
H2658 H 0.08065 0.5022 0.36544 0.0
H2659 H 0.07938 0.4704 0.37031 0.0
H2660 H 0.10297 0.48577 0.35335 0.0
H2661 H 0.99177 0.4452 0.29597 0.0
H2662 H -0.00467 0.4411 0.32745 0.0
H2663 H 0.99226 0.47088 0.31907 0.0
H2664 H 0.01538 0.447 0.40914 0.0
H2665 H 0.01114 0.52045 0.39238 0.0
H2666 H 0.05216 0.43115 0.3673 0.0
H2667 H 0.02457 0.42178 0.34903 0.0
H2668 H 0.02539 0.41643 0.38032 0.0
H2669 H 0.04843 0.52236 0.34517 0.0
H2670 H 0.02343 0.53508 0.35642 0.0
H2671 H 0.01891 0.51133 0.33084 0.0
C2672 C 0.75714 0.8223 0.58861 0.0
C2673 C 0.7544 0.84722 0.59067 0.0
C2674 C 0.75704 0.80946 0.60903 0.0
C2675 C 0.75339 0.82163 0.6319 0.0
C2676 C 0.75015 0.84665 0.63395 0.0
C2677 C 0.75104 0.85924 0.61339 0.0
C2678 C 0.76123 0.78303 0.60622 0.0
C2679 C 0.74563 0.8601 0.65787 0.0
C2680 C 0.73294 0.78119 0.6812 0.0
C2681 C 0.75436 0.78394 0.69555 0.0
C2682 C 0.73225 0.7936 0.66055 0.0
C2683 C 0.75365 0.80848 0.65381 0.0
C2684 C 0.77536 0.81109 0.66821 0.0
C2685 C 0.77536 0.79908 0.68908 0.0
C2686 C 0.70861 0.79095 0.64606 0.0
C2687 C 0.79868 0.82634 0.66144 0.0
H2688 H 0.7598 0.81298 0.5711 0.0
H2689 H 0.74863 0.87843 0.61502 0.0
H2690 H 0.77728 0.78185 0.61779 0.0
H2691 H 0.74563 0.77029 0.6123 0.0
H2692 H 0.76404 0.77632 0.58727 0.0
H2693 H 0.74222 0.87909 0.65617 0.0
H2694 H 0.72989 0.84922 0.66568 0.0
H2695 H 0.76139 0.86181 0.67084 0.0
H2696 H 0.71668 0.76957 0.68628 0.0
H2697 H 0.79202 0.80112 0.70008 0.0
H2698 H 0.71004 0.78246 0.62737 0.0
H2699 H 0.70427 0.80964 0.64489 0.0
H2700 H 0.69349 0.77924 0.65406 0.0
H2701 H 0.80259 0.81949 0.64289 0.0
H2702 H 0.81419 0.82556 0.67398 0.0
H2703 H 0.79705 0.84612 0.66151 0.0
C2704 C 0.68867 0.46821 0.50643 0.0
C2705 C 0.67809 0.44357 0.50947 0.0
C2706 C 0.67462 0.48635 0.50459 0.0
C2707 C 0.64944 0.4797 0.50598 0.0
C2708 C 0.63866 0.45496 0.50938 0.0
C2709 C 0.65315 0.43712 0.51102 0.0
C2710 C 0.68666 0.51251 0.50085 0.0
C2711 C 0.61179 0.44727 0.51103 0.0
C2712 C 0.60996 0.52611 0.52282 0.0
C2713 C 0.5974 0.52584 0.50064 0.0
C2714 C 0.62828 0.51241 0.52462 0.0
C2715 C 0.63413 0.49842 0.50368 0.0
C2716 C 0.62318 0.50025 0.48088 0.0
C2717 C 0.60486 0.51399 0.47964 0.0
C2718 C 0.63967 0.51103 0.54922 0.0
C2719 C 0.62927 0.48596 0.45808 0.0
H2720 H 0.70798 0.47332 0.50519 0.0
H2721 H 0.64493 0.41813 0.51338 0.0
H2722 H 0.67959 0.5173 0.48353 0.0
H2723 H 0.68244 0.52615 0.5154 0.0
H2724 H 0.70655 0.51474 0.5006 0.0
H2725 H 0.60646 0.42787 0.5155 0.0
H2726 H 0.60549 0.46009 0.52496 0.0
H2727 H 0.60236 0.44864 0.49357 0.0
H2728 H 0.60421 0.53533 0.53907 0.0
H2729 H 0.5952 0.51391 0.46244 0.0
H2730 H 0.65948 0.51299 0.54866 0.0
H2731 H 0.63255 0.4925 0.55499 0.0
H2732 H 0.63578 0.52566 0.563 0.0
H2733 H 0.64906 0.4879 0.45729 0.0
H2734 H 0.62198 0.49235 0.44163 0.0
H2735 H 0.62151 0.46582 0.45793 0.0
C2736 C 0.18395 0.08258 0.46813 0.0
C2737 C 0.18601 0.10802 0.46569 0.0
C2738 C 0.16149 0.06724 0.46968 0.0
C2739 C 0.1405 0.07746 0.46825 0.0
C2740 C 0.14229 0.10286 0.46473 0.0
C2741 C 0.16512 0.11795 0.46368 0.0
C2742 C 0.16033 0.04037 0.47387 0.0
C2743 C 0.12014 0.1142 0.46269 0.0
C2744 C 0.08053 0.03238 0.4557 0.0
C2745 C 0.07162 0.03308 0.4787 0.0
C2746 C 0.10295 0.04688 0.45195 0.0
C2747 C 0.11685 0.06184 0.4718 0.0
C2748 C 0.1083 0.06174 0.49523 0.0
C2749 C 0.08561 0.04755 0.49834 0.0
C2750 C 0.11137 0.04687 0.42669 0.0
C2751 C 0.1229 0.07698 0.51693 0.0
H2752 H 0.20002 0.07473 0.46968 0.0
H2753 H 0.16664 0.13756 0.46166 0.0
H2754 H 0.15292 0.03728 0.49159 0.0
H2755 H 0.14804 0.02769 0.45988 0.0
H2756 H 0.17829 0.03509 0.47367 0.0
H2757 H 0.12446 0.13369 0.45824 0.0
H2758 H 0.10697 0.10285 0.44857 0.0
H2759 H 0.11122 0.11419 0.47997 0.0
H2760 H 0.0695 0.02144 0.44046 0.0
H2761 H 0.07856 0.04811 0.51609 0.0
H2762 H 0.12923 0.04147 0.42601 0.0
H2763 H 0.11357 0.06598 0.42134 0.0
H2764 H 0.09856 0.03391 0.41328 0.0
H2765 H 0.14108 0.07234 0.51826 0.0
H2766 H 0.11418 0.07375 0.53404 0.0
H2767 H 0.12536 0.09713 0.51491 0.0
C2768 C 0.20477 0.94551 0.78233 0.0
C2769 C 0.18032 0.94176 0.78713 0.0
C2770 C 0.21706 0.92554 0.78028 0.0
C2771 C 0.20467 0.90129 0.78336 0.0
C2772 C 0.18028 0.89761 0.78927 0.0
C2773 C 0.16836 0.91785 0.79091 0.0
C2774 C 0.24299 0.93021 0.77379 0.0
C2775 C 0.16652 0.87211 0.79306 0.0
C2776 C 0.224 0.84434 0.75149 0.0
C2777 C 0.23631 0.836 0.77028 0.0
C2778 C 0.21424 0.86594 0.7554 0.0
C2779 C 0.21658 0.87944 0.77876 0.0
C2780 C 0.22943 0.87144 0.79772 0.0
C2781 C 0.2393 0.84991 0.79321 0.0
C2782 C 0.20088 0.87395 0.73462 0.0
C2783 C 0.23225 0.88528 0.82288 0.0
H2784 H 0.21414 0.96393 0.77935 0.0
H2785 H 0.14951 0.91482 0.79477 0.0
H2786 H 0.25425 0.92262 0.78667 0.0
H2787 H 0.2443 0.92038 0.7556 0.0
H2788 H 0.25056 0.95039 0.77372 0.0
H2789 H 0.1485 0.87281 0.79986 0.0
H2790 H 0.16405 0.85963 0.77575 0.0
H2791 H 0.17683 0.86363 0.80607 0.0
H2792 H 0.22169 0.83376 0.73371 0.0
H2793 H 0.24862 0.84349 0.80789 0.0
H2794 H 0.20844 0.89368 0.73247 0.0
H2795 H 0.18167 0.87278 0.73842 0.0
H2796 H 0.20178 0.86221 0.71731 0.0
H2797 H 0.24245 0.90458 0.82265 0.0
H2798 H 0.24181 0.87603 0.83587 0.0
H2799 H 0.21431 0.88673 0.82944 0.0
C2800 C 0.31719 0.93404 0.96288 0.0
C2801 C 0.30427 0.91486 0.97449 0.0
C2802 C 0.34217 0.94158 0.96713 0.0
C2803 C 0.35459 0.92943 0.98314 0.0
C2804 C 0.34195 0.90898 0.9937 0.0
C2805 C 0.31684 0.90201 0.98937 0.0
C2806 C 0.35503 0.96355 0.95557 0.0
C2807 C 0.35472 0.89526 0.01045 0.0
C2808 C 0.4223 0.94672 0.98089 0.0
C2809 C 0.42799 0.96661 -0.00049 0.0
C2810 C 0.39863 0.93314 0.97633 0.0
C2811 C 0.38028 0.93994 0.99049 0.0
C2812 C 0.3862 0.95906 0.01016 0.0
C2813 C 0.41004 0.97205 0.01454 0.0
C2814 C 0.39306 0.91245 0.95558 0.0
C2815 C 0.36711 0.96694 0.02563 0.0
H2816 H 0.30769 0.94398 0.95123 0.0
H2817 H 0.30702 0.887 -0.00177 0.0
H2818 H 0.3622 0.97935 0.96973 0.0
H2819 H 0.37057 0.95861 0.94609 0.0
H2820 H 0.34298 0.96996 0.94244 0.0
H2821 H 0.34309 0.87759 0.01418 0.0
H2822 H 0.37136 0.89094 0.00269 0.0
H2823 H 0.36018 0.90727 0.02783 0.0
H2824 H 0.4362 0.94216 0.96946 0.0
H2825 H 0.41432 0.98732 0.02904 0.0
H2826 H 0.38354 0.91882 0.94042 0.0
H2827 H 0.38098 0.89587 0.96097 0.0
H2828 H 0.40966 0.90679 0.94897 0.0
H2829 H 0.35486 0.97547 0.01462 0.0
H2830 H 0.37495 0.9807 0.04136 0.0
H2831 H 0.35602 0.9505 0.03232 0.0
C2832 C 0.81819 0.57529 0.77419 0.0
C2833 C 0.84227 0.58713 0.78018 0.0
C2834 C 0.80014 0.58926 0.77178 0.0
C2835 C 0.80648 0.6156 0.77516 0.0
C2836 C 0.83047 0.62757 0.78273 0.0
C2837 C 0.84807 0.61315 0.78527 0.0
C2838 C 0.77468 0.57581 0.76421 0.0
C2839 C 0.8379 0.65569 0.78674 0.0
C2840 C 0.7764 0.65735 0.74032 0.0
C2841 C 0.76619 0.67014 0.7589 0.0
C2842 C 0.78802 0.6379 0.74493 0.0
C2843 C 0.78896 0.63097 0.76857 0.0
C2844 C 0.77623 0.64193 0.78664 0.0
C2845 C 0.76515 0.66167 0.78165 0.0
C2846 C 0.80134 0.62657 0.72514 0.0
C2847 C 0.77597 0.63416 0.81171 0.0
H2848 H 0.81355 0.55513 0.77045 0.0
H2849 H 0.86661 0.62237 0.79007 0.0
H2850 H 0.76139 0.58516 0.77361 0.0
H2851 H 0.77123 0.57601 0.74456 0.0
H2852 H 0.77161 0.55604 0.76789 0.0
H2853 H 0.857 0.662 0.79371 0.0
H2854 H 0.83547 0.66343 0.76949 0.0
H2855 H 0.82633 0.66367 0.79974 0.0
H2856 H 0.77712 0.66389 0.72271 0.0
H2857 H 0.75697 0.67145 0.79598 0.0
H2858 H 0.79744 0.60593 0.72412 0.0
H2859 H 0.82104 0.63304 0.72922 0.0
H2860 H 0.79654 0.63188 0.70722 0.0
H2861 H 0.77084 0.61356 0.81077 0.0
H2862 H 0.76328 0.64271 0.82294 0.0
H2863 H 0.79431 0.6398 0.82078 0.0
C2864 C 0.80461 0.56004 0.98911 0.0
C2865 C 0.80576 0.58578 0.98936 0.0
C2866 C 0.8256 0.5502 0.99025 0.0
C2867 C 0.84831 0.56653 0.99211 0.0
C2868 C 0.84963 0.5925 0.99192 0.0
C2869 C 0.82829 0.60181 0.99032 0.0
C2870 C 0.82348 0.52236 0.98995 0.0
C2871 C 0.87357 0.61049 0.99417 0.0
C2872 C 0.90047 0.54439 0.02176 0.0
C2873 C 0.91295 0.5377 0.00179 0.0
C2874 C 0.87945 0.55397 0.01884 0.0
C2875 C 0.8706 0.55651 0.99535 0.0
C2876 C 0.88291 0.54928 0.97507 0.0
C2877 C 0.90409 0.5401 0.97856 0.0
C2878 C 0.86694 0.56173 0.04091 0.0
C2879 C 0.87378 0.55133 0.94974 0.0
H2880 H 0.78722 0.54752 0.9881 0.0
H2881 H 0.82925 0.62172 0.99059 0.0
H2882 H 0.83419 0.51512 0.97562 0.0
H2883 H 0.83091 0.51825 0.00741 0.0
H2884 H 0.80452 0.51208 0.98684 0.0
H2885 H 0.87152 0.63001 0.9929 0.0
H2886 H 0.88314 0.60985 0.01176 0.0
H2887 H 0.88513 0.60499 0.97983 0.0
H2888 H 0.90746 0.54271 0.03973 0.0
H2889 H 0.9138 0.53494 0.9631 0.0
H2890 H 0.84821 0.5509 0.0399 0.0
H2891 H 0.86586 0.58174 0.04164 0.0
H2892 H 0.87637 0.55889 0.05791 0.0
H2893 H 0.85516 0.54034 0.94607 0.0
H2894 H 0.88531 0.54457 0.93591 0.0
H2895 H 0.87307 0.57104 0.94779 0.0
C2896 C 0.19911 0.08934 0.78981 0.0
C2897 C 0.17487 0.0887 0.79419 0.0
C2898 C 0.21522 0.11218 0.78985 0.0
C2899 C 0.20695 0.1348 0.79506 0.0
C2900 C 0.18297 0.13418 0.80148 0.0
C2901 C 0.16709 0.11111 0.80058 0.0
C2902 C 0.2405 0.11204 0.78241 0.0
C2903 C 0.17366 0.15787 0.80784 0.0
C2904 C 0.25314 0.19578 0.80375 0.0
C2905 C 0.25083 0.20414 0.78115 0.0
C2906 C 0.23872 0.17336 0.80879 0.0
C2907 C 0.2222 0.15882 0.79055 0.0
C2908 C 0.22003 0.16721 0.76765 0.0
C2909 C 0.23414 0.18993 0.76336 0.0
C2910 C 0.24096 0.16537 0.83362 0.0
C2911 C 0.20292 0.15211 0.74755 0.0
H2912 H 0.20511 0.07202 0.78472 0.0
H2913 H 0.14838 0.11062 0.80422 0.0
H2914 H 0.24239 0.11848 0.76433 0.0
H2915 H 0.25386 0.12511 0.79514 0.0
H2916 H 0.24492 0.09315 0.78154 0.0
H2917 H 0.15607 0.15425 0.81618 0.0
H2918 H 0.18677 0.17139 0.82047 0.0
H2919 H 0.17127 0.16678 0.79127 0.0
H2920 H 0.26595 0.20693 0.81755 0.0
H2921 H 0.23241 0.19637 0.74584 0.0
H2922 H 0.24637 0.14695 0.8324 0.0
H2923 H 0.22323 0.16317 0.84168 0.0
H2924 H 0.25436 0.179 0.84591 0.0
H2925 H 0.20672 0.13301 0.74409 0.0
H2926 H 0.20427 0.16073 0.73048 0.0
H2927 H 0.1841 0.15022 0.75291 0.0
C2928 C 0.34478 0.95293 0.26771 0.0
C2929 C 0.36848 0.95496 0.26061 0.0
C2930 C 0.32923 0.92966 0.26646 0.0
C2931 C 0.33759 0.90784 0.25803 0.0
C2932 C 0.36137 0.9097 0.25056 0.0
C2933 C 0.37654 0.93328 0.25189 0.0
C2934 C 0.30395 0.92841 0.27447 0.0
C2935 C 0.37089 0.88677 0.24152 0.0
C2936 C 0.30653 0.84679 0.27809 0.0
C2937 C 0.29165 0.83569 0.25753 0.0
C2938 C 0.32157 0.87025 0.27845 0.0
C2939 C 0.32166 0.883 0.25781 0.0
C2940 C 0.30644 0.87213 0.23712 0.0
C2941 C 0.29162 0.84857 0.23722 0.0
C2942 C 0.33758 0.88128 0.30085 0.0
C2943 C 0.30595 0.88528 0.21483 0.0
H2944 H 0.33831 0.96958 0.27434 0.0
H2945 H 0.3948 0.93467 0.24636 0.0
H2946 H 0.29064 0.91855 0.25976 0.0
H2947 H 0.30138 0.91759 0.29009 0.0
H2948 H 0.29996 0.94721 0.27975 0.0
H2949 H 0.38958 0.89145 0.23577 0.0
H2950 H 0.37066 0.8744 0.25594 0.0
H2951 H 0.35911 0.87602 0.22604 0.0
H2952 H 0.30681 0.83697 0.29385 0.0
H2953 H 0.28017 0.84018 0.22126 0.0
H2954 H 0.3335 0.8996 0.30783 0.0
H2955 H 0.35673 0.88461 0.29641 0.0
H2956 H 0.33534 0.86896 0.3154 0.0
H2957 H 0.30113 0.90379 0.21943 0.0
H2958 H 0.29288 0.87441 0.20034 0.0
H2959 H 0.32412 0.88861 0.20772 0.0
C2960 C 0.5179 0.38087 0.60341 0.0
C2961 C 0.52459 0.3583 0.59522 0.0
C2962 C 0.51303 0.39723 0.5872 0.0
C2963 C 0.51473 0.39077 0.56219 0.0
C2964 C 0.52067 0.36763 0.55371 0.0
C2965 C 0.52564 0.35168 0.57037 0.0
C2966 C 0.50692 0.42187 0.59694 0.0
C2967 C 0.52236 0.36003 0.52714 0.0
C2968 C 0.48568 0.4303 0.52307 0.0
C2969 C 0.50548 0.44896 0.51969 0.0
C2970 C 0.4886 0.41025 0.53564 0.0
C2971 C 0.5118 0.4091 0.54528 0.0
C2972 C 0.53201 0.42708 0.54076 0.0
C2973 C 0.52864 0.44665 0.52777 0.0
C2974 C 0.46669 0.39114 0.53978 0.0
C2975 C 0.55704 0.42646 0.55079 0.0
H2976 H 0.51701 0.38607 0.62258 0.0
H2977 H 0.53066 0.33417 0.56393 0.0
H2978 H 0.52106 0.43745 0.59268 0.0
H2979 H 0.48964 0.42405 0.58819 0.0
H2980 H 0.50543 0.42363 0.61678 0.0
H2981 H 0.52477 0.34043 0.52333 0.0
H2982 H 0.5059 0.36216 0.51676 0.0
H2983 H 0.53786 0.37243 0.52047 0.0
H2984 H 0.46775 0.43179 0.51666 0.0
H2985 H 0.5441 0.46085 0.5251 0.0
H2986 H 0.46249 0.39379 0.55898 0.0
H2987 H 0.47023 0.37198 0.53594 0.0
H2988 H 0.45062 0.39268 0.52838 0.0
H2989 H 0.55734 0.42679 0.57069 0.0
H2990 H 0.57065 0.44249 0.54651 0.0
H2991 H 0.56239 0.40892 0.54333 0.0
C2992 C 0.40672 0.73645 0.32755 0.0
C2993 C 0.42581 0.75087 0.31712 0.0
C2994 C 0.38377 0.72951 0.31542 0.0
C2995 C 0.38004 0.73715 0.29242 0.0
C2996 C 0.39966 0.75015 0.28117 0.0
C2997 C 0.42226 0.75689 0.29366 0.0
C2998 C 0.36322 0.71529 0.32771 0.0
C2999 C 0.39642 0.75881 0.25671 0.0
C3000 C 0.32174 0.71914 0.25271 0.0
C3001 C 0.31161 0.74013 0.25867 0.0
C3002 C 0.34358 0.71701 0.2645 0.0
C3003 C 0.35532 0.73644 0.28231 0.0
C3004 C 0.34465 0.75724 0.28875 0.0
C3005 C 0.32314 0.75891 0.27668 0.0
C3006 C 0.35447 0.69451 0.25737 0.0
C3007 C 0.35645 0.77841 0.30767 0.0
H3008 H 0.40945 0.73134 0.34549 0.0
H3009 H 0.43703 0.76755 0.28521 0.0
H3010 H 0.34942 0.72688 0.33115 0.0
H3011 H 0.35434 0.69825 0.31575 0.0
H3012 H 0.36927 0.70979 0.34514 0.0
H3013 H 0.41392 0.76566 0.24913 0.0
H3014 H 0.38582 0.74347 0.24377 0.0
H3015 H 0.38627 0.77423 0.25836 0.0
H3016 H 0.31277 0.70462 0.23878 0.0
H3017 H 0.31561 0.77541 0.28108 0.0
H3018 H 0.36089 0.68714 0.2736 0.0
H3019 H 0.3703 0.69999 0.24675 0.0
H3020 H 0.34143 0.67939 0.24626 0.0
H3021 H 0.36055 0.77109 0.32476 0.0
H3022 H 0.34494 0.79243 0.31154 0.0
H3023 H 0.37375 0.78801 0.30147 0.0
C3024 C 0.03591 0.69436 0.12997 0.0
C3025 C 0.0358 0.71643 0.11957 0.0
C3026 C 0.03338 0.67131 0.11559 0.0
C3027 C 0.03096 0.67031 0.09017 0.0
C3028 C 0.03115 0.69252 0.07952 0.0
C3029 C 0.03341 0.7153 0.09435 0.0
C3030 C 0.033 0.64798 0.12763 0.0
C3031 C 0.0289 0.6922 0.05246 0.0
C3032 C 0.04491 0.6126 0.05411 0.0
C3033 C 0.02176 0.59821 0.048 0.0
C3034 C 0.04817 0.63639 0.0673 0.0
C3035 C 0.0278 0.64588 0.07481 0.0
C3036 C 0.00439 0.63163 0.06838 0.0
C3037 C 0.00165 0.60804 0.05494 0.0
C3038 C 0.07341 0.65121 0.07353 0.0
C3039 C 0.98223 0.641 0.07626 0.0
H3040 H 0.03765 0.69502 0.14943 0.0
H3041 H 0.03344 0.73226 0.08614 0.0
H3042 H 0.01574 0.63465 0.12253 0.0
H3043 H 0.04769 0.63861 0.12135 0.0
H3044 H 0.03513 0.65196 0.14761 0.0
H3045 H 0.03007 0.71119 0.047 0.0
H3046 H 0.04333 0.68378 0.04412 0.0
H3047 H 0.01142 0.68046 0.04504 0.0
H3048 H 0.06056 0.60524 0.04869 0.0
H3049 H 0.98368 0.59705 0.0504 0.0
H3050 H 0.07719 0.65403 0.09339 0.0
H3051 H 0.07517 0.66995 0.06742 0.0
H3052 H 0.08726 0.64178 0.06522 0.0
H3053 H 0.98256 0.64366 0.09625 0.0
H3054 H 0.96529 0.62794 0.0692 0.0
H3055 H 0.98205 0.65942 0.07 0.0
C3056 C 0.08203 0.25643 0.84771 0.0
C3057 C 0.05921 0.24819 0.83573 0.0
C3058 C 0.10296 0.25573 0.83534 0.0
C3059 C 0.10089 0.2465 0.8105 0.0
C3060 C 0.07791 0.23751 0.79851 0.0
C3061 C 0.05733 0.23852 0.81126 0.0
C3062 C 0.12727 0.26538 0.84867 0.0
C3063 C 0.07505 0.22722 0.77212 0.0
C3064 C 0.1533 0.2704 0.7741 0.0
C3065 C 0.16602 0.25091 0.77346 0.0
C3066 C 0.13176 0.26894 0.78571 0.0
C3067 C 0.12275 0.2474 0.79675 0.0
C3068 C 0.13495 0.22715 0.79516 0.0
C3069 C 0.1566 0.22922 0.7836 0.0
C3070 C 0.11913 0.29083 0.78692 0.0
C3071 C 0.12577 0.20377 0.8065 0.0
H3072 H 0.08355 0.26381 0.86664 0.0
H3073 H 0.03972 0.2319 0.80194 0.0
H3074 H 0.13836 0.25077 0.84696 0.0
H3075 H 0.13701 0.28162 0.84054 0.0
H3076 H 0.12579 0.2712 0.86813 0.0
H3077 H 0.0559 0.21991 0.76576 0.0
H3078 H 0.08267 0.24205 0.76109 0.0
H3079 H 0.08524 0.21195 0.76884 0.0
H3080 H 0.16063 0.2872 0.76628 0.0
H3081 H 0.16651 0.21416 0.78317 0.0
H3082 H 0.11887 0.29886 0.806 0.0
H3083 H 0.10013 0.28459 0.77971 0.0
H3084 H 0.12803 0.30579 0.7766 0.0
H3085 H 0.1298 0.20759 0.82631 0.0
H3086 H 0.13438 0.18813 0.79953 0.0
H3087 H 0.10596 0.19778 0.80317 0.0
C3088 C 0.52898 0.70967 0.95957 0.0
C3089 C 0.53033 0.70693 0.93444 0.0
C3090 C 0.52684 0.68892 0.97249 0.0
C3091 C 0.52649 0.66498 0.96003 0.0
C3092 C 0.52863 0.66227 0.93477 0.0
C3093 C 0.53023 0.68322 0.92225 0.0
C3094 C 0.52478 0.69251 -0.00057 0.0
C3095 C 0.52913 0.63718 0.92096 0.0
C3096 C 0.53943 0.611 0.99219 0.0
C3097 C 0.51627 0.5963 0.99205 0.0
C3098 C 0.54302 0.63405 0.98285 0.0
C3099 C 0.52298 0.6425 0.97308 0.0
C3100 C 0.49948 0.62835 0.97411 0.0
C3101 C 0.49642 0.60542 0.98348 0.0
C3102 C 0.56845 0.64843 0.9823 0.0
C3103 C 0.47758 0.63692 0.96436 0.0
H3104 H 0.52912 0.72798 0.9691 0.0
H3105 H 0.5316 0.68104 0.90287 0.0
H3106 H 0.50756 0.68121 0.00408 0.0
H3107 H 0.53959 0.68581 0.0087 0.0
H3108 H 0.52552 0.71235 0.00649 0.0
H3109 H 0.53184 0.63837 0.90153 0.0
H3110 H 0.54385 0.6292 0.92881 0.0
H3111 H 0.51195 0.62401 0.92254 0.0
H3112 H 0.55491 0.60405 -0.00142 0.0
H3113 H 0.47844 0.59429 0.98351 0.0
H3114 H 0.56931 0.66874 0.98233 0.0
H3115 H 0.57629 0.64144 0.96565 0.0
H3116 H 0.57981 0.6456 -0.00196 0.0
H3117 H 0.47776 0.65646 0.97199 0.0
H3118 H 0.46048 0.62497 0.96852 0.0
H3119 H 0.47792 0.6365 0.94449 0.0
C3120 C 0.08342 0.77833 0.64791 0.0
C3121 C 0.07359 0.76632 0.62528 0.0
C3122 C 0.1055 0.77461 0.65746 0.0
C3123 C 0.11795 0.75822 0.64414 0.0
C3124 C 0.10868 0.74687 0.62078 0.0
C3125 C 0.08658 0.75117 0.61154 0.0
C3126 C 0.11498 0.78742 0.68227 0.0
C3127 C 0.12146 0.72929 0.60609 0.0
C3128 C 0.18198 0.76401 0.66961 0.0
C3129 C 0.17872 0.74644 0.68613 0.0
C3130 C 0.16265 0.76691 0.65438 0.0
C3131 C 0.13966 0.75179 0.65572 0.0
C3132 C 0.13683 0.73265 0.67099 0.0
C3133 C 0.15643 0.73026 0.68611 0.0
C3134 C 0.16645 0.78742 0.63827 0.0
C3135 C 0.11267 0.7159 0.67269 0.0
H3136 H 0.07352 0.79025 0.65847 0.0
H3137 H 0.079 0.74182 0.59403 0.0
H3138 H 0.11499 0.77327 0.69497 0.0
H3139 H 0.13384 0.79751 0.68179 0.0
H3140 H 0.10398 0.80092 0.68949 0.0
H3141 H 0.11357 0.72451 0.58723 0.0
H3142 H 0.14088 0.73758 0.60579 0.0
H3143 H 0.12017 0.71179 0.61453 0.0
H3144 H 0.19931 0.77641 0.66948 0.0
H3145 H 0.15397 0.7165 0.69873 0.0
H3146 H 0.15854 0.8032 0.64622 0.0
H3147 H 0.15724 0.78082 0.62016 0.0
H3148 H 0.18588 0.79451 0.63617 0.0
H3149 H 0.10044 0.72686 0.68192 0.0
H3150 H 0.11416 0.7 0.68293 0.0
H3151 H 0.10422 0.70842 0.65443 0.0
C3152 C 0.06474 0.3756 0.41942 0.0
C3153 C 0.05825 0.35218 0.42766 0.0
C3154 C 0.06371 0.39759 0.43433 0.0
C3155 C 0.05594 0.39604 0.45793 0.0
C3156 C 0.05123 0.37267 0.46696 0.0
C3157 C 0.05252 0.35101 0.45173 0.0
C3158 C 0.06925 0.42227 0.42423 0.0
C3159 C 0.04285 0.37026 0.49203 0.0
C3160 C 0.0577 0.45489 0.5013 0.0
C3161 C 0.03417 0.45869 0.49746 0.0
C3162 C 0.0653 0.43464 0.48841 0.0
C3163 C 0.04885 0.41794 0.47155 0.0
C3164 C 0.02504 0.42176 0.46779 0.0
C3165 C 0.018 0.44203 0.48087 0.0
C3166 C 0.09084 0.43116 0.49272 0.0
C3167 C 0.00692 0.40441 0.44995 0.0
H3168 H 0.06953 0.37674 0.40096 0.0
H3169 H 0.04772 0.33304 0.45836 0.0
H3170 H 0.05247 0.42959 0.42203 0.0
H3171 H 0.08189 0.43621 0.43693 0.0
H3172 H 0.07722 0.42062 0.40645 0.0
H3173 H 0.04334 0.35155 0.49753 0.0
H3174 H 0.05412 0.38466 0.50542 0.0
H3175 H 0.02405 0.37325 0.49257 0.0
H3176 H 0.0702 0.46787 0.51413 0.0
H3177 H -0.0003 0.44482 0.4781 0.0
H3178 H 0.10005 0.43147 0.47561 0.0
H3179 H 0.09084 0.41268 0.49891 0.0
H3180 H 0.10141 0.44586 0.50638 0.0
H3181 H 0.01375 0.40397 0.43163 0.0
H3182 H 0.98916 0.41013 0.44917 0.0
H3183 H 0.00427 0.38513 0.4549 0.0
C3184 C 0.45126 0.26188 0.20385 0.0
C3185 C 0.45092 0.26413 0.17907 0.0
C3186 C 0.43093 0.2635 0.21692 0.0
C3187 C 0.40965 0.26707 0.20483 0.0
C3188 C 0.4092 0.26943 0.17984 0.0
C3189 C 0.42991 0.26813 0.16729 0.0
C3190 C 0.43218 0.26129 0.24362 0.0
C3191 C 0.3867 0.27297 0.1663 0.0
C3192 C 0.34926 0.24693 0.23075 0.0
C3193 C 0.34394 0.26996 0.23977 0.0
C3194 C 0.37087 0.24567 0.21981 0.0
C3195 C 0.38768 0.26795 0.21817 0.0
C3196 C 0.38295 0.29114 0.22829 0.0
C3197 C 0.36105 0.29189 0.23884 0.0
C3198 C 0.37522 0.22059 0.20907 0.0
C3199 C 0.40068 0.31523 0.22729 0.0
H3200 H 0.4675 0.25898 0.21312 0.0
H3201 H 0.4295 0.26977 0.14814 0.0
H3202 H 0.42742 0.27797 0.25381 0.0
H3203 H 0.41888 0.24482 0.24744 0.0
H3204 H 0.45035 0.2594 0.25046 0.0
H3205 H 0.38932 0.27447 0.14689 0.0
H3206 H 0.37174 0.25703 0.16775 0.0
H3207 H 0.38105 0.29011 0.17442 0.0
H3208 H 0.33611 0.2299 0.2313 0.0
H3209 H 0.35714 0.30974 0.24593 0.0
H3210 H 0.39284 0.21754 0.2162 0.0
H3211 H 0.37592 0.22016 0.18922 0.0
H3212 H 0.36092 0.20493 0.21294 0.0
H3213 H 0.41883 0.3137 0.23446 0.0
H3214 H 0.39519 0.3314 0.23772 0.0
H3215 H 0.40224 0.31899 0.20826 0.0
C3216 C 0.58308 0.4898 0.34708 0.0
C3217 C 0.57237 0.49894 0.32773 0.0
C3218 C 0.5714 0.48706 0.36863 0.0
C3219 C 0.54854 0.49364 0.37081 0.0
C3220 C 0.53725 0.50185 0.35099 0.0
C3221 C 0.54925 0.50434 0.32974 0.0
C3222 C 0.5839 0.47811 0.38937 0.0
C3223 C 0.51292 0.50913 0.35257 0.0
C3224 C 0.50695 0.47577 0.42035 0.0
C3225 C 0.51107 0.49812 0.43596 0.0
C3226 C 0.5199 0.47352 0.39957 0.0
C3227 C 0.53717 0.49418 0.39432 0.0
C3228 C 0.54191 0.51648 0.41053 0.0
C3229 C 0.52877 0.51817 0.43111 0.0
C3230 C 0.51451 0.44938 0.38282 0.0
C3231 C 0.56009 0.539 0.40562 0.0
H3232 H 0.60088 0.48549 0.34569 0.0
H3233 H 0.54068 0.51121 0.31487 0.0
H3234 H 0.58892 0.49353 0.40434 0.0
H3235 H 0.57158 0.46273 0.39644 0.0
H3236 H 0.60048 0.47148 0.38408 0.0
H3237 H 0.50594 0.51363 0.33505 0.0
H3238 H 0.49963 0.49382 0.35855 0.0
H3239 H 0.51428 0.52572 0.36618 0.0
H3240 H 0.49335 0.46019 0.42417 0.0
H3241 H 0.53194 0.53555 0.44308 0.0
H3242 H 0.53147 0.44315 0.37835 0.0
H3243 H 0.50553 0.45234 0.36566 0.0
H3244 H 0.5026 0.43428 0.39075 0.0
H3245 H 0.57767 0.53373 0.40206 0.0
H3246 H 0.56292 0.55422 0.42089 0.0
H3247 H 0.55384 0.5463 0.38925 0.0
C3248 C 0.23562 0.84881 0.07666 0.0
C3249 C 0.22653 0.83741 0.0536 0.0
C3250 C 0.23703 0.83459 0.09579 0.0
C3251 C 0.2295 0.80831 0.09161 0.0
C3252 C 0.22042 0.79666 0.06834 0.0
C3253 C 0.21888 0.81139 0.04961 0.0
C3254 C 0.2465 0.8477 0.1205 0.0
C3255 C 0.21251 0.76866 0.06321 0.0
C3256 C 0.25568 0.77473 0.13864 0.0
C3257 C 0.23716 0.77186 0.15449 0.0
C3258 C 0.25296 0.7854 0.1173 0.0
C3259 C 0.23118 0.79324 0.11181 0.0
C3260 C 0.21185 0.78881 0.12699 0.0
C3261 C 0.21512 0.77825 0.14828 0.0
C3262 C 0.27385 0.78955 0.10136 0.0
C3263 C 0.18822 0.79653 0.12146 0.0
H3264 H 0.24145 0.86892 0.07984 0.0
H3265 H 0.21195 0.80249 0.03175 0.0
H3266 H 0.23269 0.84344 0.13372 0.0
H3267 H 0.26263 0.84082 0.12663 0.0
H3268 H 0.25144 0.86828 0.12074 0.0
H3269 H 0.20582 0.76253 0.04411 0.0
H3270 H 0.22779 0.75953 0.06736 0.0
H3271 H 0.198 0.76198 0.07501 0.0
H3272 H 0.27269 0.76968 0.14342 0.0
H3273 H 0.20071 0.77583 0.16048 0.0
H3274 H 0.28153 0.80982 0.10258 0.0
H3275 H 0.2677 0.78298 0.08223 0.0
H3276 H 0.28838 0.77981 0.10662 0.0
H3277 H 0.1817 0.79025 0.10237 0.0
H3278 H 0.19091 0.81719 0.12407 0.0
H3279 H 0.17404 0.78882 0.13321 0.0
C3280 C 0.97584 0.53798 0.84275 0.0
C3281 C 0.95561 0.54777 0.83661 0.0
C3282 C 0.98594 0.54175 0.86642 0.0
C3283 C 0.97567 0.55582 0.88443 0.0
C3284 C 0.95597 0.56679 0.87823 0.0
C3285 C 0.94603 0.56251 0.85433 0.0
C3286 C 0.00679 0.52945 0.87237 0.0
C3287 C 0.94476 0.58211 0.89699 0.0
C3288 C 0.98361 0.53262 0.94431 0.0
C3289 C 0.00456 0.54893 0.95452 0.0
C3290 C 0.97291 0.53591 0.92229 0.0
C3291 C 0.98364 0.55588 0.90998 0.0
C3292 C 0.00403 0.57332 0.92081 0.0
C3293 C 0.01439 0.56956 0.94306 0.0
C3294 C 0.95121 0.51681 0.91139 0.0
C3295 C 0.01566 0.59504 0.90828 0.0
H3296 H 0.9835 0.52672 0.82917 0.0
H3297 H 0.93058 0.5704 0.84965 0.0
H3298 H 0.02176 0.5433 0.88237 0.0
H3299 H 0.00094 0.51479 0.88419 0.0
H3300 H 0.01378 0.5207 0.85598 0.0
H3301 H 0.93229 0.5926 0.88869 0.0
H3302 H 0.93446 0.56963 0.90884 0.0
H3303 H 0.95891 0.59552 0.9086 0.0
H3304 H 0.97614 0.51642 0.95293 0.0
H3305 H 0.03053 0.58224 0.95106 0.0
H3306 H 0.95646 0.5054 0.89561 0.0
H3307 H 0.93689 0.52614 0.90488 0.0
H3308 H 0.94357 0.50409 0.92446 0.0
H3309 H 0.02563 0.58817 0.89313 0.0
H3310 H 0.02852 0.60911 0.92071 0.0
H3311 H 0.0018 0.60424 0.90055 0.0
C3312 C 0.25999 0.19988 0.568 0.0
C3313 C 0.25453 0.1737 0.56529 0.0
C3314 C 0.26201 0.21372 0.59098 0.0
C3315 C 0.25883 0.20104 0.61169 0.0
C3316 C 0.25372 0.17464 0.60906 0.0
C3317 C 0.25148 0.16132 0.58593 0.0
C3318 C 0.26719 0.24186 0.59308 0.0
C3319 C 0.25049 0.1604 0.6307 0.0
C3320 C 0.28302 0.23308 0.67406 0.0
C3321 C 0.26185 0.23739 0.68442 0.0
C3322 C 0.28245 0.2219 0.65014 0.0
C3323 C 0.26023 0.21519 0.63617 0.0
C3324 C 0.23898 0.22039 0.64623 0.0
C3325 C 0.24001 0.23126 0.67027 0.0
C3326 C 0.30545 0.21641 0.64014 0.0
C3327 C 0.21499 0.21381 0.63182 0.0
H3328 H 0.26231 0.20958 0.55215 0.0
H3329 H 0.24747 0.1411 0.58406 0.0
H3330 H 0.25218 0.24913 0.60158 0.0
H3331 H 0.28374 0.24956 0.60492 0.0
H3332 H 0.26954 0.24889 0.57528 0.0
H3333 H 0.24743 0.13988 0.62562 0.0
H3334 H 0.26666 0.16613 0.64346 0.0
H3335 H 0.23491 0.16485 0.64045 0.0
H3336 H 0.29997 0.23774 0.68487 0.0
H3337 H 0.22361 0.23479 0.67804 0.0
H3338 H 0.30832 0.22415 0.62276 0.0
H3339 H 0.30405 0.19592 0.63647 0.0
H3340 H 0.32146 0.22425 0.65275 0.0
H3341 H 0.21648 0.22157 0.61433 0.0
H3342 H 0.20056 0.22093 0.6416 0.0
H3343 H 0.20953 0.19323 0.62775 0.0
C3344 C 0.63794 0.52483 0.18434 0.0
C3345 C 0.62084 0.50985 0.19669 0.0
C3346 C 0.63203 0.53104 0.16141 0.0
C3347 C 0.60858 0.52178 0.15047 0.0
C3348 C 0.59148 0.50608 0.16258 0.0
C3349 C 0.59777 0.50044 0.1856 0.0
C3350 C 0.65067 0.548 0.14917 0.0
C3351 C 0.56637 0.49553 0.15138 0.0
C3352 C 0.57935 0.55306 0.10329 0.0
C3353 C 0.58038 0.53691 0.08232 0.0
C3354 C 0.58991 0.54934 0.12543 0.0
C3355 C 0.60151 0.52881 0.1266 0.0
C3356 C 0.60406 0.51353 0.10514 0.0
C3357 C 0.59358 0.51787 0.08319 0.0
C3358 C 0.58723 0.56637 0.14783 0.0
C3359 C 0.61624 0.49143 0.10557 0.0
H3360 H 0.65579 0.53226 0.19285 0.0
H3361 H 0.58452 0.48879 0.19501 0.0
H3362 H 0.6532 0.539 0.13096 0.0
H3363 H 0.64434 0.5655 0.14674 0.0
H3364 H 0.66837 0.55284 0.15967 0.0
H3365 H 0.55553 0.48284 0.16273 0.0
H3366 H 0.55685 0.51095 0.14862 0.0
H3367 H 0.56728 0.48506 0.1334 0.0
H3368 H 0.56921 0.56784 0.10264 0.0
H3369 H 0.59442 0.50533 0.067 0.0
H3370 H 0.6047 0.57241 0.15858 0.0
H3371 H 0.57429 0.55612 0.15933 0.0
H3372 H 0.58056 0.5832 0.14348 0.0
H3373 H 0.63376 0.49684 0.11629 0.0
H3374 H 0.61936 0.48334 0.08715 0.0
H3375 H 0.60477 0.47674 0.11437 0.0
C3376 C 0.19624 0.84288 0.89237 0.0
C3377 C 0.19917 0.83814 0.91634 0.0
C3378 C 0.19589 0.82406 0.87322 0.0
C3379 C 0.19852 0.79999 0.87822 0.0
C3380 C 0.19899 0.79444 0.9023 0.0
C3381 C 0.19933 0.81363 0.92113 0.0
C3382 C 0.19496 0.83061 0.84769 0.0
C3383 C 0.20132 0.76888 0.90831 0.0
C3384 C 0.194 0.7537 0.82196 0.0
C3385 C 0.21802 0.75824 0.81583 0.0
C3386 C 0.18735 0.76578 0.84337 0.0
C3387 C 0.20522 0.78255 0.85872 0.0
C3388 C 0.22977 0.78517 0.8536 0.0
C3389 C 0.23584 0.77298 0.83216 0.0
C3390 C 0.16105 0.76227 0.8484 0.0
C3391 C 0.24948 0.80264 0.8696 0.0
H3392 H 0.19572 0.86165 0.88848 0.0
H3393 H 0.20116 0.80966 0.93961 0.0
H3394 H 0.213 0.83151 0.84045 0.0
H3395 H 0.18207 0.81607 0.83584 0.0
H3396 H 0.18961 0.84889 0.84673 0.0
H3397 H 0.19638 0.76613 0.92699 0.0
H3398 H 0.18981 0.75403 0.89553 0.0
H3399 H 0.22026 0.76665 0.90673 0.0
H3400 H 0.1802 0.74233 0.80924 0.0
H3401 H 0.25442 0.77637 0.82737 0.0
H3402 H 0.15369 0.77823 0.84284 0.0
H3403 H 0.15857 0.76177 0.86793 0.0
H3404 H 0.15041 0.74484 0.83822 0.0
H3405 H 0.24781 0.82223 0.86827 0.0
H3406 H 0.26774 0.80042 0.86444 0.0
H3407 H 0.24778 0.79937 0.88873 0.0
C3408 C 0.96169 0.57056 0.70828 0.0
C3409 C 0.93652 0.56329 0.70533 0.0
C3410 C 0.97583 0.57057 0.68837 0.0
C3411 C 0.96443 0.56315 0.66504 0.0
C3412 C 0.93895 0.55769 0.6618 0.0
C3413 C 0.92524 0.55782 0.68207 0.0
C3414 C 0.00293 0.57671 0.69254 0.0
C3415 C 0.92622 0.55006 0.63704 0.0
C3416 C -0.00327 0.56947 0.60757 0.0
C3417 C -0.00016 0.54492 0.60149 0.0
C3418 C 0.98644 0.57621 0.62906 0.0
C3419 C 0.97888 0.55782 0.64439 0.0
C3420 C 0.98342 0.53344 0.63901 0.0
C3421 C 0.99402 0.52732 0.61761 0.0
C3422 C 0.98269 0.60262 0.63487 0.0
C3423 C 0.97581 0.51339 0.65511 0.0
H3424 H 0.97051 0.57517 0.72626 0.0
H3425 H 0.90578 0.55248 0.67972 0.0
H3426 H 0.00993 0.55913 0.69104 0.0
H3427 H 0.0113 0.58803 0.67877 0.0
H3428 H 0.00873 0.58698 0.71073 0.0
H3429 H 0.90645 0.54883 0.63741 0.0
H3430 H 0.93337 0.56355 0.6245 0.0
H3431 H 0.9296 0.53154 0.62965 0.0
H3432 H 0.00154 0.58314 0.59514 0.0
H3433 H -0.00346 0.50837 0.6129 0.0
H3434 H 0.99034 0.61034 0.65335 0.0
H3435 H 0.96312 0.60271 0.6345 0.0
H3436 H 0.99112 0.61511 0.62197 0.0
H3437 H 0.98294 0.52003 0.67396 0.0
H3438 H 0.98213 0.49591 0.64915 0.0
H3439 H 0.95586 0.50902 0.6551 0.0
C3440 C 0.2934 0.1888 0.40509 0.0
C3441 C 0.28308 0.19856 0.42548 0.0
C3442 C 0.2972 0.20206 0.38506 0.0
C3443 C 0.29039 0.22555 0.38541 0.0
C3444 C 0.28111 0.23603 0.40641 0.0
C3445 C 0.27766 0.22245 0.42623 0.0
C3446 C 0.30752 0.19049 0.36312 0.0
C3447 C 0.27345 0.26094 0.40742 0.0
C3448 C 0.30905 0.26794 0.33717 0.0
C3449 C 0.28836 0.26223 0.32137 0.0
C3450 C 0.31026 0.25583 0.35796 0.0
C3451 C 0.29025 0.23778 0.36298 0.0
C3452 C 0.26946 0.23181 0.34686 0.0
C3453 C 0.26875 0.24418 0.32635 0.0
C3454 C 0.33277 0.26253 0.37466 0.0
C3455 C 0.24776 0.2126 0.35143 0.0
H3456 H 0.29785 0.17044 0.40446 0.0
H3457 H 0.26973 0.23014 0.44193 0.0
H3458 H 0.31238 0.17233 0.36589 0.0
H3459 H 0.29429 0.18753 0.34735 0.0
H3460 H 0.32383 0.20334 0.35853 0.0
H3461 H 0.26881 0.26759 0.42579 0.0
H3462 H 0.28797 0.27522 0.40163 0.0
H3463 H 0.25744 0.25931 0.39476 0.0
H3464 H 0.32421 0.28192 0.33332 0.0
H3465 H 0.25255 0.24003 0.31441 0.0
H3466 H 0.33984 0.2455 0.37737 0.0
H3467 H 0.32847 0.2707 0.39261 0.0
H3468 H 0.34713 0.27612 0.36764 0.0
H3469 H 0.25305 0.19438 0.35287 0.0
H3470 H 0.23317 0.2099 0.33691 0.0
H3471 H 0.2405 0.2184 0.36882 0.0
C3472 C 0.30069 0.55622 0.52282 0.0
C3473 C 0.30871 0.58216 0.52447 0.0
C3474 C 0.3165 0.5399 0.51783 0.0
C3475 C 0.34099 0.54985 0.51509 0.0
C3476 C 0.34928 0.57605 0.51713 0.0
C3477 C 0.33291 0.59193 0.52146 0.0
C3478 C 0.30697 0.51208 0.51515 0.0
C3479 C 0.37546 0.58732 0.51482 0.0
C3480 C 0.39087 0.51505 0.52588 0.0
C3481 C 0.39816 0.51068 0.50243 0.0
C3482 C 0.37098 0.5262 0.53016 0.0
C3483 C 0.35826 0.53306 0.51048 0.0
C3484 C 0.36411 0.5264 0.4866 0.0
C3485 C 0.38414 0.51527 0.48283 0.0
C3486 C 0.36501 0.53265 0.55586 0.0
C3487 C 0.35044 0.53276 0.46514 0.0
H3488 H 0.28185 0.54863 0.52477 0.0
H3489 H 0.33907 0.61197 0.52275 0.0
H3490 H 0.31016 0.50364 0.49691 0.0
H3491 H 0.31672 0.5033 0.52837 0.0
H3492 H 0.28738 0.50739 0.51782 0.0
H3493 H 0.37903 0.60805 0.51739 0.0
H3494 H 0.38695 0.58085 0.5284 0.0
H3495 H 0.381 0.58103 0.49674 0.0
H3496 H 0.40165 0.51135 0.54107 0.0
H3497 H 0.38971 0.51173 0.46467 0.0
H3498 H 0.34529 0.52862 0.55764 0.0
H3499 H 0.37152 0.55294 0.56127 0.0
H3500 H 0.37355 0.5222 0.56853 0.0
H3501 H 0.33074 0.52816 0.46707 0.0
H3502 H 0.35455 0.52272 0.44794 0.0
H3503 H 0.35541 0.55311 0.46407 0.0
C3504 C 0.84149 0.93752 0.53612 0.0
C3505 C 0.82554 0.94812 0.52263 0.0
C3506 C 0.86604 0.94863 0.53955 0.0
C3507 C 0.8747 0.97076 0.52921 0.0
C3508 C 0.8586 0.98182 0.51609 0.0
C3509 C 0.83426 0.9704 0.51298 0.0
C3510 C 0.88283 0.93638 0.55364 0.0
C3511 C 0.86719 0.00533 0.50466 0.0
C3512 C 0.93601 0.01138 0.54853 0.0
C3513 C 0.94977 0.0036 0.53004 0.0
C3514 C 0.91155 0.00039 0.54891 0.0
C3515 C 0.90083 0.98137 0.5303 0.0
C3516 C 0.91476 0.97345 0.51168 0.0
C3517 C 0.93906 0.98465 0.51181 0.0
C3518 C 0.89712 0.00926 0.56901 0.0
C3519 C 0.90393 0.95337 0.49139 0.0
H3520 H 0.83488 0.92041 0.54374 0.0
H3521 H 0.8221 0.97888 0.50264 0.0
H3522 H 0.8958 0.9296 0.5415 0.0
H3523 H 0.89348 0.95013 0.56802 0.0
H3524 H 0.87301 0.92034 0.56203 0.0
H3525 H 0.8521 0.01238 0.49629 0.0
H3526 H 0.87737 0.02023 0.51832 0.0
H3527 H 0.87964 0.00163 0.49051 0.0
H3528 H 0.94437 0.02594 0.56271 0.0
H3529 H 0.94973 0.97843 0.4976 0.0
H3530 H 0.88844 0.99323 0.57808 0.0
H3531 H 0.88252 0.01759 0.56147 0.0
H3532 H 0.90841 0.02337 0.58271 0.0
H3533 H 0.8955 0.93613 0.4988 0.0
H3534 H 0.91753 0.94875 0.4788 0.0
H3535 H 0.88955 0.95959 0.48097 0.0
C3536 C 0.82387 0.10114 0.26513 0.0
C3537 C 0.82493 0.08933 0.2418 0.0
C3538 C 0.81282 0.12189 0.269 0.0
C3539 C 0.80355 0.13162 0.24895 0.0
C3540 C 0.80428 0.11949 0.22536 0.0
C3541 C 0.81457 0.09818 0.22212 0.0
C3542 C 0.81165 0.13381 0.29447 0.0
C3543 C 0.7954 0.12978 0.20346 0.0
C3544 C 0.76264 0.179 0.25692 0.0
C3545 C 0.77943 0.20148 0.25865 0.0
C3546 C 0.77024 0.15601 0.25436 0.0
C3547 C 0.79504 0.15566 0.25247 0.0
C3548 C 0.81193 0.17843 0.25368 0.0
C3549 C 0.80394 0.20106 0.25721 0.0
C3550 C 0.75183 0.13215 0.25393 0.0
C3551 C 0.8384 0.17892 0.25087 0.0
H3552 H 0.83174 0.09415 0.28035 0.0
H3553 H 0.81559 0.08915 0.20404 0.0
H3554 H 0.82393 0.15233 0.29739 0.0
H3555 H 0.79317 0.13688 0.29751 0.0
H3556 H 0.8169 0.12223 0.3081 0.0
H3557 H 0.79636 0.11758 0.18645 0.0
H3558 H 0.77652 0.13212 0.20509 0.0
H3559 H 0.80646 0.14852 0.2022 0.0
H3560 H 0.74368 0.17945 0.2581 0.0
H3561 H 0.81685 0.21853 0.2582 0.0
H3562 H 0.7569 0.12129 0.26825 0.0
H3563 H 0.75144 0.12038 0.23643 0.0
H3564 H 0.73342 0.13569 0.25668 0.0
H3565 H 0.84593 0.17015 0.2656 0.0
H3566 H 0.84897 0.19819 0.25117 0.0
H3567 H 0.84085 0.16794 0.23358 0.0
C3568 C 0.67675 0.10471 0.02055 0.0
C3569 C 0.68548 0.12982 0.01794 0.0
C3570 C 0.65204 0.09506 0.01978 0.0
C3571 C 0.63559 0.11087 0.01608 0.0
C3572 C 0.64421 0.13637 0.0138 0.0
C3573 C 0.66917 0.14562 0.01486 0.0
C3574 C 0.64356 0.06777 0.02247 0.0
C3575 C 0.6271 0.15365 0.00969 0.0
C3576 C 0.57605 0.07283 0.98933 0.0
C3577 C 0.56333 0.06938 0.01005 0.0
C3578 C 0.59898 0.08808 0.99076 0.0
C3579 C 0.60948 0.09997 0.01351 0.0
C3580 C 0.59607 0.098 0.03423 0.0
C3581 C 0.57304 0.08276 0.03224 0.0
C3582 C 0.6126 0.09001 0.96818 0.0
C3583 C 0.60668 0.11047 0.05879 0.0
H3584 H 0.68928 0.09245 0.02314 0.0
H3585 H 0.6759 0.16506 0.01284 0.0
H3586 H 0.6312 0.06576 0.03731 0.0
H3587 H 0.63335 0.05795 0.00566 0.0
H3588 H 0.65873 0.05833 0.02632 0.0
H3589 H 0.63665 0.17331 0.00992 0.0
H3590 H 0.61687 0.14754 0.99199 0.0
H3591 H 0.61377 0.15284 0.0237 0.0
H3592 H 0.56842 0.063 0.97201 0.0
H3593 H 0.56317 0.08046 0.0483 0.0
H3594 H 0.62713 0.07909 0.96883 0.0
H3595 H 0.62124 0.10967 0.96696 0.0
H3596 H 0.60073 0.08274 0.95159 0.0
H3597 H 0.62036 0.10036 0.06536 0.0
H3598 H 0.59274 0.11051 0.07218 0.0
H3599 H 0.6159 0.12999 0.0578 0.0
C3600 C 0.20442 0.45735 0.24843 0.0
C3601 C 0.18114 0.44261 0.24688 0.0
C3602 C 0.22477 0.44695 0.25241 0.0
C3603 C 0.22166 0.4212 0.25458 0.0
C3604 C 0.19817 0.40639 0.25373 0.0
C3605 C 0.17818 0.41733 0.25001 0.0
C3606 C 0.24954 0.46327 0.25342 0.0
C3607 C 0.19415 0.37877 0.25592 0.0
C3608 C 0.2648 0.37967 0.23635 0.0
C3609 C 0.27127 0.37297 0.25879 0.0
C3610 C 0.25061 0.39771 0.23476 0.0
C3611 C 0.24271 0.409 0.25615 0.0
C3612 C 0.25181 0.40459 0.2789 0.0
C3613 C 0.26612 0.38654 0.27997 0.0
C3614 C 0.24186 0.40227 0.21008 0.0
C3615 C 0.24432 0.41682 0.3021 0.0
H3616 H 0.20678 0.47699 0.2462 0.0
H3617 H 0.16022 0.4059 0.24889 0.0
H3618 H 0.26058 0.46056 0.26942 0.0
H3619 H 0.25889 0.45787 0.23722 0.0
H3620 H 0.24879 0.48337 0.25412 0.0
H3621 H 0.17473 0.37012 0.25566 0.0
H3622 H 0.20219 0.36907 0.2408 0.0
H3623 H 0.2032 0.37555 0.27295 0.0
H3624 H 0.26909 0.36939 0.21994 0.0
H3625 H 0.27137 0.38153 0.29736 0.0
H3626 H 0.23874 0.42154 0.20992 0.0
H3627 H 0.22455 0.38915 0.20455 0.0
H3628 H 0.255 0.39898 0.19649 0.0
H3629 H 0.24368 0.43667 0.30085 0.0
H3630 H 0.25675 0.41577 0.31771 0.0
H3631 H 0.22597 0.40715 0.30561 0.0
C3632 C 0.20185 0.45818 0.0315 0.0
C3633 C 0.19526 0.43227 0.03177 0.0
C3634 C 0.18441 0.47297 0.02995 0.0
C3635 C 0.15975 0.46163 0.02891 0.0
C3636 C 0.15293 0.43554 0.02954 0.0
C3637 C 0.1708 0.4211 0.0308 0.0
C3638 C 0.1924 0.50066 0.02902 0.0
C3639 C 0.12675 0.42291 0.02882 0.0
C3640 C 0.11312 0.50106 0.04457 0.0
C3641 C 0.10374 0.50365 0.0216 0.0
C3642 C 0.13187 0.48798 0.04726 0.0
C3643 C 0.14105 0.47695 0.02647 0.0
C3644 C 0.13206 0.48016 0.00325 0.0
C3645 C 0.11358 0.49362 0.0011 0.0
C3646 C 0.14166 0.48569 0.07228 0.0
C3647 C 0.14147 0.46876 0.98066 0.0
H3648 H 0.22075 0.46694 0.03217 0.0
H3649 H 0.16564 0.40113 0.03116 0.0
H3650 H 0.18565 0.50567 0.01167 0.0
H3651 H 0.18464 0.51134 0.04365 0.0
H3652 H 0.21232 0.50669 0.03081 0.0
H3653 H 0.12445 0.40256 0.02998 0.0
H3654 H 0.11789 0.43148 0.04398 0.0
H3655 H 0.11727 0.42565 0.01184 0.0
H3656 H 0.10551 0.50886 0.06044 0.0
H3657 H 0.10625 0.49551 0.98332 0.0
H3658 H 0.161 0.49468 0.07471 0.0
H3659 H 0.14043 0.46574 0.07469 0.0
H3660 H 0.13196 0.49453 0.08661 0.0
H3661 H 0.16131 0.47487 0.98094 0.0
H3662 H 0.13327 0.47389 0.964 0.0
H3663 H 0.13757 0.44812 0.97989 0.0
C3664 C 0.80959 0.94281 0.21644 0.0
C3665 C 0.83129 0.94471 0.20498 0.0
C3666 C 0.7952 0.91944 0.21842 0.0
C3667 C 0.80257 0.8975 0.20847 0.0
C3668 C 0.82344 0.89936 0.19524 0.0
C3669 C 0.83761 0.92296 0.19372 0.0
C3670 C 0.77303 0.9182 0.23265 0.0
C3671 C 0.83167 0.8764 0.18403 0.0
C3672 C 0.78489 0.84061 0.24119 0.0
C3673 C 0.76475 0.82719 0.22684 0.0
C3674 C 0.79756 0.86333 0.23515 0.0
C3675 C 0.78995 0.87276 0.21416 0.0
C3676 C 0.76997 0.85895 0.19926 0.0
C3677 C 0.75752 0.83632 0.20585 0.0
C3678 C 0.81881 0.8775 0.25151 0.0
C3679 C 0.76157 0.86826 0.17659 0.0
H3680 H 0.8045 0.95949 0.22513 0.0
H3681 H 0.85422 0.92425 0.18459 0.0
H3682 H 0.75735 0.90557 0.22245 0.0
H3683 H 0.77615 0.91044 0.24976 0.0
H3684 H 0.76841 0.93685 0.2371 0.0
H3685 H 0.84616 0.88103 0.17155 0.0
H3686 H 0.83864 0.86681 0.19845 0.0
H3687 H 0.81637 0.86304 0.17397 0.0
H3688 H 0.79046 0.83359 0.25746 0.0
H3689 H 0.74201 0.82584 0.19466 0.0
H3690 H 0.8153 0.896 0.25874 0.0
H3691 H 0.83515 0.88085 0.24117 0.0
H3692 H 0.82261 0.86737 0.26691 0.0
H3693 H 0.7554 0.88605 0.18129 0.0
H3694 H 0.74658 0.85464 0.16629 0.0
H3695 H 0.77672 0.87217 0.16475 0.0
C3696 C 0.66431 0.07523 0.7579 0.0
C3697 C 0.63926 0.07112 0.75299 0.0
C3698 C 0.67825 0.09945 0.76174 0.0
C3699 C 0.66687 0.12011 0.76087 0.0
C3700 C 0.64148 0.11619 0.75714 0.0
C3701 C 0.62797 0.09171 0.75311 0.0
C3702 C 0.70529 0.10284 0.76548 0.0
C3703 C 0.62869 0.13781 0.75641 0.0
C3704 C 0.70381 0.18469 0.783 0.0
C3705 C 0.71095 0.19324 0.76118 0.0
C3706 C 0.68913 0.16102 0.78325 0.0
C3707 C 0.68175 0.14553 0.76121 0.0
C3708 C 0.68908 0.15403 0.7392 0.0
C3709 C 0.70346 0.17778 0.73945 0.0
C3710 C 0.68145 0.15262 0.80703 0.0
C3711 C 0.68188 0.13793 0.71532 0.0
H3712 H 0.67324 0.05948 0.75797 0.0
H3713 H 0.60861 0.08873 0.7496 0.0
H3714 H 0.71386 0.11046 0.74969 0.0
H3715 H 0.71208 0.11647 0.78157 0.0
H3716 H 0.71114 0.08503 0.76779 0.0
H3717 H 0.60881 0.1318 0.75611 0.0
H3718 H 0.63481 0.15198 0.77227 0.0
H3719 H 0.63319 0.14701 0.74004 0.0
H3720 H 0.70941 0.19659 0.79985 0.0
H3721 H 0.70902 0.18414 0.72251 0.0
H3722 H 0.68803 0.13535 0.80989 0.0
H3723 H 0.6615 0.14808 0.8068 0.0
H3724 H 0.68838 0.16705 0.82253 0.0
H3725 H 0.6885 0.12021 0.71537 0.0
H3726 H 0.68914 0.14733 0.69982 0.0
H3727 H 0.66196 0.13304 0.71252 0.0
loop_
_geom_bond_atom_site_label_1
_geom_bond_atom_site_label_2
_geom_bond_distance
_geom_bond_site_symmetry_2
_ccdc_geom_bond_type
C0 O1 1.306 . S
C0 O3 1.160 . S
O1 C0 1.306 . S
O1 Cd2 2.228 1_655 S
Cd2 O1 2.228 1_455 S
Cd2 O6 2.273 . S
Cd2 O10 2.277 . S
O3 C0 1.160 . S
O3 Cd4 2.203 1_655 S
Cd4 O3 2.203 1_455 S
Cd4 O6 2.411 . S
Cd4 O7 2.333 . S
Cd4 O8 2.352 . S
Cd4 O12 2.277 . S
Cd4 O13 2.356 . S
C5 O10 1.209 . S
C5 O12 1.226 . S
O6 Cd2 2.273 . S
O6 Cd4 2.411 . S
O6 C9 1.320 . S
O7 Cd4 2.333 . S
O7 C9 1.214 . S
O8 Cd4 2.352 . S
O8 C11 1.258 . S
C9 O6 1.320 . S
C9 O7 1.214 . S
O10 Cd2 2.277 . S
O10 C5 1.209 . S
C11 O8 1.258 . S
C11 O13 1.282 . S
O12 Cd4 2.277 . S
O12 C5 1.226 . S
O13 Cd4 2.356 . S
O13 C11 1.282 . S
C14 O15 1.306 . S
C14 O17 1.160 . S
O15 C14 1.306 . S
O15 Cd16 2.228 1_655 S
Cd16 O15 2.228 1_455 S
Cd16 O20 2.273 . S
Cd16 O24 2.277 . S
O17 C14 1.160 . S
O17 Cd18 2.203 1_655 S
Cd18 O17 2.203 1_455 S
Cd18 O20 2.411 . S
Cd18 O21 2.333 . S
Cd18 O22 2.352 . S
Cd18 O26 2.277 . S
Cd18 O27 2.356 . S
C19 O24 1.209 . S
C19 O26 1.226 . S
O20 Cd16 2.273 . S
O20 Cd18 2.411 . S
O20 C23 1.320 . S
O21 Cd18 2.333 . S
O21 C23 1.214 . S
O22 Cd18 2.352 . S
O22 C25 1.258 . S
C23 O20 1.320 . S
C23 O21 1.214 . S
O24 Cd16 2.277 . S
O24 C19 1.209 . S
C25 O22 1.258 . S
C25 O27 1.282 . S
O26 Cd18 2.277 . S
O26 C19 1.226 . S
O27 Cd18 2.356 . S
O27 C25 1.282 . S
C28 O29 1.306 . S
C28 O31 1.160 . S
O29 C28 1.306 . S
O29 Cd30 2.228 . S
Cd30 O29 2.228 . S
Cd30 O34 2.273 . S
Cd30 O38 2.277 . S
O31 C28 1.160 . S
O31 Cd32 2.203 . S
Cd32 O31 2.203 . S
Cd32 O34 2.411 . S
Cd32 O35 2.333 . S
Cd32 O36 2.352 . S
Cd32 O40 2.277 . S
Cd32 O41 2.356 . S
C33 O38 1.209 . S
C33 O40 1.226 . S
O34 Cd30 2.273 . S
O34 Cd32 2.411 . S
O34 C37 1.320 . S
O35 Cd32 2.333 . S
O35 C37 1.214 . S
O36 Cd32 2.352 . S
O36 C39 1.258 . S
C37 O34 1.320 . S
C37 O35 1.214 . S
O38 Cd30 2.277 . S
O38 C33 1.209 . S
C39 O36 1.258 . S
C39 O41 1.282 . S
O40 Cd32 2.277 . S
O40 C33 1.226 . S
O41 Cd32 2.356 . S
O41 C39 1.282 . S
C42 O43 1.306 . S
C42 O45 1.160 . S
O43 C42 1.306 . S
O43 Cd44 2.228 . S
Cd44 O43 2.228 . S
Cd44 O48 2.273 . S
Cd44 O52 2.277 . S
O45 C42 1.160 . S
O45 Cd46 2.203 . S
Cd46 O45 2.203 . S
Cd46 O48 2.411 . S
Cd46 O49 2.333 . S
Cd46 O50 2.352 . S
Cd46 O54 2.277 . S
Cd46 O55 2.356 . S
C47 O52 1.209 . S
C47 O54 1.226 . S
O48 Cd44 2.273 . S
O48 Cd46 2.411 . S
O48 C51 1.320 . S
O49 Cd46 2.333 . S
O49 C51 1.214 . S
O50 Cd46 2.352 . S
O50 C53 1.258 . S
C51 O48 1.320 . S
C51 O49 1.214 . S
O52 Cd44 2.277 . S
O52 C47 1.209 . S
C53 O50 1.258 . S
C53 O55 1.282 . S
O54 Cd46 2.277 . S
O54 C47 1.226 . S
O55 Cd46 2.356 . S
O55 C53 1.282 . S
C56 O57 1.306 . S
C56 O59 1.160 . S
O57 C56 1.306 . S
O57 Cd58 2.228 1_655 S
Cd58 O57 2.228 1_455 S
Cd58 O62 2.273 . S
Cd58 O66 2.277 . S
O59 C56 1.160 . S
O59 Cd60 2.203 1_655 S
Cd60 O59 2.203 1_455 S
Cd60 O62 2.411 . S
Cd60 O63 2.333 . S
Cd60 O64 2.352 . S
Cd60 O68 2.277 . S
Cd60 O69 2.356 . S
C61 O66 1.209 . S
C61 O68 1.226 . S
O62 Cd58 2.273 . S
O62 Cd60 2.411 . S
O62 C65 1.320 . S
O63 Cd60 2.333 . S
O63 C65 1.214 . S
O64 Cd60 2.352 . S
O64 C67 1.258 . S
C65 O62 1.320 . S
C65 O63 1.214 . S
O66 Cd58 2.277 . S
O66 C61 1.209 . S
C67 O64 1.258 . S
C67 O69 1.282 . S
O68 Cd60 2.277 . S
O68 C61 1.226 . S
O69 Cd60 2.356 . S
O69 C67 1.282 . S
C70 O71 1.306 . S
C70 O73 1.160 . S
O71 C70 1.306 . S
O71 Cd72 2.228 . S
Cd72 O71 2.228 . S
Cd72 O76 2.273 . S
Cd72 O80 2.277 . S
O73 C70 1.160 . S
O73 Cd74 2.203 . S
Cd74 O73 2.203 . S
Cd74 O76 2.411 . S
Cd74 O77 2.333 . S
Cd74 O78 2.352 . S
Cd74 O82 2.277 . S
Cd74 O83 2.356 . S
C75 O80 1.209 . S
C75 O82 1.226 . S
O76 Cd72 2.273 . S
O76 Cd74 2.411 . S
O76 C79 1.320 . S
O77 Cd74 2.333 . S
O77 C79 1.214 . S
O78 Cd74 2.352 . S
O78 C81 1.258 . S
C79 O76 1.320 . S
C79 O77 1.214 . S
O80 Cd72 2.277 . S
O80 C75 1.209 . S
C81 O78 1.258 . S
C81 O83 1.282 . S
O82 Cd74 2.277 . S
O82 C75 1.226 . S
O83 Cd74 2.356 . S
O83 C81 1.282 . S
C84 O85 1.306 . S
C84 O87 1.160 . S
O85 C84 1.306 . S
O85 Cd86 2.228 . S
Cd86 O85 2.228 . S
Cd86 O90 2.273 . S
Cd86 O94 2.277 . S
O87 C84 1.160 . S
O87 Cd88 2.203 . S
Cd88 O87 2.203 . S
Cd88 O90 2.411 . S
Cd88 O91 2.333 . S
Cd88 O92 2.352 . S
Cd88 O96 2.277 . S
Cd88 O97 2.356 . S
C89 O94 1.209 . S
C89 O96 1.226 . S
O90 Cd86 2.273 . S
O90 Cd88 2.411 . S
O90 C93 1.320 . S
O91 Cd88 2.333 . S
O91 C93 1.214 . S
O92 Cd88 2.352 . S
O92 C95 1.258 . S
C93 O90 1.320 . S
C93 O91 1.214 . S
O94 Cd86 2.277 . S
O94 C89 1.209 . S
C95 O92 1.258 . S
C95 O97 1.282 . S
O96 Cd88 2.277 . S
O96 C89 1.226 . S
O97 Cd88 2.356 . S
O97 C95 1.282 . S
C98 O99 1.306 . S
C98 O101 1.160 . S
O99 C98 1.306 . S
O99 Cd100 2.228 1_655 S
Cd100 O99 2.228 1_455 S
Cd100 O104 2.273 . S
Cd100 O108 2.277 . S
O101 C98 1.160 . S
O101 Cd102 2.203 1_655 S
Cd102 O101 2.203 1_455 S
Cd102 O104 2.411 . S
Cd102 O105 2.333 . S
Cd102 O106 2.352 1_455 S
Cd102 O110 2.277 . S
Cd102 O111 2.356 . S
C103 O108 1.209 . S
C103 O110 1.226 . S
O104 Cd100 2.273 . S
O104 Cd102 2.411 . S
O104 C107 1.320 . S
O105 Cd102 2.333 . S
O105 C107 1.214 . S
O106 Cd102 2.352 1_655 S
O106 C109 1.258 . S
C107 O104 1.320 . S
C107 O105 1.214 . S
O108 Cd100 2.277 . S
O108 C103 1.209 . S
C109 O106 1.258 . S
C109 O111 1.282 1_655 S
O110 Cd102 2.277 . S
O110 C103 1.226 . S
O111 Cd102 2.356 . S
O111 C109 1.282 1_455 S
C112 O113 1.306 . S
C112 O115 1.160 . S
O113 C112 1.306 . S
O113 Cd114 2.228 1_545 S
Cd114 O113 2.228 1_565 S
Cd114 O118 2.273 1_565 S
Cd114 O122 2.277 . S
O115 C112 1.160 . S
O115 Cd116 2.203 . S
Cd116 O115 2.203 . S
Cd116 O118 2.411 . S
Cd116 O119 2.333 . S
Cd116 O120 2.352 . S
Cd116 O124 2.277 1_545 S
Cd116 O125 2.356 . S
C117 O122 1.209 . S
C117 O124 1.226 . S
O118 Cd114 2.273 1_545 S
O118 Cd116 2.411 . S
O118 C121 1.320 . S
O119 Cd116 2.333 . S
O119 C121 1.214 . S
O120 Cd116 2.352 . S
O120 C123 1.258 . S
C121 O118 1.320 . S
C121 O119 1.214 . S
O122 Cd114 2.277 . S
O122 C117 1.209 . S
C123 O120 1.258 . S
C123 O125 1.282 . S
O124 Cd116 2.277 1_565 S
O124 C117 1.226 . S
O125 Cd116 2.356 . S
O125 C123 1.282 . S
C126 O127 1.306 . S
C126 O129 1.160 . S
O127 C126 1.306 . S
O127 Cd128 2.228 . S
Cd128 O127 2.228 . S
Cd128 O132 2.273 . S
Cd128 O136 2.277 . S
O129 C126 1.160 . S
O129 Cd130 2.203 . S
Cd130 O129 2.203 . S
Cd130 O132 2.411 . S
Cd130 O133 2.333 . S
Cd130 O134 2.352 . S
Cd130 O138 2.277 . S
Cd130 O139 2.356 . S
C131 O136 1.209 . S
C131 O138 1.226 . S
O132 Cd128 2.273 . S
O132 Cd130 2.411 . S
O132 C135 1.320 . S
O133 Cd130 2.333 . S
O133 C135 1.214 . S
O134 Cd130 2.352 . S
O134 C137 1.258 . S
C135 O132 1.320 . S
C135 O133 1.214 . S
O136 Cd128 2.277 . S
O136 C131 1.209 . S
C137 O134 1.258 . S
C137 O139 1.282 . S
O138 Cd130 2.277 . S
O138 C131 1.226 . S
O139 Cd130 2.356 . S
O139 C137 1.282 . S
C140 O141 1.306 . S
C140 O143 1.151 1_545 S
O141 C140 1.306 . S
O141 Cd142 2.228 . S
Cd142 O141 2.228 . S
Cd142 O146 2.273 1_545 S
Cd142 O150 2.277 . S
O143 C140 1.151 1_565 S
O143 Cd144 2.203 . S
Cd144 O143 2.203 . S
Cd144 O146 2.411 . S
Cd144 O147 2.333 . S
Cd144 O148 2.352 . S
Cd144 O152 2.277 1_565 S
Cd144 O153 2.356 . S
C145 O150 1.209 . S
C145 O152 1.226 . S
O146 Cd142 2.273 1_565 S
O146 Cd144 2.411 . S
O146 C149 1.320 . S
O147 Cd144 2.333 . S
O147 C149 1.214 . S
O148 Cd144 2.352 . S
O148 C151 1.258 . S
C149 O146 1.320 . S
C149 O147 1.214 . S
O150 Cd142 2.277 . S
O150 C145 1.209 . S
C151 O148 1.258 . S
C151 O153 1.282 . S
O152 Cd144 2.277 1_545 S
O152 C145 1.226 . S
O153 Cd144 2.356 . S
O153 C151 1.282 . S
C154 O155 1.306 . S
C154 O157 1.160 . S
O155 C154 1.306 . S
O155 Cd156 2.228 1_554 S
Cd156 O155 2.228 1_556 S
Cd156 O160 2.273 1_556 S
Cd156 O164 2.277 . S
O157 C154 1.160 . S
O157 Cd158 2.203 . S
Cd158 O157 2.203 . S
Cd158 O160 2.411 . S
Cd158 O161 2.333 . S
Cd158 O162 2.352 . S
Cd158 O166 2.277 1_554 S
Cd158 O167 2.356 . S
C159 O164 1.209 . S
C159 O166 1.226 . S
O160 Cd156 2.273 1_554 S
O160 Cd158 2.411 . S
O160 C163 1.320 . S
O161 Cd158 2.333 . S
O161 C163 1.214 . S
O162 Cd158 2.352 . S
O162 C165 1.258 . S
C163 O160 1.320 . S
C163 O161 1.214 . S
O164 Cd156 2.277 . S
O164 C159 1.209 . S
C165 O162 1.258 . S
C165 O167 1.282 . S
O166 Cd158 2.277 1_556 S
O166 C159 1.226 . S
O167 Cd158 2.356 . S
O167 C165 1.282 . S
C168 O169 1.306 . S
C168 O171 1.160 . S
O169 C168 1.306 . S
O169 Cd170 2.228 1_554 S
Cd170 O169 2.228 1_556 S
Cd170 O174 2.273 1_556 S
Cd170 O178 2.277 . S
O171 C168 1.160 . S
O171 Cd172 2.203 . S
Cd172 O171 2.203 . S
Cd172 O174 2.411 . S
Cd172 O175 2.333 . S
Cd172 O176 2.352 . S
Cd172 O180 2.277 1_554 S
Cd172 O181 2.356 . S
C173 O178 1.209 . S
C173 O180 1.226 . S
O174 Cd170 2.273 1_554 S
O174 Cd172 2.411 . S
O174 C177 1.320 . S
O175 Cd172 2.333 . S
O175 C177 1.214 . S
O176 Cd172 2.352 . S
O176 C179 1.258 . S
C177 O174 1.320 . S
C177 O175 1.214 . S
O178 Cd170 2.277 . S
O178 C173 1.209 . S
C179 O176 1.258 . S
C179 O181 1.282 . S
O180 Cd172 2.277 1_556 S
O180 C173 1.226 . S
O181 Cd172 2.356 . S
O181 C179 1.282 . S
C182 O183 1.306 . S
C182 O185 1.160 1_554 S
O183 C182 1.306 . S
O183 Cd184 2.228 . S
Cd184 O183 2.228 . S
Cd184 O188 2.273 1_554 S
Cd184 O192 2.277 . S
O185 C182 1.160 1_556 S
O185 Cd186 2.203 . S
Cd186 O185 2.203 . S
Cd186 O188 2.411 . S
Cd186 O189 2.333 . S
Cd186 O190 2.352 . S
Cd186 O194 2.277 1_556 S
Cd186 O195 2.356 . S
C187 O192 1.209 . S
C187 O194 1.226 . S
O188 Cd184 2.273 1_556 S
O188 Cd186 2.411 . S
O188 C191 1.320 . S
O189 Cd186 2.333 . S
O189 C191 1.214 . S
O190 Cd186 2.352 . S
O190 C193 1.258 . S
C191 O188 1.320 . S
C191 O189 1.214 . S
O192 Cd184 2.277 . S
O192 C187 1.209 . S
C193 O190 1.258 . S
C193 O195 1.282 . S
O194 Cd186 2.277 1_554 S
O194 C187 1.226 . S
O195 Cd186 2.356 . S
O195 C193 1.282 . S
C196 O197 1.306 . S
C196 O199 1.160 . S
O197 C196 1.306 . S
O197 Cd198 2.228 . S
Cd198 O197 2.228 . S
Cd198 O202 2.273 . S
Cd198 O206 2.277 . S
O199 C196 1.160 . S
O199 Cd200 2.203 . S
Cd200 O199 2.203 . S
Cd200 O202 2.411 . S
Cd200 O203 2.333 . S
Cd200 O204 2.352 . S
Cd200 O208 2.277 . S
Cd200 O209 2.356 . S
C201 O206 1.209 . S
C201 O208 1.226 . S
O202 Cd198 2.273 . S
O202 Cd200 2.411 . S
O202 C205 1.320 . S
O203 Cd200 2.333 . S
O203 C205 1.214 . S
O204 Cd200 2.352 . S
O204 C207 1.258 . S
C205 O202 1.320 . S
C205 O203 1.214 . S
O206 Cd198 2.277 . S
O206 C201 1.209 . S
C207 O204 1.258 . S
C207 O209 1.282 . S
O208 Cd200 2.277 . S
O208 C201 1.226 . S
O209 Cd200 2.356 . S
O209 C207 1.282 . S
C210 O211 1.306 . S
C210 O213 1.160 . S
O211 C210 1.306 . S
O211 Cd212 2.228 . S
Cd212 O211 2.228 . S
Cd212 O216 2.273 . S
Cd212 O220 2.277 . S
O213 C210 1.160 . S
O213 Cd214 2.203 . S
Cd214 O213 2.203 . S
Cd214 O216 2.411 . S
Cd214 O217 2.333 . S
Cd214 O218 2.352 . S
Cd214 O222 2.277 . S
Cd214 O223 2.356 . S
C215 O220 1.209 . S
C215 O222 1.226 . S
O216 Cd212 2.273 . S
O216 Cd214 2.411 . S
O216 C219 1.320 . S
O217 Cd214 2.333 . S
O217 C219 1.214 . S
O218 Cd214 2.352 . S
O218 C221 1.258 . S
C219 O216 1.320 . S
C219 O217 1.214 . S
O220 Cd212 2.277 . S
O220 C215 1.209 . S
C221 O218 1.258 . S
C221 O223 1.282 . S
O222 Cd214 2.277 . S
O222 C215 1.226 . S
O223 Cd214 2.356 . S
O223 C221 1.282 . S
C224 O225 1.306 . S
C224 O227 1.160 . S
O225 C224 1.306 . S
O225 Cd226 2.228 . S
Cd226 O225 2.228 . S
Cd226 O230 2.273 . S
Cd226 O234 2.277 1_545 S
O227 C224 1.160 . S
O227 Cd228 2.203 . S
Cd228 O227 2.203 . S
Cd228 O230 2.411 . S
Cd228 O231 2.333 . S
Cd228 O232 2.352 . S
Cd228 O236 2.277 . S
Cd228 O237 2.356 . S
C229 O234 1.209 . S
C229 O236 1.226 1_565 S
O230 Cd226 2.273 . S
O230 Cd228 2.411 . S
O230 C233 1.320 . S
O231 Cd228 2.333 . S
O231 C233 1.214 . S
O232 Cd228 2.352 . S
O232 C235 1.258 . S
C233 O230 1.320 . S
C233 O231 1.214 . S
O234 Cd226 2.277 1_565 S
O234 C229 1.209 . S
C235 O232 1.258 . S
C235 O237 1.282 . S
O236 Cd228 2.277 . S
O236 C229 1.226 1_545 S
O237 Cd228 2.356 . S
O237 C235 1.282 . S
C238 O239 1.306 . S
C238 O241 1.160 . S
O239 C238 1.306 . S
O239 Cd240 2.228 . S
Cd240 O239 2.228 . S
Cd240 O244 2.273 . S
Cd240 O248 2.277 . S
O241 C238 1.160 . S
O241 Cd242 2.203 . S
Cd242 O241 2.203 . S
Cd242 O244 2.411 . S
Cd242 O245 2.333 . S
Cd242 O246 2.352 . S
Cd242 O250 2.277 . S
Cd242 O251 2.356 . S
C243 O248 1.209 . S
C243 O250 1.226 . S
O244 Cd240 2.273 . S
O244 Cd242 2.411 . S
O244 C247 1.320 . S
O245 Cd242 2.333 . S
O245 C247 1.214 . S
O246 Cd242 2.352 . S
O246 C249 1.258 . S
C247 O244 1.320 . S
C247 O245 1.214 . S
O248 Cd240 2.277 . S
O248 C243 1.209 . S
C249 O246 1.258 . S
C249 O251 1.282 . S
O250 Cd242 2.277 . S
O250 C243 1.226 . S
O251 Cd242 2.356 . S
O251 C249 1.282 . S
C252 O253 1.306 . S
C252 O255 1.160 . S
O253 C252 1.306 . S
O253 Cd254 2.228 . S
Cd254 O253 2.228 . S
Cd254 O258 2.273 . S
Cd254 O262 2.277 . S
O255 C252 1.160 . S
O255 Cd256 2.203 . S
Cd256 O255 2.203 . S
Cd256 O258 2.411 . S
Cd256 O259 2.333 . S
Cd256 O260 2.352 . S
Cd256 O264 2.277 . S
Cd256 O265 2.356 . S
C257 O262 1.209 . S
C257 O264 1.226 . S
O258 Cd254 2.273 . S
O258 Cd256 2.411 . S
O258 C261 1.320 . S
O259 Cd256 2.333 . S
O259 C261 1.214 . S
O260 Cd256 2.352 . S
O260 C263 1.258 . S
C261 O258 1.320 . S
C261 O259 1.214 . S
O262 Cd254 2.277 . S
O262 C257 1.209 . S
C263 O260 1.258 . S
C263 O265 1.282 . S
O264 Cd256 2.277 . S
O264 C257 1.226 . S
O265 Cd256 2.356 . S
O265 C263 1.282 . S
C266 O267 1.306 . S
C266 O269 1.160 . S
O267 C266 1.306 . S
O267 Cd268 2.228 . S
Cd268 O267 2.228 . S
Cd268 O272 2.273 . S
Cd268 O276 2.277 . S
O269 C266 1.160 . S
O269 Cd270 2.203 . S
Cd270 O269 2.203 . S
Cd270 O272 2.411 . S
Cd270 O273 2.333 . S
Cd270 O274 2.352 1_545 S
Cd270 O278 2.277 . S
Cd270 O279 2.356 1_545 S
C271 O276 1.209 . S
C271 O278 1.226 . S
O272 Cd268 2.273 . S
O272 Cd270 2.411 . S
O272 C275 1.320 . S
O273 Cd270 2.333 . S
O273 C275 1.214 . S
O274 Cd270 2.352 1_565 S
O274 C277 1.258 . S
C275 O272 1.320 . S
C275 O273 1.214 . S
O276 Cd268 2.277 . S
O276 C271 1.209 . S
C277 O274 1.258 . S
C277 O279 1.282 . S
O278 Cd270 2.277 . S
O278 C271 1.226 . S
O279 Cd270 2.356 1_565 S
O279 C277 1.282 . S
C280 O281 1.306 . S
C280 O283 1.160 . S
O281 C280 1.306 . S
O281 Cd282 2.228 . S
Cd282 O281 2.228 . S
Cd282 O286 2.273 . S
Cd282 O290 2.277 . S
O283 C280 1.160 . S
O283 Cd284 2.203 . S
Cd284 O283 2.203 . S
Cd284 O286 2.411 . S
Cd284 O287 2.333 . S
Cd284 O288 2.352 1_554 S
Cd284 O292 2.277 . S
Cd284 O293 2.356 1_554 S
C285 O290 1.209 . S
C285 O292 1.226 . S
O286 Cd282 2.273 . S
O286 Cd284 2.411 . S
O286 C289 1.320 . S
O287 Cd284 2.333 . S
O287 C289 1.214 . S
O288 Cd284 2.352 1_556 S
O288 C291 1.258 . S
C289 O286 1.320 . S
C289 O287 1.214 . S
O290 Cd282 2.277 . S
O290 C285 1.209 . S
C291 O288 1.258 . S
C291 O293 1.282 . S
O292 Cd284 2.277 . S
O292 C285 1.226 . S
O293 Cd284 2.356 1_556 S
O293 C291 1.282 . S
C294 O295 1.306 . S
C294 O297 1.160 . S
O295 C294 1.306 . S
O295 Cd296 2.228 . S
Cd296 O295 2.228 . S
Cd296 O300 2.273 . S
Cd296 O304 2.277 . S
O297 C294 1.160 . S
O297 Cd298 2.203 . S
Cd298 O297 2.203 . S
Cd298 O300 2.411 . S
Cd298 O301 2.333 . S
Cd298 O302 2.352 . S
Cd298 O306 2.277 . S
Cd298 O307 2.356 . S
C299 O304 1.209 . S
C299 O306 1.226 . S
O300 Cd296 2.273 . S
O300 Cd298 2.411 . S
O300 C303 1.320 . S
O301 Cd298 2.333 . S
O301 C303 1.214 . S
O302 Cd298 2.352 . S
O302 C305 1.258 . S
C303 O300 1.320 . S
C303 O301 1.214 . S
O304 Cd296 2.277 . S
O304 C299 1.209 . S
C305 O302 1.258 . S
C305 O307 1.282 . S
O306 Cd298 2.277 . S
O306 C299 1.226 . S
O307 Cd298 2.356 . S
O307 C305 1.282 . S
C308 O309 1.306 . S
C308 O311 1.160 . S
O309 C308 1.306 . S
O309 Cd310 2.228 . S
Cd310 O309 2.228 . S
Cd310 O314 2.273 . S
Cd310 O318 2.277 . S
O311 C308 1.160 . S
O311 Cd312 2.203 . S
Cd312 O311 2.203 . S
Cd312 O314 2.411 . S
Cd312 O315 2.333 . S
Cd312 O316 2.352 . S
Cd312 O320 2.277 . S
Cd312 O321 2.356 . S
C313 O318 1.209 . S
C313 O320 1.226 . S
O314 Cd310 2.273 . S
O314 Cd312 2.411 . S
O314 C317 1.320 . S
O315 Cd312 2.333 . S
O315 C317 1.214 . S
O316 Cd312 2.352 . S
O316 C319 1.258 . S
C317 O314 1.320 . S
C317 O315 1.214 . S
O318 Cd310 2.277 . S
O318 C313 1.209 . S
C319 O316 1.258 . S
C319 O321 1.282 . S
O320 Cd312 2.277 . S
O320 C313 1.226 . S
O321 Cd312 2.356 . S
O321 C319 1.282 . S
C322 O323 1.306 . S
C322 O325 1.160 . S
O323 C322 1.306 . S
O323 Cd324 2.228 . S
Cd324 O323 2.228 . S
Cd324 O328 2.273 . S
Cd324 O332 2.277 . S
O325 C322 1.160 . S
O325 Cd326 2.203 . S
Cd326 O325 2.203 . S
Cd326 O328 2.411 . S
Cd326 O329 2.333 . S
Cd326 O330 2.352 . S
Cd326 O334 2.277 . S
Cd326 O335 2.356 . S
C327 O332 1.209 . S
C327 O334 1.226 . S
O328 Cd324 2.273 . S
O328 Cd326 2.411 . S
O328 C331 1.320 . S
O329 Cd326 2.333 . S
O329 C331 1.214 . S
O330 Cd326 2.352 . S
O330 C333 1.258 . S
C331 O328 1.320 . S
C331 O329 1.214 . S
O332 Cd324 2.277 . S
O332 C327 1.209 . S
C333 O330 1.258 . S
C333 O335 1.282 . S
O334 Cd326 2.277 . S
O334 C327 1.226 . S
O335 Cd326 2.356 . S
O335 C333 1.282 . S
Dy336 O340 2.427 . S
Dy336 O341 2.481 1_556 S
Dy336 O342 2.447 . S
Dy336 O343 2.677 1_655 S
Dy336 O347 2.342 . S
Dy336 O351 2.272 1_656 S
Dy336 O352 2.334 1_546 S
C337 O348 1.185 . S
C337 O349 1.355 . S
C338 O340 1.185 . S
C338 O341 1.355 1_556 S
Dy339 O343 2.310 1_554 S
Dy339 O346 2.351 . S
Dy339 O348 2.398 . S
Dy339 O349 2.491 . S
Dy339 O350 2.403 . S
Dy339 O351 2.664 . S
Dy339 O353 2.326 1_545 S
O340 Dy336 2.427 . S
O340 C338 1.185 . S
O341 Dy336 2.481 1_554 S
O341 C338 1.355 1_554 S
O342 Dy336 2.447 . S
O342 C344 1.254 1_655 S
O343 Dy336 2.677 1_455 S
O343 Dy339 2.310 1_556 S
O343 C344 1.268 . S
C344 O342 1.254 1_455 S
C344 O343 1.268 . S
C345 O350 1.254 . S
C345 O351 1.268 . S
O346 Dy339 2.351 . S
O346 C354 1.249 . S
O347 Dy336 2.342 . S
O347 C354 1.267 1_656 S
O348 C337 1.185 . S
O348 Dy339 2.398 . S
O349 C337 1.355 . S
O349 Dy339 2.491 . S
O350 Dy339 2.403 . S
O350 C345 1.254 . S
O351 Dy336 2.272 1_454 S
O351 Dy339 2.664 . S
O351 C345 1.268 . S
O352 Dy336 2.334 1_564 S
O352 C355 1.249 1_655 S
O353 Dy339 2.326 1_565 S
O353 C355 1.267 . S
C354 O346 1.249 . S
C354 O347 1.267 1_454 S
C355 O352 1.249 1_455 S
C355 O353 1.267 . S
Dy356 O360 2.398 . S
Dy356 O361 2.491 . S
Dy356 O362 2.403 . S
Dy356 O363 2.664 . S
Dy356 O367 2.326 . S
Dy356 O371 2.310 . S
Dy356 O372 2.351 . S
C357 O368 1.185 . S
C357 O369 1.355 . S
C358 O360 1.185 . S
C358 O361 1.355 . S
Dy359 O363 2.310 . S
Dy359 O366 2.351 . S
Dy359 O368 2.398 . S
Dy359 O369 2.491 . S
Dy359 O370 2.403 . S
Dy359 O371 2.664 . S
Dy359 O373 2.326 . S
O360 Dy356 2.398 . S
O360 C358 1.185 . S
O361 Dy356 2.491 . S
O361 C358 1.355 . S
O362 Dy356 2.403 . S
O362 C364 1.254 . S
O363 Dy356 2.664 . S
O363 Dy359 2.310 . S
O363 C364 1.268 . S
C364 O362 1.254 . S
C364 O363 1.268 . S
C365 O370 1.254 . S
C365 O371 1.268 . S
O366 Dy359 2.351 . S
O366 C374 1.249 . S
O367 Dy356 2.326 . S
O367 C374 1.267 . S
O368 C357 1.185 . S
O368 Dy359 2.398 . S
O369 C357 1.355 . S
O369 Dy359 2.491 . S
O370 Dy359 2.403 . S
O370 C365 1.254 . S
O371 Dy356 2.310 . S
O371 Dy359 2.664 . S
O371 C365 1.268 . S
O372 Dy356 2.351 . S
O372 C375 1.249 . S
O373 Dy359 2.326 . S
O373 C375 1.267 . S
C374 O366 1.249 . S
C374 O367 1.267 . S
C375 O372 1.249 . S
C375 O373 1.267 . S
Dy376 O380 2.398 . S
Dy376 O381 2.491 1_545 S
Dy376 O382 2.403 . S
Dy376 O383 2.664 . S
Dy376 O387 2.326 1_545 S
Dy376 O391 2.310 . S
Dy376 O392 2.351 . S
C377 O388 1.185 . S
C377 O389 1.355 . S
C378 O380 1.185 1_565 S
C378 O381 1.355 . S
Dy379 O383 2.310 . S
Dy379 O386 2.351 1_545 S
Dy379 O388 2.398 . S
Dy379 O389 2.491 . S
Dy379 O390 2.403 . S
Dy379 O391 2.664 . S
Dy379 O393 2.326 . S
O380 Dy376 2.398 . S
O380 C378 1.185 1_545 S
O381 Dy376 2.491 1_565 S
O381 C378 1.355 . S
O382 Dy376 2.403 . S
O382 C384 1.254 . S
O383 Dy376 2.664 . S
O383 Dy379 2.310 . S
O383 C384 1.268 . S
C384 O382 1.254 . S
C384 O383 1.268 . S
C385 O390 1.254 . S
C385 O391 1.268 . S
O386 Dy379 2.351 1_565 S
O386 C394 1.249 . S
O387 Dy376 2.326 1_565 S
O387 C394 1.267 . S
O388 C377 1.185 . S
O388 Dy379 2.398 . S
O389 C377 1.355 . S
O389 Dy379 2.491 . S
O390 Dy379 2.403 . S
O390 C385 1.254 . S
O391 Dy376 2.310 . S
O391 Dy379 2.664 . S
O391 C385 1.268 . S
O392 Dy376 2.351 . S
O392 C395 1.249 . S
O393 Dy379 2.326 . S
O393 C395 1.267 . S
C394 O386 1.249 . S
C394 O387 1.267 . S
C395 O392 1.249 . S
C395 O393 1.267 . S
Dy396 O400 2.398 . S
Dy396 O401 2.491 . S
Dy396 O402 2.403 . S
Dy396 O403 2.664 . S
Dy396 O407 2.326 . S
Dy396 O411 2.310 . S
Dy396 O412 2.351 . S
C397 O408 1.185 . S
C397 O409 1.355 . S
C398 O400 1.185 . S
C398 O401 1.355 . S
Dy399 O403 2.310 . S
Dy399 O406 2.351 . S
Dy399 O408 2.398 . S
Dy399 O409 2.491 . S
Dy399 O410 2.403 . S
Dy399 O411 2.664 . S
Dy399 O413 2.326 . S
O400 Dy396 2.398 . S
O400 C398 1.185 . S
O401 Dy396 2.491 . S
O401 C398 1.355 . S
O402 Dy396 2.403 . S
O402 C404 1.254 . S
O403 Dy396 2.664 . S
O403 Dy399 2.310 . S
O403 C404 1.268 . S
C404 O402 1.254 . S
C404 O403 1.268 . S
C405 O410 1.254 . S
C405 O411 1.268 . S
O406 Dy399 2.351 . S
O406 C414 1.249 . S
O407 Dy396 2.326 . S
O407 C414 1.267 . S
O408 C397 1.185 . S
O408 Dy399 2.398 . S
O409 C397 1.355 . S
O409 Dy399 2.491 . S
O410 Dy399 2.403 . S
O410 C405 1.254 . S
O411 Dy396 2.310 . S
O411 Dy399 2.664 . S
O411 C405 1.268 . S
O412 Dy396 2.351 . S
O412 C415 1.249 . S
O413 Dy399 2.326 . S
O413 C415 1.267 . S
C414 O406 1.249 . S
C414 O407 1.267 . S
C415 O412 1.249 . S
C415 O413 1.267 . S
Dy416 O420 2.398 . S
Dy416 O421 2.491 1_455 S
Dy416 O422 2.403 . S
Dy416 O423 2.664 . S
Dy416 O427 2.326 . S
Dy416 O431 2.310 1_455 S
Dy416 O432 2.351 1_545 S
C417 O428 1.185 . S
C417 O429 1.355 . S
C418 O420 1.185 1_655 S
C418 O421 1.355 . S
Dy419 O423 2.310 . S
Dy419 O426 2.351 . S
Dy419 O428 2.398 . S
Dy419 O429 2.491 . S
Dy419 O430 2.403 1_455 S
Dy419 O431 2.664 1_455 S
Dy419 O433 2.326 1_545 S
O420 Dy416 2.398 . S
O420 C418 1.185 1_455 S
O421 Dy416 2.491 1_655 S
O421 C418 1.355 . S
O422 Dy416 2.403 . S
O422 C424 1.254 . S
O423 Dy416 2.664 . S
O423 Dy419 2.310 . S
O423 C424 1.268 . S
C424 O422 1.254 . S
C424 O423 1.268 . S
C425 O430 1.254 . S
C425 O431 1.268 . S
O426 Dy419 2.351 . S
O426 C434 1.249 . S
O427 Dy416 2.326 . S
O427 C434 1.267 . S
O428 C417 1.185 . S
O428 Dy419 2.398 . S
O429 C417 1.355 . S
O429 Dy419 2.491 . S
O430 Dy419 2.403 1_655 S
O430 C425 1.254 . S
O431 Dy416 2.310 1_655 S
O431 Dy419 2.664 1_655 S
O431 C425 1.268 . S
O432 Dy416 2.351 1_565 S
O432 C435 1.249 . S
O433 Dy419 2.326 1_565 S
O433 C435 1.267 . S
C434 O426 1.249 . S
C434 O427 1.267 . S
C435 O432 1.249 . S
C435 O433 1.267 . S
Dy436 O440 2.398 . S
Dy436 O441 2.491 . S
Dy436 O442 2.403 . S
Dy436 O443 2.664 . S
Dy436 O447 2.326 . S
Dy436 O451 2.310 . S
Dy436 O452 2.351 . S
C437 O448 1.185 . S
C437 O449 1.355 . S
C438 O440 1.185 . S
C438 O441 1.355 . S
Dy439 O443 2.310 . S
Dy439 O446 2.351 . S
Dy439 O448 2.398 . S
Dy439 O449 2.491 . S
Dy439 O450 2.403 . S
Dy439 O451 2.664 . S
Dy439 O453 2.326 . S
O440 Dy436 2.398 . S
O440 C438 1.185 . S
O441 Dy436 2.491 . S
O441 C438 1.355 . S
O442 Dy436 2.403 . S
O442 C444 1.254 . S
O443 Dy436 2.664 . S
O443 Dy439 2.310 . S
O443 C444 1.268 . S
C444 O442 1.254 . S
C444 O443 1.268 . S
C445 O450 1.254 . S
C445 O451 1.268 . S
O446 Dy439 2.351 . S
O446 C454 1.249 . S
O447 Dy436 2.326 . S
O447 C454 1.267 . S
O448 C437 1.185 . S
O448 Dy439 2.398 . S
O449 C437 1.355 . S
O449 Dy439 2.491 . S
O450 Dy439 2.403 . S
O450 C445 1.254 . S
O451 Dy436 2.310 . S
O451 Dy439 2.664 . S
O451 C445 1.268 . S
O452 Dy436 2.351 . S
O452 C455 1.249 . S
O453 Dy439 2.326 . S
O453 C455 1.267 . S
C454 O446 1.249 . S
C454 O447 1.267 . S
C455 O452 1.249 . S
C455 O453 1.267 . S
Dy456 O460 2.398 1_545 S
Dy456 O461 2.491 . S
Dy456 O462 2.403 1_545 S
Dy456 O463 2.659 1_544 S
Dy456 O467 2.326 1_545 S
Dy456 O471 2.310 . S
Dy456 O472 2.351 . S
C457 O468 1.185 . S
C457 O469 1.355 . S
C458 O460 1.185 1_545 S
C458 O461 1.355 . S
Dy459 O463 2.291 1_545 S
Dy459 O466 2.351 . S
Dy459 O468 2.398 . S
Dy459 O469 2.491 . S
Dy459 O470 2.403 . S
Dy459 O471 2.664 1_556 S
Dy459 O473 2.326 . S
O460 Dy456 2.398 1_565 S
O460 C458 1.185 1_565 S
O461 Dy456 2.491 . S
O461 C458 1.355 . S
O462 Dy456 2.403 1_565 S
O462 C464 1.254 . S
O463 Dy456 2.659 1_566 S
O463 Dy459 2.291 1_565 S
O463 C464 1.289 1_556 S
C464 O462 1.254 . S
C464 O463 1.289 1_554 S
C465 O470 1.254 1_554 S
C465 O471 1.268 . S
O466 Dy459 2.351 . S
O466 C474 1.249 1_556 S
O467 Dy456 2.326 1_565 S
O467 C474 1.267 1_565 S
O468 C457 1.185 . S
O468 Dy459 2.398 . S
O469 C457 1.355 . S
O469 Dy459 2.491 . S
O470 Dy459 2.403 . S
O470 C465 1.254 1_556 S
O471 Dy456 2.310 . S
O471 Dy459 2.664 1_554 S
O471 C465 1.268 . S
O472 Dy456 2.351 . S
O472 C475 1.249 . S
O473 Dy459 2.326 . S
O473 C475 1.267 1_556 S
C474 O466 1.249 1_554 S
C474 O467 1.267 1_545 S
C475 O472 1.249 . S
C475 O473 1.267 1_554 S
Dy476 O480 2.398 . S
Dy476 O481 2.491 . S
Dy476 O482 2.403 . S
Dy476 O483 2.664 . S
Dy476 O487 2.326 . S
Dy476 O491 2.310 . S
Dy476 O492 2.351 . S
C477 O488 1.185 . S
C477 O489 1.355 . S
C478 O480 1.185 . S
C478 O481 1.355 . S
Dy479 O483 2.310 . S
Dy479 O486 2.351 . S
Dy479 O488 2.398 . S
Dy479 O489 2.491 . S
Dy479 O490 2.403 . S
Dy479 O491 2.664 . S
Dy479 O493 2.326 . S
O480 Dy476 2.398 . S
O480 C478 1.185 . S
O481 Dy476 2.491 . S
O481 C478 1.355 . S
O482 Dy476 2.403 . S
O482 C484 1.254 . S
O483 Dy476 2.664 . S
O483 Dy479 2.310 . S
O483 C484 1.268 . S
C484 O482 1.254 . S
C484 O483 1.268 . S
C485 O490 1.254 . S
C485 O491 1.268 . S
O486 Dy479 2.351 . S
O486 C494 1.249 . S
O487 Dy476 2.326 . S
O487 C494 1.267 . S
O488 C477 1.185 . S
O488 Dy479 2.398 . S
O489 C477 1.355 . S
O489 Dy479 2.491 . S
O490 Dy479 2.403 . S
O490 C485 1.254 . S
O491 Dy476 2.310 . S
O491 Dy479 2.664 . S
O491 C485 1.268 . S
O492 Dy476 2.351 . S
O492 C495 1.249 . S
O493 Dy479 2.326 . S
O493 C495 1.267 . S
C494 O486 1.249 . S
C494 O487 1.267 . S
C495 O492 1.249 . S
C495 O493 1.267 . S
Dy496 O500 2.398 . S
Dy496 O501 2.491 . S
Dy496 O502 2.403 . S
Dy496 O503 2.664 1_556 S
Dy496 O507 2.326 . S
Dy496 O511 2.310 1_556 S
Dy496 O512 2.351 1_556 S
C497 O508 1.185 . S
C497 O509 1.355 . S
C498 O500 1.185 . S
C498 O501 1.355 . S
Dy499 O503 2.310 . S
Dy499 O506 2.351 . S
Dy499 O508 2.398 . S
Dy499 O509 2.491 . S
Dy499 O510 2.403 . S
Dy499 O511 2.664 . S
Dy499 O513 2.326 . S
O500 Dy496 2.398 . S
O500 C498 1.185 . S
O501 Dy496 2.491 . S
O501 C498 1.355 . S
O502 Dy496 2.403 . S
O502 C504 1.255 . S
O503 Dy496 2.664 1_554 S
O503 Dy499 2.310 . S
O503 C504 1.267 1_554 S
C504 O502 1.255 . S
C504 O503 1.267 1_556 S
C505 O510 1.254 . S
C505 O511 1.268 . S
O506 Dy499 2.351 . S
O506 C514 1.249 1_554 S
O507 Dy496 2.326 . S
O507 C514 1.267 . S
O508 C497 1.185 . S
O508 Dy499 2.398 . S
O509 C497 1.355 . S
O509 Dy499 2.491 . S
O510 Dy499 2.403 . S
O510 C505 1.254 . S
O511 Dy496 2.310 1_554 S
O511 Dy499 2.664 . S
O511 C505 1.268 . S
O512 Dy496 2.351 1_554 S
O512 C515 1.249 . S
O513 Dy499 2.326 . S
O513 C515 1.267 . S
C514 O506 1.249 1_556 S
C514 O507 1.267 . S
C515 O512 1.249 . S
C515 O513 1.267 . S
Dy516 O520 2.398 . S
Dy516 O521 2.491 . S
Dy516 O522 2.403 . S
Dy516 O523 2.664 . S
Dy516 O527 2.326 . S
Dy516 O531 2.310 . S
Dy516 O532 2.351 . S
C517 O528 1.185 . S
C517 O529 1.355 . S
C518 O520 1.185 . S
C518 O521 1.355 . S
Dy519 O523 2.310 . S
Dy519 O526 2.351 . S
Dy519 O528 2.398 . S
Dy519 O529 2.491 . S
Dy519 O530 2.403 . S
Dy519 O531 2.664 . S
Dy519 O533 2.326 . S
O520 Dy516 2.398 . S
O520 C518 1.185 . S
O521 Dy516 2.491 . S
O521 C518 1.355 . S
O522 Dy516 2.403 . S
O522 C524 1.254 . S
O523 Dy516 2.664 . S
O523 Dy519 2.310 . S
O523 C524 1.268 . S
C524 O522 1.254 . S
C524 O523 1.268 . S
C525 O530 1.254 . S
C525 O531 1.268 . S
O526 Dy519 2.351 . S
O526 C534 1.249 . S
O527 Dy516 2.326 . S
O527 C534 1.267 . S
O528 C517 1.185 . S
O528 Dy519 2.398 . S
O529 C517 1.355 . S
O529 Dy519 2.491 . S
O530 Dy519 2.403 . S
O530 C525 1.254 . S
O531 Dy516 2.310 . S
O531 Dy519 2.664 . S
O531 C525 1.268 . S
O532 Dy516 2.351 . S
O532 C535 1.249 . S
O533 Dy519 2.326 . S
O533 C535 1.267 . S
C534 O526 1.249 . S
C534 O527 1.267 . S
C535 O532 1.249 . S
C535 O533 1.267 . S
Dy536 O540 2.380 1_455 S
Dy536 O541 2.491 1_455 S
Dy536 O542 2.403 . S
Dy536 O543 2.664 . S
Dy536 O547 2.326 1_455 S
Dy536 O551 2.310 . S
Dy536 O552 2.351 . S
C537 O548 1.185 . S
C537 O549 1.355 . S
C538 O540 1.222 . S
C538 O541 1.355 . S
Dy539 O543 2.310 . S
Dy539 O546 2.351 1_455 S
Dy539 O548 2.398 . S
Dy539 O549 2.491 . S
Dy539 O550 2.403 . S
Dy539 O551 2.664 . S
Dy539 O553 2.326 . S
O540 Dy536 2.380 1_655 S
O540 C538 1.222 . S
O541 Dy536 2.491 1_655 S
O541 C538 1.355 . S
O542 Dy536 2.403 . S
O542 C544 1.254 . S
O543 Dy536 2.664 . S
O543 Dy539 2.310 . S
O543 C544 1.268 . S
C544 O542 1.254 . S
C544 O543 1.268 . S
C545 O550 1.254 . S
C545 O551 1.268 . S
O546 Dy539 2.351 1_655 S
O546 C554 1.249 . S
O547 Dy536 2.326 1_655 S
O547 C554 1.267 . S
O548 C537 1.185 . S
O548 Dy539 2.398 . S
O549 C537 1.355 . S
O549 Dy539 2.491 . S
O550 Dy539 2.403 . S
O550 C545 1.254 . S
O551 Dy536 2.310 . S
O551 Dy539 2.664 . S
O551 C545 1.268 . S
O552 Dy536 2.351 . S
O552 C555 1.249 . S
O553 Dy539 2.326 . S
O553 C555 1.267 . S
C554 O546 1.249 . S
C554 O547 1.267 . S
C555 O552 1.249 . S
C555 O553 1.267 . S
Dy556 O560 2.398 . S
Dy556 O561 2.491 . S
Dy556 O562 2.403 . S
Dy556 O563 2.664 . S
Dy556 O567 2.326 . S
Dy556 O571 2.310 . S
Dy556 O572 2.351 . S
C557 O568 1.185 . S
C557 O569 1.355 . S
C558 O560 1.185 . S
C558 O561 1.355 . S
Dy559 O563 2.310 . S
Dy559 O566 2.351 . S
Dy559 O568 2.398 . S
Dy559 O569 2.491 . S
Dy559 O570 2.403 . S
Dy559 O571 2.664 . S
Dy559 O573 2.326 . S
O560 Dy556 2.398 . S
O560 C558 1.185 . S
O561 Dy556 2.491 . S
O561 C558 1.355 . S
O562 Dy556 2.403 . S
O562 C564 1.254 . S
O563 Dy556 2.664 . S
O563 Dy559 2.310 . S
O563 C564 1.268 . S
C564 O562 1.254 . S
C564 O563 1.268 . S
C565 O570 1.254 . S
C565 O571 1.268 . S
O566 Dy559 2.351 . S
O566 C574 1.249 . S
O567 Dy556 2.326 . S
O567 C574 1.267 . S
O568 C557 1.185 . S
O568 Dy559 2.398 . S
O569 C557 1.355 . S
O569 Dy559 2.491 . S
O570 Dy559 2.403 . S
O570 C565 1.254 . S
O571 Dy556 2.310 . S
O571 Dy559 2.664 . S
O571 C565 1.268 . S
O572 Dy556 2.351 . S
O572 C575 1.249 . S
O573 Dy559 2.326 . S
O573 C575 1.267 . S
C574 O566 1.249 . S
C574 O567 1.267 . S
C575 O572 1.249 . S
C575 O573 1.267 . S
Dy576 O580 2.398 . S
Dy576 O581 2.491 . S
Dy576 O582 2.403 . S
Dy576 O583 2.664 . S
Dy576 O587 2.326 . S
Dy576 O591 2.310 . S
Dy576 O592 2.351 . S
C577 O588 1.185 . S
C577 O589 1.355 . S
C578 O580 1.185 . S
C578 O581 1.355 . S
Dy579 O583 2.310 . S
Dy579 O586 2.351 . S
Dy579 O588 2.398 . S
Dy579 O589 2.491 . S
Dy579 O590 2.403 . S
Dy579 O591 2.664 . S
Dy579 O593 2.326 . S
O580 Dy576 2.398 . S
O580 C578 1.185 . S
O581 Dy576 2.491 . S
O581 C578 1.355 . S
O582 Dy576 2.403 . S
O582 C584 1.254 . S
O583 Dy576 2.664 . S
O583 Dy579 2.310 . S
O583 C584 1.268 . S
C584 O582 1.254 . S
C584 O583 1.268 . S
C585 O590 1.254 . S
C585 O591 1.268 . S
O586 Dy579 2.351 . S
O586 C594 1.249 . S
O587 Dy576 2.326 . S
O587 C594 1.267 . S
O588 C577 1.185 . S
O588 Dy579 2.398 . S
O589 C577 1.355 . S
O589 Dy579 2.491 . S
O590 Dy579 2.403 . S
O590 C585 1.254 . S
O591 Dy576 2.310 . S
O591 Dy579 2.664 . S
O591 C585 1.268 . S
O592 Dy576 2.351 . S
O592 C595 1.249 . S
O593 Dy579 2.326 . S
O593 C595 1.267 . S
C594 O586 1.249 . S
C594 O587 1.267 . S
C595 O592 1.249 . S
C595 O593 1.267 . S
Dy596 O600 2.398 . S
Dy596 O601 2.491 . S
Dy596 O602 2.403 . S
Dy596 O603 2.664 . S
Dy596 O607 2.326 . S
Dy596 O611 2.310 . S
Dy596 O612 2.351 . S
C597 O608 1.185 . S
C597 O609 1.355 . S
C598 O600 1.185 . S
C598 O601 1.355 . S
Dy599 O603 2.310 . S
Dy599 O606 2.351 . S
Dy599 O608 2.398 . S
Dy599 O609 2.491 . S
Dy599 O610 2.403 . S
Dy599 O611 2.664 . S
Dy599 O613 2.326 . S
O600 Dy596 2.398 . S
O600 C598 1.185 . S
O601 Dy596 2.491 . S
O601 C598 1.355 . S
O602 Dy596 2.403 . S
O602 C604 1.254 . S
O603 Dy596 2.664 . S
O603 Dy599 2.310 . S
O603 C604 1.268 . S
C604 O602 1.254 . S
C604 O603 1.268 . S
C605 O610 1.254 . S
C605 O611 1.268 . S
O606 Dy599 2.351 . S
O606 C614 1.249 . S
O607 Dy596 2.326 . S
O607 C614 1.267 . S
O608 C597 1.185 . S
O608 Dy599 2.398 . S
O609 C597 1.355 . S
O609 Dy599 2.491 . S
O610 Dy599 2.403 . S
O610 C605 1.254 . S
O611 Dy596 2.310 . S
O611 Dy599 2.664 . S
O611 C605 1.268 . S
O612 Dy596 2.351 . S
O612 C615 1.249 . S
O613 Dy599 2.326 . S
O613 C615 1.267 . S
C614 O606 1.249 . S
C614 O607 1.267 . S
C615 O612 1.249 . S
C615 O613 1.267 . S
Dy616 O620 2.398 . S
Dy616 O621 2.491 . S
Dy616 O622 2.403 . S
Dy616 O623 2.664 . S
Dy616 O627 2.326 . S
Dy616 O631 2.310 . S
Dy616 O632 2.351 . S
C617 O628 1.185 . S
C617 O629 1.355 . S
C618 O620 1.185 . S
C618 O621 1.355 . S
Dy619 O623 2.310 . S
Dy619 O626 2.351 . S
Dy619 O628 2.398 . S
Dy619 O629 2.491 . S
Dy619 O630 2.403 . S
Dy619 O631 2.664 . S
Dy619 O633 2.326 . S
O620 Dy616 2.398 . S
O620 C618 1.185 . S
O621 Dy616 2.491 . S
O621 C618 1.355 . S
O622 Dy616 2.403 . S
O622 C624 1.254 . S
O623 Dy616 2.664 . S
O623 Dy619 2.310 . S
O623 C624 1.268 . S
C624 O622 1.254 . S
C624 O623 1.268 . S
C625 O630 1.254 . S
C625 O631 1.268 . S
O626 Dy619 2.351 . S
O626 C634 1.249 . S
O627 Dy616 2.326 . S
O627 C634 1.267 . S
O628 C617 1.185 . S
O628 Dy619 2.398 . S
O629 C617 1.355 . S
O629 Dy619 2.491 . S
O630 Dy619 2.403 . S
O630 C625 1.254 . S
O631 Dy616 2.310 . S
O631 Dy619 2.664 . S
O631 C625 1.268 . S
O632 Dy616 2.351 . S
O632 C635 1.249 . S
O633 Dy619 2.326 . S
O633 C635 1.267 . S
C634 O626 1.249 . S
C634 O627 1.267 . S
C635 O632 1.249 . S
C635 O633 1.267 . S
Dy636 O640 2.398 1_554 S
Dy636 O641 2.491 . S
Dy636 O642 2.403 1_554 S
Dy636 O643 2.664 1_554 S
Dy636 O647 2.326 1_554 S
Dy636 O651 2.310 . S
Dy636 O652 2.351 . S
C637 O648 1.185 . S
C637 O649 1.355 . S
C638 O640 1.185 . S
C638 O641 1.355 1_556 S
Dy639 O643 2.310 1_654 S
Dy639 O646 2.351 . S
Dy639 O648 2.398 . S
Dy639 O649 2.491 . S
Dy639 O650 2.403 . S
Dy639 O651 2.664 1_655 S
Dy639 O653 2.326 1_655 S
O640 Dy636 2.398 1_556 S
O640 C638 1.185 . S
O641 Dy636 2.491 . S
O641 C638 1.355 1_554 S
O642 Dy636 2.403 1_556 S
O642 C644 1.254 . S
O643 Dy636 2.664 1_556 S
O643 Dy639 2.310 1_456 S
O643 C644 1.268 . S
C644 O642 1.254 . S
C644 O643 1.268 . S
C645 O650 1.254 1_455 S
C645 O651 1.268 . S
O646 Dy639 2.351 . S
O646 C654 1.249 1_654 S
O647 Dy636 2.326 1_556 S
O647 C654 1.267 . S
O648 C637 1.185 . S
O648 Dy639 2.398 . S
O649 C637 1.355 . S
O649 Dy639 2.491 . S
O650 Dy639 2.403 . S
O650 C645 1.254 1_655 S
O651 Dy636 2.310 . S
O651 Dy639 2.664 1_455 S
O651 C645 1.268 . S
O652 Dy636 2.351 . S
O652 C655 1.249 . S
O653 Dy639 2.326 1_455 S
O653 C655 1.267 . S
C654 O646 1.249 1_456 S
C654 O647 1.267 . S
C655 O652 1.249 . S
C655 O653 1.267 . S
C656 C657 1.381 1_455 S
C656 C658 1.394 . S
C656 H672 0.931 . S
C657 C656 1.381 1_655 S
C657 C661 1.383 . S
C658 C656 1.394 . S
C658 C659 1.369 . S
C658 C662 1.531 . S
C659 C658 1.369 . S
C659 C660 1.410 1_455 S
C659 C667 1.503 . S
C660 C659 1.410 1_655 S
C660 C661 1.392 . S
C660 C663 1.511 . S
C661 C657 1.383 . S
C661 C660 1.392 . S
C661 H673 0.929 . S
C662 C658 1.531 . S
C662 H674 0.960 . S
C662 H675 0.962 . S
C662 H676 0.960 . S
C663 C660 1.511 . S
C663 H677 0.961 . S
C663 H678 0.961 . S
C663 H679 0.961 . S
C664 C665 1.370 . S
C664 C666 1.356 1_455 S
C664 H680 0.931 1_455 S
C665 C664 1.370 . S
C665 C669 1.408 1_556 S
C666 C664 1.356 1_655 S
C666 C667 1.364 1_655 S
C666 C670 1.539 . S
C667 C659 1.503 . S
C667 C666 1.364 1_455 S
C667 C668 1.403 . S
C668 C667 1.403 . S
C668 C669 1.404 1_556 S
C668 C671 1.539 1_556 S
C669 C665 1.408 1_554 S
C669 C668 1.404 1_554 S
C669 H681 0.930 . S
C670 C666 1.539 . S
C670 H682 0.956 . S
C670 H683 0.961 . S
C670 H684 0.961 . S
C671 C668 1.539 1_554 S
C671 H685 0.958 . S
C671 H686 0.961 . S
C671 H687 0.960 . S
H672 C656 0.931 . S
H673 C661 0.929 . S
H674 C662 0.960 . S
H675 C662 0.962 . S
H676 C662 0.960 . S
H677 C663 0.961 . S
H678 C663 0.961 . S
H679 C663 0.961 . S
H680 C664 0.931 1_655 S
H681 C669 0.930 . S
H682 C670 0.956 . S
H683 C670 0.961 . S
H684 C670 0.961 . S
H685 C671 0.958 . S
H686 C671 0.961 . S
H687 C671 0.960 . S
C688 C689 1.391 . S
C688 C690 1.394 . S
C688 H704 0.931 . S
C689 C688 1.391 . S
C689 C693 1.376 . S
C690 C688 1.394 . S
C690 C691 1.369 . S
C690 C694 1.531 . S
C691 C690 1.369 . S
C691 C692 1.410 . S
C691 C699 1.503 . S
C692 C691 1.410 . S
C692 C693 1.392 . S
C692 C695 1.511 . S
C693 C689 1.376 . S
C693 C692 1.392 . S
C693 H705 0.929 . S
C694 C690 1.531 . S
C694 H706 0.960 . S
C694 H707 0.962 . S
C694 H708 0.960 . S
C695 C692 1.511 . S
C695 H709 0.961 . S
C695 H710 0.961 . S
C695 H711 0.961 . S
C696 C697 1.370 . S
C696 C698 1.363 . S
C696 H712 0.931 . S
C697 C696 1.370 . S
C697 C701 1.408 . S
C698 C696 1.363 . S
C698 C699 1.370 . S
C698 C702 1.524 . S
C699 C691 1.503 . S
C699 C698 1.370 . S
C699 C700 1.403 . S
C700 C699 1.403 . S
C700 C701 1.404 . S
C700 C703 1.539 . S
C701 C697 1.408 . S
C701 C700 1.404 . S
C701 H713 0.930 . S
C702 C698 1.524 . S
C702 H714 0.956 . S
C702 H715 0.961 . S
C702 H716 0.961 . S
C703 C700 1.539 . S
C703 H717 0.958 . S
C703 H718 0.961 . S
C703 H719 0.960 . S
H704 C688 0.931 . S
H705 C693 0.929 . S
H706 C694 0.960 . S
H707 C694 0.962 . S
H708 C694 0.960 . S
H709 C695 0.961 . S
H710 C695 0.961 . S
H711 C695 0.961 . S
H712 C696 0.931 . S
H713 C701 0.930 . S
H714 C702 0.956 . S
H715 C702 0.961 . S
H716 C702 0.961 . S
H717 C703 0.958 . S
H718 C703 0.961 . S
H719 C703 0.960 . S
C720 C721 1.391 . S
C720 C722 1.394 . S
C720 H736 0.931 . S
C721 C720 1.391 . S
C721 C725 1.376 . S
C722 C720 1.394 . S
C722 C723 1.369 . S
C722 C726 1.531 . S
C723 C722 1.369 . S
C723 C724 1.410 . S
C723 C731 1.503 . S
C724 C723 1.410 . S
C724 C725 1.392 . S
C724 C727 1.511 . S
C725 C721 1.376 . S
C725 C724 1.392 . S
C725 H737 0.929 . S
C726 C722 1.531 . S
C726 H738 0.960 . S
C726 H739 0.962 . S
C726 H740 0.960 . S
C727 C724 1.511 . S
C727 H741 0.961 . S
C727 H742 0.961 . S
C727 H743 0.961 . S
C728 C729 1.370 . S
C728 C730 1.363 . S
C728 H744 0.931 . S
C729 C728 1.370 . S
C729 C733 1.408 . S
C730 C728 1.363 . S
C730 C731 1.370 . S
C730 C734 1.524 . S
C731 C723 1.503 . S
C731 C730 1.370 . S
C731 C732 1.403 . S
C732 C731 1.403 . S
C732 C733 1.404 . S
C732 C735 1.539 . S
C733 C729 1.408 . S
C733 C732 1.404 . S
C733 H745 0.930 . S
C734 C730 1.524 . S
C734 H746 0.956 . S
C734 H747 0.961 . S
C734 H748 0.961 . S
C735 C732 1.539 . S
C735 H749 0.958 . S
C735 H750 0.961 . S
C735 H751 0.960 . S
H736 C720 0.931 . S
H737 C725 0.929 . S
H738 C726 0.960 . S
H739 C726 0.962 . S
H740 C726 0.960 . S
H741 C727 0.961 . S
H742 C727 0.961 . S
H743 C727 0.961 . S
H744 C728 0.931 . S
H745 C733 0.930 . S
H746 C734 0.956 . S
H747 C734 0.961 . S
H748 C734 0.961 . S
H749 C735 0.958 . S
H750 C735 0.961 . S
H751 C735 0.960 . S
C752 C753 1.391 . S
C752 C754 1.394 . S
C752 H768 0.931 . S
C753 C752 1.391 . S
C753 C757 1.376 . S
C754 C752 1.394 . S
C754 C755 1.369 . S
C754 C758 1.531 . S
C755 C754 1.369 . S
C755 C756 1.410 . S
C755 C763 1.503 . S
C756 C755 1.410 . S
C756 C757 1.392 . S
C756 C759 1.511 . S
C757 C753 1.376 . S
C757 C756 1.392 . S
C757 H769 0.929 . S
C758 C754 1.531 . S
C758 H770 0.960 . S
C758 H771 0.962 . S
C758 H772 0.960 . S
C759 C756 1.511 . S
C759 H773 0.961 . S
C759 H774 0.961 . S
C759 H775 0.961 . S
C760 C761 1.370 . S
C760 C762 1.363 . S
C760 H776 0.931 . S
C761 C760 1.370 . S
C761 C765 1.408 . S
C762 C760 1.363 . S
C762 C763 1.370 . S
C762 C766 1.524 . S
C763 C755 1.503 . S
C763 C762 1.370 . S
C763 C764 1.403 . S
C764 C763 1.403 . S
C764 C765 1.404 . S
C764 C767 1.539 . S
C765 C761 1.408 . S
C765 C764 1.404 . S
C765 H777 0.930 . S
C766 C762 1.524 . S
C766 H778 0.956 . S
C766 H779 0.961 . S
C766 H780 0.961 . S
C767 C764 1.539 . S
C767 H781 0.958 . S
C767 H782 0.961 . S
C767 H783 0.960 . S
H768 C752 0.931 . S
H769 C757 0.929 . S
H770 C758 0.960 . S
H771 C758 0.962 . S
H772 C758 0.960 . S
H773 C759 0.961 . S
H774 C759 0.961 . S
H775 C759 0.961 . S
H776 C760 0.931 . S
H777 C765 0.930 . S
H778 C766 0.956 . S
H779 C766 0.961 . S
H780 C766 0.961 . S
H781 C767 0.958 . S
H782 C767 0.961 . S
H783 C767 0.960 . S
C784 C785 1.391 . S
C784 C786 1.394 . S
C784 H800 0.931 . S
C785 C784 1.391 . S
C785 C789 1.376 1_455 S
C786 C784 1.394 . S
C786 C787 1.369 . S
C786 C790 1.531 . S
C787 C786 1.369 . S
C787 C788 1.410 1_455 S
C787 C795 1.503 . S
C788 C787 1.410 1_655 S
C788 C789 1.392 . S
C788 C791 1.511 . S
C789 C785 1.376 1_655 S
C789 C788 1.392 . S
C789 H801 0.929 . S
C790 C786 1.531 . S
C790 H802 0.960 . S
C790 H803 0.962 . S
C790 H804 0.960 . S
C791 C788 1.511 . S
C791 H805 0.961 . S
C791 H806 0.961 . S
C791 H807 0.961 . S
C792 C793 1.370 . S
C792 C794 1.363 . S
C792 H808 0.931 . S
C793 C792 1.370 . S
C793 C797 1.408 . S
C794 C792 1.363 . S
C794 C795 1.370 . S
C794 C798 1.524 . S
C795 C787 1.503 . S
C795 C794 1.370 . S
C795 C796 1.403 . S
C796 C795 1.403 . S
C796 C797 1.404 . S
C796 C799 1.539 . S
C797 C793 1.408 . S
C797 C796 1.404 . S
C797 H809 0.930 . S
C798 C794 1.524 . S
C798 H810 0.956 . S
C798 H811 0.961 . S
C798 H812 0.961 . S
C799 C796 1.539 . S
C799 H813 0.958 . S
C799 H814 0.961 1_455 S
C799 H815 0.960 1_455 S
H800 C784 0.931 . S
H801 C789 0.929 . S
H802 C790 0.960 . S
H803 C790 0.962 . S
H804 C790 0.960 . S
H805 C791 0.961 . S
H806 C791 0.961 . S
H807 C791 0.961 . S
H808 C792 0.931 . S
H809 C797 0.930 . S
H810 C798 0.956 . S
H811 C798 0.961 . S
H812 C798 0.961 . S
H813 C799 0.958 . S
H814 C799 0.961 1_655 S
H815 C799 0.960 1_655 S
C816 C817 1.391 . S
C816 C818 1.394 . S
C816 H832 0.931 . S
C817 C816 1.391 . S
C817 C821 1.376 . S
C818 C816 1.394 . S
C818 C819 1.369 . S
C818 C822 1.531 . S
C819 C818 1.369 . S
C819 C820 1.410 . S
C819 C827 1.503 . S
C820 C819 1.410 . S
C820 C821 1.392 . S
C820 C823 1.511 . S
C821 C817 1.376 . S
C821 C820 1.392 . S
C821 H833 0.929 . S
C822 C818 1.531 . S
C822 H834 0.960 . S
C822 H835 0.962 . S
C822 H836 0.960 . S
C823 C820 1.511 . S
C823 H837 0.961 . S
C823 H838 0.961 . S
C823 H839 0.961 . S
C824 C825 1.370 . S
C824 C826 1.363 . S
C824 H840 0.931 . S
C825 C824 1.370 . S
C825 C829 1.408 . S
C826 C824 1.363 . S
C826 C827 1.370 . S
C826 C830 1.524 . S
C827 C819 1.503 . S
C827 C826 1.370 . S
C827 C828 1.403 . S
C828 C827 1.403 . S
C828 C829 1.404 . S
C828 C831 1.539 . S
C829 C825 1.408 . S
C829 C828 1.404 . S
C829 H841 0.930 . S
C830 C826 1.524 . S
C830 H842 0.956 . S
C830 H843 0.961 . S
C830 H844 0.961 . S
C831 C828 1.539 . S
C831 H845 0.958 . S
C831 H846 0.961 . S
C831 H847 0.960 . S
H832 C816 0.931 . S
H833 C821 0.929 . S
H834 C822 0.960 . S
H835 C822 0.962 . S
H836 C822 0.960 . S
H837 C823 0.961 . S
H838 C823 0.961 . S
H839 C823 0.961 . S
H840 C824 0.931 . S
H841 C829 0.930 . S
H842 C830 0.956 . S
H843 C830 0.961 . S
H844 C830 0.961 . S
H845 C831 0.958 . S
H846 C831 0.961 . S
H847 C831 0.960 . S
C848 C849 1.391 . S
C848 C850 1.394 . S
C848 H864 0.931 . S
C849 C848 1.391 . S
C849 C853 1.376 . S
C850 C848 1.394 . S
C850 C851 1.369 . S
C850 C854 1.531 . S
C851 C850 1.369 . S
C851 C852 1.410 . S
C851 C859 1.503 . S
C852 C851 1.410 . S
C852 C853 1.392 . S
C852 C855 1.511 . S
C853 C849 1.376 . S
C853 C852 1.392 . S
C853 H865 0.929 . S
C854 C850 1.531 . S
C854 H866 0.960 . S
C854 H867 0.962 . S
C854 H868 0.960 . S
C855 C852 1.511 . S
C855 H869 0.961 . S
C855 H870 0.961 . S
C855 H871 0.961 . S
C856 C857 1.370 . S
C856 C858 1.363 . S
C856 H872 0.931 . S
C857 C856 1.370 . S
C857 C861 1.408 . S
C858 C856 1.363 . S
C858 C859 1.370 . S
C858 C862 1.524 . S
C859 C851 1.503 . S
C859 C858 1.370 . S
C859 C860 1.403 . S
C860 C859 1.403 . S
C860 C861 1.404 . S
C860 C863 1.539 . S
C861 C857 1.408 . S
C861 C860 1.404 . S
C861 H873 0.930 . S
C862 C858 1.524 . S
C862 H874 0.956 . S
C862 H875 0.961 . S
C862 H876 0.961 . S
C863 C860 1.539 . S
C863 H877 0.958 . S
C863 H878 0.961 . S
C863 H879 0.960 . S
H864 C848 0.931 . S
H865 C853 0.929 . S
H866 C854 0.960 . S
H867 C854 0.962 . S
H868 C854 0.960 . S
H869 C855 0.961 . S
H870 C855 0.961 . S
H871 C855 0.961 . S
H872 C856 0.931 . S
H873 C861 0.930 . S
H874 C862 0.956 . S
H875 C862 0.961 . S
H876 C862 0.961 . S
H877 C863 0.958 . S
H878 C863 0.961 . S
H879 C863 0.960 . S
C880 C881 1.391 . S
C880 C882 1.394 . S
C880 H896 0.931 . S
C881 C880 1.391 . S
C881 C885 1.376 . S
C882 C880 1.394 . S
C882 C883 1.369 . S
C882 C886 1.531 . S
C883 C882 1.369 . S
C883 C884 1.410 . S
C883 C891 1.503 . S
C884 C883 1.410 . S
C884 C885 1.392 . S
C884 C887 1.511 . S
C885 C881 1.376 . S
C885 C884 1.392 . S
C885 H897 0.929 . S
C886 C882 1.531 . S
C886 H898 0.960 . S
C886 H899 0.962 . S
C886 H900 0.960 . S
C887 C884 1.511 . S
C887 H901 0.961 . S
C887 H902 0.961 . S
C887 H903 0.961 . S
C888 C889 1.370 . S
C888 C890 1.363 . S
C888 H904 0.931 . S
C889 C888 1.370 . S
C889 C893 1.408 . S
C890 C888 1.363 . S
C890 C891 1.370 . S
C890 C894 1.524 . S
C891 C883 1.503 . S
C891 C890 1.370 . S
C891 C892 1.403 . S
C892 C891 1.403 . S
C892 C893 1.404 . S
C892 C895 1.539 . S
C893 C889 1.408 . S
C893 C892 1.404 . S
C893 H905 0.930 . S
C894 C890 1.524 . S
C894 H906 0.956 . S
C894 H907 0.961 . S
C894 H908 0.961 . S
C895 C892 1.539 . S
C895 H909 0.958 . S
C895 H910 0.961 . S
C895 H911 0.960 . S
H896 C880 0.931 . S
H897 C885 0.929 . S
H898 C886 0.960 . S
H899 C886 0.962 . S
H900 C886 0.960 . S
H901 C887 0.961 . S
H902 C887 0.961 . S
H903 C887 0.961 . S
H904 C888 0.931 . S
H905 C893 0.930 . S
H906 C894 0.956 . S
H907 C894 0.961 . S
H908 C894 0.961 . S
H909 C895 0.958 . S
H910 C895 0.961 . S
H911 C895 0.960 . S
C912 C913 1.391 . S
C912 C914 1.394 . S
C912 H928 0.931 . S
C913 C912 1.391 . S
C913 C917 1.376 . S
C914 C912 1.394 . S
C914 C915 1.369 . S
C914 C918 1.531 . S
C915 C914 1.369 . S
C915 C916 1.410 . S
C915 C923 1.503 . S
C916 C915 1.410 . S
C916 C917 1.392 . S
C916 C919 1.511 . S
C917 C913 1.376 . S
C917 C916 1.392 . S
C917 H929 0.929 . S
C918 C914 1.531 . S
C918 H930 0.946 1_655 S
C918 H931 0.962 . S
C918 H932 0.960 . S
C919 C916 1.511 . S
C919 H933 0.961 . S
C919 H934 0.961 . S
C919 H935 0.961 1_545 S
C920 C921 1.370 . S
C920 C922 1.363 . S
C920 H936 0.931 . S
C921 C920 1.370 . S
C921 C925 1.408 . S
C922 C920 1.363 . S
C922 C923 1.370 . S
C922 C926 1.524 . S
C923 C915 1.503 . S
C923 C922 1.370 . S
C923 C924 1.403 . S
C924 C923 1.403 . S
C924 C925 1.404 . S
C924 C927 1.539 1_545 S
C925 C921 1.408 . S
C925 C924 1.404 . S
C925 H937 0.930 1_655 S
C926 C922 1.524 . S
C926 H938 0.956 . S
C926 H939 0.961 . S
C926 H940 0.961 . S
C927 C924 1.539 1_565 S
C927 H941 0.958 . S
C927 H942 0.961 . S
C927 H943 0.960 . S
H928 C912 0.931 . S
H929 C917 0.929 . S
H930 C918 0.946 1_455 S
H931 C918 0.962 . S
H932 C918 0.960 . S
H933 C919 0.961 . S
H934 C919 0.961 . S
H935 C919 0.961 1_565 S
H936 C920 0.931 . S
H937 C925 0.930 1_455 S
H938 C926 0.956 . S
H939 C926 0.961 . S
H940 C926 0.961 . S
H941 C927 0.958 . S
H942 C927 0.961 . S
H943 C927 0.960 . S
C944 C945 1.391 . S
C944 C946 1.394 . S
C944 H960 0.931 . S
C945 C944 1.391 . S
C945 C949 1.376 . S
C946 C944 1.394 . S
C946 C947 1.369 . S
C946 C950 1.531 . S
C947 C946 1.369 . S
C947 C948 1.410 . S
C947 C955 1.503 . S
C948 C947 1.410 . S
C948 C949 1.392 . S
C948 C951 1.511 . S
C949 C945 1.376 . S
C949 C948 1.392 . S
C949 H961 0.929 . S
C950 C946 1.531 . S
C950 H962 0.960 . S
C950 H963 0.962 . S
C950 H964 0.960 . S
C951 C948 1.511 . S
C951 H965 0.961 . S
C951 H966 0.961 . S
C951 H967 0.961 . S
C952 C953 1.370 . S
C952 C954 1.363 . S
C952 H968 0.931 . S
C953 C952 1.370 . S
C953 C957 1.408 . S
C954 C952 1.363 . S
C954 C955 1.370 . S
C954 C958 1.524 . S
C955 C947 1.503 . S
C955 C954 1.370 . S
C955 C956 1.403 . S
C956 C955 1.403 . S
C956 C957 1.404 . S
C956 C959 1.539 . S
C957 C953 1.408 . S
C957 C956 1.404 . S
C957 H969 0.930 . S
C958 C954 1.524 . S
C958 H970 0.956 . S
C958 H971 0.961 . S
C958 H972 0.961 . S
C959 C956 1.539 . S
C959 H973 0.958 . S
C959 H974 0.961 . S
C959 H975 0.960 . S
H960 C944 0.931 . S
H961 C949 0.929 . S
H962 C950 0.960 . S
H963 C950 0.962 . S
H964 C950 0.960 . S
H965 C951 0.961 . S
H966 C951 0.961 . S
H967 C951 0.961 . S
H968 C952 0.931 . S
H969 C957 0.930 . S
H970 C958 0.956 . S
H971 C958 0.961 . S
H972 C958 0.961 . S
H973 C959 0.958 . S
H974 C959 0.961 . S
H975 C959 0.960 . S
C976 C977 1.391 . S
C976 C978 1.394 . S
C976 H992 0.931 . S
C977 C976 1.391 . S
C977 C981 1.376 . S
C978 C976 1.394 . S
C978 C979 1.369 . S
C978 C982 1.531 . S
C979 C978 1.369 . S
C979 C980 1.410 . S
C979 C987 1.503 . S
C980 C979 1.410 . S
C980 C981 1.392 . S
C980 C983 1.511 1_545 S
C981 C977 1.376 . S
C981 C980 1.392 . S
C981 H993 0.929 1_545 S
C982 C978 1.531 . S
C982 H994 0.960 . S
C982 H995 0.962 . S
C982 H996 0.960 . S
C983 C980 1.511 1_565 S
C983 H997 0.961 . S
C983 H998 0.961 . S
C983 H999 0.961 . S
C984 C985 1.370 . S
C984 C986 1.363 . S
C984 H1000 0.931 1_545 S
C985 C984 1.370 . S
C985 C989 1.408 . S
C986 C984 1.363 . S
C986 C987 1.370 . S
C986 C990 1.524 1_545 S
C987 C979 1.503 . S
C987 C986 1.370 . S
C987 C988 1.403 . S
C988 C987 1.403 . S
C988 C989 1.404 . S
C988 C991 1.539 . S
C989 C985 1.408 . S
C989 C988 1.404 . S
C989 H1001 0.930 . S
C990 C986 1.524 1_565 S
C990 H1002 0.956 . S
C990 H1003 0.961 . S
C990 H1004 0.961 . S
C991 C988 1.539 . S
C991 H1005 0.958 . S
C991 H1006 0.961 . S
C991 H1007 0.960 . S
H992 C976 0.931 . S
H993 C981 0.929 1_565 S
H994 C982 0.960 . S
H995 C982 0.962 . S
H996 C982 0.960 . S
H997 C983 0.961 . S
H998 C983 0.961 . S
H999 C983 0.961 . S
H1000 C984 0.931 1_565 S
H1001 C989 0.930 . S
H1002 C990 0.956 . S
H1003 C990 0.961 . S
H1004 C990 0.961 . S
H1005 C991 0.958 . S
H1006 C991 0.961 . S
H1007 C991 0.960 . S
C1008 C1009 1.391 . S
C1008 C1010 1.394 . S
C1008 H1024 0.931 . S
C1009 C1008 1.391 . S
C1009 C1013 1.376 . S
C1010 C1008 1.394 . S
C1010 C1011 1.369 . S
C1010 C1014 1.531 . S
C1011 C1010 1.369 . S
C1011 C1012 1.410 . S
C1011 C1019 1.503 . S
C1012 C1011 1.410 . S
C1012 C1013 1.392 . S
C1012 C1015 1.511 . S
C1013 C1009 1.376 . S
C1013 C1012 1.392 . S
C1013 H1025 0.929 . S
C1014 C1010 1.531 . S
C1014 H1026 0.960 . S
C1014 H1027 0.962 . S
C1014 H1028 0.960 . S
C1015 C1012 1.511 . S
C1015 H1029 0.961 . S
C1015 H1030 0.961 . S
C1015 H1031 0.961 . S
C1016 C1017 1.370 . S
C1016 C1018 1.363 . S
C1016 H1032 0.931 . S
C1017 C1016 1.370 . S
C1017 C1021 1.408 . S
C1018 C1016 1.363 . S
C1018 C1019 1.370 . S
C1018 C1022 1.524 . S
C1019 C1011 1.503 . S
C1019 C1018 1.370 . S
C1019 C1020 1.403 . S
C1020 C1019 1.403 . S
C1020 C1021 1.404 . S
C1020 C1023 1.539 . S
C1021 C1017 1.408 . S
C1021 C1020 1.404 . S
C1021 H1033 0.930 . S
C1022 C1018 1.524 . S
C1022 H1034 0.956 . S
C1022 H1035 0.961 . S
C1022 H1036 0.961 . S
C1023 C1020 1.539 . S
C1023 H1037 0.958 . S
C1023 H1038 0.961 . S
C1023 H1039 0.960 . S
H1024 C1008 0.931 . S
H1025 C1013 0.929 . S
H1026 C1014 0.960 . S
H1027 C1014 0.962 . S
H1028 C1014 0.960 . S
H1029 C1015 0.961 . S
H1030 C1015 0.961 . S
H1031 C1015 0.961 . S
H1032 C1016 0.931 . S
H1033 C1021 0.930 . S
H1034 C1022 0.956 . S
H1035 C1022 0.961 . S
H1036 C1022 0.961 . S
H1037 C1023 0.958 . S
H1038 C1023 0.961 . S
H1039 C1023 0.960 . S
C1040 C1041 1.391 . S
C1040 C1042 1.394 . S
C1040 H1056 0.931 . S
C1041 C1040 1.391 . S
C1041 C1045 1.376 . S
C1042 C1040 1.394 . S
C1042 C1043 1.369 . S
C1042 C1046 1.531 . S
C1043 C1042 1.369 . S
C1043 C1044 1.410 . S
C1043 C1051 1.503 . S
C1044 C1043 1.410 . S
C1044 C1045 1.392 . S
C1044 C1047 1.511 1_545 S
C1045 C1041 1.376 . S
C1045 C1044 1.392 . S
C1045 H1057 0.929 . S
C1046 C1042 1.531 . S
C1046 H1058 0.960 . S
C1046 H1059 0.962 . S
C1046 H1060 0.960 . S
C1047 C1044 1.511 1_565 S
C1047 H1061 0.961 . S
C1047 H1062 0.961 . S
C1047 H1063 0.961 . S
C1048 C1049 1.370 . S
C1048 C1050 1.363 . S
C1048 H1064 0.931 1_655 S
C1049 C1048 1.370 . S
C1049 C1053 1.408 . S
C1050 C1048 1.363 . S
C1050 C1051 1.370 . S
C1050 C1054 1.524 . S
C1051 C1043 1.503 . S
C1051 C1050 1.370 . S
C1051 C1052 1.403 . S
C1052 C1051 1.403 . S
C1052 C1053 1.404 . S
C1052 C1055 1.539 . S
C1053 C1049 1.408 . S
C1053 C1052 1.404 . S
C1053 H1065 0.930 . S
C1054 C1050 1.524 . S
C1054 H1066 0.956 . S
C1054 H1067 0.961 . S
C1054 H1068 0.961 1_655 S
C1055 C1052 1.539 . S
C1055 H1069 0.958 . S
C1055 H1070 0.961 . S
C1055 H1071 0.960 . S
H1056 C1040 0.931 . S
H1057 C1045 0.929 . S
H1058 C1046 0.960 . S
H1059 C1046 0.962 . S
H1060 C1046 0.960 . S
H1061 C1047 0.961 . S
H1062 C1047 0.961 . S
H1063 C1047 0.961 . S
H1064 C1048 0.931 1_455 S
H1065 C1053 0.930 . S
H1066 C1054 0.956 . S
H1067 C1054 0.961 . S
H1068 C1054 0.961 1_455 S
H1069 C1055 0.958 . S
H1070 C1055 0.961 . S
H1071 C1055 0.960 . S
C1072 C1073 1.391 . S
C1072 C1074 1.394 . S
C1072 H1088 0.931 . S
C1073 C1072 1.391 . S
C1073 C1077 1.376 . S
C1074 C1072 1.394 . S
C1074 C1075 1.369 . S
C1074 C1078 1.531 . S
C1075 C1074 1.369 . S
C1075 C1076 1.410 . S
C1075 C1083 1.503 . S
C1076 C1075 1.410 . S
C1076 C1077 1.392 . S
C1076 C1079 1.511 . S
C1077 C1073 1.376 . S
C1077 C1076 1.392 . S
C1077 H1089 0.929 . S
C1078 C1074 1.531 . S
C1078 H1090 0.960 . S
C1078 H1091 0.962 . S
C1078 H1092 0.960 . S
C1079 C1076 1.511 . S
C1079 H1093 0.961 . S
C1079 H1094 0.961 . S
C1079 H1095 0.961 . S
C1080 C1081 1.370 . S
C1080 C1082 1.363 . S
C1080 H1096 0.931 . S
C1081 C1080 1.370 . S
C1081 C1085 1.408 . S
C1082 C1080 1.363 . S
C1082 C1083 1.370 . S
C1082 C1086 1.524 . S
C1083 C1075 1.503 . S
C1083 C1082 1.370 . S
C1083 C1084 1.403 . S
C1084 C1083 1.403 . S
C1084 C1085 1.404 . S
C1084 C1087 1.539 . S
C1085 C1081 1.408 . S
C1085 C1084 1.404 . S
C1085 H1097 0.930 . S
C1086 C1082 1.524 . S
C1086 H1098 0.956 . S
C1086 H1099 0.961 . S
C1086 H1100 0.961 . S
C1087 C1084 1.539 . S
C1087 H1101 0.958 . S
C1087 H1102 0.961 . S
C1087 H1103 0.960 . S
H1088 C1072 0.931 . S
H1089 C1077 0.929 . S
H1090 C1078 0.960 . S
H1091 C1078 0.962 . S
H1092 C1078 0.960 . S
H1093 C1079 0.961 . S
H1094 C1079 0.961 . S
H1095 C1079 0.961 . S
H1096 C1080 0.931 . S
H1097 C1085 0.930 . S
H1098 C1086 0.956 . S
H1099 C1086 0.961 . S
H1100 C1086 0.961 . S
H1101 C1087 0.958 . S
H1102 C1087 0.961 . S
H1103 C1087 0.960 . S
C1104 C1105 1.391 . S
C1104 C1106 1.394 . S
C1104 H1120 0.927 1_545 S
C1105 C1104 1.391 . S
C1105 C1109 1.376 . S
C1106 C1104 1.394 . S
C1106 C1107 1.369 . S
C1106 C1110 1.531 1_545 S
C1107 C1106 1.369 . S
C1107 C1108 1.410 . S
C1107 C1115 1.503 . S
C1108 C1107 1.410 . S
C1108 C1109 1.392 . S
C1108 C1111 1.511 . S
C1109 C1105 1.376 . S
C1109 C1108 1.392 . S
C1109 H1121 0.929 . S
C1110 C1106 1.531 1_565 S
C1110 H1122 0.960 . S
C1110 H1123 0.962 1_565 S
C1110 H1124 0.960 . S
C1111 C1108 1.511 . S
C1111 H1125 0.961 . S
C1111 H1126 0.961 . S
C1111 H1127 0.961 . S
C1112 C1113 1.370 . S
C1112 C1114 1.363 . S
C1112 H1128 0.931 . S
C1113 C1112 1.370 . S
C1113 C1117 1.408 . S
C1114 C1112 1.363 . S
C1114 C1115 1.370 . S
C1114 C1118 1.524 . S
C1115 C1107 1.503 . S
C1115 C1114 1.370 . S
C1115 C1116 1.403 . S
C1116 C1115 1.403 . S
C1116 C1117 1.404 . S
C1116 C1119 1.539 1_545 S
C1117 C1113 1.408 . S
C1117 C1116 1.404 . S
C1117 H1129 0.930 . S
C1118 C1114 1.524 . S
C1118 H1130 0.956 . S
C1118 H1131 0.961 . S
C1118 H1132 0.961 . S
C1119 C1116 1.539 1_565 S
C1119 H1133 0.958 . S
C1119 H1134 0.961 . S
C1119 H1135 0.960 1_565 S
H1120 C1104 0.927 1_565 S
H1121 C1109 0.929 . S
H1122 C1110 0.960 . S
H1123 C1110 0.962 1_545 S
H1124 C1110 0.960 . S
H1125 C1111 0.961 . S
H1126 C1111 0.961 . S
H1127 C1111 0.961 . S
H1128 C1112 0.931 . S
H1129 C1117 0.930 . S
H1130 C1118 0.956 . S
H1131 C1118 0.961 . S
H1132 C1118 0.961 . S
H1133 C1119 0.958 . S
H1134 C1119 0.961 . S
H1135 C1119 0.960 1_545 S
C1136 C1137 1.391 . S
C1136 C1138 1.394 . S
C1136 H1152 0.931 . S
C1137 C1136 1.391 . S
C1137 C1141 1.376 . S
C1138 C1136 1.394 . S
C1138 C1139 1.369 . S
C1138 C1142 1.531 . S
C1139 C1138 1.369 . S
C1139 C1140 1.410 . S
C1139 C1147 1.503 . S
C1140 C1139 1.410 . S
C1140 C1141 1.392 . S
C1140 C1143 1.511 . S
C1141 C1137 1.376 . S
C1141 C1140 1.392 . S
C1141 H1153 0.929 . S
C1142 C1138 1.531 . S
C1142 H1154 0.960 . S
C1142 H1155 0.962 . S
C1142 H1156 0.960 . S
C1143 C1140 1.511 . S
C1143 H1157 0.961 . S
C1143 H1158 0.961 . S
C1143 H1159 0.961 . S
C1144 C1145 1.370 . S
C1144 C1146 1.363 . S
C1144 H1160 0.931 . S
C1145 C1144 1.370 . S
C1145 C1149 1.408 . S
C1146 C1144 1.363 . S
C1146 C1147 1.370 . S
C1146 C1150 1.524 . S
C1147 C1139 1.503 . S
C1147 C1146 1.370 . S
C1147 C1148 1.403 . S
C1148 C1147 1.403 . S
C1148 C1149 1.404 . S
C1148 C1151 1.539 . S
C1149 C1145 1.408 . S
C1149 C1148 1.404 . S
C1149 H1161 0.930 . S
C1150 C1146 1.524 . S
C1150 H1162 0.956 . S
C1150 H1163 0.961 . S
C1150 H1164 0.961 . S
C1151 C1148 1.539 . S
C1151 H1165 0.958 . S
C1151 H1166 0.961 . S
C1151 H1167 0.960 . S
H1152 C1136 0.931 . S
H1153 C1141 0.929 . S
H1154 C1142 0.960 . S
H1155 C1142 0.962 . S
H1156 C1142 0.960 . S
H1157 C1143 0.961 . S
H1158 C1143 0.961 . S
H1159 C1143 0.961 . S
H1160 C1144 0.931 . S
H1161 C1149 0.930 . S
H1162 C1150 0.956 . S
H1163 C1150 0.961 . S
H1164 C1150 0.961 . S
H1165 C1151 0.958 . S
H1166 C1151 0.961 . S
H1167 C1151 0.960 . S
C1168 C1169 1.391 . S
C1168 C1170 1.394 . S
C1168 H1184 0.931 . S
C1169 C1168 1.391 . S
C1169 C1173 1.376 . S
C1170 C1168 1.394 . S
C1170 C1171 1.369 . S
C1170 C1174 1.531 . S
C1171 C1170 1.369 . S
C1171 C1172 1.410 . S
C1171 C1179 1.503 . S
C1172 C1171 1.410 . S
C1172 C1173 1.392 . S
C1172 C1175 1.511 . S
C1173 C1169 1.376 . S
C1173 C1172 1.392 . S
C1173 H1185 0.929 . S
C1174 C1170 1.531 . S
C1174 H1186 0.960 . S
C1174 H1187 0.962 1_565 S
C1174 H1188 0.959 1_565 S
C1175 C1172 1.511 . S
C1175 H1189 0.961 . S
C1175 H1190 0.961 . S
C1175 H1191 0.961 . S
C1176 C1177 1.370 . S
C1176 C1178 1.363 . S
C1176 H1192 0.931 . S
C1177 C1176 1.370 . S
C1177 C1181 1.408 . S
C1178 C1176 1.363 . S
C1178 C1179 1.370 . S
C1178 C1182 1.524 . S
C1179 C1171 1.503 . S
C1179 C1178 1.370 . S
C1179 C1180 1.403 . S
C1180 C1179 1.403 . S
C1180 C1181 1.404 . S
C1180 C1183 1.539 1_554 S
C1181 C1177 1.408 . S
C1181 C1180 1.404 . S
C1181 H1193 0.906 1_554 S
C1182 C1178 1.524 . S
C1182 H1194 0.956 . S
C1182 H1195 0.961 . S
C1182 H1196 0.961 . S
C1183 C1180 1.539 1_556 S
C1183 H1197 0.958 . S
C1183 H1198 0.961 . S
C1183 H1199 0.960 . S
H1184 C1168 0.931 . S
H1185 C1173 0.929 . S
H1186 C1174 0.960 . S
H1187 C1174 0.962 1_545 S
H1188 C1174 0.959 1_545 S
H1189 C1175 0.961 . S
H1190 C1175 0.961 . S
H1191 C1175 0.961 . S
H1192 C1176 0.931 . S
H1193 C1181 0.906 1_556 S
H1194 C1182 0.956 . S
H1195 C1182 0.961 . S
H1196 C1182 0.961 . S
H1197 C1183 0.958 . S
H1198 C1183 0.961 . S
H1199 C1183 0.960 . S
C1200 C1201 1.391 . S
C1200 C1202 1.395 1_554 S
C1200 H1216 0.938 . S
C1201 C1200 1.391 . S
C1201 C1205 1.376 . S
C1202 C1200 1.395 1_556 S
C1202 C1203 1.368 . S
C1202 C1206 1.533 . S
C1203 C1202 1.368 . S
C1203 C1204 1.409 1_556 S
C1203 C1211 1.502 1_556 S
C1204 C1203 1.409 1_554 S
C1204 C1205 1.392 . S
C1204 C1207 1.509 . S
C1205 C1201 1.376 . S
C1205 C1204 1.392 . S
C1205 H1217 0.929 . S
C1206 C1202 1.533 . S
C1206 H1218 0.960 . S
C1206 H1219 0.962 1_556 S
C1206 H1220 0.960 . S
C1207 C1204 1.509 . S
C1207 H1221 0.976 . S
C1207 H1222 0.978 . S
C1207 H1223 0.933 1_554 S
C1208 C1209 1.370 . S
C1208 C1210 1.363 . S
C1208 H1224 0.931 . S
C1209 C1208 1.370 . S
C1209 C1213 1.408 1_554 S
C1210 C1208 1.363 . S
C1210 C1211 1.370 . S
C1210 C1214 1.524 . S
C1211 C1203 1.502 1_554 S
C1211 C1210 1.370 . S
C1211 C1212 1.403 1_554 S
C1212 C1211 1.403 1_556 S
C1212 C1213 1.404 . S
C1212 C1215 1.539 . S
C1213 C1209 1.408 1_556 S
C1213 C1212 1.404 . S
C1213 H1225 0.930 . S
C1214 C1210 1.524 . S
C1214 H1226 0.956 . S
C1214 H1227 0.961 . S
C1214 H1228 0.961 . S
C1215 C1212 1.539 . S
C1215 H1229 0.958 . S
C1215 H1230 0.961 . S
C1215 H1231 0.960 . S
H1216 C1200 0.938 . S
H1217 C1205 0.929 . S
H1218 C1206 0.960 . S
H1219 C1206 0.962 1_554 S
H1220 C1206 0.960 . S
H1221 C1207 0.976 . S
H1222 C1207 0.978 . S
H1223 C1207 0.933 1_556 S
H1224 C1208 0.931 . S
H1225 C1213 0.930 . S
H1226 C1214 0.956 . S
H1227 C1214 0.961 . S
H1228 C1214 0.961 . S
H1229 C1215 0.958 . S
H1230 C1215 0.961 . S
H1231 C1215 0.960 . S
C1232 C1233 1.391 . S
C1232 C1234 1.394 . S
C1232 H1248 0.931 . S
C1233 C1232 1.391 . S
C1233 C1237 1.376 . S
C1234 C1232 1.394 . S
C1234 C1235 1.369 . S
C1234 C1238 1.531 . S
C1235 C1234 1.369 . S
C1235 C1236 1.410 . S
C1235 C1243 1.503 . S
C1236 C1235 1.410 . S
C1236 C1237 1.392 . S
C1236 C1239 1.511 . S
C1237 C1233 1.376 . S
C1237 C1236 1.392 . S
C1237 H1249 0.929 . S
C1238 C1234 1.531 . S
C1238 H1250 0.960 . S
C1238 H1251 0.962 . S
C1238 H1252 0.960 . S
C1239 C1236 1.511 . S
C1239 H1253 0.961 . S
C1239 H1254 0.961 . S
C1239 H1255 0.961 . S
C1240 C1241 1.370 . S
C1240 C1242 1.363 . S
C1240 H1256 0.931 . S
C1241 C1240 1.370 . S
C1241 C1245 1.408 . S
C1242 C1240 1.363 . S
C1242 C1243 1.370 . S
C1242 C1246 1.524 . S
C1243 C1235 1.503 . S
C1243 C1242 1.370 . S
C1243 C1244 1.403 . S
C1244 C1243 1.403 . S
C1244 C1245 1.404 . S
C1244 C1247 1.539 . S
C1245 C1241 1.408 . S
C1245 C1244 1.404 . S
C1245 H1257 0.930 . S
C1246 C1242 1.524 . S
C1246 H1258 0.956 . S
C1246 H1259 0.961 . S
C1246 H1260 0.961 . S
C1247 C1244 1.539 . S
C1247 H1261 0.958 . S
C1247 H1262 0.961 . S
C1247 H1263 0.960 . S
H1248 C1232 0.931 . S
H1249 C1237 0.929 . S
H1250 C1238 0.960 . S
H1251 C1238 0.962 . S
H1252 C1238 0.960 . S
H1253 C1239 0.961 . S
H1254 C1239 0.961 . S
H1255 C1239 0.961 . S
H1256 C1240 0.931 . S
H1257 C1245 0.930 . S
H1258 C1246 0.956 . S
H1259 C1246 0.961 . S
H1260 C1246 0.961 . S
H1261 C1247 0.958 . S
H1262 C1247 0.961 . S
H1263 C1247 0.960 . S
C1264 C1265 1.391 . S
C1264 C1266 1.394 . S
C1264 H1280 0.931 . S
C1265 C1264 1.391 . S
C1265 C1269 1.376 . S
C1266 C1264 1.394 . S
C1266 C1267 1.369 . S
C1266 C1270 1.531 . S
C1267 C1266 1.369 . S
C1267 C1268 1.410 . S
C1267 C1275 1.503 . S
C1268 C1267 1.410 . S
C1268 C1269 1.392 . S
C1268 C1271 1.511 . S
C1269 C1265 1.376 . S
C1269 C1268 1.392 . S
C1269 H1281 0.929 . S
C1270 C1266 1.531 . S
C1270 H1282 0.960 . S
C1270 H1283 0.962 . S
C1270 H1284 0.960 . S
C1271 C1268 1.511 . S
C1271 H1285 0.961 . S
C1271 H1286 0.961 . S
C1271 H1287 0.961 . S
C1272 C1273 1.370 . S
C1272 C1274 1.363 . S
C1272 H1288 0.931 . S
C1273 C1272 1.370 . S
C1273 C1277 1.408 . S
C1274 C1272 1.363 . S
C1274 C1275 1.370 . S
C1274 C1278 1.524 . S
C1275 C1267 1.503 . S
C1275 C1274 1.370 . S
C1275 C1276 1.403 . S
C1276 C1275 1.403 . S
C1276 C1277 1.404 . S
C1276 C1279 1.539 . S
C1277 C1273 1.408 . S
C1277 C1276 1.404 . S
C1277 H1289 0.930 . S
C1278 C1274 1.524 . S
C1278 H1290 0.956 . S
C1278 H1291 0.961 . S
C1278 H1292 0.961 . S
C1279 C1276 1.539 . S
C1279 H1293 0.958 . S
C1279 H1294 0.961 . S
C1279 H1295 0.960 . S
H1280 C1264 0.931 . S
H1281 C1269 0.929 . S
H1282 C1270 0.960 . S
H1283 C1270 0.962 . S
H1284 C1270 0.960 . S
H1285 C1271 0.961 . S
H1286 C1271 0.961 . S
H1287 C1271 0.961 . S
H1288 C1272 0.931 . S
H1289 C1277 0.930 . S
H1290 C1278 0.956 . S
H1291 C1278 0.961 . S
H1292 C1278 0.961 . S
H1293 C1279 0.958 . S
H1294 C1279 0.961 . S
H1295 C1279 0.960 . S
C1296 C1297 1.391 . S
C1296 C1298 1.394 . S
C1296 H1312 0.931 . S
C1297 C1296 1.391 . S
C1297 C1301 1.376 . S
C1298 C1296 1.394 . S
C1298 C1299 1.369 . S
C1298 C1302 1.531 . S
C1299 C1298 1.369 . S
C1299 C1300 1.410 . S
C1299 C1307 1.503 . S
C1300 C1299 1.410 . S
C1300 C1301 1.392 . S
C1300 C1303 1.511 . S
C1301 C1297 1.376 . S
C1301 C1300 1.392 . S
C1301 H1313 0.929 . S
C1302 C1298 1.531 . S
C1302 H1314 0.960 . S
C1302 H1315 0.962 . S
C1302 H1316 0.960 . S
C1303 C1300 1.511 . S
C1303 H1317 0.961 . S
C1303 H1318 0.961 . S
C1303 H1319 0.961 . S
C1304 C1305 1.370 . S
C1304 C1306 1.363 . S
C1304 H1320 0.931 . S
C1305 C1304 1.370 . S
C1305 C1309 1.408 . S
C1306 C1304 1.363 . S
C1306 C1307 1.370 . S
C1306 C1310 1.524 . S
C1307 C1299 1.503 . S
C1307 C1306 1.370 . S
C1307 C1308 1.403 . S
C1308 C1307 1.403 . S
C1308 C1309 1.404 . S
C1308 C1311 1.539 . S
C1309 C1305 1.408 . S
C1309 C1308 1.404 . S
C1309 H1321 0.930 . S
C1310 C1306 1.524 . S
C1310 H1322 0.956 . S
C1310 H1323 0.961 . S
C1310 H1324 0.961 . S
C1311 C1308 1.539 . S
C1311 H1325 0.958 . S
C1311 H1326 0.961 . S
C1311 H1327 0.960 . S
H1312 C1296 0.931 . S
H1313 C1301 0.929 . S
H1314 C1302 0.960 . S
H1315 C1302 0.962 . S
H1316 C1302 0.960 . S
H1317 C1303 0.961 . S
H1318 C1303 0.961 . S
H1319 C1303 0.961 . S
H1320 C1304 0.931 . S
H1321 C1309 0.930 . S
H1322 C1310 0.956 . S
H1323 C1310 0.961 . S
H1324 C1310 0.961 . S
H1325 C1311 0.958 . S
H1326 C1311 0.961 . S
H1327 C1311 0.960 . S
C1328 C1329 1.391 . S
C1328 C1330 1.394 . S
C1328 H1344 0.931 . S
C1329 C1328 1.391 . S
C1329 C1333 1.376 . S
C1330 C1328 1.394 . S
C1330 C1331 1.369 . S
C1330 C1334 1.531 . S
C1331 C1330 1.369 . S
C1331 C1332 1.410 . S
C1331 C1339 1.503 . S
C1332 C1331 1.410 . S
C1332 C1333 1.392 . S
C1332 C1335 1.511 . S
C1333 C1329 1.376 . S
C1333 C1332 1.392 . S
C1333 H1345 0.929 . S
C1334 C1330 1.531 . S
C1334 H1346 0.960 . S
C1334 H1347 0.962 . S
C1334 H1348 0.960 . S
C1335 C1332 1.511 . S
C1335 H1349 0.961 . S
C1335 H1350 0.961 . S
C1335 H1351 0.961 . S
C1336 C1337 1.370 . S
C1336 C1338 1.363 . S
C1336 H1352 0.931 . S
C1337 C1336 1.370 . S
C1337 C1341 1.408 . S
C1338 C1336 1.363 . S
C1338 C1339 1.370 . S
C1338 C1342 1.524 . S
C1339 C1331 1.503 . S
C1339 C1338 1.370 . S
C1339 C1340 1.403 . S
C1340 C1339 1.403 . S
C1340 C1341 1.404 . S
C1340 C1343 1.539 . S
C1341 C1337 1.408 . S
C1341 C1340 1.404 . S
C1341 H1353 0.930 . S
C1342 C1338 1.524 . S
C1342 H1354 0.956 . S
C1342 H1355 0.961 . S
C1342 H1356 0.961 . S
C1343 C1340 1.539 . S
C1343 H1357 0.958 . S
C1343 H1358 0.961 . S
C1343 H1359 0.960 . S
H1344 C1328 0.931 . S
H1345 C1333 0.929 . S
H1346 C1334 0.960 . S
H1347 C1334 0.962 . S
H1348 C1334 0.960 . S
H1349 C1335 0.961 . S
H1350 C1335 0.961 . S
H1351 C1335 0.961 . S
H1352 C1336 0.931 . S
H1353 C1341 0.930 . S
H1354 C1342 0.956 . S
H1355 C1342 0.961 . S
H1356 C1342 0.961 . S
H1357 C1343 0.958 . S
H1358 C1343 0.961 . S
H1359 C1343 0.960 . S
C1360 C1361 1.391 . S
C1360 C1362 1.394 . S
C1360 H1376 0.931 . S
C1361 C1360 1.391 . S
C1361 C1365 1.376 . S
C1362 C1360 1.394 . S
C1362 C1363 1.369 . S
C1362 C1366 1.531 . S
C1363 C1362 1.369 . S
C1363 C1364 1.410 . S
C1363 C1371 1.503 . S
C1364 C1363 1.410 . S
C1364 C1365 1.392 . S
C1364 C1367 1.511 . S
C1365 C1361 1.376 . S
C1365 C1364 1.392 . S
C1365 H1377 0.929 . S
C1366 C1362 1.531 . S
C1366 H1378 0.960 . S
C1366 H1379 0.962 . S
C1366 H1380 0.960 . S
C1367 C1364 1.511 . S
C1367 H1381 0.961 . S
C1367 H1382 0.961 . S
C1367 H1383 0.961 . S
C1368 C1369 1.370 . S
C1368 C1370 1.363 . S
C1368 H1384 0.931 . S
C1369 C1368 1.370 . S
C1369 C1373 1.408 . S
C1370 C1368 1.363 . S
C1370 C1371 1.370 . S
C1370 C1374 1.524 . S
C1371 C1363 1.503 . S
C1371 C1370 1.370 . S
C1371 C1372 1.403 . S
C1372 C1371 1.403 . S
C1372 C1373 1.404 . S
C1372 C1375 1.539 . S
C1373 C1369 1.408 . S
C1373 C1372 1.404 . S
C1373 H1385 0.930 . S
C1374 C1370 1.524 . S
C1374 H1386 0.956 . S
C1374 H1387 0.961 . S
C1374 H1388 0.961 . S
C1375 C1372 1.539 . S
C1375 H1389 0.958 . S
C1375 H1390 0.961 . S
C1375 H1391 0.960 . S
H1376 C1360 0.931 . S
H1377 C1365 0.929 . S
H1378 C1366 0.960 . S
H1379 C1366 0.962 . S
H1380 C1366 0.960 . S
H1381 C1367 0.961 . S
H1382 C1367 0.961 . S
H1383 C1367 0.961 . S
H1384 C1368 0.931 . S
H1385 C1373 0.930 . S
H1386 C1374 0.956 . S
H1387 C1374 0.961 . S
H1388 C1374 0.961 . S
H1389 C1375 0.958 . S
H1390 C1375 0.961 . S
H1391 C1375 0.960 . S
C1392 C1393 1.391 . S
C1392 C1394 1.394 . S
C1392 H1408 0.931 . S
C1393 C1392 1.391 . S
C1393 C1397 1.376 . S
C1394 C1392 1.394 . S
C1394 C1395 1.369 . S
C1394 C1398 1.531 . S
C1395 C1394 1.369 . S
C1395 C1396 1.410 . S
C1395 C1403 1.503 . S
C1396 C1395 1.410 . S
C1396 C1397 1.392 . S
C1396 C1399 1.511 . S
C1397 C1393 1.376 . S
C1397 C1396 1.392 . S
C1397 H1409 0.929 . S
C1398 C1394 1.531 . S
C1398 H1410 0.960 . S
C1398 H1411 0.962 . S
C1398 H1412 0.960 . S
C1399 C1396 1.511 . S
C1399 H1413 0.961 . S
C1399 H1414 0.961 . S
C1399 H1415 0.961 . S
C1400 C1401 1.370 . S
C1400 C1402 1.363 . S
C1400 H1416 0.931 . S
C1401 C1400 1.370 . S
C1401 C1405 1.408 . S
C1402 C1400 1.363 . S
C1402 C1403 1.370 . S
C1402 C1406 1.524 . S
C1403 C1395 1.503 . S
C1403 C1402 1.370 . S
C1403 C1404 1.403 . S
C1404 C1403 1.403 . S
C1404 C1405 1.404 . S
C1404 C1407 1.539 . S
C1405 C1401 1.408 . S
C1405 C1404 1.404 . S
C1405 H1417 0.930 . S
C1406 C1402 1.524 . S
C1406 H1418 0.956 . S
C1406 H1419 0.961 . S
C1406 H1420 0.961 . S
C1407 C1404 1.539 . S
C1407 H1421 0.958 . S
C1407 H1422 0.961 . S
C1407 H1423 0.960 . S
H1408 C1392 0.931 . S
H1409 C1397 0.929 . S
H1410 C1398 0.960 . S
H1411 C1398 0.962 . S
H1412 C1398 0.960 . S
H1413 C1399 0.961 . S
H1414 C1399 0.961 . S
H1415 C1399 0.961 . S
H1416 C1400 0.931 . S
H1417 C1405 0.930 . S
H1418 C1406 0.956 . S
H1419 C1406 0.961 . S
H1420 C1406 0.961 . S
H1421 C1407 0.958 . S
H1422 C1407 0.961 . S
H1423 C1407 0.960 . S
C1424 C1425 1.391 . S
C1424 C1426 1.394 . S
C1424 H1440 0.931 . S
C1425 C1424 1.391 . S
C1425 C1429 1.376 . S
C1426 C1424 1.394 . S
C1426 C1427 1.369 . S
C1426 C1430 1.531 1_455 S
C1427 C1426 1.369 . S
C1427 C1428 1.410 . S
C1427 C1435 1.503 . S
C1428 C1427 1.410 . S
C1428 C1429 1.392 . S
C1428 C1431 1.511 . S
C1429 C1425 1.376 . S
C1429 C1428 1.392 . S
C1429 H1441 0.929 . S
C1430 C1426 1.531 1_655 S
C1430 H1442 0.960 1_655 S
C1430 H1443 0.962 . S
C1430 H1444 0.960 . S
C1431 C1428 1.511 . S
C1431 H1445 0.961 . S
C1431 H1446 0.961 . S
C1431 H1447 0.961 . S
C1432 C1433 1.370 . S
C1432 C1434 1.363 . S
C1432 H1448 0.931 1_455 S
C1433 C1432 1.370 . S
C1433 C1437 1.408 . S
C1434 C1432 1.363 . S
C1434 C1435 1.370 . S
C1434 C1438 1.524 1_455 S
C1435 C1427 1.503 . S
C1435 C1434 1.370 . S
C1435 C1436 1.403 . S
C1436 C1435 1.403 . S
C1436 C1437 1.404 . S
C1436 C1439 1.539 . S
C1437 C1433 1.408 . S
C1437 C1436 1.404 . S
C1437 H1449 0.930 . S
C1438 C1434 1.524 1_655 S
C1438 H1450 0.956 . S
C1438 H1451 0.961 1_655 S
C1438 H1452 0.961 . S
C1439 C1436 1.539 . S
C1439 H1453 0.958 . S
C1439 H1454 0.961 . S
C1439 H1455 0.960 . S
H1440 C1424 0.931 . S
H1441 C1429 0.929 . S
H1442 C1430 0.960 1_455 S
H1443 C1430 0.962 . S
H1444 C1430 0.960 . S
H1445 C1431 0.961 . S
H1446 C1431 0.961 . S
H1447 C1431 0.961 . S
H1448 C1432 0.931 1_655 S
H1449 C1437 0.930 . S
H1450 C1438 0.956 . S
H1451 C1438 0.961 1_455 S
H1452 C1438 0.961 . S
H1453 C1439 0.958 . S
H1454 C1439 0.961 . S
H1455 C1439 0.960 . S
C1456 C1457 1.391 . S
C1456 C1458 1.394 . S
C1456 H1472 0.931 . S
C1457 C1456 1.391 . S
C1457 C1461 1.376 . S
C1458 C1456 1.394 . S
C1458 C1459 1.369 . S
C1458 C1462 1.531 . S
C1459 C1458 1.369 . S
C1459 C1460 1.410 . S
C1459 C1467 1.503 . S
C1460 C1459 1.410 . S
C1460 C1461 1.392 . S
C1460 C1463 1.511 . S
C1461 C1457 1.376 . S
C1461 C1460 1.392 . S
C1461 H1473 0.929 . S
C1462 C1458 1.531 . S
C1462 H1474 0.960 . S
C1462 H1475 0.962 . S
C1462 H1476 0.960 . S
C1463 C1460 1.511 . S
C1463 H1477 0.961 . S
C1463 H1478 0.961 . S
C1463 H1479 0.961 . S
C1464 C1465 1.370 . S
C1464 C1466 1.363 . S
C1464 H1480 0.931 . S
C1465 C1464 1.370 . S
C1465 C1469 1.408 . S
C1466 C1464 1.363 . S
C1466 C1467 1.370 . S
C1466 C1470 1.524 . S
C1467 C1459 1.503 . S
C1467 C1466 1.370 . S
C1467 C1468 1.403 . S
C1468 C1467 1.403 . S
C1468 C1469 1.404 . S
C1468 C1471 1.539 . S
C1469 C1465 1.408 . S
C1469 C1468 1.404 . S
C1469 H1481 0.930 . S
C1470 C1466 1.524 . S
C1470 H1482 0.956 . S
C1470 H1483 0.961 . S
C1470 H1484 0.961 . S
C1471 C1468 1.539 . S
C1471 H1485 0.958 . S
C1471 H1486 0.961 . S
C1471 H1487 0.960 . S
H1472 C1456 0.931 . S
H1473 C1461 0.929 . S
H1474 C1462 0.960 . S
H1475 C1462 0.962 . S
H1476 C1462 0.960 . S
H1477 C1463 0.961 . S
H1478 C1463 0.961 . S
H1479 C1463 0.961 . S
H1480 C1464 0.931 . S
H1481 C1469 0.930 . S
H1482 C1470 0.956 . S
H1483 C1470 0.961 . S
H1484 C1470 0.961 . S
H1485 C1471 0.958 . S
H1486 C1471 0.961 . S
H1487 C1471 0.960 . S
C1488 C1489 1.391 . S
C1488 C1490 1.394 . S
C1488 H1504 0.931 . S
C1489 C1488 1.391 . S
C1489 C1493 1.376 . S
C1490 C1488 1.394 . S
C1490 C1491 1.369 . S
C1490 C1494 1.531 . S
C1491 C1490 1.369 . S
C1491 C1492 1.410 . S
C1491 C1499 1.503 . S
C1492 C1491 1.410 . S
C1492 C1493 1.392 . S
C1492 C1495 1.511 . S
C1493 C1489 1.376 . S
C1493 C1492 1.392 . S
C1493 H1505 0.929 . S
C1494 C1490 1.531 . S
C1494 H1506 0.960 . S
C1494 H1507 0.962 . S
C1494 H1508 0.960 . S
C1495 C1492 1.511 . S
C1495 H1509 0.961 . S
C1495 H1510 0.961 . S
C1495 H1511 0.961 . S
C1496 C1497 1.370 . S
C1496 C1498 1.363 . S
C1496 H1512 0.931 . S
C1497 C1496 1.370 . S
C1497 C1501 1.408 . S
C1498 C1496 1.363 . S
C1498 C1499 1.370 . S
C1498 C1502 1.524 . S
C1499 C1491 1.503 . S
C1499 C1498 1.370 . S
C1499 C1500 1.403 . S
C1500 C1499 1.403 . S
C1500 C1501 1.404 . S
C1500 C1503 1.539 . S
C1501 C1497 1.408 . S
C1501 C1500 1.404 . S
C1501 H1513 0.930 . S
C1502 C1498 1.524 . S
C1502 H1514 0.956 . S
C1502 H1515 0.961 . S
C1502 H1516 0.961 . S
C1503 C1500 1.539 . S
C1503 H1517 0.958 . S
C1503 H1518 0.961 . S
C1503 H1519 0.960 . S
H1504 C1488 0.931 . S
H1505 C1493 0.929 . S
H1506 C1494 0.960 . S
H1507 C1494 0.962 . S
H1508 C1494 0.960 . S
H1509 C1495 0.961 . S
H1510 C1495 0.961 . S
H1511 C1495 0.961 . S
H1512 C1496 0.931 . S
H1513 C1501 0.930 . S
H1514 C1502 0.956 . S
H1515 C1502 0.961 . S
H1516 C1502 0.961 . S
H1517 C1503 0.958 . S
H1518 C1503 0.961 . S
H1519 C1503 0.960 . S
C1520 C1521 1.391 . S
C1520 C1522 1.394 . S
C1520 H1536 0.931 . S
C1521 C1520 1.391 . S
C1521 C1525 1.376 . S
C1522 C1520 1.394 . S
C1522 C1523 1.369 . S
C1522 C1526 1.531 . S
C1523 C1522 1.369 . S
C1523 C1524 1.410 . S
C1523 C1531 1.503 . S
C1524 C1523 1.410 . S
C1524 C1525 1.392 . S
C1524 C1527 1.511 . S
C1525 C1521 1.376 . S
C1525 C1524 1.392 . S
C1525 H1537 0.929 . S
C1526 C1522 1.531 . S
C1526 H1538 0.960 . S
C1526 H1539 0.962 . S
C1526 H1540 0.960 . S
C1527 C1524 1.511 . S
C1527 H1541 0.961 . S
C1527 H1542 0.961 . S
C1527 H1543 0.961 . S
C1528 C1529 1.370 . S
C1528 C1530 1.363 . S
C1528 H1544 0.931 . S
C1529 C1528 1.370 . S
C1529 C1533 1.408 . S
C1530 C1528 1.363 . S
C1530 C1531 1.370 . S
C1530 C1534 1.524 . S
C1531 C1523 1.503 . S
C1531 C1530 1.370 . S
C1531 C1532 1.403 . S
C1532 C1531 1.403 . S
C1532 C1533 1.404 . S
C1532 C1535 1.539 . S
C1533 C1529 1.408 . S
C1533 C1532 1.404 . S
C1533 H1545 0.930 . S
C1534 C1530 1.524 . S
C1534 H1546 0.956 . S
C1534 H1547 0.961 . S
C1534 H1548 0.961 . S
C1535 C1532 1.539 . S
C1535 H1549 0.958 . S
C1535 H1550 0.961 . S
C1535 H1551 0.960 . S
H1536 C1520 0.931 . S
H1537 C1525 0.929 . S
H1538 C1526 0.960 . S
H1539 C1526 0.962 . S
H1540 C1526 0.960 . S
H1541 C1527 0.961 . S
H1542 C1527 0.961 . S
H1543 C1527 0.961 . S
H1544 C1528 0.931 . S
H1545 C1533 0.930 . S
H1546 C1534 0.956 . S
H1547 C1534 0.961 . S
H1548 C1534 0.961 . S
H1549 C1535 0.958 . S
H1550 C1535 0.961 . S
H1551 C1535 0.960 . S
C1552 C1553 1.391 . S
C1552 C1554 1.394 . S
C1552 H1568 0.931 . S
C1553 C1552 1.391 . S
C1553 C1557 1.376 . S
C1554 C1552 1.394 . S
C1554 C1555 1.369 . S
C1554 C1558 1.531 . S
C1555 C1554 1.369 . S
C1555 C1556 1.411 . S
C1555 C1563 1.503 . S
C1556 C1555 1.411 . S
C1556 C1557 1.393 . S
C1556 C1559 1.509 1_455 S
C1557 C1553 1.376 . S
C1557 C1556 1.393 . S
C1557 H1569 0.929 . S
C1558 C1554 1.531 . S
C1558 H1570 0.960 . S
C1558 H1571 0.962 . S
C1558 H1572 0.960 . S
C1559 C1556 1.509 1_655 S
C1559 H1573 0.961 . S
C1559 H1574 0.961 . S
C1559 H1575 0.961 . S
C1560 C1561 1.370 . S
C1560 C1562 1.363 . S
C1560 H1576 0.931 . S
C1561 C1560 1.370 . S
C1561 C1565 1.408 1_455 S
C1562 C1560 1.363 . S
C1562 C1563 1.370 . S
C1562 C1566 1.524 . S
C1563 C1555 1.503 . S
C1563 C1562 1.370 . S
C1563 C1564 1.403 1_455 S
C1564 C1563 1.403 1_655 S
C1564 C1565 1.404 . S
C1564 C1567 1.539 . S
C1565 C1561 1.408 1_655 S
C1565 C1564 1.404 . S
C1565 H1577 0.930 . S
C1566 C1562 1.524 . S
C1566 H1578 0.956 . S
C1566 H1579 0.961 . S
C1566 H1580 0.961 . S
C1567 C1564 1.539 . S
C1567 H1581 0.958 . S
C1567 H1582 0.961 . S
C1567 H1583 0.960 . S
H1568 C1552 0.931 . S
H1569 C1557 0.929 . S
H1570 C1558 0.960 . S
H1571 C1558 0.962 . S
H1572 C1558 0.960 . S
H1573 C1559 0.961 . S
H1574 C1559 0.961 . S
H1575 C1559 0.961 . S
H1576 C1560 0.931 . S
H1577 C1565 0.930 . S
H1578 C1566 0.956 . S
H1579 C1566 0.961 . S
H1580 C1566 0.961 . S
H1581 C1567 0.958 . S
H1582 C1567 0.961 . S
H1583 C1567 0.960 . S
C1584 C1585 1.391 . S
C1584 C1586 1.394 . S
C1584 H1600 0.931 . S
C1585 C1584 1.391 . S
C1585 C1589 1.376 . S
C1586 C1584 1.394 . S
C1586 C1587 1.369 . S
C1586 C1590 1.531 . S
C1587 C1586 1.369 . S
C1587 C1588 1.410 . S
C1587 C1595 1.503 . S
C1588 C1587 1.410 . S
C1588 C1589 1.392 . S
C1588 C1591 1.511 . S
C1589 C1585 1.376 . S
C1589 C1588 1.392 . S
C1589 H1601 0.929 . S
C1590 C1586 1.531 . S
C1590 H1602 0.960 . S
C1590 H1603 0.962 . S
C1590 H1604 0.960 . S
C1591 C1588 1.511 . S
C1591 H1605 0.961 . S
C1591 H1606 0.961 . S
C1591 H1607 0.961 . S
C1592 C1593 1.370 . S
C1592 C1594 1.363 . S
C1592 H1608 0.931 . S
C1593 C1592 1.370 . S
C1593 C1597 1.408 . S
C1594 C1592 1.363 . S
C1594 C1595 1.370 . S
C1594 C1598 1.524 . S
C1595 C1587 1.503 . S
C1595 C1594 1.370 . S
C1595 C1596 1.403 . S
C1596 C1595 1.403 . S
C1596 C1597 1.404 . S
C1596 C1599 1.539 . S
C1597 C1593 1.408 . S
C1597 C1596 1.404 . S
C1597 H1609 0.930 . S
C1598 C1594 1.524 . S
C1598 H1610 0.956 . S
C1598 H1611 0.961 . S
C1598 H1612 0.961 . S
C1599 C1596 1.539 . S
C1599 H1613 0.958 . S
C1599 H1614 0.961 . S
C1599 H1615 0.960 . S
H1600 C1584 0.931 . S
H1601 C1589 0.929 . S
H1602 C1590 0.960 . S
H1603 C1590 0.962 . S
H1604 C1590 0.960 . S
H1605 C1591 0.961 . S
H1606 C1591 0.961 . S
H1607 C1591 0.961 . S
H1608 C1592 0.931 . S
H1609 C1597 0.930 . S
H1610 C1598 0.956 . S
H1611 C1598 0.961 . S
H1612 C1598 0.961 . S
H1613 C1599 0.958 . S
H1614 C1599 0.961 . S
H1615 C1599 0.960 . S
C1616 C1617 1.391 . S
C1616 C1618 1.394 . S
C1616 H1632 0.931 . S
C1617 C1616 1.391 . S
C1617 C1621 1.376 . S
C1618 C1616 1.394 . S
C1618 C1619 1.369 . S
C1618 C1622 1.531 . S
C1619 C1618 1.369 . S
C1619 C1620 1.410 . S
C1619 C1627 1.503 . S
C1620 C1619 1.410 . S
C1620 C1621 1.392 . S
C1620 C1623 1.511 . S
C1621 C1617 1.376 . S
C1621 C1620 1.392 . S
C1621 H1633 0.929 . S
C1622 C1618 1.531 . S
C1622 H1634 0.960 . S
C1622 H1635 0.962 . S
C1622 H1636 0.960 . S
C1623 C1620 1.511 . S
C1623 H1637 0.961 . S
C1623 H1638 0.961 . S
C1623 H1639 0.961 . S
C1624 C1625 1.370 . S
C1624 C1626 1.363 . S
C1624 H1640 0.931 . S
C1625 C1624 1.370 . S
C1625 C1629 1.408 . S
C1626 C1624 1.363 . S
C1626 C1627 1.370 . S
C1626 C1630 1.524 . S
C1627 C1619 1.503 . S
C1627 C1626 1.370 . S
C1627 C1628 1.403 . S
C1628 C1627 1.403 . S
C1628 C1629 1.404 . S
C1628 C1631 1.539 . S
C1629 C1625 1.408 . S
C1629 C1628 1.404 . S
C1629 H1641 0.930 1_556 S
C1630 C1626 1.524 . S
C1630 H1642 0.956 . S
C1630 H1643 0.961 . S
C1630 H1644 0.961 . S
C1631 C1628 1.539 . S
C1631 H1645 0.958 . S
C1631 H1646 0.961 1_556 S
C1631 H1647 0.960 . S
H1632 C1616 0.931 . S
H1633 C1621 0.929 . S
H1634 C1622 0.960 . S
H1635 C1622 0.962 . S
H1636 C1622 0.960 . S
H1637 C1623 0.961 . S
H1638 C1623 0.961 . S
H1639 C1623 0.961 . S
H1640 C1624 0.931 . S
H1641 C1629 0.930 1_554 S
H1642 C1630 0.956 . S
H1643 C1630 0.961 . S
H1644 C1630 0.961 . S
H1645 C1631 0.958 . S
H1646 C1631 0.961 1_554 S
H1647 C1631 0.960 . S
C1648 C1649 1.391 . S
C1648 C1650 1.394 . S
C1648 H1664 0.931 . S
C1649 C1648 1.391 . S
C1649 C1653 1.376 . S
C1650 C1648 1.394 . S
C1650 C1651 1.369 . S
C1650 C1654 1.531 . S
C1651 C1650 1.369 . S
C1651 C1652 1.410 . S
C1651 C1659 1.503 . S
C1652 C1651 1.410 . S
C1652 C1653 1.392 . S
C1652 C1655 1.511 . S
C1653 C1649 1.376 . S
C1653 C1652 1.392 . S
C1653 H1665 0.929 . S
C1654 C1650 1.531 . S
C1654 H1666 0.960 . S
C1654 H1667 0.962 . S
C1654 H1668 0.960 . S
C1655 C1652 1.511 . S
C1655 H1669 0.961 . S
C1655 H1670 0.961 . S
C1655 H1671 0.961 . S
C1656 C1657 1.370 . S
C1656 C1658 1.363 . S
C1656 H1672 0.931 . S
C1657 C1656 1.370 . S
C1657 C1661 1.408 . S
C1658 C1656 1.363 . S
C1658 C1659 1.370 . S
C1658 C1662 1.524 . S
C1659 C1651 1.503 . S
C1659 C1658 1.370 . S
C1659 C1660 1.403 . S
C1660 C1659 1.403 . S
C1660 C1661 1.404 . S
C1660 C1663 1.539 . S
C1661 C1657 1.408 . S
C1661 C1660 1.404 . S
C1661 H1673 0.930 . S
C1662 C1658 1.524 . S
C1662 H1674 0.956 . S
C1662 H1675 0.961 . S
C1662 H1676 0.961 . S
C1663 C1660 1.539 . S
C1663 H1677 0.958 . S
C1663 H1678 0.961 . S
C1663 H1679 0.960 . S
H1664 C1648 0.931 . S
H1665 C1653 0.929 . S
H1666 C1654 0.960 . S
H1667 C1654 0.962 . S
H1668 C1654 0.960 . S
H1669 C1655 0.961 . S
H1670 C1655 0.961 . S
H1671 C1655 0.961 . S
H1672 C1656 0.931 . S
H1673 C1661 0.930 . S
H1674 C1662 0.956 . S
H1675 C1662 0.961 . S
H1676 C1662 0.961 . S
H1677 C1663 0.958 . S
H1678 C1663 0.961 . S
H1679 C1663 0.960 . S
C1680 C1681 1.393 1_565 S
C1680 C1682 1.394 . S
C1680 H1696 0.931 . S
C1681 C1680 1.393 1_545 S
C1681 C1685 1.373 . S
C1682 C1680 1.394 . S
C1682 C1683 1.369 . S
C1682 C1686 1.531 . S
C1683 C1682 1.369 . S
C1683 C1684 1.415 1_565 S
C1683 C1691 1.503 1_565 S
C1684 C1683 1.415 1_545 S
C1684 C1685 1.394 . S
C1684 C1687 1.506 . S
C1685 C1681 1.373 . S
C1685 C1684 1.394 . S
C1685 H1697 0.929 . S
C1686 C1682 1.531 . S
C1686 H1698 0.960 . S
C1686 H1699 0.962 1_565 S
C1686 H1700 0.960 . S
C1687 C1684 1.506 . S
C1687 H1701 0.961 . S
C1687 H1702 0.961 . S
C1687 H1703 0.961 1_545 S
C1688 C1689 1.370 . S
C1688 C1690 1.363 . S
C1688 H1704 0.931 . S
C1689 C1688 1.370 . S
C1689 C1693 1.408 1_545 S
C1690 C1688 1.363 . S
C1690 C1691 1.370 . S
C1690 C1694 1.524 . S
C1691 C1683 1.503 1_545 S
C1691 C1690 1.370 . S
C1691 C1692 1.403 1_545 S
C1692 C1691 1.403 1_565 S
C1692 C1693 1.404 . S
C1692 C1695 1.539 . S
C1693 C1689 1.408 1_565 S
C1693 C1692 1.404 . S
C1693 H1705 0.930 . S
C1694 C1690 1.524 . S
C1694 H1706 0.956 . S
C1694 H1707 0.961 . S
C1694 H1708 0.961 . S
C1695 C1692 1.539 . S
C1695 H1709 0.958 . S
C1695 H1710 0.961 . S
C1695 H1711 0.960 . S
H1696 C1680 0.931 . S
H1697 C1685 0.929 . S
H1698 C1686 0.960 . S
H1699 C1686 0.962 1_545 S
H1700 C1686 0.960 . S
H1701 C1687 0.961 . S
H1702 C1687 0.961 . S
H1703 C1687 0.961 1_565 S
H1704 C1688 0.931 . S
H1705 C1693 0.930 . S
H1706 C1694 0.956 . S
H1707 C1694 0.961 . S
H1708 C1694 0.961 . S
H1709 C1695 0.958 . S
H1710 C1695 0.961 . S
H1711 C1695 0.960 . S
C1712 C1713 1.391 . S
C1712 C1714 1.394 . S
C1712 H1728 0.931 . S
C1713 C1712 1.391 . S
C1713 C1717 1.376 . S
C1714 C1712 1.394 . S
C1714 C1715 1.369 . S
C1714 C1718 1.531 . S
C1715 C1714 1.369 . S
C1715 C1716 1.410 . S
C1715 C1723 1.503 . S
C1716 C1715 1.410 . S
C1716 C1717 1.392 . S
C1716 C1719 1.511 . S
C1717 C1713 1.376 . S
C1717 C1716 1.392 . S
C1717 H1729 0.929 . S
C1718 C1714 1.531 . S
C1718 H1730 0.960 . S
C1718 H1731 0.962 . S
C1718 H1732 0.960 . S
C1719 C1716 1.511 . S
C1719 H1733 0.961 . S
C1719 H1734 0.961 . S
C1719 H1735 0.961 . S
C1720 C1721 1.370 . S
C1720 C1722 1.363 . S
C1720 H1736 0.931 . S
C1721 C1720 1.370 . S
C1721 C1725 1.408 . S
C1722 C1720 1.363 . S
C1722 C1723 1.370 . S
C1722 C1726 1.524 . S
C1723 C1715 1.503 . S
C1723 C1722 1.370 . S
C1723 C1724 1.403 . S
C1724 C1723 1.403 . S
C1724 C1725 1.404 . S
C1724 C1727 1.539 . S
C1725 C1721 1.408 . S
C1725 C1724 1.404 . S
C1725 H1737 0.930 . S
C1726 C1722 1.524 . S
C1726 H1738 0.956 . S
C1726 H1739 0.961 . S
C1726 H1740 0.961 . S
C1727 C1724 1.539 . S
C1727 H1741 0.958 . S
C1727 H1742 0.961 . S
C1727 H1743 0.960 . S
H1728 C1712 0.931 . S
H1729 C1717 0.929 . S
H1730 C1718 0.960 . S
H1731 C1718 0.962 . S
H1732 C1718 0.960 . S
H1733 C1719 0.961 . S
H1734 C1719 0.961 . S
H1735 C1719 0.961 . S
H1736 C1720 0.931 . S
H1737 C1725 0.930 . S
H1738 C1726 0.956 . S
H1739 C1726 0.961 . S
H1740 C1726 0.961 . S
H1741 C1727 0.958 . S
H1742 C1727 0.961 . S
H1743 C1727 0.960 . S
C1744 C1745 1.391 . S
C1744 C1746 1.394 . S
C1744 H1760 0.931 . S
C1745 C1744 1.391 . S
C1745 C1749 1.376 . S
C1746 C1744 1.394 . S
C1746 C1747 1.369 . S
C1746 C1750 1.553 . S
C1747 C1746 1.369 . S
C1747 C1748 1.410 . S
C1747 C1755 1.503 . S
C1748 C1747 1.410 . S
C1748 C1749 1.392 . S
C1748 C1751 1.511 . S
C1749 C1745 1.376 . S
C1749 C1748 1.392 . S
C1749 H1761 0.929 . S
C1750 C1746 1.553 . S
C1750 H1762 0.971 . S
C1750 H1763 0.932 1_545 S
C1750 H1764 0.958 1_545 S
C1751 C1748 1.511 . S
C1751 H1765 0.961 . S
C1751 H1766 0.961 . S
C1751 H1767 0.961 . S
C1752 C1753 1.370 . S
C1752 C1754 1.363 . S
C1752 H1768 0.902 1_545 S
C1753 C1752 1.370 . S
C1753 C1757 1.408 . S
C1754 C1752 1.363 . S
C1754 C1755 1.370 . S
C1754 C1758 1.524 1_545 S
C1755 C1747 1.503 . S
C1755 C1754 1.370 . S
C1755 C1756 1.403 . S
C1756 C1755 1.403 . S
C1756 C1757 1.404 . S
C1756 C1759 1.539 . S
C1757 C1753 1.408 . S
C1757 C1756 1.404 . S
C1757 H1769 0.930 . S
C1758 C1754 1.524 1_565 S
C1758 H1770 0.956 . S
C1758 H1771 0.961 1_565 S
C1758 H1772 0.961 . S
C1759 C1756 1.539 . S
C1759 H1773 0.958 . S
C1759 H1774 0.961 . S
C1759 H1775 0.960 . S
H1760 C1744 0.931 . S
H1761 C1749 0.929 . S
H1762 C1750 0.971 . S
H1763 C1750 0.932 1_565 S
H1764 C1750 0.958 1_565 S
H1765 C1751 0.961 . S
H1766 C1751 0.961 . S
H1767 C1751 0.961 . S
H1768 C1752 0.902 1_565 S
H1769 C1757 0.930 . S
H1770 C1758 0.956 . S
H1771 C1758 0.961 1_545 S
H1772 C1758 0.961 . S
H1773 C1759 0.958 . S
H1774 C1759 0.961 . S
H1775 C1759 0.960 . S
C1776 C1777 1.391 . S
C1776 C1778 1.394 . S
C1776 H1792 0.931 . S
C1777 C1776 1.391 . S
C1777 C1781 1.376 . S
C1778 C1776 1.394 . S
C1778 C1779 1.369 . S
C1778 C1782 1.531 . S
C1779 C1778 1.369 . S
C1779 C1780 1.410 . S
C1779 C1787 1.503 . S
C1780 C1779 1.410 . S
C1780 C1781 1.392 . S
C1780 C1783 1.511 . S
C1781 C1777 1.376 . S
C1781 C1780 1.392 . S
C1781 H1793 0.929 . S
C1782 C1778 1.531 . S
C1782 H1794 0.960 . S
C1782 H1795 0.962 . S
C1782 H1796 0.960 . S
C1783 C1780 1.511 . S
C1783 H1797 0.961 . S
C1783 H1798 0.961 . S
C1783 H1799 0.961 . S
C1784 C1785 1.370 . S
C1784 C1786 1.363 . S
C1784 H1800 0.931 . S
C1785 C1784 1.370 . S
C1785 C1789 1.408 . S
C1786 C1784 1.363 . S
C1786 C1787 1.370 . S
C1786 C1790 1.524 . S
C1787 C1779 1.503 . S
C1787 C1786 1.370 . S
C1787 C1788 1.403 . S
C1788 C1787 1.403 . S
C1788 C1789 1.404 . S
C1788 C1791 1.539 . S
C1789 C1785 1.408 . S
C1789 C1788 1.404 . S
C1789 H1801 0.930 . S
C1790 C1786 1.524 . S
C1790 H1802 0.956 . S
C1790 H1803 0.961 . S
C1790 H1804 0.961 . S
C1791 C1788 1.539 . S
C1791 H1805 0.958 . S
C1791 H1806 0.961 . S
C1791 H1807 0.960 . S
H1792 C1776 0.931 . S
H1793 C1781 0.929 . S
H1794 C1782 0.960 . S
H1795 C1782 0.962 . S
H1796 C1782 0.960 . S
H1797 C1783 0.961 . S
H1798 C1783 0.961 . S
H1799 C1783 0.961 . S
H1800 C1784 0.931 . S
H1801 C1789 0.930 . S
H1802 C1790 0.956 . S
H1803 C1790 0.961 . S
H1804 C1790 0.961 . S
H1805 C1791 0.958 . S
H1806 C1791 0.961 . S
H1807 C1791 0.960 . S
C1808 C1809 1.391 . S
C1808 C1810 1.394 . S
C1808 H1824 0.931 . S
C1809 C1808 1.391 . S
C1809 C1813 1.376 1_565 S
C1810 C1808 1.394 . S
C1810 C1811 1.386 . S
C1810 C1814 1.531 . S
C1811 C1810 1.386 . S
C1811 C1812 1.403 1_565 S
C1811 C1819 1.491 1_565 S
C1812 C1811 1.403 1_545 S
C1812 C1813 1.392 . S
C1812 C1815 1.511 . S
C1813 C1809 1.376 1_545 S
C1813 C1812 1.392 . S
C1813 H1825 0.929 . S
C1814 C1810 1.531 . S
C1814 H1826 0.960 . S
C1814 H1827 0.962 . S
C1814 H1828 0.960 . S
C1815 C1812 1.511 . S
C1815 H1829 0.961 . S
C1815 H1830 0.961 . S
C1815 H1831 0.961 . S
C1816 C1817 1.370 . S
C1816 C1818 1.363 . S
C1816 H1832 0.931 . S
C1817 C1816 1.370 . S
C1817 C1821 1.408 1_545 S
C1818 C1816 1.363 . S
C1818 C1819 1.370 . S
C1818 C1822 1.524 . S
C1819 C1811 1.491 1_545 S
C1819 C1818 1.370 . S
C1819 C1820 1.403 1_545 S
C1820 C1819 1.403 1_565 S
C1820 C1821 1.404 . S
C1820 C1823 1.539 . S
C1821 C1817 1.408 1_565 S
C1821 C1820 1.404 . S
C1821 H1833 0.930 . S
C1822 C1818 1.524 . S
C1822 H1834 0.956 . S
C1822 H1835 0.961 . S
C1822 H1836 0.961 . S
C1823 C1820 1.539 . S
C1823 H1837 0.958 . S
C1823 H1838 0.961 . S
C1823 H1839 0.960 . S
H1824 C1808 0.931 . S
H1825 C1813 0.929 . S
H1826 C1814 0.960 . S
H1827 C1814 0.962 . S
H1828 C1814 0.960 . S
H1829 C1815 0.961 . S
H1830 C1815 0.961 . S
H1831 C1815 0.961 . S
H1832 C1816 0.931 . S
H1833 C1821 0.930 . S
H1834 C1822 0.956 . S
H1835 C1822 0.961 . S
H1836 C1822 0.961 . S
H1837 C1823 0.958 . S
H1838 C1823 0.961 . S
H1839 C1823 0.960 . S
C1840 C1841 1.391 . S
C1840 C1842 1.394 . S
C1840 H1856 0.931 . S
C1841 C1840 1.391 . S
C1841 C1845 1.376 . S
C1842 C1840 1.394 . S
C1842 C1843 1.369 . S
C1842 C1846 1.531 . S
C1843 C1842 1.369 . S
C1843 C1844 1.410 . S
C1843 C1851 1.503 . S
C1844 C1843 1.410 . S
C1844 C1845 1.392 . S
C1844 C1847 1.511 . S
C1845 C1841 1.376 . S
C1845 C1844 1.392 . S
C1845 H1857 0.929 . S
C1846 C1842 1.531 . S
C1846 H1858 0.960 . S
C1846 H1859 0.962 . S
C1846 H1860 0.960 . S
C1847 C1844 1.511 . S
C1847 H1861 0.961 . S
C1847 H1862 0.961 . S
C1847 H1863 0.961 . S
C1848 C1849 1.370 . S
C1848 C1850 1.363 . S
C1848 H1864 0.931 . S
C1849 C1848 1.370 . S
C1849 C1853 1.408 . S
C1850 C1848 1.363 . S
C1850 C1851 1.370 . S
C1850 C1854 1.524 . S
C1851 C1843 1.503 . S
C1851 C1850 1.370 . S
C1851 C1852 1.403 . S
C1852 C1851 1.403 . S
C1852 C1853 1.404 . S
C1852 C1855 1.539 . S
C1853 C1849 1.408 . S
C1853 C1852 1.404 . S
C1853 H1865 0.930 . S
C1854 C1850 1.524 . S
C1854 H1866 0.956 . S
C1854 H1867 0.961 . S
C1854 H1868 0.961 . S
C1855 C1852 1.539 . S
C1855 H1869 0.958 . S
C1855 H1870 0.961 . S
C1855 H1871 0.960 . S
H1856 C1840 0.931 . S
H1857 C1845 0.929 . S
H1858 C1846 0.960 . S
H1859 C1846 0.962 . S
H1860 C1846 0.960 . S
H1861 C1847 0.961 . S
H1862 C1847 0.961 . S
H1863 C1847 0.961 . S
H1864 C1848 0.931 . S
H1865 C1853 0.930 . S
H1866 C1854 0.956 . S
H1867 C1854 0.961 . S
H1868 C1854 0.961 . S
H1869 C1855 0.958 . S
H1870 C1855 0.961 . S
H1871 C1855 0.960 . S
C1872 C1873 1.391 . S
C1872 C1874 1.394 . S
C1872 H1888 0.931 . S
C1873 C1872 1.391 . S
C1873 C1877 1.376 . S
C1874 C1872 1.394 . S
C1874 C1875 1.369 . S
C1874 C1878 1.534 . S
C1875 C1874 1.369 . S
C1875 C1876 1.410 . S
C1875 C1883 1.503 . S
C1876 C1875 1.410 . S
C1876 C1877 1.392 . S
C1876 C1879 1.511 . S
C1877 C1873 1.376 . S
C1877 C1876 1.392 . S
C1877 H1889 0.929 . S
C1878 C1874 1.534 . S
C1878 H1890 0.970 . S
C1878 H1891 0.939 1_545 S
C1878 H1892 0.970 . S
C1879 C1876 1.511 . S
C1879 H1893 0.961 . S
C1879 H1894 0.961 . S
C1879 H1895 0.961 . S
C1880 C1881 1.370 1_565 S
C1880 C1882 1.363 . S
C1880 H1896 0.931 . S
C1881 C1880 1.370 1_545 S
C1881 C1885 1.408 . S
C1882 C1880 1.363 . S
C1882 C1883 1.370 1_565 S
C1882 C1886 1.524 . S
C1883 C1875 1.503 . S
C1883 C1882 1.370 1_545 S
C1883 C1884 1.403 . S
C1884 C1883 1.403 . S
C1884 C1885 1.404 . S
C1884 C1887 1.539 . S
C1885 C1881 1.408 . S
C1885 C1884 1.404 . S
C1885 H1897 0.930 . S
C1886 C1882 1.524 . S
C1886 H1898 0.956 . S
C1886 H1899 0.961 . S
C1886 H1900 0.961 . S
C1887 C1884 1.539 . S
C1887 H1901 0.958 . S
C1887 H1902 0.961 . S
C1887 H1903 0.960 . S
H1888 C1872 0.931 . S
H1889 C1877 0.929 . S
H1890 C1878 0.970 . S
H1891 C1878 0.939 1_565 S
H1892 C1878 0.970 . S
H1893 C1879 0.961 . S
H1894 C1879 0.961 . S
H1895 C1879 0.961 . S
H1896 C1880 0.931 . S
H1897 C1885 0.930 . S
H1898 C1886 0.956 . S
H1899 C1886 0.961 . S
H1900 C1886 0.961 . S
H1901 C1887 0.958 . S
H1902 C1887 0.961 . S
H1903 C1887 0.960 . S
C1904 C1905 1.391 . S
C1904 C1906 1.394 . S
C1904 H1920 0.931 . S
C1905 C1904 1.391 . S
C1905 C1909 1.376 . S
C1906 C1904 1.394 . S
C1906 C1907 1.369 . S
C1906 C1910 1.531 . S
C1907 C1906 1.369 . S
C1907 C1908 1.410 . S
C1907 C1915 1.503 . S
C1908 C1907 1.410 . S
C1908 C1909 1.392 . S
C1908 C1911 1.511 . S
C1909 C1905 1.376 . S
C1909 C1908 1.392 . S
C1909 H1921 0.929 . S
C1910 C1906 1.531 . S
C1910 H1922 0.960 . S
C1910 H1923 0.962 . S
C1910 H1924 0.960 . S
C1911 C1908 1.511 . S
C1911 H1925 0.961 . S
C1911 H1926 0.961 . S
C1911 H1927 0.961 . S
C1912 C1913 1.370 . S
C1912 C1914 1.363 . S
C1912 H1928 0.931 . S
C1913 C1912 1.370 . S
C1913 C1917 1.408 . S
C1914 C1912 1.363 . S
C1914 C1915 1.370 . S
C1914 C1918 1.524 . S
C1915 C1907 1.503 . S
C1915 C1914 1.370 . S
C1915 C1916 1.403 . S
C1916 C1915 1.403 . S
C1916 C1917 1.404 . S
C1916 C1919 1.539 . S
C1917 C1913 1.408 . S
C1917 C1916 1.404 . S
C1917 H1929 0.930 . S
C1918 C1914 1.524 . S
C1918 H1930 0.956 . S
C1918 H1931 0.961 . S
C1918 H1932 0.961 . S
C1919 C1916 1.539 . S
C1919 H1933 0.958 . S
C1919 H1934 0.961 . S
C1919 H1935 0.960 . S
H1920 C1904 0.931 . S
H1921 C1909 0.929 . S
H1922 C1910 0.960 . S
H1923 C1910 0.962 . S
H1924 C1910 0.960 . S
H1925 C1911 0.961 . S
H1926 C1911 0.961 . S
H1927 C1911 0.961 . S
H1928 C1912 0.931 . S
H1929 C1917 0.930 . S
H1930 C1918 0.956 . S
H1931 C1918 0.961 . S
H1932 C1918 0.961 . S
H1933 C1919 0.958 . S
H1934 C1919 0.961 . S
H1935 C1919 0.960 . S
C1936 C1937 1.391 1_556 S
C1936 C1938 1.394 . S
C1936 H1952 0.931 . S
C1937 C1936 1.391 1_554 S
C1937 C1941 1.376 . S
C1938 C1936 1.394 . S
C1938 C1939 1.369 . S
C1938 C1942 1.531 . S
C1939 C1938 1.369 . S
C1939 C1940 1.410 1_556 S
C1939 C1947 1.503 . S
C1940 C1939 1.410 1_554 S
C1940 C1941 1.392 . S
C1940 C1943 1.511 . S
C1941 C1937 1.376 . S
C1941 C1940 1.392 . S
C1941 H1953 0.929 . S
C1942 C1938 1.531 . S
C1942 H1954 0.960 . S
C1942 H1955 0.962 . S
C1942 H1956 0.960 . S
C1943 C1940 1.511 . S
C1943 H1957 0.961 . S
C1943 H1958 0.961 . S
C1943 H1959 0.961 . S
C1944 C1945 1.370 . S
C1944 C1946 1.363 . S
C1944 H1960 0.931 . S
C1945 C1944 1.370 . S
C1945 C1949 1.410 1_556 S
C1946 C1944 1.363 . S
C1946 C1947 1.370 . S
C1946 C1950 1.524 . S
C1947 C1939 1.503 . S
C1947 C1946 1.370 . S
C1947 C1948 1.403 1_556 S
C1948 C1947 1.403 1_554 S
C1948 C1949 1.403 . S
C1948 C1951 1.539 . S
C1949 C1945 1.410 1_554 S
C1949 C1948 1.403 . S
C1949 H1961 0.929 . S
C1950 C1946 1.524 . S
C1950 H1962 0.956 . S
C1950 H1963 0.961 . S
C1950 H1964 0.961 . S
C1951 C1948 1.539 . S
C1951 H1965 0.958 . S
C1951 H1966 0.961 . S
C1951 H1967 0.960 . S
H1952 C1936 0.931 . S
H1953 C1941 0.929 . S
H1954 C1942 0.960 . S
H1955 C1942 0.962 . S
H1956 C1942 0.960 . S
H1957 C1943 0.961 . S
H1958 C1943 0.961 . S
H1959 C1943 0.961 . S
H1960 C1944 0.931 . S
H1961 C1949 0.929 . S
H1962 C1950 0.956 . S
H1963 C1950 0.961 . S
H1964 C1950 0.961 . S
H1965 C1951 0.958 . S
H1966 C1951 0.961 . S
H1967 C1951 0.960 . S
C1968 C1969 1.391 . S
C1968 C1970 1.394 . S
C1968 H1984 0.931 . S
C1969 C1968 1.391 . S
C1969 C1973 1.376 . S
C1970 C1968 1.394 . S
C1970 C1971 1.369 . S
C1970 C1974 1.531 1_554 S
C1971 C1970 1.369 . S
C1971 C1972 1.410 . S
C1971 C1979 1.503 . S
C1972 C1971 1.410 . S
C1972 C1973 1.392 . S
C1972 C1975 1.511 . S
C1973 C1969 1.376 . S
C1973 C1972 1.392 . S
C1973 H1985 0.929 . S
C1974 C1970 1.531 1_556 S
C1974 H1986 0.960 . S
C1974 H1987 0.962 1_556 S
C1974 H1988 0.960 . S
C1975 C1972 1.511 . S
C1975 H1989 0.961 . S
C1975 H1990 0.961 . S
C1975 H1991 0.961 . S
C1976 C1977 1.370 . S
C1976 C1978 1.363 . S
C1976 H1992 0.931 . S
C1977 C1976 1.370 . S
C1977 C1981 1.408 1_554 S
C1978 C1976 1.363 . S
C1978 C1979 1.370 . S
C1978 C1982 1.524 . S
C1979 C1971 1.503 . S
C1979 C1978 1.370 . S
C1979 C1980 1.403 1_554 S
C1980 C1979 1.403 1_556 S
C1980 C1981 1.404 . S
C1980 C1983 1.539 . S
C1981 C1977 1.408 1_556 S
C1981 C1980 1.404 . S
C1981 H1993 0.930 . S
C1982 C1978 1.524 . S
C1982 H1994 0.956 . S
C1982 H1995 0.961 . S
C1982 H1996 0.961 . S
C1983 C1980 1.539 . S
C1983 H1997 0.958 . S
C1983 H1998 0.961 . S
C1983 H1999 0.960 . S
H1984 C1968 0.931 . S
H1985 C1973 0.929 . S
H1986 C1974 0.960 . S
H1987 C1974 0.962 1_554 S
H1988 C1974 0.960 . S
H1989 C1975 0.961 . S
H1990 C1975 0.961 . S
H1991 C1975 0.961 . S
H1992 C1976 0.931 . S
H1993 C1981 0.930 . S
H1994 C1982 0.956 . S
H1995 C1982 0.961 . S
H1996 C1982 0.961 . S
H1997 C1983 0.958 . S
H1998 C1983 0.961 . S
H1999 C1983 0.960 . S
C2000 C2001 1.391 . S
C2000 C2002 1.394 . S
C2000 H2016 0.931 . S
C2001 C2000 1.391 . S
C2001 C2005 1.376 . S
C2002 C2000 1.394 . S
C2002 C2003 1.369 . S
C2002 C2006 1.531 . S
C2003 C2002 1.369 . S
C2003 C2004 1.410 . S
C2003 C2011 1.503 . S
C2004 C2003 1.410 . S
C2004 C2005 1.392 . S
C2004 C2007 1.511 . S
C2005 C2001 1.376 . S
C2005 C2004 1.392 . S
C2005 H2017 0.929 . S
C2006 C2002 1.531 . S
C2006 H2018 0.960 . S
C2006 H2019 0.962 . S
C2006 H2020 0.960 . S
C2007 C2004 1.511 . S
C2007 H2021 0.961 . S
C2007 H2022 0.961 . S
C2007 H2023 0.961 . S
C2008 C2009 1.370 . S
C2008 C2010 1.363 . S
C2008 H2024 0.931 . S
C2009 C2008 1.370 . S
C2009 C2013 1.408 . S
C2010 C2008 1.363 . S
C2010 C2011 1.370 . S
C2010 C2014 1.524 . S
C2011 C2003 1.503 . S
C2011 C2010 1.370 . S
C2011 C2012 1.403 . S
C2012 C2011 1.403 . S
C2012 C2013 1.404 . S
C2012 C2015 1.539 . S
C2013 C2009 1.408 . S
C2013 C2012 1.404 . S
C2013 H2025 0.930 . S
C2014 C2010 1.524 . S
C2014 H2026 0.956 . S
C2014 H2027 0.961 . S
C2014 H2028 0.961 . S
C2015 C2012 1.539 . S
C2015 H2029 0.958 . S
C2015 H2030 0.961 . S
C2015 H2031 0.960 . S
H2016 C2000 0.931 . S
H2017 C2005 0.929 . S
H2018 C2006 0.960 . S
H2019 C2006 0.962 . S
H2020 C2006 0.960 . S
H2021 C2007 0.961 . S
H2022 C2007 0.961 . S
H2023 C2007 0.961 . S
H2024 C2008 0.931 . S
H2025 C2013 0.930 . S
H2026 C2014 0.956 . S
H2027 C2014 0.961 . S
H2028 C2014 0.961 . S
H2029 C2015 0.958 . S
H2030 C2015 0.961 . S
H2031 C2015 0.960 . S
C2032 C2033 1.391 . S
C2032 C2034 1.394 . S
C2032 H2048 0.931 . S
C2033 C2032 1.391 . S
C2033 C2037 1.376 . S
C2034 C2032 1.394 . S
C2034 C2035 1.369 . S
C2034 C2038 1.531 . S
C2035 C2034 1.369 . S
C2035 C2036 1.410 . S
C2035 C2043 1.503 . S
C2036 C2035 1.410 . S
C2036 C2037 1.392 . S
C2036 C2039 1.511 . S
C2037 C2033 1.376 . S
C2037 C2036 1.392 . S
C2037 H2049 0.929 . S
C2038 C2034 1.531 . S
C2038 H2050 0.960 . S
C2038 H2051 0.962 . S
C2038 H2052 0.960 . S
C2039 C2036 1.511 . S
C2039 H2053 0.961 . S
C2039 H2054 0.961 . S
C2039 H2055 0.961 . S
C2040 C2041 1.370 . S
C2040 C2042 1.363 . S
C2040 H2056 0.931 . S
C2041 C2040 1.370 . S
C2041 C2045 1.408 . S
C2042 C2040 1.363 . S
C2042 C2043 1.370 . S
C2042 C2046 1.524 . S
C2043 C2035 1.503 . S
C2043 C2042 1.370 . S
C2043 C2044 1.403 . S
C2044 C2043 1.403 . S
C2044 C2045 1.404 . S
C2044 C2047 1.539 . S
C2045 C2041 1.408 . S
C2045 C2044 1.404 . S
C2045 H2057 0.930 . S
C2046 C2042 1.524 . S
C2046 H2058 0.956 . S
C2046 H2059 0.961 . S
C2046 H2060 0.961 . S
C2047 C2044 1.539 . S
C2047 H2061 0.958 . S
C2047 H2062 0.961 . S
C2047 H2063 0.960 . S
H2048 C2032 0.931 . S
H2049 C2037 0.929 . S
H2050 C2038 0.960 . S
H2051 C2038 0.962 . S
H2052 C2038 0.960 . S
H2053 C2039 0.961 . S
H2054 C2039 0.961 . S
H2055 C2039 0.961 . S
H2056 C2040 0.931 . S
H2057 C2045 0.930 . S
H2058 C2046 0.956 . S
H2059 C2046 0.961 . S
H2060 C2046 0.961 . S
H2061 C2047 0.958 . S
H2062 C2047 0.961 . S
H2063 C2047 0.960 . S
C2064 C2065 1.391 . S
C2064 C2066 1.394 . S
C2064 H2080 0.931 . S
C2065 C2064 1.391 . S
C2065 C2069 1.376 . S
C2066 C2064 1.394 . S
C2066 C2067 1.369 . S
C2066 C2070 1.531 . S
C2067 C2066 1.369 . S
C2067 C2068 1.410 . S
C2067 C2075 1.503 . S
C2068 C2067 1.410 . S
C2068 C2069 1.392 . S
C2068 C2071 1.511 . S
C2069 C2065 1.376 . S
C2069 C2068 1.392 . S
C2069 H2081 0.929 . S
C2070 C2066 1.531 . S
C2070 H2082 0.960 . S
C2070 H2083 0.962 . S
C2070 H2084 0.960 . S
C2071 C2068 1.511 . S
C2071 H2085 0.961 . S
C2071 H2086 0.961 . S
C2071 H2087 0.961 . S
C2072 C2073 1.370 . S
C2072 C2074 1.363 . S
C2072 H2088 0.931 . S
C2073 C2072 1.370 . S
C2073 C2077 1.408 . S
C2074 C2072 1.363 . S
C2074 C2075 1.370 . S
C2074 C2078 1.524 . S
C2075 C2067 1.503 . S
C2075 C2074 1.370 . S
C2075 C2076 1.403 . S
C2076 C2075 1.403 . S
C2076 C2077 1.404 . S
C2076 C2079 1.539 . S
C2077 C2073 1.408 . S
C2077 C2076 1.404 . S
C2077 H2089 0.930 . S
C2078 C2074 1.524 . S
C2078 H2090 0.956 . S
C2078 H2091 0.961 . S
C2078 H2092 0.961 . S
C2079 C2076 1.539 . S
C2079 H2093 0.958 . S
C2079 H2094 0.961 . S
C2079 H2095 0.960 . S
H2080 C2064 0.931 . S
H2081 C2069 0.929 . S
H2082 C2070 0.960 . S
H2083 C2070 0.962 . S
H2084 C2070 0.960 . S
H2085 C2071 0.961 . S
H2086 C2071 0.961 . S
H2087 C2071 0.961 . S
H2088 C2072 0.931 . S
H2089 C2077 0.930 . S
H2090 C2078 0.956 . S
H2091 C2078 0.961 . S
H2092 C2078 0.961 . S
H2093 C2079 0.958 . S
H2094 C2079 0.961 . S
H2095 C2079 0.960 . S
C2096 C2097 1.391 . S
C2096 C2098 1.394 . S
C2096 H2112 0.931 . S
C2097 C2096 1.391 . S
C2097 C2101 1.376 . S
C2098 C2096 1.394 . S
C2098 C2099 1.369 . S
C2098 C2102 1.531 . S
C2099 C2098 1.369 . S
C2099 C2100 1.410 . S
C2099 C2107 1.503 . S
C2100 C2099 1.410 . S
C2100 C2101 1.392 . S
C2100 C2103 1.511 . S
C2101 C2097 1.376 . S
C2101 C2100 1.392 . S
C2101 H2113 0.929 . S
C2102 C2098 1.531 . S
C2102 H2114 0.960 . S
C2102 H2115 0.962 . S
C2102 H2116 0.960 . S
C2103 C2100 1.511 . S
C2103 H2117 0.961 . S
C2103 H2118 0.961 . S
C2103 H2119 0.961 . S
C2104 C2105 1.370 . S
C2104 C2106 1.363 . S
C2104 H2120 0.931 . S
C2105 C2104 1.370 . S
C2105 C2109 1.408 . S
C2106 C2104 1.363 . S
C2106 C2107 1.370 . S
C2106 C2110 1.524 . S
C2107 C2099 1.503 . S
C2107 C2106 1.370 . S
C2107 C2108 1.403 . S
C2108 C2107 1.403 . S
C2108 C2109 1.404 . S
C2108 C2111 1.539 . S
C2109 C2105 1.408 . S
C2109 C2108 1.404 . S
C2109 H2121 0.930 . S
C2110 C2106 1.524 . S
C2110 H2122 0.956 . S
C2110 H2123 0.961 . S
C2110 H2124 0.961 . S
C2111 C2108 1.539 . S
C2111 H2125 0.958 . S
C2111 H2126 0.961 . S
C2111 H2127 0.960 . S
H2112 C2096 0.931 . S
H2113 C2101 0.929 . S
H2114 C2102 0.960 . S
H2115 C2102 0.962 . S
H2116 C2102 0.960 . S
H2117 C2103 0.961 . S
H2118 C2103 0.961 . S
H2119 C2103 0.961 . S
H2120 C2104 0.931 . S
H2121 C2109 0.930 . S
H2122 C2110 0.956 . S
H2123 C2110 0.961 . S
H2124 C2110 0.961 . S
H2125 C2111 0.958 . S
H2126 C2111 0.961 . S
H2127 C2111 0.960 . S
C2128 C2129 1.391 . S
C2128 C2130 1.394 . S
C2128 H2144 0.931 . S
C2129 C2128 1.391 . S
C2129 C2133 1.376 . S
C2130 C2128 1.394 . S
C2130 C2131 1.369 . S
C2130 C2134 1.531 . S
C2131 C2130 1.369 . S
C2131 C2132 1.410 . S
C2131 C2139 1.503 . S
C2132 C2131 1.410 . S
C2132 C2133 1.392 . S
C2132 C2135 1.511 . S
C2133 C2129 1.376 . S
C2133 C2132 1.392 . S
C2133 H2145 0.929 . S
C2134 C2130 1.531 . S
C2134 H2146 0.960 . S
C2134 H2147 0.962 . S
C2134 H2148 0.960 . S
C2135 C2132 1.511 . S
C2135 H2149 0.961 . S
C2135 H2150 0.961 . S
C2135 H2151 0.961 . S
C2136 C2137 1.370 . S
C2136 C2138 1.363 . S
C2136 H2152 0.931 . S
C2137 C2136 1.370 . S
C2137 C2141 1.408 . S
C2138 C2136 1.363 . S
C2138 C2139 1.370 . S
C2138 C2142 1.524 . S
C2139 C2131 1.503 . S
C2139 C2138 1.370 . S
C2139 C2140 1.403 . S
C2140 C2139 1.403 . S
C2140 C2141 1.404 . S
C2140 C2143 1.539 . S
C2141 C2137 1.408 . S
C2141 C2140 1.404 . S
C2141 H2153 0.930 . S
C2142 C2138 1.524 . S
C2142 H2154 0.956 . S
C2142 H2155 0.961 . S
C2142 H2156 0.961 . S
C2143 C2140 1.539 . S
C2143 H2157 0.958 . S
C2143 H2158 0.961 . S
C2143 H2159 0.960 . S
H2144 C2128 0.931 . S
H2145 C2133 0.929 . S
H2146 C2134 0.960 . S
H2147 C2134 0.962 . S
H2148 C2134 0.960 . S
H2149 C2135 0.961 . S
H2150 C2135 0.961 . S
H2151 C2135 0.961 . S
H2152 C2136 0.931 . S
H2153 C2141 0.930 . S
H2154 C2142 0.956 . S
H2155 C2142 0.961 . S
H2156 C2142 0.961 . S
H2157 C2143 0.958 . S
H2158 C2143 0.961 . S
H2159 C2143 0.960 . S
C2160 C2161 1.391 . S
C2160 C2162 1.394 . S
C2160 H2176 0.931 . S
C2161 C2160 1.391 . S
C2161 C2165 1.376 . S
C2162 C2160 1.394 . S
C2162 C2163 1.369 . S
C2162 C2166 1.531 . S
C2163 C2162 1.369 . S
C2163 C2164 1.410 . S
C2163 C2171 1.503 . S
C2164 C2163 1.410 . S
C2164 C2165 1.392 . S
C2164 C2167 1.511 . S
C2165 C2161 1.376 . S
C2165 C2164 1.392 . S
C2165 H2177 0.929 . S
C2166 C2162 1.531 . S
C2166 H2178 0.960 . S
C2166 H2179 0.962 . S
C2166 H2180 0.960 . S
C2167 C2164 1.511 . S
C2167 H2181 0.961 . S
C2167 H2182 0.961 . S
C2167 H2183 0.961 . S
C2168 C2169 1.370 . S
C2168 C2170 1.363 . S
C2168 H2184 0.931 . S
C2169 C2168 1.370 . S
C2169 C2173 1.408 . S
C2170 C2168 1.363 . S
C2170 C2171 1.370 . S
C2170 C2174 1.524 . S
C2171 C2163 1.503 . S
C2171 C2170 1.370 . S
C2171 C2172 1.403 . S
C2172 C2171 1.403 . S
C2172 C2173 1.404 . S
C2172 C2175 1.539 . S
C2173 C2169 1.408 . S
C2173 C2172 1.404 . S
C2173 H2185 0.930 . S
C2174 C2170 1.524 . S
C2174 H2186 0.956 . S
C2174 H2187 0.961 . S
C2174 H2188 0.961 . S
C2175 C2172 1.539 . S
C2175 H2189 0.958 . S
C2175 H2190 0.961 . S
C2175 H2191 0.960 . S
H2176 C2160 0.931 . S
H2177 C2165 0.929 . S
H2178 C2166 0.960 . S
H2179 C2166 0.962 . S
H2180 C2166 0.960 . S
H2181 C2167 0.961 . S
H2182 C2167 0.961 . S
H2183 C2167 0.961 . S
H2184 C2168 0.931 . S
H2185 C2173 0.930 . S
H2186 C2174 0.956 . S
H2187 C2174 0.961 . S
H2188 C2174 0.961 . S
H2189 C2175 0.958 . S
H2190 C2175 0.961 . S
H2191 C2175 0.960 . S
C2192 C2193 1.391 . S
C2192 C2194 1.394 . S
C2192 H2208 0.931 . S
C2193 C2192 1.391 . S
C2193 C2197 1.376 . S
C2194 C2192 1.394 . S
C2194 C2195 1.369 . S
C2194 C2198 1.531 . S
C2195 C2194 1.369 . S
C2195 C2196 1.410 . S
C2195 C2203 1.503 . S
C2196 C2195 1.410 . S
C2196 C2197 1.392 . S
C2196 C2199 1.511 . S
C2197 C2193 1.376 . S
C2197 C2196 1.392 . S
C2197 H2209 0.929 . S
C2198 C2194 1.531 . S
C2198 H2210 0.960 . S
C2198 H2211 0.962 . S
C2198 H2212 0.960 . S
C2199 C2196 1.511 . S
C2199 H2213 0.961 . S
C2199 H2214 0.961 . S
C2199 H2215 0.961 . S
C2200 C2201 1.370 . S
C2200 C2202 1.363 . S
C2200 H2216 0.931 . S
C2201 C2200 1.370 . S
C2201 C2205 1.408 . S
C2202 C2200 1.363 . S
C2202 C2203 1.370 . S
C2202 C2206 1.524 . S
C2203 C2195 1.503 . S
C2203 C2202 1.370 . S
C2203 C2204 1.403 . S
C2204 C2203 1.403 . S
C2204 C2205 1.404 . S
C2204 C2207 1.539 . S
C2205 C2201 1.408 . S
C2205 C2204 1.404 . S
C2205 H2217 0.930 . S
C2206 C2202 1.524 . S
C2206 H2218 0.956 . S
C2206 H2219 0.961 . S
C2206 H2220 0.961 . S
C2207 C2204 1.539 . S
C2207 H2221 0.958 . S
C2207 H2222 0.961 . S
C2207 H2223 0.960 . S
H2208 C2192 0.931 . S
H2209 C2197 0.929 . S
H2210 C2198 0.960 . S
H2211 C2198 0.962 . S
H2212 C2198 0.960 . S
H2213 C2199 0.961 . S
H2214 C2199 0.961 . S
H2215 C2199 0.961 . S
H2216 C2200 0.931 . S
H2217 C2205 0.930 . S
H2218 C2206 0.956 . S
H2219 C2206 0.961 . S
H2220 C2206 0.961 . S
H2221 C2207 0.958 . S
H2222 C2207 0.961 . S
H2223 C2207 0.960 . S
C2224 C2225 1.391 . S
C2224 C2226 1.394 . S
C2224 H2240 0.931 . S
C2225 C2224 1.391 . S
C2225 C2229 1.376 . S
C2226 C2224 1.394 . S
C2226 C2227 1.369 . S
C2226 C2230 1.531 . S
C2227 C2226 1.369 . S
C2227 C2228 1.410 . S
C2227 C2235 1.503 . S
C2228 C2227 1.410 . S
C2228 C2229 1.392 . S
C2228 C2231 1.511 . S
C2229 C2225 1.376 . S
C2229 C2228 1.392 . S
C2229 H2241 0.929 . S
C2230 C2226 1.531 . S
C2230 H2242 0.960 . S
C2230 H2243 0.962 . S
C2230 H2244 0.960 . S
C2231 C2228 1.511 . S
C2231 H2245 0.961 . S
C2231 H2246 0.961 . S
C2231 H2247 0.961 . S
C2232 C2233 1.370 . S
C2232 C2234 1.363 . S
C2232 H2248 0.931 . S
C2233 C2232 1.370 . S
C2233 C2237 1.408 . S
C2234 C2232 1.363 . S
C2234 C2235 1.370 . S
C2234 C2238 1.524 . S
C2235 C2227 1.503 . S
C2235 C2234 1.370 . S
C2235 C2236 1.403 . S
C2236 C2235 1.403 . S
C2236 C2237 1.404 . S
C2236 C2239 1.539 . S
C2237 C2233 1.408 . S
C2237 C2236 1.404 . S
C2237 H2249 0.930 . S
C2238 C2234 1.524 . S
C2238 H2250 0.956 . S
C2238 H2251 0.961 . S
C2238 H2252 0.961 . S
C2239 C2236 1.539 . S
C2239 H2253 0.958 . S
C2239 H2254 0.961 . S
C2239 H2255 0.960 . S
H2240 C2224 0.931 . S
H2241 C2229 0.929 . S
H2242 C2230 0.960 . S
H2243 C2230 0.962 . S
H2244 C2230 0.960 . S
H2245 C2231 0.961 . S
H2246 C2231 0.961 . S
H2247 C2231 0.961 . S
H2248 C2232 0.931 . S
H2249 C2237 0.930 . S
H2250 C2238 0.956 . S
H2251 C2238 0.961 . S
H2252 C2238 0.961 . S
H2253 C2239 0.958 . S
H2254 C2239 0.961 . S
H2255 C2239 0.960 . S
C2256 C2257 1.391 . S
C2256 C2258 1.394 . S
C2256 H2272 0.931 . S
C2257 C2256 1.391 . S
C2257 C2261 1.376 . S
C2258 C2256 1.394 . S
C2258 C2259 1.369 . S
C2258 C2262 1.531 . S
C2259 C2258 1.369 . S
C2259 C2260 1.410 . S
C2259 C2267 1.503 . S
C2260 C2259 1.410 . S
C2260 C2261 1.392 . S
C2260 C2263 1.511 . S
C2261 C2257 1.376 . S
C2261 C2260 1.392 . S
C2261 H2273 0.929 . S
C2262 C2258 1.531 . S
C2262 H2274 0.960 1_556 S
C2262 H2275 0.962 1_455 S
C2262 H2276 0.960 1_556 S
C2263 C2260 1.511 . S
C2263 H2277 0.961 . S
C2263 H2278 0.961 . S
C2263 H2279 0.961 . S
C2264 C2265 1.370 1_655 S
C2264 C2266 1.363 . S
C2264 H2280 0.931 . S
C2265 C2264 1.370 1_455 S
C2265 C2269 1.408 . S
C2266 C2264 1.363 . S
C2266 C2267 1.370 1_655 S
C2266 C2270 1.524 . S
C2267 C2259 1.503 . S
C2267 C2266 1.370 1_455 S
C2267 C2268 1.403 . S
C2268 C2267 1.403 . S
C2268 C2269 1.404 . S
C2268 C2271 1.539 . S
C2269 C2265 1.408 . S
C2269 C2268 1.404 . S
C2269 H2281 0.930 1_556 S
C2270 C2266 1.524 . S
C2270 H2282 0.956 . S
C2270 H2283 0.961 . S
C2270 H2284 0.961 . S
C2271 C2268 1.539 . S
C2271 H2285 0.958 . S
C2271 H2286 0.961 . S
C2271 H2287 0.960 . S
H2272 C2256 0.931 . S
H2273 C2261 0.929 . S
H2274 C2262 0.960 1_554 S
H2275 C2262 0.962 1_655 S
H2276 C2262 0.960 1_554 S
H2277 C2263 0.961 . S
H2278 C2263 0.961 . S
H2279 C2263 0.961 . S
H2280 C2264 0.931 . S
H2281 C2269 0.930 1_554 S
H2282 C2270 0.956 . S
H2283 C2270 0.961 . S
H2284 C2270 0.961 . S
H2285 C2271 0.958 . S
H2286 C2271 0.961 . S
H2287 C2271 0.960 . S
C2288 C2289 1.391 . S
C2288 C2290 1.394 . S
C2288 H2304 0.931 . S
C2289 C2288 1.391 . S
C2289 C2293 1.376 . S
C2290 C2288 1.394 . S
C2290 C2291 1.369 . S
C2290 C2294 1.531 . S
C2291 C2290 1.369 . S
C2291 C2292 1.410 . S
C2291 C2299 1.503 . S
C2292 C2291 1.410 . S
C2292 C2293 1.392 . S
C2292 C2295 1.511 . S
C2293 C2289 1.376 . S
C2293 C2292 1.392 . S
C2293 H2305 0.929 . S
C2294 C2290 1.531 . S
C2294 H2306 0.960 . S
C2294 H2307 0.962 . S
C2294 H2308 0.960 . S
C2295 C2292 1.511 . S
C2295 H2309 0.961 . S
C2295 H2310 0.961 . S
C2295 H2311 0.961 . S
C2296 C2297 1.370 . S
C2296 C2298 1.363 . S
C2296 H2312 0.931 . S
C2297 C2296 1.370 . S
C2297 C2301 1.408 . S
C2298 C2296 1.363 . S
C2298 C2299 1.370 . S
C2298 C2302 1.524 . S
C2299 C2291 1.503 . S
C2299 C2298 1.370 . S
C2299 C2300 1.403 . S
C2300 C2299 1.403 . S
C2300 C2301 1.404 . S
C2300 C2303 1.539 . S
C2301 C2297 1.408 . S
C2301 C2300 1.404 . S
C2301 H2313 0.930 . S
C2302 C2298 1.524 . S
C2302 H2314 0.956 . S
C2302 H2315 0.961 . S
C2302 H2316 0.961 . S
C2303 C2300 1.539 . S
C2303 H2317 0.958 . S
C2303 H2318 0.961 . S
C2303 H2319 0.960 . S
H2304 C2288 0.931 . S
H2305 C2293 0.929 . S
H2306 C2294 0.960 . S
H2307 C2294 0.962 . S
H2308 C2294 0.960 . S
H2309 C2295 0.961 . S
H2310 C2295 0.961 . S
H2311 C2295 0.961 . S
H2312 C2296 0.931 . S
H2313 C2301 0.930 . S
H2314 C2302 0.956 . S
H2315 C2302 0.961 . S
H2316 C2302 0.961 . S
H2317 C2303 0.958 . S
H2318 C2303 0.961 . S
H2319 C2303 0.960 . S
C2320 C2321 1.391 . S
C2320 C2322 1.394 . S
C2320 H2336 0.931 . S
C2321 C2320 1.391 . S
C2321 C2325 1.376 . S
C2322 C2320 1.394 . S
C2322 C2323 1.369 . S
C2322 C2326 1.531 . S
C2323 C2322 1.369 . S
C2323 C2324 1.410 . S
C2323 C2331 1.503 . S
C2324 C2323 1.410 . S
C2324 C2325 1.392 . S
C2324 C2327 1.511 . S
C2325 C2321 1.376 . S
C2325 C2324 1.392 . S
C2325 H2337 0.929 . S
C2326 C2322 1.531 . S
C2326 H2338 0.960 . S
C2326 H2339 0.962 . S
C2326 H2340 0.960 . S
C2327 C2324 1.511 . S
C2327 H2341 0.961 . S
C2327 H2342 0.961 . S
C2327 H2343 0.961 . S
C2328 C2329 1.370 . S
C2328 C2330 1.363 . S
C2328 H2344 0.931 . S
C2329 C2328 1.370 . S
C2329 C2333 1.408 . S
C2330 C2328 1.363 . S
C2330 C2331 1.370 . S
C2330 C2334 1.524 . S
C2331 C2323 1.503 . S
C2331 C2330 1.370 . S
C2331 C2332 1.403 . S
C2332 C2331 1.403 . S
C2332 C2333 1.404 . S
C2332 C2335 1.539 . S
C2333 C2329 1.408 . S
C2333 C2332 1.404 . S
C2333 H2345 0.930 . S
C2334 C2330 1.524 . S
C2334 H2346 0.956 . S
C2334 H2347 0.961 . S
C2334 H2348 0.961 . S
C2335 C2332 1.539 . S
C2335 H2349 0.958 . S
C2335 H2350 0.961 . S
C2335 H2351 0.960 . S
H2336 C2320 0.931 . S
H2337 C2325 0.929 . S
H2338 C2326 0.960 . S
H2339 C2326 0.962 . S
H2340 C2326 0.960 . S
H2341 C2327 0.961 . S
H2342 C2327 0.961 . S
H2343 C2327 0.961 . S
H2344 C2328 0.931 . S
H2345 C2333 0.930 . S
H2346 C2334 0.956 . S
H2347 C2334 0.961 . S
H2348 C2334 0.961 . S
H2349 C2335 0.958 . S
H2350 C2335 0.961 . S
H2351 C2335 0.960 . S
C2352 C2353 1.391 . S
C2352 C2354 1.394 . S
C2352 H2368 0.931 . S
C2353 C2352 1.391 . S
C2353 C2357 1.376 . S
C2354 C2352 1.394 . S
C2354 C2355 1.369 . S
C2354 C2358 1.531 . S
C2355 C2354 1.369 . S
C2355 C2356 1.410 . S
C2355 C2363 1.503 . S
C2356 C2355 1.410 . S
C2356 C2357 1.392 . S
C2356 C2359 1.511 . S
C2357 C2353 1.376 . S
C2357 C2356 1.392 . S
C2357 H2369 0.929 . S
C2358 C2354 1.531 . S
C2358 H2370 0.960 . S
C2358 H2371 0.962 . S
C2358 H2372 0.960 . S
C2359 C2356 1.511 . S
C2359 H2373 0.961 . S
C2359 H2374 0.961 . S
C2359 H2375 0.961 . S
C2360 C2361 1.370 . S
C2360 C2362 1.363 . S
C2360 H2376 0.931 . S
C2361 C2360 1.370 . S
C2361 C2365 1.408 . S
C2362 C2360 1.363 . S
C2362 C2363 1.370 . S
C2362 C2366 1.524 . S
C2363 C2355 1.503 . S
C2363 C2362 1.370 . S
C2363 C2364 1.403 . S
C2364 C2363 1.403 . S
C2364 C2365 1.404 . S
C2364 C2367 1.539 . S
C2365 C2361 1.408 . S
C2365 C2364 1.404 . S
C2365 H2377 0.930 . S
C2366 C2362 1.524 . S
C2366 H2378 0.956 . S
C2366 H2379 0.961 . S
C2366 H2380 0.961 . S
C2367 C2364 1.539 . S
C2367 H2381 0.958 . S
C2367 H2382 0.961 . S
C2367 H2383 0.960 . S
H2368 C2352 0.931 . S
H2369 C2357 0.929 . S
H2370 C2358 0.960 . S
H2371 C2358 0.962 . S
H2372 C2358 0.960 . S
H2373 C2359 0.961 . S
H2374 C2359 0.961 . S
H2375 C2359 0.961 . S
H2376 C2360 0.931 . S
H2377 C2365 0.930 . S
H2378 C2366 0.956 . S
H2379 C2366 0.961 . S
H2380 C2366 0.961 . S
H2381 C2367 0.958 . S
H2382 C2367 0.961 . S
H2383 C2367 0.960 . S
C2384 C2385 1.391 1_655 S
C2384 C2386 1.394 . S
C2384 H2400 0.931 . S
C2385 C2384 1.391 1_455 S
C2385 C2389 1.376 . S
C2386 C2384 1.394 . S
C2386 C2387 1.369 1_655 S
C2386 C2390 1.531 . S
C2387 C2386 1.369 1_455 S
C2387 C2388 1.410 . S
C2387 C2395 1.503 . S
C2388 C2387 1.410 . S
C2388 C2389 1.392 . S
C2388 C2391 1.511 . S
C2389 C2385 1.376 . S
C2389 C2388 1.392 . S
C2389 H2401 0.929 . S
C2390 C2386 1.531 . S
C2390 H2402 0.960 . S
C2390 H2403 0.962 . S
C2390 H2404 0.960 . S
C2391 C2388 1.511 . S
C2391 H2405 0.961 . S
C2391 H2406 0.961 . S
C2391 H2407 0.961 . S
C2392 C2393 1.370 1_655 S
C2392 C2394 1.363 . S
C2392 H2408 0.931 . S
C2393 C2392 1.370 1_455 S
C2393 C2397 1.408 . S
C2394 C2392 1.363 . S
C2394 C2395 1.370 1_655 S
C2394 C2398 1.524 . S
C2395 C2387 1.503 . S
C2395 C2394 1.370 1_455 S
C2395 C2396 1.403 . S
C2396 C2395 1.403 . S
C2396 C2397 1.404 . S
C2396 C2399 1.539 . S
C2397 C2393 1.408 . S
C2397 C2396 1.404 . S
C2397 H2409 0.930 . S
C2398 C2394 1.524 . S
C2398 H2410 0.956 . S
C2398 H2411 0.961 . S
C2398 H2412 0.961 . S
C2399 C2396 1.539 . S
C2399 H2413 0.958 . S
C2399 H2414 0.961 . S
C2399 H2415 0.960 . S
H2400 C2384 0.931 . S
H2401 C2389 0.929 . S
H2402 C2390 0.960 . S
H2403 C2390 0.962 . S
H2404 C2390 0.960 . S
H2405 C2391 0.961 . S
H2406 C2391 0.961 . S
H2407 C2391 0.961 . S
H2408 C2392 0.931 . S
H2409 C2397 0.930 . S
H2410 C2398 0.956 . S
H2411 C2398 0.961 . S
H2412 C2398 0.961 . S
H2413 C2399 0.958 . S
H2414 C2399 0.961 . S
H2415 C2399 0.960 . S
C2416 C2417 1.391 . S
C2416 C2418 1.394 . S
C2416 H2432 0.931 . S
C2417 C2416 1.391 . S
C2417 C2421 1.376 . S
C2418 C2416 1.394 . S
C2418 C2419 1.369 . S
C2418 C2422 1.531 . S
C2419 C2418 1.369 . S
C2419 C2420 1.410 . S
C2419 C2427 1.503 . S
C2420 C2419 1.410 . S
C2420 C2421 1.392 . S
C2420 C2423 1.511 . S
C2421 C2417 1.376 . S
C2421 C2420 1.392 . S
C2421 H2433 0.929 . S
C2422 C2418 1.531 . S
C2422 H2434 0.960 . S
C2422 H2435 0.962 . S
C2422 H2436 0.960 . S
C2423 C2420 1.511 . S
C2423 H2437 0.961 . S
C2423 H2438 0.961 . S
C2423 H2439 0.961 . S
C2424 C2425 1.370 . S
C2424 C2426 1.363 . S
C2424 H2440 0.931 . S
C2425 C2424 1.370 . S
C2425 C2429 1.408 . S
C2426 C2424 1.363 . S
C2426 C2427 1.370 . S
C2426 C2430 1.524 . S
C2427 C2419 1.503 . S
C2427 C2426 1.370 . S
C2427 C2428 1.403 . S
C2428 C2427 1.403 . S
C2428 C2429 1.404 . S
C2428 C2431 1.539 . S
C2429 C2425 1.408 . S
C2429 C2428 1.404 . S
C2429 H2441 0.930 . S
C2430 C2426 1.524 . S
C2430 H2442 0.956 . S
C2430 H2443 0.961 . S
C2430 H2444 0.961 . S
C2431 C2428 1.539 . S
C2431 H2445 0.958 . S
C2431 H2446 0.961 . S
C2431 H2447 0.960 . S
H2432 C2416 0.931 . S
H2433 C2421 0.929 . S
H2434 C2422 0.960 . S
H2435 C2422 0.962 . S
H2436 C2422 0.960 . S
H2437 C2423 0.961 . S
H2438 C2423 0.961 . S
H2439 C2423 0.961 . S
H2440 C2424 0.931 . S
H2441 C2429 0.930 . S
H2442 C2430 0.956 . S
H2443 C2430 0.961 . S
H2444 C2430 0.961 . S
H2445 C2431 0.958 . S
H2446 C2431 0.961 . S
H2447 C2431 0.960 . S
C2448 C2449 1.391 . S
C2448 C2450 1.394 . S
C2448 H2464 0.931 . S
C2449 C2448 1.391 . S
C2449 C2453 1.376 . S
C2450 C2448 1.394 . S
C2450 C2451 1.369 . S
C2450 C2454 1.531 . S
C2451 C2450 1.369 . S
C2451 C2452 1.410 . S
C2451 C2459 1.503 . S
C2452 C2451 1.410 . S
C2452 C2453 1.392 . S
C2452 C2455 1.511 . S
C2453 C2449 1.376 . S
C2453 C2452 1.392 . S
C2453 H2465 0.929 . S
C2454 C2450 1.531 . S
C2454 H2466 0.960 . S
C2454 H2467 0.962 . S
C2454 H2468 0.960 . S
C2455 C2452 1.511 . S
C2455 H2469 0.961 . S
C2455 H2470 0.961 . S
C2455 H2471 0.961 . S
C2456 C2457 1.370 . S
C2456 C2458 1.363 . S
C2456 H2472 0.931 . S
C2457 C2456 1.370 . S
C2457 C2461 1.408 . S
C2458 C2456 1.363 . S
C2458 C2459 1.370 . S
C2458 C2462 1.524 . S
C2459 C2451 1.503 . S
C2459 C2458 1.370 . S
C2459 C2460 1.403 . S
C2460 C2459 1.403 . S
C2460 C2461 1.404 . S
C2460 C2463 1.539 . S
C2461 C2457 1.408 . S
C2461 C2460 1.404 . S
C2461 H2473 0.930 . S
C2462 C2458 1.524 . S
C2462 H2474 0.956 . S
C2462 H2475 0.961 . S
C2462 H2476 0.961 . S
C2463 C2460 1.539 . S
C2463 H2477 0.958 . S
C2463 H2478 0.961 . S
C2463 H2479 0.960 . S
H2464 C2448 0.931 . S
H2465 C2453 0.929 . S
H2466 C2454 0.960 . S
H2467 C2454 0.962 . S
H2468 C2454 0.960 . S
H2469 C2455 0.961 . S
H2470 C2455 0.961 . S
H2471 C2455 0.961 . S
H2472 C2456 0.931 . S
H2473 C2461 0.930 . S
H2474 C2462 0.956 . S
H2475 C2462 0.961 . S
H2476 C2462 0.961 . S
H2477 C2463 0.958 . S
H2478 C2463 0.961 . S
H2479 C2463 0.960 . S
C2480 C2481 1.391 . S
C2480 C2482 1.394 . S
C2480 H2496 0.931 . S
C2481 C2480 1.391 . S
C2481 C2485 1.376 . S
C2482 C2480 1.394 . S
C2482 C2483 1.369 . S
C2482 C2486 1.531 . S
C2483 C2482 1.369 . S
C2483 C2484 1.410 . S
C2483 C2491 1.503 . S
C2484 C2483 1.410 . S
C2484 C2485 1.392 . S
C2484 C2487 1.511 . S
C2485 C2481 1.376 . S
C2485 C2484 1.392 . S
C2485 H2497 0.929 . S
C2486 C2482 1.531 . S
C2486 H2498 0.960 . S
C2486 H2499 0.962 . S
C2486 H2500 0.960 . S
C2487 C2484 1.511 . S
C2487 H2501 0.961 . S
C2487 H2502 0.961 . S
C2487 H2503 0.961 . S
C2488 C2489 1.370 . S
C2488 C2490 1.363 . S
C2488 H2504 0.931 . S
C2489 C2488 1.370 . S
C2489 C2493 1.408 . S
C2490 C2488 1.363 . S
C2490 C2491 1.370 . S
C2490 C2494 1.524 . S
C2491 C2483 1.503 . S
C2491 C2490 1.370 . S
C2491 C2492 1.403 . S
C2492 C2491 1.403 . S
C2492 C2493 1.404 . S
C2492 C2495 1.539 . S
C2493 C2489 1.408 . S
C2493 C2492 1.404 . S
C2493 H2505 0.930 . S
C2494 C2490 1.524 . S
C2494 H2506 0.956 . S
C2494 H2507 0.961 . S
C2494 H2508 0.961 . S
C2495 C2492 1.539 . S
C2495 H2509 0.958 . S
C2495 H2510 0.961 . S
C2495 H2511 0.960 . S
H2496 C2480 0.931 . S
H2497 C2485 0.929 . S
H2498 C2486 0.960 . S
H2499 C2486 0.962 . S
H2500 C2486 0.960 . S
H2501 C2487 0.961 . S
H2502 C2487 0.961 . S
H2503 C2487 0.961 . S
H2504 C2488 0.931 . S
H2505 C2493 0.930 . S
H2506 C2494 0.956 . S
H2507 C2494 0.961 . S
H2508 C2494 0.961 . S
H2509 C2495 0.958 . S
H2510 C2495 0.961 . S
H2511 C2495 0.960 . S
C2512 C2513 1.391 . S
C2512 C2514 1.394 . S
C2512 H2528 0.931 . S
C2513 C2512 1.391 . S
C2513 C2517 1.376 . S
C2514 C2512 1.394 . S
C2514 C2515 1.369 . S
C2514 C2518 1.531 . S
C2515 C2514 1.369 . S
C2515 C2516 1.410 . S
C2515 C2523 1.503 . S
C2516 C2515 1.410 . S
C2516 C2517 1.392 . S
C2516 C2519 1.511 . S
C2517 C2513 1.376 . S
C2517 C2516 1.392 . S
C2517 H2529 0.929 . S
C2518 C2514 1.531 . S
C2518 H2530 0.960 . S
C2518 H2531 0.962 . S
C2518 H2532 0.960 . S
C2519 C2516 1.511 . S
C2519 H2533 0.961 . S
C2519 H2534 0.961 . S
C2519 H2535 0.961 . S
C2520 C2521 1.370 . S
C2520 C2522 1.363 . S
C2520 H2536 0.931 . S
C2521 C2520 1.370 . S
C2521 C2525 1.408 . S
C2522 C2520 1.363 . S
C2522 C2523 1.370 . S
C2522 C2526 1.524 . S
C2523 C2515 1.503 . S
C2523 C2522 1.370 . S
C2523 C2524 1.403 . S
C2524 C2523 1.403 . S
C2524 C2525 1.404 . S
C2524 C2527 1.539 . S
C2525 C2521 1.408 . S
C2525 C2524 1.404 . S
C2525 H2537 0.930 . S
C2526 C2522 1.524 . S
C2526 H2538 0.956 . S
C2526 H2539 0.961 . S
C2526 H2540 0.961 . S
C2527 C2524 1.539 . S
C2527 H2541 0.958 . S
C2527 H2542 0.961 . S
C2527 H2543 0.960 . S
H2528 C2512 0.931 . S
H2529 C2517 0.929 . S
H2530 C2518 0.960 . S
H2531 C2518 0.962 . S
H2532 C2518 0.960 . S
H2533 C2519 0.961 . S
H2534 C2519 0.961 . S
H2535 C2519 0.961 . S
H2536 C2520 0.931 . S
H2537 C2525 0.930 . S
H2538 C2526 0.956 . S
H2539 C2526 0.961 . S
H2540 C2526 0.961 . S
H2541 C2527 0.958 . S
H2542 C2527 0.961 . S
H2543 C2527 0.960 . S
C2544 C2545 1.391 . S
C2544 C2546 1.394 . S
C2544 H2560 0.931 . S
C2545 C2544 1.391 . S
C2545 C2549 1.376 . S
C2546 C2544 1.394 . S
C2546 C2547 1.369 . S
C2546 C2550 1.531 . S
C2547 C2546 1.369 . S
C2547 C2548 1.410 . S
C2547 C2555 1.503 . S
C2548 C2547 1.410 . S
C2548 C2549 1.392 . S
C2548 C2551 1.511 . S
C2549 C2545 1.376 . S
C2549 C2548 1.392 . S
C2549 H2561 0.929 . S
C2550 C2546 1.531 . S
C2550 H2562 0.960 . S
C2550 H2563 0.962 . S
C2550 H2564 0.960 . S
C2551 C2548 1.511 . S
C2551 H2565 0.961 . S
C2551 H2566 0.961 . S
C2551 H2567 0.961 . S
C2552 C2553 1.370 . S
C2552 C2554 1.363 . S
C2552 H2568 0.931 . S
C2553 C2552 1.370 . S
C2553 C2557 1.408 . S
C2554 C2552 1.363 . S
C2554 C2555 1.370 . S
C2554 C2558 1.524 . S
C2555 C2547 1.503 . S
C2555 C2554 1.370 . S
C2555 C2556 1.403 . S
C2556 C2555 1.403 . S
C2556 C2557 1.404 . S
C2556 C2559 1.539 . S
C2557 C2553 1.408 . S
C2557 C2556 1.404 . S
C2557 H2569 0.930 . S
C2558 C2554 1.524 . S
C2558 H2570 0.956 . S
C2558 H2571 0.961 . S
C2558 H2572 0.961 . S
C2559 C2556 1.539 . S
C2559 H2573 0.958 . S
C2559 H2574 0.961 . S
C2559 H2575 0.960 . S
H2560 C2544 0.931 . S
H2561 C2549 0.929 . S
H2562 C2550 0.960 . S
H2563 C2550 0.962 . S
H2564 C2550 0.960 . S
H2565 C2551 0.961 . S
H2566 C2551 0.961 . S
H2567 C2551 0.961 . S
H2568 C2552 0.931 . S
H2569 C2557 0.930 . S
H2570 C2558 0.956 . S
H2571 C2558 0.961 . S
H2572 C2558 0.961 . S
H2573 C2559 0.958 . S
H2574 C2559 0.961 . S
H2575 C2559 0.960 . S
C2576 C2577 1.391 . S
C2576 C2578 1.394 . S
C2576 H2592 0.931 . S
C2577 C2576 1.391 . S
C2577 C2581 1.376 . S
C2578 C2576 1.394 . S
C2578 C2579 1.369 . S
C2578 C2582 1.531 . S
C2579 C2578 1.369 . S
C2579 C2580 1.410 . S
C2579 C2587 1.503 . S
C2580 C2579 1.410 . S
C2580 C2581 1.392 . S
C2580 C2583 1.511 . S
C2581 C2577 1.376 . S
C2581 C2580 1.392 . S
C2581 H2593 0.929 . S
C2582 C2578 1.531 . S
C2582 H2594 0.960 . S
C2582 H2595 0.962 . S
C2582 H2596 0.960 . S
C2583 C2580 1.511 . S
C2583 H2597 0.961 . S
C2583 H2598 0.961 . S
C2583 H2599 0.961 . S
C2584 C2585 1.370 . S
C2584 C2586 1.363 . S
C2584 H2600 0.931 . S
C2585 C2584 1.370 . S
C2585 C2589 1.408 . S
C2586 C2584 1.363 . S
C2586 C2587 1.370 . S
C2586 C2590 1.524 . S
C2587 C2579 1.503 . S
C2587 C2586 1.370 . S
C2587 C2588 1.403 . S
C2588 C2587 1.403 . S
C2588 C2589 1.404 . S
C2588 C2591 1.539 . S
C2589 C2585 1.408 . S
C2589 C2588 1.404 . S
C2589 H2601 0.930 . S
C2590 C2586 1.524 . S
C2590 H2602 0.956 . S
C2590 H2603 0.961 . S
C2590 H2604 0.961 . S
C2591 C2588 1.539 . S
C2591 H2605 0.958 . S
C2591 H2606 0.961 . S
C2591 H2607 0.960 . S
H2592 C2576 0.931 . S
H2593 C2581 0.929 . S
H2594 C2582 0.960 . S
H2595 C2582 0.962 . S
H2596 C2582 0.960 . S
H2597 C2583 0.961 . S
H2598 C2583 0.961 . S
H2599 C2583 0.961 . S
H2600 C2584 0.931 . S
H2601 C2589 0.930 . S
H2602 C2590 0.956 . S
H2603 C2590 0.961 . S
H2604 C2590 0.961 . S
H2605 C2591 0.958 . S
H2606 C2591 0.961 . S
H2607 C2591 0.960 . S
C2608 C2609 1.391 . S
C2608 C2610 1.394 . S
C2608 H2624 0.931 . S
C2609 C2608 1.391 . S
C2609 C2613 1.376 . S
C2610 C2608 1.394 . S
C2610 C2611 1.369 . S
C2610 C2614 1.531 . S
C2611 C2610 1.369 . S
C2611 C2612 1.410 . S
C2611 C2619 1.503 . S
C2612 C2611 1.410 . S
C2612 C2613 1.392 . S
C2612 C2615 1.511 . S
C2613 C2609 1.376 . S
C2613 C2612 1.392 . S
C2613 H2625 0.929 . S
C2614 C2610 1.531 . S
C2614 H2626 0.960 . S
C2614 H2627 0.962 . S
C2614 H2628 0.960 . S
C2615 C2612 1.511 . S
C2615 H2629 0.961 . S
C2615 H2630 0.961 . S
C2615 H2631 0.961 . S
C2616 C2617 1.370 . S
C2616 C2618 1.363 . S
C2616 H2632 0.931 . S
C2617 C2616 1.370 . S
C2617 C2621 1.408 . S
C2618 C2616 1.363 . S
C2618 C2619 1.370 . S
C2618 C2622 1.524 . S
C2619 C2611 1.503 . S
C2619 C2618 1.370 . S
C2619 C2620 1.403 . S
C2620 C2619 1.403 . S
C2620 C2621 1.404 . S
C2620 C2623 1.539 . S
C2621 C2617 1.408 . S
C2621 C2620 1.404 . S
C2621 H2633 0.930 . S
C2622 C2618 1.524 . S
C2622 H2634 0.956 . S
C2622 H2635 0.961 . S
C2622 H2636 0.961 . S
C2623 C2620 1.539 . S
C2623 H2637 0.958 . S
C2623 H2638 0.961 . S
C2623 H2639 0.960 . S
H2624 C2608 0.931 . S
H2625 C2613 0.929 . S
H2626 C2614 0.960 . S
H2627 C2614 0.962 . S
H2628 C2614 0.960 . S
H2629 C2615 0.961 . S
H2630 C2615 0.961 . S
H2631 C2615 0.961 . S
H2632 C2616 0.931 . S
H2633 C2621 0.930 . S
H2634 C2622 0.956 . S
H2635 C2622 0.961 . S
H2636 C2622 0.961 . S
H2637 C2623 0.958 . S
H2638 C2623 0.961 . S
H2639 C2623 0.960 . S
C2640 C2641 1.391 . S
C2640 C2642 1.394 . S
C2640 H2656 0.931 . S
C2641 C2640 1.391 . S
C2641 C2645 1.376 . S
C2642 C2640 1.394 . S
C2642 C2643 1.369 . S
C2642 C2646 1.531 . S
C2643 C2642 1.369 . S
C2643 C2644 1.410 . S
C2643 C2651 1.503 . S
C2644 C2643 1.410 . S
C2644 C2645 1.392 . S
C2644 C2647 1.511 . S
C2645 C2641 1.376 . S
C2645 C2644 1.392 . S
C2645 H2657 0.929 . S
C2646 C2642 1.531 . S
C2646 H2658 0.960 . S
C2646 H2659 0.962 . S
C2646 H2660 0.960 . S
C2647 C2644 1.511 . S
C2647 H2661 0.961 . S
C2647 H2662 0.961 . S
C2647 H2663 0.961 . S
C2648 C2649 1.370 . S
C2648 C2650 1.363 . S
C2648 H2664 0.931 . S
C2649 C2648 1.370 . S
C2649 C2653 1.408 . S
C2650 C2648 1.363 . S
C2650 C2651 1.370 . S
C2650 C2654 1.524 . S
C2651 C2643 1.503 . S
C2651 C2650 1.370 . S
C2651 C2652 1.403 . S
C2652 C2651 1.403 . S
C2652 C2653 1.404 . S
C2652 C2655 1.539 . S
C2653 C2649 1.408 . S
C2653 C2652 1.404 . S
C2653 H2665 0.930 . S
C2654 C2650 1.524 . S
C2654 H2666 0.956 . S
C2654 H2667 0.961 . S
C2654 H2668 0.961 . S
C2655 C2652 1.539 . S
C2655 H2669 0.958 . S
C2655 H2670 0.961 . S
C2655 H2671 0.960 . S
H2656 C2640 0.931 . S
H2657 C2645 0.929 . S
H2658 C2646 0.960 . S
H2659 C2646 0.962 . S
H2660 C2646 0.960 . S
H2661 C2647 0.961 . S
H2662 C2647 0.961 . S
H2663 C2647 0.961 . S
H2664 C2648 0.931 . S
H2665 C2653 0.930 . S
H2666 C2654 0.956 . S
H2667 C2654 0.961 . S
H2668 C2654 0.961 . S
H2669 C2655 0.958 . S
H2670 C2655 0.961 . S
H2671 C2655 0.960 . S
C2672 C2673 1.391 . S
C2672 C2674 1.394 . S
C2672 H2688 0.931 . S
C2673 C2672 1.391 . S
C2673 C2677 1.376 . S
C2674 C2672 1.394 . S
C2674 C2675 1.369 . S
C2674 C2678 1.531 . S
C2675 C2674 1.369 . S
C2675 C2676 1.410 . S
C2675 C2683 1.503 . S
C2676 C2675 1.410 . S
C2676 C2677 1.392 . S
C2676 C2679 1.511 . S
C2677 C2673 1.376 . S
C2677 C2676 1.392 . S
C2677 H2689 0.929 . S
C2678 C2674 1.531 . S
C2678 H2690 0.960 . S
C2678 H2691 0.962 . S
C2678 H2692 0.960 . S
C2679 C2676 1.511 . S
C2679 H2693 0.961 . S
C2679 H2694 0.961 . S
C2679 H2695 0.961 . S
C2680 C2681 1.370 . S
C2680 C2682 1.363 . S
C2680 H2696 0.931 . S
C2681 C2680 1.370 . S
C2681 C2685 1.408 . S
C2682 C2680 1.363 . S
C2682 C2683 1.370 . S
C2682 C2686 1.524 . S
C2683 C2675 1.503 . S
C2683 C2682 1.370 . S
C2683 C2684 1.403 . S
C2684 C2683 1.403 . S
C2684 C2685 1.404 . S
C2684 C2687 1.539 . S
C2685 C2681 1.408 . S
C2685 C2684 1.404 . S
C2685 H2697 0.930 . S
C2686 C2682 1.524 . S
C2686 H2698 0.956 . S
C2686 H2699 0.961 . S
C2686 H2700 0.961 . S
C2687 C2684 1.539 . S
C2687 H2701 0.958 . S
C2687 H2702 0.961 . S
C2687 H2703 0.960 . S
H2688 C2672 0.931 . S
H2689 C2677 0.929 . S
H2690 C2678 0.960 . S
H2691 C2678 0.962 . S
H2692 C2678 0.960 . S
H2693 C2679 0.961 . S
H2694 C2679 0.961 . S
H2695 C2679 0.961 . S
H2696 C2680 0.931 . S
H2697 C2685 0.930 . S
H2698 C2686 0.956 . S
H2699 C2686 0.961 . S
H2700 C2686 0.961 . S
H2701 C2687 0.958 . S
H2702 C2687 0.961 . S
H2703 C2687 0.960 . S
C2704 C2705 1.391 . S
C2704 C2706 1.394 . S
C2704 H2720 0.931 . S
C2705 C2704 1.391 . S
C2705 C2709 1.376 . S
C2706 C2704 1.394 . S
C2706 C2707 1.369 . S
C2706 C2710 1.531 . S
C2707 C2706 1.369 . S
C2707 C2708 1.410 . S
C2707 C2715 1.503 . S
C2708 C2707 1.410 . S
C2708 C2709 1.392 . S
C2708 C2711 1.511 . S
C2709 C2705 1.376 . S
C2709 C2708 1.392 . S
C2709 H2721 0.929 . S
C2710 C2706 1.531 . S
C2710 H2722 0.960 . S
C2710 H2723 0.962 . S
C2710 H2724 0.960 . S
C2711 C2708 1.511 . S
C2711 H2725 0.961 . S
C2711 H2726 0.961 . S
C2711 H2727 0.961 . S
C2712 C2713 1.370 . S
C2712 C2714 1.363 . S
C2712 H2728 0.931 . S
C2713 C2712 1.370 . S
C2713 C2717 1.408 . S
C2714 C2712 1.363 . S
C2714 C2715 1.370 . S
C2714 C2718 1.524 . S
C2715 C2707 1.503 . S
C2715 C2714 1.370 . S
C2715 C2716 1.403 . S
C2716 C2715 1.403 . S
C2716 C2717 1.404 . S
C2716 C2719 1.539 . S
C2717 C2713 1.408 . S
C2717 C2716 1.404 . S
C2717 H2729 0.930 . S
C2718 C2714 1.524 . S
C2718 H2730 0.956 . S
C2718 H2731 0.961 . S
C2718 H2732 0.961 . S
C2719 C2716 1.539 . S
C2719 H2733 0.958 . S
C2719 H2734 0.961 . S
C2719 H2735 0.960 . S
H2720 C2704 0.931 . S
H2721 C2709 0.929 . S
H2722 C2710 0.960 . S
H2723 C2710 0.962 . S
H2724 C2710 0.960 . S
H2725 C2711 0.961 . S
H2726 C2711 0.961 . S
H2727 C2711 0.961 . S
H2728 C2712 0.931 . S
H2729 C2717 0.930 . S
H2730 C2718 0.956 . S
H2731 C2718 0.961 . S
H2732 C2718 0.961 . S
H2733 C2719 0.958 . S
H2734 C2719 0.961 . S
H2735 C2719 0.960 . S
C2736 C2737 1.391 . S
C2736 C2738 1.394 . S
C2736 H2752 0.931 . S
C2737 C2736 1.391 . S
C2737 C2741 1.376 . S
C2738 C2736 1.394 . S
C2738 C2739 1.369 . S
C2738 C2742 1.531 . S
C2739 C2738 1.369 . S
C2739 C2740 1.410 . S
C2739 C2747 1.503 . S
C2740 C2739 1.410 . S
C2740 C2741 1.392 . S
C2740 C2743 1.511 . S
C2741 C2737 1.376 . S
C2741 C2740 1.392 . S
C2741 H2753 0.929 . S
C2742 C2738 1.531 . S
C2742 H2754 0.960 . S
C2742 H2755 0.962 . S
C2742 H2756 0.960 . S
C2743 C2740 1.511 . S
C2743 H2757 0.961 . S
C2743 H2758 0.961 . S
C2743 H2759 0.961 . S
C2744 C2745 1.370 . S
C2744 C2746 1.363 . S
C2744 H2760 0.931 . S
C2745 C2744 1.370 . S
C2745 C2749 1.408 . S
C2746 C2744 1.363 . S
C2746 C2747 1.370 . S
C2746 C2750 1.524 . S
C2747 C2739 1.503 . S
C2747 C2746 1.370 . S
C2747 C2748 1.403 . S
C2748 C2747 1.403 . S
C2748 C2749 1.404 . S
C2748 C2751 1.539 . S
C2749 C2745 1.408 . S
C2749 C2748 1.404 . S
C2749 H2761 0.930 . S
C2750 C2746 1.524 . S
C2750 H2762 0.956 . S
C2750 H2763 0.961 . S
C2750 H2764 0.961 . S
C2751 C2748 1.539 . S
C2751 H2765 0.958 . S
C2751 H2766 0.961 . S
C2751 H2767 0.960 . S
H2752 C2736 0.931 . S
H2753 C2741 0.929 . S
H2754 C2742 0.960 . S
H2755 C2742 0.962 . S
H2756 C2742 0.960 . S
H2757 C2743 0.961 . S
H2758 C2743 0.961 . S
H2759 C2743 0.961 . S
H2760 C2744 0.931 . S
H2761 C2749 0.930 . S
H2762 C2750 0.956 . S
H2763 C2750 0.961 . S
H2764 C2750 0.961 . S
H2765 C2751 0.958 . S
H2766 C2751 0.961 . S
H2767 C2751 0.960 . S
C2768 C2769 1.391 . S
C2768 C2770 1.394 . S
C2768 H2784 0.931 . S
C2769 C2768 1.391 . S
C2769 C2773 1.376 . S
C2770 C2768 1.394 . S
C2770 C2771 1.369 . S
C2770 C2774 1.531 . S
C2771 C2770 1.369 . S
C2771 C2772 1.410 . S
C2771 C2779 1.503 . S
C2772 C2771 1.410 . S
C2772 C2773 1.392 . S
C2772 C2775 1.511 . S
C2773 C2769 1.376 . S
C2773 C2772 1.392 . S
C2773 H2785 0.929 . S
C2774 C2770 1.531 . S
C2774 H2786 0.960 . S
C2774 H2787 0.962 . S
C2774 H2788 0.960 . S
C2775 C2772 1.511 . S
C2775 H2789 0.961 . S
C2775 H2790 0.961 . S
C2775 H2791 0.961 . S
C2776 C2777 1.370 . S
C2776 C2778 1.363 . S
C2776 H2792 0.931 . S
C2777 C2776 1.370 . S
C2777 C2781 1.408 . S
C2778 C2776 1.363 . S
C2778 C2779 1.370 . S
C2778 C2782 1.524 . S
C2779 C2771 1.503 . S
C2779 C2778 1.370 . S
C2779 C2780 1.403 . S
C2780 C2779 1.403 . S
C2780 C2781 1.404 . S
C2780 C2783 1.539 . S
C2781 C2777 1.408 . S
C2781 C2780 1.404 . S
C2781 H2793 0.930 . S
C2782 C2778 1.524 . S
C2782 H2794 0.956 . S
C2782 H2795 0.961 . S
C2782 H2796 0.961 . S
C2783 C2780 1.539 . S
C2783 H2797 0.958 . S
C2783 H2798 0.961 . S
C2783 H2799 0.960 . S
H2784 C2768 0.931 . S
H2785 C2773 0.929 . S
H2786 C2774 0.960 . S
H2787 C2774 0.962 . S
H2788 C2774 0.960 . S
H2789 C2775 0.961 . S
H2790 C2775 0.961 . S
H2791 C2775 0.961 . S
H2792 C2776 0.931 . S
H2793 C2781 0.930 . S
H2794 C2782 0.956 . S
H2795 C2782 0.961 . S
H2796 C2782 0.961 . S
H2797 C2783 0.958 . S
H2798 C2783 0.961 . S
H2799 C2783 0.960 . S
C2800 C2801 1.391 . S
C2800 C2802 1.394 . S
C2800 H2816 0.931 . S
C2801 C2800 1.391 . S
C2801 C2805 1.376 . S
C2802 C2800 1.394 . S
C2802 C2803 1.369 . S
C2802 C2806 1.531 . S
C2803 C2802 1.369 . S
C2803 C2804 1.410 . S
C2803 C2811 1.503 . S
C2804 C2803 1.410 . S
C2804 C2805 1.392 . S
C2804 C2807 1.511 1_554 S
C2805 C2801 1.376 . S
C2805 C2804 1.392 . S
C2805 H2817 0.929 1_554 S
C2806 C2802 1.531 . S
C2806 H2818 0.960 . S
C2806 H2819 0.962 . S
C2806 H2820 0.960 . S
C2807 C2804 1.511 1_556 S
C2807 H2821 0.961 . S
C2807 H2822 0.961 . S
C2807 H2823 0.961 . S
C2808 C2809 1.370 . S
C2808 C2810 1.363 1_545 S
C2808 H2824 0.923 1_554 S
C2809 C2808 1.370 . S
C2809 C2813 1.408 1_545 S
C2810 C2808 1.363 1_565 S
C2810 C2811 1.370 . S
C2810 C2814 1.524 1_564 S
C2811 C2803 1.503 . S
C2811 C2810 1.370 . S
C2811 C2812 1.403 . S
C2812 C2811 1.403 . S
C2812 C2813 1.404 . S
C2812 C2815 1.539 . S
C2813 C2809 1.408 1_565 S
C2813 C2812 1.404 . S
C2813 H2825 0.930 . S
C2814 C2810 1.524 1_546 S
C2814 H2826 0.956 1_556 S
C2814 H2827 0.961 1_545 S
C2814 H2828 0.961 . S
C2815 C2812 1.539 . S
C2815 H2829 0.958 . S
C2815 H2830 0.961 . S
C2815 H2831 0.960 . S
H2816 C2800 0.931 . S
H2817 C2805 0.929 1_556 S
H2818 C2806 0.960 . S
H2819 C2806 0.962 . S
H2820 C2806 0.960 . S
H2821 C2807 0.961 . S
H2822 C2807 0.961 . S
H2823 C2807 0.961 . S
H2824 C2808 0.923 1_556 S
H2825 C2813 0.930 . S
H2826 C2814 0.956 1_554 S
H2827 C2814 0.961 1_565 S
H2828 C2814 0.961 . S
H2829 C2815 0.958 . S
H2830 C2815 0.961 . S
H2831 C2815 0.960 . S
C2832 C2833 1.391 . S
C2832 C2834 1.394 . S
C2832 H2848 0.931 . S
C2833 C2832 1.391 . S
C2833 C2837 1.376 . S
C2834 C2832 1.394 . S
C2834 C2835 1.369 . S
C2834 C2838 1.531 . S
C2835 C2834 1.369 . S
C2835 C2836 1.410 . S
C2835 C2843 1.503 . S
C2836 C2835 1.410 . S
C2836 C2837 1.392 . S
C2836 C2839 1.511 . S
C2837 C2833 1.376 . S
C2837 C2836 1.392 . S
C2837 H2849 0.929 . S
C2838 C2834 1.531 . S
C2838 H2850 0.960 . S
C2838 H2851 0.962 . S
C2838 H2852 0.960 . S
C2839 C2836 1.511 . S
C2839 H2853 0.961 . S
C2839 H2854 0.961 . S
C2839 H2855 0.961 . S
C2840 C2841 1.370 . S
C2840 C2842 1.363 . S
C2840 H2856 0.931 . S
C2841 C2840 1.370 . S
C2841 C2845 1.408 . S
C2842 C2840 1.363 . S
C2842 C2843 1.370 . S
C2842 C2846 1.524 . S
C2843 C2835 1.503 . S
C2843 C2842 1.370 . S
C2843 C2844 1.403 . S
C2844 C2843 1.403 . S
C2844 C2845 1.404 . S
C2844 C2847 1.539 . S
C2845 C2841 1.408 . S
C2845 C2844 1.404 . S
C2845 H2857 0.930 . S
C2846 C2842 1.524 . S
C2846 H2858 0.956 . S
C2846 H2859 0.961 . S
C2846 H2860 0.961 . S
C2847 C2844 1.539 . S
C2847 H2861 0.958 . S
C2847 H2862 0.961 . S
C2847 H2863 0.960 . S
H2848 C2832 0.931 . S
H2849 C2837 0.929 . S
H2850 C2838 0.960 . S
H2851 C2838 0.962 . S
H2852 C2838 0.960 . S
H2853 C2839 0.961 . S
H2854 C2839 0.961 . S
H2855 C2839 0.961 . S
H2856 C2840 0.931 . S
H2857 C2845 0.930 . S
H2858 C2846 0.956 . S
H2859 C2846 0.961 . S
H2860 C2846 0.961 . S
H2861 C2847 0.958 . S
H2862 C2847 0.961 . S
H2863 C2847 0.960 . S
C2864 C2865 1.391 . S
C2864 C2866 1.394 . S
C2864 H2880 0.931 . S
C2865 C2864 1.391 . S
C2865 C2869 1.376 1_554 S
C2866 C2864 1.394 . S
C2866 C2867 1.369 . S
C2866 C2870 1.531 . S
C2867 C2866 1.369 . S
C2867 C2868 1.410 1_554 S
C2867 C2875 1.503 . S
C2868 C2867 1.410 1_556 S
C2868 C2869 1.392 . S
C2868 C2871 1.511 . S
C2869 C2865 1.376 1_556 S
C2869 C2868 1.392 . S
C2869 H2881 0.929 . S
C2870 C2866 1.531 . S
C2870 H2882 0.960 . S
C2870 H2883 0.962 . S
C2870 H2884 0.960 . S
C2871 C2868 1.511 . S
C2871 H2885 0.961 . S
C2871 H2886 0.961 . S
C2871 H2887 0.961 . S
C2872 C2873 1.370 . S
C2872 C2874 1.363 . S
C2872 H2888 0.931 . S
C2873 C2872 1.370 . S
C2873 C2877 1.408 . S
C2874 C2872 1.363 . S
C2874 C2875 1.370 . S
C2874 C2878 1.524 . S
C2875 C2867 1.503 . S
C2875 C2874 1.370 . S
C2875 C2876 1.403 . S
C2876 C2875 1.403 . S
C2876 C2877 1.404 . S
C2876 C2879 1.539 1_554 S
C2877 C2873 1.408 . S
C2877 C2876 1.404 . S
C2877 H2889 0.930 . S
C2878 C2874 1.524 . S
C2878 H2890 0.956 . S
C2878 H2891 0.961 . S
C2878 H2892 0.961 . S
C2879 C2876 1.539 1_556 S
C2879 H2893 0.958 . S
C2879 H2894 0.961 . S
C2879 H2895 0.960 . S
H2880 C2864 0.931 . S
H2881 C2869 0.929 . S
H2882 C2870 0.960 . S
H2883 C2870 0.962 . S
H2884 C2870 0.960 . S
H2885 C2871 0.961 . S
H2886 C2871 0.961 . S
H2887 C2871 0.961 . S
H2888 C2872 0.931 . S
H2889 C2877 0.930 . S
H2890 C2878 0.956 . S
H2891 C2878 0.961 . S
H2892 C2878 0.961 . S
H2893 C2879 0.958 . S
H2894 C2879 0.961 . S
H2895 C2879 0.960 . S
C2896 C2897 1.391 . S
C2896 C2898 1.394 . S
C2896 H2912 0.931 . S
C2897 C2896 1.391 . S
C2897 C2901 1.376 . S
C2898 C2896 1.394 . S
C2898 C2899 1.369 . S
C2898 C2902 1.531 . S
C2899 C2898 1.369 . S
C2899 C2900 1.410 . S
C2899 C2907 1.503 . S
C2900 C2899 1.410 . S
C2900 C2901 1.392 . S
C2900 C2903 1.511 . S
C2901 C2897 1.376 . S
C2901 C2900 1.392 . S
C2901 H2913 0.929 . S
C2902 C2898 1.531 . S
C2902 H2914 0.960 . S
C2902 H2915 0.962 . S
C2902 H2916 0.960 . S
C2903 C2900 1.511 . S
C2903 H2917 0.961 . S
C2903 H2918 0.961 . S
C2903 H2919 0.961 . S
C2904 C2905 1.370 . S
C2904 C2906 1.363 . S
C2904 H2920 0.931 . S
C2905 C2904 1.370 . S
C2905 C2909 1.408 . S
C2906 C2904 1.363 . S
C2906 C2907 1.370 . S
C2906 C2910 1.524 . S
C2907 C2899 1.503 . S
C2907 C2906 1.370 . S
C2907 C2908 1.403 . S
C2908 C2907 1.403 . S
C2908 C2909 1.404 . S
C2908 C2911 1.539 . S
C2909 C2905 1.408 . S
C2909 C2908 1.404 . S
C2909 H2921 0.930 . S
C2910 C2906 1.524 . S
C2910 H2922 0.956 . S
C2910 H2923 0.961 . S
C2910 H2924 0.961 . S
C2911 C2908 1.539 . S
C2911 H2925 0.958 . S
C2911 H2926 0.961 . S
C2911 H2927 0.960 . S
H2912 C2896 0.931 . S
H2913 C2901 0.929 . S
H2914 C2902 0.960 . S
H2915 C2902 0.962 . S
H2916 C2902 0.960 . S
H2917 C2903 0.961 . S
H2918 C2903 0.961 . S
H2919 C2903 0.961 . S
H2920 C2904 0.931 . S
H2921 C2909 0.930 . S
H2922 C2910 0.956 . S
H2923 C2910 0.961 . S
H2924 C2910 0.961 . S
H2925 C2911 0.958 . S
H2926 C2911 0.961 . S
H2927 C2911 0.960 . S
C2928 C2929 1.391 . S
C2928 C2930 1.394 . S
C2928 H2944 0.931 . S
C2929 C2928 1.391 . S
C2929 C2933 1.376 . S
C2930 C2928 1.394 . S
C2930 C2931 1.369 . S
C2930 C2934 1.531 . S
C2931 C2930 1.369 . S
C2931 C2932 1.410 . S
C2931 C2939 1.503 . S
C2932 C2931 1.410 . S
C2932 C2933 1.392 . S
C2932 C2935 1.511 . S
C2933 C2929 1.376 . S
C2933 C2932 1.392 . S
C2933 H2945 0.929 . S
C2934 C2930 1.531 . S
C2934 H2946 0.960 . S
C2934 H2947 0.962 . S
C2934 H2948 0.960 . S
C2935 C2932 1.511 . S
C2935 H2949 0.961 . S
C2935 H2950 0.961 . S
C2935 H2951 0.961 . S
C2936 C2937 1.370 . S
C2936 C2938 1.363 . S
C2936 H2952 0.931 . S
C2937 C2936 1.370 . S
C2937 C2941 1.408 . S
C2938 C2936 1.363 . S
C2938 C2939 1.370 . S
C2938 C2942 1.524 . S
C2939 C2931 1.503 . S
C2939 C2938 1.370 . S
C2939 C2940 1.403 . S
C2940 C2939 1.403 . S
C2940 C2941 1.404 . S
C2940 C2943 1.539 . S
C2941 C2937 1.408 . S
C2941 C2940 1.404 . S
C2941 H2953 0.930 . S
C2942 C2938 1.524 . S
C2942 H2954 0.956 . S
C2942 H2955 0.961 . S
C2942 H2956 0.961 . S
C2943 C2940 1.539 . S
C2943 H2957 0.958 . S
C2943 H2958 0.961 . S
C2943 H2959 0.960 . S
H2944 C2928 0.931 . S
H2945 C2933 0.929 . S
H2946 C2934 0.960 . S
H2947 C2934 0.962 . S
H2948 C2934 0.960 . S
H2949 C2935 0.961 . S
H2950 C2935 0.961 . S
H2951 C2935 0.961 . S
H2952 C2936 0.931 . S
H2953 C2941 0.930 . S
H2954 C2942 0.956 . S
H2955 C2942 0.961 . S
H2956 C2942 0.961 . S
H2957 C2943 0.958 . S
H2958 C2943 0.961 . S
H2959 C2943 0.960 . S
C2960 C2961 1.391 . S
C2960 C2962 1.394 . S
C2960 H2976 0.931 . S
C2961 C2960 1.391 . S
C2961 C2965 1.376 . S
C2962 C2960 1.394 . S
C2962 C2963 1.369 . S
C2962 C2966 1.531 . S
C2963 C2962 1.369 . S
C2963 C2964 1.410 . S
C2963 C2971 1.503 . S
C2964 C2963 1.410 . S
C2964 C2965 1.392 . S
C2964 C2967 1.511 . S
C2965 C2961 1.376 . S
C2965 C2964 1.392 . S
C2965 H2977 0.929 . S
C2966 C2962 1.531 . S
C2966 H2978 0.960 . S
C2966 H2979 0.962 . S
C2966 H2980 0.960 . S
C2967 C2964 1.511 . S
C2967 H2981 0.961 . S
C2967 H2982 0.961 . S
C2967 H2983 0.961 . S
C2968 C2969 1.370 . S
C2968 C2970 1.363 . S
C2968 H2984 0.931 . S
C2969 C2968 1.370 . S
C2969 C2973 1.408 . S
C2970 C2968 1.363 . S
C2970 C2971 1.370 . S
C2970 C2974 1.524 . S
C2971 C2963 1.503 . S
C2971 C2970 1.370 . S
C2971 C2972 1.403 . S
C2972 C2971 1.403 . S
C2972 C2973 1.404 . S
C2972 C2975 1.539 . S
C2973 C2969 1.408 . S
C2973 C2972 1.404 . S
C2973 H2985 0.930 . S
C2974 C2970 1.524 . S
C2974 H2986 0.956 . S
C2974 H2987 0.961 . S
C2974 H2988 0.961 . S
C2975 C2972 1.539 . S
C2975 H2989 0.958 . S
C2975 H2990 0.961 . S
C2975 H2991 0.960 . S
H2976 C2960 0.931 . S
H2977 C2965 0.929 . S
H2978 C2966 0.960 . S
H2979 C2966 0.962 . S
H2980 C2966 0.960 . S
H2981 C2967 0.961 . S
H2982 C2967 0.961 . S
H2983 C2967 0.961 . S
H2984 C2968 0.931 . S
H2985 C2973 0.930 . S
H2986 C2974 0.956 . S
H2987 C2974 0.961 . S
H2988 C2974 0.961 . S
H2989 C2975 0.958 . S
H2990 C2975 0.961 . S
H2991 C2975 0.960 . S
C2992 C2993 1.391 . S
C2992 C2994 1.394 . S
C2992 H3008 0.931 . S
C2993 C2992 1.391 . S
C2993 C2997 1.376 . S
C2994 C2992 1.394 . S
C2994 C2995 1.369 . S
C2994 C2998 1.531 . S
C2995 C2994 1.369 . S
C2995 C2996 1.410 . S
C2995 C3003 1.503 . S
C2996 C2995 1.410 . S
C2996 C2997 1.392 . S
C2996 C2999 1.511 . S
C2997 C2993 1.376 . S
C2997 C2996 1.392 . S
C2997 H3009 0.929 . S
C2998 C2994 1.531 . S
C2998 H3010 0.960 . S
C2998 H3011 0.962 . S
C2998 H3012 0.960 . S
C2999 C2996 1.511 . S
C2999 H3013 0.961 . S
C2999 H3014 0.961 . S
C2999 H3015 0.961 . S
C3000 C3001 1.370 . S
C3000 C3002 1.363 . S
C3000 H3016 0.931 . S
C3001 C3000 1.370 . S
C3001 C3005 1.408 . S
C3002 C3000 1.363 . S
C3002 C3003 1.370 . S
C3002 C3006 1.524 . S
C3003 C2995 1.503 . S
C3003 C3002 1.370 . S
C3003 C3004 1.403 . S
C3004 C3003 1.403 . S
C3004 C3005 1.404 . S
C3004 C3007 1.539 . S
C3005 C3001 1.408 . S
C3005 C3004 1.404 . S
C3005 H3017 0.930 . S
C3006 C3002 1.524 . S
C3006 H3018 0.956 . S
C3006 H3019 0.961 . S
C3006 H3020 0.961 . S
C3007 C3004 1.539 . S
C3007 H3021 0.958 . S
C3007 H3022 0.961 . S
C3007 H3023 0.960 . S
H3008 C2992 0.931 . S
H3009 C2997 0.929 . S
H3010 C2998 0.960 . S
H3011 C2998 0.962 . S
H3012 C2998 0.960 . S
H3013 C2999 0.961 . S
H3014 C2999 0.961 . S
H3015 C2999 0.961 . S
H3016 C3000 0.931 . S
H3017 C3005 0.930 . S
H3018 C3006 0.956 . S
H3019 C3006 0.961 . S
H3020 C3006 0.961 . S
H3021 C3007 0.958 . S
H3022 C3007 0.961 . S
H3023 C3007 0.960 . S
C3024 C3025 1.391 . S
C3024 C3026 1.394 . S
C3024 H3040 0.931 . S
C3025 C3024 1.391 . S
C3025 C3029 1.376 . S
C3026 C3024 1.394 . S
C3026 C3027 1.369 . S
C3026 C3030 1.531 . S
C3027 C3026 1.369 . S
C3027 C3028 1.410 . S
C3027 C3035 1.503 . S
C3028 C3027 1.410 . S
C3028 C3029 1.392 . S
C3028 C3031 1.511 1_455 S
C3029 C3025 1.376 . S
C3029 C3028 1.392 . S
C3029 H3041 0.929 . S
C3030 C3026 1.531 . S
C3030 H3042 0.960 . S
C3030 H3043 0.962 . S
C3030 H3044 0.960 . S
C3031 C3028 1.511 1_655 S
C3031 H3045 0.961 . S
C3031 H3046 0.961 1_655 S
C3031 H3047 0.961 . S
C3032 C3033 1.370 . S
C3032 C3034 1.363 . S
C3032 H3048 0.931 . S
C3033 C3032 1.370 . S
C3033 C3037 1.408 1_455 S
C3034 C3032 1.363 . S
C3034 C3035 1.370 . S
C3034 C3038 1.524 . S
C3035 C3027 1.503 . S
C3035 C3034 1.370 . S
C3035 C3036 1.403 1_455 S
C3036 C3035 1.403 1_655 S
C3036 C3037 1.404 . S
C3036 C3039 1.539 . S
C3037 C3033 1.408 1_655 S
C3037 C3036 1.404 . S
C3037 H3049 0.930 . S
C3038 C3034 1.524 . S
C3038 H3050 0.956 . S
C3038 H3051 0.961 . S
C3038 H3052 0.961 . S
C3039 C3036 1.539 . S
C3039 H3053 0.958 . S
C3039 H3054 0.961 . S
C3039 H3055 0.960 . S
H3040 C3024 0.931 . S
H3041 C3029 0.929 . S
H3042 C3030 0.960 . S
H3043 C3030 0.962 . S
H3044 C3030 0.960 . S
H3045 C3031 0.961 . S
H3046 C3031 0.961 1_455 S
H3047 C3031 0.961 . S
H3048 C3032 0.931 . S
H3049 C3037 0.930 . S
H3050 C3038 0.956 . S
H3051 C3038 0.961 . S
H3052 C3038 0.961 . S
H3053 C3039 0.958 . S
H3054 C3039 0.961 . S
H3055 C3039 0.960 . S
C3056 C3057 1.391 . S
C3056 C3058 1.394 . S
C3056 H3072 0.931 . S
C3057 C3056 1.391 . S
C3057 C3061 1.376 . S
C3058 C3056 1.394 . S
C3058 C3059 1.369 . S
C3058 C3062 1.531 . S
C3059 C3058 1.369 . S
C3059 C3060 1.410 . S
C3059 C3067 1.503 . S
C3060 C3059 1.410 . S
C3060 C3061 1.392 . S
C3060 C3063 1.511 . S
C3061 C3057 1.376 . S
C3061 C3060 1.392 . S
C3061 H3073 0.929 . S
C3062 C3058 1.531 . S
C3062 H3074 0.960 . S
C3062 H3075 0.962 . S
C3062 H3076 0.960 . S
C3063 C3060 1.511 . S
C3063 H3077 0.961 . S
C3063 H3078 0.961 . S
C3063 H3079 0.961 . S
C3064 C3065 1.370 . S
C3064 C3066 1.363 . S
C3064 H3080 0.931 . S
C3065 C3064 1.370 . S
C3065 C3069 1.408 . S
C3066 C3064 1.363 . S
C3066 C3067 1.370 . S
C3066 C3070 1.524 . S
C3067 C3059 1.503 . S
C3067 C3066 1.370 . S
C3067 C3068 1.403 . S
C3068 C3067 1.403 . S
C3068 C3069 1.404 . S
C3068 C3071 1.539 . S
C3069 C3065 1.408 . S
C3069 C3068 1.404 . S
C3069 H3081 0.930 . S
C3070 C3066 1.524 . S
C3070 H3082 0.956 . S
C3070 H3083 0.961 . S
C3070 H3084 0.961 . S
C3071 C3068 1.539 . S
C3071 H3085 0.958 . S
C3071 H3086 0.961 . S
C3071 H3087 0.960 . S
H3072 C3056 0.931 . S
H3073 C3061 0.929 . S
H3074 C3062 0.960 . S
H3075 C3062 0.962 . S
H3076 C3062 0.960 . S
H3077 C3063 0.961 . S
H3078 C3063 0.961 . S
H3079 C3063 0.961 . S
H3080 C3064 0.931 . S
H3081 C3069 0.930 . S
H3082 C3070 0.956 . S
H3083 C3070 0.961 . S
H3084 C3070 0.961 . S
H3085 C3071 0.958 . S
H3086 C3071 0.961 . S
H3087 C3071 0.960 . S
C3088 C3089 1.391 . S
C3088 C3090 1.394 . S
C3088 H3104 0.931 . S
C3089 C3088 1.391 . S
C3089 C3093 1.376 . S
C3090 C3088 1.394 . S
C3090 C3091 1.369 . S
C3090 C3094 1.531 . S
C3091 C3090 1.369 . S
C3091 C3092 1.410 . S
C3091 C3099 1.503 . S
C3092 C3091 1.410 . S
C3092 C3093 1.392 . S
C3092 C3095 1.511 . S
C3093 C3089 1.376 . S
C3093 C3092 1.392 . S
C3093 H3105 0.929 . S
C3094 C3090 1.531 . S
C3094 H3106 0.960 . S
C3094 H3107 0.962 . S
C3094 H3108 0.960 . S
C3095 C3092 1.511 . S
C3095 H3109 0.961 . S
C3095 H3110 0.961 . S
C3095 H3111 0.961 . S
C3096 C3097 1.370 . S
C3096 C3098 1.363 . S
C3096 H3112 0.931 . S
C3097 C3096 1.370 . S
C3097 C3101 1.408 . S
C3098 C3096 1.363 . S
C3098 C3099 1.370 . S
C3098 C3102 1.524 . S
C3099 C3091 1.503 . S
C3099 C3098 1.370 . S
C3099 C3100 1.403 . S
C3100 C3099 1.403 . S
C3100 C3101 1.404 . S
C3100 C3103 1.539 . S
C3101 C3097 1.408 . S
C3101 C3100 1.404 . S
C3101 H3113 0.930 . S
C3102 C3098 1.524 . S
C3102 H3114 0.956 . S
C3102 H3115 0.961 . S
C3102 H3116 0.961 . S
C3103 C3100 1.539 . S
C3103 H3117 0.958 . S
C3103 H3118 0.961 . S
C3103 H3119 0.960 . S
H3104 C3088 0.931 . S
H3105 C3093 0.929 . S
H3106 C3094 0.960 . S
H3107 C3094 0.962 . S
H3108 C3094 0.960 . S
H3109 C3095 0.961 . S
H3110 C3095 0.961 . S
H3111 C3095 0.961 . S
H3112 C3096 0.931 . S
H3113 C3101 0.930 . S
H3114 C3102 0.956 . S
H3115 C3102 0.961 . S
H3116 C3102 0.961 . S
H3117 C3103 0.958 . S
H3118 C3103 0.961 . S
H3119 C3103 0.960 . S
C3120 C3121 1.391 . S
C3120 C3122 1.394 . S
C3120 H3136 0.931 . S
C3121 C3120 1.391 . S
C3121 C3125 1.376 . S
C3122 C3120 1.394 . S
C3122 C3123 1.369 . S
C3122 C3126 1.531 . S
C3123 C3122 1.369 . S
C3123 C3124 1.410 . S
C3123 C3131 1.503 . S
C3124 C3123 1.410 . S
C3124 C3125 1.392 . S
C3124 C3127 1.511 . S
C3125 C3121 1.376 . S
C3125 C3124 1.392 . S
C3125 H3137 0.929 . S
C3126 C3122 1.531 . S
C3126 H3138 0.960 . S
C3126 H3139 0.962 . S
C3126 H3140 0.960 . S
C3127 C3124 1.511 . S
C3127 H3141 0.961 . S
C3127 H3142 0.961 . S
C3127 H3143 0.961 . S
C3128 C3129 1.370 . S
C3128 C3130 1.363 . S
C3128 H3144 0.931 . S
C3129 C3128 1.370 . S
C3129 C3133 1.408 . S
C3130 C3128 1.363 . S
C3130 C3131 1.370 . S
C3130 C3134 1.524 . S
C3131 C3123 1.503 . S
C3131 C3130 1.370 . S
C3131 C3132 1.403 . S
C3132 C3131 1.403 . S
C3132 C3133 1.404 . S
C3132 C3135 1.539 . S
C3133 C3129 1.408 . S
C3133 C3132 1.404 . S
C3133 H3145 0.930 . S
C3134 C3130 1.524 . S
C3134 H3146 0.956 . S
C3134 H3147 0.961 . S
C3134 H3148 0.961 . S
C3135 C3132 1.539 . S
C3135 H3149 0.958 . S
C3135 H3150 0.961 . S
C3135 H3151 0.960 . S
H3136 C3120 0.931 . S
H3137 C3125 0.929 . S
H3138 C3126 0.960 . S
H3139 C3126 0.962 . S
H3140 C3126 0.960 . S
H3141 C3127 0.961 . S
H3142 C3127 0.961 . S
H3143 C3127 0.961 . S
H3144 C3128 0.931 . S
H3145 C3133 0.930 . S
H3146 C3134 0.956 . S
H3147 C3134 0.961 . S
H3148 C3134 0.961 . S
H3149 C3135 0.958 . S
H3150 C3135 0.961 . S
H3151 C3135 0.960 . S
C3152 C3153 1.391 . S
C3152 C3154 1.394 . S
C3152 H3168 0.931 . S
C3153 C3152 1.391 . S
C3153 C3157 1.376 . S
C3154 C3152 1.394 . S
C3154 C3155 1.369 . S
C3154 C3158 1.531 . S
C3155 C3154 1.369 . S
C3155 C3156 1.410 . S
C3155 C3163 1.503 . S
C3156 C3155 1.410 . S
C3156 C3157 1.392 . S
C3156 C3159 1.511 1_455 S
C3157 C3153 1.376 . S
C3157 C3156 1.392 . S
C3157 H3169 0.929 . S
C3158 C3154 1.531 . S
C3158 H3170 0.960 . S
C3158 H3171 0.962 . S
C3158 H3172 0.960 . S
C3159 C3156 1.511 1_655 S
C3159 H3173 0.959 . S
C3159 H3174 0.961 1_655 S
C3159 H3175 0.961 . S
C3160 C3161 1.370 . S
C3160 C3162 1.363 . S
C3160 H3176 0.931 . S
C3161 C3160 1.370 . S
C3161 C3165 1.389 1_455 S
C3162 C3160 1.363 . S
C3162 C3163 1.370 . S
C3162 C3166 1.524 . S
C3163 C3155 1.503 . S
C3163 C3162 1.370 . S
C3163 C3164 1.378 1_455 S
C3164 C3163 1.378 1_655 S
C3164 C3165 1.404 . S
C3164 C3167 1.560 . S
C3165 C3161 1.389 1_655 S
C3165 C3164 1.404 . S
C3165 H3177 0.954 . S
C3166 C3162 1.524 . S
C3166 H3178 0.956 . S
C3166 H3179 0.961 . S
C3166 H3180 0.961 . S
C3167 C3164 1.560 . S
C3167 H3181 0.958 . S
C3167 H3182 0.961 . S
C3167 H3183 0.960 . S
H3168 C3152 0.931 . S
H3169 C3157 0.929 . S
H3170 C3158 0.960 . S
H3171 C3158 0.962 . S
H3172 C3158 0.960 . S
H3173 C3159 0.959 . S
H3174 C3159 0.961 1_455 S
H3175 C3159 0.961 . S
H3176 C3160 0.931 . S
H3177 C3165 0.954 . S
H3178 C3166 0.956 . S
H3179 C3166 0.961 . S
H3180 C3166 0.961 . S
H3181 C3167 0.958 . S
H3182 C3167 0.961 . S
H3183 C3167 0.960 . S
C3184 C3185 1.391 . S
C3184 C3186 1.394 . S
C3184 H3200 0.931 . S
C3185 C3184 1.391 . S
C3185 C3189 1.376 . S
C3186 C3184 1.394 . S
C3186 C3187 1.369 . S
C3186 C3190 1.531 . S
C3187 C3186 1.369 . S
C3187 C3188 1.410 . S
C3187 C3195 1.503 . S
C3188 C3187 1.410 . S
C3188 C3189 1.392 . S
C3188 C3191 1.511 . S
C3189 C3185 1.376 . S
C3189 C3188 1.392 . S
C3189 H3201 0.929 . S
C3190 C3186 1.531 . S
C3190 H3202 0.960 . S
C3190 H3203 0.962 . S
C3190 H3204 0.960 . S
C3191 C3188 1.511 . S
C3191 H3205 0.961 . S
C3191 H3206 0.961 . S
C3191 H3207 0.961 . S
C3192 C3193 1.370 . S
C3192 C3194 1.363 . S
C3192 H3208 0.931 . S
C3193 C3192 1.370 . S
C3193 C3197 1.408 . S
C3194 C3192 1.363 . S
C3194 C3195 1.370 . S
C3194 C3198 1.524 . S
C3195 C3187 1.503 . S
C3195 C3194 1.370 . S
C3195 C3196 1.403 . S
C3196 C3195 1.403 . S
C3196 C3197 1.404 . S
C3196 C3199 1.539 . S
C3197 C3193 1.408 . S
C3197 C3196 1.404 . S
C3197 H3209 0.930 . S
C3198 C3194 1.524 . S
C3198 H3210 0.956 . S
C3198 H3211 0.961 . S
C3198 H3212 0.961 . S
C3199 C3196 1.539 . S
C3199 H3213 0.958 . S
C3199 H3214 0.961 . S
C3199 H3215 0.960 . S
H3200 C3184 0.931 . S
H3201 C3189 0.929 . S
H3202 C3190 0.960 . S
H3203 C3190 0.962 . S
H3204 C3190 0.960 . S
H3205 C3191 0.961 . S
H3206 C3191 0.961 . S
H3207 C3191 0.961 . S
H3208 C3192 0.931 . S
H3209 C3197 0.930 . S
H3210 C3198 0.956 . S
H3211 C3198 0.961 . S
H3212 C3198 0.961 . S
H3213 C3199 0.958 . S
H3214 C3199 0.961 . S
H3215 C3199 0.960 . S
C3216 C3217 1.391 . S
C3216 C3218 1.394 . S
C3216 H3232 0.931 . S
C3217 C3216 1.391 . S
C3217 C3221 1.376 . S
C3218 C3216 1.394 . S
C3218 C3219 1.369 . S
C3218 C3222 1.531 . S
C3219 C3218 1.369 . S
C3219 C3220 1.410 . S
C3219 C3227 1.503 . S
C3220 C3219 1.410 . S
C3220 C3221 1.392 . S
C3220 C3223 1.511 . S
C3221 C3217 1.376 . S
C3221 C3220 1.392 . S
C3221 H3233 0.929 . S
C3222 C3218 1.531 . S
C3222 H3234 0.960 . S
C3222 H3235 0.962 . S
C3222 H3236 0.960 . S
C3223 C3220 1.511 . S
C3223 H3237 0.961 . S
C3223 H3238 0.961 . S
C3223 H3239 0.961 . S
C3224 C3225 1.370 . S
C3224 C3226 1.363 . S
C3224 H3240 0.931 . S
C3225 C3224 1.370 . S
C3225 C3229 1.408 . S
C3226 C3224 1.363 . S
C3226 C3227 1.370 . S
C3226 C3230 1.524 . S
C3227 C3219 1.503 . S
C3227 C3226 1.370 . S
C3227 C3228 1.403 . S
C3228 C3227 1.403 . S
C3228 C3229 1.404 . S
C3228 C3231 1.539 . S
C3229 C3225 1.408 . S
C3229 C3228 1.404 . S
C3229 H3241 0.930 . S
C3230 C3226 1.524 . S
C3230 H3242 0.956 . S
C3230 H3243 0.961 . S
C3230 H3244 0.961 . S
C3231 C3228 1.539 . S
C3231 H3245 0.958 . S
C3231 H3246 0.961 . S
C3231 H3247 0.960 . S
H3232 C3216 0.931 . S
H3233 C3221 0.929 . S
H3234 C3222 0.960 . S
H3235 C3222 0.962 . S
H3236 C3222 0.960 . S
H3237 C3223 0.961 . S
H3238 C3223 0.961 . S
H3239 C3223 0.961 . S
H3240 C3224 0.931 . S
H3241 C3229 0.930 . S
H3242 C3230 0.956 . S
H3243 C3230 0.961 . S
H3244 C3230 0.961 . S
H3245 C3231 0.958 . S
H3246 C3231 0.961 . S
H3247 C3231 0.960 . S
C3248 C3249 1.391 . S
C3248 C3250 1.394 . S
C3248 H3264 0.931 . S
C3249 C3248 1.391 . S
C3249 C3253 1.376 . S
C3250 C3248 1.394 . S
C3250 C3251 1.369 . S
C3250 C3254 1.531 . S
C3251 C3250 1.369 . S
C3251 C3252 1.410 . S
C3251 C3259 1.503 . S
C3252 C3251 1.410 . S
C3252 C3253 1.392 . S
C3252 C3255 1.511 . S
C3253 C3249 1.376 . S
C3253 C3252 1.392 . S
C3253 H3265 0.929 . S
C3254 C3250 1.531 . S
C3254 H3266 0.960 . S
C3254 H3267 0.962 . S
C3254 H3268 0.960 . S
C3255 C3252 1.511 . S
C3255 H3269 0.961 . S
C3255 H3270 0.961 . S
C3255 H3271 0.961 . S
C3256 C3257 1.370 . S
C3256 C3258 1.363 . S
C3256 H3272 0.931 . S
C3257 C3256 1.370 . S
C3257 C3261 1.408 . S
C3258 C3256 1.363 . S
C3258 C3259 1.370 . S
C3258 C3262 1.524 . S
C3259 C3251 1.503 . S
C3259 C3258 1.370 . S
C3259 C3260 1.403 . S
C3260 C3259 1.403 . S
C3260 C3261 1.404 . S
C3260 C3263 1.539 . S
C3261 C3257 1.408 . S
C3261 C3260 1.404 . S
C3261 H3273 0.930 . S
C3262 C3258 1.524 . S
C3262 H3274 0.956 . S
C3262 H3275 0.961 . S
C3262 H3276 0.961 . S
C3263 C3260 1.539 . S
C3263 H3277 0.958 . S
C3263 H3278 0.961 . S
C3263 H3279 0.960 . S
H3264 C3248 0.931 . S
H3265 C3253 0.929 . S
H3266 C3254 0.960 . S
H3267 C3254 0.962 . S
H3268 C3254 0.960 . S
H3269 C3255 0.961 . S
H3270 C3255 0.961 . S
H3271 C3255 0.961 . S
H3272 C3256 0.931 . S
H3273 C3261 0.930 . S
H3274 C3262 0.956 . S
H3275 C3262 0.961 . S
H3276 C3262 0.961 . S
H3277 C3263 0.958 . S
H3278 C3263 0.961 . S
H3279 C3263 0.960 . S
C3280 C3281 1.391 . S
C3280 C3282 1.394 . S
C3280 H3296 0.931 . S
C3281 C3280 1.391 . S
C3281 C3285 1.376 . S
C3282 C3280 1.394 . S
C3282 C3283 1.369 . S
C3282 C3286 1.531 . S
C3283 C3282 1.369 . S
C3283 C3284 1.410 . S
C3283 C3291 1.503 . S
C3284 C3283 1.410 . S
C3284 C3285 1.392 . S
C3284 C3287 1.511 . S
C3285 C3281 1.376 . S
C3285 C3284 1.392 . S
C3285 H3297 0.929 . S
C3286 C3282 1.531 . S
C3286 H3298 0.960 1_655 S
C3286 H3299 0.962 . S
C3286 H3300 0.944 1_655 S
C3287 C3284 1.511 . S
C3287 H3301 0.961 . S
C3287 H3302 0.961 . S
C3287 H3303 0.961 . S
C3288 C3289 1.370 . S
C3288 C3290 1.363 . S
C3288 H3304 0.931 . S
C3289 C3288 1.370 . S
C3289 C3293 1.405 1_655 S
C3290 C3288 1.363 . S
C3290 C3291 1.370 . S
C3290 C3294 1.524 . S
C3291 C3283 1.503 . S
C3291 C3290 1.370 . S
C3291 C3292 1.403 . S
C3292 C3291 1.403 . S
C3292 C3293 1.394 1_655 S
C3292 C3295 1.539 . S
C3293 C3289 1.405 1_455 S
C3293 C3292 1.394 1_455 S
C3293 H3305 0.943 . S
C3294 C3290 1.524 . S
C3294 H3306 0.956 . S
C3294 H3307 0.961 . S
C3294 H3308 0.961 . S
C3295 C3292 1.539 . S
C3295 H3309 0.958 1_655 S
C3295 H3310 0.961 1_655 S
C3295 H3311 0.960 . S
H3296 C3280 0.931 . S
H3297 C3285 0.929 . S
H3298 C3286 0.960 1_455 S
H3299 C3286 0.962 . S
H3300 C3286 0.944 1_455 S
H3301 C3287 0.961 . S
H3302 C3287 0.961 . S
H3303 C3287 0.961 . S
H3304 C3288 0.931 . S
H3305 C3293 0.943 . S
H3306 C3294 0.956 . S
H3307 C3294 0.961 . S
H3308 C3294 0.961 . S
H3309 C3295 0.958 1_455 S
H3310 C3295 0.961 1_455 S
H3311 C3295 0.960 . S
C3312 C3313 1.391 . S
C3312 C3314 1.394 . S
C3312 H3328 0.931 . S
C3313 C3312 1.391 . S
C3313 C3317 1.376 . S
C3314 C3312 1.394 . S
C3314 C3315 1.369 . S
C3314 C3318 1.531 . S
C3315 C3314 1.369 . S
C3315 C3316 1.410 . S
C3315 C3323 1.503 . S
C3316 C3315 1.410 . S
C3316 C3317 1.392 . S
C3316 C3319 1.511 . S
C3317 C3313 1.376 . S
C3317 C3316 1.392 . S
C3317 H3329 0.929 . S
C3318 C3314 1.531 . S
C3318 H3330 0.960 . S
C3318 H3331 0.962 . S
C3318 H3332 0.960 . S
C3319 C3316 1.511 . S
C3319 H3333 0.961 . S
C3319 H3334 0.961 . S
C3319 H3335 0.961 . S
C3320 C3321 1.370 . S
C3320 C3322 1.363 . S
C3320 H3336 0.931 . S
C3321 C3320 1.370 . S
C3321 C3325 1.408 . S
C3322 C3320 1.363 . S
C3322 C3323 1.370 . S
C3322 C3326 1.524 . S
C3323 C3315 1.503 . S
C3323 C3322 1.370 . S
C3323 C3324 1.403 . S
C3324 C3323 1.403 . S
C3324 C3325 1.404 . S
C3324 C3327 1.539 . S
C3325 C3321 1.408 . S
C3325 C3324 1.404 . S
C3325 H3337 0.930 . S
C3326 C3322 1.524 . S
C3326 H3338 0.956 . S
C3326 H3339 0.961 . S
C3326 H3340 0.961 . S
C3327 C3324 1.539 . S
C3327 H3341 0.958 . S
C3327 H3342 0.961 . S
C3327 H3343 0.960 . S
H3328 C3312 0.931 . S
H3329 C3317 0.929 . S
H3330 C3318 0.960 . S
H3331 C3318 0.962 . S
H3332 C3318 0.960 . S
H3333 C3319 0.961 . S
H3334 C3319 0.961 . S
H3335 C3319 0.961 . S
H3336 C3320 0.931 . S
H3337 C3325 0.930 . S
H3338 C3326 0.956 . S
H3339 C3326 0.961 . S
H3340 C3326 0.961 . S
H3341 C3327 0.958 . S
H3342 C3327 0.961 . S
H3343 C3327 0.960 . S
C3344 C3345 1.391 . S
C3344 C3346 1.394 . S
C3344 H3360 0.931 . S
C3345 C3344 1.391 . S
C3345 C3349 1.376 . S
C3346 C3344 1.394 . S
C3346 C3347 1.369 . S
C3346 C3350 1.531 . S
C3347 C3346 1.369 . S
C3347 C3348 1.410 . S
C3347 C3355 1.503 . S
C3348 C3347 1.410 . S
C3348 C3349 1.392 . S
C3348 C3351 1.511 . S
C3349 C3345 1.376 . S
C3349 C3348 1.392 . S
C3349 H3361 0.929 . S
C3350 C3346 1.531 . S
C3350 H3362 0.960 . S
C3350 H3363 0.962 . S
C3350 H3364 0.960 . S
C3351 C3348 1.511 . S
C3351 H3365 0.961 . S
C3351 H3366 0.961 . S
C3351 H3367 0.961 . S
C3352 C3353 1.370 . S
C3352 C3354 1.363 . S
C3352 H3368 0.931 . S
C3353 C3352 1.370 . S
C3353 C3357 1.408 . S
C3354 C3352 1.363 . S
C3354 C3355 1.370 . S
C3354 C3358 1.524 . S
C3355 C3347 1.503 . S
C3355 C3354 1.370 . S
C3355 C3356 1.403 . S
C3356 C3355 1.403 . S
C3356 C3357 1.404 . S
C3356 C3359 1.539 . S
C3357 C3353 1.408 . S
C3357 C3356 1.404 . S
C3357 H3369 0.930 . S
C3358 C3354 1.524 . S
C3358 H3370 0.956 . S
C3358 H3371 0.961 . S
C3358 H3372 0.961 . S
C3359 C3356 1.539 . S
C3359 H3373 0.958 . S
C3359 H3374 0.961 . S
C3359 H3375 0.960 . S
H3360 C3344 0.931 . S
H3361 C3349 0.929 . S
H3362 C3350 0.960 . S
H3363 C3350 0.962 . S
H3364 C3350 0.960 . S
H3365 C3351 0.961 . S
H3366 C3351 0.961 . S
H3367 C3351 0.961 . S
H3368 C3352 0.931 . S
H3369 C3357 0.930 . S
H3370 C3358 0.956 . S
H3371 C3358 0.961 . S
H3372 C3358 0.961 . S
H3373 C3359 0.958 . S
H3374 C3359 0.961 . S
H3375 C3359 0.960 . S
C3376 C3377 1.391 . S
C3376 C3378 1.394 . S
C3376 H3392 0.931 . S
C3377 C3376 1.391 . S
C3377 C3381 1.376 . S
C3378 C3376 1.394 . S
C3378 C3379 1.369 . S
C3378 C3382 1.531 . S
C3379 C3378 1.369 . S
C3379 C3380 1.410 . S
C3379 C3387 1.503 . S
C3380 C3379 1.410 . S
C3380 C3381 1.392 . S
C3380 C3383 1.511 . S
C3381 C3377 1.376 . S
C3381 C3380 1.392 . S
C3381 H3393 0.929 . S
C3382 C3378 1.531 . S
C3382 H3394 0.960 . S
C3382 H3395 0.962 . S
C3382 H3396 0.960 . S
C3383 C3380 1.511 . S
C3383 H3397 0.961 . S
C3383 H3398 0.961 . S
C3383 H3399 0.961 . S
C3384 C3385 1.370 . S
C3384 C3386 1.363 . S
C3384 H3400 0.931 . S
C3385 C3384 1.370 . S
C3385 C3389 1.408 . S
C3386 C3384 1.363 . S
C3386 C3387 1.370 . S
C3386 C3390 1.524 . S
C3387 C3379 1.503 . S
C3387 C3386 1.370 . S
C3387 C3388 1.403 . S
C3388 C3387 1.403 . S
C3388 C3389 1.404 . S
C3388 C3391 1.539 . S
C3389 C3385 1.408 . S
C3389 C3388 1.404 . S
C3389 H3401 0.930 . S
C3390 C3386 1.524 . S
C3390 H3402 0.956 . S
C3390 H3403 0.961 . S
C3390 H3404 0.961 . S
C3391 C3388 1.539 . S
C3391 H3405 0.958 . S
C3391 H3406 0.961 . S
C3391 H3407 0.960 . S
H3392 C3376 0.931 . S
H3393 C3381 0.929 . S
H3394 C3382 0.960 . S
H3395 C3382 0.962 . S
H3396 C3382 0.960 . S
H3397 C3383 0.961 . S
H3398 C3383 0.961 . S
H3399 C3383 0.961 . S
H3400 C3384 0.931 . S
H3401 C3389 0.930 . S
H3402 C3390 0.956 . S
H3403 C3390 0.961 . S
H3404 C3390 0.961 . S
H3405 C3391 0.958 . S
H3406 C3391 0.961 . S
H3407 C3391 0.960 . S
C3408 C3409 1.391 . S
C3408 C3410 1.394 . S
C3408 H3424 0.931 . S
C3409 C3408 1.391 . S
C3409 C3413 1.376 . S
C3410 C3408 1.394 . S
C3410 C3411 1.369 . S
C3410 C3414 1.531 . S
C3411 C3410 1.369 . S
C3411 C3412 1.410 . S
C3411 C3419 1.503 . S
C3412 C3411 1.410 . S
C3412 C3413 1.392 . S
C3412 C3415 1.511 . S
C3413 C3409 1.376 . S
C3413 C3412 1.392 . S
C3413 H3425 0.929 . S
C3414 C3410 1.531 . S
C3414 H3426 0.960 . S
C3414 H3427 0.962 . S
C3414 H3428 0.960 . S
C3415 C3412 1.511 . S
C3415 H3429 0.961 . S
C3415 H3430 0.961 . S
C3415 H3431 0.961 . S
C3416 C3417 1.370 . S
C3416 C3418 1.363 . S
C3416 H3432 0.931 . S
C3417 C3416 1.370 . S
C3417 C3421 1.408 . S
C3418 C3416 1.363 . S
C3418 C3419 1.370 . S
C3418 C3422 1.524 . S
C3419 C3411 1.503 . S
C3419 C3418 1.370 . S
C3419 C3420 1.403 . S
C3420 C3419 1.403 . S
C3420 C3421 1.404 . S
C3420 C3423 1.539 . S
C3421 C3417 1.408 . S
C3421 C3420 1.404 . S
C3421 H3433 0.930 . S
C3422 C3418 1.524 . S
C3422 H3434 0.956 . S
C3422 H3435 0.961 . S
C3422 H3436 0.961 . S
C3423 C3420 1.539 . S
C3423 H3437 0.958 . S
C3423 H3438 0.961 . S
C3423 H3439 0.960 . S
H3424 C3408 0.931 . S
H3425 C3413 0.929 . S
H3426 C3414 0.960 . S
H3427 C3414 0.962 . S
H3428 C3414 0.960 . S
H3429 C3415 0.961 . S
H3430 C3415 0.961 . S
H3431 C3415 0.961 . S
H3432 C3416 0.931 . S
H3433 C3421 0.930 . S
H3434 C3422 0.956 . S
H3435 C3422 0.961 . S
H3436 C3422 0.961 . S
H3437 C3423 0.958 . S
H3438 C3423 0.961 . S
H3439 C3423 0.960 . S
C3440 C3441 1.391 . S
C3440 C3442 1.394 . S
C3440 H3456 0.931 . S
C3441 C3440 1.391 . S
C3441 C3445 1.376 . S
C3442 C3440 1.394 . S
C3442 C3443 1.369 . S
C3442 C3446 1.531 . S
C3443 C3442 1.369 . S
C3443 C3444 1.410 . S
C3443 C3451 1.503 . S
C3444 C3443 1.410 . S
C3444 C3445 1.392 . S
C3444 C3447 1.511 . S
C3445 C3441 1.376 . S
C3445 C3444 1.392 . S
C3445 H3457 0.929 . S
C3446 C3442 1.531 . S
C3446 H3458 0.960 . S
C3446 H3459 0.962 . S
C3446 H3460 0.960 . S
C3447 C3444 1.511 . S
C3447 H3461 0.961 . S
C3447 H3462 0.961 . S
C3447 H3463 0.961 . S
C3448 C3449 1.370 . S
C3448 C3450 1.363 . S
C3448 H3464 0.931 . S
C3449 C3448 1.370 . S
C3449 C3453 1.408 . S
C3450 C3448 1.363 . S
C3450 C3451 1.370 . S
C3450 C3454 1.524 . S
C3451 C3443 1.503 . S
C3451 C3450 1.370 . S
C3451 C3452 1.403 . S
C3452 C3451 1.403 . S
C3452 C3453 1.404 . S
C3452 C3455 1.539 . S
C3453 C3449 1.408 . S
C3453 C3452 1.404 . S
C3453 H3465 0.930 . S
C3454 C3450 1.524 . S
C3454 H3466 0.956 . S
C3454 H3467 0.961 . S
C3454 H3468 0.961 . S
C3455 C3452 1.539 . S
C3455 H3469 0.958 . S
C3455 H3470 0.961 . S
C3455 H3471 0.960 . S
H3456 C3440 0.931 . S
H3457 C3445 0.929 . S
H3458 C3446 0.960 . S
H3459 C3446 0.962 . S
H3460 C3446 0.960 . S
H3461 C3447 0.961 . S
H3462 C3447 0.961 . S
H3463 C3447 0.961 . S
H3464 C3448 0.931 . S
H3465 C3453 0.930 . S
H3466 C3454 0.956 . S
H3467 C3454 0.961 . S
H3468 C3454 0.961 . S
H3469 C3455 0.958 . S
H3470 C3455 0.961 . S
H3471 C3455 0.960 . S
C3472 C3473 1.391 . S
C3472 C3474 1.394 . S
C3472 H3488 0.931 . S
C3473 C3472 1.391 . S
C3473 C3477 1.376 . S
C3474 C3472 1.394 . S
C3474 C3475 1.369 . S
C3474 C3478 1.531 . S
C3475 C3474 1.369 . S
C3475 C3476 1.410 . S
C3475 C3483 1.503 . S
C3476 C3475 1.410 . S
C3476 C3477 1.392 . S
C3476 C3479 1.511 . S
C3477 C3473 1.376 . S
C3477 C3476 1.392 . S
C3477 H3489 0.929 . S
C3478 C3474 1.531 . S
C3478 H3490 0.960 . S
C3478 H3491 0.962 . S
C3478 H3492 0.960 . S
C3479 C3476 1.511 . S
C3479 H3493 0.961 . S
C3479 H3494 0.961 . S
C3479 H3495 0.961 . S
C3480 C3481 1.370 . S
C3480 C3482 1.363 . S
C3480 H3496 0.931 . S
C3481 C3480 1.370 . S
C3481 C3485 1.408 . S
C3482 C3480 1.363 . S
C3482 C3483 1.370 . S
C3482 C3486 1.524 . S
C3483 C3475 1.503 . S
C3483 C3482 1.370 . S
C3483 C3484 1.403 . S
C3484 C3483 1.403 . S
C3484 C3485 1.404 . S
C3484 C3487 1.539 . S
C3485 C3481 1.408 . S
C3485 C3484 1.404 . S
C3485 H3497 0.930 . S
C3486 C3482 1.524 . S
C3486 H3498 0.956 . S
C3486 H3499 0.961 . S
C3486 H3500 0.961 . S
C3487 C3484 1.539 . S
C3487 H3501 0.958 . S
C3487 H3502 0.961 . S
C3487 H3503 0.960 . S
H3488 C3472 0.931 . S
H3489 C3477 0.929 . S
H3490 C3478 0.960 . S
H3491 C3478 0.962 . S
H3492 C3478 0.960 . S
H3493 C3479 0.961 . S
H3494 C3479 0.961 . S
H3495 C3479 0.961 . S
H3496 C3480 0.931 . S
H3497 C3485 0.930 . S
H3498 C3486 0.956 . S
H3499 C3486 0.961 . S
H3500 C3486 0.961 . S
H3501 C3487 0.958 . S
H3502 C3487 0.961 . S
H3503 C3487 0.960 . S
C3504 C3505 1.391 . S
C3504 C3506 1.394 . S
C3504 H3520 0.931 . S
C3505 C3504 1.391 . S
C3505 C3509 1.376 . S
C3506 C3504 1.394 . S
C3506 C3507 1.369 . S
C3506 C3510 1.531 . S
C3507 C3506 1.369 . S
C3507 C3508 1.410 . S
C3507 C3515 1.503 . S
C3508 C3507 1.410 . S
C3508 C3509 1.392 . S
C3508 C3511 1.511 . S
C3509 C3505 1.376 . S
C3509 C3508 1.392 . S
C3509 H3521 0.929 . S
C3510 C3506 1.531 . S
C3510 H3522 0.960 . S
C3510 H3523 0.962 . S
C3510 H3524 0.960 . S
C3511 C3508 1.511 . S
C3511 H3525 0.961 . S
C3511 H3526 0.961 . S
C3511 H3527 0.961 . S
C3512 C3513 1.372 . S
C3512 C3514 1.365 . S
C3512 H3528 0.927 1_565 S
C3513 C3512 1.372 . S
C3513 C3517 1.408 . S
C3514 C3512 1.365 . S
C3514 C3515 1.370 . S
C3514 C3518 1.524 . S
C3515 C3507 1.503 . S
C3515 C3514 1.370 . S
C3515 C3516 1.403 . S
C3516 C3515 1.403 . S
C3516 C3517 1.404 . S
C3516 C3519 1.539 . S
C3517 C3513 1.408 . S
C3517 C3516 1.404 . S
C3517 H3529 0.930 . S
C3518 C3514 1.524 . S
C3518 H3530 0.956 . S
C3518 H3531 0.961 . S
C3518 H3532 0.961 1_565 S
C3519 C3516 1.539 . S
C3519 H3533 0.958 . S
C3519 H3534 0.961 . S
C3519 H3535 0.960 . S
H3520 C3504 0.931 . S
H3521 C3509 0.929 . S
H3522 C3510 0.960 . S
H3523 C3510 0.962 . S
H3524 C3510 0.960 . S
H3525 C3511 0.961 . S
H3526 C3511 0.961 . S
H3527 C3511 0.961 . S
H3528 C3512 0.927 1_545 S
H3529 C3517 0.930 . S
H3530 C3518 0.956 . S
H3531 C3518 0.961 . S
H3532 C3518 0.961 1_545 S
H3533 C3519 0.958 . S
H3534 C3519 0.961 . S
H3535 C3519 0.960 . S
C3536 C3537 1.391 . S
C3536 C3538 1.394 . S
C3536 H3552 0.931 . S
C3537 C3536 1.391 . S
C3537 C3541 1.376 . S
C3538 C3536 1.394 . S
C3538 C3539 1.369 . S
C3538 C3542 1.531 . S
C3539 C3538 1.369 . S
C3539 C3540 1.410 . S
C3539 C3547 1.503 . S
C3540 C3539 1.410 . S
C3540 C3541 1.392 . S
C3540 C3543 1.511 . S
C3541 C3537 1.376 . S
C3541 C3540 1.392 . S
C3541 H3553 0.929 . S
C3542 C3538 1.531 . S
C3542 H3554 0.960 . S
C3542 H3555 0.962 . S
C3542 H3556 0.960 . S
C3543 C3540 1.511 . S
C3543 H3557 0.961 . S
C3543 H3558 0.961 . S
C3543 H3559 0.961 . S
C3544 C3545 1.370 . S
C3544 C3546 1.363 . S
C3544 H3560 0.931 . S
C3545 C3544 1.370 . S
C3545 C3549 1.408 . S
C3546 C3544 1.363 . S
C3546 C3547 1.370 . S
C3546 C3550 1.524 . S
C3547 C3539 1.503 . S
C3547 C3546 1.370 . S
C3547 C3548 1.403 . S
C3548 C3547 1.403 . S
C3548 C3549 1.404 . S
C3548 C3551 1.539 . S
C3549 C3545 1.408 . S
C3549 C3548 1.404 . S
C3549 H3561 0.930 . S
C3550 C3546 1.524 . S
C3550 H3562 0.956 . S
C3550 H3563 0.961 . S
C3550 H3564 0.961 . S
C3551 C3548 1.539 . S
C3551 H3565 0.958 . S
C3551 H3566 0.961 . S
C3551 H3567 0.960 . S
H3552 C3536 0.931 . S
H3553 C3541 0.929 . S
H3554 C3542 0.960 . S
H3555 C3542 0.962 . S
H3556 C3542 0.960 . S
H3557 C3543 0.961 . S
H3558 C3543 0.961 . S
H3559 C3543 0.961 . S
H3560 C3544 0.931 . S
H3561 C3549 0.930 . S
H3562 C3550 0.956 . S
H3563 C3550 0.961 . S
H3564 C3550 0.961 . S
H3565 C3551 0.958 . S
H3566 C3551 0.961 . S
H3567 C3551 0.960 . S
C3568 C3569 1.391 . S
C3568 C3570 1.394 . S
C3568 H3584 0.931 . S
C3569 C3568 1.391 . S
C3569 C3573 1.376 1_556 S
C3570 C3568 1.394 . S
C3570 C3571 1.369 1_556 S
C3570 C3574 1.531 . S
C3571 C3570 1.369 1_554 S
C3571 C3572 1.410 . S
C3571 C3579 1.503 . S
C3572 C3571 1.410 . S
C3572 C3573 1.392 . S
C3572 C3575 1.511 . S
C3573 C3569 1.376 1_554 S
C3573 C3572 1.392 . S
C3573 H3585 0.929 . S
C3574 C3570 1.531 . S
C3574 H3586 0.960 . S
C3574 H3587 0.962 . S
C3574 H3588 0.960 . S
C3575 C3572 1.511 . S
C3575 H3589 0.961 . S
C3575 H3590 0.961 . S
C3575 H3591 0.961 . S
C3576 C3577 1.370 . S
C3576 C3578 1.364 1_554 S
C3576 H3592 0.931 1_554 S
C3577 C3576 1.370 . S
C3577 C3581 1.408 . S
C3578 C3576 1.364 1_556 S
C3578 C3579 1.371 1_556 S
C3578 C3582 1.523 . S
C3579 C3571 1.503 . S
C3579 C3578 1.371 1_554 S
C3579 C3580 1.403 . S
C3580 C3579 1.403 . S
C3580 C3581 1.404 . S
C3580 C3583 1.539 . S
C3581 C3577 1.408 . S
C3581 C3580 1.404 . S
C3581 H3593 0.930 . S
C3582 C3578 1.523 . S
C3582 H3594 0.956 . S
C3582 H3595 0.961 1_556 S
C3582 H3596 0.961 . S
C3583 C3580 1.539 . S
C3583 H3597 0.941 1_554 S
C3583 H3598 0.961 . S
C3583 H3599 0.960 . S
H3584 C3568 0.931 . S
H3585 C3573 0.929 . S
H3586 C3574 0.960 . S
H3587 C3574 0.962 . S
H3588 C3574 0.960 . S
H3589 C3575 0.961 . S
H3590 C3575 0.961 . S
H3591 C3575 0.961 . S
H3592 C3576 0.931 1_556 S
H3593 C3581 0.930 . S
H3594 C3582 0.956 . S
H3595 C3582 0.961 1_554 S
H3596 C3582 0.961 . S
H3597 C3583 0.941 1_556 S
H3598 C3583 0.961 . S
H3599 C3583 0.960 . S
C3600 C3601 1.391 . S
C3600 C3602 1.394 . S
C3600 H3616 0.931 . S
C3601 C3600 1.391 . S
C3601 C3605 1.376 . S
C3602 C3600 1.394 . S
C3602 C3603 1.369 . S
C3602 C3606 1.531 . S
C3603 C3602 1.369 . S
C3603 C3604 1.410 . S
C3603 C3611 1.503 . S
C3604 C3603 1.410 . S
C3604 C3605 1.392 . S
C3604 C3607 1.511 . S
C3605 C3601 1.376 . S
C3605 C3604 1.392 . S
C3605 H3617 0.929 . S
C3606 C3602 1.531 . S
C3606 H3618 0.960 . S
C3606 H3619 0.962 . S
C3606 H3620 0.960 . S
C3607 C3604 1.511 . S
C3607 H3621 0.961 . S
C3607 H3622 0.961 . S
C3607 H3623 0.961 . S
C3608 C3609 1.370 . S
C3608 C3610 1.363 . S
C3608 H3624 0.931 . S
C3609 C3608 1.370 . S
C3609 C3613 1.408 . S
C3610 C3608 1.363 . S
C3610 C3611 1.370 . S
C3610 C3614 1.524 . S
C3611 C3603 1.503 . S
C3611 C3610 1.370 . S
C3611 C3612 1.403 . S
C3612 C3611 1.403 . S
C3612 C3613 1.404 . S
C3612 C3615 1.539 . S
C3613 C3609 1.408 . S
C3613 C3612 1.404 . S
C3613 H3625 0.930 . S
C3614 C3610 1.524 . S
C3614 H3626 0.956 . S
C3614 H3627 0.961 . S
C3614 H3628 0.961 . S
C3615 C3612 1.539 . S
C3615 H3629 0.958 . S
C3615 H3630 0.961 . S
C3615 H3631 0.960 . S
H3616 C3600 0.931 . S
H3617 C3605 0.929 . S
H3618 C3606 0.960 . S
H3619 C3606 0.962 . S
H3620 C3606 0.960 . S
H3621 C3607 0.961 . S
H3622 C3607 0.961 . S
H3623 C3607 0.961 . S
H3624 C3608 0.931 . S
H3625 C3613 0.930 . S
H3626 C3614 0.956 . S
H3627 C3614 0.961 . S
H3628 C3614 0.961 . S
H3629 C3615 0.958 . S
H3630 C3615 0.961 . S
H3631 C3615 0.960 . S
C3632 C3633 1.391 1_556 S
C3632 C3634 1.394 . S
C3632 H3648 0.931 . S
C3633 C3632 1.391 1_554 S
C3633 C3637 1.376 . S
C3634 C3632 1.394 . S
C3634 C3635 1.389 . S
C3634 C3638 1.531 . S
C3635 C3634 1.389 . S
C3635 C3636 1.383 1_556 S
C3635 C3643 1.508 . S
C3636 C3635 1.383 1_554 S
C3636 C3637 1.392 . S
C3636 C3639 1.511 . S
C3637 C3633 1.376 . S
C3637 C3636 1.392 . S
C3637 H3649 0.929 . S
C3638 C3634 1.531 . S
C3638 H3650 0.960 . S
C3638 H3651 0.962 . S
C3638 H3652 0.960 . S
C3639 C3636 1.511 . S
C3639 H3653 0.961 . S
C3639 H3654 0.961 . S
C3639 H3655 0.961 . S
C3640 C3641 1.370 1_554 S
C3640 C3642 1.363 . S
C3640 H3656 0.931 . S
C3641 C3640 1.370 1_556 S
C3641 C3645 1.408 . S
C3642 C3640 1.363 . S
C3642 C3643 1.370 1_554 S
C3642 C3646 1.524 . S
C3643 C3635 1.508 . S
C3643 C3642 1.370 1_556 S
C3643 C3644 1.403 . S
C3644 C3643 1.403 . S
C3644 C3645 1.404 . S
C3644 C3647 1.539 . S
C3645 C3641 1.408 . S
C3645 C3644 1.404 . S
C3645 H3657 0.930 . S
C3646 C3642 1.524 . S
C3646 H3658 0.956 . S
C3646 H3659 0.961 . S
C3646 H3660 0.961 . S
C3647 C3644 1.539 . S
C3647 H3661 0.958 . S
C3647 H3662 0.961 . S
C3647 H3663 0.960 . S
H3648 C3632 0.931 . S
H3649 C3637 0.929 . S
H3650 C3638 0.960 . S
H3651 C3638 0.962 . S
H3652 C3638 0.960 . S
H3653 C3639 0.961 . S
H3654 C3639 0.961 . S
H3655 C3639 0.961 . S
H3656 C3640 0.931 . S
H3657 C3645 0.930 . S
H3658 C3646 0.956 . S
H3659 C3646 0.961 . S
H3660 C3646 0.961 . S
H3661 C3647 0.958 . S
H3662 C3647 0.961 . S
H3663 C3647 0.960 . S
C3664 C3665 1.391 . S
C3664 C3666 1.394 . S
C3664 H3680 0.931 . S
C3665 C3664 1.391 . S
C3665 C3669 1.376 . S
C3666 C3664 1.394 . S
C3666 C3667 1.369 . S
C3666 C3670 1.531 . S
C3667 C3666 1.369 . S
C3667 C3668 1.410 . S
C3667 C3675 1.503 . S
C3668 C3667 1.410 . S
C3668 C3669 1.392 . S
C3668 C3671 1.511 . S
C3669 C3665 1.376 . S
C3669 C3668 1.392 . S
C3669 H3681 0.929 . S
C3670 C3666 1.531 . S
C3670 H3682 0.960 . S
C3670 H3683 0.962 . S
C3670 H3684 0.960 . S
C3671 C3668 1.511 . S
C3671 H3685 0.961 . S
C3671 H3686 0.961 . S
C3671 H3687 0.961 . S
C3672 C3673 1.370 . S
C3672 C3674 1.363 . S
C3672 H3688 0.931 . S
C3673 C3672 1.370 . S
C3673 C3677 1.408 . S
C3674 C3672 1.363 . S
C3674 C3675 1.370 . S
C3674 C3678 1.524 . S
C3675 C3667 1.503 . S
C3675 C3674 1.370 . S
C3675 C3676 1.403 . S
C3676 C3675 1.403 . S
C3676 C3677 1.404 . S
C3676 C3679 1.539 . S
C3677 C3673 1.408 . S
C3677 C3676 1.404 . S
C3677 H3689 0.930 . S
C3678 C3674 1.524 . S
C3678 H3690 0.956 . S
C3678 H3691 0.961 . S
C3678 H3692 0.961 . S
C3679 C3676 1.539 . S
C3679 H3693 0.958 . S
C3679 H3694 0.961 . S
C3679 H3695 0.960 . S
H3680 C3664 0.931 . S
H3681 C3669 0.929 . S
H3682 C3670 0.960 . S
H3683 C3670 0.962 . S
H3684 C3670 0.960 . S
H3685 C3671 0.961 . S
H3686 C3671 0.961 . S
H3687 C3671 0.961 . S
H3688 C3672 0.931 . S
H3689 C3677 0.930 . S
H3690 C3678 0.956 . S
H3691 C3678 0.961 . S
H3692 C3678 0.961 . S
H3693 C3679 0.958 . S
H3694 C3679 0.961 . S
H3695 C3679 0.960 . S
C3696 C3697 1.391 . S
C3696 C3698 1.394 . S
C3696 H3712 0.931 . S
C3697 C3696 1.391 . S
C3697 C3701 1.376 . S
C3698 C3696 1.394 . S
C3698 C3699 1.369 . S
C3698 C3702 1.531 . S
C3699 C3698 1.369 . S
C3699 C3700 1.410 . S
C3699 C3707 1.503 . S
C3700 C3699 1.410 . S
C3700 C3701 1.392 . S
C3700 C3703 1.511 . S
C3701 C3697 1.376 . S
C3701 C3700 1.392 . S
C3701 H3713 0.929 . S
C3702 C3698 1.531 . S
C3702 H3714 0.960 . S
C3702 H3715 0.962 . S
C3702 H3716 0.960 . S
C3703 C3700 1.511 . S
C3703 H3717 0.961 . S
C3703 H3718 0.961 . S
C3703 H3719 0.961 . S
C3704 C3705 1.370 . S
C3704 C3706 1.363 . S
C3704 H3720 0.931 . S
C3705 C3704 1.370 . S
C3705 C3709 1.408 . S
C3706 C3704 1.363 . S
C3706 C3707 1.370 . S
C3706 C3710 1.524 . S
C3707 C3699 1.503 . S
C3707 C3706 1.370 . S
C3707 C3708 1.403 . S
C3708 C3707 1.403 . S
C3708 C3709 1.404 . S
C3708 C3711 1.539 . S
C3709 C3705 1.408 . S
C3709 C3708 1.404 . S
C3709 H3721 0.930 . S
C3710 C3706 1.524 . S
C3710 H3722 0.956 . S
C3710 H3723 0.961 . S
C3710 H3724 0.961 . S
C3711 C3708 1.539 . S
C3711 H3725 0.958 . S
C3711 H3726 0.961 . S
C3711 H3727 0.960 . S
H3712 C3696 0.931 . S
H3713 C3701 0.929 . S
H3714 C3702 0.960 . S
H3715 C3702 0.962 . S
H3716 C3702 0.960 . S
H3717 C3703 0.961 . S
H3718 C3703 0.961 . S
H3719 C3703 0.961 . S
H3720 C3704 0.931 . S
H3721 C3709 0.930 . S
H3722 C3710 0.956 . S
H3723 C3710 0.961 . S
H3724 C3710 0.961 . S
H3725 C3711 0.958 . S
H3726 C3711 0.961 . S
H3727 C3711 0.960 . S
C657 C109 1.518 . S
C665 C354 1.510 1_556 S
C689 C65 1.613 . S
C697 C365 1.616 . S
C721 C75 1.025 . S
C729 C394 1.021 . S
C761 C397 1.463 . S
C753 C84 1.473 . S
C785 C25 1.587 . S
C793 C435 1.549 . S
C825 C438 0.967 . S
C817 C28 0.985 . S
C857 C465 1.496 . S
C849 C47 1.494 . S
C881 C9 1.677 . S
C889 C494 1.623 . S
C921 C345 1.616 1_655 S
C913 C233 1.623 . S
C945 C249 0.829 . S
C953 C357 0.849 . S
C985 C385 1.612 . S
C977 C275 1.610 . S
C1017 C414 1.118 . S
C1009 C173 1.127 . S
C1041 C224 1.066 . S
C1049 C418 1.060 . S
C1081 C444 1.601 . S
C1073 C243 1.631 . S
C1113 C457 0.752 . S
C1105 C266 0.790 . S
C1145 C485 1.537 . S
C1137 C179 1.540 . S
C1177 C337 1.538 1_565 S
C1169 C163 1.566 . S
C1201 C289 1.723 . S
C1209 C504 1.695 1_554 S
C1241 C535 1.496 . S
C1233 C333 1.520 . S
C1273 C554 0.911 . S
C1265 C308 0.887 . S
C1297 C123 1.384 . S
C1305 C477 1.360 . S
C1329 C126 1.487 . S
C1337 C377 1.526 . S
C1361 C327 1.598 . S
C1369 C565 1.601 . S
C1401 C594 0.965 . S
C1393 C299 1.022 . S
C1433 C355 1.507 . S
C1425 C67 1.564 . S
C1465 C584 1.630 . S
C1457 C98 1.590 . S
C1489 C89 1.048 . S
C1497 C395 1.044 . S
C1521 C79 1.508 . S
C1529 C558 1.496 . S
C1561 C434 1.587 . S
C1553 C11 1.620 . S
C1585 C51 0.993 . S
C1593 C517 0.983 . S
C1625 C464 1.526 1_556 S
C1617 C33 1.520 . S
C1657 C615 1.625 . S
C1649 C14 1.666 . S
C1689 C344 1.599 . S
C1681 C140 1.600 . S
C1721 C578 0.853 . S
C1713 C319 0.854 . S
C1745 C112 1.619 . S
C1753 C384 1.618 . S
C1777 C285 1.158 . S
C1785 C575 1.142 . S
C1809 C149 1.098 . S
C1817 C417 1.090 . S
C1849 C525 1.643 . S
C1841 C313 1.651 . S
C1873 C121 0.812 . S
C1881 C458 0.796 . S
C1905 C291 1.566 . S
C1913 C604 1.565 . S
C1937 C182 1.559 . S
C1945 C338 1.536 . S
C1969 C168 1.708 . S
C1977 C505 1.719 . S
C2001 C263 1.577 . S
C2009 C454 1.515 . S
C2033 C247 0.961 . S
C2041 C555 0.956 . S
C2073 C598 1.371 . S
C2065 C277 1.361 . S
C2097 C219 1.545 . S
C2105 C378 1.542 . S
C2137 C404 1.636 . S
C2129 C257 1.646 . S
C2169 C375 0.993 . S
C2161 C201 0.986 . S
C2193 C81 1.543 . S
C2201 C634 1.485 . S
C2233 C585 1.613 . S
C2225 C93 1.610 . S
C2257 C103 1.040 . S
C2265 C654 1.011 . S
C2289 C56 1.451 . S
C2297 C557 1.460 . S
C2321 C53 1.607 . S
C2329 C515 1.559 . S
C2361 C518 0.967 . S
C2353 C0 0.912 . S
C2393 C545 1.490 . S
C2385 C19 1.478 . S
C2425 C614 1.614 . S
C2417 C37 1.693 . S
C2457 C625 1.622 . S
C2449 C261 1.621 . S
C2481 C193 0.861 . S
C2489 C577 0.874 . S
C2521 C645 1.606 . S
C2513 C205 1.615 . S
C2553 C574 1.117 . S
C2545 C215 1.130 . S
C2585 C498 1.064 . S
C2577 C252 1.081 . S
C2609 C187 1.618 . S
C2617 C524 1.612 . S
C2649 C537 0.755 . S
C2641 C196 0.723 . S
C2673 C221 1.551 . S
C2681 C605 1.544 . S
C2713 C617 1.538 . S
C2705 C317 1.567 . S
C2737 C135 1.724 . S
C2745 C424 1.696 . S
C2777 C455 1.479 . S
C2769 C151 1.556 . S
C2809 C474 0.878 . S
C2801 C154 0.923 . S
C2841 C597 1.358 . S
C2833 C305 1.345 . S
C2865 C280 1.499 . S
C2873 C637 1.511 . S
C2905 C405 1.600 . S
C2897 C145 1.592 . S
C2937 C374 0.977 . S
C2929 C117 1.015 . S
C2961 C95 1.563 . S
C2969 C635 1.509 . S
C3001 C364 1.630 . S
C2993 C70 1.591 . S
C3025 C61 1.065 . S
C3033 C655 1.030 . S
C3057 C107 1.506 . S
C3065 C398 1.496 . S
C3089 C39 1.630 . S
C3097 C514 1.581 . S
C3129 C437 0.974 . S
C3121 C23 0.971 . S
C3153 C5 1.523 . S
C3161 C544 1.532 . S
C3185 C42 1.683 . S
C3193 C495 1.607 . S
C3225 C624 1.592 . S
C3217 C322 1.573 . S
C3249 C165 0.893 . S
C3257 C358 0.867 . S
C3289 C644 1.619 1_655 S
C3281 C294 1.622 . S
C3313 C131 1.134 . S
C3321 C415 1.136 . S
C3345 C331 1.078 . S
C3353 C497 1.082 . S
C3385 C445 1.635 . S
C3377 C159 1.660 . S
C3409 C303 0.802 . S
C3417 C538 0.824 . S
C3449 C484 1.570 . S
C3441 C137 1.575 . S
C3481 C618 1.544 . S
C3473 C238 1.560 . S
C3513 C425 1.712 1_565 S
C3505 C210 1.727 . S
C3537 C235 1.591 . S
C3545 C534 1.525 . S
C3577 C475 0.956 . S
C3569 C191 0.963 . S
C3601 C207 1.370 . S
C3609 C478 1.370 . S
C3633 C177 1.549 . S
C3641 C638 1.541 . S
C3673 C564 1.628 . S
C3665 C229 1.636 . S
C3705 C595 0.964 . S
C3697 C271 1.005 . S
