# Generated by pormake.
# Topology anh, (6,3)-cn, num edge types: 1
# Building blocks:
#     Node 0, Type 0, BuildingBlock: INOVEN_clean_sbu_0, # of connection points: 6
#     Node 1, Type 0, BuildingBlock: INOVEN_clean_sbu_0, # of connection points: 6
#     Node 2, Type 0, BuildingBlock: INOVEN_clean_sbu_0, # of connection points: 6
#     Node 3, Type 1, BuildingBlock: WUSLED_clean_sbu_0, # of connection points: 3
#     Node 4, Type 1, BuildingBlock: WUSLED_clean_sbu_0, # of connection points: 3
#     Node 5, Type 1, BuildingBlock: WUSLED_clean_sbu_0, # of connection points: 3
#     Node 6, Type 1, BuildingBlock: WUSLED_clean_sbu_0, # of connection points: 3
#     Node 7, Type 1, BuildingBlock: WUSLED_clean_sbu_0, # of connection points: 3
#     Node 8, Type 1, BuildingBlock: WUSLED_clean_sbu_0, # of connection points: 3
#     Edge 9, Type (0, 1), BuildingBlock: UVAHIK_clean_linker_0, # of connection points: 2
#     Edge 10, Type (0, 1), BuildingBlock: UVAHIK_clean_linker_0, # of connection points: 2
#     Edge 11, Type (0, 1), BuildingBlock: UVAHIK_clean_linker_0, # of connection points: 2
#     Edge 12, Type (0, 1), BuildingBlock: UVAHIK_clean_linker_0, # of connection points: 2
#     Edge 13, Type (0, 1), BuildingBlock: UVAHIK_clean_linker_0, # of connection points: 2
#     Edge 14, Type (0, 1), BuildingBlock: UVAHIK_clean_linker_0, # of connection points: 2
#     Edge 15, Type (0, 1), BuildingBlock: UVAHIK_clean_linker_0, # of connection points: 2
#     Edge 16, Type (0, 1), BuildingBlock: UVAHIK_clean_linker_0, # of connection points: 2
#     Edge 17, Type (0, 1), BuildingBlock: UVAHIK_clean_linker_0, # of connection points: 2
#     Edge 18, Type (0, 1), BuildingBlock: UVAHIK_clean_linker_0, # of connection points: 2
#     Edge 19, Type (0, 1), BuildingBlock: UVAHIK_clean_linker_0, # of connection points: 2
#     Edge 20, Type (0, 1), BuildingBlock: UVAHIK_clean_linker_0, # of connection points: 2
#     Edge 21, Type (0, 1), BuildingBlock: UVAHIK_clean_linker_0, # of connection points: 2
#     Edge 22, Type (0, 1), BuildingBlock: UVAHIK_clean_linker_0, # of connection points: 2
#     Edge 23, Type (0, 1), BuildingBlock: UVAHIK_clean_linker_0, # of connection points: 2
#     Edge 24, Type (0, 1), BuildingBlock: UVAHIK_clean_linker_0, # of connection points: 2
#     Edge 25, Type (0, 1), BuildingBlock: UVAHIK_clean_linker_0, # of connection points: 2
#     Edge 26, Type (0, 1), BuildingBlock: UVAHIK_clean_linker_0, # of connection points: 2
# Relax obj value: 0.152
# Max RMSD: 0.196
# Mean RMSD: 0.145
data_MOF--net-anh--node1-INOVEN_clean_sbu_0--node2-WUSLED_clean_sbu_0--edge1-UVAHIK_clean_linker_0
_symmetry_space_group_name_H-M    P1
_symmetry_Int_Tables_number       1
_symmetry_cell_setting            triclinic
loop_
_symmetry_equiv_pos_as_xyz
'x, y, z'
_cell_length_a     50.212817
_cell_length_b     55.314607
_cell_length_c     85.278893
_cell_angle_alpha  92.748472
_cell_angle_beta   89.869343
_cell_angle_gamma 126.86979
loop_
_atom_site_label
_atom_site_type_symbol
_atom_site_fract_x
_atom_site_fract_y
_atom_site_fract_z
_atom_type_partial_charge
Gd0 Gd 0.05946 0.49456 0.16965 0.0
Gd1 Gd 0.03165 0.52178 0.17023 0.0
C2 C 0.10776 0.5687 0.1733 0.0
C3 C 0.09601 0.47782 0.16372 0.0
C4 C 0.13171 0.49439 0.16573 0.0
C5 C 0.14561 0.49502 0.18014 0.0
C6 C 0.15227 0.51019 0.15322 0.0
C7 C 0.19936 0.52299 0.16864 0.0
C8 C 0.1861 0.52457 0.15471 0.0
C9 C 0.17949 0.5094 0.18159 0.0
C10 C 0.04376 0.49839 0.19974 0.0
C11 C 0.98322 0.44872 0.16958 0.0
C12 C 0.99509 0.5388 0.17464 0.0
C13 C 0.96026 0.52051 0.17824 0.0
C14 C 0.93593 0.49959 0.16687 0.0
C15 C 0.95132 0.52265 0.19352 0.0
C16 C 0.89403 0.48739 0.18529 0.0
C17 C 0.91813 0.50592 0.19707 0.0
C18 C 0.90273 0.48306 0.17041 0.0
C19 C 0.04895 0.5183 0.14039 0.0
O20 O 0.1064 0.54427 0.17028 0.0
O21 O 0.08026 0.56574 0.1752 0.0
O22 O 0.07952 0.47142 0.17661 0.0
O23 O 0.08659 0.48757 0.15301 0.0
O24 O 0.03767 0.47423 0.19273 0.0
O25 O 0.05754 0.5197 0.19045 0.0
O26 O 0.98673 0.47346 0.17452 0.0
O27 O 1.00918 0.45138 0.16423 0.0
O28 O 1.00196 0.53397 0.16061 0.0
O29 O 1.01436 0.54099 0.18575 0.0
O30 O 0.0572 0.5429 0.14784 0.0
O31 O 0.0335 0.49661 0.14944 0.0
H32 H 0.13026 0.48335 0.19003 0.0
H33 H 0.14213 0.51037 0.14207 0.0
H34 H 0.20144 0.53465 0.1446 0.0
H35 H 0.1896 0.50751 0.19229 0.0
H36 H 0.9423 0.4969 0.15509 0.0
H37 H 0.96992 0.5381 0.20252 0.0
H38 H 0.91118 0.50959 0.20849 0.0
H39 H 0.88399 0.46926 0.16114 0.0
Gd40 Gd 0.55473 1.00257 0.49525 0.0
Gd41 Gd 0.51715 0.02718 0.49484 0.0
C42 C 0.473 0.95642 0.49261 0.0
C43 C 0.57588 0.97118 0.50114 0.0
C44 C 0.56299 0.93908 0.5014 0.0
C45 C 0.56276 0.92347 0.48781 0.0
C46 C 0.55364 0.92462 0.51563 0.0
C47 C 0.54666 0.88062 0.50299 0.0
C48 C 0.54562 0.89579 0.51643 0.0
C49 C 0.55458 0.89454 0.48859 0.0
C50 C 0.54721 0.01538 0.46624 0.0
C51 C 0.59851 0.07363 0.49584 0.0
C52 C 0.49703 0.05961 0.48963 0.0
C53 C 0.51026 0.09179 0.49167 0.0
C54 C 0.51329 0.10529 0.50661 0.0
C55 C 0.51795 0.10877 0.47841 0.0
C56 C 0.52902 0.15126 0.49485 0.0
C57 C 0.52723 0.1382 0.47998 0.0
C58 C 0.52254 0.13469 0.50817 0.0
C59 C 0.52649 0.01516 0.52395 0.0
O60 O 0.50108 0.96042 0.49616 0.0
O61 O 0.47278 0.9794 0.48958 0.0
O62 O 0.57825 0.98189 0.48746 0.0
O63 O 0.56576 0.98124 0.512 0.0
O64 O 0.57441 0.02075 0.47178 0.0
O65 O 0.52447 1.00267 0.47619 0.0
O66 O 0.56997 0.06869 0.49241 0.0
O67 O 0.59937 0.05124 0.49962 0.0
O68 O 0.49038 0.04482 0.50233 0.0
O69 O 0.51055 0.05276 0.47892 0.0
O70 O 0.49944 0.01071 0.51902 0.0
O71 O 0.54825 0.02768 0.51364 0.0
H72 H 0.5698 0.93391 0.47664 0.0
H73 H 0.55367 0.93603 0.52633 0.0
H74 H 0.54005 0.88602 0.52776 0.0
H75 H 0.55503 0.8833 0.47796 0.0
H76 H 0.50765 0.09292 0.5171 0.0
H77 H 0.51601 0.099 0.46676 0.0
H78 H 0.53257 0.15058 0.46952 0.0
H79 H 0.52339 0.144 0.51979 0.0
Gd80 Gd 0.59728 0.56822 0.84319 0.0
Gd81 Gd 0.55494 0.50241 0.8429 0.0
C82 C 0.51432 0.53136 0.84702 0.0
C83 C 0.62162 0.62281 0.83643 0.0
C84 C 0.61029 0.64213 0.83634 0.0
C85 C 0.62136 0.66489 0.84831 0.0
C86 C 0.58982 0.63914 0.824 0.0
C87 C 0.59304 0.6822 0.83521 0.0
C88 C 0.58138 0.65899 0.82342 0.0
C89 C 0.61272 0.68462 0.84778 0.0
C90 C 0.58814 0.54692 0.87152 0.0
C91 C 0.63842 0.53986 0.84476 0.0
C92 C 0.52922 0.44646 0.84729 0.0
C93 C 0.53891 0.42593 0.84538 0.0
C94 C 0.54336 0.41714 0.83043 0.0
C95 C 0.54182 0.41347 0.85864 0.0
C96 C 0.55134 0.38242 0.84204 0.0
C97 C 0.54794 0.39194 0.857 0.0
C98 C 0.54952 0.39562 0.82879 0.0
C99 C 0.5619 0.52324 0.81414 0.0
O100 O 0.54432 0.55734 0.84485 0.0
O101 O 0.51205 0.50614 0.84782 0.0
O102 O 0.62612 0.616 0.85016 0.0
O103 O 0.60801 0.60009 0.8259 0.0
O104 O 0.61627 0.57115 0.86747 0.0
O105 O 0.56583 0.53648 0.86098 0.0
O106 O 0.60785 0.5139 0.84556 0.0
O107 O 0.64126 0.56502 0.84251 0.0
O108 O 0.52409 0.4554 0.83449 0.0
O109 O 0.54464 0.46795 0.85849 0.0
O110 O 0.53432 0.50039 0.81944 0.0
O111 O 0.58554 0.53411 0.82426 0.0
H112 H 0.63714 0.66777 0.85798 0.0
H113 H 0.58087 0.6219 0.81456 0.0
H114 H 0.56655 0.65668 0.81344 0.0
H115 H 0.62167 0.7019 0.8572 0.0
H116 H 0.54134 0.42629 0.81994 0.0
H117 H 0.53864 0.41993 0.87029 0.0
H118 H 0.5497 0.3825 0.86744 0.0
H119 H 0.55173 0.38857 0.81709 0.0
C120 C 0.61274 0.0933 0.19613 0.0
C121 C 0.62693 0.11546 0.20864 0.0
C122 C 0.67274 0.15198 0.19219 0.0
C123 C 0.65661 0.14454 0.20668 0.0
C124 C 0.65806 0.12963 0.17974 0.0
C125 C 0.62856 0.10075 0.18171 0.0
U126 U 0.5418 0.02545 0.21904 0.0
O127 O 0.48832 0.99354 0.21192 0.0
O128 O 0.51847 0.97664 0.21467 0.0
C129 C 0.48942 0.97035 0.21102 0.0
C130 C 0.58156 0.06233 0.19754 0.0
C131 C 0.45979 0.93919 0.20647 0.0
C132 C 0.41653 0.90224 0.18718 0.0
C133 C 0.44401 0.93207 0.19159 0.0
C134 C 0.41975 0.88647 0.21263 0.0
C135 C 0.40402 0.87891 0.19764 0.0
C136 C 0.44741 0.91613 0.21692 0.0
C137 C 0.54952 0.03953 0.2653 0.0
C138 C 0.5224 0.00595 0.28679 0.0
C139 C 0.56358 0.05985 0.29238 0.0
C140 C 0.56757 0.06415 0.27632 0.0
C141 C 0.54139 0.0307 0.29788 0.0
C142 C 0.52657 0.01031 0.27057 0.0
C143 C 0.55739 0.04567 0.24863 0.0
O144 O 0.58453 0.04273 0.20372 0.0
O145 O 0.55532 0.06013 0.20234 0.0
O146 O 0.53776 0.04822 0.23989 0.0
O147 O 0.56835 0.03203 0.24118 0.0
H148 H 0.61518 0.11025 0.2199 0.0
H149 H 0.66721 0.16099 0.21658 0.0
H150 H 0.66919 0.13451 0.16834 0.0
H151 H 0.61799 0.08412 0.17187 0.0
H152 H 0.40548 0.8974 0.17549 0.0
H153 H 0.45332 0.94948 0.18327 0.0
H154 H 0.41053 0.86947 0.22119 0.0
H155 H 0.45901 0.92111 0.2285 0.0
H156 H 0.50513 0.98319 0.29063 0.0
H157 H 0.57809 0.0795 0.30051 0.0
H158 H 0.58539 0.08687 0.27249 0.0
H159 H 0.51244 0.99097 0.26223 0.0
C160 C 0.53381 0.57065 0.54014 0.0
C161 C 0.53414 0.58871 0.5524 0.0
C162 C 0.53362 0.61993 0.53336 0.0
C163 C 0.53403 0.61317 0.54903 0.0
C164 C 0.53323 0.60165 0.52117 0.0
C165 C 0.53336 0.57727 0.52455 0.0
U166 U 0.53874 0.52183 0.56844 0.0
O167 O 0.51219 0.47249 0.56759 0.0
O168 O 0.56693 0.50317 0.56667 0.0
C169 C 0.53989 0.47505 0.56652 0.0
C170 C 0.53438 0.5451 0.54334 0.0
C171 C 0.53917 0.45263 0.55621 0.0
C172 C 0.54236 0.43228 0.53091 0.0
C173 C 0.54083 0.45354 0.53976 0.0
C174 C 0.53979 0.40921 0.55489 0.0
C175 C 0.54267 0.4104 0.53852 0.0
C176 C 0.53812 0.43009 0.56359 0.0
C177 C 0.54687 0.54297 0.61317 0.0
C178 C 0.53896 0.51312 0.63528 0.0
C179 C 0.56491 0.56663 0.63958 0.0
C180 C 0.56153 0.56858 0.62353 0.0
C181 C 0.5536 0.53892 0.64569 0.0
C182 C 0.53577 0.51515 0.61911 0.0
C183 C 0.54304 0.54631 0.59642 0.0
O184 O 0.56274 0.55253 0.54919 0.0
O185 O 0.50823 0.5227 0.55032 0.0
O186 O 0.51455 0.52487 0.58921 0.0
O187 O 0.56898 0.55586 0.58778 0.0
H188 H 0.53465 0.58396 0.56453 0.0
H189 H 0.53474 0.62702 0.55868 0.0
H190 H 0.53242 0.60595 0.50899 0.0
H191 H 0.53309 0.56354 0.51496 0.0
H192 H 0.54441 0.43351 0.51827 0.0
H193 H 0.54156 0.47083 0.53386 0.0
H194 H 0.53928 0.39224 0.56103 0.0
H195 H 0.53666 0.42898 0.57625 0.0
H196 H 0.53025 0.4915 0.63962 0.0
H197 H 0.57584 0.58681 0.64727 0.0
H198 H 0.57013 0.59019 0.6192 0.0
H199 H 0.52451 0.49507 0.6113 0.0
C200 C 0.99701 0.53572 0.87161 0.0
C201 C 0.96742 0.51699 0.88008 0.0
C202 C 0.93835 0.5362 0.86766 0.0
C203 C 0.93903 0.51722 0.87815 0.0
C204 C 0.96806 0.55488 0.85928 0.0
C205 C 0.99618 0.5545 0.86113 0.0
U206 U 0.07287 0.53124 0.88691 0.0
O207 O 0.09139 0.50735 0.87448 0.0
O208 O 0.12492 0.55619 0.87825 0.0
C209 C 0.12176 0.53199 0.87261 0.0
C210 C 0.02743 0.53454 0.87198 0.0
C211 C 0.15236 0.53115 0.87202 0.0
C212 C 0.18952 0.52456 0.8558 0.0
C213 C 0.16109 0.52447 0.85751 0.0
C214 C 0.20278 0.53793 0.88323 0.0
C215 C 0.21174 0.53128 0.86855 0.0
C216 C 0.17419 0.53799 0.88489 0.0
C217 C 0.06782 0.52496 0.93499 0.0
C218 C 0.09372 0.5289 0.9602 0.0
C219 C 0.03814 0.5152 0.95944 0.0
C220 C 0.03931 0.51684 0.943 0.0
C221 C 0.06526 0.52106 0.96846 0.0
C222 C 0.09505 0.53108 0.94378 0.0
C223 C 0.069 0.52707 0.91758 0.0
O224 O 0.05715 0.55818 0.87712 0.0
O225 O 0.02335 0.50923 0.87452 0.0
O226 O 0.05269 0.50314 0.9077 0.0
O227 O 0.08753 0.55315 0.91099 0.0
H228 H 0.96597 0.50181 0.8882 0.0
H229 H 0.91747 0.50245 0.88509 0.0
H230 H 0.96948 0.5696 0.85085 0.0
H231 H 1.01751 0.56887 0.85398 0.0
H232 H 0.19374 0.51936 0.84413 0.0
H233 H 0.14578 0.51933 0.84712 0.0
H234 H 0.21785 0.54331 0.8937 0.0
H235 H 0.16931 0.54353 0.89637 0.0
H236 H 0.11504 0.53302 0.96632 0.0
H237 H 1.01594 0.50977 0.96502 0.0
H238 H 1.01798 0.51214 0.93653 0.0
H239 H 0.11733 0.53725 0.93791 0.0
C240 C 0.94748 0.44104 0.47112 0.0
C241 C 0.9251 0.42314 0.4585 0.0
C242 C 0.89013 0.38138 0.4757 0.0
C243 C 0.89663 0.39355 0.46077 0.0
C244 C 0.91266 0.39972 0.48825 0.0
C245 C 0.94092 0.42908 0.48596 0.0
U246 U 1.01997 0.51405 0.45048 0.0
O247 O 0.07201 0.54301 0.45957 0.0
O248 O 0.04279 0.56092 0.45982 0.0
C249 C 0.07073 0.5654 0.46393 0.0
C250 C 0.97783 0.47226 0.46961 0.0
C251 C 0.10194 0.59644 0.46605 0.0
C252 C 0.14015 0.6398 0.48408 0.0
C253 C 0.11007 0.61107 0.48107 0.0
C254 C 0.1545 0.64004 0.45694 0.0
C255 C 0.16291 0.65476 0.47208 0.0
C256 C 0.12432 0.61108 0.45397 0.0
C257 C 1.0144 0.50555 0.403 0.0
C258 C 0.04209 0.53529 0.38023 0.0
C259 C 0.99676 0.4819 0.37653 0.0
C260 C 0.99355 0.48003 0.39278 0.0
C261 C 1.0213 0.50942 0.36991 0.0
C262 C 0.03865 0.53339 0.39665 0.0
C263 C 1.00903 0.50139 0.42003 0.0
O264 O 1.00443 0.47542 0.46458 0.0
O265 O 0.97435 0.49209 0.46418 0.0
O266 O 0.99857 0.51493 0.42809 0.0
O267 O 0.0271 0.49637 0.42836 0.0
H268 H 0.92969 0.43194 0.44693 0.0
H269 H 0.88004 0.38005 0.45079 0.0
H270 H 0.90833 0.39154 0.49996 0.0
H271 H 0.95776 0.4426 0.49589 0.0
H272 H 0.14582 0.64999 0.49593 0.0
H273 H 0.09328 0.59997 0.49063 0.0
H274 H 0.17115 0.65097 0.44735 0.0
H275 H 0.11858 0.60012 0.44231 0.0
H276 H 0.0614 0.55688 0.37565 0.0
H277 H 0.97959 0.46161 0.36916 0.0
H278 H 0.97444 0.45838 0.39741 0.0
H279 H 0.05495 0.55345 0.40432 0.0
C280 C 0.54253 0.95588 0.798 0.0
C281 C 0.53214 0.9321 0.78679 0.0
C282 C 0.54676 0.90893 0.80515 0.0
C283 C 0.53414 0.90873 0.79037 0.0
C284 C 0.55701 0.93281 0.81628 0.0
C285 C 0.55495 0.95601 0.81272 0.0
U286 U 0.53809 0.00624 0.77012 0.0
O287 O 0.512 0.027 0.77288 0.0
O288 O 0.56663 0.0558 0.77135 0.0
C289 C 0.53985 0.05465 0.77279 0.0
C290 C 0.54113 0.98103 0.79473 0.0
C291 C 0.54291 0.07883 0.7827 0.0
C292 C 0.54143 0.10207 0.8074 0.0
C293 C 0.538 0.07772 0.79898 0.0
C294 C 0.55439 0.12814 0.78334 0.0
C295 C 0.55004 0.1277 0.79962 0.0
C296 C 0.55098 0.10412 0.77505 0.0
C297 C 0.53528 0.98872 0.72496 0.0
C298 C 0.52557 0.00961 0.70306 0.0
C299 C 0.54391 0.97833 0.69816 0.0
C300 C 0.54429 0.97498 0.71426 0.0
C301 C 0.53427 0.99544 0.69224 0.0
C302 C 0.52608 0.00629 0.7193 0.0
C303 C 0.5356 0.98368 0.74181 0.0
O304 O 0.5676 0.00415 0.78831 0.0
O305 O 0.51299 0.9736 0.78855 0.0
O306 O 0.50892 0.97499 0.74968 0.0
O307 O 0.56354 0.00347 0.74983 0.0
H308 H 0.52267 0.93169 0.77531 0.0
H309 H 0.52638 0.89082 0.78148 0.0
H310 H 0.5664 0.93345 0.82783 0.0
H311 H 0.56309 0.97417 0.82151 0.0
H312 H 0.53789 0.10111 0.81996 0.0
H313 H 0.53169 0.0583 0.80512 0.0
H314 H 0.56022 0.14709 0.77689 0.0
H315 H 0.5546 0.1053 0.76249 0.0
H316 H 0.51781 0.02282 0.69898 0.0
H317 H 0.55157 0.96767 0.69036 0.0
H318 H 0.55166 0.96149 0.71839 0.0
H319 H 0.51911 0.0172 0.72737 0.0
C320 C 0.55925 0.46287 0.13755 0.0
C321 C 0.5819 0.46591 0.12668 0.0
C322 C 0.61243 0.46484 0.14774 0.0
C323 C 0.60858 0.46694 0.13178 0.0
C324 C 0.58967 0.4615 0.15862 0.0
C325 C 0.56291 0.46057 0.15349 0.0
U326 U 0.51776 0.46413 0.10294 0.0
O327 O 0.46495 0.43956 0.09646 0.0
O328 O 0.49836 0.48956 0.09835 0.0
C329 C 0.46756 0.46469 0.09794 0.0
C330 C 0.53212 0.46236 0.13186 0.0
C331 C 0.44807 0.46478 0.11035 0.0
C332 C 0.44025 0.4672 0.1382 0.0
C333 C 0.45698 0.46492 0.126 0.0
C334 C 0.40511 0.46831 0.1191 0.0
C335 C 0.41433 0.46889 0.13472 0.0
C336 C 0.4221 0.46632 0.10688 0.0
C337 C 0.55035 0.46913 0.06339 0.0
C338 C 0.52137 0.47178 0.04167 0.0
C339 C 0.57265 0.4774 0.03752 0.0
C340 C 0.57478 0.4737 0.05337 0.0
C341 C 0.54596 0.47645 0.03153 0.0
C342 C 0.52359 0.46818 0.05755 0.0
C343 C 0.55354 0.46675 0.08007 0.0
O344 O 0.54194 0.48767 0.12564 0.0
O345 O 0.51017 0.4378 0.12311 0.0
O346 O 0.52889 0.44099 0.08561 0.0
O347 O 0.56201 0.49079 0.08878 0.0
H348 H 0.57892 0.46756 0.11428 0.0
H349 H 0.62599 0.46912 0.12333 0.0
H350 H 0.59285 0.4599 0.171 0.0
H351 H 0.54532 0.45819 0.16185 0.0
H352 H 0.44758 0.46788 0.15027 0.0
H353 H 0.47722 0.46385 0.12876 0.0
H354 H 0.38539 0.47022 0.1164 0.0
H355 H 0.41545 0.46653 0.09485 0.0
H356 H 0.50044 0.47077 0.03731 0.0
H357 H 0.59226 0.48155 0.03001 0.0
H358 H 0.59568 0.47481 0.05785 0.0
H359 H 0.50463 0.46486 0.06529 0.0
C360 C 0.23151 0.5068 0.15811 0.0
C361 C 0.2303 0.52687 0.16817 0.0
C362 C 0.25715 0.50454 0.15994 0.0
C363 C 0.33812 0.5382 0.16956 0.0
H364 H 0.30721 0.45851 0.18156 0.0
C365 C 0.4164 0.49941 0.15723 0.0
C366 C 0.39795 0.47317 0.14727 0.0
C367 C 0.39989 0.5072 0.16672 0.0
C368 C 0.31635 0.48108 0.1786 0.0
H369 H 0.25402 0.56068 0.18753 0.0
H370 H 0.30052 0.55743 0.19038 0.0
H371 H 0.26995 0.47298 0.18332 0.0
H372 H 0.349 0.43322 0.13989 0.0
H373 H 0.31983 0.44715 0.15603 0.0
H374 H 0.38282 0.54506 0.16284 0.0
C375 C 0.28148 0.54366 0.18125 0.0
C376 C 0.29525 0.48926 0.17963 0.0
C377 C 0.25546 0.54569 0.17955 0.0
C378 C 0.36328 0.45349 0.14766 0.0
C379 C 0.34678 0.46132 0.15701 0.0
C380 C 0.35908 0.52985 0.16826 0.0
C381 C 0.2815 0.5224 0.17178 0.0
C382 C 0.30587 0.51734 0.17457 0.0
C383 C 0.36502 0.48881 0.16612 0.0
C384 C 0.34769 0.50073 0.17214 0.0
H385 H 0.2115 0.49149 0.14959 0.0
H386 H 0.25734 0.48809 0.15258 0.0
H387 H 0.34595 0.55971 0.16538 0.0
H388 H 0.44331 0.51493 0.15679 0.0
H389 H 0.41421 0.52855 0.17361 0.0
C390 C 0.66047 0.11418 0.50088 0.0
C391 C 0.62953 0.10498 0.49473 0.0
C392 C 0.68921 0.14404 0.4995 0.0
C393 C 0.72287 0.21004 0.47526 0.0
H394 H 0.78635 0.25668 0.50993 0.0
C395 C 0.82935 0.33746 0.4708 0.0
C396 C 0.86027 0.34973 0.47829 0.0
C397 C 0.80145 0.3079 0.47336 0.0
C398 C 0.76921 0.24394 0.50001 0.0
H399 H 0.60474 0.12014 0.48227 0.0
H400 H 0.65425 0.17142 0.47988 0.0
H401 H 0.73843 0.20439 0.51323 0.0
H402 H 0.88582 0.33999 0.49431 0.0
H403 H 0.8377 0.28864 0.49852 0.0
H404 H 0.75356 0.24894 0.46188 0.0
C405 C 0.65659 0.15578 0.4857 0.0
C406 C 0.74163 0.21388 0.50195 0.0
C407 C 0.62805 0.12627 0.4872 0.0
C408 C 0.8624 0.33157 0.48846 0.0
C409 C 0.83459 0.30197 0.49093 0.0
C410 C 0.75052 0.23988 0.47327 0.0
C411 C 0.68762 0.1651 0.49174 0.0
C412 C 0.71795 0.19662 0.48963 0.0
C413 C 0.80365 0.28954 0.48337 0.0
C414 C 0.77408 0.25747 0.48562 0.0
H415 H 0.66248 0.0984 0.50679 0.0
H416 H 0.71276 0.15046 0.50425 0.0
H417 H 0.70545 0.1973 0.46542 0.0
H418 H 0.8265 0.35087 0.46313 0.0
H419 H 0.77803 0.29964 0.46757 0.0
C420 C 0.55477 0.69535 0.82803 0.0
C421 C 0.5858 0.70448 0.83401 0.0
C422 C 0.54871 0.71657 0.82602 0.0
C423 C 0.57978 0.7951 0.83764 0.0
H424 H 0.53471 0.78742 0.79878 0.0
C425 C 0.57811 0.89196 0.81725 0.0
C426 C 0.54974 0.88468 0.80899 0.0
C427 C 0.58105 0.86935 0.821 0.0
C428 C 0.54683 0.78971 0.80982 0.0
H429 H 0.63472 0.74326 0.84269 0.0
H430 H 0.62406 0.78018 0.83927 0.0
H431 H 0.54198 0.74909 0.80444 0.0
H432 H 0.50189 0.84776 0.79845 0.0
H433 H 0.50666 0.80817 0.80521 0.0
H434 H 0.58464 0.83571 0.84304 0.0
C435 C 0.60426 0.75652 0.8363 0.0
C436 C 0.55105 0.76769 0.81306 0.0
C437 C 0.61035 0.7353 0.83828 0.0
C438 C 0.52427 0.85417 0.80462 0.0
C439 C 0.52707 0.83148 0.80849 0.0
C440 C 0.5754 0.81706 0.83444 0.0
C441 C 0.57351 0.74745 0.82997 0.0
C442 C 0.56779 0.77023 0.82694 0.0
C443 C 0.55557 0.83879 0.81668 0.0
C444 C 0.55909 0.81479 0.82042 0.0
H445 H 0.53509 0.67174 0.82489 0.0
H446 H 0.52455 0.70877 0.82138 0.0
H447 H 0.59238 0.7975 0.84855 0.0
H448 H 0.59842 0.91528 0.8206 0.0
H449 H 0.60367 0.87599 0.82702 0.0
C450 C 0.83321 0.45185 0.18432 0.0
C451 C 0.86224 0.48142 0.18654 0.0
C452 C 0.80334 0.44728 0.18163 0.0
C453 C 0.77284 0.47643 0.1606 0.0
H454 H 0.70227 0.45092 0.18983 0.0
C455 C 0.67232 0.4899 0.1492 0.0
C456 C 0.6401 0.4657 0.15296 0.0
C457 C 0.6988 0.49024 0.15382 0.0
C458 C 0.72155 0.45747 0.1815 0.0
H459 H 0.88439 0.52943 0.18763 0.0
H460 H 0.83166 0.5212 0.18285 0.0
H461 H 0.7498 0.45231 0.19778 0.0
H462 H 0.60905 0.42291 0.16398 0.0
H463 H 0.65562 0.42285 0.17167 0.0
H464 H 0.74475 0.48115 0.14415 0.0
C465 C 0.832 0.50187 0.18369 0.0
C466 C 0.74837 0.45831 0.18606 0.0
C467 C 0.86165 0.50643 0.18656 0.0
C468 C 0.63411 0.44182 0.16124 0.0
C469 C 0.6605 0.44186 0.16562 0.0
C470 C 0.74572 0.47498 0.1559 0.0
C471 C 0.80327 0.47238 0.18093 0.0
C472 C 0.77395 0.46824 0.17567 0.0
C473 C 0.69282 0.46605 0.1619 0.0
C474 C 0.72034 0.46601 0.16646 0.0
H475 H 0.83405 0.43271 0.1838 0.0
H476 H 0.7808 0.42452 0.17921 0.0
H477 H 0.79309 0.48427 0.15266 0.0
H478 H 0.67689 0.50845 0.14279 0.0
H479 H 0.7238 0.50934 0.15114 0.0
C480 C 0.44114 0.90093 0.48592 0.0
C481 C 0.44146 0.92534 0.49162 0.0
C482 C 0.41132 0.87155 0.4847 0.0
C483 C 0.32697 0.82193 0.4999 0.0
H484 H 0.30597 0.77619 0.46011 0.0
C485 C 0.19736 0.70707 0.4858 0.0
C486 C 0.19532 0.68534 0.47544 0.0
C487 C 0.22763 0.73586 0.48869 0.0
C488 C 0.31153 0.7882 0.47145 0.0
H489 H 0.41115 0.93815 0.50098 0.0
H490 H 0.359 0.88648 0.49929 0.0
H491 H 0.35802 0.82671 0.46369 0.0
H492 H 0.22432 0.67675 0.46067 0.0
H493 H 0.27683 0.72637 0.46583 0.0
H494 H 0.28092 0.7832 0.50786 0.0
C495 C 0.38176 0.89018 0.49555 0.0
C496 C 0.34143 0.81738 0.47344 0.0
C497 C 0.4115 0.91973 0.49641 0.0
C498 C 0.22461 0.69304 0.46838 0.0
C499 C 0.25489 0.7217 0.47136 0.0
C500 C 0.2972 0.79244 0.49801 0.0
C501 C 0.38128 0.86581 0.48949 0.0
C502 C 0.34949 0.83464 0.48764 0.0
C503 C 0.25685 0.7438 0.48137 0.0
C504 C 0.28894 0.7751 0.48371 0.0
H505 H 0.46387 0.90463 0.48212 0.0
H506 H 0.41179 0.85323 0.48007 0.0
H507 H 0.33264 0.83461 0.51104 0.0
H508 H 0.17536 0.70214 0.49141 0.0
H509 H 0.22776 0.75213 0.49634 0.0
C510 C 0.57783 0.35995 0.82952 0.0
C511 C 0.55525 0.35787 0.84016 0.0
C512 C 0.58009 0.33608 0.8271 0.0
C513 C 0.55283 0.2623 0.84286 0.0
H514 H 0.57053 0.24845 0.80042 0.0
C515 C 0.53139 0.15089 0.81866 0.0
C516 C 0.55468 0.15431 0.80798 0.0
C517 C 0.53345 0.1762 0.82442 0.0
C518 C 0.56591 0.25214 0.81239 0.0
H519 H 0.51753 0.32917 0.85672 0.0
H520 H 0.52053 0.28716 0.85214 0.0
H521 H 0.57051 0.29152 0.80671 0.0
H522 H 0.59995 0.18715 0.7961 0.0
H523 H 0.60353 0.2309 0.80609 0.0
H524 H 0.54703 0.22186 0.84821 0.0
C525 C 0.53728 0.30749 0.84595 0.0
C526 C 0.56608 0.27707 0.81606 0.0
C527 C 0.53542 0.33159 0.84855 0.0
C528 C 0.58117 0.18365 0.80402 0.0
C529 C 0.58318 0.20875 0.80972 0.0
C530 C 0.55224 0.23703 0.83911 0.0
C531 C 0.55934 0.30919 0.83502 0.0
C532 C 0.5597 0.28268 0.83136 0.0
C533 C 0.55882 0.20529 0.81958 0.0
C534 C 0.55902 0.23181 0.82384 0.0
H535 H 0.59381 0.3801 0.82306 0.0
H536 H 0.5981 0.33878 0.81892 0.0
H537 H 0.54821 0.26595 0.85482 0.0
H538 H 0.51067 0.12858 0.82191 0.0
H539 H 0.51429 0.1728 0.83202 0.0
C540 C 0.56106 0.84515 0.49582 0.0
C541 C 0.54145 0.85132 0.50427 0.0
C542 C 0.55815 0.81879 0.49802 0.0
C543 C 0.53239 0.76311 0.52765 0.0
H544 H 0.5355 0.71613 0.49348 0.0
C545 C 0.51412 0.65209 0.5382 0.0
C546 C 0.53353 0.64587 0.52966 0.0
C547 C 0.51372 0.67623 0.53457 0.0
C548 C 0.53499 0.7292 0.50319 0.0
H549 H 0.5022 0.83367 0.5211 0.0
H550 H 0.49744 0.78796 0.52507 0.0
H551 H 0.53702 0.75973 0.4878 0.0
H552 H 0.5682 0.66052 0.51075 0.0
H553 H 0.5679 0.70282 0.50457 0.0
H554 H 0.53111 0.73321 0.5431 0.0
C555 C 0.51542 0.80377 0.5169 0.0
C556 C 0.53577 0.75413 0.49991 0.0
C557 C 0.51818 0.83001 0.51463 0.0
C558 C 0.55259 0.66441 0.51742 0.0
C559 C 0.55234 0.68865 0.51384 0.0
C560 C 0.53185 0.73836 0.53094 0.0
C561 C 0.53571 0.79809 0.50881 0.0
C562 C 0.53441 0.77131 0.51212 0.0
C563 C 0.53292 0.69489 0.52237 0.0
C564 C 0.53312 0.72105 0.51877 0.0
H565 H 0.5796 0.86121 0.48791 0.0
H566 H 0.57437 0.8152 0.49172 0.0
H567 H 0.53196 0.77624 0.53735 0.0
H568 H 0.49873 0.63797 0.54753 0.0
H569 H 0.49798 0.67999 0.54121 0.0
C570 C 0.70292 0.56715 0.84815 0.0
C571 C 0.6697 0.5402 0.84671 0.0
C572 C 0.73124 0.56698 0.85026 0.0
C573 C 0.75706 0.51219 0.85279 0.0
H574 H 0.84493 0.58702 0.86097 0.0
C575 C 0.8739 0.5104 0.86598 0.0
C576 C 0.90747 0.53663 0.86533 0.0
C577 C 0.84585 0.51086 0.86357 0.0
C578 C 0.82092 0.56551 0.85858 0.0
H579 H 0.64231 0.49161 0.8466 0.0
H580 H 0.68987 0.49104 0.85015 0.0
H581 H 0.79781 0.58792 0.8572 0.0
H582 H 0.93558 0.58445 0.86159 0.0
H583 H 0.88821 0.58542 0.85758 0.0
H584 H 0.78028 0.48983 0.85408 0.0
C585 C 0.69502 0.51293 0.8496 0.0
C586 C 0.79288 0.56602 0.85639 0.0
C587 C 0.66682 0.51315 0.84754 0.0
C588 C 0.91087 0.56337 0.86217 0.0
C589 C 0.88288 0.56393 0.85995 0.0
C590 C 0.78508 0.51169 0.85499 0.0
C591 C 0.72853 0.53981 0.85107 0.0
C592 C 0.75964 0.53937 0.85342 0.0
C593 C 0.84913 0.53768 0.86052 0.0
C594 C 0.81824 0.5383 0.85802 0.0
H595 H 0.70724 0.58878 0.84775 0.0
H596 H 0.75544 0.58869 0.8512 0.0
H597 H 0.73316 0.4906 0.85044 0.0
H598 H 0.86903 0.48897 0.86814 0.0
H599 H 0.82134 0.48969 0.86433 0.0
C600 C 0.13934 0.62441 0.17067 0.0
C601 C 0.13952 0.59984 0.17415 0.0
C602 C 0.1686 0.65414 0.17195 0.0
C603 C 0.25016 0.70189 0.19268 0.0
H604 H 0.27314 0.75876 0.16088 0.0
C605 C 0.37375 0.82249 0.19835 0.0
C606 C 0.37491 0.84683 0.19311 0.0
C607 C 0.34599 0.79248 0.19498 0.0
C608 C 0.26699 0.74342 0.17002 0.0
H609 H 0.17052 0.58737 0.18188 0.0
H610 H 0.2218 0.63956 0.18448 0.0
H611 H 0.22316 0.70653 0.15717 0.0
H612 H 0.34749 0.8581 0.17965 0.0
H613 H 0.2989 0.80591 0.17398 0.0
H614 H 0.29284 0.73856 0.20588 0.0
C615 C 0.19895 0.63566 0.18055 0.0
C616 C 0.23832 0.71333 0.16783 0.0
C617 C 0.1697 0.60576 0.17897 0.0
C618 C 0.34771 0.84009 0.1839 0.0
C619 C 0.31971 0.80995 0.18061 0.0
C620 C 0.27848 0.73199 0.19499 0.0
C621 C 0.19877 0.66023 0.17704 0.0
C622 C 0.22961 0.69214 0.17912 0.0
C623 C 0.31814 0.78561 0.18632 0.0
C624 C 0.28757 0.75333 0.18368 0.0
H625 H 0.11647 0.62067 0.16692 0.0
H626 H 0.16741 0.67245 0.16932 0.0
H627 H 0.24388 0.68636 0.20175 0.0
H628 H 0.39449 0.82655 0.20507 0.0
H629 H 0.34659 0.77466 0.19918 0.0
C630 C 0.55649 0.20214 0.50886 0.0
C631 C 0.53583 0.18136 0.49648 0.0
C632 C 0.56046 0.22925 0.51131 0.0
C633 C 0.54456 0.28012 0.49353 0.0
H634 H 0.54746 0.30411 0.53732 0.0
C635 C 0.52681 0.37078 0.51693 0.0
C636 C 0.54728 0.38927 0.52998 0.0
C637 C 0.52784 0.34735 0.51084 0.0
C638 C 0.54704 0.29793 0.52502 0.0
H639 H 0.5039 0.17317 0.47665 0.0
H640 H 0.51025 0.22025 0.4811 0.0
H641 H 0.54473 0.25965 0.53064 0.0
H642 H 0.58685 0.39968 0.54595 0.0
H643 H 0.58876 0.3592 0.53536 0.0
H644 H 0.54583 0.31834 0.4881 0.0
C645 C 0.52388 0.21588 0.48878 0.0
C646 C 0.54564 0.27246 0.52117 0.0
C647 C 0.52019 0.18883 0.48624 0.0
C648 C 0.57035 0.38537 0.53607 0.0
C649 C 0.57138 0.36216 0.53004 0.0
C650 C 0.54564 0.30561 0.49742 0.0
C651 C 0.54348 0.23612 0.50157 0.0
C652 C 0.5448 0.26337 0.50539 0.0
C653 C 0.54937 0.34222 0.51775 0.0
C654 C 0.54732 0.31494 0.51323 0.0
H655 H 0.56938 0.19729 0.51678 0.0
H656 H 0.57656 0.24467 0.521 0.0
H657 H 0.54406 0.27387 0.48125 0.0
H658 H 0.5088 0.37335 0.51204 0.0
H659 H 0.51062 0.33229 0.50134 0.0
C660 C 0.4828 0.55024 0.86069 0.0
C661 C 0.48322 0.53096 0.84929 0.0
C662 C 0.45429 0.55001 0.86282 0.0
C663 C 0.36797 0.52011 0.84374 0.0
H664 H 0.35787 0.55137 0.88295 0.0
C665 C 0.25125 0.52391 0.85176 0.0
C666 C 0.24326 0.53135 0.86642 0.0
C667 C 0.27968 0.52398 0.84973 0.0
C668 C 0.35939 0.54227 0.87179 0.0
H669 H 0.45199 0.49633 0.83105 0.0
H670 H 0.40344 0.4963 0.83431 0.0
H671 H 0.4052 0.55056 0.87959 0.0
H672 H 0.26287 0.5449 0.89051 0.0
H673 H 0.31044 0.54458 0.88715 0.0
H674 H 0.32195 0.51118 0.83598 0.0
C675 C 0.42508 0.51177 0.84193 0.0
C676 C 0.38768 0.54211 0.86976 0.0
C677 C 0.45337 0.51156 0.84005 0.0
C678 C 0.26638 0.53885 0.87888 0.0
C679 C 0.29481 0.53881 0.87685 0.0
C680 C 0.33962 0.5202 0.84577 0.0
C681 C 0.42434 0.53093 0.85345 0.0
C682 C 0.39315 0.53103 0.85565 0.0
C683 C 0.30272 0.53137 0.86218 0.0
C684 C 0.33405 0.53128 0.8599 0.0
H685 H 0.50467 0.56551 0.86824 0.0
H686 H 0.45627 0.56552 0.87181 0.0
H687 H 0.37008 0.51158 0.8325 0.0
H688 H 0.23558 0.51781 0.84144 0.0
H689 H 0.28332 0.51823 0.83805 0.0
C690 C 0.94778 0.39164 0.16632 0.0
C691 C 0.95125 0.41812 0.17127 0.0
C692 C 0.91793 0.36288 0.1684 0.0
C693 C 0.84137 0.32375 0.19189 0.0
H694 H 0.80581 0.25947 0.15934 0.0
C695 C 0.71057 0.20918 0.19668 0.0
C696 C 0.70483 0.18261 0.18997 0.0
C697 C 0.74038 0.23776 0.19424 0.0
C698 C 0.81547 0.27688 0.16872 0.0
H699 H 0.92598 0.43483 0.18244 0.0
H700 H 0.87409 0.38498 0.18593 0.0
H701 H 0.85816 0.30868 0.15556 0.0
H702 H 0.72687 0.1657 0.17572 0.0
H703 H 0.77866 0.21494 0.17179 0.0
H704 H 0.7993 0.29207 0.20523 0.0
C705 C 0.89445 0.38633 0.18053 0.0
C706 C 0.84564 0.3053 0.16649 0.0
C707 C 0.92419 0.41502 0.1784 0.0
C708 C 0.72998 0.18555 0.18088 0.0
C709 C 0.75986 0.21404 0.17856 0.0
C710 C 0.81141 0.29529 0.1942 0.0
C711 C 0.89083 0.35981 0.17558 0.0
C712 C 0.85896 0.32922 0.17802 0.0
C713 C 0.76564 0.24073 0.18515 0.0
C714 C 0.79781 0.27131 0.18264 0.0
H715 H 0.96821 0.39308 0.16092 0.0
H716 H 0.91632 0.34305 0.16462 0.0
H717 H 0.85104 0.3414 0.20117 0.0
H718 H 0.6917 0.20798 0.20356 0.0
H719 H 0.74326 0.25755 0.19931 0.0
C720 C 0.06907 0.54277 0.11476 0.0
C721 C 0.05154 0.5161 0.12295 0.0
C722 C 0.07081 0.54192 0.09835 0.0
C723 C 0.03153 0.48948 0.06183 0.0
H724 H 0.10684 0.55962 0.04271 0.0
C725 C 0.03336 0.50059 0.99383 0.0
C726 C 0.06392 0.51915 0.98623 0.0
C727 C 0.03207 0.49936 0.0103 0.0
C728 C 0.08571 0.53944 0.04762 0.0
H729 H 1.02239 0.46732 0.1201 0.0
H730 H 0.02608 0.46564 0.0914 0.0
H731 H 0.10546 0.55788 0.07088 0.0
H732 H 0.11734 0.55102 0.99089 0.0
H733 H 0.11531 0.54717 0.01898 0.0
H734 H 1.01277 0.47025 0.0385 0.0
C735 C 0.03805 0.48745 0.09765 0.0
C736 C 0.08456 0.53872 0.06408 0.0
C737 C 0.03615 0.48834 0.11419 0.0
C738 C 0.09315 0.53599 0.9959 0.0
C739 C 0.09191 0.53424 0.01234 0.0
C740 C 0.03299 0.48993 0.04531 0.0
C741 C 0.05538 0.5143 0.08937 0.0
C742 C 0.05724 0.51395 0.07159 0.0
C743 C 0.06132 0.51613 0.01998 0.0
C744 C 0.05999 0.51508 0.0378 0.0
H745 H 0.08126 0.5646 0.12105 0.0
H746 H 0.08379 0.56319 0.09276 0.0
H747 H 1.0098 0.46998 0.06689 0.0
H748 H 1.01008 0.48662 0.98711 0.0
H749 H 1.0078 0.48539 0.01537 0.0
C750 C 0.51108 1.00157 0.44186 0.0
C751 C 0.54268 0.01798 0.4494 0.0
C752 C 0.50814 1.00256 0.42554 0.0
C753 C 0.55621 0.04824 0.39167 0.0
H754 H 0.49468 0.97398 0.36637 0.0
C755 C 0.56822 0.0435 0.32482 0.0
C756 C 0.53915 0.02666 0.31515 0.0
C757 C 0.56654 0.04158 0.34111 0.0
C758 C 0.51171 0.99501 0.37325 0.0
H759 H 0.59576 0.04894 0.44592 0.0
H760 H 0.59076 0.05074 0.41779 0.0
H761 H 0.49483 0.97305 0.395 0.0
H762 H 0.48543 0.99387 0.31514 0.0
H763 H 0.48239 0.99059 0.3437 0.0
H764 H 0.57328 0.07028 0.37009 0.0
C765 C 0.56816 0.03717 0.42428 0.0
C766 C 0.51176 0.99447 0.3897 0.0
C767 C 0.57106 0.03599 0.44045 0.0
C768 C 0.50832 0.00706 0.32222 0.0
C769 C 0.50661 0.0052 0.33861 0.0
C770 C 0.55612 0.04879 0.3753 0.0
C771 C 0.53673 0.0203 0.41654 0.0
C772 C 0.53439 0.02102 0.39911 0.0
C773 C 0.53571 0.0228 0.3483 0.0
C774 C 0.53426 0.02213 0.36582 0.0
H775 H 0.48877 0.98741 0.44847 0.0
H776 H 0.48353 0.98948 0.41997 0.0
H777 H 0.57354 0.06926 0.39852 0.0
H778 H 0.59249 0.05827 0.31978 0.0
H779 H 0.58959 0.05485 0.34807 0.0
C780 C 0.5958 0.54915 0.79019 0.0
C781 C 0.56498 0.52946 0.79724 0.0
C782 C 0.59715 0.55204 0.77382 0.0
C783 C 0.54851 0.50867 0.73749 0.0
H784 H 0.59896 0.58531 0.7178 0.0
C785 C 0.53006 0.51405 0.67121 0.0
C786 C 0.55688 0.53729 0.66291 0.0
C787 C 0.53258 0.5138 0.68756 0.0
C788 C 0.58514 0.56359 0.723 0.0
H789 H 0.5115 0.49865 0.79276 0.0
H790 H 0.51394 0.50356 0.76463 0.0
H791 H 0.60225 0.58459 0.7463 0.0
H792 H 0.60777 0.57797 0.66525 0.0
H793 H 0.61277 0.57697 0.69351 0.0
H794 H 0.53189 0.48739 0.71445 0.0
C795 C 0.53707 0.51639 0.77154 0.0
C796 C 0.58702 0.56329 0.73941 0.0
C797 C 0.53572 0.5137 0.78773 0.0
C798 C 0.5865 0.5599 0.67131 0.0
C799 C 0.58924 0.55942 0.68761 0.0
C800 C 0.54703 0.50891 0.72114 0.0
C801 C 0.56773 0.53509 0.7643 0.0
C802 C 0.5683 0.53582 0.74685 0.0
C803 C 0.56224 0.53652 0.69606 0.0
C804 C 0.56493 0.53637 0.71359 0.0
H805 H 0.61875 0.56168 0.79723 0.0
H806 H 0.62117 0.56673 0.76856 0.0
H807 H 0.53412 0.48706 0.74285 0.0
H808 H 0.50673 0.49653 0.66512 0.0
H809 H 0.51088 0.49607 0.69352 0.0
C810 C 0.54171 0.04036 0.55084 0.0
C811 C 0.53376 0.01593 0.54079 0.0
C812 C 0.5441 0.03941 0.56714 0.0
C813 C 0.54906 0.99655 0.59836 0.0
H814 H 0.51623 0.03221 0.62448 0.0
C815 C 0.52407 0.97379 0.66427 0.0
C816 C 0.53352 0.99826 0.67487 0.0
C817 C 0.52502 0.97665 0.64803 0.0
C818 C 0.52584 0.02241 0.6174 0.0
H819 H 0.52232 0.97148 0.53965 0.0
H820 H 0.5259 0.96935 0.56809 0.0
H821 H 0.51714 0.03603 0.59616 0.0
H822 H 0.55097 0.04494 0.67636 0.0
H823 H 0.55212 0.04975 0.64801 0.0
H824 H 0.55709 0.98241 0.61967 0.0
C825 C 0.53107 0.98965 0.56353 0.0
C826 C 0.52649 0.02468 0.60109 0.0
C827 C 0.52892 0.99076 0.54721 0.0
C828 C 0.54316 0.02547 0.66865 0.0
C829 C 0.54391 0.02827 0.65235 0.0
C830 C 0.54818 0.9941 0.61467 0.0
C831 C 0.53814 0.01377 0.57379 0.0
C832 C 0.53812 0.01179 0.59128 0.0
C833 C 0.53515 0.00397 0.64181 0.0
C834 C 0.53652 0.00696 0.62443 0.0
H835 H 0.54529 0.05992 0.54611 0.0
H836 H 0.55029 0.05872 0.57452 0.0
H837 H 0.5587 0.98672 0.59134 0.0
H838 H 0.5157 0.9522 0.66851 0.0
H839 H 0.51742 0.95723 0.64031 0.0
C840 C 0.56444 0.54767 0.89663 0.0
C841 C 0.58064 0.53859 0.88761 0.0
C842 C 0.55705 0.53956 0.9121 0.0
C843 C 0.54311 0.48399 0.93877 0.0
H844 H 0.57174 0.547 0.97144 0.0
C845 C 0.55228 0.46704 0.00346 0.0
C846 C 0.5443 0.4808 0.01478 0.0
C847 C 0.55314 0.47274 0.98771 0.0
C848 C 0.563 0.52906 0.96244 0.0
H849 H 0.60125 0.51369 0.88687 0.0
H850 H 0.58806 0.49909 0.91411 0.0
H851 H 0.57989 0.55959 0.94401 0.0
H852 H 0.53018 0.51075 0.01859 0.0
H853 H 0.53045 0.51987 0.99087 0.0
H854 H 0.52616 0.4534 0.95711 0.0
C855 C 0.58121 0.51252 0.9093 0.0
C856 C 0.56779 0.5363 0.94679 0.0
C857 C 0.58896 0.52097 0.89389 0.0
C858 C 0.53614 0.49965 0.01005 0.0
C859 C 0.5367 0.50515 0.99424 0.0
C860 C 0.538 0.47667 0.9544 0.0
C861 C 0.5654 0.52193 0.91851 0.0
C862 C 0.55832 0.51389 0.9349 0.0
C863 C 0.54559 0.49201 0.98297 0.0
C864 C 0.54838 0.49923 0.96638 0.0
H865 H 0.55773 0.56114 0.89172 0.0
H866 H 0.54463 0.54683 0.91901 0.0
H867 H 0.53528 0.46633 0.92971 0.0
H868 H 0.55826 0.45211 0.00679 0.0
H869 H 0.56056 0.46264 0.97932 0.0
C870 C 0.04997 0.52858 0.2247 0.0
C871 C 0.0412 0.50148 0.21707 0.0
C872 C 0.04801 0.53089 0.24114 0.0
C873 C 0.04565 0.49418 0.27731 0.0
H874 H 1.015 0.53735 0.2974 0.0
C875 C 1.0189 0.48539 0.34345 0.0
C876 C 0.02501 0.51046 0.35239 0.0
C877 C 1.02102 0.48546 0.32709 0.0
C878 C 0.02407 0.52552 0.29205 0.0
H879 H 1.0227 0.45538 0.22077 0.0
H880 H 1.01913 0.45927 0.24908 0.0
H881 H 1.0184 0.53565 0.26882 0.0
H882 H 0.03842 0.5555 0.35068 0.0
H883 H 0.04355 0.55615 0.32218 0.0
H884 H 0.05175 0.48426 0.30035 0.0
C885 C 0.02811 0.47902 0.24255 0.0
C886 C 0.02597 0.52451 0.27558 0.0
C887 C 0.02995 0.47671 0.22622 0.0
C888 C 0.03384 0.53585 0.34433 0.0
C889 C 0.03629 0.53603 0.32788 0.0
C890 C 0.04393 0.49531 0.2937 0.0
C891 C 0.03742 0.5062 0.25034 0.0
C892 C 0.03647 0.50853 0.26795 0.0
C893 C 0.02994 0.5108 0.31897 0.0
C894 C 0.03278 0.51071 0.30139 0.0
H895 H 0.05858 0.54805 0.21799 0.0
H896 H 0.05551 0.55224 0.24666 0.0
H897 H 0.05459 0.48221 0.27199 0.0
H898 H 1.01261 0.46553 0.34909 0.0
H899 H 1.01529 0.4653 0.3208 0.0
loop_
_geom_bond_atom_site_label_1
_geom_bond_atom_site_label_2
_geom_bond_distance
_geom_bond_site_symmetry_2
_ccdc_geom_bond_type
Gd0 C3 2.818 . S
Gd0 O20 2.377 . S
Gd0 O22 2.448 . S
Gd0 O23 2.506 . S
Gd0 O24 2.435 . S
Gd0 O25 2.717 . S
Gd0 O27 2.395 1_455 S
Gd0 O31 2.327 . S
Gd1 C12 2.802 1_455 S
Gd1 O21 2.408 . S
Gd1 O25 2.337 . S
Gd1 O26 2.376 1_455 S
Gd1 O28 2.432 1_455 S
Gd1 O29 2.492 1_455 S
Gd1 O30 2.439 . S
Gd1 O31 2.731 . S
C2 O20 1.240 . S
C2 O21 1.240 . S
C3 Gd0 2.818 . S
C3 C4 1.510 . S
C3 O22 1.249 . S
C3 O23 1.252 . S
C4 C3 1.510 . S
C4 C5 1.404 . S
C4 C6 1.352 . S
C5 C4 1.404 . S
C5 C9 1.389 . S
C5 H32 0.930 . S
C6 C4 1.352 . S
C6 C8 1.374 . S
C6 H33 0.931 . S
C7 C8 1.359 . S
C7 C9 1.364 . S
C8 C6 1.374 . S
C8 C7 1.359 . S
C8 H34 0.931 . S
C9 C5 1.389 . S
C9 C7 1.364 . S
C9 H35 0.931 . S
C10 O24 1.256 . S
C10 O25 1.257 . S
C11 O26 1.240 . S
C11 O27 1.240 . S
C12 Gd1 2.802 1_655 S
C12 C13 1.510 . S
C12 O28 1.249 . S
C12 O29 1.252 . S
C13 C12 1.510 . S
C13 C14 1.404 . S
C13 C15 1.352 . S
C14 C13 1.404 . S
C14 C18 1.389 . S
C14 H36 0.930 . S
C15 C13 1.352 . S
C15 C17 1.374 . S
C15 H37 0.931 . S
C16 C17 1.359 . S
C16 C18 1.364 . S
C17 C15 1.374 . S
C17 C16 1.359 . S
C17 H38 0.931 . S
C18 C14 1.389 . S
C18 C16 1.364 . S
C18 H39 0.931 . S
C19 O30 1.256 . S
C19 O31 1.257 . S
O20 Gd0 2.377 . S
O20 C2 1.240 . S
O21 Gd1 2.408 . S
O21 C2 1.240 . S
O22 Gd0 2.448 . S
O22 C3 1.249 . S
O23 Gd0 2.506 . S
O23 C3 1.252 . S
O24 Gd0 2.435 . S
O24 C10 1.256 . S
O25 Gd0 2.717 . S
O25 Gd1 2.337 . S
O25 C10 1.257 . S
O26 Gd1 2.376 1_655 S
O26 C11 1.240 . S
O27 Gd0 2.395 1_655 S
O27 C11 1.240 . S
O28 Gd1 2.432 1_655 S
O28 C12 1.249 . S
O29 Gd1 2.492 1_655 S
O29 C12 1.252 . S
O30 Gd1 2.439 . S
O30 C19 1.256 . S
O31 Gd0 2.327 . S
O31 Gd1 2.731 . S
O31 C19 1.257 . S
H32 C5 0.930 . S
H33 C6 0.931 . S
H34 C8 0.931 . S
H35 C9 0.931 . S
H36 C14 0.930 . S
H37 C15 0.931 . S
H38 C17 0.931 . S
H39 C18 0.931 . S
Gd40 C43 2.818 . S
Gd40 O60 2.377 . S
Gd40 O62 2.448 . S
Gd40 O63 2.506 . S
Gd40 O64 2.435 . S
Gd40 O65 2.717 1_565 S
Gd40 O67 2.395 1_565 S
Gd40 O71 2.327 1_565 S
Gd41 C52 2.818 . S
Gd41 O61 2.395 1_545 S
Gd41 O65 2.327 . S
Gd41 O66 2.377 . S
Gd41 O68 2.448 . S
Gd41 O69 2.506 . S
Gd41 O70 2.435 . S
Gd41 O71 2.717 . S
C42 O60 1.240 . S
C42 O61 1.240 . S
C43 Gd40 2.818 . S
C43 C44 1.510 . S
C43 O62 1.249 . S
C43 O63 1.252 . S
C44 C43 1.510 . S
C44 C45 1.404 . S
C44 C46 1.352 . S
C45 C44 1.404 . S
C45 C49 1.389 . S
C45 H72 0.930 . S
C46 C44 1.352 . S
C46 C48 1.374 . S
C46 H73 0.931 . S
C47 C48 1.359 . S
C47 C49 1.364 . S
C48 C46 1.374 . S
C48 C47 1.359 . S
C48 H74 0.931 . S
C49 C45 1.389 . S
C49 C47 1.364 . S
C49 H75 0.931 . S
C50 O64 1.256 1_545 S
C50 O65 1.257 . S
C51 O66 1.240 . S
C51 O67 1.240 . S
C52 Gd41 2.818 . S
C52 C53 1.510 . S
C52 O68 1.249 . S
C52 O69 1.252 . S
C53 C52 1.510 . S
C53 C54 1.404 . S
C53 C55 1.352 . S
C54 C53 1.404 . S
C54 C58 1.389 . S
C54 H76 0.930 . S
C55 C53 1.352 . S
C55 C57 1.374 . S
C55 H77 0.931 . S
C56 C57 1.359 . S
C56 C58 1.364 . S
C57 C55 1.374 . S
C57 C56 1.359 . S
C57 H78 0.931 . S
C58 C54 1.389 . S
C58 C56 1.364 . S
C58 H79 0.931 . S
C59 O70 1.256 . S
C59 O71 1.257 . S
O60 Gd40 2.377 . S
O60 C42 1.240 . S
O61 Gd41 2.395 1_565 S
O61 C42 1.240 . S
O62 Gd40 2.448 . S
O62 C43 1.249 . S
O63 Gd40 2.506 . S
O63 C43 1.252 . S
O64 Gd40 2.435 . S
O64 C50 1.256 1_565 S
O65 Gd40 2.717 1_545 S
O65 Gd41 2.327 . S
O65 C50 1.257 . S
O66 Gd41 2.377 . S
O66 C51 1.240 . S
O67 Gd40 2.395 1_545 S
O67 C51 1.240 . S
O68 Gd41 2.448 . S
O68 C52 1.249 . S
O69 Gd41 2.506 . S
O69 C52 1.252 . S
O70 Gd41 2.435 . S
O70 C59 1.256 . S
O71 Gd40 2.327 1_545 S
O71 Gd41 2.717 . S
O71 C59 1.257 . S
H72 C45 0.930 . S
H73 C46 0.931 . S
H74 C48 0.931 . S
H75 C49 0.931 . S
H76 C54 0.930 . S
H77 C55 0.931 . S
H78 C57 0.931 . S
H79 C58 0.931 . S
Gd80 C83 2.818 . S
Gd80 O100 2.377 . S
Gd80 O102 2.448 . S
Gd80 O103 2.506 . S
Gd80 O104 2.435 . S
Gd80 O105 2.717 . S
Gd80 O107 2.395 . S
Gd80 O111 2.327 . S
Gd81 C92 2.818 . S
Gd81 O101 2.395 . S
Gd81 O105 2.327 . S
Gd81 O106 2.377 . S
Gd81 O108 2.448 . S
Gd81 O109 2.506 . S
Gd81 O110 2.435 . S
Gd81 O111 2.717 . S
C82 O100 1.240 . S
C82 O101 1.240 . S
C83 Gd80 2.818 . S
C83 C84 1.510 . S
C83 O102 1.249 . S
C83 O103 1.252 . S
C84 C83 1.510 . S
C84 C85 1.404 . S
C84 C86 1.352 . S
C85 C84 1.404 . S
C85 C89 1.389 . S
C85 H112 0.930 . S
C86 C84 1.352 . S
C86 C88 1.374 . S
C86 H113 0.931 . S
C87 C88 1.359 . S
C87 C89 1.364 . S
C88 C86 1.374 . S
C88 C87 1.359 . S
C88 H114 0.931 . S
C89 C85 1.389 . S
C89 C87 1.364 . S
C89 H115 0.931 . S
C90 O104 1.256 . S
C90 O105 1.257 . S
C91 O106 1.240 . S
C91 O107 1.240 . S
C92 Gd81 2.818 . S
C92 C93 1.510 . S
C92 O108 1.249 . S
C92 O109 1.252 . S
C93 C92 1.510 . S
C93 C94 1.404 . S
C93 C95 1.352 . S
C94 C93 1.404 . S
C94 C98 1.389 . S
C94 H116 0.930 . S
C95 C93 1.352 . S
C95 C97 1.374 . S
C95 H117 0.931 . S
C96 C97 1.359 . S
C96 C98 1.364 . S
C97 C95 1.374 . S
C97 C96 1.359 . S
C97 H118 0.931 . S
C98 C94 1.389 . S
C98 C96 1.364 . S
C98 H119 0.931 . S
C99 O110 1.256 . S
C99 O111 1.257 . S
O100 Gd80 2.377 . S
O100 C82 1.240 . S
O101 Gd81 2.395 . S
O101 C82 1.240 . S
O102 Gd80 2.448 . S
O102 C83 1.249 . S
O103 Gd80 2.506 . S
O103 C83 1.252 . S
O104 Gd80 2.435 . S
O104 C90 1.256 . S
O105 Gd80 2.717 . S
O105 Gd81 2.327 . S
O105 C90 1.257 . S
O106 Gd81 2.377 . S
O106 C91 1.240 . S
O107 Gd80 2.395 . S
O107 C91 1.240 . S
O108 Gd81 2.448 . S
O108 C92 1.249 . S
O109 Gd81 2.506 . S
O109 C92 1.252 . S
O110 Gd81 2.435 . S
O110 C99 1.256 . S
O111 Gd80 2.327 . S
O111 Gd81 2.717 . S
O111 C99 1.257 . S
H112 C85 0.930 . S
H113 C86 0.931 . S
H114 C88 0.931 . S
H115 C89 0.931 . S
H116 C94 0.930 . S
H117 C95 0.931 . S
H118 C97 0.931 . S
H119 C98 0.931 . S
C120 C121 1.264 . S
C120 C125 1.479 . S
C120 C130 1.465 . S
C121 C120 1.264 . S
C121 C123 1.339 . S
C121 H148 0.931 . S
C122 C123 1.395 . S
C122 C124 1.320 . S
C123 C121 1.339 . S
C123 C122 1.395 . S
C123 H149 0.929 . S
C124 C122 1.320 . S
C124 C125 1.405 . S
C124 H150 0.930 . S
C125 C120 1.479 . S
C125 C124 1.405 . S
C125 H151 0.931 . S
U126 O127 2.454 1_545 S
U126 O128 2.458 1_545 S
U126 C129 2.984 1_545 S
U126 C130 2.847 . S
U126 C143 2.882 . S
U126 O144 2.441 . S
U126 O145 2.420 . S
U126 O146 2.455 . S
U126 O147 2.449 . S
O127 U126 2.454 1_565 S
O127 C129 1.353 . S
O128 U126 2.458 1_565 S
O128 C129 1.286 . S
C129 U126 2.984 1_565 S
C129 O127 1.353 . S
C129 O128 1.286 . S
C129 C131 1.363 . S
C130 C120 1.465 . S
C130 U126 2.847 . S
C130 O144 1.249 . S
C130 O145 1.202 . S
C131 C129 1.363 . S
C131 C133 1.408 . S
C131 C136 1.342 . S
C132 C133 1.310 . S
C132 C135 1.461 . S
C132 H152 0.932 . S
C133 C131 1.408 . S
C133 C132 1.310 . S
C133 H153 0.930 . S
C134 C135 1.474 . S
C134 C136 1.285 . S
C134 H154 0.929 . S
C135 C132 1.461 . S
C135 C134 1.474 . S
C136 C131 1.342 . S
C136 C134 1.285 . S
C136 H155 0.930 . S
C137 C140 1.424 . S
C137 C142 1.245 . S
C137 C143 1.428 . S
C138 C141 1.260 . S
C138 C142 1.477 . S
C138 H156 0.932 1_545 S
C139 C140 1.384 . S
C139 C141 1.479 . S
C139 H157 0.929 . S
C140 C137 1.424 . S
C140 C139 1.384 . S
C140 H158 0.928 . S
C141 C138 1.260 . S
C141 C139 1.479 . S
C142 C137 1.245 . S
C142 C138 1.477 . S
C142 H159 0.932 1_545 S
C143 U126 2.882 . S
C143 C137 1.428 . S
C143 O146 1.301 . S
C143 O147 1.282 . S
O144 U126 2.441 . S
O144 C130 1.249 . S
O145 U126 2.420 . S
O145 C130 1.202 . S
O146 U126 2.455 . S
O146 C143 1.301 . S
O147 U126 2.449 . S
O147 C143 1.282 . S
H148 C121 0.931 . S
H149 C123 0.929 . S
H150 C124 0.930 . S
H151 C125 0.931 . S
H152 C132 0.932 . S
H153 C133 0.930 . S
H154 C134 0.929 . S
H155 C136 0.930 . S
H156 C138 0.932 1_565 S
H157 C139 0.929 . S
H158 C140 0.928 . S
H159 C142 0.932 1_565 S
C160 C161 1.264 . S
C160 C165 1.479 . S
C160 C170 1.465 . S
C161 C160 1.264 . S
C161 C163 1.339 . S
C161 H188 0.931 . S
C162 C163 1.395 . S
C162 C164 1.320 . S
C163 C161 1.339 . S
C163 C162 1.395 . S
C163 H189 0.929 . S
C164 C162 1.320 . S
C164 C165 1.405 . S
C164 H190 0.930 . S
C165 C160 1.479 . S
C165 C164 1.405 . S
C165 H191 0.931 . S
U166 O167 2.454 . S
U166 O168 2.458 . S
U166 C169 2.984 . S
U166 C170 2.847 . S
U166 C183 2.882 . S
U166 O184 2.441 . S
U166 O185 2.420 . S
U166 O186 2.455 . S
U166 O187 2.449 . S
O167 U166 2.454 . S
O167 C169 1.353 . S
O168 U166 2.458 . S
O168 C169 1.286 . S
C169 U166 2.984 . S
C169 O167 1.353 . S
C169 O168 1.286 . S
C169 C171 1.363 . S
C170 C160 1.465 . S
C170 U166 2.847 . S
C170 O184 1.249 . S
C170 O185 1.202 . S
C171 C169 1.363 . S
C171 C173 1.408 . S
C171 C176 1.342 . S
C172 C173 1.310 . S
C172 C175 1.461 . S
C172 H192 0.932 . S
C173 C171 1.408 . S
C173 C172 1.310 . S
C173 H193 0.930 . S
C174 C175 1.474 . S
C174 C176 1.285 . S
C174 H194 0.929 . S
C175 C172 1.461 . S
C175 C174 1.474 . S
C176 C171 1.342 . S
C176 C174 1.285 . S
C176 H195 0.930 . S
C177 C180 1.424 . S
C177 C182 1.245 . S
C177 C183 1.428 . S
C178 C181 1.260 . S
C178 C182 1.477 . S
C178 H196 0.932 . S
C179 C180 1.384 . S
C179 C181 1.479 . S
C179 H197 0.929 . S
C180 C177 1.424 . S
C180 C179 1.384 . S
C180 H198 0.928 . S
C181 C178 1.260 . S
C181 C179 1.479 . S
C182 C177 1.245 . S
C182 C178 1.477 . S
C182 H199 0.932 . S
C183 U166 2.882 . S
C183 C177 1.428 . S
C183 O186 1.301 . S
C183 O187 1.282 . S
O184 U166 2.441 . S
O184 C170 1.249 . S
O185 U166 2.420 . S
O185 C170 1.202 . S
O186 U166 2.455 . S
O186 C183 1.301 . S
O187 U166 2.449 . S
O187 C183 1.282 . S
H188 C161 0.931 . S
H189 C163 0.929 . S
H190 C164 0.930 . S
H191 C165 0.931 . S
H192 C172 0.932 . S
H193 C173 0.930 . S
H194 C174 0.929 . S
H195 C176 0.930 . S
H196 C178 0.932 . S
H197 C179 0.929 . S
H198 C180 0.928 . S
H199 C182 0.932 . S
C200 C201 1.264 . S
C200 C205 1.479 . S
C200 C210 1.465 . S
C201 C200 1.264 . S
C201 C203 1.339 . S
C201 H228 0.931 . S
C202 C203 1.395 . S
C202 C204 1.320 . S
C203 C201 1.339 . S
C203 C202 1.395 . S
C203 H229 0.929 . S
C204 C202 1.320 . S
C204 C205 1.405 . S
C204 H230 0.930 . S
C205 C200 1.479 . S
C205 C204 1.405 . S
C205 H231 0.931 . S
U206 O207 2.454 . S
U206 O208 2.458 . S
U206 C209 2.984 . S
U206 C210 2.847 1_455 S
U206 C223 2.882 . S
U206 O224 2.441 . S
U206 O225 2.420 1_455 S
U206 O226 2.455 . S
U206 O227 2.449 . S
O207 U206 2.454 . S
O207 C209 1.353 . S
O208 U206 2.458 . S
O208 C209 1.286 . S
C209 U206 2.984 . S
C209 O207 1.353 . S
C209 O208 1.286 . S
C209 C211 1.363 . S
C210 C200 1.465 . S
C210 U206 2.847 1_655 S
C210 O224 1.249 1_655 S
C210 O225 1.202 . S
C211 C209 1.363 . S
C211 C213 1.408 . S
C211 C216 1.342 . S
C212 C213 1.310 . S
C212 C215 1.461 . S
C212 H232 0.932 . S
C213 C211 1.408 . S
C213 C212 1.310 . S
C213 H233 0.930 . S
C214 C215 1.474 . S
C214 C216 1.285 . S
C214 H234 0.929 . S
C215 C212 1.461 . S
C215 C214 1.474 . S
C216 C211 1.342 . S
C216 C214 1.285 . S
C216 H235 0.930 . S
C217 C220 1.424 . S
C217 C222 1.245 . S
C217 C223 1.428 . S
C218 C221 1.260 . S
C218 C222 1.477 . S
C218 H236 0.932 . S
C219 C220 1.384 . S
C219 C221 1.479 . S
C219 H237 0.929 . S
C220 C217 1.424 . S
C220 C219 1.384 . S
C220 H238 0.928 . S
C221 C218 1.260 . S
C221 C219 1.479 . S
C222 C217 1.245 . S
C222 C218 1.477 . S
C222 H239 0.932 . S
C223 U206 2.882 . S
C223 C217 1.428 . S
C223 O226 1.301 . S
C223 O227 1.282 . S
O224 U206 2.441 . S
O224 C210 1.249 1_455 S
O225 U206 2.420 1_655 S
O225 C210 1.202 . S
O226 U206 2.455 . S
O226 C223 1.301 . S
O227 U206 2.449 . S
O227 C223 1.282 . S
H228 C201 0.931 . S
H229 C203 0.929 . S
H230 C204 0.930 . S
H231 C205 0.931 . S
H232 C212 0.932 . S
H233 C213 0.930 . S
H234 C214 0.929 . S
H235 C216 0.930 . S
H236 C218 0.932 . S
H237 C219 0.929 . S
H238 C220 0.928 . S
H239 C222 0.932 . S
C240 C241 1.264 . S
C240 C245 1.479 . S
C240 C250 1.465 . S
C241 C240 1.264 . S
C241 C243 1.339 . S
C241 H268 0.931 . S
C242 C243 1.395 . S
C242 C244 1.320 . S
C243 C241 1.339 . S
C243 C242 1.395 . S
C243 H269 0.929 . S
C244 C242 1.320 . S
C244 C245 1.405 . S
C244 H270 0.930 . S
C245 C240 1.479 . S
C245 C244 1.405 . S
C245 H271 0.931 . S
U246 O247 2.454 1_655 S
U246 O248 2.458 1_655 S
U246 C249 2.984 1_655 S
U246 C250 2.847 . S
U246 C263 2.882 . S
U246 O264 2.441 . S
U246 O265 2.420 . S
U246 O266 2.455 1_655 S
U246 O267 2.449 . S
O247 U246 2.454 1_455 S
O247 C249 1.353 . S
O248 U246 2.458 1_455 S
O248 C249 1.286 . S
C249 U246 2.984 1_455 S
C249 O247 1.353 . S
C249 O248 1.286 . S
C249 C251 1.363 . S
C250 C240 1.465 . S
C250 U246 2.847 . S
C250 O264 1.249 . S
C250 O265 1.202 . S
C251 C249 1.363 . S
C251 C253 1.408 . S
C251 C256 1.342 . S
C252 C253 1.310 . S
C252 C255 1.461 . S
C252 H272 0.932 . S
C253 C251 1.408 . S
C253 C252 1.310 . S
C253 H273 0.930 . S
C254 C255 1.474 . S
C254 C256 1.285 . S
C254 H274 0.929 . S
C255 C252 1.461 . S
C255 C254 1.474 . S
C256 C251 1.342 . S
C256 C254 1.285 . S
C256 H275 0.930 . S
C257 C260 1.424 . S
C257 C262 1.245 1_655 S
C257 C263 1.428 . S
C258 C261 1.260 1_455 S
C258 C262 1.477 . S
C258 H276 0.932 . S
C259 C260 1.384 . S
C259 C261 1.479 . S
C259 H277 0.929 . S
C260 C257 1.424 . S
C260 C259 1.384 . S
C260 H278 0.928 . S
C261 C258 1.260 1_655 S
C261 C259 1.479 . S
C262 C257 1.245 1_455 S
C262 C258 1.477 . S
C262 H279 0.932 . S
C263 U246 2.882 . S
C263 C257 1.428 . S
C263 O266 1.301 1_655 S
C263 O267 1.282 . S
O264 U246 2.441 . S
O264 C250 1.249 . S
O265 U246 2.420 . S
O265 C250 1.202 . S
O266 U246 2.455 1_455 S
O266 C263 1.301 1_455 S
O267 U246 2.449 . S
O267 C263 1.282 . S
H268 C241 0.931 . S
H269 C243 0.929 . S
H270 C244 0.930 . S
H271 C245 0.931 . S
H272 C252 0.932 . S
H273 C253 0.930 . S
H274 C254 0.929 . S
H275 C256 0.930 . S
H276 C258 0.932 . S
H277 C259 0.929 . S
H278 C260 0.928 . S
H279 C262 0.932 . S
C280 C281 1.264 . S
C280 C285 1.479 . S
C280 C290 1.465 . S
C281 C280 1.264 . S
C281 C283 1.339 . S
C281 H308 0.931 . S
C282 C283 1.395 . S
C282 C284 1.320 . S
C283 C281 1.339 . S
C283 C282 1.395 . S
C283 H309 0.929 . S
C284 C282 1.320 . S
C284 C285 1.405 . S
C284 H310 0.930 . S
C285 C280 1.479 . S
C285 C284 1.405 . S
C285 H311 0.931 . S
U286 O287 2.454 1_565 S
U286 O288 2.458 1_565 S
U286 C289 2.984 1_565 S
U286 C290 2.847 . S
U286 C303 2.882 . S
U286 O304 2.441 . S
U286 O305 2.420 . S
U286 O306 2.455 1_565 S
U286 O307 2.449 . S
O287 U286 2.454 1_545 S
O287 C289 1.353 . S
O288 U286 2.458 1_545 S
O288 C289 1.286 . S
C289 U286 2.984 1_545 S
C289 O287 1.353 . S
C289 O288 1.286 . S
C289 C291 1.363 . S
C290 C280 1.465 . S
C290 U286 2.847 . S
C290 O304 1.249 . S
C290 O305 1.202 . S
C291 C289 1.363 . S
C291 C293 1.408 . S
C291 C296 1.342 . S
C292 C293 1.310 . S
C292 C295 1.461 . S
C292 H312 0.932 . S
C293 C291 1.408 . S
C293 C292 1.310 . S
C293 H313 0.930 . S
C294 C295 1.474 . S
C294 C296 1.285 . S
C294 H314 0.929 . S
C295 C292 1.461 . S
C295 C294 1.474 . S
C296 C291 1.342 . S
C296 C294 1.285 . S
C296 H315 0.930 . S
C297 C300 1.424 . S
C297 C302 1.245 1_565 S
C297 C303 1.428 . S
C298 C301 1.260 1_545 S
C298 C302 1.477 . S
C298 H316 0.932 . S
C299 C300 1.384 . S
C299 C301 1.479 . S
C299 H317 0.929 . S
C300 C297 1.424 . S
C300 C299 1.384 . S
C300 H318 0.928 . S
C301 C298 1.260 1_565 S
C301 C299 1.479 . S
C302 C297 1.245 1_545 S
C302 C298 1.477 . S
C302 H319 0.932 . S
C303 U286 2.882 . S
C303 C297 1.428 . S
C303 O306 1.301 1_565 S
C303 O307 1.282 . S
O304 U286 2.441 . S
O304 C290 1.249 . S
O305 U286 2.420 . S
O305 C290 1.202 . S
O306 U286 2.455 1_545 S
O306 C303 1.301 1_545 S
O307 U286 2.449 . S
O307 C303 1.282 . S
H308 C281 0.931 . S
H309 C283 0.929 . S
H310 C284 0.930 . S
H311 C285 0.931 . S
H312 C292 0.932 . S
H313 C293 0.930 . S
H314 C294 0.929 . S
H315 C296 0.930 . S
H316 C298 0.932 . S
H317 C299 0.929 . S
H318 C300 0.928 . S
H319 C302 0.932 . S
C320 C321 1.264 . S
C320 C325 1.479 . S
C320 C330 1.465 . S
C321 C320 1.264 . S
C321 C323 1.339 . S
C321 H348 0.931 . S
C322 C323 1.395 . S
C322 C324 1.320 . S
C323 C321 1.339 . S
C323 C322 1.395 . S
C323 H349 0.929 . S
C324 C322 1.320 . S
C324 C325 1.405 . S
C324 H350 0.930 . S
C325 C320 1.479 . S
C325 C324 1.405 . S
C325 H351 0.931 . S
U326 O327 2.454 . S
U326 O328 2.458 . S
U326 C329 2.984 . S
U326 C330 2.847 . S
U326 C343 2.882 . S
U326 O344 2.441 . S
U326 O345 2.420 . S
U326 O346 2.455 . S
U326 O347 2.449 . S
O327 U326 2.454 . S
O327 C329 1.353 . S
O328 U326 2.458 . S
O328 C329 1.286 . S
C329 U326 2.984 . S
C329 O327 1.353 . S
C329 O328 1.286 . S
C329 C331 1.363 . S
C330 C320 1.465 . S
C330 U326 2.847 . S
C330 O344 1.249 . S
C330 O345 1.202 . S
C331 C329 1.363 . S
C331 C333 1.408 . S
C331 C336 1.342 . S
C332 C333 1.310 . S
C332 C335 1.461 . S
C332 H352 0.932 . S
C333 C331 1.408 . S
C333 C332 1.310 . S
C333 H353 0.930 . S
C334 C335 1.474 . S
C334 C336 1.285 . S
C334 H354 0.929 . S
C335 C332 1.461 . S
C335 C334 1.474 . S
C336 C331 1.342 . S
C336 C334 1.285 . S
C336 H355 0.930 . S
C337 C340 1.424 . S
C337 C342 1.245 . S
C337 C343 1.428 . S
C338 C341 1.260 . S
C338 C342 1.477 . S
C338 H356 0.932 . S
C339 C340 1.384 . S
C339 C341 1.479 . S
C339 H357 0.929 . S
C340 C337 1.424 . S
C340 C339 1.384 . S
C340 H358 0.928 . S
C341 C338 1.260 . S
C341 C339 1.479 . S
C342 C337 1.245 . S
C342 C338 1.477 . S
C342 H359 0.932 . S
C343 U326 2.882 . S
C343 C337 1.428 . S
C343 O346 1.301 . S
C343 O347 1.282 . S
O344 U326 2.441 . S
O344 C330 1.249 . S
O345 U326 2.420 . S
O345 C330 1.202 . S
O346 U326 2.455 . S
O346 C343 1.301 . S
O347 U326 2.449 . S
O347 C343 1.282 . S
H348 C321 0.931 . S
H349 C323 0.929 . S
H350 C324 0.930 . S
H351 C325 0.931 . S
H352 C332 0.932 . S
H353 C333 0.930 . S
H354 C334 0.929 . S
H355 C336 0.930 . S
H356 C338 0.932 . S
H357 C339 0.929 . S
H358 C340 0.928 . S
H359 C342 0.932 . S
C360 C361 1.349 . S
C360 C362 1.327 . S
C360 H385 0.950 . S
C361 C360 1.349 . S
C361 C377 1.349 . S
C362 C360 1.327 . S
C362 C381 1.429 . S
C362 H386 0.950 . S
C363 C380 1.574 . S
C363 C382 1.368 . S
C363 H387 0.949 . S
H364 C368 0.949 . S
C365 C366 1.349 . S
C365 C367 1.327 . S
C365 H388 0.950 . S
C366 C365 1.349 . S
C366 C378 1.349 . S
C367 C365 1.327 . S
C367 C383 1.429 . S
C367 H389 0.950 . S
C368 H364 0.949 . S
C368 C376 1.574 . S
C368 C384 1.368 . S
H369 C377 0.950 . S
H370 C375 0.950 . S
H371 C376 0.949 . S
H372 C378 0.950 . S
H373 C379 0.950 . S
H374 C380 0.949 . S
C375 H370 0.950 . S
C375 C377 1.327 . S
C375 C381 1.429 . S
C376 C368 1.574 . S
C376 H371 0.949 . S
C376 C382 1.368 . S
C377 C361 1.349 . S
C377 H369 0.950 . S
C377 C375 1.327 . S
C378 C366 1.349 . S
C378 H372 0.950 . S
C378 C379 1.327 . S
C379 H373 0.950 . S
C379 C378 1.327 . S
C379 C383 1.429 . S
C380 C363 1.574 . S
C380 H374 0.949 . S
C380 C384 1.368 . S
C381 C362 1.429 . S
C381 C375 1.429 . S
C381 C382 1.523 . S
C382 C363 1.368 . S
C382 C376 1.368 . S
C382 C381 1.523 . S
C383 C367 1.429 . S
C383 C379 1.429 . S
C383 C384 1.523 . S
C384 C368 1.368 . S
C384 C380 1.368 . S
C384 C383 1.523 . S
H385 C360 0.950 . S
H386 C362 0.950 . S
H387 C363 0.949 . S
H388 C365 0.950 . S
H389 C367 0.950 . S
C390 C391 1.349 . S
C390 C392 1.327 . S
C390 H415 0.950 . S
C391 C390 1.349 . S
C391 C407 1.349 . S
C392 C390 1.327 . S
C392 C411 1.429 . S
C392 H416 0.950 . S
C393 C410 1.574 . S
C393 C412 1.368 . S
C393 H417 0.949 . S
H394 C398 0.949 . S
C395 C396 1.349 . S
C395 C397 1.327 . S
C395 H418 0.950 . S
C396 C395 1.349 . S
C396 C408 1.349 . S
C397 C395 1.327 . S
C397 C413 1.429 . S
C397 H419 0.950 . S
C398 H394 0.949 . S
C398 C406 1.574 . S
C398 C414 1.368 . S
H399 C407 0.950 . S
H400 C405 0.950 . S
H401 C406 0.949 . S
H402 C408 0.950 . S
H403 C409 0.950 . S
H404 C410 0.949 . S
C405 H400 0.950 . S
C405 C407 1.327 . S
C405 C411 1.429 . S
C406 C398 1.574 . S
C406 H401 0.949 . S
C406 C412 1.368 . S
C407 C391 1.349 . S
C407 H399 0.950 . S
C407 C405 1.327 . S
C408 C396 1.349 . S
C408 H402 0.950 . S
C408 C409 1.327 . S
C409 H403 0.950 . S
C409 C408 1.327 . S
C409 C413 1.429 . S
C410 C393 1.574 . S
C410 H404 0.949 . S
C410 C414 1.368 . S
C411 C392 1.429 . S
C411 C405 1.429 . S
C411 C412 1.523 . S
C412 C393 1.368 . S
C412 C406 1.368 . S
C412 C411 1.523 . S
C413 C397 1.429 . S
C413 C409 1.429 . S
C413 C414 1.523 . S
C414 C398 1.368 . S
C414 C410 1.368 . S
C414 C413 1.523 . S
H415 C390 0.950 . S
H416 C392 0.950 . S
H417 C393 0.949 . S
H418 C395 0.950 . S
H419 C397 0.950 . S
C420 C421 1.349 . S
C420 C422 1.327 . S
C420 H445 0.950 . S
C421 C420 1.349 . S
C421 C437 1.349 . S
C422 C420 1.327 . S
C422 C441 1.429 . S
C422 H446 0.950 . S
C423 C440 1.574 . S
C423 C442 1.368 . S
C423 H447 0.949 . S
H424 C428 0.949 . S
C425 C426 1.349 . S
C425 C427 1.327 . S
C425 H448 0.950 . S
C426 C425 1.349 . S
C426 C438 1.349 . S
C427 C425 1.327 . S
C427 C443 1.429 . S
C427 H449 0.950 . S
C428 H424 0.949 . S
C428 C436 1.574 . S
C428 C444 1.368 . S
H429 C437 0.950 . S
H430 C435 0.950 . S
H431 C436 0.949 . S
H432 C438 0.950 . S
H433 C439 0.950 . S
H434 C440 0.949 . S
C435 H430 0.950 . S
C435 C437 1.327 . S
C435 C441 1.429 . S
C436 C428 1.574 . S
C436 H431 0.949 . S
C436 C442 1.368 . S
C437 C421 1.349 . S
C437 H429 0.950 . S
C437 C435 1.327 . S
C438 C426 1.349 . S
C438 H432 0.950 . S
C438 C439 1.327 . S
C439 H433 0.950 . S
C439 C438 1.327 . S
C439 C443 1.429 . S
C440 C423 1.574 . S
C440 H434 0.949 . S
C440 C444 1.368 . S
C441 C422 1.429 . S
C441 C435 1.429 . S
C441 C442 1.523 . S
C442 C423 1.368 . S
C442 C436 1.368 . S
C442 C441 1.523 . S
C443 C427 1.429 . S
C443 C439 1.429 . S
C443 C444 1.523 . S
C444 C428 1.368 . S
C444 C440 1.368 . S
C444 C443 1.523 . S
H445 C420 0.950 . S
H446 C422 0.950 . S
H447 C423 0.949 . S
H448 C425 0.950 . S
H449 C427 0.950 . S
C450 C451 1.349 . S
C450 C452 1.327 . S
C450 H475 0.950 . S
C451 C450 1.349 . S
C451 C467 1.349 . S
C452 C450 1.327 . S
C452 C471 1.429 . S
C452 H476 0.950 . S
C453 C470 1.574 . S
C453 C472 1.368 . S
C453 H477 0.949 . S
H454 C458 0.949 . S
C455 C456 1.349 . S
C455 C457 1.327 . S
C455 H478 0.950 . S
C456 C455 1.349 . S
C456 C468 1.349 . S
C457 C455 1.327 . S
C457 C473 1.429 . S
C457 H479 0.950 . S
C458 H454 0.949 . S
C458 C466 1.574 . S
C458 C474 1.368 . S
H459 C467 0.950 . S
H460 C465 0.950 . S
H461 C466 0.949 . S
H462 C468 0.950 . S
H463 C469 0.950 . S
H464 C470 0.949 . S
C465 H460 0.950 . S
C465 C467 1.327 . S
C465 C471 1.429 . S
C466 C458 1.574 . S
C466 H461 0.949 . S
C466 C472 1.368 . S
C467 C451 1.349 . S
C467 H459 0.950 . S
C467 C465 1.327 . S
C468 C456 1.349 . S
C468 H462 0.950 . S
C468 C469 1.327 . S
C469 H463 0.950 . S
C469 C468 1.327 . S
C469 C473 1.429 . S
C470 C453 1.574 . S
C470 H464 0.949 . S
C470 C474 1.368 . S
C471 C452 1.429 . S
C471 C465 1.429 . S
C471 C472 1.523 . S
C472 C453 1.368 . S
C472 C466 1.368 . S
C472 C471 1.523 . S
C473 C457 1.429 . S
C473 C469 1.429 . S
C473 C474 1.523 . S
C474 C458 1.368 . S
C474 C470 1.368 . S
C474 C473 1.523 . S
H475 C450 0.950 . S
H476 C452 0.950 . S
H477 C453 0.949 . S
H478 C455 0.950 . S
H479 C457 0.950 . S
C480 C481 1.349 . S
C480 C482 1.327 . S
C480 H505 0.950 . S
C481 C480 1.349 . S
C481 C497 1.349 . S
C482 C480 1.327 . S
C482 C501 1.429 . S
C482 H506 0.950 . S
C483 C500 1.574 . S
C483 C502 1.368 . S
C483 H507 0.949 . S
H484 C488 0.949 . S
C485 C486 1.349 . S
C485 C487 1.327 . S
C485 H508 0.950 . S
C486 C485 1.349 . S
C486 C498 1.349 . S
C487 C485 1.327 . S
C487 C503 1.429 . S
C487 H509 0.950 . S
C488 H484 0.949 . S
C488 C496 1.574 . S
C488 C504 1.368 . S
H489 C497 0.950 . S
H490 C495 0.950 . S
H491 C496 0.949 . S
H492 C498 0.950 . S
H493 C499 0.950 . S
H494 C500 0.949 . S
C495 H490 0.950 . S
C495 C497 1.327 . S
C495 C501 1.429 . S
C496 C488 1.574 . S
C496 H491 0.949 . S
C496 C502 1.368 . S
C497 C481 1.349 . S
C497 H489 0.950 . S
C497 C495 1.327 . S
C498 C486 1.349 . S
C498 H492 0.950 . S
C498 C499 1.327 . S
C499 H493 0.950 . S
C499 C498 1.327 . S
C499 C503 1.429 . S
C500 C483 1.574 . S
C500 H494 0.949 . S
C500 C504 1.368 . S
C501 C482 1.429 . S
C501 C495 1.429 . S
C501 C502 1.523 . S
C502 C483 1.368 . S
C502 C496 1.368 . S
C502 C501 1.523 . S
C503 C487 1.429 . S
C503 C499 1.429 . S
C503 C504 1.523 . S
C504 C488 1.368 . S
C504 C500 1.368 . S
C504 C503 1.523 . S
H505 C480 0.950 . S
H506 C482 0.950 . S
H507 C483 0.949 . S
H508 C485 0.950 . S
H509 C487 0.950 . S
C510 C511 1.349 . S
C510 C512 1.327 . S
C510 H535 0.950 . S
C511 C510 1.349 . S
C511 C527 1.349 . S
C512 C510 1.327 . S
C512 C531 1.429 . S
C512 H536 0.950 . S
C513 C530 1.574 . S
C513 C532 1.368 . S
C513 H537 0.949 . S
H514 C518 0.949 . S
C515 C516 1.349 . S
C515 C517 1.327 . S
C515 H538 0.950 . S
C516 C515 1.349 . S
C516 C528 1.349 . S
C517 C515 1.327 . S
C517 C533 1.429 . S
C517 H539 0.950 . S
C518 H514 0.949 . S
C518 C526 1.574 . S
C518 C534 1.368 . S
H519 C527 0.950 . S
H520 C525 0.950 . S
H521 C526 0.949 . S
H522 C528 0.950 . S
H523 C529 0.950 . S
H524 C530 0.949 . S
C525 H520 0.950 . S
C525 C527 1.327 . S
C525 C531 1.429 . S
C526 C518 1.574 . S
C526 H521 0.949 . S
C526 C532 1.368 . S
C527 C511 1.349 . S
C527 H519 0.950 . S
C527 C525 1.327 . S
C528 C516 1.349 . S
C528 H522 0.950 . S
C528 C529 1.327 . S
C529 H523 0.950 . S
C529 C528 1.327 . S
C529 C533 1.429 . S
C530 C513 1.574 . S
C530 H524 0.949 . S
C530 C534 1.368 . S
C531 C512 1.429 . S
C531 C525 1.429 . S
C531 C532 1.523 . S
C532 C513 1.368 . S
C532 C526 1.368 . S
C532 C531 1.523 . S
C533 C517 1.429 . S
C533 C529 1.429 . S
C533 C534 1.523 . S
C534 C518 1.368 . S
C534 C530 1.368 . S
C534 C533 1.523 . S
H535 C510 0.950 . S
H536 C512 0.950 . S
H537 C513 0.949 . S
H538 C515 0.950 . S
H539 C517 0.950 . S
C540 C541 1.349 . S
C540 C542 1.327 . S
C540 H565 0.950 . S
C541 C540 1.349 . S
C541 C557 1.349 . S
C542 C540 1.327 . S
C542 C561 1.429 . S
C542 H566 0.950 . S
C543 C560 1.574 . S
C543 C562 1.368 . S
C543 H567 0.949 . S
H544 C548 0.949 . S
C545 C546 1.349 . S
C545 C547 1.327 . S
C545 H568 0.950 . S
C546 C545 1.349 . S
C546 C558 1.349 . S
C547 C545 1.327 . S
C547 C563 1.429 . S
C547 H569 0.950 . S
C548 H544 0.949 . S
C548 C556 1.574 . S
C548 C564 1.368 . S
H549 C557 0.950 . S
H550 C555 0.950 . S
H551 C556 0.949 . S
H552 C558 0.950 . S
H553 C559 0.950 . S
H554 C560 0.949 . S
C555 H550 0.950 . S
C555 C557 1.327 . S
C555 C561 1.429 . S
C556 C548 1.574 . S
C556 H551 0.949 . S
C556 C562 1.368 . S
C557 C541 1.349 . S
C557 H549 0.950 . S
C557 C555 1.327 . S
C558 C546 1.349 . S
C558 H552 0.950 . S
C558 C559 1.327 . S
C559 H553 0.950 . S
C559 C558 1.327 . S
C559 C563 1.429 . S
C560 C543 1.574 . S
C560 H554 0.949 . S
C560 C564 1.368 . S
C561 C542 1.429 . S
C561 C555 1.429 . S
C561 C562 1.523 . S
C562 C543 1.368 . S
C562 C556 1.368 . S
C562 C561 1.523 . S
C563 C547 1.429 . S
C563 C559 1.429 . S
C563 C564 1.523 . S
C564 C548 1.368 . S
C564 C560 1.368 . S
C564 C563 1.523 . S
H565 C540 0.950 . S
H566 C542 0.950 . S
H567 C543 0.949 . S
H568 C545 0.950 . S
H569 C547 0.950 . S
C570 C571 1.349 . S
C570 C572 1.327 . S
C570 H595 0.950 . S
C571 C570 1.349 . S
C571 C587 1.349 . S
C572 C570 1.327 . S
C572 C591 1.429 . S
C572 H596 0.950 . S
C573 C590 1.574 . S
C573 C592 1.368 . S
C573 H597 0.949 . S
H574 C578 0.949 . S
C575 C576 1.349 . S
C575 C577 1.327 . S
C575 H598 0.950 . S
C576 C575 1.349 . S
C576 C588 1.349 . S
C577 C575 1.327 . S
C577 C593 1.429 . S
C577 H599 0.950 . S
C578 H574 0.949 . S
C578 C586 1.574 . S
C578 C594 1.368 . S
H579 C587 0.950 . S
H580 C585 0.950 . S
H581 C586 0.949 . S
H582 C588 0.950 . S
H583 C589 0.950 . S
H584 C590 0.949 . S
C585 H580 0.950 . S
C585 C587 1.327 . S
C585 C591 1.429 . S
C586 C578 1.574 . S
C586 H581 0.949 . S
C586 C592 1.368 . S
C587 C571 1.349 . S
C587 H579 0.950 . S
C587 C585 1.327 . S
C588 C576 1.349 . S
C588 H582 0.950 . S
C588 C589 1.327 . S
C589 H583 0.950 . S
C589 C588 1.327 . S
C589 C593 1.429 . S
C590 C573 1.574 . S
C590 H584 0.949 . S
C590 C594 1.368 . S
C591 C572 1.429 . S
C591 C585 1.429 . S
C591 C592 1.523 . S
C592 C573 1.368 . S
C592 C586 1.368 . S
C592 C591 1.523 . S
C593 C577 1.429 . S
C593 C589 1.429 . S
C593 C594 1.523 . S
C594 C578 1.368 . S
C594 C590 1.368 . S
C594 C593 1.523 . S
H595 C570 0.950 . S
H596 C572 0.950 . S
H597 C573 0.949 . S
H598 C575 0.950 . S
H599 C577 0.950 . S
C600 C601 1.349 . S
C600 C602 1.327 . S
C600 H625 0.950 . S
C601 C600 1.349 . S
C601 C617 1.349 . S
C602 C600 1.327 . S
C602 C621 1.429 . S
C602 H626 0.950 . S
C603 C620 1.574 . S
C603 C622 1.368 . S
C603 H627 0.949 . S
H604 C608 0.949 . S
C605 C606 1.349 . S
C605 C607 1.327 . S
C605 H628 0.950 . S
C606 C605 1.349 . S
C606 C618 1.349 . S
C607 C605 1.327 . S
C607 C623 1.429 . S
C607 H629 0.950 . S
C608 H604 0.949 . S
C608 C616 1.574 . S
C608 C624 1.368 . S
H609 C617 0.950 . S
H610 C615 0.950 . S
H611 C616 0.949 . S
H612 C618 0.950 . S
H613 C619 0.950 . S
H614 C620 0.949 . S
C615 H610 0.950 . S
C615 C617 1.327 . S
C615 C621 1.429 . S
C616 C608 1.574 . S
C616 H611 0.949 . S
C616 C622 1.368 . S
C617 C601 1.349 . S
C617 H609 0.950 . S
C617 C615 1.327 . S
C618 C606 1.349 . S
C618 H612 0.950 . S
C618 C619 1.327 . S
C619 H613 0.950 . S
C619 C618 1.327 . S
C619 C623 1.429 . S
C620 C603 1.574 . S
C620 H614 0.949 . S
C620 C624 1.368 . S
C621 C602 1.429 . S
C621 C615 1.429 . S
C621 C622 1.523 . S
C622 C603 1.368 . S
C622 C616 1.368 . S
C622 C621 1.523 . S
C623 C607 1.429 . S
C623 C619 1.429 . S
C623 C624 1.523 . S
C624 C608 1.368 . S
C624 C620 1.368 . S
C624 C623 1.523 . S
H625 C600 0.950 . S
H626 C602 0.950 . S
H627 C603 0.949 . S
H628 C605 0.950 . S
H629 C607 0.950 . S
C630 C631 1.349 . S
C630 C632 1.327 . S
C630 H655 0.950 . S
C631 C630 1.349 . S
C631 C647 1.349 . S
C632 C630 1.327 . S
C632 C651 1.429 . S
C632 H656 0.950 . S
C633 C650 1.574 . S
C633 C652 1.368 . S
C633 H657 0.949 . S
H634 C638 0.949 . S
C635 C636 1.349 . S
C635 C637 1.327 . S
C635 H658 0.950 . S
C636 C635 1.349 . S
C636 C648 1.349 . S
C637 C635 1.327 . S
C637 C653 1.429 . S
C637 H659 0.950 . S
C638 H634 0.949 . S
C638 C646 1.574 . S
C638 C654 1.368 . S
H639 C647 0.950 . S
H640 C645 0.950 . S
H641 C646 0.949 . S
H642 C648 0.950 . S
H643 C649 0.950 . S
H644 C650 0.949 . S
C645 H640 0.950 . S
C645 C647 1.327 . S
C645 C651 1.429 . S
C646 C638 1.574 . S
C646 H641 0.949 . S
C646 C652 1.368 . S
C647 C631 1.349 . S
C647 H639 0.950 . S
C647 C645 1.327 . S
C648 C636 1.349 . S
C648 H642 0.950 . S
C648 C649 1.327 . S
C649 H643 0.950 . S
C649 C648 1.327 . S
C649 C653 1.429 . S
C650 C633 1.574 . S
C650 H644 0.949 . S
C650 C654 1.368 . S
C651 C632 1.429 . S
C651 C645 1.429 . S
C651 C652 1.523 . S
C652 C633 1.368 . S
C652 C646 1.368 . S
C652 C651 1.523 . S
C653 C637 1.429 . S
C653 C649 1.429 . S
C653 C654 1.523 . S
C654 C638 1.368 . S
C654 C650 1.368 . S
C654 C653 1.523 . S
H655 C630 0.950 . S
H656 C632 0.950 . S
H657 C633 0.949 . S
H658 C635 0.950 . S
H659 C637 0.950 . S
C660 C661 1.349 . S
C660 C662 1.327 . S
C660 H685 0.950 . S
C661 C660 1.349 . S
C661 C677 1.349 . S
C662 C660 1.327 . S
C662 C681 1.429 . S
C662 H686 0.950 . S
C663 C680 1.574 . S
C663 C682 1.368 . S
C663 H687 0.949 . S
H664 C668 0.949 . S
C665 C666 1.349 . S
C665 C667 1.327 . S
C665 H688 0.950 . S
C666 C665 1.349 . S
C666 C678 1.349 . S
C667 C665 1.327 . S
C667 C683 1.429 . S
C667 H689 0.950 . S
C668 H664 0.949 . S
C668 C676 1.574 . S
C668 C684 1.368 . S
H669 C677 0.950 . S
H670 C675 0.950 . S
H671 C676 0.949 . S
H672 C678 0.950 . S
H673 C679 0.950 . S
H674 C680 0.949 . S
C675 H670 0.950 . S
C675 C677 1.327 . S
C675 C681 1.429 . S
C676 C668 1.574 . S
C676 H671 0.949 . S
C676 C682 1.368 . S
C677 C661 1.349 . S
C677 H669 0.950 . S
C677 C675 1.327 . S
C678 C666 1.349 . S
C678 H672 0.950 . S
C678 C679 1.327 . S
C679 H673 0.950 . S
C679 C678 1.327 . S
C679 C683 1.429 . S
C680 C663 1.574 . S
C680 H674 0.949 . S
C680 C684 1.368 . S
C681 C662 1.429 . S
C681 C675 1.429 . S
C681 C682 1.523 . S
C682 C663 1.368 . S
C682 C676 1.368 . S
C682 C681 1.523 . S
C683 C667 1.429 . S
C683 C679 1.429 . S
C683 C684 1.523 . S
C684 C668 1.368 . S
C684 C680 1.368 . S
C684 C683 1.523 . S
H685 C660 0.950 . S
H686 C662 0.950 . S
H687 C663 0.949 . S
H688 C665 0.950 . S
H689 C667 0.950 . S
C690 C691 1.349 . S
C690 C692 1.327 . S
C690 H715 0.950 . S
C691 C690 1.349 . S
C691 C707 1.349 . S
C692 C690 1.327 . S
C692 C711 1.429 . S
C692 H716 0.950 . S
C693 C710 1.574 . S
C693 C712 1.368 . S
C693 H717 0.949 . S
H694 C698 0.949 . S
C695 C696 1.349 . S
C695 C697 1.327 . S
C695 H718 0.950 . S
C696 C695 1.349 . S
C696 C708 1.349 . S
C697 C695 1.327 . S
C697 C713 1.429 . S
C697 H719 0.950 . S
C698 H694 0.949 . S
C698 C706 1.574 . S
C698 C714 1.368 . S
H699 C707 0.950 . S
H700 C705 0.950 . S
H701 C706 0.949 . S
H702 C708 0.950 . S
H703 C709 0.950 . S
H704 C710 0.949 . S
C705 H700 0.950 . S
C705 C707 1.327 . S
C705 C711 1.429 . S
C706 C698 1.574 . S
C706 H701 0.949 . S
C706 C712 1.368 . S
C707 C691 1.349 . S
C707 H699 0.950 . S
C707 C705 1.327 . S
C708 C696 1.349 . S
C708 H702 0.950 . S
C708 C709 1.327 . S
C709 H703 0.950 . S
C709 C708 1.327 . S
C709 C713 1.429 . S
C710 C693 1.574 . S
C710 H704 0.949 . S
C710 C714 1.368 . S
C711 C692 1.429 . S
C711 C705 1.429 . S
C711 C712 1.523 . S
C712 C693 1.368 . S
C712 C706 1.368 . S
C712 C711 1.523 . S
C713 C697 1.429 . S
C713 C709 1.429 . S
C713 C714 1.523 . S
C714 C698 1.368 . S
C714 C710 1.368 . S
C714 C713 1.523 . S
H715 C690 0.950 . S
H716 C692 0.950 . S
H717 C693 0.949 . S
H718 C695 0.950 . S
H719 C697 0.950 . S
C720 C721 1.349 . S
C720 C722 1.327 . S
C720 H745 0.950 . S
C721 C720 1.349 . S
C721 C737 1.349 . S
C722 C720 1.327 . S
C722 C741 1.429 . S
C722 H746 0.950 . S
C723 C740 1.574 . S
C723 C742 1.368 . S
C723 H747 0.949 1_455 S
H724 C728 0.949 . S
C725 C726 1.353 . S
C725 C727 1.318 1_556 S
C725 H748 0.973 . S
C726 C725 1.353 . S
C726 C738 1.349 1_556 S
C727 C725 1.318 1_554 S
C727 C743 1.429 . S
C727 H749 0.950 1_455 S
C728 H724 0.949 . S
C728 C736 1.574 . S
C728 C744 1.368 . S
H729 C737 0.950 1_655 S
H730 C735 0.950 1_655 S
H731 C736 0.949 . S
H732 C738 0.920 1_556 S
H733 C739 0.950 . S
H734 C740 0.949 1_655 S
C735 H730 0.950 1_455 S
C735 C737 1.327 . S
C735 C741 1.429 . S
C736 C728 1.574 . S
C736 H731 0.949 . S
C736 C742 1.368 . S
C737 C721 1.349 . S
C737 H729 0.950 1_455 S
C737 C735 1.327 . S
C738 C726 1.349 1_554 S
C738 H732 0.920 1_554 S
C738 C739 1.327 . S
C739 H733 0.950 . S
C739 C738 1.327 . S
C739 C743 1.429 . S
C740 C723 1.574 . S
C740 H734 0.949 1_455 S
C740 C744 1.368 . S
C741 C722 1.429 . S
C741 C735 1.429 . S
C741 C742 1.523 . S
C742 C723 1.368 . S
C742 C736 1.368 . S
C742 C741 1.523 . S
C743 C727 1.429 . S
C743 C739 1.429 . S
C743 C744 1.523 . S
C744 C728 1.368 . S
C744 C740 1.368 . S
C744 C743 1.523 . S
H745 C720 0.950 . S
H746 C722 0.950 . S
H747 C723 0.949 1_655 S
H748 C725 0.973 . S
H749 C727 0.950 1_655 S
C750 C751 1.349 1_565 S
C750 C752 1.327 . S
C750 H775 0.950 . S
C751 C750 1.349 1_545 S
C751 C767 1.349 . S
C752 C750 1.327 . S
C752 C771 1.429 1_565 S
C752 H776 0.950 . S
C753 C770 1.574 . S
C753 C772 1.368 . S
C753 H777 0.949 . S
H754 C758 0.949 . S
C755 C756 1.349 . S
C755 C757 1.327 . S
C755 H778 0.950 . S
C756 C755 1.349 . S
C756 C768 1.349 . S
C757 C755 1.327 . S
C757 C773 1.429 . S
C757 H779 0.950 . S
C758 H754 0.949 . S
C758 C766 1.574 . S
C758 C774 1.368 1_565 S
H759 C767 0.950 . S
H760 C765 0.950 . S
H761 C766 0.949 . S
H762 C768 0.950 1_565 S
H763 C769 0.939 1_565 S
H764 C770 0.949 . S
C765 H760 0.950 . S
C765 C767 1.327 . S
C765 C771 1.429 . S
C766 C758 1.574 . S
C766 H761 0.949 . S
C766 C772 1.368 1_565 S
C767 C751 1.349 . S
C767 H759 0.950 . S
C767 C765 1.327 . S
C768 C756 1.349 . S
C768 H762 0.950 1_545 S
C768 C769 1.330 . S
C769 H763 0.939 1_545 S
C769 C768 1.330 . S
C769 C773 1.437 . S
C770 C753 1.574 . S
C770 H764 0.949 . S
C770 C774 1.368 . S
C771 C752 1.429 1_545 S
C771 C765 1.429 . S
C771 C772 1.523 . S
C772 C753 1.368 . S
C772 C766 1.368 1_545 S
C772 C771 1.523 . S
C773 C757 1.429 . S
C773 C769 1.437 . S
C773 C774 1.523 . S
C774 C758 1.368 1_545 S
C774 C770 1.368 . S
C774 C773 1.523 . S
H775 C750 0.950 . S
H776 C752 0.950 . S
H777 C753 0.949 . S
H778 C755 0.950 . S
H779 C757 0.950 . S
C780 C781 1.349 . S
C780 C782 1.327 . S
C780 H805 0.950 . S
C781 C780 1.349 . S
C781 C797 1.349 . S
C782 C780 1.327 . S
C782 C801 1.429 . S
C782 H806 0.950 . S
C783 C800 1.574 . S
C783 C802 1.368 . S
C783 H807 0.949 . S
H784 C788 0.949 . S
C785 C786 1.349 . S
C785 C787 1.327 . S
C785 H808 0.950 . S
C786 C785 1.349 . S
C786 C798 1.349 . S
C787 C785 1.327 . S
C787 C803 1.429 . S
C787 H809 0.950 . S
C788 H784 0.949 . S
C788 C796 1.574 . S
C788 C804 1.368 . S
H789 C797 0.950 . S
H790 C795 0.950 . S
H791 C796 0.949 . S
H792 C798 0.950 . S
H793 C799 0.950 . S
H794 C800 0.949 . S
C795 H790 0.950 . S
C795 C797 1.327 . S
C795 C801 1.429 . S
C796 C788 1.574 . S
C796 H791 0.949 . S
C796 C802 1.368 . S
C797 C781 1.349 . S
C797 H789 0.950 . S
C797 C795 1.327 . S
C798 C786 1.349 . S
C798 H792 0.950 . S
C798 C799 1.327 . S
C799 H793 0.950 . S
C799 C798 1.327 . S
C799 C803 1.429 . S
C800 C783 1.574 . S
C800 H794 0.949 . S
C800 C804 1.368 . S
C801 C782 1.429 . S
C801 C795 1.429 . S
C801 C802 1.523 . S
C802 C783 1.368 . S
C802 C796 1.368 . S
C802 C801 1.523 . S
C803 C787 1.429 . S
C803 C799 1.429 . S
C803 C804 1.523 . S
C804 C788 1.368 . S
C804 C800 1.368 . S
C804 C803 1.523 . S
H805 C780 0.950 . S
H806 C782 0.950 . S
H807 C783 0.949 . S
H808 C785 0.950 . S
H809 C787 0.950 . S
C810 C811 1.349 . S
C810 C812 1.327 . S
C810 H835 0.950 . S
C811 C810 1.349 . S
C811 C827 1.349 1_545 S
C812 C810 1.327 . S
C812 C831 1.429 . S
C812 H836 0.950 . S
C813 C830 1.574 . S
C813 C832 1.368 1_565 S
C813 H837 0.949 . S
H814 C818 0.949 . S
C815 C816 1.349 . S
C815 C817 1.327 . S
C815 H838 0.950 . S
C816 C815 1.349 . S
C816 C828 1.349 1_565 S
C817 C815 1.327 . S
C817 C833 1.458 . S
C817 H839 0.950 . S
C818 H814 0.949 . S
C818 C826 1.574 . S
C818 C834 1.411 . S
H819 C827 0.950 . S
H820 C825 0.950 . S
H821 C826 0.949 . S
H822 C828 0.950 . S
H823 C829 0.950 . S
H824 C830 0.949 . S
C825 H820 0.950 . S
C825 C827 1.327 . S
C825 C831 1.429 1_565 S
C826 C818 1.574 . S
C826 H821 0.949 . S
C826 C832 1.368 . S
C827 C811 1.349 1_565 S
C827 H819 0.950 . S
C827 C825 1.327 . S
C828 C816 1.349 1_545 S
C828 H822 0.950 . S
C828 C829 1.327 . S
C829 H823 0.950 . S
C829 C828 1.327 . S
C829 C833 1.403 1_545 S
C830 C813 1.574 . S
C830 H824 0.949 . S
C830 C834 1.329 1_565 S
C831 C812 1.429 . S
C831 C825 1.429 1_545 S
C831 C832 1.523 . S
C832 C813 1.368 1_545 S
C832 C826 1.368 . S
C832 C831 1.523 . S
C833 C817 1.458 . S
C833 C829 1.403 1_565 S
C833 C834 1.517 1_565 S
C834 C818 1.411 . S
C834 C830 1.329 1_545 S
C834 C833 1.517 1_545 S
H835 C810 0.950 . S
H836 C812 0.950 . S
H837 C813 0.949 . S
H838 C815 0.950 . S
H839 C817 0.950 . S
C840 C841 1.349 . S
C840 C842 1.327 . S
C840 H865 0.950 . S
C841 C840 1.349 . S
C841 C857 1.349 . S
C842 C840 1.327 . S
C842 C861 1.429 . S
C842 H866 0.950 . S
C843 C860 1.574 . S
C843 C862 1.368 . S
C843 H867 0.949 . S
H844 C848 0.949 . S
C845 C846 1.348 . S
C845 C847 1.329 1_554 S
C845 H868 0.949 . S
C846 C845 1.348 . S
C846 C858 1.349 . S
C847 C845 1.329 1_556 S
C847 C863 1.429 . S
C847 H869 0.950 . S
C848 H844 0.949 . S
C848 C856 1.574 . S
C848 C864 1.368 . S
H849 C857 0.950 . S
H850 C855 0.950 . S
H851 C856 0.949 . S
H852 C858 0.950 . S
H853 C859 0.950 . S
H854 C860 0.949 . S
C855 H850 0.950 . S
C855 C857 1.327 . S
C855 C861 1.429 . S
C856 C848 1.574 . S
C856 H851 0.949 . S
C856 C862 1.368 . S
C857 C841 1.349 . S
C857 H849 0.950 . S
C857 C855 1.327 . S
C858 C846 1.349 . S
C858 H852 0.950 . S
C858 C859 1.327 1_554 S
C859 H853 0.950 . S
C859 C858 1.327 1_556 S
C859 C863 1.429 . S
C860 C843 1.574 . S
C860 H854 0.949 . S
C860 C864 1.368 . S
C861 C842 1.429 . S
C861 C855 1.429 . S
C861 C862 1.523 . S
C862 C843 1.368 . S
C862 C856 1.368 . S
C862 C861 1.523 . S
C863 C847 1.429 . S
C863 C859 1.429 . S
C863 C864 1.523 . S
C864 C848 1.368 . S
C864 C860 1.368 . S
C864 C863 1.523 . S
H865 C840 0.950 . S
H866 C842 0.950 . S
H867 C843 0.949 . S
H868 C845 0.949 . S
H869 C847 0.950 . S
C870 C871 1.349 . S
C870 C872 1.327 . S
C870 H895 0.950 . S
C871 C870 1.349 . S
C871 C887 1.349 . S
C872 C870 1.327 . S
C872 C891 1.429 . S
C872 H896 0.950 . S
C873 C890 1.574 . S
C873 C892 1.368 . S
C873 H897 0.949 . S
H874 C878 0.949 . S
C875 C876 1.349 . S
C875 C877 1.326 1_655 S
C875 H898 0.950 . S
C876 C875 1.349 . S
C876 C888 1.349 . S
C877 C875 1.326 1_455 S
C877 C893 1.437 . S
C877 H899 0.955 . S
C878 H874 0.949 . S
C878 C886 1.574 . S
C878 C894 1.368 . S
H879 C887 0.950 . S
H880 C885 0.950 . S
H881 C886 0.949 . S
H882 C888 0.950 . S
H883 C889 0.950 . S
H884 C890 0.949 . S
C885 H880 0.950 . S
C885 C887 1.327 . S
C885 C891 1.429 . S
C886 C878 1.574 . S
C886 H881 0.949 . S
C886 C892 1.368 . S
C887 C871 1.349 . S
C887 H879 0.950 . S
C887 C885 1.327 . S
C888 C876 1.349 . S
C888 H882 0.950 . S
C888 C889 1.327 . S
C889 H883 0.950 . S
C889 C888 1.327 . S
C889 C893 1.413 1_655 S
C890 C873 1.574 . S
C890 H884 0.949 . S
C890 C894 1.368 . S
C891 C872 1.429 . S
C891 C885 1.429 . S
C891 C892 1.523 . S
C892 C873 1.368 . S
C892 C886 1.368 . S
C892 C891 1.523 . S
C893 C877 1.437 . S
C893 C889 1.413 1_455 S
C893 C894 1.526 . S
C894 C878 1.368 . S
C894 C890 1.368 . S
C894 C893 1.526 . S
H895 C870 0.950 . S
H896 C872 0.950 . S
H897 C873 0.949 . S
H898 C875 0.950 . S
H899 C877 0.955 . S
C361 C7 0.521 . S
C366 C335 0.516 . S
C391 C51 1.882 . S
C396 C242 1.858 . S
C421 C87 1.136 . S
C426 C282 1.140 . S
C451 C16 0.275 . S
C456 C322 0.234 . S
C486 C255 2.032 . S
C481 C42 2.080 . S
C516 C295 1.325 . S
C511 C96 1.336 . S
C541 C47 1.134 . S
C546 C162 1.131 . S
C571 C91 3.120 . S
C576 C202 3.079 . S
C601 C2 2.113 . S
C606 C135 2.071 . S
C636 C175 1.297 . S
C631 C56 1.303 . S
C666 C215 2.929 . S
C661 C82 2.969 . S
C691 C11 1.870 . S
C696 C122 1.849 . S
C726 C221 1.740 . S
C721 C19 1.691 . S
C751 C50 1.355 . S
C756 C141 1.389 . S
C781 C99 1.471 . S
C786 C181 1.512 . S
C816 C301 1.493 . S
C811 C59 1.458 . S
C846 C341 1.152 . S
C841 C90 1.136 . S
C871 C10 1.353 . S
C876 C261 1.382 . S
