# Generated by pormake.
# Topology hwx, (6,3)-cn, num edge types: 1
# Building blocks:
#     Node 0, Type 0, BuildingBlock: OJICUG_clean_sbu_0, # of connection points: 6
#     Node 1, Type 0, BuildingBlock: OJICUG_clean_sbu_0, # of connection points: 6
#     Node 2, Type 0, BuildingBlock: OJICUG_clean_sbu_0, # of connection points: 6
#     Node 3, Type 0, BuildingBlock: OJICUG_clean_sbu_0, # of connection points: 6
#     Node 4, Type 1, BuildingBlock: WUSLED_clean_sbu_0, # of connection points: 3
#     Node 5, Type 1, BuildingBlock: WUSLED_clean_sbu_0, # of connection points: 3
#     Node 6, Type 1, BuildingBlock: WUSLED_clean_sbu_0, # of connection points: 3
#     Node 7, Type 1, BuildingBlock: WUSLED_clean_sbu_0, # of connection points: 3
#     Node 8, Type 1, BuildingBlock: WUSLED_clean_sbu_0, # of connection points: 3
#     Node 9, Type 1, BuildingBlock: WUSLED_clean_sbu_0, # of connection points: 3
#     Node 10, Type 1, BuildingBlock: WUSLED_clean_sbu_0, # of connection points: 3
#     Node 11, Type 1, BuildingBlock: WUSLED_clean_sbu_0, # of connection points: 3
#     Edge 12, Type (0, 1), BuildingBlock: EZIPEK_clean_linker_0, # of connection points: 2
#     Edge 13, Type (0, 1), BuildingBlock: EZIPEK_clean_linker_0, # of connection points: 2
#     Edge 14, Type (0, 1), BuildingBlock: EZIPEK_clean_linker_0, # of connection points: 2
#     Edge 15, Type (0, 1), BuildingBlock: EZIPEK_clean_linker_0, # of connection points: 2
#     Edge 16, Type (0, 1), BuildingBlock: EZIPEK_clean_linker_0, # of connection points: 2
#     Edge 17, Type (0, 1), BuildingBlock: EZIPEK_clean_linker_0, # of connection points: 2
#     Edge 18, Type (0, 1), BuildingBlock: EZIPEK_clean_linker_0, # of connection points: 2
#     Edge 19, Type (0, 1), BuildingBlock: EZIPEK_clean_linker_0, # of connection points: 2
#     Edge 20, Type (0, 1), BuildingBlock: EZIPEK_clean_linker_0, # of connection points: 2
#     Edge 21, Type (0, 1), BuildingBlock: EZIPEK_clean_linker_0, # of connection points: 2
#     Edge 22, Type (0, 1), BuildingBlock: EZIPEK_clean_linker_0, # of connection points: 2
#     Edge 23, Type (0, 1), BuildingBlock: EZIPEK_clean_linker_0, # of connection points: 2
#     Edge 24, Type (0, 1), BuildingBlock: EZIPEK_clean_linker_0, # of connection points: 2
#     Edge 25, Type (0, 1), BuildingBlock: EZIPEK_clean_linker_0, # of connection points: 2
#     Edge 26, Type (0, 1), BuildingBlock: EZIPEK_clean_linker_0, # of connection points: 2
#     Edge 27, Type (0, 1), BuildingBlock: EZIPEK_clean_linker_0, # of connection points: 2
#     Edge 28, Type (0, 1), BuildingBlock: EZIPEK_clean_linker_0, # of connection points: 2
#     Edge 29, Type (0, 1), BuildingBlock: EZIPEK_clean_linker_0, # of connection points: 2
#     Edge 30, Type (0, 1), BuildingBlock: EZIPEK_clean_linker_0, # of connection points: 2
#     Edge 31, Type (0, 1), BuildingBlock: EZIPEK_clean_linker_0, # of connection points: 2
#     Edge 32, Type (0, 1), BuildingBlock: EZIPEK_clean_linker_0, # of connection points: 2
#     Edge 33, Type (0, 1), BuildingBlock: EZIPEK_clean_linker_0, # of connection points: 2
#     Edge 34, Type (0, 1), BuildingBlock: EZIPEK_clean_linker_0, # of connection points: 2
#     Edge 35, Type (0, 1), BuildingBlock: EZIPEK_clean_linker_0, # of connection points: 2
# Relax obj value: 0.072
# Max RMSD: 0.099
# Mean RMSD: 0.091
data_MOF--net-hwx--node1-OJICUG_clean_sbu_0--node2-WUSLED_clean_sbu_0--edge1-EZIPEK_clean_linker_0
_symmetry_space_group_name_H-M    P1
_symmetry_Int_Tables_number       1
_symmetry_cell_setting            triclinic
loop_
_symmetry_equiv_pos_as_xyz
'x, y, z'
_cell_length_a     51.815915
_cell_length_b     51.991796
_cell_length_c     23.155509
_cell_angle_alpha  90.494345
_cell_angle_beta   90.549105
_cell_angle_gamma 89.97494
loop_
_atom_site_label
_atom_site_type_symbol
_atom_site_fract_x
_atom_site_fract_y
_atom_site_fract_z
_atom_type_partial_charge
Sc0 Sc 0.2325 0.23021 0.08617 0.0
Sc1 Sc 0.18925 0.18965 0.00981 0.0
Sc2 Sc 0.23085 0.2307 0.93451 0.0
O3 O 0.21742 0.21685 0.01011 0.0
C4 C 0.22828 0.28138 0.01052 0.0
C5 C 0.17264 0.22769 0.11445 0.0
C6 C 0.17017 0.22524 0.90565 0.0
C7 C 0.22547 0.17033 0.11362 0.0
C8 C 0.28306 0.22566 0.01006 0.0
C9 C 0.22537 0.17078 0.90594 0.0
O10 O 0.23383 0.26975 0.05717 0.0
O11 O 0.16807 0.20932 0.07873 0.0
O12 O 0.19285 0.23342 0.89622 0.0
O13 O 0.2329 0.19294 0.12685 0.0
O14 O 0.27097 0.23071 0.96333 0.0
O15 O 0.20729 0.16731 0.94191 0.0
O16 O 0.27163 0.22297 0.05811 0.0
O17 O 0.21092 0.16591 0.07004 0.0
O18 O 0.23675 0.1923 0.89963 0.0
O19 O 0.19473 0.23809 0.12057 0.0
O20 O 0.22508 0.26975 0.96255 0.0
O21 O 0.16522 0.20975 0.94655 0.0
Sc22 Sc 0.2768 0.73107 0.43465 0.0
Sc23 Sc 0.32101 0.69119 0.50901 0.0
Sc24 Sc 0.27975 0.7336 0.58546 0.0
O25 O 0.29268 0.71866 0.50978 0.0
C26 C 0.28083 0.7839 0.50591 0.0
C27 C 0.33784 0.7274 0.40528 0.0
C28 C 0.33975 0.72821 0.6139 0.0
C29 C 0.28385 0.67147 0.40583 0.0
C30 C 0.22685 0.72764 0.51357 0.0
C31 C 0.28436 0.67303 0.61144 0.0
O32 O 0.2777 0.77119 0.45933 0.0
O33 O 0.34349 0.71218 0.44645 0.0
O34 O 0.31794 0.73887 0.62024 0.0
O35 O 0.27209 0.69276 0.40307 0.0
O36 O 0.23932 0.73038 0.56081 0.0
O37 O 0.3004 0.66803 0.57136 0.0
O38 O 0.23774 0.72751 0.46465 0.0
O39 O 0.30306 0.66815 0.43976 0.0
O40 O 0.2762 0.69564 0.62282 0.0
O41 O 0.31483 0.73531 0.39543 0.0
O42 O 0.28276 0.77281 0.55467 0.0
O43 O 0.34365 0.7102 0.57727 0.0
Sc44 Sc 0.77708 0.77585 0.9372 0.0
Sc45 Sc 0.81907 0.81983 0.0072 0.0
Sc46 Sc 0.77874 0.77924 0.08891 0.0
O47 O 0.7917 0.79171 0.01108 0.0
C48 C 0.72643 0.78226 0.01589 0.0
C49 C 0.78023 0.83586 0.90485 0.0
C50 C 0.78478 0.83969 0.11371 0.0
C51 C 0.8365 0.7823 0.90343 0.0
C52 C 0.78126 0.7261 0.01688 0.0
C53 C 0.83994 0.78412 0.11095 0.0
O54 O 0.73752 0.77734 0.96809 0.0
O55 O 0.7979 0.84114 0.94175 0.0
O56 O 0.77663 0.81738 0.12573 0.0
O57 O 0.81439 0.77205 0.89739 0.0
O58 O 0.77767 0.73886 0.06328 0.0
O59 O 0.84308 0.80095 0.07182 0.0
O60 O 0.78299 0.73704 0.9681 0.0
O61 O 0.84132 0.79964 0.94133 0.0
O62 O 0.81805 0.77384 0.12118 0.0
O63 O 0.77069 0.81338 0.89834 0.0
O64 O 0.73884 0.78464 0.06336 0.0
O65 O 0.79999 0.84393 0.07189 0.0
Sc66 Sc 0.73263 0.27492 0.58342 0.0
Sc67 Sc 0.69156 0.3183 0.5111 0.0
Sc68 Sc 0.73114 0.27599 0.4318 0.0
O69 O 0.71834 0.28975 0.5089 0.0
C70 C 0.7834 0.28031 0.50428 0.0
C71 C 0.7294 0.33455 0.61546 0.0
C72 C 0.72574 0.33656 0.40569 0.0
C73 C 0.67252 0.28239 0.61322 0.0
C74 C 0.72789 0.22402 0.50686 0.0
C75 C 0.67108 0.28173 0.40714 0.0
O76 O 0.77237 0.27513 0.55195 0.0
O77 O 0.71109 0.33913 0.58002 0.0
O78 O 0.73163 0.3136 0.39133 0.0
O79 O 0.69492 0.27328 0.62334 0.0
O80 O 0.73263 0.23591 0.46016 0.0
O81 O 0.66865 0.30057 0.44237 0.0
O82 O 0.72557 0.23581 0.55484 0.0
O83 O 0.6678 0.29809 0.57251 0.0
O84 O 0.69211 0.26931 0.40099 0.0
O85 O 0.74 0.31258 0.62039 0.0
O86 O 0.7709 0.28273 0.45702 0.0
O87 O 0.713 0.34169 0.45107 0.0
C88 C 0.2259 0.56045 0.84697 0.0
C89 C 0.21984 0.5865 0.856 0.0
C90 C 0.24058 0.59736 0.76505 0.0
C91 C 0.22711 0.60489 0.81504 0.0
C92 C 0.24574 0.57124 0.75552 0.0
C93 C 0.23839 0.55301 0.79597 0.0
U94 U 0.21825 0.52292 0.9952 0.0
O95 O 0.19306 0.48902 1.00507 0.0
O96 O 0.23583 0.48448 1.00451 0.0
C97 C 0.2131 0.4735 0.00726 0.0
C98 C 0.22024 0.54004 0.8888 0.0
C99 C 0.21017 0.44567 0.01399 0.0
C100 C 0.19786 0.40446 0.97206 0.0
C101 C 0.19664 0.43133 0.97197 0.0
C102 C 0.22495 0.40609 0.05806 0.0
C103 C 0.21244 0.39177 0.01452 0.0
C104 C 0.22399 0.43292 0.05753 0.0
C105 C 0.23296 0.56765 0.13762 0.0
C106 C 0.2262 0.57908 0.23881 0.0
C107 C 0.26039 0.59939 0.18503 0.0
C108 C 0.25359 0.58502 0.13604 0.0
C109 C 0.24689 0.59651 0.23687 0.0
C110 C 0.21924 0.56475 0.18934 0.0
C111 C 0.2273 0.5513 0.08667 0.0
O112 O 0.24014 0.53043 0.9166 0.0
O113 O 0.19912 0.54117 0.91992 0.0
O114 O 0.20368 0.54713 0.06727 0.0
O115 O 0.24588 0.54124 0.05554 0.0
H116 H 0.21008 0.59263 0.89491 0.0
H117 H 0.22306 0.62503 0.82317 0.0
H118 H 0.25614 0.56505 0.71749 0.0
H119 H 0.24304 0.53296 0.78797 0.0
H120 H 0.18818 0.39361 0.93809 0.0
H121 H 0.18627 0.44092 0.93746 0.0
H122 H 0.2362 0.39649 0.09116 0.0
H123 H 0.2347 0.44374 0.08998 0.0
H124 H 0.21533 0.57683 0.27818 0.0
H125 H 0.27609 0.61307 0.18235 0.0
H126 H 0.26443 0.58757 0.09672 0.0
H127 H 0.20346 0.55114 0.19169 0.0
C128 C 0.95968 0.73888 0.67104 0.0
C129 C 0.93484 0.72848 0.66238 0.0
C130 C 0.91931 0.75073 0.74865 0.0
C131 C 0.91489 0.73425 0.70104 0.0
C132 C 0.94414 0.76095 0.75739 0.0
C133 C 0.96411 0.75501 0.71911 0.0
U134 U 0.9876 0.73057 0.51824 0.0
O135 O 0.02384 0.74498 0.48211 0.0
O136 O 0.01707 0.70337 0.48561 0.0
C137 C 0.03343 0.72185 0.47359 0.0
C138 C 0.98121 0.73343 0.63082 0.0
C139 C 0.06087 0.71801 0.49053 0.0
C140 C 0.09921 0.73104 0.54534 0.0
C141 C 0.07236 0.73178 0.53661 0.0
C142 C 0.10333 0.7015 0.46458 0.0
C143 C 0.11496 0.71643 0.50842 0.0
C144 C 0.07654 0.70235 0.45566 0.0
C145 C 0.93543 0.74073 0.39405 0.0
C146 C 0.93874 0.74636 0.28986 0.0
C147 C 0.89705 0.74916 0.33593 0.0
C148 C 0.90866 0.74415 0.38929 0.0
C149 C 0.91193 0.75076 0.2859 0.0
C150 C 0.95049 0.74152 0.34385 0.0
C151 C 0.9465 0.73825 0.45282 0.0
O152 O 0.98013 0.71172 0.60132 0.0
O153 O 0.98892 0.75292 0.59964 0.0
O154 O 0.96169 0.75684 0.47136 0.0
O155 O 0.95381 0.71533 0.47007 0.0
H156 H 0.93079 0.71606 0.62562 0.0
H157 H 0.89588 0.72619 0.69335 0.0
H158 H 0.948 0.77372 0.79366 0.0
H159 H 0.98306 0.76322 0.72681 0.0
H160 H 0.10783 0.7427 0.57938 0.0
H161 H 0.06075 0.74395 0.56429 0.0
H162 H 0.11513 0.69022 0.43544 0.0
H163 H 0.06819 0.69164 0.41975 0.0
H164 H 0.95057 0.74754 0.25167 0.0
H165 H 0.87642 0.75247 0.33388 0.0
H166 H 0.89671 0.74369 0.42743 0.0
H167 H 0.97121 0.739 0.34661 0.0
C168 C 0.77032 0.45704 0.16997 0.0
C169 C 0.7559 0.43548 0.15175 0.0
C170 C 0.75864 0.41734 0.24846 0.0
C171 C 0.75003 0.41585 0.19078 0.0
C172 C 0.77368 0.43849 0.26618 0.0
C173 C 0.77941 0.45818 0.22729 0.0
U174 U 0.77864 0.4864 0.01886 0.0
O175 O 0.76358 0.52247 0.98293 0.0
O176 O 0.80545 0.51658 0.98936 0.0
C177 C 0.78663 0.53244 0.97569 0.0
C178 C 0.77519 0.47895 0.13093 0.0
C179 C 0.78987 0.55993 0.99174 0.0
C180 C 0.7774 0.59787 0.04755 0.0
C181 C 0.77708 0.57108 0.03906 0.0
C182 C 0.80429 0.60261 0.96337 0.0
C183 C 0.79047 0.61388 0.00888 0.0
C184 C 0.80397 0.57589 0.95492 0.0
C185 C 0.77234 0.43738 0.88868 0.0
C186 C 0.75029 0.43506 0.79518 0.0
C187 C 0.78077 0.40188 0.82231 0.0
C188 C 0.78581 0.41481 0.87436 0.0
C189 C 0.7622 0.4113 0.78349 0.0
C190 C 0.75528 0.44802 0.84759 0.0
C191 C 0.77324 0.44634 0.94962 0.0
O192 O 0.79721 0.47864 0.10323 0.0
O193 O 0.75564 0.48618 0.09825 0.0
O194 O 0.75377 0.46022 0.96832 0.0
O195 O 0.79567 0.45363 0.9711 0.0
H196 H 0.7488 0.43405 0.10769 0.0
H197 H 0.73846 0.39966 0.17623 0.0
H198 H 0.78049 0.44002 0.31045 0.0
H199 H 0.79057 0.47458 0.2423 0.0
H200 H 0.76663 0.60621 0.08294 0.0
H201 H 0.76607 0.55921 0.0681 0.0
H202 H 0.81447 0.61458 0.93305 0.0
H203 H 0.81391 0.56776 0.91806 0.0
H204 H 0.73579 0.44256 0.76581 0.0
H205 H 0.79003 0.38353 0.8142 0.0
H206 H 0.79893 0.40615 0.90529 0.0
H207 H 0.74463 0.46542 0.85739 0.0
C208 C 0.05434 0.28131 0.34865 0.0
C209 C 0.08048 0.28316 0.36519 0.0
C210 C 0.09372 0.26677 0.27058 0.0
C211 C 0.10002 0.27604 0.32633 0.0
C212 C 0.06763 0.2656 0.25388 0.0
C213 C 0.0482 0.27282 0.29245 0.0
U214 U 0.02495 0.29 0.50166 0.0
O215 O 0.99191 0.31394 0.52954 0.0
O216 O 0.99006 0.27192 0.53663 0.0
C217 C 0.97795 0.29388 0.54397 0.0
C218 C 0.03297 0.28647 0.38945 0.0
C219 C 0.94977 0.29397 0.53114 0.0
C220 C 0.91161 0.30579 0.4743 0.0
C221 C 0.93862 0.30612 0.48281 0.0
C222 C 0.9067 0.28145 0.56211 0.0
C223 C 0.89545 0.29331 0.51393 0.0
C224 C 0.93347 0.28179 0.57056 0.0
C225 C 0.07248 0.28289 0.63468 0.0
C226 C 0.07329 0.25706 0.72232 0.0
C227 C 0.10733 0.28784 0.70542 0.0
C228 C 0.0951 0.29529 0.65396 0.0
C229 C 0.09717 0.26782 0.73863 0.0
C230 C 0.061 0.26455 0.67077 0.0
C231 C 0.06462 0.2856 0.57308 0.0
O232 O 0.02616 0.26696 0.42154 0.0
O233 O 0.03331 0.30843 0.41815 0.0
O234 O 0.05598 0.30799 0.55515 0.0
O235 O 0.05245 0.26598 0.54934 0.0
H236 H 0.08573 0.28958 0.40835 0.0
H237 H 0.12002 0.27712 0.34019 0.0
H238 H 0.06228 0.25853 0.21128 0.0
H239 H 0.02821 0.27119 0.27873 0.0
H240 H 0.90332 0.31514 0.43684 0.0
H241 H 0.95069 0.31578 0.45185 0.0
H242 H 0.8947 0.27181 0.59329 0.0
H243 H 0.94152 0.27249 0.60837 0.0
H244 H 0.06513 0.24155 0.74719 0.0
H245 H 0.12577 0.29634 0.71703 0.0
H246 H 0.10441 0.3094 0.62702 0.0
H247 H 0.04353 0.25468 0.65724 0.0
C248 C 0.72663 0.95385 0.67043 0.0
C249 C 0.72305 0.92785 0.6549 0.0
C250 C 0.74054 0.91426 0.74833 0.0
C251 C 0.72987 0.90821 0.69369 0.0
C252 C 0.74341 0.94024 0.76411 0.0
C253 C 0.73649 0.95978 0.72564 0.0
U254 U 0.71884 0.98273 0.51707 0.0
O255 O 0.69493 0.01555 0.48768 0.0
O256 O 0.73712 0.01733 0.48154 0.0
C257 C 0.71513 0.02938 0.47338 0.0
C258 C 0.72175 0.97521 0.62953 0.0
C259 C 0.71503 0.05757 0.48537 0.0
C260 C 0.70453 0.09588 0.54265 0.0
C261 C 0.70401 0.0689 0.53483 0.0
C262 C 0.72683 0.10035 0.45198 0.0
C263 C 0.71612 0.11182 0.50125 0.0
C264 C 0.72628 0.07364 0.4442 0.0
C265 C 0.72639 0.93233 0.38875 0.0
C266 C 0.7426 0.93623 0.2905 0.0
C267 C 0.73136 0.89434 0.32751 0.0
C268 C 0.72379 0.90574 0.3796 0.0
C269 C 0.74162 0.9093 0.2832 0.0
C270 C 0.73518 0.94768 0.34318 0.0
C271 C 0.72356 0.94222 0.4486 0.0
O272 O 0.74151 0.98191 0.59795 0.0
O273 O 0.69985 0.97496 0.60026 0.0
O274 O 0.70105 0.95128 0.46495 0.0
O275 O 0.74318 0.95515 0.47032 0.0
H276 H 0.71555 0.92275 0.61251 0.0
H277 H 0.72751 0.8883 0.68053 0.0
H278 H 0.75161 0.9454 0.80583 0.0
H279 H 0.73944 0.97965 0.7386 0.0
H280 H 0.696 0.10431 0.58092 0.0
H281 H 0.69509 0.05701 0.56719 0.0
H282 H 0.73571 0.11214 0.41935 0.0
H283 H 0.73472 0.06546 0.40554 0.0
H284 H 0.7504 0.94814 0.25675 0.0
H285 H 0.73042 0.87361 0.32287 0.0
H286 H 0.71722 0.89349 0.41413 0.0
H287 H 0.73744 0.96824 0.34926 0.0
C288 C 0.55159 0.23704 0.84662 0.0
C289 C 0.57657 0.24254 0.86752 0.0
C290 C 0.59157 0.24944 0.76921 0.0
C291 C 0.59641 0.24868 0.82908 0.0
C292 C 0.56674 0.24339 0.74843 0.0
C293 C 0.54695 0.23723 0.7868 0.0
U294 U 0.5234 0.22959 0.99885 0.0
O295 O 0.48732 0.24469 0.03505 0.0
O296 O 0.49347 0.20296 0.03055 0.0
C297 C 0.47745 0.22174 0.04339 0.0
C298 C 0.52993 0.2321 0.88628 0.0
C299 C 0.44981 0.21822 0.02771 0.0
C300 C 0.41114 0.23104 0.9742 0.0
C301 C 0.43809 0.23157 0.98179 0.0
C302 C 0.40738 0.20277 0.0562 0.0
C303 C 0.39554 0.21717 0.01232 0.0
C304 C 0.43424 0.20332 0.06381 0.0
C305 C 0.57489 0.2384 0.12466 0.0
C306 C 0.57099 0.24838 0.22737 0.0
C307 C 0.61326 0.24309 0.18506 0.0
C308 C 0.60179 0.23778 0.13151 0.0
C309 C 0.59808 0.24902 0.2331 0.0
C310 C 0.55942 0.24324 0.17319 0.0
C311 C 0.56442 0.23635 0.06524 0.0
O312 O 0.53088 0.21047 0.9152 0.0
O313 O 0.52271 0.25177 0.91826 0.0
O314 O 0.54971 0.25528 0.0471 0.0
O315 O 0.55682 0.21361 0.04653 0.0
H316 H 0.58059 0.24251 0.91353 0.0
H317 H 0.61542 0.25332 0.84603 0.0
H318 H 0.56256 0.24391 0.70252 0.0
H319 H 0.52785 0.23305 0.76976 0.0
H320 H 0.40238 0.24226 0.94003 0.0
H321 H 0.44962 0.24318 0.95324 0.0
H322 H 0.39572 0.19199 0.08611 0.0
H323 H 0.44278 0.19295 0.09961 0.0
H324 H 0.55895 0.25293 0.26404 0.0
H325 H 0.63413 0.24349 0.18855 0.0
H326 H 0.61406 0.23418 0.09469 0.0
H327 H 0.5386 0.24386 0.1688 0.0
C328 C 0.27062 0.05017 0.35108 0.0
C329 C 0.2543 0.07073 0.36635 0.0
C330 C 0.25909 0.08934 0.2708 0.0
C331 C 0.2485 0.09007 0.3264 0.0
C332 C 0.27603 0.06929 0.25613 0.0
C333 C 0.28166 0.04983 0.2959 0.0
U334 U 0.27892 0.02265 0.5037 0.0
O335 O 0.26386 0.98719 0.54176 0.0
O336 O 0.30573 0.99295 0.53664 0.0
C337 C 0.28691 0.97727 0.55041 0.0
C338 C 0.27559 0.02855 0.39107 0.0
C339 C 0.29005 0.94972 0.53526 0.0
C340 C 0.27751 0.91173 0.47943 0.0
C341 C 0.27733 0.93851 0.48741 0.0
C342 C 0.30425 0.9071 0.56508 0.0
C343 C 0.2904 0.89579 0.5191 0.0
C344 C 0.30402 0.93384 0.57311 0.0
C345 C 0.27187 0.07397 0.62862 0.0
C346 C 0.25718 0.07131 0.7281 0.0
C347 C 0.2716 0.11207 0.69015 0.0
C348 C 0.27716 0.10016 0.63748 0.0
C349 C 0.26076 0.098 0.73515 0.0
C350 C 0.26256 0.05935 0.67483 0.0
C351 C 0.27317 0.06389 0.56889 0.0
O352 O 0.2976 0.02923 0.41973 0.0
O353 O 0.25608 0.02147 0.42315 0.0
O354 O 0.25384 0.04949 0.55078 0.0
O355 O 0.29572 0.05613 0.54992 0.0
H356 H 0.2457 0.0716 0.40878 0.0
H357 H 0.2355 0.10546 0.3386 0.0
H358 H 0.28442 0.06841 0.21348 0.0
H359 H 0.29434 0.03424 0.28322 0.0
H360 H 0.26681 0.90334 0.44354 0.0
H361 H 0.26648 0.95035 0.45751 0.0
H362 H 0.31436 0.89516 0.59603 0.0
H363 H 0.31394 0.94205 0.61032 0.0
H364 H 0.24881 0.06013 0.76246 0.0
H365 H 0.27452 0.13263 0.69479 0.0
H366 H 0.2843 0.11178 0.60244 0.0
H367 H 0.25833 0.03909 0.66894 0.0
C368 C 0.4558 0.77869 0.16876 0.0
C369 C 0.43147 0.77046 0.14844 0.0
C370 C 0.41693 0.76418 0.24744 0.0
C371 C 0.41221 0.76322 0.18751 0.0
C372 C 0.44097 0.77312 0.26762 0.0
C373 C 0.46021 0.78024 0.22865 0.0
U374 U 0.48538 0.78887 0.01713 0.0
O375 O 0.51804 0.81344 0.99118 0.0
O376 O 0.52035 0.77154 0.97998 0.0
C377 C 0.53219 0.79372 0.9747 0.0
C378 C 0.47744 0.78393 0.12893 0.0
C379 C 0.5603 0.79399 0.98773 0.0
C380 C 0.59817 0.80622 0.04536 0.0
C381 C 0.5712 0.80626 0.03661 0.0
C382 C 0.60351 0.78193 0.95661 0.0
C383 C 0.6145 0.7939 1.00539 0.0
C384 C 0.57677 0.78199 0.94792 0.0
C385 C 0.43793 0.78402 0.88385 0.0
C386 C 0.4395 0.76137 0.79109 0.0
C387 C 0.40237 0.7875 0.81494 0.0
C388 C 0.41402 0.79448 0.86753 0.0
C389 C 0.41444 0.76992 0.77757 0.0
C390 C 0.4512 0.76837 0.84396 0.0
C391 C 0.44565 0.78557 0.94565 0.0
O392 O 0.48401 0.7648 0.09469 0.0
O393 O 0.47744 0.80628 0.10269 0.0
O394 O 0.45419 0.80765 0.9664 0.0
O395 O 0.45793 0.76557 0.96664 0.0
H396 H 0.4276 0.76909 0.10246 0.0
H397 H 0.39377 0.75646 0.17102 0.0
H398 H 0.44506 0.77398 0.31356 0.0
H399 H 0.47883 0.78641 0.24534 0.0
H400 H 0.60629 0.81565 0.08325 0.0
H401 H 0.55897 0.81582 0.06782 0.0
H402 H 0.61569 0.77243 0.92519 0.0
H403 H 0.56889 0.77263 0.90966 0.0
H404 H 0.44909 0.74769 0.76301 0.0
H405 H 0.38298 0.79419 0.80555 0.0
H406 H 0.40335 0.80648 0.89748 0.0
H407 H 0.46972 0.76008 0.85535 0.0
C408 C 0.1375 0.2595 0.1385 0.0
C409 C 0.15157 0.23697 0.15286 0.0
C410 C 0.12657 0.23301 0.24218 0.0
C411 C 0.11415 0.25685 0.23053 0.0
N412 N 0.11025 0.29462 0.17142 0.0
N413 N 0.16204 0.2039 0.22144 0.0
C414 C 0.12024 0.27057 0.17955 0.0
C415 C 0.14679 0.22418 0.2056 0.0
N416 N 0.14025 0.27002 0.08502 0.0
N417 N 0.1183 0.21824 0.28695 0.0
H418 H 0.17641 0.19631 0.19501 0.0
H419 H 0.16172 0.19574 0.26232 0.0
H420 H 0.10353 0.22387 0.31459 0.0
H421 H 0.12452 0.19947 0.29388 0.0
H422 H 0.12858 0.2847 0.06916 0.0
H423 H 0.15312 0.26273 0.05462 0.0
H424 H 0.11598 0.30678 0.13843 0.0
H425 H 0.09772 0.30336 0.20061 0.0
C426 C 0.25412 0.63601 0.62859 0.0
C427 C 0.27492 0.65166 0.64811 0.0
C428 C 0.2743 0.63042 0.74264 0.0
C429 C 0.25179 0.61671 0.72519 0.0
N430 N 0.21918 0.60702 0.65333 0.0
N431 N 0.30628 0.66293 0.72093 0.0
C432 C 0.24151 0.6195 0.66839 0.0
C433 C 0.28536 0.64861 0.70448 0.0
N434 N 0.2468 0.63665 0.57172 0.0
N435 N 0.28588 0.62502 0.79455 0.0
H436 H 0.31727 0.6729 0.69106 0.0
H437 H 0.31267 0.66509 0.76343 0.0
H438 H 0.27862 0.61167 0.82352 0.0
H439 H 0.3036 0.63243 0.80795 0.0
H440 H 0.23374 0.62384 0.55282 0.0
H441 H 0.25529 0.64892 0.54199 0.0
H442 H 0.20921 0.60995 0.61472 0.0
H443 H 0.20945 0.5949 0.68143 0.0
C444 C 0.87747 0.79415 0.17961 0.0
C445 C 0.86281 0.77593 0.14668 0.0
C446 C 0.88513 0.74064 0.19677 0.0
C447 C 0.89893 0.75882 0.23103 0.0
N448 N 0.91406 0.80226 0.24357 0.0
N449 N 0.86019 0.73272 0.10919 0.0
C450 C 0.89707 0.78538 0.21838 0.0
C451 C 0.86893 0.74938 0.15083 0.0
N452 N 0.87184 0.81976 0.17653 0.0
N453 N 0.88694 0.71507 0.20911 0.0
H454 H 0.84936 0.73887 0.07363 0.0
H455 H 0.8659 0.71354 0.10662 0.0
H456 H 0.89959 0.70798 0.24051 0.0
H457 H 0.87499 0.70115 0.19033 0.0
H458 H 0.87916 0.83345 0.20539 0.0
H459 H 0.85876 0.82736 0.14702 0.0
H460 H 0.91568 0.82143 0.23142 0.0
H461 H 0.92831 0.79654 0.27287 0.0
C462 C 0.72733 0.35472 0.7138 0.0
C463 C 0.73709 0.35521 0.65678 0.0
C464 C 0.76247 0.3939 0.68093 0.0
C465 C 0.75199 0.39378 0.73736 0.0
N466 N 0.72038 0.3777 0.80377 0.0
N467 N 0.7609 0.37683 0.58268 0.0
C468 C 0.73313 0.37529 0.75253 0.0
C469 C 0.75368 0.37539 0.63921 0.0
N470 N 0.71305 0.33417 0.73155 0.0
N471 N 0.78131 0.41125 0.66795 0.0
H472 H 0.75558 0.36307 0.55173 0.0
H473 H 0.77081 0.39235 0.56549 0.0
H474 H 0.7874 0.42552 0.69698 0.0
H475 H 0.79181 0.4108 0.62988 0.0
H476 H 0.70796 0.33115 0.77434 0.0
H477 H 0.70784 0.31893 0.70431 0.0
H478 H 0.70435 0.36672 0.81441 0.0
H479 H 0.72431 0.39223 0.8339 0.0
C480 C 0.63866 0.249 0.37164 0.0
C481 C 0.6486 0.27442 0.36977 0.0
C482 C 0.61733 0.2846 0.29288 0.0
C483 C 0.61132 0.25811 0.28704 0.0
N484 N 0.61629 0.21461 0.32026 0.0
N485 N 0.64864 0.31626 0.32507 0.0
C486 C 0.62182 0.24016 0.32665 0.0
C487 C 0.63795 0.29236 0.33015 0.0
N488 N 0.64462 0.23367 0.41748 0.0
N489 N 0.60352 0.30233 0.26221 0.0
H490 H 0.66429 0.32254 0.34996 0.0
H491 H 0.64351 0.3291 0.29264 0.0
H492 H 0.5886 0.29724 0.23384 0.0
H493 H 0.60515 0.32208 0.26916 0.0
H494 H 0.63632 0.2157 0.42391 0.0
H495 H 0.65601 0.24009 0.45213 0.0
H496 H 0.62576 0.20024 0.34331 0.0
H497 H 0.60306 0.20775 0.28954 0.0
C498 C 0.25739 0.13701 0.87558 0.0
C499 C 0.23294 0.14886 0.86798 0.0
C500 C 0.22432 0.12102 0.78372 0.0
C501 C 0.25028 0.1123 0.78588 0.0
N502 N 0.29184 0.11155 0.83322 0.0
N503 N 0.19268 0.15232 0.81551 0.0
C504 C 0.26687 0.12 0.832 0.0
C505 C 0.21611 0.14061 0.82275 0.0
N506 N 0.27107 0.14137 0.92546 0.0
N507 N 0.20748 0.11049 0.74431 0.0
H508 H 0.18524 0.16556 0.845 0.0
H509 H 0.18109 0.14999 0.77889 0.0
H510 H 0.21289 0.09668 0.71387 0.0
H511 H 0.18767 0.11381 0.74454 0.0
H512 H 0.288 0.13168 0.93629 0.0
H513 H 0.26419 0.15316 0.95864 0.0
H514 H 0.30583 0.11871 0.86162 0.0
H515 H 0.29889 0.09808 0.80364 0.0
C516 C 0.37584 0.71896 0.33879 0.0
C517 C 0.35914 0.73669 0.36714 0.0
C518 C 0.37951 0.77224 0.31475 0.0
C519 C 0.39717 0.75477 0.28919 0.0
N520 N 0.41589 0.71235 0.28702 0.0
N521 N 0.35102 0.78067 0.39496 0.0
C522 C 0.39652 0.72838 0.3045 0.0
C523 C 0.36259 0.76349 0.35859 0.0
N524 N 0.3713 0.69312 0.34209 0.0
N525 N 0.37865 0.79718 0.29679 0.0
H526 H 0.33986 0.77495 0.42983 0.0
H527 H 0.35497 0.80032 0.39466 0.0
H528 H 0.39113 0.80446 0.26585 0.0
H529 H 0.36422 0.80999 0.30927 0.0
H530 H 0.38129 0.67947 0.31786 0.0
H531 H 0.35595 0.68534 0.36485 0.0
H532 H 0.41824 0.69374 0.30257 0.0
H533 H 0.43094 0.71835 0.26074 0.0
C534 C 0.78347 0.86136 0.81298 0.0
C535 C 0.77084 0.85679 0.86608 0.0
C536 C 0.73751 0.88853 0.84048 0.0
C537 C 0.75045 0.89369 0.78793 0.0
N538 N 0.78791 0.8881 0.72807 0.0
N539 N 0.73979 0.87027 0.93666 0.0
C540 C 0.77398 0.88081 0.77508 0.0
C541 C 0.74896 0.87161 0.88163 0.0
N542 N 0.80476 0.84717 0.79913 0.0
N543 N 0.71384 0.89925 0.85028 0.0
H544 H 0.74805 0.8584 0.96786 0.0
H545 H 0.7256 0.88245 0.95292 0.0
H546 H 0.70485 0.91163 0.82113 0.0
H547 H 0.70217 0.89423 0.88477 0.0
H548 H 0.81293 0.84667 0.75826 0.0
H549 H 0.81392 0.83514 0.82867 0.0
H550 H 0.80643 0.88152 0.71921 0.0
H551 H 0.78177 0.90227 0.69948 0.0
C552 C 0.87909 0.75977 0.88579 0.0
C553 C 0.8575 0.77363 0.86382 0.0
C554 C 0.87715 0.77359 0.76747 0.0
C555 C 0.89776 0.75814 0.78827 0.0
N556 N 0.91575 0.73222 0.86447 0.0
N557 N 0.83333 0.78833 0.7805 0.0
C558 C 0.89805 0.75007 0.8468 0.0
C559 C 0.85569 0.77882 0.80366 0.0
N560 N 0.8814 0.75564 0.94384 0.0
N561 N 0.87854 0.78432 0.71387 0.0
H562 H 0.81709 0.79259 0.80488 0.0
H563 H 0.83 0.78975 0.7362 0.0
H564 H 0.89405 0.78139 0.68622 0.0
H565 H 0.86555 0.79811 0.69901 0.0
H566 H 0.89806 0.7484 0.96328 0.0
H567 H 0.86719 0.76083 0.97332 0.0
H568 H 0.91535 0.72345 0.90469 0.0
H569 H 0.92955 0.72437 0.83693 0.0
C570 C 0.76017 0.35811 0.34573 0.0
C571 C 0.7346 0.3582 0.36799 0.0
C572 C 0.72704 0.39975 0.32018 0.0
C573 C 0.75085 0.39734 0.29096 0.0
N574 N 0.78891 0.37239 0.27039 0.0
N575 N 0.69207 0.37766 0.36697 0.0
C576 C 0.76704 0.37592 0.302 0.0
C577 C 0.71762 0.37875 0.35308 0.0
N578 N 0.77842 0.34208 0.36869 0.0
N579 N 0.71345 0.42223 0.31702 0.0
H580 H 0.68372 0.36217 0.38792 0.0
H581 H 0.67851 0.39091 0.35214 0.0
H582 H 0.71941 0.43783 0.29244 0.0
H583 H 0.69758 0.42621 0.34294 0.0
H584 H 0.79784 0.34276 0.35754 0.0
H585 H 0.7749 0.33028 0.40391 0.0
H586 H 0.79986 0.35559 0.27196 0.0
H587 H 0.79494 0.38539 0.23921 0.0
C588 C 0.1272 0.24734 0.88391 0.0
C589 C 0.14925 0.23344 0.86427 0.0
C590 C 0.13389 0.23841 0.76376 0.0
C591 C 0.11392 0.25499 0.78292 0.0
N592 N 0.09194 0.27659 0.86035 0.0
N593 N 0.17421 0.21682 0.7843 0.0
C594 C 0.11051 0.25962 0.84285 0.0
C595 C 0.15269 0.22927 0.80385 0.0
N596 N 0.12226 0.249 0.94167 0.0
N597 N 0.13442 0.23067 0.70712 0.0
H598 H 0.18734 0.20752 0.81123 0.0
H599 H 0.17987 0.21679 0.74127 0.0
H600 H 0.12112 0.23691 0.67617 0.0
H601 H 0.14651 0.21626 0.69153 0.0
H602 H 0.10517 0.25628 0.95852 0.0
H603 H 0.13444 0.24145 0.97319 0.0
H604 H 0.09014 0.28326 0.90262 0.0
H605 H 0.07918 0.28539 0.83152 0.0
C606 C 0.26359 0.65838 0.31089 0.0
C607 C 0.27486 0.65076 0.36454 0.0
C608 C 0.26719 0.60562 0.33553 0.0
C609 C 0.25324 0.61409 0.28615 0.0
N610 N 0.23074 0.64877 0.23948 0.0
N611 N 0.28136 0.61611 0.43294 0.0
C612 C 0.24879 0.64056 0.27849 0.0
C613 C 0.27503 0.62403 0.37855 0.0
N614 N 0.26858 0.68199 0.28806 0.0
N615 N 0.27345 0.58025 0.34089 0.0
H616 H 0.28563 0.62871 0.46682 0.0
H617 H 0.27959 0.59706 0.446 0.0
H618 H 0.26752 0.56631 0.31094 0.0
H619 H 0.28601 0.57348 0.37275 0.0
H620 H 0.26177 0.68745 0.24744 0.0
H621 H 0.28248 0.69447 0.30523 0.0
H622 H 0.22542 0.66806 0.23609 0.0
H623 H 0.21922 0.63603 0.21554 0.0
C624 C 0.38144 0.75242 0.633 0.0
C625 C 0.36105 0.73671 0.65352 0.0
C626 C 0.38044 0.73795 0.75059 0.0
C627 C 0.39846 0.7566 0.73234 0.0
N628 N 0.41556 0.78304 0.65708 0.0
N629 N 0.33845 0.71911 0.73509 0.0
C630 C 0.399 0.7641 0.67354 0.0
C631 C 0.35986 0.73065 0.71316 0.0
N632 N 0.38371 0.75653 0.57505 0.0
N633 N 0.38303 0.72708 0.80389 0.0
H634 H 0.32232 0.71448 0.71004 0.0
H635 H 0.33553 0.71667 0.77916 0.0
H636 H 0.39786 0.73193 0.83277 0.0
H637 H 0.37208 0.71141 0.81699 0.0
H638 H 0.39944 0.76575 0.55672 0.0
H639 H 0.37061 0.74921 0.54463 0.0
H640 H 0.41506 0.79152 0.61651 0.0
H641 H 0.42895 0.79137 0.68552 0.0
C642 C 0.74902 0.86963 0.14425 0.0
C643 C 0.77519 0.86158 0.15002 0.0
C644 C 0.7805 0.8897 0.23552 0.0
C645 C 0.75384 0.89597 0.23272 0.0
N646 N 0.71376 0.89643 0.17982 0.0
N647 N 0.8156 0.86267 0.20191 0.0
C648 C 0.73841 0.88731 0.18543 0.0
C649 C 0.79099 0.87169 0.19525 0.0
N650 N 0.73416 0.8595 0.10048 0.0
N651 N 0.79584 0.90118 0.27667 0.0
H652 H 0.82398 0.85012 0.17235 0.0
H653 H 0.82727 0.86634 0.23783 0.0
H654 H 0.78876 0.91382 0.30792 0.0
H655 H 0.81586 0.8998 0.2777 0.0
H656 H 0.71442 0.86246 0.09572 0.0
H657 H 0.74156 0.84721 0.06887 0.0
H658 H 0.7016 0.89253 0.14488 0.0
H659 H 0.7058 0.90947 0.20918 0.0
C660 C 0.64241 0.24831 0.6498 0.0
C661 C 0.65094 0.27428 0.65112 0.0
C662 C 0.61872 0.28439 0.72538 0.0
C663 C 0.61208 0.25791 0.72836 0.0
N664 N 0.61946 0.21407 0.69817 0.0
N665 N 0.64927 0.31665 0.69414 0.0
C666 C 0.6244 0.2397 0.69171 0.0
C667 C 0.63958 0.29224 0.68987 0.0
N668 N 0.65085 0.23212 0.6071 0.0
N669 N 0.60446 0.30219 0.75498 0.0
H670 H 0.66384 0.32346 0.66759 0.0
H671 H 0.64419 0.32961 0.7266 0.0
H672 H 0.5891 0.29727 0.78149 0.0
H673 H 0.60638 0.32195 0.74965 0.0
H674 H 0.64333 0.21381 0.59973 0.0
H675 H 0.66387 0.23781 0.57557 0.0
H676 H 0.62977 0.19961 0.67722 0.0
H677 H 0.60634 0.20708 0.72809 0.0
C678 C 0.25978 0.14947 0.17691 0.0
C679 C 0.23478 0.14836 0.15045 0.0
C680 C 0.22921 0.1054 0.19263 0.0
C681 C 0.25158 0.10911 0.22733 0.0
N682 N 0.28651 0.13671 0.25816 0.0
N683 N 0.19351 0.1262 0.1445 0.0
C684 C 0.26631 0.13183 0.22139 0.0
C685 C 0.21893 0.12644 0.16083 0.0
N686 N 0.27802 0.16614 0.15721 0.0
N687 N 0.21765 0.0818 0.19004 0.0
H688 H 0.18397 0.14202 0.12728 0.0
H689 H 0.18096 0.11135 0.15509 0.0
H690 H 0.22432 0.06608 0.21359 0.0
H691 H 0.20308 0.07731 0.16027 0.0
H692 H 0.29698 0.16636 0.17261 0.0
H693 H 0.27538 0.17716 0.12024 0.0
H694 H 0.29602 0.15438 0.25969 0.0
H695 H 0.29234 0.1239 0.29018 0.0
C696 C 0.20521 0.3207 0.04837 0.0
C697 C 0.22454 0.30977 0.01221 0.0
C698 C 0.23578 0.35286 0.9773 0.0
C699 C 0.21591 0.36347 0.0119 0.0
N700 N 0.17942 0.35808 0.07402 0.0
N701 N 0.25727 0.31489 0.93959 0.0
C702 C 0.20006 0.34755 0.04587 0.0
C703 C 0.23945 0.32571 0.97564 0.0
N704 N 0.1917 0.30543 0.08513 0.0
N705 N 0.25177 0.36893 0.94775 0.0
H706 H 0.26288 0.29566 0.9418 0.0
H707 H 0.26603 0.32463 0.90598 0.0
H708 H 0.24928 0.38883 0.9467 0.0
H709 H 0.26842 0.36298 0.92674 0.0
H710 H 0.18016 0.31246 0.11826 0.0
H711 H 0.19273 0.28548 0.08449 0.0
H712 H 0.16522 0.34738 0.09429 0.0
H713 H 0.17529 0.37772 0.07369 0.0
C714 C 0.18633 0.70458 0.54514 0.0
C715 C 0.19816 0.72511 0.51488 0.0
C716 C 0.15572 0.73827 0.47706 0.0
C717 C 0.14367 0.7192 0.51107 0.0
N718 N 0.14689 0.68615 0.58301 0.0
N719 N 0.1936 0.76451 0.46145 0.0
C720 C 0.15882 0.70297 0.54693 0.0
C721 C 0.1827 0.74274 0.48328 0.0
N722 N 0.20134 0.68591 0.56968 0.0
N723 N 0.14144 0.7519 0.43789 0.0
H724 H 0.21309 0.76903 0.46675 0.0
H725 H 0.18293 0.77939 0.44316 0.0
H726 H 0.12148 0.75005 0.43342 0.0
H727 H 0.14961 0.76359 0.40668 0.0
H728 H 0.19398 0.66904 0.58692 0.0
H729 H 0.22145 0.68618 0.56862 0.0
H730 H 0.15659 0.6758 0.61482 0.0
H731 H 0.12689 0.6839 0.5839 0.0
C732 C 0.7674 0.68246 0.97788 0.0
C733 C 0.78233 0.69711 0.01858 0.0
C734 C 0.80292 0.65692 0.0524 0.0
C735 C 0.78768 0.64251 0.01264 0.0
N736 N 0.75325 0.64057 0.94226 0.0
N737 N 0.81093 0.69721 0.10231 0.0
C738 C 0.76945 0.65506 0.97643 0.0
C739 C 0.79898 0.68402 0.05831 0.0
N740 N 0.75073 0.69474 0.94115 0.0
N741 N 0.82209 0.64482 0.08281 0.0
H742 H 0.81061 0.71707 0.10688 0.0
H743 H 0.81999 0.68827 0.13709 0.0
H744 H 0.82526 0.62502 0.08031 0.0
H745 H 0.83617 0.65448 0.10689 0.0
H746 H 0.74292 0.6863 0.90401 0.0
H747 H 0.74477 0.7137 0.94725 0.0
H748 H 0.73764 0.64793 0.91918 0.0
H749 H 0.75428 0.62056 0.9395 0.0
C750 C 0.82814 0.2699 0.46655 0.0
C751 C 0.81212 0.28464 0.50407 0.0
C752 C 0.85059 0.30827 0.53989 0.0
C753 C 0.86666 0.29212 0.50586 0.0
N754 N 0.87146 0.25718 0.43806 0.0
N755 N 0.80769 0.31871 0.57486 0.0
C756 C 0.85556 0.27311 0.46885 0.0
C757 C 0.82329 0.30406 0.54036 0.0
N758 N 0.81716 0.25251 0.42907 0.0
N759 N 0.86156 0.32821 0.57031 0.0
H760 H 0.78763 0.31861 0.5714 0.0
H761 H 0.81433 0.33073 0.6079 0.0
H762 H 0.88135 0.3319 0.57025 0.0
H763 H 0.85127 0.3422 0.59268 0.0
H764 H 0.82687 0.244 0.39476 0.0
H765 H 0.79784 0.24706 0.43067 0.0
H766 H 0.86525 0.24098 0.41526 0.0
H767 H 0.89145 0.25936 0.43738 0.0
C768 C 0.73904 0.17964 0.54567 0.0
C769 C 0.72478 0.19513 0.50588 0.0
C770 C 0.70161 0.15618 0.4718 0.0
C771 C 0.71729 0.14062 0.50791 0.0
N772 N 0.7521 0.13691 0.57678 0.0
N773 N 0.6941 0.19728 0.42642 0.0
C774 C 0.73608 0.15224 0.54477 0.0
C775 C 0.7066 0.18312 0.46754 0.0
N776 N 0.75595 0.19105 0.58368 0.0
N777 N 0.68112 0.14523 0.44313 0.0
H778 H 0.69504 0.2172 0.4242 0.0
H779 H 0.68381 0.18915 0.39202 0.0
H780 H 0.67676 0.12569 0.44574 0.0
H781 H 0.66702 0.15572 0.42129 0.0
H782 H 0.76367 0.18185 0.61965 0.0
H783 H 0.76193 0.2101 0.58039 0.0
H784 H 0.76821 0.14356 0.59949 0.0
H785 H 0.75021 0.11696 0.57824 0.0
C786 C 0.32696 0.2403 0.04585 0.0
C787 C 0.31197 0.22385 0.00913 0.0
C788 C 0.35189 0.20344 0.97324 0.0
C789 C 0.36674 0.21974 0.0101 0.0
N790 N 0.36937 0.25306 0.08271 0.0
N791 N 0.30996 0.19154 0.93356 0.0
C792 C 0.35448 0.23797 0.04687 0.0
C793 C 0.32442 0.20599 0.97144 0.0
N794 N 0.31482 0.25899 0.07763 0.0
N795 N 0.3641 0.18467 0.94195 0.0
H796 H 0.2899 0.19109 0.9339 0.0
H797 H 0.3176 0.18072 0.89983 0.0
H798 H 0.38413 0.18263 0.94142 0.0
H799 H 0.35466 0.17012 0.91908 0.0
H800 H 0.32397 0.27188 0.1055 0.0
H801 H 0.29512 0.26279 0.07438 0.0
H802 H 0.36232 0.26585 0.11341 0.0
H803 H 0.38949 0.25259 0.08294 0.0
C804 C 0.26803 0.827 0.54887 0.0
C805 C 0.28106 0.81293 0.50455 0.0
C806 C 0.30083 0.85335 0.47161 0.0
C807 C 0.28761 0.86723 0.51498 0.0
N808 N 0.25562 0.8684 0.58967 0.0
N809 N 0.30289 0.81541 0.41174 0.0
C810 C 0.2705 0.85432 0.55245 0.0
C811 C 0.29532 0.8268 0.46224 0.0
N812 N 0.25243 0.81434 0.5865 0.0
N813 N 0.31954 0.86533 0.44043 0.0
H814 H 0.29996 0.79629 0.40064 0.0
H815 H 0.31003 0.82582 0.37714 0.0
H816 H 0.32409 0.88476 0.44577 0.0
H817 H 0.33221 0.85548 0.41341 0.0
H818 H 0.24643 0.82207 0.62575 0.0
H819 H 0.24531 0.79588 0.57849 0.0
H820 H 0.24079 0.86077 0.61414 0.0
H821 H 0.25681 0.88836 0.5936 0.0
C822 C 0.6864 0.80551 0.98037 0.0
C823 C 0.69773 0.78621 0.01595 0.0
C824 C 0.65439 0.77386 0.04961 0.0
C825 C 0.6432 0.793 0.01379 0.0
N826 N 0.64803 0.82957 0.95202 0.0
N827 N 0.69296 0.75336 0.08819 0.0
C828 C 0.65912 0.80951 0.98107 0.0
C829 C 0.68183 0.77097 0.0521 0.0
N830 N 0.70178 0.82008 0.94584 0.0
N831 N 0.63859 0.75758 0.07904 0.0
H832 H 0.71237 0.74821 0.08644 0.0
H833 H 0.68327 0.74428 0.12143 0.0
H834 H 0.61857 0.75953 0.07953 0.0
H835 H 0.6449 0.74134 0.10094 0.0
H836 H 0.69493 0.83197 0.91323 0.0
H837 H 0.72184 0.8198 0.94831 0.0
H838 H 0.65829 0.84392 0.9313 0.0
H839 H 0.62819 0.83303 0.95195 0.0
loop_
_geom_bond_atom_site_label_1
_geom_bond_atom_site_label_2
_geom_bond_distance
_geom_bond_site_symmetry_2
_ccdc_geom_bond_type
Sc0 O3 2.025 . S
Sc0 O10 2.105 . S
Sc0 O13 2.105 . S
Sc0 O16 2.105 . S
Sc0 O19 2.105 . S
Sc1 O3 2.025 . S
Sc1 O11 2.113 . S
Sc1 O15 2.097 1_554 S
Sc1 O17 2.113 . S
Sc1 O21 2.097 1_554 S
Sc2 O3 2.025 1_556 S
Sc2 O12 2.105 . S
Sc2 O14 2.105 . S
Sc2 O18 2.105 . S
Sc2 O20 2.105 . S
O3 Sc0 2.025 . S
O3 Sc1 2.025 . S
O3 Sc2 2.025 1_554 S
C4 O10 1.268 . S
C4 O20 1.268 1_554 S
C5 O11 1.268 . S
C5 O19 1.268 . S
C6 O12 1.268 . S
C6 O21 1.268 . S
C7 O13 1.268 . S
C7 O17 1.268 . S
C8 O14 1.268 1_554 S
C8 O16 1.268 . S
C9 O15 1.268 . S
C9 O18 1.268 . S
O10 Sc0 2.105 . S
O10 C4 1.268 . S
O11 Sc1 2.113 . S
O11 C5 1.268 . S
O12 Sc2 2.105 . S
O12 C6 1.268 . S
O13 Sc0 2.105 . S
O13 C7 1.268 . S
O14 Sc2 2.105 . S
O14 C8 1.268 1_556 S
O15 Sc1 2.097 1_556 S
O15 C9 1.268 . S
O16 Sc0 2.105 . S
O16 C8 1.268 . S
O17 Sc1 2.113 . S
O17 C7 1.268 . S
O18 Sc2 2.105 . S
O18 C9 1.268 . S
O19 Sc0 2.105 . S
O19 C5 1.268 . S
O20 Sc2 2.105 . S
O20 C4 1.268 1_556 S
O21 Sc1 2.097 1_556 S
O21 C6 1.268 . S
Sc22 O25 2.025 . S
Sc22 O32 2.105 . S
Sc22 O35 2.105 . S
Sc22 O38 2.105 . S
Sc22 O41 2.105 . S
Sc23 O25 2.025 . S
Sc23 O33 2.105 . S
Sc23 O37 2.105 . S
Sc23 O39 2.105 . S
Sc23 O43 2.105 . S
Sc24 O25 2.025 . S
Sc24 O34 2.105 . S
Sc24 O36 2.105 . S
Sc24 O40 2.105 . S
Sc24 O42 2.105 . S
O25 Sc22 2.025 . S
O25 Sc23 2.025 . S
O25 Sc24 2.025 . S
C26 O32 1.268 . S
C26 O42 1.268 . S
C27 O33 1.268 . S
C27 O41 1.268 . S
C28 O34 1.268 . S
C28 O43 1.268 . S
C29 O35 1.268 . S
C29 O39 1.268 . S
C30 O36 1.268 . S
C30 O38 1.268 . S
C31 O37 1.268 . S
C31 O40 1.268 . S
O32 Sc22 2.105 . S
O32 C26 1.268 . S
O33 Sc23 2.105 . S
O33 C27 1.268 . S
O34 Sc24 2.105 . S
O34 C28 1.268 . S
O35 Sc22 2.105 . S
O35 C29 1.268 . S
O36 Sc24 2.105 . S
O36 C30 1.268 . S
O37 Sc23 2.105 . S
O37 C31 1.268 . S
O38 Sc22 2.105 . S
O38 C30 1.268 . S
O39 Sc23 2.105 . S
O39 C29 1.268 . S
O40 Sc24 2.105 . S
O40 C31 1.268 . S
O41 Sc22 2.105 . S
O41 C27 1.268 . S
O42 Sc24 2.105 . S
O42 C26 1.268 . S
O43 Sc23 2.105 . S
O43 C28 1.268 . S
Sc44 O47 2.025 1_556 S
Sc44 O54 2.105 . S
Sc44 O57 2.105 . S
Sc44 O60 2.105 . S
Sc44 O63 2.105 . S
Sc45 O47 2.025 . S
Sc45 O55 2.105 1_554 S
Sc45 O59 2.105 . S
Sc45 O61 2.105 1_554 S
Sc45 O65 2.105 . S
Sc46 O47 2.025 . S
Sc46 O56 2.105 . S
Sc46 O58 2.105 . S
Sc46 O62 2.105 . S
Sc46 O64 2.105 . S
O47 Sc44 2.025 1_554 S
O47 Sc45 2.025 . S
O47 Sc46 2.025 . S
C48 O54 1.268 1_554 S
C48 O64 1.268 . S
C49 O55 1.268 . S
C49 O63 1.268 . S
C50 O56 1.268 . S
C50 O65 1.268 . S
C51 O57 1.268 . S
C51 O61 1.268 . S
C52 O58 1.268 . S
C52 O60 1.268 1_554 S
C53 O59 1.268 . S
C53 O62 1.268 . S
O54 Sc44 2.105 . S
O54 C48 1.268 1_556 S
O55 Sc45 2.105 1_556 S
O55 C49 1.268 . S
O56 Sc46 2.105 . S
O56 C50 1.268 . S
O57 Sc44 2.105 . S
O57 C51 1.268 . S
O58 Sc46 2.105 . S
O58 C52 1.268 . S
O59 Sc45 2.105 . S
O59 C53 1.268 . S
O60 Sc44 2.105 . S
O60 C52 1.268 1_556 S
O61 Sc45 2.105 1_556 S
O61 C51 1.268 . S
O62 Sc46 2.105 . S
O62 C53 1.268 . S
O63 Sc44 2.105 . S
O63 C49 1.268 . S
O64 Sc46 2.105 . S
O64 C48 1.268 . S
O65 Sc45 2.105 . S
O65 C50 1.268 . S
Sc66 O69 2.025 . S
Sc66 O76 2.105 . S
Sc66 O79 2.105 . S
Sc66 O82 2.105 . S
Sc66 O85 2.105 . S
Sc67 O69 2.025 . S
Sc67 O77 2.105 . S
Sc67 O81 2.105 . S
Sc67 O83 2.105 . S
Sc67 O87 2.105 . S
Sc68 O69 2.025 . S
Sc68 O78 2.105 . S
Sc68 O80 2.105 . S
Sc68 O84 2.105 . S
Sc68 O86 2.105 . S
O69 Sc66 2.025 . S
O69 Sc67 2.025 . S
O69 Sc68 2.025 . S
C70 O76 1.268 . S
C70 O86 1.268 . S
C71 O77 1.268 . S
C71 O85 1.268 . S
C72 O78 1.268 . S
C72 O87 1.268 . S
C73 O79 1.268 . S
C73 O83 1.268 . S
C74 O80 1.268 . S
C74 O82 1.268 . S
C75 O81 1.268 . S
C75 O84 1.268 . S
O76 Sc66 2.105 . S
O76 C70 1.268 . S
O77 Sc67 2.105 . S
O77 C71 1.268 . S
O78 Sc68 2.105 . S
O78 C72 1.268 . S
O79 Sc66 2.105 . S
O79 C73 1.268 . S
O80 Sc68 2.105 . S
O80 C74 1.268 . S
O81 Sc67 2.105 . S
O81 C75 1.268 . S
O82 Sc66 2.105 . S
O82 C74 1.268 . S
O83 Sc67 2.105 . S
O83 C73 1.268 . S
O84 Sc68 2.105 . S
O84 C75 1.268 . S
O85 Sc66 2.105 . S
O85 C71 1.268 . S
O86 Sc68 2.105 . S
O86 C70 1.268 . S
O87 Sc67 2.105 . S
O87 C72 1.268 . S
C88 C89 1.264 . S
C88 C93 1.479 . S
C88 C98 1.465 . S
C89 C88 1.264 . S
C89 C91 1.339 . S
C89 H116 0.931 . S
C90 C91 1.395 . S
C90 C92 1.320 . S
C91 C89 1.339 . S
C91 C90 1.395 . S
C91 H117 0.929 . S
C92 C90 1.320 . S
C92 C93 1.405 . S
C92 H118 0.930 . S
C93 C88 1.479 . S
C93 C92 1.405 . S
C93 H119 0.931 . S
U94 O95 2.454 . S
U94 O96 2.458 1_556 S
U94 C97 2.984 . S
U94 C98 2.847 . S
U94 C111 2.882 1_556 S
U94 O112 2.441 . S
U94 O113 2.420 . S
U94 O114 2.455 1_556 S
U94 O115 2.449 1_556 S
O95 U94 2.454 . S
O95 C97 1.353 . S
O96 U94 2.458 1_554 S
O96 C97 1.286 1_554 S
C97 U94 2.984 . S
C97 O95 1.353 . S
C97 O96 1.286 1_556 S
C97 C99 1.363 . S
C98 C88 1.465 . S
C98 U94 2.847 . S
C98 O112 1.249 . S
C98 O113 1.202 . S
C99 C97 1.363 . S
C99 C101 1.417 . S
C99 C104 1.332 1_556 S
C100 C101 1.310 . S
C100 C103 1.461 1_556 S
C100 H120 0.932 . S
C101 C99 1.417 . S
C101 C100 1.310 . S
C101 H121 0.930 . S
C102 C103 1.474 . S
C102 C104 1.285 . S
C102 H122 0.929 . S
C103 C100 1.461 1_554 S
C103 C102 1.474 . S
C104 C99 1.332 1_554 S
C104 C102 1.285 . S
C104 H123 0.930 . S
C105 C108 1.424 . S
C105 C110 1.245 . S
C105 C111 1.428 . S
C106 C109 1.260 . S
C106 C110 1.477 . S
C106 H124 0.932 . S
C107 C108 1.384 . S
C107 C109 1.479 . S
C107 H125 0.929 . S
C108 C105 1.424 . S
C108 C107 1.384 . S
C108 H126 0.928 . S
C109 C106 1.260 . S
C109 C107 1.479 . S
C110 C105 1.245 . S
C110 C106 1.477 . S
C110 H127 0.932 . S
C111 U94 2.882 1_554 S
C111 C105 1.428 . S
C111 O114 1.301 . S
C111 O115 1.282 . S
O112 U94 2.441 . S
O112 C98 1.249 . S
O113 U94 2.420 . S
O113 C98 1.202 . S
O114 U94 2.455 1_554 S
O114 C111 1.301 . S
O115 U94 2.449 1_554 S
O115 C111 1.282 . S
H116 C89 0.931 . S
H117 C91 0.929 . S
H118 C92 0.930 . S
H119 C93 0.931 . S
H120 C100 0.932 . S
H121 C101 0.930 . S
H122 C102 0.929 . S
H123 C104 0.930 . S
H124 C106 0.932 . S
H125 C107 0.929 . S
H126 C108 0.928 . S
H127 C110 0.932 . S
C128 C129 1.264 . S
C128 C133 1.479 . S
C128 C138 1.465 . S
C129 C128 1.264 . S
C129 C131 1.339 . S
C129 H156 0.931 . S
C130 C131 1.395 . S
C130 C132 1.320 . S
C131 C129 1.339 . S
C131 C130 1.395 . S
C131 H157 0.929 . S
C132 C130 1.320 . S
C132 C133 1.405 . S
C132 H158 0.930 . S
C133 C128 1.479 . S
C133 C132 1.405 . S
C133 H159 0.931 . S
U134 O135 2.454 1_655 S
U134 O136 2.458 1_655 S
U134 C137 2.984 1_655 S
U134 C138 2.847 . S
U134 C151 2.882 . S
U134 O152 2.441 . S
U134 O153 2.420 . S
U134 O154 2.455 . S
U134 O155 2.449 . S
O135 U134 2.454 1_455 S
O135 C137 1.353 . S
O136 U134 2.458 1_455 S
O136 C137 1.286 . S
C137 U134 2.984 1_455 S
C137 O135 1.353 . S
C137 O136 1.286 . S
C137 C139 1.363 . S
C138 C128 1.465 . S
C138 U134 2.847 . S
C138 O152 1.249 . S
C138 O153 1.202 . S
C139 C137 1.363 . S
C139 C141 1.408 . S
C139 C144 1.342 . S
C140 C141 1.310 . S
C140 C143 1.461 . S
C140 H160 0.932 . S
C141 C139 1.408 . S
C141 C140 1.310 . S
C141 H161 0.930 . S
C142 C143 1.474 . S
C142 C144 1.285 . S
C142 H162 0.929 . S
C143 C140 1.461 . S
C143 C142 1.474 . S
C144 C139 1.342 . S
C144 C142 1.285 . S
C144 H163 0.930 . S
C145 C148 1.424 . S
C145 C150 1.245 . S
C145 C151 1.428 . S
C146 C149 1.260 . S
C146 C150 1.477 . S
C146 H164 0.932 . S
C147 C148 1.384 . S
C147 C149 1.479 . S
C147 H165 0.929 . S
C148 C145 1.424 . S
C148 C147 1.384 . S
C148 H166 0.928 . S
C149 C146 1.260 . S
C149 C147 1.479 . S
C150 C145 1.245 . S
C150 C146 1.477 . S
C150 H167 0.932 . S
C151 U134 2.882 . S
C151 C145 1.428 . S
C151 O154 1.301 . S
C151 O155 1.282 . S
O152 U134 2.441 . S
O152 C138 1.249 . S
O153 U134 2.420 . S
O153 C138 1.202 . S
O154 U134 2.455 . S
O154 C151 1.301 . S
O155 U134 2.449 . S
O155 C151 1.282 . S
H156 C129 0.931 . S
H157 C131 0.929 . S
H158 C132 0.930 . S
H159 C133 0.931 . S
H160 C140 0.932 . S
H161 C141 0.930 . S
H162 C142 0.929 . S
H163 C144 0.930 . S
H164 C146 0.932 . S
H165 C147 0.929 . S
H166 C148 0.928 . S
H167 C150 0.932 . S
C168 C169 1.264 . S
C168 C173 1.479 . S
C168 C178 1.465 . S
C169 C168 1.264 . S
C169 C171 1.339 . S
C169 H196 0.931 . S
C170 C171 1.395 . S
C170 C172 1.320 . S
C171 C169 1.339 . S
C171 C170 1.395 . S
C171 H197 0.929 . S
C172 C170 1.320 . S
C172 C173 1.405 . S
C172 H198 0.930 . S
C173 C168 1.479 . S
C173 C172 1.405 . S
C173 H199 0.931 . S
U174 O175 2.454 . S
U174 O176 2.458 1_554 S
U174 C177 2.984 . S
U174 C178 2.847 . S
U174 C191 2.882 1_554 S
U174 O192 2.441 . S
U174 O193 2.420 . S
U174 O194 2.455 1_554 S
U174 O195 2.449 1_554 S
O175 U174 2.454 . S
O175 C177 1.353 . S
O176 U174 2.458 1_556 S
O176 C177 1.286 1_556 S
C177 U174 2.984 . S
C177 O175 1.353 . S
C177 O176 1.286 1_554 S
C177 C179 1.363 . S
C178 C168 1.465 . S
C178 U174 2.847 . S
C178 O192 1.249 . S
C178 O193 1.202 . S
C179 C177 1.363 . S
C179 C181 1.408 . S
C179 C184 1.342 1_554 S
C180 C181 1.310 . S
C180 C183 1.461 . S
C180 H200 0.932 . S
C181 C179 1.408 . S
C181 C180 1.310 . S
C181 H201 0.930 . S
C182 C183 1.474 1_556 S
C182 C184 1.285 . S
C182 H202 0.929 . S
C183 C180 1.461 . S
C183 C182 1.474 1_554 S
C184 C179 1.342 1_556 S
C184 C182 1.285 . S
C184 H203 0.930 . S
C185 C188 1.424 . S
C185 C190 1.245 . S
C185 C191 1.428 . S
C186 C189 1.260 . S
C186 C190 1.477 . S
C186 H204 0.932 . S
C187 C188 1.384 . S
C187 C189 1.479 . S
C187 H205 0.929 . S
C188 C185 1.424 . S
C188 C187 1.384 . S
C188 H206 0.928 . S
C189 C186 1.260 . S
C189 C187 1.479 . S
C190 C185 1.245 . S
C190 C186 1.477 . S
C190 H207 0.932 . S
C191 U174 2.882 1_556 S
C191 C185 1.428 . S
C191 O194 1.301 . S
C191 O195 1.282 . S
O192 U174 2.441 . S
O192 C178 1.249 . S
O193 U174 2.420 . S
O193 C178 1.202 . S
O194 U174 2.455 1_556 S
O194 C191 1.301 . S
O195 U174 2.449 1_556 S
O195 C191 1.282 . S
H196 C169 0.931 . S
H197 C171 0.929 . S
H198 C172 0.930 . S
H199 C173 0.931 . S
H200 C180 0.932 . S
H201 C181 0.930 . S
H202 C182 0.929 . S
H203 C184 0.930 . S
H204 C186 0.932 . S
H205 C187 0.929 . S
H206 C188 0.928 . S
H207 C190 0.932 . S
C208 C209 1.264 . S
C208 C213 1.479 . S
C208 C218 1.465 . S
C209 C208 1.264 . S
C209 C211 1.339 . S
C209 H236 0.931 . S
C210 C211 1.395 . S
C210 C212 1.320 . S
C211 C209 1.339 . S
C211 C210 1.395 . S
C211 H237 0.929 . S
C212 C210 1.320 . S
C212 C213 1.405 . S
C212 H238 0.930 . S
C213 C208 1.479 . S
C213 C212 1.405 . S
C213 H239 0.931 . S
U214 O215 2.454 1_455 S
U214 O216 2.458 1_455 S
U214 C217 2.984 1_455 S
U214 C218 2.847 . S
U214 C231 2.882 . S
U214 O232 2.441 . S
U214 O233 2.420 . S
U214 O234 2.455 . S
U214 O235 2.449 . S
O215 U214 2.454 1_655 S
O215 C217 1.353 . S
O216 U214 2.458 1_655 S
O216 C217 1.286 . S
C217 U214 2.984 1_655 S
C217 O215 1.353 . S
C217 O216 1.286 . S
C217 C219 1.363 . S
C218 C208 1.465 . S
C218 U214 2.847 . S
C218 O232 1.249 . S
C218 O233 1.202 . S
C219 C217 1.363 . S
C219 C221 1.408 . S
C219 C224 1.342 . S
C220 C221 1.310 . S
C220 C223 1.461 . S
C220 H240 0.932 . S
C221 C219 1.408 . S
C221 C220 1.310 . S
C221 H241 0.930 . S
C222 C223 1.474 . S
C222 C224 1.285 . S
C222 H242 0.929 . S
C223 C220 1.461 . S
C223 C222 1.474 . S
C224 C219 1.342 . S
C224 C222 1.285 . S
C224 H243 0.930 . S
C225 C228 1.424 . S
C225 C230 1.245 . S
C225 C231 1.428 . S
C226 C229 1.260 . S
C226 C230 1.477 . S
C226 H244 0.932 . S
C227 C228 1.384 . S
C227 C229 1.479 . S
C227 H245 0.929 . S
C228 C225 1.424 . S
C228 C227 1.384 . S
C228 H246 0.928 . S
C229 C226 1.260 . S
C229 C227 1.479 . S
C230 C225 1.245 . S
C230 C226 1.477 . S
C230 H247 0.932 . S
C231 U214 2.882 . S
C231 C225 1.428 . S
C231 O234 1.301 . S
C231 O235 1.282 . S
O232 U214 2.441 . S
O232 C218 1.249 . S
O233 U214 2.420 . S
O233 C218 1.202 . S
O234 U214 2.455 . S
O234 C231 1.301 . S
O235 U214 2.449 . S
O235 C231 1.282 . S
H236 C209 0.931 . S
H237 C211 0.929 . S
H238 C212 0.930 . S
H239 C213 0.931 . S
H240 C220 0.932 . S
H241 C221 0.930 . S
H242 C222 0.929 . S
H243 C224 0.930 . S
H244 C226 0.932 . S
H245 C227 0.929 . S
H246 C228 0.928 . S
H247 C230 0.932 . S
C248 C249 1.264 . S
C248 C253 1.479 . S
C248 C258 1.465 . S
C249 C248 1.264 . S
C249 C251 1.339 . S
C249 H276 0.931 . S
C250 C251 1.395 . S
C250 C252 1.320 . S
C251 C249 1.339 . S
C251 C250 1.395 . S
C251 H277 0.929 . S
C252 C250 1.320 . S
C252 C253 1.405 . S
C252 H278 0.930 . S
C253 C248 1.479 . S
C253 C252 1.405 . S
C253 H279 0.931 . S
U254 O255 2.454 1_565 S
U254 O256 2.458 1_565 S
U254 C257 2.984 1_565 S
U254 C258 2.847 . S
U254 C271 2.882 . S
U254 O272 2.441 . S
U254 O273 2.420 . S
U254 O274 2.455 . S
U254 O275 2.449 . S
O255 U254 2.454 1_545 S
O255 C257 1.353 . S
O256 U254 2.458 1_545 S
O256 C257 1.286 . S
C257 U254 2.984 1_545 S
C257 O255 1.353 . S
C257 O256 1.286 . S
C257 C259 1.363 . S
C258 C248 1.465 . S
C258 U254 2.847 . S
C258 O272 1.249 . S
C258 O273 1.202 . S
C259 C257 1.363 . S
C259 C261 1.408 . S
C259 C264 1.342 . S
C260 C261 1.310 . S
C260 C263 1.461 . S
C260 H280 0.932 . S
C261 C259 1.408 . S
C261 C260 1.310 . S
C261 H281 0.930 . S
C262 C263 1.474 . S
C262 C264 1.285 . S
C262 H282 0.929 . S
C263 C260 1.461 . S
C263 C262 1.474 . S
C264 C259 1.342 . S
C264 C262 1.285 . S
C264 H283 0.930 . S
C265 C268 1.424 . S
C265 C270 1.245 . S
C265 C271 1.428 . S
C266 C269 1.260 . S
C266 C270 1.477 . S
C266 H284 0.932 . S
C267 C268 1.384 . S
C267 C269 1.479 . S
C267 H285 0.929 . S
C268 C265 1.424 . S
C268 C267 1.384 . S
C268 H286 0.928 . S
C269 C266 1.260 . S
C269 C267 1.479 . S
C270 C265 1.245 . S
C270 C266 1.477 . S
C270 H287 0.932 . S
C271 U254 2.882 . S
C271 C265 1.428 . S
C271 O274 1.301 . S
C271 O275 1.282 . S
O272 U254 2.441 . S
O272 C258 1.249 . S
O273 U254 2.420 . S
O273 C258 1.202 . S
O274 U254 2.455 . S
O274 C271 1.301 . S
O275 U254 2.449 . S
O275 C271 1.282 . S
H276 C249 0.931 . S
H277 C251 0.929 . S
H278 C252 0.930 . S
H279 C253 0.931 . S
H280 C260 0.932 . S
H281 C261 0.930 . S
H282 C262 0.929 . S
H283 C264 0.930 . S
H284 C266 0.932 . S
H285 C267 0.929 . S
H286 C268 0.928 . S
H287 C270 0.932 . S
C288 C289 1.264 . S
C288 C293 1.479 . S
C288 C298 1.465 . S
C289 C288 1.264 . S
C289 C291 1.339 . S
C289 H316 0.931 . S
C290 C291 1.395 . S
C290 C292 1.320 . S
C291 C289 1.339 . S
C291 C290 1.395 . S
C291 H317 0.929 . S
C292 C290 1.320 . S
C292 C293 1.405 . S
C292 H318 0.930 . S
C293 C288 1.479 . S
C293 C292 1.405 . S
C293 H319 0.931 . S
U294 O295 2.454 . S
U294 O296 2.458 1_556 S
U294 C297 2.984 . S
U294 C298 2.847 . S
U294 C311 2.882 1_556 S
U294 O312 2.441 . S
U294 O313 2.420 . S
U294 O314 2.455 1_556 S
U294 O315 2.449 1_556 S
O295 U294 2.454 . S
O295 C297 1.353 . S
O296 U294 2.458 1_554 S
O296 C297 1.286 1_554 S
C297 U294 2.984 . S
C297 O295 1.353 . S
C297 O296 1.286 1_556 S
C297 C299 1.363 . S
C298 C288 1.465 . S
C298 U294 2.847 . S
C298 O312 1.249 . S
C298 O313 1.202 . S
C299 C297 1.363 . S
C299 C301 1.414 . S
C299 C304 1.336 1_556 S
C300 C301 1.310 . S
C300 C303 1.461 1_556 S
C300 H320 0.932 . S
C301 C299 1.414 . S
C301 C300 1.310 . S
C301 H321 0.930 . S
C302 C303 1.474 . S
C302 C304 1.285 . S
C302 H322 0.929 . S
C303 C300 1.461 1_554 S
C303 C302 1.474 . S
C304 C299 1.336 1_554 S
C304 C302 1.285 . S
C304 H323 0.930 . S
C305 C308 1.424 . S
C305 C310 1.245 . S
C305 C311 1.428 . S
C306 C309 1.260 . S
C306 C310 1.477 . S
C306 H324 0.932 . S
C307 C308 1.384 . S
C307 C309 1.479 . S
C307 H325 0.929 . S
C308 C305 1.424 . S
C308 C307 1.384 . S
C308 H326 0.928 . S
C309 C306 1.260 . S
C309 C307 1.479 . S
C310 C305 1.245 . S
C310 C306 1.477 . S
C310 H327 0.932 . S
C311 U294 2.882 1_554 S
C311 C305 1.428 . S
C311 O314 1.301 . S
C311 O315 1.282 . S
O312 U294 2.441 . S
O312 C298 1.249 . S
O313 U294 2.420 . S
O313 C298 1.202 . S
O314 U294 2.455 1_554 S
O314 C311 1.301 . S
O315 U294 2.449 1_554 S
O315 C311 1.282 . S
H316 C289 0.931 . S
H317 C291 0.929 . S
H318 C292 0.930 . S
H319 C293 0.931 . S
H320 C300 0.932 . S
H321 C301 0.930 . S
H322 C302 0.929 . S
H323 C304 0.930 . S
H324 C306 0.932 . S
H325 C307 0.929 . S
H326 C308 0.928 . S
H327 C310 0.932 . S
C328 C329 1.264 . S
C328 C333 1.479 . S
C328 C338 1.465 . S
C329 C328 1.264 . S
C329 C331 1.339 . S
C329 H356 0.931 . S
C330 C331 1.395 . S
C330 C332 1.320 . S
C331 C329 1.339 . S
C331 C330 1.395 . S
C331 H357 0.929 . S
C332 C330 1.320 . S
C332 C333 1.405 . S
C332 H358 0.930 . S
C333 C328 1.479 . S
C333 C332 1.405 . S
C333 H359 0.931 . S
U334 O335 2.454 1_545 S
U334 O336 2.458 1_545 S
U334 C337 2.984 1_545 S
U334 C338 2.847 . S
U334 C351 2.882 . S
U334 O352 2.441 . S
U334 O353 2.420 . S
U334 O354 2.455 . S
U334 O355 2.449 . S
O335 U334 2.454 1_565 S
O335 C337 1.353 . S
O336 U334 2.458 1_565 S
O336 C337 1.286 . S
C337 U334 2.984 1_565 S
C337 O335 1.353 . S
C337 O336 1.286 . S
C337 C339 1.363 . S
C338 C328 1.465 . S
C338 U334 2.847 . S
C338 O352 1.249 . S
C338 O353 1.202 . S
C339 C337 1.363 . S
C339 C341 1.408 . S
C339 C344 1.342 . S
C340 C341 1.310 . S
C340 C343 1.461 . S
C340 H360 0.932 . S
C341 C339 1.408 . S
C341 C340 1.310 . S
C341 H361 0.930 . S
C342 C343 1.474 . S
C342 C344 1.285 . S
C342 H362 0.929 . S
C343 C340 1.461 . S
C343 C342 1.474 . S
C344 C339 1.342 . S
C344 C342 1.285 . S
C344 H363 0.930 . S
C345 C348 1.424 . S
C345 C350 1.245 . S
C345 C351 1.428 . S
C346 C349 1.260 . S
C346 C350 1.477 . S
C346 H364 0.932 . S
C347 C348 1.384 . S
C347 C349 1.479 . S
C347 H365 0.929 . S
C348 C345 1.424 . S
C348 C347 1.384 . S
C348 H366 0.928 . S
C349 C346 1.260 . S
C349 C347 1.479 . S
C350 C345 1.245 . S
C350 C346 1.477 . S
C350 H367 0.932 . S
C351 U334 2.882 . S
C351 C345 1.428 . S
C351 O354 1.301 . S
C351 O355 1.282 . S
O352 U334 2.441 . S
O352 C338 1.249 . S
O353 U334 2.420 . S
O353 C338 1.202 . S
O354 U334 2.455 . S
O354 C351 1.301 . S
O355 U334 2.449 . S
O355 C351 1.282 . S
H356 C329 0.931 . S
H357 C331 0.929 . S
H358 C332 0.930 . S
H359 C333 0.931 . S
H360 C340 0.932 . S
H361 C341 0.930 . S
H362 C342 0.929 . S
H363 C344 0.930 . S
H364 C346 0.932 . S
H365 C347 0.929 . S
H366 C348 0.928 . S
H367 C350 0.932 . S
C368 C369 1.264 . S
C368 C373 1.479 . S
C368 C378 1.465 . S
C369 C368 1.264 . S
C369 C371 1.339 . S
C369 H396 0.931 . S
C370 C371 1.395 . S
C370 C372 1.320 . S
C371 C369 1.339 . S
C371 C370 1.395 . S
C371 H397 0.929 . S
C372 C370 1.320 . S
C372 C373 1.405 . S
C372 H398 0.930 . S
C373 C368 1.479 . S
C373 C372 1.405 . S
C373 H399 0.931 . S
U374 O375 2.454 . S
U374 O376 2.458 1_554 S
U374 C377 2.984 . S
U374 C378 2.847 . S
U374 C391 2.882 1_554 S
U374 O392 2.441 . S
U374 O393 2.420 . S
U374 O394 2.455 1_554 S
U374 O395 2.449 1_554 S
O375 U374 2.454 . S
O375 C377 1.353 . S
O376 U374 2.458 1_556 S
O376 C377 1.286 1_556 S
C377 U374 2.984 . S
C377 O375 1.353 . S
C377 O376 1.286 1_554 S
C377 C379 1.363 . S
C378 C368 1.465 . S
C378 U374 2.847 . S
C378 O392 1.249 . S
C378 O393 1.202 . S
C379 C377 1.363 . S
C379 C381 1.408 . S
C379 C384 1.342 1_554 S
C380 C381 1.310 . S
C380 C383 1.461 . S
C380 H400 0.932 . S
C381 C379 1.408 . S
C381 C380 1.310 . S
C381 H401 0.930 . S
C382 C383 1.474 1_556 S
C382 C384 1.285 . S
C382 H402 0.929 . S
C383 C380 1.461 . S
C383 C382 1.474 1_554 S
C384 C379 1.342 1_556 S
C384 C382 1.285 . S
C384 H403 0.930 . S
C385 C388 1.424 . S
C385 C390 1.245 . S
C385 C391 1.428 . S
C386 C389 1.260 . S
C386 C390 1.477 . S
C386 H404 0.932 . S
C387 C388 1.384 . S
C387 C389 1.479 . S
C387 H405 0.929 . S
C388 C385 1.424 . S
C388 C387 1.384 . S
C388 H406 0.928 . S
C389 C386 1.260 . S
C389 C387 1.479 . S
C390 C385 1.245 . S
C390 C386 1.477 . S
C390 H407 0.932 . S
C391 U374 2.882 1_556 S
C391 C385 1.428 . S
C391 O394 1.301 . S
C391 O395 1.282 . S
O392 U374 2.441 . S
O392 C378 1.249 . S
O393 U374 2.420 . S
O393 C378 1.202 . S
O394 U374 2.455 1_556 S
O394 C391 1.301 . S
O395 U374 2.449 1_556 S
O395 C391 1.282 . S
H396 C369 0.931 . S
H397 C371 0.929 . S
H398 C372 0.930 . S
H399 C373 0.931 . S
H400 C380 0.932 . S
H401 C381 0.930 . S
H402 C382 0.929 . S
H403 C384 0.930 . S
H404 C386 0.932 . S
H405 C387 0.929 . S
H406 C388 0.928 . S
H407 C390 0.932 . S
C408 C409 1.363 . S
C408 C414 1.379 . S
C408 N416 1.356 . S
C409 C408 1.363 . S
C409 C415 1.363 . S
C410 C411 1.363 . S
C410 C415 1.379 . S
C410 N417 1.356 . S
C411 C410 1.363 . S
C411 C414 1.363 . S
N412 C414 1.356 . S
N412 H424 0.984 . S
N412 H425 0.985 . S
N413 C415 1.356 . S
N413 H418 0.984 . S
N413 H419 0.985 . S
C414 C408 1.379 . S
C414 C411 1.363 . S
C414 N412 1.356 . S
C415 C409 1.363 . S
C415 C410 1.379 . S
C415 N413 1.356 . S
N416 C408 1.356 . S
N416 H422 0.984 . S
N416 H423 0.984 . S
N417 C410 1.356 . S
N417 H420 0.984 . S
N417 H421 0.985 . S
H418 N413 0.984 . S
H419 N413 0.985 . S
H420 N417 0.984 . S
H421 N417 0.985 . S
H422 N416 0.984 . S
H423 N416 0.984 . S
H424 N412 0.984 . S
H425 N412 0.985 . S
C426 C427 1.363 . S
C426 C432 1.379 . S
C426 N434 1.356 . S
C427 C426 1.363 . S
C427 C433 1.363 . S
C428 C429 1.363 . S
C428 C433 1.379 . S
C428 N435 1.356 . S
C429 C428 1.363 . S
C429 C432 1.363 . S
N430 C432 1.356 . S
N430 H442 0.984 . S
N430 H443 0.985 . S
N431 C433 1.356 . S
N431 H436 0.984 . S
N431 H437 0.985 . S
C432 C426 1.379 . S
C432 C429 1.363 . S
C432 N430 1.356 . S
C433 C427 1.363 . S
C433 C428 1.379 . S
C433 N431 1.356 . S
N434 C426 1.356 . S
N434 H440 0.984 . S
N434 H441 0.984 . S
N435 C428 1.356 . S
N435 H438 0.984 . S
N435 H439 0.985 . S
H436 N431 0.984 . S
H437 N431 0.985 . S
H438 N435 0.984 . S
H439 N435 0.985 . S
H440 N434 0.984 . S
H441 N434 0.984 . S
H442 N430 0.984 . S
H443 N430 0.985 . S
C444 C445 1.363 . S
C444 C450 1.379 . S
C444 N452 1.356 . S
C445 C444 1.363 . S
C445 C451 1.363 . S
C446 C447 1.363 . S
C446 C451 1.379 . S
C446 N453 1.356 . S
C447 C446 1.363 . S
C447 C450 1.363 . S
N448 C450 1.356 . S
N448 H460 0.984 . S
N448 H461 0.985 . S
N449 C451 1.356 . S
N449 H454 0.984 . S
N449 H455 0.985 . S
C450 C444 1.379 . S
C450 C447 1.363 . S
C450 N448 1.356 . S
C451 C445 1.363 . S
C451 C446 1.379 . S
C451 N449 1.356 . S
N452 C444 1.356 . S
N452 H458 0.984 . S
N452 H459 0.984 . S
N453 C446 1.356 . S
N453 H456 0.984 . S
N453 H457 0.985 . S
H454 N449 0.984 . S
H455 N449 0.985 . S
H456 N453 0.984 . S
H457 N453 0.985 . S
H458 N452 0.984 . S
H459 N452 0.984 . S
H460 N448 0.984 . S
H461 N448 0.985 . S
C462 C463 1.363 . S
C462 C468 1.379 . S
C462 N470 1.356 . S
C463 C462 1.363 . S
C463 C469 1.363 . S
C464 C465 1.363 . S
C464 C469 1.379 . S
C464 N471 1.356 . S
C465 C464 1.363 . S
C465 C468 1.363 . S
N466 C468 1.356 . S
N466 H478 0.984 . S
N466 H479 0.985 . S
N467 C469 1.356 . S
N467 H472 0.984 . S
N467 H473 0.985 . S
C468 C462 1.379 . S
C468 C465 1.363 . S
C468 N466 1.356 . S
C469 C463 1.363 . S
C469 C464 1.379 . S
C469 N467 1.356 . S
N470 C462 1.356 . S
N470 H476 0.984 . S
N470 H477 0.984 . S
N471 C464 1.356 . S
N471 H474 0.984 . S
N471 H475 0.985 . S
H472 N467 0.984 . S
H473 N467 0.985 . S
H474 N471 0.984 . S
H475 N471 0.985 . S
H476 N470 0.984 . S
H477 N470 0.984 . S
H478 N466 0.984 . S
H479 N466 0.985 . S
C480 C481 1.363 . S
C480 C486 1.379 . S
C480 N488 1.356 . S
C481 C480 1.363 . S
C481 C487 1.363 . S
C482 C483 1.363 . S
C482 C487 1.379 . S
C482 N489 1.356 . S
C483 C482 1.363 . S
C483 C486 1.363 . S
N484 C486 1.356 . S
N484 H496 0.984 . S
N484 H497 0.985 . S
N485 C487 1.356 . S
N485 H490 0.984 . S
N485 H491 0.985 . S
C486 C480 1.379 . S
C486 C483 1.363 . S
C486 N484 1.356 . S
C487 C481 1.363 . S
C487 C482 1.379 . S
C487 N485 1.356 . S
N488 C480 1.356 . S
N488 H494 0.984 . S
N488 H495 0.984 . S
N489 C482 1.356 . S
N489 H492 0.984 . S
N489 H493 0.985 . S
H490 N485 0.984 . S
H491 N485 0.985 . S
H492 N489 0.984 . S
H493 N489 0.985 . S
H494 N488 0.984 . S
H495 N488 0.984 . S
H496 N484 0.984 . S
H497 N484 0.985 . S
C498 C499 1.363 . S
C498 C504 1.379 . S
C498 N506 1.356 . S
C499 C498 1.363 . S
C499 C505 1.363 . S
C500 C501 1.363 . S
C500 C505 1.379 . S
C500 N507 1.356 . S
C501 C500 1.363 . S
C501 C504 1.363 . S
N502 C504 1.356 . S
N502 H514 0.984 . S
N502 H515 0.985 . S
N503 C505 1.356 . S
N503 H508 0.984 . S
N503 H509 0.985 . S
C504 C498 1.379 . S
C504 C501 1.363 . S
C504 N502 1.356 . S
C505 C499 1.363 . S
C505 C500 1.379 . S
C505 N503 1.356 . S
N506 C498 1.356 . S
N506 H512 0.984 . S
N506 H513 0.984 . S
N507 C500 1.356 . S
N507 H510 0.984 . S
N507 H511 0.985 . S
H508 N503 0.984 . S
H509 N503 0.985 . S
H510 N507 0.984 . S
H511 N507 0.985 . S
H512 N506 0.984 . S
H513 N506 0.984 . S
H514 N502 0.984 . S
H515 N502 0.985 . S
C516 C517 1.363 . S
C516 C522 1.379 . S
C516 N524 1.356 . S
C517 C516 1.363 . S
C517 C523 1.363 . S
C518 C519 1.363 . S
C518 C523 1.379 . S
C518 N525 1.356 . S
C519 C518 1.363 . S
C519 C522 1.363 . S
N520 C522 1.356 . S
N520 H532 0.984 . S
N520 H533 0.985 . S
N521 C523 1.356 . S
N521 H526 0.984 . S
N521 H527 0.985 . S
C522 C516 1.379 . S
C522 C519 1.363 . S
C522 N520 1.356 . S
C523 C517 1.363 . S
C523 C518 1.379 . S
C523 N521 1.356 . S
N524 C516 1.356 . S
N524 H530 0.984 . S
N524 H531 0.984 . S
N525 C518 1.356 . S
N525 H528 0.984 . S
N525 H529 0.985 . S
H526 N521 0.984 . S
H527 N521 0.985 . S
H528 N525 0.984 . S
H529 N525 0.985 . S
H530 N524 0.984 . S
H531 N524 0.984 . S
H532 N520 0.984 . S
H533 N520 0.985 . S
C534 C535 1.363 . S
C534 C540 1.379 . S
C534 N542 1.356 . S
C535 C534 1.363 . S
C535 C541 1.363 . S
C536 C537 1.363 . S
C536 C541 1.379 . S
C536 N543 1.356 . S
C537 C536 1.363 . S
C537 C540 1.363 . S
N538 C540 1.356 . S
N538 H550 0.984 . S
N538 H551 0.985 . S
N539 C541 1.356 . S
N539 H544 0.984 . S
N539 H545 0.985 . S
C540 C534 1.379 . S
C540 C537 1.363 . S
C540 N538 1.356 . S
C541 C535 1.363 . S
C541 C536 1.379 . S
C541 N539 1.356 . S
N542 C534 1.356 . S
N542 H548 0.984 . S
N542 H549 0.984 . S
N543 C536 1.356 . S
N543 H546 0.984 . S
N543 H547 0.985 . S
H544 N539 0.984 . S
H545 N539 0.985 . S
H546 N543 0.984 . S
H547 N543 0.985 . S
H548 N542 0.984 . S
H549 N542 0.984 . S
H550 N538 0.984 . S
H551 N538 0.985 . S
C552 C553 1.363 . S
C552 C558 1.379 . S
C552 N560 1.356 . S
C553 C552 1.363 . S
C553 C559 1.363 . S
C554 C555 1.363 . S
C554 C559 1.379 . S
C554 N561 1.356 . S
C555 C554 1.363 . S
C555 C558 1.363 . S
N556 C558 1.356 . S
N556 H568 0.984 . S
N556 H569 0.985 . S
N557 C559 1.356 . S
N557 H562 0.984 . S
N557 H563 0.985 . S
C558 C552 1.379 . S
C558 C555 1.363 . S
C558 N556 1.356 . S
C559 C553 1.363 . S
C559 C554 1.379 . S
C559 N557 1.356 . S
N560 C552 1.356 . S
N560 H566 0.984 . S
N560 H567 0.984 . S
N561 C554 1.356 . S
N561 H564 0.984 . S
N561 H565 0.985 . S
H562 N557 0.984 . S
H563 N557 0.985 . S
H564 N561 0.984 . S
H565 N561 0.985 . S
H566 N560 0.984 . S
H567 N560 0.984 . S
H568 N556 0.984 . S
H569 N556 0.985 . S
C570 C571 1.363 . S
C570 C576 1.379 . S
C570 N578 1.356 . S
C571 C570 1.363 . S
C571 C577 1.363 . S
C572 C573 1.363 . S
C572 C577 1.379 . S
C572 N579 1.356 . S
C573 C572 1.363 . S
C573 C576 1.363 . S
N574 C576 1.356 . S
N574 H586 0.984 . S
N574 H587 0.985 . S
N575 C577 1.356 . S
N575 H580 0.984 . S
N575 H581 0.985 . S
C576 C570 1.379 . S
C576 C573 1.363 . S
C576 N574 1.356 . S
C577 C571 1.363 . S
C577 C572 1.379 . S
C577 N575 1.356 . S
N578 C570 1.356 . S
N578 H584 0.984 . S
N578 H585 0.984 . S
N579 C572 1.356 . S
N579 H582 0.984 . S
N579 H583 0.985 . S
H580 N575 0.984 . S
H581 N575 0.985 . S
H582 N579 0.984 . S
H583 N579 0.985 . S
H584 N578 0.984 . S
H585 N578 0.984 . S
H586 N574 0.984 . S
H587 N574 0.985 . S
C588 C589 1.363 . S
C588 C594 1.379 . S
C588 N596 1.356 . S
C589 C588 1.363 . S
C589 C595 1.363 . S
C590 C591 1.363 . S
C590 C595 1.379 . S
C590 N597 1.356 . S
C591 C590 1.363 . S
C591 C594 1.363 . S
N592 C594 1.356 . S
N592 H604 0.984 . S
N592 H605 0.985 . S
N593 C595 1.356 . S
N593 H598 0.984 . S
N593 H599 0.985 . S
C594 C588 1.379 . S
C594 C591 1.363 . S
C594 N592 1.356 . S
C595 C589 1.363 . S
C595 C590 1.379 . S
C595 N593 1.356 . S
N596 C588 1.356 . S
N596 H602 0.984 . S
N596 H603 0.984 . S
N597 C590 1.356 . S
N597 H600 0.984 . S
N597 H601 0.985 . S
H598 N593 0.984 . S
H599 N593 0.985 . S
H600 N597 0.984 . S
H601 N597 0.985 . S
H602 N596 0.984 . S
H603 N596 0.984 . S
H604 N592 0.984 . S
H605 N592 0.985 . S
C606 C607 1.363 . S
C606 C612 1.379 . S
C606 N614 1.356 . S
C607 C606 1.363 . S
C607 C613 1.363 . S
C608 C609 1.363 . S
C608 C613 1.379 . S
C608 N615 1.356 . S
C609 C608 1.363 . S
C609 C612 1.363 . S
N610 C612 1.356 . S
N610 H622 0.984 . S
N610 H623 0.985 . S
N611 C613 1.356 . S
N611 H616 0.984 . S
N611 H617 0.985 . S
C612 C606 1.379 . S
C612 C609 1.363 . S
C612 N610 1.356 . S
C613 C607 1.363 . S
C613 C608 1.379 . S
C613 N611 1.356 . S
N614 C606 1.356 . S
N614 H620 0.984 . S
N614 H621 0.984 . S
N615 C608 1.356 . S
N615 H618 0.984 . S
N615 H619 0.985 . S
H616 N611 0.984 . S
H617 N611 0.985 . S
H618 N615 0.984 . S
H619 N615 0.985 . S
H620 N614 0.984 . S
H621 N614 0.984 . S
H622 N610 0.984 . S
H623 N610 0.985 . S
C624 C625 1.363 . S
C624 C630 1.379 . S
C624 N632 1.356 . S
C625 C624 1.363 . S
C625 C631 1.363 . S
C626 C627 1.363 . S
C626 C631 1.379 . S
C626 N633 1.356 . S
C627 C626 1.363 . S
C627 C630 1.363 . S
N628 C630 1.356 . S
N628 H640 0.984 . S
N628 H641 0.985 . S
N629 C631 1.356 . S
N629 H634 0.984 . S
N629 H635 0.985 . S
C630 C624 1.379 . S
C630 C627 1.363 . S
C630 N628 1.356 . S
C631 C625 1.363 . S
C631 C626 1.379 . S
C631 N629 1.356 . S
N632 C624 1.356 . S
N632 H638 0.984 . S
N632 H639 0.984 . S
N633 C626 1.356 . S
N633 H636 0.984 . S
N633 H637 0.985 . S
H634 N629 0.984 . S
H635 N629 0.985 . S
H636 N633 0.984 . S
H637 N633 0.985 . S
H638 N632 0.984 . S
H639 N632 0.984 . S
H640 N628 0.984 . S
H641 N628 0.985 . S
C642 C643 1.363 . S
C642 C648 1.379 . S
C642 N650 1.356 . S
C643 C642 1.363 . S
C643 C649 1.363 . S
C644 C645 1.363 . S
C644 C649 1.379 . S
C644 N651 1.356 . S
C645 C644 1.363 . S
C645 C648 1.363 . S
N646 C648 1.356 . S
N646 H658 0.984 . S
N646 H659 0.985 . S
N647 C649 1.356 . S
N647 H652 0.984 . S
N647 H653 0.985 . S
C648 C642 1.379 . S
C648 C645 1.363 . S
C648 N646 1.356 . S
C649 C643 1.363 . S
C649 C644 1.379 . S
C649 N647 1.356 . S
N650 C642 1.356 . S
N650 H656 0.984 . S
N650 H657 0.984 . S
N651 C644 1.356 . S
N651 H654 0.984 . S
N651 H655 0.985 . S
H652 N647 0.984 . S
H653 N647 0.985 . S
H654 N651 0.984 . S
H655 N651 0.985 . S
H656 N650 0.984 . S
H657 N650 0.984 . S
H658 N646 0.984 . S
H659 N646 0.985 . S
C660 C661 1.363 . S
C660 C666 1.379 . S
C660 N668 1.356 . S
C661 C660 1.363 . S
C661 C667 1.363 . S
C662 C663 1.363 . S
C662 C667 1.379 . S
C662 N669 1.356 . S
C663 C662 1.363 . S
C663 C666 1.363 . S
N664 C666 1.356 . S
N664 H676 0.984 . S
N664 H677 0.985 . S
N665 C667 1.356 . S
N665 H670 0.984 . S
N665 H671 0.985 . S
C666 C660 1.379 . S
C666 C663 1.363 . S
C666 N664 1.356 . S
C667 C661 1.363 . S
C667 C662 1.379 . S
C667 N665 1.356 . S
N668 C660 1.356 . S
N668 H674 0.984 . S
N668 H675 0.984 . S
N669 C662 1.356 . S
N669 H672 0.984 . S
N669 H673 0.985 . S
H670 N665 0.984 . S
H671 N665 0.985 . S
H672 N669 0.984 . S
H673 N669 0.985 . S
H674 N668 0.984 . S
H675 N668 0.984 . S
H676 N664 0.984 . S
H677 N664 0.985 . S
C678 C679 1.363 . S
C678 C684 1.379 . S
C678 N686 1.356 . S
C679 C678 1.363 . S
C679 C685 1.363 . S
C680 C681 1.363 . S
C680 C685 1.379 . S
C680 N687 1.356 . S
C681 C680 1.363 . S
C681 C684 1.363 . S
N682 C684 1.356 . S
N682 H694 0.984 . S
N682 H695 0.985 . S
N683 C685 1.356 . S
N683 H688 0.984 . S
N683 H689 0.985 . S
C684 C678 1.379 . S
C684 C681 1.363 . S
C684 N682 1.356 . S
C685 C679 1.363 . S
C685 C680 1.379 . S
C685 N683 1.356 . S
N686 C678 1.356 . S
N686 H692 0.984 . S
N686 H693 0.984 . S
N687 C680 1.356 . S
N687 H690 0.984 . S
N687 H691 0.985 . S
H688 N683 0.984 . S
H689 N683 0.985 . S
H690 N687 0.984 . S
H691 N687 0.985 . S
H692 N686 0.984 . S
H693 N686 0.984 . S
H694 N682 0.984 . S
H695 N682 0.985 . S
C696 C697 1.363 . S
C696 C702 1.379 . S
C696 N704 1.356 . S
C697 C696 1.363 . S
C697 C703 1.363 1_554 S
C698 C699 1.363 1_556 S
C698 C703 1.379 . S
C698 N705 1.356 . S
C699 C698 1.363 1_554 S
C699 C702 1.363 . S
N700 C702 1.356 . S
N700 H712 0.984 . S
N700 H713 0.985 . S
N701 C703 1.356 . S
N701 H706 0.984 . S
N701 H707 0.985 . S
C702 C696 1.379 . S
C702 C699 1.363 . S
C702 N700 1.356 . S
C703 C697 1.363 1_556 S
C703 C698 1.379 . S
C703 N701 1.356 . S
N704 C696 1.356 . S
N704 H710 0.984 . S
N704 H711 0.984 . S
N705 C698 1.356 . S
N705 H708 0.984 . S
N705 H709 0.985 . S
H706 N701 0.984 . S
H707 N701 0.985 . S
H708 N705 0.984 . S
H709 N705 0.985 . S
H710 N704 0.984 . S
H711 N704 0.984 . S
H712 N700 0.984 . S
H713 N700 0.985 . S
C714 C715 1.363 . S
C714 C720 1.379 . S
C714 N722 1.356 . S
C715 C714 1.363 . S
C715 C721 1.363 . S
C716 C717 1.363 . S
C716 C721 1.379 . S
C716 N723 1.356 . S
C717 C716 1.363 . S
C717 C720 1.363 . S
N718 C720 1.356 . S
N718 H730 0.984 . S
N718 H731 0.985 . S
N719 C721 1.356 . S
N719 H724 0.984 . S
N719 H725 0.985 . S
C720 C714 1.379 . S
C720 C717 1.363 . S
C720 N718 1.356 . S
C721 C715 1.363 . S
C721 C716 1.379 . S
C721 N719 1.356 . S
N722 C714 1.356 . S
N722 H728 0.984 . S
N722 H729 0.984 . S
N723 C716 1.356 . S
N723 H726 0.984 . S
N723 H727 0.985 . S
H724 N719 0.984 . S
H725 N719 0.985 . S
H726 N723 0.984 . S
H727 N723 0.985 . S
H728 N722 0.984 . S
H729 N722 0.984 . S
H730 N718 0.984 . S
H731 N718 0.985 . S
C732 C733 1.363 1_556 S
C732 C738 1.379 . S
C732 N740 1.356 . S
C733 C732 1.363 1_554 S
C733 C739 1.363 . S
C734 C735 1.363 . S
C734 C739 1.379 . S
C734 N741 1.356 . S
C735 C734 1.363 . S
C735 C738 1.363 1_554 S
N736 C738 1.356 . S
N736 H748 0.984 . S
N736 H749 0.985 . S
N737 C739 1.356 . S
N737 H742 0.984 . S
N737 H743 0.985 . S
C738 C732 1.379 . S
C738 C735 1.363 1_556 S
C738 N736 1.356 . S
C739 C733 1.363 . S
C739 C734 1.379 . S
C739 N737 1.356 . S
N740 C732 1.356 . S
N740 H746 0.984 . S
N740 H747 0.984 . S
N741 C734 1.356 . S
N741 H744 0.984 . S
N741 H745 0.985 . S
H742 N737 0.984 . S
H743 N737 0.985 . S
H744 N741 0.984 . S
H745 N741 0.985 . S
H746 N740 0.984 . S
H747 N740 0.984 . S
H748 N736 0.984 . S
H749 N736 0.985 . S
C750 C751 1.363 . S
C750 C756 1.379 . S
C750 N758 1.356 . S
C751 C750 1.363 . S
C751 C757 1.363 . S
C752 C753 1.363 . S
C752 C757 1.379 . S
C752 N759 1.356 . S
C753 C752 1.363 . S
C753 C756 1.363 . S
N754 C756 1.356 . S
N754 H766 0.984 . S
N754 H767 0.985 . S
N755 C757 1.356 . S
N755 H760 0.984 . S
N755 H761 0.985 . S
C756 C750 1.379 . S
C756 C753 1.363 . S
C756 N754 1.356 . S
C757 C751 1.363 . S
C757 C752 1.379 . S
C757 N755 1.356 . S
N758 C750 1.356 . S
N758 H764 0.984 . S
N758 H765 0.984 . S
N759 C752 1.356 . S
N759 H762 0.984 . S
N759 H763 0.985 . S
H760 N755 0.984 . S
H761 N755 0.985 . S
H762 N759 0.984 . S
H763 N759 0.985 . S
H764 N758 0.984 . S
H765 N758 0.984 . S
H766 N754 0.984 . S
H767 N754 0.985 . S
C768 C769 1.363 . S
C768 C774 1.379 . S
C768 N776 1.356 . S
C769 C768 1.363 . S
C769 C775 1.363 . S
C770 C771 1.363 . S
C770 C775 1.379 . S
C770 N777 1.356 . S
C771 C770 1.363 . S
C771 C774 1.363 . S
N772 C774 1.356 . S
N772 H784 0.984 . S
N772 H785 0.985 . S
N773 C775 1.356 . S
N773 H778 0.984 . S
N773 H779 0.985 . S
C774 C768 1.379 . S
C774 C771 1.363 . S
C774 N772 1.356 . S
C775 C769 1.363 . S
C775 C770 1.379 . S
C775 N773 1.356 . S
N776 C768 1.356 . S
N776 H782 0.984 . S
N776 H783 0.984 . S
N777 C770 1.356 . S
N777 H780 0.984 . S
N777 H781 0.985 . S
H778 N773 0.984 . S
H779 N773 0.985 . S
H780 N777 0.984 . S
H781 N777 0.985 . S
H782 N776 0.984 . S
H783 N776 0.984 . S
H784 N772 0.984 . S
H785 N772 0.985 . S
C786 C787 1.363 . S
C786 C792 1.379 . S
C786 N794 1.356 . S
C787 C786 1.363 . S
C787 C793 1.363 1_554 S
C788 C789 1.363 1_556 S
C788 C793 1.379 . S
C788 N795 1.356 . S
C789 C788 1.363 1_554 S
C789 C792 1.363 . S
N790 C792 1.356 . S
N790 H802 0.984 . S
N790 H803 0.985 . S
N791 C793 1.356 . S
N791 H796 0.984 . S
N791 H797 0.985 . S
C792 C786 1.379 . S
C792 C789 1.363 . S
C792 N790 1.356 . S
C793 C787 1.363 1_556 S
C793 C788 1.379 . S
C793 N791 1.356 . S
N794 C786 1.356 . S
N794 H800 0.984 . S
N794 H801 0.984 . S
N795 C788 1.356 . S
N795 H798 0.984 . S
N795 H799 0.985 . S
H796 N791 0.984 . S
H797 N791 0.985 . S
H798 N795 0.984 . S
H799 N795 0.985 . S
H800 N794 0.984 . S
H801 N794 0.984 . S
H802 N790 0.984 . S
H803 N790 0.985 . S
C804 C805 1.363 . S
C804 C810 1.379 . S
C804 N812 1.356 . S
C805 C804 1.363 . S
C805 C811 1.363 . S
C806 C807 1.363 . S
C806 C811 1.379 . S
C806 N813 1.356 . S
C807 C806 1.363 . S
C807 C810 1.363 . S
N808 C810 1.356 . S
N808 H820 0.984 . S
N808 H821 0.985 . S
N809 C811 1.356 . S
N809 H814 0.984 . S
N809 H815 0.985 . S
C810 C804 1.379 . S
C810 C807 1.363 . S
C810 N808 1.356 . S
C811 C805 1.363 . S
C811 C806 1.379 . S
C811 N809 1.356 . S
N812 C804 1.356 . S
N812 H818 0.984 . S
N812 H819 0.984 . S
N813 C806 1.356 . S
N813 H816 0.984 . S
N813 H817 0.985 . S
H814 N809 0.984 . S
H815 N809 0.985 . S
H816 N813 0.984 . S
H817 N813 0.985 . S
H818 N812 0.984 . S
H819 N812 0.984 . S
H820 N808 0.984 . S
H821 N808 0.985 . S
C822 C823 1.363 1_556 S
C822 C828 1.379 . S
C822 N830 1.356 . S
C823 C822 1.363 1_554 S
C823 C829 1.363 . S
C824 C825 1.363 . S
C824 C829 1.379 . S
C824 N831 1.356 . S
C825 C824 1.363 . S
C825 C828 1.363 1_554 S
N826 C828 1.356 . S
N826 H838 0.984 . S
N826 H839 0.985 . S
N827 C829 1.356 . S
N827 H832 0.984 . S
N827 H833 0.985 . S
C828 C822 1.379 . S
C828 C825 1.363 1_556 S
C828 N826 1.356 . S
C829 C823 1.363 . S
C829 C824 1.379 . S
C829 N827 1.356 . S
N830 C822 1.356 . S
N830 H836 0.984 . S
N830 H837 0.984 . S
N831 C824 1.356 . S
N831 H834 0.984 . S
N831 H835 0.985 . S
H832 N827 0.984 . S
H833 N827 0.985 . S
H834 N831 0.984 . S
H835 N831 0.985 . S
H836 N830 0.984 . S
H837 N830 0.984 . S
H838 N826 0.984 . S
H839 N826 0.985 . S
C409 C5 1.582 . S
C411 C210 1.573 . S
C427 C31 1.590 . S
C429 C90 1.580 . S
C447 C149 1.506 . S
C445 C53 1.607 . S
C463 C71 1.599 . S
C465 C189 1.500 . S
C483 C309 1.500 . S
C481 C75 1.599 . S
C501 C349 1.507 . S
C499 C9 1.607 . S
C519 C370 1.580 . S
C517 C27 1.590 . S
C537 C250 1.573 . S
C535 C49 1.582 . S
C553 C51 1.582 . S
C555 C130 1.512 . S
C571 C72 1.590 . S
C573 C170 1.519 . S
C589 C6 1.607 . S
C591 C229 1.574 . S
C609 C109 1.567 . S
C607 C29 1.599 . S
C625 C28 1.599 . S
C627 C389 1.567 . S
C645 C269 1.574 . S
C643 C50 1.607 . S
C663 C290 1.519 . S
C661 C73 1.590 . S
C679 C7 1.582 . S
C681 C330 1.512 . S
C699 C103 1.538 . S
C697 C4 1.557 . S
C717 C143 1.532 . S
C715 C30 1.557 . S
C733 C52 1.557 . S
C735 C183 1.532 . S
C751 C70 1.557 . S
C753 C223 1.538 . S
C771 C263 1.538 . S
C769 C74 1.557 . S
C787 C8 1.557 . S
C789 C303 1.532 . S
C805 C26 1.557 . S
C807 C343 1.532 . S
C823 C48 1.557 . S
C825 C383 1.538 . S
