# Generated by pormake.
# Topology ssa, (4,4)-cn, num edge types: 1
# Building blocks:
#     Node 0, Type 0, BuildingBlock: ESEHIV_clean_sbu_0, # of connection points: 4
#     Node 1, Type 0, BuildingBlock: ESEHIV_clean_sbu_0, # of connection points: 4
#     Node 2, Type 0, BuildingBlock: ESEHIV_clean_sbu_0, # of connection points: 4
#     Node 3, Type 0, BuildingBlock: ESEHIV_clean_sbu_0, # of connection points: 4
#     Node 4, Type 0, BuildingBlock: ESEHIV_clean_sbu_0, # of connection points: 4
#     Node 5, Type 0, BuildingBlock: ESEHIV_clean_sbu_0, # of connection points: 4
#     Node 6, Type 1, BuildingBlock: KOZSID_clean_sbu_0, # of connection points: 4
#     Node 7, Type 1, BuildingBlock: KOZSID_clean_sbu_0, # of connection points: 4
#     Node 8, Type 1, BuildingBlock: KOZSID_clean_sbu_0, # of connection points: 4
#     Node 9, Type 1, BuildingBlock: KOZSID_clean_sbu_0, # of connection points: 4
#     Node 10, Type 1, BuildingBlock: KOZSID_clean_sbu_0, # of connection points: 4
#     Node 11, Type 1, BuildingBlock: KOZSID_clean_sbu_0, # of connection points: 4
#     Edge 12, Type (0, 1), BuildingBlock: TEMPAE_clean_linker_10, # of connection points: 2
#     Edge 13, Type (0, 1), BuildingBlock: TEMPAE_clean_linker_10, # of connection points: 2
#     Edge 14, Type (0, 1), BuildingBlock: TEMPAE_clean_linker_10, # of connection points: 2
#     Edge 15, Type (0, 1), BuildingBlock: TEMPAE_clean_linker_10, # of connection points: 2
#     Edge 16, Type (0, 1), BuildingBlock: TEMPAE_clean_linker_10, # of connection points: 2
#     Edge 17, Type (0, 1), BuildingBlock: TEMPAE_clean_linker_10, # of connection points: 2
#     Edge 18, Type (0, 1), BuildingBlock: TEMPAE_clean_linker_10, # of connection points: 2
#     Edge 19, Type (0, 1), BuildingBlock: TEMPAE_clean_linker_10, # of connection points: 2
#     Edge 20, Type (0, 1), BuildingBlock: TEMPAE_clean_linker_10, # of connection points: 2
#     Edge 21, Type (0, 1), BuildingBlock: TEMPAE_clean_linker_10, # of connection points: 2
#     Edge 22, Type (0, 1), BuildingBlock: TEMPAE_clean_linker_10, # of connection points: 2
#     Edge 23, Type (0, 1), BuildingBlock: TEMPAE_clean_linker_10, # of connection points: 2
#     Edge 24, Type (0, 1), BuildingBlock: TEMPAE_clean_linker_10, # of connection points: 2
#     Edge 25, Type (0, 1), BuildingBlock: TEMPAE_clean_linker_10, # of connection points: 2
#     Edge 26, Type (0, 1), BuildingBlock: TEMPAE_clean_linker_10, # of connection points: 2
#     Edge 27, Type (0, 1), BuildingBlock: TEMPAE_clean_linker_10, # of connection points: 2
#     Edge 28, Type (0, 1), BuildingBlock: TEMPAE_clean_linker_10, # of connection points: 2
#     Edge 29, Type (0, 1), BuildingBlock: TEMPAE_clean_linker_10, # of connection points: 2
#     Edge 30, Type (0, 1), BuildingBlock: TEMPAE_clean_linker_10, # of connection points: 2
#     Edge 31, Type (0, 1), BuildingBlock: TEMPAE_clean_linker_10, # of connection points: 2
#     Edge 32, Type (0, 1), BuildingBlock: TEMPAE_clean_linker_10, # of connection points: 2
#     Edge 33, Type (0, 1), BuildingBlock: TEMPAE_clean_linker_10, # of connection points: 2
#     Edge 34, Type (0, 1), BuildingBlock: TEMPAE_clean_linker_10, # of connection points: 2
#     Edge 35, Type (0, 1), BuildingBlock: TEMPAE_clean_linker_10, # of connection points: 2
# Relax obj value: 0.016
# Max RMSD: 0.106
# Mean RMSD: 0.057
data_MOF--net-ssa--node1-ESEHIV_clean_sbu_0--node2-KOZSID_clean_sbu_0--edge1-TEMPAE_clean_linker_10
_symmetry_space_group_name_H-M    P1
_symmetry_Int_Tables_number       1
_symmetry_cell_setting            triclinic
loop_
_symmetry_equiv_pos_as_xyz
'x, y, z'
_cell_length_a     54.433566
_cell_length_b     57.941135
_cell_length_c     39.663264
_cell_angle_alpha  91.616849
_cell_angle_beta   94.147602
_cell_angle_gamma 122.17227
loop_
_atom_site_label
_atom_site_type_symbol
_atom_site_fract_x
_atom_site_fract_y
_atom_site_fract_z
_atom_type_partial_charge
Cu0 Cu 0.99853 0.51437 0.02589 0.0
N1 N 0.96757 0.48335 0.04197 0.0
N2 N 0.92507 0.44312 0.0382 0.0
C3 C 0.94023 0.46818 0.02656 0.0
C4 C 0.94333 0.44304 0.0631 0.0
C5 C 0.96951 0.46791 0.06537 0.0
O6 O 0.98316 0.52102 0.98258 0.0
C7 C 0.05835 0.52771 0.03343 0.0
O8 O 0.06561 0.55293 0.02924 0.0
H9 H 0.93257 0.47427 0.00481 0.0
H10 H 0.98937 0.47338 0.08077 0.0
N11 N 0.00996 0.544 0.05668 0.0
N12 N 0.03818 0.57764 0.0969 0.0
C13 C 0.02999 0.55254 0.0837 0.0
C14 C 1.00453 0.56393 0.05318 0.0
C15 C 0.02188 0.58472 0.07803 0.0
C16 C 0.9675 0.50301 0.95803 0.0
O17 O 0.96588 0.47955 0.95745 0.0
H18 H 0.03963 0.54123 0.09216 0.0
H19 H 0.99048 0.56414 0.03262 0.0
O20 O 0.03139 0.50848 0.02814 0.0
H21 H 0.939 0.42556 0.07678 0.0
H22 H 0.02399 0.60437 0.08026 0.0
Cu23 Cu 0.52945 0.00901 0.52432 0.0
N24 N 0.5429 1.00216 0.48511 0.0
N25 N 0.54926 0.97806 0.44506 0.0
C26 C 0.53795 0.97752 0.47455 0.0
C27 C 0.56182 0.00422 0.43681 0.0
C28 C 0.55775 0.01896 0.46141 0.0
O29 O 0.49487 0.97386 0.53023 0.0
C30 C 0.58538 0.03362 0.56193 0.0
O31 O 0.59503 0.03282 0.5328 0.0
H32 H 0.52636 0.95954 0.48847 0.0
H33 H 0.5649 0.04034 0.46184 0.0
N34 N 0.52077 0.03633 0.52091 0.0
N35 N 0.51365 0.06934 0.5385 0.0
C36 C 0.52326 0.0529 0.54738 0.0
C37 C 0.50933 0.0426 0.49419 0.0
C38 C 0.50481 0.06286 0.50499 0.0
C39 C 0.46906 0.96896 0.52717 0.0
O40 O 0.46519 0.98947 0.52689 0.0
H41 H 0.53102 0.05218 0.57298 0.0
H42 H 0.50404 0.03271 0.46886 0.0
O43 O 0.55807 0.02192 0.56361 0.0
H44 H 0.57268 0.01211 0.41425 0.0
H45 H 0.49566 0.07206 0.48937 0.0
Cu46 Cu 0.51381 0.50308 0.01679 0.0
N47 N 0.5124 0.4698 0.01411 0.0
N48 N 0.51167 0.434 0.98926 0.0
C49 C 0.5046 0.45303 0.98559 0.0
C50 C 0.52429 0.43901 0.02143 0.0
C51 C 0.52486 0.46107 0.03655 0.0
O52 O 0.54158 0.52472 0.98557 0.0
C53 C 0.45581 0.48019 0.02268 0.0
O54 O 0.46067 0.4637 0.03986 0.0
H55 H 0.49582 0.45597 0.9619 0.0
H56 H 0.53533 0.47107 0.0614 0.0
N57 N 0.52487 0.52158 0.06036 0.0
N58 N 0.52866 0.55196 0.10026 0.0
C59 C 0.52996 0.54688 0.06713 0.0
C60 C 0.5202 0.51035 0.09034 0.0
C61 C 0.52266 0.52901 0.11492 0.0
C62 C 0.56833 0.53436 0.99513 0.0
O63 O 0.57585 0.53349 0.02708 0.0
H64 H 0.53188 0.56028 0.04762 0.0
H65 H 0.51296 0.48927 0.09366 0.0
O66 O 0.4757 0.49734 0.00556 0.0
H67 H 0.53339 0.42809 0.03295 0.0
H68 H 0.51882 0.52544 0.14122 0.0
Cu69 Cu 0.99867 0.4922 0.50915 0.0
N70 N 1.00343 0.47059 0.47766 0.0
N71 N 0.02819 0.46068 0.44363 0.0
C72 C 0.02984 0.47674 0.47012 0.0
C73 C 0.99929 0.44329 0.43453 0.0
C74 C 0.98409 0.44951 0.45551 0.0
O75 O 0.03502 0.5288 0.50961 0.0
C76 C 0.96138 0.45046 0.54686 0.0
O77 O 0.94798 0.44292 0.51598 0.0
H78 H 0.04989 0.49394 0.48268 0.0
H79 H 0.96069 0.44005 0.45369 0.0
N80 N 0.96794 0.49622 0.49465 0.0
N81 N 0.93088 0.50147 0.50182 0.0
C82 C 0.95561 0.50432 0.51623 0.0
C83 C 0.95063 0.48816 0.46518 0.0
C84 C 0.92755 0.49128 0.46961 0.0
C85 C 0.03939 0.53787 0.48008 0.0
O86 O 0.01912 0.52351 0.45486 0.0
H87 H 0.9635 0.51017 0.54284 0.0
H88 H 0.9537 0.47938 0.4427 0.0
O89 O 0.98662 0.47272 0.55123 0.0
H90 H 0.98967 0.42765 0.41367 0.0
H91 H 0.90926 0.48556 0.45106 0.0
Cu92 Cu 0.49773 0.99165 0.01134 0.0
N93 N 0.47266 0.99729 0.9834 0.0
N94 N 0.45973 0.0217 0.95288 0.0
C95 C 0.47944 0.02242 0.97621 0.0
C96 C 0.43951 0.99485 0.94517 0.0
C97 C 0.44755 0.9798 0.9641 0.0
O98 O 0.53669 0.02496 0.00803 0.0
C99 C 0.45865 0.95706 0.05439 0.0
O100 O 0.44659 0.94429 0.02428 0.0
H101 H 0.49941 0.04088 0.98673 0.0
H102 H 0.43639 0.95776 0.96295 0.0
N103 N 0.49886 0.96179 0.99494 0.0
N104 N 0.50253 0.92551 1.00061 0.0
C105 C 0.50873 0.94959 0.01504 0.0
C106 C 0.48616 0.94507 0.96636 0.0
C107 C 0.48835 0.92252 0.96985 0.0
C108 C 0.54545 0.02692 0.97847 0.0
O109 O 0.52921 0.00656 0.95536 0.0
H110 H 0.51798 0.95718 0.04101 0.0
H111 H 0.47469 0.94821 0.94541 0.0
O112 O 0.48213 0.98088 0.05599 0.0
H113 H 0.42056 0.98661 0.92678 0.0
H114 H 0.47912 0.90484 0.95183 0.0
Cu115 Cu 0.5108 0.49375 0.47292 0.0
N116 N 0.53476 0.51764 0.44252 0.0
N117 N 0.55713 0.55777 0.41942 0.0
C118 C 0.55009 0.54502 0.44839 0.0
C119 C 0.54666 0.53749 0.39448 0.0
C120 C 0.53263 0.5128 0.40876 0.0
O121 O 0.47235 0.48983 0.4622 0.0
C122 C 0.55606 0.50599 0.52062 0.0
O123 O 0.56408 0.50079 0.4924 0.0
H124 H 0.55297 0.55513 0.47303 0.0
H125 H 0.51879 0.49296 0.39506 0.0
N126 N 0.50535 0.45924 0.46602 0.0
N127 N 0.50511 0.42312 0.48485 0.0
C128 C 0.49981 0.44291 0.49157 0.0
C129 C 0.5141 0.44919 0.44186 0.0
C130 C 0.51387 0.42681 0.45339 0.0
C131 C 0.46975 0.50999 0.45549 0.0
O132 O 0.49249 0.53493 0.46277 0.0
H133 H 0.4951 0.4474 0.5161 0.0
H134 H 0.52258 0.45872 0.41891 0.0
O135 O 0.53254 0.50621 0.5189 0.0
H136 H 0.54588 0.54012 0.36759 0.0
H137 H 0.52127 0.41525 0.44047 0.0
C138 C 0.23458 0.5314 0.19138 0.0
C139 C 0.2406 0.55731 0.18531 0.0
C140 C 0.266 0.57554 0.20467 0.0
C141 C 0.27418 0.55988 0.22128 0.0
N142 N 0.25565 0.53269 0.21361 0.0
Co143 Co 0.25989 0.50291 0.2322 0.0
N144 N 0.29565 0.52972 0.26339 0.0
C145 C 0.30814 0.55713 0.26682 0.0
C146 C 0.33216 0.57039 0.29026 0.0
C147 C 0.33528 0.55026 0.30267 0.0
C148 C 0.31296 0.52576 0.2859 0.0
N149 N 0.26457 0.47319 0.25023 0.0
C150 C 0.28508 0.47448 0.27349 0.0
C151 C 0.28046 0.4488 0.27755 0.0
C152 C 0.25632 0.43067 0.25621 0.0
C153 C 0.24759 0.44619 0.24026 0.0
N154 N 0.22351 0.47603 0.20181 0.0
C155 C 0.21048 0.44851 0.19917 0.0
C156 C 0.18513 0.43512 0.1778 0.0
C157 C 0.18149 0.45521 0.16632 0.0
C158 C 0.20504 0.47988 0.18121 0.0
N159 N 0.28467 0.50639 0.19567 0.0
C160 C 0.32101 0.50989 0.14614 0.0
C161 C 0.29505 0.48536 0.1499 0.0
C162 C 0.27749 0.48405 0.1746 0.0
C163 C 0.32824 0.53289 0.16706 0.0
C164 C 0.30973 0.53078 0.19123 0.0
N165 N 0.23501 0.49929 0.26838 0.0
C166 C 0.19355 0.47051 0.29884 0.0
C167 C 0.195 0.49329 0.31412 0.0
C168 C 0.21772 0.51924 0.30713 0.0
C169 C 0.23734 0.52176 0.28435 0.0
C170 C 0.21375 0.47396 0.27664 0.0
H171 H 0.25391 0.54203 0.27959 0.0
H172 H 0.21124 0.45573 0.26587 0.0
H173 H 0.25846 0.46452 0.1764 0.0
H174 H 0.31635 0.54908 0.20621 0.0
C175 C 0.29767 0.56992 0.24632 0.0
C176 C 0.2084 0.5063 0.17557 0.0
C177 C 0.30947 0.49941 0.29211 0.0
C178 C 0.22279 0.43593 0.21701 0.0
H179 H 0.22777 0.5625 0.16888 0.0
H180 H 0.27683 0.59759 0.207 0.0
H181 H 0.34601 0.59215 0.29718 0.0
H182 H 0.35223 0.55328 0.3217 0.0
H183 H 0.29326 0.44373 0.29423 0.0
H184 H 0.24621 0.40872 0.25291 0.0
H185 H 0.17082 0.4133 0.17157 0.0
H186 H 0.16336 0.45201 0.14919 0.0
H187 H 0.28871 0.46687 0.13458 0.0
H188 H 0.3481 0.55242 0.16485 0.0
H189 H 0.17633 0.44992 0.30302 0.0
H190 H 0.2203 0.53759 0.31892 0.0
C191 C 0.71701 0.21743 0.72633 0.0
C192 C 0.69258 0.2152 0.70911 0.0
C193 C 0.69117 0.23659 0.72149 0.0
C194 C 0.71443 0.25043 0.74578 0.0
N195 N 0.73098 0.23947 0.74936 0.0
Co196 Co 0.76446 0.25099 0.78489 0.0
N197 N 0.75974 0.28005 0.80608 0.0
C198 C 0.74113 0.28744 0.79448 0.0
C199 C 0.74342 0.30863 0.81374 0.0
C200 C 0.76486 0.31526 0.83919 0.0
C201 C 0.77431 0.29753 0.83401 0.0
N202 N 0.79709 0.26159 0.82118 0.0
C203 C 0.80741 0.2801 0.84838 0.0
C204 C 0.82946 0.28011 0.86835 0.0
C205 C 0.8334 0.26111 0.85304 0.0
C206 C 0.81347 0.25047 0.82489 0.0
N207 N 0.76966 0.22244 0.76311 0.0
C208 C 0.79111 0.21783 0.77153 0.0
C209 C 0.78924 0.1971 0.75166 0.0
C210 C 0.76489 0.18764 0.7295 0.0
C211 C 0.75313 0.20306 0.73741 0.0
N212 N 0.79282 0.27868 0.7553 0.0
C213 C 0.83395 0.31951 0.71558 0.0
C214 C 0.84129 0.30429 0.73601 0.0
C215 C 0.82071 0.28425 0.75526 0.0
C216 C 0.80537 0.31357 0.71532 0.0
C217 C 0.78546 0.29339 0.73506 0.0
N218 N 0.73647 0.22367 0.81448 0.0
C219 C 0.722 0.18558 0.84948 0.0
C220 C 0.69698 0.1851 0.85714 0.0
C221 C 0.69222 0.2044 0.84275 0.0
C222 C 0.71197 0.22326 0.82173 0.0
C223 C 0.7412 0.20479 0.82837 0.0
H224 H 0.70705 0.2374 0.81162 0.0
H225 H 0.75977 0.20395 0.8235 0.0
H226 H 0.82813 0.2737 0.77007 0.0
H227 H 0.76422 0.29013 0.73345 0.0
C228 C 0.72038 0.27285 0.76687 0.0
C229 C 0.72553 0.19766 0.7209 0.0
C230 C 0.79733 0.29828 0.85613 0.0
C231 C 0.81034 0.23081 0.80081 0.0
H232 H 0.67685 0.19943 0.69015 0.0
H233 H 0.67457 0.24099 0.71445 0.0
H234 H 0.73071 0.31788 0.81002 0.0
H235 H 0.77258 0.33127 0.85936 0.0
H236 H 0.84156 0.29265 0.89152 0.0
H237 H 0.84902 0.25578 0.86133 0.0
H238 H 0.80318 0.18905 0.75395 0.0
H239 H 0.75627 0.17077 0.71033 0.0
H240 H 0.86308 0.30803 0.7377 0.0
H241 H 0.79808 0.32419 0.69956 0.0
H242 H 0.72663 0.17089 0.85927 0.0
H243 H 0.67346 0.20528 0.84797 0.0
C244 C 0.50624 0.7105 0.22386 0.0
C245 C 0.47914 0.68618 0.21854 0.0
C246 C 0.4601 0.69029 0.23409 0.0
C247 C 0.47651 0.71666 0.24828 0.0
N248 N 0.50492 0.72986 0.24248 0.0
Co249 Co 0.53675 0.76768 0.26155 0.0
N250 N 0.50896 0.77286 0.28662 0.0
C251 C 0.48 0.75459 0.28687 0.0
C252 C 0.46637 0.76378 0.3058 0.0
C253 C 0.4878 0.78963 0.31816 0.0
C254 C 0.51339 0.79482 0.30588 0.0
N255 N 0.56866 0.80534 0.281 0.0
C256 C 0.56762 0.82422 0.30105 0.0
C257 C 0.59495 0.84808 0.30777 0.0
C258 C 0.61389 0.8442 0.29156 0.0
C259 C 0.59718 0.81836 0.27577 0.0
N260 N 0.56449 0.76263 0.23621 0.0
C261 C 0.59327 0.78122 0.23513 0.0
C262 C 0.60678 0.77215 0.21578 0.0
C263 C 0.5855 0.74606 0.20411 0.0
C264 C 0.56013 0.74055 0.21733 0.0
N265 N 0.52868 0.78356 0.22175 0.0
C266 C 0.51744 0.80613 0.16526 0.0
C267 C 0.54591 0.81436 0.17707 0.0
C268 C 0.551 0.80305 0.20523 0.0
C269 C 0.49462 0.78641 0.1821 0.0
C270 C 0.50067 0.77532 0.20993 0.0
N271 N 0.54478 0.75147 0.30091 0.0
C272 C 0.5771 0.74026 0.33021 0.0
C273 C 0.55362 0.71813 0.34361 0.0
C274 C 0.52633 0.71508 0.33852 0.0
C275 C 0.52246 0.73195 0.31736 0.0
C276 C 0.57227 0.75683 0.30949 0.0
H277 H 0.50095 0.72797 0.3135 0.0
H278 H 0.59086 0.77295 0.29931 0.0
H279 H 0.57321 0.8106 0.21322 0.0
H280 H 0.48234 0.76018 0.22147 0.0
C281 C 0.46623 0.729 0.26885 0.0
C282 C 0.53274 0.71378 0.21194 0.0
C283 C 0.54123 0.82097 0.3132 0.0
C284 C 0.6073 0.80642 0.2542 0.0
H285 H 0.47369 0.66713 0.20554 0.0
H286 H 0.43717 0.67551 0.23576 0.0
H287 H 0.44353 0.75303 0.30995 0.0
H288 H 0.48487 0.80318 0.3343 0.0
H289 H 0.60059 0.86664 0.32231 0.0
H290 H 0.63698 0.85877 0.29069 0.0
H291 H 0.62956 0.78302 0.2113 0.0
H292 H 0.58847 0.73246 0.18812 0.0
H293 H 0.5643 0.82996 0.1651 0.0
H294 H 0.47218 0.77941 0.17368 0.0
H295 H 0.59882 0.74386 0.3339 0.0
H296 H 0.5077 0.69897 0.34963 0.0
C297 C 0.7294 0.5407 0.7157 0.0
C298 C 0.73487 0.56624 0.70844 0.0
C299 C 0.76142 0.58519 0.72508 0.0
C300 C 0.77061 0.57033 0.74183 0.0
N301 N 0.75164 0.54296 0.73678 0.0
Co302 Co 0.75578 0.51433 0.75928 0.0
N303 N 0.79533 0.54231 0.78312 0.0
C304 C 0.80988 0.56965 0.7807 0.0
C305 C 0.83689 0.5838 0.79875 0.0
C306 C 0.84007 0.56434 0.81326 0.0
C307 C 0.81473 0.53927 0.80315 0.0
N308 N 0.75949 0.48579 0.78275 0.0
C309 C 0.78178 0.48796 0.80368 0.0
C310 C 0.77502 0.46259 0.81358 0.0
C311 C 0.74768 0.44384 0.7986 0.0
C312 C 0.73925 0.45863 0.78033 0.0
N313 N 0.71682 0.48622 0.73438 0.0
C314 C 0.703 0.4588 0.73558 0.0
C315 C 0.67729 0.44438 0.71497 0.0
C316 C 0.67437 0.4637 0.69968 0.0
C317 C 0.69841 0.48901 0.71219 0.0
N318 N 0.77524 0.51094 0.72078 0.0
C319 C 0.80298 0.50645 0.66599 0.0
C320 C 0.78313 0.48331 0.68163 0.0
C321 C 0.76959 0.48599 0.70874 0.0
C322 C 0.80864 0.53184 0.67819 0.0
C323 C 0.7947 0.53361 0.70539 0.0
N324 N 0.73602 0.51783 0.79755 0.0
C325 C 0.69348 0.49859 0.82854 0.0
C326 C 0.7025 0.52443 0.84336 0.0
C327 C 0.72958 0.54656 0.83664 0.0
C328 C 0.74588 0.54282 0.81401 0.0
C329 C 0.71059 0.49574 0.80622 0.0
H330 H 0.76607 0.56063 0.80976 0.0
H331 H 0.70235 0.47556 0.79559 0.0
H332 H 0.75467 0.4676 0.71955 0.0
H333 H 0.80015 0.55358 0.71366 0.0
C334 C 0.79722 0.58142 0.76183 0.0
C335 C 0.70252 0.51501 0.70239 0.0
C336 C 0.81016 0.51326 0.81363 0.0
C337 C 0.71398 0.44733 0.75776 0.0
H338 H 0.72101 0.57081 0.69297 0.0
H339 H 0.77265 0.60722 0.72508 0.0
H340 H 0.85243 0.60568 0.8011 0.0
H341 H 0.85893 0.5682 0.82952 0.0
H342 H 0.78869 0.45793 0.82925 0.0
H343 H 0.73582 0.42188 0.79984 0.0
H344 H 0.66227 0.42241 0.71173 0.0
H345 H 0.65642 0.45953 0.68149 0.0
H346 H 0.77788 0.46316 0.67287 0.0
H347 H 0.82423 0.55042 0.66726 0.0
H348 H 0.6728 0.48068 0.83309 0.0
H349 H 0.73809 0.56685 0.84847 0.0
C350 C 0.29324 0.81124 0.36311 0.0
C351 C 0.28823 0.83024 0.37771 0.0
C352 C 0.26525 0.82815 0.35843 0.0
C353 C 0.25754 0.80804 0.33335 0.0
N354 N 0.27412 0.79704 0.33548 0.0
Co355 Co 0.27027 0.76711 0.30444 0.0
N356 N 0.23633 0.76394 0.27629 0.0
C357 C 0.22501 0.77963 0.27999 0.0
C358 C 0.201 0.77181 0.25765 0.0
C359 C 0.19637 0.74949 0.23891 0.0
C360 C 0.21798 0.74503 0.25097 0.0
N361 N 0.26603 0.73685 0.27366 0.0
C362 C 0.2445 0.72026 0.24901 0.0
C363 C 0.24884 0.70073 0.23477 0.0
C364 C 0.27378 0.70476 0.25154 0.0
C365 C 0.28316 0.72643 0.27491 0.0
N366 N 0.30428 0.77032 0.33249 0.0
C367 C 0.31686 0.75591 0.32721 0.0
C368 C 0.34016 0.76296 0.35039 0.0
C369 C 0.34275 0.78322 0.37169 0.0
C370 C 0.32077 0.78732 0.36019 0.0
N371 N 0.24276 0.73922 0.33396 0.0
C372 C 0.20231 0.69832 0.37376 0.0
C373 C 0.22588 0.69767 0.36286 0.0
C374 C 0.24563 0.71808 0.34331 0.0
C375 C 0.19977 0.72021 0.36455 0.0
C376 C 0.21994 0.74016 0.34487 0.0
N377 N 0.29793 0.79515 0.27469 0.0
C378 C 0.33932 0.81281 0.24127 0.0
C379 C 0.33748 0.83524 0.23303 0.0
C380 C 0.31537 0.83711 0.2463 0.0
C381 C 0.29612 0.81715 0.26671 0.0
C382 C 0.31966 0.79333 0.26186 0.0
H383 H 0.28 0.8201 0.2758 0.0
H384 H 0.32253 0.77694 0.26693 0.0
H385 H 0.26292 0.71619 0.33568 0.0
H386 H 0.21655 0.75611 0.33859 0.0
C387 C 0.23533 0.79949 0.30704 0.0
C388 C 0.31701 0.80812 0.37587 0.0
C389 C 0.21895 0.72149 0.23935 0.0
C390 C 0.30632 0.73589 0.30025 0.0
H391 H 0.30017 0.84436 0.39983 0.0
H392 H 0.25551 0.84004 0.36206 0.0
H393 H 0.18763 0.7805 0.25623 0.0
H394 H 0.17849 0.73731 0.21944 0.0
H395 H 0.23497 0.68479 0.21494 0.0
H396 H 0.28331 0.69267 0.24801 0.0
H397 H 0.35374 0.7545 0.35154 0.0
H398 H 0.35911 0.79394 0.3931 0.0
H399 H 0.22886 0.68112 0.36871 0.0
H400 H 0.18233 0.72217 0.37261 0.0
H401 H 0.35561 0.80989 0.23144 0.0
H402 H 0.31299 0.85414 0.24134 0.0
C403 C 0.47265 0.27346 0.79666 0.0
C404 C 0.44553 0.26938 0.80078 0.0
C405 C 0.42553 0.24709 0.77973 0.0
C406 C 0.44144 0.23889 0.76377 0.0
N407 N 0.47047 0.25454 0.77339 0.0
Co408 Co 0.5015 0.25021 0.75515 0.0
N409 N 0.47201 0.21773 0.7235 0.0
C410 C 0.4428 0.20652 0.71977 0.0
C411 C 0.42805 0.18453 0.6962 0.0
C412 C 0.44901 0.18131 0.68424 0.0
C413 C 0.47549 0.20149 0.70144 0.0
N414 N 0.53254 0.24597 0.7369 0.0
C415 C 0.53042 0.22698 0.71384 0.0
C416 C 0.55759 0.23107 0.70988 0.0
C417 C 0.57754 0.25347 0.73074 0.0
C418 C 0.56157 0.2617 0.74644 0.0
N419 N 0.53097 0.28261 0.78687 0.0
C420 C 0.56013 0.29367 0.79076 0.0
C421 C 0.57491 0.31541 0.81465 0.0
C422 C 0.55401 0.31863 0.82671 0.0
C423 C 0.52754 0.29871 0.80919 0.0
N424 N 0.49711 0.22506 0.79056 0.0
C425 C 0.49032 0.18473 0.83394 0.0
C426 C 0.51802 0.20714 0.82951 0.0
C427 C 0.52089 0.22697 0.80797 0.0
C428 C 0.46611 0.1837 0.81762 0.0
C429 C 0.46997 0.20399 0.79655 0.0
N430 N 0.50574 0.27505 0.71937 0.0
C431 C 0.53581 0.31278 0.68607 0.0
C432 C 0.51111 0.30844 0.66647 0.0
C433 C 0.48378 0.28758 0.6743 0.0
C434 C 0.48162 0.27139 0.70061 0.0
C435 C 0.53265 0.2959 0.71217 0.0
H436 H 0.46013 0.25601 0.70512 0.0
H437 H 0.55225 0.29997 0.72603 0.0
H438 H 0.54255 0.24333 0.80533 0.0
H439 H 0.45059 0.20171 0.78472 0.0
C440 C 0.42984 0.21702 0.73899 0.0
C441 C 0.49984 0.29603 0.81483 0.0
C442 C 0.50326 0.20434 0.69579 0.0
C443 C 0.57305 0.28333 0.77138 0.0
H444 H 0.44066 0.28145 0.81701 0.0
H445 H 0.40219 0.23815 0.77612 0.0
H446 H 0.4048 0.17226 0.68865 0.0
H447 H 0.44517 0.1658 0.66503 0.0
H448 H 0.56256 0.2189 0.69401 0.0
H449 H 0.60087 0.26237 0.73453 0.0
H450 H 0.59814 0.32751 0.82235 0.0
H451 H 0.55791 0.33397 0.84623 0.0
H452 H 0.53748 0.20929 0.84231 0.0
H453 H 0.44415 0.16679 0.82002 0.0
H454 H 0.55748 0.32878 0.68092 0.0
H455 H 0.46397 0.28385 0.66034 0.0
C456 C 0.07243 0.49719 0.06223 0.0
C457 C 0.08055 0.52277 0.05053 0.0
C458 C 0.09265 0.49339 0.08176 0.0
C459 C 0.12191 0.51563 0.08992 0.0
C460 C 0.13035 0.54132 0.07757 0.0
C461 C 0.10972 0.54456 0.0582 0.0
C462 C 0.08248 0.46569 0.09446 0.0
C463 C 0.16119 0.56564 0.08532 0.0
C464 C 0.168 0.5156 0.16802 0.0
C465 C 0.18557 0.50782 0.15363 0.0
C466 C 0.14702 0.51784 0.14775 0.0
C467 C 0.14351 0.51233 0.112 0.0
C468 C 0.16122 0.50435 0.09743 0.0
C469 C 0.18194 0.50218 0.11835 0.0
C470 C 0.1288 0.52639 0.16461 0.0
C471 C 0.15856 0.49845 0.0596 0.0
H472 H 0.05001 0.48021 0.0569 0.0
H473 H 0.11642 0.56449 0.04963 0.0
H474 H 0.09642 0.45835 0.0864 0.0
H475 H 0.08461 0.46732 0.1226 0.0
H476 H 0.05941 0.45022 0.08507 0.0
H477 H 0.16441 0.58423 0.0739 0.0
H478 H 0.16678 0.57026 0.11315 0.0
H479 H 0.17672 0.56085 0.07562 0.0
H480 H 0.17078 0.52004 0.19526 0.0
H481 H 0.1956 0.49632 0.1071 0.0
H482 H 0.10527 0.51101 0.15764 0.0
H483 H 0.1333 0.54609 0.15555 0.0
H484 H 0.13326 0.52885 0.19269 0.0
H485 H 0.1358 0.48214 0.05035 0.0
H486 H 0.1734 0.49194 0.0522 0.0
H487 H 0.1637 0.517 0.04659 0.0
C488 C 0.63562 0.06239 0.59239 0.0
C489 C 0.60595 0.05331 0.59011 0.0
C490 C 0.65599 0.08412 0.61582 0.0
C491 C 0.64653 0.09759 0.63661 0.0
C492 C 0.61645 0.08787 0.6352 0.0
C493 C 0.59649 0.06557 0.61237 0.0
C494 C 0.68776 0.09337 0.61734 0.0
C495 C 0.60551 0.10202 0.65632 0.0
C496 C 0.69418 0.14657 0.71281 0.0
C497 C 0.70615 0.17191 0.69894 0.0
C498 C 0.6755 0.12207 0.69259 0.0
C499 C 0.66815 0.12309 0.65791 0.0
C500 C 0.68057 0.14871 0.64374 0.0
C501 C 0.69989 0.17279 0.66432 0.0
C502 C 0.6634 0.09516 0.70838 0.0
C503 C 0.67285 0.15075 0.60707 0.0
H504 H 0.64301 0.05291 0.57533 0.0
H505 H 0.57362 0.0588 0.61062 0.0
H506 H 0.70027 0.11353 0.60667 0.0
H507 H 0.69702 0.09595 0.64404 0.0
H508 H 0.69101 0.07867 0.60284 0.0
H509 H 0.58135 0.09149 0.65284 0.0
H510 H 0.61248 0.10308 0.68358 0.0
H511 H 0.61516 0.12336 0.64926 0.0
H512 H 0.69937 0.14599 0.73957 0.0
H513 H 0.70966 0.19243 0.65357 0.0
H514 H 0.66757 0.0814 0.69327 0.0
H515 H 0.63941 0.08482 0.70829 0.0
H516 H 0.67308 0.09781 0.73492 0.0
H517 H 0.67854 0.13904 0.59025 0.0
H518 H 0.68428 0.17224 0.60008 0.0
H519 H 0.64897 0.14158 0.60215 0.0
C520 C 0.54869 0.60176 0.10665 0.0
C521 C 0.52924 0.57522 0.11574 0.0
C522 C 0.54978 0.62459 0.12201 0.0
C523 C 0.5305 0.62083 0.14658 0.0
C524 C 0.51049 0.59398 0.15541 0.0
C525 C 0.51024 0.57161 0.1401 0.0
C526 C 0.57183 0.65281 0.11224 0.0
C527 C 0.48904 0.58881 0.18078 0.0
C528 C 0.54872 0.6802 0.20992 0.0
C529 C 0.53213 0.68992 0.195 0.0
C530 C 0.54873 0.65807 0.19425 0.0
C531 C 0.53129 0.64491 0.16312 0.0
C532 C 0.51435 0.6546 0.14807 0.0
C533 C 0.5153 0.67719 0.16393 0.0
C534 C 0.56741 0.64874 0.21107 0.0
C535 C 0.495 0.64095 0.11534 0.0
H536 H 0.56348 0.60466 0.08797 0.0
H537 H 0.49474 0.55113 0.14675 0.0
H538 H 0.56052 0.66267 0.10171 0.0
H539 H 0.58625 0.66581 0.13506 0.0
H540 H 0.58558 0.65238 0.09316 0.0
H541 H 0.47617 0.56701 0.18649 0.0
H542 H 0.50062 0.60157 0.20482 0.0
H543 H 0.47376 0.5947 0.17068 0.0
H544 H 0.56179 0.69004 0.2339 0.0
H545 H 0.50266 0.68482 0.15217 0.0
H546 H 0.58251 0.64926 0.19331 0.0
H547 H 0.55343 0.62727 0.21754 0.0
H548 H 0.58046 0.66166 0.2346 0.0
H549 H 0.50831 0.64192 0.09489 0.0
H550 H 0.48277 0.65059 0.10722 0.0
H551 H 0.47911 0.61899 0.11833 0.0
C552 C 0.92073 0.52398 0.54724 0.0
C553 C 0.91046 0.50436 0.51968 0.0
C554 C 0.90154 0.52449 0.56847 0.0
C555 C 0.87125 0.50492 0.56191 0.0
C556 C 0.86054 0.48599 0.53303 0.0
C557 C 0.88032 0.48594 0.51219 0.0
C558 C 0.91385 0.54515 0.59887 0.0
C559 C 0.82836 0.46492 0.52515 0.0
C560 C 0.83004 0.48782 0.63979 0.0
C561 C 0.81841 0.50434 0.63784 0.0
C562 C 0.84643 0.48708 0.61456 0.0
C563 C 0.85126 0.50325 0.58669 0.0
C564 C 0.83877 0.51926 0.58398 0.0
C565 C 0.82251 0.51965 0.60964 0.0
C566 C 0.8595 0.46981 0.61842 0.0
C567 C 0.84331 0.53661 0.55453 0.0
H568 H 0.94399 0.53849 0.55274 0.0
H569 H 0.87231 0.4706 0.49109 0.0
H570 H 0.90273 0.55655 0.59923 0.0
H571 H 0.90986 0.5344 0.6225 0.0
H572 H 0.93769 0.56006 0.59912 0.0
H573 H 0.82329 0.45366 0.49993 0.0
H574 H 0.82098 0.44994 0.54475 0.0
H575 H 0.81562 0.47476 0.52582 0.0
H576 H 0.82719 0.47617 0.66168 0.0
H577 H 0.81318 0.53213 0.60776 0.0
H578 H 0.88366 0.48323 0.62198 0.0
H579 H 0.85361 0.45613 0.59511 0.0
H580 H 0.85212 0.45708 0.64038 0.0
H581 H 0.8667 0.55307 0.5554 0.0
H582 H 0.83024 0.54618 0.55479 0.0
H583 H 0.83736 0.52407 0.53017 0.0
C584 C 0.44767 0.95501 0.1161 0.0
C585 C 0.44546 0.94192 0.08469 0.0
C586 C 0.43225 0.93969 0.14293 0.0
C587 C 0.41451 0.91064 0.1384 0.0
C588 C 0.41337 0.89747 0.10719 0.0
C589 C 0.42863 0.91315 0.08094 0.0
C590 C 0.43424 0.95461 0.17578 0.0
C591 C 0.39534 0.86666 0.10106 0.0
C592 C 0.38734 0.86388 0.21146 0.0
C593 C 0.35796 0.85608 0.21037 0.0
C594 C 0.4063 0.88242 0.18927 0.0
C595 C 0.39589 0.89372 0.16522 0.0
C596 C 0.36654 0.88655 0.1646 0.0
C597 C 0.34805 0.86791 0.18696 0.0
C598 C 0.43732 0.88932 0.19095 0.0
C599 C 0.35426 0.89778 0.13932 0.0
H600 H 0.46057 0.97716 0.11932 0.0
H601 H 0.42709 0.90269 0.05704 0.0
H602 H 0.4126 0.95131 0.17938 0.0
H603 H 0.44031 0.94634 0.19749 0.0
H604 H 0.45045 0.97696 0.17636 0.0
H605 H 0.39773 0.85951 0.07594 0.0
H606 H 0.40182 0.85732 0.121 0.0
H607 H 0.37195 0.85902 0.10245 0.0
H608 H 0.39563 0.85544 0.2297 0.0
H609 H 0.32543 0.86196 0.18529 0.0
H610 H 0.45278 0.91183 0.19331 0.0
H611 H 0.4407 0.88135 0.16712 0.0
H612 H 0.44279 0.88051 0.21258 0.0
H613 H 0.36856 0.9204 0.14044 0.0
H614 H 0.33188 0.89214 0.14384 0.0
H615 H 0.35354 0.88977 0.11328 0.0
C616 C 0.48827 0.39721 0.5353 0.0
C617 C 0.50652 0.40567 0.5091 0.0
C618 C 0.49065 0.38191 0.56063 0.0
C619 C 0.51169 0.37469 0.55969 0.0
C620 C 0.53013 0.38304 0.53326 0.0
C621 C 0.52733 0.39843 0.50827 0.0
C622 C 0.47086 0.37374 0.58867 0.0
C623 C 0.55304 0.376 0.53166 0.0
C624 C 0.53182 0.35405 0.64236 0.0
C625 C 0.51337 0.3255 0.63818 0.0
C626 C 0.53204 0.3704 0.61675 0.0
C627 C 0.51371 0.35783 0.58604 0.0
C628 C 0.49588 0.32896 0.58124 0.0
C629 C 0.49588 0.31316 0.60738 0.0
C630 C 0.5519 0.40108 0.62271 0.0
C631 C 0.47622 0.31474 0.54881 0.0
H632 H 0.47209 0.40263 0.536 0.0
H633 H 0.54194 0.4054 0.48857 0.0
H634 H 0.45762 0.35113 0.58886 0.0
H635 H 0.48417 0.38205 0.61359 0.0
H636 H 0.45586 0.38123 0.58594 0.0
H637 H 0.56467 0.38285 0.50857 0.0
H638 H 0.56927 0.38582 0.55428 0.0
H639 H 0.5429 0.35358 0.53206 0.0
H640 H 0.54539 0.36367 0.66612 0.0
H641 H 0.48195 0.29106 0.60382 0.0
H642 H 0.54081 0.41152 0.61357 0.0
H643 H 0.57107 0.40791 0.60837 0.0
H644 H 0.55993 0.40774 0.64994 0.0
H645 H 0.45949 0.32015 0.54579 0.0
H646 H 0.46492 0.29213 0.54835 0.0
H647 H 0.48905 0.32174 0.52667 0.0
C648 C 0.56937 0.96026 0.40473 0.0
C649 C 0.54796 0.95546 0.42624 0.0
C650 C 0.56845 0.93856 0.38637 0.0
C651 C 0.5455 0.9112 0.38931 0.0
C652 C 0.52377 0.90618 0.41092 0.0
C653 C 0.52526 0.92827 0.42906 0.0
C654 C 0.59218 0.94495 0.36387 0.0
C655 C 0.49876 0.87744 0.41469 0.0
C656 C 0.52884 0.857 0.31852 0.0
C657 C 0.54252 0.84425 0.33271 0.0
C658 C 0.52947 0.87863 0.33666 0.0
C659 C 0.54428 0.8879 0.36982 0.0
C660 C 0.55812 0.875 0.38421 0.0
C661 C 0.55699 0.85331 0.36555 0.0
C662 C 0.51429 0.89158 0.32028 0.0
C663 C 0.57416 0.88411 0.41937 0.0
H664 H 0.58719 0.98103 0.40259 0.0
H665 H 0.50831 0.9242 0.44509 0.0
H666 H 0.60358 0.93458 0.3721 0.0
H667 H 0.58249 0.937 0.33735 0.0
H668 H 0.60854 0.96725 0.36428 0.0
H669 H 0.48439 0.87679 0.43363 0.0
H670 H 0.48544 0.86826 0.38991 0.0
H671 H 0.50721 0.86448 0.4225 0.0
H672 H 0.51758 0.84996 0.29316 0.0
H673 H 0.56741 0.84334 0.37662 0.0
H674 H 0.53027 0.91367 0.31832 0.0
H675 H 0.49761 0.88996 0.33625 0.0
H676 H 0.5035 0.88186 0.29453 0.0
H677 H 0.59186 0.90604 0.42063 0.0
H678 H 0.58385 0.87208 0.42692 0.0
H679 H 0.55904 0.88204 0.43808 0.0
C680 C 0.5789 0.52848 0.93626 0.0
C681 C 0.58913 0.5396 0.96991 0.0
C682 C 0.59766 0.52809 0.91406 0.0
C683 C 0.62737 0.53936 0.92573 0.0
C684 C 0.63821 0.55233 0.9589 0.0
C685 C 0.61892 0.55219 0.98063 0.0
C686 C 0.58525 0.51401 0.8789 0.0
C687 C 0.66983 0.56494 0.97212 0.0
C688 C 0.66698 0.509 0.88735 0.0
C689 C 0.68351 0.52842 0.86483 0.0
C690 C 0.64844 0.51223 0.90703 0.0
C691 C 0.64654 0.53557 0.90439 0.0
C692 C 0.66319 0.5553 0.88183 0.0
C693 C 0.68137 0.55144 0.86223 0.0
C694 C 0.63091 0.49065 0.93073 0.0
C695 C 0.66173 0.58044 0.87835 0.0
H696 H 0.55587 0.51857 0.92782 0.0
H697 H 0.62699 0.56095 0.00656 0.0
H698 H 0.59914 0.52702 0.85967 0.0
H699 H 0.58496 0.49471 0.8772 0.0
H700 H 0.56266 0.50903 0.87242 0.0
H701 H 0.67542 0.57666 0.99711 0.0
H702 H 0.67448 0.54859 0.97493 0.0
H703 H 0.68432 0.57881 0.95389 0.0
H704 H 0.66874 0.49134 0.88987 0.0
H705 H 0.6936 0.5663 0.84444 0.0
H706 H 0.6073 0.4823 0.92454 0.0
H707 H 0.63694 0.49988 0.95724 0.0
H708 H 0.63443 0.47345 0.9293 0.0
H709 H 0.63902 0.57435 0.87004 0.0
H710 H 0.67625 0.59397 0.85984 0.0
H711 H 0.66805 0.59231 0.90329 0.0
C712 C 0.07865 0.559 0.4417 0.0
C713 C 0.06768 0.56158 0.4716 0.0
C714 C 0.1023 0.58166 0.42883 0.0
C715 C 0.11537 0.60797 0.44592 0.0
C716 C 0.10525 0.61057 0.47703 0.0
C717 C 0.0816 0.5873 0.48963 0.0
C718 C 0.11247 0.57753 0.39604 0.0
C719 C 0.11844 0.63816 0.4961 0.0
C720 C 0.18875 0.66362 0.4179 0.0
C721 C 0.18031 0.67615 0.39381 0.0
C722 C 0.16812 0.64208 0.4358 0.0
C723 C 0.13811 0.63267 0.42976 0.0
C724 C 0.12951 0.64561 0.40609 0.0
C725 C 0.15055 0.66698 0.38845 0.0
C726 C 0.17838 0.62895 0.46065 0.0
C727 C 0.09783 0.63631 0.39857 0.0
H728 H 0.06809 0.53911 0.42774 0.0
H729 H 0.07305 0.58949 0.51252 0.0
H730 H 0.10868 0.58873 0.3762 0.0
H731 H 0.13625 0.58596 0.39948 0.0
H732 H 0.10095 0.55561 0.38675 0.0
H733 H 0.11022 0.63653 0.52132 0.0
H734 H 0.14256 0.64879 0.49966 0.0
H735 H 0.1131 0.65108 0.4811 0.0
H736 H 0.21162 0.67065 0.42287 0.0
H737 H 0.14346 0.67601 0.36965 0.0
H738 H 0.16918 0.60734 0.45153 0.0
H739 H 0.17039 0.62883 0.48564 0.0
H740 H 0.20254 0.63966 0.46417 0.0
H741 H 0.08532 0.61509 0.38654 0.0
H742 H 0.09484 0.64962 0.38137 0.0
H743 H 0.08833 0.63611 0.42247 0.0
C744 C 0.4494 0.04219 0.90426 0.0
C745 C 0.46208 0.04496 0.9374 0.0
C746 C 0.45359 0.06512 0.88812 0.0
C747 C 0.471 0.09145 0.90547 0.0
C748 C 0.48335 0.09434 0.93911 0.0
C749 C 0.47857 0.07108 0.95471 0.0
C750 C 0.43989 0.06124 0.85226 0.0
C751 C 0.50212 0.12208 0.95841 0.0
C752 C 0.50536 0.15247 0.85213 0.0
C753 C 0.4865 0.16195 0.85411 0.0
C754 C 0.50081 0.12979 0.86912 0.0
C755 C 0.47664 0.11605 0.88825 0.0
C756 C 0.45779 0.12573 0.89082 0.0
C757 C 0.46306 0.14865 0.87392 0.0
C758 C 0.52162 0.12026 0.86614 0.0
C759 C 0.43181 0.11162 0.91104 0.0
H760 H 0.43688 0.02221 0.89053 0.0
H761 H 0.48797 0.07342 0.98053 0.0
H762 H 0.42632 0.07028 0.85083 0.0
H763 H 0.4572 0.07208 0.83512 0.0
H764 H 0.42603 0.03933 0.84278 0.0
H765 H 0.5097 0.12077 0.98464 0.0
H766 H 0.52152 0.13529 0.94492 0.0
H767 H 0.48979 0.13231 0.95971 0.0
H768 H 0.52328 0.16232 0.83653 0.0
H769 H 0.44867 0.15609 0.87612 0.0
H770 H 0.50972 0.09917 0.85377 0.0
H771 H 0.53085 0.11963 0.89172 0.0
H772 H 0.5399 0.13373 0.85121 0.0
H773 H 0.41692 0.09006 0.90068 0.0
H774 H 0.41935 0.12181 0.91066 0.0
H775 H 0.43907 0.11126 0.93777 0.0
C776 C 0.42201 0.48068 0.41775 0.0
C777 C 0.44318 0.50598 0.43505 0.0
C778 C 0.39908 0.47794 0.39512 0.0
C779 C 0.39691 0.50096 0.38962 0.0
C780 C 0.4177 0.52631 0.40784 0.0
C781 C 0.44045 0.52851 0.43005 0.0
C782 C 0.37766 0.45055 0.37622 0.0
C783 C 0.41639 0.55142 0.40326 0.0
C784 C 0.3582 0.50462 0.30683 0.0
C785 C 0.33118 0.49826 0.31667 0.0
C786 C 0.3794 0.50492 0.32998 0.0
C787 C 0.37367 0.49895 0.36409 0.0
C788 C 0.34616 0.49224 0.37396 0.0
C789 C 0.3253 0.49192 0.35017 0.0
C790 C 0.40817 0.51209 0.31802 0.0
C791 C 0.339 0.48599 0.4099 0.0
H792 H 0.42389 0.46315 0.421 0.0
H793 H 0.45655 0.54822 0.44309 0.0
H794 H 0.355 0.44423 0.38021 0.0
H795 H 0.37957 0.45219 0.34861 0.0
H796 H 0.38134 0.43434 0.38432 0.0
H797 H 0.43314 0.56924 0.42054 0.0
H798 H 0.41977 0.55707 0.37674 0.0
H799 H 0.39452 0.5471 0.40792 0.0
H800 H 0.36285 0.50961 0.28098 0.0
H801 H 0.30449 0.48713 0.3579 0.0
H802 H 0.41245 0.49579 0.32348 0.0
H803 H 0.42615 0.5313 0.33201 0.0
H804 H 0.40876 0.51484 0.29042 0.0
H805 H 0.34171 0.46908 0.41728 0.0
H806 H 0.31637 0.48016 0.41334 0.0
H807 H 0.35438 0.50417 0.42747 0.0
C808 C 0.8974 0.39436 0.0174 0.0
C809 C 0.89984 0.41973 0.01962 0.0
C810 C 0.87726 0.37341 0.99314 0.0
C811 C 0.85911 0.37793 0.97062 0.0
C812 C 0.85978 0.40261 0.97452 0.0
C813 C 0.88006 0.42317 0.99912 0.0
C814 C 0.87718 0.34733 0.98978 0.0
C815 C 0.84069 0.40817 0.95111 0.0
C816 C 0.84049 0.34187 0.88282 0.0
C817 C 0.8124 0.3193 0.88504 0.0
C818 C 0.85564 0.36146 0.91033 0.0
C819 C 0.84223 0.35828 0.94064 0.0
C820 C 0.81347 0.33579 0.9426 0.0
C821 C 0.79886 0.31644 0.91466 0.0
C822 C 0.88624 0.38521 0.90718 0.0
C823 C 0.79843 0.33193 0.97436 0.0
H824 H 0.91263 0.39147 0.03285 0.0
H825 H 0.88151 0.44255 1.0011 0.0
H826 H 0.85455 0.32921 0.98778 0.0
H827 H 0.88669 0.34672 0.9662 0.0
H828 H 0.89003 0.34568 0.01157 0.0
H829 H 0.84077 0.42647 0.96048 0.0
H830 H 0.84869 0.41171 0.92566 0.0
H831 H 0.81789 0.39028 0.94802 0.0
H832 H 0.85067 0.34392 0.85965 0.0
H833 H 0.77701 0.29889 0.916 0.0
H834 H 0.90184 0.38452 0.92611 0.0
H835 H 0.88776 0.40484 0.91262 0.0
H836 H 0.89313 0.38506 0.88153 0.0
H837 H 0.81034 0.32853 0.99553 0.0
H838 H 0.77544 0.31429 0.97103 0.0
H839 H 0.79872 0.35067 0.9819 0.0
C840 C 0.94693 0.53049 0.93485 0.0
C841 C 0.94664 0.50606 0.93438 0.0
C842 C 0.92561 0.53251 0.91489 0.0
C843 C 0.90306 0.50952 0.89395 0.0
C844 C 0.90286 0.48492 0.89311 0.0
C845 C 0.92455 0.48354 0.91308 0.0
C846 C 0.9269 0.55918 0.91669 0.0
C847 C 0.87929 0.45974 0.87162 0.0
C848 C 0.83114 0.50517 0.86797 0.0
C849 C 0.83415 0.51261 0.83443 0.0
C850 C 0.85327 0.50416 0.88753 0.0
C851 C 0.8794 0.51097 0.87348 0.0
C852 C 0.88261 0.51877 0.83966 0.0
C853 C 0.86004 0.51944 0.82062 0.0
C854 C 0.84859 0.49559 0.92327 0.0
C855 C 0.9099 0.52624 0.82344 0.0
H856 H 0.96363 0.548 0.95126 0.0
H857 H 0.92366 0.4644 0.91259 0.0
H858 H 0.92747 0.5663 0.89092 0.0
H859 H 0.90696 0.55613 0.92676 0.0
H860 H 0.94628 0.57546 0.93313 0.0
H861 H 0.88261 0.44244 0.87284 0.0
H862 H 0.8577 0.45311 0.88025 0.0
H863 H 0.8786 0.46447 0.84479 0.0
H864 H 0.81128 0.50002 0.87887 0.0
H865 H 0.86254 0.52523 0.79475 0.0
H866 H 0.86625 0.51198 0.94137 0.0
H867 H 0.84955 0.47706 0.92578 0.0
H868 H 0.82726 0.49113 0.93065 0.0
H869 H 0.92932 0.54333 0.8389 0.0
H870 H 0.9094 0.53239 0.79725 0.0
H871 H 0.91262 0.50857 0.82257 0.0
C872 C 0.4164 0.93591 0.50722 0.0
C873 C 0.44453 0.94105 0.51488 0.0
C874 C 0.39453 0.91178 0.48838 0.0
C875 C 0.40099 0.8924 0.47697 0.0
C876 C 0.42859 0.89645 0.48694 0.0
C877 C 0.45001 0.92069 0.50592 0.0
C878 C 0.36526 0.90808 0.47848 0.0
C879 C 0.43627 0.87622 0.47535 0.0
C880 C 0.3381 0.82383 0.43623 0.0
C881 C 0.33962 0.82873 0.40189 0.0
C882 C 0.35833 0.84418 0.46115 0.0
C883 C 0.38031 0.86986 0.45121 0.0
C884 C 0.38213 0.87453 0.41632 0.0
C885 C 0.36167 0.85384 0.39206 0.0
C886 C 0.35581 0.83846 0.49804 0.0
C887 C 0.40528 0.90158 0.40464 0.0
H888 H 0.41188 0.95139 0.51427 0.0
H889 H 0.47162 0.92436 0.51185 0.0
H890 H 0.36316 0.91063 0.451 0.0
H891 H 0.34729 0.88717 0.48289 0.0
H892 H 0.36244 0.92315 0.49278 0.0
H893 H 0.45729 0.88073 0.48842 0.0
H894 H 0.41884 0.8551 0.47989 0.0
H895 H 0.43806 0.87683 0.44766 0.0
H896 H 0.32079 0.80428 0.44352 0.0
H897 H 0.36252 0.85739 0.36534 0.0
H898 H 0.35064 0.85222 0.51137 0.0
H899 H 0.37691 0.84275 0.51043 0.0
H900 H 0.33857 0.81694 0.5014 0.0
H901 H 0.4028 0.91816 0.41492 0.0
H902 H 0.40412 0.90158 0.37656 0.0
H903 H 0.42729 0.90649 0.41445 0.0
C904 C 0.4861 0.40243 0.93737 0.0
C905 C 0.50921 0.41442 0.96342 0.0
C906 C 0.48331 0.38304 0.91247 0.0
C907 C 0.50434 0.37564 0.91321 0.0
C908 C 0.52794 0.388 0.93916 0.0
C909 C 0.52998 0.40703 0.96393 0.0
C910 C 0.45767 0.37025 0.88554 0.0
C911 C 0.55117 0.3812 0.94073 0.0
C912 C 0.48635 0.30788 0.86938 0.0
C913 C 0.49954 0.31618 0.83923 0.0
C914 C 0.48709 0.32684 0.8932 0.0
C915 C 0.50175 0.35494 0.88704 0.0
C916 C 0.51487 0.36334 0.85639 0.0
C917 C 0.51344 0.34387 0.83283 0.0
C918 C 0.47258 0.31684 0.92527 0.0
C919 C 0.531 0.39302 0.8488 0.0
H920 H 0.46987 0.40785 0.93685 0.0
H921 H 0.5482 0.41648 0.98349 0.0
H922 H 0.46549 0.37436 0.86002 0.0
H923 H 0.44467 0.34772 0.88671 0.0
H924 H 0.44317 0.3781 0.8884 0.0
H925 H 0.5684 0.3929 0.96212 0.0
H926 H 0.54117 0.35904 0.9436 0.0
H927 H 0.56157 0.38567 0.91671 0.0
H928 H 0.47572 0.28652 0.87447 0.0
H929 H 0.52366 0.35033 0.80953 0.0
H930 H 0.45693 0.3233 0.92824 0.0
H931 H 0.48922 0.32614 0.94757 0.0
H932 H 0.46074 0.29422 0.92547 0.0
H933 H 0.51643 0.40092 0.84969 0.0
H934 H 0.53941 0.39616 0.82354 0.0
H935 H 0.54968 0.40539 0.86843 0.0
C936 C 0.04806 0.45318 0.39299 0.0
C937 C 0.05242 0.46412 0.42652 0.0
C938 C 0.07169 0.45793 0.37553 0.0
C939 C 0.10045 0.47435 0.39173 0.0
C940 C 0.10508 0.48524 0.42556 0.0
C941 C 0.08106 0.47971 0.44264 0.0
C942 C 0.06589 0.44566 0.33954 0.0
C943 C 0.13547 0.50309 0.44361 0.0
C944 C 0.15984 0.46788 0.35689 0.0
C945 C 0.17225 0.48971 0.336 0.0
C946 C 0.13653 0.46269 0.3752 0.0
C947 C 0.12573 0.48011 0.37325 0.0
C948 C 0.13879 0.50278 0.35329 0.0
C949 C 0.16171 0.50718 0.33468 0.0
C950 C 0.12308 0.43822 0.3961 0.0
C951 C 0.12826 0.52217 0.35121 0.0
H952 H 0.02626 0.44133 0.37999 0.0
H953 H 0.08491 0.48783 0.46869 0.0
H954 H 0.07632 0.46218 0.32214 0.0
H955 H 0.07569 0.43315 0.33736 0.0
H956 H 0.04221 0.43256 0.33096 0.0
H957 H 0.13536 0.51013 0.46991 0.0
H958 H 0.14667 0.49175 0.44457 0.0
H959 H 0.14853 0.52132 0.42938 0.0
H960 H 0.1682 0.45461 0.35877 0.0
H961 H 0.17081 0.5239 0.31836 0.0
H962 H 0.09968 0.42413 0.38684 0.0
H963 H 0.12414 0.44485 0.42296 0.0
H964 H 0.13413 0.42673 0.39505 0.0
H965 H 0.10511 0.51096 0.34029 0.0
H966 H 0.14135 0.53934 0.33543 0.0
H967 H 0.12931 0.53077 0.37701 0.0
C968 C 0.58119 0.07838 0.9815 0.0
C969 C 0.57153 0.05198 0.96769 0.0
C970 C 0.60266 0.10186 0.96676 0.0
C971 C 0.61485 0.09888 0.93766 0.0
C972 C 0.60595 0.07224 0.92468 0.0
C973 C 0.58453 0.04932 0.93972 0.0
C974 C 0.61142 0.1298 0.98146 0.0
C975 C 0.61829 0.06782 0.89399 0.0
C976 C 0.64567 0.15238 0.87246 0.0
C977 C 0.67596 0.16443 0.87945 0.0
C978 C 0.62568 0.13202 0.89213 0.0
C979 C 0.63598 0.1232 0.91962 0.0
C980 C 0.66651 0.13584 0.9275 0.0
C981 C 0.68602 0.1562 0.90744 0.0
C982 C 0.5934 0.11922 0.88264 0.0
C983 C 0.67859 0.12728 0.95656 0.0
H984 H 0.57104 0.08069 1.00277 0.0
H985 H 0.57733 0.02905 0.92886 0.0
H986 H 0.63554 0.14338 0.98557 0.0
H987 H 0.60354 0.13924 0.96327 0.0
H988 H 0.60228 0.12891 0.00589 0.0
H989 H 0.61012 0.0459 0.88794 0.0
H990 H 0.61234 0.0756 0.87162 0.0
H991 H 0.64246 0.07944 0.89819 0.0
H992 H 0.63742 0.15821 0.85083 0.0
H993 H 0.70928 0.16562 0.91371 0.0
H994 H 0.58265 0.11961 0.90519 0.0
H995 H 0.58327 0.09746 0.87343 0.0
H996 H 0.58888 0.1298 0.86252 0.0
H997 H 0.669 0.12781 0.98009 0.0
H998 H 0.70274 0.14058 0.96129 0.0
H999 H 0.67252 0.1059 0.95093 0.0
C1000 C 0.55483 0.59791 0.43611 0.0
C1001 C 0.56439 0.58522 0.41463 0.0
C1002 C 0.55651 0.62207 0.42804 0.0
C1003 C 0.56807 0.63387 0.3978 0.0
C1004 C 0.57973 0.62233 0.37732 0.0
C1005 C 0.57771 0.5981 0.38598 0.0
C1006 C 0.54371 0.63365 0.45049 0.0
C1007 C 0.59249 0.63448 0.34501 0.0
C1008 C 0.53529 0.66919 0.35184 0.0
C1009 C 0.55688 0.69692 0.35971 0.0
C1010 C 0.53861 0.64859 0.36447 0.0
C1011 C 0.5643 0.65583 0.38529 0.0
C1012 C 0.58608 0.68374 0.39374 0.0
C1013 C 0.58209 0.704 0.38087 0.0
C1014 C 0.51477 0.61902 0.35498 0.0
C1015 C 0.61368 0.69214 0.41599 0.0
H1016 H 0.54421 0.5881 0.45811 0.0
H1017 H 0.58542 0.58854 0.36957 0.0
H1018 H 0.55841 0.65618 0.4549 0.0
H1019 H 0.52266 0.62923 0.43773 0.0
H1020 H 0.53965 0.62467 0.47541 0.0
H1021 H 0.60403 0.62532 0.33441 0.0
H1022 H 0.57473 0.63092 0.32576 0.0
H1023 H 0.60796 0.65692 0.3495 0.0
H1024 H 0.51605 0.66348 0.3349 0.0
H1025 H 0.59876 0.72538 0.38727 0.0
H1026 H 0.5069 0.60813 0.37819 0.0
H1027 H 0.5235 0.60866 0.34069 0.0
H1028 H 0.49585 0.61688 0.33919 0.0
H1029 H 0.60824 0.68308 0.44072 0.0
H1030 H 0.62826 0.71471 0.42071 0.0
H1031 H 0.62576 0.68419 0.4039 0.0
C1032 C 0.48952 0.09363 0.55469 0.0
C1033 C 0.51211 0.08882 0.56059 0.0
C1034 C 0.48739 0.11206 0.57639 0.0
C1035 C 0.50866 0.12651 0.60448 0.0
C1036 C 0.53173 0.12198 0.61033 0.0
C1037 C 0.53301 0.10305 0.58858 0.0
C1038 C 0.46218 0.11585 0.56943 0.0
C1039 C 0.55516 0.13719 0.63956 0.0
C1040 C 0.51815 0.1926 0.64236 0.0
C1041 C 0.50397 0.18418 0.67188 0.0
C1042 C 0.51999 0.17416 0.62038 0.0
C1043 C 0.50682 0.1464 0.62766 0.0
C1044 C 0.49199 0.13772 0.65719 0.0
C1045 C 0.49094 0.15673 0.67903 0.0
C1046 C 0.53636 0.18448 0.58955 0.0
C1047 C 0.47727 0.10832 0.66576 0.0
H1048 H 0.47307 0.0825 0.53344 0.0
H1049 H 0.55069 0.09969 0.59317 0.0
H1050 H 0.44953 0.1108 0.59175 0.0
H1051 H 0.47048 0.13755 0.56524 0.0
H1052 H 0.44722 0.10284 0.54688 0.0
H1053 H 0.57261 0.13271 0.6394 0.0
H1054 H 0.56521 0.15956 0.63864 0.0
H1055 H 0.54537 0.13148 0.6639 0.0
H1056 H 0.52816 0.2138 0.63675 0.0
H1057 H 0.48 0.15019 0.70186 0.0
H1058 H 0.5216 0.17313 0.56621 0.0
H1059 H 0.55438 0.18075 0.59045 0.0
H1060 H 0.54567 0.20668 0.58766 0.0
H1061 H 0.4612 0.09462 0.64435 0.0
H1062 H 0.46583 0.10463 0.68899 0.0
H1063 H 0.49366 0.10258 0.66967 0.0
C1064 C 0.4115 0.46574 0.05218 0.0
C1065 C 0.43203 0.48389 0.03137 0.0
C1066 C 0.39274 0.4717 0.06706 0.0
C1067 C 0.39423 0.49632 0.0607 0.0
C1068 C 0.41347 0.51386 0.03787 0.0
C1069 C 0.43224 0.50748 0.02351 0.0
C1070 C 0.37251 0.45238 0.09122 0.0
C1071 C 0.41538 0.54007 0.03003 0.0
C1072 C 0.32992 0.49753 0.08925 0.0
C1073 C 0.34097 0.51062 0.12198 0.0
C1074 C 0.34761 0.49437 0.06795 0.0
C1075 C 0.37693 0.50421 0.07988 0.0
C1076 C 0.38867 0.51888 0.11214 0.0
C1077 C 0.37056 0.52202 0.13275 0.0
C1078 C 0.33447 0.47919 0.03345 0.0
C1079 C 0.41986 0.52974 0.12581 0.0
H1080 H 0.41104 0.44739 0.05825 0.0
H1081 H 0.44806 0.52169 0.00752 0.0
H1082 H 0.37892 0.46278 0.11716 0.0
H1083 H 0.34978 0.44654 0.08371 0.0
H1084 H 0.37295 0.43346 0.09212 0.0
H1085 H 0.42772 0.54906 0.00786 0.0
H1086 H 0.39327 0.53652 0.0249 0.0
H1087 H 0.42659 0.55522 0.0523 0.0
H1088 H 0.30714 0.48905 0.08065 0.0
H1089 H 0.37915 0.53203 0.15809 0.0
H1090 H 0.33166 0.45877 0.0336 0.0
H1091 H 0.34922 0.49034 0.01388 0.0
H1092 H 0.31285 0.47626 0.02608 0.0
H1093 H 0.42282 0.51243 0.12957 0.0
H1094 H 0.42609 0.54214 0.15038 0.0
H1095 H 0.43503 0.54255 0.10741 0.0
C1096 C 0.95758 0.43922 0.60893 0.0
C1097 C 0.94563 0.43319 0.57487 0.0
C1098 C 0.9416 0.42241 0.6345 0.0
C1099 C 0.91296 0.3991 0.62593 0.0
C1100 C 0.90093 0.39312 0.59164 0.0
C1101 C 0.91727 0.41003 0.56682 0.0
C1102 C 0.95532 0.42954 0.6707 0.0
C1103 C 0.87058 0.3687 0.58099 0.0
C1104 C 0.8761 0.33741 0.67919 0.0
C1105 C 0.85569 0.341 0.69449 0.0
C1106 C 0.89582 0.3568 0.65836 0.0
C1107 C 0.89527 0.38053 0.6522 0.0
C1108 C 0.87531 0.38469 0.66823 0.0
C1109 C 0.85592 0.36502 0.6891 0.0
C1110 C 0.91649 0.35128 0.6418 0.0
C1111 C 0.87374 0.40953 0.66242 0.0
H1112 H 0.97934 0.457 0.6156 0.0
H1113 H 0.90749 0.40496 0.54078 0.0
H1114 H 0.94158 0.43279 0.68708 0.0
H1115 H 0.95652 0.41229 0.68017 0.0
H1116 H 0.97764 0.44824 0.6734 0.0
H1117 H 0.86424 0.36693 0.55333 0.0
H1118 H 0.86924 0.34962 0.58765 0.0
H1119 H 0.85443 0.37023 0.59481 0.0
H1120 H 0.87612 0.31894 0.68258 0.0
H1121 H 0.84082 0.36851 0.70115 0.0
H1122 H 0.93905 0.36953 0.64577 0.0
H1123 H 0.91014 0.34702 0.61405 0.0
H1124 H 0.91646 0.33354 0.65179 0.0
H1125 H 0.89577 0.42843 0.66722 0.0
H1126 H 0.85895 0.41111 0.67889 0.0
H1127 H 0.86574 0.40857 0.63556 0.0
C1128 C 0.4848 0.87756 0.0116 0.0
C1129 C 0.50575 0.90562 0.01793 0.0
C1130 C 0.48539 0.85848 0.03221 0.0
C1131 C 0.5073 0.8678 0.05982 0.0
C1132 C 0.52929 0.89593 0.06522 0.0
C1133 C 0.52836 0.91442 0.04404 0.0
C1134 C 0.46185 0.82857 0.0254 0.0
C1135 C 0.55306 0.90674 0.09438 0.0
C1136 C 0.49424 0.82962 0.13917 0.0
C1137 C 0.51193 0.81899 0.1364 0.0
C1138 C 0.49147 0.84458 0.11362 0.0
C1139 C 0.50652 0.84866 0.08448 0.0
C1140 C 0.52313 0.83669 0.08075 0.0
C1141 C 0.52583 0.82216 0.10692 0.0
C1142 C 0.47377 0.85726 0.11869 0.0
C1143 C 0.53906 0.84022 0.0498 0.0
H1144 H 0.46716 0.87062 0.99162 0.0
H1145 H 0.5449 0.93602 0.04858 0.0
H1146 H 0.47156 0.81591 0.02553 0.0
H1147 H 0.4471 0.8221 0.04581 0.0
H1148 H 0.4486 0.82427 1.0007 0.0
H1149 H 0.56919 0.92905 0.0942 0.0
H1150 H 0.54323 0.90286 0.11877 0.0
H1151 H 0.56478 0.89591 0.09346 0.0
H1152 H 0.48365 0.82733 0.16207 0.0
H1153 H 0.53923 0.81363 0.1046 0.0
H1154 H 0.45797 0.85215 0.09614 0.0
H1155 H 0.48848 0.87987 0.12177 0.0
H1156 H 0.46158 0.85036 0.14139 0.0
H1157 H 0.52424 0.83541 0.02635 0.0
H1158 H 0.5481 0.82699 0.04894 0.0
H1159 H 0.55732 0.86184 0.04984 0.0
C1160 C 0.58536 0.52857 0.5775 0.0
C1161 C 0.57193 0.50626 0.55305 0.0
C1162 C 0.60551 0.53087 0.60423 0.0
C1163 C 0.61219 0.5103 0.60671 0.0
C1164 C 0.59736 0.4871 0.58297 0.0
C1165 C 0.57775 0.48551 0.55649 0.0
C1166 C 0.62079 0.55601 0.62876 0.0
C1167 C 0.60333 0.46449 0.58428 0.0
C1168 C 0.68621 0.52578 0.64686 0.0
C1169 C 0.67965 0.51522 0.67866 0.0
C1170 C 0.66483 0.52532 0.62392 0.0
C1171 C 0.63584 0.51354 0.63253 0.0
C1172 C 0.62919 0.50305 0.6648 0.0
C1173 C 0.65116 0.50424 0.6875 0.0
C1174 C 0.67318 0.53691 0.59005 0.0
C1175 C 0.59858 0.48966 0.67491 0.0
H1176 H 0.58139 0.5449 0.57468 0.0
H1177 H 0.56756 0.46825 0.53756 0.0
H1178 H 0.61912 0.55011 0.65526 0.0
H1179 H 0.64433 0.5683 0.6251 0.0
H1180 H 0.61163 0.56904 0.6253 0.0
H1181 H 0.58672 0.44598 0.56784 0.0
H1182 H 0.62504 0.47176 0.57556 0.0
H1183 H 0.60386 0.45874 0.61063 0.0
H1184 H 0.7081 0.53418 0.63978 0.0
H1185 H 0.64593 0.49609 0.71205 0.0
H1186 H 0.66659 0.55179 0.58565 0.0
H1187 H 0.66145 0.52023 0.56947 0.0
H1188 H 0.697 0.54727 0.58819 0.0
H1189 H 0.5904 0.50345 0.6716 0.0
H1190 H 0.59728 0.48419 0.70162 0.0
H1191 H 0.58382 0.47076 0.65813 0.0
C1192 C 0.06448 0.61691 0.13986 0.0
C1193 C 0.06316 0.59543 0.12089 0.0
C1194 C 0.08981 0.63606 0.16068 0.0
C1195 C 0.11443 0.63367 0.16259 0.0
C1196 C 0.11292 0.61147 0.1445 0.0
C1197 C 0.08733 0.59266 0.12383 0.0
C1198 C 0.09054 0.65938 0.17978 0.0
C1199 C 0.13868 0.60816 0.14588 0.0
C1200 C 0.18787 0.6997 0.18456 0.0
C1201 C 0.19323 0.69817 0.21915 0.0
C1202 C 0.16253 0.67851 0.16567 0.0
C1203 C 0.14226 0.65533 0.18191 0.0
C1204 C 0.14813 0.65346 0.21677 0.0
C1205 C 0.17365 0.67501 0.23504 0.0
C1206 C 0.15709 0.68122 0.12855 0.0
C1207 C 0.12715 0.62904 0.2349 0.0
H1208 H 0.04578 0.61895 0.138 0.0
H1209 H 0.08679 0.57643 0.10891 0.0
H1210 H 0.09716 0.66024 0.20713 0.0
H1211 H 0.10702 0.67907 0.17029 0.0
H1212 H 0.06907 0.65749 0.17703 0.0
H1213 H 0.13313 0.58861 0.13254 0.0
H1214 H 0.15675 0.62529 0.13395 0.0
H1215 H 0.14686 0.60893 0.17259 0.0
H1216 H 0.20326 0.71775 0.17254 0.0
H1217 H 0.17809 0.67407 0.2619 0.0
H1218 H 0.13703 0.68173 0.1241 0.0
H1219 H 0.15347 0.66323 0.11306 0.0
H1220 H 0.17554 0.70004 0.1195 0.0
H1221 H 0.10604 0.62769 0.23473 0.0
H1222 H 0.13563 0.63016 0.26163 0.0
H1223 H 0.12269 0.60992 0.22151 0.0
loop_
_geom_bond_atom_site_label_1
_geom_bond_atom_site_label_2
_geom_bond_distance
_geom_bond_site_symmetry_2
_ccdc_geom_bond_type
Cu0 N1 1.999 1_454 S
Cu0 O6 1.974 1_454 S
Cu0 N11 1.985 . S
Cu0 O20 1.959 . S
N1 Cu0 1.999 1_656 S
N1 C3 1.263 . S
N1 C5 1.389 1_556 S
N2 C3 1.358 . S
N2 C4 1.400 . S
C3 N1 1.263 . S
C3 N2 1.358 . S
C3 H9 0.930 . S
C4 N2 1.400 . S
C4 C5 1.351 1_556 S
C4 H21 0.930 . S
C5 N1 1.389 1_554 S
C5 C4 1.351 1_554 S
C5 H10 0.930 . S
O6 Cu0 1.974 1_656 S
O6 C16 1.282 . S
C7 O8 1.258 . S
C7 O20 1.251 . S
O8 C7 1.258 . S
H9 C3 0.930 . S
H10 C5 0.930 . S
N11 Cu0 1.985 . S
N11 C13 1.335 . S
N11 C14 1.390 . S
N12 C13 1.345 . S
N12 C15 1.336 . S
C13 N11 1.335 . S
C13 N12 1.345 . S
C13 H18 0.930 . S
C14 N11 1.390 . S
C14 C15 1.346 . S
C14 H19 0.930 1_554 S
C15 N12 1.336 . S
C15 C14 1.346 . S
C15 H22 0.929 . S
C16 O6 1.282 . S
C16 O17 1.216 1_655 S
O17 C16 1.216 1_455 S
H18 C13 0.930 . S
H19 C14 0.930 1_556 S
O20 Cu0 1.959 . S
O20 C7 1.251 . S
H21 C4 0.930 . S
H22 C15 0.929 . S
Cu23 N24 1.999 . S
Cu23 O29 1.974 . S
Cu23 N34 1.985 1_565 S
Cu23 O43 1.959 1_565 S
N24 Cu23 1.999 . S
N24 C26 1.263 . S
N24 C28 1.389 . S
N25 C26 1.358 . S
N25 C27 1.400 . S
C26 N24 1.263 . S
C26 N25 1.358 . S
C26 H32 0.930 . S
C27 N25 1.400 . S
C27 C28 1.351 . S
C27 H44 0.930 . S
C28 N24 1.389 . S
C28 C27 1.351 . S
C28 H33 0.930 . S
O29 Cu23 1.974 . S
O29 C39 1.282 . S
C30 O31 1.261 . S
C30 O43 1.251 . S
O31 C30 1.261 . S
H32 C26 0.930 . S
H33 C28 0.930 . S
N34 Cu23 1.985 1_545 S
N34 C36 1.335 . S
N34 C37 1.390 . S
N35 C36 1.345 . S
N35 C38 1.336 . S
C36 N34 1.335 . S
C36 N35 1.345 . S
C36 H41 0.930 . S
C37 N34 1.390 . S
C37 C38 1.346 . S
C37 H42 0.930 . S
C38 N35 1.336 . S
C38 C37 1.346 . S
C38 H45 0.929 . S
C39 O29 1.282 . S
C39 O40 1.216 . S
O40 C39 1.216 . S
H41 C36 0.930 . S
H42 C37 0.930 . S
O43 Cu23 1.959 1_545 S
O43 C30 1.251 . S
H44 C27 0.930 . S
H45 C38 0.929 . S
Cu46 N47 1.999 1_554 S
Cu46 O52 1.974 1_554 S
Cu46 N57 1.985 . S
Cu46 O66 1.959 . S
N47 Cu46 1.999 1_556 S
N47 C49 1.263 . S
N47 C51 1.389 . S
N48 C49 1.358 . S
N48 C50 1.400 . S
C49 N47 1.263 . S
C49 N48 1.358 . S
C49 H55 0.930 . S
C50 N48 1.400 . S
C50 C51 1.351 . S
C50 H67 0.930 . S
C51 N47 1.389 . S
C51 C50 1.351 . S
C51 H56 0.930 . S
O52 Cu46 1.974 1_556 S
O52 C62 1.282 . S
C53 O54 1.261 . S
C53 O66 1.251 . S
O54 C53 1.261 . S
H55 C49 0.930 . S
H56 C51 0.930 . S
N57 Cu46 1.985 . S
N57 C59 1.335 . S
N57 C60 1.390 . S
N58 C59 1.345 . S
N58 C61 1.336 . S
C59 N57 1.335 . S
C59 N58 1.345 . S
C59 H64 0.930 . S
C60 N57 1.390 . S
C60 C61 1.346 . S
C60 H65 0.930 . S
C61 N58 1.336 . S
C61 C60 1.346 . S
C61 H68 0.929 . S
C62 O52 1.282 . S
C62 O63 1.216 1_556 S
O63 C62 1.216 1_554 S
H64 C59 0.930 . S
H65 C60 0.930 . S
O66 Cu46 1.959 . S
O66 C53 1.251 . S
H67 C50 0.930 . S
H68 C61 0.929 . S
Cu69 N70 1.999 1_655 S
Cu69 O75 1.974 1_655 S
Cu69 N80 1.985 . S
Cu69 O89 1.959 . S
N70 Cu69 1.999 1_455 S
N70 C72 1.263 . S
N70 C74 1.389 1_455 S
N71 C72 1.358 . S
N71 C73 1.400 . S
C72 N70 1.263 . S
C72 N71 1.358 . S
C72 H78 0.930 . S
C73 N71 1.400 . S
C73 C74 1.351 1_455 S
C73 H90 0.930 . S
C74 N70 1.389 1_655 S
C74 C73 1.351 1_655 S
C74 H79 0.930 . S
O75 Cu69 1.974 1_455 S
O75 C85 1.282 . S
C76 O77 1.261 1_655 S
C76 O89 1.251 . S
O77 C76 1.261 1_455 S
H78 C72 0.930 . S
H79 C74 0.930 . S
N80 Cu69 1.985 . S
N80 C82 1.335 . S
N80 C83 1.390 . S
N81 C82 1.345 . S
N81 C84 1.336 . S
C82 N80 1.335 . S
C82 N81 1.345 . S
C82 H87 0.930 . S
C83 N80 1.390 . S
C83 C84 1.346 . S
C83 H88 0.930 1_655 S
C84 N81 1.336 . S
C84 C83 1.346 . S
C84 H91 0.929 . S
C85 O75 1.282 . S
C85 O86 1.216 . S
O86 C85 1.216 . S
H87 C82 0.930 . S
H88 C83 0.930 1_455 S
O89 Cu69 1.959 . S
O89 C76 1.251 . S
H90 C73 0.930 . S
H91 C84 0.929 . S
Cu92 N93 1.999 . S
Cu92 O98 1.974 1_554 S
Cu92 N103 1.985 1_545 S
Cu92 O112 1.959 1_545 S
N93 Cu92 1.999 . S
N93 C95 1.263 1_554 S
N93 C97 1.389 . S
N94 C95 1.358 . S
N94 C96 1.400 1_556 S
C95 N93 1.263 1_556 S
C95 N94 1.358 . S
C95 H101 0.930 . S
C96 N94 1.400 1_554 S
C96 C97 1.351 . S
C96 H113 0.930 . S
C97 N93 1.389 . S
C97 C96 1.351 . S
C97 H102 0.930 . S
O98 Cu92 1.974 1_556 S
O98 C108 1.282 . S
C99 O100 1.261 . S
C99 O112 1.251 . S
O100 C99 1.261 . S
H101 C95 0.930 . S
H102 C97 0.930 . S
N103 Cu92 1.985 1_565 S
N103 C105 1.335 . S
N103 C106 1.390 . S
N104 C105 1.345 . S
N104 C107 1.336 . S
C105 N103 1.335 . S
C105 N104 1.345 . S
C105 H110 0.930 . S
C106 N103 1.390 . S
C106 C107 1.346 . S
C106 H111 0.930 . S
C107 N104 1.336 . S
C107 C106 1.346 . S
C107 H114 0.929 . S
C108 O98 1.282 . S
C108 O109 1.216 . S
O109 C108 1.216 . S
H110 C105 0.930 . S
H111 C106 0.930 . S
O112 Cu92 1.959 1_565 S
O112 C99 1.251 . S
H113 C96 0.930 . S
H114 C107 0.929 . S
Cu115 N116 1.999 . S
Cu115 O121 1.974 . S
Cu115 N126 1.985 . S
Cu115 O135 1.959 . S
N116 Cu115 1.999 . S
N116 C118 1.263 . S
N116 C120 1.389 . S
N117 C118 1.358 . S
N117 C119 1.400 . S
C118 N116 1.263 . S
C118 N117 1.358 . S
C118 H124 0.930 . S
C119 N117 1.400 . S
C119 C120 1.351 . S
C119 H136 0.930 . S
C120 N116 1.389 . S
C120 C119 1.351 . S
C120 H125 0.930 . S
O121 Cu115 1.974 . S
O121 C131 1.282 . S
C122 O123 1.261 . S
C122 O135 1.251 . S
O123 C122 1.261 . S
H124 C118 0.930 . S
H125 C120 0.930 . S
N126 Cu115 1.985 . S
N126 C128 1.335 . S
N126 C129 1.390 . S
N127 C128 1.345 . S
N127 C130 1.336 . S
C128 N126 1.335 . S
C128 N127 1.345 . S
C128 H133 0.930 . S
C129 N126 1.390 . S
C129 C130 1.346 . S
C129 H134 0.930 . S
C130 N127 1.336 . S
C130 C129 1.346 . S
C130 H137 0.929 . S
C131 O121 1.282 . S
C131 O132 1.216 . S
O132 C131 1.216 . S
H133 C128 0.930 . S
H134 C129 0.930 . S
O135 Cu115 1.959 . S
O135 C122 1.251 . S
H136 C119 0.930 . S
H137 C130 0.929 . S
C138 C139 1.443 . S
C138 N142 1.376 . S
C138 C176 1.389 . S
C139 C138 1.443 . S
C139 C140 1.340 . S
C139 H179 0.951 . S
C140 C139 1.340 . S
C140 C141 1.439 . S
C140 H180 0.950 . S
C141 C140 1.439 . S
C141 N142 1.374 . S
C141 C175 1.395 . S
N142 C138 1.376 . S
N142 C141 1.374 . S
N142 Co143 2.008 . S
Co143 N142 2.008 . S
Co143 N144 1.995 . S
Co143 N149 2.008 . S
Co143 N154 1.995 . S
Co143 N159 2.282 . S
Co143 N165 2.282 . S
N144 Co143 1.995 . S
N144 C145 1.376 . S
N144 C148 1.383 . S
C145 N144 1.376 . S
C145 C146 1.446 . S
C145 C175 1.391 . S
C146 C145 1.446 . S
C146 C147 1.339 . S
C146 H181 0.949 . S
C147 C146 1.339 . S
C147 C148 1.439 . S
C147 H182 0.950 . S
C148 N144 1.383 . S
C148 C147 1.439 . S
C148 C177 1.392 . S
N149 Co143 2.008 . S
N149 C150 1.376 . S
N149 C153 1.374 . S
C150 N149 1.376 . S
C150 C151 1.443 . S
C150 C177 1.389 . S
C151 C150 1.443 . S
C151 C152 1.340 . S
C151 H183 0.951 . S
C152 C151 1.340 . S
C152 C153 1.439 . S
C152 H184 0.950 . S
C153 N149 1.374 . S
C153 C152 1.439 . S
C153 C178 1.395 . S
N154 Co143 1.995 . S
N154 C155 1.376 . S
N154 C158 1.383 . S
C155 N154 1.376 . S
C155 C156 1.446 . S
C155 C178 1.391 . S
C156 C155 1.446 . S
C156 C157 1.339 . S
C156 H185 0.949 . S
C157 C156 1.339 . S
C157 C158 1.439 . S
C157 H186 0.950 . S
C158 N154 1.383 . S
C158 C157 1.439 . S
C158 C176 1.392 . S
N159 Co143 2.282 . S
N159 C162 1.332 . S
N159 C164 1.332 . S
C160 C161 1.386 . S
C160 C163 1.388 . S
C161 C160 1.386 . S
C161 C162 1.382 . S
C161 H187 0.950 . S
C162 N159 1.332 . S
C162 C161 1.382 . S
C162 H173 0.952 . S
C163 C160 1.388 . S
C163 C164 1.382 . S
C163 H188 0.950 . S
C164 N159 1.332 . S
C164 C163 1.382 . S
C164 H174 0.948 . S
N165 Co143 2.282 . S
N165 C169 1.332 . S
N165 C170 1.332 . S
C166 C167 1.388 . S
C166 C170 1.382 . S
C166 H189 0.950 . S
C167 C166 1.388 . S
C167 C168 1.386 . S
C168 C167 1.386 . S
C168 C169 1.382 . S
C168 H190 0.950 . S
C169 N165 1.332 . S
C169 C168 1.382 . S
C169 H171 0.952 . S
C170 N165 1.332 . S
C170 C166 1.382 . S
C170 H172 0.948 . S
H171 C169 0.952 . S
H172 C170 0.948 . S
H173 C162 0.952 . S
H174 C164 0.948 . S
C175 C141 1.395 . S
C175 C145 1.391 . S
C176 C138 1.389 . S
C176 C158 1.392 . S
C177 C148 1.392 . S
C177 C150 1.389 . S
C178 C153 1.395 . S
C178 C155 1.391 . S
H179 C139 0.951 . S
H180 C140 0.950 . S
H181 C146 0.949 . S
H182 C147 0.950 . S
H183 C151 0.951 . S
H184 C152 0.950 . S
H185 C156 0.949 . S
H186 C157 0.950 . S
H187 C161 0.950 . S
H188 C163 0.950 . S
H189 C166 0.950 . S
H190 C168 0.950 . S
C191 C192 1.443 . S
C191 N195 1.376 . S
C191 C229 1.389 . S
C192 C191 1.443 . S
C192 C193 1.340 . S
C192 H232 0.951 . S
C193 C192 1.340 . S
C193 C194 1.439 . S
C193 H233 0.950 . S
C194 C193 1.439 . S
C194 N195 1.374 . S
C194 C228 1.395 . S
N195 C191 1.376 . S
N195 C194 1.374 . S
N195 Co196 2.008 . S
Co196 N195 2.008 . S
Co196 N197 1.995 . S
Co196 N202 2.008 . S
Co196 N207 1.995 . S
Co196 N212 2.282 . S
Co196 N218 2.282 . S
N197 Co196 1.995 . S
N197 C198 1.376 . S
N197 C201 1.383 . S
C198 N197 1.376 . S
C198 C199 1.446 . S
C198 C228 1.391 . S
C199 C198 1.446 . S
C199 C200 1.339 . S
C199 H234 0.949 . S
C200 C199 1.339 . S
C200 C201 1.439 . S
C200 H235 0.950 . S
C201 N197 1.383 . S
C201 C200 1.439 . S
C201 C230 1.392 . S
N202 Co196 2.008 . S
N202 C203 1.376 . S
N202 C206 1.374 . S
C203 N202 1.376 . S
C203 C204 1.443 . S
C203 C230 1.389 . S
C204 C203 1.443 . S
C204 C205 1.340 . S
C204 H236 0.951 . S
C205 C204 1.340 . S
C205 C206 1.439 . S
C205 H237 0.950 . S
C206 N202 1.374 . S
C206 C205 1.439 . S
C206 C231 1.395 . S
N207 Co196 1.995 . S
N207 C208 1.376 . S
N207 C211 1.383 . S
C208 N207 1.376 . S
C208 C209 1.446 . S
C208 C231 1.391 . S
C209 C208 1.446 . S
C209 C210 1.339 . S
C209 H238 0.949 . S
C210 C209 1.339 . S
C210 C211 1.439 . S
C210 H239 0.950 . S
C211 N207 1.383 . S
C211 C210 1.439 . S
C211 C229 1.392 . S
N212 Co196 2.282 . S
N212 C215 1.332 . S
N212 C217 1.332 . S
C213 C214 1.386 . S
C213 C216 1.388 . S
C214 C213 1.386 . S
C214 C215 1.382 . S
C214 H240 0.950 . S
C215 N212 1.332 . S
C215 C214 1.382 . S
C215 H226 0.952 . S
C216 C213 1.388 . S
C216 C217 1.382 . S
C216 H241 0.950 . S
C217 N212 1.332 . S
C217 C216 1.382 . S
C217 H227 0.948 . S
N218 Co196 2.282 . S
N218 C222 1.332 . S
N218 C223 1.332 . S
C219 C220 1.388 . S
C219 C223 1.382 . S
C219 H242 0.950 . S
C220 C219 1.388 . S
C220 C221 1.386 . S
C221 C220 1.386 . S
C221 C222 1.382 . S
C221 H243 0.950 . S
C222 N218 1.332 . S
C222 C221 1.382 . S
C222 H224 0.952 . S
C223 N218 1.332 . S
C223 C219 1.382 . S
C223 H225 0.948 . S
H224 C222 0.952 . S
H225 C223 0.948 . S
H226 C215 0.952 . S
H227 C217 0.948 . S
C228 C194 1.395 . S
C228 C198 1.391 . S
C229 C191 1.389 . S
C229 C211 1.392 . S
C230 C201 1.392 . S
C230 C203 1.389 . S
C231 C206 1.395 . S
C231 C208 1.391 . S
H232 C192 0.951 . S
H233 C193 0.950 . S
H234 C199 0.949 . S
H235 C200 0.950 . S
H236 C204 0.951 . S
H237 C205 0.950 . S
H238 C209 0.949 . S
H239 C210 0.950 . S
H240 C214 0.950 . S
H241 C216 0.950 . S
H242 C219 0.950 . S
H243 C221 0.950 . S
C244 C245 1.443 . S
C244 N248 1.376 . S
C244 C282 1.389 . S
C245 C244 1.443 . S
C245 C246 1.340 . S
C245 H285 0.951 . S
C246 C245 1.340 . S
C246 C247 1.439 . S
C246 H286 0.950 . S
C247 C246 1.439 . S
C247 N248 1.374 . S
C247 C281 1.395 . S
N248 C244 1.376 . S
N248 C247 1.374 . S
N248 Co249 2.008 . S
Co249 N248 2.008 . S
Co249 N250 1.995 . S
Co249 N255 2.008 . S
Co249 N260 1.995 . S
Co249 N265 2.282 . S
Co249 N271 2.282 . S
N250 Co249 1.995 . S
N250 C251 1.376 . S
N250 C254 1.383 . S
C251 N250 1.376 . S
C251 C252 1.446 . S
C251 C281 1.391 . S
C252 C251 1.446 . S
C252 C253 1.339 . S
C252 H287 0.949 . S
C253 C252 1.339 . S
C253 C254 1.439 . S
C253 H288 0.950 . S
C254 N250 1.383 . S
C254 C253 1.439 . S
C254 C283 1.392 . S
N255 Co249 2.008 . S
N255 C256 1.376 . S
N255 C259 1.374 . S
C256 N255 1.376 . S
C256 C257 1.443 . S
C256 C283 1.389 . S
C257 C256 1.443 . S
C257 C258 1.340 . S
C257 H289 0.951 . S
C258 C257 1.340 . S
C258 C259 1.439 . S
C258 H290 0.950 . S
C259 N255 1.374 . S
C259 C258 1.439 . S
C259 C284 1.395 . S
N260 Co249 1.995 . S
N260 C261 1.376 . S
N260 C264 1.383 . S
C261 N260 1.376 . S
C261 C262 1.446 . S
C261 C284 1.391 . S
C262 C261 1.446 . S
C262 C263 1.339 . S
C262 H291 0.949 . S
C263 C262 1.339 . S
C263 C264 1.439 . S
C263 H292 0.950 . S
C264 N260 1.383 . S
C264 C263 1.439 . S
C264 C282 1.392 . S
N265 Co249 2.282 . S
N265 C268 1.332 . S
N265 C270 1.332 . S
C266 C267 1.386 . S
C266 C269 1.388 . S
C267 C266 1.386 . S
C267 C268 1.382 . S
C267 H293 0.950 . S
C268 N265 1.332 . S
C268 C267 1.382 . S
C268 H279 0.952 . S
C269 C266 1.388 . S
C269 C270 1.382 . S
C269 H294 0.950 . S
C270 N265 1.332 . S
C270 C269 1.382 . S
C270 H280 0.948 . S
N271 Co249 2.282 . S
N271 C275 1.332 . S
N271 C276 1.332 . S
C272 C273 1.388 . S
C272 C276 1.382 . S
C272 H295 0.950 . S
C273 C272 1.388 . S
C273 C274 1.386 . S
C274 C273 1.386 . S
C274 C275 1.382 . S
C274 H296 0.950 . S
C275 N271 1.332 . S
C275 C274 1.382 . S
C275 H277 0.952 . S
C276 N271 1.332 . S
C276 C272 1.382 . S
C276 H278 0.948 . S
H277 C275 0.952 . S
H278 C276 0.948 . S
H279 C268 0.952 . S
H280 C270 0.948 . S
C281 C247 1.395 . S
C281 C251 1.391 . S
C282 C244 1.389 . S
C282 C264 1.392 . S
C283 C254 1.392 . S
C283 C256 1.389 . S
C284 C259 1.395 . S
C284 C261 1.391 . S
H285 C245 0.951 . S
H286 C246 0.950 . S
H287 C252 0.949 . S
H288 C253 0.950 . S
H289 C257 0.951 . S
H290 C258 0.950 . S
H291 C262 0.949 . S
H292 C263 0.950 . S
H293 C267 0.950 . S
H294 C269 0.950 . S
H295 C272 0.950 . S
H296 C274 0.950 . S
C297 C298 1.443 . S
C297 N301 1.376 . S
C297 C335 1.389 . S
C298 C297 1.443 . S
C298 C299 1.340 . S
C298 H338 0.951 . S
C299 C298 1.340 . S
C299 C300 1.439 . S
C299 H339 0.950 . S
C300 C299 1.439 . S
C300 N301 1.374 . S
C300 C334 1.395 . S
N301 C297 1.376 . S
N301 C300 1.374 . S
N301 Co302 2.008 . S
Co302 N301 2.008 . S
Co302 N303 1.995 . S
Co302 N308 2.008 . S
Co302 N313 1.995 . S
Co302 N318 2.282 . S
Co302 N324 2.282 . S
N303 Co302 1.995 . S
N303 C304 1.376 . S
N303 C307 1.383 . S
C304 N303 1.376 . S
C304 C305 1.446 . S
C304 C334 1.391 . S
C305 C304 1.446 . S
C305 C306 1.339 . S
C305 H340 0.949 . S
C306 C305 1.339 . S
C306 C307 1.439 . S
C306 H341 0.950 . S
C307 N303 1.383 . S
C307 C306 1.439 . S
C307 C336 1.392 . S
N308 Co302 2.008 . S
N308 C309 1.376 . S
N308 C312 1.374 . S
C309 N308 1.376 . S
C309 C310 1.443 . S
C309 C336 1.389 . S
C310 C309 1.443 . S
C310 C311 1.340 . S
C310 H342 0.951 . S
C311 C310 1.340 . S
C311 C312 1.439 . S
C311 H343 0.950 . S
C312 N308 1.374 . S
C312 C311 1.439 . S
C312 C337 1.395 . S
N313 Co302 1.995 . S
N313 C314 1.376 . S
N313 C317 1.383 . S
C314 N313 1.376 . S
C314 C315 1.446 . S
C314 C337 1.391 . S
C315 C314 1.446 . S
C315 C316 1.339 . S
C315 H344 0.949 . S
C316 C315 1.339 . S
C316 C317 1.439 . S
C316 H345 0.950 . S
C317 N313 1.383 . S
C317 C316 1.439 . S
C317 C335 1.392 . S
N318 Co302 2.282 . S
N318 C321 1.332 . S
N318 C323 1.332 . S
C319 C320 1.386 . S
C319 C322 1.388 . S
C320 C319 1.386 . S
C320 C321 1.382 . S
C320 H346 0.950 . S
C321 N318 1.332 . S
C321 C320 1.382 . S
C321 H332 0.952 . S
C322 C319 1.388 . S
C322 C323 1.382 . S
C322 H347 0.950 . S
C323 N318 1.332 . S
C323 C322 1.382 . S
C323 H333 0.948 . S
N324 Co302 2.282 . S
N324 C328 1.332 . S
N324 C329 1.332 . S
C325 C326 1.388 . S
C325 C329 1.382 . S
C325 H348 0.950 . S
C326 C325 1.388 . S
C326 C327 1.386 . S
C327 C326 1.386 . S
C327 C328 1.382 . S
C327 H349 0.950 . S
C328 N324 1.332 . S
C328 C327 1.382 . S
C328 H330 0.952 . S
C329 N324 1.332 . S
C329 C325 1.382 . S
C329 H331 0.948 . S
H330 C328 0.952 . S
H331 C329 0.948 . S
H332 C321 0.952 . S
H333 C323 0.948 . S
C334 C300 1.395 . S
C334 C304 1.391 . S
C335 C297 1.389 . S
C335 C317 1.392 . S
C336 C307 1.392 . S
C336 C309 1.389 . S
C337 C312 1.395 . S
C337 C314 1.391 . S
H338 C298 0.951 . S
H339 C299 0.950 . S
H340 C305 0.949 . S
H341 C306 0.950 . S
H342 C310 0.951 . S
H343 C311 0.950 . S
H344 C315 0.949 . S
H345 C316 0.950 . S
H346 C320 0.950 . S
H347 C322 0.950 . S
H348 C325 0.950 . S
H349 C327 0.950 . S
C350 C351 1.443 . S
C350 N354 1.376 . S
C350 C388 1.389 . S
C351 C350 1.443 . S
C351 C352 1.340 . S
C351 H391 0.951 . S
C352 C351 1.340 . S
C352 C353 1.439 . S
C352 H392 0.950 . S
C353 C352 1.439 . S
C353 N354 1.374 . S
C353 C387 1.395 . S
N354 C350 1.376 . S
N354 C353 1.374 . S
N354 Co355 2.008 . S
Co355 N354 2.008 . S
Co355 N356 1.995 . S
Co355 N361 2.008 . S
Co355 N366 1.995 . S
Co355 N371 2.282 . S
Co355 N377 2.282 . S
N356 Co355 1.995 . S
N356 C357 1.376 . S
N356 C360 1.383 . S
C357 N356 1.376 . S
C357 C358 1.446 . S
C357 C387 1.391 . S
C358 C357 1.446 . S
C358 C359 1.339 . S
C358 H393 0.949 . S
C359 C358 1.339 . S
C359 C360 1.439 . S
C359 H394 0.950 . S
C360 N356 1.383 . S
C360 C359 1.439 . S
C360 C389 1.392 . S
N361 Co355 2.008 . S
N361 C362 1.376 . S
N361 C365 1.374 . S
C362 N361 1.376 . S
C362 C363 1.443 . S
C362 C389 1.389 . S
C363 C362 1.443 . S
C363 C364 1.340 . S
C363 H395 0.951 . S
C364 C363 1.340 . S
C364 C365 1.439 . S
C364 H396 0.950 . S
C365 N361 1.374 . S
C365 C364 1.439 . S
C365 C390 1.395 . S
N366 Co355 1.995 . S
N366 C367 1.376 . S
N366 C370 1.383 . S
C367 N366 1.376 . S
C367 C368 1.446 . S
C367 C390 1.391 . S
C368 C367 1.446 . S
C368 C369 1.339 . S
C368 H397 0.949 . S
C369 C368 1.339 . S
C369 C370 1.439 . S
C369 H398 0.950 . S
C370 N366 1.383 . S
C370 C369 1.439 . S
C370 C388 1.392 . S
N371 Co355 2.282 . S
N371 C374 1.332 . S
N371 C376 1.332 . S
C372 C373 1.386 . S
C372 C375 1.388 . S
C373 C372 1.386 . S
C373 C374 1.382 . S
C373 H399 0.950 . S
C374 N371 1.332 . S
C374 C373 1.382 . S
C374 H385 0.952 . S
C375 C372 1.388 . S
C375 C376 1.382 . S
C375 H400 0.950 . S
C376 N371 1.332 . S
C376 C375 1.382 . S
C376 H386 0.948 . S
N377 Co355 2.282 . S
N377 C381 1.332 . S
N377 C382 1.332 . S
C378 C379 1.388 . S
C378 C382 1.382 . S
C378 H401 0.950 . S
C379 C378 1.388 . S
C379 C380 1.386 . S
C380 C379 1.386 . S
C380 C381 1.382 . S
C380 H402 0.950 . S
C381 N377 1.332 . S
C381 C380 1.382 . S
C381 H383 0.952 . S
C382 N377 1.332 . S
C382 C378 1.382 . S
C382 H384 0.948 . S
H383 C381 0.952 . S
H384 C382 0.948 . S
H385 C374 0.952 . S
H386 C376 0.948 . S
C387 C353 1.395 . S
C387 C357 1.391 . S
C388 C350 1.389 . S
C388 C370 1.392 . S
C389 C360 1.392 . S
C389 C362 1.389 . S
C390 C365 1.395 . S
C390 C367 1.391 . S
H391 C351 0.951 . S
H392 C352 0.950 . S
H393 C358 0.949 . S
H394 C359 0.950 . S
H395 C363 0.951 . S
H396 C364 0.950 . S
H397 C368 0.949 . S
H398 C369 0.950 . S
H399 C373 0.950 . S
H400 C375 0.950 . S
H401 C378 0.950 . S
H402 C380 0.950 . S
C403 C404 1.443 . S
C403 N407 1.376 . S
C403 C441 1.389 . S
C404 C403 1.443 . S
C404 C405 1.340 . S
C404 H444 0.951 . S
C405 C404 1.340 . S
C405 C406 1.439 . S
C405 H445 0.950 . S
C406 C405 1.439 . S
C406 N407 1.374 . S
C406 C440 1.395 . S
N407 C403 1.376 . S
N407 C406 1.374 . S
N407 Co408 2.008 . S
Co408 N407 2.008 . S
Co408 N409 1.995 . S
Co408 N414 2.008 . S
Co408 N419 1.995 . S
Co408 N424 2.282 . S
Co408 N430 2.282 . S
N409 Co408 1.995 . S
N409 C410 1.376 . S
N409 C413 1.383 . S
C410 N409 1.376 . S
C410 C411 1.446 . S
C410 C440 1.391 . S
C411 C410 1.446 . S
C411 C412 1.339 . S
C411 H446 0.949 . S
C412 C411 1.339 . S
C412 C413 1.439 . S
C412 H447 0.950 . S
C413 N409 1.383 . S
C413 C412 1.439 . S
C413 C442 1.392 . S
N414 Co408 2.008 . S
N414 C415 1.376 . S
N414 C418 1.374 . S
C415 N414 1.376 . S
C415 C416 1.443 . S
C415 C442 1.389 . S
C416 C415 1.443 . S
C416 C417 1.340 . S
C416 H448 0.951 . S
C417 C416 1.340 . S
C417 C418 1.439 . S
C417 H449 0.950 . S
C418 N414 1.374 . S
C418 C417 1.439 . S
C418 C443 1.395 . S
N419 Co408 1.995 . S
N419 C420 1.376 . S
N419 C423 1.383 . S
C420 N419 1.376 . S
C420 C421 1.446 . S
C420 C443 1.391 . S
C421 C420 1.446 . S
C421 C422 1.339 . S
C421 H450 0.949 . S
C422 C421 1.339 . S
C422 C423 1.439 . S
C422 H451 0.950 . S
C423 N419 1.383 . S
C423 C422 1.439 . S
C423 C441 1.392 . S
N424 Co408 2.282 . S
N424 C427 1.332 . S
N424 C429 1.332 . S
C425 C426 1.386 . S
C425 C428 1.388 . S
C426 C425 1.386 . S
C426 C427 1.382 . S
C426 H452 0.950 . S
C427 N424 1.332 . S
C427 C426 1.382 . S
C427 H438 0.952 . S
C428 C425 1.388 . S
C428 C429 1.382 . S
C428 H453 0.950 . S
C429 N424 1.332 . S
C429 C428 1.382 . S
C429 H439 0.948 . S
N430 Co408 2.282 . S
N430 C434 1.332 . S
N430 C435 1.332 . S
C431 C432 1.388 . S
C431 C435 1.382 . S
C431 H454 0.950 . S
C432 C431 1.388 . S
C432 C433 1.386 . S
C433 C432 1.386 . S
C433 C434 1.382 . S
C433 H455 0.950 . S
C434 N430 1.332 . S
C434 C433 1.382 . S
C434 H436 0.952 . S
C435 N430 1.332 . S
C435 C431 1.382 . S
C435 H437 0.948 . S
H436 C434 0.952 . S
H437 C435 0.948 . S
H438 C427 0.952 . S
H439 C429 0.948 . S
C440 C406 1.395 . S
C440 C410 1.391 . S
C441 C403 1.389 . S
C441 C423 1.392 . S
C442 C413 1.392 . S
C442 C415 1.389 . S
C443 C418 1.395 . S
C443 C420 1.391 . S
H444 C404 0.951 . S
H445 C405 0.950 . S
H446 C411 0.949 . S
H447 C412 0.950 . S
H448 C416 0.951 . S
H449 C417 0.950 . S
H450 C421 0.949 . S
H451 C422 0.950 . S
H452 C426 0.950 . S
H453 C428 0.950 . S
H454 C431 0.950 . S
H455 C433 0.950 . S
C456 C457 1.391 . S
C456 C458 1.394 . S
C456 H472 0.931 . S
C457 C456 1.391 . S
C457 C461 1.376 . S
C458 C456 1.394 . S
C458 C459 1.369 . S
C458 C462 1.531 . S
C459 C458 1.369 . S
C459 C460 1.410 . S
C459 C467 1.503 . S
C460 C459 1.410 . S
C460 C461 1.392 . S
C460 C463 1.511 . S
C461 C457 1.376 . S
C461 C460 1.392 . S
C461 H473 0.929 . S
C462 C458 1.531 . S
C462 H474 0.960 . S
C462 H475 0.962 . S
C462 H476 0.960 . S
C463 C460 1.511 . S
C463 H477 0.961 . S
C463 H478 0.961 . S
C463 H479 0.961 . S
C464 C465 1.370 . S
C464 C466 1.363 . S
C464 H480 0.931 . S
C465 C464 1.370 . S
C465 C469 1.408 . S
C466 C464 1.363 . S
C466 C467 1.370 . S
C466 C470 1.524 . S
C467 C459 1.503 . S
C467 C466 1.370 . S
C467 C468 1.403 . S
C468 C467 1.403 . S
C468 C469 1.404 . S
C468 C471 1.539 . S
C469 C465 1.408 . S
C469 C468 1.404 . S
C469 H481 0.930 . S
C470 C466 1.524 . S
C470 H482 0.956 . S
C470 H483 0.961 . S
C470 H484 0.961 . S
C471 C468 1.539 . S
C471 H485 0.958 . S
C471 H486 0.961 . S
C471 H487 0.960 . S
H472 C456 0.931 . S
H473 C461 0.929 . S
H474 C462 0.960 . S
H475 C462 0.962 . S
H476 C462 0.960 . S
H477 C463 0.961 . S
H478 C463 0.961 . S
H479 C463 0.961 . S
H480 C464 0.931 . S
H481 C469 0.930 . S
H482 C470 0.956 . S
H483 C470 0.961 . S
H484 C470 0.961 . S
H485 C471 0.958 . S
H486 C471 0.961 . S
H487 C471 0.960 . S
C488 C489 1.391 . S
C488 C490 1.394 . S
C488 H504 0.931 . S
C489 C488 1.391 . S
C489 C493 1.376 . S
C490 C488 1.394 . S
C490 C491 1.369 . S
C490 C494 1.531 . S
C491 C490 1.369 . S
C491 C492 1.410 . S
C491 C499 1.503 . S
C492 C491 1.410 . S
C492 C493 1.392 . S
C492 C495 1.511 . S
C493 C489 1.376 . S
C493 C492 1.392 . S
C493 H505 0.929 . S
C494 C490 1.531 . S
C494 H506 0.960 . S
C494 H507 0.962 . S
C494 H508 0.960 . S
C495 C492 1.511 . S
C495 H509 0.961 . S
C495 H510 0.961 . S
C495 H511 0.961 . S
C496 C497 1.370 . S
C496 C498 1.363 . S
C496 H512 0.931 . S
C497 C496 1.370 . S
C497 C501 1.408 . S
C498 C496 1.363 . S
C498 C499 1.370 . S
C498 C502 1.524 . S
C499 C491 1.503 . S
C499 C498 1.370 . S
C499 C500 1.403 . S
C500 C499 1.403 . S
C500 C501 1.404 . S
C500 C503 1.539 . S
C501 C497 1.408 . S
C501 C500 1.404 . S
C501 H513 0.930 . S
C502 C498 1.524 . S
C502 H514 0.956 . S
C502 H515 0.961 . S
C502 H516 0.961 . S
C503 C500 1.539 . S
C503 H517 0.958 . S
C503 H518 0.961 . S
C503 H519 0.960 . S
H504 C488 0.931 . S
H505 C493 0.929 . S
H506 C494 0.960 . S
H507 C494 0.962 . S
H508 C494 0.960 . S
H509 C495 0.961 . S
H510 C495 0.961 . S
H511 C495 0.961 . S
H512 C496 0.931 . S
H513 C501 0.930 . S
H514 C502 0.956 . S
H515 C502 0.961 . S
H516 C502 0.961 . S
H517 C503 0.958 . S
H518 C503 0.961 . S
H519 C503 0.960 . S
C520 C521 1.391 . S
C520 C522 1.394 . S
C520 H536 0.931 . S
C521 C520 1.391 . S
C521 C525 1.376 . S
C522 C520 1.394 . S
C522 C523 1.369 . S
C522 C526 1.531 . S
C523 C522 1.369 . S
C523 C524 1.410 . S
C523 C531 1.503 . S
C524 C523 1.410 . S
C524 C525 1.392 . S
C524 C527 1.511 . S
C525 C521 1.376 . S
C525 C524 1.392 . S
C525 H537 0.929 . S
C526 C522 1.531 . S
C526 H538 0.960 . S
C526 H539 0.962 . S
C526 H540 0.960 . S
C527 C524 1.511 . S
C527 H541 0.961 . S
C527 H542 0.961 . S
C527 H543 0.961 . S
C528 C529 1.370 . S
C528 C530 1.363 . S
C528 H544 0.931 . S
C529 C528 1.370 . S
C529 C533 1.408 . S
C530 C528 1.363 . S
C530 C531 1.370 . S
C530 C534 1.524 . S
C531 C523 1.503 . S
C531 C530 1.370 . S
C531 C532 1.403 . S
C532 C531 1.403 . S
C532 C533 1.404 . S
C532 C535 1.539 . S
C533 C529 1.408 . S
C533 C532 1.404 . S
C533 H545 0.930 . S
C534 C530 1.524 . S
C534 H546 0.956 . S
C534 H547 0.961 . S
C534 H548 0.961 . S
C535 C532 1.539 . S
C535 H549 0.958 . S
C535 H550 0.961 . S
C535 H551 0.960 . S
H536 C520 0.931 . S
H537 C525 0.929 . S
H538 C526 0.960 . S
H539 C526 0.962 . S
H540 C526 0.960 . S
H541 C527 0.961 . S
H542 C527 0.961 . S
H543 C527 0.961 . S
H544 C528 0.931 . S
H545 C533 0.930 . S
H546 C534 0.956 . S
H547 C534 0.961 . S
H548 C534 0.961 . S
H549 C535 0.958 . S
H550 C535 0.961 . S
H551 C535 0.960 . S
C552 C553 1.391 . S
C552 C554 1.394 . S
C552 H568 0.931 . S
C553 C552 1.391 . S
C553 C557 1.376 . S
C554 C552 1.394 . S
C554 C555 1.369 . S
C554 C558 1.531 . S
C555 C554 1.369 . S
C555 C556 1.410 . S
C555 C563 1.503 . S
C556 C555 1.410 . S
C556 C557 1.392 . S
C556 C559 1.511 . S
C557 C553 1.376 . S
C557 C556 1.392 . S
C557 H569 0.929 . S
C558 C554 1.531 . S
C558 H570 0.960 . S
C558 H571 0.962 . S
C558 H572 0.960 . S
C559 C556 1.511 . S
C559 H573 0.961 . S
C559 H574 0.961 . S
C559 H575 0.961 . S
C560 C561 1.370 . S
C560 C562 1.363 . S
C560 H576 0.931 . S
C561 C560 1.370 . S
C561 C565 1.408 . S
C562 C560 1.363 . S
C562 C563 1.370 . S
C562 C566 1.524 . S
C563 C555 1.503 . S
C563 C562 1.370 . S
C563 C564 1.403 . S
C564 C563 1.403 . S
C564 C565 1.404 . S
C564 C567 1.539 . S
C565 C561 1.408 . S
C565 C564 1.404 . S
C565 H577 0.930 . S
C566 C562 1.524 . S
C566 H578 0.956 . S
C566 H579 0.961 . S
C566 H580 0.961 . S
C567 C564 1.539 . S
C567 H581 0.958 . S
C567 H582 0.961 . S
C567 H583 0.960 . S
H568 C552 0.931 . S
H569 C557 0.929 . S
H570 C558 0.960 . S
H571 C558 0.962 . S
H572 C558 0.960 . S
H573 C559 0.961 . S
H574 C559 0.961 . S
H575 C559 0.961 . S
H576 C560 0.931 . S
H577 C565 0.930 . S
H578 C566 0.956 . S
H579 C566 0.961 . S
H580 C566 0.961 . S
H581 C567 0.958 . S
H582 C567 0.961 . S
H583 C567 0.960 . S
C584 C585 1.391 . S
C584 C586 1.394 . S
C584 H600 0.931 . S
C585 C584 1.391 . S
C585 C589 1.376 . S
C586 C584 1.394 . S
C586 C587 1.369 . S
C586 C590 1.531 . S
C587 C586 1.369 . S
C587 C588 1.410 . S
C587 C595 1.503 . S
C588 C587 1.410 . S
C588 C589 1.392 . S
C588 C591 1.511 . S
C589 C585 1.376 . S
C589 C588 1.392 . S
C589 H601 0.929 . S
C590 C586 1.531 . S
C590 H602 0.960 . S
C590 H603 0.962 . S
C590 H604 0.960 . S
C591 C588 1.511 . S
C591 H605 0.961 . S
C591 H606 0.961 . S
C591 H607 0.961 . S
C592 C593 1.370 . S
C592 C594 1.363 . S
C592 H608 0.931 . S
C593 C592 1.370 . S
C593 C597 1.408 . S
C594 C592 1.363 . S
C594 C595 1.370 . S
C594 C598 1.524 . S
C595 C587 1.503 . S
C595 C594 1.370 . S
C595 C596 1.403 . S
C596 C595 1.403 . S
C596 C597 1.404 . S
C596 C599 1.539 . S
C597 C593 1.408 . S
C597 C596 1.404 . S
C597 H609 0.930 . S
C598 C594 1.524 . S
C598 H610 0.956 . S
C598 H611 0.961 . S
C598 H612 0.961 . S
C599 C596 1.539 . S
C599 H613 0.958 . S
C599 H614 0.961 . S
C599 H615 0.960 . S
H600 C584 0.931 . S
H601 C589 0.929 . S
H602 C590 0.960 . S
H603 C590 0.962 . S
H604 C590 0.960 . S
H605 C591 0.961 . S
H606 C591 0.961 . S
H607 C591 0.961 . S
H608 C592 0.931 . S
H609 C597 0.930 . S
H610 C598 0.956 . S
H611 C598 0.961 . S
H612 C598 0.961 . S
H613 C599 0.958 . S
H614 C599 0.961 . S
H615 C599 0.960 . S
C616 C617 1.391 . S
C616 C618 1.394 . S
C616 H632 0.931 . S
C617 C616 1.391 . S
C617 C621 1.376 . S
C618 C616 1.394 . S
C618 C619 1.369 . S
C618 C622 1.531 . S
C619 C618 1.369 . S
C619 C620 1.410 . S
C619 C627 1.503 . S
C620 C619 1.410 . S
C620 C621 1.392 . S
C620 C623 1.511 . S
C621 C617 1.376 . S
C621 C620 1.392 . S
C621 H633 0.929 . S
C622 C618 1.531 . S
C622 H634 0.960 . S
C622 H635 0.962 . S
C622 H636 0.960 . S
C623 C620 1.511 . S
C623 H637 0.961 . S
C623 H638 0.961 . S
C623 H639 0.961 . S
C624 C625 1.370 . S
C624 C626 1.363 . S
C624 H640 0.931 . S
C625 C624 1.370 . S
C625 C629 1.408 . S
C626 C624 1.363 . S
C626 C627 1.370 . S
C626 C630 1.524 . S
C627 C619 1.503 . S
C627 C626 1.370 . S
C627 C628 1.403 . S
C628 C627 1.403 . S
C628 C629 1.404 . S
C628 C631 1.539 . S
C629 C625 1.408 . S
C629 C628 1.404 . S
C629 H641 0.930 . S
C630 C626 1.524 . S
C630 H642 0.956 . S
C630 H643 0.961 . S
C630 H644 0.961 . S
C631 C628 1.539 . S
C631 H645 0.958 . S
C631 H646 0.961 . S
C631 H647 0.960 . S
H632 C616 0.931 . S
H633 C621 0.929 . S
H634 C622 0.960 . S
H635 C622 0.962 . S
H636 C622 0.960 . S
H637 C623 0.961 . S
H638 C623 0.961 . S
H639 C623 0.961 . S
H640 C624 0.931 . S
H641 C629 0.930 . S
H642 C630 0.956 . S
H643 C630 0.961 . S
H644 C630 0.961 . S
H645 C631 0.958 . S
H646 C631 0.961 . S
H647 C631 0.960 . S
C648 C649 1.391 . S
C648 C650 1.394 . S
C648 H664 0.931 . S
C649 C648 1.391 . S
C649 C653 1.376 . S
C650 C648 1.394 . S
C650 C651 1.369 . S
C650 C654 1.531 . S
C651 C650 1.369 . S
C651 C652 1.410 . S
C651 C659 1.503 . S
C652 C651 1.410 . S
C652 C653 1.392 . S
C652 C655 1.511 . S
C653 C649 1.376 . S
C653 C652 1.392 . S
C653 H665 0.929 . S
C654 C650 1.531 . S
C654 H666 0.960 . S
C654 H667 0.962 . S
C654 H668 0.960 . S
C655 C652 1.511 . S
C655 H669 0.961 . S
C655 H670 0.961 . S
C655 H671 0.961 . S
C656 C657 1.370 . S
C656 C658 1.363 . S
C656 H672 0.931 . S
C657 C656 1.370 . S
C657 C661 1.408 . S
C658 C656 1.363 . S
C658 C659 1.370 . S
C658 C662 1.524 . S
C659 C651 1.503 . S
C659 C658 1.370 . S
C659 C660 1.403 . S
C660 C659 1.403 . S
C660 C661 1.404 . S
C660 C663 1.539 . S
C661 C657 1.408 . S
C661 C660 1.404 . S
C661 H673 0.930 . S
C662 C658 1.524 . S
C662 H674 0.956 . S
C662 H675 0.961 . S
C662 H676 0.961 . S
C663 C660 1.539 . S
C663 H677 0.958 . S
C663 H678 0.961 . S
C663 H679 0.960 . S
H664 C648 0.931 . S
H665 C653 0.929 . S
H666 C654 0.960 . S
H667 C654 0.962 . S
H668 C654 0.960 . S
H669 C655 0.961 . S
H670 C655 0.961 . S
H671 C655 0.961 . S
H672 C656 0.931 . S
H673 C661 0.930 . S
H674 C662 0.956 . S
H675 C662 0.961 . S
H676 C662 0.961 . S
H677 C663 0.958 . S
H678 C663 0.961 . S
H679 C663 0.960 . S
C680 C681 1.391 . S
C680 C682 1.394 . S
C680 H696 0.931 . S
C681 C680 1.391 . S
C681 C685 1.376 . S
C682 C680 1.394 . S
C682 C683 1.369 . S
C682 C686 1.531 . S
C683 C682 1.369 . S
C683 C684 1.410 . S
C683 C691 1.503 . S
C684 C683 1.410 . S
C684 C685 1.392 . S
C684 C687 1.511 . S
C685 C681 1.376 . S
C685 C684 1.392 . S
C685 H697 0.929 . S
C686 C682 1.531 . S
C686 H698 0.960 . S
C686 H699 0.962 . S
C686 H700 0.960 . S
C687 C684 1.511 . S
C687 H701 0.961 . S
C687 H702 0.961 . S
C687 H703 0.961 . S
C688 C689 1.370 . S
C688 C690 1.363 . S
C688 H704 0.931 . S
C689 C688 1.370 . S
C689 C693 1.408 . S
C690 C688 1.363 . S
C690 C691 1.370 . S
C690 C694 1.524 . S
C691 C683 1.503 . S
C691 C690 1.370 . S
C691 C692 1.403 . S
C692 C691 1.403 . S
C692 C693 1.404 . S
C692 C695 1.539 . S
C693 C689 1.408 . S
C693 C692 1.404 . S
C693 H705 0.930 . S
C694 C690 1.524 . S
C694 H706 0.956 . S
C694 H707 0.961 . S
C694 H708 0.961 . S
C695 C692 1.539 . S
C695 H709 0.958 . S
C695 H710 0.961 . S
C695 H711 0.960 . S
H696 C680 0.931 . S
H697 C685 0.929 . S
H698 C686 0.960 . S
H699 C686 0.962 . S
H700 C686 0.960 . S
H701 C687 0.961 . S
H702 C687 0.961 . S
H703 C687 0.961 . S
H704 C688 0.931 . S
H705 C693 0.930 . S
H706 C694 0.956 . S
H707 C694 0.961 . S
H708 C694 0.961 . S
H709 C695 0.958 . S
H710 C695 0.961 . S
H711 C695 0.960 . S
C712 C713 1.391 . S
C712 C714 1.394 . S
C712 H728 0.931 . S
C713 C712 1.391 . S
C713 C717 1.376 . S
C714 C712 1.394 . S
C714 C715 1.369 . S
C714 C718 1.531 . S
C715 C714 1.369 . S
C715 C716 1.410 . S
C715 C723 1.503 . S
C716 C715 1.410 . S
C716 C717 1.392 . S
C716 C719 1.511 . S
C717 C713 1.376 . S
C717 C716 1.392 . S
C717 H729 0.929 . S
C718 C714 1.531 . S
C718 H730 0.960 . S
C718 H731 0.962 . S
C718 H732 0.960 . S
C719 C716 1.511 . S
C719 H733 0.961 . S
C719 H734 0.961 . S
C719 H735 0.961 . S
C720 C721 1.370 . S
C720 C722 1.363 . S
C720 H736 0.931 . S
C721 C720 1.370 . S
C721 C725 1.408 . S
C722 C720 1.363 . S
C722 C723 1.370 . S
C722 C726 1.524 . S
C723 C715 1.503 . S
C723 C722 1.370 . S
C723 C724 1.403 . S
C724 C723 1.403 . S
C724 C725 1.404 . S
C724 C727 1.539 . S
C725 C721 1.408 . S
C725 C724 1.404 . S
C725 H737 0.930 . S
C726 C722 1.524 . S
C726 H738 0.956 . S
C726 H739 0.961 . S
C726 H740 0.961 . S
C727 C724 1.539 . S
C727 H741 0.958 . S
C727 H742 0.961 . S
C727 H743 0.960 . S
H728 C712 0.931 . S
H729 C717 0.929 . S
H730 C718 0.960 . S
H731 C718 0.962 . S
H732 C718 0.960 . S
H733 C719 0.961 . S
H734 C719 0.961 . S
H735 C719 0.961 . S
H736 C720 0.931 . S
H737 C725 0.930 . S
H738 C726 0.956 . S
H739 C726 0.961 . S
H740 C726 0.961 . S
H741 C727 0.958 . S
H742 C727 0.961 . S
H743 C727 0.960 . S
C744 C745 1.391 . S
C744 C746 1.394 . S
C744 H760 0.931 . S
C745 C744 1.391 . S
C745 C749 1.376 . S
C746 C744 1.394 . S
C746 C747 1.369 . S
C746 C750 1.531 . S
C747 C746 1.369 . S
C747 C748 1.410 . S
C747 C755 1.503 . S
C748 C747 1.410 . S
C748 C749 1.392 . S
C748 C751 1.511 . S
C749 C745 1.376 . S
C749 C748 1.392 . S
C749 H761 0.929 . S
C750 C746 1.531 . S
C750 H762 0.960 . S
C750 H763 0.962 . S
C750 H764 0.960 . S
C751 C748 1.511 . S
C751 H765 0.961 . S
C751 H766 0.961 . S
C751 H767 0.961 . S
C752 C753 1.370 . S
C752 C754 1.363 . S
C752 H768 0.931 . S
C753 C752 1.370 . S
C753 C757 1.408 . S
C754 C752 1.363 . S
C754 C755 1.370 . S
C754 C758 1.524 . S
C755 C747 1.503 . S
C755 C754 1.370 . S
C755 C756 1.403 . S
C756 C755 1.403 . S
C756 C757 1.404 . S
C756 C759 1.539 . S
C757 C753 1.408 . S
C757 C756 1.404 . S
C757 H769 0.930 . S
C758 C754 1.524 . S
C758 H770 0.956 . S
C758 H771 0.961 . S
C758 H772 0.961 . S
C759 C756 1.539 . S
C759 H773 0.958 . S
C759 H774 0.961 . S
C759 H775 0.960 . S
H760 C744 0.931 . S
H761 C749 0.929 . S
H762 C750 0.960 . S
H763 C750 0.962 . S
H764 C750 0.960 . S
H765 C751 0.961 . S
H766 C751 0.961 . S
H767 C751 0.961 . S
H768 C752 0.931 . S
H769 C757 0.930 . S
H770 C758 0.956 . S
H771 C758 0.961 . S
H772 C758 0.961 . S
H773 C759 0.958 . S
H774 C759 0.961 . S
H775 C759 0.960 . S
C776 C777 1.391 . S
C776 C778 1.394 . S
C776 H792 0.931 . S
C777 C776 1.391 . S
C777 C781 1.376 . S
C778 C776 1.394 . S
C778 C779 1.369 . S
C778 C782 1.531 . S
C779 C778 1.369 . S
C779 C780 1.410 . S
C779 C787 1.503 . S
C780 C779 1.410 . S
C780 C781 1.392 . S
C780 C783 1.511 . S
C781 C777 1.376 . S
C781 C780 1.392 . S
C781 H793 0.929 . S
C782 C778 1.531 . S
C782 H794 0.960 . S
C782 H795 0.962 . S
C782 H796 0.960 . S
C783 C780 1.511 . S
C783 H797 0.961 . S
C783 H798 0.961 . S
C783 H799 0.961 . S
C784 C785 1.370 . S
C784 C786 1.363 . S
C784 H800 0.931 . S
C785 C784 1.370 . S
C785 C789 1.408 . S
C786 C784 1.363 . S
C786 C787 1.370 . S
C786 C790 1.524 . S
C787 C779 1.503 . S
C787 C786 1.370 . S
C787 C788 1.403 . S
C788 C787 1.403 . S
C788 C789 1.404 . S
C788 C791 1.539 . S
C789 C785 1.408 . S
C789 C788 1.404 . S
C789 H801 0.930 . S
C790 C786 1.524 . S
C790 H802 0.956 . S
C790 H803 0.961 . S
C790 H804 0.961 . S
C791 C788 1.539 . S
C791 H805 0.958 . S
C791 H806 0.961 . S
C791 H807 0.960 . S
H792 C776 0.931 . S
H793 C781 0.929 . S
H794 C782 0.960 . S
H795 C782 0.962 . S
H796 C782 0.960 . S
H797 C783 0.961 . S
H798 C783 0.961 . S
H799 C783 0.961 . S
H800 C784 0.931 . S
H801 C789 0.930 . S
H802 C790 0.956 . S
H803 C790 0.961 . S
H804 C790 0.961 . S
H805 C791 0.958 . S
H806 C791 0.961 . S
H807 C791 0.960 . S
C808 C809 1.391 . S
C808 C810 1.394 . S
C808 H824 0.931 . S
C809 C808 1.391 . S
C809 C813 1.376 . S
C810 C808 1.394 . S
C810 C811 1.369 . S
C810 C814 1.531 . S
C811 C810 1.369 . S
C811 C812 1.410 . S
C811 C819 1.503 . S
C812 C811 1.410 . S
C812 C813 1.392 . S
C812 C815 1.511 . S
C813 C809 1.376 . S
C813 C812 1.392 . S
C813 H825 0.929 . S
C814 C810 1.531 . S
C814 H826 0.960 . S
C814 H827 0.962 . S
C814 H828 0.960 . S
C815 C812 1.511 . S
C815 H829 0.961 . S
C815 H830 0.961 . S
C815 H831 0.961 . S
C816 C817 1.370 . S
C816 C818 1.363 . S
C816 H832 0.931 . S
C817 C816 1.370 . S
C817 C821 1.408 . S
C818 C816 1.363 . S
C818 C819 1.370 . S
C818 C822 1.524 . S
C819 C811 1.503 . S
C819 C818 1.370 . S
C819 C820 1.403 . S
C820 C819 1.403 . S
C820 C821 1.404 . S
C820 C823 1.539 . S
C821 C817 1.408 . S
C821 C820 1.404 . S
C821 H833 0.930 . S
C822 C818 1.524 . S
C822 H834 0.956 . S
C822 H835 0.961 . S
C822 H836 0.961 . S
C823 C820 1.539 . S
C823 H837 0.958 . S
C823 H838 0.961 . S
C823 H839 0.960 . S
H824 C808 0.931 . S
H825 C813 0.929 . S
H826 C814 0.960 . S
H827 C814 0.962 . S
H828 C814 0.960 . S
H829 C815 0.961 . S
H830 C815 0.961 . S
H831 C815 0.961 . S
H832 C816 0.931 . S
H833 C821 0.930 . S
H834 C822 0.956 . S
H835 C822 0.961 . S
H836 C822 0.961 . S
H837 C823 0.958 . S
H838 C823 0.961 . S
H839 C823 0.960 . S
C840 C841 1.391 . S
C840 C842 1.394 . S
C840 H856 0.931 . S
C841 C840 1.391 . S
C841 C845 1.376 . S
C842 C840 1.394 . S
C842 C843 1.369 . S
C842 C846 1.531 . S
C843 C842 1.369 . S
C843 C844 1.410 . S
C843 C851 1.503 . S
C844 C843 1.410 . S
C844 C845 1.392 . S
C844 C847 1.511 . S
C845 C841 1.376 . S
C845 C844 1.392 . S
C845 H857 0.929 . S
C846 C842 1.531 . S
C846 H858 0.960 . S
C846 H859 0.962 . S
C846 H860 0.960 . S
C847 C844 1.511 . S
C847 H861 0.961 . S
C847 H862 0.961 . S
C847 H863 0.961 . S
C848 C849 1.370 . S
C848 C850 1.363 . S
C848 H864 0.931 . S
C849 C848 1.370 . S
C849 C853 1.408 . S
C850 C848 1.363 . S
C850 C851 1.370 . S
C850 C854 1.524 . S
C851 C843 1.503 . S
C851 C850 1.370 . S
C851 C852 1.403 . S
C852 C851 1.403 . S
C852 C853 1.404 . S
C852 C855 1.539 . S
C853 C849 1.408 . S
C853 C852 1.404 . S
C853 H865 0.930 . S
C854 C850 1.524 . S
C854 H866 0.956 . S
C854 H867 0.961 . S
C854 H868 0.961 . S
C855 C852 1.539 . S
C855 H869 0.958 . S
C855 H870 0.961 . S
C855 H871 0.960 . S
H856 C840 0.931 . S
H857 C845 0.929 . S
H858 C846 0.960 . S
H859 C846 0.962 . S
H860 C846 0.960 . S
H861 C847 0.961 . S
H862 C847 0.961 . S
H863 C847 0.961 . S
H864 C848 0.931 . S
H865 C853 0.930 . S
H866 C854 0.956 . S
H867 C854 0.961 . S
H868 C854 0.961 . S
H869 C855 0.958 . S
H870 C855 0.961 . S
H871 C855 0.960 . S
C872 C873 1.391 . S
C872 C874 1.394 . S
C872 H888 0.931 . S
C873 C872 1.391 . S
C873 C877 1.376 . S
C874 C872 1.394 . S
C874 C875 1.369 . S
C874 C878 1.531 . S
C875 C874 1.369 . S
C875 C876 1.410 . S
C875 C883 1.503 . S
C876 C875 1.410 . S
C876 C877 1.392 . S
C876 C879 1.511 . S
C877 C873 1.376 . S
C877 C876 1.392 . S
C877 H889 0.929 . S
C878 C874 1.531 . S
C878 H890 0.960 . S
C878 H891 0.962 . S
C878 H892 0.960 . S
C879 C876 1.511 . S
C879 H893 0.961 . S
C879 H894 0.961 . S
C879 H895 0.961 . S
C880 C881 1.370 . S
C880 C882 1.363 . S
C880 H896 0.931 . S
C881 C880 1.370 . S
C881 C885 1.408 . S
C882 C880 1.363 . S
C882 C883 1.370 . S
C882 C886 1.524 . S
C883 C875 1.503 . S
C883 C882 1.370 . S
C883 C884 1.403 . S
C884 C883 1.403 . S
C884 C885 1.404 . S
C884 C887 1.539 . S
C885 C881 1.408 . S
C885 C884 1.404 . S
C885 H897 0.930 . S
C886 C882 1.524 . S
C886 H898 0.956 . S
C886 H899 0.961 . S
C886 H900 0.961 . S
C887 C884 1.539 . S
C887 H901 0.958 . S
C887 H902 0.961 . S
C887 H903 0.960 . S
H888 C872 0.931 . S
H889 C877 0.929 . S
H890 C878 0.960 . S
H891 C878 0.962 . S
H892 C878 0.960 . S
H893 C879 0.961 . S
H894 C879 0.961 . S
H895 C879 0.961 . S
H896 C880 0.931 . S
H897 C885 0.930 . S
H898 C886 0.956 . S
H899 C886 0.961 . S
H900 C886 0.961 . S
H901 C887 0.958 . S
H902 C887 0.961 . S
H903 C887 0.960 . S
C904 C905 1.391 . S
C904 C906 1.394 . S
C904 H920 0.931 . S
C905 C904 1.391 . S
C905 C909 1.376 . S
C906 C904 1.394 . S
C906 C907 1.369 . S
C906 C910 1.531 . S
C907 C906 1.369 . S
C907 C908 1.410 . S
C907 C915 1.503 . S
C908 C907 1.410 . S
C908 C909 1.392 . S
C908 C911 1.511 . S
C909 C905 1.376 . S
C909 C908 1.392 . S
C909 H921 0.929 . S
C910 C906 1.531 . S
C910 H922 0.960 . S
C910 H923 0.962 . S
C910 H924 0.960 . S
C911 C908 1.511 . S
C911 H925 0.961 . S
C911 H926 0.961 . S
C911 H927 0.961 . S
C912 C913 1.370 . S
C912 C914 1.363 . S
C912 H928 0.931 . S
C913 C912 1.370 . S
C913 C917 1.408 . S
C914 C912 1.363 . S
C914 C915 1.370 . S
C914 C918 1.524 . S
C915 C907 1.503 . S
C915 C914 1.370 . S
C915 C916 1.403 . S
C916 C915 1.403 . S
C916 C917 1.404 . S
C916 C919 1.539 . S
C917 C913 1.408 . S
C917 C916 1.404 . S
C917 H929 0.930 . S
C918 C914 1.524 . S
C918 H930 0.956 . S
C918 H931 0.961 . S
C918 H932 0.961 . S
C919 C916 1.539 . S
C919 H933 0.958 . S
C919 H934 0.961 . S
C919 H935 0.960 . S
H920 C904 0.931 . S
H921 C909 0.929 . S
H922 C910 0.960 . S
H923 C910 0.962 . S
H924 C910 0.960 . S
H925 C911 0.961 . S
H926 C911 0.961 . S
H927 C911 0.961 . S
H928 C912 0.931 . S
H929 C917 0.930 . S
H930 C918 0.956 . S
H931 C918 0.961 . S
H932 C918 0.961 . S
H933 C919 0.958 . S
H934 C919 0.961 . S
H935 C919 0.960 . S
C936 C937 1.391 . S
C936 C938 1.394 . S
C936 H952 0.931 . S
C937 C936 1.391 . S
C937 C941 1.376 . S
C938 C936 1.394 . S
C938 C939 1.369 . S
C938 C942 1.531 . S
C939 C938 1.369 . S
C939 C940 1.410 . S
C939 C947 1.503 . S
C940 C939 1.410 . S
C940 C941 1.392 . S
C940 C943 1.511 . S
C941 C937 1.376 . S
C941 C940 1.392 . S
C941 H953 0.929 . S
C942 C938 1.531 . S
C942 H954 0.960 . S
C942 H955 0.962 . S
C942 H956 0.960 . S
C943 C940 1.511 . S
C943 H957 0.961 . S
C943 H958 0.961 . S
C943 H959 0.961 . S
C944 C945 1.370 . S
C944 C946 1.363 . S
C944 H960 0.931 . S
C945 C944 1.370 . S
C945 C949 1.408 . S
C946 C944 1.363 . S
C946 C947 1.370 . S
C946 C950 1.524 . S
C947 C939 1.503 . S
C947 C946 1.370 . S
C947 C948 1.403 . S
C948 C947 1.403 . S
C948 C949 1.404 . S
C948 C951 1.539 . S
C949 C945 1.408 . S
C949 C948 1.404 . S
C949 H961 0.930 . S
C950 C946 1.524 . S
C950 H962 0.956 . S
C950 H963 0.961 . S
C950 H964 0.961 . S
C951 C948 1.539 . S
C951 H965 0.958 . S
C951 H966 0.961 . S
C951 H967 0.960 . S
H952 C936 0.931 . S
H953 C941 0.929 . S
H954 C942 0.960 . S
H955 C942 0.962 . S
H956 C942 0.960 . S
H957 C943 0.961 . S
H958 C943 0.961 . S
H959 C943 0.961 . S
H960 C944 0.931 . S
H961 C949 0.930 . S
H962 C950 0.956 . S
H963 C950 0.961 . S
H964 C950 0.961 . S
H965 C951 0.958 . S
H966 C951 0.961 . S
H967 C951 0.960 . S
C968 C969 1.391 . S
C968 C970 1.394 . S
C968 H984 0.931 . S
C969 C968 1.391 . S
C969 C973 1.376 . S
C970 C968 1.394 . S
C970 C971 1.369 . S
C970 C974 1.531 . S
C971 C970 1.369 . S
C971 C972 1.410 . S
C971 C979 1.503 . S
C972 C971 1.410 . S
C972 C973 1.392 . S
C972 C975 1.511 . S
C973 C969 1.376 . S
C973 C972 1.392 . S
C973 H985 0.929 . S
C974 C970 1.531 . S
C974 H986 0.960 . S
C974 H987 0.962 . S
C974 H988 0.960 . S
C975 C972 1.511 . S
C975 H989 0.961 . S
C975 H990 0.961 . S
C975 H991 0.961 . S
C976 C977 1.370 . S
C976 C978 1.363 . S
C976 H992 0.931 . S
C977 C976 1.370 . S
C977 C981 1.408 . S
C978 C976 1.363 . S
C978 C979 1.370 . S
C978 C982 1.524 . S
C979 C971 1.503 . S
C979 C978 1.370 . S
C979 C980 1.403 . S
C980 C979 1.403 . S
C980 C981 1.404 . S
C980 C983 1.539 . S
C981 C977 1.408 . S
C981 C980 1.404 . S
C981 H993 0.930 . S
C982 C978 1.524 . S
C982 H994 0.956 . S
C982 H995 0.961 . S
C982 H996 0.961 . S
C983 C980 1.539 . S
C983 H997 0.958 . S
C983 H998 0.961 . S
C983 H999 0.960 . S
H984 C968 0.931 . S
H985 C973 0.929 . S
H986 C974 0.960 . S
H987 C974 0.962 . S
H988 C974 0.960 . S
H989 C975 0.961 . S
H990 C975 0.961 . S
H991 C975 0.961 . S
H992 C976 0.931 . S
H993 C981 0.930 . S
H994 C982 0.956 . S
H995 C982 0.961 . S
H996 C982 0.961 . S
H997 C983 0.958 . S
H998 C983 0.961 . S
H999 C983 0.960 . S
C1000 C1001 1.391 . S
C1000 C1002 1.394 . S
C1000 H1016 0.931 . S
C1001 C1000 1.391 . S
C1001 C1005 1.376 . S
C1002 C1000 1.394 . S
C1002 C1003 1.369 . S
C1002 C1006 1.531 . S
C1003 C1002 1.369 . S
C1003 C1004 1.410 . S
C1003 C1011 1.503 . S
C1004 C1003 1.410 . S
C1004 C1005 1.392 . S
C1004 C1007 1.511 . S
C1005 C1001 1.376 . S
C1005 C1004 1.392 . S
C1005 H1017 0.929 . S
C1006 C1002 1.531 . S
C1006 H1018 0.960 . S
C1006 H1019 0.962 . S
C1006 H1020 0.960 . S
C1007 C1004 1.511 . S
C1007 H1021 0.961 . S
C1007 H1022 0.961 . S
C1007 H1023 0.961 . S
C1008 C1009 1.370 . S
C1008 C1010 1.363 . S
C1008 H1024 0.931 . S
C1009 C1008 1.370 . S
C1009 C1013 1.408 . S
C1010 C1008 1.363 . S
C1010 C1011 1.370 . S
C1010 C1014 1.524 . S
C1011 C1003 1.503 . S
C1011 C1010 1.370 . S
C1011 C1012 1.403 . S
C1012 C1011 1.403 . S
C1012 C1013 1.404 . S
C1012 C1015 1.539 . S
C1013 C1009 1.408 . S
C1013 C1012 1.404 . S
C1013 H1025 0.930 . S
C1014 C1010 1.524 . S
C1014 H1026 0.956 . S
C1014 H1027 0.961 . S
C1014 H1028 0.961 . S
C1015 C1012 1.539 . S
C1015 H1029 0.958 . S
C1015 H1030 0.961 . S
C1015 H1031 0.960 . S
H1016 C1000 0.931 . S
H1017 C1005 0.929 . S
H1018 C1006 0.960 . S
H1019 C1006 0.962 . S
H1020 C1006 0.960 . S
H1021 C1007 0.961 . S
H1022 C1007 0.961 . S
H1023 C1007 0.961 . S
H1024 C1008 0.931 . S
H1025 C1013 0.930 . S
H1026 C1014 0.956 . S
H1027 C1014 0.961 . S
H1028 C1014 0.961 . S
H1029 C1015 0.958 . S
H1030 C1015 0.961 . S
H1031 C1015 0.960 . S
C1032 C1033 1.391 . S
C1032 C1034 1.394 . S
C1032 H1048 0.931 . S
C1033 C1032 1.391 . S
C1033 C1037 1.376 . S
C1034 C1032 1.394 . S
C1034 C1035 1.369 . S
C1034 C1038 1.531 . S
C1035 C1034 1.369 . S
C1035 C1036 1.410 . S
C1035 C1043 1.503 . S
C1036 C1035 1.410 . S
C1036 C1037 1.392 . S
C1036 C1039 1.511 . S
C1037 C1033 1.376 . S
C1037 C1036 1.392 . S
C1037 H1049 0.929 . S
C1038 C1034 1.531 . S
C1038 H1050 0.960 . S
C1038 H1051 0.962 . S
C1038 H1052 0.960 . S
C1039 C1036 1.511 . S
C1039 H1053 0.961 . S
C1039 H1054 0.961 . S
C1039 H1055 0.961 . S
C1040 C1041 1.370 . S
C1040 C1042 1.363 . S
C1040 H1056 0.931 . S
C1041 C1040 1.370 . S
C1041 C1045 1.408 . S
C1042 C1040 1.363 . S
C1042 C1043 1.370 . S
C1042 C1046 1.524 . S
C1043 C1035 1.503 . S
C1043 C1042 1.370 . S
C1043 C1044 1.403 . S
C1044 C1043 1.403 . S
C1044 C1045 1.404 . S
C1044 C1047 1.539 . S
C1045 C1041 1.408 . S
C1045 C1044 1.404 . S
C1045 H1057 0.930 . S
C1046 C1042 1.524 . S
C1046 H1058 0.956 . S
C1046 H1059 0.961 . S
C1046 H1060 0.961 . S
C1047 C1044 1.539 . S
C1047 H1061 0.958 . S
C1047 H1062 0.961 . S
C1047 H1063 0.960 . S
H1048 C1032 0.931 . S
H1049 C1037 0.929 . S
H1050 C1038 0.960 . S
H1051 C1038 0.962 . S
H1052 C1038 0.960 . S
H1053 C1039 0.961 . S
H1054 C1039 0.961 . S
H1055 C1039 0.961 . S
H1056 C1040 0.931 . S
H1057 C1045 0.930 . S
H1058 C1046 0.956 . S
H1059 C1046 0.961 . S
H1060 C1046 0.961 . S
H1061 C1047 0.958 . S
H1062 C1047 0.961 . S
H1063 C1047 0.960 . S
C1064 C1065 1.391 . S
C1064 C1066 1.394 . S
C1064 H1080 0.931 . S
C1065 C1064 1.391 . S
C1065 C1069 1.376 . S
C1066 C1064 1.394 . S
C1066 C1067 1.369 . S
C1066 C1070 1.531 . S
C1067 C1066 1.369 . S
C1067 C1068 1.410 . S
C1067 C1075 1.503 . S
C1068 C1067 1.410 . S
C1068 C1069 1.392 . S
C1068 C1071 1.511 . S
C1069 C1065 1.376 . S
C1069 C1068 1.392 . S
C1069 H1081 0.929 . S
C1070 C1066 1.531 . S
C1070 H1082 0.960 . S
C1070 H1083 0.962 . S
C1070 H1084 0.960 . S
C1071 C1068 1.511 . S
C1071 H1085 0.961 . S
C1071 H1086 0.961 . S
C1071 H1087 0.961 . S
C1072 C1073 1.370 . S
C1072 C1074 1.363 . S
C1072 H1088 0.931 . S
C1073 C1072 1.370 . S
C1073 C1077 1.408 . S
C1074 C1072 1.363 . S
C1074 C1075 1.370 . S
C1074 C1078 1.524 . S
C1075 C1067 1.503 . S
C1075 C1074 1.370 . S
C1075 C1076 1.403 . S
C1076 C1075 1.403 . S
C1076 C1077 1.404 . S
C1076 C1079 1.539 . S
C1077 C1073 1.408 . S
C1077 C1076 1.404 . S
C1077 H1089 0.930 . S
C1078 C1074 1.524 . S
C1078 H1090 0.956 . S
C1078 H1091 0.961 . S
C1078 H1092 0.961 . S
C1079 C1076 1.539 . S
C1079 H1093 0.958 . S
C1079 H1094 0.961 . S
C1079 H1095 0.960 . S
H1080 C1064 0.931 . S
H1081 C1069 0.929 . S
H1082 C1070 0.960 . S
H1083 C1070 0.962 . S
H1084 C1070 0.960 . S
H1085 C1071 0.961 . S
H1086 C1071 0.961 . S
H1087 C1071 0.961 . S
H1088 C1072 0.931 . S
H1089 C1077 0.930 . S
H1090 C1078 0.956 . S
H1091 C1078 0.961 . S
H1092 C1078 0.961 . S
H1093 C1079 0.958 . S
H1094 C1079 0.961 . S
H1095 C1079 0.960 . S
C1096 C1097 1.391 . S
C1096 C1098 1.394 . S
C1096 H1112 0.931 . S
C1097 C1096 1.391 . S
C1097 C1101 1.376 . S
C1098 C1096 1.394 . S
C1098 C1099 1.369 . S
C1098 C1102 1.531 . S
C1099 C1098 1.369 . S
C1099 C1100 1.410 . S
C1099 C1107 1.503 . S
C1100 C1099 1.410 . S
C1100 C1101 1.392 . S
C1100 C1103 1.511 . S
C1101 C1097 1.376 . S
C1101 C1100 1.392 . S
C1101 H1113 0.929 . S
C1102 C1098 1.531 . S
C1102 H1114 0.960 . S
C1102 H1115 0.962 . S
C1102 H1116 0.960 . S
C1103 C1100 1.511 . S
C1103 H1117 0.961 . S
C1103 H1118 0.961 . S
C1103 H1119 0.961 . S
C1104 C1105 1.370 . S
C1104 C1106 1.363 . S
C1104 H1120 0.931 . S
C1105 C1104 1.370 . S
C1105 C1109 1.408 . S
C1106 C1104 1.363 . S
C1106 C1107 1.370 . S
C1106 C1110 1.524 . S
C1107 C1099 1.503 . S
C1107 C1106 1.370 . S
C1107 C1108 1.403 . S
C1108 C1107 1.403 . S
C1108 C1109 1.404 . S
C1108 C1111 1.539 . S
C1109 C1105 1.408 . S
C1109 C1108 1.404 . S
C1109 H1121 0.930 . S
C1110 C1106 1.524 . S
C1110 H1122 0.956 . S
C1110 H1123 0.961 . S
C1110 H1124 0.961 . S
C1111 C1108 1.539 . S
C1111 H1125 0.958 . S
C1111 H1126 0.961 . S
C1111 H1127 0.960 . S
H1112 C1096 0.931 . S
H1113 C1101 0.929 . S
H1114 C1102 0.960 . S
H1115 C1102 0.962 . S
H1116 C1102 0.960 . S
H1117 C1103 0.961 . S
H1118 C1103 0.961 . S
H1119 C1103 0.961 . S
H1120 C1104 0.931 . S
H1121 C1109 0.930 . S
H1122 C1110 0.956 . S
H1123 C1110 0.961 . S
H1124 C1110 0.961 . S
H1125 C1111 0.958 . S
H1126 C1111 0.961 . S
H1127 C1111 0.960 . S
C1128 C1129 1.391 . S
C1128 C1130 1.394 . S
C1128 H1144 0.931 . S
C1129 C1128 1.391 . S
C1129 C1133 1.376 . S
C1130 C1128 1.394 . S
C1130 C1131 1.369 . S
C1130 C1134 1.531 . S
C1131 C1130 1.369 . S
C1131 C1132 1.410 . S
C1131 C1139 1.503 . S
C1132 C1131 1.410 . S
C1132 C1133 1.392 . S
C1132 C1135 1.511 . S
C1133 C1129 1.376 . S
C1133 C1132 1.392 . S
C1133 H1145 0.929 . S
C1134 C1130 1.531 . S
C1134 H1146 0.960 . S
C1134 H1147 0.962 . S
C1134 H1148 0.960 . S
C1135 C1132 1.511 . S
C1135 H1149 0.961 . S
C1135 H1150 0.961 . S
C1135 H1151 0.961 . S
C1136 C1137 1.370 . S
C1136 C1138 1.363 . S
C1136 H1152 0.931 . S
C1137 C1136 1.370 . S
C1137 C1141 1.408 . S
C1138 C1136 1.363 . S
C1138 C1139 1.370 . S
C1138 C1142 1.524 . S
C1139 C1131 1.503 . S
C1139 C1138 1.370 . S
C1139 C1140 1.403 . S
C1140 C1139 1.403 . S
C1140 C1141 1.404 . S
C1140 C1143 1.539 . S
C1141 C1137 1.408 . S
C1141 C1140 1.404 . S
C1141 H1153 0.930 . S
C1142 C1138 1.524 . S
C1142 H1154 0.956 . S
C1142 H1155 0.961 . S
C1142 H1156 0.961 . S
C1143 C1140 1.539 . S
C1143 H1157 0.958 . S
C1143 H1158 0.961 . S
C1143 H1159 0.960 . S
H1144 C1128 0.931 . S
H1145 C1133 0.929 . S
H1146 C1134 0.960 . S
H1147 C1134 0.962 . S
H1148 C1134 0.960 . S
H1149 C1135 0.961 . S
H1150 C1135 0.961 . S
H1151 C1135 0.961 . S
H1152 C1136 0.931 . S
H1153 C1141 0.930 . S
H1154 C1142 0.956 . S
H1155 C1142 0.961 . S
H1156 C1142 0.961 . S
H1157 C1143 0.958 . S
H1158 C1143 0.961 . S
H1159 C1143 0.960 . S
C1160 C1161 1.391 . S
C1160 C1162 1.394 . S
C1160 H1176 0.931 . S
C1161 C1160 1.391 . S
C1161 C1165 1.376 . S
C1162 C1160 1.394 . S
C1162 C1163 1.369 . S
C1162 C1166 1.531 . S
C1163 C1162 1.369 . S
C1163 C1164 1.410 . S
C1163 C1171 1.503 . S
C1164 C1163 1.410 . S
C1164 C1165 1.392 . S
C1164 C1167 1.511 . S
C1165 C1161 1.376 . S
C1165 C1164 1.392 . S
C1165 H1177 0.929 . S
C1166 C1162 1.531 . S
C1166 H1178 0.960 . S
C1166 H1179 0.962 . S
C1166 H1180 0.960 . S
C1167 C1164 1.511 . S
C1167 H1181 0.961 . S
C1167 H1182 0.961 . S
C1167 H1183 0.961 . S
C1168 C1169 1.370 . S
C1168 C1170 1.363 . S
C1168 H1184 0.931 . S
C1169 C1168 1.370 . S
C1169 C1173 1.408 . S
C1170 C1168 1.363 . S
C1170 C1171 1.370 . S
C1170 C1174 1.524 . S
C1171 C1163 1.503 . S
C1171 C1170 1.370 . S
C1171 C1172 1.403 . S
C1172 C1171 1.403 . S
C1172 C1173 1.404 . S
C1172 C1175 1.539 . S
C1173 C1169 1.408 . S
C1173 C1172 1.404 . S
C1173 H1185 0.930 . S
C1174 C1170 1.524 . S
C1174 H1186 0.956 . S
C1174 H1187 0.961 . S
C1174 H1188 0.961 . S
C1175 C1172 1.539 . S
C1175 H1189 0.958 . S
C1175 H1190 0.961 . S
C1175 H1191 0.960 . S
H1176 C1160 0.931 . S
H1177 C1165 0.929 . S
H1178 C1166 0.960 . S
H1179 C1166 0.962 . S
H1180 C1166 0.960 . S
H1181 C1167 0.961 . S
H1182 C1167 0.961 . S
H1183 C1167 0.961 . S
H1184 C1168 0.931 . S
H1185 C1173 0.930 . S
H1186 C1174 0.956 . S
H1187 C1174 0.961 . S
H1188 C1174 0.961 . S
H1189 C1175 0.958 . S
H1190 C1175 0.961 . S
H1191 C1175 0.960 . S
C1192 C1193 1.391 . S
C1192 C1194 1.394 . S
C1192 H1208 0.931 . S
C1193 C1192 1.391 . S
C1193 C1197 1.376 . S
C1194 C1192 1.394 . S
C1194 C1195 1.369 . S
C1194 C1198 1.531 . S
C1195 C1194 1.369 . S
C1195 C1196 1.410 . S
C1195 C1203 1.503 . S
C1196 C1195 1.410 . S
C1196 C1197 1.392 . S
C1196 C1199 1.511 . S
C1197 C1193 1.376 . S
C1197 C1196 1.392 . S
C1197 H1209 0.929 . S
C1198 C1194 1.531 . S
C1198 H1210 0.960 . S
C1198 H1211 0.962 . S
C1198 H1212 0.960 . S
C1199 C1196 1.511 . S
C1199 H1213 0.961 . S
C1199 H1214 0.961 . S
C1199 H1215 0.961 . S
C1200 C1201 1.370 . S
C1200 C1202 1.363 . S
C1200 H1216 0.931 . S
C1201 C1200 1.370 . S
C1201 C1205 1.408 . S
C1202 C1200 1.363 . S
C1202 C1203 1.370 . S
C1202 C1206 1.524 . S
C1203 C1195 1.503 . S
C1203 C1202 1.370 . S
C1203 C1204 1.403 . S
C1204 C1203 1.403 . S
C1204 C1205 1.404 . S
C1204 C1207 1.539 . S
C1205 C1201 1.408 . S
C1205 C1204 1.404 . S
C1205 H1217 0.930 . S
C1206 C1202 1.524 . S
C1206 H1218 0.956 . S
C1206 H1219 0.961 . S
C1206 H1220 0.961 . S
C1207 C1204 1.539 . S
C1207 H1221 0.958 . S
C1207 H1222 0.961 . S
C1207 H1223 0.960 . S
H1208 C1192 0.931 . S
H1209 C1197 0.929 . S
H1210 C1198 0.960 . S
H1211 C1198 0.962 . S
H1212 C1198 0.960 . S
H1213 C1199 0.961 . S
H1214 C1199 0.961 . S
H1215 C1199 0.961 . S
H1216 C1200 0.931 . S
H1217 C1205 0.930 . S
H1218 C1206 0.956 . S
H1219 C1206 0.961 . S
H1220 C1206 0.961 . S
H1221 C1207 0.958 . S
H1222 C1207 0.961 . S
H1223 C1207 0.960 . S
C457 C7 2.061 . S
C465 C176 2.041 . S
C489 C30 1.536 . S
C497 C229 1.497 . S
C529 C282 1.808 . S
C521 N58 1.813 . S
C561 C319 1.279 . S
C553 N81 1.227 . S
C593 C379 1.797 . S
C585 C99 1.807 . S
C625 C432 1.379 . S
C617 N127 1.325 . S
C649 N25 1.858 . S
C657 C283 1.916 . S
C681 C62 1.487 . S
C689 C326 1.468 . S
C721 C372 1.837 . S
C713 C85 1.845 . S
C753 C425 1.321 . S
C745 N94 1.274 . S
C777 C131 1.907 . S
C785 C177 1.900 . S
C817 C230 1.392 . S
C809 N2 1.354 . S
C849 C336 2.011 . S
C841 C16 2.002 . S
C873 C39 1.475 . S
C881 C388 1.500 . S
C913 C441 1.815 . S
C905 N48 1.803 . S
C937 N71 1.267 . S
C945 C167 1.255 . S
C969 C108 1.796 . S
C977 C220 1.810 . S
C1001 N117 1.342 . S
C1009 C273 1.378 . S
C1033 N35 1.847 . S
C1041 C442 1.899 . S
C1073 C160 1.464 . S
C1065 C53 1.491 . S
C1097 C76 1.883 . S
C1105 C213 1.854 . S
C1129 N104 1.238 . S
C1137 C266 1.295 . S
C1161 C122 1.887 . S
C1169 C335 1.866 . S
C1193 N12 1.369 . S
C1201 C389 1.367 . S
