# Generated by pormake.
# Topology zzz, (3,6)-cn, num edge types: 1
# Building blocks:
#     Node 0, Type 0, BuildingBlock: OLANEW_clean_sbu_2, # of connection points: 3
#     Node 1, Type 0, BuildingBlock: OLANEW_clean_sbu_2, # of connection points: 3
#     Node 2, Type 0, BuildingBlock: OLANEW_clean_sbu_2, # of connection points: 3
#     Node 3, Type 0, BuildingBlock: OLANEW_clean_sbu_2, # of connection points: 3
#     Node 4, Type 0, BuildingBlock: OLANEW_clean_sbu_2, # of connection points: 3
#     Node 5, Type 0, BuildingBlock: OLANEW_clean_sbu_2, # of connection points: 3
#     Node 6, Type 0, BuildingBlock: OLANEW_clean_sbu_2, # of connection points: 3
#     Node 7, Type 0, BuildingBlock: OLANEW_clean_sbu_2, # of connection points: 3
#     Node 8, Type 1, BuildingBlock: HISSIN_clean_sbu_0, # of connection points: 6
#     Node 9, Type 1, BuildingBlock: HISSIN_clean_sbu_0, # of connection points: 6
#     Node 10, Type 1, BuildingBlock: HISSIN_clean_sbu_0, # of connection points: 6
#     Node 11, Type 1, BuildingBlock: HISSIN_clean_sbu_0, # of connection points: 6
#     Edge 12, Type (0, 1), BuildingBlock: AJUNOK_clean_linker_0, # of connection points: 2
#     Edge 13, Type (0, 1), BuildingBlock: AJUNOK_clean_linker_0, # of connection points: 2
#     Edge 14, Type (0, 1), BuildingBlock: AJUNOK_clean_linker_0, # of connection points: 2
#     Edge 15, Type (0, 1), BuildingBlock: AJUNOK_clean_linker_0, # of connection points: 2
#     Edge 16, Type (0, 1), BuildingBlock: AJUNOK_clean_linker_0, # of connection points: 2
#     Edge 17, Type (0, 1), BuildingBlock: AJUNOK_clean_linker_0, # of connection points: 2
#     Edge 18, Type (0, 1), BuildingBlock: AJUNOK_clean_linker_0, # of connection points: 2
#     Edge 19, Type (0, 1), BuildingBlock: AJUNOK_clean_linker_0, # of connection points: 2
#     Edge 20, Type (0, 1), BuildingBlock: AJUNOK_clean_linker_0, # of connection points: 2
#     Edge 21, Type (0, 1), BuildingBlock: AJUNOK_clean_linker_0, # of connection points: 2
#     Edge 22, Type (0, 1), BuildingBlock: AJUNOK_clean_linker_0, # of connection points: 2
#     Edge 23, Type (0, 1), BuildingBlock: AJUNOK_clean_linker_0, # of connection points: 2
#     Edge 24, Type (0, 1), BuildingBlock: AJUNOK_clean_linker_0, # of connection points: 2
#     Edge 25, Type (0, 1), BuildingBlock: AJUNOK_clean_linker_0, # of connection points: 2
#     Edge 26, Type (0, 1), BuildingBlock: AJUNOK_clean_linker_0, # of connection points: 2
#     Edge 27, Type (0, 1), BuildingBlock: AJUNOK_clean_linker_0, # of connection points: 2
#     Edge 28, Type (0, 1), BuildingBlock: AJUNOK_clean_linker_0, # of connection points: 2
#     Edge 29, Type (0, 1), BuildingBlock: AJUNOK_clean_linker_0, # of connection points: 2
#     Edge 30, Type (0, 1), BuildingBlock: AJUNOK_clean_linker_0, # of connection points: 2
#     Edge 31, Type (0, 1), BuildingBlock: AJUNOK_clean_linker_0, # of connection points: 2
#     Edge 32, Type (0, 1), BuildingBlock: AJUNOK_clean_linker_0, # of connection points: 2
#     Edge 33, Type (0, 1), BuildingBlock: AJUNOK_clean_linker_0, # of connection points: 2
#     Edge 34, Type (0, 1), BuildingBlock: AJUNOK_clean_linker_0, # of connection points: 2
#     Edge 35, Type (0, 1), BuildingBlock: AJUNOK_clean_linker_0, # of connection points: 2
# Relax obj value: 0.280
# Max RMSD: 0.203
# Mean RMSD: 0.101
data_MOF--net-zzz--node1-OLANEW_clean_sbu_2--node2-HISSIN_clean_sbu_0--edge1-AJUNOK_clean_linker_0
_symmetry_space_group_name_H-M    P1
_symmetry_Int_Tables_number       1
_symmetry_cell_setting            triclinic
loop_
_symmetry_equiv_pos_as_xyz
'x, y, z'
_cell_length_a     41.090872
_cell_length_b     40.917064
_cell_length_c     14.16033
_cell_angle_alpha  89.323332
_cell_angle_beta   94.018592
_cell_angle_gamma 90.748555
loop_
_atom_site_label
_atom_site_type_symbol
_atom_site_fract_x
_atom_site_fract_y
_atom_site_fract_z
_atom_type_partial_charge
O0 O 0.75834 0.56266 0.1848 0.0
Cd1 Cd 0.71019 0.58532 0.24921 0.0
O2 O 0.7639 0.53767 0.32135 0.0
Cd3 Cd 0.78262 0.50952 0.44461 0.0
O4 O 0.77543 0.51006 0.60232 0.0
C5 C 0.79823 0.52023 0.66098 0.0
O6 O 0.77401 0.50958 0.60456 0.0
C7 C 0.77375 0.5424 0.23915 0.0
C8 C 0.6554 0.5644 0.13938 0.0
O9 O 0.66772 0.59296 0.12735 0.0
O10 O 0.66866 0.54591 0.20438 0.0
O11 O 0.93708 0.746 0.11279 0.0
Cd12 Cd 0.91259 0.6975 0.17905 0.0
O13 O 0.9666 0.74501 0.24728 0.0
Cd14 Cd 0.00378 0.76534 0.34614 0.0
O15 O 0.0114 0.80998 0.4243 0.0
C16 C 0.99346 0.81541 0.49169 0.0
O17 O 0.97347 0.79236 0.51868 0.0
C18 C 0.95998 0.75811 0.16654 0.0
C19 C 0.93427 0.64634 0.07576 0.0
O20 O 0.90554 0.65771 0.0582 0.0
O21 O 0.95221 0.65821 0.14496 0.0
O22 O 0.78775 0.9846 0.20969 0.0
Cd23 Cd 0.84125 0.96133 0.24607 0.0
O24 O 0.77044 0.95611 0.32813 0.0
Cd25 Cd 0.73518 0.94158 0.42858 0.0
O26 O 0.68996 0.93975 0.49823 0.0
C27 C 0.6885 0.95466 0.57581 0.0
O28 O 0.71505 0.96894 0.61357 0.0
C29 C 0.76455 0.97594 0.25932 0.0
C30 C 0.88185 0.98011 0.10611 0.0
O31 O 0.86318 0.95487 0.09627 0.0
O32 O 0.88155 0.9963 0.18297 0.0
O33 O 0.42261 0.7784 0.18915 0.0
Cd34 Cd 0.41926 0.8346 0.24175 0.0
O35 O 0.46545 0.76926 0.28679 0.0
Cd36 Cd 0.49976 0.736 0.36152 0.0
O37 O 0.51744 0.69108 0.42955 0.0
C38 C 0.51236 0.68705 0.5163 0.0
O39 O 0.49884 0.71085 0.56056 0.0
C40 C 0.44457 0.75915 0.22282 0.0
C41 C 0.44313 0.87697 0.10739 0.0
O42 O 0.46138 0.86774 0.17966 0.0
O43 O 0.41354 0.86655 0.09966 0.0
O44 O 0.26735 0.54744 0.20292 0.0
Cd45 Cd 0.32192 0.54277 0.14779 0.0
O46 O 0.25949 0.49461 0.18752 0.0
Cd47 Cd 0.2255 0.45348 0.17381 0.0
O48 O 0.17918 0.45058 0.0913 0.0
C49 C 0.17751 0.47129 0.02363 0.0
O50 O 0.20307 0.49006 0.01111 0.0
C51 C 0.24918 0.52237 0.21065 0.0
C52 C 0.36342 0.51946 0.29573 0.0
O53 O 0.35562 0.54965 0.28945 0.0
O54 O 0.35208 0.50003 0.23082 0.0
O55 O 0.09129 0.26262 0.31912 0.0
Cd56 Cd 0.12606 0.31078 0.31155 0.0
O57 O 0.08921 0.26049 0.16472 0.0
Cd58 Cd 0.07332 0.24166 0.02647 0.0
O59 O 0.06466 0.20585 0.91643 0.0
C60 C 0.08807 0.18757 0.89788 0.0
O61 O 0.11714 0.19317 0.93963 0.0
C62 C 0.08052 0.24903 0.24305 0.0
C63 C 0.09282 0.35926 0.39813 0.0
O64 O 0.08944 0.35568 0.30819 0.0
O65 O 0.11301 0.34077 0.44585 0.0
O66 O 0.21963 0.99345 0.11151 0.0
Cd67 Cd 0.16368 -0.00041 0.04822 0.0
O68 O 0.23698 0.03907 0.0476 0.0
Cd69 Cd 0.27544 0.0752 0.02693 0.0
O70 O 0.32297 0.08771 0.97718 0.0
C71 C 0.32546 0.08638 0.88846 0.0
O72 O 0.299 0.08049 0.83339 0.0
C73 C 0.2424 0.01409 0.10032 0.0
C74 C 0.12885 0.00297 0.20897 0.0
O75 O 0.13304 0.97551 0.16917 0.0
O76 O 0.1397 0.02884 0.16943 0.0
O77 O 0.59961 0.23177 0.20698 0.0
Cd78 Cd 0.59857 0.17743 0.13876 0.0
O79 O 0.54687 0.23125 0.17112 0.0
Cd80 Cd 0.50133 0.25784 0.15064 0.0
O81 O 0.48287 0.30117 0.07612 0.0
C82 C 0.49202 0.30465 0.99267 0.0
O83 O 0.5092 0.28133 0.95812 0.0
C84 C 0.57213 0.24547 0.20896 0.0
C85 C 0.57491 0.13626 0.27626 0.0
O86 O 0.60561 0.141 0.27076 0.0
O87 O 0.5554 0.15003 0.21381 0.0
Eu88 Eu 0.99013 0.02547 0.6051 0.0
Eu89 Eu 0.04016 0.9867 0.75948 0.0
C90 C 0.0448 0.06372 0.73879 0.0
C91 C 0.96988 0.08304 0.40795 0.0
C92 C 0.00234 0.08129 0.38358 0.0
C93 C 0.96613 0.13692 0.33409 0.0
C94 C 0.01691 0.10745 0.33819 0.0
C95 C 0.9516 0.11073 0.38095 0.0
C96 C -0.00074 0.1359 0.31441 0.0
C97 C 0.95716 0.05808 0.47218 0.0
O98 O 1e-05 0.00849 0.83783 0.0
O99 O 0.95872 0.00826 0.72033 0.0
C100 C 0.96883 0.00844 0.81047 0.0
O101 O 0.99182 0.97244 0.56529 0.0
O102 O 0.06424 0.98047 0.90094 0.0
O103 O 0.06973 0.94375 0.79451 0.0
O104 O 0.9986 0.95312 0.71576 0.0
C105 C 0.99072 0.94816 0.62619 0.0
O106 O 0.04053 0.03115 0.55644 0.0
O107 O 0.06105 0.98304 0.61618 0.0
O108 O 0.06208 0.03702 0.75041 0.0
O109 O 0.96747 0.02843 0.46127 0.0
O110 O 0.9583 0.06619 0.56123 0.0
O111 O 0.01438 0.06292 0.70284 0.0
C112 C 0.06085 0.92484 0.94724 0.0
C113 C 0.02982 0.9273 0.98247 0.0
C114 C 0.064 0.86879 0.00543 0.0
C115 C 0.01584 0.90058 0.02759 0.0
C116 C 0.07812 0.89564 0.96093 0.0
C117 C 0.0324 0.87081 0.03692 0.0
C118 C 0.0729 0.95058 0.88444 0.0
C119 C 0.061 0.00707 0.55387 0.0
H120 H 0.0171 0.06031 0.40373 0.0
H121 H 0.95185 0.15849 0.31657 0.0
H122 H 0.04261 0.106 0.32707 0.0
H123 H 0.92658 0.11267 0.39957 0.0
H124 H 0.01571 0.94938 0.97134 0.0
H125 H 0.07731 0.84612 0.01255 0.0
H126 H 0.99136 0.90264 0.05068 0.0
H127 H 0.1019 0.89313 0.93342 0.0
Eu128 Eu 0.52523 0.04126 0.81015 0.0
Eu129 Eu 0.48575 0.00225 0.62955 0.0
C130 C 0.49004 0.97112 0.83797 0.0
C131 C 0.58482 0.05467 0.01769 0.0
C132 C 0.59303 0.02177 0.00945 0.0
C133 C 0.62953 0.06143 0.13764 0.0
C134 C 0.61997 0.00905 0.06195 0.0
C135 C 0.60283 0.07438 0.08315 0.0
C136 C 0.63877 0.02872 0.12635 0.0
C137 C 0.55897 0.06838 0.95271 0.0
O138 O 0.44778 0.02764 0.70748 0.0
O139 O 0.47853 0.06881 0.78057 0.0
C140 C 0.45022 0.05545 0.75314 0.0
O141 O 0.54204 0.0617 0.67317 0.0
O142 O 0.44891 0.9678 0.57203 0.0
O143 O 0.4794 0.9939 0.47716 0.0
O144 O 0.49433 0.05417 0.58415 0.0
C145 C 0.5234 0.06754 0.59607 0.0
O146 O 0.5562 0.99842 0.77876 0.0
O147 O 0.53911 0.99176 0.62241 0.0
O148 O 0.49104 0.965 0.74741 0.0
O149 O 0.56637 0.07141 0.86502 0.0
O150 O 0.53004 0.05546 0.95882 0.0
O151 O 0.4971 4e-05 0.87336 0.0
C152 C 0.42497 0.9831 0.42296 0.0
C153 C 0.40349 0.00694 0.45087 0.0
C154 C 0.38946 0.97338 0.2815 0.0
C155 C 0.3748 0.01344 0.39556 0.0
C156 C 0.41811 0.96672 0.33732 0.0
C157 C 0.36726 0.99629 0.31132 0.0
C158 C 0.45404 0.97479 0.48416 0.0
C159 C 0.56118 0.98833 0.69341 0.0
H160 H 0.57929 0.00616 0.95948 0.0
H161 H 0.64342 0.0772 0.18686 0.0
H162 H 0.62686 0.98419 0.04841 0.0
H163 H 0.59676 0.09987 0.09048 0.0
H164 H 0.40865 0.02008 0.51631 0.0
H165 H 0.38409 0.95988 0.21678 0.0
H166 H 0.35825 0.03152 0.41921 0.0
H167 H 0.43459 0.94839 0.31457 0.0
Eu168 Eu 0.47375 0.50941 0.82456 0.0
Eu169 Eu 0.5291 0.48063 0.68832 0.0
C170 C 0.54931 0.51637 0.88407 0.0
C171 C 0.43509 0.56596 0.98569 0.0
C172 C 0.45486 0.59082 0.95055 0.0
C173 C 0.42008 0.60228 0.10933 0.0
C174 C 0.45701 0.62127 0.99364 0.0
C175 C 0.4177 0.57176 0.06537 0.0
C176 C 0.43997 0.62726 0.07419 0.0
C177 C 0.4343 0.53374 0.94116 0.0
O178 O 0.49746 0.43854 0.73029 0.0
O179 O 0.4861 0.4583 0.87337 0.0
C180 C 0.48945 0.43358 0.8171 0.0
O181 O 0.44453 0.48745 0.70042 0.0
O182 O 0.56815 0.44565 0.67547 0.0
O183 O 0.55431 0.47817 0.55809 0.0
O184 O 0.48393 0.48838 0.59229 0.0
C185 C 0.45327 0.48697 0.61289 0.0
O186 O 0.48568 0.55103 0.72716 0.0
O187 O 0.535 0.53526 0.67443 0.0
O188 O 0.55419 0.49061 0.83268 0.0
O189 O 0.42828 0.53381 0.84937 0.0
O190 O 0.45868 0.51496 0.96817 0.0
O191 O 0.52152 0.53167 0.87653 0.0
C192 C 0.57059 0.42483 0.52234 0.0
C193 C 0.54109 0.41393 0.47658 0.0
C194 C 0.59856 0.37988 0.45406 0.0
C195 C 0.54035 0.38615 0.41986 0.0
C196 C 0.59932 0.40781 0.51014 0.0
C197 C 0.569 0.3685 0.40925 0.0
C198 C 0.57141 0.45282 0.58663 0.0
C199 C 0.51245 0.55729 0.68404 0.0
H200 H 0.46872 0.58659 0.88971 0.0
H201 H 0.40665 0.60626 0.17125 0.0
H202 H 0.47179 0.64022 0.96315 0.0
H203 H 0.40259 0.55267 0.09395 0.0
H204 H 0.5186 0.42668 0.48559 0.0
H205 H 0.62098 0.36669 0.44775 0.0
H206 H 0.51732 0.37838 0.38477 0.0
H207 H 0.62225 0.41577 0.54546 0.0
Eu208 Eu 0.01112 0.52688 0.63625 0.0
Eu209 Eu 0.97867 0.47206 0.77662 0.0
C210 C 0.05448 0.49173 0.80339 0.0
C211 C 0.06964 0.56071 0.4667 0.0
C212 C 0.0999 0.55619 0.51758 0.0
C213 C 0.09593 0.55186 0.32017 0.0
C214 C 0.12761 0.54893 0.47069 0.0
C215 C 0.06801 0.55893 0.36735 0.0
C216 C 0.12581 0.54614 0.37177 0.0
C217 C 0.03956 0.5649 0.51708 0.0
O218 O 0.96095 0.52082 0.81893 0.0
O219 O 0.00277 0.55334 0.77161 0.0
C220 C 0.97818 0.54796 0.82468 0.0
O221 O 0.95685 0.53485 0.6245 0.0
O222 O 0.97448 0.45135 0.91784 0.0
O223 O 0.94304 0.43319 0.80061 0.0
O224 O 0.94473 0.48115 0.64725 0.0
C225 C 0.9356 0.51065 0.62101 0.0
O226 O 0.00827 0.47817 0.56304 0.0
O227 O 0.0115 0.4432 0.69047 0.0
O228 O 0.02776 0.48545 0.84615 0.0
O229 O 0.01517 0.5454 0.49186 0.0
O230 O 0.04332 0.56814 0.6089 0.0
O231 O 0.05344 0.50184 0.71492 0.0
C232 C 0.91961 0.44385 0.94536 0.0
C233 C 0.89472 0.46321 0.9018 0.0
C234 C 0.89707 0.45219 0.09753 0.0
C235 C 0.87152 0.47718 0.95563 0.0
C236 C 0.92026 0.43798 0.04337 0.0
C237 C 0.87284 0.47245 0.0543 0.0
C238 C 0.94786 0.43513 0.89261 0.0
C239 C 0.01629 0.4498 0.6016 0.0
H240 H 0.10217 0.55776 0.59393 0.0
H241 H 0.09403 0.55009 0.24371 0.0
H242 H 0.15054 0.54543 0.51194 0.0
H243 H 0.04501 0.56236 0.3264 0.0
H244 H 0.89399 0.4688 0.82668 0.0
H245 H 0.89902 0.44854 0.17358 0.0
H246 H 0.85298 0.49247 0.92025 0.0
H247 H 0.93969 0.42377 0.07866 0.0
C248 C 0.10075 0.97565 0.34066 0.0
C249 C 0.11283 0.0045 0.29947 0.0
C250 C 0.08548 0.97634 0.42613 0.0
C251 C 0.08154 0.00593 0.47294 0.0
H252 H 0.10269 0.95234 0.30617 0.0
H253 H 0.07557 0.95378 0.45366 0.0
S254 S 0.11121 0.0878 0.40079 0.0
N255 N 0.1216 0.06324 0.31659 0.0
N256 N 0.09251 0.06436 0.47628 0.0
C257 C 0.09421 0.03476 0.43436 0.0
C258 C 0.10995 0.0341 0.34785 0.0
C259 C 0.52874 0.11811 0.37148 0.0
C260 C 0.56221 0.11726 0.35585 0.0
C261 C 0.51636 0.10221 0.4498 0.0
C262 C 0.53704 0.08518 0.51596 0.0
H263 H 0.51194 0.13152 0.32359 0.0
H264 H 0.49047 0.10355 0.45911 0.0
S265 S 0.62588 0.0724 0.50249 0.0
N266 N 0.61536 0.09572 0.40971 0.0
N267 N 0.59213 0.06616 0.55712 0.0
C268 C 0.5704 0.08346 0.50021 0.0
C269 C 0.58297 0.09938 0.42006 0.0
C270 C 0.38089 0.5206 0.46711 0.0
C271 C 0.38451 0.50764 0.37704 0.0
C272 C 0.40196 0.51179 0.54488 0.0
C273 C 0.42794 0.49041 0.53463 0.0
H274 H 0.36188 0.53806 0.47728 0.0
H275 H 0.39894 0.52323 0.61229 0.0
S276 S 0.44705 0.44866 0.31459 0.0
N277 N 0.41477 0.47095 0.28281 0.0
N278 N 0.45534 0.45536 0.42864 0.0
C279 C 0.43131 0.47657 0.44553 0.0
C280 C 0.4093 0.48491 0.36674 0.0
C281 C 0.07105 0.38008 0.54545 0.0
C282 C 0.07289 0.38278 0.44685 0.0
C283 C 0.0518 0.40118 0.59406 0.0
C284 C 0.03383 0.4261 0.54627 0.0
H285 H 0.08447 0.36137 0.58582 0.0
H286 H 0.05167 0.39829 0.67018 0.0
S287 S 0.02996 0.44349 0.28761 0.0
N288 N 0.05474 0.41212 0.30253 0.0
N289 N 0.0187 0.45207 0.39408 0.0
C290 C 0.03524 0.42903 0.44741 0.0
C291 C 0.05471 0.40731 0.39768 0.0
C292 C 0.89594 0.97896 0.93759 0.0
C293 C 0.90316 0.99 0.03059 0.0
C294 C 0.91646 0.98657 0.8653 0.0
C295 C 0.94522 0.005 0.88384 0.0
H296 H 0.87443 0.96401 0.92054 0.0
H297 H 0.91042 0.97676 0.79543 0.0
S298 S 0.9744 0.04134 0.11394 0.0
N299 N 0.9403 0.02179 0.13608 0.0
N300 N 0.97916 0.03557 0.00053 0.0
C301 C 0.95231 0.01697 0.97582 0.0
C302 C 0.93119 0.00963 0.04914 0.0
C303 C 0.48144 0.92134 0.06195 0.0
C304 C 0.45575 0.89951 0.03585 0.0
C305 C 0.49279 0.94409 0.99682 0.0
C306 C 0.47939 0.94525 0.90271 0.0
H307 H 0.49231 0.92149 0.13391 0.0
H308 H 0.5121 0.961 0.02048 0.0
S309 S 0.41263 0.89254 0.79756 0.0
N310 N 0.41772 0.87999 0.90884 0.0
N311 N 0.43963 0.92229 0.78592 0.0
C312 C 0.45436 0.92297 0.87488 0.0
C313 C 0.44234 0.90024 0.94166 0.0
C314 C 0.62528 0.51941 0.05232 0.0
C315 C 0.62748 0.55258 0.07734 0.0
C316 C 0.60006 0.50789 0.98909 0.0
C317 C 0.57574 0.52899 0.95052 0.0
H318 H 0.64362 0.50237 0.08005 0.0
H319 H 0.59949 0.48223 0.97091 0.0
S320 S 0.56968 0.61777 0.99761 0.0
N321 N 0.60293 0.60622 0.06084 0.0
N322 N 0.55506 0.58457 0.94382 0.0
C323 C 0.5773 0.56211 0.97675 0.0
C324 C 0.60332 0.57391 0.03965 0.0
C325 C 0.92528 0.59646 0.97886 0.0
C326 C 0.94661 0.62093 0.01548 0.0
C327 C 0.93601 0.57272 0.9185 0.0
C328 C 0.96817 0.57328 0.88983 0.0
H329 H 0.90014 0.59548 0.99751 0.0
H330 H 0.91869 0.55411 0.89288 0.0
S331 S 0.0336 0.63239 0.96723 0.0
N332 N 0.00148 0.64414 0.02139 0.0
N333 N 0.02145 0.60008 0.90474 0.0
C334 C 0.98979 0.59766 0.92622 0.0
C335 C 0.97905 0.62136 0.98989 0.0
C336 C 0.03218 0.22283 0.30958 0.0
C337 C 0.05749 0.22112 0.24807 0.0
C338 C 0.01209 0.19571 0.3257 0.0
C339 C 0.01669 0.16564 0.28153 0.0
H340 H 0.02845 0.24511 0.34778 0.0
H341 H 0.994 0.1979 0.37727 0.0
S342 S 0.07915 0.14866 0.11209 0.0
N343 N 0.08596 0.1872 0.14186 0.0
N344 N 0.04741 0.13643 0.16909 0.0
C345 C 0.0411 0.16405 0.21658 0.0
C346 C 0.06168 0.19172 0.20054 0.0
C347 C 0.30361 0.01417 0.10998 0.0
C348 C 0.27418 0.00974 0.15385 0.0
C349 C 0.3338 0.00963 0.16105 0.0
C350 C 0.33541 0.00097 0.25773 0.0
H351 H 0.30329 0.02058 0.0355 0.0
H352 H 0.35601 0.01315 0.12502 0.0
S353 S 0.26531 0.98608 0.40446 0.0
N354 N 0.2485 0.99585 0.29874 0.0
N355 N 0.30511 0.98751 0.39458 0.0
C356 C 0.30614 0.99642 0.30203 0.0
C357 C 0.27554 0.00068 0.25002 0.0
C358 C 0.59288 0.30219 0.24178 0.0
C359 C 0.56965 0.27739 0.25529 0.0
C360 C 0.59201 0.33192 0.28995 0.0
C361 C 0.56813 0.3377 0.3543 0.0
H362 H 0.61189 0.29857 0.19378 0.0
H363 H 0.61032 0.35043 0.2772 0.0
S364 S 0.50371 0.27911 0.42095 0.0
N365 N 0.52321 0.25969 0.34081 0.0
N366 N 0.52178 0.31526 0.43234 0.0
C367 C 0.5449 0.3129 0.36872 0.0
C368 C 0.54565 0.28279 0.3191 0.0
C369 C 0.19692 0.55278 0.21487 0.0
C370 C 0.21623 0.52593 0.24483 0.0
C371 C 0.16686 0.55836 0.25294 0.0
C372 C 0.15541 0.5376 0.3235 0.0
H373 H 0.20536 0.56987 0.16264 0.0
H374 H 0.15313 0.57977 0.22976 0.0
S375 S 0.19629 0.46354 0.42469 0.0
N376 N 0.22153 0.47822 0.34844 0.0
N377 N 0.16484 0.48836 0.41857 0.0
C378 C 0.17405 0.51019 0.3521 0.0
C379 C 0.20452 0.50444 0.31314 0.0
C380 C 0.98383 0.81424 0.19095 0.0
C381 C 0.97908 0.78636 0.13433 0.0
C382 C 0.00148 0.84146 0.15973 0.0
C383 C 0.01545 0.84132 0.07176 0.0
H384 H 0.97316 0.81531 0.25861 0.0
H385 H 0.00417 0.86276 0.20445 0.0
S386 S 0.01011 0.77398 0.89808 0.0
N387 N 0.98955 0.76017 0.98673 0.0
N388 N 0.02327 0.81093 0.9288 0.0
C389 C 0.01114 0.81337 0.01526 0.0
C390 C 0.99273 0.78601 0.04627 0.0
C391 C 0.72875 0.0221 0.20466 0.0
C392 C 0.73166 0.98952 0.23661 0.0
C393 C 0.69838 0.03506 0.17382 0.0
C394 C 0.66965 0.01593 0.17361 0.0
H395 H 0.75027 0.03755 0.20139 0.0
H396 H 0.69771 0.05982 0.14595 0.0
S397 S 0.66393 0.92927 0.25217 0.0
N398 N 0.70329 0.93817 0.26419 0.0
N399 N 0.64589 0.96321 0.2139 0.0
C400 C 0.67209 0.98364 0.20892 0.0
C401 C 0.70314 0.97026 0.23849 0.0
C402 C 0.41462 0.70808 0.17376 0.0
C403 C 0.44447 0.72498 0.19017 0.0
C404 C 0.41348 0.6761 0.13916 0.0
C405 C 0.44214 0.65995 0.1189 0.0
H406 H 0.39192 0.71975 0.1873 0.0
H407 H 0.38988 0.66432 0.12559 0.0
S408 S 0.5265 0.69365 0.14849 0.0
N409 N 0.50327 0.72365 0.18053 0.0
N410 N 0.50136 0.66292 0.1205 0.0
C411 C 0.47221 0.67643 0.13634 0.0
C412 C 0.47333 0.7091 0.17072 0.0
C413 C 0.82089 0.54066 0.13862 0.0
C414 C 0.80181 0.52495 0.20464 0.0
C415 C 0.84456 0.52371 0.09322 0.0
C416 C 0.84991 0.49025 0.11123 0.0
H417 H 0.81698 0.56615 0.12019 0.0
H418 H 0.85838 0.53682 0.04207 0.0
S419 S 0.80661 0.43776 0.27845 0.0
N420 N 0.7901 0.4741 0.28681 0.0
N421 N 0.83471 0.44214 0.20123 0.0
C422 C 0.83181 0.47445 0.17948 0.0
C423 C 0.8077 0.49182 0.22617 0.0
C424 C 0.05127 0.15417 0.78973 0.0
C425 C 0.08076 0.15701 0.84562 0.0
C426 C 0.04063 0.12413 0.7525 0.0
C427 C 0.05893 0.09559 0.77017 0.0
H428 H 0.03566 0.17513 0.77708 0.0
H429 H 0.01729 0.12326 0.71194 0.0
S430 S 0.13957 0.09047 0.9052 0.0
N431 N 0.1295 0.12928 0.91101 0.0
N432 N 0.10937 0.0726 0.84146 0.0
C433 C 0.08941 0.09839 0.82159 0.0
C434 C 0.10038 0.12916 0.85913 0.0
C435 C 0.36047 0.07285 0.75777 0.0
C436 C 0.358 0.08494 0.84962 0.0
C437 C 0.39075 0.06522 0.72493 0.0
C438 C 0.41979 0.06996 0.78185 0.0
H439 H 0.33878 0.06743 0.71245 0.0
H440 H 0.39129 0.05432 0.65571 0.0
S441 S 0.42724 0.10496 0.02293 0.0
N442 N 0.38762 0.10425 0.99369 0.0
N443 N 0.44463 0.09025 0.93102 0.0
C444 C 0.41799 0.08436 0.87093 0.0
C445 C 0.38706 0.09175 0.90508 0.0
C446 C 0.4763 0.36349 0.98832 0.0
C447 C 0.48759 0.33623 0.94115 0.0
C448 C 0.47592 0.3946 0.94617 0.0
C449 C 0.48665 0.39977 0.85488 0.0
H450 H 0.46877 0.36111 0.05991 0.0
H451 H 0.46791 0.41489 0.98682 0.0
S452 S 0.51529 0.33588 0.69684 0.0
N453 N 0.50732 0.31596 0.79479 0.0
N454 N 0.50659 0.37441 0.71554 0.0
C455 C 0.4964 0.37244 0.80479 0.0
C456 C 0.49689 0.3407 0.84793 0.0
C457 C 0.11747 0.46226 0.99296 0.0
C458 C 0.14683 0.47577 0.96392 0.0
C459 C 0.08783 0.46758 0.9405 0.0
C460 C 0.08637 0.48635 0.85635 0.0
H461 H 0.1172 0.44789 0.05765 0.0
H462 H 0.0659 0.45677 0.96635 0.0
S463 S 0.15653 0.5263 0.74778 0.0
N464 N 0.17277 0.50821 0.84431 0.0
N465 N 0.11709 0.51801 0.74558 0.0
C466 C 0.11564 0.49955 0.8256 0.0
C467 C 0.14583 0.49434 0.87944 0.0
C468 C 0.99787 0.87544 0.46833 0.0
C469 C 0.99158 0.84882 0.52829 0.0
C470 C 0.99582 0.90756 0.49933 0.0
C471 C 0.98794 0.91428 0.59206 0.0
H472 H 0.00432 0.8715 0.39647 0.0
H473 H 0.00159 0.92719 0.45101 0.0
S474 S 0.96842 0.85318 0.77623 0.0
N475 N 0.97611 0.83109 0.68361 0.0
N476 N 0.97292 0.89171 0.74307 0.0
C477 C 0.98108 0.88789 0.6525 0.0
C478 C 0.98271 0.85508 0.62029 0.0
C479 C 0.62772 0.94969 0.56264 0.0
C480 C 0.65646 0.95962 0.61509 0.0
C481 C 0.59695 0.9578 0.59105 0.0
C482 C 0.59362 0.9759 0.67349 0.0
H483 H 0.62889 0.9366 0.49693 0.0
H484 H 0.57563 0.95058 0.54643 0.0
S485 S 0.66108 0.00568 0.84013 0.0
N486 N 0.67953 0.98674 0.757 0.0
N487 N 0.62168 0.00213 0.81005 0.0
C488 C 0.62206 0.98461 0.72923 0.0
C489 C 0.65347 0.97645 0.70008 0.0
C490 C 0.50294 0.64844 0.64939 0.0
C491 C 0.51688 0.65462 0.5629 0.0
C492 C 0.50268 0.61706 0.68937 0.0
C493 C 0.51676 0.59063 0.64537 0.0
H494 H 0.49093 0.66769 0.68506 0.0
H495 H 0.49075 0.6134 0.75451 0.0
S496 S 0.55923 0.59411 0.42281 0.0
N497 N 0.54721 0.63195 0.43767 0.0
N498 N 0.54698 0.5729 0.514 0.0
C499 C 0.53241 0.59666 0.5617 0.0
C500 C 0.53238 0.62866 0.52013 0.0
C501 C 0.8449 0.49484 0.58581 0.0
C502 C 0.83212 0.52118 0.63365 0.0
C503 C 0.87852 0.49268 0.576 0.0
C504 C 0.90026 0.51719 0.61129 0.0
H505 H 0.82918 0.47476 0.56135 0.0
H506 H 0.88772 0.47097 0.54437 0.0
S507 S 0.87791 0.59317 0.7306 0.0
N508 N 0.84296 0.57324 0.7101 0.0
N509 N 0.90599 0.57023 0.68734 0.0
C510 C 0.88732 0.54486 0.65255 0.0
C511 C 0.85325 0.5465 0.66516 0.0
loop_
_geom_bond_atom_site_label_1
_geom_bond_atom_site_label_2
_geom_bond_distance
_geom_bond_site_symmetry_2
_ccdc_geom_bond_type
O0 Cd1 2.300 . S
O0 C7 1.275 . S
Cd1 O0 2.300 . S
Cd1 O9 2.381 . S
Cd1 O10 2.378 . S
O2 Cd3 2.385 . S
O2 C7 1.255 . S
Cd3 O2 2.385 . S
Cd3 O4 2.317 . S
O4 Cd3 2.317 . S
O4 C5 1.232 . S
C5 O4 1.232 . S
C5 O6 1.218 . S
O6 C5 1.218 . S
C7 O0 1.275 . S
C7 O2 1.255 . S
C8 O9 1.258 . S
C8 O10 1.256 . S
O9 Cd1 2.381 . S
O9 C8 1.258 . S
O10 Cd1 2.378 . S
O10 C8 1.256 . S
O11 Cd12 2.300 . S
O11 C18 1.275 . S
Cd12 O11 2.300 . S
Cd12 O20 2.381 . S
Cd12 O21 2.378 . S
O13 Cd14 2.385 1_655 S
O13 C18 1.255 . S
Cd14 O13 2.385 1_455 S
Cd14 O15 2.317 1_455 S
O15 Cd14 2.317 1_655 S
O15 C16 1.232 . S
C16 O15 1.232 . S
C16 O17 1.218 . S
O17 C16 1.218 . S
C18 O11 1.275 . S
C18 O13 1.255 . S
C19 O20 1.258 . S
C19 O21 1.256 . S
O20 Cd12 2.381 . S
O20 C19 1.258 . S
O21 Cd12 2.378 . S
O21 C19 1.256 . S
O22 Cd23 2.300 . S
O22 C29 1.275 . S
Cd23 O22 2.300 . S
Cd23 O31 2.381 . S
Cd23 O32 2.378 1_565 S
O24 Cd25 2.385 . S
O24 C29 1.255 1_545 S
Cd25 O24 2.385 . S
Cd25 O26 2.337 . S
O26 Cd25 2.337 . S
O26 C27 1.225 1_545 S
C27 O26 1.225 1_565 S
C27 O28 1.218 1_565 S
O28 C27 1.218 1_545 S
C29 O22 1.275 . S
C29 O24 1.255 1_565 S
C30 O31 1.258 . S
C30 O32 1.256 1_565 S
O31 Cd23 2.381 . S
O31 C30 1.258 . S
O32 Cd23 2.378 1_545 S
O32 C30 1.256 1_545 S
O33 Cd34 2.300 . S
O33 C40 1.275 . S
Cd34 O33 2.300 . S
Cd34 O42 2.381 . S
Cd34 O43 2.378 . S
O35 Cd36 2.385 . S
O35 C40 1.255 . S
Cd36 O35 2.385 . S
Cd36 O37 2.317 . S
O37 Cd36 2.317 . S
O37 C38 1.232 . S
C38 O37 1.232 . S
C38 O39 1.218 . S
O39 C38 1.218 . S
C40 O33 1.275 . S
C40 O35 1.255 . S
C41 O42 1.258 . S
C41 O43 1.256 . S
O42 Cd34 2.381 . S
O42 C41 1.258 . S
O43 Cd34 2.378 . S
O43 C41 1.256 . S
O44 Cd45 2.300 . S
O44 C51 1.275 . S
Cd45 O44 2.300 . S
Cd45 O53 2.381 . S
Cd45 O54 2.378 . S
O46 Cd47 2.385 . S
O46 C51 1.255 . S
Cd47 O46 2.385 . S
Cd47 O48 2.317 1_554 S
O48 Cd47 2.317 1_556 S
O48 C49 1.232 . S
C49 O48 1.232 . S
C49 O50 1.218 . S
O50 C49 1.218 . S
C51 O44 1.275 . S
C51 O46 1.255 . S
C52 O53 1.258 . S
C52 O54 1.256 . S
O53 Cd45 2.381 . S
O53 C52 1.258 . S
O54 Cd45 2.378 . S
O54 C52 1.256 . S
O55 Cd56 2.300 . S
O55 C62 1.275 . S
Cd56 O55 2.300 . S
Cd56 O64 2.381 . S
Cd56 O65 2.378 . S
O57 Cd58 2.385 1_554 S
O57 C62 1.255 . S
Cd58 O57 2.385 1_556 S
Cd58 O59 2.317 . S
O59 Cd58 2.317 . S
O59 C60 1.232 . S
C60 O59 1.232 . S
C60 O61 1.218 . S
O61 C60 1.218 . S
C62 O55 1.275 . S
C62 O57 1.255 . S
C63 O64 1.258 . S
C63 O65 1.256 . S
O64 Cd56 2.381 . S
O64 C63 1.258 . S
O65 Cd56 2.378 . S
O65 C63 1.256 . S
O66 Cd67 2.300 . S
O66 C73 1.275 . S
Cd67 O66 2.300 . S
Cd67 O75 2.381 . S
Cd67 O76 2.378 . S
O68 Cd69 2.385 1_554 S
O68 C73 1.255 . S
Cd69 O68 2.385 1_556 S
Cd69 O70 2.317 . S
O70 Cd69 2.317 . S
O70 C71 1.232 . S
C71 O70 1.232 . S
C71 O72 1.218 . S
O72 C71 1.218 . S
C73 O66 1.275 . S
C73 O68 1.255 . S
C74 O75 1.258 . S
C74 O76 1.256 . S
O75 Cd67 2.381 . S
O75 C74 1.258 . S
O76 Cd67 2.378 . S
O76 C74 1.256 . S
O77 Cd78 2.300 . S
O77 C84 1.275 . S
Cd78 O77 2.300 . S
Cd78 O86 2.381 . S
Cd78 O87 2.378 . S
O79 Cd80 2.385 . S
O79 C84 1.255 . S
Cd80 O79 2.385 . S
Cd80 O81 2.317 1_554 S
O81 Cd80 2.317 1_556 S
O81 C82 1.232 . S
C82 O81 1.232 . S
C82 O83 1.218 . S
O83 C82 1.218 . S
C84 O77 1.275 . S
C84 O79 1.255 . S
C85 O86 1.258 . S
C85 O87 1.256 . S
O86 Cd78 2.381 . S
O86 C85 1.258 . S
O87 Cd78 2.378 . S
O87 C85 1.256 . S
Eu88 C97 2.828 . S
Eu88 O99 2.392 . S
Eu88 O101 2.418 1_545 S
Eu88 O106 2.373 1_655 S
Eu88 O109 2.488 . S
Eu88 O110 2.471 . S
Eu88 O111 2.349 1_655 S
Eu89 O98 2.373 1_455 S
Eu89 O102 2.488 . S
Eu89 O103 2.471 . S
Eu89 O104 2.349 . S
Eu89 O107 2.392 1_565 S
Eu89 O108 2.418 1_565 S
Eu89 C118 2.828 . S
C90 O108 1.244 . S
C90 O111 1.265 . S
C91 C92 1.379 1_655 S
C91 C95 1.373 . S
C91 C97 1.505 . S
C92 C91 1.379 1_455 S
C92 C94 1.369 . S
C92 H120 0.930 . S
C93 C95 1.383 . S
C93 C96 1.400 . S
C93 H121 0.930 . S
C94 C92 1.369 . S
C94 C96 1.380 1_455 S
C94 H122 0.930 . S
C95 C91 1.373 . S
C95 C93 1.383 . S
C95 H123 0.931 . S
C96 C93 1.400 . S
C96 C94 1.380 1_655 S
C97 Eu88 2.828 . S
C97 C91 1.505 . S
C97 O109 1.249 . S
C97 O110 1.244 . S
O98 Eu89 2.373 1_655 S
O98 C100 1.258 . S
O99 Eu88 2.392 . S
O99 C100 1.242 1_545 S
C100 O98 1.258 . S
C100 O99 1.242 1_565 S
O101 Eu88 2.418 1_565 S
O101 C105 1.244 . S
O102 Eu89 2.488 . S
O102 C118 1.249 . S
O103 Eu89 2.471 . S
O103 C118 1.244 . S
O104 Eu89 2.349 . S
O104 C105 1.265 1_455 S
C105 O101 1.244 . S
C105 O104 1.265 1_655 S
O106 Eu88 2.373 1_455 S
O106 C119 1.258 . S
O107 Eu89 2.392 1_545 S
O107 C119 1.242 . S
O108 Eu89 2.418 1_545 S
O108 C90 1.244 . S
O109 Eu88 2.488 . S
O109 C97 1.249 . S
O110 Eu88 2.471 . S
O110 C97 1.244 . S
O111 Eu88 2.349 1_455 S
O111 C90 1.265 . S
C112 C113 1.379 . S
C112 C116 1.373 . S
C112 C118 1.505 1_554 S
C113 C112 1.379 . S
C113 C115 1.369 . S
C113 H124 0.930 1_454 S
C114 C116 1.383 . S
C114 C117 1.382 . S
C114 H125 0.930 . S
C115 C113 1.369 . S
C115 C117 1.392 . S
C115 H126 0.930 1_455 S
C116 C112 1.373 . S
C116 C114 1.383 . S
C116 H127 0.931 . S
C117 C114 1.382 . S
C117 C115 1.392 . S
C118 Eu89 2.828 . S
C118 O102 1.249 . S
C118 O103 1.244 . S
C118 C112 1.505 1_556 S
C119 O106 1.258 . S
C119 O107 1.242 . S
H120 C92 0.930 . S
H121 C93 0.930 . S
H122 C94 0.930 . S
H123 C95 0.931 . S
H124 C113 0.930 1_656 S
H125 C114 0.930 . S
H126 C115 0.930 1_655 S
H127 C116 0.931 . S
Eu128 C137 2.828 . S
Eu128 O139 2.392 . S
Eu128 O141 2.418 . S
Eu128 O146 2.373 . S
Eu128 O149 2.488 . S
Eu128 O150 2.471 . S
Eu128 O151 2.349 1_545 S
Eu129 O138 2.373 1_565 S
Eu129 O142 2.488 . S
Eu129 O143 2.471 1_565 S
Eu129 O144 2.349 1_565 S
Eu129 O147 2.392 . S
Eu129 O148 2.418 . S
Eu129 C158 2.828 . S
C130 O148 1.244 . S
C130 O151 1.265 . S
C131 C132 1.379 1_556 S
C131 C135 1.373 . S
C131 C137 1.505 . S
C132 C131 1.379 1_554 S
C132 C134 1.369 . S
C132 H160 0.930 1_544 S
C133 C135 1.383 1_554 S
C133 C136 1.382 . S
C133 H161 0.930 . S
C134 C132 1.369 . S
C134 C136 1.392 . S
C134 H162 0.930 1_545 S
C135 C131 1.373 . S
C135 C133 1.383 1_556 S
C135 H163 0.931 . S
C136 C133 1.382 . S
C136 C134 1.392 . S
C137 Eu128 2.828 . S
C137 C131 1.505 . S
C137 O149 1.249 . S
C137 O150 1.244 . S
O138 Eu129 2.373 1_545 S
O138 C140 1.258 . S
O139 Eu128 2.392 . S
O139 C140 1.242 . S
C140 O138 1.258 . S
C140 O139 1.242 . S
O141 Eu128 2.418 . S
O141 C145 1.244 . S
O142 Eu129 2.488 . S
O142 C158 1.249 . S
O143 Eu129 2.471 1_545 S
O143 C158 1.244 1_545 S
O144 Eu129 2.349 1_545 S
O144 C145 1.265 . S
C145 O141 1.244 . S
C145 O144 1.265 . S
O146 Eu128 2.373 . S
O146 C159 1.258 1_545 S
O147 Eu129 2.392 . S
O147 C159 1.242 . S
O148 Eu129 2.418 . S
O148 C130 1.244 . S
O149 Eu128 2.488 . S
O149 C137 1.249 . S
O150 Eu128 2.471 . S
O150 C137 1.244 . S
O151 Eu128 2.349 1_565 S
O151 C130 1.265 . S
C152 C153 1.379 1_565 S
C152 C156 1.373 . S
C152 C158 1.505 . S
C153 C152 1.379 1_545 S
C153 C155 1.369 . S
C153 H164 0.930 . S
C154 C156 1.383 . S
C154 C157 1.382 . S
C154 H165 0.930 . S
C155 C153 1.369 . S
C155 C157 1.392 1_545 S
C155 H166 0.930 . S
C156 C152 1.373 . S
C156 C154 1.383 . S
C156 H167 0.931 . S
C157 C154 1.382 . S
C157 C155 1.392 1_565 S
C158 Eu129 2.828 . S
C158 O142 1.249 . S
C158 O143 1.244 1_565 S
C158 C152 1.505 . S
C159 O146 1.258 1_565 S
C159 O147 1.242 . S
H160 C132 0.930 1_566 S
H161 C133 0.930 . S
H162 C134 0.930 1_565 S
H163 C135 0.931 . S
H164 C153 0.930 . S
H165 C154 0.930 . S
H166 C155 0.930 . S
H167 C156 0.931 . S
Eu168 C177 2.828 . S
Eu168 O179 2.392 . S
Eu168 O181 2.418 . S
Eu168 O186 2.373 . S
Eu168 O189 2.488 . S
Eu168 O190 2.471 . S
Eu168 O191 2.349 . S
Eu169 O178 2.373 . S
Eu169 O182 2.488 . S
Eu169 O183 2.471 . S
Eu169 O184 2.349 . S
Eu169 O187 2.392 . S
Eu169 O188 2.418 . S
Eu169 C198 2.828 . S
C170 O188 1.244 . S
C170 O191 1.265 . S
C171 C172 1.379 . S
C171 C175 1.373 . S
C171 C177 1.505 . S
C172 C171 1.379 . S
C172 C174 1.369 1_556 S
C172 H200 0.930 . S
C173 C175 1.383 1_554 S
C173 C176 1.382 . S
C173 H201 0.930 . S
C174 C172 1.369 1_554 S
C174 C176 1.392 . S
C174 H202 0.930 . S
C175 C171 1.373 . S
C175 C173 1.383 1_556 S
C175 H203 0.931 . S
C176 C173 1.382 . S
C176 C174 1.392 . S
C177 Eu168 2.828 . S
C177 C171 1.505 . S
C177 O189 1.249 . S
C177 O190 1.244 . S
O178 Eu169 2.373 . S
O178 C180 1.258 . S
O179 Eu168 2.392 . S
O179 C180 1.242 . S
C180 O178 1.258 . S
C180 O179 1.242 . S
O181 Eu168 2.418 . S
O181 C185 1.244 . S
O182 Eu169 2.488 . S
O182 C198 1.249 . S
O183 Eu169 2.471 . S
O183 C198 1.244 . S
O184 Eu169 2.349 . S
O184 C185 1.265 . S
C185 O181 1.244 . S
C185 O184 1.265 . S
O186 Eu168 2.373 . S
O186 C199 1.258 . S
O187 Eu169 2.392 . S
O187 C199 1.242 . S
O188 Eu169 2.418 . S
O188 C170 1.244 . S
O189 Eu168 2.488 . S
O189 C177 1.249 . S
O190 Eu168 2.471 . S
O190 C177 1.244 . S
O191 Eu168 2.349 . S
O191 C170 1.265 . S
C192 C193 1.379 . S
C192 C196 1.373 . S
C192 C198 1.505 . S
C193 C192 1.379 . S
C193 C195 1.369 . S
C193 H204 0.930 . S
C194 C196 1.383 . S
C194 C197 1.382 . S
C194 H205 0.930 . S
C195 C193 1.369 . S
C195 C197 1.392 . S
C195 H206 0.930 . S
C196 C192 1.373 . S
C196 C194 1.383 . S
C196 H207 0.931 . S
C197 C194 1.382 . S
C197 C195 1.392 . S
C198 Eu169 2.828 . S
C198 O182 1.249 . S
C198 O183 1.244 . S
C198 C192 1.505 . S
C199 O186 1.258 . S
C199 O187 1.242 . S
H200 C172 0.930 . S
H201 C173 0.930 . S
H202 C174 0.930 . S
H203 C175 0.931 . S
H204 C193 0.930 . S
H205 C194 0.930 . S
H206 C195 0.930 . S
H207 C196 0.931 . S
Eu208 C217 2.828 . S
Eu208 O219 2.392 . S
Eu208 O221 2.418 1_455 S
Eu208 O226 2.373 . S
Eu208 O229 2.488 . S
Eu208 O230 2.471 . S
Eu208 O231 2.349 . S
Eu209 O218 2.373 . S
Eu209 O222 2.488 . S
Eu209 O223 2.471 . S
Eu209 O224 2.349 . S
Eu209 O227 2.392 1_655 S
Eu209 O228 2.418 1_655 S
Eu209 C238 2.828 . S
C210 O228 1.244 . S
C210 O231 1.265 . S
C211 C212 1.379 . S
C211 C215 1.373 . S
C211 C217 1.505 . S
C212 C211 1.379 . S
C212 C214 1.369 . S
C212 H240 0.930 . S
C213 C215 1.383 . S
C213 C216 1.382 . S
C213 H241 0.930 . S
C214 C212 1.369 . S
C214 C216 1.392 . S
C214 H242 0.930 . S
C215 C211 1.373 . S
C215 C213 1.383 . S
C215 H243 0.931 . S
C216 C213 1.382 . S
C216 C214 1.392 . S
C217 Eu208 2.828 . S
C217 C211 1.505 . S
C217 O229 1.249 . S
C217 O230 1.244 . S
O218 Eu209 2.373 . S
O218 C220 1.258 . S
O219 Eu208 2.392 . S
O219 C220 1.242 1_455 S
C220 O218 1.258 . S
C220 O219 1.242 1_655 S
O221 Eu208 2.418 1_655 S
O221 C225 1.244 . S
O222 Eu209 2.488 . S
O222 C238 1.249 . S
O223 Eu209 2.471 . S
O223 C238 1.244 . S
O224 Eu209 2.349 . S
O224 C225 1.265 . S
C225 O221 1.244 . S
C225 O224 1.265 . S
O226 Eu208 2.373 . S
O226 C239 1.258 . S
O227 Eu209 2.392 1_455 S
O227 C239 1.242 . S
O228 Eu209 2.418 1_455 S
O228 C210 1.244 . S
O229 Eu208 2.488 . S
O229 C217 1.249 . S
O230 Eu208 2.471 . S
O230 C217 1.244 . S
O231 Eu208 2.349 . S
O231 C210 1.265 . S
C232 C233 1.379 . S
C232 C236 1.373 . S
C232 C238 1.505 1_554 S
C233 C232 1.379 . S
C233 C235 1.369 . S
C233 H244 0.930 1_554 S
C234 C236 1.383 . S
C234 C237 1.382 . S
C234 H245 0.930 . S
C235 C233 1.369 . S
C235 C237 1.392 . S
C235 H246 0.930 . S
C236 C232 1.373 . S
C236 C234 1.383 . S
C236 H247 0.931 . S
C237 C234 1.382 . S
C237 C235 1.392 . S
C238 Eu209 2.828 . S
C238 O222 1.249 . S
C238 O223 1.244 . S
C238 C232 1.505 1_556 S
C239 O226 1.258 . S
C239 O227 1.242 . S
H240 C212 0.930 . S
H241 C213 0.930 . S
H242 C214 0.930 . S
H243 C215 0.931 . S
H244 C233 0.930 1_556 S
H245 C234 0.930 . S
H246 C235 0.930 . S
H247 C236 0.931 . S
C248 C249 1.369 . S
C248 C250 1.419 . S
C248 H252 0.930 . S
C249 C248 1.369 . S
C249 C258 1.429 . S
C250 C248 1.419 . S
C250 C251 1.363 . S
C250 H253 0.929 . S
C251 C250 1.363 . S
C251 C257 1.428 . S
H252 C248 0.930 . S
H253 C250 0.929 . S
S254 N255 1.613 . S
S254 N256 1.610 . S
N255 S254 1.613 . S
N255 C258 1.350 . S
N256 S254 1.610 . S
N256 C257 1.351 . S
C257 C251 1.428 . S
C257 N256 1.351 . S
C257 C258 1.434 . S
C258 C249 1.429 . S
C258 N255 1.350 . S
C258 C257 1.434 . S
C259 C260 1.369 . S
C259 C261 1.419 . S
C259 H263 0.930 . S
C260 C259 1.369 . S
C260 C269 1.429 . S
C261 C259 1.419 . S
C261 C262 1.363 . S
C261 H264 0.929 . S
C262 C261 1.363 . S
C262 C268 1.428 . S
H263 C259 0.930 . S
H264 C261 0.929 . S
S265 N266 1.613 . S
S265 N267 1.610 . S
N266 S265 1.613 . S
N266 C269 1.350 . S
N267 S265 1.610 . S
N267 C268 1.351 . S
C268 C262 1.428 . S
C268 N267 1.351 . S
C268 C269 1.434 . S
C269 C260 1.429 . S
C269 N266 1.350 . S
C269 C268 1.434 . S
C270 C271 1.369 . S
C270 C272 1.419 . S
C270 H274 0.930 . S
C271 C270 1.369 . S
C271 C280 1.429 . S
C272 C270 1.419 . S
C272 C273 1.363 . S
C272 H275 0.929 . S
C273 C272 1.363 . S
C273 C279 1.428 . S
H274 C270 0.930 . S
H275 C272 0.929 . S
S276 N277 1.613 . S
S276 N278 1.610 . S
N277 S276 1.613 . S
N277 C280 1.350 . S
N278 S276 1.610 . S
N278 C279 1.351 . S
C279 C273 1.428 . S
C279 N278 1.351 . S
C279 C280 1.434 . S
C280 C271 1.429 . S
C280 N277 1.350 . S
C280 C279 1.434 . S
C281 C282 1.369 . S
C281 C283 1.419 . S
C281 H285 0.930 . S
C282 C281 1.369 . S
C282 C291 1.429 . S
C283 C281 1.419 . S
C283 C284 1.363 . S
C283 H286 0.929 . S
C284 C283 1.363 . S
C284 C290 1.428 . S
H285 C281 0.930 . S
H286 C283 0.929 . S
S287 N288 1.613 . S
S287 N289 1.610 . S
N288 S287 1.613 . S
N288 C291 1.350 . S
N289 S287 1.610 . S
N289 C290 1.351 . S
C290 C284 1.428 . S
C290 N289 1.351 . S
C290 C291 1.434 . S
C291 C282 1.429 . S
C291 N288 1.350 . S
C291 C290 1.434 . S
C292 C293 1.369 . S
C292 C294 1.419 . S
C292 H296 0.930 . S
C293 C292 1.369 . S
C293 C302 1.429 . S
C294 C292 1.419 . S
C294 C295 1.363 1_554 S
C294 H297 0.938 1_554 S
C295 C294 1.363 1_556 S
C295 C301 1.428 1_556 S
H296 C292 0.930 . S
H297 C294 0.938 1_556 S
S298 N299 1.613 1_455 S
S298 N300 1.610 1_455 S
N299 S298 1.613 1_655 S
N299 C302 1.350 . S
N300 S298 1.610 1_655 S
N300 C301 1.351 . S
C301 C295 1.428 1_554 S
C301 N300 1.351 . S
C301 C302 1.434 . S
C302 C293 1.429 . S
C302 N299 1.350 . S
C302 C301 1.434 . S
C303 C304 1.369 . S
C303 C305 1.419 . S
C303 H307 0.930 . S
C304 C303 1.369 . S
C304 C313 1.429 . S
C305 C303 1.419 . S
C305 C306 1.363 1_554 S
C305 H308 0.929 1_554 S
C306 C305 1.363 1_556 S
C306 C312 1.428 . S
H307 C303 0.930 . S
H308 C305 0.929 1_556 S
S309 N310 1.613 1_556 S
S309 N311 1.610 . S
N310 S309 1.613 1_554 S
N310 C313 1.350 . S
N311 S309 1.610 . S
N311 C312 1.351 . S
C312 C306 1.428 . S
C312 N311 1.351 . S
C312 C313 1.434 1_556 S
C313 C304 1.429 . S
C313 N310 1.350 . S
C313 C312 1.434 1_554 S
C314 C315 1.369 . S
C314 C316 1.419 1_554 S
C314 H318 0.930 . S
C315 C314 1.369 . S
C315 C324 1.429 . S
C316 C314 1.419 1_556 S
C316 C317 1.363 . S
C316 H319 0.929 . S
C317 C316 1.363 . S
C317 C323 1.428 1_556 S
H318 C314 0.930 . S
H319 C316 0.929 . S
S320 N321 1.613 . S
S320 N322 1.610 1_554 S
N321 S320 1.613 . S
N321 C324 1.350 . S
N322 S320 1.610 1_556 S
N322 C323 1.351 1_556 S
C323 C317 1.428 1_554 S
C323 N322 1.351 1_554 S
C323 C324 1.434 . S
C324 C315 1.429 . S
C324 N321 1.350 . S
C324 C323 1.434 . S
C325 C326 1.369 . S
C325 C327 1.419 . S
C325 H329 0.930 . S
C326 C325 1.369 . S
C326 C335 1.429 . S
C327 C325 1.419 . S
C327 C328 1.363 1_554 S
C327 H330 0.929 . S
C328 C327 1.363 1_556 S
C328 C334 1.428 . S
H329 C325 0.930 . S
H330 C327 0.929 . S
S331 N332 1.613 1_456 S
S331 N333 1.610 . S
N332 S331 1.613 1_654 S
N332 C335 1.350 . S
N333 S331 1.610 . S
N333 C334 1.351 1_455 S
C334 C328 1.428 . S
C334 N333 1.351 1_655 S
C334 C335 1.434 1_556 S
C335 C326 1.429 . S
C335 N332 1.350 . S
C335 C334 1.434 1_554 S
C336 C337 1.369 . S
C336 C338 1.419 1_455 S
C336 H340 0.930 . S
C337 C336 1.369 . S
C337 C346 1.429 . S
C338 C336 1.419 1_655 S
C338 C339 1.363 1_655 S
C338 H341 0.929 . S
C339 C338 1.363 1_455 S
C339 C345 1.428 . S
H340 C336 0.930 . S
H341 C338 0.929 . S
S342 N343 1.613 . S
S342 N344 1.610 . S
N343 S342 1.613 . S
N343 C346 1.350 . S
N344 S342 1.610 . S
N344 C345 1.351 . S
C345 C339 1.428 . S
C345 N344 1.351 . S
C345 C346 1.434 . S
C346 C337 1.429 . S
C346 N343 1.350 . S
C346 C345 1.434 . S
C347 C348 1.369 . S
C347 C349 1.419 1_545 S
C347 H351 0.930 . S
C348 C347 1.369 . S
C348 C357 1.429 . S
C349 C347 1.419 1_565 S
C349 C350 1.363 . S
C349 H352 0.929 . S
C350 C349 1.363 . S
C350 C356 1.428 1_565 S
H351 C347 0.930 . S
H352 C349 0.929 . S
S353 N354 1.613 . S
S353 N355 1.610 . S
N354 S353 1.613 . S
N354 C357 1.350 . S
N355 S353 1.610 . S
N355 C356 1.351 . S
C356 C350 1.428 1_545 S
C356 N355 1.351 . S
C356 C357 1.434 . S
C357 C348 1.429 . S
C357 N354 1.350 . S
C357 C356 1.434 . S
C358 C359 1.369 . S
C358 C360 1.419 . S
C358 H362 0.930 . S
C359 C358 1.369 . S
C359 C368 1.429 . S
C360 C358 1.419 . S
C360 C361 1.363 . S
C360 H363 0.929 . S
C361 C360 1.363 . S
C361 C367 1.428 . S
H362 C358 0.930 . S
H363 C360 0.929 . S
S364 N365 1.613 . S
S364 N366 1.610 . S
N365 S364 1.613 . S
N365 C368 1.350 . S
N366 S364 1.610 . S
N366 C367 1.351 . S
C367 C361 1.428 . S
C367 N366 1.351 . S
C367 C368 1.434 . S
C368 C359 1.429 . S
C368 N365 1.350 . S
C368 C367 1.434 . S
C369 C370 1.369 . S
C369 C371 1.419 . S
C369 H373 0.930 . S
C370 C369 1.369 . S
C370 C379 1.429 . S
C371 C369 1.419 . S
C371 C372 1.363 . S
C371 H374 0.929 . S
C372 C371 1.363 . S
C372 C378 1.428 . S
H373 C369 0.930 . S
H374 C371 0.929 . S
S375 N376 1.613 . S
S375 N377 1.610 . S
N376 S375 1.613 . S
N376 C379 1.350 . S
N377 S375 1.610 . S
N377 C378 1.351 . S
C378 C372 1.428 . S
C378 N377 1.351 . S
C378 C379 1.434 . S
C379 C370 1.429 . S
C379 N376 1.350 . S
C379 C378 1.434 . S
C380 C381 1.369 . S
C380 C382 1.419 1_655 S
C380 H384 0.930 . S
C381 C380 1.369 . S
C381 C390 1.429 . S
C382 C380 1.419 1_455 S
C382 C383 1.363 . S
C382 H385 0.929 . S
C383 C382 1.363 . S
C383 C389 1.431 . S
H384 C380 0.930 . S
H385 C382 0.929 . S
S386 N387 1.613 1_556 S
S386 N388 1.610 1_656 S
N387 S386 1.613 1_554 S
N387 C390 1.350 . S
N388 S386 1.610 1_454 S
N388 C389 1.353 . S
C389 C383 1.431 . S
C389 N388 1.353 . S
C389 C390 1.429 1_455 S
C390 C381 1.429 . S
C390 N387 1.350 . S
C390 C389 1.429 1_655 S
C391 C392 1.369 1_545 S
C391 C393 1.419 . S
C391 H395 0.930 . S
C392 C391 1.369 1_565 S
C392 C401 1.429 . S
C393 C391 1.419 . S
C393 C394 1.363 . S
C393 H396 0.929 . S
C394 C393 1.363 . S
C394 C400 1.428 1_545 S
H395 C391 0.930 . S
H396 C393 0.929 . S
S397 N398 1.613 . S
S397 N399 1.610 . S
N398 S397 1.613 . S
N398 C401 1.350 . S
N399 S397 1.610 . S
N399 C400 1.351 . S
C400 C394 1.428 1_565 S
C400 N399 1.351 . S
C400 C401 1.434 . S
C401 C392 1.429 . S
C401 N398 1.350 . S
C401 C400 1.434 . S
C402 C403 1.369 . S
C402 C404 1.419 . S
C402 H406 0.930 . S
C403 C402 1.369 . S
C403 C412 1.429 . S
C404 C402 1.419 . S
C404 C405 1.363 . S
C404 H407 0.929 1_554 S
C405 C404 1.363 . S
C405 C411 1.428 . S
H406 C402 0.930 . S
H407 C404 0.929 1_556 S
S408 N409 1.613 . S
S408 N410 1.610 . S
N409 S408 1.613 . S
N409 C412 1.350 . S
N410 S408 1.610 . S
N410 C411 1.351 . S
C411 C405 1.428 . S
C411 N410 1.351 . S
C411 C412 1.434 . S
C412 C403 1.429 . S
C412 N409 1.350 . S
C412 C411 1.434 . S
C413 C414 1.369 . S
C413 C415 1.419 . S
C413 H417 0.930 . S
C414 C413 1.369 . S
C414 C423 1.429 . S
C415 C413 1.419 . S
C415 C416 1.363 . S
C415 H418 0.929 . S
C416 C415 1.363 . S
C416 C422 1.428 . S
H417 C413 0.930 . S
H418 C415 0.929 . S
S419 N420 1.613 . S
S419 N421 1.610 . S
N420 S419 1.613 . S
N420 C423 1.350 . S
N421 S419 1.610 . S
N421 C422 1.351 . S
C422 C416 1.428 . S
C422 N421 1.351 . S
C422 C423 1.434 . S
C423 C414 1.429 . S
C423 N420 1.350 . S
C423 C422 1.434 . S
C424 C425 1.369 . S
C424 C426 1.419 . S
C424 H428 0.930 . S
C425 C424 1.369 . S
C425 C434 1.429 . S
C426 C424 1.419 . S
C426 C427 1.363 . S
C426 H429 0.926 1_455 S
C427 C426 1.363 . S
C427 C433 1.428 . S
H428 C424 0.930 . S
H429 C426 0.926 1_655 S
S430 N431 1.613 . S
S430 N432 1.610 . S
N431 S430 1.613 . S
N431 C434 1.350 . S
N432 S430 1.610 . S
N432 C433 1.351 . S
C433 C427 1.428 . S
C433 N432 1.351 . S
C433 C434 1.434 . S
C434 C425 1.429 . S
C434 N431 1.350 . S
C434 C433 1.434 . S
C435 C436 1.369 . S
C435 C437 1.419 . S
C435 H439 0.930 . S
C436 C435 1.369 . S
C436 C445 1.429 . S
C437 C435 1.419 . S
C437 C438 1.363 . S
C437 H440 0.929 . S
C438 C437 1.363 . S
C438 C444 1.428 . S
H439 C435 0.930 . S
H440 C437 0.929 . S
S441 N442 1.613 1_554 S
S441 N443 1.610 1_554 S
N442 S441 1.613 1_556 S
N442 C445 1.350 . S
N443 S441 1.610 1_556 S
N443 C444 1.351 . S
C444 C438 1.428 . S
C444 N443 1.351 . S
C444 C445 1.434 . S
C445 C436 1.429 . S
C445 N442 1.350 . S
C445 C444 1.434 . S
C446 C447 1.369 . S
C446 C448 1.419 . S
C446 H450 0.930 . S
C447 C446 1.369 . S
C447 C456 1.429 . S
C448 C446 1.419 . S
C448 C449 1.363 . S
C448 H451 0.929 . S
C449 C448 1.363 . S
C449 C455 1.428 . S
H450 C446 0.930 . S
H451 C448 0.929 . S
S452 N453 1.613 . S
S452 N454 1.610 . S
N453 S452 1.613 . S
N453 C456 1.350 . S
N454 S452 1.610 . S
N454 C455 1.351 . S
C455 C449 1.428 . S
C455 N454 1.351 . S
C455 C456 1.434 . S
C456 C447 1.429 . S
C456 N453 1.350 . S
C456 C455 1.434 . S
C457 C458 1.369 . S
C457 C459 1.419 . S
C457 H461 0.930 . S
C458 C457 1.369 . S
C458 C467 1.429 . S
C459 C457 1.419 . S
C459 C460 1.363 . S
C459 H462 0.929 . S
C460 C459 1.363 . S
C460 C466 1.428 . S
H461 C457 0.930 . S
H462 C459 0.929 . S
S463 N464 1.613 1_554 S
S463 N465 1.610 1_554 S
N464 S463 1.613 1_556 S
N464 C467 1.350 . S
N465 S463 1.610 1_556 S
N465 C466 1.351 . S
C466 C460 1.428 . S
C466 N465 1.351 . S
C466 C467 1.434 . S
C467 C458 1.429 . S
C467 N464 1.350 . S
C467 C466 1.434 . S
C468 C469 1.369 . S
C468 C470 1.419 . S
C468 H472 0.930 . S
C469 C468 1.369 . S
C469 C478 1.429 . S
C470 C468 1.419 . S
C470 C471 1.363 . S
C470 H473 0.929 . S
C471 C470 1.363 . S
C471 C477 1.428 . S
H472 C468 0.930 . S
H473 C470 0.929 . S
S474 N475 1.613 1_455 S
S474 N476 1.611 . S
N475 S474 1.613 1_655 S
N475 C478 1.350 . S
N476 S474 1.611 . S
N476 C477 1.349 1_455 S
C477 C471 1.428 . S
C477 N476 1.349 1_655 S
C477 C478 1.434 . S
C478 C469 1.429 . S
C478 N475 1.350 . S
C478 C477 1.434 . S
C479 C480 1.369 . S
C479 C481 1.419 . S
C479 H483 0.930 . S
C480 C479 1.369 . S
C480 C489 1.429 . S
C481 C479 1.419 . S
C481 C482 1.363 . S
C481 H484 0.929 . S
C482 C481 1.363 . S
C482 C488 1.428 . S
H483 C479 0.930 . S
H484 C481 0.929 . S
S485 N486 1.613 . S
S485 N487 1.610 . S
N486 S485 1.613 . S
N486 C489 1.350 1_545 S
N487 S485 1.610 . S
N487 C488 1.351 1_545 S
C488 C482 1.428 . S
C488 N487 1.351 1_565 S
C488 C489 1.434 . S
C489 C480 1.429 . S
C489 N486 1.350 1_565 S
C489 C488 1.434 . S
C490 C491 1.369 . S
C490 C492 1.419 . S
C490 H494 0.930 . S
C491 C490 1.369 . S
C491 C500 1.429 . S
C492 C490 1.419 . S
C492 C493 1.363 . S
C492 H495 0.929 . S
C493 C492 1.363 . S
C493 C499 1.428 . S
H494 C490 0.930 . S
H495 C492 0.929 . S
S496 N497 1.613 . S
S496 N498 1.610 . S
N497 S496 1.613 . S
N497 C500 1.350 . S
N498 S496 1.610 . S
N498 C499 1.351 . S
C499 C493 1.428 . S
C499 N498 1.351 . S
C499 C500 1.434 . S
C500 C491 1.429 . S
C500 N497 1.350 . S
C500 C499 1.434 . S
C501 C502 1.369 . S
C501 C503 1.419 . S
C501 H505 0.930 . S
C502 C501 1.369 . S
C502 C511 1.429 . S
C503 C501 1.419 . S
C503 C504 1.363 . S
C503 H506 0.929 . S
C504 C503 1.363 . S
C504 C510 1.428 . S
H505 C501 0.930 . S
H506 C503 0.929 . S
S507 N508 1.613 . S
S507 N509 1.610 . S
N508 S507 1.613 . S
N508 C511 1.350 . S
N509 S507 1.610 . S
N509 C510 1.351 . S
C510 C504 1.428 . S
C510 N509 1.351 . S
C510 C511 1.434 . S
C511 C502 1.429 . S
C511 N508 1.350 . S
C511 C510 1.434 . S
C249 C74 2.253 . S
C251 C119 2.434 . S
C262 C145 2.121 . S
C260 C85 1.889 . S
C273 C185 2.108 . S
C271 C52 1.931 . S
C284 C239 2.411 . S
C282 C63 2.270 . S
C295 C100 2.430 . S
C293 C30 2.233 . S
C304 C41 1.912 . S
C306 C130 2.123 . S
C315 C8 1.908 . S
C317 C170 2.107 . S
C326 C19 2.220 . S
C328 C220 2.415 . S
C339 C96 0.893 1_455 S
C337 C62 0.943 . S
C350 C157 1.006 . S
C348 C73 1.031 . S
C361 C197 0.829 . S
C359 C84 0.842 . S
C370 C51 0.800 . S
C372 C216 0.778 . S
C381 C18 0.878 . S
C383 C117 0.892 . S
C394 C136 1.002 . S
C392 C29 0.940 . S
C405 C176 0.827 . S
C403 C40 0.831 . S
C414 C7 0.772 . S
C416 C237 0.790 . S
C425 C60 1.873 . S
C427 C90 2.379 . S
C436 C71 2.173 . S
C438 C140 2.715 . S
C449 C180 2.523 . S
C447 C82 1.882 . S
C460 C210 2.162 . S
C458 C49 1.651 . S
C469 C16 1.728 . S
C471 C105 2.379 . S
C482 C159 2.713 . S
C480 C27 2.135 . S
C493 C199 2.525 . S
C491 C38 2.105 . S
C502 C5 1.586 . S
C504 C225 2.160 . S
