# Generated by pormake.
# Topology ssa, (4,4)-cn, num edge types: 1
# Building blocks:
#     Node 0, Type 0, BuildingBlock: NAWXER_clean_sbu_0, # of connection points: 4
#     Node 1, Type 0, BuildingBlock: NAWXER_clean_sbu_0, # of connection points: 4
#     Node 2, Type 0, BuildingBlock: NAWXER_clean_sbu_0, # of connection points: 4
#     Node 3, Type 0, BuildingBlock: NAWXER_clean_sbu_0, # of connection points: 4
#     Node 4, Type 0, BuildingBlock: NAWXER_clean_sbu_0, # of connection points: 4
#     Node 5, Type 0, BuildingBlock: NAWXER_clean_sbu_0, # of connection points: 4
#     Node 6, Type 1, BuildingBlock: KOZSID_clean_sbu_0, # of connection points: 4
#     Node 7, Type 1, BuildingBlock: KOZSID_clean_sbu_0, # of connection points: 4
#     Node 8, Type 1, BuildingBlock: KOZSID_clean_sbu_0, # of connection points: 4
#     Node 9, Type 1, BuildingBlock: KOZSID_clean_sbu_0, # of connection points: 4
#     Node 10, Type 1, BuildingBlock: KOZSID_clean_sbu_0, # of connection points: 4
#     Node 11, Type 1, BuildingBlock: KOZSID_clean_sbu_0, # of connection points: 4
#     Edge 12, Type (0, 1), BuildingBlock: MIFKUJ_clean_linker_0, # of connection points: 2
#     Edge 13, Type (0, 1), BuildingBlock: MIFKUJ_clean_linker_0, # of connection points: 2
#     Edge 14, Type (0, 1), BuildingBlock: MIFKUJ_clean_linker_0, # of connection points: 2
#     Edge 15, Type (0, 1), BuildingBlock: MIFKUJ_clean_linker_0, # of connection points: 2
#     Edge 16, Type (0, 1), BuildingBlock: MIFKUJ_clean_linker_0, # of connection points: 2
#     Edge 17, Type (0, 1), BuildingBlock: MIFKUJ_clean_linker_0, # of connection points: 2
#     Edge 18, Type (0, 1), BuildingBlock: MIFKUJ_clean_linker_0, # of connection points: 2
#     Edge 19, Type (0, 1), BuildingBlock: MIFKUJ_clean_linker_0, # of connection points: 2
#     Edge 20, Type (0, 1), BuildingBlock: MIFKUJ_clean_linker_0, # of connection points: 2
#     Edge 21, Type (0, 1), BuildingBlock: MIFKUJ_clean_linker_0, # of connection points: 2
#     Edge 22, Type (0, 1), BuildingBlock: MIFKUJ_clean_linker_0, # of connection points: 2
#     Edge 23, Type (0, 1), BuildingBlock: MIFKUJ_clean_linker_0, # of connection points: 2
#     Edge 24, Type (0, 1), BuildingBlock: MIFKUJ_clean_linker_0, # of connection points: 2
#     Edge 25, Type (0, 1), BuildingBlock: MIFKUJ_clean_linker_0, # of connection points: 2
#     Edge 26, Type (0, 1), BuildingBlock: MIFKUJ_clean_linker_0, # of connection points: 2
#     Edge 27, Type (0, 1), BuildingBlock: MIFKUJ_clean_linker_0, # of connection points: 2
#     Edge 28, Type (0, 1), BuildingBlock: MIFKUJ_clean_linker_0, # of connection points: 2
#     Edge 29, Type (0, 1), BuildingBlock: MIFKUJ_clean_linker_0, # of connection points: 2
#     Edge 30, Type (0, 1), BuildingBlock: MIFKUJ_clean_linker_0, # of connection points: 2
#     Edge 31, Type (0, 1), BuildingBlock: MIFKUJ_clean_linker_0, # of connection points: 2
#     Edge 32, Type (0, 1), BuildingBlock: MIFKUJ_clean_linker_0, # of connection points: 2
#     Edge 33, Type (0, 1), BuildingBlock: MIFKUJ_clean_linker_0, # of connection points: 2
#     Edge 34, Type (0, 1), BuildingBlock: MIFKUJ_clean_linker_0, # of connection points: 2
#     Edge 35, Type (0, 1), BuildingBlock: MIFKUJ_clean_linker_0, # of connection points: 2
# Relax obj value: 0.018
# Max RMSD: 0.054
# Mean RMSD: 0.027
data_MOF--net-ssa--node1-NAWXER_clean_sbu_0--node2-KOZSID_clean_sbu_0--edge1-MIFKUJ_clean_linker_0
_symmetry_space_group_name_H-M    P1
_symmetry_Int_Tables_number       1
_symmetry_cell_setting            triclinic
loop_
_symmetry_equiv_pos_as_xyz
'x, y, z'
_cell_length_a     67.024698
_cell_length_b     67.018212
_cell_length_c     46.890128
_cell_angle_alpha  92.876174
_cell_angle_beta   92.770662
_cell_angle_gamma 120.06092
loop_
_atom_site_label
_atom_site_type_symbol
_atom_site_fract_x
_atom_site_fract_y
_atom_site_fract_z
_atom_type_partial_charge
C0 C 0.00408 0.52821 0.06413 0.0
C1 C 0.95563 0.45024 0.01886 0.0
O2 O 0.98626 0.51176 0.07348 0.0
Zn3 Zn 0.98006 0.48897 0.0423 0.0
O4 O 0.01139 0.52485 0.04061 0.0
Zn5 Zn 0.00222 0.49706 0.00848 0.0
O6 O 0.99657 0.50919 0.97432 0.0
O7 O 0.97118 0.50241 0.00615 0.0
O8 O 0.97319 0.46246 0.00494 0.0
O9 O 0.95282 0.45882 0.04203 0.0
O10 O 0.00848 0.48303 0.04958 0.0
O11 O 0.02872 0.49284 0.01182 0.0
C12 C 0.97862 0.50929 0.98177 0.0
C13 C 0.02586 0.48541 0.03656 0.0
C14 C 0.49112 0.02158 0.51809 0.0
C15 C 0.51317 0.97233 0.46398 0.0
O16 O 0.48808 0.004 0.53113 0.0
Zn17 Zn 0.49313 0.97488 0.52428 0.0
O18 O 0.49926 0.02451 0.49372 0.0
Zn19 Zn 0.50261 0.99741 0.49092 0.0
O20 O 0.46715 0.96945 0.4873 0.0
O21 O 0.46219 0.94914 0.52468 0.0
O22 O 0.51511 0.99133 0.45735 0.0
O23 O 0.50528 0.96452 0.48786 0.0
O24 O 0.51552 0.98038 0.55576 0.0
O25 O 0.52948 0.00626 0.52404 0.0
C26 C 0.45401 0.95241 0.50152 0.0
C27 C 0.53224 0.99859 0.54753 0.0
C28 C 0.47907 0.45811 0.96026 0.0
C29 C 0.51065 0.53589 0.00746 0.0
O30 O 0.47702 0.47471 0.95166 0.0
Zn31 Zn 0.49433 0.49716 0.98404 0.0
O32 O 0.49003 0.46079 0.98461 0.0
Zn33 Zn 0.50833 0.48748 0.01864 0.0
O34 O 0.49089 0.47471 0.05111 0.0
O35 O 0.47308 0.48497 0.01926 0.0
O36 O 0.51523 0.52279 0.02218 0.0
O37 O 0.49881 0.5279 0.98338 0.0
O38 O 0.52894 0.5038 0.98081 0.0
O39 O 0.53899 0.49176 0.01897 0.0
C40 C 0.47384 0.4771 0.04343 0.0
C41 C 0.5439 0.50095 0.99536 0.0
C42 C 0.01425 0.5307 0.45609 0.0
C43 C 0.97153 0.46472 0.51281 0.0
O44 O 0.02299 0.53421 0.48203 0.0
Zn45 Zn 0.01665 0.51585 0.51986 0.0
O46 O 0.9962 0.5115 0.44769 0.0
Zn47 Zn 0.9925 0.49746 0.48386 0.0
O48 O 0.98395 0.51796 0.51182 0.0
O49 O 0.01203 0.5355 0.54663 0.0
O50 O 0.96698 0.46647 0.48672 0.0
O51 O 0.98935 0.48163 0.52706 0.0
O52 O 0.04442 0.51416 0.52572 0.0
O53 O 0.0222 0.4934 0.48691 0.0
C54 C 0.9928 0.5316 0.53482 0.0
C55 C 0.04074 0.50077 0.50346 0.0
C56 C 0.49693 0.96399 0.99213 0.0
C57 C 0.46221 0.00125 0.9398 0.0
O58 O 0.50064 0.98288 0.00542 0.0
Zn59 Zn 0.49321 0.00999 0.99854 0.0
O60 O 0.48611 0.95754 0.96737 0.0
Zn61 Zn 0.48022 0.98278 0.96525 0.0
O62 O 0.51398 0.01123 0.96024 0.0
O63 O 0.52346 0.03732 0.99665 0.0
O64 O 0.46224 0.98284 0.93199 0.0
O65 O 0.47284 0.01254 0.96382 0.0
O66 O 0.47576 0.00781 0.03102 0.0
O67 O 0.4579 0.97724 0.9995 0.0
C68 C 0.52848 0.03091 0.97344 0.0
C69 C 0.45839 0.98794 0.02326 0.0
C70 C 0.54884 0.5309 0.54446 0.0
C71 C 0.47574 0.50593 0.48788 0.0
O72 O 0.53195 0.53298 0.55203 0.0
Zn73 Zn 0.51214 0.51876 0.51683 0.0
O74 O 0.54771 0.5218 0.51928 0.0
Zn75 Zn 0.52385 0.50698 0.48176 0.0
O76 O 0.54034 0.52742 0.45313 0.0
O77 O 0.52961 0.54352 0.48669 0.0
O78 O 0.48986 0.50211 0.47441 0.0
O79 O 0.48152 0.51514 0.51352 0.0
O80 O 0.50523 0.48394 0.51689 0.0
O81 O 0.51824 0.47576 0.47823 0.0
C82 C 0.53942 0.5448 0.4635 0.0
C83 C 0.50843 0.46967 0.50132 0.0
C84 C 0.21981 0.48636 0.21411 0.0
C85 C 0.22469 0.5075 0.20451 0.0
C86 C 0.24523 0.52384 0.21853 0.0
C87 C 0.25163 0.51188 0.23601 0.0
N88 N 0.23654 0.4888 0.23385 0.0
Co89 Co 0.23833 0.46527 0.25707 0.0
N90 N 0.2683 0.48955 0.2782 0.0
C91 C 0.28046 0.51229 0.2738 0.0
C92 C 0.30082 0.52453 0.29075 0.0
C93 C 0.30183 0.50869 0.30696 0.0
C94 C 0.28182 0.48762 0.29904 0.0
N95 N 0.23974 0.44187 0.2809 0.0
C96 C 0.25562 0.44459 0.3021 0.0
C97 C 0.24969 0.42387 0.31369 0.0
C98 C 0.2294 0.40741 0.2992 0.0
C99 C 0.22407 0.41899 0.27976 0.0
N100 N 0.20874 0.44092 0.23531 0.0
C101 C 0.19761 0.41788 0.238 0.0
C102 C 0.17798 0.40544 0.21978 0.0
C103 C 0.17636 0.42147 0.2046 0.0
C104 C 0.19509 0.44289 0.21466 0.0
N105 N 0.25612 0.45984 0.22813 0.0
C106 C 0.28496 0.45308 0.19191 0.0
C107 C 0.26652 0.43435 0.20308 0.0
C108 C 0.25242 0.43809 0.22096 0.0
C109 C 0.288 0.47509 0.19817 0.0
C110 C 0.2734 0.478 0.21589 0.0
N111 N 0.22072 0.47069 0.28619 0.0
C112 C 0.18863 0.45614 0.31589 0.0
C113 C 0.19649 0.47836 0.32882 0.0
C114 C 0.21662 0.49666 0.31982 0.0
C115 C 0.22821 0.49252 0.29851 0.0
C116 C 0.20097 0.45271 0.29494 0.0
H117 H 0.24327 0.50726 0.29249 0.0
H118 H 0.19419 0.43535 0.28615 0.0
H119 H 0.23892 0.42315 0.2291 0.0
H120 H 0.27683 0.49522 0.21989 0.0
C121 C 0.2718 0.52182 0.25446 0.0
C122 C 0.1988 0.46459 0.20441 0.0
C123 C 0.27659 0.46631 0.31182 0.0
C124 C 0.20512 0.4087 0.25927 0.0
H125 H 0.21439 0.51089 0.18918 0.0
H126 H 0.25431 0.54228 0.21644 0.0
H127 H 0.31337 0.54282 0.29138 0.0
H128 H 0.31573 0.51229 0.32285 0.0
H129 H 0.25915 0.42094 0.33076 0.0
H130 H 0.21981 0.38913 0.30224 0.0
H131 H 0.16601 0.38696 0.21816 0.0
H132 H 0.16274 0.41786 0.18826 0.0
H133 H 0.26309 0.41687 0.19835 0.0
H134 H 0.30211 0.49028 0.19032 0.0
H135 H 0.17287 0.44139 0.32159 0.0
H136 H 0.22367 0.51419 0.32934 0.0
C137 C 0.72559 0.20559 0.70427 0.0
C138 C 0.70638 0.20564 0.69191 0.0
C139 C 0.70788 0.22581 0.70215 0.0
C140 C 0.72777 0.23678 0.72019 0.0
N141 N 0.73937 0.22512 0.72158 0.0
Co142 Co 0.76758 0.2333 0.74755 0.0
N143 N 0.76781 0.26104 0.76612 0.0
C144 C 0.75373 0.26929 0.75849 0.0
C145 C 0.75746 0.28815 0.77571 0.0
C146 C 0.77499 0.29228 0.79546 0.0
C147 C 0.78119 0.27575 0.78898 0.0
N148 N 0.79506 0.24071 0.77438 0.0
C149 C 0.80601 0.25739 0.79634 0.0
C150 C 0.82467 0.25658 0.8093 0.0
C151 C 0.82514 0.23844 0.79555 0.0
C152 C 0.80698 0.22932 0.77492 0.0
N153 N 0.76773 0.20598 0.72841 0.0
C154 C 0.78387 0.19975 0.73266 0.0
C155 C 0.77888 0.17979 0.71681 0.0
C156 C 0.7581 0.17265 0.70189 0.0
C157 C 0.75164 0.18873 0.70964 0.0
N158 N 0.78831 0.25336 0.71905 0.0
C159 C 0.81829 0.28338 0.68044 0.0
C160 C 0.82461 0.27026 0.69679 0.0
C161 C 0.80947 0.2554 0.7156 0.0
C162 C 0.79658 0.28094 0.68342 0.0
C163 C 0.78208 0.26607 0.70264 0.0
N164 N 0.74696 0.21348 0.77569 0.0
C165 C 0.73369 0.18072 0.80424 0.0
C166 C 0.71521 0.18331 0.81236 0.0
C167 C 0.7135 0.20179 0.80251 0.0
C168 C 0.72932 0.21644 0.78432 0.0
C169 C 0.74934 0.19598 0.78615 0.0
H170 H 0.72675 0.2299 0.7772 0.0
H171 H 0.76304 0.19314 0.78046 0.0
H172 H 0.81545 0.24591 0.72713 0.0
H173 H 0.76604 0.26546 0.70389 0.0
C174 C 0.73534 0.2573 0.73741 0.0
C175 C 0.72945 0.18615 0.70017 0.0
C176 C 0.7996 0.27448 0.80541 0.0
C177 C 0.80138 0.21079 0.75486 0.0
H178 H 0.69242 0.19219 0.67759 0.0
H179 H 0.69552 0.23141 0.69779 0.0
H180 H 0.74794 0.29726 0.77473 0.0
H181 H 0.78202 0.30569 0.81299 0.0
H182 H 0.83689 0.26801 0.82672 0.0
H183 H 0.83744 0.23275 0.79985 0.0
H184 H 0.78853 0.1708 0.71729 0.0
H185 H 0.74837 0.15696 0.68775 0.0
H186 H 0.84115 0.27129 0.69497 0.0
H187 H 0.79093 0.29089 0.67145 0.0
H188 H 0.7358 0.16667 0.81118 0.0
H189 H 0.69994 0.20501 0.80871 0.0
C190 C 0.52046 0.728 0.1971 0.0
C191 C 0.49828 0.70948 0.18974 0.0
C192 C 0.48387 0.71299 0.20612 0.0
C193 C 0.49799 0.73332 0.22251 0.0
N194 N 0.52059 0.74309 0.21761 0.0
Co195 Co 0.54697 0.77281 0.2367 0.0
N196 N 0.52575 0.77753 0.26134 0.0
C197 C 0.50282 0.76288 0.26262 0.0
C198 C 0.49301 0.77036 0.28226 0.0
C199 C 0.51062 0.79123 0.29397 0.0
C200 C 0.5302 0.79543 0.28043 0.0
N201 N 0.5732 0.80289 0.25529 0.0
C202 C 0.57291 0.81911 0.27359 0.0
C203 C 0.5948 0.83853 0.2791 0.0
C204 C 0.60942 0.83441 0.26399 0.0
C205 C 0.59572 0.81293 0.24988 0.0
N206 N 0.56826 0.76778 0.2125 0.0
C207 C 0.59148 0.78155 0.21281 0.0
C208 C 0.60149 0.77345 0.19424 0.0
C209 C 0.58364 0.75317 0.18141 0.0
C210 C 0.5637 0.75005 0.19301 0.0
N211 N 0.54184 0.78992 0.20672 0.0
C212 C 0.53486 0.81502 0.16511 0.0
C213 C 0.55656 0.81734 0.17086 0.0
C214 C 0.55968 0.80484 0.19173 0.0
C215 C 0.51663 0.79979 0.18023 0.0
C216 C 0.52042 0.78733 0.20063 0.0
N217 N 0.55215 0.75557 0.26661 0.0
C218 C 0.57777 0.74645 0.2937 0.0
C219 C 0.55899 0.72803 0.30469 0.0
C220 C 0.53687 0.72414 0.29725 0.0
C221 C 0.53386 0.73793 0.27827 0.0
C222 C 0.574 0.76011 0.27512 0.0
H223 H 0.51651 0.7336 0.27292 0.0
H224 H 0.589 0.77396 0.2676 0.0
H225 H 0.57673 0.80774 0.19554 0.0
H226 H 0.50581 0.77583 0.21131 0.0
C227 C 0.4907 0.74296 0.24378 0.0
C228 C 0.54087 0.73001 0.18473 0.0
C229 C 0.55224 0.81718 0.2854 0.0
C230 C 0.60328 0.8023 0.23026 0.0
H231 H 0.49307 0.69475 0.17443 0.0
H232 H 0.46537 0.7018 0.20645 0.0
H233 H 0.47507 0.76191 0.28701 0.0
H234 H 0.50907 0.80232 0.3102 0.0
H235 H 0.59973 0.85433 0.29214 0.0
H236 H 0.62775 0.846 0.26274 0.0
H237 H 0.6196 0.7814 0.1904 0.0
H238 H 0.58513 0.74195 0.16529 0.0
H239 H 0.57122 0.82921 0.15981 0.0
H240 H 0.49948 0.7974 0.17623 0.0
H241 H 0.59527 0.75025 0.29931 0.0
H242 H 0.5218 0.70994 0.30522 0.0
C243 C 0.76512 0.58712 0.73521 0.0
C244 C 0.76832 0.60882 0.73079 0.0
C245 C 0.78867 0.62459 0.74582 0.0
C246 C 0.79675 0.61169 0.75837 0.0
N247 N 0.78285 0.5886 0.75222 0.0
Co248 Co 0.78824 0.56357 0.76564 0.0
N249 N 0.81728 0.58672 0.78948 0.0
C250 C 0.82622 0.60989 0.79305 0.0
C251 C 0.84622 0.62125 0.81084 0.0
C252 C 0.85037 0.60434 0.81913 0.0
C253 C 0.83262 0.58359 0.80575 0.0
N254 N 0.79402 0.53858 0.77826 0.0
C255 C 0.8119 0.5401 0.79492 0.0
C256 C 0.80979 0.51855 0.79718 0.0
C257 C 0.78989 0.50283 0.78138 0.0
C258 C 0.78106 0.51562 0.77031 0.0
N259 N 0.75877 0.54033 0.74262 0.0
C260 C 0.74909 0.51702 0.74049 0.0
C261 C 0.72819 0.50548 0.72454 0.0
C262 C 0.72411 0.52237 0.71613 0.0
C263 C 0.74296 0.54337 0.72731 0.0
N264 N 0.80637 0.56636 0.73238 0.0
C265 C 0.83665 0.5686 0.69157 0.0
C266 C 0.81623 0.54793 0.69453 0.0
C267 C 0.80143 0.54722 0.71482 0.0
C268 C 0.84066 0.58856 0.70766 0.0
C269 C 0.82528 0.58709 0.72762 0.0
N270 N 0.77023 0.56074 0.79902 0.0
C271 C 0.74159 0.53689 0.83036 0.0
C272 C 0.74227 0.55628 0.84386 0.0
C273 C 0.75777 0.57803 0.83527 0.0
C274 C 0.7716 0.57986 0.81309 0.0
C275 C 0.7556 0.53949 0.80818 0.0
H276 H 0.78299 0.59689 0.80743 0.0
H277 H 0.75392 0.52399 0.79844 0.0
H278 H 0.78648 0.53081 0.71647 0.0
H279 H 0.82949 0.6028 0.73961 0.0
C280 C 0.81633 0.62061 0.77777 0.0
C281 C 0.74482 0.56565 0.72311 0.0
C282 C 0.83132 0.56146 0.8088 0.0
C283 C 0.76028 0.5065 0.75323 0.0
H284 H 0.75698 0.61282 0.71828 0.0
H285 H 0.79638 0.64322 0.74786 0.0
H286 H 0.85679 0.63968 0.81661 0.0
H287 H 0.86497 0.607 0.83312 0.0
H288 H 0.82149 0.5146 0.80896 0.0
H289 H 0.78268 0.48429 0.77836 0.0
H290 H 0.71718 0.48698 0.71971 0.0
H291 H 0.70887 0.51949 0.70336 0.0
H292 H 0.81196 0.53215 0.68179 0.0
H293 H 0.85613 0.60506 0.70592 0.0
H294 H 0.72967 0.51965 0.83611 0.0
H295 H 0.75907 0.59357 0.84542 0.0
C296 C 0.23834 0.81165 0.30809 0.0
C297 C 0.2342 0.82854 0.31988 0.0
C298 C 0.22135 0.83208 0.29925 0.0
C299 C 0.21818 0.81709 0.27613 0.0
N300 N 0.22798 0.80414 0.28116 0.0
Co301 Co 0.22737 0.78036 0.25376 0.0
N302 N 0.20126 0.77836 0.2298 0.0
C303 C 0.19458 0.7942 0.22953 0.0
C304 C 0.17507 0.78707 0.21131 0.0
C305 C 0.16922 0.7654 0.19961 0.0
C306 C 0.1856 0.76063 0.21138 0.0
N307 N 0.22662 0.75662 0.22628 0.0
C308 C 0.20873 0.7407 0.20832 0.0
C309 C 0.21478 0.72654 0.19308 0.0
C310 C 0.23745 0.73404 0.20217 0.0
C311 C 0.24386 0.7523 0.22233 0.0
N312 N 0.25364 0.78232 0.27737 0.0
C313 C 0.26814 0.77527 0.26851 0.0
C314 C 0.28536 0.77966 0.28917 0.0
C315 C 0.28163 0.79038 0.31226 0.0
C316 C 0.26221 0.79194 0.30441 0.0
N317 N 0.20547 0.75586 0.27589 0.0
C318 C 0.17155 0.71833 0.30201 0.0
C319 C 0.19119 0.71826 0.29327 0.0
C320 C 0.20805 0.73728 0.28059 0.0
C321 C 0.16958 0.73789 0.29821 0.0
C322 C 0.18665 0.7564 0.28498 0.0
N323 N 0.24924 0.80473 0.23135 0.0
C324 C 0.26271 0.81838 0.18564 0.0
C325 C 0.28194 0.83854 0.19908 0.0
C326 C 0.28396 0.84149 0.22915 0.0
C327 C 0.26769 0.82436 0.24479 0.0
C328 C 0.24649 0.80194 0.20207 0.0
H329 H 0.27022 0.82699 0.26782 0.0
H330 H 0.23191 0.7867 0.19103 0.0
H331 H 0.22293 0.73668 0.27393 0.0
H332 H 0.18431 0.77089 0.28144 0.0
C333 C 0.20347 0.81235 0.25126 0.0
C334 C 0.25429 0.80516 0.32171 0.0
C335 C 0.18638 0.73949 0.20484 0.0
C336 C 0.26328 0.76202 0.24225 0.0
H337 H 0.24022 0.8377 0.34099 0.0
H338 H 0.21463 0.84374 0.30118 0.0
H339 H 0.16534 0.79582 0.20834 0.0
H340 H 0.15442 0.75429 0.18466 0.0
H341 H 0.2039 0.71224 0.17734 0.0
H342 H 0.24752 0.72622 0.19604 0.0
H343 H 0.29879 0.77525 0.28784 0.0
H344 H 0.29239 0.79684 0.3323 0.0
H345 H 0.19353 0.70361 0.29624 0.0
H346 H 0.15463 0.73861 0.30463 0.0
H347 H 0.26031 0.81489 0.16257 0.0
H348 H 0.29801 0.8569 0.24079 0.0
C349 C 0.42735 0.24555 0.76466 0.0
C350 C 0.40594 0.24367 0.76722 0.0
C351 C 0.39063 0.22601 0.7479 0.0
C352 C 0.40351 0.21816 0.73471 0.0
N353 N 0.42606 0.22945 0.74476 0.0
Co354 Co 0.45122 0.22482 0.73002 0.0
N355 N 0.42892 0.19963 0.70056 0.0
C356 C 0.40577 0.19078 0.69693 0.0
C357 C 0.39482 0.17289 0.67591 0.0
C358 C 0.41194 0.16987 0.66574 0.0
C359 C 0.43242 0.18617 0.68124 0.0
N360 N 0.47664 0.2211 0.71434 0.0
C361 C 0.47578 0.20626 0.69292 0.0
C362 C 0.49759 0.20949 0.68899 0.0
C363 C 0.51274 0.22699 0.70857 0.0
C364 C 0.49942 0.23342 0.72332 0.0
N365 N 0.47332 0.24921 0.76039 0.0
C366 C 0.49603 0.25643 0.7659 0.0
C367 C 0.50681 0.27349 0.7879 0.0
C368 C 0.49004 0.27758 0.7969 0.0
C369 C 0.46989 0.26269 0.77977 0.0
N370 N 0.44518 0.20073 0.75673 0.0
C371 C 0.43616 0.16191 0.78579 0.0
C372 C 0.45877 0.17863 0.78179 0.0
C373 C 0.4629 0.19799 0.76772 0.0
C374 C 0.41818 0.16551 0.77693 0.0
C375 C 0.42306 0.18501 0.76252 0.0
N376 N 0.45723 0.24861 0.70298 0.0
C377 C 0.48359 0.28431 0.68339 0.0
C378 C 0.4662 0.28147 0.66323 0.0
C379 C 0.44419 0.26215 0.6634 0.0
C380 C 0.44003 0.24617 0.68356 0.0
C381 C 0.47882 0.2677 0.70281 0.0
H382 H 0.42278 0.232 0.68298 0.0
H383 H 0.49292 0.27065 0.71733 0.0
H384 H 0.48053 0.2101 0.76525 0.0
H385 H 0.4086 0.18659 0.75554 0.0
C386 C 0.39496 0.2002 0.71293 0.0
C387 C 0.4484 0.26306 0.78143 0.0
C388 C 0.45467 0.18804 0.67692 0.0
C389 C 0.50737 0.24908 0.74765 0.0
H390 H 0.40187 0.25414 0.78144 0.0
H391 H 0.37233 0.21978 0.74375 0.0
H392 H 0.37657 0.16322 0.6688 0.0
H393 H 0.40963 0.15709 0.64887 0.0
H394 H 0.50207 0.1998 0.67408 0.0
H395 H 0.53115 0.23365 0.71231 0.0
H396 H 0.52494 0.28263 0.7956 0.0
H397 H 0.49261 0.29064 0.81352 0.0
H398 H 0.47316 0.17651 0.78899 0.0
H399 H 0.40043 0.15295 0.78013 0.0
H400 H 0.50093 0.2991 0.68388 0.0
H401 H 0.43015 0.25956 0.64834 0.0
H402 H 0.02366 0.46823 0.08856 0.0
H403 H 0.05301 0.46335 0.11478 0.0
H404 H 0.09652 0.48755 0.04487 0.0
H405 H 0.067 0.49229 0.01817 0.0
H406 H 0.09653 0.4503 0.06719 0.0
H407 H 0.10861 0.52435 0.10378 0.0
H408 H 0.09742 0.5515 0.12443 0.0
H409 H 0.07392 0.5117 0.19705 0.0
H410 H 0.0851 0.48432 0.17692 0.0
H411 H 0.20023 0.47367 0.14823 0.0
H412 H 0.17057 0.47563 0.11764 0.0
H413 H 0.12641 0.45698 0.18735 0.0
H414 H 0.15641 0.45578 0.21807 0.0
H415 H 0.12743 0.49202 0.16373 0.0
H416 H 0.11635 0.41849 0.12828 0.0
H417 H 0.12801 0.3915 0.1083 0.0
H418 H 0.14887 0.42933 0.03368 0.0
H419 H 0.13765 0.45677 0.05341 0.0
C420 C 0.03938 0.47239 0.07859 0.0
C421 C 0.04302 0.4808 0.0513 0.0
C422 C 0.0562 0.46967 0.0937 0.0
C423 C 0.07711 0.47545 0.08199 0.0
C424 C 0.08053 0.48308 0.05435 0.0
C425 C 0.06365 0.48579 0.03914 0.0
C426 C 0.09553 0.474 0.09903 0.0
C427 C 0.10356 0.45966 0.08813 0.0
C428 C 0.10431 0.48581 0.12661 0.0
C429 C 0.09749 0.50218 0.13872 0.0
C430 C 0.10091 0.5213 0.12406 0.0
C431 C 0.09459 0.53675 0.13568 0.0
C432 C 0.0848 0.53326 0.16191 0.0
C433 C 0.08145 0.51437 0.1767 0.0
C434 C 0.08786 0.49892 0.16525 0.0
C435 C 0.18411 0.46994 0.15682 0.0
C436 C 0.18048 0.46468 0.18537 0.0
C437 C 0.16715 0.4709 0.13937 0.0
C438 C 0.14614 0.46624 0.1501 0.0
C439 C 0.14246 0.46066 0.17859 0.0
C440 C 0.15949 0.45989 0.19608 0.0
C441 C 0.12835 0.46809 0.13211 0.0
C442 C 0.12046 0.48261 0.1428 0.0
C443 C 0.11968 0.45635 0.10442 0.0
C444 C 0.12637 0.43982 0.09246 0.0
C445 C 0.1236 0.42117 0.10771 0.0
C446 C 0.1301 0.40577 0.09642 0.0
C447 C 0.13923 0.40873 0.06977 0.0
C448 C 0.14183 0.42707 0.05433 0.0
C449 C 0.13538 0.44255 0.06556 0.0
H450 H 0.14426 0.39679 0.06106 0.0
H451 H 0.0799 0.54524 0.17082 0.0
H452 H 0.57324 0.03226 0.53131 0.0
H453 H 0.60815 0.05849 0.56193 0.0
H454 H 0.57623 0.02258 0.63537 0.0
H455 H 0.54093 0.99611 0.60465 0.0
H456 H 0.59437 0.06945 0.64423 0.0
H457 H 0.62088 0.01914 0.61194 0.0
H458 H 0.62815 0.99534 0.57689 0.0
H459 H 0.6728 0.05589 0.53523 0.0
H460 H 0.66553 0.08004 0.56977 0.0
H461 H 0.69935 0.1496 0.72761 0.0
H462 H 0.66715 0.11241 0.70589 0.0
H463 H 0.68546 0.13527 0.62166 0.0
H464 H 0.71771 0.1723 0.64349 0.0
H465 H 0.6743 0.09015 0.62462 0.0
H466 H 0.64355 0.13909 0.65228 0.0
H467 H 0.63626 0.1634 0.68646 0.0
H468 H 0.59886 0.10538 0.73569 0.0
H469 H 0.60642 0.08081 0.70214 0.0
C470 C 0.57372 0.02966 0.55389 0.0
C471 C 0.55429 0.01216 0.56559 0.0
C472 C 0.59376 0.04461 0.57136 0.0
C473 C 0.59484 0.0424 0.6009 0.0
C474 C 0.57575 0.0245 0.61258 0.0
C475 C 0.55567 0.00935 0.59501 0.0
C476 C 0.61522 0.06012 0.61954 0.0
C477 C 0.61184 0.07361 0.64048 0.0
C478 C 0.638 0.06582 0.61417 0.0
C479 C 0.64255 0.05139 0.59339 0.0
C480 C 0.63212 0.02737 0.59519 0.0
C481 C 0.63626 0.01382 0.57542 0.0
C482 C 0.6509 0.02409 0.55382 0.0
C483 C 0.66146 0.04796 0.55198 0.0
C484 C 0.65737 0.06159 0.57168 0.0
C485 C 0.69643 0.14646 0.70447 0.0
C486 C 0.71062 0.16356 0.68702 0.0
C487 C 0.67815 0.12534 0.69212 0.0
C488 C 0.67385 0.12118 0.66217 0.0
C489 C 0.68853 0.13813 0.64479 0.0
C490 C 0.70678 0.15923 0.65716 0.0
C491 C 0.6534 0.09971 0.64878 0.0
C492 C 0.6568 0.08562 0.6288 0.0
C493 C 0.63063 0.0935 0.65494 0.0
C494 C 0.62586 0.1082 0.67494 0.0
C495 C 0.63398 0.13156 0.67056 0.0
C496 C 0.62979 0.14539 0.68981 0.0
C497 C 0.61721 0.13596 0.71333 0.0
C498 C 0.60872 0.11267 0.71757 0.0
C499 C 0.61297 0.0988 0.69845 0.0
H500 H 0.61395 0.14668 0.7282 0.0
H501 H 0.65408 0.01357 0.53854 0.0
H502 H 0.54117 0.55974 0.05379 0.0
H503 H 0.54879 0.59598 0.0787 0.0
H504 H 0.5041 0.60188 0.01469 0.0
H505 H 0.49646 0.5655 0.98922 0.0
H506 H 0.5483 0.64679 0.04015 0.0
H507 H 0.47616 0.58112 0.06712 0.0
H508 H 0.45618 0.53975 0.07587 0.0
H509 H 0.50776 0.55405 0.1442 0.0
H510 H 0.52785 0.59557 0.13604 0.0
H511 H 0.52383 0.72032 0.12878 0.0
H512 H 0.51979 0.68898 0.09507 0.0
H513 H 0.54878 0.66626 0.16145 0.0
H514 H 0.55249 0.69745 0.19516 0.0
H515 H 0.51157 0.62991 0.13221 0.0
H516 H 0.58102 0.69701 0.10942 0.0
H517 H 0.60473 0.73705 0.09648 0.0
H518 H 0.56186 0.72013 0.01781 0.0
H519 H 0.53763 0.68006 0.03052 0.0
C520 C 0.53328 0.56891 0.04461 0.0
C521 C 0.51793 0.55955 0.01974 0.0
C522 C 0.53778 0.5897 0.05881 0.0
C523 C 0.52689 0.60147 0.04859 0.0
C524 C 0.51275 0.59307 0.02277 0.0
C525 C 0.50832 0.57223 0.00837 0.0
C526 C 0.5276 0.62031 0.06729 0.0
C527 C 0.53998 0.64319 0.06004 0.0
C528 C 0.51708 0.61551 0.09339 0.0
C529 C 0.50339 0.59137 0.10109 0.0
C530 C 0.48299 0.57545 0.08431 0.0
C531 C 0.47173 0.55199 0.08906 0.0
C532 C 0.48079 0.54427 0.11043 0.0
C533 C 0.50079 0.56008 0.12762 0.0
C534 C 0.512 0.5836 0.12313 0.0
C535 C 0.52929 0.70856 0.13599 0.0
C536 C 0.5385 0.71114 0.16432 0.0
C537 C 0.52706 0.69076 0.11682 0.0
C538 C 0.53417 0.67538 0.12567 0.0
C539 C 0.54317 0.67789 0.15416 0.0
C540 C 0.54538 0.69569 0.17332 0.0
C541 C 0.53236 0.65676 0.10524 0.0
C542 C 0.51972 0.63373 0.11221 0.0
C543 C 0.54271 0.66156 0.07887 0.0
C544 C 0.55736 0.68559 0.07106 0.0
C545 C 0.57653 0.70187 0.08946 0.0
C546 C 0.59008 0.72457 0.08216 0.0
C547 C 0.58477 0.73114 0.05637 0.0
C548 C 0.56593 0.71502 0.0378 0.0
C549 C 0.55229 0.69231 0.04504 0.0
H550 H 0.59529 0.74872 0.05075 0.0
H551 H 0.47227 0.52604 0.11372 0.0
H552 H 0.00924 0.56862 0.575 0.0
H553 H 0.98669 0.58289 0.59932 0.0
H554 H 0.92461 0.53048 0.54982 0.0
H555 H 0.9471 0.51695 0.52469 0.0
H556 H 0.92209 0.56745 0.55659 0.0
H557 H 0.94239 0.52361 0.61962 0.0
H558 H 0.96955 0.51546 0.64687 0.0
H559 H 0.0006 0.58241 0.69338 0.0
H560 H 0.97374 0.59103 0.66615 0.0
H561 H 0.85 0.53647 0.68705 0.0
H562 H 0.87966 0.53681 0.65881 0.0
H563 H 0.89424 0.60215 0.62853 0.0
H564 H 0.86379 0.60153 0.65615 0.0
H565 H 0.92483 0.56599 0.66233 0.0
H566 H 0.91173 0.60289 0.55942 0.0
H567 H 0.88096 0.6054 0.53156 0.0
H568 H 0.82937 0.54304 0.56419 0.0
H569 H 0.85983 0.54002 0.59191 0.0
C570 C 0.99083 0.56037 0.56912 0.0
C571 C 0.97988 0.54154 0.54817 0.0
C572 C 0.97796 0.5685 0.58304 0.0
C573 C 0.95388 0.55751 0.57675 0.0
C574 C 0.94316 0.53931 0.55501 0.0
C575 C 0.95604 0.53149 0.54075 0.0
C576 C 0.93936 0.56349 0.59403 0.0
C577 C 0.92287 0.56741 0.57975 0.0
C578 C 0.94022 0.56327 0.62423 0.0
C579 C 0.95627 0.55806 0.64064 0.0
C580 C 0.95511 0.53663 0.63554 0.0
C581 C 0.97043 0.53192 0.65099 0.0
C582 C 0.98684 0.54843 0.67178 0.0
C583 C 0.98791 0.56966 0.67722 0.0
C584 C 0.97265 0.57446 0.66181 0.0
C585 C 0.8592 0.55074 0.67402 0.0
C586 C 0.85436 0.56885 0.67359 0.0
C587 C 0.87638 0.55106 0.65819 0.0
C588 C 0.88914 0.56949 0.64159 0.0
C589 C 0.88447 0.5877 0.64109 0.0
C590 C 0.86718 0.58737 0.65697 0.0
C591 C 0.90714 0.56921 0.6248 0.0
C592 C 0.92439 0.56656 0.63923 0.0
C593 C 0.90649 0.56986 0.59469 0.0
C594 C 0.88804 0.57145 0.57804 0.0
C595 C 0.89382 0.58972 0.56061 0.0
C596 C 0.87643 0.59122 0.54484 0.0
C597 C 0.85322 0.57445 0.54621 0.0
C598 C 0.84734 0.55608 0.56326 0.0
C599 C 0.86466 0.55449 0.57904 0.0
H600 H 0.83979 0.57564 0.53399 0.0
H601 H 0.99869 0.54476 0.68371 0.0
H602 H 0.41387 0.954 0.00775 0.0
H603 H 0.38367 0.93178 0.03937 0.0
H604 H 0.43025 0.97215 0.11311 0.0
H605 H 0.46041 0.99493 0.08156 0.0
H606 H 0.40695 0.91987 0.11074 0.0
H607 H 0.39121 0.98242 0.10231 0.0
H608 H 0.38295 0.00845 0.07526 0.0
H609 H 0.32124 0.94999 0.03394 0.0
H610 H 0.32932 0.92358 0.06045 0.0
H611 H 0.32866 0.86705 0.21438 0.0
H612 H 0.35783 0.89525 0.18662 0.0
H613 H 0.30638 0.87676 0.11594 0.0
H614 H 0.27653 0.85021 0.14467 0.0
H615 H 0.33318 0.91964 0.11733 0.0
H616 H 0.3475 0.85675 0.12034 0.0
H617 H 0.35477 0.82805 0.14225 0.0
H618 H 0.41739 0.88277 0.18709 0.0
H619 H 0.41033 0.91182 0.16573 0.0
C620 C 0.41757 0.95838 0.03068 0.0
C621 C 0.43949 0.97622 0.04219 0.0
C622 C 0.40031 0.94569 0.04868 0.0
C623 C 0.40478 0.95035 0.07852 0.0
C624 C 0.4265 0.96836 0.0901 0.0
C625 C 0.44364 0.98141 0.07207 0.0
C626 C 0.38714 0.93549 0.09753 0.0
C627 C 0.39096 0.92004 0.11266 0.0
C628 C 0.36596 0.93514 0.09895 0.0
C629 C 0.361 0.95102 0.08317 0.0
C630 C 0.37599 0.9751 0.08727 0.0
C631 C 0.37132 0.98993 0.07207 0.0
C632 C 0.35162 0.98088 0.05284 0.0
C633 C 0.33651 0.95698 0.04882 0.0
C634 C 0.34112 0.94208 0.06395 0.0
C635 C 0.32326 0.86923 0.19322 0.0
C636 C 0.29997 0.85603 0.18196 0.0
C637 C 0.3402 0.88517 0.17705 0.0
C638 C 0.33456 0.88781 0.14878 0.0
C639 C 0.31133 0.875 0.1376 0.0
C640 C 0.29424 0.85947 0.15402 0.0
C641 C 0.35285 0.90379 0.13085 0.0
C642 C 0.34917 0.91943 0.11573 0.0
C643 C 0.37395 0.90387 0.12878 0.0
C644 C 0.37826 0.88645 0.14167 0.0
C645 C 0.36273 0.86266 0.13503 0.0
C646 C 0.36683 0.84633 0.14733 0.0
C647 C 0.3865 0.85358 0.16612 0.0
C648 C 0.40214 0.87718 0.17258 0.0
C649 C 0.39811 0.89358 0.16037 0.0
H650 H 0.38964 0.84091 0.17561 0.0
H651 H 0.34803 0.99238 0.04109 0.0
H652 H 0.4956 0.4559 0.55412 0.0
H653 H 0.48906 0.42035 0.57367 0.0
H654 H 0.50065 0.39643 0.49252 0.0
H655 H 0.50779 0.4325 0.47258 0.0
H656 H 0.45684 0.36415 0.5308 0.0
H657 H 0.54053 0.40855 0.52689 0.0
H658 H 0.57818 0.44486 0.53375 0.0
H659 H 0.56935 0.45123 0.62319 0.0
H660 H 0.53145 0.41513 0.61675 0.0
H661 H 0.4571 0.27384 0.60519 0.0
H662 H 0.46524 0.30276 0.57069 0.0
H663 H 0.49333 0.35669 0.64027 0.0
H664 H 0.48609 0.32795 0.67449 0.0
H665 H 0.5194 0.3712 0.59912 0.0
H666 H 0.43701 0.33299 0.60567 0.0
H667 H 0.39719 0.29976 0.60297 0.0
H668 H 0.40081 0.28447 0.51398 0.0
H669 H 0.44079 0.31747 0.51626 0.0
C670 C 0.49655 0.44305 0.5402 0.0
C671 C 0.50233 0.44706 0.5118 0.0
C672 C 0.49282 0.42278 0.55147 0.0
C673 C 0.49452 0.406 0.53451 0.0
C674 C 0.49933 0.40934 0.50581 0.0
C675 C 0.50342 0.42989 0.49454 0.0
C676 C 0.49226 0.38563 0.54784 0.0
C677 C 0.47064 0.36529 0.54514 0.0
C678 C 0.5101 0.38773 0.56724 0.0
C679 C 0.53307 0.40923 0.57127 0.0
C680 C 0.54652 0.41779 0.54796 0.0
C681 C 0.56793 0.43832 0.55179 0.0
C682 C 0.57614 0.45037 0.57888 0.0
C683 C 0.56297 0.44188 0.60222 0.0
C684 C 0.54154 0.42138 0.59849 0.0
C685 C 0.46501 0.29191 0.61297 0.0
C686 C 0.47095 0.29877 0.64238 0.0
C687 C 0.46961 0.30838 0.59332 0.0
C688 C 0.47966 0.33189 0.6029 0.0
C689 C 0.48568 0.33869 0.63233 0.0
C690 C 0.48149 0.3223 0.65188 0.0
C691 C 0.48373 0.34954 0.58255 0.0
C692 C 0.50569 0.36955 0.58414 0.0
C693 C 0.46598 0.34732 0.56264 0.0
C694 C 0.44198 0.32749 0.56123 0.0
C695 C 0.42937 0.32242 0.58559 0.0
C696 C 0.40677 0.30365 0.58413 0.0
C697 C 0.3965 0.28996 0.55835 0.0
C698 C 0.40881 0.29506 0.53395 0.0
C699 C 0.43143 0.31379 0.53532 0.0
H700 H 0.379 0.27544 0.55725 0.0
H701 H 0.59271 0.46627 0.5818 0.0
H702 H 0.49314 0.92563 0.45652 0.0
H703 H 0.50359 0.90293 0.42489 0.0
H704 H 0.55875 0.96586 0.39645 0.0
H705 H 0.54717 0.98858 0.42682 0.0
H706 H 0.54231 0.93695 0.35365 0.0
H707 H 0.56798 0.93222 0.44733 0.0
H708 H 0.56593 0.92605 0.49877 0.0
H709 H 0.5132 0.85499 0.47842 0.0
H710 H 0.51471 0.8608 0.42686 0.0
H711 H 0.57729 0.83964 0.33629 0.0
H712 H 0.57666 0.87086 0.36495 0.0
H713 H 0.52594 0.86853 0.30228 0.0
H714 H 0.52837 0.83897 0.27253 0.0
H715 H 0.54722 0.87187 0.39233 0.0
H716 H 0.52277 0.91617 0.30358 0.0
H717 H 0.53186 0.92643 0.25419 0.0
H718 H 0.59561 0.92638 0.26806 0.0
H719 H 0.58709 0.91644 0.31765 0.0
C720 C 0.50747 0.93461 0.44347 0.0
C721 C 0.5195 0.95885 0.4443 0.0
C722 C 0.51357 0.92163 0.42551 0.0
C723 C 0.53245 0.93261 0.40879 0.0
C724 C 0.54421 0.95689 0.40919 0.0
C725 C 0.53764 0.96989 0.42659 0.0
C726 C 0.53977 0.91864 0.39104 0.0
C727 C 0.54351 0.9228 0.36215 0.0
C728 C 0.54226 0.90067 0.40223 0.0
C729 C 0.54136 0.897 0.43323 0.0
C730 C 0.55586 0.91531 0.45383 0.0
C731 C 0.55479 0.91187 0.48301 0.0
C732 C 0.53941 0.89015 0.49185 0.0
C733 C 0.5251 0.87181 0.47153 0.0
C734 C 0.52607 0.87515 0.44232 0.0
C735 C 0.56661 0.8464 0.32832 0.0
C736 C 0.55316 0.83722 0.30205 0.0
C737 C 0.56601 0.86405 0.34483 0.0
C738 C 0.55146 0.87245 0.33578 0.0
C739 C 0.53792 0.86308 0.3095 0.0
C740 C 0.53909 0.84598 0.29259 0.0
C741 C 0.54921 0.88975 0.35464 0.0
C742 C 0.54635 0.88619 0.38379 0.0
C743 C 0.54871 0.90896 0.34399 0.0
C744 C 0.55417 0.91537 0.31431 0.0
C745 C 0.53879 0.91848 0.29617 0.0
C746 C 0.54383 0.92421 0.26811 0.0
C747 C 0.56426 0.92699 0.25797 0.0
C748 C 0.57975 0.92414 0.27591 0.0
C749 C 0.57481 0.91844 0.30399 0.0
H750 H 0.56811 0.93138 0.23624 0.0
H751 H 0.53861 0.88753 0.51445 0.0
H752 H 0.57574 0.48847 0.01159 0.0
H753 H 0.61199 0.49886 0.99013 0.0
H754 H 0.59938 0.54057 0.93289 0.0
H755 H 0.56306 0.5298 0.95356 0.0
H756 H 0.61058 0.51392 0.90412 0.0
H757 H 0.64086 0.5644 0.99126 0.0
H758 H 0.6467 0.57409 0.04356 0.0
H759 H 0.67692 0.53122 0.0534 0.0
H760 H 0.67097 0.52104 0.00116 0.0
H761 H 0.71682 0.57756 0.8471 0.0
H762 H 0.68579 0.5694 0.87807 0.0
H763 H 0.69852 0.52016 0.91901 0.0
H764 H 0.72992 0.52847 0.88825 0.0
H765 H 0.68797 0.54835 0.9573 0.0
H766 H 0.65826 0.49914 0.86907 0.0
H767 H 0.65339 0.49121 0.81651 0.0
H768 H 0.62235 0.53352 0.80886 0.0
H769 H 0.62738 0.54201 0.86138 0.0
C770 C 0.58084 0.5 0.99459 0.0
C771 C 0.56652 0.50822 0.98414 0.0
C772 C 0.60157 0.50599 0.98243 0.0
C773 C 0.60844 0.52058 0.95999 0.0
C774 C 0.59437 0.52919 0.95007 0.0
C775 C 0.57362 0.52303 0.96193 0.0
C776 C 0.62964 0.52613 0.94568 0.0
C777 C 0.62751 0.52169 0.91579 0.0
C778 C 0.65165 0.53566 0.96095 0.0
C779 C 0.65522 0.54175 0.99234 0.0
C780 C 0.64856 0.55688 0.0046 0.0
C781 C 0.65193 0.5625 0.03423 0.0
C782 C 0.66211 0.55322 0.0518 0.0
C783 C 0.669 0.53836 0.03977 0.0
C784 C 0.66565 0.53267 0.01015 0.0
C785 C 0.71342 0.56543 0.86317 0.0
C786 C 0.72567 0.55353 0.86516 0.0
C787 C 0.69563 0.5607 0.88072 0.0
C788 C 0.68979 0.54402 0.90053 0.0
C789 C 0.70281 0.53306 0.90377 0.0
C790 C 0.72056 0.53769 0.88608 0.0
C791 C 0.6688 0.53663 0.91589 0.0
C792 C 0.67097 0.54054 0.94583 0.0
C793 C 0.64677 0.52675 0.90071 0.0
C794 C 0.64339 0.52137 0.86914 0.0
C795 C 0.65055 0.50689 0.85617 0.0
C796 C 0.64774 0.50228 0.82638 0.0
C797 C 0.63762 0.5119 0.80935 0.0
C798 C 0.63021 0.5261 0.82208 0.0
C799 C 0.63302 0.5308 0.85186 0.0
H800 H 0.63547 0.50832 0.78629 0.0
H801 H 0.66471 0.55759 0.07473 0.0
H802 H 0.04086 0.577 0.4698 0.0
H803 H 0.06359 0.6069 0.43829 0.0
H804 H 0.03833 0.55539 0.36636 0.0
H805 H 0.01497 0.52527 0.39781 0.0
H806 H 0.08951 0.58663 0.37678 0.0
H807 H 0.01916 0.58869 0.36381 0.0
H808 H 0.98562 0.59063 0.37982 0.0
H809 H 0.03119 0.65685 0.42544 0.0
H810 H 0.06503 0.65515 0.41006 0.0
H811 H 0.1503 0.67286 0.28158 0.0
H812 H 0.12025 0.63933 0.30296 0.0
H813 H 0.12167 0.6845 0.37298 0.0
H814 H 0.15112 0.71807 0.35109 0.0
H815 H 0.07934 0.65345 0.35872 0.0
H816 H 0.14905 0.65099 0.37757 0.0
H817 H 0.18392 0.64973 0.36597 0.0
H818 H 0.14172 0.58551 0.31454 0.0
H819 H 0.1066 0.58657 0.32551 0.0
C820 C 0.03988 0.57205 0.44719 0.0
C821 C 0.02608 0.54881 0.43623 0.0
C822 C 0.05286 0.58916 0.42924 0.0
C823 C 0.0526 0.58334 0.40003 0.0
C824 C 0.03867 0.5602 0.38885 0.0
C825 C 0.02525 0.54307 0.40677 0.0
C826 C 0.06781 0.60149 0.38177 0.0
C827 C 0.08708 0.60102 0.37222 0.0
C828 C 0.06495 0.62057 0.37676 0.0
C829 C 0.04464 0.6217 0.38596 0.0
C830 C 0.02204 0.60358 0.37746 0.0
C831 C 0.00297 0.60465 0.38638 0.0
C832 C 0.00628 0.62383 0.40369 0.0
C833 C 0.02866 0.642 0.41205 0.0
C834 C 0.04779 0.641 0.40321 0.0
C835 C 0.1442 0.67557 0.30158 0.0
C836 C 0.15316 0.69803 0.31482 0.0
C837 C 0.12706 0.6564 0.31383 0.0
C838 C 0.11889 0.65925 0.33992 0.0
C839 C 0.12762 0.68177 0.35288 0.0
C840 C 0.14448 0.70096 0.3404 0.0
C841 C 0.10143 0.6389 0.35391 0.0
C842 C 0.08172 0.63895 0.36281 0.0
C843 C 0.10413 0.61962 0.3588 0.0
C844 C 0.12523 0.61902 0.35205 0.0
C845 C 0.14722 0.63671 0.36357 0.0
C846 C 0.16703 0.63602 0.35715 0.0
C847 C 0.16504 0.6176 0.33944 0.0
C848 C 0.14324 0.5998 0.32819 0.0
C849 C 0.12338 0.60044 0.3345 0.0
H850 H 0.18039 0.61708 0.33452 0.0
H851 H 0.99149 0.62463 0.41057 0.0
H852 H 0.44829 0.03172 0.9551 0.0
H853 H 0.43551 0.05165 0.92337 0.0
H854 H 0.4396 0.01286 0.84991 0.0
H855 H 0.45222 0.99255 0.88169 0.0
H856 H 0.46553 0.06118 0.84862 0.0
H857 H 0.38839 0.00345 0.86326 0.0
H858 H 0.35623 0.97848 0.89144 0.0
H859 H 0.36003 0.03844 0.93471 0.0
H860 H 0.39245 0.06381 0.90709 0.0
H861 H 0.43813 0.12644 0.75902 0.0
H862 H 0.43461 0.09218 0.78005 0.0
H863 H 0.42166 0.1155 0.8609 0.0
H864 H 0.42428 0.14933 0.83937 0.0
H865 H 0.39638 0.06983 0.8527 0.0
H866 H 0.47618 0.12704 0.84625 0.0
H867 H 0.51038 0.1538 0.82216 0.0
H868 H 0.5038 0.09683 0.76808 0.0
H869 H 0.46929 0.06975 0.79155 0.0
C870 C 0.44606 0.02711 0.93222 0.0
C871 C 0.45139 0.01071 0.92082 0.0
C872 C 0.43861 0.0384 0.91414 0.0
C873 C 0.43653 0.03363 0.88435 0.0
C874 C 0.441 0.01665 0.8729 0.0
C875 C 0.44815 0.00506 0.89104 0.0
C876 C 0.43232 0.04836 0.86541 0.0
C877 C 0.45014 0.06266 0.84887 0.0
C878 C 0.41258 0.05075 0.86663 0.0
C879 C 0.39297 0.03555 0.8832 0.0
C880 C 0.38249 0.01133 0.87894 0.0
C881 C 0.36419 0.9971 0.89479 0.0
C882 C 0.35611 0.00687 0.91489 0.0
C883 C 0.3663 0.0309 0.91913 0.0
C884 C 0.38462 0.04521 0.90335 0.0
C885 C 0.43413 0.12392 0.78113 0.0
C886 C 0.43156 0.14032 0.79778 0.0
C887 C 0.43221 0.10447 0.79314 0.0
C888 C 0.4283 0.10151 0.82219 0.0
C889 C 0.42469 0.11745 0.83846 0.0
C890 C 0.42626 0.13675 0.82628 0.0
C891 C 0.42974 0.08287 0.83619 0.0
C892 C 0.41152 0.06798 0.85191 0.0
C893 C 0.44934 0.08017 0.83468 0.0
C894 C 0.47 0.09641 0.82042 0.0
C895 C 0.4819 0.12025 0.82904 0.0
C896 C 0.50135 0.13546 0.81552 0.0
C897 C 0.50922 0.12702 0.79356 0.0
C898 C 0.49764 0.10334 0.78505 0.0
C899 C 0.47814 0.08805 0.79845 0.0
H900 H 0.52434 0.13883 0.78322 0.0
H901 H 0.34194 0.99582 0.92714 0.0
H902 H 0.44218 0.51412 0.50739 0.0
H903 H 0.40632 0.50645 0.48063 0.0
H904 H 0.42306 0.4775 0.40769 0.0
H905 H 0.45879 0.48529 0.4339 0.0
H906 H 0.41026 0.50728 0.3918 0.0
H907 H 0.38152 0.44319 0.45117 0.0
H908 H 0.37534 0.42502 0.49684 0.0
H909 H 0.34 0.46014 0.5247 0.0
H910 H 0.34624 0.47877 0.47932 0.0
H911 H 0.30677 0.45127 0.30339 0.0
H912 H 0.33861 0.45651 0.33698 0.0
H913 H 0.3171 0.4882 0.40165 0.0
H914 H 0.28509 0.48272 0.36799 0.0
H915 H 0.33175 0.45936 0.42413 0.0
H916 H 0.35865 0.52171 0.36358 0.0
H917 H 0.36392 0.53897 0.31736 0.0
H918 H 0.40283 0.5071 0.2917 0.0
H919 H 0.39741 0.48926 0.33758 0.0
C920 C 0.43811 0.50598 0.48572 0.0
C921 C 0.45337 0.50033 0.47281 0.0
C922 C 0.4176 0.50156 0.47049 0.0
C923 C 0.41197 0.4913 0.44218 0.0
C924 C 0.42707 0.48548 0.42945 0.0
C925 C 0.44749 0.4899 0.44456 0.0
C926 C 0.39071 0.4871 0.42527 0.0
C927 C 0.3931 0.4966 0.39877 0.0
C928 C 0.36834 0.47376 0.43473 0.0
C929 C 0.36459 0.46258 0.462 0.0
C930 C 0.37261 0.44719 0.46714 0.0
C931 C 0.36906 0.43678 0.49295 0.0
C932 C 0.35735 0.44148 0.5137 0.0
C933 C 0.34911 0.45656 0.50864 0.0
C934 C 0.35263 0.46703 0.48287 0.0
C935 C 0.30867 0.45893 0.32497 0.0
C936 C 0.29373 0.46666 0.33332 0.0
C937 C 0.32683 0.462 0.34406 0.0
C938 C 0.33036 0.47302 0.37166 0.0
C939 C 0.31467 0.47969 0.38046 0.0
C940 C 0.29649 0.47661 0.36133 0.0
C941 C 0.35137 0.47903 0.39044 0.0
C942 C 0.34895 0.47007 0.41728 0.0
C943 C 0.37376 0.49289 0.38134 0.0
C944 C 0.37745 0.50398 0.35394 0.0
C945 C 0.3682 0.51825 0.34801 0.0
C946 C 0.37122 0.52815 0.32188 0.0
C947 C 0.38367 0.5241 0.30159 0.0
C948 C 0.39317 0.5102 0.30743 0.0
C949 C 0.39014 0.5002 0.33351 0.0
H950 H 0.38598 0.53178 0.28136 0.0
H951 H 0.35461 0.4334 0.53366 0.0
H952 H 0.96145 0.41731 0.99094 0.0
H953 H 0.93222 0.38381 0.95993 0.0
H954 H 0.88021 0.40023 0.98326 0.0
H955 H 0.90917 0.43275 0.01583 0.0
H956 H 0.86003 0.35664 0.97204 0.0
H957 H 0.91144 0.42075 0.92295 0.0
H958 H 0.94909 0.45161 0.90971 0.0
H959 H 0.96498 0.40059 0.87712 0.0
H960 H 0.92754 0.36941 0.89057 0.0
H961 H 0.82599 0.32131 0.80531 0.0
H962 H 0.84898 0.34945 0.84572 0.0
H963 H 0.82883 0.29377 0.90084 0.0
H964 H 0.80393 0.26598 0.86095 0.0
H965 H 0.88415 0.35785 0.87348 0.0
H966 H 0.83428 0.31103 0.97028 0.0
H967 H 0.79402 0.28552 0.9815 0.0
H968 H 0.76959 0.31103 0.9141 0.0
H969 H 0.8097 0.33691 0.90273 0.0
C970 C 0.94361 0.41324 0.99009 0.0
C971 C 0.93749 0.42755 0.00555 0.0
C972 C 0.92695 0.39426 0.97221 0.0
C973 C 0.90416 0.38996 0.96847 0.0
C974 C 0.89769 0.40325 0.98561 0.0
C975 C 0.91423 0.42181 0.00423 0.0
C976 C 0.88784 0.37329 0.9448 0.0
C977 C 0.86527 0.35684 0.95048 0.0
C978 C 0.89433 0.3741 0.91638 0.0
C979 C 0.9168 0.39276 0.90802 0.0
C980 C 0.92303 0.41612 0.91311 0.0
C981 C 0.94432 0.43367 0.90556 0.0
C982 C 0.95944 0.42807 0.89264 0.0
C983 C 0.95326 0.4049 0.88717 0.0
C984 C 0.93201 0.38728 0.89474 0.0
C985 C 0.82605 0.31525 0.82629 0.0
C986 C 0.81303 0.29161 0.83023 0.0
C987 C 0.83938 0.33127 0.84933 0.0
C988 C 0.84058 0.32389 0.87661 0.0
C989 C 0.82775 0.30012 0.88038 0.0
C990 C 0.81373 0.2842 0.85754 0.0
C991 C 0.85616 0.34098 0.90053 0.0
C992 C 0.87872 0.35754 0.89495 0.0
C993 C 0.84917 0.34106 0.9286 0.0
C994 C 0.82499 0.32573 0.93548 0.0
C995 C 0.82032 0.31126 0.95794 0.0
C996 C 0.79752 0.29673 0.9643 0.0
C997 C 0.77925 0.2966 0.94846 0.0
C998 C 0.78375 0.31108 0.92629 0.0
C999 C 0.80651 0.32567 0.91985 0.0
H1000 H 0.76162 0.28532 0.95341 0.0
H1001 H 0.97592 0.44167 0.88681 0.0
H1002 H 0.98933 0.52621 0.92891 0.0
H1003 H 0.9669 0.53718 0.89708 0.0
H1004 H 0.91655 0.51981 0.95927 0.0
H1005 H 0.93859 0.5088 0.99093 0.0
H1006 H 0.89627 0.50124 0.90573 0.0
H1007 H 0.9557 0.57558 0.95106 0.0
H1008 H 0.99592 0.60673 0.96435 0.0
H1009 H 0.00812 0.61409 0.87541 0.0
H1010 H 0.96804 0.58274 0.86159 0.0
H1011 H 0.82979 0.5498 0.86346 0.0
H1012 H 0.85783 0.54329 0.89088 0.0
H1013 H 0.90137 0.5632 0.82057 0.0
H1014 H 0.87329 0.56997 0.79329 0.0
H1015 H 0.92683 0.57994 0.87318 0.0
H1016 H 0.86727 0.50766 0.82742 0.0
H1017 H 0.8271 0.47673 0.81341 0.0
H1018 H 0.81544 0.46506 0.90182 0.0
H1019 H 0.85547 0.49615 0.91641 0.0
C1020 C 0.97353 0.52483 0.93582 0.0
C1021 C 0.96578 0.51664 0.96248 0.0
C1022 C 0.96078 0.53115 0.91765 0.0
C1023 C 0.9401 0.52938 0.92588 0.0
C1024 C 0.93242 0.52127 0.95247 0.0
C1025 C 0.94512 0.51504 0.9706 0.0
C1026 C 0.92601 0.53549 0.90682 0.0
C1027 C 0.90291 0.5185 0.89882 0.0
C1028 C 0.9349 0.55779 0.89701 0.0
C1029 C 0.95897 0.57664 0.9053 0.0
C1030 C 0.96702 0.5837 0.93434 0.0
C1031 C 0.98978 0.60142 0.94197 0.0
C1032 C 0.00459 0.61233 0.92074 0.0
C1033 C 0.99665 0.60559 0.89183 0.0
C1034 C 0.97391 0.58786 0.88409 0.0
C1035 C 0.84556 0.55313 0.8542 0.0
C1036 C 0.84958 0.56033 0.82648 0.0
C1037 C 0.86147 0.54932 0.8697 0.0
C1038 C 0.88151 0.55243 0.85756 0.0
C1039 C 0.88601 0.56066 0.83028 0.0
C1040 C 0.87006 0.5645 0.81476 0.0
C1041 C 0.89696 0.54585 0.87284 0.0
C1042 C 0.92028 0.56265 0.87994 0.0
C1043 C 0.88835 0.5233 0.88172 0.0
C1044 C 0.86433 0.50436 0.87302 0.0
C1045 C 0.85611 0.49859 0.8439 0.0
C1046 C 0.83337 0.48101 0.83584 0.0
C1047 C 0.81871 0.46897 0.85671 0.0
C1048 C 0.82681 0.47442 0.88568 0.0
C1049 C 0.84953 0.492 0.89385 0.0
H1050 H 0.80111 0.45539 0.85044 0.0
H1051 H 0.0222 0.62605 0.92669 0.0
H1052 H 0.4221 0.91192 0.52236 0.0
H1053 H 0.38258 0.88483 0.50162 0.0
H1054 H 0.39166 0.92991 0.43479 0.0
H1055 H 0.43083 0.95703 0.45538 0.0
H1056 H 0.34905 0.91234 0.45444 0.0
H1057 H 0.39952 0.88406 0.42382 0.0
H1058 H 0.42712 0.87036 0.43211 0.0
H1059 H 0.37756 0.81493 0.47736 0.0
H1060 H 0.34977 0.82852 0.46964 0.0
H1061 H 0.28627 0.85071 0.32625 0.0
H1062 H 0.31414 0.87345 0.36694 0.0
H1063 H 0.28482 0.81364 0.41574 0.0
H1064 H 0.25665 0.79076 0.37465 0.0
H1065 H 0.33177 0.83441 0.4163 0.0
H1066 H 0.27807 0.85862 0.43591 0.0
H1067 H 0.25091 0.87242 0.42504 0.0
H1068 H 0.30638 0.93561 0.39898 0.0
H1069 H 0.33384 0.92205 0.40925 0.0
C1070 C 0.41558 0.91614 0.5034 0.0
C1071 C 0.42968 0.93654 0.49038 0.0
C1072 C 0.39302 0.90064 0.49158 0.0
C1073 C 0.38427 0.9053 0.46656 0.0
C1074 C 0.39804 0.92601 0.45415 0.0
C1075 C 0.42052 0.94143 0.46587 0.0
C1076 C 0.36135 0.88821 0.452 0.0
C1077 C 0.3452 0.89527 0.44613 0.0
C1078 C 0.35606 0.86568 0.44196 0.0
C1079 C 0.37271 0.85748 0.44649 0.0
C1080 C 0.39459 0.86906 0.43573 0.0
C1081 C 0.41025 0.8613 0.4403 0.0
C1082 C 0.40412 0.84183 0.45534 0.0
C1083 C 0.3823 0.83004 0.46578 0.0
C1084 C 0.36659 0.83776 0.46131 0.0
C1085 C 0.28541 0.84264 0.34597 0.0
C1086 C 0.26914 0.81923 0.34775 0.0
C1087 C 0.3013 0.85559 0.36917 0.0
C1088 C 0.3013 0.84534 0.39455 0.0
C1089 C 0.28491 0.82191 0.39645 0.0
C1090 C 0.26885 0.80893 0.37317 0.0
C1091 C 0.31981 0.85886 0.41782 0.0
C1092 C 0.33519 0.85116 0.42532 0.0
C1093 C 0.32443 0.88086 0.42922 0.0
C1094 C 0.30803 0.88925 0.42329 0.0
C1095 C 0.28448 0.8754 0.42771 0.0
C1096 C 0.26902 0.88319 0.42166 0.0
C1097 C 0.27691 0.90487 0.41131 0.0
C1098 C 0.3003 0.91882 0.40703 0.0
C1099 C 0.31583 0.91111 0.41301 0.0
H1100 H 0.26492 0.91086 0.40663 0.0
H1101 H 0.41627 0.83584 0.45885 0.0
H1102 H 0.47265 0.4169 0.97618 0.0
H1103 H 0.46369 0.38264 0.94514 0.0
H1104 H 0.45841 0.41601 0.87118 0.0
H1105 H 0.46677 0.45026 0.90234 0.0
H1106 H 0.42657 0.3707 0.86503 0.0
H1107 H 0.50817 0.41587 0.88999 0.0
H1108 H 0.54365 0.43739 0.92273 0.0
H1109 H 0.52693 0.37536 0.96306 0.0
H1110 H 0.49114 0.35354 0.93084 0.0
H1111 H 0.44676 0.30023 0.76365 0.0
H1112 H 0.44861 0.33241 0.79352 0.0
H1113 H 0.45147 0.29991 0.86959 0.0
H1114 H 0.44978 0.26787 0.83962 0.0
H1115 H 0.48438 0.34523 0.87353 0.0
H1116 H 0.40254 0.30003 0.84636 0.0
H1117 H 0.3679 0.27941 0.81213 0.0
H1118 H 0.38635 0.34261 0.77376 0.0
H1119 H 0.42132 0.36355 0.80748 0.0
C1120 C 0.46929 0.41687 0.95335 0.0
C1121 C 0.47067 0.43641 0.94169 0.0
C1122 C 0.46425 0.39728 0.9356 0.0
C1123 C 0.46093 0.39695 0.90574 0.0
C1124 C 0.46105 0.41593 0.89413 0.0
C1125 C 0.46584 0.4355 0.91197 0.0
C1126 C 0.45864 0.37733 0.88673 0.0
C1127 C 0.43934 0.36529 0.86665 0.0
C1128 C 0.47519 0.3701 0.88899 0.0
C1129 C 0.49687 0.38311 0.90816 0.0
C1130 C 0.51198 0.40685 0.90596 0.0
C1131 C 0.53216 0.4191 0.92441 0.0
C1132 C 0.53752 0.40776 0.945 0.0
C1133 C 0.52274 0.38413 0.94712 0.0
C1134 C 0.50252 0.3718 0.92875 0.0
C1135 C 0.44758 0.29998 0.78676 0.0
C1136 C 0.44819 0.28179 0.79951 0.0
C1137 C 0.44857 0.31826 0.80378 0.0
C1138 C 0.45003 0.31851 0.83382 0.0
C1139 C 0.45035 0.30009 0.84649 0.0
C1140 C 0.44933 0.28182 0.82946 0.0
C1141 C 0.45215 0.33836 0.8521 0.0
C1142 C 0.47155 0.35056 0.87196 0.0
C1143 C 0.43582 0.34583 0.84937 0.0
C1144 C 0.41466 0.33331 0.82929 0.0
C1145 C 0.3993 0.3095 0.83049 0.0
C1146 C 0.3796 0.29775 0.8112 0.0
C1147 C 0.37495 0.30968 0.79074 0.0
C1148 C 0.38998 0.33339 0.7896 0.0
C1149 C 0.40974 0.3452 0.80881 0.0
H1150 H 0.35969 0.30056 0.77582 0.0
H1151 H 0.55314 0.41728 0.95928 0.0
H1152 H 0.08689 0.52374 0.52185 0.0
H1153 H 0.11748 0.52135 0.49793 0.0
H1154 H 0.06583 0.46506 0.43989 0.0
H1155 H 0.03532 0.46738 0.46337 0.0
H1156 H 0.12948 0.48755 0.48255 0.0
H1157 H 0.08068 0.47886 0.37266 0.0
H1158 H 0.05348 0.48999 0.35197 0.0
H1159 H 0.07802 0.54611 0.41745 0.0
H1160 H 0.10563 0.53554 0.43829 0.0
H1161 H 0.17328 0.4503 0.3707 0.0
H1162 H 0.15054 0.45618 0.40558 0.0
H1163 H 0.16915 0.52223 0.37411 0.0
H1164 H 0.19045 0.5157 0.33774 0.0
H1165 H 0.12634 0.50107 0.37972 0.0
H1166 H 0.1919 0.51668 0.44099 0.0
H1167 H 0.22206 0.51002 0.46276 0.0
H1168 H 0.17002 0.44864 0.49669 0.0
H1169 H 0.1395 0.45475 0.47478 0.0
C1170 C 0.08206 0.51044 0.50452 0.0
C1171 C 0.05875 0.496 0.49414 0.0
C1172 C 0.09954 0.50912 0.4909 0.0
C1173 C 0.09384 0.49337 0.46683 0.0
C1174 C 0.07053 0.47759 0.45816 0.0
C1175 C 0.05314 0.47893 0.47162 0.0
C1176 C 0.11189 0.49489 0.44872 0.0
C1177 C 0.12893 0.49054 0.46008 0.0
C1178 C 0.11153 0.49963 0.4197 0.0
C1179 C 0.09509 0.50625 0.40718 0.0
C1180 C 0.08034 0.49363 0.38258 0.0
C1181 C 0.06485 0.49984 0.37084 0.0
C1182 C 0.064 0.51871 0.38344 0.0
C1183 C 0.07866 0.53145 0.40779 0.0
C1184 C 0.09421 0.52533 0.41959 0.0
C1185 C 0.17238 0.46599 0.37097 0.0
C1186 C 0.18368 0.48247 0.35124 0.0
C1187 C 0.15968 0.46952 0.39132 0.0
C1188 C 0.1584 0.48982 0.39281 0.0
C1189 C 0.16996 0.50647 0.37348 0.0
C1190 C 0.18235 0.50279 0.35284 0.0
C1191 C 0.14373 0.49299 0.41317 0.0
C1192 C 0.1272 0.49825 0.40222 0.0
C1193 C 0.1451 0.4898 0.44272 0.0
C1194 C 0.16339 0.48609 0.45606 0.0
C1195 C 0.18687 0.50167 0.45293 0.0
C1196 C 0.20403 0.49801 0.46532 0.0
C1197 C 0.19796 0.4789 0.48105 0.0
C1198 C 0.1747 0.46343 0.48449 0.0
C1199 C 0.15746 0.46701 0.47212 0.0
H1200 H 0.21127 0.47609 0.49063 0.0
H1201 H 0.05201 0.52347 0.37426 0.0
H1202 H 0.55044 0.0178 0.93612 0.0
H1203 H 0.58494 0.04249 0.9122 0.0
H1204 H 0.58985 0.10299 0.95668 0.0
H1205 H 0.55586 0.07814 0.98173 0.0
H1206 H 0.5915 0.07064 0.87577 0.0
H1207 H 0.64424 0.14858 0.96137 0.0
H1208 H 0.65219 0.15592 0.01392 0.0
H1209 H 0.63686 0.08601 0.02014 0.0
H1210 H 0.62912 0.07834 0.96762 0.0
H1211 H 0.66857 0.16704 0.80782 0.0
H1212 H 0.63962 0.14085 0.83775 0.0
H1213 H 0.69201 0.13445 0.88669 0.0
H1214 H 0.7215 0.16186 0.85774 0.0
H1215 H 0.66426 0.1374 0.92168 0.0
H1216 H 0.65349 0.09155 0.83579 0.0
H1217 H 0.64794 0.08082 0.78375 0.0
H1218 H 0.58341 0.08002 0.77933 0.0
H1219 H 0.58879 0.09123 0.83126 0.0
C1220 C 0.55906 0.03636 0.9411 0.0
C1221 C 0.55043 0.04604 0.96081 0.0
C1222 C 0.57878 0.0505 0.92733 0.0
C1223 C 0.59019 0.07469 0.93259 0.0
C1224 C 0.58174 0.08439 0.9526 0.0
C1225 C 0.56222 0.07018 0.96684 0.0
C1226 C 0.61002 0.08962 0.91589 0.0
C1227 C 0.60741 0.08517 0.88592 0.0
C1228 C 0.6311 0.10834 0.92897 0.0
C1229 C 0.63588 0.11284 0.96057 0.0
C1230 C 0.64265 0.1348 0.97394 0.0
C1231 C 0.6471 0.13902 0.00373 0.0
C1232 C 0.64496 0.12142 0.02036 0.0
C1233 C 0.63843 0.0996 0.00724 0.0
C1234 C 0.63397 0.0953 0.97747 0.0
C1235 C 0.6741 0.16038 0.82519 0.0
C1236 C 0.69749 0.16672 0.83036 0.0
C1237 C 0.6574 0.14511 0.8421 0.0
C1238 C 0.66351 0.13536 0.86427 0.0
C1239 C 0.68683 0.14168 0.86965 0.0
C1240 C 0.70365 0.15717 0.85286 0.0
C1241 C 0.64545 0.1186 0.88168 0.0
C1242 C 0.64837 0.12275 0.91167 0.0
C1243 C 0.62495 0.09909 0.86873 0.0
C1244 C 0.62164 0.09242 0.83742 0.0
C1245 C 0.63821 0.08929 0.82369 0.0
C1246 C 0.63509 0.08311 0.79421 0.0
C1247 C 0.61536 0.07979 0.77824 0.0
C1248 C 0.59871 0.08264 0.79172 0.0
C1249 C 0.60178 0.08891 0.82119 0.0
H1250 H 0.61295 0.07492 0.75545 0.0
H1251 H 0.6484 0.12472 0.04342 0.0
H1252 H 0.53738 0.58328 0.47926 0.0
H1253 H 0.54582 0.61571 0.45108 0.0
H1254 H 0.56868 0.58692 0.38468 0.0
H1255 H 0.56001 0.55393 0.41273 0.0
H1256 H 0.59643 0.6394 0.40043 0.0
H1257 H 0.51987 0.57558 0.37044 0.0
H1258 H 0.48118 0.54382 0.37917 0.0
H1259 H 0.46649 0.59242 0.42239 0.0
H1260 H 0.50527 0.62445 0.41437 0.0
H1261 H 0.58389 0.70684 0.29428 0.0
H1262 H 0.58524 0.67708 0.32112 0.0
H1263 H 0.54252 0.68386 0.38245 0.0
H1264 H 0.54067 0.71316 0.35522 0.0
H1265 H 0.52583 0.64046 0.36579 0.0
H1266 H 0.60157 0.70398 0.39794 0.0
H1267 H 0.64076 0.73635 0.39251 0.0
H1268 H 0.65748 0.68973 0.34806 0.0
H1269 H 0.61826 0.65712 0.3529 0.0
C1270 C 0.54452 0.5839 0.45887 0.0
C1271 C 0.54775 0.56586 0.44805 0.0
C1272 C 0.54937 0.6025 0.44285 0.0
C1273 C 0.55765 0.60349 0.41581 0.0
C1274 C 0.56229 0.58634 0.40558 0.0
C1275 C 0.55725 0.56752 0.42156 0.0
C1276 C 0.55923 0.62136 0.39748 0.0
C1277 C 0.58106 0.63954 0.39232 0.0
C1278 C 0.53909 0.62158 0.38763 0.0
C1279 C 0.51557 0.6024 0.39202 0.0
C1280 C 0.50846 0.57948 0.38201 0.0
C1281 C 0.4865 0.56143 0.3868 0.0
C1282 C 0.4714 0.56609 0.40139 0.0
C1283 C 0.47821 0.58883 0.41112 0.0
C1284 C 0.50017 0.60694 0.40643 0.0
C1285 C 0.57516 0.70224 0.31378 0.0
C1286 C 0.56213 0.7122 0.32272 0.0
C1287 C 0.57594 0.68526 0.32911 0.0
C1288 C 0.56405 0.67831 0.35387 0.0
C1289 C 0.55171 0.68887 0.36332 0.0
C1290 C 0.55069 0.7056 0.34782 0.0
C1291 C 0.56315 0.65902 0.36901 0.0
C1292 C 0.54131 0.64041 0.37356 0.0
C1293 C 0.58332 0.65857 0.37844 0.0
C1294 C 0.6069 0.67815 0.37551 0.0
C1295 C 0.61354 0.70066 0.38679 0.0
C1296 C 0.63577 0.71905 0.38386 0.0
C1297 C 0.65157 0.71511 0.36987 0.0
C1298 C 0.6452 0.69276 0.35885 0.0
C1299 C 0.62298 0.67432 0.3617 0.0
H1300 H 0.66878 0.72936 0.36763 0.0
H1301 H 0.45442 0.55208 0.4051 0.0
H1302 H 0.47043 0.01795 0.56773 0.0
H1303 H 0.46262 0.046 0.59205 0.0
H1304 H 0.49214 0.09174 0.52523 0.0
H1305 H 0.49965 0.06344 0.50036 0.0
H1306 H 0.49147 0.08838 0.61475 0.0
H1307 H 0.46607 0.12449 0.51892 0.0
H1308 H 0.44772 0.11167 0.46949 0.0
H1309 H 0.41086 0.04126 0.49108 0.0
H1310 H 0.42875 0.05369 0.5407 0.0
H1311 H 0.4716 0.19289 0.62445 0.0
H1312 H 0.47639 0.16437 0.59507 0.0
H1313 H 0.44441 0.1148 0.65745 0.0
H1314 H 0.44014 0.1435 0.687 0.0
H1315 H 0.44709 0.12117 0.56931 0.0
H1316 H 0.47211 0.08466 0.66484 0.0
H1317 H 0.48922 0.0973 0.7148 0.0
H1318 H 0.52583 0.16797 0.69413 0.0
H1319 H 0.50923 0.15572 0.64398 0.0
C1320 C 0.47516 0.0339 0.55803 0.0
C1321 C 0.48567 0.03843 0.53204 0.0
C1322 C 0.47073 0.04997 0.57205 0.0
C1323 C 0.47667 0.07095 0.56045 0.0
C1324 C 0.48708 0.07553 0.53442 0.0
C1325 C 0.49143 0.05936 0.52025 0.0
C1326 C 0.47248 0.08816 0.57617 0.0
C1327 C 0.48152 0.09532 0.60487 0.0
C1328 C 0.45998 0.09768 0.56315 0.0
C1329 C 0.44897 0.09001 0.53343 0.0
C1330 C 0.45401 0.10628 0.51313 0.0
C1331 C 0.44369 0.09908 0.48508 0.0
C1332 C 0.42821 0.07566 0.47712 0.0
C1333 C 0.42294 0.05939 0.49723 0.0
C1334 C 0.43319 0.0665 0.52531 0.0
C1335 C 0.46549 0.17581 0.63161 0.0
C1336 C 0.45571 0.17027 0.65791 0.0
C1337 C 0.46814 0.15955 0.61487 0.0
C1338 C 0.46107 0.13758 0.62427 0.0
C1339 C 0.45034 0.13177 0.65002 0.0
C1340 C 0.4478 0.14805 0.66679 0.0
C1341 C 0.46584 0.12111 0.60787 0.0
C1342 C 0.45703 0.11421 0.5791 0.0
C1343 C 0.47852 0.11176 0.62081 0.0
C1344 C 0.48926 0.11926 0.6507 0.0
C1345 C 0.48394 0.10287 0.67092 0.0
C1346 C 0.49353 0.10998 0.69928 0.0
C1347 C 0.50856 0.13343 0.70764 0.0
C1348 C 0.51414 0.14982 0.68764 0.0
C1349 C 0.50464 0.1428 0.65924 0.0
H1350 H 0.51592 0.13891 0.7296 0.0
H1351 H 0.42025 0.07012 0.45539 0.0
H1352 H 0.44988 0.49952 0.04837 0.0
H1353 H 0.41913 0.49189 0.07961 0.0
H1354 H 0.42538 0.43629 0.11301 0.0
H1355 H 0.45696 0.44443 0.08228 0.0
H1356 H 0.37862 0.42512 0.09126 0.0
H1357 H 0.43959 0.47556 0.15905 0.0
H1358 H 0.47479 0.50921 0.183 0.0
H1359 H 0.44683 0.55308 0.1657 0.0
H1360 H 0.41156 0.51975 0.14128 0.0
H1361 H 0.30163 0.42362 0.20027 0.0
H1362 H 0.3329 0.42251 0.17669 0.0
H1363 H 0.33856 0.47551 0.1237 0.0
H1364 H 0.30661 0.476 0.14595 0.0
H1365 H 0.38056 0.4835 0.16246 0.0
H1366 H 0.31976 0.42996 0.09013 0.0
H1367 H 0.28337 0.39399 0.07406 0.0
H1368 H 0.31169 0.35375 0.10642 0.0
H1369 H 0.34817 0.38954 0.12308 0.0
C1370 C 0.44477 0.48572 0.06244 0.0
C1371 C 0.45559 0.4724 0.06278 0.0
C1372 C 0.42736 0.48151 0.08041 0.0
C1373 C 0.42011 0.46361 0.09862 0.0
C1374 C 0.43089 0.45026 0.09915 0.0
C1375 C 0.44882 0.45488 0.08164 0.0
C1376 C 0.40016 0.45814 0.11536 0.0
C1377 C 0.37913 0.43765 0.1073 0.0
C1378 C 0.40088 0.47457 0.13612 0.0
C1379 C 0.42296 0.49513 0.14815 0.0
C1380 C 0.44109 0.49244 0.1599 0.0
C1381 C 0.46098 0.51143 0.1738 0.0
C1382 C 0.46293 0.53321 0.17614 0.0
C1383 C 0.44519 0.53615 0.16411 0.0
C1384 C 0.42527 0.51722 0.15019 0.0
C1385 C 0.30901 0.43455 0.183 0.0
C1386 C 0.30175 0.45012 0.17525 0.0
C1387 C 0.32695 0.43395 0.1697 0.0
C1388 C 0.33799 0.44902 0.14868 0.0
C1389 C 0.33022 0.46385 0.14004 0.0
C1390 C 0.3121 0.46422 0.15296 0.0
C1391 C 0.35904 0.45105 0.1375 0.0
C1392 C 0.38021 0.4709 0.14667 0.0
C1393 C 0.35848 0.43389 0.11819 0.0
C1394 C 0.33656 0.41242 0.10822 0.0
C1395 C 0.31813 0.41345 0.09414 0.0
C1396 C 0.29752 0.3931 0.08484 0.0
C1397 C 0.29518 0.3716 0.08932 0.0
C1398 C 0.3135 0.37042 0.10303 0.0
C1399 C 0.33415 0.39073 0.11239 0.0
H1400 H 0.27921 0.35585 0.08208 0.0
H1401 H 0.47829 0.54787 0.18704 0.0
H1402 H 0.97975 0.45302 0.56526 0.0
H1403 H 0.9536 0.41986 0.59043 0.0
H1404 H 0.90199 0.39603 0.51883 0.0
H1405 H 0.92815 0.42923 0.49335 0.0
H1406 H 0.88441 0.39664 0.57096 0.0
H1407 H 0.93015 0.36769 0.53035 0.0
H1408 H 0.96621 0.36864 0.51941 0.0
H1409 H 0.98506 0.37293 0.60928 0.0
H1410 H 0.94925 0.37234 0.62079 0.0
H1411 H 0.80788 0.2905 0.62604 0.0
H1412 H 0.83374 0.31902 0.59501 0.0
H1413 H 0.89065 0.34227 0.65963 0.0
H1414 H 0.8649 0.31356 0.69062 0.0
H1415 H 0.90486 0.34067 0.60844 0.0
H1416 H 0.86145 0.37226 0.64976 0.0
H1417 H 0.82624 0.37255 0.66212 0.0
H1418 H 0.80409 0.36487 0.57278 0.0
H1419 H 0.83904 0.36422 0.55988 0.0
C1420 C 0.96291 0.44066 0.55471 0.0
C1421 C 0.95606 0.4438 0.52725 0.0
C1422 C 0.948 0.42164 0.56912 0.0
C1423 C 0.92588 0.40537 0.55645 0.0
C1424 C 0.919 0.40835 0.52898 0.0
C1425 C 0.93401 0.42729 0.51441 0.0
C1426 C 0.9097 0.3858 0.57245 0.0
C1427 C 0.88868 0.38414 0.57872 0.0
C1428 C 0.91557 0.36989 0.58328 0.0
C1429 C 0.9371 0.37018 0.57643 0.0
C1430 C 0.94207 0.36903 0.54779 0.0
C1431 C 0.96245 0.36947 0.54149 0.0
C1432 C 0.97794 0.3709 0.56364 0.0
C1433 C 0.97305 0.37184 0.59215 0.0
C1434 C 0.9527 0.37144 0.59857 0.0
C1435 C 0.8259 0.30171 0.63366 0.0
C1436 C 0.83428 0.29986 0.6609 0.0
C1437 C 0.84068 0.31802 0.61589 0.0
C1438 C 0.8641 0.33311 0.62512 0.0
C1439 C 0.87266 0.33086 0.65199 0.0
C1440 C 0.85792 0.31441 0.66969 0.0
C1441 C 0.87957 0.35154 0.60709 0.0
C1442 C 0.90048 0.35304 0.60051 0.0
C1443 C 0.87371 0.36747 0.59619 0.0
C1444 C 0.85273 0.36794 0.60387 0.0
C1445 C 0.84898 0.37046 0.63276 0.0
C1446 C 0.82909 0.37071 0.63986 0.0
C1447 C 0.81291 0.36866 0.61825 0.0
C1448 C 0.81662 0.36642 0.58949 0.0
C1449 C 0.83647 0.36612 0.58227 0.0
H1450 H 0.79752 0.36887 0.62379 0.0
H1451 H 0.99371 0.37123 0.55872 0.0
H1452 H 0.50745 0.9325 0.96836 0.0
H1453 H 0.51761 0.90733 0.99393 0.0
H1454 H 0.50998 0.93594 0.07454 0.0
H1455 H 0.50133 0.96187 0.04931 0.0
H1456 H 0.54436 0.93101 0.08204 0.0
H1457 H 0.46698 0.8811 0.03769 0.0
H1458 H 0.43657 0.86268 0.99761 0.0
H1459 H 0.47383 0.83329 0.95873 0.0
H1460 H 0.50459 0.85178 0.99845 0.0
H1461 H 0.5145 0.84097 0.17288 0.0
H1462 H 0.51089 0.86606 0.13932 0.0
H1463 H 0.54419 0.84597 0.07692 0.0
H1464 H 0.54804 0.82091 0.11058 0.0
H1465 H 0.50124 0.8462 0.05647 0.0
H1466 H 0.57636 0.89422 0.10863 0.0
H1467 H 0.60237 0.91063 0.15303 0.0
H1468 H 0.56376 0.94197 0.18187 0.0
H1469 H 0.53731 0.92547 0.13781 0.0
C1470 C 0.50815 0.93345 0.99154 0.0
C1471 C 0.50366 0.9491 0.00689 0.0
C1472 C 0.5138 0.919 0.00614 0.0
C1473 C 0.51424 0.91946 0.0362 0.0
C1474 C 0.50992 0.9353 0.0514 0.0
C1475 C 0.50491 0.9501 0.03694 0.0
C1476 C 0.51875 0.90335 0.05218 0.0
C1477 C 0.5348 0.91247 0.07642 0.0
C1478 C 0.50664 0.87914 0.04472 0.0
C1479 C 0.48821 0.86805 0.02083 0.0
C1480 C 0.46876 0.87085 0.02047 0.0
C1481 C 0.45145 0.86038 0.99785 0.0
C1482 C 0.45331 0.84689 0.97558 0.0
C1483 C 0.47244 0.84379 0.97595 0.0
C1484 C 0.48981 0.85426 0.99851 0.0
C1485 C 0.52082 0.84173 0.15189 0.0
C1486 C 0.53156 0.82909 0.14423 0.0
C1487 C 0.51885 0.85609 0.13286 0.0
C1488 C 0.5274 0.85785 0.10583 0.0
C1489 C 0.53754 0.84477 0.09776 0.0
C1490 C 0.53982 0.83062 0.11697 0.0
C1491 C 0.52622 0.87394 0.08644 0.0
C1492 C 0.51094 0.8648 0.06164 0.0
C1493 C 0.5385 0.89805 0.09382 0.0
C1494 C 0.55477 0.90848 0.11999 0.0
C1495 C 0.57334 0.90451 0.12451 0.0
C1496 C 0.58817 0.91383 0.14961 0.0
C1497 C 0.58469 0.92729 0.17029 0.0
C1498 C 0.56643 0.93154 0.16584 0.0
C1499 C 0.55154 0.92223 0.14079 0.0
H1500 H 0.59616 0.93446 0.18974 0.0
H1501 H 0.43989 0.83879 0.95809 0.0
H1502 H 0.55696 0.54838 0.60093 0.0
H1503 H 0.59003 0.55679 0.63446 0.0
H1504 H 0.61982 0.5369 0.56705 0.0
H1505 H 0.58707 0.52838 0.53371 0.0
H1506 H 0.61944 0.51634 0.615 0.0
H1507 H 0.64122 0.59347 0.59005 0.0
H1508 H 0.63569 0.62694 0.5857 0.0
H1509 H 0.6311 0.63226 0.67651 0.0
H1510 H 0.6363 0.5986 0.68134 0.0
H1511 H 0.73433 0.557 0.66557 0.0
H1512 H 0.70051 0.55363 0.63814 0.0
H1513 H 0.67879 0.57188 0.7155 0.0
H1514 H 0.71275 0.57524 0.74296 0.0
H1515 H 0.6727 0.59266 0.66786 0.0
H1516 H 0.65429 0.51769 0.69338 0.0
H1517 H 0.66012 0.48445 0.6979 0.0
H1518 H 0.65762 0.47454 0.60634 0.0
H1519 H 0.65223 0.50803 0.60126 0.0
C1520 C 0.57066 0.54601 0.59323 0.0
C1521 C 0.56933 0.53767 0.56464 0.0
C1522 C 0.58955 0.55084 0.61239 0.0
C1523 C 0.60739 0.54749 0.60322 0.0
C1524 C 0.60621 0.53952 0.57463 0.0
C1525 C 0.58746 0.53473 0.55555 0.0
C1526 C 0.62708 0.55148 0.62332 0.0
C1527 C 0.63119 0.53309 0.62635 0.0
C1528 C 0.64194 0.57311 0.63889 0.0
C1529 C 0.63888 0.59336 0.636 0.0
C1530 C 0.63883 0.60165 0.60905 0.0
C1531 C 0.6358 0.62068 0.60651 0.0
C1532 C 0.63297 0.63167 0.6308 0.0
C1533 C 0.63325 0.6237 0.65771 0.0
C1534 C 0.63625 0.60466 0.66036 0.0
C1535 C 0.72245 0.56057 0.67652 0.0
C1536 C 0.72587 0.56625 0.70621 0.0
C1537 C 0.70316 0.55859 0.66096 0.0
C1538 C 0.68701 0.56222 0.67489 0.0
C1539 C 0.69104 0.56898 0.7044 0.0
C1540 C 0.71033 0.57088 0.72002 0.0
C1541 C 0.6654 0.55772 0.65874 0.0
C1542 C 0.66084 0.5759 0.65663 0.0
C1543 C 0.65003 0.53585 0.64401 0.0
C1544 C 0.65309 0.51556 0.64696 0.0
C1545 C 0.65519 0.50857 0.67421 0.0
C1546 C 0.65837 0.48965 0.67687 0.0
C1547 C 0.6593 0.47743 0.65243 0.0
C1548 C 0.65695 0.48405 0.62526 0.0
C1549 C 0.65382 0.503 0.62248 0.0
H1550 H 0.66178 0.46279 0.65454 0.0
H1551 H 0.63063 0.6464 0.62879 0.0
H1552 H 0.02785 0.57004 0.04316 0.0
H1553 H 0.05563 0.60675 0.06983 0.0
H1554 H 0.03975 0.57387 0.14902 0.0
H1555 H 0.01104 0.5372 0.12236 0.0
H1556 H 0.0496 0.61784 0.15753 0.0
H1557 H 0.08386 0.57844 0.11257 0.0
H1558 H 0.09173 0.55857 0.07274 0.0
H1559 H 0.12185 0.62079 0.0293 0.0
H1560 H 0.11367 0.64087 0.06853 0.0
H1561 H 0.15944 0.70092 0.23104 0.0
H1562 H 0.12573 0.66481 0.2094 0.0
H1563 H 0.1341 0.69438 0.12804 0.0
H1564 H 0.16792 0.73031 0.14969 0.0
H1565 H 0.12806 0.65096 0.12326 0.0
H1566 H 0.09165 0.68947 0.16888 0.0
H1567 H 0.08469 0.70869 0.21027 0.0
H1568 H 0.06047 0.64725 0.25479 0.0
H1569 H 0.06754 0.62775 0.21376 0.0
C1570 C 0.02993 0.57079 0.06632 0.0
C1571 C 0.01757 0.55083 0.08075 0.0
C1572 C 0.04583 0.59172 0.08153 0.0
C1573 C 0.05023 0.59286 0.11131 0.0
C1574 C 0.03673 0.57331 0.12602 0.0
C1575 C 0.02037 0.55241 0.11081 0.0
C1576 C 0.07027 0.61378 0.12648 0.0
C1577 C 0.0668 0.62495 0.15024 0.0
C1578 C 0.09274 0.62307 0.11693 0.0
C1579 C 0.098 0.61111 0.09344 0.0
C1580 C 0.09205 0.58785 0.09446 0.0
C1581 C 0.09656 0.57654 0.07198 0.0
C1582 C 0.10728 0.58841 0.04852 0.0
C1583 C 0.11353 0.61161 0.04749 0.0
C1584 C 0.10895 0.62296 0.06983 0.0
C1585 C 0.15388 0.69958 0.20859 0.0
C1586 C 0.16583 0.71817 0.19191 0.0
C1587 C 0.13468 0.6791 0.1963 0.0
C1588 C 0.1273 0.67706 0.1672 0.0
C1589 C 0.13948 0.69568 0.15054 0.0
C1590 C 0.15864 0.71613 0.16284 0.0
C1591 C 0.10727 0.65532 0.15376 0.0
C1592 C 0.11083 0.64387 0.13047 0.0
C1593 C 0.08504 0.64568 0.16396 0.0
C1594 C 0.08029 0.65721 0.18835 0.0
C1595 C 0.08494 0.6801 0.18755 0.0
C1596 C 0.08096 0.69104 0.21093 0.0
C1597 C 0.07218 0.67922 0.23516 0.0
C1598 C 0.06727 0.65639 0.23601 0.0
C1599 C 0.07123 0.64537 0.21268 0.0
H1600 H 0.06915 0.68773 0.25326 0.0
H1601 H 0.11077 0.57964 0.03116 0.0
loop_
_geom_bond_atom_site_label_1
_geom_bond_atom_site_label_2
_geom_bond_distance
_geom_bond_site_symmetry_2
_ccdc_geom_bond_type
C0 O2 1.247 . S
C0 O4 1.258 . S
C1 O8 1.247 . S
C1 O9 1.258 . S
O2 C0 1.247 . S
O2 Zn3 2.028 1_455 S
Zn3 O2 2.028 1_655 S
Zn3 O7 2.035 1_554 S
Zn3 O9 2.035 1_554 S
Zn3 O10 2.028 1_655 S
O4 C0 1.258 . S
O4 Zn5 2.035 1_554 S
Zn5 O4 2.035 1_556 S
Zn5 O6 2.028 1_455 S
Zn5 O8 2.028 1_455 S
Zn5 O11 2.035 1_556 S
O6 Zn5 2.028 1_655 S
O6 C12 1.247 . S
O7 Zn3 2.035 1_556 S
O7 C12 1.258 . S
O8 C1 1.247 . S
O8 Zn5 2.028 1_655 S
O9 C1 1.258 . S
O9 Zn3 2.035 1_556 S
O10 Zn3 2.028 1_455 S
O10 C13 1.247 . S
O11 Zn5 2.035 1_554 S
O11 C13 1.258 . S
C12 O6 1.247 . S
C12 O7 1.258 . S
C13 O10 1.247 . S
C13 O11 1.258 . S
C14 O16 1.247 . S
C14 O18 1.258 . S
C15 O22 1.247 . S
C15 O23 1.258 . S
O16 C14 1.247 . S
O16 Zn17 2.028 1_545 S
Zn17 O16 2.028 1_565 S
Zn17 O21 2.035 . S
Zn17 O23 2.035 . S
Zn17 O24 2.028 1_565 S
O18 C14 1.258 . S
O18 Zn19 2.035 . S
Zn19 O18 2.035 . S
Zn19 O20 2.028 1_545 S
Zn19 O22 2.028 1_545 S
Zn19 O25 2.035 . S
O20 Zn19 2.028 1_565 S
O20 C26 1.247 . S
O21 Zn17 2.035 . S
O21 C26 1.258 . S
O22 C15 1.247 . S
O22 Zn19 2.028 1_565 S
O23 C15 1.258 . S
O23 Zn17 2.035 . S
O24 Zn17 2.028 1_545 S
O24 C27 1.247 . S
O25 Zn19 2.035 . S
O25 C27 1.258 . S
C26 O20 1.247 . S
C26 O21 1.258 . S
C27 O24 1.247 . S
C27 O25 1.258 . S
C28 O30 1.247 . S
C28 O32 1.258 . S
C29 O36 1.247 . S
C29 O37 1.258 . S
O30 C28 1.247 . S
O30 Zn31 2.028 . S
Zn31 O30 2.028 . S
Zn31 O35 2.035 1_556 S
Zn31 O37 2.035 1_556 S
Zn31 O38 2.028 . S
O32 C28 1.258 . S
O32 Zn33 2.035 1_556 S
Zn33 O32 2.035 1_554 S
Zn33 O34 2.028 . S
Zn33 O36 2.028 . S
Zn33 O39 2.035 1_554 S
O34 Zn33 2.028 . S
O34 C40 1.247 . S
O35 Zn31 2.035 1_554 S
O35 C40 1.258 . S
O36 C29 1.247 . S
O36 Zn33 2.028 . S
O37 C29 1.258 . S
O37 Zn31 2.035 1_554 S
O38 Zn31 2.028 . S
O38 C41 1.247 . S
O39 Zn33 2.035 1_556 S
O39 C41 1.258 . S
C40 O34 1.247 . S
C40 O35 1.258 . S
C41 O38 1.247 . S
C41 O39 1.258 . S
C42 O44 1.247 . S
C42 O46 1.258 . S
C43 O50 1.247 . S
C43 O51 1.281 . S
O44 C42 1.247 . S
O44 Zn45 2.028 . S
Zn45 O44 2.028 . S
Zn45 O49 2.035 1_455 S
Zn45 O51 2.028 1_455 S
Zn45 O52 2.028 . S
O46 C42 1.258 . S
O46 Zn47 2.035 1_455 S
Zn47 O46 2.035 1_655 S
Zn47 O48 2.028 . S
Zn47 O50 2.028 . S
Zn47 O53 2.035 1_655 S
O48 Zn47 2.028 . S
O48 C54 1.247 . S
O49 Zn45 2.035 1_655 S
O49 C54 1.258 . S
O50 C43 1.247 . S
O50 Zn47 2.028 . S
O51 C43 1.281 . S
O51 Zn45 2.028 1_655 S
O52 Zn45 2.028 . S
O52 C55 1.247 . S
O53 Zn47 2.035 1_455 S
O53 C55 1.258 . S
C54 O48 1.247 . S
C54 O49 1.258 . S
C55 O52 1.247 . S
C55 O53 1.258 . S
C56 O58 1.299 . S
C56 O60 1.258 . S
C57 O64 1.247 . S
C57 O65 1.258 . S
O58 C56 1.299 . S
O58 Zn59 1.976 1_565 S
Zn59 O58 1.976 1_545 S
Zn59 O63 2.035 1_554 S
Zn59 O65 2.035 1_554 S
Zn59 O66 2.023 1_545 S
O60 C56 1.258 . S
O60 Zn61 2.035 1_554 S
Zn61 O60 2.035 1_556 S
Zn61 O62 2.028 1_565 S
Zn61 O64 2.028 1_565 S
Zn61 O67 2.035 1_556 S
O62 Zn61 2.028 1_545 S
O62 C68 1.247 . S
O63 Zn59 2.035 1_556 S
O63 C68 1.258 . S
O64 C57 1.247 . S
O64 Zn61 2.028 1_545 S
O65 C57 1.258 . S
O65 Zn59 2.035 1_556 S
O66 Zn59 2.023 1_565 S
O66 C69 1.263 . S
O67 Zn61 2.035 1_554 S
O67 C69 1.258 . S
C68 O62 1.247 . S
C68 O63 1.258 . S
C69 O66 1.263 . S
C69 O67 1.258 . S
C70 O72 1.247 . S
C70 O74 1.258 . S
C71 O78 1.247 . S
C71 O79 1.258 . S
O72 C70 1.247 . S
O72 Zn73 2.028 . S
Zn73 O72 2.028 . S
Zn73 O77 2.035 . S
Zn73 O79 2.035 . S
Zn73 O80 2.028 . S
O74 C70 1.258 . S
O74 Zn75 2.035 . S
Zn75 O74 2.035 . S
Zn75 O76 2.028 . S
Zn75 O78 2.028 . S
Zn75 O81 2.035 . S
O76 Zn75 2.028 . S
O76 C82 1.247 . S
O77 Zn73 2.035 . S
O77 C82 1.258 . S
O78 C71 1.247 . S
O78 Zn75 2.028 . S
O79 C71 1.258 . S
O79 Zn73 2.035 . S
O80 Zn73 2.028 . S
O80 C83 1.247 . S
O81 Zn75 2.035 . S
O81 C83 1.258 . S
C82 O76 1.247 . S
C82 O77 1.258 . S
C83 O80 1.247 . S
C83 O81 1.258 . S
C84 C85 1.443 . S
C84 N88 1.376 . S
C84 C122 1.389 . S
C85 C84 1.443 . S
C85 C86 1.340 . S
C85 H125 0.951 . S
C86 C85 1.340 . S
C86 C87 1.439 . S
C86 H126 0.950 . S
C87 C86 1.439 . S
C87 N88 1.374 . S
C87 C121 1.395 . S
N88 C84 1.376 . S
N88 C87 1.374 . S
N88 Co89 2.008 . S
Co89 N88 2.008 . S
Co89 N90 1.995 . S
Co89 N95 2.008 . S
Co89 N100 1.995 . S
Co89 N105 2.282 . S
Co89 N111 2.282 . S
N90 Co89 1.995 . S
N90 C91 1.376 . S
N90 C94 1.383 . S
C91 N90 1.376 . S
C91 C92 1.446 . S
C91 C121 1.391 . S
C92 C91 1.446 . S
C92 C93 1.339 . S
C92 H127 0.949 . S
C93 C92 1.339 . S
C93 C94 1.439 . S
C93 H128 0.950 . S
C94 N90 1.383 . S
C94 C93 1.439 . S
C94 C123 1.392 . S
N95 Co89 2.008 . S
N95 C96 1.376 . S
N95 C99 1.374 . S
C96 N95 1.376 . S
C96 C97 1.443 . S
C96 C123 1.389 . S
C97 C96 1.443 . S
C97 C98 1.340 . S
C97 H129 0.951 . S
C98 C97 1.340 . S
C98 C99 1.439 . S
C98 H130 0.950 . S
C99 N95 1.374 . S
C99 C98 1.439 . S
C99 C124 1.395 . S
N100 Co89 1.995 . S
N100 C101 1.376 . S
N100 C104 1.383 . S
C101 N100 1.376 . S
C101 C102 1.446 . S
C101 C124 1.391 . S
C102 C101 1.446 . S
C102 C103 1.339 . S
C102 H131 0.949 . S
C103 C102 1.339 . S
C103 C104 1.439 . S
C103 H132 0.950 . S
C104 N100 1.383 . S
C104 C103 1.439 . S
C104 C122 1.392 . S
N105 Co89 2.282 . S
N105 C108 1.332 . S
N105 C110 1.332 . S
C106 C107 1.386 . S
C106 C109 1.388 . S
C107 C106 1.386 . S
C107 C108 1.382 . S
C107 H133 0.950 . S
C108 N105 1.332 . S
C108 C107 1.382 . S
C108 H119 0.952 . S
C109 C106 1.388 . S
C109 C110 1.382 . S
C109 H134 0.950 . S
C110 N105 1.332 . S
C110 C109 1.382 . S
C110 H120 0.948 . S
N111 Co89 2.282 . S
N111 C115 1.332 . S
N111 C116 1.332 . S
C112 C113 1.388 . S
C112 C116 1.382 . S
C112 H135 0.950 . S
C113 C112 1.388 . S
C113 C114 1.386 . S
C114 C113 1.386 . S
C114 C115 1.382 . S
C114 H136 0.950 . S
C115 N111 1.332 . S
C115 C114 1.382 . S
C115 H117 0.952 . S
C116 N111 1.332 . S
C116 C112 1.382 . S
C116 H118 0.948 . S
H117 C115 0.952 . S
H118 C116 0.948 . S
H119 C108 0.952 . S
H120 C110 0.948 . S
C121 C87 1.395 . S
C121 C91 1.391 . S
C122 C84 1.389 . S
C122 C104 1.392 . S
C123 C94 1.392 . S
C123 C96 1.389 . S
C124 C99 1.395 . S
C124 C101 1.391 . S
H125 C85 0.951 . S
H126 C86 0.950 . S
H127 C92 0.949 . S
H128 C93 0.950 . S
H129 C97 0.951 . S
H130 C98 0.950 . S
H131 C102 0.949 . S
H132 C103 0.950 . S
H133 C107 0.950 . S
H134 C109 0.950 . S
H135 C112 0.950 . S
H136 C114 0.950 . S
C137 C138 1.443 . S
C137 N141 1.376 . S
C137 C175 1.389 . S
C138 C137 1.443 . S
C138 C139 1.340 . S
C138 H178 0.951 . S
C139 C138 1.340 . S
C139 C140 1.439 . S
C139 H179 0.950 . S
C140 C139 1.439 . S
C140 N141 1.374 . S
C140 C174 1.395 . S
N141 C137 1.376 . S
N141 C140 1.374 . S
N141 Co142 2.008 . S
Co142 N141 2.008 . S
Co142 N143 1.995 . S
Co142 N148 2.008 . S
Co142 N153 1.995 . S
Co142 N158 2.282 . S
Co142 N164 2.282 . S
N143 Co142 1.995 . S
N143 C144 1.376 . S
N143 C147 1.383 . S
C144 N143 1.376 . S
C144 C145 1.446 . S
C144 C174 1.391 . S
C145 C144 1.446 . S
C145 C146 1.339 . S
C145 H180 0.949 . S
C146 C145 1.339 . S
C146 C147 1.439 . S
C146 H181 0.950 . S
C147 N143 1.383 . S
C147 C146 1.439 . S
C147 C176 1.392 . S
N148 Co142 2.008 . S
N148 C149 1.376 . S
N148 C152 1.374 . S
C149 N148 1.376 . S
C149 C150 1.443 . S
C149 C176 1.389 . S
C150 C149 1.443 . S
C150 C151 1.340 . S
C150 H182 0.951 . S
C151 C150 1.340 . S
C151 C152 1.439 . S
C151 H183 0.950 . S
C152 N148 1.374 . S
C152 C151 1.439 . S
C152 C177 1.395 . S
N153 Co142 1.995 . S
N153 C154 1.376 . S
N153 C157 1.383 . S
C154 N153 1.376 . S
C154 C155 1.446 . S
C154 C177 1.391 . S
C155 C154 1.446 . S
C155 C156 1.339 . S
C155 H184 0.949 . S
C156 C155 1.339 . S
C156 C157 1.439 . S
C156 H185 0.950 . S
C157 N153 1.383 . S
C157 C156 1.439 . S
C157 C175 1.392 . S
N158 Co142 2.282 . S
N158 C161 1.332 . S
N158 C163 1.332 . S
C159 C160 1.386 . S
C159 C162 1.388 . S
C160 C159 1.386 . S
C160 C161 1.382 . S
C160 H186 0.950 . S
C161 N158 1.332 . S
C161 C160 1.382 . S
C161 H172 0.952 . S
C162 C159 1.388 . S
C162 C163 1.382 . S
C162 H187 0.950 . S
C163 N158 1.332 . S
C163 C162 1.382 . S
C163 H173 0.948 . S
N164 Co142 2.282 . S
N164 C168 1.332 . S
N164 C169 1.332 . S
C165 C166 1.388 . S
C165 C169 1.382 . S
C165 H188 0.950 . S
C166 C165 1.388 . S
C166 C167 1.386 . S
C167 C166 1.386 . S
C167 C168 1.382 . S
C167 H189 0.950 . S
C168 N164 1.332 . S
C168 C167 1.382 . S
C168 H170 0.952 . S
C169 N164 1.332 . S
C169 C165 1.382 . S
C169 H171 0.948 . S
H170 C168 0.952 . S
H171 C169 0.948 . S
H172 C161 0.952 . S
H173 C163 0.948 . S
C174 C140 1.395 . S
C174 C144 1.391 . S
C175 C137 1.389 . S
C175 C157 1.392 . S
C176 C147 1.392 . S
C176 C149 1.389 . S
C177 C152 1.395 . S
C177 C154 1.391 . S
H178 C138 0.951 . S
H179 C139 0.950 . S
H180 C145 0.949 . S
H181 C146 0.950 . S
H182 C150 0.951 . S
H183 C151 0.950 . S
H184 C155 0.949 . S
H185 C156 0.950 . S
H186 C160 0.950 . S
H187 C162 0.950 . S
H188 C165 0.950 . S
H189 C167 0.950 . S
C190 C191 1.443 . S
C190 N194 1.376 . S
C190 C228 1.389 . S
C191 C190 1.443 . S
C191 C192 1.340 . S
C191 H231 0.951 . S
C192 C191 1.340 . S
C192 C193 1.439 . S
C192 H232 0.950 . S
C193 C192 1.439 . S
C193 N194 1.374 . S
C193 C227 1.395 . S
N194 C190 1.376 . S
N194 C193 1.374 . S
N194 Co195 2.008 . S
Co195 N194 2.008 . S
Co195 N196 1.995 . S
Co195 N201 2.008 . S
Co195 N206 1.995 . S
Co195 N211 2.282 . S
Co195 N217 2.282 . S
N196 Co195 1.995 . S
N196 C197 1.376 . S
N196 C200 1.383 . S
C197 N196 1.376 . S
C197 C198 1.446 . S
C197 C227 1.391 . S
C198 C197 1.446 . S
C198 C199 1.339 . S
C198 H233 0.949 . S
C199 C198 1.339 . S
C199 C200 1.439 . S
C199 H234 0.950 . S
C200 N196 1.383 . S
C200 C199 1.439 . S
C200 C229 1.392 . S
N201 Co195 2.008 . S
N201 C202 1.376 . S
N201 C205 1.374 . S
C202 N201 1.376 . S
C202 C203 1.443 . S
C202 C229 1.389 . S
C203 C202 1.443 . S
C203 C204 1.340 . S
C203 H235 0.951 . S
C204 C203 1.340 . S
C204 C205 1.439 . S
C204 H236 0.950 . S
C205 N201 1.374 . S
C205 C204 1.439 . S
C205 C230 1.395 . S
N206 Co195 1.995 . S
N206 C207 1.376 . S
N206 C210 1.383 . S
C207 N206 1.376 . S
C207 C208 1.446 . S
C207 C230 1.391 . S
C208 C207 1.446 . S
C208 C209 1.339 . S
C208 H237 0.949 . S
C209 C208 1.339 . S
C209 C210 1.439 . S
C209 H238 0.950 . S
C210 N206 1.383 . S
C210 C209 1.439 . S
C210 C228 1.392 . S
N211 Co195 2.282 . S
N211 C214 1.332 . S
N211 C216 1.332 . S
C212 C213 1.386 . S
C212 C215 1.388 . S
C213 C212 1.386 . S
C213 C214 1.382 . S
C213 H239 0.950 . S
C214 N211 1.332 . S
C214 C213 1.382 . S
C214 H225 0.952 . S
C215 C212 1.388 . S
C215 C216 1.382 . S
C215 H240 0.950 . S
C216 N211 1.332 . S
C216 C215 1.382 . S
C216 H226 0.948 . S
N217 Co195 2.282 . S
N217 C221 1.332 . S
N217 C222 1.332 . S
C218 C219 1.388 . S
C218 C222 1.382 . S
C218 H241 0.950 . S
C219 C218 1.388 . S
C219 C220 1.386 . S
C220 C219 1.386 . S
C220 C221 1.382 . S
C220 H242 0.950 . S
C221 N217 1.332 . S
C221 C220 1.382 . S
C221 H223 0.952 . S
C222 N217 1.332 . S
C222 C218 1.382 . S
C222 H224 0.948 . S
H223 C221 0.952 . S
H224 C222 0.948 . S
H225 C214 0.952 . S
H226 C216 0.948 . S
C227 C193 1.395 . S
C227 C197 1.391 . S
C228 C190 1.389 . S
C228 C210 1.392 . S
C229 C200 1.392 . S
C229 C202 1.389 . S
C230 C205 1.395 . S
C230 C207 1.391 . S
H231 C191 0.951 . S
H232 C192 0.950 . S
H233 C198 0.949 . S
H234 C199 0.950 . S
H235 C203 0.951 . S
H236 C204 0.950 . S
H237 C208 0.949 . S
H238 C209 0.950 . S
H239 C213 0.950 . S
H240 C215 0.950 . S
H241 C218 0.950 . S
H242 C220 0.950 . S
C243 C244 1.443 . S
C243 N247 1.376 . S
C243 C281 1.389 . S
C244 C243 1.443 . S
C244 C245 1.340 . S
C244 H284 0.951 . S
C245 C244 1.340 . S
C245 C246 1.439 . S
C245 H285 0.950 . S
C246 C245 1.439 . S
C246 N247 1.374 . S
C246 C280 1.395 . S
N247 C243 1.376 . S
N247 C246 1.374 . S
N247 Co248 2.008 . S
Co248 N247 2.008 . S
Co248 N249 1.995 . S
Co248 N254 2.008 . S
Co248 N259 1.995 . S
Co248 N264 2.282 . S
Co248 N270 2.282 . S
N249 Co248 1.995 . S
N249 C250 1.376 . S
N249 C253 1.383 . S
C250 N249 1.376 . S
C250 C251 1.446 . S
C250 C280 1.391 . S
C251 C250 1.446 . S
C251 C252 1.339 . S
C251 H286 0.949 . S
C252 C251 1.339 . S
C252 C253 1.439 . S
C252 H287 0.950 . S
C253 N249 1.383 . S
C253 C252 1.439 . S
C253 C282 1.392 . S
N254 Co248 2.008 . S
N254 C255 1.376 . S
N254 C258 1.374 . S
C255 N254 1.376 . S
C255 C256 1.443 . S
C255 C282 1.389 . S
C256 C255 1.443 . S
C256 C257 1.340 . S
C256 H288 0.951 . S
C257 C256 1.340 . S
C257 C258 1.439 . S
C257 H289 0.950 . S
C258 N254 1.374 . S
C258 C257 1.439 . S
C258 C283 1.395 . S
N259 Co248 1.995 . S
N259 C260 1.376 . S
N259 C263 1.383 . S
C260 N259 1.376 . S
C260 C261 1.446 . S
C260 C283 1.391 . S
C261 C260 1.446 . S
C261 C262 1.339 . S
C261 H290 0.949 . S
C262 C261 1.339 . S
C262 C263 1.439 . S
C262 H291 0.950 . S
C263 N259 1.383 . S
C263 C262 1.439 . S
C263 C281 1.392 . S
N264 Co248 2.282 . S
N264 C267 1.332 . S
N264 C269 1.332 . S
C265 C266 1.386 . S
C265 C268 1.388 . S
C266 C265 1.386 . S
C266 C267 1.382 . S
C266 H292 0.950 . S
C267 N264 1.332 . S
C267 C266 1.382 . S
C267 H278 0.952 . S
C268 C265 1.388 . S
C268 C269 1.382 . S
C268 H293 0.950 . S
C269 N264 1.332 . S
C269 C268 1.382 . S
C269 H279 0.948 . S
N270 Co248 2.282 . S
N270 C274 1.332 . S
N270 C275 1.332 . S
C271 C272 1.388 . S
C271 C275 1.382 . S
C271 H294 0.950 . S
C272 C271 1.388 . S
C272 C273 1.386 . S
C273 C272 1.386 . S
C273 C274 1.382 . S
C273 H295 0.950 . S
C274 N270 1.332 . S
C274 C273 1.382 . S
C274 H276 0.952 . S
C275 N270 1.332 . S
C275 C271 1.382 . S
C275 H277 0.948 . S
H276 C274 0.952 . S
H277 C275 0.948 . S
H278 C267 0.952 . S
H279 C269 0.948 . S
C280 C246 1.395 . S
C280 C250 1.391 . S
C281 C243 1.389 . S
C281 C263 1.392 . S
C282 C253 1.392 . S
C282 C255 1.389 . S
C283 C258 1.395 . S
C283 C260 1.391 . S
H284 C244 0.951 . S
H285 C245 0.950 . S
H286 C251 0.949 . S
H287 C252 0.950 . S
H288 C256 0.951 . S
H289 C257 0.950 . S
H290 C261 0.949 . S
H291 C262 0.950 . S
H292 C266 0.950 . S
H293 C268 0.950 . S
H294 C271 0.950 . S
H295 C273 0.950 . S
C296 C297 1.443 . S
C296 N300 1.376 . S
C296 C334 1.389 . S
C297 C296 1.443 . S
C297 C298 1.340 . S
C297 H337 0.951 . S
C298 C297 1.340 . S
C298 C299 1.439 . S
C298 H338 0.950 . S
C299 C298 1.439 . S
C299 N300 1.374 . S
C299 C333 1.395 . S
N300 C296 1.376 . S
N300 C299 1.374 . S
N300 Co301 2.008 . S
Co301 N300 2.008 . S
Co301 N302 1.995 . S
Co301 N307 2.008 . S
Co301 N312 1.995 . S
Co301 N317 2.282 . S
Co301 N323 2.282 . S
N302 Co301 1.995 . S
N302 C303 1.376 . S
N302 C306 1.383 . S
C303 N302 1.376 . S
C303 C304 1.446 . S
C303 C333 1.391 . S
C304 C303 1.446 . S
C304 C305 1.339 . S
C304 H339 0.949 . S
C305 C304 1.339 . S
C305 C306 1.439 . S
C305 H340 0.950 . S
C306 N302 1.383 . S
C306 C305 1.439 . S
C306 C335 1.392 . S
N307 Co301 2.008 . S
N307 C308 1.376 . S
N307 C311 1.374 . S
C308 N307 1.376 . S
C308 C309 1.443 . S
C308 C335 1.389 . S
C309 C308 1.443 . S
C309 C310 1.340 . S
C309 H341 0.951 . S
C310 C309 1.340 . S
C310 C311 1.439 . S
C310 H342 0.950 . S
C311 N307 1.374 . S
C311 C310 1.439 . S
C311 C336 1.395 . S
N312 Co301 1.995 . S
N312 C313 1.376 . S
N312 C316 1.383 . S
C313 N312 1.376 . S
C313 C314 1.446 . S
C313 C336 1.391 . S
C314 C313 1.446 . S
C314 C315 1.339 . S
C314 H343 0.949 . S
C315 C314 1.339 . S
C315 C316 1.439 . S
C315 H344 0.950 . S
C316 N312 1.383 . S
C316 C315 1.439 . S
C316 C334 1.392 . S
N317 Co301 2.282 . S
N317 C320 1.332 . S
N317 C322 1.332 . S
C318 C319 1.386 . S
C318 C321 1.388 . S
C319 C318 1.386 . S
C319 C320 1.382 . S
C319 H345 0.950 . S
C320 N317 1.332 . S
C320 C319 1.382 . S
C320 H331 0.952 . S
C321 C318 1.388 . S
C321 C322 1.382 . S
C321 H346 0.950 . S
C322 N317 1.332 . S
C322 C321 1.382 . S
C322 H332 0.948 . S
N323 Co301 2.282 . S
N323 C327 1.332 . S
N323 C328 1.332 . S
C324 C325 1.388 . S
C324 C328 1.382 . S
C324 H347 0.950 . S
C325 C324 1.388 . S
C325 C326 1.386 . S
C326 C325 1.386 . S
C326 C327 1.382 . S
C326 H348 0.950 . S
C327 N323 1.332 . S
C327 C326 1.382 . S
C327 H329 0.952 . S
C328 N323 1.332 . S
C328 C324 1.382 . S
C328 H330 0.948 . S
H329 C327 0.952 . S
H330 C328 0.948 . S
H331 C320 0.952 . S
H332 C322 0.948 . S
C333 C299 1.395 . S
C333 C303 1.391 . S
C334 C296 1.389 . S
C334 C316 1.392 . S
C335 C306 1.392 . S
C335 C308 1.389 . S
C336 C311 1.395 . S
C336 C313 1.391 . S
H337 C297 0.951 . S
H338 C298 0.950 . S
H339 C304 0.949 . S
H340 C305 0.950 . S
H341 C309 0.951 . S
H342 C310 0.950 . S
H343 C314 0.949 . S
H344 C315 0.950 . S
H345 C319 0.950 . S
H346 C321 0.950 . S
H347 C324 0.950 . S
H348 C326 0.950 . S
C349 C350 1.443 . S
C349 N353 1.376 . S
C349 C387 1.389 . S
C350 C349 1.443 . S
C350 C351 1.340 . S
C350 H390 0.951 . S
C351 C350 1.340 . S
C351 C352 1.439 . S
C351 H391 0.950 . S
C352 C351 1.439 . S
C352 N353 1.374 . S
C352 C386 1.395 . S
N353 C349 1.376 . S
N353 C352 1.374 . S
N353 Co354 2.008 . S
Co354 N353 2.008 . S
Co354 N355 1.995 . S
Co354 N360 2.008 . S
Co354 N365 1.995 . S
Co354 N370 2.282 . S
Co354 N376 2.282 . S
N355 Co354 1.995 . S
N355 C356 1.376 . S
N355 C359 1.383 . S
C356 N355 1.376 . S
C356 C357 1.446 . S
C356 C386 1.391 . S
C357 C356 1.446 . S
C357 C358 1.339 . S
C357 H392 0.949 . S
C358 C357 1.339 . S
C358 C359 1.439 . S
C358 H393 0.950 . S
C359 N355 1.383 . S
C359 C358 1.439 . S
C359 C388 1.392 . S
N360 Co354 2.008 . S
N360 C361 1.376 . S
N360 C364 1.374 . S
C361 N360 1.376 . S
C361 C362 1.443 . S
C361 C388 1.389 . S
C362 C361 1.443 . S
C362 C363 1.340 . S
C362 H394 0.951 . S
C363 C362 1.340 . S
C363 C364 1.439 . S
C363 H395 0.950 . S
C364 N360 1.374 . S
C364 C363 1.439 . S
C364 C389 1.395 . S
N365 Co354 1.995 . S
N365 C366 1.376 . S
N365 C369 1.383 . S
C366 N365 1.376 . S
C366 C367 1.446 . S
C366 C389 1.391 . S
C367 C366 1.446 . S
C367 C368 1.339 . S
C367 H396 0.949 . S
C368 C367 1.339 . S
C368 C369 1.439 . S
C368 H397 0.950 . S
C369 N365 1.383 . S
C369 C368 1.439 . S
C369 C387 1.392 . S
N370 Co354 2.282 . S
N370 C373 1.332 . S
N370 C375 1.332 . S
C371 C372 1.386 . S
C371 C374 1.388 . S
C372 C371 1.386 . S
C372 C373 1.382 . S
C372 H398 0.950 . S
C373 N370 1.332 . S
C373 C372 1.382 . S
C373 H384 0.952 . S
C374 C371 1.388 . S
C374 C375 1.382 . S
C374 H399 0.950 . S
C375 N370 1.332 . S
C375 C374 1.382 . S
C375 H385 0.948 . S
N376 Co354 2.282 . S
N376 C380 1.332 . S
N376 C381 1.332 . S
C377 C378 1.388 . S
C377 C381 1.382 . S
C377 H400 0.950 . S
C378 C377 1.388 . S
C378 C379 1.386 . S
C379 C378 1.386 . S
C379 C380 1.382 . S
C379 H401 0.950 . S
C380 N376 1.332 . S
C380 C379 1.382 . S
C380 H382 0.952 . S
C381 N376 1.332 . S
C381 C377 1.382 . S
C381 H383 0.948 . S
H382 C380 0.952 . S
H383 C381 0.948 . S
H384 C373 0.952 . S
H385 C375 0.948 . S
C386 C352 1.395 . S
C386 C356 1.391 . S
C387 C349 1.389 . S
C387 C369 1.392 . S
C388 C359 1.392 . S
C388 C361 1.389 . S
C389 C364 1.395 . S
C389 C366 1.391 . S
H390 C350 0.951 . S
H391 C351 0.950 . S
H392 C357 0.949 . S
H393 C358 0.950 . S
H394 C362 0.951 . S
H395 C363 0.950 . S
H396 C367 0.949 . S
H397 C368 0.950 . S
H398 C372 0.950 . S
H399 C374 0.950 . S
H400 C377 0.950 . S
H401 C379 0.950 . S
H402 C420 0.951 . S
H403 C422 0.951 . S
H404 C424 0.950 . S
H405 C425 0.950 . S
H406 C427 0.950 . S
H407 C430 0.950 . S
H408 C431 0.950 . S
H409 C433 0.950 . S
H410 C434 0.950 . S
H411 C435 0.951 . S
H412 C437 0.951 . S
H413 C439 0.950 . S
H414 C440 0.950 . S
H415 C442 0.950 . S
H416 C445 0.950 . S
H417 C446 0.950 . S
H418 C448 0.950 . S
H419 C449 0.950 . S
C420 H402 0.951 . S
C420 C421 1.366 . S
C420 C422 1.388 . S
C421 C420 1.366 . S
C421 C425 1.385 . S
C422 H403 0.951 . S
C422 C420 1.388 . S
C422 C423 1.366 . S
C423 C422 1.366 . S
C423 C424 1.414 . S
C423 C426 1.499 . S
C424 H404 0.950 . S
C424 C423 1.414 . S
C424 C425 1.374 . S
C425 H405 0.950 . S
C425 C421 1.385 . S
C425 C424 1.374 . S
C426 C423 1.499 . S
C426 C427 1.373 . S
C426 C428 1.389 . S
C427 H406 0.950 . S
C427 C426 1.373 . S
C427 C443 1.377 . S
C428 C426 1.389 . S
C428 C429 1.524 . S
C428 C442 1.377 . S
C429 C428 1.524 . S
C429 C430 1.397 . S
C429 C434 1.363 . S
C430 H407 0.950 . S
C430 C429 1.397 . S
C430 C431 1.334 . S
C431 H408 0.950 . S
C431 C430 1.334 . S
C431 C432 1.287 . S
C432 C431 1.287 . S
C432 C433 1.524 . S
C432 H451 0.913 . S
C433 H409 0.950 . S
C433 C432 1.524 . S
C433 C434 1.415 . S
C434 H410 0.950 . S
C434 C429 1.363 . S
C434 C433 1.415 . S
C435 H411 0.951 . S
C435 C436 1.366 . S
C435 C437 1.388 . S
C436 C435 1.366 . S
C436 C440 1.385 . S
C437 H412 0.951 . S
C437 C435 1.388 . S
C437 C438 1.366 . S
C438 C437 1.366 . S
C438 C439 1.414 . S
C438 C441 1.499 . S
C439 H413 0.950 . S
C439 C438 1.414 . S
C439 C440 1.374 . S
C440 H414 0.950 . S
C440 C436 1.385 . S
C440 C439 1.374 . S
C441 C438 1.499 . S
C441 C442 1.373 . S
C441 C443 1.389 . S
C442 H415 0.950 . S
C442 C428 1.377 . S
C442 C441 1.373 . S
C443 C427 1.377 . S
C443 C441 1.389 . S
C443 C444 1.524 . S
C444 C443 1.524 . S
C444 C445 1.397 . S
C444 C449 1.363 . S
C445 H416 0.950 . S
C445 C444 1.397 . S
C445 C446 1.334 . S
C446 H417 0.950 . S
C446 C445 1.334 . S
C446 C447 1.287 . S
C447 C446 1.287 . S
C447 C448 1.524 . S
C447 H450 0.999 . S
C448 H418 0.950 . S
C448 C447 1.524 . S
C448 C449 1.415 . S
C449 H419 0.950 . S
C449 C444 1.363 . S
C449 C448 1.415 . S
H450 C447 0.999 . S
H451 C432 0.913 . S
H452 C470 0.951 . S
H453 C472 0.951 . S
H454 C474 0.950 . S
H455 C475 0.950 . S
H456 C477 0.950 . S
H457 C480 0.950 . S
H458 C481 0.950 . S
H459 C483 0.950 . S
H460 C484 0.950 . S
H461 C485 0.951 . S
H462 C487 0.951 . S
H463 C489 0.950 . S
H464 C490 0.950 . S
H465 C492 0.950 . S
H466 C495 0.950 . S
H467 C496 0.950 . S
H468 C498 0.950 . S
H469 C499 0.950 . S
C470 H452 0.951 . S
C470 C471 1.366 . S
C470 C472 1.388 . S
C471 C470 1.366 . S
C471 C475 1.385 . S
C472 H453 0.951 . S
C472 C470 1.388 . S
C472 C473 1.366 . S
C473 C472 1.366 . S
C473 C474 1.414 . S
C473 C476 1.499 . S
C474 H454 0.950 . S
C474 C473 1.414 . S
C474 C475 1.374 . S
C475 H455 0.950 . S
C475 C471 1.385 . S
C475 C474 1.374 . S
C476 C473 1.499 . S
C476 C477 1.373 . S
C476 C478 1.389 . S
C477 H456 0.950 . S
C477 C476 1.373 . S
C477 C493 1.377 . S
C478 C476 1.389 . S
C478 C479 1.524 . S
C478 C492 1.377 . S
C479 C478 1.524 . S
C479 C480 1.397 . S
C479 C484 1.363 . S
C480 H457 0.950 . S
C480 C479 1.397 . S
C480 C481 1.334 . S
C481 H458 0.950 . S
C481 C480 1.334 . S
C481 C482 1.287 . S
C482 C481 1.287 . S
C482 C483 1.524 . S
C482 H501 0.913 . S
C483 H459 0.950 . S
C483 C482 1.524 . S
C483 C484 1.415 . S
C484 H460 0.950 . S
C484 C479 1.363 . S
C484 C483 1.415 . S
C485 H461 0.951 . S
C485 C486 1.366 . S
C485 C487 1.388 . S
C486 C485 1.366 . S
C486 C490 1.385 . S
C487 H462 0.951 . S
C487 C485 1.388 . S
C487 C488 1.366 . S
C488 C487 1.366 . S
C488 C489 1.414 . S
C488 C491 1.499 . S
C489 H463 0.950 . S
C489 C488 1.414 . S
C489 C490 1.374 . S
C490 H464 0.950 . S
C490 C486 1.385 . S
C490 C489 1.374 . S
C491 C488 1.499 . S
C491 C492 1.373 . S
C491 C493 1.389 . S
C492 H465 0.950 . S
C492 C478 1.377 . S
C492 C491 1.373 . S
C493 C477 1.377 . S
C493 C491 1.389 . S
C493 C494 1.524 . S
C494 C493 1.524 . S
C494 C495 1.397 . S
C494 C499 1.363 . S
C495 H466 0.950 . S
C495 C494 1.397 . S
C495 C496 1.334 . S
C496 H467 0.950 . S
C496 C495 1.334 . S
C496 C497 1.287 . S
C497 C496 1.287 . S
C497 C498 1.524 . S
C497 H500 0.999 . S
C498 H468 0.950 . S
C498 C497 1.524 . S
C498 C499 1.415 . S
C499 H469 0.950 . S
C499 C494 1.363 . S
C499 C498 1.415 . S
H500 C497 0.999 . S
H501 C482 0.913 . S
H502 C520 0.951 . S
H503 C522 0.951 . S
H504 C524 0.950 . S
H505 C525 0.950 . S
H506 C527 0.950 . S
H507 C530 0.950 . S
H508 C531 0.950 . S
H509 C533 0.950 . S
H510 C534 0.950 . S
H511 C535 0.951 . S
H512 C537 0.951 . S
H513 C539 0.950 . S
H514 C540 0.950 . S
H515 C542 0.950 . S
H516 C545 0.950 . S
H517 C546 0.950 . S
H518 C548 0.950 . S
H519 C549 0.950 . S
C520 H502 0.951 . S
C520 C521 1.366 . S
C520 C522 1.388 . S
C521 C520 1.366 . S
C521 C525 1.385 . S
C522 H503 0.951 . S
C522 C520 1.388 . S
C522 C523 1.366 . S
C523 C522 1.366 . S
C523 C524 1.414 . S
C523 C526 1.499 . S
C524 H504 0.950 . S
C524 C523 1.414 . S
C524 C525 1.374 . S
C525 H505 0.950 . S
C525 C521 1.385 . S
C525 C524 1.374 . S
C526 C523 1.499 . S
C526 C527 1.373 . S
C526 C528 1.389 . S
C527 H506 0.950 . S
C527 C526 1.373 . S
C527 C543 1.377 . S
C528 C526 1.389 . S
C528 C529 1.524 . S
C528 C542 1.377 . S
C529 C528 1.524 . S
C529 C530 1.397 . S
C529 C534 1.363 . S
C530 H507 0.950 . S
C530 C529 1.397 . S
C530 C531 1.334 . S
C531 H508 0.950 . S
C531 C530 1.334 . S
C531 C532 1.287 . S
C532 C531 1.287 . S
C532 C533 1.524 . S
C532 H551 0.913 . S
C533 H509 0.950 . S
C533 C532 1.524 . S
C533 C534 1.415 . S
C534 H510 0.950 . S
C534 C529 1.363 . S
C534 C533 1.415 . S
C535 H511 0.951 . S
C535 C536 1.366 . S
C535 C537 1.388 . S
C536 C535 1.366 . S
C536 C540 1.385 . S
C537 H512 0.951 . S
C537 C535 1.388 . S
C537 C538 1.366 . S
C538 C537 1.366 . S
C538 C539 1.414 . S
C538 C541 1.499 . S
C539 H513 0.950 . S
C539 C538 1.414 . S
C539 C540 1.374 . S
C540 H514 0.950 . S
C540 C536 1.385 . S
C540 C539 1.374 . S
C541 C538 1.499 . S
C541 C542 1.373 . S
C541 C543 1.389 . S
C542 H515 0.950 . S
C542 C528 1.377 . S
C542 C541 1.373 . S
C543 C527 1.377 . S
C543 C541 1.389 . S
C543 C544 1.524 . S
C544 C543 1.524 . S
C544 C545 1.397 . S
C544 C549 1.363 . S
C545 H516 0.950 . S
C545 C544 1.397 . S
C545 C546 1.334 . S
C546 H517 0.950 . S
C546 C545 1.334 . S
C546 C547 1.287 . S
C547 C546 1.287 . S
C547 C548 1.524 . S
C547 H550 0.999 . S
C548 H518 0.950 . S
C548 C547 1.524 . S
C548 C549 1.415 . S
C549 H519 0.950 . S
C549 C544 1.363 . S
C549 C548 1.415 . S
H550 C547 0.999 . S
H551 C532 0.913 . S
H552 C570 0.951 . S
H553 C572 0.951 . S
H554 C574 0.950 . S
H555 C575 0.950 . S
H556 C577 0.950 . S
H557 C580 0.950 . S
H558 C581 0.955 1_455 S
H559 C583 0.950 . S
H560 C584 0.950 . S
H561 C585 0.951 . S
H562 C587 0.951 . S
H563 C589 0.950 . S
H564 C590 0.950 . S
H565 C592 0.950 . S
H566 C595 0.950 . S
H567 C596 0.950 . S
H568 C598 0.950 . S
H569 C599 0.950 . S
C570 H552 0.951 . S
C570 C571 1.366 . S
C570 C572 1.388 . S
C571 C570 1.366 . S
C571 C575 1.385 . S
C572 H553 0.951 . S
C572 C570 1.388 . S
C572 C573 1.366 . S
C573 C572 1.366 . S
C573 C574 1.414 . S
C573 C576 1.499 . S
C574 H554 0.950 . S
C574 C573 1.414 . S
C574 C575 1.374 . S
C575 H555 0.950 . S
C575 C571 1.385 . S
C575 C574 1.374 . S
C576 C573 1.499 . S
C576 C577 1.373 . S
C576 C578 1.389 . S
C577 H556 0.950 . S
C577 C576 1.373 . S
C577 C593 1.377 . S
C578 C576 1.389 . S
C578 C579 1.524 . S
C578 C592 1.377 . S
C579 C578 1.524 . S
C579 C580 1.397 . S
C579 C584 1.363 . S
C580 H557 0.950 . S
C580 C579 1.397 . S
C580 C581 1.328 . S
C581 H558 0.955 1_655 S
C581 C580 1.328 . S
C581 C582 1.288 1_655 S
C582 C581 1.288 1_455 S
C582 C583 1.524 . S
C582 H601 0.913 . S
C583 H559 0.950 . S
C583 C582 1.524 . S
C583 C584 1.415 1_455 S
C584 H560 0.950 . S
C584 C579 1.363 . S
C584 C583 1.415 1_655 S
C585 H561 0.951 . S
C585 C586 1.366 . S
C585 C587 1.388 . S
C586 C585 1.366 . S
C586 C590 1.385 . S
C587 H562 0.951 . S
C587 C585 1.388 . S
C587 C588 1.366 . S
C588 C587 1.366 . S
C588 C589 1.414 . S
C588 C591 1.499 . S
C589 H563 0.950 . S
C589 C588 1.414 . S
C589 C590 1.374 . S
C590 H564 0.950 . S
C590 C586 1.385 . S
C590 C589 1.374 . S
C591 C588 1.499 . S
C591 C592 1.373 . S
C591 C593 1.389 . S
C592 H565 0.950 . S
C592 C578 1.377 . S
C592 C591 1.373 . S
C593 C577 1.377 . S
C593 C591 1.389 . S
C593 C594 1.524 . S
C594 C593 1.524 . S
C594 C595 1.397 . S
C594 C599 1.363 . S
C595 H566 0.950 . S
C595 C594 1.397 . S
C595 C596 1.334 . S
C596 H567 0.950 . S
C596 C595 1.334 . S
C596 C597 1.287 . S
C597 C596 1.287 . S
C597 C598 1.524 . S
C597 H600 0.999 . S
C598 H568 0.950 . S
C598 C597 1.524 . S
C598 C599 1.415 . S
C599 H569 0.950 . S
C599 C594 1.363 . S
C599 C598 1.415 . S
H600 C597 0.999 . S
H601 C582 0.913 . S
H602 C620 0.951 . S
H603 C622 0.951 . S
H604 C624 0.950 . S
H605 C625 0.950 . S
H606 C627 0.950 . S
H607 C630 0.950 . S
H608 C631 0.950 . S
H609 C633 0.924 1_556 S
H610 C634 0.950 . S
H611 C635 0.951 . S
H612 C637 0.951 . S
H613 C639 0.950 . S
H614 C640 0.950 . S
H615 C642 0.950 . S
H616 C645 0.950 . S
H617 C646 0.950 . S
H618 C648 0.950 . S
H619 C649 0.950 . S
C620 H602 0.951 . S
C620 C621 1.366 . S
C620 C622 1.388 . S
C621 C620 1.366 . S
C621 C625 1.385 . S
C622 H603 0.951 . S
C622 C620 1.388 . S
C622 C623 1.366 . S
C623 C622 1.366 . S
C623 C624 1.414 . S
C623 C626 1.499 . S
C624 H604 0.950 . S
C624 C623 1.414 . S
C624 C625 1.374 . S
C625 H605 0.950 . S
C625 C621 1.385 . S
C625 C624 1.374 . S
C626 C623 1.499 . S
C626 C627 1.373 . S
C626 C628 1.389 . S
C627 H606 0.950 . S
C627 C626 1.373 . S
C627 C643 1.377 . S
C628 C626 1.389 . S
C628 C629 1.524 . S
C628 C642 1.377 . S
C629 C628 1.524 . S
C629 C630 1.397 . S
C629 C634 1.363 . S
C630 H607 0.950 . S
C630 C629 1.397 . S
C630 C631 1.334 . S
C631 H608 0.950 . S
C631 C630 1.334 . S
C631 C632 1.287 . S
C632 C631 1.287 . S
C632 C633 1.524 . S
C632 H651 0.913 . S
C633 H609 0.924 1_554 S
C633 C632 1.524 . S
C633 C634 1.415 . S
C634 H610 0.950 . S
C634 C629 1.363 . S
C634 C633 1.415 . S
C635 H611 0.951 . S
C635 C636 1.366 . S
C635 C637 1.388 . S
C636 C635 1.366 . S
C636 C640 1.385 . S
C637 H612 0.951 . S
C637 C635 1.388 . S
C637 C638 1.366 . S
C638 C637 1.366 . S
C638 C639 1.414 . S
C638 C641 1.499 . S
C639 H613 0.950 . S
C639 C638 1.414 . S
C639 C640 1.374 . S
C640 H614 0.950 . S
C640 C636 1.385 . S
C640 C639 1.374 . S
C641 C638 1.499 . S
C641 C642 1.373 . S
C641 C643 1.389 . S
C642 H615 0.950 . S
C642 C628 1.377 . S
C642 C641 1.373 . S
C643 C627 1.377 . S
C643 C641 1.389 . S
C643 C644 1.524 . S
C644 C643 1.524 . S
C644 C645 1.397 . S
C644 C649 1.363 . S
C645 H616 0.950 . S
C645 C644 1.397 . S
C645 C646 1.334 . S
C646 H617 0.950 . S
C646 C645 1.334 . S
C646 C647 1.287 . S
C647 C646 1.287 . S
C647 C648 1.524 . S
C647 H650 0.999 . S
C648 H618 0.950 . S
C648 C647 1.524 . S
C648 C649 1.415 . S
C649 H619 0.950 . S
C649 C644 1.363 . S
C649 C648 1.415 . S
H650 C647 0.999 . S
H651 C632 0.913 . S
H652 C670 0.951 . S
H653 C672 0.951 . S
H654 C674 0.950 . S
H655 C675 0.950 . S
H656 C677 0.950 . S
H657 C680 0.950 . S
H658 C681 0.950 . S
H659 C683 0.950 . S
H660 C684 0.950 . S
H661 C685 0.951 . S
H662 C687 0.951 . S
H663 C689 0.950 . S
H664 C690 0.950 . S
H665 C692 0.950 . S
H666 C695 0.950 . S
H667 C696 0.950 . S
H668 C698 0.950 . S
H669 C699 0.950 . S
C670 H652 0.951 . S
C670 C671 1.366 . S
C670 C672 1.388 . S
C671 C670 1.366 . S
C671 C675 1.385 . S
C672 H653 0.951 . S
C672 C670 1.388 . S
C672 C673 1.366 . S
C673 C672 1.366 . S
C673 C674 1.414 . S
C673 C676 1.499 . S
C674 H654 0.950 . S
C674 C673 1.414 . S
C674 C675 1.374 . S
C675 H655 0.950 . S
C675 C671 1.385 . S
C675 C674 1.374 . S
C676 C673 1.499 . S
C676 C677 1.373 . S
C676 C678 1.389 . S
C677 H656 0.950 . S
C677 C676 1.373 . S
C677 C693 1.377 . S
C678 C676 1.389 . S
C678 C679 1.524 . S
C678 C692 1.377 . S
C679 C678 1.524 . S
C679 C680 1.397 . S
C679 C684 1.363 . S
C680 H657 0.950 . S
C680 C679 1.397 . S
C680 C681 1.334 . S
C681 H658 0.950 . S
C681 C680 1.334 . S
C681 C682 1.287 . S
C682 C681 1.287 . S
C682 C683 1.524 . S
C682 H701 0.913 . S
C683 H659 0.950 . S
C683 C682 1.524 . S
C683 C684 1.415 . S
C684 H660 0.950 . S
C684 C679 1.363 . S
C684 C683 1.415 . S
C685 H661 0.951 . S
C685 C686 1.366 . S
C685 C687 1.388 . S
C686 C685 1.366 . S
C686 C690 1.385 . S
C687 H662 0.951 . S
C687 C685 1.388 . S
C687 C688 1.366 . S
C688 C687 1.366 . S
C688 C689 1.414 . S
C688 C691 1.499 . S
C689 H663 0.950 . S
C689 C688 1.414 . S
C689 C690 1.374 . S
C690 H664 0.950 . S
C690 C686 1.385 . S
C690 C689 1.374 . S
C691 C688 1.499 . S
C691 C692 1.373 . S
C691 C693 1.389 . S
C692 H665 0.950 . S
C692 C678 1.377 . S
C692 C691 1.373 . S
C693 C677 1.377 . S
C693 C691 1.389 . S
C693 C694 1.524 . S
C694 C693 1.524 . S
C694 C695 1.397 . S
C694 C699 1.363 . S
C695 H666 0.950 . S
C695 C694 1.397 . S
C695 C696 1.334 . S
C696 H667 0.950 . S
C696 C695 1.334 . S
C696 C697 1.287 . S
C697 C696 1.287 . S
C697 C698 1.524 . S
C697 H700 0.999 . S
C698 H668 0.950 . S
C698 C697 1.524 . S
C698 C699 1.415 . S
C699 H669 0.950 . S
C699 C694 1.363 . S
C699 C698 1.415 . S
H700 C697 0.999 . S
H701 C682 0.913 . S
H702 C720 0.951 . S
H703 C722 0.951 . S
H704 C724 0.950 . S
H705 C725 0.950 . S
H706 C727 0.950 . S
H707 C730 0.950 . S
H708 C731 0.950 . S
H709 C733 0.950 . S
H710 C734 0.950 . S
H711 C735 0.951 . S
H712 C737 0.951 . S
H713 C739 0.950 . S
H714 C740 0.950 . S
H715 C742 0.950 . S
H716 C745 0.950 . S
H717 C746 0.950 . S
H718 C748 0.950 . S
H719 C749 0.950 . S
C720 H702 0.951 . S
C720 C721 1.366 . S
C720 C722 1.388 . S
C721 C720 1.366 . S
C721 C725 1.385 . S
C722 H703 0.951 . S
C722 C720 1.388 . S
C722 C723 1.366 . S
C723 C722 1.366 . S
C723 C724 1.414 . S
C723 C726 1.499 . S
C724 H704 0.950 . S
C724 C723 1.414 . S
C724 C725 1.374 . S
C725 H705 0.950 . S
C725 C721 1.385 . S
C725 C724 1.374 . S
C726 C723 1.499 . S
C726 C727 1.373 . S
C726 C728 1.389 . S
C727 H706 0.950 . S
C727 C726 1.373 . S
C727 C743 1.377 . S
C728 C726 1.389 . S
C728 C729 1.524 . S
C728 C742 1.377 . S
C729 C728 1.524 . S
C729 C730 1.397 . S
C729 C734 1.363 . S
C730 H707 0.950 . S
C730 C729 1.397 . S
C730 C731 1.334 . S
C731 H708 0.950 . S
C731 C730 1.334 . S
C731 C732 1.287 . S
C732 C731 1.287 . S
C732 C733 1.524 . S
C732 H751 0.913 . S
C733 H709 0.950 . S
C733 C732 1.524 . S
C733 C734 1.415 . S
C734 H710 0.950 . S
C734 C729 1.363 . S
C734 C733 1.415 . S
C735 H711 0.951 . S
C735 C736 1.366 . S
C735 C737 1.388 . S
C736 C735 1.366 . S
C736 C740 1.385 . S
C737 H712 0.951 . S
C737 C735 1.388 . S
C737 C738 1.366 . S
C738 C737 1.366 . S
C738 C739 1.414 . S
C738 C741 1.499 . S
C739 H713 0.950 . S
C739 C738 1.414 . S
C739 C740 1.374 . S
C740 H714 0.950 . S
C740 C736 1.385 . S
C740 C739 1.374 . S
C741 C738 1.499 . S
C741 C742 1.373 . S
C741 C743 1.389 . S
C742 H715 0.950 . S
C742 C728 1.377 . S
C742 C741 1.373 . S
C743 C727 1.377 . S
C743 C741 1.389 . S
C743 C744 1.524 . S
C744 C743 1.524 . S
C744 C745 1.397 . S
C744 C749 1.363 . S
C745 H716 0.950 . S
C745 C744 1.397 . S
C745 C746 1.334 . S
C746 H717 0.950 . S
C746 C745 1.334 . S
C746 C747 1.287 . S
C747 C746 1.287 . S
C747 C748 1.524 . S
C747 H750 0.999 . S
C748 H718 0.950 . S
C748 C747 1.524 . S
C748 C749 1.415 . S
C749 H719 0.950 . S
C749 C744 1.363 . S
C749 C748 1.415 . S
H750 C747 0.999 . S
H751 C732 0.913 . S
H752 C770 0.951 . S
H753 C772 0.951 . S
H754 C774 0.950 . S
H755 C775 0.950 . S
H756 C777 0.950 . S
H757 C780 0.950 . S
H758 C781 0.950 . S
H759 C783 0.950 . S
H760 C784 0.950 . S
H761 C785 0.951 . S
H762 C787 0.951 . S
H763 C789 0.950 . S
H764 C790 0.950 . S
H765 C792 0.950 . S
H766 C795 0.950 . S
H767 C796 0.950 . S
H768 C798 0.950 . S
H769 C799 0.950 . S
C770 H752 0.951 . S
C770 C771 1.366 . S
C770 C772 1.388 . S
C771 C770 1.366 . S
C771 C775 1.385 . S
C772 H753 0.951 . S
C772 C770 1.388 . S
C772 C773 1.366 . S
C773 C772 1.366 . S
C773 C774 1.414 . S
C773 C776 1.499 . S
C774 H754 0.950 . S
C774 C773 1.414 . S
C774 C775 1.374 . S
C775 H755 0.950 . S
C775 C771 1.385 . S
C775 C774 1.374 . S
C776 C773 1.499 . S
C776 C777 1.373 . S
C776 C778 1.389 . S
C777 H756 0.950 . S
C777 C776 1.373 . S
C777 C793 1.377 . S
C778 C776 1.389 . S
C778 C779 1.524 . S
C778 C792 1.377 . S
C779 C778 1.524 . S
C779 C780 1.397 . S
C779 C784 1.363 . S
C780 H757 0.950 . S
C780 C779 1.397 . S
C780 C781 1.334 . S
C781 H758 0.950 . S
C781 C780 1.334 . S
C781 C782 1.287 1_556 S
C782 C781 1.287 1_554 S
C782 C783 1.524 . S
C782 H801 0.913 . S
C783 H759 0.950 . S
C783 C782 1.524 . S
C783 C784 1.415 1_554 S
C784 H760 0.950 . S
C784 C779 1.363 . S
C784 C783 1.415 1_556 S
C785 H761 0.951 . S
C785 C786 1.366 . S
C785 C787 1.388 . S
C786 C785 1.366 . S
C786 C790 1.385 . S
C787 H762 0.951 . S
C787 C785 1.388 . S
C787 C788 1.366 . S
C788 C787 1.366 . S
C788 C789 1.414 . S
C788 C791 1.499 . S
C789 H763 0.950 . S
C789 C788 1.414 . S
C789 C790 1.374 . S
C790 H764 0.950 . S
C790 C786 1.385 . S
C790 C789 1.374 . S
C791 C788 1.499 . S
C791 C792 1.373 . S
C791 C793 1.389 . S
C792 H765 0.950 . S
C792 C778 1.377 . S
C792 C791 1.373 . S
C793 C777 1.377 . S
C793 C791 1.389 . S
C793 C794 1.524 . S
C794 C793 1.524 . S
C794 C795 1.397 . S
C794 C799 1.363 . S
C795 H766 0.950 . S
C795 C794 1.397 . S
C795 C796 1.334 . S
C796 H767 0.950 . S
C796 C795 1.334 . S
C796 C797 1.287 . S
C797 C796 1.287 . S
C797 C798 1.524 . S
C797 H800 0.999 . S
C798 H768 0.950 . S
C798 C797 1.524 . S
C798 C799 1.415 . S
C799 H769 0.950 . S
C799 C794 1.363 . S
C799 C798 1.415 . S
H800 C797 0.999 . S
H801 C782 0.913 . S
H802 C820 0.951 . S
H803 C822 0.951 . S
H804 C824 0.950 . S
H805 C825 0.950 . S
H806 C827 0.950 . S
H807 C830 0.950 . S
H808 C831 0.950 . S
H809 C833 0.950 . S
H810 C834 0.950 . S
H811 C835 0.951 . S
H812 C837 0.951 . S
H813 C839 0.950 . S
H814 C840 0.950 . S
H815 C842 0.950 . S
H816 C845 0.950 . S
H817 C846 0.950 . S
H818 C848 0.950 . S
H819 C849 0.950 . S
C820 H802 0.951 . S
C820 C821 1.366 . S
C820 C822 1.388 . S
C821 C820 1.366 . S
C821 C825 1.385 . S
C822 H803 0.951 . S
C822 C820 1.388 . S
C822 C823 1.366 . S
C823 C822 1.366 . S
C823 C824 1.414 . S
C823 C826 1.499 . S
C824 H804 0.950 . S
C824 C823 1.414 . S
C824 C825 1.374 . S
C825 H805 0.950 . S
C825 C821 1.385 . S
C825 C824 1.374 . S
C826 C823 1.499 . S
C826 C827 1.373 . S
C826 C828 1.389 . S
C827 H806 0.950 . S
C827 C826 1.373 . S
C827 C843 1.377 . S
C828 C826 1.389 . S
C828 C829 1.524 . S
C828 C842 1.377 . S
C829 C828 1.524 . S
C829 C830 1.397 . S
C829 C834 1.363 . S
C830 H807 0.950 . S
C830 C829 1.397 . S
C830 C831 1.334 1_455 S
C831 H808 0.950 . S
C831 C830 1.334 1_655 S
C831 C832 1.287 . S
C832 C831 1.287 . S
C832 C833 1.524 . S
C832 H851 0.913 . S
C833 H809 0.950 . S
C833 C832 1.524 . S
C833 C834 1.415 1_655 S
C834 H810 0.950 . S
C834 C829 1.363 . S
C834 C833 1.415 1_455 S
C835 H811 0.951 . S
C835 C836 1.366 . S
C835 C837 1.388 . S
C836 C835 1.366 . S
C836 C840 1.385 . S
C837 H812 0.951 . S
C837 C835 1.388 . S
C837 C838 1.366 . S
C838 C837 1.366 . S
C838 C839 1.414 . S
C838 C841 1.499 . S
C839 H813 0.950 . S
C839 C838 1.414 . S
C839 C840 1.374 . S
C840 H814 0.950 . S
C840 C836 1.385 . S
C840 C839 1.374 . S
C841 C838 1.499 . S
C841 C842 1.373 . S
C841 C843 1.389 . S
C842 H815 0.950 . S
C842 C828 1.377 . S
C842 C841 1.373 . S
C843 C827 1.377 . S
C843 C841 1.389 . S
C843 C844 1.524 . S
C844 C843 1.524 . S
C844 C845 1.397 . S
C844 C849 1.363 . S
C845 H816 0.950 . S
C845 C844 1.397 . S
C845 C846 1.334 . S
C846 H817 0.950 . S
C846 C845 1.334 . S
C846 C847 1.287 . S
C847 C846 1.287 . S
C847 C848 1.524 . S
C847 H850 0.999 . S
C848 H818 0.950 . S
C848 C847 1.524 . S
C848 C849 1.415 . S
C849 H819 0.950 . S
C849 C844 1.363 . S
C849 C848 1.415 . S
H850 C847 0.999 . S
H851 C832 0.913 . S
H852 C870 0.951 . S
H853 C872 0.951 . S
H854 C874 0.950 . S
H855 C875 0.950 . S
H856 C877 0.950 . S
H857 C880 0.950 . S
H858 C881 0.950 . S
H859 C883 0.950 1_565 S
H860 C884 0.950 . S
H861 C885 0.951 . S
H862 C887 0.951 . S
H863 C889 0.950 . S
H864 C890 0.950 . S
H865 C892 0.950 . S
H866 C895 0.950 . S
H867 C896 0.950 . S
H868 C898 0.950 . S
H869 C899 0.950 . S
C870 H852 0.951 . S
C870 C871 1.366 . S
C870 C872 1.388 . S
C871 C870 1.366 . S
C871 C875 1.385 . S
C872 H853 0.951 . S
C872 C870 1.388 . S
C872 C873 1.366 . S
C873 C872 1.366 . S
C873 C874 1.414 . S
C873 C876 1.499 . S
C874 H854 0.950 . S
C874 C873 1.414 . S
C874 C875 1.374 . S
C875 H855 0.950 . S
C875 C871 1.385 . S
C875 C874 1.374 . S
C876 C873 1.499 . S
C876 C877 1.373 . S
C876 C878 1.389 . S
C877 H856 0.950 . S
C877 C876 1.373 . S
C877 C893 1.377 . S
C878 C876 1.389 . S
C878 C879 1.524 . S
C878 C892 1.377 . S
C879 C878 1.524 . S
C879 C880 1.397 . S
C879 C884 1.363 . S
C880 H857 0.950 . S
C880 C879 1.397 . S
C880 C881 1.334 1_545 S
C881 H858 0.950 . S
C881 C880 1.334 1_565 S
C881 C882 1.287 . S
C882 C881 1.287 . S
C882 C883 1.524 1_565 S
C882 H901 0.913 . S
C883 H859 0.950 1_545 S
C883 C882 1.524 1_545 S
C883 C884 1.415 . S
C884 H860 0.950 . S
C884 C879 1.363 . S
C884 C883 1.415 . S
C885 H861 0.951 . S
C885 C886 1.366 . S
C885 C887 1.388 . S
C886 C885 1.366 . S
C886 C890 1.385 . S
C887 H862 0.951 . S
C887 C885 1.388 . S
C887 C888 1.366 . S
C888 C887 1.366 . S
C888 C889 1.414 . S
C888 C891 1.499 . S
C889 H863 0.950 . S
C889 C888 1.414 . S
C889 C890 1.374 . S
C890 H864 0.950 . S
C890 C886 1.385 . S
C890 C889 1.374 . S
C891 C888 1.499 . S
C891 C892 1.373 . S
C891 C893 1.389 . S
C892 H865 0.950 . S
C892 C878 1.377 . S
C892 C891 1.373 . S
C893 C877 1.377 . S
C893 C891 1.389 . S
C893 C894 1.524 . S
C894 C893 1.524 . S
C894 C895 1.397 . S
C894 C899 1.363 . S
C895 H866 0.950 . S
C895 C894 1.397 . S
C895 C896 1.334 . S
C896 H867 0.950 . S
C896 C895 1.334 . S
C896 C897 1.287 . S
C897 C896 1.287 . S
C897 C898 1.524 . S
C897 H900 0.999 . S
C898 H868 0.950 . S
C898 C897 1.524 . S
C898 C899 1.415 . S
C899 H869 0.950 . S
C899 C894 1.363 . S
C899 C898 1.415 . S
H900 C897 0.999 . S
H901 C882 0.913 . S
H902 C920 0.951 . S
H903 C922 0.951 . S
H904 C924 0.950 . S
H905 C925 0.950 . S
H906 C927 0.950 . S
H907 C930 0.950 . S
H908 C931 0.950 . S
H909 C933 0.950 . S
H910 C934 0.950 . S
H911 C935 0.951 . S
H912 C937 0.951 . S
H913 C939 0.950 . S
H914 C940 0.950 . S
H915 C942 0.950 . S
H916 C945 0.950 . S
H917 C946 0.950 . S
H918 C948 0.950 . S
H919 C949 0.950 . S
C920 H902 0.951 . S
C920 C921 1.366 . S
C920 C922 1.388 . S
C921 C920 1.366 . S
C921 C925 1.385 . S
C922 H903 0.951 . S
C922 C920 1.388 . S
C922 C923 1.366 . S
C923 C922 1.366 . S
C923 C924 1.414 . S
C923 C926 1.499 . S
C924 H904 0.950 . S
C924 C923 1.414 . S
C924 C925 1.374 . S
C925 H905 0.950 . S
C925 C921 1.385 . S
C925 C924 1.374 . S
C926 C923 1.499 . S
C926 C927 1.373 . S
C926 C928 1.389 . S
C927 H906 0.950 . S
C927 C926 1.373 . S
C927 C943 1.377 . S
C928 C926 1.389 . S
C928 C929 1.524 . S
C928 C942 1.377 . S
C929 C928 1.524 . S
C929 C930 1.397 . S
C929 C934 1.363 . S
C930 H907 0.950 . S
C930 C929 1.397 . S
C930 C931 1.334 . S
C931 H908 0.950 . S
C931 C930 1.334 . S
C931 C932 1.287 . S
C932 C931 1.287 . S
C932 C933 1.524 . S
C932 H951 0.913 . S
C933 H909 0.950 . S
C933 C932 1.524 . S
C933 C934 1.415 . S
C934 H910 0.950 . S
C934 C929 1.363 . S
C934 C933 1.415 . S
C935 H911 0.951 . S
C935 C936 1.366 . S
C935 C937 1.388 . S
C936 C935 1.366 . S
C936 C940 1.385 . S
C937 H912 0.951 . S
C937 C935 1.388 . S
C937 C938 1.366 . S
C938 C937 1.366 . S
C938 C939 1.414 . S
C938 C941 1.499 . S
C939 H913 0.950 . S
C939 C938 1.414 . S
C939 C940 1.374 . S
C940 H914 0.950 . S
C940 C936 1.385 . S
C940 C939 1.374 . S
C941 C938 1.499 . S
C941 C942 1.373 . S
C941 C943 1.389 . S
C942 H915 0.950 . S
C942 C928 1.377 . S
C942 C941 1.373 . S
C943 C927 1.377 . S
C943 C941 1.389 . S
C943 C944 1.524 . S
C944 C943 1.524 . S
C944 C945 1.397 . S
C944 C949 1.363 . S
C945 H916 0.950 . S
C945 C944 1.397 . S
C945 C946 1.334 . S
C946 H917 0.950 . S
C946 C945 1.334 . S
C946 C947 1.287 . S
C947 C946 1.287 . S
C947 C948 1.524 . S
C947 H950 0.999 . S
C948 H918 0.950 . S
C948 C947 1.524 . S
C948 C949 1.415 . S
C949 H919 0.950 . S
C949 C944 1.363 . S
C949 C948 1.415 . S
H950 C947 0.999 . S
H951 C932 0.913 . S
H952 C970 0.951 . S
H953 C972 0.951 . S
H954 C974 0.950 . S
H955 C975 0.950 . S
H956 C977 0.950 . S
H957 C980 0.950 . S
H958 C981 0.950 . S
H959 C983 0.950 1_455 S
H960 C984 0.950 . S
H961 C985 0.951 . S
H962 C987 0.951 . S
H963 C989 0.950 . S
H964 C990 0.950 . S
H965 C992 0.950 . S
H966 C995 0.950 . S
H967 C996 0.950 . S
H968 C998 0.950 . S
H969 C999 0.950 . S
C970 H952 0.951 . S
C970 C971 1.366 . S
C970 C972 1.388 . S
C971 C970 1.366 . S
C971 C975 1.385 . S
C972 H953 0.951 . S
C972 C970 1.388 . S
C972 C973 1.366 . S
C973 C972 1.366 . S
C973 C974 1.414 . S
C973 C976 1.499 . S
C974 H954 0.950 . S
C974 C973 1.414 . S
C974 C975 1.374 . S
C975 H955 0.950 . S
C975 C971 1.385 . S
C975 C974 1.374 . S
C976 C973 1.499 . S
C976 C977 1.373 . S
C976 C978 1.389 . S
C977 H956 0.950 . S
C977 C976 1.373 . S
C977 C993 1.377 . S
C978 C976 1.389 . S
C978 C979 1.524 . S
C978 C992 1.377 . S
C979 C978 1.524 . S
C979 C980 1.397 . S
C979 C984 1.363 . S
C980 H957 0.950 . S
C980 C979 1.397 . S
C980 C981 1.334 . S
C981 H958 0.950 . S
C981 C980 1.334 . S
C981 C982 1.287 . S
C982 C981 1.287 . S
C982 C983 1.524 . S
C982 H1001 0.913 1_655 S
C983 H959 0.950 1_655 S
C983 C982 1.524 . S
C983 C984 1.415 . S
C984 H960 0.950 . S
C984 C979 1.363 . S
C984 C983 1.415 . S
C985 H961 0.951 . S
C985 C986 1.366 . S
C985 C987 1.388 . S
C986 C985 1.366 . S
C986 C990 1.385 . S
C987 H962 0.951 . S
C987 C985 1.388 . S
C987 C988 1.366 . S
C988 C987 1.366 . S
C988 C989 1.414 . S
C988 C991 1.499 . S
C989 H963 0.950 . S
C989 C988 1.414 . S
C989 C990 1.374 . S
C990 H964 0.950 . S
C990 C986 1.385 . S
C990 C989 1.374 . S
C991 C988 1.499 . S
C991 C992 1.373 . S
C991 C993 1.389 . S
C992 H965 0.950 . S
C992 C978 1.377 . S
C992 C991 1.373 . S
C993 C977 1.377 . S
C993 C991 1.389 . S
C993 C994 1.524 . S
C994 C993 1.524 . S
C994 C995 1.397 . S
C994 C999 1.363 . S
C995 H966 0.950 . S
C995 C994 1.397 . S
C995 C996 1.334 . S
C996 H967 0.950 . S
C996 C995 1.334 . S
C996 C997 1.287 . S
C997 C996 1.287 . S
C997 C998 1.524 . S
C997 H1000 0.999 . S
C998 H968 0.950 . S
C998 C997 1.524 . S
C998 C999 1.415 . S
C999 H969 0.950 . S
C999 C994 1.363 . S
C999 C998 1.415 . S
H1000 C997 0.999 . S
H1001 C982 0.913 1_455 S
H1002 C1020 0.951 . S
H1003 C1022 0.951 . S
H1004 C1024 0.950 . S
H1005 C1025 0.950 . S
H1006 C1027 0.950 . S
H1007 C1030 0.950 . S
H1008 C1031 0.950 . S
H1009 C1033 0.950 1_455 S
H1010 C1034 0.950 . S
H1011 C1035 0.951 . S
H1012 C1037 0.951 . S
H1013 C1039 0.950 . S
H1014 C1040 0.950 . S
H1015 C1042 0.950 . S
H1016 C1045 0.950 . S
H1017 C1046 0.950 . S
H1018 C1048 0.950 . S
H1019 C1049 0.950 . S
C1020 H1002 0.951 . S
C1020 C1021 1.366 . S
C1020 C1022 1.388 . S
C1021 C1020 1.366 . S
C1021 C1025 1.385 . S
C1022 H1003 0.951 . S
C1022 C1020 1.388 . S
C1022 C1023 1.366 . S
C1023 C1022 1.366 . S
C1023 C1024 1.414 . S
C1023 C1026 1.499 . S
C1024 H1004 0.950 . S
C1024 C1023 1.414 . S
C1024 C1025 1.374 . S
C1025 H1005 0.950 . S
C1025 C1021 1.385 . S
C1025 C1024 1.374 . S
C1026 C1023 1.499 . S
C1026 C1027 1.373 . S
C1026 C1028 1.389 . S
C1027 H1006 0.950 . S
C1027 C1026 1.373 . S
C1027 C1043 1.377 . S
C1028 C1026 1.389 . S
C1028 C1029 1.524 . S
C1028 C1042 1.377 . S
C1029 C1028 1.524 . S
C1029 C1030 1.397 . S
C1029 C1034 1.363 . S
C1030 H1007 0.950 . S
C1030 C1029 1.397 . S
C1030 C1031 1.334 . S
C1031 H1008 0.950 . S
C1031 C1030 1.334 . S
C1031 C1032 1.287 1_655 S
C1032 C1031 1.287 1_455 S
C1032 C1033 1.524 1_455 S
C1032 H1051 0.913 . S
C1033 H1009 0.950 1_655 S
C1033 C1032 1.524 1_655 S
C1033 C1034 1.415 . S
C1034 H1010 0.950 . S
C1034 C1029 1.363 . S
C1034 C1033 1.415 . S
C1035 H1011 0.951 . S
C1035 C1036 1.366 . S
C1035 C1037 1.388 . S
C1036 C1035 1.366 . S
C1036 C1040 1.385 . S
C1037 H1012 0.951 . S
C1037 C1035 1.388 . S
C1037 C1038 1.366 . S
C1038 C1037 1.366 . S
C1038 C1039 1.414 . S
C1038 C1041 1.499 . S
C1039 H1013 0.950 . S
C1039 C1038 1.414 . S
C1039 C1040 1.374 . S
C1040 H1014 0.950 . S
C1040 C1036 1.385 . S
C1040 C1039 1.374 . S
C1041 C1038 1.499 . S
C1041 C1042 1.373 . S
C1041 C1043 1.389 . S
C1042 H1015 0.950 . S
C1042 C1028 1.377 . S
C1042 C1041 1.373 . S
C1043 C1027 1.377 . S
C1043 C1041 1.389 . S
C1043 C1044 1.524 . S
C1044 C1043 1.524 . S
C1044 C1045 1.397 . S
C1044 C1049 1.363 . S
C1045 H1016 0.950 . S
C1045 C1044 1.397 . S
C1045 C1046 1.334 . S
C1046 H1017 0.950 . S
C1046 C1045 1.334 . S
C1046 C1047 1.287 . S
C1047 C1046 1.287 . S
C1047 C1048 1.524 . S
C1047 H1050 0.999 . S
C1048 H1018 0.950 . S
C1048 C1047 1.524 . S
C1048 C1049 1.415 . S
C1049 H1019 0.950 . S
C1049 C1044 1.363 . S
C1049 C1048 1.415 . S
H1050 C1047 0.999 . S
H1051 C1032 0.913 . S
H1052 C1070 0.951 . S
H1053 C1072 0.951 . S
H1054 C1074 0.950 . S
H1055 C1075 0.950 . S
H1056 C1077 0.950 . S
H1057 C1080 0.950 . S
H1058 C1081 0.950 . S
H1059 C1083 0.950 . S
H1060 C1084 0.950 . S
H1061 C1085 0.951 . S
H1062 C1087 0.951 . S
H1063 C1089 0.950 . S
H1064 C1090 0.950 . S
H1065 C1092 0.950 . S
H1066 C1095 0.950 . S
H1067 C1096 0.950 . S
H1068 C1098 0.950 . S
H1069 C1099 0.950 . S
C1070 H1052 0.951 . S
C1070 C1071 1.366 . S
C1070 C1072 1.388 . S
C1071 C1070 1.366 . S
C1071 C1075 1.385 . S
C1072 H1053 0.951 . S
C1072 C1070 1.388 . S
C1072 C1073 1.366 . S
C1073 C1072 1.366 . S
C1073 C1074 1.414 . S
C1073 C1076 1.499 . S
C1074 H1054 0.950 . S
C1074 C1073 1.414 . S
C1074 C1075 1.374 . S
C1075 H1055 0.950 . S
C1075 C1071 1.385 . S
C1075 C1074 1.374 . S
C1076 C1073 1.499 . S
C1076 C1077 1.373 . S
C1076 C1078 1.389 . S
C1077 H1056 0.950 . S
C1077 C1076 1.373 . S
C1077 C1093 1.377 . S
C1078 C1076 1.389 . S
C1078 C1079 1.524 . S
C1078 C1092 1.377 . S
C1079 C1078 1.524 . S
C1079 C1080 1.397 . S
C1079 C1084 1.363 . S
C1080 H1057 0.950 . S
C1080 C1079 1.397 . S
C1080 C1081 1.334 . S
C1081 H1058 0.950 . S
C1081 C1080 1.334 . S
C1081 C1082 1.287 . S
C1082 C1081 1.287 . S
C1082 C1083 1.524 . S
C1082 H1101 0.913 . S
C1083 H1059 0.950 . S
C1083 C1082 1.524 . S
C1083 C1084 1.415 . S
C1084 H1060 0.950 . S
C1084 C1079 1.363 . S
C1084 C1083 1.415 . S
C1085 H1061 0.951 . S
C1085 C1086 1.366 . S
C1085 C1087 1.388 . S
C1086 C1085 1.366 . S
C1086 C1090 1.385 . S
C1087 H1062 0.951 . S
C1087 C1085 1.388 . S
C1087 C1088 1.366 . S
C1088 C1087 1.366 . S
C1088 C1089 1.414 . S
C1088 C1091 1.499 . S
C1089 H1063 0.950 . S
C1089 C1088 1.414 . S
C1089 C1090 1.374 . S
C1090 H1064 0.950 . S
C1090 C1086 1.385 . S
C1090 C1089 1.374 . S
C1091 C1088 1.499 . S
C1091 C1092 1.373 . S
C1091 C1093 1.389 . S
C1092 H1065 0.950 . S
C1092 C1078 1.377 . S
C1092 C1091 1.373 . S
C1093 C1077 1.377 . S
C1093 C1091 1.389 . S
C1093 C1094 1.524 . S
C1094 C1093 1.524 . S
C1094 C1095 1.397 . S
C1094 C1099 1.363 . S
C1095 H1066 0.950 . S
C1095 C1094 1.397 . S
C1095 C1096 1.334 . S
C1096 H1067 0.950 . S
C1096 C1095 1.334 . S
C1096 C1097 1.287 . S
C1097 C1096 1.287 . S
C1097 C1098 1.524 . S
C1097 H1100 0.999 . S
C1098 H1068 0.950 . S
C1098 C1097 1.524 . S
C1098 C1099 1.415 . S
C1099 H1069 0.950 . S
C1099 C1094 1.363 . S
C1099 C1098 1.415 . S
H1100 C1097 0.999 . S
H1101 C1082 0.913 . S
H1102 C1120 0.951 . S
H1103 C1122 0.951 . S
H1104 C1124 0.950 . S
H1105 C1125 0.950 . S
H1106 C1127 0.950 . S
H1107 C1130 0.950 . S
H1108 C1131 0.950 . S
H1109 C1133 0.950 . S
H1110 C1134 0.950 . S
H1111 C1135 0.951 . S
H1112 C1137 0.951 . S
H1113 C1139 0.950 . S
H1114 C1140 0.950 . S
H1115 C1142 0.950 . S
H1116 C1145 0.950 . S
H1117 C1146 0.950 . S
H1118 C1148 0.950 . S
H1119 C1149 0.950 . S
C1120 H1102 0.951 . S
C1120 C1121 1.366 . S
C1120 C1122 1.388 . S
C1121 C1120 1.366 . S
C1121 C1125 1.385 . S
C1122 H1103 0.951 . S
C1122 C1120 1.388 . S
C1122 C1123 1.366 . S
C1123 C1122 1.366 . S
C1123 C1124 1.414 . S
C1123 C1126 1.499 . S
C1124 H1104 0.950 . S
C1124 C1123 1.414 . S
C1124 C1125 1.374 . S
C1125 H1105 0.950 . S
C1125 C1121 1.385 . S
C1125 C1124 1.374 . S
C1126 C1123 1.499 . S
C1126 C1127 1.373 . S
C1126 C1128 1.389 . S
C1127 H1106 0.950 . S
C1127 C1126 1.373 . S
C1127 C1143 1.377 . S
C1128 C1126 1.389 . S
C1128 C1129 1.524 . S
C1128 C1142 1.377 . S
C1129 C1128 1.524 . S
C1129 C1130 1.397 . S
C1129 C1134 1.363 . S
C1130 H1107 0.950 . S
C1130 C1129 1.397 . S
C1130 C1131 1.334 . S
C1131 H1108 0.950 . S
C1131 C1130 1.334 . S
C1131 C1132 1.287 . S
C1132 C1131 1.287 . S
C1132 C1133 1.524 . S
C1132 H1151 0.913 1_556 S
C1133 H1109 0.950 . S
C1133 C1132 1.524 . S
C1133 C1134 1.415 . S
C1134 H1110 0.950 . S
C1134 C1129 1.363 . S
C1134 C1133 1.415 . S
C1135 H1111 0.951 . S
C1135 C1136 1.366 . S
C1135 C1137 1.388 . S
C1136 C1135 1.366 . S
C1136 C1140 1.385 . S
C1137 H1112 0.951 . S
C1137 C1135 1.388 . S
C1137 C1138 1.366 . S
C1138 C1137 1.366 . S
C1138 C1139 1.414 . S
C1138 C1141 1.499 . S
C1139 H1113 0.950 . S
C1139 C1138 1.414 . S
C1139 C1140 1.374 . S
C1140 H1114 0.950 . S
C1140 C1136 1.385 . S
C1140 C1139 1.374 . S
C1141 C1138 1.499 . S
C1141 C1142 1.373 . S
C1141 C1143 1.389 . S
C1142 H1115 0.950 . S
C1142 C1128 1.377 . S
C1142 C1141 1.373 . S
C1143 C1127 1.377 . S
C1143 C1141 1.389 . S
C1143 C1144 1.524 . S
C1144 C1143 1.524 . S
C1144 C1145 1.397 . S
C1144 C1149 1.363 . S
C1145 H1116 0.950 . S
C1145 C1144 1.397 . S
C1145 C1146 1.334 . S
C1146 H1117 0.950 . S
C1146 C1145 1.334 . S
C1146 C1147 1.287 . S
C1147 C1146 1.287 . S
C1147 C1148 1.524 . S
C1147 H1150 0.999 . S
C1148 H1118 0.950 . S
C1148 C1147 1.524 . S
C1148 C1149 1.415 . S
C1149 H1119 0.950 . S
C1149 C1144 1.363 . S
C1149 C1148 1.415 . S
H1150 C1147 0.999 . S
H1151 C1132 0.913 1_554 S
H1152 C1170 0.951 . S
H1153 C1172 0.951 . S
H1154 C1174 0.950 . S
H1155 C1175 0.950 . S
H1156 C1177 0.950 . S
H1157 C1180 0.950 . S
H1158 C1181 0.929 1_655 S
H1159 C1183 0.950 . S
H1160 C1184 0.950 . S
H1161 C1185 0.951 . S
H1162 C1187 0.951 . S
H1163 C1189 0.950 . S
H1164 C1190 0.950 . S
H1165 C1192 0.950 . S
H1166 C1195 0.950 . S
H1167 C1196 0.950 . S
H1168 C1198 0.950 . S
H1169 C1199 0.950 . S
C1170 H1152 0.951 . S
C1170 C1171 1.366 . S
C1170 C1172 1.388 . S
C1171 C1170 1.366 . S
C1171 C1175 1.385 . S
C1172 H1153 0.951 . S
C1172 C1170 1.388 . S
C1172 C1173 1.366 . S
C1173 C1172 1.366 . S
C1173 C1174 1.414 . S
C1173 C1176 1.499 . S
C1174 H1154 0.950 . S
C1174 C1173 1.414 . S
C1174 C1175 1.374 . S
C1175 H1155 0.950 . S
C1175 C1171 1.385 . S
C1175 C1174 1.374 . S
C1176 C1173 1.499 . S
C1176 C1177 1.373 . S
C1176 C1178 1.389 . S
C1177 H1156 0.950 . S
C1177 C1176 1.373 . S
C1177 C1193 1.377 . S
C1178 C1176 1.389 . S
C1178 C1179 1.524 . S
C1178 C1192 1.377 . S
C1179 C1178 1.524 . S
C1179 C1180 1.397 . S
C1179 C1184 1.363 . S
C1180 H1157 0.950 . S
C1180 C1179 1.397 . S
C1180 C1181 1.334 . S
C1181 H1158 0.929 1_455 S
C1181 C1180 1.334 . S
C1181 C1182 1.287 . S
C1182 C1181 1.287 . S
C1182 C1183 1.524 . S
C1182 H1201 0.913 . S
C1183 H1159 0.950 . S
C1183 C1182 1.524 . S
C1183 C1184 1.415 . S
C1184 H1160 0.950 . S
C1184 C1179 1.363 . S
C1184 C1183 1.415 . S
C1185 H1161 0.951 . S
C1185 C1186 1.366 . S
C1185 C1187 1.388 . S
C1186 C1185 1.366 . S
C1186 C1190 1.385 . S
C1187 H1162 0.951 . S
C1187 C1185 1.388 . S
C1187 C1188 1.366 . S
C1188 C1187 1.366 . S
C1188 C1189 1.414 . S
C1188 C1191 1.499 . S
C1189 H1163 0.950 . S
C1189 C1188 1.414 . S
C1189 C1190 1.374 . S
C1190 H1164 0.950 . S
C1190 C1186 1.385 . S
C1190 C1189 1.374 . S
C1191 C1188 1.499 . S
C1191 C1192 1.373 . S
C1191 C1193 1.389 . S
C1192 H1165 0.950 . S
C1192 C1178 1.377 . S
C1192 C1191 1.373 . S
C1193 C1177 1.377 . S
C1193 C1191 1.389 . S
C1193 C1194 1.524 . S
C1194 C1193 1.524 . S
C1194 C1195 1.397 . S
C1194 C1199 1.363 . S
C1195 H1166 0.950 . S
C1195 C1194 1.397 . S
C1195 C1196 1.334 . S
C1196 H1167 0.950 . S
C1196 C1195 1.334 . S
C1196 C1197 1.287 . S
C1197 C1196 1.287 . S
C1197 C1198 1.524 . S
C1197 H1200 0.999 . S
C1198 H1168 0.950 . S
C1198 C1197 1.524 . S
C1198 C1199 1.415 . S
C1199 H1169 0.950 . S
C1199 C1194 1.363 . S
C1199 C1198 1.415 . S
H1200 C1197 0.999 . S
H1201 C1182 0.913 . S
H1202 C1220 0.951 . S
H1203 C1222 0.951 . S
H1204 C1224 0.950 . S
H1205 C1225 0.950 . S
H1206 C1227 0.950 . S
H1207 C1230 0.950 . S
H1208 C1231 0.943 1_554 S
H1209 C1233 0.950 1_554 S
H1210 C1234 0.950 . S
H1211 C1235 0.951 . S
H1212 C1237 0.951 . S
H1213 C1239 0.950 . S
H1214 C1240 0.950 . S
H1215 C1242 0.950 . S
H1216 C1245 0.950 . S
H1217 C1246 0.950 . S
H1218 C1248 0.950 . S
H1219 C1249 0.950 . S
C1220 H1202 0.951 . S
C1220 C1221 1.366 . S
C1220 C1222 1.388 . S
C1221 C1220 1.366 . S
C1221 C1225 1.385 . S
C1222 H1203 0.951 . S
C1222 C1220 1.388 . S
C1222 C1223 1.366 . S
C1223 C1222 1.366 . S
C1223 C1224 1.414 . S
C1223 C1226 1.499 . S
C1224 H1204 0.950 . S
C1224 C1223 1.414 . S
C1224 C1225 1.374 . S
C1225 H1205 0.950 . S
C1225 C1221 1.385 . S
C1225 C1224 1.374 . S
C1226 C1223 1.499 . S
C1226 C1227 1.373 . S
C1226 C1228 1.389 . S
C1227 H1206 0.950 . S
C1227 C1226 1.373 . S
C1227 C1243 1.377 . S
C1228 C1226 1.389 . S
C1228 C1229 1.524 . S
C1228 C1242 1.377 . S
C1229 C1228 1.524 . S
C1229 C1230 1.397 . S
C1229 C1234 1.363 . S
C1230 H1207 0.950 . S
C1230 C1229 1.397 . S
C1230 C1231 1.347 . S
C1231 H1208 0.943 1_556 S
C1231 C1230 1.347 . S
C1231 C1232 1.282 1_556 S
C1232 C1231 1.282 1_554 S
C1232 C1233 1.524 1_554 S
C1232 H1251 0.913 . S
C1233 H1209 0.950 1_556 S
C1233 C1232 1.524 1_556 S
C1233 C1234 1.415 . S
C1234 H1210 0.950 . S
C1234 C1229 1.363 . S
C1234 C1233 1.415 . S
C1235 H1211 0.951 . S
C1235 C1236 1.366 . S
C1235 C1237 1.388 . S
C1236 C1235 1.366 . S
C1236 C1240 1.385 . S
C1237 H1212 0.951 . S
C1237 C1235 1.388 . S
C1237 C1238 1.366 . S
C1238 C1237 1.366 . S
C1238 C1239 1.414 . S
C1238 C1241 1.499 . S
C1239 H1213 0.950 . S
C1239 C1238 1.414 . S
C1239 C1240 1.374 . S
C1240 H1214 0.950 . S
C1240 C1236 1.385 . S
C1240 C1239 1.374 . S
C1241 C1238 1.499 . S
C1241 C1242 1.373 . S
C1241 C1243 1.389 . S
C1242 H1215 0.950 . S
C1242 C1228 1.377 . S
C1242 C1241 1.373 . S
C1243 C1227 1.377 . S
C1243 C1241 1.389 . S
C1243 C1244 1.524 . S
C1244 C1243 1.524 . S
C1244 C1245 1.397 . S
C1244 C1249 1.363 . S
C1245 H1216 0.950 . S
C1245 C1244 1.397 . S
C1245 C1246 1.334 . S
C1246 H1217 0.950 . S
C1246 C1245 1.334 . S
C1246 C1247 1.287 . S
C1247 C1246 1.287 . S
C1247 C1248 1.524 . S
C1247 H1250 0.999 . S
C1248 H1218 0.950 . S
C1248 C1247 1.524 . S
C1248 C1249 1.415 . S
C1249 H1219 0.950 . S
C1249 C1244 1.363 . S
C1249 C1248 1.415 . S
H1250 C1247 0.999 . S
H1251 C1232 0.913 . S
H1252 C1270 0.951 . S
H1253 C1272 0.951 . S
H1254 C1274 0.950 . S
H1255 C1275 0.950 . S
H1256 C1277 0.950 . S
H1257 C1280 0.950 . S
H1258 C1281 0.950 . S
H1259 C1283 0.950 . S
H1260 C1284 0.950 . S
H1261 C1285 0.951 . S
H1262 C1287 0.951 . S
H1263 C1289 0.950 . S
H1264 C1290 0.950 . S
H1265 C1292 0.950 . S
H1266 C1295 0.950 . S
H1267 C1296 0.950 . S
H1268 C1298 0.950 . S
H1269 C1299 0.950 . S
C1270 H1252 0.951 . S
C1270 C1271 1.366 . S
C1270 C1272 1.388 . S
C1271 C1270 1.366 . S
C1271 C1275 1.385 . S
C1272 H1253 0.951 . S
C1272 C1270 1.388 . S
C1272 C1273 1.366 . S
C1273 C1272 1.366 . S
C1273 C1274 1.414 . S
C1273 C1276 1.499 . S
C1274 H1254 0.950 . S
C1274 C1273 1.414 . S
C1274 C1275 1.374 . S
C1275 H1255 0.950 . S
C1275 C1271 1.385 . S
C1275 C1274 1.374 . S
C1276 C1273 1.499 . S
C1276 C1277 1.373 . S
C1276 C1278 1.389 . S
C1277 H1256 0.950 . S
C1277 C1276 1.373 . S
C1277 C1293 1.377 . S
C1278 C1276 1.389 . S
C1278 C1279 1.524 . S
C1278 C1292 1.377 . S
C1279 C1278 1.524 . S
C1279 C1280 1.397 . S
C1279 C1284 1.363 . S
C1280 H1257 0.950 . S
C1280 C1279 1.397 . S
C1280 C1281 1.334 . S
C1281 H1258 0.950 . S
C1281 C1280 1.334 . S
C1281 C1282 1.287 . S
C1282 C1281 1.287 . S
C1282 C1283 1.524 . S
C1282 H1301 0.913 . S
C1283 H1259 0.950 . S
C1283 C1282 1.524 . S
C1283 C1284 1.415 . S
C1284 H1260 0.950 . S
C1284 C1279 1.363 . S
C1284 C1283 1.415 . S
C1285 H1261 0.951 . S
C1285 C1286 1.366 . S
C1285 C1287 1.388 . S
C1286 C1285 1.366 . S
C1286 C1290 1.385 . S
C1287 H1262 0.951 . S
C1287 C1285 1.388 . S
C1287 C1288 1.366 . S
C1288 C1287 1.366 . S
C1288 C1289 1.414 . S
C1288 C1291 1.499 . S
C1289 H1263 0.950 . S
C1289 C1288 1.414 . S
C1289 C1290 1.374 . S
C1290 H1264 0.950 . S
C1290 C1286 1.385 . S
C1290 C1289 1.374 . S
C1291 C1288 1.499 . S
C1291 C1292 1.373 . S
C1291 C1293 1.389 . S
C1292 H1265 0.950 . S
C1292 C1278 1.377 . S
C1292 C1291 1.373 . S
C1293 C1277 1.377 . S
C1293 C1291 1.389 . S
C1293 C1294 1.524 . S
C1294 C1293 1.524 . S
C1294 C1295 1.397 . S
C1294 C1299 1.363 . S
C1295 H1266 0.950 . S
C1295 C1294 1.397 . S
C1295 C1296 1.334 . S
C1296 H1267 0.950 . S
C1296 C1295 1.334 . S
C1296 C1297 1.287 . S
C1297 C1296 1.287 . S
C1297 C1298 1.524 . S
C1297 H1300 0.999 . S
C1298 H1268 0.950 . S
C1298 C1297 1.524 . S
C1298 C1299 1.415 . S
C1299 H1269 0.950 . S
C1299 C1294 1.363 . S
C1299 C1298 1.415 . S
H1300 C1297 0.999 . S
H1301 C1282 0.913 . S
H1302 C1320 0.951 . S
H1303 C1322 0.951 . S
H1304 C1324 0.950 . S
H1305 C1325 0.950 . S
H1306 C1327 0.950 . S
H1307 C1330 0.950 . S
H1308 C1331 0.950 . S
H1309 C1333 0.950 . S
H1310 C1334 0.950 . S
H1311 C1335 0.951 . S
H1312 C1337 0.951 . S
H1313 C1339 0.950 . S
H1314 C1340 0.950 . S
H1315 C1342 0.950 . S
H1316 C1345 0.950 . S
H1317 C1346 0.950 . S
H1318 C1348 0.950 . S
H1319 C1349 0.950 . S
C1320 H1302 0.951 . S
C1320 C1321 1.366 . S
C1320 C1322 1.388 . S
C1321 C1320 1.366 . S
C1321 C1325 1.385 . S
C1322 H1303 0.951 . S
C1322 C1320 1.388 . S
C1322 C1323 1.366 . S
C1323 C1322 1.366 . S
C1323 C1324 1.414 . S
C1323 C1326 1.499 . S
C1324 H1304 0.950 . S
C1324 C1323 1.414 . S
C1324 C1325 1.374 . S
C1325 H1305 0.950 . S
C1325 C1321 1.385 . S
C1325 C1324 1.374 . S
C1326 C1323 1.499 . S
C1326 C1327 1.373 . S
C1326 C1328 1.389 . S
C1327 H1306 0.950 . S
C1327 C1326 1.373 . S
C1327 C1343 1.377 . S
C1328 C1326 1.389 . S
C1328 C1329 1.524 . S
C1328 C1342 1.377 . S
C1329 C1328 1.524 . S
C1329 C1330 1.397 . S
C1329 C1334 1.363 . S
C1330 H1307 0.950 . S
C1330 C1329 1.397 . S
C1330 C1331 1.334 . S
C1331 H1308 0.950 . S
C1331 C1330 1.334 . S
C1331 C1332 1.287 . S
C1332 C1331 1.287 . S
C1332 C1333 1.524 . S
C1332 H1351 0.913 . S
C1333 H1309 0.950 . S
C1333 C1332 1.524 . S
C1333 C1334 1.415 . S
C1334 H1310 0.950 . S
C1334 C1329 1.363 . S
C1334 C1333 1.415 . S
C1335 H1311 0.951 . S
C1335 C1336 1.366 . S
C1335 C1337 1.388 . S
C1336 C1335 1.366 . S
C1336 C1340 1.385 . S
C1337 H1312 0.951 . S
C1337 C1335 1.388 . S
C1337 C1338 1.366 . S
C1338 C1337 1.366 . S
C1338 C1339 1.414 . S
C1338 C1341 1.499 . S
C1339 H1313 0.950 . S
C1339 C1338 1.414 . S
C1339 C1340 1.374 . S
C1340 H1314 0.950 . S
C1340 C1336 1.385 . S
C1340 C1339 1.374 . S
C1341 C1338 1.499 . S
C1341 C1342 1.373 . S
C1341 C1343 1.389 . S
C1342 H1315 0.950 . S
C1342 C1328 1.377 . S
C1342 C1341 1.373 . S
C1343 C1327 1.377 . S
C1343 C1341 1.389 . S
C1343 C1344 1.524 . S
C1344 C1343 1.524 . S
C1344 C1345 1.397 . S
C1344 C1349 1.363 . S
C1345 H1316 0.950 . S
C1345 C1344 1.397 . S
C1345 C1346 1.334 . S
C1346 H1317 0.950 . S
C1346 C1345 1.334 . S
C1346 C1347 1.287 . S
C1347 C1346 1.287 . S
C1347 C1348 1.524 . S
C1347 H1350 0.999 . S
C1348 H1318 0.950 . S
C1348 C1347 1.524 . S
C1348 C1349 1.415 . S
C1349 H1319 0.950 . S
C1349 C1344 1.363 . S
C1349 C1348 1.415 . S
H1350 C1347 0.999 . S
H1351 C1332 0.913 . S
H1352 C1370 0.951 . S
H1353 C1372 0.951 . S
H1354 C1374 0.950 . S
H1355 C1375 0.950 . S
H1356 C1377 0.950 . S
H1357 C1380 0.950 . S
H1358 C1381 0.950 . S
H1359 C1383 0.950 . S
H1360 C1384 0.950 . S
H1361 C1385 0.951 . S
H1362 C1387 0.951 . S
H1363 C1389 0.950 . S
H1364 C1390 0.950 . S
H1365 C1392 0.950 . S
H1366 C1395 0.950 . S
H1367 C1396 0.950 . S
H1368 C1398 0.950 . S
H1369 C1399 0.950 . S
C1370 H1352 0.951 . S
C1370 C1371 1.366 . S
C1370 C1372 1.388 . S
C1371 C1370 1.366 . S
C1371 C1375 1.385 . S
C1372 H1353 0.951 . S
C1372 C1370 1.388 . S
C1372 C1373 1.366 . S
C1373 C1372 1.366 . S
C1373 C1374 1.414 . S
C1373 C1376 1.499 . S
C1374 H1354 0.950 . S
C1374 C1373 1.414 . S
C1374 C1375 1.374 . S
C1375 H1355 0.950 . S
C1375 C1371 1.385 . S
C1375 C1374 1.374 . S
C1376 C1373 1.499 . S
C1376 C1377 1.373 . S
C1376 C1378 1.389 . S
C1377 H1356 0.950 . S
C1377 C1376 1.373 . S
C1377 C1393 1.377 . S
C1378 C1376 1.389 . S
C1378 C1379 1.524 . S
C1378 C1392 1.377 . S
C1379 C1378 1.524 . S
C1379 C1380 1.397 . S
C1379 C1384 1.363 . S
C1380 H1357 0.950 . S
C1380 C1379 1.397 . S
C1380 C1381 1.334 . S
C1381 H1358 0.950 . S
C1381 C1380 1.334 . S
C1381 C1382 1.287 . S
C1382 C1381 1.287 . S
C1382 C1383 1.524 . S
C1382 H1401 0.913 . S
C1383 H1359 0.950 . S
C1383 C1382 1.524 . S
C1383 C1384 1.415 . S
C1384 H1360 0.950 . S
C1384 C1379 1.363 . S
C1384 C1383 1.415 . S
C1385 H1361 0.951 . S
C1385 C1386 1.366 . S
C1385 C1387 1.388 . S
C1386 C1385 1.366 . S
C1386 C1390 1.385 . S
C1387 H1362 0.951 . S
C1387 C1385 1.388 . S
C1387 C1388 1.366 . S
C1388 C1387 1.366 . S
C1388 C1389 1.414 . S
C1388 C1391 1.499 . S
C1389 H1363 0.950 . S
C1389 C1388 1.414 . S
C1389 C1390 1.374 . S
C1390 H1364 0.950 . S
C1390 C1386 1.385 . S
C1390 C1389 1.374 . S
C1391 C1388 1.499 . S
C1391 C1392 1.373 . S
C1391 C1393 1.389 . S
C1392 H1365 0.950 . S
C1392 C1378 1.377 . S
C1392 C1391 1.373 . S
C1393 C1377 1.377 . S
C1393 C1391 1.389 . S
C1393 C1394 1.524 . S
C1394 C1393 1.524 . S
C1394 C1395 1.397 . S
C1394 C1399 1.363 . S
C1395 H1366 0.950 . S
C1395 C1394 1.397 . S
C1395 C1396 1.334 . S
C1396 H1367 0.950 . S
C1396 C1395 1.334 . S
C1396 C1397 1.287 . S
C1397 C1396 1.287 . S
C1397 C1398 1.524 . S
C1397 H1400 0.999 . S
C1398 H1368 0.950 . S
C1398 C1397 1.524 . S
C1398 C1399 1.415 . S
C1399 H1369 0.950 . S
C1399 C1394 1.363 . S
C1399 C1398 1.415 . S
H1400 C1397 0.999 . S
H1401 C1382 0.913 . S
H1402 C1420 0.951 . S
H1403 C1422 0.951 . S
H1404 C1424 0.950 . S
H1405 C1425 0.950 . S
H1406 C1427 0.950 . S
H1407 C1430 0.950 . S
H1408 C1431 0.950 . S
H1409 C1433 0.963 . S
H1410 C1434 0.950 . S
H1411 C1435 0.951 . S
H1412 C1437 0.951 . S
H1413 C1439 0.950 . S
H1414 C1440 0.950 . S
H1415 C1442 0.950 . S
H1416 C1445 0.950 . S
H1417 C1446 0.950 . S
H1418 C1448 0.950 . S
H1419 C1449 0.950 . S
C1420 H1402 0.951 . S
C1420 C1421 1.366 . S
C1420 C1422 1.388 . S
C1421 C1420 1.366 . S
C1421 C1425 1.385 . S
C1422 H1403 0.951 . S
C1422 C1420 1.388 . S
C1422 C1423 1.366 . S
C1423 C1422 1.366 . S
C1423 C1424 1.414 . S
C1423 C1426 1.499 . S
C1424 H1404 0.950 . S
C1424 C1423 1.414 . S
C1424 C1425 1.374 . S
C1425 H1405 0.950 . S
C1425 C1421 1.385 . S
C1425 C1424 1.374 . S
C1426 C1423 1.499 . S
C1426 C1427 1.373 . S
C1426 C1428 1.389 . S
C1427 H1406 0.950 . S
C1427 C1426 1.373 . S
C1427 C1443 1.377 . S
C1428 C1426 1.389 . S
C1428 C1429 1.524 . S
C1428 C1442 1.377 . S
C1429 C1428 1.524 . S
C1429 C1430 1.397 . S
C1429 C1434 1.363 . S
C1430 H1407 0.950 . S
C1430 C1429 1.397 . S
C1430 C1431 1.334 . S
C1431 H1408 0.950 . S
C1431 C1430 1.334 . S
C1431 C1432 1.287 . S
C1432 C1431 1.287 . S
C1432 C1433 1.524 . S
C1432 H1451 0.913 . S
C1433 H1409 0.963 . S
C1433 C1432 1.524 . S
C1433 C1434 1.415 . S
C1434 H1410 0.950 . S
C1434 C1429 1.363 . S
C1434 C1433 1.415 . S
C1435 H1411 0.951 . S
C1435 C1436 1.366 . S
C1435 C1437 1.388 . S
C1436 C1435 1.366 . S
C1436 C1440 1.385 . S
C1437 H1412 0.951 . S
C1437 C1435 1.388 . S
C1437 C1438 1.366 . S
C1438 C1437 1.366 . S
C1438 C1439 1.414 . S
C1438 C1441 1.499 . S
C1439 H1413 0.950 . S
C1439 C1438 1.414 . S
C1439 C1440 1.374 . S
C1440 H1414 0.950 . S
C1440 C1436 1.385 . S
C1440 C1439 1.374 . S
C1441 C1438 1.499 . S
C1441 C1442 1.373 . S
C1441 C1443 1.389 . S
C1442 H1415 0.950 . S
C1442 C1428 1.377 . S
C1442 C1441 1.373 . S
C1443 C1427 1.377 . S
C1443 C1441 1.389 . S
C1443 C1444 1.524 . S
C1444 C1443 1.524 . S
C1444 C1445 1.397 . S
C1444 C1449 1.363 . S
C1445 H1416 0.950 . S
C1445 C1444 1.397 . S
C1445 C1446 1.334 . S
C1446 H1417 0.950 . S
C1446 C1445 1.334 . S
C1446 C1447 1.287 . S
C1447 C1446 1.287 . S
C1447 C1448 1.524 . S
C1447 H1450 0.999 . S
C1448 H1418 0.950 . S
C1448 C1447 1.524 . S
C1448 C1449 1.415 . S
C1449 H1419 0.950 . S
C1449 C1444 1.363 . S
C1449 C1448 1.415 . S
H1450 C1447 0.999 . S
H1451 C1432 0.913 . S
H1452 C1470 0.951 . S
H1453 C1472 0.951 . S
H1454 C1474 0.950 . S
H1455 C1475 0.950 . S
H1456 C1477 0.950 . S
H1457 C1480 0.950 . S
H1458 C1481 0.950 . S
H1459 C1483 0.950 1_556 S
H1460 C1484 0.950 . S
H1461 C1485 0.951 . S
H1462 C1487 0.951 . S
H1463 C1489 0.950 . S
H1464 C1490 0.950 . S
H1465 C1492 0.950 . S
H1466 C1495 0.950 . S
H1467 C1496 0.950 . S
H1468 C1498 0.950 . S
H1469 C1499 0.950 . S
C1470 H1452 0.951 . S
C1470 C1471 1.366 . S
C1470 C1472 1.388 . S
C1471 C1470 1.366 . S
C1471 C1475 1.385 . S
C1472 H1453 0.951 . S
C1472 C1470 1.388 . S
C1472 C1473 1.366 . S
C1473 C1472 1.366 . S
C1473 C1474 1.414 . S
C1473 C1476 1.499 . S
C1474 H1454 0.950 . S
C1474 C1473 1.414 . S
C1474 C1475 1.374 . S
C1475 H1455 0.950 . S
C1475 C1471 1.385 . S
C1475 C1474 1.374 . S
C1476 C1473 1.499 . S
C1476 C1477 1.373 . S
C1476 C1478 1.389 . S
C1477 H1456 0.950 . S
C1477 C1476 1.373 . S
C1477 C1493 1.377 . S
C1478 C1476 1.389 . S
C1478 C1479 1.524 . S
C1478 C1492 1.377 . S
C1479 C1478 1.524 . S
C1479 C1480 1.397 . S
C1479 C1484 1.363 . S
C1480 H1457 0.950 . S
C1480 C1479 1.397 . S
C1480 C1481 1.334 . S
C1481 H1458 0.950 . S
C1481 C1480 1.334 . S
C1481 C1482 1.287 1_554 S
C1482 C1481 1.287 1_556 S
C1482 C1483 1.524 1_556 S
C1482 H1501 0.913 . S
C1483 H1459 0.950 1_554 S
C1483 C1482 1.524 1_554 S
C1483 C1484 1.415 . S
C1484 H1460 0.950 . S
C1484 C1479 1.363 . S
C1484 C1483 1.415 . S
C1485 H1461 0.951 . S
C1485 C1486 1.366 . S
C1485 C1487 1.388 . S
C1486 C1485 1.366 . S
C1486 C1490 1.385 . S
C1487 H1462 0.951 . S
C1487 C1485 1.388 . S
C1487 C1488 1.366 . S
C1488 C1487 1.366 . S
C1488 C1489 1.414 . S
C1488 C1491 1.499 . S
C1489 H1463 0.950 . S
C1489 C1488 1.414 . S
C1489 C1490 1.374 . S
C1490 H1464 0.950 . S
C1490 C1486 1.385 . S
C1490 C1489 1.374 . S
C1491 C1488 1.499 . S
C1491 C1492 1.373 . S
C1491 C1493 1.389 . S
C1492 H1465 0.950 . S
C1492 C1478 1.377 . S
C1492 C1491 1.373 . S
C1493 C1477 1.377 . S
C1493 C1491 1.389 . S
C1493 C1494 1.524 . S
C1494 C1493 1.524 . S
C1494 C1495 1.397 . S
C1494 C1499 1.363 . S
C1495 H1466 0.950 . S
C1495 C1494 1.397 . S
C1495 C1496 1.334 . S
C1496 H1467 0.950 . S
C1496 C1495 1.334 . S
C1496 C1497 1.287 . S
C1497 C1496 1.287 . S
C1497 C1498 1.524 . S
C1497 H1500 0.999 . S
C1498 H1468 0.950 . S
C1498 C1497 1.524 . S
C1498 C1499 1.415 . S
C1499 H1469 0.950 . S
C1499 C1494 1.363 . S
C1499 C1498 1.415 . S
H1500 C1497 0.999 . S
H1501 C1482 0.913 . S
H1502 C1520 0.951 . S
H1503 C1522 0.951 . S
H1504 C1524 0.950 . S
H1505 C1525 0.950 . S
H1506 C1527 0.950 . S
H1507 C1530 0.950 . S
H1508 C1531 0.950 . S
H1509 C1533 0.950 . S
H1510 C1534 0.950 . S
H1511 C1535 0.951 . S
H1512 C1537 0.951 . S
H1513 C1539 0.950 . S
H1514 C1540 0.950 . S
H1515 C1542 0.950 . S
H1516 C1545 0.950 . S
H1517 C1546 0.950 . S
H1518 C1548 0.950 . S
H1519 C1549 0.950 . S
C1520 H1502 0.951 . S
C1520 C1521 1.366 . S
C1520 C1522 1.388 . S
C1521 C1520 1.366 . S
C1521 C1525 1.385 . S
C1522 H1503 0.951 . S
C1522 C1520 1.388 . S
C1522 C1523 1.366 . S
C1523 C1522 1.366 . S
C1523 C1524 1.414 . S
C1523 C1526 1.499 . S
C1524 H1504 0.950 . S
C1524 C1523 1.414 . S
C1524 C1525 1.374 . S
C1525 H1505 0.950 . S
C1525 C1521 1.385 . S
C1525 C1524 1.374 . S
C1526 C1523 1.499 . S
C1526 C1527 1.373 . S
C1526 C1528 1.389 . S
C1527 H1506 0.950 . S
C1527 C1526 1.373 . S
C1527 C1543 1.377 . S
C1528 C1526 1.389 . S
C1528 C1529 1.524 . S
C1528 C1542 1.377 . S
C1529 C1528 1.524 . S
C1529 C1530 1.397 . S
C1529 C1534 1.363 . S
C1530 H1507 0.950 . S
C1530 C1529 1.397 . S
C1530 C1531 1.334 . S
C1531 H1508 0.950 . S
C1531 C1530 1.334 . S
C1531 C1532 1.287 . S
C1532 C1531 1.287 . S
C1532 C1533 1.524 . S
C1532 H1551 0.913 . S
C1533 H1509 0.950 . S
C1533 C1532 1.524 . S
C1533 C1534 1.415 . S
C1534 H1510 0.950 . S
C1534 C1529 1.363 . S
C1534 C1533 1.415 . S
C1535 H1511 0.951 . S
C1535 C1536 1.366 . S
C1535 C1537 1.388 . S
C1536 C1535 1.366 . S
C1536 C1540 1.385 . S
C1537 H1512 0.951 . S
C1537 C1535 1.388 . S
C1537 C1538 1.366 . S
C1538 C1537 1.366 . S
C1538 C1539 1.414 . S
C1538 C1541 1.499 . S
C1539 H1513 0.950 . S
C1539 C1538 1.414 . S
C1539 C1540 1.374 . S
C1540 H1514 0.950 . S
C1540 C1536 1.385 . S
C1540 C1539 1.374 . S
C1541 C1538 1.499 . S
C1541 C1542 1.373 . S
C1541 C1543 1.389 . S
C1542 H1515 0.950 . S
C1542 C1528 1.377 . S
C1542 C1541 1.373 . S
C1543 C1527 1.377 . S
C1543 C1541 1.389 . S
C1543 C1544 1.524 . S
C1544 C1543 1.524 . S
C1544 C1545 1.397 . S
C1544 C1549 1.363 . S
C1545 H1516 0.950 . S
C1545 C1544 1.397 . S
C1545 C1546 1.334 . S
C1546 H1517 0.950 . S
C1546 C1545 1.334 . S
C1546 C1547 1.287 . S
C1547 C1546 1.287 . S
C1547 C1548 1.524 . S
C1547 H1550 0.999 . S
C1548 H1518 0.950 . S
C1548 C1547 1.524 . S
C1548 C1549 1.415 . S
C1549 H1519 0.950 . S
C1549 C1544 1.363 . S
C1549 C1548 1.415 . S
H1550 C1547 0.999 . S
H1551 C1532 0.913 . S
H1552 C1570 0.951 . S
H1553 C1572 0.951 . S
H1554 C1574 0.950 . S
H1555 C1575 0.950 . S
H1556 C1577 0.950 . S
H1557 C1580 0.950 . S
H1558 C1581 0.950 . S
H1559 C1583 0.950 . S
H1560 C1584 0.950 . S
H1561 C1585 0.951 . S
H1562 C1587 0.951 . S
H1563 C1589 0.950 . S
H1564 C1590 0.950 . S
H1565 C1592 0.950 . S
H1566 C1595 0.950 . S
H1567 C1596 0.950 . S
H1568 C1598 0.950 . S
H1569 C1599 0.950 . S
C1570 H1552 0.951 . S
C1570 C1571 1.366 . S
C1570 C1572 1.388 . S
C1571 C1570 1.366 . S
C1571 C1575 1.385 . S
C1572 H1553 0.951 . S
C1572 C1570 1.388 . S
C1572 C1573 1.366 . S
C1573 C1572 1.366 . S
C1573 C1574 1.414 . S
C1573 C1576 1.499 . S
C1574 H1554 0.950 . S
C1574 C1573 1.414 . S
C1574 C1575 1.374 . S
C1575 H1555 0.950 . S
C1575 C1571 1.385 . S
C1575 C1574 1.374 . S
C1576 C1573 1.499 . S
C1576 C1577 1.373 . S
C1576 C1578 1.389 . S
C1577 H1556 0.950 . S
C1577 C1576 1.373 . S
C1577 C1593 1.377 . S
C1578 C1576 1.389 . S
C1578 C1579 1.524 . S
C1578 C1592 1.377 . S
C1579 C1578 1.524 . S
C1579 C1580 1.397 . S
C1579 C1584 1.363 . S
C1580 H1557 0.950 . S
C1580 C1579 1.397 . S
C1580 C1581 1.334 . S
C1581 H1558 0.950 . S
C1581 C1580 1.334 . S
C1581 C1582 1.287 . S
C1582 C1581 1.287 . S
C1582 C1583 1.524 . S
C1582 H1601 0.913 . S
C1583 H1559 0.950 . S
C1583 C1582 1.524 . S
C1583 C1584 1.415 . S
C1584 H1560 0.950 . S
C1584 C1579 1.363 . S
C1584 C1583 1.415 . S
C1585 H1561 0.951 . S
C1585 C1586 1.366 . S
C1585 C1587 1.388 . S
C1586 C1585 1.366 . S
C1586 C1590 1.385 . S
C1587 H1562 0.951 . S
C1587 C1585 1.388 . S
C1587 C1588 1.366 . S
C1588 C1587 1.366 . S
C1588 C1589 1.414 . S
C1588 C1591 1.499 . S
C1589 H1563 0.950 . S
C1589 C1588 1.414 . S
C1589 C1590 1.374 . S
C1590 H1564 0.950 . S
C1590 C1586 1.385 . S
C1590 C1589 1.374 . S
C1591 C1588 1.499 . S
C1591 C1592 1.373 . S
C1591 C1593 1.389 . S
C1592 H1565 0.950 . S
C1592 C1578 1.377 . S
C1592 C1591 1.373 . S
C1593 C1577 1.377 . S
C1593 C1591 1.389 . S
C1593 C1594 1.524 . S
C1594 C1593 1.524 . S
C1594 C1595 1.397 . S
C1594 C1599 1.363 . S
C1595 H1566 0.950 . S
C1595 C1594 1.397 . S
C1595 C1596 1.334 . S
C1596 H1567 0.950 . S
C1596 C1595 1.334 . S
C1596 C1597 1.287 . S
C1597 C1596 1.287 . S
C1597 C1598 1.524 . S
C1597 H1600 0.999 . S
C1598 H1568 0.950 . S
C1598 C1597 1.524 . S
C1598 C1599 1.415 . S
C1599 H1569 0.950 . S
C1599 C1594 1.363 . S
C1599 C1598 1.415 . S
H1600 C1597 0.999 . S
H1601 C1582 0.913 . S
C421 C13 1.920 . S
C436 C122 1.891 . S
C471 C27 1.640 . S
C486 C175 1.612 . S
C536 C228 1.788 . S
C521 C29 1.818 . S
C586 C265 1.472 . S
C571 C54 1.494 . S
C636 C325 1.728 . S
C621 C69 1.757 . S
C686 C378 1.562 . S
C671 C83 1.589 . S
C721 C15 1.921 . S
C736 C229 1.899 . S
C771 C41 1.589 . S
C786 C272 1.562 . S
C836 C318 1.734 . S
C821 C42 1.757 . S
C886 C371 1.472 . S
C871 C57 1.494 . S
C921 C71 1.819 . S
C936 C123 1.796 . S
C986 C176 1.619 . S
C971 C1 1.640 . S
C1036 C282 1.892 . S
C1021 C12 1.921 . S
C1071 C26 1.639 . S
C1086 C334 1.618 . S
C1136 C387 1.796 . S
C1121 C28 1.818 . S
C1171 C55 1.493 . S
C1186 C113 1.472 . S
C1221 C68 1.756 . S
C1236 C166 1.733 . S
C1271 C82 1.589 . S
C1286 C219 1.567 . S
C1321 C14 1.921 . S
C1336 C388 1.892 . S
C1386 C106 1.562 . S
C1371 C40 1.589 . S
C1421 C43 1.757 . S
C1436 C159 1.728 . S
C1471 C56 1.493 . S
C1486 C212 1.466 . S
C1521 C70 1.818 . S
C1536 C281 1.796 . S
C1571 C0 1.639 . S
C1586 C335 1.611 . S
