# Generated by pormake.
# Topology pth, (4,4)-cn, num edge types: 1
# Building blocks:
#     Node 0, Type 0, BuildingBlock: GALJAG_clean_sbu_0, # of connection points: 4
#     Node 1, Type 0, BuildingBlock: GALJAG_clean_sbu_0, # of connection points: 4
#     Node 2, Type 0, BuildingBlock: GALJAG_clean_sbu_0, # of connection points: 4
#     Node 3, Type 1, BuildingBlock: NAWXER_clean_sbu_0, # of connection points: 4
#     Node 4, Type 1, BuildingBlock: NAWXER_clean_sbu_0, # of connection points: 4
#     Node 5, Type 1, BuildingBlock: NAWXER_clean_sbu_0, # of connection points: 4
#     Edge 6, Type (0, 1), BuildingBlock: FUNLAD_clean_linker_1, # of connection points: 2
#     Edge 7, Type (0, 1), BuildingBlock: FUNLAD_clean_linker_1, # of connection points: 2
#     Edge 8, Type (0, 1), BuildingBlock: FUNLAD_clean_linker_1, # of connection points: 2
#     Edge 9, Type (0, 1), BuildingBlock: FUNLAD_clean_linker_1, # of connection points: 2
#     Edge 10, Type (0, 1), BuildingBlock: FUNLAD_clean_linker_1, # of connection points: 2
#     Edge 11, Type (0, 1), BuildingBlock: FUNLAD_clean_linker_1, # of connection points: 2
#     Edge 12, Type (0, 1), BuildingBlock: FUNLAD_clean_linker_1, # of connection points: 2
#     Edge 13, Type (0, 1), BuildingBlock: FUNLAD_clean_linker_1, # of connection points: 2
#     Edge 14, Type (0, 1), BuildingBlock: FUNLAD_clean_linker_1, # of connection points: 2
#     Edge 15, Type (0, 1), BuildingBlock: FUNLAD_clean_linker_1, # of connection points: 2
#     Edge 16, Type (0, 1), BuildingBlock: FUNLAD_clean_linker_1, # of connection points: 2
#     Edge 17, Type (0, 1), BuildingBlock: FUNLAD_clean_linker_1, # of connection points: 2
# Relax obj value: 0.017
# Max RMSD: 0.060
# Mean RMSD: 0.053
data_MOF--net-pth--node1-GALJAG_clean_sbu_0--node2-NAWXER_clean_sbu_0--edge1-FUNLAD_clean_linker_1
_symmetry_space_group_name_H-M    P1
_symmetry_Int_Tables_number       1
_symmetry_cell_setting            triclinic
loop_
_symmetry_equiv_pos_as_xyz
'x, y, z'
_cell_length_a     24.0156
_cell_length_b     24.050344
_cell_length_c     57.646111
_cell_angle_alpha  90.258452
_cell_angle_beta   90.323655
_cell_angle_gamma 119.81534
loop_
_atom_site_label
_atom_site_type_symbol
_atom_site_fract_x
_atom_site_fract_y
_atom_site_fract_z
_atom_type_partial_charge
In0 In 0.02946 0.01633 0.07662 0.0
O1 O 0.99424 0.07806 0.09479 0.0
O2 O 0.08202 0.0852 0.10635 0.0
C3 C 0.93253 0.93755 0.04809 0.0
C4 C 0.11677 0.09767 0.04637 0.0
C5 C 0.0282 0.9258 0.10422 0.0
O6 O 0.92605 0.97273 0.06296 0.0
O7 O 0.98747 0.94296 0.04747 0.0
O8 O 0.0745 0.95897 0.09087 0.0
O9 O 0.98321 0.9386 0.10371 0.0
C10 C 0.04192 0.10412 0.10851 0.0
O11 O 0.12619 0.05862 0.05803 0.0
O12 O 0.06359 0.09477 0.04972 0.0
In13 In 0.03946 0.02599 0.4096 0.0
O14 O 0.09258 0.12199 0.39034 0.0
O15 O 0.99112 0.06682 0.38697 0.0
C16 C 0.15132 0.05728 0.43129 0.0
C17 C 0.95272 0.01319 0.44169 0.0
C18 C 1.01449 0.92122 0.38397 0.0
O19 O 0.14665 0.05773 0.40948 0.0
O20 O 0.10044 0.0431 0.44207 0.0
O21 O 0.03593 0.92948 0.40445 0.0
O22 O 1.00277 0.96371 0.37686 0.0
C23 C 0.04191 0.11712 0.38169 0.0
O24 O 0.94496 0.96645 0.4292 0.0
O25 O 1.00414 0.06484 0.43835 0.0
In26 In 0.03251 1.00502 0.74533 0.0
O27 O 1.00131 0.90661 0.7609 0.0
O28 O 0.95057 0.95412 0.77102 0.0
C29 C 0.12143 0.01162 0.71531 0.0
C30 C 0.94573 1.00649 0.71569 0.0
C31 C 0.10859 0.09576 0.77657 0.0
O32 O 0.08447 0.96098 0.72607 0.0
O33 O 0.11349 0.05864 0.71959 0.0
O34 O 0.0708 0.10294 0.76322 0.0
O35 O 0.10739 0.04306 0.77437 0.0
C36 C 0.9568 0.90523 0.77281 0.0
O37 O 0.97362 0.04894 0.7312 0.0
O38 O 0.9615 0.96378 0.71515 0.0
C39 C 0.05039 0.59873 0.27385 0.0
C40 C 0.02129 0.4441 0.21299 0.0
O41 O 0.09447 0.59563 0.26282 0.0
Zn42 Zn 0.03858 0.52318 0.24306 0.0
O43 O 0.9914 0.55858 0.26923 0.0
Zn44 Zn 0.93648 0.4791 0.24648 0.0
O45 O 0.89183 0.40886 0.26801 0.0
O46 O 0.99652 0.44677 0.26733 0.0
O47 O 0.96836 0.43669 0.22092 0.0
O48 O 0.07446 0.48909 0.2208 0.0
O49 O 0.99366 0.56226 0.22158 0.0
O50 O 0.88939 0.50969 0.22819 0.0
C51 C 0.94102 0.4071 0.27525 0.0
C52 C 0.93724 0.55344 0.21755 0.0
C53 C 0.63127 0.06107 0.60653 0.0
C54 C 0.49222 0.06833 0.54649 0.0
O55 O 0.58817 1.0045 0.60012 0.0
Zn56 Zn 0.50897 0.96327 0.57551 0.0
O57 O 0.63284 0.10959 0.59732 0.0
Zn58 Zn 0.56164 0.06382 0.57637 0.0
O59 O 0.48009 0.02072 0.59926 0.0
O60 O 0.43578 0.91589 0.595 0.0
O61 O 0.54009 0.1145 0.55654 0.0
O62 O 0.47586 0.01038 0.55175 0.0
O63 O 0.53148 0.91413 0.55527 0.0
O64 O 0.59731 0.01846 0.55281 0.0
C65 C 0.4363 0.96378 0.60452 0.0
C66 C 0.58095 0.9609 0.54664 0.0
C67 C 0.47276 0.43077 0.94082 0.0
C68 C 0.59733 0.59023 0.88266 0.0
O69 O 0.45076 0.46876 0.93679 0.0
Zn70 Zn 0.47509 0.55079 0.91525 0.0
O71 O 0.52263 0.43877 0.93042 0.0
Zn72 Zn 0.53546 0.51073 0.9119 0.0
O73 O 0.56679 0.58721 0.93714 0.0
O74 O 0.49437 0.6182 0.93757 0.0
O75 O 0.60528 0.54504 0.89015 0.0
O76 O 0.55131 0.59726 0.89047 0.0
O77 O 0.39914 0.52128 0.89624 0.0
O78 O 0.45123 0.46873 0.88971 0.0
C79 C 0.54666 0.62388 0.94515 0.0
C80 C 0.40347 0.47733 0.88557 0.0
H81 H 0.09358 0.17165 0.1371 0.0
C82 C 0.05235 0.15437 0.12548 0.0
H83 H 0.97414 0.16555 0.11476 0.0
H84 H 1.00836 0.29337 0.21771 0.0
H85 H 0.93918 0.18279 0.22886 0.0
H86 H 0.91056 0.09455 0.20087 0.0
H87 H 0.95122 0.11646 0.16153 0.0
C88 C 1.01495 0.18107 0.12645 0.0
C89 C 0.03021 0.23436 0.14304 0.0
C90 C 1.005 0.22082 0.16576 0.0
C91 C 0.02014 0.27181 0.18169 0.0
C92 C 0.99644 0.25672 0.20461 0.0
C93 C 0.95718 0.19337 0.21132 0.0
C94 C 0.94115 0.14369 0.19557 0.0
C95 C 0.9648 0.15693 0.17305 0.0
H96 H 0.97104 0.36403 0.18847 0.0
C97 C 0.01807 0.39734 0.19571 0.0
H98 H 0.1159 0.42255 0.19705 0.0
H99 H 0.08853 0.27634 0.10109 0.0
H100 H 0.1584 0.38697 0.08994 0.0
H101 H 0.18321 0.47561 0.11733 0.0
H102 H 0.13855 0.45419 0.15609 0.0
C103 C 0.06823 0.38997 0.19021 0.0
C104 C 0.05881 0.3364 0.17457 0.0
C105 C 0.08565 0.34977 0.15208 0.0
C106 C 0.07119 0.29867 0.13626 0.0
C107 C 0.09806 0.31335 0.1138 0.0
C108 C 0.13815 0.37662 0.10717 0.0
C109 C 0.15212 0.42653 0.12259 0.0
C110 C 0.12618 0.41358 0.14479 0.0
H111 H 0.91691 0.05396 0.46785 0.0
C112 C 0.90474 0.01055 0.45807 0.0
H113 H 0.83256 0.915 0.45085 0.0
H114 H 0.70877 0.9258 0.54887 0.0
H115 H 0.75601 0.86092 0.5596 0.0
H116 H 0.82209 0.84092 0.53187 0.0
H117 H 0.84187 0.88648 0.49325 0.0
C118 C 0.84605 0.95925 0.46023 0.0
C119 C 0.79819 0.96296 0.47548 0.0
C120 C 0.78492 0.93395 0.49759 0.0
C121 C 0.74537 0.94415 0.51335 0.0
C122 C 0.73636 0.91784 0.53587 0.0
C123 C 0.76368 0.88086 0.54234 0.0
C124 C 0.80101 0.86971 0.52675 0.0
C125 C 0.81196 0.8961 0.50465 0.0
H126 H 0.60222 0.89939 0.5241 0.0
C127 C 0.62011 0.94835 0.5301 0.0
H128 H 0.69583 0.04413 0.52866 0.0
H129 H 0.8087 0.01979 0.43345 0.0
H130 H 0.76032 0.08354 0.42231 0.0
H131 H 0.69132 0.10094 0.44948 0.0
H132 H 0.67028 0.0547 0.48794 0.0
C133 C 0.67786 0.99482 0.5231 0.0
C134 C 0.71751 0.98174 0.50659 0.0
C135 C 0.72932 1.00915 0.48418 0.0
C136 C 0.7694 0.99948 0.46857 0.0
C137 C 0.77964 0.02666 0.44616 0.0
C138 C 0.75185 0.06304 0.43949 0.0
C139 C 0.71297 0.07279 0.45478 0.0
C140 C 0.70147 0.04611 0.47684 0.0
H141 H 0.92566 0.81118 0.78887 0.0
C142 C 0.91544 0.85031 0.78759 0.0
H143 H 0.85357 0.88501 0.79739 0.0
H144 H 0.62376 0.60685 0.81941 0.0
H145 H 0.59017 0.62308 0.78149 0.0
H146 H 0.66245 0.7163 0.75781 0.0
H147 H 0.769 0.79354 0.77184 0.0
C148 C 0.8657 0.84731 0.79918 0.0
C149 C 0.82292 0.79068 0.81343 0.0
C150 C 0.76038 0.74669 0.80518 0.0
C151 C 0.71822 0.69367 0.81904 0.0
C152 C 0.65695 0.64911 0.80996 0.0
C153 C 0.63725 0.65756 0.78812 0.0
C154 C 0.67797 0.70999 0.77478 0.0
C155 C 0.73895 0.75406 0.78307 0.0
H156 H 0.63228 0.67452 0.86015 0.0
C157 C 0.64122 0.63637 0.86556 0.0
H158 H 0.70329 0.59804 0.86288 0.0
H159 H 0.9395 0.86647 0.83452 0.0
H160 H 0.97341 0.84983 0.8723 0.0
H161 H 0.90031 0.75802 0.89637 0.0
H162 H 0.79282 0.68234 0.88284 0.0
C163 C 0.69219 0.63438 0.85706 0.0
C164 C 0.73812 0.68574 0.84142 0.0
C165 C 0.80133 0.72876 0.84939 0.0
C166 C 0.84368 0.7815 0.83544 0.0
C167 C 0.90574 0.82498 0.84419 0.0
C168 C 0.92575 0.81617 0.86591 0.0
C169 C 0.88458 0.76451 0.87947 0.0
C170 C 0.82299 0.72133 0.87146 0.0
H171 H 0.06901 0.87004 0.11988 0.0
C172 C 0.02703 0.87601 0.11934 0.0
H173 H 0.93251 0.84217 0.13125 0.0
H174 H 0.90257 0.57041 0.15589 0.0
H175 H 0.83989 0.54348 0.12032 0.0
H176 H 0.83726 0.6276 0.0968 0.0
H177 H 0.898 0.73935 0.10861 0.0
C178 C 0.97558 0.83817 0.13224 0.0
C179 C 0.97437 0.78746 0.14724 0.0
C180 C 0.93712 0.72221 0.14048 0.0
C181 C 0.93758 0.67356 0.15431 0.0
C182 C 0.90253 0.60914 0.14647 0.0
C183 C 0.86662 0.59303 0.12598 0.0
C184 C 0.86521 0.64039 0.11272 0.0
C185 C 0.90019 0.70433 0.11973 0.0
H186 H 0.8818 0.59215 0.19978 0.0
C187 C 0.92874 0.59605 0.20132 0.0
H188 H 0.02589 0.64601 0.19125 0.0
H189 H 0.04612 0.90745 0.16625 0.0
H190 H 0.10672 0.93449 0.20234 0.0
H191 H 0.10701 0.85028 0.22652 0.0
H192 H 0.04664 0.7386 0.21482 0.0
C193 C 0.97853 0.64092 0.18925 0.0
C194 C 0.97404 0.69032 0.17521 0.0
C195 C 1.0099 0.75553 0.18227 0.0
C196 C 1.00996 0.80413 0.1683 0.0
C197 C 0.04525 0.8687 0.17599 0.0
C198 C 0.08001 0.88489 0.19674 0.0
C199 C 0.08016 0.83749 0.21036 0.0
C200 C 0.04548 0.77352 0.20336 0.0
H201 H 0.24494 0.06102 0.43275 0.0
C202 C 0.20945 0.06513 0.4431 0.0
H203 H 0.18012 0.0748 0.47646 0.0
H204 H 0.30641 0.95139 0.53592 0.0
H205 H 0.19322 0.88238 0.54305 0.0
H206 H 0.11188 0.89346 0.52042 0.0
H207 H 0.14334 0.97452 0.49093 0.0
C208 C 0.21638 0.07153 0.46629 0.0
C209 C 0.26655 0.06405 0.47905 0.0
C210 C 0.24715 0.0146 0.49571 0.0
C211 C 0.29396 1.00646 0.50811 0.0
C212 C 0.27312 0.95864 0.52543 0.0
C213 C 0.20814 0.9187 0.52981 0.0
C214 C 0.16238 0.92507 0.51712 0.0
C215 C 0.18129 0.97221 0.50027 0.0
H216 H 0.45851 0.12948 0.53039 0.0
C217 C 0.45276 0.0817 0.53022 0.0
H218 H 0.40204 0.98809 0.51642 0.0
H219 H 0.32144 0.17047 0.45143 0.0
H220 H 0.43437 0.2352 0.44242 0.0
H221 H 0.5142 0.21138 0.45982 0.0
H222 H 0.48176 0.12409 0.48694 0.0
C223 C 0.40818 0.03602 0.51634 0.0
C224 C 0.36014 0.04603 0.50322 0.0
C225 C 0.3795 0.09443 0.48614 0.0
C226 C 0.33289 0.10516 0.47477 0.0
C227 C 0.35422 0.15764 0.45947 0.0
C228 C 0.41903 0.1956 0.45431 0.0
C229 C 0.46401 0.18241 0.4642 0.0
C230 C 0.44476 0.13246 0.47991 0.0
H231 H 0.18555 0.1353 0.80296 0.0
C232 C 0.15314 0.14541 0.79295 0.0
H233 H 0.12402 0.21351 0.78589 0.0
H234 H 0.24725 0.3382 0.88588 0.0
H235 H 0.13495 0.27882 0.89616 0.0
H236 H 0.05308 0.20741 0.86771 0.0
H237 H 0.08343 0.1944 0.82881 0.0
C238 C 0.15653 0.20255 0.79539 0.0
C239 C 0.20483 0.25191 0.8114 0.0
C240 C 0.18617 0.26109 0.83371 0.0
C241 C 0.23327 0.30382 0.84988 0.0
C242 C 0.21353 0.30859 0.87256 0.0
C243 C 0.14913 0.27426 0.87878 0.0
C244 C 0.10305 0.23394 0.86278 0.0
C245 C 0.1211 0.22696 0.84052 0.0
H246 H 0.31648 0.44777 0.86404 0.0
C247 C 0.3528 0.43544 0.86888 0.0
H248 H 0.38603 0.36962 0.86482 0.0
H249 H 0.25572 0.24904 0.76937 0.0
H250 H 0.3678 0.31 0.75855 0.0
H251 H 0.44942 0.38551 0.78624 0.0
H252 H 0.41953 0.40047 0.8249 0.0
C253 C 0.34934 0.3817 0.8603 0.0
C254 C 0.29879 0.33905 0.84334 0.0
C255 C 0.31706 0.33107 0.82074 0.0
C256 C 0.27005 0.28754 0.80477 0.0
C257 C 0.2896 0.28085 0.78228 0.0
C258 C 0.35373 0.31577 0.77581 0.0
C259 C 0.39967 0.35828 0.79139 0.0
C260 C 0.38185 0.36621 0.81358 0.0
H261 H 0.87746 0.96735 0.68641 0.0
C262 C 0.89829 1.00584 0.69923 0.0
H263 H 0.89894 0.08804 0.71265 0.0
H264 H 0.77241 0.04532 0.60579 0.0
H265 H 0.87895 0.07466 0.59235 0.0
H266 H 0.96541 0.09414 0.62015 0.0
H267 H 0.9455 0.08334 0.66153 0.0
C268 C 0.88023 0.05046 0.69948 0.0
C269 C 0.83075 0.04672 0.68284 0.0
C270 C 0.84394 0.05567 0.65875 0.0
C271 C 0.79476 0.04682 0.64278 0.0
C272 C 0.8084 0.05317 0.61874 0.0
C273 C 0.86934 0.06979 0.61077 0.0
C274 C 0.91795 0.08056 0.62642 0.0
C275 C 0.90574 0.07377 0.65013 0.0
H276 H 0.71822 0.11898 0.62788 0.0
C277 C 0.68054 0.07034 0.62392 0.0
H278 H 0.64326 0.97198 0.63108 0.0
H279 H 0.79035 0.0289 0.7279 0.0
H280 H 0.68481 1.00342 0.74141 0.0
H281 H 0.60043 0.99082 0.71376 0.0
H282 H 0.621 1.00337 0.67238 0.0
C283 C 0.68127 0.02088 0.63434 0.0
C284 C 0.73318 0.03128 0.651 0.0
C285 C 0.72058 0.02427 0.6751 0.0
C286 C 0.76944 0.03209 0.69105 0.0
C287 C 0.7552 0.02399 0.71503 0.0
C288 C 0.69479 1.0093 0.72302 0.0
C289 C 0.64726 1.00216 0.70745 0.0
C290 C 0.65969 1.00945 0.68375 0.0
H291 H 0.89078 0.86198 0.02137 0.0
C292 C 0.88018 0.89126 0.03296 0.0
H293 H 0.8087 0.91181 0.04441 0.0
H294 H 0.66655 0.78906 0.94649 0.0
H295 H 0.71099 0.90186 0.93829 0.0
H296 H 0.7817 0.9844 0.96665 0.0
H297 H 0.80893 0.95435 1.00337 0.0
C298 C 0.82047 0.88248 0.03335 0.0
C299 C 0.76963 0.83276 0.01814 0.0
C300 C 0.7519 0.85087 0.99724 0.0
C301 C 0.70974 0.8031 0.98115 0.0
C302 C 0.69638 0.82291 0.95974 0.0
C303 C 0.72201 0.88767 0.95471 0.0
C304 C 0.76193 0.93416 0.97066 0.0
C305 C 0.77714 0.91627 0.99165 0.0
H306 H 0.56515 0.70203 0.96989 0.0
C307 C 0.58492 0.6738 0.96263 0.0
H308 H 0.66365 0.65765 0.96221 0.0
H309 H 0.78855 0.78213 0.0578 0.0
H310 H 0.74236 0.66919 0.06667 0.0
H311 H 0.66822 0.58616 0.03909 0.0
H312 H 0.63991 0.6155 1.00249 0.0
C313 C 0.64408 0.68652 0.96903 0.0
C314 C 0.6838 0.73716 0.98642 0.0
C315 C 0.69954 0.7192 1.00781 0.0
C316 C 0.74235 0.76701 0.0237 0.0
C317 C 0.757 0.74771 0.04497 0.0
C318 C 0.73057 0.68307 0.05033 0.0
C319 C 0.68883 0.63633 0.03481 0.0
C320 C 0.67318 0.65386 0.01381 0.0
H321 H 0.98305 0.86191 0.35222 0.0
C322 C 1.00912 0.86989 0.3685 0.0
H323 H 0.06799 0.84634 0.38873 0.0
H324 H 0.97858 0.58089 0.3374 0.0
H325 H 0.93748 0.54582 0.37614 0.0
H326 H 0.9433 0.62314 0.40567 0.0
H327 H 0.99065 0.73607 0.39671 0.0
C328 C 0.04139 0.83852 0.37259 0.0
C329 C 0.04195 0.79273 0.3552 0.0
C330 C 1.01419 0.72697 0.36074 0.0
C331 C 1.0099 0.68225 0.34359 0.0
C332 C 0.98212 0.6168 0.34964 0.0
C333 C 0.95854 0.59603 0.37183 0.0
C334 C 0.9619 0.63957 0.38847 0.0
C335 C 0.98926 0.7043 0.38309 0.0
H336 H 0.11642 0.6812 0.29615 0.0
C337 C 0.06635 0.64864 0.29179 0.0
H338 H 0.96967 0.62113 0.29849 0.0
H339 H 0.11118 0.91698 0.34037 0.0
H340 H 0.15058 0.95205 0.3015 0.0
H341 H 0.13403 0.87363 0.27071 0.0
H342 H 0.07952 0.75998 0.27873 0.0
C343 C 0.01981 0.6547 0.30241 0.0
C344 C 0.03285 0.70324 0.32086 0.0
C345 C 0.06262 0.7694 0.31551 0.0
C346 C 0.06888 0.81437 0.33292 0.0
C347 C 0.10221 0.88048 0.32753 0.0
C348 C 0.12556 0.90134 0.30532 0.0
C349 C 0.11647 0.85721 0.28801 0.0
C350 C 0.08535 0.79198 0.29292 0.0
H351 H 0.20254 0.06313 0.69153 0.0
C352 C 0.17115 0.01674 0.69923 0.0
H353 H 0.14702 0.9195 0.70102 0.0
H354 H 0.27882 0.94413 0.60253 0.0
H355 H 0.16666 0.88645 0.59118 0.0
H356 H 0.08203 0.86711 0.61934 0.0
H357 H 0.10933 0.90619 0.659 0.0
C358 C 0.17912 0.96668 0.69405 0.0
C359 C 0.23005 0.97387 0.67776 0.0
C360 C 0.21322 0.9488 0.6549 0.0
C361 C 0.26197 0.95853 0.63883 0.0
C362 C 0.24386 0.93615 0.61572 0.0
C363 C 0.17956 0.90337 0.6089 0.0
C364 C 0.13193 0.8926 0.62474 0.0
C365 C 0.14827 0.91519 0.64746 0.0
H366 H 0.35155 0.9047 0.6261 0.0
C367 C 0.38556 0.95353 0.62108 0.0
H368 H 0.41337 0.05139 0.62481 0.0
H369 H 0.27827 0.02423 0.72078 0.0
H370 H 0.39046 0.08141 0.73232 0.0
H371 H 0.47507 0.09786 0.70458 0.0
H372 H 0.448 0.05718 0.66514 0.0
C373 C 0.37901 1.00227 0.62936 0.0
C374 C 0.3274 0.9916 0.64595 0.0
C375 C 0.34412 0.01613 0.6689 0.0
C376 C 0.29539 1.00702 0.68485 0.0
C377 C 0.31338 0.03083 0.70781 0.0
C378 C 0.37761 0.06344 0.71471 0.0
C379 C 0.42524 0.07267 0.6991 0.0
C380 C 0.409 0.04921 0.67648 0.0
H381 H 0.15192 0.17829 0.02221 0.0
C382 C 0.16449 0.14575 0.03074 0.0
H383 H 0.23652 0.12037 0.03539 0.0
H384 H 0.35161 0.26518 0.93836 0.0
H385 H 0.30234 0.15468 0.92541 0.0
H386 H 0.2387 0.06606 0.95223 0.0
H387 H 0.22347 0.08769 0.99221 0.0
C388 C 0.2229 0.15276 0.02741 0.0
C389 C 0.26989 0.20548 0.01253 0.0
C390 C 0.28061 0.19209 0.98956 0.0
C391 C 0.3186 0.24327 0.97426 0.0
C392 C 0.32506 0.22842 0.95097 0.0
C393 C 0.29662 0.16508 0.94325 0.0
C394 C 0.26068 0.11518 0.95834 0.0
C395 C 0.25234 0.12824 0.98121 0.0
H396 H 0.46067 0.34734 0.96095 0.0
C397 C 0.43922 0.37674 0.95695 0.0
H398 H 0.36093 0.39193 0.96247 0.0
H399 H 0.26504 0.24698 0.05635 0.0
H400 H 0.31608 0.35743 0.06977 0.0
H401 H 0.38257 0.44628 0.04342 0.0
H402 H 0.39842 0.42526 1.0035 0.0
C403 C 0.3821 0.36203 0.96602 0.0
C404 C 0.34728 0.30771 0.98226 0.0
C405 C 0.33878 0.32082 1.00557 0.0
C406 C 0.30027 0.26967 0.02074 0.0
C407 C 0.29295 0.28412 0.04399 0.0
C408 C 0.32226 0.34728 0.05195 0.0
C409 C 0.35971 0.3973 0.03712 0.0
C410 C 0.3682 0.38454 0.01421 0.0
H411 H 0.08745 0.20676 0.36145 0.0
C412 C 0.04181 0.16614 0.36647 0.0
H413 H 0.94065 0.12192 0.36439 0.0
H414 H 0.94993 0.38284 0.33824 0.0
H415 H 0.92092 0.37514 0.37878 0.0
H416 H 0.92028 0.29157 0.40363 0.0
H417 H 0.94938 0.21559 0.3881 0.0
C418 C 0.98651 0.16123 0.35882 0.0
C419 C 0.9855 0.21039 0.34358 0.0
C420 C 0.96666 0.25327 0.35275 0.0
C421 C 0.96594 0.30076 0.33832 0.0
C422 C 0.94977 0.34482 0.34822 0.0
C423 C 0.93332 0.34115 0.37153 0.0
C424 C 0.93302 0.29414 0.38552 0.0
C425 C 0.94968 0.25074 0.37637 0.0
H426 H 0.88735 0.32277 0.29792 0.0
C427 C 0.93483 0.35833 0.29212 0.0
H428 H 0.03431 0.39061 0.29332 0.0
H429 H 0.0186 0.13192 0.32008 0.0
H430 H 0.04666 0.1388 0.27944 0.0
H431 H 0.04584 0.22128 0.25441 0.0
H432 H 1.01608 0.29682 0.26976 0.0
C433 C 0.98696 0.35632 0.29966 0.0
C434 C 0.9828 0.30424 0.31461 0.0
C435 C 1.0005 0.26053 0.30535 0.0
C436 C 1.0016 0.21337 0.31982 0.0
C437 C 0.0181 0.16947 0.30998 0.0
C438 C 0.03402 0.17267 0.28664 0.0
C439 C 0.03347 0.21905 0.27254 0.0
C440 C 1.01664 0.26237 0.28163 0.0
loop_
_geom_bond_atom_site_label_1
_geom_bond_atom_site_label_2
_geom_bond_distance
_geom_bond_site_symmetry_2
_ccdc_geom_bond_type
In0 O1 2.294 1_455 S
In0 O2 2.326 . S
In0 O6 2.266 1_445 S
In0 O7 2.326 1_445 S
In0 O8 2.266 1_545 S
In0 O9 2.326 1_445 S
In0 O11 2.294 . S
In0 O12 2.326 . S
O1 In0 2.294 1_655 S
O1 C10 1.240 1_655 S
O2 In0 2.326 . S
O2 C10 1.252 . S
C3 O6 1.252 . S
C3 O7 1.260 . S
C4 O11 1.240 . S
C4 O12 1.252 . S
C5 O8 1.242 1_655 S
C5 O9 1.277 . S
O6 In0 2.266 1_665 S
O6 C3 1.252 . S
O7 In0 2.326 1_665 S
O7 C3 1.260 . S
O8 In0 2.266 1_565 S
O8 C5 1.242 1_455 S
O9 In0 2.326 1_665 S
O9 C5 1.277 . S
C10 O1 1.240 1_455 S
C10 O2 1.252 . S
O11 In0 2.294 . S
O11 C4 1.240 . S
O12 In0 2.326 . S
O12 C4 1.252 . S
In13 O14 2.294 . S
In13 O15 2.326 1_455 S
In13 O19 2.266 . S
In13 O20 2.326 1_545 S
In13 O21 2.266 1_445 S
In13 O22 2.326 1_545 S
In13 O24 2.294 1_445 S
In13 O25 2.326 1_455 S
O14 In13 2.294 . S
O14 C23 1.240 1_455 S
O15 In13 2.326 1_655 S
O15 C23 1.252 . S
C16 O19 1.252 1_565 S
C16 O20 1.260 . S
C17 O24 1.240 1_545 S
C17 O25 1.252 . S
C18 O21 1.252 1_455 S
C18 O22 1.260 . S
O19 In13 2.266 . S
O19 C16 1.252 1_545 S
O20 In13 2.326 1_565 S
O20 C16 1.260 . S
O21 In13 2.266 1_665 S
O21 C18 1.252 1_655 S
O22 In13 2.326 1_565 S
O22 C18 1.260 . S
C23 O14 1.240 1_655 S
C23 O15 1.252 . S
O24 In13 2.294 1_665 S
O24 C17 1.240 1_565 S
O25 In13 2.326 1_655 S
O25 C17 1.252 . S
In26 O27 2.294 1_445 S
In26 O28 2.326 1_445 S
In26 O32 2.266 1_545 S
In26 O33 2.326 . S
In26 O34 2.266 . S
In26 O35 2.326 . S
In26 O37 2.294 1_455 S
In26 O38 2.326 1_445 S
O27 In26 2.294 1_665 S
O27 C36 1.240 . S
O28 In26 2.326 1_665 S
O28 C36 1.252 . S
C29 O32 1.252 1_545 S
C29 O33 1.260 . S
C30 O37 1.240 1_565 S
C30 O38 1.252 . S
C31 O34 1.252 . S
C31 O35 1.260 . S
O32 In26 2.266 1_565 S
O32 C29 1.252 1_565 S
O33 In26 2.326 . S
O33 C29 1.260 . S
O34 In26 2.266 . S
O34 C31 1.252 . S
O35 In26 2.326 . S
O35 C31 1.260 . S
C36 O27 1.240 . S
C36 O28 1.252 . S
O37 In26 2.294 1_655 S
O37 C30 1.240 1_545 S
O38 In26 2.326 1_665 S
O38 C30 1.252 . S
C39 O41 1.247 . S
C39 O43 1.258 1_455 S
C40 O47 1.247 1_455 S
C40 O48 1.258 . S
O41 C39 1.247 . S
O41 Zn42 2.028 . S
Zn42 O41 2.028 . S
Zn42 O46 2.035 . S
Zn42 O48 2.035 . S
Zn42 O49 2.028 . S
O43 C39 1.258 1_655 S
O43 Zn44 2.035 . S
Zn44 O43 2.035 . S
Zn44 O45 2.028 . S
Zn44 O47 2.028 . S
Zn44 O50 2.035 . S
O45 Zn44 2.028 . S
O45 C51 1.247 1_655 S
O46 Zn42 2.035 . S
O46 C51 1.258 . S
O47 C40 1.247 1_655 S
O47 Zn44 2.028 . S
O48 C40 1.258 . S
O48 Zn42 2.035 . S
O49 Zn42 2.028 . S
O49 C52 1.247 . S
O50 Zn44 2.035 . S
O50 C52 1.258 1_655 S
C51 O45 1.247 1_455 S
C51 O46 1.258 . S
C52 O49 1.247 . S
C52 O50 1.258 1_455 S
C53 O55 1.247 1_545 S
C53 O57 1.258 . S
C54 O61 1.247 . S
C54 O62 1.258 1_545 S
O55 C53 1.247 1_565 S
O55 Zn56 2.028 . S
Zn56 O55 2.028 . S
Zn56 O60 2.035 . S
Zn56 O62 2.035 . S
Zn56 O63 2.028 . S
O57 C53 1.258 . S
O57 Zn58 2.035 . S
Zn58 O57 2.035 . S
Zn58 O59 2.028 . S
Zn58 O61 2.028 . S
Zn58 O64 2.035 . S
O59 Zn58 2.028 . S
O59 C65 1.247 . S
O60 Zn56 2.035 . S
O60 C65 1.258 1_565 S
O61 C54 1.247 . S
O61 Zn58 2.028 . S
O62 C54 1.258 1_565 S
O62 Zn56 2.035 . S
O63 Zn56 2.028 . S
O63 C66 1.247 1_565 S
O64 Zn58 2.035 . S
O64 C66 1.258 . S
C65 O59 1.247 . S
C65 O60 1.258 1_545 S
C66 O63 1.247 1_545 S
C66 O64 1.258 . S
C67 O69 1.247 . S
C67 O71 1.258 . S
C68 O75 1.247 . S
C68 O76 1.258 . S
O69 C67 1.247 . S
O69 Zn70 2.028 . S
Zn70 O69 2.028 . S
Zn70 O74 2.035 . S
Zn70 O76 2.035 . S
Zn70 O77 2.028 . S
O71 C67 1.258 . S
O71 Zn72 2.035 . S
Zn72 O71 2.035 . S
Zn72 O73 2.028 . S
Zn72 O75 2.028 . S
Zn72 O78 2.035 . S
O73 Zn72 2.028 . S
O73 C79 1.247 . S
O74 Zn70 2.035 . S
O74 C79 1.258 . S
O75 C68 1.247 . S
O75 Zn72 2.028 . S
O76 C68 1.258 . S
O76 Zn70 2.035 . S
O77 Zn70 2.028 . S
O77 C80 1.247 . S
O78 Zn72 2.035 . S
O78 C80 1.258 . S
C79 O73 1.247 . S
C79 O74 1.258 . S
C80 O77 1.247 . S
C80 O78 1.258 . S
H81 C82 0.951 . S
C82 H81 0.951 . S
C82 C88 1.265 1_455 S
H83 C88 0.950 . S
H84 C92 0.949 . S
H85 C93 0.950 . S
H86 C94 0.951 . S
H87 C95 0.951 . S
C88 C82 1.265 1_655 S
C88 H83 0.950 . S
C88 C89 1.478 . S
C89 C88 1.478 . S
C89 C90 1.397 . S
C89 C106 1.394 1_655 S
C90 C89 1.397 . S
C90 C91 1.438 . S
C90 C95 1.429 . S
C91 C90 1.438 . S
C91 C92 1.428 . S
C91 C104 1.394 1_655 S
C92 H84 0.949 . S
C92 C91 1.428 . S
C92 C93 1.345 . S
C93 H85 0.950 . S
C93 C92 1.345 . S
C93 C94 1.424 . S
C94 H86 0.951 . S
C94 C93 1.424 . S
C94 C95 1.347 . S
C95 H87 0.951 . S
C95 C90 1.429 . S
C95 C94 1.347 . S
H96 C97 0.951 . S
C97 H96 0.951 . S
C97 C103 1.265 1_655 S
H98 C103 0.950 . S
H99 C107 0.949 . S
H100 C108 0.950 . S
H101 C109 0.951 . S
H102 C110 0.951 . S
C103 C97 1.265 1_455 S
C103 H98 0.950 . S
C103 C104 1.478 . S
C104 C91 1.394 1_455 S
C104 C103 1.478 . S
C104 C105 1.397 . S
C105 C104 1.397 . S
C105 C106 1.438 . S
C105 C110 1.429 . S
C106 C89 1.394 1_455 S
C106 C105 1.438 . S
C106 C107 1.428 . S
C107 H99 0.949 . S
C107 C106 1.428 . S
C107 C108 1.345 . S
C108 H100 0.950 . S
C108 C107 1.345 . S
C108 C109 1.424 . S
C109 H101 0.951 . S
C109 C108 1.424 . S
C109 C110 1.347 . S
C110 H102 0.951 . S
C110 C105 1.429 . S
C110 C109 1.347 . S
H111 C112 0.951 . S
C112 H111 0.951 . S
C112 C118 1.265 . S
H113 C118 0.950 1_565 S
H114 C122 0.949 . S
H115 C123 0.950 . S
H116 C124 0.951 . S
H117 C125 0.951 . S
C118 C112 1.265 . S
C118 H113 0.950 1_545 S
C118 C119 1.478 . S
C119 C118 1.478 . S
C119 C120 1.397 1_545 S
C119 C136 1.394 . S
C120 C119 1.397 1_565 S
C120 C121 1.438 . S
C120 C125 1.429 . S
C121 C120 1.438 . S
C121 C122 1.428 . S
C121 C134 1.394 1_565 S
C122 H114 0.949 . S
C122 C121 1.428 . S
C122 C123 1.345 . S
C123 H115 0.950 . S
C123 C122 1.345 . S
C123 C124 1.424 . S
C124 H116 0.951 . S
C124 C123 1.424 . S
C124 C125 1.347 . S
C125 H117 0.951 . S
C125 C120 1.429 . S
C125 C124 1.347 . S
H126 C127 0.951 1_565 S
C127 H126 0.951 1_545 S
C127 C133 1.265 . S
H128 C133 0.950 . S
H129 C137 0.949 . S
H130 C138 0.950 . S
H131 C139 0.951 . S
H132 C140 0.951 . S
C133 C127 1.265 . S
C133 H128 0.950 . S
C133 C134 1.478 . S
C134 C121 1.394 1_545 S
C134 C133 1.478 . S
C134 C135 1.397 . S
C135 C134 1.397 . S
C135 C136 1.438 . S
C135 C140 1.429 . S
C136 C119 1.394 . S
C136 C135 1.438 . S
C136 C137 1.428 . S
C137 H129 0.949 . S
C137 C136 1.428 . S
C137 C138 1.345 . S
C138 H130 0.950 . S
C138 C137 1.345 . S
C138 C139 1.424 . S
C139 H131 0.951 . S
C139 C138 1.424 . S
C139 C140 1.347 . S
C140 H132 0.951 . S
C140 C135 1.429 . S
C140 C139 1.347 . S
H141 C142 0.951 . S
C142 H141 0.951 . S
C142 C148 1.265 . S
H143 C148 0.950 . S
H144 C152 0.949 . S
H145 C153 0.950 . S
H146 C154 0.951 . S
H147 C155 0.951 . S
C148 C142 1.265 . S
C148 H143 0.950 . S
C148 C149 1.478 . S
C149 C148 1.478 . S
C149 C150 1.397 . S
C149 C166 1.394 . S
C150 C149 1.397 . S
C150 C151 1.438 . S
C150 C155 1.429 . S
C151 C150 1.438 . S
C151 C152 1.428 . S
C151 C164 1.394 . S
C152 H144 0.949 . S
C152 C151 1.428 . S
C152 C153 1.345 . S
C153 H145 0.950 . S
C153 C152 1.345 . S
C153 C154 1.424 . S
C154 H146 0.951 . S
C154 C153 1.424 . S
C154 C155 1.347 . S
C155 H147 0.951 . S
C155 C150 1.429 . S
C155 C154 1.347 . S
H156 C157 0.951 . S
C157 H156 0.951 . S
C157 C163 1.265 . S
H158 C163 0.950 . S
H159 C167 0.949 . S
H160 C168 0.950 . S
H161 C169 0.951 . S
H162 C170 0.951 . S
C163 C157 1.265 . S
C163 H158 0.950 . S
C163 C164 1.478 . S
C164 C151 1.394 . S
C164 C163 1.478 . S
C164 C165 1.397 . S
C165 C164 1.397 . S
C165 C166 1.438 . S
C165 C170 1.429 . S
C166 C149 1.394 . S
C166 C165 1.438 . S
C166 C167 1.428 . S
C167 H159 0.949 . S
C167 C166 1.428 . S
C167 C168 1.345 . S
C168 H160 0.950 . S
C168 C167 1.345 . S
C168 C169 1.424 . S
C169 H161 0.951 . S
C169 C168 1.424 . S
C169 C170 1.347 . S
C170 H162 0.951 . S
C170 C165 1.429 . S
C170 C169 1.347 . S
H171 C172 0.941 1_455 S
C172 H171 0.941 1_655 S
C172 C178 1.264 . S
H173 C178 0.950 . S
H174 C182 0.949 . S
H175 C183 0.950 . S
H176 C184 0.951 . S
H177 C185 0.951 . S
C178 C172 1.264 . S
C178 H173 0.950 . S
C178 C179 1.475 1_655 S
C179 C178 1.475 1_455 S
C179 C180 1.394 1_455 S
C179 C196 1.400 . S
C180 C179 1.394 1_655 S
C180 C181 1.438 . S
C180 C185 1.429 . S
C181 C180 1.438 . S
C181 C182 1.428 . S
C181 C194 1.394 1_655 S
C182 H174 0.949 . S
C182 C181 1.428 . S
C182 C183 1.345 . S
C183 H175 0.950 . S
C183 C182 1.345 . S
C183 C184 1.424 . S
C184 H176 0.951 . S
C184 C183 1.424 . S
C184 C185 1.347 . S
C185 H177 0.951 . S
C185 C180 1.429 . S
C185 C184 1.347 . S
H186 C187 0.951 . S
C187 H186 0.951 . S
C187 C193 1.265 . S
H188 C193 0.950 . S
H189 C197 0.949 . S
H190 C198 0.950 . S
H191 C199 0.951 . S
H192 C200 0.951 . S
C193 C187 1.265 . S
C193 H188 0.950 . S
C193 C194 1.478 . S
C194 C181 1.394 1_455 S
C194 C193 1.478 . S
C194 C195 1.397 . S
C195 C194 1.397 . S
C195 C196 1.438 . S
C195 C200 1.429 . S
C196 C179 1.400 . S
C196 C195 1.438 . S
C196 C197 1.428 . S
C197 H189 0.949 . S
C197 C196 1.428 . S
C197 C198 1.345 . S
C198 H190 0.950 . S
C198 C197 1.345 . S
C198 C199 1.424 . S
C199 H191 0.951 . S
C199 C198 1.424 . S
C199 C200 1.347 . S
C200 H192 0.951 . S
C200 C195 1.429 . S
C200 C199 1.347 . S
H201 C202 0.949 . S
C202 H201 0.949 . S
C202 C208 1.263 1_545 S
H203 C208 0.950 . S
H204 C212 0.949 . S
H205 C213 0.950 . S
H206 C214 0.951 . S
H207 C215 0.951 . S
C208 C202 1.263 1_565 S
C208 H203 0.950 . S
C208 C209 1.478 . S
C209 C208 1.478 . S
C209 C210 1.397 . S
C209 C226 1.394 1_565 S
C210 C209 1.397 . S
C210 C211 1.438 . S
C210 C215 1.429 . S
C211 C210 1.438 . S
C211 C212 1.428 . S
C211 C224 1.394 1_565 S
C212 H204 0.949 . S
C212 C211 1.428 . S
C212 C213 1.345 . S
C213 H205 0.950 . S
C213 C212 1.345 . S
C213 C214 1.424 . S
C214 H206 0.951 . S
C214 C213 1.424 . S
C214 C215 1.347 . S
C215 H207 0.951 . S
C215 C210 1.429 . S
C215 C214 1.347 . S
H216 C217 0.951 1_565 S
C217 H216 0.951 1_545 S
C217 C223 1.265 . S
H218 C223 0.950 . S
H219 C227 0.949 . S
H220 C228 0.950 . S
H221 C229 0.951 . S
H222 C230 0.951 . S
C223 C217 1.265 . S
C223 H218 0.950 . S
C223 C224 1.478 . S
C224 C211 1.394 1_545 S
C224 C223 1.478 . S
C224 C225 1.397 . S
C225 C224 1.397 . S
C225 C226 1.438 . S
C225 C230 1.429 . S
C226 C209 1.394 1_545 S
C226 C225 1.438 . S
C226 C227 1.428 . S
C227 H219 0.949 . S
C227 C226 1.428 . S
C227 C228 1.345 . S
C228 H220 0.950 . S
C228 C227 1.345 . S
C228 C229 1.424 . S
C229 H221 0.951 . S
C229 C228 1.424 . S
C229 C230 1.347 . S
C230 H222 0.951 . S
C230 C225 1.429 . S
C230 C229 1.347 . S
H231 C232 0.951 . S
C232 H231 0.951 . S
C232 C238 1.265 . S
H233 C238 0.950 . S
H234 C242 0.949 . S
H235 C243 0.950 . S
H236 C244 0.951 . S
H237 C245 0.951 . S
C238 C232 1.265 . S
C238 H233 0.950 . S
C238 C239 1.478 . S
C239 C238 1.478 . S
C239 C240 1.397 . S
C239 C256 1.394 . S
C240 C239 1.397 . S
C240 C241 1.438 . S
C240 C245 1.429 . S
C241 C240 1.438 . S
C241 C242 1.428 . S
C241 C254 1.394 . S
C242 H234 0.949 . S
C242 C241 1.428 . S
C242 C243 1.345 . S
C243 H235 0.950 . S
C243 C242 1.345 . S
C243 C244 1.424 . S
C244 H236 0.951 . S
C244 C243 1.424 . S
C244 C245 1.347 . S
C245 H237 0.951 . S
C245 C240 1.429 . S
C245 C244 1.347 . S
H246 C247 0.951 . S
C247 H246 0.951 . S
C247 C253 1.265 . S
H248 C253 0.950 . S
H249 C257 0.949 . S
H250 C258 0.950 . S
H251 C259 0.951 . S
H252 C260 0.951 . S
C253 C247 1.265 . S
C253 H248 0.950 . S
C253 C254 1.478 . S
C254 C241 1.394 . S
C254 C253 1.478 . S
C254 C255 1.397 . S
C255 C254 1.397 . S
C255 C256 1.438 . S
C255 C260 1.429 . S
C256 C239 1.394 . S
C256 C255 1.438 . S
C256 C257 1.428 . S
C257 H249 0.949 . S
C257 C256 1.428 . S
C257 C258 1.345 . S
C258 H250 0.950 . S
C258 C257 1.345 . S
C258 C259 1.424 . S
C259 H251 0.951 . S
C259 C258 1.424 . S
C259 C260 1.347 . S
C260 H252 0.951 . S
C260 C255 1.429 . S
C260 C259 1.347 . S
H261 C262 0.951 . S
C262 H261 0.951 . S
C262 C268 1.265 1_565 S
H263 C268 0.950 . S
H264 C272 0.949 . S
H265 C273 0.950 . S
H266 C274 0.951 . S
H267 C275 0.951 . S
C268 C262 1.265 1_545 S
C268 H263 0.950 . S
C268 C269 1.478 . S
C269 C268 1.478 . S
C269 C270 1.397 . S
C269 C286 1.394 . S
C270 C269 1.397 . S
C270 C271 1.438 1_545 S
C270 C275 1.429 . S
C271 C270 1.438 1_565 S
C271 C272 1.428 . S
C271 C284 1.394 . S
C272 H264 0.949 . S
C272 C271 1.428 . S
C272 C273 1.345 1_565 S
C273 H265 0.950 . S
C273 C272 1.345 1_545 S
C273 C274 1.424 . S
C274 H266 0.951 . S
C274 C273 1.424 . S
C274 C275 1.347 . S
C275 H267 0.951 . S
C275 C270 1.429 . S
C275 C274 1.347 . S
H276 C277 0.951 . S
C277 H276 0.951 . S
C277 C283 1.265 1_545 S
H278 C283 0.950 . S
H279 C287 0.949 . S
H280 C288 0.950 . S
H281 C289 0.951 . S
H282 C290 0.951 . S
C283 C277 1.265 1_565 S
C283 H278 0.950 . S
C283 C284 1.478 . S
C284 C271 1.394 . S
C284 C283 1.478 . S
C284 C285 1.397 . S
C285 C284 1.397 . S
C285 C286 1.438 1_565 S
C285 C290 1.429 . S
C286 C269 1.394 . S
C286 C285 1.438 1_545 S
C286 C287 1.428 . S
C287 H279 0.949 . S
C287 C286 1.428 . S
C287 C288 1.345 1_545 S
C288 H280 0.950 . S
C288 C287 1.345 1_565 S
C288 C289 1.424 . S
C289 H281 0.951 . S
C289 C288 1.424 . S
C289 C290 1.347 . S
C290 H282 0.951 . S
C290 C285 1.429 . S
C290 C289 1.347 . S
H291 C292 0.951 . S
C292 H291 0.951 . S
C292 C298 1.265 . S
H293 C298 0.950 . S
H294 C302 0.949 . S
H295 C303 0.950 . S
H296 C304 0.951 . S
H297 C305 0.951 . S
C298 C292 1.265 . S
C298 H293 0.950 . S
C298 C299 1.478 . S
C299 C298 1.478 . S
C299 C300 1.397 1_554 S
C299 C316 1.394 . S
C300 C299 1.397 1_556 S
C300 C301 1.438 . S
C300 C305 1.429 . S
C301 C300 1.438 . S
C301 C302 1.428 . S
C301 C314 1.394 . S
C302 H294 0.949 . S
C302 C301 1.428 . S
C302 C303 1.345 . S
C303 H295 0.950 . S
C303 C302 1.345 . S
C303 C304 1.424 . S
C304 H296 0.951 . S
C304 C303 1.424 . S
C304 C305 1.347 . S
C305 H297 0.951 . S
C305 C300 1.429 . S
C305 C304 1.347 . S
H306 C307 0.951 . S
C307 H306 0.951 . S
C307 C313 1.265 . S
H308 C313 0.950 . S
H309 C317 0.949 . S
H310 C318 0.950 . S
H311 C319 0.951 . S
H312 C320 0.951 . S
C313 C307 1.265 . S
C313 H308 0.950 . S
C313 C314 1.478 . S
C314 C301 1.394 . S
C314 C313 1.478 . S
C314 C315 1.397 . S
C315 C314 1.397 . S
C315 C316 1.438 1_556 S
C315 C320 1.429 . S
C316 C299 1.394 . S
C316 C315 1.438 1_554 S
C316 C317 1.428 . S
C317 H309 0.949 . S
C317 C316 1.428 . S
C317 C318 1.345 . S
C318 H310 0.950 . S
C318 C317 1.345 . S
C318 C319 1.424 . S
C319 H311 0.951 . S
C319 C318 1.424 . S
C319 C320 1.347 1_554 S
C320 H312 0.951 . S
C320 C315 1.429 . S
C320 C319 1.347 1_556 S
H321 C322 0.951 1_655 S
C322 H321 0.951 1_455 S
C322 C328 1.265 . S
H323 C328 0.950 . S
H324 C332 0.949 . S
H325 C333 0.950 . S
H326 C334 0.951 . S
H327 C335 0.951 . S
C328 C322 1.265 . S
C328 H323 0.950 . S
C328 C329 1.478 . S
C329 C328 1.478 . S
C329 C330 1.397 1_455 S
C329 C346 1.394 . S
C330 C329 1.397 1_655 S
C330 C331 1.438 . S
C330 C335 1.429 . S
C331 C330 1.438 . S
C331 C332 1.428 . S
C331 C344 1.389 1_655 S
C332 H324 0.949 . S
C332 C331 1.428 . S
C332 C333 1.345 . S
C333 H325 0.950 . S
C333 C332 1.345 . S
C333 C334 1.424 . S
C334 H326 0.951 . S
C334 C333 1.424 . S
C334 C335 1.347 . S
C335 H327 0.951 . S
C335 C330 1.429 . S
C335 C334 1.347 . S
H336 C337 0.951 . S
C337 H336 0.951 . S
C337 C343 1.265 1_455 S
H338 C343 0.950 . S
H339 C347 0.949 . S
H340 C348 0.950 . S
H341 C349 0.951 . S
H342 C350 0.951 . S
C343 C337 1.265 1_655 S
C343 H338 0.950 . S
C343 C344 1.481 1_655 S
C344 C331 1.389 1_455 S
C344 C343 1.481 1_455 S
C344 C345 1.399 . S
C345 C344 1.399 . S
C345 C346 1.438 . S
C345 C350 1.429 . S
C346 C329 1.394 . S
C346 C345 1.438 . S
C346 C347 1.428 . S
C347 H339 0.949 . S
C347 C346 1.428 . S
C347 C348 1.345 . S
C348 H340 0.950 . S
C348 C347 1.345 . S
C348 C349 1.424 . S
C349 H341 0.951 . S
C349 C348 1.424 . S
C349 C350 1.347 . S
C350 H342 0.951 . S
C350 C345 1.429 . S
C350 C349 1.347 . S
H351 C352 0.951 . S
C352 H351 0.951 . S
C352 C358 1.265 1_545 S
H353 C358 0.950 . S
H354 C362 0.949 . S
H355 C363 0.950 . S
H356 C364 0.951 . S
H357 C365 0.951 . S
C358 C352 1.265 1_565 S
C358 H353 0.950 . S
C358 C359 1.478 1_565 S
C359 C358 1.478 1_545 S
C359 C360 1.397 1_545 S
C359 C376 1.394 . S
C360 C359 1.397 1_565 S
C360 C361 1.438 . S
C360 C365 1.429 . S
C361 C360 1.438 . S
C361 C362 1.428 . S
C361 C374 1.394 1_565 S
C362 H354 0.949 . S
C362 C361 1.428 . S
C362 C363 1.345 . S
C363 H355 0.950 . S
C363 C362 1.345 . S
C363 C364 1.424 . S
C364 H356 0.951 . S
C364 C363 1.424 . S
C364 C365 1.347 . S
C365 H357 0.951 . S
C365 C360 1.429 . S
C365 C364 1.347 . S
H366 C367 0.951 1_565 S
C367 H366 0.951 1_545 S
C367 C373 1.265 . S
H368 C373 0.950 . S
H369 C377 0.949 . S
H370 C378 0.950 . S
H371 C379 0.951 . S
H372 C380 0.951 . S
C373 C367 1.265 . S
C373 H368 0.950 . S
C373 C374 1.478 . S
C374 C361 1.394 1_545 S
C374 C373 1.478 . S
C374 C375 1.397 . S
C375 C374 1.397 . S
C375 C376 1.438 . S
C375 C380 1.429 . S
C376 C359 1.394 . S
C376 C375 1.438 . S
C376 C377 1.428 . S
C377 H369 0.949 . S
C377 C376 1.428 . S
C377 C378 1.345 . S
C378 H370 0.950 . S
C378 C377 1.345 . S
C378 C379 1.424 . S
C379 H371 0.951 . S
C379 C378 1.424 . S
C379 C380 1.347 . S
C380 H372 0.951 . S
C380 C375 1.429 . S
C380 C379 1.347 . S
H381 C382 0.951 . S
C382 H381 0.951 . S
C382 C388 1.265 . S
H383 C388 0.950 . S
H384 C392 0.949 . S
H385 C393 0.950 . S
H386 C394 0.951 . S
H387 C395 0.951 . S
C388 C382 1.265 . S
C388 H383 0.950 . S
C388 C389 1.478 . S
C389 C388 1.478 . S
C389 C390 1.397 1_554 S
C389 C406 1.394 . S
C390 C389 1.397 1_556 S
C390 C391 1.438 . S
C390 C395 1.429 . S
C391 C390 1.438 . S
C391 C392 1.428 . S
C391 C404 1.394 . S
C392 H384 0.949 . S
C392 C391 1.428 . S
C392 C393 1.345 . S
C393 H385 0.950 . S
C393 C392 1.345 . S
C393 C394 1.424 . S
C394 H386 0.951 . S
C394 C393 1.424 . S
C394 C395 1.347 . S
C395 H387 0.951 . S
C395 C390 1.429 . S
C395 C394 1.347 . S
H396 C397 0.951 . S
C397 H396 0.951 . S
C397 C403 1.265 . S
H398 C403 0.950 . S
H399 C407 0.949 . S
H400 C408 0.950 . S
H401 C409 0.951 . S
H402 C410 0.925 1_556 S
C403 C397 1.265 . S
C403 H398 0.950 . S
C403 C404 1.478 . S
C404 C391 1.394 . S
C404 C403 1.478 . S
C404 C405 1.397 . S
C405 C404 1.397 . S
C405 C406 1.438 1_556 S
C405 C410 1.416 1_556 S
C406 C389 1.394 . S
C406 C405 1.438 1_554 S
C406 C407 1.428 . S
C407 H399 0.949 . S
C407 C406 1.428 . S
C407 C408 1.345 . S
C408 H400 0.950 . S
C408 C407 1.345 . S
C408 C409 1.424 . S
C409 H401 0.951 . S
C409 C408 1.424 . S
C409 C410 1.386 . S
C410 H402 0.925 1_554 S
C410 C405 1.416 1_554 S
C410 C409 1.386 . S
H411 C412 0.951 . S
C412 H411 0.951 . S
C412 C418 1.265 1_455 S
H413 C418 0.950 . S
H414 C422 0.949 . S
H415 C423 0.950 . S
H416 C424 0.951 . S
H417 C425 0.951 . S
C418 C412 1.265 1_655 S
C418 H413 0.950 . S
C418 C419 1.478 . S
C419 C418 1.478 . S
C419 C420 1.397 . S
C419 C436 1.394 . S
C420 C419 1.397 . S
C420 C421 1.438 1_655 S
C420 C425 1.429 . S
C421 C420 1.438 1_455 S
C421 C422 1.428 . S
C421 C434 1.394 . S
C422 H414 0.949 . S
C422 C421 1.428 . S
C422 C423 1.345 . S
C423 H415 0.950 . S
C423 C422 1.345 . S
C423 C424 1.424 1_455 S
C424 H416 0.951 . S
C424 C423 1.424 1_655 S
C424 C425 1.347 . S
C425 H417 0.951 . S
C425 C420 1.429 . S
C425 C424 1.347 . S
H426 C427 0.951 . S
C427 H426 0.951 . S
C427 C433 1.265 1_655 S
H428 C433 0.950 . S
H429 C437 0.949 . S
H430 C438 0.950 . S
H431 C439 0.951 . S
H432 C440 0.951 . S
C433 C427 1.265 1_455 S
C433 H428 0.950 . S
C433 C434 1.478 . S
C434 C421 1.394 . S
C434 C433 1.478 . S
C434 C435 1.397 . S
C435 C434 1.397 . S
C435 C436 1.438 1_455 S
C435 C440 1.429 . S
C436 C419 1.394 . S
C436 C435 1.438 1_655 S
C436 C437 1.428 . S
C437 H429 0.949 . S
C437 C436 1.428 . S
C437 C438 1.345 . S
C438 H430 0.950 . S
C438 C437 1.345 . S
C438 C439 1.424 1_655 S
C439 H431 0.951 . S
C439 C438 1.424 1_455 S
C439 C440 1.347 . S
C440 H432 0.951 . S
C440 C435 1.429 . S
C440 C439 1.347 . S
C97 C40 1.486 1_655 S
C82 C10 1.487 . S
C112 C17 1.486 . S
C127 C66 1.482 . S
C142 C36 1.486 . S
C157 C68 1.486 . S
C172 C5 1.489 . S
C187 C52 1.492 . S
C217 C54 1.492 . S
C202 C16 1.496 1_545 S
C232 C31 1.483 . S
C247 C80 1.483 . S
C277 C53 1.489 . S
C262 C30 1.488 . S
C292 C3 1.486 . S
C307 C79 1.487 . S
C337 C39 1.483 . S
C322 C18 1.484 . S
C367 C65 1.484 . S
C352 C29 1.484 . S
C397 C67 1.488 . S
C382 C4 1.488 . S
C412 C23 1.485 1_455 S
C427 C51 1.482 1_655 S
