# Generated by pormake.
# Topology scu, (8,4)-cn, num edge types: 1
# Building blocks:
#     Node 0, Type 0, BuildingBlock: VETTIZ_charged_sbu_0, # of connection points: 8
#     Node 1, Type 1, BuildingBlock: NAWXER_clean_sbu_0, # of connection points: 4
#     Node 2, Type 1, BuildingBlock: NAWXER_clean_sbu_0, # of connection points: 4
#     Edge 3, Type (0, 1), BuildingBlock: FUNLAD_clean_linker_1, # of connection points: 2
#     Edge 4, Type (0, 1), BuildingBlock: FUNLAD_clean_linker_1, # of connection points: 2
#     Edge 5, Type (0, 1), BuildingBlock: FUNLAD_clean_linker_1, # of connection points: 2
#     Edge 6, Type (0, 1), BuildingBlock: FUNLAD_clean_linker_1, # of connection points: 2
#     Edge 7, Type (0, 1), BuildingBlock: FUNLAD_clean_linker_1, # of connection points: 2
#     Edge 8, Type (0, 1), BuildingBlock: FUNLAD_clean_linker_1, # of connection points: 2
#     Edge 9, Type (0, 1), BuildingBlock: FUNLAD_clean_linker_1, # of connection points: 2
#     Edge 10, Type (0, 1), BuildingBlock: FUNLAD_clean_linker_1, # of connection points: 2
# Relax obj value: 0.013
# Max RMSD: 0.059
# Mean RMSD: 0.052
data_MOF--net-scu--node1-VETTIZ_charged_sbu_0--node2-NAWXER_clean_sbu_0--edge1-FUNLAD_clean_linker_1
_symmetry_space_group_name_H-M    P1
_symmetry_Int_Tables_number       1
_symmetry_cell_setting            triclinic
loop_
_symmetry_equiv_pos_as_xyz
'x, y, z'
_cell_length_a     25.885671
_cell_length_b     25.900197
_cell_length_c     19.755421
_cell_angle_alpha  91.08967
_cell_angle_beta   91.415944
_cell_angle_gamma 91.175802
loop_
_atom_site_label
_atom_site_type_symbol
_atom_site_fract_x
_atom_site_fract_y
_atom_site_fract_z
_atom_type_partial_charge
Fe0 Fe 0.99519 0.97978 0.16847 0.0
O1 O 0.99357 0.98454 0.06912 0.0
Fe2 Fe 0.06227 0.97016 1.01825 0.0
Fe3 Fe 0.97392 0.04886 1.02106 0.0
O4 O 0.99772 0.98149 0.06939 0.0
O5 O 0.04175 0.0336 0.96937 0.0
O6 O 0.03821 0.03698 0.96964 0.0
Fe7 Fe 0.04007 0.03894 0.87046 0.0
C8 C 0.8899 0.0175 0.12408 0.0
O9 O 0.98905 0.05854 0.18564 0.0
O10 O 0.01516 0.09462 0.09071 0.0
O11 O 0.119 0.03423 0.88431 0.0
O12 O 0.12787 0.96658 0.95776 0.0
O13 O 0.10556 0.01514 0.08637 0.0
O14 O 0.0746 0.98614 0.18327 0.0
O15 O 0.96371 0.11636 0.96355 0.0
O16 O 0.03237 0.11655 0.8906 0.0
C17 C 0.11056 1.00678 0.14936 0.0
O18 O 0.03903 0.9598 0.85224 0.0
O19 O 0.02125 0.92307 0.95068 0.0
O20 O 0.9162 0.98082 0.15172 0.0
O21 O 0.90804 0.05135 0.08198 0.0
C22 C 1.00488 0.0976 0.15323 0.0
C23 C 0.99464 0.13891 0.92124 0.0
C24 C 0.92573 0.01433 0.88845 0.0
O25 O 0.92967 1.00538 0.95149 0.0
O26 O 0.96115 0.03753 0.85685 0.0
C27 C 0.14561 0.99849 0.91335 0.0
O28 O 0.07527 0.90445 0.07638 0.0
O29 O 1.00804 0.90207 0.15106 0.0
C30 C 0.02267 0.92177 0.88643 0.0
C31 C 0.04706 0.88157 0.12099 0.0
C32 C 0.94695 0.59291 0.58422 0.0
C33 C 0.95036 0.43617 0.44059 0.0
O34 O 0.99271 0.57676 0.57429 0.0
Zn35 Zn 0.02919 0.51497 0.52071 0.0
O36 O 0.90829 0.56814 0.55802 0.0
Zn37 Zn 0.94683 0.51448 0.51253 0.0
O38 O 0.97814 0.47124 0.59482 0.0
O39 O 0.06326 0.47826 0.59299 0.0
O40 O 0.91083 0.4608 0.45851 0.0
O41 O 0.99552 0.45256 0.46006 0.0
O42 O 0.07019 0.55264 0.45607 0.0
O43 O 0.98593 0.5583 0.4379 0.0
C44 C 0.02271 0.46036 0.61982 0.0
C45 C 0.03228 0.57008 0.42195 0.0
C46 C 0.59958 0.96363 0.59263 0.0
C47 C 0.45486 0.97983 0.43198 0.0
O48 O 0.57655 0.92823 0.55751 0.0
Zn49 Zn 0.5292 0.97196 0.5095 0.0
O50 O 0.58619 1.01078 0.58595 0.0
Zn51 Zn 0.52926 0.05247 0.52796 0.0
O52 O 0.48875 0.08273 0.59832 0.0
O53 O 0.48035 0.99778 0.58974 0.0
O54 O 0.46951 0.02365 0.45802 0.0
O55 O 0.47945 0.93954 0.44692 0.0
O56 O 0.57842 0.0164 0.44488 0.0
O57 O 0.56979 0.09841 0.47383 0.0
C58 C 0.46863 0.04075 0.61826 0.0
C59 C 0.58999 0.06428 0.43665 0.0
H60 H 0.02899 0.17995 0.16471 0.0
C61 C 1.00698 0.14893 0.18755 0.0
H62 H 0.957 0.12796 0.26574 0.0
H63 H 0.01429 0.30351 0.47822 0.0
H64 H 0.04405 0.22736 0.53562 0.0
H65 H 0.04528 0.14293 0.47591 0.0
H66 H 0.01664 0.13404 0.35854 0.0
C67 C 0.97937 0.15885 0.24316 0.0
C68 C 0.97961 0.21066 0.27793 0.0
C69 C 0.99706 0.21538 0.34649 0.0
C70 C 0.99732 0.26432 0.3806 0.0
C71 C 0.01421 0.26756 0.44939 0.0
C72 C 0.03122 0.2241 0.48311 0.0
C73 C 0.0318 0.17655 0.44954 0.0
C74 C 0.01506 0.172 0.3821 0.0
H75 H 0.90566 0.3736 0.38596 0.0
C76 C 0.9444 0.3878 0.39957 0.0
H77 H 0.02433 0.37354 0.39661 0.0
H78 H 0.93446 0.21423 0.15093 0.0
H79 H 0.90758 0.29084 0.0924 0.0
H80 H 0.91566 0.37681 0.148 0.0
H81 H 0.94953 0.38644 0.26312 0.0
C82 C 0.98563 0.36039 0.38102 0.0
C83 C 0.98077 0.30882 0.34604 0.0
C84 C 0.96281 0.30411 0.27768 0.0
C85 C 0.96087 0.25479 0.24423 0.0
C86 C 0.93948 0.25088 0.17759 0.0
C87 C 0.92339 0.29456 0.14355 0.0
C88 C 0.92775 0.34293 0.17495 0.0
C89 C 0.9471 0.34788 0.24123 0.0
H90 H 0.82016 0.98934 0.17331 0.0
C91 C 0.83701 0.02262 0.14848 0.0
H92 H 0.83097 0.10282 0.13316 0.0
H93 H 0.60403 1.01014 0.24558 0.0
H94 H 0.59021 0.97667 0.13078 0.0
H95 H 0.65752 0.98696 0.04551 0.0
H96 H 0.73903 0.03139 0.07453 0.0
C97 C 0.81309 0.06801 0.15271 0.0
C98 C 0.7682 0.07246 0.19796 0.0
C99 C 0.7207 0.04711 0.18027 0.0
C100 C 0.68215 0.0409 0.22964 0.0
C101 C 0.63501 0.01531 0.21039 0.0
C102 C 0.62648 0.9961 0.14459 0.0
C103 C 0.66437 1.00191 0.09656 0.0
C104 C 0.71099 0.02719 0.11389 0.0
H105 H 0.63249 0.12086 0.37517 0.0
C106 C 0.62687 0.07993 0.38458 0.0
H107 H 0.64791 1.00409 0.35841 0.0
H108 H 0.8518 0.13012 0.24477 0.0
H109 H 0.8666 0.16353 0.35922 0.0
H110 H 0.80231 0.14843 0.44725 0.0
H111 H 0.72284 0.10057 0.42126 0.0
C112 C 0.65432 0.04508 0.35026 0.0
C113 C 0.69138 0.05967 0.29691 0.0
C114 C 0.73794 0.08768 0.3136 0.0
C115 C 0.77582 0.09506 0.26344 0.0
C116 C 0.82204 0.12292 0.28113 0.0
C117 C 0.83103 0.14235 0.34664 0.0
C118 C 0.79478 0.13395 0.39612 0.0
C119 C 0.74894 0.1067 0.38025 0.0
H120 H 0.09428 0.81122 0.11598 0.0
C121 C 0.06325 0.82987 0.14258 0.0
H122 H 0.0147 0.8273 0.22685 0.0
H123 H 0.05861 0.58128 0.23182 0.0
H124 H 1.01224 0.57498 0.12317 0.0
H125 H 0.98893 0.65351 0.06152 0.0
H126 H 1.01249 0.73867 0.1074 0.0
C127 C 0.0437 0.80773 0.1976 0.0
C128 C 0.06517 0.76006 0.22686 0.0
C129 C 0.05076 0.71084 0.19932 0.0
C130 C 0.06269 0.66566 0.23586 0.0
C131 C 0.04884 0.61678 0.20693 0.0
C132 C 0.0226 0.61268 0.14456 0.0
C133 C 1.00958 0.6569 0.10978 0.0
C134 C 0.02331 0.70555 0.13665 0.0
H135 H 1.00449 0.62189 0.34357 0.0
C136 C 0.03947 0.60689 0.36691 0.0
H137 H 0.12091 0.6127 0.37237 0.0
H138 H 0.10745 0.84783 0.28607 0.0
H139 H 0.15813 0.85361 0.3912 0.0
H140 H 0.17723 0.77542 0.45587 0.0
H141 H 0.14545 0.69112 0.41637 0.0
C142 C 0.08555 0.62571 0.34805 0.0
C143 C 0.08731 0.67001 0.3008 0.0
C144 C 0.10683 0.71878 0.3245 0.0
C145 C 0.09561 0.7639 0.28743 0.0
C146 C 0.11449 0.81242 0.31271 0.0
C147 C 0.14374 0.81626 0.3728 0.0
C148 C 0.15449 0.77222 0.4092 0.0
C149 C 0.13598 0.72401 0.38593 0.0
H150 H 0.18828 0.04386 0.15889 0.0
C151 C 0.1615 0.01737 0.1827 0.0
H152 H 0.15022 0.96488 0.26163 0.0
H153 H 0.40738 0.99311 0.25278 0.0
H154 H 0.40031 0.96161 0.13649 0.0
H155 H 0.31496 0.94387 0.08175 0.0
H156 H 0.23634 0.95863 0.14226 0.0
C157 C 0.17684 0.99171 0.2381 0.0
C158 C 0.22901 0.9996 0.27112 0.0
C159 C 0.2747 0.98774 0.23599 0.0
C160 C 0.32402 0.99498 0.26885 0.0
C161 C 0.36899 0.98616 0.23128 0.0
C162 C 0.3655 0.96832 0.16434 0.0
C163 C 0.31746 0.95855 0.13343 0.0
C164 C 0.27251 0.96778 0.16866 0.0
H165 H 0.3955 0.93741 0.36922 0.0
C166 C 0.40786 0.97552 0.38801 0.0
H167 H 0.38973 0.05453 0.39479 0.0
H168 H 0.14962 0.02673 0.35303 0.0
H169 H 0.15683 0.05421 0.47086 0.0
H170 H 0.2419 0.06157 0.52963 0.0
H171 H 0.32029 0.04164 0.47091 0.0
C172 C 0.3787 0.01661 0.37404 0.0
C173 C 0.32752 1.01098 0.33794 0.0
C174 C 0.28188 0.02203 0.37331 0.0
C175 C 0.2327 0.01674 0.33978 0.0
C176 C 0.18793 0.02907 0.37618 0.0
C177 C 0.19148 0.0451 0.44387 0.0
C178 C 0.23938 0.04934 0.47691 0.0
C179 C 0.28413 0.03791 0.44243 0.0
H180 H 1.01069 0.83724 0.88011 0.0
C181 C 1.00852 0.87247 0.85122 0.0
H182 H 0.99084 0.90504 0.75677 0.0
H183 H 0.03949 0.71101 0.57529 0.0
H184 H 0.09969 0.77578 0.53583 0.0
H185 H 0.10932 0.86071 0.59377 0.0
H186 H 0.05819 0.88162 0.691 0.0
C187 C 0.99338 0.8698 0.78556 0.0
C188 C 0.98519 0.81913 0.74882 0.0
C189 C 0.01596 0.8073 0.69236 0.0
C190 C 1.01162 0.75772 0.66012 0.0
C191 C 0.04212 0.74747 0.60295 0.0
C192 C 0.07673 0.78443 0.57943 0.0
C193 C 0.08203 0.83226 0.61197 0.0
C194 C 0.05221 0.84377 0.66778 0.0
H195 H 0.90242 0.66021 0.61946 0.0
C196 C 0.93985 0.64204 0.6222 0.0
H197 H 0.01716 0.64764 0.65782 0.0
H198 H 0.91227 0.8325 0.84542 0.0
H199 H 0.85287 0.7673 0.88621 0.0
H200 H 0.85179 0.6786 0.83834 0.0
H201 H 0.90892 0.65509 0.74807 0.0
C202 C 0.97959 0.66565 0.65656 0.0
C203 C 0.97752 0.71937 0.68522 0.0
C204 C 0.94542 0.73172 0.74023 0.0
C205 C 0.94818 0.78212 0.77065 0.0
C206 C 0.91349 0.7943 0.82261 0.0
C207 C 0.87894 0.7573 0.84623 0.0
C208 C 0.87819 0.70743 0.81908 0.0
C209 C 0.91104 0.69453 0.76687 0.0
H210 H 0.22053 0.95863 0.90847 0.0
C211 C 0.19896 0.9914 0.89033 0.0
H212 H 0.1975 0.05417 0.82344 0.0
H213 H 0.44688 0.02133 0.80946 0.0
H214 H 0.45129 0.04924 0.92765 0.0
H215 H 0.37175 0.06006 0.99234 0.0
H216 H 0.28734 0.04284 0.93941 0.0
C217 C 0.21939 0.02227 0.84349 0.0
C218 C 0.26781 1.01005 0.80853 0.0
C219 C 0.31665 0.02076 0.84022 0.0
C220 C 0.36245 0.01546 0.80257 0.0
C221 C 0.41087 0.02572 0.83544 0.0
C222 C 0.41394 0.04157 0.90326 0.0
C223 C 0.36915 0.04761 0.93972 0.0
C224 C 0.32094 0.03753 0.90877 0.0
H225 H 0.41668 0.07902 0.68976 0.0
C226 C 0.42926 0.04175 0.67088 0.0
H227 H 0.41704 0.96082 0.67146 0.0
H228 H 0.18039 0.98154 0.73493 0.0
H229 H 0.17606 0.95219 0.61752 0.0
H230 H 0.25533 0.94451 0.5516 0.0
H231 H 0.3393 0.96624 0.6025 0.0
C232 C 0.40598 0.9982 0.69171 0.0
C233 C 0.35905 1.00009 0.7333 0.0
C234 C 0.31032 0.98713 0.70256 0.0
C235 C 0.26464 0.99211 0.74027 0.0
C236 C 0.21634 0.9791 0.70834 0.0
C237 C 0.21328 0.96202 0.64104 0.0
C238 C 0.25791 0.95761 0.60397 0.0
C239 C 0.30592 0.97015 0.63395 0.0
H240 H 0.94747 0.20957 0.9161 0.0
C241 C 0.98351 0.19243 0.90108 0.0
H242 H 0.05077 0.20069 0.8432 0.0
H243 H 0.95307 0.33318 0.61551 0.0
H244 H 0.93274 0.24826 0.56722 0.0
H245 H 0.94297 0.17013 0.63536 0.0
H246 H 0.97301 0.17658 0.75262 0.0
C247 C 0.01506 0.2179 0.85929 0.0
C248 C 0.99983 0.26535 0.82362 0.0
C249 C 0.98151 0.26096 0.75548 0.0
C250 C 0.97553 0.30595 0.71628 0.0
C251 C 0.95797 0.30034 0.64792 0.0
C252 C 0.94625 0.25177 0.61944 0.0
C253 C 0.95204 0.2078 0.65779 0.0
C254 C 0.96947 0.21206 0.72499 0.0
H255 H 0.06494 0.41092 0.6916 0.0
C256 C 0.02679 0.4235 0.67573 0.0
H257 H 0.94614 0.41246 0.68493 0.0
H258 H 0.03197 0.28706 0.95394 0.0
H259 H 0.04953 0.37239 1.00381 0.0
H260 H 0.03862 0.45067 0.93602 0.0
H261 H 1.01028 0.44419 0.81782 0.0
C262 C 0.98449 0.40153 0.70224 0.0
C263 C 0.98822 0.35524 0.74523 0.0
C264 C 1.00423 0.35983 0.81425 0.0
C265 C 1.0101 0.31472 0.85354 0.0
C266 C 0.02687 0.32017 0.92204 0.0
C267 C 0.03697 0.36886 0.95122 0.0
C268 C 0.03084 0.41295 0.91302 0.0
C269 C 0.01468 0.40873 0.84527 0.0
H270 H 0.877 0.01273 0.79647 0.0
C271 C 0.87819 1.00083 0.84903 0.0
H272 H 0.83581 0.96525 0.92621 0.0
H273 H 0.62609 0.02834 0.77481 0.0
H274 H 0.61949 0.07151 0.8842 0.0
H275 H 0.69074 0.06875 0.96906 0.0
H276 H 0.76853 0.02141 0.94598 0.0
C277 C 0.83667 0.97625 0.87346 0.0
C278 C 0.78959 0.96873 0.8288 0.0
C279 C 0.74415 0.99582 0.84359 0.0
C280 C 0.70367 0.99865 0.7938 0.0
C281 C 0.65858 0.02594 0.81006 0.0
C282 C 0.65416 0.05072 0.87278 0.0
C283 C 0.69424 0.04901 0.92067 0.0
C284 C 0.73875 0.02185 0.90664 0.0
H285 H 0.64552 0.90979 0.65428 0.0
C286 C 0.64036 0.95022 0.64261 0.0
H287 H 0.66431 0.02719 0.66337 0.0
H288 H 0.865 0.90264 0.79187 0.0
H289 H 0.87302 0.85984 0.68223 0.0
H290 H 0.80764 0.87196 0.59116 0.0
H291 H 0.73349 0.92534 0.60967 0.0
C292 C 0.67045 0.98672 0.67403 0.0
C293 C 0.70906 0.97521 0.72882 0.0
C294 C 0.75324 0.94526 0.71564 0.0
C295 C 0.79257 0.94065 0.76668 0.0
C296 C 0.83516 0.90879 0.75376 0.0
C297 C 0.84008 0.88391 0.69126 0.0
C298 C 0.80316 0.89058 0.64013 0.0
C299 C 0.76038 0.92106 0.65172 0.0
loop_
_geom_bond_atom_site_label_1
_geom_bond_atom_site_label_2
_geom_bond_distance
_geom_bond_site_symmetry_2
_ccdc_geom_bond_type
Fe0 O1 1.894 . S
Fe0 O4 1.707 1_645 S
Fe0 O9 2.077 1_655 S
Fe0 O14 1.920 1_655 S
Fe0 O20 2.092 1_545 S
Fe0 O29 1.938 1_545 S
O1 Fe0 1.894 . S
O1 Fe3 1.715 1_554 S
Fe2 O4 1.886 . S
Fe2 O5 1.715 1_554 S
Fe2 O12 1.935 1_554 S
Fe2 O13 2.077 . S
Fe2 O19 1.935 1_554 S
Fe2 O28 2.077 . S
Fe3 O1 1.715 1_556 S
Fe3 O6 1.886 . S
Fe3 O10 1.935 1_556 S
Fe3 O15 2.077 . S
Fe3 O21 1.935 1_556 S
Fe3 O25 2.077 . S
O4 Fe0 1.707 1_465 S
O4 Fe2 1.886 . S
O5 Fe2 1.715 1_556 S
O5 Fe7 1.894 . S
O6 Fe3 1.886 . S
O6 Fe7 1.707 1_645 S
Fe7 O5 1.894 . S
Fe7 O6 1.707 1_465 S
Fe7 O11 2.077 1_565 S
Fe7 O16 1.920 1_565 S
Fe7 O18 2.092 1_455 S
Fe7 O26 1.938 1_455 S
C8 O20 1.381 1_545 S
C8 O21 1.421 . S
O9 Fe0 2.077 1_455 S
O9 C22 1.381 1_455 S
O10 Fe3 1.935 1_554 S
O10 C22 1.421 . S
O11 Fe7 2.077 1_545 S
O11 C27 1.381 1_545 S
O12 Fe2 1.935 1_556 S
O12 C27 1.421 . S
O13 Fe2 2.077 . S
O13 C17 1.381 . S
O14 Fe0 1.920 1_455 S
O14 C17 1.421 1_545 S
O15 Fe3 2.077 . S
O15 C23 1.381 . S
O16 Fe7 1.920 1_545 S
O16 C23 1.421 1_455 S
C17 O13 1.381 . S
C17 O14 1.421 1_565 S
O18 Fe7 2.092 1_655 S
O18 C30 1.381 1_655 S
O19 Fe2 1.935 1_556 S
O19 C30 1.421 . S
O20 Fe0 2.092 1_565 S
O20 C8 1.381 1_565 S
O21 Fe3 1.935 1_554 S
O21 C8 1.421 . S
C22 O9 1.381 1_655 S
C22 O10 1.421 . S
C23 O15 1.381 . S
C23 O16 1.421 1_655 S
C24 O25 1.381 . S
C24 O26 1.421 1_545 S
O25 Fe3 2.077 . S
O25 C24 1.381 . S
O26 Fe7 1.938 1_655 S
O26 C24 1.421 1_565 S
C27 O11 1.381 1_565 S
C27 O12 1.421 . S
O28 Fe2 2.077 . S
O28 C31 1.381 . S
O29 Fe0 1.938 1_565 S
O29 C31 1.421 1_655 S
C30 O18 1.381 1_455 S
C30 O19 1.421 . S
C31 O28 1.381 . S
C31 O29 1.421 1_455 S
C32 O34 1.252 . S
C32 O36 1.253 1_455 S
C33 O40 1.245 . S
C33 O41 1.260 1_655 S
O34 C32 1.252 . S
O34 Zn35 2.028 . S
Zn35 O34 2.028 . S
Zn35 O39 2.035 . S
Zn35 O41 2.035 . S
Zn35 O42 2.028 . S
O36 C32 1.253 1_655 S
O36 Zn37 2.035 . S
Zn37 O36 2.035 . S
Zn37 O38 2.028 . S
Zn37 O40 2.028 . S
Zn37 O43 2.035 . S
O38 Zn37 2.028 . S
O38 C44 1.245 . S
O39 Zn35 2.035 . S
O39 C44 1.260 1_455 S
O40 C33 1.245 . S
O40 Zn37 2.028 . S
O41 C33 1.260 1_455 S
O41 Zn35 2.035 . S
O42 Zn35 2.028 . S
O42 C45 1.252 . S
O43 Zn37 2.035 . S
O43 C45 1.253 1_655 S
C44 O38 1.245 . S
C44 O39 1.260 1_655 S
C45 O42 1.252 . S
C45 O43 1.253 1_455 S
C46 O48 1.245 . S
C46 O50 1.260 1_565 S
C47 O54 1.252 . S
C47 O55 1.253 1_545 S
O48 C46 1.245 . S
O48 Zn49 2.028 . S
Zn49 O48 2.028 . S
Zn49 O53 2.035 . S
Zn49 O55 2.035 . S
Zn49 O56 2.028 . S
O50 C46 1.260 1_545 S
O50 Zn51 2.035 . S
Zn51 O50 2.035 . S
Zn51 O52 2.028 . S
Zn51 O54 2.028 . S
Zn51 O57 2.035 . S
O52 Zn51 2.028 . S
O52 C58 1.252 . S
O53 Zn49 2.035 . S
O53 C58 1.253 1_565 S
O54 C47 1.252 . S
O54 Zn51 2.028 . S
O55 C47 1.253 1_565 S
O55 Zn49 2.035 . S
O56 Zn49 2.028 . S
O56 C59 1.245 . S
O57 Zn51 2.035 . S
O57 C59 1.260 1_545 S
C58 O52 1.252 . S
C58 O53 1.253 1_545 S
C59 O56 1.245 . S
C59 O57 1.260 1_565 S
H60 C61 0.951 . S
C61 H60 0.951 . S
C61 C67 1.265 1_455 S
H62 C67 0.950 . S
H63 C71 0.949 . S
H64 C72 0.950 . S
H65 C73 0.951 . S
H66 C74 0.951 . S
C67 C61 1.265 1_655 S
C67 H62 0.950 . S
C67 C68 1.478 . S
C68 C67 1.478 . S
C68 C69 1.397 . S
C68 C85 1.394 1_655 S
C69 C68 1.397 . S
C69 C70 1.438 . S
C69 C74 1.429 . S
C70 C69 1.438 . S
C70 C71 1.428 . S
C70 C83 1.394 1_655 S
C71 H63 0.949 . S
C71 C70 1.428 . S
C71 C72 1.345 . S
C72 H64 0.950 . S
C72 C71 1.345 . S
C72 C73 1.424 . S
C73 H65 0.951 . S
C73 C72 1.424 . S
C73 C74 1.347 . S
C74 H66 0.951 . S
C74 C69 1.429 . S
C74 C73 1.347 . S
H75 C76 0.951 . S
C76 H75 0.951 . S
C76 C82 1.265 1_655 S
H77 C82 0.950 . S
H78 C86 0.949 . S
H79 C87 0.950 . S
H80 C88 0.951 . S
H81 C89 0.951 . S
C82 C76 1.265 1_455 S
C82 H77 0.950 . S
C82 C83 1.478 . S
C83 C70 1.394 1_455 S
C83 C82 1.478 . S
C83 C84 1.397 . S
C84 C83 1.397 . S
C84 C85 1.438 . S
C84 C89 1.429 . S
C85 C68 1.394 1_455 S
C85 C84 1.438 . S
C85 C86 1.428 . S
C86 H78 0.949 . S
C86 C85 1.428 . S
C86 C87 1.345 . S
C87 H79 0.950 . S
C87 C86 1.345 . S
C87 C88 1.424 . S
C88 H80 0.951 . S
C88 C87 1.424 . S
C88 C89 1.347 . S
C89 H81 0.951 . S
C89 C84 1.429 . S
C89 C88 1.347 . S
H90 C91 0.951 . S
C91 H90 0.951 . S
C91 C97 1.265 1_545 S
H92 C97 0.950 . S
H93 C101 0.949 . S
H94 C102 0.950 . S
H95 C103 0.951 . S
H96 C104 0.951 . S
C97 C91 1.265 1_565 S
C97 H92 0.950 . S
C97 C98 1.479 . S
C98 C97 1.479 . S
C98 C99 1.412 . S
C98 C115 1.378 1_565 S
C99 C98 1.412 . S
C99 C100 1.438 . S
C99 C104 1.429 . S
C100 C99 1.438 . S
C100 C101 1.428 . S
C100 C113 1.394 1_565 S
C101 H93 0.949 . S
C101 C100 1.428 . S
C101 C102 1.345 . S
C102 H94 0.950 . S
C102 C101 1.345 . S
C102 C103 1.424 . S
C103 H95 0.951 . S
C103 C102 1.424 . S
C103 C104 1.347 . S
C104 H96 0.951 . S
C104 C99 1.429 . S
C104 C103 1.347 . S
H105 C106 0.951 1_565 S
C106 H105 0.951 1_545 S
C106 C112 1.265 . S
H107 C112 0.950 . S
H108 C116 0.949 . S
H109 C117 0.950 . S
H110 C118 0.951 . S
H111 C119 0.951 . S
C112 C106 1.265 . S
C112 H107 0.950 . S
C112 C113 1.478 . S
C113 C100 1.394 1_545 S
C113 C112 1.478 . S
C113 C114 1.397 . S
C114 C113 1.397 . S
C114 C115 1.438 . S
C114 C119 1.429 . S
C115 C98 1.378 1_545 S
C115 C114 1.438 . S
C115 C116 1.428 . S
C116 H108 0.949 . S
C116 C115 1.428 . S
C116 C117 1.345 . S
C117 H109 0.950 . S
C117 C116 1.345 . S
C117 C118 1.424 . S
C118 H110 0.951 . S
C118 C117 1.424 . S
C118 C119 1.347 . S
C119 H111 0.951 . S
C119 C114 1.429 . S
C119 C118 1.347 . S
H120 C121 0.951 . S
C121 H120 0.951 . S
C121 C127 1.265 1_455 S
H122 C127 0.950 . S
H123 C131 0.949 . S
H124 C132 0.950 . S
H125 C133 0.951 . S
H126 C134 0.951 . S
C127 C121 1.265 1_655 S
C127 H122 0.950 . S
C127 C128 1.478 . S
C128 C127 1.478 . S
C128 C129 1.397 . S
C128 C145 1.394 1_655 S
C129 C128 1.397 . S
C129 C130 1.438 . S
C129 C134 1.429 . S
C130 C129 1.438 . S
C130 C131 1.428 . S
C130 C143 1.394 1_655 S
C131 H123 0.949 . S
C131 C130 1.428 . S
C131 C132 1.345 . S
C132 H124 0.950 . S
C132 C131 1.345 . S
C132 C133 1.424 . S
C133 H125 0.951 . S
C133 C132 1.424 . S
C133 C134 1.347 . S
C134 H126 0.951 . S
C134 C129 1.429 . S
C134 C133 1.347 . S
H135 C136 0.951 . S
C136 H135 0.951 . S
C136 C142 1.265 1_655 S
H137 C142 0.950 . S
H138 C146 0.949 . S
H139 C147 0.950 . S
H140 C148 0.951 . S
H141 C149 0.951 . S
C142 C136 1.265 1_455 S
C142 H137 0.950 . S
C142 C143 1.478 . S
C143 C130 1.394 1_455 S
C143 C142 1.478 . S
C143 C144 1.397 . S
C144 C143 1.397 . S
C144 C145 1.438 . S
C144 C149 1.429 . S
C145 C128 1.394 1_455 S
C145 C144 1.438 . S
C145 C146 1.428 . S
C146 H138 0.949 . S
C146 C145 1.428 . S
C146 C147 1.345 . S
C147 H139 0.950 . S
C147 C146 1.345 . S
C147 C148 1.424 . S
C148 H140 0.951 . S
C148 C147 1.424 . S
C148 C149 1.347 . S
C149 H141 0.951 . S
C149 C144 1.429 . S
C149 C148 1.347 . S
H150 C151 0.951 1_545 S
C151 H150 0.951 1_565 S
C151 C157 1.265 . S
H152 C157 0.950 . S
H153 C161 0.949 . S
H154 C162 0.950 . S
H155 C163 0.951 . S
H156 C164 0.951 . S
C157 C151 1.265 . S
C157 H152 0.950 . S
C157 C158 1.478 . S
C158 C157 1.478 . S
C158 C159 1.398 . S
C158 C175 1.393 1_565 S
C159 C158 1.398 . S
C159 C160 1.438 . S
C159 C164 1.429 . S
C160 C159 1.438 . S
C160 C161 1.428 . S
C160 C173 1.385 1_565 S
C161 H153 0.949 . S
C161 C160 1.428 . S
C161 C162 1.345 . S
C162 H154 0.950 . S
C162 C161 1.345 . S
C162 C163 1.424 . S
C163 H155 0.951 . S
C163 C162 1.424 . S
C163 C164 1.347 . S
C164 H156 0.951 . S
C164 C159 1.429 . S
C164 C163 1.347 . S
H165 C166 0.951 . S
C166 H165 0.951 . S
C166 C172 1.265 . S
H167 C172 0.950 . S
H168 C176 0.949 . S
H169 C177 0.950 . S
H170 C178 0.951 . S
H171 C179 0.951 . S
C172 C166 1.265 . S
C172 H167 0.950 . S
C172 C173 1.478 . S
C173 C160 1.385 1_545 S
C173 C172 1.478 . S
C173 C174 1.406 . S
C174 C173 1.406 . S
C174 C175 1.438 . S
C174 C179 1.429 . S
C175 C158 1.393 1_545 S
C175 C174 1.438 . S
C175 C176 1.428 . S
C176 H168 0.949 . S
C176 C175 1.428 . S
C176 C177 1.345 . S
C177 H169 0.950 . S
C177 C176 1.345 . S
C177 C178 1.424 . S
C178 H170 0.951 . S
C178 C177 1.424 . S
C178 C179 1.347 . S
C179 H171 0.951 . S
C179 C174 1.429 . S
C179 C178 1.347 . S
H180 C181 0.951 . S
C181 H180 0.951 . S
C181 C187 1.265 1_455 S
H182 C187 0.950 . S
H183 C191 0.949 . S
H184 C192 0.950 . S
H185 C193 0.951 . S
H186 C194 0.951 . S
C187 C181 1.265 1_655 S
C187 H182 0.950 . S
C187 C188 1.478 . S
C188 C187 1.478 . S
C188 C189 1.397 . S
C188 C205 1.394 1_655 S
C189 C188 1.397 . S
C189 C190 1.438 . S
C189 C194 1.429 . S
C190 C189 1.438 . S
C190 C191 1.428 . S
C190 C203 1.394 1_655 S
C191 H183 0.949 . S
C191 C190 1.428 . S
C191 C192 1.345 . S
C192 H184 0.950 . S
C192 C191 1.345 . S
C192 C193 1.424 . S
C193 H185 0.951 . S
C193 C192 1.424 . S
C193 C194 1.347 . S
C194 H186 0.951 . S
C194 C189 1.429 . S
C194 C193 1.347 . S
H195 C196 0.951 . S
C196 H195 0.951 . S
C196 C202 1.265 1_655 S
H197 C202 0.950 . S
H198 C206 0.949 . S
H199 C207 0.950 . S
H200 C208 0.951 . S
H201 C209 0.951 . S
C202 C196 1.265 1_455 S
C202 H197 0.950 . S
C202 C203 1.478 . S
C203 C190 1.394 1_455 S
C203 C202 1.478 . S
C203 C204 1.397 . S
C204 C203 1.397 . S
C204 C205 1.438 . S
C204 C209 1.429 . S
C205 C188 1.394 1_455 S
C205 C204 1.438 . S
C205 C206 1.428 . S
C206 H198 0.949 . S
C206 C205 1.428 . S
C206 C207 1.345 . S
C207 H199 0.950 . S
C207 C206 1.345 . S
C207 C208 1.424 . S
C208 H200 0.951 . S
C208 C207 1.424 . S
C208 C209 1.347 . S
C209 H201 0.951 . S
C209 C204 1.429 . S
C209 C208 1.347 . S
H210 C211 0.951 1_565 S
C211 H210 0.951 1_545 S
C211 C217 1.265 . S
H212 C217 0.950 . S
H213 C221 0.949 . S
H214 C222 0.950 . S
H215 C223 0.951 . S
H216 C224 0.951 . S
C217 C211 1.265 . S
C217 H212 0.950 . S
C217 C218 1.478 . S
C218 C217 1.478 . S
C218 C219 1.397 . S
C218 C235 1.394 1_545 S
C219 C218 1.397 . S
C219 C220 1.438 . S
C219 C224 1.429 . S
C220 C219 1.438 . S
C220 C221 1.428 . S
C220 C233 1.376 1_545 S
C221 H213 0.949 . S
C221 C220 1.428 . S
C221 C222 1.345 . S
C222 H214 0.950 . S
C222 C221 1.345 . S
C222 C223 1.424 . S
C223 H215 0.951 . S
C223 C222 1.424 . S
C223 C224 1.347 . S
C224 H216 0.951 . S
C224 C219 1.429 . S
C224 C223 1.347 . S
H225 C226 0.951 . S
C226 H225 0.951 . S
C226 C232 1.265 1_545 S
H227 C232 0.950 . S
H228 C236 0.949 . S
H229 C237 0.950 . S
H230 C238 0.951 . S
H231 C239 0.951 . S
C232 C226 1.265 1_565 S
C232 H227 0.950 . S
C232 C233 1.480 . S
C233 C220 1.376 1_565 S
C233 C232 1.480 . S
C233 C234 1.414 . S
C234 C233 1.414 . S
C234 C235 1.438 . S
C234 C239 1.429 . S
C235 C218 1.394 1_565 S
C235 C234 1.438 . S
C235 C236 1.428 . S
C236 H228 0.949 . S
C236 C235 1.428 . S
C236 C237 1.345 . S
C237 H229 0.950 . S
C237 C236 1.345 . S
C237 C238 1.424 . S
C238 H230 0.951 . S
C238 C237 1.424 . S
C238 C239 1.347 . S
C239 H231 0.951 . S
C239 C234 1.429 . S
C239 C238 1.347 . S
H240 C241 0.951 . S
C241 H240 0.951 . S
C241 C247 1.265 1_655 S
H242 C247 0.950 . S
H243 C251 0.949 . S
H244 C252 0.950 . S
H245 C253 0.951 . S
H246 C254 0.951 . S
C247 C241 1.265 1_455 S
C247 H242 0.950 . S
C247 C248 1.478 . S
C248 C247 1.478 . S
C248 C249 1.397 1_455 S
C248 C265 1.394 . S
C249 C248 1.397 1_655 S
C249 C250 1.438 . S
C249 C254 1.429 . S
C250 C249 1.438 . S
C250 C251 1.428 . S
C250 C263 1.394 . S
C251 H243 0.949 . S
C251 C250 1.428 . S
C251 C252 1.345 . S
C252 H244 0.950 . S
C252 C251 1.345 . S
C252 C253 1.424 . S
C253 H245 0.951 . S
C253 C252 1.424 . S
C253 C254 1.347 . S
C254 H246 0.951 . S
C254 C249 1.429 . S
C254 C253 1.347 . S
H255 C256 0.951 . S
C256 H255 0.951 . S
C256 C262 1.265 1_455 S
H257 C262 0.950 . S
H258 C266 0.949 . S
H259 C267 0.950 . S
H260 C268 0.951 . S
H261 C269 0.951 . S
C262 C256 1.265 1_655 S
C262 H257 0.950 . S
C262 C263 1.478 . S
C263 C250 1.394 . S
C263 C262 1.478 . S
C263 C264 1.397 1_655 S
C264 C263 1.397 1_455 S
C264 C265 1.438 . S
C264 C269 1.429 . S
C265 C248 1.394 . S
C265 C264 1.438 . S
C265 C266 1.428 . S
C266 H258 0.949 . S
C266 C265 1.428 . S
C266 C267 1.345 . S
C267 H259 0.950 . S
C267 C266 1.345 . S
C267 C268 1.424 . S
C268 H260 0.951 . S
C268 C267 1.424 . S
C268 C269 1.347 . S
C269 H261 0.951 . S
C269 C264 1.429 . S
C269 C268 1.347 . S
H270 C271 0.951 . S
C271 H270 0.951 . S
C271 C277 1.265 . S
H272 C277 0.950 1_565 S
H273 C281 0.949 . S
H274 C282 0.950 . S
H275 C283 0.951 . S
H276 C284 0.951 . S
C277 C271 1.265 . S
C277 H272 0.950 1_545 S
C277 C278 1.478 1_545 S
C278 C277 1.478 1_565 S
C278 C279 1.396 1_565 S
C278 C295 1.394 . S
C279 C278 1.396 1_545 S
C279 C280 1.438 . S
C279 C284 1.429 . S
C280 C279 1.438 . S
C280 C281 1.428 . S
C280 C293 1.398 . S
C281 H273 0.949 . S
C281 C280 1.428 . S
C281 C282 1.345 . S
C282 H274 0.950 . S
C282 C281 1.345 . S
C282 C283 1.424 . S
C283 H275 0.951 . S
C283 C282 1.424 . S
C283 C284 1.347 . S
C284 H276 0.951 . S
C284 C279 1.429 . S
C284 C283 1.347 . S
H285 C286 0.951 . S
C286 H285 0.951 . S
C286 C292 1.265 1_565 S
H287 C292 0.950 . S
H288 C296 0.949 . S
H289 C297 0.950 . S
H290 C298 0.951 . S
H291 C299 0.951 . S
C292 C286 1.265 1_545 S
C292 H287 0.950 . S
C292 C293 1.478 . S
C293 C280 1.398 . S
C293 C292 1.478 . S
C293 C294 1.392 1_545 S
C294 C293 1.392 1_565 S
C294 C295 1.438 . S
C294 C299 1.429 . S
C295 C278 1.394 . S
C295 C294 1.438 . S
C295 C296 1.428 . S
C296 H288 0.949 . S
C296 C295 1.428 . S
C296 C297 1.345 . S
C297 H289 0.950 . S
C297 C296 1.345 . S
C297 C298 1.424 . S
C298 H290 0.951 . S
C298 C297 1.424 . S
C298 C299 1.347 . S
C299 H291 0.951 . S
C299 C294 1.429 . S
C299 C298 1.347 . S
C61 C22 1.443 1_455 S
C76 C33 1.445 . S
C91 C8 1.379 . S
C106 C59 1.443 1_545 S
C121 C31 1.364 . S
C136 C45 1.446 1_655 S
C151 C17 1.426 . S
C166 C47 1.448 . S
C181 C30 1.354 . S
C196 C32 1.448 1_655 S
C211 C27 1.414 1_545 S
C226 C58 1.450 . S
C256 C44 1.450 1_455 S
C241 C23 1.405 . S
C271 C24 1.360 . S
C286 C46 1.445 . S
