# Generated by pormake.
# Topology gar, (4,6)-cn, num edge types: 1
# Building blocks:
#     Node 0, Type 0, BuildingBlock: UXUYUI_clean_sbu_0, # of connection points: 4
#     Node 1, Type 0, BuildingBlock: UXUYUI_clean_sbu_0, # of connection points: 4
#     Node 2, Type 0, BuildingBlock: UXUYUI_clean_sbu_0, # of connection points: 4
#     Node 3, Type 0, BuildingBlock: UXUYUI_clean_sbu_0, # of connection points: 4
#     Node 4, Type 0, BuildingBlock: UXUYUI_clean_sbu_0, # of connection points: 4
#     Node 5, Type 0, BuildingBlock: UXUYUI_clean_sbu_0, # of connection points: 4
#     Node 6, Type 0, BuildingBlock: UXUYUI_clean_sbu_0, # of connection points: 4
#     Node 7, Type 0, BuildingBlock: UXUYUI_clean_sbu_0, # of connection points: 4
#     Node 8, Type 0, BuildingBlock: UXUYUI_clean_sbu_0, # of connection points: 4
#     Node 9, Type 0, BuildingBlock: UXUYUI_clean_sbu_0, # of connection points: 4
#     Node 10, Type 0, BuildingBlock: UXUYUI_clean_sbu_0, # of connection points: 4
#     Node 11, Type 0, BuildingBlock: UXUYUI_clean_sbu_0, # of connection points: 4
#     Node 12, Type 0, BuildingBlock: UXUYUI_clean_sbu_0, # of connection points: 4
#     Node 13, Type 0, BuildingBlock: UXUYUI_clean_sbu_0, # of connection points: 4
#     Node 14, Type 0, BuildingBlock: UXUYUI_clean_sbu_0, # of connection points: 4
#     Node 15, Type 0, BuildingBlock: UXUYUI_clean_sbu_0, # of connection points: 4
#     Node 16, Type 0, BuildingBlock: UXUYUI_clean_sbu_0, # of connection points: 4
#     Node 17, Type 0, BuildingBlock: UXUYUI_clean_sbu_0, # of connection points: 4
#     Node 18, Type 0, BuildingBlock: UXUYUI_clean_sbu_0, # of connection points: 4
#     Node 19, Type 0, BuildingBlock: UXUYUI_clean_sbu_0, # of connection points: 4
#     Node 20, Type 0, BuildingBlock: UXUYUI_clean_sbu_0, # of connection points: 4
#     Node 21, Type 0, BuildingBlock: UXUYUI_clean_sbu_0, # of connection points: 4
#     Node 22, Type 0, BuildingBlock: UXUYUI_clean_sbu_0, # of connection points: 4
#     Node 23, Type 0, BuildingBlock: UXUYUI_clean_sbu_0, # of connection points: 4
#     Node 24, Type 1, BuildingBlock: KUMBUR_clean_sbu_1, # of connection points: 6
#     Node 25, Type 1, BuildingBlock: KUMBUR_clean_sbu_1, # of connection points: 6
#     Node 26, Type 1, BuildingBlock: KUMBUR_clean_sbu_1, # of connection points: 6
#     Node 27, Type 1, BuildingBlock: KUMBUR_clean_sbu_1, # of connection points: 6
#     Node 28, Type 1, BuildingBlock: KUMBUR_clean_sbu_1, # of connection points: 6
#     Node 29, Type 1, BuildingBlock: KUMBUR_clean_sbu_1, # of connection points: 6
#     Node 30, Type 1, BuildingBlock: KUMBUR_clean_sbu_1, # of connection points: 6
#     Node 31, Type 1, BuildingBlock: KUMBUR_clean_sbu_1, # of connection points: 6
#     Node 32, Type 1, BuildingBlock: KUMBUR_clean_sbu_1, # of connection points: 6
#     Node 33, Type 1, BuildingBlock: KUMBUR_clean_sbu_1, # of connection points: 6
#     Node 34, Type 1, BuildingBlock: KUMBUR_clean_sbu_1, # of connection points: 6
#     Node 35, Type 1, BuildingBlock: KUMBUR_clean_sbu_1, # of connection points: 6
#     Node 36, Type 1, BuildingBlock: KUMBUR_clean_sbu_1, # of connection points: 6
#     Node 37, Type 1, BuildingBlock: KUMBUR_clean_sbu_1, # of connection points: 6
#     Node 38, Type 1, BuildingBlock: KUMBUR_clean_sbu_1, # of connection points: 6
#     Node 39, Type 1, BuildingBlock: KUMBUR_clean_sbu_1, # of connection points: 6
#     Edge 40, Type (0, 1), BuildingBlock: ZUJKAS_clean_linker_0, # of connection points: 2
#     Edge 41, Type (0, 1), BuildingBlock: ZUJKAS_clean_linker_0, # of connection points: 2
#     Edge 42, Type (0, 1), BuildingBlock: ZUJKAS_clean_linker_0, # of connection points: 2
#     Edge 43, Type (0, 1), BuildingBlock: ZUJKAS_clean_linker_0, # of connection points: 2
#     Edge 44, Type (0, 1), BuildingBlock: ZUJKAS_clean_linker_0, # of connection points: 2
#     Edge 45, Type (0, 1), BuildingBlock: ZUJKAS_clean_linker_0, # of connection points: 2
#     Edge 46, Type (0, 1), BuildingBlock: ZUJKAS_clean_linker_0, # of connection points: 2
#     Edge 47, Type (0, 1), BuildingBlock: ZUJKAS_clean_linker_0, # of connection points: 2
#     Edge 48, Type (0, 1), BuildingBlock: ZUJKAS_clean_linker_0, # of connection points: 2
#     Edge 49, Type (0, 1), BuildingBlock: ZUJKAS_clean_linker_0, # of connection points: 2
#     Edge 50, Type (0, 1), BuildingBlock: ZUJKAS_clean_linker_0, # of connection points: 2
#     Edge 51, Type (0, 1), BuildingBlock: ZUJKAS_clean_linker_0, # of connection points: 2
#     Edge 52, Type (0, 1), BuildingBlock: ZUJKAS_clean_linker_0, # of connection points: 2
#     Edge 53, Type (0, 1), BuildingBlock: ZUJKAS_clean_linker_0, # of connection points: 2
#     Edge 54, Type (0, 1), BuildingBlock: ZUJKAS_clean_linker_0, # of connection points: 2
#     Edge 55, Type (0, 1), BuildingBlock: ZUJKAS_clean_linker_0, # of connection points: 2
#     Edge 56, Type (0, 1), BuildingBlock: ZUJKAS_clean_linker_0, # of connection points: 2
#     Edge 57, Type (0, 1), BuildingBlock: ZUJKAS_clean_linker_0, # of connection points: 2
#     Edge 58, Type (0, 1), BuildingBlock: ZUJKAS_clean_linker_0, # of connection points: 2
#     Edge 59, Type (0, 1), BuildingBlock: ZUJKAS_clean_linker_0, # of connection points: 2
#     Edge 60, Type (0, 1), BuildingBlock: ZUJKAS_clean_linker_0, # of connection points: 2
#     Edge 61, Type (0, 1), BuildingBlock: ZUJKAS_clean_linker_0, # of connection points: 2
#     Edge 62, Type (0, 1), BuildingBlock: ZUJKAS_clean_linker_0, # of connection points: 2
#     Edge 63, Type (0, 1), BuildingBlock: ZUJKAS_clean_linker_0, # of connection points: 2
#     Edge 64, Type (0, 1), BuildingBlock: ZUJKAS_clean_linker_0, # of connection points: 2
#     Edge 65, Type (0, 1), BuildingBlock: ZUJKAS_clean_linker_0, # of connection points: 2
#     Edge 66, Type (0, 1), BuildingBlock: ZUJKAS_clean_linker_0, # of connection points: 2
#     Edge 67, Type (0, 1), BuildingBlock: ZUJKAS_clean_linker_0, # of connection points: 2
#     Edge 68, Type (0, 1), BuildingBlock: ZUJKAS_clean_linker_0, # of connection points: 2
#     Edge 69, Type (0, 1), BuildingBlock: ZUJKAS_clean_linker_0, # of connection points: 2
#     Edge 70, Type (0, 1), BuildingBlock: ZUJKAS_clean_linker_0, # of connection points: 2
#     Edge 71, Type (0, 1), BuildingBlock: ZUJKAS_clean_linker_0, # of connection points: 2
#     Edge 72, Type (0, 1), BuildingBlock: ZUJKAS_clean_linker_0, # of connection points: 2
#     Edge 73, Type (0, 1), BuildingBlock: ZUJKAS_clean_linker_0, # of connection points: 2
#     Edge 74, Type (0, 1), BuildingBlock: ZUJKAS_clean_linker_0, # of connection points: 2
#     Edge 75, Type (0, 1), BuildingBlock: ZUJKAS_clean_linker_0, # of connection points: 2
#     Edge 76, Type (0, 1), BuildingBlock: ZUJKAS_clean_linker_0, # of connection points: 2
#     Edge 77, Type (0, 1), BuildingBlock: ZUJKAS_clean_linker_0, # of connection points: 2
#     Edge 78, Type (0, 1), BuildingBlock: ZUJKAS_clean_linker_0, # of connection points: 2
#     Edge 79, Type (0, 1), BuildingBlock: ZUJKAS_clean_linker_0, # of connection points: 2
#     Edge 80, Type (0, 1), BuildingBlock: ZUJKAS_clean_linker_0, # of connection points: 2
#     Edge 81, Type (0, 1), BuildingBlock: ZUJKAS_clean_linker_0, # of connection points: 2
#     Edge 82, Type (0, 1), BuildingBlock: ZUJKAS_clean_linker_0, # of connection points: 2
#     Edge 83, Type (0, 1), BuildingBlock: ZUJKAS_clean_linker_0, # of connection points: 2
#     Edge 84, Type (0, 1), BuildingBlock: ZUJKAS_clean_linker_0, # of connection points: 2
#     Edge 85, Type (0, 1), BuildingBlock: ZUJKAS_clean_linker_0, # of connection points: 2
#     Edge 86, Type (0, 1), BuildingBlock: ZUJKAS_clean_linker_0, # of connection points: 2
#     Edge 87, Type (0, 1), BuildingBlock: ZUJKAS_clean_linker_0, # of connection points: 2
#     Edge 88, Type (0, 1), BuildingBlock: ZUJKAS_clean_linker_0, # of connection points: 2
#     Edge 89, Type (0, 1), BuildingBlock: ZUJKAS_clean_linker_0, # of connection points: 2
#     Edge 90, Type (0, 1), BuildingBlock: ZUJKAS_clean_linker_0, # of connection points: 2
#     Edge 91, Type (0, 1), BuildingBlock: ZUJKAS_clean_linker_0, # of connection points: 2
#     Edge 92, Type (0, 1), BuildingBlock: ZUJKAS_clean_linker_0, # of connection points: 2
#     Edge 93, Type (0, 1), BuildingBlock: ZUJKAS_clean_linker_0, # of connection points: 2
#     Edge 94, Type (0, 1), BuildingBlock: ZUJKAS_clean_linker_0, # of connection points: 2
#     Edge 95, Type (0, 1), BuildingBlock: ZUJKAS_clean_linker_0, # of connection points: 2
#     Edge 96, Type (0, 1), BuildingBlock: ZUJKAS_clean_linker_0, # of connection points: 2
#     Edge 97, Type (0, 1), BuildingBlock: ZUJKAS_clean_linker_0, # of connection points: 2
#     Edge 98, Type (0, 1), BuildingBlock: ZUJKAS_clean_linker_0, # of connection points: 2
#     Edge 99, Type (0, 1), BuildingBlock: ZUJKAS_clean_linker_0, # of connection points: 2
#     Edge 100, Type (0, 1), BuildingBlock: ZUJKAS_clean_linker_0, # of connection points: 2
#     Edge 101, Type (0, 1), BuildingBlock: ZUJKAS_clean_linker_0, # of connection points: 2
#     Edge 102, Type (0, 1), BuildingBlock: ZUJKAS_clean_linker_0, # of connection points: 2
#     Edge 103, Type (0, 1), BuildingBlock: ZUJKAS_clean_linker_0, # of connection points: 2
#     Edge 104, Type (0, 1), BuildingBlock: ZUJKAS_clean_linker_0, # of connection points: 2
#     Edge 105, Type (0, 1), BuildingBlock: ZUJKAS_clean_linker_0, # of connection points: 2
#     Edge 106, Type (0, 1), BuildingBlock: ZUJKAS_clean_linker_0, # of connection points: 2
#     Edge 107, Type (0, 1), BuildingBlock: ZUJKAS_clean_linker_0, # of connection points: 2
#     Edge 108, Type (0, 1), BuildingBlock: ZUJKAS_clean_linker_0, # of connection points: 2
#     Edge 109, Type (0, 1), BuildingBlock: ZUJKAS_clean_linker_0, # of connection points: 2
#     Edge 110, Type (0, 1), BuildingBlock: ZUJKAS_clean_linker_0, # of connection points: 2
#     Edge 111, Type (0, 1), BuildingBlock: ZUJKAS_clean_linker_0, # of connection points: 2
#     Edge 112, Type (0, 1), BuildingBlock: ZUJKAS_clean_linker_0, # of connection points: 2
#     Edge 113, Type (0, 1), BuildingBlock: ZUJKAS_clean_linker_0, # of connection points: 2
#     Edge 114, Type (0, 1), BuildingBlock: ZUJKAS_clean_linker_0, # of connection points: 2
#     Edge 115, Type (0, 1), BuildingBlock: ZUJKAS_clean_linker_0, # of connection points: 2
#     Edge 116, Type (0, 1), BuildingBlock: ZUJKAS_clean_linker_0, # of connection points: 2
#     Edge 117, Type (0, 1), BuildingBlock: ZUJKAS_clean_linker_0, # of connection points: 2
#     Edge 118, Type (0, 1), BuildingBlock: ZUJKAS_clean_linker_0, # of connection points: 2
#     Edge 119, Type (0, 1), BuildingBlock: ZUJKAS_clean_linker_0, # of connection points: 2
#     Edge 120, Type (0, 1), BuildingBlock: ZUJKAS_clean_linker_0, # of connection points: 2
#     Edge 121, Type (0, 1), BuildingBlock: ZUJKAS_clean_linker_0, # of connection points: 2
#     Edge 122, Type (0, 1), BuildingBlock: ZUJKAS_clean_linker_0, # of connection points: 2
#     Edge 123, Type (0, 1), BuildingBlock: ZUJKAS_clean_linker_0, # of connection points: 2
#     Edge 124, Type (0, 1), BuildingBlock: ZUJKAS_clean_linker_0, # of connection points: 2
#     Edge 125, Type (0, 1), BuildingBlock: ZUJKAS_clean_linker_0, # of connection points: 2
#     Edge 126, Type (0, 1), BuildingBlock: ZUJKAS_clean_linker_0, # of connection points: 2
#     Edge 127, Type (0, 1), BuildingBlock: ZUJKAS_clean_linker_0, # of connection points: 2
#     Edge 128, Type (0, 1), BuildingBlock: ZUJKAS_clean_linker_0, # of connection points: 2
#     Edge 129, Type (0, 1), BuildingBlock: ZUJKAS_clean_linker_0, # of connection points: 2
#     Edge 130, Type (0, 1), BuildingBlock: ZUJKAS_clean_linker_0, # of connection points: 2
#     Edge 131, Type (0, 1), BuildingBlock: ZUJKAS_clean_linker_0, # of connection points: 2
#     Edge 132, Type (0, 1), BuildingBlock: ZUJKAS_clean_linker_0, # of connection points: 2
#     Edge 133, Type (0, 1), BuildingBlock: ZUJKAS_clean_linker_0, # of connection points: 2
#     Edge 134, Type (0, 1), BuildingBlock: ZUJKAS_clean_linker_0, # of connection points: 2
#     Edge 135, Type (0, 1), BuildingBlock: ZUJKAS_clean_linker_0, # of connection points: 2
# Relax obj value: 0.080
# Max RMSD: 0.193
# Mean RMSD: 0.153
data_MOF--net-gar--node1-UXUYUI_clean_sbu_0--node2-KUMBUR_clean_sbu_1--edge1-ZUJKAS_clean_linker_0
_symmetry_space_group_name_H-M    P1
_symmetry_Int_Tables_number       1
_symmetry_cell_setting            triclinic
loop_
_symmetry_equiv_pos_as_xyz
'x, y, z'
_cell_length_a     89.025706
_cell_length_b     88.976032
_cell_length_c     84.397993
_cell_angle_alpha  95.335111
_cell_angle_beta   95.338399
_cell_angle_gamma 100.08378
loop_
_atom_site_label
_atom_site_type_symbol
_atom_site_fract_x
_atom_site_fract_y
_atom_site_fract_z
_atom_type_partial_charge
Li0 Li 0.01883 0.29104 0.347 0.0
Li1 Li 0.03607 0.30835 0.37044 0.0
Li2 Li 0.04851 0.29248 0.34817 0.0
Li3 Li 0.03365 0.27873 0.36883 0.0
C4 C 0.03333 0.31863 0.33483 0.0
N5 N 0.02837 0.3373 0.31126 0.0
C6 C 0.02854 0.33252 0.33866 0.0
C7 C 0.03572 0.31425 0.31907 0.0
C8 C 0.02605 0.34179 0.32655 0.0
C9 C 0.03311 0.32385 0.3073 0.0
C10 C 0.00737 0.29074 0.38163 0.0
C11 C 1.00151 0.28743 0.40855 0.0
N12 N 0.98672 0.28864 0.40416 0.0
C13 C 0.99211 0.29192 0.37736 0.0
C14 C 0.01214 0.28847 0.39734 0.0
C15 C 0.98184 0.29085 0.38893 0.0
C16 C 0.98934 0.27508 0.32981 0.0
N17 N 0.99823 0.2892 0.3345 0.0
C18 C 0.97704 0.30114 0.32564 0.0
C19 C 0.99231 0.3021 0.3324 0.0
C20 C 0.96741 0.28673 0.321 0.0
C21 C 0.97398 0.2736 0.32303 0.0
H22 H 0.99402 0.26489 0.33175 0.0
H23 H 0.99923 0.31324 0.33656 0.0
C24 C 0.04853 0.34062 0.3833 0.0
N25 N 0.03754 0.32813 0.38454 0.0
C26 C 0.04906 0.35473 0.39273 0.0
C27 C 0.02713 0.34301 0.40475 0.0
C28 C 0.02693 0.32925 0.39503 0.0
C29 C 0.03827 0.35613 0.40375 0.0
H30 H 0.05684 0.33973 0.37485 0.0
H31 H 0.01804 0.31954 0.39581 0.0
C32 C 0.03052 0.26279 0.33277 0.0
N33 N 0.02922 0.23988 0.30799 0.0
C34 C 0.0335 0.24841 0.33599 0.0
C35 C 0.0268 0.26552 0.31698 0.0
C36 C 0.03281 0.23697 0.32329 0.0
C37 C 0.02622 0.25378 0.3046 0.0
C38 C 0.06355 0.29444 0.38434 0.0
C39 C 0.07694 0.28926 0.38083 0.0
C40 C 0.06161 0.29899 0.40019 0.0
C41 C 0.08817 0.28862 0.39332 0.0
C42 C 0.07312 0.29818 0.41235 0.0
N43 N 0.08605 0.29305 0.40869 0.0
C44 C 0.0777 0.30484 0.33578 0.0
C45 C 0.07075 0.27784 0.33152 0.0
C46 C 0.09174 0.30426 0.32938 0.0
N47 N 0.06746 0.29173 0.33687 0.0
C48 C 0.08459 0.27676 0.32496 0.0
C49 C 0.09555 0.29005 0.32392 0.0
H50 H 0.07514 0.31582 0.34018 0.0
H51 H 0.06284 0.26744 0.33273 0.0
C52 C 0.01891 0.25332 0.38468 0.0
N53 N 0.03269 0.2606 0.38092 0.0
C54 C 0.01789 0.24017 0.39286 0.0
C55 C 0.04515 0.24176 0.39283 0.0
C56 C 0.04567 0.25496 0.38477 0.0
C57 C 0.03111 0.23407 0.39709 0.0
H58 H 0.00861 0.25766 0.38125 0.0
H59 H 0.05648 0.26054 0.38134 0.0
O60 O 0.03603 0.30953 0.34655 0.0
O61 O 0.01759 0.29188 0.37049 0.0
O62 O 0.0311 0.27408 0.34506 0.0
O63 O 0.05259 0.29546 0.37225 0.0
H64 H 0.02672 0.33608 0.35084 0.0
H65 H 0.03961 0.3036 0.31598 0.0
H66 H 0.0223 0.35257 0.32932 0.0
H67 H 0.0349 0.32062 0.29504 0.0
H68 H 0.00504 0.28568 0.42075 0.0
H69 H 0.98823 0.29371 0.36527 0.0
H70 H 0.02393 0.28755 0.40081 0.0
H71 H 0.97 0.29178 0.38581 0.0
H72 H 0.97268 0.31168 0.32469 0.0
H73 H 0.96729 0.26219 0.31953 0.0
H74 H 0.05796 0.3644 0.39148 0.0
H75 H 0.01833 0.34343 0.41273 0.0
H76 H 0.03635 0.24612 0.34818 0.0
H77 H 0.02435 0.27657 0.31432 0.0
H78 H 0.03512 0.22579 0.32559 0.0
H79 H 0.02337 0.25572 0.29231 0.0
H80 H 0.07862 0.28578 0.36859 0.0
H81 H 0.05136 0.30317 0.40305 0.0
H82 H 0.09859 0.28463 0.3908 0.0
H83 H 0.0718 0.30166 0.42469 0.0
H84 H 0.09955 0.31492 0.32877 0.0
H85 H 0.08686 0.26548 0.32124 0.0
H86 H 0.00677 0.23496 0.39593 0.0
H87 H 0.05568 0.23749 0.39537 0.0
Li88 Li 0.01447 0.76433 0.66581 0.0
Li89 Li 0.02893 0.75269 0.68795 0.0
Li90 Li 0.01099 0.73509 0.66488 0.0
Li91 Li 0.9991 0.75035 0.68683 0.0
C92 C 0.0401 0.75255 0.65331 0.0
N93 N 0.06078 0.75616 0.63091 0.0
C94 C 0.05534 0.75966 0.65805 0.0
C95 C 0.03537 0.74721 0.63722 0.0
C96 C 0.06562 0.76141 0.64653 0.0
C97 C 0.04601 0.74916 0.62606 0.0
C98 C 0.02062 0.78062 0.70207 0.0
C99 C 0.02298 0.78952 0.7302 0.0
N100 N 0.02966 0.80373 0.72705 0.0
C101 C 0.0275 0.79528 0.69909 0.0
C102 C 0.01832 0.77767 0.71772 0.0
C103 C 0.032 0.80682 0.71189 0.0
C104 C 1.00238 0.78688 0.6485 0.0
N105 N 0.01554 0.78184 0.65308 0.0
C106 C 0.03015 0.80188 0.64052 0.0
C107 C 0.02929 0.78913 0.64929 0.0
C108 C 0.01676 0.8074 0.63561 0.0
C109 C 1.00272 0.79961 0.63976 0.0
H110 H 0.99156 0.78104 0.65169 0.0
H111 H 0.03969 0.78521 0.65324 0.0
C112 C 0.056 0.74149 0.69955 0.0
N113 N 0.04962 0.75437 0.70014 0.0
C114 C 0.07132 0.74208 0.70591 0.0
C115 C 0.07345 0.76912 0.71375 0.0
C116 C 0.05807 0.76803 0.7072 0.0
C117 C 0.0805 0.75608 0.713 0.0
H118 H 0.04929 0.73075 0.69372 0.0
H119 H 0.05309 0.77828 0.70732 0.0
C120 C 0.98404 0.74489 0.64993 0.0
N121 N 0.96172 0.73788 0.62402 0.0
C122 C 0.96887 0.73897 0.65215 0.0
C123 C 0.98788 0.74728 0.63457 0.0
C124 C 0.95774 0.73549 0.63889 0.0
C125 C 0.97642 0.74364 0.62161 0.0
C126 C 0.01063 0.72402 0.69991 0.0
C127 C 0.0038 0.70867 0.69532 0.0
C128 C 0.01599 0.72895 0.71596 0.0
C129 C 1.0024 0.69846 0.70694 0.0
C130 C 0.01435 0.71839 0.72723 0.0
N131 N 0.00766 0.7035 0.72252 0.0
C132 C 0.0228 0.70958 0.65138 0.0
C133 C 0.99688 0.70839 0.64144 0.0
C134 C 0.02329 0.6959 0.64184 0.0
N135 N 0.00976 0.71564 0.65104 0.0
C136 C 0.99687 0.69466 0.63167 0.0
C137 C 0.01023 0.68815 0.63168 0.0
H138 H 0.03292 0.71542 0.65911 0.0
H139 H 0.98656 0.71325 0.64127 0.0
C140 C 0.97724 0.76465 0.70418 0.0
N141 N 0.9802 0.75081 0.69818 0.0
C142 C 0.96338 0.76574 0.71069 0.0
C143 C 0.95553 0.73838 0.70483 0.0
C144 C 0.96964 0.73777 0.69859 0.0
C145 C 0.95206 0.75254 0.71094 0.0
H146 H 0.98548 0.775 0.70354 0.0
H147 H 0.97195 0.72684 0.69367 0.0
O148 O 0.02993 0.7506 0.66444 0.0
O149 O 0.01589 0.76928 0.68965 0.0
O150 O 0.99501 0.74855 0.6628 0.0
O151 O 0.01244 0.73405 0.68864 0.0
H152 H 0.05917 0.76384 0.67047 0.0
H153 H 0.02364 0.74155 0.6334 0.0
H154 H 0.07745 0.76691 0.65001 0.0
H155 H 0.04253 0.74509 0.61356 0.0
H156 H 0.02125 0.78743 0.74238 0.0
H157 H 0.0293 0.79773 0.687 0.0
H158 H 0.01289 0.76639 0.72017 0.0
H159 H 0.03732 0.81825 0.70977 0.0
H160 H 0.0413 0.80755 0.63795 0.0
H161 H 0.99203 0.80321 0.63617 0.0
H162 H 0.07593 0.73159 0.70515 0.0
H163 H 0.0799 0.78026 0.71882 0.0
H164 H 0.96571 0.73712 0.66398 0.0
H165 H 0.99955 0.75196 0.63269 0.0
H166 H 0.94595 0.73092 0.64042 0.0
H167 H 0.9792 0.74544 0.60964 0.0
H168 H 0.9997 0.70469 0.6829 0.0
H169 H 0.02145 0.74078 0.71964 0.0
H170 H 0.99717 0.68653 0.70358 0.0
H171 H 0.01845 0.72203 0.73971 0.0
H172 H 0.03382 0.69137 0.64263 0.0
H173 H 0.98652 0.68935 0.62399 0.0
H174 H 0.96136 0.77698 0.715 0.0
H175 H 0.9474 0.7278 0.70482 0.0
Li176 Li 0.51897 0.79132 0.84623 0.0
Li177 Li 0.536 0.80859 0.86941 0.0
Li178 Li 0.5488 0.79282 0.8476 0.0
Li179 Li 0.53395 0.77941 0.8684 0.0
C180 C 0.53326 0.81834 0.83346 0.0
N181 N 0.528 0.83603 0.80906 0.0
C182 C 0.52857 0.83237 0.83677 0.0
C183 C 0.53536 0.8133 0.81778 0.0
C184 C 0.52593 0.84114 0.82425 0.0
C185 C 0.53262 0.82242 0.8056 0.0
C186 C 0.50832 0.79385 0.88147 0.0
C187 C 0.50393 0.79466 0.90925 0.0
N188 N 0.4893 0.79661 0.90519 0.0
C189 C 0.49326 0.79585 0.87755 0.0
C190 C 0.51373 0.79324 0.89743 0.0
C191 C 0.48382 0.79723 0.88972 0.0
C192 C 0.48962 0.77512 0.82879 0.0
N193 N 0.49829 0.78929 0.8337 0.0
C194 C 0.4768 0.80095 0.8251 0.0
C195 C 0.49212 0.80209 0.83183 0.0
C196 C 0.46739 0.78646 0.82023 0.0
C197 C 0.47424 0.77345 0.822 0.0
H198 H 0.49448 0.76499 0.83055 0.0
H199 H 0.49888 0.81328 0.83616 0.0
C200 C 0.55001 0.8358 0.89216 0.0
N201 N 0.53686 0.82816 0.88325 0.0
C202 C 0.55018 0.84965 0.90184 0.0
C203 C 0.52336 0.84778 0.89299 0.0
C204 C 0.52368 0.83395 0.88357 0.0
C205 C 0.53673 0.85596 0.90238 0.0
H206 H 0.56046 0.83119 0.89174 0.0
H207 H 0.51332 0.82784 0.87643 0.0
C208 C 0.53093 0.76293 0.83253 0.0
N209 N 0.52961 0.73956 0.80821 0.0
C210 C 0.53561 0.74925 0.83586 0.0
C211 C 0.52555 0.76473 0.81686 0.0
C212 C 0.53486 0.73757 0.82339 0.0
C213 C 0.52499 0.75278 0.80472 0.0
C214 C 0.56337 0.79423 0.88388 0.0
C215 C 0.57617 0.78793 0.88041 0.0
C216 C 0.5616 0.79891 0.89975 0.0
C217 C 0.587 0.78637 0.89294 0.0
C218 C 0.57268 0.79715 0.91195 0.0
N219 N 0.58505 0.79098 0.90832 0.0
C220 C 0.58081 0.80304 0.84201 0.0
C221 C 0.56886 0.78091 0.82485 0.0
C222 C 0.59502 0.80233 0.83609 0.0
N223 N 0.56799 0.79232 0.83653 0.0
C224 C 0.58284 0.77983 0.81853 0.0
C225 C 0.59637 0.7905 0.82424 0.0
H226 H 0.58013 0.812 0.85136 0.0
H227 H 0.55881 0.77232 0.82057 0.0
C228 C 0.51954 0.75563 0.88635 0.0
N229 N 0.533 0.76168 0.88092 0.0
C230 C 0.51849 0.74276 0.89495 0.0
C231 C 0.54507 0.74224 0.8921 0.0
C232 C 0.54561 0.75513 0.88358 0.0
C233 C 0.53136 0.7358 0.89798 0.0
H234 H 0.5095 0.76069 0.88385 0.0
H235 H 0.55613 0.75978 0.8789 0.0
O236 O 0.53612 0.80973 0.84559 0.0
O237 O 0.51761 0.79216 0.86967 0.0
O238 O 0.5314 0.7744 0.8446 0.0
O239 O 0.55284 0.79618 0.87175 0.0
H240 H 0.52698 0.83644 0.84887 0.0
H241 H 0.53912 0.80251 0.81509 0.0
H242 H 0.52228 0.85203 0.82662 0.0
H243 H 0.5342 0.81869 0.79339 0.0
H244 H 0.50793 0.79415 0.92166 0.0
H245 H 0.48888 0.79626 0.86523 0.0
H246 H 0.5253 0.79151 0.90061 0.0
H247 H 0.47212 0.79876 0.88686 0.0
H248 H 0.47223 0.81139 0.82436 0.0
H249 H 0.46776 0.76199 0.81831 0.0
H250 H 0.56086 0.85549 0.90862 0.0
H251 H 0.51262 0.85189 0.89304 0.0
H252 H 0.53976 0.74768 0.84795 0.0
H253 H 0.52184 0.77525 0.81413 0.0
H254 H 0.53843 0.72691 0.82578 0.0
H255 H 0.52086 0.75401 0.79253 0.0
H256 H 0.57768 0.78419 0.86819 0.0
H257 H 0.55185 0.80395 0.90262 0.0
H258 H 0.59696 0.7815 0.89044 0.0
H259 H 0.57148 0.80075 0.92429 0.0
H260 H 0.6049 0.81104 0.84084 0.0
H261 H 0.58308 0.77036 0.80958 0.0
H262 H 0.50756 0.73813 0.89888 0.0
H263 H 0.55536 0.73746 0.89414 0.0
Li264 Li 0.5144 0.2659 0.16637 0.0
Li265 Li 0.52897 0.25396 0.18844 0.0
Li266 Li 0.51101 0.23655 0.16546 0.0
Li267 Li 0.49912 0.25155 0.18739 0.0
C268 C 0.54022 0.25321 0.15391 0.0
N269 N 0.56122 0.25509 0.13174 0.0
C270 C 0.55562 0.25969 0.1587 0.0
C271 C 0.53548 0.24768 0.13785 0.0
C272 C 0.56607 0.26054 0.1473 0.0
C273 C 0.54628 0.24874 0.12682 0.0
C274 C 0.52079 0.28181 0.20278 0.0
C275 C 0.52342 0.29059 0.23095 0.0
N276 N 0.53018 0.30479 0.22784 0.0
C277 C 0.52776 0.29646 0.19983 0.0
C278 C 0.51859 0.27881 0.21843 0.0
C279 C 0.53243 0.30793 0.21267 0.0
C280 C 0.50513 0.2933 0.15618 0.0
N281 N 0.51532 0.28373 0.15396 0.0
C282 C 0.52679 0.29955 0.13504 0.0
C283 C 0.52605 0.2867 0.1436 0.0
C284 C 0.51652 0.30978 0.13714 0.0
C285 C 0.50553 0.30638 0.14793 0.0
H286 H 0.49673 0.29088 0.16452 0.0
H287 H 0.53415 0.27916 0.14194 0.0
C288 C 0.55593 0.24247 0.19954 0.0
N289 N 0.54969 0.25543 0.20049 0.0
C290 C 0.57126 0.24282 0.2057 0.0
C291 C 0.57369 0.26979 0.21414 0.0
C292 C 0.55829 0.26895 0.20777 0.0
C293 C 0.5806 0.25667 0.21298 0.0
H294 H 0.5491 0.23185 0.19356 0.0
H295 H 0.55341 0.27926 0.20819 0.0
C296 C 0.48425 0.24553 0.15034 0.0
N297 N 0.46244 0.23684 0.12412 0.0
C298 C 0.46942 0.23824 0.1523 0.0
C299 C 0.48801 0.24845 0.13507 0.0
C300 C 0.45855 0.23392 0.13889 0.0
C301 C 0.47681 0.24394 0.12195 0.0
C302 C 0.51059 0.22514 0.20021 0.0
C303 C 0.50348 0.20991 0.19541 0.0
C304 C 0.51612 0.22978 0.21627 0.0
C305 C 0.502 0.19951 0.20685 0.0
C306 C 0.5144 0.21904 0.22734 0.0
N307 N 0.50744 0.20425 0.22244 0.0
C308 C 0.52334 0.21253 0.14943 0.0
C309 C 0.49629 0.20815 0.14472 0.0
C310 C 0.52377 0.19887 0.13985 0.0
N311 N 0.50976 0.21705 0.15164 0.0
C312 C 0.49618 0.19426 0.13517 0.0
C313 C 0.51008 0.18932 0.13254 0.0
H314 H 0.53395 0.21958 0.15512 0.0
H315 H 0.48555 0.21172 0.14673 0.0
C316 C 0.47741 0.26553 0.20536 0.0
N317 N 0.48024 0.25183 0.19881 0.0
C318 C 0.46353 0.26648 0.21192 0.0
C319 C 0.45542 0.23925 0.20492 0.0
C320 C 0.46956 0.23877 0.1987 0.0
C321 C 0.45208 0.25328 0.2116 0.0
H322 H 0.48575 0.27589 0.20515 0.0
H323 H 0.47178 0.22796 0.19336 0.0
O324 O 0.52987 0.2522 0.16492 0.0
O325 O 0.51589 0.27055 0.19033 0.0
O326 O 0.49496 0.25005 0.16336 0.0
O327 O 0.51253 0.23535 0.18911 0.0
H328 H 0.55947 0.26406 0.17108 0.0
H329 H 0.52359 0.24265 0.13396 0.0
H330 H 0.57803 0.26553 0.15084 0.0
H331 H 0.54279 0.24452 0.11435 0.0
H332 H 0.52177 0.28846 0.24314 0.0
H333 H 0.52949 0.29894 0.18774 0.0
H334 H 0.51313 0.26753 0.22086 0.0
H335 H 0.53781 0.31934 0.21058 0.0
H336 H 0.53531 0.30131 0.12672 0.0
H337 H 0.49746 0.31389 0.15026 0.0
H338 H 0.57576 0.23227 0.20465 0.0
H339 H 0.58026 0.28082 0.21939 0.0
H340 H 0.46634 0.23596 0.16406 0.0
H341 H 0.49942 0.25419 0.1334 0.0
H342 H 0.44702 0.22828 0.14023 0.0
H343 H 0.47953 0.24613 0.11006 0.0
H344 H 0.49924 0.20615 0.18298 0.0
H345 H 0.52178 0.24152 0.2201 0.0
H346 H 0.49656 0.18766 0.20332 0.0
H347 H 0.51864 0.22244 0.23982 0.0
H348 H 0.53486 0.19597 0.13812 0.0
H349 H 0.48524 0.18735 0.13015 0.0
H350 H 0.4616 0.27761 0.2167 0.0
H351 H 0.44717 0.22869 0.20446 0.0
Li352 Li 0.04453 0.79636 0.0974 0.0
Li353 Li 0.05975 0.7843 0.1194 0.0
Li354 Li 0.04224 0.7664 0.09618 0.0
Li355 Li 0.03031 0.78091 0.11835 0.0
C356 C 0.07099 0.78479 0.08447 0.0
N357 N 0.09169 0.78774 0.06205 0.0
C358 C 0.08634 0.79146 0.08921 0.0
C359 C 0.06613 0.77959 0.06837 0.0
C360 C 0.09664 0.79285 0.07768 0.0
C361 C 0.07678 0.7812 0.0572 0.0
C362 C 0.05014 0.81138 0.1342 0.0
C363 C 0.05127 0.81943 0.16241 0.0
N364 N 0.05767 0.83392 0.15987 0.0
C365 C 0.05672 0.82634 0.13185 0.0
C366 C 0.04736 0.80786 0.14957 0.0
C367 C 0.06045 0.83759 0.14499 0.0
C368 C 0.02974 0.81857 0.0813 0.0
N369 N 0.04378 0.81529 0.08603 0.0
C370 C 0.05586 0.83943 0.07777 0.0
C371 C 0.05675 0.82545 0.08423 0.0
C372 C 0.04149 0.84323 0.07291 0.0
C373 C 0.02835 0.83233 0.07468 0.0
H374 H 0.01949 0.81065 0.08301 0.0
H375 H 0.06786 0.82291 0.08815 0.0
C376 C 0.0846 0.77199 0.13414 0.0
N377 N 0.07928 0.78539 0.1334 0.0
C378 C 0.09826 0.77144 0.14371 0.0
C379 C 0.10106 0.79855 0.15168 0.0
C380 C 0.08727 0.79857 0.14196 0.0
C381 C 0.10687 0.78483 0.15272 0.0
H382 H 0.07816 0.76159 0.1273 0.0
H383 H 0.08305 0.80919 0.14124 0.0
C384 C 0.01422 0.77493 0.08213 0.0
N385 N 0.99087 0.76621 0.05736 0.0
C386 C 0.99967 0.76778 0.08518 0.0
C387 C 0.01692 0.77767 0.06652 0.0
C388 C 0.98801 0.76345 0.07248 0.0
C389 C 0.00496 0.77316 0.05414 0.0
C390 C 0.04271 0.75502 0.13068 0.0
C391 C 0.03583 0.73972 0.12583 0.0
C392 C 0.0483 0.75961 0.14674 0.0
C393 C 0.03468 0.72923 0.13718 0.0
C394 C 0.04693 0.74876 0.15772 0.0
N395 N 0.04021 0.73393 0.15275 0.0
C396 C 0.05306 0.73865 0.08648 0.0
C397 C 0.02772 0.73782 0.07489 0.0
C398 C 0.05254 0.72331 0.08016 0.0
N399 N 0.04072 0.74564 0.08396 0.0
C400 C 0.02675 0.72245 0.06824 0.0
C401 C 0.03919 0.71477 0.07102 0.0
H402 H 0.06326 0.74486 0.09382 0.0
H403 H 0.01786 0.74329 0.07315 0.0
C404 C 0.00414 0.79155 0.12989 0.0
N405 N 0.01245 0.78011 0.13073 0.0
C406 C 0.99102 0.79141 0.13802 0.0
C407 C 0.99519 0.76781 0.14796 0.0
C408 C 0.00816 0.76835 0.13957 0.0
C409 C 0.98625 0.7794 0.14727 0.0
H410 H 0.0076 0.80076 0.12272 0.0
H411 H 0.01472 0.75926 0.14012 0.0
O412 O 0.06086 0.78299 0.09564 0.0
O413 O 0.04621 0.80031 0.12145 0.0
O414 O 0.02567 0.77948 0.09445 0.0
O415 O 0.04404 0.76541 0.11973 0.0
H416 H 0.09026 0.79545 0.10167 0.0
H417 H 0.05429 0.77428 0.06457 0.0
H418 H 0.10858 0.79797 0.08116 0.0
H419 H 0.07322 0.77722 0.04469 0.0
H420 H 0.04918 0.81689 0.17439 0.0
H421 H 0.05889 0.82923 0.11999 0.0
H422 H 0.0422 0.79633 0.15154 0.0
H423 H 0.06553 0.84923 0.14336 0.0
H424 H 0.06641 0.84719 0.07659 0.0
H425 H 0.01697 0.83459 0.07144 0.0
H426 H 0.10187 0.76048 0.14416 0.0
H427 H 0.10721 0.80928 0.1581 0.0
H428 H 0.99742 0.76565 0.09724 0.0
H429 H 0.02812 0.78328 0.06402 0.0
H430 H 0.97668 0.75793 0.07465 0.0
H431 H 0.00686 0.77521 0.04199 0.0
H432 H 0.03139 0.736 0.11344 0.0
H433 H 0.05365 0.77142 0.15067 0.0
H434 H 0.02938 0.71735 0.1336 0.0
H435 H 0.05121 0.75214 0.17019 0.0
H436 H 0.06257 0.71818 0.08254 0.0
H437 H 0.01612 0.71649 0.06147 0.0
H438 H 0.98455 0.80053 0.13677 0.0
H439 H 0.99232 0.7584 0.15505 0.0
Li440 Li 0.50483 0.77556 0.43785 0.0
Li441 Li 0.48732 0.75839 0.41449 0.0
Li442 Li 0.50288 0.74557 0.43671 0.0
Li443 Li 0.51686 0.76031 0.41583 0.0
C444 C 0.47671 0.76101 0.44976 0.0
N445 N 0.4574 0.76577 0.47274 0.0
C446 C 0.4628 0.76564 0.44553 0.0
C447 C 0.4808 0.75874 0.46562 0.0
C448 C 0.4532 0.768 0.45735 0.0
C449 C 0.47088 0.76123 0.47708 0.0
C450 C 0.50491 0.78731 0.40372 0.0
C451 C 0.50932 0.79475 0.37756 0.0
N452 N 0.50646 0.80894 0.38221 0.0
C453 C 0.50197 0.80194 0.40823 0.0
C454 C 0.50856 0.78363 0.38826 0.0
C455 C 0.50281 0.81272 0.39718 0.0
C456 C 0.5204 0.80675 0.44985 0.0
N457 N 0.50715 0.79646 0.45018 0.0
C458 C 0.49629 0.81648 0.46373 0.0
C459 C 0.49525 0.80112 0.45713 0.0
C460 C 0.50967 0.82752 0.46318 0.0
C461 C 0.5219 0.82224 0.45625 0.0
H462 H 0.52969 0.80307 0.44405 0.0
H463 H 0.48469 0.79307 0.45722 0.0
C464 C 0.45578 0.74531 0.39978 0.0
N465 N 0.46772 0.75734 0.40036 0.0
C466 C 0.44178 0.745 0.39027 0.0
C467 C 0.45249 0.76934 0.38192 0.0
C468 C 0.46617 0.76924 0.39162 0.0
C469 C 0.43991 0.75715 0.38108 0.0
H470 H 0.45703 0.73595 0.40681 0.0
H471 H 0.47547 0.77887 0.39225 0.0
C472 C 0.53307 0.76378 0.45173 0.0
N473 N 0.55669 0.76616 0.47598 0.0
C474 C 0.54683 0.75928 0.44846 0.0
C475 C 0.5313 0.76953 0.46728 0.0
C476 C 0.55865 0.76057 0.4609 0.0
C477 C 0.54339 0.77062 0.47939 0.0
C478 C 0.49997 0.73058 0.40016 0.0
C479 C 0.50543 0.71716 0.40301 0.0
C480 C 0.49438 0.73261 0.38463 0.0
C481 C 0.50519 0.70595 0.39021 0.0
C482 C 0.49434 0.72111 0.37216 0.0
N483 N 0.49969 0.70813 0.37519 0.0
C484 C 0.49301 0.71331 0.44196 0.0
C485 C 0.51397 0.72583 0.46041 0.0
C486 C 0.49377 0.69915 0.44802 0.0
N487 N 0.50317 0.72638 0.44797 0.0
C488 C 0.51502 0.71192 0.46694 0.0
C489 C 0.505 0.69812 0.46063 0.0
H490 H 0.4845 0.71373 0.43207 0.0
H491 H 0.52209 0.73611 0.46514 0.0
C492 C 0.54394 0.77519 0.40296 0.0
N493 N 0.53477 0.76129 0.40339 0.0
C494 C 0.55693 0.77647 0.39451 0.0
C495 C 0.55105 0.74913 0.38708 0.0
C496 C 0.53821 0.74837 0.3957 0.0
C497 C 0.56073 0.76332 0.38633 0.0
H498 H 0.54122 0.78535 0.40927 0.0
H499 H 0.53106 0.73737 0.39625 0.0
O500 O 0.48618 0.75854 0.43835 0.0
O501 O 0.50407 0.77659 0.41435 0.0
O502 O 0.52149 0.76284 0.43968 0.0
O503 O 0.49985 0.74156 0.41256 0.0
H504 H 0.45949 0.76741 0.43327 0.0
H505 H 0.49152 0.7551 0.46902 0.0
H506 H 0.44241 0.77161 0.45428 0.0
H507 H 0.47387 0.75953 0.48942 0.0
H508 H 0.51216 0.79209 0.36556 0.0
H509 H 0.49891 0.8049 0.42008 0.0
H510 H 0.51073 0.7723 0.38456 0.0
H511 H 0.50054 0.82408 0.40049 0.0
H512 H 0.48656 0.81964 0.46911 0.0
H513 H 0.53241 0.83009 0.4552 0.0
H514 H 0.43257 0.73523 0.39004 0.0
H515 H 0.4517 0.77916 0.37542 0.0
H516 H 0.54837 0.75488 0.43643 0.0
H517 H 0.52071 0.77311 0.46995 0.0
H518 H 0.56938 0.75715 0.45856 0.0
H519 H 0.5422 0.77504 0.4915 0.0
H520 H 0.50993 0.7155 0.41494 0.0
H521 H 0.49011 0.74294 0.38226 0.0
H522 H 0.50939 0.69551 0.39223 0.0
H523 H 0.49003 0.7225 0.36007 0.0
H524 H 0.48557 0.68905 0.44277 0.0
H525 H 0.52399 0.71193 0.47653 0.0
H526 H 0.56406 0.78767 0.39466 0.0
H527 H 0.55323 0.73864 0.38092 0.0
Li528 Li 0.54415 0.29598 0.59738 0.0
Li529 Li 0.55903 0.28393 0.61922 0.0
Li530 Li 0.54156 0.26611 0.59609 0.0
Li531 Li 0.52966 0.28061 0.61831 0.0
C532 C 0.57033 0.28497 0.58435 0.0
N533 N 0.5909 0.28918 0.5619 0.0
C534 C 0.58556 0.29209 0.58912 0.0
C535 C 0.56553 0.27998 0.56819 0.0
C536 C 0.59579 0.29411 0.57758 0.0
C537 C 0.57612 0.28223 0.55701 0.0
C538 C 0.55025 0.31113 0.63399 0.0
C539 C 0.5515 0.31991 0.66205 0.0
N540 N 0.55915 0.3339 0.65933 0.0
C541 C 0.55809 0.32558 0.63145 0.0
C542 C 0.54688 0.30824 0.64938 0.0
C543 C 0.5625 0.33695 0.64442 0.0
C544 C 0.52995 0.31844 0.58108 0.0
N545 N 0.54382 0.3149 0.58598 0.0
C546 C 0.55646 0.33892 0.57797 0.0
C547 C 0.55697 0.32485 0.58434 0.0
C548 C 0.54226 0.34309 0.57307 0.0
C549 C 0.52892 0.33231 0.57455 0.0
H550 H 0.51954 0.3106 0.58252 0.0
H551 H 0.56795 0.32211 0.58844 0.0
C552 C 0.58274 0.27173 0.63637 0.0
N553 N 0.57857 0.28525 0.63316 0.0
C554 C 0.59641 0.27149 0.64602 0.0
C555 C 0.6018 0.29912 0.64869 0.0
C556 C 0.58786 0.29884 0.63913 0.0
C557 C 0.60638 0.2853 0.65235 0.0
H558 H 0.57542 0.26101 0.6314 0.0
H559 H 0.5846 0.30952 0.63633 0.0
C560 C 0.51384 0.27454 0.5819 0.0
N561 N 0.49084 0.26549 0.55683 0.0
C562 C 0.49927 0.2673 0.58477 0.0
C563 C 0.51675 0.2772 0.56632 0.0
C564 C 0.48778 0.2628 0.57192 0.0
C565 C 0.50496 0.27252 0.55379 0.0
C566 C 0.54245 0.25521 0.63123 0.0
C567 C 0.53715 0.23948 0.62705 0.0
C568 C 0.54702 0.26089 0.64727 0.0
C569 C 0.53647 0.22965 0.63904 0.0
C570 C 0.54618 0.25068 0.65891 0.0
N571 N 0.54096 0.2354 0.65459 0.0
C572 C 0.55248 0.2403 0.57978 0.0
C573 C 0.52568 0.23581 0.58078 0.0
C574 C 0.55174 0.225 0.57314 0.0
N575 N 0.53958 0.24545 0.58363 0.0
C576 C 0.52444 0.2204 0.57427 0.0
C577 C 0.53761 0.21459 0.57052 0.0
H578 H 0.56351 0.24792 0.58237 0.0
H579 H 0.51553 0.23989 0.58411 0.0
C580 C 0.50299 0.29079 0.62933 0.0
N581 N 0.51176 0.27976 0.63069 0.0
C582 C 0.48995 0.29063 0.6376 0.0
C583 C 0.49514 0.26786 0.64873 0.0
C584 C 0.50796 0.26836 0.64012 0.0
C585 C 0.48583 0.27907 0.64757 0.0
H586 H 0.50608 0.29973 0.62174 0.0
H587 H 0.51475 0.25949 0.64093 0.0
O588 O 0.5603 0.28248 0.59553 0.0
O589 O 0.54557 0.29998 0.62139 0.0
O590 O 0.5251 0.27932 0.59437 0.0
O591 O 0.54325 0.26498 0.61963 0.0
H592 H 0.58944 0.29592 0.60161 0.0
H593 H 0.5538 0.27431 0.56436 0.0
H594 H 0.60763 0.29956 0.58109 0.0
H595 H 0.5726 0.2784 0.54446 0.0
H596 H 0.54897 0.31786 0.67404 0.0
H597 H 0.56072 0.328 0.61958 0.0
H598 H 0.54066 0.29716 0.65149 0.0
H599 H 0.56857 0.3482 0.64264 0.0
H600 H 0.56717 0.34666 0.57741 0.0
H601 H 0.51764 0.33452 0.57076 0.0
H602 H 0.59899 0.26046 0.64855 0.0
H603 H 0.60902 0.31013 0.65288 0.0
H604 H 0.49685 0.26524 0.5968 0.0
H605 H 0.52796 0.28291 0.56397 0.0
H606 H 0.47643 0.25721 0.57394 0.0
H607 H 0.50701 0.27452 0.54167 0.0
H608 H 0.5336 0.2349 0.61468 0.0
H609 H 0.55121 0.27303 0.65068 0.0
H610 H 0.53238 0.21744 0.63598 0.0
H611 H 0.54969 0.25489 0.67138 0.0
H612 H 0.5623 0.22122 0.57069 0.0
H613 H 0.51323 0.21306 0.57236 0.0
H614 H 0.48328 0.29961 0.63635 0.0
H615 H 0.49238 0.25856 0.656 0.0
Li616 Li 0.00414 0.27628 0.93765 0.0
Li617 Li 0.98671 0.25926 0.91448 0.0
Li618 Li 1.00246 0.2465 0.93638 0.0
Li619 Li 0.01602 0.2612 0.91547 0.0
C620 C 0.9765 0.26165 0.95008 0.0
N621 N 0.95786 0.26627 0.97376 0.0
C622 C 0.96249 0.26626 0.94633 0.0
C623 C 0.981 0.25928 0.96581 0.0
C624 C 0.95324 0.26856 0.95849 0.0
C625 C 0.97142 0.26171 0.97763 0.0
C626 C 1.00221 0.28726 0.9027 0.0
C627 C 1.00254 0.29253 0.87523 0.0
N628 N 1.00036 0.30704 0.87955 0.0
C629 C 1.0 0.30222 0.90689 0.0
C630 C 0.00351 0.28235 0.88676 0.0
C631 C 0.99908 0.31205 0.89501 0.0
C632 C 0.02016 0.30691 0.95061 0.0
N633 N 0.00654 0.29698 0.95013 0.0
C634 C 0.99569 0.31724 0.96317 0.0
C635 C 0.99444 0.30192 0.95639 0.0
C636 C 0.00948 0.3279 0.96346 0.0
C637 C 0.02187 0.32235 0.95719 0.0
H638 H 0.02963 0.30297 0.94542 0.0
H639 H 0.98357 0.29417 0.95568 0.0
C640 C 0.95833 0.24499 0.89342 0.0
N641 N 0.96712 0.25846 0.90054 0.0
C642 C 0.9445 0.24488 0.8837 0.0
C643 C 0.94889 0.27245 0.88867 0.0
C644 C 0.96252 0.27203 0.89838 0.0
C645 C 0.93955 0.25876 0.88107 0.0
H646 H 0.96203 0.23427 0.89525 0.0
H647 H 0.96938 0.28264 0.9043 0.0
C648 C 0.03242 0.26476 0.95142 0.0
N649 N 0.05565 0.26675 0.97602 0.0
C650 C 0.04676 0.26174 0.94811 0.0
C651 C 0.02989 0.26888 0.9672 0.0
C652 C 0.05835 0.26277 0.96073 0.0
C653 C 0.04179 0.2698 0.97948 0.0
C654 C 1.00023 0.23144 0.90023 0.0
C655 C 0.00536 0.21804 0.90381 0.0
C656 C 0.99589 0.23341 0.88434 0.0
C657 C 0.00618 0.20684 0.89135 0.0
C658 C 0.99689 0.22194 0.87221 0.0
N659 N 1.00197 0.20901 0.87594 0.0
C660 C 0.99045 0.21662 0.94755 0.0
C661 C 0.01712 0.22496 0.95412 0.0
C662 C 0.99124 0.20259 0.9539 0.0
N663 N 1.0033 0.22755 0.94764 0.0
C664 C 0.01841 0.21117 0.96068 0.0
C665 C 0.0054 0.19953 0.96055 0.0
H666 H 0.97954 0.21861 0.94222 0.0
H667 H 0.02736 0.23341 0.95385 0.0
C668 C 0.04126 0.27568 0.89937 0.0
N669 N 0.0339 0.26194 0.90315 0.0
C670 C 0.05447 0.27658 0.8913 0.0
C671 C 0.05244 0.24921 0.89107 0.0
C672 C 0.03933 0.24885 0.89921 0.0
C673 C 0.06034 0.26323 0.88699 0.0
H674 H 0.03697 0.28603 0.90276 0.0
H675 H 0.03367 0.23808 0.90264 0.0
O676 O 0.98564 0.25924 0.93832 0.0
O677 O 1.00332 0.27756 0.9142 0.0
O678 O 0.02094 0.26376 0.93924 0.0
O679 O 0.99913 0.24241 0.91229 0.0
H680 H 0.95884 0.26807 0.93417 0.0
H681 H 0.99176 0.25558 0.96884 0.0
H682 H 0.94238 0.27217 0.95579 0.0
H683 H 0.97475 0.25994 0.98988 0.0
H684 H 0.00355 0.28891 0.86284 0.0
H685 H 0.99896 0.30619 0.91919 0.0
H686 H 0.00534 0.27084 0.88337 0.0
H687 H 0.99736 0.32366 0.89807 0.0
H688 H 0.98568 0.32081 0.96758 0.0
H689 H 0.03282 0.3299 0.95723 0.0
H690 H 0.93789 0.23399 0.8781 0.0
H691 H 0.9456 0.28346 0.88738 0.0
H692 H 0.04888 0.25856 0.93594 0.0
H693 H 0.01887 0.27134 0.96991 0.0
H694 H 0.0695 0.26042 0.95837 0.0
H695 H 0.04001 0.27296 0.99176 0.0
H696 H 0.0087 0.21633 0.91608 0.0
H697 H 0.99174 0.24366 0.88142 0.0
H698 H 0.01016 0.19642 0.89392 0.0
H699 H 0.99358 0.2233 0.85984 0.0
H700 H 0.98078 0.19421 0.95357 0.0
H701 H 0.02967 0.20949 0.96533 0.0
H702 H 0.05996 0.28767 0.88837 0.0
H703 H 0.05656 0.23862 0.88836 0.0
Li704 Li 0.38864 0.01458 0.29845 0.0
Li705 Li 0.36687 0.99912 0.28151 0.0
Li706 Li 0.3882 0.01448 0.2699 0.0
Li707 Li 0.36919 0.02651 0.28441 0.0
C708 C 0.39874 0.98728 0.28293 0.0
N709 N 0.41947 0.96756 0.28431 0.0
C710 C 0.39379 0.97187 0.28504 0.0
C711 C 0.41419 0.99263 0.28139 0.0
C712 C 0.40446 0.96208 0.28572 0.0
C713 C 0.42451 0.9825 0.28217 0.0
C714 C 0.35662 0.01084 0.31206 0.0
C715 C 0.33102 0.01013 0.31947 0.0
N716 N 0.33581 0.00688 0.33433 0.0
C717 C 0.36131 0.00753 0.32741 0.0
C718 C 0.34137 0.01219 0.30804 0.0
C719 C 0.35062 0.00555 0.33849 0.0
C720 C 0.40411 0.03027 0.32619 0.0
N721 N 0.40107 0.01636 0.31731 0.0
C722 C 0.41652 0.0058 0.33611 0.0
C723 C 0.4067 0.0041 0.32207 0.0
C724 C 0.42035 0.0202 0.34523 0.0
C725 C 0.41392 0.03252 0.34031 0.0
H726 H 0.39901 0.03963 0.3222 0.0
H727 H 0.40353 0.99304 0.31506 0.0
C728 C 0.35055 0.97317 0.26383 0.0
N729 N 0.35327 0.98072 0.27882 0.0
C730 C 0.34154 0.95862 0.26115 0.0
C731 C 0.33824 0.95999 0.28941 0.0
C732 C 0.34737 0.97453 0.29155 0.0
C733 C 0.33555 0.95184 0.27411 0.0
H734 H 0.35584 0.97826 0.2541 0.0
H735 H 0.35024 0.98055 0.30342 0.0
C736 C 0.40411 0.04408 0.29023 0.0
N737 N 0.42912 0.06762 0.29822 0.0
C738 C 0.40209 0.05935 0.29146 0.0
C739 C 0.41884 0.04077 0.29307 0.0
C740 C 0.41489 0.0711 0.29548 0.0
C741 C 0.43134 0.05284 0.29713 0.0
C742 C 0.35377 0.0092 0.25249 0.0
C743 C 0.35646 0.00764 0.23642 0.0
C744 C 0.33872 0.00722 0.25645 0.0
C745 C 0.34398 0.00414 0.22453 0.0
C746 C 0.32655 0.00369 0.24421 0.0
N747 N 0.32941 1.00226 0.22864 0.0
C748 C 0.40016 1.00219 0.24374 0.0
C749 C 0.40856 0.02904 0.25065 0.0
C750 C 0.40888 1.00244 0.2309 0.0
N751 N 0.40016 0.01539 0.25317 0.0
C752 C 0.41756 0.02981 0.23805 0.0
C753 C 0.41765 0.01641 0.22791 0.0
H754 H 0.39324 0.99155 0.24613 0.0
H755 H 0.40817 0.03935 0.2583 0.0
C756 C 0.35678 0.04832 0.30094 0.0
N757 N 0.35829 0.04208 0.28602 0.0
C758 C 0.34805 0.05971 0.30288 0.0
C759 C 0.34296 0.05811 0.27398 0.0
C760 C 0.35169 0.04666 0.27263 0.0
C761 C 0.34106 0.06474 0.28927 0.0
H762 H 0.36233 0.04437 0.3113 0.0
H763 H 0.35332 0.04151 0.26095 0.0
O764 O 0.38841 0.99697 0.28228 0.0
O765 O 0.367 0.01285 0.30112 0.0
O766 O 0.39167 0.03251 0.28615 0.0
O767 O 0.36589 0.01275 0.26421 0.0
H768 H 0.38184 0.96754 0.28618 0.0
H769 H 0.41817 0.00445 0.27951 0.0
H770 H 0.4008 0.95014 0.28738 0.0
H771 H 0.43652 0.98649 0.28105 0.0
H772 H 0.31918 0.01115 0.31653 0.0
H773 H 0.37309 0.00645 0.33071 0.0
H774 H 0.33757 0.01489 0.29628 0.0
H775 H 0.35408 0.00296 0.35041 0.0
H776 H 0.42097 0.99596 0.33987 0.0
H777 H 0.41661 0.04375 0.34716 0.0
H778 H 0.33968 0.95252 0.24921 0.0
H779 H 0.33402 0.95487 0.29968 0.0
H780 H 0.39075 0.06208 0.28925 0.0
H781 H 0.42058 0.02902 0.2923 0.0
H782 H 0.41351 0.08297 0.29642 0.0
H783 H 0.44279 0.05045 0.29943 0.0
H784 H 0.36807 0.00917 0.23318 0.0
H785 H 0.33646 0.00833 0.26881 0.0
H786 H 0.34589 0.00295 0.21204 0.0
H787 H 0.31482 1.0021 0.2471 0.0
H788 H 0.40846 0.9919 0.22319 0.0
H789 H 0.4243 0.04075 0.23622 0.0
H790 H 0.34685 0.06458 0.31484 0.0
H791 H 0.3381 0.06199 0.26319 0.0
Li792 Li 0.26776 0.17429 0.52243 0.0
Li793 Li 0.27881 0.1538 0.50675 0.0
Li794 Li 0.26613 0.17306 0.49239 0.0
Li795 Li 0.25016 0.1517 0.5047 0.0
C796 C 0.29676 0.18854 0.51008 0.0
N797 N 0.32132 0.21271 0.51301 0.0
C798 C 0.31161 0.18615 0.51443 0.0
C799 C 0.29437 0.20319 0.50716 0.0
C800 C 0.32389 0.19852 0.51586 0.0
C801 C 0.30695 0.21527 0.50873 0.0
C802 C 0.2661 0.141 0.53425 0.0
C803 C 0.26251 0.11458 0.5397 0.0
N804 N 0.26861 0.11923 0.55513 0.0
C805 C 0.27228 0.14555 0.55016 0.0
C806 C 0.26112 0.12542 0.52896 0.0
C807 C 0.27348 0.13435 0.56053 0.0
C808 C 0.25698 0.18394 0.55111 0.0
N809 N 0.26931 0.1867 0.54273 0.0
C810 C 0.28283 0.20503 0.56421 0.0
C811 C 0.28211 0.19705 0.54893 0.0
C812 C 0.27032 0.20228 0.5733 0.0
C813 C 0.25724 0.19158 0.56642 0.0
H814 H 0.24702 0.17552 0.54599 0.0
H815 H 0.29184 0.19901 0.54215 0.0
C816 C 0.30166 0.14009 0.49268 0.0
N817 N 0.29562 0.14278 0.50667 0.0
C818 C 0.3143 0.13268 0.49223 0.0
C819 C 0.31422 0.13083 0.52058 0.0
C820 C 0.3017 0.13838 0.52049 0.0
C821 C 0.32083 0.12795 0.50634 0.0
H822 H 0.29679 0.14391 0.48187 0.0
H823 H 0.29696 0.14085 0.53154 0.0
C824 C 0.24065 0.18497 0.50494 0.0
N825 N 0.22269 0.20699 0.50116 0.0
C826 C 0.2254 0.18067 0.49813 0.0
C827 C 0.24676 0.20041 0.50996 0.0
C828 C 0.21651 0.192 0.49629 0.0
C829 C 0.23749 0.21139 0.5079 0.0
C830 C 0.26068 0.13881 0.47506 0.0
C831 C 0.25639 0.14183 0.4595 0.0
C832 C 0.26224 0.12394 0.478 0.0
C833 C 0.25367 0.12984 0.44707 0.0
C834 C 0.25942 0.11226 0.46524 0.0
N835 N 0.25523 0.11543 0.45017 0.0
C836 C 0.28048 0.18571 0.46685 0.0
C837 C 0.25524 0.19047 0.4678 0.0
C838 C 0.28188 0.19302 0.45291 0.0
N839 N 0.2673 0.18452 0.47398 0.0
C840 C 0.25618 0.19797 0.45394 0.0
C841 C 0.26959 0.19924 0.44615 0.0
H842 H 0.28985 0.1807 0.47184 0.0
H843 H 0.24476 0.18923 0.47343 0.0
C844 C 0.22452 0.13633 0.5176 0.0
N845 N 0.23059 0.13812 0.50354 0.0
C846 C 0.21009 0.12716 0.51783 0.0
C847 C 0.20832 0.12175 0.48909 0.0
C848 C 0.22283 0.13105 0.48941 0.0
C849 C 0.20168 0.11974 0.50343 0.0
H850 H 0.23088 0.14214 0.52867 0.0
H851 H 0.22777 0.13278 0.47835 0.0
O852 O 0.28468 0.1765 0.5084 0.0
O853 O 0.26482 0.15181 0.52398 0.0
O854 O 0.24948 0.17404 0.5068 0.0
O855 O 0.26374 0.1505 0.48727 0.0
H856 H 0.31363 0.17483 0.51664 0.0
H857 H 0.28295 0.20518 0.50363 0.0
H858 H 0.33546 0.19685 0.51922 0.0
H859 H 0.30529 0.22668 0.5065 0.0
H860 H 0.25871 0.10247 0.53579 0.0
H861 H 0.27617 0.15758 0.55442 0.0
H862 H 0.2562 0.12176 0.5167 0.0
H863 H 0.27828 0.13769 0.57287 0.0
H864 H 0.29311 0.21327 0.56883 0.0
H865 H 0.24741 0.18877 0.57295 0.0
H866 H 0.31907 0.13099 0.48101 0.0
H867 H 0.31862 0.12725 0.53173 0.0
H868 H 0.22052 0.16873 0.49425 0.0
H869 H 0.2585 0.20386 0.5154 0.0
H870 H 0.2047 0.18887 0.49098 0.0
H871 H 0.24206 0.2234 0.51168 0.0
H872 H 0.25522 0.15332 0.45704 0.0
H873 H 0.2657 0.12147 0.48997 0.0
H874 H 0.25036 0.13201 0.43495 0.0
H875 H 0.2606 0.10068 0.46731 0.0
H876 H 0.29236 0.19341 0.44729 0.0
H877 H 0.24644 0.20271 0.44941 0.0
H878 H 0.20563 0.12583 0.52922 0.0
H879 H 0.20225 0.11647 0.47766 0.0
Li880 Li 0.14344 0.0451 0.77931 0.0
Li881 Li 0.12218 0.02889 0.79139 0.0
Li882 Li 0.14148 0.01647 0.77707 0.0
Li883 Li 0.12094 0.02735 0.76133 0.0
C884 C 0.15653 0.03456 0.80873 0.0
N885 N 0.1802 0.0402 0.83333 0.0
C886 C 0.15356 0.03809 0.82448 0.0
C887 C 0.17151 0.03388 0.80547 0.0
C888 C 0.16569 0.04091 0.83676 0.0
C889 C 0.18333 0.03678 0.81808 0.0
C890 C 0.11037 0.05444 0.78029 0.0
C891 C 0.08417 0.05829 0.77845 0.0
N892 N 0.08894 0.07254 0.78652 0.0
C893 C 0.11505 0.06915 0.78846 0.0
C894 C 0.09484 0.04897 0.77513 0.0
C895 C 0.10402 0.07812 0.79154 0.0
C896 C 0.15803 0.07113 0.76651 0.0
N897 N 0.15695 0.06475 0.78049 0.0
C898 C 0.17406 0.0867 0.79469 0.0
C899 C 0.16474 0.07221 0.79446 0.0
C900 C 0.1753 0.09367 0.78043 0.0
C901 C 0.16715 0.08559 0.7662 0.0
H902 H 0.1517 0.06499 0.75557 0.0
H903 H 0.16359 0.06704 0.80548 0.0
C904 C 0.10568 0.01373 0.8146 0.0
N905 N 0.11087 0.02777 0.80993 0.0
C906 C 0.09875 0.01245 0.82878 0.0
C907 C 0.1027 0.04011 0.83326 0.0
C908 C 0.10944 0.04085 0.81893 0.0
C909 C 0.09736 0.02576 0.83847 0.0
H910 H 0.10731 0.00347 0.80756 0.0
H911 H 0.11397 0.0519 0.81526 0.0
C912 C 0.15423 0.02875 0.74976 0.0
N913 N 0.17591 0.02524 0.72902 0.0
C914 C 0.14964 0.02187 0.73408 0.0
C915 C 0.16981 0.03396 0.75487 0.0
C916 C 0.16079 0.02017 0.72379 0.0
C917 C 0.18061 0.03204 0.74421 0.0
C918 C 0.10664 0.99835 0.77312 0.0
C919 C 0.10912 0.98335 0.7698 0.0
C920 C 0.09178 1.00097 0.77453 0.0
C921 C 0.09661 0.97117 0.7679 0.0
C922 C 0.07958 0.98849 0.77254 0.0
N923 N 0.08222 0.97397 0.7693 0.0
C924 C 0.15754 0.99493 0.79103 0.0
C925 C 0.1548 0.99242 0.76269 0.0
C926 C 0.1651 0.98238 0.79114 0.0
N927 N 0.15263 0.99974 0.77694 0.0
C928 C 0.16231 0.97986 0.76224 0.0
C929 C 0.16753 0.97458 0.77659 0.0
H930 H 0.15539 1.0007 0.80222 0.0
H931 H 0.15052 0.99619 0.75163 0.0
C932 C 0.11095 0.03843 0.73286 0.0
N933 N 0.10867 0.02579 0.74087 0.0
C934 C 0.10347 0.03821 0.71747 0.0
C935 C 0.09112 0.01203 0.71884 0.0
C936 C 0.09895 0.01272 0.73419 0.0
C937 C 0.09346 0.02485 0.71015 0.0
H938 H 0.1188 0.04865 0.73837 0.0
H939 H 0.09747 1.0027 0.7406 0.0
O940 O 0.14473 0.03146 0.79664 0.0
O941 O 0.12102 0.0456 0.777 0.0
O942 O 0.14347 0.03059 0.75994 0.0
O943 O 0.11881 0.01034 0.77527 0.0
H944 H 0.14201 0.03857 0.82721 0.0
H945 H 0.17395 0.03101 0.79336 0.0
H946 H 0.16356 0.04362 0.84902 0.0
H947 H 0.19498 0.03627 0.81576 0.0
H948 H 0.07209 0.0542 0.77457 0.0
H949 H 0.12707 0.07357 0.79241 0.0
H950 H 0.0911 0.0377 0.76853 0.0
H951 H 0.10746 0.08953 0.79789 0.0
H952 H 0.17995 0.09253 0.80598 0.0
H953 H 0.16787 0.09032 0.75488 0.0
H954 H 0.09505 1.00115 0.8324 0.0
H955 H 0.10181 0.05068 0.84027 0.0
H956 H 0.1376 0.01785 0.72995 0.0
H957 H 0.17351 0.03949 0.7669 0.0
H958 H 0.15742 0.01482 0.71163 0.0
H959 H 0.19271 0.03599 0.74799 0.0
H960 H 0.12058 0.98115 0.76875 0.0
H961 H 0.08972 0.0125 0.77727 0.0
H962 H 0.09835 0.9595 0.76535 0.0
H963 H 0.06801 0.99033 0.77363 0.0
H964 H 0.16867 0.97862 0.8025 0.0
H965 H 0.16405 0.97439 0.75072 0.0
H966 H 0.10553 0.04843 0.71136 0.0
H967 H 0.08367 1.00143 0.71364 0.0
Li968 Li 0.2702 0.92647 0.00101 0.0
Li969 Li 0.2812 0.90742 0.01619 0.0
Li970 Li 0.29753 0.92866 0.00559 0.0
Li971 Li 0.28269 0.90686 0.9876 0.0
C972 C 0.28769 0.94118 0.03419 0.0
N973 N 0.29735 0.96418 0.05921 0.0
C974 C 0.29007 0.93748 0.04985 0.0
C975 C 0.29018 0.95657 0.03126 0.0
C976 C 0.29494 0.94927 0.06234 0.0
C977 C 0.2951 0.96803 0.04407 0.0
C978 C 0.2528 0.89116 0.99702 0.0
C979 C 0.24449 0.86372 0.99181 0.0
N980 N 0.22978 0.86548 0.99323 0.0
C981 C 0.23761 0.89272 0.99836 0.0
C982 C 0.25629 0.87657 0.99368 0.0
C983 C 0.22613 0.87959 0.99644 0.0
C984 C 0.24586 0.9354 0.98416 0.0
N985 N 0.25443 0.93713 0.99859 0.0
C986 C 0.23918 0.9537 0.01 0.0
C987 C 0.25148 0.9461 0.01137 0.0
C988 C 0.22973 0.95172 0.99541 0.0
C989 C 0.2333 0.94268 0.98227 0.0
H990 H 0.2486 0.92806 0.97429 0.0
H991 H 0.25844 0.94705 0.02272 0.0
C992 C 0.29278 0.89385 0.04139 0.0
N993 N 0.27947 0.89547 0.03308 0.0
C994 C 0.29244 0.88512 0.05422 0.0
C995 C 0.26466 0.87995 0.04967 0.0
C996 C 0.26555 0.88887 0.03695 0.0
C997 C 0.27824 0.878 0.05845 0.0
H998 H 0.30364 0.89948 0.03809 0.0
H999 H 0.25517 0.89057 0.03024 0.0
C1000 C 0.28548 0.93917 0.9744 0.0
N1001 N 0.2873 0.96042 0.95247 0.0
C1002 C 0.28759 0.93478 0.95854 0.0
C1003 C 0.28426 0.95434 0.97911 0.0
C1004 C 0.2885 0.94571 0.94764 0.0
C1005 C 0.2852 0.96492 0.96783 0.0
C1006 C 0.30879 0.89646 0.0027 0.0
C1007 C 0.32382 0.90124 0.99924 0.0
C1008 C 0.30347 0.88097 0.00417 0.0
C1009 C 0.33325 0.89037 0.99712 0.0
C1010 C 0.31324 0.87046 0.00194 0.0
N1011 N 0.3278 0.87533 0.99849 0.0
C1012 C 0.32337 0.94738 0.02351 0.0
C1013 C 0.32179 0.94736 0.99529 0.0
C1014 C 0.33723 0.95772 0.02541 0.0
N1015 N 0.31594 0.94261 0.00863 0.0
C1016 C 0.33567 0.95755 0.99659 0.0
C1017 C 0.34359 0.96277 0.01181 0.0
H1018 H 0.3187 0.94296 0.03387 0.0
H1019 H 0.31594 0.94287 0.98359 0.0
C1020 C 0.26718 0.89147 0.9598 0.0
N1021 N 0.28127 0.89459 0.96835 0.0
C1022 C 0.26482 0.88225 0.94525 0.0
C1023 C 0.2917 0.88023 0.94836 0.0
C1024 C 0.29352 0.88947 0.96287 0.0
C1025 C 0.27715 0.87643 0.93949 0.0
H1026 H 0.2578 0.89615 0.96432 0.0
H1027 H 0.30468 0.89255 0.96971 0.0
O1028 O 0.28268 0.92975 0.02189 0.0
O1029 O 0.26408 0.90395 0.99865 0.0
O1030 O 0.28495 0.92865 0.98527 0.0
O1031 O 0.2995 0.90699 0.00499 0.0
H1032 H 0.28809 0.92562 0.05233 0.0
H1033 H 0.28838 0.95963 0.01922 0.0
H1034 H 0.29679 0.94658 0.07453 0.0
H1035 H 0.29712 0.97999 0.04197 0.0
H1036 H 0.24701 0.85235 0.98919 0.0
H1037 H 0.23473 0.90397 0.00086 0.0
H1038 H 0.26794 0.87519 0.99234 0.0
H1039 H 0.21432 0.88061 0.99747 0.0
H1040 H 0.23685 0.96074 0.02034 0.0
H1041 H 0.22614 0.94074 0.97091 0.0
H1042 H 0.30316 0.88415 0.0609 0.0
H1043 H 0.25351 0.87457 0.05251 0.0
H1044 H 0.28864 0.9231 0.95473 0.0
H1045 H 0.2826 0.9579 0.99131 0.0
H1046 H 0.2902 0.94249 0.93534 0.0
H1047 H 0.28428 0.9767 0.9713 0.0
H1048 H 0.32813 0.91322 0.99819 0.0
H1049 H 0.29197 0.87714 0.00713 0.0
H1050 H 0.3449 0.89389 0.99441 0.0
H1051 H 0.30927 0.85843 0.00302 0.0
H1052 H 0.34307 0.96143 0.03734 0.0
H1053 H 0.34045 0.96073 0.98577 0.0
H1054 H 0.25351 0.87976 0.93856 0.0
H1055 H 0.30146 0.87588 0.94425 0.0
Li1056 Li 0.2684 0.38833 0.02748 0.0
Li1057 Li 0.28026 0.36901 0.04164 0.0
Li1058 Li 0.2971 0.39041 0.02892 0.0
Li1059 Li 0.27958 0.36778 0.01155 0.0
C1060 C 0.28371 0.40294 0.05881 0.0
N1061 N 0.28329 0.42551 0.08344 0.0
C1062 C 0.27819 0.39899 0.07312 0.0
C1063 C 0.28914 0.41833 0.05705 0.0
C1064 C 0.27804 0.41058 0.08543 0.0
C1065 C 0.28879 0.42959 0.06964 0.0
C1066 C 0.25007 0.35388 0.02474 0.0
C1067 C 0.23903 0.3269 0.02022 0.0
N1068 N 0.22551 0.33013 0.0246 0.0
C1069 C 0.23606 0.35695 0.0291 0.0
C1070 C 0.25158 0.33877 0.02018 0.0
C1071 C 0.22378 0.34477 0.02899 0.0
C1072 C 0.24454 0.40185 0.01303 0.0
N1073 N 0.25161 0.3995 0.02734 0.0
C1074 C 0.23401 0.41186 0.04129 0.0
C1075 C 0.24652 0.40425 0.04133 0.0
C1076 C 0.22651 0.41453 0.02669 0.0
C1077 C 0.232 0.40941 0.01242 0.0
H1078 H 0.24856 0.39774 0.00202 0.0
H1079 H 0.25195 0.40189 0.05257 0.0
C1080 C 0.29221 0.35699 0.06952 0.0
N1081 N 0.27908 0.35763 0.06018 0.0
C1082 C 0.29161 0.34997 0.08373 0.0
C1083 C 0.264 0.34413 0.07835 0.0
C1084 C 0.26514 0.35135 0.06435 0.0
C1085 C 0.27733 0.3435 0.08844 0.0
H1086 H 0.30317 0.36226 0.06614 0.0
H1087 H 0.2548 0.35221 0.05703 0.0
C1088 C 0.28147 0.40128 -0.00031 0.0
N1089 N 0.28074 0.42349 0.979 0.0
C1090 C 0.28135 0.39743 0.98325 0.0
C1091 C 0.28121 0.41642 0.00564 0.0
C1092 C 0.281 0.40883 0.97298 0.0
C1093 C 0.28083 0.42748 0.99497 0.0
C1094 C 0.30616 0.35679 0.02772 0.0
C1095 C 0.32169 0.36054 0.02559 0.0
C1096 C 0.29971 0.34169 0.02969 0.0
C1097 C 0.33055 0.34904 0.02538 0.0
C1098 C 0.30896 0.33052 0.02942 0.0
N1099 N 0.32405 0.33439 0.02728 0.0
C1100 C 0.32731 0.40498 0.04336 0.0
C1101 C 0.32041 0.41154 0.0175 0.0
C1102 C 0.34194 0.41414 0.04395 0.0
N1103 N 0.31689 0.40382 0.03024 0.0
C1104 C 0.33476 0.42093 0.01766 0.0
C1105 C 0.3459 0.42227 0.03093 0.0
H1106 H 0.32434 0.39859 0.05328 0.0
H1107 H 0.31215 0.41031 0.00706 0.0
C1108 C 0.26416 0.35213 0.98176 0.0
N1109 N 0.27775 0.355 0.99132 0.0
C1110 C 0.26286 0.34404 0.96646 0.0
C1111 C 0.28945 0.34168 0.97122 0.0
C1112 C 0.29027 0.3499 0.98636 0.0
C1113 C 0.27567 0.33879 0.9609 0.0
H1114 H 0.25439 0.3564 0.98589 0.0
H1115 H 0.30104 0.35254 0.99397 0.0
O1116 O 0.28411 0.39173 0.04674 0.0
O1117 O 0.26219 0.36567 0.02481 0.0
O1118 O 0.28197 0.39025 0.00988 0.0
O1119 O 0.29739 0.36794 0.02805 0.0
H1120 H 0.27403 0.3871 0.07469 0.0
H1121 H 0.29362 0.42153 0.04611 0.0
H1122 H 0.27376 0.40771 0.09656 0.0
H1123 H 0.29293 0.44156 0.06845 0.0
H1124 H 0.24002 0.31514 0.01675 0.0
H1125 H 0.23471 0.36862 0.03261 0.0
H1126 H 0.26232 0.33624 0.01661 0.0
H1127 H 0.21287 0.34696 0.03239 0.0
H1128 H 0.23006 0.41529 0.05259 0.0
H1129 H 0.22673 0.4113 0.00087 0.0
H1130 H 0.30222 0.35005 0.09115 0.0
H1131 H 0.25273 0.33916 0.08123 0.0
H1132 H 0.28161 0.38576 0.97848 0.0
H1133 H 0.28127 0.41957 0.01834 0.0
H1134 H 0.28095 0.40602 0.96022 0.0
H1135 H 0.2806 0.43925 0.99938 0.0
H1136 H 0.32683 0.37221 0.02409 0.0
H1137 H 0.28774 0.33867 0.0315 0.0
H1138 H 0.34259 0.35176 0.02372 0.0
H1139 H 0.30414 0.31878 0.03094 0.0
H1140 H 0.35013 0.41456 0.05437 0.0
H1141 H 0.33703 0.42712 0.00743 0.0
H1142 H 0.25195 0.34199 0.95904 0.0
H1143 H 0.2997 0.33811 0.96743 0.0
Li1144 Li 0.76511 0.1363 0.04739 0.0
Li1145 Li 0.77799 0.11758 0.03351 0.0
Li1146 Li 0.76436 0.13533 0.01878 0.0
Li1147 Li 0.75031 0.1135 0.03037 0.0
C1148 C 0.79411 0.15262 0.03826 0.0
N1149 N 0.81759 0.17783 0.04533 0.0
C1150 C 0.80872 0.15079 0.04443 0.0
C1151 C 0.79149 0.16724 0.03549 0.0
C1152 C 0.82043 0.16369 0.04797 0.0
C1153 C 0.80349 0.17985 0.03922 0.0
C1154 C 0.7636 0.10362 0.06031 0.0
C1155 C 0.76049 0.077 0.06498 0.0
N1156 N 0.76212 0.08129 0.08104 0.0
C1157 C 0.76523 0.10778 0.07684 0.0
C1158 C 0.76123 0.08812 0.05429 0.0
C1159 C 0.76447 0.09632 0.08713 0.0
C1160 C 0.75357 0.15217 0.07201 0.0
N1161 N 0.76649 0.14866 0.06643 0.0
C1162 C 0.78215 0.16261 0.08927 0.0
C1163 C 0.78056 0.15339 0.0748 0.0
C1164 C 0.76906 0.16675 0.09514 0.0
C1165 C 0.75461 0.16139 0.08641 0.0
H1166 H 0.74249 0.14774 0.06531 0.0
H1167 H 0.7905 0.14979 0.07034 0.0
C1168 C 0.80035 0.10369 0.02126 0.0
N1169 N 0.79461 0.10799 0.03494 0.0
C1170 C 0.81303 0.09657 0.02199 0.0
C1171 C 0.81367 0.09873 0.0509 0.0
C1172 C 0.80088 0.1057 0.04959 0.0
C1173 C 0.81993 0.09419 0.03697 0.0
H1174 H 0.79512 0.1059 0.00984 0.0
H1175 H 0.79612 0.10955 0.06023 0.0
C1176 C 0.73752 0.14555 0.03172 0.0
N1177 N 0.71857 0.16704 0.03235 0.0
C1178 C 0.7216 0.14083 0.02875 0.0
C1179 C 0.7438 0.16118 0.03505 0.0
C1180 C 0.71222 0.15188 0.0291 0.0
C1181 C 0.73403 0.17187 0.03531 0.0
C1182 C 0.76165 0.10201 0.00082 0.0
C1183 C 0.75646 0.10527 0.98561 0.0
C1184 C 0.76415 0.08723 0.00305 0.0
C1185 C 0.75378 0.09362 0.97283 0.0
C1186 C 0.76129 0.07589 0.98998 0.0
N1187 N 0.75621 0.0793 0.97527 0.0
C1188 C 0.77906 0.15008 0.99604 0.0
C1189 C 0.75256 0.15138 0.995 0.0
C1190 C 0.78062 0.15841 0.98298 0.0
N1191 N 0.76522 0.1468 0.00169 0.0
C1192 C 0.7536 0.15978 0.98194 0.0
C1193 C 0.76775 0.16327 0.97574 0.0
H1194 H 0.78882 0.14605 0.00163 0.0
H1195 H 0.74168 0.14838 -0.00031 0.0
C1196 C 0.72581 0.09747 0.0424 0.0
N1197 N 0.73297 0.09827 0.02893 0.0
C1198 C 0.71279 0.08638 0.0427 0.0
C1199 C 0.71513 0.07687 0.01538 0.0
C1200 C 0.72789 0.08837 0.01552 0.0
C1201 C 0.70724 0.07594 0.029 0.0
H1202 H 0.73012 0.10566 0.05282 0.0
H1203 H 0.7335 0.08947 0.00482 0.0
O1204 O 0.78261 0.14006 0.03455 0.0
O1205 O 0.76422 0.11474 0.05013 0.0
O1206 O 0.74678 0.1348 0.03164 0.0
O1207 O 0.76428 0.11328 0.01344 0.0
H1208 H 0.81098 0.13954 0.04649 0.0
H1209 H 0.78039 0.16882 0.03034 0.0
H1210 H 0.83179 0.16244 0.05279 0.0
H1211 H 0.80161 0.19123 0.03717 0.0
H1212 H 0.7586 0.06495 0.06051 0.0
H1213 H 0.76706 0.11975 0.08166 0.0
H1214 H 0.75987 0.08473 0.04152 0.0
H1215 H 0.76573 0.09937 0.09996 0.0
H1216 H 0.79343 0.16624 0.0959 0.0
H1217 H 0.74427 0.16439 0.09061 0.0
H1218 H 0.81743 0.09304 0.01097 0.0
H1219 H 0.81883 0.09727 0.06267 0.0
H1220 H 0.71657 0.12875 0.02623 0.0
H1221 H 0.75605 0.16499 0.03765 0.0
H1222 H 0.69988 0.14839 0.02683 0.0
H1223 H 0.73874 0.18401 0.03794 0.0
H1224 H 0.75449 0.11666 0.98369 0.0
H1225 H 0.76817 0.08454 0.01476 0.0
H1226 H 0.74975 0.09596 0.96098 0.0
H1227 H 0.7631 0.06439 0.99153 0.0
H1228 H 0.79166 0.16073 0.97839 0.0
H1229 H 0.74346 0.1635 0.97674 0.0
H1230 H 0.70684 0.08642 0.05331 0.0
H1231 H 0.71128 0.06905 0.00458 0.0
Li1232 Li 0.18137 0.54378 0.25286 0.0
Li1233 Li 0.16103 0.52913 0.26606 0.0
Li1234 Li 0.17875 0.51622 0.25048 0.0
Li1235 Li 0.15867 0.52788 0.23732 0.0
C1236 C 0.19486 0.53492 0.28266 0.0
N1237 N 0.21772 0.54353 0.30795 0.0
C1238 C 0.19147 0.54121 0.29741 0.0
C1239 C 0.20985 0.53296 0.28077 0.0
C1240 C 0.2032 0.5455 0.31005 0.0
C1241 C 0.22126 0.5374 0.2937 0.0
C1242 C 0.1498 0.55598 0.25226 0.0
C1243 C 0.12395 0.56077 0.24826 0.0
N1244 N 0.12951 0.57614 0.25065 0.0
C1245 C 0.15526 0.57182 0.25464 0.0
C1246 C 0.13402 0.55039 0.24902 0.0
C1247 C 0.14482 0.58183 0.25381 0.0
C1248 C 0.19474 0.56842 0.23897 0.0
N1249 N 0.19507 0.56205 0.25298 0.0
C1250 C 0.21368 0.58314 0.26585 0.0
C1251 C 0.20426 0.56903 0.2663 0.0
C1252 C 0.2134 0.59011 0.25162 0.0
C1253 C 0.20394 0.58254 0.23798 0.0
H1254 H 0.18703 0.56266 0.2287 0.0
H1255 H 0.20396 0.56398 0.2774 0.0
C1256 C 0.14888 0.5149 0.29052 0.0
N1257 N 0.15021 0.52819 0.28364 0.0
C1258 C 0.14046 0.51307 0.30349 0.0
C1259 C 0.13498 0.53867 0.3019 0.0
C1260 C 0.14364 0.54005 0.28905 0.0
C1261 C 0.13334 0.52503 0.3092 0.0
H1262 H 0.15429 0.50572 0.2858 0.0
H1263 H 0.14511 0.55054 0.28342 0.0
C1264 C 0.19113 0.53126 0.22324 0.0
N1265 N 0.21355 0.53486 0.20268 0.0
C1266 C 0.18705 0.53132 0.20685 0.0
C1267 C 0.20658 0.53304 0.2292 0.0
C1268 C 0.19857 0.53315 0.19665 0.0
C1269 C 0.21776 0.53485 0.2186 0.0
C1270 C 0.14335 0.49949 0.24781 0.0
C1271 C 0.14419 0.48454 0.24175 0.0
C1272 C 0.12921 0.50306 0.25112 0.0
C1273 C 0.13078 0.47342 0.23886 0.0
C1274 C 0.11605 0.49162 0.24804 0.0
N1275 N 0.1171 0.47717 0.24201 0.0
C1276 C 0.19513 0.49554 0.26239 0.0
C1277 C 0.19161 0.49427 0.234 0.0
C1278 C 0.2039 0.48411 0.26153 0.0
N1279 N 0.1894 0.50041 0.24874 0.0
C1280 C 0.20029 0.48276 0.23256 0.0
C1281 C 0.20662 0.47769 0.24647 0.0
H1282 H 0.19289 0.50058 0.27389 0.0
H1283 H 0.18668 0.49838 0.22341 0.0
C1284 C 0.14353 0.53964 0.21288 0.0
N1285 N 0.14555 0.5264 0.21884 0.0
C1286 C 0.13389 0.53911 0.19887 0.0
C1287 C 0.12924 0.51131 0.19711 0.0
C1288 C 0.13896 0.51239 0.21116 0.0
C1289 C 0.12657 0.5248 0.19094 0.0
H1290 H 0.14953 0.55057 0.21894 0.0
H1291 H 0.14138 0.50209 0.21582 0.0
O1292 O 0.18346 0.53041 0.27027 0.0
O1293 O 0.15993 0.54608 0.25293 0.0
O1294 O 0.17995 0.5295 0.23332 0.0
O1295 O 0.15639 0.51048 0.25058 0.0
H1296 H 0.17991 0.54276 0.29908 0.0
H1297 H 0.21264 0.52802 0.26947 0.0
H1298 H 0.20075 0.55038 0.32154 0.0
H1299 H 0.23291 0.53596 0.29241 0.0
H1300 H 0.11172 0.5566 0.2457 0.0
H1301 H 0.16745 0.57633 0.25714 0.0
H1302 H 0.12961 0.53819 0.24692 0.0
H1303 H 0.14889 0.59412 0.25565 0.0
H1304 H 0.22055 0.58886 0.27672 0.0
H1305 H 0.2034 0.58766 0.22684 0.0
H1306 H 0.13932 0.50239 0.30886 0.0
H1307 H 0.12979 0.54819 0.30621 0.0
H1308 H 0.17512 0.52996 0.20209 0.0
H1309 H 0.20989 0.53306 0.24185 0.0
H1310 H 0.19559 0.5332 0.18393 0.0
H1311 H 0.22977 0.53625 0.22303 0.0
H1312 H 0.15509 0.4816 0.23922 0.0
H1313 H 0.12841 0.51448 0.25611 0.0
H1314 H 0.13124 0.46181 0.2341 0.0
H1315 H 0.10502 0.49423 0.25048 0.0
H1316 H 0.20827 0.48015 0.2725 0.0
H1317 H 0.2021 0.47794 0.22078 0.0
H1318 H 0.13236 0.54973 0.19416 0.0
H1319 H 0.12381 0.50008 0.19119 0.0
Li1320 Li 0.76812 0.88852 0.52835 0.0
Li1321 Li 0.77998 0.86907 0.54219 0.0
Li1322 Li 0.7967 0.89047 0.52964 0.0
Li1323 Li 0.77962 0.86811 0.51225 0.0
C1324 C 0.7828 0.90281 0.55962 0.0
N1325 N 0.78121 0.92502 0.58423 0.0
C1326 C 0.77769 0.89854 0.574 0.0
C1327 C 0.78717 0.91836 0.55776 0.0
C1328 C 0.77695 0.90995 0.5863 0.0
C1329 C 0.78626 0.92942 0.57034 0.0
C1330 C 0.74995 0.85398 0.52582 0.0
C1331 C 0.73899 0.82697 0.52219 0.0
N1332 N 0.72559 0.83028 0.52682 0.0
C1333 C 0.73606 0.85714 0.53047 0.0
C1334 C 0.75144 0.8388 0.52157 0.0
C1335 C 0.72388 0.84499 0.53093 0.0
C1336 C 0.74504 0.90304 0.51404 0.0
N1337 N 0.75146 0.89985 0.5283 0.0
C1338 C 0.73366 0.91197 0.54219 0.0
C1339 C 0.74593 0.90403 0.54223 0.0
C1340 C 0.72681 0.91553 0.52765 0.0
C1341 C 0.73269 0.91088 0.51343 0.0
H1342 H 0.74941 0.89936 0.50308 0.0
H1343 H 0.75093 0.90109 0.55341 0.0
C1344 C 0.79235 0.85685 0.5695 0.0
N1345 N 0.77902 0.85751 0.56052 0.0
C1346 C 0.7921 0.84966 0.5836 0.0
C1347 C 0.76445 0.84369 0.57884 0.0
C1348 C 0.76522 0.85112 0.56495 0.0
C1349 C 0.778 0.84301 0.58851 0.0
H1350 H 0.80318 0.86216 0.56587 0.0
H1351 H 0.75473 0.85211 0.55799 0.0
C1352 C 0.78385 0.90201 0.50107 0.0
N1353 N 0.78761 0.92505 0.48122 0.0
C1354 C 0.78623 0.89861 0.4851 0.0
C1355 C 0.78335 0.9171 0.50695 0.0
C1356 C 0.78811 0.91043 0.47525 0.0
C1357 C 0.7853 0.92859 0.49672 0.0
C1358 C 0.80575 0.85684 0.5274 0.0
C1359 C 0.82114 0.86048 0.52467 0.0
C1360 C 0.79927 0.84169 0.52915 0.0
C1361 C 0.82981 0.84885 0.52364 0.0
C1362 C 0.80832 0.83038 0.52803 0.0
N1363 N 0.82327 0.83416 0.52533 0.0
C1364 C 0.82357 0.91175 0.54475 0.0
C1365 C 0.82337 0.90421 0.51706 0.0
C1366 C 0.83824 0.92078 0.54529 0.0
N1367 N 0.81645 0.90372 0.53076 0.0
C1368 C 0.83806 0.91295 0.5171 0.0
C1369 C 0.84576 0.92137 0.53135 0.0
H1370 H 0.81797 0.91099 0.55555 0.0
H1371 H 0.81754 0.89761 0.50612 0.0
C1372 C 0.76477 0.84874 0.48377 0.0
N1373 N 0.7785 0.85576 0.49193 0.0
C1374 C 0.76416 0.84089 0.46844 0.0
C1375 C 0.79178 0.84762 0.47019 0.0
C1376 C 0.79186 0.85524 0.48548 0.0
C1377 C 0.77778 0.84041 0.46133 0.0
H1378 H 0.75426 0.84952 0.489 0.0
H1379 H 0.80262 0.86108 0.49209 0.0
O1380 O 0.78383 0.89179 0.54758 0.0
O1381 O 0.76194 0.86575 0.52525 0.0
O1382 O 0.78154 0.8905 0.51071 0.0
O1383 O 0.79723 0.86815 0.5288 0.0
H1384 H 0.77433 0.88655 0.57565 0.0
H1385 H 0.79133 0.92184 0.54678 0.0
H1386 H 0.77301 0.90682 0.5975 0.0
H1387 H 0.78962 0.94149 0.56909 0.0
H1388 H 0.73997 0.81516 0.51895 0.0
H1389 H 0.73473 0.86885 0.53373 0.0
H1390 H 0.76205 0.8362 0.51776 0.0
H1391 H 0.71308 0.84725 0.53454 0.0
H1392 H 0.72969 0.91536 0.55349 0.0
H1393 H 0.72764 0.913 0.50188 0.0
H1394 H 0.80285 0.84935 0.5906 0.0
H1395 H 0.75331 0.83898 0.58225 0.0
H1396 H 0.78652 0.88696 0.48034 0.0
H1397 H 0.78131 0.91985 0.51922 0.0
H1398 H 0.78992 0.90796 0.46285 0.0
H1399 H 0.7849 0.94032 0.50109 0.0
H1400 H 0.82634 0.87219 0.52342 0.0
H1401 H 0.78744 0.83875 0.53151 0.0
H1402 H 0.84174 0.8515 0.52156 0.0
H1403 H 0.80347 0.8186 0.52938 0.0
H1404 H 0.84379 0.92694 0.55659 0.0
H1405 H 0.84331 0.91317 0.50603 0.0
H1406 H 0.75309 0.83569 0.46203 0.0
H1407 H 0.80258 0.84744 0.46532 0.0
Li1408 Li 0.92704 0.01502 0.2717 0.0
Li1409 Li 0.90465 0.9976 0.25474 0.0
Li1410 Li 0.92581 0.01447 0.24186 0.0
Li1411 Li 0.90645 0.02613 0.25587 0.0
C1412 C 0.93835 0.98877 0.25701 0.0
N1413 N 0.96102 0.97132 0.25987 0.0
C1414 C 0.93472 0.97357 0.26041 0.0
C1415 C 0.95346 0.99509 0.25498 0.0
C1416 C 0.94636 0.96494 0.26183 0.0
C1417 C 0.96477 0.98608 0.25651 0.0
C1418 C 0.89351 0.01123 0.28358 0.0
C1419 C 0.86695 0.00919 0.28817 0.0
N1420 N 0.87093 0.00842 0.30399 0.0
C1421 C 0.89735 0.01045 0.29987 0.0
C1422 C 0.87821 0.01062 0.27765 0.0
C1423 C 0.88576 0.00902 0.31001 0.0
C1424 C 0.94548 0.03055 0.30022 0.0
N1425 N 0.93951 0.01661 0.29189 0.0
C1426 C 0.94883 0.00382 0.31346 0.0
C1427 C 0.94109 0.00338 0.29818 0.0
C1428 C 0.95493 0.01802 0.32253 0.0
C1429 C 0.95332 0.03152 0.31559 0.0
H1430 H 0.94382 0.04092 0.29511 0.0
H1431 H 0.936 0.99244 0.29148 0.0
C1432 C 0.88496 0.96988 0.23961 0.0
N1433 N 0.89127 0.97795 0.25387 0.0
C1434 C 0.87554 0.95542 0.23918 0.0
C1435 C 0.87926 0.95786 0.26807 0.0
C1436 C 0.88865 0.9722 0.26794 0.0
C1437 C 0.87254 0.9492 0.25355 0.0
H1438 H 0.8873 0.97464 0.22857 0.0
H1439 H 0.894 0.97869 0.27912 0.0
C1440 C 0.94098 0.04449 0.25822 0.0
N1441 N 0.96491 0.06874 0.25767 0.0
C1442 C 0.93799 0.0586 0.25404 0.0
C1443 C 0.9561 0.04273 0.26225 0.0
C1444 C 0.95026 0.07071 0.25379 0.0
C1445 C 0.96805 0.05513 0.26186 0.0
C1446 C 0.89187 0.01143 0.22486 0.0
C1447 C 0.89588 0.01723 0.21068 0.0
C1448 C 0.87643 0.0064 0.22668 0.0
C1449 C 0.8843 0.01808 0.19862 0.0
C1450 C 0.86519 0.00744 0.21433 0.0
N1451 N 0.86933 0.01322 0.20068 0.0
C1452 C 0.93992 0.00298 0.21523 0.0
C1453 C 0.94151 0.02993 0.21838 0.0
C1454 C 0.9471 0.00383 0.20116 0.0
N1455 N 0.93721 0.01593 0.2235 0.0
C1456 C 0.9488 0.03133 0.20447 0.0
C1457 C 0.95154 0.01816 0.19546 0.0
H1458 H 0.93618 0.99193 0.21937 0.0
H1459 H 0.93896 0.04005 0.22486 0.0
C1460 C 0.8914 0.0489 0.27002 0.0
N1461 N 0.89516 0.04271 0.25591 0.0
C1462 C 0.88381 0.06142 0.27045 0.0
C1463 C 0.88411 0.06104 0.24184 0.0
C1464 C 0.89177 0.0486 0.24198 0.0
C1465 C 0.88006 0.06769 0.25622 0.0
H1466 H 0.89446 0.04423 0.281 0.0
H1467 H 0.8953 0.04387 0.23099 0.0
O1468 O 0.92703 0.99725 0.25524 0.0
O1469 O 0.90476 0.01282 0.27357 0.0
O1470 O 0.92909 0.03256 0.25862 0.0
O1471 O 0.90307 0.01033 0.23669 0.0
H1472 H 0.92304 0.96851 0.26189 0.0
H1473 H 0.95638 0.00676 0.25209 0.0
H1474 H 0.94373 0.95315 0.26445 0.0
H1475 H 0.97653 0.99081 0.25496 0.0
H1476 H 0.85505 0.00872 0.28376 0.0
H1477 H 0.90917 0.01097 0.30465 0.0
H1478 H 0.87509 0.01137 0.2651 0.0
H1479 H 0.88856 0.00841 0.32265 0.0
H1480 H 0.94992 0.99309 0.31816 0.0
H1481 H 0.95763 0.04273 0.32216 0.0
H1482 H 0.87055 0.94926 0.2277 0.0
H1483 H 0.87754 0.95347 0.27944 0.0
H1484 H 0.92633 0.06015 0.25097 0.0
H1485 H 0.95858 0.03196 0.26575 0.0
H1486 H 0.94813 0.08169 0.25053 0.0
H1487 H 0.97983 0.05394 0.26494 0.0
H1488 H 0.90779 0.02107 0.20904 0.0
H1489 H 0.87316 1.00165 0.23747 0.0
H1490 H 0.88723 0.02259 0.18761 0.0
H1491 H 0.85318 0.00361 0.21558 0.0
H1492 H 0.94872 0.99331 0.19457 0.0
H1493 H 0.95216 0.04265 0.20077 0.0
H1494 H 0.88085 0.06609 0.28181 0.0
H1495 H 0.88174 0.06566 0.23064 0.0
Li1496 Li 0.2672 0.63659 0.54848 0.0
Li1497 Li 0.27922 0.61841 0.53289 0.0
Li1498 Li 0.26483 0.63629 0.51996 0.0
Li1499 Li 0.25205 0.61428 0.53201 0.0
C1500 C 0.29519 0.65294 0.54127 0.0
N1501 N 0.31834 0.6771 0.55403 0.0
C1502 C 0.30934 0.6501 0.54769 0.0
C1503 C 0.29287 0.66806 0.5412 0.0
C1504 C 0.32088 0.66247 0.55413 0.0
C1505 C 0.30469 0.68012 0.54775 0.0
C1506 C 0.2622 0.60414 0.56049 0.0
C1507 C 0.25655 0.5777 0.5658 0.0
N1508 N 0.25277 0.58231 0.58049 0.0
C1509 C 0.25824 0.60863 0.57563 0.0
C1510 C 0.2614 0.58857 0.55554 0.0
C1511 C 0.25352 0.59741 0.58557 0.0
C1512 C 0.25655 0.65424 0.57206 0.0
N1513 N 0.26899 0.64871 0.56765 0.0
C1514 C 0.28424 0.66074 0.59155 0.0
C1515 C 0.28255 0.65139 0.57716 0.0
C1516 C 0.27173 0.66705 0.59616 0.0
C1517 C 0.25769 0.66359 0.58637 0.0
H1518 H 0.24578 0.65137 0.56447 0.0
H1519 H 0.29198 0.64622 0.57356 0.0
C1520 C 0.30285 0.60731 0.51951 0.0
N1521 N 0.29563 0.60876 0.53286 0.0
C1522 C 0.31528 0.59984 0.51967 0.0
C1523 C 0.31248 0.59571 0.54735 0.0
C1524 C 0.30011 0.60324 0.54663 0.0
C1525 C 0.32021 0.59405 0.53378 0.0
H1526 H 0.29891 0.61197 0.50881 0.0
H1527 H 0.2942 0.60489 0.55709 0.0
C1528 C 0.23869 0.6454 0.53071 0.0
N1529 N 0.21904 0.66544 0.52433 0.0
C1530 C 0.22335 0.63973 0.52485 0.0
C1531 C 0.24405 0.66125 0.53334 0.0
C1532 C 0.21358 0.65005 0.52171 0.0
C1533 C 0.23394 0.6712 0.53001 0.0
C1534 C 0.26436 0.60323 0.50149 0.0
C1535 C 0.2611 0.6061 0.48566 0.0
C1536 C 0.26761 0.58894 0.50469 0.0
C1537 C 0.26107 0.59455 0.47325 0.0
C1538 C 0.26751 0.5777 0.49195 0.0
N1539 N 0.26425 0.58071 0.47662 0.0
C1540 C 0.27884 0.65586 0.50055 0.0
C1541 C 0.25181 0.64951 0.49399 0.0
C1542 C 0.28022 0.66524 0.48833 0.0
N1543 N 0.26481 0.6484 0.50322 0.0
C1544 C 0.25267 0.65865 0.48146 0.0
C1545 C 0.26705 0.66664 0.47852 0.0
H1546 H 0.289 0.65444 0.50786 0.0
H1547 H 0.24086 0.64313 0.49623 0.0
C1548 C 0.22601 0.60004 0.54332 0.0
N1549 N 0.23461 0.59938 0.53091 0.0
C1550 C 0.21216 0.5899 0.54275 0.0
C1551 C 0.21665 0.57839 0.51686 0.0
C1552 C 0.23036 0.58878 0.51792 0.0
C1553 C 0.20723 0.57918 0.5292 0.0
H1554 H 0.22969 0.6088 0.55336 0.0
H1555 H 0.23725 0.58869 0.50811 0.0
O1556 O 0.28393 0.64098 0.53449 0.0
O1557 O 0.26743 0.61501 0.55087 0.0
O1558 O 0.24825 0.63544 0.53433 0.0
O1559 O 0.26409 0.61436 0.51373 0.0
H1560 H 0.31138 0.63846 0.5477 0.0
H1561 H 0.28212 0.67048 0.53598 0.0
H1562 H 0.33188 0.66044 0.55917 0.0
H1563 H 0.30305 0.69188 0.54776 0.0
H1564 H 0.25586 0.5656 0.56212 0.0
H1565 H 0.25894 0.62064 0.57972 0.0
H1566 H 0.26454 0.58492 0.54391 0.0
H1567 H 0.2505 0.60072 0.59735 0.0
H1568 H 0.29513 0.66295 0.59903 0.0
H1569 H 0.24781 0.66827 0.58961 0.0
H1570 H 0.32101 0.59864 0.50897 0.0
H1571 H 0.3162 0.59161 0.55848 0.0
H1572 H 0.21901 0.62747 0.52287 0.0
H1573 H 0.25583 0.6658 0.53806 0.0
H1574 H 0.20166 0.64583 0.51723 0.0
H1575 H 0.23793 0.6835 0.53202 0.0
H1576 H 0.25851 0.6171 0.48299 0.0
H1577 H 0.27011 0.58651 0.51687 0.0
H1578 H 0.25849 0.59658 0.46093 0.0
H1579 H 0.26998 0.56657 0.49424 0.0
H1580 H 0.2915 0.67129 0.48658 0.0
H1581 H 0.24226 0.65918 0.47395 0.0
H1582 H 0.20502 0.59101 0.55236 0.0
H1583 H 0.21316 0.57023 0.50625 0.0
Li1584 Li 0.40524 0.49831 0.75594 0.0
Li1585 Li 0.42788 0.51574 0.77338 0.0
Li1586 Li 0.40754 0.52688 0.75697 0.0
Li1587 Li 0.42673 0.51463 0.74326 0.0
C1588 C 0.3941 0.51338 0.78469 0.0
N1589 N 0.37129 0.51262 0.80479 0.0
C1590 C 0.39757 0.51272 0.80107 0.0
C1591 C 0.37905 0.51366 0.7785 0.0
C1592 C 0.38586 0.51233 0.81104 0.0
C1593 C 0.36767 0.51329 0.78888 0.0
C1594 C 0.43869 0.48892 0.75664 0.0
C1595 C 0.46499 0.48645 0.75473 0.0
N1596 N 0.46107 0.47107 0.75553 0.0
C1597 C 0.43488 0.47311 0.75739 0.0
C1598 C 0.45383 0.49568 0.75528 0.0
C1599 C 0.44637 0.46428 0.75684 0.0
C1600 C 0.38952 0.46903 0.74073 0.0
N1601 N 0.3916 0.47876 0.75451 0.0
C1602 C 0.37491 0.46041 0.76695 0.0
C1603 C 0.38459 0.47467 0.76752 0.0
C1604 C 0.37256 0.45008 0.75293 0.0
C1605 C 0.38006 0.45453 0.7397 0.0
H1606 H 0.39532 0.47249 0.73059 0.0
H1607 H 0.38668 0.48234 0.77849 0.0
C1608 C 0.44162 0.53072 0.80397 0.0
N1609 N 0.44034 0.51767 0.79377 0.0
C1610 C 0.44937 0.53197 0.81941 0.0
C1611 C 0.45468 0.50649 0.81351 0.0
C1612 C 0.44674 0.50568 0.79823 0.0
C1613 C 0.45595 0.51969 0.82446 0.0
H1614 H 0.43632 0.54006 0.80021 0.0
H1615 H 0.44535 0.4953 0.7901 0.0
C1616 C 0.39291 0.51146 0.72588 0.0
N1617 N 0.37033 0.512 0.7013 0.0
C1618 C 0.39685 0.51704 0.71159 0.0
C1619 C 0.37752 0.50602 0.72764 0.0
C1620 C 0.38525 0.51725 0.69931 0.0
C1621 C 0.36626 0.50643 0.71508 0.0
C1622 C 0.44169 0.54527 0.75975 0.0
C1623 C 0.43846 0.55851 0.75353 0.0
C1624 C 0.45667 0.54476 0.76598 0.0
C1625 C 0.45035 0.57105 0.75353 0.0
C1626 C 0.46824 0.55754 0.76577 0.0
N1627 N 0.46487 0.5703 0.7596 0.0
C1628 C 0.39331 0.55032 0.77091 0.0
C1629 C 0.39212 0.54878 0.74266 0.0
C1630 C 0.38536 0.56256 0.77124 0.0
N1631 N 0.39638 0.54357 0.75674 0.0
C1632 C 0.38415 0.561 0.74243 0.0
C1633 C 0.38059 0.56805 0.75685 0.0
H1634 H 0.39714 0.54626 0.782 0.0
H1635 H 0.39502 0.54356 0.73157 0.0
C1636 C 0.43506 0.50245 0.71371 0.0
N1637 N 0.43803 0.5151 0.72468 0.0
C1638 C 0.44175 0.50256 0.69931 0.0
C1639 C 0.45466 0.52862 0.7078 0.0
C1640 C 0.44771 0.52802 0.72199 0.0
C1641 C 0.45163 0.51584 0.69609 0.0
H1642 H 0.42723 0.49235 0.71601 0.0
H1643 H 0.44981 0.53806 0.73063 0.0
O1644 O 0.40543 0.51368 0.77479 0.0
O1645 O 0.42757 0.49769 0.75722 0.0
O1646 O 0.40412 0.51099 0.73793 0.0
O1647 O 0.43021 0.53292 0.75985 0.0
H1648 H 0.40917 0.51244 0.80601 0.0
H1649 H 0.37622 0.51423 0.76586 0.0
H1650 H 0.38837 0.51178 0.82374 0.0
H1651 H 0.35597 0.51353 0.78428 0.0
H1652 H 0.47677 0.4915 0.75367 0.0
H1653 H 0.42318 0.46774 0.75845 0.0
H1654 H 0.45691 0.50791 0.75464 0.0
H1655 H 0.44362 0.45203 0.75746 0.0
H1656 H 0.3696 0.45737 0.77753 0.0
H1657 H 0.37856 0.44694 0.72865 0.0
H1658 H 0.45014 0.54243 0.82735 0.0
H1659 H 0.45932 0.49663 0.81688 0.0
H1660 H 0.40873 0.52122 0.71004 0.0
H1661 H 0.37432 0.50147 0.73855 0.0
H1662 H 0.38812 0.52159 0.6882 0.0
H1663 H 0.35429 0.50229 0.71626 0.0
H1664 H 0.4269 0.55907 0.74869 0.0
H1665 H 0.45931 0.53459 0.7709 0.0
H1666 H 0.44804 0.58136 0.74871 0.0
H1667 H 0.4799 0.55731 0.77052 0.0
H1668 H 0.3832 0.56782 0.78269 0.0
H1669 H 0.38069 0.56477 0.73104 0.0
H1670 H 0.43917 0.49233 0.69079 0.0
H1671 H 0.46197 0.53921 0.70584 0.0
Li1672 Li 0.66069 0.02987 0.76677 0.0
Li1673 Li 0.68124 0.04412 0.7539 0.0
Li1674 Li 0.6587 0.02788 0.73825 0.0
Li1675 Li 0.67853 0.01652 0.75176 0.0
C1676 C 0.64987 0.05639 0.75525 0.0
N1677 N 0.62993 0.07676 0.75847 0.0
C1678 C 0.65558 0.07213 0.75881 0.0
C1679 C 0.63402 0.05101 0.75333 0.0
C1680 C 0.64531 0.08224 0.76039 0.0
C1681 C 0.62413 0.06149 0.75502 0.0
C1682 C 0.6949 0.03578 0.78348 0.0
C1683 C 0.72176 0.03947 0.79324 0.0
N1684 N 0.71863 0.0453 0.80778 0.0
C1685 C 0.69193 0.04174 0.79854 0.0
C1686 C 0.70992 0.03458 0.7808 0.0
C1687 C 0.70409 0.04652 0.81066 0.0
C1688 C 0.64319 0.01598 0.78833 0.0
N1689 N 0.64955 0.02982 0.78411 0.0
C1690 C 0.63972 0.04309 0.80538 0.0
C1691 C 0.64801 0.04326 0.79223 0.0
C1692 C 0.63309 0.02894 0.8101 0.0
C1693 C 0.63477 0.01525 0.80138 0.0
H1694 H 0.64481 0.00552 0.78165 0.0
H1695 H 0.65339 0.05407 0.7886 0.0
C1696 C 0.69611 0.06827 0.73992 0.0
N1697 N 0.69494 0.06239 0.75414 0.0
C1698 C 0.70561 0.08231 0.73927 0.0
C1699 C 0.71238 0.0839 0.76793 0.0
C1700 C 0.70268 0.06991 0.76802 0.0
C1701 C 0.7138 0.09026 0.75344 0.0
H1702 H 0.68938 0.0622 0.72917 0.0
H1703 H 0.701 0.06536 0.77924 0.0
C1704 C 0.64349 0.99976 0.74612 0.0
N1705 N 0.61818 0.97738 0.73471 0.0
C1706 C 0.64542 0.98548 0.73906 0.0
C1707 C 0.6287 1.00257 0.74761 0.0
C1708 C 0.63248 0.97434 0.73331 0.0
C1709 C 0.61605 0.99114 0.7417 0.0
C1710 C 0.69085 0.03079 0.72405 0.0
C1711 C 0.6863 0.03022 0.70768 0.0
C1712 C 0.70644 0.03284 0.72957 0.0
C1713 C 0.69746 0.03168 0.69705 0.0
C1714 C 0.71725 0.03428 0.71856 0.0
N1715 N 0.71258 0.03367 0.70267 0.0
C1716 C 0.64104 0.03878 0.71515 0.0
C1717 C 0.6429 0.0125 0.71006 0.0
C1718 C 0.63195 0.038 0.70077 0.0
N1719 N 0.646 0.02606 0.71957 0.0
C1720 C 0.63384 0.01117 0.69553 0.0
C1721 C 0.62828 0.02405 0.69084 0.0
H1722 H 0.64437 0.04959 0.72264 0.0
H1723 H 0.64777 1.00286 0.71357 0.0
C1724 C 0.69661 0.99657 0.76303 0.0
N1725 N 0.68909 1.00065 0.74986 0.0
C1726 C 0.70487 0.98475 0.76142 0.0
C1727 C 0.69699 0.9814 0.73282 0.0
C1728 C 0.68911 0.99347 0.73495 0.0
C1729 C 0.705 0.97708 0.74618 0.0
H1730 H 0.69609 1.00241 0.77472 0.0
H1731 H 0.68284 0.99703 0.72479 0.0
O1732 O 0.6598 0.04645 0.75306 0.0
O1733 O 0.68309 0.03094 0.77154 0.0
O1734 O 0.65605 0.01073 0.75193 0.0
O1735 O 0.68004 0.02963 0.73459 0.0
H1736 H 0.66783 0.07649 0.7602 0.0
H1737 H 0.62941 0.03893 0.75031 0.0
H1738 H 0.64957 0.09446 0.76308 0.0
H1739 H 0.61183 0.05749 0.75349 0.0
H1740 H 0.73345 0.03861 0.79133 0.0
H1741 H 0.68036 0.04269 0.80084 0.0
H1742 H 0.71241 0.02985 0.76929 0.0
H1743 H 0.70196 0.05118 0.82237 0.0
H1744 H 0.63852 0.05386 0.81181 0.0
H1745 H 0.62996 0.00415 0.80484 0.0
H1746 H 0.70633 0.08703 0.72792 0.0
H1747 H 0.71816 0.09 0.77916 0.0
H1748 H 0.65679 0.98303 0.738 0.0
H1749 H 0.627 0.01339 0.7534 0.0
H1750 H 0.6338 0.96326 0.72775 0.0
H1751 H 0.60453 0.99318 0.74272 0.0
H1752 H 0.67427 0.02872 0.70323 0.0
H1753 H 0.71014 0.03343 0.7422 0.0
H1754 H 0.6941 0.03126 0.68434 0.0
H1755 H 0.72936 0.03591 0.72266 0.0
H1756 H 0.62784 0.04816 0.69745 0.0
H1757 H 0.63149 1.00034 0.68792 0.0
H1758 H 0.71074 0.98135 0.77196 0.0
H1759 H 0.69682 0.97547 0.72097 0.0
Li1760 Li 0.76802 0.6742 0.02221 0.0
Li1761 Li 0.77898 0.65343 0.00689 0.0
Li1762 Li 0.76672 0.67271 0.99232 0.0
Li1763 Li 0.75022 0.65165 0.00455 0.0
C1764 C 0.79711 0.68823 0.00983 0.0
N1765 N 0.82139 0.71264 0.0122 0.0
C1766 C 0.81208 0.68606 0.01398 0.0
C1767 C 0.79447 0.70277 0.0068 0.0
C1768 C 0.8242 0.69855 0.01514 0.0
C1769 C 0.8069 0.71498 0.00809 0.0
C1770 C 0.76549 0.64085 0.03424 0.0
C1771 C 0.76084 0.61444 0.03971 0.0
N1772 N 0.76704 0.61894 0.05513 0.0
C1773 C 0.77179 0.64524 0.05013 0.0
C1774 C 0.75994 0.62536 0.02895 0.0
C1775 C 0.77249 0.63398 0.06051 0.0
C1776 C 0.75796 0.68268 0.0515 0.0
N1777 N 0.76955 0.68663 0.04241 0.0
C1778 C 0.78234 0.70616 0.06314 0.0
C1779 C 0.7816 0.69818 0.04787 0.0
C1780 C 0.77067 0.70208 0.07295 0.0
C1781 C 0.7583 0.69023 0.06685 0.0
H1782 H 0.74853 0.67343 0.04688 0.0
H1783 H 0.79078 0.70105 0.04054 0.0
C1784 C 0.80248 0.64064 0.99326 0.0
N1785 N 0.79562 0.64216 0.00692 0.0
C1786 C 0.81491 0.63296 0.99273 0.0
C1787 C 0.81302 0.62852 0.02032 0.0
C1788 C 0.80072 0.63638 0.02036 0.0
C1789 C 0.82033 0.62672 0.00638 0.0
H1790 H 0.79832 0.64547 0.98277 0.0
H1791 H 0.79542 0.63802 0.03121 0.0
C1792 C 0.74122 0.68506 0.00419 0.0
N1793 N 0.72345 0.70714 -0.00024 0.0
C1794 C 0.72613 0.68081 0.99686 0.0
C1795 C 0.74724 0.70048 0.00939 0.0
C1796 C 0.71734 0.69217 0.9947 0.0
C1797 C 0.73808 0.71149 0.007 0.0
C1798 C 0.76164 0.63879 0.97486 0.0
C1799 C 0.75713 0.64201 0.95943 0.0
C1800 C 0.76407 0.62406 0.97737 0.0
C1801 C 0.75508 0.63037 0.9467 0.0
C1802 C 0.76189 0.61273 0.96432 0.0
N1803 N 0.75749 0.6161 0.94939 0.0
C1804 C 0.78179 0.68534 0.96732 0.0
C1805 C 0.75618 0.68935 0.96694 0.0
C1806 C 0.78352 0.69239 0.95328 0.0
N1807 N 0.76828 0.68392 0.97384 0.0
C1808 C 0.75742 0.69655 0.95292 0.0
C1809 C 0.77119 0.69803 0.94578 0.0
H1810 H 0.7912 0.68078 0.97292 0.0
H1811 H 0.74542 0.68782 0.97206 0.0
C1812 C 0.72171 0.6413 0.01531 0.0
N1813 N 0.73041 0.63841 0.00337 0.0
C1814 C 0.70714 0.63238 0.01554 0.0
C1815 C 0.71066 0.61758 0.99117 0.0
C1816 C 0.72517 0.62683 0.99138 0.0
C1817 C 0.70138 0.62029 0.00336 0.0
H1818 H 0.72613 0.65056 0.02471 0.0
H1819 H 0.73218 0.62476 0.98193 0.0
O1820 O 0.78516 0.67607 0.00848 0.0
O1821 O 0.76474 0.65172 0.02394 0.0
O1822 O 0.74993 0.67409 0.00645 0.0
O1823 O 0.76398 0.65013 0.98738 0.0
H1824 H 0.81429 0.67482 0.01627 0.0
H1825 H 0.78296 0.70459 0.00342 0.0
H1826 H 0.83586 0.69705 0.01835 0.0
H1827 H 0.80505 0.72631 0.00579 0.0
H1828 H 0.7566 0.60239 0.03581 0.0
H1829 H 0.77618 0.65721 0.05437 0.0
H1830 H 0.75501 0.62181 0.01667 0.0
H1831 H 0.77737 0.6372 0.07284 0.0
H1832 H 0.79216 0.71512 0.0674 0.0
H1833 H 0.74896 0.68682 0.07387 0.0
H1834 H 0.82012 0.63179 0.98169 0.0
H1835 H 0.81697 0.62417 0.03122 0.0
H1836 H 0.72131 0.66888 0.99284 0.0
H1837 H 0.75884 0.7039 0.01527 0.0
H1838 H 0.70566 0.68907 0.989 0.0
H1839 H 0.74258 0.72349 0.01094 0.0
H1840 H 0.75526 0.65339 0.95731 0.0
H1841 H 0.76761 0.62142 0.98926 0.0
H1842 H 0.7516 0.63269 0.93468 0.0
H1843 H 0.76373 0.60127 0.96606 0.0
H1844 H 0.7944 0.69339 0.94834 0.0
H1845 H 0.74752 0.70048 0.94747 0.0
H1846 H 0.70056 0.63482 0.02532 0.0
H1847 H 0.70669 0.60854 0.98142 0.0
Li1848 Li 0.86535 0.49727 0.7801 0.0
Li1849 Li 0.88759 0.51164 0.79768 0.0
Li1850 Li 0.86823 0.52445 0.78456 0.0
Li1851 Li 0.88665 0.51284 0.76904 0.0
C1852 C 0.85613 0.51147 0.81184 0.0
N1853 N 0.83619 0.51377 0.83477 0.0
C1854 C 0.8612 0.51142 0.82801 0.0
C1855 C 0.84092 0.51269 0.80732 0.0
C1856 C 0.85093 0.51257 0.83942 0.0
C1857 C 0.83103 0.51389 0.8191 0.0
C1858 C 0.89739 0.48542 0.7834 0.0
C1859 C 0.92346 0.48113 0.78538 0.0
N1860 N 0.91854 0.46675 0.78935 0.0
C1861 C 0.89255 0.47057 0.78739 0.0
C1862 C 0.91293 0.49072 0.78227 0.0
C1863 C 0.90344 0.46132 0.79039 0.0
C1864 C 0.8489 0.47042 0.76285 0.0
N1865 N 0.85103 0.47924 0.77716 0.0
C1866 C 0.83346 0.46093 0.78829 0.0
C1867 C 0.84357 0.47486 0.78977 0.0
C1868 C 0.83132 0.45138 0.7738 0.0
C1869 C 0.83893 0.45633 0.76085 0.0
H1870 H 0.85531 0.47413 0.7532 0.0
H1871 H 0.84584 0.48188 0.80113 0.0
C1872 C 0.90447 0.52761 0.82427 0.0
N1873 N 0.9003 0.51315 0.81663 0.0
C1874 C 0.91431 0.53035 0.83838 0.0
C1875 C 0.91475 0.50311 0.83688 0.0
C1876 C 0.90489 0.5009 0.82274 0.0
C1877 C 0.91971 0.51803 0.84469 0.0
H1878 H 0.90014 0.537 0.81935 0.0
H1879 H 0.90094 0.48948 0.81668 0.0
C1880 C 0.85276 0.50621 0.75175 0.0
N1881 N 0.8293 0.49556 0.7274 0.0
C1882 C 0.85613 0.50296 0.73609 0.0
C1883 C 0.83749 0.50406 0.75504 0.0
C1884 C 0.8441 0.49762 0.72394 0.0
C1885 C 0.82579 0.49861 0.74257 0.0
C1886 C 0.90324 0.54142 0.78663 0.0
C1887 C 0.90124 0.55626 0.78404 0.0
C1888 C 0.91804 0.53836 0.78968 0.0
C1889 C 0.91415 0.56781 0.78441 0.0
C1890 C 0.93065 0.55022 0.78995 0.0
N1891 N 0.92846 0.56458 0.78733 0.0
C1892 C 0.85865 0.5484 0.80173 0.0
C1893 C 0.84919 0.54372 0.77412 0.0
C1894 C 0.85056 0.56033 0.80387 0.0
N1895 N 0.85775 0.54045 0.78705 0.0
C1896 C 0.84095 0.55554 0.77569 0.0
C1897 C 0.84163 0.56402 0.79071 0.0
H1898 H 0.86566 0.54545 0.81172 0.0
H1899 H 0.84894 0.53726 0.76258 0.0
C1900 C 0.90162 0.50114 0.74465 0.0
N1901 N 0.89859 0.51433 0.75202 0.0
C1902 C 0.91064 0.50168 0.73203 0.0
C1903 C 0.91312 0.52936 0.73484 0.0
C1904 C 0.90395 0.52827 0.74733 0.0
C1905 C 0.91651 0.51595 0.72704 0.0
H1906 H 0.897 0.49021 0.74858 0.0
H1907 H 0.90102 0.53851 0.75318 0.0
O1908 O 0.86589 0.50966 0.8005 0.0
O1909 O 0.88686 0.49455 0.78029 0.0
O1910 O 0.86439 0.51202 0.76365 0.0
O1911 O 0.89069 0.53009 0.78656 0.0
H1912 H 0.87288 0.51029 0.8317 0.0
H1913 H 0.83679 0.51267 0.79487 0.0
H1914 H 0.85467 0.51244 0.85196 0.0
H1915 H 0.81923 0.51484 0.81578 0.0
H1916 H 0.93554 0.48509 0.78458 0.0
H1917 H 0.88053 0.46627 0.78821 0.0
H1918 H 0.91682 0.50207 0.77893 0.0
H1919 H 0.89988 0.44983 0.79355 0.0
H1920 H 0.8278 0.45744 0.79854 0.0
H1921 H 0.83783 0.44908 0.74961 0.0
H1922 H 0.91763 0.54195 0.84432 0.0
H1923 H 0.91868 0.49333 0.84147 0.0
H1924 H 0.8679 0.50472 0.73333 0.0
H1925 H 0.83469 0.5066 0.76706 0.0
H1926 H 0.84652 0.49516 0.71174 0.0
H1927 H 0.81391 0.49687 0.74495 0.0
H1928 H 0.88984 0.55881 0.78177 0.0
H1929 H 0.91976 0.527 0.79198 0.0
H1930 H 0.91279 0.57935 0.7824 0.0
H1931 H 0.94218 0.54803 0.79232 0.0
H1932 H 0.85136 0.56666 0.81561 0.0
H1933 H 0.83452 0.55833 0.76517 0.0
H1934 H 0.91308 0.49109 0.72631 0.0
H1935 H 0.91723 0.54053 0.7311 0.0
Li1936 Li 0.78007 0.40817 0.51503 0.0
Li1937 Li 0.76765 0.42638 0.50013 0.0
Li1938 Li 0.78073 0.40725 0.48658 0.0
Li1939 Li 0.79512 0.42947 0.50359 0.0
C1940 C 0.75161 0.3915 0.5003 0.0
N1941 N 0.72936 0.36678 0.50441 0.0
C1942 C 0.73742 0.39389 0.50478 0.0
C1943 C 0.75446 0.37656 0.49781 0.0
C1944 C 0.72632 0.38123 0.50683 0.0
C1945 C 0.74308 0.36421 0.49998 0.0
C1946 C 0.7886 0.44187 0.53182 0.0
C1947 C 0.79782 0.46876 0.54049 0.0
N1948 N 0.80418 0.46504 0.55454 0.0
C1949 C 0.79519 0.43829 0.54635 0.0
C1950 C 0.78984 0.4572 0.52886 0.0
C1951 C 0.80302 0.45018 0.55769 0.0
C1952 C 0.79132 0.39039 0.53711 0.0
N1953 N 0.77883 0.39624 0.5321 0.0
C1954 C 0.76478 0.38499 0.55208 0.0
C1955 C 0.76573 0.39382 0.5393 0.0
C1956 C 0.77752 0.37879 0.55753 0.0
C1957 C 0.79089 0.38149 0.54981 0.0
H1958 H 0.80168 0.39278 0.53135 0.0
H1959 H 0.75611 0.39893 0.53525 0.0
C1960 C 0.74253 0.43618 0.48462 0.0
N1961 N 0.7512 0.43642 0.49879 0.0
C1962 C 0.7299 0.44348 0.48404 0.0
C1963 C 0.73561 0.45108 0.5126 0.0
C1964 C 0.74808 0.44367 0.51261 0.0
C1965 C 0.72626 0.45088 0.49822 0.0
H1966 H 0.74537 0.43019 0.47388 0.0
H1967 H 0.75521 0.44353 0.52367 0.0
C1968 C 0.8075 0.39824 0.49884 0.0
N1969 N 0.82659 0.3784 0.4897 0.0
C1970 C 0.8221 0.40403 0.49476 0.0
C1971 C 0.80267 0.38238 0.4984 0.0
C1972 C 0.83157 0.3938 0.49014 0.0
C1973 C 0.81246 0.37253 0.4937 0.0
C1974 C 0.78127 0.43866 0.47216 0.0
C1975 C 0.78426 0.43408 0.45666 0.0
C1976 C 0.77788 0.45326 0.4758 0.0
C1977 C 0.78386 0.44423 0.44502 0.0
C1978 C 0.77756 0.46306 0.46381 0.0
N1979 N 0.78054 0.45839 0.44881 0.0
C1980 C 0.76541 0.38708 0.46126 0.0
C1981 C 0.79242 0.39307 0.46074 0.0
C1982 C 0.7638 0.37706 0.44733 0.0
N1983 N 0.77958 0.39452 0.46778 0.0
C1984 C 0.79137 0.38313 0.44684 0.0
C1985 C 0.77694 0.37489 0.44015 0.0
H1986 H 0.75538 0.38892 0.46689 0.0
H1987 H 0.80342 0.39972 0.46581 0.0
C1988 C 0.8235 0.44303 0.51928 0.0
N1989 N 0.8134 0.44386 0.50646 0.0
C1990 C 0.83773 0.45275 0.52167 0.0
C1991 C 0.83085 0.46401 0.49762 0.0
C1992 C 0.81672 0.4541 0.49574 0.0
C1993 C 0.84158 0.46326 0.51062 0.0
H1994 H 0.8206 0.43451 0.52739 0.0
H1995 H 0.80863 0.45438 0.48552 0.0
O1996 O 0.76242 0.40375 0.49783 0.0
O1997 O 0.78075 0.43041 0.52065 0.0
O1998 O 0.79816 0.40809 0.50356 0.0
O1999 O 0.78182 0.4289 0.48372 0.0
H2000 H 0.735 0.40539 0.50662 0.0
H2001 H 0.76527 0.37451 0.49406 0.0
H2002 H 0.71528 0.38289 0.5103 0.0
H2003 H 0.74512 0.35258 0.49807 0.0
H2004 H 0.79894 0.48068 0.53835 0.0
H2005 H 0.79425 0.42646 0.54882 0.0
H2006 H 0.78476 0.46012 0.51767 0.0
H2007 H 0.80818 0.4476 0.569 0.0
H2008 H 0.75437 0.38339 0.55791 0.0
H2009 H 0.80092 0.37683 0.55359 0.0
H2010 H 0.72284 0.44298 0.47277 0.0
H2011 H 0.73325 0.45683 0.52373 0.0
H2012 H 0.82605 0.41628 0.49509 0.0
H2013 H 0.79152 0.37772 0.50175 0.0
H2014 H 0.84288 0.39811 0.48692 0.0
H2015 H 0.80885 0.36023 0.49329 0.0
H2016 H 0.78695 0.42285 0.45365 0.0
H2017 H 0.77563 0.45702 0.48777 0.0
H2018 H 0.7862 0.44085 0.43298 0.0
H2019 H 0.77498 0.47441 0.46645 0.0
H2020 H 0.75249 0.37091 0.44239 0.0
H2021 H 0.80168 0.382 0.44131 0.0
H2022 H 0.84586 0.45159 0.53165 0.0
H2023 H 0.83346 0.47195 0.48884 0.0
Li2024 Li 0.62207 0.52877 0.29234 0.0
Li2025 Li 0.64331 0.54461 0.27995 0.0
Li2026 Li 0.62081 0.52711 0.26238 0.0
Li2027 Li 0.64129 0.51597 0.27778 0.0
C2028 C 0.61027 0.55436 0.28023 0.0
N2029 N 0.58858 0.57259 0.28467 0.0
C2030 C 0.61483 0.56967 0.2868 0.0
C2031 C 0.59472 0.54832 0.27582 0.0
C2032 C 0.60368 0.5787 0.28897 0.0
C2033 C 0.58391 0.55773 0.27819 0.0
C2034 C 0.65635 0.53447 0.30949 0.0
C2035 C 0.68277 0.53546 0.31958 0.0
N2036 N 0.67972 0.54066 0.33439 0.0
C2037 C 0.65345 0.53979 0.3248 0.0
C2038 C 0.67109 0.53224 0.30682 0.0
C2039 C 0.66543 0.54287 0.33724 0.0
C2040 C 0.60957 0.51432 0.31779 0.0
N2041 N 0.61069 0.52755 0.31075 0.0
C2042 C 0.59715 0.53846 0.33082 0.0
C2043 C 0.60468 0.53954 0.31701 0.0
C2044 C 0.59593 0.52498 0.33851 0.0
C2045 C 0.60225 0.51278 0.3317 0.0
H2046 H 0.61462 0.50501 0.31273 0.0
H2047 H 0.60588 0.55007 0.31146 0.0
C2048 C 0.65985 0.5697 0.26709 0.0
N2049 N 0.65691 0.56416 0.28118 0.0
C2050 C 0.66908 0.5841 0.26693 0.0
C2051 C 0.67204 0.58703 0.29583 0.0
C2052 C 0.6628 0.57248 0.29543 0.0
C2053 C 0.67525 0.59311 0.28143 0.0
H2054 H 0.65489 0.56296 0.25591 0.0
H2055 H 0.66011 0.56797 0.3065 0.0
C2056 C 0.6064 0.49823 0.27345 0.0
N2057 N 0.58201 0.47383 0.26838 0.0
C2058 C 0.60869 0.48362 0.26785 0.0
C2059 C 0.59176 0.50046 0.27654 0.0
C2060 C 0.59619 0.47142 0.26535 0.0
C2061 C 0.57956 0.48796 0.27387 0.0
C2062 C 0.65419 0.52945 0.25043 0.0
C2063 C 0.64992 0.52423 0.23423 0.0
C2064 C 0.66971 0.53414 0.25613 0.0
C2065 C 0.6613 0.52371 0.22398 0.0
C2066 C 0.68075 0.53346 0.24549 0.0
N2067 N 0.67635 0.5283 0.22977 0.0
C2068 C 0.60514 0.5385 0.23679 0.0
C2069 C 0.60389 0.5116 0.23296 0.0
C2070 C 0.59747 0.53824 0.22151 0.0
N2071 N 0.60828 0.52533 0.24219 0.0
C2072 C 0.59625 0.51081 0.21752 0.0
C2073 C 0.59311 0.5243 0.21146 0.0
H2074 H 0.60893 0.54932 0.24425 0.0
H2075 H 0.60676 0.50131 0.23739 0.0
C2076 C 0.65312 0.4917 0.29111 0.0
N2077 N 0.65222 0.49911 0.27775 0.0
C2078 C 0.66042 0.47898 0.29139 0.0
C2079 C 0.66593 0.48186 0.26426 0.0
C2080 C 0.65838 0.49437 0.26444 0.0
C2081 C 0.66693 0.47382 0.2778 0.0
H2082 H 0.64796 0.49557 0.30149 0.0
H2083 H 0.65734 0.50017 0.25384 0.0
O2084 O 0.62104 0.54541 0.27798 0.0
O2085 O 0.64465 0.53096 0.29732 0.0
O2086 O 0.61859 0.51017 0.27643 0.0
O2087 O 0.64318 0.52997 0.26061 0.0
H2088 H 0.62686 0.5745 0.29021 0.0
H2089 H 0.59104 0.53653 0.27058 0.0
H2090 H 0.60702 0.59056 0.29408 0.0
H2091 H 0.57182 0.55322 0.27485 0.0
H2092 H 0.69425 0.53377 0.31771 0.0
H2093 H 0.64205 0.54146 0.32705 0.0
H2094 H 0.67345 0.52794 0.29506 0.0
H2095 H 0.66336 0.54698 0.34917 0.0
H2096 H 0.59234 0.54813 0.3354 0.0
H2097 H 0.60192 0.50226 0.33725 0.0
H2098 H 0.67136 0.5881 0.2555 0.0
H2099 H 0.6763 0.59357 0.30732 0.0
H2100 H 0.62001 0.48172 0.26554 0.0
H2101 H 0.58987 0.51167 0.28109 0.0
H2102 H 0.59778 0.46003 0.26104 0.0
H2103 H 0.56815 0.48949 0.27623 0.0
H2104 H 0.63794 0.52057 0.22965 0.0
H2105 H 0.67318 0.53827 0.26863 0.0
H2106 H 0.65817 0.51965 0.21142 0.0
H2107 H 0.69281 0.53705 0.24972 0.0
H2108 H 0.59512 0.54891 0.21756 0.0
H2109 H 0.59336 0.49983 0.21022 0.0
H2110 H 0.66067 0.47309 0.30205 0.0
H2111 H 0.67096 0.47858 0.25357 0.0
Tb2112 Tb 0.0454 0.02953 0.02913 0.0
C2113 C 0.98942 0.9819 0.99182 0.0
N2114 N 0.99806 0.99457 0.98726 0.0
C2115 C 0.99762 0.98143 0.96102 0.0
C2116 C 0.98476 0.96833 0.98119 0.0
C2117 C 1.00209 0.99456 0.97204 0.0
C2118 C 0.98897 0.96823 0.96563 0.0
C2119 C 0.9764 0.96962 0.0125 0.0
C2120 C 0.98532 0.98256 0.00727 0.0
C2121 C 0.97192 0.956 0.00206 0.0
C2122 C 0.97604 0.95537 0.98642 0.0
Tb2123 Tb 0.00404 0.01558 0.00598 0.0
N2124 N 0.98989 0.99595 0.01705 0.0
C2125 C 0.97197 0.97088 0.02796 0.0
C2126 C 0.98436 0.99756 0.03154 0.0
C2127 C 0.97576 0.985 0.03742 0.0
H2128 H 0.00829 0.00481 0.96818 0.0
H2129 H 0.97171 0.98634 0.04908 0.0
H2130 H 0.03934 0.03786 0.06714 0.0
H2131 H 0.07336 0.06406 0.98692 0.0
H2132 H 0.98583 0.00857 0.03838 0.0
H2133 H 0.96514 0.96121 0.03246 0.0
H2134 H 0.06004 0.04043 0.99585 0.0
H2135 H 1.00075 0.98155 0.94893 0.0
H2136 H 0.96509 0.94594 0.00589 0.0
H2137 H 0.97238 0.94483 0.97844 0.0
H2138 H 0.04506 0.06046 0.08732 0.0
H2139 H 0.98551 0.95807 0.95706 0.0
H2140 H 0.08001 0.08791 0.00565 0.0
N2141 N 0.04937 0.0497 0.04881 0.0
C2142 C 0.0575 0.06305 0.04505 0.0
C2143 C 0.04849 0.06139 0.07543 0.0
C2144 C 0.06127 0.07621 0.05634 0.0
C2145 C 0.04498 0.04865 0.06383 0.0
C2146 C 0.05664 0.07525 0.07167 0.0
N2147 N 0.0575 0.05078 0.01893 0.0
C2148 C 0.06202 0.05075 0.00392 0.0
C2149 C 0.06983 0.07738 0.02518 0.0
C2150 C 0.06172 0.06361 0.02964 0.0
C2151 C 0.0738 0.07756 0.00955 0.0
C2152 C 0.06997 0.06416 0.99892 0.0
H2153 H 0.05936 0.08509 0.0807 0.0
H2154 H 0.07247 0.10012 0.06049 0.0
H2155 H 0.07994 0.10115 0.03322 0.0
O2156 O 0.06616 0.02259 0.02465 0.0
O2157 O 0.03159 0.04773 0.02471 0.0
O2158 O 0.01733 0.03751 0.00117 0.0
O2159 O 0.061 0.02821 0.04908 0.0
O2160 O 0.04437 0.01767 0.00463 0.0
O2161 O 0.02236 0.02276 0.99139 0.0
O2162 O 0.98485 0.02557 0.01019 0.0
O2163 O 0.01682 0.99659 0.0104 0.0
O2164 O 0.03396 0.00622 0.03276 0.0
O2165 O 0.98929 0.01853 0.9862 0.0
O2166 O 0.0063 0.02728 0.0307 0.0
O2167 O 0.0275 0.02011 0.04309 0.0
C2168 C 0.02299 0.04942 0.01165 0.0
C2169 C 0.08528 0.02014 0.04629 0.0
C2170 C 0.10732 0.00832 0.04189 0.0
C2171 C 0.11255 0.01157 0.05829 0.0
C2172 C 0.09059 0.02343 0.06266 0.0
C2173 C 0.1042 0.01914 0.06861 0.0
C2174 C 0.09365 0.01259 0.03603 0.0
C2175 C 0.03579 0.01861 0.99127 0.0
C2176 C 0.07057 0.02359 0.03994 0.0
C2177 C 0.06944 0.0899 0.05197 0.0
C2178 C 0.07369 0.09049 0.03643 0.0
C2179 C 0.02642 0.99456 0.02262 0.0
C2180 C 0.96345 0.01863 0.99033 0.0
C2181 C 0.93752 0.02222 0.99371 0.0
C2182 C 0.93201 0.01242 0.97959 0.0
C2183 C 0.95786 0.00862 0.97631 0.0
C2184 C 0.95319 0.02522 0.99903 0.0
C2185 C 0.94217 0.00553 0.97102 0.0
C2186 C 0.01424 0.02443 0.04367 0.0
C2187 C 0.97992 0.02405 0.99499 0.0
H2188 H 0.12318 0.00848 0.06306 0.0
H2189 H 0.08419 0.02919 0.07084 0.0
H2190 H 0.10828 0.02168 0.08122 0.0
H2191 H 0.08938 0.00972 0.02345 0.0
H2192 H 0.9199 0.0101 0.97525 0.0
H2193 H 0.96559 0.00349 0.96924 0.0
H2194 H 0.95748 0.03328 0.00961 0.0
H2195 H 0.93792 0.99799 0.96012 0.0
Tb2196 Tb 0.26197 0.77699 0.29096 0.0
C2197 C 0.29208 0.74154 0.23215 0.0
N2198 N 0.29843 0.75272 0.24407 0.0
C2199 C 0.31877 0.73905 0.25033 0.0
C2200 C 0.29853 0.72833 0.22912 0.0
C2201 C 0.31186 0.7519 0.25287 0.0
C2202 C 0.31197 0.7271 0.23853 0.0
C2203 C 0.27283 0.73289 0.20954 0.0
C2204 C 0.27939 0.74373 0.22269 0.0
C2205 C 0.2787 0.71931 0.20682 0.0
C2206 C 0.29154 0.71703 0.21661 0.0
Tb2207 Tb 0.28561 0.77255 0.24853 0.0
N2208 N 0.27422 0.75707 0.22571 0.0
C2209 C 0.26103 0.73635 0.19917 0.0
C2210 C 0.26379 0.76111 0.21472 0.0
C2211 C 0.25676 0.75069 0.20156 0.0
H2212 H 0.31721 0.76111 0.26186 0.0
H2213 H 0.24815 0.75379 0.1932 0.0
H2214 H 0.22645 0.78261 0.28092 0.0
H2215 H 0.30855 0.80952 0.33365 0.0
H2216 H 0.26078 0.77238 0.21598 0.0
H2217 H 0.25566 0.72834 0.18892 0.0
H2218 H 0.29645 0.78839 0.31373 0.0
H2219 H 0.32934 0.73838 0.25746 0.0
H2220 H 0.27368 0.71073 0.19691 0.0
H2221 H 0.2962 0.7067 0.21417 0.0
H2222 H 0.21057 0.80161 0.28825 0.0
H2223 H 0.31734 0.71716 0.23657 0.0
H2224 H 0.29414 0.82951 0.34251 0.0
N2225 N 0.24615 0.79397 0.2966 0.0
C2226 C 0.25195 0.80573 0.30822 0.0
C2227 C 0.22223 0.80297 0.29388 0.0
C2228 C 0.24315 0.81676 0.31293 0.0
C2229 C 0.23139 0.79233 0.28959 0.0
C2230 C 0.22814 0.81527 0.30557 0.0
N2231 N 0.27527 0.79636 0.30978 0.0
C2232 C 0.28994 0.79706 0.31669 0.0
C2233 C 0.27351 0.81925 0.32686 0.0
C2234 C 0.26697 0.80695 0.31508 0.0
C2235 C 0.2887 0.82024 0.33343 0.0
C2236 C 0.29689 0.80904 0.32839 0.0
H2237 H 0.22101 0.8235 0.30885 0.0
H2238 H 0.24302 0.83752 0.32849 0.0
H2239 H 0.2696 0.8397 0.34069 0.0
O2240 O 0.26343 0.76574 0.31168 0.0
O2241 O 0.2693 0.79955 0.28362 0.0
O2242 O 0.27785 0.78388 0.26789 0.0
O2243 O 0.24158 0.76579 0.29853 0.0
O2244 O 0.28504 0.7697 0.29288 0.0
O2245 O 0.2996 0.77839 0.27232 0.0
O2246 O 0.28712 0.79012 0.2335 0.0
O2247 O 0.28044 0.75175 0.25985 0.0
O2248 O 0.26016 0.7586 0.27118 0.0
O2249 O 0.3075 0.78411 0.2449 0.0
O2250 O 0.26112 0.7756 0.24434 0.0
O2251 O 0.24748 0.77552 0.26745 0.0
C2252 C 0.27666 0.79797 0.27151 0.0
C2253 C 0.24347 0.74499 0.31367 0.0
C2254 C 0.24384 0.7261 0.33253 0.0
C2255 C 0.23184 0.71613 0.32284 0.0
C2256 C 0.23137 0.73503 0.30401 0.0
C2257 C 0.22577 0.72054 0.3085 0.0
C2258 C 0.24973 0.74036 0.32779 0.0
C2259 C 0.29825 0.77258 0.28628 0.0
C2260 C 0.24868 0.76088 0.31054 0.0
C2261 C 0.24961 0.82895 0.32471 0.0
C2262 C 0.26475 0.83019 0.33166 0.0
C2263 C 0.26967 0.74901 0.26933 0.0
C2264 C 0.30873 0.79228 0.21904 0.0
C2265 C 0.30778 0.79916 0.19171 0.0
C2266 C 0.322 0.79462 0.19029 0.0
C2267 C 0.32298 0.78788 0.21744 0.0
C2268 C 0.3012 0.79783 0.2061 0.0
C2269 C 0.3295 0.78897 0.20309 0.0
C2270 C 0.24851 0.77616 0.25175 0.0
C2271 C 0.302 0.792 0.23432 0.0
H2272 H 0.22713 0.70506 0.32645 0.0
H2273 H 0.22607 0.7385 0.29322 0.0
H2274 H 0.21646 0.71288 0.30106 0.0
H2275 H 0.25871 0.74821 0.33556 0.0
H2276 H 0.32752 0.79579 0.17945 0.0
H2277 H 0.32915 0.78373 0.2273 0.0
H2278 H 0.29021 0.80123 0.20728 0.0
H2279 H 0.34052 0.78566 0.20196 0.0
Tb2280 Tb 0.50359 0.01945 0.52583 0.0
C2281 C 0.56106 0.05228 0.49639 0.0
N2282 N 0.55025 0.03965 0.49076 0.0
C2283 C 0.54855 0.04831 0.4647 0.0
C2284 C 0.56565 0.06372 0.48644 0.0
C2285 C 0.54434 0.03728 0.47502 0.0
C2286 C 0.55917 0.06164 0.47044 0.0
C2287 C 0.5781 0.0671 0.51873 0.0
C2288 C 0.56724 0.05394 0.51239 0.0
C2289 C 0.58267 0.07854 0.50884 0.0
C2290 C 0.57648 0.07685 0.49275 0.0
Tb2291 Tb 0.54523 0.02234 0.50868 0.0
N2292 N 0.56231 0.0428 0.52176 0.0
C2293 C 0.58405 0.06837 0.53485 0.0
C2294 C 0.56852 0.0437 0.53728 0.0
C2295 C 0.57932 0.05657 0.54411 0.0
H2296 H 0.53664 0.02678 0.47021 0.0
H2297 H 0.58415 0.05727 0.55647 0.0
H2298 H 0.51272 0.0166 0.56497 0.0
H2299 H 0.46008 0.98482 0.48261 0.0
H2300 H 0.56561 0.03438 0.54433 0.0
H2301 H 0.59244 0.07831 0.54018 0.0
H2302 H 0.47968 0.00775 0.49324 0.0
H2303 H 0.54373 0.04645 0.45227 0.0
H2304 H 0.591 0.08875 0.51353 0.0
H2305 H 0.58013 0.08577 0.48528 0.0
H2306 H 0.50913 0.99653 0.58303 0.0
H2307 H 0.56241 0.07016 0.4624 0.0
H2308 H 0.45495 0.96303 0.49883 0.0
N2309 N 0.50069 1.00221 0.54442 0.0
C2310 C 0.49069 0.98885 0.53934 0.0
C2311 C 0.50413 0.99409 0.57067 0.0
C2312 C 0.48757 0.97729 0.54956 0.0
C2313 C 0.50656 0.00533 0.56018 0.0
C2314 C 0.49481 0.97989 0.56526 0.0
N2315 N 0.48601 0.99859 0.51468 0.0
C2316 C 0.47768 0.99815 0.50017 0.0
C2317 C 0.47171 0.9739 0.51867 0.0
C2318 C 0.4828 0.98714 0.52413 0.0
C2319 C 0.4636 0.97301 0.50345 0.0
C2320 C 0.46651 0.98526 0.49423 0.0
H2321 H 0.49274 0.9713 0.57349 0.0
H2322 H 0.47447 0.95475 0.55164 0.0
H2323 H 0.46059 0.95178 0.52458 0.0
O2324 O 0.48627 0.03225 0.51839 0.0
O2325 O 0.50843 0.99872 0.5115 0.0
O2326 O 0.53451 1.00051 0.51676 0.0
O2327 O 0.4888 0.0249 0.54219 0.0
O2328 O 0.50826 0.02868 0.5036 0.0
O2329 O 0.52471 0.01503 0.49172 0.0
O2330 O 0.56766 0.01735 0.51202 0.0
O2331 O 0.53601 0.04413 0.51299 0.0
O2332 O 0.52043 0.04087 0.53339 0.0
O2333 O 0.55278 0.00959 0.48963 0.0
O2334 O 0.54301 0.01444 0.53209 0.0
O2335 O 0.52427 0.02614 0.54265 0.0
C2336 C 0.52075 0.99228 0.51216 0.0
C2337 C 0.46836 0.0391 0.53769 0.0
C2338 C 0.44735 0.05324 0.53333 0.0
C2339 C 0.44472 0.0526 0.54941 0.0
C2340 C 0.46532 0.03862 0.55373 0.0
C2341 C 0.4536 0.04529 0.5595 0.0
C2342 C 0.45919 0.04639 0.52737 0.0
C2343 C 0.51232 0.0212 0.49112 0.0
C2344 C 0.48124 0.03202 0.5324 0.0
C2345 C 0.47693 0.96379 0.54399 0.0
C2346 C 0.46898 0.96212 0.52859 0.0
C2347 C 0.52889 0.04983 0.52464 0.0
C2348 C 0.57823 1.00268 0.4912 0.0
C2349 C 0.6014 0.99139 0.49456 0.0
C2350 C 0.60151 0.98985 0.47786 0.0
C2351 C 0.57856 1.00081 0.47455 0.0
C2352 C 0.58966 0.99781 0.50125 0.0
C2353 C 0.59014 0.99446 0.46796 0.0
C2354 C 0.53622 0.01942 0.54413 0.0
C2355 C 0.56605 0.00995 0.49777 0.0
H2356 H 0.43564 0.05771 0.55415 0.0
H2357 H 0.47206 0.0331 0.56198 0.0
H2358 H 0.45142 0.04482 0.57186 0.0
H2359 H 0.46128 0.04685 0.51497 0.0
H2360 H 0.61034 0.98489 0.47244 0.0
H2361 H 0.56995 0.00444 0.4666 0.0
H2362 H 0.5895 0.99908 0.51413 0.0
H2363 H 0.59033 0.99314 0.4551 0.0
Tb2364 Tb 0.29496 0.26599 0.76791 0.0
C2365 C 0.23851 0.2845 0.73199 0.0
N2366 N 0.24851 0.29197 0.74462 0.0
C2367 C 0.25095 0.31516 0.73177 0.0
C2368 C 0.23491 0.29191 0.71845 0.0
C2369 C 0.25393 0.30739 0.74503 0.0
C2370 C 0.2416 0.30732 0.7183 0.0
C2371 C 0.22038 0.26157 0.7205 0.0
C2372 C 0.23126 0.26957 0.73299 0.0
C2373 C 0.21711 0.26874 0.70678 0.0
C2374 C 0.22438 0.28387 0.70575 0.0
Tb2375 Tb 0.25226 0.27769 0.76552 0.0
N2376 N 0.23506 0.26281 0.74621 0.0
C2377 C 0.21317 0.24659 0.7222 0.0
C2378 C 0.2276 0.24849 0.74827 0.0
C2379 C 0.21671 0.24008 0.7362 0.0
H2380 H 0.26003 0.31402 0.75573 0.0
H2381 H 0.21099 0.22862 0.73775 0.0
H2382 H 0.28883 0.22914 0.77407 0.0
H2383 H 0.3301 0.31666 0.80207 0.0
H2384 H 0.23001 0.24357 0.75924 0.0
H2385 H 0.20475 0.24004 0.71286 0.0
H2386 H 0.31392 0.30227 0.77856 0.0
H2387 H 0.25554 0.3273 0.73212 0.0
H2388 H 0.20887 0.26275 0.69699 0.0
H2389 H 0.22155 0.28935 0.69521 0.0
H2390 H 0.29559 0.2138 0.79556 0.0
H2391 H 0.23913 0.31344 0.70813 0.0
H2392 H 0.33734 0.30326 0.82519 0.0
N2393 N 0.30035 0.25047 0.78679 0.0
C2394 C 0.30992 0.25752 0.79988 0.0
C2395 C 0.29955 0.22611 0.797 0.0
C2396 C 0.31421 0.24915 0.81239 0.0
C2397 C 0.29555 0.23491 0.78493 0.0
C2398 C 0.30881 0.23327 0.81086 0.0
N2399 N 0.31071 0.28098 0.78853 0.0
C2400 C 0.31632 0.2963 0.78869 0.0
C2401 C 0.32479 0.28103 0.81443 0.0
C2402 C 0.31519 0.27327 0.80084 0.0
C2403 C 0.32996 0.29687 0.81495 0.0
C2404 C 0.32582 0.30449 0.80196 0.0
H2405 H 0.31186 0.22642 0.8202 0.0
H2406 H 0.32707 0.25065 0.83576 0.0
H2407 H 0.33628 0.27855 0.83758 0.0
O2408 O 0.31815 0.27022 0.76201 0.0
O2409 O 0.28393 0.26886 0.79032 0.0
O2410 O 0.26988 0.28747 0.78524 0.0
O2411 O 0.3024 0.24872 0.75371 0.0
O2412 O 0.29333 0.28821 0.75912 0.0
O2413 O 0.27239 0.29693 0.76917 0.0
O2414 O 0.23536 0.27193 0.78205 0.0
O2415 O 0.25815 0.2631 0.74513 0.0
O2416 O 0.28374 0.27244 0.74611 0.0
O2417 O 0.23672 0.29209 0.76941 0.0
O2418 O 0.25555 0.25663 0.7761 0.0
O2419 O 0.27459 0.24741 0.76294 0.0
C2420 C 0.27653 0.27969 0.79536 0.0
C2421 C 0.32823 0.25018 0.74588 0.0
C2422 C 0.35202 0.25226 0.73268 0.0
C2423 C 0.3508 0.23628 0.7322 0.0
C2424 C 0.32745 0.23422 0.74499 0.0
C2425 C 0.33862 0.22737 0.73824 0.0
C2426 C 0.34061 0.25929 0.73957 0.0
C2427 C 0.28567 0.29926 0.76294 0.0
C2428 C 0.31615 0.25676 0.75382 0.0
C2429 C 0.3237 0.25687 0.82599 0.0
C2430 C 0.32894 0.27277 0.82702 0.0
C2431 C 0.27092 0.2648 0.73826 0.0
C2432 C 0.21625 0.28933 0.78641 0.0
C2433 C 0.19445 0.28719 0.80274 0.0
C2434 C 0.19154 0.30125 0.79809 0.0
C2435 C 0.21278 0.30342 0.78223 0.0
C2436 C 0.20686 0.28106 0.79673 0.0
C2437 C 0.20058 0.30923 0.78796 0.0
C2438 C 0.26213 0.24531 0.7705 0.0
C2439 C 0.2295 0.28399 0.77929 0.0
H2440 H 0.3593 0.23061 0.727 0.0
H2441 H 0.31824 0.22698 0.74975 0.0
H2442 H 0.33788 0.21506 0.73773 0.0
H2443 H 0.34142 0.27162 0.74012 0.0
H2444 H 0.18209 0.30611 0.80231 0.0
H2445 H 0.2195 0.3101 0.77438 0.0
H2446 H 0.20922 0.27019 0.80012 0.0
H2447 H 0.19813 0.32004 0.78452 0.0
Tb2448 Tb 0.02997 0.9987 0.51394 0.0
C2449 C 0.00849 0.05787 0.54758 0.0
N2450 N 1.00164 0.0488 0.53412 0.0
C2451 C 0.97686 0.05017 0.54253 0.0
C2452 C 0.99979 0.06333 0.5592 0.0
C2453 C 0.98601 0.04506 0.53134 0.0
C2454 C 0.98377 0.05929 0.55657 0.0
C2455 C 0.03199 0.07131 0.56326 0.0
C2456 C 0.02433 0.0618 0.54957 0.0
C2457 C 0.02341 0.07666 0.57501 0.0
C2458 C 0.00733 0.07269 0.57298 0.0
Tb2459 Tb 0.01765 0.04079 0.51687 0.0
N2460 N 0.03222 0.05617 0.53805 0.0
C2461 C 0.04801 0.07524 0.56463 0.0
C2462 C 0.04775 0.06069 0.53892 0.0
C2463 C 0.0559 0.07005 0.5523 0.0
H2464 H 0.98058 0.0384 0.52033 0.0
H2465 H 0.06825 0.07341 0.55301 0.0
H2466 H 0.0673 0.00374 0.50956 0.0
H2467 H 0.97936 0.96937 0.47549 0.0
H2468 H 0.05392 0.05746 0.52924 0.0
H2469 H 0.05434 0.08253 0.57496 0.0
H2470 H 0.99344 0.98418 0.50009 0.0
H2471 H 0.96447 0.04716 0.54027 0.0
H2472 H 0.02907 0.08395 0.58564 0.0
H2473 H 1.00085 0.07697 0.58208 0.0
H2474 H 0.08329 0.9969 0.48867 0.0
H2475 H 0.97665 0.06327 0.5652 0.0
H2476 H 0.99356 0.96117 0.45337 0.0
N2477 N 0.04621 0.99291 0.49591 0.0
C2478 C 0.03935 0.98424 0.48217 0.0
C2479 C 0.07094 0.99334 0.48666 0.0
C2480 C 0.04807 0.97995 0.46999 0.0
C2481 C 0.06181 0.99736 0.4984 0.0
C2482 C 0.06405 0.98463 0.47238 0.0
N2483 N 0.01535 0.98519 0.4918 0.0
C2484 C 0.99976 0.98105 0.49048 0.0
C2485 C 0.01586 0.9715 0.46585 0.0
C2486 C 0.02343 0.98009 0.48011 0.0
C2487 C 0.99981 0.96776 0.46415 0.0
C2488 C 0.99175 0.97245 0.47657 0.0
H2489 H 0.07116 0.98157 0.4633 0.0
H2490 H 0.04708 0.96789 0.44627 0.0
H2491 H 0.01891 0.96049 0.44266 0.0
O2492 O 0.02022 0.97983 0.52561 0.0
O2493 O 0.0259 0.00955 0.49165 0.0
O2494 O 0.00737 0.02311 0.4976 0.0
O2495 O 0.04333 0.98227 0.51981 0.0
O2496 O 0.00883 1.00119 0.52484 0.0
O2497 O 0.99878 0.02074 0.51372 0.0
O2498 O 0.02732 0.05875 0.50387 0.0
O2499 O 0.02245 0.03117 0.53981 0.0
O2500 O 0.03952 0.01455 0.53538 0.0
O2501 O 1.00323 0.05406 0.50585 0.0
O2502 O 0.03914 0.0374 0.50695 0.0
O2503 O 0.04874 0.01853 0.51978 0.0
C2504 C 0.01515 0.01716 0.48713 0.0
C2505 C 0.03757 0.96848 0.54192 0.0
C2506 C 0.03747 0.94762 0.55919 0.0
C2507 C 0.0489 0.95729 0.56988 0.0
C2508 C 0.04886 0.97789 0.55299 0.0
C2509 C 0.05456 0.97225 0.56676 0.0
C2510 C 0.03182 0.95327 0.5451 0.0
C2511 C 0.99733 0.00833 0.52139 0.0
C2512 C 0.0327 0.97406 0.52654 0.0
C2513 C 0.04057 0.9713 0.45578 0.0
C2514 C 0.02452 0.96708 0.45372 0.0
C2515 C 0.03259 0.02299 0.54496 0.0
C2516 C 0.01373 0.07968 0.5019 0.0
C2517 C 0.01494 0.10418 0.49017 0.0
C2518 C 0.00979 0.1105 0.50406 0.0
C2519 C 0.00876 0.08649 0.51566 0.0
C2520 C 0.01691 0.08865 0.48911 0.0
C2521 C 0.00678 0.10175 0.51668 0.0
C2522 C 0.05065 0.03094 0.5122 0.0
C2523 C 0.01423 0.06296 0.50032 0.0
H2524 H 0.05354 0.95319 0.58065 0.0
H2525 H 0.05354 0.98951 0.55082 0.0
H2526 H 0.0636 0.97943 0.57495 0.0
H2527 H 0.02321 0.94582 0.53659 0.0
H2528 H 0.00809 0.1223 0.50513 0.0
H2529 H 0.00607 0.07993 0.52553 0.0
H2530 H 0.02062 0.08353 0.47834 0.0
H2531 H 1.00276 0.10679 0.52729 0.0
Tb2532 Tb 0.27465 0.79282 0.7603 0.0
C2533 C 0.24032 0.73769 0.78679 0.0
N2534 N 0.25425 0.74642 0.79249 0.0
C2535 C 0.24667 0.74775 0.81909 0.0
C2536 C 0.2288 0.7342 0.79697 0.0
C2537 C 0.25786 0.75051 0.80861 0.0
C2538 C 0.23198 0.7398 0.81321 0.0
C2539 C 0.22425 0.72107 0.76487 0.0
C2540 C 0.238 0.73119 0.77092 0.0
C2541 C 0.21252 0.71809 0.77481 0.0
C2542 C 0.21477 0.72469 0.7908 0.0
Tb2543 Tb 0.27124 0.74996 0.77378 0.0
N2544 N 0.24945 0.73456 0.7615 0.0
C2545 C 0.22289 0.71398 0.74913 0.0
C2546 C 0.2486 0.72705 0.74648 0.0
C2547 C 0.23521 0.71682 0.73998 0.0
H2548 H 0.26944 0.7556 0.8136 0.0
H2549 H 0.23439 0.7111 0.72796 0.0
H2550 H 0.27838 0.78748 0.72131 0.0
H2551 H 0.30912 0.8303 0.80947 0.0
H2552 H 0.25822 0.72914 0.73954 0.0
H2553 H 0.21254 0.70605 0.74406 0.0
H2554 H 0.28645 0.81177 0.79669 0.0
H2555 H 0.24951 0.75141 0.83178 0.0
H2556 H 0.2018 0.71043 0.77035 0.0
H2557 H 0.20576 0.72196 0.79843 0.0
H2558 H 0.29775 0.79598 0.70353 0.0
H2559 H 0.22343 0.73741 0.82142 0.0
H2560 H 0.32992 0.83997 0.79345 0.0
N2561 N 0.29167 0.79946 0.74249 0.0
C2562 C 0.30422 0.81015 0.74855 0.0
C2563 C 0.29983 0.79988 0.71621 0.0
C2564 C 0.31544 0.81567 0.73871 0.0
C2565 C 0.289 0.79479 0.72643 0.0
C2566 C 0.31319 0.81024 0.72239 0.0
N2567 N 0.29478 0.80992 0.77391 0.0
C2568 C 0.29567 0.81534 0.78969 0.0
C2569 C 0.31885 0.82643 0.77149 0.0
C2570 C 0.30585 0.81553 0.76476 0.0
C2571 C 0.32009 0.8316 0.78782 0.0
C2572 C 0.30841 0.8261 0.79692 0.0
H2573 H 0.32153 0.81422 0.71442 0.0
H2574 H 0.3372 0.83082 0.73805 0.0
H2575 H 0.34023 0.84019 0.76673 0.0
O2576 O 0.26944 0.81539 0.76343 0.0
O2577 O 0.29645 0.78347 0.76371 0.0
O2578 O 0.29314 0.7657 0.78225 0.0
O2579 O 0.26089 0.79956 0.7418 0.0
O2580 O 0.26745 0.78937 0.78386 0.0
O2581 O 0.27856 0.7693 0.79248 0.0
O2582 O 0.28434 0.73371 0.76531 0.0
O2583 O 0.25167 0.75672 0.7595 0.0
O2584 O 0.25297 0.78196 0.7685 0.0
O2585 O 0.27309 0.73119 0.78652 0.0
O2586 O 0.28087 0.75459 0.75169 0.0
O2587 O 0.26807 0.77302 0.74233 0.0
C2588 C 0.30207 0.77509 0.77426 0.0
C2589 C 0.25392 0.82468 0.74198 0.0
C2590 C 0.23998 0.8461 0.7435 0.0
C2591 C 0.23852 0.84523 0.7267 0.0
C2592 C 0.25225 0.82413 0.72521 0.0
C2593 C 0.24469 0.8344 0.71766 0.0
C2594 C 0.24798 0.83592 0.75119 0.0
C2595 C 0.27233 0.78152 0.79509 0.0
C2596 C 0.26147 0.81312 0.7494 0.0
C2597 C 0.32844 0.82647 0.74541 0.0
C2598 C 0.33015 0.83182 0.76175 0.0
C2599 C 0.24483 0.76847 0.76272 0.0
C2600 C 0.29416 0.71859 0.78448 0.0
C2601 C 0.30833 0.69742 0.78415 0.0
C2602 C 0.3137 0.70186 0.80036 0.0
C2603 C 0.29996 0.72305 0.80063 0.0
C2604 C 0.29863 0.70588 0.77618 0.0
C2605 C 0.30965 0.71469 0.80848 0.0
C2606 C 0.27584 0.76192 0.74013 0.0
C2607 C 0.28168 0.72539 0.77696 0.0
H2608 H 0.23259 0.85302 0.72053 0.0
H2609 H 0.25682 0.81571 0.7179 0.0
H2610 H 0.2435 0.83389 0.70473 0.0
H2611 H 0.2491 0.8364 0.76413 0.0
H2612 H 0.32103 0.69537 0.80674 0.0
H2613 H 0.29658 0.73266 0.80732 0.0
H2614 H 0.29402 0.70217 0.76381 0.0
H2615 H 0.31381 0.71799 0.82101 0.0
Tb2616 Tb 0.5191 0.03245 0.99866 0.0
C2617 C 0.56298 0.00315 0.04918 0.0
N2618 N 0.54874 0.99642 0.04228 0.0
C2619 C 0.5571 0.97229 0.03805 0.0
C2620 C 0.57504 0.99483 0.05041 0.0
C2621 C 0.54545 0.981 0.03745 0.0
C2622 C 0.57204 0.9793 0.04428 0.0
C2623 C 0.57859 0.02448 0.06646 0.0
C2624 C 0.5648 0.01782 0.05685 0.0
C2625 C 0.59112 0.01682 0.06665 0.0
C2626 C 0.58935 1.002 0.05858 0.0
Tb2627 Tb 0.5312 0.01225 0.04007 0.0
N2628 N 0.55228 0.02453 0.05677 0.0
C2629 C 0.57892 0.03798 0.07655 0.0
C2630 C 0.55198 0.03654 0.06799 0.0
C2631 C 0.56538 0.04372 0.07773 0.0
H2632 H 0.53382 0.9754 0.03324 0.0
H2633 H 0.5652 0.05353 0.08627 0.0
H2634 H 0.51323 0.06769 0.00632 0.0
H2635 H 0.48414 0.98313 0.96155 0.0
H2636 H 0.54139 0.04041 0.06976 0.0
H2637 H 0.58925 0.04343 0.08422 0.0
H2638 H 0.50402 0.99592 0.98251 0.0
H2639 H 0.55449 0.96014 0.03393 0.0
H2640 H 0.60191 0.02187 0.07372 0.0
H2641 H 0.59884 0.99587 0.0595 0.0
H2642 H 0.49595 0.08418 0.99583 0.0
H2643 H 0.58098 0.97247 0.04502 0.0
H2644 H 0.46695 0.99795 0.94771 0.0
N2645 N 0.5022 0.04772 0.9909 0.0
C2646 C 0.49105 0.04181 0.97886 0.0
C2647 C 0.49437 0.07224 0.99098 0.0
C2648 C 0.48104 0.05083 0.9723 0.0
C2649 C 0.50401 0.06278 0.99704 0.0
C2650 C 0.48286 0.06625 0.97849 0.0
N2651 N 0.49922 0.01845 0.98069 0.0
C2652 C 0.49716 1.00291 0.97658 0.0
C2653 C 0.47768 0.01956 0.96141 0.0
C2654 C 0.48952 0.02656 0.97349 0.0
C2655 C 0.47591 0.0038 0.95691 0.0
C2656 C 0.48559 0.99541 0.96468 0.0
H2657 H 0.47543 0.0736 0.97376 0.0
H2658 H 0.46178 0.05085 0.95458 0.0
H2659 H 0.45876 0.02334 0.94507 0.0
O2660 O 0.53505 0.02934 0.98237 0.0
O2661 O 0.51066 0.02162 0.01825 0.0
O2662 O 0.50956 0.99973 0.02725 0.0
O2663 O 0.53103 0.05203 0.99042 0.0
O2664 O 0.52731 0.01011 0.995 0.0
O2665 O 0.52849 0.99633 0.01771 0.0
O2666 O 0.51352 0.0148 0.05424 0.0
O2667 O 0.54568 0.02287 0.02324 0.0
O2668 O 0.53924 0.04426 0.01416 0.0
O2669 O 0.52988 0.99977 0.05979 0.0
O2670 O 0.52785 0.03693 0.0436 0.0
O2671 O 0.51448 0.045 0.02125 0.0
C2672 C 0.50294 0.00791 0.0179 0.0
C2673 C 0.536 0.04751 0.96372 0.0
C2674 C 0.54407 0.04462 0.93715 0.0
C2675 C 0.53367 0.05375 0.93179 0.0
C2676 C 0.52563 0.05667 0.95827 0.0
C2677 C 0.52452 0.05977 0.94235 0.0
C2678 C 0.54521 0.0416 0.95314 0.0
C2679 C 0.52905 0.99763 0.00216 0.0
C2680 C 0.53743 0.04392 0.98031 0.0
C2681 C 0.46953 0.04412 0.95989 0.0
C2682 C 0.46783 0.02847 0.95446 0.0
C2683 C 0.54893 0.03758 0.02214 0.0
C2684 C 0.50497 0.9933 0.06766 0.0
C2685 C 0.48553 0.98862 0.0859 0.0
C2686 C 0.48454 0.97268 0.08205 0.0
C2687 C 0.50386 0.97745 0.06378 0.0
C2688 C 0.49521 0.99872 0.07785 0.0
C2689 C 0.49341 0.96718 0.07077 0.0
C2690 C 0.52024 0.04676 0.03666 0.0
C2691 C 0.51743 0.00463 0.06332 0.0
H2692 H 0.53282 0.05643 0.91951 0.0
H2693 H 0.51842 0.06147 0.96624 0.0
H2694 H 0.5166 0.06688 0.93822 0.0
H2695 H 0.55318 0.03451 0.95733 0.0
H2696 H 0.47742 0.96443 0.08812 0.0
H2697 H 0.5113 0.97303 0.05579 0.0
H2698 H 0.49589 0.01103 0.08012 0.0
H2699 H 0.49269 0.95493 0.068 0.0
Tb2700 Tb 0.2648 0.25025 0.25598 0.0
C2701 C 0.31744 0.29974 0.29111 0.0
N2702 N 0.30395 0.2931 0.29601 0.0
C2703 C 0.31689 0.29124 0.32179 0.0
C2704 C 0.33128 0.30215 0.30136 0.0
C2705 C 0.30345 0.28905 0.3112 0.0
C2706 C 0.33087 0.29778 0.31684 0.0
C2707 C 0.33121 0.31042 0.27 0.0
C2708 C 0.31739 0.30374 0.27556 0.0
C2709 C 0.34503 0.31282 0.28017 0.0
C2710 C 0.34506 0.30871 0.2958 0.0
Tb2711 Tb 0.28281 0.29126 0.27794 0.0
N2712 N 0.30382 0.30108 0.26593 0.0
C2713 C 0.3307 0.31471 0.25446 0.0
C2714 C 0.30317 0.30637 0.25126 0.0
C2715 C 0.31658 0.31286 0.24514 0.0
H2716 H 0.29267 0.28465 0.31544 0.0
H2717 H 0.31596 0.31681 0.23339 0.0
H2718 H 0.25669 0.2555 0.21764 0.0
H2719 H 0.23014 0.22297 0.29826 0.0
H2720 H 0.29239 0.30637 0.24448 0.0
H2721 H 0.34105 0.31989 0.24975 0.0
H2722 H 0.2541 0.23465 0.28854 0.0
H2723 H 0.31643 0.28804 0.33382 0.0
H2724 H 0.35574 0.31793 0.27609 0.0
H2725 H 0.35581 0.31065 0.30351 0.0
H2726 H 0.23377 0.25136 0.19799 0.0
H2727 H 0.34126 0.29947 0.32509 0.0
H2728 H 0.20569 0.21884 0.28055 0.0
N2729 N 0.2445 0.24726 0.23657 0.0
C2730 C 0.2308 0.24028 0.24073 0.0
C2731 C 0.23274 0.24835 0.21003 0.0
C2732 C 0.21744 0.23731 0.22972 0.0
C2733 C 0.24569 0.25102 0.22134 0.0
C2734 C 0.21853 0.24154 0.21425 0.0
N2735 N 0.2433 0.23946 0.26655 0.0
C2736 C 0.24349 0.23412 0.28119 0.0
C2737 C 0.21623 0.22888 0.26094 0.0
C2738 C 0.23019 0.2362 0.25619 0.0
C2739 C 0.21617 0.22451 0.27644 0.0
C2740 C 0.22992 0.22695 0.28652 0.0
H2741 H 0.20854 0.23942 0.20543 0.0
H2742 H 0.19308 0.2278 0.22618 0.0
H2743 H 0.19204 0.22039 0.25348 0.0
O2744 O 0.2711 0.2296 0.2618 0.0
O2745 O 0.24793 0.26541 0.26088 0.0
O2746 O 0.2588 0.28315 0.28247 0.0
O2747 O 0.26313 0.23234 0.23754 0.0
O2748 O 0.27622 0.25226 0.28077 0.0
O2749 O 0.27217 0.27512 0.29323 0.0
O2750 O 0.27891 0.31318 0.27352 0.0
O2751 O 0.29855 0.27465 0.27391 0.0
O2752 O 0.28817 0.25969 0.25055 0.0
O2753 O 0.28505 0.3082 0.29746 0.0
O2754 O 0.27045 0.28977 0.25366 0.0
O2755 O 0.27462 0.26714 0.24096 0.0
C2756 C 0.24667 0.27528 0.27317 0.0
C2757 C 0.28198 0.21717 0.24134 0.0
C2758 C 0.29811 0.19813 0.2438 0.0
C2759 C 0.3074 0.20488 0.23288 0.0
C2760 C 0.29109 0.22381 0.23015 0.0
C2761 C 0.30379 0.21765 0.22597 0.0
C2762 C 0.28545 0.20426 0.24796 0.0
C2763 C 0.27416 0.26093 0.29363 0.0
C2764 C 0.26917 0.2237 0.24688 0.0
C2765 C 0.20347 0.23018 0.23448 0.0
C2766 C 0.20287 0.22598 0.25004 0.0
C2767 C 0.30022 0.26632 0.26064 0.0
C2768 C 0.26754 0.32492 0.2941 0.0
C2769 C 0.25114 0.34373 0.29064 0.0
C2770 C 0.24263 0.33802 0.30271 0.0
C2771 C 0.25916 0.31944 0.30637 0.0
C2772 C 0.2635 0.33705 0.28637 0.0
C2773 C 0.24669 0.32593 0.31056 0.0
C2774 C 0.27164 0.28102 0.24052 0.0
C2775 C 0.28022 0.31799 0.28872 0.0
H2776 H 0.3173 0.20021 0.22967 0.0
H2777 H 0.28847 0.23375 0.22476 0.0
H2778 H 0.31087 0.22285 0.21746 0.0
H2779 H 0.27846 0.19911 0.25663 0.0
H2780 H 0.23308 0.34308 0.30628 0.0
H2781 H 0.26208 0.31004 0.31256 0.0
H2782 H 0.26991 0.34118 0.27682 0.0
H2783 H 0.24017 0.32161 0.31991 0.0
Tb2784 Tb 0.52763 0.50105 0.01808 0.0
C2785 C 0.50902 0.5562 0.05354 0.0
N2786 N 0.5023 0.54857 0.03922 0.0
C2787 C 0.47752 0.54705 0.04876 0.0
C2788 C 0.50032 0.55883 0.06631 0.0
C2789 C 0.48661 0.54505 0.03637 0.0
C2790 C 0.48443 0.55366 0.06392 0.0
C2791 C 0.53172 0.5717 0.06904 0.0
C2792 C 0.52449 0.56257 0.05495 0.0
C2793 C 0.52331 0.57361 0.08211 0.0
C2794 C 0.50764 0.56715 0.08077 0.0
Tb2795 Tb 0.51887 0.54508 0.02041 0.0
N2796 N 0.53236 0.56018 0.0422 0.0
C2797 C 0.54706 0.57896 0.06934 0.0
C2798 C 0.54695 0.56806 0.04197 0.0
C2799 C 0.55461 0.57736 0.05563 0.0
H2800 H 0.48093 0.54085 0.02451 0.0
H2801 H 0.56632 0.58326 0.0556 0.0
H2802 H 0.56463 0.50214 0.01433 0.0
H2803 H 0.47612 0.46987 0.98211 0.0
H2804 H 0.55272 0.56682 0.03135 0.0
H2805 H 0.55303 0.58612 0.07992 0.0
H2806 H 0.49084 0.48487 0.00623 0.0
H2807 H 0.46515 0.54377 0.04653 0.0
H2808 H 0.52869 0.58042 0.09314 0.0
H2809 H 0.50117 0.56913 0.09077 0.0
H2810 H 0.58014 0.49384 0.99363 0.0
H2811 H 0.47732 0.55542 0.07343 0.0
H2812 H 0.4896 0.46134 0.95954 0.0
N2813 N 0.54327 0.49341 0.0003 0.0
C2814 C 0.53603 0.48462 0.98681 0.0
C2815 C 0.56774 0.49137 0.99145 0.0
C2816 C 0.54441 0.47937 0.97474 0.0
C2817 C 0.55891 0.49637 0.00303 0.0
C2818 C 0.56046 0.48299 0.97715 0.0
N2819 N 0.51245 0.48602 0.99712 0.0
C2820 C 0.49688 0.48181 0.99634 0.0
C2821 C 0.51217 0.47187 0.97123 0.0
C2822 C 0.52011 0.48081 0.98515 0.0
C2823 C 0.49614 0.46816 0.97005 0.0
C2824 C 0.48849 0.47302 0.98274 0.0
H2825 H 0.56733 0.47912 0.9682 0.0
H2826 H 0.54277 0.46653 0.95133 0.0
H2827 H 0.51454 0.46006 0.9482 0.0
O2828 O 0.5207 0.47866 0.02446 0.0
O2829 O 0.52472 0.51194 0.99554 0.0
O2830 O 0.50785 0.52863 -3e-05 0.0
O2831 O 0.54264 0.49219 0.03408 0.0
O2832 O 0.50577 0.50472 0.0266 0.0
O2833 O 0.49858 0.52602 0.01581 0.0
O2834 O 0.52792 0.56069 0.00468 0.0
O2835 O 0.53367 0.53829 0.03998 0.0
O2836 O 0.52175 0.51369 0.03922 0.0
O2837 O 0.50865 0.56431 0.01665 0.0
O2838 O 0.53891 0.53941 0.00949 0.0
O2839 O 0.54797 0.51997 0.02189 0.0
C2840 C 0.51427 0.51977 0.99029 0.0
C2841 C 0.53949 0.4649 0.03487 0.0
C2842 C 0.54058 0.4409 0.04703 0.0
C2843 C 0.55303 0.43893 0.03848 0.0
C2844 C 0.55181 0.46243 0.02639 0.0
C2845 C 0.55848 0.44952 0.02817 0.0
C2846 C 0.53373 0.45392 0.04506 0.0
C2847 C 0.4954 0.51298 0.02232 0.0
C2848 C 0.53314 0.47922 0.03406 0.0
C2849 C 0.53653 0.47059 0.96078 0.0
C2850 C 0.52045 0.46689 0.95901 0.0
C2851 C 0.53085 0.52569 0.04693 0.0
C2852 C 0.51101 0.57513 0.99219 0.0
C2853 C 0.50991 0.59536 0.97434 0.0
C2854 C 0.49721 0.58587 0.96518 0.0
C2855 C 0.4982 0.56603 0.98288 0.0
C2856 C 0.51681 0.58992 0.98794 0.0
C2857 C 0.49139 0.57136 0.96946 0.0
C2858 C 0.55028 0.53311 0.01538 0.0
C2859 C 0.51794 0.56953 0.00665 0.0
H2860 H 0.55852 0.42909 0.03972 0.0
H2861 H 0.55643 0.47056 0.01855 0.0
H2862 H 0.56805 0.44779 0.02164 0.0
H2863 H 0.52427 0.45573 0.05176 0.0
H2864 H 0.49167 0.58979 0.95476 0.0
H2865 H 0.49338 0.55486 0.98614 0.0
H2866 H 0.52659 0.59715 0.99514 0.0
H2867 H 0.48148 0.56424 0.96238 0.0
Tb2868 Tb 0.773 0.29167 0.26115 0.0
C2869 C 0.73901 0.23641 0.2868 0.0
N2870 N 0.75194 0.24682 0.29276 0.0
C2871 C 0.74092 0.25132 0.31734 0.0
C2872 C 0.7263 0.23369 0.29565 0.0
C2873 C 0.75331 0.25349 0.30826 0.0
C2874 C 0.72727 0.24158 0.31094 0.0
C2875 C 0.72549 0.2172 0.26539 0.0
C2876 C 0.7386 0.22806 0.27188 0.0
C2877 C 0.71276 0.21473 0.27409 0.0
C2878 C 0.71316 0.22295 0.28916 0.0
Tb2879 Tb 0.77114 0.24833 0.27623 0.0
N2880 N 0.75088 0.2311 0.26344 0.0
C2881 C 0.72555 0.20924 0.25027 0.0
C2882 C 0.75119 0.22317 0.24887 0.0
C2883 C 0.73848 0.2122 0.24201 0.0
H2884 H 0.76399 0.26 0.31416 0.0
H2885 H 0.73864 0.20603 0.23038 0.0
H2886 H 0.7727 0.28439 0.22098 0.0
H2887 H 0.80899 0.33423 0.30469 0.0
H2888 H 0.76124 0.22541 0.24256 0.0
H2889 H 0.71569 0.20079 0.24489 0.0
H2890 H 0.78656 0.31385 0.29503 0.0
H2891 H 0.74205 0.25687 0.32948 0.0
H2892 H 0.70255 0.20646 0.26929 0.0
H2893 H 0.70329 0.22079 0.29579 0.0
H2894 H 0.7902 0.29169 0.20108 0.0
H2895 H 0.71777 0.23979 0.31811 0.0
H2896 H 0.82774 0.34301 0.28606 0.0
N2897 N 0.78748 0.29749 0.24078 0.0
C2898 C 0.8001 0.30872 0.24519 0.0
C2899 C 0.79325 0.29637 0.2135 0.0
C2900 C 0.81016 0.31366 0.23397 0.0
C2901 C 0.7835 0.29196 0.22499 0.0
C2902 C 0.80675 0.30708 0.21804 0.0
N2903 N 0.79301 0.31053 0.27161 0.0
C2904 C 0.79491 0.31726 0.28702 0.0
C2905 C 0.81568 0.32735 0.26587 0.0
C2906 C 0.8028 0.31562 0.26097 0.0
C2907 C 0.81798 0.33396 0.28183 0.0
C2908 C 0.80748 0.32898 0.29241 0.0
H2909 H 0.81421 0.31055 0.20908 0.0
H2910 H 0.83103 0.32902 0.23044 0.0
H2911 H 0.83588 0.34094 0.25835 0.0
O2912 O 0.76508 0.31192 0.26843 0.0
O2913 O 0.79617 0.2869 0.2697 0.0
O2914 O 0.79446 0.26199 0.27754 0.0
O2915 O 0.75765 0.29961 0.24493 0.0
O2916 O 0.76623 0.28358 0.28315 0.0
O2917 O 0.77953 0.26754 0.29474 0.0
O2918 O 0.78091 0.22855 0.26978 0.0
O2919 O 0.75123 0.25361 0.26085 0.0
O2920 O 0.75249 0.27872 0.26979 0.0
O2921 O 0.77644 0.2349 0.29418 0.0
O2922 O 0.78157 0.25426 0.2548 0.0
O2923 O 0.76804 0.27145 0.24359 0.0
C2924 C 0.8024 0.27549 0.27507 0.0
C2925 C 0.75675 0.32632 0.24816 0.0
C2926 C 0.74658 0.35011 0.24803 0.0
C2927 C 0.75355 0.35312 0.23412 0.0
C2928 C 0.76387 0.32966 0.23442 0.0
C2929 C 0.76227 0.34303 0.22748 0.0
C2930 C 0.74832 0.33672 0.25509 0.0
C2931 C 0.77565 0.28105 0.29484 0.0
C2932 C 0.75684 0.31158 0.25479 0.0
C2933 C 0.82313 0.32518 0.23889 0.0
C2934 C 0.82587 0.33201 0.25478 0.0
C2935 C 0.74449 0.26563 0.26264 0.0
C2936 C 0.7872 0.21185 0.29036 0.0
C2937 C 0.80195 0.1911 0.28799 0.0
C2938 C 0.79873 0.1877 0.3034 0.0
C2939 C 0.78419 0.20809 0.30572 0.0
C2940 C 0.79596 0.20312 0.28135 0.0
C2941 C 0.78987 0.19609 0.31213 0.0
C2942 C 0.77539 0.25987 0.24247 0.0
C2943 C 0.78154 0.22526 0.28449 0.0
H2944 H 0.7523 0.36334 0.22845 0.0
H2945 H 0.77042 0.32185 0.22891 0.0
H2946 H 0.76764 0.34549 0.21678 0.0
H2947 H 0.74271 0.33417 0.26565 0.0
H2948 H 0.80301 0.17841 0.30869 0.0
H2949 H 0.77745 0.21449 0.31289 0.0
H2950 H 0.79846 0.20591 0.26953 0.0
H2951 H 0.78747 0.19333 0.32397 0.0
Tb2952 Tb 0.02364 0.53387 0.49689 0.0
C2953 C 0.04798 0.49903 0.55814 0.0
N2954 N 0.03698 0.49346 0.54578 0.0
C2955 C 0.04673 0.47001 0.54269 0.0
C2956 C 0.05912 0.49046 0.56304 0.0
C2957 C 0.03604 0.47906 0.53817 0.0
C2958 C 0.0584 0.47577 0.55512 0.0
C2959 C 0.05943 0.51987 0.57849 0.0
C2960 C 0.04813 0.51352 0.56564 0.0
C2961 C 0.07075 0.51152 0.58331 0.0
C2962 C 0.07058 0.49682 0.57562 0.0
Tb2963 Tb 0.02056 0.50924 0.53847 0.0
N2964 N 0.03706 0.52126 0.56047 0.0
C2965 C 0.0589 0.53432 0.58622 0.0
C2966 C 0.03597 0.53494 0.56873 0.0
C2967 C 0.04698 0.54177 0.58146 0.0
H2968 H 0.02702 0.47446 0.52864 0.0
H2969 H 0.04613 0.55271 0.58774 0.0
H2970 H 0.01667 0.56856 0.50959 0.0
H2971 H 0.9981 0.49286 0.44594 0.0
H2972 H 0.02655 0.54065 0.56604 0.0
H2973 H 0.06737 0.53962 0.59612 0.0
H2974 H 0.01629 0.50278 0.46973 0.0
H2975 H 0.04599 0.45862 0.53657 0.0
H2976 H 0.07958 0.51625 0.59308 0.0
H2977 H 0.07931 0.49046 0.57952 0.0
H2978 H 0.99857 0.58512 0.5019 0.0
H2979 H 0.06673 0.46879 0.55854 0.0
H2980 H 0.97918 0.50817 0.43626 0.0
N2981 N 0.00742 0.55047 0.49106 0.0
C2982 C 0.99745 0.54616 0.47749 0.0
C2983 C 0.998 0.57409 0.49504 0.0
C2984 C 0.987 0.55545 0.4725 0.0
C2985 C 0.00809 0.56446 0.49958 0.0
C2986 C 0.98732 0.56952 0.48153 0.0
N2987 N 0.00742 0.52331 0.47436 0.0
C2988 C 0.00796 0.50951 0.46605 0.0
C2989 C 0.98698 0.52698 0.45502 0.0
C2990 C 0.99753 0.53218 0.46877 0.0
C2991 C 0.98714 0.5126 0.44684 0.0
C2992 C 0.99774 0.50389 0.45233 0.0
H2993 H 0.9795 0.57701 0.47807 0.0
H2994 H 0.96839 0.55734 0.45475 0.0
H2995 H 0.9683 0.53236 0.43952 0.0
O2996 O 0.03997 0.53268 0.48054 0.0
O2997 O 0.99971 0.52336 0.49785 0.0
O2998 O 0.01228 0.51809 0.51831 0.0
O2999 O 0.03609 0.55444 0.49107 0.0
O3000 O 0.02966 0.5103 0.49568 0.0
O3001 O 0.01799 0.49522 0.51466 0.0
O3002 O 0.00422 0.50936 0.55468 0.0
O3003 O 0.04338 0.51384 0.53116 0.0
O3004 O 0.03848 0.53433 0.51927 0.0
O3005 O 0.00493 0.48872 0.53953 0.0
O3006 O 0.01437 0.53267 0.54051 0.0
O3007 O 0.02482 0.54754 0.52085 0.0
C3008 C 0.99893 0.51668 0.51051 0.0
C3009 C 0.04092 0.55284 0.46411 0.0
C3010 C 0.04796 0.55165 0.43693 0.0
C3011 C 0.03984 0.56349 0.43387 0.0
C3012 C 0.03277 0.56462 0.46088 0.0
C3013 C 0.0322 0.56983 0.44579 0.0
C3014 C 0.04819 0.54627 0.45203 0.0
C3015 C 0.02491 0.49686 0.50131 0.0
C3016 C 0.04239 0.54748 0.48002 0.0
C3017 C 0.97655 0.55039 0.45873 0.0
C3018 C 0.97652 0.53617 0.45004 0.0
C3019 C 0.04772 0.52478 0.52235 0.0
C3020 C 0.99853 0.48634 0.56601 0.0
C3021 C 0.99206 0.48561 0.5933 0.0
C3022 C 0.99739 0.47173 0.59404 0.0
C3023 C 0.00404 0.47253 0.56688 0.0
C3024 C 0.99255 0.49277 0.57927 0.0
C3025 C 1.00342 0.46527 0.58087 0.0
C3026 C 0.01836 0.54602 0.53447 0.0
C3027 C 0.99922 0.49464 0.55176 0.0
H3028 H 0.03966 0.56809 0.42244 0.0
H3029 H 0.02696 0.5699 0.47 0.0
H3030 H 0.02602 0.57897 0.44339 0.0
H3031 H 0.05414 0.53696 0.4545 0.0
H3032 H 0.99705 0.46602 0.60483 0.0
H3033 H 0.00885 0.46738 0.55687 0.0
H3034 H 0.98823 0.5034 0.57868 0.0
H3035 H 0.00768 0.45464 0.58153 0.0
Tb3036 Tb 0.79414 0.7651 0.26881 0.0
C3037 C 0.73797 0.78607 0.23195 0.0
N3038 N 0.74626 0.79309 0.24584 0.0
C3039 C 0.74657 0.81772 0.23635 0.0
C3040 C 0.7338 0.79465 0.21958 0.0
C3041 C 0.75044 0.80872 0.24828 0.0
C3042 C 0.73825 0.81066 0.22192 0.0
C3043 C 0.72559 0.76241 0.21571 0.0
C3044 C 0.73397 0.77014 0.23001 0.0
C3045 C 0.72135 0.77091 0.20337 0.0
C3046 C 0.72546 0.78698 0.20529 0.0
Tb3047 Tb 0.75207 0.7771 0.26413 0.0
N3048 N 0.73886 0.76223 0.24195 0.0
C3049 C 0.72179 0.74636 0.21425 0.0
C3050 C 0.73451 0.74666 0.2409 0.0
C3051 C 0.72613 0.73848 0.22697 0.0
H3052 H 0.75648 0.81432 0.25956 0.0
H3053 H 0.72289 0.7261 0.22611 0.0
H3054 H 0.78812 0.72869 0.27674 0.0
H3055 H 0.82733 0.8171 0.30207 0.0
H3056 H 0.73719 0.74049 0.25079 0.0
H3057 H 0.71533 0.73998 0.20346 0.0
H3058 H 0.81221 0.80148 0.27852 0.0
H3059 H 0.74993 0.8301 0.23832 0.0
H3060 H 0.71494 0.76517 0.19227 0.0
H3061 H 0.72216 0.79338 0.19564 0.0
H3062 H 0.79433 0.71436 0.29932 0.0
H3063 H 0.73529 0.81766 0.21269 0.0
H3064 H 0.83397 0.80488 0.32629 0.0
N3065 N 0.79948 0.75041 0.28866 0.0
C3066 C 0.8084 0.75803 0.30191 0.0
C3067 C 0.79826 0.72666 0.30025 0.0
C3068 C 0.81234 0.75027 0.31506 0.0
C3069 C 0.79457 0.73487 0.28755 0.0
C3070 C 0.80713 0.7344 0.3141 0.0
N3071 N 0.80877 0.78089 0.28964 0.0
C3072 C 0.81426 0.79612 0.28917 0.0
C3073 C 0.82222 0.78218 0.31608 0.0
C3074 C 0.81322 0.77378 0.30242 0.0
C3075 C 0.82704 0.798 0.31604 0.0
C3076 C 0.82321 0.80496 0.30244 0.0
H3077 H 0.80993 0.728 0.32394 0.0
H3078 H 0.82434 0.75286 0.33898 0.0
H3079 H 0.83299 0.78079 0.33988 0.0
O3080 O 0.81362 0.77274 0.25607 0.0
O3081 O 0.78289 0.76964 0.29074 0.0
O3082 O 0.76743 0.78742 0.28559 0.0
O3083 O 0.80843 0.74974 0.26302 0.0
O3084 O 0.7915 0.7864 0.25816 0.0
O3085 O 0.77188 0.79603 0.26968 0.0
O3086 O 0.73339 0.76716 0.27592 0.0
O3087 O 0.76342 0.77291 0.2422 0.0
O3088 O 0.77828 0.75497 0.24778 0.0
O3089 O 0.73516 0.79004 0.26954 0.0
O3090 O 0.75473 0.75602 0.27508 0.0
O3091 O 0.77414 0.74641 0.26344 0.0
C3092 C 0.77545 0.78052 0.29558 0.0
C3093 C 0.83132 0.7545 0.24945 0.0
C3094 C 0.8537 0.75769 0.23397 0.0
C3095 C 0.85626 0.74319 0.2375 0.0
C3096 C 0.8345 0.74005 0.25268 0.0
C3097 C 0.84679 0.73451 0.24678 0.0
C3098 C 0.84114 0.76347 0.24003 0.0
C3099 C 0.78459 0.79788 0.26254 0.0
C3100 C 0.81765 0.75935 0.25614 0.0
C3101 C 0.82123 0.75861 0.32874 0.0
C3102 C 0.82614 0.77452 0.32925 0.0
C3103 C 0.77125 0.76235 0.23755 0.0
C3104 C 0.72154 0.78437 0.29184 0.0
C3105 C 0.70069 0.78444 0.30912 0.0
C3106 C 0.71049 0.79573 0.31989 0.0
C3107 C 0.731 0.79558 0.30294 0.0
C3108 C 0.70632 0.77868 0.29505 0.0
C3109 C 0.72552 0.80116 0.31686 0.0
C3110 C 0.76178 0.74462 0.27108 0.0
C3111 C 0.72721 0.7794 0.27651 0.0
H3112 H 0.86576 0.73857 0.23307 0.0
H3113 H 0.82743 0.73287 0.25987 0.0
H3114 H 0.84898 0.72336 0.24942 0.0
H3115 H 0.83901 0.77463 0.23736 0.0
H3116 H 0.70646 0.80037 0.3307 0.0
H3117 H 0.74256 0.80024 0.30067 0.0
H3118 H 0.69882 0.77013 0.28651 0.0
H3119 H 0.73292 0.80989 0.32527 0.0
Tb3120 Tb 0.76058 0.27131 0.78705 0.0
C3121 C 0.79676 0.24447 0.72797 0.0
N3122 N 0.80193 0.2559 0.74002 0.0
C3123 C 0.82513 0.24603 0.74498 0.0
C3124 C 0.80538 0.23303 0.72422 0.0
C3125 C 0.81606 0.25703 0.74833 0.0
C3126 C 0.81971 0.23389 0.73296 0.0
C3127 C 0.77687 0.2327 0.70678 0.0
C3128 C 0.78272 0.24431 0.71948 0.0
C3129 C 0.78518 0.22101 0.70319 0.0
C3130 C 0.79943 0.22118 0.71188 0.0
Tb3131 Tb 0.78594 0.27268 0.74552 0.0
N3132 N 0.77502 0.25578 0.72344 0.0
C3133 C 0.76299 0.23337 0.6979 0.0
C3134 C 0.76209 0.25708 0.71397 0.0
C3135 C 0.75572 0.24576 0.70134 0.0
H3136 H 0.82046 0.26644 0.7575 0.0
H3137 H 0.74529 0.24674 0.69414 0.0
H3138 H 0.72583 0.27914 0.77544 0.0
H3139 H 0.80045 0.29244 0.8401 0.0
H3140 H 0.75667 0.26691 0.71566 0.0
H3141 H 0.75806 0.22466 0.68807 0.0
H3142 H 0.79018 0.27527 0.8157 0.0
H3143 H 0.83629 0.24693 0.75167 0.0
H3144 H 0.78081 0.21192 0.69357 0.0
H3145 H 0.80582 0.2122 0.70888 0.0
H3146 H 0.71021 0.29795 0.78366 0.0
H3147 H 0.82673 0.22534 0.73044 0.0
H3148 H 0.78657 0.31264 0.84972 0.0
N3149 N 0.74444 0.28783 0.79371 0.0
C3150 C 0.74919 0.29764 0.8073 0.0
C3151 C 0.72125 0.29812 0.7903 0.0
C3152 C 0.74036 0.30842 0.81263 0.0
C3153 C 0.73038 0.28762 0.7855 0.0
C3154 C 0.72632 0.30868 0.80383 0.0
N3155 N 0.77106 0.28617 0.81046 0.0
C3156 C 0.78417 0.28428 0.81923 0.0
C3157 C 0.76825 0.30665 0.8302 0.0
C3158 C 0.7629 0.29672 0.81602 0.0
C3159 C 0.78205 0.30523 0.83877 0.0
C3160 C 0.78995 0.29389 0.83334 0.0
H3161 H 0.71919 0.31676 0.80754 0.0
H3162 H 0.73913 0.32687 0.83087 0.0
H3163 H 0.7636 0.32537 0.84622 0.0
O3164 O 0.76112 0.25348 0.80165 0.0
O3165 O 0.77267 0.29481 0.78641 0.0
O3166 O 0.77686 0.28205 0.76527 0.0
O3167 O 0.73967 0.25869 0.79196 0.0
O3168 O 0.7842 0.26522 0.78868 0.0
O3169 O 0.79953 0.27619 0.76956 0.0
O3170 O 0.78603 0.28873 0.72893 0.0
O3171 O 0.78045 0.2501 0.75355 0.0
O3172 O 0.76049 0.25718 0.76455 0.0
O3173 O 0.80664 0.28786 0.744 0.0
O3174 O 0.76213 0.27781 0.74187 0.0
O3175 O 0.74731 0.27347 0.76371 0.0
C3176 C 0.77903 0.29533 0.77342 0.0
C3177 C 0.74144 0.25228 0.81839 0.0
C3178 C 0.74459 0.24579 0.84556 0.0
C3179 C 0.73497 0.25591 0.85022 0.0
C3180 C 0.73165 0.26232 0.82308 0.0
C3181 C 0.7284 0.26404 0.83893 0.0
C3182 C 0.74761 0.24382 0.82964 0.0
C3183 C 0.79773 0.26976 0.78314 0.0
C3184 C 0.74635 0.25136 0.80227 0.0
C3185 C 0.74572 0.31847 0.82664 0.0
C3186 C 0.75965 0.3176 0.83539 0.0
C3187 C 0.7693 0.24712 0.76244 0.0
C3188 C 0.80893 0.29386 0.71738 0.0
C3189 C 0.80979 0.30071 0.69019 0.0
C3190 C 0.82258 0.29361 0.68875 0.0
C3191 C 0.82162 0.28664 0.71578 0.0
C3192 C 0.80323 0.30099 0.70463 0.0
C3193 C 0.82845 0.28663 0.70152 0.0
C3194 C 0.74912 0.27701 0.74884 0.0
C3195 C 0.80078 0.29352 0.73172 0.0
H3196 H 0.73253 0.25746 0.86255 0.0
H3197 H 0.72669 0.26902 0.81463 0.0
H3198 H 0.72094 0.27182 0.84252 0.0
H3199 H 0.75526 0.23615 0.82616 0.0
H3200 H 0.82784 0.29323 0.67768 0.0
H3201 H 0.82618 0.28091 0.72541 0.0
H3202 H 0.7935 0.30667 0.70592 0.0
H3203 H 0.83821 0.28103 0.70029 0.0
Tb3204 Tb 0.76468 0.75086 0.75624 0.0
C3205 C 0.81723 0.80067 0.79353 0.0
N3206 N 0.80348 0.79407 0.79786 0.0
C3207 C 0.81537 0.79272 0.82428 0.0
C3208 C 0.83069 0.80333 0.80439 0.0
C3209 C 0.80233 0.79033 0.8131 0.0
C3210 C 0.82962 0.79919 0.8199 0.0
C3211 C 0.83186 0.81151 0.77308 0.0
C3212 C 0.81782 0.80463 0.77803 0.0
C3213 C 0.8453 0.81411 0.78384 0.0
C3214 C 0.84472 0.81003 0.79945 0.0
Tb3215 Tb 0.78304 0.79147 0.77868 0.0
N3216 N 0.80461 0.80169 0.76782 0.0
C3217 C 0.83192 0.81575 0.75754 0.0
C3218 C 0.80447 0.80689 0.75311 0.0
C3219 C 0.81812 0.81362 0.74759 0.0
H3220 H 0.79132 0.78607 0.8169 0.0
H3221 H 0.81792 0.8175 0.73581 0.0
H3222 H 0.75719 0.75631 0.71787 0.0
H3223 H 0.72822 0.72803 0.79953 0.0
H3224 H 0.79387 0.80656 0.74582 0.0
H3225 H 0.84246 0.82109 0.75328 0.0
H3226 H 0.75273 0.73768 0.78969 0.0
H3227 H 0.81437 0.78976 0.83634 0.0
H3228 H 0.8562 0.81936 0.78024 0.0
H3229 H 0.85518 0.81217 0.80763 0.0
H3230 H 0.73436 0.75314 0.6982 0.0
H3231 H 0.83969 0.80108 0.82861 0.0
H3232 H 0.70401 0.72473 0.78157 0.0
N3233 N 0.74455 0.74876 0.73682 0.0
C3234 C 0.73056 0.74274 0.74107 0.0
C3235 C 0.73312 0.7503 0.71026 0.0
C3236 C 0.71723 0.74048 0.73008 0.0
C3237 C 0.74603 0.75235 0.72156 0.0
C3238 C 0.71866 0.74439 0.71454 0.0
N3239 N 0.74269 0.74178 0.76704 0.0
C3240 C 0.74235 0.7373 0.78205 0.0
C3241 C 0.71529 0.73304 0.76158 0.0
C3242 C 0.72961 0.7391 0.75666 0.0
C3243 C 0.71479 0.72939 0.77731 0.0
C3244 C 0.72841 0.73136 0.78752 0.0
H3245 H 0.70869 0.74279 0.70573 0.0
H3246 H 0.69258 0.73263 0.72667 0.0
H3247 H 0.69087 0.72613 0.75423 0.0
O3248 O 0.76874 0.72936 0.76196 0.0
O3249 O 0.74887 0.76729 0.76085 0.0
O3250 O 0.7596 0.78232 0.7841 0.0
O3251 O 0.76291 0.73318 0.73752 0.0
O3252 O 0.77676 0.75197 0.78058 0.0
O3253 O 0.77304 0.77463 0.79361 0.0
O3254 O 0.77745 0.81249 0.7732 0.0
O3255 O 0.79939 0.77571 0.77382 0.0
O3256 O 0.78849 0.75938 0.75128 0.0
O3257 O 0.7848 0.80909 0.79744 0.0
O3258 O 0.77119 0.79004 0.75414 0.0
O3259 O 0.77531 0.76739 0.74135 0.0
C3260 C 0.74746 0.7758 0.77409 0.0
C3261 C 0.78086 0.71716 0.74241 0.0
C3262 C 0.79748 0.69877 0.74716 0.0
C3263 C 0.80684 0.70491 0.73592 0.0
C3264 C 0.79013 0.72307 0.73099 0.0
C3265 C 0.80311 0.71698 0.72784 0.0
C3266 C 0.78455 0.705 0.75035 0.0
C3267 C 0.77571 0.76062 0.79382 0.0
C3268 C 0.7678 0.72394 0.74695 0.0
C3269 C 0.70295 0.73446 0.73496 0.0
C3270 C 0.70198 0.73077 0.75066 0.0
C3271 C 0.80067 0.76657 0.76096 0.0
C3272 C 0.76615 0.8245 0.79361 0.0
C3273 C 0.75042 0.84405 0.79138 0.0
C3274 C 0.74142 0.83759 0.80275 0.0
C3275 C 0.75719 0.81814 0.80504 0.0
C3276 C 0.76263 0.83729 0.78678 0.0
C3277 C 0.74481 0.82465 0.80952 0.0
C3278 C 0.77269 0.78139 0.74105 0.0
C3279 C 0.77905 0.818 0.78823 0.0
H3280 H 0.81687 0.70021 0.73322 0.0
H3281 H 0.78746 0.73248 0.72465 0.0
H3282 H 0.8103 0.72163 0.71914 0.0
H3283 H 0.77748 0.70059 0.75929 0.0
H3284 H 0.73197 0.84266 0.80657 0.0
H3285 H 0.75971 0.80817 0.81047 0.0
H3286 H 0.76941 0.8419 0.77771 0.0
H3287 H 0.7379 0.81973 0.81831 0.0
Tb3288 Tb 0.54546 0.52981 0.52841 0.0
C3289 C 0.49731 0.47873 0.49015 0.0
N3290 N 0.5035 0.49301 0.48678 0.0
C3291 C 0.5059 0.48265 0.45998 0.0
C3292 C 0.49568 0.46576 0.47874 0.0
C3293 C 0.50695 0.49518 0.47159 0.0
C3294 C 0.50046 0.46784 0.46364 0.0
C3295 C 0.4839 0.46295 0.50829 0.0
C3296 C 0.49147 0.47729 0.50466 0.0
C3297 C 0.48283 0.44989 0.49725 0.0
C3298 C 0.48873 0.45129 0.48251 0.0
Tb3299 Tb 0.50415 0.51256 0.50677 0.0
N3300 N 0.4927 0.49015 0.51502 0.0
C3301 C 0.47727 0.46228 0.52268 0.0
C3302 C 0.48555 0.48975 0.52866 0.0
C3303 C 0.47793 0.47579 0.53281 0.0
H3304 H 0.51003 0.50657 0.46807 0.0
H3305 H 0.47252 0.47546 0.54377 0.0
H3306 H 0.53702 0.54531 0.56268 0.0
H3307 H 0.57908 0.5541 0.48329 0.0
H3308 H 0.48577 0.50019 0.53633 0.0
H3309 H 0.47131 0.45149 0.52588 0.0
H3310 H 0.56678 0.53318 0.49736 0.0
H3311 H 0.50891 0.48447 0.44808 0.0
H3312 H 0.47713 0.43873 0.49982 0.0
H3313 H 0.48743 0.44119 0.47391 0.0
H3314 H 0.53988 0.57124 0.57712 0.0
H3315 H 0.49937 0.45818 0.45452 0.0
H3316 H 0.58014 0.58113 0.49403 0.0
N3317 N 0.54681 0.55329 0.54227 0.0
C3318 C 0.55435 0.56547 0.53582 0.0
C3319 C 0.54383 0.5698 0.56542 0.0
C3320 C 0.55629 0.58049 0.54364 0.0
C3321 C 0.54206 0.55513 0.55713 0.0
C3322 C 0.55083 0.58256 0.55857 0.0
N3323 N 0.55859 0.54796 0.5146 0.0
C3324 C 0.56607 0.54481 0.5016 0.0
C3325 C 0.56777 0.57513 0.51412 0.0
C3326 C 0.56003 0.56276 0.52129 0.0
C3327 C 0.57416 0.57195 0.49995 0.0
C3328 C 0.57353 0.55671 0.49382 0.0
H3329 H 0.55216 0.59392 0.56501 0.0
H3330 H 0.56512 0.60453 0.54207 0.0
H3331 H 0.57511 0.59986 0.51619 0.0
O3332 O 0.56935 0.53293 0.53394 0.0
O3333 O 0.5284 0.54529 0.52488 0.0
O3334 O 0.51457 0.53544 0.50095 0.0
O3335 O 0.55415 0.52371 0.55042 0.0
O3336 O 0.54461 0.51739 0.50436 0.0
O3337 O 0.52186 0.52175 0.49206 0.0
O3338 O 0.48477 0.5208 0.51317 0.0
O3339 O 0.51569 0.49782 0.52174 0.0
O3340 O 0.54131 0.50504 0.5194 0.0
O3341 O 0.48533 0.51034 0.48917 0.0
O3342 O 0.50546 0.52447 0.53107 0.0
O3343 O 0.52835 0.52068 0.5437 0.0
C3344 C 0.52092 0.54738 0.51125 0.0
C3345 C 0.5769 0.51387 0.54907 0.0
C3346 C 0.59487 0.49815 0.53981 0.0
C3347 C 0.59375 0.49049 0.55363 0.0
C3348 C 0.57603 0.5062 0.56285 0.0
C3349 C 0.58433 0.49449 0.56502 0.0
C3350 C 0.58622 0.50966 0.53752 0.0
C3351 C 0.53564 0.51857 0.4914 0.0
C3352 C 0.56824 0.52635 0.54701 0.0
C3353 C 0.56363 0.59287 0.53633 0.0
C3354 C 0.56928 0.59021 0.52157 0.0
C3355 C 0.52959 0.4946 0.52203 0.0
C3356 C 0.47132 0.53044 0.49267 0.0
C3357 C 0.45258 0.54688 0.49599 0.0
C3358 C 0.45653 0.55357 0.48214 0.0
C3359 C 0.4753 0.53707 0.47883 0.0
C3360 C 0.46045 0.53574 0.50136 0.0
C3361 C 0.46798 0.54875 0.47369 0.0
C3362 C 0.51413 0.52275 0.54406 0.0
C3363 C 0.47789 0.51786 0.49866 0.0
H3364 H 0.60051 0.48175 0.55588 0.0
H3365 H 0.56897 0.50931 0.57196 0.0
H3366 H 0.58366 0.48867 0.57571 0.0
H3367 H 0.5869 0.51543 0.52677 0.0
H3368 H 0.45056 0.56218 0.47763 0.0
H3369 H 0.48394 0.53325 0.47203 0.0
H3370 H 0.45793 0.53087 0.51235 0.0
H3371 H 0.47095 0.55385 0.46298 0.0
Tb3372 Tb 1.0027 0.52011 0.02624 0.0
C3373 C 0.05937 0.54819 0.98998 0.0
N3374 N 0.04883 0.53504 0.98605 0.0
C3375 C 0.04674 0.5399 0.95855 0.0
C3376 C 0.06392 0.55786 0.97833 0.0
C3377 C 0.04266 0.53063 0.97055 0.0
C3378 C 0.05738 0.5536 0.96245 0.0
C3379 C 0.07656 0.56547 0.01049 0.0
C3380 C 0.06558 0.55196 0.00583 0.0
C3381 C 0.08111 0.5752 0.99893 0.0
C3382 C 0.07479 0.57142 0.98289 0.0
Tb3383 Tb 0.04288 0.52116 0.00668 0.0
N3384 N 0.06051 0.5425 0.01674 0.0
C3385 C 0.08261 0.56872 0.02661 0.0
C3386 C 0.06689 0.54523 0.03229 0.0
C3387 C 0.07787 0.55847 0.03752 0.0
H3388 H 0.03472 0.51987 0.9674 0.0
H3389 H 0.08276 0.56068 0.04993 0.0
H3390 H 0.01196 0.51544 0.06443 0.0
H3391 H 0.96437 0.48479 0.9784 0.0
H3392 H 0.06379 0.53713 0.04063 0.0
H3393 H 0.0911 0.57898 0.03069 0.0
H3394 H 0.98294 0.50771 0.99058 0.0
H3395 H 0.04175 0.53643 0.94628 0.0
H3396 H 0.08951 0.58567 0.00227 0.0
H3397 H 0.07842 0.57904 0.97411 0.0
H3398 H 0.00476 0.49591 0.0826 0.0
H3399 H 0.06053 0.56074 0.95312 0.0
H3400 H 0.95573 0.46396 0.99484 0.0
N3401 N 0.99754 0.50291 0.04427 0.0
C3402 C 0.98671 0.49028 0.03872 0.0
C3403 C 0.99969 0.49414 0.07025 0.0
C3404 C 0.98212 0.47891 0.04873 0.0
C3405 C 0.00393 0.50509 0.05985 0.0
C3406 C 0.98876 0.48098 0.06468 0.0
N3407 N 0.98597 0.4994 0.0132 0.0
C3408 C 0.97989 0.49844 0.99764 0.0
C3409 C 0.96986 0.47531 0.01635 0.0
C3410 C 0.98073 0.48847 0.02267 0.0
C3411 C 0.96412 0.4739 0.00017 0.0
C3412 C 0.96906 0.48558 0.99081 0.0
H3413 H 0.98552 0.47251 0.07277 0.0
H3414 H 0.96754 0.45693 0.04999 0.0
H3415 H 0.95678 0.4538 0.02169 0.0
O3416 O 0.9827 0.52965 0.02026 0.0
O3417 O 0.01169 0.4981 0.02235 0.0
O3418 O 0.02436 0.50118 0.00016 0.0
O3419 O 0.99129 0.52806 0.04492 0.0
O3420 O 0.00427 0.52899 0.00299 0.0
O3421 O 0.02103 0.51535 0.992 0.0
O3422 O 0.06031 0.50986 0.01584 0.0
O3423 O 0.0362 0.54405 0.01202 0.0
O3424 O 0.01893 0.54223 0.03129 0.0
O3425 O 0.05458 0.50964 0.99046 0.0
O3426 O 0.04021 0.51415 0.03047 0.0
O3427 O 0.02366 0.52784 0.04221 0.0
C3428 C 0.01805 0.49224 0.01022 0.0
C3429 C 0.96845 0.53928 0.04171 0.0
C3430 C 0.94546 0.55083 0.03839 0.0
C3431 C 0.9451 0.55202 0.05506 0.0
C3432 C 0.96773 0.54067 0.05836 0.0
C3433 C 0.95618 0.54703 0.06494 0.0
C3434 C 0.9573 0.54456 0.03169 0.0
C3435 C 0.01142 0.52482 0.99088 0.0
C3436 C 0.98091 0.53225 0.03535 0.0
C3437 C 0.97123 0.4658 0.04248 0.0
C3438 C 0.96512 0.46401 0.02634 0.0
C3439 C 0.02839 0.55029 0.02268 0.0
C3440 C 0.08014 0.50752 0.9991 0.0
C3441 C 0.10428 0.49788 0.00131 0.0
C3442 C 0.11036 0.50876 0.99148 0.0
C3443 C 0.08658 0.51847 0.98948 0.0
C3444 C 0.08914 0.49731 0.00517 0.0
C3445 C 0.10159 0.51905 0.98571 0.0
C3446 C 0.03589 0.5215 0.04291 0.0
C3447 C 0.06372 0.50565 0.0016 0.0
H3448 H 0.93624 0.55693 0.06048 0.0
H3449 H 0.97611 0.53681 0.0664 0.0
H3450 H 0.95579 0.54805 0.07777 0.0
H3451 H 0.95766 0.54361 0.01884 0.0
H3452 H 0.12193 0.50929 0.98828 0.0
H3453 H 0.07992 0.52637 0.98457 0.0
H3454 H 0.08427 0.48871 0.01248 0.0
H3455 H 0.10638 0.52739 0.97812 0.0
H3456 H 0.9894 0.17027 0.94925 0.0
H3457 H 0.99215 0.14569 0.95897 0.0
H3458 H 0.02758 0.16913 0.9956 0.0
H3459 H 0.02465 0.19378 0.98624 0.0
H3460 H 0.01715 0.13133 0.9606 0.0
H3461 H 1.001 0.14175 0.02194 0.0
H3462 H 0.99738 0.15391 0.00659 0.0
H3463 H 0.01626 0.15607 0.01717 0.0
C3464 C 0.99762 0.17032 0.95955 0.0
C3465 C 0.00674 0.18429 0.96689 0.0
C3466 C 0.99927 0.15613 0.96506 0.0
C3467 C 0.00995 0.15533 0.97823 0.0
C3468 C 0.01903 0.16924 0.98563 0.0
H3469 H 0.03581 0.07832 0.02772 0.0
H3470 H 0.03333 0.1036 0.01955 0.0
C3471 C 0.01745 0.18343 0.98008 0.0
C3472 C 0.012 0.13998 0.98372 0.0
H3473 H 0.0111 0.11917 0.01606 0.0
C3474 C 0.01575 0.1287 0.97273 0.0
C3475 C 0.01037 0.13636 0.9996 0.0
C3476 C 0.0059 0.14759 0.01199 0.0
C3477 C 0.01812 0.11423 0.97711 0.0
C3478 C 0.01623 0.11046 0.99292 0.0
C3479 C 0.01257 0.12181 0.00395 0.0
C3480 C 0.01778 0.09484 0.99811 0.0
C3481 C 0.02316 0.10335 0.96475 0.0
C3482 C 0.00971 0.08119 0.98917 0.0
C3483 C 0.01145 0.06668 0.99363 0.0
C3484 C 0.02106 0.06518 0.00744 0.0
C3485 C 0.02863 0.07883 0.01682 0.0
C3486 C 0.02708 0.09341 0.01218 0.0
H3487 H 0.02911 0.10964 0.95566 0.0
H3488 H 0.031 0.09642 0.97033 0.0
H3489 H 0.01291 0.09546 0.95836 0.0
H3490 H 1.00193 0.08168 0.97867 0.0
H3491 H 0.00512 0.05656 0.98619 0.0
H3492 H 0.11923 0.80207 0.18161 0.0
H3493 H 0.14324 0.80134 0.19795 0.0
H3494 H 0.15201 0.76539 0.1642 0.0
H3495 H 0.12853 0.76656 0.14742 0.0
H3496 H 0.15313 0.77969 0.21372 0.0
H3497 H 0.1927 0.79335 0.16818 0.0
H3498 H 0.17282 0.79525 0.16535 0.0
H3499 H 0.17818 0.77676 0.16141 0.0
C3500 C 0.12635 0.79417 0.17744 0.0
C3501 C 0.12172 0.78444 0.16296 0.0
C3502 C 0.14012 0.79367 0.18695 0.0
C3503 C 0.1498 0.78351 0.18231 0.0
C3504 C 0.14511 0.77365 0.168 0.0
H3505 H 0.23462 0.75804 0.22429 0.0
H3506 H 0.21104 0.76021 0.20779 0.0
C3507 C 0.13141 0.77418 0.15846 0.0
C3508 C 0.16453 0.78293 0.19256 0.0
H3509 H 0.20318 0.78402 0.19156 0.0
C3510 C 0.16407 0.78077 0.20885 0.0
C3511 C 0.17898 0.78434 0.18642 0.0
C3512 C 0.18077 0.78771 0.16943 0.0
C3513 C 0.17736 0.77957 0.21889 0.0
C3514 C 0.19175 0.78074 0.21267 0.0
C3515 C 0.19224 0.78301 0.19643 0.0
C3516 C 0.20636 0.7796 0.22273 0.0
C3517 C 0.17578 0.77661 0.23603 0.0
C3518 C 0.21195 0.78988 0.23659 0.0
C3519 C 0.22559 0.78874 0.24592 0.0
C3520 C 0.23411 0.77737 0.24164 0.0
C3521 C 0.2286 0.76717 0.22773 0.0
C3522 C 0.21498 0.76832 0.21836 0.0
H3523 H 0.16369 0.77201 0.2378 0.0
H3524 H 0.18307 0.76838 0.23984 0.0
H3525 H 0.17954 0.78757 0.24393 0.0
H3526 H 0.20586 0.79895 0.24012 0.0
H3527 H 0.22963 0.79698 0.25635 0.0
H3528 H 0.53514 0.84912 0.47694 0.0
H3529 H 0.53669 0.87636 0.48587 0.0
H3530 H 0.48814 0.87187 0.47232 0.0
H3531 H 0.48648 0.84474 0.46318 0.0
H3532 H 0.53103 0.9001 0.47 0.0
H3533 H 0.49139 0.89396 0.51668 0.0
H3534 H 0.49862 0.8779 0.50761 0.0
H3535 H 0.48271 0.88449 0.49748 0.0
C3536 C 0.52474 0.85383 0.47575 0.0
C3537 C 0.51065 0.84436 0.46928 0.0
C3538 C 0.52565 0.86954 0.481 0.0
C3539 C 0.51251 0.87639 0.48012 0.0
C3540 C 0.49845 0.867 0.47365 0.0
H3541 H 0.49537 0.97094 0.49809 0.0
H3542 H 0.49337 0.94324 0.49097 0.0
C3543 C 0.49752 0.85131 0.46837 0.0
C3544 C 0.51362 0.89337 0.48534 0.0
H3545 H 0.49867 0.91919 0.50923 0.0
C3546 C 0.524 0.9042 0.47867 0.0
C3547 C 0.50451 0.89901 0.49668 0.0
C3548 C 0.49379 0.88825 0.50516 0.0
C3549 C 0.52525 0.92023 0.48265 0.0
C3550 C 0.51605 0.92586 0.49386 0.0
C3551 C 0.50571 0.91505 0.50058 0.0
C3552 C 0.51712 0.94285 0.49881 0.0
C3553 C 0.53618 0.93103 0.47442 0.0
C3554 C 0.53102 0.9521 0.50594 0.0
C3555 C 0.5321 0.96797 0.51029 0.0
C3556 C 0.51931 0.97519 0.50772 0.0
C3557 C 0.50538 0.96589 0.50065 0.0
C3558 C 0.50426 0.94997 0.49643 0.0
H3559 H 0.5392 0.92526 0.46322 0.0
H3560 H 0.53119 0.94116 0.47147 0.0
H3561 H 0.54695 0.93518 0.48254 0.0
H3562 H 0.5411 0.94703 0.50824 0.0
H3563 H 0.54307 0.97458 0.51569 0.0
H3564 H 0.45731 0.28508 0.63737 0.0
H3565 H 0.43462 0.2838 0.65197 0.0
H3566 H 0.45989 0.27041 0.6927 0.0
H3567 H 0.48264 0.27185 0.6783 0.0
H3568 H 0.4184 0.25828 0.66482 0.0
H3569 H 0.44119 0.30575 0.71291 0.0
H3570 H 0.45 0.30337 0.69464 0.0
H3571 H 0.45332 0.29175 0.71046 0.0
C3572 C 0.45814 0.28205 0.64951 0.0
C3573 C 0.47194 0.2786 0.6566 0.0
C3574 C 0.44508 0.28124 0.65784 0.0
C3575 C 0.44549 0.2772 0.67358 0.0
C3576 C 0.45925 0.27381 0.6807 0.0
H3577 H 0.38225 0.25611 0.74393 0.0
H3578 H 0.40444 0.26373 0.72938 0.0
C3579 C 0.47226 0.27447 0.67234 0.0
C3580 C 0.43143 0.27598 0.68234 0.0
H3581 H 0.41775 0.28955 0.71648 0.0
C3582 C 0.41821 0.26524 0.67603 0.0
C3583 C 0.43109 0.28501 0.69702 0.0
C3584 C 0.44459 0.29723 0.70413 0.0
C3585 C 0.40497 0.2629 0.68418 0.0
C3586 C 0.40467 0.27181 0.69897 0.0
C3587 C 0.41783 0.28273 0.70516 0.0
C3588 C 0.39121 0.26926 0.70861 0.0
C3589 C 0.39165 0.25041 0.67717 0.0
C3590 C 0.3763 0.27052 0.70227 0.0
C3591 C 0.36356 0.26632 0.71074 0.0
C3592 C 0.36544 0.26085 0.72577 0.0
C3593 C 0.38044 0.26049 0.73249 0.0
C3594 C 0.39314 0.26475 0.72409 0.0
H3595 H 0.39506 0.24224 0.66802 0.0
H3596 H 0.38678 0.24386 0.68666 0.0
H3597 H 0.3825 0.25569 0.67132 0.0
H3598 H 0.37444 0.27425 0.69052 0.0
H3599 H 0.35215 0.26647 0.70511 0.0
H3600 H 0.03549 0.81601 0.61241 0.0
H3601 H 0.0372 0.83895 0.59828 0.0
H3602 H 1.00096 0.85295 0.62318 0.0
H3603 H 0.99956 0.83038 0.63781 0.0
H3604 H 0.01646 0.84936 0.57792 0.0
H3605 H 0.03343 0.89142 0.63207 0.0
H3606 H 0.03337 0.87118 0.63252 0.0
H3607 H 0.01573 0.8784 0.63277 0.0
C3608 C 0.02799 0.82403 0.61508 0.0
C3609 C 0.01747 0.82125 0.62647 0.0
C3610 C 0.0289 0.83714 0.60684 0.0
C3611 C 0.01941 0.84795 0.60979 0.0
C3612 C 0.00867 0.84505 0.62087 0.0
H3613 H 0.01393 0.93768 0.57641 0.0
H3614 H 0.00832 0.91291 0.58739 0.0
C3615 C 0.00775 0.83195 0.62912 0.0
C3616 C 0.02079 0.86219 0.60131 0.0
H3617 H 0.02787 0.90152 0.60768 0.0
C3618 C 0.01899 0.86076 0.58446 0.0
C3619 C 0.02408 0.87717 0.60972 0.0
C3620 C 0.02691 0.8797 0.62776 0.0
C3621 C 0.02017 0.87375 0.57587 0.0
C3622 C 0.02352 0.88871 0.58429 0.0
C3623 C 0.02523 0.89013 0.60114 0.0
C3624 C 0.02572 0.90308 0.57601 0.0
C3625 C 0.01751 0.87129 0.55783 0.0
C3626 C 0.03723 0.90588 0.5657 0.0
C3627 C 0.04034 0.92002 0.55933 0.0
C3628 C 0.03202 0.93169 0.56307 0.0
C3629 C 0.02027 0.92877 0.57302 0.0
C3630 C 0.01717 0.91465 0.57941 0.0
H3631 H 0.01067 0.85972 0.55348 0.0
H3632 H 0.01147 0.88008 0.55301 0.0
H3633 H 0.02874 0.87219 0.55296 0.0
H3634 H 0.04429 0.89741 0.56314 0.0
H3635 H 0.04974 0.92211 0.55205 0.0
H3636 H 0.4532 0.80569 0.80211 0.0
H3637 H 0.42582 0.80386 0.79354 0.0
H3638 H 0.41561 0.76173 0.815 0.0
H3639 H 0.4428 0.76372 0.82412 0.0
H3640 H 0.40389 0.7821 0.774 0.0
H3641 H 0.387 0.78639 0.83553 0.0
H3642 H 0.40678 0.79055 0.83155 0.0
H3643 H 0.39711 0.77098 0.8313 0.0
C3644 C 0.44518 0.79608 0.8052 0.0
C3645 C 0.45052 0.78495 0.81405 0.0
C3646 C 0.42942 0.79499 0.80013 0.0
C3647 C 0.41837 0.78281 0.80382 0.0
C3648 C 0.42368 0.77147 0.81223 0.0
H3649 H 0.31788 0.75802 0.79307 0.0
H3650 H 0.34553 0.75986 0.79896 0.0
C3651 C 0.43942 0.77253 0.81729 0.0
C3652 C 0.40138 0.78204 0.7991 0.0
H3653 H 0.3668 0.78013 0.8144 0.0
C3654 C 0.3958 0.78173 0.78287 0.0
C3655 C 0.39061 0.78155 0.81052 0.0
C3656 C 0.39565 0.78253 0.82821 0.0
C3657 C 0.37993 0.78046 0.77777 0.0
C3658 C 0.36912 0.77993 0.78922 0.0
C3659 C 0.3748 0.78043 0.80546 0.0
C3660 C 0.35194 0.77859 0.78483 0.0
C3661 C 0.37495 0.77913 0.76003 0.0
C3662 C 0.34582 0.78842 0.77482 0.0
C3663 C 0.32981 0.78714 0.77112 0.0
C3664 C 0.31928 0.77636 0.77771 0.0
C3665 C 0.32542 0.76661 0.7878 0.0
C3666 C 0.3414 0.76768 0.79124 0.0
H3667 H 0.38346 0.77469 0.75292 0.0
H3668 H 0.36364 0.77141 0.75679 0.0
H3669 H 0.37403 0.79068 0.75654 0.0
H3670 H 0.3534 0.79729 0.76997 0.0
H3671 H 0.32576 0.79472 0.76315 0.0
H3672 H 0.49004 0.17461 0.10623 0.0
H3673 H 0.49059 0.15033 0.09033 0.0
H3674 H 0.53191 0.14614 0.11911 0.0
H3675 H 0.53092 0.16972 0.13568 0.0
H3676 H 0.5102 0.14118 0.07146 0.0
H3677 H 0.50789 0.10443 0.12078 0.0
H3678 H 0.5046 0.12389 0.12336 0.0
H3679 H 0.52389 0.12008 0.12461 0.0
C3680 C 0.49911 0.16843 0.10946 0.0
C3681 C 0.51038 0.17437 0.12249 0.0
C3682 C 0.49949 0.15452 0.10017 0.0
C3683 C 0.51112 0.14604 0.10359 0.0
C3684 C 0.52253 0.15207 0.11637 0.0
H3685 H 0.54002 0.06389 0.06148 0.0
H3686 H 0.53708 0.0875 0.07721 0.0
C3687 C 0.52208 0.16586 0.12574 0.0
C3688 C 0.51156 0.13114 0.09367 0.0
H3689 H 0.51497 0.09361 0.09625 0.0
C3690 C 0.5111 0.13077 0.07691 0.0
C3691 C 0.51267 0.11737 0.1006 0.0
C3692 C 0.51213 0.1164 0.1183 0.0
C3693 C 0.51225 0.11733 0.06708 0.0
C3694 C 0.51372 0.10369 0.07408 0.0
C3695 C 0.51397 0.10401 0.09079 0.0
C3696 C 0.51529 0.08906 0.06441 0.0
C3697 C 0.51233 0.11804 0.04929 0.0
C3698 C 0.50397 0.08175 0.052 0.0
C3699 C 0.50556 0.06805 0.04309 0.0
C3700 C 0.5184 0.06112 0.04649 0.0
C3701 C 0.52969 0.06844 0.05892 0.0
C3702 C 0.52811 0.08214 0.06781 0.0
H3703 H 0.51524 0.13006 0.04637 0.0
H3704 H 0.52067 0.11141 0.04442 0.0
H3705 H 0.50074 0.11297 0.04316 0.0
H3706 H 0.4938 0.08657 0.04925 0.0
H3707 H 0.49663 0.06279 0.03361 0.0
H3708 H 0.10215 0.26967 0.29964 0.0
H3709 H 0.12709 0.26741 0.29051 0.0
H3710 H 0.14898 0.30591 0.32443 0.0
H3711 H 0.1242 0.30809 0.33386 0.0
H3712 H 0.14931 0.2885 0.27732 0.0
H3713 H 0.17433 0.2731 0.33486 0.0
H3714 H 0.154 0.27252 0.33035 0.0
H3715 H 0.16678 0.29055 0.33645 0.0
C3716 C 0.11224 0.27763 0.30531 0.0
C3717 C 0.1109 0.28902 0.31769 0.0
C3718 C 0.12659 0.27637 0.29994 0.0
C3719 C 0.14018 0.28631 0.30687 0.0
C3720 C 0.13885 0.29787 0.31898 0.0
H3721 H 0.23886 0.29127 0.29981 0.0
H3722 H 0.21352 0.29451 0.3067 0.0
C3723 C 0.12451 0.29921 0.32428 0.0
C3724 C 0.15566 0.28454 0.30156 0.0
H3725 H 0.19109 0.27757 0.31504 0.0
C3726 C 0.15843 0.28607 0.28558 0.0
C3727 C 0.16775 0.28142 0.3122 0.0
C3728 C 0.1656 0.27916 0.32939 0.0
C3729 C 0.17288 0.28505 0.28013 0.0
C3730 C 0.185 0.28178 0.29076 0.0
C3731 C 0.18209 0.28011 0.30672 0.0
C3732 C 0.20078 0.28028 0.28585 0.0
C3733 C 0.17504 0.28813 0.26313 0.0
C3734 C 0.20264 0.27124 0.27175 0.0
C3735 C 0.21735 0.26998 0.26742 0.0
C3736 C 0.23083 0.27711 0.27734 0.0
C3737 C 0.22895 0.28582 0.29161 0.0
C3738 C 0.21428 0.2875 0.2957 0.0
H3739 H 0.16704 0.29544 0.25859 0.0
H3740 H 0.18695 0.29392 0.2621 0.0
H3741 H 0.1725 0.27709 0.25526 0.0
H3742 H 0.1927 0.26497 0.26405 0.0
H3743 H 0.21809 0.26335 0.25623 0.0
H3744 H 0.947 0.03763 0.17272 0.0
H3745 H 0.95797 0.03934 0.14735 0.0
H3746 H 0.98257 0.00307 0.1574 0.0
H3747 H 0.97187 1.00143 0.183 0.0
H3748 H 0.98864 0.04546 0.14065 0.0
H3749 H 0.95915 0.98745 0.11312 0.0
H3750 H 0.9537 0.99668 0.13111 0.0
H3751 H 0.97024 0.98762 0.13205 0.0
C3752 C 0.95489 0.03011 0.1697 0.0
C3753 C 0.95848 0.01935 0.18001 0.0
C3754 C 0.96109 0.03106 0.15509 0.0
C3755 C 0.97092 0.02119 0.15032 0.0
C3756 C 0.97475 0.01059 0.16065 0.0
H3757 H 0.02096 0.00855 0.06861 0.0
H3758 H 0.01049 0.00862 0.09434 0.0
C3759 C 0.96859 0.00966 0.1753 0.0
C3760 C 0.97709 0.02198 0.13453 0.0
H3761 H 0.97777 1.00091 0.09866 0.0
C3762 C 0.98619 0.03575 0.13144 0.0
C3763 C 0.97387 0.00932 0.12247 0.0
C3764 C 0.96359 0.99447 0.12474 0.0
C3765 C 0.9924 0.03707 0.11677 0.0
C3766 C 0.98926 0.02438 0.10479 0.0
C3767 C 0.98013 0.01065 0.10785 0.0
C3768 C 0.99579 0.02489 0.08921 0.0
C3769 C 1.00261 0.05189 0.11428 0.0
C3770 C 0.99093 0.03397 0.07768 0.0
C3771 C 0.99684 0.0339 0.06282 0.0
C3772 C 0.0078 0.02482 0.05932 0.0
C3773 C 0.01263 0.01579 0.07095 0.0
C3774 C 0.00664 0.01577 0.08567 0.0
H3775 H 0.00592 0.05973 0.12557 0.0
H3776 H 0.0132 0.04952 0.10933 0.0
H3777 H 0.99647 0.05785 0.10548 0.0
H3778 H 0.98242 0.04097 0.08011 0.0
H3779 H 0.99289 0.04095 0.05411 0.0
H3780 H 0.24783 0.68531 0.46791 0.0
H3781 H 0.24915 0.69891 0.44408 0.0
H3782 H 0.29125 0.68343 0.43534 0.0
H3783 H 0.2895 0.66898 0.45845 0.0
H3784 H 0.27074 0.72151 0.43431 0.0
H3785 H 0.2632 0.6664 0.39478 0.0
H3786 H 0.26063 0.66708 0.41574 0.0
H3787 H 0.27963 0.66992 0.40956 0.0
C3788 C 0.2573 0.68471 0.46084 0.0
C3789 C 0.26844 0.67592 0.46493 0.0
C3790 C 0.25815 0.69264 0.44739 0.0
C3791 C 0.27019 0.69195 0.43792 0.0
C3792 C 0.28175 0.68387 0.44241 0.0
H3793 H 0.27307 0.72389 0.34288 0.0
H3794 H 0.28271 0.71841 0.36961 0.0
C3795 C 0.2808 0.67576 0.45571 0.0
C3796 C 0.26991 0.69871 0.42268 0.0
H3797 H 0.26513 0.68898 0.38228 0.0
C3798 C 0.2697 0.71446 0.42292 0.0
C3799 C 0.26851 0.68939 0.40789 0.0
C3800 C 0.26786 0.67224 0.40689 0.0
C3801 C 0.26758 0.72106 0.40864 0.0
C3802 C 0.26573 0.71163 0.39397 0.0
C3803 C 0.2667 0.69609 0.39369 0.0
C3804 C 0.26069 0.71695 0.37882 0.0
C3805 C 0.26681 0.73789 0.40925 0.0
C3806 C 0.24515 0.71768 0.37535 0.0
C3807 C 0.23959 0.72033 0.3601 0.0
C3808 C 0.24957 0.7224 0.34826 0.0
C3809 C 0.26521 0.7221 0.35188 0.0
C3810 C 0.27073 0.71918 0.36708 0.0
H3811 H 0.27131 0.74418 0.42122 0.0
H3812 H 0.27344 0.74326 0.40006 0.0
H3813 H 0.25468 0.73915 0.40656 0.0
H3814 H 0.23727 0.71575 0.38431 0.0
H3815 H 0.22755 0.72088 0.35756 0.0
H3816 H 0.63111 0.04444 0.66886 0.0
H3817 H 0.61435 0.04362 0.64407 0.0
H3818 H 0.58805 1.00036 0.65327 0.0
H3819 H 0.60438 1.00141 0.67846 0.0
H3820 H 0.6085 0.02149 0.61801 0.0
H3821 H 0.55585 0.02769 0.64664 0.0
H3822 H 0.57472 0.0314 0.65769 0.0
H3823 H 0.5645 0.012 0.65257 0.0
C3824 C 0.62165 0.03485 0.66564 0.0
C3825 C 0.61883 0.02307 0.67554 0.0
C3826 C 0.61221 0.03436 0.65151 0.0
C3827 C 0.59993 0.02208 0.64718 0.0
C3828 C 0.59736 0.01005 0.65674 0.0
H3829 H 0.55012 0.997 0.55427 0.0
H3830 H 0.56528 0.99766 0.58011 0.0
C3831 C 0.60675 0.01058 0.67094 0.0
C3832 C 0.58985 0.02185 0.63251 0.0
H3833 H 0.55276 0.02157 0.61835 0.0
C3834 C 0.59632 0.02157 0.61802 0.0
C3835 C 0.5741 0.02225 0.63283 0.0
C3836 C 0.56688 0.02351 0.64828 0.0
C3837 C 0.58728 0.02138 0.6036 0.0
C3838 C 0.57139 0.02103 0.60387 0.0
C3839 C 0.56497 0.02163 0.61837 0.0
C3840 C 0.56125 0.02003 0.58913 0.0
C3841 C 0.59479 0.02175 0.58828 0.0
C3842 C 0.55352 0.03209 0.58625 0.0
C3843 C 0.5447 0.03161 0.57171 0.0
C3844 C 0.54371 0.0191 0.56003 0.0
C3845 C 0.55095 0.00678 0.56318 0.0
C3846 C 0.55959 0.00718 0.57779 0.0
H3847 H 0.60737 0.02608 0.59063 0.0
H3848 H 0.59297 0.00993 0.58202 0.0
H3849 H 0.58971 0.0291 0.58013 0.0
H3850 H 0.55472 0.04204 0.59504 0.0
H3851 H 0.53923 0.04125 0.56932 0.0
H3852 H 0.28863 0.31415 0.95071 0.0
H3853 H 0.28883 0.30272 0.92316 0.0
H3854 H 0.26106 0.33411 0.90578 0.0
H3855 H 0.26105 0.3458 0.93317 0.0
H3856 H 0.26421 0.28881 0.89872 0.0
H3857 H 0.2991 0.34131 0.88101 0.0
H3858 H 0.29726 0.33837 0.90167 0.0
H3859 H 0.28211 0.34446 0.88975 0.0
C3860 C 0.2826 0.31867 0.94103 0.0
C3861 C 0.27492 0.33101 0.94423 0.0
C3862 C 0.28264 0.31204 0.92528 0.0
C3863 C 0.27516 0.31769 0.91234 0.0
C3864 C 0.26711 0.32969 0.91552 0.0
H3865 H 0.26386 0.30265 0.80936 0.0
H3866 H 0.26376 0.31057 0.83772 0.0
C3867 C 0.267 0.33627 0.93125 0.0
C3868 C 0.27607 0.31137 0.8955 0.0
H3869 H 0.28845 0.32155 0.86017 0.0
C3870 C 0.2696 0.29592 0.89031 0.0
C3871 C 0.28317 0.32061 0.88451 0.0
C3872 C 0.29094 0.33707 0.8895 0.0
C3873 C 0.26957 0.28966 0.8743 0.0
C3874 C 0.27645 0.29901 0.86326 0.0
C3875 C 0.28315 0.31436 0.86857 0.0
C3876 C 0.27621 0.29345 0.84595 0.0
C3877 C 0.26168 0.27326 0.86922 0.0
C3878 C 0.28327 0.28111 0.84096 0.0
C3879 C 0.28331 0.27646 0.82457 0.0
C3880 C 0.27644 0.28415 0.81284 0.0
C3881 C 0.26935 0.29644 0.81795 0.0
C3882 C 0.26927 0.30103 0.83424 0.0
H3883 H 0.25398 0.26879 0.87803 0.0
H3884 H 0.25483 0.27222 0.85735 0.0
H3885 H 0.27047 0.26589 0.8682 0.0
H3886 H 0.28893 0.27521 0.84971 0.0
H3887 H 0.28875 0.26688 0.82114 0.0
H3888 H 0.98053 0.03806 0.33759 0.0
H3889 H 0.99281 0.03864 0.36494 0.0
H3890 H 0.95855 1.00018 0.37273 0.0
H3891 H 0.9462 0.99956 0.34557 0.0
H3892 H 0.98185 0.0427 0.39416 0.0
H3893 H 0.99819 0.98552 0.38586 0.0
H3894 H 0.99202 0.99522 0.36926 0.0
H3895 H 0.9781 0.98478 0.3803 0.0
C3896 C 0.97557 0.02975 0.34513 0.0
C3897 C 0.96246 0.01863 0.33924 0.0
C3898 C 0.98265 0.03006 0.36076 0.0
C3899 C 0.97683 0.01923 0.3708 0.0
C3900 C 0.96355 0.00836 0.36508 0.0
H3901 H 0.98848 0.02395 0.47364 0.0
H3902 H 0.98046 0.02483 0.44541 0.0
C3903 C 0.95649 0.00803 0.3495 0.0
C3904 C 0.98434 0.01941 0.38738 0.0
H3905 H 0.99903 0.99662 0.41295 0.0
C3906 C 0.98574 0.03267 0.39822 0.0
C3907 C 0.98974 0.00645 0.39266 0.0
C3908 C 0.9896 0.99224 0.38137 0.0
C3909 C 0.99178 0.03311 0.41431 0.0
C3910 C 0.99623 0.01979 0.41984 0.0
C3911 C 0.99544 0.00676 0.40883 0.0
C3912 C 1.0012 0.01897 0.43707 0.0
C3913 C 0.99339 0.0479 0.42518 0.0
C3914 C 0.01526 0.01464 0.44186 0.0
C3915 C 0.01978 0.01383 0.45809 0.0
C3916 C 0.01034 0.01737 0.46984 0.0
C3917 C 0.99616 0.02139 0.46496 0.0
C3918 C 0.99159 0.02202 0.44878 0.0
H3919 H 0.99444 0.058 0.41826 0.0
H3920 H 0.98299 0.04766 0.43152 0.0
H3921 H 0.00357 0.04949 0.43425 0.0
H3922 H 0.02281 0.01206 0.43305 0.0
H3923 H 0.03076 0.01067 0.46145 0.0
H3924 H 0.29511 0.69084 0.60654 0.0
H3925 H 0.29754 0.70869 0.6309 0.0
H3926 H 0.25426 0.68489 0.64293 0.0
H3927 H 0.25195 0.66672 0.61884 0.0
H3928 H 0.27621 0.72775 0.63896 0.0
H3929 H 0.28464 0.68677 0.68344 0.0
H3930 H 0.28687 0.68271 0.66251 0.0
H3931 H 0.26803 0.68059 0.66901 0.0
C3932 C 0.28625 0.68931 0.61453 0.0
C3933 C 0.27338 0.67745 0.61096 0.0
C3934 C 0.2876 0.69952 0.62829 0.0
C3935 C 0.27613 0.69791 0.6386 0.0
C3936 C 0.26327 0.6861 0.6351 0.0
H3937 H 0.2552 0.75929 0.71384 0.0
H3938 H 0.25661 0.74553 0.68765 0.0
C3939 C 0.26192 0.67586 0.62135 0.0
C3940 C 0.27746 0.70882 0.65291 0.0
H3941 H 0.28025 0.71124 0.69351 0.0
C3942 C 0.27723 0.72425 0.65093 0.0
C3943 C 0.27888 0.70404 0.66836 0.0
C3944 C 0.27976 0.68765 0.67102 0.0
C3945 C 0.27812 0.73512 0.6642 0.0
C3946 C 0.27908 0.73024 0.67961 0.0
C3947 C 0.27953 0.71485 0.68157 0.0
C3948 C 0.2793 0.74073 0.69404 0.0
C3949 C 0.27808 0.75168 0.66166 0.0
C3950 C 0.29164 0.74257 0.70604 0.0
C3951 C 0.29073 0.75011 0.72096 0.0
C3952 C 0.27752 0.75595 0.72391 0.0
C3953 C 0.26552 0.75491 0.71164 0.0
C3954 C 0.26636 0.74718 0.69674 0.0
H3955 H 0.28119 0.75416 0.6496 0.0
H3956 H 0.2664 0.75416 0.66271 0.0
H3957 H 0.28621 0.75955 0.67086 0.0
H3958 H 0.30167 0.73757 0.70406 0.0
H3959 H 0.30013 0.75097 0.73032 0.0
H3960 H 0.64234 0.04551 0.83907 0.0
H3961 H 0.62887 0.0447 0.863 0.0
H3962 H 0.59212 0.01047 0.83735 0.0
H3963 H 0.60559 0.01118 0.81335 0.0
H3964 H 0.60025 0.05169 0.86474 0.0
H3965 H 0.60136 0.99228 0.8793 0.0
H3966 H 0.61372 1.00159 0.8659 0.0
H3967 H 0.59402 0.99339 0.85897 0.0
C3968 C 0.63139 0.03782 0.83856 0.0
C3969 C 0.62495 0.02842 0.82444 0.0
C3970 C 0.62381 0.03727 0.85222 0.0
C3971 C 0.60972 0.0273 0.85194 0.0
C3972 C 0.60322 0.01791 0.83786 0.0
H3973 H 0.53566 0.02986 0.90717 0.0
H3974 H 0.55277 0.02295 0.88771 0.0
C3975 C 0.61084 0.0184 0.82419 0.0
C3976 C 0.60119 0.02779 0.86596 0.0
H3977 H 0.58441 0.00587 0.89288 0.0
C3978 C 0.59695 0.04174 0.87102 0.0
C3979 C 0.59698 0.01473 0.87404 0.0
C3980 C 0.60187 0.99968 0.86939 0.0
C3981 C 0.58819 0.04289 0.88378 0.0
C3982 C 0.5836 0.02976 0.89155 0.0
C3983 C 0.58803 0.01585 0.88675 0.0
C3984 C 0.57346 0.03041 0.90412 0.0
C3985 C 0.58355 0.05804 0.8887 0.0
C3986 C 0.5796 0.03646 0.91974 0.0
C3987 C 0.56991 0.04051 0.93078 0.0
C3988 C 0.55404 0.03861 0.92619 0.0
C3989 C 0.54789 0.03165 0.91082 0.0
C3990 C 0.55757 0.02753 0.89983 0.0
H3991 H 0.5879 0.0671 0.88118 0.0
H3992 H 0.57085 0.05655 0.88781 0.0
H3993 H 0.58807 0.06202 0.90138 0.0
H3994 H 0.5919 0.03887 0.92306 0.0
H3995 H 0.57489 0.04589 0.94259 0.0
H3996 H 0.25524 0.34434 0.10916 0.0
H3997 H 0.25371 0.33345 0.13459 0.0
H3998 H 0.29552 0.3164 0.12887 0.0
H3999 H 0.29698 0.32691 0.10316 0.0
H4000 H 0.25266 0.30242 0.14174 0.0
H4001 H 0.30416 0.34199 0.1734 0.0
H4002 H 0.29466 0.34559 0.15466 0.0
H4003 H 0.30717 0.3318 0.1549 0.0
C4004 C 0.26404 0.33811 0.11312 0.0
C4005 C 0.27628 0.3366 0.10397 0.0
C4006 C 0.26317 0.33195 0.12777 0.0
C4007 C 0.27459 0.32428 0.13378 0.0
C4008 C 0.28671 0.32253 0.12464 0.0
H4009 H 0.28411 0.27139 0.21391 0.0
H4010 H 0.28402 0.28192 0.18816 0.0
C4011 C 0.28755 0.32861 0.10993 0.0
C4012 C 0.27384 0.3182 0.14964 0.0
H4013 H 0.29278 0.32181 0.1874 0.0
C4014 C 0.2614 0.30671 0.15173 0.0
C4015 C 0.2852 0.32385 0.16274 0.0
C4016 C 0.2985 0.33658 0.16144 0.0
C4017 C 0.26021 0.30053 0.16643 0.0
C4018 C 0.27166 0.30605 0.1794 0.0
C4019 C 0.28401 0.31763 0.17741 0.0
C4020 C 0.27126 0.29956 0.19498 0.0
C4021 C 0.24684 0.28801 0.16808 0.0
C4022 C 0.26412 0.30604 0.2074 0.0
C4023 C 0.26411 0.30003 0.22221 0.0
C4024 C 0.27121 0.28739 0.2248 0.0
C4025 C 0.27835 0.28099 0.21228 0.0
C4026 C 0.27837 0.28701 0.19755 0.0
H4027 H 0.23873 0.28507 0.15695 0.0
H4028 H 0.25114 0.27752 0.17112 0.0
H4029 H 0.24054 0.29168 0.17807 0.0
H4030 H 0.2586 0.31578 0.20564 0.0
H4031 H 0.25856 0.30524 0.2316 0.0
H4032 H 0.21775 0.9659 0.97105 0.0
H4033 H 0.19335 0.97536 0.9695 0.0
H4034 H 0.18556 0.96096 0.01593 0.0
H4035 H 0.20948 0.95121 0.01744 0.0
H4036 H 0.15983 0.95181 0.98681 0.0
H4037 H 0.18624 0.01374 0.00254 0.0
H4038 H 0.1942 1.00153 0.98857 0.0
H4039 H 0.19612 0.99913 0.00947 0.0
C4040 C 0.21074 0.96471 0.98085 0.0
C4041 C 0.21549 0.95795 0.99441 0.0
C4042 C 0.19692 0.97011 0.97995 0.0
C4043 C 0.18783 0.96872 0.99258 0.0
C4044 C 0.19253 0.96201 0.00608 0.0
H4045 H 0.12068 0.98338 0.0458 0.0
H4046 H 0.1371 0.97247 0.02797 0.0
C4047 C 0.20624 0.95663 0.00699 0.0
C4048 C 0.17348 0.97454 0.99233 0.0
H4049 H 0.16028 0.00622 0.00636 0.0
C4050 C 0.15973 0.9638 0.99054 0.0
C4051 C 0.17361 0.99014 0.99721 0.0
C4052 C 0.18829 1.0019 0.99958 0.0
C4053 C 0.14618 0.96811 0.99484 0.0
C4054 C 0.14662 0.98346 0.00113 0.0
C4055 C 0.16006 0.99446 0.00146 0.0
C4056 C 0.13439 0.98792 0.00995 0.0
C4057 C 0.13178 0.95609 0.99359 0.0
C4058 C 0.12756 1.00018 0.00567 0.0
C4059 C 0.11846 0.00659 0.01594 0.0
C4060 C 0.11615 1.00083 0.03066 0.0
C4061 C 0.12249 0.98814 0.03462 0.0
C4062 C 0.1316 0.98173 0.02432 0.0
H4063 H 0.13187 0.94662 0.98405 0.0
H4064 H 0.1311 0.95106 0.00511 0.0
H4065 H 0.12137 0.96114 0.99105 0.0
H4066 H 0.12985 0.00522 0.99473 0.0
H4067 H 0.11376 0.01644 0.01266 0.0
H4068 H 0.67494 0.62936 0.01176 0.0
H4069 H 0.64986 0.61325 0.01302 0.0
H4070 H 0.66726 0.57314 0.99625 0.0
H4071 H 0.69253 0.58907 0.99528 0.0
H4072 H 0.6338 0.58275 0.98117 0.0
H4073 H 0.64489 0.57435 0.0455 0.0
H4074 H 0.65232 0.59262 0.03881 0.0
H4075 H 0.66002 0.57602 0.03256 0.0
C4076 C 0.67352 0.6171 0.00845 0.0
C4077 C 0.68587 0.61055 0.00351 0.0
C4078 C 0.65913 0.60793 0.00908 0.0
C4079 C 0.65674 0.59202 0.00477 0.0
C4080 C 0.66888 0.58542 0.99959 0.0
H4081 H 0.57814 0.52535 0.02582 0.0
H4082 H 0.6039 0.53828 0.02183 0.0
C4083 C 0.6833 0.59457 0.99897 0.0
C4084 C 0.64159 0.58229 0.00596 0.0
H4085 H 0.62009 0.56439 0.03262 0.0
C4086 C 0.63077 0.57865 0.99237 0.0
C4087 C 0.63781 0.57678 0.02051 0.0
C4088 C 0.64931 0.58003 0.03525 0.0
C4089 C 0.61613 0.56979 0.993 0.0
C4090 C 0.61201 0.56479 0.0078 0.0
C4091 C 0.62307 0.56821 0.02129 0.0
C4092 C 0.59624 0.55645 0.00968 0.0
C4093 C 0.60543 0.56567 0.97766 0.0
C4094 C 0.58323 0.56233 0.00445 0.0
C4095 C 0.56848 0.5546 0.00612 0.0
C4096 C 0.56622 0.54098 0.01362 0.0
C4097 C 0.57928 0.53543 0.01949 0.0
C4098 C 0.59409 0.54297 0.01739 0.0
H4099 H 0.61192 0.56532 0.96705 0.0
H4100 H 0.59779 0.55435 0.97749 0.0
H4101 H 0.59824 0.57459 0.97643 0.0
H4102 H 0.58443 0.57304 0.99917 0.0
H4103 H 0.55883 0.5595 0.00166 0.0
H4104 H 0.68448 0.46446 0.30244 0.0
H4105 H 0.69765 0.44244 0.30144 0.0
H4106 H 0.68036 0.43032 0.25168 0.0
H4107 H 0.6667 0.45184 0.25261 0.0
H4108 H 0.68148 0.40634 0.28457 0.0
H4109 H 0.73231 0.43951 0.26141 0.0
H4110 H 0.72063 0.44863 0.27431 0.0
H4111 H 0.71345 0.44216 0.25382 0.0
C4112 C 0.68323 0.45699 0.29133 0.0
C4113 C 0.67458 0.46011 0.27756 0.0
C4114 C 0.69084 0.44444 0.29079 0.0
C4115 C 0.68999 0.43482 0.27647 0.0
C4116 C 0.68117 0.43767 0.26283 0.0
H4117 H 0.71983 0.35635 0.23439 0.0
H4118 H 0.70576 0.37615 0.24408 0.0
C4119 C 0.6735 0.4501 0.26337 0.0
C4120 C 0.69882 0.42217 0.27539 0.0
H4121 H 0.73113 0.41277 0.26135 0.0
C4122 C 0.69243 0.40776 0.27969 0.0
C4123 C 0.7131 0.4241 0.26906 0.0
C4124 C 0.72041 0.43943 0.26441 0.0
C4125 C 0.69977 0.39506 0.27729 0.0
C4126 C 0.71376 0.39689 0.2704 0.0
C4127 C 0.7204 0.41143 0.26665 0.0
C4128 C 0.72115 0.38367 0.26583 0.0
C4129 C 0.69244 0.37968 0.28177 0.0
C4130 C 0.7343 0.38121 0.275 0.0
C4131 C 0.74222 0.36975 0.26959 0.0
C4132 C 0.73724 0.36085 0.25479 0.0
C4133 C 0.72387 0.3631 0.24583 0.0
C4134 C 0.71583 0.37435 0.25136 0.0
H4135 H 0.68268 0.38055 0.28889 0.0
H4136 H 0.68817 0.37175 0.27071 0.0
H4137 H 0.70108 0.37459 0.28878 0.0
H4138 H 0.73864 0.38838 0.28613 0.0
H4139 H 0.75256 0.36826 0.27663 0.0
H4140 H 0.85979 0.46755 0.48667 0.0
H4141 H 0.88717 0.4786 0.48957 0.0
H4142 H 0.88629 0.48964 0.54028 0.0
H4143 H 0.85877 0.47885 0.53748 0.0
H4144 H 0.90541 0.5103 0.50772 0.0
H4145 H 0.91536 0.45561 0.53067 0.0
H4146 H 0.89818 0.45671 0.51799 0.0
H4147 H 0.90075 0.46493 0.53848 0.0
C4148 C 0.86531 0.47277 0.49835 0.0
C4149 C 0.85726 0.47225 0.5119 0.0
C4150 C 0.88091 0.479 0.49997 0.0
C4151 C 0.88856 0.48472 0.51514 0.0
C4152 C 0.88042 0.48515 0.52852 0.0
H4153 H 0.98517 0.52404 0.53661 0.0
H4154 H 0.95828 0.51499 0.54024 0.0
C4155 C 0.86481 0.47894 0.52692 0.0
C4156 C 0.90532 0.48865 0.51717 0.0
H4157 H 0.93719 0.47404 0.52812 0.0
C4158 C 0.91242 0.50252 0.51235 0.0
C4159 C 0.9142 0.47823 0.52299 0.0
C4160 C 0.90683 0.46297 0.52779 0.0
C4161 C 0.92841 0.50624 0.51315 0.0
C4162 C 0.93728 0.49581 0.51898 0.0
C4163 C 0.93019 0.48199 0.52388 0.0
C4164 C 0.95393 0.49873 0.5189 0.0
C4165 C 0.93576 0.52105 0.50736 0.0
C4166 C 0.96027 0.49201 0.50608 0.0
C4167 C 0.97559 0.49707 0.50406 0.0
C4168 C 0.98461 0.50867 0.515 0.0
C4169 C 0.97851 0.51468 0.52839 0.0
C4170 C 0.96317 0.50966 0.53038 0.0
H4171 H 0.92714 0.52727 0.50196 0.0
H4172 H 0.94275 0.52866 0.51757 0.0
H4173 H 0.94361 0.51867 0.49834 0.0
H4174 H 0.95314 0.48362 0.49709 0.0
H4175 H 0.98015 0.49259 0.49351 0.0
H4176 H 0.31437 0.06779 0.2723 0.0
H4177 H 0.3045 0.09161 0.27057 0.0
H4178 H 0.33924 0.1146 0.30825 0.0
H4179 H 0.3496 0.09108 0.30961 0.0
H4180 H 0.29555 0.11545 0.29297 0.0
H4181 H 0.34976 0.13307 0.26581 0.0
H4182 H 0.34272 0.11343 0.26896 0.0
H4183 H 0.35186 0.12711 0.28554 0.0
C4184 C 0.31972 0.07786 0.2804 0.0
C4185 C 0.33293 0.07773 0.29083 0.0
C4186 C 0.31397 0.09135 0.27954 0.0
C4187 C 0.32133 0.10476 0.28916 0.0
C4188 C 0.33353 0.10428 0.30072 0.0
H4189 H 0.32044 0.19802 0.26768 0.0
H4190 H 0.32503 0.17598 0.28171 0.0
C4191 C 0.33937 0.09084 0.3015 0.0
C4192 C 0.31807 0.11957 0.28509 0.0
H4193 H 0.33283 0.15037 0.26666 0.0
C4194 C 0.30371 0.12324 0.2874 0.0
C4195 C 0.32878 0.12945 0.27765 0.0
C4196 C 0.34411 0.12558 0.27419 0.0
C4197 C 0.29972 0.13671 0.28234 0.0
C4198 C 0.31035 0.14645 0.27466 0.0
C4199 C 0.32481 0.14289 0.2727 0.0
C4200 C 0.30652 0.15989 0.2675 0.0
C4201 C 0.28419 0.14034 0.28515 0.0
C4202 C 0.29473 0.15795 0.25484 0.0
C4203 C 0.29216 0.17044 0.24689 0.0
C4204 C 0.30157 0.18485 0.25133 0.0
C4205 C 0.31333 0.18684 0.26397 0.0
C4206 C 0.3158 0.17438 0.27204 0.0
H4207 H 0.27938 0.13432 0.29503 0.0
H4208 H 0.28485 0.15288 0.28804 0.0
H4209 H 0.27612 0.13645 0.27412 0.0
H4210 H 0.28776 0.14674 0.2509 0.0
H4211 H 0.28292 0.16888 0.23724 0.0
H4212 H 0.32783 0.10748 0.48275 0.0
H4213 H 0.34998 0.09456 0.48319 0.0
H4214 H 0.36682 0.1176 0.5303 0.0
H4215 H 0.34509 0.13096 0.52982 0.0
H4216 H 0.38374 0.1084 0.48928 0.0
H4217 H 0.36252 0.07004 0.53397 0.0
H4218 H 0.35006 0.07983 0.52222 0.0
H4219 H 0.36267 0.09016 0.53906 0.0
C4220 C 0.33632 0.11 0.49313 0.0
C4221 C 0.33449 0.12022 0.50631 0.0
C4222 C 0.34896 0.10253 0.49338 0.0
C4223 C 0.35995 0.105 0.50684 0.0
C4224 C 0.35835 0.11537 0.51987 0.0
H4225 H 0.44789 0.08384 0.53437 0.0
H4226 H 0.42678 0.09618 0.52464 0.0
C4227 C 0.34582 0.12292 0.5196 0.0
C4228 C 0.37295 0.09653 0.50753 0.0
H4229 H 0.38798 0.0701 0.52781 0.0
C4230 C 0.38463 0.09994 0.4976 0.0
C4231 C 0.37402 0.0854 0.51831 0.0
C4232 C 0.36161 0.081 0.52894 0.0
C4233 C 0.39762 0.09288 0.4986 0.0
C4234 C 0.39887 0.0821 0.50971 0.0
C4235 C 0.38697 0.07835 0.51927 0.0
C4236 C 0.41282 0.07522 0.51244 0.0
C4237 C 0.41002 0.09701 0.48792 0.0
C4238 C 0.41218 0.05943 0.50837 0.0
C4239 C 0.42436 0.05241 0.51371 0.0
C4240 C 0.43726 0.06107 0.52335 0.0
C4241 C 0.43823 0.07701 0.52662 0.0
C4242 C 0.42615 0.08404 0.52115 0.0
H4243 H 0.40637 0.10383 0.47837 0.0
H4244 H 0.42038 0.10387 0.49524 0.0
H4245 H 0.41328 0.08644 0.48228 0.0
H4246 H 0.40193 0.05241 0.50179 0.0
H4247 H 0.42319 0.04005 0.51138 0.0
H4248 H 0.70051 0.60747 0.3022 0.0
H4249 H 0.71558 0.63327 0.30222 0.0
H4250 H 0.68704 0.63985 0.26024 0.0
H4251 H 0.67145 0.61451 0.26061 0.0
H4252 H 0.73279 0.64584 0.28072 0.0
H4253 H 0.68593 0.67826 0.2887 0.0
H4254 H 0.68392 0.65815 0.29134 0.0
H4255 H 0.68129 0.66409 0.27159 0.0
C4256 C 0.69726 0.61449 0.29312 0.0
C4257 C 0.68466 0.60882 0.28145 0.0
C4258 C 0.70599 0.62922 0.29306 0.0
C4259 C 0.70233 0.63867 0.28139 0.0
C4260 C 0.68992 0.63297 0.2696 0.0
H4261 H 0.76273 0.71751 0.25338 0.0
H4262 H 0.74888 0.69187 0.25651 0.0
C4263 C 0.68113 0.61831 0.2697 0.0
C4264 C 0.71162 0.65434 0.28129 0.0
H4265 H 0.7087 0.69202 0.28009 0.0
C4266 C 0.72754 0.65596 0.28072 0.0
C4267 C 0.70488 0.66764 0.2816 0.0
C4268 C 0.6881 0.667 0.28352 0.0
C4269 C 0.73681 0.67038 0.28002 0.0
C4270 C 0.72991 0.68356 0.27937 0.0
C4271 C 0.71404 0.68197 0.28037 0.0
C4272 C 0.73883 0.69909 0.2777 0.0
C4273 C 0.75392 0.67133 0.28029 0.0
C4274 C 0.73749 0.7119 0.2882 0.0
C4275 C 0.74511 0.72664 0.28617 0.0
C4276 C 0.75439 0.7289 0.27369 0.0
C4277 C 0.75588 0.71609 0.26328 0.0
C4278 C 0.74803 0.70139 0.26514 0.0
H4279 H 0.75777 0.66178 0.28617 0.0
H4280 H 0.75691 0.67036 0.26781 0.0
H4281 H 0.76036 0.68238 0.28667 0.0
H4282 H 0.73045 0.71052 0.29795 0.0
H4283 H 0.74372 0.73629 0.29437 0.0
H4284 H 0.81114 0.43536 0.74909 0.0
H4285 H 0.8008 0.40769 0.74596 0.0
H4286 H 0.82262 0.40423 0.79298 0.0
H4287 H 0.83311 0.43159 0.79612 0.0
H4288 H 0.82102 0.3859 0.74765 0.0
H4289 H 0.77885 0.37952 0.79214 0.0
H4290 H 0.78525 0.39756 0.78444 0.0
H4291 H 0.79697 0.39126 0.8001 0.0
C4292 C 0.81348 0.42869 0.75882 0.0
C4293 C 0.82288 0.43554 0.77283 0.0
C4294 C 0.80757 0.413 0.75704 0.0
C4295 C 0.81092 0.40414 0.7693 0.0
C4296 C 0.81971 0.41105 0.78355 0.0
H4297 H 0.80341 0.31318 0.79115 0.0
H4298 H 0.81445 0.33956 0.7869 0.0
C4299 C 0.82564 0.42667 0.78533 0.0
C4300 C 0.80668 0.38742 0.76678 0.0
H4301 H 0.78852 0.35703 0.78351 0.0
C4302 C 0.8137 0.3795 0.75526 0.0
C4303 C 0.79723 0.37932 0.77685 0.0
C4304 C 0.78902 0.38735 0.78898 0.0
C4305 C 0.81196 0.36349 0.75402 0.0
C4306 C 0.80304 0.35553 0.76457 0.0
C4307 C 0.79561 0.3634 0.77567 0.0
C4308 C 0.80067 0.33887 0.76422 0.0
C4309 C 0.81997 0.3552 0.74194 0.0
C4310 C 0.7898 0.32986 0.75253 0.0
C4311 C 0.78347 0.31497 0.75501 0.0
C4312 C 0.78815 0.30909 0.76908 0.0
C4313 C 0.79987 0.31766 0.78016 0.0
C4314 C 0.80621 0.33255 0.77769 0.0
H4315 H 0.82766 0.36326 0.73562 0.0
H4316 H 0.82683 0.34764 0.74796 0.0
H4317 H 0.81129 0.34776 0.73292 0.0
H4318 H 0.78518 0.3348 0.7423 0.0
H4319 H 0.77404 0.3086 0.74666 0.0
H4320 H 0.05977 0.87208 0.08155 0.0
H4321 H 0.05693 0.89663 0.07184 0.0
H4322 H 0.01755 0.87384 0.03952 0.0
H4323 H 0.02018 0.84933 0.04931 0.0
H4324 H 0.05833 0.90836 0.04443 0.0
H4325 H 0.99891 0.9073 0.0591 0.0
H4326 H 0.0101 0.89354 0.06565 0.0
H4327 H 1.00047 0.89103 0.04557 0.0
C4328 C 0.0505 0.87218 0.07232 0.0
C4329 C 0.04013 0.85845 0.06646 0.0
C4330 C 0.04885 0.88638 0.06677 0.0
C4331 C 0.03675 0.88748 0.05513 0.0
C4332 C 0.02667 0.87371 0.04889 0.0
H4333 H 0.0106 0.96605 0.00778 0.0
H4334 H 0.01295 0.94036 0.01492 0.0
C4335 C 0.02824 0.85953 0.05452 0.0
C4336 C 0.03486 0.90289 0.04949 0.0
H4337 H 0.00901 0.92706 0.04387 0.0
C4338 C 0.04752 0.91239 0.04441 0.0
C4339 C 0.0208 0.90848 0.04927 0.0
C4340 C 0.00684 0.89964 0.05533 0.0
C4341 C 0.04652 0.9269 0.03912 0.0
C4342 C 0.03249 0.93247 0.03899 0.0
C4343 C 0.01978 0.92295 0.04385 0.0
C4344 C 0.03097 0.94831 0.03444 0.0
C4345 C 0.06051 0.93606 0.03343 0.0
C4346 C 0.04008 0.96163 0.04303 0.0
C4347 C 0.03858 0.9764 0.0391 0.0
C4348 C 0.02791 0.9785 0.02638 0.0
C4349 C 0.01883 0.96513 0.01771 0.0
C4350 C 0.02022 0.95031 0.02179 0.0
H4351 H 0.06872 0.92863 0.02986 0.0
H4352 H 0.05728 0.94215 0.02309 0.0
H4353 H 0.0665 0.94476 0.0433 0.0
H4354 H 0.04829 0.96066 0.053 0.0
H4355 H 0.04587 0.98623 0.04615 0.0
H4356 H 0.91166 0.23858 0.87804 0.0
H4357 H 0.88784 0.23949 0.8613 0.0
H4358 H 0.90992 0.28073 0.84376 0.0
H4359 H 0.93379 0.27977 0.86018 0.0
H4360 H 0.86956 0.26221 0.86129 0.0
H4361 H 0.89103 0.25441 0.80213 0.0
H4362 H 0.90129 0.2505 0.82031 0.0
H4363 H 0.90247 0.26992 0.81553 0.0
C4364 C 0.91156 0.24776 0.87048 0.0
C4365 C 0.92486 0.25908 0.87057 0.0
C4366 C 0.89782 0.24832 0.86094 0.0
C4367 C 0.89696 0.26007 0.85098 0.0
C4368 C 0.9102 0.27137 0.85105 0.0
H4369 H 0.82719 0.28595 0.78372 0.0
H4370 H 0.85046 0.28325 0.80022 0.0
C4371 C 0.92389 0.27089 0.86065 0.0
C4372 C 0.88219 0.26077 0.84088 0.0
H4373 H 0.86663 0.26167 0.8023 0.0
C4374 C 0.86892 0.26199 0.84838 0.0
C4375 C 0.88118 0.26055 0.82397 0.0
C4376 C 0.8947 0.25864 0.81496 0.0
C4377 C 0.85497 0.26347 0.83964 0.0
C4378 C 0.85393 0.26328 0.8227 0.0
C4379 C 0.86721 0.26188 0.81521 0.0
C4380 C 0.8394 0.26481 0.81256 0.0
C4381 C 0.84167 0.26582 0.84885 0.0
C4382 C 0.82517 0.25527 0.81356 0.0
C4383 C 0.81172 0.25692 0.80418 0.0
C4384 C 0.81207 0.26798 0.79322 0.0
C4385 C 0.82636 0.27728 0.79195 0.0
C4386 C 0.83977 0.27573 0.80145 0.0
H4387 H 0.84562 0.27051 0.8615 0.0
H4388 H 0.83496 0.27378 0.84332 0.0
H4389 H 0.83395 0.2546 0.84893 0.0
H4390 H 0.82443 0.24637 0.82151 0.0
H4391 H 0.80103 0.24936 0.80536 0.0
H4392 H 0.55403 0.20158 0.5482 0.0
H4393 H 0.55265 0.17436 0.53903 0.0
H4394 H 0.5182 0.16197 0.57052 0.0
H4395 H 0.51933 0.18906 0.57949 0.0
H4396 H 0.5588 0.15057 0.55264 0.0
H4397 H 0.497 0.1365 0.53121 0.0
H4398 H 0.50687 0.15601 0.53684 0.0
H4399 H 0.49999 0.14422 0.55186 0.0
C4400 C 0.54611 0.1931 0.55318 0.0
C4401 C 0.53668 0.19778 0.56455 0.0
C4402 C 0.5453 0.17741 0.54786 0.0
C4403 C 0.53505 0.16581 0.55371 0.0
C4404 C 0.52584 0.17048 0.56526 0.0
H4405 H 0.51659 0.0657 0.54824 0.0
H4406 H 0.5186 0.09343 0.55432 0.0
C4407 C 0.52654 0.18613 0.57047 0.0
C4408 C 0.53432 0.14893 0.54818 0.0
H4409 H 0.5094 0.11508 0.53498 0.0
C4410 C 0.54797 0.14289 0.54863 0.0
C4411 C 0.52029 0.13865 0.54273 0.0
C4412 C 0.50525 0.14421 0.54045 0.0
C4413 C 0.54791 0.12706 0.54447 0.0
C4414 C 0.53383 0.11675 0.53961 0.0
C4415 C 0.52022 0.12281 0.53885 0.0
C4416 C 0.53286 0.09963 0.5357 0.0
C4417 C 0.56295 0.12142 0.5458 0.0
C4418 C 0.54001 0.09353 0.523 0.0
C4419 C 0.53875 0.07751 0.51935 0.0
C4420 C 0.53043 0.06703 0.52837 0.0
C4421 C 0.52322 0.07322 0.54101 0.0
C4422 C 0.52434 0.08919 0.54453 0.0
H4423 H 0.57225 0.12997 0.55301 0.0
H4424 H 0.56178 0.11047 0.5513 0.0
H4425 H 0.56645 0.11926 0.53363 0.0
H4426 H 0.54638 0.10116 0.51568 0.0
H4427 H 0.54416 0.07338 0.50931 0.0
H4428 H 0.58016 0.74239 0.38235 0.0
H4429 H 0.60284 0.74443 0.36781 0.0
H4430 H 0.59584 0.78862 0.35494 0.0
H4431 H 0.57308 0.78664 0.36924 0.0
H4432 H 0.6074 0.74752 0.33618 0.0
H4433 H 0.64012 0.79858 0.37491 0.0
H4434 H 0.62279 0.78738 0.38027 0.0
H4435 H 0.62173 0.80146 0.36642 0.0
C4436 C 0.5833 0.75252 0.37633 0.0
C4437 C 0.57466 0.76441 0.37721 0.0
C4438 C 0.59639 0.75369 0.36803 0.0
C4439 C 0.60136 0.76681 0.36045 0.0
C4440 C 0.5926 0.77853 0.361 0.0
H4441 H 0.67698 0.79999 0.30648 0.0
H4442 H 0.6524 0.79451 0.31775 0.0
C4443 C 0.57951 0.77738 0.36927 0.0
C4444 C 0.61566 0.76831 0.35204 0.0
H4445 H 0.65042 0.79168 0.35086 0.0
C4446 C 0.61683 0.75713 0.33948 0.0
C4447 C 0.62814 0.78078 0.3563 0.0
C4448 C 0.62825 0.79265 0.37031 0.0
C4449 C 0.62982 0.75834 0.33086 0.0
C4450 C 0.6421 0.77099 0.33492 0.0
C4451 C 0.641 0.78204 0.34758 0.0
C4452 C 0.65621 0.77314 0.32624 0.0
C4453 C 0.63012 0.74629 0.31715 0.0
C4454 C 0.66655 0.76284 0.32688 0.0
C4455 C 0.68059 0.76592 0.32028 0.0
C4456 C 0.68462 0.77937 0.3129 0.0
C4457 C 0.67408 0.78941 0.31183 0.0
C4458 C 0.66007 0.78633 0.31839 0.0
H4459 H 0.6187 0.73883 0.31365 0.0
H4460 H 0.63398 0.75177 0.30657 0.0
H4461 H 0.63841 0.73891 0.32074 0.0
H4462 H 0.66409 0.75275 0.33314 0.0
H4463 H 0.68865 0.75819 0.32167 0.0
H4464 H 0.00737 0.20895 0.39487 0.0
H4465 H 0.00569 0.18641 0.40949 0.0
H4466 H 0.05151 0.2033 0.43272 0.0
H4467 H 0.05295 0.22635 0.41898 0.0
H4468 H 0.02081 0.16339 0.41014 0.0
H4469 H 0.03039 0.19454 0.47117 0.0
H4470 H 0.02714 0.20407 0.45357 0.0
H4471 H 0.0459 0.20017 0.4596 0.0
C4472 C 0.01703 0.20812 0.40331 0.0
C4473 C 0.03024 0.21982 0.40575 0.0
C4474 C 0.0161 0.19502 0.41159 0.0
C4475 C 0.02833 0.19312 0.42258 0.0
C4476 C 0.04169 0.20454 0.42472 0.0
H4477 H 0.04193 0.12242 0.48595 0.0
H4478 H 0.04573 0.14305 0.46845 0.0
C4479 C 0.04258 0.21771 0.41656 0.0
C4480 C 0.02709 0.17918 0.43163 0.0
H4481 H 0.03053 0.16781 0.46933 0.0
C4482 C 0.02289 0.16442 0.42309 0.0
C4483 C 0.02977 0.1803 0.44859 0.0
C4484 C 0.03339 0.19562 0.45878 0.0
C4485 C 0.0215 0.15094 0.43092 0.0
C4486 C 0.02423 0.1521 0.44784 0.0
C4487 C 0.02852 0.16682 0.45637 0.0
C4488 C 0.02235 0.13831 0.45705 0.0
C4489 C 0.01735 0.13553 0.42094 0.0
C4490 C 0.00801 0.12848 0.4564 0.0
C4491 C 0.00587 0.11663 0.46638 0.0
C4492 C 0.01803 0.11423 0.47716 0.0
C4493 C 0.03246 0.12373 0.47748 0.0
C4494 C 0.03459 0.13563 0.46757 0.0
H4495 H 0.01975 0.13639 0.40834 0.0
H4496 H 0.02377 0.12711 0.42599 0.0
H4497 H 0.0049 0.13106 0.42087 0.0
H4498 H 0.99825 0.13041 0.44872 0.0
H4499 H 0.99451 0.10977 0.4662 0.0
H4500 H 0.60143 0.24067 0.20002 0.0
H4501 H 0.62848 0.24183 0.20926 0.0
H4502 H 0.62574 0.27616 0.24785 0.0
H4503 H 0.59848 0.27463 0.23906 0.0
H4504 H 0.65291 0.26427 0.2116 0.0
H4505 H 0.64654 0.24782 0.27263 0.0
H4506 H 0.63033 0.24595 0.25761 0.0
H4507 H 0.6383 0.2643 0.26877 0.0
C4508 C 0.60641 0.24829 0.21067 0.0
C4509 C 0.59743 0.25743 0.21879 0.0
C4510 C 0.62205 0.24904 0.21589 0.0
C4511 C 0.62936 0.25889 0.2295 0.0
C4512 C 0.6205 0.26816 0.23756 0.0
H4513 H 0.72581 0.2859 0.27108 0.0
H4514 H 0.69827 0.284 0.26328 0.0
C4515 C 0.60483 0.26742 0.23234 0.0
C4516 C 0.64625 0.25971 0.23482 0.0
H4517 H 0.67203 0.25694 0.26691 0.0
C4518 C 0.657 0.26255 0.22369 0.0
C4519 C 0.65188 0.25751 0.25061 0.0
C4520 C 0.64116 0.25358 0.26306 0.0
C4521 C 0.67293 0.26344 0.22788 0.0
C4522 C 0.67851 0.26135 0.24364 0.0
C4523 C 0.66785 0.25856 0.25482 0.0
C4524 C 0.69537 0.26219 0.24869 0.0
C4525 C 0.68382 0.26694 0.2155 0.0
C4526 C 0.70312 0.25053 0.24325 0.0
C4527 C 0.71896 0.25153 0.24778 0.0
C4528 C 0.72753 0.26426 0.25787 0.0
C4529 C 0.7197 0.2759 0.26331 0.0
C4530 C 0.70387 0.27482 0.25888 0.0
H4531 H 0.67802 0.27023 0.20446 0.0
H4532 H 0.69343 0.27642 0.22049 0.0
H4533 H 0.68882 0.25666 0.21222 0.0
H4534 H 0.6969 0.24061 0.23543 0.0
H4535 H 0.72452 0.24243 0.24318 0.0
H4536 H 0.52087 0.87911 0.8956 0.0
H4537 H 0.52038 0.9031 0.91204 0.0
H4538 H 0.55154 0.89098 0.94882 0.0
H4539 H 0.55216 0.86698 0.93239 0.0
H4540 H 0.51087 0.90916 0.9404 0.0
H4541 H 0.57291 0.93389 0.94573 0.0
H4542 H 0.56441 0.91715 0.932 0.0
H4543 H 0.5691 0.91539 0.95288 0.0
C4544 C 0.52762 0.88146 0.9072 0.0
C4545 C 0.5366 0.87092 0.9125 0.0
C4546 C 0.52737 0.89532 0.91663 0.0
C4547 C 0.53613 0.89921 0.93169 0.0
C4548 C 0.545 0.88865 0.93711 0.0
H4549 H 0.521 0.9674 0.00764 0.0
H4550 H 0.52307 0.9442 0.99072 0.0
C4551 C 0.54531 0.87481 0.92764 0.0
C4552 C 0.53555 0.91403 0.94181 0.0
H4553 H 0.5578 0.94677 0.96234 0.0
C4554 C 0.52118 0.91735 0.94512 0.0
C4555 C 0.5489 0.92501 0.94797 0.0
C4556 C 0.56469 0.92279 0.94435 0.0
C4557 C 0.51982 0.93098 0.95451 0.0
C4558 C 0.53317 0.94171 0.96103 0.0
C4559 C 0.54753 0.93857 0.95751 0.0
C4560 C 0.53239 0.95612 0.97161 0.0
C4561 C 0.50402 0.93391 0.9572 0.0
C4562 C 0.53715 0.9708 0.9668 0.0
C4563 C 0.53607 0.98423 0.9766 0.0
C4564 C 0.53044 0.98339 0.99164 0.0
C4565 C 0.52578 0.96866 0.99642 0.0
C4566 C 0.52676 0.95528 0.98659 0.0
H4567 H 0.49494 0.92642 0.94861 0.0
H4568 H 0.50168 0.93154 0.9695 0.0
H4569 H 0.50327 0.94609 0.95605 0.0
H4570 H 0.54153 0.97186 0.95533 0.0
H4571 H 0.53972 0.99529 0.97242 0.0
H4572 H 0.92303 0.73634 0.6992 0.0
H4573 H 0.89824 0.73886 0.70845 0.0
H4574 H 0.92117 0.7733 0.74636 0.0
H4575 H 0.94592 0.77115 0.73686 0.0
H4576 H 0.88461 0.73393 0.73359 0.0
H4577 H 0.89026 0.79642 0.73046 0.0
H4578 H 0.90383 0.78566 0.72268 0.0
H4579 H 0.90539 0.79209 0.74377 0.0
C4580 C 0.92287 0.74446 0.70954 0.0
C4581 C 0.93671 0.75364 0.71709 0.0
C4582 C 0.90855 0.74594 0.71484 0.0
C4583 C 0.90745 0.75661 0.72795 0.0
C4584 C 0.92133 0.7654 0.73585 0.0
H4585 H 0.829 0.77571 0.77923 0.0
H4586 H 0.85454 0.77361 0.7716 0.0
C4587 C 0.93563 0.76408 0.73042 0.0
C4588 C 0.89192 0.75831 0.73337 0.0
H4589 H 0.86929 0.78466 0.74329 0.0
C4590 C 0.88134 0.74507 0.73558 0.0
C4591 C 0.88726 0.77277 0.73609 0.0
C4592 C 0.89721 0.78751 0.73297 0.0
C4593 C 0.86665 0.74589 0.74047 0.0
C4594 C 0.86212 0.76033 0.7433 0.0
C4595 C 0.87267 0.77357 0.74126 0.0
C4596 C 0.84639 0.76185 0.74796 0.0
C4597 C 0.85608 0.73124 0.74281 0.0
C4598 C 0.83308 0.75625 0.73724 0.0
C4599 C 0.81842 0.75786 0.74144 0.0
C4600 C 0.81648 0.76488 0.75662 0.0
C4601 C 0.82985 0.77042 0.76737 0.0
C4602 C 0.84457 0.76911 0.76304 0.0
H4603 H 0.86226 0.72146 0.74347 0.0
H4604 H 0.85046 0.73274 0.75391 0.0
H4605 H 0.84692 0.72827 0.73257 0.0
H4606 H 0.83402 0.75079 0.72545 0.0
H4607 H 0.8086 0.75374 0.73262 0.0
H4608 H 0.10812 0.04327 0.86706 0.0
H4609 H 0.09839 0.04102 0.89304 0.0
H4610 H 0.06242 0.00375 0.87166 0.0
H4611 H 0.0723 0.00577 0.84566 0.0
H4612 H 0.07235 0.04478 0.90334 0.0
H4613 H 0.07847 0.98464 0.90921 0.0
H4614 H 0.0866 0.99519 0.89383 0.0
H4615 H 0.06659 0.98638 0.89136 0.0
C4616 C 0.0981 0.03462 0.86785 0.0
C4617 C 0.09104 0.02466 0.85423 0.0
C4618 C 0.09257 0.03329 0.88277 0.0
C4619 C 0.07984 0.02199 0.8845 0.0
C4620 C 0.07255 0.01224 0.87084 0.0
H4621 H 0.02449 0.02751 0.96311 0.0
H4622 H 0.0352 0.0273 0.93773 0.0
C4623 C 0.07817 0.01347 0.85593 0.0
C4624 C 0.07396 0.02083 0.90048 0.0
H4625 H 0.06412 0.99597 0.92805 0.0
C4626 C 0.07065 0.0341 0.90874 0.0
C4627 C 0.07195 0.00699 0.90778 0.0
C4628 C 0.07624 0.99254 0.90017 0.0
C4629 C 0.06517 0.03389 0.92384 0.0
C4630 C 0.06243 0.01988 0.93078 0.0
C4631 C 0.06604 0.00667 0.92271 0.0
C4632 C 0.05544 0.01874 0.94616 0.0
C4633 C 0.06265 0.04881 0.93229 0.0
C4634 C 0.06279 0.01319 0.95932 0.0
C4635 C 0.05636 0.0128 0.97393 0.0
C4636 C 0.04245 0.01795 0.97565 0.0
C4637 C 0.03508 0.02322 0.96231 0.0
C4638 C 0.04134 0.02336 0.94775 0.0
H4639 H 0.0699 0.05886 0.92818 0.0
H4640 H 0.05048 0.0499 0.92954 0.0
H4641 H 0.06523 0.04927 0.94548 0.0
H4642 H 0.07364 0.00945 0.95839 0.0
H4643 H 0.06239 0.00871 0.98392 0.0
H4644 H 0.75414 0.35708 0.56492 0.0
H4645 H 0.7537 0.34336 0.58884 0.0
H4646 H 0.79984 0.367 0.60543 0.0
H4647 H 0.80016 0.38111 0.58208 0.0
H4648 H 0.77261 0.32403 0.59871 0.0
H4649 H 0.77779 0.37359 0.64461 0.0
H4650 H 0.7725 0.37473 0.62363 0.0
H4651 H 0.7924 0.37699 0.63145 0.0
C4652 C 0.76408 0.35949 0.57382 0.0
C4653 C 0.77717 0.37019 0.57169 0.0
C4654 C 0.76383 0.35162 0.5874 0.0
C4655 C 0.77659 0.35447 0.59903 0.0
C4656 C 0.78971 0.36497 0.59678 0.0
H4657 H 0.82489 0.3199 0.67113 0.0
H4658 H 0.81357 0.33226 0.6494 0.0
C4659 C 0.78997 0.37284 0.58331 0.0
C4660 C 0.77681 0.34593 0.61317 0.0
H4661 H 0.78741 0.35135 0.65344 0.0
C4662 C 0.77543 0.32991 0.61075 0.0
C4663 C 0.78027 0.35366 0.62885 0.0
C4664 C 0.78065 0.37068 0.63229 0.0
C4665 C 0.77878 0.32158 0.6235 0.0
C4666 C 0.78365 0.32956 0.63887 0.0
C4667 C 0.78389 0.34537 0.64152 0.0
C4668 C 0.79014 0.32199 0.65192 0.0
C4669 C 0.77806 0.30449 0.62037 0.0
C4670 C 0.78062 0.31219 0.66037 0.0
C4671 C 0.78704 0.3051 0.67271 0.0
C4672 C 0.80306 0.30775 0.67671 0.0
C4673 C 0.81254 0.31753 0.66814 0.0
C4674 C 0.8061 0.32466 0.65586 0.0
H4675 H 0.77459 0.3001 0.60756 0.0
H4676 H 0.78943 0.30163 0.62407 0.0
H4677 H 0.76967 0.29844 0.62766 0.0
H4678 H 0.76827 0.31007 0.65743 0.0
H4679 H 0.77949 0.29751 0.67908 0.0
H4680 H 0.41688 0.03444 0.3742 0.0
H4681 H 0.43377 0.03609 0.39915 0.0
H4682 H 0.46394 0.01164 0.37419 0.0
H4683 H 0.44742 0.01037 0.34916 0.0
H4684 H 0.44025 0.00962 0.4124 0.0
H4685 H 0.49301 0.04846 0.40037 0.0
H4686 H 0.47455 0.04743 0.38903 0.0
H4687 H 0.48588 0.03298 0.38481 0.0
C4688 C 0.4273 0.02974 0.37402 0.0
C4689 C 0.43091 0.02223 0.35991 0.0
C4690 C 0.43684 0.03063 0.38821 0.0
C4691 C 0.45005 0.02411 0.38829 0.0
C4692 C 0.45387 0.01694 0.37416 0.0
H4693 H 0.51259 1.00251 0.46369 0.0
H4694 H 0.49685 1.00211 0.43812 0.0
C4695 C 0.44438 0.01607 0.35999 0.0
C4696 C 0.45921 0.0236 0.40339 0.0
H4697 H 0.49523 0.03441 0.4229 0.0
C4698 C 0.45225 0.01509 0.41478 0.0
C4699 C 0.4748 0.03076 0.40622 0.0
C4700 C 0.48249 0.04054 0.39453 0.0
C4701 C 0.46066 0.01341 0.42907 0.0
C4702 C 0.47627 0.02038 0.43175 0.0
C4703 C 0.48324 0.02891 0.42043 0.0
C4704 C 0.48525 0.02009 0.44691 0.0
C4705 C 0.45295 0.0043 0.44125 0.0
C4706 C 0.48376 0.03043 0.45989 0.0
C4707 C 0.49273 0.03082 0.47426 0.0
C4708 C 0.50323 0.02082 0.47578 0.0
C4709 C 0.50465 0.0104 0.46271 0.0
C4710 C 0.49568 0.01008 0.44824 0.0
H4711 H 0.44118 0.99819 0.43654 0.0
H4712 H 0.45989 0.99577 0.44507 0.0
H4713 H 0.45219 0.01216 0.45205 0.0
H4714 H 0.47577 0.03826 0.45881 0.0
H4715 H 0.49143 0.039 0.48415 0.0
H4716 H 0.7643 0.68873 0.10007 0.0
H4717 H 0.76506 0.70131 0.12727 0.0
H4718 H 0.77976 0.7454 0.1109 0.0
H4719 H 0.77897 0.7329 0.08351 0.0
H4720 H 0.79518 0.7275 0.14476 0.0
H4721 H 0.73705 0.74275 0.13672 0.0
H4722 H 0.74115 0.7259 0.12552 0.0
H4723 H 0.74957 0.74462 0.12108 0.0
C4724 C 0.7676 0.70112 0.1022 0.0
C4725 C 0.77148 0.70981 0.08956 0.0
C4726 C 0.7681 0.70827 0.11777 0.0
C4727 C 0.77238 0.72427 0.12106 0.0
C4728 C 0.7764 0.73303 0.10857 0.0
H4729 H 0.76491 0.77818 0.21201 0.0
H4730 H 0.76582 0.77016 0.18353 0.0
C4731 C 0.776 0.72586 0.09297 0.0
C4732 C 0.77261 0.73168 0.1376 0.0
H4733 H 0.75021 0.74753 0.16271 0.0
C4734 C 0.78542 0.732 0.1487 0.0
C4735 C 0.75995 0.73771 0.1426 0.0
C4736 C 0.74608 0.73781 0.13094 0.0
C4737 C 0.7858 0.73795 0.1648 0.0
C4738 C 0.77276 0.74324 0.17008 0.0
C4739 C 0.76014 0.74337 0.15878 0.0
C4740 C 0.77179 0.74809 0.18732 0.0
C4741 C 0.80027 0.73864 0.1759 0.0
C4742 C 0.77434 0.73822 0.19894 0.0
C4743 C 0.77405 0.74286 0.21517 0.0
C4744 C 0.77081 0.75735 0.2202 0.0
C4745 C 0.76753 0.76698 0.20854 0.0
C4746 C 0.76806 0.76241 0.19225 0.0
H4747 H 0.8105 0.73943 0.1692 0.0
H4748 H 0.80215 0.74862 0.18525 0.0
H4749 H 0.79938 0.72796 0.18185 0.0
H4750 H 0.77662 0.72688 0.19547 0.0
H4751 H 0.77631 0.73501 0.22379 0.0
H4752 H 0.10613 0.03609 0.68428 0.0
H4753 H 0.09382 0.03534 0.65697 0.0
H4754 H 0.05143 0.01135 0.67057 0.0
H4755 H 0.06366 0.0121 0.69804 0.0
H4756 H 0.07593 0.00499 0.6364 0.0
H4757 H 0.04245 0.05145 0.64794 0.0
H4758 H 0.05981 0.05072 0.66056 0.0
H4759 H 0.04271 0.03697 0.6615 0.0
C4760 C 0.09415 0.03077 0.68155 0.0
C4761 C 0.08588 0.02424 0.69345 0.0
C4762 C 0.08715 0.03029 0.66589 0.0
C4763 C 0.07168 0.02342 0.66176 0.0
C4764 C 0.06336 0.01682 0.67353 0.0
H4765 H 0.01518 0.0236 0.57009 0.0
H4766 H 0.02374 0.02296 0.59855 0.0
C4767 C 0.0704 0.01717 0.6892 0.0
C4768 C 0.06446 0.02294 0.64503 0.0
H4769 H 0.04138 0.04067 0.62124 0.0
C4770 C 0.06834 0.01275 0.63307 0.0
C4771 C 0.05429 0.03281 0.64076 0.0
C4772 C 0.04951 0.04368 0.65328 0.0
C4773 C 0.06245 0.01227 0.61693 0.0
C4774 C 0.05301 0.02283 0.6124 0.0
C4775 C 0.04878 0.03272 0.62452 0.0
C4776 C 0.04773 0.02394 0.59521 0.0
C4777 C 0.06604 1.00004 0.60502 0.0
C4778 C 0.05831 0.02525 0.58379 0.0
C4779 C 0.05336 0.02518 0.56755 0.0
C4780 C 0.03777 0.02444 0.56235 0.0
C4781 C 0.02726 0.02416 0.5738 0.0
C4782 C 0.03217 0.02377 0.59006 0.0
H4783 H 0.06841 0.9899 0.61089 0.0
H4784 H 0.05635 0.99615 0.59544 0.0
H4785 H 0.07646 0.00471 0.59952 0.0
H4786 H 0.07045 0.02616 0.5874 0.0
H4787 H 0.06177 0.02571 0.55903 0.0
H4788 H 0.75649 0.37211 0.41352 0.0
H4789 H 0.75525 0.35475 0.38894 0.0
H4790 H 0.79352 0.33655 0.40964 0.0
H4791 H 0.79456 0.35351 0.43434 0.0
H4792 H 0.77983 0.35495 0.37018 0.0
H4793 H 0.76164 0.29812 0.39155 0.0
H4794 H 0.75938 0.31592 0.40239 0.0
H4795 H 0.77771 0.30999 0.40382 0.0
C4796 C 0.76443 0.36419 0.41288 0.0
C4797 C 0.77565 0.36409 0.42569 0.0
C4798 C 0.76374 0.35438 0.3989 0.0
C4799 C 0.77419 0.34436 0.39771 0.0
C4800 C 0.78523 0.34408 0.41056 0.0
H4801 H 0.79706 0.28396 0.32073 0.0
H4802 H 0.79781 0.30015 0.3462 0.0
C4803 C 0.78592 0.35386 0.42451 0.0
C4804 C 0.77438 0.33495 0.38264 0.0
H4805 H 0.7716 0.29802 0.36629 0.0
C4806 C 0.77796 0.3425 0.36925 0.0
C4807 C 0.77192 0.31878 0.38167 0.0
C4808 C 0.7673 0.3102 0.39558 0.0
C4809 C 0.77943 0.33419 0.35481 0.0
C4810 C 0.77721 0.31804 0.35395 0.0
C4811 C 0.77356 0.31047 0.36728 0.0
C4812 C 0.77721 0.30868 0.33886 0.0
C4813 C 0.78337 0.34267 0.34062 0.0
C4814 C 0.76525 0.30814 0.32678 0.0
C4815 C 0.76476 0.29899 0.31251 0.0
C4816 C 0.77623 0.29024 0.31018 0.0
C4817 C 0.78813 0.29062 0.32239 0.0
C4818 C 0.7886 0.29984 0.33677 0.0
H4819 H 0.78815 0.35503 0.34426 0.0
H4820 H 0.79178 0.33747 0.33404 0.0
H4821 H 0.77281 0.34185 0.33224 0.0
H4822 H 0.75625 0.31471 0.32845 0.0
H4823 H 0.75534 0.29878 0.30333 0.0
H4824 H 0.42008 0.03852 0.20747 0.0
H4825 H 0.43298 0.03876 0.18315 0.0
H4826 H 0.44685 0.9959 0.19189 0.0
H4827 H 0.43463 0.9959 0.21662 0.0
H4828 H 0.4698 0.0176 0.182 0.0
H4829 H 0.41448 0.0096 0.14274 0.0
H4830 H 0.41847 0.02587 0.15781 0.0
H4831 H 0.41534 0.00678 0.16368 0.0
C4832 C 0.42614 0.0293 0.20438 0.0
C4833 C 0.42627 0.01711 0.21385 0.0
C4834 C 0.43334 0.02939 0.19042 0.0
C4835 C 0.44056 0.01722 0.1857 0.0
C4836 C 0.4412 0.00534 0.19539 0.0
H4837 H 0.45828 0.97615 0.09675 0.0
H4838 H 0.44779 0.98525 0.12074 0.0
C4839 C 0.43412 0.00528 0.20939 0.0
C4840 C 0.44703 0.01639 0.17035 0.0
H4841 H 0.43687 0.00981 0.13006 0.0
C4842 C 0.46269 0.01602 0.17059 0.0
C4843 C 0.43756 0.01428 0.15563 0.0
C4844 C 0.4205 0.01403 0.15484 0.0
C4845 C 0.46912 0.01285 0.15645 0.0
C4846 C 0.45961 0.01051 0.14167 0.0
C4847 C 0.44407 0.01159 0.14142 0.0
C4848 C 0.46529 0.00576 0.1265 0.0
C4849 C 0.4858 0.01124 0.15768 0.0
C4850 C 0.47834 0.01446 0.12162 0.0
C4851 C 0.48483 0.00889 0.10848 0.0
C4852 C 0.47791 0.99488 0.09932 0.0
C4853 C 0.46417 0.98674 0.10365 0.0
C4854 C 0.45802 0.99206 0.11723 0.0
H4855 H 0.4901 0.00927 0.16996 0.0
H4856 H 0.48758 1.00159 0.14918 0.0
H4857 H 0.49286 0.022 0.15483 0.0
H4858 H 0.48385 0.0253 0.12833 0.0
H4859 H 0.49561 0.01545 0.106 0.0
H4860 H 0.78511 0.68841 0.92001 0.0
H4861 H 0.78692 0.69942 0.89461 0.0
H4862 H 0.76164 0.73392 0.91086 0.0
H4863 H 0.7601 0.72321 0.93648 0.0
H4864 H 0.76276 0.70281 0.87221 0.0
H4865 H 0.7991 0.75938 0.89488 0.0
H4866 H 0.797 0.74335 0.90666 0.0
H4867 H 0.78216 0.75461 0.90477 0.0
C4868 C 0.78014 0.69849 0.91831 0.0
C4869 C 0.77253 0.70495 0.93038 0.0
C4870 C 0.78109 0.70471 0.90371 0.0
C4871 C 0.77459 0.71762 0.90087 0.0
C4872 C 0.76697 0.72411 0.91286 0.0
H4873 H 0.76431 0.77073 0.82094 0.0
H4874 H 0.76443 0.75998 0.8465 0.0
C4875 C 0.76596 0.71787 0.92746 0.0
C4876 C 0.77534 0.72393 0.88515 0.0
H4877 H 0.7884 0.75617 0.86769 0.0
C4878 C 0.76845 0.71445 0.8712 0.0
C4879 C 0.78272 0.73913 0.88384 0.0
C4880 C 0.79079 0.7497 0.8983 0.0
C4881 C 0.76843 0.71984 0.85605 0.0
C4882 C 0.77583 0.73504 0.85472 0.0
C4883 C 0.78277 0.74451 0.86868 0.0
C4884 C 0.77604 0.74153 0.83906 0.0
C4885 C 0.76007 0.70936 0.84165 0.0
C4886 C 0.78266 0.73485 0.82632 0.0
C4887 C 0.7826 0.74099 0.81159 0.0
C4888 C 0.77609 0.75405 0.8094 0.0
C4889 C 0.76959 0.76076 0.82224 0.0
C4890 C 0.76962 0.75461 0.83689 0.0
H4891 H 0.75179 0.69972 0.84517 0.0
H4892 H 0.75375 0.71578 0.83347 0.0
H4893 H 0.76852 0.70438 0.83496 0.0
H4894 H 0.78796 0.72493 0.82778 0.0
H4895 H 0.78773 0.73558 0.80197 0.0
H4896 H 0.82702 0.07272 0.05612 0.0
H4897 H 0.85026 0.06144 0.05725 0.0
H4898 H 0.86699 0.08889 0.02078 0.0
H4899 H 0.84436 0.10071 0.02019 0.0
H4900 H 0.85858 0.04461 0.0328 0.0
H4901 H 0.90495 0.09456 0.05198 0.0
H4902 H 0.8851 0.09502 0.05454 0.0
H4903 H 0.89239 0.09867 0.03577 0.0
C4904 C 0.83586 0.07658 0.04865 0.0
C4905 C 0.83394 0.08755 0.03805 0.0
C4906 C 0.84907 0.07014 0.0493 0.0
C4907 C 0.86046 0.07466 0.03942 0.0
C4908 C 0.85855 0.08564 0.0289 0.0
H4909 H 0.91765 0.03954 0.98224 0.0
H4910 H 0.90059 0.05266 0.99743 0.0
C4911 C 0.84547 0.09215 0.02833 0.0
C4912 C 0.87352 0.06669 0.03847 0.0
H4913 H 0.91175 0.07366 0.03442 0.0
C4914 C 0.8703 0.05084 0.03369 0.0
C4915 C 0.88877 0.07488 0.03975 0.0
C4916 C 0.893 0.0917 0.04597 0.0
C4917 C 0.88177 0.04323 0.02869 0.0
C4918 C 0.89664 0.05175 0.02847 0.0
C4919 C 0.9002 0.06729 0.03449 0.0
C4920 C 0.90792 0.04505 0.02002 0.0
C4921 C 0.87776 0.02638 0.02256 0.0
C4922 C 0.91759 0.03666 0.02791 0.0
C4923 C 0.92726 0.02917 0.01929 0.0
C4924 C 0.92716 0.02992 0.00272 0.0
C4925 C 0.91762 0.03858 0.99494 0.0
C4926 C 0.90808 0.04617 0.00359 0.0
H4927 H 0.86588 0.02118 0.02449 0.0
H4928 H 0.87888 0.02488 0.00954 0.0
H4929 H 0.88591 0.02006 0.02864 0.0
H4930 H 0.91744 0.0357 0.0406 0.0
H4931 H 0.93463 0.02259 0.02548 0.0
H4932 H 0.36467 0.43976 0.05643 0.0
H4933 H 0.38992 0.45593 0.05605 0.0
H4934 H 0.38767 0.44339 0.00526 0.0
H4935 H 0.36281 0.42674 0.0055 0.0
H4936 H 0.4182 0.444 0.03787 0.0
H4937 H 0.39527 0.4945 0.0184 0.0
H4938 H 0.38483 0.48123 0.03025 0.0
H4939 H 0.38617 0.47545 0.00961 0.0
C4940 C 0.36959 0.44023 0.04519 0.0
C4941 C 0.3615 0.43195 0.03097 0.0
C4942 C 0.38399 0.44959 0.045 0.0
C4943 C 0.39057 0.45095 0.0306 0.0
C4944 C 0.38271 0.4426 0.01646 0.0
H4945 H 0.46977 0.50925 0.00069 0.0
H4946 H 0.44427 0.49429 0.00311 0.0
C4947 C 0.3684 0.43317 0.01664 0.0
C4948 C 0.40566 0.46107 0.03022 0.0
H4949 H 0.4221 0.49629 0.0208 0.0
C4950 C 0.41911 0.45547 0.03424 0.0
C4951 C 0.40675 0.4759 0.02523 0.0
C4952 C 0.39254 0.48227 0.02064 0.0
C4953 C 0.43369 0.46425 0.03317 0.0
C4954 C 0.43487 0.47931 0.02847 0.0
C4955 C 0.42131 0.48485 0.02448 0.0
C4956 C 0.45 0.48935 0.02738 0.0
C4957 C 0.4476 0.45697 0.03652 0.0
C4958 C 0.46159 0.49214 0.04036 0.0
C4959 C 0.47618 0.50037 0.03884 0.0
C4960 C 0.47935 0.50653 0.02453 0.0
C4961 C 0.46753 0.50474 0.0119 0.0
C4962 C 0.453 0.49611 0.01328 0.0
H4963 H 0.44454 0.44423 0.03475 0.0
H4964 H 0.45657 0.46068 0.02866 0.0
H4965 H 0.4525 0.46037 0.04918 0.0
H4966 H 0.45947 0.48766 0.0516 0.0
H4967 H 0.4851 0.50172 0.04879 0.0
H4968 H 0.38361 0.59208 0.73833 0.0
H4969 H 0.37029 0.61398 0.73947 0.0
H4970 H 0.34504 0.59553 0.77666 0.0
H4971 H 0.35814 0.57359 0.77554 0.0
H4972 H 0.33873 0.61614 0.73557 0.0
H4973 H 0.36586 0.63863 0.79694 0.0
H4974 H 0.37269 0.62407 0.78473 0.0
H4975 H 0.35629 0.61896 0.79539 0.0
C4976 C 0.3751 0.59258 0.74664 0.0
C4977 C 0.3721 0.58112 0.75698 0.0
C4978 C 0.36753 0.60514 0.7473 0.0
C4979 C 0.35686 0.60653 0.75834 0.0
C4980 C 0.35348 0.59488 0.76829 0.0
H4981 H 0.29847 0.66776 0.78893 0.0
H4982 H 0.30936 0.6454 0.77976 0.0
C4983 C 0.36103 0.58235 0.76766 0.0
C4984 C 0.34954 0.62032 0.75989 0.0
H4985 H 0.34472 0.64952 0.78708 0.0
C4986 C 0.34015 0.62354 0.74677 0.0
C4987 C 0.35153 0.63008 0.77446 0.0
C4988 C 0.36226 0.62789 0.78864 0.0
C4989 C 0.33222 0.63592 0.7481 0.0
C4990 C 0.33374 0.64521 0.76288 0.0
C4991 C 0.34345 0.64224 0.77581 0.0
C4992 C 0.32518 0.65792 0.76554 0.0
C4993 C 0.3219 0.63877 0.73393 0.0
C4994 C 0.33018 0.67226 0.7602 0.0
C4995 C 0.32389 0.68502 0.76537 0.0
C4996 C 0.31264 0.68359 0.77602 0.0
C4997 C 0.3071 0.66908 0.78067 0.0
C4998 C 0.31331 0.65635 0.77545 0.0
H4999 H 0.32155 0.6302 0.72339 0.0
H5000 H 0.31007 0.63841 0.73724 0.0
H5001 H 0.326 0.65042 0.73052 0.0
H5002 H 0.33949 0.67375 0.75276 0.0
H5003 H 0.32845 0.69616 0.76182 0.0
H5004 H 0.18698 0.57552 0.50254 0.0
H5005 H 0.15976 0.56419 0.4999 0.0
H5006 H 0.16457 0.55233 0.54829 0.0
H5007 H 0.19201 0.56355 0.55104 0.0
H5008 H 0.14398 0.53373 0.50516 0.0
H5009 H 0.13276 0.58214 0.54642 0.0
H5010 H 0.1503 0.58299 0.53709 0.0
H5011 H 0.14743 0.57221 0.55386 0.0
C5012 C 0.18235 0.57011 0.51247 0.0
C5013 C 0.19151 0.57037 0.52701 0.0
C5014 C 0.16683 0.56376 0.51096 0.0
C5015 C 0.16033 0.55767 0.52397 0.0
C5016 C 0.16953 0.55719 0.53824 0.0
H5017 H 0.07051 0.51041 0.53328 0.0
H5018 H 0.09796 0.51846 0.53228 0.0
C5019 C 0.18509 0.56356 0.53978 0.0
C5020 C 0.14372 0.55273 0.52285 0.0
H5021 H 0.11166 0.5622 0.53705 0.0
C5022 C 0.13686 0.53988 0.51212 0.0
C5023 C 0.13465 0.56113 0.53175 0.0
C5024 C 0.14159 0.57547 0.54284 0.0
C5025 C 0.12097 0.53491 0.51035 0.0
C5026 C 0.11198 0.54303 0.51959 0.0
C5027 C 0.11878 0.55607 0.53006 0.0
C5028 C 0.09548 0.53775 0.51911 0.0
C5029 C 0.11381 0.52113 0.49862 0.0
C5030 C 0.08525 0.54617 0.51215 0.0
C5031 C 0.06958 0.54176 0.51287 0.0
C5032 C 0.06405 0.52886 0.52047 0.0
C5033 C 0.07441 0.52032 0.52719 0.0
C5034 C 0.09006 0.52484 0.52661 0.0
H5035 H 0.12219 0.51733 0.49089 0.0
H5036 H 0.10921 0.51146 0.50527 0.0
H5037 H 0.10404 0.52381 0.49089 0.0
H5038 H 0.08944 0.55627 0.50646 0.0
H5039 H 0.06189 0.54869 0.5079 0.0
H5040 H 0.73528 0.97682 0.75259 0.0
H5041 H 0.74707 0.95402 0.75441 0.0
H5042 H 0.7028 0.92502 0.73961 0.0
H5043 H 0.69129 0.94776 0.73701 0.0
H5044 H 0.73939 0.93567 0.77562 0.0
H5045 H 0.72929 0.90082 0.71672 0.0
H5046 H 0.72733 0.92074 0.719 0.0
H5047 H 0.71174 0.90587 0.72228 0.0
C5048 C 0.7283 0.96552 0.74918 0.0
C5049 C 0.71252 0.96382 0.74458 0.0
C5050 C 0.73497 0.95258 0.75019 0.0
C5051 C 0.72584 0.93786 0.7469 0.0
C5052 C 0.71016 0.93624 0.74165 0.0
H5053 H 0.72265 0.85082 0.78081 0.0
H5054 H 0.71809 0.87386 0.76868 0.0
C5055 C 0.70356 0.94918 0.74031 0.0
C5056 C 0.73194 0.92444 0.7517 0.0
H5057 H 0.73205 0.88676 0.73999 0.0
C5058 C 0.73814 0.92509 0.76771 0.0
C5059 C 0.73016 0.91064 0.74138 0.0
C5060 C 0.72441 0.90954 0.72385 0.0
C5061 C 0.7419 0.91207 0.77392 0.0
C5062 C 0.7394 0.89813 0.76381 0.0
C5063 C 0.73375 0.89753 0.74767 0.0
C5064 C 0.74219 0.88397 0.77009 0.0
C5065 C 0.74791 0.91313 0.79141 0.0
C5066 C 0.7572 0.88227 0.77481 0.0
C5067 C 0.75981 0.86939 0.78198 0.0
C5068 C 0.74743 0.85791 0.78431 0.0
C5069 C 0.73237 0.85959 0.77935 0.0
C5070 C 0.72977 0.87257 0.77226 0.0
H5071 H 0.74692 0.92419 0.79812 0.0
H5072 H 0.7416 0.90357 0.79713 0.0
H5073 H 0.76021 0.91214 0.79245 0.0
H5074 H 0.76687 0.89102 0.77317 0.0
H5075 H 0.77154 0.8685 0.78584 0.0
H5076 H 0.70296 0.91314 0.54654 0.0
H5077 H 0.68098 0.92631 0.54511 0.0
H5078 H 0.69836 0.94979 0.50632 0.0
H5079 H 0.72054 0.93707 0.50789 0.0
H5080 H 0.67964 0.95928 0.54703 0.0
H5081 H 0.65417 0.92706 0.48845 0.0
H5082 H 0.66876 0.92081 0.50122 0.0
H5083 H 0.67397 0.936 0.48901 0.0
C5084 C 0.70227 0.92126 0.53784 0.0
C5085 C 0.71356 0.92388 0.52722 0.0
C5086 C 0.68962 0.92873 0.537 0.0
C5087 C 0.68791 0.93888 0.52547 0.0
C5088 C 0.6993 0.94181 0.51514 0.0
H5089 H 0.63213 1.00186 0.49686 0.0
H5090 H 0.65256 0.98921 0.50772 0.0
C5091 C 0.71196 0.93443 0.51601 0.0
C5092 C 0.67406 0.94614 0.52382 0.0
H5093 H 0.64356 0.94878 0.49713 0.0
C5094 C 0.67165 0.95687 0.5362 0.0
C5095 C 0.66353 0.94287 0.50977 0.0
C5096 C 0.6651 0.93095 0.49639 0.0
C5097 C 0.65937 0.96491 0.53452 0.0
C5098 C 0.64928 0.96208 0.52019 0.0
C5099 C 0.65136 0.95095 0.50811 0.0
C5100 C 0.63718 0.97129 0.51683 0.0
C5101 C 0.65738 0.97664 0.54785 0.0
C5102 C 0.62178 0.96566 0.51881 0.0
C5103 C 0.61008 0.97301 0.51278 0.0
C5104 C 0.61362 0.98594 0.50448 0.0
C5105 C 0.62911 0.99198 0.50331 0.0
C5106 C 0.64078 0.98476 0.50948 0.0
H5107 H 0.66542 0.97669 0.55875 0.0
H5108 H 0.65939 0.98824 0.54372 0.0
H5109 H 0.64541 0.97429 0.55098 0.0
H5110 H 0.61877 0.95518 0.52431 0.0
H5111 H 0.59822 0.968 0.51363 0.0
H5112 H 0.34449 0.44305 0.76397 0.0
H5113 H 0.32899 0.41756 0.76478 0.0
H5114 H 0.36254 0.39671 0.74147 0.0
H5115 H 0.37819 0.42218 0.74077 0.0
H5116 H 0.31638 0.39344 0.73909 0.0
H5117 H 0.35831 0.3759 0.78345 0.0
H5118 H 0.35886 0.39568 0.77987 0.0
H5119 H 0.36603 0.38285 0.766 0.0
C5120 C 0.34858 0.43304 0.75903 0.0
C5121 C 0.36264 0.43465 0.75241 0.0
C5122 C 0.33967 0.41849 0.75943 0.0
C5123 C 0.3447 0.40523 0.75339 0.0
C5124 C 0.35853 0.40679 0.74639 0.0
H5125 H 0.3079 0.30788 0.74373 0.0
H5126 H 0.32155 0.33376 0.74139 0.0
C5127 C 0.3674 0.42135 0.74587 0.0
C5128 C 0.33563 0.38978 0.75472 0.0
H5129 H 0.33688 0.35691 0.77242 0.0
C5130 C 0.32083 0.38548 0.74643 0.0
C5131 C 0.34143 0.37942 0.76435 0.0
C5132 C 0.35697 0.38368 0.77405 0.0
C5133 C 0.31181 0.37098 0.74731 0.0
C5134 C 0.31768 0.36062 0.75682 0.0
C5135 C 0.33243 0.36492 0.76516 0.0
C5136 C 0.30885 0.34507 0.75791 0.0
C5137 C 0.29616 0.3666 0.73787 0.0
C5138 C 0.29716 0.34288 0.768 0.0
C5139 C 0.28937 0.32804 0.76951 0.0
C5140 C 0.2931 0.31516 0.76084 0.0
C5141 C 0.30471 0.31751 0.75059 0.0
C5142 C 0.31254 0.33229 0.7492 0.0
H5143 H 0.2936 0.37557 0.73025 0.0
H5144 H 0.29538 0.35563 0.73013 0.0
H5145 H 0.28725 0.36473 0.74622 0.0
H5146 H 0.29426 0.35264 0.77492 0.0
H5147 H 0.28067 0.32664 0.77768 0.0
H5148 H 0.24283 0.60213 0.26419 0.0
H5149 H 0.25477 0.62941 0.26828 0.0
H5150 H 0.21441 0.6408 0.24345 0.0
H5151 H 0.20228 0.61369 0.23956 0.0
H5152 H 0.24971 0.65563 0.23753 0.0
H5153 H 0.23064 0.65953 0.29873 0.0
H5154 H 0.23808 0.64292 0.29135 0.0
H5155 H 0.21992 0.64602 0.2826 0.0
C5156 C 0.23663 0.61046 0.25942 0.0
C5157 C 0.22165 0.60591 0.25164 0.0
C5158 C 0.24345 0.62593 0.26171 0.0
C5159 C 0.23533 0.63688 0.25621 0.0
C5160 C 0.22075 0.63234 0.24768 0.0
H5161 H 0.24093 0.73341 0.27127 0.0
H5162 H 0.23337 0.70554 0.27052 0.0
C5163 C 0.21392 0.6169 0.2454 0.0
C5164 C 0.24147 0.65319 0.26049 0.0
H5165 H 0.24337 0.68232 0.29021 0.0
C5166 C 0.24852 0.66151 0.24907 0.0
C5167 C 0.23955 0.6606 0.27549 0.0
C5168 C 0.23161 0.6519 0.28782 0.0
C5169 C 0.25372 0.67735 0.2523 0.0
C5170 C 0.25191 0.68476 0.26738 0.0
C5171 C 0.24485 0.67641 0.27879 0.0
C5172 C 0.25664 0.70137 0.2711 0.0
C5173 C 0.26072 0.68611 0.23946 0.0
C5174 C 0.27221 0.70802 0.27252 0.0
C5175 C 0.27653 0.72385 0.27318 0.0
C5176 C 0.26529 0.7331 0.27242 0.0
C5177 C 0.24977 0.72649 0.27219 0.0
C5178 C 0.24545 0.71063 0.27161 0.0
H5179 H 0.2586 0.67915 0.22756 0.0
H5180 H 0.25604 0.69681 0.23844 0.0
H5181 H 0.27332 0.68943 0.24268 0.0
H5182 H 0.28093 0.70091 0.27228 0.0
H5183 H 0.28859 0.72879 0.2734 0.0
H5184 H 0.5125 0.69178 0.49178 0.0
H5185 H 0.51534 0.66705 0.50134 0.0
H5186 H 0.50377 0.64472 0.4532 0.0
H5187 H 0.50096 0.6693 0.44353 0.0
H5188 H 0.49302 0.63735 0.4979 0.0
H5189 H 0.54556 0.63227 0.46879 0.0
H5190 H 0.53937 0.65039 0.4728 0.0
H5191 H 0.53001 0.63694 0.45615 0.0
C5192 C 0.51061 0.68166 0.48315 0.0
C5193 C 0.5065 0.6828 0.46676 0.0
C5194 C 0.51216 0.66741 0.4887 0.0
C5195 C 0.50992 0.65383 0.47805 0.0
C5196 C 0.50573 0.65492 0.46174 0.0
H5197 H 0.51406 0.55647 0.48161 0.0
H5198 H 0.51155 0.58208 0.47453 0.0
C5199 C 0.50399 0.66909 0.45622 0.0
C5200 C 0.51206 0.63861 0.48384 0.0
H5201 H 0.53383 0.61041 0.4801 0.0
C5202 C 0.50204 0.63155 0.49409 0.0
C5203 C 0.52379 0.63083 0.47899 0.0
C5204 C 0.53541 0.63798 0.46868 0.0
C5205 C 0.50315 0.61695 0.49915 0.0
C5206 C 0.51477 0.60909 0.49411 0.0
C5207 C 0.52488 0.61624 0.48402 0.0
C5208 C 0.51633 0.59331 0.49876 0.0
C5209 C 0.49151 0.60975 0.50942 0.0
C5210 C 0.51997 0.59078 0.51482 0.0
C5211 C 0.52146 0.57601 0.51893 0.0
C5212 C 0.51944 0.56329 0.50714 0.0
C5213 C 0.51576 0.56588 0.4911 0.0
C5214 C 0.51435 0.58062 0.48699 0.0
H5215 H 0.48166 0.61584 0.50989 0.0
H5216 H 0.4871 0.59751 0.50482 0.0
H5217 H 0.49708 0.61012 0.52181 0.0
H5218 H 0.52175 0.60026 0.52422 0.0
H5219 H 0.52399 0.57452 0.53141 0.0
H5220 H 0.62232 0.30693 0.67687 0.0
H5221 H 0.6467 0.3067 0.69267 0.0
H5222 H 0.64859 0.26269 0.66775 0.0
H5223 H 0.62497 0.2633 0.65112 0.0
H5224 H 0.65572 0.28911 0.71354 0.0
H5225 H 0.69063 0.2837 0.66326 0.0
H5226 H 0.67144 0.28764 0.66041 0.0
H5227 H 0.67451 0.26823 0.66143 0.0
C5228 C 0.62801 0.29731 0.67442 0.0
C5229 C 0.6214 0.28518 0.66243 0.0
C5230 C 0.64199 0.29713 0.68368 0.0
C5231 C 0.64989 0.28483 0.68131 0.0
C5232 C 0.64316 0.27258 0.66963 0.0
H5233 H 0.73142 0.25631 0.7257 0.0
H5234 H 0.70763 0.25889 0.70986 0.0
C5235 C 0.62932 0.27283 0.66024 0.0
C5236 C 0.66488 0.28463 0.69121 0.0
H5237 H 0.70172 0.2788 0.68867 0.0
C5238 C 0.66579 0.28699 0.70805 0.0
C5239 C 0.67823 0.28194 0.68424 0.0
C5240 C 0.67873 0.2804 0.66635 0.0
C5241 C 0.67931 0.28622 0.71796 0.0
C5242 C 0.69251 0.28317 0.71096 0.0
C5243 C 0.69167 0.28102 0.69415 0.0
C5244 C 0.70718 0.2818 0.72074 0.0
C5245 C 0.67911 0.2882 0.73588 0.0
C5246 C 0.71516 0.29384 0.73211 0.0
C5247 C 0.72884 0.29235 0.74116 0.0
C5248 C 0.73502 0.27891 0.73885 0.0
C5249 C 0.72713 0.26693 0.72747 0.0
C5250 C 0.71345 0.26838 0.71847 0.0
H5251 H 0.66722 0.28631 0.73927 0.0
H5252 H 0.68548 0.28015 0.74173 0.0
H5253 H 0.68472 0.3001 0.74065 0.0
H5254 H 0.71089 0.30446 0.73394 0.0
H5255 H 0.73463 0.30173 0.74993 0.0
H5256 H 0.02521 0.35362 0.95208 0.0
H5257 H 0.0266 0.38072 0.96148 0.0
H5258 H 0.99749 0.36786 0.99785 0.0
H5259 H 0.99634 0.34068 0.9888 0.0
H5260 H 1.0034 0.39735 0.96239 0.0
H5261 H 0.03155 0.39918 0.02413 0.0
H5262 H 0.03095 0.38326 0.00903 0.0
H5263 H 0.0144 0.38488 0.01931 0.0
C5264 C 0.0193 0.35645 0.96227 0.0
C5265 C 0.01071 0.34469 0.96964 0.0
C5266 C 0.02002 0.37208 0.96759 0.0
C5267 C 0.01233 0.37657 0.98058 0.0
C5268 C 0.0038 0.36489 0.98802 0.0
H5269 H 0.00406 0.46843 0.0262 0.0
H5270 H 1.00195 0.44065 0.01923 0.0
C5271 C 1.003 0.34924 0.98266 0.0
C5272 C 0.01272 0.39339 0.98574 0.0
H5273 H 0.0226 0.42163 0.01751 0.0
C5274 C 0.00765 0.40261 0.97445 0.0
C5275 C 0.0181 0.40045 0.00152 0.0
C5276 C 0.02419 0.3915 0.01419 0.0
C5277 C 0.00769 0.41842 0.97842 0.0
C5278 C 0.01337 0.42559 0.9941 0.0
C5279 C 0.01825 0.41633 0.00549 0.0
C5280 C 0.01473 0.44267 0.99867 0.0
C5281 C 1.00124 0.42718 0.96575 0.0
C5282 C 0.02287 0.45335 0.9898 0.0
C5283 C 0.02387 0.46923 0.99362 0.0
C5284 C 0.01697 0.47512 0.00665 0.0
C5285 C 0.00926 0.46447 0.01591 0.0
C5286 C 0.00814 0.44849 0.01197 0.0
H5287 H 0.99294 0.4194 0.95662 0.0
H5288 H 0.99538 0.43615 0.97106 0.0
H5289 H 0.01075 0.43283 0.95949 0.0
H5290 H 0.02855 0.4494 0.97984 0.0
H5291 H 0.03016 0.47692 0.98629 0.0
H5292 H 0.97426 0.80359 0.1611 0.0
H5293 H 0.95134 0.80254 0.17518 0.0
H5294 H 0.94311 0.75312 0.16784 0.0
H5295 H 0.96566 0.75398 0.15331 0.0
H5296 H 0.91958 0.78829 0.16459 0.0
H5297 H 0.94337 0.76317 0.217 0.0
H5298 H 0.95534 0.77227 0.20316 0.0
H5299 H 0.94467 0.75309 0.19785 0.0
C5300 C 0.96754 0.79245 0.16225 0.0
C5301 C 0.97209 0.77887 0.15599 0.0
C5302 C 0.95441 0.79189 0.17044 0.0
C5303 C 0.94551 0.77775 0.17281 0.0
C5304 C 0.94988 0.76419 0.16648 0.0
H5305 H 0.85363 0.75333 0.20162 0.0
H5306 H 0.87563 0.75996 0.18652 0.0
C5307 C 0.96292 0.76473 0.15818 0.0
C5308 C 0.9317 0.77714 0.18188 0.0
H5309 H 0.91693 0.7645 0.21536 0.0
C5310 C 0.91903 0.78315 0.17573 0.0
C5311 C 0.93094 0.77061 0.19654 0.0
C5312 C 0.94433 0.76452 0.20416 0.0
C5313 C 0.90559 0.78243 0.18357 0.0
C5314 C 0.90466 0.77547 0.19799 0.0
C5315 C 0.9175 0.76981 0.20432 0.0
C5316 C 0.89043 0.77349 0.20652 0.0
C5317 C 0.89255 0.78929 0.17639 0.0
C5318 C 0.8911 0.77905 0.2228 0.0
C5319 C 0.87839 0.77537 0.23142 0.0
C5320 C 0.86468 0.76603 0.22399 0.0
C5321 C 0.86379 0.76104 0.20754 0.0
C5322 C 0.87647 0.76475 0.19891 0.0
H5323 H 0.89655 0.79789 0.16823 0.0
H5324 H 0.8839 0.78002 0.1693 0.0
H5325 H 0.88685 0.79487 0.18586 0.0
H5326 H 0.90169 0.78571 0.22905 0.0
H5327 H 0.87964 0.77893 0.24417 0.0
H5328 H 0.49295 0.32418 0.12608 0.0
H5329 H 0.49465 0.34689 0.11151 0.0
H5330 H 0.54355 0.34995 0.11285 0.0
H5331 H 0.54217 0.32773 0.12794 0.0
H5332 H 0.51578 0.37873 0.12133 0.0
H5333 H 0.52519 0.34819 0.06359 0.0
H5334 H 0.51591 0.33831 0.07885 0.0
H5335 H 0.53634 0.34464 0.08131 0.0
C5336 C 0.50414 0.32974 0.12352 0.0
C5337 C 0.51741 0.32384 0.12825 0.0
C5338 C 0.50506 0.34273 0.11506 0.0
C5339 C 0.51921 0.3501 0.11092 0.0
C5340 C 0.53246 0.34439 0.1157 0.0
H5341 H 0.55708 0.43347 0.07305 0.0
H5342 H 0.55016 0.41206 0.08894 0.0
C5343 C 0.5316 0.33152 0.12428 0.0
C5344 C 0.52025 0.36369 0.10156 0.0
H5345 H 0.52829 0.3753 0.06517 0.0
C5346 C 0.51839 0.37795 0.10901 0.0
C5347 C 0.52358 0.36272 0.08544 0.0
C5348 C 0.52528 0.34765 0.0767 0.0
C5349 C 0.52028 0.39128 0.10096 0.0
C5350 C 0.52403 0.39038 0.08501 0.0
C5351 C 0.52542 0.37603 0.0774 0.0
C5352 C 0.52744 0.40432 0.07634 0.0
C5353 C 0.51844 0.40635 0.10957 0.0
C5354 C 0.51689 0.40735 0.0641 0.0
C5355 C 0.52074 0.41982 0.05517 0.0
C5356 C 0.53534 0.42933 0.0581 0.0
C5357 C 0.54572 0.42643 0.07057 0.0
C5358 C 0.54179 0.41417 0.07965 0.0
H5359 H 0.51358 0.40486 0.1211 0.0
H5360 H 0.52982 0.41408 0.11205 0.0
H5361 H 0.51086 0.41206 0.10189 0.0
H5362 H 0.50578 0.39989 0.06126 0.0
H5363 H 0.51258 0.42162 0.0455 0.0
H5364 H 0.94238 0.26479 0.32546 0.0
H5365 H 0.91526 0.26332 0.31622 0.0
H5366 H 0.92664 0.30473 0.29374 0.0
H5367 H 0.95385 0.30595 0.30236 0.0
H5368 H 0.89627 0.28226 0.32347 0.0
H5369 H 0.89817 0.27907 0.25791 0.0
H5370 H 0.91423 0.27665 0.2715 0.0
H5371 H 0.91076 0.29559 0.26859 0.0
C5372 C 0.93926 0.27345 0.31827 0.0
C5373 C 0.95062 0.28548 0.31472 0.0
C5374 C 0.92359 0.27266 0.31306 0.0
C5375 C 0.91864 0.28378 0.30402 0.0
C5376 C 0.92994 0.29575 0.30037 0.0
H5377 H 0.82571 0.29897 0.26889 0.0
H5378 H 0.85355 0.30163 0.27581 0.0
C5379 C 0.94563 0.29656 0.30556 0.0
C5380 C 0.9017 0.28323 0.29923 0.0
H5381 H 0.87466 0.28314 0.26732 0.0
C5382 C 0.89161 0.28239 0.31115 0.0
C5383 C 0.89535 0.28348 0.28317 0.0
C5384 C 0.90515 0.2836 0.26953 0.0
C5385 C 0.87569 0.28197 0.30762 0.0
C5386 C 0.86931 0.28211 0.29158 0.0
C5387 C 0.87938 0.2831 0.27963 0.0
C5388 C 0.85221 0.28058 0.28701 0.0
C5389 C 0.86587 0.28166 0.32127 0.0
C5390 C 0.84194 0.26781 0.29064 0.0
C5391 C 0.82602 0.26636 0.28683 0.0
C5392 C 0.81963 0.27757 0.27907 0.0
C5393 C 0.82995 0.29024 0.27511 0.0
C5394 C 0.846 0.2917 0.27897 0.0
H5395 H 0.8728 0.28634 0.33287 0.0
H5396 H 0.85659 0.28837 0.31926 0.0
H5397 H 0.86052 0.2696 0.32226 0.0
H5398 H 0.84626 0.2588 0.29642 0.0
H5399 H 0.8187 0.2563 0.29004 0.0
H5400 H 0.98709 0.66268 0.62306 0.0
H5401 H 0.98807 0.63875 0.60667 0.0
H5402 H 0.03511 0.65608 0.60011 0.0
H5403 H 0.03423 0.68005 0.61631 0.0
H5404 H 0.99352 0.63219 0.57553 0.0
H5405 H 0.0388 0.61522 0.61593 0.0
H5406 H 0.02897 0.63057 0.62188 0.0
H5407 H 0.04447 0.6339 0.60964 0.0
C5408 C 0.99764 0.66152 0.61806 0.0
C5409 C 0.01062 0.67345 0.62128 0.0
C5410 C 0.9982 0.64771 0.6087 0.0
C5411 C 0.01177 0.64533 0.60234 0.0
C5412 C 0.02462 0.65732 0.6052 0.0
H5413 H 0.03538 0.57497 0.53482 0.0
H5414 H 0.03324 0.59865 0.55107 0.0
C5415 C 0.02408 0.67112 0.61454 0.0
C5416 C 0.01246 0.6304 0.59266 0.0
H5417 H 0.03234 0.60066 0.59031 0.0
C5418 C 1.00196 0.62528 0.57887 0.0
C5419 C 0.0234 0.6212 0.59691 0.0
C5420 C 0.03445 0.62539 0.61198 0.0
C5421 C 1.00236 0.61156 0.56916 0.0
C5422 C 0.01346 0.60258 0.57328 0.0
C5423 C 0.02386 0.60756 0.58709 0.0
C5424 C 0.01454 0.58806 0.56327 0.0
C5425 C 0.99107 0.60677 0.55434 0.0
C5426 C 0.00478 0.57412 0.56471 0.0
C5427 C 0.006 0.56049 0.55542 0.0
C5428 C 0.01693 0.56049 0.54437 0.0
C5429 C 0.02668 0.57451 0.54301 0.0
C5430 C 0.02553 0.58808 0.55237 0.0
H5431 H 0.98363 0.61535 0.55223 0.0
H5432 H 0.99734 0.6051 0.54372 0.0
H5433 H 0.98368 0.59559 0.55551 0.0
H5434 H 0.99625 0.57378 0.57309 0.0
H5435 H 0.99831 0.54995 0.55683 0.0
H5436 H 0.62547 0.79706 0.84105 0.0
H5437 H 0.65014 0.79459 0.83151 0.0
H5438 H 0.62728 0.77775 0.78437 0.0
H5439 H 0.60256 0.78051 0.7937 0.0
H5440 H 0.66046 0.76886 0.81871 0.0
H5441 H 0.66171 0.81071 0.77388 0.0
H5442 H 0.6485 0.80981 0.7889 0.0
H5443 H 0.64478 0.79602 0.77138 0.0
C5444 C 0.6256 0.79304 0.82857 0.0
C5445 C 0.61174 0.78911 0.81823 0.0
C5446 C 0.63984 0.79151 0.82312 0.0
C5447 C 0.64086 0.78616 0.80708 0.0
C5448 C 0.62707 0.78218 0.79671 0.0
H5449 H 0.71965 0.76985 0.75475 0.0
H5450 H 0.69401 0.77168 0.76234 0.0
C5451 C 0.61279 0.78361 0.80217 0.0
C5452 C 0.65623 0.78438 0.80146 0.0
H5453 H 0.68154 0.79612 0.7747 0.0
C5454 C 0.66504 0.77489 0.80912 0.0
C5455 C 0.66239 0.79206 0.7888 0.0
C5456 C 0.65395 0.80283 0.78032 0.0
C5457 C 0.6795 0.7728 0.8045 0.0
C5458 C 0.6858 0.7807 0.79207 0.0
C5459 C 0.67692 0.79005 0.78425 0.0
C5460 C 0.70163 0.77962 0.78729 0.0
C5461 C 0.68775 0.76175 0.81276 0.0
C5462 C 0.71477 0.78359 0.79859 0.0
C5463 C 0.72947 0.78238 0.79428 0.0
C5464 C 0.73166 0.77731 0.77847 0.0
C5465 C 0.71854 0.7736 0.76708 0.0
C5466 C 0.70379 0.77476 0.77141 0.0
H5467 H 0.67971 0.75337 0.81838 0.0
H5468 H 0.69375 0.75531 0.80424 0.0
H5469 H 0.69642 0.76828 0.82237 0.0
H5470 H 0.71369 0.78772 0.81083 0.0
H5471 H 0.73914 0.78528 0.80348 0.0
H5472 H 0.4381 0.50338 0.66599 0.0
H5473 H 0.44907 0.5049 0.64051 0.0
H5474 H 0.49112 0.53186 0.66505 0.0
H5475 H 0.48048 0.53005 0.6907 0.0
H5476 H 0.47397 0.54264 0.63396 0.0
H5477 H 0.48899 0.48432 0.62892 0.0
H5478 H 0.47092 0.4866 0.63599 0.0
H5479 H 0.48853 0.49507 0.64806 0.0
C5480 C 0.44977 0.50945 0.66607 0.0
C5481 C 0.45839 0.51655 0.68051 0.0
C5482 C 0.45597 0.5104 0.65144 0.0
C5483 C 0.47089 0.51849 0.6509 0.0
C5484 C 0.47954 0.52562 0.66521 0.0
H5485 H 0.52779 0.51711 0.57278 0.0
H5486 H 0.51739 0.51692 0.59849 0.0
C5487 C 0.4734 0.52461 0.67986 0.0
C5488 C 0.47744 0.51947 0.63538 0.0
H5489 H 0.49292 0.49873 0.60715 0.0
C5490 C 0.47812 0.53307 0.62806 0.0
C5491 C 0.483 0.50703 0.62784 0.0
C5492 C 0.48295 0.4924 0.63554 0.0
C5493 C 0.48409 0.53449 0.61328 0.0
C5494 C 0.4893 0.52188 0.60548 0.0
C5495 C 0.48881 0.50836 0.61299 0.0
C5496 C 0.49564 0.52251 0.58973 0.0
C5497 C 0.48506 0.54962 0.60634 0.0
C5498 C 0.48689 0.52564 0.57609 0.0
C5499 C 0.49289 0.5259 0.56129 0.0
C5500 C 0.5077 0.52283 0.55976 0.0
C5501 C 0.51636 0.5196 0.57344 0.0
C5502 C 0.51041 0.51944 0.58821 0.0
H5503 H 0.48478 0.55921 0.61568 0.0
H5504 H 0.49571 0.55238 0.60047 0.0
H5505 H 0.47507 0.54891 0.59723 0.0
H5506 H 0.47533 0.52769 0.57681 0.0
H5507 H 0.48585 0.52836 0.55103 0.0
H5508 H 0.74773 0.15864 0.94867 0.0
H5509 H 0.74911 0.17323 0.92554 0.0
H5510 H 0.79194 0.201 0.9474 0.0
H5511 H 0.79054 0.18666 0.97084 0.0
H5512 H 0.7548 0.21006 0.93262 0.0
H5513 H 0.79394 0.18266 0.89616 0.0
H5514 H 0.78178 0.17174 0.90867 0.0
H5515 H 0.7978 0.18596 0.91773 0.0
C5516 C 0.75743 0.16786 0.94856 0.0
C5517 C 0.76897 0.17163 0.96155 0.0
C5518 C 0.75828 0.17602 0.93532 0.0
C5519 C 0.7707 0.18795 0.93486 0.0
C5520 C 0.78241 0.19161 0.9476 0.0
H5521 H 0.76484 0.25816 0.87125 0.0
H5522 H 0.7751 0.24448 0.89251 0.0
C5523 C 0.78158 0.18345 0.9609 0.0
C5524 C 0.77044 0.19752 0.92173 0.0
H5525 H 0.78208 0.2016 0.88479 0.0
C5526 C 0.76092 0.20844 0.92224 0.0
C5527 C 0.77839 0.19507 0.90832 0.0
C5528 C 0.78858 0.18323 0.90753 0.0
C5529 C 0.75873 0.21681 0.90933 0.0
C5530 C 0.76652 0.21429 0.89576 0.0
C5531 C 0.77631 0.20354 0.89535 0.0
C5532 C 0.7635 0.222 0.88153 0.0
C5533 C 0.74759 0.2278 0.90998 0.0
C5534 C 0.7542 0.21368 0.86815 0.0
C5535 C 0.74843 0.22144 0.85605 0.0
C5536 C 0.75184 0.23752 0.85739 0.0
C5537 C 0.76191 0.24574 0.87028 0.0
C5538 C 0.76784 0.23798 0.88225 0.0
H5539 H 0.74069 0.22651 0.92026 0.0
H5540 H 0.75404 0.23978 0.91122 0.0
H5541 H 0.73962 0.22597 0.89876 0.0
H5542 H 0.75071 0.20133 0.86753 0.0
H5543 H 0.74076 0.21497 0.84605 0.0
H5544 H 0.10426 0.5415 0.18535 0.0
H5545 H 0.08762 0.54057 0.16036 0.0
H5546 H 0.10922 0.50537 0.13844 0.0
H5547 H 0.12603 0.50634 0.16331 0.0
H5548 H 0.09928 0.54528 0.12932 0.0
H5549 H 0.06167 0.48849 0.13077 0.0
H5550 H 0.07262 0.49944 0.14851 0.0
H5551 H 0.08201 0.48907 0.13439 0.0
C5552 C 0.10545 0.5336 0.17517 0.0
C5553 C 0.11634 0.52397 0.17614 0.0
C5554 C 0.09594 0.53303 0.16103 0.0
C5555 C 0.09721 0.52279 0.14783 0.0
C5556 C 0.10802 0.51314 0.14873 0.0
H5557 H 0.05599 0.50306 0.05103 0.0
H5558 H 0.07094 0.50395 0.07695 0.0
C5559 C 0.11754 0.5137 0.16286 0.0
C5560 C 0.08766 0.52267 0.13281 0.0
H5561 H 0.05902 0.50045 0.107 0.0
C5562 C 0.09039 0.53556 0.12443 0.0
C5563 C 0.07624 0.50987 0.12665 0.0
C5564 C 0.07282 0.49595 0.13556 0.0
C5565 C 0.08205 0.53587 0.10966 0.0
C5566 C 0.07062 0.52307 0.1035 0.0
C5567 C 0.06783 0.51021 0.11194 0.0
C5568 C 0.06159 0.52264 0.08809 0.0
C5569 C 0.08577 0.54966 0.10059 0.0
C5570 C 0.0514 0.5328 0.08607 0.0
C5571 C 0.04291 0.53238 0.07132 0.0
C5572 C 0.04447 0.52169 0.05855 0.0
C5573 C 0.05461 0.51143 0.0607 0.0
C5574 C 0.0631 0.51188 0.07544 0.0
H5575 H 0.09705 0.55691 0.10531 0.0
H5576 H 0.0859 0.54603 0.08766 0.0
H5577 H 0.07681 0.55681 0.10173 0.0
H5578 H 0.05005 0.54103 0.09589 0.0
H5579 H 0.03524 0.54049 0.06989 0.0
H5580 H 0.79474 0.85073 0.43768 0.0
H5581 H 0.79408 0.83881 0.4103 0.0
H5582 H 0.75953 0.80121 0.41953 0.0
H5583 H 0.76003 0.81318 0.44698 0.0
H5584 H 0.8004 0.81156 0.3986 0.0
H5585 H 0.73955 0.81358 0.37911 0.0
H5586 H 0.74948 0.82368 0.39771 0.0
H5587 H 0.74219 0.80337 0.39622 0.0
C5588 C 0.78705 0.83987 0.43396 0.0
C5589 C 0.77742 0.83295 0.4446 0.0
C5590 C 0.78665 0.83308 0.41823 0.0
C5591 C 0.77661 0.81919 0.41268 0.0
C5592 C 0.76712 0.81211 0.42333 0.0
H5593 H 0.78364 0.76532 0.32108 0.0
H5594 H 0.78418 0.77369 0.34969 0.0
C5595 C 0.76744 0.81896 0.43907 0.0
C5596 C 0.77624 0.81221 0.39579 0.0
H5597 H 0.75292 0.80113 0.36055 0.0
C5598 C 0.78999 0.80922 0.39031 0.0
C5599 C 0.7627 0.80925 0.38486 0.0
C5600 C 0.74766 0.81275 0.38968 0.0
C5601 C 0.79061 0.80352 0.37429 0.0
C5602 C 0.77706 0.8005 0.36342 0.0
C5603 C 0.76328 0.80334 0.36891 0.0
C5604 C 0.77709 0.79531 0.3461 0.0
C5605 C 0.80587 0.80127 0.36898 0.0
C5606 C 0.77285 0.80458 0.3345 0.0
C5607 C 0.77264 0.79987 0.31819 0.0
C5608 C 0.77644 0.78566 0.31301 0.0
C5609 C 0.78078 0.7764 0.32463 0.0
C5610 C 0.78108 0.78117 0.34101 0.0
H5611 H 0.81564 0.80713 0.37782 0.0
H5612 H 0.80624 0.78882 0.36756 0.0
H5613 H 0.80742 0.80566 0.35723 0.0
H5614 H 0.76978 0.81555 0.33809 0.0
H5615 H 0.76954 0.80745 0.30963 0.0
H5616 H 0.44664 0.53131 0.85244 0.0
H5617 H 0.45816 0.53114 0.87988 0.0
H5618 H 0.49348 0.50889 0.86208 0.0
H5619 H 0.4822 0.50928 0.83454 0.0
H5620 H 0.4623 0.50488 0.89473 0.0
H5621 H 0.51811 0.54414 0.89438 0.0
H5622 H 0.50202 0.54337 0.87942 0.0
H5623 H 0.51356 0.52872 0.87838 0.0
C5624 C 0.45702 0.52663 0.85431 0.0
C5625 C 0.46348 0.52033 0.8412 0.0
C5626 C 0.46355 0.52645 0.87004 0.0
C5627 C 0.4768 0.52014 0.8731 0.0
C5628 C 0.48341 0.51403 0.86007 0.0
H5629 H 0.52764 0.50806 0.96468 0.0
H5630 H 0.51894 0.5071 0.93601 0.0
C5631 C 0.47684 0.51412 0.84431 0.0
C5632 C 0.48311 0.51921 0.88994 0.0
H5633 H 0.5146 0.53143 0.91758 0.0
C5634 C 0.47374 0.5107 0.8997 0.0
C5635 C 0.49809 0.52667 0.89644 0.0
C5636 C 0.50853 0.53635 0.8867 0.0
C5637 C 0.47888 0.50944 0.91572 0.0
C5638 C 0.49373 0.51717 0.92235 0.0
C5639 C 0.50324 0.52547 0.91252 0.0
C5640 C 0.49914 0.51751 0.9397 0.0
C5641 C 0.46837 0.4997 0.92535 0.0
C5642 C 0.49098 0.5237 0.95134 0.0
C5643 C 0.49576 0.52404 0.96763 0.0
C5644 C 0.50907 0.51852 0.97282 0.0
C5645 C 0.51731 0.51235 0.96116 0.0
C5646 C 0.51241 0.51189 0.94475 0.0
H5647 H 0.45968 0.49101 0.91749 0.0
H5648 H 0.47494 0.49367 0.93372 0.0
H5649 H 0.46213 0.50718 0.93249 0.0
H5650 H 0.48087 0.52836 0.94783 0.0
H5651 H 0.48894 0.52863 0.97618 0.0
H5652 H 0.75094 0.16292 0.11918 0.0
H5653 H 0.75269 0.17974 0.14412 0.0
H5654 H 0.79246 0.20891 0.13069 0.0
H5655 H 0.79041 0.19249 0.1054 0.0
H5656 H 0.77681 0.18752 0.16825 0.0
H5657 H 0.76326 0.23855 0.14059 0.0
H5658 H 0.76012 0.21965 0.12964 0.0
H5659 H 0.77908 0.23116 0.13313 0.0
C5660 C 0.75993 0.17302 0.12148 0.0
C5661 C 0.77045 0.17654 0.11037 0.0
C5662 C 0.76098 0.18251 0.13572 0.0
C5663 C 0.77255 0.19559 0.13899 0.0
C5664 C 0.7833 0.19897 0.12813 0.0
H5665 H 0.79842 0.24687 0.23221 0.0
H5666 H 0.79815 0.23158 0.20654 0.0
C5667 C 0.78221 0.18952 0.11383 0.0
C5668 C 0.77335 0.20566 0.15388 0.0
H5669 H 0.77104 0.24202 0.16853 0.0
C5670 C 0.77553 0.19943 0.16837 0.0
C5671 C 0.77143 0.22107 0.1538 0.0
C5672 C 0.7682 0.228 0.13847 0.0
C5673 C 0.77591 0.20832 0.18298 0.0
C5674 C 0.77452 0.22389 0.18291 0.0
C5675 C 0.77225 0.23009 0.16841 0.0
C5676 C 0.7751 0.23388 0.19781 0.0
C5677 C 0.77743 0.20087 0.19827 0.0
C5678 C 0.76249 0.24074 0.20089 0.0
C5679 C 0.76277 0.24974 0.21532 0.0
C5680 C 0.77562 0.25179 0.22677 0.0
C5681 C 0.78837 0.24525 0.2235 0.0
C5682 C 0.78819 0.23649 0.20897 0.0
H5683 H 0.77409 0.18816 0.19604 0.0
H5684 H 0.78957 0.20365 0.20367 0.0
H5685 H 0.77021 0.20515 0.20709 0.0
H5686 H 0.75233 0.23883 0.19229 0.0
H5687 H 0.75278 0.25462 0.21777 0.0
H5688 H 0.14212 0.5158 0.33784 0.0
H5689 H 0.12781 0.51482 0.36133 0.0
H5690 H 0.0904 0.52975 0.33471 0.0
H5691 H 0.10462 0.53078 0.31124 0.0
H5692 H 0.11714 0.54311 0.37417 0.0
H5693 H 0.07076 0.4919 0.35813 0.0
H5694 H 0.08887 0.49396 0.34972 0.0
H5695 H 0.07434 0.50411 0.34254 0.0
C5696 C 0.13072 0.51858 0.33697 0.0
C5697 C 0.12439 0.52339 0.32287 0.0
C5698 C 0.12261 0.51801 0.35031 0.0
C5699 C 0.10805 0.52198 0.34952 0.0
C5700 C 0.10155 0.52638 0.33532 0.0
H5701 H 0.04006 0.54604 0.40447 0.0
H5702 H 0.05548 0.53695 0.38442 0.0
C5703 C 0.1097 0.52712 0.32205 0.0
C5704 C 0.10031 0.52337 0.36398 0.0
H5705 H 0.06714 0.51016 0.3794 0.0
C5706 C 0.10635 0.53577 0.37557 0.0
C5707 C 0.08627 0.51375 0.36548 0.0
C5708 C 0.07968 0.50009 0.35338 0.0
C5709 C 0.09818 0.53944 0.38828 0.0
C5710 C 0.08383 0.53011 0.38953 0.0
C5711 C 0.07814 0.51726 0.37832 0.0
C5712 C 0.07408 0.53426 0.40172 0.0
C5713 C 0.10455 0.55376 0.39964 0.0
C5714 C 0.07941 0.53549 0.41799 0.0
C5715 C 0.07093 0.54116 0.42939 0.0
C5716 C 0.05671 0.54525 0.42474 0.0
C5717 C 0.05109 0.54331 0.40842 0.0
C5718 C 0.05976 0.53791 0.39698 0.0
H5719 H 0.11384 0.56143 0.39479 0.0
H5720 H 0.09539 0.56034 0.40223 0.0
H5721 H 0.10944 0.55045 0.4111 0.0
H5722 H 0.09034 0.53246 0.42183 0.0
H5723 H 0.07575 0.5427 0.44182 0.0
H5724 H 0.79472 0.85369 0.61755 0.0
H5725 H 0.79305 0.84254 0.64291 0.0
H5726 H 0.7577 0.80549 0.61988 0.0
H5727 H 0.75954 0.8164 0.59437 0.0
H5728 H 0.76818 0.83709 0.66023 0.0
H5729 H 0.78785 0.78273 0.6428 0.0
H5730 H 0.79036 0.79882 0.63115 0.0
H5731 H 0.77204 0.78619 0.62967 0.0
C5732 C 0.78676 0.84304 0.6178 0.0
C5733 C 0.77733 0.83592 0.60386 0.0
C5734 C 0.78573 0.83674 0.63236 0.0
C5735 C 0.77536 0.82308 0.63332 0.0
C5736 C 0.76595 0.81591 0.61943 0.0
H5737 H 0.75045 0.79475 0.72655 0.0
H5738 H 0.74975 0.80406 0.70005 0.0
C5739 C 0.76692 0.82224 0.60487 0.0
C5740 C 0.77419 0.81662 0.64895 0.0
H5741 H 0.77811 0.785 0.66789 0.0
C5742 C 0.77039 0.82571 0.66194 0.0
C5743 C 0.77721 0.80184 0.65123 0.0
C5744 C 0.78224 0.79185 0.63804 0.0
C5745 C 0.76962 0.82052 0.67716 0.0
C5746 C 0.77227 0.80554 0.6794 0.0
C5747 C 0.77597 0.79642 0.6663 0.0
C5748 C 0.77211 0.79935 0.69532 0.0
C5749 C 0.76649 0.83143 0.69073 0.0
C5750 C 0.78444 0.79275 0.70128 0.0
C5751 C 0.78448 0.78682 0.71606 0.0
C5752 C 0.77243 0.78777 0.72548 0.0
C5753 C 0.76005 0.79427 0.71964 0.0
C5754 C 0.75973 0.7997 0.70454 0.0
H5755 H 0.76946 0.84359 0.68826 0.0
H5756 H 0.75407 0.82904 0.69217 0.0
H5757 H 0.7731 0.83014 0.70218 0.0
H5758 H 0.79414 0.79224 0.69452 0.0
H5759 H 0.79412 0.78176 0.7203 0.0
H5760 H 0.71586 0.46901 0.47677 0.0
H5761 H 0.69291 0.48083 0.47753 0.0
H5762 H 0.68281 0.46013 0.52048 0.0
H5763 H 0.70538 0.44816 0.51968 0.0
H5764 H 0.66041 0.46434 0.47946 0.0
H5765 H 0.68501 0.50789 0.53092 0.0
H5766 H 0.6968 0.49858 0.5183 0.0
H5767 H 0.6879 0.48878 0.53368 0.0
C5768 C 0.70864 0.46693 0.48628 0.0
C5769 C 0.71243 0.45783 0.49827 0.0
C5770 C 0.69565 0.4737 0.48672 0.0
C5771 C 0.68644 0.47146 0.49918 0.0
C5772 C 0.69002 0.46215 0.51094 0.0
H5773 H 0.60109 0.47026 0.52868 0.0
H5774 H 0.62248 0.4657 0.51388 0.0
C5775 C 0.70291 0.45539 0.5105 0.0
C5776 C 0.6729 0.47867 0.50015 0.0
H5777 H 0.65755 0.50182 0.52593 0.0
C5778 C 0.6598 0.47283 0.48935 0.0
C5779 C 0.67232 0.48983 0.51298 0.0
C5780 C 0.6863 0.49676 0.52457 0.0
C5781 C 0.64568 0.47706 0.49183 0.0
C5782 C 0.64484 0.48725 0.50545 0.0
C5783 C 0.65824 0.49397 0.5155 0.0
C5784 C 0.63011 0.48964 0.51087 0.0
C5785 C 0.63171 0.47018 0.48027 0.0
C5786 C 0.62728 0.50457 0.51391 0.0
C5787 C 0.61529 0.50724 0.52263 0.0
C5788 C 0.60596 0.49499 0.52848 0.0
C5789 C 0.60823 0.47993 0.52451 0.0
C5790 C 0.62027 0.47728 0.51583 0.0
H5791 H 0.63494 0.46657 0.46828 0.0
H5792 H 0.62546 0.45985 0.48486 0.0
H5793 H 0.6238 0.47847 0.47896 0.0
H5794 H 0.6349 0.51425 0.51033 0.0
H5795 H 0.61394 0.519 0.5256 0.0
H5796 H 0.18879 0.09259 0.48489 0.0
H5797 H 0.16319 0.07713 0.48497 0.0
H5798 H 0.15379 0.10926 0.52255 0.0
H5799 H 0.17902 0.12511 0.52207 0.0
H5800 H 0.15015 0.0623 0.50803 0.0
H5801 H 0.11623 0.10591 0.49101 0.0
H5802 H 0.13657 0.1082 0.48955 0.0
H5803 H 0.12964 0.11276 0.50846 0.0
C5804 C 0.1812 0.09652 0.493 0.0
C5805 C 0.18605 0.11018 0.50343 0.0
C5806 C 0.16658 0.08758 0.49312 0.0
C5807 C 0.1564 0.09211 0.50359 0.0
C5808 C 0.16125 0.10565 0.51411 0.0
H5809 H 0.07697 0.03228 0.53212 0.0
H5810 H 0.10259 0.04669 0.52982 0.0
C5811 C 0.17583 0.11461 0.51398 0.0
C5812 C 0.14087 0.08252 0.5038 0.0
H5813 H 0.10265 0.08407 0.50136 0.0
C5814 C 0.13975 0.06703 0.50645 0.0
C5815 C 0.12723 0.08855 0.50145 0.0
C5816 C 0.12743 0.10472 0.49728 0.0
C5817 C 0.12546 0.05752 0.50715 0.0
C5818 C 0.11185 0.06378 0.50568 0.0
C5819 C 0.11299 0.07921 0.50269 0.0
C5820 C 0.09631 0.0546 0.50702 0.0
C5821 C 0.12515 0.04078 0.50912 0.0
C5822 C 0.08396 0.05459 0.49533 0.0
C5823 C 0.0692 0.04673 0.4969 0.0
C5824 C 0.06647 0.03848 0.51007 0.0
C5825 C 0.0788 0.03829 0.52167 0.0
C5826 C 0.0935 0.04647 0.5203 0.0
H5827 H 0.13529 0.03681 0.5046 0.0
H5828 H 0.12555 0.03922 0.52203 0.0
H5829 H 0.1146 0.03339 0.50269 0.0
H5830 H 0.08571 0.06077 0.48498 0.0
H5831 H 0.0599 0.04711 0.48779 0.0
H5832 H 0.16046 0.94817 0.75574 0.0
H5833 H 0.17372 0.92638 0.75432 0.0
H5834 H 0.20524 0.94791 0.7953 0.0
H5835 H 0.1921 0.96991 0.79673 0.0
H5836 H 0.20406 0.92729 0.74943 0.0
H5837 H 0.19257 0.9041 0.80694 0.0
H5838 H 0.18196 0.91758 0.79855 0.0
H5839 H 0.20101 0.92415 0.80856 0.0
C5840 C 0.17024 0.94835 0.76445 0.0
C5841 C 0.17524 0.96092 0.77628 0.0
C5842 C 0.17776 0.9358 0.76368 0.0
C5843 C 0.1904 0.93539 0.77479 0.0
C5844 C 0.19533 0.94778 0.78678 0.0
H5845 H 0.25355 0.86936 0.76689 0.0
H5846 H 0.24227 0.89133 0.77698 0.0
C5847 C 0.1878 0.96039 0.78756 0.0
C5848 C 0.19888 0.9224 0.77304 0.0
H5849 H 0.20864 0.892 0.79111 0.0
C5850 C 0.20511 0.91964 0.7586 0.0
C5851 C 0.20032 0.91243 0.78503 0.0
C5852 C 0.19353 0.91458 0.80061 0.0
C5853 C 0.21249 0.90712 0.7557 0.0
C5854 C 0.21364 0.89697 0.7675 0.0
C5855 C 0.20779 0.89986 0.78212 0.0
C5856 C 0.21982 0.8827 0.76403 0.0
C5857 C 0.21882 0.90461 0.73989 0.0
C5858 C 0.21078 0.8704 0.75391 0.0
C5859 C 0.21716 0.85798 0.74816 0.0
C5860 C 0.23271 0.85755 0.75246 0.0
C5861 C 0.24151 0.86936 0.76349 0.0
C5862 C 0.2351 0.8819 0.76921 0.0
H5863 H 0.21912 0.91471 0.73304 0.0
H5864 H 0.23062 0.90213 0.74183 0.0
H5865 H 0.21152 0.89451 0.73253 0.0
H5866 H 0.19897 0.87079 0.74979 0.0
H5867 H 0.21012 0.84901 0.73971 0.0
H5868 H 0.35416 0.98655 0.995 0.0
H5869 H 0.38114 0.99759 0.99339 0.0
H5870 H 0.39511 0.97051 0.02995 0.0
H5871 H 0.36839 0.95907 0.03133 0.0
H5872 H 0.40873 0.01007 0.0245 0.0
H5873 H 0.4109 0.95891 0.9819 0.0
H5874 H 0.39343 0.9664 0.98361 0.0
H5875 H 0.4006 0.9562 0.99911 0.0
C5876 C 0.36299 0.98315 0.00285 0.0
C5877 C 0.35923 0.97185 0.01317 0.0
C5878 C 0.3783 0.9895 0.00197 0.0
C5879 C 0.38987 0.98466 0.01145 0.0
C5880 C 0.38615 0.97428 0.02257 0.0
H5881 H 0.48389 0.98061 0.01853 0.0
H5882 H 0.45586 0.9759 0.01466 0.0
C5883 C 0.37091 0.96787 0.02341 0.0
C5884 C 0.4059 0.98914 0.00877 0.0
H5885 H 0.43443 0.97528 0.99145 0.0
C5886 C 0.41443 1.00268 0.01712 0.0
C5887 C 0.41301 0.97922 0.99924 0.0
C5888 C 0.40407 0.96436 0.99036 0.0
C5889 C 0.43033 0.00627 0.01684 0.0
C5890 C 0.43759 0.99623 0.00742 0.0
C5891 C 0.42881 0.98297 0.99855 0.0
C5892 C 0.45438 0.99851 0.00775 0.0
C5893 C 0.43918 0.02026 0.0274 0.0
C5894 C 0.46276 0.01256 0.00465 0.0
C5895 C 0.47866 0.01552 0.00772 0.0
C5896 C 0.48646 0.00408 0.01269 0.0
C5897 C 0.47812 0.98958 0.01453 0.0
C5898 C 0.46215 0.98686 0.01225 0.0
H5899 H 0.43243 0.02415 0.03691 0.0
H5900 H 0.4501 0.01794 0.03324 0.0
H5901 H 0.44187 0.02986 0.02002 0.0
H5902 H 0.457 0.02152 0.00066 0.0
H5903 H 0.48477 0.02696 0.0068 0.0
H5904 H 0.81292 0.56626 0.77793 0.0
H5905 H 0.80303 0.59006 0.77546 0.0
H5906 H 0.84364 0.61583 0.80402 0.0
H5907 H 0.85378 0.59225 0.80629 0.0
H5908 H 0.80431 0.62106 0.80371 0.0
H5909 H 0.83846 0.62359 0.75144 0.0
H5910 H 0.82962 0.60548 0.75746 0.0
H5911 H 0.846 0.61691 0.76953 0.0
C5912 C 0.81955 0.57697 0.78398 0.0
C5913 C 0.83417 0.5775 0.79214 0.0
C5914 C 0.81384 0.59045 0.78269 0.0
C5915 C 0.82267 0.60451 0.78961 0.0
C5916 C 0.83668 0.60495 0.7988 0.0
H5917 H 0.82525 0.69511 0.76119 0.0
H5918 H 0.83102 0.67291 0.77408 0.0
C5919 C 0.84242 0.5915 0.80008 0.0
C5920 C 0.8187 0.61881 0.78485 0.0
H5921 H 0.8257 0.64395 0.75727 0.0
C5922 C 0.80894 0.62616 0.7936 0.0
C5923 C 0.82488 0.62521 0.77165 0.0
C5924 C 0.83531 0.61745 0.76188 0.0
C5925 C 0.80522 0.64006 0.78946 0.0
C5926 C 0.81139 0.64646 0.77621 0.0
C5927 C 0.82115 0.63902 0.76751 0.0
C5928 C 0.80753 0.66058 0.77058 0.0
C5929 C 0.79491 0.64784 0.79933 0.0
C5930 C 0.79244 0.66085 0.76442 0.0
C5931 C 0.78916 0.6734 0.75699 0.0
C5932 C 0.80096 0.68577 0.75551 0.0
C5933 C 0.81602 0.68561 0.76199 0.0
C5934 C 0.81928 0.67306 0.76948 0.0
H5935 H 0.79454 0.64372 0.81134 0.0
H5936 H 0.79877 0.6605 0.80085 0.0
H5937 H 0.78306 0.64523 0.7931 0.0
H5938 H 0.78333 0.65112 0.7648 0.0
H5939 H 0.77748 0.6732 0.75193 0.0
H5940 H 0.82358 0.60024 0.01942 0.0
H5941 H 0.84575 0.58737 0.02012 0.0
H5942 H 0.86923 0.62153 0.99349 0.0
H5943 H 0.84718 0.63464 0.99296 0.0
H5944 H 0.86054 0.57543 0.99359 0.0
H5945 H 0.89949 0.62183 0.03428 0.0
H5946 H 0.87891 0.62041 0.03202 0.0
H5947 H 0.88998 0.62747 0.01665 0.0
C5948 C 0.83349 0.60508 0.01379 0.0
C5949 C 0.83362 0.61855 0.00623 0.0
C5950 C 0.84611 0.59765 0.0141 0.0
C5951 C 0.85921 0.60357 0.007 0.0
C5952 C 0.85931 0.61685 0.9992 0.0
H5953 H 0.94851 0.57361 0.01849 0.0
H5954 H 0.92792 0.58615 0.00742 0.0
C5955 C 0.84664 0.62426 0.9988 0.0
C5956 C 0.87278 0.59589 0.00803 0.0
H5957 H 0.90954 0.60006 0.02594 0.0
C5958 C 0.8713 0.58085 0.00055 0.0
C5959 C 0.88686 0.60302 0.017 0.0
C5960 C 0.88899 0.61903 0.02556 0.0
C5961 C 0.88342 0.57265 0.00205 0.0
C5962 C 0.89729 0.57953 0.01158 0.0
C5963 C 0.89895 0.59478 0.01858 0.0
C5964 C 0.90955 0.57068 0.01587 0.0
C5965 C 0.8812 0.55666 0.99343 0.0
C5966 C 0.90609 0.55765 0.024 0.0
C5967 C 0.91776 0.55052 0.03022 0.0
C5968 C 0.9332 0.55626 0.02854 0.0
C5969 C 0.93668 0.56882 0.01972 0.0
C5970 C 0.92494 0.57605 0.01353 0.0
H5971 H 0.87277 0.55523 0.98259 0.0
H5972 H 0.89219 0.55394 0.98982 0.0
H5973 H 0.87665 0.54823 0.00151 0.0
H5974 H 0.89441 0.55347 0.02632 0.0
H5975 H 0.9148 0.54095 0.0371 0.0
H5976 H 0.20352 0.10586 0.79719 0.0
H5977 H 0.21896 0.13149 0.7969 0.0
H5978 H 0.18442 0.1423 0.76277 0.0
H5979 H 0.16872 0.11699 0.7634 0.0
H5980 H 0.23166 0.1453 0.7724 0.0
H5981 H 0.19055 0.17886 0.79668 0.0
H5982 H 0.18861 0.15842 0.79741 0.0
H5983 H 0.18209 0.16582 0.77939 0.0
C5984 C 0.1991 0.11376 0.78978 0.0
C5985 C 0.18481 0.1093 0.78035 0.0
C5986 C 0.20801 0.12839 0.78954 0.0
C5987 C 0.20279 0.13896 0.77998 0.0
C5988 C 0.1886 0.1345 0.77048 0.0
H5989 H 0.25873 0.21967 0.74906 0.0
H5990 H 0.24481 0.19384 0.75155 0.0
C5991 C 0.1797 0.11991 0.7707 0.0
C5992 C 0.21225 0.15452 0.77966 0.0
H5993 H 0.21099 0.19281 0.7846 0.0
C5994 C 0.22719 0.15571 0.77519 0.0
C5995 C 0.20659 0.16815 0.78359 0.0
C5996 C 0.19115 0.1678 0.7897 0.0
C5997 C 0.23645 0.17008 0.77415 0.0
C5998 C 0.23046 0.1837 0.7772 0.0
C5999 C 0.21563 0.18247 0.78204 0.0
C6000 C 0.2393 0.19935 0.77564 0.0
C6001 C 0.25266 0.17042 0.77012 0.0
C6002 C 0.24043 0.21136 0.78804 0.0
C6003 C 0.24793 0.22624 0.78638 0.0
C6004 C 0.25474 0.22942 0.77241 0.0
C6005 C 0.25382 0.21745 0.76008 0.0
C6006 C 0.24595 0.20264 0.76156 0.0
H6007 H 0.25704 0.16008 0.77355 0.0
H6008 H 0.25284 0.17045 0.757 0.0
H6009 H 0.26059 0.18079 0.77624 0.0
H6010 H 0.23542 0.20925 0.79902 0.0
H6011 H 0.24848 0.23526 0.79608 0.0
H6012 H 0.30821 0.93938 0.28393 0.0
H6013 H 0.29601 0.91203 0.28012 0.0
H6014 H 0.33406 0.90115 0.256 0.0
H6015 H 0.34628 0.92821 0.2598 0.0
H6016 H 0.29634 0.89037 0.24197 0.0
H6017 H 0.32118 0.87608 0.30068 0.0
H6018 H 0.31517 0.89426 0.29879 0.0
H6019 H 0.3321 0.89048 0.29047 0.0
C6020 C 0.31387 0.93108 0.2778 0.0
C6021 C 0.32798 0.93574 0.2719 0.0
C6022 C 0.30693 0.91562 0.27561 0.0
C6023 C 0.31419 0.90489 0.26766 0.0
C6024 C 0.32833 0.90949 0.26198 0.0
H6025 H 0.30569 0.80901 0.26636 0.0
H6026 H 0.31486 0.83492 0.25969 0.0
C6027 C 0.33521 0.92485 0.26409 0.0
C6028 C 0.30737 0.88866 0.26537 0.0
H6029 H 0.30846 0.85559 0.28202 0.0
C6030 C 0.29881 0.88266 0.25069 0.0
C6031 C 0.31094 0.87895 0.27682 0.0
C6032 C 0.32033 0.88516 0.29263 0.0
C6033 C 0.29389 0.86682 0.24697 0.0
C6034 C 0.29762 0.85703 0.25835 0.0
C6035 C 0.30594 0.86318 0.27319 0.0
C6036 C 0.29212 0.84041 0.25595 0.0
C6037 C 0.28505 0.86073 0.23087 0.0
C6038 C 0.27632 0.83477 0.25493 0.0
C6039 C 0.27112 0.81987 0.25822 0.0
C6040 C 0.2817 0.81068 0.26266 0.0
C6041 C 0.29741 0.81583 0.26236 0.0
C6042 C 0.30261 0.83061 0.2587 0.0
H6043 H 0.28744 0.86896 0.22189 0.0
H6044 H 0.28783 0.84954 0.22632 0.0
H6045 H 0.27257 0.85901 0.23207 0.0
H6046 H 0.2681 0.84228 0.25325 0.0
H6047 H 0.25895 0.81604 0.25877 0.0
H6048 H 0.56291 0.36128 0.55652 0.0
H6049 H 0.5617 0.38656 0.5478 0.0
H6050 H 0.5179 0.38534 0.56587 0.0
H6051 H 0.51938 0.36061 0.57543 0.0
H6052 H 0.5432 0.39776 0.52703 0.0
H6053 H 0.53875 0.4264 0.58691 0.0
H6054 H 0.54316 0.40738 0.58416 0.0
H6055 H 0.52357 0.41018 0.58118 0.0
C6056 C 0.55309 0.36641 0.55894 0.0
C6057 C 0.54133 0.35858 0.56697 0.0
C6058 C 0.55234 0.38095 0.55374 0.0
C6059 C 0.53987 0.38832 0.55641 0.0
C6060 C 0.52793 0.38036 0.56398 0.0
H6061 H 0.51004 0.47365 0.53593 0.0
H6062 H 0.51304 0.44836 0.54302 0.0
C6063 C 0.52869 0.36589 0.56926 0.0
C6064 C 0.5393 0.4042 0.55132 0.0
H6065 H 0.53358 0.4402 0.56482 0.0
C6066 C 0.54123 0.40704 0.53538 0.0
C6067 C 0.53677 0.41659 0.56204 0.0
C6068 C 0.5356 0.41506 0.57955 0.0
C6069 C 0.54024 0.42149 0.52987 0.0
C6070 C 0.53744 0.43375 0.54056 0.0
C6071 C 0.53568 0.43095 0.55649 0.0
C6072 C 0.5357 0.44933 0.53545 0.0
C6073 C 0.54167 0.42332 0.51247 0.0
C6074 C 0.54743 0.45878 0.52883 0.0
C6075 C 0.54562 0.47343 0.52452 0.0
C6076 C 0.532 0.47909 0.52667 0.0
C6077 C 0.52048 0.46968 0.53355 0.0
C6078 C 0.52226 0.45513 0.53782 0.0
H6079 H 0.54005 0.41205 0.50505 0.0
H6080 H 0.53314 0.42993 0.50761 0.0
H6081 H 0.5533 0.42974 0.5113 0.0
H6082 H 0.55812 0.45494 0.52718 0.0
H6083 H 0.55488 0.48031 0.51947 0.0
H6084 H 0.43569 0.76798 0.35161 0.0
H6085 H 0.41165 0.7697 0.3359 0.0
H6086 H 0.38602 0.74808 0.37116 0.0
H6087 H 0.41002 0.74675 0.38722 0.0
H6088 H 0.38709 0.74823 0.32155 0.0
H6089 H 0.36712 0.78602 0.36789 0.0
H6090 H 0.38647 0.78235 0.36925 0.0
H6091 H 0.37112 0.76846 0.37469 0.0
C6092 C 0.42497 0.76372 0.35618 0.0
C6093 C 0.425 0.75738 0.37092 0.0
C6094 C 0.41115 0.76461 0.34705 0.0
C6095 C 0.39684 0.75932 0.35237 0.0
C6096 C 0.3968 0.7526 0.36685 0.0
H6097 H 0.30105 0.75703 0.31293 0.0
H6098 H 0.32455 0.75343 0.32854 0.0
C6099 C 0.41063 0.75167 0.37598 0.0
C6100 C 0.38209 0.76089 0.3428 0.0
H6101 H 0.34948 0.77633 0.34491 0.0
C6102 C 0.37893 0.75442 0.32669 0.0
C6103 C 0.37127 0.76898 0.34933 0.0
C6104 C 0.37418 0.77698 0.36618 0.0
C6105 C 0.36533 0.75563 0.31715 0.0
C6106 C 0.35454 0.7637 0.32371 0.0
C6107 C 0.35764 0.77009 0.33981 0.0
C6108 C 0.34011 0.76585 0.31401 0.0
C6109 C 0.36246 0.74796 0.30016 0.0
C6110 C 0.34083 0.77424 0.30068 0.0
C6111 C 0.32736 0.77651 0.29181 0.0
C6112 C 0.3127 0.77031 0.29588 0.0
C6113 C 0.31203 0.76198 0.30931 0.0
C6114 C 0.32552 0.75988 0.31829 0.0
H6115 H 0.36986 0.7393 0.29807 0.0
H6116 H 0.35025 0.74226 0.29721 0.0
H6117 H 0.36499 0.75678 0.29183 0.0
H6118 H 0.35186 0.77926 0.29723 0.0
H6119 H 0.32849 0.78321 0.28178 0.0
H6120 H 0.02477 0.69855 0.04226 0.0
H6121 H 0.02302 0.67124 0.03288 0.0
H6122 H 0.04951 0.6653 0.07642 0.0
H6123 H 0.05121 0.69242 0.08594 0.0
H6124 H 0.04854 0.65338 0.02913 0.0
H6125 H 0.00965 0.63145 0.07288 0.0
H6126 H 0.01175 0.65093 0.06781 0.0
H6127 H 0.02632 0.64545 0.08105 0.0
C6128 C 0.03017 0.69146 0.04993 0.0
C6129 C 0.03816 0.69795 0.06496 0.0
C6130 C 0.02924 0.67578 0.04446 0.0
C6131 C 0.03603 0.666 0.05393 0.0
C6132 C 0.04404 0.67244 0.06886 0.0
H6133 H 0.03517 0.5673 0.05193 0.0
H6134 H 0.03774 0.59509 0.05836 0.0
C6135 C 0.04511 0.6881 0.07426 0.0
C6136 C 0.03474 0.64911 0.04837 0.0
H6137 H 0.0198 0.61311 0.05732 0.0
C6138 C 0.04222 0.64456 0.03525 0.0
C6139 C 0.02657 0.63747 0.0563 0.0
C6140 C 0.01799 0.64147 0.07023 0.0
C6141 C 0.04223 0.62887 0.03028 0.0
C6142 C 0.034 0.61711 0.03823 0.0
C6143 C 0.02626 0.6218 0.05115 0.0
C6144 C 0.03349 0.6 0.03382 0.0
C6145 C 0.05168 0.62525 0.01698 0.0
C6146 C 0.03044 0.59299 0.01783 0.0
C6147 C 0.02961 0.57702 0.01411 0.0
C6148 C 0.03112 0.56744 0.02629 0.0
C6149 C 0.03398 0.57433 0.04223 0.0
C6150 C 0.03535 0.59031 0.04592 0.0
H6151 H 0.06105 0.63505 0.01602 0.0
H6152 H 0.05689 0.61499 0.01882 0.0
H6153 H 0.04423 0.62304 0.00541 0.0
H6154 H 0.02828 0.59974 0.00814 0.0
H6155 H 0.02709 0.57207 0.00172 0.0
H6156 H 0.08659 0.2856 0.89139 0.0
H6157 H 0.10971 0.2867 0.87761 0.0
H6158 H 0.09014 0.24334 0.85004 0.0
H6159 H 0.06681 0.24234 0.86343 0.0
H6160 H 0.13051 0.26659 0.87622 0.0
H6161 H 0.10321 0.26983 0.81508 0.0
H6162 H 0.09365 0.2729 0.83272 0.0
H6163 H 0.09466 0.25374 0.82462 0.0
C6164 C 0.08705 0.27637 0.88224 0.0
C6165 C 0.07462 0.26392 0.87854 0.0
C6166 C 0.1004 0.27696 0.87443 0.0
C6167 C 0.10172 0.26522 0.86255 0.0
C6168 C 0.08941 0.25271 0.85891 0.0
H6169 H 0.17335 0.26007 0.79722 0.0
H6170 H 0.15148 0.25263 0.81251 0.0
C6171 C 0.07607 0.25208 0.86676 0.0
C6172 C 0.11602 0.26602 0.85422 0.0
H6173 H 0.1294 0.26791 0.81753 0.0
C6174 C 0.13024 0.26686 0.86337 0.0
C6175 C 0.1158 0.26621 0.83741 0.0
C6176 C 0.10106 0.26575 0.82685 0.0
C6177 C 0.1441 0.26787 0.85628 0.0
C6178 C 0.14396 0.26852 0.83951 0.0
C6179 C 0.12968 0.26738 0.83033 0.0
C6180 C 0.15846 0.27146 0.83142 0.0
C6181 C 0.15871 0.26795 0.86692 0.0
C6182 C 0.17004 0.28424 0.83702 0.0
C6183 C 0.18267 0.28825 0.82849 0.0
C6184 C 0.18406 0.27978 0.81392 0.0
C6185 C 0.17288 0.26659 0.8086 0.0
C6186 C 0.16022 0.26249 0.81725 0.0
H6187 H 0.15635 0.26166 0.87746 0.0
H6188 H 0.16708 0.26268 0.86037 0.0
H6189 H 0.16402 0.27999 0.87151 0.0
H6190 H 0.16893 0.29173 0.84754 0.0
H6191 H 0.19085 0.2987 0.83271 0.0
H6192 H 0.51537 0.72918 0.92374 0.0
H6193 H 0.51362 0.70643 0.93814 0.0
H6194 H 0.54324 0.68778 0.90711 0.0
H6195 H 0.54511 0.71052 0.89272 0.0
H6196 H 0.50236 0.6771 0.92887 0.0
H6197 H 0.56398 0.68161 0.94945 0.0
H6198 H 0.55658 0.69698 0.94076 0.0
H6199 H 0.56044 0.68097 0.92811 0.0
C6200 C 0.52152 0.72026 0.91992 0.0
C6201 C 0.53045 0.72187 0.90701 0.0
C6202 C 0.52056 0.70722 0.92826 0.0
C6203 C 0.52853 0.69537 0.92402 0.0
C6204 C 0.53734 0.69687 0.91105 0.0
H6205 H 0.52618 0.60219 0.94933 0.0
H6206 H 0.53147 0.62691 0.9382 0.0
C6207 C 0.53836 0.70994 0.90275 0.0
C6208 C 0.52705 0.68124 0.93272 0.0
H6209 H 0.54761 0.65787 0.95219 0.0
C6210 C 0.51229 0.67303 0.93408 0.0
C6211 C 0.53994 0.67576 0.93962 0.0
C6212 C 0.55612 0.68437 0.93957 0.0
C6213 C 0.51008 0.65948 0.94172 0.0
C6214 C 0.52296 0.6539 0.94838 0.0
C6215 C 0.53772 0.66209 0.94711 0.0
C6216 C 0.52122 0.63935 0.95625 0.0
C6217 C 0.49394 0.65098 0.94224 0.0
C6218 C 0.51416 0.63813 0.97045 0.0
C6219 C 0.51134 0.62403 0.97696 0.0
C6220 C 0.5155 0.61085 0.96939 0.0
C6221 C 0.52303 0.61221 0.95552 0.0
C6222 C 0.526 0.62632 0.94912 0.0
H6223 H 0.48548 0.65499 0.93387 0.0
H6224 H 0.49319 0.63844 0.9392 0.0
H6225 H 0.49069 0.65288 0.95454 0.0
H6226 H 0.51047 0.648 0.97628 0.0
H6227 H 0.50532 0.62327 0.98751 0.0
H6228 H 0.10166 0.74 0.70083 0.0
H6229 H 0.12873 0.74173 0.71038 0.0
H6230 H 0.1253 0.77684 0.7479 0.0
H6231 H 0.09803 0.77473 0.73885 0.0
H6232 H 0.1527 0.76438 0.71208 0.0
H6233 H 0.14691 0.74999 0.77387 0.0
H6234 H 0.13062 0.74741 0.75883 0.0
H6235 H 0.13828 0.76609 0.76943 0.0
C6236 C 0.10649 0.74791 0.71133 0.0
C6237 C 0.09732 0.75711 0.71905 0.0
C6238 C 0.12215 0.74899 0.71672 0.0
C6239 C 0.12927 0.75924 0.73011 0.0
C6240 C 0.12021 0.76854 0.7378 0.0
H6241 H 0.22545 0.78709 0.77374 0.0
H6242 H 0.19774 0.78479 0.76619 0.0
C6243 C 0.10452 0.76746 0.73242 0.0
C6244 C 0.14621 0.76055 0.73552 0.0
H6245 H 0.17225 0.75949 0.76796 0.0
C6246 C 0.15688 0.76321 0.7243 0.0
C6247 C 0.15197 0.75907 0.75149 0.0
C6248 C 0.14135 0.75533 0.76407 0.0
C6249 C 0.17287 0.76463 0.72855 0.0
C6250 C 0.17859 0.76322 0.74448 0.0
C6251 C 0.16799 0.76063 0.75576 0.0
C6252 C 0.19551 0.76431 0.74954 0.0
C6253 C 0.18359 0.76797 0.71596 0.0
C6254 C 0.20367 0.75352 0.74293 0.0
C6255 C 0.21955 0.75483 0.74723 0.0
C6256 C 0.2278 0.76691 0.75838 0.0
C6257 C 0.21958 0.77763 0.76511 0.0
C6258 C 0.20366 0.77629 0.76084 0.0
H6259 H 0.17785 0.77207 0.70537 0.0
H6260 H 0.1938 0.77675 0.72095 0.0
H6261 H 0.18764 0.75731 0.71187 0.0
H6262 H 0.19775 0.74406 0.73433 0.0
H6263 H 0.22542 0.74652 0.74153 0.0
H6264 H 0.03235 0.36045 0.43525 0.0
H6265 H 0.03115 0.38446 0.45145 0.0
H6266 H 0.04309 0.40993 0.41207 0.0
H6267 H 0.04428 0.38593 0.39568 0.0
H6268 H 0.05778 0.416 0.45618 0.0
H6269 H 0.99891 0.41871 0.42926 0.0
H6270 H 0.00522 0.40057 0.43049 0.0
H6271 H 0.01268 0.41315 0.41655 0.0
C6272 C 0.0347 0.37112 0.42994 0.0
C6273 C 0.03834 0.37107 0.414 0.0
C6274 C 0.0341 0.38491 0.43932 0.0
C6275 C 0.03699 0.3991 0.43305 0.0
C6276 C 0.04082 0.39918 0.41725 0.0
H6277 H 0.04464 0.49402 0.4783 0.0
H6278 H 0.04801 0.47071 0.46215 0.0
C6279 C 0.04156 0.38539 0.40788 0.0
C6280 C 0.03553 0.41368 0.44289 0.0
H6281 H 0.01069 0.4385 0.44936 0.0
C6282 C 0.04752 0.42096 0.45462 0.0
C6283 C 0.02213 0.42018 0.44102 0.0
C6284 C 0.0089 0.41283 0.4287 0.0
C6285 C 0.04645 0.43449 0.46439 0.0
C6286 C 0.03301 0.44098 0.46253 0.0
C6287 C 0.02101 0.43363 0.45086 0.0
C6288 C 0.03117 0.45528 0.47267 0.0
C6289 C 0.0596 0.44164 0.47689 0.0
C6290 C 0.02049 0.45458 0.484 0.0
C6291 C 0.01858 0.46795 0.49337 0.0
C6292 C 0.02715 0.48248 0.49155 0.0
C6293 C 0.03779 0.48313 0.48012 0.0
C6294 C 0.03979 0.46974 0.47087 0.0
H6295 H 0.06821 0.4341 0.47846 0.0
H6296 H 0.06541 0.45267 0.47326 0.0
H6297 H 0.05527 0.4442 0.48858 0.0
H6298 H 0.01364 0.44364 0.48566 0.0
H6299 H 0.01019 0.46688 0.5019 0.0
H6300 H 0.423 0.23807 0.19883 0.0
H6301 H 0.39817 0.24045 0.20805 0.0
H6302 H 0.42116 0.27252 0.24797 0.0
H6303 H 0.44596 0.2706 0.23846 0.0
H6304 H 0.38399 0.23415 0.23234 0.0
H6305 H 0.39115 0.29728 0.234 0.0
H6306 H 0.40463 0.28677 0.2256 0.0
H6307 H 0.40584 0.29177 0.24695 0.0
C6308 C 0.42284 0.24565 0.20959 0.0
C6309 C 0.4367 0.25425 0.21772 0.0
C6310 C 0.4085 0.24704 0.21489 0.0
C6311 C 0.40741 0.25702 0.22858 0.0
C6312 C 0.42132 0.2652 0.23703 0.0
H6313 H 0.32809 0.27346 0.27996 0.0
H6314 H 0.35381 0.27161 0.27265 0.0
C6315 C 0.43564 0.264 0.2316 0.0
C6316 C 0.39185 0.25862 0.234 0.0
H6317 H 0.36966 0.28486 0.2456 0.0
C6318 C 0.38094 0.24529 0.23512 0.0
C6319 C 0.38748 0.27309 0.23775 0.0
C6320 C 0.39783 0.28802 0.23586 0.0
C6321 C 0.36618 0.24601 0.23987 0.0
C6322 C 0.36194 0.26044 0.2437 0.0
C6323 C 0.37282 0.27376 0.24279 0.0
C6324 C 0.34614 0.26189 0.24819 0.0
C6325 C 0.35521 0.23125 0.24095 0.0
C6326 C 0.33307 0.25736 0.23691 0.0
C6327 C 0.31835 0.2589 0.24094 0.0
C6328 C 0.3161 0.26476 0.25649 0.0
C6329 C 0.32922 0.26918 0.26781 0.0
C6330 C 0.34402 0.26798 0.26366 0.0
H6331 H 0.36112 0.22124 0.2409 0.0
H6332 H 0.34937 0.23207 0.25198 0.0
H6333 H 0.34625 0.22914 0.23053 0.0
H6334 H 0.33426 0.2528 0.22483 0.0
H6335 H 0.30873 0.25565 0.23174 0.0
H6336 H 0.59662 0.54772 0.36322 0.0
H6337 H 0.58511 0.54561 0.38829 0.0
H6338 H 0.56748 0.49756 0.37397 0.0
H6339 H 0.57846 0.49958 0.34853 0.0
H6340 H 0.54871 0.5281 0.39063 0.0
H6341 H 0.59785 0.50684 0.42112 0.0
H6342 H 0.60068 0.51942 0.40561 0.0
H6343 H 0.59088 0.49997 0.4005 0.0
C6344 C 0.59008 0.53673 0.36518 0.0
C6345 C 0.58855 0.52381 0.35372 0.0
C6346 C 0.58359 0.53554 0.37962 0.0
C6347 C 0.5755 0.52143 0.383 0.0
C6348 C 0.57374 0.50855 0.3716 0.0
H6349 H 0.54738 0.49606 0.47522 0.0
H6350 H 0.55581 0.49597 0.44829 0.0
C6351 C 0.58016 0.50972 0.35711 0.0
C6352 C 0.56924 0.52012 0.39863 0.0
H6353 H 0.57793 0.51096 0.43637 0.0
C6354 C 0.55502 0.52431 0.40065 0.0
C6355 C 0.57741 0.51495 0.41155 0.0
C6356 C 0.59258 0.51002 0.40975 0.0
C6357 C 0.54874 0.5235 0.41533 0.0
C6358 C 0.55724 0.51896 0.4286 0.0
C6359 C 0.57139 0.51454 0.42637 0.0
C6360 C 0.55184 0.51888 0.44489 0.0
C6361 C 0.53288 0.52714 0.41621 0.0
C6362 C 0.54698 0.5318 0.4522 0.0
C6363 C 0.54173 0.53161 0.4673 0.0
C6364 C 0.54191 0.51881 0.47581 0.0
C6365 C 0.54731 0.50611 0.46892 0.0
C6366 C 0.55208 0.50608 0.45353 0.0
H6367 H 0.52602 0.52483 0.40426 0.0
H6368 H 0.52652 0.52034 0.42467 0.0
H6369 H 0.53388 0.53954 0.42025 0.0
H6370 H 0.54728 0.5421 0.44626 0.0
H6371 H 0.53773 0.5416 0.47248 0.0
H6372 H 0.29656 0.85765 0.06625 0.0
H6373 H 0.29678 0.84381 0.08995 0.0
H6374 H 0.25882 0.86349 0.10512 0.0
H6375 H 0.25871 0.87774 0.08162 0.0
H6376 H 0.29766 0.86272 0.12463 0.0
H6377 H 0.25055 0.81241 0.10507 0.0
H6378 H 0.26182 0.8216 0.09071 0.0
H6379 H 0.24859 0.8314 0.10029 0.0
C6380 C 0.28826 0.85906 0.07463 0.0
C6381 C 0.27767 0.86883 0.07216 0.0
C6382 C 0.28834 0.85107 0.08804 0.0
C6383 C 0.27776 0.85265 0.09908 0.0
C6384 C 0.26695 0.86209 0.09655 0.0
H6385 H 0.29285 0.82354 0.19416 0.0
H6386 H 0.28215 0.83608 0.1724 0.0
C6387 C 0.26688 0.87015 0.08314 0.0
C6388 C 0.27886 0.84514 0.11376 0.0
H6389 H 0.26548 0.81223 0.12969 0.0
C6390 C 0.29051 0.8518 0.12594 0.0
C6391 C 0.26946 0.83093 0.11516 0.0
C6392 C 0.25686 0.82355 0.10216 0.0
C6393 C 0.29343 0.84428 0.13939 0.0
C6394 C 0.28432 0.82982 0.14064 0.0
C6395 C 0.27234 0.82337 0.12866 0.0
C6396 C 0.28814 0.82072 0.15362 0.0
C6397 C 0.30672 0.85148 0.15177 0.0
C6398 C 0.29442 0.80758 0.15012 0.0
C6399 C 0.30037 0.80024 0.1625 0.0
C6400 C 0.30016 0.80598 0.17854 0.0
C6401 C 0.29312 0.81874 0.18194 0.0
C6402 C 0.28707 0.82599 0.16955 0.0
H6403 H 0.31413 0.86142 0.14763 0.0
H6404 H 0.30222 0.85562 0.16288 0.0
H6405 H 0.3139 0.84291 0.15481 0.0
H6406 H 0.29528 0.80338 0.13783 0.0
H6407 H 0.30542 0.79026 0.15951 0.0
H6408 H 0.94506 0.54049 0.85145 0.0
H6409 H 0.96354 0.54501 0.87556 0.0
H6410 H 0.93773 0.50634 0.89446 0.0
H6411 H 0.91903 0.50185 0.87052 0.0
H6412 H 0.95085 0.54371 0.91319 0.0
H6413 H 0.98885 0.50537 0.88951 0.0
H6414 H 0.97858 0.51608 0.87647 0.0
H6415 H 0.9683 0.5001 0.88482 0.0
C6416 C 0.94326 0.53307 0.86083 0.0
C6417 C 0.93068 0.52082 0.85921 0.0
C6418 C 0.9538 0.53563 0.87447 0.0
C6419 C 0.95185 0.52596 0.88654 0.0
C6420 C 0.93929 0.51383 0.88509 0.0
H6421 H 0.99876 0.50215 0.96784 0.0
H6422 H 0.9859 0.50477 0.94175 0.0
C6423 C 0.92874 0.51124 0.87145 0.0
C6424 C 0.96305 0.52837 0.90071 0.0
H6425 H 0.99448 0.51582 0.91649 0.0
C6426 C 0.96053 0.53781 0.91401 0.0
C6427 C 0.97545 0.52051 0.90141 0.0
C6428 C 0.97809 0.50993 0.88732 0.0
C6429 C 0.96979 0.53899 0.92855 0.0
C6430 C 0.98216 0.5309 0.92942 0.0
C6431 C 0.98505 0.52206 0.91574 0.0
C6432 C 0.99092 0.52971 0.94477 0.0
C6433 C 0.96558 0.54806 0.94298 0.0
C6434 C 0.99821 0.54283 0.95499 0.0
C6435 C 0.00485 0.54131 0.97024 0.0
C6436 C 0.00485 0.52665 0.97497 0.0
C6437 C 0.9986 0.51355 0.96435 0.0
C6438 C 0.99141 0.51506 0.94946 0.0
H6439 H 0.95373 0.55041 0.94101 0.0
H6440 H 0.96644 0.54186 0.95376 0.0
H6441 H 0.97356 0.55928 0.94541 0.0
H6442 H 0.99848 0.5542 0.95133 0.0
H6443 H 0.01007 0.55148 0.97826 0.0
H6444 H 0.24691 0.21212 0.58814 0.0
H6445 H 0.2476 0.22321 0.61588 0.0
H6446 H 0.29579 0.22184 0.62404 0.0
H6447 H 0.29518 0.21023 0.59649 0.0
H6448 H 0.25921 0.20814 0.64471 0.0
H6449 H 0.29017 0.26743 0.64052 0.0
H6450 H 0.27944 0.25539 0.62328 0.0
H6451 H 0.29758 0.25158 0.63131 0.0
C6452 C 0.25768 0.21405 0.5958 0.0
C6453 C 0.27097 0.21012 0.58995 0.0
C6454 C 0.25805 0.22051 0.61166 0.0
C6455 C 0.27175 0.22342 0.62201 0.0
C6456 C 0.28512 0.21985 0.61621 0.0
H6457 H 0.2955 0.26547 0.72085 0.0
H6458 H 0.29566 0.25494 0.69311 0.0
C6459 C 0.28475 0.21326 0.60038 0.0
C6460 C 0.27186 0.22949 0.63908 0.0
H6461 H 0.284 0.26143 0.666 0.0
C6462 C 0.2646 0.2198 0.6494 0.0
C6463 C 0.27906 0.24462 0.64519 0.0
C6464 C 0.28697 0.25547 0.63456 0.0
C6465 C 0.26451 0.22475 0.66573 0.0
C6466 C 0.27136 0.24007 0.67184 0.0
C6467 C 0.27868 0.24973 0.66144 0.0
C6468 C 0.27117 0.24629 0.68893 0.0
C6469 C 0.2575 0.21326 0.67629 0.0
C6470 C 0.25738 0.24505 0.69602 0.0
C6471 C 0.25733 0.25069 0.71208 0.0
C6472 C 0.27095 0.25833 0.72131 0.0
C6473 C 0.28472 0.25977 0.71413 0.0
C6474 C 0.28483 0.25378 0.69819 0.0
H6475 H 0.25766 0.20129 0.67128 0.0
H6476 H 0.26365 0.21528 0.68857 0.0
H6477 H 0.24532 0.21424 0.67703 0.0
H6478 H 0.24657 0.23974 0.68914 0.0
H6479 H 0.2466 0.24903 0.71721 0.0
H6480 H 0.5996 0.54573 0.19045 0.0
H6481 H 0.5882 0.54531 0.16297 0.0
H6482 H 0.55976 0.50143 0.16611 0.0
H6483 H 0.5706 0.50207 0.19395 0.0
H6484 H 0.58886 0.52509 0.13715 0.0
H6485 H 0.5283 0.5248 0.14804 0.0
H6486 H 0.54386 0.52896 0.16403 0.0
H6487 H 0.53621 0.50943 0.15585 0.0
C6488 C 0.59069 0.53611 0.18548 0.0
C6489 C 0.58596 0.524 0.19461 0.0
C6490 C 0.58427 0.53583 0.16965 0.0
C6491 C 0.57293 0.52346 0.16246 0.0
C6492 C 0.56824 0.51128 0.17144 0.0
H6493 H 0.52372 0.5029 0.06613 0.0
H6494 H 0.53415 0.50203 0.09381 0.0
C6495 C 0.57462 0.51157 0.18734 0.0
C6496 C 0.56651 0.52317 0.14542 0.0
H6497 H 0.53324 0.52145 0.12095 0.0
C6498 C 0.5767 0.52434 0.13364 0.0
C6499 C 0.55062 0.52211 0.14075 0.0
C6500 C 0.53911 0.52139 0.15283 0.0
C6501 C 0.57147 0.52437 0.11739 0.0
C6502 C 0.55561 0.52351 0.11275 0.0
C6503 C 0.54539 0.52216 0.12449 0.0
C6504 C 0.54942 0.52406 0.09581 0.0
C6505 C 0.58297 0.52504 0.1053 0.0
C6506 C 0.55443 0.53677 0.08765 0.0
C6507 C 0.54858 0.53723 0.07175 0.0
C6508 C 0.53737 0.52514 0.06371 0.0
C6509 C 0.53232 0.51245 0.07192 0.0
C6510 C 0.53824 0.51195 0.0878 0.0
H6511 H 0.59362 0.52125 0.10997 0.0
H6512 H 0.57808 0.51775 0.09397 0.0
H6513 H 0.58619 0.53706 0.10256 0.0
H6514 H 0.56284 0.54639 0.09362 0.0
H6515 H 0.5529 0.54703 0.06574 0.0
H6516 H 0.2539 0.85213 0.93021 0.0
H6517 H 0.25078 0.83408 0.90586 0.0
H6518 H 0.292 0.85929 0.89091 0.0
H6519 H 0.29515 0.87752 0.91512 0.0
H6520 H 0.25994 0.84868 0.8675 0.0
H6521 H 0.28658 0.80539 0.89831 0.0
H6522 H 0.27371 0.81562 0.90832 0.0
H6523 H 0.2921 0.82571 0.90473 0.0
C6524 C 0.26216 0.85393 0.92161 0.0
C6525 C 0.2748 0.86612 0.92449 0.0
C6526 C 0.2604 0.84362 0.90784 0.0
C6527 C 0.27123 0.84545 0.89686 0.0
C6528 C 0.28362 0.8578 0.89943 0.0
H6529 H 0.29537 0.79002 0.81912 0.0
H6530 H 0.29382 0.80448 0.84495 0.0
C6531 C 0.28543 0.86809 0.91322 0.0
C6532 C 0.26993 0.83421 0.88284 0.0
H6533 H 0.27879 0.79959 0.87069 0.0
C6534 C 0.26392 0.83787 0.8681 0.0
C6535 C 0.27536 0.82034 0.88393 0.0
C6536 C 0.28236 0.81642 0.89963 0.0
C6537 C 0.26343 0.82798 0.85412 0.0
C6538 C 0.26873 0.81396 0.85518 0.0
C6539 C 0.27459 0.81028 0.87003 0.0
C6540 C 0.26924 0.80347 0.84083 0.0
C6541 C 0.25784 0.83298 0.83834 0.0
C6542 C 0.25585 0.79765 0.83044 0.0
C6543 C 0.25682 0.78987 0.81563 0.0
C6544 C 0.27109 0.78732 0.81144 0.0
C6545 C 0.28429 0.7919 0.82235 0.0
C6546 C 0.28339 0.80011 0.83699 0.0
H6547 H 0.25805 0.84556 0.83923 0.0
H6548 H 0.26494 0.82995 0.82881 0.0
H6549 H 0.2458 0.82709 0.83465 0.0
H6550 H 0.24478 0.79973 0.83348 0.0
H6551 H 0.24654 0.78618 0.80728 0.0
H6552 H 0.94335 0.53556 0.72508 0.0
H6553 H 0.95834 0.53712 0.7021 0.0
H6554 H 0.92551 0.49966 0.67568 0.0
H6555 H 0.91041 0.49822 0.69839 0.0
H6556 H 0.97127 0.51335 0.68753 0.0
H6557 H 0.92999 0.53272 0.64449 0.0
H6558 H 0.9289 0.53464 0.66584 0.0
H6559 H 0.92112 0.51667 0.65386 0.0
C6560 C 0.93929 0.5278 0.71427 0.0
C6561 C 0.92573 0.51681 0.71342 0.0
C6562 C 0.94783 0.52869 0.70123 0.0
C6563 C 0.94279 0.51874 0.68715 0.0
C6564 C 0.92935 0.50768 0.68635 0.0
H6565 H 0.96811 0.47292 0.60823 0.0
H6566 H 0.95732 0.4849 0.63083 0.0
C6567 C 0.92086 0.50673 0.69937 0.0
C6568 C 0.95198 0.51903 0.67353 0.0
H6569 H 0.94835 0.51887 0.63296 0.0
C6570 C 0.9665 0.51499 0.67565 0.0
C6571 C 0.94572 0.52135 0.65813 0.0
C6572 C 0.93064 0.52675 0.65545 0.0
C6573 C 0.97435 0.51186 0.66247 0.0
C6574 C 0.96744 0.51283 0.64696 0.0
C6575 C 0.95349 0.51803 0.64494 0.0
C6576 C 0.97346 0.50638 0.63277 0.0
C6577 C 0.98947 0.50649 0.66501 0.0
C6578 C 0.98597 0.51466 0.62648 0.0
C6579 C 0.99207 0.50787 0.61357 0.0
C6580 C 0.98582 0.4927 0.60705 0.0
C6581 C 0.97322 0.48453 0.6133 0.0
C6582 C 0.96701 0.49138 0.62604 0.0
H6583 H 0.99327 0.50626 0.67788 0.0
H6584 H 0.98846 0.49478 0.65869 0.0
H6585 H 0.99843 0.51423 0.65981 0.0
H6586 H 0.99106 0.52625 0.63164 0.0
H6587 H 1.00177 0.51436 0.6088 0.0
H6588 H 0.2467 0.19838 0.42156 0.0
H6589 H 0.2485 0.21006 0.39654 0.0
H6590 H 0.29651 0.22803 0.41055 0.0
H6591 H 0.2948 0.21688 0.43594 0.0
H6592 H 0.26412 0.2459 0.39412 0.0
H6593 H 0.28904 0.19933 0.36358 0.0
H6594 H 0.2769 0.19566 0.37934 0.0
H6595 H 0.29593 0.20666 0.3841 0.0
C6596 C 0.25762 0.20501 0.41953 0.0
C6597 C 0.27061 0.20662 0.43091 0.0
C6598 C 0.25863 0.2116 0.40512 0.0
C6599 C 0.27264 0.21984 0.40167 0.0
C6600 C 0.2856 0.22162 0.41296 0.0
H6601 H 0.29717 0.25 0.30994 0.0
H6602 H 0.29753 0.24145 0.33679 0.0
C6603 C 0.2846 0.21513 0.42743 0.0
C6604 C 0.27371 0.22637 0.38613 0.0
H6605 H 0.28396 0.21913 0.34859 0.0
C6606 C 0.2685 0.24012 0.38414 0.0
C6607 C 0.27967 0.21893 0.37327 0.0
C6608 C 0.28571 0.2043 0.37501 0.0
C6609 C 0.26909 0.24669 0.36959 0.0
C6610 C 0.2744 0.23888 0.35635 0.0
C6611 C 0.2798 0.22517 0.35854 0.0
C6612 C 0.27434 0.24453 0.34014 0.0
C6613 C 0.26443 0.26215 0.3689 0.0
C6614 C 0.26123 0.24904 0.33281 0.0
C6615 C 0.2613 0.25452 0.31779 0.0
C6616 C 0.27415 0.25475 0.3093 0.0
C6617 C 0.28707 0.24973 0.31621 0.0
C6618 C 0.28724 0.24486 0.33157 0.0
H6619 H 0.26634 0.26886 0.38093 0.0
H6620 H 0.27092 0.26905 0.3606 0.0
H6621 H 0.25198 0.26046 0.36481 0.0
H6622 H 0.25084 0.24828 0.33863 0.0
H6623 H 0.25117 0.25826 0.31262 0.0
H6624 H 0.34736 0.605 0.52339 0.0
H6625 H 0.37027 0.59345 0.52452 0.0
H6626 H 0.34711 0.55626 0.5478 0.0
H6627 H 0.32385 0.56761 0.54635 0.0
H6628 H 0.38738 0.58439 0.55314 0.0
H6629 H 0.36108 0.53688 0.50533 0.0
H6630 H 0.353 0.55404 0.5082 0.0
H6631 H 0.35117 0.54039 0.52257 0.0
C6632 C 0.34713 0.59431 0.52864 0.0
C6633 C 0.33391 0.58705 0.53463 0.0
C6634 C 0.36022 0.58787 0.52948 0.0
C6635 C 0.36023 0.57414 0.53632 0.0
C6636 C 0.34717 0.56693 0.54255 0.0
H6637 H 0.43176 0.52687 0.50902 0.0
H6638 H 0.41129 0.53251 0.52419 0.0
C6639 C 0.334 0.57338 0.54171 0.0
C6640 C 0.37373 0.56703 0.53558 0.0
H6641 H 0.38772 0.54184 0.51091 0.0
C6642 C 0.38752 0.57479 0.54425 0.0
C6643 C 0.37363 0.55451 0.52402 0.0
C6644 C 0.35897 0.54592 0.51441 0.0
C6645 C 0.40153 0.57101 0.5408 0.0
C6646 C 0.40153 0.55941 0.52821 0.0
C6647 C 0.38762 0.55082 0.52049 0.0
C6648 C 0.41565 0.5568 0.52166 0.0
C6649 C 0.41614 0.57982 0.55022 0.0
C6650 C 0.42494 0.5687 0.5153 0.0
C6651 C 0.43707 0.56561 0.50696 0.0
C6652 C 0.43979 0.55055 0.50464 0.0
C6653 C 0.43031 0.53871 0.51097 0.0
C6654 C 0.41854 0.54186 0.5196 0.0
H6655 H 0.41406 0.58408 0.56248 0.0
H6656 H 0.42514 0.57264 0.55115 0.0
H6657 H 0.4205 0.58998 0.54413 0.0
H6658 H 0.42252 0.58024 0.51633 0.0
H6659 H 0.44422 0.57495 0.5023 0.0
H6660 H 0.85741 0.95043 0.54628 0.0
H6661 H 0.88301 0.96578 0.54563 0.0
H6662 H 0.89558 0.92826 0.51687 0.0
H6663 H 0.86998 0.91302 0.51722 0.0
H6664 H 0.91161 0.96232 0.55556 0.0
H6665 H 0.90612 0.96242 0.4897 0.0
H6666 H 0.89002 0.95566 0.50029 0.0
H6667 H 0.90342 0.94336 0.49555 0.0
C6668 C 0.86565 0.94543 0.53986 0.0
C6669 C 0.86155 0.93056 0.53161 0.0
C6670 C 0.88029 0.95424 0.53947 0.0
C6671 C 0.89117 0.94836 0.53087 0.0
C6672 C 0.88728 0.93329 0.52314 0.0
H6673 H 0.98962 0.98476 0.5396 0.0
H6674 H 0.96403 0.97079 0.54246 0.0
C6675 C 0.87262 0.92455 0.52339 0.0
C6676 C 0.90655 0.95796 0.52992 0.0
H6677 H 0.93111 0.97144 0.50346 0.0
C6678 C 0.91583 0.96438 0.54416 0.0
C6679 C 0.91203 0.96092 0.51507 0.0
C6680 C 0.90232 0.95537 0.49929 0.0
C6681 C 0.9305 0.97337 0.54396 0.0
C6682 C 0.93625 0.97574 0.5291 0.0
C6683 C 0.92684 0.96954 0.51488 0.0
C6684 C 0.95191 0.98463 0.52792 0.0
C6685 C 0.93953 0.98049 0.55969 0.0
C6686 C 0.95379 0.99684 0.51841 0.0
C6687 C 0.96847 0.00468 0.51648 0.0
C6688 C 0.98167 1.00059 0.52411 0.0
C6689 C 0.97975 0.98838 0.53367 0.0
C6690 C 0.96507 0.98044 0.53546 0.0
H6691 H 0.93189 0.98166 0.56924 0.0
H6692 H 0.94759 0.97298 0.56354 0.0
H6693 H 0.9463 0.992 0.55858 0.0
H6694 H 0.94387 1.00022 0.5123 0.0
H6695 H 0.96944 0.01367 0.50863 0.0
H6696 H 0.85687 0.07286 0.23476 0.0
H6697 H 0.84427 0.09526 0.23515 0.0
H6698 H 0.87279 0.11544 0.27864 0.0
H6699 H 0.88565 0.0933 0.27816 0.0
H6700 H 0.82789 0.10627 0.25893 0.0
H6701 H 0.87757 0.15055 0.25032 0.0
H6702 H 0.87738 0.13023 0.24619 0.0
H6703 H 0.88153 0.13946 0.2664 0.0
C6704 C 0.8606 0.08215 0.2443 0.0
C6705 C 0.87231 0.08127 0.25642 0.0
C6706 C 0.85334 0.09492 0.24453 0.0
C6707 C 0.85775 0.10716 0.25677 0.0
C6708 C 0.86939 0.10629 0.2689 0.0
H6709 H 0.83009 0.18608 0.29883 0.0
H6710 H 0.84347 0.16638 0.28804 0.0
C6711 C 0.8766 0.09352 0.26872 0.0
C6712 C 0.84975 0.12052 0.25737 0.0
H6713 H 0.85608 0.15974 0.26027 0.0
C6714 C 0.83397 0.11796 0.25895 0.0
C6715 C 0.85769 0.13575 0.25732 0.0
C6716 C 0.87445 0.13919 0.2548 0.0
C6717 C 0.82613 0.13024 0.26146 0.0
C6718 C 0.83422 0.14553 0.26206 0.0
C6719 C 0.84986 0.14804 0.25979 0.0
C6720 C 0.82714 0.15899 0.26694 0.0
C6721 C 0.80946 0.12675 0.26435 0.0
C6722 C 0.81389 0.16197 0.25828 0.0
C6723 C 0.80618 0.17331 0.26448 0.0
C6724 C 0.81165 0.18182 0.2794 0.0
C6725 C 0.82555 0.1796 0.28737 0.0
C6726 C 0.83321 0.16834 0.2812 0.0
H6727 H 0.80578 0.1146 0.26655 0.0
H6728 H 0.80727 0.13432 0.27477 0.0
H6729 H 0.80221 0.12885 0.25366 0.0
H6730 H 0.80918 0.15513 0.24706 0.0
H6731 H 0.79549 0.17478 0.25811 0.0
H6732 H 0.69517 0.06046 0.05292 0.0
H6733 H 0.66798 0.04983 0.05364 0.0
H6734 H 0.65844 0.05709 0.00421 0.0
H6735 H 0.68511 0.06853 0.00354 0.0
H6736 H 0.64785 0.07402 0.04177 0.0
H6737 H 0.63094 0.01345 0.01381 0.0
H6738 H 0.64969 0.02092 0.02465 0.0
H6739 H 0.64508 0.02619 0.00503 0.0
C6740 C 0.68733 0.05951 0.04212 0.0
C6741 C 0.69223 0.06564 0.02829 0.0
C6742 C 0.67191 0.05327 0.04251 0.0
C6743 C 0.66145 0.05272 0.02896 0.0
C6744 C 0.66655 0.05728 0.01468 0.0
H6745 H 0.56654 0.03661 0.99807 0.0
H6746 H 0.59459 0.04254 0.00072 0.0
C6747 C 0.68184 0.06378 0.01434 0.0
C6748 C 0.64507 0.05085 0.03044 0.0
H6749 H 0.61098 0.02744 0.01741 0.0
C6750 C 0.63968 0.06379 0.03671 0.0
C6751 C 0.63475 0.03759 0.0235 0.0
C6752 C 0.64032 0.02366 0.0164 0.0
C6753 C 0.62399 0.06411 0.03543 0.0
C6754 C 0.61356 0.05085 0.02829 0.0
C6755 C 0.61904 0.03765 0.02273 0.0
C6756 C 0.59691 0.05033 0.02612 0.0
C6757 C 0.61894 0.07891 0.0409 0.0
C6758 C 0.58903 0.05367 0.03925 0.0
C6759 C 0.57308 0.05109 0.03745 0.0
C6760 C 0.56499 0.04436 0.02283 0.0
C6761 C 0.57275 0.04182 0.00946 0.0
C6762 C 0.58868 0.04502 0.01105 0.0
H6763 H 0.62826 0.08901 0.04093 0.0
H6764 H 0.60875 0.08066 0.03315 0.0
H6765 H 0.61594 0.07855 0.05335 0.0
H6766 H 0.5951 0.05754 0.05104 0.0
H6767 H 0.56707 0.05358 0.04761 0.0
H6768 H 0.23356 0.47626 0.26368 0.0
H6769 H 0.24463 0.45322 0.26634 0.0
H6770 H 0.20991 0.42765 0.22999 0.0
H6771 H 0.19872 0.45061 0.22733 0.0
H6772 H 0.22345 0.42836 0.27586 0.0
H6773 H 0.25019 0.41121 0.22158 0.0
H6774 H 0.24831 0.43082 0.22739 0.0
H6775 H 0.23191 0.41707 0.21822 0.0
C6776 C 0.22857 0.46581 0.25596 0.0
C6777 C 0.21521 0.46505 0.24547 0.0
C6778 C 0.23495 0.45276 0.2574 0.0
C6779 C 0.22808 0.43889 0.24829 0.0
C6780 C 0.21549 0.43839 0.23687 0.0
H6781 H 0.22292 0.34855 0.27903 0.0
H6782 H 0.21713 0.3711 0.26671 0.0
C6783 C 0.2091 0.45146 0.23542 0.0
C6784 C 0.23199 0.42452 0.25304 0.0
H6785 H 0.24607 0.39284 0.24031 0.0
C6786 C 0.22849 0.42062 0.26814 0.0
C6787 C 0.23843 0.41456 0.24281 0.0
C6788 C 0.24256 0.4186 0.22662 0.0
C6789 C 0.23123 0.40684 0.27336 0.0
C6790 C 0.23743 0.39672 0.26306 0.0
C6791 C 0.24111 0.40065 0.248 0.0
C6792 C 0.2409 0.38239 0.26834 0.0
C6793 C 0.22764 0.40325 0.2899 0.0
C6794 C 0.25614 0.38142 0.27302 0.0
C6795 C 0.25944 0.36876 0.28018 0.0
C6796 C 0.24751 0.35688 0.28267 0.0
C6797 C 0.23226 0.35769 0.27748 0.0
C6798 C 0.22897 0.3704 0.27032 0.0
H6799 H 0.22521 0.41339 0.29724 0.0
H6800 H 0.2174 0.39394 0.28884 0.0
H6801 H 0.23737 0.39916 0.29629 0.0
H6802 H 0.26541 0.39073 0.27169 0.0
H6803 H 0.27129 0.36847 0.2842 0.0
H6804 H 0.22186 0.43891 0.04704 0.0
H6805 H 0.19964 0.45171 0.04623 0.0
H6806 H 0.17849 0.42123 0.00434 0.0
H6807 H 0.20031 0.408 0.00543 0.0
H6808 H 0.18877 0.46729 0.0231 0.0
H6809 H 0.14339 0.41864 0.03159 0.0
H6810 H 0.16357 0.4181 0.03543 0.0
H6811 H 0.154 0.41405 0.01533 0.0
C6812 C 0.21237 0.43474 0.03781 0.0
C6813 C 0.21293 0.42236 0.02632 0.0
C6814 C 0.19969 0.44214 0.03731 0.0
C6815 C 0.18722 0.4373 0.02539 0.0
C6816 C 0.18777 0.42499 0.01389 0.0
H6817 H 0.11053 0.47258 0.98452 0.0
H6818 H 0.12996 0.45735 0.99235 0.0
C6819 C 0.20041 0.41757 0.01438 0.0
C6820 C 0.17404 0.4456 0.02439 0.0
H6821 H 0.1348 0.44027 0.02108 0.0
C6822 C 0.17699 0.46141 0.02289 0.0
C6823 C 0.15863 0.43799 0.02421 0.0
C6824 C 0.1547 0.42129 0.0269 0.0
C6825 C 0.16498 0.46963 0.02051 0.0
C6826 C 0.14958 0.46188 0.0197 0.0
C6827 C 0.14661 0.44618 0.02162 0.0
C6828 C 0.13649 0.4698 0.01595 0.0
C6829 C 0.16881 0.48645 0.01828 0.0
C6830 C 0.13334 0.4815 0.02681 0.0
C6831 C 0.12213 0.49007 0.02241 0.0
C6832 C 0.11393 0.48708 0.00707 0.0
C6833 C 0.11663 0.47497 0.99646 0.0
C6834 C 0.12773 0.46632 0.00091 0.0
H6835 H 0.18113 0.49017 0.01679 0.0
H6836 H 0.16173 0.48895 0.00765 0.0
H6837 H 0.16617 0.4934 0.02892 0.0
H6838 H 0.1399 0.48431 0.03851 0.0
H6839 H 0.12034 0.49948 0.0307 0.0
H6840 H 0.85108 0.94025 0.27384 0.0
H6841 H 0.83572 0.91468 0.27442 0.0
H6842 H 0.85585 0.89759 0.2335 0.0
H6843 H 0.87156 0.92303 0.23308 0.0
H6844 H 0.81411 0.89619 0.25068 0.0
H6845 H 0.86332 0.8676 0.26623 0.0
H6846 H 0.86511 0.88823 0.26801 0.0
H6847 H 0.86465 0.8776 0.24874 0.0
C6848 C 0.85236 0.93103 0.26504 0.0
C6849 C 0.86269 0.93373 0.25349 0.0
C6850 C 0.84348 0.91643 0.26532 0.0
C6851 C 0.84478 0.90413 0.25416 0.0
C6852 C 0.85483 0.90682 0.24241 0.0
H6853 H 0.80539 0.80638 0.24164 0.0
H6854 H 0.81916 0.8322 0.23907 0.0
C6855 C 0.86369 0.92144 0.24209 0.0
C6856 C 0.83562 0.88852 0.25484 0.0
H6857 H 0.83887 0.85162 0.26046 0.0
C6858 C 0.81951 0.88644 0.25285 0.0
C6859 C 0.84266 0.87578 0.25763 0.0
C6860 C 0.85988 0.87737 0.26042 0.0
C6861 C 0.81028 0.87195 0.2533 0.0
C6862 C 0.81731 0.85921 0.25623 0.0
C6863 C 0.83343 0.86132 0.2582 0.0
C6864 C 0.80826 0.84361 0.25734 0.0
C6865 C 0.79307 0.87038 0.25021 0.0
C6866 C 0.7975 0.84131 0.26849 0.0
C6867 C 0.78948 0.82654 0.26987 0.0
C6868 C 0.79219 0.8137 0.26029 0.0
C6869 C 0.80297 0.81602 0.24917 0.0
C6870 C 0.81089 0.83079 0.24771 0.0
H6871 H 0.78982 0.87966 0.24343 0.0
H6872 H 0.78776 0.85912 0.24341 0.0
H6873 H 0.78822 0.87123 0.26184 0.0
H6874 H 0.79555 0.8509 0.27641 0.0
H6875 H 0.78149 0.82514 0.27878 0.0
H6876 H 0.74247 0.10178 0.7683 0.0
H6877 H 0.75494 0.12891 0.77264 0.0
H6878 H 0.71722 0.14078 0.74359 0.0
H6879 H 0.70456 0.11378 0.73934 0.0
H6880 H 0.75626 0.15357 0.7426 0.0
H6881 H 0.7259 0.16146 0.79688 0.0
H6882 H 0.73185 0.1435 0.79119 0.0
H6883 H 0.71639 0.14904 0.77938 0.0
C6884 C 0.737 0.11018 0.76265 0.0
C6885 C 0.72258 0.10583 0.75358 0.0
C6886 C 0.7441 0.12555 0.76511 0.0
C6887 C 0.73681 0.13659 0.75852 0.0
C6888 C 0.72287 0.13223 0.74871 0.0
H6889 H 0.7413 0.23168 0.76661 0.0
H6890 H 0.73486 0.20432 0.76937 0.0
C6891 C 0.71576 0.11687 0.74623 0.0
C6892 C 0.74321 0.15283 0.76276 0.0
H6893 H 0.74111 0.18345 0.78924 0.0
C6894 C 0.75318 0.16016 0.75288 0.0
C6895 C 0.73881 0.16112 0.77606 0.0
C6896 C 0.72765 0.15347 0.78658 0.0
C6897 C 0.75867 0.17596 0.75572 0.0
C6898 C 0.75439 0.18434 0.76916 0.0
C6899 C 0.74458 0.17686 0.7792 0.0
C6900 C 0.75852 0.20112 0.77174 0.0
C6901 C 0.76827 0.18362 0.74383 0.0
C6902 C 0.77395 0.20841 0.77325 0.0
C6903 C 0.7776 0.2239 0.77123 0.0
C6904 C 0.76584 0.2322 0.76826 0.0
C6905 C 0.75051 0.22536 0.7688 0.0
C6906 C 0.74684 0.2098 0.77041 0.0
H6907 H 0.76753 0.17606 0.73242 0.0
H6908 H 0.76459 0.19447 0.74104 0.0
H6909 H 0.78048 0.18639 0.74899 0.0
H6910 H 0.78307 0.20188 0.77476 0.0
H6911 H 0.78953 0.22917 0.77115 0.0
loop_
_geom_bond_atom_site_label_1
_geom_bond_atom_site_label_2
_geom_bond_distance
_geom_bond_site_symmetry_2
_ccdc_geom_bond_type
Li0 N17 1.990 1_455 S
Li0 O60 1.956 . S
Li0 O61 1.970 . S
Li0 O62 1.961 . S
Li1 N25 1.990 . S
Li1 O60 1.970 . S
Li1 O61 1.956 . S
Li1 O63 1.961 . S
Li2 N47 1.990 . S
Li2 O60 1.961 . S
Li2 O62 1.956 . S
Li2 O63 1.970 . S
Li3 N53 1.990 . S
Li3 O61 1.961 . S
Li3 O62 1.970 . S
Li3 O63 1.956 . S
C4 C6 1.348 . S
C4 C7 1.356 . S
C4 O60 1.325 . S
N5 C8 1.314 . S
N5 C9 1.279 . S
C6 C4 1.348 . S
C6 C8 1.353 . S
C6 H64 0.929 . S
C7 C4 1.356 . S
C7 C9 1.358 . S
C7 H65 0.930 . S
C8 N5 1.314 . S
C8 C6 1.353 . S
C8 H66 0.930 . S
C9 N5 1.279 . S
C9 C7 1.358 . S
C9 H67 0.930 . S
C10 C13 1.348 1_455 S
C10 C14 1.356 . S
C10 O61 1.325 . S
C11 N12 1.279 . S
C11 C14 1.358 1_655 S
C11 H68 0.930 . S
N12 C11 1.279 . S
N12 C15 1.314 . S
C13 C10 1.348 1_655 S
C13 C15 1.353 . S
C13 H69 0.929 . S
C14 C10 1.356 . S
C14 C11 1.358 1_455 S
C14 H70 0.930 . S
C15 N12 1.314 . S
C15 C13 1.353 . S
C15 H71 0.930 . S
C16 N17 1.314 . S
C16 C21 1.353 . S
C16 H22 0.930 . S
N17 Li0 1.990 1_655 S
N17 C16 1.314 . S
N17 C19 1.279 . S
C18 C19 1.358 . S
C18 C20 1.356 . S
C18 H72 0.930 . S
C19 N17 1.279 . S
C19 C18 1.358 . S
C19 H23 0.930 . S
C20 C18 1.356 . S
C20 C21 1.348 . S
C21 C16 1.353 . S
C21 C20 1.348 . S
C21 H73 0.929 . S
H22 C16 0.930 . S
H23 C19 0.930 . S
C24 N25 1.314 . S
C24 C26 1.353 . S
C24 H30 0.930 . S
N25 Li1 1.990 . S
N25 C24 1.314 . S
N25 C28 1.279 . S
C26 C24 1.353 . S
C26 C29 1.348 . S
C26 H74 0.929 . S
C27 C28 1.358 . S
C27 C29 1.356 . S
C27 H75 0.930 . S
C28 N25 1.279 . S
C28 C27 1.358 . S
C28 H31 0.930 . S
C29 C26 1.348 . S
C29 C27 1.356 . S
H30 C24 0.930 . S
H31 C28 0.930 . S
C32 C34 1.348 . S
C32 C35 1.356 . S
C32 O62 1.325 . S
N33 C36 1.314 . S
N33 C37 1.279 . S
C34 C32 1.348 . S
C34 C36 1.353 . S
C34 H76 0.929 . S
C35 C32 1.356 . S
C35 C37 1.358 . S
C35 H77 0.930 . S
C36 N33 1.314 . S
C36 C34 1.353 . S
C36 H78 0.930 . S
C37 N33 1.279 . S
C37 C35 1.358 . S
C37 H79 0.930 . S
C38 C39 1.348 . S
C38 C40 1.356 . S
C38 O63 1.325 . S
C39 C38 1.348 . S
C39 C41 1.353 . S
C39 H80 0.929 . S
C40 C38 1.356 . S
C40 C42 1.358 . S
C40 H81 0.930 . S
C41 C39 1.353 . S
C41 N43 1.314 . S
C41 H82 0.930 . S
C42 C40 1.358 . S
C42 N43 1.279 . S
C42 H83 0.930 . S
N43 C41 1.314 . S
N43 C42 1.279 . S
C44 C46 1.353 . S
C44 N47 1.314 . S
C44 H50 0.930 . S
C45 N47 1.279 . S
C45 C48 1.358 . S
C45 H51 0.930 . S
C46 C44 1.353 . S
C46 C49 1.348 . S
C46 H84 0.929 . S
N47 Li2 1.990 . S
N47 C44 1.314 . S
N47 C45 1.279 . S
C48 C45 1.358 . S
C48 C49 1.356 . S
C48 H85 0.930 . S
C49 C46 1.348 . S
C49 C48 1.356 . S
H50 C44 0.930 . S
H51 C45 0.930 . S
C52 N53 1.314 . S
C52 C54 1.353 . S
C52 H58 0.930 . S
N53 Li3 1.990 . S
N53 C52 1.314 . S
N53 C56 1.279 . S
C54 C52 1.353 . S
C54 C57 1.348 . S
C54 H86 0.929 . S
C55 C56 1.358 . S
C55 C57 1.356 . S
C55 H87 0.930 . S
C56 N53 1.279 . S
C56 C55 1.358 . S
C56 H59 0.930 . S
C57 C54 1.348 . S
C57 C55 1.356 . S
H58 C52 0.930 . S
H59 C56 0.930 . S
O60 Li0 1.956 . S
O60 Li1 1.970 . S
O60 Li2 1.961 . S
O60 C4 1.325 . S
O61 Li0 1.970 . S
O61 Li1 1.956 . S
O61 Li3 1.961 . S
O61 C10 1.325 . S
O62 Li0 1.961 . S
O62 Li2 1.956 . S
O62 Li3 1.970 . S
O62 C32 1.325 . S
O63 Li1 1.961 . S
O63 Li2 1.970 . S
O63 Li3 1.956 . S
O63 C38 1.325 . S
H64 C6 0.929 . S
H65 C7 0.930 . S
H66 C8 0.930 . S
H67 C9 0.930 . S
H68 C11 0.930 . S
H69 C13 0.929 . S
H70 C14 0.930 . S
H71 C15 0.930 . S
H72 C18 0.930 . S
H73 C21 0.929 . S
H74 C26 0.929 . S
H75 C27 0.930 . S
H76 C34 0.929 . S
H77 C35 0.930 . S
H78 C36 0.930 . S
H79 C37 0.930 . S
H80 C39 0.929 . S
H81 C40 0.930 . S
H82 C41 0.930 . S
H83 C42 0.930 . S
H84 C46 0.929 . S
H85 C48 0.930 . S
H86 C54 0.929 . S
H87 C55 0.930 . S
Li88 N105 1.990 . S
Li88 O148 1.956 . S
Li88 O149 1.970 . S
Li88 O150 1.961 1_455 S
Li89 N113 1.990 . S
Li89 O148 1.970 . S
Li89 O149 1.956 . S
Li89 O151 1.961 . S
Li90 N135 1.990 . S
Li90 O148 1.961 . S
Li90 O150 1.956 1_455 S
Li90 O151 1.970 . S
Li91 N141 1.990 . S
Li91 O149 1.961 1_655 S
Li91 O150 1.970 . S
Li91 O151 1.956 1_655 S
C92 C94 1.348 . S
C92 C95 1.356 . S
C92 O148 1.325 . S
N93 C96 1.314 . S
N93 C97 1.279 . S
C94 C92 1.348 . S
C94 C96 1.353 . S
C94 H152 0.929 . S
C95 C92 1.356 . S
C95 C97 1.358 . S
C95 H153 0.930 . S
C96 N93 1.314 . S
C96 C94 1.353 . S
C96 H154 0.930 . S
C97 N93 1.279 . S
C97 C95 1.358 . S
C97 H155 0.930 . S
C98 C101 1.348 . S
C98 C102 1.356 . S
C98 O149 1.325 . S
C99 N100 1.279 . S
C99 C102 1.358 . S
C99 H156 0.930 . S
N100 C99 1.279 . S
N100 C103 1.314 . S
C101 C98 1.348 . S
C101 C103 1.353 . S
C101 H157 0.929 . S
C102 C98 1.356 . S
C102 C99 1.358 . S
C102 H158 0.930 . S
C103 N100 1.314 . S
C103 C101 1.353 . S
C103 H159 0.930 . S
C104 N105 1.314 . S
C104 C109 1.361 . S
C104 H110 0.930 1_455 S
N105 Li88 1.990 . S
N105 C104 1.314 . S
N105 C107 1.279 . S
C106 C107 1.358 . S
C106 C108 1.356 . S
C106 H160 0.930 . S
C107 N105 1.279 . S
C107 C106 1.358 . S
C107 H111 0.930 . S
C108 C106 1.356 . S
C108 C109 1.393 . S
C109 C104 1.361 . S
C109 C108 1.393 . S
C109 H161 0.878 1_455 S
H110 C104 0.930 1_655 S
H111 C107 0.930 . S
C112 N113 1.314 . S
C112 C114 1.353 . S
C112 H118 0.930 . S
N113 Li89 1.990 . S
N113 C112 1.314 . S
N113 C116 1.279 . S
C114 C112 1.353 . S
C114 C117 1.348 . S
C114 H162 0.929 . S
C115 C116 1.358 . S
C115 C117 1.356 . S
C115 H163 0.930 . S
C116 N113 1.279 . S
C116 C115 1.358 . S
C116 H119 0.930 . S
C117 C114 1.348 . S
C117 C115 1.356 . S
H118 C112 0.930 . S
H119 C116 0.930 . S
C120 C122 1.348 . S
C120 C123 1.356 . S
C120 O150 1.325 . S
N121 C124 1.314 . S
N121 C125 1.279 . S
C122 C120 1.348 . S
C122 C124 1.353 . S
C122 H164 0.929 . S
C123 C120 1.356 . S
C123 C125 1.358 . S
C123 H165 0.930 . S
C124 N121 1.314 . S
C124 C122 1.353 . S
C124 H166 0.930 . S
C125 N121 1.279 . S
C125 C123 1.358 . S
C125 H167 0.930 . S
C126 C127 1.348 . S
C126 C128 1.356 . S
C126 O151 1.325 . S
C127 C126 1.348 . S
C127 C129 1.353 . S
C127 H168 0.923 1_455 S
C128 C126 1.356 . S
C128 C130 1.358 . S
C128 H169 0.930 . S
C129 C127 1.353 . S
C129 N131 1.314 . S
C129 H170 0.923 1_455 S
C130 C128 1.358 . S
C130 N131 1.279 . S
C130 H171 0.930 . S
N131 C129 1.314 . S
N131 C130 1.279 . S
C132 C134 1.353 . S
C132 N135 1.314 . S
C132 H138 0.930 . S
C133 N135 1.279 1_655 S
C133 C136 1.358 . S
C133 H139 0.930 . S
C134 C132 1.353 . S
C134 C137 1.348 . S
C134 H172 0.929 . S
N135 Li90 1.990 . S
N135 C132 1.314 . S
N135 C133 1.279 1_455 S
C136 C133 1.358 . S
C136 C137 1.356 1_655 S
C136 H173 0.930 . S
C137 C134 1.348 . S
C137 C136 1.356 1_455 S
H138 C132 0.930 . S
H139 C133 0.930 . S
C140 N141 1.314 . S
C140 C142 1.353 . S
C140 H146 0.930 . S
N141 Li91 1.990 . S
N141 C140 1.314 . S
N141 C144 1.279 . S
C142 C140 1.353 . S
C142 C145 1.348 . S
C142 H174 0.929 . S
C143 C144 1.358 . S
C143 C145 1.356 . S
C143 H175 0.930 . S
C144 N141 1.279 . S
C144 C143 1.358 . S
C144 H147 0.930 . S
C145 C142 1.348 . S
C145 C143 1.356 . S
H146 C140 0.930 . S
H147 C144 0.930 . S
O148 Li88 1.956 . S
O148 Li89 1.970 . S
O148 Li90 1.961 . S
O148 C92 1.325 . S
O149 Li88 1.970 . S
O149 Li89 1.956 . S
O149 Li91 1.961 1_455 S
O149 C98 1.325 . S
O150 Li88 1.961 1_655 S
O150 Li90 1.956 1_655 S
O150 Li91 1.970 . S
O150 C120 1.325 . S
O151 Li89 1.961 . S
O151 Li90 1.970 . S
O151 Li91 1.956 1_455 S
O151 C126 1.325 . S
H152 C94 0.929 . S
H153 C95 0.930 . S
H154 C96 0.930 . S
H155 C97 0.930 . S
H156 C99 0.930 . S
H157 C101 0.929 . S
H158 C102 0.930 . S
H159 C103 0.930 . S
H160 C106 0.930 . S
H161 C109 0.878 1_655 S
H162 C114 0.929 . S
H163 C115 0.930 . S
H164 C122 0.929 . S
H165 C123 0.930 . S
H166 C124 0.930 . S
H167 C125 0.930 . S
H168 C127 0.923 1_655 S
H169 C128 0.930 . S
H170 C129 0.923 1_655 S
H171 C130 0.930 . S
H172 C134 0.929 . S
H173 C136 0.930 . S
H174 C142 0.929 . S
H175 C143 0.930 . S
Li176 N193 1.990 . S
Li176 O236 1.956 . S
Li176 O237 1.970 . S
Li176 O238 1.961 . S
Li177 N201 1.990 . S
Li177 O236 1.970 . S
Li177 O237 1.956 . S
Li177 O239 1.961 . S
Li178 N223 1.990 . S
Li178 O236 1.961 . S
Li178 O238 1.956 . S
Li178 O239 1.970 . S
Li179 N229 1.990 . S
Li179 O237 1.961 . S
Li179 O238 1.970 . S
Li179 O239 1.956 . S
C180 C182 1.348 . S
C180 C183 1.356 . S
C180 O236 1.325 . S
N181 C184 1.314 . S
N181 C185 1.279 . S
C182 C180 1.348 . S
C182 C184 1.353 . S
C182 H240 0.929 . S
C183 C180 1.356 . S
C183 C185 1.358 . S
C183 H241 0.930 . S
C184 N181 1.314 . S
C184 C182 1.353 . S
C184 H242 0.930 . S
C185 N181 1.279 . S
C185 C183 1.358 . S
C185 H243 0.930 . S
C186 C189 1.348 . S
C186 C190 1.356 . S
C186 O237 1.325 . S
C187 N188 1.279 . S
C187 C190 1.358 . S
C187 H244 0.930 . S
N188 C187 1.279 . S
N188 C191 1.314 . S
C189 C186 1.348 . S
C189 C191 1.353 . S
C189 H245 0.929 . S
C190 C186 1.356 . S
C190 C187 1.358 . S
C190 H246 0.930 . S
C191 N188 1.314 . S
C191 C189 1.353 . S
C191 H247 0.930 . S
C192 N193 1.314 . S
C192 C197 1.353 . S
C192 H198 0.930 . S
N193 Li176 1.990 . S
N193 C192 1.314 . S
N193 C195 1.279 . S
C194 C195 1.358 . S
C194 C196 1.356 . S
C194 H248 0.930 . S
C195 N193 1.279 . S
C195 C194 1.358 . S
C195 H199 0.930 . S
C196 C194 1.356 . S
C196 C197 1.348 . S
C197 C192 1.353 . S
C197 C196 1.348 . S
C197 H249 0.929 . S
H198 C192 0.930 . S
H199 C195 0.930 . S
C200 N201 1.314 . S
C200 C202 1.353 . S
C200 H206 0.930 . S
N201 Li177 1.990 . S
N201 C200 1.314 . S
N201 C204 1.279 . S
C202 C200 1.353 . S
C202 C205 1.348 . S
C202 H250 0.929 . S
C203 C204 1.358 . S
C203 C205 1.356 . S
C203 H251 0.930 . S
C204 N201 1.279 . S
C204 C203 1.358 . S
C204 H207 0.930 . S
C205 C202 1.348 . S
C205 C203 1.356 . S
H206 C200 0.930 . S
H207 C204 0.930 . S
C208 C210 1.348 . S
C208 C211 1.356 . S
C208 O238 1.325 . S
N209 C212 1.314 . S
N209 C213 1.279 . S
C210 C208 1.348 . S
C210 C212 1.353 . S
C210 H252 0.929 . S
C211 C208 1.356 . S
C211 C213 1.358 . S
C211 H253 0.930 . S
C212 N209 1.314 . S
C212 C210 1.353 . S
C212 H254 0.930 . S
C213 N209 1.279 . S
C213 C211 1.358 . S
C213 H255 0.930 . S
C214 C215 1.348 . S
C214 C216 1.356 . S
C214 O239 1.325 . S
C215 C214 1.348 . S
C215 C217 1.353 . S
C215 H256 0.929 . S
C216 C214 1.356 . S
C216 C218 1.358 . S
C216 H257 0.930 . S
C217 C215 1.353 . S
C217 N219 1.314 . S
C217 H258 0.930 . S
C218 C216 1.358 . S
C218 N219 1.279 . S
C218 H259 0.930 . S
N219 C217 1.314 . S
N219 C218 1.279 . S
C220 C222 1.353 . S
C220 N223 1.314 . S
C220 H226 0.930 . S
C221 N223 1.279 . S
C221 C224 1.358 . S
C221 H227 0.930 . S
C222 C220 1.353 . S
C222 C225 1.348 . S
C222 H260 0.929 . S
N223 Li178 1.990 . S
N223 C220 1.314 . S
N223 C221 1.279 . S
C224 C221 1.358 . S
C224 C225 1.356 . S
C224 H261 0.930 . S
C225 C222 1.348 . S
C225 C224 1.356 . S
H226 C220 0.930 . S
H227 C221 0.930 . S
C228 N229 1.314 . S
C228 C230 1.353 . S
C228 H234 0.930 . S
N229 Li179 1.990 . S
N229 C228 1.314 . S
N229 C232 1.279 . S
C230 C228 1.353 . S
C230 C233 1.348 . S
C230 H262 0.929 . S
C231 C232 1.358 . S
C231 C233 1.356 . S
C231 H263 0.930 . S
C232 N229 1.279 . S
C232 C231 1.358 . S
C232 H235 0.930 . S
C233 C230 1.348 . S
C233 C231 1.356 . S
H234 C228 0.930 . S
H235 C232 0.930 . S
O236 Li176 1.956 . S
O236 Li177 1.970 . S
O236 Li178 1.961 . S
O236 C180 1.325 . S
O237 Li176 1.970 . S
O237 Li177 1.956 . S
O237 Li179 1.961 . S
O237 C186 1.325 . S
O238 Li176 1.961 . S
O238 Li178 1.956 . S
O238 Li179 1.970 . S
O238 C208 1.325 . S
O239 Li177 1.961 . S
O239 Li178 1.970 . S
O239 Li179 1.956 . S
O239 C214 1.325 . S
H240 C182 0.929 . S
H241 C183 0.930 . S
H242 C184 0.930 . S
H243 C185 0.930 . S
H244 C187 0.930 . S
H245 C189 0.929 . S
H246 C190 0.930 . S
H247 C191 0.930 . S
H248 C194 0.930 . S
H249 C197 0.929 . S
H250 C202 0.929 . S
H251 C203 0.930 . S
H252 C210 0.929 . S
H253 C211 0.930 . S
H254 C212 0.930 . S
H255 C213 0.930 . S
H256 C215 0.929 . S
H257 C216 0.930 . S
H258 C217 0.930 . S
H259 C218 0.930 . S
H260 C222 0.929 . S
H261 C224 0.930 . S
H262 C230 0.929 . S
H263 C231 0.930 . S
Li264 N281 1.990 . S
Li264 O324 1.956 . S
Li264 O325 1.970 . S
Li264 O326 1.961 . S
Li265 N289 1.990 . S
Li265 O324 1.970 . S
Li265 O325 1.956 . S
Li265 O327 1.961 . S
Li266 N311 1.990 . S
Li266 O324 1.961 . S
Li266 O326 1.956 . S
Li266 O327 1.970 . S
Li267 N317 1.990 . S
Li267 O325 1.961 . S
Li267 O326 1.970 . S
Li267 O327 1.956 . S
C268 C270 1.348 . S
C268 C271 1.356 . S
C268 O324 1.325 . S
N269 C272 1.314 . S
N269 C273 1.279 . S
C270 C268 1.348 . S
C270 C272 1.353 . S
C270 H328 0.929 . S
C271 C268 1.356 . S
C271 C273 1.358 . S
C271 H329 0.930 . S
C272 N269 1.314 . S
C272 C270 1.353 . S
C272 H330 0.930 . S
C273 N269 1.279 . S
C273 C271 1.358 . S
C273 H331 0.930 . S
C274 C277 1.348 . S
C274 C278 1.356 . S
C274 O325 1.325 . S
C275 N276 1.279 . S
C275 C278 1.358 . S
C275 H332 0.930 . S
N276 C275 1.279 . S
N276 C279 1.314 . S
C277 C274 1.348 . S
C277 C279 1.353 . S
C277 H333 0.929 . S
C278 C274 1.356 . S
C278 C275 1.358 . S
C278 H334 0.930 . S
C279 N276 1.314 . S
C279 C277 1.353 . S
C279 H335 0.930 . S
C280 N281 1.314 . S
C280 C285 1.353 . S
C280 H286 0.930 . S
N281 Li264 1.990 . S
N281 C280 1.314 . S
N281 C283 1.279 . S
C282 C283 1.358 . S
C282 C284 1.356 . S
C282 H336 0.930 . S
C283 N281 1.279 . S
C283 C282 1.358 . S
C283 H287 0.930 . S
C284 C282 1.356 . S
C284 C285 1.348 . S
C285 C280 1.353 . S
C285 C284 1.348 . S
C285 H337 0.929 . S
H286 C280 0.930 . S
H287 C283 0.930 . S
C288 N289 1.314 . S
C288 C290 1.353 . S
C288 H294 0.930 . S
N289 Li265 1.990 . S
N289 C288 1.314 . S
N289 C292 1.279 . S
C290 C288 1.353 . S
C290 C293 1.348 . S
C290 H338 0.929 . S
C291 C292 1.358 . S
C291 C293 1.356 . S
C291 H339 0.930 . S
C292 N289 1.279 . S
C292 C291 1.358 . S
C292 H295 0.930 . S
C293 C290 1.348 . S
C293 C291 1.356 . S
H294 C288 0.930 . S
H295 C292 0.930 . S
C296 C298 1.348 . S
C296 C299 1.356 . S
C296 O326 1.325 . S
N297 C300 1.314 . S
N297 C301 1.279 . S
C298 C296 1.348 . S
C298 C300 1.353 . S
C298 H340 0.929 . S
C299 C296 1.356 . S
C299 C301 1.358 . S
C299 H341 0.930 . S
C300 N297 1.314 . S
C300 C298 1.353 . S
C300 H342 0.930 . S
C301 N297 1.279 . S
C301 C299 1.358 . S
C301 H343 0.930 . S
C302 C303 1.348 . S
C302 C304 1.356 . S
C302 O327 1.325 . S
C303 C302 1.348 . S
C303 C305 1.353 . S
C303 H344 0.929 . S
C304 C302 1.356 . S
C304 C306 1.358 . S
C304 H345 0.930 . S
C305 C303 1.353 . S
C305 N307 1.314 . S
C305 H346 0.930 . S
C306 C304 1.358 . S
C306 N307 1.279 . S
C306 H347 0.930 . S
N307 C305 1.314 . S
N307 C306 1.279 . S
C308 C310 1.353 . S
C308 N311 1.314 . S
C308 H314 0.930 . S
C309 N311 1.279 . S
C309 C312 1.358 . S
C309 H315 0.930 . S
C310 C308 1.353 . S
C310 C313 1.348 . S
C310 H348 0.929 . S
N311 Li266 1.990 . S
N311 C308 1.314 . S
N311 C309 1.279 . S
C312 C309 1.358 . S
C312 C313 1.356 . S
C312 H349 0.930 . S
C313 C310 1.348 . S
C313 C312 1.356 . S
H314 C308 0.930 . S
H315 C309 0.930 . S
C316 N317 1.314 . S
C316 C318 1.353 . S
C316 H322 0.930 . S
N317 Li267 1.990 . S
N317 C316 1.314 . S
N317 C320 1.279 . S
C318 C316 1.353 . S
C318 C321 1.348 . S
C318 H350 0.929 . S
C319 C320 1.358 . S
C319 C321 1.356 . S
C319 H351 0.930 . S
C320 N317 1.279 . S
C320 C319 1.358 . S
C320 H323 0.930 . S
C321 C318 1.348 . S
C321 C319 1.356 . S
H322 C316 0.930 . S
H323 C320 0.930 . S
O324 Li264 1.956 . S
O324 Li265 1.970 . S
O324 Li266 1.961 . S
O324 C268 1.325 . S
O325 Li264 1.970 . S
O325 Li265 1.956 . S
O325 Li267 1.961 . S
O325 C274 1.325 . S
O326 Li264 1.961 . S
O326 Li266 1.956 . S
O326 Li267 1.970 . S
O326 C296 1.325 . S
O327 Li265 1.961 . S
O327 Li266 1.970 . S
O327 Li267 1.956 . S
O327 C302 1.325 . S
H328 C270 0.929 . S
H329 C271 0.930 . S
H330 C272 0.930 . S
H331 C273 0.930 . S
H332 C275 0.930 . S
H333 C277 0.929 . S
H334 C278 0.930 . S
H335 C279 0.930 . S
H336 C282 0.930 . S
H337 C285 0.929 . S
H338 C290 0.929 . S
H339 C291 0.930 . S
H340 C298 0.929 . S
H341 C299 0.930 . S
H342 C300 0.930 . S
H343 C301 0.930 . S
H344 C303 0.929 . S
H345 C304 0.930 . S
H346 C305 0.930 . S
H347 C306 0.930 . S
H348 C310 0.929 . S
H349 C312 0.930 . S
H350 C318 0.929 . S
H351 C319 0.930 . S
Li352 N369 1.990 . S
Li352 O412 1.956 . S
Li352 O413 1.970 . S
Li352 O414 1.961 . S
Li353 N377 1.990 . S
Li353 O412 1.970 . S
Li353 O413 1.956 . S
Li353 O415 1.961 . S
Li354 N399 1.990 . S
Li354 O412 1.961 . S
Li354 O414 1.956 . S
Li354 O415 1.970 . S
Li355 N405 1.990 . S
Li355 O413 1.961 . S
Li355 O414 1.970 . S
Li355 O415 1.956 . S
C356 C358 1.348 . S
C356 C359 1.356 . S
C356 O412 1.325 . S
N357 C360 1.314 . S
N357 C361 1.279 . S
C358 C356 1.348 . S
C358 C360 1.353 . S
C358 H416 0.929 . S
C359 C356 1.356 . S
C359 C361 1.358 . S
C359 H417 0.930 . S
C360 N357 1.314 . S
C360 C358 1.353 . S
C360 H418 0.930 . S
C361 N357 1.279 . S
C361 C359 1.358 . S
C361 H419 0.930 . S
C362 C365 1.348 . S
C362 C366 1.356 . S
C362 O413 1.325 . S
C363 N364 1.279 . S
C363 C366 1.358 . S
C363 H420 0.930 . S
N364 C363 1.279 . S
N364 C367 1.314 . S
C365 C362 1.348 . S
C365 C367 1.353 . S
C365 H421 0.929 . S
C366 C362 1.356 . S
C366 C363 1.358 . S
C366 H422 0.930 . S
C367 N364 1.314 . S
C367 C365 1.353 . S
C367 H423 0.930 . S
C368 N369 1.314 . S
C368 C373 1.353 . S
C368 H374 0.930 . S
N369 Li352 1.990 . S
N369 C368 1.314 . S
N369 C371 1.279 . S
C370 C371 1.358 . S
C370 C372 1.356 . S
C370 H424 0.930 . S
C371 N369 1.279 . S
C371 C370 1.358 . S
C371 H375 0.930 . S
C372 C370 1.356 . S
C372 C373 1.348 . S
C373 C368 1.353 . S
C373 C372 1.348 . S
C373 H425 0.929 . S
H374 C368 0.930 . S
H375 C371 0.930 . S
C376 N377 1.314 . S
C376 C378 1.353 . S
C376 H382 0.930 . S
N377 Li353 1.990 . S
N377 C376 1.314 . S
N377 C380 1.279 . S
C378 C376 1.353 . S
C378 C381 1.348 . S
C378 H426 0.929 . S
C379 C380 1.358 . S
C379 C381 1.356 . S
C379 H427 0.930 . S
C380 N377 1.279 . S
C380 C379 1.358 . S
C380 H383 0.930 . S
C381 C378 1.348 . S
C381 C379 1.356 . S
H382 C376 0.930 . S
H383 C380 0.930 . S
C384 C386 1.348 1_455 S
C384 C387 1.356 . S
C384 O414 1.325 . S
N385 C388 1.314 . S
N385 C389 1.279 . S
C386 C384 1.348 1_655 S
C386 C388 1.353 . S
C386 H428 0.929 . S
C387 C384 1.356 . S
C387 C389 1.358 1_455 S
C387 H429 0.930 . S
C388 N385 1.314 . S
C388 C386 1.353 . S
C388 H430 0.930 . S
C389 N385 1.279 . S
C389 C387 1.358 1_655 S
C389 H431 0.930 . S
C390 C391 1.348 . S
C390 C392 1.356 . S
C390 O415 1.325 . S
C391 C390 1.348 . S
C391 C393 1.353 . S
C391 H432 0.929 . S
C392 C390 1.356 . S
C392 C394 1.358 . S
C392 H433 0.930 . S
C393 C391 1.353 . S
C393 N395 1.314 . S
C393 H434 0.930 . S
C394 C392 1.358 . S
C394 N395 1.279 . S
C394 H435 0.930 . S
N395 C393 1.314 . S
N395 C394 1.279 . S
C396 C398 1.353 . S
C396 N399 1.314 . S
C396 H402 0.930 . S
C397 N399 1.279 . S
C397 C400 1.358 . S
C397 H403 0.930 . S
C398 C396 1.353 . S
C398 C401 1.348 . S
C398 H436 0.929 . S
N399 Li354 1.990 . S
N399 C396 1.314 . S
N399 C397 1.279 . S
C400 C397 1.358 . S
C400 C401 1.356 . S
C400 H437 0.930 . S
C401 C398 1.348 . S
C401 C400 1.356 . S
H402 C396 0.930 . S
H403 C397 0.930 . S
C404 N405 1.314 . S
C404 C406 1.353 1_455 S
C404 H410 0.930 . S
N405 Li355 1.990 . S
N405 C404 1.314 . S
N405 C408 1.279 . S
C406 C404 1.353 1_655 S
C406 C409 1.348 . S
C406 H438 0.929 . S
C407 C408 1.358 1_655 S
C407 C409 1.356 . S
C407 H439 0.930 . S
C408 N405 1.279 . S
C408 C407 1.358 1_455 S
C408 H411 0.930 . S
C409 C406 1.348 . S
C409 C407 1.356 . S
H410 C404 0.930 . S
H411 C408 0.930 . S
O412 Li352 1.956 . S
O412 Li353 1.970 . S
O412 Li354 1.961 . S
O412 C356 1.325 . S
O413 Li352 1.970 . S
O413 Li353 1.956 . S
O413 Li355 1.961 . S
O413 C362 1.325 . S
O414 Li352 1.961 . S
O414 Li354 1.956 . S
O414 Li355 1.970 . S
O414 C384 1.325 . S
O415 Li353 1.961 . S
O415 Li354 1.970 . S
O415 Li355 1.956 . S
O415 C390 1.325 . S
H416 C358 0.929 . S
H417 C359 0.930 . S
H418 C360 0.930 . S
H419 C361 0.930 . S
H420 C363 0.930 . S
H421 C365 0.929 . S
H422 C366 0.930 . S
H423 C367 0.930 . S
H424 C370 0.930 . S
H425 C373 0.929 . S
H426 C378 0.929 . S
H427 C379 0.930 . S
H428 C386 0.929 . S
H429 C387 0.930 . S
H430 C388 0.930 . S
H431 C389 0.930 . S
H432 C391 0.929 . S
H433 C392 0.930 . S
H434 C393 0.930 . S
H435 C394 0.930 . S
H436 C398 0.929 . S
H437 C400 0.930 . S
H438 C406 0.929 . S
H439 C407 0.930 . S
Li440 N457 1.990 . S
Li440 O500 1.956 . S
Li440 O501 1.970 . S
Li440 O502 1.961 . S
Li441 N465 1.990 . S
Li441 O500 1.970 . S
Li441 O501 1.956 . S
Li441 O503 1.961 . S
Li442 N487 1.990 . S
Li442 O500 1.961 . S
Li442 O502 1.956 . S
Li442 O503 1.970 . S
Li443 N493 1.990 . S
Li443 O501 1.961 . S
Li443 O502 1.970 . S
Li443 O503 1.956 . S
C444 C446 1.348 . S
C444 C447 1.356 . S
C444 O500 1.325 . S
N445 C448 1.314 . S
N445 C449 1.279 . S
C446 C444 1.348 . S
C446 C448 1.353 . S
C446 H504 0.929 . S
C447 C444 1.356 . S
C447 C449 1.358 . S
C447 H505 0.930 . S
C448 N445 1.314 . S
C448 C446 1.353 . S
C448 H506 0.930 . S
C449 N445 1.279 . S
C449 C447 1.358 . S
C449 H507 0.930 . S
C450 C453 1.348 . S
C450 C454 1.356 . S
C450 O501 1.325 . S
C451 N452 1.279 . S
C451 C454 1.358 . S
C451 H508 0.930 . S
N452 C451 1.279 . S
N452 C455 1.314 . S
C453 C450 1.348 . S
C453 C455 1.353 . S
C453 H509 0.929 . S
C454 C450 1.356 . S
C454 C451 1.358 . S
C454 H510 0.930 . S
C455 N452 1.314 . S
C455 C453 1.353 . S
C455 H511 0.930 . S
C456 N457 1.314 . S
C456 C461 1.353 . S
C456 H462 0.930 . S
N457 Li440 1.990 . S
N457 C456 1.314 . S
N457 C459 1.279 . S
C458 C459 1.358 . S
C458 C460 1.356 . S
C458 H512 0.930 . S
C459 N457 1.279 . S
C459 C458 1.358 . S
C459 H463 0.930 . S
C460 C458 1.356 . S
C460 C461 1.348 . S
C461 C456 1.353 . S
C461 C460 1.348 . S
C461 H513 0.929 . S
H462 C456 0.930 . S
H463 C459 0.930 . S
C464 N465 1.314 . S
C464 C466 1.353 . S
C464 H470 0.930 . S
N465 Li441 1.990 . S
N465 C464 1.314 . S
N465 C468 1.279 . S
C466 C464 1.353 . S
C466 C469 1.348 . S
C466 H514 0.929 . S
C467 C468 1.358 . S
C467 C469 1.356 . S
C467 H515 0.930 . S
C468 N465 1.279 . S
C468 C467 1.358 . S
C468 H471 0.930 . S
C469 C466 1.348 . S
C469 C467 1.356 . S
H470 C464 0.930 . S
H471 C468 0.930 . S
C472 C474 1.348 . S
C472 C475 1.356 . S
C472 O502 1.325 . S
N473 C476 1.314 . S
N473 C477 1.279 . S
C474 C472 1.348 . S
C474 C476 1.353 . S
C474 H516 0.929 . S
C475 C472 1.356 . S
C475 C477 1.358 . S
C475 H517 0.930 . S
C476 N473 1.314 . S
C476 C474 1.353 . S
C476 H518 0.930 . S
C477 N473 1.279 . S
C477 C475 1.358 . S
C477 H519 0.930 . S
C478 C479 1.348 . S
C478 C480 1.356 . S
C478 O503 1.325 . S
C479 C478 1.348 . S
C479 C481 1.353 . S
C479 H520 0.929 . S
C480 C478 1.356 . S
C480 C482 1.358 . S
C480 H521 0.930 . S
C481 C479 1.353 . S
C481 N483 1.314 . S
C481 H522 0.930 . S
C482 C480 1.358 . S
C482 N483 1.279 . S
C482 H523 0.930 . S
N483 C481 1.314 . S
N483 C482 1.279 . S
C484 C486 1.353 . S
C484 N487 1.314 . S
C484 H490 0.930 . S
C485 N487 1.279 . S
C485 C488 1.358 . S
C485 H491 0.930 . S
C486 C484 1.353 . S
C486 C489 1.348 . S
C486 H524 0.929 . S
N487 Li442 1.990 . S
N487 C484 1.314 . S
N487 C485 1.279 . S
C488 C485 1.358 . S
C488 C489 1.356 . S
C488 H525 0.930 . S
C489 C486 1.348 . S
C489 C488 1.356 . S
H490 C484 0.930 . S
H491 C485 0.930 . S
C492 N493 1.314 . S
C492 C494 1.353 . S
C492 H498 0.930 . S
N493 Li443 1.990 . S
N493 C492 1.314 . S
N493 C496 1.279 . S
C494 C492 1.353 . S
C494 C497 1.348 . S
C494 H526 0.929 . S
C495 C496 1.358 . S
C495 C497 1.356 . S
C495 H527 0.930 . S
C496 N493 1.279 . S
C496 C495 1.358 . S
C496 H499 0.930 . S
C497 C494 1.348 . S
C497 C495 1.356 . S
H498 C492 0.930 . S
H499 C496 0.930 . S
O500 Li440 1.956 . S
O500 Li441 1.970 . S
O500 Li442 1.961 . S
O500 C444 1.325 . S
O501 Li440 1.970 . S
O501 Li441 1.956 . S
O501 Li443 1.961 . S
O501 C450 1.325 . S
O502 Li440 1.961 . S
O502 Li442 1.956 . S
O502 Li443 1.970 . S
O502 C472 1.325 . S
O503 Li441 1.961 . S
O503 Li442 1.970 . S
O503 Li443 1.956 . S
O503 C478 1.325 . S
H504 C446 0.929 . S
H505 C447 0.930 . S
H506 C448 0.930 . S
H507 C449 0.930 . S
H508 C451 0.930 . S
H509 C453 0.929 . S
H510 C454 0.930 . S
H511 C455 0.930 . S
H512 C458 0.930 . S
H513 C461 0.929 . S
H514 C466 0.929 . S
H515 C467 0.930 . S
H516 C474 0.929 . S
H517 C475 0.930 . S
H518 C476 0.930 . S
H519 C477 0.930 . S
H520 C479 0.929 . S
H521 C480 0.930 . S
H522 C481 0.930 . S
H523 C482 0.930 . S
H524 C486 0.929 . S
H525 C488 0.930 . S
H526 C494 0.929 . S
H527 C495 0.930 . S
Li528 N545 1.990 . S
Li528 O588 1.956 . S
Li528 O589 1.970 . S
Li528 O590 1.961 . S
Li529 N553 1.990 . S
Li529 O588 1.970 . S
Li529 O589 1.956 . S
Li529 O591 1.961 . S
Li530 N575 1.990 . S
Li530 O588 1.961 . S
Li530 O590 1.956 . S
Li530 O591 1.970 . S
Li531 N581 1.990 . S
Li531 O589 1.961 . S
Li531 O590 1.970 . S
Li531 O591 1.956 . S
C532 C534 1.348 . S
C532 C535 1.356 . S
C532 O588 1.325 . S
N533 C536 1.314 . S
N533 C537 1.279 . S
C534 C532 1.348 . S
C534 C536 1.353 . S
C534 H592 0.929 . S
C535 C532 1.356 . S
C535 C537 1.358 . S
C535 H593 0.930 . S
C536 N533 1.314 . S
C536 C534 1.353 . S
C536 H594 0.930 . S
C537 N533 1.279 . S
C537 C535 1.358 . S
C537 H595 0.930 . S
C538 C541 1.348 . S
C538 C542 1.356 . S
C538 O589 1.325 . S
C539 N540 1.279 . S
C539 C542 1.358 . S
C539 H596 0.930 . S
N540 C539 1.279 . S
N540 C543 1.314 . S
C541 C538 1.348 . S
C541 C543 1.353 . S
C541 H597 0.929 . S
C542 C538 1.356 . S
C542 C539 1.358 . S
C542 H598 0.930 . S
C543 N540 1.314 . S
C543 C541 1.353 . S
C543 H599 0.930 . S
C544 N545 1.314 . S
C544 C549 1.353 . S
C544 H550 0.930 . S
N545 Li528 1.990 . S
N545 C544 1.314 . S
N545 C547 1.279 . S
C546 C547 1.358 . S
C546 C548 1.356 . S
C546 H600 0.930 . S
C547 N545 1.279 . S
C547 C546 1.358 . S
C547 H551 0.930 . S
C548 C546 1.356 . S
C548 C549 1.348 . S
C549 C544 1.353 . S
C549 C548 1.348 . S
C549 H601 0.929 . S
H550 C544 0.930 . S
H551 C547 0.930 . S
C552 N553 1.314 . S
C552 C554 1.353 . S
C552 H558 0.930 . S
N553 Li529 1.990 . S
N553 C552 1.314 . S
N553 C556 1.279 . S
C554 C552 1.353 . S
C554 C557 1.348 . S
C554 H602 0.929 . S
C555 C556 1.358 . S
C555 C557 1.356 . S
C555 H603 0.930 . S
C556 N553 1.279 . S
C556 C555 1.358 . S
C556 H559 0.930 . S
C557 C554 1.348 . S
C557 C555 1.356 . S
H558 C552 0.930 . S
H559 C556 0.930 . S
C560 C562 1.348 . S
C560 C563 1.356 . S
C560 O590 1.325 . S
N561 C564 1.314 . S
N561 C565 1.279 . S
C562 C560 1.348 . S
C562 C564 1.353 . S
C562 H604 0.929 . S
C563 C560 1.356 . S
C563 C565 1.358 . S
C563 H605 0.930 . S
C564 N561 1.314 . S
C564 C562 1.353 . S
C564 H606 0.930 . S
C565 N561 1.279 . S
C565 C563 1.358 . S
C565 H607 0.930 . S
C566 C567 1.348 . S
C566 C568 1.356 . S
C566 O591 1.325 . S
C567 C566 1.348 . S
C567 C569 1.353 . S
C567 H608 0.929 . S
C568 C566 1.356 . S
C568 C570 1.358 . S
C568 H609 0.930 . S
C569 C567 1.353 . S
C569 N571 1.314 . S
C569 H610 0.930 . S
C570 C568 1.358 . S
C570 N571 1.279 . S
C570 H611 0.930 . S
N571 C569 1.314 . S
N571 C570 1.279 . S
C572 C574 1.353 . S
C572 N575 1.314 . S
C572 H578 0.930 . S
C573 N575 1.279 . S
C573 C576 1.358 . S
C573 H579 0.930 . S
C574 C572 1.353 . S
C574 C577 1.348 . S
C574 H612 0.929 . S
N575 Li530 1.990 . S
N575 C572 1.314 . S
N575 C573 1.279 . S
C576 C573 1.358 . S
C576 C577 1.356 . S
C576 H613 0.930 . S
C577 C574 1.348 . S
C577 C576 1.356 . S
H578 C572 0.930 . S
H579 C573 0.930 . S
C580 N581 1.314 . S
C580 C582 1.353 . S
C580 H586 0.930 . S
N581 Li531 1.990 . S
N581 C580 1.314 . S
N581 C584 1.279 . S
C582 C580 1.353 . S
C582 C585 1.348 . S
C582 H614 0.929 . S
C583 C584 1.358 . S
C583 C585 1.356 . S
C583 H615 0.930 . S
C584 N581 1.279 . S
C584 C583 1.358 . S
C584 H587 0.930 . S
C585 C582 1.348 . S
C585 C583 1.356 . S
H586 C580 0.930 . S
H587 C584 0.930 . S
O588 Li528 1.956 . S
O588 Li529 1.970 . S
O588 Li530 1.961 . S
O588 C532 1.325 . S
O589 Li528 1.970 . S
O589 Li529 1.956 . S
O589 Li531 1.961 . S
O589 C538 1.325 . S
O590 Li528 1.961 . S
O590 Li530 1.956 . S
O590 Li531 1.970 . S
O590 C560 1.325 . S
O591 Li529 1.961 . S
O591 Li530 1.970 . S
O591 Li531 1.956 . S
O591 C566 1.325 . S
H592 C534 0.929 . S
H593 C535 0.930 . S
H594 C536 0.930 . S
H595 C537 0.930 . S
H596 C539 0.930 . S
H597 C541 0.929 . S
H598 C542 0.930 . S
H599 C543 0.930 . S
H600 C546 0.930 . S
H601 C549 0.929 . S
H602 C554 0.929 . S
H603 C555 0.930 . S
H604 C562 0.929 . S
H605 C563 0.930 . S
H606 C564 0.930 . S
H607 C565 0.930 . S
H608 C567 0.929 . S
H609 C568 0.930 . S
H610 C569 0.930 . S
H611 C570 0.930 . S
H612 C574 0.929 . S
H613 C576 0.930 . S
H614 C582 0.929 . S
H615 C583 0.930 . S
Li616 N633 1.990 . S
Li616 O676 1.956 1_455 S
Li616 O677 1.970 . S
Li616 O678 1.961 . S
Li617 N641 1.990 . S
Li617 O676 1.970 . S
Li617 O677 1.956 1_655 S
Li617 O679 1.961 . S
Li618 N663 1.993 . S
Li618 O676 1.959 . S
Li618 O678 1.958 1_655 S
Li618 O679 1.970 . S
Li619 N669 1.990 . S
Li619 O677 1.961 . S
Li619 O678 1.970 . S
Li619 O679 1.956 1_455 S
C620 C622 1.348 . S
C620 C623 1.356 . S
C620 O676 1.325 . S
N621 C624 1.314 . S
N621 C625 1.279 . S
C622 C620 1.348 . S
C622 C624 1.353 . S
C622 H680 0.929 . S
C623 C620 1.356 . S
C623 C625 1.358 . S
C623 H681 0.930 . S
C624 N621 1.314 . S
C624 C622 1.353 . S
C624 H682 0.930 . S
C625 N621 1.279 . S
C625 C623 1.358 . S
C625 H683 0.930 . S
C626 C629 1.348 1_455 S
C626 C630 1.356 . S
C626 O677 1.325 . S
C627 N628 1.279 . S
C627 C630 1.358 . S
C627 H684 0.930 . S
N628 C627 1.279 . S
N628 C631 1.296 1_455 S
C629 C626 1.348 1_655 S
C629 C631 1.352 . S
C629 H685 0.929 . S
C630 C626 1.356 . S
C630 C627 1.358 . S
C630 H686 0.930 . S
C631 N628 1.296 1_655 S
C631 C629 1.352 . S
C631 H687 0.960 . S
C632 N633 1.314 . S
C632 C637 1.353 . S
C632 H638 0.930 . S
N633 Li616 1.990 . S
N633 C632 1.314 . S
N633 C635 1.279 1_455 S
C634 C635 1.358 . S
C634 C636 1.356 1_655 S
C634 H688 0.930 . S
C635 N633 1.279 1_655 S
C635 C634 1.358 . S
C635 H639 0.930 . S
C636 C634 1.356 1_455 S
C636 C637 1.348 . S
C637 C632 1.353 . S
C637 C636 1.348 . S
C637 H689 0.929 . S
H638 C632 0.930 . S
H639 C635 0.930 . S
C640 N641 1.314 . S
C640 C642 1.353 . S
C640 H646 0.930 . S
N641 Li617 1.990 . S
N641 C640 1.314 . S
N641 C644 1.279 . S
C642 C640 1.353 . S
C642 C645 1.348 . S
C642 H690 0.929 . S
C643 C644 1.358 . S
C643 C645 1.356 . S
C643 H691 0.930 . S
C644 N641 1.279 . S
C644 C643 1.358 . S
C644 H647 0.930 . S
C645 C642 1.348 . S
C645 C643 1.356 . S
H646 C640 0.930 . S
H647 C644 0.930 . S
C648 C650 1.348 . S
C648 C651 1.356 . S
C648 O678 1.325 . S
N649 C652 1.314 . S
N649 C653 1.279 . S
C650 C648 1.348 . S
C650 C652 1.353 . S
C650 H692 0.929 . S
C651 C648 1.356 . S
C651 C653 1.358 . S
C651 H693 0.930 . S
C652 N649 1.314 . S
C652 C650 1.353 . S
C652 H694 0.930 . S
C653 N649 1.279 . S
C653 C651 1.358 . S
C653 H695 0.930 . S
C654 C655 1.363 . S
C654 C656 1.356 . S
C654 O679 1.325 . S
C655 C654 1.363 . S
C655 C657 1.350 . S
C655 H696 0.919 1_655 S
C656 C654 1.356 . S
C656 C658 1.358 . S
C656 H697 0.930 . S
C657 C655 1.350 . S
C657 N659 1.314 . S
C657 H698 0.937 . S
C658 C656 1.358 . S
C658 N659 1.279 . S
C658 H699 0.930 . S
N659 C657 1.314 . S
N659 C658 1.279 . S
C660 C662 1.353 . S
C660 N663 1.342 . S
C660 H666 0.930 . S
C661 N663 1.251 1_455 S
C661 C664 1.358 . S
C661 H667 0.930 . S
C662 C660 1.353 . S
C662 C665 1.348 . S
C662 H700 0.929 . S
N663 Li618 1.993 . S
N663 C660 1.342 . S
N663 C661 1.251 1_655 S
C664 C661 1.358 . S
C664 C665 1.356 1_455 S
C664 H701 0.930 . S
C665 C662 1.348 . S
C665 C664 1.356 1_655 S
H666 C660 0.930 . S
H667 C661 0.930 . S
C668 N669 1.314 . S
C668 C670 1.353 . S
C668 H674 0.930 . S
N669 Li619 1.990 . S
N669 C668 1.314 . S
N669 C672 1.279 . S
C670 C668 1.353 . S
C670 C673 1.348 . S
C670 H702 0.929 . S
C671 C672 1.358 . S
C671 C673 1.356 . S
C671 H703 0.930 . S
C672 N669 1.279 . S
C672 C671 1.358 . S
C672 H675 0.930 . S
C673 C670 1.348 . S
C673 C671 1.356 . S
H674 C668 0.930 . S
H675 C672 0.930 . S
O676 Li616 1.956 1_655 S
O676 Li617 1.970 . S
O676 Li618 1.959 . S
O676 C620 1.325 . S
O677 Li616 1.970 . S
O677 Li617 1.956 1_455 S
O677 Li619 1.961 . S
O677 C626 1.325 . S
O678 Li616 1.961 . S
O678 Li618 1.958 1_455 S
O678 Li619 1.970 . S
O678 C648 1.325 . S
O679 Li617 1.961 . S
O679 Li618 1.970 . S
O679 Li619 1.956 1_655 S
O679 C654 1.325 . S
H680 C622 0.929 . S
H681 C623 0.930 . S
H682 C624 0.930 . S
H683 C625 0.930 . S
H684 C627 0.930 . S
H685 C629 0.929 . S
H686 C630 0.930 . S
H687 C631 0.960 . S
H688 C634 0.930 . S
H689 C637 0.929 . S
H690 C642 0.929 . S
H691 C643 0.930 . S
H692 C650 0.929 . S
H693 C651 0.930 . S
H694 C652 0.930 . S
H695 C653 0.930 . S
H696 C655 0.919 1_455 S
H697 C656 0.930 . S
H698 C657 0.937 . S
H699 C658 0.930 . S
H700 C662 0.929 . S
H701 C664 0.930 . S
H702 C670 0.929 . S
H703 C671 0.930 . S
Li704 N721 1.990 . S
Li704 O764 1.956 1_545 S
Li704 O765 1.970 . S
Li704 O766 1.961 . S
Li705 N729 1.990 . S
Li705 O764 1.970 . S
Li705 O765 1.956 1_565 S
Li705 O767 1.961 1_565 S
Li706 N751 1.990 . S
Li706 O764 1.961 1_545 S
Li706 O766 1.956 . S
Li706 O767 1.970 . S
Li707 N757 1.990 . S
Li707 O765 1.961 . S
Li707 O766 1.970 . S
Li707 O767 1.956 . S
C708 C710 1.348 . S
C708 C711 1.356 . S
C708 O764 1.325 . S
N709 C712 1.314 . S
N709 C713 1.279 . S
C710 C708 1.348 . S
C710 C712 1.353 . S
C710 H768 0.929 . S
C711 C708 1.356 . S
C711 C713 1.358 . S
C711 H769 0.930 . S
C712 N709 1.314 . S
C712 C710 1.353 . S
C712 H770 0.930 . S
C713 N709 1.279 . S
C713 C711 1.358 . S
C713 H771 0.930 . S
C714 C717 1.348 . S
C714 C718 1.356 . S
C714 O765 1.325 . S
C715 N716 1.279 . S
C715 C718 1.358 . S
C715 H772 0.930 . S
N716 C715 1.279 . S
N716 C719 1.314 . S
C717 C714 1.348 . S
C717 C719 1.353 . S
C717 H773 0.961 . S
C718 C714 1.356 . S
C718 C715 1.358 . S
C718 H774 0.930 . S
C719 N716 1.314 . S
C719 C717 1.353 . S
C719 H775 0.945 . S
C720 N721 1.314 . S
C720 C725 1.353 . S
C720 H726 0.930 . S
N721 Li704 1.990 . S
N721 C720 1.314 . S
N721 C723 1.296 . S
C722 C723 1.357 . S
C722 C724 1.356 . S
C722 H776 0.930 1_545 S
C723 N721 1.296 . S
C723 C722 1.357 . S
C723 H727 0.914 1_545 S
C724 C722 1.356 . S
C724 C725 1.348 . S
C725 C720 1.353 . S
C725 C724 1.348 . S
C725 H777 0.929 . S
H726 C720 0.930 . S
H727 C723 0.914 1_565 S
C728 N729 1.314 . S
C728 C730 1.353 . S
C728 H734 0.930 . S
N729 Li705 1.990 . S
N729 C728 1.314 . S
N729 C732 1.279 . S
C730 C728 1.353 . S
C730 C733 1.348 . S
C730 H778 0.929 . S
C731 C732 1.358 . S
C731 C733 1.356 . S
C731 H779 0.930 . S
C732 N729 1.279 . S
C732 C731 1.358 . S
C732 H735 0.930 . S
C733 C730 1.348 . S
C733 C731 1.356 . S
H734 C728 0.930 . S
H735 C732 0.930 . S
C736 C738 1.348 . S
C736 C739 1.356 . S
C736 O766 1.325 . S
N737 C740 1.314 . S
N737 C741 1.279 . S
C738 C736 1.348 . S
C738 C740 1.353 . S
C738 H780 0.929 . S
C739 C736 1.356 . S
C739 C741 1.358 . S
C739 H781 0.930 . S
C740 N737 1.314 . S
C740 C738 1.353 . S
C740 H782 0.930 . S
C741 N737 1.279 . S
C741 C739 1.358 . S
C741 H783 0.930 . S
C742 C743 1.348 . S
C742 C744 1.356 1_545 S
C742 O767 1.325 . S
C743 C742 1.348 . S
C743 C745 1.353 . S
C743 H784 0.929 . S
C744 C742 1.356 1_565 S
C744 C746 1.358 . S
C744 H785 0.930 . S
C745 C743 1.353 . S
C745 N747 1.315 . S
C745 H786 0.930 . S
C746 C744 1.358 . S
C746 N747 1.277 1_565 S
C746 H787 0.930 . S
N747 C745 1.315 . S
N747 C746 1.277 1_545 S
C748 C750 1.353 . S
C748 N751 1.314 1_565 S
C748 H754 0.930 . S
C749 N751 1.279 . S
C749 C752 1.358 . S
C749 H755 0.930 . S
C750 C748 1.353 . S
C750 C753 1.348 1_565 S
C750 H788 0.929 . S
N751 Li706 1.990 . S
N751 C748 1.314 1_545 S
N751 C749 1.279 . S
C752 C749 1.358 . S
C752 C753 1.356 . S
C752 H789 0.930 . S
C753 C750 1.348 1_545 S
C753 C752 1.356 . S
H754 C748 0.930 . S
H755 C749 0.930 . S
C756 N757 1.314 . S
C756 C758 1.353 . S
C756 H762 0.930 . S
N757 Li707 1.990 . S
N757 C756 1.314 . S
N757 C760 1.279 . S
C758 C756 1.353 . S
C758 C761 1.348 . S
C758 H790 0.929 . S
C759 C760 1.358 . S
C759 C761 1.356 . S
C759 H791 0.930 . S
C760 N757 1.279 . S
C760 C759 1.358 . S
C760 H763 0.930 . S
C761 C758 1.348 . S
C761 C759 1.356 . S
H762 C756 0.930 . S
H763 C760 0.930 . S
O764 Li704 1.956 1_565 S
O764 Li705 1.970 . S
O764 Li706 1.961 1_565 S
O764 C708 1.325 . S
O765 Li704 1.970 . S
O765 Li705 1.956 1_545 S
O765 Li707 1.961 . S
O765 C714 1.325 . S
O766 Li704 1.961 . S
O766 Li706 1.956 . S
O766 Li707 1.970 . S
O766 C736 1.325 . S
O767 Li705 1.961 1_545 S
O767 Li706 1.970 . S
O767 Li707 1.956 . S
O767 C742 1.325 . S
H768 C710 0.929 . S
H769 C711 0.930 . S
H770 C712 0.930 . S
H771 C713 0.930 . S
H772 C715 0.930 . S
H773 C717 0.961 . S
H774 C718 0.930 . S
H775 C719 0.945 . S
H776 C722 0.930 1_565 S
H777 C725 0.929 . S
H778 C730 0.929 . S
H779 C731 0.930 . S
H780 C738 0.929 . S
H781 C739 0.930 . S
H782 C740 0.930 . S
H783 C741 0.930 . S
H784 C743 0.929 . S
H785 C744 0.930 . S
H786 C745 0.930 . S
H787 C746 0.930 . S
H788 C750 0.929 . S
H789 C752 0.930 . S
H790 C758 0.929 . S
H791 C759 0.930 . S
Li792 N809 1.990 . S
Li792 O852 1.956 . S
Li792 O853 1.970 . S
Li792 O854 1.961 . S
Li793 N817 1.990 . S
Li793 O852 1.970 . S
Li793 O853 1.956 . S
Li793 O855 1.961 . S
Li794 N839 1.990 . S
Li794 O852 1.961 . S
Li794 O854 1.956 . S
Li794 O855 1.970 . S
Li795 N845 1.990 . S
Li795 O853 1.961 . S
Li795 O854 1.970 . S
Li795 O855 1.956 . S
C796 C798 1.348 . S
C796 C799 1.356 . S
C796 O852 1.325 . S
N797 C800 1.314 . S
N797 C801 1.279 . S
C798 C796 1.348 . S
C798 C800 1.353 . S
C798 H856 0.929 . S
C799 C796 1.356 . S
C799 C801 1.358 . S
C799 H857 0.930 . S
C800 N797 1.314 . S
C800 C798 1.353 . S
C800 H858 0.930 . S
C801 N797 1.279 . S
C801 C799 1.358 . S
C801 H859 0.930 . S
C802 C805 1.348 . S
C802 C806 1.356 . S
C802 O853 1.325 . S
C803 N804 1.279 . S
C803 C806 1.358 . S
C803 H860 0.930 . S
N804 C803 1.279 . S
N804 C807 1.314 . S
C805 C802 1.348 . S
C805 C807 1.353 . S
C805 H861 0.929 . S
C806 C802 1.356 . S
C806 C803 1.358 . S
C806 H862 0.930 . S
C807 N804 1.314 . S
C807 C805 1.353 . S
C807 H863 0.930 . S
C808 N809 1.314 . S
C808 C813 1.353 . S
C808 H814 0.930 . S
N809 Li792 1.990 . S
N809 C808 1.314 . S
N809 C811 1.279 . S
C810 C811 1.358 . S
C810 C812 1.356 . S
C810 H864 0.930 . S
C811 N809 1.279 . S
C811 C810 1.358 . S
C811 H815 0.930 . S
C812 C810 1.356 . S
C812 C813 1.348 . S
C813 C808 1.353 . S
C813 C812 1.348 . S
C813 H865 0.929 . S
H814 C808 0.930 . S
H815 C811 0.930 . S
C816 N817 1.314 . S
C816 C818 1.353 . S
C816 H822 0.930 . S
N817 Li793 1.990 . S
N817 C816 1.314 . S
N817 C820 1.279 . S
C818 C816 1.353 . S
C818 C821 1.348 . S
C818 H866 0.929 . S
C819 C820 1.358 . S
C819 C821 1.356 . S
C819 H867 0.930 . S
C820 N817 1.279 . S
C820 C819 1.358 . S
C820 H823 0.930 . S
C821 C818 1.348 . S
C821 C819 1.356 . S
H822 C816 0.930 . S
H823 C820 0.930 . S
C824 C826 1.348 . S
C824 C827 1.356 . S
C824 O854 1.325 . S
N825 C828 1.314 . S
N825 C829 1.279 . S
C826 C824 1.348 . S
C826 C828 1.353 . S
C826 H868 0.929 . S
C827 C824 1.356 . S
C827 C829 1.358 . S
C827 H869 0.930 . S
C828 N825 1.314 . S
C828 C826 1.353 . S
C828 H870 0.930 . S
C829 N825 1.279 . S
C829 C827 1.358 . S
C829 H871 0.930 . S
C830 C831 1.348 . S
C830 C832 1.356 . S
C830 O855 1.325 . S
C831 C830 1.348 . S
C831 C833 1.353 . S
C831 H872 0.929 . S
C832 C830 1.356 . S
C832 C834 1.358 . S
C832 H873 0.930 . S
C833 C831 1.353 . S
C833 N835 1.314 . S
C833 H874 0.930 . S
C834 C832 1.358 . S
C834 N835 1.279 . S
C834 H875 0.930 . S
N835 C833 1.314 . S
N835 C834 1.279 . S
C836 C838 1.353 . S
C836 N839 1.314 . S
C836 H842 0.930 . S
C837 N839 1.279 . S
C837 C840 1.358 . S
C837 H843 0.930 . S
C838 C836 1.353 . S
C838 C841 1.348 . S
C838 H876 0.929 . S
N839 Li794 1.990 . S
N839 C836 1.314 . S
N839 C837 1.279 . S
C840 C837 1.358 . S
C840 C841 1.356 . S
C840 H877 0.930 . S
C841 C838 1.348 . S
C841 C840 1.356 . S
H842 C836 0.930 . S
H843 C837 0.930 . S
C844 N845 1.314 . S
C844 C846 1.353 . S
C844 H850 0.930 . S
N845 Li795 1.990 . S
N845 C844 1.314 . S
N845 C848 1.279 . S
C846 C844 1.353 . S
C846 C849 1.348 . S
C846 H878 0.929 . S
C847 C848 1.358 . S
C847 C849 1.356 . S
C847 H879 0.930 . S
C848 N845 1.279 . S
C848 C847 1.358 . S
C848 H851 0.930 . S
C849 C846 1.348 . S
C849 C847 1.356 . S
H850 C844 0.930 . S
H851 C848 0.930 . S
O852 Li792 1.956 . S
O852 Li793 1.970 . S
O852 Li794 1.961 . S
O852 C796 1.325 . S
O853 Li792 1.970 . S
O853 Li793 1.956 . S
O853 Li795 1.961 . S
O853 C802 1.325 . S
O854 Li792 1.961 . S
O854 Li794 1.956 . S
O854 Li795 1.970 . S
O854 C824 1.325 . S
O855 Li793 1.961 . S
O855 Li794 1.970 . S
O855 Li795 1.956 . S
O855 C830 1.325 . S
H856 C798 0.929 . S
H857 C799 0.930 . S
H858 C800 0.930 . S
H859 C801 0.930 . S
H860 C803 0.930 . S
H861 C805 0.929 . S
H862 C806 0.930 . S
H863 C807 0.930 . S
H864 C810 0.930 . S
H865 C813 0.929 . S
H866 C818 0.929 . S
H867 C819 0.930 . S
H868 C826 0.929 . S
H869 C827 0.930 . S
H870 C828 0.930 . S
H871 C829 0.930 . S
H872 C831 0.929 . S
H873 C832 0.930 . S
H874 C833 0.930 . S
H875 C834 0.930 . S
H876 C838 0.929 . S
H877 C840 0.930 . S
H878 C846 0.929 . S
H879 C847 0.930 . S
Li880 N897 1.990 . S
Li880 O940 1.956 . S
Li880 O941 1.970 . S
Li880 O942 1.961 . S
Li881 N905 1.990 . S
Li881 O940 1.970 . S
Li881 O941 1.956 . S
Li881 O943 1.961 . S
Li882 N927 1.990 1_545 S
Li882 O940 1.961 . S
Li882 O942 1.956 . S
Li882 O943 1.970 . S
Li883 N933 1.990 . S
Li883 O941 1.961 . S
Li883 O942 1.970 . S
Li883 O943 1.956 . S
C884 C886 1.348 . S
C884 C887 1.356 . S
C884 O940 1.325 . S
N885 C888 1.314 . S
N885 C889 1.279 . S
C886 C884 1.348 . S
C886 C888 1.353 . S
C886 H944 0.929 . S
C887 C884 1.356 . S
C887 C889 1.358 . S
C887 H945 0.930 . S
C888 N885 1.314 . S
C888 C886 1.353 . S
C888 H946 0.930 . S
C889 N885 1.279 . S
C889 C887 1.358 . S
C889 H947 0.930 . S
C890 C893 1.348 . S
C890 C894 1.356 . S
C890 O941 1.325 . S
C891 N892 1.279 . S
C891 C894 1.358 . S
C891 H948 0.930 . S
N892 C891 1.279 . S
N892 C895 1.314 . S
C893 C890 1.348 . S
C893 C895 1.353 . S
C893 H949 0.929 . S
C894 C890 1.356 . S
C894 C891 1.358 . S
C894 H950 0.930 . S
C895 N892 1.314 . S
C895 C893 1.353 . S
C895 H951 0.930 . S
C896 N897 1.314 . S
C896 C901 1.353 . S
C896 H902 0.930 . S
N897 Li880 1.990 . S
N897 C896 1.314 . S
N897 C899 1.279 . S
C898 C899 1.358 . S
C898 C900 1.356 . S
C898 H952 0.930 . S
C899 N897 1.279 . S
C899 C898 1.358 . S
C899 H903 0.930 . S
C900 C898 1.356 . S
C900 C901 1.348 . S
C901 C896 1.353 . S
C901 C900 1.348 . S
C901 H953 0.929 . S
H902 C896 0.930 . S
H903 C899 0.930 . S
C904 N905 1.314 . S
C904 C906 1.353 . S
C904 H910 0.930 . S
N905 Li881 1.990 . S
N905 C904 1.314 . S
N905 C908 1.279 . S
C906 C904 1.353 . S
C906 C909 1.348 . S
C906 H954 0.992 . S
C907 C908 1.358 . S
C907 C909 1.356 . S
C907 H955 0.930 . S
C908 N905 1.279 . S
C908 C907 1.358 . S
C908 H911 0.930 . S
C909 C906 1.348 . S
C909 C907 1.356 . S
H910 C904 0.930 . S
H911 C908 0.930 . S
C912 C914 1.348 . S
C912 C915 1.356 . S
C912 O942 1.325 . S
N913 C916 1.314 . S
N913 C917 1.279 . S
C914 C912 1.348 . S
C914 C916 1.353 . S
C914 H956 0.929 . S
C915 C912 1.356 . S
C915 C917 1.358 . S
C915 H957 0.930 . S
C916 N913 1.314 . S
C916 C914 1.353 . S
C916 H958 0.930 . S
C917 N913 1.279 . S
C917 C915 1.358 . S
C917 H959 0.930 . S
C918 C919 1.348 . S
C918 C920 1.356 . S
C918 O943 1.325 1_565 S
C919 C918 1.348 . S
C919 C921 1.353 . S
C919 H960 0.929 . S
C920 C918 1.356 . S
C920 C922 1.358 . S
C920 H961 0.860 1_565 S
C921 C919 1.353 . S
C921 N923 1.314 . S
C921 H962 0.930 . S
C922 C920 1.358 . S
C922 N923 1.279 . S
C922 H963 0.930 . S
N923 C921 1.314 . S
N923 C922 1.279 . S
C924 C926 1.353 . S
C924 N927 1.314 . S
C924 H930 0.930 . S
C925 N927 1.279 . S
C925 C928 1.358 . S
C925 H931 0.930 . S
C926 C924 1.353 . S
C926 C929 1.348 . S
C926 H964 0.929 . S
N927 Li882 1.990 1_565 S
N927 C924 1.314 . S
N927 C925 1.279 . S
C928 C925 1.358 . S
C928 C929 1.356 . S
C928 H965 0.930 . S
C929 C926 1.348 . S
C929 C928 1.356 . S
H930 C924 0.930 . S
H931 C925 0.930 . S
C932 N933 1.314 . S
C932 C934 1.353 . S
C932 H938 0.930 . S
N933 Li883 1.990 . S
N933 C932 1.314 . S
N933 C936 1.279 . S
C934 C932 1.353 . S
C934 C937 1.348 . S
C934 H966 0.929 . S
C935 C936 1.358 . S
C935 C937 1.356 . S
C935 H967 0.930 1_545 S
C936 N933 1.279 . S
C936 C935 1.358 . S
C936 H939 0.930 1_545 S
C937 C934 1.348 . S
C937 C935 1.356 . S
H938 C932 0.930 . S
H939 C936 0.930 1_565 S
O940 Li880 1.956 . S
O940 Li881 1.970 . S
O940 Li882 1.961 . S
O940 C884 1.325 . S
O941 Li880 1.970 . S
O941 Li881 1.956 . S
O941 Li883 1.961 . S
O941 C890 1.325 . S
O942 Li880 1.961 . S
O942 Li882 1.956 . S
O942 Li883 1.970 . S
O942 C912 1.325 . S
O943 Li881 1.961 . S
O943 Li882 1.970 . S
O943 Li883 1.956 . S
O943 C918 1.325 1_545 S
H944 C886 0.929 . S
H945 C887 0.930 . S
H946 C888 0.930 . S
H947 C889 0.930 . S
H948 C891 0.930 . S
H949 C893 0.929 . S
H950 C894 0.930 . S
H951 C895 0.930 . S
H952 C898 0.930 . S
H953 C901 0.929 . S
H954 C906 0.992 . S
H955 C907 0.930 . S
H956 C914 0.929 . S
H957 C915 0.930 . S
H958 C916 0.930 . S
H959 C917 0.930 . S
H960 C919 0.929 . S
H961 C920 0.860 1_545 S
H962 C921 0.930 . S
H963 C922 0.930 . S
H964 C926 0.929 . S
H965 C928 0.930 . S
H966 C934 0.929 . S
H967 C935 0.930 1_565 S
Li968 N985 1.990 . S
Li968 O1028 1.980 . S
Li968 O1029 1.971 1_554 S
Li968 O1030 1.934 1_554 S
Li969 N993 1.990 . S
Li969 O1028 1.970 . S
Li969 O1029 1.956 1_554 S
Li969 O1031 1.995 . S
Li970 N1015 1.990 . S
Li970 O1028 1.961 . S
Li970 O1030 1.956 1_554 S
Li970 O1031 1.967 . S
Li971 N1021 1.990 . S
Li971 O1029 1.961 . S
Li971 O1030 1.970 . S
Li971 O1031 1.924 1_556 S
C972 C974 1.348 . S
C972 C975 1.356 . S
C972 O1028 1.325 . S
N973 C976 1.314 . S
N973 C977 1.279 . S
C974 C972 1.348 . S
C974 C976 1.353 . S
C974 H1032 0.929 . S
C975 C972 1.356 . S
C975 C977 1.358 . S
C975 H1033 0.930 . S
C976 N973 1.314 . S
C976 C974 1.353 . S
C976 H1034 0.930 . S
C977 N973 1.279 . S
C977 C975 1.358 . S
C977 H1035 0.930 . S
C978 C981 1.348 1_556 S
C978 C982 1.356 . S
C978 O1029 1.325 . S
C979 N980 1.279 . S
C979 C982 1.358 . S
C979 H1036 0.930 . S
N980 C979 1.279 . S
N980 C983 1.315 . S
C981 C978 1.348 1_554 S
C981 C983 1.353 1_554 S
C981 H1037 0.929 . S
C982 C978 1.356 . S
C982 C979 1.358 . S
C982 H1038 0.930 . S
C983 N980 1.315 . S
C983 C981 1.353 1_556 S
C983 H1039 0.929 1_556 S
C984 N985 1.271 1_556 S
C984 C989 1.353 . S
C984 H990 0.930 . S
N985 Li968 1.990 . S
N985 C984 1.271 1_554 S
N985 C987 1.324 . S
C986 C987 1.358 . S
C986 C988 1.348 1_554 S
C986 H1040 0.930 . S
C987 N985 1.324 . S
C987 C986 1.358 . S
C987 H991 0.930 . S
C988 C986 1.348 1_556 S
C988 C989 1.356 . S
C989 C984 1.353 . S
C989 C988 1.356 . S
C989 H1041 0.929 . S
H990 C984 0.930 . S
H991 C987 0.930 . S
C992 N993 1.314 . S
C992 C994 1.353 . S
C992 H998 0.930 . S
N993 Li969 1.990 . S
N993 C992 1.314 . S
N993 C996 1.279 . S
C994 C992 1.353 . S
C994 C997 1.348 . S
C994 H1042 0.929 . S
C995 C996 1.358 . S
C995 C997 1.356 . S
C995 H1043 0.930 . S
C996 N993 1.279 . S
C996 C995 1.358 . S
C996 H999 0.930 . S
C997 C994 1.348 . S
C997 C995 1.356 . S
H998 C992 0.930 . S
H999 C996 0.930 . S
C1000 C1002 1.348 . S
C1000 C1003 1.356 . S
C1000 O1030 1.325 . S
N1001 C1004 1.314 . S
N1001 C1005 1.279 . S
C1002 C1000 1.348 . S
C1002 C1004 1.353 . S
C1002 H1044 0.929 . S
C1003 C1000 1.356 . S
C1003 C1005 1.358 . S
C1003 H1045 0.930 . S
C1004 N1001 1.314 . S
C1004 C1002 1.353 . S
C1004 H1046 0.930 . S
C1005 N1001 1.279 . S
C1005 C1003 1.358 . S
C1005 H1047 0.930 . S
C1006 C1007 1.341 1_554 S
C1006 C1008 1.360 . S
C1006 O1031 1.324 . S
C1007 C1006 1.341 1_556 S
C1007 C1009 1.353 . S
C1007 H1048 0.929 . S
C1008 C1006 1.360 . S
C1008 C1010 1.358 . S
C1008 H1049 0.930 . S
C1009 C1007 1.353 . S
C1009 N1011 1.333 . S
C1009 H1050 0.930 . S
C1010 C1008 1.358 . S
C1010 N1011 1.261 1_554 S
C1010 H1051 0.930 . S
N1011 C1009 1.333 . S
N1011 C1010 1.261 1_556 S
C1012 C1014 1.353 . S
C1012 N1015 1.314 . S
C1012 H1018 0.930 . S
C1013 N1015 1.279 1_556 S
C1013 C1016 1.358 . S
C1013 H1019 0.930 . S
C1014 C1012 1.353 . S
C1014 C1017 1.348 . S
C1014 H1052 0.929 . S
N1015 Li970 1.990 . S
N1015 C1012 1.314 . S
N1015 C1013 1.279 1_554 S
C1016 C1013 1.358 . S
C1016 C1017 1.356 1_556 S
C1016 H1053 0.930 . S
C1017 C1014 1.348 . S
C1017 C1016 1.356 1_554 S
H1018 C1012 0.930 . S
H1019 C1013 0.930 . S
C1020 N1021 1.314 . S
C1020 C1022 1.353 . S
C1020 H1026 0.930 . S
N1021 Li971 1.990 . S
N1021 C1020 1.314 . S
N1021 C1024 1.279 . S
C1022 C1020 1.353 . S
C1022 C1025 1.348 . S
C1022 H1054 0.929 . S
C1023 C1024 1.358 . S
C1023 C1025 1.356 . S
C1023 H1055 0.930 . S
C1024 N1021 1.279 . S
C1024 C1023 1.358 . S
C1024 H1027 0.930 . S
C1025 C1022 1.348 . S
C1025 C1023 1.356 . S
H1026 C1020 0.930 . S
H1027 C1024 0.930 . S
O1028 Li968 1.980 . S
O1028 Li969 1.970 . S
O1028 Li970 1.961 . S
O1028 C972 1.325 . S
O1029 Li968 1.971 1_556 S
O1029 Li969 1.956 1_556 S
O1029 Li971 1.961 . S
O1029 C978 1.325 . S
O1030 Li968 1.934 1_556 S
O1030 Li970 1.956 1_556 S
O1030 Li971 1.970 . S
O1030 C1000 1.325 . S
O1031 Li969 1.995 . S
O1031 Li970 1.967 . S
O1031 Li971 1.924 1_554 S
O1031 C1006 1.324 . S
H1032 C974 0.929 . S
H1033 C975 0.930 . S
H1034 C976 0.930 . S
H1035 C977 0.930 . S
H1036 C979 0.930 . S
H1037 C981 0.929 . S
H1038 C982 0.930 . S
H1039 C983 0.929 1_554 S
H1040 C986 0.930 . S
H1041 C989 0.929 . S
H1042 C994 0.929 . S
H1043 C995 0.930 . S
H1044 C1002 0.929 . S
H1045 C1003 0.930 . S
H1046 C1004 0.930 . S
H1047 C1005 0.930 . S
H1048 C1007 0.929 . S
H1049 C1008 0.930 . S
H1050 C1009 0.930 . S
H1051 C1010 0.930 . S
H1052 C1014 0.929 . S
H1053 C1016 0.930 . S
H1054 C1022 0.929 . S
H1055 C1023 0.930 . S
Li1056 N1073 1.990 . S
Li1056 O1116 1.956 . S
Li1056 O1117 1.970 . S
Li1056 O1118 1.961 . S
Li1057 N1081 1.990 . S
Li1057 O1116 1.970 . S
Li1057 O1117 1.956 . S
Li1057 O1119 1.961 . S
Li1058 N1103 1.990 . S
Li1058 O1116 1.961 . S
Li1058 O1118 1.956 . S
Li1058 O1119 1.970 . S
Li1059 N1109 1.990 1_554 S
Li1059 O1117 1.961 . S
Li1059 O1118 1.970 . S
Li1059 O1119 1.956 . S
C1060 C1062 1.348 . S
C1060 C1063 1.356 . S
C1060 O1116 1.325 . S
N1061 C1064 1.314 . S
N1061 C1065 1.279 . S
C1062 C1060 1.348 . S
C1062 C1064 1.353 . S
C1062 H1120 0.929 . S
C1063 C1060 1.356 . S
C1063 C1065 1.358 . S
C1063 H1121 0.930 . S
C1064 N1061 1.314 . S
C1064 C1062 1.353 . S
C1064 H1122 0.930 . S
C1065 N1061 1.279 . S
C1065 C1063 1.358 . S
C1065 H1123 0.930 . S
C1066 C1069 1.348 . S
C1066 C1070 1.356 . S
C1066 O1117 1.325 . S
C1067 N1068 1.279 . S
C1067 C1070 1.358 . S
C1067 H1124 0.930 . S
N1068 C1067 1.279 . S
N1068 C1071 1.314 . S
C1069 C1066 1.348 . S
C1069 C1071 1.353 . S
C1069 H1125 0.929 . S
C1070 C1066 1.356 . S
C1070 C1067 1.358 . S
C1070 H1126 0.930 . S
C1071 N1068 1.314 . S
C1071 C1069 1.353 . S
C1071 H1127 0.930 . S
C1072 N1073 1.314 . S
C1072 C1077 1.353 . S
C1072 H1078 0.930 . S
N1073 Li1056 1.990 . S
N1073 C1072 1.314 . S
N1073 C1075 1.279 . S
C1074 C1075 1.358 . S
C1074 C1076 1.356 . S
C1074 H1128 0.930 . S
C1075 N1073 1.279 . S
C1075 C1074 1.358 . S
C1075 H1079 0.930 . S
C1076 C1074 1.356 . S
C1076 C1077 1.348 . S
C1077 C1072 1.353 . S
C1077 C1076 1.348 . S
C1077 H1129 0.929 . S
H1078 C1072 0.930 . S
H1079 C1075 0.930 . S
C1080 N1081 1.314 . S
C1080 C1082 1.353 . S
C1080 H1086 0.930 . S
N1081 Li1057 1.990 . S
N1081 C1080 1.314 . S
N1081 C1084 1.279 . S
C1082 C1080 1.353 . S
C1082 C1085 1.348 . S
C1082 H1130 0.929 . S
C1083 C1084 1.358 . S
C1083 C1085 1.356 . S
C1083 H1131 0.930 . S
C1084 N1081 1.279 . S
C1084 C1083 1.358 . S
C1084 H1087 0.930 . S
C1085 C1082 1.348 . S
C1085 C1083 1.356 . S
H1086 C1080 0.930 . S
H1087 C1084 0.930 . S
C1088 C1090 1.348 1_554 S
C1088 C1091 1.356 . S
C1088 O1118 1.325 . S
N1089 C1092 1.314 . S
N1089 C1093 1.279 . S
C1090 C1088 1.348 1_556 S
C1090 C1092 1.353 . S
C1090 H1132 0.929 . S
C1091 C1088 1.356 . S
C1091 C1093 1.358 1_554 S
C1091 H1133 0.930 . S
C1092 N1089 1.314 . S
C1092 C1090 1.353 . S
C1092 H1134 0.930 . S
C1093 N1089 1.279 . S
C1093 C1091 1.358 1_556 S
C1093 H1135 0.930 . S
C1094 C1095 1.348 . S
C1094 C1096 1.356 . S
C1094 O1119 1.325 . S
C1095 C1094 1.348 . S
C1095 C1097 1.353 . S
C1095 H1136 0.929 . S
C1096 C1094 1.356 . S
C1096 C1098 1.358 . S
C1096 H1137 0.930 . S
C1097 C1095 1.353 . S
C1097 N1099 1.314 . S
C1097 H1138 0.930 . S
C1098 C1096 1.358 . S
C1098 N1099 1.279 . S
C1098 H1139 0.930 . S
N1099 C1097 1.314 . S
N1099 C1098 1.279 . S
C1100 C1102 1.353 . S
C1100 N1103 1.314 . S
C1100 H1106 0.930 . S
C1101 N1103 1.279 . S
C1101 C1104 1.358 . S
C1101 H1107 0.930 . S
C1102 C1100 1.353 . S
C1102 C1105 1.348 . S
C1102 H1140 0.929 . S
N1103 Li1058 1.990 . S
N1103 C1100 1.314 . S
N1103 C1101 1.279 . S
C1104 C1101 1.358 . S
C1104 C1105 1.356 . S
C1104 H1141 0.930 . S
C1105 C1102 1.348 . S
C1105 C1104 1.356 . S
H1106 C1100 0.930 . S
H1107 C1101 0.930 . S
C1108 N1109 1.314 . S
C1108 C1110 1.353 . S
C1108 H1114 0.930 . S
N1109 Li1059 1.990 1_556 S
N1109 C1108 1.314 . S
N1109 C1112 1.279 . S
C1110 C1108 1.353 . S
C1110 C1113 1.348 . S
C1110 H1142 0.929 . S
C1111 C1112 1.358 . S
C1111 C1113 1.356 . S
C1111 H1143 0.930 . S
C1112 N1109 1.279 . S
C1112 C1111 1.358 . S
C1112 H1115 0.930 . S
C1113 C1110 1.348 . S
C1113 C1111 1.356 . S
H1114 C1108 0.930 . S
H1115 C1112 0.930 . S
O1116 Li1056 1.956 . S
O1116 Li1057 1.970 . S
O1116 Li1058 1.961 . S
O1116 C1060 1.325 . S
O1117 Li1056 1.970 . S
O1117 Li1057 1.956 . S
O1117 Li1059 1.961 . S
O1117 C1066 1.325 . S
O1118 Li1056 1.961 . S
O1118 Li1058 1.956 . S
O1118 Li1059 1.970 . S
O1118 C1088 1.325 . S
O1119 Li1057 1.961 . S
O1119 Li1058 1.970 . S
O1119 Li1059 1.956 . S
O1119 C1094 1.325 . S
H1120 C1062 0.929 . S
H1121 C1063 0.930 . S
H1122 C1064 0.930 . S
H1123 C1065 0.930 . S
H1124 C1067 0.930 . S
H1125 C1069 0.929 . S
H1126 C1070 0.930 . S
H1127 C1071 0.930 . S
H1128 C1074 0.930 . S
H1129 C1077 0.929 . S
H1130 C1082 0.929 . S
H1131 C1083 0.930 . S
H1132 C1090 0.929 . S
H1133 C1091 0.930 . S
H1134 C1092 0.930 . S
H1135 C1093 0.930 . S
H1136 C1095 0.929 . S
H1137 C1096 0.930 . S
H1138 C1097 0.930 . S
H1139 C1098 0.930 . S
H1140 C1102 0.929 . S
H1141 C1104 0.930 . S
H1142 C1110 0.929 . S
H1143 C1111 0.930 . S
Li1144 N1161 1.990 . S
Li1144 O1204 1.956 . S
Li1144 O1205 1.970 . S
Li1144 O1206 1.961 . S
Li1145 N1169 1.990 . S
Li1145 O1204 1.970 . S
Li1145 O1205 1.956 . S
Li1145 O1207 1.961 . S
Li1146 N1191 1.990 . S
Li1146 O1204 1.961 . S
Li1146 O1206 1.956 . S
Li1146 O1207 1.970 . S
Li1147 N1197 1.990 . S
Li1147 O1205 1.961 . S
Li1147 O1206 1.970 . S
Li1147 O1207 1.956 . S
C1148 C1150 1.348 . S
C1148 C1151 1.356 . S
C1148 O1204 1.325 . S
N1149 C1152 1.314 . S
N1149 C1153 1.279 . S
C1150 C1148 1.348 . S
C1150 C1152 1.353 . S
C1150 H1208 0.929 . S
C1151 C1148 1.356 . S
C1151 C1153 1.358 . S
C1151 H1209 0.930 . S
C1152 N1149 1.314 . S
C1152 C1150 1.353 . S
C1152 H1210 0.930 . S
C1153 N1149 1.279 . S
C1153 C1151 1.358 . S
C1153 H1211 0.930 . S
C1154 C1157 1.348 . S
C1154 C1158 1.356 . S
C1154 O1205 1.325 . S
C1155 N1156 1.279 . S
C1155 C1158 1.358 . S
C1155 H1212 0.930 . S
N1156 C1155 1.279 . S
N1156 C1159 1.314 . S
C1157 C1154 1.348 . S
C1157 C1159 1.353 . S
C1157 H1213 0.929 . S
C1158 C1154 1.356 . S
C1158 C1155 1.358 . S
C1158 H1214 0.930 . S
C1159 N1156 1.314 . S
C1159 C1157 1.353 . S
C1159 H1215 0.930 . S
C1160 N1161 1.314 . S
C1160 C1165 1.353 . S
C1160 H1166 0.930 . S
N1161 Li1144 1.990 . S
N1161 C1160 1.314 . S
N1161 C1163 1.279 . S
C1162 C1163 1.358 . S
C1162 C1164 1.356 . S
C1162 H1216 0.930 . S
C1163 N1161 1.279 . S
C1163 C1162 1.358 . S
C1163 H1167 0.930 . S
C1164 C1162 1.356 . S
C1164 C1165 1.348 . S
C1165 C1160 1.353 . S
C1165 C1164 1.348 . S
C1165 H1217 0.929 . S
H1166 C1160 0.930 . S
H1167 C1163 0.930 . S
C1168 N1169 1.314 . S
C1168 C1170 1.353 . S
C1168 H1174 0.930 . S
N1169 Li1145 1.990 . S
N1169 C1168 1.314 . S
N1169 C1172 1.279 . S
C1170 C1168 1.353 . S
C1170 C1173 1.348 . S
C1170 H1218 0.929 . S
C1171 C1172 1.358 . S
C1171 C1173 1.356 . S
C1171 H1219 0.930 . S
C1172 N1169 1.279 . S
C1172 C1171 1.358 . S
C1172 H1175 0.930 . S
C1173 C1170 1.348 . S
C1173 C1171 1.356 . S
H1174 C1168 0.930 . S
H1175 C1172 0.930 . S
C1176 C1178 1.348 . S
C1176 C1179 1.356 . S
C1176 O1206 1.325 . S
N1177 C1180 1.314 . S
N1177 C1181 1.279 . S
C1178 C1176 1.348 . S
C1178 C1180 1.353 . S
C1178 H1220 0.929 . S
C1179 C1176 1.356 . S
C1179 C1181 1.358 . S
C1179 H1221 0.930 . S
C1180 N1177 1.314 . S
C1180 C1178 1.353 . S
C1180 H1222 0.930 . S
C1181 N1177 1.279 . S
C1181 C1179 1.358 . S
C1181 H1223 0.930 . S
C1182 C1183 1.348 1_554 S
C1182 C1184 1.356 . S
C1182 O1207 1.325 . S
C1183 C1182 1.348 1_556 S
C1183 C1185 1.353 . S
C1183 H1224 0.929 . S
C1184 C1182 1.356 . S
C1184 C1186 1.358 1_554 S
C1184 H1225 0.930 . S
C1185 C1183 1.353 . S
C1185 N1187 1.314 . S
C1185 H1226 0.930 . S
C1186 C1184 1.358 1_556 S
C1186 N1187 1.279 . S
C1186 H1227 0.930 . S
N1187 C1185 1.314 . S
N1187 C1186 1.279 . S
C1188 C1190 1.353 . S
C1188 N1191 1.314 1_556 S
C1188 H1194 0.930 . S
C1189 N1191 1.279 1_556 S
C1189 C1192 1.358 . S
C1189 H1195 0.930 1_556 S
C1190 C1188 1.353 . S
C1190 C1193 1.348 . S
C1190 H1228 0.929 . S
N1191 Li1146 1.990 . S
N1191 C1188 1.314 1_554 S
N1191 C1189 1.279 1_554 S
C1192 C1189 1.358 . S
C1192 C1193 1.356 . S
C1192 H1229 0.930 . S
C1193 C1190 1.348 . S
C1193 C1192 1.356 . S
H1194 C1188 0.930 . S
H1195 C1189 0.930 1_554 S
C1196 N1197 1.314 . S
C1196 C1198 1.353 . S
C1196 H1202 0.930 . S
N1197 Li1147 1.990 . S
N1197 C1196 1.314 . S
N1197 C1200 1.279 . S
C1198 C1196 1.353 . S
C1198 C1201 1.348 . S
C1198 H1230 0.929 . S
C1199 C1200 1.358 . S
C1199 C1201 1.356 . S
C1199 H1231 0.930 . S
C1200 N1197 1.279 . S
C1200 C1199 1.358 . S
C1200 H1203 0.930 . S
C1201 C1198 1.348 . S
C1201 C1199 1.356 . S
H1202 C1196 0.930 . S
H1203 C1200 0.930 . S
O1204 Li1144 1.956 . S
O1204 Li1145 1.970 . S
O1204 Li1146 1.961 . S
O1204 C1148 1.325 . S
O1205 Li1144 1.970 . S
O1205 Li1145 1.956 . S
O1205 Li1147 1.961 . S
O1205 C1154 1.325 . S
O1206 Li1144 1.961 . S
O1206 Li1146 1.956 . S
O1206 Li1147 1.970 . S
O1206 C1176 1.325 . S
O1207 Li1145 1.961 . S
O1207 Li1146 1.970 . S
O1207 Li1147 1.956 . S
O1207 C1182 1.325 . S
H1208 C1150 0.929 . S
H1209 C1151 0.930 . S
H1210 C1152 0.930 . S
H1211 C1153 0.930 . S
H1212 C1155 0.930 . S
H1213 C1157 0.929 . S
H1214 C1158 0.930 . S
H1215 C1159 0.930 . S
H1216 C1162 0.930 . S
H1217 C1165 0.929 . S
H1218 C1170 0.929 . S
H1219 C1171 0.930 . S
H1220 C1178 0.929 . S
H1221 C1179 0.930 . S
H1222 C1180 0.930 . S
H1223 C1181 0.930 . S
H1224 C1183 0.929 . S
H1225 C1184 0.930 . S
H1226 C1185 0.930 . S
H1227 C1186 0.930 . S
H1228 C1190 0.929 . S
H1229 C1192 0.930 . S
H1230 C1198 0.929 . S
H1231 C1199 0.930 . S
Li1232 N1249 1.990 . S
Li1232 O1292 1.956 . S
Li1232 O1293 1.970 . S
Li1232 O1294 1.961 . S
Li1233 N1257 1.990 . S
Li1233 O1292 1.970 . S
Li1233 O1293 1.956 . S
Li1233 O1295 1.961 . S
Li1234 N1279 1.990 . S
Li1234 O1292 1.961 . S
Li1234 O1294 1.956 . S
Li1234 O1295 1.970 . S
Li1235 N1285 1.990 . S
Li1235 O1293 1.961 . S
Li1235 O1294 1.970 . S
Li1235 O1295 1.956 . S
C1236 C1238 1.348 . S
C1236 C1239 1.356 . S
C1236 O1292 1.325 . S
N1237 C1240 1.314 . S
N1237 C1241 1.279 . S
C1238 C1236 1.348 . S
C1238 C1240 1.353 . S
C1238 H1296 0.929 . S
C1239 C1236 1.356 . S
C1239 C1241 1.358 . S
C1239 H1297 0.930 . S
C1240 N1237 1.314 . S
C1240 C1238 1.353 . S
C1240 H1298 0.930 . S
C1241 N1237 1.279 . S
C1241 C1239 1.358 . S
C1241 H1299 0.930 . S
C1242 C1245 1.348 . S
C1242 C1246 1.356 . S
C1242 O1293 1.325 . S
C1243 N1244 1.279 . S
C1243 C1246 1.358 . S
C1243 H1300 0.930 . S
N1244 C1243 1.279 . S
N1244 C1247 1.314 . S
C1245 C1242 1.348 . S
C1245 C1247 1.353 . S
C1245 H1301 0.929 . S
C1246 C1242 1.356 . S
C1246 C1243 1.358 . S
C1246 H1302 0.930 . S
C1247 N1244 1.314 . S
C1247 C1245 1.353 . S
C1247 H1303 0.930 . S
C1248 N1249 1.314 . S
C1248 C1253 1.353 . S
C1248 H1254 0.930 . S
N1249 Li1232 1.990 . S
N1249 C1248 1.314 . S
N1249 C1251 1.279 . S
C1250 C1251 1.358 . S
C1250 C1252 1.356 . S
C1250 H1304 0.930 . S
C1251 N1249 1.279 . S
C1251 C1250 1.358 . S
C1251 H1255 0.930 . S
C1252 C1250 1.356 . S
C1252 C1253 1.348 . S
C1253 C1248 1.353 . S
C1253 C1252 1.348 . S
C1253 H1305 0.929 . S
H1254 C1248 0.930 . S
H1255 C1251 0.930 . S
C1256 N1257 1.314 . S
C1256 C1258 1.353 . S
C1256 H1262 0.930 . S
N1257 Li1233 1.990 . S
N1257 C1256 1.314 . S
N1257 C1260 1.279 . S
C1258 C1256 1.353 . S
C1258 C1261 1.348 . S
C1258 H1306 0.929 . S
C1259 C1260 1.358 . S
C1259 C1261 1.356 . S
C1259 H1307 0.930 . S
C1260 N1257 1.279 . S
C1260 C1259 1.358 . S
C1260 H1263 0.930 . S
C1261 C1258 1.348 . S
C1261 C1259 1.356 . S
H1262 C1256 0.930 . S
H1263 C1260 0.930 . S
C1264 C1266 1.348 . S
C1264 C1267 1.356 . S
C1264 O1294 1.325 . S
N1265 C1268 1.314 . S
N1265 C1269 1.279 . S
C1266 C1264 1.348 . S
C1266 C1268 1.353 . S
C1266 H1308 0.929 . S
C1267 C1264 1.356 . S
C1267 C1269 1.358 . S
C1267 H1309 0.930 . S
C1268 N1265 1.314 . S
C1268 C1266 1.353 . S
C1268 H1310 0.930 . S
C1269 N1265 1.279 . S
C1269 C1267 1.358 . S
C1269 H1311 0.930 . S
C1270 C1271 1.348 . S
C1270 C1272 1.356 . S
C1270 O1295 1.325 . S
C1271 C1270 1.348 . S
C1271 C1273 1.353 . S
C1271 H1312 0.929 . S
C1272 C1270 1.356 . S
C1272 C1274 1.358 . S
C1272 H1313 0.930 . S
C1273 C1271 1.353 . S
C1273 N1275 1.314 . S
C1273 H1314 0.930 . S
C1274 C1272 1.358 . S
C1274 N1275 1.279 . S
C1274 H1315 0.930 . S
N1275 C1273 1.314 . S
N1275 C1274 1.279 . S
C1276 C1278 1.353 . S
C1276 N1279 1.314 . S
C1276 H1282 0.930 . S
C1277 N1279 1.279 . S
C1277 C1280 1.358 . S
C1277 H1283 0.930 . S
C1278 C1276 1.353 . S
C1278 C1281 1.348 . S
C1278 H1316 0.929 . S
N1279 Li1234 1.990 . S
N1279 C1276 1.314 . S
N1279 C1277 1.279 . S
C1280 C1277 1.358 . S
C1280 C1281 1.356 . S
C1280 H1317 0.930 . S
C1281 C1278 1.348 . S
C1281 C1280 1.356 . S
H1282 C1276 0.930 . S
H1283 C1277 0.930 . S
C1284 N1285 1.314 . S
C1284 C1286 1.353 . S
C1284 H1290 0.930 . S
N1285 Li1235 1.990 . S
N1285 C1284 1.314 . S
N1285 C1288 1.279 . S
C1286 C1284 1.353 . S
C1286 C1289 1.348 . S
C1286 H1318 0.929 . S
C1287 C1288 1.358 . S
C1287 C1289 1.356 . S
C1287 H1319 0.930 . S
C1288 N1285 1.279 . S
C1288 C1287 1.358 . S
C1288 H1291 0.930 . S
C1289 C1286 1.348 . S
C1289 C1287 1.356 . S
H1290 C1284 0.930 . S
H1291 C1288 0.930 . S
O1292 Li1232 1.956 . S
O1292 Li1233 1.970 . S
O1292 Li1234 1.961 . S
O1292 C1236 1.325 . S
O1293 Li1232 1.970 . S
O1293 Li1233 1.956 . S
O1293 Li1235 1.961 . S
O1293 C1242 1.325 . S
O1294 Li1232 1.961 . S
O1294 Li1234 1.956 . S
O1294 Li1235 1.970 . S
O1294 C1264 1.325 . S
O1295 Li1233 1.961 . S
O1295 Li1234 1.970 . S
O1295 Li1235 1.956 . S
O1295 C1270 1.325 . S
H1296 C1238 0.929 . S
H1297 C1239 0.930 . S
H1298 C1240 0.930 . S
H1299 C1241 0.930 . S
H1300 C1243 0.930 . S
H1301 C1245 0.929 . S
H1302 C1246 0.930 . S
H1303 C1247 0.930 . S
H1304 C1250 0.930 . S
H1305 C1253 0.929 . S
H1306 C1258 0.929 . S
H1307 C1259 0.930 . S
H1308 C1266 0.929 . S
H1309 C1267 0.930 . S
H1310 C1268 0.930 . S
H1311 C1269 0.930 . S
H1312 C1271 0.929 . S
H1313 C1272 0.930 . S
H1314 C1273 0.930 . S
H1315 C1274 0.930 . S
H1316 C1278 0.929 . S
H1317 C1280 0.930 . S
H1318 C1286 0.929 . S
H1319 C1287 0.930 . S
Li1320 N1337 1.990 . S
Li1320 O1380 1.956 . S
Li1320 O1381 1.970 . S
Li1320 O1382 1.961 . S
Li1321 N1345 1.990 . S
Li1321 O1380 1.970 . S
Li1321 O1381 1.956 . S
Li1321 O1383 1.961 . S
Li1322 N1367 1.990 . S
Li1322 O1380 1.961 . S
Li1322 O1382 1.956 . S
Li1322 O1383 1.970 . S
Li1323 N1373 1.990 . S
Li1323 O1381 1.961 . S
Li1323 O1382 1.970 . S
Li1323 O1383 1.956 . S
C1324 C1326 1.348 . S
C1324 C1327 1.356 . S
C1324 O1380 1.325 . S
N1325 C1328 1.314 . S
N1325 C1329 1.279 . S
C1326 C1324 1.348 . S
C1326 C1328 1.353 . S
C1326 H1384 0.929 . S
C1327 C1324 1.356 . S
C1327 C1329 1.358 . S
C1327 H1385 0.930 . S
C1328 N1325 1.314 . S
C1328 C1326 1.353 . S
C1328 H1386 0.930 . S
C1329 N1325 1.279 . S
C1329 C1327 1.358 . S
C1329 H1387 0.930 . S
C1330 C1333 1.348 . S
C1330 C1334 1.356 . S
C1330 O1381 1.325 . S
C1331 N1332 1.279 . S
C1331 C1334 1.358 . S
C1331 H1388 0.930 . S
N1332 C1331 1.279 . S
N1332 C1335 1.314 . S
C1333 C1330 1.348 . S
C1333 C1335 1.353 . S
C1333 H1389 0.929 . S
C1334 C1330 1.356 . S
C1334 C1331 1.358 . S
C1334 H1390 0.930 . S
C1335 N1332 1.314 . S
C1335 C1333 1.353 . S
C1335 H1391 0.930 . S
C1336 N1337 1.314 . S
C1336 C1341 1.353 . S
C1336 H1342 0.930 . S
N1337 Li1320 1.990 . S
N1337 C1336 1.314 . S
N1337 C1339 1.279 . S
C1338 C1339 1.358 . S
C1338 C1340 1.356 . S
C1338 H1392 0.930 . S
C1339 N1337 1.279 . S
C1339 C1338 1.358 . S
C1339 H1343 0.930 . S
C1340 C1338 1.356 . S
C1340 C1341 1.348 . S
C1341 C1336 1.353 . S
C1341 C1340 1.348 . S
C1341 H1393 0.929 . S
H1342 C1336 0.930 . S
H1343 C1339 0.930 . S
C1344 N1345 1.314 . S
C1344 C1346 1.353 . S
C1344 H1350 0.930 . S
N1345 Li1321 1.990 . S
N1345 C1344 1.314 . S
N1345 C1348 1.279 . S
C1346 C1344 1.353 . S
C1346 C1349 1.348 . S
C1346 H1394 0.929 . S
C1347 C1348 1.358 . S
C1347 C1349 1.356 . S
C1347 H1395 0.930 . S
C1348 N1345 1.279 . S
C1348 C1347 1.358 . S
C1348 H1351 0.930 . S
C1349 C1346 1.348 . S
C1349 C1347 1.356 . S
H1350 C1344 0.930 . S
H1351 C1348 0.930 . S
C1352 C1354 1.348 . S
C1352 C1355 1.356 . S
C1352 O1382 1.325 . S
N1353 C1356 1.314 . S
N1353 C1357 1.279 . S
C1354 C1352 1.348 . S
C1354 C1356 1.353 . S
C1354 H1396 0.929 . S
C1355 C1352 1.356 . S
C1355 C1357 1.358 . S
C1355 H1397 0.930 . S
C1356 N1353 1.314 . S
C1356 C1354 1.353 . S
C1356 H1398 0.930 . S
C1357 N1353 1.279 . S
C1357 C1355 1.358 . S
C1357 H1399 0.930 . S
C1358 C1359 1.348 . S
C1358 C1360 1.356 . S
C1358 O1383 1.325 . S
C1359 C1358 1.348 . S
C1359 C1361 1.353 . S
C1359 H1400 0.929 . S
C1360 C1358 1.356 . S
C1360 C1362 1.358 . S
C1360 H1401 0.930 . S
C1361 C1359 1.353 . S
C1361 N1363 1.314 . S
C1361 H1402 0.930 . S
C1362 C1360 1.358 . S
C1362 N1363 1.279 . S
C1362 H1403 0.930 . S
N1363 C1361 1.314 . S
N1363 C1362 1.279 . S
C1364 C1366 1.353 . S
C1364 N1367 1.314 . S
C1364 H1370 0.930 . S
C1365 N1367 1.279 . S
C1365 C1368 1.358 . S
C1365 H1371 0.930 . S
C1366 C1364 1.353 . S
C1366 C1369 1.348 . S
C1366 H1404 0.929 . S
N1367 Li1322 1.990 . S
N1367 C1364 1.314 . S
N1367 C1365 1.279 . S
C1368 C1365 1.358 . S
C1368 C1369 1.356 . S
C1368 H1405 0.930 . S
C1369 C1366 1.348 . S
C1369 C1368 1.356 . S
H1370 C1364 0.930 . S
H1371 C1365 0.930 . S
C1372 N1373 1.314 . S
C1372 C1374 1.353 . S
C1372 H1378 0.930 . S
N1373 Li1323 1.990 . S
N1373 C1372 1.314 . S
N1373 C1376 1.279 . S
C1374 C1372 1.353 . S
C1374 C1377 1.348 . S
C1374 H1406 0.929 . S
C1375 C1376 1.358 . S
C1375 C1377 1.356 . S
C1375 H1407 0.930 . S
C1376 N1373 1.279 . S
C1376 C1375 1.358 . S
C1376 H1379 0.930 . S
C1377 C1374 1.348 . S
C1377 C1375 1.356 . S
H1378 C1372 0.930 . S
H1379 C1376 0.930 . S
O1380 Li1320 1.956 . S
O1380 Li1321 1.970 . S
O1380 Li1322 1.961 . S
O1380 C1324 1.325 . S
O1381 Li1320 1.970 . S
O1381 Li1321 1.956 . S
O1381 Li1323 1.961 . S
O1381 C1330 1.325 . S
O1382 Li1320 1.961 . S
O1382 Li1322 1.956 . S
O1382 Li1323 1.970 . S
O1382 C1352 1.325 . S
O1383 Li1321 1.961 . S
O1383 Li1322 1.970 . S
O1383 Li1323 1.956 . S
O1383 C1358 1.325 . S
H1384 C1326 0.929 . S
H1385 C1327 0.930 . S
H1386 C1328 0.930 . S
H1387 C1329 0.930 . S
H1388 C1331 0.930 . S
H1389 C1333 0.929 . S
H1390 C1334 0.930 . S
H1391 C1335 0.930 . S
H1392 C1338 0.930 . S
H1393 C1341 0.929 . S
H1394 C1346 0.929 . S
H1395 C1347 0.930 . S
H1396 C1354 0.929 . S
H1397 C1355 0.930 . S
H1398 C1356 0.930 . S
H1399 C1357 0.930 . S
H1400 C1359 0.929 . S
H1401 C1360 0.930 . S
H1402 C1361 0.930 . S
H1403 C1362 0.930 . S
H1404 C1366 0.929 . S
H1405 C1368 0.930 . S
H1406 C1374 0.929 . S
H1407 C1375 0.930 . S
Li1408 N1425 1.990 . S
Li1408 O1468 1.956 1_545 S
Li1408 O1469 1.970 . S
Li1408 O1470 1.961 . S
Li1409 N1433 1.990 . S
Li1409 O1468 1.970 . S
Li1409 O1469 1.956 1_565 S
Li1409 O1471 1.961 1_565 S
Li1410 N1455 1.990 . S
Li1410 O1468 1.961 1_545 S
Li1410 O1470 1.956 . S
Li1410 O1471 1.970 . S
Li1411 N1461 1.990 . S
Li1411 O1469 1.961 . S
Li1411 O1470 1.970 . S
Li1411 O1471 1.956 . S
C1412 C1414 1.348 . S
C1412 C1415 1.356 . S
C1412 O1468 1.325 . S
N1413 C1416 1.314 . S
N1413 C1417 1.279 . S
C1414 C1412 1.348 . S
C1414 C1416 1.353 . S
C1414 H1472 0.929 . S
C1415 C1412 1.356 . S
C1415 C1417 1.358 . S
C1415 H1473 0.994 . S
C1416 N1413 1.314 . S
C1416 C1414 1.353 . S
C1416 H1474 0.930 . S
C1417 N1413 1.279 . S
C1417 C1415 1.358 . S
C1417 H1475 0.930 . S
C1418 C1421 1.348 . S
C1418 C1422 1.356 . S
C1418 O1469 1.325 . S
C1419 N1420 1.279 . S
C1419 C1422 1.358 . S
C1419 H1476 0.930 . S
N1420 C1419 1.279 . S
N1420 C1423 1.314 . S
C1421 C1418 1.348 . S
C1421 C1423 1.353 . S
C1421 H1477 0.929 . S
C1422 C1418 1.356 . S
C1422 C1419 1.358 . S
C1422 H1478 0.930 . S
C1423 N1420 1.314 . S
C1423 C1421 1.353 . S
C1423 H1479 0.930 . S
C1424 N1425 1.314 . S
C1424 C1429 1.353 . S
C1424 H1430 0.930 . S
N1425 Li1408 1.990 . S
N1425 C1424 1.314 . S
N1425 C1427 1.279 . S
C1426 C1427 1.358 . S
C1426 C1428 1.356 . S
C1426 H1480 0.922 . S
C1427 N1425 1.279 . S
C1427 C1426 1.358 . S
C1427 H1431 0.930 1_545 S
C1428 C1426 1.356 . S
C1428 C1429 1.348 . S
C1429 C1424 1.353 . S
C1429 C1428 1.348 . S
C1429 H1481 0.929 . S
H1430 C1424 0.930 . S
H1431 C1427 0.930 1_565 S
C1432 N1433 1.314 . S
C1432 C1434 1.353 . S
C1432 H1438 0.930 . S
N1433 Li1409 1.990 . S
N1433 C1432 1.314 . S
N1433 C1436 1.279 . S
C1434 C1432 1.353 . S
C1434 C1437 1.348 . S
C1434 H1482 0.929 . S
C1435 C1436 1.358 . S
C1435 C1437 1.356 . S
C1435 H1483 0.930 . S
C1436 N1433 1.279 . S
C1436 C1435 1.358 . S
C1436 H1439 0.930 . S
C1437 C1434 1.348 . S
C1437 C1435 1.356 . S
H1438 C1432 0.930 . S
H1439 C1436 0.930 . S
C1440 C1442 1.348 . S
C1440 C1443 1.356 . S
C1440 O1470 1.325 . S
N1441 C1444 1.314 . S
N1441 C1445 1.279 . S
C1442 C1440 1.348 . S
C1442 C1444 1.353 . S
C1442 H1484 0.929 . S
C1443 C1440 1.356 . S
C1443 C1445 1.358 . S
C1443 H1485 0.930 . S
C1444 N1441 1.314 . S
C1444 C1442 1.353 . S
C1444 H1486 0.930 . S
C1445 N1441 1.279 . S
C1445 C1443 1.358 . S
C1445 H1487 0.930 . S
C1446 C1447 1.348 . S
C1446 C1448 1.356 . S
C1446 O1471 1.325 . S
C1447 C1446 1.348 . S
C1447 C1449 1.353 . S
C1447 H1488 0.929 . S
C1448 C1446 1.356 . S
C1448 C1450 1.358 . S
C1448 H1489 0.930 . S
C1449 C1447 1.353 . S
C1449 N1451 1.314 . S
C1449 H1490 0.930 . S
C1450 C1448 1.358 . S
C1450 N1451 1.279 . S
C1450 H1491 0.928 1_545 S
N1451 C1449 1.314 . S
N1451 C1450 1.279 . S
C1452 C1454 1.353 . S
C1452 N1455 1.314 . S
C1452 H1458 0.930 1_545 S
C1453 N1455 1.279 . S
C1453 C1456 1.358 . S
C1453 H1459 0.930 . S
C1454 C1452 1.353 . S
C1454 C1457 1.348 . S
C1454 H1492 0.929 1_545 S
N1455 Li1410 1.990 . S
N1455 C1452 1.314 . S
N1455 C1453 1.279 . S
C1456 C1453 1.358 . S
C1456 C1457 1.356 . S
C1456 H1493 0.930 . S
C1457 C1454 1.348 . S
C1457 C1456 1.356 . S
H1458 C1452 0.930 1_565 S
H1459 C1453 0.930 . S
C1460 N1461 1.314 . S
C1460 C1462 1.353 . S
C1460 H1466 0.930 . S
N1461 Li1411 1.990 . S
N1461 C1460 1.314 . S
N1461 C1464 1.279 . S
C1462 C1460 1.353 . S
C1462 C1465 1.348 . S
C1462 H1494 0.929 . S
C1463 C1464 1.358 . S
C1463 C1465 1.356 . S
C1463 H1495 0.930 . S
C1464 N1461 1.279 . S
C1464 C1463 1.358 . S
C1464 H1467 0.930 . S
C1465 C1462 1.348 . S
C1465 C1463 1.356 . S
H1466 C1460 0.930 . S
H1467 C1464 0.930 . S
O1468 Li1408 1.956 1_565 S
O1468 Li1409 1.970 . S
O1468 Li1410 1.961 1_565 S
O1468 C1412 1.325 . S
O1469 Li1408 1.970 . S
O1469 Li1409 1.956 1_545 S
O1469 Li1411 1.961 . S
O1469 C1418 1.325 . S
O1470 Li1408 1.961 . S
O1470 Li1410 1.956 . S
O1470 Li1411 1.970 . S
O1470 C1440 1.325 . S
O1471 Li1409 1.961 1_545 S
O1471 Li1410 1.970 . S
O1471 Li1411 1.956 . S
O1471 C1446 1.325 . S
H1472 C1414 0.929 . S
H1473 C1415 0.994 . S
H1474 C1416 0.930 . S
H1475 C1417 0.930 . S
H1476 C1419 0.930 . S
H1477 C1421 0.929 . S
H1478 C1422 0.930 . S
H1479 C1423 0.930 . S
H1480 C1426 0.922 . S
H1481 C1429 0.929 . S
H1482 C1434 0.929 . S
H1483 C1435 0.930 . S
H1484 C1442 0.929 . S
H1485 C1443 0.930 . S
H1486 C1444 0.930 . S
H1487 C1445 0.930 . S
H1488 C1447 0.929 . S
H1489 C1448 0.930 . S
H1490 C1449 0.930 . S
H1491 C1450 0.928 1_565 S
H1492 C1454 0.929 1_565 S
H1493 C1456 0.930 . S
H1494 C1462 0.929 . S
H1495 C1463 0.930 . S
Li1496 N1513 1.990 . S
Li1496 O1556 1.956 . S
Li1496 O1557 1.970 . S
Li1496 O1558 1.961 . S
Li1497 N1521 1.990 . S
Li1497 O1556 1.970 . S
Li1497 O1557 1.956 . S
Li1497 O1559 1.961 . S
Li1498 N1543 1.990 . S
Li1498 O1556 1.961 . S
Li1498 O1558 1.956 . S
Li1498 O1559 1.970 . S
Li1499 N1549 1.990 . S
Li1499 O1557 1.961 . S
Li1499 O1558 1.970 . S
Li1499 O1559 1.956 . S
C1500 C1502 1.348 . S
C1500 C1503 1.356 . S
C1500 O1556 1.325 . S
N1501 C1504 1.314 . S
N1501 C1505 1.279 . S
C1502 C1500 1.348 . S
C1502 C1504 1.353 . S
C1502 H1560 0.929 . S
C1503 C1500 1.356 . S
C1503 C1505 1.358 . S
C1503 H1561 0.930 . S
C1504 N1501 1.314 . S
C1504 C1502 1.353 . S
C1504 H1562 0.930 . S
C1505 N1501 1.279 . S
C1505 C1503 1.358 . S
C1505 H1563 0.930 . S
C1506 C1509 1.348 . S
C1506 C1510 1.356 . S
C1506 O1557 1.325 . S
C1507 N1508 1.279 . S
C1507 C1510 1.358 . S
C1507 H1564 0.930 . S
N1508 C1507 1.279 . S
N1508 C1511 1.314 . S
C1509 C1506 1.348 . S
C1509 C1511 1.353 . S
C1509 H1565 0.929 . S
C1510 C1506 1.356 . S
C1510 C1507 1.358 . S
C1510 H1566 0.930 . S
C1511 N1508 1.314 . S
C1511 C1509 1.353 . S
C1511 H1567 0.930 . S
C1512 N1513 1.314 . S
C1512 C1517 1.353 . S
C1512 H1518 0.930 . S
N1513 Li1496 1.990 . S
N1513 C1512 1.314 . S
N1513 C1515 1.279 . S
C1514 C1515 1.358 . S
C1514 C1516 1.356 . S
C1514 H1568 0.930 . S
C1515 N1513 1.279 . S
C1515 C1514 1.358 . S
C1515 H1519 0.930 . S
C1516 C1514 1.356 . S
C1516 C1517 1.348 . S
C1517 C1512 1.353 . S
C1517 C1516 1.348 . S
C1517 H1569 0.929 . S
H1518 C1512 0.930 . S
H1519 C1515 0.930 . S
C1520 N1521 1.314 . S
C1520 C1522 1.353 . S
C1520 H1526 0.930 . S
N1521 Li1497 1.990 . S
N1521 C1520 1.314 . S
N1521 C1524 1.279 . S
C1522 C1520 1.353 . S
C1522 C1525 1.348 . S
C1522 H1570 0.929 . S
C1523 C1524 1.358 . S
C1523 C1525 1.356 . S
C1523 H1571 0.930 . S
C1524 N1521 1.279 . S
C1524 C1523 1.358 . S
C1524 H1527 0.930 . S
C1525 C1522 1.348 . S
C1525 C1523 1.356 . S
H1526 C1520 0.930 . S
H1527 C1524 0.930 . S
C1528 C1530 1.348 . S
C1528 C1531 1.356 . S
C1528 O1558 1.325 . S
N1529 C1532 1.314 . S
N1529 C1533 1.279 . S
C1530 C1528 1.348 . S
C1530 C1532 1.353 . S
C1530 H1572 0.929 . S
C1531 C1528 1.356 . S
C1531 C1533 1.358 . S
C1531 H1573 0.930 . S
C1532 N1529 1.314 . S
C1532 C1530 1.353 . S
C1532 H1574 0.930 . S
C1533 N1529 1.279 . S
C1533 C1531 1.358 . S
C1533 H1575 0.930 . S
C1534 C1535 1.348 . S
C1534 C1536 1.356 . S
C1534 O1559 1.325 . S
C1535 C1534 1.348 . S
C1535 C1537 1.353 . S
C1535 H1576 0.929 . S
C1536 C1534 1.356 . S
C1536 C1538 1.358 . S
C1536 H1577 0.930 . S
C1537 C1535 1.353 . S
C1537 N1539 1.314 . S
C1537 H1578 0.930 . S
C1538 C1536 1.358 . S
C1538 N1539 1.279 . S
C1538 H1579 0.930 . S
N1539 C1537 1.314 . S
N1539 C1538 1.279 . S
C1540 C1542 1.353 . S
C1540 N1543 1.314 . S
C1540 H1546 0.930 . S
C1541 N1543 1.279 . S
C1541 C1544 1.358 . S
C1541 H1547 0.930 . S
C1542 C1540 1.353 . S
C1542 C1545 1.348 . S
C1542 H1580 0.929 . S
N1543 Li1498 1.990 . S
N1543 C1540 1.314 . S
N1543 C1541 1.279 . S
C1544 C1541 1.358 . S
C1544 C1545 1.356 . S
C1544 H1581 0.930 . S
C1545 C1542 1.348 . S
C1545 C1544 1.356 . S
H1546 C1540 0.930 . S
H1547 C1541 0.930 . S
C1548 N1549 1.314 . S
C1548 C1550 1.353 . S
C1548 H1554 0.930 . S
N1549 Li1499 1.990 . S
N1549 C1548 1.314 . S
N1549 C1552 1.279 . S
C1550 C1548 1.353 . S
C1550 C1553 1.348 . S
C1550 H1582 0.929 . S
C1551 C1552 1.358 . S
C1551 C1553 1.356 . S
C1551 H1583 0.930 . S
C1552 N1549 1.279 . S
C1552 C1551 1.358 . S
C1552 H1555 0.930 . S
C1553 C1550 1.348 . S
C1553 C1551 1.356 . S
H1554 C1548 0.930 . S
H1555 C1552 0.930 . S
O1556 Li1496 1.956 . S
O1556 Li1497 1.970 . S
O1556 Li1498 1.961 . S
O1556 C1500 1.325 . S
O1557 Li1496 1.970 . S
O1557 Li1497 1.956 . S
O1557 Li1499 1.961 . S
O1557 C1506 1.325 . S
O1558 Li1496 1.961 . S
O1558 Li1498 1.956 . S
O1558 Li1499 1.970 . S
O1558 C1528 1.325 . S
O1559 Li1497 1.961 . S
O1559 Li1498 1.970 . S
O1559 Li1499 1.956 . S
O1559 C1534 1.325 . S
H1560 C1502 0.929 . S
H1561 C1503 0.930 . S
H1562 C1504 0.930 . S
H1563 C1505 0.930 . S
H1564 C1507 0.930 . S
H1565 C1509 0.929 . S
H1566 C1510 0.930 . S
H1567 C1511 0.930 . S
H1568 C1514 0.930 . S
H1569 C1517 0.929 . S
H1570 C1522 0.929 . S
H1571 C1523 0.930 . S
H1572 C1530 0.929 . S
H1573 C1531 0.930 . S
H1574 C1532 0.930 . S
H1575 C1533 0.930 . S
H1576 C1535 0.929 . S
H1577 C1536 0.930 . S
H1578 C1537 0.930 . S
H1579 C1538 0.930 . S
H1580 C1542 0.929 . S
H1581 C1544 0.930 . S
H1582 C1550 0.929 . S
H1583 C1551 0.930 . S
Li1584 N1601 1.990 . S
Li1584 O1644 1.956 . S
Li1584 O1645 1.970 . S
Li1584 O1646 1.961 . S
Li1585 N1609 1.990 . S
Li1585 O1644 1.970 . S
Li1585 O1645 1.956 . S
Li1585 O1647 1.961 . S
Li1586 N1631 1.990 . S
Li1586 O1644 1.961 . S
Li1586 O1646 1.956 . S
Li1586 O1647 1.970 . S
Li1587 N1637 1.990 . S
Li1587 O1645 1.961 . S
Li1587 O1646 1.970 . S
Li1587 O1647 1.956 . S
C1588 C1590 1.348 . S
C1588 C1591 1.356 . S
C1588 O1644 1.325 . S
N1589 C1592 1.314 . S
N1589 C1593 1.279 . S
C1590 C1588 1.348 . S
C1590 C1592 1.353 . S
C1590 H1648 0.929 . S
C1591 C1588 1.356 . S
C1591 C1593 1.358 . S
C1591 H1649 0.930 . S
C1592 N1589 1.314 . S
C1592 C1590 1.353 . S
C1592 H1650 0.930 . S
C1593 N1589 1.279 . S
C1593 C1591 1.358 . S
C1593 H1651 0.930 . S
C1594 C1597 1.348 . S
C1594 C1598 1.356 . S
C1594 O1645 1.325 . S
C1595 N1596 1.279 . S
C1595 C1598 1.358 . S
C1595 H1652 0.930 . S
N1596 C1595 1.279 . S
N1596 C1599 1.314 . S
C1597 C1594 1.348 . S
C1597 C1599 1.353 . S
C1597 H1653 0.929 . S
C1598 C1594 1.356 . S
C1598 C1595 1.358 . S
C1598 H1654 0.930 . S
C1599 N1596 1.314 . S
C1599 C1597 1.353 . S
C1599 H1655 0.930 . S
C1600 N1601 1.314 . S
C1600 C1605 1.353 . S
C1600 H1606 0.930 . S
N1601 Li1584 1.990 . S
N1601 C1600 1.314 . S
N1601 C1603 1.279 . S
C1602 C1603 1.358 . S
C1602 C1604 1.356 . S
C1602 H1656 0.930 . S
C1603 N1601 1.279 . S
C1603 C1602 1.358 . S
C1603 H1607 0.930 . S
C1604 C1602 1.356 . S
C1604 C1605 1.348 . S
C1605 C1600 1.353 . S
C1605 C1604 1.348 . S
C1605 H1657 0.929 . S
H1606 C1600 0.930 . S
H1607 C1603 0.930 . S
C1608 N1609 1.314 . S
C1608 C1610 1.353 . S
C1608 H1614 0.930 . S
N1609 Li1585 1.990 . S
N1609 C1608 1.314 . S
N1609 C1612 1.279 . S
C1610 C1608 1.353 . S
C1610 C1613 1.348 . S
C1610 H1658 0.929 . S
C1611 C1612 1.358 . S
C1611 C1613 1.356 . S
C1611 H1659 0.930 . S
C1612 N1609 1.279 . S
C1612 C1611 1.358 . S
C1612 H1615 0.930 . S
C1613 C1610 1.348 . S
C1613 C1611 1.356 . S
H1614 C1608 0.930 . S
H1615 C1612 0.930 . S
C1616 C1618 1.348 . S
C1616 C1619 1.356 . S
C1616 O1646 1.325 . S
N1617 C1620 1.314 . S
N1617 C1621 1.279 . S
C1618 C1616 1.348 . S
C1618 C1620 1.353 . S
C1618 H1660 0.929 . S
C1619 C1616 1.356 . S
C1619 C1621 1.358 . S
C1619 H1661 0.930 . S
C1620 N1617 1.314 . S
C1620 C1618 1.353 . S
C1620 H1662 0.930 . S
C1621 N1617 1.279 . S
C1621 C1619 1.358 . S
C1621 H1663 0.930 . S
C1622 C1623 1.348 . S
C1622 C1624 1.356 . S
C1622 O1647 1.325 . S
C1623 C1622 1.348 . S
C1623 C1625 1.353 . S
C1623 H1664 0.929 . S
C1624 C1622 1.356 . S
C1624 C1626 1.358 . S
C1624 H1665 0.930 . S
C1625 C1623 1.353 . S
C1625 N1627 1.314 . S
C1625 H1666 0.930 . S
C1626 C1624 1.358 . S
C1626 N1627 1.279 . S
C1626 H1667 0.930 . S
N1627 C1625 1.314 . S
N1627 C1626 1.279 . S
C1628 C1630 1.353 . S
C1628 N1631 1.314 . S
C1628 H1634 0.930 . S
C1629 N1631 1.279 . S
C1629 C1632 1.358 . S
C1629 H1635 0.930 . S
C1630 C1628 1.353 . S
C1630 C1633 1.348 . S
C1630 H1668 0.929 . S
N1631 Li1586 1.990 . S
N1631 C1628 1.314 . S
N1631 C1629 1.279 . S
C1632 C1629 1.358 . S
C1632 C1633 1.356 . S
C1632 H1669 0.930 . S
C1633 C1630 1.348 . S
C1633 C1632 1.356 . S
H1634 C1628 0.930 . S
H1635 C1629 0.930 . S
C1636 N1637 1.314 . S
C1636 C1638 1.353 . S
C1636 H1642 0.930 . S
N1637 Li1587 1.990 . S
N1637 C1636 1.314 . S
N1637 C1640 1.279 . S
C1638 C1636 1.353 . S
C1638 C1641 1.348 . S
C1638 H1670 0.929 . S
C1639 C1640 1.358 . S
C1639 C1641 1.356 . S
C1639 H1671 0.930 . S
C1640 N1637 1.279 . S
C1640 C1639 1.358 . S
C1640 H1643 0.930 . S
C1641 C1638 1.348 . S
C1641 C1639 1.356 . S
H1642 C1636 0.930 . S
H1643 C1640 0.930 . S
O1644 Li1584 1.956 . S
O1644 Li1585 1.970 . S
O1644 Li1586 1.961 . S
O1644 C1588 1.325 . S
O1645 Li1584 1.970 . S
O1645 Li1585 1.956 . S
O1645 Li1587 1.961 . S
O1645 C1594 1.325 . S
O1646 Li1584 1.961 . S
O1646 Li1586 1.956 . S
O1646 Li1587 1.970 . S
O1646 C1616 1.325 . S
O1647 Li1585 1.961 . S
O1647 Li1586 1.970 . S
O1647 Li1587 1.956 . S
O1647 C1622 1.325 . S
H1648 C1590 0.929 . S
H1649 C1591 0.930 . S
H1650 C1592 0.930 . S
H1651 C1593 0.930 . S
H1652 C1595 0.930 . S
H1653 C1597 0.929 . S
H1654 C1598 0.930 . S
H1655 C1599 0.930 . S
H1656 C1602 0.930 . S
H1657 C1605 0.929 . S
H1658 C1610 0.929 . S
H1659 C1611 0.930 . S
H1660 C1618 0.929 . S
H1661 C1619 0.930 . S
H1662 C1620 0.930 . S
H1663 C1621 0.930 . S
H1664 C1623 0.929 . S
H1665 C1624 0.930 . S
H1666 C1625 0.930 . S
H1667 C1626 0.930 . S
H1668 C1630 0.929 . S
H1669 C1632 0.930 . S
H1670 C1638 0.929 . S
H1671 C1639 0.930 . S
Li1672 N1689 1.990 . S
Li1672 O1732 1.956 . S
Li1672 O1733 1.970 . S
Li1672 O1734 1.961 . S
Li1673 N1697 1.990 . S
Li1673 O1732 1.970 . S
Li1673 O1733 1.956 . S
Li1673 O1735 1.961 . S
Li1674 N1719 1.990 . S
Li1674 O1732 1.961 . S
Li1674 O1734 1.956 . S
Li1674 O1735 1.970 . S
Li1675 N1725 2.028 . S
Li1675 O1733 1.961 . S
Li1675 O1734 1.970 . S
Li1675 O1735 1.956 . S
C1676 C1678 1.348 . S
C1676 C1679 1.356 . S
C1676 O1732 1.325 . S
N1677 C1680 1.314 . S
N1677 C1681 1.279 . S
C1678 C1676 1.348 . S
C1678 C1680 1.353 . S
C1678 H1736 0.929 . S
C1679 C1676 1.356 . S
C1679 C1681 1.358 . S
C1679 H1737 0.930 . S
C1680 N1677 1.314 . S
C1680 C1678 1.353 . S
C1680 H1738 0.930 . S
C1681 N1677 1.279 . S
C1681 C1679 1.358 . S
C1681 H1739 0.930 . S
C1682 C1685 1.348 . S
C1682 C1686 1.356 . S
C1682 O1733 1.325 . S
C1683 N1684 1.279 . S
C1683 C1686 1.358 . S
C1683 H1740 0.930 . S
N1684 C1683 1.279 . S
N1684 C1687 1.314 . S
C1685 C1682 1.348 . S
C1685 C1687 1.353 . S
C1685 H1741 0.929 . S
C1686 C1682 1.356 . S
C1686 C1683 1.358 . S
C1686 H1742 0.930 . S
C1687 N1684 1.314 . S
C1687 C1685 1.353 . S
C1687 H1743 0.930 . S
C1688 N1689 1.314 . S
C1688 C1693 1.353 . S
C1688 H1694 0.930 . S
N1689 Li1672 1.990 . S
N1689 C1688 1.314 . S
N1689 C1691 1.279 . S
C1690 C1691 1.358 . S
C1690 C1692 1.356 . S
C1690 H1744 0.930 . S
C1691 N1689 1.279 . S
C1691 C1690 1.358 . S
C1691 H1695 0.930 . S
C1692 C1690 1.356 . S
C1692 C1693 1.348 . S
C1693 C1688 1.353 . S
C1693 C1692 1.348 . S
C1693 H1745 0.929 . S
H1694 C1688 0.930 . S
H1695 C1691 0.930 . S
C1696 N1697 1.314 . S
C1696 C1698 1.353 . S
C1696 H1702 0.930 . S
N1697 Li1673 1.990 . S
N1697 C1696 1.314 . S
N1697 C1700 1.279 . S
C1698 C1696 1.353 . S
C1698 C1701 1.348 . S
C1698 H1746 0.929 . S
C1699 C1700 1.358 . S
C1699 C1701 1.356 . S
C1699 H1747 0.930 . S
C1700 N1697 1.279 . S
C1700 C1699 1.358 . S
C1700 H1703 0.930 . S
C1701 C1698 1.348 . S
C1701 C1699 1.356 . S
H1702 C1696 0.930 . S
H1703 C1700 0.930 . S
C1704 C1706 1.396 . S
C1704 C1707 1.351 . S
C1704 O1734 1.286 1_565 S
N1705 C1708 1.314 . S
N1705 C1709 1.279 . S
C1706 C1704 1.396 . S
C1706 C1708 1.353 . S
C1706 H1748 0.929 . S
C1707 C1704 1.351 . S
C1707 C1709 1.358 . S
C1707 H1749 0.930 1_565 S
C1708 N1705 1.314 . S
C1708 C1706 1.353 . S
C1708 H1750 0.930 . S
C1709 N1705 1.279 . S
C1709 C1707 1.358 . S
C1709 H1751 0.930 . S
C1710 C1711 1.348 . S
C1710 C1712 1.356 . S
C1710 O1735 1.325 . S
C1711 C1710 1.348 . S
C1711 C1713 1.353 . S
C1711 H1752 0.929 . S
C1712 C1710 1.356 . S
C1712 C1714 1.358 . S
C1712 H1753 0.930 . S
C1713 C1711 1.353 . S
C1713 N1715 1.314 . S
C1713 H1754 0.930 . S
C1714 C1712 1.358 . S
C1714 N1715 1.279 . S
C1714 H1755 0.930 . S
N1715 C1713 1.314 . S
N1715 C1714 1.279 . S
C1716 C1718 1.353 . S
C1716 N1719 1.314 . S
C1716 H1722 0.930 . S
C1717 N1719 1.279 . S
C1717 C1720 1.358 . S
C1717 H1723 0.930 . S
C1718 C1716 1.353 . S
C1718 C1721 1.348 . S
C1718 H1756 0.929 . S
N1719 Li1674 1.990 . S
N1719 C1716 1.314 . S
N1719 C1717 1.279 . S
C1720 C1717 1.358 . S
C1720 C1721 1.356 . S
C1720 H1757 0.965 . S
C1721 C1718 1.348 . S
C1721 C1720 1.356 . S
H1722 C1716 0.930 . S
H1723 C1717 0.930 . S
C1724 N1725 1.287 1_565 S
C1724 C1726 1.353 . S
C1724 H1730 0.930 . S
N1725 Li1675 2.028 . S
N1725 C1724 1.287 1_545 S
N1725 C1728 1.263 1_545 S
C1726 C1724 1.353 . S
C1726 C1729 1.348 . S
C1726 H1758 0.929 . S
C1727 C1728 1.358 . S
C1727 C1729 1.356 . S
C1727 H1759 0.930 . S
C1728 N1725 1.263 1_565 S
C1728 C1727 1.358 . S
C1728 H1731 0.925 1_565 S
C1729 C1726 1.348 . S
C1729 C1727 1.356 . S
H1730 C1724 0.930 . S
H1731 C1728 0.925 1_545 S
O1732 Li1672 1.956 . S
O1732 Li1673 1.970 . S
O1732 Li1674 1.961 . S
O1732 C1676 1.325 . S
O1733 Li1672 1.970 . S
O1733 Li1673 1.956 . S
O1733 Li1675 1.961 . S
O1733 C1682 1.325 . S
O1734 Li1672 1.961 . S
O1734 Li1674 1.956 . S
O1734 Li1675 1.970 . S
O1734 C1704 1.286 1_545 S
O1735 Li1673 1.961 . S
O1735 Li1674 1.970 . S
O1735 Li1675 1.956 . S
O1735 C1710 1.325 . S
H1736 C1678 0.929 . S
H1737 C1679 0.930 . S
H1738 C1680 0.930 . S
H1739 C1681 0.930 . S
H1740 C1683 0.930 . S
H1741 C1685 0.929 . S
H1742 C1686 0.930 . S
H1743 C1687 0.930 . S
H1744 C1690 0.930 . S
H1745 C1693 0.929 . S
H1746 C1698 0.929 . S
H1747 C1699 0.930 . S
H1748 C1706 0.929 . S
H1749 C1707 0.930 1_545 S
H1750 C1708 0.930 . S
H1751 C1709 0.930 . S
H1752 C1711 0.929 . S
H1753 C1712 0.930 . S
H1754 C1713 0.930 . S
H1755 C1714 0.930 . S
H1756 C1718 0.929 . S
H1757 C1720 0.965 . S
H1758 C1726 0.929 . S
H1759 C1727 0.930 . S
Li1760 N1777 1.990 . S
Li1760 O1820 1.956 . S
Li1760 O1821 1.970 . S
Li1760 O1822 1.961 . S
Li1761 N1785 1.990 . S
Li1761 O1820 1.970 . S
Li1761 O1821 1.956 . S
Li1761 O1823 1.961 1_554 S
Li1762 N1807 1.990 . S
Li1762 O1820 1.961 1_556 S
Li1762 O1822 1.956 1_556 S
Li1762 O1823 1.970 . S
Li1763 N1813 1.990 1_554 S
Li1763 O1821 1.961 . S
Li1763 O1822 1.970 . S
Li1763 O1823 1.956 1_554 S
C1764 C1766 1.348 . S
C1764 C1767 1.356 . S
C1764 O1820 1.325 . S
N1765 C1768 1.314 . S
N1765 C1769 1.279 . S
C1766 C1764 1.348 . S
C1766 C1768 1.353 . S
C1766 H1824 0.929 . S
C1767 C1764 1.356 . S
C1767 C1769 1.358 . S
C1767 H1825 0.930 . S
C1768 N1765 1.314 . S
C1768 C1766 1.353 . S
C1768 H1826 0.930 . S
C1769 N1765 1.279 . S
C1769 C1767 1.358 . S
C1769 H1827 0.930 . S
C1770 C1773 1.348 . S
C1770 C1774 1.356 . S
C1770 O1821 1.325 . S
C1771 N1772 1.279 . S
C1771 C1774 1.358 . S
C1771 H1828 0.930 . S
N1772 C1771 1.279 . S
N1772 C1775 1.314 . S
C1773 C1770 1.348 . S
C1773 C1775 1.353 . S
C1773 H1829 0.929 . S
C1774 C1770 1.356 . S
C1774 C1771 1.358 . S
C1774 H1830 0.930 . S
C1775 N1772 1.314 . S
C1775 C1773 1.353 . S
C1775 H1831 0.930 . S
C1776 N1777 1.314 . S
C1776 C1781 1.353 . S
C1776 H1782 0.930 . S
N1777 Li1760 1.990 . S
N1777 C1776 1.314 . S
N1777 C1779 1.279 . S
C1778 C1779 1.358 . S
C1778 C1780 1.356 . S
C1778 H1832 0.930 . S
C1779 N1777 1.279 . S
C1779 C1778 1.358 . S
C1779 H1783 0.930 . S
C1780 C1778 1.356 . S
C1780 C1781 1.348 . S
C1781 C1776 1.353 . S
C1781 C1780 1.348 . S
C1781 H1833 0.929 . S
H1782 C1776 0.930 . S
H1783 C1779 0.930 . S
C1784 N1785 1.314 1_556 S
C1784 C1786 1.353 . S
C1784 H1790 0.930 . S
N1785 Li1761 1.990 . S
N1785 C1784 1.314 1_554 S
N1785 C1788 1.279 . S
C1786 C1784 1.353 . S
C1786 C1789 1.348 1_556 S
C1786 H1834 0.929 . S
C1787 C1788 1.358 . S
C1787 C1789 1.356 . S
C1787 H1835 0.930 . S
C1788 N1785 1.279 . S
C1788 C1787 1.358 . S
C1788 H1791 0.930 . S
C1789 C1786 1.348 1_554 S
C1789 C1787 1.356 . S
H1790 C1784 0.930 . S
H1791 C1788 0.930 . S
C1792 C1794 1.348 1_554 S
C1792 C1795 1.356 . S
C1792 O1822 1.325 . S
N1793 C1796 1.314 1_554 S
N1793 C1797 1.279 . S
C1794 C1792 1.348 1_556 S
C1794 C1796 1.353 . S
C1794 H1836 0.929 . S
C1795 C1792 1.356 . S
C1795 C1797 1.358 . S
C1795 H1837 0.930 . S
C1796 N1793 1.314 1_556 S
C1796 C1794 1.353 . S
C1796 H1838 0.930 . S
C1797 N1793 1.279 . S
C1797 C1795 1.358 . S
C1797 H1839 0.930 . S
C1798 C1799 1.348 . S
C1798 C1800 1.356 . S
C1798 O1823 1.325 . S
C1799 C1798 1.348 . S
C1799 C1801 1.353 . S
C1799 H1840 0.929 . S
C1800 C1798 1.356 . S
C1800 C1802 1.358 . S
C1800 H1841 0.930 . S
C1801 C1799 1.353 . S
C1801 N1803 1.314 . S
C1801 H1842 0.930 . S
C1802 C1800 1.358 . S
C1802 N1803 1.279 . S
C1802 H1843 0.930 . S
N1803 C1801 1.314 . S
N1803 C1802 1.279 . S
C1804 C1806 1.353 . S
C1804 N1807 1.314 . S
C1804 H1810 0.930 . S
C1805 N1807 1.279 . S
C1805 C1808 1.358 . S
C1805 H1811 0.930 . S
C1806 C1804 1.353 . S
C1806 C1809 1.348 . S
C1806 H1844 0.929 . S
N1807 Li1762 1.990 . S
N1807 C1804 1.314 . S
N1807 C1805 1.279 . S
C1808 C1805 1.358 . S
C1808 C1809 1.356 . S
C1808 H1845 0.930 . S
C1809 C1806 1.348 . S
C1809 C1808 1.356 . S
H1810 C1804 0.930 . S
H1811 C1805 0.930 . S
C1812 N1813 1.321 1_554 S
C1812 C1814 1.353 . S
C1812 H1818 0.930 . S
N1813 Li1763 1.990 1_556 S
N1813 C1812 1.321 1_556 S
N1813 C1816 1.273 . S
C1814 C1812 1.353 . S
C1814 C1817 1.348 1_554 S
C1814 H1846 0.929 . S
C1815 C1816 1.358 . S
C1815 C1817 1.356 . S
C1815 H1847 0.930 . S
C1816 N1813 1.273 . S
C1816 C1815 1.358 . S
C1816 H1819 0.930 . S
C1817 C1814 1.348 1_556 S
C1817 C1815 1.356 . S
H1818 C1812 0.930 . S
H1819 C1816 0.930 . S
O1820 Li1760 1.956 . S
O1820 Li1761 1.970 . S
O1820 Li1762 1.961 1_554 S
O1820 C1764 1.325 . S
O1821 Li1760 1.970 . S
O1821 Li1761 1.956 . S
O1821 Li1763 1.961 . S
O1821 C1770 1.325 . S
O1822 Li1760 1.961 . S
O1822 Li1762 1.956 1_554 S
O1822 Li1763 1.970 . S
O1822 C1792 1.325 . S
O1823 Li1761 1.961 1_556 S
O1823 Li1762 1.970 . S
O1823 Li1763 1.956 1_556 S
O1823 C1798 1.325 . S
H1824 C1766 0.929 . S
H1825 C1767 0.930 . S
H1826 C1768 0.930 . S
H1827 C1769 0.930 . S
H1828 C1771 0.930 . S
H1829 C1773 0.929 . S
H1830 C1774 0.930 . S
H1831 C1775 0.930 . S
H1832 C1778 0.930 . S
H1833 C1781 0.929 . S
H1834 C1786 0.929 . S
H1835 C1787 0.930 . S
H1836 C1794 0.929 . S
H1837 C1795 0.930 . S
H1838 C1796 0.930 . S
H1839 C1797 0.930 . S
H1840 C1799 0.929 . S
H1841 C1800 0.930 . S
H1842 C1801 0.930 . S
H1843 C1802 0.930 . S
H1844 C1806 0.929 . S
H1845 C1808 0.930 . S
H1846 C1814 0.929 . S
H1847 C1815 0.930 . S
Li1848 N1865 1.990 . S
Li1848 O1908 1.956 . S
Li1848 O1909 1.970 . S
Li1848 O1910 1.961 . S
Li1849 N1873 1.990 . S
Li1849 O1908 1.970 . S
Li1849 O1909 1.956 . S
Li1849 O1911 1.961 . S
Li1850 N1895 1.990 . S
Li1850 O1908 1.961 . S
Li1850 O1910 1.956 . S
Li1850 O1911 1.970 . S
Li1851 N1901 1.990 . S
Li1851 O1909 1.961 . S
Li1851 O1910 1.970 . S
Li1851 O1911 1.956 . S
C1852 C1854 1.348 . S
C1852 C1855 1.356 . S
C1852 O1908 1.325 . S
N1853 C1856 1.314 . S
N1853 C1857 1.279 . S
C1854 C1852 1.348 . S
C1854 C1856 1.353 . S
C1854 H1912 0.929 . S
C1855 C1852 1.356 . S
C1855 C1857 1.358 . S
C1855 H1913 0.930 . S
C1856 N1853 1.314 . S
C1856 C1854 1.353 . S
C1856 H1914 0.930 . S
C1857 N1853 1.279 . S
C1857 C1855 1.358 . S
C1857 H1915 0.930 . S
C1858 C1861 1.348 . S
C1858 C1862 1.356 . S
C1858 O1909 1.325 . S
C1859 N1860 1.279 . S
C1859 C1862 1.358 . S
C1859 H1916 0.930 . S
N1860 C1859 1.279 . S
N1860 C1863 1.314 . S
C1861 C1858 1.348 . S
C1861 C1863 1.353 . S
C1861 H1917 0.929 . S
C1862 C1858 1.356 . S
C1862 C1859 1.358 . S
C1862 H1918 0.930 . S
C1863 N1860 1.314 . S
C1863 C1861 1.353 . S
C1863 H1919 0.930 . S
C1864 N1865 1.314 . S
C1864 C1869 1.353 . S
C1864 H1870 0.930 . S
N1865 Li1848 1.990 . S
N1865 C1864 1.314 . S
N1865 C1867 1.279 . S
C1866 C1867 1.358 . S
C1866 C1868 1.356 . S
C1866 H1920 0.930 . S
C1867 N1865 1.279 . S
C1867 C1866 1.358 . S
C1867 H1871 0.930 . S
C1868 C1866 1.356 . S
C1868 C1869 1.348 . S
C1869 C1864 1.353 . S
C1869 C1868 1.348 . S
C1869 H1921 0.929 . S
H1870 C1864 0.930 . S
H1871 C1867 0.930 . S
C1872 N1873 1.314 . S
C1872 C1874 1.353 . S
C1872 H1878 0.930 . S
N1873 Li1849 1.990 . S
N1873 C1872 1.314 . S
N1873 C1876 1.279 . S
C1874 C1872 1.353 . S
C1874 C1877 1.348 . S
C1874 H1922 0.929 . S
C1875 C1876 1.358 . S
C1875 C1877 1.356 . S
C1875 H1923 0.930 . S
C1876 N1873 1.279 . S
C1876 C1875 1.358 . S
C1876 H1879 0.930 . S
C1877 C1874 1.348 . S
C1877 C1875 1.356 . S
H1878 C1872 0.930 . S
H1879 C1876 0.930 . S
C1880 C1882 1.348 . S
C1880 C1883 1.356 . S
C1880 O1910 1.325 . S
N1881 C1884 1.314 . S
N1881 C1885 1.279 . S
C1882 C1880 1.348 . S
C1882 C1884 1.353 . S
C1882 H1924 0.929 . S
C1883 C1880 1.356 . S
C1883 C1885 1.358 . S
C1883 H1925 0.930 . S
C1884 N1881 1.314 . S
C1884 C1882 1.353 . S
C1884 H1926 0.930 . S
C1885 N1881 1.279 . S
C1885 C1883 1.358 . S
C1885 H1927 0.930 . S
C1886 C1887 1.348 . S
C1886 C1888 1.356 . S
C1886 O1911 1.325 . S
C1887 C1886 1.348 . S
C1887 C1889 1.353 . S
C1887 H1928 0.929 . S
C1888 C1886 1.356 . S
C1888 C1890 1.358 . S
C1888 H1929 0.930 . S
C1889 C1887 1.353 . S
C1889 N1891 1.314 . S
C1889 H1930 0.930 . S
C1890 C1888 1.358 . S
C1890 N1891 1.279 . S
C1890 H1931 0.930 . S
N1891 C1889 1.314 . S
N1891 C1890 1.279 . S
C1892 C1894 1.353 . S
C1892 N1895 1.314 . S
C1892 H1898 0.930 . S
C1893 N1895 1.279 . S
C1893 C1896 1.358 . S
C1893 H1899 0.930 . S
C1894 C1892 1.353 . S
C1894 C1897 1.348 . S
C1894 H1932 0.929 . S
N1895 Li1850 1.990 . S
N1895 C1892 1.314 . S
N1895 C1893 1.279 . S
C1896 C1893 1.358 . S
C1896 C1897 1.356 . S
C1896 H1933 0.930 . S
C1897 C1894 1.348 . S
C1897 C1896 1.356 . S
H1898 C1892 0.930 . S
H1899 C1893 0.930 . S
C1900 N1901 1.314 . S
C1900 C1902 1.353 . S
C1900 H1906 0.930 . S
N1901 Li1851 1.990 . S
N1901 C1900 1.314 . S
N1901 C1904 1.279 . S
C1902 C1900 1.353 . S
C1902 C1905 1.348 . S
C1902 H1934 0.929 . S
C1903 C1904 1.358 . S
C1903 C1905 1.356 . S
C1903 H1935 0.930 . S
C1904 N1901 1.279 . S
C1904 C1903 1.358 . S
C1904 H1907 0.930 . S
C1905 C1902 1.348 . S
C1905 C1903 1.356 . S
H1906 C1900 0.930 . S
H1907 C1904 0.930 . S
O1908 Li1848 1.956 . S
O1908 Li1849 1.970 . S
O1908 Li1850 1.961 . S
O1908 C1852 1.325 . S
O1909 Li1848 1.970 . S
O1909 Li1849 1.956 . S
O1909 Li1851 1.961 . S
O1909 C1858 1.325 . S
O1910 Li1848 1.961 . S
O1910 Li1850 1.956 . S
O1910 Li1851 1.970 . S
O1910 C1880 1.325 . S
O1911 Li1849 1.961 . S
O1911 Li1850 1.970 . S
O1911 Li1851 1.956 . S
O1911 C1886 1.325 . S
H1912 C1854 0.929 . S
H1913 C1855 0.930 . S
H1914 C1856 0.930 . S
H1915 C1857 0.930 . S
H1916 C1859 0.930 . S
H1917 C1861 0.929 . S
H1918 C1862 0.930 . S
H1919 C1863 0.930 . S
H1920 C1866 0.930 . S
H1921 C1869 0.929 . S
H1922 C1874 0.929 . S
H1923 C1875 0.930 . S
H1924 C1882 0.929 . S
H1925 C1883 0.930 . S
H1926 C1884 0.930 . S
H1927 C1885 0.930 . S
H1928 C1887 0.929 . S
H1929 C1888 0.930 . S
H1930 C1889 0.930 . S
H1931 C1890 0.930 . S
H1932 C1894 0.929 . S
H1933 C1896 0.930 . S
H1934 C1902 0.929 . S
H1935 C1903 0.930 . S
Li1936 N1953 1.990 . S
Li1936 O1996 1.956 . S
Li1936 O1997 1.970 . S
Li1936 O1998 1.961 . S
Li1937 N1961 1.990 . S
Li1937 O1996 1.970 . S
Li1937 O1997 1.956 . S
Li1937 O1999 1.961 . S
Li1938 N1983 1.990 . S
Li1938 O1996 1.961 . S
Li1938 O1998 1.956 . S
Li1938 O1999 1.970 . S
Li1939 N1989 1.990 . S
Li1939 O1997 1.961 . S
Li1939 O1998 1.970 . S
Li1939 O1999 1.956 . S
C1940 C1942 1.348 . S
C1940 C1943 1.356 . S
C1940 O1996 1.325 . S
N1941 C1944 1.314 . S
N1941 C1945 1.279 . S
C1942 C1940 1.348 . S
C1942 C1944 1.353 . S
C1942 H2000 0.929 . S
C1943 C1940 1.356 . S
C1943 C1945 1.358 . S
C1943 H2001 0.930 . S
C1944 N1941 1.314 . S
C1944 C1942 1.353 . S
C1944 H2002 0.930 . S
C1945 N1941 1.279 . S
C1945 C1943 1.358 . S
C1945 H2003 0.930 . S
C1946 C1949 1.348 . S
C1946 C1950 1.356 . S
C1946 O1997 1.325 . S
C1947 N1948 1.279 . S
C1947 C1950 1.358 . S
C1947 H2004 0.930 . S
N1948 C1947 1.279 . S
N1948 C1951 1.314 . S
C1949 C1946 1.348 . S
C1949 C1951 1.353 . S
C1949 H2005 0.929 . S
C1950 C1946 1.356 . S
C1950 C1947 1.358 . S
C1950 H2006 0.930 . S
C1951 N1948 1.314 . S
C1951 C1949 1.353 . S
C1951 H2007 0.930 . S
C1952 N1953 1.314 . S
C1952 C1957 1.353 . S
C1952 H1958 0.930 . S
N1953 Li1936 1.990 . S
N1953 C1952 1.314 . S
N1953 C1955 1.279 . S
C1954 C1955 1.358 . S
C1954 C1956 1.356 . S
C1954 H2008 0.930 . S
C1955 N1953 1.279 . S
C1955 C1954 1.358 . S
C1955 H1959 0.930 . S
C1956 C1954 1.356 . S
C1956 C1957 1.348 . S
C1957 C1952 1.353 . S
C1957 C1956 1.348 . S
C1957 H2009 0.929 . S
H1958 C1952 0.930 . S
H1959 C1955 0.930 . S
C1960 N1961 1.314 . S
C1960 C1962 1.353 . S
C1960 H1966 0.930 . S
N1961 Li1937 1.990 . S
N1961 C1960 1.314 . S
N1961 C1964 1.279 . S
C1962 C1960 1.353 . S
C1962 C1965 1.348 . S
C1962 H2010 0.929 . S
C1963 C1964 1.358 . S
C1963 C1965 1.356 . S
C1963 H2011 0.930 . S
C1964 N1961 1.279 . S
C1964 C1963 1.358 . S
C1964 H1967 0.930 . S
C1965 C1962 1.348 . S
C1965 C1963 1.356 . S
H1966 C1960 0.930 . S
H1967 C1964 0.930 . S
C1968 C1970 1.348 . S
C1968 C1971 1.356 . S
C1968 O1998 1.325 . S
N1969 C1972 1.314 . S
N1969 C1973 1.279 . S
C1970 C1968 1.348 . S
C1970 C1972 1.353 . S
C1970 H2012 0.929 . S
C1971 C1968 1.356 . S
C1971 C1973 1.358 . S
C1971 H2013 0.930 . S
C1972 N1969 1.314 . S
C1972 C1970 1.353 . S
C1972 H2014 0.930 . S
C1973 N1969 1.279 . S
C1973 C1971 1.358 . S
C1973 H2015 0.930 . S
C1974 C1975 1.348 . S
C1974 C1976 1.356 . S
C1974 O1999 1.325 . S
C1975 C1974 1.348 . S
C1975 C1977 1.353 . S
C1975 H2016 0.929 . S
C1976 C1974 1.356 . S
C1976 C1978 1.358 . S
C1976 H2017 0.930 . S
C1977 C1975 1.353 . S
C1977 N1979 1.314 . S
C1977 H2018 0.930 . S
C1978 C1976 1.358 . S
C1978 N1979 1.279 . S
C1978 H2019 0.930 . S
N1979 C1977 1.314 . S
N1979 C1978 1.279 . S
C1980 C1982 1.353 . S
C1980 N1983 1.314 . S
C1980 H1986 0.930 . S
C1981 N1983 1.279 . S
C1981 C1984 1.358 . S
C1981 H1987 0.930 . S
C1982 C1980 1.353 . S
C1982 C1985 1.348 . S
C1982 H2020 0.929 . S
N1983 Li1938 1.990 . S
N1983 C1980 1.314 . S
N1983 C1981 1.279 . S
C1984 C1981 1.358 . S
C1984 C1985 1.356 . S
C1984 H2021 0.930 . S
C1985 C1982 1.348 . S
C1985 C1984 1.356 . S
H1986 C1980 0.930 . S
H1987 C1981 0.930 . S
C1988 N1989 1.314 . S
C1988 C1990 1.353 . S
C1988 H1994 0.930 . S
N1989 Li1939 1.990 . S
N1989 C1988 1.314 . S
N1989 C1992 1.279 . S
C1990 C1988 1.353 . S
C1990 C1993 1.348 . S
C1990 H2022 0.929 . S
C1991 C1992 1.358 . S
C1991 C1993 1.356 . S
C1991 H2023 0.930 . S
C1992 N1989 1.279 . S
C1992 C1991 1.358 . S
C1992 H1995 0.930 . S
C1993 C1990 1.348 . S
C1993 C1991 1.356 . S
H1994 C1988 0.930 . S
H1995 C1992 0.930 . S
O1996 Li1936 1.956 . S
O1996 Li1937 1.970 . S
O1996 Li1938 1.961 . S
O1996 C1940 1.325 . S
O1997 Li1936 1.970 . S
O1997 Li1937 1.956 . S
O1997 Li1939 1.961 . S
O1997 C1946 1.325 . S
O1998 Li1936 1.961 . S
O1998 Li1938 1.956 . S
O1998 Li1939 1.970 . S
O1998 C1968 1.325 . S
O1999 Li1937 1.961 . S
O1999 Li1938 1.970 . S
O1999 Li1939 1.956 . S
O1999 C1974 1.325 . S
H2000 C1942 0.929 . S
H2001 C1943 0.930 . S
H2002 C1944 0.930 . S
H2003 C1945 0.930 . S
H2004 C1947 0.930 . S
H2005 C1949 0.929 . S
H2006 C1950 0.930 . S
H2007 C1951 0.930 . S
H2008 C1954 0.930 . S
H2009 C1957 0.929 . S
H2010 C1962 0.929 . S
H2011 C1963 0.930 . S
H2012 C1970 0.929 . S
H2013 C1971 0.930 . S
H2014 C1972 0.930 . S
H2015 C1973 0.930 . S
H2016 C1975 0.929 . S
H2017 C1976 0.930 . S
H2018 C1977 0.930 . S
H2019 C1978 0.930 . S
H2020 C1982 0.929 . S
H2021 C1984 0.930 . S
H2022 C1990 0.929 . S
H2023 C1991 0.930 . S
Li2024 N2041 1.990 . S
Li2024 O2084 1.956 . S
Li2024 O2085 1.970 . S
Li2024 O2086 1.961 . S
Li2025 N2049 1.990 . S
Li2025 O2084 1.970 . S
Li2025 O2085 1.956 . S
Li2025 O2087 1.961 . S
Li2026 N2071 1.990 . S
Li2026 O2084 1.961 . S
Li2026 O2086 1.956 . S
Li2026 O2087 1.970 . S
Li2027 N2077 1.990 . S
Li2027 O2085 1.961 . S
Li2027 O2086 1.970 . S
Li2027 O2087 1.956 . S
C2028 C2030 1.348 . S
C2028 C2031 1.356 . S
C2028 O2084 1.325 . S
N2029 C2032 1.314 . S
N2029 C2033 1.279 . S
C2030 C2028 1.348 . S
C2030 C2032 1.353 . S
C2030 H2088 0.929 . S
C2031 C2028 1.356 . S
C2031 C2033 1.358 . S
C2031 H2089 0.930 . S
C2032 N2029 1.314 . S
C2032 C2030 1.353 . S
C2032 H2090 0.930 . S
C2033 N2029 1.279 . S
C2033 C2031 1.358 . S
C2033 H2091 0.930 . S
C2034 C2037 1.348 . S
C2034 C2038 1.356 . S
C2034 O2085 1.325 . S
C2035 N2036 1.279 . S
C2035 C2038 1.358 . S
C2035 H2092 0.930 . S
N2036 C2035 1.279 . S
N2036 C2039 1.314 . S
C2037 C2034 1.348 . S
C2037 C2039 1.353 . S
C2037 H2093 0.929 . S
C2038 C2034 1.356 . S
C2038 C2035 1.358 . S
C2038 H2094 0.930 . S
C2039 N2036 1.314 . S
C2039 C2037 1.353 . S
C2039 H2095 0.930 . S
C2040 N2041 1.314 . S
C2040 C2045 1.353 . S
C2040 H2046 0.930 . S
N2041 Li2024 1.990 . S
N2041 C2040 1.314 . S
N2041 C2043 1.279 . S
C2042 C2043 1.358 . S
C2042 C2044 1.356 . S
C2042 H2096 0.930 . S
C2043 N2041 1.279 . S
C2043 C2042 1.358 . S
C2043 H2047 0.930 . S
C2044 C2042 1.356 . S
C2044 C2045 1.348 . S
C2045 C2040 1.353 . S
C2045 C2044 1.348 . S
C2045 H2097 0.929 . S
H2046 C2040 0.930 . S
H2047 C2043 0.930 . S
C2048 N2049 1.314 . S
C2048 C2050 1.353 . S
C2048 H2054 0.930 . S
N2049 Li2025 1.990 . S
N2049 C2048 1.314 . S
N2049 C2052 1.279 . S
C2050 C2048 1.353 . S
C2050 C2053 1.348 . S
C2050 H2098 0.929 . S
C2051 C2052 1.358 . S
C2051 C2053 1.356 . S
C2051 H2099 0.930 . S
C2052 N2049 1.279 . S
C2052 C2051 1.358 . S
C2052 H2055 0.930 . S
C2053 C2050 1.348 . S
C2053 C2051 1.356 . S
H2054 C2048 0.930 . S
H2055 C2052 0.930 . S
C2056 C2058 1.348 . S
C2056 C2059 1.356 . S
C2056 O2086 1.325 . S
N2057 C2060 1.314 . S
N2057 C2061 1.279 . S
C2058 C2056 1.348 . S
C2058 C2060 1.353 . S
C2058 H2100 0.929 . S
C2059 C2056 1.356 . S
C2059 C2061 1.358 . S
C2059 H2101 0.930 . S
C2060 N2057 1.314 . S
C2060 C2058 1.353 . S
C2060 H2102 0.930 . S
C2061 N2057 1.279 . S
C2061 C2059 1.358 . S
C2061 H2103 0.930 . S
C2062 C2063 1.348 . S
C2062 C2064 1.356 . S
C2062 O2087 1.325 . S
C2063 C2062 1.348 . S
C2063 C2065 1.353 . S
C2063 H2104 0.929 . S
C2064 C2062 1.356 . S
C2064 C2066 1.358 . S
C2064 H2105 0.930 . S
C2065 C2063 1.353 . S
C2065 N2067 1.314 . S
C2065 H2106 0.930 . S
C2066 C2064 1.358 . S
C2066 N2067 1.279 . S
C2066 H2107 0.930 . S
N2067 C2065 1.314 . S
N2067 C2066 1.279 . S
C2068 C2070 1.353 . S
C2068 N2071 1.314 . S
C2068 H2074 0.930 . S
C2069 N2071 1.279 . S
C2069 C2072 1.358 . S
C2069 H2075 0.930 . S
C2070 C2068 1.353 . S
C2070 C2073 1.348 . S
C2070 H2108 0.929 . S
N2071 Li2026 1.990 . S
N2071 C2068 1.314 . S
N2071 C2069 1.279 . S
C2072 C2069 1.358 . S
C2072 C2073 1.356 . S
C2072 H2109 0.930 . S
C2073 C2070 1.348 . S
C2073 C2072 1.356 . S
H2074 C2068 0.930 . S
H2075 C2069 0.930 . S
C2076 N2077 1.314 . S
C2076 C2078 1.353 . S
C2076 H2082 0.930 . S
N2077 Li2027 1.990 . S
N2077 C2076 1.314 . S
N2077 C2080 1.279 . S
C2078 C2076 1.353 . S
C2078 C2081 1.348 . S
C2078 H2110 0.929 . S
C2079 C2080 1.358 . S
C2079 C2081 1.356 . S
C2079 H2111 0.930 . S
C2080 N2077 1.279 . S
C2080 C2079 1.358 . S
C2080 H2083 0.930 . S
C2081 C2078 1.348 . S
C2081 C2079 1.356 . S
H2082 C2076 0.930 . S
H2083 C2080 0.930 . S
O2084 Li2024 1.956 . S
O2084 Li2025 1.970 . S
O2084 Li2026 1.961 . S
O2084 C2028 1.325 . S
O2085 Li2024 1.970 . S
O2085 Li2025 1.956 . S
O2085 Li2027 1.961 . S
O2085 C2034 1.325 . S
O2086 Li2024 1.961 . S
O2086 Li2026 1.956 . S
O2086 Li2027 1.970 . S
O2086 C2056 1.325 . S
O2087 Li2025 1.961 . S
O2087 Li2026 1.970 . S
O2087 Li2027 1.956 . S
O2087 C2062 1.325 . S
H2088 C2030 0.929 . S
H2089 C2031 0.930 . S
H2090 C2032 0.930 . S
H2091 C2033 0.930 . S
H2092 C2035 0.930 . S
H2093 C2037 0.929 . S
H2094 C2038 0.930 . S
H2095 C2039 0.930 . S
H2096 C2042 0.930 . S
H2097 C2045 0.929 . S
H2098 C2050 0.929 . S
H2099 C2051 0.930 . S
H2100 C2058 0.929 . S
H2101 C2059 0.930 . S
H2102 C2060 0.930 . S
H2103 C2061 0.930 . S
H2104 C2063 0.929 . S
H2105 C2064 0.930 . S
H2106 C2065 0.930 . S
H2107 C2066 0.930 . S
H2108 C2070 0.929 . S
H2109 C2072 0.930 . S
H2110 C2078 0.929 . S
H2111 C2079 0.930 . S
Tb2112 N2141 2.617 . S
Tb2112 N2147 2.572 . S
Tb2112 O2156 2.465 . S
Tb2112 O2157 2.387 . S
Tb2112 O2159 2.428 . S
Tb2112 O2160 2.308 . S
Tb2112 O2164 2.285 1_545 S
Tb2112 O2167 2.393 . S
Tb2112 C2176 2.802 . S
C2113 N2114 1.379 . S
C2113 C2116 1.416 . S
C2113 C2120 1.424 1_556 S
N2114 C2113 1.379 . S
N2114 C2117 1.334 . S
N2114 Tb2123 2.617 1_566 S
C2115 C2117 1.390 . S
C2115 C2118 1.339 . S
C2115 H2135 0.930 . S
C2116 C2113 1.416 . S
C2116 C2118 1.416 . S
C2116 C2122 1.448 . S
C2117 N2114 1.334 . S
C2117 C2115 1.390 . S
C2117 H2128 0.930 . S
C2118 C2115 1.339 . S
C2118 C2116 1.416 . S
C2118 H2139 0.930 . S
C2119 C2120 1.413 . S
C2119 C2121 1.427 1_554 S
C2119 C2125 1.416 . S
C2120 C2113 1.424 1_554 S
C2120 C2119 1.413 . S
C2120 N2124 1.361 . S
C2121 C2119 1.427 1_556 S
C2121 C2122 1.328 . S
C2121 H2136 0.932 . S
C2122 C2116 1.448 . S
C2122 C2121 1.328 . S
C2122 H2137 0.930 . S
Tb2123 N2114 2.617 1_544 S
Tb2123 N2124 2.572 1_545 S
Tb2123 O2158 2.349 1_655 S
Tb2123 O2161 2.393 1_654 S
Tb2123 O2162 2.465 . S
Tb2123 O2163 2.387 1_645 S
Tb2123 O2165 2.428 1_554 S
Tb2123 O2166 2.308 1_655 S
Tb2123 C2187 2.806 . S
N2124 C2120 1.361 . S
N2124 Tb2123 2.572 1_565 S
N2124 C2126 1.340 . S
C2125 C2119 1.416 . S
C2125 C2127 1.332 . S
C2125 H2133 0.931 . S
C2126 N2124 1.340 . S
C2126 C2127 1.407 . S
C2126 H2132 0.930 . S
C2127 C2125 1.332 . S
C2127 C2126 1.407 . S
C2127 H2129 0.929 . S
H2128 C2117 0.930 . S
H2129 C2127 0.929 . S
H2130 C2145 0.930 . S
H2131 C2152 0.907 1_556 S
H2132 C2126 0.930 . S
H2133 C2125 0.931 . S
H2134 C2148 0.930 1_556 S
H2135 C2115 0.930 . S
H2136 C2121 0.932 . S
H2137 C2122 0.930 . S
H2138 C2143 0.930 . S
H2139 C2118 0.930 . S
H2140 C2151 0.931 . S
N2141 Tb2112 2.617 . S
N2141 C2142 1.379 . S
N2141 C2145 1.334 . S
C2142 N2141 1.379 . S
C2142 C2144 1.416 . S
C2142 C2150 1.424 . S
C2143 H2138 0.930 . S
C2143 C2145 1.390 . S
C2143 C2146 1.339 . S
C2144 C2142 1.416 . S
C2144 C2146 1.416 . S
C2144 C2177 1.448 . S
C2145 H2130 0.930 . S
C2145 N2141 1.334 . S
C2145 C2143 1.390 . S
C2146 C2143 1.339 . S
C2146 C2144 1.416 . S
C2146 H2153 0.930 . S
N2147 Tb2112 2.572 . S
N2147 C2148 1.340 . S
N2147 C2150 1.361 . S
C2148 H2134 0.930 1_554 S
C2148 N2147 1.340 . S
C2148 C2152 1.418 . S
C2149 C2150 1.413 . S
C2149 C2151 1.416 . S
C2149 C2178 1.427 . S
C2150 C2142 1.424 . S
C2150 N2147 1.361 . S
C2150 C2149 1.413 . S
C2151 H2140 0.931 . S
C2151 C2149 1.416 . S
C2151 C2152 1.344 . S
C2152 H2131 0.907 1_554 S
C2152 C2148 1.418 . S
C2152 C2151 1.344 . S
H2153 C2146 0.930 . S
H2154 C2177 0.930 . S
H2155 C2178 0.929 . S
O2156 Tb2112 2.465 . S
O2156 C2176 1.264 . S
O2157 Tb2112 2.387 . S
O2157 C2168 1.264 . S
O2158 Tb2123 2.349 1_455 S
O2158 C2168 1.243 . S
O2159 Tb2112 2.428 . S
O2159 C2176 1.256 . S
O2160 Tb2112 2.308 . S
O2160 C2175 1.266 1_554 S
O2161 Tb2123 2.393 1_456 S
O2161 C2175 1.248 . S
O2162 Tb2123 2.465 . S
O2162 C2187 1.293 . S
O2163 Tb2123 2.387 1_465 S
O2163 C2179 1.264 . S
O2164 Tb2112 2.285 1_565 S
O2164 C2179 1.281 . S
O2165 Tb2123 2.428 1_556 S
O2165 C2187 1.231 1_556 S
O2166 Tb2123 2.308 1_455 S
O2166 C2186 1.266 . S
O2167 Tb2112 2.393 . S
O2167 C2186 1.248 . S
C2168 O2157 1.264 . S
C2168 O2158 1.243 . S
C2169 C2172 1.399 . S
C2169 C2174 1.383 . S
C2169 C2176 1.496 . S
C2170 C2171 1.399 . S
C2170 C2174 1.389 1_565 S
C2171 C2170 1.399 . S
C2171 C2173 1.380 1_565 S
C2171 H2188 0.929 . S
C2172 C2169 1.399 . S
C2172 C2173 1.392 . S
C2172 H2189 0.929 . S
C2173 C2171 1.380 1_545 S
C2173 C2172 1.392 . S
C2173 H2190 0.929 . S
C2174 C2169 1.383 . S
C2174 C2170 1.389 1_545 S
C2174 H2191 0.931 . S
C2175 O2160 1.266 1_556 S
C2175 O2161 1.248 . S
C2176 Tb2112 2.802 . S
C2176 O2156 1.264 . S
C2176 O2159 1.256 . S
C2176 C2169 1.496 . S
C2177 C2144 1.448 . S
C2177 H2154 0.930 . S
C2177 C2178 1.328 . S
C2178 C2149 1.427 . S
C2178 H2155 0.929 . S
C2178 C2177 1.328 . S
C2179 O2163 1.264 . S
C2179 O2164 1.281 . S
C2180 C2183 1.399 . S
C2180 C2184 1.383 1_556 S
C2180 C2187 1.492 1_556 S
C2181 C2182 1.399 1_554 S
C2181 C2184 1.389 . S
C2182 C2181 1.399 1_556 S
C2182 C2185 1.380 . S
C2182 H2192 0.929 . S
C2183 C2180 1.399 . S
C2183 C2185 1.392 . S
C2183 H2193 0.929 . S
C2184 C2180 1.383 1_554 S
C2184 C2181 1.389 . S
C2184 H2194 0.931 . S
C2185 C2182 1.380 . S
C2185 C2183 1.392 . S
C2185 H2195 0.929 . S
C2186 O2166 1.266 . S
C2186 O2167 1.248 . S
C2187 Tb2123 2.806 . S
C2187 O2162 1.293 . S
C2187 O2165 1.231 1_554 S
C2187 C2180 1.492 1_554 S
H2188 C2171 0.929 . S
H2189 C2172 0.929 . S
H2190 C2173 0.929 . S
H2191 C2174 0.931 . S
H2192 C2182 0.929 . S
H2193 C2183 0.929 . S
H2194 C2184 0.931 . S
H2195 C2185 0.929 . S
Tb2196 N2225 2.617 . S
Tb2196 N2231 2.572 . S
Tb2196 O2240 2.465 . S
Tb2196 O2241 2.387 . S
Tb2196 O2243 2.428 . S
Tb2196 O2244 2.308 . S
Tb2196 O2248 2.349 . S
Tb2196 O2251 2.393 . S
Tb2196 C2260 2.802 . S
C2197 N2198 1.379 . S
C2197 C2200 1.416 . S
C2197 C2204 1.424 . S
N2198 C2197 1.379 . S
N2198 C2201 1.334 . S
N2198 Tb2207 2.617 . S
C2199 C2201 1.390 . S
C2199 C2202 1.339 . S
C2199 H2219 0.930 . S
C2200 C2197 1.416 . S
C2200 C2202 1.416 . S
C2200 C2206 1.448 . S
C2201 N2198 1.334 . S
C2201 C2199 1.390 . S
C2201 H2212 0.930 . S
C2202 C2199 1.339 . S
C2202 C2200 1.416 . S
C2202 H2223 0.930 . S
C2203 C2204 1.413 . S
C2203 C2205 1.427 . S
C2203 C2209 1.416 . S
C2204 C2197 1.424 . S
C2204 C2203 1.413 . S
C2204 N2208 1.361 . S
C2205 C2203 1.427 . S
C2205 C2206 1.328 . S
C2205 H2220 0.929 . S
C2206 C2200 1.448 . S
C2206 C2205 1.328 . S
C2206 H2221 0.930 . S
Tb2207 N2198 2.617 . S
Tb2207 N2208 2.572 . S
Tb2207 O2242 2.349 . S
Tb2207 O2245 2.393 . S
Tb2207 O2246 2.465 . S
Tb2207 O2247 2.387 . S
Tb2207 O2249 2.428 . S
Tb2207 O2250 2.308 . S
Tb2207 C2271 2.802 . S
N2208 C2204 1.361 . S
N2208 Tb2207 2.572 . S
N2208 C2210 1.340 . S
C2209 C2203 1.416 . S
C2209 C2211 1.332 . S
C2209 H2217 0.931 . S
C2210 N2208 1.340 . S
C2210 C2211 1.407 . S
C2210 H2216 0.930 . S
C2211 C2209 1.332 . S
C2211 C2210 1.407 . S
C2211 H2213 0.929 . S
H2212 C2201 0.930 . S
H2213 C2211 0.929 . S
H2214 C2229 0.930 . S
H2215 C2236 0.929 . S
H2216 C2210 0.930 . S
H2217 C2209 0.931 . S
H2218 C2232 0.930 . S
H2219 C2199 0.930 . S
H2220 C2205 0.929 . S
H2221 C2206 0.930 . S
H2222 C2227 0.930 . S
H2223 C2202 0.930 . S
H2224 C2235 0.931 . S
N2225 Tb2196 2.617 . S
N2225 C2226 1.379 . S
N2225 C2229 1.334 . S
C2226 N2225 1.379 . S
C2226 C2228 1.416 . S
C2226 C2234 1.424 . S
C2227 H2222 0.930 . S
C2227 C2229 1.390 . S
C2227 C2230 1.339 . S
C2228 C2226 1.416 . S
C2228 C2230 1.416 . S
C2228 C2261 1.448 . S
C2229 H2214 0.930 . S
C2229 N2225 1.334 . S
C2229 C2227 1.390 . S
C2230 C2227 1.339 . S
C2230 C2228 1.416 . S
C2230 H2237 0.930 . S
N2231 Tb2196 2.572 . S
N2231 C2232 1.340 . S
N2231 C2234 1.361 . S
C2232 H2218 0.930 . S
C2232 N2231 1.340 . S
C2232 C2236 1.407 . S
C2233 C2234 1.413 . S
C2233 C2235 1.416 . S
C2233 C2262 1.427 . S
C2234 C2226 1.424 . S
C2234 N2231 1.361 . S
C2234 C2233 1.413 . S
C2235 H2224 0.931 . S
C2235 C2233 1.416 . S
C2235 C2236 1.332 . S
C2236 H2215 0.929 . S
C2236 C2232 1.407 . S
C2236 C2235 1.332 . S
H2237 C2230 0.930 . S
H2238 C2261 0.930 . S
H2239 C2262 0.929 . S
O2240 Tb2196 2.465 . S
O2240 C2260 1.264 . S
O2241 Tb2196 2.387 . S
O2241 C2252 1.264 . S
O2242 Tb2207 2.349 . S
O2242 C2252 1.243 . S
O2243 Tb2196 2.428 . S
O2243 C2260 1.256 . S
O2244 Tb2196 2.308 . S
O2244 C2259 1.266 . S
O2245 Tb2207 2.393 . S
O2245 C2259 1.248 . S
O2246 Tb2207 2.465 . S
O2246 C2271 1.264 . S
O2247 Tb2207 2.387 . S
O2247 C2263 1.264 . S
O2248 Tb2196 2.349 . S
O2248 C2263 1.243 . S
O2249 Tb2207 2.428 . S
O2249 C2271 1.256 . S
O2250 Tb2207 2.308 . S
O2250 C2270 1.266 . S
O2251 Tb2196 2.393 . S
O2251 C2270 1.248 . S
C2252 O2241 1.264 . S
C2252 O2242 1.243 . S
C2253 C2256 1.399 . S
C2253 C2258 1.383 . S
C2253 C2260 1.496 . S
C2254 C2255 1.399 . S
C2254 C2258 1.389 . S
C2255 C2254 1.399 . S
C2255 C2257 1.380 . S
C2255 H2272 0.929 . S
C2256 C2253 1.399 . S
C2256 C2257 1.392 . S
C2256 H2273 0.929 . S
C2257 C2255 1.380 . S
C2257 C2256 1.392 . S
C2257 H2274 0.929 . S
C2258 C2253 1.383 . S
C2258 C2254 1.389 . S
C2258 H2275 0.931 . S
C2259 O2244 1.266 . S
C2259 O2245 1.248 . S
C2260 Tb2196 2.802 . S
C2260 O2240 1.264 . S
C2260 O2243 1.256 . S
C2260 C2253 1.496 . S
C2261 C2228 1.448 . S
C2261 H2238 0.930 . S
C2261 C2262 1.328 . S
C2262 C2233 1.427 . S
C2262 H2239 0.929 . S
C2262 C2261 1.328 . S
C2263 O2247 1.264 . S
C2263 O2248 1.243 . S
C2264 C2267 1.399 . S
C2264 C2268 1.383 . S
C2264 C2271 1.496 . S
C2265 C2266 1.399 . S
C2265 C2268 1.389 . S
C2266 C2265 1.399 . S
C2266 C2269 1.380 . S
C2266 H2276 0.929 . S
C2267 C2264 1.399 . S
C2267 C2269 1.392 . S
C2267 H2277 0.929 . S
C2268 C2264 1.383 . S
C2268 C2265 1.389 . S
C2268 H2278 0.931 . S
C2269 C2266 1.380 . S
C2269 C2267 1.392 . S
C2269 H2279 0.929 . S
C2270 O2250 1.266 . S
C2270 O2251 1.248 . S
C2271 Tb2207 2.802 . S
C2271 O2246 1.264 . S
C2271 O2249 1.256 . S
C2271 C2264 1.496 . S
H2272 C2255 0.929 . S
H2273 C2256 0.929 . S
H2274 C2257 0.929 . S
H2275 C2258 0.931 . S
H2276 C2266 0.929 . S
H2277 C2267 0.929 . S
H2278 C2268 0.931 . S
H2279 C2269 0.929 . S
Tb2280 N2309 2.617 1_545 S
Tb2280 N2315 2.572 1_545 S
Tb2280 O2324 2.465 . S
Tb2280 O2325 2.387 1_545 S
Tb2280 O2327 2.428 . S
Tb2280 O2328 2.308 . S
Tb2280 O2332 2.349 . S
Tb2280 O2335 2.393 . S
Tb2280 C2344 2.802 . S
C2281 N2282 1.379 . S
C2281 C2284 1.416 . S
C2281 C2288 1.424 . S
N2282 C2281 1.379 . S
N2282 C2285 1.334 . S
N2282 Tb2291 2.617 . S
C2283 C2285 1.390 . S
C2283 C2286 1.339 . S
C2283 H2303 0.930 . S
C2284 C2281 1.416 . S
C2284 C2286 1.416 . S
C2284 C2290 1.448 . S
C2285 N2282 1.334 . S
C2285 C2283 1.390 . S
C2285 H2296 0.930 . S
C2286 C2283 1.339 . S
C2286 C2284 1.416 . S
C2286 H2307 0.930 . S
C2287 C2288 1.413 . S
C2287 C2289 1.427 . S
C2287 C2293 1.416 . S
C2288 C2281 1.424 . S
C2288 C2287 1.413 . S
C2288 N2292 1.361 . S
C2289 C2287 1.427 . S
C2289 C2290 1.328 . S
C2289 H2304 0.929 . S
C2290 C2284 1.448 . S
C2290 C2289 1.328 . S
C2290 H2305 0.930 . S
Tb2291 N2282 2.617 . S
Tb2291 N2292 2.572 . S
Tb2291 O2326 2.349 1_545 S
Tb2291 O2329 2.393 . S
Tb2291 O2330 2.465 . S
Tb2291 O2331 2.387 . S
Tb2291 O2333 2.428 . S
Tb2291 O2334 2.308 . S
Tb2291 C2355 2.802 . S
N2292 C2288 1.361 . S
N2292 Tb2291 2.572 . S
N2292 C2294 1.340 . S
C2293 C2287 1.416 . S
C2293 C2295 1.332 . S
C2293 H2301 0.931 . S
C2294 N2292 1.340 . S
C2294 C2295 1.407 . S
C2294 H2300 0.930 . S
C2295 C2293 1.332 . S
C2295 C2294 1.407 . S
C2295 H2297 0.929 . S
H2296 C2285 0.930 . S
H2297 C2295 0.929 . S
H2298 C2313 0.880 1_545 S
H2299 C2320 0.929 . S
H2300 C2294 0.930 . S
H2301 C2293 0.931 . S
H2302 C2316 0.970 . S
H2303 C2283 0.930 . S
H2304 C2289 0.929 . S
H2305 C2290 0.930 . S
H2306 C2311 0.930 . S
H2307 C2286 0.930 . S
H2308 C2319 0.931 . S
N2309 Tb2280 2.617 1_565 S
N2309 C2310 1.379 . S
N2309 C2313 1.333 . S
C2310 N2309 1.379 . S
C2310 C2312 1.416 . S
C2310 C2318 1.424 . S
C2311 H2306 0.930 . S
C2311 C2313 1.445 . S
C2311 C2314 1.339 . S
C2312 C2310 1.416 . S
C2312 C2314 1.416 . S
C2312 C2345 1.448 . S
C2313 H2298 0.880 1_565 S
C2313 N2309 1.333 . S
C2313 C2311 1.445 . S
C2314 C2311 1.339 . S
C2314 C2312 1.416 . S
C2314 H2321 0.930 . S
N2315 Tb2280 2.572 1_565 S
N2315 C2316 1.340 . S
N2315 C2318 1.361 . S
C2316 H2302 0.970 . S
C2316 N2315 1.340 . S
C2316 C2320 1.407 . S
C2317 C2318 1.413 . S
C2317 C2319 1.416 . S
C2317 C2346 1.427 . S
C2318 C2310 1.424 . S
C2318 N2315 1.361 . S
C2318 C2317 1.413 . S
C2319 H2308 0.931 . S
C2319 C2317 1.416 . S
C2319 C2320 1.332 . S
C2320 H2299 0.929 . S
C2320 C2316 1.407 . S
C2320 C2319 1.332 . S
H2321 C2314 0.930 . S
H2322 C2345 0.930 . S
H2323 C2346 0.929 . S
O2324 Tb2280 2.465 . S
O2324 C2344 1.264 . S
O2325 Tb2280 2.387 1_565 S
O2325 C2336 1.264 . S
O2326 Tb2291 2.349 1_565 S
O2326 C2336 1.243 . S
O2327 Tb2280 2.428 . S
O2327 C2344 1.256 . S
O2328 Tb2280 2.308 . S
O2328 C2343 1.266 . S
O2329 Tb2291 2.393 . S
O2329 C2343 1.248 . S
O2330 Tb2291 2.465 . S
O2330 C2355 1.264 . S
O2331 Tb2291 2.387 . S
O2331 C2347 1.264 . S
O2332 Tb2280 2.349 . S
O2332 C2347 1.243 . S
O2333 Tb2291 2.428 . S
O2333 C2355 1.256 . S
O2334 Tb2291 2.308 . S
O2334 C2354 1.266 . S
O2335 Tb2280 2.393 . S
O2335 C2354 1.248 . S
C2336 O2325 1.264 . S
C2336 O2326 1.243 . S
C2337 C2340 1.399 . S
C2337 C2342 1.383 . S
C2337 C2344 1.496 . S
C2338 C2339 1.399 . S
C2338 C2342 1.389 . S
C2339 C2338 1.399 . S
C2339 C2341 1.380 . S
C2339 H2356 0.929 . S
C2340 C2337 1.399 . S
C2340 C2341 1.392 . S
C2340 H2357 0.929 . S
C2341 C2339 1.380 . S
C2341 C2340 1.392 . S
C2341 H2358 0.929 . S
C2342 C2337 1.383 . S
C2342 C2338 1.389 . S
C2342 H2359 0.931 . S
C2343 O2328 1.266 . S
C2343 O2329 1.248 . S
C2344 Tb2280 2.802 . S
C2344 O2324 1.264 . S
C2344 O2327 1.256 . S
C2344 C2337 1.496 . S
C2345 C2312 1.448 . S
C2345 H2322 0.930 . S
C2345 C2346 1.328 . S
C2346 C2317 1.427 . S
C2346 H2323 0.929 . S
C2346 C2345 1.328 . S
C2347 O2331 1.264 . S
C2347 O2332 1.243 . S
C2348 C2351 1.399 . S
C2348 C2352 1.383 . S
C2348 C2355 1.496 1_565 S
C2349 C2350 1.399 . S
C2349 C2352 1.389 . S
C2350 C2349 1.399 . S
C2350 C2353 1.380 . S
C2350 H2360 0.929 . S
C2351 C2348 1.399 . S
C2351 C2353 1.392 . S
C2351 H2361 0.929 . S
C2352 C2348 1.383 . S
C2352 C2349 1.389 . S
C2352 H2362 0.931 . S
C2353 C2350 1.380 . S
C2353 C2351 1.392 . S
C2353 H2363 0.929 . S
C2354 O2334 1.266 . S
C2354 O2335 1.248 . S
C2355 Tb2291 2.802 . S
C2355 O2330 1.264 . S
C2355 O2333 1.256 . S
C2355 C2348 1.496 1_545 S
H2356 C2339 0.929 . S
H2357 C2340 0.929 . S
H2358 C2341 0.929 . S
H2359 C2342 0.931 . S
H2360 C2350 0.929 . S
H2361 C2351 0.929 . S
H2362 C2352 0.931 . S
H2363 C2353 0.929 . S
Tb2364 N2393 2.617 . S
Tb2364 N2399 2.572 . S
Tb2364 O2408 2.465 . S
Tb2364 O2409 2.387 . S
Tb2364 O2411 2.428 . S
Tb2364 O2412 2.308 . S
Tb2364 O2416 2.349 . S
Tb2364 O2419 2.393 . S
Tb2364 C2428 2.802 . S
C2365 N2366 1.379 . S
C2365 C2368 1.416 . S
C2365 C2372 1.424 . S
N2366 C2365 1.379 . S
N2366 C2369 1.334 . S
N2366 Tb2375 2.617 . S
C2367 C2369 1.390 . S
C2367 C2370 1.339 . S
C2367 H2387 0.930 . S
C2368 C2365 1.416 . S
C2368 C2370 1.416 . S
C2368 C2374 1.448 . S
C2369 N2366 1.334 . S
C2369 C2367 1.390 . S
C2369 H2380 0.930 . S
C2370 C2367 1.339 . S
C2370 C2368 1.416 . S
C2370 H2391 0.930 . S
C2371 C2372 1.413 . S
C2371 C2373 1.427 . S
C2371 C2377 1.416 . S
C2372 C2365 1.424 . S
C2372 C2371 1.413 . S
C2372 N2376 1.361 . S
C2373 C2371 1.427 . S
C2373 C2374 1.328 . S
C2373 H2388 0.929 . S
C2374 C2368 1.448 . S
C2374 C2373 1.328 . S
C2374 H2389 0.930 . S
Tb2375 N2366 2.617 . S
Tb2375 N2376 2.572 . S
Tb2375 O2410 2.349 . S
Tb2375 O2413 2.393 . S
Tb2375 O2414 2.465 . S
Tb2375 O2415 2.387 . S
Tb2375 O2417 2.428 . S
Tb2375 O2418 2.308 . S
Tb2375 C2439 2.802 . S
N2376 C2372 1.361 . S
N2376 Tb2375 2.572 . S
N2376 C2378 1.340 . S
C2377 C2371 1.416 . S
C2377 C2379 1.332 . S
C2377 H2385 0.931 . S
C2378 N2376 1.340 . S
C2378 C2379 1.407 . S
C2378 H2384 0.930 . S
C2379 C2377 1.332 . S
C2379 C2378 1.407 . S
C2379 H2381 0.929 . S
H2380 C2369 0.930 . S
H2381 C2379 0.929 . S
H2382 C2397 0.930 . S
H2383 C2404 0.929 . S
H2384 C2378 0.930 . S
H2385 C2377 0.931 . S
H2386 C2400 0.930 . S
H2387 C2367 0.930 . S
H2388 C2373 0.929 . S
H2389 C2374 0.930 . S
H2390 C2395 0.930 . S
H2391 C2370 0.930 . S
H2392 C2403 0.931 . S
N2393 Tb2364 2.617 . S
N2393 C2394 1.379 . S
N2393 C2397 1.334 . S
C2394 N2393 1.379 . S
C2394 C2396 1.416 . S
C2394 C2402 1.424 . S
C2395 H2390 0.930 . S
C2395 C2397 1.390 . S
C2395 C2398 1.339 . S
C2396 C2394 1.416 . S
C2396 C2398 1.416 . S
C2396 C2429 1.448 . S
C2397 H2382 0.930 . S
C2397 N2393 1.334 . S
C2397 C2395 1.390 . S
C2398 C2395 1.339 . S
C2398 C2396 1.416 . S
C2398 H2405 0.930 . S
N2399 Tb2364 2.572 . S
N2399 C2400 1.340 . S
N2399 C2402 1.361 . S
C2400 H2386 0.930 . S
C2400 N2399 1.340 . S
C2400 C2404 1.407 . S
C2401 C2402 1.413 . S
C2401 C2403 1.416 . S
C2401 C2430 1.427 . S
C2402 C2394 1.424 . S
C2402 N2399 1.361 . S
C2402 C2401 1.413 . S
C2403 H2392 0.931 . S
C2403 C2401 1.416 . S
C2403 C2404 1.332 . S
C2404 H2383 0.929 . S
C2404 C2400 1.407 . S
C2404 C2403 1.332 . S
H2405 C2398 0.930 . S
H2406 C2429 0.930 . S
H2407 C2430 0.929 . S
O2408 Tb2364 2.465 . S
O2408 C2428 1.264 . S
O2409 Tb2364 2.387 . S
O2409 C2420 1.264 . S
O2410 Tb2375 2.349 . S
O2410 C2420 1.243 . S
O2411 Tb2364 2.428 . S
O2411 C2428 1.256 . S
O2412 Tb2364 2.308 . S
O2412 C2427 1.266 . S
O2413 Tb2375 2.393 . S
O2413 C2427 1.248 . S
O2414 Tb2375 2.465 . S
O2414 C2439 1.264 . S
O2415 Tb2375 2.387 . S
O2415 C2431 1.264 . S
O2416 Tb2364 2.349 . S
O2416 C2431 1.243 . S
O2417 Tb2375 2.428 . S
O2417 C2439 1.256 . S
O2418 Tb2375 2.308 . S
O2418 C2438 1.266 . S
O2419 Tb2364 2.393 . S
O2419 C2438 1.248 . S
C2420 O2409 1.264 . S
C2420 O2410 1.243 . S
C2421 C2424 1.399 . S
C2421 C2426 1.383 . S
C2421 C2428 1.496 . S
C2422 C2423 1.399 . S
C2422 C2426 1.389 . S
C2423 C2422 1.399 . S
C2423 C2425 1.380 . S
C2423 H2440 0.929 . S
C2424 C2421 1.399 . S
C2424 C2425 1.392 . S
C2424 H2441 0.929 . S
C2425 C2423 1.380 . S
C2425 C2424 1.392 . S
C2425 H2442 0.929 . S
C2426 C2421 1.383 . S
C2426 C2422 1.389 . S
C2426 H2443 0.931 . S
C2427 O2412 1.266 . S
C2427 O2413 1.248 . S
C2428 Tb2364 2.802 . S
C2428 O2408 1.264 . S
C2428 O2411 1.256 . S
C2428 C2421 1.496 . S
C2429 C2396 1.448 . S
C2429 H2406 0.930 . S
C2429 C2430 1.328 . S
C2430 C2401 1.427 . S
C2430 H2407 0.929 . S
C2430 C2429 1.328 . S
C2431 O2415 1.264 . S
C2431 O2416 1.243 . S
C2432 C2435 1.399 . S
C2432 C2436 1.383 . S
C2432 C2439 1.496 . S
C2433 C2434 1.399 . S
C2433 C2436 1.389 . S
C2434 C2433 1.399 . S
C2434 C2437 1.380 . S
C2434 H2444 0.929 . S
C2435 C2432 1.399 . S
C2435 C2437 1.392 . S
C2435 H2445 0.929 . S
C2436 C2432 1.383 . S
C2436 C2433 1.389 . S
C2436 H2446 0.931 . S
C2437 C2434 1.380 . S
C2437 C2435 1.392 . S
C2437 H2447 0.929 . S
C2438 O2418 1.266 . S
C2438 O2419 1.248 . S
C2439 Tb2375 2.802 . S
C2439 O2414 1.264 . S
C2439 O2417 1.256 . S
C2439 C2432 1.496 . S
H2440 C2423 0.929 . S
H2441 C2424 0.929 . S
H2442 C2425 0.929 . S
H2443 C2426 0.931 . S
H2444 C2434 0.929 . S
H2445 C2435 0.929 . S
H2446 C2436 0.931 . S
H2447 C2437 0.929 . S
Tb2448 N2477 2.617 . S
Tb2448 N2483 2.572 . S
Tb2448 O2492 2.465 . S
Tb2448 O2493 2.387 1_565 S
Tb2448 O2495 2.428 . S
Tb2448 O2496 2.288 1_565 S
Tb2448 O2500 2.349 1_565 S
Tb2448 O2503 2.393 1_565 S
Tb2448 C2512 2.802 . S
C2449 N2450 1.379 1_455 S
C2449 C2452 1.416 1_455 S
C2449 C2456 1.424 . S
N2450 C2449 1.379 1_655 S
N2450 C2453 1.334 . S
N2450 Tb2459 2.617 1_655 S
C2451 C2453 1.390 . S
C2451 C2454 1.339 . S
C2451 H2471 0.930 . S
C2452 C2449 1.416 1_655 S
C2452 C2454 1.416 . S
C2452 C2458 1.448 1_655 S
C2453 N2450 1.334 . S
C2453 C2451 1.390 . S
C2453 H2464 0.930 . S
C2454 C2451 1.339 . S
C2454 C2452 1.416 . S
C2454 H2475 0.930 . S
C2455 C2456 1.413 . S
C2455 C2457 1.427 . S
C2455 C2461 1.416 . S
C2456 C2449 1.424 . S
C2456 C2455 1.413 . S
C2456 N2460 1.361 . S
C2457 C2455 1.427 . S
C2457 C2458 1.328 . S
C2457 H2472 0.929 . S
C2458 C2452 1.448 1_455 S
C2458 C2457 1.328 . S
C2458 H2473 0.930 1_455 S
Tb2459 N2450 2.617 1_455 S
Tb2459 N2460 2.572 . S
Tb2459 O2494 2.349 . S
Tb2459 O2497 2.393 1_455 S
Tb2459 O2498 2.465 . S
Tb2459 O2499 2.387 . S
Tb2459 O2501 2.428 1_455 S
Tb2459 O2502 2.308 . S
Tb2459 C2523 2.802 . S
N2460 C2456 1.361 . S
N2460 Tb2459 2.572 . S
N2460 C2462 1.340 . S
C2461 C2455 1.416 . S
C2461 C2463 1.332 . S
C2461 H2469 0.931 . S
C2462 N2460 1.340 . S
C2462 C2463 1.407 . S
C2462 H2468 0.930 . S
C2463 C2461 1.332 . S
C2463 C2462 1.407 . S
C2463 H2465 0.929 . S
H2464 C2453 0.930 . S
H2465 C2463 0.929 . S
H2466 C2481 0.930 1_545 S
H2467 C2488 0.929 . S
H2468 C2462 0.930 . S
H2469 C2461 0.931 . S
H2470 C2484 0.910 1_655 S
H2471 C2451 0.930 . S
H2472 C2457 0.929 . S
H2473 C2458 0.930 1_655 S
H2474 C2479 0.930 . S
H2475 C2454 0.930 . S
H2476 C2487 0.947 . S
N2477 Tb2448 2.617 . S
N2477 C2478 1.379 . S
N2477 C2481 1.334 . S
C2478 N2477 1.379 . S
C2478 C2480 1.416 . S
C2478 C2486 1.424 . S
C2479 H2474 0.930 . S
C2479 C2481 1.390 . S
C2479 C2482 1.339 . S
C2480 C2478 1.416 . S
C2480 C2482 1.416 . S
C2480 C2513 1.448 . S
C2481 H2466 0.930 1_565 S
C2481 N2477 1.334 . S
C2481 C2479 1.390 . S
C2482 C2479 1.339 . S
C2482 C2480 1.416 . S
C2482 H2489 0.930 . S
N2483 Tb2448 2.572 . S
N2483 C2484 1.371 . S
N2483 C2486 1.361 . S
C2484 H2470 0.910 1_455 S
C2484 N2483 1.371 . S
C2484 C2488 1.397 1_455 S
C2485 C2486 1.413 . S
C2485 C2487 1.374 1_455 S
C2485 C2514 1.427 . S
C2486 C2478 1.424 . S
C2486 N2483 1.361 . S
C2486 C2485 1.413 . S
C2487 H2476 0.947 . S
C2487 C2485 1.374 1_655 S
C2487 C2488 1.360 . S
C2488 H2467 0.929 . S
C2488 C2484 1.397 1_655 S
C2488 C2487 1.360 . S
H2489 C2482 0.930 . S
H2490 C2513 0.930 . S
H2491 C2514 0.929 . S
O2492 Tb2448 2.465 . S
O2492 C2512 1.264 . S
O2493 Tb2448 2.387 1_545 S
O2493 C2504 1.264 . S
O2494 Tb2459 2.349 . S
O2494 C2504 1.243 . S
O2495 Tb2448 2.428 . S
O2495 C2512 1.256 . S
O2496 Tb2448 2.288 1_545 S
O2496 C2511 1.300 1_455 S
O2497 Tb2459 2.393 1_655 S
O2497 C2511 1.248 . S
O2498 Tb2459 2.465 . S
O2498 C2523 1.264 . S
O2499 Tb2459 2.387 . S
O2499 C2515 1.264 . S
O2500 Tb2448 2.349 1_545 S
O2500 C2515 1.243 . S
O2501 Tb2459 2.428 1_655 S
O2501 C2523 1.256 1_655 S
O2502 Tb2459 2.308 . S
O2502 C2522 1.266 . S
O2503 Tb2448 2.393 1_545 S
O2503 C2522 1.248 . S
C2504 O2493 1.264 . S
C2504 O2494 1.243 . S
C2505 C2508 1.399 . S
C2505 C2510 1.383 . S
C2505 C2512 1.496 . S
C2506 C2507 1.399 . S
C2506 C2510 1.389 . S
C2507 C2506 1.399 . S
C2507 C2509 1.380 . S
C2507 H2524 0.929 . S
C2508 C2505 1.399 . S
C2508 C2509 1.392 . S
C2508 H2525 0.929 . S
C2509 C2507 1.380 . S
C2509 C2508 1.392 . S
C2509 H2526 0.929 . S
C2510 C2505 1.383 . S
C2510 C2506 1.389 . S
C2510 H2527 0.931 . S
C2511 O2496 1.300 1_655 S
C2511 O2497 1.248 . S
C2512 Tb2448 2.802 . S
C2512 O2492 1.264 . S
C2512 O2495 1.256 . S
C2512 C2505 1.496 . S
C2513 C2480 1.448 . S
C2513 H2490 0.930 . S
C2513 C2514 1.328 . S
C2514 C2485 1.427 . S
C2514 H2491 0.929 . S
C2514 C2513 1.328 . S
C2515 O2499 1.264 . S
C2515 O2500 1.243 . S
C2516 C2519 1.399 1_455 S
C2516 C2520 1.383 . S
C2516 C2523 1.496 . S
C2517 C2518 1.356 1_455 S
C2517 C2520 1.389 . S
C2518 C2517 1.356 1_655 S
C2518 C2521 1.411 . S
C2518 H2528 0.942 . S
C2519 C2516 1.399 1_655 S
C2519 C2521 1.392 . S
C2519 H2529 0.929 . S
C2520 C2516 1.383 . S
C2520 C2517 1.389 . S
C2520 H2530 0.931 . S
C2521 C2518 1.411 . S
C2521 C2519 1.392 . S
C2521 H2531 0.929 . S
C2522 O2502 1.266 . S
C2522 O2503 1.248 . S
C2523 Tb2459 2.802 . S
C2523 O2498 1.264 . S
C2523 O2501 1.256 1_455 S
C2523 C2516 1.496 . S
H2524 C2507 0.929 . S
H2525 C2508 0.929 . S
H2526 C2509 0.929 . S
H2527 C2510 0.931 . S
H2528 C2518 0.942 . S
H2529 C2519 0.929 . S
H2530 C2520 0.931 . S
H2531 C2521 0.929 . S
Tb2532 N2561 2.617 . S
Tb2532 N2567 2.572 . S
Tb2532 O2576 2.465 . S
Tb2532 O2577 2.387 . S
Tb2532 O2579 2.428 . S
Tb2532 O2580 2.308 . S
Tb2532 O2584 2.349 . S
Tb2532 O2587 2.393 . S
Tb2532 C2596 2.802 . S
C2533 N2534 1.379 . S
C2533 C2536 1.416 . S
C2533 C2540 1.424 . S
N2534 C2533 1.379 . S
N2534 C2537 1.334 . S
N2534 Tb2543 2.617 . S
C2535 C2537 1.390 . S
C2535 C2538 1.339 . S
C2535 H2555 0.930 . S
C2536 C2533 1.416 . S
C2536 C2538 1.416 . S
C2536 C2542 1.448 . S
C2537 N2534 1.334 . S
C2537 C2535 1.390 . S
C2537 H2548 0.930 . S
C2538 C2535 1.339 . S
C2538 C2536 1.416 . S
C2538 H2559 0.930 . S
C2539 C2540 1.413 . S
C2539 C2541 1.427 . S
C2539 C2545 1.416 . S
C2540 C2533 1.424 . S
C2540 C2539 1.413 . S
C2540 N2544 1.361 . S
C2541 C2539 1.427 . S
C2541 C2542 1.328 . S
C2541 H2556 0.929 . S
C2542 C2536 1.448 . S
C2542 C2541 1.328 . S
C2542 H2557 0.930 . S
Tb2543 N2534 2.617 . S
Tb2543 N2544 2.572 . S
Tb2543 O2578 2.349 . S
Tb2543 O2581 2.393 . S
Tb2543 O2582 2.465 . S
Tb2543 O2583 2.387 . S
Tb2543 O2585 2.428 . S
Tb2543 O2586 2.308 . S
Tb2543 C2607 2.802 . S
N2544 C2540 1.361 . S
N2544 Tb2543 2.572 . S
N2544 C2546 1.340 . S
C2545 C2539 1.416 . S
C2545 C2547 1.332 . S
C2545 H2553 0.931 . S
C2546 N2544 1.340 . S
C2546 C2547 1.407 . S
C2546 H2552 0.930 . S
C2547 C2545 1.332 . S
C2547 C2546 1.407 . S
C2547 H2549 0.929 . S
H2548 C2537 0.930 . S
H2549 C2547 0.929 . S
H2550 C2565 0.930 . S
H2551 C2572 0.929 . S
H2552 C2546 0.930 . S
H2553 C2545 0.931 . S
H2554 C2568 0.930 . S
H2555 C2535 0.930 . S
H2556 C2541 0.929 . S
H2557 C2542 0.930 . S
H2558 C2563 0.930 . S
H2559 C2538 0.930 . S
H2560 C2571 0.931 . S
N2561 Tb2532 2.617 . S
N2561 C2562 1.379 . S
N2561 C2565 1.334 . S
C2562 N2561 1.379 . S
C2562 C2564 1.416 . S
C2562 C2570 1.424 . S
C2563 H2558 0.930 . S
C2563 C2565 1.390 . S
C2563 C2566 1.339 . S
C2564 C2562 1.416 . S
C2564 C2566 1.416 . S
C2564 C2597 1.448 . S
C2565 H2550 0.930 . S
C2565 N2561 1.334 . S
C2565 C2563 1.390 . S
C2566 C2563 1.339 . S
C2566 C2564 1.416 . S
C2566 H2573 0.930 . S
N2567 Tb2532 2.572 . S
N2567 C2568 1.340 . S
N2567 C2570 1.361 . S
C2568 H2554 0.930 . S
C2568 N2567 1.340 . S
C2568 C2572 1.407 . S
C2569 C2570 1.413 . S
C2569 C2571 1.416 . S
C2569 C2598 1.427 . S
C2570 C2562 1.424 . S
C2570 N2567 1.361 . S
C2570 C2569 1.413 . S
C2571 H2560 0.931 . S
C2571 C2569 1.416 . S
C2571 C2572 1.332 . S
C2572 H2551 0.929 . S
C2572 C2568 1.407 . S
C2572 C2571 1.332 . S
H2573 C2566 0.930 . S
H2574 C2597 0.930 . S
H2575 C2598 0.929 . S
O2576 Tb2532 2.465 . S
O2576 C2596 1.264 . S
O2577 Tb2532 2.387 . S
O2577 C2588 1.264 . S
O2578 Tb2543 2.349 . S
O2578 C2588 1.243 . S
O2579 Tb2532 2.428 . S
O2579 C2596 1.256 . S
O2580 Tb2532 2.308 . S
O2580 C2595 1.266 . S
O2581 Tb2543 2.393 . S
O2581 C2595 1.248 . S
O2582 Tb2543 2.465 . S
O2582 C2607 1.264 . S
O2583 Tb2543 2.387 . S
O2583 C2599 1.264 . S
O2584 Tb2532 2.349 . S
O2584 C2599 1.243 . S
O2585 Tb2543 2.428 . S
O2585 C2607 1.256 . S
O2586 Tb2543 2.308 . S
O2586 C2606 1.266 . S
O2587 Tb2532 2.393 . S
O2587 C2606 1.248 . S
C2588 O2577 1.264 . S
C2588 O2578 1.243 . S
C2589 C2592 1.399 . S
C2589 C2594 1.383 . S
C2589 C2596 1.496 . S
C2590 C2591 1.399 . S
C2590 C2594 1.389 . S
C2591 C2590 1.399 . S
C2591 C2593 1.380 . S
C2591 H2608 0.929 . S
C2592 C2589 1.399 . S
C2592 C2593 1.392 . S
C2592 H2609 0.929 . S
C2593 C2591 1.380 . S
C2593 C2592 1.392 . S
C2593 H2610 0.929 . S
C2594 C2589 1.383 . S
C2594 C2590 1.389 . S
C2594 H2611 0.931 . S
C2595 O2580 1.266 . S
C2595 O2581 1.248 . S
C2596 Tb2532 2.802 . S
C2596 O2576 1.264 . S
C2596 O2579 1.256 . S
C2596 C2589 1.496 . S
C2597 C2564 1.448 . S
C2597 H2574 0.930 . S
C2597 C2598 1.328 . S
C2598 C2569 1.427 . S
C2598 H2575 0.929 . S
C2598 C2597 1.328 . S
C2599 O2583 1.264 . S
C2599 O2584 1.243 . S
C2600 C2603 1.399 . S
C2600 C2604 1.383 . S
C2600 C2607 1.496 . S
C2601 C2602 1.399 . S
C2601 C2604 1.389 . S
C2602 C2601 1.399 . S
C2602 C2605 1.380 . S
C2602 H2612 0.929 . S
C2603 C2600 1.399 . S
C2603 C2605 1.392 . S
C2603 H2613 0.929 . S
C2604 C2600 1.383 . S
C2604 C2601 1.389 . S
C2604 H2614 0.931 . S
C2605 C2602 1.380 . S
C2605 C2603 1.392 . S
C2605 H2615 0.929 . S
C2606 O2586 1.266 . S
C2606 O2587 1.248 . S
C2607 Tb2543 2.802 . S
C2607 O2582 1.264 . S
C2607 O2585 1.256 . S
C2607 C2600 1.496 . S
H2608 C2591 0.929 . S
H2609 C2592 0.929 . S
H2610 C2593 0.929 . S
H2611 C2594 0.931 . S
H2612 C2602 0.929 . S
H2613 C2603 0.929 . S
H2614 C2604 0.931 . S
H2615 C2605 0.929 . S
Tb2616 N2645 2.617 . S
Tb2616 N2651 2.572 . S
Tb2616 O2660 2.465 . S
Tb2616 O2661 2.387 1_556 S
Tb2616 O2663 2.428 . S
Tb2616 O2664 2.308 . S
Tb2616 O2668 2.349 1_556 S
Tb2616 O2671 2.393 1_556 S
Tb2616 C2680 2.802 . S
C2617 N2618 1.379 . S
C2617 C2620 1.416 . S
C2617 C2624 1.424 1_565 S
N2618 C2617 1.379 . S
N2618 C2621 1.334 . S
N2618 Tb2627 2.617 1_565 S
C2619 C2621 1.390 . S
C2619 C2622 1.339 . S
C2619 H2639 0.930 . S
C2620 C2617 1.416 . S
C2620 C2622 1.416 . S
C2620 C2626 1.448 . S
C2621 N2618 1.334 . S
C2621 C2619 1.390 . S
C2621 H2632 0.930 . S
C2622 C2619 1.339 . S
C2622 C2620 1.416 . S
C2622 H2643 0.930 . S
C2623 C2624 1.413 . S
C2623 C2625 1.427 . S
C2623 C2629 1.416 . S
C2624 C2617 1.424 1_545 S
C2624 C2623 1.413 . S
C2624 N2628 1.361 . S
C2625 C2623 1.427 . S
C2625 C2626 1.328 1_545 S
C2625 H2640 0.929 . S
C2626 C2620 1.448 . S
C2626 C2625 1.328 1_565 S
C2626 H2641 0.930 . S
Tb2627 N2618 2.617 1_545 S
Tb2627 N2628 2.572 . S
Tb2627 O2662 2.349 . S
Tb2627 O2665 2.393 1_545 S
Tb2627 O2666 2.465 . S
Tb2627 O2667 2.387 . S
Tb2627 O2669 2.428 1_545 S
Tb2627 O2670 2.308 . S
Tb2627 C2691 2.804 . S
N2628 C2624 1.361 . S
N2628 Tb2627 2.572 . S
N2628 C2630 1.340 . S
C2629 C2623 1.416 . S
C2629 C2631 1.332 . S
C2629 H2637 0.931 . S
C2630 N2628 1.340 . S
C2630 C2631 1.407 . S
C2630 H2636 0.930 . S
C2631 C2629 1.332 . S
C2631 C2630 1.407 . S
C2631 H2633 0.929 . S
H2632 C2621 0.930 . S
H2633 C2631 0.929 . S
H2634 C2649 0.910 1_554 S
H2635 C2656 0.929 . S
H2636 C2630 0.930 . S
H2637 C2629 0.931 . S
H2638 C2652 0.930 1_565 S
H2639 C2619 0.930 . S
H2640 C2625 0.929 . S
H2641 C2626 0.930 . S
H2642 C2647 0.930 . S
H2643 C2622 0.930 . S
H2644 C2655 0.931 1_565 S
N2645 Tb2616 2.617 . S
N2645 C2646 1.379 . S
N2645 C2649 1.334 . S
C2646 N2645 1.379 . S
C2646 C2648 1.416 . S
C2646 C2654 1.424 . S
C2647 H2642 0.930 . S
C2647 C2649 1.390 . S
C2647 C2650 1.339 . S
C2648 C2646 1.416 . S
C2648 C2650 1.416 . S
C2648 C2681 1.448 . S
C2649 H2634 0.910 1_556 S
C2649 N2645 1.334 . S
C2649 C2647 1.390 . S
C2650 C2647 1.339 . S
C2650 C2648 1.416 . S
C2650 H2657 0.930 . S
N2651 Tb2616 2.572 . S
N2651 C2652 1.340 . S
N2651 C2654 1.361 . S
C2652 H2638 0.930 1_545 S
C2652 N2651 1.340 . S
C2652 C2656 1.407 1_545 S
C2653 C2654 1.413 . S
C2653 C2655 1.416 . S
C2653 C2682 1.427 . S
C2654 C2646 1.424 . S
C2654 N2651 1.361 . S
C2654 C2653 1.413 . S
C2655 H2644 0.931 1_545 S
C2655 C2653 1.416 . S
C2655 C2656 1.332 1_545 S
C2656 H2635 0.929 . S
C2656 C2652 1.407 1_565 S
C2656 C2655 1.332 1_565 S
H2657 C2650 0.930 . S
H2658 C2681 0.930 . S
H2659 C2682 0.929 . S
O2660 Tb2616 2.465 . S
O2660 C2680 1.264 . S
O2661 Tb2616 2.387 1_554 S
O2661 C2672 1.264 . S
O2662 Tb2627 2.349 . S
O2662 C2672 1.243 . S
O2663 Tb2616 2.428 . S
O2663 C2680 1.256 . S
O2664 Tb2616 2.308 . S
O2664 C2679 1.266 1_546 S
O2665 Tb2627 2.393 1_565 S
O2665 C2679 1.248 . S
O2666 Tb2627 2.465 . S
O2666 C2691 1.270 . S
O2667 Tb2627 2.387 . S
O2667 C2683 1.264 . S
O2668 Tb2616 2.349 1_554 S
O2668 C2683 1.243 . S
O2669 Tb2627 2.428 1_565 S
O2669 C2691 1.251 1_565 S
O2670 Tb2627 2.308 . S
O2670 C2690 1.266 . S
O2671 Tb2616 2.393 1_554 S
O2671 C2690 1.248 . S
C2672 O2661 1.264 . S
C2672 O2662 1.243 . S
C2673 C2676 1.399 . S
C2673 C2678 1.383 . S
C2673 C2680 1.496 . S
C2674 C2675 1.399 . S
C2674 C2678 1.389 . S
C2675 C2674 1.399 . S
C2675 C2677 1.380 . S
C2675 H2692 0.929 . S
C2676 C2673 1.399 . S
C2676 C2677 1.392 . S
C2676 H2693 0.929 . S
C2677 C2675 1.380 . S
C2677 C2676 1.392 . S
C2677 H2694 0.929 . S
C2678 C2673 1.383 . S
C2678 C2674 1.389 . S
C2678 H2695 0.931 . S
C2679 O2664 1.266 1_564 S
C2679 O2665 1.248 . S
C2680 Tb2616 2.802 . S
C2680 O2660 1.264 . S
C2680 O2663 1.256 . S
C2680 C2673 1.496 . S
C2681 C2648 1.448 . S
C2681 H2658 0.930 . S
C2681 C2682 1.328 . S
C2682 C2653 1.427 . S
C2682 H2659 0.929 . S
C2682 C2681 1.328 . S
C2683 O2667 1.264 . S
C2683 O2668 1.243 . S
C2684 C2687 1.399 . S
C2684 C2688 1.383 1_565 S
C2684 C2691 1.494 1_565 S
C2685 C2686 1.399 1_545 S
C2685 C2688 1.389 . S
C2686 C2685 1.399 1_565 S
C2686 C2689 1.380 . S
C2686 H2696 0.929 . S
C2687 C2684 1.399 . S
C2687 C2689 1.392 . S
C2687 H2697 0.929 . S
C2688 C2684 1.383 1_545 S
C2688 C2685 1.389 . S
C2688 H2698 0.931 . S
C2689 C2686 1.380 . S
C2689 C2687 1.392 . S
C2689 H2699 0.929 . S
C2690 O2670 1.266 . S
C2690 O2671 1.248 . S
C2691 Tb2627 2.804 . S
C2691 O2666 1.270 . S
C2691 O2669 1.251 1_545 S
C2691 C2684 1.494 1_545 S
H2692 C2675 0.929 . S
H2693 C2676 0.929 . S
H2694 C2677 0.929 . S
H2695 C2678 0.931 . S
H2696 C2686 0.929 . S
H2697 C2687 0.929 . S
H2698 C2688 0.931 . S
H2699 C2689 0.929 . S
Tb2700 N2729 2.617 . S
Tb2700 N2735 2.572 . S
Tb2700 O2744 2.465 . S
Tb2700 O2745 2.387 . S
Tb2700 O2747 2.428 . S
Tb2700 O2748 2.308 . S
Tb2700 O2752 2.349 . S
Tb2700 O2755 2.393 . S
Tb2700 C2764 2.802 . S
C2701 N2702 1.379 . S
C2701 C2704 1.416 . S
C2701 C2708 1.424 . S
N2702 C2701 1.379 . S
N2702 C2705 1.334 . S
N2702 Tb2711 2.617 . S
C2703 C2705 1.390 . S
C2703 C2706 1.339 . S
C2703 H2723 0.930 . S
C2704 C2701 1.416 . S
C2704 C2706 1.416 . S
C2704 C2710 1.448 . S
C2705 N2702 1.334 . S
C2705 C2703 1.390 . S
C2705 H2716 0.930 . S
C2706 C2703 1.339 . S
C2706 C2704 1.416 . S
C2706 H2727 0.930 . S
C2707 C2708 1.413 . S
C2707 C2709 1.427 . S
C2707 C2713 1.416 . S
C2708 C2701 1.424 . S
C2708 C2707 1.413 . S
C2708 N2712 1.361 . S
C2709 C2707 1.427 . S
C2709 C2710 1.328 . S
C2709 H2724 0.929 . S
C2710 C2704 1.448 . S
C2710 C2709 1.328 . S
C2710 H2725 0.930 . S
Tb2711 N2702 2.617 . S
Tb2711 N2712 2.572 . S
Tb2711 O2746 2.349 . S
Tb2711 O2749 2.393 . S
Tb2711 O2750 2.465 . S
Tb2711 O2751 2.387 . S
Tb2711 O2753 2.428 . S
Tb2711 O2754 2.308 . S
Tb2711 C2775 2.802 . S
N2712 C2708 1.361 . S
N2712 Tb2711 2.572 . S
N2712 C2714 1.340 . S
C2713 C2707 1.416 . S
C2713 C2715 1.332 . S
C2713 H2721 0.931 . S
C2714 N2712 1.340 . S
C2714 C2715 1.407 . S
C2714 H2720 0.930 . S
C2715 C2713 1.332 . S
C2715 C2714 1.407 . S
C2715 H2717 0.929 . S
H2716 C2705 0.930 . S
H2717 C2715 0.929 . S
H2718 C2733 0.930 . S
H2719 C2740 0.929 . S
H2720 C2714 0.930 . S
H2721 C2713 0.931 . S
H2722 C2736 0.930 . S
H2723 C2703 0.930 . S
H2724 C2709 0.929 . S
H2725 C2710 0.930 . S
H2726 C2731 0.930 . S
H2727 C2706 0.930 . S
H2728 C2739 0.931 . S
N2729 Tb2700 2.617 . S
N2729 C2730 1.379 . S
N2729 C2733 1.334 . S
C2730 N2729 1.379 . S
C2730 C2732 1.416 . S
C2730 C2738 1.424 . S
C2731 H2726 0.930 . S
C2731 C2733 1.390 . S
C2731 C2734 1.339 . S
C2732 C2730 1.416 . S
C2732 C2734 1.416 . S
C2732 C2765 1.448 . S
C2733 H2718 0.930 . S
C2733 N2729 1.334 . S
C2733 C2731 1.390 . S
C2734 C2731 1.339 . S
C2734 C2732 1.416 . S
C2734 H2741 0.930 . S
N2735 Tb2700 2.572 . S
N2735 C2736 1.340 . S
N2735 C2738 1.361 . S
C2736 H2722 0.930 . S
C2736 N2735 1.340 . S
C2736 C2740 1.407 . S
C2737 C2738 1.413 . S
C2737 C2739 1.416 . S
C2737 C2766 1.427 . S
C2738 C2730 1.424 . S
C2738 N2735 1.361 . S
C2738 C2737 1.413 . S
C2739 H2728 0.931 . S
C2739 C2737 1.416 . S
C2739 C2740 1.332 . S
C2740 H2719 0.929 . S
C2740 C2736 1.407 . S
C2740 C2739 1.332 . S
H2741 C2734 0.930 . S
H2742 C2765 0.930 . S
H2743 C2766 0.929 . S
O2744 Tb2700 2.465 . S
O2744 C2764 1.264 . S
O2745 Tb2700 2.387 . S
O2745 C2756 1.264 . S
O2746 Tb2711 2.349 . S
O2746 C2756 1.243 . S
O2747 Tb2700 2.428 . S
O2747 C2764 1.256 . S
O2748 Tb2700 2.308 . S
O2748 C2763 1.266 . S
O2749 Tb2711 2.393 . S
O2749 C2763 1.248 . S
O2750 Tb2711 2.465 . S
O2750 C2775 1.264 . S
O2751 Tb2711 2.387 . S
O2751 C2767 1.264 . S
O2752 Tb2700 2.349 . S
O2752 C2767 1.243 . S
O2753 Tb2711 2.428 . S
O2753 C2775 1.256 . S
O2754 Tb2711 2.308 . S
O2754 C2774 1.266 . S
O2755 Tb2700 2.393 . S
O2755 C2774 1.248 . S
C2756 O2745 1.264 . S
C2756 O2746 1.243 . S
C2757 C2760 1.399 . S
C2757 C2762 1.383 . S
C2757 C2764 1.496 . S
C2758 C2759 1.399 . S
C2758 C2762 1.389 . S
C2759 C2758 1.399 . S
C2759 C2761 1.380 . S
C2759 H2776 0.929 . S
C2760 C2757 1.399 . S
C2760 C2761 1.392 . S
C2760 H2777 0.929 . S
C2761 C2759 1.380 . S
C2761 C2760 1.392 . S
C2761 H2778 0.929 . S
C2762 C2757 1.383 . S
C2762 C2758 1.389 . S
C2762 H2779 0.931 . S
C2763 O2748 1.266 . S
C2763 O2749 1.248 . S
C2764 Tb2700 2.802 . S
C2764 O2744 1.264 . S
C2764 O2747 1.256 . S
C2764 C2757 1.496 . S
C2765 C2732 1.448 . S
C2765 H2742 0.930 . S
C2765 C2766 1.328 . S
C2766 C2737 1.427 . S
C2766 H2743 0.929 . S
C2766 C2765 1.328 . S
C2767 O2751 1.264 . S
C2767 O2752 1.243 . S
C2768 C2771 1.399 . S
C2768 C2772 1.383 . S
C2768 C2775 1.496 . S
C2769 C2770 1.399 . S
C2769 C2772 1.389 . S
C2770 C2769 1.399 . S
C2770 C2773 1.380 . S
C2770 H2780 0.929 . S
C2771 C2768 1.399 . S
C2771 C2773 1.392 . S
C2771 H2781 0.929 . S
C2772 C2768 1.383 . S
C2772 C2769 1.389 . S
C2772 H2782 0.931 . S
C2773 C2770 1.380 . S
C2773 C2771 1.392 . S
C2773 H2783 0.929 . S
C2774 O2754 1.266 . S
C2774 O2755 1.248 . S
C2775 Tb2711 2.802 . S
C2775 O2750 1.264 . S
C2775 O2753 1.256 . S
C2775 C2768 1.496 . S
H2776 C2759 0.929 . S
H2777 C2760 0.929 . S
H2778 C2761 0.929 . S
H2779 C2762 0.931 . S
H2780 C2770 0.929 . S
H2781 C2771 0.929 . S
H2782 C2772 0.931 . S
H2783 C2773 0.929 . S
Tb2784 N2813 2.617 1_554 S
Tb2784 N2819 2.572 1_554 S
Tb2784 O2828 2.465 . S
Tb2784 O2829 2.387 1_554 S
Tb2784 O2831 2.428 . S
Tb2784 O2832 2.308 . S
Tb2784 O2836 2.349 . S
Tb2784 O2839 2.393 . S
Tb2784 C2848 2.802 . S
C2785 N2786 1.379 . S
C2785 C2788 1.416 . S
C2785 C2792 1.424 . S
N2786 C2785 1.379 . S
N2786 C2789 1.334 . S
N2786 Tb2795 2.617 . S
C2787 C2789 1.390 . S
C2787 C2790 1.339 . S
C2787 H2807 0.930 . S
C2788 C2785 1.416 . S
C2788 C2790 1.416 . S
C2788 C2794 1.448 . S
C2789 N2786 1.334 . S
C2789 C2787 1.390 . S
C2789 H2800 0.930 . S
C2790 C2787 1.339 . S
C2790 C2788 1.416 . S
C2790 H2811 0.930 . S
C2791 C2792 1.413 . S
C2791 C2793 1.427 . S
C2791 C2797 1.416 . S
C2792 C2785 1.424 . S
C2792 C2791 1.413 . S
C2792 N2796 1.361 . S
C2793 C2791 1.427 . S
C2793 C2794 1.328 . S
C2793 H2808 0.929 . S
C2794 C2788 1.448 . S
C2794 C2793 1.328 . S
C2794 H2809 0.930 . S
Tb2795 N2786 2.617 . S
Tb2795 N2796 2.572 . S
Tb2795 O2830 2.349 1_554 S
Tb2795 O2833 2.393 . S
Tb2795 O2834 2.465 . S
Tb2795 O2835 2.387 . S
Tb2795 O2837 2.428 . S
Tb2795 O2838 2.308 . S
Tb2795 C2859 2.802 . S
N2796 C2792 1.361 . S
N2796 Tb2795 2.572 . S
N2796 C2798 1.340 . S
C2797 C2791 1.416 . S
C2797 C2799 1.332 . S
C2797 H2805 0.931 . S
C2798 N2796 1.340 . S
C2798 C2799 1.407 . S
C2798 H2804 0.930 . S
C2799 C2797 1.332 . S
C2799 C2798 1.407 . S
C2799 H2801 0.929 . S
H2800 C2789 0.930 . S
H2801 C2799 0.929 . S
H2802 C2817 0.930 1_554 S
H2803 C2824 0.929 . S
H2804 C2798 0.930 . S
H2805 C2797 0.931 . S
H2806 C2820 0.918 1_554 S
H2807 C2787 0.930 . S
H2808 C2793 0.929 . S
H2809 C2794 0.930 . S
H2810 C2815 0.930 . S
H2811 C2790 0.930 . S
H2812 C2823 0.931 . S
N2813 Tb2784 2.617 1_556 S
N2813 C2814 1.379 . S
N2813 C2817 1.334 . S
C2814 N2813 1.379 . S
C2814 C2816 1.416 . S
C2814 C2822 1.424 . S
C2815 H2810 0.930 . S
C2815 C2817 1.390 . S
C2815 C2818 1.339 . S
C2816 C2814 1.416 . S
C2816 C2818 1.416 . S
C2816 C2849 1.448 . S
C2817 H2802 0.930 1_556 S
C2817 N2813 1.334 . S
C2817 C2815 1.390 . S
C2818 C2815 1.339 . S
C2818 C2816 1.416 . S
C2818 H2825 0.930 . S
N2819 Tb2784 2.572 1_556 S
N2819 C2820 1.340 . S
N2819 C2822 1.361 . S
C2820 H2806 0.918 1_556 S
C2820 N2819 1.340 . S
C2820 C2824 1.407 . S
C2821 C2822 1.413 . S
C2821 C2823 1.416 . S
C2821 C2850 1.427 . S
C2822 C2814 1.424 . S
C2822 N2819 1.361 . S
C2822 C2821 1.413 . S
C2823 H2812 0.931 . S
C2823 C2821 1.416 . S
C2823 C2824 1.332 . S
C2824 H2803 0.929 . S
C2824 C2820 1.407 . S
C2824 C2823 1.332 . S
H2825 C2818 0.930 . S
H2826 C2849 0.930 . S
H2827 C2850 0.929 . S
O2828 Tb2784 2.465 . S
O2828 C2848 1.264 . S
O2829 Tb2784 2.387 1_556 S
O2829 C2840 1.264 . S
O2830 Tb2795 2.349 1_556 S
O2830 C2840 1.243 . S
O2831 Tb2784 2.428 . S
O2831 C2848 1.256 . S
O2832 Tb2784 2.308 . S
O2832 C2847 1.266 . S
O2833 Tb2795 2.393 . S
O2833 C2847 1.248 . S
O2834 Tb2795 2.465 . S
O2834 C2859 1.264 . S
O2835 Tb2795 2.387 . S
O2835 C2851 1.264 . S
O2836 Tb2784 2.349 . S
O2836 C2851 1.243 . S
O2837 Tb2795 2.428 . S
O2837 C2859 1.256 . S
O2838 Tb2795 2.308 . S
O2838 C2858 1.266 . S
O2839 Tb2784 2.393 . S
O2839 C2858 1.248 . S
C2840 O2829 1.264 . S
C2840 O2830 1.243 . S
C2841 C2844 1.399 . S
C2841 C2846 1.383 . S
C2841 C2848 1.496 . S
C2842 C2843 1.399 . S
C2842 C2846 1.389 . S
C2843 C2842 1.399 . S
C2843 C2845 1.380 . S
C2843 H2860 0.929 . S
C2844 C2841 1.399 . S
C2844 C2845 1.392 . S
C2844 H2861 0.929 . S
C2845 C2843 1.380 . S
C2845 C2844 1.392 . S
C2845 H2862 0.929 . S
C2846 C2841 1.383 . S
C2846 C2842 1.389 . S
C2846 H2863 0.931 . S
C2847 O2832 1.266 . S
C2847 O2833 1.248 . S
C2848 Tb2784 2.802 . S
C2848 O2828 1.264 . S
C2848 O2831 1.256 . S
C2848 C2841 1.496 . S
C2849 C2816 1.448 . S
C2849 H2826 0.930 . S
C2849 C2850 1.328 . S
C2850 C2821 1.427 . S
C2850 H2827 0.929 . S
C2850 C2849 1.328 . S
C2851 O2835 1.264 . S
C2851 O2836 1.243 . S
C2852 C2855 1.399 . S
C2852 C2856 1.383 . S
C2852 C2859 1.496 1_556 S
C2853 C2854 1.399 . S
C2853 C2856 1.389 . S
C2854 C2853 1.399 . S
C2854 C2857 1.380 . S
C2854 H2864 0.929 . S
C2855 C2852 1.399 . S
C2855 C2857 1.392 . S
C2855 H2865 0.929 . S
C2856 C2852 1.383 . S
C2856 C2853 1.389 . S
C2856 H2866 0.931 . S
C2857 C2854 1.380 . S
C2857 C2855 1.392 . S
C2857 H2867 0.929 . S
C2858 O2838 1.266 . S
C2858 O2839 1.248 . S
C2859 Tb2795 2.802 . S
C2859 O2834 1.264 . S
C2859 O2837 1.256 . S
C2859 C2852 1.496 1_554 S
H2860 C2843 0.929 . S
H2861 C2844 0.929 . S
H2862 C2845 0.929 . S
H2863 C2846 0.931 . S
H2864 C2854 0.929 . S
H2865 C2855 0.929 . S
H2866 C2856 0.931 . S
H2867 C2857 0.929 . S
Tb2868 N2897 2.617 . S
Tb2868 N2903 2.572 . S
Tb2868 O2912 2.465 . S
Tb2868 O2913 2.387 . S
Tb2868 O2915 2.428 . S
Tb2868 O2916 2.308 . S
Tb2868 O2920 2.349 . S
Tb2868 O2923 2.393 . S
Tb2868 C2932 2.802 . S
C2869 N2870 1.379 . S
C2869 C2872 1.416 . S
C2869 C2876 1.424 . S
N2870 C2869 1.379 . S
N2870 C2873 1.334 . S
N2870 Tb2879 2.617 . S
C2871 C2873 1.390 . S
C2871 C2874 1.339 . S
C2871 H2891 0.930 . S
C2872 C2869 1.416 . S
C2872 C2874 1.416 . S
C2872 C2878 1.448 . S
C2873 N2870 1.334 . S
C2873 C2871 1.390 . S
C2873 H2884 0.930 . S
C2874 C2871 1.339 . S
C2874 C2872 1.416 . S
C2874 H2895 0.930 . S
C2875 C2876 1.413 . S
C2875 C2877 1.427 . S
C2875 C2881 1.416 . S
C2876 C2869 1.424 . S
C2876 C2875 1.413 . S
C2876 N2880 1.361 . S
C2877 C2875 1.427 . S
C2877 C2878 1.328 . S
C2877 H2892 0.929 . S
C2878 C2872 1.448 . S
C2878 C2877 1.328 . S
C2878 H2893 0.930 . S
Tb2879 N2870 2.617 . S
Tb2879 N2880 2.572 . S
Tb2879 O2914 2.349 . S
Tb2879 O2917 2.393 . S
Tb2879 O2918 2.465 . S
Tb2879 O2919 2.387 . S
Tb2879 O2921 2.428 . S
Tb2879 O2922 2.308 . S
Tb2879 C2943 2.802 . S
N2880 C2876 1.361 . S
N2880 Tb2879 2.572 . S
N2880 C2882 1.340 . S
C2881 C2875 1.416 . S
C2881 C2883 1.332 . S
C2881 H2889 0.931 . S
C2882 N2880 1.340 . S
C2882 C2883 1.407 . S
C2882 H2888 0.930 . S
C2883 C2881 1.332 . S
C2883 C2882 1.407 . S
C2883 H2885 0.929 . S
H2884 C2873 0.930 . S
H2885 C2883 0.929 . S
H2886 C2901 0.930 . S
H2887 C2908 0.929 . S
H2888 C2882 0.930 . S
H2889 C2881 0.931 . S
H2890 C2904 0.930 . S
H2891 C2871 0.930 . S
H2892 C2877 0.929 . S
H2893 C2878 0.930 . S
H2894 C2899 0.930 . S
H2895 C2874 0.930 . S
H2896 C2907 0.931 . S
N2897 Tb2868 2.617 . S
N2897 C2898 1.379 . S
N2897 C2901 1.334 . S
C2898 N2897 1.379 . S
C2898 C2900 1.416 . S
C2898 C2906 1.424 . S
C2899 H2894 0.930 . S
C2899 C2901 1.390 . S
C2899 C2902 1.339 . S
C2900 C2898 1.416 . S
C2900 C2902 1.416 . S
C2900 C2933 1.448 . S
C2901 H2886 0.930 . S
C2901 N2897 1.334 . S
C2901 C2899 1.390 . S
C2902 C2899 1.339 . S
C2902 C2900 1.416 . S
C2902 H2909 0.930 . S
N2903 Tb2868 2.572 . S
N2903 C2904 1.340 . S
N2903 C2906 1.361 . S
C2904 H2890 0.930 . S
C2904 N2903 1.340 . S
C2904 C2908 1.407 . S
C2905 C2906 1.413 . S
C2905 C2907 1.416 . S
C2905 C2934 1.427 . S
C2906 C2898 1.424 . S
C2906 N2903 1.361 . S
C2906 C2905 1.413 . S
C2907 H2896 0.931 . S
C2907 C2905 1.416 . S
C2907 C2908 1.332 . S
C2908 H2887 0.929 . S
C2908 C2904 1.407 . S
C2908 C2907 1.332 . S
H2909 C2902 0.930 . S
H2910 C2933 0.930 . S
H2911 C2934 0.929 . S
O2912 Tb2868 2.465 . S
O2912 C2932 1.264 . S
O2913 Tb2868 2.387 . S
O2913 C2924 1.264 . S
O2914 Tb2879 2.349 . S
O2914 C2924 1.243 . S
O2915 Tb2868 2.428 . S
O2915 C2932 1.256 . S
O2916 Tb2868 2.308 . S
O2916 C2931 1.266 . S
O2917 Tb2879 2.393 . S
O2917 C2931 1.248 . S
O2918 Tb2879 2.465 . S
O2918 C2943 1.264 . S
O2919 Tb2879 2.387 . S
O2919 C2935 1.264 . S
O2920 Tb2868 2.349 . S
O2920 C2935 1.243 . S
O2921 Tb2879 2.428 . S
O2921 C2943 1.256 . S
O2922 Tb2879 2.308 . S
O2922 C2942 1.266 . S
O2923 Tb2868 2.393 . S
O2923 C2942 1.248 . S
C2924 O2913 1.264 . S
C2924 O2914 1.243 . S
C2925 C2928 1.399 . S
C2925 C2930 1.383 . S
C2925 C2932 1.496 . S
C2926 C2927 1.399 . S
C2926 C2930 1.389 . S
C2927 C2926 1.399 . S
C2927 C2929 1.380 . S
C2927 H2944 0.929 . S
C2928 C2925 1.399 . S
C2928 C2929 1.392 . S
C2928 H2945 0.929 . S
C2929 C2927 1.380 . S
C2929 C2928 1.392 . S
C2929 H2946 0.929 . S
C2930 C2925 1.383 . S
C2930 C2926 1.389 . S
C2930 H2947 0.931 . S
C2931 O2916 1.266 . S
C2931 O2917 1.248 . S
C2932 Tb2868 2.802 . S
C2932 O2912 1.264 . S
C2932 O2915 1.256 . S
C2932 C2925 1.496 . S
C2933 C2900 1.448 . S
C2933 H2910 0.930 . S
C2933 C2934 1.328 . S
C2934 C2905 1.427 . S
C2934 H2911 0.929 . S
C2934 C2933 1.328 . S
C2935 O2919 1.264 . S
C2935 O2920 1.243 . S
C2936 C2939 1.399 . S
C2936 C2940 1.383 . S
C2936 C2943 1.496 . S
C2937 C2938 1.399 . S
C2937 C2940 1.389 . S
C2938 C2937 1.399 . S
C2938 C2941 1.380 . S
C2938 H2948 0.929 . S
C2939 C2936 1.399 . S
C2939 C2941 1.392 . S
C2939 H2949 0.929 . S
C2940 C2936 1.383 . S
C2940 C2937 1.389 . S
C2940 H2950 0.931 . S
C2941 C2938 1.380 . S
C2941 C2939 1.392 . S
C2941 H2951 0.929 . S
C2942 O2922 1.266 . S
C2942 O2923 1.248 . S
C2943 Tb2879 2.802 . S
C2943 O2918 1.264 . S
C2943 O2921 1.256 . S
C2943 C2936 1.496 . S
H2944 C2927 0.929 . S
H2945 C2928 0.929 . S
H2946 C2929 0.929 . S
H2947 C2930 0.931 . S
H2948 C2938 0.929 . S
H2949 C2939 0.929 . S
H2950 C2940 0.931 . S
H2951 C2941 0.929 . S
Tb2952 N2981 2.617 1_455 S
Tb2952 N2987 2.572 1_455 S
Tb2952 O2996 2.465 . S
Tb2952 O2997 2.387 1_455 S
Tb2952 O2999 2.428 . S
Tb2952 O3000 2.308 . S
Tb2952 O3004 2.349 . S
Tb2952 O3007 2.393 . S
Tb2952 C3016 2.802 . S
C2953 N2954 1.379 . S
C2953 C2956 1.416 . S
C2953 C2960 1.424 . S
N2954 C2953 1.379 . S
N2954 C2957 1.334 . S
N2954 Tb2963 2.617 . S
C2955 C2957 1.390 . S
C2955 C2958 1.339 . S
C2955 H2975 0.930 . S
C2956 C2953 1.416 . S
C2956 C2958 1.416 . S
C2956 C2962 1.448 . S
C2957 N2954 1.334 . S
C2957 C2955 1.390 . S
C2957 H2968 0.930 . S
C2958 C2955 1.339 . S
C2958 C2956 1.416 . S
C2958 H2979 0.930 . S
C2959 C2960 1.413 . S
C2959 C2961 1.427 . S
C2959 C2965 1.416 . S
C2960 C2953 1.424 . S
C2960 C2959 1.413 . S
C2960 N2964 1.361 . S
C2961 C2959 1.427 . S
C2961 C2962 1.328 . S
C2961 H2976 0.929 . S
C2962 C2956 1.448 . S
C2962 C2961 1.328 . S
C2962 H2977 0.930 . S
Tb2963 N2954 2.617 . S
Tb2963 N2964 2.572 . S
Tb2963 O2998 2.349 1_455 S
Tb2963 O3001 2.393 . S
Tb2963 O3002 2.465 . S
Tb2963 O3003 2.387 . S
Tb2963 O3005 2.428 . S
Tb2963 O3006 2.308 . S
Tb2963 C3027 2.802 . S
N2964 C2960 1.361 . S
N2964 Tb2963 2.572 . S
N2964 C2966 1.340 . S
C2965 C2959 1.416 . S
C2965 C2967 1.332 . S
C2965 H2973 0.931 . S
C2966 N2964 1.340 . S
C2966 C2967 1.407 . S
C2966 H2972 0.930 . S
C2967 C2965 1.332 . S
C2967 C2966 1.407 . S
C2967 H2969 0.929 . S
H2968 C2957 0.930 . S
H2969 C2967 0.929 . S
H2970 C2985 0.913 1_455 S
H2971 C2992 0.929 . S
H2972 C2966 0.930 . S
H2973 C2965 0.931 . S
H2974 C2988 0.930 1_455 S
H2975 C2955 0.930 . S
H2976 C2961 0.929 . S
H2977 C2962 0.930 . S
H2978 C2983 0.930 . S
H2979 C2958 0.930 . S
H2980 C2991 0.931 . S
N2981 Tb2952 2.617 1_655 S
N2981 C2982 1.379 . S
N2981 C2985 1.331 . S
C2982 N2981 1.379 . S
C2982 C2984 1.416 . S
C2982 C2990 1.424 . S
C2983 H2978 0.930 . S
C2983 C2985 1.410 . S
C2983 C2986 1.339 . S
C2984 C2982 1.416 . S
C2984 C2986 1.416 . S
C2984 C3017 1.448 . S
C2985 H2970 0.913 1_655 S
C2985 N2981 1.331 . S
C2985 C2983 1.410 . S
C2986 C2983 1.339 . S
C2986 C2984 1.416 . S
C2986 H2993 0.930 . S
N2987 Tb2952 2.572 1_655 S
N2987 C2988 1.340 . S
N2987 C2990 1.361 . S
C2988 H2974 0.930 1_655 S
C2988 N2987 1.340 . S
C2988 C2992 1.407 . S
C2989 C2990 1.413 . S
C2989 C2991 1.416 . S
C2989 C3018 1.427 . S
C2990 C2982 1.424 . S
C2990 N2987 1.361 . S
C2990 C2989 1.413 . S
C2991 H2980 0.931 . S
C2991 C2989 1.416 . S
C2991 C2992 1.332 . S
C2992 H2971 0.929 . S
C2992 C2988 1.407 . S
C2992 C2991 1.332 . S
H2993 C2986 0.930 . S
H2994 C3017 0.930 . S
H2995 C3018 0.929 . S
O2996 Tb2952 2.465 . S
O2996 C3016 1.264 . S
O2997 Tb2952 2.387 1_655 S
O2997 C3008 1.264 . S
O2998 Tb2963 2.349 1_655 S
O2998 C3008 1.243 . S
O2999 Tb2952 2.428 . S
O2999 C3016 1.256 . S
O3000 Tb2952 2.308 . S
O3000 C3015 1.266 . S
O3001 Tb2963 2.393 . S
O3001 C3015 1.248 . S
O3002 Tb2963 2.465 . S
O3002 C3027 1.264 . S
O3003 Tb2963 2.387 . S
O3003 C3019 1.264 . S
O3004 Tb2952 2.349 . S
O3004 C3019 1.243 . S
O3005 Tb2963 2.428 . S
O3005 C3027 1.256 . S
O3006 Tb2963 2.308 . S
O3006 C3026 1.266 . S
O3007 Tb2952 2.393 . S
O3007 C3026 1.248 . S
C3008 O2997 1.264 . S
C3008 O2998 1.243 . S
C3009 C3012 1.399 . S
C3009 C3014 1.383 . S
C3009 C3016 1.496 . S
C3010 C3011 1.399 . S
C3010 C3014 1.389 . S
C3011 C3010 1.399 . S
C3011 C3013 1.380 . S
C3011 H3028 0.929 . S
C3012 C3009 1.399 . S
C3012 C3013 1.392 . S
C3012 H3029 0.929 . S
C3013 C3011 1.380 . S
C3013 C3012 1.392 . S
C3013 H3030 0.929 . S
C3014 C3009 1.383 . S
C3014 C3010 1.389 . S
C3014 H3031 0.931 . S
C3015 O3000 1.266 . S
C3015 O3001 1.248 . S
C3016 Tb2952 2.802 . S
C3016 O2996 1.264 . S
C3016 O2999 1.256 . S
C3016 C3009 1.496 . S
C3017 C2984 1.448 . S
C3017 H2994 0.930 . S
C3017 C3018 1.328 . S
C3018 C2989 1.427 . S
C3018 H2995 0.929 . S
C3018 C3017 1.328 . S
C3019 O3003 1.264 . S
C3019 O3004 1.243 . S
C3020 C3023 1.399 . S
C3020 C3024 1.383 . S
C3020 C3027 1.496 1_655 S
C3021 C3022 1.399 . S
C3021 C3024 1.389 . S
C3022 C3021 1.399 . S
C3022 C3025 1.380 . S
C3022 H3032 0.929 . S
C3023 C3020 1.399 . S
C3023 C3025 1.392 . S
C3023 H3033 0.929 . S
C3024 C3020 1.383 . S
C3024 C3021 1.389 . S
C3024 H3034 0.931 . S
C3025 C3022 1.380 . S
C3025 C3023 1.392 . S
C3025 H3035 0.929 . S
C3026 O3006 1.266 . S
C3026 O3007 1.248 . S
C3027 Tb2963 2.802 . S
C3027 O3002 1.264 . S
C3027 O3005 1.256 . S
C3027 C3020 1.496 1_455 S
H3028 C3011 0.929 . S
H3029 C3012 0.929 . S
H3030 C3013 0.929 . S
H3031 C3014 0.931 . S
H3032 C3022 0.929 . S
H3033 C3023 0.929 . S
H3034 C3024 0.931 . S
H3035 C3025 0.929 . S
Tb3036 N3065 2.617 . S
Tb3036 N3071 2.572 . S
Tb3036 O3080 2.465 . S
Tb3036 O3081 2.387 . S
Tb3036 O3083 2.428 . S
Tb3036 O3084 2.308 . S
Tb3036 O3088 2.349 . S
Tb3036 O3091 2.393 . S
Tb3036 C3100 2.802 . S
C3037 N3038 1.379 . S
C3037 C3040 1.416 . S
C3037 C3044 1.424 . S
N3038 C3037 1.379 . S
N3038 C3041 1.334 . S
N3038 Tb3047 2.617 . S
C3039 C3041 1.390 . S
C3039 C3042 1.339 . S
C3039 H3059 0.930 . S
C3040 C3037 1.416 . S
C3040 C3042 1.416 . S
C3040 C3046 1.448 . S
C3041 N3038 1.334 . S
C3041 C3039 1.390 . S
C3041 H3052 0.930 . S
C3042 C3039 1.339 . S
C3042 C3040 1.416 . S
C3042 H3063 0.930 . S
C3043 C3044 1.413 . S
C3043 C3045 1.427 . S
C3043 C3049 1.416 . S
C3044 C3037 1.424 . S
C3044 C3043 1.413 . S
C3044 N3048 1.361 . S
C3045 C3043 1.427 . S
C3045 C3046 1.328 . S
C3045 H3060 0.929 . S
C3046 C3040 1.448 . S
C3046 C3045 1.328 . S
C3046 H3061 0.930 . S
Tb3047 N3038 2.617 . S
Tb3047 N3048 2.572 . S
Tb3047 O3082 2.349 . S
Tb3047 O3085 2.393 . S
Tb3047 O3086 2.465 . S
Tb3047 O3087 2.387 . S
Tb3047 O3089 2.428 . S
Tb3047 O3090 2.308 . S
Tb3047 C3111 2.802 . S
N3048 C3044 1.361 . S
N3048 Tb3047 2.572 . S
N3048 C3050 1.340 . S
C3049 C3043 1.416 . S
C3049 C3051 1.332 . S
C3049 H3057 0.931 . S
C3050 N3048 1.340 . S
C3050 C3051 1.407 . S
C3050 H3056 0.930 . S
C3051 C3049 1.332 . S
C3051 C3050 1.407 . S
C3051 H3053 0.929 . S
H3052 C3041 0.930 . S
H3053 C3051 0.929 . S
H3054 C3069 0.930 . S
H3055 C3076 0.929 . S
H3056 C3050 0.930 . S
H3057 C3049 0.931 . S
H3058 C3072 0.930 . S
H3059 C3039 0.930 . S
H3060 C3045 0.929 . S
H3061 C3046 0.930 . S
H3062 C3067 0.930 . S
H3063 C3042 0.930 . S
H3064 C3075 0.931 . S
N3065 Tb3036 2.617 . S
N3065 C3066 1.379 . S
N3065 C3069 1.334 . S
C3066 N3065 1.379 . S
C3066 C3068 1.416 . S
C3066 C3074 1.424 . S
C3067 H3062 0.930 . S
C3067 C3069 1.390 . S
C3067 C3070 1.339 . S
C3068 C3066 1.416 . S
C3068 C3070 1.416 . S
C3068 C3101 1.448 . S
C3069 H3054 0.930 . S
C3069 N3065 1.334 . S
C3069 C3067 1.390 . S
C3070 C3067 1.339 . S
C3070 C3068 1.416 . S
C3070 H3077 0.930 . S
N3071 Tb3036 2.572 . S
N3071 C3072 1.340 . S
N3071 C3074 1.361 . S
C3072 H3058 0.930 . S
C3072 N3071 1.340 . S
C3072 C3076 1.407 . S
C3073 C3074 1.413 . S
C3073 C3075 1.416 . S
C3073 C3102 1.427 . S
C3074 C3066 1.424 . S
C3074 N3071 1.361 . S
C3074 C3073 1.413 . S
C3075 H3064 0.931 . S
C3075 C3073 1.416 . S
C3075 C3076 1.332 . S
C3076 H3055 0.929 . S
C3076 C3072 1.407 . S
C3076 C3075 1.332 . S
H3077 C3070 0.930 . S
H3078 C3101 0.930 . S
H3079 C3102 0.929 . S
O3080 Tb3036 2.465 . S
O3080 C3100 1.264 . S
O3081 Tb3036 2.387 . S
O3081 C3092 1.264 . S
O3082 Tb3047 2.349 . S
O3082 C3092 1.243 . S
O3083 Tb3036 2.428 . S
O3083 C3100 1.256 . S
O3084 Tb3036 2.308 . S
O3084 C3099 1.266 . S
O3085 Tb3047 2.393 . S
O3085 C3099 1.248 . S
O3086 Tb3047 2.465 . S
O3086 C3111 1.264 . S
O3087 Tb3047 2.387 . S
O3087 C3103 1.264 . S
O3088 Tb3036 2.349 . S
O3088 C3103 1.243 . S
O3089 Tb3047 2.428 . S
O3089 C3111 1.256 . S
O3090 Tb3047 2.308 . S
O3090 C3110 1.266 . S
O3091 Tb3036 2.393 . S
O3091 C3110 1.248 . S
C3092 O3081 1.264 . S
C3092 O3082 1.243 . S
C3093 C3096 1.399 . S
C3093 C3098 1.383 . S
C3093 C3100 1.496 . S
C3094 C3095 1.399 . S
C3094 C3098 1.389 . S
C3095 C3094 1.399 . S
C3095 C3097 1.380 . S
C3095 H3112 0.929 . S
C3096 C3093 1.399 . S
C3096 C3097 1.392 . S
C3096 H3113 0.929 . S
C3097 C3095 1.380 . S
C3097 C3096 1.392 . S
C3097 H3114 0.929 . S
C3098 C3093 1.383 . S
C3098 C3094 1.389 . S
C3098 H3115 0.931 . S
C3099 O3084 1.266 . S
C3099 O3085 1.248 . S
C3100 Tb3036 2.802 . S
C3100 O3080 1.264 . S
C3100 O3083 1.256 . S
C3100 C3093 1.496 . S
C3101 C3068 1.448 . S
C3101 H3078 0.930 . S
C3101 C3102 1.328 . S
C3102 C3073 1.427 . S
C3102 H3079 0.929 . S
C3102 C3101 1.328 . S
C3103 O3087 1.264 . S
C3103 O3088 1.243 . S
C3104 C3107 1.399 . S
C3104 C3108 1.383 . S
C3104 C3111 1.496 . S
C3105 C3106 1.399 . S
C3105 C3108 1.389 . S
C3106 C3105 1.399 . S
C3106 C3109 1.380 . S
C3106 H3116 0.929 . S
C3107 C3104 1.399 . S
C3107 C3109 1.392 . S
C3107 H3117 0.929 . S
C3108 C3104 1.383 . S
C3108 C3105 1.389 . S
C3108 H3118 0.931 . S
C3109 C3106 1.380 . S
C3109 C3107 1.392 . S
C3109 H3119 0.929 . S
C3110 O3090 1.266 . S
C3110 O3091 1.248 . S
C3111 Tb3047 2.802 . S
C3111 O3086 1.264 . S
C3111 O3089 1.256 . S
C3111 C3104 1.496 . S
H3112 C3095 0.929 . S
H3113 C3096 0.929 . S
H3114 C3097 0.929 . S
H3115 C3098 0.931 . S
H3116 C3106 0.929 . S
H3117 C3107 0.929 . S
H3118 C3108 0.931 . S
H3119 C3109 0.929 . S
Tb3120 N3149 2.617 . S
Tb3120 N3155 2.572 . S
Tb3120 O3164 2.465 . S
Tb3120 O3165 2.387 . S
Tb3120 O3167 2.428 . S
Tb3120 O3168 2.308 . S
Tb3120 O3172 2.349 . S
Tb3120 O3175 2.393 . S
Tb3120 C3184 2.802 . S
C3121 N3122 1.379 . S
C3121 C3124 1.416 . S
C3121 C3128 1.424 . S
N3122 C3121 1.379 . S
N3122 C3125 1.334 . S
N3122 Tb3131 2.617 . S
C3123 C3125 1.390 . S
C3123 C3126 1.339 . S
C3123 H3143 0.930 . S
C3124 C3121 1.416 . S
C3124 C3126 1.416 . S
C3124 C3130 1.448 . S
C3125 N3122 1.334 . S
C3125 C3123 1.390 . S
C3125 H3136 0.930 . S
C3126 C3123 1.339 . S
C3126 C3124 1.416 . S
C3126 H3147 0.930 . S
C3127 C3128 1.413 . S
C3127 C3129 1.427 . S
C3127 C3133 1.416 . S
C3128 C3121 1.424 . S
C3128 C3127 1.413 . S
C3128 N3132 1.361 . S
C3129 C3127 1.427 . S
C3129 C3130 1.328 . S
C3129 H3144 0.929 . S
C3130 C3124 1.448 . S
C3130 C3129 1.328 . S
C3130 H3145 0.930 . S
Tb3131 N3122 2.617 . S
Tb3131 N3132 2.572 . S
Tb3131 O3166 2.349 . S
Tb3131 O3169 2.393 . S
Tb3131 O3170 2.465 . S
Tb3131 O3171 2.387 . S
Tb3131 O3173 2.428 . S
Tb3131 O3174 2.308 . S
Tb3131 C3195 2.802 . S
N3132 C3128 1.361 . S
N3132 Tb3131 2.572 . S
N3132 C3134 1.340 . S
C3133 C3127 1.416 . S
C3133 C3135 1.332 . S
C3133 H3141 0.931 . S
C3134 N3132 1.340 . S
C3134 C3135 1.407 . S
C3134 H3140 0.930 . S
C3135 C3133 1.332 . S
C3135 C3134 1.407 . S
C3135 H3137 0.929 . S
H3136 C3125 0.930 . S
H3137 C3135 0.929 . S
H3138 C3153 0.930 . S
H3139 C3160 0.929 . S
H3140 C3134 0.930 . S
H3141 C3133 0.931 . S
H3142 C3156 0.930 . S
H3143 C3123 0.930 . S
H3144 C3129 0.929 . S
H3145 C3130 0.930 . S
H3146 C3151 0.930 . S
H3147 C3126 0.930 . S
H3148 C3159 0.931 . S
N3149 Tb3120 2.617 . S
N3149 C3150 1.379 . S
N3149 C3153 1.334 . S
C3150 N3149 1.379 . S
C3150 C3152 1.416 . S
C3150 C3158 1.424 . S
C3151 H3146 0.930 . S
C3151 C3153 1.390 . S
C3151 C3154 1.339 . S
C3152 C3150 1.416 . S
C3152 C3154 1.416 . S
C3152 C3185 1.448 . S
C3153 H3138 0.930 . S
C3153 N3149 1.334 . S
C3153 C3151 1.390 . S
C3154 C3151 1.339 . S
C3154 C3152 1.416 . S
C3154 H3161 0.930 . S
N3155 Tb3120 2.572 . S
N3155 C3156 1.340 . S
N3155 C3158 1.361 . S
C3156 H3142 0.930 . S
C3156 N3155 1.340 . S
C3156 C3160 1.407 . S
C3157 C3158 1.413 . S
C3157 C3159 1.416 . S
C3157 C3186 1.427 . S
C3158 C3150 1.424 . S
C3158 N3155 1.361 . S
C3158 C3157 1.413 . S
C3159 H3148 0.931 . S
C3159 C3157 1.416 . S
C3159 C3160 1.332 . S
C3160 H3139 0.929 . S
C3160 C3156 1.407 . S
C3160 C3159 1.332 . S
H3161 C3154 0.930 . S
H3162 C3185 0.930 . S
H3163 C3186 0.929 . S
O3164 Tb3120 2.465 . S
O3164 C3184 1.264 . S
O3165 Tb3120 2.387 . S
O3165 C3176 1.264 . S
O3166 Tb3131 2.349 . S
O3166 C3176 1.243 . S
O3167 Tb3120 2.428 . S
O3167 C3184 1.256 . S
O3168 Tb3120 2.308 . S
O3168 C3183 1.266 . S
O3169 Tb3131 2.393 . S
O3169 C3183 1.248 . S
O3170 Tb3131 2.465 . S
O3170 C3195 1.264 . S
O3171 Tb3131 2.387 . S
O3171 C3187 1.264 . S
O3172 Tb3120 2.349 . S
O3172 C3187 1.243 . S
O3173 Tb3131 2.428 . S
O3173 C3195 1.256 . S
O3174 Tb3131 2.308 . S
O3174 C3194 1.266 . S
O3175 Tb3120 2.393 . S
O3175 C3194 1.248 . S
C3176 O3165 1.264 . S
C3176 O3166 1.243 . S
C3177 C3180 1.399 . S
C3177 C3182 1.383 . S
C3177 C3184 1.496 . S
C3178 C3179 1.399 . S
C3178 C3182 1.389 . S
C3179 C3178 1.399 . S
C3179 C3181 1.380 . S
C3179 H3196 0.929 . S
C3180 C3177 1.399 . S
C3180 C3181 1.392 . S
C3180 H3197 0.929 . S
C3181 C3179 1.380 . S
C3181 C3180 1.392 . S
C3181 H3198 0.929 . S
C3182 C3177 1.383 . S
C3182 C3178 1.389 . S
C3182 H3199 0.931 . S
C3183 O3168 1.266 . S
C3183 O3169 1.248 . S
C3184 Tb3120 2.802 . S
C3184 O3164 1.264 . S
C3184 O3167 1.256 . S
C3184 C3177 1.496 . S
C3185 C3152 1.448 . S
C3185 H3162 0.930 . S
C3185 C3186 1.328 . S
C3186 C3157 1.427 . S
C3186 H3163 0.929 . S
C3186 C3185 1.328 . S
C3187 O3171 1.264 . S
C3187 O3172 1.243 . S
C3188 C3191 1.399 . S
C3188 C3192 1.383 . S
C3188 C3195 1.496 . S
C3189 C3190 1.399 . S
C3189 C3192 1.389 . S
C3190 C3189 1.399 . S
C3190 C3193 1.380 . S
C3190 H3200 0.929 . S
C3191 C3188 1.399 . S
C3191 C3193 1.392 . S
C3191 H3201 0.929 . S
C3192 C3188 1.383 . S
C3192 C3189 1.389 . S
C3192 H3202 0.931 . S
C3193 C3190 1.380 . S
C3193 C3191 1.392 . S
C3193 H3203 0.929 . S
C3194 O3174 1.266 . S
C3194 O3175 1.248 . S
C3195 Tb3131 2.802 . S
C3195 O3170 1.264 . S
C3195 O3173 1.256 . S
C3195 C3188 1.496 . S
H3196 C3179 0.929 . S
H3197 C3180 0.929 . S
H3198 C3181 0.929 . S
H3199 C3182 0.931 . S
H3200 C3190 0.929 . S
H3201 C3191 0.929 . S
H3202 C3192 0.931 . S
H3203 C3193 0.929 . S
Tb3204 N3233 2.617 . S
Tb3204 N3239 2.572 . S
Tb3204 O3248 2.465 . S
Tb3204 O3249 2.387 . S
Tb3204 O3251 2.428 . S
Tb3204 O3252 2.308 . S
Tb3204 O3256 2.349 . S
Tb3204 O3259 2.393 . S
Tb3204 C3268 2.802 . S
C3205 N3206 1.379 . S
C3205 C3208 1.416 . S
C3205 C3212 1.424 . S
N3206 C3205 1.379 . S
N3206 C3209 1.334 . S
N3206 Tb3215 2.617 . S
C3207 C3209 1.390 . S
C3207 C3210 1.339 . S
C3207 H3227 0.930 . S
C3208 C3205 1.416 . S
C3208 C3210 1.416 . S
C3208 C3214 1.448 . S
C3209 N3206 1.334 . S
C3209 C3207 1.390 . S
C3209 H3220 0.930 . S
C3210 C3207 1.339 . S
C3210 C3208 1.416 . S
C3210 H3231 0.930 . S
C3211 C3212 1.413 . S
C3211 C3213 1.427 . S
C3211 C3217 1.416 . S
C3212 C3205 1.424 . S
C3212 C3211 1.413 . S
C3212 N3216 1.361 . S
C3213 C3211 1.427 . S
C3213 C3214 1.328 . S
C3213 H3228 0.929 . S
C3214 C3208 1.448 . S
C3214 C3213 1.328 . S
C3214 H3229 0.930 . S
Tb3215 N3206 2.617 . S
Tb3215 N3216 2.572 . S
Tb3215 O3250 2.349 . S
Tb3215 O3253 2.393 . S
Tb3215 O3254 2.465 . S
Tb3215 O3255 2.387 . S
Tb3215 O3257 2.428 . S
Tb3215 O3258 2.308 . S
Tb3215 C3279 2.802 . S
N3216 C3212 1.361 . S
N3216 Tb3215 2.572 . S
N3216 C3218 1.340 . S
C3217 C3211 1.416 . S
C3217 C3219 1.332 . S
C3217 H3225 0.931 . S
C3218 N3216 1.340 . S
C3218 C3219 1.407 . S
C3218 H3224 0.930 . S
C3219 C3217 1.332 . S
C3219 C3218 1.407 . S
C3219 H3221 0.929 . S
H3220 C3209 0.930 . S
H3221 C3219 0.929 . S
H3222 C3237 0.930 . S
H3223 C3244 0.929 . S
H3224 C3218 0.930 . S
H3225 C3217 0.931 . S
H3226 C3240 0.930 . S
H3227 C3207 0.930 . S
H3228 C3213 0.929 . S
H3229 C3214 0.930 . S
H3230 C3235 0.930 . S
H3231 C3210 0.930 . S
H3232 C3243 0.931 . S
N3233 Tb3204 2.617 . S
N3233 C3234 1.379 . S
N3233 C3237 1.334 . S
C3234 N3233 1.379 . S
C3234 C3236 1.416 . S
C3234 C3242 1.424 . S
C3235 H3230 0.930 . S
C3235 C3237 1.390 . S
C3235 C3238 1.339 . S
C3236 C3234 1.416 . S
C3236 C3238 1.416 . S
C3236 C3269 1.448 . S
C3237 H3222 0.930 . S
C3237 N3233 1.334 . S
C3237 C3235 1.390 . S
C3238 C3235 1.339 . S
C3238 C3236 1.416 . S
C3238 H3245 0.930 . S
N3239 Tb3204 2.572 . S
N3239 C3240 1.340 . S
N3239 C3242 1.361 . S
C3240 H3226 0.930 . S
C3240 N3239 1.340 . S
C3240 C3244 1.407 . S
C3241 C3242 1.413 . S
C3241 C3243 1.416 . S
C3241 C3270 1.427 . S
C3242 C3234 1.424 . S
C3242 N3239 1.361 . S
C3242 C3241 1.413 . S
C3243 H3232 0.931 . S
C3243 C3241 1.416 . S
C3243 C3244 1.332 . S
C3244 H3223 0.929 . S
C3244 C3240 1.407 . S
C3244 C3243 1.332 . S
H3245 C3238 0.930 . S
H3246 C3269 0.930 . S
H3247 C3270 0.929 . S
O3248 Tb3204 2.465 . S
O3248 C3268 1.264 . S
O3249 Tb3204 2.387 . S
O3249 C3260 1.264 . S
O3250 Tb3215 2.349 . S
O3250 C3260 1.243 . S
O3251 Tb3204 2.428 . S
O3251 C3268 1.256 . S
O3252 Tb3204 2.308 . S
O3252 C3267 1.266 . S
O3253 Tb3215 2.393 . S
O3253 C3267 1.248 . S
O3254 Tb3215 2.465 . S
O3254 C3279 1.264 . S
O3255 Tb3215 2.387 . S
O3255 C3271 1.264 . S
O3256 Tb3204 2.349 . S
O3256 C3271 1.243 . S
O3257 Tb3215 2.428 . S
O3257 C3279 1.256 . S
O3258 Tb3215 2.308 . S
O3258 C3278 1.266 . S
O3259 Tb3204 2.393 . S
O3259 C3278 1.248 . S
C3260 O3249 1.264 . S
C3260 O3250 1.243 . S
C3261 C3264 1.399 . S
C3261 C3266 1.383 . S
C3261 C3268 1.496 . S
C3262 C3263 1.399 . S
C3262 C3266 1.389 . S
C3263 C3262 1.399 . S
C3263 C3265 1.380 . S
C3263 H3280 0.929 . S
C3264 C3261 1.399 . S
C3264 C3265 1.392 . S
C3264 H3281 0.929 . S
C3265 C3263 1.380 . S
C3265 C3264 1.392 . S
C3265 H3282 0.929 . S
C3266 C3261 1.383 . S
C3266 C3262 1.389 . S
C3266 H3283 0.931 . S
C3267 O3252 1.266 . S
C3267 O3253 1.248 . S
C3268 Tb3204 2.802 . S
C3268 O3248 1.264 . S
C3268 O3251 1.256 . S
C3268 C3261 1.496 . S
C3269 C3236 1.448 . S
C3269 H3246 0.930 . S
C3269 C3270 1.328 . S
C3270 C3241 1.427 . S
C3270 H3247 0.929 . S
C3270 C3269 1.328 . S
C3271 O3255 1.264 . S
C3271 O3256 1.243 . S
C3272 C3275 1.399 . S
C3272 C3276 1.383 . S
C3272 C3279 1.496 . S
C3273 C3274 1.399 . S
C3273 C3276 1.389 . S
C3274 C3273 1.399 . S
C3274 C3277 1.380 . S
C3274 H3284 0.929 . S
C3275 C3272 1.399 . S
C3275 C3277 1.392 . S
C3275 H3285 0.929 . S
C3276 C3272 1.383 . S
C3276 C3273 1.389 . S
C3276 H3286 0.931 . S
C3277 C3274 1.380 . S
C3277 C3275 1.392 . S
C3277 H3287 0.929 . S
C3278 O3258 1.266 . S
C3278 O3259 1.248 . S
C3279 Tb3215 2.802 . S
C3279 O3254 1.264 . S
C3279 O3257 1.256 . S
C3279 C3272 1.496 . S
H3280 C3263 0.929 . S
H3281 C3264 0.929 . S
H3282 C3265 0.929 . S
H3283 C3266 0.931 . S
H3284 C3274 0.929 . S
H3285 C3275 0.929 . S
H3286 C3276 0.931 . S
H3287 C3277 0.929 . S
Tb3288 N3317 2.617 . S
Tb3288 N3323 2.572 . S
Tb3288 O3332 2.465 . S
Tb3288 O3333 2.387 . S
Tb3288 O3335 2.428 . S
Tb3288 O3336 2.308 . S
Tb3288 O3340 2.349 . S
Tb3288 O3343 2.393 . S
Tb3288 C3352 2.802 . S
C3289 N3290 1.379 . S
C3289 C3292 1.416 . S
C3289 C3296 1.424 . S
N3290 C3289 1.379 . S
N3290 C3293 1.334 . S
N3290 Tb3299 2.617 . S
C3291 C3293 1.390 . S
C3291 C3294 1.339 . S
C3291 H3311 0.930 . S
C3292 C3289 1.416 . S
C3292 C3294 1.416 . S
C3292 C3298 1.448 . S
C3293 N3290 1.334 . S
C3293 C3291 1.390 . S
C3293 H3304 0.930 . S
C3294 C3291 1.339 . S
C3294 C3292 1.416 . S
C3294 H3315 0.930 . S
C3295 C3296 1.413 . S
C3295 C3297 1.427 . S
C3295 C3301 1.416 . S
C3296 C3289 1.424 . S
C3296 C3295 1.413 . S
C3296 N3300 1.361 . S
C3297 C3295 1.427 . S
C3297 C3298 1.328 . S
C3297 H3312 0.929 . S
C3298 C3292 1.448 . S
C3298 C3297 1.328 . S
C3298 H3313 0.930 . S
Tb3299 N3290 2.617 . S
Tb3299 N3300 2.572 . S
Tb3299 O3334 2.349 . S
Tb3299 O3337 2.393 . S
Tb3299 O3338 2.465 . S
Tb3299 O3339 2.387 . S
Tb3299 O3341 2.428 . S
Tb3299 O3342 2.308 . S
Tb3299 C3363 2.802 . S
N3300 C3296 1.361 . S
N3300 Tb3299 2.572 . S
N3300 C3302 1.340 . S
C3301 C3295 1.416 . S
C3301 C3303 1.332 . S
C3301 H3309 0.931 . S
C3302 N3300 1.340 . S
C3302 C3303 1.407 . S
C3302 H3308 0.930 . S
C3303 C3301 1.332 . S
C3303 C3302 1.407 . S
C3303 H3305 0.929 . S
H3304 C3293 0.930 . S
H3305 C3303 0.929 . S
H3306 C3321 0.930 . S
H3307 C3328 0.929 . S
H3308 C3302 0.930 . S
H3309 C3301 0.931 . S
H3310 C3324 0.930 . S
H3311 C3291 0.930 . S
H3312 C3297 0.929 . S
H3313 C3298 0.930 . S
H3314 C3319 0.930 . S
H3315 C3294 0.930 . S
H3316 C3327 0.931 . S
N3317 Tb3288 2.617 . S
N3317 C3318 1.379 . S
N3317 C3321 1.334 . S
C3318 N3317 1.379 . S
C3318 C3320 1.416 . S
C3318 C3326 1.424 . S
C3319 H3314 0.930 . S
C3319 C3321 1.390 . S
C3319 C3322 1.339 . S
C3320 C3318 1.416 . S
C3320 C3322 1.416 . S
C3320 C3353 1.448 . S
C3321 H3306 0.930 . S
C3321 N3317 1.334 . S
C3321 C3319 1.390 . S
C3322 C3319 1.339 . S
C3322 C3320 1.416 . S
C3322 H3329 0.930 . S
N3323 Tb3288 2.572 . S
N3323 C3324 1.340 . S
N3323 C3326 1.361 . S
C3324 H3310 0.930 . S
C3324 N3323 1.340 . S
C3324 C3328 1.407 . S
C3325 C3326 1.413 . S
C3325 C3327 1.416 . S
C3325 C3354 1.427 . S
C3326 C3318 1.424 . S
C3326 N3323 1.361 . S
C3326 C3325 1.413 . S
C3327 H3316 0.931 . S
C3327 C3325 1.416 . S
C3327 C3328 1.332 . S
C3328 H3307 0.929 . S
C3328 C3324 1.407 . S
C3328 C3327 1.332 . S
H3329 C3322 0.930 . S
H3330 C3353 0.930 . S
H3331 C3354 0.929 . S
O3332 Tb3288 2.465 . S
O3332 C3352 1.264 . S
O3333 Tb3288 2.387 . S
O3333 C3344 1.264 . S
O3334 Tb3299 2.349 . S
O3334 C3344 1.243 . S
O3335 Tb3288 2.428 . S
O3335 C3352 1.256 . S
O3336 Tb3288 2.308 . S
O3336 C3351 1.266 . S
O3337 Tb3299 2.393 . S
O3337 C3351 1.248 . S
O3338 Tb3299 2.465 . S
O3338 C3363 1.264 . S
O3339 Tb3299 2.387 . S
O3339 C3355 1.264 . S
O3340 Tb3288 2.349 . S
O3340 C3355 1.243 . S
O3341 Tb3299 2.428 . S
O3341 C3363 1.256 . S
O3342 Tb3299 2.308 . S
O3342 C3362 1.266 . S
O3343 Tb3288 2.393 . S
O3343 C3362 1.248 . S
C3344 O3333 1.264 . S
C3344 O3334 1.243 . S
C3345 C3348 1.399 . S
C3345 C3350 1.383 . S
C3345 C3352 1.496 . S
C3346 C3347 1.399 . S
C3346 C3350 1.389 . S
C3347 C3346 1.399 . S
C3347 C3349 1.380 . S
C3347 H3364 0.929 . S
C3348 C3345 1.399 . S
C3348 C3349 1.392 . S
C3348 H3365 0.929 . S
C3349 C3347 1.380 . S
C3349 C3348 1.392 . S
C3349 H3366 0.929 . S
C3350 C3345 1.383 . S
C3350 C3346 1.389 . S
C3350 H3367 0.931 . S
C3351 O3336 1.266 . S
C3351 O3337 1.248 . S
C3352 Tb3288 2.802 . S
C3352 O3332 1.264 . S
C3352 O3335 1.256 . S
C3352 C3345 1.496 . S
C3353 C3320 1.448 . S
C3353 H3330 0.930 . S
C3353 C3354 1.328 . S
C3354 C3325 1.427 . S
C3354 H3331 0.929 . S
C3354 C3353 1.328 . S
C3355 O3339 1.264 . S
C3355 O3340 1.243 . S
C3356 C3359 1.399 . S
C3356 C3360 1.383 . S
C3356 C3363 1.496 . S
C3357 C3358 1.399 . S
C3357 C3360 1.389 . S
C3358 C3357 1.399 . S
C3358 C3361 1.380 . S
C3358 H3368 0.929 . S
C3359 C3356 1.399 . S
C3359 C3361 1.392 . S
C3359 H3369 0.929 . S
C3360 C3356 1.383 . S
C3360 C3357 1.389 . S
C3360 H3370 0.931 . S
C3361 C3358 1.380 . S
C3361 C3359 1.392 . S
C3361 H3371 0.929 . S
C3362 O3342 1.266 . S
C3362 O3343 1.248 . S
C3363 Tb3299 2.802 . S
C3363 O3338 1.264 . S
C3363 O3341 1.256 . S
C3363 C3356 1.496 . S
H3364 C3347 0.929 . S
H3365 C3348 0.929 . S
H3366 C3349 0.929 . S
H3367 C3350 0.931 . S
H3368 C3358 0.929 . S
H3369 C3359 0.929 . S
H3370 C3360 0.931 . S
H3371 C3361 0.929 . S
Tb3372 N3401 2.619 . S
Tb3372 N3407 2.576 . S
Tb3372 O3416 2.471 . S
Tb3372 O3417 2.383 1_655 S
Tb3372 O3419 2.433 . S
Tb3372 O3420 2.306 1_655 S
Tb3372 O3424 2.347 1_655 S
Tb3372 O3427 2.388 1_655 S
Tb3372 C3436 2.809 . S
C3373 N3374 1.379 . S
C3373 C3376 1.416 . S
C3373 C3380 1.424 1_556 S
N3374 C3373 1.379 . S
N3374 C3377 1.334 . S
N3374 Tb3383 2.617 1_556 S
C3375 C3377 1.390 . S
C3375 C3378 1.339 . S
C3375 H3395 0.930 . S
C3376 C3373 1.416 . S
C3376 C3378 1.416 . S
C3376 C3382 1.448 . S
C3377 N3374 1.334 . S
C3377 C3375 1.390 . S
C3377 H3388 0.930 . S
C3378 C3375 1.339 . S
C3378 C3376 1.416 . S
C3378 H3399 0.930 . S
C3379 C3380 1.413 . S
C3379 C3381 1.427 . S
C3379 C3385 1.416 . S
C3380 C3373 1.424 1_554 S
C3380 C3379 1.413 . S
C3380 N3384 1.361 . S
C3381 C3379 1.427 . S
C3381 C3382 1.328 1_554 S
C3381 H3396 0.929 . S
C3382 C3376 1.448 . S
C3382 C3381 1.328 1_556 S
C3382 H3397 0.930 . S
Tb3383 N3374 2.617 1_554 S
Tb3383 N3384 2.572 . S
Tb3383 O3418 2.349 . S
Tb3383 O3421 2.393 1_554 S
Tb3383 O3422 2.465 . S
Tb3383 O3423 2.387 . S
Tb3383 O3425 2.428 1_554 S
Tb3383 O3426 2.308 . S
Tb3383 C3447 2.816 . S
N3384 C3380 1.361 . S
N3384 Tb3383 2.572 . S
N3384 C3386 1.340 . S
C3385 C3379 1.416 . S
C3385 C3387 1.332 . S
C3385 H3393 0.931 . S
C3386 N3384 1.340 . S
C3386 C3387 1.407 . S
C3386 H3392 0.930 . S
C3387 C3385 1.332 . S
C3387 C3386 1.407 . S
C3387 H3389 0.929 . S
H3388 C3377 0.930 . S
H3389 C3387 0.929 . S
H3390 C3405 0.930 1_455 S
H3391 C3412 0.929 . S
H3392 C3386 0.930 . S
H3393 C3385 0.931 . S
H3394 C3408 0.930 1_556 S
H3395 C3375 0.930 . S
H3396 C3381 0.929 . S
H3397 C3382 0.930 . S
H3398 C3403 0.930 . S
H3399 C3378 0.930 . S
H3400 C3411 0.931 . S
N3401 Tb3372 2.619 . S
N3401 C3402 1.379 . S
N3401 C3405 1.334 . S
C3402 N3401 1.379 . S
C3402 C3404 1.416 . S
C3402 C3410 1.424 . S
C3403 H3398 0.930 . S
C3403 C3405 1.390 . S
C3403 C3406 1.339 . S
C3404 C3402 1.416 . S
C3404 C3406 1.416 . S
C3404 C3437 1.448 . S
C3405 H3390 0.930 1_655 S
C3405 N3401 1.334 . S
C3405 C3403 1.390 . S
C3406 C3403 1.339 . S
C3406 C3404 1.416 . S
C3406 H3413 0.930 . S
N3407 Tb3372 2.576 . S
N3407 C3408 1.340 . S
N3407 C3410 1.361 . S
C3408 H3394 0.930 1_554 S
C3408 N3407 1.340 . S
C3408 C3412 1.407 1_554 S
C3409 C3410 1.413 . S
C3409 C3411 1.416 . S
C3409 C3438 1.427 . S
C3410 C3402 1.424 . S
C3410 N3407 1.361 . S
C3410 C3409 1.413 . S
C3411 H3400 0.931 . S
C3411 C3409 1.416 . S
C3411 C3412 1.332 1_554 S
C3412 H3391 0.929 . S
C3412 C3408 1.407 1_556 S
C3412 C3411 1.332 1_556 S
H3413 C3406 0.930 . S
H3414 C3437 0.930 . S
H3415 C3438 0.929 . S
O3416 Tb3372 2.471 . S
O3416 C3436 1.264 . S
O3417 Tb3372 2.383 1_455 S
O3417 C3428 1.264 . S
O3418 Tb3383 2.349 . S
O3418 C3428 1.243 . S
O3419 Tb3372 2.433 . S
O3419 C3436 1.256 . S
O3420 Tb3372 2.306 1_455 S
O3420 C3435 1.266 1_554 S
O3421 Tb3383 2.393 1_556 S
O3421 C3435 1.248 . S
O3422 Tb3383 2.465 . S
O3422 C3447 1.328 . S
O3423 Tb3383 2.387 . S
O3423 C3439 1.264 . S
O3424 Tb3372 2.347 1_455 S
O3424 C3439 1.243 . S
O3425 Tb3383 2.428 1_556 S
O3425 C3447 1.207 1_556 S
O3426 Tb3383 2.308 . S
O3426 C3446 1.266 . S
O3427 Tb3372 2.388 1_455 S
O3427 C3446 1.248 . S
C3428 O3417 1.264 . S
C3428 O3418 1.243 . S
C3429 C3432 1.399 . S
C3429 C3434 1.383 . S
C3429 C3436 1.496 . S
C3430 C3431 1.399 . S
C3430 C3434 1.389 . S
C3431 C3430 1.399 . S
C3431 C3433 1.380 . S
C3431 H3448 0.929 . S
C3432 C3429 1.399 . S
C3432 C3433 1.392 . S
C3432 H3449 0.929 . S
C3433 C3431 1.380 . S
C3433 C3432 1.392 . S
C3433 H3450 0.929 . S
C3434 C3429 1.383 . S
C3434 C3430 1.389 . S
C3434 H3451 0.931 . S
C3435 O3420 1.266 1_556 S
C3435 O3421 1.248 . S
C3436 Tb3372 2.809 . S
C3436 O3416 1.264 . S
C3436 O3419 1.256 . S
C3436 C3429 1.496 . S
C3437 C3404 1.448 . S
C3437 H3414 0.930 . S
C3437 C3438 1.328 . S
C3438 C3409 1.427 . S
C3438 H3415 0.929 . S
C3438 C3437 1.328 . S
C3439 O3423 1.264 . S
C3439 O3424 1.243 . S
C3440 C3443 1.399 . S
C3440 C3444 1.383 1_556 S
C3440 C3447 1.484 1_556 S
C3441 C3442 1.399 1_554 S
C3441 C3444 1.389 . S
C3442 C3441 1.399 1_556 S
C3442 C3445 1.380 . S
C3442 H3452 0.929 . S
C3443 C3440 1.399 . S
C3443 C3445 1.392 . S
C3443 H3453 0.929 . S
C3444 C3440 1.383 1_554 S
C3444 C3441 1.389 . S
C3444 H3454 0.931 . S
C3445 C3442 1.380 . S
C3445 C3443 1.392 . S
C3445 H3455 0.929 . S
C3446 O3426 1.266 . S
C3446 O3427 1.248 . S
C3447 Tb3383 2.816 . S
C3447 O3422 1.328 . S
C3447 O3425 1.207 1_554 S
C3447 C3440 1.484 1_554 S
H3448 C3431 0.929 . S
H3449 C3432 0.929 . S
H3450 C3433 0.929 . S
H3451 C3434 0.931 . S
H3452 C3442 0.929 . S
H3453 C3443 0.929 . S
H3454 C3444 0.931 . S
H3455 C3445 0.929 . S
H3456 C3464 0.929 . S
H3457 C3466 0.930 . S
H3458 C3468 0.930 1_554 S
H3459 C3471 0.929 . S
H3460 C3474 0.930 . S
H3461 C3476 0.960 . S
H3462 C3476 1.008 . S
H3463 C3476 0.936 1_455 S
C3464 H3456 0.929 . S
C3464 C3465 1.377 . S
C3464 C3466 1.384 . S
C3465 C3464 1.377 . S
C3465 C3471 1.390 1_655 S
C3466 H3457 0.930 . S
C3466 C3464 1.384 . S
C3466 C3467 1.372 1_655 S
C3467 C3466 1.372 1_455 S
C3467 C3468 1.400 . S
C3467 C3472 1.490 . S
C3468 H3458 0.930 1_556 S
C3468 C3467 1.400 . S
C3468 C3471 1.386 . S
H3469 C3485 0.930 . S
H3470 C3486 0.931 . S
C3471 H3459 0.929 . S
C3471 C3465 1.390 1_455 S
C3471 C3468 1.386 . S
C3472 C3467 1.490 . S
C3472 C3474 1.395 . S
C3472 C3475 1.403 1_556 S
H3473 C3479 0.930 . S
C3474 H3460 0.930 . S
C3474 C3472 1.395 . S
C3474 C3477 1.403 . S
C3475 C3472 1.403 1_554 S
C3475 C3476 1.502 1_455 S
C3475 C3479 1.400 . S
C3476 H3461 0.960 . S
C3476 H3462 1.008 . S
C3476 H3463 0.936 1_655 S
C3476 C3475 1.502 1_655 S
C3477 C3474 1.403 . S
C3477 C3478 1.392 . S
C3477 C3481 1.495 . S
C3478 C3477 1.392 . S
C3478 C3479 1.385 1_556 S
C3478 C3480 1.478 . S
C3479 H3473 0.930 . S
C3479 C3475 1.400 . S
C3479 C3478 1.385 1_554 S
C3480 C3478 1.478 . S
C3480 C3482 1.381 . S
C3480 C3486 1.383 1_556 S
C3481 C3477 1.495 . S
C3481 H3487 0.959 . S
C3481 H3488 0.961 . S
C3481 H3489 0.960 . S
C3482 C3480 1.381 . S
C3482 C3483 1.394 . S
C3482 H3490 0.930 1_455 S
C3483 C3482 1.394 . S
C3483 C3484 1.383 1_556 S
C3483 H3491 0.929 1_455 S
C3484 C3483 1.383 1_554 S
C3484 C3485 1.377 . S
C3485 H3469 0.930 . S
C3485 C3484 1.377 . S
C3485 C3486 1.379 . S
C3486 H3470 0.931 . S
C3486 C3480 1.383 1_554 S
C3486 C3485 1.379 . S
H3487 C3481 0.959 . S
H3488 C3481 0.961 . S
H3489 C3481 0.960 . S
H3490 C3482 0.930 1_655 S
H3491 C3483 0.929 1_655 S
H3492 C3500 0.929 . S
H3493 C3502 0.930 . S
H3494 C3504 0.930 . S
H3495 C3507 0.929 . S
H3496 C3510 0.930 . S
H3497 C3512 0.960 . S
H3498 C3512 0.960 . S
H3499 C3512 0.960 . S
C3500 H3492 0.929 . S
C3500 C3501 1.377 . S
C3500 C3502 1.384 . S
C3501 C3500 1.377 . S
C3501 C3507 1.390 . S
C3502 H3493 0.930 . S
C3502 C3500 1.384 . S
C3502 C3503 1.372 . S
C3503 C3502 1.372 . S
C3503 C3504 1.400 . S
C3503 C3508 1.490 . S
C3504 H3494 0.930 . S
C3504 C3503 1.400 . S
C3504 C3507 1.386 . S
H3505 C3521 0.930 . S
H3506 C3522 0.931 . S
C3507 H3495 0.929 . S
C3507 C3501 1.390 . S
C3507 C3504 1.386 . S
C3508 C3503 1.490 . S
C3508 C3510 1.395 . S
C3508 C3511 1.403 . S
H3509 C3515 0.930 . S
C3510 H3496 0.930 . S
C3510 C3508 1.395 . S
C3510 C3513 1.403 . S
C3511 C3508 1.403 . S
C3511 C3512 1.524 . S
C3511 C3515 1.400 . S
C3512 H3497 0.960 . S
C3512 H3498 0.960 . S
C3512 H3499 0.960 . S
C3512 C3511 1.524 . S
C3513 C3510 1.403 . S
C3513 C3514 1.392 . S
C3513 C3517 1.495 . S
C3514 C3513 1.392 . S
C3514 C3515 1.385 . S
C3514 C3516 1.478 . S
C3515 H3509 0.930 . S
C3515 C3511 1.400 . S
C3515 C3514 1.385 . S
C3516 C3514 1.478 . S
C3516 C3518 1.381 . S
C3516 C3522 1.383 . S
C3517 C3513 1.495 . S
C3517 H3523 0.959 . S
C3517 H3524 0.961 . S
C3517 H3525 0.960 . S
C3518 C3516 1.381 . S
C3518 C3519 1.394 . S
C3518 H3526 0.930 . S
C3519 C3518 1.394 . S
C3519 C3520 1.383 . S
C3519 H3527 0.929 . S
C3520 C3519 1.383 . S
C3520 C3521 1.377 . S
C3521 H3505 0.930 . S
C3521 C3520 1.377 . S
C3521 C3522 1.379 . S
C3522 H3506 0.931 . S
C3522 C3516 1.383 . S
C3522 C3521 1.379 . S
H3523 C3517 0.959 . S
H3524 C3517 0.961 . S
H3525 C3517 0.960 . S
H3526 C3518 0.930 . S
H3527 C3519 0.929 . S
H3528 C3536 0.929 . S
H3529 C3538 0.930 . S
H3530 C3540 0.930 . S
H3531 C3543 0.929 . S
H3532 C3546 0.930 . S
H3533 C3548 0.960 . S
H3534 C3548 0.960 . S
H3535 C3548 0.960 . S
C3536 H3528 0.929 . S
C3536 C3537 1.377 . S
C3536 C3538 1.384 . S
C3537 C3536 1.377 . S
C3537 C3543 1.390 . S
C3538 H3529 0.930 . S
C3538 C3536 1.384 . S
C3538 C3539 1.372 . S
C3539 C3538 1.372 . S
C3539 C3540 1.400 . S
C3539 C3544 1.490 . S
C3540 H3530 0.930 . S
C3540 C3539 1.400 . S
C3540 C3543 1.386 . S
H3541 C3557 0.930 . S
H3542 C3558 0.931 . S
C3543 H3531 0.929 . S
C3543 C3537 1.390 . S
C3543 C3540 1.386 . S
C3544 C3539 1.490 . S
C3544 C3546 1.395 . S
C3544 C3547 1.403 . S
H3545 C3551 0.930 . S
C3546 H3532 0.930 . S
C3546 C3544 1.395 . S
C3546 C3549 1.403 . S
C3547 C3544 1.403 . S
C3547 C3548 1.524 . S
C3547 C3551 1.400 . S
C3548 H3533 0.960 . S
C3548 H3534 0.960 . S
C3548 H3535 0.960 . S
C3548 C3547 1.524 . S
C3549 C3546 1.403 . S
C3549 C3550 1.392 . S
C3549 C3553 1.495 . S
C3550 C3549 1.392 . S
C3550 C3551 1.385 . S
C3550 C3552 1.478 . S
C3551 H3545 0.930 . S
C3551 C3547 1.400 . S
C3551 C3550 1.385 . S
C3552 C3550 1.478 . S
C3552 C3554 1.381 . S
C3552 C3558 1.383 . S
C3553 C3549 1.495 . S
C3553 H3559 0.959 . S
C3553 H3560 0.961 . S
C3553 H3561 0.960 . S
C3554 C3552 1.381 . S
C3554 C3555 1.394 . S
C3554 H3562 0.930 . S
C3555 C3554 1.394 . S
C3555 C3556 1.383 . S
C3555 H3563 0.929 . S
C3556 C3555 1.383 . S
C3556 C3557 1.377 . S
C3557 H3541 0.930 . S
C3557 C3556 1.377 . S
C3557 C3558 1.379 . S
C3558 H3542 0.931 . S
C3558 C3552 1.383 . S
C3558 C3557 1.379 . S
H3559 C3553 0.959 . S
H3560 C3553 0.961 . S
H3561 C3553 0.960 . S
H3562 C3554 0.930 . S
H3563 C3555 0.929 . S
H3564 C3572 0.929 . S
H3565 C3574 0.930 . S
H3566 C3576 0.930 . S
H3567 C3579 0.929 . S
H3568 C3582 0.930 . S
H3569 C3584 0.960 . S
H3570 C3584 0.960 . S
H3571 C3584 0.960 . S
C3572 H3564 0.929 . S
C3572 C3573 1.377 . S
C3572 C3574 1.384 . S
C3573 C3572 1.377 . S
C3573 C3579 1.390 . S
C3574 H3565 0.930 . S
C3574 C3572 1.384 . S
C3574 C3575 1.372 . S
C3575 C3574 1.372 . S
C3575 C3576 1.400 . S
C3575 C3580 1.490 . S
C3576 H3566 0.930 . S
C3576 C3575 1.400 . S
C3576 C3579 1.386 . S
H3577 C3593 0.930 . S
H3578 C3594 0.931 . S
C3579 H3567 0.929 . S
C3579 C3573 1.390 . S
C3579 C3576 1.386 . S
C3580 C3575 1.490 . S
C3580 C3582 1.395 . S
C3580 C3583 1.403 . S
H3581 C3587 0.930 . S
C3582 H3568 0.930 . S
C3582 C3580 1.395 . S
C3582 C3585 1.403 . S
C3583 C3580 1.403 . S
C3583 C3584 1.524 . S
C3583 C3587 1.400 . S
C3584 H3569 0.960 . S
C3584 H3570 0.960 . S
C3584 H3571 0.960 . S
C3584 C3583 1.524 . S
C3585 C3582 1.403 . S
C3585 C3586 1.392 . S
C3585 C3589 1.495 . S
C3586 C3585 1.392 . S
C3586 C3587 1.385 . S
C3586 C3588 1.478 . S
C3587 H3581 0.930 . S
C3587 C3583 1.400 . S
C3587 C3586 1.385 . S
C3588 C3586 1.478 . S
C3588 C3590 1.381 . S
C3588 C3594 1.383 . S
C3589 C3585 1.495 . S
C3589 H3595 0.959 . S
C3589 H3596 0.961 . S
C3589 H3597 0.960 . S
C3590 C3588 1.381 . S
C3590 C3591 1.394 . S
C3590 H3598 0.930 . S
C3591 C3590 1.394 . S
C3591 C3592 1.383 . S
C3591 H3599 0.929 . S
C3592 C3591 1.383 . S
C3592 C3593 1.377 . S
C3593 H3577 0.930 . S
C3593 C3592 1.377 . S
C3593 C3594 1.379 . S
C3594 H3578 0.931 . S
C3594 C3588 1.383 . S
C3594 C3593 1.379 . S
H3595 C3589 0.959 . S
H3596 C3589 0.961 . S
H3597 C3589 0.960 . S
H3598 C3590 0.930 . S
H3599 C3591 0.929 . S
H3600 C3608 0.929 . S
H3601 C3610 0.930 . S
H3602 C3612 0.930 1_655 S
H3603 C3615 0.929 1_655 S
H3604 C3618 0.930 . S
H3605 C3620 0.960 . S
H3606 C3620 0.960 . S
H3607 C3620 0.960 . S
C3608 H3600 0.929 . S
C3608 C3609 1.377 . S
C3608 C3610 1.384 . S
C3609 C3608 1.377 . S
C3609 C3615 1.390 . S
C3610 H3601 0.930 . S
C3610 C3608 1.384 . S
C3610 C3611 1.372 . S
C3611 C3610 1.372 . S
C3611 C3612 1.400 . S
C3611 C3616 1.490 . S
C3612 H3602 0.930 1_455 S
C3612 C3611 1.400 . S
C3612 C3615 1.386 . S
H3613 C3629 0.945 . S
H3614 C3630 0.931 1_655 S
C3615 H3603 0.929 1_455 S
C3615 C3609 1.390 . S
C3615 C3612 1.386 . S
C3616 C3611 1.490 . S
C3616 C3618 1.395 . S
C3616 C3619 1.403 . S
H3617 C3623 0.930 . S
C3618 H3604 0.930 . S
C3618 C3616 1.395 . S
C3618 C3621 1.403 . S
C3619 C3616 1.403 . S
C3619 C3620 1.524 . S
C3619 C3623 1.400 . S
C3620 H3605 0.960 . S
C3620 H3606 0.960 . S
C3620 H3607 0.960 . S
C3620 C3619 1.524 . S
C3621 C3618 1.403 . S
C3621 C3622 1.392 . S
C3621 C3625 1.495 . S
C3622 C3621 1.392 . S
C3622 C3623 1.385 . S
C3622 C3624 1.478 . S
C3623 H3617 0.930 . S
C3623 C3619 1.400 . S
C3623 C3622 1.385 . S
C3624 C3622 1.478 . S
C3624 C3626 1.381 . S
C3624 C3630 1.383 . S
C3625 C3621 1.495 . S
C3625 H3631 0.959 . S
C3625 H3632 0.961 . S
C3625 H3633 0.960 . S
C3626 C3624 1.381 . S
C3626 C3627 1.394 . S
C3626 H3634 0.930 . S
C3627 C3626 1.394 . S
C3627 C3628 1.383 . S
C3627 H3635 0.929 . S
C3628 C3627 1.383 . S
C3628 C3629 1.377 . S
C3629 H3613 0.945 . S
C3629 C3628 1.377 . S
C3629 C3630 1.379 . S
C3630 H3614 0.931 1_455 S
C3630 C3624 1.383 . S
C3630 C3629 1.379 . S
H3631 C3625 0.959 . S
H3632 C3625 0.961 . S
H3633 C3625 0.960 . S
H3634 C3626 0.930 . S
H3635 C3627 0.929 . S
H3636 C3644 0.929 . S
H3637 C3646 0.930 . S
H3638 C3648 0.930 . S
H3639 C3651 0.929 . S
H3640 C3654 0.930 . S
H3641 C3656 0.960 . S
H3642 C3656 0.960 . S
H3643 C3656 0.960 . S
C3644 H3636 0.929 . S
C3644 C3645 1.377 . S
C3644 C3646 1.384 . S
C3645 C3644 1.377 . S
C3645 C3651 1.390 . S
C3646 H3637 0.930 . S
C3646 C3644 1.384 . S
C3646 C3647 1.372 . S
C3647 C3646 1.372 . S
C3647 C3648 1.400 . S
C3647 C3652 1.490 . S
C3648 H3638 0.930 . S
C3648 C3647 1.400 . S
C3648 C3651 1.386 . S
H3649 C3665 0.930 . S
H3650 C3666 0.931 . S
C3651 H3639 0.929 . S
C3651 C3645 1.390 . S
C3651 C3648 1.386 . S
C3652 C3647 1.490 . S
C3652 C3654 1.395 . S
C3652 C3655 1.403 . S
H3653 C3659 0.930 . S
C3654 H3640 0.930 . S
C3654 C3652 1.395 . S
C3654 C3657 1.403 . S
C3655 C3652 1.403 . S
C3655 C3656 1.524 . S
C3655 C3659 1.400 . S
C3656 H3641 0.960 . S
C3656 H3642 0.960 . S
C3656 H3643 0.960 . S
C3656 C3655 1.524 . S
C3657 C3654 1.403 . S
C3657 C3658 1.392 . S
C3657 C3661 1.495 . S
C3658 C3657 1.392 . S
C3658 C3659 1.385 . S
C3658 C3660 1.478 . S
C3659 H3653 0.930 . S
C3659 C3655 1.400 . S
C3659 C3658 1.385 . S
C3660 C3658 1.478 . S
C3660 C3662 1.381 . S
C3660 C3666 1.383 . S
C3661 C3657 1.495 . S
C3661 H3667 0.959 . S
C3661 H3668 0.961 . S
C3661 H3669 0.960 . S
C3662 C3660 1.381 . S
C3662 C3663 1.394 . S
C3662 H3670 0.930 . S
C3663 C3662 1.394 . S
C3663 C3664 1.383 . S
C3663 H3671 0.929 . S
C3664 C3663 1.383 . S
C3664 C3665 1.377 . S
C3665 H3649 0.930 . S
C3665 C3664 1.377 . S
C3665 C3666 1.379 . S
C3666 H3650 0.931 . S
C3666 C3660 1.383 . S
C3666 C3665 1.379 . S
H3667 C3661 0.959 . S
H3668 C3661 0.961 . S
H3669 C3661 0.960 . S
H3670 C3662 0.930 . S
H3671 C3663 0.929 . S
H3672 C3680 0.929 . S
H3673 C3682 0.930 . S
H3674 C3684 0.930 . S
H3675 C3687 0.929 . S
H3676 C3690 0.930 . S
H3677 C3692 0.960 . S
H3678 C3692 0.960 . S
H3679 C3692 0.960 . S
C3680 H3672 0.929 . S
C3680 C3681 1.377 . S
C3680 C3682 1.384 . S
C3681 C3680 1.377 . S
C3681 C3687 1.390 . S
C3682 H3673 0.930 . S
C3682 C3680 1.384 . S
C3682 C3683 1.372 . S
C3683 C3682 1.372 . S
C3683 C3684 1.400 . S
C3683 C3688 1.490 . S
C3684 H3674 0.930 . S
C3684 C3683 1.400 . S
C3684 C3687 1.386 . S
H3685 C3701 0.930 . S
H3686 C3702 0.931 . S
C3687 H3675 0.929 . S
C3687 C3681 1.390 . S
C3687 C3684 1.386 . S
C3688 C3683 1.490 . S
C3688 C3690 1.395 . S
C3688 C3691 1.403 . S
H3689 C3695 0.930 . S
C3690 H3676 0.930 . S
C3690 C3688 1.395 . S
C3690 C3693 1.403 . S
C3691 C3688 1.403 . S
C3691 C3692 1.524 . S
C3691 C3695 1.400 . S
C3692 H3677 0.960 . S
C3692 H3678 0.960 . S
C3692 H3679 0.960 . S
C3692 C3691 1.524 . S
C3693 C3690 1.403 . S
C3693 C3694 1.392 . S
C3693 C3697 1.495 . S
C3694 C3693 1.392 . S
C3694 C3695 1.385 . S
C3694 C3696 1.478 . S
C3695 H3689 0.930 . S
C3695 C3691 1.400 . S
C3695 C3694 1.385 . S
C3696 C3694 1.478 . S
C3696 C3698 1.381 . S
C3696 C3702 1.383 . S
C3697 C3693 1.495 . S
C3697 H3703 0.959 . S
C3697 H3704 0.961 . S
C3697 H3705 0.960 . S
C3698 C3696 1.381 . S
C3698 C3699 1.394 . S
C3698 H3706 0.930 . S
C3699 C3698 1.394 . S
C3699 C3700 1.383 . S
C3699 H3707 0.929 . S
C3700 C3699 1.383 . S
C3700 C3701 1.377 . S
C3701 H3685 0.930 . S
C3701 C3700 1.377 . S
C3701 C3702 1.379 . S
C3702 H3686 0.931 . S
C3702 C3696 1.383 . S
C3702 C3701 1.379 . S
H3703 C3697 0.959 . S
H3704 C3697 0.961 . S
H3705 C3697 0.960 . S
H3706 C3698 0.930 . S
H3707 C3699 0.929 . S
H3708 C3716 0.929 . S
H3709 C3718 0.930 . S
H3710 C3720 0.930 . S
H3711 C3723 0.929 . S
H3712 C3726 0.930 . S
H3713 C3728 0.960 . S
H3714 C3728 0.960 . S
H3715 C3728 0.960 . S
C3716 H3708 0.929 . S
C3716 C3717 1.377 . S
C3716 C3718 1.384 . S
C3717 C3716 1.377 . S
C3717 C3723 1.390 . S
C3718 H3709 0.930 . S
C3718 C3716 1.384 . S
C3718 C3719 1.372 . S
C3719 C3718 1.372 . S
C3719 C3720 1.400 . S
C3719 C3724 1.490 . S
C3720 H3710 0.930 . S
C3720 C3719 1.400 . S
C3720 C3723 1.386 . S
H3721 C3737 0.930 . S
H3722 C3738 0.931 . S
C3723 H3711 0.929 . S
C3723 C3717 1.390 . S
C3723 C3720 1.386 . S
C3724 C3719 1.490 . S
C3724 C3726 1.395 . S
C3724 C3727 1.403 . S
H3725 C3731 0.930 . S
C3726 H3712 0.930 . S
C3726 C3724 1.395 . S
C3726 C3729 1.403 . S
C3727 C3724 1.403 . S
C3727 C3728 1.524 . S
C3727 C3731 1.400 . S
C3728 H3713 0.960 . S
C3728 H3714 0.960 . S
C3728 H3715 0.960 . S
C3728 C3727 1.524 . S
C3729 C3726 1.403 . S
C3729 C3730 1.392 . S
C3729 C3733 1.495 . S
C3730 C3729 1.392 . S
C3730 C3731 1.385 . S
C3730 C3732 1.478 . S
C3731 H3725 0.930 . S
C3731 C3727 1.400 . S
C3731 C3730 1.385 . S
C3732 C3730 1.478 . S
C3732 C3734 1.381 . S
C3732 C3738 1.383 . S
C3733 C3729 1.495 . S
C3733 H3739 0.959 . S
C3733 H3740 0.961 . S
C3733 H3741 0.960 . S
C3734 C3732 1.381 . S
C3734 C3735 1.394 . S
C3734 H3742 0.930 . S
C3735 C3734 1.394 . S
C3735 C3736 1.383 . S
C3735 H3743 0.929 . S
C3736 C3735 1.383 . S
C3736 C3737 1.377 . S
C3737 H3721 0.930 . S
C3737 C3736 1.377 . S
C3737 C3738 1.379 . S
C3738 H3722 0.931 . S
C3738 C3732 1.383 . S
C3738 C3737 1.379 . S
H3739 C3733 0.959 . S
H3740 C3733 0.961 . S
H3741 C3733 0.960 . S
H3742 C3734 0.930 . S
H3743 C3735 0.929 . S
H3744 C3752 0.929 . S
H3745 C3754 0.930 . S
H3746 C3756 0.886 1_565 S
H3747 C3759 0.929 1_565 S
H3748 C3762 0.930 . S
H3749 C3764 0.960 . S
H3750 C3764 0.960 . S
H3751 C3764 0.960 . S
C3752 H3744 0.929 . S
C3752 C3753 1.377 . S
C3752 C3754 1.384 . S
C3753 C3752 1.377 . S
C3753 C3759 1.390 . S
C3754 H3745 0.930 . S
C3754 C3752 1.384 . S
C3754 C3755 1.372 . S
C3755 C3754 1.372 . S
C3755 C3756 1.400 . S
C3755 C3760 1.490 . S
C3756 H3746 0.886 1_545 S
C3756 C3755 1.400 . S
C3756 C3759 1.386 . S
H3757 C3773 0.930 . S
H3758 C3774 0.931 . S
C3759 H3747 0.929 1_545 S
C3759 C3753 1.390 . S
C3759 C3756 1.386 . S
C3760 C3755 1.490 . S
C3760 C3762 1.395 . S
C3760 C3763 1.403 . S
H3761 C3767 0.930 . S
C3762 H3748 0.930 . S
C3762 C3760 1.395 . S
C3762 C3765 1.403 . S
C3763 C3760 1.403 . S
C3763 C3764 1.524 1_545 S
C3763 C3767 1.400 . S
C3764 H3749 0.960 . S
C3764 H3750 0.960 . S
C3764 H3751 0.960 . S
C3764 C3763 1.524 1_565 S
C3765 C3762 1.403 . S
C3765 C3766 1.392 . S
C3765 C3769 1.495 1_655 S
C3766 C3765 1.392 . S
C3766 C3767 1.385 . S
C3766 C3768 1.478 . S
C3767 H3761 0.930 . S
C3767 C3763 1.400 . S
C3767 C3766 1.385 . S
C3768 C3766 1.478 . S
C3768 C3770 1.381 . S
C3768 C3774 1.383 1_655 S
C3769 C3765 1.495 1_455 S
C3769 H3775 0.959 . S
C3769 H3776 0.961 . S
C3769 H3777 0.959 . S
C3770 C3768 1.381 . S
C3770 C3771 1.394 . S
C3770 H3778 0.930 . S
C3771 C3770 1.394 . S
C3771 C3772 1.383 1_655 S
C3771 H3779 0.929 . S
C3772 C3771 1.383 1_455 S
C3772 C3773 1.377 . S
C3773 H3757 0.930 . S
C3773 C3772 1.377 . S
C3773 C3774 1.379 . S
C3774 H3758 0.931 . S
C3774 C3768 1.383 1_455 S
C3774 C3773 1.379 . S
H3775 C3769 0.959 . S
H3776 C3769 0.961 . S
H3777 C3769 0.959 . S
H3778 C3770 0.930 . S
H3779 C3771 0.929 . S
H3780 C3788 0.929 . S
H3781 C3790 0.930 . S
H3782 C3792 0.930 . S
H3783 C3795 0.929 . S
H3784 C3798 0.930 . S
H3785 C3800 0.960 . S
H3786 C3800 0.960 . S
H3787 C3800 0.960 . S
C3788 H3780 0.929 . S
C3788 C3789 1.377 . S
C3788 C3790 1.384 . S
C3789 C3788 1.377 . S
C3789 C3795 1.390 . S
C3790 H3781 0.930 . S
C3790 C3788 1.384 . S
C3790 C3791 1.372 . S
C3791 C3790 1.372 . S
C3791 C3792 1.400 . S
C3791 C3796 1.490 . S
C3792 H3782 0.930 . S
C3792 C3791 1.400 . S
C3792 C3795 1.386 . S
H3793 C3809 0.930 . S
H3794 C3810 0.931 . S
C3795 H3783 0.929 . S
C3795 C3789 1.390 . S
C3795 C3792 1.386 . S
C3796 C3791 1.490 . S
C3796 C3798 1.395 . S
C3796 C3799 1.403 . S
H3797 C3803 0.930 . S
C3798 H3784 0.930 . S
C3798 C3796 1.395 . S
C3798 C3801 1.403 . S
C3799 C3796 1.403 . S
C3799 C3800 1.524 . S
C3799 C3803 1.400 . S
C3800 H3785 0.960 . S
C3800 H3786 0.960 . S
C3800 H3787 0.960 . S
C3800 C3799 1.524 . S
C3801 C3798 1.403 . S
C3801 C3802 1.392 . S
C3801 C3805 1.495 . S
C3802 C3801 1.392 . S
C3802 C3803 1.385 . S
C3802 C3804 1.478 . S
C3803 H3797 0.930 . S
C3803 C3799 1.400 . S
C3803 C3802 1.385 . S
C3804 C3802 1.478 . S
C3804 C3806 1.381 . S
C3804 C3810 1.383 . S
C3805 C3801 1.495 . S
C3805 H3811 0.959 . S
C3805 H3812 0.961 . S
C3805 H3813 0.960 . S
C3806 C3804 1.381 . S
C3806 C3807 1.394 . S
C3806 H3814 0.930 . S
C3807 C3806 1.394 . S
C3807 C3808 1.383 . S
C3807 H3815 0.929 . S
C3808 C3807 1.383 . S
C3808 C3809 1.377 . S
C3809 H3793 0.930 . S
C3809 C3808 1.377 . S
C3809 C3810 1.379 . S
C3810 H3794 0.931 . S
C3810 C3804 1.383 . S
C3810 C3809 1.379 . S
H3811 C3805 0.959 . S
H3812 C3805 0.961 . S
H3813 C3805 0.960 . S
H3814 C3806 0.930 . S
H3815 C3807 0.929 . S
H3816 C3824 0.929 . S
H3817 C3826 0.930 . S
H3818 C3828 0.912 1_565 S
H3819 C3831 0.930 1_565 S
H3820 C3834 0.930 . S
H3821 C3836 0.960 . S
H3822 C3836 0.960 . S
H3823 C3836 0.960 . S
C3824 H3816 0.929 . S
C3824 C3825 1.377 . S
C3824 C3826 1.384 . S
C3825 C3824 1.377 . S
C3825 C3831 1.390 . S
C3826 H3817 0.930 . S
C3826 C3824 1.384 . S
C3826 C3827 1.372 . S
C3827 C3826 1.372 . S
C3827 C3828 1.400 . S
C3827 C3832 1.490 . S
C3828 H3818 0.912 1_545 S
C3828 C3827 1.400 . S
C3828 C3831 1.386 . S
H3829 C3845 0.930 1_565 S
H3830 C3846 0.931 1_565 S
C3831 H3819 0.930 1_545 S
C3831 C3825 1.390 . S
C3831 C3828 1.386 . S
C3832 C3827 1.490 . S
C3832 C3834 1.395 . S
C3832 C3835 1.403 . S
H3833 C3839 0.930 . S
C3834 H3820 0.930 . S
C3834 C3832 1.395 . S
C3834 C3837 1.403 . S
C3835 C3832 1.403 . S
C3835 C3836 1.524 . S
C3835 C3839 1.400 . S
C3836 H3821 0.960 . S
C3836 H3822 0.960 . S
C3836 H3823 0.960 . S
C3836 C3835 1.524 . S
C3837 C3834 1.403 . S
C3837 C3838 1.392 . S
C3837 C3841 1.495 . S
C3838 C3837 1.392 . S
C3838 C3839 1.385 . S
C3838 C3840 1.478 . S
C3839 H3833 0.930 . S
C3839 C3835 1.400 . S
C3839 C3838 1.385 . S
C3840 C3838 1.478 . S
C3840 C3842 1.381 . S
C3840 C3846 1.383 . S
C3841 C3837 1.495 . S
C3841 H3847 0.959 . S
C3841 H3848 0.961 . S
C3841 H3849 0.960 . S
C3842 C3840 1.381 . S
C3842 C3843 1.394 . S
C3842 H3850 0.930 . S
C3843 C3842 1.394 . S
C3843 C3844 1.383 . S
C3843 H3851 0.929 . S
C3844 C3843 1.383 . S
C3844 C3845 1.377 . S
C3845 H3829 0.930 1_545 S
C3845 C3844 1.377 . S
C3845 C3846 1.379 . S
C3846 H3830 0.931 1_545 S
C3846 C3840 1.383 . S
C3846 C3845 1.379 . S
H3847 C3841 0.959 . S
H3848 C3841 0.961 . S
H3849 C3841 0.960 . S
H3850 C3842 0.930 . S
H3851 C3843 0.929 . S
H3852 C3860 0.929 . S
H3853 C3862 0.930 . S
H3854 C3864 0.930 . S
H3855 C3867 0.929 . S
H3856 C3870 0.930 . S
H3857 C3872 0.960 . S
H3858 C3872 0.960 . S
H3859 C3872 0.960 . S
C3860 H3852 0.929 . S
C3860 C3861 1.377 . S
C3860 C3862 1.384 . S
C3861 C3860 1.377 . S
C3861 C3867 1.390 . S
C3862 H3853 0.930 . S
C3862 C3860 1.384 . S
C3862 C3863 1.372 . S
C3863 C3862 1.372 . S
C3863 C3864 1.400 . S
C3863 C3868 1.490 . S
C3864 H3854 0.930 . S
C3864 C3863 1.400 . S
C3864 C3867 1.386 . S
H3865 C3881 0.930 . S
H3866 C3882 0.931 . S
C3867 H3855 0.929 . S
C3867 C3861 1.390 . S
C3867 C3864 1.386 . S
C3868 C3863 1.490 . S
C3868 C3870 1.395 . S
C3868 C3871 1.403 . S
H3869 C3875 0.930 . S
C3870 H3856 0.930 . S
C3870 C3868 1.395 . S
C3870 C3873 1.403 . S
C3871 C3868 1.403 . S
C3871 C3872 1.524 . S
C3871 C3875 1.400 . S
C3872 H3857 0.960 . S
C3872 H3858 0.960 . S
C3872 H3859 0.960 . S
C3872 C3871 1.524 . S
C3873 C3870 1.403 . S
C3873 C3874 1.392 . S
C3873 C3877 1.495 . S
C3874 C3873 1.392 . S
C3874 C3875 1.385 . S
C3874 C3876 1.478 . S
C3875 H3869 0.930 . S
C3875 C3871 1.400 . S
C3875 C3874 1.385 . S
C3876 C3874 1.478 . S
C3876 C3878 1.381 . S
C3876 C3882 1.383 . S
C3877 C3873 1.495 . S
C3877 H3883 0.959 . S
C3877 H3884 0.961 . S
C3877 H3885 0.960 . S
C3878 C3876 1.381 . S
C3878 C3879 1.394 . S
C3878 H3886 0.930 . S
C3879 C3878 1.394 . S
C3879 C3880 1.383 . S
C3879 H3887 0.929 . S
C3880 C3879 1.383 . S
C3880 C3881 1.377 . S
C3881 H3865 0.930 . S
C3881 C3880 1.377 . S
C3881 C3882 1.379 . S
C3882 H3866 0.931 . S
C3882 C3876 1.383 . S
C3882 C3881 1.379 . S
H3883 C3877 0.959 . S
H3884 C3877 0.961 . S
H3885 C3877 0.960 . S
H3886 C3878 0.930 . S
H3887 C3879 0.929 . S
H3888 C3896 0.929 . S
H3889 C3898 0.930 . S
H3890 C3900 0.930 . S
H3891 C3903 0.929 . S
H3892 C3906 0.930 . S
H3893 C3908 0.960 . S
H3894 C3908 0.960 . S
H3895 C3908 0.960 . S
C3896 H3888 0.929 . S
C3896 C3897 1.377 . S
C3896 C3898 1.384 . S
C3897 C3896 1.377 . S
C3897 C3903 1.390 . S
C3898 H3889 0.930 . S
C3898 C3896 1.384 . S
C3898 C3899 1.372 . S
C3899 C3898 1.372 . S
C3899 C3900 1.400 . S
C3899 C3904 1.490 . S
C3900 H3890 0.930 . S
C3900 C3899 1.400 . S
C3900 C3903 1.386 . S
H3901 C3917 0.930 . S
H3902 C3918 0.931 . S
C3903 H3891 0.929 . S
C3903 C3897 1.390 . S
C3903 C3900 1.386 . S
C3904 C3899 1.490 . S
C3904 C3906 1.395 . S
C3904 C3907 1.403 . S
H3905 C3911 0.911 1_565 S
C3906 H3892 0.930 . S
C3906 C3904 1.395 . S
C3906 C3909 1.403 . S
C3907 C3904 1.403 . S
C3907 C3908 1.524 1_545 S
C3907 C3911 1.400 . S
C3908 H3893 0.960 . S
C3908 H3894 0.960 . S
C3908 H3895 0.960 . S
C3908 C3907 1.524 1_565 S
C3909 C3906 1.403 . S
C3909 C3910 1.392 . S
C3909 C3913 1.495 . S
C3910 C3909 1.392 . S
C3910 C3911 1.385 . S
C3910 C3912 1.478 . S
C3911 H3905 0.911 1_545 S
C3911 C3907 1.400 . S
C3911 C3910 1.385 . S
C3912 C3910 1.478 . S
C3912 C3914 1.381 1_655 S
C3912 C3918 1.383 . S
C3913 C3909 1.495 . S
C3913 H3919 0.959 . S
C3913 H3920 0.961 . S
C3913 H3921 0.945 1_655 S
C3914 C3912 1.381 1_455 S
C3914 C3915 1.394 . S
C3914 H3922 0.930 . S
C3915 C3914 1.394 . S
C3915 C3916 1.383 . S
C3915 H3923 0.929 . S
C3916 C3915 1.383 . S
C3916 C3917 1.377 1_455 S
C3917 H3901 0.930 . S
C3917 C3916 1.377 1_655 S
C3917 C3918 1.379 . S
C3918 H3902 0.931 . S
C3918 C3912 1.383 . S
C3918 C3917 1.379 . S
H3919 C3913 0.959 . S
H3920 C3913 0.961 . S
H3921 C3913 0.945 1_455 S
H3922 C3914 0.930 . S
H3923 C3915 0.929 . S
H3924 C3932 0.929 . S
H3925 C3934 0.930 . S
H3926 C3936 0.930 . S
H3927 C3939 0.929 . S
H3928 C3942 0.930 . S
H3929 C3944 0.960 . S
H3930 C3944 0.960 . S
H3931 C3944 0.960 . S
C3932 H3924 0.929 . S
C3932 C3933 1.377 . S
C3932 C3934 1.384 . S
C3933 C3932 1.377 . S
C3933 C3939 1.390 . S
C3934 H3925 0.930 . S
C3934 C3932 1.384 . S
C3934 C3935 1.372 . S
C3935 C3934 1.372 . S
C3935 C3936 1.400 . S
C3935 C3940 1.490 . S
C3936 H3926 0.930 . S
C3936 C3935 1.400 . S
C3936 C3939 1.386 . S
H3937 C3953 0.930 . S
H3938 C3954 0.931 . S
C3939 H3927 0.929 . S
C3939 C3933 1.390 . S
C3939 C3936 1.386 . S
C3940 C3935 1.490 . S
C3940 C3942 1.395 . S
C3940 C3943 1.403 . S
H3941 C3947 0.930 . S
C3942 H3928 0.930 . S
C3942 C3940 1.395 . S
C3942 C3945 1.403 . S
C3943 C3940 1.403 . S
C3943 C3944 1.524 . S
C3943 C3947 1.400 . S
C3944 H3929 0.960 . S
C3944 H3930 0.960 . S
C3944 H3931 0.960 . S
C3944 C3943 1.524 . S
C3945 C3942 1.403 . S
C3945 C3946 1.392 . S
C3945 C3949 1.495 . S
C3946 C3945 1.392 . S
C3946 C3947 1.385 . S
C3946 C3948 1.478 . S
C3947 H3941 0.930 . S
C3947 C3943 1.400 . S
C3947 C3946 1.385 . S
C3948 C3946 1.478 . S
C3948 C3950 1.381 . S
C3948 C3954 1.383 . S
C3949 C3945 1.495 . S
C3949 H3955 0.959 . S
C3949 H3956 0.961 . S
C3949 H3957 0.960 . S
C3950 C3948 1.381 . S
C3950 C3951 1.394 . S
C3950 H3958 0.930 . S
C3951 C3950 1.394 . S
C3951 C3952 1.383 . S
C3951 H3959 0.929 . S
C3952 C3951 1.383 . S
C3952 C3953 1.377 . S
C3953 H3937 0.930 . S
C3953 C3952 1.377 . S
C3953 C3954 1.379 . S
C3954 H3938 0.931 . S
C3954 C3948 1.383 . S
C3954 C3953 1.379 . S
H3955 C3949 0.959 . S
H3956 C3949 0.961 . S
H3957 C3949 0.960 . S
H3958 C3950 0.930 . S
H3959 C3951 0.929 . S
H3960 C3968 0.929 . S
H3961 C3970 0.930 . S
H3962 C3972 0.930 . S
H3963 C3975 0.929 . S
H3964 C3978 0.930 . S
H3965 C3980 0.960 1_565 S
H3966 C3980 0.960 . S
H3967 C3980 0.960 1_565 S
C3968 H3960 0.929 . S
C3968 C3969 1.377 . S
C3968 C3970 1.384 . S
C3969 C3968 1.377 . S
C3969 C3975 1.390 . S
C3970 H3961 0.930 . S
C3970 C3968 1.384 . S
C3970 C3971 1.372 . S
C3971 C3970 1.372 . S
C3971 C3972 1.400 . S
C3971 C3976 1.490 . S
C3972 H3962 0.930 . S
C3972 C3971 1.400 . S
C3972 C3975 1.386 . S
H3973 C3989 0.930 . S
H3974 C3990 0.931 . S
C3975 H3963 0.929 . S
C3975 C3969 1.390 . S
C3975 C3972 1.386 . S
C3976 C3971 1.490 . S
C3976 C3978 1.395 . S
C3976 C3979 1.403 . S
H3977 C3983 0.930 . S
C3978 H3964 0.930 . S
C3978 C3976 1.395 . S
C3978 C3981 1.403 . S
C3979 C3976 1.403 . S
C3979 C3980 1.524 . S
C3979 C3983 1.400 . S
C3980 H3965 0.960 1_545 S
C3980 H3966 0.960 . S
C3980 H3967 0.960 1_545 S
C3980 C3979 1.524 . S
C3981 C3978 1.403 . S
C3981 C3982 1.392 . S
C3981 C3985 1.495 . S
C3982 C3981 1.392 . S
C3982 C3983 1.385 . S
C3982 C3984 1.478 . S
C3983 H3977 0.930 . S
C3983 C3979 1.400 . S
C3983 C3982 1.385 . S
C3984 C3982 1.478 . S
C3984 C3986 1.381 . S
C3984 C3990 1.383 . S
C3985 C3981 1.495 . S
C3985 H3991 0.959 . S
C3985 H3992 0.961 . S
C3985 H3993 0.960 . S
C3986 C3984 1.381 . S
C3986 C3987 1.394 . S
C3986 H3994 0.930 . S
C3987 C3986 1.394 . S
C3987 C3988 1.383 . S
C3987 H3995 0.929 . S
C3988 C3987 1.383 . S
C3988 C3989 1.377 . S
C3989 H3973 0.930 . S
C3989 C3988 1.377 . S
C3989 C3990 1.379 . S
C3990 H3974 0.931 . S
C3990 C3984 1.383 . S
C3990 C3989 1.379 . S
H3991 C3985 0.959 . S
H3992 C3985 0.961 . S
H3993 C3985 0.960 . S
H3994 C3986 0.930 . S
H3995 C3987 0.929 . S
H3996 C4004 0.929 . S
H3997 C4006 0.930 . S
H3998 C4008 0.930 . S
H3999 C4011 0.929 . S
H4000 C4014 0.930 . S
H4001 C4016 0.960 . S
H4002 C4016 0.960 . S
H4003 C4016 0.960 . S
C4004 H3996 0.929 . S
C4004 C4005 1.377 . S
C4004 C4006 1.384 . S
C4005 C4004 1.377 . S
C4005 C4011 1.390 . S
C4006 H3997 0.930 . S
C4006 C4004 1.384 . S
C4006 C4007 1.372 . S
C4007 C4006 1.372 . S
C4007 C4008 1.400 . S
C4007 C4012 1.490 . S
C4008 H3998 0.930 . S
C4008 C4007 1.400 . S
C4008 C4011 1.386 . S
H4009 C4025 0.930 . S
H4010 C4026 0.931 . S
C4011 H3999 0.929 . S
C4011 C4005 1.390 . S
C4011 C4008 1.386 . S
C4012 C4007 1.490 . S
C4012 C4014 1.395 . S
C4012 C4015 1.403 . S
H4013 C4019 0.930 . S
C4014 H4000 0.930 . S
C4014 C4012 1.395 . S
C4014 C4017 1.403 . S
C4015 C4012 1.403 . S
C4015 C4016 1.524 . S
C4015 C4019 1.400 . S
C4016 H4001 0.960 . S
C4016 H4002 0.960 . S
C4016 H4003 0.960 . S
C4016 C4015 1.524 . S
C4017 C4014 1.403 . S
C4017 C4018 1.392 . S
C4017 C4021 1.495 . S
C4018 C4017 1.392 . S
C4018 C4019 1.385 . S
C4018 C4020 1.478 . S
C4019 H4013 0.930 . S
C4019 C4015 1.400 . S
C4019 C4018 1.385 . S
C4020 C4018 1.478 . S
C4020 C4022 1.381 . S
C4020 C4026 1.383 . S
C4021 C4017 1.495 . S
C4021 H4027 0.959 . S
C4021 H4028 0.961 . S
C4021 H4029 0.960 . S
C4022 C4020 1.381 . S
C4022 C4023 1.394 . S
C4022 H4030 0.930 . S
C4023 C4022 1.394 . S
C4023 C4024 1.383 . S
C4023 H4031 0.929 . S
C4024 C4023 1.383 . S
C4024 C4025 1.377 . S
C4025 H4009 0.930 . S
C4025 C4024 1.377 . S
C4025 C4026 1.379 . S
C4026 H4010 0.931 . S
C4026 C4020 1.383 . S
C4026 C4025 1.379 . S
H4027 C4021 0.959 . S
H4028 C4021 0.961 . S
H4029 C4021 0.960 . S
H4030 C4022 0.930 . S
H4031 C4023 0.929 . S
H4032 C4040 0.929 . S
H4033 C4042 0.930 . S
H4034 C4044 0.930 . S
H4035 C4047 0.929 . S
H4036 C4050 0.930 1_556 S
H4037 C4052 0.960 1_545 S
H4038 C4052 0.960 . S
H4039 C4052 0.960 . S
C4040 H4032 0.929 . S
C4040 C4041 1.407 . S
C4040 C4042 1.384 . S
C4041 C4040 1.407 . S
C4041 C4047 1.353 1_556 S
C4042 H4033 0.930 . S
C4042 C4040 1.384 . S
C4042 C4043 1.372 1_556 S
C4043 C4042 1.372 1_554 S
C4043 C4044 1.400 . S
C4043 C4048 1.490 . S
C4044 H4034 0.930 . S
C4044 C4043 1.400 . S
C4044 C4047 1.386 . S
H4045 C4061 0.930 . S
H4046 C4062 0.931 . S
C4047 H4035 0.929 . S
C4047 C4041 1.353 1_554 S
C4047 C4044 1.386 . S
C4048 C4043 1.490 . S
C4048 C4050 1.395 . S
C4048 C4051 1.403 . S
H4049 C4055 0.930 . S
C4050 H4036 0.930 1_554 S
C4050 C4048 1.395 . S
C4050 C4053 1.403 . S
C4051 C4048 1.403 . S
C4051 C4052 1.524 . S
C4051 C4055 1.400 . S
C4052 H4037 0.960 1_565 S
C4052 H4038 0.960 . S
C4052 H4039 0.960 . S
C4052 C4051 1.524 . S
C4053 C4050 1.403 . S
C4053 C4054 1.392 . S
C4053 C4057 1.487 1_554 S
C4054 C4053 1.392 . S
C4054 C4055 1.385 . S
C4054 C4056 1.478 . S
C4055 H4049 0.930 . S
C4055 C4051 1.400 . S
C4055 C4054 1.385 . S
C4056 C4054 1.478 . S
C4056 C4058 1.381 . S
C4056 C4062 1.383 . S
C4057 C4053 1.487 1_556 S
C4057 H4063 0.987 . S
C4057 H4064 0.898 1_556 S
C4057 H4065 1.009 . S
C4058 C4056 1.381 . S
C4058 C4059 1.394 . S
C4058 H4066 0.930 1_554 S
C4059 C4058 1.394 . S
C4059 C4060 1.383 . S
C4059 H4067 0.929 1_554 S
C4060 C4059 1.383 . S
C4060 C4061 1.377 . S
C4061 H4045 0.930 . S
C4061 C4060 1.377 . S
C4061 C4062 1.379 . S
C4062 H4046 0.931 . S
C4062 C4056 1.383 . S
C4062 C4061 1.379 . S
H4063 C4057 0.987 . S
H4064 C4057 0.898 1_554 S
H4065 C4057 1.009 . S
H4066 C4058 0.930 1_556 S
H4067 C4059 0.929 1_556 S
H4068 C4076 0.928 . S
H4069 C4078 0.938 . S
H4070 C4080 0.938 . S
H4071 C4083 0.939 . S
H4072 C4086 0.930 . S
H4073 C4088 0.960 . S
H4074 C4088 0.960 . S
H4075 C4088 0.960 . S
C4076 H4068 0.928 . S
C4076 C4077 1.380 . S
C4076 C4078 1.367 1_556 S
C4077 C4076 1.380 . S
C4077 C4083 1.402 . S
C4078 H4069 0.938 . S
C4078 C4076 1.367 1_554 S
C4078 C4079 1.384 . S
C4079 C4078 1.384 . S
C4079 C4080 1.403 . S
C4079 C4084 1.490 . S
C4080 H4070 0.938 . S
C4080 C4079 1.403 . S
C4080 C4083 1.364 1_554 S
H4081 C4097 0.930 . S
H4082 C4098 0.931 . S
C4083 H4071 0.939 . S
C4083 C4077 1.402 . S
C4083 C4080 1.364 1_556 S
C4084 C4079 1.490 . S
C4084 C4086 1.395 1_554 S
C4084 C4087 1.403 . S
H4085 C4091 0.930 . S
C4086 H4072 0.930 . S
C4086 C4084 1.395 1_556 S
C4086 C4089 1.403 . S
C4087 C4084 1.403 . S
C4087 C4088 1.524 . S
C4087 C4091 1.400 . S
C4088 H4073 0.960 . S
C4088 H4074 0.960 . S
C4088 H4075 0.960 . S
C4088 C4087 1.524 . S
C4089 C4086 1.403 . S
C4089 C4090 1.392 1_556 S
C4089 C4093 1.495 . S
C4090 C4089 1.392 1_554 S
C4090 C4091 1.385 . S
C4090 C4092 1.478 . S
C4091 H4085 0.930 . S
C4091 C4087 1.400 . S
C4091 C4090 1.385 . S
C4092 C4090 1.478 . S
C4092 C4094 1.381 . S
C4092 C4098 1.383 . S
C4093 C4089 1.495 . S
C4093 H4099 0.959 . S
C4093 H4100 0.961 . S
C4093 H4101 0.960 . S
C4094 C4092 1.381 . S
C4094 C4095 1.394 . S
C4094 H4102 0.930 . S
C4095 C4094 1.394 . S
C4095 C4096 1.383 . S
C4095 H4103 0.929 . S
C4096 C4095 1.383 . S
C4096 C4097 1.377 . S
C4097 H4081 0.930 . S
C4097 C4096 1.377 . S
C4097 C4098 1.379 . S
C4098 H4082 0.931 . S
C4098 C4092 1.383 . S
C4098 C4097 1.379 . S
H4099 C4093 0.959 . S
H4100 C4093 0.961 . S
H4101 C4093 0.960 . S
H4102 C4094 0.930 . S
H4103 C4095 0.929 . S
H4104 C4112 0.929 . S
H4105 C4114 0.930 . S
H4106 C4116 0.930 . S
H4107 C4119 0.929 . S
H4108 C4122 0.930 . S
H4109 C4124 0.960 . S
H4110 C4124 0.960 . S
H4111 C4124 0.960 . S
C4112 H4104 0.929 . S
C4112 C4113 1.377 . S
C4112 C4114 1.384 . S
C4113 C4112 1.377 . S
C4113 C4119 1.390 . S
C4114 H4105 0.930 . S
C4114 C4112 1.384 . S
C4114 C4115 1.372 . S
C4115 C4114 1.372 . S
C4115 C4116 1.400 . S
C4115 C4120 1.490 . S
C4116 H4106 0.930 . S
C4116 C4115 1.400 . S
C4116 C4119 1.386 . S
H4117 C4133 0.930 . S
H4118 C4134 0.931 . S
C4119 H4107 0.929 . S
C4119 C4113 1.390 . S
C4119 C4116 1.386 . S
C4120 C4115 1.490 . S
C4120 C4122 1.395 . S
C4120 C4123 1.403 . S
H4121 C4127 0.930 . S
C4122 H4108 0.930 . S
C4122 C4120 1.395 . S
C4122 C4125 1.403 . S
C4123 C4120 1.403 . S
C4123 C4124 1.524 . S
C4123 C4127 1.400 . S
C4124 H4109 0.960 . S
C4124 H4110 0.960 . S
C4124 H4111 0.960 . S
C4124 C4123 1.524 . S
C4125 C4122 1.403 . S
C4125 C4126 1.392 . S
C4125 C4129 1.495 . S
C4126 C4125 1.392 . S
C4126 C4127 1.385 . S
C4126 C4128 1.478 . S
C4127 H4121 0.930 . S
C4127 C4123 1.400 . S
C4127 C4126 1.385 . S
C4128 C4126 1.478 . S
C4128 C4130 1.381 . S
C4128 C4134 1.383 . S
C4129 C4125 1.495 . S
C4129 H4135 0.959 . S
C4129 H4136 0.961 . S
C4129 H4137 0.960 . S
C4130 C4128 1.381 . S
C4130 C4131 1.394 . S
C4130 H4138 0.930 . S
C4131 C4130 1.394 . S
C4131 C4132 1.383 . S
C4131 H4139 0.929 . S
C4132 C4131 1.383 . S
C4132 C4133 1.377 . S
C4133 H4117 0.930 . S
C4133 C4132 1.377 . S
C4133 C4134 1.379 . S
C4134 H4118 0.931 . S
C4134 C4128 1.383 . S
C4134 C4133 1.379 . S
H4135 C4129 0.959 . S
H4136 C4129 0.961 . S
H4137 C4129 0.960 . S
H4138 C4130 0.930 . S
H4139 C4131 0.929 . S
H4140 C4148 0.929 . S
H4141 C4150 0.930 . S
H4142 C4152 0.930 . S
H4143 C4155 0.929 . S
H4144 C4158 0.930 . S
H4145 C4160 0.960 . S
H4146 C4160 0.960 . S
H4147 C4160 0.960 . S
C4148 H4140 0.929 . S
C4148 C4149 1.377 . S
C4148 C4150 1.384 . S
C4149 C4148 1.377 . S
C4149 C4155 1.390 . S
C4150 H4141 0.930 . S
C4150 C4148 1.384 . S
C4150 C4151 1.372 . S
C4151 C4150 1.372 . S
C4151 C4152 1.400 . S
C4151 C4156 1.490 . S
C4152 H4142 0.930 . S
C4152 C4151 1.400 . S
C4152 C4155 1.386 . S
H4153 C4169 0.930 . S
H4154 C4170 0.931 . S
C4155 H4143 0.929 . S
C4155 C4149 1.390 . S
C4155 C4152 1.386 . S
C4156 C4151 1.490 . S
C4156 C4158 1.395 . S
C4156 C4159 1.403 . S
H4157 C4163 0.930 . S
C4158 H4144 0.930 . S
C4158 C4156 1.395 . S
C4158 C4161 1.403 . S
C4159 C4156 1.403 . S
C4159 C4160 1.524 . S
C4159 C4163 1.400 . S
C4160 H4145 0.960 . S
C4160 H4146 0.960 . S
C4160 H4147 0.960 . S
C4160 C4159 1.524 . S
C4161 C4158 1.403 . S
C4161 C4162 1.392 . S
C4161 C4165 1.495 . S
C4162 C4161 1.392 . S
C4162 C4163 1.385 . S
C4162 C4164 1.478 . S
C4163 H4157 0.930 . S
C4163 C4159 1.400 . S
C4163 C4162 1.385 . S
C4164 C4162 1.478 . S
C4164 C4166 1.381 . S
C4164 C4170 1.383 . S
C4165 C4161 1.495 . S
C4165 H4171 0.959 . S
C4165 H4172 0.961 . S
C4165 H4173 0.960 . S
C4166 C4164 1.381 . S
C4166 C4167 1.394 . S
C4166 H4174 0.930 . S
C4167 C4166 1.394 . S
C4167 C4168 1.383 . S
C4167 H4175 0.929 . S
C4168 C4167 1.383 . S
C4168 C4169 1.377 . S
C4169 H4153 0.930 . S
C4169 C4168 1.377 . S
C4169 C4170 1.379 . S
C4170 H4154 0.931 . S
C4170 C4164 1.383 . S
C4170 C4169 1.379 . S
H4171 C4165 0.959 . S
H4172 C4165 0.961 . S
H4173 C4165 0.960 . S
H4174 C4166 0.930 . S
H4175 C4167 0.929 . S
H4176 C4184 0.929 . S
H4177 C4186 0.930 . S
H4178 C4188 0.930 . S
H4179 C4191 0.929 . S
H4180 C4194 0.930 . S
H4181 C4196 0.960 . S
H4182 C4196 0.960 . S
H4183 C4196 0.960 . S
C4184 H4176 0.929 . S
C4184 C4185 1.377 . S
C4184 C4186 1.384 . S
C4185 C4184 1.377 . S
C4185 C4191 1.390 . S
C4186 H4177 0.930 . S
C4186 C4184 1.384 . S
C4186 C4187 1.372 . S
C4187 C4186 1.372 . S
C4187 C4188 1.400 . S
C4187 C4192 1.490 . S
C4188 H4178 0.930 . S
C4188 C4187 1.400 . S
C4188 C4191 1.386 . S
H4189 C4205 0.930 . S
H4190 C4206 0.931 . S
C4191 H4179 0.929 . S
C4191 C4185 1.390 . S
C4191 C4188 1.386 . S
C4192 C4187 1.490 . S
C4192 C4194 1.395 . S
C4192 C4195 1.403 . S
H4193 C4199 0.930 . S
C4194 H4180 0.930 . S
C4194 C4192 1.395 . S
C4194 C4197 1.403 . S
C4195 C4192 1.403 . S
C4195 C4196 1.524 . S
C4195 C4199 1.400 . S
C4196 H4181 0.960 . S
C4196 H4182 0.960 . S
C4196 H4183 0.960 . S
C4196 C4195 1.524 . S
C4197 C4194 1.403 . S
C4197 C4198 1.392 . S
C4197 C4201 1.495 . S
C4198 C4197 1.392 . S
C4198 C4199 1.385 . S
C4198 C4200 1.478 . S
C4199 H4193 0.930 . S
C4199 C4195 1.400 . S
C4199 C4198 1.385 . S
C4200 C4198 1.478 . S
C4200 C4202 1.381 . S
C4200 C4206 1.383 . S
C4201 C4197 1.495 . S
C4201 H4207 0.959 . S
C4201 H4208 0.961 . S
C4201 H4209 0.960 . S
C4202 C4200 1.381 . S
C4202 C4203 1.394 . S
C4202 H4210 0.930 . S
C4203 C4202 1.394 . S
C4203 C4204 1.383 . S
C4203 H4211 0.929 . S
C4204 C4203 1.383 . S
C4204 C4205 1.377 . S
C4205 H4189 0.930 . S
C4205 C4204 1.377 . S
C4205 C4206 1.379 . S
C4206 H4190 0.931 . S
C4206 C4200 1.383 . S
C4206 C4205 1.379 . S
H4207 C4201 0.959 . S
H4208 C4201 0.961 . S
H4209 C4201 0.960 . S
H4210 C4202 0.930 . S
H4211 C4203 0.929 . S
H4212 C4220 0.929 . S
H4213 C4222 0.930 . S
H4214 C4224 0.930 . S
H4215 C4227 0.929 . S
H4216 C4230 0.930 . S
H4217 C4232 0.960 . S
H4218 C4232 0.960 . S
H4219 C4232 0.960 . S
C4220 H4212 0.929 . S
C4220 C4221 1.377 . S
C4220 C4222 1.384 . S
C4221 C4220 1.377 . S
C4221 C4227 1.390 . S
C4222 H4213 0.930 . S
C4222 C4220 1.384 . S
C4222 C4223 1.372 . S
C4223 C4222 1.372 . S
C4223 C4224 1.400 . S
C4223 C4228 1.490 . S
C4224 H4214 0.930 . S
C4224 C4223 1.400 . S
C4224 C4227 1.386 . S
H4225 C4241 0.930 . S
H4226 C4242 0.931 . S
C4227 H4215 0.929 . S
C4227 C4221 1.390 . S
C4227 C4224 1.386 . S
C4228 C4223 1.490 . S
C4228 C4230 1.395 . S
C4228 C4231 1.403 . S
H4229 C4235 0.930 . S
C4230 H4216 0.930 . S
C4230 C4228 1.395 . S
C4230 C4233 1.403 . S
C4231 C4228 1.403 . S
C4231 C4232 1.524 . S
C4231 C4235 1.400 . S
C4232 H4217 0.960 . S
C4232 H4218 0.960 . S
C4232 H4219 0.960 . S
C4232 C4231 1.524 . S
C4233 C4230 1.403 . S
C4233 C4234 1.392 . S
C4233 C4237 1.495 . S
C4234 C4233 1.392 . S
C4234 C4235 1.385 . S
C4234 C4236 1.478 . S
C4235 H4229 0.930 . S
C4235 C4231 1.400 . S
C4235 C4234 1.385 . S
C4236 C4234 1.478 . S
C4236 C4238 1.381 . S
C4236 C4242 1.383 . S
C4237 C4233 1.495 . S
C4237 H4243 0.959 . S
C4237 H4244 0.961 . S
C4237 H4245 0.960 . S
C4238 C4236 1.381 . S
C4238 C4239 1.394 . S
C4238 H4246 0.930 . S
C4239 C4238 1.394 . S
C4239 C4240 1.383 . S
C4239 H4247 0.929 . S
C4240 C4239 1.383 . S
C4240 C4241 1.377 . S
C4241 H4225 0.930 . S
C4241 C4240 1.377 . S
C4241 C4242 1.379 . S
C4242 H4226 0.931 . S
C4242 C4236 1.383 . S
C4242 C4241 1.379 . S
H4243 C4237 0.959 . S
H4244 C4237 0.961 . S
H4245 C4237 0.960 . S
H4246 C4238 0.930 . S
H4247 C4239 0.929 . S
H4248 C4256 0.929 . S
H4249 C4258 0.930 . S
H4250 C4260 0.930 . S
H4251 C4263 0.929 . S
H4252 C4266 0.930 . S
H4253 C4268 0.960 . S
H4254 C4268 0.960 . S
H4255 C4268 0.960 . S
C4256 H4248 0.929 . S
C4256 C4257 1.377 . S
C4256 C4258 1.384 . S
C4257 C4256 1.377 . S
C4257 C4263 1.390 . S
C4258 H4249 0.930 . S
C4258 C4256 1.384 . S
C4258 C4259 1.372 . S
C4259 C4258 1.372 . S
C4259 C4260 1.400 . S
C4259 C4264 1.490 . S
C4260 H4250 0.930 . S
C4260 C4259 1.400 . S
C4260 C4263 1.386 . S
H4261 C4277 0.930 . S
H4262 C4278 0.931 . S
C4263 H4251 0.929 . S
C4263 C4257 1.390 . S
C4263 C4260 1.386 . S
C4264 C4259 1.490 . S
C4264 C4266 1.395 . S
C4264 C4267 1.403 . S
H4265 C4271 0.930 . S
C4266 H4252 0.930 . S
C4266 C4264 1.395 . S
C4266 C4269 1.403 . S
C4267 C4264 1.403 . S
C4267 C4268 1.524 . S
C4267 C4271 1.400 . S
C4268 H4253 0.960 . S
C4268 H4254 0.960 . S
C4268 H4255 0.960 . S
C4268 C4267 1.524 . S
C4269 C4266 1.403 . S
C4269 C4270 1.392 . S
C4269 C4273 1.495 . S
C4270 C4269 1.392 . S
C4270 C4271 1.385 . S
C4270 C4272 1.478 . S
C4271 H4265 0.930 . S
C4271 C4267 1.400 . S
C4271 C4270 1.385 . S
C4272 C4270 1.478 . S
C4272 C4274 1.381 . S
C4272 C4278 1.383 . S
C4273 C4269 1.495 . S
C4273 H4279 0.959 . S
C4273 H4280 0.961 . S
C4273 H4281 0.960 . S
C4274 C4272 1.381 . S
C4274 C4275 1.394 . S
C4274 H4282 0.930 . S
C4275 C4274 1.394 . S
C4275 C4276 1.383 . S
C4275 H4283 0.929 . S
C4276 C4275 1.383 . S
C4276 C4277 1.377 . S
C4277 H4261 0.930 . S
C4277 C4276 1.377 . S
C4277 C4278 1.379 . S
C4278 H4262 0.931 . S
C4278 C4272 1.383 . S
C4278 C4277 1.379 . S
H4279 C4273 0.959 . S
H4280 C4273 0.961 . S
H4281 C4273 0.960 . S
H4282 C4274 0.930 . S
H4283 C4275 0.929 . S
H4284 C4292 0.929 . S
H4285 C4294 0.930 . S
H4286 C4296 0.930 . S
H4287 C4299 0.929 . S
H4288 C4302 0.930 . S
H4289 C4304 0.960 . S
H4290 C4304 0.960 . S
H4291 C4304 0.960 . S
C4292 H4284 0.929 . S
C4292 C4293 1.377 . S
C4292 C4294 1.384 . S
C4293 C4292 1.377 . S
C4293 C4299 1.390 . S
C4294 H4285 0.930 . S
C4294 C4292 1.384 . S
C4294 C4295 1.372 . S
C4295 C4294 1.372 . S
C4295 C4296 1.400 . S
C4295 C4300 1.490 . S
C4296 H4286 0.930 . S
C4296 C4295 1.400 . S
C4296 C4299 1.386 . S
H4297 C4313 0.930 . S
H4298 C4314 0.931 . S
C4299 H4287 0.929 . S
C4299 C4293 1.390 . S
C4299 C4296 1.386 . S
C4300 C4295 1.490 . S
C4300 C4302 1.395 . S
C4300 C4303 1.403 . S
H4301 C4307 0.930 . S
C4302 H4288 0.930 . S
C4302 C4300 1.395 . S
C4302 C4305 1.403 . S
C4303 C4300 1.403 . S
C4303 C4304 1.524 . S
C4303 C4307 1.400 . S
C4304 H4289 0.960 . S
C4304 H4290 0.960 . S
C4304 H4291 0.960 . S
C4304 C4303 1.524 . S
C4305 C4302 1.403 . S
C4305 C4306 1.392 . S
C4305 C4309 1.495 . S
C4306 C4305 1.392 . S
C4306 C4307 1.385 . S
C4306 C4308 1.478 . S
C4307 H4301 0.930 . S
C4307 C4303 1.400 . S
C4307 C4306 1.385 . S
C4308 C4306 1.478 . S
C4308 C4310 1.381 . S
C4308 C4314 1.383 . S
C4309 C4305 1.495 . S
C4309 H4315 0.959 . S
C4309 H4316 0.961 . S
C4309 H4317 0.960 . S
C4310 C4308 1.381 . S
C4310 C4311 1.394 . S
C4310 H4318 0.930 . S
C4311 C4310 1.394 . S
C4311 C4312 1.383 . S
C4311 H4319 0.929 . S
C4312 C4311 1.383 . S
C4312 C4313 1.377 . S
C4313 H4297 0.930 . S
C4313 C4312 1.377 . S
C4313 C4314 1.379 . S
C4314 H4298 0.931 . S
C4314 C4308 1.383 . S
C4314 C4313 1.379 . S
H4315 C4309 0.959 . S
H4316 C4309 0.961 . S
H4317 C4309 0.960 . S
H4318 C4310 0.930 . S
H4319 C4311 0.929 . S
H4320 C4328 0.929 . S
H4321 C4330 0.930 . S
H4322 C4332 0.930 . S
H4323 C4335 0.929 . S
H4324 C4338 0.930 . S
H4325 C4340 0.954 . S
H4326 C4340 0.960 . S
H4327 C4340 0.960 . S
C4328 H4320 0.929 . S
C4328 C4329 1.377 . S
C4328 C4330 1.384 . S
C4329 C4328 1.377 . S
C4329 C4335 1.390 . S
C4330 H4321 0.930 . S
C4330 C4328 1.384 . S
C4330 C4331 1.372 . S
C4331 C4330 1.372 . S
C4331 C4332 1.400 . S
C4331 C4336 1.490 . S
C4332 H4322 0.930 . S
C4332 C4331 1.400 . S
C4332 C4335 1.386 . S
H4333 C4349 0.930 . S
H4334 C4350 0.931 . S
C4335 H4323 0.929 . S
C4335 C4329 1.390 . S
C4335 C4332 1.386 . S
C4336 C4331 1.490 . S
C4336 C4338 1.395 . S
C4336 C4339 1.403 . S
H4337 C4343 0.930 . S
C4338 H4324 0.930 . S
C4338 C4336 1.395 . S
C4338 C4341 1.403 . S
C4339 C4336 1.403 . S
C4339 C4340 1.524 . S
C4339 C4343 1.400 . S
C4340 H4325 0.954 . S
C4340 H4326 0.960 . S
C4340 H4327 0.960 . S
C4340 C4339 1.524 . S
C4341 C4338 1.403 . S
C4341 C4342 1.392 . S
C4341 C4345 1.495 . S
C4342 C4341 1.392 . S
C4342 C4343 1.385 . S
C4342 C4344 1.478 . S
C4343 H4337 0.930 . S
C4343 C4339 1.400 . S
C4343 C4342 1.385 . S
C4344 C4342 1.478 . S
C4344 C4346 1.381 . S
C4344 C4350 1.383 . S
C4345 C4341 1.495 . S
C4345 H4351 0.959 . S
C4345 H4352 0.961 . S
C4345 H4353 0.960 . S
C4346 C4344 1.381 . S
C4346 C4347 1.394 . S
C4346 H4354 0.930 . S
C4347 C4346 1.394 . S
C4347 C4348 1.383 . S
C4347 H4355 0.929 . S
C4348 C4347 1.383 . S
C4348 C4349 1.377 . S
C4349 H4333 0.930 . S
C4349 C4348 1.377 . S
C4349 C4350 1.379 . S
C4350 H4334 0.931 . S
C4350 C4344 1.383 . S
C4350 C4349 1.379 . S
H4351 C4345 0.959 . S
H4352 C4345 0.961 . S
H4353 C4345 0.960 . S
H4354 C4346 0.930 . S
H4355 C4347 0.929 . S
H4356 C4364 0.929 . S
H4357 C4366 0.930 . S
H4358 C4368 0.930 . S
H4359 C4371 0.929 . S
H4360 C4374 0.930 . S
H4361 C4376 0.960 . S
H4362 C4376 0.960 . S
H4363 C4376 0.960 . S
C4364 H4356 0.929 . S
C4364 C4365 1.377 . S
C4364 C4366 1.384 . S
C4365 C4364 1.377 . S
C4365 C4371 1.390 . S
C4366 H4357 0.930 . S
C4366 C4364 1.384 . S
C4366 C4367 1.372 . S
C4367 C4366 1.372 . S
C4367 C4368 1.400 . S
C4367 C4372 1.490 . S
C4368 H4358 0.930 . S
C4368 C4367 1.400 . S
C4368 C4371 1.386 . S
H4369 C4385 0.930 . S
H4370 C4386 0.931 . S
C4371 H4359 0.929 . S
C4371 C4365 1.390 . S
C4371 C4368 1.386 . S
C4372 C4367 1.490 . S
C4372 C4374 1.395 . S
C4372 C4375 1.403 . S
H4373 C4379 0.930 . S
C4374 H4360 0.930 . S
C4374 C4372 1.395 . S
C4374 C4377 1.403 . S
C4375 C4372 1.403 . S
C4375 C4376 1.524 . S
C4375 C4379 1.400 . S
C4376 H4361 0.960 . S
C4376 H4362 0.960 . S
C4376 H4363 0.960 . S
C4376 C4375 1.524 . S
C4377 C4374 1.403 . S
C4377 C4378 1.392 . S
C4377 C4381 1.495 . S
C4378 C4377 1.392 . S
C4378 C4379 1.385 . S
C4378 C4380 1.478 . S
C4379 H4373 0.930 . S
C4379 C4375 1.400 . S
C4379 C4378 1.385 . S
C4380 C4378 1.478 . S
C4380 C4382 1.381 . S
C4380 C4386 1.383 . S
C4381 C4377 1.495 . S
C4381 H4387 0.959 . S
C4381 H4388 0.961 . S
C4381 H4389 0.960 . S
C4382 C4380 1.381 . S
C4382 C4383 1.394 . S
C4382 H4390 0.930 . S
C4383 C4382 1.394 . S
C4383 C4384 1.383 . S
C4383 H4391 0.929 . S
C4384 C4383 1.383 . S
C4384 C4385 1.377 . S
C4385 H4369 0.930 . S
C4385 C4384 1.377 . S
C4385 C4386 1.379 . S
C4386 H4370 0.931 . S
C4386 C4380 1.383 . S
C4386 C4385 1.379 . S
H4387 C4381 0.959 . S
H4388 C4381 0.961 . S
H4389 C4381 0.960 . S
H4390 C4382 0.930 . S
H4391 C4383 0.929 . S
H4392 C4400 0.929 . S
H4393 C4402 0.930 . S
H4394 C4404 0.930 . S
H4395 C4407 0.929 . S
H4396 C4410 0.930 . S
H4397 C4412 0.960 . S
H4398 C4412 0.960 . S
H4399 C4412 0.960 . S
C4400 H4392 0.929 . S
C4400 C4401 1.377 . S
C4400 C4402 1.384 . S
C4401 C4400 1.377 . S
C4401 C4407 1.390 . S
C4402 H4393 0.930 . S
C4402 C4400 1.384 . S
C4402 C4403 1.372 . S
C4403 C4402 1.372 . S
C4403 C4404 1.400 . S
C4403 C4408 1.490 . S
C4404 H4394 0.930 . S
C4404 C4403 1.400 . S
C4404 C4407 1.386 . S
H4405 C4421 0.930 . S
H4406 C4422 0.931 . S
C4407 H4395 0.929 . S
C4407 C4401 1.390 . S
C4407 C4404 1.386 . S
C4408 C4403 1.490 . S
C4408 C4410 1.395 . S
C4408 C4411 1.403 . S
H4409 C4415 0.930 . S
C4410 H4396 0.930 . S
C4410 C4408 1.395 . S
C4410 C4413 1.403 . S
C4411 C4408 1.403 . S
C4411 C4412 1.524 . S
C4411 C4415 1.400 . S
C4412 H4397 0.960 . S
C4412 H4398 0.960 . S
C4412 H4399 0.960 . S
C4412 C4411 1.524 . S
C4413 C4410 1.403 . S
C4413 C4414 1.392 . S
C4413 C4417 1.495 . S
C4414 C4413 1.392 . S
C4414 C4415 1.385 . S
C4414 C4416 1.478 . S
C4415 H4409 0.930 . S
C4415 C4411 1.400 . S
C4415 C4414 1.385 . S
C4416 C4414 1.478 . S
C4416 C4418 1.381 . S
C4416 C4422 1.383 . S
C4417 C4413 1.495 . S
C4417 H4423 0.959 . S
C4417 H4424 0.961 . S
C4417 H4425 0.960 . S
C4418 C4416 1.381 . S
C4418 C4419 1.394 . S
C4418 H4426 0.930 . S
C4419 C4418 1.394 . S
C4419 C4420 1.383 . S
C4419 H4427 0.929 . S
C4420 C4419 1.383 . S
C4420 C4421 1.377 . S
C4421 H4405 0.930 . S
C4421 C4420 1.377 . S
C4421 C4422 1.379 . S
C4422 H4406 0.931 . S
C4422 C4416 1.383 . S
C4422 C4421 1.379 . S
H4423 C4417 0.959 . S
H4424 C4417 0.961 . S
H4425 C4417 0.960 . S
H4426 C4418 0.930 . S
H4427 C4419 0.929 . S
H4428 C4436 0.929 . S
H4429 C4438 0.930 . S
H4430 C4440 0.930 . S
H4431 C4443 0.929 . S
H4432 C4446 0.930 . S
H4433 C4448 0.960 . S
H4434 C4448 0.960 . S
H4435 C4448 0.960 . S
C4436 H4428 0.929 . S
C4436 C4437 1.377 . S
C4436 C4438 1.384 . S
C4437 C4436 1.377 . S
C4437 C4443 1.390 . S
C4438 H4429 0.930 . S
C4438 C4436 1.384 . S
C4438 C4439 1.372 . S
C4439 C4438 1.372 . S
C4439 C4440 1.400 . S
C4439 C4444 1.490 . S
C4440 H4430 0.930 . S
C4440 C4439 1.400 . S
C4440 C4443 1.386 . S
H4441 C4457 0.930 . S
H4442 C4458 0.931 . S
C4443 H4431 0.929 . S
C4443 C4437 1.390 . S
C4443 C4440 1.386 . S
C4444 C4439 1.490 . S
C4444 C4446 1.395 . S
C4444 C4447 1.403 . S
H4445 C4451 0.930 . S
C4446 H4432 0.930 . S
C4446 C4444 1.395 . S
C4446 C4449 1.403 . S
C4447 C4444 1.403 . S
C4447 C4448 1.524 . S
C4447 C4451 1.400 . S
C4448 H4433 0.960 . S
C4448 H4434 0.960 . S
C4448 H4435 0.960 . S
C4448 C4447 1.524 . S
C4449 C4446 1.403 . S
C4449 C4450 1.392 . S
C4449 C4453 1.495 . S
C4450 C4449 1.392 . S
C4450 C4451 1.385 . S
C4450 C4452 1.478 . S
C4451 H4445 0.930 . S
C4451 C4447 1.400 . S
C4451 C4450 1.385 . S
C4452 C4450 1.478 . S
C4452 C4454 1.381 . S
C4452 C4458 1.383 . S
C4453 C4449 1.495 . S
C4453 H4459 0.959 . S
C4453 H4460 0.961 . S
C4453 H4461 0.960 . S
C4454 C4452 1.381 . S
C4454 C4455 1.394 . S
C4454 H4462 0.930 . S
C4455 C4454 1.394 . S
C4455 C4456 1.383 . S
C4455 H4463 0.929 . S
C4456 C4455 1.383 . S
C4456 C4457 1.377 . S
C4457 H4441 0.930 . S
C4457 C4456 1.377 . S
C4457 C4458 1.379 . S
C4458 H4442 0.931 . S
C4458 C4452 1.383 . S
C4458 C4457 1.379 . S
H4459 C4453 0.959 . S
H4460 C4453 0.961 . S
H4461 C4453 0.960 . S
H4462 C4454 0.930 . S
H4463 C4455 0.929 . S
H4464 C4472 0.929 . S
H4465 C4474 0.930 . S
H4466 C4476 0.930 . S
H4467 C4479 0.929 . S
H4468 C4482 0.930 . S
H4469 C4484 0.960 . S
H4470 C4484 0.960 . S
H4471 C4484 0.960 . S
C4472 H4464 0.929 . S
C4472 C4473 1.377 . S
C4472 C4474 1.384 . S
C4473 C4472 1.377 . S
C4473 C4479 1.390 . S
C4474 H4465 0.930 . S
C4474 C4472 1.384 . S
C4474 C4475 1.372 . S
C4475 C4474 1.372 . S
C4475 C4476 1.400 . S
C4475 C4480 1.490 . S
C4476 H4466 0.930 . S
C4476 C4475 1.400 . S
C4476 C4479 1.386 . S
H4477 C4493 0.930 . S
H4478 C4494 0.931 . S
C4479 H4467 0.929 . S
C4479 C4473 1.390 . S
C4479 C4476 1.386 . S
C4480 C4475 1.490 . S
C4480 C4482 1.395 . S
C4480 C4483 1.403 . S
H4481 C4487 0.930 . S
C4482 H4468 0.930 . S
C4482 C4480 1.395 . S
C4482 C4485 1.403 . S
C4483 C4480 1.403 . S
C4483 C4484 1.524 . S
C4483 C4487 1.400 . S
C4484 H4469 0.960 . S
C4484 H4470 0.960 . S
C4484 H4471 0.960 . S
C4484 C4483 1.524 . S
C4485 C4482 1.403 . S
C4485 C4486 1.392 . S
C4485 C4489 1.495 . S
C4486 C4485 1.392 . S
C4486 C4487 1.385 . S
C4486 C4488 1.478 . S
C4487 H4481 0.930 . S
C4487 C4483 1.400 . S
C4487 C4486 1.385 . S
C4488 C4486 1.478 . S
C4488 C4490 1.381 . S
C4488 C4494 1.383 . S
C4489 C4485 1.495 . S
C4489 H4495 0.959 . S
C4489 H4496 0.961 . S
C4489 H4497 0.960 . S
C4490 C4488 1.381 . S
C4490 C4491 1.394 . S
C4490 H4498 0.930 1_455 S
C4491 C4490 1.394 . S
C4491 C4492 1.383 . S
C4491 H4499 0.929 1_455 S
C4492 C4491 1.383 . S
C4492 C4493 1.377 . S
C4493 H4477 0.930 . S
C4493 C4492 1.377 . S
C4493 C4494 1.379 . S
C4494 H4478 0.931 . S
C4494 C4488 1.383 . S
C4494 C4493 1.379 . S
H4495 C4489 0.959 . S
H4496 C4489 0.961 . S
H4497 C4489 0.960 . S
H4498 C4490 0.930 1_655 S
H4499 C4491 0.929 1_655 S
H4500 C4508 0.929 . S
H4501 C4510 0.930 . S
H4502 C4512 0.930 . S
H4503 C4515 0.929 . S
H4504 C4518 0.930 . S
H4505 C4520 0.960 . S
H4506 C4520 0.960 . S
H4507 C4520 0.960 . S
C4508 H4500 0.929 . S
C4508 C4509 1.377 . S
C4508 C4510 1.384 . S
C4509 C4508 1.377 . S
C4509 C4515 1.390 . S
C4510 H4501 0.930 . S
C4510 C4508 1.384 . S
C4510 C4511 1.372 . S
C4511 C4510 1.372 . S
C4511 C4512 1.400 . S
C4511 C4516 1.490 . S
C4512 H4502 0.930 . S
C4512 C4511 1.400 . S
C4512 C4515 1.386 . S
H4513 C4529 0.930 . S
H4514 C4530 0.931 . S
C4515 H4503 0.929 . S
C4515 C4509 1.390 . S
C4515 C4512 1.386 . S
C4516 C4511 1.490 . S
C4516 C4518 1.395 . S
C4516 C4519 1.403 . S
H4517 C4523 0.930 . S
C4518 H4504 0.930 . S
C4518 C4516 1.395 . S
C4518 C4521 1.403 . S
C4519 C4516 1.403 . S
C4519 C4520 1.524 . S
C4519 C4523 1.400 . S
C4520 H4505 0.960 . S
C4520 H4506 0.960 . S
C4520 H4507 0.960 . S
C4520 C4519 1.524 . S
C4521 C4518 1.403 . S
C4521 C4522 1.392 . S
C4521 C4525 1.495 . S
C4522 C4521 1.392 . S
C4522 C4523 1.385 . S
C4522 C4524 1.478 . S
C4523 H4517 0.930 . S
C4523 C4519 1.400 . S
C4523 C4522 1.385 . S
C4524 C4522 1.478 . S
C4524 C4526 1.381 . S
C4524 C4530 1.383 . S
C4525 C4521 1.495 . S
C4525 H4531 0.959 . S
C4525 H4532 0.961 . S
C4525 H4533 0.960 . S
C4526 C4524 1.381 . S
C4526 C4527 1.394 . S
C4526 H4534 0.930 . S
C4527 C4526 1.394 . S
C4527 C4528 1.383 . S
C4527 H4535 0.929 . S
C4528 C4527 1.383 . S
C4528 C4529 1.377 . S
C4529 H4513 0.930 . S
C4529 C4528 1.377 . S
C4529 C4530 1.379 . S
C4530 H4514 0.931 . S
C4530 C4524 1.383 . S
C4530 C4529 1.379 . S
H4531 C4525 0.959 . S
H4532 C4525 0.961 . S
H4533 C4525 0.960 . S
H4534 C4526 0.930 . S
H4535 C4527 0.929 . S
H4536 C4544 0.929 . S
H4537 C4546 0.930 . S
H4538 C4548 0.930 . S
H4539 C4551 0.929 . S
H4540 C4554 0.930 . S
H4541 C4556 0.960 . S
H4542 C4556 0.960 . S
H4543 C4556 0.960 . S
C4544 H4536 0.929 . S
C4544 C4545 1.377 . S
C4544 C4546 1.384 . S
C4545 C4544 1.377 . S
C4545 C4551 1.390 . S
C4546 H4537 0.930 . S
C4546 C4544 1.384 . S
C4546 C4547 1.372 . S
C4547 C4546 1.372 . S
C4547 C4548 1.400 . S
C4547 C4552 1.490 . S
C4548 H4538 0.930 . S
C4548 C4547 1.400 . S
C4548 C4551 1.386 . S
H4549 C4565 0.930 1_554 S
H4550 C4566 0.931 . S
C4551 H4539 0.929 . S
C4551 C4545 1.390 . S
C4551 C4548 1.386 . S
C4552 C4547 1.490 . S
C4552 C4554 1.395 . S
C4552 C4555 1.403 . S
H4553 C4559 0.930 . S
C4554 H4540 0.930 . S
C4554 C4552 1.395 . S
C4554 C4557 1.403 . S
C4555 C4552 1.403 . S
C4555 C4556 1.524 . S
C4555 C4559 1.400 . S
C4556 H4541 0.960 . S
C4556 H4542 0.960 . S
C4556 H4543 0.960 . S
C4556 C4555 1.524 . S
C4557 C4554 1.403 . S
C4557 C4558 1.392 . S
C4557 C4561 1.495 . S
C4558 C4557 1.392 . S
C4558 C4559 1.385 . S
C4558 C4560 1.478 . S
C4559 H4553 0.930 . S
C4559 C4555 1.400 . S
C4559 C4558 1.385 . S
C4560 C4558 1.478 . S
C4560 C4562 1.381 . S
C4560 C4566 1.383 . S
C4561 C4557 1.495 . S
C4561 H4567 0.959 . S
C4561 H4568 0.961 . S
C4561 H4569 0.960 . S
C4562 C4560 1.381 . S
C4562 C4563 1.394 . S
C4562 H4570 0.930 . S
C4563 C4562 1.394 . S
C4563 C4564 1.383 . S
C4563 H4571 0.929 . S
C4564 C4563 1.383 . S
C4564 C4565 1.377 . S
C4565 H4549 0.930 1_556 S
C4565 C4564 1.377 . S
C4565 C4566 1.379 . S
C4566 H4550 0.931 . S
C4566 C4560 1.383 . S
C4566 C4565 1.379 . S
H4567 C4561 0.959 . S
H4568 C4561 0.961 . S
H4569 C4561 0.960 . S
H4570 C4562 0.930 . S
H4571 C4563 0.929 . S
H4572 C4580 0.929 . S
H4573 C4582 0.930 . S
H4574 C4584 0.930 . S
H4575 C4587 0.929 . S
H4576 C4590 0.930 . S
H4577 C4592 0.960 . S
H4578 C4592 0.960 . S
H4579 C4592 0.960 . S
C4580 H4572 0.929 . S
C4580 C4581 1.377 . S
C4580 C4582 1.384 . S
C4581 C4580 1.377 . S
C4581 C4587 1.390 . S
C4582 H4573 0.930 . S
C4582 C4580 1.384 . S
C4582 C4583 1.372 . S
C4583 C4582 1.372 . S
C4583 C4584 1.400 . S
C4583 C4588 1.490 . S
C4584 H4574 0.930 . S
C4584 C4583 1.400 . S
C4584 C4587 1.386 . S
H4585 C4601 0.930 . S
H4586 C4602 0.931 . S
C4587 H4575 0.929 . S
C4587 C4581 1.390 . S
C4587 C4584 1.386 . S
C4588 C4583 1.490 . S
C4588 C4590 1.395 . S
C4588 C4591 1.403 . S
H4589 C4595 0.930 . S
C4590 H4576 0.930 . S
C4590 C4588 1.395 . S
C4590 C4593 1.403 . S
C4591 C4588 1.403 . S
C4591 C4592 1.524 . S
C4591 C4595 1.400 . S
C4592 H4577 0.960 . S
C4592 H4578 0.960 . S
C4592 H4579 0.960 . S
C4592 C4591 1.524 . S
C4593 C4590 1.403 . S
C4593 C4594 1.392 . S
C4593 C4597 1.495 . S
C4594 C4593 1.392 . S
C4594 C4595 1.385 . S
C4594 C4596 1.478 . S
C4595 H4589 0.930 . S
C4595 C4591 1.400 . S
C4595 C4594 1.385 . S
C4596 C4594 1.478 . S
C4596 C4598 1.381 . S
C4596 C4602 1.383 . S
C4597 C4593 1.495 . S
C4597 H4603 0.959 . S
C4597 H4604 0.961 . S
C4597 H4605 0.960 . S
C4598 C4596 1.381 . S
C4598 C4599 1.394 . S
C4598 H4606 0.930 . S
C4599 C4598 1.394 . S
C4599 C4600 1.383 . S
C4599 H4607 0.929 . S
C4600 C4599 1.383 . S
C4600 C4601 1.377 . S
C4601 H4585 0.930 . S
C4601 C4600 1.377 . S
C4601 C4602 1.379 . S
C4602 H4586 0.931 . S
C4602 C4596 1.383 . S
C4602 C4601 1.379 . S
H4603 C4597 0.959 . S
H4604 C4597 0.961 . S
H4605 C4597 0.960 . S
H4606 C4598 0.930 . S
H4607 C4599 0.929 . S
H4608 C4616 0.929 . S
H4609 C4618 0.930 . S
H4610 C4620 0.930 . S
H4611 C4623 0.929 . S
H4612 C4626 0.930 . S
H4613 C4628 0.960 . S
H4614 C4628 0.960 . S
H4615 C4628 0.960 . S
C4616 H4608 0.929 . S
C4616 C4617 1.377 . S
C4616 C4618 1.384 . S
C4617 C4616 1.377 . S
C4617 C4623 1.390 . S
C4618 H4609 0.930 . S
C4618 C4616 1.384 . S
C4618 C4619 1.372 . S
C4619 C4618 1.372 . S
C4619 C4620 1.400 . S
C4619 C4624 1.490 . S
C4620 H4610 0.930 . S
C4620 C4619 1.400 . S
C4620 C4623 1.386 . S
H4621 C4637 0.930 . S
H4622 C4638 0.931 . S
C4623 H4611 0.929 . S
C4623 C4617 1.390 . S
C4623 C4620 1.386 . S
C4624 C4619 1.490 . S
C4624 C4626 1.395 . S
C4624 C4627 1.403 . S
H4625 C4631 0.930 1_565 S
C4626 H4612 0.930 . S
C4626 C4624 1.395 . S
C4626 C4629 1.403 . S
C4627 C4624 1.403 . S
C4627 C4628 1.524 1_545 S
C4627 C4631 1.400 . S
C4628 H4613 0.960 . S
C4628 H4614 0.960 . S
C4628 H4615 0.960 . S
C4628 C4627 1.524 1_565 S
C4629 C4626 1.403 . S
C4629 C4630 1.392 . S
C4629 C4633 1.495 . S
C4630 C4629 1.392 . S
C4630 C4631 1.385 . S
C4630 C4632 1.478 . S
C4631 H4625 0.930 1_545 S
C4631 C4627 1.400 . S
C4631 C4630 1.385 . S
C4632 C4630 1.478 . S
C4632 C4634 1.381 . S
C4632 C4638 1.383 . S
C4633 C4629 1.495 . S
C4633 H4639 0.959 . S
C4633 H4640 0.961 . S
C4633 H4641 0.960 . S
C4634 C4632 1.381 . S
C4634 C4635 1.394 . S
C4634 H4642 0.930 . S
C4635 C4634 1.394 . S
C4635 C4636 1.383 . S
C4635 H4643 0.929 . S
C4636 C4635 1.383 . S
C4636 C4637 1.377 . S
C4637 H4621 0.930 . S
C4637 C4636 1.377 . S
C4637 C4638 1.379 . S
C4638 H4622 0.931 . S
C4638 C4632 1.383 . S
C4638 C4637 1.379 . S
H4639 C4633 0.959 . S
H4640 C4633 0.961 . S
H4641 C4633 0.960 . S
H4642 C4634 0.930 . S
H4643 C4635 0.929 . S
H4644 C4652 0.929 . S
H4645 C4654 0.930 . S
H4646 C4656 0.930 . S
H4647 C4659 0.929 . S
H4648 C4662 0.930 . S
H4649 C4664 0.960 . S
H4650 C4664 0.960 . S
H4651 C4664 0.960 . S
C4652 H4644 0.929 . S
C4652 C4653 1.377 . S
C4652 C4654 1.384 . S
C4653 C4652 1.377 . S
C4653 C4659 1.390 . S
C4654 H4645 0.930 . S
C4654 C4652 1.384 . S
C4654 C4655 1.372 . S
C4655 C4654 1.372 . S
C4655 C4656 1.400 . S
C4655 C4660 1.490 . S
C4656 H4646 0.930 . S
C4656 C4655 1.400 . S
C4656 C4659 1.386 . S
H4657 C4673 0.930 . S
H4658 C4674 0.931 . S
C4659 H4647 0.929 . S
C4659 C4653 1.390 . S
C4659 C4656 1.386 . S
C4660 C4655 1.490 . S
C4660 C4662 1.395 . S
C4660 C4663 1.403 . S
H4661 C4667 0.930 . S
C4662 H4648 0.930 . S
C4662 C4660 1.395 . S
C4662 C4665 1.403 . S
C4663 C4660 1.403 . S
C4663 C4664 1.524 . S
C4663 C4667 1.400 . S
C4664 H4649 0.960 . S
C4664 H4650 0.960 . S
C4664 H4651 0.960 . S
C4664 C4663 1.524 . S
C4665 C4662 1.403 . S
C4665 C4666 1.392 . S
C4665 C4669 1.495 . S
C4666 C4665 1.392 . S
C4666 C4667 1.385 . S
C4666 C4668 1.478 . S
C4667 H4661 0.930 . S
C4667 C4663 1.400 . S
C4667 C4666 1.385 . S
C4668 C4666 1.478 . S
C4668 C4670 1.381 . S
C4668 C4674 1.383 . S
C4669 C4665 1.495 . S
C4669 H4675 0.959 . S
C4669 H4676 0.961 . S
C4669 H4677 0.960 . S
C4670 C4668 1.381 . S
C4670 C4671 1.394 . S
C4670 H4678 0.930 . S
C4671 C4670 1.394 . S
C4671 C4672 1.383 . S
C4671 H4679 0.929 . S
C4672 C4671 1.383 . S
C4672 C4673 1.377 . S
C4673 H4657 0.930 . S
C4673 C4672 1.377 . S
C4673 C4674 1.379 . S
C4674 H4658 0.931 . S
C4674 C4668 1.383 . S
C4674 C4673 1.379 . S
H4675 C4669 0.959 . S
H4676 C4669 0.961 . S
H4677 C4669 0.960 . S
H4678 C4670 0.930 . S
H4679 C4671 0.929 . S
H4680 C4688 0.929 . S
H4681 C4690 0.930 . S
H4682 C4692 0.930 . S
H4683 C4695 0.929 . S
H4684 C4698 0.930 . S
H4685 C4700 0.960 . S
H4686 C4700 0.960 . S
H4687 C4700 0.960 . S
C4688 H4680 0.929 . S
C4688 C4689 1.377 . S
C4688 C4690 1.384 . S
C4689 C4688 1.377 . S
C4689 C4695 1.390 . S
C4690 H4681 0.930 . S
C4690 C4688 1.384 . S
C4690 C4691 1.372 . S
C4691 C4690 1.372 . S
C4691 C4692 1.400 . S
C4691 C4696 1.490 . S
C4692 H4682 0.930 . S
C4692 C4691 1.400 . S
C4692 C4695 1.386 . S
H4693 C4709 0.930 . S
H4694 C4710 0.931 . S
C4695 H4683 0.929 . S
C4695 C4689 1.390 . S
C4695 C4692 1.386 . S
C4696 C4691 1.490 . S
C4696 C4698 1.395 . S
C4696 C4699 1.403 . S
H4697 C4703 0.930 . S
C4698 H4684 0.930 . S
C4698 C4696 1.395 . S
C4698 C4701 1.403 . S
C4699 C4696 1.403 . S
C4699 C4700 1.524 . S
C4699 C4703 1.400 . S
C4700 H4685 0.960 . S
C4700 H4686 0.960 . S
C4700 H4687 0.960 . S
C4700 C4699 1.524 . S
C4701 C4698 1.403 . S
C4701 C4702 1.392 . S
C4701 C4705 1.495 . S
C4702 C4701 1.392 . S
C4702 C4703 1.385 . S
C4702 C4704 1.478 . S
C4703 H4697 0.930 . S
C4703 C4699 1.400 . S
C4703 C4702 1.385 . S
C4704 C4702 1.478 . S
C4704 C4706 1.381 . S
C4704 C4710 1.383 . S
C4705 C4701 1.495 . S
C4705 H4711 0.959 1_545 S
C4705 H4712 0.961 1_545 S
C4705 H4713 0.960 . S
C4706 C4704 1.381 . S
C4706 C4707 1.394 . S
C4706 H4714 0.930 . S
C4707 C4706 1.394 . S
C4707 C4708 1.383 . S
C4707 H4715 0.929 . S
C4708 C4707 1.383 . S
C4708 C4709 1.377 . S
C4709 H4693 0.930 . S
C4709 C4708 1.377 . S
C4709 C4710 1.379 . S
C4710 H4694 0.931 . S
C4710 C4704 1.383 . S
C4710 C4709 1.379 . S
H4711 C4705 0.959 1_565 S
H4712 C4705 0.961 1_565 S
H4713 C4705 0.960 . S
H4714 C4706 0.930 . S
H4715 C4707 0.929 . S
H4716 C4724 0.929 . S
H4717 C4726 0.930 . S
H4718 C4728 0.930 . S
H4719 C4731 0.929 . S
H4720 C4734 0.930 . S
H4721 C4736 0.960 . S
H4722 C4736 0.960 . S
H4723 C4736 0.960 . S
C4724 H4716 0.929 . S
C4724 C4725 1.377 . S
C4724 C4726 1.384 . S
C4725 C4724 1.377 . S
C4725 C4731 1.390 . S
C4726 H4717 0.930 . S
C4726 C4724 1.384 . S
C4726 C4727 1.372 . S
C4727 C4726 1.372 . S
C4727 C4728 1.400 . S
C4727 C4732 1.490 . S
C4728 H4718 0.930 . S
C4728 C4727 1.400 . S
C4728 C4731 1.386 . S
H4729 C4745 0.930 . S
H4730 C4746 0.931 . S
C4731 H4719 0.929 . S
C4731 C4725 1.390 . S
C4731 C4728 1.386 . S
C4732 C4727 1.490 . S
C4732 C4734 1.395 . S
C4732 C4735 1.403 . S
H4733 C4739 0.930 . S
C4734 H4720 0.930 . S
C4734 C4732 1.395 . S
C4734 C4737 1.403 . S
C4735 C4732 1.403 . S
C4735 C4736 1.524 . S
C4735 C4739 1.400 . S
C4736 H4721 0.960 . S
C4736 H4722 0.960 . S
C4736 H4723 0.960 . S
C4736 C4735 1.524 . S
C4737 C4734 1.403 . S
C4737 C4738 1.392 . S
C4737 C4741 1.495 . S
C4738 C4737 1.392 . S
C4738 C4739 1.385 . S
C4738 C4740 1.478 . S
C4739 H4733 0.930 . S
C4739 C4735 1.400 . S
C4739 C4738 1.385 . S
C4740 C4738 1.478 . S
C4740 C4742 1.381 . S
C4740 C4746 1.383 . S
C4741 C4737 1.495 . S
C4741 H4747 0.959 . S
C4741 H4748 0.961 . S
C4741 H4749 0.960 . S
C4742 C4740 1.381 . S
C4742 C4743 1.394 . S
C4742 H4750 0.930 . S
C4743 C4742 1.394 . S
C4743 C4744 1.383 . S
C4743 H4751 0.929 . S
C4744 C4743 1.383 . S
C4744 C4745 1.377 . S
C4745 H4729 0.930 . S
C4745 C4744 1.377 . S
C4745 C4746 1.379 . S
C4746 H4730 0.931 . S
C4746 C4740 1.383 . S
C4746 C4745 1.379 . S
H4747 C4741 0.959 . S
H4748 C4741 0.961 . S
H4749 C4741 0.960 . S
H4750 C4742 0.930 . S
H4751 C4743 0.929 . S
H4752 C4760 0.929 . S
H4753 C4762 0.930 . S
H4754 C4764 0.930 . S
H4755 C4767 0.929 . S
H4756 C4770 0.930 . S
H4757 C4772 0.960 . S
H4758 C4772 0.960 . S
H4759 C4772 0.960 . S
C4760 H4752 0.929 . S
C4760 C4761 1.377 . S
C4760 C4762 1.384 . S
C4761 C4760 1.377 . S
C4761 C4767 1.390 . S
C4762 H4753 0.930 . S
C4762 C4760 1.384 . S
C4762 C4763 1.372 . S
C4763 C4762 1.372 . S
C4763 C4764 1.400 . S
C4763 C4768 1.490 . S
C4764 H4754 0.930 . S
C4764 C4763 1.400 . S
C4764 C4767 1.386 . S
H4765 C4781 0.930 . S
H4766 C4782 0.931 . S
C4767 H4755 0.929 . S
C4767 C4761 1.390 . S
C4767 C4764 1.386 . S
C4768 C4763 1.490 . S
C4768 C4770 1.395 . S
C4768 C4771 1.403 . S
H4769 C4775 0.930 . S
C4770 H4756 0.930 . S
C4770 C4768 1.395 . S
C4770 C4773 1.403 . S
C4771 C4768 1.403 . S
C4771 C4772 1.524 . S
C4771 C4775 1.400 . S
C4772 H4757 0.960 . S
C4772 H4758 0.960 . S
C4772 H4759 0.960 . S
C4772 C4771 1.524 . S
C4773 C4770 1.403 . S
C4773 C4774 1.392 . S
C4773 C4777 1.495 1_545 S
C4774 C4773 1.392 . S
C4774 C4775 1.385 . S
C4774 C4776 1.478 . S
C4775 H4769 0.930 . S
C4775 C4771 1.400 . S
C4775 C4774 1.385 . S
C4776 C4774 1.478 . S
C4776 C4778 1.381 . S
C4776 C4782 1.383 . S
C4777 C4773 1.495 1_565 S
C4777 H4783 0.959 . S
C4777 H4784 0.961 . S
C4777 H4785 0.960 1_565 S
C4778 C4776 1.381 . S
C4778 C4779 1.394 . S
C4778 H4786 0.930 . S
C4779 C4778 1.394 . S
C4779 C4780 1.383 . S
C4779 H4787 0.929 . S
C4780 C4779 1.383 . S
C4780 C4781 1.377 . S
C4781 H4765 0.930 . S
C4781 C4780 1.377 . S
C4781 C4782 1.379 . S
C4782 H4766 0.931 . S
C4782 C4776 1.383 . S
C4782 C4781 1.379 . S
H4783 C4777 0.959 . S
H4784 C4777 0.961 . S
H4785 C4777 0.960 1_545 S
H4786 C4778 0.930 . S
H4787 C4779 0.929 . S
H4788 C4796 0.929 . S
H4789 C4798 0.930 . S
H4790 C4800 0.930 . S
H4791 C4803 0.929 . S
H4792 C4806 0.930 . S
H4793 C4808 0.960 . S
H4794 C4808 0.960 . S
H4795 C4808 0.960 . S
C4796 H4788 0.929 . S
C4796 C4797 1.377 . S
C4796 C4798 1.384 . S
C4797 C4796 1.377 . S
C4797 C4803 1.390 . S
C4798 H4789 0.930 . S
C4798 C4796 1.384 . S
C4798 C4799 1.372 . S
C4799 C4798 1.372 . S
C4799 C4800 1.400 . S
C4799 C4804 1.490 . S
C4800 H4790 0.930 . S
C4800 C4799 1.400 . S
C4800 C4803 1.386 . S
H4801 C4817 0.930 . S
H4802 C4818 0.931 . S
C4803 H4791 0.929 . S
C4803 C4797 1.390 . S
C4803 C4800 1.386 . S
C4804 C4799 1.490 . S
C4804 C4806 1.395 . S
C4804 C4807 1.403 . S
H4805 C4811 0.930 . S
C4806 H4792 0.930 . S
C4806 C4804 1.395 . S
C4806 C4809 1.403 . S
C4807 C4804 1.403 . S
C4807 C4808 1.524 . S
C4807 C4811 1.400 . S
C4808 H4793 0.960 . S
C4808 H4794 0.960 . S
C4808 H4795 0.960 . S
C4808 C4807 1.524 . S
C4809 C4806 1.403 . S
C4809 C4810 1.392 . S
C4809 C4813 1.495 . S
C4810 C4809 1.392 . S
C4810 C4811 1.385 . S
C4810 C4812 1.478 . S
C4811 H4805 0.930 . S
C4811 C4807 1.400 . S
C4811 C4810 1.385 . S
C4812 C4810 1.478 . S
C4812 C4814 1.381 . S
C4812 C4818 1.383 . S
C4813 C4809 1.495 . S
C4813 H4819 0.959 . S
C4813 H4820 0.961 . S
C4813 H4821 0.960 . S
C4814 C4812 1.381 . S
C4814 C4815 1.394 . S
C4814 H4822 0.930 . S
C4815 C4814 1.394 . S
C4815 C4816 1.383 . S
C4815 H4823 0.929 . S
C4816 C4815 1.383 . S
C4816 C4817 1.377 . S
C4817 H4801 0.930 . S
C4817 C4816 1.377 . S
C4817 C4818 1.379 . S
C4818 H4802 0.931 . S
C4818 C4812 1.383 . S
C4818 C4817 1.379 . S
H4819 C4813 0.959 . S
H4820 C4813 0.961 . S
H4821 C4813 0.960 . S
H4822 C4814 0.930 . S
H4823 C4815 0.929 . S
H4824 C4832 0.929 . S
H4825 C4834 0.930 . S
H4826 C4836 0.930 . S
H4827 C4839 0.929 . S
H4828 C4842 0.930 . S
H4829 C4844 0.960 . S
H4830 C4844 0.960 1_545 S
H4831 C4844 0.960 . S
C4832 H4824 0.929 . S
C4832 C4833 1.377 . S
C4832 C4834 1.384 . S
C4833 C4832 1.377 . S
C4833 C4839 1.390 1_545 S
C4834 H4825 0.930 . S
C4834 C4832 1.384 . S
C4834 C4835 1.372 . S
C4835 C4834 1.372 . S
C4835 C4836 1.400 1_545 S
C4835 C4840 1.490 . S
C4836 H4826 0.930 . S
C4836 C4835 1.400 1_565 S
C4836 C4839 1.386 . S
H4837 C4853 0.930 . S
H4838 C4854 0.931 . S
C4839 H4827 0.929 . S
C4839 C4833 1.390 1_565 S
C4839 C4836 1.386 . S
C4840 C4835 1.490 . S
C4840 C4842 1.395 . S
C4840 C4843 1.403 . S
H4841 C4847 0.928 1_565 S
C4842 H4828 0.930 . S
C4842 C4840 1.395 . S
C4842 C4845 1.403 . S
C4843 C4840 1.403 . S
C4843 C4844 1.524 1_545 S
C4843 C4847 1.400 . S
C4844 H4829 0.960 . S
C4844 H4830 0.960 1_565 S
C4844 H4831 0.960 . S
C4844 C4843 1.524 1_565 S
C4845 C4842 1.403 . S
C4845 C4846 1.392 . S
C4845 C4849 1.495 . S
C4846 C4845 1.392 . S
C4846 C4847 1.385 . S
C4846 C4848 1.478 . S
C4847 H4841 0.928 1_545 S
C4847 C4843 1.400 . S
C4847 C4846 1.385 . S
C4848 C4846 1.478 . S
C4848 C4850 1.381 . S
C4848 C4854 1.383 1_545 S
C4849 C4845 1.495 . S
C4849 H4855 0.959 . S
C4849 H4856 0.961 . S
C4849 H4857 0.960 . S
C4850 C4848 1.381 . S
C4850 C4851 1.394 . S
C4850 H4858 0.930 . S
C4851 C4850 1.394 . S
C4851 C4852 1.383 . S
C4851 H4859 0.929 . S
C4852 C4851 1.383 . S
C4852 C4853 1.377 1_545 S
C4853 H4837 0.930 . S
C4853 C4852 1.377 1_565 S
C4853 C4854 1.379 . S
C4854 H4838 0.931 . S
C4854 C4848 1.383 1_565 S
C4854 C4853 1.379 . S
H4855 C4849 0.959 . S
H4856 C4849 0.961 . S
H4857 C4849 0.960 . S
H4858 C4850 0.930 . S
H4859 C4851 0.929 . S
H4860 C4868 0.929 . S
H4861 C4870 0.930 . S
H4862 C4872 0.930 . S
H4863 C4875 0.929 . S
H4864 C4878 0.930 . S
H4865 C4880 0.960 . S
H4866 C4880 0.960 . S
H4867 C4880 0.960 . S
C4868 H4860 0.929 . S
C4868 C4869 1.377 . S
C4868 C4870 1.384 . S
C4869 C4868 1.377 . S
C4869 C4875 1.390 . S
C4870 H4861 0.930 . S
C4870 C4868 1.384 . S
C4870 C4871 1.372 . S
C4871 C4870 1.372 . S
C4871 C4872 1.400 . S
C4871 C4876 1.490 . S
C4872 H4862 0.930 . S
C4872 C4871 1.400 . S
C4872 C4875 1.386 . S
H4873 C4889 0.930 . S
H4874 C4890 0.931 . S
C4875 H4863 0.929 . S
C4875 C4869 1.390 . S
C4875 C4872 1.386 . S
C4876 C4871 1.490 . S
C4876 C4878 1.395 . S
C4876 C4879 1.403 . S
H4877 C4883 0.930 . S
C4878 H4864 0.930 . S
C4878 C4876 1.395 . S
C4878 C4881 1.403 . S
C4879 C4876 1.403 . S
C4879 C4880 1.524 . S
C4879 C4883 1.400 . S
C4880 H4865 0.960 . S
C4880 H4866 0.960 . S
C4880 H4867 0.960 . S
C4880 C4879 1.524 . S
C4881 C4878 1.403 . S
C4881 C4882 1.392 . S
C4881 C4885 1.495 . S
C4882 C4881 1.392 . S
C4882 C4883 1.385 . S
C4882 C4884 1.478 . S
C4883 H4877 0.930 . S
C4883 C4879 1.400 . S
C4883 C4882 1.385 . S
C4884 C4882 1.478 . S
C4884 C4886 1.381 . S
C4884 C4890 1.383 . S
C4885 C4881 1.495 . S
C4885 H4891 0.959 . S
C4885 H4892 0.961 . S
C4885 H4893 0.960 . S
C4886 C4884 1.381 . S
C4886 C4887 1.394 . S
C4886 H4894 0.930 . S
C4887 C4886 1.394 . S
C4887 C4888 1.383 . S
C4887 H4895 0.929 . S
C4888 C4887 1.383 . S
C4888 C4889 1.377 . S
C4889 H4873 0.930 . S
C4889 C4888 1.377 . S
C4889 C4890 1.379 . S
C4890 H4874 0.931 . S
C4890 C4884 1.383 . S
C4890 C4889 1.379 . S
H4891 C4885 0.959 . S
H4892 C4885 0.961 . S
H4893 C4885 0.960 . S
H4894 C4886 0.930 . S
H4895 C4887 0.929 . S
H4896 C4904 0.929 . S
H4897 C4906 0.930 . S
H4898 C4908 0.930 . S
H4899 C4911 0.929 . S
H4900 C4914 0.930 . S
H4901 C4916 0.960 . S
H4902 C4916 0.960 . S
H4903 C4916 0.960 . S
C4904 H4896 0.929 . S
C4904 C4905 1.377 . S
C4904 C4906 1.384 . S
C4905 C4904 1.377 . S
C4905 C4911 1.390 . S
C4906 H4897 0.930 . S
C4906 C4904 1.384 . S
C4906 C4907 1.372 . S
C4907 C4906 1.372 . S
C4907 C4908 1.400 . S
C4907 C4912 1.490 . S
C4908 H4898 0.930 . S
C4908 C4907 1.400 . S
C4908 C4911 1.386 . S
H4909 C4925 0.930 1_556 S
H4910 C4926 0.931 1_556 S
C4911 H4899 0.929 . S
C4911 C4905 1.390 . S
C4911 C4908 1.386 . S
C4912 C4907 1.490 . S
C4912 C4914 1.395 . S
C4912 C4915 1.403 . S
H4913 C4919 0.930 . S
C4914 H4900 0.930 . S
C4914 C4912 1.395 . S
C4914 C4917 1.403 . S
C4915 C4912 1.403 . S
C4915 C4916 1.524 . S
C4915 C4919 1.400 . S
C4916 H4901 0.960 . S
C4916 H4902 0.960 . S
C4916 H4903 0.960 . S
C4916 C4915 1.524 . S
C4917 C4914 1.403 . S
C4917 C4918 1.392 . S
C4917 C4921 1.495 . S
C4918 C4917 1.392 . S
C4918 C4919 1.385 . S
C4918 C4920 1.478 . S
C4919 H4913 0.930 . S
C4919 C4915 1.400 . S
C4919 C4918 1.385 . S
C4920 C4918 1.478 . S
C4920 C4922 1.381 . S
C4920 C4926 1.383 . S
C4921 C4917 1.495 . S
C4921 H4927 0.959 . S
C4921 H4928 0.961 . S
C4921 H4929 0.960 . S
C4922 C4920 1.381 . S
C4922 C4923 1.394 . S
C4922 H4930 0.930 . S
C4923 C4922 1.394 . S
C4923 C4924 1.383 . S
C4923 H4931 0.929 . S
C4924 C4923 1.383 . S
C4924 C4925 1.377 . S
C4925 H4909 0.930 1_554 S
C4925 C4924 1.377 . S
C4925 C4926 1.379 . S
C4926 H4910 0.931 1_554 S
C4926 C4920 1.383 . S
C4926 C4925 1.379 . S
H4927 C4921 0.959 . S
H4928 C4921 0.961 . S
H4929 C4921 0.960 . S
H4930 C4922 0.930 . S
H4931 C4923 0.929 . S
H4932 C4940 0.929 . S
H4933 C4942 0.930 . S
H4934 C4944 0.930 . S
H4935 C4947 0.929 . S
H4936 C4950 0.930 . S
H4937 C4952 0.960 . S
H4938 C4952 0.960 . S
H4939 C4952 0.960 . S
C4940 H4932 0.929 . S
C4940 C4941 1.377 . S
C4940 C4942 1.384 . S
C4941 C4940 1.377 . S
C4941 C4947 1.390 . S
C4942 H4933 0.930 . S
C4942 C4940 1.384 . S
C4942 C4943 1.372 . S
C4943 C4942 1.372 . S
C4943 C4944 1.400 . S
C4943 C4948 1.490 . S
C4944 H4934 0.930 . S
C4944 C4943 1.400 . S
C4944 C4947 1.386 . S
H4945 C4961 0.930 . S
H4946 C4962 0.931 . S
C4947 H4935 0.929 . S
C4947 C4941 1.390 . S
C4947 C4944 1.386 . S
C4948 C4943 1.490 . S
C4948 C4950 1.395 . S
C4948 C4951 1.403 . S
H4949 C4955 0.930 . S
C4950 H4936 0.930 . S
C4950 C4948 1.395 . S
C4950 C4953 1.403 . S
C4951 C4948 1.403 . S
C4951 C4952 1.524 . S
C4951 C4955 1.400 . S
C4952 H4937 0.960 . S
C4952 H4938 0.960 . S
C4952 H4939 0.960 . S
C4952 C4951 1.524 . S
C4953 C4950 1.403 . S
C4953 C4954 1.392 . S
C4953 C4957 1.495 . S
C4954 C4953 1.392 . S
C4954 C4955 1.385 . S
C4954 C4956 1.478 . S
C4955 H4949 0.930 . S
C4955 C4951 1.400 . S
C4955 C4954 1.385 . S
C4956 C4954 1.478 . S
C4956 C4958 1.381 . S
C4956 C4962 1.383 . S
C4957 C4953 1.495 . S
C4957 H4963 0.959 . S
C4957 H4964 0.961 . S
C4957 H4965 0.960 . S
C4958 C4956 1.381 . S
C4958 C4959 1.394 . S
C4958 H4966 0.930 . S
C4959 C4958 1.394 . S
C4959 C4960 1.383 . S
C4959 H4967 0.929 . S
C4960 C4959 1.383 . S
C4960 C4961 1.377 . S
C4961 H4945 0.930 . S
C4961 C4960 1.377 . S
C4961 C4962 1.379 . S
C4962 H4946 0.931 . S
C4962 C4956 1.383 . S
C4962 C4961 1.379 . S
H4963 C4957 0.959 . S
H4964 C4957 0.961 . S
H4965 C4957 0.960 . S
H4966 C4958 0.930 . S
H4967 C4959 0.929 . S
H4968 C4976 0.929 . S
H4969 C4978 0.930 . S
H4970 C4980 0.930 . S
H4971 C4983 0.929 . S
H4972 C4986 0.930 . S
H4973 C4988 0.960 . S
H4974 C4988 0.960 . S
H4975 C4988 0.960 . S
C4976 H4968 0.929 . S
C4976 C4977 1.377 . S
C4976 C4978 1.384 . S
C4977 C4976 1.377 . S
C4977 C4983 1.390 . S
C4978 H4969 0.930 . S
C4978 C4976 1.384 . S
C4978 C4979 1.372 . S
C4979 C4978 1.372 . S
C4979 C4980 1.400 . S
C4979 C4984 1.490 . S
C4980 H4970 0.930 . S
C4980 C4979 1.400 . S
C4980 C4983 1.386 . S
H4981 C4997 0.930 . S
H4982 C4998 0.931 . S
C4983 H4971 0.929 . S
C4983 C4977 1.390 . S
C4983 C4980 1.386 . S
C4984 C4979 1.490 . S
C4984 C4986 1.395 . S
C4984 C4987 1.403 . S
H4985 C4991 0.930 . S
C4986 H4972 0.930 . S
C4986 C4984 1.395 . S
C4986 C4989 1.403 . S
C4987 C4984 1.403 . S
C4987 C4988 1.524 . S
C4987 C4991 1.400 . S
C4988 H4973 0.960 . S
C4988 H4974 0.960 . S
C4988 H4975 0.960 . S
C4988 C4987 1.524 . S
C4989 C4986 1.403 . S
C4989 C4990 1.392 . S
C4989 C4993 1.495 . S
C4990 C4989 1.392 . S
C4990 C4991 1.385 . S
C4990 C4992 1.478 . S
C4991 H4985 0.930 . S
C4991 C4987 1.400 . S
C4991 C4990 1.385 . S
C4992 C4990 1.478 . S
C4992 C4994 1.381 . S
C4992 C4998 1.383 . S
C4993 C4989 1.495 . S
C4993 H4999 0.959 . S
C4993 H5000 0.961 . S
C4993 H5001 0.960 . S
C4994 C4992 1.381 . S
C4994 C4995 1.394 . S
C4994 H5002 0.930 . S
C4995 C4994 1.394 . S
C4995 C4996 1.383 . S
C4995 H5003 0.929 . S
C4996 C4995 1.383 . S
C4996 C4997 1.377 . S
C4997 H4981 0.930 . S
C4997 C4996 1.377 . S
C4997 C4998 1.379 . S
C4998 H4982 0.931 . S
C4998 C4992 1.383 . S
C4998 C4997 1.379 . S
H4999 C4993 0.959 . S
H5000 C4993 0.961 . S
H5001 C4993 0.960 . S
H5002 C4994 0.930 . S
H5003 C4995 0.929 . S
H5004 C5012 0.929 . S
H5005 C5014 0.930 . S
H5006 C5016 0.930 . S
H5007 C5019 0.929 . S
H5008 C5022 0.930 . S
H5009 C5024 0.960 . S
H5010 C5024 0.960 . S
H5011 C5024 0.960 . S
C5012 H5004 0.929 . S
C5012 C5013 1.377 . S
C5012 C5014 1.384 . S
C5013 C5012 1.377 . S
C5013 C5019 1.390 . S
C5014 H5005 0.930 . S
C5014 C5012 1.384 . S
C5014 C5015 1.372 . S
C5015 C5014 1.372 . S
C5015 C5016 1.400 . S
C5015 C5020 1.490 . S
C5016 H5006 0.930 . S
C5016 C5015 1.400 . S
C5016 C5019 1.386 . S
H5017 C5033 0.930 . S
H5018 C5034 0.931 . S
C5019 H5007 0.929 . S
C5019 C5013 1.390 . S
C5019 C5016 1.386 . S
C5020 C5015 1.490 . S
C5020 C5022 1.395 . S
C5020 C5023 1.403 . S
H5021 C5027 0.930 . S
C5022 H5008 0.930 . S
C5022 C5020 1.395 . S
C5022 C5025 1.403 . S
C5023 C5020 1.403 . S
C5023 C5024 1.524 . S
C5023 C5027 1.400 . S
C5024 H5009 0.960 . S
C5024 H5010 0.960 . S
C5024 H5011 0.960 . S
C5024 C5023 1.524 . S
C5025 C5022 1.403 . S
C5025 C5026 1.392 . S
C5025 C5029 1.495 . S
C5026 C5025 1.392 . S
C5026 C5027 1.385 . S
C5026 C5028 1.478 . S
C5027 H5021 0.930 . S
C5027 C5023 1.400 . S
C5027 C5026 1.385 . S
C5028 C5026 1.478 . S
C5028 C5030 1.381 . S
C5028 C5034 1.383 . S
C5029 C5025 1.495 . S
C5029 H5035 0.959 . S
C5029 H5036 0.961 . S
C5029 H5037 0.960 . S
C5030 C5028 1.381 . S
C5030 C5031 1.394 . S
C5030 H5038 0.930 . S
C5031 C5030 1.394 . S
C5031 C5032 1.383 . S
C5031 H5039 0.929 . S
C5032 C5031 1.383 . S
C5032 C5033 1.377 . S
C5033 H5017 0.930 . S
C5033 C5032 1.377 . S
C5033 C5034 1.379 . S
C5034 H5018 0.931 . S
C5034 C5028 1.383 . S
C5034 C5033 1.379 . S
H5035 C5029 0.959 . S
H5036 C5029 0.961 . S
H5037 C5029 0.960 . S
H5038 C5030 0.930 . S
H5039 C5031 0.929 . S
H5040 C5048 0.929 . S
H5041 C5050 0.930 . S
H5042 C5052 0.930 . S
H5043 C5055 0.929 . S
H5044 C5058 0.930 . S
H5045 C5060 0.960 . S
H5046 C5060 0.960 . S
H5047 C5060 0.960 . S
C5048 H5040 0.929 . S
C5048 C5049 1.377 . S
C5048 C5050 1.384 . S
C5049 C5048 1.377 . S
C5049 C5055 1.390 . S
C5050 H5041 0.930 . S
C5050 C5048 1.384 . S
C5050 C5051 1.372 . S
C5051 C5050 1.372 . S
C5051 C5052 1.400 . S
C5051 C5056 1.490 . S
C5052 H5042 0.930 . S
C5052 C5051 1.400 . S
C5052 C5055 1.386 . S
H5053 C5069 0.930 . S
H5054 C5070 0.931 . S
C5055 H5043 0.929 . S
C5055 C5049 1.390 . S
C5055 C5052 1.386 . S
C5056 C5051 1.490 . S
C5056 C5058 1.395 . S
C5056 C5059 1.403 . S
H5057 C5063 0.930 . S
C5058 H5044 0.930 . S
C5058 C5056 1.395 . S
C5058 C5061 1.403 . S
C5059 C5056 1.403 . S
C5059 C5060 1.524 . S
C5059 C5063 1.400 . S
C5060 H5045 0.960 . S
C5060 H5046 0.960 . S
C5060 H5047 0.960 . S
C5060 C5059 1.524 . S
C5061 C5058 1.403 . S
C5061 C5062 1.392 . S
C5061 C5065 1.495 . S
C5062 C5061 1.392 . S
C5062 C5063 1.385 . S
C5062 C5064 1.478 . S
C5063 H5057 0.930 . S
C5063 C5059 1.400 . S
C5063 C5062 1.385 . S
C5064 C5062 1.478 . S
C5064 C5066 1.381 . S
C5064 C5070 1.383 . S
C5065 C5061 1.495 . S
C5065 H5071 0.959 . S
C5065 H5072 0.961 . S
C5065 H5073 0.960 . S
C5066 C5064 1.381 . S
C5066 C5067 1.394 . S
C5066 H5074 0.930 . S
C5067 C5066 1.394 . S
C5067 C5068 1.383 . S
C5067 H5075 0.929 . S
C5068 C5067 1.383 . S
C5068 C5069 1.377 . S
C5069 H5053 0.930 . S
C5069 C5068 1.377 . S
C5069 C5070 1.379 . S
C5070 H5054 0.931 . S
C5070 C5064 1.383 . S
C5070 C5069 1.379 . S
H5071 C5065 0.959 . S
H5072 C5065 0.961 . S
H5073 C5065 0.960 . S
H5074 C5066 0.930 . S
H5075 C5067 0.929 . S
H5076 C5084 0.929 . S
H5077 C5086 0.930 . S
H5078 C5088 0.930 . S
H5079 C5091 0.929 . S
H5080 C5094 0.930 . S
H5081 C5096 0.960 . S
H5082 C5096 0.960 . S
H5083 C5096 0.960 . S
C5084 H5076 0.929 . S
C5084 C5085 1.377 . S
C5084 C5086 1.384 . S
C5085 C5084 1.377 . S
C5085 C5091 1.390 . S
C5086 H5077 0.930 . S
C5086 C5084 1.384 . S
C5086 C5087 1.372 . S
C5087 C5086 1.372 . S
C5087 C5088 1.400 . S
C5087 C5092 1.490 . S
C5088 H5078 0.930 . S
C5088 C5087 1.400 . S
C5088 C5091 1.386 . S
H5089 C5105 0.930 . S
H5090 C5106 0.931 . S
C5091 H5079 0.929 . S
C5091 C5085 1.390 . S
C5091 C5088 1.386 . S
C5092 C5087 1.490 . S
C5092 C5094 1.395 . S
C5092 C5095 1.403 . S
H5093 C5099 0.930 . S
C5094 H5080 0.930 . S
C5094 C5092 1.395 . S
C5094 C5097 1.403 . S
C5095 C5092 1.403 . S
C5095 C5096 1.524 . S
C5095 C5099 1.400 . S
C5096 H5081 0.960 . S
C5096 H5082 0.960 . S
C5096 H5083 0.960 . S
C5096 C5095 1.524 . S
C5097 C5094 1.403 . S
C5097 C5098 1.392 . S
C5097 C5101 1.495 . S
C5098 C5097 1.392 . S
C5098 C5099 1.385 . S
C5098 C5100 1.478 . S
C5099 H5093 0.930 . S
C5099 C5095 1.400 . S
C5099 C5098 1.385 . S
C5100 C5098 1.478 . S
C5100 C5102 1.381 . S
C5100 C5106 1.383 . S
C5101 C5097 1.495 . S
C5101 H5107 0.959 . S
C5101 H5108 0.961 . S
C5101 H5109 0.960 . S
C5102 C5100 1.381 . S
C5102 C5103 1.394 . S
C5102 H5110 0.930 . S
C5103 C5102 1.394 . S
C5103 C5104 1.383 . S
C5103 H5111 0.929 . S
C5104 C5103 1.383 . S
C5104 C5105 1.377 . S
C5105 H5089 0.930 . S
C5105 C5104 1.377 . S
C5105 C5106 1.379 . S
C5106 H5090 0.931 . S
C5106 C5100 1.383 . S
C5106 C5105 1.379 . S
H5107 C5101 0.959 . S
H5108 C5101 0.961 . S
H5109 C5101 0.960 . S
H5110 C5102 0.930 . S
H5111 C5103 0.929 . S
H5112 C5120 0.929 . S
H5113 C5122 0.930 . S
H5114 C5124 0.930 . S
H5115 C5127 0.929 . S
H5116 C5130 0.930 . S
H5117 C5132 0.960 . S
H5118 C5132 0.960 . S
H5119 C5132 0.960 . S
C5120 H5112 0.929 . S
C5120 C5121 1.377 . S
C5120 C5122 1.384 . S
C5121 C5120 1.377 . S
C5121 C5127 1.390 . S
C5122 H5113 0.930 . S
C5122 C5120 1.384 . S
C5122 C5123 1.372 . S
C5123 C5122 1.372 . S
C5123 C5124 1.400 . S
C5123 C5128 1.490 . S
C5124 H5114 0.930 . S
C5124 C5123 1.400 . S
C5124 C5127 1.386 . S
H5125 C5141 0.930 . S
H5126 C5142 0.931 . S
C5127 H5115 0.929 . S
C5127 C5121 1.390 . S
C5127 C5124 1.386 . S
C5128 C5123 1.490 . S
C5128 C5130 1.395 . S
C5128 C5131 1.403 . S
H5129 C5135 0.930 . S
C5130 H5116 0.930 . S
C5130 C5128 1.395 . S
C5130 C5133 1.403 . S
C5131 C5128 1.403 . S
C5131 C5132 1.524 . S
C5131 C5135 1.400 . S
C5132 H5117 0.960 . S
C5132 H5118 0.960 . S
C5132 H5119 0.960 . S
C5132 C5131 1.524 . S
C5133 C5130 1.403 . S
C5133 C5134 1.392 . S
C5133 C5137 1.495 . S
C5134 C5133 1.392 . S
C5134 C5135 1.385 . S
C5134 C5136 1.478 . S
C5135 H5129 0.930 . S
C5135 C5131 1.400 . S
C5135 C5134 1.385 . S
C5136 C5134 1.478 . S
C5136 C5138 1.381 . S
C5136 C5142 1.383 . S
C5137 C5133 1.495 . S
C5137 H5143 0.959 . S
C5137 H5144 0.961 . S
C5137 H5145 0.960 . S
C5138 C5136 1.381 . S
C5138 C5139 1.394 . S
C5138 H5146 0.930 . S
C5139 C5138 1.394 . S
C5139 C5140 1.383 . S
C5139 H5147 0.929 . S
C5140 C5139 1.383 . S
C5140 C5141 1.377 . S
C5141 H5125 0.930 . S
C5141 C5140 1.377 . S
C5141 C5142 1.379 . S
C5142 H5126 0.931 . S
C5142 C5136 1.383 . S
C5142 C5141 1.379 . S
H5143 C5137 0.959 . S
H5144 C5137 0.961 . S
H5145 C5137 0.960 . S
H5146 C5138 0.930 . S
H5147 C5139 0.929 . S
H5148 C5156 0.929 . S
H5149 C5158 0.930 . S
H5150 C5160 0.930 . S
H5151 C5163 0.929 . S
H5152 C5166 0.930 . S
H5153 C5168 0.960 . S
H5154 C5168 0.960 . S
H5155 C5168 0.960 . S
C5156 H5148 0.929 . S
C5156 C5157 1.377 . S
C5156 C5158 1.384 . S
C5157 C5156 1.377 . S
C5157 C5163 1.390 . S
C5158 H5149 0.930 . S
C5158 C5156 1.384 . S
C5158 C5159 1.372 . S
C5159 C5158 1.372 . S
C5159 C5160 1.400 . S
C5159 C5164 1.490 . S
C5160 H5150 0.930 . S
C5160 C5159 1.400 . S
C5160 C5163 1.386 . S
H5161 C5177 0.930 . S
H5162 C5178 0.931 . S
C5163 H5151 0.929 . S
C5163 C5157 1.390 . S
C5163 C5160 1.386 . S
C5164 C5159 1.490 . S
C5164 C5166 1.395 . S
C5164 C5167 1.403 . S
H5165 C5171 0.930 . S
C5166 H5152 0.930 . S
C5166 C5164 1.395 . S
C5166 C5169 1.403 . S
C5167 C5164 1.403 . S
C5167 C5168 1.524 . S
C5167 C5171 1.400 . S
C5168 H5153 0.960 . S
C5168 H5154 0.960 . S
C5168 H5155 0.960 . S
C5168 C5167 1.524 . S
C5169 C5166 1.403 . S
C5169 C5170 1.392 . S
C5169 C5173 1.495 . S
C5170 C5169 1.392 . S
C5170 C5171 1.385 . S
C5170 C5172 1.478 . S
C5171 H5165 0.930 . S
C5171 C5167 1.400 . S
C5171 C5170 1.385 . S
C5172 C5170 1.478 . S
C5172 C5174 1.381 . S
C5172 C5178 1.383 . S
C5173 C5169 1.495 . S
C5173 H5179 0.959 . S
C5173 H5180 0.961 . S
C5173 H5181 0.960 . S
C5174 C5172 1.381 . S
C5174 C5175 1.394 . S
C5174 H5182 0.930 . S
C5175 C5174 1.394 . S
C5175 C5176 1.383 . S
C5175 H5183 0.929 . S
C5176 C5175 1.383 . S
C5176 C5177 1.377 . S
C5177 H5161 0.930 . S
C5177 C5176 1.377 . S
C5177 C5178 1.379 . S
C5178 H5162 0.931 . S
C5178 C5172 1.383 . S
C5178 C5177 1.379 . S
H5179 C5173 0.959 . S
H5180 C5173 0.961 . S
H5181 C5173 0.960 . S
H5182 C5174 0.930 . S
H5183 C5175 0.929 . S
H5184 C5192 0.929 . S
H5185 C5194 0.930 . S
H5186 C5196 0.930 . S
H5187 C5199 0.929 . S
H5188 C5202 0.930 . S
H5189 C5204 0.960 . S
H5190 C5204 0.960 . S
H5191 C5204 0.960 . S
C5192 H5184 0.929 . S
C5192 C5193 1.377 . S
C5192 C5194 1.384 . S
C5193 C5192 1.377 . S
C5193 C5199 1.390 . S
C5194 H5185 0.930 . S
C5194 C5192 1.384 . S
C5194 C5195 1.372 . S
C5195 C5194 1.372 . S
C5195 C5196 1.400 . S
C5195 C5200 1.490 . S
C5196 H5186 0.930 . S
C5196 C5195 1.400 . S
C5196 C5199 1.386 . S
H5197 C5213 0.930 . S
H5198 C5214 0.931 . S
C5199 H5187 0.929 . S
C5199 C5193 1.390 . S
C5199 C5196 1.386 . S
C5200 C5195 1.490 . S
C5200 C5202 1.395 . S
C5200 C5203 1.403 . S
H5201 C5207 0.930 . S
C5202 H5188 0.930 . S
C5202 C5200 1.395 . S
C5202 C5205 1.403 . S
C5203 C5200 1.403 . S
C5203 C5204 1.524 . S
C5203 C5207 1.400 . S
C5204 H5189 0.960 . S
C5204 H5190 0.960 . S
C5204 H5191 0.960 . S
C5204 C5203 1.524 . S
C5205 C5202 1.403 . S
C5205 C5206 1.392 . S
C5205 C5209 1.495 . S
C5206 C5205 1.392 . S
C5206 C5207 1.385 . S
C5206 C5208 1.478 . S
C5207 H5201 0.930 . S
C5207 C5203 1.400 . S
C5207 C5206 1.385 . S
C5208 C5206 1.478 . S
C5208 C5210 1.381 . S
C5208 C5214 1.383 . S
C5209 C5205 1.495 . S
C5209 H5215 0.959 . S
C5209 H5216 0.961 . S
C5209 H5217 0.960 . S
C5210 C5208 1.381 . S
C5210 C5211 1.394 . S
C5210 H5218 0.930 . S
C5211 C5210 1.394 . S
C5211 C5212 1.383 . S
C5211 H5219 0.929 . S
C5212 C5211 1.383 . S
C5212 C5213 1.377 . S
C5213 H5197 0.930 . S
C5213 C5212 1.377 . S
C5213 C5214 1.379 . S
C5214 H5198 0.931 . S
C5214 C5208 1.383 . S
C5214 C5213 1.379 . S
H5215 C5209 0.959 . S
H5216 C5209 0.961 . S
H5217 C5209 0.960 . S
H5218 C5210 0.930 . S
H5219 C5211 0.929 . S
H5220 C5228 0.929 . S
H5221 C5230 0.930 . S
H5222 C5232 0.930 . S
H5223 C5235 0.929 . S
H5224 C5238 0.930 . S
H5225 C5240 0.960 . S
H5226 C5240 0.960 . S
H5227 C5240 0.960 . S
C5228 H5220 0.929 . S
C5228 C5229 1.377 . S
C5228 C5230 1.384 . S
C5229 C5228 1.377 . S
C5229 C5235 1.390 . S
C5230 H5221 0.930 . S
C5230 C5228 1.384 . S
C5230 C5231 1.372 . S
C5231 C5230 1.372 . S
C5231 C5232 1.400 . S
C5231 C5236 1.490 . S
C5232 H5222 0.930 . S
C5232 C5231 1.400 . S
C5232 C5235 1.386 . S
H5233 C5249 0.930 . S
H5234 C5250 0.931 . S
C5235 H5223 0.929 . S
C5235 C5229 1.390 . S
C5235 C5232 1.386 . S
C5236 C5231 1.490 . S
C5236 C5238 1.395 . S
C5236 C5239 1.403 . S
H5237 C5243 0.930 . S
C5238 H5224 0.930 . S
C5238 C5236 1.395 . S
C5238 C5241 1.403 . S
C5239 C5236 1.403 . S
C5239 C5240 1.524 . S
C5239 C5243 1.400 . S
C5240 H5225 0.960 . S
C5240 H5226 0.960 . S
C5240 H5227 0.960 . S
C5240 C5239 1.524 . S
C5241 C5238 1.403 . S
C5241 C5242 1.392 . S
C5241 C5245 1.495 . S
C5242 C5241 1.392 . S
C5242 C5243 1.385 . S
C5242 C5244 1.478 . S
C5243 H5237 0.930 . S
C5243 C5239 1.400 . S
C5243 C5242 1.385 . S
C5244 C5242 1.478 . S
C5244 C5246 1.381 . S
C5244 C5250 1.383 . S
C5245 C5241 1.495 . S
C5245 H5251 0.959 . S
C5245 H5252 0.961 . S
C5245 H5253 0.960 . S
C5246 C5244 1.381 . S
C5246 C5247 1.394 . S
C5246 H5254 0.930 . S
C5247 C5246 1.394 . S
C5247 C5248 1.383 . S
C5247 H5255 0.929 . S
C5248 C5247 1.383 . S
C5248 C5249 1.377 . S
C5249 H5233 0.930 . S
C5249 C5248 1.377 . S
C5249 C5250 1.379 . S
C5250 H5234 0.931 . S
C5250 C5244 1.383 . S
C5250 C5249 1.379 . S
H5251 C5245 0.959 . S
H5252 C5245 0.961 . S
H5253 C5245 0.960 . S
H5254 C5246 0.930 . S
H5255 C5247 0.929 . S
H5256 C5264 0.929 . S
H5257 C5266 0.930 . S
H5258 C5268 0.928 1_654 S
H5259 C5271 0.929 1_654 S
H5260 C5274 0.930 . S
H5261 C5276 0.960 . S
H5262 C5276 0.960 . S
H5263 C5276 0.960 . S
C5264 H5256 0.929 . S
C5264 C5265 1.377 . S
C5264 C5266 1.384 . S
C5265 C5264 1.377 . S
C5265 C5271 1.390 . S
C5266 H5257 0.930 . S
C5266 C5264 1.384 . S
C5266 C5267 1.372 . S
C5267 C5266 1.372 . S
C5267 C5268 1.400 . S
C5267 C5272 1.490 . S
C5268 H5258 0.928 1_456 S
C5268 C5267 1.400 . S
C5268 C5271 1.386 . S
H5269 C5285 0.963 . S
H5270 C5286 0.931 1_655 S
C5271 H5259 0.929 1_456 S
C5271 C5265 1.390 . S
C5271 C5268 1.386 . S
C5272 C5267 1.490 . S
C5272 C5274 1.395 . S
C5272 C5275 1.403 1_556 S
H5273 C5279 0.930 . S
C5274 H5260 0.930 . S
C5274 C5272 1.395 . S
C5274 C5277 1.403 . S
C5275 C5272 1.403 1_554 S
C5275 C5276 1.524 . S
C5275 C5279 1.400 . S
C5276 H5261 0.960 . S
C5276 H5262 0.960 . S
C5276 H5263 0.960 . S
C5276 C5275 1.524 . S
C5277 C5274 1.403 . S
C5277 C5278 1.392 . S
C5277 C5281 1.478 1_455 S
C5278 C5277 1.392 . S
C5278 C5279 1.385 1_556 S
C5278 C5280 1.478 . S
C5279 H5273 0.930 . S
C5279 C5275 1.400 . S
C5279 C5278 1.385 1_554 S
C5280 C5278 1.478 . S
C5280 C5282 1.381 . S
C5280 C5286 1.383 1_556 S
C5281 C5277 1.478 1_655 S
C5281 H5287 0.966 . S
C5281 H5288 0.998 . S
C5281 H5289 0.936 1_655 S
C5282 C5280 1.381 . S
C5282 C5283 1.394 . S
C5282 H5290 0.930 . S
C5283 C5282 1.394 . S
C5283 C5284 1.383 1_556 S
C5283 H5291 0.929 . S
C5284 C5283 1.383 1_554 S
C5284 C5285 1.377 . S
C5285 H5269 0.963 . S
C5285 C5284 1.377 . S
C5285 C5286 1.379 . S
C5286 H5270 0.931 1_455 S
C5286 C5280 1.383 1_554 S
C5286 C5285 1.379 . S
H5287 C5281 0.966 . S
H5288 C5281 0.998 . S
H5289 C5281 0.936 1_455 S
H5290 C5282 0.930 . S
H5291 C5283 0.929 . S
H5292 C5300 0.929 . S
H5293 C5302 0.930 . S
H5294 C5304 0.930 . S
H5295 C5307 0.929 . S
H5296 C5310 0.930 . S
H5297 C5312 0.960 . S
H5298 C5312 0.960 . S
H5299 C5312 0.960 . S
C5300 H5292 0.929 . S
C5300 C5301 1.377 . S
C5300 C5302 1.384 . S
C5301 C5300 1.377 . S
C5301 C5307 1.390 . S
C5302 H5293 0.930 . S
C5302 C5300 1.384 . S
C5302 C5303 1.372 . S
C5303 C5302 1.372 . S
C5303 C5304 1.400 . S
C5303 C5308 1.490 . S
C5304 H5294 0.930 . S
C5304 C5303 1.400 . S
C5304 C5307 1.386 . S
H5305 C5321 0.930 . S
H5306 C5322 0.931 . S
C5307 H5295 0.929 . S
C5307 C5301 1.390 . S
C5307 C5304 1.386 . S
C5308 C5303 1.490 . S
C5308 C5310 1.395 . S
C5308 C5311 1.403 . S
H5309 C5315 0.930 . S
C5310 H5296 0.930 . S
C5310 C5308 1.395 . S
C5310 C5313 1.403 . S
C5311 C5308 1.403 . S
C5311 C5312 1.524 . S
C5311 C5315 1.400 . S
C5312 H5297 0.960 . S
C5312 H5298 0.960 . S
C5312 H5299 0.960 . S
C5312 C5311 1.524 . S
C5313 C5310 1.403 . S
C5313 C5314 1.392 . S
C5313 C5317 1.495 . S
C5314 C5313 1.392 . S
C5314 C5315 1.385 . S
C5314 C5316 1.478 . S
C5315 H5309 0.930 . S
C5315 C5311 1.400 . S
C5315 C5314 1.385 . S
C5316 C5314 1.478 . S
C5316 C5318 1.381 . S
C5316 C5322 1.383 . S
C5317 C5313 1.495 . S
C5317 H5323 0.959 . S
C5317 H5324 0.961 . S
C5317 H5325 0.960 . S
C5318 C5316 1.381 . S
C5318 C5319 1.394 . S
C5318 H5326 0.930 . S
C5319 C5318 1.394 . S
C5319 C5320 1.383 . S
C5319 H5327 0.929 . S
C5320 C5319 1.383 . S
C5320 C5321 1.377 . S
C5321 H5305 0.930 . S
C5321 C5320 1.377 . S
C5321 C5322 1.379 . S
C5322 H5306 0.931 . S
C5322 C5316 1.383 . S
C5322 C5321 1.379 . S
H5323 C5317 0.959 . S
H5324 C5317 0.961 . S
H5325 C5317 0.960 . S
H5326 C5318 0.930 . S
H5327 C5319 0.929 . S
H5328 C5336 0.929 . S
H5329 C5338 0.930 . S
H5330 C5340 0.930 . S
H5331 C5343 0.929 . S
H5332 C5346 0.930 . S
H5333 C5348 0.960 . S
H5334 C5348 0.960 . S
H5335 C5348 0.960 . S
C5336 H5328 0.929 . S
C5336 C5337 1.377 . S
C5336 C5338 1.384 . S
C5337 C5336 1.377 . S
C5337 C5343 1.390 . S
C5338 H5329 0.930 . S
C5338 C5336 1.384 . S
C5338 C5339 1.372 . S
C5339 C5338 1.372 . S
C5339 C5340 1.400 . S
C5339 C5344 1.490 . S
C5340 H5330 0.930 . S
C5340 C5339 1.400 . S
C5340 C5343 1.386 . S
H5341 C5357 0.930 . S
H5342 C5358 0.931 . S
C5343 H5331 0.929 . S
C5343 C5337 1.390 . S
C5343 C5340 1.386 . S
C5344 C5339 1.490 . S
C5344 C5346 1.395 . S
C5344 C5347 1.403 . S
H5345 C5351 0.930 . S
C5346 H5332 0.930 . S
C5346 C5344 1.395 . S
C5346 C5349 1.403 . S
C5347 C5344 1.403 . S
C5347 C5348 1.524 . S
C5347 C5351 1.400 . S
C5348 H5333 0.960 . S
C5348 H5334 0.960 . S
C5348 H5335 0.960 . S
C5348 C5347 1.524 . S
C5349 C5346 1.403 . S
C5349 C5350 1.392 . S
C5349 C5353 1.495 . S
C5350 C5349 1.392 . S
C5350 C5351 1.385 . S
C5350 C5352 1.478 . S
C5351 H5345 0.930 . S
C5351 C5347 1.400 . S
C5351 C5350 1.385 . S
C5352 C5350 1.478 . S
C5352 C5354 1.381 . S
C5352 C5358 1.383 . S
C5353 C5349 1.495 . S
C5353 H5359 0.959 . S
C5353 H5360 0.961 . S
C5353 H5361 0.960 . S
C5354 C5352 1.381 . S
C5354 C5355 1.394 . S
C5354 H5362 0.930 . S
C5355 C5354 1.394 . S
C5355 C5356 1.383 . S
C5355 H5363 0.929 . S
C5356 C5355 1.383 . S
C5356 C5357 1.377 . S
C5357 H5341 0.930 . S
C5357 C5356 1.377 . S
C5357 C5358 1.379 . S
C5358 H5342 0.931 . S
C5358 C5352 1.383 . S
C5358 C5357 1.379 . S
H5359 C5353 0.959 . S
H5360 C5353 0.961 . S
H5361 C5353 0.960 . S
H5362 C5354 0.930 . S
H5363 C5355 0.929 . S
H5364 C5372 0.929 . S
H5365 C5374 0.930 . S
H5366 C5376 0.930 . S
H5367 C5379 0.929 . S
H5368 C5382 0.930 . S
H5369 C5384 0.960 . S
H5370 C5384 0.960 . S
H5371 C5384 0.960 . S
C5372 H5364 0.929 . S
C5372 C5373 1.377 . S
C5372 C5374 1.384 . S
C5373 C5372 1.377 . S
C5373 C5379 1.390 . S
C5374 H5365 0.930 . S
C5374 C5372 1.384 . S
C5374 C5375 1.372 . S
C5375 C5374 1.372 . S
C5375 C5376 1.400 . S
C5375 C5380 1.490 . S
C5376 H5366 0.930 . S
C5376 C5375 1.400 . S
C5376 C5379 1.386 . S
H5377 C5393 0.930 . S
H5378 C5394 0.931 . S
C5379 H5367 0.929 . S
C5379 C5373 1.390 . S
C5379 C5376 1.386 . S
C5380 C5375 1.490 . S
C5380 C5382 1.395 . S
C5380 C5383 1.403 . S
H5381 C5387 0.930 . S
C5382 H5368 0.930 . S
C5382 C5380 1.395 . S
C5382 C5385 1.403 . S
C5383 C5380 1.403 . S
C5383 C5384 1.524 . S
C5383 C5387 1.400 . S
C5384 H5369 0.960 . S
C5384 H5370 0.960 . S
C5384 H5371 0.960 . S
C5384 C5383 1.524 . S
C5385 C5382 1.403 . S
C5385 C5386 1.392 . S
C5385 C5389 1.495 . S
C5386 C5385 1.392 . S
C5386 C5387 1.385 . S
C5386 C5388 1.478 . S
C5387 H5381 0.930 . S
C5387 C5383 1.400 . S
C5387 C5386 1.385 . S
C5388 C5386 1.478 . S
C5388 C5390 1.381 . S
C5388 C5394 1.383 . S
C5389 C5385 1.495 . S
C5389 H5395 0.959 . S
C5389 H5396 0.961 . S
C5389 H5397 0.960 . S
C5390 C5388 1.381 . S
C5390 C5391 1.394 . S
C5390 H5398 0.930 . S
C5391 C5390 1.394 . S
C5391 C5392 1.383 . S
C5391 H5399 0.929 . S
C5392 C5391 1.383 . S
C5392 C5393 1.377 . S
C5393 H5377 0.930 . S
C5393 C5392 1.377 . S
C5393 C5394 1.379 . S
C5394 H5378 0.931 . S
C5394 C5388 1.383 . S
C5394 C5393 1.379 . S
H5395 C5389 0.959 . S
H5396 C5389 0.961 . S
H5397 C5389 0.960 . S
H5398 C5390 0.930 . S
H5399 C5391 0.929 . S
H5400 C5408 0.929 . S
H5401 C5410 0.930 . S
H5402 C5412 0.930 . S
H5403 C5415 0.929 . S
H5404 C5418 0.930 . S
H5405 C5420 0.960 . S
H5406 C5420 0.960 . S
H5407 C5420 0.960 . S
C5408 H5400 0.929 . S
C5408 C5409 1.377 1_655 S
C5408 C5410 1.384 . S
C5409 C5408 1.377 1_455 S
C5409 C5415 1.390 . S
C5410 H5401 0.930 . S
C5410 C5408 1.384 . S
C5410 C5411 1.372 1_655 S
C5411 C5410 1.372 1_455 S
C5411 C5412 1.400 . S
C5411 C5416 1.490 . S
C5412 H5402 0.930 . S
C5412 C5411 1.400 . S
C5412 C5415 1.386 . S
H5413 C5429 0.930 . S
H5414 C5430 0.931 . S
C5415 H5403 0.929 . S
C5415 C5409 1.390 . S
C5415 C5412 1.386 . S
C5416 C5411 1.490 . S
C5416 C5418 1.395 1_455 S
C5416 C5419 1.403 . S
H5417 C5423 0.930 . S
C5418 H5404 0.930 . S
C5418 C5416 1.395 1_655 S
C5418 C5421 1.403 . S
C5419 C5416 1.403 . S
C5419 C5420 1.524 . S
C5419 C5423 1.400 . S
C5420 H5405 0.960 . S
C5420 H5406 0.960 . S
C5420 H5407 0.960 . S
C5420 C5419 1.524 . S
C5421 C5418 1.403 . S
C5421 C5422 1.392 1_655 S
C5421 C5425 1.495 . S
C5422 C5421 1.392 1_455 S
C5422 C5423 1.385 . S
C5422 C5424 1.478 . S
C5423 H5417 0.930 . S
C5423 C5419 1.400 . S
C5423 C5422 1.385 . S
C5424 C5422 1.478 . S
C5424 C5426 1.381 1_455 S
C5424 C5430 1.383 . S
C5425 C5421 1.495 . S
C5425 H5431 0.959 . S
C5425 H5432 0.961 . S
C5425 H5433 0.960 . S
C5426 C5424 1.381 1_655 S
C5426 C5427 1.394 1_655 S
C5426 H5434 0.930 . S
C5427 C5426 1.394 1_455 S
C5427 C5428 1.384 . S
C5427 H5435 0.929 1_455 S
C5428 C5427 1.384 . S
C5428 C5429 1.377 . S
C5429 H5413 0.930 . S
C5429 C5428 1.377 . S
C5429 C5430 1.379 . S
C5430 H5414 0.931 . S
C5430 C5424 1.383 . S
C5430 C5429 1.379 . S
H5431 C5425 0.959 . S
H5432 C5425 0.961 . S
H5433 C5425 0.960 . S
H5434 C5426 0.930 . S
H5435 C5427 0.929 1_655 S
H5436 C5444 0.929 . S
H5437 C5446 0.930 . S
H5438 C5448 0.930 . S
H5439 C5451 0.929 . S
H5440 C5454 0.930 . S
H5441 C5456 0.960 . S
H5442 C5456 0.960 . S
H5443 C5456 0.960 . S
C5444 H5436 0.929 . S
C5444 C5445 1.377 . S
C5444 C5446 1.384 . S
C5445 C5444 1.377 . S
C5445 C5451 1.390 . S
C5446 H5437 0.930 . S
C5446 C5444 1.384 . S
C5446 C5447 1.372 . S
C5447 C5446 1.372 . S
C5447 C5448 1.400 . S
C5447 C5452 1.490 . S
C5448 H5438 0.930 . S
C5448 C5447 1.400 . S
C5448 C5451 1.386 . S
H5449 C5465 0.930 . S
H5450 C5466 0.931 . S
C5451 H5439 0.929 . S
C5451 C5445 1.390 . S
C5451 C5448 1.386 . S
C5452 C5447 1.490 . S
C5452 C5454 1.395 . S
C5452 C5455 1.403 . S
H5453 C5459 0.930 . S
C5454 H5440 0.930 . S
C5454 C5452 1.395 . S
C5454 C5457 1.403 . S
C5455 C5452 1.403 . S
C5455 C5456 1.524 . S
C5455 C5459 1.400 . S
C5456 H5441 0.960 . S
C5456 H5442 0.960 . S
C5456 H5443 0.960 . S
C5456 C5455 1.524 . S
C5457 C5454 1.403 . S
C5457 C5458 1.392 . S
C5457 C5461 1.495 . S
C5458 C5457 1.392 . S
C5458 C5459 1.385 . S
C5458 C5460 1.478 . S
C5459 H5453 0.930 . S
C5459 C5455 1.400 . S
C5459 C5458 1.385 . S
C5460 C5458 1.478 . S
C5460 C5462 1.381 . S
C5460 C5466 1.383 . S
C5461 C5457 1.495 . S
C5461 H5467 0.959 . S
C5461 H5468 0.961 . S
C5461 H5469 0.960 . S
C5462 C5460 1.381 . S
C5462 C5463 1.394 . S
C5462 H5470 0.930 . S
C5463 C5462 1.394 . S
C5463 C5464 1.383 . S
C5463 H5471 0.929 . S
C5464 C5463 1.383 . S
C5464 C5465 1.377 . S
C5465 H5449 0.930 . S
C5465 C5464 1.377 . S
C5465 C5466 1.379 . S
C5466 H5450 0.931 . S
C5466 C5460 1.383 . S
C5466 C5465 1.379 . S
H5467 C5461 0.959 . S
H5468 C5461 0.961 . S
H5469 C5461 0.960 . S
H5470 C5462 0.930 . S
H5471 C5463 0.929 . S
H5472 C5480 0.929 . S
H5473 C5482 0.930 . S
H5474 C5484 0.930 . S
H5475 C5487 0.929 . S
H5476 C5490 0.930 . S
H5477 C5492 0.960 . S
H5478 C5492 0.960 . S
H5479 C5492 0.960 . S
C5480 H5472 0.929 . S
C5480 C5481 1.377 . S
C5480 C5482 1.384 . S
C5481 C5480 1.377 . S
C5481 C5487 1.390 . S
C5482 H5473 0.930 . S
C5482 C5480 1.384 . S
C5482 C5483 1.372 . S
C5483 C5482 1.372 . S
C5483 C5484 1.400 . S
C5483 C5488 1.490 . S
C5484 H5474 0.930 . S
C5484 C5483 1.400 . S
C5484 C5487 1.386 . S
H5485 C5501 0.930 . S
H5486 C5502 0.931 . S
C5487 H5475 0.929 . S
C5487 C5481 1.390 . S
C5487 C5484 1.386 . S
C5488 C5483 1.490 . S
C5488 C5490 1.395 . S
C5488 C5491 1.403 . S
H5489 C5495 0.930 . S
C5490 H5476 0.930 . S
C5490 C5488 1.395 . S
C5490 C5493 1.403 . S
C5491 C5488 1.403 . S
C5491 C5492 1.524 . S
C5491 C5495 1.400 . S
C5492 H5477 0.960 . S
C5492 H5478 0.960 . S
C5492 H5479 0.960 . S
C5492 C5491 1.524 . S
C5493 C5490 1.403 . S
C5493 C5494 1.392 . S
C5493 C5497 1.495 . S
C5494 C5493 1.392 . S
C5494 C5495 1.385 . S
C5494 C5496 1.478 . S
C5495 H5489 0.930 . S
C5495 C5491 1.400 . S
C5495 C5494 1.385 . S
C5496 C5494 1.478 . S
C5496 C5498 1.381 . S
C5496 C5502 1.383 . S
C5497 C5493 1.495 . S
C5497 H5503 0.959 . S
C5497 H5504 0.961 . S
C5497 H5505 0.960 . S
C5498 C5496 1.381 . S
C5498 C5499 1.394 . S
C5498 H5506 0.930 . S
C5499 C5498 1.394 . S
C5499 C5500 1.383 . S
C5499 H5507 0.929 . S
C5500 C5499 1.383 . S
C5500 C5501 1.377 . S
C5501 H5485 0.930 . S
C5501 C5500 1.377 . S
C5501 C5502 1.379 . S
C5502 H5486 0.931 . S
C5502 C5496 1.383 . S
C5502 C5501 1.379 . S
H5503 C5497 0.959 . S
H5504 C5497 0.961 . S
H5505 C5497 0.960 . S
H5506 C5498 0.930 . S
H5507 C5499 0.929 . S
H5508 C5516 0.929 . S
H5509 C5518 0.930 . S
H5510 C5520 0.930 . S
H5511 C5523 0.929 . S
H5512 C5526 0.930 . S
H5513 C5528 0.960 . S
H5514 C5528 0.960 . S
H5515 C5528 0.960 . S
C5516 H5508 0.929 . S
C5516 C5517 1.377 . S
C5516 C5518 1.384 . S
C5517 C5516 1.377 . S
C5517 C5523 1.390 . S
C5518 H5509 0.930 . S
C5518 C5516 1.384 . S
C5518 C5519 1.372 . S
C5519 C5518 1.372 . S
C5519 C5520 1.400 . S
C5519 C5524 1.490 . S
C5520 H5510 0.930 . S
C5520 C5519 1.400 . S
C5520 C5523 1.386 . S
H5521 C5537 0.930 . S
H5522 C5538 0.931 . S
C5523 H5511 0.929 . S
C5523 C5517 1.390 . S
C5523 C5520 1.386 . S
C5524 C5519 1.490 . S
C5524 C5526 1.395 . S
C5524 C5527 1.403 . S
H5525 C5531 0.930 . S
C5526 H5512 0.930 . S
C5526 C5524 1.395 . S
C5526 C5529 1.403 . S
C5527 C5524 1.403 . S
C5527 C5528 1.524 . S
C5527 C5531 1.400 . S
C5528 H5513 0.960 . S
C5528 H5514 0.960 . S
C5528 H5515 0.960 . S
C5528 C5527 1.524 . S
C5529 C5526 1.403 . S
C5529 C5530 1.392 . S
C5529 C5533 1.495 . S
C5530 C5529 1.392 . S
C5530 C5531 1.385 . S
C5530 C5532 1.478 . S
C5531 H5525 0.930 . S
C5531 C5527 1.400 . S
C5531 C5530 1.385 . S
C5532 C5530 1.478 . S
C5532 C5534 1.381 . S
C5532 C5538 1.383 . S
C5533 C5529 1.495 . S
C5533 H5539 0.959 . S
C5533 H5540 0.961 . S
C5533 H5541 0.960 . S
C5534 C5532 1.381 . S
C5534 C5535 1.394 . S
C5534 H5542 0.930 . S
C5535 C5534 1.394 . S
C5535 C5536 1.383 . S
C5535 H5543 0.929 . S
C5536 C5535 1.383 . S
C5536 C5537 1.377 . S
C5537 H5521 0.930 . S
C5537 C5536 1.377 . S
C5537 C5538 1.379 . S
C5538 H5522 0.931 . S
C5538 C5532 1.383 . S
C5538 C5537 1.379 . S
H5539 C5533 0.959 . S
H5540 C5533 0.961 . S
H5541 C5533 0.960 . S
H5542 C5534 0.930 . S
H5543 C5535 0.929 . S
H5544 C5552 0.929 . S
H5545 C5554 0.930 . S
H5546 C5556 0.930 . S
H5547 C5559 0.929 . S
H5548 C5562 0.930 . S
H5549 C5564 0.960 . S
H5550 C5564 0.960 . S
H5551 C5564 0.960 . S
C5552 H5544 0.929 . S
C5552 C5553 1.377 . S
C5552 C5554 1.384 . S
C5553 C5552 1.377 . S
C5553 C5559 1.390 . S
C5554 H5545 0.930 . S
C5554 C5552 1.384 . S
C5554 C5555 1.372 . S
C5555 C5554 1.372 . S
C5555 C5556 1.400 . S
C5555 C5560 1.490 . S
C5556 H5546 0.930 . S
C5556 C5555 1.400 . S
C5556 C5559 1.386 . S
H5557 C5573 0.930 . S
H5558 C5574 0.931 . S
C5559 H5547 0.929 . S
C5559 C5553 1.390 . S
C5559 C5556 1.386 . S
C5560 C5555 1.490 . S
C5560 C5562 1.395 . S
C5560 C5563 1.403 . S
H5561 C5567 0.930 . S
C5562 H5548 0.930 . S
C5562 C5560 1.395 . S
C5562 C5565 1.403 . S
C5563 C5560 1.403 . S
C5563 C5564 1.524 . S
C5563 C5567 1.400 . S
C5564 H5549 0.960 . S
C5564 H5550 0.960 . S
C5564 H5551 0.960 . S
C5564 C5563 1.524 . S
C5565 C5562 1.403 . S
C5565 C5566 1.392 . S
C5565 C5569 1.495 . S
C5566 C5565 1.392 . S
C5566 C5567 1.385 . S
C5566 C5568 1.478 . S
C5567 H5561 0.930 . S
C5567 C5563 1.400 . S
C5567 C5566 1.385 . S
C5568 C5566 1.478 . S
C5568 C5570 1.381 . S
C5568 C5574 1.383 . S
C5569 C5565 1.495 . S
C5569 H5575 0.959 . S
C5569 H5576 0.961 . S
C5569 H5577 0.960 . S
C5570 C5568 1.381 . S
C5570 C5571 1.394 . S
C5570 H5578 0.930 . S
C5571 C5570 1.394 . S
C5571 C5572 1.383 . S
C5571 H5579 0.929 . S
C5572 C5571 1.383 . S
C5572 C5573 1.377 . S
C5573 H5557 0.930 . S
C5573 C5572 1.377 . S
C5573 C5574 1.379 . S
C5574 H5558 0.931 . S
C5574 C5568 1.383 . S
C5574 C5573 1.379 . S
H5575 C5569 0.959 . S
H5576 C5569 0.961 . S
H5577 C5569 0.960 . S
H5578 C5570 0.930 . S
H5579 C5571 0.929 . S
H5580 C5588 0.929 . S
H5581 C5590 0.930 . S
H5582 C5592 0.930 . S
H5583 C5595 0.929 . S
H5584 C5598 0.930 . S
H5585 C5600 0.960 . S
H5586 C5600 0.960 . S
H5587 C5600 0.960 . S
C5588 H5580 0.929 . S
C5588 C5589 1.377 . S
C5588 C5590 1.384 . S
C5589 C5588 1.377 . S
C5589 C5595 1.390 . S
C5590 H5581 0.930 . S
C5590 C5588 1.384 . S
C5590 C5591 1.372 . S
C5591 C5590 1.372 . S
C5591 C5592 1.400 . S
C5591 C5596 1.490 . S
C5592 H5582 0.930 . S
C5592 C5591 1.400 . S
C5592 C5595 1.386 . S
H5593 C5609 0.930 . S
H5594 C5610 0.931 . S
C5595 H5583 0.929 . S
C5595 C5589 1.390 . S
C5595 C5592 1.386 . S
C5596 C5591 1.490 . S
C5596 C5598 1.395 . S
C5596 C5599 1.403 . S
H5597 C5603 0.930 . S
C5598 H5584 0.930 . S
C5598 C5596 1.395 . S
C5598 C5601 1.403 . S
C5599 C5596 1.403 . S
C5599 C5600 1.524 . S
C5599 C5603 1.400 . S
C5600 H5585 0.960 . S
C5600 H5586 0.960 . S
C5600 H5587 0.960 . S
C5600 C5599 1.524 . S
C5601 C5598 1.403 . S
C5601 C5602 1.392 . S
C5601 C5605 1.495 . S
C5602 C5601 1.392 . S
C5602 C5603 1.385 . S
C5602 C5604 1.478 . S
C5603 H5597 0.930 . S
C5603 C5599 1.400 . S
C5603 C5602 1.385 . S
C5604 C5602 1.478 . S
C5604 C5606 1.381 . S
C5604 C5610 1.383 . S
C5605 C5601 1.495 . S
C5605 H5611 0.959 . S
C5605 H5612 0.961 . S
C5605 H5613 0.960 . S
C5606 C5604 1.381 . S
C5606 C5607 1.394 . S
C5606 H5614 0.930 . S
C5607 C5606 1.394 . S
C5607 C5608 1.383 . S
C5607 H5615 0.929 . S
C5608 C5607 1.383 . S
C5608 C5609 1.377 . S
C5609 H5593 0.930 . S
C5609 C5608 1.377 . S
C5609 C5610 1.379 . S
C5610 H5594 0.931 . S
C5610 C5604 1.383 . S
C5610 C5609 1.379 . S
H5611 C5605 0.959 . S
H5612 C5605 0.961 . S
H5613 C5605 0.960 . S
H5614 C5606 0.930 . S
H5615 C5607 0.929 . S
H5616 C5624 0.929 . S
H5617 C5626 0.930 . S
H5618 C5628 0.930 . S
H5619 C5631 0.929 . S
H5620 C5634 0.930 . S
H5621 C5636 0.960 . S
H5622 C5636 0.960 . S
H5623 C5636 0.960 . S
C5624 H5616 0.929 . S
C5624 C5625 1.377 . S
C5624 C5626 1.384 . S
C5625 C5624 1.377 . S
C5625 C5631 1.390 . S
C5626 H5617 0.930 . S
C5626 C5624 1.384 . S
C5626 C5627 1.372 . S
C5627 C5626 1.372 . S
C5627 C5628 1.400 . S
C5627 C5632 1.490 . S
C5628 H5618 0.930 . S
C5628 C5627 1.400 . S
C5628 C5631 1.386 . S
H5629 C5645 0.930 . S
H5630 C5646 0.931 . S
C5631 H5619 0.929 . S
C5631 C5625 1.390 . S
C5631 C5628 1.386 . S
C5632 C5627 1.490 . S
C5632 C5634 1.395 . S
C5632 C5635 1.403 . S
H5633 C5639 0.930 . S
C5634 H5620 0.930 . S
C5634 C5632 1.395 . S
C5634 C5637 1.403 . S
C5635 C5632 1.403 . S
C5635 C5636 1.524 . S
C5635 C5639 1.400 . S
C5636 H5621 0.960 . S
C5636 H5622 0.960 . S
C5636 H5623 0.960 . S
C5636 C5635 1.524 . S
C5637 C5634 1.403 . S
C5637 C5638 1.392 . S
C5637 C5641 1.495 . S
C5638 C5637 1.392 . S
C5638 C5639 1.385 . S
C5638 C5640 1.478 . S
C5639 H5633 0.930 . S
C5639 C5635 1.400 . S
C5639 C5638 1.385 . S
C5640 C5638 1.478 . S
C5640 C5642 1.381 . S
C5640 C5646 1.383 . S
C5641 C5637 1.495 . S
C5641 H5647 0.959 . S
C5641 H5648 0.961 . S
C5641 H5649 0.960 . S
C5642 C5640 1.381 . S
C5642 C5643 1.394 . S
C5642 H5650 0.930 . S
C5643 C5642 1.394 . S
C5643 C5644 1.383 . S
C5643 H5651 0.929 . S
C5644 C5643 1.383 . S
C5644 C5645 1.377 . S
C5645 H5629 0.930 . S
C5645 C5644 1.377 . S
C5645 C5646 1.379 . S
C5646 H5630 0.931 . S
C5646 C5640 1.383 . S
C5646 C5645 1.379 . S
H5647 C5641 0.959 . S
H5648 C5641 0.961 . S
H5649 C5641 0.960 . S
H5650 C5642 0.930 . S
H5651 C5643 0.929 . S
H5652 C5660 0.929 . S
H5653 C5662 0.930 . S
H5654 C5664 0.930 . S
H5655 C5667 0.929 . S
H5656 C5670 0.930 . S
H5657 C5672 0.960 . S
H5658 C5672 0.960 . S
H5659 C5672 0.960 . S
C5660 H5652 0.929 . S
C5660 C5661 1.377 . S
C5660 C5662 1.384 . S
C5661 C5660 1.377 . S
C5661 C5667 1.390 . S
C5662 H5653 0.930 . S
C5662 C5660 1.384 . S
C5662 C5663 1.372 . S
C5663 C5662 1.372 . S
C5663 C5664 1.400 . S
C5663 C5668 1.490 . S
C5664 H5654 0.930 . S
C5664 C5663 1.400 . S
C5664 C5667 1.386 . S
H5665 C5681 0.930 . S
H5666 C5682 0.931 . S
C5667 H5655 0.929 . S
C5667 C5661 1.390 . S
C5667 C5664 1.386 . S
C5668 C5663 1.490 . S
C5668 C5670 1.395 . S
C5668 C5671 1.403 . S
H5669 C5675 0.930 . S
C5670 H5656 0.930 . S
C5670 C5668 1.395 . S
C5670 C5673 1.403 . S
C5671 C5668 1.403 . S
C5671 C5672 1.524 . S
C5671 C5675 1.400 . S
C5672 H5657 0.960 . S
C5672 H5658 0.960 . S
C5672 H5659 0.960 . S
C5672 C5671 1.524 . S
C5673 C5670 1.403 . S
C5673 C5674 1.392 . S
C5673 C5677 1.495 . S
C5674 C5673 1.392 . S
C5674 C5675 1.385 . S
C5674 C5676 1.478 . S
C5675 H5669 0.930 . S
C5675 C5671 1.400 . S
C5675 C5674 1.385 . S
C5676 C5674 1.478 . S
C5676 C5678 1.381 . S
C5676 C5682 1.383 . S
C5677 C5673 1.495 . S
C5677 H5683 0.959 . S
C5677 H5684 0.961 . S
C5677 H5685 0.960 . S
C5678 C5676 1.381 . S
C5678 C5679 1.394 . S
C5678 H5686 0.930 . S
C5679 C5678 1.394 . S
C5679 C5680 1.383 . S
C5679 H5687 0.929 . S
C5680 C5679 1.383 . S
C5680 C5681 1.377 . S
C5681 H5665 0.930 . S
C5681 C5680 1.377 . S
C5681 C5682 1.379 . S
C5682 H5666 0.931 . S
C5682 C5676 1.383 . S
C5682 C5681 1.379 . S
H5683 C5677 0.959 . S
H5684 C5677 0.961 . S
H5685 C5677 0.960 . S
H5686 C5678 0.930 . S
H5687 C5679 0.929 . S
H5688 C5696 0.929 . S
H5689 C5698 0.930 . S
H5690 C5700 0.930 . S
H5691 C5703 0.929 . S
H5692 C5706 0.930 . S
H5693 C5708 0.960 . S
H5694 C5708 0.960 . S
H5695 C5708 0.960 . S
C5696 H5688 0.929 . S
C5696 C5697 1.377 . S
C5696 C5698 1.384 . S
C5697 C5696 1.377 . S
C5697 C5703 1.390 . S
C5698 H5689 0.930 . S
C5698 C5696 1.384 . S
C5698 C5699 1.372 . S
C5699 C5698 1.372 . S
C5699 C5700 1.400 . S
C5699 C5704 1.490 . S
C5700 H5690 0.930 . S
C5700 C5699 1.400 . S
C5700 C5703 1.386 . S
H5701 C5717 0.930 . S
H5702 C5718 0.931 . S
C5703 H5691 0.929 . S
C5703 C5697 1.390 . S
C5703 C5700 1.386 . S
C5704 C5699 1.490 . S
C5704 C5706 1.395 . S
C5704 C5707 1.403 . S
H5705 C5711 0.930 . S
C5706 H5692 0.930 . S
C5706 C5704 1.395 . S
C5706 C5709 1.403 . S
C5707 C5704 1.403 . S
C5707 C5708 1.524 . S
C5707 C5711 1.400 . S
C5708 H5693 0.960 . S
C5708 H5694 0.960 . S
C5708 H5695 0.960 . S
C5708 C5707 1.524 . S
C5709 C5706 1.403 . S
C5709 C5710 1.392 . S
C5709 C5713 1.495 . S
C5710 C5709 1.392 . S
C5710 C5711 1.385 . S
C5710 C5712 1.478 . S
C5711 H5705 0.930 . S
C5711 C5707 1.400 . S
C5711 C5710 1.385 . S
C5712 C5710 1.478 . S
C5712 C5714 1.381 . S
C5712 C5718 1.383 . S
C5713 C5709 1.495 . S
C5713 H5719 0.959 . S
C5713 H5720 0.961 . S
C5713 H5721 0.960 . S
C5714 C5712 1.381 . S
C5714 C5715 1.394 . S
C5714 H5722 0.930 . S
C5715 C5714 1.394 . S
C5715 C5716 1.383 . S
C5715 H5723 0.929 . S
C5716 C5715 1.383 . S
C5716 C5717 1.377 . S
C5717 H5701 0.930 . S
C5717 C5716 1.377 . S
C5717 C5718 1.379 . S
C5718 H5702 0.931 . S
C5718 C5712 1.383 . S
C5718 C5717 1.379 . S
H5719 C5713 0.959 . S
H5720 C5713 0.961 . S
H5721 C5713 0.960 . S
H5722 C5714 0.930 . S
H5723 C5715 0.929 . S
H5724 C5732 0.929 . S
H5725 C5734 0.930 . S
H5726 C5736 0.930 . S
H5727 C5739 0.929 . S
H5728 C5742 0.930 . S
H5729 C5744 0.960 . S
H5730 C5744 0.960 . S
H5731 C5744 0.960 . S
C5732 H5724 0.929 . S
C5732 C5733 1.377 . S
C5732 C5734 1.384 . S
C5733 C5732 1.377 . S
C5733 C5739 1.390 . S
C5734 H5725 0.930 . S
C5734 C5732 1.384 . S
C5734 C5735 1.372 . S
C5735 C5734 1.372 . S
C5735 C5736 1.400 . S
C5735 C5740 1.490 . S
C5736 H5726 0.930 . S
C5736 C5735 1.400 . S
C5736 C5739 1.386 . S
H5737 C5753 0.930 . S
H5738 C5754 0.931 . S
C5739 H5727 0.929 . S
C5739 C5733 1.390 . S
C5739 C5736 1.386 . S
C5740 C5735 1.490 . S
C5740 C5742 1.395 . S
C5740 C5743 1.403 . S
H5741 C5747 0.930 . S
C5742 H5728 0.930 . S
C5742 C5740 1.395 . S
C5742 C5745 1.403 . S
C5743 C5740 1.403 . S
C5743 C5744 1.524 . S
C5743 C5747 1.400 . S
C5744 H5729 0.960 . S
C5744 H5730 0.960 . S
C5744 H5731 0.960 . S
C5744 C5743 1.524 . S
C5745 C5742 1.403 . S
C5745 C5746 1.392 . S
C5745 C5749 1.495 . S
C5746 C5745 1.392 . S
C5746 C5747 1.385 . S
C5746 C5748 1.478 . S
C5747 H5741 0.930 . S
C5747 C5743 1.400 . S
C5747 C5746 1.385 . S
C5748 C5746 1.478 . S
C5748 C5750 1.381 . S
C5748 C5754 1.383 . S
C5749 C5745 1.495 . S
C5749 H5755 0.959 . S
C5749 H5756 0.961 . S
C5749 H5757 0.960 . S
C5750 C5748 1.381 . S
C5750 C5751 1.394 . S
C5750 H5758 0.930 . S
C5751 C5750 1.394 . S
C5751 C5752 1.383 . S
C5751 H5759 0.929 . S
C5752 C5751 1.383 . S
C5752 C5753 1.377 . S
C5753 H5737 0.930 . S
C5753 C5752 1.377 . S
C5753 C5754 1.379 . S
C5754 H5738 0.931 . S
C5754 C5748 1.383 . S
C5754 C5753 1.379 . S
H5755 C5749 0.959 . S
H5756 C5749 0.961 . S
H5757 C5749 0.960 . S
H5758 C5750 0.930 . S
H5759 C5751 0.929 . S
H5760 C5768 0.929 . S
H5761 C5770 0.930 . S
H5762 C5772 0.930 . S
H5763 C5775 0.929 . S
H5764 C5778 0.930 . S
H5765 C5780 0.960 . S
H5766 C5780 0.960 . S
H5767 C5780 0.960 . S
C5768 H5760 0.929 . S
C5768 C5769 1.377 . S
C5768 C5770 1.384 . S
C5769 C5768 1.377 . S
C5769 C5775 1.390 . S
C5770 H5761 0.930 . S
C5770 C5768 1.384 . S
C5770 C5771 1.372 . S
C5771 C5770 1.372 . S
C5771 C5772 1.400 . S
C5771 C5776 1.490 . S
C5772 H5762 0.930 . S
C5772 C5771 1.400 . S
C5772 C5775 1.386 . S
H5773 C5789 0.930 . S
H5774 C5790 0.931 . S
C5775 H5763 0.929 . S
C5775 C5769 1.390 . S
C5775 C5772 1.386 . S
C5776 C5771 1.490 . S
C5776 C5778 1.395 . S
C5776 C5779 1.403 . S
H5777 C5783 0.930 . S
C5778 H5764 0.930 . S
C5778 C5776 1.395 . S
C5778 C5781 1.403 . S
C5779 C5776 1.403 . S
C5779 C5780 1.524 . S
C5779 C5783 1.400 . S
C5780 H5765 0.960 . S
C5780 H5766 0.960 . S
C5780 H5767 0.960 . S
C5780 C5779 1.524 . S
C5781 C5778 1.403 . S
C5781 C5782 1.392 . S
C5781 C5785 1.495 . S
C5782 C5781 1.392 . S
C5782 C5783 1.385 . S
C5782 C5784 1.478 . S
C5783 H5777 0.930 . S
C5783 C5779 1.400 . S
C5783 C5782 1.385 . S
C5784 C5782 1.478 . S
C5784 C5786 1.381 . S
C5784 C5790 1.383 . S
C5785 C5781 1.495 . S
C5785 H5791 0.959 . S
C5785 H5792 0.961 . S
C5785 H5793 0.960 . S
C5786 C5784 1.381 . S
C5786 C5787 1.394 . S
C5786 H5794 0.930 . S
C5787 C5786 1.394 . S
C5787 C5788 1.383 . S
C5787 H5795 0.929 . S
C5788 C5787 1.383 . S
C5788 C5789 1.377 . S
C5789 H5773 0.930 . S
C5789 C5788 1.377 . S
C5789 C5790 1.379 . S
C5790 H5774 0.931 . S
C5790 C5784 1.383 . S
C5790 C5789 1.379 . S
H5791 C5785 0.959 . S
H5792 C5785 0.961 . S
H5793 C5785 0.960 . S
H5794 C5786 0.930 . S
H5795 C5787 0.929 . S
H5796 C5804 0.929 . S
H5797 C5806 0.930 . S
H5798 C5808 0.930 . S
H5799 C5811 0.929 . S
H5800 C5814 0.930 . S
H5801 C5816 0.960 . S
H5802 C5816 0.960 . S
H5803 C5816 0.960 . S
C5804 H5796 0.929 . S
C5804 C5805 1.377 . S
C5804 C5806 1.384 . S
C5805 C5804 1.377 . S
C5805 C5811 1.390 . S
C5806 H5797 0.930 . S
C5806 C5804 1.384 . S
C5806 C5807 1.372 . S
C5807 C5806 1.372 . S
C5807 C5808 1.400 . S
C5807 C5812 1.490 . S
C5808 H5798 0.930 . S
C5808 C5807 1.400 . S
C5808 C5811 1.386 . S
H5809 C5825 0.930 . S
H5810 C5826 0.931 . S
C5811 H5799 0.929 . S
C5811 C5805 1.390 . S
C5811 C5808 1.386 . S
C5812 C5807 1.490 . S
C5812 C5814 1.395 . S
C5812 C5815 1.403 . S
H5813 C5819 0.930 . S
C5814 H5800 0.930 . S
C5814 C5812 1.395 . S
C5814 C5817 1.403 . S
C5815 C5812 1.403 . S
C5815 C5816 1.524 . S
C5815 C5819 1.400 . S
C5816 H5801 0.960 . S
C5816 H5802 0.960 . S
C5816 H5803 0.960 . S
C5816 C5815 1.524 . S
C5817 C5814 1.403 . S
C5817 C5818 1.392 . S
C5817 C5821 1.495 . S
C5818 C5817 1.392 . S
C5818 C5819 1.385 . S
C5818 C5820 1.478 . S
C5819 H5813 0.930 . S
C5819 C5815 1.400 . S
C5819 C5818 1.385 . S
C5820 C5818 1.478 . S
C5820 C5822 1.381 . S
C5820 C5826 1.383 . S
C5821 C5817 1.495 . S
C5821 H5827 0.959 . S
C5821 H5828 0.961 . S
C5821 H5829 0.960 . S
C5822 C5820 1.381 . S
C5822 C5823 1.394 . S
C5822 H5830 0.930 . S
C5823 C5822 1.394 . S
C5823 C5824 1.383 . S
C5823 H5831 0.929 . S
C5824 C5823 1.383 . S
C5824 C5825 1.377 . S
C5825 H5809 0.930 . S
C5825 C5824 1.377 . S
C5825 C5826 1.379 . S
C5826 H5810 0.931 . S
C5826 C5820 1.383 . S
C5826 C5825 1.379 . S
H5827 C5821 0.959 . S
H5828 C5821 0.961 . S
H5829 C5821 0.960 . S
H5830 C5822 0.930 . S
H5831 C5823 0.929 . S
H5832 C5840 0.929 . S
H5833 C5842 0.930 . S
H5834 C5844 0.930 . S
H5835 C5847 0.929 . S
H5836 C5850 0.930 . S
H5837 C5852 0.960 . S
H5838 C5852 0.960 . S
H5839 C5852 0.960 . S
C5840 H5832 0.929 . S
C5840 C5841 1.377 . S
C5840 C5842 1.384 . S
C5841 C5840 1.377 . S
C5841 C5847 1.390 . S
C5842 H5833 0.930 . S
C5842 C5840 1.384 . S
C5842 C5843 1.372 . S
C5843 C5842 1.372 . S
C5843 C5844 1.400 . S
C5843 C5848 1.490 . S
C5844 H5834 0.930 . S
C5844 C5843 1.400 . S
C5844 C5847 1.386 . S
H5845 C5861 0.930 . S
H5846 C5862 0.931 . S
C5847 H5835 0.929 . S
C5847 C5841 1.390 . S
C5847 C5844 1.386 . S
C5848 C5843 1.490 . S
C5848 C5850 1.395 . S
C5848 C5851 1.403 . S
H5849 C5855 0.930 . S
C5850 H5836 0.930 . S
C5850 C5848 1.395 . S
C5850 C5853 1.403 . S
C5851 C5848 1.403 . S
C5851 C5852 1.524 . S
C5851 C5855 1.400 . S
C5852 H5837 0.960 . S
C5852 H5838 0.960 . S
C5852 H5839 0.960 . S
C5852 C5851 1.524 . S
C5853 C5850 1.403 . S
C5853 C5854 1.392 . S
C5853 C5857 1.495 . S
C5854 C5853 1.392 . S
C5854 C5855 1.385 . S
C5854 C5856 1.478 . S
C5855 H5849 0.930 . S
C5855 C5851 1.400 . S
C5855 C5854 1.385 . S
C5856 C5854 1.478 . S
C5856 C5858 1.381 . S
C5856 C5862 1.383 . S
C5857 C5853 1.495 . S
C5857 H5863 0.959 . S
C5857 H5864 0.961 . S
C5857 H5865 0.960 . S
C5858 C5856 1.381 . S
C5858 C5859 1.394 . S
C5858 H5866 0.930 . S
C5859 C5858 1.394 . S
C5859 C5860 1.383 . S
C5859 H5867 0.929 . S
C5860 C5859 1.383 . S
C5860 C5861 1.377 . S
C5861 H5845 0.930 . S
C5861 C5860 1.377 . S
C5861 C5862 1.379 . S
C5862 H5846 0.931 . S
C5862 C5856 1.383 . S
C5862 C5861 1.379 . S
H5863 C5857 0.959 . S
H5864 C5857 0.961 . S
H5865 C5857 0.960 . S
H5866 C5858 0.930 . S
H5867 C5859 0.929 . S
H5868 C5876 0.929 . S
H5869 C5878 0.930 . S
H5870 C5880 0.930 . S
H5871 C5883 0.929 . S
H5872 C5886 0.930 1_545 S
H5873 C5888 0.960 . S
H5874 C5888 0.960 1_556 S
H5875 C5888 0.960 . S
C5876 H5868 0.929 . S
C5876 C5877 1.377 1_556 S
C5876 C5878 1.384 . S
C5877 C5876 1.377 1_554 S
C5877 C5883 1.390 . S
C5878 H5869 0.930 . S
C5878 C5876 1.384 . S
C5878 C5879 1.372 1_556 S
C5879 C5878 1.372 1_554 S
C5879 C5880 1.400 . S
C5879 C5884 1.490 . S
C5880 H5870 0.930 . S
C5880 C5879 1.400 . S
C5880 C5883 1.386 . S
H5881 C5897 0.952 . S
H5882 C5898 0.931 . S
C5883 H5871 0.929 . S
C5883 C5877 1.390 . S
C5883 C5880 1.386 . S
C5884 C5879 1.490 . S
C5884 C5886 1.395 . S
C5884 C5887 1.403 . S
H5885 C5891 0.930 . S
C5886 H5872 0.930 1_565 S
C5886 C5884 1.395 . S
C5886 C5889 1.403 1_565 S
C5887 C5884 1.403 . S
C5887 C5888 1.524 . S
C5887 C5891 1.400 . S
C5888 H5873 0.960 . S
C5888 H5874 0.960 1_554 S
C5888 H5875 0.960 . S
C5888 C5887 1.524 . S
C5889 C5886 1.403 1_545 S
C5889 C5890 1.392 1_545 S
C5889 C5893 1.495 . S
C5890 C5889 1.392 1_565 S
C5890 C5891 1.385 . S
C5890 C5892 1.478 . S
C5891 H5885 0.930 . S
C5891 C5887 1.400 . S
C5891 C5890 1.385 . S
C5892 C5890 1.478 . S
C5892 C5894 1.381 1_565 S
C5892 C5898 1.383 . S
C5893 C5889 1.495 . S
C5893 H5899 0.959 . S
C5893 H5900 0.961 . S
C5893 H5901 0.960 . S
C5894 C5892 1.381 1_545 S
C5894 C5895 1.394 . S
C5894 H5902 0.930 1_554 S
C5895 C5894 1.394 . S
C5895 C5896 1.383 . S
C5895 H5903 0.929 1_554 S
C5896 C5895 1.383 . S
C5896 C5897 1.352 1_545 S
C5897 H5881 0.952 . S
C5897 C5896 1.352 1_565 S
C5897 C5898 1.385 . S
C5898 H5882 0.931 . S
C5898 C5892 1.383 . S
C5898 C5897 1.385 . S
H5899 C5893 0.959 . S
H5900 C5893 0.961 . S
H5901 C5893 0.960 . S
H5902 C5894 0.930 1_556 S
H5903 C5895 0.929 1_556 S
H5904 C5912 0.929 . S
H5905 C5914 0.930 . S
H5906 C5916 0.930 . S
H5907 C5919 0.929 . S
H5908 C5922 0.930 . S
H5909 C5924 0.960 . S
H5910 C5924 0.960 . S
H5911 C5924 0.960 . S
C5912 H5904 0.929 . S
C5912 C5913 1.377 . S
C5912 C5914 1.384 . S
C5913 C5912 1.377 . S
C5913 C5919 1.390 . S
C5914 H5905 0.930 . S
C5914 C5912 1.384 . S
C5914 C5915 1.372 . S
C5915 C5914 1.372 . S
C5915 C5916 1.400 . S
C5915 C5920 1.490 . S
C5916 H5906 0.930 . S
C5916 C5915 1.400 . S
C5916 C5919 1.386 . S
H5917 C5933 0.930 . S
H5918 C5934 0.931 . S
C5919 H5907 0.929 . S
C5919 C5913 1.390 . S
C5919 C5916 1.386 . S
C5920 C5915 1.490 . S
C5920 C5922 1.395 . S
C5920 C5923 1.403 . S
H5921 C5927 0.930 . S
C5922 H5908 0.930 . S
C5922 C5920 1.395 . S
C5922 C5925 1.403 . S
C5923 C5920 1.403 . S
C5923 C5924 1.524 . S
C5923 C5927 1.400 . S
C5924 H5909 0.960 . S
C5924 H5910 0.960 . S
C5924 H5911 0.960 . S
C5924 C5923 1.524 . S
C5925 C5922 1.403 . S
C5925 C5926 1.392 . S
C5925 C5929 1.495 . S
C5926 C5925 1.392 . S
C5926 C5927 1.385 . S
C5926 C5928 1.478 . S
C5927 H5921 0.930 . S
C5927 C5923 1.400 . S
C5927 C5926 1.385 . S
C5928 C5926 1.478 . S
C5928 C5930 1.381 . S
C5928 C5934 1.383 . S
C5929 C5925 1.495 . S
C5929 H5935 0.959 . S
C5929 H5936 0.961 . S
C5929 H5937 0.960 . S
C5930 C5928 1.381 . S
C5930 C5931 1.394 . S
C5930 H5938 0.930 . S
C5931 C5930 1.394 . S
C5931 C5932 1.383 . S
C5931 H5939 0.929 . S
C5932 C5931 1.383 . S
C5932 C5933 1.377 . S
C5933 H5917 0.930 . S
C5933 C5932 1.377 . S
C5933 C5934 1.379 . S
C5934 H5918 0.931 . S
C5934 C5928 1.383 . S
C5934 C5933 1.379 . S
H5935 C5929 0.959 . S
H5936 C5929 0.961 . S
H5937 C5929 0.960 . S
H5938 C5930 0.930 . S
H5939 C5931 0.929 . S
H5940 C5948 0.929 . S
H5941 C5950 0.930 . S
H5942 C5952 0.924 1_556 S
H5943 C5955 0.903 1_556 S
H5944 C5958 0.930 1_556 S
H5945 C5960 0.960 . S
H5946 C5960 0.960 . S
H5947 C5960 0.960 . S
C5948 H5940 0.929 . S
C5948 C5949 1.377 . S
C5948 C5950 1.384 . S
C5949 C5948 1.377 . S
C5949 C5955 1.413 . S
C5950 H5941 0.930 . S
C5950 C5948 1.384 . S
C5950 C5951 1.372 . S
C5951 C5950 1.372 . S
C5951 C5952 1.400 . S
C5951 C5956 1.490 . S
C5952 H5942 0.924 1_554 S
C5952 C5951 1.400 . S
C5952 C5955 1.392 . S
H5953 C5969 0.930 . S
H5954 C5970 0.931 . S
C5955 H5943 0.903 1_554 S
C5955 C5949 1.413 . S
C5955 C5952 1.392 . S
C5956 C5951 1.490 . S
C5956 C5958 1.395 . S
C5956 C5959 1.403 . S
H5957 C5963 0.930 . S
C5958 H5944 0.930 1_554 S
C5958 C5956 1.395 . S
C5958 C5961 1.403 . S
C5959 C5956 1.403 . S
C5959 C5960 1.524 . S
C5959 C5963 1.400 . S
C5960 H5945 0.960 . S
C5960 H5946 0.960 . S
C5960 H5947 0.960 . S
C5960 C5959 1.524 . S
C5961 C5958 1.403 . S
C5961 C5962 1.392 . S
C5961 C5965 1.495 1_554 S
C5962 C5961 1.392 . S
C5962 C5963 1.385 . S
C5962 C5964 1.478 . S
C5963 H5957 0.930 . S
C5963 C5959 1.400 . S
C5963 C5962 1.385 . S
C5964 C5962 1.478 . S
C5964 C5966 1.381 . S
C5964 C5970 1.383 . S
C5965 C5961 1.495 1_556 S
C5965 H5971 0.959 . S
C5965 H5972 0.961 . S
C5965 H5973 0.960 1_556 S
C5966 C5964 1.381 . S
C5966 C5967 1.394 . S
C5966 H5974 0.930 . S
C5967 C5966 1.394 . S
C5967 C5968 1.383 . S
C5967 H5975 0.929 . S
C5968 C5967 1.383 . S
C5968 C5969 1.377 . S
C5969 H5953 0.930 . S
C5969 C5968 1.377 . S
C5969 C5970 1.379 . S
C5970 H5954 0.931 . S
C5970 C5964 1.383 . S
C5970 C5969 1.379 . S
H5971 C5965 0.959 . S
H5972 C5965 0.961 . S
H5973 C5965 0.960 1_554 S
H5974 C5966 0.930 . S
H5975 C5967 0.929 . S
H5976 C5984 0.929 . S
H5977 C5986 0.930 . S
H5978 C5988 0.930 . S
H5979 C5991 0.929 . S
H5980 C5994 0.930 . S
H5981 C5996 0.960 . S
H5982 C5996 0.960 . S
H5983 C5996 0.960 . S
C5984 H5976 0.929 . S
C5984 C5985 1.377 . S
C5984 C5986 1.384 . S
C5985 C5984 1.377 . S
C5985 C5991 1.390 . S
C5986 H5977 0.930 . S
C5986 C5984 1.384 . S
C5986 C5987 1.372 . S
C5987 C5986 1.372 . S
C5987 C5988 1.400 . S
C5987 C5992 1.490 . S
C5988 H5978 0.930 . S
C5988 C5987 1.400 . S
C5988 C5991 1.386 . S
H5989 C6005 0.930 . S
H5990 C6006 0.931 . S
C5991 H5979 0.929 . S
C5991 C5985 1.390 . S
C5991 C5988 1.386 . S
C5992 C5987 1.490 . S
C5992 C5994 1.395 . S
C5992 C5995 1.403 . S
H5993 C5999 0.930 . S
C5994 H5980 0.930 . S
C5994 C5992 1.395 . S
C5994 C5997 1.403 . S
C5995 C5992 1.403 . S
C5995 C5996 1.524 . S
C5995 C5999 1.400 . S
C5996 H5981 0.960 . S
C5996 H5982 0.960 . S
C5996 H5983 0.960 . S
C5996 C5995 1.524 . S
C5997 C5994 1.403 . S
C5997 C5998 1.392 . S
C5997 C6001 1.495 . S
C5998 C5997 1.392 . S
C5998 C5999 1.385 . S
C5998 C6000 1.478 . S
C5999 H5993 0.930 . S
C5999 C5995 1.400 . S
C5999 C5998 1.385 . S
C6000 C5998 1.478 . S
C6000 C6002 1.381 . S
C6000 C6006 1.383 . S
C6001 C5997 1.495 . S
C6001 H6007 0.959 . S
C6001 H6008 0.961 . S
C6001 H6009 0.960 . S
C6002 C6000 1.381 . S
C6002 C6003 1.394 . S
C6002 H6010 0.930 . S
C6003 C6002 1.394 . S
C6003 C6004 1.383 . S
C6003 H6011 0.929 . S
C6004 C6003 1.383 . S
C6004 C6005 1.377 . S
C6005 H5989 0.930 . S
C6005 C6004 1.377 . S
C6005 C6006 1.379 . S
C6006 H5990 0.931 . S
C6006 C6000 1.383 . S
C6006 C6005 1.379 . S
H6007 C6001 0.959 . S
H6008 C6001 0.961 . S
H6009 C6001 0.960 . S
H6010 C6002 0.930 . S
H6011 C6003 0.929 . S
H6012 C6020 0.929 . S
H6013 C6022 0.930 . S
H6014 C6024 0.930 . S
H6015 C6027 0.929 . S
H6016 C6030 0.930 . S
H6017 C6032 0.960 . S
H6018 C6032 0.960 . S
H6019 C6032 0.960 . S
C6020 H6012 0.929 . S
C6020 C6021 1.377 . S
C6020 C6022 1.384 . S
C6021 C6020 1.377 . S
C6021 C6027 1.390 . S
C6022 H6013 0.930 . S
C6022 C6020 1.384 . S
C6022 C6023 1.372 . S
C6023 C6022 1.372 . S
C6023 C6024 1.400 . S
C6023 C6028 1.490 . S
C6024 H6014 0.930 . S
C6024 C6023 1.400 . S
C6024 C6027 1.386 . S
H6025 C6041 0.930 . S
H6026 C6042 0.931 . S
C6027 H6015 0.929 . S
C6027 C6021 1.390 . S
C6027 C6024 1.386 . S
C6028 C6023 1.490 . S
C6028 C6030 1.395 . S
C6028 C6031 1.403 . S
H6029 C6035 0.930 . S
C6030 H6016 0.930 . S
C6030 C6028 1.395 . S
C6030 C6033 1.403 . S
C6031 C6028 1.403 . S
C6031 C6032 1.524 . S
C6031 C6035 1.400 . S
C6032 H6017 0.960 . S
C6032 H6018 0.960 . S
C6032 H6019 0.960 . S
C6032 C6031 1.524 . S
C6033 C6030 1.403 . S
C6033 C6034 1.392 . S
C6033 C6037 1.495 . S
C6034 C6033 1.392 . S
C6034 C6035 1.385 . S
C6034 C6036 1.478 . S
C6035 H6029 0.930 . S
C6035 C6031 1.400 . S
C6035 C6034 1.385 . S
C6036 C6034 1.478 . S
C6036 C6038 1.381 . S
C6036 C6042 1.383 . S
C6037 C6033 1.495 . S
C6037 H6043 0.959 . S
C6037 H6044 0.961 . S
C6037 H6045 0.960 . S
C6038 C6036 1.381 . S
C6038 C6039 1.394 . S
C6038 H6046 0.930 . S
C6039 C6038 1.394 . S
C6039 C6040 1.383 . S
C6039 H6047 0.929 . S
C6040 C6039 1.383 . S
C6040 C6041 1.377 . S
C6041 H6025 0.930 . S
C6041 C6040 1.377 . S
C6041 C6042 1.379 . S
C6042 H6026 0.931 . S
C6042 C6036 1.383 . S
C6042 C6041 1.379 . S
H6043 C6037 0.959 . S
H6044 C6037 0.961 . S
H6045 C6037 0.960 . S
H6046 C6038 0.930 . S
H6047 C6039 0.929 . S
H6048 C6056 0.929 . S
H6049 C6058 0.930 . S
H6050 C6060 0.930 . S
H6051 C6063 0.929 . S
H6052 C6066 0.930 . S
H6053 C6068 0.960 . S
H6054 C6068 0.960 . S
H6055 C6068 0.960 . S
C6056 H6048 0.929 . S
C6056 C6057 1.377 . S
C6056 C6058 1.384 . S
C6057 C6056 1.377 . S
C6057 C6063 1.390 . S
C6058 H6049 0.930 . S
C6058 C6056 1.384 . S
C6058 C6059 1.372 . S
C6059 C6058 1.372 . S
C6059 C6060 1.400 . S
C6059 C6064 1.490 . S
C6060 H6050 0.930 . S
C6060 C6059 1.400 . S
C6060 C6063 1.386 . S
H6061 C6077 0.930 . S
H6062 C6078 0.931 . S
C6063 H6051 0.929 . S
C6063 C6057 1.390 . S
C6063 C6060 1.386 . S
C6064 C6059 1.490 . S
C6064 C6066 1.395 . S
C6064 C6067 1.403 . S
H6065 C6071 0.930 . S
C6066 H6052 0.930 . S
C6066 C6064 1.395 . S
C6066 C6069 1.403 . S
C6067 C6064 1.403 . S
C6067 C6068 1.524 . S
C6067 C6071 1.400 . S
C6068 H6053 0.960 . S
C6068 H6054 0.960 . S
C6068 H6055 0.960 . S
C6068 C6067 1.524 . S
C6069 C6066 1.403 . S
C6069 C6070 1.392 . S
C6069 C6073 1.495 . S
C6070 C6069 1.392 . S
C6070 C6071 1.385 . S
C6070 C6072 1.478 . S
C6071 H6065 0.930 . S
C6071 C6067 1.400 . S
C6071 C6070 1.385 . S
C6072 C6070 1.478 . S
C6072 C6074 1.381 . S
C6072 C6078 1.383 . S
C6073 C6069 1.495 . S
C6073 H6079 0.959 . S
C6073 H6080 0.961 . S
C6073 H6081 0.960 . S
C6074 C6072 1.381 . S
C6074 C6075 1.394 . S
C6074 H6082 0.930 . S
C6075 C6074 1.394 . S
C6075 C6076 1.383 . S
C6075 H6083 0.929 . S
C6076 C6075 1.383 . S
C6076 C6077 1.377 . S
C6077 H6061 0.930 . S
C6077 C6076 1.377 . S
C6077 C6078 1.379 . S
C6078 H6062 0.931 . S
C6078 C6072 1.383 . S
C6078 C6077 1.379 . S
H6079 C6073 0.959 . S
H6080 C6073 0.961 . S
H6081 C6073 0.960 . S
H6082 C6074 0.930 . S
H6083 C6075 0.929 . S
H6084 C6092 0.929 . S
H6085 C6094 0.930 . S
H6086 C6096 0.930 . S
H6087 C6099 0.929 . S
H6088 C6102 0.930 . S
H6089 C6104 0.960 . S
H6090 C6104 0.960 . S
H6091 C6104 0.960 . S
C6092 H6084 0.929 . S
C6092 C6093 1.377 . S
C6092 C6094 1.384 . S
C6093 C6092 1.377 . S
C6093 C6099 1.390 . S
C6094 H6085 0.930 . S
C6094 C6092 1.384 . S
C6094 C6095 1.372 . S
C6095 C6094 1.372 . S
C6095 C6096 1.400 . S
C6095 C6100 1.490 . S
C6096 H6086 0.930 . S
C6096 C6095 1.400 . S
C6096 C6099 1.386 . S
H6097 C6113 0.930 . S
H6098 C6114 0.931 . S
C6099 H6087 0.929 . S
C6099 C6093 1.390 . S
C6099 C6096 1.386 . S
C6100 C6095 1.490 . S
C6100 C6102 1.395 . S
C6100 C6103 1.403 . S
H6101 C6107 0.930 . S
C6102 H6088 0.930 . S
C6102 C6100 1.395 . S
C6102 C6105 1.403 . S
C6103 C6100 1.403 . S
C6103 C6104 1.524 . S
C6103 C6107 1.400 . S
C6104 H6089 0.960 . S
C6104 H6090 0.960 . S
C6104 H6091 0.960 . S
C6104 C6103 1.524 . S
C6105 C6102 1.403 . S
C6105 C6106 1.392 . S
C6105 C6109 1.495 . S
C6106 C6105 1.392 . S
C6106 C6107 1.385 . S
C6106 C6108 1.478 . S
C6107 H6101 0.930 . S
C6107 C6103 1.400 . S
C6107 C6106 1.385 . S
C6108 C6106 1.478 . S
C6108 C6110 1.381 . S
C6108 C6114 1.383 . S
C6109 C6105 1.495 . S
C6109 H6115 0.959 . S
C6109 H6116 0.961 . S
C6109 H6117 0.960 . S
C6110 C6108 1.381 . S
C6110 C6111 1.394 . S
C6110 H6118 0.930 . S
C6111 C6110 1.394 . S
C6111 C6112 1.383 . S
C6111 H6119 0.929 . S
C6112 C6111 1.383 . S
C6112 C6113 1.377 . S
C6113 H6097 0.930 . S
C6113 C6112 1.377 . S
C6113 C6114 1.379 . S
C6114 H6098 0.931 . S
C6114 C6108 1.383 . S
C6114 C6113 1.379 . S
H6115 C6109 0.959 . S
H6116 C6109 0.961 . S
H6117 C6109 0.960 . S
H6118 C6110 0.930 . S
H6119 C6111 0.929 . S
H6120 C6128 0.929 . S
H6121 C6130 0.930 . S
H6122 C6132 0.930 . S
H6123 C6135 0.929 . S
H6124 C6138 0.930 . S
H6125 C6140 0.960 . S
H6126 C6140 0.960 . S
H6127 C6140 0.960 . S
C6128 H6120 0.929 . S
C6128 C6129 1.377 . S
C6128 C6130 1.384 . S
C6129 C6128 1.377 . S
C6129 C6135 1.390 . S
C6130 H6121 0.930 . S
C6130 C6128 1.384 . S
C6130 C6131 1.372 . S
C6131 C6130 1.372 . S
C6131 C6132 1.400 . S
C6131 C6136 1.490 . S
C6132 H6122 0.930 . S
C6132 C6131 1.400 . S
C6132 C6135 1.386 . S
H6133 C6149 0.930 . S
H6134 C6150 0.931 . S
C6135 H6123 0.929 . S
C6135 C6129 1.390 . S
C6135 C6132 1.386 . S
C6136 C6131 1.490 . S
C6136 C6138 1.395 . S
C6136 C6139 1.403 . S
H6137 C6143 0.930 . S
C6138 H6124 0.930 . S
C6138 C6136 1.395 . S
C6138 C6141 1.403 . S
C6139 C6136 1.403 . S
C6139 C6140 1.524 . S
C6139 C6143 1.400 . S
C6140 H6125 0.960 . S
C6140 H6126 0.960 . S
C6140 H6127 0.960 . S
C6140 C6139 1.524 . S
C6141 C6138 1.403 . S
C6141 C6142 1.392 . S
C6141 C6145 1.495 . S
C6142 C6141 1.392 . S
C6142 C6143 1.385 . S
C6142 C6144 1.478 . S
C6143 H6137 0.930 . S
C6143 C6139 1.400 . S
C6143 C6142 1.385 . S
C6144 C6142 1.478 . S
C6144 C6146 1.381 . S
C6144 C6150 1.383 . S
C6145 C6141 1.495 . S
C6145 H6151 0.959 . S
C6145 H6152 0.961 . S
C6145 H6153 0.960 . S
C6146 C6144 1.381 . S
C6146 C6147 1.394 . S
C6146 H6154 0.930 . S
C6147 C6146 1.394 . S
C6147 C6148 1.383 . S
C6147 H6155 0.929 . S
C6148 C6147 1.383 . S
C6148 C6149 1.377 . S
C6149 H6133 0.930 . S
C6149 C6148 1.377 . S
C6149 C6150 1.379 . S
C6150 H6134 0.931 . S
C6150 C6144 1.383 . S
C6150 C6149 1.379 . S
H6151 C6145 0.959 . S
H6152 C6145 0.961 . S
H6153 C6145 0.960 . S
H6154 C6146 0.930 . S
H6155 C6147 0.929 . S
H6156 C6164 0.929 . S
H6157 C6166 0.930 . S
H6158 C6168 0.930 . S
H6159 C6171 0.929 . S
H6160 C6174 0.930 . S
H6161 C6176 0.960 . S
H6162 C6176 0.960 . S
H6163 C6176 0.960 . S
C6164 H6156 0.929 . S
C6164 C6165 1.377 . S
C6164 C6166 1.384 . S
C6165 C6164 1.377 . S
C6165 C6171 1.390 . S
C6166 H6157 0.930 . S
C6166 C6164 1.384 . S
C6166 C6167 1.372 . S
C6167 C6166 1.372 . S
C6167 C6168 1.400 . S
C6167 C6172 1.490 . S
C6168 H6158 0.930 . S
C6168 C6167 1.400 . S
C6168 C6171 1.386 . S
H6169 C6185 0.930 . S
H6170 C6186 0.931 . S
C6171 H6159 0.929 . S
C6171 C6165 1.390 . S
C6171 C6168 1.386 . S
C6172 C6167 1.490 . S
C6172 C6174 1.395 . S
C6172 C6175 1.403 . S
H6173 C6179 0.930 . S
C6174 H6160 0.930 . S
C6174 C6172 1.395 . S
C6174 C6177 1.403 . S
C6175 C6172 1.403 . S
C6175 C6176 1.524 . S
C6175 C6179 1.400 . S
C6176 H6161 0.960 . S
C6176 H6162 0.960 . S
C6176 H6163 0.960 . S
C6176 C6175 1.524 . S
C6177 C6174 1.403 . S
C6177 C6178 1.392 . S
C6177 C6181 1.495 . S
C6178 C6177 1.392 . S
C6178 C6179 1.385 . S
C6178 C6180 1.478 . S
C6179 H6173 0.930 . S
C6179 C6175 1.400 . S
C6179 C6178 1.385 . S
C6180 C6178 1.478 . S
C6180 C6182 1.381 . S
C6180 C6186 1.383 . S
C6181 C6177 1.495 . S
C6181 H6187 0.959 . S
C6181 H6188 0.961 . S
C6181 H6189 0.960 . S
C6182 C6180 1.381 . S
C6182 C6183 1.394 . S
C6182 H6190 0.930 . S
C6183 C6182 1.394 . S
C6183 C6184 1.383 . S
C6183 H6191 0.929 . S
C6184 C6183 1.383 . S
C6184 C6185 1.377 . S
C6185 H6169 0.930 . S
C6185 C6184 1.377 . S
C6185 C6186 1.379 . S
C6186 H6170 0.931 . S
C6186 C6180 1.383 . S
C6186 C6185 1.379 . S
H6187 C6181 0.959 . S
H6188 C6181 0.961 . S
H6189 C6181 0.960 . S
H6190 C6182 0.930 . S
H6191 C6183 0.929 . S
H6192 C6200 0.929 . S
H6193 C6202 0.930 . S
H6194 C6204 0.930 . S
H6195 C6207 0.929 . S
H6196 C6210 0.930 . S
H6197 C6212 0.960 . S
H6198 C6212 0.960 . S
H6199 C6212 0.960 . S
C6200 H6192 0.929 . S
C6200 C6201 1.377 . S
C6200 C6202 1.384 . S
C6201 C6200 1.377 . S
C6201 C6207 1.390 . S
C6202 H6193 0.930 . S
C6202 C6200 1.384 . S
C6202 C6203 1.372 . S
C6203 C6202 1.372 . S
C6203 C6204 1.400 . S
C6203 C6208 1.490 . S
C6204 H6194 0.930 . S
C6204 C6203 1.400 . S
C6204 C6207 1.386 . S
H6205 C6221 0.930 . S
H6206 C6222 0.931 . S
C6207 H6195 0.929 . S
C6207 C6201 1.390 . S
C6207 C6204 1.386 . S
C6208 C6203 1.490 . S
C6208 C6210 1.395 . S
C6208 C6211 1.403 . S
H6209 C6215 0.930 . S
C6210 H6196 0.930 . S
C6210 C6208 1.395 . S
C6210 C6213 1.403 . S
C6211 C6208 1.403 . S
C6211 C6212 1.524 . S
C6211 C6215 1.400 . S
C6212 H6197 0.960 . S
C6212 H6198 0.960 . S
C6212 H6199 0.960 . S
C6212 C6211 1.524 . S
C6213 C6210 1.403 . S
C6213 C6214 1.392 . S
C6213 C6217 1.495 . S
C6214 C6213 1.392 . S
C6214 C6215 1.385 . S
C6214 C6216 1.478 . S
C6215 H6209 0.930 . S
C6215 C6211 1.400 . S
C6215 C6214 1.385 . S
C6216 C6214 1.478 . S
C6216 C6218 1.381 . S
C6216 C6222 1.383 . S
C6217 C6213 1.495 . S
C6217 H6223 0.959 . S
C6217 H6224 0.961 . S
C6217 H6225 0.960 . S
C6218 C6216 1.381 . S
C6218 C6219 1.394 . S
C6218 H6226 0.930 . S
C6219 C6218 1.394 . S
C6219 C6220 1.383 . S
C6219 H6227 0.929 . S
C6220 C6219 1.383 . S
C6220 C6221 1.377 . S
C6221 H6205 0.930 . S
C6221 C6220 1.377 . S
C6221 C6222 1.379 . S
C6222 H6206 0.931 . S
C6222 C6216 1.383 . S
C6222 C6221 1.379 . S
H6223 C6217 0.959 . S
H6224 C6217 0.961 . S
H6225 C6217 0.960 . S
H6226 C6218 0.930 . S
H6227 C6219 0.929 . S
H6228 C6236 0.929 . S
H6229 C6238 0.930 . S
H6230 C6240 0.930 . S
H6231 C6243 0.929 . S
H6232 C6246 0.930 . S
H6233 C6248 0.960 . S
H6234 C6248 0.960 . S
H6235 C6248 0.960 . S
C6236 H6228 0.929 . S
C6236 C6237 1.377 . S
C6236 C6238 1.384 . S
C6237 C6236 1.377 . S
C6237 C6243 1.390 . S
C6238 H6229 0.930 . S
C6238 C6236 1.384 . S
C6238 C6239 1.372 . S
C6239 C6238 1.372 . S
C6239 C6240 1.400 . S
C6239 C6244 1.490 . S
C6240 H6230 0.930 . S
C6240 C6239 1.400 . S
C6240 C6243 1.386 . S
H6241 C6257 0.930 . S
H6242 C6258 0.931 . S
C6243 H6231 0.929 . S
C6243 C6237 1.390 . S
C6243 C6240 1.386 . S
C6244 C6239 1.490 . S
C6244 C6246 1.395 . S
C6244 C6247 1.403 . S
H6245 C6251 0.930 . S
C6246 H6232 0.930 . S
C6246 C6244 1.395 . S
C6246 C6249 1.403 . S
C6247 C6244 1.403 . S
C6247 C6248 1.524 . S
C6247 C6251 1.400 . S
C6248 H6233 0.960 . S
C6248 H6234 0.960 . S
C6248 H6235 0.960 . S
C6248 C6247 1.524 . S
C6249 C6246 1.403 . S
C6249 C6250 1.392 . S
C6249 C6253 1.495 . S
C6250 C6249 1.392 . S
C6250 C6251 1.385 . S
C6250 C6252 1.478 . S
C6251 H6245 0.930 . S
C6251 C6247 1.400 . S
C6251 C6250 1.385 . S
C6252 C6250 1.478 . S
C6252 C6254 1.381 . S
C6252 C6258 1.383 . S
C6253 C6249 1.495 . S
C6253 H6259 0.959 . S
C6253 H6260 0.961 . S
C6253 H6261 0.960 . S
C6254 C6252 1.381 . S
C6254 C6255 1.394 . S
C6254 H6262 0.930 . S
C6255 C6254 1.394 . S
C6255 C6256 1.383 . S
C6255 H6263 0.929 . S
C6256 C6255 1.383 . S
C6256 C6257 1.377 . S
C6257 H6241 0.930 . S
C6257 C6256 1.377 . S
C6257 C6258 1.379 . S
C6258 H6242 0.931 . S
C6258 C6252 1.383 . S
C6258 C6257 1.379 . S
H6259 C6253 0.959 . S
H6260 C6253 0.961 . S
H6261 C6253 0.960 . S
H6262 C6254 0.930 . S
H6263 C6255 0.929 . S
H6264 C6272 0.929 . S
H6265 C6274 0.930 . S
H6266 C6276 0.930 . S
H6267 C6279 0.929 . S
H6268 C6282 0.930 . S
H6269 C6284 0.937 1_655 S
H6270 C6284 0.960 . S
H6271 C6284 0.960 . S
C6272 H6264 0.929 . S
C6272 C6273 1.377 . S
C6272 C6274 1.384 . S
C6273 C6272 1.377 . S
C6273 C6279 1.390 . S
C6274 H6265 0.930 . S
C6274 C6272 1.384 . S
C6274 C6275 1.372 . S
C6275 C6274 1.372 . S
C6275 C6276 1.400 . S
C6275 C6280 1.490 . S
C6276 H6266 0.930 . S
C6276 C6275 1.400 . S
C6276 C6279 1.386 . S
H6277 C6293 0.930 . S
H6278 C6294 0.931 . S
C6279 H6267 0.929 . S
C6279 C6273 1.390 . S
C6279 C6276 1.386 . S
C6280 C6275 1.490 . S
C6280 C6282 1.395 . S
C6280 C6283 1.403 . S
H6281 C6287 0.930 . S
C6282 H6268 0.930 . S
C6282 C6280 1.395 . S
C6282 C6285 1.403 . S
C6283 C6280 1.403 . S
C6283 C6284 1.524 . S
C6283 C6287 1.400 . S
C6284 H6269 0.937 1_455 S
C6284 H6270 0.960 . S
C6284 H6271 0.960 . S
C6284 C6283 1.524 . S
C6285 C6282 1.403 . S
C6285 C6286 1.392 . S
C6285 C6289 1.495 . S
C6286 C6285 1.392 . S
C6286 C6287 1.385 . S
C6286 C6288 1.478 . S
C6287 H6281 0.930 . S
C6287 C6283 1.400 . S
C6287 C6286 1.385 . S
C6288 C6286 1.478 . S
C6288 C6290 1.381 . S
C6288 C6294 1.383 . S
C6289 C6285 1.495 . S
C6289 H6295 0.959 . S
C6289 H6296 0.961 . S
C6289 H6297 0.960 . S
C6290 C6288 1.381 . S
C6290 C6291 1.394 . S
C6290 H6298 0.930 . S
C6291 C6290 1.394 . S
C6291 C6292 1.383 . S
C6291 H6299 0.929 . S
C6292 C6291 1.383 . S
C6292 C6293 1.377 . S
C6293 H6277 0.930 . S
C6293 C6292 1.377 . S
C6293 C6294 1.379 . S
C6294 H6278 0.931 . S
C6294 C6288 1.383 . S
C6294 C6293 1.379 . S
H6295 C6289 0.959 . S
H6296 C6289 0.961 . S
H6297 C6289 0.960 . S
H6298 C6290 0.930 . S
H6299 C6291 0.929 . S
H6300 C6308 0.929 . S
H6301 C6310 0.930 . S
H6302 C6312 0.930 . S
H6303 C6315 0.929 . S
H6304 C6318 0.930 . S
H6305 C6320 0.960 . S
H6306 C6320 0.960 . S
H6307 C6320 0.960 . S
C6308 H6300 0.929 . S
C6308 C6309 1.377 . S
C6308 C6310 1.384 . S
C6309 C6308 1.377 . S
C6309 C6315 1.390 . S
C6310 H6301 0.930 . S
C6310 C6308 1.384 . S
C6310 C6311 1.372 . S
C6311 C6310 1.372 . S
C6311 C6312 1.400 . S
C6311 C6316 1.490 . S
C6312 H6302 0.930 . S
C6312 C6311 1.400 . S
C6312 C6315 1.386 . S
H6313 C6329 0.930 . S
H6314 C6330 0.931 . S
C6315 H6303 0.929 . S
C6315 C6309 1.390 . S
C6315 C6312 1.386 . S
C6316 C6311 1.490 . S
C6316 C6318 1.395 . S
C6316 C6319 1.403 . S
H6317 C6323 0.930 . S
C6318 H6304 0.930 . S
C6318 C6316 1.395 . S
C6318 C6321 1.403 . S
C6319 C6316 1.403 . S
C6319 C6320 1.524 . S
C6319 C6323 1.400 . S
C6320 H6305 0.960 . S
C6320 H6306 0.960 . S
C6320 H6307 0.960 . S
C6320 C6319 1.524 . S
C6321 C6318 1.403 . S
C6321 C6322 1.392 . S
C6321 C6325 1.495 . S
C6322 C6321 1.392 . S
C6322 C6323 1.385 . S
C6322 C6324 1.478 . S
C6323 H6317 0.930 . S
C6323 C6319 1.400 . S
C6323 C6322 1.385 . S
C6324 C6322 1.478 . S
C6324 C6326 1.381 . S
C6324 C6330 1.383 . S
C6325 C6321 1.495 . S
C6325 H6331 0.959 . S
C6325 H6332 0.961 . S
C6325 H6333 0.960 . S
C6326 C6324 1.381 . S
C6326 C6327 1.394 . S
C6326 H6334 0.930 . S
C6327 C6326 1.394 . S
C6327 C6328 1.383 . S
C6327 H6335 0.929 . S
C6328 C6327 1.383 . S
C6328 C6329 1.377 . S
C6329 H6313 0.930 . S
C6329 C6328 1.377 . S
C6329 C6330 1.379 . S
C6330 H6314 0.931 . S
C6330 C6324 1.383 . S
C6330 C6329 1.379 . S
H6331 C6325 0.959 . S
H6332 C6325 0.961 . S
H6333 C6325 0.960 . S
H6334 C6326 0.930 . S
H6335 C6327 0.929 . S
H6336 C6344 0.929 . S
H6337 C6346 0.930 . S
H6338 C6348 0.930 . S
H6339 C6351 0.929 . S
H6340 C6354 0.930 . S
H6341 C6356 0.960 . S
H6342 C6356 0.960 . S
H6343 C6356 0.960 . S
C6344 H6336 0.929 . S
C6344 C6345 1.377 . S
C6344 C6346 1.384 . S
C6345 C6344 1.377 . S
C6345 C6351 1.390 . S
C6346 H6337 0.930 . S
C6346 C6344 1.384 . S
C6346 C6347 1.372 . S
C6347 C6346 1.372 . S
C6347 C6348 1.400 . S
C6347 C6352 1.490 . S
C6348 H6338 0.930 . S
C6348 C6347 1.400 . S
C6348 C6351 1.386 . S
H6349 C6365 0.930 . S
H6350 C6366 0.931 . S
C6351 H6339 0.929 . S
C6351 C6345 1.390 . S
C6351 C6348 1.386 . S
C6352 C6347 1.490 . S
C6352 C6354 1.395 . S
C6352 C6355 1.403 . S
H6353 C6359 0.930 . S
C6354 H6340 0.930 . S
C6354 C6352 1.395 . S
C6354 C6357 1.403 . S
C6355 C6352 1.403 . S
C6355 C6356 1.524 . S
C6355 C6359 1.400 . S
C6356 H6341 0.960 . S
C6356 H6342 0.960 . S
C6356 H6343 0.960 . S
C6356 C6355 1.524 . S
C6357 C6354 1.403 . S
C6357 C6358 1.392 . S
C6357 C6361 1.495 . S
C6358 C6357 1.392 . S
C6358 C6359 1.385 . S
C6358 C6360 1.478 . S
C6359 H6353 0.930 . S
C6359 C6355 1.400 . S
C6359 C6358 1.385 . S
C6360 C6358 1.478 . S
C6360 C6362 1.381 . S
C6360 C6366 1.383 . S
C6361 C6357 1.495 . S
C6361 H6367 0.959 . S
C6361 H6368 0.961 . S
C6361 H6369 0.960 . S
C6362 C6360 1.381 . S
C6362 C6363 1.394 . S
C6362 H6370 0.930 . S
C6363 C6362 1.394 . S
C6363 C6364 1.383 . S
C6363 H6371 0.929 . S
C6364 C6363 1.383 . S
C6364 C6365 1.377 . S
C6365 H6349 0.930 . S
C6365 C6364 1.377 . S
C6365 C6366 1.379 . S
C6366 H6350 0.931 . S
C6366 C6360 1.383 . S
C6366 C6365 1.379 . S
H6367 C6361 0.959 . S
H6368 C6361 0.961 . S
H6369 C6361 0.960 . S
H6370 C6362 0.930 . S
H6371 C6363 0.929 . S
H6372 C6380 0.929 . S
H6373 C6382 0.930 . S
H6374 C6384 0.930 . S
H6375 C6387 0.929 . S
H6376 C6390 0.930 . S
H6377 C6392 0.960 . S
H6378 C6392 0.960 . S
H6379 C6392 0.960 . S
C6380 H6372 0.929 . S
C6380 C6381 1.377 . S
C6380 C6382 1.384 . S
C6381 C6380 1.377 . S
C6381 C6387 1.390 . S
C6382 H6373 0.930 . S
C6382 C6380 1.384 . S
C6382 C6383 1.372 . S
C6383 C6382 1.372 . S
C6383 C6384 1.400 . S
C6383 C6388 1.490 . S
C6384 H6374 0.930 . S
C6384 C6383 1.400 . S
C6384 C6387 1.386 . S
H6385 C6401 0.930 . S
H6386 C6402 0.931 . S
C6387 H6375 0.929 . S
C6387 C6381 1.390 . S
C6387 C6384 1.386 . S
C6388 C6383 1.490 . S
C6388 C6390 1.395 . S
C6388 C6391 1.403 . S
H6389 C6395 0.930 . S
C6390 H6376 0.930 . S
C6390 C6388 1.395 . S
C6390 C6393 1.403 . S
C6391 C6388 1.403 . S
C6391 C6392 1.524 . S
C6391 C6395 1.400 . S
C6392 H6377 0.960 . S
C6392 H6378 0.960 . S
C6392 H6379 0.960 . S
C6392 C6391 1.524 . S
C6393 C6390 1.403 . S
C6393 C6394 1.392 . S
C6393 C6397 1.495 . S
C6394 C6393 1.392 . S
C6394 C6395 1.385 . S
C6394 C6396 1.478 . S
C6395 H6389 0.930 . S
C6395 C6391 1.400 . S
C6395 C6394 1.385 . S
C6396 C6394 1.478 . S
C6396 C6398 1.381 . S
C6396 C6402 1.383 . S
C6397 C6393 1.495 . S
C6397 H6403 0.959 . S
C6397 H6404 0.961 . S
C6397 H6405 0.960 . S
C6398 C6396 1.381 . S
C6398 C6399 1.394 . S
C6398 H6406 0.930 . S
C6399 C6398 1.394 . S
C6399 C6400 1.383 . S
C6399 H6407 0.929 . S
C6400 C6399 1.383 . S
C6400 C6401 1.377 . S
C6401 H6385 0.930 . S
C6401 C6400 1.377 . S
C6401 C6402 1.379 . S
C6402 H6386 0.931 . S
C6402 C6396 1.383 . S
C6402 C6401 1.379 . S
H6403 C6397 0.959 . S
H6404 C6397 0.961 . S
H6405 C6397 0.960 . S
H6406 C6398 0.930 . S
H6407 C6399 0.929 . S
H6408 C6416 0.929 . S
H6409 C6418 0.930 . S
H6410 C6420 0.930 . S
H6411 C6423 0.929 . S
H6412 C6426 0.930 . S
H6413 C6428 0.960 . S
H6414 C6428 0.960 . S
H6415 C6428 0.960 . S
C6416 H6408 0.929 . S
C6416 C6417 1.377 . S
C6416 C6418 1.384 . S
C6417 C6416 1.377 . S
C6417 C6423 1.390 . S
C6418 H6409 0.930 . S
C6418 C6416 1.384 . S
C6418 C6419 1.372 . S
C6419 C6418 1.372 . S
C6419 C6420 1.400 . S
C6419 C6424 1.490 . S
C6420 H6410 0.930 . S
C6420 C6419 1.400 . S
C6420 C6423 1.386 . S
H6421 C6437 0.930 . S
H6422 C6438 0.931 . S
C6423 H6411 0.929 . S
C6423 C6417 1.390 . S
C6423 C6420 1.386 . S
C6424 C6419 1.490 . S
C6424 C6426 1.395 . S
C6424 C6427 1.403 . S
H6425 C6431 0.930 . S
C6426 H6412 0.930 . S
C6426 C6424 1.395 . S
C6426 C6429 1.403 . S
C6427 C6424 1.403 . S
C6427 C6428 1.524 . S
C6427 C6431 1.400 . S
C6428 H6413 0.960 . S
C6428 H6414 0.960 . S
C6428 H6415 0.960 . S
C6428 C6427 1.524 . S
C6429 C6426 1.403 . S
C6429 C6430 1.392 . S
C6429 C6433 1.495 . S
C6430 C6429 1.392 . S
C6430 C6431 1.385 . S
C6430 C6432 1.478 . S
C6431 H6425 0.930 . S
C6431 C6427 1.400 . S
C6431 C6430 1.385 . S
C6432 C6430 1.478 . S
C6432 C6434 1.381 . S
C6432 C6438 1.383 . S
C6433 C6429 1.495 . S
C6433 H6439 0.959 . S
C6433 H6440 0.961 . S
C6433 H6441 0.960 . S
C6434 C6432 1.381 . S
C6434 C6435 1.394 1_655 S
C6434 H6442 0.920 1_655 S
C6435 C6434 1.394 1_455 S
C6435 C6436 1.396 . S
C6435 H6443 0.929 . S
C6436 C6435 1.396 . S
C6436 C6437 1.345 1_455 S
C6437 H6421 0.930 . S
C6437 C6436 1.345 1_655 S
C6437 C6438 1.379 . S
C6438 H6422 0.931 . S
C6438 C6432 1.383 . S
C6438 C6437 1.379 . S
H6439 C6433 0.959 . S
H6440 C6433 0.961 . S
H6441 C6433 0.960 . S
H6442 C6434 0.920 1_455 S
H6443 C6435 0.929 . S
H6444 C6452 0.929 . S
H6445 C6454 0.930 . S
H6446 C6456 0.930 . S
H6447 C6459 0.929 . S
H6448 C6462 0.930 . S
H6449 C6464 0.960 . S
H6450 C6464 0.960 . S
H6451 C6464 0.960 . S
C6452 H6444 0.929 . S
C6452 C6453 1.377 . S
C6452 C6454 1.384 . S
C6453 C6452 1.377 . S
C6453 C6459 1.390 . S
C6454 H6445 0.930 . S
C6454 C6452 1.384 . S
C6454 C6455 1.372 . S
C6455 C6454 1.372 . S
C6455 C6456 1.400 . S
C6455 C6460 1.490 . S
C6456 H6446 0.930 . S
C6456 C6455 1.400 . S
C6456 C6459 1.386 . S
H6457 C6473 0.930 . S
H6458 C6474 0.931 . S
C6459 H6447 0.929 . S
C6459 C6453 1.390 . S
C6459 C6456 1.386 . S
C6460 C6455 1.490 . S
C6460 C6462 1.395 . S
C6460 C6463 1.403 . S
H6461 C6467 0.930 . S
C6462 H6448 0.930 . S
C6462 C6460 1.395 . S
C6462 C6465 1.403 . S
C6463 C6460 1.403 . S
C6463 C6464 1.524 . S
C6463 C6467 1.400 . S
C6464 H6449 0.960 . S
C6464 H6450 0.960 . S
C6464 H6451 0.960 . S
C6464 C6463 1.524 . S
C6465 C6462 1.403 . S
C6465 C6466 1.392 . S
C6465 C6469 1.495 . S
C6466 C6465 1.392 . S
C6466 C6467 1.385 . S
C6466 C6468 1.478 . S
C6467 H6461 0.930 . S
C6467 C6463 1.400 . S
C6467 C6466 1.385 . S
C6468 C6466 1.478 . S
C6468 C6470 1.381 . S
C6468 C6474 1.383 . S
C6469 C6465 1.495 . S
C6469 H6475 0.959 . S
C6469 H6476 0.961 . S
C6469 H6477 0.960 . S
C6470 C6468 1.381 . S
C6470 C6471 1.394 . S
C6470 H6478 0.930 . S
C6471 C6470 1.394 . S
C6471 C6472 1.383 . S
C6471 H6479 0.929 . S
C6472 C6471 1.383 . S
C6472 C6473 1.377 . S
C6473 H6457 0.930 . S
C6473 C6472 1.377 . S
C6473 C6474 1.379 . S
C6474 H6458 0.931 . S
C6474 C6468 1.383 . S
C6474 C6473 1.379 . S
H6475 C6469 0.959 . S
H6476 C6469 0.961 . S
H6477 C6469 0.960 . S
H6478 C6470 0.930 . S
H6479 C6471 0.929 . S
H6480 C6488 0.929 . S
H6481 C6490 0.930 . S
H6482 C6492 0.930 . S
H6483 C6495 0.929 . S
H6484 C6498 0.930 . S
H6485 C6500 0.960 . S
H6486 C6500 0.960 . S
H6487 C6500 0.960 . S
C6488 H6480 0.929 . S
C6488 C6489 1.377 . S
C6488 C6490 1.384 . S
C6489 C6488 1.377 . S
C6489 C6495 1.390 . S
C6490 H6481 0.930 . S
C6490 C6488 1.384 . S
C6490 C6491 1.372 . S
C6491 C6490 1.372 . S
C6491 C6492 1.400 . S
C6491 C6496 1.490 . S
C6492 H6482 0.930 . S
C6492 C6491 1.400 . S
C6492 C6495 1.386 . S
H6493 C6509 0.930 . S
H6494 C6510 0.931 . S
C6495 H6483 0.929 . S
C6495 C6489 1.390 . S
C6495 C6492 1.386 . S
C6496 C6491 1.490 . S
C6496 C6498 1.395 . S
C6496 C6499 1.403 . S
H6497 C6503 0.930 . S
C6498 H6484 0.930 . S
C6498 C6496 1.395 . S
C6498 C6501 1.403 . S
C6499 C6496 1.403 . S
C6499 C6500 1.524 . S
C6499 C6503 1.400 . S
C6500 H6485 0.960 . S
C6500 H6486 0.960 . S
C6500 H6487 0.960 . S
C6500 C6499 1.524 . S
C6501 C6498 1.403 . S
C6501 C6502 1.392 . S
C6501 C6505 1.495 . S
C6502 C6501 1.392 . S
C6502 C6503 1.385 . S
C6502 C6504 1.478 . S
C6503 H6497 0.930 . S
C6503 C6499 1.400 . S
C6503 C6502 1.385 . S
C6504 C6502 1.478 . S
C6504 C6506 1.381 . S
C6504 C6510 1.383 . S
C6505 C6501 1.495 . S
C6505 H6511 0.959 . S
C6505 H6512 0.961 . S
C6505 H6513 0.960 . S
C6506 C6504 1.381 . S
C6506 C6507 1.394 . S
C6506 H6514 0.930 . S
C6507 C6506 1.394 . S
C6507 C6508 1.383 . S
C6507 H6515 0.929 . S
C6508 C6507 1.383 . S
C6508 C6509 1.377 . S
C6509 H6493 0.930 . S
C6509 C6508 1.377 . S
C6509 C6510 1.379 . S
C6510 H6494 0.931 . S
C6510 C6504 1.383 . S
C6510 C6509 1.379 . S
H6511 C6505 0.959 . S
H6512 C6505 0.961 . S
H6513 C6505 0.960 . S
H6514 C6506 0.930 . S
H6515 C6507 0.929 . S
H6516 C6524 0.929 . S
H6517 C6526 0.930 . S
H6518 C6528 0.930 . S
H6519 C6531 0.929 . S
H6520 C6534 0.930 . S
H6521 C6536 0.960 . S
H6522 C6536 0.960 . S
H6523 C6536 0.960 . S
C6524 H6516 0.929 . S
C6524 C6525 1.377 . S
C6524 C6526 1.384 . S
C6525 C6524 1.377 . S
C6525 C6531 1.390 . S
C6526 H6517 0.930 . S
C6526 C6524 1.384 . S
C6526 C6527 1.372 . S
C6527 C6526 1.372 . S
C6527 C6528 1.400 . S
C6527 C6532 1.490 . S
C6528 H6518 0.930 . S
C6528 C6527 1.400 . S
C6528 C6531 1.386 . S
H6529 C6545 0.930 . S
H6530 C6546 0.931 . S
C6531 H6519 0.929 . S
C6531 C6525 1.390 . S
C6531 C6528 1.386 . S
C6532 C6527 1.490 . S
C6532 C6534 1.395 . S
C6532 C6535 1.403 . S
H6533 C6539 0.930 . S
C6534 H6520 0.930 . S
C6534 C6532 1.395 . S
C6534 C6537 1.403 . S
C6535 C6532 1.403 . S
C6535 C6536 1.524 . S
C6535 C6539 1.400 . S
C6536 H6521 0.960 . S
C6536 H6522 0.960 . S
C6536 H6523 0.960 . S
C6536 C6535 1.524 . S
C6537 C6534 1.403 . S
C6537 C6538 1.392 . S
C6537 C6541 1.495 . S
C6538 C6537 1.392 . S
C6538 C6539 1.385 . S
C6538 C6540 1.478 . S
C6539 H6533 0.930 . S
C6539 C6535 1.400 . S
C6539 C6538 1.385 . S
C6540 C6538 1.478 . S
C6540 C6542 1.381 . S
C6540 C6546 1.383 . S
C6541 C6537 1.495 . S
C6541 H6547 0.959 . S
C6541 H6548 0.961 . S
C6541 H6549 0.960 . S
C6542 C6540 1.381 . S
C6542 C6543 1.394 . S
C6542 H6550 0.930 . S
C6543 C6542 1.394 . S
C6543 C6544 1.383 . S
C6543 H6551 0.929 . S
C6544 C6543 1.383 . S
C6544 C6545 1.377 . S
C6545 H6529 0.930 . S
C6545 C6544 1.377 . S
C6545 C6546 1.379 . S
C6546 H6530 0.931 . S
C6546 C6540 1.383 . S
C6546 C6545 1.379 . S
H6547 C6541 0.959 . S
H6548 C6541 0.961 . S
H6549 C6541 0.960 . S
H6550 C6542 0.930 . S
H6551 C6543 0.929 . S
H6552 C6560 0.929 . S
H6553 C6562 0.930 . S
H6554 C6564 0.930 . S
H6555 C6567 0.929 . S
H6556 C6570 0.930 . S
H6557 C6572 0.960 . S
H6558 C6572 0.960 . S
H6559 C6572 0.960 . S
C6560 H6552 0.929 . S
C6560 C6561 1.377 . S
C6560 C6562 1.384 . S
C6561 C6560 1.377 . S
C6561 C6567 1.390 . S
C6562 H6553 0.930 . S
C6562 C6560 1.384 . S
C6562 C6563 1.372 . S
C6563 C6562 1.372 . S
C6563 C6564 1.400 . S
C6563 C6568 1.490 . S
C6564 H6554 0.930 . S
C6564 C6563 1.400 . S
C6564 C6567 1.386 . S
H6565 C6581 0.930 . S
H6566 C6582 0.931 . S
C6567 H6555 0.929 . S
C6567 C6561 1.390 . S
C6567 C6564 1.386 . S
C6568 C6563 1.490 . S
C6568 C6570 1.395 . S
C6568 C6571 1.403 . S
H6569 C6575 0.930 . S
C6570 H6556 0.930 . S
C6570 C6568 1.395 . S
C6570 C6573 1.403 . S
C6571 C6568 1.403 . S
C6571 C6572 1.524 . S
C6571 C6575 1.400 . S
C6572 H6557 0.960 . S
C6572 H6558 0.960 . S
C6572 H6559 0.960 . S
C6572 C6571 1.524 . S
C6573 C6570 1.403 . S
C6573 C6574 1.392 . S
C6573 C6577 1.495 . S
C6574 C6573 1.392 . S
C6574 C6575 1.385 . S
C6574 C6576 1.478 . S
C6575 H6569 0.930 . S
C6575 C6571 1.400 . S
C6575 C6574 1.385 . S
C6576 C6574 1.478 . S
C6576 C6578 1.381 . S
C6576 C6582 1.383 . S
C6577 C6573 1.495 . S
C6577 H6583 0.959 . S
C6577 H6584 0.961 . S
C6577 H6585 0.960 . S
C6578 C6576 1.381 . S
C6578 C6579 1.394 . S
C6578 H6586 0.930 . S
C6579 C6578 1.394 . S
C6579 C6580 1.383 . S
C6579 H6587 0.929 . S
C6580 C6579 1.383 . S
C6580 C6581 1.377 . S
C6581 H6565 0.930 . S
C6581 C6580 1.377 . S
C6581 C6582 1.379 . S
C6582 H6566 0.931 . S
C6582 C6576 1.383 . S
C6582 C6581 1.379 . S
H6583 C6577 0.959 . S
H6584 C6577 0.961 . S
H6585 C6577 0.960 . S
H6586 C6578 0.930 . S
H6587 C6579 0.929 . S
H6588 C6596 0.929 . S
H6589 C6598 0.930 . S
H6590 C6600 0.930 . S
H6591 C6603 0.929 . S
H6592 C6606 0.930 . S
H6593 C6608 0.960 . S
H6594 C6608 0.960 . S
H6595 C6608 0.960 . S
C6596 H6588 0.929 . S
C6596 C6597 1.377 . S
C6596 C6598 1.384 . S
C6597 C6596 1.377 . S
C6597 C6603 1.390 . S
C6598 H6589 0.930 . S
C6598 C6596 1.384 . S
C6598 C6599 1.372 . S
C6599 C6598 1.372 . S
C6599 C6600 1.400 . S
C6599 C6604 1.490 . S
C6600 H6590 0.930 . S
C6600 C6599 1.400 . S
C6600 C6603 1.386 . S
H6601 C6617 0.930 . S
H6602 C6618 0.931 . S
C6603 H6591 0.929 . S
C6603 C6597 1.390 . S
C6603 C6600 1.386 . S
C6604 C6599 1.490 . S
C6604 C6606 1.395 . S
C6604 C6607 1.403 . S
H6605 C6611 0.930 . S
C6606 H6592 0.930 . S
C6606 C6604 1.395 . S
C6606 C6609 1.403 . S
C6607 C6604 1.403 . S
C6607 C6608 1.524 . S
C6607 C6611 1.400 . S
C6608 H6593 0.960 . S
C6608 H6594 0.960 . S
C6608 H6595 0.960 . S
C6608 C6607 1.524 . S
C6609 C6606 1.403 . S
C6609 C6610 1.392 . S
C6609 C6613 1.495 . S
C6610 C6609 1.392 . S
C6610 C6611 1.385 . S
C6610 C6612 1.478 . S
C6611 H6605 0.930 . S
C6611 C6607 1.400 . S
C6611 C6610 1.385 . S
C6612 C6610 1.478 . S
C6612 C6614 1.381 . S
C6612 C6618 1.383 . S
C6613 C6609 1.495 . S
C6613 H6619 0.959 . S
C6613 H6620 0.961 . S
C6613 H6621 0.960 . S
C6614 C6612 1.381 . S
C6614 C6615 1.394 . S
C6614 H6622 0.930 . S
C6615 C6614 1.394 . S
C6615 C6616 1.383 . S
C6615 H6623 0.929 . S
C6616 C6615 1.383 . S
C6616 C6617 1.377 . S
C6617 H6601 0.930 . S
C6617 C6616 1.377 . S
C6617 C6618 1.379 . S
C6618 H6602 0.931 . S
C6618 C6612 1.383 . S
C6618 C6617 1.379 . S
H6619 C6613 0.959 . S
H6620 C6613 0.961 . S
H6621 C6613 0.960 . S
H6622 C6614 0.930 . S
H6623 C6615 0.929 . S
H6624 C6632 0.929 . S
H6625 C6634 0.930 . S
H6626 C6636 0.930 . S
H6627 C6639 0.929 . S
H6628 C6642 0.930 . S
H6629 C6644 0.960 . S
H6630 C6644 0.960 . S
H6631 C6644 0.960 . S
C6632 H6624 0.929 . S
C6632 C6633 1.377 . S
C6632 C6634 1.384 . S
C6633 C6632 1.377 . S
C6633 C6639 1.390 . S
C6634 H6625 0.930 . S
C6634 C6632 1.384 . S
C6634 C6635 1.372 . S
C6635 C6634 1.372 . S
C6635 C6636 1.400 . S
C6635 C6640 1.490 . S
C6636 H6626 0.930 . S
C6636 C6635 1.400 . S
C6636 C6639 1.386 . S
H6637 C6653 0.930 . S
H6638 C6654 0.931 . S
C6639 H6627 0.929 . S
C6639 C6633 1.390 . S
C6639 C6636 1.386 . S
C6640 C6635 1.490 . S
C6640 C6642 1.395 . S
C6640 C6643 1.403 . S
H6641 C6647 0.930 . S
C6642 H6628 0.930 . S
C6642 C6640 1.395 . S
C6642 C6645 1.403 . S
C6643 C6640 1.403 . S
C6643 C6644 1.524 . S
C6643 C6647 1.400 . S
C6644 H6629 0.960 . S
C6644 H6630 0.960 . S
C6644 H6631 0.960 . S
C6644 C6643 1.524 . S
C6645 C6642 1.403 . S
C6645 C6646 1.392 . S
C6645 C6649 1.495 . S
C6646 C6645 1.392 . S
C6646 C6647 1.385 . S
C6646 C6648 1.478 . S
C6647 H6641 0.930 . S
C6647 C6643 1.400 . S
C6647 C6646 1.385 . S
C6648 C6646 1.478 . S
C6648 C6650 1.381 . S
C6648 C6654 1.383 . S
C6649 C6645 1.495 . S
C6649 H6655 0.959 . S
C6649 H6656 0.961 . S
C6649 H6657 0.960 . S
C6650 C6648 1.381 . S
C6650 C6651 1.394 . S
C6650 H6658 0.930 . S
C6651 C6650 1.394 . S
C6651 C6652 1.383 . S
C6651 H6659 0.929 . S
C6652 C6651 1.383 . S
C6652 C6653 1.377 . S
C6653 H6637 0.930 . S
C6653 C6652 1.377 . S
C6653 C6654 1.379 . S
C6654 H6638 0.931 . S
C6654 C6648 1.383 . S
C6654 C6653 1.379 . S
H6655 C6649 0.959 . S
H6656 C6649 0.961 . S
H6657 C6649 0.960 . S
H6658 C6650 0.930 . S
H6659 C6651 0.929 . S
H6660 C6668 0.929 . S
H6661 C6670 0.930 . S
H6662 C6672 0.930 . S
H6663 C6675 0.929 . S
H6664 C6678 0.930 . S
H6665 C6680 0.960 . S
H6666 C6680 0.960 . S
H6667 C6680 0.960 . S
C6668 H6660 0.929 . S
C6668 C6669 1.377 . S
C6668 C6670 1.384 . S
C6669 C6668 1.377 . S
C6669 C6675 1.390 . S
C6670 H6661 0.930 . S
C6670 C6668 1.384 . S
C6670 C6671 1.372 . S
C6671 C6670 1.372 . S
C6671 C6672 1.400 . S
C6671 C6676 1.490 . S
C6672 H6662 0.930 . S
C6672 C6671 1.400 . S
C6672 C6675 1.386 . S
H6673 C6689 0.930 . S
H6674 C6690 0.931 . S
C6675 H6663 0.929 . S
C6675 C6669 1.390 . S
C6675 C6672 1.386 . S
C6676 C6671 1.490 . S
C6676 C6678 1.395 . S
C6676 C6679 1.403 . S
H6677 C6683 0.930 . S
C6678 H6664 0.930 . S
C6678 C6676 1.395 . S
C6678 C6681 1.403 . S
C6679 C6676 1.403 . S
C6679 C6680 1.524 . S
C6679 C6683 1.400 . S
C6680 H6665 0.960 . S
C6680 H6666 0.960 . S
C6680 H6667 0.960 . S
C6680 C6679 1.524 . S
C6681 C6678 1.403 . S
C6681 C6682 1.392 . S
C6681 C6685 1.495 . S
C6682 C6681 1.392 . S
C6682 C6683 1.385 . S
C6682 C6684 1.478 . S
C6683 H6677 0.930 . S
C6683 C6679 1.400 . S
C6683 C6682 1.385 . S
C6684 C6682 1.478 . S
C6684 C6686 1.381 . S
C6684 C6690 1.383 . S
C6685 C6681 1.495 . S
C6685 H6691 0.959 . S
C6685 H6692 0.961 . S
C6685 H6693 0.960 . S
C6686 C6684 1.381 . S
C6686 C6687 1.394 1_565 S
C6686 H6694 0.930 1_565 S
C6687 C6686 1.394 1_545 S
C6687 C6688 1.383 1_545 S
C6687 H6695 0.929 . S
C6688 C6687 1.383 1_565 S
C6688 C6689 1.377 . S
C6689 H6673 0.930 . S
C6689 C6688 1.377 . S
C6689 C6690 1.379 . S
C6690 H6674 0.931 . S
C6690 C6684 1.383 . S
C6690 C6689 1.379 . S
H6691 C6685 0.959 . S
H6692 C6685 0.961 . S
H6693 C6685 0.960 . S
H6694 C6686 0.930 1_545 S
H6695 C6687 0.929 . S
H6696 C6704 0.929 . S
H6697 C6706 0.930 . S
H6698 C6708 0.930 . S
H6699 C6711 0.929 . S
H6700 C6714 0.930 . S
H6701 C6716 0.960 . S
H6702 C6716 0.960 . S
H6703 C6716 0.960 . S
C6704 H6696 0.929 . S
C6704 C6705 1.377 . S
C6704 C6706 1.384 . S
C6705 C6704 1.377 . S
C6705 C6711 1.390 . S
C6706 H6697 0.930 . S
C6706 C6704 1.384 . S
C6706 C6707 1.372 . S
C6707 C6706 1.372 . S
C6707 C6708 1.400 . S
C6707 C6712 1.490 . S
C6708 H6698 0.930 . S
C6708 C6707 1.400 . S
C6708 C6711 1.386 . S
H6709 C6725 0.930 . S
H6710 C6726 0.931 . S
C6711 H6699 0.929 . S
C6711 C6705 1.390 . S
C6711 C6708 1.386 . S
C6712 C6707 1.490 . S
C6712 C6714 1.395 . S
C6712 C6715 1.403 . S
H6713 C6719 0.930 . S
C6714 H6700 0.930 . S
C6714 C6712 1.395 . S
C6714 C6717 1.403 . S
C6715 C6712 1.403 . S
C6715 C6716 1.524 . S
C6715 C6719 1.400 . S
C6716 H6701 0.960 . S
C6716 H6702 0.960 . S
C6716 H6703 0.960 . S
C6716 C6715 1.524 . S
C6717 C6714 1.403 . S
C6717 C6718 1.392 . S
C6717 C6721 1.495 . S
C6718 C6717 1.392 . S
C6718 C6719 1.385 . S
C6718 C6720 1.478 . S
C6719 H6713 0.930 . S
C6719 C6715 1.400 . S
C6719 C6718 1.385 . S
C6720 C6718 1.478 . S
C6720 C6722 1.381 . S
C6720 C6726 1.383 . S
C6721 C6717 1.495 . S
C6721 H6727 0.959 . S
C6721 H6728 0.961 . S
C6721 H6729 0.960 . S
C6722 C6720 1.381 . S
C6722 C6723 1.394 . S
C6722 H6730 0.930 . S
C6723 C6722 1.394 . S
C6723 C6724 1.383 . S
C6723 H6731 0.929 . S
C6724 C6723 1.383 . S
C6724 C6725 1.377 . S
C6725 H6709 0.930 . S
C6725 C6724 1.377 . S
C6725 C6726 1.379 . S
C6726 H6710 0.931 . S
C6726 C6720 1.383 . S
C6726 C6725 1.379 . S
H6727 C6721 0.959 . S
H6728 C6721 0.961 . S
H6729 C6721 0.960 . S
H6730 C6722 0.930 . S
H6731 C6723 0.929 . S
H6732 C6740 0.929 . S
H6733 C6742 0.930 . S
H6734 C6744 0.930 . S
H6735 C6747 0.929 . S
H6736 C6750 0.930 . S
H6737 C6752 0.960 . S
H6738 C6752 0.960 . S
H6739 C6752 0.960 . S
C6740 H6732 0.929 . S
C6740 C6741 1.377 . S
C6740 C6742 1.384 . S
C6741 C6740 1.377 . S
C6741 C6747 1.390 . S
C6742 H6733 0.930 . S
C6742 C6740 1.384 . S
C6742 C6743 1.372 . S
C6743 C6742 1.372 . S
C6743 C6744 1.400 . S
C6743 C6748 1.490 . S
C6744 H6734 0.930 . S
C6744 C6743 1.400 . S
C6744 C6747 1.386 . S
H6745 C6761 0.930 1_556 S
H6746 C6762 0.931 . S
C6747 H6735 0.929 . S
C6747 C6741 1.390 . S
C6747 C6744 1.386 . S
C6748 C6743 1.490 . S
C6748 C6750 1.395 . S
C6748 C6751 1.403 . S
H6749 C6755 0.930 . S
C6750 H6736 0.930 . S
C6750 C6748 1.395 . S
C6750 C6753 1.403 . S
C6751 C6748 1.403 . S
C6751 C6752 1.524 . S
C6751 C6755 1.400 . S
C6752 H6737 0.960 . S
C6752 H6738 0.960 . S
C6752 H6739 0.960 . S
C6752 C6751 1.524 . S
C6753 C6750 1.403 . S
C6753 C6754 1.392 . S
C6753 C6757 1.495 . S
C6754 C6753 1.392 . S
C6754 C6755 1.385 . S
C6754 C6756 1.478 . S
C6755 H6749 0.930 . S
C6755 C6751 1.400 . S
C6755 C6754 1.385 . S
C6756 C6754 1.478 . S
C6756 C6758 1.381 . S
C6756 C6762 1.383 . S
C6757 C6753 1.495 . S
C6757 H6763 0.959 . S
C6757 H6764 0.961 . S
C6757 H6765 0.960 . S
C6758 C6756 1.381 . S
C6758 C6759 1.394 . S
C6758 H6766 0.930 . S
C6759 C6758 1.394 . S
C6759 C6760 1.383 . S
C6759 H6767 0.929 . S
C6760 C6759 1.383 . S
C6760 C6761 1.377 . S
C6761 H6745 0.930 1_554 S
C6761 C6760 1.377 . S
C6761 C6762 1.379 . S
C6762 H6746 0.931 . S
C6762 C6756 1.383 . S
C6762 C6761 1.379 . S
H6763 C6757 0.959 . S
H6764 C6757 0.961 . S
H6765 C6757 0.960 . S
H6766 C6758 0.930 . S
H6767 C6759 0.929 . S
H6768 C6776 0.929 . S
H6769 C6778 0.930 . S
H6770 C6780 0.930 . S
H6771 C6783 0.929 . S
H6772 C6786 0.930 . S
H6773 C6788 0.960 . S
H6774 C6788 0.960 . S
H6775 C6788 0.960 . S
C6776 H6768 0.929 . S
C6776 C6777 1.377 . S
C6776 C6778 1.384 . S
C6777 C6776 1.377 . S
C6777 C6783 1.390 . S
C6778 H6769 0.930 . S
C6778 C6776 1.384 . S
C6778 C6779 1.372 . S
C6779 C6778 1.372 . S
C6779 C6780 1.400 . S
C6779 C6784 1.490 . S
C6780 H6770 0.930 . S
C6780 C6779 1.400 . S
C6780 C6783 1.386 . S
H6781 C6797 0.930 . S
H6782 C6798 0.931 . S
C6783 H6771 0.929 . S
C6783 C6777 1.390 . S
C6783 C6780 1.386 . S
C6784 C6779 1.490 . S
C6784 C6786 1.395 . S
C6784 C6787 1.403 . S
H6785 C6791 0.930 . S
C6786 H6772 0.930 . S
C6786 C6784 1.395 . S
C6786 C6789 1.403 . S
C6787 C6784 1.403 . S
C6787 C6788 1.524 . S
C6787 C6791 1.400 . S
C6788 H6773 0.960 . S
C6788 H6774 0.960 . S
C6788 H6775 0.960 . S
C6788 C6787 1.524 . S
C6789 C6786 1.403 . S
C6789 C6790 1.392 . S
C6789 C6793 1.495 . S
C6790 C6789 1.392 . S
C6790 C6791 1.385 . S
C6790 C6792 1.478 . S
C6791 H6785 0.930 . S
C6791 C6787 1.400 . S
C6791 C6790 1.385 . S
C6792 C6790 1.478 . S
C6792 C6794 1.381 . S
C6792 C6798 1.383 . S
C6793 C6789 1.495 . S
C6793 H6799 0.959 . S
C6793 H6800 0.961 . S
C6793 H6801 0.960 . S
C6794 C6792 1.381 . S
C6794 C6795 1.394 . S
C6794 H6802 0.930 . S
C6795 C6794 1.394 . S
C6795 C6796 1.383 . S
C6795 H6803 0.929 . S
C6796 C6795 1.383 . S
C6796 C6797 1.377 . S
C6797 H6781 0.930 . S
C6797 C6796 1.377 . S
C6797 C6798 1.379 . S
C6798 H6782 0.931 . S
C6798 C6792 1.383 . S
C6798 C6797 1.379 . S
H6799 C6793 0.959 . S
H6800 C6793 0.961 . S
H6801 C6793 0.960 . S
H6802 C6794 0.930 . S
H6803 C6795 0.929 . S
H6804 C6812 0.929 . S
H6805 C6814 0.930 . S
H6806 C6816 0.930 . S
H6807 C6819 0.929 . S
H6808 C6822 0.930 . S
H6809 C6824 0.960 . S
H6810 C6824 0.960 . S
H6811 C6824 0.960 . S
C6812 H6804 0.929 . S
C6812 C6813 1.377 . S
C6812 C6814 1.384 . S
C6813 C6812 1.377 . S
C6813 C6819 1.390 . S
C6814 H6805 0.930 . S
C6814 C6812 1.384 . S
C6814 C6815 1.372 . S
C6815 C6814 1.372 . S
C6815 C6816 1.400 . S
C6815 C6820 1.490 . S
C6816 H6806 0.930 . S
C6816 C6815 1.400 . S
C6816 C6819 1.386 . S
H6817 C6833 0.930 1_556 S
H6818 C6834 0.931 1_556 S
C6819 H6807 0.929 . S
C6819 C6813 1.390 . S
C6819 C6816 1.386 . S
C6820 C6815 1.490 . S
C6820 C6822 1.395 . S
C6820 C6823 1.403 . S
H6821 C6827 0.930 . S
C6822 H6808 0.930 . S
C6822 C6820 1.395 . S
C6822 C6825 1.403 . S
C6823 C6820 1.403 . S
C6823 C6824 1.524 . S
C6823 C6827 1.400 . S
C6824 H6809 0.960 . S
C6824 H6810 0.960 . S
C6824 H6811 0.960 . S
C6824 C6823 1.524 . S
C6825 C6822 1.403 . S
C6825 C6826 1.392 . S
C6825 C6829 1.495 . S
C6826 C6825 1.392 . S
C6826 C6827 1.385 . S
C6826 C6828 1.478 . S
C6827 H6821 0.930 . S
C6827 C6823 1.400 . S
C6827 C6826 1.385 . S
C6828 C6826 1.478 . S
C6828 C6830 1.381 . S
C6828 C6834 1.383 . S
C6829 C6825 1.495 . S
C6829 H6835 0.959 . S
C6829 H6836 0.961 . S
C6829 H6837 0.960 . S
C6830 C6828 1.381 . S
C6830 C6831 1.394 . S
C6830 H6838 0.930 . S
C6831 C6830 1.394 . S
C6831 C6832 1.383 . S
C6831 H6839 0.929 . S
C6832 C6831 1.383 . S
C6832 C6833 1.377 . S
C6833 H6817 0.930 1_554 S
C6833 C6832 1.377 . S
C6833 C6834 1.379 . S
C6834 H6818 0.931 1_554 S
C6834 C6828 1.383 . S
C6834 C6833 1.379 . S
H6835 C6829 0.959 . S
H6836 C6829 0.961 . S
H6837 C6829 0.960 . S
H6838 C6830 0.930 . S
H6839 C6831 0.929 . S
H6840 C6848 0.929 . S
H6841 C6850 0.930 . S
H6842 C6852 0.930 . S
H6843 C6855 0.929 . S
H6844 C6858 0.930 . S
H6845 C6860 0.960 . S
H6846 C6860 0.960 . S
H6847 C6860 0.960 . S
C6848 H6840 0.929 . S
C6848 C6849 1.377 . S
C6848 C6850 1.384 . S
C6849 C6848 1.377 . S
C6849 C6855 1.390 . S
C6850 H6841 0.930 . S
C6850 C6848 1.384 . S
C6850 C6851 1.372 . S
C6851 C6850 1.372 . S
C6851 C6852 1.400 . S
C6851 C6856 1.490 . S
C6852 H6842 0.930 . S
C6852 C6851 1.400 . S
C6852 C6855 1.386 . S
H6853 C6869 0.930 . S
H6854 C6870 0.931 . S
C6855 H6843 0.929 . S
C6855 C6849 1.390 . S
C6855 C6852 1.386 . S
C6856 C6851 1.490 . S
C6856 C6858 1.395 . S
C6856 C6859 1.403 . S
H6857 C6863 0.930 . S
C6858 H6844 0.930 . S
C6858 C6856 1.395 . S
C6858 C6861 1.403 . S
C6859 C6856 1.403 . S
C6859 C6860 1.524 . S
C6859 C6863 1.400 . S
C6860 H6845 0.960 . S
C6860 H6846 0.960 . S
C6860 H6847 0.960 . S
C6860 C6859 1.524 . S
C6861 C6858 1.403 . S
C6861 C6862 1.392 . S
C6861 C6865 1.495 . S
C6862 C6861 1.392 . S
C6862 C6863 1.385 . S
C6862 C6864 1.478 . S
C6863 H6857 0.930 . S
C6863 C6859 1.400 . S
C6863 C6862 1.385 . S
C6864 C6862 1.478 . S
C6864 C6866 1.381 . S
C6864 C6870 1.383 . S
C6865 C6861 1.495 . S
C6865 H6871 0.959 . S
C6865 H6872 0.961 . S
C6865 H6873 0.960 . S
C6866 C6864 1.381 . S
C6866 C6867 1.394 . S
C6866 H6874 0.930 . S
C6867 C6866 1.394 . S
C6867 C6868 1.383 . S
C6867 H6875 0.929 . S
C6868 C6867 1.383 . S
C6868 C6869 1.377 . S
C6869 H6853 0.930 . S
C6869 C6868 1.377 . S
C6869 C6870 1.379 . S
C6870 H6854 0.931 . S
C6870 C6864 1.383 . S
C6870 C6869 1.379 . S
H6871 C6865 0.959 . S
H6872 C6865 0.961 . S
H6873 C6865 0.960 . S
H6874 C6866 0.930 . S
H6875 C6867 0.929 . S
H6876 C6884 0.929 . S
H6877 C6886 0.930 . S
H6878 C6888 0.930 . S
H6879 C6891 0.929 . S
H6880 C6894 0.930 . S
H6881 C6896 0.960 . S
H6882 C6896 0.960 . S
H6883 C6896 0.960 . S
C6884 H6876 0.929 . S
C6884 C6885 1.377 . S
C6884 C6886 1.384 . S
C6885 C6884 1.377 . S
C6885 C6891 1.390 . S
C6886 H6877 0.930 . S
C6886 C6884 1.384 . S
C6886 C6887 1.372 . S
C6887 C6886 1.372 . S
C6887 C6888 1.400 . S
C6887 C6892 1.490 . S
C6888 H6878 0.930 . S
C6888 C6887 1.400 . S
C6888 C6891 1.386 . S
H6889 C6905 0.930 . S
H6890 C6906 0.931 . S
C6891 H6879 0.929 . S
C6891 C6885 1.390 . S
C6891 C6888 1.386 . S
C6892 C6887 1.490 . S
C6892 C6894 1.395 . S
C6892 C6895 1.403 . S
H6893 C6899 0.930 . S
C6894 H6880 0.930 . S
C6894 C6892 1.395 . S
C6894 C6897 1.403 . S
C6895 C6892 1.403 . S
C6895 C6896 1.524 . S
C6895 C6899 1.400 . S
C6896 H6881 0.960 . S
C6896 H6882 0.960 . S
C6896 H6883 0.960 . S
C6896 C6895 1.524 . S
C6897 C6894 1.403 . S
C6897 C6898 1.392 . S
C6897 C6901 1.495 . S
C6898 C6897 1.392 . S
C6898 C6899 1.385 . S
C6898 C6900 1.478 . S
C6899 H6893 0.930 . S
C6899 C6895 1.400 . S
C6899 C6898 1.385 . S
C6900 C6898 1.478 . S
C6900 C6902 1.381 . S
C6900 C6906 1.383 . S
C6901 C6897 1.495 . S
C6901 H6907 0.959 . S
C6901 H6908 0.961 . S
C6901 H6909 0.960 . S
C6902 C6900 1.381 . S
C6902 C6903 1.394 . S
C6902 H6910 0.930 . S
C6903 C6902 1.394 . S
C6903 C6904 1.383 . S
C6903 H6911 0.929 . S
C6904 C6903 1.383 . S
C6904 C6905 1.377 . S
C6905 H6889 0.930 . S
C6905 C6904 1.377 . S
C6905 C6906 1.379 . S
C6906 H6890 0.931 . S
C6906 C6900 1.383 . S
C6906 C6905 1.379 . S
H6907 C6901 0.959 . S
H6908 C6901 0.961 . S
H6909 C6901 0.960 . S
H6910 C6902 0.930 . S
H6911 C6903 0.929 . S
C3465 C665 1.858 . S
C3484 C2168 1.882 . S
C3501 C381 1.751 . S
C3520 C2270 1.723 . S
C3537 C460 1.751 . S
C3556 C2336 1.777 . S
C3592 C2422 1.454 . S
C3573 C585 1.612 . S
C3609 C108 1.612 . S
C3628 C2506 1.484 . S
C3664 C2588 1.770 . S
C3645 C196 1.745 . S
C3700 C2690 1.726 . S
C3681 C313 1.750 . S
C3717 C49 1.854 . S
C3736 C2756 1.875 . S
C3772 C2186 1.362 . S
C3753 C1457 1.388 . S
C3789 C1545 0.756 . S
C3808 C2254 0.740 . S
C3844 C2354 0.981 . S
C3825 C1721 0.978 . S
C3880 C2420 1.556 . S
C3861 C1113 1.555 . S
C3897 C1428 1.559 . S
C3916 C2504 1.559 . S
C3952 C2606 0.953 . S
C3933 C1516 0.979 . S
C3988 C2674 0.686 . S
C3969 C1692 0.756 . S
C4024 C2774 1.357 . S
C4005 C1085 1.388 . S
C4060 C2170 0.819 . S
C4041 C988 0.811 . S
C4077 C1817 1.644 . S
C4096 C2858 1.637 . S
C4132 C2926 1.247 . S
C4113 C2081 1.311 . S
C4168 C3008 0.723 . S
C4149 C1993 0.728 . S
C4185 C761 0.801 . S
C4204 C2758 0.818 . S
C4221 C821 1.311 . S
C4240 C2338 1.259 . S
C4257 C2053 1.647 . S
C4276 C3110 1.607 . S
C4312 C3176 0.736 . S
C4293 C1868 0.740 . S
C4348 C2179 1.866 . S
C4329 C372 1.851 . S
C4384 C3183 1.738 . S
C4365 C645 1.748 . S
C4401 C577 1.746 . S
C4420 C2347 1.776 . S
C4437 C497 1.608 . S
C4456 C3105 1.500 . S
C4492 C2517 1.476 . S
C4473 C57 1.609 . S
C4509 C293 1.742 . S
C4528 C2935 1.772 . S
C4564 C2679 1.720 1_556 S
C4545 C205 1.743 . S
C4600 C3271 1.866 . S
C4581 C145 1.851 . S
C4636 C2175 1.325 . S
C4617 C909 1.384 . S
C4672 C3189 0.757 . S
C4653 C1956 0.752 . S
C4689 C724 0.976 . S
C4708 C2343 0.960 . S
C4725 C1780 1.549 . S
C4744 C3103 1.554 . S
C4761 C937 1.550 . S
C4780 C2515 1.558 . S
C4816 C2931 0.974 . S
C4797 C1985 0.976 . S
C4833 C753 0.752 . S
C4852 C2685 0.764 . S
C4869 C1809 1.385 . S
C4888 C3267 1.349 . S
C4905 C1173 0.803 . S
C4924 C2181 0.776 . S
C4941 C1105 1.643 . S
C4960 C2847 1.633 . S
C4977 C1633 1.308 . S
C4996 C2601 1.263 . S
C5013 C1553 0.721 . S
C5032 C3019 0.709 . S
C5068 C3273 0.731 . S
C5049 C1729 0.807 . S
C5085 C1340 1.308 . S
C5104 C2349 1.262 . S
C5140 C2427 1.619 . S
C5121 C1604 1.640 . S
C5176 C2263 0.733 . S
C5157 C1252 0.732 . S
C5193 C489 1.857 . S
C5212 C3344 1.872 . S
C5248 C3194 1.727 . S
C5229 C557 1.750 . S
C5265 C636 1.748 . S
C5284 C3428 1.785 . S
C5301 C409 1.612 . S
C5320 C3094 1.502 . S
C5337 C284 1.612 . S
C5356 C2842 1.493 . S
C5392 C2924 1.782 . S
C5373 C20 1.750 . S
C5428 C3026 1.734 . S
C5409 C137 1.750 . S
C5464 C3260 1.885 . S
C5445 C225 1.856 . S
C5500 C3362 1.379 . S
C5481 C1641 1.390 . S
C5517 C1193 0.756 . S
C5536 C3178 0.701 . S
C5572 C3446 0.952 . S
C5553 C1289 0.979 . S
C5608 C3092 1.573 . S
C5589 C1377 1.554 . S
C5644 C2840 1.575 . S
C5625 C1613 1.557 . S
C5661 C1164 0.978 . S
C5680 C2942 0.985 . S
C5716 C3010 0.701 . S
C5697 C1261 0.757 . S
C5733 C1349 1.391 . S
C5752 C3278 1.378 . S
C5788 C3346 0.849 . S
C5769 C1965 0.809 . S
C5805 C849 1.648 . S
C5824 C2522 1.605 . S
C5860 C2590 1.191 . S
C5841 C929 1.310 . S
C5896 C2672 0.717 . S
C5877 C1017 0.731 . S
C5932 C3262 0.840 . S
C5913 C1897 0.804 . S
C5949 C1789 1.309 . S
C5968 C3430 1.254 . S
C6004 C2438 1.604 . S
C5985 C900 1.648 . S
C6040 C2252 0.715 . S
C6021 C733 0.735 . S
C6057 C548 1.853 . S
C6076 C3355 1.870 . S
C6112 C2259 1.733 . S
C6093 C469 1.741 . S
C6129 C401 1.743 . S
C6148 C3439 1.768 . S
C6165 C673 1.609 . S
C6184 C2433 1.478 . S
C6201 C233 1.609 . S
C6220 C2853 1.444 . S
C6256 C2599 1.773 . S
C6237 C117 1.742 . S
C6273 C29 1.741 . S
C6292 C3015 1.737 . S
C6309 C321 1.850 . S
C6328 C2767 1.867 . S
C6364 C3351 1.323 . S
C6345 C2044 1.384 . S
C6381 C997 0.753 . S
C6400 C2265 0.703 . S
C6436 C3435 1.014 . S
C6417 C1877 0.975 . S
C6453 C812 1.554 . S
C6472 C2431 1.568 . S
C6489 C2073 1.552 . S
C6508 C2851 1.565 . S
C6544 C2595 0.989 . S
C6525 C1025 0.983 . S
C6561 C1905 0.753 . S
C6580 C3021 0.714 . S
C6616 C2763 1.322 . S
C6597 C841 1.384 . S
C6652 C3357 0.840 . S
C6633 C1525 0.797 . S
C6688 C2511 1.629 1_565 S
C6669 C1369 1.641 . S
C6705 C1465 1.309 . S
C6724 C2937 1.225 . S
C6760 C2683 0.744 . S
C6741 C1201 0.733 . S
C6777 C1281 0.806 . S
C6796 C2769 0.739 . S
C6813 C1076 1.309 . S
C6832 C3441 1.221 . S
C6868 C3099 1.608 . S
C6849 C1437 1.639 . S
C6904 C3187 0.726 . S
C6885 C1701 0.730 . S
