# Generated by pormake.
# Topology ssa, (4,4)-cn, num edge types: 1
# Building blocks:
#     Node 0, Type 0, BuildingBlock: ESEHIV_clean_sbu_0, # of connection points: 4
#     Node 1, Type 0, BuildingBlock: ESEHIV_clean_sbu_0, # of connection points: 4
#     Node 2, Type 0, BuildingBlock: ESEHIV_clean_sbu_0, # of connection points: 4
#     Node 3, Type 0, BuildingBlock: ESEHIV_clean_sbu_0, # of connection points: 4
#     Node 4, Type 0, BuildingBlock: ESEHIV_clean_sbu_0, # of connection points: 4
#     Node 5, Type 0, BuildingBlock: ESEHIV_clean_sbu_0, # of connection points: 4
#     Node 6, Type 1, BuildingBlock: NAWXER_clean_sbu_0, # of connection points: 4
#     Node 7, Type 1, BuildingBlock: NAWXER_clean_sbu_0, # of connection points: 4
#     Node 8, Type 1, BuildingBlock: NAWXER_clean_sbu_0, # of connection points: 4
#     Node 9, Type 1, BuildingBlock: NAWXER_clean_sbu_0, # of connection points: 4
#     Node 10, Type 1, BuildingBlock: NAWXER_clean_sbu_0, # of connection points: 4
#     Node 11, Type 1, BuildingBlock: NAWXER_clean_sbu_0, # of connection points: 4
#     Edge 12, Type (0, 1), BuildingBlock: XIVTED_clean_linker_0, # of connection points: 2
#     Edge 13, Type (0, 1), BuildingBlock: XIVTED_clean_linker_0, # of connection points: 2
#     Edge 14, Type (0, 1), BuildingBlock: XIVTED_clean_linker_0, # of connection points: 2
#     Edge 15, Type (0, 1), BuildingBlock: XIVTED_clean_linker_0, # of connection points: 2
#     Edge 16, Type (0, 1), BuildingBlock: XIVTED_clean_linker_0, # of connection points: 2
#     Edge 17, Type (0, 1), BuildingBlock: XIVTED_clean_linker_0, # of connection points: 2
#     Edge 18, Type (0, 1), BuildingBlock: XIVTED_clean_linker_0, # of connection points: 2
#     Edge 19, Type (0, 1), BuildingBlock: XIVTED_clean_linker_0, # of connection points: 2
#     Edge 20, Type (0, 1), BuildingBlock: XIVTED_clean_linker_0, # of connection points: 2
#     Edge 21, Type (0, 1), BuildingBlock: XIVTED_clean_linker_0, # of connection points: 2
#     Edge 22, Type (0, 1), BuildingBlock: XIVTED_clean_linker_0, # of connection points: 2
#     Edge 23, Type (0, 1), BuildingBlock: XIVTED_clean_linker_0, # of connection points: 2
#     Edge 24, Type (0, 1), BuildingBlock: XIVTED_clean_linker_0, # of connection points: 2
#     Edge 25, Type (0, 1), BuildingBlock: XIVTED_clean_linker_0, # of connection points: 2
#     Edge 26, Type (0, 1), BuildingBlock: XIVTED_clean_linker_0, # of connection points: 2
#     Edge 27, Type (0, 1), BuildingBlock: XIVTED_clean_linker_0, # of connection points: 2
#     Edge 28, Type (0, 1), BuildingBlock: XIVTED_clean_linker_0, # of connection points: 2
#     Edge 29, Type (0, 1), BuildingBlock: XIVTED_clean_linker_0, # of connection points: 2
#     Edge 30, Type (0, 1), BuildingBlock: XIVTED_clean_linker_0, # of connection points: 2
#     Edge 31, Type (0, 1), BuildingBlock: XIVTED_clean_linker_0, # of connection points: 2
#     Edge 32, Type (0, 1), BuildingBlock: XIVTED_clean_linker_0, # of connection points: 2
#     Edge 33, Type (0, 1), BuildingBlock: XIVTED_clean_linker_0, # of connection points: 2
#     Edge 34, Type (0, 1), BuildingBlock: XIVTED_clean_linker_0, # of connection points: 2
#     Edge 35, Type (0, 1), BuildingBlock: XIVTED_clean_linker_0, # of connection points: 2
# Relax obj value: 0.016
# Max RMSD: 0.108
# Mean RMSD: 0.057
data_MOF--net-ssa--node1-ESEHIV_clean_sbu_0--node2-NAWXER_clean_sbu_0--edge1-XIVTED_clean_linker_0
_symmetry_space_group_name_H-M    P1
_symmetry_Int_Tables_number       1
_symmetry_cell_setting            triclinic
loop_
_symmetry_equiv_pos_as_xyz
'x, y, z'
_cell_length_a     44.769378
_cell_length_b     48.903601
_cell_length_c     38.885491
_cell_angle_alpha  88.205529
_cell_angle_beta   90.843886
_cell_angle_gamma 122.76175
loop_
_atom_site_label
_atom_site_type_symbol
_atom_site_fract_x
_atom_site_fract_y
_atom_site_fract_z
_atom_type_partial_charge
Cu0 Cu 1.00363 0.50639 0.02961 0.0
N1 N 0.97342 0.46125 0.02801 0.0
N2 N 0.93971 0.41357 1.00239 0.0
C3 C 0.95799 0.44622 0.99861 0.0
C4 C 0.94384 0.4077 0.03574 0.0
C5 C 0.96463 0.43729 0.0516 0.0
O6 O 0.99117 0.52214 0.98863 0.0
C7 C 0.06323 0.49957 0.03219 0.0
O8 O 0.0411 0.4699 0.02166 0.0
H9 H 0.96137 0.45917 0.97444 0.0
H10 H 0.97348 0.44107 0.07805 0.0
N11 N 0.99746 0.52371 0.06892 0.0
N12 N 0.01409 0.5611 0.10909 0.0
C13 C 0.02408 0.55183 0.08152 0.0
C14 C 0.96922 0.51449 0.08916 0.0
C15 C 0.97944 0.53766 0.11404 0.0
C16 C 0.98067 0.54164 0.98961 0.0
O17 O 0.98516 0.55745 0.01786 0.0
H18 H 0.05011 0.56571 0.06971 0.0
H19 H 0.94311 0.49282 0.08582 0.0
O20 O 0.05315 0.5194 0.03249 0.0
H21 H 0.9328 0.38385 0.04773 0.0
H22 H 0.96271 0.53716 0.13417 0.0
Cu23 Cu 0.52631 0.00739 0.50826 0.0
N24 N 0.54979 1.00081 0.47348 0.0
N25 N 0.56258 0.97495 0.43584 0.0
C26 C 0.54104 0.97177 0.46174 0.0
C27 C 0.58569 0.00733 0.43114 0.0
C28 C 0.57763 0.02321 0.4543 0.0
O29 O 0.47582 0.97449 0.50257 0.0
C30 C 0.57735 0.0161 0.55757 0.0
O31 O 0.59703 0.02175 0.53029 0.0
H32 H 0.51945 0.94879 0.47225 0.0
H33 H 0.59104 0.04923 0.45695 0.0
N34 N 0.53562 0.04942 0.50499 0.0
N35 N 0.54677 0.0968 0.5235 0.0
C36 C 0.54098 0.0675 0.5325 0.0
C37 C 0.5384 0.068 0.47739 0.0
C38 C 0.54495 0.09726 0.48882 0.0
C39 C 0.45337 0.98065 0.49048 0.0
O40 O 0.46297 0.01103 0.48556 0.0
H41 H 0.53959 0.05888 0.55877 0.0
H42 H 0.53532 0.06059 0.45098 0.0
O43 O 0.54455 0.00557 0.55356 0.0
H44 H 0.60658 0.0188 0.41198 0.0
H45 H 0.54799 0.1172 0.47294 0.0
Cu46 Cu 0.50774 0.48227 0.0257 0.0
N47 N 0.50742 0.44416 0.02125 0.0
N48 N 0.5095 0.40502 0.99555 0.0
C49 C 0.51068 0.43305 0.99121 0.0
C50 C 0.50549 0.39822 0.02969 0.0
C51 C 0.50464 0.42268 0.04558 0.0
O52 O 0.53584 0.51049 0.98678 0.0
C53 C 0.43575 0.44876 0.04517 0.0
O54 O 0.44095 0.42544 0.0535 0.0
H55 H 0.51339 0.4451 0.96655 0.0
H56 H 0.50198 0.42458 0.07286 0.0
N57 N 0.52798 0.50221 0.06702 0.0
N58 N 0.53884 0.53455 0.11102 0.0
C59 C 0.51917 0.52099 0.08272 0.0
C60 C 0.55399 0.50353 0.08614 0.0
C61 C 0.56095 0.52375 0.11332 0.0
C62 C 0.56599 0.53705 0.98965 0.0
O63 O 0.57699 0.54946 0.02016 0.0
H64 H 0.49984 0.52586 0.07249 0.0
H65 H 0.56758 0.4915 0.08017 0.0
O66 O 0.45987 0.47375 0.02841 0.0
H67 H 0.50377 0.37734 0.04225 0.0
H68 H 0.58109 0.53043 0.13282 0.0
Cu69 Cu 1.00449 0.49256 0.54115 0.0
N70 N 0.03416 0.47668 0.53656 0.0
N71 N 0.06909 0.46559 0.50756 0.0
C72 C 0.04719 0.47651 0.50566 0.0
C73 C 0.06944 0.45788 0.54115 0.0
C74 C 0.04788 0.46488 0.5591 0.0
O75 O 0.01863 0.52367 0.50263 0.0
C76 C 0.94438 0.42707 0.54322 0.0
O77 O 0.96677 0.41948 0.53303 0.0
H78 H 0.04078 0.48452 0.48204 0.0
H79 H 0.04297 0.46195 0.58652 0.0
N80 N 1.01125 0.51603 0.58064 0.0
N81 N 0.99795 0.54286 0.61669 0.0
C82 C 0.99408 0.53129 0.58475 0.0
C83 C 0.02719 0.5182 0.61093 0.0
C84 C 0.01913 0.5349 0.63323 0.0
C85 C 0.05162 0.54584 0.50429 0.0
O86 O 0.06948 0.54644 0.5317 0.0
H87 H 0.9779 0.53266 0.56471 0.0
H88 H 0.04209 0.50715 0.61693 0.0
O89 O 0.95454 0.45694 0.54385 0.0
H90 H 0.08495 0.44882 0.55209 0.0
H91 H 0.02665 0.53915 0.66004 0.0
Cu92 Cu 0.49745 0.99206 0.01096 0.0
N93 N 0.47013 0.98669 0.97211 0.0
N94 N 0.44685 1.00286 0.93115 0.0
C95 C 0.46425 0.00974 0.96143 0.0
C96 C 0.4415 0.97396 0.92245 0.0
C97 C 0.45595 0.96402 0.94784 0.0
O98 O 0.53065 0.03899 0.01125 0.0
C99 C 0.44519 0.94236 0.05102 0.0
O100 O 0.44447 0.92672 0.02383 0.0
H101 H 0.47438 0.03203 0.97504 0.0
H102 H 0.45705 0.94246 0.94802 0.0
N103 N 0.52202 0.97112 1.00801 0.0
N104 N 0.5454 0.94287 0.02631 0.0
C105 C 0.52562 0.95486 0.03457 0.0
C106 C 0.54053 0.9697 0.9819 0.0
C107 C 0.55517 0.95228 0.99322 0.0
C108 C 0.56422 0.05283 0.01185 0.0
O109 O 0.57784 0.03597 0.02205 0.0
H110 H 0.5143 0.95227 0.05978 0.0
H111 H 0.54337 0.9807 0.9566 0.0
O112 O 0.46634 0.9732 0.05105 0.0
H113 H 0.42883 0.96119 0.89914 0.0
H114 H 0.57115 0.94654 0.97821 0.0
Cu115 Cu 0.52904 0.50806 0.492 0.0
N116 N 0.56455 0.53401 0.45947 0.0
N117 N 0.5949 0.57522 0.42129 0.0
C118 C 0.56328 0.55462 0.43673 0.0
C119 C 0.61693 0.56667 0.43439 0.0
C120 C 0.59806 0.54112 0.45784 0.0
O121 O 0.48735 0.50957 0.48133 0.0
C122 C 0.57608 0.54666 0.54585 0.0
O123 O 0.5913 0.57061 0.52284 0.0
H124 H 0.54016 0.55597 0.43334 0.0
H125 H 0.60863 0.53004 0.47423 0.0
N126 N 0.51536 0.46478 0.49045 0.0
N127 N 0.5018 0.41682 0.51323 0.0
C128 C 0.52173 0.44944 0.516 0.0
C129 C 0.49071 0.44111 0.47045 0.0
C130 C 0.48228 0.41141 0.48446 0.0
C131 C 0.48649 0.53518 0.47929 0.0
O132 O 0.51424 0.56295 0.48912 0.0
H133 H 0.53832 0.46185 0.53789 0.0
H134 H 0.47792 0.44503 0.44878 0.0
O135 O 0.54723 0.52047 0.53837 0.0
H136 H 0.64497 0.57884 0.42869 0.0
H137 H 0.46217 0.38773 0.47514 0.0
C138 C 0.3141 0.52106 0.3023 0.0
C139 C 0.23327 0.5144 0.21089 0.0
O140 O 0.28954 0.49205 0.29459 0.0
Zn141 Zn 0.24527 0.4673 0.2609 0.0
O142 O 0.3159 0.54501 0.28626 0.0
Zn143 Zn 0.2743 0.5195 0.25676 0.0
O144 O 0.23197 0.49771 0.29371 0.0
O145 O 0.20614 0.44443 0.29395 0.0
O146 O 0.25878 0.54037 0.22377 0.0
O147 O 0.2261 0.48674 0.22288 0.0
O148 O 0.25879 0.44372 0.23219 0.0
O149 O 0.29161 0.49685 0.22284 0.0
C150 C 0.20836 0.46942 0.30583 0.0
C151 C 0.28372 0.46825 0.21567 0.0
C152 C 0.7713 0.26907 0.71742 0.0
C153 C 0.70369 0.20634 0.82084 0.0
O154 O 0.7456 0.26908 0.73095 0.0
Zn155 Zn 0.73539 0.23741 0.76841 0.0
O156 O 0.78137 0.25109 0.7309 0.0
Zn157 Zn 0.76796 0.21747 0.7733 0.0
O158 O 0.75316 0.17712 0.75056 0.0
O159 O 0.71569 0.19282 0.74239 0.0
O160 O 0.72835 0.20209 0.81214 0.0
O161 O 0.69751 0.2246 0.80214 0.0
O162 O 0.78144 0.26371 0.80015 0.0
O163 O 0.81049 0.23885 0.80191 0.0
C164 C 0.72451 0.17228 0.73751 0.0
C165 C 0.80746 0.26195 0.81129 0.0
C166 C 0.56011 0.8047 0.29706 0.0
C167 C 0.54914 0.7203 0.22299 0.0
O168 O 0.58939 0.812 0.28302 0.0
Zn169 Zn 0.60863 0.79203 0.24802 0.0
O170 O 0.53168 0.7777 0.29053 0.0
Zn171 Zn 0.55218 0.76199 0.25911 0.0
O172 O 0.58529 0.75409 0.29189 0.0
O173 O 0.64155 0.786 0.27625 0.0
O174 O 0.52366 0.71922 0.23853 0.0
O175 O 0.58045 0.74592 0.22452 0.0
O176 O 0.62436 0.82271 0.20849 0.0
O177 O 0.56632 0.79449 0.21619 0.0
C178 C 0.61793 0.76361 0.296 0.0
C179 C 0.59381 0.81622 0.1993 0.0
C180 C 0.80442 0.53568 0.82304 0.0
C181 C 0.73544 0.54288 0.72745 0.0
O182 O 0.78057 0.51166 0.80614 0.0
Zn183 Zn 0.76847 0.53664 0.77474 0.0
O184 O 0.81197 0.56435 0.81532 0.0
Zn185 Zn 0.79839 0.58928 0.77974 0.0
O186 O 0.77948 0.60786 0.81016 0.0
O187 O 0.74522 0.55437 0.80725 0.0
O188 O 0.7592 0.57022 0.74003 0.0
O189 O 0.73157 0.51665 0.73968 0.0
O190 O 0.8151 0.56282 0.74432 0.0
O191 O 0.84342 0.61541 0.75415 0.0
C192 C 0.75097 0.58112 0.81858 0.0
C193 C 0.84152 0.5919 0.73875 0.0
C194 C 0.28894 0.80475 0.24868 0.0
C195 C 0.20589 0.72069 0.33126 0.0
O196 O 0.26471 0.80918 0.25872 0.0
Zn197 Zn 0.22005 0.7863 0.29353 0.0
O198 O 0.2897 0.7807 0.26091 0.0
Zn199 Zn 0.24901 0.76292 0.29115 0.0
O200 O 0.2067 0.74681 0.25535 0.0
O201 O 0.17945 0.77273 0.26276 0.0
O202 O 0.23317 0.72326 0.31805 0.0
O203 O 0.19902 0.74254 0.32438 0.0
O204 O 0.23428 0.81977 0.32774 0.0
O205 O 0.26684 0.79841 0.32961 0.0
C206 C 0.18212 0.75167 0.24707 0.0
C207 C 0.25953 0.81837 0.34119 0.0
C208 C 0.5119 0.27446 0.80424 0.0
C209 C 0.52801 0.22123 0.70849 0.0
O210 O 0.54072 0.27893 0.79284 0.0
Zn211 Zn 0.52056 0.24765 0.75684 0.0
O212 O 0.48236 0.25387 0.78981 0.0
Zn213 Zn 0.465 0.22148 0.74701 0.0
O214 O 0.43383 0.17856 0.76796 0.0
O215 O 0.48971 0.20202 0.7845 0.0
O216 O 0.49568 0.21262 0.71264 0.0
O217 O 0.55169 0.24077 0.72926 0.0
O218 O 0.50377 0.27029 0.72 0.0
O219 O 0.44551 0.23909 0.71492 0.0
C220 C 0.45731 0.17793 0.78609 0.0
C221 C 0.47488 0.26465 0.70607 0.0
H222 H 0.10919 0.55431 0.06863 0.0
H223 H 0.19086 0.46493 0.16836 0.0
H224 H 0.09048 0.46146 0.04094 0.0
H225 H 0.22827 0.56534 0.18543 0.0
H226 H 0.15524 0.46469 0.12056 0.0
H227 H 0.15489 0.56085 0.10921 0.0
C228 C 0.11513 0.53558 0.07052 0.0
C229 C 0.09562 0.50709 0.05148 0.0
C230 C 0.17131 0.4869 0.13454 0.0
C231 C 0.14752 0.51428 0.09836 0.0
C232 C 0.19158 0.48702 0.16209 0.0
C233 C 0.21241 0.51514 0.18125 0.0
C234 C 0.17129 0.51499 0.12602 0.0
C235 C 0.2125 0.54309 0.17146 0.0
C236 C 0.14115 0.53931 0.09385 0.0
C237 C 0.10452 0.4837 0.05517 0.0
N238 N 0.19194 0.54223 0.1447 0.0
N239 N 0.12944 0.48765 0.07841 0.0
H240 H 0.55126 0.03028 0.61302 0.0
H241 H 0.74068 0.13208 0.70609 0.0
H242 H 0.64457 0.03461 0.57723 0.0
H243 H 0.65527 0.1472 0.72037 0.0
H244 H 0.70243 0.08762 0.66727 0.0
H245 H 0.58553 0.06361 0.66159 0.0
C246 C 0.57871 0.03756 0.61578 0.0
C247 C 0.59515 0.02987 0.59078 0.0
C248 C 0.69204 0.10054 0.67919 0.0
C249 C 0.63463 0.06834 0.64622 0.0
C250 C 0.71382 0.12585 0.70138 0.0
C251 C 0.7013 0.14362 0.71622 0.0
C252 C 0.6574 0.09273 0.67218 0.0
C253 C 0.66622 0.13445 0.7092 0.0
C254 C 0.59835 0.05685 0.64339 0.0
C255 C 0.6309 0.0402 0.59571 0.0
N256 N 0.6456 0.10976 0.68767 0.0
N257 N 0.64953 0.05913 0.62267 0.0
H258 H 0.59493 0.58483 0.14326 0.0
H259 H 0.48743 0.66051 0.21136 0.0
H260 H 0.48279 0.53971 0.1246 0.0
H261 H 0.60114 0.71439 0.19664 0.0
H262 H 0.48329 0.61282 0.18654 0.0
H263 H 0.59571 0.62888 0.17204 0.0
C264 C 0.57037 0.58395 0.14566 0.0
C265 C 0.53884 0.55872 0.13129 0.0
C266 C 0.50904 0.63522 0.18874 0.0
C267 C 0.53953 0.60928 0.16381 0.0
C268 C 0.5114 0.66241 0.20277 0.0
C269 C 0.54463 0.69157 0.206 0.0
C270 C 0.54018 0.63722 0.17846 0.0
C271 C 0.57488 0.69258 0.19461 0.0
C272 C 0.57086 0.60926 0.16178 0.0
C273 C 0.50779 0.55901 0.13488 0.0
N274 N 0.57192 0.66585 0.1816 0.0
N275 N 0.5089 0.58397 0.15072 0.0
H276 H 0.93789 0.53776 0.59196 0.0
H277 H 0.91347 0.62462 0.75035 0.0
H278 H 0.01428 0.57905 0.6744 0.0
H279 H 0.83277 0.56671 0.67603 0.0
H280 H 0.95609 0.61827 0.71767 0.0
H281 H 0.90488 0.55807 0.61728 0.0
C282 C 0.94821 0.55148 0.61515 0.0
C283 C 0.97919 0.55651 0.63095 0.0
C284 C 0.92925 0.60758 0.70818 0.0
C285 C 0.94039 0.57956 0.66083 0.0
C286 C 0.90513 0.61157 0.72654 0.0
C287 C 0.86972 0.59631 0.71564 0.0
C288 C 0.91772 0.58842 0.67874 0.0
C289 C 0.8599 0.57895 0.68517 0.0
C290 C 0.92899 0.56296 0.62983 0.0
C291 C 0.99037 0.57413 0.66149 0.0
N292 N 0.88364 0.57535 0.66795 0.0
N293 N 0.97087 0.58485 0.67557 0.0
H294 H 0.4191 0.87879 0.06667 0.0
H295 H 0.30414 0.86497 0.22763 0.0
H296 H 0.42406 0.96279 0.10569 0.0
H297 H 0.33286 0.79548 0.20915 0.0
H298 H 0.34458 0.90018 0.18143 0.0
H299 H 0.38391 0.84682 0.11663 0.0
C300 C 0.41267 0.89053 0.08574 0.0
C301 C 0.42431 0.9235 0.08186 0.0
C302 C 0.34221 0.87735 0.18769 0.0
C303 C 0.38378 0.88679 0.13929 0.0
C304 C 0.31904 0.85715 0.21396 0.0
C305 C 0.31496 0.82711 0.2222 0.0
C306 C 0.361 0.86721 0.16909 0.0
C307 C 0.33513 0.81839 0.20373 0.0
C308 C 0.39275 0.87226 0.11441 0.0
C309 C 0.41555 0.93744 0.10767 0.0
N310 N 0.35698 0.83817 0.17783 0.0
N311 N 0.39546 0.91891 0.13518 0.0
H312 H 0.55248 0.4233 0.55715 0.0
H313 H 0.42167 0.25712 0.66277 0.0
H314 H 0.44295 0.3572 0.52896 0.0
H315 H 0.53282 0.32314 0.68571 0.0
H316 H 0.42778 0.29332 0.61438 0.0
H317 H 0.545 0.38631 0.60453 0.0
C318 C 0.52685 0.40091 0.56088 0.0
C319 C 0.4983 0.39345 0.53909 0.0
C320 C 0.45076 0.29984 0.63011 0.0
C321 C 0.48939 0.35074 0.59354 0.0
C322 C 0.44725 0.2793 0.65784 0.0
C323 C 0.47678 0.28705 0.67835 0.0
C324 C 0.48401 0.32833 0.62295 0.0
C325 C 0.5093 0.31603 0.67062 0.0
C326 C 0.52256 0.37972 0.58795 0.0
C327 C 0.46578 0.36381 0.5449 0.0
N328 N 0.51201 0.3355 0.64361 0.0
N329 N 0.46214 0.34361 0.57171 0.0
H330 H 0.50498 0.91405 0.42525 0.0
H331 H 0.61706 0.86307 0.31655 0.0
H332 H 0.61711 0.97697 0.40367 0.0
H333 H 0.50329 0.80095 0.32918 0.0
H334 H 0.6173 0.90354 0.3514 0.0
H335 H 0.50363 0.8711 0.39314 0.0
C336 C 0.52936 0.91881 0.41396 0.0
C337 C 0.56124 0.94927 0.41715 0.0
C338 C 0.59223 0.88108 0.34666 0.0
C339 C 0.55979 0.90024 0.3802 0.0
C340 C 0.59204 0.85783 0.32673 0.0
C341 C 0.56005 0.8285 0.31973 0.0
C342 C 0.56019 0.87519 0.35988 0.0
C343 C 0.52857 0.82321 0.33386 0.0
C344 C 0.52851 0.89431 0.39547 0.0
C345 C 0.59187 0.95412 0.40154 0.0
N346 N 0.52941 0.84639 0.3532 0.0
N347 N 0.59037 0.9299 0.38383 0.0
H348 H 0.63384 0.5914 0.98726 0.0
H349 H 0.68078 0.53464 0.81826 0.0
H350 H 0.55654 0.51203 0.92538 0.0
H351 H 0.75712 0.62406 0.86741 0.0
H352 H 0.63465 0.52862 0.8558 0.0
H353 H 0.67848 0.60672 0.94241 0.0
C354 C 0.62604 0.5775 0.96402 0.0
C355 C 0.59137 0.55011 0.96032 0.0
C356 C 0.66135 0.54975 0.85838 0.0
C357 C 0.64256 0.56739 0.90905 0.0
C358 C 0.68786 0.55315 0.83699 0.0
C359 C 0.72303 0.57973 0.83998 0.0
C360 C 0.66988 0.57282 0.88354 0.0
C361 C 0.73038 0.60316 0.86436 0.0
C362 C 0.65162 0.58627 0.93845 0.0
C363 C 0.58289 0.53317 0.92956 0.0
N364 N 0.70408 0.59893 0.88559 0.0
N365 N 0.60837 0.54184 0.9054 0.0
H366 H 0.11936 0.56822 0.48687 0.0
H367 H 0.13901 0.7017 0.35151 0.0
H368 H 0.02974 0.57321 0.45487 0.0
H369 H 0.2163 0.67509 0.36202 0.0
H370 H 0.09895 0.65596 0.38982 0.0
H371 H 0.15528 0.60793 0.4418 0.0
C372 C 0.10721 0.57771 0.47022 0.0
C373 C 0.07163 0.56776 0.47483 0.0
C374 C 0.12456 0.65999 0.38357 0.0
C375 C 0.11287 0.61358 0.42316 0.0
C376 C 0.1476 0.68624 0.36187 0.0
C377 C 0.18129 0.69246 0.35379 0.0
C378 C 0.13539 0.64 0.39771 0.0
C379 C 0.19071 0.67134 0.36766 0.0
C380 C 0.12773 0.60027 0.44435 0.0
C381 C 0.0571 0.58037 0.45217 0.0
N382 N 0.16802 0.64624 0.3892 0.0
N383 N 0.07798 0.60307 0.42752 0.0
H384 H 0.44449 0.05364 0.95434 0.0
H385 H 0.41083 0.11309 0.77368 0.0
H386 H 0.43231 1.00134 0.86224 0.0
H387 H 0.48402 0.17866 0.84926 0.0
H388 H 0.40196 0.06676 0.8097 0.0
H389 H 0.44163 0.09432 0.91956 0.0
C390 C 0.4412 0.05052 0.92686 0.0
C391 C 0.43979 0.02428 0.91124 0.0
C392 C 0.41961 0.09133 0.8184 0.0
C393 C 0.43522 0.07061 0.87138 0.0
C394 C 0.42448 0.11765 0.7981 0.0
C395 C 0.44823 0.14962 0.80862 0.0
C396 C 0.43785 0.09723 0.84972 0.0
C397 C 0.46561 0.15436 0.84022 0.0
C398 C 0.43932 0.07376 0.90707 0.0
C399 C 0.43389 0.02116 0.87551 0.0
N400 N 0.45995 0.12846 0.85973 0.0
N401 N 0.43205 0.04422 0.8567 0.0
H402 H 0.42196 0.4821 0.46256 0.0
H403 H 0.37259 0.57817 0.32625 0.0
H404 H 0.48617 0.58653 0.4486 0.0
H405 H 0.31228 0.47394 0.34302 0.0
H406 H 0.41275 0.58318 0.3731 0.0
H407 H 0.37898 0.48008 0.4219 0.0
C408 C 0.42681 0.5047 0.45126 0.0
C409 C 0.45781 0.5345 0.45896 0.0
C410 C 0.3906 0.55928 0.36649 0.0
C411 C 0.40879 0.53237 0.4116 0.0
C412 C 0.36774 0.55641 0.33972 0.0
C413 C 0.33909 0.52559 0.33045 0.0
C414 C 0.38463 0.53113 0.38407 0.0
C415 C 0.33405 0.49824 0.34894 0.0
C416 C 0.40228 0.50354 0.42786 0.0
C417 C 0.46257 0.563 0.44351 0.0
N418 N 0.35652 0.50168 0.37465 0.0
N419 N 0.43851 0.56122 0.42027 0.0
H420 H 0.92843 0.35317 0.99651 0.0
H421 H 0.82048 0.32216 0.82073 0.0
H422 H 0.90838 0.42167 0.94651 0.0
H423 H 0.84868 0.25572 0.86054 0.0
H424 H 0.8536 0.35877 0.86705 0.0
H425 H 0.89901 0.3163 0.94838 0.0
C426 C 0.91768 0.36036 0.97558 0.0
C427 C 0.92105 0.39065 0.97548 0.0
C428 C 0.85288 0.33634 0.86569 0.0
C429 C 0.88779 0.34889 0.92035 0.0
C430 C 0.83398 0.3154 0.83911 0.0
C431 C 0.83173 0.28578 0.83679 0.0
C432 C 0.86951 0.32762 0.89062 0.0
C433 C 0.84992 0.27842 0.8613 0.0
C434 C 0.9012 0.33946 0.948 0.0
C435 C 0.90694 0.39886 0.94751 0.0
N436 N 0.86781 0.29908 0.88747 0.0
N437 N 0.89099 0.37817 0.92124 0.0
H438 H 0.95014 0.50004 0.93553 0.0
H439 H 0.8354 0.57443 0.87734 0.0
H440 H 0.95622 0.58188 0.98215 0.0
H441 H 0.82327 0.49042 0.82991 0.0
H442 H 0.87876 0.57581 0.91668 0.0
H443 H 0.90465 0.49579 0.89601 0.0
C444 C 0.94235 0.51742 0.93715 0.0
C445 C 0.95711 0.54142 0.96225 0.0
C446 C 0.86657 0.55685 0.89793 0.0
C447 C 0.90466 0.53626 0.91751 0.0
C448 C 0.8416 0.55595 0.8755 0.0
C449 C 0.82574 0.5323 0.85025 0.0
C450 C 0.87626 0.5341 0.8951 0.0
C451 C 0.83471 0.50892 0.84918 0.0
C452 C 0.91612 0.51475 0.91478 0.0
C453 C 0.94566 0.56299 0.96333 0.0
N454 N 0.85971 0.51058 0.87112 0.0
N455 N 0.92013 0.55982 0.94143 0.0
H456 H 0.42761 0.91543 0.48904 0.0
H457 H 0.26683 0.8752 0.36198 0.0
H458 H 0.40103 0.98552 0.45913 0.0
H459 H 0.3034 0.81101 0.38407 0.0
H460 H 0.30943 0.91302 0.40429 0.0
H461 H 0.37553 0.87393 0.45804 0.0
C462 C 0.41057 0.92203 0.47639 0.0
C463 C 0.41901 0.95416 0.47644 0.0
C464 C 0.30781 0.89048 0.40006 0.0
C465 C 0.35937 0.90669 0.44042 0.0
C466 C 0.28343 0.86886 0.37601 0.0
C467 C 0.28181 0.84007 0.36917 0.0
C468 C 0.33048 0.88309 0.41749 0.0
C469 C 0.30399 0.8331 0.38812 0.0
C470 C 0.38086 0.89831 0.45852 0.0
C471 C 0.39577 0.96114 0.45959 0.0
N472 N 0.32745 0.85447 0.41117 0.0
N473 N 0.36724 0.93771 0.44197 0.0
H474 H 0.55124 0.42799 0.93882 0.0
H475 H 0.45775 0.25761 0.84909 0.0
H476 H 0.47242 0.33939 0.99173 0.0
H477 H 0.56655 0.33342 0.82657 0.0
H478 H 0.45823 0.28907 0.8972 0.0
H479 H 0.55308 0.39565 0.89281 0.0
C480 C 0.53433 0.40171 0.94066 0.0
C481 C 0.51164 0.38625 0.96902 0.0
C482 C 0.48201 0.2987 0.88179 0.0
C483 C 0.51325 0.34926 0.91649 0.0
C484 C 0.48172 0.28088 0.85426 0.0
C485 C 0.51217 0.29294 0.83381 0.0
C486 C 0.51267 0.32915 0.88842 0.0
C487 C 0.54256 0.32317 0.84178 0.0
C488 C 0.53553 0.38332 0.91458 0.0
C489 C 0.49043 0.35215 0.97039 0.0
N490 N 0.54194 0.34042 0.86825 0.0
N491 N 0.49144 0.33476 0.94429 0.0
H492 H 0.089 0.42258 0.49783 0.0
H493 H 0.19547 0.51513 0.32488 0.0
H494 H 0.09578 0.5075 0.45287 0.0
H495 H 0.16944 0.41847 0.35256 0.0
H496 H 0.16171 0.51342 0.37421 0.0
H497 H 0.12171 0.42158 0.44789 0.0
C498 C 0.09747 0.44103 0.47758 0.0
C499 C 0.08938 0.46498 0.47939 0.0
C500 C 0.16313 0.49243 0.36954 0.0
C501 C 0.12663 0.46403 0.42244 0.0
C502 C 0.18248 0.4934 0.34128 0.0
C503 C 0.18532 0.46688 0.33447 0.0
C504 C 0.14663 0.46488 0.39169 0.0
C505 C 0.16777 0.43938 0.35671 0.0
C506 C 0.11587 0.44032 0.44902 0.0
C507 C 0.10083 0.48824 0.45235 0.0
N508 N 0.14935 0.43916 0.38452 0.0
N509 N 0.11885 0.48721 0.42519 0.0
H510 H 0.6367 0.09004 1.00706 0.0
H511 H 0.63741 0.19181 0.84111 0.0
H512 H 0.54282 0.08573 0.97029 0.0
H513 H 0.72526 0.18448 0.87443 0.0
H514 H 0.60455 0.16073 0.89336 0.0
H515 H 0.67202 0.13341 0.96469 0.0
C516 C 0.62358 0.09861 0.99052 0.0
C517 C 0.58665 0.08383 0.99201 0.0
C518 C 0.63117 0.16626 0.88928 0.0
C519 C 0.62692 0.13322 0.94272 0.0
C520 C 0.64989 0.184 0.85952 0.0
C521 C 0.68388 0.1903 0.85314 0.0
C522 C 0.64682 0.15517 0.91282 0.0
C523 C 0.69888 0.17971 0.87791 0.0
C524 C 0.64375 0.12331 0.96613 0.0
C525 C 0.5712 0.09622 0.96997 0.0
N526 N 0.68025 0.16262 0.90642 0.0
N527 N 0.59131 0.11983 0.94586 0.0
H528 H 0.54951 0.58418 0.38319 0.0
H529 H 0.67247 0.75264 0.2946 0.0
H530 H 0.66021 0.63143 0.4109 0.0
H531 H 0.57937 0.72926 0.35204 0.0
H532 H 0.67219 0.70763 0.32574 0.0
H533 H 0.56207 0.63487 0.35626 0.0
C534 C 0.57651 0.6051 0.38363 0.0
C535 C 0.6036 0.60356 0.40033 0.0
C536 C 0.65248 0.71309 0.33191 0.0
C537 C 0.61821 0.66164 0.36847 0.0
C538 C 0.65276 0.73883 0.31445 0.0
C539 C 0.6256 0.74438 0.32044 0.0
C540 C 0.62456 0.69284 0.35478 0.0
C541 C 0.60047 0.72553 0.34617 0.0
C542 C 0.58361 0.63401 0.36813 0.0
C543 C 0.63841 0.63144 0.3986 0.0
N544 N 0.60008 0.7002 0.36177 0.0
N545 N 0.64478 0.65954 0.38304 0.0
H546 H 0.52244 0.13666 0.51511 0.0
H547 H 0.58306 0.2119 0.70233 0.0
H548 H 0.57994 0.11148 0.58524 0.0
H549 H 0.49296 0.20149 0.64781 0.0
H550 H 0.59332 0.18626 0.65432 0.0
H551 H 0.52326 0.17251 0.5583 0.0
C552 C 0.53576 0.13914 0.53936 0.0
C553 C 0.55081 0.12088 0.5468 0.0
C554 C 0.57153 0.18991 0.65288 0.0
C555 C 0.55181 0.16165 0.59623 0.0
C556 C 0.56576 0.20459 0.68012 0.0
C557 C 0.53691 0.20845 0.67913 0.0
C558 C 0.5487 0.17974 0.62431 0.0
C559 C 0.51523 0.19855 0.6498 0.0
C560 C 0.53601 0.15937 0.56406 0.0
C561 C 0.56754 0.12479 0.57876 0.0
N562 N 0.52156 0.18467 0.62359 0.0
N563 N 0.56749 0.14466 0.6024 0.0
H564 H 0.37767 0.39839 0.07847 0.0
H565 H 0.33443 0.51581 0.17304 0.0
H566 H 0.42918 0.50089 0.05378 0.0
H567 H 0.2776 0.41225 0.19382 0.0
H568 H 0.36687 0.51002 0.12713 0.0
H569 H 0.3376 0.40197 0.11732 0.0
C570 C 0.38017 0.42156 0.08072 0.0
C571 C 0.40702 0.44942 0.0629 0.0
C572 C 0.34722 0.4885 0.14158 0.0
C573 C 0.3615 0.4538 0.10798 0.0
C574 C 0.32871 0.49178 0.168 0.0
C575 C 0.30331 0.46448 0.18761 0.0
C576 C 0.34055 0.45768 0.1346 0.0
C577 C 0.29702 0.43399 0.17954 0.0
C578 C 0.35734 0.4236 0.10309 0.0
C579 C 0.40888 0.47875 0.06688 0.0
N580 N 0.31563 0.43145 0.15379 0.0
N581 N 0.38675 0.48024 0.08929 0.0
H582 H 0.89745 0.43513 0.57986 0.0
H583 H 0.81148 0.26086 0.67232 0.0
H584 H 0.91614 0.36161 0.54893 0.0
H585 H 0.77534 0.32461 0.69258 0.0
H586 H 0.84751 0.29696 0.62492 0.0
H587 H 0.84994 0.39476 0.61826 0.0
C588 C 0.89115 0.41039 0.58057 0.0
C589 C 0.91118 0.40191 0.5613 0.0
C590 C 0.83153 0.30306 0.63943 0.0
C591 C 0.85715 0.35572 0.60566 0.0
C592 C 0.81097 0.28244 0.66667 0.0
C593 C 0.79052 0.28982 0.6867 0.0
C594 C 0.83229 0.33175 0.63223 0.0
C595 C 0.79072 0.318 0.67784 0.0
C596 C 0.86409 0.38738 0.60266 0.0
C597 C 0.90176 0.36945 0.56344 0.0
N598 N 0.81167 0.33819 0.65152 0.0
N599 N 0.87582 0.34776 0.58549 0.0
H600 H 0.50154 0.89839 0.07389 0.0
H601 H 0.64449 0.86653 0.15699 0.0
H602 H 0.60593 0.94225 0.02949 0.0
H603 H 0.53144 0.80633 0.17564 0.0
H604 H 0.63361 0.89677 0.11193 0.0
H605 H 0.5146 0.86698 0.11382 0.0
C606 C 0.52731 0.9014 0.07262 0.0
C607 C 0.55276 0.92307 0.04851 0.0
C608 C 0.61132 0.87675 0.12583 0.0
C609 C 0.56809 0.88698 0.0943 0.0
C610 C 0.61749 0.85953 0.15153 0.0
C611 C 0.5889 0.83396 0.17037 0.0
C612 C 0.5764 0.86842 0.11931 0.0
C613 C 0.55445 0.82592 0.16212 0.0
C614 C 0.53474 0.88331 0.0953 0.0
C615 C 0.58557 0.92564 0.04764 0.0
N616 N 0.54928 0.84316 0.13752 0.0
N617 N 0.59248 0.90799 0.07048 0.0
H618 H 0.5585 0.49668 0.59241 0.0
H619 H 0.74551 0.59472 0.68915 0.0
H620 H 0.6403 0.59682 0.5688 0.0
H621 H 0.67149 0.49128 0.704 0.0
H622 H 0.70524 0.5962 0.64767 0.0
H623 H 0.5967 0.49504 0.63691 0.0
C624 C 0.58427 0.5185 0.59686 0.0
C625 C 0.59625 0.54694 0.57659 0.0
C626 C 0.69773 0.57311 0.65985 0.0
C627 C 0.64024 0.54502 0.6274 0.0
C628 C 0.72079 0.5722 0.68357 0.0
C629 C 0.71192 0.54279 0.70015 0.0
C630 C 0.66524 0.54445 0.65257 0.0
C631 C 0.6795 0.51445 0.6917 0.0
C632 C 0.60616 0.51742 0.62215 0.0
C633 C 0.62992 0.57435 0.58364 0.0
N634 N 0.65723 0.516 0.66857 0.0
N635 N 0.65074 0.57265 0.60829 0.0
H636 H 0.99381 0.59334 0.14936 0.0
H637 H 0.19629 0.73078 0.19001 0.0
H638 H 0.08598 0.5959 0.11301 0.0
H639 H 0.10947 0.7233 0.24562 0.0
H640 H 0.15398 0.68648 0.15407 0.0
H641 H 0.03349 0.64411 0.1797 0.0
C642 C 0.02223 0.60442 0.14773 0.0
C643 C 0.03645 0.59031 0.12821 0.0
C644 C 0.14394 0.6946 0.17383 0.0
C645 C 0.08182 0.64856 0.16225 0.0
C646 C 0.16815 0.72012 0.19418 0.0
C647 C 0.15632 0.73058 0.22086 0.0
C648 C 0.10739 0.67888 0.18041 0.0
C649 C 0.11958 0.71599 0.22513 0.0
C650 C 0.04483 0.63351 0.16485 0.0
C651 C 0.07356 0.60599 0.12691 0.0
N652 N 0.09627 0.69044 0.20539 0.0
N653 N 0.09475 0.63411 0.14355 0.0
loop_
_geom_bond_atom_site_label_1
_geom_bond_atom_site_label_2
_geom_bond_distance
_geom_bond_site_symmetry_2
_ccdc_geom_bond_type
Cu0 N1 1.998 1_554 S
Cu0 O6 1.997 1_554 S
Cu0 N11 1.984 1_655 S
Cu0 O20 1.935 1_655 S
N1 Cu0 1.998 1_556 S
N1 C3 1.263 . S
N1 C5 1.389 1_556 S
N2 C3 1.358 . S
N2 C4 1.400 . S
C3 N1 1.263 . S
C3 N2 1.358 . S
C3 H9 0.930 . S
C4 N2 1.400 . S
C4 C5 1.351 1_556 S
C4 H21 0.930 . S
C5 N1 1.389 1_554 S
C5 C4 1.351 1_554 S
C5 H10 0.930 . S
O6 Cu0 1.997 1_556 S
O6 C16 1.282 . S
C7 O8 1.261 . S
C7 O20 1.251 . S
O8 C7 1.261 . S
H9 C3 0.930 . S
H10 C5 0.930 . S
N11 Cu0 1.984 1_455 S
N11 C13 1.335 . S
N11 C14 1.390 . S
N12 C13 1.345 . S
N12 C15 1.336 . S
C13 N11 1.335 . S
C13 N12 1.345 . S
C13 H18 0.930 . S
C14 N11 1.390 . S
C14 C15 1.346 . S
C14 H19 0.930 1_554 S
C15 N12 1.336 . S
C15 C14 1.346 . S
C15 H22 0.929 . S
C16 O6 1.282 . S
C16 O17 1.216 1_655 S
O17 C16 1.216 1_455 S
H18 C13 0.930 . S
H19 C14 0.930 1_556 S
O20 Cu0 1.935 1_455 S
O20 C7 1.251 . S
H21 C4 0.930 . S
H22 C15 0.929 . S
Cu23 N24 1.999 . S
Cu23 O29 1.974 . S
Cu23 N34 1.985 1_565 S
Cu23 O43 1.959 1_565 S
N24 Cu23 1.999 . S
N24 C26 1.263 . S
N24 C28 1.389 . S
N25 C26 1.358 . S
N25 C27 1.400 . S
C26 N24 1.263 . S
C26 N25 1.358 . S
C26 H32 0.930 . S
C27 N25 1.400 . S
C27 C28 1.351 . S
C27 H44 0.930 . S
C28 N24 1.389 . S
C28 C27 1.351 . S
C28 H33 0.930 . S
O29 Cu23 1.974 . S
O29 C39 1.282 . S
C30 O31 1.261 . S
C30 O43 1.251 . S
O31 C30 1.261 . S
H32 C26 0.930 . S
H33 C28 0.930 . S
N34 Cu23 1.985 1_545 S
N34 C36 1.335 . S
N34 C37 1.390 . S
N35 C36 1.345 . S
N35 C38 1.336 . S
C36 N34 1.335 . S
C36 N35 1.345 . S
C36 H41 0.930 . S
C37 N34 1.390 . S
C37 C38 1.346 . S
C37 H42 0.930 . S
C38 N35 1.336 . S
C38 C37 1.346 . S
C38 H45 0.929 . S
C39 O29 1.282 . S
C39 O40 1.216 1_565 S
O40 C39 1.216 1_545 S
H41 C36 0.930 . S
H42 C37 0.930 . S
O43 Cu23 1.959 1_545 S
O43 C30 1.251 . S
H44 C27 0.930 . S
H45 C38 0.929 . S
Cu46 N47 1.999 1_554 S
Cu46 O52 1.974 1_554 S
Cu46 N57 1.985 . S
Cu46 O66 1.959 . S
N47 Cu46 1.999 1_556 S
N47 C49 1.263 . S
N47 C51 1.389 . S
N48 C49 1.358 . S
N48 C50 1.400 . S
C49 N47 1.263 . S
C49 N48 1.358 . S
C49 H55 0.930 . S
C50 N48 1.400 . S
C50 C51 1.351 . S
C50 H67 0.930 . S
C51 N47 1.389 . S
C51 C50 1.351 . S
C51 H56 0.930 . S
O52 Cu46 1.974 1_556 S
O52 C62 1.282 . S
C53 O54 1.261 . S
C53 O66 1.251 . S
O54 C53 1.261 . S
H55 C49 0.930 . S
H56 C51 0.930 . S
N57 Cu46 1.985 . S
N57 C59 1.335 . S
N57 C60 1.390 . S
N58 C59 1.345 . S
N58 C61 1.336 . S
C59 N57 1.335 . S
C59 N58 1.345 . S
C59 H64 0.930 . S
C60 N57 1.390 . S
C60 C61 1.346 . S
C60 H65 0.930 . S
C61 N58 1.336 . S
C61 C60 1.346 . S
C61 H68 0.929 . S
C62 O52 1.282 . S
C62 O63 1.216 1_556 S
O63 C62 1.216 1_554 S
H64 C59 0.930 . S
H65 C60 0.930 . S
O66 Cu46 1.959 . S
O66 C53 1.251 . S
H67 C50 0.930 . S
H68 C61 0.929 . S
Cu69 N70 1.999 1_655 S
Cu69 O75 1.974 1_655 S
Cu69 N80 1.985 . S
Cu69 O89 1.959 . S
N70 Cu69 1.999 1_455 S
N70 C72 1.263 . S
N70 C74 1.389 1_455 S
N71 C72 1.358 . S
N71 C73 1.400 . S
C72 N70 1.263 . S
C72 N71 1.358 . S
C72 H78 0.930 . S
C73 N71 1.400 . S
C73 C74 1.351 1_455 S
C73 H90 0.930 1_455 S
C74 N70 1.389 1_655 S
C74 C73 1.351 1_655 S
C74 H79 0.930 . S
O75 Cu69 1.974 1_455 S
O75 C85 1.282 . S
C76 O77 1.261 1_655 S
C76 O89 1.251 . S
O77 C76 1.261 1_455 S
H78 C72 0.930 . S
H79 C74 0.930 . S
N80 Cu69 1.985 . S
N80 C82 1.335 . S
N80 C83 1.390 . S
N81 C82 1.345 . S
N81 C84 1.336 . S
C82 N80 1.335 . S
C82 N81 1.345 . S
C82 H87 0.930 . S
C83 N80 1.390 . S
C83 C84 1.346 . S
C83 H88 0.930 1_655 S
C84 N81 1.336 . S
C84 C83 1.346 . S
C84 H91 0.929 . S
C85 O75 1.282 . S
C85 O86 1.216 . S
O86 C85 1.216 . S
H87 C82 0.930 . S
H88 C83 0.930 1_455 S
O89 Cu69 1.959 . S
O89 C76 1.251 . S
H90 C73 0.930 1_655 S
H91 C84 0.929 . S
Cu92 N93 1.998 . S
Cu92 O98 1.974 1_554 S
Cu92 N103 1.985 1_545 S
Cu92 O112 1.959 1_545 S
N93 Cu92 1.998 . S
N93 C95 1.265 1_554 S
N93 C97 1.388 . S
N94 C95 1.358 . S
N94 C96 1.400 . S
C95 N93 1.265 1_556 S
C95 N94 1.358 . S
C95 H101 0.930 . S
C96 N94 1.400 . S
C96 C97 1.351 1_556 S
C96 H113 0.930 . S
C97 N93 1.388 . S
C97 C96 1.351 1_554 S
C97 H102 0.930 . S
O98 Cu92 1.974 1_556 S
O98 C108 1.282 . S
C99 O100 1.261 . S
C99 O112 1.251 . S
O100 C99 1.261 . S
H101 C95 0.930 . S
H102 C97 0.930 . S
N103 Cu92 1.985 1_565 S
N103 C105 1.335 . S
N103 C106 1.390 . S
N104 C105 1.345 . S
N104 C107 1.336 . S
C105 N103 1.335 . S
C105 N104 1.345 . S
C105 H110 0.930 . S
C106 N103 1.390 . S
C106 C107 1.346 . S
C106 H111 0.930 . S
C107 N104 1.336 . S
C107 C106 1.346 . S
C107 H114 0.929 . S
C108 O98 1.282 . S
C108 O109 1.216 . S
O109 C108 1.216 . S
H110 C105 0.930 . S
H111 C106 0.930 . S
O112 Cu92 1.959 1_565 S
O112 C99 1.251 . S
H113 C96 0.930 . S
H114 C107 0.929 . S
Cu115 N116 1.999 . S
Cu115 O121 1.974 . S
Cu115 N126 1.985 . S
Cu115 O135 1.959 . S
N116 Cu115 1.999 . S
N116 C118 1.263 . S
N116 C120 1.389 . S
N117 C118 1.358 . S
N117 C119 1.400 . S
C118 N116 1.263 . S
C118 N117 1.358 . S
C118 H124 0.930 . S
C119 N117 1.400 . S
C119 C120 1.351 . S
C119 H136 0.930 . S
C120 N116 1.389 . S
C120 C119 1.351 . S
C120 H125 0.930 . S
O121 Cu115 1.974 . S
O121 C131 1.282 . S
C122 O123 1.261 . S
C122 O135 1.251 . S
O123 C122 1.261 . S
H124 C118 0.930 . S
H125 C120 0.930 . S
N126 Cu115 1.985 . S
N126 C128 1.335 . S
N126 C129 1.390 . S
N127 C128 1.345 . S
N127 C130 1.336 . S
C128 N126 1.335 . S
C128 N127 1.345 . S
C128 H133 0.930 . S
C129 N126 1.390 . S
C129 C130 1.346 . S
C129 H134 0.930 . S
C130 N127 1.336 . S
C130 C129 1.346 . S
C130 H137 0.929 . S
C131 O121 1.282 . S
C131 O132 1.216 . S
O132 C131 1.216 . S
H133 C128 0.930 . S
H134 C129 0.930 . S
O135 Cu115 1.959 . S
O135 C122 1.251 . S
H136 C119 0.930 . S
H137 C130 0.929 . S
C138 O140 1.247 . S
C138 O142 1.258 . S
C139 O146 1.247 . S
C139 O147 1.258 . S
O140 C138 1.247 . S
O140 Zn141 2.028 . S
Zn141 O140 2.028 . S
Zn141 O145 2.035 . S
Zn141 O147 2.035 . S
Zn141 O148 2.028 . S
O142 C138 1.258 . S
O142 Zn143 2.035 . S
Zn143 O142 2.035 . S
Zn143 O144 2.028 . S
Zn143 O146 2.028 . S
Zn143 O149 2.035 . S
O144 Zn143 2.028 . S
O144 C150 1.247 . S
O145 Zn141 2.035 . S
O145 C150 1.258 . S
O146 C139 1.247 . S
O146 Zn143 2.028 . S
O147 C139 1.258 . S
O147 Zn141 2.035 . S
O148 Zn141 2.028 . S
O148 C151 1.247 . S
O149 Zn143 2.035 . S
O149 C151 1.258 . S
C150 O144 1.247 . S
C150 O145 1.258 . S
C151 O148 1.247 . S
C151 O149 1.258 . S
C152 O154 1.247 . S
C152 O156 1.258 . S
C153 O160 1.247 . S
C153 O161 1.258 . S
O154 C152 1.247 . S
O154 Zn155 2.028 . S
Zn155 O154 2.028 . S
Zn155 O159 2.035 . S
Zn155 O161 2.035 . S
Zn155 O162 2.028 . S
O156 C152 1.258 . S
O156 Zn157 2.035 . S
Zn157 O156 2.035 . S
Zn157 O158 2.028 . S
Zn157 O160 2.028 . S
Zn157 O163 2.035 . S
O158 Zn157 2.028 . S
O158 C164 1.247 . S
O159 Zn155 2.035 . S
O159 C164 1.258 . S
O160 C153 1.247 . S
O160 Zn157 2.028 . S
O161 C153 1.258 . S
O161 Zn155 2.035 . S
O162 Zn155 2.028 . S
O162 C165 1.247 . S
O163 Zn157 2.035 . S
O163 C165 1.258 . S
C164 O158 1.247 . S
C164 O159 1.258 . S
C165 O162 1.247 . S
C165 O163 1.258 . S
C166 O168 1.247 . S
C166 O170 1.258 . S
C167 O174 1.247 . S
C167 O175 1.258 . S
O168 C166 1.247 . S
O168 Zn169 2.028 . S
Zn169 O168 2.028 . S
Zn169 O173 2.035 . S
Zn169 O175 2.035 . S
Zn169 O176 2.028 . S
O170 C166 1.258 . S
O170 Zn171 2.035 . S
Zn171 O170 2.035 . S
Zn171 O172 2.028 . S
Zn171 O174 2.028 . S
Zn171 O177 2.035 . S
O172 Zn171 2.028 . S
O172 C178 1.247 . S
O173 Zn169 2.035 . S
O173 C178 1.258 . S
O174 C167 1.247 . S
O174 Zn171 2.028 . S
O175 C167 1.258 . S
O175 Zn169 2.035 . S
O176 Zn169 2.028 . S
O176 C179 1.247 . S
O177 Zn171 2.035 . S
O177 C179 1.258 . S
C178 O172 1.247 . S
C178 O173 1.258 . S
C179 O176 1.247 . S
C179 O177 1.258 . S
C180 O182 1.247 . S
C180 O184 1.258 . S
C181 O188 1.247 . S
C181 O189 1.258 . S
O182 C180 1.247 . S
O182 Zn183 2.028 . S
Zn183 O182 2.028 . S
Zn183 O187 2.035 . S
Zn183 O189 2.035 . S
Zn183 O190 2.028 . S
O184 C180 1.258 . S
O184 Zn185 2.035 . S
Zn185 O184 2.035 . S
Zn185 O186 2.028 . S
Zn185 O188 2.028 . S
Zn185 O191 2.035 . S
O186 Zn185 2.028 . S
O186 C192 1.247 . S
O187 Zn183 2.035 . S
O187 C192 1.258 . S
O188 C181 1.247 . S
O188 Zn185 2.028 . S
O189 C181 1.258 . S
O189 Zn183 2.035 . S
O190 Zn183 2.028 . S
O190 C193 1.247 . S
O191 Zn185 2.035 . S
O191 C193 1.258 . S
C192 O186 1.247 . S
C192 O187 1.258 . S
C193 O190 1.247 . S
C193 O191 1.258 . S
C194 O196 1.247 . S
C194 O198 1.258 . S
C195 O202 1.247 . S
C195 O203 1.258 . S
O196 C194 1.247 . S
O196 Zn197 2.028 . S
Zn197 O196 2.028 . S
Zn197 O201 2.035 . S
Zn197 O203 2.035 . S
Zn197 O204 2.028 . S
O198 C194 1.258 . S
O198 Zn199 2.035 . S
Zn199 O198 2.035 . S
Zn199 O200 2.028 . S
Zn199 O202 2.028 . S
Zn199 O205 2.035 . S
O200 Zn199 2.028 . S
O200 C206 1.247 . S
O201 Zn197 2.035 . S
O201 C206 1.258 . S
O202 C195 1.247 . S
O202 Zn199 2.028 . S
O203 C195 1.258 . S
O203 Zn197 2.035 . S
O204 Zn197 2.028 . S
O204 C207 1.247 . S
O205 Zn199 2.035 . S
O205 C207 1.258 . S
C206 O200 1.247 . S
C206 O201 1.258 . S
C207 O204 1.247 . S
C207 O205 1.258 . S
C208 O210 1.247 . S
C208 O212 1.258 . S
C209 O216 1.247 . S
C209 O217 1.258 . S
O210 C208 1.247 . S
O210 Zn211 2.028 . S
Zn211 O210 2.028 . S
Zn211 O215 2.035 . S
Zn211 O217 2.035 . S
Zn211 O218 2.028 . S
O212 C208 1.258 . S
O212 Zn213 2.035 . S
Zn213 O212 2.035 . S
Zn213 O214 2.028 . S
Zn213 O216 2.028 . S
Zn213 O219 2.035 . S
O214 Zn213 2.028 . S
O214 C220 1.247 . S
O215 Zn211 2.035 . S
O215 C220 1.258 . S
O216 C209 1.247 . S
O216 Zn213 2.028 . S
O217 C209 1.258 . S
O217 Zn211 2.035 . S
O218 Zn211 2.028 . S
O218 C221 1.247 . S
O219 Zn213 2.035 . S
O219 C221 1.258 . S
C220 O214 1.247 . S
C220 O215 1.258 . S
C221 O218 1.247 . S
C221 O219 1.258 . S
H222 C228 0.930 . S
H223 C232 0.930 . S
H224 C237 0.929 . S
H225 C235 0.929 . S
H226 C230 0.929 . S
H227 C236 0.929 . S
C228 H222 0.930 . S
C228 C229 1.367 . S
C228 C236 1.378 . S
C229 C228 1.367 . S
C229 C237 1.433 . S
C230 H226 0.929 . S
C230 C232 1.378 . S
C230 C234 1.350 . S
C231 C234 1.463 . S
C231 C236 1.350 . S
C231 N239 1.427 . S
C232 H223 0.930 . S
C232 C230 1.378 . S
C232 C233 1.367 . S
C233 C232 1.367 . S
C233 C235 1.433 . S
C234 C230 1.350 . S
C234 C231 1.463 . S
C234 N238 1.427 . S
C235 H225 0.929 . S
C235 C233 1.433 . S
C235 N238 1.384 . S
C236 H227 0.929 . S
C236 C228 1.378 . S
C236 C231 1.350 . S
C237 H224 0.929 . S
C237 C229 1.433 . S
C237 N239 1.384 . S
N238 C234 1.427 . S
N238 C235 1.384 . S
N239 C231 1.427 . S
N239 C237 1.384 . S
H240 C246 0.930 . S
H241 C250 0.930 . S
H242 C255 0.929 . S
H243 C253 0.929 . S
H244 C248 0.929 . S
H245 C254 0.929 . S
C246 H240 0.930 . S
C246 C247 1.367 . S
C246 C254 1.378 . S
C247 C246 1.367 . S
C247 C255 1.433 . S
C248 H244 0.929 . S
C248 C250 1.378 . S
C248 C252 1.350 . S
C249 C252 1.463 . S
C249 C254 1.350 . S
C249 N257 1.427 . S
C250 H241 0.930 . S
C250 C248 1.378 . S
C250 C251 1.367 . S
C251 C250 1.367 . S
C251 C253 1.433 . S
C252 C248 1.350 . S
C252 C249 1.463 . S
C252 N256 1.427 . S
C253 H243 0.929 . S
C253 C251 1.433 . S
C253 N256 1.384 . S
C254 H245 0.929 . S
C254 C246 1.378 . S
C254 C249 1.350 . S
C255 H242 0.929 . S
C255 C247 1.433 . S
C255 N257 1.384 . S
N256 C252 1.427 . S
N256 C253 1.384 . S
N257 C249 1.427 . S
N257 C255 1.384 . S
H258 C264 0.930 . S
H259 C268 0.930 . S
H260 C273 0.929 . S
H261 C271 0.929 . S
H262 C266 0.929 . S
H263 C272 0.929 . S
C264 H258 0.930 . S
C264 C265 1.367 . S
C264 C272 1.378 . S
C265 C264 1.367 . S
C265 C273 1.433 . S
C266 H262 0.929 . S
C266 C268 1.378 . S
C266 C270 1.350 . S
C267 C270 1.463 . S
C267 C272 1.350 . S
C267 N275 1.427 . S
C268 H259 0.930 . S
C268 C266 1.378 . S
C268 C269 1.367 . S
C269 C268 1.367 . S
C269 C271 1.433 . S
C270 C266 1.350 . S
C270 C267 1.463 . S
C270 N274 1.427 . S
C271 H261 0.929 . S
C271 C269 1.433 . S
C271 N274 1.384 . S
C272 H263 0.929 . S
C272 C264 1.378 . S
C272 C267 1.350 . S
C273 H260 0.929 . S
C273 C265 1.433 . S
C273 N275 1.384 . S
N274 C270 1.427 . S
N274 C271 1.384 . S
N275 C267 1.427 . S
N275 C273 1.384 . S
H276 C282 0.930 . S
H277 C286 0.930 . S
H278 C291 0.929 . S
H279 C289 0.929 . S
H280 C284 0.929 . S
H281 C290 0.929 . S
C282 H276 0.930 . S
C282 C283 1.367 . S
C282 C290 1.378 . S
C283 C282 1.367 . S
C283 C291 1.433 . S
C284 H280 0.929 . S
C284 C286 1.378 . S
C284 C288 1.350 . S
C285 C288 1.463 . S
C285 C290 1.350 . S
C285 N293 1.427 . S
C286 H277 0.930 . S
C286 C284 1.378 . S
C286 C287 1.367 . S
C287 C286 1.367 . S
C287 C289 1.433 . S
C288 C284 1.350 . S
C288 C285 1.463 . S
C288 N292 1.427 . S
C289 H279 0.929 . S
C289 C287 1.433 . S
C289 N292 1.384 . S
C290 H281 0.929 . S
C290 C282 1.378 . S
C290 C285 1.350 . S
C291 H278 0.929 . S
C291 C283 1.433 . S
C291 N293 1.384 . S
N292 C288 1.427 . S
N292 C289 1.384 . S
N293 C285 1.427 . S
N293 C291 1.384 . S
H294 C300 0.930 . S
H295 C304 0.930 . S
H296 C309 0.929 . S
H297 C307 0.929 . S
H298 C302 0.929 . S
H299 C308 0.929 . S
C300 H294 0.930 . S
C300 C301 1.367 . S
C300 C308 1.378 . S
C301 C300 1.367 . S
C301 C309 1.433 . S
C302 H298 0.929 . S
C302 C304 1.378 . S
C302 C306 1.350 . S
C303 C306 1.463 . S
C303 C308 1.350 . S
C303 N311 1.427 . S
C304 H295 0.930 . S
C304 C302 1.378 . S
C304 C305 1.367 . S
C305 C304 1.367 . S
C305 C307 1.433 . S
C306 C302 1.350 . S
C306 C303 1.463 . S
C306 N310 1.427 . S
C307 H297 0.929 . S
C307 C305 1.433 . S
C307 N310 1.384 . S
C308 H299 0.929 . S
C308 C300 1.378 . S
C308 C303 1.350 . S
C309 H296 0.929 . S
C309 C301 1.433 . S
C309 N311 1.384 . S
N310 C306 1.427 . S
N310 C307 1.384 . S
N311 C303 1.427 . S
N311 C309 1.384 . S
H312 C318 0.930 . S
H313 C322 0.930 . S
H314 C327 0.929 . S
H315 C325 0.929 . S
H316 C320 0.929 . S
H317 C326 0.929 . S
C318 H312 0.930 . S
C318 C319 1.367 . S
C318 C326 1.378 . S
C319 C318 1.367 . S
C319 C327 1.433 . S
C320 H316 0.929 . S
C320 C322 1.378 . S
C320 C324 1.350 . S
C321 C324 1.463 . S
C321 C326 1.350 . S
C321 N329 1.427 . S
C322 H313 0.930 . S
C322 C320 1.378 . S
C322 C323 1.367 . S
C323 C322 1.367 . S
C323 C325 1.433 . S
C324 C320 1.350 . S
C324 C321 1.463 . S
C324 N328 1.427 . S
C325 H315 0.929 . S
C325 C323 1.433 . S
C325 N328 1.384 . S
C326 H317 0.929 . S
C326 C318 1.378 . S
C326 C321 1.350 . S
C327 H314 0.929 . S
C327 C319 1.433 . S
C327 N329 1.384 . S
N328 C324 1.427 . S
N328 C325 1.384 . S
N329 C321 1.427 . S
N329 C327 1.384 . S
H330 C336 0.930 . S
H331 C340 0.930 . S
H332 C345 0.929 . S
H333 C343 0.929 . S
H334 C338 0.929 . S
H335 C344 0.929 . S
C336 H330 0.930 . S
C336 C337 1.367 . S
C336 C344 1.378 . S
C337 C336 1.367 . S
C337 C345 1.433 . S
C338 H334 0.929 . S
C338 C340 1.378 . S
C338 C342 1.350 . S
C339 C342 1.463 . S
C339 C344 1.350 . S
C339 N347 1.427 . S
C340 H331 0.930 . S
C340 C338 1.378 . S
C340 C341 1.367 . S
C341 C340 1.367 . S
C341 C343 1.433 . S
C342 C338 1.350 . S
C342 C339 1.463 . S
C342 N346 1.427 . S
C343 H333 0.929 . S
C343 C341 1.433 . S
C343 N346 1.384 . S
C344 H335 0.929 . S
C344 C336 1.378 . S
C344 C339 1.350 . S
C345 H332 0.929 . S
C345 C337 1.433 . S
C345 N347 1.384 . S
N346 C342 1.427 . S
N346 C343 1.384 . S
N347 C339 1.427 . S
N347 C345 1.384 . S
H348 C354 0.930 . S
H349 C358 0.930 . S
H350 C363 0.929 . S
H351 C361 0.929 . S
H352 C356 0.929 . S
H353 C362 0.929 . S
C354 H348 0.930 . S
C354 C355 1.367 . S
C354 C362 1.378 . S
C355 C354 1.367 . S
C355 C363 1.433 . S
C356 H352 0.929 . S
C356 C358 1.378 . S
C356 C360 1.350 . S
C357 C360 1.463 . S
C357 C362 1.350 . S
C357 N365 1.427 . S
C358 H349 0.930 . S
C358 C356 1.378 . S
C358 C359 1.367 . S
C359 C358 1.367 . S
C359 C361 1.433 . S
C360 C356 1.350 . S
C360 C357 1.463 . S
C360 N364 1.427 . S
C361 H351 0.929 . S
C361 C359 1.433 . S
C361 N364 1.384 . S
C362 H353 0.929 . S
C362 C354 1.378 . S
C362 C357 1.350 . S
C363 H350 0.929 . S
C363 C355 1.433 . S
C363 N365 1.384 . S
N364 C360 1.427 . S
N364 C361 1.384 . S
N365 C357 1.427 . S
N365 C363 1.384 . S
H366 C372 0.930 . S
H367 C376 0.930 . S
H368 C381 0.929 . S
H369 C379 0.929 . S
H370 C374 0.929 . S
H371 C380 0.929 . S
C372 H366 0.930 . S
C372 C373 1.367 . S
C372 C380 1.378 . S
C373 C372 1.367 . S
C373 C381 1.433 . S
C374 H370 0.929 . S
C374 C376 1.378 . S
C374 C378 1.350 . S
C375 C378 1.463 . S
C375 C380 1.350 . S
C375 N383 1.427 . S
C376 H367 0.930 . S
C376 C374 1.378 . S
C376 C377 1.367 . S
C377 C376 1.367 . S
C377 C379 1.433 . S
C378 C374 1.350 . S
C378 C375 1.463 . S
C378 N382 1.427 . S
C379 H369 0.929 . S
C379 C377 1.433 . S
C379 N382 1.384 . S
C380 H371 0.929 . S
C380 C372 1.378 . S
C380 C375 1.350 . S
C381 H368 0.929 . S
C381 C373 1.433 . S
C381 N383 1.384 . S
N382 C378 1.427 . S
N382 C379 1.384 . S
N383 C375 1.427 . S
N383 C381 1.384 . S
H384 C390 0.930 . S
H385 C394 0.930 . S
H386 C399 0.929 . S
H387 C397 0.929 . S
H388 C392 0.929 . S
H389 C398 0.929 . S
C390 H384 0.930 . S
C390 C391 1.367 . S
C390 C398 1.378 . S
C391 C390 1.367 . S
C391 C399 1.433 . S
C392 H388 0.929 . S
C392 C394 1.378 . S
C392 C396 1.350 . S
C393 C396 1.463 . S
C393 C398 1.350 . S
C393 N401 1.427 . S
C394 H385 0.930 . S
C394 C392 1.378 . S
C394 C395 1.367 . S
C395 C394 1.367 . S
C395 C397 1.433 . S
C396 C392 1.350 . S
C396 C393 1.463 . S
C396 N400 1.427 . S
C397 H387 0.929 . S
C397 C395 1.433 . S
C397 N400 1.384 . S
C398 H389 0.929 . S
C398 C390 1.378 . S
C398 C393 1.350 . S
C399 H386 0.929 . S
C399 C391 1.433 . S
C399 N401 1.384 . S
N400 C396 1.427 . S
N400 C397 1.384 . S
N401 C393 1.427 . S
N401 C399 1.384 . S
H402 C408 0.930 . S
H403 C412 0.930 . S
H404 C417 0.929 . S
H405 C415 0.929 . S
H406 C410 0.929 . S
H407 C416 0.929 . S
C408 H402 0.930 . S
C408 C409 1.367 . S
C408 C416 1.378 . S
C409 C408 1.367 . S
C409 C417 1.433 . S
C410 H406 0.929 . S
C410 C412 1.378 . S
C410 C414 1.350 . S
C411 C414 1.463 . S
C411 C416 1.350 . S
C411 N419 1.427 . S
C412 H403 0.930 . S
C412 C410 1.378 . S
C412 C413 1.367 . S
C413 C412 1.367 . S
C413 C415 1.433 . S
C414 C410 1.350 . S
C414 C411 1.463 . S
C414 N418 1.427 . S
C415 H405 0.929 . S
C415 C413 1.433 . S
C415 N418 1.384 . S
C416 H407 0.929 . S
C416 C408 1.378 . S
C416 C411 1.350 . S
C417 H404 0.929 . S
C417 C409 1.433 . S
C417 N419 1.384 . S
N418 C414 1.427 . S
N418 C415 1.384 . S
N419 C411 1.427 . S
N419 C417 1.384 . S
H420 C426 0.930 . S
H421 C430 0.930 . S
H422 C435 0.929 . S
H423 C433 0.929 . S
H424 C428 0.929 . S
H425 C434 0.929 . S
C426 H420 0.930 . S
C426 C427 1.367 . S
C426 C434 1.378 . S
C427 C426 1.367 . S
C427 C435 1.433 . S
C428 H424 0.929 . S
C428 C430 1.378 . S
C428 C432 1.350 . S
C429 C432 1.463 . S
C429 C434 1.350 . S
C429 N437 1.427 . S
C430 H421 0.930 . S
C430 C428 1.378 . S
C430 C431 1.367 . S
C431 C430 1.367 . S
C431 C433 1.433 . S
C432 C428 1.350 . S
C432 C429 1.463 . S
C432 N436 1.427 . S
C433 H423 0.929 . S
C433 C431 1.433 . S
C433 N436 1.384 . S
C434 H425 0.929 . S
C434 C426 1.378 . S
C434 C429 1.350 . S
C435 H422 0.929 . S
C435 C427 1.433 . S
C435 N437 1.384 . S
N436 C432 1.427 . S
N436 C433 1.384 . S
N437 C429 1.427 . S
N437 C435 1.384 . S
H438 C444 0.930 . S
H439 C448 0.930 . S
H440 C453 0.929 1_455 S
H441 C451 0.929 . S
H442 C446 0.929 . S
H443 C452 0.929 . S
C444 H438 0.930 . S
C444 C445 1.367 . S
C444 C452 1.378 . S
C445 C444 1.367 . S
C445 C453 1.433 . S
C446 H442 0.929 . S
C446 C448 1.378 . S
C446 C450 1.350 . S
C447 C450 1.463 . S
C447 C452 1.350 . S
C447 N455 1.427 . S
C448 H439 0.930 . S
C448 C446 1.378 . S
C448 C449 1.367 . S
C449 C448 1.367 . S
C449 C451 1.433 . S
C450 C446 1.350 . S
C450 C447 1.463 . S
C450 N454 1.427 . S
C451 H441 0.929 . S
C451 C449 1.433 . S
C451 N454 1.384 . S
C452 H443 0.929 . S
C452 C444 1.378 . S
C452 C447 1.350 . S
C453 H440 0.929 1_655 S
C453 C445 1.433 . S
C453 N455 1.384 . S
N454 C450 1.427 . S
N454 C451 1.384 . S
N455 C447 1.427 . S
N455 C453 1.384 . S
H456 C462 0.930 . S
H457 C466 0.930 . S
H458 C471 0.929 . S
H459 C469 0.929 . S
H460 C464 0.929 . S
H461 C470 0.929 . S
C462 H456 0.930 . S
C462 C463 1.367 . S
C462 C470 1.378 . S
C463 C462 1.367 . S
C463 C471 1.433 . S
C464 H460 0.929 . S
C464 C466 1.378 . S
C464 C468 1.350 . S
C465 C468 1.463 . S
C465 C470 1.350 . S
C465 N473 1.427 . S
C466 H457 0.930 . S
C466 C464 1.378 . S
C466 C467 1.367 . S
C467 C466 1.367 . S
C467 C469 1.433 . S
C468 C464 1.350 . S
C468 C465 1.463 . S
C468 N472 1.427 . S
C469 H459 0.929 . S
C469 C467 1.433 . S
C469 N472 1.384 . S
C470 H461 0.929 . S
C470 C462 1.378 . S
C470 C465 1.350 . S
C471 H458 0.929 . S
C471 C463 1.433 . S
C471 N473 1.384 . S
N472 C468 1.427 . S
N472 C469 1.384 . S
N473 C465 1.427 . S
N473 C471 1.384 . S
H474 C480 0.930 . S
H475 C484 0.930 . S
H476 C489 0.929 . S
H477 C487 0.929 . S
H478 C482 0.929 . S
H479 C488 0.929 . S
C480 H474 0.930 . S
C480 C481 1.367 . S
C480 C488 1.378 . S
C481 C480 1.367 . S
C481 C489 1.433 . S
C482 H478 0.929 . S
C482 C484 1.378 . S
C482 C486 1.350 . S
C483 C486 1.463 . S
C483 C488 1.350 . S
C483 N491 1.427 . S
C484 H475 0.930 . S
C484 C482 1.378 . S
C484 C485 1.367 . S
C485 C484 1.367 . S
C485 C487 1.433 . S
C486 C482 1.350 . S
C486 C483 1.463 . S
C486 N490 1.427 . S
C487 H477 0.929 . S
C487 C485 1.433 . S
C487 N490 1.384 . S
C488 H479 0.929 . S
C488 C480 1.378 . S
C488 C483 1.350 . S
C489 H476 0.929 . S
C489 C481 1.433 . S
C489 N491 1.384 . S
N490 C486 1.427 . S
N490 C487 1.384 . S
N491 C483 1.427 . S
N491 C489 1.384 . S
H492 C498 0.930 . S
H493 C502 0.930 . S
H494 C507 0.929 . S
H495 C505 0.929 . S
H496 C500 0.929 . S
H497 C506 0.929 . S
C498 H492 0.930 . S
C498 C499 1.367 . S
C498 C506 1.378 . S
C499 C498 1.367 . S
C499 C507 1.433 . S
C500 H496 0.929 . S
C500 C502 1.378 . S
C500 C504 1.350 . S
C501 C504 1.463 . S
C501 C506 1.350 . S
C501 N509 1.427 . S
C502 H493 0.930 . S
C502 C500 1.378 . S
C502 C503 1.367 . S
C503 C502 1.367 . S
C503 C505 1.433 . S
C504 C500 1.350 . S
C504 C501 1.463 . S
C504 N508 1.427 . S
C505 H495 0.929 . S
C505 C503 1.433 . S
C505 N508 1.384 . S
C506 H497 0.929 . S
C506 C498 1.378 . S
C506 C501 1.350 . S
C507 H494 0.929 . S
C507 C499 1.433 . S
C507 N509 1.384 . S
N508 C504 1.427 . S
N508 C505 1.384 . S
N509 C501 1.427 . S
N509 C507 1.384 . S
H510 C516 0.930 . S
H511 C520 0.930 . S
H512 C525 0.929 . S
H513 C523 0.929 . S
H514 C518 0.929 . S
H515 C524 0.929 . S
C516 H510 0.930 . S
C516 C517 1.367 . S
C516 C524 1.378 . S
C517 C516 1.367 . S
C517 C525 1.433 . S
C518 H514 0.929 . S
C518 C520 1.378 . S
C518 C522 1.350 . S
C519 C522 1.463 . S
C519 C524 1.350 . S
C519 N527 1.427 . S
C520 H511 0.930 . S
C520 C518 1.378 . S
C520 C521 1.367 . S
C521 C520 1.367 . S
C521 C523 1.433 . S
C522 C518 1.350 . S
C522 C519 1.463 . S
C522 N526 1.427 . S
C523 H513 0.929 . S
C523 C521 1.433 . S
C523 N526 1.384 . S
C524 H515 0.929 . S
C524 C516 1.378 . S
C524 C519 1.350 . S
C525 H512 0.929 . S
C525 C517 1.433 . S
C525 N527 1.384 . S
N526 C522 1.427 . S
N526 C523 1.384 . S
N527 C519 1.427 . S
N527 C525 1.384 . S
H528 C534 0.930 . S
H529 C538 0.930 . S
H530 C543 0.929 . S
H531 C541 0.929 . S
H532 C536 0.929 . S
H533 C542 0.929 . S
C534 H528 0.930 . S
C534 C535 1.367 . S
C534 C542 1.378 . S
C535 C534 1.367 . S
C535 C543 1.433 . S
C536 H532 0.929 . S
C536 C538 1.378 . S
C536 C540 1.350 . S
C537 C540 1.463 . S
C537 C542 1.350 . S
C537 N545 1.427 . S
C538 H529 0.930 . S
C538 C536 1.378 . S
C538 C539 1.367 . S
C539 C538 1.367 . S
C539 C541 1.433 . S
C540 C536 1.350 . S
C540 C537 1.463 . S
C540 N544 1.427 . S
C541 H531 0.929 . S
C541 C539 1.433 . S
C541 N544 1.384 . S
C542 H533 0.929 . S
C542 C534 1.378 . S
C542 C537 1.350 . S
C543 H530 0.929 . S
C543 C535 1.433 . S
C543 N545 1.384 . S
N544 C540 1.427 . S
N544 C541 1.384 . S
N545 C537 1.427 . S
N545 C543 1.384 . S
H546 C552 0.930 . S
H547 C556 0.930 . S
H548 C561 0.929 . S
H549 C559 0.929 . S
H550 C554 0.929 . S
H551 C560 0.929 . S
C552 H546 0.930 . S
C552 C553 1.367 . S
C552 C560 1.378 . S
C553 C552 1.367 . S
C553 C561 1.433 . S
C554 H550 0.929 . S
C554 C556 1.378 . S
C554 C558 1.350 . S
C555 C558 1.463 . S
C555 C560 1.350 . S
C555 N563 1.427 . S
C556 H547 0.930 . S
C556 C554 1.378 . S
C556 C557 1.367 . S
C557 C556 1.367 . S
C557 C559 1.433 . S
C558 C554 1.350 . S
C558 C555 1.463 . S
C558 N562 1.427 . S
C559 H549 0.929 . S
C559 C557 1.433 . S
C559 N562 1.384 . S
C560 H551 0.929 . S
C560 C552 1.378 . S
C560 C555 1.350 . S
C561 H548 0.929 . S
C561 C553 1.433 . S
C561 N563 1.384 . S
N562 C558 1.427 . S
N562 C559 1.384 . S
N563 C555 1.427 . S
N563 C561 1.384 . S
H564 C570 0.930 . S
H565 C574 0.930 . S
H566 C579 0.929 . S
H567 C577 0.929 . S
H568 C572 0.929 . S
H569 C578 0.929 . S
C570 H564 0.930 . S
C570 C571 1.367 . S
C570 C578 1.378 . S
C571 C570 1.367 . S
C571 C579 1.433 . S
C572 H568 0.929 . S
C572 C574 1.378 . S
C572 C576 1.350 . S
C573 C576 1.463 . S
C573 C578 1.350 . S
C573 N581 1.427 . S
C574 H565 0.930 . S
C574 C572 1.378 . S
C574 C575 1.367 . S
C575 C574 1.367 . S
C575 C577 1.433 . S
C576 C572 1.350 . S
C576 C573 1.463 . S
C576 N580 1.427 . S
C577 H567 0.929 . S
C577 C575 1.433 . S
C577 N580 1.384 . S
C578 H569 0.929 . S
C578 C570 1.378 . S
C578 C573 1.350 . S
C579 H566 0.929 . S
C579 C571 1.433 . S
C579 N581 1.384 . S
N580 C576 1.427 . S
N580 C577 1.384 . S
N581 C573 1.427 . S
N581 C579 1.384 . S
H582 C588 0.930 . S
H583 C592 0.930 . S
H584 C597 0.929 . S
H585 C595 0.929 . S
H586 C590 0.929 . S
H587 C596 0.929 . S
C588 H582 0.930 . S
C588 C589 1.367 . S
C588 C596 1.378 . S
C589 C588 1.367 . S
C589 C597 1.433 . S
C590 H586 0.929 . S
C590 C592 1.378 . S
C590 C594 1.350 . S
C591 C594 1.463 . S
C591 C596 1.350 . S
C591 N599 1.427 . S
C592 H583 0.930 . S
C592 C590 1.378 . S
C592 C593 1.367 . S
C593 C592 1.367 . S
C593 C595 1.433 . S
C594 C590 1.350 . S
C594 C591 1.463 . S
C594 N598 1.427 . S
C595 H585 0.929 . S
C595 C593 1.433 . S
C595 N598 1.384 . S
C596 H587 0.929 . S
C596 C588 1.378 . S
C596 C591 1.350 . S
C597 H584 0.929 . S
C597 C589 1.433 . S
C597 N599 1.384 . S
N598 C594 1.427 . S
N598 C595 1.384 . S
N599 C591 1.427 . S
N599 C597 1.384 . S
H600 C606 0.930 . S
H601 C610 0.930 . S
H602 C615 0.929 . S
H603 C613 0.929 . S
H604 C608 0.929 . S
H605 C614 0.929 . S
C606 H600 0.930 . S
C606 C607 1.367 . S
C606 C614 1.378 . S
C607 C606 1.367 . S
C607 C615 1.433 . S
C608 H604 0.929 . S
C608 C610 1.378 . S
C608 C612 1.350 . S
C609 C612 1.463 . S
C609 C614 1.350 . S
C609 N617 1.427 . S
C610 H601 0.930 . S
C610 C608 1.378 . S
C610 C611 1.367 . S
C611 C610 1.367 . S
C611 C613 1.433 . S
C612 C608 1.350 . S
C612 C609 1.463 . S
C612 N616 1.427 . S
C613 H603 0.929 . S
C613 C611 1.433 . S
C613 N616 1.384 . S
C614 H605 0.929 . S
C614 C606 1.378 . S
C614 C609 1.350 . S
C615 H602 0.929 . S
C615 C607 1.433 . S
C615 N617 1.384 . S
N616 C612 1.427 . S
N616 C613 1.384 . S
N617 C609 1.427 . S
N617 C615 1.384 . S
H618 C624 0.930 . S
H619 C628 0.930 . S
H620 C633 0.929 . S
H621 C631 0.929 . S
H622 C626 0.929 . S
H623 C632 0.929 . S
C624 H618 0.930 . S
C624 C625 1.367 . S
C624 C632 1.378 . S
C625 C624 1.367 . S
C625 C633 1.433 . S
C626 H622 0.929 . S
C626 C628 1.378 . S
C626 C630 1.350 . S
C627 C630 1.463 . S
C627 C632 1.350 . S
C627 N635 1.427 . S
C628 H619 0.930 . S
C628 C626 1.378 . S
C628 C629 1.367 . S
C629 C628 1.367 . S
C629 C631 1.433 . S
C630 C626 1.350 . S
C630 C627 1.463 . S
C630 N634 1.427 . S
C631 H621 0.929 . S
C631 C629 1.433 . S
C631 N634 1.384 . S
C632 H623 0.929 . S
C632 C624 1.378 . S
C632 C627 1.350 . S
C633 H620 0.929 . S
C633 C625 1.433 . S
C633 N635 1.384 . S
N634 C630 1.427 . S
N634 C631 1.384 . S
N635 C627 1.427 . S
N635 C633 1.384 . S
H636 C642 0.930 . S
H637 C646 0.930 . S
H638 C651 0.929 . S
H639 C649 0.929 . S
H640 C644 0.929 . S
H641 C650 0.929 . S
C642 H636 0.930 . S
C642 C643 1.367 . S
C642 C650 1.378 . S
C643 C642 1.367 . S
C643 C651 1.433 . S
C644 H640 0.929 . S
C644 C646 1.378 . S
C644 C648 1.350 . S
C645 C648 1.463 . S
C645 C650 1.350 . S
C645 N653 1.427 . S
C646 H637 0.930 . S
C646 C644 1.378 . S
C646 C647 1.367 . S
C647 C646 1.367 . S
C647 C649 1.433 . S
C648 C644 1.350 . S
C648 C645 1.463 . S
C648 N652 1.427 . S
C649 H639 0.929 . S
C649 C647 1.433 . S
C649 N652 1.384 . S
C650 H641 0.929 . S
C650 C642 1.378 . S
C650 C645 1.350 . S
C651 H638 0.929 . S
C651 C643 1.433 . S
C651 N653 1.384 . S
N652 C648 1.427 . S
N652 C649 1.384 . S
N653 C645 1.427 . S
N653 C651 1.384 . S
C229 C7 1.812 . S
C233 C139 1.788 . S
C247 C30 1.599 . S
C251 C164 1.580 . S
C269 C167 1.646 . S
C265 N58 1.628 . S
C287 C193 1.448 . S
C283 N81 1.428 . S
C305 C194 1.729 . S
C301 C99 1.752 . S
C323 C221 1.430 . S
C319 N127 1.417 . S
C337 N25 1.644 . S
C341 C166 1.649 . S
C355 C62 1.589 . S
C359 C192 1.566 . S
C377 C195 1.744 . S
C373 C85 1.755 . S
C395 C220 1.440 . S
C391 N94 1.428 . S
C409 C131 1.778 . S
C413 C138 1.747 . S
C431 C165 1.450 . S
C427 N2 1.429 . S
C449 C180 1.754 . S
C445 C16 1.763 . S
C463 C39 1.565 . S
C467 C207 1.556 . S
C485 C208 1.646 . S
C481 N48 1.625 . S
C499 N71 1.419 . S
C503 C150 1.442 . S
C517 C108 1.745 . S
C521 C153 1.734 . S
C535 N117 1.416 . S
C539 C178 1.435 . S
C553 N35 1.617 . S
C557 C209 1.643 . S
C575 C151 1.574 . S
C571 C53 1.593 . S
C589 C76 1.794 . S
C593 C152 1.777 . S
C607 N104 1.418 . S
C611 C179 1.432 . S
C625 C122 1.746 . S
C629 C181 1.731 . S
C643 N12 1.399 . S
C647 C206 1.429 . S
