# Generated by pormake.
# Topology eea, (3,6)-cn, num edge types: 1
# Building blocks:
#     Node 0, Type 0, BuildingBlock: WUSLED_clean_sbu_0, # of connection points: 3
#     Node 1, Type 0, BuildingBlock: WUSLED_clean_sbu_0, # of connection points: 3
#     Node 2, Type 0, BuildingBlock: WUSLED_clean_sbu_0, # of connection points: 3
#     Node 3, Type 0, BuildingBlock: WUSLED_clean_sbu_0, # of connection points: 3
#     Node 4, Type 0, BuildingBlock: WUSLED_clean_sbu_0, # of connection points: 3
#     Node 5, Type 0, BuildingBlock: WUSLED_clean_sbu_0, # of connection points: 3
#     Node 6, Type 0, BuildingBlock: WUSLED_clean_sbu_0, # of connection points: 3
#     Node 7, Type 0, BuildingBlock: WUSLED_clean_sbu_0, # of connection points: 3
#     Node 8, Type 0, BuildingBlock: WUSLED_clean_sbu_0, # of connection points: 3
#     Node 9, Type 0, BuildingBlock: WUSLED_clean_sbu_0, # of connection points: 3
#     Node 10, Type 0, BuildingBlock: WUSLED_clean_sbu_0, # of connection points: 3
#     Node 11, Type 0, BuildingBlock: WUSLED_clean_sbu_0, # of connection points: 3
#     Node 12, Type 0, BuildingBlock: WUSLED_clean_sbu_0, # of connection points: 3
#     Node 13, Type 0, BuildingBlock: WUSLED_clean_sbu_0, # of connection points: 3
#     Node 14, Type 0, BuildingBlock: WUSLED_clean_sbu_0, # of connection points: 3
#     Node 15, Type 0, BuildingBlock: WUSLED_clean_sbu_0, # of connection points: 3
#     Node 16, Type 0, BuildingBlock: WUSLED_clean_sbu_0, # of connection points: 3
#     Node 17, Type 0, BuildingBlock: WUSLED_clean_sbu_0, # of connection points: 3
#     Node 18, Type 1, BuildingBlock: CUKXOW_clean_sbu_0, # of connection points: 6
#     Node 19, Type 1, BuildingBlock: CUKXOW_clean_sbu_0, # of connection points: 6
#     Node 20, Type 1, BuildingBlock: CUKXOW_clean_sbu_0, # of connection points: 6
#     Node 21, Type 1, BuildingBlock: CUKXOW_clean_sbu_0, # of connection points: 6
#     Node 22, Type 1, BuildingBlock: CUKXOW_clean_sbu_0, # of connection points: 6
#     Node 23, Type 1, BuildingBlock: CUKXOW_clean_sbu_0, # of connection points: 6
#     Node 24, Type 1, BuildingBlock: CUKXOW_clean_sbu_0, # of connection points: 6
#     Node 25, Type 1, BuildingBlock: CUKXOW_clean_sbu_0, # of connection points: 6
#     Node 26, Type 1, BuildingBlock: CUKXOW_clean_sbu_0, # of connection points: 6
#     Edge 27, Type (0, 1), BuildingBlock: XIVTED_clean_linker_0, # of connection points: 2
#     Edge 28, Type (0, 1), BuildingBlock: XIVTED_clean_linker_0, # of connection points: 2
#     Edge 29, Type (0, 1), BuildingBlock: XIVTED_clean_linker_0, # of connection points: 2
#     Edge 30, Type (0, 1), BuildingBlock: XIVTED_clean_linker_0, # of connection points: 2
#     Edge 31, Type (0, 1), BuildingBlock: XIVTED_clean_linker_0, # of connection points: 2
#     Edge 32, Type (0, 1), BuildingBlock: XIVTED_clean_linker_0, # of connection points: 2
#     Edge 33, Type (0, 1), BuildingBlock: XIVTED_clean_linker_0, # of connection points: 2
#     Edge 34, Type (0, 1), BuildingBlock: XIVTED_clean_linker_0, # of connection points: 2
#     Edge 35, Type (0, 1), BuildingBlock: XIVTED_clean_linker_0, # of connection points: 2
#     Edge 36, Type (0, 1), BuildingBlock: XIVTED_clean_linker_0, # of connection points: 2
#     Edge 37, Type (0, 1), BuildingBlock: XIVTED_clean_linker_0, # of connection points: 2
#     Edge 38, Type (0, 1), BuildingBlock: XIVTED_clean_linker_0, # of connection points: 2
#     Edge 39, Type (0, 1), BuildingBlock: XIVTED_clean_linker_0, # of connection points: 2
#     Edge 40, Type (0, 1), BuildingBlock: XIVTED_clean_linker_0, # of connection points: 2
#     Edge 41, Type (0, 1), BuildingBlock: XIVTED_clean_linker_0, # of connection points: 2
#     Edge 42, Type (0, 1), BuildingBlock: XIVTED_clean_linker_0, # of connection points: 2
#     Edge 43, Type (0, 1), BuildingBlock: XIVTED_clean_linker_0, # of connection points: 2
#     Edge 44, Type (0, 1), BuildingBlock: XIVTED_clean_linker_0, # of connection points: 2
#     Edge 45, Type (0, 1), BuildingBlock: XIVTED_clean_linker_0, # of connection points: 2
#     Edge 46, Type (0, 1), BuildingBlock: XIVTED_clean_linker_0, # of connection points: 2
#     Edge 47, Type (0, 1), BuildingBlock: XIVTED_clean_linker_0, # of connection points: 2
#     Edge 48, Type (0, 1), BuildingBlock: XIVTED_clean_linker_0, # of connection points: 2
#     Edge 49, Type (0, 1), BuildingBlock: XIVTED_clean_linker_0, # of connection points: 2
#     Edge 50, Type (0, 1), BuildingBlock: XIVTED_clean_linker_0, # of connection points: 2
#     Edge 51, Type (0, 1), BuildingBlock: XIVTED_clean_linker_0, # of connection points: 2
#     Edge 52, Type (0, 1), BuildingBlock: XIVTED_clean_linker_0, # of connection points: 2
#     Edge 53, Type (0, 1), BuildingBlock: XIVTED_clean_linker_0, # of connection points: 2
#     Edge 54, Type (0, 1), BuildingBlock: XIVTED_clean_linker_0, # of connection points: 2
#     Edge 55, Type (0, 1), BuildingBlock: XIVTED_clean_linker_0, # of connection points: 2
#     Edge 56, Type (0, 1), BuildingBlock: XIVTED_clean_linker_0, # of connection points: 2
#     Edge 57, Type (0, 1), BuildingBlock: XIVTED_clean_linker_0, # of connection points: 2
#     Edge 58, Type (0, 1), BuildingBlock: XIVTED_clean_linker_0, # of connection points: 2
#     Edge 59, Type (0, 1), BuildingBlock: XIVTED_clean_linker_0, # of connection points: 2
#     Edge 60, Type (0, 1), BuildingBlock: XIVTED_clean_linker_0, # of connection points: 2
#     Edge 61, Type (0, 1), BuildingBlock: XIVTED_clean_linker_0, # of connection points: 2
#     Edge 62, Type (0, 1), BuildingBlock: XIVTED_clean_linker_0, # of connection points: 2
#     Edge 63, Type (0, 1), BuildingBlock: XIVTED_clean_linker_0, # of connection points: 2
#     Edge 64, Type (0, 1), BuildingBlock: XIVTED_clean_linker_0, # of connection points: 2
#     Edge 65, Type (0, 1), BuildingBlock: XIVTED_clean_linker_0, # of connection points: 2
#     Edge 66, Type (0, 1), BuildingBlock: XIVTED_clean_linker_0, # of connection points: 2
#     Edge 67, Type (0, 1), BuildingBlock: XIVTED_clean_linker_0, # of connection points: 2
#     Edge 68, Type (0, 1), BuildingBlock: XIVTED_clean_linker_0, # of connection points: 2
#     Edge 69, Type (0, 1), BuildingBlock: XIVTED_clean_linker_0, # of connection points: 2
#     Edge 70, Type (0, 1), BuildingBlock: XIVTED_clean_linker_0, # of connection points: 2
#     Edge 71, Type (0, 1), BuildingBlock: XIVTED_clean_linker_0, # of connection points: 2
#     Edge 72, Type (0, 1), BuildingBlock: XIVTED_clean_linker_0, # of connection points: 2
#     Edge 73, Type (0, 1), BuildingBlock: XIVTED_clean_linker_0, # of connection points: 2
#     Edge 74, Type (0, 1), BuildingBlock: XIVTED_clean_linker_0, # of connection points: 2
#     Edge 75, Type (0, 1), BuildingBlock: XIVTED_clean_linker_0, # of connection points: 2
#     Edge 76, Type (0, 1), BuildingBlock: XIVTED_clean_linker_0, # of connection points: 2
#     Edge 77, Type (0, 1), BuildingBlock: XIVTED_clean_linker_0, # of connection points: 2
#     Edge 78, Type (0, 1), BuildingBlock: XIVTED_clean_linker_0, # of connection points: 2
#     Edge 79, Type (0, 1), BuildingBlock: XIVTED_clean_linker_0, # of connection points: 2
#     Edge 80, Type (0, 1), BuildingBlock: XIVTED_clean_linker_0, # of connection points: 2
# Relax obj value: 0.018
# Max RMSD: 0.123
# Mean RMSD: 0.055
data_MOF--net-eea--node1-WUSLED_clean_sbu_0--node2-CUKXOW_clean_sbu_0--edge1-XIVTED_clean_linker_0
_symmetry_space_group_name_H-M    P1
_symmetry_Int_Tables_number       1
_symmetry_cell_setting            triclinic
loop_
_symmetry_equiv_pos_as_xyz
'x, y, z'
_cell_length_a     71.845901
_cell_length_b     68.861109
_cell_length_c     76.744219
_cell_angle_alpha  92.705478
_cell_angle_beta   92.900988
_cell_angle_gamma 119.86596
loop_
_atom_site_label
_atom_site_type_symbol
_atom_site_fract_x
_atom_site_fract_y
_atom_site_fract_z
_atom_type_partial_charge
C0 C 0.23439 0.16317 0.41124 0.0
C1 C 0.246 0.18549 0.41863 0.0
C2 C 0.22619 0.19612 0.39805 0.0
C3 C 0.24198 0.20185 0.41205 0.0
C4 C 0.21469 0.17371 0.39075 0.0
C5 C 0.21877 0.15746 0.39727 0.0
U6 U 0.25351 0.1365 0.44608 0.0
O7 O 0.23763 0.10113 0.45225 0.0
O8 O 0.26967 0.11676 0.44239 0.0
C9 C 0.25302 0.09809 0.44654 0.0
C10 C 0.23816 0.14545 0.41765 0.0
C11 C 0.24592 0.07746 0.43482 0.0
C12 C 0.24829 0.05797 0.40838 0.0
C13 C 0.25451 0.07798 0.41865 0.0
C14 C 0.22463 0.03667 0.4301 0.0
C15 C 0.2333 0.03706 0.41401 0.0
C16 C 0.23092 0.0566 0.44038 0.0
C17 C 0.27774 0.16564 0.49202 0.0
C18 C 0.27996 0.14698 0.51756 0.0
C19 C 0.30127 0.18749 0.51793 0.0
C20 C 0.29273 0.18639 0.50087 0.0
C21 C 0.29494 0.16781 0.52657 0.0
C22 C 0.27151 0.14591 0.50045 0.0
C23 C 0.26862 0.16498 0.47416 0.0
O24 O 0.25835 0.1505 0.42041 0.0
O25 O 0.2261 0.13404 0.4299 0.0
O26 O 0.24807 0.15017 0.47053 0.0
O27 O 0.28048 0.16587 0.4614 0.0
H28 H 0.25809 0.19023 0.42948 0.0
H29 H 0.25098 0.21889 0.4181 0.0
H30 H 0.20266 0.16873 0.37981 0.0
H31 H 0.20969 0.14034 0.39135 0.0
H32 H 0.25514 0.05889 0.39599 0.0
H33 H 0.26614 0.09378 0.41397 0.0
H34 H 0.21331 0.02088 0.43499 0.0
H35 H 0.22423 0.05569 0.45287 0.0
H36 H 0.27445 0.13148 0.5238 0.0
H37 H 0.31303 0.20379 0.52427 0.0
H38 H 0.29783 0.20181 0.49457 0.0
H39 H 0.25998 0.12966 0.49386 0.0
C40 C 0.93378 0.16306 0.41699 0.0
C41 C 0.95199 0.17635 0.42874 0.0
C42 C 0.97307 0.19502 0.40451 0.0
C43 C 0.97147 0.19218 0.42255 0.0
C44 C 0.95457 0.18195 0.39291 0.0
C45 C 0.93519 0.16615 0.39909 0.0
U46 U 0.89114 0.13704 0.45049 0.0
O47 O 0.85573 0.11834 0.44563 0.0
O48 O 0.87254 0.10186 0.45667 0.0
C49 C 0.85412 0.09947 0.45028 0.0
C50 C 0.91334 0.14537 0.42286 0.0
C51 C 0.84035 0.07925 0.43827 0.0
C52 C 0.83556 0.04936 0.41703 0.0
C53 C 0.84912 0.06927 0.42754 0.0
C54 C 0.80437 0.04951 0.42744 0.0
C55 C 0.81301 0.03915 0.41694 0.0
C56 C 0.81791 0.0693 0.43801 0.0
C57 C 0.89831 0.16734 0.49573 0.0
C58 C 0.8699 0.15892 0.51514 0.0
C59 C 0.90731 0.1809 0.52653 0.0
C60 C 0.91371 0.17921 0.50988 0.0
C61 C 0.88533 0.1708 0.52939 0.0
C62 C 0.87633 0.15711 0.49848 0.0
C63 C 0.90559 0.1659 0.47831 0.0
O64 O 0.91489 0.13385 0.43547 0.0
O65 O 0.89827 0.15066 0.42468 0.0
O66 O 0.89423 0.16706 0.46483 0.0
O67 O 0.91101 0.15044 0.47565 0.0
H68 H 0.95126 0.17429 0.44264 0.0
H69 H 0.98538 0.20179 0.43186 0.0
H70 H 0.95503 0.18394 0.379 0.0
H71 H 0.9213 0.15614 0.38982 0.0
H72 H 0.84274 0.04198 0.40895 0.0
H73 H 0.86641 0.07671 0.42742 0.0
H74 H 0.78712 0.04199 0.42787 0.0
H75 H 0.81082 0.07668 0.44621 0.0
H76 H 0.85286 0.15071 0.51693 0.0
H77 H 0.91962 0.19038 0.53715 0.0
H78 H 0.93074 0.18724 0.50803 0.0
H79 H 0.86415 0.14771 0.48777 0.0
C80 C 0.86781 0.78253 0.42339 0.0
C81 C 0.84636 0.76861 0.4271 0.0
C82 C 0.83527 0.79145 0.41101 0.0
C83 C 0.83023 0.773 0.42093 0.0
C84 C 0.8569 0.80558 0.40772 0.0
C85 C 0.87295 0.80112 0.41381 0.0
U86 U 0.89515 0.76164 0.45589 0.0
O87 O 0.91148 0.74236 0.45082 0.0
O88 O 0.92964 0.77632 0.46412 0.0
C89 C 0.93046 0.75905 0.45702 0.0
C90 C 0.88506 0.77792 0.42906 0.0
C91 C 0.9482 0.76453 0.44584 0.0
C92 C 0.96419 0.77499 0.41816 0.0
C93 C 0.94716 0.77008 0.42859 0.0
C94 C 0.98349 0.76906 0.4422 0.0
C95 C 0.98254 0.77442 0.42481 0.0
C96 C 0.96648 0.76415 0.45257 0.0
C97 C 0.87011 0.73939 0.49904 0.0
C98 C 0.86875 0.71037 0.51685 0.0
C99 C 0.86799 0.74235 0.53051 0.0
C100 C 0.86911 0.75091 0.51421 0.0
C101 C 0.8677 0.72193 0.53205 0.0
C102 C 0.87002 0.71904 0.50051 0.0
C103 C 0.8704 0.74857 0.48192 0.0
O104 O 0.89794 0.79061 0.44271 0.0
O105 O 0.87956 0.75665 0.42937 0.0
O106 O 0.86727 0.73541 0.46777 0.0
O107 O 0.88553 0.76952 0.48085 0.0
H108 H 0.84202 0.7542 0.43457 0.0
H109 H 0.81376 0.76165 0.42361 0.0
H110 H 0.8615 0.8202 0.40046 0.0
H111 H 0.88942 0.81217 0.41092 0.0
H112 H 0.96283 0.77886 0.4048 0.0
H113 H 0.93315 0.7705 0.42318 0.0
H114 H 0.99749 0.76887 0.44789 0.0
H115 H 0.96761 0.76004 0.4659 0.0
H116 H 0.86873 0.6947 0.51761 0.0
H117 H 0.86686 0.75151 0.54189 0.0
H118 H 0.86895 0.7665 0.51342 0.0
H119 H 0.87079 0.70974 0.48906 0.0
C120 C 0.08666 0.24033 0.60505 0.0
C121 C 0.07761 0.25344 0.60017 0.0
C122 C 0.04832 0.23365 0.6188 0.0
C123 C 0.05862 0.25016 0.60701 0.0
C124 C 0.05735 0.22035 0.62337 0.0
C125 C 0.07633 0.2237 0.61659 0.0
U126 U 0.12895 0.25992 0.57132 0.0
O127 O 0.16436 0.27768 0.57575 0.0
O128 O 0.14696 0.2441 0.56172 0.0
C129 C 0.16557 0.26056 0.56882 0.0
C130 C 0.10698 0.24386 0.59856 0.0
C131 C 0.17892 0.25385 0.57922 0.0
C132 C 0.18291 0.2305 0.60021 0.0
C133 C 0.16995 0.23708 0.59094 0.0
C134 C 0.21397 0.25773 0.58646 0.0
C135 C 0.20508 0.24062 0.59797 0.0
C136 C 0.201 0.26421 0.57717 0.0
C137 C 0.12189 0.28461 0.52959 0.0
C138 C 0.15044 0.30452 0.51052 0.0
C139 C 0.11322 0.29025 0.49992 0.0
C140 C 0.10666 0.28187 0.51612 0.0
C141 C 0.13518 0.30162 0.4969 0.0
C142 C 0.14385 0.29598 0.5267 0.0
C143 C 0.1145 0.27505 0.54636 0.0
O144 O 0.10505 0.2312 0.58445 0.0
O145 O 0.12238 0.26488 0.59833 0.0
O146 O 0.12613 0.28749 0.56059 0.0
O147 O 0.10873 0.25375 0.54685 0.0
H148 H 0.08533 0.26635 0.59122 0.0
H149 H 0.05225 0.26083 0.6033 0.0
H150 H 0.04968 0.20719 0.63211 0.0
H151 H 0.08301 0.21332 0.62042 0.0
H152 H 0.17547 0.21716 0.60884 0.0
H153 H 0.15291 0.22892 0.59276 0.0
H154 H 0.23102 0.26624 0.58466 0.0
H155 H 0.20823 0.2773 0.56828 0.0
H156 H 0.16745 0.31294 0.50855 0.0
H157 H 0.10108 0.28792 0.48977 0.0
H158 H 0.08965 0.27313 0.5181 0.0
H159 H 0.15587 0.29809 0.53689 0.0
C160 C 0.78618 0.85488 0.61392 0.0
C161 C 0.79935 0.84837 0.60543 0.0
C162 C 0.79406 0.82169 0.62717 0.0
C163 C 0.80328 0.83199 0.61202 0.0
C164 C 0.7805 0.82787 0.63538 0.0
C165 C 0.77669 0.84434 0.62887 0.0
U166 U 0.76972 0.88467 0.57997 0.0
O167 O 0.75257 0.90344 0.58391 0.0
O168 O 0.78538 0.92052 0.57553 0.0
C169 C 0.76929 0.92264 0.58076 0.0
C170 C 0.78313 0.87344 0.60821 0.0
C171 C 0.77509 0.94197 0.59346 0.0
C172 C 0.79779 0.96836 0.61803 0.0
C173 C 0.79181 0.94913 0.60682 0.0
C174 C 0.77002 0.97308 0.60299 0.0
C175 C 0.78706 0.98067 0.61616 0.0
C176 C 0.76415 0.95396 0.59176 0.0
C177 C 0.74823 0.85795 0.53293 0.0
C178 C 0.74264 0.84493 0.50207 0.0
C179 C 0.72887 0.86877 0.51227 0.0
C180 C 0.73727 0.86962 0.52936 0.0
C181 C 0.73137 0.85633 0.49839 0.0
C182 C 0.75094 0.84572 0.51916 0.0
C183 C 0.7567 0.85803 0.55088 0.0
O184 O 0.79612 0.88628 0.59695 0.0
O185 O 0.76311 0.86871 0.6049 0.0
O186 O 0.74406 0.85591 0.56334 0.0
O187 O 0.77696 0.87326 0.55521 0.0
H188 H 0.80688 0.85612 0.59385 0.0
H189 H 0.81357 0.82741 0.60524 0.0
H190 H 0.77332 0.82048 0.64717 0.0
H191 H 0.76661 0.84917 0.63573 0.0
H192 H 0.8108 0.97358 0.62815 0.0
H193 H 0.8004 0.94004 0.60845 0.0
H194 H 0.7616 0.98228 0.60101 0.0
H195 H 0.75125 0.94874 0.58152 0.0
H196 H 0.74526 0.83553 0.49173 0.0
H197 H 0.72009 0.87756 0.51003 0.0
H198 H 0.73503 0.87922 0.5398 0.0
H199 H 0.75946 0.8367 0.52163 0.0
C200 C 0.08399 0.86076 0.6072 0.0
C201 C 0.07697 0.83766 0.60538 0.0
C202 C 0.04436 0.82921 0.61953 0.0
C203 C 0.05737 0.82206 0.6115 0.0
C204 C 0.05125 0.85232 0.62088 0.0
C205 C 0.07084 0.86787 0.61485 0.0
U206 U 0.12863 0.88557 0.57527 0.0
O207 O 0.14916 0.92071 0.56963 0.0
O208 O 0.16387 0.90234 0.58098 0.0
C209 C 0.16687 0.92177 0.57638 0.0
C210 C 0.10528 0.87786 0.60211 0.0
C211 C 0.181 0.94149 0.58869 0.0
C212 C 0.18643 0.97032 0.61124 0.0
C213 C 0.17259 0.9508 0.60042 0.0
C214 C 0.21721 0.97103 0.5991 0.0
C215 C 0.20892 0.98077 0.6106 0.0
C216 C 0.20338 0.95162 0.58824 0.0
C217 C 0.12183 0.85608 0.53 0.0
C218 C 0.15039 0.86976 0.51028 0.0
C219 C 0.11501 0.83854 0.50038 0.0
C220 C 0.10783 0.83983 0.51677 0.0
C221 C 0.13639 0.85349 0.49691 0.0
C222 C 0.14316 0.87107 0.52667 0.0
C223 C 0.11386 0.85731 0.54708 0.0
O224 O 0.11986 0.87176 0.60076 0.0
O225 O 0.1051 0.89021 0.58962 0.0
O226 O 0.10956 0.87361 0.54975 0.0
O227 O 0.12427 0.85508 0.56072 0.0
H228 H 0.08676 0.83166 0.59951 0.0
H229 H 0.05272 0.80445 0.61035 0.0
H230 H 0.0415 0.85845 0.62665 0.0
H231 H 0.07588 0.88558 0.61636 0.0
H232 H 0.17953 0.97723 0.62009 0.0
H233 H 0.15535 0.94316 0.60107 0.0
H234 H 0.2344 0.97876 0.5981 0.0
H235 H 0.21017 0.94472 0.57926 0.0
H236 H 0.16686 0.8817 0.50799 0.0
H237 H 0.10387 0.82563 0.4905 0.0
H238 H 0.09131 0.82811 0.51913 0.0
H239 H 0.15417 0.88383 0.53671 0.0
C240 C 0.8986 0.49998 0.74627 0.0
C241 C 0.91252 0.5228 0.75175 0.0
C242 C 0.89017 0.53318 0.73393 0.0
C243 C 0.90838 0.53926 0.74557 0.0
C244 C 0.87629 0.51028 0.7286 0.0
C245 C 0.88049 0.49392 0.7347 0.0
U246 U 0.918 0.472 0.77975 0.0
O247 O 0.90252 0.43628 0.78477 0.0
O248 O 0.93466 0.4529 0.77513 0.0
C249 C 0.91806 0.4338 0.77869 0.0
C250 C 0.90265 0.48213 0.75197 0.0
C251 C 0.91121 0.41382 0.76619 0.0
C252 C 0.91666 0.39524 0.7407 0.0
C253 C 0.92271 0.4147 0.75165 0.0
C254 C 0.88744 0.37371 0.7585 0.0
C255 C 0.89898 0.37448 0.74402 0.0
C256 C 0.89354 0.3931 0.76946 0.0
C257 C 0.94127 0.49947 0.82637 0.0
C258 C 0.95965 0.48736 0.84686 0.0
C259 C 0.94865 0.51363 0.85705 0.0
C260 C 0.9401 0.51291 0.84008 0.0
C261 C 0.95863 0.50093 0.86069 0.0
C262 C 0.95101 0.48659 0.82988 0.0
C263 C 0.93222 0.49916 0.80859 0.0
O264 O 0.9229 0.48731 0.75463 0.0
O265 O 0.89051 0.46981 0.76384 0.0
O266 O 0.91185 0.48393 0.80477 0.0
O267 O 0.94433 0.50095 0.79578 0.0
H268 H 0.92658 0.52789 0.76073 0.0
H269 H 0.91927 0.55671 0.75008 0.0
H270 H 0.86231 0.50498 0.71947 0.0
H271 H 0.8696 0.47643 0.73024 0.0
H272 H 0.92581 0.39647 0.7296 0.0
H273 H 0.93652 0.43034 0.74878 0.0
H274 H 0.87398 0.35798 0.76165 0.0
H275 H 0.88456 0.39178 0.78071 0.0
H276 H 0.9674 0.47754 0.84908 0.0
H277 H 0.94719 0.52396 0.86736 0.0
H278 H 0.93252 0.52286 0.83765 0.0
H279 H 0.95203 0.47604 0.81948 0.0
C280 C 0.59956 0.49596 0.75237 0.0
C281 C 0.61758 0.5109 0.76375 0.0
C282 C 0.63799 0.52791 0.7388 0.0
C283 C 0.63664 0.52676 0.75702 0.0
C284 C 0.61966 0.51319 0.72755 0.0
C285 C 0.6007 0.49741 0.73427 0.0
U286 U 0.55798 0.46938 0.78677 0.0
O287 O 0.52255 0.45005 0.78217 0.0
O288 O 0.54006 0.43407 0.79276 0.0
C289 C 0.52143 0.43129 0.78652 0.0
C290 C 0.5796 0.47822 0.75879 0.0
C291 C 0.50807 0.41123 0.77425 0.0
C292 C 0.50427 0.38279 0.75201 0.0
C293 C 0.51733 0.4025 0.76287 0.0
C294 C 0.47252 0.38067 0.76337 0.0
C295 C 0.48169 0.37155 0.75221 0.0
C296 C 0.48559 0.40026 0.7743 0.0
C297 C 0.56453 0.49863 0.83221 0.0
C298 C 0.57276 0.51183 0.86312 0.0
C299 C 0.53562 0.48877 0.85132 0.0
C300 C 0.54248 0.48755 0.83475 0.0
C301 C 0.55066 0.50097 0.86576 0.0
C302 C 0.57959 0.51068 0.84653 0.0
C303 C 0.57213 0.49788 0.8148 0.0
O304 O 0.5819 0.46707 0.77137 0.0
O305 O 0.56436 0.48315 0.761 0.0
O306 O 0.56066 0.49903 0.8014 0.0
O307 O 0.57797 0.48279 0.81189 0.0
H308 H 0.61701 0.51008 0.77779 0.0
H309 H 0.65047 0.53771 0.76607 0.0
H310 H 0.61993 0.51385 0.71349 0.0
H311 H 0.58693 0.4861 0.72527 0.0
H312 H 0.51183 0.37637 0.74342 0.0
H313 H 0.53466 0.41077 0.7625 0.0
H314 H 0.45524 0.37233 0.76402 0.0
H315 H 0.47812 0.4067 0.78299 0.0
H316 H 0.58484 0.52103 0.87392 0.0
H317 H 0.51848 0.48042 0.85274 0.0
H318 H 0.53055 0.47806 0.8239 0.0
H319 H 0.59668 0.51923 0.84487 0.0
C320 C 0.5384 0.11784 0.75668 0.0
C321 C 0.52494 0.11999 0.76832 0.0
C322 C 0.50596 0.12684 0.74425 0.0
C323 C 0.50887 0.12447 0.76216 0.0
C324 C 0.51931 0.12427 0.73267 0.0
C325 C 0.53536 0.11987 0.73884 0.0
U326 U 0.56534 0.09723 0.78977 0.0
O327 O 0.5817 0.07792 0.78468 0.0
O328 O 0.5996 0.11161 0.7985 0.0
C329 C 0.60058 0.09458 0.79106 0.0
C330 C 0.55576 0.11366 0.76276 0.0
C331 C 0.61844 0.1003 0.77991 0.0
C332 C 0.64276 0.1236 0.75904 0.0
C333 C 0.62534 0.11815 0.76912 0.0
C334 C 0.64618 0.09304 0.77005 0.0
C335 C 0.65353 0.11122 0.75948 0.0
C336 C 0.62887 0.0877 0.78017 0.0
C337 C 0.53759 0.07268 0.83171 0.0
C338 C 0.51459 0.04565 0.85129 0.0
C339 C 0.55182 0.07219 0.86111 0.0
C340 C 0.55485 0.08116 0.84477 0.0
C341 C 0.5315 0.05463 0.86468 0.0
C342 C 0.5176 0.05461 0.83504 0.0
C343 C 0.5394 0.08301 0.81497 0.0
O344 O 0.5681 0.12618 0.77669 0.0
O345 O 0.55038 0.09243 0.76298 0.0
O346 O 0.53695 0.07031 0.80072 0.0
O347 O 0.55478 0.10402 0.81458 0.0
H348 H 0.52699 0.11839 0.78217 0.0
H349 H 0.49902 0.12651 0.77148 0.0
H350 H 0.51729 0.12552 0.71876 0.0
H351 H 0.54548 0.11809 0.72964 0.0
H352 H 0.64806 0.13781 0.7512 0.0
H353 H 0.61742 0.12803 0.76864 0.0
H354 H 0.65375 0.08283 0.77047 0.0
H355 H 0.62367 0.07373 0.78828 0.0
H356 H 0.49885 0.03184 0.85345 0.0
H357 H 0.56515 0.07955 0.87115 0.0
H358 H 0.57049 0.09506 0.84252 0.0
H359 H 0.5041 0.04772 0.82516 0.0
C360 C 0.75096 0.56699 0.93647 0.0
C361 C 0.73428 0.56539 0.92504 0.0
C362 C 0.71189 0.55919 0.94939 0.0
C363 C 0.71489 0.56148 0.93144 0.0
C364 C 0.72886 0.56116 0.96076 0.0
C365 C 0.74815 0.56498 0.95434 0.0
U366 U 0.79261 0.58568 0.90236 0.0
O367 O 0.82804 0.60454 0.90651 0.0
O368 O 0.81135 0.57044 0.89337 0.0
C369 C 0.82978 0.58752 0.90014 0.0
C370 C 0.77133 0.57064 0.93009 0.0
C371 C 0.84367 0.58185 0.91092 0.0
C372 C 0.84861 0.55958 0.9324 0.0
C373 C 0.83513 0.56522 0.92278 0.0
C374 C 0.87931 0.58754 0.91873 0.0
C375 C 0.87086 0.57055 0.93038 0.0
C376 C 0.86583 0.59307 0.90909 0.0
C377 C 0.78489 0.60825 0.86001 0.0
C378 C 0.81315 0.62365 0.84009 0.0
C379 C 0.77805 0.61886 0.83168 0.0
C380 C 0.77096 0.61023 0.84772 0.0
C381 C 0.79925 0.62572 0.82768 0.0
C382 C 0.80601 0.61494 0.85609 0.0
C383 C 0.77724 0.59911 0.8768 0.0
O384 O 0.7696 0.5575 0.91635 0.0
O385 O 0.78624 0.59173 0.92926 0.0
O386 O 0.78865 0.61218 0.89084 0.0
O387 O 0.77206 0.57803 0.87785 0.0
H388 H 0.7362 0.56697 0.91117 0.0
H389 H 0.70214 0.55987 0.92228 0.0
H390 H 0.72732 0.55993 0.97469 0.0
H391 H 0.76092 0.56633 0.96337 0.0
H392 H 0.8415 0.5463 0.94112 0.0
H393 H 0.81804 0.55641 0.92444 0.0
H394 H 0.8964 0.59667 0.91709 0.0
H395 H 0.87272 0.60607 0.90009 0.0
H396 H 0.82946 0.62848 0.83734 0.0
H397 H 0.76701 0.62045 0.82252 0.0
H398 H 0.7546 0.60515 0.85054 0.0
H399 H 0.81695 0.61338 0.8654 0.0
C400 C 0.45304 0.18705 0.94679 0.0
C401 C 0.45819 0.1744 0.93518 0.0
C402 C 0.4602 0.15298 0.95896 0.0
C403 C 0.4618 0.15756 0.94122 0.0
C404 C 0.45459 0.16543 0.97041 0.0
C405 C 0.45109 0.18231 0.96438 0.0
U406 U 0.43698 0.21647 0.9125 0.0
O407 O 0.42 0.2355 0.91603 0.0
O408 O 0.45282 0.25219 0.90764 0.0
C409 C 0.43682 0.25456 0.91276 0.0
C410 C 0.4502 0.20565 0.94106 0.0
C411 C 0.44269 0.27419 0.92518 0.0
C412 C 0.46726 0.30321 0.94762 0.0
C413 C 0.46128 0.28361 0.93691 0.0
C414 C 0.43579 0.30379 0.93547 0.0
C415 C 0.4547 0.31367 0.9469 0.0
C416 C 0.42991 0.2843 0.9247 0.0
C417 C 0.41562 0.18951 0.86565 0.0
C418 C 0.4102 0.17666 0.83477 0.0
C419 C 0.39694 0.20099 0.8449 0.0
C420 C 0.40505 0.20156 0.86203 0.0
C421 C 0.39935 0.18847 0.83103 0.0
C422 C 0.41821 0.17716 0.8519 0.0
C423 C 0.42392 0.18948 0.88363 0.0
O424 O 0.46324 0.21809 0.92967 0.0
O425 O 0.43021 0.20093 0.93759 0.0
O426 O 0.41126 0.18758 0.89602 0.0
O427 O 0.44422 0.20457 0.88798 0.0
H428 H 0.45962 0.17766 0.9215 0.0
H429 H 0.46582 0.1481 0.932 0.0
H430 H 0.45345 0.16255 0.98417 0.0
H431 H 0.44716 0.1919 0.97355 0.0
H432 H 0.48177 0.31022 0.95643 0.0
H433 H 0.47135 0.27603 0.93762 0.0
H434 H 0.42587 0.31151 0.93442 0.0
H435 H 0.41554 0.27735 0.91572 0.0
H436 H 0.41274 0.16718 0.82444 0.0
H437 H 0.38847 0.21009 0.84261 0.0
H438 H 0.40293 0.21127 0.87245 0.0
H439 H 0.42644 0.16786 0.85442 0.0
C440 C 0.75058 0.19299 0.9391 0.0
C441 C 0.73756 0.20027 0.94674 0.0
C442 C 0.71058 0.16164 0.95098 0.0
C443 C 0.71779 0.18481 0.95257 0.0
C444 C 0.7235 0.15433 0.94297 0.0
C445 C 0.7433 0.16984 0.93708 0.0
U446 U 0.79585 0.21714 0.90764 0.0
O447 O 0.81549 0.25216 0.90113 0.0
O448 O 0.83102 0.23523 0.91364 0.0
C449 C 0.83337 0.25423 0.9085 0.0
C450 C 0.7719 0.21 0.93402 0.0
C451 C 0.84679 0.2748 0.92036 0.0
C452 C 0.86667 0.2938 0.9484 0.0
C453 C 0.85317 0.27394 0.93781 0.0
C454 C 0.86733 0.31565 0.92439 0.0
C455 C 0.87393 0.3149 0.9418 0.0
C456 C 0.85398 0.29584 0.9138 0.0
C457 C 0.7898 0.18609 0.863 0.0
C458 C 0.81884 0.19481 0.84423 0.0
C459 C 0.78169 0.17218 0.83228 0.0
C460 C 0.7748 0.17385 0.84871 0.0
C461 C 0.8038 0.18269 0.82981 0.0
C462 C 0.8119 0.1966 0.86067 0.0
C463 C 0.78197 0.18794 0.88006 0.0
O464 O 0.78672 0.20414 0.93336 0.0
O465 O 0.77171 0.2217 0.92104 0.0
O466 O 0.77698 0.20381 0.88208 0.0
O467 O 0.79261 0.18664 0.89399 0.0
H468 H 0.7428 0.21802 0.94837 0.0
H469 H 0.70813 0.19107 0.95832 0.0
H470 H 0.71858 0.13666 0.94165 0.0
H471 H 0.75301 0.16375 0.93119 0.0
H472 H 0.8713 0.29264 0.96179 0.0
H473 H 0.84786 0.25796 0.94327 0.0
H474 H 0.87286 0.33157 0.91879 0.0
H475 H 0.84944 0.29696 0.90037 0.0
H476 H 0.83596 0.20331 0.84272 0.0
H477 H 0.76969 0.16252 0.82152 0.0
H478 H 0.75768 0.16563 0.85025 0.0
H479 H 0.82377 0.2063 0.87151 0.0
C480 C 0.56097 0.82914 0.08045 0.0
C481 C 0.57474 0.85209 0.08557 0.0
C482 C 0.55183 0.86164 0.06766 0.0
C483 C 0.57025 0.8682 0.07917 0.0
C484 C 0.53804 0.83861 0.06274 0.0
C485 C 0.54259 0.82258 0.06905 0.0
U486 U 0.58169 0.80296 0.11437 0.0
O487 O 0.56762 0.76754 0.11985 0.0
O488 O 0.59973 0.78521 0.11016 0.0
C489 C 0.58381 0.76594 0.11417 0.0
C490 C 0.56555 0.81171 0.08631 0.0
C491 C 0.57813 0.74621 0.10197 0.0
C492 C 0.55481 0.71797 0.07861 0.0
C493 C 0.56042 0.73743 0.08938 0.0
C494 C 0.58489 0.71624 0.09257 0.0
C495 C 0.56691 0.70705 0.08016 0.0
C496 C 0.59039 0.73558 0.10336 0.0
C497 C 0.60509 0.83118 0.16054 0.0
C498 C 0.60824 0.81216 0.1855 0.0
C499 C 0.62888 0.85276 0.18641 0.0
C500 C 0.61993 0.85188 0.16955 0.0
C501 C 0.6231 0.83292 0.19467 0.0
C502 C 0.59941 0.8113 0.16859 0.0
C503 C 0.59566 0.83068 0.14285 0.0
O504 O 0.58596 0.81747 0.08896 0.0
O505 O 0.55368 0.79942 0.09832 0.0
O506 O 0.57535 0.81516 0.1391 0.0
O507 O 0.60775 0.83277 0.12998 0.0
H508 H 0.58899 0.85757 0.09442 0.0
H509 H 0.58107 0.88576 0.08338 0.0
H510 H 0.52388 0.83296 0.05373 0.0
H511 H 0.53181 0.80498 0.06487 0.0
H512 H 0.54102 0.71149 0.06906 0.0
H513 H 0.55079 0.74546 0.088 0.0
H514 H 0.5944 0.70814 0.09429 0.0
H515 H 0.60409 0.74207 0.11302 0.0
H516 H 0.60314 0.79654 0.19146 0.0
H517 H 0.64053 0.86902 0.19287 0.0
H518 H 0.62463 0.86741 0.16353 0.0
H519 H 0.58803 0.7951 0.16187 0.0
C520 C 0.26721 0.82668 0.08678 0.0
C521 C 0.28148 0.84566 0.098 0.0
C522 C 0.30649 0.85979 0.07523 0.0
C523 C 0.30099 0.86208 0.09228 0.0
C524 C 0.29206 0.84064 0.06414 0.0
C525 C 0.27264 0.8243 0.06987 0.0
U526 U 0.2238 0.80142 0.11951 0.0
O527 O 0.18848 0.78225 0.11412 0.0
O528 O 0.20537 0.76643 0.12624 0.0
C529 C 0.187 0.76362 0.11925 0.0
C530 C 0.24668 0.80903 0.09237 0.0
C531 C 0.17389 0.74327 0.10723 0.0
C532 C 0.17044 0.71432 0.08567 0.0
C533 C 0.18337 0.73405 0.09656 0.0
C534 C 0.13847 0.71312 0.09567 0.0
C535 C 0.14783 0.70359 0.08513 0.0
C536 C 0.15138 0.73271 0.10661 0.0
C537 C 0.22909 0.83239 0.16389 0.0
C538 C 0.21259 0.81549 0.19018 0.0
C539 C 0.22511 0.85487 0.18726 0.0
C540 C 0.23184 0.85299 0.17077 0.0
C541 C 0.21565 0.8362 0.19725 0.0
C542 C 0.21914 0.81356 0.17363 0.0
C543 C 0.23708 0.83101 0.14677 0.0
O544 O 0.24816 0.79813 0.10548 0.0
O545 O 0.23145 0.81421 0.09353 0.0
O546 O 0.22579 0.83152 0.13296 0.0
O547 O 0.24327 0.81607 0.14462 0.0
H548 H 0.2775 0.84776 0.11113 0.0
H549 H 0.31162 0.87669 0.10111 0.0
H550 H 0.29588 0.83807 0.05107 0.0
H551 H 0.26186 0.80969 0.06107 0.0
H552 H 0.17815 0.70756 0.07758 0.0
H553 H 0.20073 0.74202 0.0967 0.0
H554 H 0.12114 0.70515 0.09574 0.0
H555 H 0.14376 0.73954 0.11475 0.0
H556 H 0.20507 0.80072 0.19744 0.0
H557 H 0.22782 0.87109 0.19238 0.0
H558 H 0.23944 0.86771 0.16346 0.0
H559 H 0.2166 0.7974 0.16855 0.0
C560 C 0.20433 0.44983 0.09041 0.0
C561 C 0.1832 0.43655 0.09505 0.0
C562 C 0.17134 0.45779 0.07767 0.0
C563 C 0.16683 0.44045 0.0887 0.0
C564 C 0.19266 0.47125 0.07334 0.0
C565 C 0.20895 0.46726 0.07962 0.0
U566 U 0.23037 0.42899 0.1238 0.0
O567 O 0.24802 0.41089 0.11967 0.0
O568 O 0.26432 0.44429 0.13396 0.0
C569 C 0.26633 0.42776 0.12685 0.0
C570 C 0.22178 0.44586 0.09663 0.0
C571 C 0.285 0.43463 0.11654 0.0
C572 C 0.30382 0.45014 0.09078 0.0
C573 C 0.28572 0.44333 0.10026 0.0
C574 C 0.32057 0.43955 0.11377 0.0
C575 C 0.32152 0.44843 0.09747 0.0
C576 C 0.30248 0.43273 0.1232 0.0
C577 C 0.20242 0.40452 0.16528 0.0
C578 C 0.20319 0.37666 0.18327 0.0
C579 C 0.19731 0.40567 0.1963 0.0
C580 C 0.19867 0.41442 0.18006 0.0
C581 C 0.19952 0.38667 0.19811 0.0
C582 C 0.20473 0.38556 0.16701 0.0
C583 C 0.20349 0.41415 0.14829 0.0
O584 O 0.23349 0.45821 0.11084 0.0
O585 O 0.21681 0.42472 0.09664 0.0
O586 O 0.20182 0.40165 0.13413 0.0
O587 O 0.21831 0.43538 0.14795 0.0
H588 H 0.17932 0.42307 0.10346 0.0
H589 H 0.15059 0.42963 0.09219 0.0
H590 H 0.19684 0.48502 0.06519 0.0
H591 H 0.2252 0.47781 0.07602 0.0
H592 H 0.30411 0.45711 0.07837 0.0
H593 H 0.27235 0.44498 0.09497 0.0
H594 H 0.33374 0.43767 0.11919 0.0
H595 H 0.30215 0.426 0.13573 0.0
H596 H 0.20512 0.36211 0.18428 0.0
H597 H 0.19415 0.41358 0.20741 0.0
H598 H 0.19671 0.42895 0.17904 0.0
H599 H 0.20771 0.37758 0.15584 0.0
C600 C 0.41638 0.90447 0.26725 0.0
C601 C 0.39885 0.90155 0.25617 0.0
C602 C 0.37797 0.89704 0.28135 0.0
C603 C 0.3798 0.89787 0.26316 0.0
C604 C 0.39584 0.90057 0.29235 0.0
C605 C 0.4148 0.90421 0.28536 0.0
U606 U 0.45796 0.92081 0.2327 0.0
O607 O 0.49321 0.93697 0.23686 0.0
O608 O 0.47449 0.90289 0.22382 0.0
C609 C 0.49348 0.91907 0.23049 0.0
C610 C 0.43613 0.9069 0.26034 0.0
C611 C 0.50636 0.91203 0.24116 0.0
C612 C 0.51791 0.90463 0.2692 0.0
C613 C 0.50478 0.91046 0.25926 0.0
C614 C 0.53389 0.90137 0.24297 0.0
C615 C 0.5328 0.90023 0.26119 0.0
C616 C 0.52083 0.90724 0.23309 0.0
C617 C 0.45331 0.94565 0.19046 0.0
C618 C 0.47464 0.94859 0.16604 0.0
C619 C 0.45582 0.96955 0.16729 0.0
C620 C 0.4479 0.9606 0.18307 0.0
C621 C 0.4693 0.96366 0.15854 0.0
C622 C 0.4668 0.93976 0.18187 0.0
C623 C 0.44507 0.93665 0.20721 0.0
O624 O 0.43342 0.89352 0.24645 0.0
O625 O 0.45202 0.92756 0.25962 0.0
O626 O 0.45695 0.94909 0.22133 0.0
O627 O 0.43808 0.91511 0.20818 0.0
H628 H 0.39976 0.90173 0.24212 0.0
H629 H 0.36632 0.89507 0.25429 0.0
H630 H 0.3952 0.9005 0.30641 0.0
H631 H 0.42819 0.90654 0.29412 0.0
H632 H 0.51674 0.90408 0.2832 0.0
H633 H 0.49363 0.91404 0.26573 0.0
H634 H 0.54482 0.89767 0.23629 0.0
H635 H 0.52216 0.90822 0.21912 0.0
H636 H 0.4847 0.94338 0.15961 0.0
H637 H 0.45163 0.98136 0.16212 0.0
H638 H 0.43763 0.96548 0.18957 0.0
H639 H 0.47126 0.9283 0.18739 0.0
C640 C 0.12013 0.51734 0.28051 0.0
C641 C 0.13307 0.51047 0.27205 0.0
C642 C 0.12822 0.48455 0.29435 0.0
C643 C 0.13709 0.49429 0.27893 0.0
C644 C 0.11481 0.49102 0.30249 0.0
C645 C 0.1109 0.50728 0.29568 0.0
U646 U 0.10432 0.5474 0.2462 0.0
O647 O 0.08737 0.56641 0.24994 0.0
O648 O 0.12033 0.58331 0.24189 0.0
C649 C 0.10422 0.58556 0.24688 0.0
C650 C 0.11721 0.53591 0.27458 0.0
C651 C 0.10992 0.60499 0.25943 0.0
C652 C 0.13244 0.63167 0.28392 0.0
C653 C 0.12653 0.61231 0.2729 0.0
C654 C 0.10481 0.63622 0.26845 0.0
C655 C 0.12174 0.64397 0.28174 0.0
C656 C 0.09901 0.61697 0.25742 0.0
C657 C 0.08332 0.52129 0.19901 0.0
C658 C 0.07795 0.50865 0.16807 0.0
C659 C 0.06465 0.5329 0.17834 0.0
C660 C 0.07275 0.53335 0.19545 0.0
C661 C 0.06707 0.52046 0.1644 0.0
C662 C 0.08594 0.50905 0.18519 0.0
C663 C 0.09149 0.52101 0.21699 0.0
O664 O 0.1304 0.5487 0.26341 0.0
O665 O 0.09724 0.53126 0.27105 0.0
O666 O 0.07872 0.51887 0.22935 0.0
O667 O 0.11177 0.53604 0.22152 0.0
H668 H 0.14038 0.51784 0.2603 0.0
H669 H 0.14724 0.48947 0.27218 0.0
H670 H 0.10789 0.48406 0.31447 0.0
H671 H 0.10101 0.51239 0.30252 0.0
H672 H 0.14537 0.637 0.29414 0.0
H673 H 0.13512 0.60323 0.27476 0.0
H674 H 0.09641 0.6454 0.26622 0.0
H675 H 0.08619 0.61165 0.24708 0.0
H676 H 0.08049 0.49923 0.1577 0.0
H677 H 0.05618 0.54199 0.17611 0.0
H678 H 0.07058 0.54297 0.20593 0.0
H679 H 0.09417 0.49973 0.18764 0.0
C680 C 0.41767 0.52461 0.27281 0.0
C681 C 0.41025 0.50148 0.27007 0.0
C682 C 0.37926 0.49289 0.28666 0.0
C683 C 0.39122 0.48577 0.27692 0.0
C684 C 0.38652 0.51605 0.28892 0.0
C685 C 0.4055 0.53168 0.2821 0.0
U686 U 0.46218 0.55022 0.24041 0.0
O687 O 0.48162 0.58556 0.23478 0.0
O688 O 0.49742 0.56842 0.24644 0.0
C689 C 0.49964 0.58751 0.24174 0.0
C690 C 0.43855 0.54183 0.26716 0.0
C691 C 0.51322 0.60751 0.25401 0.0
C692 C 0.51779 0.63722 0.27534 0.0
C693 C 0.50434 0.61752 0.26455 0.0
C694 C 0.5491 0.63678 0.26555 0.0
C695 C 0.54036 0.64718 0.27588 0.0
C696 C 0.53567 0.6172 0.25473 0.0
C697 C 0.4576 0.52123 0.1953 0.0
C698 C 0.47933 0.53998 0.17156 0.0
C699 C 0.4593 0.49934 0.17023 0.0
C700 C 0.45155 0.50042 0.18642 0.0
C701 C 0.47325 0.51911 0.16252 0.0
C702 C 0.47165 0.54103 0.18779 0.0
C703 C 0.44904 0.52196 0.21226 0.0
O704 O 0.45354 0.5363 0.26588 0.0
O705 O 0.43771 0.55355 0.25442 0.0
O706 O 0.44352 0.53738 0.21478 0.0
O707 O 0.45958 0.52032 0.22609 0.0
H708 H 0.41934 0.49556 0.26293 0.0
H709 H 0.38622 0.46811 0.27501 0.0
H710 H 0.37755 0.52216 0.29601 0.0
H711 H 0.41088 0.54942 0.28435 0.0
H712 H 0.51052 0.64463 0.28327 0.0
H713 H 0.48704 0.61027 0.26432 0.0
H714 H 0.56638 0.64411 0.26545 0.0
H715 H 0.54286 0.60979 0.24667 0.0
H716 H 0.48978 0.55557 0.16599 0.0
H717 H 0.45454 0.48298 0.16387 0.0
H718 H 0.44081 0.48494 0.19203 0.0
H719 H 0.4766 0.55731 0.19444 0.0
Tb720 Tb 0.53284 0.02512 0.01029 0.0
C721 C 0.51885 0.97632 0.0204 0.0
Tb722 Tb 0.48498 0.99373 0.01616 0.0
O723 O 0.54192 0.02627 0.03814 0.0
O724 O 0.51184 0.02183 0.02986 0.0
O725 O 0.53398 0.99448 0.01374 0.0
C726 C 0.44763 0.96704 0.02961 0.0
O727 O 0.4994 0.97324 0.02295 0.0
C728 C 0.49383 0.99704 0.98334 0.0
C729 C 0.49873 0.04172 1.00508 0.0
O730 O 0.46563 0.98099 0.03857 0.0
O731 O 0.45065 0.9681 0.01309 0.0
O732 O 0.47513 0.99189 0.98856 0.0
O733 O 0.50578 0.99752 0.99622 0.0
O734 O 0.48497 0.02523 0.01411 0.0
O735 O 0.51709 0.04329 1.00068 0.0
C736 C 0.57043 0.05281 0.99768 0.0
O737 O 0.56301 0.05742 0.01139 0.0
O738 O 0.55672 0.03255 0.99111 0.0
C739 C 0.5233 0.02209 0.04296 0.0
Tb740 Tb 0.99805 0.51821 1.00873 0.0
C741 C 0.04574 0.5528 0.02199 0.0
Tb742 Tb 0.02912 0.50015 0.01517 0.0
O743 O 1.00101 0.52869 0.03657 0.0
O744 O 1.00466 0.50142 0.02851 0.0
O745 O 0.02795 0.55011 0.01347 0.0
C746 C 0.05801 0.48968 0.02799 0.0
O747 O 0.04859 0.5356 0.02528 0.0
C748 C 0.0204 0.50405 0.98236 0.0
C749 C 0.98109 0.46538 1.00283 0.0
O750 O 0.05921 0.49958 0.01378 0.0
O751 O 0.04045 0.48554 0.03498 0.0
O752 O 0.02522 0.48922 0.98732 0.0
O753 O 0.02254 0.51697 0.99547 0.0
O754 O 0.99908 0.46813 0.01108 0.0
O755 O 0.97825 0.48256 0.99945 0.0
C756 C 0.97126 0.52986 0.99332 0.0
O757 O 0.98901 0.53275 0.98751 0.0
O758 O 0.96855 0.52049 1.008 0.0
C759 C 1.00638 0.51423 0.04158 0.0
Tb760 Tb 0.48869 0.50216 0.01679 0.0
C761 C 0.50127 0.46667 1.00501 0.0
Tb762 Tb 0.53638 0.51875 0.01175 0.0
O763 O 0.47959 0.49337 0.98868 0.0
O764 O 0.51042 0.51909 0.99783 0.0
O765 O 0.48773 0.47003 0.01413 0.0
C766 C 0.5738 0.52816 0.99926 0.0
O767 O 0.51992 0.48356 1.00096 0.0
C768 C 0.52577 0.51366 0.04411 0.0
C769 C 0.52362 0.55496 0.02232 0.0
O770 O 0.56595 0.51678 0.01266 0.0
O771 O 0.56066 0.53437 0.99297 0.0
O772 O 0.54477 0.52825 0.03988 0.0
O773 O 0.51453 0.5015 0.03058 0.0
O774 O 0.5388 0.55142 0.01627 0.0
O775 O 0.50362 0.53842 0.02382 0.0
C776 C 0.4528 0.49275 0.03213 0.0
O777 O 0.47199 0.50173 0.03993 0.0
O778 O 0.45371 0.4891 0.01553 0.0
C779 C 0.4988 0.50719 0.98434 0.0
Tb780 Tb 0.20311 0.36051 0.34904 0.0
C781 C 0.1892 0.30909 0.35338 0.0
Tb782 Tb 0.15449 0.32464 0.34788 0.0
O783 O 0.20342 0.37217 0.37637 0.0
O784 O 0.18147 0.33957 0.36642 0.0
O785 O 0.20475 0.32941 0.34996 0.0
C786 C 0.11451 0.29969 0.35751 0.0
O787 O 0.16902 0.30441 0.35497 0.0
C788 C 0.17143 0.33188 0.31756 0.0
C789 C 0.16838 0.37606 0.34358 0.0
O790 O 0.122 0.29513 0.34381 0.0
O791 O 0.12942 0.3185 0.3656 0.0
O792 O 0.15431 0.31324 0.32049 0.0
O793 O 0.17609 0.34563 0.3306 0.0
O794 O 0.15287 0.35579 0.34714 0.0
O795 O 0.18854 0.3807 0.34195 0.0
C796 C 0.24265 0.38505 0.33844 0.0
O797 O 0.23577 0.38991 0.35241 0.0
O798 O 0.22741 0.36617 0.3307 0.0
C799 C 0.18627 0.35355 0.37934 0.0
Tb800 Tb 0.66102 0.85171 0.34289 0.0
C801 C 0.70845 0.8867 0.35702 0.0
Tb802 Tb 0.69271 0.83432 0.3498 0.0
O803 O 0.66287 0.86146 0.37076 0.0
O804 O 0.66767 0.83499 0.36269 0.0
O805 O 0.69065 0.88383 0.34837 0.0
C806 C 0.72152 0.82397 0.36311 0.0
O807 O 0.71156 0.86965 0.36025 0.0
C808 C 0.68474 0.83872 0.31691 0.0
C809 C 0.64519 0.79923 0.33625 0.0
O810 O 0.72323 0.83448 0.34915 0.0
O811 O 0.70351 0.81919 0.36958 0.0
O812 O 0.68999 0.82419 0.32188 0.0
O813 O 0.68613 0.85115 0.3301 0.0
O814 O 0.66295 0.80215 0.34506 0.0
O815 O 0.64223 0.81628 0.33266 0.0
C816 C 0.63411 0.86325 0.32744 0.0
O817 O 0.63009 0.85117 0.34075 0.0
O818 O 0.65322 0.86887 0.32304 0.0
C819 C 0.66871 0.84737 0.3758 0.0
Tb820 Tb 0.1524 0.83343 0.34782 0.0
C821 C 0.16547 0.79576 0.34035 0.0
Tb822 Tb 0.20228 0.84786 0.34737 0.0
O823 O 0.15206 0.84412 0.32112 0.0
O824 O 0.17434 0.83539 0.32989 0.0
O825 O 0.14993 0.80049 0.34333 0.0
C826 C 0.24015 0.86017 0.33476 0.0
O827 O 0.18626 0.81144 0.34048 0.0
C828 C 0.1893 0.84496 0.3794 0.0
C829 C 0.18878 0.8844 0.35624 0.0
O830 O 0.23188 0.84624 0.34677 0.0
O831 O 0.22717 0.86738 0.32999 0.0
O832 O 0.20893 0.85044 0.37634 0.0
O833 O 0.17921 0.84139 0.36476 0.0
O834 O 0.20331 0.88033 0.34935 0.0
O835 O 0.1691 0.86819 0.35905 0.0
C836 C 0.11302 0.81682 0.35893 0.0
O837 O 0.12142 0.83253 0.34823 0.0
O838 O 0.12666 0.81029 0.36307 0.0
C839 C 0.1695 0.84385 0.31761 0.0
Tb840 Tb 0.86779 0.69624 0.68153 0.0
C841 C 0.85292 0.64572 0.68838 0.0
Tb842 Tb 0.81743 0.65959 0.68064 0.0
O843 O 0.87375 0.70156 0.7106 0.0
O844 O 0.84401 0.67996 0.69825 0.0
O845 O 0.86798 0.66449 0.68222 0.0
C846 C 0.77738 0.63471 0.69013 0.0
O847 O 0.83324 0.64198 0.69095 0.0
C848 C 0.83544 0.66541 0.65065 0.0
C849 C 0.83187 0.71084 0.67512 0.0
O850 O 0.786 0.62859 0.67813 0.0
O851 O 0.79118 0.65504 0.69652 0.0
O852 O 0.81768 0.64735 0.65353 0.0
O853 O 0.8402 0.6794 0.66352 0.0
O854 O 0.81578 0.69025 0.67741 0.0
O855 O 0.85252 0.71621 0.67544 0.0
C856 C 0.90625 0.72283 0.67014 0.0
O857 O 0.8977 0.72856 0.68247 0.0
O858 O 0.89322 0.70197 0.66435 0.0
C859 C 0.85384 0.68715 0.71312 0.0
Tb860 Tb 0.33104 0.18563 0.67515 0.0
C861 C 0.37825 0.22098 0.68914 0.0
Tb862 Tb 0.36299 0.16868 0.68227 0.0
O863 O 0.33325 0.19584 0.70297 0.0
O864 O 0.33784 0.16917 0.69506 0.0
O865 O 0.36055 0.21789 0.68016 0.0
C866 C 0.39217 0.15905 0.69593 0.0
O867 O 0.38137 0.20405 0.69276 0.0
C868 C 0.35483 0.17248 0.64931 0.0
C869 C 0.31529 0.13308 0.66933 0.0
O870 O 0.39432 0.1705 0.68247 0.0
O871 O 0.37349 0.15289 0.70168 0.0
O872 O 0.36032 0.1582 0.65447 0.0
O873 O 0.3562 0.18512 0.66235 0.0
O874 O 0.33341 0.1363 0.67768 0.0
O875 O 0.31193 0.14992 0.66588 0.0
C876 C 0.3038 0.19661 0.65953 0.0
O877 O 0.32158 0.1996 0.65372 0.0
O878 O 0.30129 0.18747 0.6743 0.0
C879 C 0.33894 0.18167 0.7081 0.0
Tb880 Tb 0.82269 0.17171 0.68036 0.0
C881 C 0.83562 0.1336 0.67449 0.0
Tb882 Tb 0.87082 0.18546 0.68014 0.0
O883 O 0.82123 0.18017 0.65317 0.0
O884 O 0.8433 0.17103 0.66213 0.0
O885 O 0.82054 0.13858 0.67848 0.0
C886 C 0.91034 0.20088 0.66963 0.0
O887 O 0.85585 0.14941 0.67272 0.0
C888 C 0.85489 0.17805 0.71083 0.0
C889 C 0.85791 0.2236 0.68556 0.0
O890 O 0.90362 0.19093 0.68385 0.0
O891 O 0.8949 0.20243 0.6615 0.0
O892 O 0.8714 0.17608 0.7072 0.0
O893 O 0.85019 0.18626 0.69826 0.0
O894 O 0.873 0.21864 0.68148 0.0
O895 O 0.83775 0.20778 0.68757 0.0
C896 C 0.78426 0.15517 0.69323 0.0
O897 O 0.78988 0.16668 0.67955 0.0
O898 O 0.80008 0.15273 0.69929 0.0
C899 C 0.83811 0.17884 0.64952 0.0
H900 H 0.3135 0.87574 0.04271 0.0
H901 H 0.44035 0.95962 0.06399 0.0
H902 H 0.34667 0.8835 0.09329 0.0
H903 H 0.40816 0.941 0.01191 0.0
H904 H 0.40589 0.9345 0.07569 0.0
H905 H 0.34769 0.90241 0.03195 0.0
C906 C 0.32798 0.88297 0.05157 0.0
C907 C 0.32716 0.87711 0.06891 0.0
C908 C 0.40637 0.93594 0.06171 0.0
C909 C 0.36651 0.90804 0.05666 0.0
C910 C 0.426 0.95028 0.05504 0.0
C911 C 0.42704 0.95229 0.03696 0.0
C912 C 0.38766 0.92373 0.05021 0.0
C913 C 0.40804 0.93985 0.02593 0.0
C914 C 0.34752 0.89831 0.04541 0.0
C915 C 0.34646 0.88758 0.07986 0.0
N916 N 0.38915 0.92615 0.03272 0.0
N917 N 0.36534 0.90246 0.07354 0.0
H918 H 0.13702 0.45517 0.09413 0.0
H919 H 0.09388 0.49549 0.01318 0.0
H920 H 0.16581 0.46943 0.04489 0.0
H921 H 0.05923 0.47211 0.05902 0.0
H922 H 0.12111 0.48726 0.02521 0.0
H923 H 0.10892 0.46216 0.08207 0.0
C924 C 0.1374 0.45963 0.08076 0.0
C925 C 0.15393 0.46177 0.07056 0.0
C926 C 0.10754 0.48386 0.03265 0.0
C927 C 0.1219 0.4701 0.05674 0.0
C928 C 0.09201 0.48858 0.02579 0.0
C929 C 0.07431 0.48443 0.03513 0.0
C930 C 0.10544 0.47503 0.04904 0.0
C931 C 0.07265 0.47549 0.0514 0.0
C932 C 0.12139 0.46373 0.07391 0.0
C933 C 0.15368 0.46795 0.05339 0.0
N934 N 0.08806 0.47113 0.05788 0.0
N935 N 0.13799 0.47192 0.04706 0.0
H936 H 0.59297 0.69426 0.06418 0.0
H937 H 0.49696 0.56966 0.03413 0.0
H938 H 0.52621 0.67113 0.07163 0.0
H939 H 0.56333 0.59344 0.02456 0.0
H940 H 0.50714 0.6073 0.04639 0.0
H941 H 0.58226 0.65811 0.04835 0.0
C942 C 0.57605 0.68159 0.06247 0.0
C943 C 0.56049 0.68575 0.06937 0.0
C944 C 0.51947 0.60434 0.0415 0.0
C945 C 0.54808 0.64424 0.05114 0.0
C946 C 0.51367 0.5828 0.03446 0.0
C947 C 0.52931 0.57824 0.02833 0.0
C948 C 0.54112 0.62154 0.04255 0.0
C949 C 0.55069 0.59608 0.02912 0.0
C950 C 0.56993 0.66097 0.05335 0.0
C951 C 0.53876 0.66879 0.06645 0.0
N952 N 0.55597 0.61687 0.0362 0.0
N953 N 0.53324 0.64877 0.05768 0.0
H954 H 0.90889 0.32426 0.96439 0.0
H955 H 0.94182 0.45296 0.98592 0.0
H956 H 0.87255 0.35401 0.94427 0.0
H957 H 0.98105 0.42539 1.004 0.0
H958 H 0.9149 0.4159 0.97271 0.0
H959 H 0.93394 0.36007 0.98104 0.0
C960 C 0.90604 0.33824 0.96361 0.0
C961 C 0.88863 0.33612 0.9528 0.0
C962 C 0.92932 0.41788 0.97964 0.0
C963 C 0.91737 0.37725 0.97174 0.0
C964 C 0.94476 0.4391 0.98725 0.0
C965 C 0.96387 0.44243 0.99607 0.0
C966 C 0.93292 0.3997 0.98076 0.0
C967 C 0.96661 0.42369 0.99732 0.0
C968 C 0.92043 0.35872 0.97304 0.0
C969 C 0.88592 0.35492 0.95218 0.0
N970 N 0.95137 0.40317 0.98967 0.0
N971 N 0.90013 0.37465 0.96145 0.0
H972 H 0.68591 0.57644 0.93978 0.0
H973 H 0.60154 0.5143 0.01057 0.0
H974 H 0.69049 0.5314 0.97475 0.0
H975 H 0.59215 0.55236 0.97153 0.0
H976 H 0.63499 0.52168 0.99827 0.0
H977 H 0.65217 0.56883 0.95164 0.0
C978 C 0.67979 0.56485 0.94987 0.0
C979 C 0.69118 0.55461 0.95629 0.0
C980 C 0.62565 0.52844 0.99237 0.0
C981 C 0.65263 0.54606 0.9701 0.0
C982 C 0.60658 0.52425 0.99941 0.0
C983 C 0.59414 0.53277 0.99206 0.0
C984 C 0.63238 0.54131 0.97788 0.0
C985 C 0.60134 0.54552 0.9776 0.0
C986 C 0.66056 0.56061 0.9567 0.0
C987 C 0.68254 0.54 0.96957 0.0
N988 N 0.62002 0.54944 0.97098 0.0
N989 N 0.66385 0.53621 0.97603 0.0
H990 H 0.43885 0.12195 0.98255 0.0
H991 H 0.52073 0.07476 0.98342 0.0
H992 H 0.49263 0.14497 0.95075 0.0
H993 H 0.46399 0.04676 0.01206 0.0
H994 H 0.51103 0.10126 0.97215 0.0
H995 H 0.44804 0.09497 0.99415 0.0
C996 C 0.45261 0.12137 0.97802 0.0
C997 C 0.46499 0.13581 0.96563 0.0
C998 C 0.50069 0.08937 0.98093 0.0
C999 C 0.47557 0.10487 0.97886 0.0
C1000 C 0.50627 0.07423 0.98746 0.0
C1001 C 0.49321 0.05847 0.99882 0.0
C1002 C 0.4819 0.08894 0.98575 0.0
C1003 C 0.47458 0.0586 1.00339 0.0
C1004 C 0.45779 0.10588 0.9846 0.0
C1005 C 0.48246 0.13404 0.96009 0.0
N1006 N 0.4695 0.0736 0.99686 0.0
N1007 N 0.48725 0.11896 0.96678 0.0
H1008 H 0.69418 0.16681 0.98126 0.0
H1009 H 0.58707 0.04559 0.96838 0.0
H1010 H 0.67987 0.11919 0.9369 0.0
H1011 H 0.60053 0.09522 0.01088 0.0
H1012 H 0.62125 0.07175 0.95687 0.0
H1013 H 0.66021 0.14041 0.99245 0.0
C1014 C 0.68385 0.15086 0.97378 0.0
C1015 C 0.68994 0.14536 0.95801 0.0
C1016 C 0.61674 0.07692 0.96871 0.0
C1017 C 0.65093 0.11472 0.97098 0.0
C1018 C 0.59726 0.06199 0.97529 0.0
C1019 C 0.59103 0.06828 0.99061 0.0
C1020 C 0.63009 0.09828 0.97755 0.0
C1021 C 0.60476 0.08972 0.99903 0.0
C1022 C 0.66446 0.13569 0.98026 0.0
C1023 C 0.676 0.12414 0.94917 0.0
N1024 N 0.62363 0.10392 0.99241 0.0
N1025 N 0.65716 0.10964 0.95575 0.0
H1026 H 0.86974 0.55888 0.96436 0.0
H1027 H 0.97426 0.54578 0.96126 0.0
H1028 H 0.90473 0.56737 0.91855 0.0
H1029 H 0.93458 0.52735 1.00468 0.0
H1030 H 0.94966 0.55542 0.94603 0.0
H1031 H 0.89375 0.54855 0.97987 0.0
C1032 C 0.88237 0.55847 0.95751 0.0
C1033 C 0.88521 0.56412 0.9401 0.0
C1034 C 0.94627 0.54927 0.95888 0.0
C1035 C 0.91294 0.55257 0.95789 0.0
C1036 C 0.96035 0.54382 0.9676 0.0
C1037 C 0.95642 0.53581 0.98425 0.0
C1038 C 0.92814 0.54681 0.9669 0.0
C1039 C 0.93815 0.53349 0.99184 0.0
C1040 C 0.89614 0.55267 0.96642 0.0
C1041 C 0.90209 0.56358 0.93203 0.0
N1042 N 0.92468 0.53902 0.98312 0.0
N1043 N 0.91529 0.55796 0.94099 0.0
H1044 H 0.42988 0.32652 0.96485 0.0
H1045 H 0.5261 0.45272 0.98865 0.0
H1046 H 0.49541 0.35025 0.95279 0.0
H1047 H 0.46244 0.42766 1.00601 0.0
H1048 H 0.51519 0.41505 0.97603 0.0
H1049 H 0.44144 0.3631 0.98042 0.0
C1050 C 0.44671 0.3394 0.9655 0.0
C1051 C 0.46167 0.33528 0.95743 0.0
C1052 C 0.50363 0.41772 0.98269 0.0
C1053 C 0.47505 0.37725 0.97528 0.0
C1054 C 0.50984 0.43928 0.98992 0.0
C1055 C 0.49516 0.44346 0.99841 0.0
C1056 C 0.48249 0.4001 0.98378 0.0
C1057 C 0.47433 0.42528 0.99962 0.0
C1058 C 0.45332 0.36026 0.97446 0.0
C1059 C 0.48333 0.35254 0.95893 0.0
N1060 N 0.46858 0.40445 0.99229 0.0
N1061 N 0.48931 0.37277 0.96755 0.0
H1062 H 0.11056 0.69148 0.06477 0.0
H1063 H 0.08481 0.56583 0.03985 0.0
H1064 H 0.15335 0.66708 0.08007 0.0
H1065 H 0.04479 0.59212 0.02098 0.0
H1066 H 0.11071 0.60307 0.05375 0.0
H1067 H 0.08684 0.65553 0.04795 0.0
C1068 C 0.11498 0.67855 0.06459 0.0
C1069 C 0.13394 0.68229 0.07395 0.0
C1070 C 0.09634 0.60073 0.04646 0.0
C1071 C 0.10682 0.64101 0.05462 0.0
C1072 C 0.08151 0.57944 0.03848 0.0
C1073 C 0.06248 0.57573 0.02923 0.0
C1074 C 0.09212 0.6185 0.04531 0.0
C1075 C 0.05918 0.5941 0.02796 0.0
C1076 C 0.10147 0.65805 0.0549 0.0
C1077 C 0.13899 0.66503 0.07297 0.0
N1078 N 0.07376 0.61461 0.036 0.0
N1079 N 0.12545 0.64511 0.0636 0.0
H1080 H 0.36388 0.47157 0.11049 0.0
H1081 H 0.41105 0.47277 0.01776 0.0
H1082 H 0.32366 0.44267 0.06203 0.0
H1083 H 0.45012 0.49958 0.06686 0.0
H1084 H 0.37882 0.46263 0.03336 0.0
H1085 H 0.39565 0.48288 0.09441 0.0
C1086 C 0.3617 0.4675 0.09646 0.0
C1087 C 0.341 0.456 0.08764 0.0
C1088 C 0.39445 0.47078 0.04071 0.0
C1089 C 0.37748 0.46917 0.06903 0.0
C1090 C 0.41281 0.47657 0.03181 0.0
C1091 C 0.4332 0.487 0.04106 0.0
C1092 C 0.39657 0.47548 0.05897 0.0
C1093 C 0.43467 0.49156 0.05924 0.0
C1094 C 0.37989 0.47409 0.08726 0.0
C1095 C 0.33928 0.45165 0.06937 0.0
N1096 N 0.41661 0.48574 0.06759 0.0
N1097 N 0.35726 0.45816 0.06069 0.0
H1098 H 0.51263 0.85935 0.06338 0.0
H1099 H 0.55783 0.97756 0.02144 0.0
H1100 H 0.57983 0.90263 0.05596 0.0
H1101 H 0.49164 0.93566 0.03257 0.0
H1102 H 0.56611 0.9498 0.03275 0.0
H1103 H 0.50463 0.88668 0.05107 0.0
C1104 C 0.52572 0.87457 0.05909 0.0
C1105 C 0.54695 0.87862 0.06068 0.0
C1106 C 0.54977 0.94667 0.03265 0.0
C1107 C 0.53788 0.9102 0.04659 0.0
C1108 C 0.54499 0.96248 0.02611 0.0
C1109 C 0.52398 0.95902 0.02602 0.0
C1110 C 0.53343 0.9272 0.03911 0.0
C1111 C 0.50808 0.93916 0.03236 0.0
C1112 C 0.52115 0.89025 0.05212 0.0
C1113 C 0.56326 0.89888 0.05516 0.0
N1114 N 0.51313 0.92408 0.03865 0.0
N1115 N 0.55839 0.91386 0.04832 0.0
H1116 H 1.00396 0.2372 0.41888 0.0
H1117 H 0.08242 0.2594 0.34209 0.0
H1118 H 0.99 0.18962 0.37458 0.0
H1119 H 0.09818 0.30622 0.38723 0.0
H1120 H 0.04785 0.23423 0.35337 0.0
H1121 H 0.03808 0.2631 0.40733 0.0
C1122 C 1.00806 0.23213 0.40677 0.0
C1123 C 0.99395 0.21114 0.3977 0.0
C1124 C 0.05881 0.25004 0.3608 0.0
C1125 C 0.033 0.2409 0.38428 0.0
C1126 C 0.07852 0.26442 0.35434 0.0
C1127 C 0.09313 0.28491 0.36374 0.0
C1128 C 0.05364 0.25615 0.37682 0.0
C1129 C 0.08732 0.29058 0.37956 0.0
C1130 C 0.02752 0.247 0.40013 0.0
C1131 C 1.00011 0.20571 0.38192 0.0
N1132 N 0.06805 0.27626 0.38563 0.0
N1133 N 0.01911 0.22044 0.37575 0.0
H1134 H 0.83172 0.80601 0.379 0.0
H1135 H 0.72128 0.80452 0.39348 0.0
H1136 H 0.79949 0.78663 0.42646 0.0
H1137 H 0.75849 0.83132 0.34939 0.0
H1138 H 0.74865 0.79611 0.40534 0.0
H1139 H 0.80406 0.81377 0.36755 0.0
C1140 C 0.81892 0.80352 0.3871 0.0
C1141 C 0.81812 0.79579 0.40382 0.0
C1142 C 0.75082 0.80382 0.39307 0.0
C1143 C 0.78599 0.80434 0.39056 0.0
C1144 C 0.7352 0.80858 0.3863 0.0
C1145 C 0.73767 0.8186 0.37044 0.0
C1146 C 0.76896 0.80905 0.38385 0.0
C1147 C 0.75599 0.82359 0.36167 0.0
C1148 C 0.80302 0.80784 0.38048 0.0
C1149 C 0.80073 0.79237 0.41345 0.0
N1150 N 0.77089 0.81874 0.36847 0.0
N1151 N 0.7854 0.79669 0.4067 0.0
H1152 H 0.25897 0.02522 0.39616 0.0
H1153 H 0.16297 0.89962 0.36875 0.0
H1154 H 0.19301 0.99993 0.40766 0.0
H1155 H 0.22889 0.92271 0.35807 0.0
H1156 H 0.17362 0.93724 0.38107 0.0
H1157 H 0.2482 0.98899 0.38024 0.0
C1158 C 0.24219 0.01215 0.3952 0.0
C1159 C 0.22691 0.01563 0.40339 0.0
C1160 C 0.18578 0.93418 0.37597 0.0
C1161 C 0.21451 0.97402 0.38529 0.0
C1162 C 0.17971 0.91261 0.36889 0.0
C1163 C 0.19506 0.90783 0.36241 0.0
C1164 C 0.20745 0.95128 0.37671 0.0
C1165 C 0.21648 0.92554 0.36291 0.0
C1166 C 0.23608 0.99142 0.38619 0.0
C1167 C 0.20544 0.99795 0.40184 0.0
N1168 N 0.22206 0.94644 0.37004 0.0
N1169 N 0.19993 0.97797 0.39304 0.0
H1170 H 0.57788 0.65911 0.29591 0.0
H1171 H 0.60587 0.78595 0.31888 0.0
H1172 H 0.53596 0.68447 0.28034 0.0
H1173 H 0.64622 0.75986 0.33731 0.0
H1174 H 0.57955 0.74856 0.30564 0.0
H1175 H 0.60255 0.69544 0.31192 0.0
C1176 C 0.57384 0.67231 0.29586 0.0
C1177 C 0.55482 0.6687 0.28666 0.0
C1178 C 0.59409 0.75095 0.31267 0.0
C1179 C 0.58303 0.71042 0.30508 0.0
C1180 C 0.60919 0.77236 0.32026 0.0
C1181 C 0.62841 0.77618 0.32923 0.0
C1182 C 0.59821 0.73313 0.31391 0.0
C1183 C 0.63168 0.75779 0.33054 0.0
C1184 C 0.5879 0.69303 0.30509 0.0
C1185 C 0.5503 0.68636 0.28734 0.0
N1186 N 0.61681 0.73713 0.32289 0.0
N1187 N 0.56434 0.70645 0.29627 0.0
H1188 H 0.34987 0.91184 0.27195 0.0
H1189 H 0.2685 0.84625 0.34394 0.0
H1190 H 0.35902 0.87036 0.30788 0.0
H1191 H 0.25821 0.88719 0.30826 0.0
H1192 H 0.30193 0.85528 0.33086 0.0
H1193 H 0.3163 0.90313 0.2848 0.0
C1194 C 0.34481 0.90084 0.28248 0.0
C1195 C 0.35742 0.89193 0.28887 0.0
C1196 C 0.29242 0.86235 0.32588 0.0
C1197 C 0.31905 0.88202 0.30376 0.0
C1198 C 0.27334 0.85721 0.33336 0.0
C1199 C 0.26064 0.86604 0.32718 0.0
C1200 C 0.29887 0.87642 0.31206 0.0
C1201 C 0.26761 0.8801 0.31343 0.0
C1202 C 0.32569 0.89597 0.28988 0.0
C1203 C 0.3501 0.87796 0.30269 0.0
N1204 N 0.28626 0.88485 0.30631 0.0
N1205 N 0.33147 0.87346 0.30964 0.0
H1206 H 0.10132 0.44558 0.30927 0.0
H1207 H 0.19528 0.41861 0.3345 0.0
H1208 H 0.16741 0.48674 0.29775 0.0
H1209 H 0.12829 0.37248 0.34084 0.0
H1210 H 0.18542 0.44503 0.3233 0.0
H1211 H 0.1109 0.41981 0.32275 0.0
C1212 C 0.11785 0.44925 0.30961 0.0
C1213 C 0.13356 0.46836 0.30228 0.0
C1214 C 0.17285 0.42918 0.3272 0.0
C1215 C 0.14464 0.43889 0.31772 0.0
C1216 C 0.17848 0.41405 0.3337 0.0
C1217 C 0.16259 0.39313 0.33859 0.0
C1218 C 0.15113 0.42352 0.32554 0.0
C1219 C 0.1411 0.38836 0.33723 0.0
C1220 C 0.12329 0.43447 0.31726 0.0
C1221 C 0.15468 0.47209 0.30298 0.0
N1222 N 0.136 0.40338 0.33076 0.0
N1223 N 0.15957 0.45756 0.31057 0.0
H1224 H 0.36635 0.49735 0.31896 0.0
H1225 H 0.25714 0.37787 0.30793 0.0
H1226 H 0.34731 0.45072 0.27312 0.0
H1227 H 0.27545 0.42576 0.35274 0.0
H1228 H 0.29079 0.40345 0.29552 0.0
H1229 H 0.33381 0.47075 0.33191 0.0
C1230 C 0.35528 0.48157 0.31154 0.0
C1231 C 0.3596 0.47643 0.29481 0.0
C1232 C 0.28752 0.40835 0.30811 0.0
C1233 C 0.32224 0.44558 0.30978 0.0
C1234 C 0.26835 0.39371 0.31522 0.0
C1235 C 0.26354 0.39972 0.3314 0.0
C1236 C 0.30202 0.42918 0.31723 0.0
C1237 C 0.27855 0.42048 0.34024 0.0
C1238 C 0.33673 0.46629 0.31902 0.0
C1239 C 0.34481 0.45541 0.28608 0.0
N1240 N 0.29708 0.43447 0.33303 0.0
N1241 N 0.32679 0.44083 0.29363 0.0
H1242 H 0.5239 0.87404 0.28913 0.0
H1243 H 0.64169 0.88806 0.29942 0.0
H1244 H 0.57534 0.91444 0.25741 0.0
H1245 H 0.59289 0.85174 0.33437 0.0
H1246 H 0.61713 0.89738 0.28374 0.0
H1247 H 0.54845 0.86541 0.30587 0.0
C1248 C 0.54036 0.8812 0.28572 0.0
C1249 C 0.54747 0.89491 0.27173 0.0
C1250 C 0.61174 0.88742 0.29486 0.0
C1251 C 0.57562 0.88489 0.29076 0.0
C1252 C 0.62578 0.88211 0.30383 0.0
C1253 C 0.6193 0.86917 0.31823 0.0
C1254 C 0.59097 0.87968 0.30028 0.0
C1255 C 0.59849 0.8618 0.32333 0.0
C1256 C 0.55434 0.87617 0.29524 0.0
C1257 C 0.56895 0.90347 0.26783 0.0
N1258 N 0.58503 0.86714 0.31434 0.0
N1259 N 0.58218 0.89829 0.27725 0.0
H1260 H 0.16287 0.67771 0.29264 0.0
H1261 H 0.12478 0.75867 0.33651 0.0
H1262 H 0.09626 0.65886 0.29598 0.0
H1263 H 0.19137 0.77887 0.33079 0.0
H1264 H 0.11426 0.72091 0.32423 0.0
H1265 H 0.17374 0.71354 0.3091 0.0
C1266 C 0.15051 0.68096 0.29701 0.0
C1267 C 0.12859 0.66522 0.2928 0.0
C1268 C 0.13119 0.73356 0.32577 0.0
C1269 C 0.14096 0.70645 0.31153 0.0
C1270 C 0.13725 0.75518 0.33284 0.0
C1271 C 0.15903 0.77215 0.33462 0.0
C1272 C 0.14699 0.72876 0.32039 0.0
C1273 C 0.17438 0.76644 0.32963 0.0
C1274 C 0.15674 0.70152 0.30632 0.0
C1275 C 0.11333 0.67059 0.29865 0.0
N1276 N 0.16806 0.74532 0.32266 0.0
N1277 N 0.1198 0.69073 0.30763 0.0
H1278 H 0.77505 0.02668 0.39742 0.0
H1279 H 0.7477 0.90001 0.37461 0.0
H1280 H 0.81773 1.00206 0.41251 0.0
H1281 H 0.70724 0.92593 0.35607 0.0
H1282 H 0.77391 0.93746 0.3879 0.0
H1283 H 0.7504 0.99017 0.38168 0.0
C1284 C 0.77926 0.0136 0.39743 0.0
C1285 C 0.79849 0.01747 0.4064 0.0
C1286 C 0.75936 0.935 0.38084 0.0
C1287 C 0.77029 0.97554 0.38829 0.0
C1288 C 0.74434 0.91357 0.37322 0.0
C1289 C 0.72513 0.9097 0.36419 0.0
C1290 C 0.75517 0.95278 0.37955 0.0
C1291 C 0.72177 0.92803 0.36288 0.0
C1292 C 0.76521 0.99278 0.38835 0.0
C1293 C 0.80321 0.99996 0.40568 0.0
N1294 N 0.73657 0.94871 0.37054 0.0
N1295 N 0.78917 0.97975 0.3969 0.0
H1296 H 1.00648 0.75347 0.42327 0.0
H1297 H 0.0848 0.83241 0.35446 0.0
H1298 H 0.99994 0.80644 0.40108 0.0
H1299 H 0.09452 0.7842 0.38139 0.0
H1300 H 0.05192 0.82117 0.3694 0.0
H1301 H 0.03712 0.7627 0.4062 0.0
C1302 C 0.01152 0.76711 0.41486 0.0
C1303 C 1.00066 0.77931 0.41378 0.0
C1304 C 0.06118 0.81297 0.37196 0.0
C1305 C 0.03574 0.78982 0.39391 0.0
C1306 C 0.07989 0.81933 0.3634 0.0
C1307 C 0.09235 0.80921 0.36672 0.0
C1308 C 0.05492 0.79635 0.38389 0.0
C1309 C 0.08536 0.79242 0.37846 0.0
C1310 C 0.02898 0.7723 0.40501 0.0
C1311 C 1.00768 0.79646 0.40228 0.0
N1312 N 0.06716 0.78656 0.38664 0.0
N1313 N 0.02482 0.80126 0.39286 0.0
H1314 H 0.25469 0.24009 0.39221 0.0
H1315 H 0.1618 0.26498 0.35838 0.0
H1316 H 0.18679 0.1912 0.38804 0.0
H1317 H 0.22952 0.31384 0.35931 0.0
H1318 H 0.17105 0.23772 0.36872 0.0
H1319 H 0.2462 0.26745 0.38026 0.0
C1320 C 0.238 0.23512 0.38887 0.0
C1321 C 0.22145 0.21323 0.39111 0.0
C1322 C 0.18393 0.25435 0.36659 0.0
C1323 C 0.21162 0.24444 0.37727 0.0
C1324 C 0.17865 0.26998 0.36064 0.0
C1325 C 0.19489 0.29185 0.358 0.0
C1326 C 0.20565 0.26053 0.37008 0.0
C1327 C 0.21644 0.2972 0.36113 0.0
C1328 C 0.23318 0.25071 0.38193 0.0
C1329 C 0.20013 0.20772 0.38634 0.0
N1330 N 0.22119 0.2817 0.3671 0.0
N1331 N 0.19587 0.22318 0.37969 0.0
H1332 H 0.65561 0.52042 0.71017 0.0
H1333 H 0.75937 0.64415 0.71748 0.0
H1334 H 0.66724 0.57188 0.75059 0.0
H1335 H 0.74755 0.59167 0.67805 0.0
H1336 H 0.72526 0.61856 0.72936 0.0
H1337 H 0.68875 0.54677 0.69787 0.0
C1338 C 0.66504 0.53733 0.71642 0.0
C1339 C 0.65847 0.54391 0.73142 0.0
C1340 C 0.73007 0.61266 0.71806 0.0
C1341 C 0.69682 0.57427 0.71743 0.0
C1342 C 0.74949 0.62729 0.71124 0.0
C1343 C 0.75623 0.62 0.69674 0.0
C1344 C 0.71731 0.59059 0.71031 0.0
C1345 C 0.74292 0.59797 0.68923 0.0
C1346 C 0.68409 0.55236 0.70942 0.0
C1347 C 0.67171 0.56595 0.73911 0.0
N1348 N 0.72414 0.58405 0.69611 0.0
N1349 N 0.69021 0.58033 0.73202 0.0
H1350 H 0.50912 0.15511 0.7191 0.0
H1351 H 0.38954 0.13481 0.72393 0.0
H1352 H 0.4648 0.11101 0.75423 0.0
H1353 H 0.43209 0.17242 0.68532 0.0
H1354 H 0.41723 0.12717 0.73627 0.0
H1355 H 0.48148 0.16289 0.7076 0.0
C1356 C 0.49353 0.14693 0.72435 0.0
C1357 C 0.4893 0.13221 0.73759 0.0
C1358 C 0.4205 0.13707 0.72509 0.0
C1359 C 0.4575 0.14137 0.72457 0.0
C1360 C 0.40471 0.14142 0.71806 0.0
C1361 C 0.40856 0.1542 0.70357 0.0
C1362 C 0.44028 0.14566 0.7176 0.0
C1363 C 0.42847 0.16245 0.69647 0.0
C1364 C 0.47776 0.1515 0.71782 0.0
C1365 C 0.4689 0.1226 0.74413 0.0
N1366 N 0.44357 0.15805 0.70356 0.0
N1367 N 0.45376 0.1273 0.73753 0.0
H1368 H 0.85839 0.34032 0.73244 0.0
H1369 H 0.89868 0.26082 0.68947 0.0
H1370 H 0.92549 0.36072 0.73004 0.0
H1371 H 0.83186 0.24059 0.6938 0.0
H1372 H 0.90889 0.29868 0.70159 0.0
H1373 H 0.8485 0.30488 0.71592 0.0
C1374 C 0.87107 0.33737 0.72843 0.0
C1375 C 0.89282 0.35352 0.73281 0.0
C1376 C 0.89198 0.28599 0.69974 0.0
C1377 C 0.88158 0.31284 0.7137 0.0
C1378 C 0.88612 0.26436 0.69274 0.0
C1379 C 0.86436 0.24735 0.69072 0.0
C1380 C 0.87599 0.2907 0.70475 0.0
C1381 C 0.84885 0.25303 0.69523 0.0
C1382 C 0.86541 0.31713 0.71891 0.0
C1383 C 0.90852 0.34887 0.72691 0.0
N1384 N 0.85497 0.27411 0.70212 0.0
N1385 N 0.9026 0.32892 0.71779 0.0
H1386 H 0.24787 0.99324 0.6285 0.0
H1387 H 0.27481 0.11912 0.6541 0.0
H1388 H 0.20383 0.01733 0.61706 0.0
H1389 H 0.3172 0.09413 0.66931 0.0
H1390 H 0.24818 0.08156 0.64145 0.0
H1391 H 0.273 0.02958 0.64431 0.0
C1392 C 0.24346 1.00615 0.62933 0.0
C1393 C 0.22372 1.00221 0.62134 0.0
C1394 C 0.26324 0.08422 0.64764 0.0
C1395 C 0.25244 0.04391 0.6395 0.0
C1396 C 0.27852 0.10573 0.6549 0.0
C1397 C 0.29839 0.10991 0.66277 0.0
C1398 C 0.26783 0.06666 0.64812 0.0
C1399 C 0.30214 0.09176 0.6634 0.0
C1400 C 0.25778 0.02687 0.63844 0.0
C1401 C 0.21875 0.01949 0.62311 0.0
N1402 N 0.28707 0.07099 0.65607 0.0
N1403 N 0.23306 0.03959 0.63188 0.0
H1404 H 0.01409 0.2354 0.60271 0.0
H1405 H 0.94423 0.19918 0.68569 0.0
H1406 H 0.03685 0.22429 0.65231 0.0
H1407 H 0.92421 0.2174 0.63826 0.0
H1408 H 0.97833 0.20836 0.67366 0.0
H1409 H 0.98119 0.22909 0.61543 0.0
C1410 C 0.01228 0.23181 0.61631 0.0
C1411 C 0.02832 0.2303 0.6264 0.0
C1412 C 0.96655 0.21048 0.6659 0.0
C1413 C 0.99046 0.22275 0.64101 0.0
C1414 C 0.9471 0.20525 0.67278 0.0
C1415 C 0.93144 0.20757 0.66295 0.0
C1416 C 0.97031 0.21794 0.649 0.0
C1417 C 0.93592 0.21544 0.64627 0.0
C1418 C 0.99341 0.22809 0.62354 0.0
C1419 C 0.02483 0.22524 0.64389 0.0
N1420 N 0.95489 0.22025 0.63979 0.0
N1421 N 1.00631 0.2216 0.6506 0.0
H1422 H 0.76658 0.78206 0.64093 0.0
H1423 H 0.85942 0.75367 0.66676 0.0
H1424 H 0.83315 0.82365 0.63083 0.0
H1425 H 0.79194 0.70744 0.67122 0.0
H1426 H 0.85016 0.78062 0.6557 0.0
H1427 H 0.77561 0.7556 0.65384 0.0
C1428 C 0.78311 0.78567 0.64147 0.0
C1429 C 0.79911 0.80512 0.63472 0.0
C1430 C 0.83736 0.76462 0.65915 0.0
C1431 C 0.80956 0.77486 0.6495 0.0
C1432 C 0.84264 0.74918 0.66556 0.0
C1433 C 0.82644 0.7281 0.66991 0.0
C1434 C 0.8157 0.75909 0.65705 0.0
C1435 C 0.805 0.72342 0.66802 0.0
C1436 C 0.78823 0.77051 0.64879 0.0
C1437 C 0.82021 0.80876 0.63563 0.0
N1438 N 0.80025 0.73875 0.66169 0.0
N1439 N 0.8248 0.79384 0.6429 0.0
H1440 H 0.01414 0.78622 0.60616 0.0
H1441 H 0.93528 0.76607 0.68214 0.0
H1442 H 0.02806 0.83467 0.64982 0.0
H1443 H 0.9242 0.7144 0.6422 0.0
H1444 H 0.96901 0.79166 0.66997 0.0
H1445 H 0.98095 0.75984 0.61867 0.0
C1446 C 1.01032 0.79131 0.6184 0.0
C1447 C 0.02399 0.81283 0.62687 0.0
C1448 C 0.95928 0.77471 0.66387 0.0
C1449 C 0.98579 0.78269 0.64119 0.0
C1450 C 0.94002 0.7601 0.67083 0.0
C1451 C 0.92699 0.7381 0.66318 0.0
C1452 C 0.96554 0.76733 0.64907 0.0
C1453 C 0.93385 0.73123 0.64852 0.0
C1454 C 0.99129 0.77625 0.6255 0.0
C1455 C 0.01793 0.81849 0.6426 0.0
N1456 N 0.95263 0.74582 0.6419 0.0
N1457 N 0.99933 0.80357 0.6492 0.0
H1458 H 0.20385 0.22843 0.63181 0.0
H1459 H 0.30633 0.21193 0.62726 0.0
H1460 H 0.23786 0.23584 0.58554 0.0
H1461 H 0.26748 0.19469 0.67119 0.0
H1462 H 0.2819 0.22199 0.61227 0.0
H1463 H 0.2272 0.21691 0.64686 0.0
C1464 C 0.21611 0.22752 0.62476 0.0
C1465 C 0.2189 0.23326 0.60736 0.0
C1466 C 0.27865 0.21599 0.62518 0.0
C1467 C 0.24589 0.22034 0.62464 0.0
C1468 C 0.29262 0.21029 0.63375 0.0
C1469 C 0.2889 0.20253 0.65049 0.0
C1470 C 0.26084 0.21405 0.63342 0.0
C1471 C 0.27089 0.20063 0.65828 0.0
C1472 C 0.22951 0.22104 0.63341 0.0
C1473 C 0.2353 0.23203 0.59903 0.0
N1474 N 0.25753 0.20642 0.6497 0.0
N1475 N 0.24816 0.22577 0.60774 0.0
H1476 H 0.76178 0.99535 0.63107 0.0
H1477 H 0.8612 0.11633 0.66519 0.0
H1478 H 0.82828 0.01437 0.62678 0.0
H1479 H 0.79483 0.09661 0.67132 0.0
H1480 H 0.84958 0.07819 0.65315 0.0
H1481 H 0.77362 0.03142 0.64753 0.0
C1482 C 0.77888 1.00708 0.63361 0.0
C1483 C 0.79404 1.00182 0.62739 0.0
C1484 C 0.83756 0.08214 0.65726 0.0
C1485 C 0.80775 0.04323 0.64636 0.0
C1486 C 0.84419 0.10396 0.66419 0.0
C1487 C 0.82898 0.10984 0.66919 0.0
C1488 C 0.81551 0.066 0.65519 0.0
C1489 C 0.80716 0.09296 0.6676 0.0
C1490 C 0.78564 0.02765 0.6431 0.0
C1491 C 0.816 0.01758 0.63139 0.0
N1492 N 0.80109 0.0719 0.66061 0.0
N1493 N 0.82217 0.03759 0.64048 0.0
H1494 H 0.4883 0.3359 0.74629 0.0
H1495 H 0.3763 0.25978 0.68809 0.0
H1496 H 0.44316 0.35812 0.73324 0.0
H1497 H 0.41745 0.23488 0.70707 0.0
H1498 H 0.40229 0.29699 0.70205 0.0
H1499 H 0.46428 0.3 0.72945 0.0
C1500 C 0.47344 0.33333 0.73974 0.0
C1501 C 0.46773 0.35007 0.74125 0.0
C1502 C 0.40567 0.2834 0.70309 0.0
C1503 C 0.44001 0.30884 0.72204 0.0
C1504 C 0.39086 0.26213 0.69506 0.0
C1505 C 0.3946 0.24406 0.69642 0.0
C1506 C 0.42445 0.28674 0.71253 0.0
C1507 C 0.41379 0.24822 0.70568 0.0
C1508 C 0.45966 0.31276 0.73021 0.0
C1509 C 0.44811 0.34562 0.73264 0.0
N1510 N 0.42793 0.26907 0.7134 0.0
N1511 N 0.43497 0.32546 0.72344 0.0
H1512 H 0.69045 0.11068 0.7695 0.0
H1513 H 0.74925 0.1592 0.68273 0.0
H1514 H 0.66047 0.12623 0.72639 0.0
H1515 H 0.77371 0.13464 0.72341 0.0
H1516 H 0.71689 0.14823 0.69845 0.0
H1517 H 0.72142 0.12043 0.75283 0.0
C1518 C 0.69025 0.11596 0.75646 0.0
C1519 C 0.67264 0.11744 0.74935 0.0
C1520 C 0.72931 0.14515 0.70387 0.0
C1521 C 0.70849 0.12909 0.73016 0.0
C1522 C 0.74772 0.15138 0.6949 0.0
C1523 C 0.7641 0.14775 0.70177 0.0
C1524 C 0.7274 0.13539 0.71986 0.0
C1525 C 0.76142 0.13767 0.71761 0.0
C1526 C 0.70806 0.12167 0.74696 0.0
C1527 C 0.67371 0.12499 0.73251 0.0
N1528 N 0.7435 0.13193 0.72612 0.0
N1529 N 0.69131 0.13053 0.7235 0.0
H1530 H 0.91849 0.57477 0.7232 0.0
H1531 H 0.82596 0.60435 0.6994 0.0
H1532 H 0.85106 0.53103 0.72954 0.0
H1533 H 0.89261 0.64825 0.69045 0.0
H1534 H 0.83531 0.57749 0.71036 0.0
H1535 H 0.90989 0.60222 0.71157 0.0
C1536 C 0.90191 0.57098 0.72226 0.0
C1537 C 0.88547 0.55047 0.72731 0.0
C1538 C 0.84793 0.59294 0.70595 0.0
C1539 C 0.87549 0.58175 0.71385 0.0
C1540 C 0.8426 0.60836 0.69964 0.0
C1541 C 0.85851 0.62872 0.69396 0.0
C1542 C 0.86941 0.59778 0.70672 0.0
C1543 C 0.87977 0.63279 0.69463 0.0
C1544 C 0.89699 0.5866 0.7155 0.0
C1545 C 0.86425 0.54641 0.72558 0.0
N1546 N 0.88461 0.61751 0.70096 0.0
N1547 N 0.85991 0.56186 0.71902 0.0
H1548 H 0.50929 0.97661 0.14725 0.0
H1549 H 0.48834 0.02014 0.05736 0.0
H1550 H 0.44896 0.97285 0.13141 0.0
H1551 H 0.54165 0.00915 0.06839 0.0
H1552 H 0.47509 1.00631 0.08566 0.0
H1553 H 0.52277 0.99174 0.11955 0.0
C1554 C 0.49879 0.97881 0.13794 0.0
C1555 C 0.47786 0.97328 0.14175 0.0
C1556 C 0.4897 1.00693 0.08189 0.0
C1557 C 0.49346 0.99109 0.10999 0.0
C1558 C 0.4972 0.01474 0.06575 0.0
C1559 C 0.51584 0.01534 0.06043 0.0
C1560 C 0.50118 1.00006 0.09292 0.0
C1561 C 0.5271 1.00881 0.07196 0.0
C1562 C 0.50658 0.9876 0.12214 0.0
C1563 C 0.46527 0.97708 0.12923 0.0
N1564 N 0.51957 1.00139 0.08763 0.0
N1565 N 0.47326 0.98573 0.11395 0.0
H1566 H 0.06589 0.55451 0.14783 0.0
H1567 H 1.01082 0.48106 0.05633 0.0
H1568 H 0.04809 0.48476 0.13914 0.0
H1569 H 0.02164 0.54797 0.06763 0.0
H1570 H 0.02604 0.48253 0.08607 0.0
H1571 H 0.05107 0.55281 0.1181 0.0
C1572 C 0.05876 0.53878 0.13975 0.0
C1573 C 0.05825 0.51974 0.14615 0.0
C1574 C 0.0251 0.4969 0.08205 0.0
C1575 C 0.04146 0.51779 0.1118 0.0
C1576 C 0.01655 0.49611 0.06505 0.0
C1577 C 0.01515 0.51448 0.0595 0.0
C1578 C 0.03231 0.51625 0.09357 0.0
C1579 C 0.02239 0.53341 0.07141 0.0
C1580 C 0.0504 0.53787 0.12269 0.0
C1581 C 0.04916 0.49998 0.1348 0.0
N1582 N 0.03069 0.53383 0.08784 0.0
N1583 N 0.04114 0.49953 0.11823 0.0
H1584 H 0.51337 0.54688 0.15153 0.0
H1585 H 0.4895 0.4804 0.05699 0.0
H1586 H 0.45193 0.48871 0.13379 0.0
H1587 H 0.54502 0.54571 0.07142 0.0
H1588 H 0.47655 0.48131 0.08586 0.0
H1589 H 0.52625 0.54507 0.12302 0.0
C1590 C 0.5025 0.53379 0.14164 0.0
C1591 C 0.48144 0.51798 0.14518 0.0
C1592 C 0.49157 0.49543 0.08272 0.0
C1593 C 0.49635 0.51558 0.11242 0.0
C1594 C 0.49893 0.49493 0.06624 0.0
C1595 C 0.51816 0.51316 0.06174 0.0
C1596 C 0.50375 0.51416 0.09487 0.0
C1597 C 0.53003 0.53135 0.07432 0.0
C1598 C 0.50994 0.53269 0.12536 0.0
C1599 C 0.46836 0.50111 0.13185 0.0
N1600 N 0.52263 0.53141 0.09028 0.0
N1601 N 0.47601 0.50037 0.1161 0.0
H1602 H 0.98015 0.53745 0.88504 0.0
H1603 H 1.00124 0.46887 0.95753 0.0
H1604 H 0.95825 0.46652 0.87787 0.0
H1605 H 0.01927 0.53851 0.96661 0.0
H1606 H 0.98609 0.46804 0.92806 0.0
H1607 H 0.99481 0.53843 0.91472 0.0
C1608 C 0.97828 0.52203 0.8897 0.0
C1609 C 0.96787 0.50185 0.87882 0.0
C1610 C 0.99327 0.48352 0.93648 0.0
C1611 C 0.985 0.50298 0.91286 0.0
C1612 C 1.00199 0.48401 0.95329 0.0
C1613 C 0.01131 0.50373 0.96455 0.0
C1614 C 0.99403 0.50298 0.93078 0.0
C1615 C 0.01184 0.52285 0.95842 0.0
C1616 C 0.9868 0.52265 0.90665 0.0
C1617 C 0.96637 0.48255 0.88559 0.0
N1618 N 1.00333 0.52202 0.94194 0.0
N1619 N 0.97483 0.48361 0.90211 0.0
H1620 H 0.56808 0.53701 0.89069 0.0
H1621 H 0.47961 0.47343 0.95831 0.0
H1622 H 0.51653 0.46813 0.88134 0.0
H1623 H 0.53476 0.53958 0.97051 0.0
H1624 H 0.49225 0.47191 0.92957 0.0
H1625 H 0.55586 0.53879 0.91956 0.0
C1626 C 0.55428 0.5222 0.8947 0.0
C1627 C 0.54336 0.50237 0.88344 0.0
C1628 C 0.50167 0.48676 0.93851 0.0
C1629 C 0.52904 0.50447 0.91652 0.0
C1630 C 0.4944 0.48767 0.9549 0.0
C1631 C 0.50629 0.50658 0.96684 0.0
C1632 C 0.52091 0.505 0.93392 0.0
C1633 C 0.52535 0.52453 0.96178 0.0
C1634 C 0.54723 0.52329 0.91118 0.0
C1635 C 0.52531 0.4839 0.88936 0.0
N1636 N 0.53208 0.52332 0.94569 0.0
N1637 N 0.51874 0.48542 0.90543 0.0
H1638 H 0.55721 0.0463 0.88764 0.0
H1639 H 0.47319 0.01059 0.96108 0.0
H1640 H 0.49644 0.04487 0.88258 0.0
H1641 H 0.52944 1.00343 0.96647 0.0
H1642 H 0.48321 0.02509 0.93277 0.0
H1643 H 0.54925 0.03276 0.91696 0.0
C1644 C 0.54225 0.04319 0.89268 0.0
C1645 C 0.52737 0.04652 0.88252 0.0
C1646 C 0.4935 0.02044 0.94006 0.0
C1647 C 0.5182 0.03107 0.91597 0.0
C1648 C 0.48774 0.01209 0.95627 0.0
C1649 C 0.50059 1.00593 0.9662 0.0
C1650 C 0.51229 0.02264 0.93352 0.0
C1651 C 0.51932 1.00838 0.95934 0.0
C1652 C 0.53768 0.03537 0.90937 0.0
C1653 C 0.50821 0.04214 0.88971 0.0
N1654 N 0.52464 0.01655 0.94335 0.0
N1655 N 0.50423 0.03469 0.90591 0.0
H1656 H 0.11673 0.27991 0.46457 0.0
H1657 H 0.19875 0.38007 0.41035 0.0
H1658 H 0.16924 0.34206 0.48946 0.0
H1659 H 0.15539 0.3125 0.38783 0.0
H1660 H 0.18589 0.36817 0.43919 0.0
H1661 H 0.12827 0.29337 0.43601 0.0
C1662 C 0.13061 0.29647 0.46403 0.0
C1663 C 0.14202 0.30987 0.47946 0.0
C1664 C 0.17912 0.35602 0.42789 0.0
C1665 C 0.15547 0.32538 0.44671 0.0
C1666 C 0.1864 0.36282 0.41145 0.0
C1667 C 0.178 0.34729 0.39667 0.0
C1668 C 0.16326 0.33359 0.42948 0.0
C1669 C 0.16211 0.32511 0.39882 0.0
C1670 C 0.13728 0.30411 0.44771 0.0
C1671 C 0.16009 0.33108 0.47792 0.0
N1672 N 0.15527 0.31895 0.41488 0.0
N1673 N 0.16624 0.33821 0.46184 0.0
H1674 H 0.72931 0.88976 0.48159 0.0
H1675 H 0.67397 0.8148 0.39073 0.0
H1676 H 0.71252 0.82026 0.47347 0.0
H1677 H 0.6836 0.88129 0.40165 0.0
H1678 H 0.68967 0.81692 0.42043 0.0
H1679 H 0.71397 0.88737 0.45192 0.0
C1680 C 0.7223 0.87394 0.47364 0.0
C1681 C 0.72222 0.85518 0.48018 0.0
C1682 C 0.68836 0.83106 0.41633 0.0
C1683 C 0.70482 0.85242 0.4459 0.0
C1684 C 0.67954 0.82989 0.39935 0.0
C1685 C 0.67768 0.84796 0.39372 0.0
C1686 C 0.69537 0.85047 0.42773 0.0
C1687 C 0.6847 0.86695 0.4055 0.0
C1688 C 0.71363 0.87263 0.45662 0.0
C1689 C 0.71325 0.83528 0.46901 0.0
N1690 N 0.69328 0.86774 0.42191 0.0
N1691 N 0.70493 0.83443 0.45247 0.0
H1692 H 0.11483 0.84597 0.46449 0.0
H1693 H 0.20987 0.84976 0.41149 0.0
H1694 H 0.17523 0.85781 0.48936 0.0
H1695 H 0.1511 0.84199 0.38674 0.0
H1696 H 0.19711 0.85172 0.44017 0.0
H1697 H 0.12734 0.84323 0.43595 0.0
C1698 C 0.13069 0.84788 0.46397 0.0
C1699 C 0.14396 0.85209 0.47941 0.0
C1700 C 0.18692 0.84945 0.42847 0.0
C1701 C 0.15851 0.84916 0.44665 0.0
C1702 C 0.19419 0.84829 0.41211 0.0
C1703 C 0.18136 0.84538 0.39673 0.0
C1704 C 0.16668 0.84774 0.42947 0.0
C1705 C 0.16128 0.84375 0.39825 0.0
C1706 C 0.13788 0.84644 0.44764 0.0
C1707 C 0.16451 0.8548 0.47784 0.0
N1708 N 0.15455 0.84495 0.41432 0.0
N1709 N 0.17112 0.85324 0.46179 0.0
H1710 H 0.63487 0.80383 0.2081 0.0
H1711 H 0.68114 0.87238 0.30218 0.0
H1712 H 0.63299 0.86416 0.22259 0.0
H1713 H 0.66976 0.8053 0.29065 0.0
H1714 H 0.66574 0.87109 0.27256 0.0
H1715 H 0.64984 0.8054 0.23772 0.0
C1716 C 0.63744 0.81735 0.2175 0.0
C1717 C 0.63253 0.83384 0.21272 0.0
C1718 C 0.66653 0.85661 0.27653 0.0
C1719 C 0.65014 0.83595 0.24677 0.0
C1720 C 0.67512 0.85728 0.29348 0.0
C1721 C 0.67626 0.83875 0.29896 0.0
C1722 C 0.65935 0.83737 0.26491 0.0
C1723 C 0.6691 0.81994 0.28695 0.0
C1724 C 0.64614 0.81829 0.23443 0.0
C1725 C 0.63676 0.85122 0.2255 0.0
N1726 N 0.66094 0.81972 0.27051 0.0
N1727 N 0.64532 0.85181 0.24189 0.0
H1728 H 0.22287 0.8194 0.22679 0.0
H1729 H 0.15916 0.85914 0.28829 0.0
H1730 H 0.1947 0.85816 0.2086 0.0
H1731 H 0.19801 0.83157 0.30707 0.0
H1732 H 0.1711 0.85856 0.25888 0.0
H1733 H 0.21267 0.82284 0.25614 0.0
C1734 C 0.21442 0.82855 0.22896 0.0
C1735 C 0.20954 0.8384 0.21518 0.0
C1736 C 0.17714 0.85284 0.26949 0.0
C1737 C 0.19788 0.84257 0.24889 0.0
C1738 C 0.17035 0.85319 0.28625 0.0
C1739 C 0.17768 0.84548 0.30012 0.0
C1740 C 0.19116 0.8445 0.26662 0.0
C1741 C 0.19208 0.83784 0.29679 0.0
C1742 C 0.20873 0.83066 0.24576 0.0
C1743 C 0.19889 0.8504 0.21886 0.0
N1744 N 0.19823 0.83743 0.2804 0.0
N1745 N 0.1933 0.85204 0.23534 0.0
H1746 H 0.17774 0.34244 0.20559 0.0
H1747 H 0.20123 0.37346 0.30921 0.0
H1748 H 0.21729 0.40972 0.23014 0.0
H1749 H 0.15762 0.30628 0.28606 0.0
H1750 H 0.21049 0.38596 0.28014 0.0
H1751 H 0.1732 0.32794 0.23459 0.0
C1752 C 0.18566 0.35413 0.21706 0.0
C1753 C 0.19776 0.37736 0.21544 0.0
C1754 C 0.19902 0.36843 0.28135 0.0
C1755 C 0.19255 0.36091 0.24864 0.0
C1756 C 0.19382 0.36123 0.298 0.0
C1757 C 0.17863 0.33878 0.30005 0.0
C1758 C 0.18884 0.35311 0.26654 0.0
C1759 C 0.16939 0.32375 0.28502 0.0
C1760 C 0.18297 0.34586 0.23361 0.0
C1761 C 0.20752 0.39174 0.23076 0.0
N1762 N 0.17452 0.33122 0.26886 0.0
N1763 N 0.20463 0.3833 0.24667 0.0
H1764 H 0.7775 0.61092 0.79502 0.0
H1765 H 0.87368 0.70487 0.74576 0.0
H1766 H 0.83827 0.66161 0.82148 0.0
H1767 H 0.81545 0.65043 0.71901 0.0
H1768 H 0.86031 0.69039 0.77379 0.0
H1769 H 0.79029 0.62637 0.7672 0.0
C1770 C 0.79349 0.62538 0.795 0.0
C1771 C 0.80682 0.63496 0.81064 0.0
C1772 C 0.85037 0.68168 0.76179 0.0
C1773 C 0.82166 0.65267 0.77875 0.0
C1774 C 0.85798 0.68997 0.74581 0.0
C1775 C 0.84547 0.67902 0.73007 0.0
C1776 C 0.8301 0.66224 0.76202 0.0
C1777 C 0.82534 0.65969 0.73083 0.0
C1778 C 0.80084 0.63412 0.77909 0.0
C1779 C 0.82752 0.6535 0.80974 0.0
N1780 N 0.81827 0.6519 0.74653 0.0
N1781 N 0.83428 0.66175 0.79409 0.0
H1782 H 0.39825 0.22247 0.81434 0.0
H1783 H 0.34389 0.14888 0.72287 0.0
H1784 H 0.38034 0.15266 0.8059 0.0
H1785 H 0.35345 0.21529 0.73421 0.0
H1786 H 0.35902 0.15051 0.75267 0.0
H1787 H 0.38345 0.22066 0.78458 0.0
C1788 C 0.3911 0.2067 0.80631 0.0
C1789 C 0.39055 0.18768 0.81277 0.0
C1790 C 0.35782 0.16473 0.74864 0.0
C1791 C 0.37379 0.1856 0.77841 0.0
C1792 C 0.34932 0.16385 0.73162 0.0
C1793 C 0.3476 0.18204 0.72607 0.0
C1794 C 0.36467 0.18398 0.76018 0.0
C1795 C 0.35445 0.20087 0.738 0.0
C1796 C 0.38274 0.20572 0.78924 0.0
C1797 C 0.38144 0.16787 0.80149 0.0
N1798 N 0.36274 0.20138 0.75445 0.0
N1799 N 0.37344 0.16735 0.78491 0.0
H1800 H 0.78722 0.18672 0.79815 0.0
H1801 H 0.8664 0.16498 0.74085 0.0
H1802 H 0.83681 0.17559 0.82119 0.0
H1803 H 0.82572 0.18979 0.72078 0.0
H1804 H 0.85382 0.1654 0.77 0.0
H1805 H 0.799 0.18432 0.76925 0.0
C1806 C 0.80052 0.18364 0.79713 0.0
C1807 C 0.81101 0.18133 0.81215 0.0
C1808 C 0.84759 0.17064 0.75918 0.0
C1809 C 0.82474 0.1787 0.77899 0.0
C1810 C 0.85472 0.17034 0.74256 0.0
C1811 C 0.84695 0.17717 0.72836 0.0
C1812 C 0.83253 0.17772 0.76155 0.0
C1813 C 0.83193 0.1841 0.73129 0.0
C1814 C 0.80734 0.1824 0.78061 0.0
C1815 C 0.82838 0.17769 0.80999 0.0
N1816 N 0.8252 0.18415 0.74751 0.0
N1817 N 0.83467 0.17643 0.79373 0.0
H1818 H 0.30472 0.19978 0.5539 0.0
H1819 H 0.33931 0.13827 0.62373 0.0
H1820 H 0.30571 0.13856 0.54118 0.0
H1821 H 0.35155 0.20591 0.63369 0.0
H1822 H 0.32478 0.13716 0.59396 0.0
H1823 H 0.31964 0.20144 0.58364 0.0
C1824 C 0.30818 0.18675 0.55726 0.0
C1825 C 0.30392 0.16901 0.54486 0.0
C1826 C 0.33057 0.15225 0.60264 0.0
C1827 C 0.32077 0.17068 0.57913 0.0
C1828 C 0.33889 0.1529 0.61963 0.0
C1829 C 0.3463 0.17209 0.63126 0.0
C1830 C 0.32964 0.17096 0.59717 0.0
C1831 C 0.34542 0.19057 0.62528 0.0
C1832 C 0.31662 0.18768 0.57432 0.0
C1833 C 0.30838 0.1524 0.55025 0.0
N1834 N 0.33716 0.18954 0.60866 0.0
N1835 N 0.31651 0.15364 0.56693 0.0
H1836 H 0.90242 0.16678 0.56084 0.0
H1837 H 0.82529 0.19054 0.61938 0.0
H1838 H 0.85298 0.17868 0.53862 0.0
H1839 H 0.86743 0.16743 0.63931 0.0
H1840 H 0.83688 0.18918 0.58997 0.0
H1841 H 0.89159 0.16996 0.59 0.0
C1842 C 0.88935 0.17019 0.56209 0.0
C1843 C 0.87863 0.1725 0.54721 0.0
C1844 C 0.84366 0.18452 0.60081 0.0
C1845 C 0.86599 0.17603 0.58069 0.0
C1846 C 0.8371 0.18536 0.61759 0.0
C1847 C 0.84555 0.17927 0.63183 0.0
C1848 C 0.85883 0.17762 0.59831 0.0
C1849 C 0.86071 0.17257 0.62877 0.0
C1850 C 0.88308 0.17188 0.57876 0.0
C1851 C 0.86157 0.17656 0.54968 0.0
N1852 N 0.86685 0.17194 0.6124 0.0
N1853 N 0.85581 0.17826 0.56608 0.0
H1854 H 0.88838 0.74453 0.5637 0.0
H1855 H 0.82187 0.63918 0.61948 0.0
H1856 H 0.84269 0.67819 0.54005 0.0
H1857 H 0.86591 0.70656 0.642 0.0
H1858 H 0.83192 0.65186 0.59025 0.0
H1859 H 0.88294 0.72974 0.59243 0.0
C1860 C 0.8772 0.72682 0.56455 0.0
C1861 C 0.86581 0.71265 0.54943 0.0
C1862 C 0.83958 0.66379 0.60162 0.0
C1863 C 0.85952 0.69549 0.5824 0.0
C1864 C 0.8339 0.65653 0.61829 0.0
C1865 C 0.84312 0.67182 0.63317 0.0
C1866 C 0.85453 0.6865 0.59988 0.0
C1867 C 0.85853 0.69415 0.63091 0.0
C1868 C 0.87417 0.71835 0.58097 0.0
C1869 C 0.85188 0.68973 0.55133 0.0
N1870 N 0.86364 0.70082 0.6146 0.0
N1871 N 0.84898 0.6819 0.56752 0.0
loop_
_geom_bond_atom_site_label_1
_geom_bond_atom_site_label_2
_geom_bond_distance
_geom_bond_site_symmetry_2
_ccdc_geom_bond_type
C0 C1 1.264 . S
C0 C5 1.479 . S
C0 C10 1.465 . S
C1 C0 1.264 . S
C1 C3 1.339 . S
C1 H28 0.931 . S
C2 C3 1.395 . S
C2 C4 1.320 . S
C3 C1 1.339 . S
C3 C2 1.395 . S
C3 H29 0.929 . S
C4 C2 1.320 . S
C4 C5 1.405 . S
C4 H30 0.930 . S
C5 C0 1.479 . S
C5 C4 1.405 . S
C5 H31 0.931 . S
U6 O7 2.454 . S
U6 O8 2.458 . S
U6 C9 2.984 . S
U6 C10 2.847 . S
U6 C23 2.882 . S
U6 O24 2.441 . S
U6 O25 2.420 . S
U6 O26 2.455 . S
U6 O27 2.449 . S
O7 U6 2.454 . S
O7 C9 1.353 . S
O8 U6 2.458 . S
O8 C9 1.286 . S
C9 U6 2.984 . S
C9 O7 1.353 . S
C9 O8 1.286 . S
C9 C11 1.363 . S
C10 C0 1.465 . S
C10 U6 2.847 . S
C10 O24 1.249 . S
C10 O25 1.202 . S
C11 C9 1.363 . S
C11 C13 1.408 . S
C11 C16 1.342 . S
C12 C13 1.310 . S
C12 C15 1.461 . S
C12 H32 0.932 . S
C13 C11 1.408 . S
C13 C12 1.310 . S
C13 H33 0.930 . S
C14 C15 1.474 . S
C14 C16 1.285 . S
C14 H34 0.929 . S
C15 C12 1.461 . S
C15 C14 1.474 . S
C16 C11 1.342 . S
C16 C14 1.285 . S
C16 H35 0.930 . S
C17 C20 1.424 . S
C17 C22 1.245 . S
C17 C23 1.428 . S
C18 C21 1.260 . S
C18 C22 1.477 . S
C18 H36 0.932 . S
C19 C20 1.384 . S
C19 C21 1.479 . S
C19 H37 0.929 . S
C20 C17 1.424 . S
C20 C19 1.384 . S
C20 H38 0.928 . S
C21 C18 1.260 . S
C21 C19 1.479 . S
C22 C17 1.245 . S
C22 C18 1.477 . S
C22 H39 0.932 . S
C23 U6 2.882 . S
C23 C17 1.428 . S
C23 O26 1.301 . S
C23 O27 1.282 . S
O24 U6 2.441 . S
O24 C10 1.249 . S
O25 U6 2.420 . S
O25 C10 1.202 . S
O26 U6 2.455 . S
O26 C23 1.301 . S
O27 U6 2.449 . S
O27 C23 1.282 . S
H28 C1 0.931 . S
H29 C3 0.929 . S
H30 C4 0.930 . S
H31 C5 0.931 . S
H32 C12 0.932 . S
H33 C13 0.930 . S
H34 C14 0.929 . S
H35 C16 0.930 . S
H36 C18 0.932 . S
H37 C19 0.929 . S
H38 C20 0.928 . S
H39 C22 0.932 . S
C40 C41 1.264 . S
C40 C45 1.479 . S
C40 C50 1.465 . S
C41 C40 1.264 . S
C41 C43 1.339 . S
C41 H68 0.931 . S
C42 C43 1.395 . S
C42 C44 1.320 . S
C43 C41 1.339 . S
C43 C42 1.395 . S
C43 H69 0.929 . S
C44 C42 1.320 . S
C44 C45 1.405 . S
C44 H70 0.930 . S
C45 C40 1.479 . S
C45 C44 1.405 . S
C45 H71 0.931 . S
U46 O47 2.454 . S
U46 O48 2.458 . S
U46 C49 2.984 . S
U46 C50 2.847 . S
U46 C63 2.882 . S
U46 O64 2.441 . S
U46 O65 2.420 . S
U46 O66 2.455 . S
U46 O67 2.449 . S
O47 U46 2.454 . S
O47 C49 1.353 . S
O48 U46 2.458 . S
O48 C49 1.286 . S
C49 U46 2.984 . S
C49 O47 1.353 . S
C49 O48 1.286 . S
C49 C51 1.363 . S
C50 C40 1.465 . S
C50 U46 2.847 . S
C50 O64 1.249 . S
C50 O65 1.202 . S
C51 C49 1.363 . S
C51 C53 1.408 . S
C51 C56 1.342 . S
C52 C53 1.310 . S
C52 C55 1.461 . S
C52 H72 0.932 . S
C53 C51 1.408 . S
C53 C52 1.310 . S
C53 H73 0.930 . S
C54 C55 1.474 . S
C54 C56 1.285 . S
C54 H74 0.929 . S
C55 C52 1.461 . S
C55 C54 1.474 . S
C56 C51 1.342 . S
C56 C54 1.285 . S
C56 H75 0.930 . S
C57 C60 1.424 . S
C57 C62 1.245 . S
C57 C63 1.428 . S
C58 C61 1.260 . S
C58 C62 1.477 . S
C58 H76 0.932 . S
C59 C60 1.384 . S
C59 C61 1.479 . S
C59 H77 0.929 . S
C60 C57 1.424 . S
C60 C59 1.384 . S
C60 H78 0.928 . S
C61 C58 1.260 . S
C61 C59 1.479 . S
C62 C57 1.245 . S
C62 C58 1.477 . S
C62 H79 0.932 . S
C63 U46 2.882 . S
C63 C57 1.428 . S
C63 O66 1.301 . S
C63 O67 1.282 . S
O64 U46 2.441 . S
O64 C50 1.249 . S
O65 U46 2.420 . S
O65 C50 1.202 . S
O66 U46 2.455 . S
O66 C63 1.301 . S
O67 U46 2.449 . S
O67 C63 1.282 . S
H68 C41 0.931 . S
H69 C43 0.929 . S
H70 C44 0.930 . S
H71 C45 0.931 . S
H72 C52 0.932 . S
H73 C53 0.930 . S
H74 C54 0.929 . S
H75 C56 0.930 . S
H76 C58 0.932 . S
H77 C59 0.929 . S
H78 C60 0.928 . S
H79 C62 0.932 . S
C80 C81 1.264 . S
C80 C85 1.479 . S
C80 C90 1.465 . S
C81 C80 1.264 . S
C81 C83 1.339 . S
C81 H108 0.931 . S
C82 C83 1.395 . S
C82 C84 1.320 . S
C83 C81 1.339 . S
C83 C82 1.395 . S
C83 H109 0.929 . S
C84 C82 1.320 . S
C84 C85 1.405 . S
C84 H110 0.930 . S
C85 C80 1.479 . S
C85 C84 1.405 . S
C85 H111 0.931 . S
U86 O87 2.454 . S
U86 O88 2.458 . S
U86 C89 2.984 . S
U86 C90 2.847 . S
U86 C103 2.882 . S
U86 O104 2.441 . S
U86 O105 2.420 . S
U86 O106 2.455 . S
U86 O107 2.449 . S
O87 U86 2.454 . S
O87 C89 1.353 . S
O88 U86 2.458 . S
O88 C89 1.286 . S
C89 U86 2.984 . S
C89 O87 1.353 . S
C89 O88 1.286 . S
C89 C91 1.363 . S
C90 C80 1.465 . S
C90 U86 2.847 . S
C90 O104 1.249 . S
C90 O105 1.202 . S
C91 C89 1.363 . S
C91 C93 1.408 . S
C91 C96 1.342 . S
C92 C93 1.310 . S
C92 C95 1.461 . S
C92 H112 0.932 . S
C93 C91 1.408 . S
C93 C92 1.310 . S
C93 H113 0.930 . S
C94 C95 1.474 . S
C94 C96 1.285 . S
C94 H114 0.929 . S
C95 C92 1.461 . S
C95 C94 1.474 . S
C96 C91 1.342 . S
C96 C94 1.285 . S
C96 H115 0.930 . S
C97 C100 1.424 . S
C97 C102 1.245 . S
C97 C103 1.428 . S
C98 C101 1.260 . S
C98 C102 1.477 . S
C98 H116 0.932 . S
C99 C100 1.384 . S
C99 C101 1.479 . S
C99 H117 0.929 . S
C100 C97 1.424 . S
C100 C99 1.384 . S
C100 H118 0.928 . S
C101 C98 1.260 . S
C101 C99 1.479 . S
C102 C97 1.245 . S
C102 C98 1.477 . S
C102 H119 0.932 . S
C103 U86 2.882 . S
C103 C97 1.428 . S
C103 O106 1.301 . S
C103 O107 1.282 . S
O104 U86 2.441 . S
O104 C90 1.249 . S
O105 U86 2.420 . S
O105 C90 1.202 . S
O106 U86 2.455 . S
O106 C103 1.301 . S
O107 U86 2.449 . S
O107 C103 1.282 . S
H108 C81 0.931 . S
H109 C83 0.929 . S
H110 C84 0.930 . S
H111 C85 0.931 . S
H112 C92 0.932 . S
H113 C93 0.930 . S
H114 C94 0.929 . S
H115 C96 0.930 . S
H116 C98 0.932 . S
H117 C99 0.929 . S
H118 C100 0.928 . S
H119 C102 0.932 . S
C120 C121 1.264 . S
C120 C125 1.479 . S
C120 C130 1.465 . S
C121 C120 1.264 . S
C121 C123 1.339 . S
C121 H148 0.931 . S
C122 C123 1.395 . S
C122 C124 1.320 . S
C123 C121 1.339 . S
C123 C122 1.395 . S
C123 H149 0.929 . S
C124 C122 1.320 . S
C124 C125 1.405 . S
C124 H150 0.930 . S
C125 C120 1.479 . S
C125 C124 1.405 . S
C125 H151 0.931 . S
U126 O127 2.454 . S
U126 O128 2.458 . S
U126 C129 2.984 . S
U126 C130 2.847 . S
U126 C143 2.882 . S
U126 O144 2.441 . S
U126 O145 2.420 . S
U126 O146 2.455 . S
U126 O147 2.449 . S
O127 U126 2.454 . S
O127 C129 1.353 . S
O128 U126 2.458 . S
O128 C129 1.286 . S
C129 U126 2.984 . S
C129 O127 1.353 . S
C129 O128 1.286 . S
C129 C131 1.363 . S
C130 C120 1.465 . S
C130 U126 2.847 . S
C130 O144 1.249 . S
C130 O145 1.202 . S
C131 C129 1.363 . S
C131 C133 1.408 . S
C131 C136 1.342 . S
C132 C133 1.310 . S
C132 C135 1.461 . S
C132 H152 0.932 . S
C133 C131 1.408 . S
C133 C132 1.310 . S
C133 H153 0.930 . S
C134 C135 1.474 . S
C134 C136 1.285 . S
C134 H154 0.929 . S
C135 C132 1.461 . S
C135 C134 1.474 . S
C136 C131 1.342 . S
C136 C134 1.285 . S
C136 H155 0.930 . S
C137 C140 1.424 . S
C137 C142 1.245 . S
C137 C143 1.428 . S
C138 C141 1.260 . S
C138 C142 1.477 . S
C138 H156 0.932 . S
C139 C140 1.384 . S
C139 C141 1.479 . S
C139 H157 0.929 . S
C140 C137 1.424 . S
C140 C139 1.384 . S
C140 H158 0.928 . S
C141 C138 1.260 . S
C141 C139 1.479 . S
C142 C137 1.245 . S
C142 C138 1.477 . S
C142 H159 0.932 . S
C143 U126 2.882 . S
C143 C137 1.428 . S
C143 O146 1.301 . S
C143 O147 1.282 . S
O144 U126 2.441 . S
O144 C130 1.249 . S
O145 U126 2.420 . S
O145 C130 1.202 . S
O146 U126 2.455 . S
O146 C143 1.301 . S
O147 U126 2.449 . S
O147 C143 1.282 . S
H148 C121 0.931 . S
H149 C123 0.929 . S
H150 C124 0.930 . S
H151 C125 0.931 . S
H152 C132 0.932 . S
H153 C133 0.930 . S
H154 C134 0.929 . S
H155 C136 0.930 . S
H156 C138 0.932 . S
H157 C139 0.929 . S
H158 C140 0.928 . S
H159 C142 0.932 . S
C160 C161 1.264 . S
C160 C165 1.479 . S
C160 C170 1.465 . S
C161 C160 1.264 . S
C161 C163 1.339 . S
C161 H188 0.931 . S
C162 C163 1.395 . S
C162 C164 1.320 . S
C163 C161 1.339 . S
C163 C162 1.395 . S
C163 H189 0.929 . S
C164 C162 1.320 . S
C164 C165 1.405 . S
C164 H190 0.930 . S
C165 C160 1.479 . S
C165 C164 1.405 . S
C165 H191 0.931 . S
U166 O167 2.454 . S
U166 O168 2.458 . S
U166 C169 2.984 . S
U166 C170 2.847 . S
U166 C183 2.882 . S
U166 O184 2.441 . S
U166 O185 2.420 . S
U166 O186 2.455 . S
U166 O187 2.449 . S
O167 U166 2.454 . S
O167 C169 1.353 . S
O168 U166 2.458 . S
O168 C169 1.286 . S
C169 U166 2.984 . S
C169 O167 1.353 . S
C169 O168 1.286 . S
C169 C171 1.363 . S
C170 C160 1.465 . S
C170 U166 2.847 . S
C170 O184 1.249 . S
C170 O185 1.202 . S
C171 C169 1.363 . S
C171 C173 1.408 . S
C171 C176 1.342 . S
C172 C173 1.310 . S
C172 C175 1.461 . S
C172 H192 0.932 . S
C173 C171 1.408 . S
C173 C172 1.310 . S
C173 H193 0.930 . S
C174 C175 1.474 . S
C174 C176 1.285 . S
C174 H194 0.929 . S
C175 C172 1.461 . S
C175 C174 1.474 . S
C176 C171 1.342 . S
C176 C174 1.285 . S
C176 H195 0.930 . S
C177 C180 1.424 . S
C177 C182 1.245 . S
C177 C183 1.428 . S
C178 C181 1.260 . S
C178 C182 1.477 . S
C178 H196 0.932 . S
C179 C180 1.384 . S
C179 C181 1.479 . S
C179 H197 0.929 . S
C180 C177 1.424 . S
C180 C179 1.384 . S
C180 H198 0.928 . S
C181 C178 1.260 . S
C181 C179 1.479 . S
C182 C177 1.245 . S
C182 C178 1.477 . S
C182 H199 0.932 . S
C183 U166 2.882 . S
C183 C177 1.428 . S
C183 O186 1.301 . S
C183 O187 1.282 . S
O184 U166 2.441 . S
O184 C170 1.249 . S
O185 U166 2.420 . S
O185 C170 1.202 . S
O186 U166 2.455 . S
O186 C183 1.301 . S
O187 U166 2.449 . S
O187 C183 1.282 . S
H188 C161 0.931 . S
H189 C163 0.929 . S
H190 C164 0.930 . S
H191 C165 0.931 . S
H192 C172 0.932 . S
H193 C173 0.930 . S
H194 C174 0.929 . S
H195 C176 0.930 . S
H196 C178 0.932 . S
H197 C179 0.929 . S
H198 C180 0.928 . S
H199 C182 0.932 . S
C200 C201 1.264 . S
C200 C205 1.479 . S
C200 C210 1.465 . S
C201 C200 1.264 . S
C201 C203 1.339 . S
C201 H228 0.931 . S
C202 C203 1.395 . S
C202 C204 1.320 . S
C203 C201 1.339 . S
C203 C202 1.395 . S
C203 H229 0.929 . S
C204 C202 1.320 . S
C204 C205 1.405 . S
C204 H230 0.930 . S
C205 C200 1.479 . S
C205 C204 1.405 . S
C205 H231 0.931 . S
U206 O207 2.454 . S
U206 O208 2.458 . S
U206 C209 2.984 . S
U206 C210 2.847 . S
U206 C223 2.882 . S
U206 O224 2.441 . S
U206 O225 2.420 . S
U206 O226 2.455 . S
U206 O227 2.449 . S
O207 U206 2.454 . S
O207 C209 1.353 . S
O208 U206 2.458 . S
O208 C209 1.286 . S
C209 U206 2.984 . S
C209 O207 1.353 . S
C209 O208 1.286 . S
C209 C211 1.363 . S
C210 C200 1.465 . S
C210 U206 2.847 . S
C210 O224 1.249 . S
C210 O225 1.202 . S
C211 C209 1.363 . S
C211 C213 1.408 . S
C211 C216 1.342 . S
C212 C213 1.310 . S
C212 C215 1.461 . S
C212 H232 0.932 . S
C213 C211 1.408 . S
C213 C212 1.310 . S
C213 H233 0.930 . S
C214 C215 1.474 . S
C214 C216 1.285 . S
C214 H234 0.929 . S
C215 C212 1.461 . S
C215 C214 1.474 . S
C216 C211 1.342 . S
C216 C214 1.285 . S
C216 H235 0.930 . S
C217 C220 1.424 . S
C217 C222 1.245 . S
C217 C223 1.428 . S
C218 C221 1.260 . S
C218 C222 1.477 . S
C218 H236 0.932 . S
C219 C220 1.384 . S
C219 C221 1.479 . S
C219 H237 0.929 . S
C220 C217 1.424 . S
C220 C219 1.384 . S
C220 H238 0.928 . S
C221 C218 1.260 . S
C221 C219 1.479 . S
C222 C217 1.245 . S
C222 C218 1.477 . S
C222 H239 0.932 . S
C223 U206 2.882 . S
C223 C217 1.428 . S
C223 O226 1.301 . S
C223 O227 1.282 . S
O224 U206 2.441 . S
O224 C210 1.249 . S
O225 U206 2.420 . S
O225 C210 1.202 . S
O226 U206 2.455 . S
O226 C223 1.301 . S
O227 U206 2.449 . S
O227 C223 1.282 . S
H228 C201 0.931 . S
H229 C203 0.929 . S
H230 C204 0.930 . S
H231 C205 0.931 . S
H232 C212 0.932 . S
H233 C213 0.930 . S
H234 C214 0.929 . S
H235 C216 0.930 . S
H236 C218 0.932 . S
H237 C219 0.929 . S
H238 C220 0.928 . S
H239 C222 0.932 . S
C240 C241 1.264 . S
C240 C245 1.479 . S
C240 C250 1.465 . S
C241 C240 1.264 . S
C241 C243 1.339 . S
C241 H268 0.931 . S
C242 C243 1.395 . S
C242 C244 1.320 . S
C243 C241 1.339 . S
C243 C242 1.395 . S
C243 H269 0.929 . S
C244 C242 1.320 . S
C244 C245 1.405 . S
C244 H270 0.930 . S
C245 C240 1.479 . S
C245 C244 1.405 . S
C245 H271 0.931 . S
U246 O247 2.454 . S
U246 O248 2.458 . S
U246 C249 2.984 . S
U246 C250 2.847 . S
U246 C263 2.882 . S
U246 O264 2.441 . S
U246 O265 2.420 . S
U246 O266 2.455 . S
U246 O267 2.449 . S
O247 U246 2.454 . S
O247 C249 1.353 . S
O248 U246 2.458 . S
O248 C249 1.286 . S
C249 U246 2.984 . S
C249 O247 1.353 . S
C249 O248 1.286 . S
C249 C251 1.363 . S
C250 C240 1.465 . S
C250 U246 2.847 . S
C250 O264 1.249 . S
C250 O265 1.202 . S
C251 C249 1.363 . S
C251 C253 1.408 . S
C251 C256 1.342 . S
C252 C253 1.310 . S
C252 C255 1.461 . S
C252 H272 0.932 . S
C253 C251 1.408 . S
C253 C252 1.310 . S
C253 H273 0.930 . S
C254 C255 1.474 . S
C254 C256 1.285 . S
C254 H274 0.929 . S
C255 C252 1.461 . S
C255 C254 1.474 . S
C256 C251 1.342 . S
C256 C254 1.285 . S
C256 H275 0.930 . S
C257 C260 1.424 . S
C257 C262 1.245 . S
C257 C263 1.428 . S
C258 C261 1.260 . S
C258 C262 1.477 . S
C258 H276 0.932 . S
C259 C260 1.384 . S
C259 C261 1.479 . S
C259 H277 0.929 . S
C260 C257 1.424 . S
C260 C259 1.384 . S
C260 H278 0.928 . S
C261 C258 1.260 . S
C261 C259 1.479 . S
C262 C257 1.245 . S
C262 C258 1.477 . S
C262 H279 0.932 . S
C263 U246 2.882 . S
C263 C257 1.428 . S
C263 O266 1.301 . S
C263 O267 1.282 . S
O264 U246 2.441 . S
O264 C250 1.249 . S
O265 U246 2.420 . S
O265 C250 1.202 . S
O266 U246 2.455 . S
O266 C263 1.301 . S
O267 U246 2.449 . S
O267 C263 1.282 . S
H268 C241 0.931 . S
H269 C243 0.929 . S
H270 C244 0.930 . S
H271 C245 0.931 . S
H272 C252 0.932 . S
H273 C253 0.930 . S
H274 C254 0.929 . S
H275 C256 0.930 . S
H276 C258 0.932 . S
H277 C259 0.929 . S
H278 C260 0.928 . S
H279 C262 0.932 . S
C280 C281 1.264 . S
C280 C285 1.479 . S
C280 C290 1.465 . S
C281 C280 1.264 . S
C281 C283 1.339 . S
C281 H308 0.931 . S
C282 C283 1.395 . S
C282 C284 1.320 . S
C283 C281 1.339 . S
C283 C282 1.395 . S
C283 H309 0.929 . S
C284 C282 1.320 . S
C284 C285 1.405 . S
C284 H310 0.930 . S
C285 C280 1.479 . S
C285 C284 1.405 . S
C285 H311 0.931 . S
U286 O287 2.454 . S
U286 O288 2.458 . S
U286 C289 2.984 . S
U286 C290 2.847 . S
U286 C303 2.882 . S
U286 O304 2.441 . S
U286 O305 2.420 . S
U286 O306 2.455 . S
U286 O307 2.449 . S
O287 U286 2.454 . S
O287 C289 1.353 . S
O288 U286 2.458 . S
O288 C289 1.286 . S
C289 U286 2.984 . S
C289 O287 1.353 . S
C289 O288 1.286 . S
C289 C291 1.363 . S
C290 C280 1.465 . S
C290 U286 2.847 . S
C290 O304 1.249 . S
C290 O305 1.202 . S
C291 C289 1.363 . S
C291 C293 1.408 . S
C291 C296 1.342 . S
C292 C293 1.310 . S
C292 C295 1.461 . S
C292 H312 0.932 . S
C293 C291 1.408 . S
C293 C292 1.310 . S
C293 H313 0.930 . S
C294 C295 1.474 . S
C294 C296 1.285 . S
C294 H314 0.929 . S
C295 C292 1.461 . S
C295 C294 1.474 . S
C296 C291 1.342 . S
C296 C294 1.285 . S
C296 H315 0.930 . S
C297 C300 1.424 . S
C297 C302 1.245 . S
C297 C303 1.428 . S
C298 C301 1.260 . S
C298 C302 1.477 . S
C298 H316 0.932 . S
C299 C300 1.384 . S
C299 C301 1.479 . S
C299 H317 0.929 . S
C300 C297 1.424 . S
C300 C299 1.384 . S
C300 H318 0.928 . S
C301 C298 1.260 . S
C301 C299 1.479 . S
C302 C297 1.245 . S
C302 C298 1.477 . S
C302 H319 0.932 . S
C303 U286 2.882 . S
C303 C297 1.428 . S
C303 O306 1.301 . S
C303 O307 1.282 . S
O304 U286 2.441 . S
O304 C290 1.249 . S
O305 U286 2.420 . S
O305 C290 1.202 . S
O306 U286 2.455 . S
O306 C303 1.301 . S
O307 U286 2.449 . S
O307 C303 1.282 . S
H308 C281 0.931 . S
H309 C283 0.929 . S
H310 C284 0.930 . S
H311 C285 0.931 . S
H312 C292 0.932 . S
H313 C293 0.930 . S
H314 C294 0.929 . S
H315 C296 0.930 . S
H316 C298 0.932 . S
H317 C299 0.929 . S
H318 C300 0.928 . S
H319 C302 0.932 . S
C320 C321 1.264 . S
C320 C325 1.479 . S
C320 C330 1.465 . S
C321 C320 1.264 . S
C321 C323 1.339 . S
C321 H348 0.931 . S
C322 C323 1.395 . S
C322 C324 1.320 . S
C323 C321 1.339 . S
C323 C322 1.395 . S
C323 H349 0.929 . S
C324 C322 1.320 . S
C324 C325 1.405 . S
C324 H350 0.930 . S
C325 C320 1.479 . S
C325 C324 1.405 . S
C325 H351 0.931 . S
U326 O327 2.454 . S
U326 O328 2.458 . S
U326 C329 2.984 . S
U326 C330 2.847 . S
U326 C343 2.882 . S
U326 O344 2.441 . S
U326 O345 2.420 . S
U326 O346 2.455 . S
U326 O347 2.449 . S
O327 U326 2.454 . S
O327 C329 1.353 . S
O328 U326 2.458 . S
O328 C329 1.286 . S
C329 U326 2.984 . S
C329 O327 1.353 . S
C329 O328 1.286 . S
C329 C331 1.363 . S
C330 C320 1.465 . S
C330 U326 2.847 . S
C330 O344 1.249 . S
C330 O345 1.202 . S
C331 C329 1.363 . S
C331 C333 1.408 . S
C331 C336 1.342 . S
C332 C333 1.310 . S
C332 C335 1.461 . S
C332 H352 0.932 . S
C333 C331 1.408 . S
C333 C332 1.310 . S
C333 H353 0.930 . S
C334 C335 1.474 . S
C334 C336 1.285 . S
C334 H354 0.929 . S
C335 C332 1.461 . S
C335 C334 1.474 . S
C336 C331 1.342 . S
C336 C334 1.285 . S
C336 H355 0.930 . S
C337 C340 1.424 . S
C337 C342 1.245 . S
C337 C343 1.428 . S
C338 C341 1.260 . S
C338 C342 1.477 . S
C338 H356 0.932 . S
C339 C340 1.384 . S
C339 C341 1.479 . S
C339 H357 0.929 . S
C340 C337 1.424 . S
C340 C339 1.384 . S
C340 H358 0.928 . S
C341 C338 1.260 . S
C341 C339 1.479 . S
C342 C337 1.245 . S
C342 C338 1.477 . S
C342 H359 0.932 . S
C343 U326 2.882 . S
C343 C337 1.428 . S
C343 O346 1.301 . S
C343 O347 1.282 . S
O344 U326 2.441 . S
O344 C330 1.249 . S
O345 U326 2.420 . S
O345 C330 1.202 . S
O346 U326 2.455 . S
O346 C343 1.301 . S
O347 U326 2.449 . S
O347 C343 1.282 . S
H348 C321 0.931 . S
H349 C323 0.929 . S
H350 C324 0.930 . S
H351 C325 0.931 . S
H352 C332 0.932 . S
H353 C333 0.930 . S
H354 C334 0.929 . S
H355 C336 0.930 . S
H356 C338 0.932 . S
H357 C339 0.929 . S
H358 C340 0.928 . S
H359 C342 0.932 . S
C360 C361 1.264 . S
C360 C365 1.479 . S
C360 C370 1.465 . S
C361 C360 1.264 . S
C361 C363 1.339 . S
C361 H388 0.931 . S
C362 C363 1.395 . S
C362 C364 1.320 . S
C363 C361 1.339 . S
C363 C362 1.395 . S
C363 H389 0.929 . S
C364 C362 1.320 . S
C364 C365 1.405 . S
C364 H390 0.930 . S
C365 C360 1.479 . S
C365 C364 1.405 . S
C365 H391 0.931 . S
U366 O367 2.454 . S
U366 O368 2.458 . S
U366 C369 2.984 . S
U366 C370 2.847 . S
U366 C383 2.882 . S
U366 O384 2.441 . S
U366 O385 2.420 . S
U366 O386 2.455 . S
U366 O387 2.449 . S
O367 U366 2.454 . S
O367 C369 1.353 . S
O368 U366 2.458 . S
O368 C369 1.286 . S
C369 U366 2.984 . S
C369 O367 1.353 . S
C369 O368 1.286 . S
C369 C371 1.363 . S
C370 C360 1.465 . S
C370 U366 2.847 . S
C370 O384 1.249 . S
C370 O385 1.202 . S
C371 C369 1.363 . S
C371 C373 1.408 . S
C371 C376 1.342 . S
C372 C373 1.310 . S
C372 C375 1.461 . S
C372 H392 0.932 . S
C373 C371 1.408 . S
C373 C372 1.310 . S
C373 H393 0.930 . S
C374 C375 1.474 . S
C374 C376 1.285 . S
C374 H394 0.929 . S
C375 C372 1.461 . S
C375 C374 1.474 . S
C376 C371 1.342 . S
C376 C374 1.285 . S
C376 H395 0.930 . S
C377 C380 1.424 . S
C377 C382 1.245 . S
C377 C383 1.428 . S
C378 C381 1.260 . S
C378 C382 1.477 . S
C378 H396 0.932 . S
C379 C380 1.384 . S
C379 C381 1.479 . S
C379 H397 0.929 . S
C380 C377 1.424 . S
C380 C379 1.384 . S
C380 H398 0.928 . S
C381 C378 1.260 . S
C381 C379 1.479 . S
C382 C377 1.245 . S
C382 C378 1.477 . S
C382 H399 0.932 . S
C383 U366 2.882 . S
C383 C377 1.428 . S
C383 O386 1.301 . S
C383 O387 1.282 . S
O384 U366 2.441 . S
O384 C370 1.249 . S
O385 U366 2.420 . S
O385 C370 1.202 . S
O386 U366 2.455 . S
O386 C383 1.301 . S
O387 U366 2.449 . S
O387 C383 1.282 . S
H388 C361 0.931 . S
H389 C363 0.929 . S
H390 C364 0.930 . S
H391 C365 0.931 . S
H392 C372 0.932 . S
H393 C373 0.930 . S
H394 C374 0.929 . S
H395 C376 0.930 . S
H396 C378 0.932 . S
H397 C379 0.929 . S
H398 C380 0.928 . S
H399 C382 0.932 . S
C400 C401 1.264 . S
C400 C405 1.479 . S
C400 C410 1.465 . S
C401 C400 1.264 . S
C401 C403 1.339 . S
C401 H428 0.931 . S
C402 C403 1.395 . S
C402 C404 1.320 . S
C403 C401 1.339 . S
C403 C402 1.395 . S
C403 H429 0.929 . S
C404 C402 1.320 . S
C404 C405 1.405 . S
C404 H430 0.930 . S
C405 C400 1.479 . S
C405 C404 1.405 . S
C405 H431 0.931 . S
U406 O407 2.454 . S
U406 O408 2.458 . S
U406 C409 2.984 . S
U406 C410 2.847 . S
U406 C423 2.882 . S
U406 O424 2.441 . S
U406 O425 2.420 . S
U406 O426 2.455 . S
U406 O427 2.449 . S
O407 U406 2.454 . S
O407 C409 1.353 . S
O408 U406 2.458 . S
O408 C409 1.286 . S
C409 U406 2.984 . S
C409 O407 1.353 . S
C409 O408 1.286 . S
C409 C411 1.363 . S
C410 C400 1.465 . S
C410 U406 2.847 . S
C410 O424 1.249 . S
C410 O425 1.202 . S
C411 C409 1.363 . S
C411 C413 1.408 . S
C411 C416 1.342 . S
C412 C413 1.310 . S
C412 C415 1.461 . S
C412 H432 0.932 . S
C413 C411 1.408 . S
C413 C412 1.310 . S
C413 H433 0.930 . S
C414 C415 1.474 . S
C414 C416 1.285 . S
C414 H434 0.929 . S
C415 C412 1.461 . S
C415 C414 1.474 . S
C416 C411 1.342 . S
C416 C414 1.285 . S
C416 H435 0.930 . S
C417 C420 1.424 . S
C417 C422 1.245 . S
C417 C423 1.428 . S
C418 C421 1.260 . S
C418 C422 1.477 . S
C418 H436 0.932 . S
C419 C420 1.384 . S
C419 C421 1.479 . S
C419 H437 0.929 . S
C420 C417 1.424 . S
C420 C419 1.384 . S
C420 H438 0.928 . S
C421 C418 1.260 . S
C421 C419 1.479 . S
C422 C417 1.245 . S
C422 C418 1.477 . S
C422 H439 0.932 . S
C423 U406 2.882 . S
C423 C417 1.428 . S
C423 O426 1.301 . S
C423 O427 1.282 . S
O424 U406 2.441 . S
O424 C410 1.249 . S
O425 U406 2.420 . S
O425 C410 1.202 . S
O426 U406 2.455 . S
O426 C423 1.301 . S
O427 U406 2.449 . S
O427 C423 1.282 . S
H428 C401 0.931 . S
H429 C403 0.929 . S
H430 C404 0.930 . S
H431 C405 0.931 . S
H432 C412 0.932 . S
H433 C413 0.930 . S
H434 C414 0.929 . S
H435 C416 0.930 . S
H436 C418 0.932 . S
H437 C419 0.929 . S
H438 C420 0.928 . S
H439 C422 0.932 . S
C440 C441 1.264 . S
C440 C445 1.479 . S
C440 C450 1.465 . S
C441 C440 1.264 . S
C441 C443 1.339 . S
C441 H468 0.931 . S
C442 C443 1.395 . S
C442 C444 1.320 . S
C443 C441 1.339 . S
C443 C442 1.395 . S
C443 H469 0.929 . S
C444 C442 1.320 . S
C444 C445 1.405 . S
C444 H470 0.930 . S
C445 C440 1.479 . S
C445 C444 1.405 . S
C445 H471 0.931 . S
U446 O447 2.454 . S
U446 O448 2.458 . S
U446 C449 2.984 . S
U446 C450 2.847 . S
U446 C463 2.882 . S
U446 O464 2.441 . S
U446 O465 2.420 . S
U446 O466 2.455 . S
U446 O467 2.449 . S
O447 U446 2.454 . S
O447 C449 1.353 . S
O448 U446 2.458 . S
O448 C449 1.286 . S
C449 U446 2.984 . S
C449 O447 1.353 . S
C449 O448 1.286 . S
C449 C451 1.363 . S
C450 C440 1.465 . S
C450 U446 2.847 . S
C450 O464 1.249 . S
C450 O465 1.202 . S
C451 C449 1.363 . S
C451 C453 1.408 . S
C451 C456 1.342 . S
C452 C453 1.310 . S
C452 C455 1.461 . S
C452 H472 0.932 . S
C453 C451 1.408 . S
C453 C452 1.310 . S
C453 H473 0.930 . S
C454 C455 1.474 . S
C454 C456 1.285 . S
C454 H474 0.929 . S
C455 C452 1.461 . S
C455 C454 1.474 . S
C456 C451 1.342 . S
C456 C454 1.285 . S
C456 H475 0.930 . S
C457 C460 1.424 . S
C457 C462 1.245 . S
C457 C463 1.428 . S
C458 C461 1.260 . S
C458 C462 1.477 . S
C458 H476 0.932 . S
C459 C460 1.384 . S
C459 C461 1.479 . S
C459 H477 0.929 . S
C460 C457 1.424 . S
C460 C459 1.384 . S
C460 H478 0.928 . S
C461 C458 1.260 . S
C461 C459 1.479 . S
C462 C457 1.245 . S
C462 C458 1.477 . S
C462 H479 0.932 . S
C463 U446 2.882 . S
C463 C457 1.428 . S
C463 O466 1.301 . S
C463 O467 1.282 . S
O464 U446 2.441 . S
O464 C450 1.249 . S
O465 U446 2.420 . S
O465 C450 1.202 . S
O466 U446 2.455 . S
O466 C463 1.301 . S
O467 U446 2.449 . S
O467 C463 1.282 . S
H468 C441 0.931 . S
H469 C443 0.929 . S
H470 C444 0.930 . S
H471 C445 0.931 . S
H472 C452 0.932 . S
H473 C453 0.930 . S
H474 C454 0.929 . S
H475 C456 0.930 . S
H476 C458 0.932 . S
H477 C459 0.929 . S
H478 C460 0.928 . S
H479 C462 0.932 . S
C480 C481 1.264 . S
C480 C485 1.479 . S
C480 C490 1.465 . S
C481 C480 1.264 . S
C481 C483 1.339 . S
C481 H508 0.931 . S
C482 C483 1.395 . S
C482 C484 1.320 . S
C483 C481 1.339 . S
C483 C482 1.395 . S
C483 H509 0.929 . S
C484 C482 1.320 . S
C484 C485 1.405 . S
C484 H510 0.930 . S
C485 C480 1.479 . S
C485 C484 1.405 . S
C485 H511 0.931 . S
U486 O487 2.454 . S
U486 O488 2.458 . S
U486 C489 2.984 . S
U486 C490 2.847 . S
U486 C503 2.882 . S
U486 O504 2.441 . S
U486 O505 2.420 . S
U486 O506 2.455 . S
U486 O507 2.449 . S
O487 U486 2.454 . S
O487 C489 1.353 . S
O488 U486 2.458 . S
O488 C489 1.286 . S
C489 U486 2.984 . S
C489 O487 1.353 . S
C489 O488 1.286 . S
C489 C491 1.363 . S
C490 C480 1.465 . S
C490 U486 2.847 . S
C490 O504 1.249 . S
C490 O505 1.202 . S
C491 C489 1.363 . S
C491 C493 1.408 . S
C491 C496 1.342 . S
C492 C493 1.310 . S
C492 C495 1.461 . S
C492 H512 0.932 . S
C493 C491 1.408 . S
C493 C492 1.310 . S
C493 H513 0.930 . S
C494 C495 1.474 . S
C494 C496 1.285 . S
C494 H514 0.929 . S
C495 C492 1.461 . S
C495 C494 1.474 . S
C496 C491 1.342 . S
C496 C494 1.285 . S
C496 H515 0.930 . S
C497 C500 1.424 . S
C497 C502 1.245 . S
C497 C503 1.428 . S
C498 C501 1.260 . S
C498 C502 1.477 . S
C498 H516 0.932 . S
C499 C500 1.384 . S
C499 C501 1.479 . S
C499 H517 0.929 . S
C500 C497 1.424 . S
C500 C499 1.384 . S
C500 H518 0.928 . S
C501 C498 1.260 . S
C501 C499 1.479 . S
C502 C497 1.245 . S
C502 C498 1.477 . S
C502 H519 0.932 . S
C503 U486 2.882 . S
C503 C497 1.428 . S
C503 O506 1.301 . S
C503 O507 1.282 . S
O504 U486 2.441 . S
O504 C490 1.249 . S
O505 U486 2.420 . S
O505 C490 1.202 . S
O506 U486 2.455 . S
O506 C503 1.301 . S
O507 U486 2.449 . S
O507 C503 1.282 . S
H508 C481 0.931 . S
H509 C483 0.929 . S
H510 C484 0.930 . S
H511 C485 0.931 . S
H512 C492 0.932 . S
H513 C493 0.930 . S
H514 C494 0.929 . S
H515 C496 0.930 . S
H516 C498 0.932 . S
H517 C499 0.929 . S
H518 C500 0.928 . S
H519 C502 0.932 . S
C520 C521 1.264 . S
C520 C525 1.479 . S
C520 C530 1.465 . S
C521 C520 1.264 . S
C521 C523 1.339 . S
C521 H548 0.931 . S
C522 C523 1.395 . S
C522 C524 1.320 . S
C523 C521 1.339 . S
C523 C522 1.395 . S
C523 H549 0.929 . S
C524 C522 1.320 . S
C524 C525 1.405 . S
C524 H550 0.930 . S
C525 C520 1.479 . S
C525 C524 1.405 . S
C525 H551 0.931 . S
U526 O527 2.454 . S
U526 O528 2.458 . S
U526 C529 2.984 . S
U526 C530 2.847 . S
U526 C543 2.882 . S
U526 O544 2.441 . S
U526 O545 2.420 . S
U526 O546 2.455 . S
U526 O547 2.449 . S
O527 U526 2.454 . S
O527 C529 1.353 . S
O528 U526 2.458 . S
O528 C529 1.286 . S
C529 U526 2.984 . S
C529 O527 1.353 . S
C529 O528 1.286 . S
C529 C531 1.363 . S
C530 C520 1.465 . S
C530 U526 2.847 . S
C530 O544 1.249 . S
C530 O545 1.202 . S
C531 C529 1.363 . S
C531 C533 1.408 . S
C531 C536 1.342 . S
C532 C533 1.310 . S
C532 C535 1.461 . S
C532 H552 0.932 . S
C533 C531 1.408 . S
C533 C532 1.310 . S
C533 H553 0.930 . S
C534 C535 1.474 . S
C534 C536 1.285 . S
C534 H554 0.929 . S
C535 C532 1.461 . S
C535 C534 1.474 . S
C536 C531 1.342 . S
C536 C534 1.285 . S
C536 H555 0.930 . S
C537 C540 1.424 . S
C537 C542 1.245 . S
C537 C543 1.428 . S
C538 C541 1.260 . S
C538 C542 1.477 . S
C538 H556 0.932 . S
C539 C540 1.384 . S
C539 C541 1.479 . S
C539 H557 0.929 . S
C540 C537 1.424 . S
C540 C539 1.384 . S
C540 H558 0.928 . S
C541 C538 1.260 . S
C541 C539 1.479 . S
C542 C537 1.245 . S
C542 C538 1.477 . S
C542 H559 0.932 . S
C543 U526 2.882 . S
C543 C537 1.428 . S
C543 O546 1.301 . S
C543 O547 1.282 . S
O544 U526 2.441 . S
O544 C530 1.249 . S
O545 U526 2.420 . S
O545 C530 1.202 . S
O546 U526 2.455 . S
O546 C543 1.301 . S
O547 U526 2.449 . S
O547 C543 1.282 . S
H548 C521 0.931 . S
H549 C523 0.929 . S
H550 C524 0.930 . S
H551 C525 0.931 . S
H552 C532 0.932 . S
H553 C533 0.930 . S
H554 C534 0.929 . S
H555 C536 0.930 . S
H556 C538 0.932 . S
H557 C539 0.929 . S
H558 C540 0.928 . S
H559 C542 0.932 . S
C560 C561 1.264 . S
C560 C565 1.479 . S
C560 C570 1.465 . S
C561 C560 1.264 . S
C561 C563 1.339 . S
C561 H588 0.931 . S
C562 C563 1.395 . S
C562 C564 1.320 . S
C563 C561 1.339 . S
C563 C562 1.395 . S
C563 H589 0.929 . S
C564 C562 1.320 . S
C564 C565 1.405 . S
C564 H590 0.930 . S
C565 C560 1.479 . S
C565 C564 1.405 . S
C565 H591 0.931 . S
U566 O567 2.454 . S
U566 O568 2.458 . S
U566 C569 2.984 . S
U566 C570 2.847 . S
U566 C583 2.882 . S
U566 O584 2.441 . S
U566 O585 2.420 . S
U566 O586 2.455 . S
U566 O587 2.449 . S
O567 U566 2.454 . S
O567 C569 1.353 . S
O568 U566 2.458 . S
O568 C569 1.286 . S
C569 U566 2.984 . S
C569 O567 1.353 . S
C569 O568 1.286 . S
C569 C571 1.363 . S
C570 C560 1.465 . S
C570 U566 2.847 . S
C570 O584 1.249 . S
C570 O585 1.202 . S
C571 C569 1.363 . S
C571 C573 1.408 . S
C571 C576 1.342 . S
C572 C573 1.310 . S
C572 C575 1.461 . S
C572 H592 0.932 . S
C573 C571 1.408 . S
C573 C572 1.310 . S
C573 H593 0.930 . S
C574 C575 1.474 . S
C574 C576 1.285 . S
C574 H594 0.929 . S
C575 C572 1.461 . S
C575 C574 1.474 . S
C576 C571 1.342 . S
C576 C574 1.285 . S
C576 H595 0.930 . S
C577 C580 1.424 . S
C577 C582 1.245 . S
C577 C583 1.428 . S
C578 C581 1.260 . S
C578 C582 1.477 . S
C578 H596 0.932 . S
C579 C580 1.384 . S
C579 C581 1.479 . S
C579 H597 0.929 . S
C580 C577 1.424 . S
C580 C579 1.384 . S
C580 H598 0.928 . S
C581 C578 1.260 . S
C581 C579 1.479 . S
C582 C577 1.245 . S
C582 C578 1.477 . S
C582 H599 0.932 . S
C583 U566 2.882 . S
C583 C577 1.428 . S
C583 O586 1.301 . S
C583 O587 1.282 . S
O584 U566 2.441 . S
O584 C570 1.249 . S
O585 U566 2.420 . S
O585 C570 1.202 . S
O586 U566 2.455 . S
O586 C583 1.301 . S
O587 U566 2.449 . S
O587 C583 1.282 . S
H588 C561 0.931 . S
H589 C563 0.929 . S
H590 C564 0.930 . S
H591 C565 0.931 . S
H592 C572 0.932 . S
H593 C573 0.930 . S
H594 C574 0.929 . S
H595 C576 0.930 . S
H596 C578 0.932 . S
H597 C579 0.929 . S
H598 C580 0.928 . S
H599 C582 0.932 . S
C600 C601 1.264 . S
C600 C605 1.479 . S
C600 C610 1.465 . S
C601 C600 1.264 . S
C601 C603 1.339 . S
C601 H628 0.931 . S
C602 C603 1.395 . S
C602 C604 1.320 . S
C603 C601 1.339 . S
C603 C602 1.395 . S
C603 H629 0.929 . S
C604 C602 1.320 . S
C604 C605 1.405 . S
C604 H630 0.930 . S
C605 C600 1.479 . S
C605 C604 1.405 . S
C605 H631 0.931 . S
U606 O607 2.454 . S
U606 O608 2.458 . S
U606 C609 2.984 . S
U606 C610 2.847 . S
U606 C623 2.882 . S
U606 O624 2.441 . S
U606 O625 2.420 . S
U606 O626 2.455 . S
U606 O627 2.449 . S
O607 U606 2.454 . S
O607 C609 1.353 . S
O608 U606 2.458 . S
O608 C609 1.286 . S
C609 U606 2.984 . S
C609 O607 1.353 . S
C609 O608 1.286 . S
C609 C611 1.363 . S
C610 C600 1.465 . S
C610 U606 2.847 . S
C610 O624 1.249 . S
C610 O625 1.202 . S
C611 C609 1.363 . S
C611 C613 1.408 . S
C611 C616 1.342 . S
C612 C613 1.310 . S
C612 C615 1.461 . S
C612 H632 0.932 . S
C613 C611 1.408 . S
C613 C612 1.310 . S
C613 H633 0.930 . S
C614 C615 1.474 . S
C614 C616 1.285 . S
C614 H634 0.929 . S
C615 C612 1.461 . S
C615 C614 1.474 . S
C616 C611 1.342 . S
C616 C614 1.285 . S
C616 H635 0.930 . S
C617 C620 1.424 . S
C617 C622 1.245 . S
C617 C623 1.428 . S
C618 C621 1.260 . S
C618 C622 1.477 . S
C618 H636 0.932 . S
C619 C620 1.384 . S
C619 C621 1.479 . S
C619 H637 0.929 . S
C620 C617 1.424 . S
C620 C619 1.384 . S
C620 H638 0.928 . S
C621 C618 1.260 . S
C621 C619 1.479 . S
C622 C617 1.245 . S
C622 C618 1.477 . S
C622 H639 0.932 . S
C623 U606 2.882 . S
C623 C617 1.428 . S
C623 O626 1.301 . S
C623 O627 1.282 . S
O624 U606 2.441 . S
O624 C610 1.249 . S
O625 U606 2.420 . S
O625 C610 1.202 . S
O626 U606 2.455 . S
O626 C623 1.301 . S
O627 U606 2.449 . S
O627 C623 1.282 . S
H628 C601 0.931 . S
H629 C603 0.929 . S
H630 C604 0.930 . S
H631 C605 0.931 . S
H632 C612 0.932 . S
H633 C613 0.930 . S
H634 C614 0.929 . S
H635 C616 0.930 . S
H636 C618 0.932 . S
H637 C619 0.929 . S
H638 C620 0.928 . S
H639 C622 0.932 . S
C640 C641 1.264 . S
C640 C645 1.479 . S
C640 C650 1.465 . S
C641 C640 1.264 . S
C641 C643 1.339 . S
C641 H668 0.931 . S
C642 C643 1.395 . S
C642 C644 1.320 . S
C643 C641 1.339 . S
C643 C642 1.395 . S
C643 H669 0.929 . S
C644 C642 1.320 . S
C644 C645 1.405 . S
C644 H670 0.930 . S
C645 C640 1.479 . S
C645 C644 1.405 . S
C645 H671 0.931 . S
U646 O647 2.454 . S
U646 O648 2.458 . S
U646 C649 2.984 . S
U646 C650 2.847 . S
U646 C663 2.882 . S
U646 O664 2.441 . S
U646 O665 2.420 . S
U646 O666 2.455 . S
U646 O667 2.449 . S
O647 U646 2.454 . S
O647 C649 1.353 . S
O648 U646 2.458 . S
O648 C649 1.286 . S
C649 U646 2.984 . S
C649 O647 1.353 . S
C649 O648 1.286 . S
C649 C651 1.363 . S
C650 C640 1.465 . S
C650 U646 2.847 . S
C650 O664 1.249 . S
C650 O665 1.202 . S
C651 C649 1.363 . S
C651 C653 1.408 . S
C651 C656 1.342 . S
C652 C653 1.310 . S
C652 C655 1.461 . S
C652 H672 0.932 . S
C653 C651 1.408 . S
C653 C652 1.310 . S
C653 H673 0.930 . S
C654 C655 1.474 . S
C654 C656 1.285 . S
C654 H674 0.929 . S
C655 C652 1.461 . S
C655 C654 1.474 . S
C656 C651 1.342 . S
C656 C654 1.285 . S
C656 H675 0.930 . S
C657 C660 1.424 . S
C657 C662 1.245 . S
C657 C663 1.428 . S
C658 C661 1.260 . S
C658 C662 1.477 . S
C658 H676 0.932 . S
C659 C660 1.384 . S
C659 C661 1.479 . S
C659 H677 0.929 . S
C660 C657 1.424 . S
C660 C659 1.384 . S
C660 H678 0.928 . S
C661 C658 1.260 . S
C661 C659 1.479 . S
C662 C657 1.245 . S
C662 C658 1.477 . S
C662 H679 0.932 . S
C663 U646 2.882 . S
C663 C657 1.428 . S
C663 O666 1.301 . S
C663 O667 1.282 . S
O664 U646 2.441 . S
O664 C650 1.249 . S
O665 U646 2.420 . S
O665 C650 1.202 . S
O666 U646 2.455 . S
O666 C663 1.301 . S
O667 U646 2.449 . S
O667 C663 1.282 . S
H668 C641 0.931 . S
H669 C643 0.929 . S
H670 C644 0.930 . S
H671 C645 0.931 . S
H672 C652 0.932 . S
H673 C653 0.930 . S
H674 C654 0.929 . S
H675 C656 0.930 . S
H676 C658 0.932 . S
H677 C659 0.929 . S
H678 C660 0.928 . S
H679 C662 0.932 . S
C680 C681 1.264 . S
C680 C685 1.479 . S
C680 C690 1.465 . S
C681 C680 1.264 . S
C681 C683 1.339 . S
C681 H708 0.931 . S
C682 C683 1.395 . S
C682 C684 1.320 . S
C683 C681 1.339 . S
C683 C682 1.395 . S
C683 H709 0.929 . S
C684 C682 1.320 . S
C684 C685 1.405 . S
C684 H710 0.930 . S
C685 C680 1.479 . S
C685 C684 1.405 . S
C685 H711 0.931 . S
U686 O687 2.454 . S
U686 O688 2.458 . S
U686 C689 2.984 . S
U686 C690 2.847 . S
U686 C703 2.882 . S
U686 O704 2.441 . S
U686 O705 2.420 . S
U686 O706 2.455 . S
U686 O707 2.449 . S
O687 U686 2.454 . S
O687 C689 1.353 . S
O688 U686 2.458 . S
O688 C689 1.286 . S
C689 U686 2.984 . S
C689 O687 1.353 . S
C689 O688 1.286 . S
C689 C691 1.363 . S
C690 C680 1.465 . S
C690 U686 2.847 . S
C690 O704 1.249 . S
C690 O705 1.202 . S
C691 C689 1.363 . S
C691 C693 1.408 . S
C691 C696 1.342 . S
C692 C693 1.310 . S
C692 C695 1.461 . S
C692 H712 0.932 . S
C693 C691 1.408 . S
C693 C692 1.310 . S
C693 H713 0.930 . S
C694 C695 1.474 . S
C694 C696 1.285 . S
C694 H714 0.929 . S
C695 C692 1.461 . S
C695 C694 1.474 . S
C696 C691 1.342 . S
C696 C694 1.285 . S
C696 H715 0.930 . S
C697 C700 1.424 . S
C697 C702 1.245 . S
C697 C703 1.428 . S
C698 C701 1.260 . S
C698 C702 1.477 . S
C698 H716 0.932 . S
C699 C700 1.384 . S
C699 C701 1.479 . S
C699 H717 0.929 . S
C700 C697 1.424 . S
C700 C699 1.384 . S
C700 H718 0.928 . S
C701 C698 1.260 . S
C701 C699 1.479 . S
C702 C697 1.245 . S
C702 C698 1.477 . S
C702 H719 0.932 . S
C703 U686 2.882 . S
C703 C697 1.428 . S
C703 O706 1.301 . S
C703 O707 1.282 . S
O704 U686 2.441 . S
O704 C690 1.249 . S
O705 U686 2.420 . S
O705 C690 1.202 . S
O706 U686 2.455 . S
O706 C703 1.301 . S
O707 U686 2.449 . S
O707 C703 1.282 . S
H708 C681 0.931 . S
H709 C683 0.929 . S
H710 C684 0.930 . S
H711 C685 0.931 . S
H712 C692 0.932 . S
H713 C693 0.930 . S
H714 C694 0.929 . S
H715 C696 0.930 . S
H716 C698 0.932 . S
H717 C699 0.929 . S
H718 C700 0.928 . S
H719 C702 0.932 . S
Tb720 O723 2.453 . S
Tb720 O724 2.596 1_545 S
Tb720 O725 2.374 1_545 S
Tb720 O733 2.343 1_554 S
Tb720 O735 2.353 . S
Tb720 O737 2.427 1_554 S
Tb720 O738 2.513 1_554 S
C721 O725 1.251 . S
C721 O727 1.296 . S
Tb722 O724 2.343 1_556 S
Tb722 O727 2.342 1_556 S
Tb722 O730 2.427 1_556 S
Tb722 O731 2.513 1_556 S
Tb722 O732 2.453 . S
Tb722 O733 2.596 1_565 S
Tb722 O734 2.374 1_565 S
O723 Tb720 2.453 . S
O723 C739 1.245 . S
O724 Tb720 2.596 1_565 S
O724 Tb722 2.343 1_554 S
O724 C739 1.259 1_565 S
O725 Tb720 2.374 1_565 S
O725 C721 1.251 . S
C726 O730 1.275 . S
C726 O731 1.246 . S
O727 C721 1.296 . S
O727 Tb722 2.342 1_554 S
C728 O732 1.228 1_545 S
C728 O733 1.264 . S
C729 O734 1.250 . S
C729 O735 1.263 1_556 S
O730 Tb722 2.427 1_554 S
O730 C726 1.275 . S
O731 Tb722 2.513 1_554 S
O731 C726 1.246 . S
O732 Tb722 2.453 . S
O732 C728 1.228 1_565 S
O733 Tb720 2.343 1_556 S
O733 Tb722 2.596 1_545 S
O733 C728 1.264 . S
O734 Tb722 2.374 1_545 S
O734 C729 1.250 . S
O735 Tb720 2.353 . S
O735 C729 1.263 1_554 S
C736 O737 1.275 . S
C736 O738 1.246 . S
O737 Tb720 2.427 1_556 S
O737 C736 1.275 . S
O738 Tb720 2.513 1_556 S
O738 C736 1.246 . S
C739 O723 1.245 . S
C739 O724 1.259 1_545 S
Tb740 O743 2.453 . S
Tb740 O744 2.596 1_655 S
Tb740 O745 2.374 1_655 S
Tb740 O753 2.343 1_554 S
Tb740 O755 2.353 . S
Tb740 O757 2.427 1_554 S
Tb740 O758 2.513 1_554 S
C741 O745 1.251 . S
C741 O747 1.263 . S
Tb742 O744 2.343 1_556 S
Tb742 O747 2.353 1_556 S
Tb742 O750 2.427 1_556 S
Tb742 O751 2.513 1_556 S
Tb742 O752 2.453 . S
Tb742 O753 2.596 1_455 S
Tb742 O754 2.374 1_455 S
O743 Tb740 2.453 . S
O743 C759 1.245 1_655 S
O744 Tb740 2.596 1_455 S
O744 Tb742 2.343 1_554 S
O744 C759 1.259 . S
O745 Tb740 2.374 1_455 S
O745 C741 1.251 . S
C746 O750 1.275 . S
C746 O751 1.246 . S
O747 C741 1.263 . S
O747 Tb742 2.353 1_554 S
C748 O752 1.262 . S
C748 O753 1.253 1_455 S
C749 O754 1.250 . S
C749 O755 1.263 1_556 S
O750 Tb742 2.427 1_554 S
O750 C746 1.275 . S
O751 Tb742 2.513 1_554 S
O751 C746 1.246 . S
O752 Tb742 2.453 . S
O752 C748 1.262 . S
O753 Tb740 2.343 1_556 S
O753 Tb742 2.596 1_655 S
O753 C748 1.253 1_655 S
O754 Tb742 2.374 1_655 S
O754 C749 1.250 . S
O755 Tb740 2.353 . S
O755 C749 1.263 1_554 S
C756 O757 1.275 . S
C756 O758 1.246 . S
O757 Tb740 2.427 1_556 S
O757 C756 1.275 . S
O758 Tb740 2.513 1_556 S
O758 C756 1.246 . S
C759 O743 1.245 1_455 S
C759 O744 1.259 . S
Tb760 O763 2.453 . S
Tb760 O764 2.596 . S
Tb760 O765 2.374 . S
Tb760 O773 2.343 1_556 S
Tb760 O775 2.353 1_556 S
Tb760 O777 2.427 1_556 S
Tb760 O778 2.513 1_556 S
C761 O765 1.251 . S
C761 O767 1.263 1_556 S
Tb762 O764 2.343 1_554 S
Tb762 O767 2.353 . S
Tb762 O770 2.427 1_554 S
Tb762 O771 2.513 1_554 S
Tb762 O772 2.453 . S
Tb762 O773 2.596 . S
Tb762 O774 2.374 . S
O763 Tb760 2.453 . S
O763 C779 1.245 . S
O764 Tb760 2.596 . S
O764 Tb762 2.343 1_556 S
O764 C779 1.259 . S
O765 Tb760 2.374 . S
O765 C761 1.251 . S
C766 O770 1.275 . S
C766 O771 1.246 . S
O767 C761 1.263 1_554 S
O767 Tb762 2.353 . S
C768 O772 1.245 . S
C768 O773 1.259 . S
C769 O774 1.250 . S
C769 O775 1.263 . S
O770 Tb762 2.427 1_556 S
O770 C766 1.275 . S
O771 Tb762 2.513 1_556 S
O771 C766 1.246 . S
O772 Tb762 2.453 . S
O772 C768 1.245 . S
O773 Tb760 2.343 1_554 S
O773 Tb762 2.596 . S
O773 C768 1.259 . S
O774 Tb762 2.374 . S
O774 C769 1.250 . S
O775 Tb760 2.353 1_554 S
O775 C769 1.263 . S
C776 O777 1.275 . S
C776 O778 1.246 . S
O777 Tb760 2.427 1_554 S
O777 C776 1.275 . S
O778 Tb760 2.513 1_554 S
O778 C776 1.246 . S
C779 O763 1.245 . S
C779 O764 1.259 . S
Tb780 O783 2.453 . S
Tb780 O784 2.596 . S
Tb780 O785 2.374 . S
Tb780 O793 2.343 . S
Tb780 O795 2.353 . S
Tb780 O797 2.427 . S
Tb780 O798 2.513 . S
C781 O785 1.251 . S
C781 O787 1.263 . S
Tb782 O784 2.343 . S
Tb782 O787 2.353 . S
Tb782 O790 2.427 . S
Tb782 O791 2.513 . S
Tb782 O792 2.453 . S
Tb782 O793 2.596 . S
Tb782 O794 2.374 . S
O783 Tb780 2.453 . S
O783 C799 1.245 . S
O784 Tb780 2.596 . S
O784 Tb782 2.343 . S
O784 C799 1.259 . S
O785 Tb780 2.374 . S
O785 C781 1.251 . S
C786 O790 1.275 . S
C786 O791 1.246 . S
O787 C781 1.263 . S
O787 Tb782 2.353 . S
C788 O792 1.245 . S
C788 O793 1.259 . S
C789 O794 1.250 . S
C789 O795 1.263 . S
O790 Tb782 2.427 . S
O790 C786 1.275 . S
O791 Tb782 2.513 . S
O791 C786 1.246 . S
O792 Tb782 2.453 . S
O792 C788 1.245 . S
O793 Tb780 2.343 . S
O793 Tb782 2.596 . S
O793 C788 1.259 . S
O794 Tb782 2.374 . S
O794 C789 1.250 . S
O795 Tb780 2.353 . S
O795 C789 1.263 . S
C796 O797 1.275 . S
C796 O798 1.246 . S
O797 Tb780 2.427 . S
O797 C796 1.275 . S
O798 Tb780 2.513 . S
O798 C796 1.246 . S
C799 O783 1.245 . S
C799 O784 1.259 . S
Tb800 O803 2.453 . S
Tb800 O804 2.596 . S
Tb800 O805 2.374 . S
Tb800 O813 2.343 . S
Tb800 O815 2.353 . S
Tb800 O817 2.427 . S
Tb800 O818 2.513 . S
C801 O805 1.251 . S
C801 O807 1.263 . S
Tb802 O804 2.343 . S
Tb802 O807 2.353 . S
Tb802 O810 2.427 . S
Tb802 O811 2.513 . S
Tb802 O812 2.453 . S
Tb802 O813 2.596 . S
Tb802 O814 2.374 . S
O803 Tb800 2.453 . S
O803 C819 1.245 . S
O804 Tb800 2.596 . S
O804 Tb802 2.343 . S
O804 C819 1.259 . S
O805 Tb800 2.374 . S
O805 C801 1.251 . S
C806 O810 1.275 . S
C806 O811 1.246 . S
O807 C801 1.263 . S
O807 Tb802 2.353 . S
C808 O812 1.245 . S
C808 O813 1.259 . S
C809 O814 1.250 . S
C809 O815 1.263 . S
O810 Tb802 2.427 . S
O810 C806 1.275 . S
O811 Tb802 2.513 . S
O811 C806 1.246 . S
O812 Tb802 2.453 . S
O812 C808 1.245 . S
O813 Tb800 2.343 . S
O813 Tb802 2.596 . S
O813 C808 1.259 . S
O814 Tb802 2.374 . S
O814 C809 1.250 . S
O815 Tb800 2.353 . S
O815 C809 1.263 . S
C816 O817 1.275 . S
C816 O818 1.246 . S
O817 Tb800 2.427 . S
O817 C816 1.275 . S
O818 Tb800 2.513 . S
O818 C816 1.246 . S
C819 O803 1.245 . S
C819 O804 1.259 . S
Tb820 O823 2.453 . S
Tb820 O824 2.596 . S
Tb820 O825 2.374 . S
Tb820 O833 2.343 . S
Tb820 O835 2.353 . S
Tb820 O837 2.427 . S
Tb820 O838 2.513 . S
C821 O825 1.251 . S
C821 O827 1.263 . S
Tb822 O824 2.343 . S
Tb822 O827 2.353 . S
Tb822 O830 2.427 . S
Tb822 O831 2.513 . S
Tb822 O832 2.453 . S
Tb822 O833 2.596 . S
Tb822 O834 2.374 . S
O823 Tb820 2.453 . S
O823 C839 1.245 . S
O824 Tb820 2.596 . S
O824 Tb822 2.343 . S
O824 C839 1.259 . S
O825 Tb820 2.374 . S
O825 C821 1.251 . S
C826 O830 1.275 . S
C826 O831 1.246 . S
O827 C821 1.263 . S
O827 Tb822 2.353 . S
C828 O832 1.245 . S
C828 O833 1.259 . S
C829 O834 1.250 . S
C829 O835 1.263 . S
O830 Tb822 2.427 . S
O830 C826 1.275 . S
O831 Tb822 2.513 . S
O831 C826 1.246 . S
O832 Tb822 2.453 . S
O832 C828 1.245 . S
O833 Tb820 2.343 . S
O833 Tb822 2.596 . S
O833 C828 1.259 . S
O834 Tb822 2.374 . S
O834 C829 1.250 . S
O835 Tb820 2.353 . S
O835 C829 1.263 . S
C836 O837 1.275 . S
C836 O838 1.246 . S
O837 Tb820 2.427 . S
O837 C836 1.275 . S
O838 Tb820 2.513 . S
O838 C836 1.246 . S
C839 O823 1.245 . S
C839 O824 1.259 . S
Tb840 O843 2.453 . S
Tb840 O844 2.596 . S
Tb840 O845 2.374 . S
Tb840 O853 2.343 . S
Tb840 O855 2.353 . S
Tb840 O857 2.427 . S
Tb840 O858 2.513 . S
C841 O845 1.251 . S
C841 O847 1.263 . S
Tb842 O844 2.343 . S
Tb842 O847 2.353 . S
Tb842 O850 2.427 . S
Tb842 O851 2.513 . S
Tb842 O852 2.453 . S
Tb842 O853 2.596 . S
Tb842 O854 2.374 . S
O843 Tb840 2.453 . S
O843 C859 1.245 . S
O844 Tb840 2.596 . S
O844 Tb842 2.343 . S
O844 C859 1.259 . S
O845 Tb840 2.374 . S
O845 C841 1.251 . S
C846 O850 1.275 . S
C846 O851 1.246 . S
O847 C841 1.263 . S
O847 Tb842 2.353 . S
C848 O852 1.245 . S
C848 O853 1.259 . S
C849 O854 1.250 . S
C849 O855 1.263 . S
O850 Tb842 2.427 . S
O850 C846 1.275 . S
O851 Tb842 2.513 . S
O851 C846 1.246 . S
O852 Tb842 2.453 . S
O852 C848 1.245 . S
O853 Tb840 2.343 . S
O853 Tb842 2.596 . S
O853 C848 1.259 . S
O854 Tb842 2.374 . S
O854 C849 1.250 . S
O855 Tb840 2.353 . S
O855 C849 1.263 . S
C856 O857 1.275 . S
C856 O858 1.246 . S
O857 Tb840 2.427 . S
O857 C856 1.275 . S
O858 Tb840 2.513 . S
O858 C856 1.246 . S
C859 O843 1.245 . S
C859 O844 1.259 . S
Tb860 O863 2.453 . S
Tb860 O864 2.596 . S
Tb860 O865 2.374 . S
Tb860 O873 2.343 . S
Tb860 O875 2.353 . S
Tb860 O877 2.427 . S
Tb860 O878 2.513 . S
C861 O865 1.251 . S
C861 O867 1.263 . S
Tb862 O864 2.343 . S
Tb862 O867 2.353 . S
Tb862 O870 2.427 . S
Tb862 O871 2.513 . S
Tb862 O872 2.453 . S
Tb862 O873 2.596 . S
Tb862 O874 2.374 . S
O863 Tb860 2.453 . S
O863 C879 1.245 . S
O864 Tb860 2.596 . S
O864 Tb862 2.343 . S
O864 C879 1.259 . S
O865 Tb860 2.374 . S
O865 C861 1.251 . S
C866 O870 1.275 . S
C866 O871 1.246 . S
O867 C861 1.263 . S
O867 Tb862 2.353 . S
C868 O872 1.245 . S
C868 O873 1.259 . S
C869 O874 1.250 . S
C869 O875 1.263 . S
O870 Tb862 2.427 . S
O870 C866 1.275 . S
O871 Tb862 2.513 . S
O871 C866 1.246 . S
O872 Tb862 2.453 . S
O872 C868 1.245 . S
O873 Tb860 2.343 . S
O873 Tb862 2.596 . S
O873 C868 1.259 . S
O874 Tb862 2.374 . S
O874 C869 1.250 . S
O875 Tb860 2.353 . S
O875 C869 1.263 . S
C876 O877 1.275 . S
C876 O878 1.246 . S
O877 Tb860 2.427 . S
O877 C876 1.275 . S
O878 Tb860 2.513 . S
O878 C876 1.246 . S
C879 O863 1.245 . S
C879 O864 1.259 . S
Tb880 O883 2.453 . S
Tb880 O884 2.596 . S
Tb880 O885 2.374 . S
Tb880 O893 2.343 . S
Tb880 O895 2.353 . S
Tb880 O897 2.427 . S
Tb880 O898 2.513 . S
C881 O885 1.251 . S
C881 O887 1.263 . S
Tb882 O884 2.343 . S
Tb882 O887 2.353 . S
Tb882 O890 2.427 . S
Tb882 O891 2.513 . S
Tb882 O892 2.453 . S
Tb882 O893 2.596 . S
Tb882 O894 2.374 . S
O883 Tb880 2.453 . S
O883 C899 1.245 . S
O884 Tb880 2.596 . S
O884 Tb882 2.343 . S
O884 C899 1.259 . S
O885 Tb880 2.374 . S
O885 C881 1.251 . S
C886 O890 1.275 . S
C886 O891 1.246 . S
O887 C881 1.263 . S
O887 Tb882 2.353 . S
C888 O892 1.245 . S
C888 O893 1.259 . S
C889 O894 1.250 . S
C889 O895 1.263 . S
O890 Tb882 2.427 . S
O890 C886 1.275 . S
O891 Tb882 2.513 . S
O891 C886 1.246 . S
O892 Tb882 2.453 . S
O892 C888 1.245 . S
O893 Tb880 2.343 . S
O893 Tb882 2.596 . S
O893 C888 1.259 . S
O894 Tb882 2.374 . S
O894 C889 1.250 . S
O895 Tb880 2.353 . S
O895 C889 1.263 . S
C896 O897 1.275 . S
C896 O898 1.246 . S
O897 Tb880 2.427 . S
O897 C896 1.275 . S
O898 Tb880 2.513 . S
O898 C896 1.246 . S
C899 O883 1.245 . S
C899 O884 1.259 . S
H900 C906 0.930 . S
H901 C910 0.930 . S
H902 C915 0.929 . S
H903 C913 0.929 . S
H904 C908 0.929 . S
H905 C914 0.929 . S
C906 H900 0.930 . S
C906 C907 1.367 . S
C906 C914 1.378 . S
C907 C906 1.367 . S
C907 C915 1.433 . S
C908 H904 0.929 . S
C908 C910 1.378 . S
C908 C912 1.350 . S
C909 C912 1.463 . S
C909 C914 1.350 . S
C909 N917 1.427 . S
C910 H901 0.930 . S
C910 C908 1.378 . S
C910 C911 1.367 . S
C911 C910 1.367 . S
C911 C913 1.433 . S
C912 C908 1.350 . S
C912 C909 1.463 . S
C912 N916 1.427 . S
C913 H903 0.929 . S
C913 C911 1.433 . S
C913 N916 1.384 . S
C914 H905 0.929 . S
C914 C906 1.378 . S
C914 C909 1.350 . S
C915 H902 0.929 . S
C915 C907 1.433 . S
C915 N917 1.384 . S
N916 C912 1.427 . S
N916 C913 1.384 . S
N917 C909 1.427 . S
N917 C915 1.384 . S
H918 C924 0.930 . S
H919 C928 0.930 . S
H920 C933 0.929 . S
H921 C931 0.929 . S
H922 C926 0.929 . S
H923 C932 0.929 . S
C924 H918 0.930 . S
C924 C925 1.367 . S
C924 C932 1.378 . S
C925 C924 1.367 . S
C925 C933 1.433 . S
C926 H922 0.929 . S
C926 C928 1.378 . S
C926 C930 1.350 . S
C927 C930 1.463 . S
C927 C932 1.350 . S
C927 N935 1.427 . S
C928 H919 0.930 . S
C928 C926 1.378 . S
C928 C929 1.367 . S
C929 C928 1.367 . S
C929 C931 1.433 . S
C930 C926 1.350 . S
C930 C927 1.463 . S
C930 N934 1.427 . S
C931 H921 0.929 . S
C931 C929 1.433 . S
C931 N934 1.384 . S
C932 H923 0.929 . S
C932 C924 1.378 . S
C932 C927 1.350 . S
C933 H920 0.929 . S
C933 C925 1.433 . S
C933 N935 1.384 . S
N934 C930 1.427 . S
N934 C931 1.384 . S
N935 C927 1.427 . S
N935 C933 1.384 . S
H936 C942 0.930 . S
H937 C946 0.930 . S
H938 C951 0.929 . S
H939 C949 0.929 . S
H940 C944 0.929 . S
H941 C950 0.929 . S
C942 H936 0.930 . S
C942 C943 1.367 . S
C942 C950 1.378 . S
C943 C942 1.367 . S
C943 C951 1.433 . S
C944 H940 0.929 . S
C944 C946 1.378 . S
C944 C948 1.350 . S
C945 C948 1.463 . S
C945 C950 1.350 . S
C945 N953 1.427 . S
C946 H937 0.930 . S
C946 C944 1.378 . S
C946 C947 1.367 . S
C947 C946 1.367 . S
C947 C949 1.433 . S
C948 C944 1.350 . S
C948 C945 1.463 . S
C948 N952 1.427 . S
C949 H939 0.929 . S
C949 C947 1.433 . S
C949 N952 1.384 . S
C950 H941 0.929 . S
C950 C942 1.378 . S
C950 C945 1.350 . S
C951 H938 0.929 . S
C951 C943 1.433 . S
C951 N953 1.384 . S
N952 C948 1.427 . S
N952 C949 1.384 . S
N953 C945 1.427 . S
N953 C951 1.384 . S
H954 C960 0.930 . S
H955 C964 0.930 . S
H956 C969 0.929 . S
H957 C967 0.929 1_554 S
H958 C962 0.929 . S
H959 C968 0.929 . S
C960 H954 0.930 . S
C960 C961 1.367 . S
C960 C968 1.378 . S
C961 C960 1.367 . S
C961 C969 1.433 . S
C962 H958 0.929 . S
C962 C964 1.378 . S
C962 C966 1.350 . S
C963 C966 1.463 . S
C963 C968 1.350 . S
C963 N971 1.427 . S
C964 H955 0.930 . S
C964 C962 1.378 . S
C964 C965 1.367 . S
C965 C964 1.367 . S
C965 C967 1.433 . S
C966 C962 1.350 . S
C966 C963 1.463 . S
C966 N970 1.427 . S
C967 H957 0.929 1_556 S
C967 C965 1.433 . S
C967 N970 1.384 . S
C968 H959 0.929 . S
C968 C960 1.378 . S
C968 C963 1.350 . S
C969 H956 0.929 . S
C969 C961 1.433 . S
C969 N971 1.384 . S
N970 C966 1.427 . S
N970 C967 1.384 . S
N971 C963 1.427 . S
N971 C969 1.384 . S
H972 C978 0.930 . S
H973 C982 0.930 . S
H974 C987 0.929 . S
H975 C985 0.929 . S
H976 C980 0.929 . S
H977 C986 0.929 . S
C978 H972 0.930 . S
C978 C979 1.367 . S
C978 C986 1.378 . S
C979 C978 1.367 . S
C979 C987 1.433 . S
C980 H976 0.929 . S
C980 C982 1.378 . S
C980 C984 1.350 . S
C981 C984 1.463 . S
C981 C986 1.350 . S
C981 N989 1.427 . S
C982 H973 0.930 . S
C982 C980 1.378 . S
C982 C983 1.367 . S
C983 C982 1.367 . S
C983 C985 1.433 . S
C984 C980 1.350 . S
C984 C981 1.463 . S
C984 N988 1.427 . S
C985 H975 0.929 . S
C985 C983 1.433 . S
C985 N988 1.384 . S
C986 H977 0.929 . S
C986 C978 1.378 . S
C986 C981 1.350 . S
C987 H974 0.929 . S
C987 C979 1.433 . S
C987 N989 1.384 . S
N988 C984 1.427 . S
N988 C985 1.384 . S
N989 C981 1.427 . S
N989 C987 1.384 . S
H990 C996 0.930 . S
H991 C1000 0.930 . S
H992 C1005 0.929 . S
H993 C1003 0.929 . S
H994 C998 0.929 . S
H995 C1004 0.929 . S
C996 H990 0.930 . S
C996 C997 1.367 . S
C996 C1004 1.378 . S
C997 C996 1.367 . S
C997 C1005 1.433 . S
C998 H994 0.929 . S
C998 C1000 1.378 . S
C998 C1002 1.350 . S
C999 C1002 1.463 . S
C999 C1004 1.350 . S
C999 N1007 1.427 . S
C1000 H991 0.930 . S
C1000 C998 1.378 . S
C1000 C1001 1.367 . S
C1001 C1000 1.367 . S
C1001 C1003 1.433 1_556 S
C1002 C998 1.350 . S
C1002 C999 1.463 . S
C1002 N1006 1.427 . S
C1003 H993 0.929 . S
C1003 C1001 1.433 1_554 S
C1003 N1006 1.384 1_554 S
C1004 H995 0.929 . S
C1004 C996 1.378 . S
C1004 C999 1.350 . S
C1005 H992 0.929 . S
C1005 C997 1.433 . S
C1005 N1007 1.384 . S
N1006 C1002 1.427 . S
N1006 C1003 1.384 1_556 S
N1007 C999 1.427 . S
N1007 C1005 1.384 . S
H1008 C1014 0.930 . S
H1009 C1018 0.930 . S
H1010 C1023 0.929 . S
H1011 C1021 0.929 . S
H1012 C1016 0.929 . S
H1013 C1022 0.929 . S
C1014 H1008 0.930 . S
C1014 C1015 1.367 . S
C1014 C1022 1.378 . S
C1015 C1014 1.367 . S
C1015 C1023 1.433 . S
C1016 H1012 0.929 . S
C1016 C1018 1.378 . S
C1016 C1020 1.350 . S
C1017 C1020 1.463 . S
C1017 C1022 1.350 . S
C1017 N1025 1.427 . S
C1018 H1009 0.930 . S
C1018 C1016 1.378 . S
C1018 C1019 1.367 . S
C1019 C1018 1.367 . S
C1019 C1021 1.433 . S
C1020 C1016 1.350 . S
C1020 C1017 1.463 . S
C1020 N1024 1.427 . S
C1021 H1011 0.929 . S
C1021 C1019 1.433 . S
C1021 N1024 1.384 . S
C1022 H1013 0.929 . S
C1022 C1014 1.378 . S
C1022 C1017 1.350 . S
C1023 H1010 0.929 . S
C1023 C1015 1.433 . S
C1023 N1025 1.384 . S
N1024 C1020 1.427 . S
N1024 C1021 1.384 . S
N1025 C1017 1.427 . S
N1025 C1023 1.384 . S
H1026 C1032 0.930 . S
H1027 C1036 0.930 . S
H1028 C1041 0.929 . S
H1029 C1039 0.929 . S
H1030 C1034 0.929 . S
H1031 C1040 0.929 . S
C1032 H1026 0.930 . S
C1032 C1033 1.367 . S
C1032 C1040 1.378 . S
C1033 C1032 1.367 . S
C1033 C1041 1.433 . S
C1034 H1030 0.929 . S
C1034 C1036 1.378 . S
C1034 C1038 1.350 . S
C1035 C1038 1.463 . S
C1035 C1040 1.350 . S
C1035 N1043 1.427 . S
C1036 H1027 0.930 . S
C1036 C1034 1.378 . S
C1036 C1037 1.367 . S
C1037 C1036 1.367 . S
C1037 C1039 1.433 . S
C1038 C1034 1.350 . S
C1038 C1035 1.463 . S
C1038 N1042 1.427 . S
C1039 H1029 0.929 . S
C1039 C1037 1.433 . S
C1039 N1042 1.384 . S
C1040 H1031 0.929 . S
C1040 C1032 1.378 . S
C1040 C1035 1.350 . S
C1041 H1028 0.929 . S
C1041 C1033 1.433 . S
C1041 N1043 1.384 . S
N1042 C1038 1.427 . S
N1042 C1039 1.384 . S
N1043 C1035 1.427 . S
N1043 C1041 1.384 . S
H1044 C1050 0.930 . S
H1045 C1054 0.930 . S
H1046 C1059 0.929 . S
H1047 C1057 0.929 . S
H1048 C1052 0.929 . S
H1049 C1058 0.929 . S
C1050 H1044 0.930 . S
C1050 C1051 1.367 . S
C1050 C1058 1.378 . S
C1051 C1050 1.367 . S
C1051 C1059 1.433 . S
C1052 H1048 0.929 . S
C1052 C1054 1.378 . S
C1052 C1056 1.350 . S
C1053 C1056 1.463 . S
C1053 C1058 1.350 . S
C1053 N1061 1.427 . S
C1054 H1045 0.930 . S
C1054 C1052 1.378 . S
C1054 C1055 1.367 . S
C1055 C1054 1.367 . S
C1055 C1057 1.433 . S
C1056 C1052 1.350 . S
C1056 C1053 1.463 . S
C1056 N1060 1.427 . S
C1057 H1047 0.929 . S
C1057 C1055 1.433 . S
C1057 N1060 1.384 . S
C1058 H1049 0.929 . S
C1058 C1050 1.378 . S
C1058 C1053 1.350 . S
C1059 H1046 0.929 . S
C1059 C1051 1.433 . S
C1059 N1061 1.384 . S
N1060 C1056 1.427 . S
N1060 C1057 1.384 . S
N1061 C1053 1.427 . S
N1061 C1059 1.384 . S
H1062 C1068 0.930 . S
H1063 C1072 0.930 . S
H1064 C1077 0.929 . S
H1065 C1075 0.929 . S
H1066 C1070 0.929 . S
H1067 C1076 0.929 . S
C1068 H1062 0.930 . S
C1068 C1069 1.367 . S
C1068 C1076 1.378 . S
C1069 C1068 1.367 . S
C1069 C1077 1.433 . S
C1070 H1066 0.929 . S
C1070 C1072 1.378 . S
C1070 C1074 1.350 . S
C1071 C1074 1.463 . S
C1071 C1076 1.350 . S
C1071 N1079 1.427 . S
C1072 H1063 0.930 . S
C1072 C1070 1.378 . S
C1072 C1073 1.367 . S
C1073 C1072 1.367 . S
C1073 C1075 1.433 . S
C1074 C1070 1.350 . S
C1074 C1071 1.463 . S
C1074 N1078 1.427 . S
C1075 H1065 0.929 . S
C1075 C1073 1.433 . S
C1075 N1078 1.384 . S
C1076 H1067 0.929 . S
C1076 C1068 1.378 . S
C1076 C1071 1.350 . S
C1077 H1064 0.929 . S
C1077 C1069 1.433 . S
C1077 N1079 1.384 . S
N1078 C1074 1.427 . S
N1078 C1075 1.384 . S
N1079 C1071 1.427 . S
N1079 C1077 1.384 . S
H1080 C1086 0.930 . S
H1081 C1090 0.930 . S
H1082 C1095 0.929 . S
H1083 C1093 0.929 . S
H1084 C1088 0.929 . S
H1085 C1094 0.929 . S
C1086 H1080 0.930 . S
C1086 C1087 1.367 . S
C1086 C1094 1.378 . S
C1087 C1086 1.367 . S
C1087 C1095 1.433 . S
C1088 H1084 0.929 . S
C1088 C1090 1.378 . S
C1088 C1092 1.350 . S
C1089 C1092 1.463 . S
C1089 C1094 1.350 . S
C1089 N1097 1.427 . S
C1090 H1081 0.930 . S
C1090 C1088 1.378 . S
C1090 C1091 1.367 . S
C1091 C1090 1.367 . S
C1091 C1093 1.433 . S
C1092 C1088 1.350 . S
C1092 C1089 1.463 . S
C1092 N1096 1.427 . S
C1093 H1083 0.929 . S
C1093 C1091 1.433 . S
C1093 N1096 1.384 . S
C1094 H1085 0.929 . S
C1094 C1086 1.378 . S
C1094 C1089 1.350 . S
C1095 H1082 0.929 . S
C1095 C1087 1.433 . S
C1095 N1097 1.384 . S
N1096 C1092 1.427 . S
N1096 C1093 1.384 . S
N1097 C1089 1.427 . S
N1097 C1095 1.384 . S
H1098 C1104 0.930 . S
H1099 C1108 0.930 . S
H1100 C1113 0.929 . S
H1101 C1111 0.929 1_556 S
H1102 C1106 0.929 . S
H1103 C1112 0.929 . S
C1104 H1098 0.930 . S
C1104 C1105 1.367 . S
C1104 C1112 1.378 . S
C1105 C1104 1.367 . S
C1105 C1113 1.433 . S
C1106 H1102 0.929 . S
C1106 C1108 1.378 . S
C1106 C1110 1.350 . S
C1107 C1110 1.463 . S
C1107 C1112 1.350 . S
C1107 N1115 1.427 . S
C1108 H1099 0.930 . S
C1108 C1106 1.378 . S
C1108 C1109 1.367 . S
C1109 C1108 1.367 . S
C1109 C1111 1.433 . S
C1110 C1106 1.350 . S
C1110 C1107 1.463 . S
C1110 N1114 1.427 . S
C1111 H1101 0.929 1_554 S
C1111 C1109 1.433 . S
C1111 N1114 1.384 . S
C1112 H1103 0.929 . S
C1112 C1104 1.378 . S
C1112 C1107 1.350 . S
C1113 H1100 0.929 . S
C1113 C1105 1.433 . S
C1113 N1115 1.384 . S
N1114 C1110 1.427 . S
N1114 C1111 1.384 . S
N1115 C1107 1.427 . S
N1115 C1113 1.384 . S
H1116 C1122 0.941 . S
H1117 C1126 0.930 . S
H1118 C1131 0.929 . S
H1119 C1129 0.929 . S
H1120 C1124 0.929 . S
H1121 C1130 0.929 . S
C1122 H1116 0.941 . S
C1122 C1123 1.368 . S
C1122 C1130 1.365 1_655 S
C1123 C1122 1.368 . S
C1123 C1131 1.433 . S
C1124 H1120 0.929 . S
C1124 C1126 1.378 . S
C1124 C1128 1.350 . S
C1125 C1128 1.463 . S
C1125 C1130 1.350 . S
C1125 N1133 1.427 . S
C1126 H1117 0.930 . S
C1126 C1124 1.378 . S
C1126 C1127 1.367 . S
C1127 C1126 1.367 . S
C1127 C1129 1.433 . S
C1128 C1124 1.350 . S
C1128 C1125 1.463 . S
C1128 N1132 1.427 . S
C1129 H1119 0.929 . S
C1129 C1127 1.433 . S
C1129 N1132 1.384 . S
C1130 H1121 0.929 . S
C1130 C1122 1.365 1_455 S
C1130 C1125 1.350 . S
C1131 H1118 0.929 . S
C1131 C1123 1.433 . S
C1131 N1133 1.384 1_655 S
N1132 C1128 1.427 . S
N1132 C1129 1.384 . S
N1133 C1125 1.427 . S
N1133 C1131 1.384 1_455 S
H1134 C1140 0.930 . S
H1135 C1144 0.930 . S
H1136 C1149 0.929 . S
H1137 C1147 0.929 . S
H1138 C1142 0.929 . S
H1139 C1148 0.929 . S
C1140 H1134 0.930 . S
C1140 C1141 1.367 . S
C1140 C1148 1.378 . S
C1141 C1140 1.367 . S
C1141 C1149 1.433 . S
C1142 H1138 0.929 . S
C1142 C1144 1.378 . S
C1142 C1146 1.350 . S
C1143 C1146 1.463 . S
C1143 C1148 1.350 . S
C1143 N1151 1.427 . S
C1144 H1135 0.930 . S
C1144 C1142 1.378 . S
C1144 C1145 1.367 . S
C1145 C1144 1.367 . S
C1145 C1147 1.433 . S
C1146 C1142 1.350 . S
C1146 C1143 1.463 . S
C1146 N1150 1.427 . S
C1147 H1137 0.929 . S
C1147 C1145 1.433 . S
C1147 N1150 1.384 . S
C1148 H1139 0.929 . S
C1148 C1140 1.378 . S
C1148 C1143 1.350 . S
C1149 H1136 0.929 . S
C1149 C1141 1.433 . S
C1149 N1151 1.384 . S
N1150 C1146 1.427 . S
N1150 C1147 1.384 . S
N1151 C1143 1.427 . S
N1151 C1149 1.384 . S
H1152 C1158 0.930 . S
H1153 C1162 0.930 . S
H1154 C1167 0.929 . S
H1155 C1165 0.929 . S
H1156 C1160 0.929 . S
H1157 C1166 0.929 . S
C1158 H1152 0.930 . S
C1158 C1159 1.367 . S
C1158 C1166 1.378 1_545 S
C1159 C1158 1.367 . S
C1159 C1167 1.433 . S
C1160 H1156 0.929 . S
C1160 C1162 1.378 . S
C1160 C1164 1.350 . S
C1161 C1164 1.463 . S
C1161 C1166 1.350 . S
C1161 N1169 1.427 . S
C1162 H1153 0.930 . S
C1162 C1160 1.378 . S
C1162 C1163 1.367 . S
C1163 C1162 1.367 . S
C1163 C1165 1.433 . S
C1164 C1160 1.350 . S
C1164 C1161 1.463 . S
C1164 N1168 1.427 . S
C1165 H1155 0.929 . S
C1165 C1163 1.433 . S
C1165 N1168 1.384 . S
C1166 H1157 0.929 . S
C1166 C1158 1.378 1_565 S
C1166 C1161 1.350 . S
C1167 H1154 0.929 . S
C1167 C1159 1.433 . S
C1167 N1169 1.384 1_545 S
N1168 C1164 1.427 . S
N1168 C1165 1.384 . S
N1169 C1161 1.427 . S
N1169 C1167 1.384 1_565 S
H1170 C1176 0.930 . S
H1171 C1180 0.930 . S
H1172 C1185 0.929 . S
H1173 C1183 0.929 . S
H1174 C1178 0.929 . S
H1175 C1184 0.929 . S
C1176 H1170 0.930 . S
C1176 C1177 1.367 . S
C1176 C1184 1.378 . S
C1177 C1176 1.367 . S
C1177 C1185 1.433 . S
C1178 H1174 0.929 . S
C1178 C1180 1.378 . S
C1178 C1182 1.350 . S
C1179 C1182 1.463 . S
C1179 C1184 1.350 . S
C1179 N1187 1.427 . S
C1180 H1171 0.930 . S
C1180 C1178 1.378 . S
C1180 C1181 1.367 . S
C1181 C1180 1.367 . S
C1181 C1183 1.433 . S
C1182 C1178 1.350 . S
C1182 C1179 1.463 . S
C1182 N1186 1.427 . S
C1183 H1173 0.929 . S
C1183 C1181 1.433 . S
C1183 N1186 1.384 . S
C1184 H1175 0.929 . S
C1184 C1176 1.378 . S
C1184 C1179 1.350 . S
C1185 H1172 0.929 . S
C1185 C1177 1.433 . S
C1185 N1187 1.384 . S
N1186 C1182 1.427 . S
N1186 C1183 1.384 . S
N1187 C1179 1.427 . S
N1187 C1185 1.384 . S
H1188 C1194 0.930 . S
H1189 C1198 0.930 . S
H1190 C1203 0.929 . S
H1191 C1201 0.929 . S
H1192 C1196 0.929 . S
H1193 C1202 0.929 . S
C1194 H1188 0.930 . S
C1194 C1195 1.367 . S
C1194 C1202 1.378 . S
C1195 C1194 1.367 . S
C1195 C1203 1.433 . S
C1196 H1192 0.929 . S
C1196 C1198 1.378 . S
C1196 C1200 1.350 . S
C1197 C1200 1.463 . S
C1197 C1202 1.350 . S
C1197 N1205 1.427 . S
C1198 H1189 0.930 . S
C1198 C1196 1.378 . S
C1198 C1199 1.367 . S
C1199 C1198 1.367 . S
C1199 C1201 1.433 . S
C1200 C1196 1.350 . S
C1200 C1197 1.463 . S
C1200 N1204 1.427 . S
C1201 H1191 0.929 . S
C1201 C1199 1.433 . S
C1201 N1204 1.384 . S
C1202 H1193 0.929 . S
C1202 C1194 1.378 . S
C1202 C1197 1.350 . S
C1203 H1190 0.929 . S
C1203 C1195 1.433 . S
C1203 N1205 1.384 . S
N1204 C1200 1.427 . S
N1204 C1201 1.384 . S
N1205 C1197 1.427 . S
N1205 C1203 1.384 . S
H1206 C1212 0.930 . S
H1207 C1216 0.930 . S
H1208 C1221 0.929 . S
H1209 C1219 0.929 . S
H1210 C1214 0.929 . S
H1211 C1220 0.929 . S
C1212 H1206 0.930 . S
C1212 C1213 1.367 . S
C1212 C1220 1.378 . S
C1213 C1212 1.367 . S
C1213 C1221 1.433 . S
C1214 H1210 0.929 . S
C1214 C1216 1.378 . S
C1214 C1218 1.350 . S
C1215 C1218 1.463 . S
C1215 C1220 1.350 . S
C1215 N1223 1.427 . S
C1216 H1207 0.930 . S
C1216 C1214 1.378 . S
C1216 C1217 1.367 . S
C1217 C1216 1.367 . S
C1217 C1219 1.433 . S
C1218 C1214 1.350 . S
C1218 C1215 1.463 . S
C1218 N1222 1.427 . S
C1219 H1209 0.929 . S
C1219 C1217 1.433 . S
C1219 N1222 1.384 . S
C1220 H1211 0.929 . S
C1220 C1212 1.378 . S
C1220 C1215 1.350 . S
C1221 H1208 0.929 . S
C1221 C1213 1.433 . S
C1221 N1223 1.384 . S
N1222 C1218 1.427 . S
N1222 C1219 1.384 . S
N1223 C1215 1.427 . S
N1223 C1221 1.384 . S
H1224 C1230 0.930 . S
H1225 C1234 0.930 . S
H1226 C1239 0.929 . S
H1227 C1237 0.929 . S
H1228 C1232 0.929 . S
H1229 C1238 0.929 . S
C1230 H1224 0.930 . S
C1230 C1231 1.367 . S
C1230 C1238 1.378 . S
C1231 C1230 1.367 . S
C1231 C1239 1.433 . S
C1232 H1228 0.929 . S
C1232 C1234 1.378 . S
C1232 C1236 1.350 . S
C1233 C1236 1.463 . S
C1233 C1238 1.350 . S
C1233 N1241 1.427 . S
C1234 H1225 0.930 . S
C1234 C1232 1.378 . S
C1234 C1235 1.367 . S
C1235 C1234 1.367 . S
C1235 C1237 1.433 . S
C1236 C1232 1.350 . S
C1236 C1233 1.463 . S
C1236 N1240 1.427 . S
C1237 H1227 0.929 . S
C1237 C1235 1.433 . S
C1237 N1240 1.384 . S
C1238 H1229 0.929 . S
C1238 C1230 1.378 . S
C1238 C1233 1.350 . S
C1239 H1226 0.929 . S
C1239 C1231 1.433 . S
C1239 N1241 1.384 . S
N1240 C1236 1.427 . S
N1240 C1237 1.384 . S
N1241 C1233 1.427 . S
N1241 C1239 1.384 . S
H1242 C1248 0.930 . S
H1243 C1252 0.930 . S
H1244 C1257 0.929 . S
H1245 C1255 0.929 . S
H1246 C1250 0.929 . S
H1247 C1256 0.929 . S
C1248 H1242 0.930 . S
C1248 C1249 1.367 . S
C1248 C1256 1.378 . S
C1249 C1248 1.367 . S
C1249 C1257 1.433 . S
C1250 H1246 0.929 . S
C1250 C1252 1.378 . S
C1250 C1254 1.350 . S
C1251 C1254 1.463 . S
C1251 C1256 1.350 . S
C1251 N1259 1.427 . S
C1252 H1243 0.930 . S
C1252 C1250 1.378 . S
C1252 C1253 1.367 . S
C1253 C1252 1.367 . S
C1253 C1255 1.433 . S
C1254 C1250 1.350 . S
C1254 C1251 1.463 . S
C1254 N1258 1.427 . S
C1255 H1245 0.929 . S
C1255 C1253 1.433 . S
C1255 N1258 1.384 . S
C1256 H1247 0.929 . S
C1256 C1248 1.378 . S
C1256 C1251 1.350 . S
C1257 H1244 0.929 . S
C1257 C1249 1.433 . S
C1257 N1259 1.384 . S
N1258 C1254 1.427 . S
N1258 C1255 1.384 . S
N1259 C1251 1.427 . S
N1259 C1257 1.384 . S
H1260 C1266 0.930 . S
H1261 C1270 0.930 . S
H1262 C1275 0.929 . S
H1263 C1273 0.929 . S
H1264 C1268 0.929 . S
H1265 C1274 0.929 . S
C1266 H1260 0.930 . S
C1266 C1267 1.367 . S
C1266 C1274 1.378 . S
C1267 C1266 1.367 . S
C1267 C1275 1.433 . S
C1268 H1264 0.929 . S
C1268 C1270 1.378 . S
C1268 C1272 1.350 . S
C1269 C1272 1.463 . S
C1269 C1274 1.350 . S
C1269 N1277 1.427 . S
C1270 H1261 0.930 . S
C1270 C1268 1.378 . S
C1270 C1271 1.367 . S
C1271 C1270 1.367 . S
C1271 C1273 1.433 . S
C1272 C1268 1.350 . S
C1272 C1269 1.463 . S
C1272 N1276 1.427 . S
C1273 H1263 0.929 . S
C1273 C1271 1.433 . S
C1273 N1276 1.384 . S
C1274 H1265 0.929 . S
C1274 C1266 1.378 . S
C1274 C1269 1.350 . S
C1275 H1262 0.929 . S
C1275 C1267 1.433 . S
C1275 N1277 1.384 . S
N1276 C1272 1.427 . S
N1276 C1273 1.384 . S
N1277 C1269 1.427 . S
N1277 C1275 1.384 . S
H1278 C1284 0.912 1_545 S
H1279 C1288 0.930 . S
H1280 C1293 0.934 . S
H1281 C1291 0.929 . S
H1282 C1286 0.929 . S
H1283 C1292 0.929 . S
C1284 H1278 0.912 1_565 S
C1284 C1285 1.365 1_565 S
C1284 C1292 1.398 . S
C1285 C1284 1.365 1_545 S
C1285 C1293 1.463 . S
C1286 H1282 0.929 . S
C1286 C1288 1.378 . S
C1286 C1290 1.350 . S
C1287 C1290 1.463 . S
C1287 C1292 1.350 . S
C1287 N1295 1.427 . S
C1288 H1279 0.930 . S
C1288 C1286 1.378 . S
C1288 C1289 1.367 . S
C1289 C1288 1.367 . S
C1289 C1291 1.433 . S
C1290 C1286 1.350 . S
C1290 C1287 1.463 . S
C1290 N1294 1.427 . S
C1291 H1281 0.929 . S
C1291 C1289 1.433 . S
C1291 N1294 1.384 . S
C1292 H1283 0.929 . S
C1292 C1284 1.398 . S
C1292 C1287 1.350 . S
C1293 H1280 0.934 . S
C1293 C1285 1.463 . S
C1293 N1295 1.350 1_545 S
N1294 C1290 1.427 . S
N1294 C1291 1.384 . S
N1295 C1287 1.427 . S
N1295 C1293 1.350 1_565 S
H1296 C1302 0.930 . S
H1297 C1306 0.930 . S
H1298 C1311 0.935 . S
H1299 C1309 0.929 . S
H1300 C1304 0.929 . S
H1301 C1310 0.929 . S
C1302 H1296 0.930 . S
C1302 C1303 1.367 1_455 S
C1302 C1310 1.378 . S
C1303 C1302 1.367 1_655 S
C1303 C1311 1.433 . S
C1304 H1300 0.929 . S
C1304 C1306 1.378 . S
C1304 C1308 1.350 . S
C1305 C1308 1.463 . S
C1305 C1310 1.350 . S
C1305 N1313 1.427 . S
C1306 H1297 0.930 . S
C1306 C1304 1.378 . S
C1306 C1307 1.367 . S
C1307 C1306 1.367 . S
C1307 C1309 1.433 . S
C1308 C1304 1.350 . S
C1308 C1305 1.463 . S
C1308 N1312 1.427 . S
C1309 H1299 0.929 . S
C1309 C1307 1.433 . S
C1309 N1312 1.384 . S
C1310 H1301 0.929 . S
C1310 C1302 1.378 . S
C1310 C1305 1.350 . S
C1311 H1298 0.935 . S
C1311 C1303 1.433 . S
C1311 N1313 1.378 1_655 S
N1312 C1308 1.427 . S
N1312 C1309 1.384 . S
N1313 C1305 1.427 . S
N1313 C1311 1.378 1_455 S
H1314 C1320 0.930 . S
H1315 C1324 0.930 . S
H1316 C1329 0.929 . S
H1317 C1327 0.929 . S
H1318 C1322 0.929 . S
H1319 C1328 0.929 . S
C1320 H1314 0.930 . S
C1320 C1321 1.367 . S
C1320 C1328 1.378 . S
C1321 C1320 1.367 . S
C1321 C1329 1.433 . S
C1322 H1318 0.929 . S
C1322 C1324 1.378 . S
C1322 C1326 1.350 . S
C1323 C1326 1.463 . S
C1323 C1328 1.350 . S
C1323 N1331 1.427 . S
C1324 H1315 0.930 . S
C1324 C1322 1.378 . S
C1324 C1325 1.367 . S
C1325 C1324 1.367 . S
C1325 C1327 1.433 . S
C1326 C1322 1.350 . S
C1326 C1323 1.463 . S
C1326 N1330 1.427 . S
C1327 H1317 0.929 . S
C1327 C1325 1.433 . S
C1327 N1330 1.384 . S
C1328 H1319 0.929 . S
C1328 C1320 1.378 . S
C1328 C1323 1.350 . S
C1329 H1316 0.929 . S
C1329 C1321 1.433 . S
C1329 N1331 1.384 . S
N1330 C1326 1.427 . S
N1330 C1327 1.384 . S
N1331 C1323 1.427 . S
N1331 C1329 1.384 . S
H1332 C1338 0.930 . S
H1333 C1342 0.930 . S
H1334 C1347 0.929 . S
H1335 C1345 0.929 . S
H1336 C1340 0.929 . S
H1337 C1346 0.929 . S
C1338 H1332 0.930 . S
C1338 C1339 1.367 . S
C1338 C1346 1.378 . S
C1339 C1338 1.367 . S
C1339 C1347 1.433 . S
C1340 H1336 0.929 . S
C1340 C1342 1.378 . S
C1340 C1344 1.350 . S
C1341 C1344 1.463 . S
C1341 C1346 1.350 . S
C1341 N1349 1.427 . S
C1342 H1333 0.930 . S
C1342 C1340 1.378 . S
C1342 C1343 1.367 . S
C1343 C1342 1.367 . S
C1343 C1345 1.433 . S
C1344 C1340 1.350 . S
C1344 C1341 1.463 . S
C1344 N1348 1.427 . S
C1345 H1335 0.929 . S
C1345 C1343 1.433 . S
C1345 N1348 1.384 . S
C1346 H1337 0.929 . S
C1346 C1338 1.378 . S
C1346 C1341 1.350 . S
C1347 H1334 0.929 . S
C1347 C1339 1.433 . S
C1347 N1349 1.384 . S
N1348 C1344 1.427 . S
N1348 C1345 1.384 . S
N1349 C1341 1.427 . S
N1349 C1347 1.384 . S
H1350 C1356 0.930 . S
H1351 C1360 0.930 . S
H1352 C1365 0.929 . S
H1353 C1363 0.929 . S
H1354 C1358 0.929 . S
H1355 C1364 0.929 . S
C1356 H1350 0.930 . S
C1356 C1357 1.367 . S
C1356 C1364 1.378 . S
C1357 C1356 1.367 . S
C1357 C1365 1.433 . S
C1358 H1354 0.929 . S
C1358 C1360 1.378 . S
C1358 C1362 1.350 . S
C1359 C1362 1.463 . S
C1359 C1364 1.350 . S
C1359 N1367 1.427 . S
C1360 H1351 0.930 . S
C1360 C1358 1.378 . S
C1360 C1361 1.367 . S
C1361 C1360 1.367 . S
C1361 C1363 1.433 . S
C1362 C1358 1.350 . S
C1362 C1359 1.463 . S
C1362 N1366 1.427 . S
C1363 H1353 0.929 . S
C1363 C1361 1.433 . S
C1363 N1366 1.384 . S
C1364 H1355 0.929 . S
C1364 C1356 1.378 . S
C1364 C1359 1.350 . S
C1365 H1352 0.929 . S
C1365 C1357 1.433 . S
C1365 N1367 1.384 . S
N1366 C1362 1.427 . S
N1366 C1363 1.384 . S
N1367 C1359 1.427 . S
N1367 C1365 1.384 . S
H1368 C1374 0.930 . S
H1369 C1378 0.930 . S
H1370 C1383 0.929 . S
H1371 C1381 0.929 . S
H1372 C1376 0.929 . S
H1373 C1382 0.929 . S
C1374 H1368 0.930 . S
C1374 C1375 1.367 . S
C1374 C1382 1.378 . S
C1375 C1374 1.367 . S
C1375 C1383 1.433 . S
C1376 H1372 0.929 . S
C1376 C1378 1.378 . S
C1376 C1380 1.350 . S
C1377 C1380 1.463 . S
C1377 C1382 1.350 . S
C1377 N1385 1.427 . S
C1378 H1369 0.930 . S
C1378 C1376 1.378 . S
C1378 C1379 1.367 . S
C1379 C1378 1.367 . S
C1379 C1381 1.433 . S
C1380 C1376 1.350 . S
C1380 C1377 1.463 . S
C1380 N1384 1.427 . S
C1381 H1371 0.929 . S
C1381 C1379 1.433 . S
C1381 N1384 1.384 . S
C1382 H1373 0.929 . S
C1382 C1374 1.378 . S
C1382 C1377 1.350 . S
C1383 H1370 0.929 . S
C1383 C1375 1.433 . S
C1383 N1385 1.384 . S
N1384 C1380 1.427 . S
N1384 C1381 1.384 . S
N1385 C1377 1.427 . S
N1385 C1383 1.384 . S
H1386 C1392 0.942 . S
H1387 C1396 0.930 . S
H1388 C1401 0.929 1_565 S
H1389 C1399 0.929 . S
H1390 C1394 0.929 . S
H1391 C1400 0.929 . S
C1392 H1386 0.942 . S
C1392 C1393 1.365 . S
C1392 C1400 1.367 1_565 S
C1393 C1392 1.365 . S
C1393 C1401 1.433 1_565 S
C1394 H1390 0.929 . S
C1394 C1396 1.378 . S
C1394 C1398 1.350 . S
C1395 C1398 1.463 . S
C1395 C1400 1.350 . S
C1395 N1403 1.427 . S
C1396 H1387 0.930 . S
C1396 C1394 1.378 . S
C1396 C1397 1.367 . S
C1397 C1396 1.367 . S
C1397 C1399 1.433 . S
C1398 C1394 1.350 . S
C1398 C1395 1.463 . S
C1398 N1402 1.427 . S
C1399 H1389 0.929 . S
C1399 C1397 1.433 . S
C1399 N1402 1.384 . S
C1400 H1391 0.929 . S
C1400 C1392 1.367 1_545 S
C1400 C1395 1.350 . S
C1401 H1388 0.929 1_545 S
C1401 C1393 1.433 1_545 S
C1401 N1403 1.384 . S
N1402 C1398 1.427 . S
N1402 C1399 1.384 . S
N1403 C1395 1.427 . S
N1403 C1401 1.384 . S
H1404 C1410 0.930 . S
H1405 C1414 0.930 . S
H1406 C1419 0.929 . S
H1407 C1417 0.929 . S
H1408 C1412 0.929 . S
H1409 C1418 0.929 . S
C1410 H1404 0.930 . S
C1410 C1411 1.367 1_655 S
C1410 C1418 1.378 . S
C1411 C1410 1.367 1_455 S
C1411 C1419 1.433 . S
C1412 H1408 0.929 . S
C1412 C1414 1.378 . S
C1412 C1416 1.350 . S
C1413 C1416 1.463 . S
C1413 C1418 1.350 . S
C1413 N1421 1.427 . S
C1414 H1405 0.930 . S
C1414 C1412 1.378 . S
C1414 C1415 1.367 . S
C1415 C1414 1.367 . S
C1415 C1417 1.433 . S
C1416 C1412 1.350 . S
C1416 C1413 1.463 . S
C1416 N1420 1.427 . S
C1417 H1407 0.929 . S
C1417 C1415 1.433 . S
C1417 N1420 1.384 . S
C1418 H1409 0.929 . S
C1418 C1410 1.378 . S
C1418 C1413 1.350 . S
C1419 H1406 0.929 . S
C1419 C1411 1.433 . S
C1419 N1421 1.384 1_455 S
N1420 C1416 1.427 . S
N1420 C1417 1.384 . S
N1421 C1413 1.427 . S
N1421 C1419 1.384 1_655 S
H1422 C1428 0.930 . S
H1423 C1432 0.930 . S
H1424 C1437 0.929 . S
H1425 C1435 0.929 . S
H1426 C1430 0.929 . S
H1427 C1436 0.929 . S
C1428 H1422 0.930 . S
C1428 C1429 1.367 . S
C1428 C1436 1.378 . S
C1429 C1428 1.367 . S
C1429 C1437 1.433 . S
C1430 H1426 0.929 . S
C1430 C1432 1.378 . S
C1430 C1434 1.350 . S
C1431 C1434 1.463 . S
C1431 C1436 1.350 . S
C1431 N1439 1.427 . S
C1432 H1423 0.930 . S
C1432 C1430 1.378 . S
C1432 C1433 1.367 . S
C1433 C1432 1.367 . S
C1433 C1435 1.433 . S
C1434 C1430 1.350 . S
C1434 C1431 1.463 . S
C1434 N1438 1.427 . S
C1435 H1425 0.929 . S
C1435 C1433 1.433 . S
C1435 N1438 1.384 . S
C1436 H1427 0.929 . S
C1436 C1428 1.378 . S
C1436 C1431 1.350 . S
C1437 H1424 0.929 . S
C1437 C1429 1.433 . S
C1437 N1439 1.384 . S
N1438 C1434 1.427 . S
N1438 C1435 1.384 . S
N1439 C1431 1.427 . S
N1439 C1437 1.384 . S
H1440 C1446 0.931 1_455 S
H1441 C1450 0.930 . S
H1442 C1455 0.929 . S
H1443 C1453 0.929 . S
H1444 C1448 0.929 . S
H1445 C1454 0.929 . S
C1446 H1440 0.931 1_655 S
C1446 C1447 1.317 1_655 S
C1446 C1454 1.430 . S
C1447 C1446 1.317 1_455 S
C1447 C1455 1.433 . S
C1448 H1444 0.929 . S
C1448 C1450 1.378 . S
C1448 C1452 1.350 . S
C1449 C1452 1.463 . S
C1449 C1454 1.350 . S
C1449 N1457 1.427 . S
C1450 H1441 0.930 . S
C1450 C1448 1.378 . S
C1450 C1451 1.367 . S
C1451 C1450 1.367 . S
C1451 C1453 1.433 . S
C1452 C1448 1.350 . S
C1452 C1449 1.463 . S
C1452 N1456 1.427 . S
C1453 H1443 0.929 . S
C1453 C1451 1.433 . S
C1453 N1456 1.384 . S
C1454 H1445 0.929 . S
C1454 C1446 1.430 . S
C1454 C1449 1.350 . S
C1455 H1442 0.929 . S
C1455 C1447 1.433 . S
C1455 N1457 1.384 1_455 S
N1456 C1452 1.427 . S
N1456 C1453 1.384 . S
N1457 C1449 1.427 . S
N1457 C1455 1.384 1_655 S
H1458 C1464 0.930 . S
H1459 C1468 0.930 . S
H1460 C1473 0.929 . S
H1461 C1471 0.929 . S
H1462 C1466 0.929 . S
H1463 C1472 0.929 . S
C1464 H1458 0.930 . S
C1464 C1465 1.367 . S
C1464 C1472 1.378 . S
C1465 C1464 1.367 . S
C1465 C1473 1.433 . S
C1466 H1462 0.929 . S
C1466 C1468 1.378 . S
C1466 C1470 1.350 . S
C1467 C1470 1.463 . S
C1467 C1472 1.350 . S
C1467 N1475 1.427 . S
C1468 H1459 0.930 . S
C1468 C1466 1.378 . S
C1468 C1469 1.367 . S
C1469 C1468 1.367 . S
C1469 C1471 1.433 . S
C1470 C1466 1.350 . S
C1470 C1467 1.463 . S
C1470 N1474 1.427 . S
C1471 H1461 0.929 . S
C1471 C1469 1.433 . S
C1471 N1474 1.384 . S
C1472 H1463 0.929 . S
C1472 C1464 1.378 . S
C1472 C1467 1.350 . S
C1473 H1460 0.929 . S
C1473 C1465 1.433 . S
C1473 N1475 1.384 . S
N1474 C1470 1.427 . S
N1474 C1471 1.384 . S
N1475 C1467 1.427 . S
N1475 C1473 1.384 . S
H1476 C1482 0.930 . S
H1477 C1486 0.930 . S
H1478 C1491 0.981 . S
H1479 C1489 0.929 . S
H1480 C1484 0.929 . S
H1481 C1490 0.929 . S
C1482 H1476 0.930 . S
C1482 C1483 1.367 . S
C1482 C1490 1.378 1_565 S
C1483 C1482 1.367 . S
C1483 C1491 1.436 . S
C1484 H1480 0.929 . S
C1484 C1486 1.378 . S
C1484 C1488 1.350 . S
C1485 C1488 1.463 . S
C1485 C1490 1.350 . S
C1485 N1493 1.427 . S
C1486 H1477 0.930 . S
C1486 C1484 1.378 . S
C1486 C1487 1.367 . S
C1487 C1486 1.367 . S
C1487 C1489 1.433 . S
C1488 C1484 1.350 . S
C1488 C1485 1.463 . S
C1488 N1492 1.427 . S
C1489 H1479 0.929 . S
C1489 C1487 1.433 . S
C1489 N1492 1.384 . S
C1490 H1481 0.929 . S
C1490 C1482 1.378 1_545 S
C1490 C1485 1.350 . S
C1491 H1478 0.981 . S
C1491 C1483 1.436 . S
C1491 N1493 1.329 1_565 S
N1492 C1488 1.427 . S
N1492 C1489 1.384 . S
N1493 C1485 1.427 . S
N1493 C1491 1.329 1_545 S
H1494 C1500 0.930 . S
H1495 C1504 0.930 . S
H1496 C1509 0.929 . S
H1497 C1507 0.929 . S
H1498 C1502 0.929 . S
H1499 C1508 0.929 . S
C1500 H1494 0.930 . S
C1500 C1501 1.367 . S
C1500 C1508 1.378 . S
C1501 C1500 1.367 . S
C1501 C1509 1.433 . S
C1502 H1498 0.929 . S
C1502 C1504 1.378 . S
C1502 C1506 1.350 . S
C1503 C1506 1.463 . S
C1503 C1508 1.350 . S
C1503 N1511 1.427 . S
C1504 H1495 0.930 . S
C1504 C1502 1.378 . S
C1504 C1505 1.367 . S
C1505 C1504 1.367 . S
C1505 C1507 1.433 . S
C1506 C1502 1.350 . S
C1506 C1503 1.463 . S
C1506 N1510 1.427 . S
C1507 H1497 0.929 . S
C1507 C1505 1.433 . S
C1507 N1510 1.384 . S
C1508 H1499 0.929 . S
C1508 C1500 1.378 . S
C1508 C1503 1.350 . S
C1509 H1496 0.929 . S
C1509 C1501 1.433 . S
C1509 N1511 1.384 . S
N1510 C1506 1.427 . S
N1510 C1507 1.384 . S
N1511 C1503 1.427 . S
N1511 C1509 1.384 . S
H1512 C1518 0.930 . S
H1513 C1522 0.930 . S
H1514 C1527 0.929 . S
H1515 C1525 0.929 . S
H1516 C1520 0.929 . S
H1517 C1526 0.929 . S
C1518 H1512 0.930 . S
C1518 C1519 1.367 . S
C1518 C1526 1.378 . S
C1519 C1518 1.367 . S
C1519 C1527 1.433 . S
C1520 H1516 0.929 . S
C1520 C1522 1.378 . S
C1520 C1524 1.350 . S
C1521 C1524 1.463 . S
C1521 C1526 1.350 . S
C1521 N1529 1.427 . S
C1522 H1513 0.930 . S
C1522 C1520 1.378 . S
C1522 C1523 1.367 . S
C1523 C1522 1.367 . S
C1523 C1525 1.433 . S
C1524 C1520 1.350 . S
C1524 C1521 1.463 . S
C1524 N1528 1.427 . S
C1525 H1515 0.929 . S
C1525 C1523 1.433 . S
C1525 N1528 1.384 . S
C1526 H1517 0.929 . S
C1526 C1518 1.378 . S
C1526 C1521 1.350 . S
C1527 H1514 0.929 . S
C1527 C1519 1.433 . S
C1527 N1529 1.384 . S
N1528 C1524 1.427 . S
N1528 C1525 1.384 . S
N1529 C1521 1.427 . S
N1529 C1527 1.384 . S
H1530 C1536 0.930 . S
H1531 C1540 0.930 . S
H1532 C1545 0.929 . S
H1533 C1543 0.929 . S
H1534 C1538 0.929 . S
H1535 C1544 0.929 . S
C1536 H1530 0.930 . S
C1536 C1537 1.367 . S
C1536 C1544 1.378 . S
C1537 C1536 1.367 . S
C1537 C1545 1.433 . S
C1538 H1534 0.929 . S
C1538 C1540 1.378 . S
C1538 C1542 1.350 . S
C1539 C1542 1.463 . S
C1539 C1544 1.350 . S
C1539 N1547 1.427 . S
C1540 H1531 0.930 . S
C1540 C1538 1.378 . S
C1540 C1541 1.367 . S
C1541 C1540 1.367 . S
C1541 C1543 1.433 . S
C1542 C1538 1.350 . S
C1542 C1539 1.463 . S
C1542 N1546 1.427 . S
C1543 H1533 0.929 . S
C1543 C1541 1.433 . S
C1543 N1546 1.384 . S
C1544 H1535 0.929 . S
C1544 C1536 1.378 . S
C1544 C1539 1.350 . S
C1545 H1532 0.929 . S
C1545 C1537 1.433 . S
C1545 N1547 1.384 . S
N1546 C1542 1.427 . S
N1546 C1543 1.384 . S
N1547 C1539 1.427 . S
N1547 C1545 1.384 . S
H1548 C1554 0.930 . S
H1549 C1558 0.930 . S
H1550 C1563 0.929 . S
H1551 C1561 0.930 1_545 S
H1552 C1556 0.929 . S
H1553 C1562 0.929 . S
C1554 H1548 0.930 . S
C1554 C1555 1.367 . S
C1554 C1562 1.378 . S
C1555 C1554 1.367 . S
C1555 C1563 1.433 . S
C1556 H1552 0.929 . S
C1556 C1558 1.378 . S
C1556 C1560 1.350 . S
C1557 C1560 1.463 . S
C1557 C1562 1.350 . S
C1557 N1565 1.427 . S
C1558 H1549 0.930 . S
C1558 C1556 1.378 . S
C1558 C1559 1.367 . S
C1559 C1558 1.367 . S
C1559 C1561 1.433 . S
C1560 C1556 1.350 . S
C1560 C1557 1.463 . S
C1560 N1564 1.427 . S
C1561 H1551 0.930 1_565 S
C1561 C1559 1.433 . S
C1561 N1564 1.384 . S
C1562 H1553 0.929 . S
C1562 C1554 1.378 . S
C1562 C1557 1.350 . S
C1563 H1550 0.929 . S
C1563 C1555 1.433 . S
C1563 N1565 1.384 . S
N1564 C1560 1.427 . S
N1564 C1561 1.384 . S
N1565 C1557 1.427 . S
N1565 C1563 1.384 . S
H1566 C1572 0.930 1_655 S
H1567 C1576 0.930 . S
H1568 C1581 0.929 . S
H1569 C1579 0.929 . S
H1570 C1574 0.929 . S
H1571 C1580 0.929 1_655 S
C1572 H1566 0.930 1_455 S
C1572 C1573 1.367 . S
C1572 C1580 1.378 . S
C1573 C1572 1.367 . S
C1573 C1581 1.433 . S
C1574 H1570 0.929 . S
C1574 C1576 1.378 . S
C1574 C1578 1.350 . S
C1575 C1578 1.463 . S
C1575 C1580 1.350 . S
C1575 N1583 1.427 . S
C1576 H1567 0.930 . S
C1576 C1574 1.378 . S
C1576 C1577 1.367 . S
C1577 C1576 1.367 . S
C1577 C1579 1.433 1_455 S
C1578 C1574 1.350 . S
C1578 C1575 1.463 . S
C1578 N1582 1.423 1_455 S
C1579 H1569 0.929 . S
C1579 C1577 1.433 1_655 S
C1579 N1582 1.384 . S
C1580 H1571 0.929 1_455 S
C1580 C1572 1.378 . S
C1580 C1575 1.350 . S
C1581 H1568 0.929 . S
C1581 C1573 1.433 . S
C1581 N1583 1.384 . S
N1582 C1578 1.423 1_655 S
N1582 C1579 1.384 . S
N1583 C1575 1.427 . S
N1583 C1581 1.384 . S
H1584 C1590 0.930 . S
H1585 C1594 0.930 . S
H1586 C1599 0.929 . S
H1587 C1597 0.929 . S
H1588 C1592 0.929 . S
H1589 C1598 0.929 . S
C1590 H1584 0.930 . S
C1590 C1591 1.367 . S
C1590 C1598 1.378 . S
C1591 C1590 1.367 . S
C1591 C1599 1.433 . S
C1592 H1588 0.929 . S
C1592 C1594 1.378 . S
C1592 C1596 1.350 . S
C1593 C1596 1.463 . S
C1593 C1598 1.350 . S
C1593 N1601 1.427 . S
C1594 H1585 0.930 . S
C1594 C1592 1.378 . S
C1594 C1595 1.367 . S
C1595 C1594 1.367 . S
C1595 C1597 1.433 . S
C1596 C1592 1.350 . S
C1596 C1593 1.463 . S
C1596 N1600 1.427 . S
C1597 H1587 0.929 . S
C1597 C1595 1.433 . S
C1597 N1600 1.384 . S
C1598 H1589 0.929 . S
C1598 C1590 1.378 . S
C1598 C1593 1.350 . S
C1599 H1586 0.929 . S
C1599 C1591 1.433 . S
C1599 N1601 1.384 . S
N1600 C1596 1.427 . S
N1600 C1597 1.384 . S
N1601 C1593 1.427 . S
N1601 C1599 1.384 . S
H1602 C1608 0.930 . S
H1603 C1612 0.930 . S
H1604 C1617 0.929 . S
H1605 C1615 0.920 . S
H1606 C1610 0.929 . S
H1607 C1616 0.929 . S
C1608 H1602 0.930 . S
C1608 C1609 1.367 . S
C1608 C1616 1.378 . S
C1609 C1608 1.367 . S
C1609 C1617 1.433 . S
C1610 H1606 0.929 . S
C1610 C1612 1.378 . S
C1610 C1614 1.350 . S
C1611 C1614 1.463 . S
C1611 C1616 1.350 . S
C1611 N1619 1.427 . S
C1612 H1603 0.930 . S
C1612 C1610 1.378 . S
C1612 C1613 1.367 . S
C1613 C1612 1.367 . S
C1613 C1615 1.433 . S
C1614 C1610 1.350 . S
C1614 C1611 1.463 . S
C1614 N1618 1.427 . S
C1615 H1605 0.920 . S
C1615 C1613 1.433 . S
C1615 N1618 1.384 . S
C1616 H1607 0.929 . S
C1616 C1608 1.378 . S
C1616 C1611 1.350 . S
C1617 H1604 0.929 . S
C1617 C1609 1.433 . S
C1617 N1619 1.384 . S
N1618 C1614 1.427 . S
N1618 C1615 1.384 . S
N1619 C1611 1.427 . S
N1619 C1617 1.384 . S
H1620 C1626 0.930 . S
H1621 C1630 0.930 . S
H1622 C1635 0.929 . S
H1623 C1633 0.929 . S
H1624 C1628 0.929 . S
H1625 C1634 0.929 . S
C1626 H1620 0.930 . S
C1626 C1627 1.367 . S
C1626 C1634 1.378 . S
C1627 C1626 1.367 . S
C1627 C1635 1.433 . S
C1628 H1624 0.929 . S
C1628 C1630 1.378 . S
C1628 C1632 1.350 . S
C1629 C1632 1.463 . S
C1629 C1634 1.350 . S
C1629 N1637 1.427 . S
C1630 H1621 0.930 . S
C1630 C1628 1.378 . S
C1630 C1631 1.367 . S
C1631 C1630 1.367 . S
C1631 C1633 1.433 . S
C1632 C1628 1.350 . S
C1632 C1629 1.463 . S
C1632 N1636 1.427 . S
C1633 H1623 0.929 . S
C1633 C1631 1.433 . S
C1633 N1636 1.384 . S
C1634 H1625 0.929 . S
C1634 C1626 1.378 . S
C1634 C1629 1.350 . S
C1635 H1622 0.929 . S
C1635 C1627 1.433 . S
C1635 N1637 1.384 . S
N1636 C1632 1.427 . S
N1636 C1633 1.384 . S
N1637 C1629 1.427 . S
N1637 C1635 1.384 . S
H1638 C1644 0.930 . S
H1639 C1648 0.930 . S
H1640 C1653 0.929 . S
H1641 C1651 0.929 . S
H1642 C1646 0.922 1_565 S
H1643 C1652 0.929 . S
C1644 H1638 0.930 . S
C1644 C1645 1.367 . S
C1644 C1652 1.378 . S
C1645 C1644 1.367 . S
C1645 C1653 1.433 . S
C1646 H1642 0.922 1_545 S
C1646 C1648 1.376 1_545 S
C1646 C1650 1.358 . S
C1647 C1650 1.463 . S
C1647 C1652 1.350 . S
C1647 N1655 1.427 . S
C1648 H1639 0.930 . S
C1648 C1646 1.376 1_565 S
C1648 C1649 1.367 1_565 S
C1649 C1648 1.367 1_545 S
C1649 C1651 1.433 . S
C1650 C1646 1.358 . S
C1650 C1647 1.463 . S
C1650 N1654 1.427 . S
C1651 H1641 0.929 . S
C1651 C1649 1.433 . S
C1651 N1654 1.384 . S
C1652 H1643 0.929 . S
C1652 C1644 1.378 . S
C1652 C1647 1.350 . S
C1653 H1640 0.929 . S
C1653 C1645 1.433 . S
C1653 N1655 1.384 . S
N1654 C1650 1.427 . S
N1654 C1651 1.384 . S
N1655 C1647 1.427 . S
N1655 C1653 1.384 . S
H1656 C1662 0.930 . S
H1657 C1666 0.930 . S
H1658 C1671 0.929 . S
H1659 C1669 0.929 . S
H1660 C1664 0.929 . S
H1661 C1670 0.929 . S
C1662 H1656 0.930 . S
C1662 C1663 1.367 . S
C1662 C1670 1.378 . S
C1663 C1662 1.367 . S
C1663 C1671 1.433 . S
C1664 H1660 0.929 . S
C1664 C1666 1.378 . S
C1664 C1668 1.350 . S
C1665 C1668 1.463 . S
C1665 C1670 1.350 . S
C1665 N1673 1.427 . S
C1666 H1657 0.930 . S
C1666 C1664 1.378 . S
C1666 C1667 1.367 . S
C1667 C1666 1.367 . S
C1667 C1669 1.433 . S
C1668 C1664 1.350 . S
C1668 C1665 1.463 . S
C1668 N1672 1.427 . S
C1669 H1659 0.929 . S
C1669 C1667 1.433 . S
C1669 N1672 1.384 . S
C1670 H1661 0.929 . S
C1670 C1662 1.378 . S
C1670 C1665 1.350 . S
C1671 H1658 0.929 . S
C1671 C1663 1.433 . S
C1671 N1673 1.384 . S
N1672 C1668 1.427 . S
N1672 C1669 1.384 . S
N1673 C1665 1.427 . S
N1673 C1671 1.384 . S
H1674 C1680 0.930 . S
H1675 C1684 0.930 . S
H1676 C1689 0.929 . S
H1677 C1687 0.929 . S
H1678 C1682 0.929 . S
H1679 C1688 0.929 . S
C1680 H1674 0.930 . S
C1680 C1681 1.367 . S
C1680 C1688 1.378 . S
C1681 C1680 1.367 . S
C1681 C1689 1.433 . S
C1682 H1678 0.929 . S
C1682 C1684 1.378 . S
C1682 C1686 1.350 . S
C1683 C1686 1.463 . S
C1683 C1688 1.350 . S
C1683 N1691 1.427 . S
C1684 H1675 0.930 . S
C1684 C1682 1.378 . S
C1684 C1685 1.367 . S
C1685 C1684 1.367 . S
C1685 C1687 1.433 . S
C1686 C1682 1.350 . S
C1686 C1683 1.463 . S
C1686 N1690 1.427 . S
C1687 H1677 0.929 . S
C1687 C1685 1.433 . S
C1687 N1690 1.384 . S
C1688 H1679 0.929 . S
C1688 C1680 1.378 . S
C1688 C1683 1.350 . S
C1689 H1676 0.929 . S
C1689 C1681 1.433 . S
C1689 N1691 1.384 . S
N1690 C1686 1.427 . S
N1690 C1687 1.384 . S
N1691 C1683 1.427 . S
N1691 C1689 1.384 . S
H1692 C1698 0.930 . S
H1693 C1702 0.930 . S
H1694 C1707 0.929 . S
H1695 C1705 0.929 . S
H1696 C1700 0.929 . S
H1697 C1706 0.929 . S
C1698 H1692 0.930 . S
C1698 C1699 1.367 . S
C1698 C1706 1.378 . S
C1699 C1698 1.367 . S
C1699 C1707 1.433 . S
C1700 H1696 0.929 . S
C1700 C1702 1.378 . S
C1700 C1704 1.350 . S
C1701 C1704 1.463 . S
C1701 C1706 1.350 . S
C1701 N1709 1.427 . S
C1702 H1693 0.930 . S
C1702 C1700 1.378 . S
C1702 C1703 1.367 . S
C1703 C1702 1.367 . S
C1703 C1705 1.433 . S
C1704 C1700 1.350 . S
C1704 C1701 1.463 . S
C1704 N1708 1.427 . S
C1705 H1695 0.929 . S
C1705 C1703 1.433 . S
C1705 N1708 1.384 . S
C1706 H1697 0.929 . S
C1706 C1698 1.378 . S
C1706 C1701 1.350 . S
C1707 H1694 0.929 . S
C1707 C1699 1.433 . S
C1707 N1709 1.384 . S
N1708 C1704 1.427 . S
N1708 C1705 1.384 . S
N1709 C1701 1.427 . S
N1709 C1707 1.384 . S
H1710 C1716 0.930 . S
H1711 C1720 0.930 . S
H1712 C1725 0.929 . S
H1713 C1723 0.929 . S
H1714 C1718 0.929 . S
H1715 C1724 0.929 . S
C1716 H1710 0.930 . S
C1716 C1717 1.367 . S
C1716 C1724 1.378 . S
C1717 C1716 1.367 . S
C1717 C1725 1.433 . S
C1718 H1714 0.929 . S
C1718 C1720 1.378 . S
C1718 C1722 1.350 . S
C1719 C1722 1.463 . S
C1719 C1724 1.350 . S
C1719 N1727 1.427 . S
C1720 H1711 0.930 . S
C1720 C1718 1.378 . S
C1720 C1721 1.367 . S
C1721 C1720 1.367 . S
C1721 C1723 1.433 . S
C1722 C1718 1.350 . S
C1722 C1719 1.463 . S
C1722 N1726 1.427 . S
C1723 H1713 0.929 . S
C1723 C1721 1.433 . S
C1723 N1726 1.384 . S
C1724 H1715 0.929 . S
C1724 C1716 1.378 . S
C1724 C1719 1.350 . S
C1725 H1712 0.929 . S
C1725 C1717 1.433 . S
C1725 N1727 1.384 . S
N1726 C1722 1.427 . S
N1726 C1723 1.384 . S
N1727 C1719 1.427 . S
N1727 C1725 1.384 . S
H1728 C1734 0.930 . S
H1729 C1738 0.930 . S
H1730 C1743 0.929 . S
H1731 C1741 0.929 . S
H1732 C1736 0.929 . S
H1733 C1742 0.929 . S
C1734 H1728 0.930 . S
C1734 C1735 1.367 . S
C1734 C1742 1.378 . S
C1735 C1734 1.367 . S
C1735 C1743 1.433 . S
C1736 H1732 0.929 . S
C1736 C1738 1.378 . S
C1736 C1740 1.350 . S
C1737 C1740 1.463 . S
C1737 C1742 1.350 . S
C1737 N1745 1.427 . S
C1738 H1729 0.930 . S
C1738 C1736 1.378 . S
C1738 C1739 1.367 . S
C1739 C1738 1.367 . S
C1739 C1741 1.433 . S
C1740 C1736 1.350 . S
C1740 C1737 1.463 . S
C1740 N1744 1.427 . S
C1741 H1731 0.929 . S
C1741 C1739 1.433 . S
C1741 N1744 1.384 . S
C1742 H1733 0.929 . S
C1742 C1734 1.378 . S
C1742 C1737 1.350 . S
C1743 H1730 0.929 . S
C1743 C1735 1.433 . S
C1743 N1745 1.384 . S
N1744 C1740 1.427 . S
N1744 C1741 1.384 . S
N1745 C1737 1.427 . S
N1745 C1743 1.384 . S
H1746 C1752 0.930 . S
H1747 C1756 0.930 . S
H1748 C1761 0.929 . S
H1749 C1759 0.929 . S
H1750 C1754 0.929 . S
H1751 C1760 0.929 . S
C1752 H1746 0.930 . S
C1752 C1753 1.367 . S
C1752 C1760 1.378 . S
C1753 C1752 1.367 . S
C1753 C1761 1.433 . S
C1754 H1750 0.929 . S
C1754 C1756 1.378 . S
C1754 C1758 1.350 . S
C1755 C1758 1.463 . S
C1755 C1760 1.350 . S
C1755 N1763 1.427 . S
C1756 H1747 0.930 . S
C1756 C1754 1.378 . S
C1756 C1757 1.367 . S
C1757 C1756 1.367 . S
C1757 C1759 1.433 . S
C1758 C1754 1.350 . S
C1758 C1755 1.463 . S
C1758 N1762 1.427 . S
C1759 H1749 0.929 . S
C1759 C1757 1.433 . S
C1759 N1762 1.384 . S
C1760 H1751 0.929 . S
C1760 C1752 1.378 . S
C1760 C1755 1.350 . S
C1761 H1748 0.929 . S
C1761 C1753 1.433 . S
C1761 N1763 1.384 . S
N1762 C1758 1.427 . S
N1762 C1759 1.384 . S
N1763 C1755 1.427 . S
N1763 C1761 1.384 . S
H1764 C1770 0.930 . S
H1765 C1774 0.930 . S
H1766 C1779 0.929 . S
H1767 C1777 0.929 . S
H1768 C1772 0.929 . S
H1769 C1778 0.929 . S
C1770 H1764 0.930 . S
C1770 C1771 1.367 . S
C1770 C1778 1.378 . S
C1771 C1770 1.367 . S
C1771 C1779 1.433 . S
C1772 H1768 0.929 . S
C1772 C1774 1.378 . S
C1772 C1776 1.350 . S
C1773 C1776 1.463 . S
C1773 C1778 1.350 . S
C1773 N1781 1.427 . S
C1774 H1765 0.930 . S
C1774 C1772 1.378 . S
C1774 C1775 1.367 . S
C1775 C1774 1.367 . S
C1775 C1777 1.433 . S
C1776 C1772 1.350 . S
C1776 C1773 1.463 . S
C1776 N1780 1.427 . S
C1777 H1767 0.929 . S
C1777 C1775 1.433 . S
C1777 N1780 1.384 . S
C1778 H1769 0.929 . S
C1778 C1770 1.378 . S
C1778 C1773 1.350 . S
C1779 H1766 0.929 . S
C1779 C1771 1.433 . S
C1779 N1781 1.384 . S
N1780 C1776 1.427 . S
N1780 C1777 1.384 . S
N1781 C1773 1.427 . S
N1781 C1779 1.384 . S
H1782 C1788 0.930 . S
H1783 C1792 0.930 . S
H1784 C1797 0.929 . S
H1785 C1795 0.929 . S
H1786 C1790 0.929 . S
H1787 C1796 0.929 . S
C1788 H1782 0.930 . S
C1788 C1789 1.367 . S
C1788 C1796 1.378 . S
C1789 C1788 1.367 . S
C1789 C1797 1.433 . S
C1790 H1786 0.929 . S
C1790 C1792 1.378 . S
C1790 C1794 1.350 . S
C1791 C1794 1.463 . S
C1791 C1796 1.350 . S
C1791 N1799 1.427 . S
C1792 H1783 0.930 . S
C1792 C1790 1.378 . S
C1792 C1793 1.367 . S
C1793 C1792 1.367 . S
C1793 C1795 1.433 . S
C1794 C1790 1.350 . S
C1794 C1791 1.463 . S
C1794 N1798 1.427 . S
C1795 H1785 0.929 . S
C1795 C1793 1.433 . S
C1795 N1798 1.384 . S
C1796 H1787 0.929 . S
C1796 C1788 1.378 . S
C1796 C1791 1.350 . S
C1797 H1784 0.929 . S
C1797 C1789 1.433 . S
C1797 N1799 1.384 . S
N1798 C1794 1.427 . S
N1798 C1795 1.384 . S
N1799 C1791 1.427 . S
N1799 C1797 1.384 . S
H1800 C1806 0.930 . S
H1801 C1810 0.930 . S
H1802 C1815 0.929 . S
H1803 C1813 0.929 . S
H1804 C1808 0.929 . S
H1805 C1814 0.929 . S
C1806 H1800 0.930 . S
C1806 C1807 1.367 . S
C1806 C1814 1.378 . S
C1807 C1806 1.367 . S
C1807 C1815 1.433 . S
C1808 H1804 0.929 . S
C1808 C1810 1.378 . S
C1808 C1812 1.350 . S
C1809 C1812 1.463 . S
C1809 C1814 1.350 . S
C1809 N1817 1.427 . S
C1810 H1801 0.930 . S
C1810 C1808 1.378 . S
C1810 C1811 1.367 . S
C1811 C1810 1.367 . S
C1811 C1813 1.433 . S
C1812 C1808 1.350 . S
C1812 C1809 1.463 . S
C1812 N1816 1.427 . S
C1813 H1803 0.929 . S
C1813 C1811 1.433 . S
C1813 N1816 1.384 . S
C1814 H1805 0.929 . S
C1814 C1806 1.378 . S
C1814 C1809 1.350 . S
C1815 H1802 0.929 . S
C1815 C1807 1.433 . S
C1815 N1817 1.384 . S
N1816 C1812 1.427 . S
N1816 C1813 1.384 . S
N1817 C1809 1.427 . S
N1817 C1815 1.384 . S
H1818 C1824 0.930 . S
H1819 C1828 0.930 . S
H1820 C1833 0.929 . S
H1821 C1831 0.929 . S
H1822 C1826 0.929 . S
H1823 C1832 0.929 . S
C1824 H1818 0.930 . S
C1824 C1825 1.367 . S
C1824 C1832 1.378 . S
C1825 C1824 1.367 . S
C1825 C1833 1.433 . S
C1826 H1822 0.929 . S
C1826 C1828 1.378 . S
C1826 C1830 1.350 . S
C1827 C1830 1.463 . S
C1827 C1832 1.350 . S
C1827 N1835 1.427 . S
C1828 H1819 0.930 . S
C1828 C1826 1.378 . S
C1828 C1829 1.367 . S
C1829 C1828 1.367 . S
C1829 C1831 1.433 . S
C1830 C1826 1.350 . S
C1830 C1827 1.463 . S
C1830 N1834 1.427 . S
C1831 H1821 0.929 . S
C1831 C1829 1.433 . S
C1831 N1834 1.384 . S
C1832 H1823 0.929 . S
C1832 C1824 1.378 . S
C1832 C1827 1.350 . S
C1833 H1820 0.929 . S
C1833 C1825 1.433 . S
C1833 N1835 1.384 . S
N1834 C1830 1.427 . S
N1834 C1831 1.384 . S
N1835 C1827 1.427 . S
N1835 C1833 1.384 . S
H1836 C1842 0.930 . S
H1837 C1846 0.930 . S
H1838 C1851 0.929 . S
H1839 C1849 0.929 . S
H1840 C1844 0.929 . S
H1841 C1850 0.929 . S
C1842 H1836 0.930 . S
C1842 C1843 1.367 . S
C1842 C1850 1.378 . S
C1843 C1842 1.367 . S
C1843 C1851 1.433 . S
C1844 H1840 0.929 . S
C1844 C1846 1.378 . S
C1844 C1848 1.350 . S
C1845 C1848 1.463 . S
C1845 C1850 1.350 . S
C1845 N1853 1.427 . S
C1846 H1837 0.930 . S
C1846 C1844 1.378 . S
C1846 C1847 1.367 . S
C1847 C1846 1.367 . S
C1847 C1849 1.433 . S
C1848 C1844 1.350 . S
C1848 C1845 1.463 . S
C1848 N1852 1.427 . S
C1849 H1839 0.929 . S
C1849 C1847 1.433 . S
C1849 N1852 1.384 . S
C1850 H1841 0.929 . S
C1850 C1842 1.378 . S
C1850 C1845 1.350 . S
C1851 H1838 0.929 . S
C1851 C1843 1.433 . S
C1851 N1853 1.384 . S
N1852 C1848 1.427 . S
N1852 C1849 1.384 . S
N1853 C1845 1.427 . S
N1853 C1851 1.384 . S
H1854 C1860 0.930 . S
H1855 C1864 0.930 . S
H1856 C1869 0.929 . S
H1857 C1867 0.929 . S
H1858 C1862 0.929 . S
H1859 C1868 0.929 . S
C1860 H1854 0.930 . S
C1860 C1861 1.367 . S
C1860 C1868 1.378 . S
C1861 C1860 1.367 . S
C1861 C1869 1.433 . S
C1862 H1858 0.929 . S
C1862 C1864 1.378 . S
C1862 C1866 1.350 . S
C1863 C1866 1.463 . S
C1863 C1868 1.350 . S
C1863 N1871 1.427 . S
C1864 H1855 0.930 . S
C1864 C1862 1.378 . S
C1864 C1865 1.367 . S
C1865 C1864 1.367 . S
C1865 C1867 1.433 . S
C1866 C1862 1.350 . S
C1866 C1863 1.463 . S
C1866 N1870 1.427 . S
C1867 H1857 0.929 . S
C1867 C1865 1.433 . S
C1867 N1870 1.384 . S
C1868 H1859 0.929 . S
C1868 C1860 1.378 . S
C1868 C1863 1.350 . S
C1869 H1856 0.929 . S
C1869 C1861 1.433 . S
C1869 N1871 1.384 . S
N1870 C1866 1.427 . S
N1870 C1867 1.384 . S
N1871 C1863 1.427 . S
N1871 C1869 1.384 . S
C907 C522 1.599 . S
C911 C726 1.571 . S
C925 C562 1.536 . S
C929 C746 1.492 . S
C943 C495 1.598 . S
C947 C769 1.598 . S
C961 C455 1.487 . S
C965 C749 1.485 . S
C983 C766 1.420 . S
C979 C362 1.439 . S
C997 C402 1.507 . S
C1001 C729 1.491 . S
C1019 C736 1.584 . S
C1015 C442 1.561 . S
C1037 C756 1.483 . S
C1033 C375 1.512 . S
C1051 C415 1.608 . S
C1055 C761 1.602 . S
C1069 C535 1.486 . S
C1073 C741 1.478 . S
C1087 C575 1.414 . S
C1091 C776 1.392 . S
C1109 C721 1.512 . S
C1105 C482 1.472 . S
C1127 C786 1.567 . S
C1123 C42 1.601 . S
C1141 C82 1.533 . S
C1145 C806 1.505 . S
C1159 C15 1.603 . S
C1163 C829 1.603 . S
C1177 C695 1.487 . S
C1181 C809 1.485 . S
C1195 C602 1.437 . S
C1199 C826 1.423 . S
C1213 C642 1.508 . S
C1217 C789 1.491 . S
C1231 C682 1.567 . S
C1235 C796 1.595 . S
C1249 C615 1.508 . S
C1253 C816 1.473 . S
C1271 C821 1.599 . S
C1267 C655 1.605 . S
C1285 C55 1.487 . S
C1289 C801 1.479 . S
C1307 C836 1.394 . S
C1303 C95 1.416 . S
C1321 C2 1.477 . S
C1325 C781 1.512 . S
C1343 C846 1.562 . S
C1339 C282 1.597 . S
C1357 C322 1.535 . S
C1361 C866 1.496 . S
C1379 C889 1.593 . S
C1375 C255 1.594 . S
C1397 C869 1.483 . S
C1393 C215 1.485 . S
C1415 C886 1.418 . S
C1411 C122 1.439 . S
C1429 C162 1.507 . S
C1433 C849 1.490 . S
C1447 C202 1.563 . S
C1451 C856 1.584 . S
C1465 C135 1.512 . S
C1469 C876 1.481 . S
C1487 C881 1.600 . S
C1483 C175 1.606 . S
C1501 C295 1.487 . S
C1505 C861 1.480 . S
C1519 C335 1.414 . S
C1523 C896 1.392 . S
C1537 C242 1.476 . S
C1541 C841 1.512 . S
C1555 C621 1.249 . S
C1559 C739 1.225 1_565 S
C1577 C759 1.651 . S
C1573 C661 1.733 . S
C1591 C701 1.508 . S
C1595 C768 1.502 . S
C1609 C261 1.694 . S
C1613 C748 1.665 1_655 S
C1627 C301 1.530 . S
C1631 C779 1.467 . S
C1649 C728 1.218 . S
C1645 C341 1.243 . S
C1663 C141 1.253 . S
C1667 C799 1.212 . S
C1681 C181 1.733 . S
C1685 C819 1.652 . S
C1699 C221 1.509 . S
C1703 C828 1.495 . S
C1717 C501 1.691 . S
C1721 C808 1.673 . S
C1739 C839 1.466 . S
C1735 C541 1.530 . S
C1753 C581 1.241 . S
C1757 C788 1.217 . S
C1771 C381 1.254 . S
C1775 C859 1.212 . S
C1789 C421 1.733 . S
C1793 C879 1.652 . S
C1811 C888 1.491 . S
C1807 C461 1.503 . S
C1825 C21 1.693 . S
C1829 C868 1.668 . S
C1843 C61 1.531 . S
C1847 C899 1.465 . S
C1861 C101 1.242 . S
C1865 C848 1.208 . S
