# Generated by pormake.
# Topology ocu, (6,8)-cn, num edge types: 1
# Building blocks:
#     Node 0, Type 0, BuildingBlock: HISSIN_clean_sbu_0, # of connection points: 6
#     Node 1, Type 0, BuildingBlock: HISSIN_clean_sbu_0, # of connection points: 6
#     Node 2, Type 0, BuildingBlock: HISSIN_clean_sbu_0, # of connection points: 6
#     Node 3, Type 0, BuildingBlock: HISSIN_clean_sbu_0, # of connection points: 6
#     Node 4, Type 0, BuildingBlock: HISSIN_clean_sbu_0, # of connection points: 6
#     Node 5, Type 0, BuildingBlock: HISSIN_clean_sbu_0, # of connection points: 6
#     Node 6, Type 0, BuildingBlock: HISSIN_clean_sbu_0, # of connection points: 6
#     Node 7, Type 0, BuildingBlock: HISSIN_clean_sbu_0, # of connection points: 6
#     Node 8, Type 1, BuildingBlock: AJUNOK_clean_sbu_0, # of connection points: 8
#     Node 9, Type 1, BuildingBlock: AJUNOK_clean_sbu_0, # of connection points: 8
#     Node 10, Type 1, BuildingBlock: AJUNOK_clean_sbu_0, # of connection points: 8
#     Node 11, Type 1, BuildingBlock: AJUNOK_clean_sbu_0, # of connection points: 8
#     Node 12, Type 1, BuildingBlock: AJUNOK_clean_sbu_0, # of connection points: 8
#     Node 13, Type 1, BuildingBlock: AJUNOK_clean_sbu_0, # of connection points: 8
#     Edge 14, Type (0, 1), BuildingBlock: MIFKUJ_clean_linker_0, # of connection points: 2
#     Edge 15, Type (0, 1), BuildingBlock: MIFKUJ_clean_linker_0, # of connection points: 2
#     Edge 16, Type (0, 1), BuildingBlock: MIFKUJ_clean_linker_0, # of connection points: 2
#     Edge 17, Type (0, 1), BuildingBlock: MIFKUJ_clean_linker_0, # of connection points: 2
#     Edge 18, Type (0, 1), BuildingBlock: MIFKUJ_clean_linker_0, # of connection points: 2
#     Edge 19, Type (0, 1), BuildingBlock: MIFKUJ_clean_linker_0, # of connection points: 2
#     Edge 20, Type (0, 1), BuildingBlock: MIFKUJ_clean_linker_0, # of connection points: 2
#     Edge 21, Type (0, 1), BuildingBlock: MIFKUJ_clean_linker_0, # of connection points: 2
#     Edge 22, Type (0, 1), BuildingBlock: MIFKUJ_clean_linker_0, # of connection points: 2
#     Edge 23, Type (0, 1), BuildingBlock: MIFKUJ_clean_linker_0, # of connection points: 2
#     Edge 24, Type (0, 1), BuildingBlock: MIFKUJ_clean_linker_0, # of connection points: 2
#     Edge 25, Type (0, 1), BuildingBlock: MIFKUJ_clean_linker_0, # of connection points: 2
#     Edge 26, Type (0, 1), BuildingBlock: MIFKUJ_clean_linker_0, # of connection points: 2
#     Edge 27, Type (0, 1), BuildingBlock: MIFKUJ_clean_linker_0, # of connection points: 2
#     Edge 28, Type (0, 1), BuildingBlock: MIFKUJ_clean_linker_0, # of connection points: 2
#     Edge 29, Type (0, 1), BuildingBlock: MIFKUJ_clean_linker_0, # of connection points: 2
#     Edge 30, Type (0, 1), BuildingBlock: MIFKUJ_clean_linker_0, # of connection points: 2
#     Edge 31, Type (0, 1), BuildingBlock: MIFKUJ_clean_linker_0, # of connection points: 2
#     Edge 32, Type (0, 1), BuildingBlock: MIFKUJ_clean_linker_0, # of connection points: 2
#     Edge 33, Type (0, 1), BuildingBlock: MIFKUJ_clean_linker_0, # of connection points: 2
#     Edge 34, Type (0, 1), BuildingBlock: MIFKUJ_clean_linker_0, # of connection points: 2
#     Edge 35, Type (0, 1), BuildingBlock: MIFKUJ_clean_linker_0, # of connection points: 2
#     Edge 36, Type (0, 1), BuildingBlock: MIFKUJ_clean_linker_0, # of connection points: 2
#     Edge 37, Type (0, 1), BuildingBlock: MIFKUJ_clean_linker_0, # of connection points: 2
#     Edge 38, Type (0, 1), BuildingBlock: MIFKUJ_clean_linker_0, # of connection points: 2
#     Edge 39, Type (0, 1), BuildingBlock: MIFKUJ_clean_linker_0, # of connection points: 2
#     Edge 40, Type (0, 1), BuildingBlock: MIFKUJ_clean_linker_0, # of connection points: 2
#     Edge 41, Type (0, 1), BuildingBlock: MIFKUJ_clean_linker_0, # of connection points: 2
#     Edge 42, Type (0, 1), BuildingBlock: MIFKUJ_clean_linker_0, # of connection points: 2
#     Edge 43, Type (0, 1), BuildingBlock: MIFKUJ_clean_linker_0, # of connection points: 2
#     Edge 44, Type (0, 1), BuildingBlock: MIFKUJ_clean_linker_0, # of connection points: 2
#     Edge 45, Type (0, 1), BuildingBlock: MIFKUJ_clean_linker_0, # of connection points: 2
#     Edge 46, Type (0, 1), BuildingBlock: MIFKUJ_clean_linker_0, # of connection points: 2
#     Edge 47, Type (0, 1), BuildingBlock: MIFKUJ_clean_linker_0, # of connection points: 2
#     Edge 48, Type (0, 1), BuildingBlock: MIFKUJ_clean_linker_0, # of connection points: 2
#     Edge 49, Type (0, 1), BuildingBlock: MIFKUJ_clean_linker_0, # of connection points: 2
#     Edge 50, Type (0, 1), BuildingBlock: MIFKUJ_clean_linker_0, # of connection points: 2
#     Edge 51, Type (0, 1), BuildingBlock: MIFKUJ_clean_linker_0, # of connection points: 2
#     Edge 52, Type (0, 1), BuildingBlock: MIFKUJ_clean_linker_0, # of connection points: 2
#     Edge 53, Type (0, 1), BuildingBlock: MIFKUJ_clean_linker_0, # of connection points: 2
#     Edge 54, Type (0, 1), BuildingBlock: MIFKUJ_clean_linker_0, # of connection points: 2
#     Edge 55, Type (0, 1), BuildingBlock: MIFKUJ_clean_linker_0, # of connection points: 2
#     Edge 56, Type (0, 1), BuildingBlock: MIFKUJ_clean_linker_0, # of connection points: 2
#     Edge 57, Type (0, 1), BuildingBlock: MIFKUJ_clean_linker_0, # of connection points: 2
#     Edge 58, Type (0, 1), BuildingBlock: MIFKUJ_clean_linker_0, # of connection points: 2
#     Edge 59, Type (0, 1), BuildingBlock: MIFKUJ_clean_linker_0, # of connection points: 2
#     Edge 60, Type (0, 1), BuildingBlock: MIFKUJ_clean_linker_0, # of connection points: 2
#     Edge 61, Type (0, 1), BuildingBlock: MIFKUJ_clean_linker_0, # of connection points: 2
# Relax obj value: 0.126
# Max RMSD: 0.190
# Mean RMSD: 0.165
data_MOF--net-ocu--node1-HISSIN_clean_sbu_0--node2-AJUNOK_clean_sbu_0--edge1-MIFKUJ_clean_linker_0
_symmetry_space_group_name_H-M    P1
_symmetry_Int_Tables_number       1
_symmetry_cell_setting            triclinic
loop_
_symmetry_equiv_pos_as_xyz
'x, y, z'
_cell_length_a     55.355583
_cell_length_b     56.382751
_cell_length_c     46.282324
_cell_angle_alpha  104.51083
_cell_angle_beta   90.100519
_cell_angle_gamma 110.68612
loop_
_atom_site_label
_atom_site_type_symbol
_atom_site_fract_x
_atom_site_fract_y
_atom_site_fract_z
_atom_type_partial_charge
Eu0 Eu 0.28465 0.25688 0.281 0.0
Eu1 Eu 0.24492 0.24324 0.22048 0.0
C2 C 0.23342 0.20342 0.26188 0.0
C3 C 0.32789 0.24603 0.3359 0.0
C4 C 0.31391 0.21879 0.32897 0.0
C5 C 0.36413 0.23946 0.35809 0.0
C6 C 0.32491 0.20203 0.33667 0.0
C7 C 0.35304 0.25621 0.35055 0.0
C8 C 0.35028 0.21208 0.35118 0.0
C9 C 0.31712 0.26371 0.32626 0.0
O10 O 0.22657 0.25993 0.26015 0.0
O11 O 0.26232 0.28461 0.29407 0.0
C12 C 0.23794 0.27906 0.28439 0.0
O13 O 0.30579 0.28298 0.25229 0.0
O14 O 0.20622 0.22983 0.19689 0.0
O15 O 0.24008 0.24706 0.17521 0.0
O16 O 0.27001 0.28613 0.23214 0.0
C17 C 0.29518 0.29482 0.23815 0.0
O18 O 0.28998 0.22247 0.24793 0.0
O19 O 0.27711 0.22818 0.20387 0.0
O20 O 0.23147 0.20525 0.23423 0.0
O21 O 0.32438 0.26915 0.30118 0.0
O22 O 0.29238 0.25882 0.32807 0.0
O23 O 0.24898 0.22286 0.28349 0.0
C24 C 0.2035 0.25788 0.16775 0.0
C25 C 0.21031 0.28348 0.18669 0.0
C26 C 0.17487 0.26739 0.13612 0.0
C27 C 0.19957 0.30093 0.18035 0.0
C28 C 0.18571 0.24998 0.14244 0.0
C29 C 0.18166 0.29313 0.15498 0.0
C30 C 0.21487 0.23953 0.17451 0.0
C31 C 0.28995 0.2184 0.21869 0.0
H32 H 0.29455 0.2104 0.31734 0.0
H33 H 0.38383 0.24797 0.36872 0.0
H34 H 0.31345 0.18118 0.3313 0.0
H35 H 0.3643 0.27711 0.35573 0.0
H36 H 0.22391 0.28995 0.20648 0.0
H37 H 0.16138 0.26077 0.11623 0.0
H38 H 0.20499 0.3204 0.19562 0.0
H39 H 0.18022 0.23034 0.12752 0.0
Eu40 Eu 0.80037 0.25839 0.27494 0.0
Eu41 Eu 0.73677 0.25679 0.2485 0.0
C42 C 0.76128 0.28879 0.30528 0.0
C43 C 0.85159 0.25319 0.32454 0.0
C44 C 0.87439 0.26573 0.34415 0.0
C45 C 0.84834 0.21131 0.33243 0.0
C46 C 0.88431 0.25107 0.35768 0.0
C47 C 0.8384 0.22598 0.31907 0.0
C48 C 0.87157 0.22365 0.35158 0.0
C49 C 0.84169 0.26842 0.30959 0.0
O50 O 0.7677 0.29252 0.2395 0.0
O51 O 0.80832 0.2905 0.25113 0.0
C52 C 0.79342 0.30115 0.24073 0.0
O53 O 0.78756 0.2245 0.23397 0.0
O54 O 0.70246 0.26589 0.24212 0.0
O55 O 0.70776 0.23298 0.21041 0.0
O56 O 0.76454 0.24549 0.21641 0.0
C57 C 0.77117 0.22483 0.21365 0.0
O58 O 0.77117 0.22468 0.28836 0.0
O59 O 0.7308 0.22444 0.27173 0.0
O60 O 0.73878 0.28592 0.29413 0.0
O61 O 0.84061 0.26186 0.28017 0.0
O62 O 0.82086 0.27221 0.31963 0.0
O63 O 0.76998 0.2732 0.287 0.0
C64 C 0.69011 0.25913 0.19178 0.0
C65 C 0.71119 0.27632 0.18142 0.0
C66 C 0.66051 0.26756 0.16082 0.0
C67 C 0.70696 0.28938 0.16113 0.0
C68 C 0.6648 0.25437 0.18095 0.0
C69 C 0.68154 0.2857 0.15121 0.0
C70 C 0.69458 0.2485 0.21616 0.0
C71 C 0.74549 0.21526 0.285 0.0
H72 H 0.88466 0.28679 0.34873 0.0
H73 H 0.83795 0.19026 0.32765 0.0
H74 H 0.9023 0.26104 0.37222 0.0
H75 H 0.82059 0.21607 0.30418 0.0
H76 H 0.73089 0.28007 0.18959 0.0
H77 H 0.64067 0.26458 0.15412 0.0
H78 H 0.72358 0.30285 0.15384 0.0
H79 H 0.64835 0.24135 0.18902 0.0
Eu80 Eu 0.77839 0.78389 0.24364 0.0
Eu81 Eu 0.76069 0.73416 0.27575 0.0
C82 C 0.73621 0.73032 0.21163 0.0
C83 C 0.77067 0.8344 0.20677 0.0
C84 C 0.75998 0.82613 0.1767 0.0
C85 C 0.74878 0.86603 0.21697 0.0
C86 C 0.74375 0.83749 0.16697 0.0
C87 C 0.76497 0.85466 0.22673 0.0
C88 C 0.7378 0.85755 0.18697 0.0
C89 C 0.78734 0.82168 0.21718 0.0
O90 O 0.80174 0.74128 0.26385 0.0
O91 O 0.79964 0.75632 0.2229 0.0
C92 C 0.80914 0.74368 0.23748 0.0
O93 O 0.80449 0.79719 0.28648 0.0
O94 O 0.7438 0.69163 0.2713 0.0
O95 O 0.76273 0.71859 0.31389 0.0
O96 O 0.77599 0.77157 0.31219 0.0
C97 C 0.79596 0.79254 0.31177 0.0
O98 O 0.7462 0.78908 0.2715 0.0
O99 O 0.72784 0.74994 0.28496 0.0
O100 O 0.74676 0.71887 0.22648 0.0
O101 O 0.79174 0.82584 0.2461 0.0
O102 O 0.78312 0.79726 0.20278 0.0
O103 O 0.74 0.7552 0.22161 0.0
C104 C 0.76966 0.67813 0.30022 0.0
C105 C 0.79536 0.69014 0.31381 0.0
C106 C 0.77427 0.63546 0.29097 0.0
C107 C 0.81019 0.675 0.31628 0.0
C108 C 0.75934 0.65064 0.28871 0.0
C109 C 0.7999 0.64741 0.30498 0.0
C110 C 0.75368 0.69412 0.29801 0.0
C111 C 0.72807 0.77327 0.28367 0.0
H112 H 0.76396 0.81065 0.16066 0.0
H113 H 0.7451 0.88175 0.2329 0.0
H114 H 0.73551 0.83018 0.14379 0.0
H115 H 0.77297 0.86175 0.25 0.0
H116 H 0.80407 0.7113 0.32281 0.0
H117 H 0.76574 0.61435 0.28153 0.0
H118 H 0.82961 0.68502 0.32764 0.0
H119 H 0.73967 0.64088 0.27794 0.0
Eu120 Eu 0.29257 0.73183 0.24344 0.0
Eu121 Eu 0.25958 0.77007 0.2672 0.0
C122 C 0.24824 0.73439 0.19963 0.0
C123 C 0.32703 0.69667 0.19019 0.0
C124 C 0.31335 0.69922 0.16626 0.0
C125 C 0.35387 0.68055 0.15536 0.0
C126 C 0.31964 0.69207 0.13694 0.0
C127 C 0.34743 0.68752 0.18464 0.0
C128 C 0.33993 0.68259 0.13119 0.0
C129 C 0.32029 0.70412 0.2209 0.0
O130 O 0.23351 0.7296 0.26875 0.0
O131 O 0.26366 0.71033 0.27073 0.0
C132 C 0.24036 0.71101 0.27435 0.0
O133 O 0.31139 0.75802 0.28949 0.0
O134 O 0.22446 0.77926 0.27293 0.0
O135 O 0.26172 0.80866 0.29368 0.0
O136 O 0.27469 0.76275 0.30752 0.0
C137 C 0.29832 0.76377 0.31216 0.0
O138 O 0.30373 0.76301 0.21893 0.0
O139 O 0.2985 0.79499 0.25647 0.0
O140 O 0.24948 0.7571 0.21732 0.0
O141 O 0.33035 0.72921 0.23451 0.0
O142 O 0.29578 0.69371 0.22464 0.0
O143 O 0.25952 0.71975 0.20777 0.0
C144 C 0.22665 0.80506 0.32217 0.0
C145 C 0.22412 0.78643 0.33835 0.0
C146 C 0.21421 0.83197 0.36439 0.0
C147 C 0.21654 0.79049 0.3674 0.0
C148 C 0.22173 0.82784 0.33534 0.0
C149 C 0.21161 0.81338 0.38078 0.0
C150 C 0.23657 0.80171 0.29269 0.0
C151 C 0.30868 0.78786 0.23183 0.0
H152 H 0.29773 0.70663 0.17026 0.0
H153 H 0.36936 0.67292 0.15155 0.0
H154 H 0.30869 0.69398 0.1188 0.0
H155 H 0.35825 0.68559 0.20289 0.0
H156 H 0.22828 0.76887 0.32862 0.0
H157 H 0.21001 0.84954 0.37383 0.0
H158 H 0.21475 0.77588 0.37947 0.0
H159 H 0.22386 0.84251 0.32325 0.0
Eu160 Eu 0.29264 0.72248 0.73719 0.0
Eu161 Eu 0.24685 0.74793 0.73993 0.0
C162 C 0.28837 0.76532 0.79655 0.0
C163 C 0.33783 0.6921 0.76011 0.0
C164 C 0.32175 0.67972 0.77964 0.0
C165 C 0.37473 0.68848 0.78444 0.0
C166 C 0.33204 0.6714 0.80109 0.0
C167 C 0.36438 0.69654 0.76276 0.0
C168 C 0.35862 0.67569 0.80368 0.0
C169 C 0.32727 0.70099 0.73744 0.0
O170 O 0.28319 0.77839 0.73125 0.0
O171 O 0.30553 0.75194 0.71017 0.0
C172 C 0.30191 0.7744 0.71573 0.0
O173 O 0.26383 0.69893 0.69663 0.0
O174 O 0.23268 0.78025 0.75319 0.0
O175 O 0.20673 0.74182 0.72723 0.0
O176 O 0.24972 0.73119 0.69126 0.0
C177 C 0.25258 0.70869 0.68018 0.0
O178 O 0.26633 0.70684 0.77018 0.0
O179 O 0.22936 0.70872 0.75054 0.0
O180 O 0.26409 0.76042 0.78781 0.0
O181 O 0.30296 0.68767 0.72722 0.0
O182 O 0.33318 0.72634 0.74292 0.0
O183 O 0.3035 0.75626 0.77885 0.0
C184 C 0.20147 0.77871 0.71751 0.0
C185 C 0.21386 0.78179 0.69152 0.0
C186 C 0.17217 0.79847 0.70412 0.0
C187 C 0.20541 0.79316 0.67189 0.0
C188 C 0.18064 0.78712 0.7237 0.0
C189 C 0.1844 0.80157 0.67793 0.0
C190 C 0.21002 0.76657 0.73807 0.0
C191 C 0.24105 0.69953 0.76729 0.0
H192 H 0.30123 0.67643 0.77831 0.0
H193 H 0.39526 0.69179 0.78579 0.0
H194 H 0.31927 0.6618 0.81582 0.0
H195 H 0.3771 0.70619 0.74802 0.0
H196 H 0.22999 0.77531 0.6864 0.0
H197 H 0.15624 0.80515 0.70972 0.0
H198 H 0.2151 0.79506 0.65182 0.0
H199 H 0.17093 0.78495 0.74372 0.0
Eu200 Eu 0.26448 0.26788 0.72574 0.0
Eu201 Eu 0.25783 0.23257 0.7777 0.0
C202 C 0.23018 0.20755 0.71147 0.0
C203 C 0.24801 0.30877 0.67924 0.0
C204 C 0.22101 0.29534 0.67303 0.0
C205 C 0.24296 0.34714 0.66884 0.0
C206 C 0.20516 0.30773 0.66474 0.0
C207 C 0.25878 0.33471 0.67695 0.0
C208 C 0.21591 0.33388 0.66273 0.0
C209 C 0.26522 0.2965 0.68884 0.0
O210 O 0.28913 0.22456 0.74886 0.0
O211 O 0.28817 0.24237 0.70877 0.0
C212 C 0.29603 0.22794 0.72233 0.0
O213 O 0.30151 0.28413 0.75621 0.0
O214 O 0.24329 0.202 0.80174 0.0
O215 O 0.27881 0.23582 0.8191 0.0
O216 O 0.27706 0.2761 0.79354 0.0
C217 C 0.29961 0.2871 0.78485 0.0
O218 O 0.23886 0.28066 0.75981 0.0
O219 O 0.22408 0.24732 0.78375 0.0
O220 O 0.24077 0.20289 0.73372 0.0
O221 O 0.27574 0.30635 0.71656 0.0
O222 O 0.25746 0.27082 0.68051 0.0
O223 O 0.22928 0.2308 0.71323 0.0
C224 C 0.27667 0.1968 0.83054 0.0
C225 C 0.28762 0.20364 0.86025 0.0
C226 C 0.29565 0.16297 0.81781 0.0
C227 C 0.30267 0.19056 0.86864 0.0
C228 C 0.28071 0.17623 0.80936 0.0
C229 C 0.3072 0.17017 0.8475 0.0
C230 C 0.26336 0.21315 0.8221 0.0
C231 C 0.22309 0.26873 0.77751 0.0
H232 H 0.21211 0.27536 0.67482 0.0
H233 H 0.25199 0.36712 0.66712 0.0
H234 H 0.18441 0.29699 0.6605 0.0
H235 H 0.27952 0.34547 0.68159 0.0
H236 H 0.28511 0.21971 0.87692 0.0
H237 H 0.29818 0.1471 0.80101 0.0
H238 H 0.31144 0.19705 0.89155 0.0
H239 H 0.27272 0.1707 0.78622 0.0
Eu240 Eu 0.79813 0.22859 0.74462 0.0
Eu241 Eu 0.75378 0.25583 0.75332 0.0
C242 C 0.75179 0.21283 0.6936 0.0
C243 C 0.8394 0.19947 0.69785 0.0
C244 C 0.82896 0.17357 0.6794 0.0
C245 C 0.85876 0.21408 0.65516 0.0
C246 C 0.83277 0.16809 0.64904 0.0
C247 C 0.85467 0.21965 0.68551 0.0
C248 C 0.84742 0.18834 0.63655 0.0
C249 C 0.83083 0.20561 0.72814 0.0
O250 O 0.74698 0.23184 0.78636 0.0
O251 O 0.76673 0.20272 0.76599 0.0
C252 C 0.75128 0.21015 0.78454 0.0
O253 O 0.80587 0.25068 0.79343 0.0
O254 O 0.71363 0.25247 0.75869 0.0
O255 O 0.74279 0.28999 0.75794 0.0
O256 O 0.78505 0.27928 0.79145 0.0
C257 C 0.80021 0.27153 0.80569 0.0
O258 O 0.81579 0.26811 0.73552 0.0
O259 O 0.77876 0.27241 0.71962 0.0
O260 O 0.73784 0.22021 0.71425 0.0
O261 O 0.83819 0.23046 0.74283 0.0
O262 O 0.80639 0.1927 0.72998 0.0
O263 O 0.77671 0.21892 0.69935 0.0
C264 C 0.71368 0.28972 0.79515 0.0
C265 C 0.73386 0.30663 0.81748 0.0
C266 C 0.68279 0.28991 0.8323 0.0
C267 C 0.72864 0.31485 0.84695 0.0
C268 C 0.68808 0.28149 0.80275 0.0
C269 C 0.70307 0.30656 0.85473 0.0
C270 C 0.71977 0.27792 0.76529 0.0
C271 C 0.80395 0.27845 0.72058 0.0
H272 H 0.81707 0.15765 0.68824 0.0
H273 H 0.87035 0.22997 0.64608 0.0
H274 H 0.82437 0.14794 0.63533 0.0
H275 H 0.86285 0.23987 0.699 0.0
H276 H 0.75383 0.3131 0.81235 0.0
H277 H 0.66282 0.28361 0.83751 0.0
H278 H 0.7447 0.3275 0.86372 0.0
H279 H 0.67228 0.26819 0.78596 0.0
Eu280 Eu 0.79263 0.76544 0.78348 0.0
Eu281 Eu 0.75378 0.75475 0.72324 0.0
C282 C 0.74009 0.71681 0.76617 0.0
C283 C 0.83302 0.74951 0.83733 0.0
C284 C 0.82074 0.72208 0.82605 0.0
C285 C 0.86736 0.74247 0.86303 0.0
C286 C 0.8316 0.70501 0.83334 0.0
C287 C 0.85641 0.7595 0.85586 0.0
C288 C 0.85513 0.71495 0.85188 0.0
C289 C 0.82198 0.76781 0.82945 0.0
O290 O 0.75265 0.79153 0.75566 0.0
O291 O 0.76253 0.78398 0.79977 0.0
C292 C 0.75189 0.79556 0.7848 0.0
O293 O 0.80939 0.80236 0.76802 0.0
O294 O 0.71417 0.74273 0.70276 0.0
O295 O 0.74651 0.75609 0.6773 0.0
O296 O 0.79292 0.7834 0.71866 0.0
C297 C 0.80957 0.80251 0.73966 0.0
O298 O 0.80857 0.74513 0.74373 0.0
O299 O 0.77243 0.72394 0.70948 0.0
O300 O 0.73101 0.73032 0.7529 0.0
O301 O 0.83114 0.77717 0.807 0.0
O302 O 0.7968 0.76107 0.82862 0.0
O303 O 0.76508 0.72353 0.77183 0.0
C304 C 0.70968 0.76755 0.67006 0.0
C305 C 0.72483 0.79197 0.6654 0.0
C306 C 0.67076 0.77599 0.65949 0.0
C307 C 0.71304 0.80815 0.65772 0.0
C308 C 0.68255 0.75976 0.66695 0.0
C309 C 0.68581 0.80043 0.65468 0.0
C310 C 0.72162 0.7502 0.67874 0.0
C311 C 0.79615 0.72701 0.71904 0.0
H312 H 0.80279 0.71383 0.81144 0.0
H313 H 0.88532 0.75089 0.87762 0.0
H314 H 0.82177 0.68401 0.82398 0.0
H315 H 0.86628 0.78056 0.86479 0.0
H316 H 0.74582 0.79864 0.6677 0.0
H317 H 0.6498 0.76947 0.65793 0.0
H318 H 0.72533 0.82661 0.65383 0.0
H319 H 0.67039 0.74112 0.67057 0.0
Cd320 Cd 1.00987 -0.00029 0.54967 0.0
Cd321 Cd 0.04594 0.00972 0.4604 0.0
C322 C 0.05978 0.98862 0.5708 0.0
N323 N 0.03704 0.97651 0.55275 0.0
C324 C 0.04269 0.93523 0.54305 0.0
C325 C 0.06634 0.94729 0.56137 0.0
C326 C 0.07501 0.97442 0.57504 0.0
C327 C 0.02844 0.95035 0.53874 0.0
H328 H 0.06583 0.00913 0.58279 0.0
H329 H 1.01016 0.94105 0.52489 0.0
C330 C 0.99519 0.9688 0.47053 0.0
C331 C 0.99685 0.02355 0.44316 0.0
C332 C 0.98253 0.0384 0.43841 0.0
C333 C 0.99309 0.06592 0.44909 0.0
C334 C 1.01754 0.07771 0.46587 0.0
C335 C 0.03108 0.06196 0.47052 0.0
N336 N 0.02071 0.03539 0.45886 0.0
H337 H 0.9892 0.00265 0.43312 0.0
H338 H 0.05026 0.07102 0.48251 0.0
C339 C 0.05233 0.95445 0.45642 0.0
N340 N 0.06284 0.98032 0.4717 0.0
C341 C 0.09327 0.972 0.50056 0.0
C342 C 0.0825 0.94512 0.48544 0.0
C343 C 0.06176 0.93639 0.46315 0.0
C344 C 0.08302 0.98935 0.49332 0.0
H345 H 0.03677 0.94779 0.43876 0.0
H346 H 0.09129 0.01004 0.50481 0.0
C347 C 0.0606 0.04109 0.54031 0.0
C348 C 0.97512 0.97874 0.59013 0.0
N349 N 0.9894 0.0244 0.53389 0.0
C350 C 1.00183 0.05056 0.53696 0.0
C351 C 0.98901 0.06499 0.52761 0.0
C352 C 0.96298 0.05251 0.51541 0.0
C353 C 0.95079 0.02536 0.5121 0.0
C354 C 0.9644 0.01165 0.52162 0.0
C355 C 0.07924 0.0278 0.41722 0.0
O356 O 1.00845 0.98295 0.49521 0.0
O357 O 1.0055 0.97161 0.4465 0.0
O358 O 0.04813 0.02691 0.51519 0.0
O359 O 0.04939 0.03844 0.56391 0.0
O360 O 0.97234 0.96744 0.56228 0.0
O361 O 0.99384 0.00072 0.59939 0.0
O362 O 0.08606 0.0374 0.44521 0.0
O363 O 0.05732 0.00915 0.40938 0.0
H364 H 0.02158 0.06049 0.547 0.0
H365 H 0.95488 0.99092 0.51982 0.0
H366 H 0.0352 0.91432 0.53225 0.0
H367 H 0.09289 0.98437 0.58979 0.0
H368 H 0.9636 0.0284 0.42578 0.0
H369 H 0.02652 0.09888 0.47436 0.0
H370 H 0.10929 0.97949 0.51793 0.0
H371 H 0.05332 0.9159 0.45052 0.0
H372 H 0.99941 0.08576 0.53013 0.0
H373 H 0.9307 0.01495 0.50326 0.0
Cd374 Cd 0.49917 0.00635 0.05145 0.0
Cd375 Cd 0.55068 0.01669 0.96088 0.0
C376 C 0.54024 -0.00028 0.09729 0.0
N377 N 0.53063 0.99157 0.06793 0.0
C378 C 0.5556 0.96379 0.05664 0.0
C379 C 0.56572 0.97158 0.08691 0.0
C380 C 0.55788 0.99003 0.10724 0.0
C381 C 0.53806 0.97403 0.04764 0.0
H382 H 0.53408 0.01367 0.11305 0.0
H383 H 0.53004 0.96769 0.02445 0.0
C384 C 0.49141 0.97669 0.96848 0.0
C385 C 0.50858 0.02395 0.91598 0.0
C386 C 0.49069 0.03407 0.90744 0.0
C387 C 0.48524 0.0541 0.9282 0.0
C388 C 0.49832 0.06337 0.95726 0.0
C389 C 0.51597 0.05268 0.96484 0.0
N390 N 0.52079 0.03333 0.94431 0.0
H391 H 0.51257 0.00845 0.90004 0.0
H392 H 0.52592 0.05986 0.98722 0.0
C393 C 0.5669 0.96319 0.94839 0.0
N394 N 0.56952 0.98457 0.93819 0.0
C395 C 0.59887 0.97373 0.90354 0.0
C396 C 0.5968 0.95155 0.91363 0.0
C397 C 0.58029 0.9464 0.93636 0.0
C398 C 0.5851 0.98988 0.91606 0.0
H399 H 0.55474 0.95936 0.96624 0.0
H400 H 0.58738 0.00713 0.90848 0.0
C401 C 0.55566 0.04115 0.04021 0.0
C402 C 0.46292 0.97217 0.07948 0.0
N403 N 0.47974 0.03919 0.06354 0.0
C404 C 0.48597 0.05588 0.09167 0.0
C405 C 0.47197 0.0722 0.10251 0.0
C406 C 0.45111 0.07151 0.08441 0.0
C407 C 0.44578 0.05479 0.05498 0.0
C408 C 0.46023 0.03864 0.04506 0.0
C409 C 0.59232 0.06027 0.953 0.0
O410 O 0.49792 0.98937 0.99601 0.0
O411 O 0.50801 0.9814 0.94958 0.0
O412 O 0.54487 0.02602 0.01468 0.0
O413 O 0.54221 0.04071 0.06242 0.0
O414 O 0.46433 0.9654 0.05136 0.0
O415 O 0.47821 0.99488 0.09414 0.0
O416 O 0.59257 0.05216 0.97621 0.0
O417 O 0.57266 0.04807 0.93368 0.0
H418 H 0.5012 0.05575 0.10624 0.0
H419 H 0.4551 0.02484 0.02303 0.0
H420 H 0.56063 0.94939 0.04009 0.0
H421 H 0.56534 0.99707 0.13068 0.0
H422 H 0.48095 0.02594 0.88492 0.0
H423 H 0.49523 0.07902 0.974 0.0
H424 H 0.61161 0.97914 0.88664 0.0
H425 H 0.57767 0.92952 0.94486 0.0
H426 H 0.47723 0.08495 0.12514 0.0
H427 H 0.42982 0.05324 0.04017 0.0
Cd428 Cd 0.99638 0.50824 0.06325 0.0
Cd429 Cd 0.0377 0.50311 0.96153 0.0
C430 C 0.04331 0.50172 0.10244 0.0
N431 N 0.02544 0.49019 0.078 0.0
C432 C 0.03617 0.45148 0.0677 0.0
C433 C 0.0544 0.46246 0.09315 0.0
C434 C 0.05815 0.48816 0.1104 0.0
C435 C 0.02187 0.46566 0.06061 0.0
H436 H 0.04567 0.52117 0.1161 0.0
H437 H 1.00747 0.45686 0.04139 0.0
C438 C 0.98462 0.46849 0.9858 0.0
C439 C 0.98734 0.50903 0.92795 0.0
C440 C 0.97272 0.52258 0.9195 0.0
C441 C 0.98151 0.55024 0.92975 0.0
C442 C 1.00466 0.5634 0.94895 0.0
C443 C 1.01848 0.54912 0.95698 0.0
N444 N 1.00984 0.52247 0.94632 0.0
H445 H 0.98088 0.48786 0.91955 0.0
H446 H 0.0364 0.55937 0.97156 0.0
C447 C 0.04401 0.45005 0.91706 0.0
N448 N 0.05319 0.46714 0.9447 0.0
C449 C 0.08535 0.44806 0.94888 0.0
C450 C 0.07681 0.43061 0.91997 0.0
C451 C 0.05544 0.43164 0.90436 0.0
C452 C 0.07337 0.46622 0.96073 0.0
H453 H 0.02827 0.45126 0.90434 0.0
H454 H 0.08089 0.48029 0.98235 0.0
C455 C 0.04698 0.54476 0.03694 0.0
C456 C 0.95679 0.47646 0.09014 0.0
N457 N 0.98089 0.54385 0.08262 0.0
C458 C 0.97738 0.54937 0.11234 0.0
C459 C 0.96513 0.56704 0.12475 0.0
C460 C 0.95631 0.57968 0.10668 0.0
C461 C 0.96083 0.57406 0.0761 0.0
C462 C 0.97301 0.556 0.06452 0.0
C463 C 0.07592 0.53356 0.93233 0.0
O464 O 0.99468 0.48786 0.00868 0.0
O465 O 0.99631 0.46762 0.96205 0.0
O466 O 0.0389 0.52368 0.01575 0.0
O467 O 0.03559 0.54561 0.06089 0.0
O468 O 0.95269 0.47747 0.06344 0.0
O469 O 0.97937 0.48995 0.10369 0.0
O470 O 0.0805 0.535 0.95988 0.0
O471 O 0.05382 0.51785 0.91898 0.0
H472 H 0.9834 0.53941 0.12646 0.0
H473 H 0.97561 0.55125 0.04087 0.0
H474 H 0.03288 0.43201 0.05335 0.0
H475 H 0.07183 0.49739 0.13031 0.0
H476 H 0.9551 0.51159 0.9045 0.0
H477 H 1.01205 0.5846 0.95782 0.0
H478 H 0.10187 0.44851 0.96185 0.0
H479 H 0.0477 0.41853 0.88227 0.0
H480 H 0.96189 0.57 0.14821 0.0
H481 H 0.95491 0.58338 0.06107 0.0
Cd482 Cd 0.49984 0.4861 0.04012 0.0
Cd483 Cd 0.55554 0.51462 0.96859 0.0
C484 C 0.54373 0.47768 0.07774 0.0
N485 N 0.52802 0.46688 0.05156 0.0
C486 C 0.54156 0.43014 0.04003 0.0
C487 C 0.55796 0.44067 0.06692 0.0
C488 C 0.55906 0.46486 0.08589 0.0
C489 C 0.52663 0.44356 0.03288 0.0
H490 H 0.54403 0.49602 0.09249 0.0
H491 H 0.51366 0.43512 0.0126 0.0
C492 C 0.51268 0.45976 0.96272 0.0
C493 C 0.50833 0.52053 0.93641 0.0
C494 C 0.49194 0.53235 0.92861 0.0
C495 C 0.49203 0.5561 0.94772 0.0
C496 C 0.50836 0.56698 0.97475 0.0
C497 C 0.52469 0.55467 0.98142 0.0
N498 N 0.52441 0.53196 0.96225 0.0
H499 H 0.50907 0.50281 0.92125 0.0
H500 H 0.53818 0.56377 0.00138 0.0
C501 C 0.60108 0.49262 0.96725 0.0
N502 N 0.5849 0.49946 0.98687 0.0
C503 C 0.59919 0.48202 0.02267 0.0
C504 C 0.61481 0.4733 0.00215 0.0
C505 C 0.61641 0.4795 0.97452 0.0
C506 C 0.5842 0.49507 0.0145 0.0
H507 H 0.60109 0.49618 0.94535 0.0
H508 H 0.5713 0.50061 0.02979 0.0
C509 C 0.54556 0.53659 0.04466 0.0
C510 C 0.45985 0.45934 0.07185 0.0
N511 N 0.4778 0.50769 0.02067 0.0
C512 C 0.47684 0.52966 0.04018 0.0
C513 C 0.46386 0.54413 0.03131 0.0
C514 C 0.45159 0.53593 0.002 0.0
C515 C 0.45248 0.51281 0.98239 0.0
C516 C 0.4659 0.49893 0.99224 0.0
C517 C 0.58803 0.54352 0.93205 0.0
O518 O 0.51308 0.47439 0.98865 0.0
O519 O 0.52823 0.46952 0.94494 0.0
O520 O 0.54002 0.52052 0.01888 0.0
O521 O 0.53158 0.53009 0.06518 0.0
O522 O 0.46046 0.44999 0.04396 0.0
O523 O 0.47743 0.48139 0.08457 0.0
O524 O 0.59023 0.55273 0.96037 0.0
O525 O 0.57117 0.52062 0.9209 0.0
H526 H 0.48598 0.5358 0.06285 0.0
H527 H 0.46676 0.48118 0.97728 0.0
H528 H 0.54039 0.41178 0.02449 0.0
H529 H 0.5713 0.47355 0.10694 0.0
H530 H 0.48009 0.52344 0.90731 0.0
H531 H 0.50883 0.58501 0.99042 0.0
H532 H 0.59784 0.47781 0.04428 0.0
H533 H 0.62804 0.47278 0.95798 0.0
H534 H 0.46304 0.56133 0.04753 0.0
H535 H 0.44329 0.50578 0.95963 0.0
Cd536 Cd 0.99095 0.50177 0.54333 0.0
Cd537 Cd 0.02862 0.49395 0.44015 0.0
C538 C 0.03115 0.4954 0.59149 0.0
N539 N 0.02402 0.49034 0.56175 0.0
C540 C 0.05064 0.46445 0.54908 0.0
C541 C 0.05762 0.46838 0.57962 0.0
C542 C 0.04806 0.48462 0.60096 0.0
C543 C 0.03369 0.47549 0.54065 0.0
H544 H 0.02298 0.50699 0.60791 0.0
H545 H 0.02756 0.47153 0.51717 0.0
C546 C 0.97445 0.46323 0.46577 0.0
C547 C 0.98137 0.48704 0.39004 0.0
C548 C 0.96426 0.49522 0.37618 0.0
C549 C 0.96393 0.52068 0.38786 0.0
C550 C 0.9805 0.53699 0.41379 0.0
C551 C 0.99699 0.52795 0.42703 0.0
N552 N 0.99734 0.50348 0.41499 0.0
H553 H 0.98204 0.46769 0.38075 0.0
H554 H 1.00982 0.54062 0.4469 0.0
C555 C 0.038 0.43648 0.4201 0.0
N556 N 0.05032 0.46305 0.43034 0.0
C557 C 0.0917 0.45844 0.42413 0.0
C558 C 0.0797 0.43094 0.41288 0.0
C559 C 0.05235 0.42004 0.41136 0.0
C560 C 0.07669 0.47404 0.43274 0.0
H561 H 1.01702 0.42803 0.41801 0.0
H562 H 0.08617 0.49519 0.44039 0.0
C563 C 0.04364 0.53368 0.51693 0.0
C564 C 0.95601 0.46434 0.56861 0.0
N565 N 0.97104 0.53396 0.55759 0.0
C566 C 0.97537 0.54826 0.58682 0.0
C567 C 0.96166 0.56483 0.59781 0.0
C568 C 0.94309 0.56691 0.57868 0.0
C569 C 0.93947 0.55225 0.54837 0.0
C570 C 0.95358 0.53582 0.53832 0.0
C571 C 0.06583 0.53061 0.41639 0.0
O572 O 0.98678 0.4813 0.48888 0.0
O573 O 0.98548 0.46118 0.44162 0.0
O574 O 0.03131 0.51497 0.49434 0.0
O575 O 0.03314 0.53592 0.54145 0.0
O576 O 0.95821 0.45927 0.54059 0.0
O577 O 0.97002 0.48708 0.58475 0.0
O578 O 0.0602 0.53721 0.44313 0.0
O579 O 0.05387 0.50703 0.4009 0.0
H580 H 0.98891 0.54613 0.60195 0.0
H581 H 0.9501 0.52405 0.51526 0.0
H582 H 0.05786 0.45256 0.53176 0.0
H583 H 0.05272 0.48809 0.62474 0.0
H584 H 0.95185 0.48201 0.3562 0.0
H585 H 0.98063 0.55657 0.4239 0.0
H586 H 0.11253 0.46812 0.4253 0.0
H587 H 0.04201 0.399 0.40328 0.0
H588 H 0.965 0.57517 0.62141 0.0
H589 H 0.92573 0.55328 0.5325 0.0
Cd590 Cd 0.49331 0.00445 0.54866 0.0
Cd591 Cd 0.53592 0.00072 0.4526 0.0
C592 C 0.53691 0.99487 0.58824 0.0
N593 N 0.52283 0.98588 0.56099 0.0
C594 C 0.53887 0.95073 0.54681 0.0
C595 C 0.55317 0.95907 0.57502 0.0
C596 C 0.55232 0.98175 0.59572 0.0
C597 C 0.52376 0.96439 0.5403 0.0
H598 H 0.53567 0.01183 0.60447 0.0
H599 H 0.51228 0.95747 0.51888 0.0
C600 C 0.48172 0.96601 0.47111 0.0
C601 C 0.49905 0.01516 0.40912 0.0
C602 C 0.48409 0.0286 0.40139 0.0
C603 C 0.47691 0.04609 0.42398 0.0
C604 C 0.48447 0.04879 0.45403 0.0
C605 C 0.49958 0.03518 0.46072 0.0
N606 N 0.50685 0.019 0.43838 0.0
H607 H 0.50505 0.00223 0.39169 0.0
H608 H 0.50596 0.03795 0.48382 0.0
C609 C 0.54405 0.94847 0.41066 0.0
N610 N 0.55162 0.96524 0.43865 0.0
C611 C 0.58295 0.94622 0.44641 0.0
C612 C 0.5762 0.92919 0.41714 0.0
C613 C 0.55597 0.93023 0.39953 0.0
C614 C 0.57046 0.96415 0.45668 0.0
H615 H 0.52931 0.94985 0.39649 0.0
H616 H 0.57656 0.97791 0.47866 0.0
C617 C 0.54893 0.03649 0.53079 0.0
C618 C 0.45843 0.97128 0.57879 0.0
N619 N 0.47447 0.03793 0.5608 0.0
C620 C 0.48612 0.06094 0.58244 0.0
C621 C 0.47293 0.0783 0.59255 0.0
C622 C 0.44727 0.07195 0.58061 0.0
C623 C 0.43612 0.04837 0.55765 0.0
C624 C 0.45002 0.03167 0.54815 0.0
C625 C 0.57586 0.03262 0.42613 0.0
O626 O 0.49147 0.98562 0.49382 0.0
O627 O 0.49386 0.9652 0.44774 0.0
O628 O 0.53702 0.01867 0.50731 0.0
O629 O 0.53701 0.0386 0.55428 0.0
O630 O 0.45499 0.96736 0.55056 0.0
O631 O 0.47772 0.99125 0.59301 0.0
O632 O 0.57745 0.03525 0.45424 0.0
O633 O 0.55559 0.01505 0.41046 0.0
H634 H 0.50534 0.06542 0.59274 0.0
H635 H 0.44088 0.01316 0.53129 0.0
H636 H 0.53919 0.93366 0.52992 0.0
H637 H 0.56276 0.9888 0.61785 0.0
H638 H 0.47901 0.02597 0.3779 0.0
H639 H 0.47902 0.06151 0.47233 0.0
H640 H 0.59851 0.94656 0.46089 0.0
H641 H 0.5496 0.91733 0.37708 0.0
H642 H 0.48241 0.09598 0.61047 0.0
H643 H 0.41663 0.0426 0.54731 0.0
H644 H 0.18901 0.1634 0.23125 0.0
H645 H 0.16147 0.12552 0.24826 0.0
H646 H 0.21481 0.15124 0.32774 0.0
H647 H 0.24224 0.18851 0.31097 0.0
H648 H 0.19795 0.09889 0.30635 0.0
H649 H 0.16086 0.16673 0.32882 0.0
H650 H 0.14218 0.19703 0.31611 0.0
H651 H 0.08083 0.1315 0.25862 0.0
H652 H 0.09938 0.10082 0.27071 0.0
H653 H 0.12919 0.06292 0.42666 0.0
H654 H 0.1542 0.08463 0.39091 0.0
H655 H 0.09046 0.04051 0.32197 0.0
H656 H 0.06532 0.01852 0.35758 0.0
H657 H 0.10894 0.09444 0.328 0.0
H658 H 0.14336 0.02639 0.31541 0.0
H659 H 0.1627 0.998 0.33162 0.0
H660 H 0.22983 0.06572 0.37401 0.0
H661 H 0.21078 0.09457 0.35839 0.0
C662 C 0.19497 0.16071 0.25213 0.0
C663 C 0.21761 0.17913 0.26993 0.0
C664 C 0.17921 0.13915 0.26186 0.0
C665 C 0.18599 0.1357 0.28942 0.0
C666 C 0.20918 0.15345 0.30642 0.0
C667 C 0.22476 0.17492 0.29686 0.0
C668 C 0.16846 0.11484 0.302 0.0
C669 C 0.17846 0.09785 0.31104 0.0
C670 C 0.14286 0.11315 0.3076 0.0
C671 C 0.1317 0.13153 0.30032 0.0
C672 C 0.14351 0.15881 0.31326 0.0
C673 C 0.13293 0.17604 0.30621 0.0
C674 C 0.11038 0.1662 0.28648 0.0
C675 C 0.09833 0.13909 0.27383 0.0
C676 C 0.10887 0.12178 0.28077 0.0
C677 C 0.12062 0.05756 0.40378 0.0
C678 C 0.09529 0.03901 0.39493 0.0
C679 C 0.13496 0.06991 0.38335 0.0
C680 C 0.12422 0.06405 0.35374 0.0
C681 C 0.09911 0.04522 0.34468 0.0
C682 C 0.08484 0.03263 0.36503 0.0
C683 C 0.13869 0.07899 0.33305 0.0
C684 C 0.12815 0.09492 0.3226 0.0
C685 C 0.16392 0.07995 0.32652 0.0
C686 C 0.17555 0.06266 0.33586 0.0
C687 C 0.16217 0.03526 0.32837 0.0
C688 C 0.17311 0.01907 0.33741 0.0
C689 C 0.19747 0.03005 0.35385 0.0
C690 C 0.21098 0.05724 0.36124 0.0
C691 C 0.20014 0.07351 0.35225 0.0
H692 H 0.2059 0.01749 0.36084 0.0
H693 H 0.10221 0.17957 0.28106 0.0
H694 H 0.89198 0.23319 0.40924 0.0
H695 H 0.91143 0.20666 0.42871 0.0
H696 H 0.89689 0.15209 0.34084 0.0
H697 H 0.87726 0.17823 0.32147 0.0
H698 H 0.88405 0.12607 0.38075 0.0
H699 H 0.95613 0.2 0.37041 0.0
H700 H 0.98356 0.24679 0.37892 0.0
H701 H 0.99694 0.25382 0.47263 0.0
H702 H 0.96947 0.20706 0.46466 0.0
H703 H 0.9672 0.058 0.39525 0.0
H704 H 0.94498 0.08434 0.38152 0.0
H705 H 0.96482 0.13657 0.47098 0.0
H706 H 0.98856 0.11099 0.48436 0.0
H707 H 0.97283 0.16369 0.43333 0.0
H708 H 0.88457 0.09252 0.43914 0.0
H709 H 0.85563 0.04575 0.42767 0.0
H710 H 0.87544 0.03378 0.33687 0.0
H711 H 0.90434 0.08052 0.34804 0.0
C712 C 0.89302 0.21555 0.39414 0.0
C713 C 0.88305 0.2077 0.36386 0.0
C714 C 0.90411 0.20043 0.40527 0.0
C715 C 0.90576 0.17747 0.3862 0.0
C716 C 0.8957 0.16963 0.35602 0.0
C717 C 0.88445 0.18456 0.34498 0.0
C718 C 0.91781 0.16136 0.39738 0.0
C719 C 0.90354 0.13435 0.39213 0.0
C720 C 0.94313 0.17212 0.41253 0.0
C721 C 0.96003 0.20018 0.41713 0.0
C722 C 0.9646 0.21159 0.39292 0.0
C723 C 0.98028 0.23809 0.39761 0.0
C724 C 0.99181 0.25334 0.42635 0.0
C725 C 0.98785 0.24205 0.45041 0.0
C726 C 0.9722 0.21556 0.44582 0.0
C727 C 0.96641 0.07478 0.41225 0.0
C728 C 0.97915 0.082 0.44119 0.0
C729 C 0.95329 0.08968 0.40444 0.0
C730 C 0.95192 0.11176 0.42556 0.0
C731 C 0.96501 0.11928 0.45438 0.0
C732 C 0.97869 0.1047 0.46202 0.0
C733 C 0.93907 0.12839 0.41673 0.0
C734 C 0.9532 0.15554 0.42238 0.0
C735 C 0.91385 0.11776 0.40133 0.0
C736 C 0.89732 0.08959 0.39482 0.0
C737 C 0.88313 0.07971 0.41701 0.0
C738 C 0.86655 0.05331 0.41046 0.0
C739 C 0.86399 0.0367 0.38167 0.0
C740 C 0.87766 0.04658 0.35926 0.0
C741 C 0.89405 0.07302 0.36568 0.0
H742 H 0.85123 0.01626 0.37667 0.0
H743 H 1.00394 0.27386 0.42993 0.0
H744 H 0.83202 0.84213 0.32097 0.0
H745 H 0.85188 0.87366 0.36906 0.0
H746 H 0.8063 0.81832 0.41579 0.0
H747 H 0.78635 0.78652 0.36779 0.0
H748 H 0.83188 0.89686 0.42139 0.0
H749 H 0.84991 0.82527 0.47371 0.0
H750 H 0.84932 0.77979 0.46122 0.0
H751 H 0.87579 0.78701 0.37553 0.0
H752 H 0.87675 0.83257 0.38771 0.0
H753 H 0.97071 0.94203 0.5101 0.0
H754 H 0.92406 0.91703 0.50832 0.0
H755 H 0.91175 0.93436 0.42494 0.0
H756 H 0.95759 0.95982 0.42751 0.0
H757 H 0.89905 0.87414 0.46693 0.0
H758 H 0.85902 0.93768 0.41085 0.0
H759 H 0.86263 0.98391 0.42144 0.0
H760 H 0.88353 0.99566 0.51471 0.0
H761 H 0.87997 0.94949 0.50482 0.0
C762 C 0.82614 0.83669 0.34144 0.0
C763 C 0.80793 0.81177 0.3406 0.0
C764 C 0.83718 0.85482 0.36887 0.0
C765 C 0.8303 0.84826 0.39582 0.0
C766 C 0.81163 0.8237 0.39516 0.0
C767 C 0.80048 0.80556 0.36771 0.0
C768 C 0.84552 0.8661 0.42394 0.0
C769 C 0.84636 0.89205 0.432 0.0
C770 C 0.86326 0.85923 0.43889 0.0
C771 C 0.86309 0.83208 0.43147 0.0
C772 C 0.85562 0.8171 0.45224 0.0
C773 C 0.85523 0.79135 0.44522 0.0
C774 C 0.86242 0.78049 0.41755 0.0
C775 C 0.87015 0.7954 0.39691 0.0
C776 C 0.87062 0.82117 0.40385 0.0
C777 C 0.95776 0.94113 0.49211 0.0
C778 C 0.96755 0.95321 0.46937 0.0
C779 C 0.93122 0.92691 0.49106 0.0
C780 C 0.91426 0.92462 0.46709 0.0
C781 C 0.9242 0.93678 0.44439 0.0
C782 C 0.95055 0.95091 0.44552 0.0
C783 C 0.88727 0.90564 0.46189 0.0
C784 C 0.88379 0.87916 0.45828 0.0
C785 C 0.86715 0.91213 0.45107 0.0
C786 C 0.869 0.93993 0.45711 0.0
C787 C 0.86409 0.94998 0.43371 0.0
C788 C 0.86627 0.97625 0.43955 0.0
C789 C 0.87325 0.99268 0.46872 0.0
C790 C 0.87808 0.9829 0.49212 0.0
C791 C 0.87611 0.9567 0.48639 0.0
H792 H 0.87495 0.013 0.47315 0.0
H793 H 0.86207 0.76054 0.41215 0.0
H794 H 0.22677 0.85864 0.42631 0.0
H795 H 0.20278 0.86846 0.46865 0.0
H796 H 0.1515 0.78695 0.44657 0.0
H797 H 0.17499 0.77726 0.40328 0.0
H798 H 0.12579 0.81467 0.44048 0.0
H799 H 0.1806 0.82074 0.51786 0.0
H800 H 0.21813 0.82933 0.55269 0.0
H801 H 0.23392 0.91229 0.574 0.0
H802 H 0.19696 0.90448 0.53885 0.0
H803 H 0.05616 0.89608 0.49242 0.0
H804 H 0.07428 0.86384 0.49909 0.0
H805 H 0.1514 0.91886 0.49724 0.0
H806 H 0.1335 0.95167 0.49252 0.0
H807 H 0.15237 0.88823 0.53317 0.0
H808 H 0.11215 0.87426 0.43109 0.0
H809 H 0.07416 0.86523 0.3963 0.0
H810 H 0.03253 0.79561 0.42374 0.0
H811 H 0.07026 0.80444 0.45892 0.0
C812 C 0.2108 0.84266 0.43095 0.0
C813 C 0.20216 0.81742 0.41091 0.0
C814 C 0.19734 0.84818 0.4556 0.0
C815 C 0.17505 0.8285 0.46071 0.0
C816 C 0.16855 0.80248 0.443 0.0
C817 C 0.18197 0.79698 0.41819 0.0
C818 C 0.15531 0.83668 0.47772 0.0
C819 C 0.1313 0.82997 0.46151 0.0
C820 C 0.16219 0.85656 0.50529 0.0
C821 C 0.18557 0.86187 0.52558 0.0
C822 C 0.19217 0.84089 0.52962 0.0
C823 C 0.21341 0.84564 0.54954 0.0
C824 C 0.2284 0.87134 0.56556 0.0
C825 C 0.22223 0.89236 0.56163 0.0
C826 C 0.20103 0.88775 0.54173 0.0
C827 C 0.07701 0.90147 0.49412 0.0
C828 C 0.09343 0.92633 0.49184 0.0
C829 C 0.08732 0.88306 0.49798 0.0
C830 C 0.11414 0.88878 0.49817 0.0
C831 C 0.13064 0.91403 0.49729 0.0
C832 C 0.12039 0.9327 0.49433 0.0
C833 C 0.12492 0.86775 0.49425 0.0
C834 C 0.14677 0.87197 0.51308 0.0
C835 C 0.1163 0.84556 0.46907 0.0
C836 C 0.09381 0.84014 0.44778 0.0
C837 C 0.09484 0.85708 0.42973 0.0
C838 C 0.07338 0.85202 0.40998 0.0
C839 C 0.05092 0.8299 0.40788 0.0
C840 C 0.04991 0.81276 0.42545 0.0
C841 C 0.07131 0.81779 0.4453 0.0
H842 H 0.03432 0.826 0.39258 0.0
H843 H 0.24477 0.87496 0.58105 0.0
H844 H 0.1344 0.79354 0.65999 0.0
H845 H 0.11953 0.81667 0.63017 0.0
H846 H 0.19884 0.86007 0.61867 0.0
H847 H 0.21395 0.83756 0.64945 0.0
H848 H 0.17442 0.89227 0.63592 0.0
H849 H 0.15663 0.81292 0.56238 0.0
H850 H 0.14023 0.76575 0.53622 0.0
H851 H 0.06186 0.76261 0.54261 0.0
H852 H 0.07777 0.8098 0.569 0.0
H853 H 0.11869 0.9593 0.56103 0.0
H854 H 0.14354 0.93317 0.56995 0.0
H855 H 0.0732 0.87449 0.58499 0.0
H856 H 0.04819 0.89981 0.57428 0.0
H857 H 0.10106 0.85086 0.55591 0.0
H858 H 0.12204 0.92737 0.64448 0.0
H859 H 0.13893 0.9753 0.66796 0.0
H860 H 0.21157 0.9823 0.63129 0.0
H861 H 0.19501 0.93443 0.60742 0.0
C862 C 0.14871 0.80796 0.65107 0.0
C863 C 0.17537 0.81387 0.65736 0.0
C864 C 0.14016 0.82093 0.63365 0.0
C865 C 0.15805 0.83993 0.62186 0.0
C866 C 0.18468 0.84537 0.62737 0.0
C867 C 0.19327 0.83239 0.64485 0.0
C868 C 0.14885 0.8557 0.60632 0.0
C869 C 0.15869 0.88316 0.61801 0.0
C870 C 0.12831 0.84388 0.58293 0.0
C871 C 0.11853 0.81517 0.56763 0.0
C872 C 0.13592 0.80228 0.55825 0.0
C873 C 0.12668 0.77546 0.54338 0.0
C874 C 0.10001 0.76119 0.5377 0.0
C875 C 0.08253 0.77371 0.54694 0.0
C876 C 0.09168 0.80054 0.56181 0.0
C877 C 0.10859 0.94083 0.56628 0.0
C878 C 0.08151 0.9316 0.567 0.0
C879 C 0.12282 0.92594 0.57152 0.0
C880 C 0.1104 0.90206 0.57883 0.0
C881 C 0.0833 0.89278 0.5793 0.0
C882 C 0.069 0.9073 0.57327 0.0
C883 C 0.12536 0.88698 0.5871 0.0
C884 C 0.11684 0.85975 0.57374 0.0
C885 C 0.1471 0.8989 0.60894 0.0
C886 C 0.15725 0.92745 0.62406 0.0
C887 C 0.14161 0.93917 0.64146 0.0
C888 C 0.15111 0.96631 0.65479 0.0
C889 C 0.17629 0.98184 0.65106 0.0
C890 C 0.19207 0.97025 0.63414 0.0
C891 C 0.18266 0.94313 0.62075 0.0
H892 H 0.18358 0.00285 0.66132 0.0
H893 H 0.09289 0.74042 0.52618 0.0
H894 H 0.25011 0.21904 0.66139 0.0
H895 H 0.2441 0.18897 0.61144 0.0
H896 H 0.19564 0.12488 0.64509 0.0
H897 H 0.20345 0.15471 0.69561 0.0
H898 H 0.21964 0.10661 0.59905 0.0
H899 H 0.17 0.16925 0.61859 0.0
H900 H 0.17182 0.21515 0.63082 0.0
H901 H 0.2196 0.22929 0.55931 0.0
H902 H 0.21817 0.1835 0.54689 0.0
H903 H 0.09564 0.0551 0.58789 0.0
H904 H 0.14196 0.07862 0.5914 0.0
H905 H 0.13505 0.08594 0.50134 0.0
H906 H 0.0878 0.06256 0.49816 0.0
H907 H 0.16146 0.13229 0.54211 0.0
H908 H 0.1738 0.05341 0.51229 0.0
H909 H 0.16343 0.00601 0.50563 0.0
H910 H 0.18044 0.01986 0.60023 0.0
H911 H 0.19032 0.06721 0.60771 0.0
C912 C 0.23835 0.19846 0.65805 0.0
C913 C 0.22627 0.18917 0.68179 0.0
C914 C 0.23524 0.18128 0.62964 0.0
C915 C 0.219 0.15482 0.62434 0.0
C916 C 0.20832 0.14524 0.64862 0.0
C917 C 0.21227 0.16229 0.6773 0.0
C918 C 0.20861 0.1383 0.59354 0.0
C919 C 0.2073 0.11212 0.58593 0.0
C920 C 0.19389 0.14602 0.57519 0.0
C921 C 0.19412 0.17317 0.58197 0.0
C922 C 0.18081 0.18219 0.60547 0.0
C923 C 0.18184 0.20816 0.61248 0.0
C924 C 0.19587 0.22514 0.5959 0.0
C925 C 0.20879 0.21613 0.57217 0.0
C926 C 0.20789 0.19019 0.56514 0.0
C927 C 0.1039 0.06157 0.56874 0.0
C928 C 0.0883 0.05682 0.54255 0.0
C929 C 0.13048 0.07453 0.5705 0.0
C930 C 0.14207 0.08302 0.5461 0.0
C931 C 0.12652 0.07875 0.51999 0.0
C932 C 0.09969 0.06559 0.51822 0.0
C933 C 0.16971 0.10007 0.55095 0.0
C934 C 0.17502 0.12668 0.55327 0.0
C935 C 0.18766 0.09257 0.5647 0.0
C936 C 0.18323 0.06416 0.56047 0.0
C937 C 0.17548 0.04643 0.53171 0.0
C938 C 0.16957 0.0195 0.5278 0.0
C939 C 0.17139 0.00995 0.55247 0.0
C940 C 0.1792 0.02732 0.5811 0.0
C941 C 0.18508 0.05428 0.58517 0.0
H942 H 0.16668 0.98908 0.5494 0.0
H943 H 0.19671 0.24526 0.60141 0.0
H944 H 0.89377 0.20284 0.61356 0.0
H945 H 0.90338 0.1832 0.56435 0.0
H946 H 0.82152 0.13984 0.53764 0.0
H947 H 0.81199 0.15899 0.58787 0.0
H948 H 0.84218 0.10719 0.53214 0.0
H949 H 0.86299 0.17497 0.48705 0.0
H950 H 0.878 0.2201 0.48139 0.0
H951 H 0.95582 0.23261 0.51221 0.0
H952 H 0.94143 0.18746 0.51769 0.0
H953 H 0.92444 0.03781 0.4697 0.0
H954 H 0.89598 0.06122 0.46364 0.0
H955 H 0.94072 0.12651 0.53738 0.0
H956 H 0.96756 0.10244 0.54561 0.0
H957 H 0.92389 0.14163 0.4866 0.0
H958 H 0.89041 0.07937 0.55165 0.0
H959 H 0.87171 0.0347 0.55873 0.0
H960 H 0.81335 0.01224 0.48551 0.0
H961 H 0.83192 0.05676 0.47789 0.0
C962 C 0.87776 0.18993 0.59685 0.0
C963 C 0.85224 0.18195 0.60464 0.0
C964 C 0.88321 0.17886 0.56836 0.0
C965 C 0.86318 0.15988 0.54694 0.0
C966 C 0.83734 0.15428 0.55371 0.0
C967 C 0.83192 0.16506 0.58245 0.0
C968 C 0.86995 0.14152 0.52213 0.0
C969 C 0.85935 0.11464 0.52096 0.0
C970 C 0.89186 0.15064 0.50656 0.0
C971 C 0.90107 0.17772 0.50273 0.0
C972 C 0.88332 0.18732 0.49261 0.0
C973 C 0.89174 0.2129 0.48936 0.0
C974 C 0.91786 0.22919 0.49637 0.0
C975 C 0.93562 0.2199 0.5066 0.0
C976 C 0.92738 0.19422 0.50953 0.0
C977 C 0.92818 0.05713 0.48468 0.0
C978 C 0.94812 0.06804 0.50841 0.0
C979 C 0.91226 0.07075 0.48064 0.0
C980 C 0.91657 0.09581 0.49962 0.0
C981 C 0.93738 0.10736 0.52211 0.0
C982 C 0.95275 0.09351 0.52678 0.0
C983 C 0.89752 0.10867 0.50002 0.0
C984 C 0.90578 0.13416 0.49614 0.0
C985 C 0.87301 0.09813 0.51023 0.0
C986 C 0.8627 0.07117 0.51397 0.0
C987 C 0.87376 0.06479 0.5369 0.0
C988 C 0.86311 0.03957 0.5411 0.0
C989 C 0.84129 0.02068 0.52267 0.0
C990 C 0.83019 0.02691 0.49983 0.0
C991 C 0.8408 0.0521 0.49552 0.0
H992 H 0.83306 0.00117 0.52597 0.0
H993 H 0.92435 0.249 0.49388 0.0
H994 H 0.84182 0.85095 0.77476 0.0
H995 H 0.87407 0.88623 0.75765 0.0
H996 H 0.85428 0.83751 0.66647 0.0
H997 H 0.82235 0.80259 0.68308 0.0
H998 H 0.90713 0.86104 0.68182 0.0
H999 H 0.83023 0.88434 0.68979 0.0
H1000 H 0.79606 0.89589 0.71726 0.0
H1001 H 0.85407 0.96289 0.77732 0.0
H1002 H 0.88861 0.95148 0.75041 0.0
H1003 H 0.9357 0.93107 0.57555 0.0
H1004 H 0.91153 0.90677 0.60954 0.0
H1005 H 0.9524 0.9719 0.68547 0.0
H1006 H 0.97703 0.99657 0.6514 0.0
H1007 H 0.89639 0.94597 0.68858 0.0
H1008 H 0.97309 0.92605 0.67381 0.0
H1009 H 1.0062 0.91433 0.64428 0.0
H1010 H 0.94827 0.84056 0.59633 0.0
H1011 H 0.91469 0.85204 0.62519 0.0
C1012 C 0.84445 0.8478 0.7511 0.0
C1013 C 0.82944 0.82401 0.73028 0.0
C1014 C 0.8628 0.86795 0.74138 0.0
C1015 C 0.8665 0.86443 0.71079 0.0
C1016 C 0.85179 0.84059 0.69018 0.0
C1017 C 0.83341 0.82068 0.69975 0.0
C1018 C 0.88528 0.88542 0.69953 0.0
C1019 C 0.90486 0.87965 0.6834 0.0
C1020 C 0.88272 0.90997 0.7023 0.0
C1021 C 0.86199 0.91686 0.71837 0.0
C1022 C 0.8357 0.90139 0.70903 0.0
C1023 C 0.81626 0.90794 0.72445 0.0
C1024 C 0.82289 0.93006 0.74909 0.0
C1025 C 0.84897 0.94572 0.75828 0.0
C1026 C 0.86848 0.93923 0.74295 0.0
C1027 C 0.93941 0.94045 0.59944 0.0
C1028 C 0.95845 0.96567 0.61081 0.0
C1029 C 0.92559 0.92649 0.61883 0.0
C1030 C 0.93047 0.93744 0.64997 0.0
C1031 C 0.94848 0.96314 0.66147 0.0
C1032 C 0.96251 0.97714 0.64201 0.0
C1033 C 0.91756 0.92109 0.67004 0.0
C1034 C 0.89914 0.9277 0.68775 0.0
C1035 C 0.92112 0.89722 0.66872 0.0
C1036 C 0.94132 0.89 0.65157 0.0
C1037 C 0.96736 0.90741 0.65683 0.0
C1038 C 0.98623 0.9008 0.64022 0.0
C1039 C 0.97934 0.87673 0.61841 0.0
C1040 C 0.95358 0.8592 0.61323 0.0
C1041 C 0.93462 0.86574 0.62973 0.0
H1042 H 0.99398 0.87166 0.60556 0.0
H1043 H 0.80782 0.9351 0.761 0.0
H1044 H 0.30173 0.21074 0.15969 0.0
H1045 H 0.32879 0.18686 0.135 0.0
H1046 H 0.34012 0.16661 0.21653 0.0
H1047 H 0.31373 0.19078 0.24137 0.0
H1048 H 0.38438 0.18097 0.19464 0.0
H1049 H 0.29838 0.1214 0.15175 0.0
H1050 H 0.25534 0.10824 0.12456 0.0
H1051 H 0.29134 0.12689 0.04689 0.0
H1052 H 0.33463 0.14047 0.07377 0.0
H1053 H 0.43497 0.08076 0.14098 0.0
H1054 H 0.40802 0.10588 0.16125 0.0
H1055 H 0.40175 0.1229 0.0764 0.0
H1056 H 0.4287 0.09749 0.0558 0.0
H1057 H 0.3561 0.11214 0.09775 0.0
H1058 H 0.44203 0.16993 0.13987 0.0
H1059 H 0.48509 0.1831 0.167 0.0
H1060 H 0.44933 0.1682 0.24616 0.0
H1061 H 0.40602 0.1546 0.21938 0.0
C1062 C 0.3098 0.20103 0.17231 0.0
C1063 C 0.3053 0.20273 0.2026 0.0
C1064 C 0.3253 0.18725 0.15809 0.0
C1065 C 0.3365 0.17451 0.17364 0.0
C1066 C 0.3319 0.17617 0.20383 0.0
C1067 C 0.3166 0.19001 0.21806 0.0
C1068 C 0.35342 0.15992 0.15902 0.0
C1069 C 0.37796 0.1657 0.17362 0.0
C1070 C 0.34571 0.14043 0.13107 0.0
C1071 C 0.31973 0.13221 0.11488 0.0
C1072 C 0.29711 0.12288 0.12895 0.0
C1073 C 0.27268 0.11531 0.11358 0.0
C1074 C 0.27061 0.1168 0.08405 0.0
C1075 C 0.29298 0.12579 0.06979 0.0
C1076 C 0.31746 0.1334 0.08506 0.0
C1077 C 0.4282 0.09008 0.12661 0.0
C1078 C 0.43446 0.08718 0.09671 0.0
C1079 C 0.41265 0.10452 0.13831 0.0
C1080 C 0.40303 0.1169 0.1207 0.0
C1081 C 0.40885 0.11371 0.09067 0.0
C1082 C 0.42432 0.09908 0.07885 0.0
C1083 C 0.38686 0.13293 0.13364 0.0
C1084 C 0.36253 0.12746 0.11871 0.0
C1085 C 0.39475 0.15276 0.16131 0.0
C1086 C 0.42077 0.16103 0.17752 0.0
C1087 C 0.44334 0.16929 0.163 0.0
C1088 C 0.46779 0.17685 0.17833 0.0
C1089 C 0.46994 0.17643 0.20826 0.0
C1090 C 0.44764 0.16849 0.22296 0.0
C1091 C 0.42313 0.16088 0.20773 0.0
H1092 H 0.48889 0.18229 0.22008 0.0
H1093 H 0.25167 0.11093 0.07219 0.0
H1094 H 0.77125 0.32044 0.20367 0.0
H1095 H 0.79338 0.35465 0.17897 0.0
H1096 H 0.86665 0.36678 0.22421 0.0
H1097 H 0.84481 0.33252 0.24895 0.0
H1098 H 0.85859 0.41431 0.22149 0.0
H1099 H 0.85045 0.32746 0.15671 0.0
H1100 H 0.82378 0.28194 0.12881 0.0
H1101 H 0.7811 0.31091 0.07788 0.0
H1102 H 0.80734 0.35661 0.10579 0.0
H1103 H 0.96223 0.46616 0.14354 0.0
H1104 H 0.92861 0.44072 0.16925 0.0
H1105 H 0.87101 0.4264 0.09753 0.0
H1106 H 0.90496 0.4513 0.07103 0.0
H1107 H 0.86291 0.38329 0.11204 0.0
H1108 H 0.87448 0.46921 0.16767 0.0
H1109 H 0.8963 0.51555 0.19637 0.0
H1110 H 0.92684 0.49132 0.26448 0.0
H1111 H 0.90559 0.44483 0.23597 0.0
C1112 C 0.79203 0.33057 0.20869 0.0
C1113 C 0.80633 0.32352 0.22803 0.0
C1114 C 0.8046 0.3501 0.19454 0.0
C1115 C 0.8316 0.36302 0.19968 0.0
C1116 C 0.84576 0.35697 0.22002 0.0
C1117 C 0.83327 0.33727 0.23396 0.0
C1118 C 0.84555 0.38141 0.18227 0.0
C1119 C 0.85972 0.40767 0.19759 0.0
C1120 C 0.84582 0.37282 0.15088 0.0
C1121 C 0.83067 0.3454 0.13351 0.0
C1122 C 0.83531 0.3241 0.13965 0.0
C1123 C 0.82027 0.29828 0.12383 0.0
C1124 C 0.8007 0.29353 0.10164 0.0
C1125 C 0.79624 0.31461 0.0951 0.0
C1126 C 0.8112 0.34047 0.11089 0.0
C1127 C 0.9424 0.45768 0.13323 0.0
C1128 C 0.9362 0.46078 0.10531 0.0
C1129 C 0.92313 0.44333 0.14811 0.0
C1130 C 0.89716 0.43217 0.1357 0.0
C1131 C 0.89089 0.43504 0.10765 0.0
C1132 C 0.91029 0.44922 0.09254 0.0
C1133 C 0.87705 0.41626 0.15145 0.0
C1134 C 0.86159 0.39036 0.13583 0.0
C1135 C 0.87513 0.42542 0.1825 0.0
C1136 C 0.88853 0.45345 0.19951 0.0
C1137 C 0.88607 0.47374 0.18861 0.0
C1138 C 0.8983 0.50005 0.20488 0.0
C1139 C 0.91297 0.50638 0.23221 0.0
C1140 C 0.91547 0.48639 0.24329 0.0
C1141 C 0.90331 0.46004 0.22709 0.0
H1142 H 0.92235 0.52676 0.24482 0.0
H1143 H 0.78904 0.27353 0.08948 0.0
H1144 H 0.7348 0.8694 0.13314 0.0
H1145 H 0.70589 0.88854 0.1163 0.0
H1146 H 0.67254 0.89293 0.2007 0.0
H1147 H 0.70065 0.87278 0.21723 0.0
H1148 H 0.63529 0.87578 0.15622 0.0
H1149 H 0.71693 0.9481 0.18351 0.0
H1150 H 0.76386 0.97119 0.18265 0.0
H1151 H 0.7523 0.96238 0.08821 0.0
H1152 H 0.70533 0.93891 0.08842 0.0
H1153 H 0.56911 0.95968 0.14067 0.0
H1154 H 0.59867 0.94142 0.15761 0.0
H1155 H 0.63249 0.93816 0.07354 0.0
H1156 H 0.60384 0.95769 0.05694 0.0
H1157 H 0.66956 0.95474 0.11775 0.0
H1158 H 0.58802 0.88228 0.09029 0.0
H1159 H 0.54108 0.85915 0.09102 0.0
H1160 H 0.55241 0.86804 0.1855 0.0
H1161 H 0.5994 0.89154 0.18542 0.0
C1162 C 0.72118 0.87419 0.14808 0.0
C1163 C 0.72025 0.86956 0.17667 0.0
C1164 C 0.7048 0.88546 0.13851 0.0
C1165 C 0.68717 0.89262 0.15733 0.0
C1166 C 0.686 0.88776 0.18575 0.0
C1167 C 0.70233 0.87644 0.19531 0.0
C1168 C 0.66979 0.90487 0.1473 0.0
C1169 C 0.64286 0.89327 0.1482 0.0
C1170 C 0.67943 0.92734 0.13609 0.0
C1171 C 0.70765 0.94152 0.13593 0.0
C1172 C 0.72442 0.95091 0.16251 0.0
C1173 C 0.75102 0.96409 0.16215 0.0
C1174 C 0.76106 0.96818 0.13537 0.0
C1175 C 0.7445 0.95916 0.10892 0.0
C1176 C 0.71789 0.94594 0.10915 0.0
C1177 C 0.583 0.95543 0.12581 0.0
C1178 C 0.58384 0.96019 0.09728 0.0
C1179 C 0.59976 0.94461 0.13545 0.0
C1180 C 0.61763 0.93788 0.11672 0.0
C1181 C 0.61881 0.94294 0.08841 0.0
C1182 C 0.60213 0.95388 0.07878 0.0
C1183 C 0.63506 0.92565 0.12666 0.0
C1184 C 0.66198 0.93725 0.12575 0.0
C1185 C 0.62542 0.90314 0.13783 0.0
C1186 C 0.5972 0.88889 0.1379 0.0
C1187 C 0.58048 0.87947 0.11127 0.0
C1188 C 0.55387 0.86627 0.11155 0.0
C1189 C 0.54376 0.86219 0.1383 0.0
C1190 C 0.56026 0.87124 0.1648 0.0
C1191 C 0.58689 0.88448 0.16465 0.0
H1192 H 0.52315 0.85197 0.13848 0.0
H1193 H 0.78166 0.97839 0.13514 0.0
H1194 H 0.21279 0.75207 0.1801 0.0
H1195 H 0.18054 0.72936 0.13652 0.0
H1196 H 0.21495 0.67049 0.10992 0.0
H1197 H 0.24728 0.69298 0.15333 0.0
H1198 H 0.19169 0.68151 0.06007 0.0
H1199 H 0.17278 0.65953 0.15572 0.0
H1200 H 0.16899 0.67172 0.2101 0.0
H1201 H 0.1133 0.70562 0.19523 0.0
H1202 H 0.11714 0.694 0.14077 0.0
H1203 H 0.09599 0.55241 0.02135 0.0
H1204 H 0.13176 0.59516 0.03144 0.0
H1205 H 0.07755 0.63446 0.05541 0.0
H1206 H 0.04201 0.59183 0.04586 0.0
H1207 H 0.10921 0.64172 0.1019 0.0
H1208 H 0.11853 0.65149 0.00458 0.0
H1209 H 0.12399 0.64376 0.9506 0.0
H1210 H 0.19619 0.63454 0.96626 0.0
H1211 H 0.191 0.64168 0.02028 0.0
C1212 C 0.21397 0.73471 0.16454 0.0
C1213 C 0.23215 0.72392 0.17055 0.0
C1214 C 0.19563 0.72188 0.13955 0.0
C1215 C 0.1953 0.69817 0.12026 0.0
C1216 C 0.21498 0.68882 0.12454 0.0
C1217 C 0.23322 0.70153 0.1496 0.0
C1218 C 0.17186 0.68043 0.09989 0.0
C1219 C 0.17354 0.67266 0.06893 0.0
C1220 C 0.14815 0.66966 0.11165 0.0
C1221 C 0.14549 0.67622 0.14429 0.0
C1222 C 0.15988 0.66976 0.1641 0.0
C1223 C 0.15771 0.67654 0.19491 0.0
C1224 C 0.14097 0.68951 0.20613 0.0
C1225 C 0.12631 0.69563 0.18652 0.0
C1226 C 0.12848 0.68897 0.15569 0.0
C1227 C 0.09168 0.57023 0.02736 0.0
C1228 C 0.06652 0.56908 0.03325 0.0
C1229 C 0.11207 0.59466 0.03301 0.0
C1230 C 0.10733 0.61801 0.04448 0.0
C1231 C 0.08163 0.61671 0.04668 0.0
C1232 C 0.06139 0.59239 0.04139 0.0
C1233 C 0.12876 0.64206 0.06156 0.0
C1234 C 0.1269 0.65088 0.09237 0.0
C1235 C 0.15211 0.65365 0.04942 0.0
C1236 C 0.15432 0.64709 0.01661 0.0
C1237 C 0.13538 0.64737 0.99652 0.0
C1238 C 0.13849 0.64324 0.9659 0.0
C1239 C 0.16055 0.63896 0.95511 0.0
C1240 C 0.17923 0.63811 0.97474 0.0
C1241 C 0.17619 0.64217 0.00536 0.0
H1242 H 0.1632 0.6363 0.93153 0.0
H1243 H 0.13932 0.69475 0.22999 0.0
H1244 H 0.27236 0.80325 0.83055 0.0
H1245 H 0.2979 0.83985 0.87292 0.0
H1246 H 0.3564 0.80548 0.87114 0.0
H1247 H 0.33114 0.76901 0.82896 0.0
H1248 H 0.3521 0.83414 0.92954 0.0
H1249 H 0.36058 0.84225 0.82659 0.0
H1250 H 0.34013 0.83966 0.7779 0.0
H1251 H 0.31208 0.90031 0.82108 0.0
H1252 H 0.33186 0.90278 0.87017 0.0
H1253 H 0.47635 0.9416 0.91369 0.0
H1254 H 0.43409 0.90756 0.89509 0.0
H1255 H 0.4052 0.93007 0.98012 0.0
H1256 H 0.44782 0.96499 0.99893 0.0
H1257 H 0.38689 0.9113 0.88792 0.0
H1258 H 0.35921 0.86725 0.98788 0.0
H1259 H 0.37925 0.86328 0.0332 0.0
H1260 H 0.45018 0.87115 0.99212 0.0
H1261 H 0.43033 0.87449 0.94629 0.0
C1262 C 0.29023 0.80305 0.83987 0.0
C1263 C 0.30009 0.78364 0.82609 0.0
C1264 C 0.30473 0.82392 0.86412 0.0
C1265 C 0.32913 0.82546 0.87486 0.0
C1266 C 0.3376 0.80462 0.86318 0.0
C1267 C 0.32328 0.78394 0.83886 0.0
C1268 C 0.34814 0.85059 0.89338 0.0
C1269 C 0.35936 0.85131 0.92092 0.0
C1270 C 0.35782 0.87271 0.88171 0.0
C1271 C 0.34741 0.87249 0.85205 0.0
C1272 C 0.34997 0.85496 0.82569 0.0
C1273 C 0.33838 0.8534 0.79807 0.0
C1274 C 0.3246 0.86963 0.79645 0.0
C1275 C 0.3226 0.88762 0.82242 0.0
C1276 C 0.33397 0.8891 0.85015 0.0
C1277 C 0.4611 0.93946 0.92857 0.0
C1278 C 0.46559 0.95578 0.95802 0.0
C1279 C 0.43687 0.92001 0.9178 0.0
C1280 C 0.41652 0.91629 0.93619 0.0
C1281 C 0.42074 0.93255 0.96564 0.0
C1282 C 0.44512 0.95228 0.97644 0.0
C1283 C 0.3913 0.89482 0.92405 0.0
C1284 C 0.37898 0.89471 0.89743 0.0
C1285 C 0.38101 0.8731 0.93633 0.0
C1286 C 0.39341 0.8716 0.96389 0.0
C1287 C 0.3791 0.86817 0.98856 0.0
C1288 C 0.3904 0.86595 0.0143 0.0
C1289 C 0.41602 0.86707 0.0156 0.0
C1290 C 0.43037 0.87039 0.99113 0.0
C1291 C 0.4191 0.87247 0.96527 0.0
H1292 H 0.42474 0.86536 0.03555 0.0
H1293 H 0.31572 0.86846 0.77502 0.0
H1294 H 0.2054 0.27091 0.83371 0.0
H1295 H 0.18041 0.29699 0.85895 0.0
H1296 H 0.17415 0.32144 0.77894 0.0
H1297 H 0.20034 0.29677 0.75458 0.0
H1298 H 0.18279 0.36128 0.82033 0.0
H1299 H 0.12102 0.27392 0.80908 0.0
H1300 H 0.10474 0.22857 0.81421 0.0
H1301 H 0.11799 0.2583 0.91011 0.0
H1302 H 0.13464 0.30384 0.90553 0.0
H1303 H 0.08551 0.41544 0.86052 0.0
H1304 H 0.10834 0.38663 0.83759 0.0
H1305 H 0.12356 0.3758 0.92378 0.0
H1306 H 0.09986 0.40396 0.94682 0.0
H1307 H 0.11086 0.32971 0.88138 0.0
H1308 H 0.17085 0.4181 0.89007 0.0
H1309 H 0.1845 0.46251 0.88225 0.0
H1310 H 0.17134 0.42889 0.78686 0.0
H1311 H 0.15728 0.38428 0.79411 0.0
C1312 C 0.19835 0.28154 0.82138 0.0
C1313 C 0.20486 0.28152 0.79198 0.0
C1314 C 0.18389 0.29651 0.83585 0.0
C1315 C 0.17479 0.3113 0.82103 0.0
C1316 C 0.18082 0.3106 0.79133 0.0
C1317 C 0.19575 0.29621 0.7772 0.0
C1318 C 0.15997 0.32826 0.8364 0.0
C1319 C 0.16682 0.35401 0.83325 0.0
C1320 C 0.13934 0.3196 0.85412 0.0
C1321 C 0.12933 0.29227 0.85694 0.0
C1322 C 0.12063 0.27078 0.83125 0.0
C1323 C 0.11131 0.24504 0.83406 0.0
C1324 C 0.1104 0.24056 0.86247 0.0
C1325 C 0.11874 0.2618 0.88812 0.0
C1326 C 0.1281 0.28758 0.88543 0.0
C1327 C 0.09335 0.40674 0.87472 0.0
C1328 C 0.09064 0.41233 0.90576 0.0
C1329 C 0.10679 0.39038 0.86151 0.0
C1330 C 0.11825 0.37914 0.87883 0.0
C1331 C 0.11516 0.38421 0.90972 0.0
C1332 C 0.10171 0.40062 0.923 0.0
C1333 C 0.1335 0.36234 0.86479 0.0
C1334 C 0.12681 0.33678 0.86835 0.0
C1335 C 0.15398 0.37098 0.84698 0.0
C1336 C 0.16281 0.39784 0.84265 0.0
C1337 C 0.17073 0.42018 0.86744 0.0
C1338 C 0.17856 0.44539 0.8631 0.0
C1339 C 0.17873 0.44851 0.83408 0.0
C1340 C 0.17117 0.42644 0.80932 0.0
C1341 C 0.1633 0.4012 0.81353 0.0
H1342 H 0.18477 0.46802 0.83074 0.0
H1343 H 0.10319 0.22062 0.8646 0.0
H1344 H 0.70574 0.20574 0.80806 0.0
H1345 H 0.68825 0.1846 0.84723 0.0
H1346 H 0.75412 0.16084 0.85026 0.0
H1347 H 0.77117 0.1811 0.80973 0.0
H1348 H 0.71288 0.12293 0.85512 0.0
H1349 H 0.74845 0.21274 0.90655 0.0
H1350 H 0.75862 0.2604 0.91569 0.0
H1351 H 0.67797 0.2485 0.92152 0.0
H1352 H 0.66719 0.2007 0.91181 0.0
H1353 H 0.64333 0.07527 0.97288 0.0
H1354 H 0.68055 0.10654 0.95639 0.0
H1355 H 0.62807 0.12537 0.90515 0.0
H1356 H 0.59103 0.0937 0.92062 0.0
H1357 H 0.67619 0.17019 0.93795 0.0
H1358 H 0.64375 0.07894 0.87062 0.0
H1359 H 0.63485 0.03153 0.86219 0.0
H1360 H 0.7145 0.0486 0.89056 0.0
H1361 H 0.72372 0.09621 0.89976 0.0
C1362 C 0.7164 0.19584 0.81692 0.0
C1363 C 0.73979 0.19506 0.806 0.0
C1364 C 0.70658 0.18404 0.83957 0.0
C1365 C 0.72035 0.17195 0.85245 0.0
C1366 C 0.74336 0.17038 0.84091 0.0
C1367 C 0.75297 0.18178 0.81769 0.0
C1368 C 0.70983 0.16019 0.87716 0.0
C1369 C 0.7056 0.13354 0.87375 0.0
C1370 C 0.70062 0.1741 0.9018 0.0
C1371 C 0.707 0.20301 0.90837 0.0
C1372 C 0.73284 0.22023 0.90965 0.0
C1373 C 0.73872 0.2473 0.91492 0.0
C1374 C 0.71895 0.25746 0.91914 0.0
C1375 C 0.69327 0.24059 0.91823 0.0
C1376 C 0.68727 0.2135 0.91291 0.0
C1377 C 0.63984 0.08654 0.9586 0.0
C1378 C 0.61445 0.08195 0.94761 0.0
C1379 C 0.66104 0.10436 0.94933 0.0
C1380 C 0.65691 0.11813 0.92961 0.0
C1381 C 0.63154 0.11498 0.92052 0.0
C1382 C 0.61045 0.09678 0.92916 0.0
C1383 C 0.67832 0.13294 0.91475 0.0
C1384 C 0.68455 0.16009 0.92003 0.0
C1385 C 0.68985 0.11971 0.89227 0.0
C1386 C 0.68433 0.09111 0.88627 0.0
C1387 C 0.6593 0.07259 0.87532 0.0
C1388 C 0.6542 0.04569 0.87038 0.0
C1389 C 0.67408 0.03706 0.87593 0.0
C1390 C 0.69911 0.05532 0.88636 0.0
C1391 C 0.70427 0.08226 0.89147 0.0
H1392 H 0.6701 0.01623 0.87208 0.0
H1393 H 0.72352 0.27841 0.92313 0.0
H1394 H 0.90656 0.72067 0.85496 0.0
H1395 H 0.92597 0.6912 0.86728 0.0
H1396 H 0.85026 0.63825 0.87755 0.0
H1397 H 0.83071 0.66797 0.86583 0.0
H1398 H 0.88552 0.64447 0.92234 0.0
H1399 H 0.8802 0.6235 0.81539 0.0
H1400 H 0.88644 0.63229 0.76582 0.0
H1401 H 0.96905 0.66439 0.78779 0.0
H1402 H 0.96329 0.65612 0.83768 0.0
H1403 H 0.92872 0.53888 0.92453 0.0
H1404 H 0.90566 0.56491 0.91033 0.0
H1405 H 0.97855 0.62229 0.89955 0.0
H1406 H 1.00161 0.59626 0.91324 0.0
H1407 H 0.9424 0.61159 0.85385 0.0
H1408 H 0.94737 0.6338 0.96157 0.0
H1409 H 0.94094 0.62454 0.01091 0.0
H1410 H 0.85857 0.58948 0.9871 0.0
H1411 H 0.86455 0.59818 0.93741 0.0
C1412 C 0.894 0.70287 0.86006 0.0
C1413 C 0.867 0.69678 0.85933 0.0
C1414 C 0.90514 0.68587 0.86686 0.0
C1415 C 0.88961 0.66226 0.87308 0.0
C1416 C 0.8627 0.65625 0.87276 0.0
C1417 C 0.85151 0.67321 0.8658 0.0
C1418 C 0.90154 0.64396 0.87991 0.0
C1419 C 0.89762 0.63696 0.90712 0.0
C1420 C 0.91773 0.63439 0.86038 0.0
C1421 C 0.92129 0.63942 0.8304 0.0
C1422 C 0.89969 0.63263 0.80976 0.0
C1423 C 0.90314 0.63748 0.78158 0.0
C1424 C 0.92812 0.64895 0.77369 0.0
C1425 C 0.94971 0.65554 0.79395 0.0
C1426 C 0.94636 0.65075 0.82217 0.0
C1427 C 0.93983 0.55693 0.9189 0.0
C1428 C 0.96709 0.56551 0.92026 0.0
C1429 C 0.92661 0.57193 0.911 0.0
C1430 C 0.94033 0.59579 0.90413 0.0
C1431 C 0.96747 0.60405 0.90482 0.0
C1432 C 0.98067 0.5892 0.91291 0.0
C1433 C 0.92661 0.61233 0.8964 0.0
C1434 C 0.93019 0.61899 0.869 0.0
C1435 C 0.91009 0.62152 0.91573 0.0
C1436 C 0.90643 0.61637 0.94563 0.0
C1437 C 0.9279 0.62391 0.96675 0.0
C1438 C 0.92434 0.6188 0.9948 0.0
C1439 C 0.89937 0.60636 0.0021 0.0
C1440 C 0.87791 0.59907 0.98139 0.0
C1441 C 0.88137 0.6041 0.95329 0.0
H1442 H 0.89666 0.60243 0.02384 0.0
H1443 H 0.93075 0.65268 0.75186 0.0
H1444 H 0.20549 0.3461 0.16019 0.0
H1445 H 0.18596 0.37641 0.15029 0.0
H1446 H 0.11183 0.3126 0.12502 0.0
H1447 H 0.1312 0.28222 0.13483 0.0
H1448 H 0.12113 0.34255 0.0864 0.0
H1449 H 0.12969 0.35798 0.1938 0.0
H1450 H 0.15478 0.36956 0.2426 0.0
H1451 H 0.19711 0.44698 0.23359 0.0
H1452 H 0.17353 0.43536 0.18377 0.0
H1453 H 0.03552 0.40999 0.09074 0.0
H1454 H 0.05903 0.38352 0.10187 0.0
H1455 H 0.12923 0.45239 0.12663 0.0
H1456 H 0.10573 0.47917 0.11533 0.0
H1457 H 0.12466 0.42213 0.16506 0.0
H1458 H 0.12043 0.40803 0.05906 0.0
H1459 H 0.09985 0.39755 0.00783 0.0
H1460 H 0.05226 0.32046 0.0139 0.0
H1461 H 0.07232 0.3306 0.06535 0.0
C1462 C 0.18498 0.33852 0.15271 0.0
C1463 C 0.16993 0.31165 0.14844 0.0
C1464 C 0.17384 0.3559 0.14699 0.0
C1465 C 0.1473 0.34693 0.13721 0.0
C1466 C 0.13234 0.32006 0.1325 0.0
C1467 C 0.14348 0.30266 0.13807 0.0
C1468 C 0.13495 0.36539 0.132 0.0
C1469 C 0.12167 0.35976 0.10377 0.0
C1470 C 0.13637 0.38846 0.15431 0.0
C1471 C 0.15002 0.39565 0.18474 0.0
C1472 C 0.14457 0.37737 0.20198 0.0
C1473 C 0.15858 0.38392 0.22982 0.0
C1474 C 0.17741 0.40902 0.24127 0.0
C1475 C 0.18249 0.42754 0.22471 0.0
C1476 C 0.16895 0.42091 0.19654 0.0
C1477 C 0.05601 0.41958 0.09832 0.0
C1478 C 0.06876 0.44674 0.10167 0.0
C1479 C 0.06945 0.40436 0.10479 0.0
C1480 C 0.09607 0.41578 0.11462 0.0
C1481 C 0.10873 0.44305 0.119 0.0
C1482 C 0.09524 0.45837 0.11256 0.0
C1483 C 0.11056 0.399 0.11962 0.0
C1484 C 0.12421 0.40493 0.14774 0.0
C1485 C 0.10985 0.37639 0.09714 0.0
C1486 C 0.09772 0.37017 0.06618 0.0
C1487 C 0.10543 0.38891 0.04957 0.0
C1488 C 0.09389 0.38302 0.02047 0.0
C1489 C 0.07472 0.35838 0.00765 0.0
C1490 C 0.06709 0.33955 0.02388 0.0
C1491 C 0.07857 0.34535 0.053 0.0
H1492 H 0.06581 0.35385 0.98512 0.0
H1493 H 0.18804 0.4141 0.26296 0.0
H1494 H 0.18847 0.67342 0.76071 0.0
H1495 H 0.163 0.64483 0.79025 0.0
H1496 H 0.23305 0.65673 0.84238 0.0
H1497 H 0.25874 0.68462 0.81229 0.0
H1498 H 0.20235 0.60757 0.83165 0.0
H1499 H 0.19243 0.68971 0.86995 0.0
H1500 H 0.18321 0.7291 0.86837 0.0
H1501 H 0.10492 0.68052 0.83154 0.0
H1502 H 0.11377 0.64079 0.8325 0.0
H1503 H 0.12828 0.5592 0.94772 0.0
H1504 H 0.15938 0.58645 0.92044 0.0
H1505 H 0.09731 0.57243 0.85437 0.0
H1506 H 0.06644 0.54472 0.88083 0.0
H1507 H 0.12715 0.62506 0.87707 0.0
H1508 H 0.14024 0.5422 0.83824 0.0
H1509 H 0.15128 0.50476 0.84395 0.0
H1510 H 0.2262 0.55796 0.88774 0.0
H1511 H 0.21548 0.59573 0.88261 0.0
C1512 C 0.19847 0.66988 0.77839 0.0
C1513 C 0.22559 0.68143 0.7843 0.0
C1514 C 0.18388 0.65363 0.79535 0.0
C1515 C 0.19608 0.64906 0.81893 0.0
C1516 C 0.22322 0.66004 0.82438 0.0
C1517 C 0.23785 0.67604 0.80718 0.0
C1518 C 0.18043 0.6331 0.8381 0.0
C1519 C 0.18612 0.61162 0.84191 0.0
C1520 C 0.1593 0.6384 0.8516 0.0
C1521 C 0.15384 0.66225 0.85105 0.0
C1522 C 0.1733 0.68741 0.86131 0.0
C1523 C 0.16813 0.7098 0.86055 0.0
C1524 C 0.14351 0.70731 0.8498 0.0
C1525 C 0.12399 0.68242 0.83984 0.0
C1526 C 0.12906 0.65996 0.84051 0.0
C1527 C 0.12137 0.56187 0.92729 0.0
C1528 C 0.095 0.54988 0.91634 0.0
C1529 C 0.13911 0.57735 0.91173 0.0
C1530 C 0.13056 0.5815 0.8855 0.0
C1531 C 0.10425 0.5695 0.87463 0.0
C1532 C 0.08667 0.55365 0.88974 0.0
C1533 C 0.14858 0.59915 0.86974 0.0
C1534 C 0.14343 0.6211 0.8668 0.0
C1535 C 0.17044 0.59455 0.85762 0.0
C1536 C 0.17696 0.57179 0.86031 0.0
C1537 C 0.159 0.54591 0.84927 0.0
C1538 C 0.16521 0.52463 0.85236 0.0
C1539 C 0.18939 0.52899 0.8663 0.0
C1540 C 0.20746 0.55462 0.877 0.0
C1541 C 0.20134 0.57596 0.87398 0.0
H1542 H 0.19414 0.51252 0.86878 0.0
H1543 H 0.13955 0.72467 0.84923 0.0
H1544 H 0.34247 0.15399 0.81459 0.0
H1545 H 0.37123 0.13358 0.82837 0.0
H1546 H 0.34168 0.13762 0.91484 0.0
H1547 H 0.31222 0.15755 0.90072 0.0
H1548 H 0.39495 0.15364 0.91958 0.0
H1549 H 0.32337 0.07927 0.86135 0.0
H1550 H 0.29166 0.05433 0.81693 0.0
H1551 H 0.35369 0.05337 0.76164 0.0
H1552 H 0.38581 0.07861 0.80569 0.0
H1553 H 0.45057 0.07019 0.96293 0.0
H1554 H 0.4204 0.08943 0.94959 0.0
H1555 H 0.44575 0.08238 0.86088 0.0
H1556 H 0.47632 0.06343 0.87415 0.0
H1557 H 0.39408 0.06761 0.85758 0.0
H1558 H 0.46557 0.14202 0.91358 0.0
H1559 H 0.49851 0.16886 0.95641 0.0
H1560 H 0.43837 0.17149 0.0142 0.0
H1561 H 0.40504 0.14435 0.97176 0.0
C1562 C 0.34158 0.15009 0.83624 0.0
C1563 C 0.3246 0.15722 0.85618 0.0
C1564 C 0.35828 0.13854 0.84427 0.0
C1565 C 0.35854 0.13373 0.87259 0.0
C1566 C 0.3419 0.14109 0.89283 0.0
C1567 C 0.32506 0.15257 0.8847 0.0
C1568 C 0.37627 0.12116 0.88096 0.0
C1569 C 0.39444 0.13462 0.90631 0.0
C1570 C 0.37628 0.0967 0.86319 0.0
C1571 C 0.357 0.08101 0.83678 0.0
C1572 C 0.33026 0.07385 0.83969 0.0
C1573 C 0.31221 0.05966 0.81458 0.0
C1574 C 0.32066 0.05233 0.78646 0.0
C1575 C 0.34718 0.05908 0.78343 0.0
C1576 C 0.36531 0.0733 0.80847 0.0
C1577 C 0.45003 0.07295 0.94065 0.0
C1578 C 0.46619 0.06531 0.91974 0.0
C1579 C 0.43262 0.08394 0.93301 0.0
C1580 C 0.43089 0.08771 0.90429 0.0
C1581 C 0.44662 0.07969 0.88318 0.0
C1582 C 0.46408 0.06873 0.89081 0.0
C1583 C 0.41273 0.10003 0.89632 0.0
C1584 C 0.39451 0.08656 0.87099 0.0
C1585 C 0.41285 0.1246 0.91396 0.0
C1586 C 0.43281 0.14091 0.93956 0.0
C1587 C 0.45936 0.14813 0.93548 0.0
C1588 C 0.47811 0.16344 0.95967 0.0
C1589 C 0.47054 0.17181 0.98803 0.0
C1590 C 0.4442 0.16495 0.99223 0.0
C1591 C 0.42537 0.14963 0.9681 0.0
H1592 H 0.48508 0.18367 0.00673 0.0
H1593 H 0.30665 0.04138 0.76704 0.0
H1594 H 0.84306 0.27347 0.83723 0.0
H1595 H 0.86345 0.30336 0.88616 0.0
H1596 H 0.80175 0.33397 0.89313 0.0
H1597 H 0.78153 0.30437 0.84424 0.0
H1598 H 0.84683 0.37192 0.89889 0.0
H1599 H 0.81121 0.30365 0.94451 0.0
H1600 H 0.79781 0.25903 0.95144 0.0
H1601 H 0.8776 0.26678 0.96123 0.0
H1602 H 0.89153 0.31129 0.95383 0.0
H1603 H 0.93922 0.47025 0.00645 0.0
H1604 H 0.89742 0.43328 0.99692 0.0
H1605 H 0.93545 0.38027 0.95551 0.0
H1606 H 0.97711 0.41696 0.96572 0.0
H1607 H 0.89028 0.35513 0.98133 0.0
H1608 H 0.91936 0.41329 0.9131 0.0
H1609 H 0.93351 0.4573 0.90407 0.0
H1610 H 0.86435 0.46725 0.93729 0.0
H1611 H 0.84988 0.42328 0.94662 0.0
C1612 C 0.83363 0.28625 0.84945 0.0
C1613 C 0.8111 0.28713 0.83658 0.0
C1614 C 0.84513 0.30313 0.87755 0.0
C1615 C 0.83405 0.32086 0.89334 0.0
C1616 C 0.81066 0.32052 0.88131 0.0
C1617 C 0.79929 0.3038 0.85321 0.0
C1618 C 0.84908 0.34238 0.91963 0.0
C1619 C 0.85554 0.36825 0.91753 0.0
C1620 C 0.86057 0.33764 0.94386 0.0
C1621 C 0.85243 0.31088 0.94853 0.0
C1622 C 0.82593 0.29581 0.94795 0.0
C1623 C 0.81823 0.27052 0.95198 0.0
C1624 C 0.83685 0.26008 0.95677 0.0
C1625 C 0.8632 0.27492 0.95756 0.0
C1626 C 0.87102 0.30022 0.9535 0.0
C1627 C 0.93873 0.45047 0.99677 0.0
C1628 C 0.96114 0.44624 0.98679 0.0
C1629 C 0.91491 0.42942 0.99126 0.0
C1630 C 0.91338 0.40413 0.97527 0.0
C1631 C 0.93624 0.39959 0.96803 0.0
C1632 C 0.95995 0.42057 0.97353 0.0
C1633 C 0.88852 0.38415 0.95961 0.0
C1634 C 0.88041 0.35868 0.96352 0.0
C1635 C 0.87531 0.3891 0.93697 0.0
C1636 C 0.88369 0.41522 0.9308 0.0
C1637 C 0.90723 0.42493 0.91853 0.0
C1638 C 0.91532 0.44985 0.91339 0.0
C1639 C 0.89991 0.46512 0.92023 0.0
C1640 C 0.8763 0.45543 0.93207 0.0
C1641 C 0.86813 0.43051 0.93726 0.0
H1642 H 0.90621 0.48443 0.91628 0.0
H1643 H 0.83085 0.24049 0.95988 0.0
H1644 H 0.7377 0.80362 0.84291 0.0
H1645 H 0.71225 0.83005 0.86604 0.0
H1646 H 0.70812 0.85282 0.78448 0.0
H1647 H 0.73356 0.82684 0.7615 0.0
H1648 H 0.71559 0.89401 0.82947 0.0
H1649 H 0.65598 0.80613 0.80349 0.0
H1650 H 0.6382 0.75887 0.80093 0.0
H1651 H 0.63812 0.77736 0.89673 0.0
H1652 H 0.65623 0.82486 0.89992 0.0
H1653 H 0.61002 0.93867 0.85567 0.0
H1654 H 0.63655 0.91291 0.83571 0.0
H1655 H 0.64489 0.89902 0.9219 0.0
H1656 H 0.61869 0.9252 0.94232 0.0
H1657 H 0.63594 0.85398 0.87597 0.0
H1658 H 0.69388 0.94509 0.89751 0.0
H1659 H 0.70651 0.99065 0.89358 0.0
H1660 H 0.70512 0.96353 0.798 0.0
H1661 H 0.69219 0.91778 0.80132 0.0
C1662 C 0.73158 0.81443 0.82998 0.0
C1663 C 0.73782 0.81293 0.80023 0.0
C1664 C 0.71681 0.82946 0.84318 0.0
C1665 C 0.70786 0.84344 0.82705 0.0
C1666 C 0.71466 0.84241 0.79763 0.0
C1667 C 0.72925 0.82736 0.78441 0.0
C1668 C 0.69115 0.85876 0.84038 0.0
C1669 C 0.6981 0.88509 0.83943 0.0
C1670 C 0.6682 0.84749 0.85355 0.0
C1671 C 0.65774 0.81904 0.85197 0.0
C1672 C 0.65243 0.80014 0.82405 0.0
C1673 C 0.64224 0.77332 0.82247 0.0
C1674 C 0.63705 0.76514 0.84864 0.0
C1675 C 0.64214 0.78376 0.87648 0.0
C1676 C 0.65237 0.81064 0.87819 0.0
C1677 C 0.61763 0.93043 0.87064 0.0
C1678 C 0.61216 0.93447 0.90089 0.0
C1679 C 0.63283 0.91552 0.85905 0.0
C1680 C 0.6432 0.90416 0.87728 0.0
C1681 C 0.63724 0.9075 0.90724 0.0
C1682 C 0.62207 0.92248 0.9189 0.0
C1683 C 0.66051 0.88921 0.86524 0.0
C1684 C 0.65362 0.86294 0.86634 0.0
C1685 C 0.68317 0.90035 0.85151 0.0
C1686 C 0.69183 0.92797 0.84965 0.0
C1687 C 0.69618 0.94883 0.87565 0.0
C1688 C 0.7034 0.9747 0.87353 0.0
C1689 C 0.70657 0.97998 0.84556 0.0
C1690 C 0.70265 0.95942 0.81966 0.0
C1691 C 0.6954 0.93352 0.82165 0.0
H1692 H 0.71209 1e-05 0.84397 0.0
H1693 H 0.62895 0.74436 0.84727 0.0
H1694 H 0.81407 0.72545 0.17745 0.0
H1695 H 0.83917 0.69835 0.15499 0.0
H1696 H 0.86876 0.70297 0.24319 0.0
H1697 H 0.84322 0.72932 0.26572 0.0
H1698 H 0.90769 0.71123 0.20097 0.0
H1699 H 0.82403 0.65051 0.20986 0.0
H1700 H 0.77632 0.63007 0.20247 0.0
H1701 H 0.77895 0.60843 0.10707 0.0
H1702 H 0.82665 0.62968 0.1138 0.0
H1703 H 0.96243 0.61218 0.16435 0.0
H1704 H 0.93815 0.63977 0.18574 0.0
H1705 H 0.8941 0.61793 0.10009 0.0
H1706 H 0.91726 0.58891 0.07883 0.0
H1707 H 0.86235 0.61894 0.14097 0.0
H1708 H 0.9456 0.68092 0.13143 0.0
H1709 H 0.99335 0.70172 0.13843 0.0
H1710 H 0.99153 0.72058 0.23403 0.0
H1711 H 0.94376 0.69959 0.2276 0.0
C1712 C 0.82619 0.72101 0.19208 0.0
C1713 C 0.82668 0.72983 0.22346 0.0
C1714 C 0.84043 0.70532 0.17918 0.0
C1715 C 0.85593 0.69844 0.19731 0.0
C1716 C 0.85708 0.70795 0.22862 0.0
C1717 C 0.84242 0.7231 0.2415 0.0
C1718 C 0.87048 0.68093 0.1838 0.0
C1719 C 0.89773 0.69098 0.18807 0.0
C1720 C 0.85769 0.65456 0.16646 0.0
C1721 C 0.82894 0.64212 0.16232 0.0
C1722 C 0.81443 0.64184 0.18726 0.0
C1723 C 0.78737 0.63008 0.18319 0.0
C1724 C 0.77458 0.61818 0.15429 0.0
C1725 C 0.78885 0.61794 0.12942 0.0
C1726 C 0.8159 0.62988 0.13335 0.0
C1727 C 0.94742 0.61285 0.14991 0.0
C1728 C 0.94208 0.59795 0.11958 0.0
C1729 C 0.93368 0.62914 0.16223 0.0
C1730 C 0.91435 0.63156 0.14462 0.0
C1731 C 0.90889 0.6167 0.11438 0.0
C1732 C 0.9225 0.60022 0.10206 0.0
C1733 C 0.89973 0.64928 0.15777 0.0
C1734 C 0.8724 0.63925 0.15361 0.0
C1735 C 0.91245 0.67575 0.17509 0.0
C1736 C 0.94114 0.6885 0.17903 0.0
C1737 C 0.9554 0.68937 0.15394 0.0
C1738 C 0.98246 0.7012 0.15781 0.0
C1739 C 0.99547 0.71241 0.18666 0.0
C1740 C 0.98143 0.71187 0.2117 0.0
C1741 C 0.95436 0.70003 0.20796 0.0
H1742 H 1.01642 0.72156 0.1896 0.0
H1743 H 0.75363 0.60901 0.15116 0.0
H1744 H 0.32156 0.77943 0.17456 0.0
H1745 H 0.34724 0.81199 0.14981 0.0
H1746 H 0.35823 0.87366 0.23139 0.0
H1747 H 0.33159 0.84109 0.25615 0.0
H1748 H 0.34773 0.88861 0.18484 0.0
H1749 H 0.407 0.84994 0.20818 0.0
H1750 H 0.42172 0.81373 0.20969 0.0
H1751 H 0.41401 0.78883 0.11343 0.0
H1752 H 0.39892 0.82469 0.11133 0.0
H1753 H 0.45308 0.98322 0.138 0.0
H1754 H 0.42572 0.95264 0.16435 0.0
H1755 H 0.4055 0.88997 0.08244 0.0
H1756 H 0.43277 0.92052 0.05574 0.0
H1757 H 0.42165 0.87671 0.13059 0.0
H1758 H 0.36194 0.91574 0.10802 0.0
H1759 H 0.34787 0.9525 0.10728 0.0
H1760 H 0.35781 0.9777 0.20354 0.0
H1761 H 0.37231 0.94129 0.20485 0.0
C1762 C 0.32953 0.7999 0.18734 0.0
C1763 C 0.32476 0.80773 0.21738 0.0
C1764 C 0.34429 0.81848 0.17317 0.0
C1765 C 0.35507 0.84517 0.18893 0.0
C1766 C 0.35016 0.85312 0.21888 0.0
C1767 C 0.33503 0.83453 0.233 0.0
C1768 C 0.37115 0.86471 0.17386 0.0
C1769 C 0.36416 0.88625 0.1734 0.0
C1770 C 0.39227 0.86131 0.15843 0.0
C1771 C 0.40163 0.83989 0.15962 0.0
C1772 C 0.4083 0.83665 0.18733 0.0
C1773 C 0.41672 0.8162 0.18829 0.0
C1774 C 0.41874 0.79896 0.16167 0.0
C1775 C 0.41242 0.80219 0.13403 0.0
C1776 C 0.40396 0.82259 0.13294 0.0
C1777 C 0.44263 0.96298 0.12551 0.0
C1778 C 0.44507 0.95417 0.09483 0.0
C1779 C 0.42697 0.94559 0.14058 0.0
C1780 C 0.41355 0.91915 0.12521 0.0
C1781 C 0.41571 0.91036 0.09453 0.0
C1782 C 0.43121 0.92779 0.07937 0.0
C1783 C 0.39809 0.9004 0.14144 0.0
C1784 C 0.40526 0.87906 0.14214 0.0
C1785 C 0.37732 0.90412 0.15725 0.0
C1786 C 0.36845 0.92594 0.15652 0.0
C1787 C 0.36133 0.92925 0.12902 0.0
C1788 C 0.35324 0.95 0.1285 0.0
C1789 C 0.35201 0.96747 0.15534 0.0
C1790 C 0.35881 0.96417 0.18277 0.0
C1791 C 0.36694 0.94347 0.18341 0.0
H1792 H 0.34575 0.98352 0.15489 0.0
H1793 H 0.42525 0.78312 0.16246 0.0
H1794 H 0.78046 0.2176 0.15481 0.0
H1795 H 0.75383 0.18138 0.11244 0.0
H1796 H 0.70493 0.14589 0.1746 0.0
H1797 H 0.73271 0.18076 0.21652 0.0
H1798 H 0.70559 0.10898 0.13202 0.0
H1799 H 0.69446 0.19342 0.13463 0.0
H1800 H 0.71047 0.23896 0.13021 0.0
H1801 H 0.73438 0.21362 0.04345 0.0
H1802 H 0.71845 0.1678 0.04729 0.0
H1803 H 0.57476 0.09294 0.06893 0.0
H1804 H 0.62026 0.12063 0.08512 0.0
H1805 H 0.6434 0.05642 0.03966 0.0
H1806 H 0.59755 0.02851 0.02371 0.0
H1807 H 0.66456 0.13848 0.0596 0.0
H1808 H 0.6935 0.05858 0.08776 0.0
H1809 H 0.67457 0.01554 0.09911 0.0
H1810 H 0.60978 0.03503 0.13267 0.0
H1811 H 0.62838 0.07815 0.1217 0.0
C1812 C 0.76446 0.20149 0.15917 0.0
C1813 C 0.75856 0.20157 0.18863 0.0
C1814 C 0.74908 0.181 0.13504 0.0
C1815 C 0.72691 0.1611 0.14013 0.0
C1816 C 0.72191 0.16082 0.16987 0.0
C1817 C 0.73772 0.18076 0.19388 0.0
C1818 C 0.70733 0.14187 0.11522 0.0
C1819 C 0.69694 0.11539 0.11583 0.0
C1820 C 0.69611 0.14991 0.09364 0.0
C1821 C 0.70562 0.17735 0.09142 0.0
C1822 C 0.70323 0.19761 0.11468 0.0
C1823 C 0.71227 0.22345 0.11228 0.0
C1824 C 0.72358 0.22926 0.08671 0.0
C1825 C 0.72571 0.20914 0.06332 0.0
C1826 C 0.71665 0.18322 0.06556 0.0
C1827 C 0.58965 0.08503 0.06178 0.0
C1828 C 0.5829 0.05888 0.04478 0.0
C1829 C 0.6156 0.10082 0.07091 0.0
C1830 C 0.63521 0.09056 0.06365 0.0
C1831 C 0.62856 0.06469 0.04552 0.0
C1832 C 0.60249 0.04887 0.0363 0.0
C1833 C 0.66193 0.10631 0.07808 0.0
C1834 C 0.67381 0.13191 0.07508 0.0
C1835 C 0.6741 0.09768 0.09807 0.0
C1836 C 0.66215 0.07137 0.1035 0.0
C1837 C 0.67513 0.05356 0.09738 0.0
C1838 C 0.66449 0.02919 0.10379 0.0
C1839 C 0.64097 0.02255 0.11655 0.0
C1840 C 0.62792 0.04014 0.12265 0.0
C1841 C 0.63847 0.06452 0.11629 0.0
H1842 H 0.63303 0.00391 0.12199 0.0
H1843 H 0.73061 0.24933 0.08499 0.0
H1844 H 0.6879 0.70398 0.77069 0.0
H1845 H 0.66019 0.67178 0.79521 0.0
H1846 H 0.72469 0.64943 0.81208 0.0
H1847 H 0.75237 0.68127 0.78758 0.0
H1848 H 0.68031 0.607 0.79574 0.0
H1849 H 0.71031 0.69345 0.86335 0.0
H1850 H 0.71639 0.74033 0.88194 0.0
H1851 H 0.63396 0.71973 0.88226 0.0
H1852 H 0.62729 0.6728 0.86234 0.0
H1853 H 0.63014 0.58917 0.94978 0.0
H1854 H 0.65515 0.61605 0.9183 0.0
H1855 H 0.60563 0.56093 0.83989 0.0
H1856 H 0.58109 0.53351 0.87117 0.0
H1857 H 0.64197 0.64165 0.88592 0.0
H1858 H 0.63909 0.56128 0.77846 0.0
H1859 H 0.63689 0.51531 0.76379 0.0
H1860 H 0.67239 0.52568 0.85091 0.0
H1861 H 0.6751 0.57178 0.86596 0.0
C1862 C 0.69604 0.69189 0.77919 0.0
C1863 C 0.72237 0.69532 0.77744 0.0
C1864 C 0.68022 0.6736 0.79328 0.0
C1865 C 0.6905 0.65847 0.80574 0.0
C1866 C 0.7164 0.66093 0.80263 0.0
C1867 C 0.73221 0.67924 0.78873 0.0
C1868 C 0.67494 0.64123 0.82367 0.0
C1869 C 0.67173 0.61451 0.81533 0.0
C1870 C 0.66428 0.65122 0.84961 0.0
C1871 C 0.66827 0.67957 0.8608 0.0
C1872 C 0.69343 0.69892 0.86679 0.0
C1873 C 0.69699 0.72553 0.87757 0.0
C1874 C 0.67557 0.73304 0.883 0.0
C1875 C 0.65054 0.71394 0.87769 0.0
C1876 C 0.64685 0.68733 0.86654 0.0
C1877 C 0.62474 0.58266 0.92579 0.0
C1878 C 0.60376 0.55919 0.9129 0.0
C1879 C 0.63897 0.59809 0.90784 0.0
C1880 C 0.6324 0.59043 0.8767 0.0
C1881 C 0.61138 0.567 0.86378 0.0
C1882 C 0.59733 0.55139 0.88169 0.0
C1883 C 0.64722 0.60736 0.85796 0.0
C1884 C 0.65027 0.63405 0.86613 0.0
C1885 C 0.65827 0.5975 0.83232 0.0
C1886 C 0.65702 0.56989 0.82341 0.0
C1887 C 0.6465 0.55376 0.79444 0.0
C1888 C 0.64516 0.52768 0.78607 0.0
C1889 C 0.65441 0.51755 0.80644 0.0
C1890 C 0.66513 0.53351 0.83519 0.0
C1891 C 0.66654 0.55961 0.84367 0.0
H1892 H 0.65333 0.49735 0.79992 0.0
H1893 H 0.67836 0.75364 0.8915 0.0
H1894 H 0.33945 0.62726 0.81418 0.0
H1895 H 0.35981 0.61006 0.8467 0.0
H1896 H 0.42249 0.68554 0.87566 0.0
H1897 H 0.40242 0.7026 0.8426 0.0
H1898 H 0.44128 0.64939 0.85858 0.0
H1899 H 0.37662 0.65978 0.9211 0.0
H1900 H 0.33341 0.656 0.9373 0.0
H1901 H 0.31151 0.57235 0.92 0.0
H1902 H 0.35416 0.57538 0.90234 0.0
H1903 H 0.50452 0.60929 0.95791 0.0
H1904 H 0.47927 0.63187 0.9411 0.0
H1905 H 0.41866 0.55727 0.89964 0.0
H1906 H 0.44323 0.53442 0.91753 0.0
H1907 H 0.3992 0.59474 0.9264 0.0
H1908 H 0.46304 0.5865 0.8582 0.0
H1909 H 0.50727 0.59149 0.84452 0.0
H1910 H 0.53192 0.67536 0.87943 0.0
H1911 H 0.48789 0.67082 0.89371 0.0
C1912 C 0.35732 0.64029 0.82792 0.0
C1913 C 0.3695 0.66618 0.82573 0.0
C1914 C 0.36889 0.63049 0.8466 0.0
C1915 C 0.39263 0.64654 0.86378 0.0
C1916 C 0.40422 0.67276 0.86253 0.0
C1917 C 0.39282 0.68247 0.8436 0.0
C1918 C 0.40669 0.63522 0.88042 0.0
C1919 C 0.43223 0.63811 0.87412 0.0
C1920 C 0.3947 0.61984 0.90009 0.0
C1921 C 0.36861 0.61779 0.90988 0.0
C1922 C 0.36246 0.64048 0.9201 0.0
C1923 C 0.33802 0.63847 0.9296 0.0
C1924 C 0.31971 0.61395 0.92964 0.0
C1925 C 0.32571 0.59134 0.91993 0.0
C1926 C 0.34999 0.59318 0.91002 0.0
C1927 C 0.48561 0.59761 0.94575 0.0
C1928 C 0.47606 0.56995 0.93884 0.0
C1929 C 0.47129 0.61059 0.93596 0.0
C1930 C 0.44735 0.59619 0.91869 0.0
C1931 C 0.43723 0.5687 0.91273 0.0
C1932 C 0.45149 0.55568 0.92262 0.0
C1933 C 0.4337 0.60969 0.90518 0.0
C1934 C 0.40825 0.6068 0.91163 0.0
C1935 C 0.44584 0.62553 0.88615 0.0
C1936 C 0.47225 0.6283 0.87729 0.0
C1937 C 0.47794 0.60599 0.86315 0.0
C1938 C 0.50296 0.60874 0.85526 0.0
C1939 C 0.52241 0.63372 0.86118 0.0
C1940 C 0.51685 0.65602 0.87491 0.0
C1941 C 0.49186 0.65337 0.88288 0.0
H1942 H 0.54177 0.63581 0.85506 0.0
H1943 H 0.30089 0.61248 0.93725 0.0
H1944 H 0.2997 0.29132 0.84438 0.0
H1945 H 0.33693 0.30837 0.88148 0.0
H1946 H 0.38835 0.32449 0.81303 0.0
H1947 H 0.35087 0.30648 0.77503 0.0
H1948 H 0.40654 0.30542 0.85932 0.0
H1949 H 0.3715 0.37139 0.84794 0.0
H1950 H 0.33619 0.3883 0.84641 0.0
H1951 H 0.32103 0.38181 0.93563 0.0
H1952 H 0.35605 0.36449 0.93749 0.0
H1953 H 0.51069 0.42274 0.9112 0.0
H1954 H 0.47558 0.38067 0.89111 0.0
H1955 H 0.43861 0.39259 0.97281 0.0
H1956 H 0.47285 0.43561 0.99201 0.0
H1957 H 0.40937 0.3893 0.92897 0.0
H1958 H 0.45378 0.33599 0.94525 0.0
H1959 H 0.48985 0.32028 0.94722 0.0
H1960 H 0.48897 0.3033 0.85138 0.0
H1961 H 0.45318 0.31931 0.84881 0.0
C1962 C 0.31889 0.29819 0.83699 0.0
C1963 C 0.32244 0.29795 0.80685 0.0
C1964 C 0.3401 0.30766 0.85822 0.0
C1965 C 0.36516 0.31757 0.84982 0.0
C1966 C 0.36899 0.3166 0.81966 0.0
C1967 C 0.34766 0.30679 0.79818 0.0
C1968 C 0.38683 0.33255 0.87317 0.0
C1969 C 0.40745 0.32383 0.87465 0.0
C1970 C 0.3871 0.35582 0.89376 0.0
C1971 C 0.36612 0.36633 0.89269 0.0
C1972 C 0.36047 0.37335 0.86711 0.0
C1973 C 0.34055 0.38304 0.86621 0.0
C1974 C 0.32631 0.38603 0.89087 0.0
C1975 C 0.33203 0.37941 0.91652 0.0
C1976 C 0.35191 0.36966 0.91751 0.0
C1977 C 0.49532 0.41617 0.9251 0.0
C1978 C 0.49415 0.43256 0.95297 0.0
C1979 C 0.47552 0.39182 0.91386 0.0
C1980 C 0.45454 0.38342 0.93056 0.0
C1981 C 0.4547 0.3987 0.95963 0.0
C1982 C 0.47416 0.4233 0.97053 0.0
C1983 C 0.43009 0.36292 0.91488 0.0
C1984 C 0.40857 0.37052 0.91461 0.0
C1985 C 0.4292 0.33873 0.89559 0.0
C1986 C 0.45075 0.32895 0.89687 0.0
C1987 C 0.46137 0.32908 0.92459 0.0
C1988 C 0.48177 0.32009 0.92581 0.0
C1989 C 0.49171 0.31081 0.89944 0.0
C1990 C 0.48123 0.31047 0.87179 0.0
C1991 C 0.46083 0.31945 0.87043 0.0
H1992 H 0.50751 0.30386 0.90044 0.0
H1993 H 0.31089 0.39355 0.89014 0.0
H1994 H 0.66874 0.27963 0.88863 0.0
H1995 H 0.65452 0.29864 0.93589 0.0
H1996 H 0.71078 0.37516 0.93779 0.0
H1997 H 0.72466 0.35649 0.89073 0.0
H1998 H 0.70386 0.37162 0.99379 0.0
H1999 H 0.64737 0.34801 0.89918 0.0
H2000 H 0.61798 0.31549 0.85568 0.0
H2001 H 0.56921 0.27655 0.91481 0.0
H2002 H 0.59848 0.30877 0.95861 0.0
H2003 H 0.66467 0.4753 0.99703 0.0
H2004 H 0.6802 0.43954 0.99586 0.0
H2005 H 0.60546 0.39294 0.01728 0.0
H2006 H 0.58973 0.42808 0.01678 0.0
H2007 H 0.61507 0.36777 0.96996 0.0
H2008 H 0.66358 0.41108 0.0618 0.0
H2009 H 0.69275 0.4449 0.10408 0.0
H2010 H 0.75727 0.45126 0.05125 0.0
H2011 H 0.72842 0.41747 0.0085 0.0
C2012 C 0.67834 0.30042 0.89948 0.0
C2013 C 0.69745 0.31667 0.88568 0.0
C2014 C 0.67047 0.31118 0.92674 0.0
C2015 C 0.68146 0.33838 0.94037 0.0
C2016 C 0.7021 0.3541 0.92788 0.0
C2017 C 0.70996 0.34339 0.90079 0.0
C2018 C 0.66886 0.35176 0.96378 0.0
C2019 C 0.68443 0.37094 0.98893 0.0
C2020 C 0.64292 0.3496 0.95835 0.0
C2021 C 0.62537 0.33035 0.93205 0.0
C2022 C 0.63047 0.33237 0.90284 0.0
C2023 C 0.61383 0.31404 0.87815 0.0
C2024 C 0.59182 0.29387 0.88247 0.0
C2025 C 0.58635 0.29207 0.91149 0.0
C2026 C 0.60298 0.31032 0.93624 0.0
C2027 C 0.6519 0.45769 0.00236 0.0
C2028 C 0.62613 0.4545 0.00747 0.0
C2029 C 0.66085 0.43738 0.00213 0.0
C2030 C 0.64414 0.4136 0.00706 0.0
C2031 C 0.61888 0.41119 0.01399 0.0
C2032 C 0.60992 0.43136 0.01392 0.0
C2033 C 0.6511 0.38985 0.99828 0.0
C2034 C 0.63423 0.36832 0.9761 0.0
C2035 C 0.67597 0.39029 0.00633 0.0
C2036 C 0.69363 0.41119 0.03187 0.0
C2037 C 0.68393 0.41947 0.05912 0.0
C2038 C 0.70047 0.43877 0.08322 0.0
C2039 C 0.7269 0.45016 0.08042 0.0
C2040 C 0.7368 0.4423 0.05346 0.0
C2041 C 0.72032 0.42295 0.02929 0.0
H2042 H 0.73969 0.46514 0.09909 0.0
H2043 H 0.57895 0.2797 0.86334 0.0
H2044 H 0.64323 0.27203 0.10581 0.0
H2045 H 0.62997 0.30188 0.08544 0.0
H2046 H 0.6963 0.36754 0.13557 0.0
H2047 H 0.70875 0.33805 0.15753 0.0
H2048 H 0.65553 0.37759 0.14745 0.0
H2049 H 0.68854 0.35007 0.05746 0.0
H2050 H 0.69762 0.31845 0.01574 0.0
H2051 H 0.61651 0.28199 0.98482 0.0
H2052 H 0.60683 0.31326 0.02652 0.0
H2053 H 0.60866 0.4617 0.09095 0.0
H2054 H 0.63608 0.43792 0.09995 0.0
H2055 H 0.57162 0.36423 0.0681 0.0
H2056 H 0.54405 0.38778 0.05925 0.0
H2057 H 0.61791 0.36317 0.04433 0.0
H2058 H 0.58783 0.39027 0.14168 0.0
H2059 H 0.58194 0.42315 0.1847 0.0
H2060 H 0.66442 0.46484 0.20011 0.0
H2061 H 0.67074 0.43235 0.15691 0.0
C2062 C 0.65516 0.29278 0.11226 0.0
C2063 C 0.67678 0.30266 0.13372 0.0
C2064 C 0.64778 0.30982 0.10022 0.0
C2065 C 0.66215 0.33701 0.10896 0.0
C2066 C 0.68488 0.34665 0.12857 0.0
C2067 C 0.6921 0.32967 0.14091 0.0
C2068 C 0.65133 0.35545 0.10114 0.0
C2069 C 0.64802 0.3749 0.12472 0.0
C2070 C 0.64124 0.35183 0.07157 0.0
C2071 C 0.64692 0.33377 0.04546 0.0
C2072 C 0.67259 0.3352 0.04189 0.0
C2073 C 0.67785 0.31735 0.01824 0.0
C2074 C 0.65762 0.29804 0.99788 0.0
C2075 C 0.63213 0.29688 0.00075 0.0
C2076 C 0.62675 0.31473 0.02434 0.0
C2077 C 0.60021 0.44047 0.08637 0.0
C2078 C 0.57417 0.42661 0.07448 0.0
C2079 C 0.61594 0.42692 0.09126 0.0
C2080 C 0.60579 0.39935 0.08467 0.0
C2081 C 0.57981 0.3855 0.07305 0.0
C2082 C 0.56411 0.399 0.06809 0.0
C2083 C 0.62197 0.38486 0.09072 0.0
C2084 C 0.62603 0.36609 0.06685 0.0
C2085 C 0.63354 0.38969 0.11986 0.0
C2086 C 0.62973 0.40905 0.14595 0.0
C2087 C 0.60468 0.40655 0.15414 0.0
C2088 C 0.60127 0.42509 0.17856 0.0
C2089 C 0.62279 0.44611 0.19509 0.0
C2090 C 0.64777 0.44857 0.18727 0.0
C2091 C 0.65128 0.43009 0.16285 0.0
H2092 H 0.62011 0.46045 0.21398 0.0
H2093 H 0.66171 0.28403 0.97981 0.0
H2094 H 0.71675 0.6774 0.18749 0.0
H2095 H 0.69209 0.65354 0.13895 0.0
H2096 H 0.70004 0.72691 0.11966 0.0
H2097 H 0.72406 0.75098 0.16889 0.0
H2098 H 0.65308 0.69679 0.10704 0.0
H2099 H 0.72677 0.68545 0.07344 0.0
H2100 H 0.76887 0.67971 0.07318 0.0
H2101 H 0.73199 0.60183 0.08369 0.0
H2102 H 0.68971 0.60716 0.0845 0.0
H2103 H 0.58523 0.54829 0.01089 0.0
H2104 H 0.62066 0.59021 0.01662 0.0
H2105 H 0.59351 0.62164 0.09975 0.0
H2106 H 0.55632 0.58047 0.09172 0.0
H2107 H 0.65838 0.61149 0.05196 0.0
H2108 H 0.60945 0.68371 0.12126 0.0
H2109 H 0.56894 0.6916 0.11548 0.0
H2110 H 0.5591 0.6526 0.02143 0.0
H2111 H 0.59985 0.64493 0.0264 0.0
C2112 C 0.71344 0.68845 0.17282 0.0
C2113 C 0.722 0.71593 0.18202 0.0
C2114 C 0.69969 0.67485 0.14487 0.0
C2115 C 0.69478 0.68852 0.12536 0.0
C2116 C 0.70384 0.71605 0.13425 0.0
C2117 C 0.71734 0.72969 0.16245 0.0
C2118 C 0.67714 0.67344 0.0978 0.0
C2119 C 0.65429 0.67834 0.09439 0.0
C2120 C 0.6796 0.65045 0.07949 0.0
C2121 C 0.70492 0.64669 0.07881 0.0
C2122 C 0.7276 0.6671 0.07577 0.0
C2123 C 0.75153 0.66392 0.07554 0.0
C2124 C 0.75309 0.6404 0.07832 0.0
C2125 C 0.73072 0.62 0.08139 0.0
C2126 C 0.70673 0.62306 0.08161 0.0
C2127 C 0.58628 0.56458 0.02952 0.0
C2128 C 0.56771 0.5615 0.05018 0.0
C2129 C 0.60669 0.58842 0.03307 0.0
C2130 C 0.60946 0.60942 0.05817 0.0
C2131 C 0.59123 0.60615 0.07945 0.0
C2132 C 0.57029 0.58244 0.07528 0.0
C2133 C 0.63317 0.63338 0.0646 0.0
C2134 C 0.65728 0.6303 0.06341 0.0
C2135 C 0.63216 0.65853 0.07731 0.0
C2136 C 0.60788 0.66379 0.07422 0.0
C2137 C 0.5989 0.67711 0.09923 0.0
C2138 C 0.5758 0.68147 0.09612 0.0
C2139 C 0.56147 0.67263 0.06811 0.0
C2140 C 0.57022 0.65944 0.04312 0.0
C2141 C 0.59332 0.65507 0.04608 0.0
H2142 H 0.54356 0.67598 0.06578 0.0
H2143 H 0.77165 0.638 0.07807 0.0
H2144 H 0.38747 0.69256 0.11008 0.0
H2145 H 0.39747 0.66999 0.06218 0.0
H2146 H 0.31565 0.62931 0.03376 0.0
H2147 H 0.30556 0.6515 0.08217 0.0
H2148 H 0.33796 0.59596 0.03329 0.0
H2149 H 0.35515 0.6664 0.99305 0.0
H2150 H 0.37079 0.71113 0.98651 0.0
H2151 H 0.44956 0.71571 0.99611 0.0
H2152 H 0.43457 0.6712 0.00325 0.0
H2153 H 0.40521 0.51766 0.96669 0.0
H2154 H 0.37892 0.54322 0.96007 0.0
H2155 H 0.43952 0.61429 0.01116 0.0
H2156 H 0.46646 0.58934 0.01576 0.0
H2157 H 0.41289 0.6271 0.97603 0.0
H2158 H 0.38974 0.56929 0.04536 0.0
H2159 H 0.37487 0.52545 0.05496 0.0
H2160 H 0.30762 0.49973 0.99213 0.0
H2161 H 0.32228 0.54341 0.98204 0.0
C2162 C 0.37162 0.67924 0.09336 0.0
C2163 C 0.34578 0.67337 0.10006 0.0
C2164 C 0.37732 0.66664 0.06574 0.0
C2165 C 0.3573 0.64795 0.04424 0.0
C2166 C 0.3314 0.64373 0.04994 0.0
C2167 C 0.32567 0.65641 0.07761 0.0
C2168 C 0.3637 0.6292 0.01967 0.0
C2169 C 0.35362 0.60263 0.0197 0.0
C2170 C 0.3841 0.6378 0.00189 0.0
C2171 C 0.39358 0.66511 0.99848 0.0
C2172 C 0.37584 0.67692 0.99399 0.0
C2173 C 0.38461 0.7023 0.99013 0.0
C2174 C 0.41115 0.71623 0.99081 0.0
C2175 C 0.42898 0.70484 0.99544 0.0
C2176 C 0.42032 0.67944 0.99929 0.0
C2177 C 0.41325 0.53884 0.97565 0.0
C2178 C 0.43751 0.55136 0.99284 0.0
C2179 C 0.39815 0.55343 0.97193 0.0
C2180 C 0.40677 0.58054 0.98617 0.0
C2181 C 0.43215 0.59335 1.00034 0.0
C2182 C 0.44738 0.57894 0.00353 0.0
C2183 C 0.38849 0.5948 0.9919 0.0
C2184 C 0.39623 0.62033 0.98817 0.0
C2185 C 0.36604 0.58549 0.00661 0.0
C2186 C 0.35721 0.55937 0.01272 0.0
C2187 C 0.37182 0.55422 0.03358 0.0
C2188 C 0.36345 0.52943 0.03908 0.0
C2189 C 0.34035 0.50979 0.02409 0.0
C2190 C 0.32554 0.51493 0.00365 0.0
C2191 C 0.33387 0.53968 0.99801 0.0
H2192 H 0.3339 0.49061 0.02838 0.0
H2193 H 0.41791 0.73588 0.9878 0.0
H2194 H 0.27944 0.32291 0.20692 0.0
H2195 H 0.30624 0.35368 0.18047 0.0
H2196 H 0.37487 0.34621 0.21495 0.0
H2197 H 0.34821 0.31516 0.24127 0.0
H2198 H 0.34695 0.40073 0.19528 0.0
H2199 H 0.41298 0.34115 0.15768 0.0
H2200 H 0.41119 0.29555 0.14933 0.0
H2201 H 0.32835 0.26649 0.13051 0.0
H2202 H 0.32969 0.31185 0.13822 0.0
H2203 H 0.45653 0.473 0.13219 0.0
H2204 H 0.4266 0.44719 0.16128 0.0
H2205 H 0.38934 0.38678 0.07991 0.0
H2206 H 0.41961 0.41228 0.05067 0.0
H2207 H 0.39883 0.36551 0.12105 0.0
H2208 H 0.35979 0.42818 0.11783 0.0
H2209 H 0.35828 0.47232 0.12369 0.0
H2210 H 0.38115 0.49267 0.21806 0.0
H2211 H 0.38315 0.44877 0.21269 0.0
C2212 C 0.30028 0.32808 0.20927 0.0
C2213 C 0.31167 0.31632 0.22593 0.0
C2214 C 0.31556 0.34575 0.1942 0.0
C2215 C 0.34245 0.35189 0.19539 0.0
C2216 C 0.35407 0.34141 0.21342 0.0
C2217 C 0.33881 0.32373 0.22851 0.0
C2218 C 0.35806 0.36762 0.17605 0.0
C2219 C 0.35838 0.39313 0.17911 0.0
C2220 C 0.37238 0.35735 0.15441 0.0
C2221 C 0.37144 0.32993 0.14884 0.0
C2222 C 0.39441 0.32501 0.15159 0.0
C2223 C 0.39347 0.29921 0.14699 0.0
C2224 C 0.36966 0.27814 0.1395 0.0
C2225 C 0.34676 0.28282 0.1364 0.0
C2226 C 0.3476 0.30858 0.1409 0.0
C2227 C 0.44181 0.45433 0.12043 0.0
C2228 C 0.44043 0.44467 0.08912 0.0
C2229 C 0.42465 0.43964 0.1371 0.0
C2230 C 0.40559 0.41514 0.12276 0.0
C2231 C 0.40391 0.40563 0.09144 0.0
C2232 C 0.42116 0.42026 0.07476 0.0
C2233 C 0.38818 0.39893 0.14058 0.0
C2234 C 0.38748 0.37324 0.13723 0.0
C2235 C 0.3731 0.40886 0.16146 0.0
C2236 C 0.37183 0.43526 0.1648 0.0
C2237 C 0.36468 0.44214 0.13979 0.0
C2238 C 0.36371 0.4671 0.14303 0.0
C2239 C 0.36967 0.48531 0.17122 0.0
C2240 C 0.37656 0.47856 0.19623 0.0
C2241 C 0.37759 0.45363 0.19311 0.0
H2242 H 0.3689 0.50462 0.17368 0.0
H2243 H 0.36897 0.25819 0.13604 0.0
H2244 H 0.84597 0.73061 0.73107 0.0
H2245 H 0.86876 0.70319 0.70454 0.0
H2246 H 0.80088 0.65682 0.64195 0.0
H2247 H 0.77761 0.68433 0.66873 0.0
H2248 H 0.82319 0.62545 0.65942 0.0
H2249 H 0.85309 0.70118 0.62134 0.0
H2250 H 0.87134 0.74859 0.62454 0.0
H2251 H 0.9414 0.75602 0.67219 0.0
H2252 H 0.92342 0.70872 0.66967 0.0
H2253 H 0.8919 0.55788 0.56184 0.0
H2254 H 0.86609 0.58437 0.58216 0.0
H2255 H 0.93167 0.63976 0.6439 0.0
H2256 H 0.95798 0.61411 0.62275 0.0
H2257 H 0.90853 0.66603 0.62354 0.0
H2258 H 0.87823 0.59177 0.66495 0.0
H2259 H 0.86024 0.54469 0.66345 0.0
H2260 H 0.7915 0.53475 0.61112 0.0
H2261 H 0.80923 0.58173 0.61201 0.0
C2262 C 0.83572 0.71466 0.71163 0.0
C2263 C 0.80982 0.70992 0.70208 0.0
C2264 C 0.84894 0.69896 0.69633 0.0
C2265 C 0.83681 0.67801 0.67087 0.0
C2266 C 0.81082 0.67289 0.66143 0.0
C2267 C 0.79752 0.68873 0.67673 0.0
C2268 C 0.85141 0.66159 0.6545 0.0
C2269 C 0.84163 0.63429 0.6511 0.0
C2270 C 0.87585 0.673 0.64417 0.0
C2271 C 0.88681 0.70143 0.64552 0.0
C2272 C 0.87232 0.71296 0.63269 0.0
C2273 C 0.88263 0.73981 0.63435 0.0
C2274 C 0.90749 0.75532 0.64861 0.0
C2275 C 0.92213 0.74399 0.66117 0.0
C2276 C 0.9119 0.71715 0.6596 0.0
C2277 C 0.90107 0.57587 0.57945 0.0
C2278 C 0.92723 0.58357 0.59058 0.0
C2279 C 0.88606 0.59091 0.59141 0.0
C2280 C 0.8966 0.61401 0.61509 0.0
C2281 C 0.92283 0.62202 0.62582 0.0
C2282 C 0.93788 0.60708 0.6138 0.0
C2283 C 0.8805 0.62985 0.62873 0.0
C2284 C 0.89002 0.6571 0.63165 0.0
C2285 C 0.8559 0.6184 0.63877 0.0
C2286 C 0.84518 0.59019 0.63827 0.0
C2287 C 0.85936 0.5795 0.65294 0.0
C2288 C 0.8492 0.55284 0.65223 0.0
C2289 C 0.82478 0.53672 0.63712 0.0
C2290 C 0.81043 0.54725 0.62277 0.0
C2291 C 0.82052 0.57389 0.62338 0.0
H2292 H 0.81694 0.51609 0.63659 0.0
H2293 H 0.91543 0.77611 0.64988 0.0
H2294 H 0.34587 0.77596 0.68825 0.0
H2295 H 0.37378 0.81076 0.66764 0.0
H2296 H 0.32458 0.85547 0.69489 0.0
H2297 H 0.29696 0.8211 0.7163 0.0
H2298 H 0.36499 0.82756 0.62394 0.0
H2299 H 0.35842 0.92015 0.7096 0.0
H2300 H 0.35773 0.93717 0.76408 0.0
H2301 H 0.3935 0.88512 0.78123 0.0
H2302 H 0.3944 0.8678 0.72691 0.0
H2303 H 0.41086 0.93309 0.55768 0.0
H2304 H 0.38441 0.9005 0.58237 0.0
H2305 H 0.44272 0.93367 0.65825 0.0
H2306 H 0.46855 0.96694 0.63431 0.0
H2307 H 0.39927 0.92237 0.67839 0.0
H2308 H 0.43584 0.87549 0.60264 0.0
H2309 H 0.44708 0.85774 0.55238 0.0
H2310 H 0.36623 0.81708 0.52131 0.0
H2311 H 0.35446 0.83485 0.57137 0.0
C2312 C 0.34104 0.79325 0.69001 0.0
C2313 C 0.31913 0.7957 0.70381 0.0
C2314 C 0.35701 0.81312 0.67817 0.0
C2315 C 0.35136 0.83578 0.67983 0.0
C2316 C 0.32958 0.83836 0.69377 0.0
C2317 C 0.31371 0.81859 0.70584 0.0
C2318 C 0.36762 0.85617 0.66583 0.0
C2319 C 0.37249 0.84831 0.63585 0.0
C2320 C 0.37795 0.88315 0.68155 0.0
C2321 C 0.37626 0.89253 0.71416 0.0
C2322 C 0.36605 0.91228 0.725 0.0
C2323 C 0.36566 0.922 0.75585 0.0
C2324 C 0.37566 0.9123 0.77609 0.0
C2325 C 0.38579 0.89264 0.76552 0.0
C2326 C 0.3861 0.88274 0.7347 0.0
C2327 C 0.41787 0.93353 0.57975 0.0
C2328 C 0.44171 0.95252 0.59413 0.0
C2329 C 0.40285 0.91479 0.59374 0.0
C2330 C 0.41176 0.91435 0.62198 0.0
C2331 C 0.43539 0.93363 0.63651 0.0
C2332 C 0.45016 0.95263 0.6228 0.0
C2333 C 0.39661 0.8938 0.63645 0.0
C2334 C 0.39173 0.90164 0.66644 0.0
C2335 C 0.38739 0.86667 0.62117 0.0
C2336 C 0.39428 0.85671 0.5907 0.0
C2337 C 0.42044 0.86301 0.58501 0.0
C2338 C 0.42691 0.85289 0.55659 0.0
C2339 C 0.40738 0.83626 0.53371 0.0
C2340 C 0.38132 0.82993 0.5391 0.0
C2341 C 0.37475 0.84002 0.5675 0.0
H2342 H 0.41247 0.82817 0.51187 0.0
H2343 H 0.37546 0.91994 0.79997 0.0
H2344 H 0.17422 0.31377 0.61975 0.0
H2345 H 0.14717 0.33632 0.60616 0.0
H2346 H 0.19258 0.4073 0.67313 0.0
H2347 H 0.21932 0.38474 0.68726 0.0
H2348 H 0.14128 0.39821 0.67446 0.0
H2349 H 0.20088 0.39991 0.59857 0.0
H2350 H 0.22297 0.38098 0.55803 0.0
H2351 H 0.14967 0.33516 0.50565 0.0
H2352 H 0.12708 0.35351 0.54609 0.0
H2353 H 0.09667 0.48743 0.62588 0.0
H2354 H 0.12311 0.46467 0.64038 0.0
H2355 H 0.08142 0.39534 0.56921 0.0
H2356 H 0.05512 0.41796 0.55453 0.0
H2357 H 0.13083 0.40341 0.57004 0.0
H2358 H 0.07074 0.40031 0.64429 0.0
H2359 H 0.04734 0.41817 0.68404 0.0
H2360 H 0.11938 0.46451 0.73881 0.0
H2361 H 0.14328 0.44725 0.69916 0.0
C2362 C 0.17834 0.33412 0.63176 0.0
C2363 C 0.19909 0.34743 0.65453 0.0
C2364 C 0.16297 0.34708 0.62378 0.0
C2365 C 0.16797 0.37366 0.63835 0.0
C2366 C 0.18836 0.38685 0.66143 0.0
C2367 C 0.2038 0.37395 0.66933 0.0
C2368 C 0.15198 0.38776 0.62965 0.0
C2369 C 0.13928 0.39964 0.6517 0.0
C2370 C 0.1487 0.38906 0.59978 0.0
C2371 C 0.16226 0.37788 0.57552 0.0
C2372 C 0.18944 0.38561 0.57854 0.0
C2373 C 0.20206 0.37502 0.55554 0.0
C2374 C 0.18773 0.35683 0.52931 0.0
C2375 C 0.16075 0.34922 0.526 0.0
C2376 C 0.14803 0.35971 0.54895 0.0
C2377 C 0.09297 0.46726 0.61347 0.0
C2378 C 0.07377 0.45464 0.58893 0.0
C2379 C 0.10814 0.45423 0.62178 0.0
C2380 C 0.10419 0.4281 0.60609 0.0
C2381 C 0.08502 0.41549 0.58163 0.0
C2382 C 0.07001 0.42854 0.57319 0.0
C2383 C 0.12011 0.41391 0.61484 0.0
C2384 C 0.1328 0.402 0.59281 0.0
C2385 C 0.12315 0.41234 0.64465 0.0
C2386 C 0.10883 0.42269 0.6686 0.0
C2387 C 0.08162 0.41447 0.66471 0.0
C2388 C 0.06826 0.42447 0.68724 0.0
C2389 C 0.08187 0.44252 0.7139 0.0
C2390 C 0.10887 0.45056 0.71812 0.0
C2391 C 0.12233 0.44067 0.69563 0.0
H2392 H 0.07149 0.45023 0.73132 0.0
H2393 H 0.19753 0.34867 0.51153 0.0
H2394 H 0.70353 0.20512 0.6707 0.0
H2395 H 0.68132 0.17759 0.62188 0.0
H2396 H 0.74943 0.15956 0.59812 0.0
H2397 H 0.77199 0.18721 0.64734 0.0
H2398 H 0.68991 0.17376 0.56067 0.0
H2399 H 0.72594 0.09471 0.56359 0.0
H2400 H 0.74991 0.08116 0.59745 0.0
H2401 H 0.71244 0.11048 0.67172 0.0
H2402 H 0.6882 0.12402 0.6382 0.0
H2403 H 0.58953 0.02565 0.50617 0.0
H2404 H 0.63452 0.05637 0.51008 0.0
H2405 H 0.61212 0.11952 0.56068 0.0
H2406 H 0.56735 0.08904 0.55618 0.0
H2407 H 0.66365 0.08009 0.5609 0.0
H2408 H 0.64704 0.17664 0.55432 0.0
H2409 H 0.62311 0.18958 0.51998 0.0
H2410 H 0.6212 0.1234 0.44846 0.0
H2411 H 0.64553 0.11026 0.48227 0.0
C2412 C 0.71395 0.19558 0.65504 0.0
C2413 C 0.73931 0.19793 0.66306 0.0
C2414 C 0.70135 0.18014 0.62695 0.0
C2415 C 0.71376 0.16659 0.60644 0.0
C2416 C 0.73959 0.16994 0.61368 0.0
C2417 C 0.75233 0.18558 0.64184 0.0
C2418 C 0.69782 0.14603 0.58008 0.0
C2419 C 0.68434 0.15316 0.56012 0.0
C2420 C 0.69163 0.11914 0.57838 0.0
C2421 C 0.70547 0.11046 0.59851 0.0
C2422 C 0.72279 0.09813 0.58713 0.0
C2423 C 0.73643 0.0905 0.60625 0.0
C2424 C 0.73274 0.095 0.63673 0.0
C2425 C 0.71531 0.10703 0.64813 0.0
C2426 C 0.70162 0.11467 0.6291 0.0
C2427 C 0.59424 0.04629 0.51728 0.0
C2428 C 0.57515 0.05522 0.53056 0.0
C2429 C 0.61985 0.06376 0.51951 0.0
C2430 C 0.62662 0.09035 0.53511 0.0
C2431 C 0.60727 0.09929 0.54771 0.0
C2432 C 0.58177 0.08184 0.54554 0.0
C2433 C 0.65412 0.10799 0.54314 0.0
C2434 C 0.66991 0.10033 0.55971 0.0
C2435 C 0.66259 0.13429 0.54126 0.0
C2436 C 0.64815 0.14242 0.52088 0.0
C2437 C 0.64176 0.16495 0.53122 0.0
C2438 C 0.62806 0.17229 0.51186 0.0
C2439 C 0.62064 0.15731 0.48207 0.0
C2440 C 0.62692 0.13494 0.47156 0.0
C2441 C 0.64062 0.12752 0.49082 0.0
H2442 H 0.61003 0.16303 0.46713 0.0
H2443 H 0.74336 0.08914 0.6515 0.0
H2444 H 0.81301 0.31298 0.31454 0.0
H2445 H 0.8389 0.34284 0.36073 0.0
H2446 H 0.76905 0.34107 0.40282 0.0
H2447 H 0.74276 0.30987 0.3564 0.0
H2448 H 0.82016 0.39567 0.40337 0.0
H2449 H 0.78886 0.31539 0.4345 0.0
H2450 H 0.77607 0.26732 0.42473 0.0
H2451 H 0.85329 0.27334 0.40434 0.0
H2452 H 0.86639 0.32136 0.41321 0.0
H2453 H 0.93559 0.47225 0.49743 0.0
H2454 H 0.89004 0.44241 0.49132 0.0
H2455 H 0.90932 0.38255 0.42837 0.0
H2456 H 0.95461 0.41189 0.43506 0.0
H2457 H 0.87021 0.36031 0.45866 0.0
H2458 H 0.89603 0.4295 0.40693 0.0
H2459 H 0.91377 0.47608 0.40665 0.0
H2460 H 0.85122 0.48947 0.45424 0.0
H2461 H 0.8338 0.4431 0.45606 0.0
C2462 C 0.80317 0.31848 0.33382 0.0
C2463 C 0.77607 0.30846 0.33251 0.0
C2464 C 0.81791 0.33576 0.35999 0.0
C2465 C 0.80578 0.34368 0.38514 0.0
C2466 C 0.77861 0.33484 0.38358 0.0
C2467 C 0.76373 0.31718 0.35723 0.0
C2468 C 0.82242 0.36097 0.41268 0.0
C2469 C 0.83041 0.38817 0.41665 0.0
C2470 C 0.83611 0.35085 0.42907 0.0
C2471 C 0.82859 0.32203 0.42458 0.0
C2472 C 0.80308 0.30646 0.42779 0.0
C2473 C 0.79577 0.2792 0.42235 0.0
C2474 C 0.81385 0.26728 0.41384 0.0
C2475 C 0.8393 0.28261 0.41085 0.0
C2476 C 0.84669 0.30986 0.41615 0.0
C2477 C 0.93015 0.45235 0.4832 0.0
C2478 C 0.94842 0.44427 0.46661 0.0
C2479 C 0.9042 0.43538 0.47972 0.0
C2480 C 0.89629 0.41037 0.4592 0.0
C2481 C 0.915 0.40169 0.44446 0.0
C2482 C 0.94081 0.41856 0.44799 0.0
C2483 C 0.86864 0.39498 0.44841 0.0
C2484 C 0.85886 0.36813 0.44728 0.0
C2485 C 0.8538 0.4053 0.4337 0.0
C2486 C 0.86387 0.43299 0.43208 0.0
C2487 C 0.88618 0.44244 0.41756 0.0
C2488 C 0.89619 0.46881 0.41712 0.0
C2489 C 0.8836 0.48576 0.43031 0.0
C2490 C 0.86101 0.47636 0.44409 0.0
C2491 C 0.85114 0.45006 0.44501 0.0
H2492 H 0.89136 0.50615 0.42982 0.0
H2493 H 0.80815 0.24618 0.4096 0.0
H2494 H 0.70289 0.79796 0.25899 0.0
H2495 H 0.67542 0.82136 0.28267 0.0
H2496 H 0.68208 0.79761 0.36307 0.0
H2497 H 0.70855 0.77274 0.33846 0.0
H2498 H 0.63661 0.79984 0.35852 0.0
H2499 H 0.72031 0.86096 0.35358 0.0
H2500 H 0.75941 0.88193 0.33032 0.0
H2501 H 0.71381 0.90253 0.27269 0.0
H2502 H 0.67432 0.88125 0.29523 0.0
H2503 H 0.59722 0.90257 0.44631 0.0
H2504 H 0.62211 0.87494 0.42594 0.0
H2505 H 0.6128 0.88706 0.33891 0.0
H2506 H 0.58901 0.91556 0.35935 0.0
H2507 H 0.66131 0.89144 0.35081 0.0
H2508 H 0.57674 0.82803 0.35859 0.0
H2509 H 0.5401 0.80903 0.38643 0.0
H2510 H 0.59132 0.79571 0.44497 0.0
H2511 H 0.62832 0.815 0.41776 0.0
C2512 C 0.69805 0.79724 0.28151 0.0
C2513 C 0.70788 0.78342 0.29679 0.0
C2514 C 0.68255 0.81097 0.29526 0.0
C2515 C 0.67721 0.81222 0.32523 0.0
C2516 C 0.68595 0.79729 0.34008 0.0
C2517 C 0.70103 0.78293 0.32596 0.0
C2518 C 0.66344 0.82987 0.34103 0.0
C2519 C 0.6423 0.81996 0.35709 0.0
C2520 C 0.67059 0.85632 0.33948 0.0
C2521 C 0.69431 0.86933 0.32596 0.0
C2522 C 0.71859 0.86981 0.33582 0.0
C2523 C 0.74082 0.88175 0.32276 0.0
C2524 C 0.73908 0.89352 0.30002 0.0
C2525 C 0.71511 0.89337 0.29028 0.0
C2526 C 0.69279 0.88139 0.30321 0.0
C2527 C 0.60058 0.89954 0.42288 0.0
C2528 C 0.59079 0.91138 0.4046 0.0
C2529 C 0.61463 0.88341 0.41111 0.0
C2530 C 0.61916 0.87841 0.38063 0.0
C2531 C 0.60957 0.89034 0.36243 0.0
C2532 C 0.59562 0.90651 0.37417 0.0
C2533 C 0.63414 0.8612 0.36759 0.0
C2534 C 0.65564 0.87129 0.35218 0.0
C2535 C 0.62766 0.8352 0.37035 0.0
C2536 C 0.60531 0.82313 0.38628 0.0
C2537 C 0.5802 0.82116 0.37749 0.0
C2538 C 0.55937 0.81035 0.39317 0.0
C2539 C 0.56339 0.80123 0.4175 0.0
C2540 C 0.58823 0.8028 0.42613 0.0
C2541 C 0.60913 0.81366 0.41059 0.0
H2542 H 0.54726 0.79292 0.42965 0.0
H2543 H 0.75634 0.9028 0.28999 0.0
H2544 H 0.20167 0.71755 0.30767 0.0
H2545 H 0.1732 0.68689 0.33329 0.0
H2546 H 0.20901 0.63061 0.2971 0.0
H2547 H 0.23816 0.6615 0.27199 0.0
H2548 H 0.14927 0.61337 0.29163 0.0
H2549 H 0.22767 0.65792 0.36081 0.0
H2550 H 0.26236 0.69703 0.39247 0.0
H2551 H 0.2056 0.71998 0.44318 0.0
H2552 H 0.17049 0.68133 0.41133 0.0
H2553 H 0.09349 0.51955 0.37004 0.0
H2554 H 0.12454 0.55064 0.34721 0.0
H2555 H 0.11228 0.6152 0.41027 0.0
H2556 H 0.08219 0.58412 0.43424 0.0
H2557 H 0.16044 0.62935 0.40214 0.0
H2558 H 0.08248 0.58936 0.33612 0.0
H2559 H 0.04501 0.55325 0.30475 0.0
H2560 H 0.09645 0.52554 0.2486 0.0
H2561 H 0.13427 0.56128 0.27991 0.0
C2562 C 0.20337 0.69857 0.30499 0.0
C2563 C 0.22206 0.6918 0.28785 0.0
C2564 C 0.18723 0.68122 0.31975 0.0
C2565 C 0.18929 0.65675 0.31713 0.0
C2566 C 0.20737 0.64957 0.29937 0.0
C2567 C 0.22393 0.66715 0.28512 0.0
C2568 C 0.1723 0.63852 0.33277 0.0
C2569 C 0.15183 0.61654 0.31574 0.0
C2570 C 0.17527 0.64357 0.3643 0.0
C2571 C 0.19641 0.6669 0.38336 0.0
C2572 C 0.22254 0.67149 0.37841 0.0
C2573 C 0.24229 0.69355 0.39645 0.0
C2574 C 0.23618 0.71104 0.41974 0.0
C2575 C 0.2103 0.70648 0.42507 0.0
C2576 C 0.19047 0.6845 0.40701 0.0
C2577 C 0.09752 0.54039 0.37907 0.0
C2578 C 0.08528 0.5495 0.40359 0.0
C2579 C 0.11515 0.55812 0.36595 0.0
C2580 C 0.1202 0.58519 0.37651 0.0
C2581 C 0.10855 0.59438 0.40163 0.0
C2582 C 0.09134 0.57665 0.41524 0.0
C2583 C 0.13731 0.6038 0.361 0.0
C2584 C 0.15778 0.62599 0.37803 0.0
C2585 C 0.13391 0.59937 0.32949 0.0
C2586 C 0.11122 0.57785 0.31054 0.0
C2587 C 0.08581 0.57545 0.31722 0.0
C2588 C 0.06451 0.55506 0.29943 0.0
C2589 C 0.06835 0.53707 0.27474 0.0
C2590 C 0.09351 0.53947 0.26775 0.0
C2591 C 0.11488 0.5598 0.2855 0.0
H2592 H 0.05184 0.52131 0.26099 0.0
H2593 H 0.25151 0.72808 0.43372 0.0
H2594 H 0.34514 0.16214 0.31851 0.0
H2595 H 0.3652 0.13314 0.33071 0.0
H2596 H 0.40365 0.19231 0.41235 0.0
H2597 H 0.38312 0.2212 0.40085 0.0
H2598 H 0.43683 0.17122 0.38058 0.0
H2599 H 0.35231 0.13928 0.41516 0.0
H2600 H 0.30445 0.12205 0.41011 0.0
H2601 H 0.30298 0.05501 0.3401 0.0
H2602 H 0.35086 0.07204 0.34445 0.0
H2603 H 0.48287 0.0971 0.45255 0.0
H2604 H 0.46019 0.12367 0.43994 0.0
H2605 H 0.4168 0.05923 0.36455 0.0
H2606 H 0.4385 0.0319 0.37798 0.0
H2607 H 0.3858 0.08229 0.39132 0.0
H2608 H 0.46908 0.11276 0.35575 0.0
H2609 H 0.51687 0.12942 0.35857 0.0
H2610 H 0.52085 0.19838 0.42709 0.0
H2611 H 0.47306 0.18195 0.42497 0.0
C2612 C 0.35752 0.16892 0.33933 0.0
C2613 C 0.36237 0.19414 0.35869 0.0
C2614 C 0.3691 0.15229 0.34619 0.0
C2615 C 0.38585 0.16045 0.37254 0.0
C2616 C 0.39087 0.1856 0.39183 0.0
C2617 C 0.37917 0.20217 0.38511 0.0
C2618 C 0.39847 0.14297 0.37982 0.0
C2619 C 0.42568 0.15191 0.38332 0.0
C2620 C 0.38395 0.11741 0.38245 0.0
C2621 C 0.35517 0.10708 0.37992 0.0
C2622 C 0.34178 0.12098 0.39852 0.0
C2623 C 0.31465 0.11122 0.39582 0.0
C2624 C 0.30069 0.08749 0.37474 0.0
C2625 C 0.31383 0.07341 0.35639 0.0
C2626 C 0.34096 0.08309 0.35897 0.0
C2627 C 0.46822 0.0883 0.43355 0.0
C2628 C 0.46262 0.06221 0.41633 0.0
C2629 C 0.45547 0.10374 0.42609 0.0
C2630 C 0.43706 0.09371 0.40093 0.0
C2631 C 0.43104 0.06754 0.38397 0.0
C2632 C 0.44368 0.05198 0.39153 0.0
C2633 C 0.42425 0.11061 0.39236 0.0
C2634 C 0.39701 0.10157 0.38855 0.0
C2635 C 0.43874 0.13599 0.38911 0.0
C2636 C 0.46749 0.146 0.39039 0.0
C2637 C 0.48015 0.13138 0.37158 0.0
C2638 C 0.50724 0.1408 0.37302 0.0
C2639 C 0.52189 0.16491 0.39305 0.0
C2640 C 0.50948 0.17969 0.41162 0.0
C2641 C 0.48239 0.17035 0.41028 0.0
H2642 H 0.54286 0.17217 0.39414 0.0
H2643 H 0.27969 0.07997 0.37267 0.0
H2644 H 0.70219 0.85461 0.672 0.0
H2645 H 0.68148 0.88246 0.65821 0.0
H2646 H 0.61925 0.81342 0.6063 0.0
H2647 H 0.64056 0.78551 0.61854 0.0
H2648 H 0.63189 0.84825 0.57632 0.0
H2649 H 0.61344 0.85086 0.67809 0.0
H2650 H 0.62351 0.85805 0.73224 0.0
H2651 H 0.66945 0.93919 0.74066 0.0
H2652 H 0.6599 0.93242 0.68643 0.0
H2653 H 0.53881 0.90543 0.56146 0.0
H2654 H 0.56277 0.88005 0.5746 0.0
H2655 H 0.625 0.95196 0.62036 0.0
H2656 H 0.60108 0.97759 0.60721 0.0
H2657 H 0.6141 0.91731 0.65332 0.0
H2658 H 0.6306 0.91377 0.5504 0.0
H2659 H 0.61901 0.90537 0.49633 0.0
H2660 H 0.57444 0.82439 0.49062 0.0
H2661 H 0.58569 0.83233 0.54466 0.0
C2662 C 0.68426 0.84528 0.65734 0.0
C2663 C 0.6731 0.81766 0.64652 0.0
C2664 C 0.67222 0.8613 0.64978 0.0
C2665 C 0.6485 0.85014 0.63156 0.0
C2666 C 0.63745 0.82261 0.62051 0.0
C2667 C 0.64957 0.8066 0.62784 0.0
C2668 C 0.6353 0.867 0.62361 0.0
C2669 C 0.62775 0.86312 0.59325 0.0
C2670 C 0.63034 0.88692 0.64552 0.0
C2671 C 0.63617 0.89106 0.67813 0.0
C2672 C 0.62586 0.87019 0.69143 0.0
C2673 C 0.63144 0.8742 0.72215 0.0
C2674 C 0.64716 0.89905 0.73986 0.0
C2675 C 0.6573 0.91995 0.72689 0.0
C2676 C 0.65179 0.91604 0.69617 0.0
C2677 C 0.55775 0.91593 0.57398 0.0
C2678 C 0.56805 0.94365 0.58303 0.0
C2679 C 0.57145 0.90133 0.58153 0.0
C2680 C 0.59594 0.91401 0.59812 0.0
C2681 C 0.60618 0.94167 0.6075 0.0
C2682 C 0.59243 0.95632 0.60002 0.0
C2683 C 0.61054 0.89837 0.60609 0.0
C2684 C 0.61837 0.9025 0.63643 0.0
C2685 C 0.61555 0.87851 0.5842 0.0
C2686 C 0.60883 0.87371 0.55164 0.0
C2687 C 0.6182 0.89421 0.53764 0.0
C2688 C 0.61174 0.88951 0.50697 0.0
C2689 C 0.59596 0.86436 0.49003 0.0
C2690 C 0.58669 0.84385 0.50373 0.0
C2691 C 0.59315 0.84843 0.53437 0.0
H2692 H 0.59092 0.86073 0.46631 0.0
H2693 H 0.65139 0.90212 0.76364 0.0
H2694 H 0.69634 0.17951 0.26874 0.0
H2695 H 0.67161 0.14746 0.29477 0.0
H2696 H 0.73847 0.17039 0.358 0.0
H2697 H 0.76366 0.20228 0.33158 0.0
H2698 H 0.71145 0.11766 0.3443 0.0
H2699 H 0.69279 0.19569 0.37694 0.0
H2700 H 0.68104 0.23284 0.37182 0.0
H2701 H 0.60695 0.17896 0.32638 0.0
H2702 H 0.61842 0.14143 0.33077 0.0
H2703 H 0.62584 0.06258 0.44955 0.0
H2704 H 0.65899 0.09276 0.42709 0.0
H2705 H 0.60474 0.07165 0.34956 0.0
H2706 H 0.57175 0.04134 0.37158 0.0
H2707 H 0.62907 0.1267 0.37715 0.0
H2708 H 0.65073 0.04849 0.34265 0.0
H2709 H 0.66342 0.01256 0.3502 0.0
H2710 H 0.73302 0.06903 0.40356 0.0
H2711 H 0.72054 0.10533 0.39667 0.0
C2712 C 0.70589 0.17758 0.28801 0.0
C2713 C 0.73179 0.19367 0.29842 0.0
C2714 C 0.69173 0.15929 0.30287 0.0
C2715 C 0.70305 0.15707 0.32872 0.0
C2716 C 0.72936 0.17198 0.3382 0.0
C2717 C 0.74369 0.19016 0.32309 0.0
C2718 C 0.68681 0.14021 0.34655 0.0
C2719 C 0.69364 0.11986 0.3519 0.0
C2720 C 0.66363 0.1432 0.35655 0.0
C2721 C 0.65656 0.16573 0.35398 0.0
C2722 C 0.67407 0.19174 0.36565 0.0
C2723 C 0.66745 0.21288 0.3629 0.0
C2724 C 0.64329 0.20826 0.34873 0.0
C2725 C 0.62567 0.1825 0.33733 0.0
C2726 C 0.63221 0.16129 0.33997 0.0
C2727 C 0.62111 0.0643 0.42764 0.0
C2728 C 0.59627 0.04977 0.41231 0.0
C2729 C 0.64004 0.08139 0.41483 0.0
C2730 C 0.63419 0.08432 0.38675 0.0
C2731 C 0.60952 0.06959 0.3713 0.0
C2732 C 0.59076 0.05227 0.38385 0.0
C2733 C 0.65322 0.10363 0.37382 0.0
C2734 C 0.64698 0.12464 0.3697 0.0
C2735 C 0.67703 0.10142 0.36542 0.0
C2736 C 0.68455 0.07961 0.36944 0.0
C2737 C 0.66861 0.05325 0.35623 0.0
C2738 C 0.6758 0.03281 0.36033 0.0
C2739 C 0.69897 0.0385 0.37742 0.0
C2740 C 0.71505 0.06465 0.39037 0.0
C2741 C 0.70794 0.08516 0.38636 0.0
H2742 H 0.7045 0.02266 0.38057 0.0
H2743 H 0.6382 0.22465 0.34663 0.0
H2744 H 0.8525 0.65968 0.3022 0.0
H2745 H 0.87864 0.63508 0.31166 0.0
H2746 H 0.80961 0.57326 0.32349 0.0
H2747 H 0.78346 0.59858 0.31598 0.0
H2748 H 0.84475 0.58208 0.36507 0.0
H2749 H 0.84441 0.56738 0.25922 0.0
H2750 H 0.84938 0.57947 0.21134 0.0
H2751 H 0.93033 0.62429 0.23841 0.0
H2752 H 0.92578 0.61281 0.28672 0.0
H2753 H 0.91247 0.49488 0.36588 0.0
H2754 H 0.88343 0.51296 0.34674 0.0
H2755 H 0.94728 0.58651 0.35694 0.0
H2756 H 0.97628 0.5688 0.37669 0.0
H2757 H 0.91288 0.56786 0.30108 0.0
H2758 H 0.91062 0.58523 0.40898 0.0
H2759 H 0.90463 0.57259 0.45653 0.0
H2760 H 0.82675 0.52001 0.42287 0.0
H2761 H 0.83239 0.53215 0.37493 0.0
C2762 C 0.84279 0.64096 0.30704 0.0
C2763 C 0.81573 0.63132 0.30845 0.0
C2764 C 0.85781 0.62664 0.31201 0.0
C2765 C 0.84619 0.60201 0.31791 0.0
C2766 C 0.81915 0.59214 0.3189 0.0
C2767 C 0.80412 0.60658 0.31426 0.0
C2768 C 0.86236 0.58719 0.32442 0.0
C2769 C 0.85926 0.57857 0.35067 0.0
C2770 C 0.8817 0.58281 0.306 0.0
C2771 C 0.88468 0.58942 0.27675 0.0
C2772 C 0.86325 0.57995 0.25507 0.0
C2773 C 0.86599 0.58668 0.22783 0.0
C2774 C 0.89013 0.60269 0.22188 0.0
C2775 C 0.91163 0.61191 0.24309 0.0
C2776 C 0.90898 0.60527 0.27039 0.0
C2777 C 0.92038 0.51483 0.36391 0.0
C2778 C 0.94663 0.53052 0.37338 0.0
C2779 C 0.90376 0.52513 0.35291 0.0
C2780 C 0.91316 0.55115 0.35055 0.0
C2781 C 0.93959 0.56641 0.35857 0.0
C2782 C 0.95609 0.55631 0.37009 0.0
C2783 C 0.89522 0.56309 0.34166 0.0
C2784 C 0.89808 0.57117 0.31511 0.0
C2785 C 0.87545 0.56673 0.35954 0.0
C2786 C 0.87201 0.55941 0.38829 0.0
C2787 C 0.89229 0.57082 0.41163 0.0
C2788 C 0.88893 0.56381 0.43867 0.0
C2789 C 0.86531 0.54555 0.44273 0.0
C2790 C 0.84501 0.5342 0.41971 0.0
C2791 C 0.84827 0.54115 0.39261 0.0
H2792 H 0.86274 0.54018 0.4637 0.0
H2793 H 0.89217 0.60792 0.20082 0.0
H2794 H 0.34855 0.77378 0.33219 0.0
H2795 H 0.37081 0.80092 0.3815 0.0
H2796 H 0.29872 0.80618 0.41155 0.0
H2797 H 0.27621 0.77875 0.36274 0.0
H2798 H 0.33615 0.85372 0.40938 0.0
H2799 H 0.32856 0.78609 0.45407 0.0
H2800 H 0.32853 0.74378 0.45972 0.0
H2801 H 0.41015 0.76806 0.45004 0.0
H2802 H 0.41063 0.81035 0.4438 0.0
H2803 H 0.437 0.96435 0.4967 0.0
H2804 H 0.39811 0.92494 0.49336 0.0
H2805 H 0.43768 0.87652 0.44351 0.0
H2806 H 0.47659 0.91544 0.44827 0.0
H2807 H 0.40433 0.84984 0.4756 0.0
H2808 H 0.40356 0.90548 0.40839 0.0
H2809 H 0.40462 0.94723 0.39957 0.0
H2810 H 0.33874 0.94386 0.44955 0.0
H2811 H 0.33751 0.9022 0.45889 0.0
C2812 C 0.33728 0.77996 0.34958 0.0
C2813 C 0.3108 0.77469 0.34329 0.0
C2814 C 0.34996 0.79527 0.37786 0.0
C2815 C 0.33635 0.80557 0.40009 0.0
C2816 C 0.3095 0.79833 0.39472 0.0
C2817 C 0.29676 0.78281 0.36664 0.0
C2818 C 0.35108 0.82829 0.42533 0.0
C2819 C 0.35041 0.85281 0.42478 0.0
C2820 C 0.36969 0.82704 0.44519 0.0
C2821 C 0.36959 0.80144 0.44837 0.0
C2822 C 0.34647 0.78234 0.45285 0.0
C2823 C 0.34639 0.75836 0.45623 0.0
C2824 C 0.36933 0.75323 0.45523 0.0
C2825 C 0.3924 0.77207 0.45083 0.0
C2826 C 0.39259 0.79608 0.44741 0.0
C2827 C 0.43754 0.94512 0.48613 0.0
C2828 C 0.45958 0.94273 0.47275 0.0
C2829 C 0.41538 0.9227 0.48408 0.0
C2830 C 0.41491 0.89783 0.46788 0.0
C2831 C 0.43758 0.89545 0.45625 0.0
C2832 C 0.45969 0.91771 0.45859 0.0
C2833 C 0.3903 0.87499 0.45809 0.0
C2834 C 0.3891 0.85055 0.4615 0.0
C2835 C 0.37007 0.87617 0.44045 0.0
C2836 C 0.37065 0.901 0.43464 0.0
C2837 C 0.38939 0.91374 0.41757 0.0
C2838 C 0.39002 0.93736 0.41249 0.0
C2839 C 0.37181 0.94823 0.42408 0.0
C2840 C 0.35287 0.93545 0.44068 0.0
C2841 C 0.35221 0.91185 0.44588 0.0
H2842 H 0.37232 0.96653 0.42013 0.0
H2843 H 0.36923 0.73467 0.45788 0.0
H2844 H 0.2529 0.32206 0.3347 0.0
H2845 H 0.22701 0.34787 0.3583 0.0
H2846 H 0.1619 0.29718 0.29328 0.0
H2847 H 0.18749 0.27181 0.26955 0.0
H2848 H 0.16582 0.34522 0.29908 0.0
H2849 H 0.16617 0.29496 0.36858 0.0
H2850 H 0.1846 0.27834 0.40419 0.0
H2851 H 0.22181 0.35711 0.46021 0.0
H2852 H 0.20397 0.37426 0.42465 0.0
H2853 H 0.06687 0.38566 0.36603 0.0
H2854 H 0.0935 0.35986 0.34689 0.0
H2855 H 0.15615 0.41284 0.41394 0.0
H2856 H 0.12908 0.43782 0.43446 0.0
H2857 H 0.1546 0.36501 0.40768 0.0
H2858 H 0.15589 0.41502 0.33588 0.0
H2859 H 0.1349 0.43081 0.30161 0.0
H2860 H 0.09229 0.35109 0.25128 0.0
H2861 H 0.11313 0.33485 0.28521 0.0
C2862 C 0.23303 0.31633 0.32553 0.0
C2863 C 0.22244 0.29469 0.30016 0.0
C2864 C 0.21814 0.3311 0.33913 0.0
C2865 C 0.19224 0.32452 0.32782 0.0
C2866 C 0.18174 0.30289 0.30257 0.0
C2867 C 0.19652 0.28824 0.28902 0.0
C2868 C 0.17602 0.34021 0.34156 0.0
C2869 C 0.16327 0.34926 0.32282 0.0
C2870 C 0.17279 0.34615 0.37266 0.0
C2871 C 0.18402 0.33593 0.39372 0.0
C2872 C 0.17855 0.30877 0.38829 0.0
C2873 C 0.18884 0.29925 0.40852 0.0
C2874 C 0.20444 0.31667 0.43439 0.0
C2875 C 0.20978 0.34365 0.44011 0.0
C2876 C 0.1996 0.35328 0.41992 0.0
C2877 C 0.08613 0.3917 0.37715 0.0
C2878 C 0.09566 0.4142 0.40181 0.0
C2879 C 0.10161 0.37705 0.36578 0.0
C2880 C 0.12729 0.38463 0.37833 0.0
C2881 C 0.13659 0.40657 0.40349 0.0
C2882 C 0.12105 0.42109 0.41506 0.0
C2883 C 0.14446 0.36988 0.36519 0.0
C2884 C 0.15736 0.36106 0.384 0.0
C2885 C 0.1478 0.36403 0.33416 0.0
C2886 C 0.13594 0.37375 0.31315 0.0
C2887 C 0.14203 0.40088 0.3175 0.0
C2888 C 0.13015 0.4099 0.29816 0.0
C2889 C 0.11214 0.39196 0.2744 0.0
C2890 C 0.10613 0.36495 0.26979 0.0
C2891 C 0.11809 0.35584 0.28895 0.0
H2892 H 0.10299 0.39898 0.25943 0.0
H2893 H 0.21233 0.30925 0.45006 0.0
H2894 H 0.28227 0.17484 0.70407 0.0
H2895 H 0.30685 0.14921 0.6771 0.0
H2896 H 0.37015 0.22117 0.67782 0.0
H2897 H 0.34446 0.24672 0.70287 0.0
H2898 H 0.36941 0.18908 0.62879 0.0
H2899 H 0.36402 0.17822 0.72804 0.0
H2900 H 0.34309 0.16635 0.77167 0.0
H2901 H 0.30778 0.08564 0.72019 0.0
H2902 H 0.32723 0.09747 0.67549 0.0
H2903 H 0.46381 0.12639 0.59999 0.0
H2904 H 0.43869 0.1535 0.62166 0.0
H2905 H 0.37044 0.08349 0.61077 0.0
H2906 H 0.39544 0.05634 0.58981 0.0
H2907 H 0.37507 0.11532 0.6648 0.0
H2908 H 0.37869 0.1263 0.56528 0.0
H2909 H 0.40009 0.13776 0.52135 0.0
H2910 H 0.44081 0.21697 0.57448 0.0
H2911 H 0.4199 0.20588 0.61885 0.0
C2912 C 0.30145 0.18517 0.69845 0.0
C2913 C 0.31156 0.21282 0.706 0.0
C2914 C 0.31568 0.17047 0.68312 0.0
C2915 C 0.34102 0.18296 0.67599 0.0
C2916 C 0.35086 0.21074 0.68303 0.0
C2917 C 0.33622 0.22544 0.69756 0.0
C2918 C 0.35722 0.16718 0.66165 0.0
C2919 C 0.37083 0.17321 0.63708 0.0
C2920 C 0.35902 0.14586 0.6716 0.0
C2921 C 0.34693 0.13881 0.69833 0.0
C2922 C 0.35154 0.158 0.72589 0.0
C2923 C 0.3399 0.15123 0.75086 0.0
C2924 C 0.3243 0.12511 0.74888 0.0
C2925 C 0.3199 0.10584 0.72172 0.0
C2926 C 0.33106 0.11262 0.69648 0.0
C2927 C 0.44346 0.11669 0.60221 0.0
C2928 C 0.43181 0.08897 0.5929 0.0
C2929 C 0.42898 0.13232 0.6144 0.0
C2930 C 0.40241 0.12074 0.61773 0.0
C2931 C 0.39079 0.09311 0.60845 0.0
C2932 C 0.40518 0.07752 0.59614 0.0
C2933 C 0.38688 0.13708 0.632 0.0
C2934 C 0.37353 0.13119 0.6566 0.0
C2935 C 0.38538 0.15845 0.62211 0.0
C2936 C 0.39793 0.16518 0.59547 0.0
C2937 C 0.39237 0.1461 0.56766 0.0
C2938 C 0.40438 0.15255 0.54267 0.0
C2939 C 0.42186 0.17806 0.54514 0.0
C2940 C 0.4273 0.19721 0.57261 0.0
C2941 C 0.41536 0.19086 0.59768 0.0
H2942 H 0.43113 0.18301 0.52577 0.0
H2943 H 0.31564 0.11969 0.76831 0.0
H2944 H 0.79086 0.31425 0.70035 0.0
H2945 H 0.8166 0.34393 0.67198 0.0
H2946 H 0.87687 0.31205 0.67302 0.0
H2947 H 0.85171 0.28313 0.70233 0.0
H2948 H 0.89817 0.36183 0.68399 0.0
H2949 H 0.83449 0.29577 0.60931 0.0
H2950 H 0.79067 0.26609 0.58579 0.0
H2951 H 0.77017 0.33265 0.58515 0.0
H2952 H 0.81376 0.36277 0.60909 0.0
H2953 H 0.92878 0.41252 0.54105 0.0
H2954 H 0.90281 0.3787 0.56448 0.0
H2955 H 0.91751 0.43735 0.64945 0.0
H2956 H 0.9441 0.47105 0.62643 0.0
H2957 H 0.86041 0.37034 0.59151 0.0
H2958 H 0.92506 0.41241 0.70582 0.0
H2959 H 0.97116 0.43704 0.72476 0.0
H2960 H 0.99383 0.4093 0.63791 0.0
H2961 H 0.94791 0.38421 0.61855 0.0
C2962 C 0.80961 0.31361 0.69451 0.0
C2963 C 0.81933 0.29647 0.70359 0.0
C2964 C 0.82422 0.33045 0.67816 0.0
C2965 C 0.84852 0.32996 0.67001 0.0
C2966 C 0.85822 0.31282 0.6791 0.0
C2967 C 0.84382 0.29631 0.69585 0.0
C2968 C 0.8641 0.34775 0.65263 0.0
C2969 C 0.88991 0.36363 0.66375 0.0
C2970 C 0.85359 0.34956 0.62571 0.0
C2971 C 0.82734 0.33154 0.61124 0.0
C2972 C 0.82058 0.30409 0.60436 0.0
C2973 C 0.79579 0.28718 0.59092 0.0
C2974 C 0.77763 0.29748 0.58404 0.0
C2975 C 0.78425 0.32471 0.59053 0.0
C2976 C 0.80901 0.34171 0.60401 0.0
C2977 C 0.92641 0.41819 0.56471 0.0
C2978 C 0.9387 0.44433 0.58203 0.0
C2979 C 0.91152 0.39888 0.57803 0.0
C2980 C 0.90864 0.40545 0.60879 0.0
C2981 C 0.91999 0.43176 0.62581 0.0
C2982 C 0.93507 0.45101 0.6126 0.0
C2983 C 0.89417 0.38481 0.62336 0.0
C2984 C 0.86864 0.36842 0.61171 0.0
C2985 C 0.90527 0.38176 0.64912 0.0
C2986 C 0.93299 0.39663 0.66068 0.0
C2987 C 0.93988 0.41148 0.69079 0.0
C2988 C 0.96598 0.42553 0.7016 0.0
C2989 C 0.9854 0.42479 0.68253 0.0
C2990 C 0.97877 0.40993 0.65263 0.0
C2991 C 0.9527 0.39582 0.64172 0.0
H2992 H 1.0056 0.43569 0.69093 0.0
H2993 H 0.75845 0.28435 0.57363 0.0
H2994 H 0.26193 0.6666 0.64483 0.0
H2995 H 0.23811 0.63751 0.59692 0.0
H2996 H 0.19216 0.68587 0.59948 0.0
H2997 H 0.21662 0.71546 0.6462 0.0
H2998 H 0.19222 0.60797 0.59051 0.0
H2999 H 0.16131 0.67894 0.53627 0.0
H3000 H 0.18235 0.72063 0.52284 0.0
H3001 H 0.25575 0.71093 0.52555 0.0
H3002 H 0.23514 0.66895 0.53853 0.0
H3003 H 0.06227 0.58632 0.54178 0.0
H3004 H 0.10762 0.61602 0.54821 0.0
H3005 H 0.12897 0.55267 0.49627 0.0
H3006 H 0.08337 0.52284 0.4898 0.0
H3007 H 0.15158 0.63196 0.51217 0.0
H3008 H 0.17895 0.55468 0.54147 0.0
H3009 H 0.15872 0.51045 0.54947 0.0
H3010 H 0.09764 0.53221 0.59127 0.0
H3011 H 0.11777 0.57668 0.58389 0.0
C3012 C 0.24716 0.67133 0.63472 0.0
C3013 C 0.24093 0.69313 0.64944 0.0
C3014 C 0.23361 0.65474 0.60728 0.0
C3015 C 0.21336 0.65945 0.59429 0.0
C3016 C 0.2081 0.68203 0.60836 0.0
C3017 C 0.22193 0.69884 0.63543 0.0
C3018 C 0.19479 0.63885 0.56943 0.0
C3019 C 0.1841 0.61316 0.57273 0.0
C3020 C 0.18406 0.64518 0.54585 0.0
C3021 C 0.19663 0.67072 0.53847 0.0
C3022 C 0.18191 0.68557 0.53383 0.0
C3023 C 0.19378 0.7093 0.52633 0.0
C3024 C 0.22037 0.71843 0.52335 0.0
C3025 C 0.23516 0.70387 0.52793 0.0
C3026 C 0.2234 0.68012 0.53543 0.0
C3027 C 0.07655 0.579 0.53096 0.0
C3028 C 0.06956 0.55243 0.51536 0.0
C3029 C 0.10236 0.596 0.53434 0.0
C3030 C 0.12157 0.58648 0.52273 0.0
C3031 C 0.11434 0.56038 0.50518 0.0
C3032 C 0.08841 0.5434 0.50156 0.0
C3033 C 0.14881 0.60228 0.53475 0.0
C3034 C 0.16084 0.62686 0.52913 0.0
C3035 C 0.16125 0.59486 0.5557 0.0
C3036 C 0.14973 0.56883 0.56189 0.0
C3037 C 0.16132 0.55005 0.55257 0.0
C3038 C 0.14986 0.52496 0.55696 0.0
C3039 C 0.12687 0.51852 0.57076 0.0
C3040 C 0.11542 0.53723 0.58053 0.0
C3041 C 0.12687 0.56238 0.57629 0.0
H3042 H 0.11796 0.49902 0.57385 0.0
H3043 H 0.2295 0.73677 0.51747 0.0
loop_
_geom_bond_atom_site_label_1
_geom_bond_atom_site_label_2
_geom_bond_distance
_geom_bond_site_symmetry_2
_ccdc_geom_bond_type
Eu0 C9 2.828 . S
Eu0 O11 2.392 . S
Eu0 O13 2.418 . S
Eu0 O18 2.373 . S
Eu0 O21 2.488 . S
Eu0 O22 2.471 . S
Eu0 O23 2.349 . S
Eu1 O10 2.373 . S
Eu1 O14 2.488 . S
Eu1 O15 2.471 . S
Eu1 O16 2.349 . S
Eu1 O19 2.392 . S
Eu1 O20 2.418 . S
Eu1 C30 2.828 . S
C2 O20 1.244 . S
C2 O23 1.265 . S
C3 C4 1.379 . S
C3 C7 1.373 . S
C3 C9 1.505 . S
C4 C3 1.379 . S
C4 C6 1.369 . S
C4 H32 0.930 . S
C5 C7 1.383 . S
C5 C8 1.382 . S
C5 H33 0.930 . S
C6 C4 1.369 . S
C6 C8 1.392 . S
C6 H34 0.930 . S
C7 C3 1.373 . S
C7 C5 1.383 . S
C7 H35 0.931 . S
C8 C5 1.382 . S
C8 C6 1.392 . S
C9 Eu0 2.828 . S
C9 C3 1.505 . S
C9 O21 1.249 . S
C9 O22 1.244 . S
O10 Eu1 2.373 . S
O10 C12 1.258 . S
O11 Eu0 2.392 . S
O11 C12 1.242 . S
C12 O10 1.258 . S
C12 O11 1.242 . S
O13 Eu0 2.418 . S
O13 C17 1.244 . S
O14 Eu1 2.488 . S
O14 C30 1.249 . S
O15 Eu1 2.471 . S
O15 C30 1.244 . S
O16 Eu1 2.349 . S
O16 C17 1.265 . S
C17 O13 1.244 . S
C17 O16 1.265 . S
O18 Eu0 2.373 . S
O18 C31 1.258 . S
O19 Eu1 2.392 . S
O19 C31 1.242 . S
O20 Eu1 2.418 . S
O20 C2 1.244 . S
O21 Eu0 2.488 . S
O21 C9 1.249 . S
O22 Eu0 2.471 . S
O22 C9 1.244 . S
O23 Eu0 2.349 . S
O23 C2 1.265 . S
C24 C25 1.379 . S
C24 C28 1.373 . S
C24 C30 1.505 . S
C25 C24 1.379 . S
C25 C27 1.369 . S
C25 H36 0.930 . S
C26 C28 1.383 . S
C26 C29 1.382 . S
C26 H37 0.930 . S
C27 C25 1.369 . S
C27 C29 1.392 . S
C27 H38 0.930 . S
C28 C24 1.373 . S
C28 C26 1.383 . S
C28 H39 0.931 . S
C29 C26 1.382 . S
C29 C27 1.392 . S
C30 Eu1 2.828 . S
C30 O14 1.249 . S
C30 O15 1.244 . S
C30 C24 1.505 . S
C31 O18 1.258 . S
C31 O19 1.242 . S
H32 C4 0.930 . S
H33 C5 0.930 . S
H34 C6 0.930 . S
H35 C7 0.931 . S
H36 C25 0.930 . S
H37 C26 0.930 . S
H38 C27 0.930 . S
H39 C28 0.931 . S
Eu40 C49 2.828 . S
Eu40 O51 2.392 . S
Eu40 O53 2.418 . S
Eu40 O58 2.373 . S
Eu40 O61 2.488 . S
Eu40 O62 2.471 . S
Eu40 O63 2.349 . S
Eu41 O50 2.373 . S
Eu41 O54 2.488 . S
Eu41 O55 2.471 . S
Eu41 O56 2.349 . S
Eu41 O59 2.392 . S
Eu41 O60 2.418 . S
Eu41 C70 2.828 . S
C42 O60 1.244 . S
C42 O63 1.265 . S
C43 C44 1.379 . S
C43 C47 1.373 . S
C43 C49 1.505 . S
C44 C43 1.379 . S
C44 C46 1.369 . S
C44 H72 0.930 . S
C45 C47 1.383 . S
C45 C48 1.382 . S
C45 H73 0.930 . S
C46 C44 1.369 . S
C46 C48 1.392 . S
C46 H74 0.930 . S
C47 C43 1.373 . S
C47 C45 1.383 . S
C47 H75 0.931 . S
C48 C45 1.382 . S
C48 C46 1.392 . S
C49 Eu40 2.828 . S
C49 C43 1.505 . S
C49 O61 1.249 . S
C49 O62 1.244 . S
O50 Eu41 2.373 . S
O50 C52 1.258 . S
O51 Eu40 2.392 . S
O51 C52 1.242 . S
C52 O50 1.258 . S
C52 O51 1.242 . S
O53 Eu40 2.418 . S
O53 C57 1.244 . S
O54 Eu41 2.488 . S
O54 C70 1.249 . S
O55 Eu41 2.471 . S
O55 C70 1.244 . S
O56 Eu41 2.349 . S
O56 C57 1.265 . S
C57 O53 1.244 . S
C57 O56 1.265 . S
O58 Eu40 2.373 . S
O58 C71 1.258 . S
O59 Eu41 2.392 . S
O59 C71 1.242 . S
O60 Eu41 2.418 . S
O60 C42 1.244 . S
O61 Eu40 2.488 . S
O61 C49 1.249 . S
O62 Eu40 2.471 . S
O62 C49 1.244 . S
O63 Eu40 2.349 . S
O63 C42 1.265 . S
C64 C65 1.379 . S
C64 C68 1.373 . S
C64 C70 1.505 . S
C65 C64 1.379 . S
C65 C67 1.369 . S
C65 H76 0.930 . S
C66 C68 1.383 . S
C66 C69 1.382 . S
C66 H77 0.930 . S
C67 C65 1.369 . S
C67 C69 1.392 . S
C67 H78 0.930 . S
C68 C64 1.373 . S
C68 C66 1.383 . S
C68 H79 0.931 . S
C69 C66 1.382 . S
C69 C67 1.392 . S
C70 Eu41 2.828 . S
C70 O54 1.249 . S
C70 O55 1.244 . S
C70 C64 1.505 . S
C71 O58 1.258 . S
C71 O59 1.242 . S
H72 C44 0.930 . S
H73 C45 0.930 . S
H74 C46 0.930 . S
H75 C47 0.931 . S
H76 C65 0.930 . S
H77 C66 0.930 . S
H78 C67 0.930 . S
H79 C68 0.931 . S
Eu80 C89 2.828 . S
Eu80 O91 2.392 . S
Eu80 O93 2.418 . S
Eu80 O98 2.373 . S
Eu80 O101 2.488 . S
Eu80 O102 2.471 . S
Eu80 O103 2.349 . S
Eu81 O90 2.373 . S
Eu81 O94 2.488 . S
Eu81 O95 2.471 . S
Eu81 O96 2.349 . S
Eu81 O99 2.392 . S
Eu81 O100 2.418 . S
Eu81 C110 2.828 . S
C82 O100 1.244 . S
C82 O103 1.265 . S
C83 C84 1.379 . S
C83 C87 1.373 . S
C83 C89 1.505 . S
C84 C83 1.379 . S
C84 C86 1.369 . S
C84 H112 0.930 . S
C85 C87 1.383 . S
C85 C88 1.382 . S
C85 H113 0.930 . S
C86 C84 1.369 . S
C86 C88 1.392 . S
C86 H114 0.930 . S
C87 C83 1.373 . S
C87 C85 1.383 . S
C87 H115 0.931 . S
C88 C85 1.382 . S
C88 C86 1.392 . S
C89 Eu80 2.828 . S
C89 C83 1.505 . S
C89 O101 1.249 . S
C89 O102 1.244 . S
O90 Eu81 2.373 . S
O90 C92 1.258 . S
O91 Eu80 2.392 . S
O91 C92 1.242 . S
C92 O90 1.258 . S
C92 O91 1.242 . S
O93 Eu80 2.418 . S
O93 C97 1.244 . S
O94 Eu81 2.488 . S
O94 C110 1.249 . S
O95 Eu81 2.471 . S
O95 C110 1.244 . S
O96 Eu81 2.349 . S
O96 C97 1.265 . S
C97 O93 1.244 . S
C97 O96 1.265 . S
O98 Eu80 2.373 . S
O98 C111 1.258 . S
O99 Eu81 2.392 . S
O99 C111 1.242 . S
O100 Eu81 2.418 . S
O100 C82 1.244 . S
O101 Eu80 2.488 . S
O101 C89 1.249 . S
O102 Eu80 2.471 . S
O102 C89 1.244 . S
O103 Eu80 2.349 . S
O103 C82 1.265 . S
C104 C105 1.379 . S
C104 C108 1.373 . S
C104 C110 1.505 . S
C105 C104 1.379 . S
C105 C107 1.369 . S
C105 H116 0.930 . S
C106 C108 1.383 . S
C106 C109 1.382 . S
C106 H117 0.930 . S
C107 C105 1.369 . S
C107 C109 1.392 . S
C107 H118 0.930 . S
C108 C104 1.373 . S
C108 C106 1.383 . S
C108 H119 0.931 . S
C109 C106 1.382 . S
C109 C107 1.392 . S
C110 Eu81 2.828 . S
C110 O94 1.249 . S
C110 O95 1.244 . S
C110 C104 1.505 . S
C111 O98 1.258 . S
C111 O99 1.242 . S
H112 C84 0.930 . S
H113 C85 0.930 . S
H114 C86 0.930 . S
H115 C87 0.931 . S
H116 C105 0.930 . S
H117 C106 0.930 . S
H118 C107 0.930 . S
H119 C108 0.931 . S
Eu120 C129 2.828 . S
Eu120 O131 2.392 . S
Eu120 O133 2.418 . S
Eu120 O138 2.373 . S
Eu120 O141 2.488 . S
Eu120 O142 2.471 . S
Eu120 O143 2.349 . S
Eu121 O130 2.373 . S
Eu121 O134 2.488 . S
Eu121 O135 2.471 . S
Eu121 O136 2.349 . S
Eu121 O139 2.392 . S
Eu121 O140 2.418 . S
Eu121 C150 2.828 . S
C122 O140 1.244 . S
C122 O143 1.265 . S
C123 C124 1.379 . S
C123 C127 1.373 . S
C123 C129 1.505 . S
C124 C123 1.379 . S
C124 C126 1.369 . S
C124 H152 0.930 . S
C125 C127 1.383 . S
C125 C128 1.382 . S
C125 H153 0.930 . S
C126 C124 1.369 . S
C126 C128 1.392 . S
C126 H154 0.930 . S
C127 C123 1.373 . S
C127 C125 1.383 . S
C127 H155 0.931 . S
C128 C125 1.382 . S
C128 C126 1.392 . S
C129 Eu120 2.828 . S
C129 C123 1.505 . S
C129 O141 1.249 . S
C129 O142 1.244 . S
O130 Eu121 2.373 . S
O130 C132 1.258 . S
O131 Eu120 2.392 . S
O131 C132 1.242 . S
C132 O130 1.258 . S
C132 O131 1.242 . S
O133 Eu120 2.418 . S
O133 C137 1.244 . S
O134 Eu121 2.488 . S
O134 C150 1.249 . S
O135 Eu121 2.471 . S
O135 C150 1.244 . S
O136 Eu121 2.349 . S
O136 C137 1.265 . S
C137 O133 1.244 . S
C137 O136 1.265 . S
O138 Eu120 2.373 . S
O138 C151 1.258 . S
O139 Eu121 2.392 . S
O139 C151 1.242 . S
O140 Eu121 2.418 . S
O140 C122 1.244 . S
O141 Eu120 2.488 . S
O141 C129 1.249 . S
O142 Eu120 2.471 . S
O142 C129 1.244 . S
O143 Eu120 2.349 . S
O143 C122 1.265 . S
C144 C145 1.379 . S
C144 C148 1.373 . S
C144 C150 1.505 . S
C145 C144 1.379 . S
C145 C147 1.369 . S
C145 H156 0.930 . S
C146 C148 1.383 . S
C146 C149 1.382 . S
C146 H157 0.930 . S
C147 C145 1.369 . S
C147 C149 1.392 . S
C147 H158 0.930 . S
C148 C144 1.373 . S
C148 C146 1.383 . S
C148 H159 0.931 . S
C149 C146 1.382 . S
C149 C147 1.392 . S
C150 Eu121 2.828 . S
C150 O134 1.249 . S
C150 O135 1.244 . S
C150 C144 1.505 . S
C151 O138 1.258 . S
C151 O139 1.242 . S
H152 C124 0.930 . S
H153 C125 0.930 . S
H154 C126 0.930 . S
H155 C127 0.931 . S
H156 C145 0.930 . S
H157 C146 0.930 . S
H158 C147 0.930 . S
H159 C148 0.931 . S
Eu160 C169 2.828 . S
Eu160 O171 2.392 . S
Eu160 O173 2.418 . S
Eu160 O178 2.373 . S
Eu160 O181 2.488 . S
Eu160 O182 2.471 . S
Eu160 O183 2.349 . S
Eu161 O170 2.373 . S
Eu161 O174 2.488 . S
Eu161 O175 2.471 . S
Eu161 O176 2.349 . S
Eu161 O179 2.392 . S
Eu161 O180 2.418 . S
Eu161 C190 2.828 . S
C162 O180 1.244 . S
C162 O183 1.265 . S
C163 C164 1.379 . S
C163 C167 1.373 . S
C163 C169 1.505 . S
C164 C163 1.379 . S
C164 C166 1.369 . S
C164 H192 0.930 . S
C165 C167 1.383 . S
C165 C168 1.382 . S
C165 H193 0.930 . S
C166 C164 1.369 . S
C166 C168 1.392 . S
C166 H194 0.930 . S
C167 C163 1.373 . S
C167 C165 1.383 . S
C167 H195 0.931 . S
C168 C165 1.382 . S
C168 C166 1.392 . S
C169 Eu160 2.828 . S
C169 C163 1.505 . S
C169 O181 1.249 . S
C169 O182 1.244 . S
O170 Eu161 2.373 . S
O170 C172 1.258 . S
O171 Eu160 2.392 . S
O171 C172 1.242 . S
C172 O170 1.258 . S
C172 O171 1.242 . S
O173 Eu160 2.418 . S
O173 C177 1.244 . S
O174 Eu161 2.488 . S
O174 C190 1.249 . S
O175 Eu161 2.471 . S
O175 C190 1.244 . S
O176 Eu161 2.349 . S
O176 C177 1.265 . S
C177 O173 1.244 . S
C177 O176 1.265 . S
O178 Eu160 2.373 . S
O178 C191 1.258 . S
O179 Eu161 2.392 . S
O179 C191 1.242 . S
O180 Eu161 2.418 . S
O180 C162 1.244 . S
O181 Eu160 2.488 . S
O181 C169 1.249 . S
O182 Eu160 2.471 . S
O182 C169 1.244 . S
O183 Eu160 2.349 . S
O183 C162 1.265 . S
C184 C185 1.379 . S
C184 C188 1.373 . S
C184 C190 1.505 . S
C185 C184 1.379 . S
C185 C187 1.369 . S
C185 H196 0.930 . S
C186 C188 1.383 . S
C186 C189 1.382 . S
C186 H197 0.930 . S
C187 C185 1.369 . S
C187 C189 1.392 . S
C187 H198 0.930 . S
C188 C184 1.373 . S
C188 C186 1.383 . S
C188 H199 0.931 . S
C189 C186 1.382 . S
C189 C187 1.392 . S
C190 Eu161 2.828 . S
C190 O174 1.249 . S
C190 O175 1.244 . S
C190 C184 1.505 . S
C191 O178 1.258 . S
C191 O179 1.242 . S
H192 C164 0.930 . S
H193 C165 0.930 . S
H194 C166 0.930 . S
H195 C167 0.931 . S
H196 C185 0.930 . S
H197 C186 0.930 . S
H198 C187 0.930 . S
H199 C188 0.931 . S
Eu200 C209 2.828 . S
Eu200 O211 2.392 . S
Eu200 O213 2.418 . S
Eu200 O218 2.373 . S
Eu200 O221 2.488 . S
Eu200 O222 2.471 . S
Eu200 O223 2.349 . S
Eu201 O210 2.373 . S
Eu201 O214 2.488 . S
Eu201 O215 2.471 . S
Eu201 O216 2.349 . S
Eu201 O219 2.392 . S
Eu201 O220 2.418 . S
Eu201 C230 2.828 . S
C202 O220 1.244 . S
C202 O223 1.265 . S
C203 C204 1.379 . S
C203 C207 1.373 . S
C203 C209 1.505 . S
C204 C203 1.379 . S
C204 C206 1.369 . S
C204 H232 0.930 . S
C205 C207 1.383 . S
C205 C208 1.382 . S
C205 H233 0.930 . S
C206 C204 1.369 . S
C206 C208 1.392 . S
C206 H234 0.930 . S
C207 C203 1.373 . S
C207 C205 1.383 . S
C207 H235 0.931 . S
C208 C205 1.382 . S
C208 C206 1.392 . S
C209 Eu200 2.828 . S
C209 C203 1.505 . S
C209 O221 1.249 . S
C209 O222 1.244 . S
O210 Eu201 2.373 . S
O210 C212 1.258 . S
O211 Eu200 2.392 . S
O211 C212 1.242 . S
C212 O210 1.258 . S
C212 O211 1.242 . S
O213 Eu200 2.418 . S
O213 C217 1.244 . S
O214 Eu201 2.488 . S
O214 C230 1.249 . S
O215 Eu201 2.471 . S
O215 C230 1.244 . S
O216 Eu201 2.349 . S
O216 C217 1.265 . S
C217 O213 1.244 . S
C217 O216 1.265 . S
O218 Eu200 2.373 . S
O218 C231 1.258 . S
O219 Eu201 2.392 . S
O219 C231 1.242 . S
O220 Eu201 2.418 . S
O220 C202 1.244 . S
O221 Eu200 2.488 . S
O221 C209 1.249 . S
O222 Eu200 2.471 . S
O222 C209 1.244 . S
O223 Eu200 2.349 . S
O223 C202 1.265 . S
C224 C225 1.379 . S
C224 C228 1.373 . S
C224 C230 1.505 . S
C225 C224 1.379 . S
C225 C227 1.369 . S
C225 H236 0.930 . S
C226 C228 1.383 . S
C226 C229 1.382 . S
C226 H237 0.930 . S
C227 C225 1.369 . S
C227 C229 1.392 . S
C227 H238 0.930 . S
C228 C224 1.373 . S
C228 C226 1.383 . S
C228 H239 0.931 . S
C229 C226 1.382 . S
C229 C227 1.392 . S
C230 Eu201 2.828 . S
C230 O214 1.249 . S
C230 O215 1.244 . S
C230 C224 1.505 . S
C231 O218 1.258 . S
C231 O219 1.242 . S
H232 C204 0.930 . S
H233 C205 0.930 . S
H234 C206 0.930 . S
H235 C207 0.931 . S
H236 C225 0.930 . S
H237 C226 0.930 . S
H238 C227 0.930 . S
H239 C228 0.931 . S
Eu240 C249 2.828 . S
Eu240 O251 2.392 . S
Eu240 O253 2.418 . S
Eu240 O258 2.373 . S
Eu240 O261 2.488 . S
Eu240 O262 2.471 . S
Eu240 O263 2.349 . S
Eu241 O250 2.373 . S
Eu241 O254 2.488 . S
Eu241 O255 2.471 . S
Eu241 O256 2.349 . S
Eu241 O259 2.392 . S
Eu241 O260 2.418 . S
Eu241 C270 2.828 . S
C242 O260 1.244 . S
C242 O263 1.265 . S
C243 C244 1.379 . S
C243 C247 1.373 . S
C243 C249 1.505 . S
C244 C243 1.379 . S
C244 C246 1.369 . S
C244 H272 0.930 . S
C245 C247 1.383 . S
C245 C248 1.382 . S
C245 H273 0.930 . S
C246 C244 1.369 . S
C246 C248 1.392 . S
C246 H274 0.930 . S
C247 C243 1.373 . S
C247 C245 1.383 . S
C247 H275 0.931 . S
C248 C245 1.382 . S
C248 C246 1.392 . S
C249 Eu240 2.828 . S
C249 C243 1.505 . S
C249 O261 1.249 . S
C249 O262 1.244 . S
O250 Eu241 2.373 . S
O250 C252 1.258 . S
O251 Eu240 2.392 . S
O251 C252 1.242 . S
C252 O250 1.258 . S
C252 O251 1.242 . S
O253 Eu240 2.418 . S
O253 C257 1.244 . S
O254 Eu241 2.488 . S
O254 C270 1.249 . S
O255 Eu241 2.471 . S
O255 C270 1.244 . S
O256 Eu241 2.349 . S
O256 C257 1.265 . S
C257 O253 1.244 . S
C257 O256 1.265 . S
O258 Eu240 2.373 . S
O258 C271 1.258 . S
O259 Eu241 2.392 . S
O259 C271 1.242 . S
O260 Eu241 2.418 . S
O260 C242 1.244 . S
O261 Eu240 2.488 . S
O261 C249 1.249 . S
O262 Eu240 2.471 . S
O262 C249 1.244 . S
O263 Eu240 2.349 . S
O263 C242 1.265 . S
C264 C265 1.379 . S
C264 C268 1.373 . S
C264 C270 1.505 . S
C265 C264 1.379 . S
C265 C267 1.369 . S
C265 H276 0.930 . S
C266 C268 1.383 . S
C266 C269 1.382 . S
C266 H277 0.930 . S
C267 C265 1.369 . S
C267 C269 1.392 . S
C267 H278 0.930 . S
C268 C264 1.373 . S
C268 C266 1.383 . S
C268 H279 0.931 . S
C269 C266 1.382 . S
C269 C267 1.392 . S
C270 Eu241 2.828 . S
C270 O254 1.249 . S
C270 O255 1.244 . S
C270 C264 1.505 . S
C271 O258 1.258 . S
C271 O259 1.242 . S
H272 C244 0.930 . S
H273 C245 0.930 . S
H274 C246 0.930 . S
H275 C247 0.931 . S
H276 C265 0.930 . S
H277 C266 0.930 . S
H278 C267 0.930 . S
H279 C268 0.931 . S
Eu280 C289 2.828 . S
Eu280 O291 2.392 . S
Eu280 O293 2.418 . S
Eu280 O298 2.373 . S
Eu280 O301 2.488 . S
Eu280 O302 2.471 . S
Eu280 O303 2.349 . S
Eu281 O290 2.373 . S
Eu281 O294 2.488 . S
Eu281 O295 2.471 . S
Eu281 O296 2.349 . S
Eu281 O299 2.392 . S
Eu281 O300 2.418 . S
Eu281 C310 2.828 . S
C282 O300 1.244 . S
C282 O303 1.265 . S
C283 C284 1.379 . S
C283 C287 1.373 . S
C283 C289 1.505 . S
C284 C283 1.379 . S
C284 C286 1.369 . S
C284 H312 0.930 . S
C285 C287 1.383 . S
C285 C288 1.382 . S
C285 H313 0.930 . S
C286 C284 1.369 . S
C286 C288 1.392 . S
C286 H314 0.930 . S
C287 C283 1.373 . S
C287 C285 1.383 . S
C287 H315 0.931 . S
C288 C285 1.382 . S
C288 C286 1.392 . S
C289 Eu280 2.828 . S
C289 C283 1.505 . S
C289 O301 1.249 . S
C289 O302 1.244 . S
O290 Eu281 2.373 . S
O290 C292 1.258 . S
O291 Eu280 2.392 . S
O291 C292 1.242 . S
C292 O290 1.258 . S
C292 O291 1.242 . S
O293 Eu280 2.418 . S
O293 C297 1.244 . S
O294 Eu281 2.488 . S
O294 C310 1.249 . S
O295 Eu281 2.471 . S
O295 C310 1.244 . S
O296 Eu281 2.349 . S
O296 C297 1.265 . S
C297 O293 1.244 . S
C297 O296 1.265 . S
O298 Eu280 2.373 . S
O298 C311 1.258 . S
O299 Eu281 2.392 . S
O299 C311 1.242 . S
O300 Eu281 2.418 . S
O300 C282 1.244 . S
O301 Eu280 2.488 . S
O301 C289 1.249 . S
O302 Eu280 2.471 . S
O302 C289 1.244 . S
O303 Eu280 2.349 . S
O303 C282 1.265 . S
C304 C305 1.379 . S
C304 C308 1.373 . S
C304 C310 1.505 . S
C305 C304 1.379 . S
C305 C307 1.369 . S
C305 H316 0.930 . S
C306 C308 1.383 . S
C306 C309 1.382 . S
C306 H317 0.930 . S
C307 C305 1.369 . S
C307 C309 1.392 . S
C307 H318 0.930 . S
C308 C304 1.373 . S
C308 C306 1.383 . S
C308 H319 0.931 . S
C309 C306 1.382 . S
C309 C307 1.392 . S
C310 Eu281 2.828 . S
C310 O294 1.249 . S
C310 O295 1.244 . S
C310 C304 1.505 . S
C311 O298 1.258 . S
C311 O299 1.242 . S
H312 C284 0.930 . S
H313 C285 0.930 . S
H314 C286 0.930 . S
H315 C287 0.931 . S
H316 C305 0.930 . S
H317 C306 0.930 . S
H318 C307 0.930 . S
H319 C308 0.931 . S
Cd320 N323 2.334 1_655 S
Cd320 N349 2.304 1_565 S
Cd320 O356 2.268 . S
Cd320 O359 2.273 1_665 S
Cd320 O360 2.417 . S
Cd320 O361 2.330 . S
Cd321 N336 2.304 1_455 S
Cd321 N340 2.334 1_545 S
Cd321 O357 2.273 1_445 S
Cd321 O358 2.268 . S
Cd321 O362 2.417 . S
Cd321 O363 2.330 . S
C322 N323 1.332 . S
C322 C326 1.381 . S
C322 H328 0.931 . S
N323 Cd320 2.334 1_455 S
N323 C322 1.332 . S
N323 C327 1.328 . S
C324 C325 1.396 . S
C324 C327 1.378 . S
C324 H366 0.931 . S
C325 C324 1.396 . S
C325 C326 1.382 . S
C326 C322 1.381 . S
C326 C325 1.382 . S
C326 H367 0.930 . S
C327 N323 1.328 . S
C327 C324 1.378 . S
C327 H329 0.930 1_455 S
H328 C322 0.931 . S
H329 C327 0.930 1_655 S
C330 O356 1.238 . S
C330 O357 1.253 . S
C331 C332 1.379 . S
C331 N336 1.337 . S
C331 H337 0.929 . S
C332 C331 1.379 . S
C332 C333 1.380 . S
C332 H368 0.929 . S
C333 C332 1.380 . S
C333 C334 1.399 . S
C334 C333 1.399 . S
C334 C335 1.415 . S
C334 H369 0.931 . S
C335 C334 1.415 . S
C335 N336 1.330 . S
C335 H338 0.899 1_655 S
N336 Cd321 2.304 1_655 S
N336 C331 1.337 . S
N336 C335 1.330 . S
H337 C331 0.929 . S
H338 C335 0.899 1_455 S
C339 N340 1.332 . S
C339 C343 1.381 . S
C339 H345 0.931 . S
N340 Cd321 2.334 1_565 S
N340 C339 1.332 . S
N340 C344 1.328 . S
C341 C342 1.396 . S
C341 C344 1.378 . S
C341 H370 0.931 . S
C342 C341 1.396 . S
C342 C343 1.382 . S
C343 C339 1.381 . S
C343 C342 1.382 . S
C343 H371 0.930 . S
C344 N340 1.328 . S
C344 C341 1.378 . S
C344 H346 0.930 1_565 S
H345 C339 0.931 . S
H346 C344 0.930 1_545 S
C347 O358 1.238 . S
C347 O359 1.253 . S
C348 O360 1.239 . S
C348 O361 1.230 . S
N349 Cd320 2.304 1_545 S
N349 C350 1.337 . S
N349 C354 1.338 . S
C350 N349 1.337 . S
C350 C351 1.379 . S
C350 H364 0.929 . S
C351 C350 1.379 . S
C351 C352 1.380 . S
C351 H372 0.929 . S
C352 C351 1.380 . S
C352 C353 1.399 . S
C353 C352 1.399 . S
C353 C354 1.376 . S
C353 H373 0.931 . S
C354 N349 1.338 . S
C354 C353 1.376 . S
C354 H365 0.930 1_545 S
C355 O362 1.239 . S
C355 O363 1.230 . S
O356 Cd320 2.268 . S
O356 C330 1.238 . S
O357 Cd321 2.273 1_665 S
O357 C330 1.253 . S
O358 Cd321 2.268 . S
O358 C347 1.238 . S
O359 Cd320 2.273 1_445 S
O359 C347 1.253 . S
O360 Cd320 2.417 . S
O360 C348 1.239 . S
O361 Cd320 2.330 . S
O361 C348 1.230 . S
O362 Cd321 2.417 . S
O362 C355 1.239 . S
O363 Cd321 2.330 . S
O363 C355 1.230 . S
H364 C350 0.929 . S
H365 C354 0.930 1_565 S
H366 C324 0.931 . S
H367 C326 0.930 . S
H368 C332 0.929 . S
H369 C334 0.931 . S
H370 C341 0.931 . S
H371 C343 0.930 . S
H372 C351 0.929 . S
H373 C353 0.931 . S
Cd374 N377 2.334 . S
Cd374 N403 2.304 1_565 S
Cd374 O410 2.268 1_554 S
Cd374 O413 2.273 1_565 S
Cd374 O414 2.417 . S
Cd374 O415 2.330 . S
Cd375 N390 2.304 . S
Cd375 N394 2.334 1_545 S
Cd375 O411 2.273 1_545 S
Cd375 O412 2.268 1_556 S
Cd375 O416 2.417 . S
Cd375 O417 2.330 . S
C376 N377 1.332 . S
C376 C380 1.381 . S
C376 H382 0.931 . S
N377 Cd374 2.334 . S
N377 C376 1.332 . S
N377 C381 1.328 . S
C378 C379 1.396 . S
C378 C381 1.378 . S
C378 H420 0.931 1_554 S
C379 C378 1.396 . S
C379 C380 1.382 . S
C380 C376 1.381 . S
C380 C379 1.382 . S
C380 H421 0.930 . S
C381 N377 1.328 . S
C381 C378 1.378 . S
C381 H383 0.930 1_554 S
H382 C376 0.931 . S
H383 C381 0.930 1_556 S
C384 O410 1.238 . S
C384 O411 1.253 . S
C385 C386 1.379 . S
C385 N390 1.337 . S
C385 H391 0.929 . S
C386 C385 1.379 . S
C386 C387 1.380 . S
C386 H422 0.929 . S
C387 C386 1.380 . S
C387 C388 1.399 . S
C388 C387 1.399 . S
C388 C389 1.376 . S
C388 H423 0.931 1_556 S
C389 C388 1.376 . S
C389 N390 1.338 . S
C389 H392 0.930 1_556 S
N390 Cd375 2.304 . S
N390 C385 1.337 . S
N390 C389 1.338 . S
H391 C385 0.929 . S
H392 C389 0.930 1_554 S
C393 N394 1.332 . S
C393 C397 1.381 . S
C393 H399 0.931 . S
N394 Cd375 2.334 1_565 S
N394 C393 1.332 . S
N394 C398 1.328 . S
C395 C396 1.396 . S
C395 C398 1.378 . S
C395 H424 0.931 1_556 S
C396 C395 1.396 . S
C396 C397 1.382 . S
C397 C393 1.381 . S
C397 C396 1.382 . S
C397 H425 0.930 . S
C398 N394 1.328 . S
C398 C395 1.378 . S
C398 H400 0.930 1_566 S
H399 C393 0.931 . S
H400 C398 0.930 1_544 S
C401 O412 1.238 . S
C401 O413 1.253 . S
C402 O414 1.239 . S
C402 O415 1.230 . S
N403 Cd374 2.304 1_545 S
N403 C404 1.337 . S
N403 C408 1.338 . S
C404 N403 1.337 . S
C404 C405 1.379 . S
C404 H418 0.929 . S
C405 C404 1.379 . S
C405 C406 1.380 . S
C405 H426 0.929 . S
C406 C405 1.380 . S
C406 C407 1.399 . S
C407 C406 1.399 . S
C407 C408 1.376 . S
C407 H427 0.915 1_554 S
C408 N403 1.338 . S
C408 C407 1.376 . S
C408 H419 0.930 1_544 S
C409 O416 1.239 . S
C409 O417 1.230 . S
O410 Cd374 2.268 1_556 S
O410 C384 1.238 . S
O411 Cd375 2.273 1_565 S
O411 C384 1.253 . S
O412 Cd375 2.268 1_554 S
O412 C401 1.238 . S
O413 Cd374 2.273 1_545 S
O413 C401 1.253 . S
O414 Cd374 2.417 . S
O414 C402 1.239 . S
O415 Cd374 2.330 . S
O415 C402 1.230 . S
O416 Cd375 2.417 . S
O416 C409 1.239 . S
O417 Cd375 2.330 . S
O417 C409 1.230 . S
H418 C404 0.929 . S
H419 C408 0.930 1_566 S
H420 C378 0.931 1_556 S
H421 C380 0.930 . S
H422 C386 0.929 . S
H423 C388 0.931 1_554 S
H424 C395 0.931 1_554 S
H425 C397 0.930 . S
H426 C405 0.929 . S
H427 C407 0.915 1_556 S
Cd428 N431 2.334 1_655 S
Cd428 N457 2.304 . S
Cd428 O464 2.268 1_554 S
Cd428 O467 2.273 1_655 S
Cd428 O468 2.417 . S
Cd428 O469 2.330 . S
Cd429 N444 2.304 1_455 S
Cd429 N448 2.334 . S
Cd429 O465 2.273 1_455 S
Cd429 O466 2.268 1_556 S
Cd429 O470 2.417 . S
Cd429 O471 2.330 . S
C430 N431 1.332 . S
C430 C434 1.381 . S
C430 H436 0.931 . S
N431 Cd428 2.334 1_455 S
N431 C430 1.332 . S
N431 C435 1.328 . S
C432 C433 1.396 . S
C432 C435 1.378 . S
C432 H474 0.931 1_554 S
C433 C432 1.396 . S
C433 C434 1.382 . S
C434 C430 1.381 . S
C434 C433 1.382 . S
C434 H475 0.930 . S
C435 N431 1.328 . S
C435 C432 1.378 . S
C435 H437 0.930 1_454 S
H436 C430 0.931 . S
H437 C435 0.930 1_656 S
C438 O464 1.238 . S
C438 O465 1.253 . S
C439 C440 1.379 . S
C439 N444 1.337 . S
C439 H445 0.929 . S
C440 C439 1.379 . S
C440 C441 1.380 . S
C440 H476 0.929 . S
C441 C440 1.380 . S
C441 C442 1.399 . S
C442 C441 1.399 . S
C442 C443 1.419 . S
C442 H477 0.931 1_556 S
C443 C442 1.419 . S
C443 N444 1.329 . S
C443 H446 0.896 1_656 S
N444 Cd429 2.304 1_655 S
N444 C439 1.337 . S
N444 C443 1.329 . S
H445 C439 0.929 . S
H446 C443 0.896 1_454 S
C447 N448 1.332 . S
C447 C451 1.381 . S
C447 H453 0.931 . S
N448 Cd429 2.334 . S
N448 C447 1.332 . S
N448 C452 1.328 . S
C449 C450 1.396 . S
C449 C452 1.378 . S
C449 H478 0.931 1_556 S
C450 C449 1.396 . S
C450 C451 1.382 . S
C451 C447 1.381 . S
C451 C450 1.382 . S
C451 H479 0.930 . S
C452 N448 1.328 . S
C452 C449 1.378 . S
C452 H454 0.930 1_556 S
H453 C447 0.931 . S
H454 C452 0.930 1_554 S
C455 O466 1.238 . S
C455 O467 1.253 . S
C456 O468 1.239 . S
C456 O469 1.230 . S
N457 Cd428 2.304 . S
N457 C458 1.337 . S
N457 C462 1.338 . S
C458 N457 1.337 . S
C458 C459 1.379 . S
C458 H472 0.929 . S
C459 C458 1.379 . S
C459 C460 1.380 . S
C459 H480 0.929 . S
C460 C459 1.380 . S
C460 C461 1.399 . S
C461 C460 1.399 . S
C461 C462 1.376 . S
C461 H481 0.915 1_554 S
C462 N457 1.338 . S
C462 C461 1.376 . S
C462 H473 0.930 1_554 S
C463 O470 1.239 . S
C463 O471 1.230 . S
O464 Cd428 2.268 1_556 S
O464 C438 1.238 . S
O465 Cd429 2.273 1_655 S
O465 C438 1.253 . S
O466 Cd429 2.268 1_554 S
O466 C455 1.238 . S
O467 Cd428 2.273 1_455 S
O467 C455 1.253 . S
O468 Cd428 2.417 . S
O468 C456 1.239 . S
O469 Cd428 2.330 . S
O469 C456 1.230 . S
O470 Cd429 2.417 . S
O470 C463 1.239 . S
O471 Cd429 2.330 . S
O471 C463 1.230 . S
H472 C458 0.929 . S
H473 C462 0.930 1_556 S
H474 C432 0.931 1_556 S
H475 C434 0.930 . S
H476 C440 0.929 . S
H477 C442 0.931 1_554 S
H478 C449 0.931 1_554 S
H479 C451 0.930 . S
H480 C459 0.929 . S
H481 C461 0.915 1_556 S
Cd482 N485 2.334 . S
Cd482 N511 2.304 . S
Cd482 O518 2.268 1_554 S
Cd482 O521 2.273 . S
Cd482 O522 2.417 . S
Cd482 O523 2.330 . S
Cd483 N498 2.304 . S
Cd483 N502 2.334 . S
Cd483 O519 2.273 . S
Cd483 O520 2.268 1_556 S
Cd483 O524 2.417 . S
Cd483 O525 2.330 . S
C484 N485 1.332 . S
C484 C488 1.381 . S
C484 H490 0.931 . S
N485 Cd482 2.334 . S
N485 C484 1.332 . S
N485 C489 1.328 . S
C486 C487 1.396 . S
C486 C489 1.378 . S
C486 H528 0.931 1_554 S
C487 C486 1.396 . S
C487 C488 1.382 . S
C488 C484 1.381 . S
C488 C487 1.382 . S
C488 H529 0.930 . S
C489 N485 1.328 . S
C489 C486 1.378 . S
C489 H491 0.930 1_554 S
H490 C484 0.931 . S
H491 C489 0.930 1_556 S
C492 O518 1.238 . S
C492 O519 1.253 . S
C493 C494 1.379 . S
C493 N498 1.337 . S
C493 H499 0.929 . S
C494 C493 1.379 . S
C494 C495 1.380 . S
C494 H530 0.929 . S
C495 C494 1.380 . S
C495 C496 1.399 . S
C496 C495 1.399 . S
C496 C497 1.376 . S
C496 H531 0.931 1_556 S
C497 C496 1.376 . S
C497 N498 1.338 . S
C497 H500 0.930 1_556 S
N498 Cd483 2.304 . S
N498 C493 1.337 . S
N498 C497 1.338 . S
H499 C493 0.929 . S
H500 C497 0.930 1_554 S
C501 N502 1.332 . S
C501 C505 1.381 . S
C501 H507 0.931 . S
N502 Cd483 2.334 . S
N502 C501 1.332 . S
N502 C506 1.328 . S
C503 C504 1.396 . S
C503 C506 1.378 . S
C503 H532 0.931 1_556 S
C504 C503 1.396 . S
C504 C505 1.382 . S
C505 C501 1.381 . S
C505 C504 1.382 . S
C505 H533 0.930 . S
C506 N502 1.328 . S
C506 C503 1.378 . S
C506 H508 0.930 1_556 S
H507 C501 0.931 . S
H508 C506 0.930 1_554 S
C509 O520 1.238 . S
C509 O521 1.253 . S
C510 O522 1.239 . S
C510 O523 1.230 . S
N511 Cd482 2.304 . S
N511 C512 1.337 . S
N511 C516 1.338 . S
C512 N511 1.337 . S
C512 C513 1.379 . S
C512 H526 0.929 . S
C513 C512 1.379 . S
C513 C514 1.380 . S
C513 H534 0.929 . S
C514 C513 1.380 . S
C514 C515 1.399 . S
C515 C514 1.399 . S
C515 C516 1.376 . S
C515 H535 0.916 1_554 S
C516 N511 1.338 . S
C516 C515 1.376 . S
C516 H527 0.930 1_554 S
C517 O524 1.239 . S
C517 O525 1.230 . S
O518 Cd482 2.268 1_556 S
O518 C492 1.238 . S
O519 Cd483 2.273 . S
O519 C492 1.253 . S
O520 Cd483 2.268 1_554 S
O520 C509 1.238 . S
O521 Cd482 2.273 . S
O521 C509 1.253 . S
O522 Cd482 2.417 . S
O522 C510 1.239 . S
O523 Cd482 2.330 . S
O523 C510 1.230 . S
O524 Cd483 2.417 . S
O524 C517 1.239 . S
O525 Cd483 2.330 . S
O525 C517 1.230 . S
H526 C512 0.929 . S
H527 C516 0.930 1_556 S
H528 C486 0.931 1_556 S
H529 C488 0.930 . S
H530 C494 0.929 . S
H531 C496 0.931 1_554 S
H532 C503 0.931 1_554 S
H533 C505 0.930 . S
H534 C513 0.929 . S
H535 C515 0.916 1_556 S
Cd536 N539 2.334 1_655 S
Cd536 N565 2.304 . S
Cd536 O572 2.268 . S
Cd536 O575 2.273 1_655 S
Cd536 O576 2.417 . S
Cd536 O577 2.330 . S
Cd537 N552 2.304 1_455 S
Cd537 N556 2.334 . S
Cd537 O573 2.273 1_455 S
Cd537 O574 2.268 . S
Cd537 O578 2.417 . S
Cd537 O579 2.330 . S
C538 N539 1.332 . S
C538 C542 1.381 . S
C538 H544 0.931 . S
N539 Cd536 2.334 1_455 S
N539 C538 1.332 . S
N539 C543 1.328 . S
C540 C541 1.396 . S
C540 C543 1.378 . S
C540 H582 0.931 . S
C541 C540 1.396 . S
C541 C542 1.382 . S
C542 C538 1.381 . S
C542 C541 1.382 . S
C542 H583 0.930 . S
C543 N539 1.328 . S
C543 C540 1.378 . S
C543 H545 0.930 1_455 S
H544 C538 0.931 . S
H545 C543 0.930 1_655 S
C546 O572 1.238 . S
C546 O573 1.253 . S
C547 C548 1.379 . S
C547 N552 1.337 . S
C547 H553 0.929 . S
C548 C547 1.379 . S
C548 C549 1.380 . S
C548 H584 0.929 . S
C549 C548 1.380 . S
C549 C550 1.399 . S
C550 C549 1.399 . S
C550 C551 1.417 . S
C550 H585 0.931 . S
C551 C550 1.417 . S
C551 N552 1.329 . S
C551 H554 0.897 1_655 S
N552 Cd537 2.304 1_655 S
N552 C547 1.337 . S
N552 C551 1.329 . S
H553 C547 0.929 . S
H554 C551 0.897 1_455 S
C555 N556 1.332 . S
C555 C559 1.381 . S
C555 H561 0.931 . S
N556 Cd537 2.334 . S
N556 C555 1.332 . S
N556 C560 1.328 . S
C557 C558 1.396 . S
C557 C560 1.378 . S
C557 H586 0.931 . S
C558 C557 1.396 . S
C558 C559 1.382 . S
C559 C555 1.381 . S
C559 C558 1.382 . S
C559 H587 0.930 . S
C560 N556 1.328 . S
C560 C557 1.378 . S
C560 H562 0.930 . S
H561 C555 0.931 . S
H562 C560 0.930 . S
C563 O574 1.238 . S
C563 O575 1.253 . S
C564 O576 1.239 . S
C564 O577 1.230 . S
N565 Cd536 2.304 . S
N565 C566 1.337 . S
N565 C570 1.338 . S
C566 N565 1.337 . S
C566 C567 1.379 . S
C566 H580 0.929 . S
C567 C566 1.379 . S
C567 C568 1.380 . S
C567 H588 0.929 . S
C568 C567 1.380 . S
C568 C569 1.399 . S
C569 C568 1.399 . S
C569 C570 1.376 . S
C569 H589 0.931 . S
C570 N565 1.338 . S
C570 C569 1.376 . S
C570 H581 0.930 . S
C571 O578 1.239 . S
C571 O579 1.230 . S
O572 Cd536 2.268 . S
O572 C546 1.238 . S
O573 Cd537 2.273 1_655 S
O573 C546 1.253 . S
O574 Cd537 2.268 . S
O574 C563 1.238 . S
O575 Cd536 2.273 1_455 S
O575 C563 1.253 . S
O576 Cd536 2.417 . S
O576 C564 1.239 . S
O577 Cd536 2.330 . S
O577 C564 1.230 . S
O578 Cd537 2.417 . S
O578 C571 1.239 . S
O579 Cd537 2.330 . S
O579 C571 1.230 . S
H580 C566 0.929 . S
H581 C570 0.930 . S
H582 C540 0.931 . S
H583 C542 0.930 . S
H584 C548 0.929 . S
H585 C550 0.931 . S
H586 C557 0.931 . S
H587 C559 0.930 . S
H588 C567 0.929 . S
H589 C569 0.931 . S
Cd590 N593 2.334 . S
Cd590 N619 2.304 1_565 S
Cd590 O626 2.268 . S
Cd590 O629 2.273 1_565 S
Cd590 O630 2.417 . S
Cd590 O631 2.330 . S
Cd591 N606 2.304 . S
Cd591 N610 2.334 1_545 S
Cd591 O627 2.273 1_545 S
Cd591 O628 2.268 . S
Cd591 O632 2.417 . S
Cd591 O633 2.330 . S
C592 N593 1.332 . S
C592 C596 1.381 . S
C592 H598 0.931 . S
N593 Cd590 2.334 . S
N593 C592 1.332 . S
N593 C597 1.328 . S
C594 C595 1.396 . S
C594 C597 1.378 . S
C594 H636 0.931 . S
C595 C594 1.396 . S
C595 C596 1.382 . S
C596 C592 1.381 . S
C596 C595 1.382 . S
C596 H637 0.930 . S
C597 N593 1.328 . S
C597 C594 1.378 . S
C597 H599 0.930 . S
H598 C592 0.931 . S
H599 C597 0.930 . S
C600 O626 1.238 . S
C600 O627 1.253 . S
C601 C602 1.379 . S
C601 N606 1.337 . S
C601 H607 0.929 . S
C602 C601 1.379 . S
C602 C603 1.380 . S
C602 H638 0.929 . S
C603 C602 1.380 . S
C603 C604 1.399 . S
C604 C603 1.399 . S
C604 C605 1.376 . S
C604 H639 0.931 . S
C605 C604 1.376 . S
C605 N606 1.338 . S
C605 H608 0.930 . S
N606 Cd591 2.304 . S
N606 C601 1.337 . S
N606 C605 1.338 . S
H607 C601 0.929 . S
H608 C605 0.930 . S
C609 N610 1.332 . S
C609 C613 1.381 . S
C609 H615 0.931 . S
N610 Cd591 2.334 1_565 S
N610 C609 1.332 . S
N610 C614 1.328 . S
C611 C612 1.396 . S
C611 C614 1.378 . S
C611 H640 0.931 . S
C612 C611 1.396 . S
C612 C613 1.382 . S
C613 C609 1.381 . S
C613 C612 1.382 . S
C613 H641 0.930 . S
C614 N610 1.328 . S
C614 C611 1.378 . S
C614 H616 0.930 1_565 S
H615 C609 0.931 . S
H616 C614 0.930 1_545 S
C617 O628 1.238 . S
C617 O629 1.253 . S
C618 O630 1.239 . S
C618 O631 1.230 . S
N619 Cd590 2.304 1_545 S
N619 C620 1.337 . S
N619 C624 1.338 . S
C620 N619 1.337 . S
C620 C621 1.379 . S
C620 H634 0.929 . S
C621 C620 1.379 . S
C621 C622 1.380 . S
C621 H642 0.929 . S
C622 C621 1.380 . S
C622 C623 1.399 . S
C623 C622 1.399 . S
C623 C624 1.376 . S
C623 H643 0.931 . S
C624 N619 1.338 . S
C624 C623 1.376 . S
C624 H635 0.930 1_545 S
C625 O632 1.239 . S
C625 O633 1.230 . S
O626 Cd590 2.268 . S
O626 C600 1.238 . S
O627 Cd591 2.273 1_565 S
O627 C600 1.253 . S
O628 Cd591 2.268 . S
O628 C617 1.238 . S
O629 Cd590 2.273 1_545 S
O629 C617 1.253 . S
O630 Cd590 2.417 . S
O630 C618 1.239 . S
O631 Cd590 2.330 . S
O631 C618 1.230 . S
O632 Cd591 2.417 . S
O632 C625 1.239 . S
O633 Cd591 2.330 . S
O633 C625 1.230 . S
H634 C620 0.929 . S
H635 C624 0.930 1_565 S
H636 C594 0.931 . S
H637 C596 0.930 . S
H638 C602 0.929 . S
H639 C604 0.931 . S
H640 C611 0.931 . S
H641 C613 0.930 . S
H642 C621 0.929 . S
H643 C623 0.931 . S
H644 C662 0.951 . S
H645 C664 0.951 . S
H646 C666 0.950 . S
H647 C667 0.950 . S
H648 C669 0.950 . S
H649 C672 0.950 . S
H650 C673 0.950 . S
H651 C675 0.950 . S
H652 C676 0.950 . S
H653 C677 0.951 . S
H654 C679 0.951 . S
H655 C681 0.950 . S
H656 C682 0.950 . S
H657 C684 0.950 . S
H658 C687 0.950 . S
H659 C688 0.950 . S
H660 C690 0.950 . S
H661 C691 0.950 . S
C662 H644 0.951 . S
C662 C663 1.366 . S
C662 C664 1.388 . S
C663 C662 1.366 . S
C663 C667 1.385 . S
C664 H645 0.951 . S
C664 C662 1.388 . S
C664 C665 1.366 . S
C665 C664 1.366 . S
C665 C666 1.414 . S
C665 C668 1.499 . S
C666 H646 0.950 . S
C666 C665 1.414 . S
C666 C667 1.374 . S
C667 H647 0.950 . S
C667 C663 1.385 . S
C667 C666 1.374 . S
C668 C665 1.499 . S
C668 C669 1.373 . S
C668 C670 1.389 . S
C669 H648 0.950 . S
C669 C668 1.373 . S
C669 C685 1.377 . S
C670 C668 1.389 . S
C670 C671 1.524 . S
C670 C684 1.377 . S
C671 C670 1.524 . S
C671 C672 1.397 . S
C671 C676 1.363 . S
C672 H649 0.950 . S
C672 C671 1.397 . S
C672 C673 1.334 . S
C673 H650 0.950 . S
C673 C672 1.334 . S
C673 C674 1.287 . S
C674 C673 1.287 . S
C674 C675 1.524 . S
C674 H693 0.913 . S
C675 H651 0.950 . S
C675 C674 1.524 . S
C675 C676 1.415 . S
C676 H652 0.950 . S
C676 C671 1.363 . S
C676 C675 1.415 . S
C677 H653 0.951 . S
C677 C678 1.366 . S
C677 C679 1.388 . S
C678 C677 1.366 . S
C678 C682 1.385 . S
C679 H654 0.951 . S
C679 C677 1.388 . S
C679 C680 1.366 . S
C680 C679 1.366 . S
C680 C681 1.414 . S
C680 C683 1.499 . S
C681 H655 0.950 . S
C681 C680 1.414 . S
C681 C682 1.374 . S
C682 H656 0.950 . S
C682 C678 1.385 . S
C682 C681 1.374 . S
C683 C680 1.499 . S
C683 C684 1.373 . S
C683 C685 1.389 . S
C684 H657 0.950 . S
C684 C670 1.377 . S
C684 C683 1.373 . S
C685 C669 1.377 . S
C685 C683 1.389 . S
C685 C686 1.524 . S
C686 C685 1.524 . S
C686 C687 1.397 . S
C686 C691 1.363 . S
C687 H658 0.950 . S
C687 C686 1.397 . S
C687 C688 1.334 . S
C688 H659 0.950 . S
C688 C687 1.334 . S
C688 C689 1.287 . S
C689 C688 1.287 . S
C689 C690 1.524 . S
C689 H692 0.999 . S
C690 H660 0.950 . S
C690 C689 1.524 . S
C690 C691 1.415 . S
C691 H661 0.950 . S
C691 C686 1.363 . S
C691 C690 1.415 . S
H692 C689 0.999 . S
H693 C674 0.913 . S
H694 C712 0.951 . S
H695 C714 0.951 . S
H696 C716 0.950 . S
H697 C717 0.950 . S
H698 C719 0.950 . S
H699 C722 0.950 . S
H700 C723 0.950 . S
H701 C725 0.950 . S
H702 C726 0.950 . S
H703 C727 0.951 . S
H704 C729 0.951 . S
H705 C731 0.950 . S
H706 C732 0.950 . S
H707 C734 0.950 . S
H708 C737 0.950 . S
H709 C738 0.950 . S
H710 C740 0.950 . S
H711 C741 0.950 . S
C712 H694 0.951 . S
C712 C713 1.366 . S
C712 C714 1.388 . S
C713 C712 1.366 . S
C713 C717 1.385 . S
C714 H695 0.951 . S
C714 C712 1.388 . S
C714 C715 1.366 . S
C715 C714 1.366 . S
C715 C716 1.414 . S
C715 C718 1.499 . S
C716 H696 0.950 . S
C716 C715 1.414 . S
C716 C717 1.374 . S
C717 H697 0.950 . S
C717 C713 1.385 . S
C717 C716 1.374 . S
C718 C715 1.499 . S
C718 C719 1.373 . S
C718 C720 1.389 . S
C719 H698 0.950 . S
C719 C718 1.373 . S
C719 C735 1.377 . S
C720 C718 1.389 . S
C720 C721 1.524 . S
C720 C734 1.377 . S
C721 C720 1.524 . S
C721 C722 1.397 . S
C721 C726 1.363 . S
C722 H699 0.950 . S
C722 C721 1.397 . S
C722 C723 1.334 . S
C723 H700 0.950 . S
C723 C722 1.334 . S
C723 C724 1.287 . S
C724 C723 1.287 . S
C724 C725 1.524 . S
C724 H743 0.913 . S
C725 H701 0.950 . S
C725 C724 1.524 . S
C725 C726 1.415 . S
C726 H702 0.950 . S
C726 C721 1.363 . S
C726 C725 1.415 . S
C727 H703 0.951 . S
C727 C728 1.366 . S
C727 C729 1.388 . S
C728 C727 1.366 . S
C728 C732 1.385 . S
C729 H704 0.951 . S
C729 C727 1.388 . S
C729 C730 1.366 . S
C730 C729 1.366 . S
C730 C731 1.414 . S
C730 C733 1.499 . S
C731 H705 0.950 . S
C731 C730 1.414 . S
C731 C732 1.374 . S
C732 H706 0.950 . S
C732 C728 1.385 . S
C732 C731 1.374 . S
C733 C730 1.499 . S
C733 C734 1.373 . S
C733 C735 1.389 . S
C734 H707 0.950 . S
C734 C720 1.377 . S
C734 C733 1.373 . S
C735 C719 1.377 . S
C735 C733 1.389 . S
C735 C736 1.524 . S
C736 C735 1.524 . S
C736 C737 1.397 . S
C736 C741 1.363 . S
C737 H708 0.950 . S
C737 C736 1.397 . S
C737 C738 1.334 . S
C738 H709 0.950 . S
C738 C737 1.334 . S
C738 C739 1.287 . S
C739 C738 1.287 . S
C739 C740 1.524 . S
C739 H742 0.999 1_545 S
C740 H710 0.950 . S
C740 C739 1.524 . S
C740 C741 1.415 . S
C741 H711 0.950 . S
C741 C736 1.363 . S
C741 C740 1.415 . S
H742 C739 0.999 1_565 S
H743 C724 0.913 . S
H744 C762 0.951 . S
H745 C764 0.951 . S
H746 C766 0.950 . S
H747 C767 0.950 . S
H748 C769 0.950 . S
H749 C772 0.950 . S
H750 C773 0.950 . S
H751 C775 0.950 . S
H752 C776 0.950 . S
H753 C777 0.951 . S
H754 C779 0.951 . S
H755 C781 0.950 . S
H756 C782 0.950 . S
H757 C784 0.950 . S
H758 C787 0.950 . S
H759 C788 0.950 . S
H760 C790 0.950 . S
H761 C791 0.950 . S
C762 H744 0.951 . S
C762 C763 1.366 . S
C762 C764 1.388 . S
C763 C762 1.366 . S
C763 C767 1.385 . S
C764 H745 0.951 . S
C764 C762 1.388 . S
C764 C765 1.366 . S
C765 C764 1.366 . S
C765 C766 1.414 . S
C765 C768 1.499 . S
C766 H746 0.950 . S
C766 C765 1.414 . S
C766 C767 1.374 . S
C767 H747 0.950 . S
C767 C763 1.385 . S
C767 C766 1.374 . S
C768 C765 1.499 . S
C768 C769 1.373 . S
C768 C770 1.389 . S
C769 H748 0.950 . S
C769 C768 1.373 . S
C769 C785 1.377 . S
C770 C768 1.389 . S
C770 C771 1.524 . S
C770 C784 1.377 . S
C771 C770 1.524 . S
C771 C772 1.397 . S
C771 C776 1.363 . S
C772 H749 0.950 . S
C772 C771 1.397 . S
C772 C773 1.334 . S
C773 H750 0.950 . S
C773 C772 1.334 . S
C773 C774 1.287 . S
C774 C773 1.287 . S
C774 C775 1.524 . S
C774 H793 0.913 . S
C775 H751 0.950 . S
C775 C774 1.524 . S
C775 C776 1.415 . S
C776 H752 0.950 . S
C776 C771 1.363 . S
C776 C775 1.415 . S
C777 H753 0.951 . S
C777 C778 1.366 . S
C777 C779 1.388 . S
C778 C777 1.366 . S
C778 C782 1.385 . S
C779 H754 0.951 . S
C779 C777 1.388 . S
C779 C780 1.366 . S
C780 C779 1.366 . S
C780 C781 1.414 . S
C780 C783 1.499 . S
C781 H755 0.950 . S
C781 C780 1.414 . S
C781 C782 1.374 . S
C782 H756 0.950 . S
C782 C778 1.385 . S
C782 C781 1.374 . S
C783 C780 1.499 . S
C783 C784 1.373 . S
C783 C785 1.389 . S
C784 H757 0.950 . S
C784 C770 1.377 . S
C784 C783 1.373 . S
C785 C769 1.377 . S
C785 C783 1.389 . S
C785 C786 1.524 . S
C786 C785 1.524 . S
C786 C787 1.397 . S
C786 C791 1.363 . S
C787 H758 0.950 . S
C787 C786 1.397 . S
C787 C788 1.334 . S
C788 H759 0.950 . S
C788 C787 1.334 . S
C788 C789 1.287 . S
C789 C788 1.287 . S
C789 C790 1.524 . S
C789 H792 0.999 . S
C790 H760 0.950 . S
C790 C789 1.524 . S
C790 C791 1.415 . S
C791 H761 0.950 . S
C791 C786 1.363 . S
C791 C790 1.415 . S
H792 C789 0.999 . S
H793 C774 0.913 . S
H794 C812 0.951 . S
H795 C814 0.951 . S
H796 C816 0.950 . S
H797 C817 0.950 . S
H798 C819 0.950 . S
H799 C822 0.950 . S
H800 C823 0.950 . S
H801 C825 0.950 . S
H802 C826 0.950 . S
H803 C827 0.951 . S
H804 C829 0.951 . S
H805 C831 0.950 . S
H806 C832 0.950 . S
H807 C834 0.950 . S
H808 C837 0.950 . S
H809 C838 0.950 . S
H810 C840 0.950 . S
H811 C841 0.950 . S
C812 H794 0.951 . S
C812 C813 1.366 . S
C812 C814 1.388 . S
C813 C812 1.366 . S
C813 C817 1.385 . S
C814 H795 0.951 . S
C814 C812 1.388 . S
C814 C815 1.366 . S
C815 C814 1.366 . S
C815 C816 1.414 . S
C815 C818 1.499 . S
C816 H796 0.950 . S
C816 C815 1.414 . S
C816 C817 1.374 . S
C817 H797 0.950 . S
C817 C813 1.385 . S
C817 C816 1.374 . S
C818 C815 1.499 . S
C818 C819 1.373 . S
C818 C820 1.389 . S
C819 H798 0.950 . S
C819 C818 1.373 . S
C819 C835 1.377 . S
C820 C818 1.389 . S
C820 C821 1.524 . S
C820 C834 1.377 . S
C821 C820 1.524 . S
C821 C822 1.397 . S
C821 C826 1.363 . S
C822 H799 0.950 . S
C822 C821 1.397 . S
C822 C823 1.334 . S
C823 H800 0.950 . S
C823 C822 1.334 . S
C823 C824 1.287 . S
C824 C823 1.287 . S
C824 C825 1.524 . S
C824 H843 0.913 . S
C825 H801 0.950 . S
C825 C824 1.524 . S
C825 C826 1.415 . S
C826 H802 0.950 . S
C826 C821 1.363 . S
C826 C825 1.415 . S
C827 H803 0.951 . S
C827 C828 1.366 . S
C827 C829 1.388 . S
C828 C827 1.366 . S
C828 C832 1.385 . S
C829 H804 0.951 . S
C829 C827 1.388 . S
C829 C830 1.366 . S
C830 C829 1.366 . S
C830 C831 1.414 . S
C830 C833 1.499 . S
C831 H805 0.950 . S
C831 C830 1.414 . S
C831 C832 1.374 . S
C832 H806 0.950 . S
C832 C828 1.385 . S
C832 C831 1.374 . S
C833 C830 1.499 . S
C833 C834 1.373 . S
C833 C835 1.389 . S
C834 H807 0.950 . S
C834 C820 1.377 . S
C834 C833 1.373 . S
C835 C819 1.377 . S
C835 C833 1.389 . S
C835 C836 1.524 . S
C836 C835 1.524 . S
C836 C837 1.397 . S
C836 C841 1.363 . S
C837 H808 0.950 . S
C837 C836 1.397 . S
C837 C838 1.334 . S
C838 H809 0.950 . S
C838 C837 1.334 . S
C838 C839 1.287 . S
C839 C838 1.287 . S
C839 C840 1.524 . S
C839 H842 0.999 . S
C840 H810 0.950 . S
C840 C839 1.524 . S
C840 C841 1.415 . S
C841 H811 0.950 . S
C841 C836 1.363 . S
C841 C840 1.415 . S
H842 C839 0.999 . S
H843 C824 0.913 . S
H844 C862 0.951 . S
H845 C864 0.951 . S
H846 C866 0.950 . S
H847 C867 0.950 . S
H848 C869 0.950 . S
H849 C872 0.950 . S
H850 C873 0.950 . S
H851 C875 0.950 . S
H852 C876 0.950 . S
H853 C877 0.951 . S
H854 C879 0.951 . S
H855 C881 0.950 . S
H856 C882 0.950 . S
H857 C884 0.950 . S
H858 C887 0.950 . S
H859 C888 0.950 . S
H860 C890 0.943 1_545 S
H861 C891 0.950 . S
C862 H844 0.951 . S
C862 C863 1.366 . S
C862 C864 1.388 . S
C863 C862 1.366 . S
C863 C867 1.385 . S
C864 H845 0.951 . S
C864 C862 1.388 . S
C864 C865 1.366 . S
C865 C864 1.366 . S
C865 C866 1.414 . S
C865 C868 1.499 . S
C866 H846 0.950 . S
C866 C865 1.414 . S
C866 C867 1.374 . S
C867 H847 0.950 . S
C867 C863 1.385 . S
C867 C866 1.374 . S
C868 C865 1.499 . S
C868 C869 1.373 . S
C868 C870 1.389 . S
C869 H848 0.950 . S
C869 C868 1.373 . S
C869 C885 1.377 . S
C870 C868 1.389 . S
C870 C871 1.524 . S
C870 C884 1.377 . S
C871 C870 1.524 . S
C871 C872 1.397 . S
C871 C876 1.363 . S
C872 H849 0.950 . S
C872 C871 1.397 . S
C872 C873 1.334 . S
C873 H850 0.950 . S
C873 C872 1.334 . S
C873 C874 1.287 . S
C874 C873 1.287 . S
C874 C875 1.524 . S
C874 H893 0.913 . S
C875 H851 0.950 . S
C875 C874 1.524 . S
C875 C876 1.415 . S
C876 H852 0.950 . S
C876 C871 1.363 . S
C876 C875 1.415 . S
C877 H853 0.951 . S
C877 C878 1.366 . S
C877 C879 1.388 . S
C878 C877 1.366 . S
C878 C882 1.385 . S
C879 H854 0.951 . S
C879 C877 1.388 . S
C879 C880 1.366 . S
C880 C879 1.366 . S
C880 C881 1.414 . S
C880 C883 1.499 . S
C881 H855 0.950 . S
C881 C880 1.414 . S
C881 C882 1.374 . S
C882 H856 0.950 . S
C882 C878 1.385 . S
C882 C881 1.374 . S
C883 C880 1.499 . S
C883 C884 1.373 . S
C883 C885 1.389 . S
C884 H857 0.950 . S
C884 C870 1.377 . S
C884 C883 1.373 . S
C885 C869 1.377 . S
C885 C883 1.389 . S
C885 C886 1.524 . S
C886 C885 1.524 . S
C886 C887 1.397 . S
C886 C891 1.363 . S
C887 H858 0.950 . S
C887 C886 1.397 . S
C887 C888 1.334 . S
C888 H859 0.950 . S
C888 C887 1.334 . S
C888 C889 1.286 1_565 S
C889 C888 1.286 1_545 S
C889 C890 1.523 1_545 S
C889 H892 1.000 . S
C890 H860 0.943 1_565 S
C890 C889 1.523 1_565 S
C890 C891 1.415 . S
C891 H861 0.950 . S
C891 C886 1.363 . S
C891 C890 1.415 . S
H892 C889 1.000 . S
H893 C874 0.913 . S
H894 C912 0.951 . S
H895 C914 0.951 . S
H896 C916 0.950 . S
H897 C917 0.950 . S
H898 C919 0.950 . S
H899 C922 0.950 . S
H900 C923 0.950 . S
H901 C925 0.950 . S
H902 C926 0.950 . S
H903 C927 0.951 . S
H904 C929 0.951 . S
H905 C931 0.950 . S
H906 C932 0.950 . S
H907 C934 0.950 . S
H908 C937 0.950 . S
H909 C938 0.950 . S
H910 C940 0.950 . S
H911 C941 0.950 . S
C912 H894 0.951 . S
C912 C913 1.366 . S
C912 C914 1.388 . S
C913 C912 1.366 . S
C913 C917 1.385 . S
C914 H895 0.951 . S
C914 C912 1.388 . S
C914 C915 1.366 . S
C915 C914 1.366 . S
C915 C916 1.414 . S
C915 C918 1.499 . S
C916 H896 0.950 . S
C916 C915 1.414 . S
C916 C917 1.374 . S
C917 H897 0.950 . S
C917 C913 1.385 . S
C917 C916 1.374 . S
C918 C915 1.499 . S
C918 C919 1.373 . S
C918 C920 1.389 . S
C919 H898 0.950 . S
C919 C918 1.373 . S
C919 C935 1.377 . S
C920 C918 1.389 . S
C920 C921 1.524 . S
C920 C934 1.377 . S
C921 C920 1.524 . S
C921 C922 1.397 . S
C921 C926 1.363 . S
C922 H899 0.950 . S
C922 C921 1.397 . S
C922 C923 1.334 . S
C923 H900 0.950 . S
C923 C922 1.334 . S
C923 C924 1.287 . S
C924 C923 1.287 . S
C924 C925 1.524 . S
C924 H943 0.913 . S
C925 H901 0.950 . S
C925 C924 1.524 . S
C925 C926 1.415 . S
C926 H902 0.950 . S
C926 C921 1.363 . S
C926 C925 1.415 . S
C927 H903 0.951 . S
C927 C928 1.366 . S
C927 C929 1.388 . S
C928 C927 1.366 . S
C928 C932 1.385 . S
C929 H904 0.951 . S
C929 C927 1.388 . S
C929 C930 1.366 . S
C930 C929 1.366 . S
C930 C931 1.414 . S
C930 C933 1.499 . S
C931 H905 0.950 . S
C931 C930 1.414 . S
C931 C932 1.374 . S
C932 H906 0.950 . S
C932 C928 1.385 . S
C932 C931 1.374 . S
C933 C930 1.499 . S
C933 C934 1.373 . S
C933 C935 1.389 . S
C934 H907 0.950 . S
C934 C920 1.377 . S
C934 C933 1.373 . S
C935 C919 1.377 . S
C935 C933 1.389 . S
C935 C936 1.524 . S
C936 C935 1.524 . S
C936 C937 1.397 . S
C936 C941 1.363 . S
C937 H908 0.950 . S
C937 C936 1.397 . S
C937 C938 1.334 . S
C938 H909 0.950 . S
C938 C937 1.334 . S
C938 C939 1.287 . S
C939 C938 1.287 . S
C939 C940 1.524 . S
C939 H942 0.999 . S
C940 H910 0.950 . S
C940 C939 1.524 . S
C940 C941 1.415 . S
C941 H911 0.950 . S
C941 C936 1.363 . S
C941 C940 1.415 . S
H942 C939 0.999 . S
H943 C924 0.913 . S
H944 C962 0.951 . S
H945 C964 0.951 . S
H946 C966 0.950 . S
H947 C967 0.950 . S
H948 C969 0.950 . S
H949 C972 0.950 . S
H950 C973 0.950 . S
H951 C975 0.950 . S
H952 C976 0.950 . S
H953 C977 0.951 . S
H954 C979 0.951 . S
H955 C981 0.950 . S
H956 C982 0.950 . S
H957 C984 0.950 . S
H958 C987 0.950 . S
H959 C988 0.950 . S
H960 C990 0.950 . S
H961 C991 0.950 . S
C962 H944 0.951 . S
C962 C963 1.366 . S
C962 C964 1.388 . S
C963 C962 1.366 . S
C963 C967 1.385 . S
C964 H945 0.951 . S
C964 C962 1.388 . S
C964 C965 1.366 . S
C965 C964 1.366 . S
C965 C966 1.414 . S
C965 C968 1.499 . S
C966 H946 0.950 . S
C966 C965 1.414 . S
C966 C967 1.374 . S
C967 H947 0.950 . S
C967 C963 1.385 . S
C967 C966 1.374 . S
C968 C965 1.499 . S
C968 C969 1.373 . S
C968 C970 1.389 . S
C969 H948 0.950 . S
C969 C968 1.373 . S
C969 C985 1.377 . S
C970 C968 1.389 . S
C970 C971 1.524 . S
C970 C984 1.377 . S
C971 C970 1.524 . S
C971 C972 1.397 . S
C971 C976 1.363 . S
C972 H949 0.950 . S
C972 C971 1.397 . S
C972 C973 1.334 . S
C973 H950 0.950 . S
C973 C972 1.334 . S
C973 C974 1.287 . S
C974 C973 1.287 . S
C974 C975 1.524 . S
C974 H993 0.913 . S
C975 H951 0.950 . S
C975 C974 1.524 . S
C975 C976 1.415 . S
C976 H952 0.950 . S
C976 C971 1.363 . S
C976 C975 1.415 . S
C977 H953 0.951 . S
C977 C978 1.366 . S
C977 C979 1.388 . S
C978 C977 1.366 . S
C978 C982 1.385 . S
C979 H954 0.951 . S
C979 C977 1.388 . S
C979 C980 1.366 . S
C980 C979 1.366 . S
C980 C981 1.414 . S
C980 C983 1.499 . S
C981 H955 0.950 . S
C981 C980 1.414 . S
C981 C982 1.374 . S
C982 H956 0.950 . S
C982 C978 1.385 . S
C982 C981 1.374 . S
C983 C980 1.499 . S
C983 C984 1.373 . S
C983 C985 1.389 . S
C984 H957 0.950 . S
C984 C970 1.377 . S
C984 C983 1.373 . S
C985 C969 1.377 . S
C985 C983 1.389 . S
C985 C986 1.524 . S
C986 C985 1.524 . S
C986 C987 1.397 . S
C986 C991 1.363 . S
C987 H958 0.950 . S
C987 C986 1.397 . S
C987 C988 1.334 . S
C988 H959 0.950 . S
C988 C987 1.334 . S
C988 C989 1.287 . S
C989 C988 1.287 . S
C989 C990 1.524 . S
C989 H992 0.999 . S
C990 H960 0.950 . S
C990 C989 1.524 . S
C990 C991 1.415 . S
C991 H961 0.950 . S
C991 C986 1.363 . S
C991 C990 1.415 . S
H992 C989 0.999 . S
H993 C974 0.913 . S
H994 C1012 0.951 . S
H995 C1014 0.951 . S
H996 C1016 0.950 . S
H997 C1017 0.950 . S
H998 C1019 0.950 . S
H999 C1022 0.950 . S
H1000 C1023 0.950 . S
H1001 C1025 0.950 . S
H1002 C1026 0.950 . S
H1003 C1027 0.951 . S
H1004 C1029 0.951 . S
H1005 C1031 0.950 . S
H1006 C1032 0.950 . S
H1007 C1034 0.950 . S
H1008 C1037 0.950 . S
H1009 C1038 0.950 . S
H1010 C1040 0.950 . S
H1011 C1041 0.950 . S
C1012 H994 0.951 . S
C1012 C1013 1.366 . S
C1012 C1014 1.388 . S
C1013 C1012 1.366 . S
C1013 C1017 1.385 . S
C1014 H995 0.951 . S
C1014 C1012 1.388 . S
C1014 C1015 1.366 . S
C1015 C1014 1.366 . S
C1015 C1016 1.414 . S
C1015 C1018 1.499 . S
C1016 H996 0.950 . S
C1016 C1015 1.414 . S
C1016 C1017 1.374 . S
C1017 H997 0.950 . S
C1017 C1013 1.385 . S
C1017 C1016 1.374 . S
C1018 C1015 1.499 . S
C1018 C1019 1.373 . S
C1018 C1020 1.389 . S
C1019 H998 0.950 . S
C1019 C1018 1.373 . S
C1019 C1035 1.377 . S
C1020 C1018 1.389 . S
C1020 C1021 1.524 . S
C1020 C1034 1.377 . S
C1021 C1020 1.524 . S
C1021 C1022 1.397 . S
C1021 C1026 1.363 . S
C1022 H999 0.950 . S
C1022 C1021 1.397 . S
C1022 C1023 1.334 . S
C1023 H1000 0.950 . S
C1023 C1022 1.334 . S
C1023 C1024 1.287 . S
C1024 C1023 1.287 . S
C1024 C1025 1.524 . S
C1024 H1043 0.913 . S
C1025 H1001 0.950 . S
C1025 C1024 1.524 . S
C1025 C1026 1.415 . S
C1026 H1002 0.950 . S
C1026 C1021 1.363 . S
C1026 C1025 1.415 . S
C1027 H1003 0.951 . S
C1027 C1028 1.366 . S
C1027 C1029 1.388 . S
C1028 C1027 1.366 . S
C1028 C1032 1.385 . S
C1029 H1004 0.951 . S
C1029 C1027 1.388 . S
C1029 C1030 1.366 . S
C1030 C1029 1.366 . S
C1030 C1031 1.414 . S
C1030 C1033 1.499 . S
C1031 H1005 0.950 . S
C1031 C1030 1.414 . S
C1031 C1032 1.374 . S
C1032 H1006 0.950 . S
C1032 C1028 1.385 . S
C1032 C1031 1.374 . S
C1033 C1030 1.499 . S
C1033 C1034 1.373 . S
C1033 C1035 1.389 . S
C1034 H1007 0.950 . S
C1034 C1020 1.377 . S
C1034 C1033 1.373 . S
C1035 C1019 1.377 . S
C1035 C1033 1.389 . S
C1035 C1036 1.524 . S
C1036 C1035 1.524 . S
C1036 C1037 1.397 . S
C1036 C1041 1.363 . S
C1037 H1008 0.950 . S
C1037 C1036 1.397 . S
C1037 C1038 1.334 . S
C1038 H1009 0.950 . S
C1038 C1037 1.334 . S
C1038 C1039 1.287 . S
C1039 C1038 1.287 . S
C1039 C1040 1.524 . S
C1039 H1042 0.999 . S
C1040 H1010 0.950 . S
C1040 C1039 1.524 . S
C1040 C1041 1.415 . S
C1041 H1011 0.950 . S
C1041 C1036 1.363 . S
C1041 C1040 1.415 . S
H1042 C1039 0.999 . S
H1043 C1024 0.913 . S
H1044 C1062 0.951 . S
H1045 C1064 0.951 . S
H1046 C1066 0.950 . S
H1047 C1067 0.950 . S
H1048 C1069 0.950 . S
H1049 C1072 0.950 . S
H1050 C1073 0.950 . S
H1051 C1075 0.950 . S
H1052 C1076 0.950 . S
H1053 C1077 0.951 . S
H1054 C1079 0.951 . S
H1055 C1081 0.950 . S
H1056 C1082 0.950 . S
H1057 C1084 0.950 . S
H1058 C1087 0.950 . S
H1059 C1088 0.950 . S
H1060 C1090 0.950 . S
H1061 C1091 0.950 . S
C1062 H1044 0.951 . S
C1062 C1063 1.366 . S
C1062 C1064 1.388 . S
C1063 C1062 1.366 . S
C1063 C1067 1.385 . S
C1064 H1045 0.951 . S
C1064 C1062 1.388 . S
C1064 C1065 1.366 . S
C1065 C1064 1.366 . S
C1065 C1066 1.414 . S
C1065 C1068 1.499 . S
C1066 H1046 0.950 . S
C1066 C1065 1.414 . S
C1066 C1067 1.374 . S
C1067 H1047 0.950 . S
C1067 C1063 1.385 . S
C1067 C1066 1.374 . S
C1068 C1065 1.499 . S
C1068 C1069 1.373 . S
C1068 C1070 1.389 . S
C1069 H1048 0.950 . S
C1069 C1068 1.373 . S
C1069 C1085 1.377 . S
C1070 C1068 1.389 . S
C1070 C1071 1.524 . S
C1070 C1084 1.377 . S
C1071 C1070 1.524 . S
C1071 C1072 1.397 . S
C1071 C1076 1.363 . S
C1072 H1049 0.950 . S
C1072 C1071 1.397 . S
C1072 C1073 1.334 . S
C1073 H1050 0.950 . S
C1073 C1072 1.334 . S
C1073 C1074 1.287 . S
C1074 C1073 1.287 . S
C1074 C1075 1.524 . S
C1074 H1093 0.913 . S
C1075 H1051 0.950 . S
C1075 C1074 1.524 . S
C1075 C1076 1.415 . S
C1076 H1052 0.950 . S
C1076 C1071 1.363 . S
C1076 C1075 1.415 . S
C1077 H1053 0.951 . S
C1077 C1078 1.366 . S
C1077 C1079 1.388 . S
C1078 C1077 1.366 . S
C1078 C1082 1.385 . S
C1079 H1054 0.951 . S
C1079 C1077 1.388 . S
C1079 C1080 1.366 . S
C1080 C1079 1.366 . S
C1080 C1081 1.414 . S
C1080 C1083 1.499 . S
C1081 H1055 0.950 . S
C1081 C1080 1.414 . S
C1081 C1082 1.374 . S
C1082 H1056 0.950 . S
C1082 C1078 1.385 . S
C1082 C1081 1.374 . S
C1083 C1080 1.499 . S
C1083 C1084 1.373 . S
C1083 C1085 1.389 . S
C1084 H1057 0.950 . S
C1084 C1070 1.377 . S
C1084 C1083 1.373 . S
C1085 C1069 1.377 . S
C1085 C1083 1.389 . S
C1085 C1086 1.524 . S
C1086 C1085 1.524 . S
C1086 C1087 1.397 . S
C1086 C1091 1.363 . S
C1087 H1058 0.950 . S
C1087 C1086 1.397 . S
C1087 C1088 1.334 . S
C1088 H1059 0.950 . S
C1088 C1087 1.334 . S
C1088 C1089 1.287 . S
C1089 C1088 1.287 . S
C1089 C1090 1.524 . S
C1089 H1092 0.999 . S
C1090 H1060 0.950 . S
C1090 C1089 1.524 . S
C1090 C1091 1.415 . S
C1091 H1061 0.950 . S
C1091 C1086 1.363 . S
C1091 C1090 1.415 . S
H1092 C1089 0.999 . S
H1093 C1074 0.913 . S
H1094 C1112 0.951 . S
H1095 C1114 0.951 . S
H1096 C1116 0.950 . S
H1097 C1117 0.950 . S
H1098 C1119 0.950 . S
H1099 C1122 0.950 . S
H1100 C1123 0.950 . S
H1101 C1125 0.950 . S
H1102 C1126 0.950 . S
H1103 C1127 0.951 . S
H1104 C1129 0.951 . S
H1105 C1131 0.950 . S
H1106 C1132 0.950 . S
H1107 C1134 0.950 . S
H1108 C1137 0.950 . S
H1109 C1138 0.950 . S
H1110 C1140 0.950 . S
H1111 C1141 0.950 . S
C1112 H1094 0.951 . S
C1112 C1113 1.366 . S
C1112 C1114 1.388 . S
C1113 C1112 1.366 . S
C1113 C1117 1.385 . S
C1114 H1095 0.951 . S
C1114 C1112 1.388 . S
C1114 C1115 1.366 . S
C1115 C1114 1.366 . S
C1115 C1116 1.414 . S
C1115 C1118 1.499 . S
C1116 H1096 0.950 . S
C1116 C1115 1.414 . S
C1116 C1117 1.374 . S
C1117 H1097 0.950 . S
C1117 C1113 1.385 . S
C1117 C1116 1.374 . S
C1118 C1115 1.499 . S
C1118 C1119 1.373 . S
C1118 C1120 1.389 . S
C1119 H1098 0.950 . S
C1119 C1118 1.373 . S
C1119 C1135 1.377 . S
C1120 C1118 1.389 . S
C1120 C1121 1.524 . S
C1120 C1134 1.377 . S
C1121 C1120 1.524 . S
C1121 C1122 1.397 . S
C1121 C1126 1.363 . S
C1122 H1099 0.950 . S
C1122 C1121 1.397 . S
C1122 C1123 1.334 . S
C1123 H1100 0.950 . S
C1123 C1122 1.334 . S
C1123 C1124 1.287 . S
C1124 C1123 1.287 . S
C1124 C1125 1.524 . S
C1124 H1143 0.913 . S
C1125 H1101 0.950 . S
C1125 C1124 1.524 . S
C1125 C1126 1.415 . S
C1126 H1102 0.950 . S
C1126 C1121 1.363 . S
C1126 C1125 1.415 . S
C1127 H1103 0.951 . S
C1127 C1128 1.366 . S
C1127 C1129 1.388 . S
C1128 C1127 1.366 . S
C1128 C1132 1.385 . S
C1129 H1104 0.951 . S
C1129 C1127 1.388 . S
C1129 C1130 1.366 . S
C1130 C1129 1.366 . S
C1130 C1131 1.414 . S
C1130 C1133 1.499 . S
C1131 H1105 0.950 . S
C1131 C1130 1.414 . S
C1131 C1132 1.374 . S
C1132 H1106 0.950 . S
C1132 C1128 1.385 . S
C1132 C1131 1.374 . S
C1133 C1130 1.499 . S
C1133 C1134 1.373 . S
C1133 C1135 1.389 . S
C1134 H1107 0.950 . S
C1134 C1120 1.377 . S
C1134 C1133 1.373 . S
C1135 C1119 1.377 . S
C1135 C1133 1.389 . S
C1135 C1136 1.524 . S
C1136 C1135 1.524 . S
C1136 C1137 1.397 . S
C1136 C1141 1.363 . S
C1137 H1108 0.950 . S
C1137 C1136 1.397 . S
C1137 C1138 1.334 . S
C1138 H1109 0.950 . S
C1138 C1137 1.334 . S
C1138 C1139 1.287 . S
C1139 C1138 1.287 . S
C1139 C1140 1.524 . S
C1139 H1142 0.999 . S
C1140 H1110 0.950 . S
C1140 C1139 1.524 . S
C1140 C1141 1.415 . S
C1141 H1111 0.950 . S
C1141 C1136 1.363 . S
C1141 C1140 1.415 . S
H1142 C1139 0.999 . S
H1143 C1124 0.913 . S
H1144 C1162 0.951 . S
H1145 C1164 0.951 . S
H1146 C1166 0.950 . S
H1147 C1167 0.950 . S
H1148 C1169 0.950 . S
H1149 C1172 0.950 . S
H1150 C1173 0.950 . S
H1151 C1175 0.950 . S
H1152 C1176 0.950 . S
H1153 C1177 0.951 . S
H1154 C1179 0.951 . S
H1155 C1181 0.950 . S
H1156 C1182 0.952 . S
H1157 C1184 0.950 . S
H1158 C1187 0.950 . S
H1159 C1188 0.950 . S
H1160 C1190 0.950 . S
H1161 C1191 0.950 . S
C1162 H1144 0.951 . S
C1162 C1163 1.366 . S
C1162 C1164 1.388 . S
C1163 C1162 1.366 . S
C1163 C1167 1.385 . S
C1164 H1145 0.951 . S
C1164 C1162 1.388 . S
C1164 C1165 1.366 . S
C1165 C1164 1.366 . S
C1165 C1166 1.414 . S
C1165 C1168 1.499 . S
C1166 H1146 0.950 . S
C1166 C1165 1.414 . S
C1166 C1167 1.374 . S
C1167 H1147 0.950 . S
C1167 C1163 1.385 . S
C1167 C1166 1.374 . S
C1168 C1165 1.499 . S
C1168 C1169 1.373 . S
C1168 C1170 1.389 . S
C1169 H1148 0.950 . S
C1169 C1168 1.373 . S
C1169 C1185 1.377 . S
C1170 C1168 1.389 . S
C1170 C1171 1.524 . S
C1170 C1184 1.377 . S
C1171 C1170 1.524 . S
C1171 C1172 1.397 . S
C1171 C1176 1.363 . S
C1172 H1149 0.950 . S
C1172 C1171 1.397 . S
C1172 C1173 1.334 . S
C1173 H1150 0.950 . S
C1173 C1172 1.334 . S
C1173 C1174 1.287 . S
C1174 C1173 1.287 . S
C1174 C1175 1.524 . S
C1174 H1193 0.913 . S
C1175 H1151 0.950 . S
C1175 C1174 1.524 . S
C1175 C1176 1.415 . S
C1176 H1152 0.950 . S
C1176 C1171 1.363 . S
C1176 C1175 1.415 . S
C1177 H1153 0.951 . S
C1177 C1178 1.366 . S
C1177 C1179 1.388 . S
C1178 C1177 1.366 . S
C1178 C1182 1.385 . S
C1179 H1154 0.951 . S
C1179 C1177 1.388 . S
C1179 C1180 1.366 . S
C1180 C1179 1.366 . S
C1180 C1181 1.414 . S
C1180 C1183 1.499 . S
C1181 H1155 0.950 . S
C1181 C1180 1.414 . S
C1181 C1182 1.374 . S
C1182 H1156 0.952 . S
C1182 C1178 1.385 . S
C1182 C1181 1.374 . S
C1183 C1180 1.499 . S
C1183 C1184 1.373 . S
C1183 C1185 1.389 . S
C1184 H1157 0.950 . S
C1184 C1170 1.377 . S
C1184 C1183 1.373 . S
C1185 C1169 1.377 . S
C1185 C1183 1.389 . S
C1185 C1186 1.524 . S
C1186 C1185 1.524 . S
C1186 C1187 1.397 . S
C1186 C1191 1.363 . S
C1187 H1158 0.950 . S
C1187 C1186 1.397 . S
C1187 C1188 1.334 . S
C1188 H1159 0.950 . S
C1188 C1187 1.334 . S
C1188 C1189 1.287 . S
C1189 C1188 1.287 . S
C1189 C1190 1.524 . S
C1189 H1192 0.999 . S
C1190 H1160 0.950 . S
C1190 C1189 1.524 . S
C1190 C1191 1.415 . S
C1191 H1161 0.950 . S
C1191 C1186 1.363 . S
C1191 C1190 1.415 . S
H1192 C1189 0.999 . S
H1193 C1174 0.913 . S
H1194 C1212 0.951 . S
H1195 C1214 0.951 . S
H1196 C1216 0.950 . S
H1197 C1217 0.950 . S
H1198 C1219 0.950 . S
H1199 C1222 0.950 . S
H1200 C1223 0.950 . S
H1201 C1225 0.950 . S
H1202 C1226 0.950 . S
H1203 C1227 0.951 . S
H1204 C1229 0.951 . S
H1205 C1231 0.950 . S
H1206 C1232 0.950 . S
H1207 C1234 0.950 . S
H1208 C1237 0.950 . S
H1209 C1238 0.953 1_556 S
H1210 C1240 0.950 . S
H1211 C1241 0.950 . S
C1212 H1194 0.951 . S
C1212 C1213 1.366 . S
C1212 C1214 1.388 . S
C1213 C1212 1.366 . S
C1213 C1217 1.385 . S
C1214 H1195 0.951 . S
C1214 C1212 1.388 . S
C1214 C1215 1.366 . S
C1215 C1214 1.366 . S
C1215 C1216 1.414 . S
C1215 C1218 1.499 . S
C1216 H1196 0.950 . S
C1216 C1215 1.414 . S
C1216 C1217 1.374 . S
C1217 H1197 0.950 . S
C1217 C1213 1.385 . S
C1217 C1216 1.374 . S
C1218 C1215 1.499 . S
C1218 C1219 1.373 . S
C1218 C1220 1.389 . S
C1219 H1198 0.950 . S
C1219 C1218 1.373 . S
C1219 C1235 1.377 . S
C1220 C1218 1.389 . S
C1220 C1221 1.524 . S
C1220 C1234 1.377 . S
C1221 C1220 1.524 . S
C1221 C1222 1.397 . S
C1221 C1226 1.363 . S
C1222 H1199 0.950 . S
C1222 C1221 1.397 . S
C1222 C1223 1.334 . S
C1223 H1200 0.950 . S
C1223 C1222 1.334 . S
C1223 C1224 1.287 . S
C1224 C1223 1.287 . S
C1224 C1225 1.524 . S
C1224 H1243 0.913 . S
C1225 H1201 0.950 . S
C1225 C1224 1.524 . S
C1225 C1226 1.415 . S
C1226 H1202 0.950 . S
C1226 C1221 1.363 . S
C1226 C1225 1.415 . S
C1227 H1203 0.951 . S
C1227 C1228 1.366 . S
C1227 C1229 1.388 . S
C1228 C1227 1.366 . S
C1228 C1232 1.385 . S
C1229 H1204 0.951 . S
C1229 C1227 1.388 . S
C1229 C1230 1.366 . S
C1230 C1229 1.366 . S
C1230 C1231 1.414 . S
C1230 C1233 1.499 . S
C1231 H1205 0.950 . S
C1231 C1230 1.414 . S
C1231 C1232 1.374 . S
C1232 H1206 0.950 . S
C1232 C1228 1.385 . S
C1232 C1231 1.374 . S
C1233 C1230 1.499 . S
C1233 C1234 1.373 . S
C1233 C1235 1.389 . S
C1234 H1207 0.950 . S
C1234 C1220 1.377 . S
C1234 C1233 1.373 . S
C1235 C1219 1.377 . S
C1235 C1233 1.389 . S
C1235 C1236 1.524 . S
C1236 C1235 1.524 . S
C1236 C1237 1.397 . S
C1236 C1241 1.363 . S
C1237 H1208 0.950 . S
C1237 C1236 1.397 . S
C1237 C1238 1.334 . S
C1238 H1209 0.953 1_554 S
C1238 C1237 1.334 . S
C1238 C1239 1.287 . S
C1239 C1238 1.287 . S
C1239 C1240 1.524 . S
C1239 H1242 0.999 1_554 S
C1240 H1210 0.950 . S
C1240 C1239 1.524 . S
C1240 C1241 1.415 . S
C1241 H1211 0.950 . S
C1241 C1236 1.363 . S
C1241 C1240 1.415 . S
H1242 C1239 0.999 1_556 S
H1243 C1224 0.913 . S
H1244 C1262 0.951 . S
H1245 C1264 0.951 . S
H1246 C1266 0.950 . S
H1247 C1267 0.950 . S
H1248 C1269 0.950 . S
H1249 C1272 0.950 . S
H1250 C1273 0.950 . S
H1251 C1275 0.950 . S
H1252 C1276 0.950 . S
H1253 C1277 0.951 . S
H1254 C1279 0.951 . S
H1255 C1281 0.950 . S
H1256 C1282 0.950 . S
H1257 C1284 0.950 . S
H1258 C1287 0.950 . S
H1259 C1288 0.950 . S
H1260 C1290 0.950 . S
H1261 C1291 0.950 . S
C1262 H1244 0.951 . S
C1262 C1263 1.366 . S
C1262 C1264 1.388 . S
C1263 C1262 1.366 . S
C1263 C1267 1.385 . S
C1264 H1245 0.951 . S
C1264 C1262 1.388 . S
C1264 C1265 1.366 . S
C1265 C1264 1.366 . S
C1265 C1266 1.414 . S
C1265 C1268 1.499 . S
C1266 H1246 0.950 . S
C1266 C1265 1.414 . S
C1266 C1267 1.374 . S
C1267 H1247 0.950 . S
C1267 C1263 1.385 . S
C1267 C1266 1.374 . S
C1268 C1265 1.499 . S
C1268 C1269 1.373 . S
C1268 C1270 1.389 . S
C1269 H1248 0.950 . S
C1269 C1268 1.373 . S
C1269 C1285 1.377 . S
C1270 C1268 1.389 . S
C1270 C1271 1.524 . S
C1270 C1284 1.377 . S
C1271 C1270 1.524 . S
C1271 C1272 1.397 . S
C1271 C1276 1.363 . S
C1272 H1249 0.950 . S
C1272 C1271 1.397 . S
C1272 C1273 1.334 . S
C1273 H1250 0.950 . S
C1273 C1272 1.334 . S
C1273 C1274 1.287 . S
C1274 C1273 1.287 . S
C1274 C1275 1.524 . S
C1274 H1293 0.913 . S
C1275 H1251 0.950 . S
C1275 C1274 1.524 . S
C1275 C1276 1.415 . S
C1276 H1252 0.950 . S
C1276 C1271 1.363 . S
C1276 C1275 1.415 . S
C1277 H1253 0.951 . S
C1277 C1278 1.366 . S
C1277 C1279 1.388 . S
C1278 C1277 1.366 . S
C1278 C1282 1.385 . S
C1279 H1254 0.951 . S
C1279 C1277 1.388 . S
C1279 C1280 1.366 . S
C1280 C1279 1.366 . S
C1280 C1281 1.414 . S
C1280 C1283 1.499 . S
C1281 H1255 0.950 . S
C1281 C1280 1.414 . S
C1281 C1282 1.374 . S
C1282 H1256 0.950 . S
C1282 C1278 1.385 . S
C1282 C1281 1.374 . S
C1283 C1280 1.499 . S
C1283 C1284 1.373 . S
C1283 C1285 1.389 . S
C1284 H1257 0.950 . S
C1284 C1270 1.377 . S
C1284 C1283 1.373 . S
C1285 C1269 1.377 . S
C1285 C1283 1.389 . S
C1285 C1286 1.524 . S
C1286 C1285 1.524 . S
C1286 C1287 1.397 . S
C1286 C1291 1.363 . S
C1287 H1258 0.950 . S
C1287 C1286 1.397 . S
C1287 C1288 1.334 . S
C1288 H1259 0.950 . S
C1288 C1287 1.334 . S
C1288 C1289 1.287 . S
C1289 C1288 1.287 . S
C1289 C1290 1.524 . S
C1289 H1292 0.999 . S
C1290 H1260 0.950 . S
C1290 C1289 1.524 . S
C1290 C1291 1.415 . S
C1291 H1261 0.950 . S
C1291 C1286 1.363 . S
C1291 C1290 1.415 . S
H1292 C1289 0.999 . S
H1293 C1274 0.913 . S
H1294 C1312 0.951 . S
H1295 C1314 0.951 . S
H1296 C1316 0.950 . S
H1297 C1317 0.950 . S
H1298 C1319 0.950 . S
H1299 C1322 0.950 . S
H1300 C1323 0.950 . S
H1301 C1325 0.950 . S
H1302 C1326 0.950 . S
H1303 C1327 0.951 . S
H1304 C1329 0.951 . S
H1305 C1331 0.950 . S
H1306 C1332 0.950 . S
H1307 C1334 0.950 . S
H1308 C1337 0.950 . S
H1309 C1338 0.950 . S
H1310 C1340 0.950 . S
H1311 C1341 0.950 . S
C1312 H1294 0.951 . S
C1312 C1313 1.366 . S
C1312 C1314 1.388 . S
C1313 C1312 1.366 . S
C1313 C1317 1.385 . S
C1314 H1295 0.951 . S
C1314 C1312 1.388 . S
C1314 C1315 1.366 . S
C1315 C1314 1.366 . S
C1315 C1316 1.414 . S
C1315 C1318 1.499 . S
C1316 H1296 0.950 . S
C1316 C1315 1.414 . S
C1316 C1317 1.374 . S
C1317 H1297 0.950 . S
C1317 C1313 1.385 . S
C1317 C1316 1.374 . S
C1318 C1315 1.499 . S
C1318 C1319 1.373 . S
C1318 C1320 1.389 . S
C1319 H1298 0.950 . S
C1319 C1318 1.373 . S
C1319 C1335 1.377 . S
C1320 C1318 1.389 . S
C1320 C1321 1.524 . S
C1320 C1334 1.377 . S
C1321 C1320 1.524 . S
C1321 C1322 1.397 . S
C1321 C1326 1.363 . S
C1322 H1299 0.950 . S
C1322 C1321 1.397 . S
C1322 C1323 1.334 . S
C1323 H1300 0.950 . S
C1323 C1322 1.334 . S
C1323 C1324 1.287 . S
C1324 C1323 1.287 . S
C1324 C1325 1.524 . S
C1324 H1343 0.913 . S
C1325 H1301 0.950 . S
C1325 C1324 1.524 . S
C1325 C1326 1.415 . S
C1326 H1302 0.950 . S
C1326 C1321 1.363 . S
C1326 C1325 1.415 . S
C1327 H1303 0.951 . S
C1327 C1328 1.366 . S
C1327 C1329 1.388 . S
C1328 C1327 1.366 . S
C1328 C1332 1.385 . S
C1329 H1304 0.951 . S
C1329 C1327 1.388 . S
C1329 C1330 1.366 . S
C1330 C1329 1.366 . S
C1330 C1331 1.414 . S
C1330 C1333 1.499 . S
C1331 H1305 0.950 . S
C1331 C1330 1.414 . S
C1331 C1332 1.374 . S
C1332 H1306 0.950 . S
C1332 C1328 1.385 . S
C1332 C1331 1.374 . S
C1333 C1330 1.499 . S
C1333 C1334 1.373 . S
C1333 C1335 1.389 . S
C1334 H1307 0.950 . S
C1334 C1320 1.377 . S
C1334 C1333 1.373 . S
C1335 C1319 1.377 . S
C1335 C1333 1.389 . S
C1335 C1336 1.524 . S
C1336 C1335 1.524 . S
C1336 C1337 1.397 . S
C1336 C1341 1.363 . S
C1337 H1308 0.950 . S
C1337 C1336 1.397 . S
C1337 C1338 1.334 . S
C1338 H1309 0.950 . S
C1338 C1337 1.334 . S
C1338 C1339 1.287 . S
C1339 C1338 1.287 . S
C1339 C1340 1.524 . S
C1339 H1342 0.999 . S
C1340 H1310 0.950 . S
C1340 C1339 1.524 . S
C1340 C1341 1.415 . S
C1341 H1311 0.950 . S
C1341 C1336 1.363 . S
C1341 C1340 1.415 . S
H1342 C1339 0.999 . S
H1343 C1324 0.913 . S
H1344 C1362 0.951 . S
H1345 C1364 0.951 . S
H1346 C1366 0.950 . S
H1347 C1367 0.950 . S
H1348 C1369 0.950 . S
H1349 C1372 0.950 . S
H1350 C1373 0.950 . S
H1351 C1375 0.950 . S
H1352 C1376 0.950 . S
H1353 C1377 0.951 . S
H1354 C1379 0.951 . S
H1355 C1381 0.950 . S
H1356 C1382 0.950 . S
H1357 C1384 0.950 . S
H1358 C1387 0.950 . S
H1359 C1388 0.950 . S
H1360 C1390 0.950 . S
H1361 C1391 0.950 . S
C1362 H1344 0.951 . S
C1362 C1363 1.366 . S
C1362 C1364 1.388 . S
C1363 C1362 1.366 . S
C1363 C1367 1.385 . S
C1364 H1345 0.951 . S
C1364 C1362 1.388 . S
C1364 C1365 1.366 . S
C1365 C1364 1.366 . S
C1365 C1366 1.414 . S
C1365 C1368 1.499 . S
C1366 H1346 0.950 . S
C1366 C1365 1.414 . S
C1366 C1367 1.374 . S
C1367 H1347 0.950 . S
C1367 C1363 1.385 . S
C1367 C1366 1.374 . S
C1368 C1365 1.499 . S
C1368 C1369 1.373 . S
C1368 C1370 1.389 . S
C1369 H1348 0.950 . S
C1369 C1368 1.373 . S
C1369 C1385 1.377 . S
C1370 C1368 1.389 . S
C1370 C1371 1.524 . S
C1370 C1384 1.377 . S
C1371 C1370 1.524 . S
C1371 C1372 1.397 . S
C1371 C1376 1.363 . S
C1372 H1349 0.950 . S
C1372 C1371 1.397 . S
C1372 C1373 1.334 . S
C1373 H1350 0.950 . S
C1373 C1372 1.334 . S
C1373 C1374 1.287 . S
C1374 C1373 1.287 . S
C1374 C1375 1.524 . S
C1374 H1393 0.913 . S
C1375 H1351 0.950 . S
C1375 C1374 1.524 . S
C1375 C1376 1.415 . S
C1376 H1352 0.950 . S
C1376 C1371 1.363 . S
C1376 C1375 1.415 . S
C1377 H1353 0.951 . S
C1377 C1378 1.366 . S
C1377 C1379 1.388 . S
C1378 C1377 1.366 . S
C1378 C1382 1.385 . S
C1379 H1354 0.951 . S
C1379 C1377 1.388 . S
C1379 C1380 1.366 . S
C1380 C1379 1.366 . S
C1380 C1381 1.414 . S
C1380 C1383 1.499 . S
C1381 H1355 0.950 . S
C1381 C1380 1.414 . S
C1381 C1382 1.374 . S
C1382 H1356 0.950 . S
C1382 C1378 1.385 . S
C1382 C1381 1.374 . S
C1383 C1380 1.499 . S
C1383 C1384 1.373 . S
C1383 C1385 1.389 . S
C1384 H1357 0.950 . S
C1384 C1370 1.377 . S
C1384 C1383 1.373 . S
C1385 C1369 1.377 . S
C1385 C1383 1.389 . S
C1385 C1386 1.524 . S
C1386 C1385 1.524 . S
C1386 C1387 1.397 . S
C1386 C1391 1.363 . S
C1387 H1358 0.950 . S
C1387 C1386 1.397 . S
C1387 C1388 1.334 . S
C1388 H1359 0.950 . S
C1388 C1387 1.334 . S
C1388 C1389 1.287 . S
C1389 C1388 1.287 . S
C1389 C1390 1.524 . S
C1389 H1392 0.999 . S
C1390 H1360 0.950 . S
C1390 C1389 1.524 . S
C1390 C1391 1.415 . S
C1391 H1361 0.950 . S
C1391 C1386 1.363 . S
C1391 C1390 1.415 . S
H1392 C1389 0.999 . S
H1393 C1374 0.913 . S
H1394 C1412 0.951 . S
H1395 C1414 0.951 . S
H1396 C1416 0.950 . S
H1397 C1417 0.950 . S
H1398 C1419 0.950 . S
H1399 C1422 0.950 . S
H1400 C1423 0.950 . S
H1401 C1425 0.950 . S
H1402 C1426 0.950 . S
H1403 C1427 0.951 . S
H1404 C1429 0.951 . S
H1405 C1431 0.950 . S
H1406 C1432 0.950 . S
H1407 C1434 0.950 . S
H1408 C1437 0.950 . S
H1409 C1438 0.950 . S
H1410 C1440 0.950 . S
H1411 C1441 0.950 . S
C1412 H1394 0.951 . S
C1412 C1413 1.366 . S
C1412 C1414 1.388 . S
C1413 C1412 1.366 . S
C1413 C1417 1.385 . S
C1414 H1395 0.951 . S
C1414 C1412 1.388 . S
C1414 C1415 1.366 . S
C1415 C1414 1.366 . S
C1415 C1416 1.414 . S
C1415 C1418 1.499 . S
C1416 H1396 0.950 . S
C1416 C1415 1.414 . S
C1416 C1417 1.374 . S
C1417 H1397 0.950 . S
C1417 C1413 1.385 . S
C1417 C1416 1.374 . S
C1418 C1415 1.499 . S
C1418 C1419 1.373 . S
C1418 C1420 1.389 . S
C1419 H1398 0.950 . S
C1419 C1418 1.373 . S
C1419 C1435 1.377 . S
C1420 C1418 1.389 . S
C1420 C1421 1.524 . S
C1420 C1434 1.377 . S
C1421 C1420 1.524 . S
C1421 C1422 1.397 . S
C1421 C1426 1.363 . S
C1422 H1399 0.950 . S
C1422 C1421 1.397 . S
C1422 C1423 1.334 . S
C1423 H1400 0.950 . S
C1423 C1422 1.334 . S
C1423 C1424 1.287 . S
C1424 C1423 1.287 . S
C1424 C1425 1.524 . S
C1424 H1443 0.913 . S
C1425 H1401 0.950 . S
C1425 C1424 1.524 . S
C1425 C1426 1.415 . S
C1426 H1402 0.950 . S
C1426 C1421 1.363 . S
C1426 C1425 1.415 . S
C1427 H1403 0.951 . S
C1427 C1428 1.366 . S
C1427 C1429 1.388 . S
C1428 C1427 1.366 . S
C1428 C1432 1.385 . S
C1429 H1404 0.951 . S
C1429 C1427 1.388 . S
C1429 C1430 1.366 . S
C1430 C1429 1.366 . S
C1430 C1431 1.414 . S
C1430 C1433 1.499 . S
C1431 H1405 0.950 . S
C1431 C1430 1.414 . S
C1431 C1432 1.374 . S
C1432 H1406 0.950 . S
C1432 C1428 1.385 . S
C1432 C1431 1.374 . S
C1433 C1430 1.499 . S
C1433 C1434 1.373 . S
C1433 C1435 1.389 . S
C1434 H1407 0.950 . S
C1434 C1420 1.377 . S
C1434 C1433 1.373 . S
C1435 C1419 1.377 . S
C1435 C1433 1.389 . S
C1435 C1436 1.524 . S
C1436 C1435 1.524 . S
C1436 C1437 1.397 . S
C1436 C1441 1.363 . S
C1437 H1408 0.950 . S
C1437 C1436 1.397 . S
C1437 C1438 1.334 1_556 S
C1438 H1409 0.950 . S
C1438 C1437 1.334 1_554 S
C1438 C1439 1.287 . S
C1439 C1438 1.287 . S
C1439 C1440 1.524 . S
C1439 H1442 0.999 . S
C1440 H1410 0.950 . S
C1440 C1439 1.524 . S
C1440 C1441 1.415 1_554 S
C1441 H1411 0.950 . S
C1441 C1436 1.363 . S
C1441 C1440 1.415 1_556 S
H1442 C1439 0.999 . S
H1443 C1424 0.913 . S
H1444 C1462 0.951 . S
H1445 C1464 0.951 . S
H1446 C1466 0.950 . S
H1447 C1467 0.950 . S
H1448 C1469 0.950 . S
H1449 C1472 0.950 . S
H1450 C1473 0.950 . S
H1451 C1475 0.950 . S
H1452 C1476 0.950 . S
H1453 C1477 0.951 . S
H1454 C1479 0.951 . S
H1455 C1481 0.950 . S
H1456 C1482 0.950 . S
H1457 C1484 0.950 . S
H1458 C1487 0.950 . S
H1459 C1488 0.950 1_556 S
H1460 C1490 0.950 1_655 S
H1461 C1491 0.950 . S
C1462 H1444 0.951 . S
C1462 C1463 1.366 . S
C1462 C1464 1.388 . S
C1463 C1462 1.366 . S
C1463 C1467 1.385 . S
C1464 H1445 0.951 . S
C1464 C1462 1.388 . S
C1464 C1465 1.366 . S
C1465 C1464 1.366 . S
C1465 C1466 1.414 . S
C1465 C1468 1.499 . S
C1466 H1446 0.950 . S
C1466 C1465 1.414 . S
C1466 C1467 1.374 . S
C1467 H1447 0.950 . S
C1467 C1463 1.385 . S
C1467 C1466 1.374 . S
C1468 C1465 1.499 . S
C1468 C1469 1.373 . S
C1468 C1470 1.389 . S
C1469 H1448 0.950 . S
C1469 C1468 1.373 . S
C1469 C1485 1.377 . S
C1470 C1468 1.389 . S
C1470 C1471 1.524 . S
C1470 C1484 1.377 . S
C1471 C1470 1.524 . S
C1471 C1472 1.397 . S
C1471 C1476 1.363 . S
C1472 H1449 0.950 . S
C1472 C1471 1.397 . S
C1472 C1473 1.334 . S
C1473 H1450 0.950 . S
C1473 C1472 1.334 . S
C1473 C1474 1.287 . S
C1474 C1473 1.287 . S
C1474 C1475 1.524 . S
C1474 H1493 0.913 . S
C1475 H1451 0.950 . S
C1475 C1474 1.524 . S
C1475 C1476 1.415 . S
C1476 H1452 0.950 . S
C1476 C1471 1.363 . S
C1476 C1475 1.415 . S
C1477 H1453 0.951 . S
C1477 C1478 1.366 . S
C1477 C1479 1.388 . S
C1478 C1477 1.366 . S
C1478 C1482 1.385 . S
C1479 H1454 0.951 . S
C1479 C1477 1.388 . S
C1479 C1480 1.366 . S
C1480 C1479 1.366 . S
C1480 C1481 1.414 . S
C1480 C1483 1.499 . S
C1481 H1455 0.950 . S
C1481 C1480 1.414 . S
C1481 C1482 1.374 . S
C1482 H1456 0.950 . S
C1482 C1478 1.385 . S
C1482 C1481 1.374 . S
C1483 C1480 1.499 . S
C1483 C1484 1.373 . S
C1483 C1485 1.389 . S
C1484 H1457 0.950 . S
C1484 C1470 1.377 . S
C1484 C1483 1.373 . S
C1485 C1469 1.377 . S
C1485 C1483 1.389 . S
C1485 C1486 1.524 . S
C1486 C1485 1.524 . S
C1486 C1487 1.397 . S
C1486 C1491 1.363 . S
C1487 H1458 0.950 . S
C1487 C1486 1.397 . S
C1487 C1488 1.334 . S
C1488 H1459 0.950 1_554 S
C1488 C1487 1.334 . S
C1488 C1489 1.287 . S
C1489 C1488 1.287 . S
C1489 C1490 1.524 . S
C1489 H1492 0.999 1_454 S
C1490 H1460 0.950 1_455 S
C1490 C1489 1.524 . S
C1490 C1491 1.415 . S
C1491 H1461 0.950 . S
C1491 C1486 1.363 . S
C1491 C1490 1.415 . S
H1492 C1489 0.999 1_656 S
H1493 C1474 0.913 . S
H1494 C1512 0.951 . S
H1495 C1514 0.951 . S
H1496 C1516 0.950 . S
H1497 C1517 0.950 . S
H1498 C1519 0.950 . S
H1499 C1522 0.950 . S
H1500 C1523 0.950 . S
H1501 C1525 0.950 . S
H1502 C1526 0.950 . S
H1503 C1527 0.951 . S
H1504 C1529 0.951 . S
H1505 C1531 0.950 . S
H1506 C1532 0.950 . S
H1507 C1534 0.950 . S
H1508 C1537 0.950 . S
H1509 C1538 0.950 . S
H1510 C1540 0.950 . S
H1511 C1541 0.950 . S
C1512 H1494 0.951 . S
C1512 C1513 1.366 . S
C1512 C1514 1.388 . S
C1513 C1512 1.366 . S
C1513 C1517 1.385 . S
C1514 H1495 0.951 . S
C1514 C1512 1.388 . S
C1514 C1515 1.366 . S
C1515 C1514 1.366 . S
C1515 C1516 1.414 . S
C1515 C1518 1.499 . S
C1516 H1496 0.950 . S
C1516 C1515 1.414 . S
C1516 C1517 1.374 . S
C1517 H1497 0.950 . S
C1517 C1513 1.385 . S
C1517 C1516 1.374 . S
C1518 C1515 1.499 . S
C1518 C1519 1.373 . S
C1518 C1520 1.389 . S
C1519 H1498 0.950 . S
C1519 C1518 1.373 . S
C1519 C1535 1.377 . S
C1520 C1518 1.389 . S
C1520 C1521 1.524 . S
C1520 C1534 1.377 . S
C1521 C1520 1.524 . S
C1521 C1522 1.397 . S
C1521 C1526 1.363 . S
C1522 H1499 0.950 . S
C1522 C1521 1.397 . S
C1522 C1523 1.334 . S
C1523 H1500 0.950 . S
C1523 C1522 1.334 . S
C1523 C1524 1.287 . S
C1524 C1523 1.287 . S
C1524 C1525 1.524 . S
C1524 H1543 0.913 . S
C1525 H1501 0.950 . S
C1525 C1524 1.524 . S
C1525 C1526 1.415 . S
C1526 H1502 0.950 . S
C1526 C1521 1.363 . S
C1526 C1525 1.415 . S
C1527 H1503 0.951 . S
C1527 C1528 1.366 . S
C1527 C1529 1.388 . S
C1528 C1527 1.366 . S
C1528 C1532 1.385 . S
C1529 H1504 0.951 . S
C1529 C1527 1.388 . S
C1529 C1530 1.366 . S
C1530 C1529 1.366 . S
C1530 C1531 1.414 . S
C1530 C1533 1.499 . S
C1531 H1505 0.950 . S
C1531 C1530 1.414 . S
C1531 C1532 1.374 . S
C1532 H1506 0.950 . S
C1532 C1528 1.385 . S
C1532 C1531 1.374 . S
C1533 C1530 1.499 . S
C1533 C1534 1.373 . S
C1533 C1535 1.389 . S
C1534 H1507 0.950 . S
C1534 C1520 1.377 . S
C1534 C1533 1.373 . S
C1535 C1519 1.377 . S
C1535 C1533 1.389 . S
C1535 C1536 1.524 . S
C1536 C1535 1.524 . S
C1536 C1537 1.397 . S
C1536 C1541 1.363 . S
C1537 H1508 0.950 . S
C1537 C1536 1.397 . S
C1537 C1538 1.334 . S
C1538 H1509 0.950 . S
C1538 C1537 1.334 . S
C1538 C1539 1.287 . S
C1539 C1538 1.287 . S
C1539 C1540 1.524 . S
C1539 H1542 0.999 . S
C1540 H1510 0.950 . S
C1540 C1539 1.524 . S
C1540 C1541 1.415 . S
C1541 H1511 0.950 . S
C1541 C1536 1.363 . S
C1541 C1540 1.415 . S
H1542 C1539 0.999 . S
H1543 C1524 0.913 . S
H1544 C1562 0.951 . S
H1545 C1564 0.951 . S
H1546 C1566 0.950 . S
H1547 C1567 0.950 . S
H1548 C1569 0.950 . S
H1549 C1572 0.950 . S
H1550 C1573 0.950 . S
H1551 C1575 0.950 . S
H1552 C1576 0.950 . S
H1553 C1577 0.951 1_554 S
H1554 C1579 0.951 . S
H1555 C1581 0.950 . S
H1556 C1582 0.950 . S
H1557 C1584 0.950 . S
H1558 C1587 0.950 . S
H1559 C1588 0.950 . S
H1560 C1590 0.950 . S
H1561 C1591 0.950 . S
C1562 H1544 0.951 . S
C1562 C1563 1.366 . S
C1562 C1564 1.388 . S
C1563 C1562 1.366 . S
C1563 C1567 1.385 . S
C1564 H1545 0.951 . S
C1564 C1562 1.388 . S
C1564 C1565 1.366 . S
C1565 C1564 1.366 . S
C1565 C1566 1.414 . S
C1565 C1568 1.499 . S
C1566 H1546 0.950 . S
C1566 C1565 1.414 . S
C1566 C1567 1.374 . S
C1567 H1547 0.950 . S
C1567 C1563 1.385 . S
C1567 C1566 1.374 . S
C1568 C1565 1.499 . S
C1568 C1569 1.373 . S
C1568 C1570 1.389 . S
C1569 H1548 0.950 . S
C1569 C1568 1.373 . S
C1569 C1585 1.377 . S
C1570 C1568 1.389 . S
C1570 C1571 1.524 . S
C1570 C1584 1.377 . S
C1571 C1570 1.524 . S
C1571 C1572 1.397 . S
C1571 C1576 1.363 . S
C1572 H1549 0.950 . S
C1572 C1571 1.397 . S
C1572 C1573 1.334 . S
C1573 H1550 0.950 . S
C1573 C1572 1.334 . S
C1573 C1574 1.287 . S
C1574 C1573 1.287 . S
C1574 C1575 1.524 . S
C1574 H1593 0.913 . S
C1575 H1551 0.950 . S
C1575 C1574 1.524 . S
C1575 C1576 1.415 . S
C1576 H1552 0.950 . S
C1576 C1571 1.363 . S
C1576 C1575 1.415 . S
C1577 H1553 0.951 1_556 S
C1577 C1578 1.366 . S
C1577 C1579 1.388 . S
C1578 C1577 1.366 . S
C1578 C1582 1.385 . S
C1579 H1554 0.951 . S
C1579 C1577 1.388 . S
C1579 C1580 1.366 . S
C1580 C1579 1.366 . S
C1580 C1581 1.414 . S
C1580 C1583 1.499 . S
C1581 H1555 0.950 . S
C1581 C1580 1.414 . S
C1581 C1582 1.374 . S
C1582 H1556 0.950 . S
C1582 C1578 1.385 . S
C1582 C1581 1.374 . S
C1583 C1580 1.499 . S
C1583 C1584 1.373 . S
C1583 C1585 1.389 . S
C1584 H1557 0.950 . S
C1584 C1570 1.377 . S
C1584 C1583 1.373 . S
C1585 C1569 1.377 . S
C1585 C1583 1.389 . S
C1585 C1586 1.524 . S
C1586 C1585 1.524 . S
C1586 C1587 1.397 . S
C1586 C1591 1.363 . S
C1587 H1558 0.950 . S
C1587 C1586 1.397 . S
C1587 C1588 1.334 . S
C1588 H1559 0.950 . S
C1588 C1587 1.334 . S
C1588 C1589 1.287 . S
C1589 C1588 1.287 . S
C1589 C1590 1.524 . S
C1589 H1592 0.999 . S
C1590 H1560 0.950 . S
C1590 C1589 1.524 . S
C1590 C1591 1.415 . S
C1591 H1561 0.950 . S
C1591 C1586 1.363 . S
C1591 C1590 1.415 . S
H1592 C1589 0.999 . S
H1593 C1574 0.913 . S
H1594 C1612 0.951 . S
H1595 C1614 0.951 . S
H1596 C1616 0.950 . S
H1597 C1617 0.950 . S
H1598 C1619 0.950 . S
H1599 C1622 0.950 . S
H1600 C1623 0.950 . S
H1601 C1625 0.950 . S
H1602 C1626 0.950 . S
H1603 C1627 0.951 . S
H1604 C1629 0.951 . S
H1605 C1631 0.950 . S
H1606 C1632 0.950 . S
H1607 C1634 0.950 . S
H1608 C1637 0.950 . S
H1609 C1638 0.950 . S
H1610 C1640 0.950 . S
H1611 C1641 0.950 . S
C1612 H1594 0.951 . S
C1612 C1613 1.366 . S
C1612 C1614 1.388 . S
C1613 C1612 1.366 . S
C1613 C1617 1.385 . S
C1614 H1595 0.951 . S
C1614 C1612 1.388 . S
C1614 C1615 1.366 . S
C1615 C1614 1.366 . S
C1615 C1616 1.414 . S
C1615 C1618 1.499 . S
C1616 H1596 0.950 . S
C1616 C1615 1.414 . S
C1616 C1617 1.374 . S
C1617 H1597 0.950 . S
C1617 C1613 1.385 . S
C1617 C1616 1.374 . S
C1618 C1615 1.499 . S
C1618 C1619 1.373 . S
C1618 C1620 1.389 . S
C1619 H1598 0.950 . S
C1619 C1618 1.373 . S
C1619 C1635 1.377 . S
C1620 C1618 1.389 . S
C1620 C1621 1.524 . S
C1620 C1634 1.377 . S
C1621 C1620 1.524 . S
C1621 C1622 1.397 . S
C1621 C1626 1.363 . S
C1622 H1599 0.950 . S
C1622 C1621 1.397 . S
C1622 C1623 1.334 . S
C1623 H1600 0.950 . S
C1623 C1622 1.334 . S
C1623 C1624 1.287 . S
C1624 C1623 1.287 . S
C1624 C1625 1.524 . S
C1624 H1643 0.913 . S
C1625 H1601 0.950 . S
C1625 C1624 1.524 . S
C1625 C1626 1.415 . S
C1626 H1602 0.950 . S
C1626 C1621 1.363 . S
C1626 C1625 1.415 . S
C1627 H1603 0.951 . S
C1627 C1628 1.366 . S
C1627 C1629 1.388 . S
C1628 C1627 1.366 . S
C1628 C1632 1.385 . S
C1629 H1604 0.951 . S
C1629 C1627 1.388 . S
C1629 C1630 1.366 . S
C1630 C1629 1.366 . S
C1630 C1631 1.414 . S
C1630 C1633 1.499 . S
C1631 H1605 0.950 . S
C1631 C1630 1.414 . S
C1631 C1632 1.374 . S
C1632 H1606 0.950 . S
C1632 C1628 1.385 . S
C1632 C1631 1.374 . S
C1633 C1630 1.499 . S
C1633 C1634 1.373 . S
C1633 C1635 1.389 . S
C1634 H1607 0.950 . S
C1634 C1620 1.377 . S
C1634 C1633 1.373 . S
C1635 C1619 1.377 . S
C1635 C1633 1.389 . S
C1635 C1636 1.524 . S
C1636 C1635 1.524 . S
C1636 C1637 1.397 . S
C1636 C1641 1.363 . S
C1637 H1608 0.950 . S
C1637 C1636 1.397 . S
C1637 C1638 1.334 . S
C1638 H1609 0.950 . S
C1638 C1637 1.334 . S
C1638 C1639 1.287 . S
C1639 C1638 1.287 . S
C1639 C1640 1.524 . S
C1639 H1642 0.999 . S
C1640 H1610 0.950 . S
C1640 C1639 1.524 . S
C1640 C1641 1.415 . S
C1641 H1611 0.950 . S
C1641 C1636 1.363 . S
C1641 C1640 1.415 . S
H1642 C1639 0.999 . S
H1643 C1624 0.913 . S
H1644 C1662 0.951 . S
H1645 C1664 0.951 . S
H1646 C1666 0.950 . S
H1647 C1667 0.950 . S
H1648 C1669 0.950 . S
H1649 C1672 0.950 . S
H1650 C1673 0.950 . S
H1651 C1675 0.950 . S
H1652 C1676 0.950 . S
H1653 C1677 0.951 . S
H1654 C1679 0.951 . S
H1655 C1681 0.950 . S
H1656 C1682 0.950 . S
H1657 C1684 0.950 . S
H1658 C1687 0.950 . S
H1659 C1688 0.950 . S
H1660 C1690 0.950 . S
H1661 C1691 0.950 . S
C1662 H1644 0.951 . S
C1662 C1663 1.366 . S
C1662 C1664 1.388 . S
C1663 C1662 1.366 . S
C1663 C1667 1.385 . S
C1664 H1645 0.951 . S
C1664 C1662 1.388 . S
C1664 C1665 1.366 . S
C1665 C1664 1.366 . S
C1665 C1666 1.414 . S
C1665 C1668 1.499 . S
C1666 H1646 0.950 . S
C1666 C1665 1.414 . S
C1666 C1667 1.374 . S
C1667 H1647 0.950 . S
C1667 C1663 1.385 . S
C1667 C1666 1.374 . S
C1668 C1665 1.499 . S
C1668 C1669 1.373 . S
C1668 C1670 1.389 . S
C1669 H1648 0.950 . S
C1669 C1668 1.373 . S
C1669 C1685 1.377 . S
C1670 C1668 1.389 . S
C1670 C1671 1.524 . S
C1670 C1684 1.377 . S
C1671 C1670 1.524 . S
C1671 C1672 1.397 . S
C1671 C1676 1.363 . S
C1672 H1649 0.950 . S
C1672 C1671 1.397 . S
C1672 C1673 1.334 . S
C1673 H1650 0.950 . S
C1673 C1672 1.334 . S
C1673 C1674 1.287 . S
C1674 C1673 1.287 . S
C1674 C1675 1.524 . S
C1674 H1693 0.913 . S
C1675 H1651 0.950 . S
C1675 C1674 1.524 . S
C1675 C1676 1.415 . S
C1676 H1652 0.950 . S
C1676 C1671 1.363 . S
C1676 C1675 1.415 . S
C1677 H1653 0.951 . S
C1677 C1678 1.366 . S
C1677 C1679 1.388 . S
C1678 C1677 1.366 . S
C1678 C1682 1.385 . S
C1679 H1654 0.951 . S
C1679 C1677 1.388 . S
C1679 C1680 1.366 . S
C1680 C1679 1.366 . S
C1680 C1681 1.414 . S
C1680 C1683 1.499 . S
C1681 H1655 0.950 . S
C1681 C1680 1.414 . S
C1681 C1682 1.374 . S
C1682 H1656 0.950 . S
C1682 C1678 1.385 . S
C1682 C1681 1.374 . S
C1683 C1680 1.499 . S
C1683 C1684 1.373 . S
C1683 C1685 1.389 . S
C1684 H1657 0.950 . S
C1684 C1670 1.377 . S
C1684 C1683 1.373 . S
C1685 C1669 1.377 . S
C1685 C1683 1.389 . S
C1685 C1686 1.524 . S
C1686 C1685 1.524 . S
C1686 C1687 1.397 . S
C1686 C1691 1.363 . S
C1687 H1658 0.950 . S
C1687 C1686 1.397 . S
C1687 C1688 1.334 . S
C1688 H1659 0.950 . S
C1688 C1687 1.334 . S
C1688 C1689 1.287 . S
C1689 C1688 1.287 . S
C1689 C1690 1.524 . S
C1689 H1692 0.999 . S
C1690 H1660 0.950 . S
C1690 C1689 1.524 . S
C1690 C1691 1.415 . S
C1691 H1661 0.950 . S
C1691 C1686 1.363 . S
C1691 C1690 1.415 . S
H1692 C1689 0.999 . S
H1693 C1674 0.913 . S
H1694 C1712 0.951 . S
H1695 C1714 0.951 . S
H1696 C1716 0.950 . S
H1697 C1717 0.950 . S
H1698 C1719 0.950 . S
H1699 C1722 0.950 . S
H1700 C1723 0.950 . S
H1701 C1725 0.950 . S
H1702 C1726 0.950 . S
H1703 C1727 0.951 . S
H1704 C1729 0.951 . S
H1705 C1731 0.950 . S
H1706 C1732 0.950 . S
H1707 C1734 0.950 . S
H1708 C1737 0.950 . S
H1709 C1738 0.950 . S
H1710 C1740 0.950 . S
H1711 C1741 0.950 . S
C1712 H1694 0.951 . S
C1712 C1713 1.366 . S
C1712 C1714 1.388 . S
C1713 C1712 1.366 . S
C1713 C1717 1.385 . S
C1714 H1695 0.951 . S
C1714 C1712 1.388 . S
C1714 C1715 1.366 . S
C1715 C1714 1.366 . S
C1715 C1716 1.414 . S
C1715 C1718 1.499 . S
C1716 H1696 0.950 . S
C1716 C1715 1.414 . S
C1716 C1717 1.374 . S
C1717 H1697 0.950 . S
C1717 C1713 1.385 . S
C1717 C1716 1.374 . S
C1718 C1715 1.499 . S
C1718 C1719 1.373 . S
C1718 C1720 1.389 . S
C1719 H1698 0.950 . S
C1719 C1718 1.373 . S
C1719 C1735 1.377 . S
C1720 C1718 1.389 . S
C1720 C1721 1.524 . S
C1720 C1734 1.377 . S
C1721 C1720 1.524 . S
C1721 C1722 1.397 . S
C1721 C1726 1.363 . S
C1722 H1699 0.950 . S
C1722 C1721 1.397 . S
C1722 C1723 1.334 . S
C1723 H1700 0.950 . S
C1723 C1722 1.334 . S
C1723 C1724 1.287 . S
C1724 C1723 1.287 . S
C1724 C1725 1.524 . S
C1724 H1743 0.913 . S
C1725 H1701 0.950 . S
C1725 C1724 1.524 . S
C1725 C1726 1.415 . S
C1726 H1702 0.950 . S
C1726 C1721 1.363 . S
C1726 C1725 1.415 . S
C1727 H1703 0.951 . S
C1727 C1728 1.366 . S
C1727 C1729 1.388 . S
C1728 C1727 1.366 . S
C1728 C1732 1.385 . S
C1729 H1704 0.951 . S
C1729 C1727 1.388 . S
C1729 C1730 1.366 . S
C1730 C1729 1.366 . S
C1730 C1731 1.414 . S
C1730 C1733 1.499 . S
C1731 H1705 0.950 . S
C1731 C1730 1.414 . S
C1731 C1732 1.374 . S
C1732 H1706 0.950 . S
C1732 C1728 1.385 . S
C1732 C1731 1.374 . S
C1733 C1730 1.499 . S
C1733 C1734 1.373 . S
C1733 C1735 1.389 . S
C1734 H1707 0.950 . S
C1734 C1720 1.377 . S
C1734 C1733 1.373 . S
C1735 C1719 1.377 . S
C1735 C1733 1.389 . S
C1735 C1736 1.524 . S
C1736 C1735 1.524 . S
C1736 C1737 1.397 . S
C1736 C1741 1.363 . S
C1737 H1708 0.950 . S
C1737 C1736 1.397 . S
C1737 C1738 1.334 . S
C1738 H1709 0.950 . S
C1738 C1737 1.334 . S
C1738 C1739 1.287 . S
C1739 C1738 1.287 . S
C1739 C1740 1.524 . S
C1739 H1742 0.999 . S
C1740 H1710 0.950 . S
C1740 C1739 1.524 . S
C1740 C1741 1.415 . S
C1741 H1711 0.950 . S
C1741 C1736 1.363 . S
C1741 C1740 1.415 . S
H1742 C1739 0.999 . S
H1743 C1724 0.913 . S
H1744 C1762 0.951 . S
H1745 C1764 0.951 . S
H1746 C1766 0.950 . S
H1747 C1767 0.950 . S
H1748 C1769 0.950 . S
H1749 C1772 0.950 . S
H1750 C1773 0.950 . S
H1751 C1775 0.950 . S
H1752 C1776 0.950 . S
H1753 C1777 0.951 . S
H1754 C1779 0.951 . S
H1755 C1781 0.950 . S
H1756 C1782 0.950 . S
H1757 C1784 0.950 . S
H1758 C1787 0.950 . S
H1759 C1788 0.950 . S
H1760 C1790 0.950 . S
H1761 C1791 0.950 . S
C1762 H1744 0.951 . S
C1762 C1763 1.366 . S
C1762 C1764 1.388 . S
C1763 C1762 1.366 . S
C1763 C1767 1.385 . S
C1764 H1745 0.951 . S
C1764 C1762 1.388 . S
C1764 C1765 1.366 . S
C1765 C1764 1.366 . S
C1765 C1766 1.414 . S
C1765 C1768 1.499 . S
C1766 H1746 0.950 . S
C1766 C1765 1.414 . S
C1766 C1767 1.374 . S
C1767 H1747 0.950 . S
C1767 C1763 1.385 . S
C1767 C1766 1.374 . S
C1768 C1765 1.499 . S
C1768 C1769 1.373 . S
C1768 C1770 1.389 . S
C1769 H1748 0.950 . S
C1769 C1768 1.373 . S
C1769 C1785 1.377 . S
C1770 C1768 1.389 . S
C1770 C1771 1.524 . S
C1770 C1784 1.377 . S
C1771 C1770 1.524 . S
C1771 C1772 1.397 . S
C1771 C1776 1.363 . S
C1772 H1749 0.950 . S
C1772 C1771 1.397 . S
C1772 C1773 1.334 . S
C1773 H1750 0.950 . S
C1773 C1772 1.334 . S
C1773 C1774 1.287 . S
C1774 C1773 1.287 . S
C1774 C1775 1.524 . S
C1774 H1793 0.913 . S
C1775 H1751 0.950 . S
C1775 C1774 1.524 . S
C1775 C1776 1.415 . S
C1776 H1752 0.950 . S
C1776 C1771 1.363 . S
C1776 C1775 1.415 . S
C1777 H1753 0.951 . S
C1777 C1778 1.366 . S
C1777 C1779 1.388 . S
C1778 C1777 1.366 . S
C1778 C1782 1.385 . S
C1779 H1754 0.951 . S
C1779 C1777 1.388 . S
C1779 C1780 1.366 . S
C1780 C1779 1.366 . S
C1780 C1781 1.414 . S
C1780 C1783 1.499 . S
C1781 H1755 0.950 . S
C1781 C1780 1.414 . S
C1781 C1782 1.374 . S
C1782 H1756 0.950 . S
C1782 C1778 1.385 . S
C1782 C1781 1.374 . S
C1783 C1780 1.499 . S
C1783 C1784 1.373 . S
C1783 C1785 1.389 . S
C1784 H1757 0.950 . S
C1784 C1770 1.377 . S
C1784 C1783 1.373 . S
C1785 C1769 1.377 . S
C1785 C1783 1.389 . S
C1785 C1786 1.524 . S
C1786 C1785 1.524 . S
C1786 C1787 1.397 . S
C1786 C1791 1.363 . S
C1787 H1758 0.950 . S
C1787 C1786 1.397 . S
C1787 C1788 1.334 . S
C1788 H1759 0.950 . S
C1788 C1787 1.334 . S
C1788 C1789 1.287 . S
C1789 C1788 1.287 . S
C1789 C1790 1.524 . S
C1789 H1792 0.999 . S
C1790 H1760 0.950 . S
C1790 C1789 1.524 . S
C1790 C1791 1.415 . S
C1791 H1761 0.950 . S
C1791 C1786 1.363 . S
C1791 C1790 1.415 . S
H1792 C1789 0.999 . S
H1793 C1774 0.913 . S
H1794 C1812 0.951 . S
H1795 C1814 0.951 . S
H1796 C1816 0.950 . S
H1797 C1817 0.950 . S
H1798 C1819 0.950 . S
H1799 C1822 0.950 . S
H1800 C1823 0.950 . S
H1801 C1825 0.950 . S
H1802 C1826 0.950 . S
H1803 C1827 0.951 . S
H1804 C1829 0.951 . S
H1805 C1831 0.950 . S
H1806 C1832 0.950 . S
H1807 C1834 0.950 . S
H1808 C1837 0.950 . S
H1809 C1838 0.950 . S
H1810 C1840 0.950 . S
H1811 C1841 0.950 . S
C1812 H1794 0.951 . S
C1812 C1813 1.366 . S
C1812 C1814 1.388 . S
C1813 C1812 1.366 . S
C1813 C1817 1.385 . S
C1814 H1795 0.951 . S
C1814 C1812 1.388 . S
C1814 C1815 1.366 . S
C1815 C1814 1.366 . S
C1815 C1816 1.414 . S
C1815 C1818 1.499 . S
C1816 H1796 0.950 . S
C1816 C1815 1.414 . S
C1816 C1817 1.374 . S
C1817 H1797 0.950 . S
C1817 C1813 1.385 . S
C1817 C1816 1.374 . S
C1818 C1815 1.499 . S
C1818 C1819 1.373 . S
C1818 C1820 1.389 . S
C1819 H1798 0.950 . S
C1819 C1818 1.373 . S
C1819 C1835 1.377 . S
C1820 C1818 1.389 . S
C1820 C1821 1.524 . S
C1820 C1834 1.377 . S
C1821 C1820 1.524 . S
C1821 C1822 1.397 . S
C1821 C1826 1.363 . S
C1822 H1799 0.950 . S
C1822 C1821 1.397 . S
C1822 C1823 1.334 . S
C1823 H1800 0.950 . S
C1823 C1822 1.334 . S
C1823 C1824 1.287 . S
C1824 C1823 1.287 . S
C1824 C1825 1.524 . S
C1824 H1843 0.913 . S
C1825 H1801 0.950 . S
C1825 C1824 1.524 . S
C1825 C1826 1.415 . S
C1826 H1802 0.950 . S
C1826 C1821 1.363 . S
C1826 C1825 1.415 . S
C1827 H1803 0.951 . S
C1827 C1828 1.366 . S
C1827 C1829 1.388 . S
C1828 C1827 1.366 . S
C1828 C1832 1.385 . S
C1829 H1804 0.951 . S
C1829 C1827 1.388 . S
C1829 C1830 1.366 . S
C1830 C1829 1.366 . S
C1830 C1831 1.414 . S
C1830 C1833 1.499 . S
C1831 H1805 0.950 . S
C1831 C1830 1.414 . S
C1831 C1832 1.374 . S
C1832 H1806 0.950 . S
C1832 C1828 1.385 . S
C1832 C1831 1.374 . S
C1833 C1830 1.499 . S
C1833 C1834 1.373 . S
C1833 C1835 1.389 . S
C1834 H1807 0.950 . S
C1834 C1820 1.377 . S
C1834 C1833 1.373 . S
C1835 C1819 1.377 . S
C1835 C1833 1.389 . S
C1835 C1836 1.524 . S
C1836 C1835 1.524 . S
C1836 C1837 1.397 . S
C1836 C1841 1.363 . S
C1837 H1808 0.950 . S
C1837 C1836 1.397 . S
C1837 C1838 1.334 . S
C1838 H1809 0.950 . S
C1838 C1837 1.334 . S
C1838 C1839 1.287 . S
C1839 C1838 1.287 . S
C1839 C1840 1.524 . S
C1839 H1842 0.999 . S
C1840 H1810 0.950 . S
C1840 C1839 1.524 . S
C1840 C1841 1.415 . S
C1841 H1811 0.950 . S
C1841 C1836 1.363 . S
C1841 C1840 1.415 . S
H1842 C1839 0.999 . S
H1843 C1824 0.913 . S
H1844 C1862 0.951 . S
H1845 C1864 0.951 . S
H1846 C1866 0.950 . S
H1847 C1867 0.950 . S
H1848 C1869 0.950 . S
H1849 C1872 0.950 . S
H1850 C1873 0.950 . S
H1851 C1875 0.950 . S
H1852 C1876 0.950 . S
H1853 C1877 0.951 . S
H1854 C1879 0.951 . S
H1855 C1881 0.950 . S
H1856 C1882 0.950 . S
H1857 C1884 0.950 . S
H1858 C1887 0.950 . S
H1859 C1888 0.950 . S
H1860 C1890 0.950 . S
H1861 C1891 0.950 . S
C1862 H1844 0.951 . S
C1862 C1863 1.366 . S
C1862 C1864 1.388 . S
C1863 C1862 1.366 . S
C1863 C1867 1.385 . S
C1864 H1845 0.951 . S
C1864 C1862 1.388 . S
C1864 C1865 1.366 . S
C1865 C1864 1.366 . S
C1865 C1866 1.414 . S
C1865 C1868 1.499 . S
C1866 H1846 0.950 . S
C1866 C1865 1.414 . S
C1866 C1867 1.374 . S
C1867 H1847 0.950 . S
C1867 C1863 1.385 . S
C1867 C1866 1.374 . S
C1868 C1865 1.499 . S
C1868 C1869 1.373 . S
C1868 C1870 1.389 . S
C1869 H1848 0.950 . S
C1869 C1868 1.373 . S
C1869 C1885 1.377 . S
C1870 C1868 1.389 . S
C1870 C1871 1.524 . S
C1870 C1884 1.377 . S
C1871 C1870 1.524 . S
C1871 C1872 1.397 . S
C1871 C1876 1.363 . S
C1872 H1849 0.950 . S
C1872 C1871 1.397 . S
C1872 C1873 1.334 . S
C1873 H1850 0.950 . S
C1873 C1872 1.334 . S
C1873 C1874 1.287 . S
C1874 C1873 1.287 . S
C1874 C1875 1.524 . S
C1874 H1893 0.913 . S
C1875 H1851 0.950 . S
C1875 C1874 1.524 . S
C1875 C1876 1.415 . S
C1876 H1852 0.950 . S
C1876 C1871 1.363 . S
C1876 C1875 1.415 . S
C1877 H1853 0.951 . S
C1877 C1878 1.366 . S
C1877 C1879 1.388 . S
C1878 C1877 1.366 . S
C1878 C1882 1.385 . S
C1879 H1854 0.951 . S
C1879 C1877 1.388 . S
C1879 C1880 1.366 . S
C1880 C1879 1.366 . S
C1880 C1881 1.414 . S
C1880 C1883 1.499 . S
C1881 H1855 0.950 . S
C1881 C1880 1.414 . S
C1881 C1882 1.374 . S
C1882 H1856 0.950 . S
C1882 C1878 1.385 . S
C1882 C1881 1.374 . S
C1883 C1880 1.499 . S
C1883 C1884 1.373 . S
C1883 C1885 1.389 . S
C1884 H1857 0.950 . S
C1884 C1870 1.377 . S
C1884 C1883 1.373 . S
C1885 C1869 1.377 . S
C1885 C1883 1.389 . S
C1885 C1886 1.524 . S
C1886 C1885 1.524 . S
C1886 C1887 1.397 . S
C1886 C1891 1.363 . S
C1887 H1858 0.950 . S
C1887 C1886 1.397 . S
C1887 C1888 1.334 . S
C1888 H1859 0.950 . S
C1888 C1887 1.334 . S
C1888 C1889 1.287 . S
C1889 C1888 1.287 . S
C1889 C1890 1.524 . S
C1889 H1892 0.999 . S
C1890 H1860 0.950 . S
C1890 C1889 1.524 . S
C1890 C1891 1.415 . S
C1891 H1861 0.950 . S
C1891 C1886 1.363 . S
C1891 C1890 1.415 . S
H1892 C1889 0.999 . S
H1893 C1874 0.913 . S
H1894 C1912 0.951 . S
H1895 C1914 0.951 . S
H1896 C1916 0.950 . S
H1897 C1917 0.950 . S
H1898 C1919 0.950 . S
H1899 C1922 0.950 . S
H1900 C1923 0.950 . S
H1901 C1925 0.950 . S
H1902 C1926 0.950 . S
H1903 C1927 0.951 . S
H1904 C1929 0.951 . S
H1905 C1931 0.950 . S
H1906 C1932 0.950 . S
H1907 C1934 0.950 . S
H1908 C1937 0.950 . S
H1909 C1938 0.950 . S
H1910 C1940 0.950 . S
H1911 C1941 0.950 . S
C1912 H1894 0.951 . S
C1912 C1913 1.366 . S
C1912 C1914 1.388 . S
C1913 C1912 1.366 . S
C1913 C1917 1.385 . S
C1914 H1895 0.951 . S
C1914 C1912 1.388 . S
C1914 C1915 1.366 . S
C1915 C1914 1.366 . S
C1915 C1916 1.414 . S
C1915 C1918 1.499 . S
C1916 H1896 0.950 . S
C1916 C1915 1.414 . S
C1916 C1917 1.374 . S
C1917 H1897 0.950 . S
C1917 C1913 1.385 . S
C1917 C1916 1.374 . S
C1918 C1915 1.499 . S
C1918 C1919 1.373 . S
C1918 C1920 1.389 . S
C1919 H1898 0.950 . S
C1919 C1918 1.373 . S
C1919 C1935 1.377 . S
C1920 C1918 1.389 . S
C1920 C1921 1.524 . S
C1920 C1934 1.377 . S
C1921 C1920 1.524 . S
C1921 C1922 1.397 . S
C1921 C1926 1.363 . S
C1922 H1899 0.950 . S
C1922 C1921 1.397 . S
C1922 C1923 1.334 . S
C1923 H1900 0.950 . S
C1923 C1922 1.334 . S
C1923 C1924 1.287 . S
C1924 C1923 1.287 . S
C1924 C1925 1.524 . S
C1924 H1943 0.913 . S
C1925 H1901 0.950 . S
C1925 C1924 1.524 . S
C1925 C1926 1.415 . S
C1926 H1902 0.950 . S
C1926 C1921 1.363 . S
C1926 C1925 1.415 . S
C1927 H1903 0.951 . S
C1927 C1928 1.366 . S
C1927 C1929 1.388 . S
C1928 C1927 1.366 . S
C1928 C1932 1.385 . S
C1929 H1904 0.951 . S
C1929 C1927 1.388 . S
C1929 C1930 1.366 . S
C1930 C1929 1.366 . S
C1930 C1931 1.414 . S
C1930 C1933 1.499 . S
C1931 H1905 0.950 . S
C1931 C1930 1.414 . S
C1931 C1932 1.374 . S
C1932 H1906 0.950 . S
C1932 C1928 1.385 . S
C1932 C1931 1.374 . S
C1933 C1930 1.499 . S
C1933 C1934 1.373 . S
C1933 C1935 1.389 . S
C1934 H1907 0.950 . S
C1934 C1920 1.377 . S
C1934 C1933 1.373 . S
C1935 C1919 1.377 . S
C1935 C1933 1.389 . S
C1935 C1936 1.524 . S
C1936 C1935 1.524 . S
C1936 C1937 1.397 . S
C1936 C1941 1.363 . S
C1937 H1908 0.950 . S
C1937 C1936 1.397 . S
C1937 C1938 1.334 . S
C1938 H1909 0.950 . S
C1938 C1937 1.334 . S
C1938 C1939 1.287 . S
C1939 C1938 1.287 . S
C1939 C1940 1.524 . S
C1939 H1942 0.999 . S
C1940 H1910 0.950 . S
C1940 C1939 1.524 . S
C1940 C1941 1.415 . S
C1941 H1911 0.950 . S
C1941 C1936 1.363 . S
C1941 C1940 1.415 . S
H1942 C1939 0.999 . S
H1943 C1924 0.913 . S
H1944 C1962 0.951 . S
H1945 C1964 0.951 . S
H1946 C1966 0.950 . S
H1947 C1967 0.950 . S
H1948 C1969 0.950 . S
H1949 C1972 0.950 . S
H1950 C1973 0.950 . S
H1951 C1975 0.950 . S
H1952 C1976 0.950 . S
H1953 C1977 0.951 . S
H1954 C1979 0.951 . S
H1955 C1981 0.950 . S
H1956 C1982 0.950 . S
H1957 C1984 0.950 . S
H1958 C1987 0.950 . S
H1959 C1988 0.950 . S
H1960 C1990 0.950 . S
H1961 C1991 0.950 . S
C1962 H1944 0.951 . S
C1962 C1963 1.366 . S
C1962 C1964 1.388 . S
C1963 C1962 1.366 . S
C1963 C1967 1.385 . S
C1964 H1945 0.951 . S
C1964 C1962 1.388 . S
C1964 C1965 1.366 . S
C1965 C1964 1.366 . S
C1965 C1966 1.414 . S
C1965 C1968 1.499 . S
C1966 H1946 0.950 . S
C1966 C1965 1.414 . S
C1966 C1967 1.374 . S
C1967 H1947 0.950 . S
C1967 C1963 1.385 . S
C1967 C1966 1.374 . S
C1968 C1965 1.499 . S
C1968 C1969 1.373 . S
C1968 C1970 1.389 . S
C1969 H1948 0.950 . S
C1969 C1968 1.373 . S
C1969 C1985 1.377 . S
C1970 C1968 1.389 . S
C1970 C1971 1.524 . S
C1970 C1984 1.377 . S
C1971 C1970 1.524 . S
C1971 C1972 1.397 . S
C1971 C1976 1.363 . S
C1972 H1949 0.950 . S
C1972 C1971 1.397 . S
C1972 C1973 1.334 . S
C1973 H1950 0.950 . S
C1973 C1972 1.334 . S
C1973 C1974 1.287 . S
C1974 C1973 1.287 . S
C1974 C1975 1.524 . S
C1974 H1993 0.913 . S
C1975 H1951 0.950 . S
C1975 C1974 1.524 . S
C1975 C1976 1.415 . S
C1976 H1952 0.950 . S
C1976 C1971 1.363 . S
C1976 C1975 1.415 . S
C1977 H1953 0.951 . S
C1977 C1978 1.366 . S
C1977 C1979 1.388 . S
C1978 C1977 1.366 . S
C1978 C1982 1.385 . S
C1979 H1954 0.951 . S
C1979 C1977 1.388 . S
C1979 C1980 1.366 . S
C1980 C1979 1.366 . S
C1980 C1981 1.414 . S
C1980 C1983 1.499 . S
C1981 H1955 0.950 . S
C1981 C1980 1.414 . S
C1981 C1982 1.374 . S
C1982 H1956 0.950 . S
C1982 C1978 1.385 . S
C1982 C1981 1.374 . S
C1983 C1980 1.499 . S
C1983 C1984 1.373 . S
C1983 C1985 1.389 . S
C1984 H1957 0.950 . S
C1984 C1970 1.377 . S
C1984 C1983 1.373 . S
C1985 C1969 1.377 . S
C1985 C1983 1.389 . S
C1985 C1986 1.524 . S
C1986 C1985 1.524 . S
C1986 C1987 1.397 . S
C1986 C1991 1.363 . S
C1987 H1958 0.950 . S
C1987 C1986 1.397 . S
C1987 C1988 1.334 . S
C1988 H1959 0.950 . S
C1988 C1987 1.334 . S
C1988 C1989 1.287 . S
C1989 C1988 1.287 . S
C1989 C1990 1.524 . S
C1989 H1992 0.999 . S
C1990 H1960 0.950 . S
C1990 C1989 1.524 . S
C1990 C1991 1.415 . S
C1991 H1961 0.950 . S
C1991 C1986 1.363 . S
C1991 C1990 1.415 . S
H1992 C1989 0.999 . S
H1993 C1974 0.913 . S
H1994 C2012 0.951 . S
H1995 C2014 0.951 . S
H1996 C2016 0.950 . S
H1997 C2017 0.950 . S
H1998 C2019 0.950 . S
H1999 C2022 0.950 . S
H2000 C2023 0.950 . S
H2001 C2025 0.950 . S
H2002 C2026 0.950 . S
H2003 C2027 0.951 . S
H2004 C2029 0.951 . S
H2005 C2031 0.950 . S
H2006 C2032 0.950 . S
H2007 C2034 0.950 . S
H2008 C2037 0.950 . S
H2009 C2038 0.950 . S
H2010 C2040 0.950 . S
H2011 C2041 0.950 . S
C2012 H1994 0.951 . S
C2012 C2013 1.366 . S
C2012 C2014 1.388 . S
C2013 C2012 1.366 . S
C2013 C2017 1.385 . S
C2014 H1995 0.951 . S
C2014 C2012 1.388 . S
C2014 C2015 1.366 . S
C2015 C2014 1.366 . S
C2015 C2016 1.414 . S
C2015 C2018 1.499 . S
C2016 H1996 0.950 . S
C2016 C2015 1.414 . S
C2016 C2017 1.374 . S
C2017 H1997 0.950 . S
C2017 C2013 1.385 . S
C2017 C2016 1.374 . S
C2018 C2015 1.499 . S
C2018 C2019 1.373 . S
C2018 C2020 1.389 . S
C2019 H1998 0.950 . S
C2019 C2018 1.373 . S
C2019 C2035 1.377 . S
C2020 C2018 1.389 . S
C2020 C2021 1.524 . S
C2020 C2034 1.377 . S
C2021 C2020 1.524 . S
C2021 C2022 1.397 . S
C2021 C2026 1.363 . S
C2022 H1999 0.950 . S
C2022 C2021 1.397 . S
C2022 C2023 1.334 . S
C2023 H2000 0.950 . S
C2023 C2022 1.334 . S
C2023 C2024 1.287 . S
C2024 C2023 1.287 . S
C2024 C2025 1.524 . S
C2024 H2043 0.913 . S
C2025 H2001 0.950 . S
C2025 C2024 1.524 . S
C2025 C2026 1.415 . S
C2026 H2002 0.950 . S
C2026 C2021 1.363 . S
C2026 C2025 1.415 . S
C2027 H2003 0.951 . S
C2027 C2028 1.366 . S
C2027 C2029 1.388 . S
C2028 C2027 1.366 . S
C2028 C2032 1.385 . S
C2029 H2004 0.951 . S
C2029 C2027 1.388 . S
C2029 C2030 1.366 . S
C2030 C2029 1.366 . S
C2030 C2031 1.414 . S
C2030 C2033 1.499 . S
C2031 H2005 0.950 . S
C2031 C2030 1.414 . S
C2031 C2032 1.374 . S
C2032 H2006 0.950 . S
C2032 C2028 1.385 . S
C2032 C2031 1.374 . S
C2033 C2030 1.499 . S
C2033 C2034 1.373 . S
C2033 C2035 1.389 . S
C2034 H2007 0.950 . S
C2034 C2020 1.377 . S
C2034 C2033 1.373 . S
C2035 C2019 1.377 . S
C2035 C2033 1.389 . S
C2035 C2036 1.524 . S
C2036 C2035 1.524 . S
C2036 C2037 1.397 . S
C2036 C2041 1.363 . S
C2037 H2008 0.950 . S
C2037 C2036 1.397 . S
C2037 C2038 1.334 1_556 S
C2038 H2009 0.950 . S
C2038 C2037 1.334 1_554 S
C2038 C2039 1.287 . S
C2039 C2038 1.287 . S
C2039 C2040 1.524 . S
C2039 H2042 0.999 . S
C2040 H2010 0.950 . S
C2040 C2039 1.524 . S
C2040 C2041 1.415 1_554 S
C2041 H2011 0.950 . S
C2041 C2036 1.363 . S
C2041 C2040 1.415 1_556 S
H2042 C2039 0.999 . S
H2043 C2024 0.913 . S
H2044 C2062 0.951 . S
H2045 C2064 0.951 . S
H2046 C2066 0.950 . S
H2047 C2067 0.950 . S
H2048 C2069 0.950 . S
H2049 C2072 0.950 . S
H2050 C2073 0.950 . S
H2051 C2075 0.950 . S
H2052 C2076 0.950 . S
H2053 C2077 0.951 . S
H2054 C2079 0.951 . S
H2055 C2081 0.950 . S
H2056 C2082 0.950 . S
H2057 C2084 0.950 . S
H2058 C2087 0.950 . S
H2059 C2088 0.950 . S
H2060 C2090 0.950 . S
H2061 C2091 0.950 . S
C2062 H2044 0.951 . S
C2062 C2063 1.366 . S
C2062 C2064 1.388 . S
C2063 C2062 1.366 . S
C2063 C2067 1.385 . S
C2064 H2045 0.951 . S
C2064 C2062 1.388 . S
C2064 C2065 1.366 . S
C2065 C2064 1.366 . S
C2065 C2066 1.414 . S
C2065 C2068 1.499 . S
C2066 H2046 0.950 . S
C2066 C2065 1.414 . S
C2066 C2067 1.374 . S
C2067 H2047 0.950 . S
C2067 C2063 1.385 . S
C2067 C2066 1.374 . S
C2068 C2065 1.499 . S
C2068 C2069 1.373 . S
C2068 C2070 1.389 . S
C2069 H2048 0.950 . S
C2069 C2068 1.373 . S
C2069 C2085 1.377 . S
C2070 C2068 1.389 . S
C2070 C2071 1.524 . S
C2070 C2084 1.377 . S
C2071 C2070 1.524 . S
C2071 C2072 1.397 . S
C2071 C2076 1.363 . S
C2072 H2049 0.950 . S
C2072 C2071 1.397 . S
C2072 C2073 1.334 . S
C2073 H2050 0.950 . S
C2073 C2072 1.334 . S
C2073 C2074 1.287 . S
C2074 C2073 1.287 . S
C2074 C2075 1.524 . S
C2074 H2093 0.913 . S
C2075 H2051 0.950 . S
C2075 C2074 1.524 . S
C2075 C2076 1.415 . S
C2076 H2052 0.950 . S
C2076 C2071 1.363 . S
C2076 C2075 1.415 . S
C2077 H2053 0.951 . S
C2077 C2078 1.366 . S
C2077 C2079 1.388 . S
C2078 C2077 1.366 . S
C2078 C2082 1.385 . S
C2079 H2054 0.951 . S
C2079 C2077 1.388 . S
C2079 C2080 1.366 . S
C2080 C2079 1.366 . S
C2080 C2081 1.414 . S
C2080 C2083 1.499 . S
C2081 H2055 0.950 . S
C2081 C2080 1.414 . S
C2081 C2082 1.374 . S
C2082 H2056 0.950 . S
C2082 C2078 1.385 . S
C2082 C2081 1.374 . S
C2083 C2080 1.499 . S
C2083 C2084 1.373 . S
C2083 C2085 1.389 . S
C2084 H2057 0.950 . S
C2084 C2070 1.377 . S
C2084 C2083 1.373 . S
C2085 C2069 1.377 . S
C2085 C2083 1.389 . S
C2085 C2086 1.524 . S
C2086 C2085 1.524 . S
C2086 C2087 1.397 . S
C2086 C2091 1.363 . S
C2087 H2058 0.950 . S
C2087 C2086 1.397 . S
C2087 C2088 1.334 . S
C2088 H2059 0.950 . S
C2088 C2087 1.334 . S
C2088 C2089 1.287 . S
C2089 C2088 1.287 . S
C2089 C2090 1.524 . S
C2089 H2092 0.999 . S
C2090 H2060 0.950 . S
C2090 C2089 1.524 . S
C2090 C2091 1.415 . S
C2091 H2061 0.950 . S
C2091 C2086 1.363 . S
C2091 C2090 1.415 . S
H2092 C2089 0.999 . S
H2093 C2074 0.913 . S
H2094 C2112 0.951 . S
H2095 C2114 0.951 . S
H2096 C2116 0.950 . S
H2097 C2117 0.950 . S
H2098 C2119 0.950 . S
H2099 C2122 0.950 . S
H2100 C2123 0.950 . S
H2101 C2125 0.950 . S
H2102 C2126 0.950 . S
H2103 C2127 0.951 . S
H2104 C2129 0.951 . S
H2105 C2131 0.950 . S
H2106 C2132 0.950 . S
H2107 C2134 0.950 . S
H2108 C2137 0.950 . S
H2109 C2138 0.950 . S
H2110 C2140 0.950 . S
H2111 C2141 0.950 . S
C2112 H2094 0.951 . S
C2112 C2113 1.366 . S
C2112 C2114 1.388 . S
C2113 C2112 1.366 . S
C2113 C2117 1.385 . S
C2114 H2095 0.951 . S
C2114 C2112 1.388 . S
C2114 C2115 1.366 . S
C2115 C2114 1.366 . S
C2115 C2116 1.414 . S
C2115 C2118 1.499 . S
C2116 H2096 0.950 . S
C2116 C2115 1.414 . S
C2116 C2117 1.374 . S
C2117 H2097 0.950 . S
C2117 C2113 1.385 . S
C2117 C2116 1.374 . S
C2118 C2115 1.499 . S
C2118 C2119 1.373 . S
C2118 C2120 1.389 . S
C2119 H2098 0.950 . S
C2119 C2118 1.373 . S
C2119 C2135 1.377 . S
C2120 C2118 1.389 . S
C2120 C2121 1.524 . S
C2120 C2134 1.377 . S
C2121 C2120 1.524 . S
C2121 C2122 1.397 . S
C2121 C2126 1.363 . S
C2122 H2099 0.950 . S
C2122 C2121 1.397 . S
C2122 C2123 1.334 . S
C2123 H2100 0.950 . S
C2123 C2122 1.334 . S
C2123 C2124 1.287 . S
C2124 C2123 1.287 . S
C2124 C2125 1.524 . S
C2124 H2143 0.913 . S
C2125 H2101 0.950 . S
C2125 C2124 1.524 . S
C2125 C2126 1.415 . S
C2126 H2102 0.950 . S
C2126 C2121 1.363 . S
C2126 C2125 1.415 . S
C2127 H2103 0.951 . S
C2127 C2128 1.366 . S
C2127 C2129 1.388 . S
C2128 C2127 1.366 . S
C2128 C2132 1.385 . S
C2129 H2104 0.951 . S
C2129 C2127 1.388 . S
C2129 C2130 1.366 . S
C2130 C2129 1.366 . S
C2130 C2131 1.414 . S
C2130 C2133 1.499 . S
C2131 H2105 0.950 . S
C2131 C2130 1.414 . S
C2131 C2132 1.374 . S
C2132 H2106 0.950 . S
C2132 C2128 1.385 . S
C2132 C2131 1.374 . S
C2133 C2130 1.499 . S
C2133 C2134 1.373 . S
C2133 C2135 1.389 . S
C2134 H2107 0.950 . S
C2134 C2120 1.377 . S
C2134 C2133 1.373 . S
C2135 C2119 1.377 . S
C2135 C2133 1.389 . S
C2135 C2136 1.524 . S
C2136 C2135 1.524 . S
C2136 C2137 1.397 . S
C2136 C2141 1.363 . S
C2137 H2108 0.950 . S
C2137 C2136 1.397 . S
C2137 C2138 1.334 . S
C2138 H2109 0.950 . S
C2138 C2137 1.334 . S
C2138 C2139 1.287 . S
C2139 C2138 1.287 . S
C2139 C2140 1.524 . S
C2139 H2142 0.999 . S
C2140 H2110 0.950 . S
C2140 C2139 1.524 . S
C2140 C2141 1.415 . S
C2141 H2111 0.950 . S
C2141 C2136 1.363 . S
C2141 C2140 1.415 . S
H2142 C2139 0.999 . S
H2143 C2124 0.913 . S
H2144 C2162 0.951 . S
H2145 C2164 0.951 . S
H2146 C2166 0.950 . S
H2147 C2167 0.950 . S
H2148 C2169 0.950 . S
H2149 C2172 0.950 . S
H2150 C2173 0.950 . S
H2151 C2175 0.950 . S
H2152 C2176 0.950 . S
H2153 C2177 0.951 . S
H2154 C2179 0.951 . S
H2155 C2181 0.950 . S
H2156 C2182 0.950 . S
H2157 C2184 0.950 . S
H2158 C2187 0.950 . S
H2159 C2188 0.950 . S
H2160 C2190 0.950 . S
H2161 C2191 0.950 . S
C2162 H2144 0.951 . S
C2162 C2163 1.366 . S
C2162 C2164 1.388 . S
C2163 C2162 1.366 . S
C2163 C2167 1.385 . S
C2164 H2145 0.951 . S
C2164 C2162 1.388 . S
C2164 C2165 1.366 . S
C2165 C2164 1.366 . S
C2165 C2166 1.414 . S
C2165 C2168 1.499 . S
C2166 H2146 0.950 . S
C2166 C2165 1.414 . S
C2166 C2167 1.374 . S
C2167 H2147 0.950 . S
C2167 C2163 1.385 . S
C2167 C2166 1.374 . S
C2168 C2165 1.499 . S
C2168 C2169 1.373 . S
C2168 C2170 1.389 . S
C2169 H2148 0.950 . S
C2169 C2168 1.373 . S
C2169 C2185 1.377 . S
C2170 C2168 1.389 . S
C2170 C2171 1.524 . S
C2170 C2184 1.377 . S
C2171 C2170 1.524 . S
C2171 C2172 1.397 . S
C2171 C2176 1.363 . S
C2172 H2149 0.950 . S
C2172 C2171 1.397 . S
C2172 C2173 1.334 . S
C2173 H2150 0.950 . S
C2173 C2172 1.334 . S
C2173 C2174 1.287 . S
C2174 C2173 1.287 . S
C2174 C2175 1.524 . S
C2174 H2193 0.913 . S
C2175 H2151 0.950 . S
C2175 C2174 1.524 . S
C2175 C2176 1.415 . S
C2176 H2152 0.950 . S
C2176 C2171 1.363 . S
C2176 C2175 1.415 . S
C2177 H2153 0.951 . S
C2177 C2178 1.366 . S
C2177 C2179 1.388 . S
C2178 C2177 1.366 . S
C2178 C2182 1.385 . S
C2179 H2154 0.951 . S
C2179 C2177 1.388 . S
C2179 C2180 1.366 . S
C2180 C2179 1.366 . S
C2180 C2181 1.414 . S
C2180 C2183 1.499 . S
C2181 H2155 0.950 . S
C2181 C2180 1.414 . S
C2181 C2182 1.374 . S
C2182 H2156 0.950 . S
C2182 C2178 1.385 . S
C2182 C2181 1.374 . S
C2183 C2180 1.499 . S
C2183 C2184 1.373 . S
C2183 C2185 1.389 . S
C2184 H2157 0.950 . S
C2184 C2170 1.377 . S
C2184 C2183 1.373 . S
C2185 C2169 1.377 . S
C2185 C2183 1.389 . S
C2185 C2186 1.524 . S
C2186 C2185 1.524 . S
C2186 C2187 1.397 . S
C2186 C2191 1.363 . S
C2187 H2158 0.950 . S
C2187 C2186 1.397 . S
C2187 C2188 1.334 . S
C2188 H2159 0.950 . S
C2188 C2187 1.334 . S
C2188 C2189 1.287 . S
C2189 C2188 1.287 . S
C2189 C2190 1.524 . S
C2189 H2192 0.999 . S
C2190 H2160 0.950 . S
C2190 C2189 1.524 . S
C2190 C2191 1.415 . S
C2191 H2161 0.950 . S
C2191 C2186 1.363 . S
C2191 C2190 1.415 . S
H2192 C2189 0.999 . S
H2193 C2174 0.913 . S
H2194 C2212 0.951 . S
H2195 C2214 0.951 . S
H2196 C2216 0.950 . S
H2197 C2217 0.950 . S
H2198 C2219 0.950 . S
H2199 C2222 0.950 . S
H2200 C2223 0.950 . S
H2201 C2225 0.950 . S
H2202 C2226 0.950 . S
H2203 C2227 0.951 . S
H2204 C2229 0.951 . S
H2205 C2231 0.950 . S
H2206 C2232 0.950 . S
H2207 C2234 0.950 . S
H2208 C2237 0.950 . S
H2209 C2238 0.950 . S
H2210 C2240 0.950 . S
H2211 C2241 0.950 . S
C2212 H2194 0.951 . S
C2212 C2213 1.366 . S
C2212 C2214 1.388 . S
C2213 C2212 1.366 . S
C2213 C2217 1.385 . S
C2214 H2195 0.951 . S
C2214 C2212 1.388 . S
C2214 C2215 1.366 . S
C2215 C2214 1.366 . S
C2215 C2216 1.414 . S
C2215 C2218 1.499 . S
C2216 H2196 0.950 . S
C2216 C2215 1.414 . S
C2216 C2217 1.374 . S
C2217 H2197 0.950 . S
C2217 C2213 1.385 . S
C2217 C2216 1.374 . S
C2218 C2215 1.499 . S
C2218 C2219 1.373 . S
C2218 C2220 1.389 . S
C2219 H2198 0.950 . S
C2219 C2218 1.373 . S
C2219 C2235 1.377 . S
C2220 C2218 1.389 . S
C2220 C2221 1.524 . S
C2220 C2234 1.377 . S
C2221 C2220 1.524 . S
C2221 C2222 1.397 . S
C2221 C2226 1.363 . S
C2222 H2199 0.950 . S
C2222 C2221 1.397 . S
C2222 C2223 1.334 . S
C2223 H2200 0.950 . S
C2223 C2222 1.334 . S
C2223 C2224 1.287 . S
C2224 C2223 1.287 . S
C2224 C2225 1.524 . S
C2224 H2243 0.913 . S
C2225 H2201 0.950 . S
C2225 C2224 1.524 . S
C2225 C2226 1.415 . S
C2226 H2202 0.950 . S
C2226 C2221 1.363 . S
C2226 C2225 1.415 . S
C2227 H2203 0.951 . S
C2227 C2228 1.366 . S
C2227 C2229 1.388 . S
C2228 C2227 1.366 . S
C2228 C2232 1.385 . S
C2229 H2204 0.951 . S
C2229 C2227 1.388 . S
C2229 C2230 1.366 . S
C2230 C2229 1.366 . S
C2230 C2231 1.414 . S
C2230 C2233 1.499 . S
C2231 H2205 0.950 . S
C2231 C2230 1.414 . S
C2231 C2232 1.374 . S
C2232 H2206 0.950 . S
C2232 C2228 1.385 . S
C2232 C2231 1.374 . S
C2233 C2230 1.499 . S
C2233 C2234 1.373 . S
C2233 C2235 1.389 . S
C2234 H2207 0.950 . S
C2234 C2220 1.377 . S
C2234 C2233 1.373 . S
C2235 C2219 1.377 . S
C2235 C2233 1.389 . S
C2235 C2236 1.524 . S
C2236 C2235 1.524 . S
C2236 C2237 1.397 . S
C2236 C2241 1.363 . S
C2237 H2208 0.950 . S
C2237 C2236 1.397 . S
C2237 C2238 1.334 . S
C2238 H2209 0.950 . S
C2238 C2237 1.334 . S
C2238 C2239 1.287 . S
C2239 C2238 1.287 . S
C2239 C2240 1.524 . S
C2239 H2242 0.999 . S
C2240 H2210 0.950 . S
C2240 C2239 1.524 . S
C2240 C2241 1.415 . S
C2241 H2211 0.950 . S
C2241 C2236 1.363 . S
C2241 C2240 1.415 . S
H2242 C2239 0.999 . S
H2243 C2224 0.913 . S
H2244 C2262 0.951 . S
H2245 C2264 0.951 . S
H2246 C2266 0.950 . S
H2247 C2267 0.950 . S
H2248 C2269 0.950 . S
H2249 C2272 0.950 . S
H2250 C2273 0.950 . S
H2251 C2275 0.950 . S
H2252 C2276 0.950 . S
H2253 C2277 0.951 . S
H2254 C2279 0.951 . S
H2255 C2281 0.950 . S
H2256 C2282 0.950 . S
H2257 C2284 0.950 . S
H2258 C2287 0.950 . S
H2259 C2288 0.950 . S
H2260 C2290 0.950 . S
H2261 C2291 0.950 . S
C2262 H2244 0.951 . S
C2262 C2263 1.366 . S
C2262 C2264 1.388 . S
C2263 C2262 1.366 . S
C2263 C2267 1.385 . S
C2264 H2245 0.951 . S
C2264 C2262 1.388 . S
C2264 C2265 1.366 . S
C2265 C2264 1.366 . S
C2265 C2266 1.414 . S
C2265 C2268 1.499 . S
C2266 H2246 0.950 . S
C2266 C2265 1.414 . S
C2266 C2267 1.374 . S
C2267 H2247 0.950 . S
C2267 C2263 1.385 . S
C2267 C2266 1.374 . S
C2268 C2265 1.499 . S
C2268 C2269 1.373 . S
C2268 C2270 1.389 . S
C2269 H2248 0.950 . S
C2269 C2268 1.373 . S
C2269 C2285 1.377 . S
C2270 C2268 1.389 . S
C2270 C2271 1.524 . S
C2270 C2284 1.377 . S
C2271 C2270 1.524 . S
C2271 C2272 1.397 . S
C2271 C2276 1.363 . S
C2272 H2249 0.950 . S
C2272 C2271 1.397 . S
C2272 C2273 1.334 . S
C2273 H2250 0.950 . S
C2273 C2272 1.334 . S
C2273 C2274 1.287 . S
C2274 C2273 1.287 . S
C2274 C2275 1.524 . S
C2274 H2293 0.913 . S
C2275 H2251 0.950 . S
C2275 C2274 1.524 . S
C2275 C2276 1.415 . S
C2276 H2252 0.950 . S
C2276 C2271 1.363 . S
C2276 C2275 1.415 . S
C2277 H2253 0.951 . S
C2277 C2278 1.366 . S
C2277 C2279 1.388 . S
C2278 C2277 1.366 . S
C2278 C2282 1.385 . S
C2279 H2254 0.951 . S
C2279 C2277 1.388 . S
C2279 C2280 1.366 . S
C2280 C2279 1.366 . S
C2280 C2281 1.414 . S
C2280 C2283 1.499 . S
C2281 H2255 0.950 . S
C2281 C2280 1.414 . S
C2281 C2282 1.374 . S
C2282 H2256 0.950 . S
C2282 C2278 1.385 . S
C2282 C2281 1.374 . S
C2283 C2280 1.499 . S
C2283 C2284 1.373 . S
C2283 C2285 1.389 . S
C2284 H2257 0.950 . S
C2284 C2270 1.377 . S
C2284 C2283 1.373 . S
C2285 C2269 1.377 . S
C2285 C2283 1.389 . S
C2285 C2286 1.524 . S
C2286 C2285 1.524 . S
C2286 C2287 1.397 . S
C2286 C2291 1.363 . S
C2287 H2258 0.950 . S
C2287 C2286 1.397 . S
C2287 C2288 1.334 . S
C2288 H2259 0.950 . S
C2288 C2287 1.334 . S
C2288 C2289 1.287 . S
C2289 C2288 1.287 . S
C2289 C2290 1.524 . S
C2289 H2292 0.999 . S
C2290 H2260 0.950 . S
C2290 C2289 1.524 . S
C2290 C2291 1.415 . S
C2291 H2261 0.950 . S
C2291 C2286 1.363 . S
C2291 C2290 1.415 . S
H2292 C2289 0.999 . S
H2293 C2274 0.913 . S
H2294 C2312 0.951 . S
H2295 C2314 0.951 . S
H2296 C2316 0.950 . S
H2297 C2317 0.950 . S
H2298 C2319 0.950 . S
H2299 C2322 0.950 . S
H2300 C2323 0.950 . S
H2301 C2325 0.950 . S
H2302 C2326 0.950 . S
H2303 C2327 0.951 . S
H2304 C2329 0.951 . S
H2305 C2331 0.950 . S
H2306 C2332 0.950 . S
H2307 C2334 0.950 . S
H2308 C2337 0.950 . S
H2309 C2338 0.950 . S
H2310 C2340 0.950 . S
H2311 C2341 0.950 . S
C2312 H2294 0.951 . S
C2312 C2313 1.366 . S
C2312 C2314 1.388 . S
C2313 C2312 1.366 . S
C2313 C2317 1.385 . S
C2314 H2295 0.951 . S
C2314 C2312 1.388 . S
C2314 C2315 1.366 . S
C2315 C2314 1.366 . S
C2315 C2316 1.414 . S
C2315 C2318 1.499 . S
C2316 H2296 0.950 . S
C2316 C2315 1.414 . S
C2316 C2317 1.374 . S
C2317 H2297 0.950 . S
C2317 C2313 1.385 . S
C2317 C2316 1.374 . S
C2318 C2315 1.499 . S
C2318 C2319 1.373 . S
C2318 C2320 1.389 . S
C2319 H2298 0.950 . S
C2319 C2318 1.373 . S
C2319 C2335 1.377 . S
C2320 C2318 1.389 . S
C2320 C2321 1.524 . S
C2320 C2334 1.377 . S
C2321 C2320 1.524 . S
C2321 C2322 1.397 . S
C2321 C2326 1.363 . S
C2322 H2299 0.950 . S
C2322 C2321 1.397 . S
C2322 C2323 1.334 . S
C2323 H2300 0.950 . S
C2323 C2322 1.334 . S
C2323 C2324 1.287 . S
C2324 C2323 1.287 . S
C2324 C2325 1.524 . S
C2324 H2343 0.913 . S
C2325 H2301 0.950 . S
C2325 C2324 1.524 . S
C2325 C2326 1.415 . S
C2326 H2302 0.950 . S
C2326 C2321 1.363 . S
C2326 C2325 1.415 . S
C2327 H2303 0.951 . S
C2327 C2328 1.366 . S
C2327 C2329 1.388 . S
C2328 C2327 1.366 . S
C2328 C2332 1.385 . S
C2329 H2304 0.951 . S
C2329 C2327 1.388 . S
C2329 C2330 1.366 . S
C2330 C2329 1.366 . S
C2330 C2331 1.414 . S
C2330 C2333 1.499 . S
C2331 H2305 0.950 . S
C2331 C2330 1.414 . S
C2331 C2332 1.374 . S
C2332 H2306 0.950 . S
C2332 C2328 1.385 . S
C2332 C2331 1.374 . S
C2333 C2330 1.499 . S
C2333 C2334 1.373 . S
C2333 C2335 1.389 . S
C2334 H2307 0.950 . S
C2334 C2320 1.377 . S
C2334 C2333 1.373 . S
C2335 C2319 1.377 . S
C2335 C2333 1.389 . S
C2335 C2336 1.524 . S
C2336 C2335 1.524 . S
C2336 C2337 1.397 . S
C2336 C2341 1.363 . S
C2337 H2308 0.950 . S
C2337 C2336 1.397 . S
C2337 C2338 1.334 . S
C2338 H2309 0.950 . S
C2338 C2337 1.334 . S
C2338 C2339 1.287 . S
C2339 C2338 1.287 . S
C2339 C2340 1.524 . S
C2339 H2342 0.999 . S
C2340 H2310 0.950 . S
C2340 C2339 1.524 . S
C2340 C2341 1.415 . S
C2341 H2311 0.950 . S
C2341 C2336 1.363 . S
C2341 C2340 1.415 . S
H2342 C2339 0.999 . S
H2343 C2324 0.913 . S
H2344 C2362 0.951 . S
H2345 C2364 0.951 . S
H2346 C2366 0.950 . S
H2347 C2367 0.950 . S
H2348 C2369 0.950 . S
H2349 C2372 0.950 . S
H2350 C2373 0.950 . S
H2351 C2375 0.950 . S
H2352 C2376 0.950 . S
H2353 C2377 0.951 . S
H2354 C2379 0.951 . S
H2355 C2381 0.950 . S
H2356 C2382 0.950 . S
H2357 C2384 0.950 . S
H2358 C2387 0.950 . S
H2359 C2388 0.950 . S
H2360 C2390 0.950 . S
H2361 C2391 0.950 . S
C2362 H2344 0.951 . S
C2362 C2363 1.366 . S
C2362 C2364 1.388 . S
C2363 C2362 1.366 . S
C2363 C2367 1.385 . S
C2364 H2345 0.951 . S
C2364 C2362 1.388 . S
C2364 C2365 1.366 . S
C2365 C2364 1.366 . S
C2365 C2366 1.414 . S
C2365 C2368 1.499 . S
C2366 H2346 0.950 . S
C2366 C2365 1.414 . S
C2366 C2367 1.374 . S
C2367 H2347 0.950 . S
C2367 C2363 1.385 . S
C2367 C2366 1.374 . S
C2368 C2365 1.499 . S
C2368 C2369 1.373 . S
C2368 C2370 1.389 . S
C2369 H2348 0.950 . S
C2369 C2368 1.373 . S
C2369 C2385 1.377 . S
C2370 C2368 1.389 . S
C2370 C2371 1.524 . S
C2370 C2384 1.377 . S
C2371 C2370 1.524 . S
C2371 C2372 1.397 . S
C2371 C2376 1.363 . S
C2372 H2349 0.950 . S
C2372 C2371 1.397 . S
C2372 C2373 1.334 . S
C2373 H2350 0.950 . S
C2373 C2372 1.334 . S
C2373 C2374 1.287 . S
C2374 C2373 1.287 . S
C2374 C2375 1.524 . S
C2374 H2393 0.913 . S
C2375 H2351 0.950 . S
C2375 C2374 1.524 . S
C2375 C2376 1.415 . S
C2376 H2352 0.950 . S
C2376 C2371 1.363 . S
C2376 C2375 1.415 . S
C2377 H2353 0.951 . S
C2377 C2378 1.366 . S
C2377 C2379 1.388 . S
C2378 C2377 1.366 . S
C2378 C2382 1.385 . S
C2379 H2354 0.951 . S
C2379 C2377 1.388 . S
C2379 C2380 1.366 . S
C2380 C2379 1.366 . S
C2380 C2381 1.414 . S
C2380 C2383 1.499 . S
C2381 H2355 0.950 . S
C2381 C2380 1.414 . S
C2381 C2382 1.374 . S
C2382 H2356 0.950 . S
C2382 C2378 1.385 . S
C2382 C2381 1.374 . S
C2383 C2380 1.499 . S
C2383 C2384 1.373 . S
C2383 C2385 1.389 . S
C2384 H2357 0.950 . S
C2384 C2370 1.377 . S
C2384 C2383 1.373 . S
C2385 C2369 1.377 . S
C2385 C2383 1.389 . S
C2385 C2386 1.524 . S
C2386 C2385 1.524 . S
C2386 C2387 1.397 . S
C2386 C2391 1.363 . S
C2387 H2358 0.950 . S
C2387 C2386 1.397 . S
C2387 C2388 1.334 . S
C2388 H2359 0.950 . S
C2388 C2387 1.334 . S
C2388 C2389 1.287 . S
C2389 C2388 1.287 . S
C2389 C2390 1.524 . S
C2389 H2392 0.999 . S
C2390 H2360 0.950 . S
C2390 C2389 1.524 . S
C2390 C2391 1.415 . S
C2391 H2361 0.950 . S
C2391 C2386 1.363 . S
C2391 C2390 1.415 . S
H2392 C2389 0.999 . S
H2393 C2374 0.913 . S
H2394 C2412 0.951 . S
H2395 C2414 0.951 . S
H2396 C2416 0.950 . S
H2397 C2417 0.950 . S
H2398 C2419 0.950 . S
H2399 C2422 0.950 . S
H2400 C2423 0.950 . S
H2401 C2425 0.950 . S
H2402 C2426 0.950 . S
H2403 C2427 0.951 . S
H2404 C2429 0.951 . S
H2405 C2431 0.950 . S
H2406 C2432 0.950 . S
H2407 C2434 0.950 . S
H2408 C2437 0.950 . S
H2409 C2438 0.950 . S
H2410 C2440 0.950 . S
H2411 C2441 0.950 . S
C2412 H2394 0.951 . S
C2412 C2413 1.366 . S
C2412 C2414 1.388 . S
C2413 C2412 1.366 . S
C2413 C2417 1.385 . S
C2414 H2395 0.951 . S
C2414 C2412 1.388 . S
C2414 C2415 1.366 . S
C2415 C2414 1.366 . S
C2415 C2416 1.414 . S
C2415 C2418 1.499 . S
C2416 H2396 0.950 . S
C2416 C2415 1.414 . S
C2416 C2417 1.374 . S
C2417 H2397 0.950 . S
C2417 C2413 1.385 . S
C2417 C2416 1.374 . S
C2418 C2415 1.499 . S
C2418 C2419 1.373 . S
C2418 C2420 1.389 . S
C2419 H2398 0.950 . S
C2419 C2418 1.373 . S
C2419 C2435 1.377 . S
C2420 C2418 1.389 . S
C2420 C2421 1.524 . S
C2420 C2434 1.377 . S
C2421 C2420 1.524 . S
C2421 C2422 1.397 . S
C2421 C2426 1.363 . S
C2422 H2399 0.950 . S
C2422 C2421 1.397 . S
C2422 C2423 1.334 . S
C2423 H2400 0.950 . S
C2423 C2422 1.334 . S
C2423 C2424 1.287 . S
C2424 C2423 1.287 . S
C2424 C2425 1.524 . S
C2424 H2443 0.913 . S
C2425 H2401 0.950 . S
C2425 C2424 1.524 . S
C2425 C2426 1.415 . S
C2426 H2402 0.950 . S
C2426 C2421 1.363 . S
C2426 C2425 1.415 . S
C2427 H2403 0.951 . S
C2427 C2428 1.366 . S
C2427 C2429 1.388 . S
C2428 C2427 1.366 . S
C2428 C2432 1.385 . S
C2429 H2404 0.951 . S
C2429 C2427 1.388 . S
C2429 C2430 1.366 . S
C2430 C2429 1.366 . S
C2430 C2431 1.414 . S
C2430 C2433 1.499 . S
C2431 H2405 0.950 . S
C2431 C2430 1.414 . S
C2431 C2432 1.374 . S
C2432 H2406 0.950 . S
C2432 C2428 1.385 . S
C2432 C2431 1.374 . S
C2433 C2430 1.499 . S
C2433 C2434 1.373 . S
C2433 C2435 1.389 . S
C2434 H2407 0.950 . S
C2434 C2420 1.377 . S
C2434 C2433 1.373 . S
C2435 C2419 1.377 . S
C2435 C2433 1.389 . S
C2435 C2436 1.524 . S
C2436 C2435 1.524 . S
C2436 C2437 1.397 . S
C2436 C2441 1.363 . S
C2437 H2408 0.950 . S
C2437 C2436 1.397 . S
C2437 C2438 1.334 . S
C2438 H2409 0.950 . S
C2438 C2437 1.334 . S
C2438 C2439 1.287 . S
C2439 C2438 1.287 . S
C2439 C2440 1.524 . S
C2439 H2442 0.999 . S
C2440 H2410 0.950 . S
C2440 C2439 1.524 . S
C2440 C2441 1.415 . S
C2441 H2411 0.950 . S
C2441 C2436 1.363 . S
C2441 C2440 1.415 . S
H2442 C2439 0.999 . S
H2443 C2424 0.913 . S
H2444 C2462 0.951 . S
H2445 C2464 0.951 . S
H2446 C2466 0.950 . S
H2447 C2467 0.950 . S
H2448 C2469 0.950 . S
H2449 C2472 0.950 . S
H2450 C2473 0.950 . S
H2451 C2475 0.950 . S
H2452 C2476 0.950 . S
H2453 C2477 0.951 . S
H2454 C2479 0.951 . S
H2455 C2481 0.950 . S
H2456 C2482 0.950 . S
H2457 C2484 0.950 . S
H2458 C2487 0.950 . S
H2459 C2488 0.950 . S
H2460 C2490 0.950 . S
H2461 C2491 0.950 . S
C2462 H2444 0.951 . S
C2462 C2463 1.366 . S
C2462 C2464 1.388 . S
C2463 C2462 1.366 . S
C2463 C2467 1.385 . S
C2464 H2445 0.951 . S
C2464 C2462 1.388 . S
C2464 C2465 1.366 . S
C2465 C2464 1.366 . S
C2465 C2466 1.414 . S
C2465 C2468 1.499 . S
C2466 H2446 0.950 . S
C2466 C2465 1.414 . S
C2466 C2467 1.374 . S
C2467 H2447 0.950 . S
C2467 C2463 1.385 . S
C2467 C2466 1.374 . S
C2468 C2465 1.499 . S
C2468 C2469 1.373 . S
C2468 C2470 1.389 . S
C2469 H2448 0.950 . S
C2469 C2468 1.373 . S
C2469 C2485 1.377 . S
C2470 C2468 1.389 . S
C2470 C2471 1.524 . S
C2470 C2484 1.377 . S
C2471 C2470 1.524 . S
C2471 C2472 1.397 . S
C2471 C2476 1.363 . S
C2472 H2449 0.950 . S
C2472 C2471 1.397 . S
C2472 C2473 1.334 . S
C2473 H2450 0.950 . S
C2473 C2472 1.334 . S
C2473 C2474 1.287 . S
C2474 C2473 1.287 . S
C2474 C2475 1.524 . S
C2474 H2493 0.913 . S
C2475 H2451 0.950 . S
C2475 C2474 1.524 . S
C2475 C2476 1.415 . S
C2476 H2452 0.950 . S
C2476 C2471 1.363 . S
C2476 C2475 1.415 . S
C2477 H2453 0.951 . S
C2477 C2478 1.366 . S
C2477 C2479 1.388 . S
C2478 C2477 1.366 . S
C2478 C2482 1.385 . S
C2479 H2454 0.951 . S
C2479 C2477 1.388 . S
C2479 C2480 1.366 . S
C2480 C2479 1.366 . S
C2480 C2481 1.414 . S
C2480 C2483 1.499 . S
C2481 H2455 0.950 . S
C2481 C2480 1.414 . S
C2481 C2482 1.374 . S
C2482 H2456 0.950 . S
C2482 C2478 1.385 . S
C2482 C2481 1.374 . S
C2483 C2480 1.499 . S
C2483 C2484 1.373 . S
C2483 C2485 1.389 . S
C2484 H2457 0.950 . S
C2484 C2470 1.377 . S
C2484 C2483 1.373 . S
C2485 C2469 1.377 . S
C2485 C2483 1.389 . S
C2485 C2486 1.524 . S
C2486 C2485 1.524 . S
C2486 C2487 1.397 . S
C2486 C2491 1.363 . S
C2487 H2458 0.950 . S
C2487 C2486 1.397 . S
C2487 C2488 1.334 . S
C2488 H2459 0.950 . S
C2488 C2487 1.334 . S
C2488 C2489 1.287 . S
C2489 C2488 1.287 . S
C2489 C2490 1.524 . S
C2489 H2492 0.999 . S
C2490 H2460 0.950 . S
C2490 C2489 1.524 . S
C2490 C2491 1.415 . S
C2491 H2461 0.950 . S
C2491 C2486 1.363 . S
C2491 C2490 1.415 . S
H2492 C2489 0.999 . S
H2493 C2474 0.913 . S
H2494 C2512 0.951 . S
H2495 C2514 0.951 . S
H2496 C2516 0.950 . S
H2497 C2517 0.950 . S
H2498 C2519 0.950 . S
H2499 C2522 0.950 . S
H2500 C2523 0.950 . S
H2501 C2525 0.950 . S
H2502 C2526 0.950 . S
H2503 C2527 0.951 . S
H2504 C2529 0.951 . S
H2505 C2531 0.950 . S
H2506 C2532 0.950 . S
H2507 C2534 0.950 . S
H2508 C2537 0.950 . S
H2509 C2538 0.950 . S
H2510 C2540 0.950 . S
H2511 C2541 0.950 . S
C2512 H2494 0.951 . S
C2512 C2513 1.366 . S
C2512 C2514 1.388 . S
C2513 C2512 1.366 . S
C2513 C2517 1.385 . S
C2514 H2495 0.951 . S
C2514 C2512 1.388 . S
C2514 C2515 1.366 . S
C2515 C2514 1.366 . S
C2515 C2516 1.414 . S
C2515 C2518 1.499 . S
C2516 H2496 0.950 . S
C2516 C2515 1.414 . S
C2516 C2517 1.374 . S
C2517 H2497 0.950 . S
C2517 C2513 1.385 . S
C2517 C2516 1.374 . S
C2518 C2515 1.499 . S
C2518 C2519 1.373 . S
C2518 C2520 1.389 . S
C2519 H2498 0.950 . S
C2519 C2518 1.373 . S
C2519 C2535 1.377 . S
C2520 C2518 1.389 . S
C2520 C2521 1.524 . S
C2520 C2534 1.377 . S
C2521 C2520 1.524 . S
C2521 C2522 1.397 . S
C2521 C2526 1.363 . S
C2522 H2499 0.950 . S
C2522 C2521 1.397 . S
C2522 C2523 1.334 . S
C2523 H2500 0.950 . S
C2523 C2522 1.334 . S
C2523 C2524 1.287 . S
C2524 C2523 1.287 . S
C2524 C2525 1.524 . S
C2524 H2543 0.913 . S
C2525 H2501 0.950 . S
C2525 C2524 1.524 . S
C2525 C2526 1.415 . S
C2526 H2502 0.950 . S
C2526 C2521 1.363 . S
C2526 C2525 1.415 . S
C2527 H2503 0.951 . S
C2527 C2528 1.366 . S
C2527 C2529 1.388 . S
C2528 C2527 1.366 . S
C2528 C2532 1.385 . S
C2529 H2504 0.951 . S
C2529 C2527 1.388 . S
C2529 C2530 1.366 . S
C2530 C2529 1.366 . S
C2530 C2531 1.414 . S
C2530 C2533 1.499 . S
C2531 H2505 0.950 . S
C2531 C2530 1.414 . S
C2531 C2532 1.374 . S
C2532 H2506 0.950 . S
C2532 C2528 1.385 . S
C2532 C2531 1.374 . S
C2533 C2530 1.499 . S
C2533 C2534 1.373 . S
C2533 C2535 1.389 . S
C2534 H2507 0.950 . S
C2534 C2520 1.377 . S
C2534 C2533 1.373 . S
C2535 C2519 1.377 . S
C2535 C2533 1.389 . S
C2535 C2536 1.524 . S
C2536 C2535 1.524 . S
C2536 C2537 1.397 . S
C2536 C2541 1.363 . S
C2537 H2508 0.950 . S
C2537 C2536 1.397 . S
C2537 C2538 1.334 . S
C2538 H2509 0.950 . S
C2538 C2537 1.334 . S
C2538 C2539 1.287 . S
C2539 C2538 1.287 . S
C2539 C2540 1.524 . S
C2539 H2542 0.999 . S
C2540 H2510 0.950 . S
C2540 C2539 1.524 . S
C2540 C2541 1.415 . S
C2541 H2511 0.950 . S
C2541 C2536 1.363 . S
C2541 C2540 1.415 . S
H2542 C2539 0.999 . S
H2543 C2524 0.913 . S
H2544 C2562 0.951 . S
H2545 C2564 0.951 . S
H2546 C2566 0.950 . S
H2547 C2567 0.950 . S
H2548 C2569 0.950 . S
H2549 C2572 0.950 . S
H2550 C2573 0.950 . S
H2551 C2575 0.950 . S
H2552 C2576 0.950 . S
H2553 C2577 0.951 . S
H2554 C2579 0.951 . S
H2555 C2581 0.950 . S
H2556 C2582 0.950 . S
H2557 C2584 0.950 . S
H2558 C2587 0.950 . S
H2559 C2588 0.950 . S
H2560 C2590 0.950 . S
H2561 C2591 0.950 . S
C2562 H2544 0.951 . S
C2562 C2563 1.366 . S
C2562 C2564 1.388 . S
C2563 C2562 1.366 . S
C2563 C2567 1.385 . S
C2564 H2545 0.951 . S
C2564 C2562 1.388 . S
C2564 C2565 1.366 . S
C2565 C2564 1.366 . S
C2565 C2566 1.414 . S
C2565 C2568 1.499 . S
C2566 H2546 0.950 . S
C2566 C2565 1.414 . S
C2566 C2567 1.374 . S
C2567 H2547 0.950 . S
C2567 C2563 1.385 . S
C2567 C2566 1.374 . S
C2568 C2565 1.499 . S
C2568 C2569 1.373 . S
C2568 C2570 1.389 . S
C2569 H2548 0.950 . S
C2569 C2568 1.373 . S
C2569 C2585 1.377 . S
C2570 C2568 1.389 . S
C2570 C2571 1.524 . S
C2570 C2584 1.377 . S
C2571 C2570 1.524 . S
C2571 C2572 1.397 . S
C2571 C2576 1.363 . S
C2572 H2549 0.950 . S
C2572 C2571 1.397 . S
C2572 C2573 1.334 . S
C2573 H2550 0.950 . S
C2573 C2572 1.334 . S
C2573 C2574 1.287 . S
C2574 C2573 1.287 . S
C2574 C2575 1.524 . S
C2574 H2593 0.913 . S
C2575 H2551 0.950 . S
C2575 C2574 1.524 . S
C2575 C2576 1.415 . S
C2576 H2552 0.950 . S
C2576 C2571 1.363 . S
C2576 C2575 1.415 . S
C2577 H2553 0.951 . S
C2577 C2578 1.366 . S
C2577 C2579 1.388 . S
C2578 C2577 1.366 . S
C2578 C2582 1.385 . S
C2579 H2554 0.951 . S
C2579 C2577 1.388 . S
C2579 C2580 1.366 . S
C2580 C2579 1.366 . S
C2580 C2581 1.414 . S
C2580 C2583 1.499 . S
C2581 H2555 0.950 . S
C2581 C2580 1.414 . S
C2581 C2582 1.374 . S
C2582 H2556 0.950 . S
C2582 C2578 1.385 . S
C2582 C2581 1.374 . S
C2583 C2580 1.499 . S
C2583 C2584 1.373 . S
C2583 C2585 1.389 . S
C2584 H2557 0.950 . S
C2584 C2570 1.377 . S
C2584 C2583 1.373 . S
C2585 C2569 1.377 . S
C2585 C2583 1.389 . S
C2585 C2586 1.524 . S
C2586 C2585 1.524 . S
C2586 C2587 1.397 . S
C2586 C2591 1.363 . S
C2587 H2558 0.950 . S
C2587 C2586 1.397 . S
C2587 C2588 1.334 . S
C2588 H2559 0.950 . S
C2588 C2587 1.334 . S
C2588 C2589 1.287 . S
C2589 C2588 1.287 . S
C2589 C2590 1.524 . S
C2589 H2592 0.999 . S
C2590 H2560 0.950 . S
C2590 C2589 1.524 . S
C2590 C2591 1.415 . S
C2591 H2561 0.950 . S
C2591 C2586 1.363 . S
C2591 C2590 1.415 . S
H2592 C2589 0.999 . S
H2593 C2574 0.913 . S
H2594 C2612 0.951 . S
H2595 C2614 0.951 . S
H2596 C2616 0.950 . S
H2597 C2617 0.950 . S
H2598 C2619 0.950 . S
H2599 C2622 0.950 . S
H2600 C2623 0.950 . S
H2601 C2625 0.950 . S
H2602 C2626 0.950 . S
H2603 C2627 0.951 . S
H2604 C2629 0.951 . S
H2605 C2631 0.950 . S
H2606 C2632 0.950 . S
H2607 C2634 0.950 . S
H2608 C2637 0.950 . S
H2609 C2638 0.950 . S
H2610 C2640 0.950 . S
H2611 C2641 0.950 . S
C2612 H2594 0.951 . S
C2612 C2613 1.366 . S
C2612 C2614 1.388 . S
C2613 C2612 1.366 . S
C2613 C2617 1.385 . S
C2614 H2595 0.951 . S
C2614 C2612 1.388 . S
C2614 C2615 1.366 . S
C2615 C2614 1.366 . S
C2615 C2616 1.414 . S
C2615 C2618 1.499 . S
C2616 H2596 0.950 . S
C2616 C2615 1.414 . S
C2616 C2617 1.374 . S
C2617 H2597 0.950 . S
C2617 C2613 1.385 . S
C2617 C2616 1.374 . S
C2618 C2615 1.499 . S
C2618 C2619 1.373 . S
C2618 C2620 1.389 . S
C2619 H2598 0.950 . S
C2619 C2618 1.373 . S
C2619 C2635 1.377 . S
C2620 C2618 1.389 . S
C2620 C2621 1.524 . S
C2620 C2634 1.377 . S
C2621 C2620 1.524 . S
C2621 C2622 1.397 . S
C2621 C2626 1.363 . S
C2622 H2599 0.950 . S
C2622 C2621 1.397 . S
C2622 C2623 1.334 . S
C2623 H2600 0.950 . S
C2623 C2622 1.334 . S
C2623 C2624 1.287 . S
C2624 C2623 1.287 . S
C2624 C2625 1.524 . S
C2624 H2643 0.913 . S
C2625 H2601 0.950 . S
C2625 C2624 1.524 . S
C2625 C2626 1.415 . S
C2626 H2602 0.950 . S
C2626 C2621 1.363 . S
C2626 C2625 1.415 . S
C2627 H2603 0.951 . S
C2627 C2628 1.366 . S
C2627 C2629 1.388 . S
C2628 C2627 1.366 . S
C2628 C2632 1.385 . S
C2629 H2604 0.951 . S
C2629 C2627 1.388 . S
C2629 C2630 1.366 . S
C2630 C2629 1.366 . S
C2630 C2631 1.414 . S
C2630 C2633 1.499 . S
C2631 H2605 0.950 . S
C2631 C2630 1.414 . S
C2631 C2632 1.374 . S
C2632 H2606 0.950 . S
C2632 C2628 1.385 . S
C2632 C2631 1.374 . S
C2633 C2630 1.499 . S
C2633 C2634 1.373 . S
C2633 C2635 1.389 . S
C2634 H2607 0.950 . S
C2634 C2620 1.377 . S
C2634 C2633 1.373 . S
C2635 C2619 1.377 . S
C2635 C2633 1.389 . S
C2635 C2636 1.524 . S
C2636 C2635 1.524 . S
C2636 C2637 1.397 . S
C2636 C2641 1.363 . S
C2637 H2608 0.950 . S
C2637 C2636 1.397 . S
C2637 C2638 1.334 . S
C2638 H2609 0.950 . S
C2638 C2637 1.334 . S
C2638 C2639 1.287 . S
C2639 C2638 1.287 . S
C2639 C2640 1.524 . S
C2639 H2642 0.999 . S
C2640 H2610 0.950 . S
C2640 C2639 1.524 . S
C2640 C2641 1.415 . S
C2641 H2611 0.950 . S
C2641 C2636 1.363 . S
C2641 C2640 1.415 . S
H2642 C2639 0.999 . S
H2643 C2624 0.913 . S
H2644 C2662 0.951 . S
H2645 C2664 0.951 . S
H2646 C2666 0.950 . S
H2647 C2667 0.950 . S
H2648 C2669 0.950 . S
H2649 C2672 0.950 . S
H2650 C2673 0.950 . S
H2651 C2675 0.950 . S
H2652 C2676 0.950 . S
H2653 C2677 0.951 . S
H2654 C2679 0.951 . S
H2655 C2681 0.950 . S
H2656 C2682 0.950 . S
H2657 C2684 0.950 . S
H2658 C2687 0.950 . S
H2659 C2688 0.950 . S
H2660 C2690 0.950 . S
H2661 C2691 0.950 . S
C2662 H2644 0.951 . S
C2662 C2663 1.366 . S
C2662 C2664 1.388 . S
C2663 C2662 1.366 . S
C2663 C2667 1.385 . S
C2664 H2645 0.951 . S
C2664 C2662 1.388 . S
C2664 C2665 1.366 . S
C2665 C2664 1.366 . S
C2665 C2666 1.414 . S
C2665 C2668 1.499 . S
C2666 H2646 0.950 . S
C2666 C2665 1.414 . S
C2666 C2667 1.374 . S
C2667 H2647 0.950 . S
C2667 C2663 1.385 . S
C2667 C2666 1.374 . S
C2668 C2665 1.499 . S
C2668 C2669 1.373 . S
C2668 C2670 1.389 . S
C2669 H2648 0.950 . S
C2669 C2668 1.373 . S
C2669 C2685 1.377 . S
C2670 C2668 1.389 . S
C2670 C2671 1.524 . S
C2670 C2684 1.377 . S
C2671 C2670 1.524 . S
C2671 C2672 1.397 . S
C2671 C2676 1.363 . S
C2672 H2649 0.950 . S
C2672 C2671 1.397 . S
C2672 C2673 1.334 . S
C2673 H2650 0.950 . S
C2673 C2672 1.334 . S
C2673 C2674 1.287 . S
C2674 C2673 1.287 . S
C2674 C2675 1.524 . S
C2674 H2693 0.913 . S
C2675 H2651 0.950 . S
C2675 C2674 1.524 . S
C2675 C2676 1.415 . S
C2676 H2652 0.950 . S
C2676 C2671 1.363 . S
C2676 C2675 1.415 . S
C2677 H2653 0.951 . S
C2677 C2678 1.366 . S
C2677 C2679 1.388 . S
C2678 C2677 1.366 . S
C2678 C2682 1.385 . S
C2679 H2654 0.951 . S
C2679 C2677 1.388 . S
C2679 C2680 1.366 . S
C2680 C2679 1.366 . S
C2680 C2681 1.414 . S
C2680 C2683 1.499 . S
C2681 H2655 0.950 . S
C2681 C2680 1.414 . S
C2681 C2682 1.374 . S
C2682 H2656 0.950 . S
C2682 C2678 1.385 . S
C2682 C2681 1.374 . S
C2683 C2680 1.499 . S
C2683 C2684 1.373 . S
C2683 C2685 1.389 . S
C2684 H2657 0.950 . S
C2684 C2670 1.377 . S
C2684 C2683 1.373 . S
C2685 C2669 1.377 . S
C2685 C2683 1.389 . S
C2685 C2686 1.524 . S
C2686 C2685 1.524 . S
C2686 C2687 1.397 . S
C2686 C2691 1.363 . S
C2687 H2658 0.950 . S
C2687 C2686 1.397 . S
C2687 C2688 1.334 . S
C2688 H2659 0.950 . S
C2688 C2687 1.334 . S
C2688 C2689 1.287 . S
C2689 C2688 1.287 . S
C2689 C2690 1.524 . S
C2689 H2692 0.999 . S
C2690 H2660 0.950 . S
C2690 C2689 1.524 . S
C2690 C2691 1.415 . S
C2691 H2661 0.950 . S
C2691 C2686 1.363 . S
C2691 C2690 1.415 . S
H2692 C2689 0.999 . S
H2693 C2674 0.913 . S
H2694 C2712 0.951 . S
H2695 C2714 0.951 . S
H2696 C2716 0.950 . S
H2697 C2717 0.950 . S
H2698 C2719 0.950 . S
H2699 C2722 0.950 . S
H2700 C2723 0.950 . S
H2701 C2725 0.950 . S
H2702 C2726 0.950 . S
H2703 C2727 0.951 . S
H2704 C2729 0.951 . S
H2705 C2731 0.950 . S
H2706 C2732 0.950 . S
H2707 C2734 0.950 . S
H2708 C2737 0.950 . S
H2709 C2738 0.950 . S
H2710 C2740 0.950 . S
H2711 C2741 0.950 . S
C2712 H2694 0.951 . S
C2712 C2713 1.366 . S
C2712 C2714 1.388 . S
C2713 C2712 1.366 . S
C2713 C2717 1.385 . S
C2714 H2695 0.951 . S
C2714 C2712 1.388 . S
C2714 C2715 1.366 . S
C2715 C2714 1.366 . S
C2715 C2716 1.414 . S
C2715 C2718 1.499 . S
C2716 H2696 0.950 . S
C2716 C2715 1.414 . S
C2716 C2717 1.374 . S
C2717 H2697 0.950 . S
C2717 C2713 1.385 . S
C2717 C2716 1.374 . S
C2718 C2715 1.499 . S
C2718 C2719 1.373 . S
C2718 C2720 1.389 . S
C2719 H2698 0.950 . S
C2719 C2718 1.373 . S
C2719 C2735 1.377 . S
C2720 C2718 1.389 . S
C2720 C2721 1.524 . S
C2720 C2734 1.377 . S
C2721 C2720 1.524 . S
C2721 C2722 1.397 . S
C2721 C2726 1.363 . S
C2722 H2699 0.950 . S
C2722 C2721 1.397 . S
C2722 C2723 1.334 . S
C2723 H2700 0.950 . S
C2723 C2722 1.334 . S
C2723 C2724 1.287 . S
C2724 C2723 1.287 . S
C2724 C2725 1.524 . S
C2724 H2743 0.913 . S
C2725 H2701 0.950 . S
C2725 C2724 1.524 . S
C2725 C2726 1.415 . S
C2726 H2702 0.950 . S
C2726 C2721 1.363 . S
C2726 C2725 1.415 . S
C2727 H2703 0.951 . S
C2727 C2728 1.366 . S
C2727 C2729 1.388 . S
C2728 C2727 1.366 . S
C2728 C2732 1.385 . S
C2729 H2704 0.951 . S
C2729 C2727 1.388 . S
C2729 C2730 1.366 . S
C2730 C2729 1.366 . S
C2730 C2731 1.414 . S
C2730 C2733 1.499 . S
C2731 H2705 0.950 . S
C2731 C2730 1.414 . S
C2731 C2732 1.374 . S
C2732 H2706 0.950 . S
C2732 C2728 1.385 . S
C2732 C2731 1.374 . S
C2733 C2730 1.499 . S
C2733 C2734 1.373 . S
C2733 C2735 1.389 . S
C2734 H2707 0.950 . S
C2734 C2720 1.377 . S
C2734 C2733 1.373 . S
C2735 C2719 1.377 . S
C2735 C2733 1.389 . S
C2735 C2736 1.524 . S
C2736 C2735 1.524 . S
C2736 C2737 1.397 . S
C2736 C2741 1.363 . S
C2737 H2708 0.950 . S
C2737 C2736 1.397 . S
C2737 C2738 1.334 . S
C2738 H2709 0.950 . S
C2738 C2737 1.334 . S
C2738 C2739 1.287 . S
C2739 C2738 1.287 . S
C2739 C2740 1.524 . S
C2739 H2742 0.999 . S
C2740 H2710 0.950 . S
C2740 C2739 1.524 . S
C2740 C2741 1.415 . S
C2741 H2711 0.950 . S
C2741 C2736 1.363 . S
C2741 C2740 1.415 . S
H2742 C2739 0.999 . S
H2743 C2724 0.913 . S
H2744 C2762 0.951 . S
H2745 C2764 0.951 . S
H2746 C2766 0.950 . S
H2747 C2767 0.950 . S
H2748 C2769 0.950 . S
H2749 C2772 0.950 . S
H2750 C2773 0.950 . S
H2751 C2775 0.950 . S
H2752 C2776 0.950 . S
H2753 C2777 0.951 . S
H2754 C2779 0.951 . S
H2755 C2781 0.950 . S
H2756 C2782 0.950 . S
H2757 C2784 0.950 . S
H2758 C2787 0.950 . S
H2759 C2788 0.950 . S
H2760 C2790 0.950 . S
H2761 C2791 0.950 . S
C2762 H2744 0.951 . S
C2762 C2763 1.366 . S
C2762 C2764 1.388 . S
C2763 C2762 1.366 . S
C2763 C2767 1.385 . S
C2764 H2745 0.951 . S
C2764 C2762 1.388 . S
C2764 C2765 1.366 . S
C2765 C2764 1.366 . S
C2765 C2766 1.414 . S
C2765 C2768 1.499 . S
C2766 H2746 0.950 . S
C2766 C2765 1.414 . S
C2766 C2767 1.374 . S
C2767 H2747 0.950 . S
C2767 C2763 1.385 . S
C2767 C2766 1.374 . S
C2768 C2765 1.499 . S
C2768 C2769 1.373 . S
C2768 C2770 1.389 . S
C2769 H2748 0.950 . S
C2769 C2768 1.373 . S
C2769 C2785 1.377 . S
C2770 C2768 1.389 . S
C2770 C2771 1.524 . S
C2770 C2784 1.377 . S
C2771 C2770 1.524 . S
C2771 C2772 1.397 . S
C2771 C2776 1.363 . S
C2772 H2749 0.950 . S
C2772 C2771 1.397 . S
C2772 C2773 1.334 . S
C2773 H2750 0.950 . S
C2773 C2772 1.334 . S
C2773 C2774 1.287 . S
C2774 C2773 1.287 . S
C2774 C2775 1.524 . S
C2774 H2793 0.913 . S
C2775 H2751 0.950 . S
C2775 C2774 1.524 . S
C2775 C2776 1.415 . S
C2776 H2752 0.950 . S
C2776 C2771 1.363 . S
C2776 C2775 1.415 . S
C2777 H2753 0.951 . S
C2777 C2778 1.366 . S
C2777 C2779 1.388 . S
C2778 C2777 1.366 . S
C2778 C2782 1.385 . S
C2779 H2754 0.951 . S
C2779 C2777 1.388 . S
C2779 C2780 1.366 . S
C2780 C2779 1.366 . S
C2780 C2781 1.414 . S
C2780 C2783 1.499 . S
C2781 H2755 0.950 . S
C2781 C2780 1.414 . S
C2781 C2782 1.374 . S
C2782 H2756 0.950 . S
C2782 C2778 1.385 . S
C2782 C2781 1.374 . S
C2783 C2780 1.499 . S
C2783 C2784 1.373 . S
C2783 C2785 1.389 . S
C2784 H2757 0.950 . S
C2784 C2770 1.377 . S
C2784 C2783 1.373 . S
C2785 C2769 1.377 . S
C2785 C2783 1.389 . S
C2785 C2786 1.524 . S
C2786 C2785 1.524 . S
C2786 C2787 1.397 . S
C2786 C2791 1.363 . S
C2787 H2758 0.950 . S
C2787 C2786 1.397 . S
C2787 C2788 1.334 . S
C2788 H2759 0.950 . S
C2788 C2787 1.334 . S
C2788 C2789 1.287 . S
C2789 C2788 1.287 . S
C2789 C2790 1.524 . S
C2789 H2792 0.999 . S
C2790 H2760 0.950 . S
C2790 C2789 1.524 . S
C2790 C2791 1.415 . S
C2791 H2761 0.950 . S
C2791 C2786 1.363 . S
C2791 C2790 1.415 . S
H2792 C2789 0.999 . S
H2793 C2774 0.913 . S
H2794 C2812 0.951 . S
H2795 C2814 0.951 . S
H2796 C2816 0.950 . S
H2797 C2817 0.950 . S
H2798 C2819 0.950 . S
H2799 C2822 0.950 . S
H2800 C2823 0.950 . S
H2801 C2825 0.950 . S
H2802 C2826 0.950 . S
H2803 C2827 0.951 . S
H2804 C2829 0.951 . S
H2805 C2831 0.950 . S
H2806 C2832 0.950 . S
H2807 C2834 0.950 . S
H2808 C2837 0.950 . S
H2809 C2838 0.950 . S
H2810 C2840 0.950 . S
H2811 C2841 0.950 . S
C2812 H2794 0.951 . S
C2812 C2813 1.366 . S
C2812 C2814 1.388 . S
C2813 C2812 1.366 . S
C2813 C2817 1.385 . S
C2814 H2795 0.951 . S
C2814 C2812 1.388 . S
C2814 C2815 1.366 . S
C2815 C2814 1.366 . S
C2815 C2816 1.414 . S
C2815 C2818 1.499 . S
C2816 H2796 0.950 . S
C2816 C2815 1.414 . S
C2816 C2817 1.374 . S
C2817 H2797 0.950 . S
C2817 C2813 1.385 . S
C2817 C2816 1.374 . S
C2818 C2815 1.499 . S
C2818 C2819 1.373 . S
C2818 C2820 1.389 . S
C2819 H2798 0.950 . S
C2819 C2818 1.373 . S
C2819 C2835 1.377 . S
C2820 C2818 1.389 . S
C2820 C2821 1.524 . S
C2820 C2834 1.377 . S
C2821 C2820 1.524 . S
C2821 C2822 1.397 . S
C2821 C2826 1.363 . S
C2822 H2799 0.950 . S
C2822 C2821 1.397 . S
C2822 C2823 1.334 . S
C2823 H2800 0.950 . S
C2823 C2822 1.334 . S
C2823 C2824 1.287 . S
C2824 C2823 1.287 . S
C2824 C2825 1.524 . S
C2824 H2843 0.913 . S
C2825 H2801 0.950 . S
C2825 C2824 1.524 . S
C2825 C2826 1.415 . S
C2826 H2802 0.950 . S
C2826 C2821 1.363 . S
C2826 C2825 1.415 . S
C2827 H2803 0.951 . S
C2827 C2828 1.366 . S
C2827 C2829 1.388 . S
C2828 C2827 1.366 . S
C2828 C2832 1.385 . S
C2829 H2804 0.951 . S
C2829 C2827 1.388 . S
C2829 C2830 1.366 . S
C2830 C2829 1.366 . S
C2830 C2831 1.414 . S
C2830 C2833 1.499 . S
C2831 H2805 0.950 . S
C2831 C2830 1.414 . S
C2831 C2832 1.374 . S
C2832 H2806 0.950 . S
C2832 C2828 1.385 . S
C2832 C2831 1.374 . S
C2833 C2830 1.499 . S
C2833 C2834 1.373 . S
C2833 C2835 1.389 . S
C2834 H2807 0.950 . S
C2834 C2820 1.377 . S
C2834 C2833 1.373 . S
C2835 C2819 1.377 . S
C2835 C2833 1.389 . S
C2835 C2836 1.524 . S
C2836 C2835 1.524 . S
C2836 C2837 1.397 . S
C2836 C2841 1.363 . S
C2837 H2808 0.950 . S
C2837 C2836 1.397 . S
C2837 C2838 1.334 . S
C2838 H2809 0.950 . S
C2838 C2837 1.334 . S
C2838 C2839 1.287 . S
C2839 C2838 1.287 . S
C2839 C2840 1.524 . S
C2839 H2842 0.999 . S
C2840 H2810 0.950 . S
C2840 C2839 1.524 . S
C2840 C2841 1.415 . S
C2841 H2811 0.950 . S
C2841 C2836 1.363 . S
C2841 C2840 1.415 . S
H2842 C2839 0.999 . S
H2843 C2824 0.913 . S
H2844 C2862 0.951 . S
H2845 C2864 0.951 . S
H2846 C2866 0.950 . S
H2847 C2867 0.950 . S
H2848 C2869 0.950 . S
H2849 C2872 0.950 . S
H2850 C2873 0.950 . S
H2851 C2875 0.950 . S
H2852 C2876 0.950 . S
H2853 C2877 0.951 . S
H2854 C2879 0.951 . S
H2855 C2881 0.950 . S
H2856 C2882 0.950 . S
H2857 C2884 0.950 . S
H2858 C2887 0.950 . S
H2859 C2888 0.950 . S
H2860 C2890 0.950 . S
H2861 C2891 0.950 . S
C2862 H2844 0.951 . S
C2862 C2863 1.366 . S
C2862 C2864 1.388 . S
C2863 C2862 1.366 . S
C2863 C2867 1.385 . S
C2864 H2845 0.951 . S
C2864 C2862 1.388 . S
C2864 C2865 1.366 . S
C2865 C2864 1.366 . S
C2865 C2866 1.414 . S
C2865 C2868 1.499 . S
C2866 H2846 0.950 . S
C2866 C2865 1.414 . S
C2866 C2867 1.374 . S
C2867 H2847 0.950 . S
C2867 C2863 1.385 . S
C2867 C2866 1.374 . S
C2868 C2865 1.499 . S
C2868 C2869 1.373 . S
C2868 C2870 1.389 . S
C2869 H2848 0.950 . S
C2869 C2868 1.373 . S
C2869 C2885 1.377 . S
C2870 C2868 1.389 . S
C2870 C2871 1.524 . S
C2870 C2884 1.377 . S
C2871 C2870 1.524 . S
C2871 C2872 1.397 . S
C2871 C2876 1.363 . S
C2872 H2849 0.950 . S
C2872 C2871 1.397 . S
C2872 C2873 1.334 . S
C2873 H2850 0.950 . S
C2873 C2872 1.334 . S
C2873 C2874 1.287 . S
C2874 C2873 1.287 . S
C2874 C2875 1.524 . S
C2874 H2893 0.913 . S
C2875 H2851 0.950 . S
C2875 C2874 1.524 . S
C2875 C2876 1.415 . S
C2876 H2852 0.950 . S
C2876 C2871 1.363 . S
C2876 C2875 1.415 . S
C2877 H2853 0.951 . S
C2877 C2878 1.366 . S
C2877 C2879 1.388 . S
C2878 C2877 1.366 . S
C2878 C2882 1.385 . S
C2879 H2854 0.951 . S
C2879 C2877 1.388 . S
C2879 C2880 1.366 . S
C2880 C2879 1.366 . S
C2880 C2881 1.414 . S
C2880 C2883 1.499 . S
C2881 H2855 0.950 . S
C2881 C2880 1.414 . S
C2881 C2882 1.374 . S
C2882 H2856 0.950 . S
C2882 C2878 1.385 . S
C2882 C2881 1.374 . S
C2883 C2880 1.499 . S
C2883 C2884 1.373 . S
C2883 C2885 1.389 . S
C2884 H2857 0.950 . S
C2884 C2870 1.377 . S
C2884 C2883 1.373 . S
C2885 C2869 1.377 . S
C2885 C2883 1.389 . S
C2885 C2886 1.524 . S
C2886 C2885 1.524 . S
C2886 C2887 1.397 . S
C2886 C2891 1.363 . S
C2887 H2858 0.950 . S
C2887 C2886 1.397 . S
C2887 C2888 1.334 . S
C2888 H2859 0.950 . S
C2888 C2887 1.334 . S
C2888 C2889 1.287 . S
C2889 C2888 1.287 . S
C2889 C2890 1.524 . S
C2889 H2892 0.999 . S
C2890 H2860 0.950 . S
C2890 C2889 1.524 . S
C2890 C2891 1.415 . S
C2891 H2861 0.950 . S
C2891 C2886 1.363 . S
C2891 C2890 1.415 . S
H2892 C2889 0.999 . S
H2893 C2874 0.913 . S
H2894 C2912 0.951 . S
H2895 C2914 0.951 . S
H2896 C2916 0.950 . S
H2897 C2917 0.950 . S
H2898 C2919 0.950 . S
H2899 C2922 0.950 . S
H2900 C2923 0.950 . S
H2901 C2925 0.950 . S
H2902 C2926 0.950 . S
H2903 C2927 0.951 . S
H2904 C2929 0.951 . S
H2905 C2931 0.950 . S
H2906 C2932 0.950 . S
H2907 C2934 0.950 . S
H2908 C2937 0.950 . S
H2909 C2938 0.950 . S
H2910 C2940 0.950 . S
H2911 C2941 0.950 . S
C2912 H2894 0.951 . S
C2912 C2913 1.366 . S
C2912 C2914 1.388 . S
C2913 C2912 1.366 . S
C2913 C2917 1.385 . S
C2914 H2895 0.951 . S
C2914 C2912 1.388 . S
C2914 C2915 1.366 . S
C2915 C2914 1.366 . S
C2915 C2916 1.414 . S
C2915 C2918 1.499 . S
C2916 H2896 0.950 . S
C2916 C2915 1.414 . S
C2916 C2917 1.374 . S
C2917 H2897 0.950 . S
C2917 C2913 1.385 . S
C2917 C2916 1.374 . S
C2918 C2915 1.499 . S
C2918 C2919 1.373 . S
C2918 C2920 1.389 . S
C2919 H2898 0.950 . S
C2919 C2918 1.373 . S
C2919 C2935 1.377 . S
C2920 C2918 1.389 . S
C2920 C2921 1.524 . S
C2920 C2934 1.377 . S
C2921 C2920 1.524 . S
C2921 C2922 1.397 . S
C2921 C2926 1.363 . S
C2922 H2899 0.950 . S
C2922 C2921 1.397 . S
C2922 C2923 1.334 . S
C2923 H2900 0.950 . S
C2923 C2922 1.334 . S
C2923 C2924 1.287 . S
C2924 C2923 1.287 . S
C2924 C2925 1.524 . S
C2924 H2943 0.913 . S
C2925 H2901 0.950 . S
C2925 C2924 1.524 . S
C2925 C2926 1.415 . S
C2926 H2902 0.950 . S
C2926 C2921 1.363 . S
C2926 C2925 1.415 . S
C2927 H2903 0.951 . S
C2927 C2928 1.366 . S
C2927 C2929 1.388 . S
C2928 C2927 1.366 . S
C2928 C2932 1.385 . S
C2929 H2904 0.951 . S
C2929 C2927 1.388 . S
C2929 C2930 1.366 . S
C2930 C2929 1.366 . S
C2930 C2931 1.414 . S
C2930 C2933 1.499 . S
C2931 H2905 0.950 . S
C2931 C2930 1.414 . S
C2931 C2932 1.374 . S
C2932 H2906 0.950 . S
C2932 C2928 1.385 . S
C2932 C2931 1.374 . S
C2933 C2930 1.499 . S
C2933 C2934 1.373 . S
C2933 C2935 1.389 . S
C2934 H2907 0.950 . S
C2934 C2920 1.377 . S
C2934 C2933 1.373 . S
C2935 C2919 1.377 . S
C2935 C2933 1.389 . S
C2935 C2936 1.524 . S
C2936 C2935 1.524 . S
C2936 C2937 1.397 . S
C2936 C2941 1.363 . S
C2937 H2908 0.950 . S
C2937 C2936 1.397 . S
C2937 C2938 1.334 . S
C2938 H2909 0.950 . S
C2938 C2937 1.334 . S
C2938 C2939 1.287 . S
C2939 C2938 1.287 . S
C2939 C2940 1.524 . S
C2939 H2942 0.999 . S
C2940 H2910 0.950 . S
C2940 C2939 1.524 . S
C2940 C2941 1.415 . S
C2941 H2911 0.950 . S
C2941 C2936 1.363 . S
C2941 C2940 1.415 . S
H2942 C2939 0.999 . S
H2943 C2924 0.913 . S
H2944 C2962 0.951 . S
H2945 C2964 0.951 . S
H2946 C2966 0.950 . S
H2947 C2967 0.950 . S
H2948 C2969 0.950 . S
H2949 C2972 0.950 . S
H2950 C2973 0.950 . S
H2951 C2975 0.950 . S
H2952 C2976 0.950 . S
H2953 C2977 0.951 . S
H2954 C2979 0.951 . S
H2955 C2981 0.950 . S
H2956 C2982 0.950 . S
H2957 C2984 0.950 . S
H2958 C2987 0.950 . S
H2959 C2988 0.950 . S
H2960 C2990 0.950 . S
H2961 C2991 0.950 . S
C2962 H2944 0.951 . S
C2962 C2963 1.366 . S
C2962 C2964 1.388 . S
C2963 C2962 1.366 . S
C2963 C2967 1.385 . S
C2964 H2945 0.951 . S
C2964 C2962 1.388 . S
C2964 C2965 1.366 . S
C2965 C2964 1.366 . S
C2965 C2966 1.414 . S
C2965 C2968 1.499 . S
C2966 H2946 0.950 . S
C2966 C2965 1.414 . S
C2966 C2967 1.374 . S
C2967 H2947 0.950 . S
C2967 C2963 1.385 . S
C2967 C2966 1.374 . S
C2968 C2965 1.499 . S
C2968 C2969 1.373 . S
C2968 C2970 1.389 . S
C2969 H2948 0.950 . S
C2969 C2968 1.373 . S
C2969 C2985 1.377 . S
C2970 C2968 1.389 . S
C2970 C2971 1.524 . S
C2970 C2984 1.377 . S
C2971 C2970 1.524 . S
C2971 C2972 1.397 . S
C2971 C2976 1.363 . S
C2972 H2949 0.950 . S
C2972 C2971 1.397 . S
C2972 C2973 1.334 . S
C2973 H2950 0.950 . S
C2973 C2972 1.334 . S
C2973 C2974 1.287 . S
C2974 C2973 1.287 . S
C2974 C2975 1.524 . S
C2974 H2993 0.913 . S
C2975 H2951 0.950 . S
C2975 C2974 1.524 . S
C2975 C2976 1.415 . S
C2976 H2952 0.950 . S
C2976 C2971 1.363 . S
C2976 C2975 1.415 . S
C2977 H2953 0.951 . S
C2977 C2978 1.366 . S
C2977 C2979 1.388 . S
C2978 C2977 1.366 . S
C2978 C2982 1.385 . S
C2979 H2954 0.951 . S
C2979 C2977 1.388 . S
C2979 C2980 1.366 . S
C2980 C2979 1.366 . S
C2980 C2981 1.414 . S
C2980 C2983 1.499 . S
C2981 H2955 0.950 . S
C2981 C2980 1.414 . S
C2981 C2982 1.374 . S
C2982 H2956 0.950 . S
C2982 C2978 1.385 . S
C2982 C2981 1.374 . S
C2983 C2980 1.499 . S
C2983 C2984 1.373 . S
C2983 C2985 1.389 . S
C2984 H2957 0.950 . S
C2984 C2970 1.377 . S
C2984 C2983 1.373 . S
C2985 C2969 1.377 . S
C2985 C2983 1.389 . S
C2985 C2986 1.524 . S
C2986 C2985 1.524 . S
C2986 C2987 1.397 . S
C2986 C2991 1.363 . S
C2987 H2958 0.950 . S
C2987 C2986 1.397 . S
C2987 C2988 1.334 . S
C2988 H2959 0.950 . S
C2988 C2987 1.334 . S
C2988 C2989 1.287 . S
C2989 C2988 1.287 . S
C2989 C2990 1.524 . S
C2989 H2992 0.999 . S
C2990 H2960 0.950 . S
C2990 C2989 1.524 . S
C2990 C2991 1.415 . S
C2991 H2961 0.950 . S
C2991 C2986 1.363 . S
C2991 C2990 1.415 . S
H2992 C2989 0.999 . S
H2993 C2974 0.913 . S
H2994 C3012 0.951 . S
H2995 C3014 0.951 . S
H2996 C3016 0.950 . S
H2997 C3017 0.950 . S
H2998 C3019 0.950 . S
H2999 C3022 0.950 . S
H3000 C3023 0.950 . S
H3001 C3025 0.950 . S
H3002 C3026 0.950 . S
H3003 C3027 0.951 . S
H3004 C3029 0.951 . S
H3005 C3031 0.950 . S
H3006 C3032 0.950 . S
H3007 C3034 0.950 . S
H3008 C3037 0.950 . S
H3009 C3038 0.950 . S
H3010 C3040 0.950 . S
H3011 C3041 0.950 . S
C3012 H2994 0.951 . S
C3012 C3013 1.366 . S
C3012 C3014 1.388 . S
C3013 C3012 1.366 . S
C3013 C3017 1.385 . S
C3014 H2995 0.951 . S
C3014 C3012 1.388 . S
C3014 C3015 1.366 . S
C3015 C3014 1.366 . S
C3015 C3016 1.414 . S
C3015 C3018 1.499 . S
C3016 H2996 0.950 . S
C3016 C3015 1.414 . S
C3016 C3017 1.374 . S
C3017 H2997 0.950 . S
C3017 C3013 1.385 . S
C3017 C3016 1.374 . S
C3018 C3015 1.499 . S
C3018 C3019 1.373 . S
C3018 C3020 1.389 . S
C3019 H2998 0.950 . S
C3019 C3018 1.373 . S
C3019 C3035 1.377 . S
C3020 C3018 1.389 . S
C3020 C3021 1.524 . S
C3020 C3034 1.377 . S
C3021 C3020 1.524 . S
C3021 C3022 1.397 . S
C3021 C3026 1.363 . S
C3022 H2999 0.950 . S
C3022 C3021 1.397 . S
C3022 C3023 1.334 . S
C3023 H3000 0.950 . S
C3023 C3022 1.334 . S
C3023 C3024 1.287 . S
C3024 C3023 1.287 . S
C3024 C3025 1.524 . S
C3024 H3043 0.913 . S
C3025 H3001 0.950 . S
C3025 C3024 1.524 . S
C3025 C3026 1.415 . S
C3026 H3002 0.950 . S
C3026 C3021 1.363 . S
C3026 C3025 1.415 . S
C3027 H3003 0.951 . S
C3027 C3028 1.366 . S
C3027 C3029 1.388 . S
C3028 C3027 1.366 . S
C3028 C3032 1.385 . S
C3029 H3004 0.951 . S
C3029 C3027 1.388 . S
C3029 C3030 1.366 . S
C3030 C3029 1.366 . S
C3030 C3031 1.414 . S
C3030 C3033 1.499 . S
C3031 H3005 0.950 . S
C3031 C3030 1.414 . S
C3031 C3032 1.374 . S
C3032 H3006 0.950 . S
C3032 C3028 1.385 . S
C3032 C3031 1.374 . S
C3033 C3030 1.499 . S
C3033 C3034 1.373 . S
C3033 C3035 1.389 . S
C3034 H3007 0.950 . S
C3034 C3020 1.377 . S
C3034 C3033 1.373 . S
C3035 C3019 1.377 . S
C3035 C3033 1.389 . S
C3035 C3036 1.524 . S
C3036 C3035 1.524 . S
C3036 C3037 1.397 . S
C3036 C3041 1.363 . S
C3037 H3008 0.950 . S
C3037 C3036 1.397 . S
C3037 C3038 1.334 . S
C3038 H3009 0.950 . S
C3038 C3037 1.334 . S
C3038 C3039 1.287 . S
C3039 C3038 1.287 . S
C3039 C3040 1.524 . S
C3039 H3042 0.999 . S
C3040 H3010 0.950 . S
C3040 C3039 1.524 . S
C3040 C3041 1.415 . S
C3041 H3011 0.950 . S
C3041 C3036 1.363 . S
C3041 C3040 1.415 . S
H3042 C3039 0.999 . S
H3043 C3024 0.913 . S
C678 C355 1.488 . S
C663 C2 1.475 . S
C728 C333 1.597 . S
C713 C48 1.633 . S
C778 C330 0.389 . S
C763 C97 0.407 . S
C813 C149 0.394 . S
C828 C342 0.378 . S
C863 C189 1.630 . S
C878 C325 1.590 . S
C928 C347 0.392 . S
C913 C202 0.407 . S
C963 C248 0.395 . S
C978 C352 0.370 . S
C1013 C297 1.472 . S
C1028 C348 1.485 . S
C1078 C406 3.046 . S
C1063 C31 3.096 . S
C1113 C52 1.406 . S
C1128 C456 1.414 . S
C1178 C379 1.542 . S
C1163 C88 1.595 . S
C1228 C455 0.385 . S
C1213 C122 0.445 . S
C1263 C162 0.418 . S
C1278 C384 0.388 . S
C1328 C450 3.032 . S
C1313 C231 3.086 . S
C1363 C252 1.421 . S
C1378 C409 1.437 . S
C1413 C288 1.633 . S
C1428 C441 1.580 . S
C1463 C29 1.640 . S
C1478 C433 1.586 . S
C1513 C191 1.417 . S
C1528 C463 1.426 . S
C1578 C387 1.559 . S
C1563 C229 1.609 . S
C1628 C438 0.399 . S
C1613 C257 0.455 . S
C1663 C292 3.101 . S
C1678 C396 3.050 . S
C1713 C92 3.099 . S
C1728 C460 3.048 . S
C1778 C402 1.444 . S
C1763 C151 1.429 . S
C1813 C57 0.430 . S
C1828 C401 0.406 . S
C1863 C282 1.475 . S
C1878 C517 1.488 . S
C1913 C168 1.633 . S
C1928 C495 1.597 . S
C1978 C492 0.389 . S
C1963 C217 0.408 . S
C2028 C504 0.375 . S
C2013 C269 0.396 . S
C2063 C69 1.630 . S
C2078 C487 1.590 . S
C2128 C509 0.392 . S
C2113 C82 0.408 . S
C2163 C128 0.394 . S
C2178 C514 0.372 . S
C2213 C17 1.473 . S
C2228 C510 1.485 . S
C2263 C311 3.096 . S
C2278 C568 3.047 . S
C2328 C618 1.415 . S
C2313 C172 1.406 . S
C2363 C208 1.596 . S
C2378 C541 1.543 . S
C2413 C242 0.444 . S
C2428 C617 0.385 . S
C2478 C546 0.389 . S
C2463 C42 0.415 . S
C2513 C111 3.086 . S
C2528 C612 3.031 . S
C2578 C571 1.437 . S
C2563 C132 1.421 . S
C2628 C603 1.581 . S
C2613 C8 1.633 . S
C2678 C595 1.586 . S
C2663 C309 1.640 . S
C2713 C71 1.417 . S
C2728 C625 1.426 . S
C2763 C109 1.609 . S
C2778 C549 1.559 . S
C2828 C600 0.400 . S
C2813 C137 0.454 . S
C2863 C12 3.102 . S
C2878 C558 3.050 . S
C2913 C212 3.099 . S
C2928 C622 3.048 . S
C2978 C564 1.444 . S
C2963 C271 1.429 . S
C3028 C563 0.406 . S
C3013 C177 0.429 . S
