# Generated by pormake.
# Topology pts, (4,4)-cn, num edge types: 1
# Building blocks:
#     Node 0, Type 0, BuildingBlock: MUDLON_clean_sbu_0, # of connection points: 4
#     Node 1, Type 0, BuildingBlock: MUDLON_clean_sbu_0, # of connection points: 4
#     Node 2, Type 1, BuildingBlock: AZAVOO_clean_sbu_0, # of connection points: 4
#     Node 3, Type 1, BuildingBlock: AZAVOO_clean_sbu_0, # of connection points: 4
#     Edge 4, Type (0, 1), BuildingBlock: UVAHIK_clean_linker_0, # of connection points: 2
#     Edge 5, Type (0, 1), BuildingBlock: UVAHIK_clean_linker_0, # of connection points: 2
#     Edge 6, Type (0, 1), BuildingBlock: UVAHIK_clean_linker_0, # of connection points: 2
#     Edge 7, Type (0, 1), BuildingBlock: UVAHIK_clean_linker_0, # of connection points: 2
#     Edge 8, Type (0, 1), BuildingBlock: UVAHIK_clean_linker_0, # of connection points: 2
#     Edge 9, Type (0, 1), BuildingBlock: UVAHIK_clean_linker_0, # of connection points: 2
#     Edge 10, Type (0, 1), BuildingBlock: UVAHIK_clean_linker_0, # of connection points: 2
#     Edge 11, Type (0, 1), BuildingBlock: UVAHIK_clean_linker_0, # of connection points: 2
# Relax obj value: 0.031
# Max RMSD: 0.088
# Mean RMSD: 0.074
data_MOF--net-pts--node1-MUDLON_clean_sbu_0--node2-AZAVOO_clean_sbu_0--edge1-UVAHIK_clean_linker_0
_symmetry_space_group_name_H-M    P1
_symmetry_Int_Tables_number       1
_symmetry_cell_setting            triclinic
loop_
_symmetry_equiv_pos_as_xyz
'x, y, z'
_cell_length_a     28.953045
_cell_length_b     29.942964
_cell_length_c     50.458587
_cell_angle_alpha  90.062284
_cell_angle_beta   95.817434
_cell_angle_gamma 90.002455
loop_
_atom_site_label
_atom_site_type_symbol
_atom_site_fract_x
_atom_site_fract_y
_atom_site_fract_z
_atom_type_partial_charge
Mg0 Mg 0.56454 0.03477 0.03449 0.0
C1 C 0.47537 0.98945 0.01312 0.0
O2 O 0.46432 0.00083 0.03682 0.0
C3 C 0.65391 0.99073 0.05672 0.0
O4 O 0.66529 0.0016 0.03302 0.0
C5 C 0.5309 0.07649 0.08374 0.0
O6 O 0.57195 0.06281 0.09404 0.0
O7 O 0.52048 0.07317 0.05871 0.0
O8 O 0.5168 0.99572 1.0076 0.0
O9 O 0.60827 0.07235 1.00971 0.0
C10 C 0.59756 0.07489 0.98467 0.0
O11 O 0.5565 0.06074 0.97464 0.0
O12 O 0.61232 0.99688 0.06196 0.0
Mg13 Mg 0.05865 0.51826 0.53139 0.0
C14 C 0.11079 0.55607 0.58148 0.0
O15 O 0.10324 0.51575 0.59036 0.0
C16 C 0.11491 0.4843 0.48747 0.0
O17 O 0.11361 0.52662 0.48059 0.0
C18 C 1.00573 0.55173 0.47941 0.0
O19 O 0.01315 0.51108 0.47098 0.0
O20 O 0.0169 0.56137 0.50378 0.0
O21 O 0.09989 0.56465 0.55697 0.0
O22 O 0.02043 0.47955 0.55828 0.0
C23 C 0.01209 0.43828 0.55435 0.0
O24 O 0.02162 0.42005 0.53184 0.0
O25 O 0.09783 0.47254 0.50865 0.0
Mg26 Mg 0.11763 0.00367 0.30311 0.0
O27 O 0.04904 0.00548 0.27549 0.0
O28 O 0.99102 0.00519 0.3015 0.0
Mg29 Mg 0.02143 0.00428 0.34506 0.0
C30 C 1.0057 0.00537 0.27848 0.0
C31 C 0.20089 0.03489 0.27433 0.0
O32 O 0.21733 0.03631 0.29957 0.0
O33 O 0.11065 0.07705 0.31469 0.0
O34 O 0.05323 0.07414 0.34113 0.0
O35 O 0.11429 0.9287 0.30359 0.0
O36 O 0.08412 0.97216 0.33266 0.0
C37 C 0.08399 0.0959 0.33002 0.0
C38 C 0.09035 0.93253 0.32382 0.0
O39 O 0.15908 0.02251 0.26841 0.0
Mg40 Mg 0.01161 0.99784 0.76636 0.0
O41 O 0.07972 0.00021 0.7945 0.0
O42 O 0.1382 0.99828 0.76879 0.0
Mg43 Mg 0.10894 0.99446 0.72511 0.0
C44 C 0.12315 0.99975 0.79171 0.0
C45 C 0.92716 0.03081 0.79398 0.0
O46 O 0.91052 0.03003 0.76877 0.0
O47 O 0.01992 0.07033 0.75337 0.0
O48 O 0.0772 0.06458 0.72701 0.0
O49 O 0.01262 0.92289 0.76731 0.0
O50 O 0.04632 0.96351 0.73827 0.0
C51 C 0.04666 0.08759 0.73753 0.0
C52 C 0.03838 0.92474 0.7478 0.0
O53 O 0.96922 0.01946 0.80014 0.0
C54 C 0.50597 0.09023 0.12917 0.0
C55 C 0.49446 0.0868 0.1015 0.0
C56 C 0.47121 0.09269 0.14644 0.0
C57 C 0.3508 0.05765 0.15027 0.0
H58 H 0.36134 0.12836 0.215 0.0
C59 C 0.2139 0.04711 0.22627 0.0
C60 C 0.23118 0.04662 0.25334 0.0
C61 C 0.24315 0.05733 0.20663 0.0
C62 C 0.35802 0.1081 0.19711 0.0
H63 H 0.43721 0.08556 0.07021 0.0
H64 H 0.37657 0.08995 0.1004 0.0
H65 H 0.41763 0.13844 0.18265 0.0
H66 H 0.29279 0.0568 0.28093 0.0
H67 H 0.3437 0.07364 0.24685 0.0
H68 H 0.29213 0.02629 0.16501 0.0
C69 C 0.41255 0.09028 0.10872 0.0
C70 C 0.39024 0.11402 0.17854 0.0
C71 C 0.44736 0.08815 0.09142 0.0
C72 C 0.27821 0.05698 0.2603 0.0
C73 C 0.30742 0.06702 0.24071 0.0
C74 C 0.31871 0.05156 0.16891 0.0
C75 C 0.42407 0.09153 0.13647 0.0
C76 C 0.3874 0.08842 0.15506 0.0
C77 C 0.29039 0.0672 0.21359 0.0
C78 C 0.3223 0.07621 0.19278 0.0
H79 H 0.54188 0.08931 0.13761 0.0
H80 H 0.48131 0.09331 0.1677 0.0
H81 H 0.34798 0.03692 0.13258 0.0
H82 H 0.1778 0.03949 0.22023 0.0
H83 H 0.22867 0.05766 0.18599 0.0
C84 C 1.00358 0.42652 0.60283 0.0
C85 C 1.00023 0.40968 0.57665 0.0
C86 C 1.0 0.3979 0.62442 0.0
C87 C 0.96392 0.28467 0.64357 0.0
H88 H 0.06821 0.29333 0.69802 0.0
C89 C 0.07416 0.15719 0.71683 0.0
C90 C 0.03881 0.13412 0.72822 0.0
C91 C 0.06478 0.19749 0.70347 0.0
C92 C 0.03863 0.29077 0.68313 0.0
H93 H 0.98746 0.35011 0.55255 0.0
H94 H 0.98082 0.30031 0.59019 0.0
H95 H 0.05688 0.35077 0.66366 0.0
H96 H 0.96642 0.13647 0.73575 0.0
H97 H 0.94988 0.20687 0.712 0.0
H98 H 0.94681 0.22367 0.66245 0.0
C99 C 0.98631 0.33561 0.59402 0.0
C100 C 0.03192 0.3238 0.66356 0.0
C101 C 0.99034 0.36413 0.57245 0.0
C102 C 0.99445 0.15354 0.72727 0.0
C103 C 0.98486 0.19362 0.71351 0.0
C104 C 0.97036 0.25186 0.66331 0.0
C105 C 0.99244 0.35195 0.62028 0.0
C106 C 0.99523 0.32046 0.64313 0.0
C107 C 0.01969 0.21538 0.70089 0.0
C108 C 1.00854 0.25392 0.68286 0.0
H109 H 0.01113 0.46146 0.6068 0.0
H110 H 1.00439 0.41151 0.64441 0.0
H111 H 0.93514 0.28141 0.6282 0.0
H112 H 0.10873 0.14316 0.7173 0.0
H113 H 0.09228 0.21327 0.69381 0.0
C114 C 0.68034 0.97739 0.10498 0.0
C115 C 0.69073 0.98007 0.07841 0.0
C116 C 0.71594 0.97459 0.12583 0.0
C117 C 0.83928 0.00445 0.14107 0.0
H118 H 0.82819 0.93786 0.20595 0.0
C119 C 0.98528 0.99978 0.22885 0.0
C120 C 0.97113 0.00273 0.25466 0.0
C121 C 0.95248 0.99455 0.20668 0.0
C122 C 0.83164 0.95694 0.18803 0.0
H123 H 0.74666 0.97911 0.05286 0.0
H124 H 0.80862 0.97348 0.08918 0.0
H125 H 0.76863 0.93009 0.16843 0.0
H126 H 0.91105 0.00338 0.27719 0.0
H127 H 0.85423 0.9948 0.23866 0.0
H128 H 0.90202 0.03168 0.16079 0.0
C129 C 0.77299 0.97455 0.09394 0.0
C130 C 0.79752 0.95242 0.16652 0.0
C131 C 0.7374 0.97741 0.0731 0.0
C132 C 0.92337 0.00106 0.25767 0.0
C133 C 0.89069 0.99575 0.23557 0.0
C134 C 0.87343 0.00892 0.16258 0.0
C135 C 0.76276 0.97429 0.1206 0.0
C136 C 0.80064 0.97648 0.14286 0.0
C137 C 0.90481 0.99202 0.20982 0.0
C138 C 0.86975 0.98563 0.18644 0.0
H139 H 0.64479 0.97945 0.10981 0.0
H140 H 0.70676 0.97476 0.14611 0.0
H141 H 0.84245 0.02406 0.12333 0.0
H142 H 0.02173 0.00081 0.22576 0.0
H143 H 0.96454 0.99152 0.18713 0.0
C144 C 0.13311 0.58445 0.62782 0.0
C145 C 0.12178 0.59315 0.60057 0.0
C146 C 0.13544 0.61929 0.64643 0.0
C147 C 0.13415 0.74411 0.65258 0.0
H148 H 0.07688 0.71846 0.71705 0.0
C149 C 0.03195 0.8441 0.73528 0.0
C150 C 0.05752 0.88397 0.73657 0.0
C151 C 0.04726 0.80699 0.72173 0.0
C152 C 0.09268 0.72636 0.69908 0.0
H153 H 0.10651 0.64562 0.57138 0.0
H154 H 0.10917 0.70582 0.60361 0.0
H155 H 0.091 0.65806 0.68677 0.0
H156 H 0.12106 0.91512 0.72672 0.0
H157 H 0.14872 0.85025 0.70402 0.0
H158 H 0.13277 0.81274 0.66383 0.0
C159 C 0.1172 0.67238 0.61079 0.0
C160 C 0.10159 0.69146 0.68187 0.0
C161 C 0.11544 0.63767 0.5922 0.0
C162 C 0.09998 0.88526 0.72543 0.0
C163 C 0.11577 0.84797 0.71233 0.0
C164 C 0.12463 0.77905 0.66958 0.0
C165 C 0.12601 0.66358 0.63824 0.0
C166 C 0.12166 0.69995 0.6581 0.0
C167 C 0.08901 0.80868 0.70961 0.0
C168 C 0.10302 0.77081 0.69287 0.0
H169 H 0.13857 0.55054 0.63491 0.0
H170 H 0.14344 0.61129 0.66732 0.0
H171 H 0.15045 0.75197 0.63477 0.0
H172 H 0.99898 0.84226 0.74364 0.0
H173 H 0.02527 0.77769 0.71985 0.0
C174 C 0.39173 0.97578 0.99721 0.0
C175 C 0.4383 0.97822 0.99167 0.0
C176 C 0.3559 0.97247 0.97652 0.0
C177 C 0.33054 0.94861 0.90417 0.0
H178 H 0.22643 0.02852 0.90956 0.0
C179 C 0.20529 0.99622 0.81279 0.0
C180 C 0.15748 0.99795 0.81566 0.0
C181 C 0.23781 0.99131 0.83499 0.0
C182 C 0.2549 0.00558 0.90787 0.0
H183 H 0.4838 0.97669 0.96006 0.0
H184 H 0.42141 0.9712 0.92405 0.0
H185 H 0.28616 0.02142 0.947 0.0
H186 H 0.10663 0.99671 0.84443 0.0
H187 H 0.16359 0.98815 0.88325 0.0
H188 H 0.29964 0.93337 0.86486 0.0
C189 C 0.4125 0.97156 0.94438 0.0
C190 C 0.28914 0.0014 0.92937 0.0
C191 C 0.44834 0.97483 0.96506 0.0
C192 C 0.14313 0.99561 0.84144 0.0
C193 C 0.17579 0.99078 0.86372 0.0
C194 C 0.29634 0.95283 0.88267 0.0
C195 C 0.36578 0.9715 0.94981 0.0
C196 C 0.32767 0.97324 0.92767 0.0
C197 C 0.22348 0.98804 0.8607 0.0
C198 C 0.25842 0.9818 0.88414 0.0
H199 H 0.38274 0.97803 0.01749 0.0
H200 H 0.32036 0.97162 0.98144 0.0
H201 H 0.35932 0.92609 0.90233 0.0
H202 H 0.21779 0.99811 0.7933 0.0
H203 H 0.27431 0.99023 0.83199 0.0
C204 C 0.13332 0.40507 0.4765 0.0
C205 C 0.12692 0.44969 0.46833 0.0
C206 C 0.13752 0.37124 0.45777 0.0
C207 C 0.09688 0.34424 0.38931 0.0
H208 H 0.18006 0.24289 0.40004 0.0
C209 C 0.13613 0.1625 0.33815 0.0
C210 C 0.09173 0.14328 0.33767 0.0
C211 C 0.14519 0.20446 0.34985 0.0
C212 C 0.15704 0.27126 0.39654 0.0
H213 H 0.12186 0.49402 0.43416 0.0
H214 H 0.12859 0.43473 0.40145 0.0
H215 H 0.19069 0.30758 0.42973 0.0
H216 H 0.02138 0.15415 0.34744 0.0
H217 H 0.03693 0.22766 0.3672 0.0
H218 H 0.06195 0.3071 0.35687 0.0
C219 C 0.13045 0.42606 0.42237 0.0
C220 C 0.16292 0.30808 0.41365 0.0
C221 C 0.12692 0.46 0.44114 0.0
C222 C 0.05596 0.16802 0.34758 0.0
C223 C 0.06482 0.2102 0.3588 0.0
C224 C 0.0906 0.30717 0.37245 0.0
C225 C 0.13481 0.38124 0.43045 0.0
C226 C 0.13239 0.34461 0.41049 0.0
C227 C 0.1098 0.2283 0.36076 0.0
C228 C 0.12011 0.26997 0.37619 0.0
H229 H 0.13347 0.39606 0.49729 0.0
H230 H 0.1405 0.33696 0.46458 0.0
H231 H 0.07256 0.37174 0.38652 0.0
H232 H 0.16447 0.14415 0.33081 0.0
H233 H 0.18012 0.2178 0.35098 0.0
C234 C 0.62185 0.08733 0.93898 0.0
C235 C 0.63365 0.08502 0.96666 0.0
C236 C 0.6564 0.08972 0.92156 0.0
C237 C 0.77748 0.05659 0.91784 0.0
H238 H 0.76488 0.1245 0.85214 0.0
C239 C 0.91412 0.04557 0.84179 0.0
C240 C 0.89674 0.04341 0.81477 0.0
C241 C 0.88475 0.05621 0.8613 0.0
C242 C 0.76878 0.10504 0.87031 0.0
H243 H 0.69116 0.08571 0.9978 0.0
H244 H 0.75141 0.09003 0.96736 0.0
H245 H 0.70862 0.1348 0.88451 0.0
H246 H 0.83485 0.05121 0.7871 0.0
H247 H 0.78373 0.06884 0.82099 0.0
H248 H 0.83674 0.02581 0.90339 0.0
C249 C 0.71538 0.0895 0.95914 0.0
C250 C 0.73658 0.11107 0.88889 0.0
C251 C 0.68079 0.08741 0.97658 0.0
C252 C 0.8495 0.05267 0.8077 0.0
C253 C 0.82017 0.06315 0.82717 0.0
C254 C 0.80956 0.0504 0.89921 0.0
C255 C 0.70361 0.08963 0.9314 0.0
C256 C 0.74017 0.08647 0.91273 0.0
C257 C 0.83728 0.06486 0.85426 0.0
C258 C 0.80526 0.07405 0.87501 0.0
H259 H 0.58591 0.0856 0.93065 0.0
H260 H 0.64609 0.08946 0.90032 0.0
H261 H 0.7809 0.03661 0.93581 0.0
H262 H 0.95039 0.03884 0.84791 0.0
H263 H 0.89929 0.05777 0.88192 0.0
C264 C 1.00481 0.5832 0.43338 0.0
C265 C 0.99587 0.58852 0.46008 0.0
C266 C 1.00537 0.62027 0.41653 0.0
C267 C 0.0264 0.74147 0.42202 0.0
H268 H 0.99568 0.74045 0.34541 0.0
C269 C 0.04834 0.89853 0.35974 0.0
C270 C 0.07067 0.89317 0.33647 0.0
C271 C 0.03267 0.8615 0.37302 0.0
C272 C 1.00461 0.7411 0.36678 0.0
H273 H 0.97633 0.63617 0.48932 0.0
H274 H 0.97572 0.70047 0.45976 0.0
H275 H 0.97697 0.67553 0.37178 0.0
H276 H 0.09283 0.8446 0.30847 0.0
H277 H 0.06573 0.77963 0.33191 0.0
H278 H 0.05446 0.80656 0.41713 0.0
C279 C 0.98394 0.66798 0.45204 0.0
C280 C 0.99388 0.70395 0.38189 0.0
C281 C 0.98387 0.63105 0.46894 0.0
C282 C 0.07577 0.84986 0.32636 0.0
C283 C 0.06 0.81267 0.33969 0.0
C284 C 0.03687 0.7785 0.40698 0.0
C285 C 0.99659 0.66337 0.42597 0.0
C286 C 1.00484 0.70362 0.40972 0.0
C287 C 0.03904 0.81808 0.36346 0.0
C288 C 0.0263 0.77877 0.37919 0.0
H289 H 0.01438 0.5509 0.42594 0.0
H290 H 0.01545 0.61539 0.39664 0.0
H291 H 0.03656 0.74209 0.44327 0.0
H292 H 0.0439 0.9313 0.36818 0.0
H293 H 0.01607 0.86688 0.39105 0.0
loop_
_geom_bond_atom_site_label_1
_geom_bond_atom_site_label_2
_geom_bond_distance
_geom_bond_site_symmetry_2
_ccdc_geom_bond_type
Mg0 O7 2.141 . S
Mg0 O8 2.048 1_554 S
Mg0 O9 2.048 1_554 S
Mg0 O12 2.141 . S
C1 O2 1.313 1_545 S
C1 O8 1.195 . S
O2 C1 1.313 1_565 S
C3 O4 1.245 1_545 S
C3 O12 1.289 . S
O4 C3 1.245 1_565 S
C5 O6 1.245 1_545 S
C5 O7 1.289 . S
O6 C5 1.245 1_565 S
O7 Mg0 2.141 . S
O7 C5 1.289 . S
O8 Mg0 2.048 1_556 S
O8 C1 1.195 . S
O9 Mg0 2.048 1_556 S
O9 C10 1.195 . S
C10 O9 1.195 . S
C10 O11 1.313 1_545 S
O11 C10 1.313 1_565 S
O12 Mg0 2.141 . S
O12 C3 1.289 . S
Mg13 O20 2.141 . S
Mg13 O21 2.048 . S
Mg13 O22 2.048 . S
Mg13 O25 2.141 . S
C14 O15 1.313 . S
C14 O21 1.195 . S
O15 C14 1.313 . S
C16 O17 1.245 . S
C16 O25 1.289 . S
O17 C16 1.245 . S
C18 O19 1.245 . S
C18 O20 1.289 . S
O19 C18 1.245 . S
O20 Mg13 2.141 . S
O20 C18 1.289 . S
O21 Mg13 2.048 . S
O21 C14 1.195 . S
O22 Mg13 2.048 . S
O22 C23 1.195 . S
C23 O22 1.195 . S
C23 O24 1.313 . S
O24 C23 1.313 . S
O25 Mg13 2.141 . S
O25 C16 1.289 . S
Mg26 O27 2.028 . S
Mg26 O33 1.986 . S
Mg26 O35 2.114 1_545 S
Mg26 O36 2.251 1_545 S
Mg26 O39 2.010 . S
O27 Mg26 2.028 . S
O27 C30 1.250 . S
O28 Mg29 2.028 1_655 S
O28 C30 1.248 1_655 S
Mg29 O28 2.028 1_455 S
Mg29 O34 2.032 . S
Mg29 O36 2.079 1_545 S
C30 O27 1.250 . S
C30 O28 1.248 1_455 S
C31 O32 1.264 . S
C31 O39 1.249 . S
O32 C31 1.264 . S
O33 Mg26 1.986 . S
O33 C37 1.246 . S
O34 Mg29 2.032 . S
O34 C37 1.259 . S
O35 Mg26 2.114 1_565 S
O35 C38 1.252 . S
O36 Mg26 2.251 1_565 S
O36 Mg29 2.079 1_565 S
O36 C38 1.273 . S
C37 O33 1.246 . S
C37 O34 1.259 . S
C38 O35 1.252 . S
C38 O36 1.273 . S
O39 Mg26 2.010 . S
O39 C31 1.249 . S
Mg40 O41 2.016 1_655 S
Mg40 O47 1.984 1_655 S
Mg40 O49 2.113 1_545 S
Mg40 O50 2.239 1_645 S
Mg40 O53 2.026 . S
O41 Mg40 2.016 1_455 S
O41 C44 1.250 . S
O42 Mg43 2.028 . S
O42 C44 1.248 . S
Mg43 O42 2.028 . S
Mg43 O48 2.032 . S
Mg43 O50 2.079 1_545 S
C44 O41 1.250 . S
C44 O42 1.248 . S
C45 O46 1.264 . S
C45 O53 1.249 . S
O46 C45 1.264 . S
O47 Mg40 1.984 1_455 S
O47 C51 1.246 . S
O48 Mg43 2.032 . S
O48 C51 1.259 . S
O49 Mg40 2.113 1_565 S
O49 C52 1.249 1_655 S
O50 Mg40 2.239 1_465 S
O50 Mg43 2.079 1_565 S
O50 C52 1.273 . S
C51 O47 1.246 . S
C51 O48 1.259 . S
C52 O49 1.249 1_455 S
C52 O50 1.273 . S
O53 Mg40 2.026 . S
O53 C45 1.249 . S
C54 C55 1.349 1_565 S
C54 C56 1.327 . S
C54 H79 0.950 . S
C55 C54 1.349 1_545 S
C55 C71 1.349 . S
C56 C54 1.327 . S
C56 C75 1.429 1_565 S
C56 H80 0.950 . S
C57 C74 1.574 . S
C57 C76 1.368 . S
C57 H81 0.949 . S
H58 C62 0.949 . S
C59 C60 1.349 . S
C59 C61 1.327 . S
C59 H82 0.950 . S
C60 C59 1.349 . S
C60 C72 1.349 1_545 S
C61 C59 1.327 . S
C61 C77 1.429 . S
C61 H83 0.950 . S
C62 H58 0.949 . S
C62 C70 1.574 . S
C62 C78 1.368 1_565 S
H63 C71 0.950 . S
H64 C69 0.950 . S
H65 C70 0.949 . S
H66 C72 0.950 . S
H67 C73 0.950 . S
H68 C74 0.949 . S
C69 H64 0.950 . S
C69 C71 1.327 . S
C69 C75 1.429 . S
C70 C62 1.574 . S
C70 H65 0.949 . S
C70 C76 1.368 1_565 S
C71 C55 1.349 . S
C71 H63 0.950 . S
C71 C69 1.327 . S
C72 C60 1.349 1_565 S
C72 H66 0.950 . S
C72 C73 1.327 . S
C73 H67 0.950 . S
C73 C72 1.327 . S
C73 C77 1.429 1_565 S
C74 C57 1.574 . S
C74 H68 0.949 . S
C74 C78 1.368 . S
C75 C56 1.429 1_545 S
C75 C69 1.429 . S
C75 C76 1.523 . S
C76 C57 1.368 . S
C76 C70 1.368 1_545 S
C76 C75 1.523 . S
C77 C61 1.429 . S
C77 C73 1.429 1_545 S
C77 C78 1.523 . S
C78 C62 1.368 1_545 S
C78 C74 1.368 . S
C78 C77 1.523 . S
H79 C54 0.950 . S
H80 C56 0.950 . S
H81 C57 0.949 . S
H82 C59 0.950 . S
H83 C61 0.950 . S
C84 C85 1.349 . S
C84 C86 1.327 . S
C84 H109 0.950 1_455 S
C85 C84 1.349 . S
C85 C101 1.349 . S
C86 C84 1.327 . S
C86 C105 1.429 . S
C86 H110 0.950 1_455 S
C87 C104 1.574 . S
C87 C106 1.368 . S
C87 H111 0.949 . S
H88 C92 0.949 1_655 S
C89 C90 1.349 . S
C89 C91 1.327 . S
C89 H112 0.950 . S
C90 C89 1.349 . S
C90 C102 1.349 1_455 S
C91 C89 1.327 . S
C91 C107 1.429 . S
C91 H113 0.950 . S
C92 H88 0.949 1_455 S
C92 C100 1.574 . S
C92 C108 1.368 . S
H93 C101 0.950 . S
H94 C99 0.950 . S
H95 C100 0.949 1_655 S
H96 C102 0.950 . S
H97 C103 0.953 . S
H98 C104 0.949 . S
C99 H94 0.950 . S
C99 C101 1.327 . S
C99 C105 1.429 . S
C100 C92 1.574 . S
C100 H95 0.949 1_455 S
C100 C106 1.368 . S
C101 C85 1.349 . S
C101 H93 0.950 . S
C101 C99 1.327 . S
C102 C90 1.349 1_655 S
C102 H96 0.950 . S
C102 C103 1.328 . S
C103 H97 0.953 . S
C103 C102 1.328 . S
C103 C107 1.424 1_655 S
C104 C87 1.574 . S
C104 H98 0.949 . S
C104 C108 1.368 . S
C105 C86 1.429 . S
C105 C99 1.429 . S
C105 C106 1.523 . S
C106 C87 1.368 . S
C106 C100 1.368 . S
C106 C105 1.523 . S
C107 C91 1.429 . S
C107 C103 1.424 1_455 S
C107 C108 1.523 . S
C108 C92 1.368 . S
C108 C104 1.368 . S
C108 C107 1.523 . S
H109 C84 0.950 1_655 S
H110 C86 0.950 1_655 S
H111 C87 0.949 . S
H112 C89 0.950 . S
H113 C91 0.950 . S
C114 C115 1.349 . S
C114 C116 1.327 . S
C114 H139 0.950 . S
C115 C114 1.349 . S
C115 C131 1.349 1_545 S
C116 C114 1.327 . S
C116 C135 1.429 . S
C116 H140 0.950 . S
C117 C134 1.574 . S
C117 C136 1.368 1_565 S
C117 H141 0.949 . S
H118 C122 0.949 . S
C119 C120 1.349 1_565 S
C119 C121 1.327 . S
C119 H142 0.946 1_655 S
C120 C119 1.349 1_545 S
C120 C132 1.349 . S
C121 C119 1.327 . S
C121 C137 1.429 1_565 S
C121 H143 0.950 . S
C122 H118 0.949 . S
C122 C130 1.574 . S
C122 C138 1.368 . S
H123 C131 0.950 . S
H124 C129 0.950 . S
H125 C130 0.949 . S
H126 C132 0.950 . S
H127 C133 0.950 . S
H128 C134 0.949 . S
C129 H124 0.950 . S
C129 C131 1.327 . S
C129 C135 1.429 1_565 S
C130 C122 1.574 . S
C130 H125 0.949 . S
C130 C136 1.368 . S
C131 C115 1.349 1_565 S
C131 H123 0.950 . S
C131 C129 1.327 . S
C132 C120 1.349 . S
C132 H126 0.950 . S
C132 C133 1.327 . S
C133 H127 0.950 . S
C133 C132 1.327 . S
C133 C137 1.429 . S
C134 C117 1.574 . S
C134 H128 0.949 . S
C134 C138 1.368 1_565 S
C135 C116 1.429 . S
C135 C129 1.429 1_545 S
C135 C136 1.523 . S
C136 C117 1.368 1_545 S
C136 C130 1.368 . S
C136 C135 1.523 . S
C137 C121 1.429 1_545 S
C137 C133 1.429 . S
C137 C138 1.523 . S
C138 C122 1.368 . S
C138 C134 1.368 1_545 S
C138 C137 1.523 . S
H139 C114 0.950 . S
H140 C116 0.950 . S
H141 C117 0.949 . S
H142 C119 0.946 1_455 S
H143 C121 0.950 . S
C144 C145 1.349 . S
C144 C146 1.327 . S
C144 H169 0.950 . S
C145 C144 1.349 . S
C145 C161 1.349 . S
C146 C144 1.327 . S
C146 C165 1.429 . S
C146 H170 0.950 . S
C147 C164 1.574 1_455 S
C147 C166 1.368 . S
C147 H171 0.949 1_455 S
H148 C152 0.949 . S
C149 C150 1.349 1_655 S
C149 C151 1.327 . S
C149 H172 0.950 . S
C150 C149 1.349 1_455 S
C150 C162 1.349 . S
C151 C149 1.327 . S
C151 C167 1.429 1_655 S
C151 H173 0.950 . S
C152 H148 0.949 . S
C152 C160 1.574 . S
C152 C168 1.368 . S
H153 C161 0.950 1_655 S
H154 C159 0.950 1_655 S
H155 C160 0.949 . S
H156 C162 0.950 . S
H157 C163 0.950 . S
H158 C164 0.949 . S
C159 H154 0.950 1_455 S
C159 C161 1.327 . S
C159 C165 1.429 . S
C160 C152 1.574 . S
C160 H155 0.949 . S
C160 C166 1.368 . S
C161 C145 1.349 . S
C161 H153 0.950 1_455 S
C161 C159 1.327 . S
C162 C150 1.349 . S
C162 H156 0.950 . S
C162 C163 1.327 . S
C163 H157 0.950 . S
C163 C162 1.327 . S
C163 C167 1.429 . S
C164 C147 1.574 1_655 S
C164 H158 0.949 . S
C164 C168 1.368 1_655 S
C165 C146 1.429 . S
C165 C159 1.429 . S
C165 C166 1.523 . S
C166 C147 1.368 . S
C166 C160 1.368 . S
C166 C165 1.523 . S
C167 C151 1.429 1_455 S
C167 C163 1.429 . S
C167 C168 1.523 . S
C168 C152 1.368 . S
C168 C164 1.368 1_455 S
C168 C167 1.523 . S
H169 C144 0.950 . S
H170 C146 0.950 . S
H171 C147 0.949 1_655 S
H172 C149 0.950 . S
H173 C151 0.950 . S
C174 C175 1.349 1_565 S
C174 C176 1.327 . S
C174 H199 0.950 . S
C175 C174 1.349 1_545 S
C175 C191 1.349 . S
C176 C174 1.327 . S
C176 C195 1.429 1_565 S
C176 H200 0.950 . S
C177 C194 1.574 . S
C177 C196 1.368 . S
C177 H201 0.949 . S
H178 C182 0.949 . S
C179 C180 1.349 . S
C179 C181 1.327 . S
C179 H202 0.950 . S
C180 C179 1.349 . S
C180 C192 1.349 1_545 S
C181 C179 1.327 . S
C181 C197 1.429 . S
C181 H203 0.950 . S
C182 H178 0.949 . S
C182 C190 1.574 . S
C182 C198 1.368 1_565 S
H183 C191 0.950 . S
H184 C189 0.950 . S
H185 C190 0.949 . S
H186 C192 0.950 . S
H187 C193 0.950 . S
H188 C194 0.949 . S
C189 H184 0.950 . S
C189 C191 1.327 . S
C189 C195 1.429 . S
C190 C182 1.574 . S
C190 H185 0.949 . S
C190 C196 1.368 1_565 S
C191 C175 1.349 . S
C191 H183 0.950 . S
C191 C189 1.327 . S
C192 C180 1.349 1_565 S
C192 H186 0.950 . S
C192 C193 1.327 . S
C193 H187 0.950 . S
C193 C192 1.327 . S
C193 C197 1.429 1_565 S
C194 C177 1.574 . S
C194 H188 0.949 . S
C194 C198 1.368 . S
C195 C176 1.429 1_545 S
C195 C189 1.429 . S
C195 C196 1.523 . S
C196 C177 1.368 . S
C196 C190 1.368 1_545 S
C196 C195 1.523 . S
C197 C181 1.429 . S
C197 C193 1.429 1_545 S
C197 C198 1.523 . S
C198 C182 1.368 1_545 S
C198 C194 1.368 . S
C198 C197 1.523 . S
H199 C174 0.950 . S
H200 C176 0.950 . S
H201 C177 0.949 . S
H202 C179 0.950 . S
H203 C181 0.950 . S
C204 C205 1.349 . S
C204 C206 1.327 . S
C204 H229 0.950 1_455 S
C205 C204 1.349 . S
C205 C221 1.349 . S
C206 C204 1.327 . S
C206 C225 1.429 . S
C206 H230 0.950 1_455 S
C207 C224 1.574 . S
C207 C226 1.368 . S
C207 H231 0.949 . S
H208 C212 0.949 . S
C209 C210 1.349 . S
C209 C211 1.327 . S
C209 H232 0.950 . S
C210 C209 1.349 . S
C210 C222 1.349 . S
C211 C209 1.327 . S
C211 C227 1.429 . S
C211 H233 0.950 . S
C212 H208 0.949 . S
C212 C220 1.574 . S
C212 C228 1.368 . S
H213 C221 0.950 . S
H214 C219 0.950 . S
H215 C220 0.949 1_655 S
H216 C222 0.950 . S
H217 C223 0.950 . S
H218 C224 0.949 . S
C219 H214 0.950 . S
C219 C221 1.327 . S
C219 C225 1.429 . S
C220 C212 1.574 . S
C220 H215 0.949 1_455 S
C220 C226 1.368 . S
C221 C205 1.349 . S
C221 H213 0.950 . S
C221 C219 1.327 . S
C222 C210 1.349 . S
C222 H216 0.950 . S
C222 C223 1.327 . S
C223 H217 0.950 . S
C223 C222 1.327 . S
C223 C227 1.429 . S
C224 C207 1.574 . S
C224 H218 0.949 . S
C224 C228 1.368 . S
C225 C206 1.429 . S
C225 C219 1.429 . S
C225 C226 1.523 . S
C226 C207 1.368 . S
C226 C220 1.368 . S
C226 C225 1.523 . S
C227 C211 1.429 . S
C227 C223 1.429 . S
C227 C228 1.523 . S
C228 C212 1.368 . S
C228 C224 1.368 . S
C228 C227 1.523 . S
H229 C204 0.950 1_655 S
H230 C206 0.950 1_655 S
H231 C207 0.949 . S
H232 C209 0.950 . S
H233 C211 0.950 . S
C234 C235 1.349 1_565 S
C234 C236 1.327 . S
C234 H259 0.950 . S
C235 C234 1.349 1_545 S
C235 C251 1.349 . S
C236 C234 1.327 . S
C236 C255 1.429 1_565 S
C236 H260 0.950 . S
C237 C254 1.574 . S
C237 C256 1.368 . S
C237 H261 0.949 . S
H238 C242 0.949 . S
C239 C240 1.349 . S
C239 C241 1.327 . S
C239 H262 0.950 . S
C240 C239 1.349 . S
C240 C252 1.349 1_545 S
C241 C239 1.327 . S
C241 C257 1.429 . S
C241 H263 0.950 . S
C242 H238 0.949 . S
C242 C250 1.574 . S
C242 C258 1.368 1_565 S
H243 C251 0.950 . S
H244 C249 0.950 . S
H245 C250 0.949 . S
H246 C252 0.950 . S
H247 C253 0.950 . S
H248 C254 0.949 . S
C249 H244 0.950 . S
C249 C251 1.327 . S
C249 C255 1.429 . S
C250 C242 1.574 . S
C250 H245 0.949 . S
C250 C256 1.368 1_565 S
C251 C235 1.349 . S
C251 H243 0.950 . S
C251 C249 1.327 . S
C252 C240 1.349 1_565 S
C252 H246 0.950 . S
C252 C253 1.327 . S
C253 H247 0.950 . S
C253 C252 1.327 . S
C253 C257 1.429 1_565 S
C254 C237 1.574 . S
C254 H248 0.949 . S
C254 C258 1.368 . S
C255 C236 1.429 1_545 S
C255 C249 1.429 . S
C255 C256 1.523 . S
C256 C237 1.368 . S
C256 C250 1.368 1_545 S
C256 C255 1.523 . S
C257 C241 1.429 . S
C257 C253 1.429 1_545 S
C257 C258 1.523 . S
C258 C242 1.368 1_545 S
C258 C254 1.368 . S
C258 C257 1.523 . S
H259 C234 0.950 . S
H260 C236 0.950 . S
H261 C237 0.949 . S
H262 C239 0.950 . S
H263 C241 0.950 . S
C264 C265 1.349 . S
C264 C266 1.327 . S
C264 H289 0.950 . S
C265 C264 1.349 . S
C265 C281 1.349 . S
C266 C264 1.327 . S
C266 C285 1.429 . S
C266 H290 0.950 . S
C267 C284 1.574 . S
C267 C286 1.368 . S
C267 H291 0.949 . S
H268 C272 0.949 . S
C269 C270 1.349 . S
C269 C271 1.327 . S
C269 H292 0.950 . S
C270 C269 1.349 . S
C270 C282 1.349 . S
C271 C269 1.327 . S
C271 C287 1.429 . S
C271 H293 0.950 . S
C272 H268 0.949 . S
C272 C280 1.574 . S
C272 C288 1.368 . S
H273 C281 0.950 . S
H274 C279 0.950 . S
H275 C280 0.949 . S
H276 C282 0.950 . S
H277 C283 0.950 . S
H278 C284 0.949 . S
C279 H274 0.950 . S
C279 C281 1.327 . S
C279 C285 1.429 . S
C280 C272 1.574 . S
C280 H275 0.949 . S
C280 C286 1.368 . S
C281 C265 1.349 . S
C281 H273 0.950 . S
C281 C279 1.327 . S
C282 C270 1.349 . S
C282 H276 0.950 . S
C282 C283 1.327 . S
C283 H277 0.950 . S
C283 C282 1.327 . S
C283 C287 1.429 . S
C284 C267 1.574 . S
C284 H278 0.949 . S
C284 C288 1.368 . S
C285 C266 1.429 . S
C285 C279 1.429 . S
C285 C286 1.523 . S
C286 C267 1.368 . S
C286 C280 1.368 . S
C286 C285 1.523 . S
C287 C271 1.429 . S
C287 C283 1.429 . S
C287 C288 1.523 . S
C288 C272 1.368 . S
C288 C284 1.368 . S
C288 C287 1.523 . S
H289 C264 0.950 . S
H290 C266 0.950 . S
H291 C267 0.949 . S
H292 C269 0.950 . S
H293 C271 0.950 . S
C60 C31 1.201 . S
C55 C5 1.379 . S
C90 C51 1.432 . S
C85 C23 1.461 . S
C120 C30 1.388 1_655 S
C115 C3 1.407 . S
C150 C52 1.487 . S
C145 C14 1.483 . S
C180 C44 1.463 . S
C175 C1 1.488 . S
C210 C37 1.357 . S
C205 C16 1.381 . S
C240 C45 1.259 . S
C235 C10 1.455 . S
C265 C18 1.403 . S
C270 C38 1.411 . S
