# Generated by pormake.
# Topology ibd, (4,6)-cn, num edge types: 1
# Building blocks:
#     Node 0, Type 0, BuildingBlock: NAHDIM_clean_sbu_0, # of connection points: 4
#     Node 1, Type 0, BuildingBlock: NAHDIM_clean_sbu_0, # of connection points: 4
#     Node 2, Type 0, BuildingBlock: NAHDIM_clean_sbu_0, # of connection points: 4
#     Node 3, Type 0, BuildingBlock: NAHDIM_clean_sbu_0, # of connection points: 4
#     Node 4, Type 0, BuildingBlock: NAHDIM_clean_sbu_0, # of connection points: 4
#     Node 5, Type 0, BuildingBlock: NAHDIM_clean_sbu_0, # of connection points: 4
#     Node 6, Type 0, BuildingBlock: NAHDIM_clean_sbu_0, # of connection points: 4
#     Node 7, Type 0, BuildingBlock: NAHDIM_clean_sbu_0, # of connection points: 4
#     Node 8, Type 0, BuildingBlock: NAHDIM_clean_sbu_0, # of connection points: 4
#     Node 9, Type 0, BuildingBlock: NAHDIM_clean_sbu_0, # of connection points: 4
#     Node 10, Type 0, BuildingBlock: NAHDIM_clean_sbu_0, # of connection points: 4
#     Node 11, Type 0, BuildingBlock: NAHDIM_clean_sbu_0, # of connection points: 4
#     Node 12, Type 0, BuildingBlock: NAHDIM_clean_sbu_0, # of connection points: 4
#     Node 13, Type 0, BuildingBlock: NAHDIM_clean_sbu_0, # of connection points: 4
#     Node 14, Type 0, BuildingBlock: NAHDIM_clean_sbu_0, # of connection points: 4
#     Node 15, Type 0, BuildingBlock: NAHDIM_clean_sbu_0, # of connection points: 4
#     Node 16, Type 0, BuildingBlock: NAHDIM_clean_sbu_0, # of connection points: 4
#     Node 17, Type 0, BuildingBlock: NAHDIM_clean_sbu_0, # of connection points: 4
#     Node 18, Type 0, BuildingBlock: NAHDIM_clean_sbu_0, # of connection points: 4
#     Node 19, Type 0, BuildingBlock: NAHDIM_clean_sbu_0, # of connection points: 4
#     Node 20, Type 0, BuildingBlock: NAHDIM_clean_sbu_0, # of connection points: 4
#     Node 21, Type 0, BuildingBlock: NAHDIM_clean_sbu_0, # of connection points: 4
#     Node 22, Type 0, BuildingBlock: NAHDIM_clean_sbu_0, # of connection points: 4
#     Node 23, Type 0, BuildingBlock: NAHDIM_clean_sbu_0, # of connection points: 4
#     Node 24, Type 1, BuildingBlock: OJICUG_clean_sbu_0, # of connection points: 6
#     Node 25, Type 1, BuildingBlock: OJICUG_clean_sbu_0, # of connection points: 6
#     Node 26, Type 1, BuildingBlock: OJICUG_clean_sbu_0, # of connection points: 6
#     Node 27, Type 1, BuildingBlock: OJICUG_clean_sbu_0, # of connection points: 6
#     Node 28, Type 1, BuildingBlock: OJICUG_clean_sbu_0, # of connection points: 6
#     Node 29, Type 1, BuildingBlock: OJICUG_clean_sbu_0, # of connection points: 6
#     Node 30, Type 1, BuildingBlock: OJICUG_clean_sbu_0, # of connection points: 6
#     Node 31, Type 1, BuildingBlock: OJICUG_clean_sbu_0, # of connection points: 6
#     Node 32, Type 1, BuildingBlock: OJICUG_clean_sbu_0, # of connection points: 6
#     Node 33, Type 1, BuildingBlock: OJICUG_clean_sbu_0, # of connection points: 6
#     Node 34, Type 1, BuildingBlock: OJICUG_clean_sbu_0, # of connection points: 6
#     Node 35, Type 1, BuildingBlock: OJICUG_clean_sbu_0, # of connection points: 6
#     Node 36, Type 1, BuildingBlock: OJICUG_clean_sbu_0, # of connection points: 6
#     Node 37, Type 1, BuildingBlock: OJICUG_clean_sbu_0, # of connection points: 6
#     Node 38, Type 1, BuildingBlock: OJICUG_clean_sbu_0, # of connection points: 6
#     Node 39, Type 1, BuildingBlock: OJICUG_clean_sbu_0, # of connection points: 6
#     Edge 40, Type (0, 1), None
#     Edge 41, Type (0, 1), None
#     Edge 42, Type (0, 1), None
#     Edge 43, Type (0, 1), None
#     Edge 44, Type (0, 1), None
#     Edge 45, Type (0, 1), None
#     Edge 46, Type (0, 1), None
#     Edge 47, Type (0, 1), None
#     Edge 48, Type (0, 1), None
#     Edge 49, Type (0, 1), None
#     Edge 50, Type (0, 1), None
#     Edge 51, Type (0, 1), None
#     Edge 52, Type (0, 1), None
#     Edge 53, Type (0, 1), None
#     Edge 54, Type (0, 1), None
#     Edge 55, Type (0, 1), None
#     Edge 56, Type (0, 1), None
#     Edge 57, Type (0, 1), None
#     Edge 58, Type (0, 1), None
#     Edge 59, Type (0, 1), None
#     Edge 60, Type (0, 1), None
#     Edge 61, Type (0, 1), None
#     Edge 62, Type (0, 1), None
#     Edge 63, Type (0, 1), None
#     Edge 64, Type (0, 1), None
#     Edge 65, Type (0, 1), None
#     Edge 66, Type (0, 1), None
#     Edge 67, Type (0, 1), None
#     Edge 68, Type (0, 1), None
#     Edge 69, Type (0, 1), None
#     Edge 70, Type (0, 1), None
#     Edge 71, Type (0, 1), None
#     Edge 72, Type (0, 1), None
#     Edge 73, Type (0, 1), None
#     Edge 74, Type (0, 1), None
#     Edge 75, Type (0, 1), None
#     Edge 76, Type (0, 1), None
#     Edge 77, Type (0, 1), None
#     Edge 78, Type (0, 1), None
#     Edge 79, Type (0, 1), None
#     Edge 80, Type (0, 1), None
#     Edge 81, Type (0, 1), None
#     Edge 82, Type (0, 1), None
#     Edge 83, Type (0, 1), None
#     Edge 84, Type (0, 1), None
#     Edge 85, Type (0, 1), None
#     Edge 86, Type (0, 1), None
#     Edge 87, Type (0, 1), None
#     Edge 88, Type (0, 1), None
#     Edge 89, Type (0, 1), None
#     Edge 90, Type (0, 1), None
#     Edge 91, Type (0, 1), None
#     Edge 92, Type (0, 1), None
#     Edge 93, Type (0, 1), None
#     Edge 94, Type (0, 1), None
#     Edge 95, Type (0, 1), None
#     Edge 96, Type (0, 1), None
#     Edge 97, Type (0, 1), None
#     Edge 98, Type (0, 1), None
#     Edge 99, Type (0, 1), None
#     Edge 100, Type (0, 1), None
#     Edge 101, Type (0, 1), None
#     Edge 102, Type (0, 1), None
#     Edge 103, Type (0, 1), None
#     Edge 104, Type (0, 1), None
#     Edge 105, Type (0, 1), None
#     Edge 106, Type (0, 1), None
#     Edge 107, Type (0, 1), None
#     Edge 108, Type (0, 1), None
#     Edge 109, Type (0, 1), None
#     Edge 110, Type (0, 1), None
#     Edge 111, Type (0, 1), None
#     Edge 112, Type (0, 1), None
#     Edge 113, Type (0, 1), None
#     Edge 114, Type (0, 1), None
#     Edge 115, Type (0, 1), None
#     Edge 116, Type (0, 1), None
#     Edge 117, Type (0, 1), None
#     Edge 118, Type (0, 1), None
#     Edge 119, Type (0, 1), None
#     Edge 120, Type (0, 1), None
#     Edge 121, Type (0, 1), None
#     Edge 122, Type (0, 1), None
#     Edge 123, Type (0, 1), None
#     Edge 124, Type (0, 1), None
#     Edge 125, Type (0, 1), None
#     Edge 126, Type (0, 1), None
#     Edge 127, Type (0, 1), None
#     Edge 128, Type (0, 1), None
#     Edge 129, Type (0, 1), None
#     Edge 130, Type (0, 1), None
#     Edge 131, Type (0, 1), None
#     Edge 132, Type (0, 1), None
#     Edge 133, Type (0, 1), None
#     Edge 134, Type (0, 1), None
#     Edge 135, Type (0, 1), None
# Relax obj value: 0.383
# Max RMSD: 0.300
# Mean RMSD: 0.288
data_MOF--net-ibd--node1-NAHDIM_clean_sbu_0--node2-OJICUG_clean_sbu_0--edge1-none
_symmetry_space_group_name_H-M    P1
_symmetry_Int_Tables_number       1
_symmetry_cell_setting            triclinic
loop_
_symmetry_equiv_pos_as_xyz
'x, y, z'
_cell_length_a     23.58503
_cell_length_b     23.660459
_cell_length_c     23.996251
_cell_angle_alpha  91.323326
_cell_angle_beta   91.112923
_cell_angle_gamma 94.185894
loop_
_atom_site_label
_atom_site_type_symbol
_atom_site_fract_x
_atom_site_fract_y
_atom_site_fract_z
_atom_type_partial_charge
C0 C 0.09007 0.16286 0.28017 0.0
O1 O 0.11121 0.21523 0.28867 0.0
O2 O 0.06528 0.26257 0.38711 0.0
Zn3 Zn 0.00713 0.20968 0.3446 0.0
O4 O 0.96539 0.24825 0.28378 0.0
C5 C 0.97258 0.17494 0.44964 0.0
O6 O 0.02808 0.17927 0.45677 0.0
O7 O 0.04551 0.14635 0.30597 0.0
C8 C 0.92432 0.28021 0.28503 0.0
O9 O 0.90317 0.2958 0.33274 0.0
C10 C 0.05345 0.31129 0.40466 0.0
O11 O 0.00827 0.33304 0.38403 0.0
O12 O 0.95123 0.18155 0.40147 0.0
C13 C 0.10833 0.67204 0.66804 0.0
O14 O 0.14006 0.66302 0.6248 0.0
O15 O 0.97241 0.68126 0.55403 0.0
Zn16 Zn 0.01465 0.73674 0.60815 0.0
O17 O 0.96245 0.77388 0.66132 0.0
C18 C 0.03132 0.80704 0.51731 0.0
O19 O 0.97599 0.79559 0.5167 0.0
O20 O 0.06312 0.69759 0.66276 0.0
C21 C 0.91753 0.80008 0.66548 0.0
O22 O 0.88923 0.8139 0.62074 0.0
C23 C 0.91903 0.66973 0.54944 0.0
O24 O 0.88553 0.68793 0.58795 0.0
O25 O 0.06052 0.79083 0.55837 0.0
C26 C 0.57729 0.67945 0.78102 0.0
O27 O 0.58264 0.73503 0.78507 0.0
O28 O 0.54293 0.76175 0.89415 0.0
Zn29 Zn 0.4913 0.7074 0.84805 0.0
O30 O 0.45316 0.74488 0.78462 0.0
C31 C 0.4147 0.70728 0.93507 0.0
O32 O 0.42634 0.76143 0.92787 0.0
O33 O 0.54024 0.65275 0.81027 0.0
C34 C 0.4175 0.78242 0.78211 0.0
O35 O 0.39683 0.8038 0.82767 0.0
C36 C 0.5382 0.81413 0.90386 0.0
O37 O 0.50029 0.8409 0.87629 0.0
O38 O 0.43624 0.6715 0.90284 0.0
C39 C 0.59255 0.18034 0.16969 0.0
O40 O 0.58933 0.1478 0.1245 0.0
O41 O 0.48545 0.18755 0.06185 0.0
Zn42 Zn 0.51778 0.25309 0.11133 0.0
O43 O 0.45904 0.28313 0.16325 0.0
C44 C 0.53361 0.31018 0.011 0.0
O45 O 0.47987 0.29131 0.00725 0.0
O46 O 0.57054 0.2274 0.16942 0.0
C47 C 0.40972 0.30062 0.16881 0.0
O48 O 0.37744 0.30842 0.12484 0.0
C49 C 0.43339 0.16965 0.05906 0.0
O50 O 0.39871 0.1876 0.09643 0.0
O51 O 0.5601 0.30618 0.05733 0.0
C52 C 0.04369 0.61746 0.03065 0.0
O53 O 0.03505 0.57721 0.06696 0.0
O54 O 0.04185 0.75407 0.15127 0.0
Zn55 Zn -0.01286 0.71215 0.0964 0.0
O56 O 0.95024 0.76495 0.04453 0.0
C57 C 0.91686 0.69272 0.18719 0.0
O58 O 0.92808 0.74792 0.18879 0.0
O59 O 0.02807 0.66684 0.04032 0.0
C60 C 0.92578 0.81078 0.04035 0.0
O61 O 0.91373 0.84036 0.08499 0.0
C62 C 0.05502 0.80704 0.15578 0.0
O63 O 0.0392 0.84078 0.11662 0.0
O64 O 0.93313 0.66446 0.14535 0.0
C65 C 0.56108 0.63808 0.42626 0.0
O66 O 0.50735 0.62034 0.41952 0.0
O67 O 0.45877 0.66883 0.32377 0.0
Zn68 Zn 0.5177 0.72322 0.36315 0.0
O69 O 0.48346 0.76662 0.42531 0.0
C70 C 0.54898 0.75574 0.25638 0.0
O71 O 0.54126 0.7005 0.24919 0.0
O72 O 0.57974 0.68108 0.39947 0.0
C73 C 0.45531 0.81039 0.42504 0.0
O74 O 0.44282 0.83445 0.37802 0.0
C75 C 0.41427 0.68866 0.30375 0.0
O76 O 0.4021 0.7395 0.31992 0.0
O77 O 0.54612 0.77744 0.30503 0.0
C78 C 0.54242 0.13365 0.53642 0.0
O79 O 0.57195 0.12818 0.58265 0.0
O80 O 0.54078 0.24262 0.64706 0.0
Zn81 Zn 0.47414 0.21152 0.59869 0.0
O82 O 0.44104 0.27207 0.55213 0.0
C83 C 0.41849 0.19462 0.69923 0.0
O84 O 0.4364 0.24849 0.70274 0.0
O85 O 0.49915 0.16214 0.5371 0.0
C86 C 0.42017 0.31958 0.54578 0.0
O87 O 0.40937 0.35151 0.58923 0.0
C88 C 0.55735 0.29481 0.65058 0.0
O89 O 0.53749 0.32949 0.61444 0.0
O90 O 0.42283 0.16797 0.65299 0.0
C91 C 0.04475 0.15391 0.92564 0.0
O92 O -0.011 0.14839 0.92184 0.0
O93 O 0.96288 0.18684 0.81228 0.0
Zn94 Zn 0.01601 0.23927 0.85861 0.0
O95 O 0.97764 0.27701 0.92184 0.0
C96 C 0.01512 0.31597 0.77181 0.0
O97 O 0.96083 0.3044 0.77934 0.0
O98 O 0.07135 0.19117 0.8966 0.0
C99 C 0.9387 0.31111 0.92511 0.0
O100 O 0.91522 0.33034 0.88002 0.0
C101 C 0.91041 0.19061 0.80166 0.0
O102 O 0.88235 0.2282 0.82839 0.0
O103 O 0.05112 0.29455 0.8038 0.0
C104 C 0.40266 0.91429 0.13707 0.0
O105 O 0.37755 0.89047 0.17978 0.0
O106 O 0.29073 0.96577 0.22331 0.0
Zn107 Zn 0.36229 0.00251 0.1909 0.0
O108 O 0.43114 0.00181 0.24085 0.0
C109 C 0.30629 0.10236 0.15517 0.0
O110 O 0.30253 0.15733 0.15285 0.0
O111 O 0.39064 0.96375 0.12443 0.0
C112 C 0.43787 0.03598 0.28204 0.0
O113 O 0.39547 0.06578 0.29671 0.0
C114 C 0.28805 0.94908 0.27322 0.0
O115 O 0.33432 0.95098 0.30468 0.0
O116 O 0.35091 0.08365 0.17584 0.0
C117 C 0.32147 0.04189 0.53443 0.0
O118 O 0.31883 0.04595 0.47993 0.0
O119 O 0.27281 0.17055 0.46492 0.0
Zn120 Zn 0.23556 0.11705 0.52 0.0
O121 O 0.18164 0.05853 0.48119 0.0
C122 C 0.14387 0.17511 0.57683 0.0
O123 O 0.10697 0.13329 0.56102 0.0
O124 O 0.29195 0.07354 0.56379 0.0
C125 C 0.15721 0.06086 0.43369 0.0
O126 O 0.16162 0.10814 0.40598 0.0
C127 C 0.2963 0.17305 0.41765 0.0
O128 O 0.30452 0.12673 0.38867 0.0
O129 O 0.19651 0.17104 0.56899 0.0
C130 C 0.19467 0.90165 0.67701 0.0
O131 O 0.19269 0.90207 0.73173 0.0
O132 O 0.0634 0.9439 0.75315 0.0
Zn133 Zn 0.11656 -0.01916 0.69945 0.0
O134 O 0.17578 0.0334 0.74 0.0
C135 C 0.04906 0.06811 0.6702 0.0
O136 O 0.08058 0.09553 0.70914 0.0
O137 O 0.15883 0.92852 0.65039 0.0
C138 C 0.17443 0.0555 0.78882 0.0
O139 O 0.12807 0.04874 0.81807 0.0
C140 C 0.05928 0.92353 0.80142 0.0
O141 O 0.10456 0.91784 0.83291 0.0
O142 O 0.06152 0.01962 0.65338 0.0
C143 C 0.26584 0.81273 0.12743 0.0
O144 O 0.26788 0.8225 0.18155 0.0
O145 O 0.26882 0.92117 -0.01412 0.0
Zn146 Zn 0.22407 0.85166 0.01525 0.0
O147 O 0.23127 0.77667 -0.02532 0.0
C148 C 0.1163 0.91089 0.01368 0.0
O149 O 0.06241 0.91138 -0.00102 0.0
O150 O 0.23798 0.84495 0.09728 0.0
C151 C 0.20327 0.76987 0.92895 0.0
O152 O 0.18141 0.81387 0.90683 0.0
C153 C 0.2912 0.92557 0.93826 0.0
O154 O 0.29092 0.88079 0.90489 0.0
O155 O 0.14155 0.866 0.00508 0.0
C156 C 0.1196 0.39778 0.89764 0.0
O157 O 0.06769 0.38597 0.87805 0.0
O158 O 0.25482 0.30436 0.93086 0.0
Zn159 Zn 0.21149 0.35979 -0.02436 0.0
O160 O 0.2484 0.43924 -0.00474 0.0
C161 C 0.21495 0.2725 0.05582 0.0
O162 O 0.26896 0.27507 0.0432 0.0
O163 O 0.13889 0.36527 0.9335 0.0
C164 C 0.29169 0.44865 0.02737 0.0
O165 O 0.3162 0.40535 0.0479 0.0
C166 C 0.30754 0.29886 0.92544 0.0
O167 O 0.34481 0.33869 0.94497 0.0
O168 O 0.18512 0.31259 0.04128 0.0
C169 C 0.70506 0.19339 0.88129 0.0
O170 O 0.75894 0.19932 0.89693 0.0
O171 O 0.77009 0.05338 0.93068 0.0
Zn172 Zn 0.7121 0.10661 0.95564 0.0
O173 O 0.74204 0.16628 0.01235 0.0
C174 C 0.6478 0.04752 0.03887 0.0
O175 O 0.67288 0.08566 0.07343 0.0
O176 O 0.67562 0.1491 0.89493 0.0
C177 C 0.78868 0.16769 0.03976 0.0
O178 O 0.82105 0.12501 0.03524 0.0
C179 C 0.81876 0.0507 0.90936 0.0
O180 O 0.84774 0.09688 0.89368 0.0
O181 O 0.65376 0.05273 -0.01308 0.0
C182 C 0.01708 0.51867 0.32683 0.0
O183 O 0.00923 0.46532 0.31004 0.0
O184 O 0.15985 0.4486 0.28719 0.0
Zn185 Zn 0.10966 0.50701 0.26139 0.0
O186 O 0.05359 0.47839 0.2013 0.0
C187 C 0.16674 0.58097 0.18505 0.0
O188 O 0.12007 0.57394 0.15429 0.0
O189 O 0.06472 0.54518 0.31881 0.0
C190 C 0.05347 0.43232 0.17321 0.0
O191 O 0.09639 0.40032 0.1784 0.0
C192 C 0.16633 0.39835 0.30194 0.0
O193 O 0.12248 0.36166 0.30715 0.0
O194 O 0.16777 0.5617 0.23358 0.0
C195 C 0.61471 0.91306 0.40951 0.0
O196 O 0.56126 0.89984 0.3955 0.0
O197 O 0.75093 0.81442 0.41873 0.0
Zn198 Zn 0.71637 0.86803 0.47197 0.0
O199 O 0.76179 0.94298 0.48938 0.0
C200 C 0.72749 0.77805 0.55027 0.0
O201 O 0.77928 0.77851 0.53113 0.0
O202 O 0.63965 0.87945 0.44044 0.0
C203 C 0.80338 0.94692 0.52405 0.0
O204 O 0.81885 0.90091 0.54784 0.0
C205 C 0.80306 0.80779 0.4109 0.0
O206 O 0.84198 0.84533 0.43171 0.0
O207 O 0.69703 0.81851 0.53836 0.0
C208 C 0.81272 0.11276 0.2986 0.0
O209 O 0.82582 0.1659 0.31358 0.0
O210 O 0.91114 0.9774 0.28621 0.0
Zn211 Zn 0.85703 0.01244 0.23415 0.0
O212 O 0.78179 0.96726 0.21709 0.0
C213 C 0.94597 0.00114 0.15454 0.0
O214 O 0.94522 0.94943 0.17334 0.0
O215 O 0.8463 0.08868 0.26674 0.0
C216 C 0.7782 0.92494 0.18328 0.0
O217 O 0.82461 0.90888 0.16028 0.0
C218 C 0.91666 0.92532 0.29438 0.0
O219 O 0.87797 0.88707 0.27444 0.0
O220 O 0.90589 0.0319 0.1673 0.0
C221 C 0.19923 0.70398 0.37928 0.0
O222 O 0.2541 0.70987 0.39078 0.0
O223 O 0.25911 0.55712 0.42697 0.0
Zn224 Zn 0.21021 0.61841 0.45433 0.0
O225 O 0.251 0.67754 0.50494 0.0
C226 C 0.17763 0.54813 0.53346 0.0
O227 O 0.23297 0.55703 0.5392 0.0
O228 O 0.17081 0.66006 0.39535 0.0
C229 C 0.29913 0.6779 0.52958 0.0
O230 O 0.33025 0.63439 0.52388 0.0
C231 C 0.30772 0.55273 0.40609 0.0
O232 O 0.33947 0.59816 0.3929 0.0
O233 O 0.15154 0.57598 0.49802 0.0
C234 C 0.32808 0.6029 0.8115 0.0
O235 O 0.34095 0.65387 0.83282 0.0
O236 O 0.42297 0.46921 0.77311 0.0
Zn237 Zn 0.36668 0.51311 0.73059 0.0
O238 O 0.28771 0.47569 0.70958 0.0
C239 C 0.45417 0.5117 0.65073 0.0
O240 O 0.45135 0.45772 0.66275 0.0
O241 O 0.36075 0.58392 0.77538 0.0
C242 C 0.27691 0.42624 0.68835 0.0
O243 O 0.31908 0.39442 0.67835 0.0
C244 C 0.42757 0.41823 0.78663 0.0
O245 O 0.38511 0.38 0.77712 0.0
O246 O 0.41405 0.54145 0.66572 0.0
C247 C 0.53636 0.02516 0.82918 0.0
O248 O 0.53116 0.97121 0.81413 0.0
O249 O 0.67646 0.96142 0.77739 0.0
Zn250 Zn 0.62219 0.01857 0.75376 0.0
O251 O 0.5618 -0.0128 0.69903 0.0
C252 C 0.67944 0.0797 0.66808 0.0
O253 O 0.64173 0.05193 0.6349 0.0
O254 O 0.58037 0.05491 0.81512 0.0
C255 C 0.561 0.94019 0.67249 0.0
O256 O 0.60464 0.90899 0.67666 0.0
C257 C 0.6783 0.91209 0.79692 0.0
O258 O 0.63147 0.88293 0.81091 0.0
O259 O 0.67431 0.07683 0.72036 0.0
C260 C 0.825 0.53378 0.03011 0.0
O261 O 0.82259 0.53367 -0.02469 0.0
O262 O 0.78398 0.66671 0.95389 0.0
Zn263 Zn 0.74773 0.61325 0.00762 0.0
O264 O 0.69524 0.55373 0.96737 0.0
C265 C 0.65895 0.67841 0.03874 0.0
O266 O 0.63077 0.64517 0.00162 0.0
O267 O 0.80056 0.57167 0.05656 0.0
C268 C 0.67214 0.55457 0.91901 0.0
O269 O 0.67769 0.60068 0.88962 0.0
C270 C 0.80331 0.67043 0.90509 0.0
O271 O 0.80835 0.62502 0.8736 0.0
O272 O 0.70851 0.66771 0.05403 0.0
C273 C 0.91524 0.45628 0.57364 0.0
O274 O 0.90469 0.45401 0.51965 0.0
O275 O 0.80518 0.45536 0.71878 0.0
Zn276 Zn 0.87511 0.4978 0.6868 0.0
O277 O 0.94947 0.49062 0.72803 0.0
C278 C 0.81798 0.60655 0.68609 0.0
O279 O 0.81861 0.66073 0.69952 0.0
O280 O 0.88212 0.48253 0.60456 0.0
C281 C 0.95549 0.51979 0.77315 0.0
O282 O 0.91108 0.54263 0.7938 0.0
C283 C 0.80152 0.43465 0.76718 0.0
O284 O 0.84716 0.43466 0.79935 0.0
O285 O 0.86239 0.58067 0.69513 0.0
C286 C 0.81232 0.32153 0.56698 0.0
O287 O 0.83576 0.3459 0.52367 0.0
O288 O 0.75991 0.4343 0.48221 0.0
Zn289 Zn 0.72355 0.36265 0.51446 0.0
O290 O 0.7241 0.29438 0.46399 0.0
C291 C 0.62264 0.41847 0.54823 0.0
O292 O 0.56741 0.42171 0.55063 0.0
O293 O 0.76295 0.3339 0.5803 0.0
C294 C 0.68835 0.28727 0.42416 0.0
O295 O 0.65749 0.32917 0.4108 0.0
C296 C 0.77442 0.43742 0.43157 0.0
O297 O 0.77077 0.39162 0.39944 0.0
O298 O 0.64193 0.37333 0.52953 0.0
C299 C 0.68555 0.40849 0.18119 0.0
O300 O 0.68467 0.4168 0.23549 0.0
O301 O 0.55056 0.45149 0.25053 0.0
Zn302 Zn 0.60225 0.48724 0.19316 0.0
O303 O 0.66051 0.5442 0.2286 0.0
C304 C 0.54111 0.57517 0.13616 0.0
O305 O 0.58473 0.61114 0.14884 0.0
O306 O 0.64856 0.43085 0.15117 0.0
C307 C 0.65968 0.56838 0.27641 0.0
O308 O 0.61377 0.56226 0.30638 0.0
C309 C 0.54789 0.42957 0.29836 0.0
O310 O 0.59434 0.42174 0.32734 0.0
O311 O 0.5444 0.52277 0.14495 0.0
Sc312 Sc 0.07097 0.14445 0.10111 0.0
Sc313 Sc 0.13063 0.02722 0.15406 0.0
Sc314 Sc 0.18317 0.08988 0.03459 0.0
O315 O 0.12757 0.08708 0.09655 0.0
C316 C 0.07262 0.13118 -0.02566 0.0
C317 C 0.0005 0.02838 0.1364 0.0
C318 C 0.14522 0.96257 0.03867 0.0
C319 C 0.10042 0.13546 0.2265 0.0
C320 C 0.18625 0.21666 0.06733 0.0
C321 C 0.25683 0.06475 0.13816 0.0
O322 O 0.04274 0.12472 0.0174 0.0
O323 O 0.04338 -0.00136 0.13796 0.0
O324 O 0.14818 0.00678 0.00936 0.0
O325 O 0.09735 0.16678 0.18451 0.0
O326 O 0.2152 0.17366 0.06067 0.0
O327 O 0.21669 0.05903 0.17238 0.0
O328 O 0.13236 0.21231 0.07397 0.0
O329 O 0.10438 0.08213 0.22233 0.0
O330 O 0.24809 0.05502 0.08625 0.0
O331 O 0.00484 0.08204 0.1295 0.0
O332 O 0.12615 0.12727 -0.02467 0.0
O333 O 0.1545 0.96448 0.0914 0.0
Sc334 Sc 0.16781 0.88144 0.40336 0.0
Sc335 Sc 0.0526 0.808 0.33595 0.0
Sc336 Sc 0.10143 0.94069 0.29012 0.0
O337 O 0.10732 0.87685 0.34324 0.0
C338 C 0.13882 0.00691 0.40505 0.0
C339 C 0.05864 0.82505 0.4653 0.0
C340 C 0.97363 0.90888 0.30952 0.0
C341 C 0.16927 0.75464 0.36815 0.0
C342 C 0.23258 0.93328 0.29724 0.0
C343 C 0.07218 0.83042 0.21129 0.0
O344 O 0.14401 0.9622 0.43231 0.0
O345 O 0.02839 0.81791 0.42091 0.0
O346 O 0.0141 0.94764 0.31141 0.0
O347 O 0.19687 0.80192 0.37751 0.0
O348 O 0.18829 0.93599 0.26659 0.0
O349 O 0.07415 0.79547 0.25059 0.0
O350 O 0.23092 0.92084 0.34867 0.0
O351 O 0.11565 0.74983 0.35959 0.0
O352 O 0.07478 0.88395 0.21987 0.0
O353 O 0.11146 0.84141 0.46522 0.0
O354 O 0.1282 0.00616 0.35272 0.0
O355 O -0.01812 0.85635 0.31101 0.0
Sc356 Sc 0.4352 0.8029 0.60298 0.0
Sc357 Sc 0.31861 0.86102 0.54119 0.0
Sc358 Sc 0.37698 0.91929 0.66467 0.0
O359 O 0.37722 0.86103 0.60269 0.0
C360 C 0.40777 0.80803 0.72842 0.0
C361 C 0.32377 0.73172 0.55377 0.0
C362 C 0.24821 0.88939 0.6507 0.0
C363 C 0.43085 0.82821 0.47736 0.0
C364 C 0.50638 0.91559 0.6497 0.0
C365 C 0.34147 -0.01016 0.55789 0.0
O366 O 0.41245 0.7774 0.68482 0.0
O367 O 0.29302 0.77365 0.55294 0.0
O368 O 0.29156 0.89268 0.68281 0.0
O369 O 0.46127 0.82404 0.52116 0.0
O370 O 0.46424 0.9463 0.65086 0.0
O371 O 0.34206 0.94766 0.52453 0.0
O372 O 0.50139 0.86257 0.63822 0.0
O373 O 0.37818 0.83681 0.47811 0.0
O374 O 0.34786 -0.01446 0.61056 0.0
O375 O 0.37648 0.73635 0.56702 0.0
O376 O 0.40236 0.86109 0.72735 0.0
O377 O 0.25151 0.88545 0.59762 0.0
Sc378 Sc 0.35583 0.05193 0.81154 0.0
Sc379 Sc 0.42877 0.16698 0.8805 0.0
Sc380 Sc 0.2981 0.11284 0.92919 0.0
O381 O 0.36091 0.1104 0.87377 0.0
C382 C 0.22879 0.07535 0.81596 0.0
C383 C 0.40554 0.16455 0.75118 0.0
C384 C 0.32551 0.24202 0.9115 0.0
C385 C 0.48491 0.05346 0.8423 0.0
C386 C 0.30851 -0.01783 0.91724 0.0
C387 C 0.41019 0.14669 0.00523 0.0
O388 O 0.27281 0.07278 0.78688 0.0
O389 O 0.41617 0.19263 0.79645 0.0
O390 O 0.28785 0.20043 0.91075 0.0
O391 O 0.43798 0.02538 0.83202 0.0
O392 O 0.30541 0.02525 0.9497 0.0
O393 O 0.4445 0.14504 0.96517 0.0
O394 O 0.32093 -0.01393 0.86584 0.0
O395 O 0.48864 0.1064 0.85409 0.0
O396 O 0.35635 0.14082 -0.00211 0.0
O397 O 0.3898 0.11171 0.74973 0.0
O398 O 0.23103 0.08515 0.86846 0.0
O399 O 0.37848 0.23553 0.90795 0.0
Sc400 Sc 0.67647 0.37342 0.89758 0.0
Sc401 Sc 0.56158 0.29882 0.82942 0.0
Sc402 Sc 0.61398 0.42951 0.78019 0.0
O403 O 0.6175 0.36722 0.83577 0.0
C404 C 0.65236 0.50002 0.89238 0.0
C405 C 0.56401 0.32311 0.95902 0.0
C406 C 0.48494 0.40102 0.79967 0.0
C407 C 0.67614 0.2442 0.86771 0.0
C408 C 0.7451 0.4189 0.79 0.0
C409 C 0.58054 0.31774 0.70436 0.0
O410 O 0.65565 0.45649 0.92163 0.0
O411 O 0.53635 0.3108 0.91382 0.0
O412 O 0.52626 0.43897 0.79948 0.0
O413 O 0.70354 0.29131 0.87849 0.0
O414 O 0.70143 0.42233 0.75847 0.0
O415 O 0.58286 0.28346 0.74422 0.0
O416 O 0.74205 0.40709 0.84164 0.0
O417 O 0.6233 0.2398 0.85489 0.0
O418 O 0.58579 0.37132 0.71194 0.0
O419 O 0.61663 0.34049 0.96033 0.0
O420 O 0.64186 0.49719 0.84006 0.0
O421 O 0.49198 0.34835 0.8035 0.0
Sc422 Sc 0.92563 0.29635 0.10536 0.0
Sc423 Sc 0.86921 0.41411 0.16758 0.0
Sc424 Sc 0.80511 0.35115 0.04766 0.0
O425 O 0.86641 0.35352 0.10733 0.0
C426 C 0.91475 0.32122 -0.02035 0.0
C427 C -0.00112 0.40835 0.14965 0.0
C428 C 0.83603 0.48078 0.05756 0.0
C429 C 0.90554 0.30372 0.23247 0.0
C430 C 0.81222 0.22252 0.06316 0.0
C431 C 0.73812 0.38995 0.15641 0.0
O432 O 0.94714 0.31732 0.02206 0.0
O433 O 0.95678 0.43883 0.15267 0.0
O434 O 0.82848 0.43638 0.02716 0.0
O435 O 0.90901 0.27256 0.18892 0.0
O436 O 0.78043 0.26378 0.06287 0.0
O437 O 0.78219 0.39361 0.18785 0.0
O438 O 0.86552 0.22878 0.07355 0.0
O439 O 0.895 0.35583 0.23123 0.0
O440 O 0.74 0.37932 0.10409 0.0
O441 O -0.00638 0.35571 0.13702 0.0
O442 O 0.86158 0.32629 -0.01727 0.0
O443 O 0.84419 0.47969 0.11037 0.0
Sc444 Sc 0.83982 0.55719 0.30047 0.0
Sc445 Sc 0.91798 0.66925 0.3692 0.0
Sc446 Sc 0.78434 0.62362 0.41622 0.0
O447 O 0.84739 0.61667 0.36178 0.0
C448 C 0.71466 0.58748 0.30297 0.0
C449 C 0.8995 0.66467 0.23906 0.0
C450 C 0.81836 0.75047 0.39582 0.0
C451 C 0.96727 0.55089 0.33566 0.0
C452 C 0.78985 0.49283 0.40773 0.0
C453 C 0.89534 0.65185 0.49421 0.0
O454 O 0.75868 0.58302 0.27411 0.0
O455 O 0.90982 0.69334 0.28406 0.0
O456 O 0.77872 0.71079 0.395 0.0
O457 O 0.91931 0.52581 0.32308 0.0
O458 O 0.78866 0.53684 0.43907 0.0
O459 O 0.93013 0.6485 0.45476 0.0
O460 O 0.80057 0.4947 0.35581 0.0
O461 O 0.97417 0.60388 0.34683 0.0
O462 O 0.84174 0.65007 0.48584 0.0
O463 O 0.87963 0.61298 0.23814 0.0
O464 O 0.71711 0.59731 0.35541 0.0
O465 O 0.87085 0.74126 0.39347 0.0
Sc466 Sc 0.92518 0.80267 0.85294 0.0
Sc467 Sc 0.8077 0.86019 0.91144 0.0
Sc468 Sc 0.86915 0.92015 0.79412 0.0
O469 O 0.86732 0.86105 0.85284 0.0
C470 C 0.00196 0.90547 0.81917 0.0
C471 C 0.90817 0.8269 -0.01581 0.0
C472 C 0.83601 -0.00604 0.89423 0.0
C473 C 0.82132 0.72736 0.88679 0.0
C474 C 0.90172 0.81872 0.72163 0.0
C475 C 0.73476 0.89366 0.81139 0.0
O476 O -0.00504 0.86657 0.85451 0.0
O477 O 0.87034 0.86207 -0.02167 0.0
O478 O 0.87153 -0.01147 0.85555 0.0
O479 O 0.86038 0.73382 0.85134 0.0
O480 O 0.8671 0.85714 0.72733 0.0
O481 O 0.73958 0.85812 0.84988 0.0
O482 O 0.92844 0.79901 0.76272 0.0
O483 O 0.80198 0.76864 0.9137 0.0
O484 O 0.77742 0.92124 0.79063 0.0
O485 O 0.928 0.79992 0.94319 0.0
O486 O 0.96092 0.92498 0.79214 0.0
O487 O 0.80769 0.95181 0.91494 0.0
Sc488 Sc 0.81289 0.1352 0.54643 0.0
Sc489 Sc 0.92825 0.19554 0.6271 0.0
Sc490 Sc 0.86479 0.06668 0.66243 0.0
O491 O 0.86816 0.13216 0.61109 0.0
C492 C 0.7362 0.09366 0.64749 0.0
C493 C 0.83032 0.26586 0.58059 0.0
C494 C 0.89158 0.17134 0.74616 0.0
C495 C 0.93647 0.17072 0.49838 0.0
C496 C 0.8229 0.00272 0.54838 0.0
C497 C -0.00579 0.08825 0.65505 0.0
O498 O 0.74128 0.11046 0.59758 0.0
O499 O 0.88081 0.26265 0.59745 0.0
O500 O 0.89093 0.11863 0.73504 0.0
O501 O 0.883 0.15847 0.49144 0.0
O502 O 0.83852 0.00416 0.59923 0.0
O503 O -0.01114 0.14095 0.66014 0.0
O504 O 0.81669 0.04717 0.52078 0.0
O505 O 0.96074 0.18226 0.54566 0.0
O506 O 0.95207 0.05229 0.6462 0.0
O507 O 0.79819 0.22274 0.56481 0.0
O508 O 0.77757 0.08027 0.67831 0.0
O509 O 0.89478 0.2083 0.70854 0.0
Sc510 Sc 0.63098 0.04745 0.28603 0.0
Sc511 Sc 0.67703 0.09495 0.42132 0.0
Sc512 Sc 0.56706 0.15784 0.35302 0.0
O513 O 0.62511 0.09994 0.35343 0.0
C514 C 0.60285 0.15549 0.22384 0.0
C515 C 0.76051 0.0845 0.32022 0.0
C516 C 0.67045 0.22965 0.40453 0.0
C517 C 0.64234 0.96527 0.38767 0.0
C518 C 0.49558 0.05383 0.30196 0.0
C519 C 0.56778 0.12304 0.48233 0.0
O520 O 0.632 0.11284 0.22604 0.0
O521 O 0.7489 0.09991 0.36935 0.0
O522 O 0.63017 0.22497 0.36877 0.0
O523 O 0.62667 0.97635 0.33855 0.0
O524 O 0.49994 0.09467 0.33715 0.0
O525 O 0.61019 0.09331 0.48033 0.0
O526 O 0.53819 0.03488 0.27719 0.0
O527 O 0.66726 0.00213 0.42104 0.0
O528 O 0.55099 0.15091 0.44114 0.0
O529 O 0.72413 0.05884 0.28673 0.0
O530 O 0.57505 0.1731 0.26495 0.0
O531 O 0.68881 0.18744 0.43002 0.0
Sc532 Sc 0.65996 0.86248 0.04428 0.0
Sc533 Sc 0.53014 0.79902 0.07844 0.0
Sc534 Sc 0.58957 0.91456 0.15953 0.0
O535 O 0.59345 0.85922 0.09491 0.0
C536 C 0.72255 0.90513 0.15869 0.0
C537 C 0.63839 0.73332 0.05262 0.0
C538 C 0.55346 0.79158 0.20759 0.0
C539 C 0.55642 0.83422 0.95932 0.0
C540 C 0.63279 -0.00916 0.05883 0.0
C541 C 0.4588 0.89669 0.12403 0.0
O542 O 0.72177 0.88908 0.10794 0.0
O543 O 0.58556 0.73832 0.04701 0.0
O544 O 0.56622 0.84483 0.21451 0.0
O545 O 0.60914 0.83571 0.97115 0.0
O546 O 0.61474 -0.01422 0.10839 0.0
O547 O 0.46232 0.84652 0.10655 0.0
O548 O 0.64665 0.9495 0.02812 0.0
O549 O 0.51873 0.83134 -0.00351 0.0
O550 O 0.50173 0.9286 0.14076 0.0
O551 O 0.67427 0.77561 0.06102 0.0
O552 O 0.67764 0.91149 0.18584 0.0
O553 O 0.54179 0.76733 0.16032 0.0
Sc554 Sc 0.28557 0.63896 0.05341 0.0
Sc555 Sc 0.41003 0.70233 0.11988 0.0
Sc556 Sc 0.35343 0.5705 0.16325 0.0
O557 O 0.34987 0.63679 0.11183 0.0
C558 C 0.22116 0.59399 0.15915 0.0
C559 C 0.29774 0.76646 0.10472 0.0
C560 C 0.39707 0.66994 0.2473 0.0
C561 C 0.39035 0.69015 -0.01229 0.0
C562 C 0.30605 0.50602 0.05168 0.0
C563 C 0.48404 0.59591 0.13088 0.0
O564 O 0.22134 0.61819 0.11255 0.0
O565 O 0.3463 0.76156 0.12692 0.0
O566 O 0.37451 0.6204 0.2382 0.0
O567 O 0.34429 0.65903 -0.01216 0.0
O568 O 0.33324 0.50866 0.09784 0.0
O569 O 0.47942 0.64726 0.1176 0.0
O570 O 0.28618 0.54919 0.02961 0.0
O571 O 0.41523 0.71158 0.0315 0.0
O572 O 0.44256 0.5635 0.14771 0.0
O573 O 0.27275 0.72835 0.07263 0.0
O574 O 0.26483 0.5746 0.18182 0.0
O575 O 0.41223 0.70313 0.20881 0.0
Sc576 Sc 0.14817 0.53844 0.78225 0.0
Sc577 Sc 0.18297 0.57736 0.92285 0.0
Sc578 Sc 0.08035 0.6447 0.85021 0.0
O579 O 0.13752 0.58659 0.85163 0.0
C580 C 0.11899 0.6465 0.72213 0.0
C581 C 0.27443 0.57308 0.82755 0.0
C582 C 0.18271 0.71278 0.90876 0.0
C583 C 0.15026 0.45036 0.88033 0.0
C584 C 0.01236 0.54066 0.79359 0.0
C585 C 0.07238 0.60763 -0.02197 0.0
O586 O 0.15317 0.60782 0.72571 0.0
O587 O 0.25926 0.5841 0.8768 0.0
O588 O 0.14587 0.70998 0.86912 0.0
O589 O 0.14024 0.46399 0.83051 0.0
O590 O 0.01459 0.57966 0.83124 0.0
O591 O 0.11024 0.57249 -0.02427 0.0
O592 O 0.05611 0.52537 0.76805 0.0
O593 O 0.17185 0.48518 0.9174 0.0
O594 O 0.06211 0.63985 0.93801 0.0
O595 O 0.24066 0.55063 0.78984 0.0
O596 O 0.08798 0.66009 0.76225 0.0
O597 O 0.19573 0.66954 0.93614 0.0
Sc598 Sc 0.16336 0.36177 0.55364 0.0
Sc599 Sc 0.02563 0.31301 0.58726 0.0
Sc600 Sc 0.08826 0.43821 0.65041 0.0
O601 O 0.09248 0.37082 0.59713 0.0
C602 C 0.21997 0.40985 0.66391 0.0
C603 C 0.12541 0.23276 0.58201 0.0
C604 C 0.03244 0.33914 0.71872 0.0
C605 C 0.06936 0.32559 0.46255 0.0
C606 C 0.15146 0.49583 0.55389 0.0
C607 C 0.96259 0.42535 0.59545 0.0
O608 O 0.21631 0.36999 0.62744 0.0
O609 O 0.07578 0.24101 0.59862 0.0
O610 O 0.06774 0.38221 0.71779 0.0
O611 O 0.117 0.35208 0.47472 0.0
O612 O 0.10997 0.49725 0.58654 0.0
O613 O 0.96993 0.37827 0.57148 0.0
O614 O 0.17657 0.45136 0.54234 0.0
O615 O 0.03508 0.30608 0.49877 0.0
O616 O -0.00183 0.449 0.63098 0.0
O617 O 0.15873 0.27169 0.56241 0.0
O618 O 0.17868 0.44025 0.67438 0.0
O619 O 0.00919 0.31482 0.67521 0.0
Sc620 Sc 0.58321 0.65467 0.60519 0.0
Sc621 Sc 0.63786 0.54158 0.66916 0.0
Sc622 Sc 0.69854 0.59382 0.54868 0.0
O623 O 0.63998 0.59741 0.60771 0.0
C624 C 0.58929 0.62636 0.47912 0.0
C625 C 0.51026 0.54007 0.63896 0.0
C626 C 0.66002 0.46825 0.56456 0.0
C627 C 0.59918 0.65188 0.73162 0.0
C628 C 0.6997 0.72371 0.56798 0.0
C629 C 0.76547 0.57801 0.66238 0.0
O630 O 0.5588 0.62949 0.52191 0.0
O631 O 0.55316 0.51074 0.64451 0.0
O632 O 0.6649 0.50838 0.53049 0.0
O633 O 0.60512 0.68191 0.68878 0.0
O634 O 0.72877 0.68046 0.5649 0.0
O635 O 0.72187 0.57548 0.69281 0.0
O636 O 0.64607 0.72013 0.57627 0.0
O637 O 0.60217 0.59841 0.72984 0.0
O638 O 0.76227 0.5688 0.60961 0.0
O639 O 0.515 0.59388 0.63299 0.0
O640 O 0.64264 0.62128 0.48198 0.0
O641 O 0.67124 0.47674 0.61621 0.0
Sc642 Sc 0.30128 0.36245 0.41715 0.0
Sc643 Sc 0.35697 0.41788 0.29529 0.0
Sc644 Sc 0.41823 0.30505 0.35758 0.0
O645 O 0.35901 0.36189 0.3567 0.0
C646 C 0.40388 0.33485 0.48878 0.0
C647 C 0.3243 0.49547 0.3923 0.0
C648 C 0.49132 0.40907 0.31726 0.0
C649 C 0.22426 0.38526 0.3168 0.0
C650 C 0.31626 0.22947 0.39855 0.0
C651 C 0.39216 0.31642 0.22541 0.0
O652 O 0.36632 0.37013 0.48181 0.0
O653 O 0.35917 0.48883 0.3534 0.0
O654 O 0.48661 0.3709 0.35383 0.0
O655 O 0.23182 0.35308 0.35753 0.0
O656 O 0.35416 0.23483 0.3615 0.0
O657 O 0.35518 0.35245 0.23115 0.0
O658 O 0.29795 0.27159 0.4248 0.0
O659 O 0.26478 0.41456 0.29433 0.0
O660 O 0.42005 0.29832 0.26672 0.0
O661 O 0.29751 0.45394 0.41564 0.0
O662 O 0.4231 0.30618 0.44845 0.0
O663 O 0.44876 0.4263 0.29071 0.0
loop_
_geom_bond_atom_site_label_1
_geom_bond_atom_site_label_2
_geom_bond_distance
_geom_bond_site_symmetry_2
_ccdc_geom_bond_type
C0 O1 1.160 . S
C0 O7 1.185 . S
O1 C0 1.160 . S
O2 Zn3 1.899 . S
O2 C10 1.284 . S
Zn3 O2 1.899 . S
Zn3 O4 2.032 1_455 S
Zn3 O7 2.086 . S
Zn3 O12 1.977 1_455 S
O4 Zn3 2.032 1_655 S
O4 C8 1.278 . S
C5 O6 1.203 . S
C5 O12 1.267 . S
O6 C5 1.203 . S
O7 C0 1.185 . S
O7 Zn3 2.086 . S
C8 O4 1.278 . S
C8 O9 1.211 . S
O9 C8 1.211 . S
C10 O2 1.284 . S
C10 O11 1.273 . S
O11 C10 1.273 . S
O12 Zn3 1.977 1_655 S
O12 C5 1.267 . S
C13 O14 1.160 . S
C13 O20 1.185 . S
O14 C13 1.160 . S
O15 Zn16 1.899 1_655 S
O15 C23 1.284 . S
Zn16 O15 1.899 1_455 S
Zn16 O17 2.032 1_455 S
Zn16 O20 2.086 . S
Zn16 O25 1.977 . S
O17 Zn16 2.032 1_655 S
O17 C21 1.278 . S
C18 O19 1.203 . S
C18 O25 1.267 . S
O19 C18 1.203 . S
O20 C13 1.185 . S
O20 Zn16 2.086 . S
C21 O17 1.278 . S
C21 O22 1.211 . S
O22 C21 1.211 . S
C23 O15 1.284 . S
C23 O24 1.273 . S
O24 C23 1.273 . S
O25 Zn16 1.977 . S
O25 C18 1.267 . S
C26 O27 1.160 . S
C26 O33 1.185 . S
O27 C26 1.160 . S
O28 Zn29 1.899 . S
O28 C36 1.284 . S
Zn29 O28 1.899 . S
Zn29 O30 2.032 . S
Zn29 O33 2.086 . S
Zn29 O38 1.977 . S
O30 Zn29 2.032 . S
O30 C34 1.278 . S
C31 O32 1.203 . S
C31 O38 1.267 . S
O32 C31 1.203 . S
O33 C26 1.185 . S
O33 Zn29 2.086 . S
C34 O30 1.278 . S
C34 O35 1.211 . S
O35 C34 1.211 . S
C36 O28 1.284 . S
C36 O37 1.273 . S
O37 C36 1.273 . S
O38 Zn29 1.977 . S
O38 C31 1.267 . S
C39 O40 1.160 . S
C39 O46 1.185 . S
O40 C39 1.160 . S
O41 Zn42 1.899 . S
O41 C49 1.284 . S
Zn42 O41 1.899 . S
Zn42 O43 2.032 . S
Zn42 O46 2.086 . S
Zn42 O51 1.977 . S
O43 Zn42 2.032 . S
O43 C47 1.278 . S
C44 O45 1.203 . S
C44 O51 1.267 . S
O45 C44 1.203 . S
O46 C39 1.185 . S
O46 Zn42 2.086 . S
C47 O43 1.278 . S
C47 O48 1.211 . S
O48 C47 1.211 . S
C49 O41 1.284 . S
C49 O50 1.273 . S
O50 C49 1.273 . S
O51 Zn42 1.977 . S
O51 C44 1.267 . S
C52 O53 1.160 . S
C52 O59 1.185 . S
O53 C52 1.160 . S
O54 Zn55 1.899 . S
O54 C62 1.284 . S
Zn55 O54 1.899 . S
Zn55 O56 2.032 1_455 S
Zn55 O59 2.086 . S
Zn55 O64 1.977 1_455 S
O56 Zn55 2.032 1_655 S
O56 C60 1.278 . S
C57 O58 1.203 . S
C57 O64 1.267 . S
O58 C57 1.203 . S
O59 C52 1.185 . S
O59 Zn55 2.086 . S
C60 O56 1.278 . S
C60 O61 1.211 . S
O61 C60 1.211 . S
C62 O54 1.284 . S
C62 O63 1.273 . S
O63 C62 1.273 . S
O64 Zn55 1.977 1_655 S
O64 C57 1.267 . S
C65 O66 1.160 . S
C65 O72 1.185 . S
O66 C65 1.160 . S
O67 Zn68 1.899 . S
O67 C75 1.284 . S
Zn68 O67 1.899 . S
Zn68 O69 2.032 . S
Zn68 O72 2.086 . S
Zn68 O77 1.977 . S
O69 Zn68 2.032 . S
O69 C73 1.278 . S
C70 O71 1.203 . S
C70 O77 1.267 . S
O71 C70 1.203 . S
O72 C65 1.185 . S
O72 Zn68 2.086 . S
C73 O69 1.278 . S
C73 O74 1.211 . S
O74 C73 1.211 . S
C75 O67 1.284 . S
C75 O76 1.273 . S
O76 C75 1.273 . S
O77 Zn68 1.977 . S
O77 C70 1.267 . S
C78 O79 1.160 . S
C78 O85 1.185 . S
O79 C78 1.160 . S
O80 Zn81 1.899 . S
O80 C88 1.284 . S
Zn81 O80 1.899 . S
Zn81 O82 2.032 . S
Zn81 O85 2.086 . S
Zn81 O90 1.977 . S
O82 Zn81 2.032 . S
O82 C86 1.278 . S
C83 O84 1.203 . S
C83 O90 1.267 . S
O84 C83 1.203 . S
O85 C78 1.185 . S
O85 Zn81 2.086 . S
C86 O82 1.278 . S
C86 O87 1.211 . S
O87 C86 1.211 . S
C88 O80 1.284 . S
C88 O89 1.273 . S
O89 C88 1.273 . S
O90 Zn81 1.977 . S
O90 C83 1.267 . S
C91 O92 1.160 . S
C91 O98 1.185 . S
O92 C91 1.160 . S
O93 Zn94 1.899 1_655 S
O93 C101 1.284 . S
Zn94 O93 1.899 1_455 S
Zn94 O95 2.032 1_455 S
Zn94 O98 2.086 . S
Zn94 O103 1.977 . S
O95 Zn94 2.032 1_655 S
O95 C99 1.278 . S
C96 O97 1.203 . S
C96 O103 1.267 . S
O97 C96 1.203 . S
O98 C91 1.185 . S
O98 Zn94 2.086 . S
C99 O95 1.278 . S
C99 O100 1.211 . S
O100 C99 1.211 . S
C101 O93 1.284 . S
C101 O102 1.273 . S
O102 C101 1.273 . S
O103 Zn94 1.977 . S
O103 C96 1.267 . S
C104 O105 1.160 . S
C104 O111 1.185 . S
O105 C104 1.160 . S
O106 Zn107 1.899 1_565 S
O106 C114 1.284 . S
Zn107 O106 1.899 1_545 S
Zn107 O108 2.031 . S
Zn107 O111 2.086 1_545 S
Zn107 O116 1.977 . S
O108 Zn107 2.031 . S
O108 C112 1.278 . S
C109 O110 1.203 . S
C109 O116 1.267 . S
O110 C109 1.203 . S
O111 C104 1.185 . S
O111 Zn107 2.086 1_565 S
C112 O108 1.278 . S
C112 O113 1.211 . S
O113 C112 1.211 . S
C114 O106 1.284 . S
C114 O115 1.273 . S
O115 C114 1.273 . S
O116 Zn107 1.977 . S
O116 C109 1.267 . S
C117 O118 1.160 . S
C117 O124 1.185 . S
O118 C117 1.160 . S
O119 Zn120 1.899 . S
O119 C127 1.284 . S
Zn120 O119 1.899 . S
Zn120 O121 2.032 . S
Zn120 O124 2.086 . S
Zn120 O129 1.977 . S
O121 Zn120 2.032 . S
O121 C125 1.278 . S
C122 O123 1.203 . S
C122 O129 1.267 . S
O123 C122 1.203 . S
O124 C117 1.185 . S
O124 Zn120 2.086 . S
C125 O121 1.278 . S
C125 O126 1.211 . S
O126 C125 1.211 . S
C127 O119 1.284 . S
C127 O128 1.273 . S
O128 C127 1.273 . S
O129 Zn120 1.977 . S
O129 C122 1.267 . S
C130 O131 1.160 . S
C130 O137 1.185 . S
O131 C130 1.160 . S
O132 Zn133 1.899 . S
O132 C140 1.284 . S
Zn133 O132 1.899 . S
Zn133 O134 2.032 1_565 S
Zn133 O137 2.086 . S
Zn133 O142 1.977 1_565 S
O134 Zn133 2.032 1_545 S
O134 C138 1.278 . S
C135 O136 1.203 . S
C135 O142 1.267 . S
O136 C135 1.203 . S
O137 C130 1.185 . S
O137 Zn133 2.086 . S
C138 O134 1.278 . S
C138 O139 1.211 . S
O139 C138 1.211 . S
C140 O132 1.284 . S
C140 O141 1.273 . S
O141 C140 1.273 . S
O142 Zn133 1.977 1_545 S
O142 C135 1.267 . S
C143 O144 1.160 . S
C143 O150 1.185 . S
O144 C143 1.160 . S
O145 Zn146 1.899 1_556 S
O145 C153 1.284 . S
Zn146 O145 1.899 1_554 S
Zn146 O147 2.032 1_554 S
Zn146 O150 2.086 . S
Zn146 O155 1.977 . S
O147 Zn146 2.032 1_556 S
O147 C151 1.278 . S
C148 O149 1.203 . S
C148 O155 1.267 . S
O149 C148 1.203 . S
O150 C143 1.185 . S
O150 Zn146 2.086 . S
C151 O147 1.278 . S
C151 O152 1.211 . S
O152 C151 1.211 . S
C153 O145 1.284 . S
C153 O154 1.273 . S
O154 C153 1.273 . S
O155 Zn146 1.977 . S
O155 C148 1.267 . S
C156 O157 1.160 . S
C156 O163 1.185 . S
O157 C156 1.160 . S
O158 Zn159 1.899 1_556 S
O158 C166 1.284 . S
Zn159 O158 1.899 1_554 S
Zn159 O160 2.032 . S
Zn159 O163 2.086 1_554 S
Zn159 O168 1.977 . S
O160 Zn159 2.032 . S
O160 C164 1.278 . S
C161 O162 1.203 . S
C161 O168 1.267 . S
O162 C161 1.203 . S
O163 C156 1.185 . S
O163 Zn159 2.086 1_556 S
C164 O160 1.278 . S
C164 O165 1.211 . S
O165 C164 1.211 . S
C166 O158 1.284 . S
C166 O167 1.273 . S
O167 C166 1.273 . S
O168 Zn159 1.977 . S
O168 C161 1.267 . S
C169 O170 1.160 . S
C169 O176 1.185 . S
O170 C169 1.160 . S
O171 Zn172 1.899 . S
O171 C179 1.284 . S
Zn172 O171 1.899 . S
Zn172 O173 2.032 1_556 S
Zn172 O176 2.086 . S
Zn172 O181 1.977 1_556 S
O173 Zn172 2.032 1_554 S
O173 C177 1.278 . S
C174 O175 1.203 . S
C174 O181 1.267 . S
O175 C174 1.203 . S
O176 C169 1.185 . S
O176 Zn172 2.086 . S
C177 O173 1.278 . S
C177 O178 1.211 . S
O178 C177 1.211 . S
C179 O171 1.284 . S
C179 O180 1.273 . S
O180 C179 1.273 . S
O181 Zn172 1.977 1_554 S
O181 C174 1.267 . S
C182 O183 1.160 . S
C182 O189 1.185 . S
O183 C182 1.160 . S
O184 Zn185 1.899 . S
O184 C192 1.284 . S
Zn185 O184 1.899 . S
Zn185 O186 2.032 . S
Zn185 O189 2.086 . S
Zn185 O194 1.977 . S
O186 Zn185 2.032 . S
O186 C190 1.278 . S
C187 O188 1.203 . S
C187 O194 1.267 . S
O188 C187 1.203 . S
O189 C182 1.185 . S
O189 Zn185 2.086 . S
C190 O186 1.278 . S
C190 O191 1.211 . S
O191 C190 1.211 . S
C192 O184 1.284 . S
C192 O193 1.273 . S
O193 C192 1.273 . S
O194 Zn185 1.977 . S
O194 C187 1.267 . S
C195 O196 1.160 . S
C195 O202 1.185 . S
O196 C195 1.160 . S
O197 Zn198 1.899 . S
O197 C205 1.284 . S
Zn198 O197 1.899 . S
Zn198 O199 2.032 . S
Zn198 O202 2.086 . S
Zn198 O207 1.977 . S
O199 Zn198 2.032 . S
O199 C203 1.278 . S
C200 O201 1.203 . S
C200 O207 1.267 . S
O201 C200 1.203 . S
O202 C195 1.185 . S
O202 Zn198 2.086 . S
C203 O199 1.278 . S
C203 O204 1.211 . S
O204 C203 1.211 . S
C205 O197 1.284 . S
C205 O206 1.273 . S
O206 C205 1.273 . S
O207 Zn198 1.977 . S
O207 C200 1.267 . S
C208 O209 1.160 . S
C208 O215 1.185 . S
O209 C208 1.160 . S
O210 Zn211 1.899 1_565 S
O210 C218 1.284 . S
Zn211 O210 1.899 1_545 S
Zn211 O212 2.032 1_545 S
Zn211 O215 2.086 . S
Zn211 O220 1.977 . S
O212 Zn211 2.032 1_565 S
O212 C216 1.278 . S
C213 O214 1.203 . S
C213 O220 1.267 . S
O214 C213 1.203 . S
O215 C208 1.185 . S
O215 Zn211 2.086 . S
C216 O212 1.278 . S
C216 O217 1.211 . S
O217 C216 1.211 . S
C218 O210 1.284 . S
C218 O219 1.273 . S
O219 C218 1.273 . S
O220 Zn211 1.977 . S
O220 C213 1.267 . S
C221 O222 1.160 . S
C221 O228 1.185 . S
O222 C221 1.160 . S
O223 Zn224 1.899 . S
O223 C231 1.284 . S
Zn224 O223 1.899 . S
Zn224 O225 2.032 . S
Zn224 O228 2.086 . S
Zn224 O233 1.977 . S
O225 Zn224 2.032 . S
O225 C229 1.278 . S
C226 O227 1.203 . S
C226 O233 1.267 . S
O227 C226 1.203 . S
O228 C221 1.185 . S
O228 Zn224 2.086 . S
C229 O225 1.278 . S
C229 O230 1.211 . S
O230 C229 1.211 . S
C231 O223 1.284 . S
C231 O232 1.273 . S
O232 C231 1.273 . S
O233 Zn224 1.977 . S
O233 C226 1.267 . S
C234 O235 1.160 . S
C234 O241 1.185 . S
O235 C234 1.160 . S
O236 Zn237 1.899 . S
O236 C244 1.284 . S
Zn237 O236 1.899 . S
Zn237 O238 2.032 . S
Zn237 O241 2.086 . S
Zn237 O246 1.977 . S
O238 Zn237 2.032 . S
O238 C242 1.278 . S
C239 O240 1.203 . S
C239 O246 1.267 . S
O240 C239 1.203 . S
O241 C234 1.185 . S
O241 Zn237 2.086 . S
C242 O238 1.278 . S
C242 O243 1.211 . S
O243 C242 1.211 . S
C244 O236 1.284 . S
C244 O245 1.273 . S
O245 C244 1.273 . S
O246 Zn237 1.977 . S
O246 C239 1.267 . S
C247 O248 1.160 . S
C247 O254 1.185 . S
O248 C247 1.160 . S
O249 Zn250 1.899 1_565 S
O249 C257 1.284 . S
Zn250 O249 1.899 1_545 S
Zn250 O251 2.032 1_545 S
Zn250 O254 2.086 . S
Zn250 O259 1.977 . S
O251 Zn250 2.032 1_565 S
O251 C255 1.278 . S
C252 O253 1.203 . S
C252 O259 1.267 . S
O253 C252 1.203 . S
O254 C247 1.185 . S
O254 Zn250 2.086 . S
C255 O251 1.278 . S
C255 O256 1.211 . S
O256 C255 1.211 . S
C257 O249 1.284 . S
C257 O258 1.273 . S
O258 C257 1.273 . S
O259 Zn250 1.977 . S
O259 C252 1.267 . S
C260 O261 1.160 . S
C260 O267 1.185 . S
O261 C260 1.160 . S
O262 Zn263 1.899 1_556 S
O262 C270 1.284 . S
Zn263 O262 1.899 1_554 S
Zn263 O264 2.032 1_554 S
Zn263 O267 2.086 . S
Zn263 O272 1.977 . S
O264 Zn263 2.032 1_556 S
O264 C268 1.278 . S
C265 O266 1.203 . S
C265 O272 1.267 . S
O266 C265 1.203 . S
O267 C260 1.185 . S
O267 Zn263 2.086 . S
C268 O264 1.278 . S
C268 O269 1.211 . S
O269 C268 1.211 . S
C270 O262 1.284 . S
C270 O271 1.273 . S
O271 C270 1.273 . S
O272 Zn263 1.977 . S
O272 C265 1.267 . S
C273 O274 1.160 . S
C273 O280 1.185 . S
O274 C273 1.160 . S
O275 Zn276 1.899 . S
O275 C283 1.284 . S
Zn276 O275 1.899 . S
Zn276 O277 2.032 . S
Zn276 O280 2.086 . S
Zn276 O285 1.977 . S
O277 Zn276 2.032 . S
O277 C281 1.278 . S
C278 O279 1.203 . S
C278 O285 1.267 . S
O279 C278 1.203 . S
O280 C273 1.185 . S
O280 Zn276 2.086 . S
C281 O277 1.278 . S
C281 O282 1.211 . S
O282 C281 1.211 . S
C283 O275 1.284 . S
C283 O284 1.273 . S
O284 C283 1.273 . S
O285 Zn276 1.977 . S
O285 C278 1.267 . S
C286 O287 1.160 . S
C286 O293 1.185 . S
O287 C286 1.160 . S
O288 Zn289 1.899 . S
O288 C296 1.284 . S
Zn289 O288 1.899 . S
Zn289 O290 2.032 . S
Zn289 O293 2.086 . S
Zn289 O298 1.977 . S
O290 Zn289 2.032 . S
O290 C294 1.278 . S
C291 O292 1.203 . S
C291 O298 1.267 . S
O292 C291 1.203 . S
O293 C286 1.185 . S
O293 Zn289 2.086 . S
C294 O290 1.278 . S
C294 O295 1.211 . S
O295 C294 1.211 . S
C296 O288 1.284 . S
C296 O297 1.273 . S
O297 C296 1.273 . S
O298 Zn289 1.977 . S
O298 C291 1.267 . S
C299 O300 1.160 . S
C299 O306 1.185 . S
O300 C299 1.160 . S
O301 Zn302 1.899 . S
O301 C309 1.284 . S
Zn302 O301 1.899 . S
Zn302 O303 2.032 . S
Zn302 O306 2.086 . S
Zn302 O311 1.977 . S
O303 Zn302 2.032 . S
O303 C307 1.278 . S
C304 O305 1.203 . S
C304 O311 1.267 . S
O305 C304 1.203 . S
O306 C299 1.185 . S
O306 Zn302 2.086 . S
C307 O303 1.278 . S
C307 O308 1.211 . S
O308 C307 1.211 . S
C309 O301 1.284 . S
C309 O310 1.273 . S
O310 C309 1.273 . S
O311 Zn302 1.977 . S
O311 C304 1.267 . S
Sc312 O315 2.025 . S
Sc312 O322 2.105 . S
Sc312 O325 2.105 . S
Sc312 O328 2.105 . S
Sc312 O331 2.105 . S
Sc313 O315 2.025 . S
Sc313 O323 2.105 . S
Sc313 O327 2.105 . S
Sc313 O329 2.105 . S
Sc313 O333 2.105 1_545 S
Sc314 O315 2.025 . S
Sc314 O324 2.105 . S
Sc314 O326 2.105 . S
Sc314 O330 2.105 . S
Sc314 O332 2.101 1_554 S
O315 Sc312 2.025 . S
O315 Sc313 2.025 . S
O315 Sc314 2.025 . S
C316 O322 1.268 1_556 S
C316 O332 1.268 . S
C317 O323 1.268 . S
C317 O331 1.268 . S
C318 O324 1.268 1_565 S
C318 O333 1.268 . S
C319 O325 1.268 . S
C319 O329 1.268 . S
C320 O326 1.268 . S
C320 O328 1.268 . S
C321 O327 1.268 . S
C321 O330 1.268 . S
O322 Sc312 2.105 . S
O322 C316 1.268 1_554 S
O323 Sc313 2.105 . S
O323 C317 1.268 . S
O324 Sc314 2.105 . S
O324 C318 1.268 1_545 S
O325 Sc312 2.105 . S
O325 C319 1.268 . S
O326 Sc314 2.105 . S
O326 C320 1.268 . S
O327 Sc313 2.105 . S
O327 C321 1.268 . S
O328 Sc312 2.105 . S
O328 C320 1.268 . S
O329 Sc313 2.105 . S
O329 C319 1.268 . S
O330 Sc314 2.105 . S
O330 C321 1.268 . S
O331 Sc312 2.105 . S
O331 C317 1.268 . S
O332 Sc314 2.101 1_556 S
O332 C316 1.268 . S
O333 Sc313 2.105 1_565 S
O333 C318 1.268 . S
Sc334 O337 2.025 . S
Sc334 O344 2.105 . S
Sc334 O347 2.105 . S
Sc334 O350 2.105 . S
Sc334 O353 2.105 . S
Sc335 O337 2.025 . S
Sc335 O345 2.105 . S
Sc335 O349 2.105 . S
Sc335 O351 2.105 . S
Sc335 O355 2.105 1_455 S
Sc336 O337 2.025 . S
Sc336 O346 2.105 . S
Sc336 O348 2.105 . S
Sc336 O352 2.105 . S
Sc336 O354 2.105 1_565 S
O337 Sc334 2.025 . S
O337 Sc335 2.025 . S
O337 Sc336 2.025 . S
C338 O344 1.268 1_545 S
C338 O354 1.268 . S
C339 O345 1.268 . S
C339 O353 1.268 . S
C340 O346 1.268 1_655 S
C340 O355 1.268 . S
C341 O347 1.268 . S
C341 O351 1.268 . S
C342 O348 1.268 . S
C342 O350 1.268 . S
C343 O349 1.268 . S
C343 O352 1.268 . S
O344 Sc334 2.105 . S
O344 C338 1.268 1_565 S
O345 Sc335 2.105 . S
O345 C339 1.268 . S
O346 Sc336 2.105 . S
O346 C340 1.268 1_455 S
O347 Sc334 2.105 . S
O347 C341 1.268 . S
O348 Sc336 2.105 . S
O348 C342 1.268 . S
O349 Sc335 2.105 . S
O349 C343 1.268 . S
O350 Sc334 2.105 . S
O350 C342 1.268 . S
O351 Sc335 2.105 . S
O351 C341 1.268 . S
O352 Sc336 2.105 . S
O352 C343 1.268 . S
O353 Sc334 2.105 . S
O353 C339 1.268 . S
O354 Sc336 2.105 1_545 S
O354 C338 1.268 . S
O355 Sc335 2.105 1_655 S
O355 C340 1.268 . S
Sc356 O359 2.025 . S
Sc356 O366 2.105 . S
Sc356 O369 2.105 . S
Sc356 O372 2.105 . S
Sc356 O375 2.105 . S
Sc357 O359 2.025 . S
Sc357 O367 2.105 . S
Sc357 O371 2.105 . S
Sc357 O373 2.105 . S
Sc357 O377 2.105 . S
Sc358 O359 2.025 . S
Sc358 O368 2.105 . S
Sc358 O370 2.105 . S
Sc358 O374 2.105 1_565 S
Sc358 O376 2.105 . S
O359 Sc356 2.025 . S
O359 Sc357 2.025 . S
O359 Sc358 2.025 . S
C360 O366 1.268 . S
C360 O376 1.268 . S
C361 O367 1.268 . S
C361 O375 1.268 . S
C362 O368 1.268 . S
C362 O377 1.268 . S
C363 O369 1.268 . S
C363 O373 1.268 . S
C364 O370 1.268 . S
C364 O372 1.268 . S
C365 O371 1.268 1_545 S
C365 O374 1.268 . S
O366 Sc356 2.105 . S
O366 C360 1.268 . S
O367 Sc357 2.105 . S
O367 C361 1.268 . S
O368 Sc358 2.105 . S
O368 C362 1.268 . S
O369 Sc356 2.105 . S
O369 C363 1.268 . S
O370 Sc358 2.105 . S
O370 C364 1.268 . S
O371 Sc357 2.105 . S
O371 C365 1.268 1_565 S
O372 Sc356 2.105 . S
O372 C364 1.268 . S
O373 Sc357 2.105 . S
O373 C363 1.268 . S
O374 Sc358 2.105 1_545 S
O374 C365 1.268 . S
O375 Sc356 2.105 . S
O375 C361 1.268 . S
O376 Sc358 2.105 . S
O376 C360 1.268 . S
O377 Sc357 2.105 . S
O377 C362 1.268 . S
Sc378 O381 2.025 . S
Sc378 O388 2.105 . S
Sc378 O391 2.105 . S
Sc378 O394 2.105 . S
Sc378 O397 2.105 . S
Sc379 O381 2.025 . S
Sc379 O389 2.105 . S
Sc379 O393 2.105 . S
Sc379 O395 2.105 . S
Sc379 O399 2.105 . S
Sc380 O381 2.025 . S
Sc380 O390 2.105 . S
Sc380 O392 2.105 . S
Sc380 O396 2.105 1_556 S
Sc380 O398 2.105 . S
O381 Sc378 2.025 . S
O381 Sc379 2.025 . S
O381 Sc380 2.025 . S
C382 O388 1.268 . S
C382 O398 1.268 . S
C383 O389 1.268 . S
C383 O397 1.268 . S
C384 O390 1.268 . S
C384 O399 1.268 . S
C385 O391 1.268 . S
C385 O395 1.268 . S
C386 O392 1.268 . S
C386 O394 1.268 . S
C387 O393 1.268 1_554 S
C387 O396 1.268 . S
O388 Sc378 2.105 . S
O388 C382 1.268 . S
O389 Sc379 2.105 . S
O389 C383 1.268 . S
O390 Sc380 2.105 . S
O390 C384 1.268 . S
O391 Sc378 2.105 . S
O391 C385 1.268 . S
O392 Sc380 2.105 . S
O392 C386 1.268 . S
O393 Sc379 2.105 . S
O393 C387 1.268 1_556 S
O394 Sc378 2.105 . S
O394 C386 1.268 . S
O395 Sc379 2.105 . S
O395 C385 1.268 . S
O396 Sc380 2.105 1_554 S
O396 C387 1.268 . S
O397 Sc378 2.105 . S
O397 C383 1.268 . S
O398 Sc380 2.105 . S
O398 C382 1.268 . S
O399 Sc379 2.105 . S
O399 C384 1.268 . S
Sc400 O403 2.025 . S
Sc400 O410 2.105 . S
Sc400 O413 2.105 . S
Sc400 O416 2.105 . S
Sc400 O419 2.105 1_556 S
Sc401 O403 2.025 . S
Sc401 O411 2.105 . S
Sc401 O415 2.105 . S
Sc401 O417 2.105 . S
Sc401 O421 2.105 . S
Sc402 O403 2.025 . S
Sc402 O412 2.105 . S
Sc402 O414 2.105 . S
Sc402 O418 2.105 . S
Sc402 O420 2.105 . S
O403 Sc400 2.025 . S
O403 Sc401 2.025 . S
O403 Sc402 2.025 . S
C404 O410 1.268 . S
C404 O420 1.268 . S
C405 O411 1.268 1_554 S
C405 O419 1.268 . S
C406 O412 1.268 . S
C406 O421 1.268 . S
C407 O413 1.268 . S
C407 O417 1.268 . S
C408 O414 1.268 . S
C408 O416 1.268 . S
C409 O415 1.268 . S
C409 O418 1.268 . S
O410 Sc400 2.105 . S
O410 C404 1.268 . S
O411 Sc401 2.105 . S
O411 C405 1.268 1_556 S
O412 Sc402 2.105 . S
O412 C406 1.268 . S
O413 Sc400 2.105 . S
O413 C407 1.268 . S
O414 Sc402 2.105 . S
O414 C408 1.268 . S
O415 Sc401 2.105 . S
O415 C409 1.268 . S
O416 Sc400 2.105 . S
O416 C408 1.268 . S
O417 Sc401 2.105 . S
O417 C407 1.268 . S
O418 Sc402 2.105 . S
O418 C409 1.268 . S
O419 Sc400 2.105 1_554 S
O419 C405 1.268 . S
O420 Sc402 2.105 . S
O420 C404 1.268 . S
O421 Sc401 2.105 . S
O421 C406 1.268 . S
Sc422 O425 2.025 . S
Sc422 O432 2.105 . S
Sc422 O435 2.105 . S
Sc422 O438 2.105 . S
Sc422 O441 2.105 1_655 S
Sc423 O425 2.025 . S
Sc423 O433 2.105 . S
Sc423 O437 2.105 . S
Sc423 O439 2.105 . S
Sc423 O443 2.105 . S
Sc424 O425 2.025 . S
Sc424 O434 2.105 . S
Sc424 O436 2.105 . S
Sc424 O440 2.105 . S
Sc424 O442 2.091 1_554 S
O425 Sc422 2.025 . S
O425 Sc423 2.025 . S
O425 Sc424 2.025 . S
C426 O432 1.268 1_556 S
C426 O442 1.269 . S
C427 O433 1.268 1_455 S
C427 O441 1.268 . S
C428 O434 1.268 . S
C428 O443 1.268 . S
C429 O435 1.268 . S
C429 O439 1.268 . S
C430 O436 1.268 . S
C430 O438 1.268 . S
C431 O437 1.268 . S
C431 O440 1.268 . S
O432 Sc422 2.105 . S
O432 C426 1.268 1_554 S
O433 Sc423 2.105 . S
O433 C427 1.268 1_655 S
O434 Sc424 2.105 . S
O434 C428 1.268 . S
O435 Sc422 2.105 . S
O435 C429 1.268 . S
O436 Sc424 2.105 . S
O436 C430 1.268 . S
O437 Sc423 2.105 . S
O437 C431 1.268 . S
O438 Sc422 2.105 . S
O438 C430 1.268 . S
O439 Sc423 2.105 . S
O439 C429 1.268 . S
O440 Sc424 2.105 . S
O440 C431 1.268 . S
O441 Sc422 2.105 1_455 S
O441 C427 1.268 . S
O442 Sc424 2.091 1_556 S
O442 C426 1.269 . S
O443 Sc423 2.105 . S
O443 C428 1.268 . S
Sc444 O447 2.025 . S
Sc444 O454 2.105 . S
Sc444 O457 2.105 . S
Sc444 O460 2.105 . S
Sc444 O463 2.105 . S
Sc445 O447 2.025 . S
Sc445 O455 2.105 . S
Sc445 O459 2.105 . S
Sc445 O461 2.105 1_655 S
Sc445 O465 2.105 . S
Sc446 O447 2.025 . S
Sc446 O456 2.105 . S
Sc446 O458 2.105 . S
Sc446 O462 2.105 . S
Sc446 O464 2.105 . S
O447 Sc444 2.025 . S
O447 Sc445 2.025 . S
O447 Sc446 2.025 . S
C448 O454 1.268 . S
C448 O464 1.268 . S
C449 O455 1.268 . S
C449 O463 1.268 . S
C450 O456 1.268 . S
C450 O465 1.268 . S
C451 O457 1.268 1_455 S
C451 O461 1.268 . S
C452 O458 1.268 . S
C452 O460 1.268 . S
C453 O459 1.268 . S
C453 O462 1.268 . S
O454 Sc444 2.105 . S
O454 C448 1.268 . S
O455 Sc445 2.105 . S
O455 C449 1.268 . S
O456 Sc446 2.105 . S
O456 C450 1.268 . S
O457 Sc444 2.105 . S
O457 C451 1.268 1_655 S
O458 Sc446 2.105 . S
O458 C452 1.268 . S
O459 Sc445 2.105 . S
O459 C453 1.268 . S
O460 Sc444 2.105 . S
O460 C452 1.268 . S
O461 Sc445 2.105 1_455 S
O461 C451 1.268 . S
O462 Sc446 2.105 . S
O462 C453 1.268 . S
O463 Sc444 2.105 . S
O463 C449 1.268 . S
O464 Sc446 2.105 . S
O464 C448 1.268 . S
O465 Sc445 2.105 . S
O465 C450 1.268 . S
Sc466 O469 2.025 . S
Sc466 O476 2.105 1_655 S
Sc466 O479 2.105 . S
Sc466 O482 2.105 . S
Sc466 O485 2.105 . S
Sc467 O469 2.025 . S
Sc467 O477 2.105 1_556 S
Sc467 O481 2.105 . S
Sc467 O483 2.105 . S
Sc467 O487 2.105 . S
Sc468 O469 2.025 . S
Sc468 O478 2.105 1_565 S
Sc468 O480 2.105 . S
Sc468 O484 2.105 . S
Sc468 O486 2.105 . S
O469 Sc466 2.025 . S
O469 Sc467 2.025 . S
O469 Sc468 2.025 . S
C470 O476 1.268 . S
C470 O486 1.268 1_455 S
C471 O477 1.268 . S
C471 O485 1.268 1_554 S
C472 O478 1.268 . S
C472 O487 1.268 1_545 S
C473 O479 1.268 . S
C473 O483 1.268 . S
C474 O480 1.268 . S
C474 O482 1.268 . S
C475 O481 1.268 . S
C475 O484 1.268 . S
O476 Sc466 2.105 1_455 S
O476 C470 1.268 . S
O477 Sc467 2.105 1_554 S
O477 C471 1.268 . S
O478 Sc468 2.105 1_545 S
O478 C472 1.268 . S
O479 Sc466 2.105 . S
O479 C473 1.268 . S
O480 Sc468 2.105 . S
O480 C474 1.268 . S
O481 Sc467 2.105 . S
O481 C475 1.268 . S
O482 Sc466 2.105 . S
O482 C474 1.268 . S
O483 Sc467 2.105 . S
O483 C473 1.268 . S
O484 Sc468 2.105 . S
O484 C475 1.268 . S
O485 Sc466 2.105 . S
O485 C471 1.268 1_556 S
O486 Sc468 2.105 . S
O486 C470 1.268 1_655 S
O487 Sc467 2.105 . S
O487 C472 1.268 1_565 S
Sc488 O491 2.025 . S
Sc488 O498 2.105 . S
Sc488 O501 2.105 . S
Sc488 O504 2.105 . S
Sc488 O507 2.105 . S
Sc489 O491 2.025 . S
Sc489 O499 2.105 . S
Sc489 O503 2.105 1_655 S
Sc489 O505 2.105 . S
Sc489 O509 2.105 . S
Sc490 O491 2.025 . S
Sc490 O500 2.105 . S
Sc490 O502 2.105 1_545 S
Sc490 O506 2.105 . S
Sc490 O508 2.105 . S
O491 Sc488 2.025 . S
O491 Sc489 2.025 . S
O491 Sc490 2.025 . S
C492 O498 1.268 . S
C492 O508 1.268 . S
C493 O499 1.268 . S
C493 O507 1.268 . S
C494 O500 1.268 . S
C494 O509 1.268 . S
C495 O501 1.268 . S
C495 O505 1.268 . S
C496 O502 1.268 . S
C496 O504 1.268 1_565 S
C497 O503 1.268 . S
C497 O506 1.268 1_455 S
O498 Sc488 2.105 . S
O498 C492 1.268 . S
O499 Sc489 2.105 . S
O499 C493 1.268 . S
O500 Sc490 2.105 . S
O500 C494 1.268 . S
O501 Sc488 2.105 . S
O501 C495 1.268 . S
O502 Sc490 2.105 1_565 S
O502 C496 1.268 . S
O503 Sc489 2.105 1_455 S
O503 C497 1.268 . S
O504 Sc488 2.105 . S
O504 C496 1.268 1_545 S
O505 Sc489 2.105 . S
O505 C495 1.268 . S
O506 Sc490 2.105 . S
O506 C497 1.268 1_655 S
O507 Sc488 2.105 . S
O507 C493 1.268 . S
O508 Sc490 2.105 . S
O508 C492 1.268 . S
O509 Sc489 2.105 . S
O509 C494 1.268 . S
Sc510 O513 2.025 . S
Sc510 O520 2.105 . S
Sc510 O523 2.105 . S
Sc510 O526 2.105 . S
Sc510 O529 2.105 . S
Sc511 O513 2.025 . S
Sc511 O521 2.105 . S
Sc511 O525 2.105 . S
Sc511 O527 2.105 . S
Sc511 O531 2.105 . S
Sc512 O513 2.025 . S
Sc512 O522 2.105 . S
Sc512 O524 2.105 . S
Sc512 O528 2.105 . S
Sc512 O530 2.105 . S
O513 Sc510 2.025 . S
O513 Sc511 2.025 . S
O513 Sc512 2.025 . S
C514 O520 1.268 . S
C514 O530 1.268 . S
C515 O521 1.268 . S
C515 O529 1.268 . S
C516 O522 1.268 . S
C516 O531 1.268 . S
C517 O523 1.268 . S
C517 O527 1.268 . S
C518 O524 1.268 . S
C518 O526 1.268 . S
C519 O525 1.268 . S
C519 O528 1.268 . S
O520 Sc510 2.105 . S
O520 C514 1.268 . S
O521 Sc511 2.105 . S
O521 C515 1.268 . S
O522 Sc512 2.105 . S
O522 C516 1.268 . S
O523 Sc510 2.105 . S
O523 C517 1.268 . S
O524 Sc512 2.105 . S
O524 C518 1.268 . S
O525 Sc511 2.105 . S
O525 C519 1.268 . S
O526 Sc510 2.105 . S
O526 C518 1.268 . S
O527 Sc511 2.105 . S
O527 C517 1.268 . S
O528 Sc512 2.105 . S
O528 C519 1.268 . S
O529 Sc510 2.105 . S
O529 C515 1.268 . S
O530 Sc512 2.105 . S
O530 C514 1.268 . S
O531 Sc511 2.105 . S
O531 C516 1.268 . S
Sc532 O535 2.025 . S
Sc532 O542 2.105 . S
Sc532 O545 2.105 1_554 S
Sc532 O548 2.105 . S
Sc532 O551 2.105 . S
Sc533 O535 2.025 . S
Sc533 O543 2.105 . S
Sc533 O547 2.105 . S
Sc533 O549 2.105 . S
Sc533 O553 2.105 . S
Sc534 O535 2.025 . S
Sc534 O544 2.105 . S
Sc534 O546 2.105 1_565 S
Sc534 O550 2.105 . S
Sc534 O552 2.105 . S
O535 Sc532 2.025 . S
O535 Sc533 2.025 . S
O535 Sc534 2.025 . S
C536 O542 1.268 . S
C536 O552 1.268 . S
C537 O543 1.268 . S
C537 O551 1.268 . S
C538 O544 1.268 . S
C538 O553 1.268 . S
C539 O545 1.268 . S
C539 O549 1.268 1_556 S
C540 O546 1.268 . S
C540 O548 1.268 1_545 S
C541 O547 1.268 . S
C541 O550 1.268 . S
O542 Sc532 2.105 . S
O542 C536 1.268 . S
O543 Sc533 2.105 . S
O543 C537 1.268 . S
O544 Sc534 2.105 . S
O544 C538 1.268 . S
O545 Sc532 2.105 1_556 S
O545 C539 1.268 . S
O546 Sc534 2.105 1_545 S
O546 C540 1.268 . S
O547 Sc533 2.105 . S
O547 C541 1.268 . S
O548 Sc532 2.105 . S
O548 C540 1.268 1_565 S
O549 Sc533 2.105 . S
O549 C539 1.268 1_554 S
O550 Sc534 2.105 . S
O550 C541 1.268 . S
O551 Sc532 2.105 . S
O551 C537 1.268 . S
O552 Sc534 2.105 . S
O552 C536 1.268 . S
O553 Sc533 2.105 . S
O553 C538 1.268 . S
Sc554 O557 2.025 . S
Sc554 O564 2.105 . S
Sc554 O567 2.105 . S
Sc554 O570 2.105 . S
Sc554 O573 2.105 . S
Sc555 O557 2.025 . S
Sc555 O565 2.105 . S
Sc555 O569 2.105 . S
Sc555 O571 2.105 . S
Sc555 O575 2.105 . S
Sc556 O557 2.025 . S
Sc556 O566 2.105 . S
Sc556 O568 2.105 . S
Sc556 O572 2.105 . S
Sc556 O574 2.105 . S
O557 Sc554 2.025 . S
O557 Sc555 2.025 . S
O557 Sc556 2.025 . S
C558 O564 1.268 . S
C558 O574 1.268 . S
C559 O565 1.268 . S
C559 O573 1.268 . S
C560 O566 1.268 . S
C560 O575 1.268 . S
C561 O567 1.268 1_556 S
C561 O571 1.263 1_556 S
C562 O568 1.268 . S
C562 O570 1.268 . S
C563 O569 1.268 . S
C563 O572 1.268 . S
O564 Sc554 2.105 . S
O564 C558 1.268 . S
O565 Sc555 2.105 . S
O565 C559 1.268 . S
O566 Sc556 2.105 . S
O566 C560 1.268 . S
O567 Sc554 2.105 . S
O567 C561 1.268 1_554 S
O568 Sc556 2.105 . S
O568 C562 1.268 . S
O569 Sc555 2.105 . S
O569 C563 1.268 . S
O570 Sc554 2.105 . S
O570 C562 1.268 . S
O571 Sc555 2.105 . S
O571 C561 1.263 1_554 S
O572 Sc556 2.105 . S
O572 C563 1.268 . S
O573 Sc554 2.105 . S
O573 C559 1.268 . S
O574 Sc556 2.105 . S
O574 C558 1.268 . S
O575 Sc555 2.105 . S
O575 C560 1.268 . S
Sc576 O579 2.025 . S
Sc576 O586 2.105 . S
Sc576 O589 2.105 . S
Sc576 O592 2.105 . S
Sc576 O595 2.105 . S
Sc577 O579 2.025 . S
Sc577 O587 2.105 . S
Sc577 O591 2.105 1_556 S
Sc577 O593 2.105 . S
Sc577 O597 2.105 . S
Sc578 O579 2.025 . S
Sc578 O588 2.105 . S
Sc578 O590 2.105 1_455 S
Sc578 O594 2.105 . S
Sc578 O596 2.105 . S
O579 Sc576 2.025 . S
O579 Sc577 2.025 . S
O579 Sc578 2.025 . S
C580 O586 1.268 . S
C580 O596 1.268 . S
C581 O587 1.268 . S
C581 O595 1.268 . S
C582 O588 1.268 . S
C582 O597 1.268 . S
C583 O589 1.268 . S
C583 O593 1.268 . S
C584 O590 1.268 . S
C584 O592 1.268 1_655 S
C585 O591 1.268 . S
C585 O594 1.268 1_554 S
O586 Sc576 2.105 . S
O586 C580 1.268 . S
O587 Sc577 2.105 . S
O587 C581 1.268 . S
O588 Sc578 2.105 . S
O588 C582 1.268 . S
O589 Sc576 2.105 . S
O589 C583 1.268 . S
O590 Sc578 2.105 1_655 S
O590 C584 1.268 . S
O591 Sc577 2.105 1_554 S
O591 C585 1.268 . S
O592 Sc576 2.105 . S
O592 C584 1.268 1_455 S
O593 Sc577 2.105 . S
O593 C583 1.268 . S
O594 Sc578 2.105 . S
O594 C585 1.268 1_556 S
O595 Sc576 2.105 . S
O595 C581 1.268 . S
O596 Sc578 2.105 . S
O596 C580 1.268 . S
O597 Sc577 2.105 . S
O597 C582 1.268 . S
Sc598 O601 2.025 . S
Sc598 O608 2.105 . S
Sc598 O611 2.105 . S
Sc598 O614 2.105 . S
Sc598 O617 2.105 . S
Sc599 O601 2.025 . S
Sc599 O609 2.105 . S
Sc599 O613 2.105 . S
Sc599 O615 2.105 . S
Sc599 O619 2.105 . S
Sc600 O601 2.025 . S
Sc600 O610 2.105 . S
Sc600 O612 2.105 . S
Sc600 O616 2.105 . S
Sc600 O618 2.105 . S
O601 Sc598 2.025 . S
O601 Sc599 2.025 . S
O601 Sc600 2.025 . S
C602 O608 1.268 . S
C602 O618 1.268 . S
C603 O609 1.268 . S
C603 O617 1.268 . S
C604 O610 1.268 . S
C604 O619 1.268 . S
C605 O611 1.268 . S
C605 O615 1.268 . S
C606 O612 1.268 . S
C606 O614 1.268 . S
C607 O613 1.268 . S
C607 O616 1.268 . S
O608 Sc598 2.105 . S
O608 C602 1.268 . S
O609 Sc599 2.105 . S
O609 C603 1.268 . S
O610 Sc600 2.105 . S
O610 C604 1.268 . S
O611 Sc598 2.105 . S
O611 C605 1.268 . S
O612 Sc600 2.105 . S
O612 C606 1.268 . S
O613 Sc599 2.105 . S
O613 C607 1.268 . S
O614 Sc598 2.105 . S
O614 C606 1.268 . S
O615 Sc599 2.105 . S
O615 C605 1.268 . S
O616 Sc600 2.105 . S
O616 C607 1.268 . S
O617 Sc598 2.105 . S
O617 C603 1.268 . S
O618 Sc600 2.105 . S
O618 C602 1.268 . S
O619 Sc599 2.105 . S
O619 C604 1.268 . S
Sc620 O623 2.025 . S
Sc620 O630 2.105 . S
Sc620 O633 2.105 . S
Sc620 O636 2.105 . S
Sc620 O639 2.105 . S
Sc621 O623 2.025 . S
Sc621 O631 2.105 . S
Sc621 O635 2.105 . S
Sc621 O637 2.105 . S
Sc621 O641 2.105 . S
Sc622 O623 2.025 . S
Sc622 O632 2.105 . S
Sc622 O634 2.105 . S
Sc622 O638 2.105 . S
Sc622 O640 2.105 . S
O623 Sc620 2.025 . S
O623 Sc621 2.025 . S
O623 Sc622 2.025 . S
C624 O630 1.268 . S
C624 O640 1.268 . S
C625 O631 1.268 . S
C625 O639 1.268 . S
C626 O632 1.268 . S
C626 O641 1.268 . S
C627 O633 1.268 . S
C627 O637 1.268 . S
C628 O634 1.268 . S
C628 O636 1.268 . S
C629 O635 1.268 . S
C629 O638 1.268 . S
O630 Sc620 2.105 . S
O630 C624 1.268 . S
O631 Sc621 2.105 . S
O631 C625 1.268 . S
O632 Sc622 2.105 . S
O632 C626 1.268 . S
O633 Sc620 2.105 . S
O633 C627 1.268 . S
O634 Sc622 2.105 . S
O634 C628 1.268 . S
O635 Sc621 2.105 . S
O635 C629 1.268 . S
O636 Sc620 2.105 . S
O636 C628 1.268 . S
O637 Sc621 2.105 . S
O637 C627 1.268 . S
O638 Sc622 2.105 . S
O638 C629 1.268 . S
O639 Sc620 2.105 . S
O639 C625 1.268 . S
O640 Sc622 2.105 . S
O640 C624 1.268 . S
O641 Sc621 2.105 . S
O641 C626 1.268 . S
Sc642 O645 2.025 . S
Sc642 O652 2.105 . S
Sc642 O655 2.105 . S
Sc642 O658 2.105 . S
Sc642 O661 2.105 . S
Sc643 O645 2.025 . S
Sc643 O653 2.105 . S
Sc643 O657 2.105 . S
Sc643 O659 2.105 . S
Sc643 O663 2.105 . S
Sc644 O645 2.025 . S
Sc644 O654 2.105 . S
Sc644 O656 2.105 . S
Sc644 O660 2.105 . S
Sc644 O662 2.105 . S
O645 Sc642 2.025 . S
O645 Sc643 2.025 . S
O645 Sc644 2.025 . S
C646 O652 1.268 . S
C646 O662 1.268 . S
C647 O653 1.268 . S
C647 O661 1.268 . S
C648 O654 1.268 . S
C648 O663 1.268 . S
C649 O655 1.268 . S
C649 O659 1.268 . S
C650 O656 1.268 . S
C650 O658 1.268 . S
C651 O657 1.268 . S
C651 O660 1.268 . S
O652 Sc642 2.105 . S
O652 C646 1.268 . S
O653 Sc643 2.105 . S
O653 C647 1.268 . S
O654 Sc644 2.105 . S
O654 C648 1.268 . S
O655 Sc642 2.105 . S
O655 C649 1.268 . S
O656 Sc644 2.105 . S
O656 C650 1.268 . S
O657 Sc643 2.105 . S
O657 C651 1.268 . S
O658 Sc642 2.105 . S
O658 C650 1.268 . S
O659 Sc643 2.105 . S
O659 C649 1.268 . S
O660 Sc644 2.105 . S
O660 C651 1.268 . S
O661 Sc642 2.105 . S
O661 C647 1.268 . S
O662 Sc644 2.105 . S
O662 C646 1.268 . S
O663 Sc643 2.105 . S
O663 C648 1.268 . S
C319 C0 0.944 . S
C18 C339 1.096 . S
C360 C34 1.387 . S
C387 C49 1.217 . S
C343 C62 1.217 . S
C73 C363 1.387 . S
C383 C83 1.097 . S
C91 C316 0.944 . S
C109 C321 0.880 . S
C338 C125 1.132 . S
C362 C130 1.244 . S
C386 C153 1.301 1_545 S
C342 C114 1.301 . S
C365 C117 1.244 . S
C138 C382 1.131 . S
C318 C148 0.880 . S
C161 C320 0.886 . S
C169 C407 1.255 . S
C427 C190 1.148 . S
C450 C205 1.311 . S
C213 C317 0.885 1_655 S
C229 C361 1.147 . S
C451 C182 1.254 . S
C406 C244 1.311 . S
C474 C21 1.547 . S
C495 C5 1.234 . S
C39 C514 1.139 . S
C36 C539 1.129 . S
C101 C494 1.129 . S
C78 C519 1.139 . S
C538 C70 1.234 . S
C60 C471 1.547 . S
C257 C475 1.264 . S
C496 C203 1.289 . S
C515 C208 1.304 . S
C540 C174 1.069 . S
C492 C252 1.070 . S
C517 C195 1.304 1_545 S
C536 C216 1.289 . S
C179 C472 1.265 . S
C473 C270 1.250 . S
C143 C559 1.352 . S
C584 C281 1.270 . S
C122 C603 1.101 . S
C470 C140 1.250 . S
C516 C294 1.270 . S
C607 C273 1.352 1_455 S
C304 C563 1.101 . S
C26 C627 0.944 . S
C44 C405 1.096 . S
C429 C8 1.387 . S
C23 C453 1.217 . S
C88 C409 1.217 . S
C99 C426 1.387 . S
C449 C57 1.096 . S
C624 C65 0.943 . S
C629 C278 0.880 . S
C404 C268 1.132 . S
C431 C299 1.244 . S
C296 C452 1.302 . S
C408 C283 1.302 . S
C260 C428 1.244 . S
C448 C307 1.132 . S
C291 C626 0.880 . S
C628 C200 0.886 . S
C221 C341 1.254 . S
C364 C255 1.147 . S
C166 C384 1.311 . S
C625 C239 0.886 . S
C430 C177 1.146 . S
C385 C247 1.254 . S
C340 C218 1.311 . S
C47 C651 1.547 . S
C31 C561 1.238 . S
C13 C580 1.139 . S
C605 C10 1.129 . S
C560 C75 1.129 . S
C52 C585 1.139 . S
C604 C96 1.234 . S
C86 C646 1.547 . S
C649 C192 1.264 . S
C164 C562 1.289 . S
C234 C581 1.304 . S
C606 C226 1.070 . S
C558 C187 1.070 . S
C156 C583 1.304 . S
C602 C242 1.289 . S
C647 C231 1.264 . S
C650 C127 1.250 . S
C493 C286 1.352 . S
C112 C518 1.270 . S
C265 C537 1.101 . S
C648 C309 1.250 . S
C582 C151 1.270 . S
C541 C104 1.352 . S
C497 C135 1.100 . S
