# Generated by pormake.
# Topology gar, (4,6)-cn, num edge types: 1
# Building blocks:
#     Node 0, Type 0, BuildingBlock: CEKHIL_clean_sbu_0, # of connection points: 4
#     Node 1, Type 0, BuildingBlock: CEKHIL_clean_sbu_0, # of connection points: 4
#     Node 2, Type 0, BuildingBlock: CEKHIL_clean_sbu_0, # of connection points: 4
#     Node 3, Type 0, BuildingBlock: CEKHIL_clean_sbu_0, # of connection points: 4
#     Node 4, Type 0, BuildingBlock: CEKHIL_clean_sbu_0, # of connection points: 4
#     Node 5, Type 0, BuildingBlock: CEKHIL_clean_sbu_0, # of connection points: 4
#     Node 6, Type 0, BuildingBlock: CEKHIL_clean_sbu_0, # of connection points: 4
#     Node 7, Type 0, BuildingBlock: CEKHIL_clean_sbu_0, # of connection points: 4
#     Node 8, Type 0, BuildingBlock: CEKHIL_clean_sbu_0, # of connection points: 4
#     Node 9, Type 0, BuildingBlock: CEKHIL_clean_sbu_0, # of connection points: 4
#     Node 10, Type 0, BuildingBlock: CEKHIL_clean_sbu_0, # of connection points: 4
#     Node 11, Type 0, BuildingBlock: CEKHIL_clean_sbu_0, # of connection points: 4
#     Node 12, Type 0, BuildingBlock: CEKHIL_clean_sbu_0, # of connection points: 4
#     Node 13, Type 0, BuildingBlock: CEKHIL_clean_sbu_0, # of connection points: 4
#     Node 14, Type 0, BuildingBlock: CEKHIL_clean_sbu_0, # of connection points: 4
#     Node 15, Type 0, BuildingBlock: CEKHIL_clean_sbu_0, # of connection points: 4
#     Node 16, Type 0, BuildingBlock: CEKHIL_clean_sbu_0, # of connection points: 4
#     Node 17, Type 0, BuildingBlock: CEKHIL_clean_sbu_0, # of connection points: 4
#     Node 18, Type 0, BuildingBlock: CEKHIL_clean_sbu_0, # of connection points: 4
#     Node 19, Type 0, BuildingBlock: CEKHIL_clean_sbu_0, # of connection points: 4
#     Node 20, Type 0, BuildingBlock: CEKHIL_clean_sbu_0, # of connection points: 4
#     Node 21, Type 0, BuildingBlock: CEKHIL_clean_sbu_0, # of connection points: 4
#     Node 22, Type 0, BuildingBlock: CEKHIL_clean_sbu_0, # of connection points: 4
#     Node 23, Type 0, BuildingBlock: CEKHIL_clean_sbu_0, # of connection points: 4
#     Node 24, Type 1, BuildingBlock: BETDEL_clean_sbu_0, # of connection points: 6
#     Node 25, Type 1, BuildingBlock: BETDEL_clean_sbu_0, # of connection points: 6
#     Node 26, Type 1, BuildingBlock: BETDEL_clean_sbu_0, # of connection points: 6
#     Node 27, Type 1, BuildingBlock: BETDEL_clean_sbu_0, # of connection points: 6
#     Node 28, Type 1, BuildingBlock: BETDEL_clean_sbu_0, # of connection points: 6
#     Node 29, Type 1, BuildingBlock: BETDEL_clean_sbu_0, # of connection points: 6
#     Node 30, Type 1, BuildingBlock: BETDEL_clean_sbu_0, # of connection points: 6
#     Node 31, Type 1, BuildingBlock: BETDEL_clean_sbu_0, # of connection points: 6
#     Node 32, Type 1, BuildingBlock: BETDEL_clean_sbu_0, # of connection points: 6
#     Node 33, Type 1, BuildingBlock: BETDEL_clean_sbu_0, # of connection points: 6
#     Node 34, Type 1, BuildingBlock: BETDEL_clean_sbu_0, # of connection points: 6
#     Node 35, Type 1, BuildingBlock: BETDEL_clean_sbu_0, # of connection points: 6
#     Node 36, Type 1, BuildingBlock: BETDEL_clean_sbu_0, # of connection points: 6
#     Node 37, Type 1, BuildingBlock: BETDEL_clean_sbu_0, # of connection points: 6
#     Node 38, Type 1, BuildingBlock: BETDEL_clean_sbu_0, # of connection points: 6
#     Node 39, Type 1, BuildingBlock: BETDEL_clean_sbu_0, # of connection points: 6
#     Edge 40, Type (0, 1), BuildingBlock: AJUNOK_clean_linker_0, # of connection points: 2
#     Edge 41, Type (0, 1), BuildingBlock: AJUNOK_clean_linker_0, # of connection points: 2
#     Edge 42, Type (0, 1), BuildingBlock: AJUNOK_clean_linker_0, # of connection points: 2
#     Edge 43, Type (0, 1), BuildingBlock: AJUNOK_clean_linker_0, # of connection points: 2
#     Edge 44, Type (0, 1), BuildingBlock: AJUNOK_clean_linker_0, # of connection points: 2
#     Edge 45, Type (0, 1), BuildingBlock: AJUNOK_clean_linker_0, # of connection points: 2
#     Edge 46, Type (0, 1), BuildingBlock: AJUNOK_clean_linker_0, # of connection points: 2
#     Edge 47, Type (0, 1), BuildingBlock: AJUNOK_clean_linker_0, # of connection points: 2
#     Edge 48, Type (0, 1), BuildingBlock: AJUNOK_clean_linker_0, # of connection points: 2
#     Edge 49, Type (0, 1), BuildingBlock: AJUNOK_clean_linker_0, # of connection points: 2
#     Edge 50, Type (0, 1), BuildingBlock: AJUNOK_clean_linker_0, # of connection points: 2
#     Edge 51, Type (0, 1), BuildingBlock: AJUNOK_clean_linker_0, # of connection points: 2
#     Edge 52, Type (0, 1), BuildingBlock: AJUNOK_clean_linker_0, # of connection points: 2
#     Edge 53, Type (0, 1), BuildingBlock: AJUNOK_clean_linker_0, # of connection points: 2
#     Edge 54, Type (0, 1), BuildingBlock: AJUNOK_clean_linker_0, # of connection points: 2
#     Edge 55, Type (0, 1), BuildingBlock: AJUNOK_clean_linker_0, # of connection points: 2
#     Edge 56, Type (0, 1), BuildingBlock: AJUNOK_clean_linker_0, # of connection points: 2
#     Edge 57, Type (0, 1), BuildingBlock: AJUNOK_clean_linker_0, # of connection points: 2
#     Edge 58, Type (0, 1), BuildingBlock: AJUNOK_clean_linker_0, # of connection points: 2
#     Edge 59, Type (0, 1), BuildingBlock: AJUNOK_clean_linker_0, # of connection points: 2
#     Edge 60, Type (0, 1), BuildingBlock: AJUNOK_clean_linker_0, # of connection points: 2
#     Edge 61, Type (0, 1), BuildingBlock: AJUNOK_clean_linker_0, # of connection points: 2
#     Edge 62, Type (0, 1), BuildingBlock: AJUNOK_clean_linker_0, # of connection points: 2
#     Edge 63, Type (0, 1), BuildingBlock: AJUNOK_clean_linker_0, # of connection points: 2
#     Edge 64, Type (0, 1), BuildingBlock: AJUNOK_clean_linker_0, # of connection points: 2
#     Edge 65, Type (0, 1), BuildingBlock: AJUNOK_clean_linker_0, # of connection points: 2
#     Edge 66, Type (0, 1), BuildingBlock: AJUNOK_clean_linker_0, # of connection points: 2
#     Edge 67, Type (0, 1), BuildingBlock: AJUNOK_clean_linker_0, # of connection points: 2
#     Edge 68, Type (0, 1), BuildingBlock: AJUNOK_clean_linker_0, # of connection points: 2
#     Edge 69, Type (0, 1), BuildingBlock: AJUNOK_clean_linker_0, # of connection points: 2
#     Edge 70, Type (0, 1), BuildingBlock: AJUNOK_clean_linker_0, # of connection points: 2
#     Edge 71, Type (0, 1), BuildingBlock: AJUNOK_clean_linker_0, # of connection points: 2
#     Edge 72, Type (0, 1), BuildingBlock: AJUNOK_clean_linker_0, # of connection points: 2
#     Edge 73, Type (0, 1), BuildingBlock: AJUNOK_clean_linker_0, # of connection points: 2
#     Edge 74, Type (0, 1), BuildingBlock: AJUNOK_clean_linker_0, # of connection points: 2
#     Edge 75, Type (0, 1), BuildingBlock: AJUNOK_clean_linker_0, # of connection points: 2
#     Edge 76, Type (0, 1), BuildingBlock: AJUNOK_clean_linker_0, # of connection points: 2
#     Edge 77, Type (0, 1), BuildingBlock: AJUNOK_clean_linker_0, # of connection points: 2
#     Edge 78, Type (0, 1), BuildingBlock: AJUNOK_clean_linker_0, # of connection points: 2
#     Edge 79, Type (0, 1), BuildingBlock: AJUNOK_clean_linker_0, # of connection points: 2
#     Edge 80, Type (0, 1), BuildingBlock: AJUNOK_clean_linker_0, # of connection points: 2
#     Edge 81, Type (0, 1), BuildingBlock: AJUNOK_clean_linker_0, # of connection points: 2
#     Edge 82, Type (0, 1), BuildingBlock: AJUNOK_clean_linker_0, # of connection points: 2
#     Edge 83, Type (0, 1), BuildingBlock: AJUNOK_clean_linker_0, # of connection points: 2
#     Edge 84, Type (0, 1), BuildingBlock: AJUNOK_clean_linker_0, # of connection points: 2
#     Edge 85, Type (0, 1), BuildingBlock: AJUNOK_clean_linker_0, # of connection points: 2
#     Edge 86, Type (0, 1), BuildingBlock: AJUNOK_clean_linker_0, # of connection points: 2
#     Edge 87, Type (0, 1), BuildingBlock: AJUNOK_clean_linker_0, # of connection points: 2
#     Edge 88, Type (0, 1), BuildingBlock: AJUNOK_clean_linker_0, # of connection points: 2
#     Edge 89, Type (0, 1), BuildingBlock: AJUNOK_clean_linker_0, # of connection points: 2
#     Edge 90, Type (0, 1), BuildingBlock: AJUNOK_clean_linker_0, # of connection points: 2
#     Edge 91, Type (0, 1), BuildingBlock: AJUNOK_clean_linker_0, # of connection points: 2
#     Edge 92, Type (0, 1), BuildingBlock: AJUNOK_clean_linker_0, # of connection points: 2
#     Edge 93, Type (0, 1), BuildingBlock: AJUNOK_clean_linker_0, # of connection points: 2
#     Edge 94, Type (0, 1), BuildingBlock: AJUNOK_clean_linker_0, # of connection points: 2
#     Edge 95, Type (0, 1), BuildingBlock: AJUNOK_clean_linker_0, # of connection points: 2
#     Edge 96, Type (0, 1), BuildingBlock: AJUNOK_clean_linker_0, # of connection points: 2
#     Edge 97, Type (0, 1), BuildingBlock: AJUNOK_clean_linker_0, # of connection points: 2
#     Edge 98, Type (0, 1), BuildingBlock: AJUNOK_clean_linker_0, # of connection points: 2
#     Edge 99, Type (0, 1), BuildingBlock: AJUNOK_clean_linker_0, # of connection points: 2
#     Edge 100, Type (0, 1), BuildingBlock: AJUNOK_clean_linker_0, # of connection points: 2
#     Edge 101, Type (0, 1), BuildingBlock: AJUNOK_clean_linker_0, # of connection points: 2
#     Edge 102, Type (0, 1), BuildingBlock: AJUNOK_clean_linker_0, # of connection points: 2
#     Edge 103, Type (0, 1), BuildingBlock: AJUNOK_clean_linker_0, # of connection points: 2
#     Edge 104, Type (0, 1), BuildingBlock: AJUNOK_clean_linker_0, # of connection points: 2
#     Edge 105, Type (0, 1), BuildingBlock: AJUNOK_clean_linker_0, # of connection points: 2
#     Edge 106, Type (0, 1), BuildingBlock: AJUNOK_clean_linker_0, # of connection points: 2
#     Edge 107, Type (0, 1), BuildingBlock: AJUNOK_clean_linker_0, # of connection points: 2
#     Edge 108, Type (0, 1), BuildingBlock: AJUNOK_clean_linker_0, # of connection points: 2
#     Edge 109, Type (0, 1), BuildingBlock: AJUNOK_clean_linker_0, # of connection points: 2
#     Edge 110, Type (0, 1), BuildingBlock: AJUNOK_clean_linker_0, # of connection points: 2
#     Edge 111, Type (0, 1), BuildingBlock: AJUNOK_clean_linker_0, # of connection points: 2
#     Edge 112, Type (0, 1), BuildingBlock: AJUNOK_clean_linker_0, # of connection points: 2
#     Edge 113, Type (0, 1), BuildingBlock: AJUNOK_clean_linker_0, # of connection points: 2
#     Edge 114, Type (0, 1), BuildingBlock: AJUNOK_clean_linker_0, # of connection points: 2
#     Edge 115, Type (0, 1), BuildingBlock: AJUNOK_clean_linker_0, # of connection points: 2
#     Edge 116, Type (0, 1), BuildingBlock: AJUNOK_clean_linker_0, # of connection points: 2
#     Edge 117, Type (0, 1), BuildingBlock: AJUNOK_clean_linker_0, # of connection points: 2
#     Edge 118, Type (0, 1), BuildingBlock: AJUNOK_clean_linker_0, # of connection points: 2
#     Edge 119, Type (0, 1), BuildingBlock: AJUNOK_clean_linker_0, # of connection points: 2
#     Edge 120, Type (0, 1), BuildingBlock: AJUNOK_clean_linker_0, # of connection points: 2
#     Edge 121, Type (0, 1), BuildingBlock: AJUNOK_clean_linker_0, # of connection points: 2
#     Edge 122, Type (0, 1), BuildingBlock: AJUNOK_clean_linker_0, # of connection points: 2
#     Edge 123, Type (0, 1), BuildingBlock: AJUNOK_clean_linker_0, # of connection points: 2
#     Edge 124, Type (0, 1), BuildingBlock: AJUNOK_clean_linker_0, # of connection points: 2
#     Edge 125, Type (0, 1), BuildingBlock: AJUNOK_clean_linker_0, # of connection points: 2
#     Edge 126, Type (0, 1), BuildingBlock: AJUNOK_clean_linker_0, # of connection points: 2
#     Edge 127, Type (0, 1), BuildingBlock: AJUNOK_clean_linker_0, # of connection points: 2
#     Edge 128, Type (0, 1), BuildingBlock: AJUNOK_clean_linker_0, # of connection points: 2
#     Edge 129, Type (0, 1), BuildingBlock: AJUNOK_clean_linker_0, # of connection points: 2
#     Edge 130, Type (0, 1), BuildingBlock: AJUNOK_clean_linker_0, # of connection points: 2
#     Edge 131, Type (0, 1), BuildingBlock: AJUNOK_clean_linker_0, # of connection points: 2
#     Edge 132, Type (0, 1), BuildingBlock: AJUNOK_clean_linker_0, # of connection points: 2
#     Edge 133, Type (0, 1), BuildingBlock: AJUNOK_clean_linker_0, # of connection points: 2
#     Edge 134, Type (0, 1), BuildingBlock: AJUNOK_clean_linker_0, # of connection points: 2
#     Edge 135, Type (0, 1), BuildingBlock: AJUNOK_clean_linker_0, # of connection points: 2
# Relax obj value: 0.150
# Max RMSD: 0.279
# Mean RMSD: 0.146
data_MOF--net-gar--node1-CEKHIL_clean_sbu_0--node2-BETDEL_clean_sbu_0--edge1-AJUNOK_clean_linker_0
_symmetry_space_group_name_H-M    P1
_symmetry_Int_Tables_number       1
_symmetry_cell_setting            triclinic
loop_
_symmetry_equiv_pos_as_xyz
'x, y, z'
_cell_length_a     41.661001
_cell_length_b     38.620592
_cell_length_c     39.755907
_cell_angle_alpha  95.181399
_cell_angle_beta   92.098754
_cell_angle_gamma 100.0903
loop_
_atom_site_label
_atom_site_type_symbol
_atom_site_fract_x
_atom_site_fract_y
_atom_site_fract_z
_atom_type_partial_charge
Co0 Co 0.06718 0.29257 0.39177 0.0
O1 O 0.11318 0.28837 0.39106 0.0
O2 O 0.07833 0.27525 0.34683 0.0
C3 C 0.07469 0.34719 0.421 0.0
O4 O 0.01893 0.29507 0.38078 0.0
Co5 Co 0.03033 0.30215 0.45807 0.0
O6 O 0.99506 0.31229 0.42774 0.0
C7 C 0.05074 0.23407 0.43763 0.0
C8 C 0.10807 0.27763 0.35906 0.0
C9 C 0.9946 0.30505 0.3958 0.0
O10 O 0.05605 0.24281 0.40729 0.0
O11 O 0.04362 0.25537 0.46158 0.0
O12 O 0.07827 0.34423 0.38852 0.0
O13 O 0.06896 0.31779 0.43427 0.0
Co14 Co 1.0044 0.78294 0.62647 0.0
O15 O 0.95853 0.78781 0.62595 0.0
O16 O 0.9859 0.77553 0.67032 0.0
C17 C 0.01961 0.83257 0.59935 0.0
O18 O 0.05165 0.77725 0.6391 0.0
Co19 Co 0.04492 0.77713 0.56283 0.0
O20 O 0.08306 0.77823 0.59447 0.0
C21 C 0.99637 0.71606 0.57941 0.0
C22 C 0.95879 0.78258 0.65776 0.0
C23 C 0.0794 0.77596 0.62592 0.0
O24 O 0.99316 0.73071 0.6094 0.0
O25 O 1.01219 0.73222 0.55673 0.0
O26 O 0.01668 0.83495 0.63192 0.0
O27 O 1.01324 0.80101 0.58458 0.0
Co28 Co 0.56207 0.78991 0.89544 0.0
O29 O 0.60733 0.78303 0.89479 0.0
O30 O 0.57132 0.76712 0.85192 0.0
C31 C 0.57288 0.84668 0.91922 0.0
O32 O 0.51456 0.79458 0.88394 0.0
Co33 Co 0.52667 0.80947 0.96025 0.0
O34 O 0.49333 0.82104 0.92836 0.0
C35 C 0.54102 0.73712 0.94638 0.0
C36 C 0.6013 0.76967 0.86351 0.0
C37 C 0.49214 0.80987 0.89712 0.0
O38 O 0.54862 0.74282 0.91572 0.0
O39 O 0.5342 0.76112 0.96787 0.0
O40 O 0.5754 0.83984 0.88686 0.0
O41 O 0.56596 0.81956 0.93583 0.0
Co42 Co 0.50998 0.28454 0.12369 0.0
O43 O 0.46445 0.29044 0.12581 0.0
O44 O 0.49365 0.27771 0.16856 0.0
C45 C 0.52531 0.33387 0.09602 0.0
O46 O 0.55735 0.27756 0.13349 0.0
Co47 Co 0.54629 0.27685 0.05716 0.0
O48 O 0.58588 0.27776 0.0867 0.0
C49 C 0.49791 0.21725 0.07673 0.0
C50 C 0.46605 0.28495 0.15754 0.0
C51 C 0.5841 0.27585 0.11842 0.0
O52 O 0.49692 0.23233 0.107 0.0
O53 O 0.51263 0.23268 0.05299 0.0
O54 O 0.52364 0.33649 0.12876 0.0
O55 O 0.51717 0.30235 0.08142 0.0
Co56 Co 0.04921 0.80364 0.14896 0.0
O57 O 1.00212 0.78994 0.14119 0.0
O58 O 0.02909 0.78952 0.18984 0.0
C59 C 0.05177 0.8534 0.12114 0.0
O60 O 0.09581 0.81632 0.17031 0.0
Co61 Co 0.10088 0.81475 0.09633 0.0
O62 O 0.13429 0.83022 0.13378 0.0
C63 C 0.07187 0.74181 0.10997 0.0
C64 C 1.00115 0.78483 0.17309 0.0
C65 C 0.12588 0.82601 0.16377 0.0
O66 O 0.05584 0.75371 0.13436 0.0
O67 O 0.08923 0.76186 0.09104 0.0
O68 O 0.04395 0.85344 0.15254 0.0
O69 O 0.0579 0.82379 0.10758 0.0
Co70 Co 0.51309 0.77586 0.37903 0.0
O71 O 0.56022 0.78753 0.38575 0.0
O72 O 0.53375 0.7625 0.33812 0.0
C73 C 0.50374 0.82815 0.40379 0.0
O74 O 0.46567 0.76151 0.36013 0.0
Co75 Co 0.4647 0.77162 0.43563 0.0
O76 O 0.42951 0.76732 0.39956 0.0
C77 C 0.51121 0.72227 0.42867 0.0
C78 C 0.56152 0.77486 0.35449 0.0
C79 C 0.43609 0.76142 0.36879 0.0
O80 O 0.51438 0.72871 0.39751 0.0
O81 O 0.49485 0.7392 0.44887 0.0
O82 O 0.51123 0.82527 0.37227 0.0
O83 O 0.50307 0.80007 0.41914 0.0
Co84 Co 0.5516 0.30455 0.6511 0.0
O85 O 0.50507 0.2913 0.64007 0.0
O86 O 0.52915 0.28669 0.68938 0.0
C87 C 0.55478 0.35659 0.62758 0.0
O88 O 0.59696 0.3158 0.67522 0.0
Co89 Co 0.6069 0.32174 0.60389 0.0
O90 O 0.6369 0.33958 0.64397 0.0
C91 C 0.57682 0.24664 0.60914 0.0
C92 C 0.50217 0.2839 0.67123 0.0
C93 C 0.62681 0.33014 0.67207 0.0
O94 O 0.55923 0.25604 0.63324 0.0
O95 O 0.5957 0.26886 0.59342 0.0
O96 O 0.54569 0.35383 0.65832 0.0
O97 O 0.56254 0.32851 0.61226 0.0
Co98 Co 0.01649 0.27549 0.87836 0.0
O99 O 0.06349 0.28777 0.88467 0.0
O100 O 0.03689 0.26149 0.83749 0.0
C101 C 1.00621 0.32797 0.90167 0.0
O102 O 0.96884 0.26049 0.86024 0.0
Co103 Co 0.97005 0.27264 0.93724 0.0
O104 O 0.93503 0.26975 0.90132 0.0
C105 C 1.01504 0.22186 0.92877 0.0
C106 C 0.06467 0.27463 0.85356 0.0
C107 C 0.94005 0.26238 0.87028 0.0
O108 O 0.01833 0.22876 0.89772 0.0
O109 O 0.99937 0.23912 0.94943 0.0
O110 O 1.01404 0.32443 0.87031 0.0
O111 O 1.00674 0.3007 0.91797 0.0
Co112 Co 0.42147 0.03639 0.29446 0.0
O113 O 0.42486 0.0837 0.28063 0.0
O114 O 0.37908 0.04476 0.28175 0.0
C115 C 0.45581 0.05096 0.34051 0.0
O116 O 0.40515 0.98749 0.30721 0.0
Co117 Co 0.47512 0.99156 0.30389 0.0
O118 O 0.44183 0.95478 0.32065 0.0
C119 C 0.45244 1.00499 0.23548 0.0
C120 C 0.39317 0.0759 0.27549 0.0
C121 C 0.41239 0.95907 0.31704 0.0
O122 O 0.42791 0.01738 0.24713 0.0
O123 O 0.47472 0.99621 0.25423 0.0
O124 O 0.42569 0.05582 0.34201 0.0
O125 O 0.46421 0.0386 0.31168 0.0
Co126 Co 0.28502 0.1637 0.48708 0.0
O127 O 0.33243 0.17229 0.4943 0.0
O128 O 0.30046 0.12116 0.49786 0.0
C129 C 0.2858 0.19262 0.43877 0.0
O130 O 0.23653 0.14086 0.4807 0.0
Co131 Co 0.24092 0.21881 0.48468 0.0
O132 O 0.20281 0.17977 0.47755 0.0
C133 C 0.26633 0.20364 0.55131 0.0
C134 C 0.32994 0.13908 0.49922 0.0
C135 C 0.20767 0.14824 0.47787 0.0
O136 O 0.27959 0.17862 0.53691 0.0
O137 O 0.2516 0.22356 0.53461 0.0
O138 O 0.28966 0.15984 0.43774 0.0
O139 O 0.28166 0.20702 0.46855 0.0
Co140 Co 0.16662 0.01583 0.8013 0.0
O141 O 0.16246 0.96468 0.79029 0.0
O142 O 0.20782 1.00291 0.78772 0.0
C143 C 0.13848 0.01164 0.85024 0.0
O144 O 0.18409 0.06912 0.80992 0.0
Co145 Co 0.11109 0.05888 0.81144 0.0
O146 O 0.14511 0.10211 0.81605 0.0
C147 C 0.1252 0.03129 0.7423 0.0
C148 C 0.19335 0.97015 0.78414 0.0
C149 C 0.17492 0.09933 0.81349 0.0
O150 O 0.15212 0.02235 0.75288 0.0
O151 O 0.10501 0.04256 0.76219 0.0
O152 O 0.16938 0.00967 0.85046 0.0
O153 O 0.12581 0.0159 0.82131 0.0
Co154 Co 0.25847 0.90498 0.98626 0.0
O155 O 0.21476 0.90806 1.00017 0.0
O156 O 0.25744 0.95182 0.00638 0.0
C157 C 0.24338 0.87581 0.93491 0.0
O158 O 0.30604 0.91531 0.97568 0.0
Co159 Co 0.28788 0.83858 0.96426 0.0
O160 O 0.32831 0.87055 0.95362 0.0
C161 C 0.27317 0.8564 0.03589 0.0
C162 C 0.22671 0.94104 0.01018 0.0
C163 C 0.33033 0.90315 0.96352 0.0
O164 O 0.26977 0.88804 0.03073 0.0
O165 O 0.27728 0.83294 0.01235 0.0
O166 O 0.24559 0.91001 0.93935 0.0
O167 O 0.2495 0.86064 0.96121 0.0
Co168 Co 0.28097 0.39791 0.02323 0.0
O169 O 0.23357 0.39005 0.0173 0.0
O170 O 0.26398 0.43965 0.04011 0.0
C171 C 0.28979 0.37588 0.96982 0.0
O172 O 0.32991 0.4187 0.03148 0.0
Co173 Co 0.32182 0.33848 0.01754 0.0
O174 O 0.35856 0.37765 0.0124 0.0
C175 C 0.28268 0.34634 0.0771 0.0
C176 C 0.23511 0.42264 0.02973 0.0
C177 C 0.35685 0.40957 0.0222 0.0
O178 O 0.27797 0.37694 0.06903 0.0
O179 O 0.29707 0.32586 0.05831 0.0
O180 O 0.28424 0.40787 0.97584 0.0
O181 O 0.28746 0.35747 0.99546 0.0
Co182 Co 0.78939 0.14644 0.02162 0.0
O183 O 0.83542 0.15199 0.01433 0.0
O184 O 0.80636 0.10546 0.03426 0.0
C185 C 0.77464 0.16354 0.97188 0.0
O186 O 0.74156 0.12978 0.03049 0.0
Co187 Co 0.75161 0.20974 0.02271 0.0
O188 O 0.71236 0.17326 0.02629 0.0
C189 C 0.8013 0.20685 0.0754 0.0
C190 C 0.83424 0.12065 0.0242 0.0
C191 C 0.71439 0.14135 0.03034 0.0
O192 O 0.79871 0.1731 0.06823 0.0
O193 O 0.78906 0.22661 0.05633 0.0
O194 O 0.77944 0.13129 0.97336 0.0
O195 O 0.78136 0.18425 0.99927 0.0
Co196 Co 0.14535 0.50879 0.24216 0.0
O197 O 0.14848 0.46286 0.25562 0.0
O198 O 0.18672 0.49718 0.23036 0.0
C199 C 0.12602 0.52889 0.29053 0.0
O200 O 0.15295 0.55777 0.22663 0.0
Co201 Co 0.08034 0.53787 0.2377 0.0
O202 O 0.10875 0.58339 0.23026 0.0
C203 C 0.09251 0.4813 0.18912 0.0
C204 C 0.17796 0.46858 0.24507 0.0
C205 C 0.13881 0.5845 0.22449 0.0
O206 O 0.12342 0.48833 0.19706 0.0
O207 O 0.07149 0.49179 0.20837 0.0
O208 O 0.15721 0.52938 0.28874 0.0
O209 O 0.10805 0.51437 0.26432 0.0
Co210 Co 0.7831 0.89843 0.52293 0.0
O211 O 0.73567 0.89101 0.51605 0.0
O212 O 0.76585 0.93985 0.54052 0.0
C213 C 0.79227 0.87782 0.469 0.0
O214 O 0.83212 0.91924 0.53242 0.0
Co215 Co 0.82448 0.83984 0.51594 0.0
O216 O 0.86141 0.87932 0.51214 0.0
C217 C 0.78367 0.8444 0.57484 0.0
C218 C 0.73711 0.9234 0.52905 0.0
C219 C 0.85937 0.91083 0.52311 0.0
O220 O 0.77921 0.87556 0.56796 0.0
O221 O 0.7985 0.82494 0.55538 0.0
O222 O 0.78705 0.90982 0.4759 0.0
O223 O 0.78986 0.85871 0.49413 0.0
Co224 Co 0.89718 0.04441 0.24133 0.0
O225 O 0.90453 0.09555 0.25293 0.0
O226 O 0.85858 0.06404 0.23007 0.0
C227 C 0.91914 0.03027 0.29057 0.0
O228 O 0.87673 0.99218 0.22911 0.0
Co229 Co 0.95004 0.99713 0.23594 0.0
O230 O 0.91349 0.95677 0.23567 0.0
C231 C 0.94435 0.04583 0.18427 0.0
C232 C 0.87426 0.09466 0.24289 0.0
C233 C 0.88425 0.96134 0.23073 0.0
O234 O 0.91606 0.05076 0.19454 0.0
O235 O 0.96257 0.02824 0.19958 0.0
O236 O 0.88974 0.03738 0.28913 0.0
O237 O 0.93476 0.03445 0.26345 0.0
Co238 Co 0.29525 0.65127 0.52651 0.0
O239 O 0.34076 0.65567 0.51745 0.0
O240 O 0.3114 0.60943 0.53763 0.0
C241 C 0.27929 0.67043 0.47788 0.0
O242 O 0.24776 0.63618 0.53715 0.0
Co243 Co 0.25887 0.71662 0.53099 0.0
O244 O 0.22006 0.68154 0.53954 0.0
C245 C 0.31052 0.71102 0.57601 0.0
C246 C 0.33914 0.62406 0.52683 0.0
C247 C 0.22148 0.64901 0.54123 0.0
O248 O 0.30617 0.67705 0.57302 0.0
O249 O 0.30493 0.72707 0.55054 0.0
O250 O 0.28334 0.63775 0.4782 0.0
O251 O 0.28719 0.69011 0.50569 0.0
Co252 Co 0.40217 0.54967 0.74153 0.0
O253 O 0.40654 0.60103 0.75165 0.0
O254 O 0.36212 0.56644 0.72914 0.0
C255 C 0.42527 0.53921 0.79184 0.0
O256 O 0.38473 0.49612 0.73044 0.0
Co257 Co 0.4587 0.5067 0.73992 0.0
O258 O 0.42358 0.46642 0.74596 0.0
C259 C 0.45046 0.55152 0.68521 0.0
C260 C 0.37612 0.59805 0.74118 0.0
C261 C 0.39385 0.46737 0.73821 0.0
O262 O 0.42166 0.55565 0.69479 0.0
O263 O 0.46941 0.53563 0.70163 0.0
O264 O 0.39501 0.54366 0.78981 0.0
O265 O 0.4405 0.54346 0.7646 0.0
Co266 Co 0.64416 0.01929 0.74287 0.0
O267 O 0.64077 0.9709 0.75277 0.0
O268 O 0.68392 1.00327 0.73269 0.0
C269 C 0.62336 0.03819 0.79074 0.0
O270 O 0.6593 0.06897 0.73145 0.0
Co271 Co 0.58739 0.0607 0.73663 0.0
O272 O 0.62132 0.10328 0.73273 0.0
C273 C 0.59341 1.00128 0.68727 0.0
C274 C 0.67086 0.97383 0.7439 0.0
C275 C 0.65073 0.09898 0.72965 0.0
O276 O 0.62388 1.00401 0.69617 0.0
O277 O 0.57388 0.01693 0.70453 0.0
O278 O 0.65397 0.03504 0.79082 0.0
O279 O 0.60658 0.02863 0.76263 0.0
Co280 Co 0.78501 0.66251 0.98692 0.0
O281 O 0.83238 0.66848 0.99461 0.0
O282 O 0.79792 0.61891 0.9979 0.0
C283 C 0.78685 0.69175 0.93873 0.0
O284 O 0.73626 0.64182 0.98018 0.0
Co285 Co 0.74362 0.72044 0.98461 0.0
O286 O 0.70449 0.68261 0.97732 0.0
C287 C 0.76644 0.70263 0.05129 0.0
C288 C 0.82796 0.6352 0.99988 0.0
C289 C 0.708 0.65059 0.97752 0.0
O290 O 0.77945 0.67745 0.03678 0.0
O291 O 0.75277 0.72347 0.0347 0.0
O292 O 0.7898 0.65867 0.9375 0.0
O293 O 0.78346 0.70631 0.96861 0.0
Co294 Co 0.92587 0.54788 0.8002 0.0
O295 O 0.92773 0.59407 0.78509 0.0
O296 O 0.88364 0.55204 0.78221 0.0
C297 C 0.9546 0.5669 0.84915 0.0
O298 O 0.91171 0.49895 0.81378 0.0
Co299 Co 0.98318 0.51078 0.8183 0.0
O300 O 0.95063 0.4721 0.83362 0.0
C301 C 0.96613 0.52087 0.74704 0.0
C302 C 0.8966 0.58408 0.77736 0.0
C303 C 0.92072 0.47292 0.82681 0.0
O304 O 0.93862 0.52915 0.75505 0.0
O305 O 0.98782 0.51592 0.7689 0.0
O306 O 0.92344 0.56756 0.84686 0.0
O307 O 0.96718 0.55537 0.82225 0.0
Co308 Co 0.77421 0.40765 0.48561 0.0
O309 O 0.72972 0.40973 0.49538 0.0
O310 O 0.77061 0.45533 0.503 0.0
C311 C 0.76156 0.37634 0.43509 0.0
O312 O 0.82249 0.41719 0.47718 0.0
Co313 Co 0.80198 0.33826 0.47104 0.0
O314 O 0.84148 0.36899 0.45714 0.0
C315 C 0.79274 0.36625 0.54165 0.0
C316 C 0.73954 0.44334 0.50376 0.0
C317 C 0.84537 0.40216 0.46517 0.0
O318 O 0.78383 0.3943 0.53213 0.0
O319 O 0.7989 0.34093 0.52125 0.0
O320 O 0.76378 0.41048 0.43769 0.0
O321 O 0.76591 0.36224 0.46259 0.0
Co322 Co 0.66623 0.51302 0.30053 0.0
O323 O 0.66266 0.46176 0.29062 0.0
O324 O 0.70741 0.50055 0.28685 0.0
C325 C 0.63896 0.50972 0.34973 0.0
O326 O 0.68326 0.5664 0.30835 0.0
Co327 Co 0.6105 0.55589 0.31091 0.0
O328 O 0.64447 0.59919 0.31702 0.0
C329 C 0.62366 0.5269 0.24189 0.0
C330 C 0.69355 0.46761 0.28451 0.0
C331 C 0.67418 0.59654 0.31343 0.0
O332 O 0.6509 0.51841 0.25212 0.0
O333 O 0.6037 0.53839 0.26193 0.0
O334 O 0.66991 0.50803 0.34973 0.0
O335 O 0.6257 0.51318 0.32087 0.0
Dy336 Dy 1.00312 0.02454 1.00396 0.0
C337 C 0.13792 0.03609 0.0446 0.0
C338 C 0.94597 0.0492 0.00933 0.0
Dy339 Dy 0.07537 0.04661 0.03285 0.0
O340 O 0.94812 0.01851 0.99315 0.0
O341 O 0.97434 0.06474 0.02228 0.0
O342 O 0.01738 0.99236 0.95796 0.0
O343 O 0.05075 0.03431 0.98299 0.0
C344 C 0.04798 0.00867 0.96036 0.0
C345 C 0.02899 0.06103 0.07484 0.0
O346 O 0.07278 0.09624 0.00763 0.0
O347 O 0.01883 0.07834 0.98605 0.0
O348 O 0.11439 0.02996 0.06495 0.0
O349 O 0.12786 0.05136 0.01941 0.0
O350 O 0.05854 0.07964 0.07695 0.0
O351 O 0.02803 0.03488 0.05332 0.0
O352 O 1.00726 0.97884 0.03437 0.0
O353 O 0.06338 0.987 0.0311 0.0
C354 C 0.04638 0.10181 0.99045 0.0
C355 C 0.03547 0.96776 0.0387 0.0
Dy356 Dy 0.28578 0.78204 0.22796 0.0
C357 C 0.25129 0.73355 0.35727 0.0
C358 C 0.28836 0.80778 0.16705 0.0
Dy359 Dy 0.26009 0.76799 0.30127 0.0
O360 O 0.28689 0.77464 0.17177 0.0
O361 O 0.28962 0.8271 0.19572 0.0
O362 O 0.33519 0.76534 0.23553 0.0
O363 O 0.30202 0.76201 0.2726 0.0
C364 C 0.33051 0.75778 0.26654 0.0
C365 C 0.22458 0.80401 0.26332 0.0
O366 O 0.30225 0.81203 0.31339 0.0
O367 O 0.30091 0.83339 0.26052 0.0
O368 O 0.25956 0.72 0.32856 0.0
O369 O 0.24767 0.76619 0.35541 0.0
O370 O 0.22394 0.80556 0.29626 0.0
O371 O 0.24082 0.78079 0.25382 0.0
O372 O 0.24885 0.73177 0.21541 0.0
O373 O 0.23359 0.71996 0.27002 0.0
C374 C 0.31096 0.83681 0.29295 0.0
C375 C 0.23215 0.71189 0.23681 0.0
Dy376 Dy 0.57337 0.03128 0.50611 0.0
C377 C 0.44242 0.06721 0.51041 0.0
C378 C 0.62661 0.99793 0.51299 0.0
Dy379 Dy 0.49722 0.03667 0.51493 0.0
O380 O 0.62815 0.03055 0.50574 0.0
O381 O 0.59634 0.98437 0.51671 0.0
O382 O 0.57516 0.06197 0.45999 0.0
O383 O 0.53121 0.03566 0.47518 0.0
C384 C 0.54339 0.0584 0.45659 0.0
C385 C 0.5283 0.00922 0.56362 0.0
O386 O 0.49116 0.9873 0.47889 0.0
O387 O 0.54454 0.97724 0.4877 0.0
O388 O 0.44306 0.03652 0.52158 0.0
O389 O 0.47123 0.08009 0.50109 0.0
O390 O 0.49654 1.00247 0.55874 0.0
O391 O 0.53976 0.03302 0.54586 0.0
O392 O 0.57885 0.08311 0.53937 0.0
O393 O 0.52424 0.0904 0.53565 0.0
C394 C 0.51365 0.96674 0.47613 0.0
C395 C 0.55549 0.10229 0.54504 0.0
Dy396 Dy 0.24937 0.28611 0.76353 0.0
C397 C 0.38036 0.27497 0.74026 0.0
C398 C 0.18851 0.28021 0.78855 0.0
Dy399 Dy 0.32034 0.2707 0.7669 0.0
O400 O 0.19661 0.29437 0.76071 0.0
O401 O 0.21324 0.26895 0.80157 0.0
O402 O 0.26492 0.33542 0.73674 0.0
O403 O 0.29803 0.31761 0.76866 0.0
C404 C 0.29553 0.33944 0.74739 0.0
C405 C 0.27444 0.21862 0.78492 0.0
O406 O 0.32224 0.30085 0.81862 0.0
O407 O 0.26692 0.30468 0.81763 0.0
O408 O 0.37175 0.25827 0.76661 0.0
O409 O 0.3569 0.2902 0.73017 0.0
O410 O 0.30508 0.22296 0.79548 0.0
O411 O 0.27159 0.23915 0.76242 0.0
O412 O 0.24805 0.25613 0.71183 0.0
O413 O 0.30339 0.25364 0.71249 0.0
C414 C 0.29618 0.30936 0.83356 0.0
C415 C 0.27421 0.24846 0.69649 0.0
Dy416 Dy 0.02671 0.00903 0.46815 0.0
C417 C 0.08387 0.05491 0.60675 0.0
C418 C 0.98438 0.99796 0.41262 0.0
Dy419 Dy 0.04741 0.04417 0.54683 0.0
O420 O 1.01056 0.98377 0.4154 0.0
O421 O 0.98089 0.01661 0.44068 0.0
O422 O 0.07758 0.02267 0.4486 0.0
O423 O 0.06902 0.03584 0.49855 0.0
C424 C 0.09072 0.03961 0.47712 0.0
C425 C 0.9829 0.01275 0.53587 0.0
O426 O 0.04989 0.09336 0.52008 0.0
O427 O 0.02641 0.06749 0.46702 0.0
O428 O 0.05755 0.068 0.60085 0.0
O429 O 0.0909 0.03755 0.57931 0.0
O430 O 0.99515 0.02943 0.56471 0.0
O431 O 1.00573 0.01675 0.51605 0.0
O432 O 0.02796 0.96011 0.49565 0.0
O433 O 0.05402 0.98811 0.54669 0.0
C434 C 0.03926 0.09557 0.48836 0.0
C435 C 0.04103 0.95928 0.52679 0.0
Dy436 Dy 0.32135 0.80749 0.77259 0.0
C437 C 0.19469 0.7536 0.70529 0.0
C438 C 0.37626 0.82216 0.8151 0.0
Dy439 Dy 0.25072 0.76593 0.74672 0.0
O440 O 0.37428 0.83238 0.78481 0.0
O441 O 0.34787 0.8056 0.82252 0.0
O442 O 0.33439 0.81665 0.71931 0.0
O443 O 0.29992 0.77296 0.72941 0.0
C444 C 0.31244 0.78996 0.70636 0.0
C445 C 0.25949 0.78764 0.81366 0.0
O446 O 0.27676 0.71875 0.74611 0.0
O447 O 0.32449 0.74912 0.77535 0.0
O448 O 0.19652 0.74509 0.73625 0.0
O449 O 0.22385 0.76634 0.69656 0.0
O450 O 0.23789 0.76026 0.80136 0.0
O451 O 0.27238 0.8018 0.78927 0.0
O452 O 0.29422 0.85412 0.77087 0.0
O453 O 0.24883 0.82295 0.73878 0.0
C454 C 0.30622 0.71907 0.76097 0.0
C455 C 0.26544 0.85309 0.75423 0.0
Dy456 Dy 0.51797 0.01586 0.03771 0.0
C457 C 0.55335 0.05484 0.91058 0.0
C458 C 0.49276 0.00989 0.09919 0.0
Dy459 Dy 0.52595 0.03743 0.96909 0.0
O460 O 0.4853 0.03084 0.07772 0.0
O461 O 0.5146 0.99247 0.08738 0.0
O462 O 0.5513 0.97645 0.0301 0.0
O463 O 0.52248 0.9862 0.98882 0.0
C464 C 0.54506 0.97041 0.99758 0.0
C465 C 0.49934 0.08241 0.01081 0.0
O466 O 0.47917 0.99924 0.957 0.0
O467 O 0.46775 0.99726 0.01331 0.0
O468 O 0.52583 0.03346 0.91238 0.0
O469 O 0.56522 0.06721 0.94056 0.0
O470 O 0.49208 0.07641 0.97855 0.0
O471 O 0.52241 0.06685 0.018 0.0
O472 O 0.56587 0.0525 0.0464 0.0
O473 O 0.57714 0.04157 0.99078 0.0
C474 C 0.45879 0.99044 0.98078 0.0
C475 C 0.58687 0.05373 0.02227 0.0
Dy476 Dy 0.28965 0.3153 0.27153 0.0
C477 C 0.31144 0.17944 0.25551 0.0
C478 C 0.27251 0.38032 0.27255 0.0
Dy479 Dy 0.2827 0.23611 0.24859 0.0
O480 O 0.27512 0.36324 0.29892 0.0
O481 O 0.28154 0.36285 0.24633 0.0
O482 O 0.31633 0.30787 0.32054 0.0
O483 O 0.28143 0.26709 0.2964 0.0
C484 C 0.30232 0.2748 0.32082 0.0
C485 C 0.26745 0.27539 0.19968 0.0
O486 O 0.23529 0.2353 0.27488 0.0
O487 O 0.23493 0.2946 0.27035 0.0
O488 O 0.28496 0.17817 0.23614 0.0
O489 O 0.32039 0.21056 0.27148 0.0
O490 O 0.2553 0.24167 0.19949 0.0
O491 O 0.28893 0.28378 0.22356 0.0
O492 O 0.33978 0.31824 0.25043 0.0
O493 O 0.33503 0.25757 0.23724 0.0
C494 C 0.22008 0.26299 0.27759 0.0
C495 C 0.35213 0.29014 0.23893 0.0
Dy496 Dy 0.52821 0.51324 0.9719 0.0
C497 C 0.57384 0.54964 0.10956 0.0
C498 C 0.49019 0.50298 0.91296 0.0
Dy499 Dy 0.54299 0.54162 0.04649 0.0
O500 O 0.51975 0.49617 0.91593 0.0
O501 O 0.48124 0.51365 0.94244 0.0
O502 O 0.58187 0.51819 0.96234 0.0
O503 O 0.56626 0.55237 0.99929 0.0
C504 C 0.59129 0.5436 0.98651 0.0
C505 C 0.48 0.51096 0.02985 0.0
O506 O 0.53981 0.59371 0.02674 0.0
O507 O 0.51849 0.56944 0.97332 0.0
O508 O 0.54307 0.55023 0.10324 0.0
O509 O 0.58822 0.54742 0.08124 0.0
O510 O 0.48852 0.53658 0.05384 0.0
O511 O 0.50551 0.50209 0.0187 0.0
O512 O 0.53177 0.4619 0.99436 0.0
O513 O 0.55995 0.48944 0.04335 0.0
C514 C 0.52742 0.59721 0.99613 0.0
C515 C 0.54801 0.46031 0.02356 0.0
Dy516 Dy 0.82269 0.30556 0.27247 0.0
C517 C 0.69863 0.25064 0.19686 0.0
C518 C 0.87723 0.31771 0.31569 0.0
Dy519 Dy 0.74944 0.26137 0.24452 0.0
O520 O 0.87645 0.32707 0.28498 0.0
O521 O 0.84798 0.30354 0.32293 0.0
O522 O 0.83545 0.3124 0.218 0.0
O523 O 0.79942 0.27171 0.22985 0.0
C524 C 0.81271 0.28602 0.2057 0.0
C525 C 0.75392 0.28532 0.31065 0.0
O526 O 0.77627 0.21501 0.24831 0.0
O527 O 0.82584 0.24745 0.2735 0.0
O528 O 0.69812 0.23582 0.22525 0.0
O529 O 0.7276 0.26896 0.19389 0.0
O530 O 0.72743 0.26555 0.29625 0.0
O531 O 0.77486 0.2881 0.28887 0.0
O532 O 0.79421 0.35042 0.27388 0.0
O533 O 0.74718 0.31958 0.24299 0.0
C534 C 0.80672 0.21685 0.26175 0.0
C535 C 0.76458 0.34909 0.25916 0.0
Dy536 Dy 0.02553 0.51916 0.54546 0.0
C537 C 0.06139 0.55531 0.41203 0.0
C538 C 1.0045 0.51787 0.60879 0.0
Dy539 Dy 0.03667 0.542 0.47255 0.0
O540 O 0.98677 0.52223 0.58247 0.0
O541 O 0.03379 0.51445 0.60051 0.0
O542 O 0.04077 0.46549 0.53811 0.0
O543 O 0.04151 0.49688 0.49876 0.0
C544 C 0.04702 0.46759 0.50646 0.0
C545 C 1.00537 0.58333 0.51359 0.0
O546 O 0.99359 0.49882 0.46259 0.0
O547 O 0.97673 0.50204 0.51777 0.0
O548 O 0.03574 0.53196 0.41627 0.0
O549 O 0.07311 0.57199 0.44082 0.0
O550 O 1.00103 0.57943 0.48081 0.0
O551 O 0.02841 0.56814 0.52169 0.0
O552 O 0.07367 0.55562 0.55336 0.0
O553 O 0.08698 0.55055 0.49711 0.0
C554 C 0.97149 0.49146 0.48511 0.0
C555 C 0.09499 0.56024 0.52956 0.0
Dy556 Dy 0.74584 0.7825 0.26352 0.0
C557 C 0.87881 0.77323 0.24178 0.0
C558 C 0.68512 0.77674 0.28917 0.0
Dy559 Dy 0.8177 0.76964 0.26632 0.0
O560 O 0.69273 0.78945 0.26057 0.0
O561 O 0.71025 0.76655 0.30264 0.0
O562 O 0.75789 0.82911 0.23326 0.0
O563 O 0.79391 0.81571 0.26536 0.0
C564 C 0.78905 0.83437 0.24177 0.0
C565 C 0.77273 0.71706 0.2859 0.0
O566 O 0.82018 0.8025 0.31654 0.0
O567 O 0.76457 0.80468 0.31664 0.0
O568 O 0.86933 0.75752 0.2684 0.0
O569 O 0.85544 0.78752 0.22999 0.0
O570 O 0.80337 0.72257 0.29653 0.0
O571 O 0.76949 0.73687 0.26301 0.0
O572 O 0.7449 0.75107 0.21243 0.0
O573 O 0.80085 0.75184 0.21211 0.0
C574 C 0.79428 0.81097 0.33177 0.0
C575 C 0.77135 0.74479 0.1967 0.0
Dy576 Dy 0.79217 0.29932 0.73721 0.0
C577 C 0.75934 0.23956 0.85741 0.0
C578 C 0.79889 0.33065 0.67892 0.0
Dy579 Dy 0.76756 0.28231 0.80707 0.0
O580 O 0.8135 0.30507 0.68669 0.0
O581 O 0.78102 0.33936 0.70323 0.0
O582 O 0.83108 0.26502 0.74198 0.0
O583 O 0.8142 0.2896 0.78457 0.0
C584 C 0.83173 0.26773 0.77496 0.0
C585 C 0.72842 0.31452 0.76997 0.0
O586 O 0.80529 0.3302 0.82358 0.0
O587 O 0.8107 0.35041 0.77024 0.0
O588 O 0.751 0.27073 0.85885 0.0
O589 O 0.77252 0.23277 0.82922 0.0
O590 O 0.72874 0.31629 0.8029 0.0
O591 O 0.74513 0.29196 0.75973 0.0
O592 O 0.75681 0.24919 0.72098 0.0
O593 O 0.75182 0.23117 0.77491 0.0
C594 C 0.81611 0.35505 0.8037 0.0
C595 C 0.74713 0.22494 0.74173 0.0
Dy596 Dy 0.78034 0.81248 0.7702 0.0
C597 C 0.80609 0.67861 0.75761 0.0
C598 C 0.75032 0.868 0.76299 0.0
Dy599 Dy 0.77555 0.73337 0.74801 0.0
O600 O 0.77803 0.87059 0.7806 0.0
O601 O 0.74059 0.83618 0.74893 0.0
O602 O 0.80584 0.80809 0.82077 0.0
O603 O 0.77422 0.76501 0.79561 0.0
C604 C 0.79438 0.77422 0.82059 0.0
C605 C 0.76193 0.77262 0.69778 0.0
O606 O 0.72616 0.72868 0.77131 0.0
O607 O 0.72815 0.78936 0.78113 0.0
O608 O 0.78297 0.67712 0.73393 0.0
O609 O 0.81007 0.70838 0.77623 0.0
O610 O 0.75034 0.73874 0.69738 0.0
O611 O 0.7821 0.78124 0.72277 0.0
O612 O 0.82917 0.81584 0.7453 0.0
O613 O 0.8285 0.75537 0.73962 0.0
C614 C 0.71232 0.75633 0.78111 0.0
C615 C 0.84383 0.78821 0.73768 0.0
Dy616 Dy 0.50587 0.52619 0.50614 0.0
C617 C 0.63797 0.52758 0.52102 0.0
C618 C 0.44822 0.54915 0.5127 0.0
Dy619 Dy 0.58043 0.55017 0.5312 0.0
O620 O 0.45094 0.51945 0.49509 0.0
O621 O 0.4762 0.56452 0.5267 0.0
O622 O 0.51975 0.49567 0.45867 0.0
O623 O 0.55207 0.53852 0.48357 0.0
C624 C 0.54968 0.51371 0.46023 0.0
C625 C 0.5362 0.56363 0.57609 0.0
O626 O 0.57478 0.59894 0.5054 0.0
O627 O 0.51935 0.58077 0.48888 0.0
O628 O 0.63532 0.55479 0.54248 0.0
O629 O 0.60984 0.51427 0.50617 0.0
O630 O 0.56644 0.58093 0.57865 0.0
O631 O 0.5342 0.5385 0.55323 0.0
O632 O 0.5111 0.47965 0.53567 0.0
O633 O 0.56753 0.49492 0.54732 0.0
C634 C 0.54684 0.60448 0.49111 0.0
C635 C 0.53939 0.47257 0.54769 0.0
Dy636 Dy 0.06823 0.5256 0.01175 0.0
C637 C 0.93771 0.56057 0.01792 0.0
C638 C 0.12238 0.49401 0.01776 0.0
Dy639 Dy 0.99196 0.52932 0.02346 0.0
O640 O 0.12287 0.52589 0.00887 0.0
O641 O 0.09263 0.48017 0.02348 0.0
O642 O 0.06769 0.55807 0.96673 0.0
O643 O 0.02496 0.52946 0.98304 0.0
C644 C 0.03574 0.55231 0.96404 0.0
C645 C 0.02473 0.50105 0.07007 0.0
O646 O 0.98567 0.48014 0.98699 0.0
O647 O 0.04035 0.47236 0.98923 0.0
O648 O 0.93794 0.52994 0.02951 0.0
O649 O 0.96685 0.57341 0.00938 0.0
O650 O 0.99283 0.49419 0.06632 0.0
O651 O 0.0355 0.52542 0.05256 0.0
O652 O 0.07385 0.57707 0.04544 0.0
O653 O 0.01875 0.58261 0.04575 0.0
C654 C 1.00885 0.46112 0.98027 0.0
C655 C 0.05023 0.59527 0.05329 0.0
C656 C 0.03896 0.1954 0.9769 0.0
C657 C 0.02917 0.19271 0.94219 0.0
C658 C 0.04778 0.16668 0.99203 0.0
C659 C 0.04683 0.13409 0.97307 0.0
H660 H 0.03862 0.21958 0.99288 0.0
H661 H 0.05317 0.1693 0.01911 0.0
S662 S 0.02576 0.1136 0.88112 0.0
N663 N 0.0217 0.15532 0.88897 0.0
N664 N 0.03749 0.1011 0.91758 0.0
C665 C 0.03884 0.13149 0.93811 0.0
C666 C 0.03031 0.16089 0.92257 0.0
C667 C 0.18318 0.8215 0.18158 0.0
C668 C 0.15192 0.82663 0.19086 0.0
C669 C 0.20659 0.81548 0.20552 0.0
C670 C 0.20055 0.81555 0.24006 0.0
H671 H 0.18913 0.81997 0.15524 0.0
H672 H 0.22917 0.80921 0.19658 0.0
S673 S 0.12343 0.82952 0.27841 0.0
N674 N 0.11648 0.83233 0.23765 0.0
N675 N 0.16127 0.82244 0.28272 0.0
C676 C 0.17004 0.82231 0.25015 0.0
C677 C 0.14564 0.82754 0.22557 0.0
C678 C 0.49449 0.89118 0.40647 0.0
C679 C 0.50194 0.86254 0.42298 0.0
C680 C 0.49586 0.92471 0.4243 0.0
C681 C 0.50529 0.93065 0.45898 0.0
H682 H 0.48829 0.88786 0.37953 0.0
H683 H 0.49123 0.94648 0.41055 0.0
S684 S 0.52652 0.86484 0.51415 0.0
N685 N 0.51787 0.84256 0.47655 0.0
N686 N 0.52131 0.90551 0.50928 0.0
C687 C 0.51193 0.90218 0.47584 0.0
C688 C 0.50998 0.8681 0.45805 0.0
C689 C 0.46802 0.26817 0.72044 0.0
C690 C 0.46999 0.27746 0.68692 0.0
C691 C 0.43883 0.2665 0.73749 0.0
C692 C 0.41068 0.27464 0.72184 0.0
H693 H 0.48941 0.2629 0.73397 0.0
H694 H 0.43859 0.25983 0.76338 0.0
S695 S 0.4019 0.29775 0.63363 0.0
N696 N 0.44027 0.29264 0.63818 0.0
N697 N 0.3859 0.29008 0.67017 0.0
C698 C 0.41199 0.28283 0.68802 0.0
C699 C 0.44148 0.28404 0.67056 0.0
C700 C 0.04201 0.89668 0.59567 0.0
C701 C 0.0272 0.86371 0.57955 0.0
C702 C 0.04776 0.9267 0.57783 0.0
C703 C 0.03841 0.92541 0.54301 0.0
H704 H 0.049 0.89947 0.62243 0.0
H705 H 0.0588 0.95141 0.59208 0.0
S706 S 0.99892 0.84491 0.48879 0.0
N707 N 1.0039 0.83103 0.5264 0.0
N708 N 1.014 0.88764 0.49317 0.0
C709 C 0.02405 0.89235 0.52642 0.0
C710 C 0.01862 0.86154 0.54457 0.0
C711 C 0.43311 0.81534 0.89014 0.0
C712 C 0.46334 0.81434 0.8756 0.0
C713 C 0.40537 0.81901 0.87054 0.0
C714 C 0.40684 0.82277 0.83575 0.0
H715 H 0.4306 0.81241 0.91681 0.0
H716 H 0.38246 0.81851 0.8827 0.0
S717 S 0.48038 0.82412 0.78562 0.0
N718 N 0.49319 0.81872 0.82428 0.0
N719 N 0.44127 0.82646 0.78769 0.0
C720 C 0.43708 0.82302 0.82103 0.0
C721 C 0.46523 0.81852 0.84086 0.0
C722 C 0.50527 0.1558 0.08222 0.0
C723 C 0.48686 0.1789 0.06856 0.0
C724 C 0.50724 0.12307 0.06453 0.0
C725 C 0.49085 0.11246 0.03262 0.0
H726 H 0.52102 0.16463 0.10478 0.0
H727 H 0.52367 0.10731 0.07474 0.0
S728 S 0.43391 0.1603 0.98977 0.0
N729 N 0.44805 0.18664 0.02413 0.0
N730 N 0.45112 0.125 0.9912 0.0
C731 C 0.46937 0.1335 0.02078 0.0
C732 C 0.4675 0.16676 0.03872 0.0
C733 C 0.13705 0.28157 0.30451 0.0
C734 C 0.13516 0.27031 0.33727 0.0
C735 C 0.16396 0.27795 0.2847 0.0
C736 C 0.18939 0.26152 0.29619 0.0
H737 H 0.11831 0.29472 0.29467 0.0
H738 H 0.16516 0.28866 0.26042 0.0
S739 S 0.19571 0.22641 0.37962 0.0
N740 N 0.16116 0.24189 0.38011 0.0
N741 N 0.21059 0.23352 0.3424 0.0
C742 C 0.18717 0.24903 0.32839 0.0
C743 C 0.16039 0.25381 0.34901 0.0
C744 C 0.95211 0.03533 0.12286 0.0
C745 C 0.95759 0.05863 0.15261 0.0
C746 C 0.97434 0.03779 0.09696 0.0
C747 C 1.00317 0.06353 0.09976 0.0
H748 H 0.93206 0.01307 0.1209 0.0
H749 H 0.96983 0.01788 0.07551 0.0
S750 S 0.02685 0.13347 0.1709 0.0
N751 N 0.99244 0.11014 0.18207 0.0
N752 N 0.0339 0.11519 0.13333 0.0
C753 C 1.00755 0.08873 0.12815 0.0
C754 C 0.98488 0.08614 0.15455 0.0
C755 C 0.2625 0.66512 0.41639 0.0
C756 C 0.26726 0.68528 0.44794 0.0
C757 C 0.25536 0.68051 0.38708 0.0
C758 C 0.25237 0.71634 0.38855 0.0
H759 H 0.26569 0.63778 0.41406 0.0
H760 H 0.25342 0.66458 0.36297 0.0
S761 S 0.25943 0.77983 0.46515 0.0
N762 N 0.26643 0.74271 0.47892 0.0
N763 N 0.25207 0.77081 0.42399 0.0
C764 C 0.25494 0.73615 0.42006 0.0
C765 C 0.2627 0.7208 0.44977 0.0
C766 C 0.54887 0.97335 0.64541 0.0
C767 C 0.58179 0.98953 0.65217 0.0
C768 C 0.5321 0.97719 0.61512 0.0
C769 C 0.54765 0.99793 0.59116 0.0
H770 H 0.5352 0.96068 0.66501 0.0
H771 H 0.50624 0.96641 0.61181 0.0
S772 S 0.63493 0.04175 0.59558 0.0
N773 N 0.63046 0.02237 0.63078 0.0
N774 N 0.59887 0.03175 0.57511 0.0
C775 C 0.58141 0.01124 0.59643 0.0
C776 C 0.59861 1.00623 0.62662 0.0
C777 C 0.28244 0.3739 0.90694 0.0
C778 C 0.29533 0.36056 0.93523 0.0
C779 C 0.28397 0.35777 0.8741 0.0
C780 C 0.29928 0.32823 0.86803 0.0
H781 H 0.26979 0.39611 0.91024 0.0
H782 H 0.27249 0.36816 0.85326 0.0
S783 S 0.33939 0.28471 0.93283 0.0
N784 N 0.32539 0.31683 0.9547 0.0
N785 N 0.32918 0.28741 0.89272 0.0
C786 C 0.31374 0.31564 0.89577 0.0
C787 C 0.31149 0.33154 0.92943 0.0
C788 C 0.92008 0.0208 0.3524 0.0
C789 C 0.93401 0.01756 0.32081 0.0
C790 C 0.93569 0.01249 0.38184 0.0
C791 C 0.96546 0.99994 0.38074 0.0
H792 H 0.89767 0.0312 0.3547 0.0
H793 H 0.92485 0.01702 0.40584 0.0
S794 S 1.01093 0.98385 0.30421 0.0
N795 N 0.97885 0.99913 0.29029 0.0
N796 N 1.00722 0.98259 0.34527 0.0
C797 C 0.97871 0.99469 0.34916 0.0
C798 C 0.96326 1.0038 0.31931 0.0
C799 C 0.3286 0.72251 0.63748 0.0
C800 C 0.31164 0.73148 0.60935 0.0
C801 C 0.32981 0.7426 0.66887 0.0
C802 C 0.3142 0.77212 0.6728 0.0
H803 H 0.341 0.70005 0.63519 0.0
H804 H 0.34265 0.73477 0.69032 0.0
S805 S 0.26338 0.80415 0.60865 0.0
N806 N 0.2765 0.77043 0.58859 0.0
N807 N 0.27958 0.8079 0.64759 0.0
C808 C 0.29677 0.781 0.64534 0.0
C809 C 0.29528 0.76069 0.61354 0.0
C810 C 0.57245 0.04241 0.81957 0.0
C811 C 0.60685 0.04858 0.82108 0.0
C812 C 0.55523 0.04659 0.84857 0.0
C813 C 0.57175 0.0577 0.87999 0.0
H814 H 0.55849 0.03251 0.79608 0.0
H815 H 0.52882 0.03968 0.84655 0.0
S816 S 0.66149 0.0823 0.89697 0.0
N817 N 0.6568 0.06971 0.85599 0.0
N818 N 0.62425 0.07837 0.91085 0.0
C819 C 0.60607 0.06661 0.88164 0.0
C820 C 0.62371 0.0618 0.85204 0.0
C821 C 0.2917 0.34668 0.1398 0.0
C822 C 0.2727 0.33343 0.10997 0.0
C823 C 0.28878 0.3285 0.16906 0.0
C824 C 0.26663 0.29638 0.16981 0.0
H825 H 0.31048 0.36997 0.13986 0.0
H826 H 0.30534 0.33883 0.19065 0.0
S827 S 0.20949 0.25213 0.09882 0.0
N828 N 0.22991 0.28728 0.08334 0.0
N829 N 0.22377 0.25369 0.13836 0.0
C830 C 0.24632 0.28393 0.14061 0.0
C831 C 0.24955 0.30227 0.11074 0.0
C832 C 0.20881 0.99897 0.00869 0.0
C833 C 0.20615 0.96641 0.02253 0.0
C834 C 0.18804 0.02277 0.01781 0.0
C835 C 0.16452 0.01528 0.04183 0.0
H836 H 0.22607 1.0054 0.98947 0.0
H837 H 0.18953 0.04651 0.00493 0.0
S838 S 0.15163 0.93592 0.08948 0.0
N839 N 0.18059 0.92924 0.06363 0.0
N840 N 0.14225 0.97443 0.08196 0.0
C841 C 0.16327 0.98384 0.05765 0.0
C842 C 0.18386 0.9592 0.04762 0.0
C843 C 0.67364 0.59067 0.95947 0.0
C844 C 0.67862 0.62306 0.97993 0.0
C845 C 0.64589 0.56448 0.96235 0.0
C846 C 0.62259 0.56936 0.98642 0.0
H847 H 0.69092 0.58587 0.94066 0.0
H848 H 0.64241 0.54053 0.94521 0.0
S849 S 0.62765 0.64739 0.04967 0.0
N850 N 0.65974 0.65727 0.02693 0.0
N851 N 0.60885 0.60785 0.03355 0.0
C852 C 0.62851 0.60094 0.00822 0.0
C853 C 0.65615 0.62782 1.00466 0.0
C854 C 0.69623 0.40399 0.26532 0.0
C855 C 0.71249 0.43837 0.27665 0.0
C856 C 0.71343 0.37596 0.2587 0.0
C857 C 0.7478 0.38064 0.26363 0.0
H858 H 0.66988 0.39858 0.26155 0.0
H859 H 0.69933 0.35008 0.25044 0.0
S860 S 0.80225 0.46558 0.29317 0.0
N861 N 0.76531 0.4756 0.29219 0.0
N862 N 0.79734 0.42297 0.28054 0.0
C863 C 0.7644 0.41497 0.27486 0.0
C864 C 0.74689 0.44371 0.2811 0.0
C865 C 0.88123 0.46141 0.46841 0.0
C866 C 0.87815 0.42429 0.46422 0.0
C867 C 0.91184 0.4833 0.47365 0.0
C868 C 0.94036 0.46885 0.47419 0.0
H869 H 0.85979 0.47374 0.46907 0.0
H870 H 0.91316 0.51161 0.47837 0.0
S871 S 0.94672 0.37429 0.46295 0.0
N872 N 0.90709 0.37446 0.45979 0.0
N873 N 0.96462 0.41618 0.46895 0.0
C874 C 0.93809 0.43222 0.46835 0.0
C875 C 0.90693 0.40974 0.46338 0.0
C876 C 0.3848 0.13792 0.27424 0.0
C877 C 0.37322 0.10178 0.26578 0.0
C878 C 0.36445 0.16258 0.27024 0.0
C879 C 0.33193 0.15212 0.25713 0.0
H880 H 0.40926 0.14713 0.28544 0.0
H881 H 0.3743 0.19014 0.27796 0.0
S882 S 0.29104 0.06099 0.22747 0.0
N883 N 0.32792 0.05676 0.24125 0.0
N884 N 0.2899 0.10365 0.23322 0.0
C885 C 0.32054 0.11634 0.24683 0.0
C886 C 0.34116 0.09102 0.25131 0.0
C887 C 0.35486 0.08489 0.50651 0.0
C888 C 0.35903 0.1217 0.50418 0.0
C889 C 0.38177 0.06743 0.5092 0.0
C890 C 0.414 0.08598 0.50939 0.0
H891 H 0.33056 0.06921 0.50576 0.0
H892 H 0.37725 0.03909 0.51039 0.0
S893 S 0.4387 0.18295 0.50729 0.0
N894 N 0.39841 0.17623 0.50447 0.0
N895 N 0.4486 0.14365 0.5097 0.0
C896 C 0.41856 0.12287 0.50812 0.0
C897 C 0.39124 0.14065 0.50548 0.0
C898 C 0.73047 0.63403 0.32334 0.0
C899 C 0.6983 0.62901 0.30919 0.0
C900 C 0.75419 0.66304 0.31646 0.0
C901 C 0.74694 0.68748 0.29429 0.0
H902 H 0.73739 0.61531 0.3397 0.0
H903 H 0.77857 0.66587 0.32802 0.0
S904 S 0.6669 0.68428 0.2485 0.0
N905 N 0.66072 0.65041 0.27142 0.0
N906 N 0.70537 0.70325 0.25694 0.0
C907 C 0.71493 0.6823 0.27963 0.0
C908 C 0.69063 0.65353 0.28746 0.0
C909 C 0.86203 0.4468 0.82953 0.0
C910 C 0.89488 0.44192 0.82965 0.0
C911 C 0.83617 0.41823 0.82302 0.0
C912 C 0.8423 0.38384 0.81718 0.0
H913 H 0.85623 0.47315 0.83243 0.0
H914 H 0.81141 0.42322 0.821 0.0
S915 S 0.923 0.35586 0.81834 0.0
N916 N 0.93162 0.39933 0.82604 0.0
N917 N 0.88276 0.34556 0.81441 0.0
C918 C 0.87465 0.37812 0.81974 0.0
C919 C 0.90108 0.40721 0.82608 0.0
C920 C 0.02658 0.906 0.10864 0.0
C921 C 0.04827 0.88279 0.10007 0.0
C922 C 0.02106 0.93214 0.08762 0.0
C923 C 0.03753 0.93658 0.05756 0.0
H924 H 1.01337 0.90366 0.13153 0.0
H925 H 1.00461 0.94978 0.09556 0.0
S926 S 0.09657 0.88276 0.02331 0.0
N927 N 0.08566 0.86568 0.05869 0.0
N928 N 0.07633 0.91558 0.02027 0.0
C929 C 0.05932 0.9137 0.04877 0.0
C930 C 0.06438 0.88663 0.06969 0.0
C931 C 0.88111 0.26371 0.85592 0.0
C932 C 0.91175 0.2581 0.84492 0.0
C933 C 0.85503 0.26465 0.83295 0.0
C934 C 0.85806 0.25976 0.79778 0.0
H935 H 0.8774 0.26889 0.88258 0.0
H936 H 0.83266 0.27083 0.84297 0.0
S937 S 0.93156 0.24041 0.75524 0.0
N938 N 0.94259 0.24477 0.79595 0.0
N939 N 0.89326 0.24635 0.75289 0.0
C940 C 0.88776 0.25204 0.78625 0.0
C941 C 0.91462 0.25129 0.80971 0.0
C942 C 0.54308 0.18621 0.59683 0.0
C943 C 0.57351 0.20861 0.59683 0.0
C944 C 0.53795 0.15171 0.58074 0.0
C945 C 0.56315 0.13785 0.5644 0.0
H946 H 0.52259 0.19589 0.60797 0.0
H947 H 0.5137 0.136 0.58067 0.0
S948 S 0.6485 0.18445 0.56066 0.0
N949 N 0.63002 0.21367 0.5814 0.0
N950 N 0.62043 0.14856 0.55167 0.0
C951 C 0.59421 0.15929 0.56587 0.0
C952 C 0.59934 0.19471 0.58188 0.0
C953 C 0.59475 0.77578 0.30283 0.0
C954 C 0.59308 0.77485 0.33812 0.0
C955 C 0.62458 0.77676 0.287 0.0
C956 C 0.65365 0.77593 0.30579 0.0
H957 H 0.57294 0.77635 0.28736 0.0
H958 H 0.62481 0.77782 0.25987 0.0
S959 S 0.66235 0.7725 0.39872 0.0
N960 N 0.6232 0.77294 0.39121 0.0
N961 N 0.67878 0.77373 0.36159 0.0
C962 C 0.65218 0.77447 0.341 0.0
C963 C 0.62204 0.77423 0.35713 0.0
C964 C 0.03323 0.16787 0.42942 0.0
C965 C 0.05236 0.19805 0.44706 0.0
C966 C 0.0291 0.13493 0.44295 0.0
C967 C 0.04382 0.13094 0.47472 0.0
H968 H 0.02014 0.17004 0.40588 0.0
H969 H 1.01361 0.11261 0.42864 0.0
S970 S 0.09929 0.20174 0.52888 0.0
N971 N 0.08823 0.22153 0.49639 0.0
N972 N 0.08055 0.16024 0.52179 0.0
C973 C 0.06409 0.16086 0.49177 0.0
C974 C 0.06835 0.19416 0.47794 0.0
C975 C 0.61054 0.25478 0.1694 0.0
C976 C 0.6136 0.26928 0.13806 0.0
C977 C 0.6378 0.24709 0.18752 0.0
C978 C 0.66939 0.25389 0.17528 0.0
H979 H 0.58683 0.24912 0.18002 0.0
H980 H 0.63421 0.23668 0.21177 0.0
S981 S 0.69111 0.29119 0.09459 0.0
N982 N 0.6513 0.28957 0.09559 0.0
N983 N 0.70204 0.27545 0.12964 0.0
C984 C 0.67278 0.268 0.14393 0.0
C985 C 0.64511 0.2756 0.12537 0.0
C986 C 0.55196 0.90399 0.92229 0.0
C987 C 0.57154 0.88208 0.93609 0.0
C988 C 0.54441 0.93346 0.94194 0.0
C989 C 0.55635 0.94199 0.9759 0.0
H990 H 0.54078 0.8971 0.89698 0.0
H991 H 0.5281 0.94881 0.93085 0.0
S992 S 0.61214 0.89526 0.022 0.0
N993 N 0.60497 0.87252 0.98447 0.0
N994 N 0.59153 0.928 0.02101 0.0
C995 C 0.5777 0.92152 0.98905 0.0
C996 C 0.58506 0.8915 0.96924 0.0
C997 C 0.92598 0.7692 0.70885 0.0
C998 C 0.93028 0.78629 0.67905 0.0
C999 C 0.89884 0.77149 0.72864 0.0
C1000 C 0.87533 0.79197 0.72028 0.0
H1001 H 0.94319 0.75297 0.71644 0.0
H1002 H 0.89588 0.75654 0.75041 0.0
S1003 S 0.87563 0.84319 0.6457 0.0
N1004 N 0.90869 0.82515 0.64267 0.0
N1005 N 0.85857 0.83012 0.68034 0.0
C1006 C 0.87991 0.81017 0.69125 0.0
C1007 C 0.90708 0.80715 0.67057 0.0
C1008 C 0.12516 0.02984 0.91026 0.0
C1009 C 0.1176 1.00759 0.88 0.0
C1010 C 0.10277 0.02953 0.93621 0.0
C1011 C 0.07226 1.00633 0.93347 0.0
H1012 H 0.14777 0.04882 0.91326 0.0
H1013 H 0.10905 0.04853 0.95811 0.0
S1014 S 0.04183 0.94119 0.8599 0.0
N1015 N 0.07783 0.96108 0.84908 0.0
N1016 N 0.03675 0.95942 0.89809 0.0
C1017 C 0.0651 0.98308 0.90375 0.0
C1018 C 0.08748 0.984 0.87705 0.0
C1019 C 0.81975 0.34288 0.58904 0.0
C1020 C 0.79634 0.36211 0.57793 0.0
C1021 C 0.8213 0.33424 0.62231 0.0
C1022 C 0.79945 0.34444 0.64564 0.0
H1023 H 0.83657 0.33365 0.57164 0.0
H1024 H 0.83913 0.31853 0.62947 0.0
S1025 S 0.73436 0.39627 0.62951 0.0
N1026 N 0.75168 0.3923 0.59301 0.0
N1027 N 0.75441 0.3759 0.65586 0.0
C1028 C 0.77677 0.36495 0.63532 0.0
C1029 C 0.77528 0.37389 0.60134 0.0
C1030 C 0.50168 0.03241 0.37136 0.0
C1031 C 0.47891 0.0553 0.37012 0.0
C1032 C 0.52447 0.03561 0.39853 0.0
C1033 C 0.52571 0.06218 0.42514 0.0
H1034 H 0.50142 0.01108 0.35175 0.0
H1035 H 0.54022 0.01611 0.39949 0.0
S1036 S 0.47477 0.13174 0.43201 0.0
N1037 N 0.46082 0.10722 0.39652 0.0
N1038 N 0.50453 0.11371 0.44767 0.0
C1039 C 0.50424 0.08629 0.42369 0.0
C1040 C 0.48057 0.08272 0.39612 0.0
C1041 C 0.74114 0.72302 0.10416 0.0
C1042 C 0.76669 0.70874 0.08893 0.0
C1043 C 0.74203 0.73304 0.13914 0.0
C1044 C 0.76876 0.72974 0.16046 0.0
H1045 H 0.7204 0.72716 0.08876 0.0
H1046 H 0.72216 0.74473 0.14926 0.0
S1047 S 0.84112 0.69172 0.13368 0.0
N1048 N 0.81863 0.69 0.09829 0.0
N1049 N 0.82075 0.70898 0.16379 0.0
C1050 C 0.79397 0.71423 0.14572 0.0
C1051 C 0.79281 0.70364 0.11011 0.0
C1052 C 0.13908 0.04608 0.68327 0.0
C1053 C 0.11636 0.0312 0.70572 0.0
C1054 C 0.12867 0.05384 0.65098 0.0
C1055 C 0.09526 0.04784 0.6407 0.0
H1056 H 0.16471 0.05324 0.69124 0.0
H1057 H 0.1467 0.06556 0.63442 0.0
S1058 S 0.0269 1.0041 0.68767 0.0
N1059 N 0.05951 1.00664 0.71327 0.0
N1060 N 0.04023 0.02228 0.65362 0.0
C1061 C 0.07272 0.03138 0.66218 0.0
C1062 C 0.08322 0.02279 0.69441 0.0
C1063 C 0.78299 0.35947 0.37982 0.0
C1064 C 0.75822 0.35456 0.40269 0.0
C1065 C 0.7822 0.33584 0.35082 0.0
C1066 C 0.75618 0.30717 0.34335 0.0
H1067 H 0.80355 0.38103 0.3849 0.0
H1068 H 0.80201 0.34042 0.33412 0.0
S1069 S 0.68583 0.28292 0.39629 0.0
N1070 N 0.70781 0.31863 0.41726 0.0
N1071 N 0.70537 0.27507 0.36179 0.0
C1072 C 0.73133 0.30209 0.36626 0.0
C1073 C 0.73258 0.32564 0.39618 0.0
C1074 C 0.47621 0.97921 0.18498 0.0
C1075 C 0.45732 1.00316 0.19898 0.0
C1076 C 0.4868 0.981 0.15221 0.0
C1077 C 0.47885 1.00677 0.13234 0.0
H1078 H 0.48385 0.95964 0.19987 0.0
H1079 H 0.50206 0.96264 0.14278 0.0
S1080 S 0.42814 0.07421 0.15622 0.0
N1081 N 0.42959 0.05226 0.18985 0.0
N1082 N 0.4494 0.05549 0.12788 0.0
C1083 C 0.4586 0.02979 0.14527 0.0
C1084 C 0.44776 0.02795 0.17873 0.0
C1085 C 0.77736 0.6974 0.87629 0.0
C1086 C 0.78992 0.71268 0.90863 0.0
C1087 C 0.77909 0.7174 0.84814 0.0
C1088 C 0.7945 0.75328 0.85072 0.0
H1089 H 0.76526 0.67001 0.87287 0.0
H1090 H 0.76788 0.7046 0.82418 0.0
S1091 S 0.83302 0.80528 0.92948 0.0
N1092 N 0.8189 0.76584 0.94141 0.0
N1093 N 0.8234 0.8027 0.88855 0.0
C1094 C 0.8079 0.76855 0.88279 0.0
C1095 C 0.80533 0.74848 0.91163 0.0
C1096 C 0.85841 0.06507 0.01703 0.0
C1097 C 0.86273 0.10233 0.02155 0.0
C1098 C 0.88513 0.04754 0.01194 0.0
C1099 C 0.91706 0.06674 0.01183 0.0
H1100 H 0.83416 0.04935 0.01682 0.0
H1101 H 0.88084 0.01893 0.00872 0.0
S1102 S 0.94153 0.1646 0.0226 0.0
N1103 N 0.90154 0.15755 0.02541 0.0
N1104 N 0.95139 0.12506 0.0164 0.0
C1105 C 0.9216 0.10395 0.01646 0.0
C1106 C 0.89455 0.12164 0.02118 0.0
C1107 C 0.39262 0.46738 0.04578 0.0
C1108 C 0.38725 0.43676 0.02265 0.0
C1109 C 0.42222 0.49193 0.04741 0.0
C1110 C 0.44745 0.48701 0.02574 0.0
H1111 H 0.37422 0.47191 0.0634 0.0
H1112 H 0.42562 0.51446 0.06632 0.0
S1113 S 0.44387 0.41362 0.95766 0.0
N1114 N 0.4087 0.40475 0.97564 0.0
N1115 N 0.46358 0.45054 0.97849 0.0
C1116 C 0.44165 0.45734 1.00153 0.0
C1117 C 0.41181 0.43234 1.00005 0.0
C1118 C 0.37175 0.66025 0.76458 0.0
C1119 C 0.35761 0.62839 0.74538 0.0
C1120 C 0.3546 0.68854 0.77025 0.0
C1121 C 0.32229 0.68674 0.75696 0.0
H1122 H 0.39638 0.66343 0.7756 0.0
H1123 H 0.36718 0.7123 0.78501 0.0
S1124 S 0.27384 0.6093 0.70446 0.0
N1125 N 0.30896 0.59684 0.71296 0.0
N1126 N 0.27706 0.64976 0.72325 0.0
C1127 C 0.30779 0.65494 0.73772 0.0
C1128 C 0.32528 0.62599 0.73204 0.0
C1129 C 0.18528 0.59143 0.52404 0.0
C1130 C 0.1907 0.62419 0.54383 0.0
C1131 C 0.15442 0.56988 0.52097 0.0
C1132 C 0.12821 0.57988 0.53832 0.0
H1133 H 0.20444 0.58337 0.50913 0.0
H1134 H 0.15076 0.5458 0.50395 0.0
S1135 S 0.13055 0.66129 0.59614 0.0
N1136 N 0.16798 0.66452 0.58284 0.0
N1137 N 0.11006 0.62333 0.57784 0.0
C1138 C 0.13379 0.61139 0.55996 0.0
C1139 C 0.16505 0.63378 0.56249 0.0
C1140 C 0.72501 0.95567 0.75183 0.0
C1141 C 0.69062 0.94643 0.74904 0.0
C1142 C 0.74457 0.93055 0.75781 0.0
C1143 C 0.73028 0.89538 0.76052 0.0
H1144 H 0.73695 0.98257 0.74963 0.0
H1145 H 0.77089 0.93843 0.75932 0.0
S1146 S 0.64169 0.85774 0.75622 0.0
N1147 N 0.64334 0.89983 0.75053 0.0
N1148 N 0.68 0.85249 0.76108 0.0
C1149 C 0.69602 0.88585 0.75813 0.0
C1150 C 0.67617 0.91144 0.75256 0.0
C1151 C 0.71319 0.9792 0.52799 0.0
C1152 C 0.7084 0.94198 0.52716 0.0
C1153 C 0.68688 0.99718 0.52308 0.0
C1154 C 0.65453 0.97879 0.51772 0.0
H1155 H 0.73763 0.99462 0.53162 0.0
H1156 H 0.69192 0.02571 0.52363 0.0
S1157 S 0.62831 0.88141 0.5145 0.0
N1158 N 0.66837 0.8876 0.52101 0.0
N1159 N 0.61919 0.92114 0.51271 0.0
C1160 C 0.64932 0.94168 0.51757 0.0
C1161 C 0.67611 0.92337 0.52201 0.0
C1162 C 0.33792 0.4295 0.72289 0.0
C1163 C 0.3692 0.4341 0.73932 0.0
C1164 C 0.31446 0.39859 0.72488 0.0
C1165 C 0.32111 0.37119 0.74375 0.0
H1166 H 0.33146 0.44992 0.70837 0.0
H1167 H 0.29076 0.39642 0.71192 0.0
S1168 S 0.39873 0.37038 0.79257 0.0
N1169 N 0.40508 0.40822 0.77557 0.0
N1170 N 0.36125 0.35124 0.77964 0.0
C1171 C 0.35222 0.37553 0.7603 0.0
C1172 C 0.37612 0.40662 0.75802 0.0
C1173 C 0.19222 0.61853 0.2093 0.0
C1174 C 0.15983 0.61847 0.21884 0.0
C1175 C 0.2154 0.64981 0.21187 0.0
C1176 C 0.20683 0.68196 0.22379 0.0
H1177 H 0.20038 0.59395 0.20188 0.0
H1178 H 0.24058 0.64839 0.20701 0.0
S1179 S 0.12471 0.69786 0.24592 0.0
N1180 N 0.11976 0.65472 0.23602 0.0
N1181 N 0.16357 0.71333 0.24083 0.0
C1182 C 0.17411 0.68298 0.23021 0.0
C1183 C 0.15045 0.65125 0.22759 0.0
C1184 C 0.52408 0.66088 0.42425 0.0
C1185 C 0.52634 0.69413 0.44257 0.0
C1186 C 0.53308 0.63236 0.43966 0.0
C1187 C 0.54553 0.63636 0.47354 0.0
H1188 H 0.51339 0.65628 0.39863 0.0
H1189 H 0.52893 0.60655 0.42544 0.0
S1190 S 0.55972 0.7189 0.53112 0.0
N1191 N 0.54433 0.73008 0.49562 0.0
N1192 N 0.56183 0.67656 0.524 0.0
C1193 C 0.55002 0.66994 0.49131 0.0
C1194 C 0.54026 0.69881 0.47595 0.0
C1195 C 0.64975 0.29776 0.7159 0.0
C1196 C 0.65105 0.32914 0.7001 0.0
C1197 C 0.67437 0.29384 0.73955 0.0
C1198 C 0.70079 0.32142 0.74887 0.0
H1199 H 0.63034 0.2754 0.70877 0.0
H1200 H 0.67321 0.26867 0.74994 0.0
S1201 S 0.71363 0.41035 0.7184 0.0
N1202 N 0.67981 0.38919 0.69742 0.0
N1203 N 0.72571 0.38199 0.74267 0.0
C1204 C 0.70169 0.35348 0.7346 0.0
C1205 C 0.67689 0.35731 0.70998 0.0
C1206 C 0.99521 0.3634 0.95435 0.0
C1207 C 1.0009 0.36185 0.9195 0.0
C1208 C 0.99542 0.39569 0.97362 0.0
C1209 C 1.00079 0.42752 0.95867 0.0
H1210 H 0.99215 0.33965 0.96734 0.0
H1211 H 0.99298 0.3959 1.00068 0.0
S1212 S 1.01369 0.43834 0.86827 0.0
N1213 N 1.00957 0.39529 0.87055 0.0
N1214 N 1.00981 0.45595 0.90702 0.0
C1215 C 1.00459 0.42643 0.92368 0.0
C1216 C 1.00455 0.39355 0.90397 0.0
C1217 C 0.94073 0.78286 0.17395 0.0
C1218 C 0.9698 0.77787 0.19039 0.0
C1219 C 0.91155 0.78067 0.19084 0.0
C1220 C 0.91002 0.77318 0.22483 0.0
H1221 H 0.94061 0.78954 0.14807 0.0
H1222 H 0.88997 0.78508 0.17706 0.0
S1223 S 0.97836 0.755 0.27876 0.0
N1224 N 0.99467 0.76305 0.24237 0.0
N1225 N 0.93959 0.75865 0.27378 0.0
C1226 C 0.93844 0.76665 0.24124 0.0
C1227 C 0.96837 0.76915 0.22413 0.0
C1228 C 0.55044 0.3973 0.09174 0.0
C1229 C 0.53398 0.36475 0.076 0.0
C1230 C 0.55685 0.42723 0.07375 0.0
C1231 C 0.54651 0.42627 0.03927 0.0
H1232 H 0.55802 0.3999 0.11834 0.0
H1233 H 0.56887 0.45174 0.0877 0.0
S1234 S 0.50366 0.34675 0.98581 0.0
N1235 N 0.50884 0.33269 0.0233 0.0
N1236 N 0.52018 0.38911 0.9899 0.0
C1237 C 0.53097 0.39351 0.02294 0.0
C1238 C 0.52486 0.36281 0.04117 0.0
C1239 C 0.96639 0.3183 0.34233 0.0
C1240 C 0.96456 0.30829 0.37554 0.0
C1241 C 0.93827 0.3227 0.32351 0.0
C1242 C 0.9072 0.31691 0.33702 0.0
H1243 H 0.98976 0.32309 0.3309 0.0
H1244 H 0.94083 0.32999 0.29793 0.0
S1245 S 0.88881 0.28893 0.4222 0.0
N1246 N 0.92872 0.2918 0.42063 0.0
N1247 N 0.87634 0.30021 0.38554 0.0
C1248 C 0.90507 0.30689 0.37014 0.0
C1249 C 0.93358 0.30254 0.38928 0.0
C1250 C 0.97134 0.66597 0.53831 0.0
C1251 C 0.98661 0.67759 0.57053 0.0
C1252 C 0.97516 0.63371 0.52114 0.0
C1253 C 0.99465 0.61201 0.53545 0.0
H1254 H 0.95909 0.68358 0.52489 0.0
H1255 H 0.96495 0.62722 0.49543 0.0
S1256 S 0.03449 0.62718 0.6219 0.0
N1257 N 0.01777 0.66249 0.61809 0.0
N1258 N 0.02491 0.60169 0.58603 0.0
C1259 C 1.00687 0.62137 0.5692 0.0
C1260 C 1.00278 0.65421 0.58674 0.0
C1261 C 0.65936 0.76081 0.85632 0.0
C1262 C 0.62797 0.76061 0.84166 0.0
C1263 C 0.68592 0.75661 0.83633 0.0
C1264 C 0.68238 0.75189 0.80077 0.0
H1265 H 0.6638 0.76544 0.8835 0.0
H1266 H 0.70985 0.75867 0.84881 0.0
S1267 S 0.60571 0.74821 0.74935 0.0
N1268 N 0.595 0.7539 0.78881 0.0
N1269 N 0.64511 0.74665 0.75164 0.0
C1270 C 0.65114 0.75054 0.78569 0.0
C1271 C 0.62391 0.7546 0.80601 0.0
C1272 C 0.45897 0.53884 0.6242 0.0
C1273 C 0.46381 0.56329 0.65315 0.0
C1274 C 0.48164 0.5404 0.59867 0.0
C1275 C 0.51033 0.56638 0.60099 0.0
H1276 H 0.43911 0.51642 0.62268 0.0
H1277 H 0.47751 0.51971 0.57792 0.0
S1278 S 0.53274 0.63876 0.67011 0.0
N1279 N 0.4982 0.61582 0.68141 0.0
N1280 N 0.54042 0.61915 0.63335 0.0
C1281 C 0.51422 0.59247 0.62861 0.0
C1282 C 0.4911 0.59082 0.65462 0.0
C1283 C 0.75115 0.20894 0.94417 0.0
C1284 C 0.76413 0.17755 0.94101 0.0
C1285 C 0.74782 0.22797 0.91645 0.0
C1286 C 0.75743 0.21625 0.88469 0.0
H1287 H 0.74496 0.21995 0.96856 0.0
H1288 H 0.73927 0.25289 0.92034 0.0
S1289 S 0.78824 0.13298 0.862 0.0
N1290 N 0.78316 0.13353 0.90303 0.0
N1291 N 0.77677 0.16918 0.85048 0.0
C1292 C 0.76794 0.18341 0.88053 0.0
C1293 C 0.77124 0.16398 0.90885 0.0
C1294 C 0.04855 0.45613 0.14553 0.0
C1295 C 0.08106 0.47332 0.15335 0.0
C1296 C 0.0309 0.46323 0.11698 0.0
C1297 C 0.04514 0.48802 0.09566 0.0
H1298 H 0.0357 0.43995 0.16342 0.0
H1299 H 1.00534 0.4513 0.11309 0.0
S1300 S 0.13111 0.53609 0.10266 0.0
N1301 N 0.12817 0.51181 0.1348 0.0
N1302 N 0.09483 0.52689 0.08261 0.0
C1303 C 0.07859 0.5026 0.10149 0.0
C1304 C 0.09672 0.49449 0.12985 0.0
C1305 C 0.78105 0.87489 0.40634 0.0
C1306 C 0.79654 0.86282 0.43389 0.0
C1307 C 0.78131 0.85853 0.37331 0.0
C1308 C 0.79794 0.83014 0.36626 0.0
H1309 H 0.76737 0.89616 0.41048 0.0
H1310 H 0.76794 0.86787 0.35313 0.0
S1311 S 0.84451 0.7902 0.42886 0.0
N1312 N 0.83013 0.82148 0.45157 0.0
N1313 N 0.83165 0.7918 0.38931 0.0
C1314 C 0.81485 0.81889 0.39324 0.0
C1315 C 0.81384 0.83492 0.42709 0.0
C1316 C 0.42472 0.52301 0.85202 0.0
C1317 C 0.44105 0.52691 0.82185 0.0
C1318 C 0.44024 0.51348 0.88099 0.0
C1319 C 0.4725 0.50694 0.88079 0.0
H1320 H 0.40009 0.52827 0.85359 0.0
H1321 H 0.42713 0.51214 0.90401 0.0
S1322 S 0.52574 0.51189 0.80808 0.0
N1323 N 0.49151 0.52261 0.79375 0.0
N1324 N 0.51973 0.50365 0.84757 0.0
C1325 C 0.48861 0.50931 0.85051 0.0
C1326 C 0.47316 0.51962 0.82125 0.0
C1327 C 0.7935 0.21049 0.13642 0.0
C1328 C 0.81131 0.22342 0.10966 0.0
C1329 C 0.79375 0.23148 0.16694 0.0
C1330 C 0.81251 0.26584 0.17229 0.0
H1331 H 0.77729 0.18507 0.13291 0.0
H1332 H 0.77839 0.22074 0.18616 0.0
S1333 S 0.86534 0.31074 0.11049 0.0
N1334 N 0.84905 0.27201 0.09026 0.0
N1335 N 0.85086 0.31096 0.14864 0.0
C1336 C 0.8317 0.27844 0.14621 0.0
C1337 C 0.83086 0.25728 0.11472 0.0
C1338 C 0.07641 0.5353 0.32093 0.0
C1339 C 0.11073 0.54213 0.32068 0.0
C1340 C 0.06051 0.54207 0.35034 0.0
C1341 C 0.07827 0.55645 0.38041 0.0
H1342 H 0.06154 0.52289 0.2987 0.0
H1343 H 0.03417 0.53447 0.34986 0.0
S1344 S 0.16816 0.5842 0.39215 0.0
N1345 N 0.16185 0.56761 0.35219 0.0
N1346 N 0.13166 0.581 0.40778 0.0
C1347 C 0.1124 0.56618 0.38005 0.0
C1348 C 0.12875 0.5588 0.35004 0.0
C1349 C 0.75773 0.79339 0.60548 0.0
C1350 C 0.77256 0.82934 0.60678 0.0
C1351 C 0.75263 0.77586 0.635 0.0
C1352 C 0.76295 0.79317 0.66727 0.0
H1353 H 0.75092 0.77826 0.5812 0.0
H1354 H 0.74196 0.74803 0.63228 0.0
S1355 S 0.80196 0.88779 0.68487 0.0
N1356 N 0.79591 0.88208 0.64329 0.0
N1357 N 0.78776 0.84918 0.69851 0.0
C1358 C 0.77688 0.82949 0.66897 0.0
C1359 C 0.78131 0.84754 0.63889 0.0
C1360 C 0.71816 0.4942 0.53446 0.0
C1361 C 0.71562 0.46726 0.5076 0.0
C1362 C 0.6938 0.51534 0.53832 0.0
C1363 C 0.66672 0.51041 0.51502 0.0
H1364 H 0.73835 0.49806 0.55316 0.0
H1365 H 0.69555 0.5346 0.56017 0.0
S1366 S 0.65233 0.44722 0.43727 0.0
N1367 N 0.68613 0.43947 0.45566 0.0
N1368 N 0.64125 0.47915 0.46205 0.0
C1369 C 0.6654 0.48499 0.48695 0.0
C1370 C 0.68961 0.46339 0.48346 0.0
C1371 C 0.16987 0.09396 0.45114 0.0
C1372 C 0.17904 0.11951 0.47879 0.0
C1373 C 0.14191 0.06754 0.45154 0.0
C1374 C 0.12231 0.06526 0.47981 0.0
H1375 H 0.18392 0.09491 0.42873 0.0
H1376 H 0.13525 0.04914 0.42915 0.0
S1377 S 0.13861 0.12385 0.56018 0.0
N1378 N 0.168 0.13974 0.53602 0.0
N1379 N 0.11614 0.08982 0.53718 0.0
C1380 C 0.13225 0.0899 0.50816 0.0
C1381 C 0.16041 0.11708 0.50752 0.0
C1382 C 0.24576 0.94522 0.78093 0.0
C1383 C 0.21161 0.94072 0.77448 0.0
C1384 C 0.26324 0.91739 0.77355 0.0
C1385 C 0.24755 0.88394 0.75852 0.0
H1386 H 0.25907 0.97025 0.79273 0.0
H1387 H 0.28919 0.92204 0.78016 0.0
S1388 S 0.15839 0.85902 0.73466 0.0
N1389 N 0.16298 0.90041 0.75131 0.0
N1390 N 0.1952 0.8488 0.73643 0.0
C1391 C 0.2134 0.87958 0.75096 0.0
C1392 C 0.19565 0.90767 0.75918 0.0
C1393 C 0.38809 0.91917 0.94545 0.0
C1394 C 0.36216 0.92775 0.96448 0.0
C1395 C 0.41918 0.94086 0.94895 0.0
C1396 C 0.42531 0.97141 0.97199 0.0
H1397 H 0.38459 0.89517 0.92835 0.0
H1398 H 0.43886 0.93272 0.93493 0.0
S1399 S 0.3659 1.00717 0.0261 0.0
N1400 N 0.34487 0.97062 0.0058 0.0
N1401 N 0.40308 0.01045 0.01238 0.0
C1402 C 0.39949 0.981 0.99006 0.0
C1403 C 0.36794 0.95943 0.9863 0.0
C1404 C 0.84478 0.59645 0.75124 0.0
C1405 C 0.87562 0.60902 0.76801 0.0
C1406 C 0.82233 0.61912 0.74682 0.0
C1407 C 0.82984 0.6547 0.7599 0.0
H1408 H 0.83769 0.56876 0.74211 0.0
H1409 H 0.7987 0.60851 0.73423 0.0
S1410 S 0.90788 0.70079 0.80448 0.0
N1411 N 0.91296 0.65956 0.79615 0.0
N1412 N 0.8709 0.70188 0.78886 0.0
C1413 C 0.86099 0.66768 0.77587 0.0
C1414 C 0.88391 0.6449 0.77964 0.0
C1415 C 0.8879 0.63183 1.0008 0.0
C1416 C 0.85564 0.61615 0.0063 0.0
C1417 C 0.91405 0.61361 1.00474 0.0
C1418 C 0.90924 0.579 0.01469 0.0
H1419 H 0.89301 0.65821 0.99277 0.0
H1420 H 0.93832 0.62683 0.99979 0.0
S1421 S 0.82987 0.52625 0.03359 0.0
N1422 N 0.8206 0.56386 0.02309 0.0
N1423 N 0.86976 0.53009 0.03074 0.0
C1424 C 0.87727 0.56319 0.02088 0.0
C1425 C 0.85053 0.58161 0.01662 0.0
C1426 C 0.23138 0.13642 0.82294 0.0
C1427 C 0.19922 0.13159 0.80886 0.0
C1428 C 0.25529 0.16507 0.81572 0.0
C1429 C 0.24829 0.18939 0.7933 0.0
H1430 H 0.23815 0.11781 0.83952 0.0
H1431 H 0.27965 0.16772 0.8273 0.0
S1432 S 0.16839 0.18672 0.74756 0.0
N1433 N 0.16189 0.15311 0.77081 0.0
N1434 N 0.20699 0.20533 0.7558 0.0
C1435 C 0.21631 0.18446 0.77869 0.0
C1436 C 0.19178 0.15601 0.78683 0.0
C1437 C 0.35486 0.93085 0.30142 0.0
C1438 C 0.38508 0.92895 0.31778 0.0
C1439 C 0.33034 0.90114 0.29502 0.0
C1440 C 0.33459 0.86859 0.30556 0.0
H1441 H 0.35059 0.95496 0.29148 0.0
H1442 H 0.30831 0.9034 0.28065 0.0
S1443 S 0.40678 0.85018 0.35355 0.0
N1444 N 0.4165 0.89232 0.34719 0.0
N1445 N 0.36959 0.83645 0.33607 0.0
C1446 C 0.36342 0.86669 0.32432 0.0
C1447 C 0.38889 0.89691 0.33023 0.0
C1448 C 0.57042 0.39499 0.58128 0.0
C1449 C 0.55048 0.38692 0.60834 0.0
C1450 C 0.56583 0.42197 0.56112 0.0
C1451 C 0.5404 0.44119 0.56639 0.0
H1452 H 0.59004 0.3806 0.57586 0.0
H1453 H 0.5825 0.42799 0.54129 0.0
S1454 S 0.4808 0.43006 0.63331 0.0
N1455 N 0.50407 0.40036 0.6392 0.0
N1456 N 0.495 0.45038 0.60063 0.0
C1457 C 0.51987 0.43304 0.59293 0.0
C1458 C 0.52505 0.40613 0.61409 0.0
C1459 C 0.37614 0.75324 0.35064 0.0
C1460 C 0.40903 0.75614 0.34186 0.0
C1461 C 0.35062 0.7521 0.32608 0.0
C1462 C 0.35684 0.75394 0.29163 0.0
H1463 H 0.37008 0.75287 0.37684 0.0
H1464 H 0.32602 0.75109 0.33431 0.0
S1465 S 0.4378 0.7588 0.2545 0.0
N1466 N 0.44568 0.75856 0.29545 0.0
N1467 N 0.39796 0.75645 0.24972 0.0
C1468 C 0.38923 0.75522 0.28234 0.0
C1469 C 0.41523 0.75632 0.30717 0.0
C1470 C 0.03849 0.68085 0.10272 0.0
C1471 C 0.06873 0.70314 0.10113 0.0
C1472 C 0.03329 0.64567 0.08831 0.0
C1473 C 0.05822 0.63115 0.07206 0.0
H1474 H 0.01814 0.69116 0.11348 0.0
H1475 H 1.0091 0.63005 0.08912 0.0
S1476 S 0.14341 0.67731 0.06578 0.0
N1477 N 0.12506 0.70738 0.08531 0.0
N1478 N 0.11536 0.64117 0.05858 0.0
C1479 C 0.08926 0.6525 0.07248 0.0
C1480 C 0.09446 0.6885 0.08686 0.0
C1481 C 0.0979 0.27744 0.80195 0.0
C1482 C 0.09616 0.27527 0.83708 0.0
C1483 C 0.12786 0.27957 0.78622 0.0
C1484 C 0.15693 0.27867 0.80496 0.0
H1485 H 0.07605 0.27818 0.78659 0.0
H1486 H 0.1282 0.28153 0.75922 0.0
S1487 S 0.16537 0.27209 0.89742 0.0
N1488 N 0.12613 0.27204 0.88992 0.0
N1489 N 0.18197 0.27496 0.86048 0.0
C1490 C 0.15536 0.27592 0.83998 0.0
C1491 C 0.12511 0.27452 0.85602 0.0
C1492 C 0.52863 0.67039 0.93702 0.0
C1493 C 0.53918 0.70145 0.95865 0.0
C1494 C 0.52377 0.63699 0.94959 0.0
C1495 C 0.52949 0.63319 0.98429 0.0
H1496 H 0.52343 0.6719 0.91035 0.0
H1497 H 0.51579 0.61394 0.93172 0.0
S1498 S 0.55884 0.7065 0.05126 0.0
N1499 N 0.55637 0.7262 0.01637 0.0
N1500 N 0.54691 0.66393 0.03976 0.0
C1501 C 0.54033 0.66414 0.00604 0.0
C1502 C 0.54529 0.69803 0.9933 0.0
C1503 C 0.13877 0.7706 0.63297 0.0
C1504 C 0.10809 0.76975 0.64724 0.0
C1505 C 0.1661 0.76415 0.6516 0.0
C1506 C 0.1642 0.75615 0.68537 0.0
H1507 H 0.14195 0.77659 0.60709 0.0
H1508 H 0.1891 0.76589 0.63943 0.0
S1509 S 0.09008 0.74998 0.73513 0.0
N1510 N 0.07778 0.75976 0.69774 0.0
N1511 N 0.1291 0.74754 0.73248 0.0
C1512 C 0.13376 0.75467 0.69999 0.0
C1513 C 0.10583 0.76152 0.68108 0.0
C1514 C 0.06157 0.40906 0.42762 0.0
C1515 C 0.07231 0.38062 0.44172 0.0
C1516 C 0.05453 0.43811 0.44851 0.0
C1517 C 0.0579 0.43946 0.48406 0.0
H1518 H 0.05721 0.40817 0.40051 0.0
H1519 H 0.04519 0.45887 0.43683 0.0
S1520 S 0.08935 0.37402 0.53309 0.0
N1521 N 0.08911 0.35767 0.49328 0.0
N1522 N 0.07561 0.41148 0.53203 0.0
C1523 C 0.07021 0.41208 0.49816 0.0
C1524 C 0.07749 0.38289 0.47711 0.0
C1525 C 0.41108 0.30204 0.16828 0.0
C1526 C 0.43823 0.28828 0.18006 0.0
C1527 C 0.38436 0.30501 0.18852 0.0
C1528 C 0.38343 0.29422 0.2214 0.0
H1529 H 0.4102 0.3102 0.14295 0.0
H1530 H 0.3636 0.31444 0.17776 0.0
S1531 S 0.44792 0.25719 0.26505 0.0
N1532 N 0.46246 0.26487 0.22779 0.0
N1533 N 0.41189 0.26949 0.26499 0.0
C1534 C 0.41037 0.28087 0.23373 0.0
C1535 C 0.43784 0.27827 0.21337 0.0
C1536 C 0.59009 0.4838 0.38014 0.0
C1537 C 0.61918 0.50878 0.38023 0.0
C1538 C 0.5683 0.48495 0.40642 0.0
C1539 C 0.57417 0.51178 0.4335 0.0
H1540 H 0.5839 0.46336 0.35925 0.0
H1541 H 0.54632 0.46508 0.40507 0.0
S1542 S 0.64614 0.58498 0.44427 0.0
N1543 N 0.65255 0.56129 0.40928 0.0
N1544 N 0.61123 0.565 0.45755 0.0
C1545 C 0.60317 0.53721 0.43353 0.0
C1546 C 0.62574 0.53532 0.40725 0.0
C1547 C 0.28958 0.86855 0.09748 0.0
C1548 C 0.27326 0.84562 0.07035 0.0
C1549 C 0.29432 0.8562 0.12908 0.0
C1550 C 0.28313 0.82062 0.1341 0.0
H1551 H 0.29986 0.89566 0.0939 0.0
H1552 H 0.30753 0.8743 0.14938 0.0
S1553 S 0.23392 0.75196 0.07278 0.0
N1554 N 0.24221 0.78714 0.05179 0.0
N1555 N 0.25159 0.76393 0.11088 0.0
C1556 C 0.26528 0.79806 0.10771 0.0
C1557 C 0.26018 0.81062 0.07586 0.0
C1558 C 0.96067 0.55417 0.9086 0.0
C1559 C 0.97373 0.57128 0.88135 0.0
C1560 C 0.98102 0.54949 0.9359 0.0
C1561 C 1.0149 0.56261 0.9373 0.0
H1562 H 0.93515 0.54184 0.90762 0.0
H1563 H 0.97021 0.53373 0.95508 0.0
S1564 S 0.05994 0.6133 0.87369 0.0
N1565 N 0.02178 0.60384 0.85807 0.0
N1566 N 0.05992 0.59626 0.91035 0.0
C1567 C 0.02779 0.58202 0.91127 0.0
C1568 C 1.00715 0.58612 0.88306 0.0
C1569 C 0.24211 0.22453 0.60463 0.0
C1570 C 0.26767 0.21076 0.5889 0.0
C1571 C 0.24384 0.23537 0.63948 0.0
C1572 C 0.27144 0.23344 0.66019 0.0
H1573 H 0.22064 0.22751 0.58973 0.0
H1574 H 0.22377 0.24641 0.64997 0.0
S1575 S 0.34458 0.19783 0.63176 0.0
N1576 N 0.32083 0.19443 0.59701 0.0
N1577 N 0.32453 0.21488 0.66227 0.0
C1578 C 0.29683 0.21866 0.64492 0.0
C1579 C 0.29481 0.20726 0.60942 0.0
C1580 C 0.63399 0.54461 0.18325 0.0
C1581 C 0.61384 0.52559 0.20551 0.0
C1582 C 0.62115 0.55212 0.15187 0.0
C1583 C 0.58768 0.5416 0.14228 0.0
H1584 H 0.65923 0.55543 0.19091 0.0
H1585 H 0.6372 0.56737 0.13562 0.0
S1586 S 0.52609 0.48658 0.18937 0.0
N1587 N 0.55987 0.4929 0.21386 0.0
N1588 N 0.53579 0.5076 0.1558 0.0
C1589 C 0.5679 0.52095 0.16354 0.0
C1590 C 0.58099 0.51279 0.19488 0.0
C1591 C 0.22443 0.82329 0.89382 0.0
C1592 C 0.24484 0.85637 0.90176 0.0
C1593 C 0.22973 0.80044 0.86584 0.0
C1594 C 0.25634 0.80946 0.84563 0.0
H1595 H 0.20448 0.81486 0.90966 0.0
H1596 H 0.21285 0.77571 0.86 0.0
S1597 S 0.31938 0.89133 0.85918 0.0
N1598 N 0.29334 0.89629 0.88875 0.0
N1599 N 0.305 0.85269 0.83793 0.0
C1600 C 0.27757 0.84206 0.85436 0.0
C1601 C 0.27137 0.86574 0.88194 0.0
C1602 C 1.00744 0.52098 0.70356 0.0
C1603 C 0.97445 0.51881 0.71126 0.0
C1604 C 0.01675 0.52042 0.67025 0.0
C1605 C 0.9935 0.51775 0.64335 0.0
H1606 H 0.02647 0.52371 0.72342 0.0
H1607 H 0.04247 0.52255 0.66564 0.0
S1608 S 0.90389 0.50933 0.64928 0.0
N1609 N 0.91828 0.51247 0.6889 0.0
N1610 N 0.93604 0.51161 0.62595 0.0
C1611 C 0.96041 0.51514 0.65037 0.0
C1612 C 0.95082 0.51563 0.68443 0.0
C1613 C 0.283 0.19784 0.37572 0.0
C1614 C 0.29072 0.21385 0.40895 0.0
C1615 C 0.28731 0.21766 0.34754 0.0
C1616 C 0.30057 0.25415 0.35114 0.0
H1617 H 0.27282 0.16991 0.37148 0.0
H1618 H 0.27984 0.20424 0.32266 0.0
S1619 S 0.32617 0.30851 0.43261 0.0
N1620 N 0.31275 0.26855 0.44369 0.0
N1621 N 0.32191 0.30516 0.39092 0.0
C1622 C 0.30912 0.27026 0.38418 0.0
C1623 C 0.30392 0.25032 0.41294 0.0
C1624 C 0.36208 0.56769 0.52264 0.0
C1625 C 0.36697 0.60489 0.52317 0.0
C1626 C 0.38803 0.54906 0.5177 0.0
C1627 C 0.41973 0.56716 0.5137 0.0
H1628 H 0.33799 0.55283 0.52582 0.0
H1629 H 0.38348 0.52061 0.51802 0.0
S1630 S 0.44553 0.66404 0.51201 0.0
N1631 N 0.40609 0.65869 0.51829 0.0
N1632 N 0.45451 0.62399 0.50948 0.0
C1633 C 0.42483 0.60418 0.51383 0.0
C1634 C 0.39856 0.62299 0.51845 0.0
C1635 C 0.89639 0.96587 0.55137 0.0
C1636 C 0.88975 0.93835 0.52491 0.0
C1637 C 0.92619 0.99023 0.5542 0.0
C1638 C 0.95026 0.98872 0.53025 0.0
H1639 H 0.87893 0.96791 0.57065 0.0
H1640 H 0.93059 0.01016 0.57564 0.0
S1641 S 0.94353 0.92331 0.45465 0.0
N1642 N 0.90912 0.91213 0.47345 0.0
N1643 N 0.96409 0.95802 0.47824 0.0
C1644 C 0.94319 0.96212 0.50302 0.0
C1645 C 0.91328 0.93697 0.50051 0.0
C1646 C 0.82611 0.12529 0.23276 0.0
C1647 C 0.8574 0.12601 0.24813 0.0
C1648 C 0.80931 0.15396 0.23814 0.0
C1649 C 0.82281 0.18465 0.25946 0.0
H1650 H 0.81453 0.10246 0.21606 0.0
H1651 H 0.78585 0.15227 0.22484 0.0
S1652 S 0.90311 0.19894 0.30797 0.0
N1653 N 0.90048 0.15968 0.28681 0.0
N1654 N 0.86914 0.21277 0.29756 0.0
C1655 C 0.85378 0.18522 0.27571 0.0
C1656 C 0.87096 0.15624 0.26988 0.0
C1657 C 0.6583 0.12618 0.05118 0.0
C1658 C 0.68372 0.1161 0.03241 0.0
C1659 C 0.62746 0.10441 0.04986 0.0
C1660 C 0.62084 0.07237 0.02896 0.0
H1661 H 0.66205 0.1515 0.06628 0.0
H1662 H 0.60817 0.11376 0.06365 0.0
S1663 S 0.67943 0.03332 0.97605 0.0
N1664 N 0.70074 0.07108 0.99382 0.0
N1665 N 0.64249 0.03073 0.99047 0.0
C1666 C 0.64635 0.06144 0.01102 0.0
C1667 C 0.6779 0.08317 0.01298 0.0
C1668 C 0.23087 0.44831 0.23537 0.0
C1669 C 0.20191 0.44599 0.25285 0.0
C1670 C 0.25461 0.42826 0.24314 0.0
C1671 C 0.25067 0.40601 0.2693 0.0
H1672 H 0.235 0.46526 0.2151 0.0
H1673 H 0.27592 0.42963 0.22814 0.0
S1674 S 0.17961 0.39069 0.32309 0.0
N1675 N 0.17078 0.41963 0.29769 0.0
N1676 N 0.21577 0.38261 0.31271 0.0
C1677 C 0.22225 0.40403 0.28754 0.0
C1678 C 0.19773 0.42381 0.27915 0.0
C1679 C 0.21011 0.47757 0.02801 0.0
C1680 C 0.20604 0.44057 0.02886 0.0
C1681 C 0.18314 0.49475 0.02414 0.0
C1682 C 0.15093 0.47574 0.02159 0.0
H1683 H 0.23442 0.49335 0.02948 0.0
H1684 H 0.18756 0.52312 0.02325 0.0
S1685 S 0.1267 0.37871 0.02383 0.0
N1686 N 0.16698 0.38576 0.02745 0.0
N1687 N 0.11657 0.41786 0.02111 0.0
C1688 C 0.14651 0.43888 0.02318 0.0
C1689 C 0.17393 0.42137 0.02654 0.0
C1690 C 0.83311 0.92977 0.25321 0.0
C1691 C 0.85784 0.93007 0.22998 0.0
C1692 C 0.81051 0.89875 0.25648 0.0
C1693 C 0.81155 0.86723 0.23621 0.0
H1694 H 0.83212 0.95323 0.26999 0.0
H1695 H 0.79256 0.89922 0.27548 0.0
S1696 S 0.86872 0.85543 0.16867 0.0
N1697 N 0.88065 0.89679 0.18499 0.0
N1698 N 0.83707 0.83914 0.18988 0.0
C1699 C 0.83503 0.86768 0.21175 0.0
C1700 C 0.85849 0.89896 0.20897 0.0
C1701 C 0.67038 0.16071 0.71435 0.0
C1702 C 0.67707 0.12968 0.72701 0.0
C1703 C 0.69469 0.1911 0.71543 0.0
C1704 C 0.72618 0.19133 0.72953 0.0
H1705 H 0.64598 0.16193 0.70471 0.0
H1706 H 0.68815 0.21523 0.70761 0.0
S1707 S 0.7569 0.11703 0.7645 0.0
N1708 N 0.71847 0.10095 0.75238 0.0
N1709 N 0.7634 0.15821 0.75476 0.0
C1710 C 0.73362 0.16018 0.7406 0.0
C1711 C 0.70924 0.12927 0.73927 0.0
loop_
_geom_bond_atom_site_label_1
_geom_bond_atom_site_label_2
_geom_bond_distance
_geom_bond_site_symmetry_2
_ccdc_geom_bond_type
Co0 O1 2.216 . S
Co0 O2 2.091 . S
Co0 O4 2.004 1_455 S
Co0 O10 2.021 . S
Co0 O12 2.137 . S
Co0 O13 2.244 . S
O1 Co0 2.216 . S
O1 C8 1.247 . S
O2 Co0 2.091 . S
O2 C8 1.261 . S
C3 O12 1.247 . S
C3 O13 1.272 . S
O4 Co0 2.004 1_655 S
O4 C9 1.259 . S
Co5 O6 2.061 . S
Co5 O11 2.052 1_655 S
Co5 O13 2.135 1_655 S
O6 Co5 2.061 . S
O6 C9 1.235 . S
C7 O10 1.238 . S
C7 O11 1.241 . S
C8 O1 1.247 . S
C8 O2 1.261 . S
C9 O4 1.259 . S
C9 O6 1.235 . S
O10 Co0 2.021 . S
O10 C7 1.238 . S
O11 Co5 2.052 1_455 S
O11 C7 1.241 . S
O12 Co0 2.137 . S
O12 C3 1.247 . S
O13 Co0 2.244 . S
O13 C3 1.272 . S
O13 Co5 2.135 1_455 S
Co14 O15 2.193 1_455 S
Co14 O16 2.076 1_455 S
Co14 O18 2.024 . S
Co14 O24 2.025 1_455 S
Co14 O26 2.134 . S
Co14 O27 2.250 . S
O15 Co14 2.193 1_655 S
O15 C22 1.247 . S
O16 Co14 2.076 1_655 S
O16 C22 1.261 . S
C17 O26 1.247 . S
C17 O27 1.272 . S
O18 Co14 2.024 . S
O18 C23 1.259 . S
Co19 O20 2.061 . S
Co19 O25 2.052 . S
Co19 O27 2.135 . S
O20 Co19 2.061 . S
O20 C23 1.235 . S
C21 O24 1.238 1_455 S
C21 O25 1.241 . S
C22 O15 1.247 . S
C22 O16 1.261 . S
C23 O18 1.259 . S
C23 O20 1.235 . S
O24 Co14 2.025 1_655 S
O24 C21 1.238 1_655 S
O25 Co19 2.052 . S
O25 C21 1.241 . S
O26 Co14 2.134 . S
O26 C17 1.247 . S
O27 Co14 2.250 . S
O27 C17 1.272 . S
O27 Co19 2.135 . S
Co28 O29 2.216 . S
Co28 O30 2.091 . S
Co28 O32 2.004 . S
Co28 O38 2.021 . S
Co28 O40 2.137 . S
Co28 O41 2.244 . S
O29 Co28 2.216 . S
O29 C36 1.247 . S
O30 Co28 2.091 . S
O30 C36 1.261 . S
C31 O40 1.247 . S
C31 O41 1.272 . S
O32 Co28 2.004 . S
O32 C37 1.259 . S
Co33 O34 2.061 . S
Co33 O39 2.052 . S
Co33 O41 2.135 . S
O34 Co33 2.061 . S
O34 C37 1.235 . S
C35 O38 1.238 . S
C35 O39 1.241 . S
C36 O29 1.247 . S
C36 O30 1.261 . S
C37 O32 1.259 . S
C37 O34 1.235 . S
O38 Co28 2.021 . S
O38 C35 1.238 . S
O39 Co33 2.052 . S
O39 C35 1.241 . S
O40 Co28 2.137 . S
O40 C31 1.247 . S
O41 Co28 2.244 . S
O41 C31 1.272 . S
O41 Co33 2.135 . S
Co42 O43 2.216 . S
Co42 O44 2.091 . S
Co42 O46 2.004 . S
Co42 O52 2.021 . S
Co42 O54 2.137 . S
Co42 O55 2.244 . S
O43 Co42 2.216 . S
O43 C50 1.247 . S
O44 Co42 2.091 . S
O44 C50 1.261 . S
C45 O54 1.247 . S
C45 O55 1.272 . S
O46 Co42 2.004 . S
O46 C51 1.259 . S
Co47 O48 2.061 . S
Co47 O53 2.052 . S
Co47 O55 2.135 . S
O48 Co47 2.061 . S
O48 C51 1.235 . S
C49 O52 1.238 . S
C49 O53 1.241 . S
C50 O43 1.247 . S
C50 O44 1.261 . S
C51 O46 1.259 . S
C51 O48 1.235 . S
O52 Co42 2.021 . S
O52 C49 1.238 . S
O53 Co47 2.052 . S
O53 C49 1.241 . S
O54 Co42 2.137 . S
O54 C45 1.247 . S
O55 Co42 2.244 . S
O55 C45 1.272 . S
O55 Co47 2.135 . S
Co56 O57 2.216 1_455 S
Co56 O58 2.091 1_455 S
Co56 O60 2.004 . S
Co56 O66 2.021 . S
Co56 O68 2.137 . S
Co56 O69 2.244 . S
O57 Co56 2.216 1_655 S
O57 C64 1.247 . S
O58 Co56 2.091 1_655 S
O58 C64 1.261 . S
C59 O68 1.247 . S
C59 O69 1.272 . S
O60 Co56 2.004 . S
O60 C65 1.259 . S
Co61 O62 2.061 . S
Co61 O67 2.052 . S
Co61 O69 2.135 . S
O62 Co61 2.061 . S
O62 C65 1.235 . S
C63 O66 1.238 . S
C63 O67 1.241 . S
C64 O57 1.247 . S
C64 O58 1.261 . S
C65 O60 1.259 . S
C65 O62 1.235 . S
O66 Co56 2.021 . S
O66 C63 1.238 . S
O67 Co61 2.052 . S
O67 C63 1.241 . S
O68 Co56 2.137 . S
O68 C59 1.247 . S
O69 Co56 2.244 . S
O69 C59 1.272 . S
O69 Co61 2.135 . S
Co70 O71 2.216 . S
Co70 O72 2.091 . S
Co70 O74 2.004 . S
Co70 O80 2.021 . S
Co70 O82 2.137 . S
Co70 O83 2.244 . S
O71 Co70 2.216 . S
O71 C78 1.247 . S
O72 Co70 2.091 . S
O72 C78 1.261 . S
C73 O82 1.247 . S
C73 O83 1.272 . S
O74 Co70 2.004 . S
O74 C79 1.259 . S
Co75 O76 2.061 . S
Co75 O81 2.052 . S
Co75 O83 2.135 . S
O76 Co75 2.061 . S
O76 C79 1.235 . S
C77 O80 1.238 . S
C77 O81 1.241 . S
C78 O71 1.247 . S
C78 O72 1.261 . S
C79 O74 1.259 . S
C79 O76 1.235 . S
O80 Co70 2.021 . S
O80 C77 1.238 . S
O81 Co75 2.052 . S
O81 C77 1.241 . S
O82 Co70 2.137 . S
O82 C73 1.247 . S
O83 Co70 2.244 . S
O83 C73 1.272 . S
O83 Co75 2.135 . S
Co84 O85 2.216 . S
Co84 O86 2.091 . S
Co84 O88 2.004 . S
Co84 O94 2.021 . S
Co84 O96 2.137 . S
Co84 O97 2.244 . S
O85 Co84 2.216 . S
O85 C92 1.247 . S
O86 Co84 2.091 . S
O86 C92 1.261 . S
C87 O96 1.247 . S
C87 O97 1.272 . S
O88 Co84 2.004 . S
O88 C93 1.259 . S
Co89 O90 2.061 . S
Co89 O95 2.052 . S
Co89 O97 2.135 . S
O90 Co89 2.061 . S
O90 C93 1.235 . S
C91 O94 1.238 . S
C91 O95 1.241 . S
C92 O85 1.247 . S
C92 O86 1.261 . S
C93 O88 1.259 . S
C93 O90 1.235 . S
O94 Co84 2.021 . S
O94 C91 1.238 . S
O95 Co89 2.052 . S
O95 C91 1.241 . S
O96 Co84 2.137 . S
O96 C87 1.247 . S
O97 Co84 2.244 . S
O97 C87 1.272 . S
O97 Co89 2.135 . S
Co98 O99 2.216 . S
Co98 O100 2.091 . S
Co98 O102 2.004 1_455 S
Co98 O108 2.021 1_455 S
Co98 O110 2.137 . S
Co98 O111 2.244 1_455 S
O99 Co98 2.216 . S
O99 C106 1.247 . S
O100 Co98 2.091 . S
O100 C106 1.261 . S
C101 O110 1.247 . S
C101 O111 1.272 1_455 S
O102 Co98 2.004 1_655 S
O102 C107 1.259 . S
Co103 O104 2.061 . S
Co103 O109 2.052 . S
Co103 O111 2.135 . S
O104 Co103 2.061 . S
O104 C107 1.235 . S
C105 O108 1.240 . S
C105 O109 1.241 . S
C106 O99 1.247 . S
C106 O100 1.261 . S
C107 O102 1.259 . S
C107 O104 1.235 . S
O108 Co98 2.021 1_655 S
O108 C105 1.240 . S
O109 Co103 2.052 . S
O109 C105 1.241 . S
O110 Co98 2.137 . S
O110 C101 1.247 . S
O111 Co98 2.244 1_655 S
O111 C101 1.272 1_655 S
O111 Co103 2.135 . S
Co112 O113 2.216 . S
Co112 O114 2.091 . S
Co112 O116 2.004 1_545 S
Co112 O122 2.021 . S
Co112 O124 2.137 . S
Co112 O125 2.244 . S
O113 Co112 2.216 . S
O113 C120 1.247 . S
O114 Co112 2.091 . S
O114 C120 1.261 . S
C115 O124 1.247 . S
C115 O125 1.272 . S
O116 Co112 2.004 1_565 S
O116 C121 1.259 . S
Co117 O118 2.061 . S
Co117 O123 2.072 . S
Co117 O125 2.135 1_565 S
O118 Co117 2.061 . S
O118 C121 1.235 . S
C119 O122 1.238 . S
C119 O123 1.224 1_545 S
C120 O113 1.247 . S
C120 O114 1.261 . S
C121 O116 1.259 . S
C121 O118 1.235 . S
O122 Co112 2.021 . S
O122 C119 1.238 . S
O123 Co117 2.072 . S
O123 C119 1.224 1_565 S
O124 Co112 2.137 . S
O124 C115 1.247 . S
O125 Co112 2.244 . S
O125 C115 1.272 . S
O125 Co117 2.135 1_545 S
Co126 O127 2.216 . S
Co126 O128 2.091 . S
Co126 O130 2.004 . S
Co126 O136 2.021 . S
Co126 O138 2.137 . S
Co126 O139 2.244 . S
O127 Co126 2.216 . S
O127 C134 1.247 . S
O128 Co126 2.091 . S
O128 C134 1.261 . S
C129 O138 1.247 . S
C129 O139 1.272 . S
O130 Co126 2.004 . S
O130 C135 1.259 . S
Co131 O132 2.061 . S
Co131 O137 2.052 . S
Co131 O139 2.135 . S
O132 Co131 2.061 . S
O132 C135 1.235 . S
C133 O136 1.238 . S
C133 O137 1.241 . S
C134 O127 1.247 . S
C134 O128 1.261 . S
C135 O130 1.259 . S
C135 O132 1.235 . S
O136 Co126 2.021 . S
O136 C133 1.238 . S
O137 Co131 2.052 . S
O137 C133 1.241 . S
O138 Co126 2.137 . S
O138 C129 1.247 . S
O139 Co126 2.244 . S
O139 C129 1.272 . S
O139 Co131 2.135 . S
Co140 O141 2.216 . S
Co140 O142 2.091 . S
Co140 O144 2.004 1_565 S
Co140 O150 2.021 . S
Co140 O152 2.137 . S
Co140 O153 2.244 1_565 S
O141 Co140 2.216 . S
O141 C148 1.247 . S
O142 Co140 2.091 . S
O142 C148 1.261 . S
C143 O152 1.233 1_545 S
C143 O153 1.283 . S
O144 Co140 2.004 1_545 S
O144 C149 1.259 . S
Co145 O146 2.061 . S
Co145 O151 2.052 . S
Co145 O153 2.135 . S
O146 Co145 2.061 . S
O146 C149 1.235 . S
C147 O150 1.238 . S
C147 O151 1.241 1_565 S
C148 O141 1.247 . S
C148 O142 1.261 . S
C149 O144 1.259 . S
C149 O146 1.235 . S
O150 Co140 2.021 . S
O150 C147 1.238 . S
O151 Co145 2.052 . S
O151 C147 1.241 1_545 S
O152 Co140 2.137 . S
O152 C143 1.233 1_565 S
O153 Co140 2.244 1_545 S
O153 C143 1.283 . S
O153 Co145 2.135 . S
Co154 O155 2.216 . S
Co154 O156 2.091 . S
Co154 O158 2.004 . S
Co154 O164 2.021 . S
Co154 O166 2.137 1_554 S
Co154 O167 2.244 1_554 S
O155 Co154 2.216 . S
O155 C162 1.247 . S
O156 Co154 2.091 . S
O156 C162 1.261 . S
C157 O166 1.247 . S
C157 O167 1.272 . S
O158 Co154 2.004 . S
O158 C163 1.259 . S
Co159 O160 2.061 . S
Co159 O165 2.052 . S
Co159 O167 2.135 1_554 S
O160 Co159 2.061 . S
O160 C163 1.235 . S
C161 O164 1.238 . S
C161 O165 1.241 . S
C162 O155 1.247 . S
C162 O156 1.261 . S
C163 O158 1.259 . S
C163 O160 1.235 . S
O164 Co154 2.021 . S
O164 C161 1.238 . S
O165 Co159 2.052 . S
O165 C161 1.241 . S
O166 Co154 2.137 1_556 S
O166 C157 1.247 . S
O167 Co154 2.244 1_556 S
O167 C157 1.272 . S
O167 Co159 2.135 1_556 S
Co168 O169 2.216 . S
Co168 O170 2.091 . S
Co168 O172 2.004 . S
Co168 O178 2.021 . S
Co168 O180 2.137 1_554 S
Co168 O181 2.244 1_554 S
O169 Co168 2.216 . S
O169 C176 1.247 . S
O170 Co168 2.091 . S
O170 C176 1.261 . S
C171 O180 1.247 . S
C171 O181 1.272 . S
O172 Co168 2.004 . S
O172 C177 1.259 . S
Co173 O174 2.061 . S
Co173 O179 2.052 . S
Co173 O181 2.135 1_554 S
O174 Co173 2.061 . S
O174 C177 1.235 . S
C175 O178 1.238 . S
C175 O179 1.241 . S
C176 O169 1.247 . S
C176 O170 1.261 . S
C177 O172 1.259 . S
C177 O174 1.235 . S
O178 Co168 2.021 . S
O178 C175 1.238 . S
O179 Co173 2.052 . S
O179 C175 1.241 . S
O180 Co168 2.137 1_556 S
O180 C171 1.247 . S
O181 Co168 2.244 1_556 S
O181 C171 1.272 . S
O181 Co173 2.135 1_556 S
Co182 O183 2.216 1_556 S
Co182 O184 2.090 1_556 S
Co182 O186 2.004 . S
Co182 O192 2.021 1_556 S
Co182 O194 2.137 . S
Co182 O195 2.244 . S
O183 Co182 2.216 1_554 S
O183 C190 1.247 . S
O184 Co182 2.090 1_554 S
O184 C190 1.261 . S
C185 O194 1.247 . S
C185 O195 1.272 . S
O186 Co182 2.004 . S
O186 C191 1.259 . S
Co187 O188 2.061 . S
Co187 O193 2.052 . S
Co187 O195 2.135 1_554 S
O188 Co187 2.061 . S
O188 C191 1.235 1_554 S
C189 O192 1.238 . S
C189 O193 1.241 . S
C190 O183 1.247 . S
C190 O184 1.261 . S
C191 O186 1.259 . S
C191 O188 1.235 1_556 S
O192 Co182 2.021 1_554 S
O192 C189 1.238 . S
O193 Co187 2.052 . S
O193 C189 1.241 . S
O194 Co182 2.137 . S
O194 C185 1.247 . S
O195 Co182 2.244 . S
O195 C185 1.272 . S
O195 Co187 2.135 1_556 S
Co196 O197 2.216 . S
Co196 O198 2.091 . S
Co196 O200 2.004 . S
Co196 O206 2.021 . S
Co196 O208 2.137 . S
Co196 O209 2.244 . S
O197 Co196 2.216 . S
O197 C204 1.247 . S
O198 Co196 2.091 . S
O198 C204 1.261 . S
C199 O208 1.247 . S
C199 O209 1.272 . S
O200 Co196 2.004 . S
O200 C205 1.259 . S
Co201 O202 2.061 . S
Co201 O207 2.052 . S
Co201 O209 2.135 . S
O202 Co201 2.061 . S
O202 C205 1.235 . S
C203 O206 1.238 . S
C203 O207 1.241 . S
C204 O197 1.247 . S
C204 O198 1.261 . S
C205 O200 1.259 . S
C205 O202 1.235 . S
O206 Co196 2.021 . S
O206 C203 1.238 . S
O207 Co201 2.052 . S
O207 C203 1.241 . S
O208 Co196 2.137 . S
O208 C199 1.247 . S
O209 Co196 2.244 . S
O209 C199 1.272 . S
O209 Co201 2.135 . S
Co210 O211 2.216 . S
Co210 O212 2.091 . S
Co210 O214 2.004 . S
Co210 O220 2.021 . S
Co210 O222 2.137 . S
Co210 O223 2.244 . S
O211 Co210 2.216 . S
O211 C218 1.247 . S
O212 Co210 2.091 . S
O212 C218 1.261 . S
C213 O222 1.247 . S
C213 O223 1.272 . S
O214 Co210 2.004 . S
O214 C219 1.259 . S
Co215 O216 2.061 . S
Co215 O221 2.052 . S
Co215 O223 2.135 . S
O216 Co215 2.061 . S
O216 C219 1.235 . S
C217 O220 1.238 . S
C217 O221 1.241 . S
C218 O211 1.247 . S
C218 O212 1.261 . S
C219 O214 1.259 . S
C219 O216 1.235 . S
O220 Co210 2.021 . S
O220 C217 1.238 . S
O221 Co215 2.052 . S
O221 C217 1.241 . S
O222 Co210 2.137 . S
O222 C213 1.247 . S
O223 Co210 2.244 . S
O223 C213 1.272 . S
O223 Co215 2.135 . S
Co224 O225 2.216 . S
Co224 O226 2.091 . S
Co224 O228 2.004 . S
Co224 O234 2.021 . S
Co224 O236 2.137 . S
Co224 O237 2.244 . S
O225 Co224 2.216 . S
O225 C232 1.247 . S
O226 Co224 2.091 . S
O226 C232 1.261 . S
C227 O236 1.247 . S
C227 O237 1.272 . S
O228 Co224 2.004 . S
O228 C233 1.259 1_545 S
Co229 O230 2.061 . S
Co229 O235 2.052 1_565 S
Co229 O237 2.135 1_565 S
O230 Co229 2.061 . S
O230 C233 1.235 . S
C231 O234 1.238 . S
C231 O235 1.241 . S
C232 O225 1.247 . S
C232 O226 1.261 . S
C233 O228 1.259 1_565 S
C233 O230 1.235 . S
O234 Co224 2.021 . S
O234 C231 1.238 . S
O235 Co229 2.052 1_545 S
O235 C231 1.241 . S
O236 Co224 2.137 . S
O236 C227 1.247 . S
O237 Co224 2.244 . S
O237 C227 1.272 . S
O237 Co229 2.135 1_545 S
Co238 O239 2.216 . S
Co238 O240 2.091 . S
Co238 O242 2.004 . S
Co238 O248 2.021 . S
Co238 O250 2.137 . S
Co238 O251 2.244 . S
O239 Co238 2.216 . S
O239 C246 1.247 . S
O240 Co238 2.091 . S
O240 C246 1.261 . S
C241 O250 1.247 . S
C241 O251 1.272 . S
O242 Co238 2.004 . S
O242 C247 1.259 . S
Co243 O244 2.061 . S
Co243 O249 2.052 . S
Co243 O251 2.135 . S
O244 Co243 2.061 . S
O244 C247 1.235 . S
C245 O248 1.238 . S
C245 O249 1.241 . S
C246 O239 1.247 . S
C246 O240 1.261 . S
C247 O242 1.259 . S
C247 O244 1.235 . S
O248 Co238 2.021 . S
O248 C245 1.238 . S
O249 Co243 2.052 . S
O249 C245 1.241 . S
O250 Co238 2.137 . S
O250 C241 1.247 . S
O251 Co238 2.244 . S
O251 C241 1.272 . S
O251 Co243 2.135 . S
Co252 O253 2.216 . S
Co252 O254 2.091 . S
Co252 O256 2.004 . S
Co252 O262 2.021 . S
Co252 O264 2.137 . S
Co252 O265 2.244 . S
O253 Co252 2.216 . S
O253 C260 1.247 . S
O254 Co252 2.091 . S
O254 C260 1.261 . S
C255 O264 1.247 . S
C255 O265 1.272 . S
O256 Co252 2.004 . S
O256 C261 1.259 . S
Co257 O258 2.061 . S
Co257 O263 2.052 . S
Co257 O265 2.135 . S
O258 Co257 2.061 . S
O258 C261 1.235 . S
C259 O262 1.238 . S
C259 O263 1.241 . S
C260 O253 1.247 . S
C260 O254 1.261 . S
C261 O256 1.259 . S
C261 O258 1.235 . S
O262 Co252 2.021 . S
O262 C259 1.238 . S
O263 Co257 2.052 . S
O263 C259 1.241 . S
O264 Co252 2.137 . S
O264 C255 1.247 . S
O265 Co252 2.244 . S
O265 C255 1.272 . S
O265 Co257 2.135 . S
Co266 O267 2.216 1_545 S
Co266 O268 2.091 1_545 S
Co266 O270 2.004 . S
Co266 O276 2.021 . S
Co266 O278 2.137 . S
Co266 O279 2.244 . S
O267 Co266 2.216 1_565 S
O267 C274 1.247 . S
O268 Co266 2.091 1_565 S
O268 C274 1.261 . S
C269 O278 1.247 . S
C269 O279 1.272 . S
O270 Co266 2.004 . S
O270 C275 1.259 . S
Co271 O272 2.061 . S
Co271 O277 2.052 . S
Co271 O279 2.135 . S
O272 Co271 2.061 . S
O272 C275 1.235 . S
C273 O276 1.238 . S
C273 O277 1.241 . S
C274 O267 1.247 . S
C274 O268 1.261 . S
C275 O270 1.259 . S
C275 O272 1.235 . S
O276 Co266 2.021 . S
O276 C273 1.238 . S
O277 Co271 2.052 . S
O277 C273 1.241 . S
O278 Co266 2.137 . S
O278 C269 1.247 . S
O279 Co266 2.244 . S
O279 C269 1.272 . S
O279 Co271 2.135 . S
Co280 O281 2.216 1_556 S
Co280 O282 2.091 1_556 S
Co280 O284 2.004 . S
Co280 O290 2.021 1_556 S
Co280 O292 2.137 . S
Co280 O293 2.244 . S
O281 Co280 2.216 1_554 S
O281 C288 1.247 . S
O282 Co280 2.091 1_554 S
O282 C288 1.261 . S
C283 O292 1.247 . S
C283 O293 1.272 . S
O284 Co280 2.004 . S
O284 C289 1.259 . S
Co285 O286 2.061 . S
Co285 O291 2.052 . S
Co285 O293 2.135 1_554 S
O286 Co285 2.061 . S
O286 C289 1.235 1_554 S
C287 O290 1.238 . S
C287 O291 1.241 . S
C288 O281 1.247 . S
C288 O282 1.261 . S
C289 O284 1.259 . S
C289 O286 1.235 1_556 S
O290 Co280 2.021 1_554 S
O290 C287 1.238 . S
O291 Co285 2.052 . S
O291 C287 1.241 . S
O292 Co280 2.137 . S
O292 C283 1.247 . S
O293 Co280 2.244 . S
O293 C283 1.272 . S
O293 Co285 2.135 1_556 S
Co294 O295 2.216 . S
Co294 O296 2.091 . S
Co294 O298 2.004 . S
Co294 O304 2.021 . S
Co294 O306 2.137 . S
Co294 O307 2.244 . S
O295 Co294 2.216 . S
O295 C302 1.247 . S
O296 Co294 2.091 . S
O296 C302 1.261 . S
C297 O306 1.247 . S
C297 O307 1.272 . S
O298 Co294 2.004 . S
O298 C303 1.259 . S
Co299 O300 2.061 . S
Co299 O305 2.052 . S
Co299 O307 2.135 . S
O300 Co299 2.061 . S
O300 C303 1.235 . S
C301 O304 1.238 . S
C301 O305 1.241 . S
C302 O295 1.247 . S
C302 O296 1.261 . S
C303 O298 1.259 . S
C303 O300 1.235 . S
O304 Co294 2.021 . S
O304 C301 1.238 . S
O305 Co299 2.052 . S
O305 C301 1.241 . S
O306 Co294 2.137 . S
O306 C297 1.247 . S
O307 Co294 2.244 . S
O307 C297 1.272 . S
O307 Co299 2.135 . S
Co308 O309 2.216 . S
Co308 O310 2.091 . S
Co308 O312 2.004 . S
Co308 O318 2.021 . S
Co308 O320 2.137 . S
Co308 O321 2.244 . S
O309 Co308 2.216 . S
O309 C316 1.247 . S
O310 Co308 2.091 . S
O310 C316 1.261 . S
C311 O320 1.247 . S
C311 O321 1.272 . S
O312 Co308 2.004 . S
O312 C317 1.259 . S
Co313 O314 2.061 . S
Co313 O319 2.052 . S
Co313 O321 2.135 . S
O314 Co313 2.061 . S
O314 C317 1.235 . S
C315 O318 1.238 . S
C315 O319 1.241 . S
C316 O309 1.247 . S
C316 O310 1.261 . S
C317 O312 1.259 . S
C317 O314 1.235 . S
O318 Co308 2.021 . S
O318 C315 1.238 . S
O319 Co313 2.052 . S
O319 C315 1.241 . S
O320 Co308 2.137 . S
O320 C311 1.247 . S
O321 Co308 2.244 . S
O321 C311 1.272 . S
O321 Co313 2.135 . S
Co322 O323 2.216 . S
Co322 O324 2.091 . S
Co322 O326 2.004 . S
Co322 O332 2.021 . S
Co322 O334 2.137 . S
Co322 O335 2.244 . S
O323 Co322 2.216 . S
O323 C330 1.247 . S
O324 Co322 2.091 . S
O324 C330 1.261 . S
C325 O334 1.247 . S
C325 O335 1.272 . S
O326 Co322 2.004 . S
O326 C331 1.259 . S
Co327 O328 2.061 . S
Co327 O333 2.052 . S
Co327 O335 2.135 . S
O328 Co327 2.061 . S
O328 C331 1.235 . S
C329 O332 1.238 . S
C329 O333 1.241 . S
C330 O323 1.247 . S
C330 O324 1.261 . S
C331 O326 1.259 . S
C331 O328 1.235 . S
O332 Co322 2.021 . S
O332 C329 1.238 . S
O333 Co327 2.052 . S
O333 C329 1.241 . S
O334 Co322 2.137 . S
O334 C325 1.247 . S
O335 Co322 2.244 . S
O335 C325 1.272 . S
O335 Co327 2.135 . S
Dy336 O340 2.398 . S
Dy336 O341 2.491 1_556 S
Dy336 O342 2.403 . S
Dy336 O343 2.664 1_655 S
Dy336 O347 2.326 . S
Dy336 O351 2.310 1_656 S
Dy336 O352 2.351 1_546 S
C337 O348 1.185 . S
C337 O349 1.355 1_545 S
C338 O340 1.185 . S
C338 O341 1.355 1_556 S
Dy339 O343 2.310 1_554 S
Dy339 O346 2.351 . S
Dy339 O348 2.398 . S
Dy339 O349 2.491 1_545 S
Dy339 O350 2.403 . S
Dy339 O351 2.664 . S
Dy339 O353 2.326 1_545 S
O340 Dy336 2.398 . S
O340 C338 1.185 . S
O341 Dy336 2.491 1_554 S
O341 C338 1.355 1_554 S
O342 Dy336 2.403 . S
O342 C344 1.254 1_655 S
O343 Dy336 2.664 1_455 S
O343 Dy339 2.310 1_556 S
O343 C344 1.268 . S
C344 O342 1.254 1_455 S
C344 O343 1.268 . S
C345 O350 1.254 . S
C345 O351 1.268 . S
O346 Dy339 2.351 . S
O346 C354 1.249 1_554 S
O347 Dy336 2.326 . S
O347 C354 1.267 1_655 S
O348 C337 1.185 . S
O348 Dy339 2.398 . S
O349 C337 1.355 1_565 S
O349 Dy339 2.491 1_565 S
O350 Dy339 2.403 . S
O350 C345 1.254 . S
O351 Dy336 2.310 1_454 S
O351 Dy339 2.664 . S
O351 C345 1.268 . S
O352 Dy336 2.351 1_564 S
O352 C355 1.249 1_655 S
O353 Dy339 2.326 1_565 S
O353 C355 1.267 . S
C354 O346 1.249 1_556 S
C354 O347 1.267 1_455 S
C355 O352 1.249 1_455 S
C355 O353 1.267 . S
Dy356 O360 2.398 . S
Dy356 O361 2.491 . S
Dy356 O362 2.403 . S
Dy356 O363 2.664 . S
Dy356 O367 2.326 . S
Dy356 O371 2.310 . S
Dy356 O372 2.351 . S
C357 O368 1.185 . S
C357 O369 1.355 . S
C358 O360 1.185 . S
C358 O361 1.355 . S
Dy359 O363 2.310 . S
Dy359 O366 2.351 . S
Dy359 O368 2.398 . S
Dy359 O369 2.491 . S
Dy359 O370 2.403 . S
Dy359 O371 2.664 . S
Dy359 O373 2.326 . S
O360 Dy356 2.398 . S
O360 C358 1.185 . S
O361 Dy356 2.491 . S
O361 C358 1.355 . S
O362 Dy356 2.403 . S
O362 C364 1.254 . S
O363 Dy356 2.664 . S
O363 Dy359 2.310 . S
O363 C364 1.268 . S
C364 O362 1.254 . S
C364 O363 1.268 . S
C365 O370 1.254 . S
C365 O371 1.268 . S
O366 Dy359 2.351 . S
O366 C374 1.249 . S
O367 Dy356 2.326 . S
O367 C374 1.267 . S
O368 C357 1.185 . S
O368 Dy359 2.398 . S
O369 C357 1.355 . S
O369 Dy359 2.491 . S
O370 Dy359 2.403 . S
O370 C365 1.254 . S
O371 Dy356 2.310 . S
O371 Dy359 2.664 . S
O371 C365 1.268 . S
O372 Dy356 2.351 . S
O372 C375 1.249 . S
O373 Dy359 2.326 . S
O373 C375 1.267 . S
C374 O366 1.249 . S
C374 O367 1.267 . S
C375 O372 1.249 . S
C375 O373 1.267 . S
Dy376 O380 2.405 . S
Dy376 O381 2.491 1_545 S
Dy376 O382 2.403 . S
Dy376 O383 2.664 . S
Dy376 O387 2.326 1_545 S
Dy376 O391 2.310 . S
Dy376 O392 2.351 . S
C377 O388 1.185 . S
C377 O389 1.355 . S
C378 O380 1.175 1_565 S
C378 O381 1.355 . S
Dy379 O383 2.310 . S
Dy379 O386 2.351 1_545 S
Dy379 O388 2.398 . S
Dy379 O389 2.491 . S
Dy379 O390 2.403 . S
Dy379 O391 2.664 . S
Dy379 O393 2.326 . S
O380 Dy376 2.405 . S
O380 C378 1.175 1_545 S
O381 Dy376 2.491 1_565 S
O381 C378 1.355 . S
O382 Dy376 2.403 . S
O382 C384 1.254 . S
O383 Dy376 2.664 . S
O383 Dy379 2.310 . S
O383 C384 1.268 . S
C384 O382 1.254 . S
C384 O383 1.268 . S
C385 O390 1.254 . S
C385 O391 1.268 . S
O386 Dy379 2.351 1_565 S
O386 C394 1.249 . S
O387 Dy376 2.326 1_565 S
O387 C394 1.267 . S
O388 C377 1.185 . S
O388 Dy379 2.398 . S
O389 C377 1.355 . S
O389 Dy379 2.491 . S
O390 Dy379 2.403 . S
O390 C385 1.254 . S
O391 Dy376 2.310 . S
O391 Dy379 2.664 . S
O391 C385 1.268 . S
O392 Dy376 2.351 . S
O392 C395 1.249 . S
O393 Dy379 2.326 . S
O393 C395 1.267 . S
C394 O386 1.249 . S
C394 O387 1.267 . S
C395 O392 1.249 . S
C395 O393 1.267 . S
Dy396 O400 2.398 . S
Dy396 O401 2.491 . S
Dy396 O402 2.403 . S
Dy396 O403 2.664 . S
Dy396 O407 2.326 . S
Dy396 O411 2.310 . S
Dy396 O412 2.351 . S
C397 O408 1.185 . S
C397 O409 1.355 . S
C398 O400 1.185 . S
C398 O401 1.355 . S
Dy399 O403 2.310 . S
Dy399 O406 2.351 . S
Dy399 O408 2.398 . S
Dy399 O409 2.491 . S
Dy399 O410 2.403 . S
Dy399 O411 2.664 . S
Dy399 O413 2.326 . S
O400 Dy396 2.398 . S
O400 C398 1.185 . S
O401 Dy396 2.491 . S
O401 C398 1.355 . S
O402 Dy396 2.403 . S
O402 C404 1.254 . S
O403 Dy396 2.664 . S
O403 Dy399 2.310 . S
O403 C404 1.268 . S
C404 O402 1.254 . S
C404 O403 1.268 . S
C405 O410 1.254 . S
C405 O411 1.268 . S
O406 Dy399 2.351 . S
O406 C414 1.249 . S
O407 Dy396 2.326 . S
O407 C414 1.267 . S
O408 C397 1.185 . S
O408 Dy399 2.398 . S
O409 C397 1.355 . S
O409 Dy399 2.491 . S
O410 Dy399 2.403 . S
O410 C405 1.254 . S
O411 Dy396 2.310 . S
O411 Dy399 2.664 . S
O411 C405 1.268 . S
O412 Dy396 2.351 . S
O412 C415 1.249 . S
O413 Dy399 2.326 . S
O413 C415 1.267 . S
C414 O406 1.249 . S
C414 O407 1.267 . S
C415 O412 1.249 . S
C415 O413 1.267 . S
Dy416 O420 2.396 1_565 S
Dy416 O421 2.490 1_465 S
Dy416 O422 2.402 1_565 S
Dy416 O423 2.663 1_565 S
Dy416 O427 2.322 1_565 S
Dy416 O431 2.309 1_465 S
Dy416 O432 2.355 . S
C417 O428 1.185 . S
C417 O429 1.355 . S
C418 O420 1.185 1_655 S
C418 O421 1.355 . S
Dy419 O423 2.310 . S
Dy419 O426 2.351 . S
Dy419 O428 2.398 . S
Dy419 O429 2.491 . S
Dy419 O430 2.403 1_455 S
Dy419 O431 2.664 1_455 S
Dy419 O433 2.326 1_545 S
O420 Dy416 2.396 1_545 S
O420 C418 1.185 1_455 S
O421 Dy416 2.490 1_645 S
O421 C418 1.355 . S
O422 Dy416 2.402 1_545 S
O422 C424 1.254 . S
O423 Dy416 2.663 1_545 S
O423 Dy419 2.310 . S
O423 C424 1.268 . S
C424 O422 1.254 . S
C424 O423 1.268 . S
C425 O430 1.254 . S
C425 O431 1.268 . S
O426 Dy419 2.351 . S
O426 C434 1.249 . S
O427 Dy416 2.322 1_545 S
O427 C434 1.267 . S
O428 C417 1.185 . S
O428 Dy419 2.398 . S
O429 C417 1.355 . S
O429 Dy419 2.491 . S
O430 Dy419 2.403 1_655 S
O430 C425 1.254 . S
O431 Dy416 2.309 1_645 S
O431 Dy419 2.664 1_655 S
O431 C425 1.268 . S
O432 Dy416 2.355 . S
O432 C435 1.249 . S
O433 Dy419 2.326 1_565 S
O433 C435 1.267 . S
C434 O426 1.249 . S
C434 O427 1.267 . S
C435 O432 1.249 . S
C435 O433 1.267 . S
Dy436 O440 2.398 . S
Dy436 O441 2.491 . S
Dy436 O442 2.403 . S
Dy436 O443 2.664 . S
Dy436 O447 2.326 . S
Dy436 O451 2.310 . S
Dy436 O452 2.351 . S
C437 O448 1.185 . S
C437 O449 1.355 . S
C438 O440 1.185 . S
C438 O441 1.355 . S
Dy439 O443 2.310 . S
Dy439 O446 2.351 . S
Dy439 O448 2.398 . S
Dy439 O449 2.491 . S
Dy439 O450 2.403 . S
Dy439 O451 2.664 . S
Dy439 O453 2.326 . S
O440 Dy436 2.398 . S
O440 C438 1.185 . S
O441 Dy436 2.491 . S
O441 C438 1.355 . S
O442 Dy436 2.403 . S
O442 C444 1.254 . S
O443 Dy436 2.664 . S
O443 Dy439 2.310 . S
O443 C444 1.268 . S
C444 O442 1.254 . S
C444 O443 1.268 . S
C445 O450 1.254 . S
C445 O451 1.268 . S
O446 Dy439 2.351 . S
O446 C454 1.249 . S
O447 Dy436 2.326 . S
O447 C454 1.267 . S
O448 C437 1.185 . S
O448 Dy439 2.398 . S
O449 C437 1.355 . S
O449 Dy439 2.491 . S
O450 Dy439 2.403 . S
O450 C445 1.254 . S
O451 Dy436 2.310 . S
O451 Dy439 2.664 . S
O451 C445 1.268 . S
O452 Dy436 2.351 . S
O452 C455 1.249 . S
O453 Dy439 2.326 . S
O453 C455 1.267 . S
C454 O446 1.249 . S
C454 O447 1.267 . S
C455 O452 1.249 . S
C455 O453 1.267 . S
Dy456 O460 2.398 1_545 S
Dy456 O461 2.491 . S
Dy456 O462 2.403 1_545 S
Dy456 O463 2.664 1_544 S
Dy456 O467 2.326 1_545 S
Dy456 O471 2.310 . S
Dy456 O472 2.351 . S
C457 O468 1.185 . S
C457 O469 1.355 . S
C458 O460 1.185 . S
C458 O461 1.355 1_565 S
Dy459 O463 2.310 1_545 S
Dy459 O466 2.351 . S
Dy459 O468 2.398 . S
Dy459 O469 2.491 . S
Dy459 O470 2.403 . S
Dy459 O471 2.664 1_556 S
Dy459 O473 2.326 . S
O460 Dy456 2.398 1_565 S
O460 C458 1.185 . S
O461 Dy456 2.491 . S
O461 C458 1.355 1_545 S
O462 Dy456 2.403 1_565 S
O462 C464 1.254 1_554 S
O463 Dy456 2.664 1_566 S
O463 Dy459 2.310 1_565 S
O463 C464 1.268 . S
C464 O462 1.254 1_556 S
C464 O463 1.268 . S
C465 O470 1.254 1_554 S
C465 O471 1.268 . S
O466 Dy459 2.351 . S
O466 C474 1.243 1_546 S
O467 Dy456 2.326 1_565 S
O467 C474 1.275 . S
O468 C457 1.185 . S
O468 Dy459 2.398 . S
O469 C457 1.355 . S
O469 Dy459 2.491 . S
O470 Dy459 2.403 . S
O470 C465 1.254 1_556 S
O471 Dy456 2.310 . S
O471 Dy459 2.664 1_554 S
O471 C465 1.268 . S
O472 Dy456 2.351 . S
O472 C475 1.249 . S
O473 Dy459 2.326 . S
O473 C475 1.267 1_556 S
C474 O466 1.243 1_564 S
C474 O467 1.275 . S
C475 O472 1.249 . S
C475 O473 1.267 1_554 S
Dy476 O480 2.398 . S
Dy476 O481 2.491 . S
Dy476 O482 2.403 . S
Dy476 O483 2.664 . S
Dy476 O487 2.326 . S
Dy476 O491 2.310 . S
Dy476 O492 2.351 . S
C477 O488 1.185 . S
C477 O489 1.355 . S
C478 O480 1.185 . S
C478 O481 1.355 . S
Dy479 O483 2.310 . S
Dy479 O486 2.351 . S
Dy479 O488 2.398 . S
Dy479 O489 2.491 . S
Dy479 O490 2.403 . S
Dy479 O491 2.664 . S
Dy479 O493 2.326 . S
O480 Dy476 2.398 . S
O480 C478 1.185 . S
O481 Dy476 2.491 . S
O481 C478 1.355 . S
O482 Dy476 2.403 . S
O482 C484 1.254 . S
O483 Dy476 2.664 . S
O483 Dy479 2.310 . S
O483 C484 1.268 . S
C484 O482 1.254 . S
C484 O483 1.268 . S
C485 O490 1.254 . S
C485 O491 1.268 . S
O486 Dy479 2.351 . S
O486 C494 1.249 . S
O487 Dy476 2.326 . S
O487 C494 1.267 . S
O488 C477 1.185 . S
O488 Dy479 2.398 . S
O489 C477 1.355 . S
O489 Dy479 2.491 . S
O490 Dy479 2.403 . S
O490 C485 1.254 . S
O491 Dy476 2.310 . S
O491 Dy479 2.664 . S
O491 C485 1.268 . S
O492 Dy476 2.351 . S
O492 C495 1.249 . S
O493 Dy479 2.326 . S
O493 C495 1.267 . S
C494 O486 1.249 . S
C494 O487 1.267 . S
C495 O492 1.249 . S
C495 O493 1.267 . S
Dy496 O500 2.398 . S
Dy496 O501 2.491 . S
Dy496 O502 2.403 . S
Dy496 O503 2.664 1_556 S
Dy496 O507 2.326 . S
Dy496 O511 2.301 1_556 S
Dy496 O512 2.351 . S
C497 O508 1.185 . S
C497 O509 1.355 . S
C498 O500 1.185 . S
C498 O501 1.355 . S
Dy499 O503 2.310 . S
Dy499 O506 2.351 . S
Dy499 O508 2.398 . S
Dy499 O509 2.491 . S
Dy499 O510 2.403 . S
Dy499 O511 2.673 . S
Dy499 O513 2.326 . S
O500 Dy496 2.398 . S
O500 C498 1.185 . S
O501 Dy496 2.491 . S
O501 C498 1.355 . S
O502 Dy496 2.403 . S
O502 C504 1.254 . S
O503 Dy496 2.664 1_554 S
O503 Dy499 2.310 . S
O503 C504 1.268 1_554 S
C504 O502 1.254 . S
C504 O503 1.268 1_556 S
C505 O510 1.254 . S
C505 O511 1.276 . S
O506 Dy499 2.351 . S
O506 C514 1.249 1_554 S
O507 Dy496 2.326 . S
O507 C514 1.267 . S
O508 C497 1.185 . S
O508 Dy499 2.398 . S
O509 C497 1.355 . S
O509 Dy499 2.491 . S
O510 Dy499 2.403 . S
O510 C505 1.254 . S
O511 Dy496 2.301 1_554 S
O511 Dy499 2.673 . S
O511 C505 1.276 . S
O512 Dy496 2.351 . S
O512 C515 1.249 1_556 S
O513 Dy499 2.326 . S
O513 C515 1.267 . S
C514 O506 1.249 1_556 S
C514 O507 1.267 . S
C515 O512 1.249 1_554 S
C515 O513 1.267 . S
Dy516 O520 2.398 . S
Dy516 O521 2.491 . S
Dy516 O522 2.403 . S
Dy516 O523 2.664 . S
Dy516 O527 2.326 . S
Dy516 O531 2.310 . S
Dy516 O532 2.351 . S
C517 O528 1.185 . S
C517 O529 1.355 . S
C518 O520 1.185 . S
C518 O521 1.355 . S
Dy519 O523 2.310 . S
Dy519 O526 2.351 . S
Dy519 O528 2.398 . S
Dy519 O529 2.491 . S
Dy519 O530 2.403 . S
Dy519 O531 2.664 . S
Dy519 O533 2.326 . S
O520 Dy516 2.398 . S
O520 C518 1.185 . S
O521 Dy516 2.491 . S
O521 C518 1.355 . S
O522 Dy516 2.403 . S
O522 C524 1.254 . S
O523 Dy516 2.664 . S
O523 Dy519 2.310 . S
O523 C524 1.268 . S
C524 O522 1.254 . S
C524 O523 1.268 . S
C525 O530 1.254 . S
C525 O531 1.268 . S
O526 Dy519 2.351 . S
O526 C534 1.249 . S
O527 Dy516 2.326 . S
O527 C534 1.267 . S
O528 C517 1.185 . S
O528 Dy519 2.398 . S
O529 C517 1.355 . S
O529 Dy519 2.491 . S
O530 Dy519 2.403 . S
O530 C525 1.254 . S
O531 Dy516 2.310 . S
O531 Dy519 2.664 . S
O531 C525 1.268 . S
O532 Dy516 2.351 . S
O532 C535 1.249 . S
O533 Dy519 2.326 . S
O533 C535 1.267 . S
C534 O526 1.249 . S
C534 O527 1.267 . S
C535 O532 1.249 . S
C535 O533 1.267 . S
Dy536 O540 2.398 1_455 S
Dy536 O541 2.491 1_455 S
Dy536 O542 2.403 . S
Dy536 O543 2.664 . S
Dy536 O547 2.326 1_455 S
Dy536 O551 2.310 . S
Dy536 O552 2.351 . S
C537 O548 1.185 . S
C537 O549 1.355 . S
C538 O540 1.185 . S
C538 O541 1.355 . S
Dy539 O543 2.310 . S
Dy539 O546 2.351 1_455 S
Dy539 O548 2.398 . S
Dy539 O549 2.491 . S
Dy539 O550 2.403 . S
Dy539 O551 2.664 . S
Dy539 O553 2.326 . S
O540 Dy536 2.398 1_655 S
O540 C538 1.185 . S
O541 Dy536 2.491 1_655 S
O541 C538 1.355 . S
O542 Dy536 2.403 . S
O542 C544 1.254 . S
O543 Dy536 2.664 . S
O543 Dy539 2.310 . S
O543 C544 1.268 . S
C544 O542 1.254 . S
C544 O543 1.268 . S
C545 O550 1.254 . S
C545 O551 1.268 . S
O546 Dy539 2.351 1_655 S
O546 C554 1.249 . S
O547 Dy536 2.326 1_655 S
O547 C554 1.267 . S
O548 C537 1.185 . S
O548 Dy539 2.398 . S
O549 C537 1.355 . S
O549 Dy539 2.491 . S
O550 Dy539 2.403 . S
O550 C545 1.254 . S
O551 Dy536 2.310 . S
O551 Dy539 2.664 . S
O551 C545 1.268 . S
O552 Dy536 2.351 . S
O552 C555 1.249 . S
O553 Dy539 2.326 . S
O553 C555 1.267 . S
C554 O546 1.249 . S
C554 O547 1.267 . S
C555 O552 1.249 . S
C555 O553 1.267 . S
Dy556 O560 2.398 . S
Dy556 O561 2.491 . S
Dy556 O562 2.403 . S
Dy556 O563 2.664 . S
Dy556 O567 2.326 . S
Dy556 O571 2.310 . S
Dy556 O572 2.351 . S
C557 O568 1.185 . S
C557 O569 1.355 . S
C558 O560 1.185 . S
C558 O561 1.355 . S
Dy559 O563 2.310 . S
Dy559 O566 2.351 . S
Dy559 O568 2.398 . S
Dy559 O569 2.491 . S
Dy559 O570 2.403 . S
Dy559 O571 2.664 . S
Dy559 O573 2.326 . S
O560 Dy556 2.398 . S
O560 C558 1.185 . S
O561 Dy556 2.491 . S
O561 C558 1.355 . S
O562 Dy556 2.403 . S
O562 C564 1.254 . S
O563 Dy556 2.664 . S
O563 Dy559 2.310 . S
O563 C564 1.268 . S
C564 O562 1.254 . S
C564 O563 1.268 . S
C565 O570 1.254 . S
C565 O571 1.268 . S
O566 Dy559 2.351 . S
O566 C574 1.249 . S
O567 Dy556 2.326 . S
O567 C574 1.267 . S
O568 C557 1.185 . S
O568 Dy559 2.398 . S
O569 C557 1.355 . S
O569 Dy559 2.491 . S
O570 Dy559 2.403 . S
O570 C565 1.254 . S
O571 Dy556 2.310 . S
O571 Dy559 2.664 . S
O571 C565 1.268 . S
O572 Dy556 2.351 . S
O572 C575 1.249 . S
O573 Dy559 2.326 . S
O573 C575 1.267 . S
C574 O566 1.249 . S
C574 O567 1.267 . S
C575 O572 1.249 . S
C575 O573 1.267 . S
Dy576 O580 2.398 . S
Dy576 O581 2.491 . S
Dy576 O582 2.403 . S
Dy576 O583 2.664 . S
Dy576 O587 2.326 . S
Dy576 O591 2.310 . S
Dy576 O592 2.351 . S
C577 O588 1.185 . S
C577 O589 1.355 . S
C578 O580 1.185 . S
C578 O581 1.355 . S
Dy579 O583 2.310 . S
Dy579 O586 2.351 . S
Dy579 O588 2.398 . S
Dy579 O589 2.491 . S
Dy579 O590 2.403 . S
Dy579 O591 2.664 . S
Dy579 O593 2.326 . S
O580 Dy576 2.398 . S
O580 C578 1.185 . S
O581 Dy576 2.491 . S
O581 C578 1.355 . S
O582 Dy576 2.403 . S
O582 C584 1.254 . S
O583 Dy576 2.664 . S
O583 Dy579 2.310 . S
O583 C584 1.268 . S
C584 O582 1.254 . S
C584 O583 1.268 . S
C585 O590 1.254 . S
C585 O591 1.268 . S
O586 Dy579 2.351 . S
O586 C594 1.249 . S
O587 Dy576 2.326 . S
O587 C594 1.267 . S
O588 C577 1.185 . S
O588 Dy579 2.398 . S
O589 C577 1.355 . S
O589 Dy579 2.491 . S
O590 Dy579 2.403 . S
O590 C585 1.254 . S
O591 Dy576 2.310 . S
O591 Dy579 2.664 . S
O591 C585 1.268 . S
O592 Dy576 2.351 . S
O592 C595 1.249 . S
O593 Dy579 2.326 . S
O593 C595 1.267 . S
C594 O586 1.249 . S
C594 O587 1.267 . S
C595 O592 1.249 . S
C595 O593 1.267 . S
Dy596 O600 2.398 . S
Dy596 O601 2.491 . S
Dy596 O602 2.403 . S
Dy596 O603 2.664 . S
Dy596 O607 2.326 . S
Dy596 O611 2.310 . S
Dy596 O612 2.351 . S
C597 O608 1.185 . S
C597 O609 1.355 . S
C598 O600 1.185 . S
C598 O601 1.355 . S
Dy599 O603 2.310 . S
Dy599 O606 2.351 . S
Dy599 O608 2.398 . S
Dy599 O609 2.491 . S
Dy599 O610 2.403 . S
Dy599 O611 2.664 . S
Dy599 O613 2.326 . S
O600 Dy596 2.398 . S
O600 C598 1.185 . S
O601 Dy596 2.491 . S
O601 C598 1.355 . S
O602 Dy596 2.403 . S
O602 C604 1.254 . S
O603 Dy596 2.664 . S
O603 Dy599 2.310 . S
O603 C604 1.268 . S
C604 O602 1.254 . S
C604 O603 1.268 . S
C605 O610 1.254 . S
C605 O611 1.268 . S
O606 Dy599 2.351 . S
O606 C614 1.249 . S
O607 Dy596 2.326 . S
O607 C614 1.267 . S
O608 C597 1.185 . S
O608 Dy599 2.398 . S
O609 C597 1.355 . S
O609 Dy599 2.491 . S
O610 Dy599 2.403 . S
O610 C605 1.254 . S
O611 Dy596 2.310 . S
O611 Dy599 2.664 . S
O611 C605 1.268 . S
O612 Dy596 2.351 . S
O612 C615 1.249 . S
O613 Dy599 2.326 . S
O613 C615 1.267 . S
C614 O606 1.249 . S
C614 O607 1.267 . S
C615 O612 1.249 . S
C615 O613 1.267 . S
Dy616 O620 2.398 . S
Dy616 O621 2.491 . S
Dy616 O622 2.403 . S
Dy616 O623 2.664 . S
Dy616 O627 2.326 . S
Dy616 O631 2.310 . S
Dy616 O632 2.351 . S
C617 O628 1.185 . S
C617 O629 1.355 . S
C618 O620 1.185 . S
C618 O621 1.355 . S
Dy619 O623 2.310 . S
Dy619 O626 2.351 . S
Dy619 O628 2.398 . S
Dy619 O629 2.491 . S
Dy619 O630 2.403 . S
Dy619 O631 2.664 . S
Dy619 O633 2.326 . S
O620 Dy616 2.398 . S
O620 C618 1.185 . S
O621 Dy616 2.491 . S
O621 C618 1.355 . S
O622 Dy616 2.403 . S
O622 C624 1.254 . S
O623 Dy616 2.664 . S
O623 Dy619 2.310 . S
O623 C624 1.268 . S
C624 O622 1.254 . S
C624 O623 1.268 . S
C625 O630 1.254 . S
C625 O631 1.268 . S
O626 Dy619 2.351 . S
O626 C634 1.249 . S
O627 Dy616 2.326 . S
O627 C634 1.267 . S
O628 C617 1.185 . S
O628 Dy619 2.398 . S
O629 C617 1.355 . S
O629 Dy619 2.491 . S
O630 Dy619 2.403 . S
O630 C625 1.254 . S
O631 Dy616 2.310 . S
O631 Dy619 2.664 . S
O631 C625 1.268 . S
O632 Dy616 2.351 . S
O632 C635 1.249 . S
O633 Dy619 2.326 . S
O633 C635 1.267 . S
C634 O626 1.249 . S
C634 O627 1.267 . S
C635 O632 1.249 . S
C635 O633 1.267 . S
Dy636 O640 2.398 . S
Dy636 O641 2.491 1_556 S
Dy636 O642 2.403 . S
Dy636 O643 2.690 . S
Dy636 O647 2.326 . S
Dy636 O651 2.310 1_556 S
Dy636 O652 2.351 1_556 S
C637 O648 1.185 . S
C637 O649 1.355 . S
C638 O640 1.185 . S
C638 O641 1.355 1_556 S
Dy639 O643 2.296 1_654 S
Dy639 O646 2.351 . S
Dy639 O648 2.398 . S
Dy639 O649 2.491 . S
Dy639 O650 2.403 . S
Dy639 O651 2.664 1_655 S
Dy639 O653 2.322 1_655 S
O640 Dy636 2.398 . S
O640 C638 1.185 . S
O641 Dy636 2.491 1_554 S
O641 C638 1.355 1_554 S
O642 Dy636 2.403 . S
O642 C644 1.254 . S
O643 Dy636 2.690 . S
O643 Dy639 2.296 1_456 S
O643 C644 1.277 . S
C644 O642 1.254 . S
C644 O643 1.277 . S
C645 O650 1.254 1_455 S
C645 O651 1.268 . S
O646 Dy639 2.351 . S
O646 C654 1.249 1_654 S
O647 Dy636 2.326 . S
O647 C654 1.267 . S
O648 C637 1.185 . S
O648 Dy639 2.398 . S
O649 C637 1.355 . S
O649 Dy639 2.491 . S
O650 Dy639 2.403 . S
O650 C645 1.254 1_655 S
O651 Dy636 2.310 1_554 S
O651 Dy639 2.664 1_455 S
O651 C645 1.268 . S
O652 Dy636 2.351 1_554 S
O652 C655 1.249 . S
O653 Dy639 2.322 1_455 S
O653 C655 1.276 . S
C654 O646 1.249 1_456 S
C654 O647 1.267 . S
C655 O652 1.249 . S
C655 O653 1.276 . S
C656 C657 1.369 1_455 S
C656 C658 1.419 . S
C656 H660 0.930 . S
C657 C656 1.369 1_655 S
C657 C666 1.429 . S
C658 C656 1.419 . S
C658 C659 1.363 . S
C658 H661 0.929 . S
C659 C658 1.363 . S
C659 C665 1.428 1_455 S
H660 C656 0.930 . S
H661 C658 0.929 . S
S662 N663 1.613 . S
S662 N664 1.610 . S
N663 S662 1.613 . S
N663 C666 1.350 . S
N664 S662 1.610 . S
N664 C665 1.351 . S
C665 C659 1.428 1_655 S
C665 N664 1.351 . S
C665 C666 1.434 . S
C666 C657 1.429 . S
C666 N663 1.350 . S
C666 C665 1.434 . S
C667 C668 1.369 . S
C667 C669 1.419 . S
C667 H671 0.930 . S
C668 C667 1.369 . S
C668 C677 1.429 . S
C669 C667 1.419 . S
C669 C670 1.363 . S
C669 H672 0.929 . S
C670 C669 1.363 . S
C670 C676 1.428 . S
H671 C667 0.930 . S
H672 C669 0.929 . S
S673 N674 1.613 . S
S673 N675 1.610 . S
N674 S673 1.613 . S
N674 C677 1.350 . S
N675 S673 1.610 . S
N675 C676 1.351 . S
C676 C670 1.428 . S
C676 N675 1.351 . S
C676 C677 1.434 . S
C677 C668 1.429 . S
C677 N674 1.350 . S
C677 C676 1.434 . S
C678 C679 1.369 . S
C678 C680 1.419 . S
C678 H682 0.930 . S
C679 C678 1.369 . S
C679 C688 1.429 . S
C680 C678 1.419 . S
C680 C681 1.363 . S
C680 H683 0.929 . S
C681 C680 1.363 . S
C681 C687 1.428 . S
H682 C678 0.930 . S
H683 C680 0.929 . S
S684 N685 1.613 . S
S684 N686 1.610 . S
N685 S684 1.613 . S
N685 C688 1.350 . S
N686 S684 1.610 . S
N686 C687 1.351 . S
C687 C681 1.428 . S
C687 N686 1.351 . S
C687 C688 1.434 . S
C688 C679 1.429 . S
C688 N685 1.350 . S
C688 C687 1.434 . S
C689 C690 1.369 . S
C689 C691 1.419 . S
C689 H693 0.930 . S
C690 C689 1.369 . S
C690 C699 1.429 . S
C691 C689 1.419 . S
C691 C692 1.363 . S
C691 H694 0.929 . S
C692 C691 1.363 . S
C692 C698 1.428 . S
H693 C689 0.930 . S
H694 C691 0.929 . S
S695 N696 1.613 . S
S695 N697 1.610 . S
N696 S695 1.613 . S
N696 C699 1.350 . S
N697 S695 1.610 . S
N697 C698 1.351 . S
C698 C692 1.428 . S
C698 N697 1.351 . S
C698 C699 1.434 . S
C699 C690 1.429 . S
C699 N696 1.350 . S
C699 C698 1.434 . S
C700 C701 1.369 . S
C700 C702 1.419 . S
C700 H704 0.930 . S
C701 C700 1.369 . S
C701 C710 1.429 . S
C702 C700 1.419 . S
C702 C703 1.363 . S
C702 H705 0.929 . S
C703 C702 1.363 . S
C703 C709 1.428 . S
H704 C700 0.930 . S
H705 C702 0.929 . S
S706 N707 1.613 . S
S706 N708 1.610 1_655 S
N707 S706 1.613 . S
N707 C710 1.350 1_655 S
N708 S706 1.610 1_455 S
N708 C709 1.351 . S
C709 C703 1.428 . S
C709 N708 1.351 . S
C709 C710 1.434 . S
C710 C701 1.429 . S
C710 N707 1.350 1_455 S
C710 C709 1.434 . S
C711 C712 1.369 . S
C711 C713 1.419 . S
C711 H715 0.930 . S
C712 C711 1.369 . S
C712 C721 1.429 . S
C713 C711 1.419 . S
C713 C714 1.363 . S
C713 H716 0.929 . S
C714 C713 1.363 . S
C714 C720 1.428 . S
H715 C711 0.930 . S
H716 C713 0.929 . S
S717 N718 1.613 . S
S717 N719 1.610 . S
N718 S717 1.613 . S
N718 C721 1.350 . S
N719 S717 1.610 . S
N719 C720 1.351 . S
C720 C714 1.428 . S
C720 N719 1.351 . S
C720 C721 1.434 . S
C721 C712 1.429 . S
C721 N718 1.350 . S
C721 C720 1.434 . S
C722 C723 1.369 . S
C722 C724 1.419 . S
C722 H726 0.930 . S
C723 C722 1.369 . S
C723 C732 1.429 . S
C724 C722 1.419 . S
C724 C725 1.363 . S
C724 H727 0.929 . S
C725 C724 1.363 . S
C725 C731 1.428 . S
H726 C722 0.930 . S
H727 C724 0.929 . S
S728 N729 1.613 1_556 S
S728 N730 1.610 . S
N729 S728 1.613 1_554 S
N729 C732 1.350 . S
N730 S728 1.610 . S
N730 C731 1.351 1_556 S
C731 C725 1.428 . S
C731 N730 1.351 1_554 S
C731 C732 1.434 . S
C732 C723 1.429 . S
C732 N729 1.350 . S
C732 C731 1.434 . S
C733 C734 1.369 . S
C733 C735 1.419 . S
C733 H737 0.930 . S
C734 C733 1.369 . S
C734 C743 1.429 . S
C735 C733 1.419 . S
C735 C736 1.363 . S
C735 H738 0.929 . S
C736 C735 1.363 . S
C736 C742 1.428 . S
H737 C733 0.930 . S
H738 C735 0.929 . S
S739 N740 1.613 . S
S739 N741 1.610 . S
N740 S739 1.613 . S
N740 C743 1.350 . S
N741 S739 1.610 . S
N741 C742 1.351 . S
C742 C736 1.428 . S
C742 N741 1.351 . S
C742 C743 1.434 . S
C743 C734 1.429 . S
C743 N740 1.350 . S
C743 C742 1.434 . S
C744 C745 1.369 . S
C744 C746 1.419 . S
C744 H748 0.930 1_545 S
C745 C744 1.369 . S
C745 C754 1.429 . S
C746 C744 1.419 . S
C746 C747 1.363 . S
C746 H749 0.929 1_545 S
C747 C746 1.363 . S
C747 C753 1.428 . S
H748 C744 0.930 1_565 S
H749 C746 0.929 1_565 S
S750 N751 1.613 . S
S750 N752 1.610 . S
N751 S750 1.613 . S
N751 C754 1.350 . S
N752 S750 1.610 . S
N752 C753 1.351 . S
C753 C747 1.428 . S
C753 N752 1.351 . S
C753 C754 1.434 . S
C754 C745 1.429 . S
C754 N751 1.350 . S
C754 C753 1.434 . S
C755 C756 1.369 . S
C755 C757 1.419 . S
C755 H759 0.930 . S
C756 C755 1.369 . S
C756 C765 1.429 . S
C757 C755 1.419 . S
C757 C758 1.363 . S
C757 H760 0.929 . S
C758 C757 1.363 . S
C758 C764 1.428 . S
H759 C755 0.930 . S
H760 C757 0.929 . S
S761 N762 1.613 . S
S761 N763 1.610 . S
N762 S761 1.613 . S
N762 C765 1.350 . S
N763 S761 1.610 . S
N763 C764 1.351 . S
C764 C758 1.428 . S
C764 N763 1.351 . S
C764 C765 1.434 . S
C765 C756 1.429 . S
C765 N762 1.350 . S
C765 C764 1.434 . S
C766 C767 1.369 . S
C766 C768 1.419 . S
C766 H770 0.930 . S
C767 C766 1.369 . S
C767 C776 1.429 . S
C768 C766 1.419 . S
C768 C769 1.363 . S
C768 H771 0.929 . S
C769 C768 1.363 . S
C769 C775 1.428 . S
H770 C766 0.930 . S
H771 C768 0.929 . S
S772 N773 1.613 . S
S772 N774 1.610 . S
N773 S772 1.613 . S
N773 C776 1.350 . S
N774 S772 1.610 . S
N774 C775 1.351 . S
C775 C769 1.428 . S
C775 N774 1.351 . S
C775 C776 1.434 . S
C776 C767 1.429 . S
C776 N773 1.350 . S
C776 C775 1.434 . S
C777 C778 1.369 . S
C777 C779 1.419 . S
C777 H781 0.930 . S
C778 C777 1.369 . S
C778 C787 1.429 . S
C779 C777 1.419 . S
C779 C780 1.363 . S
C779 H782 0.929 . S
C780 C779 1.363 . S
C780 C786 1.428 . S
H781 C777 0.930 . S
H782 C779 0.929 . S
S783 N784 1.613 . S
S783 N785 1.610 . S
N784 S783 1.613 . S
N784 C787 1.350 . S
N785 S783 1.610 . S
N785 C786 1.351 . S
C786 C780 1.428 . S
C786 N785 1.351 . S
C786 C787 1.434 . S
C787 C778 1.429 . S
C787 N784 1.350 . S
C787 C786 1.434 . S
C788 C789 1.369 . S
C788 C790 1.419 . S
C788 H792 0.930 1_545 S
C789 C788 1.369 . S
C789 C798 1.429 . S
C790 C788 1.419 . S
C790 C791 1.363 . S
C790 H793 0.929 1_545 S
C791 C790 1.363 . S
C791 C797 1.428 . S
H792 C788 0.930 1_565 S
H793 C790 0.929 1_565 S
S794 N795 1.613 . S
S794 N796 1.610 . S
N795 S794 1.613 . S
N795 C798 1.350 . S
N796 S794 1.610 . S
N796 C797 1.351 . S
C797 C791 1.428 . S
C797 N796 1.351 . S
C797 C798 1.434 . S
C798 C789 1.429 . S
C798 N795 1.350 . S
C798 C797 1.434 . S
C799 C800 1.369 . S
C799 C801 1.419 . S
C799 H803 0.930 . S
C800 C799 1.369 . S
C800 C809 1.429 . S
C801 C799 1.419 . S
C801 C802 1.363 . S
C801 H804 0.929 . S
C802 C801 1.363 . S
C802 C808 1.428 . S
H803 C799 0.930 . S
H804 C801 0.929 . S
S805 N806 1.613 . S
S805 N807 1.610 . S
N806 S805 1.613 . S
N806 C809 1.350 . S
N807 S805 1.610 . S
N807 C808 1.351 . S
C808 C802 1.428 . S
C808 N807 1.351 . S
C808 C809 1.434 . S
C809 C800 1.429 . S
C809 N806 1.350 . S
C809 C808 1.434 . S
C810 C811 1.369 . S
C810 C812 1.419 . S
C810 H814 0.930 . S
C811 C810 1.369 . S
C811 C820 1.429 . S
C812 C810 1.419 . S
C812 C813 1.363 . S
C812 H815 0.929 . S
C813 C812 1.363 . S
C813 C819 1.428 . S
H814 C810 0.930 . S
H815 C812 0.929 . S
S816 N817 1.613 . S
S816 N818 1.610 . S
N817 S816 1.613 . S
N817 C820 1.350 . S
N818 S816 1.610 . S
N818 C819 1.351 . S
C819 C813 1.428 . S
C819 N818 1.351 . S
C819 C820 1.434 . S
C820 C811 1.429 . S
C820 N817 1.350 . S
C820 C819 1.434 . S
C821 C822 1.369 . S
C821 C823 1.419 . S
C821 H825 0.930 . S
C822 C821 1.369 . S
C822 C831 1.429 . S
C823 C821 1.419 . S
C823 C824 1.363 . S
C823 H826 0.929 . S
C824 C823 1.363 . S
C824 C830 1.428 . S
H825 C821 0.930 . S
H826 C823 0.929 . S
S827 N828 1.613 . S
S827 N829 1.610 . S
N828 S827 1.613 . S
N828 C831 1.350 . S
N829 S827 1.610 . S
N829 C830 1.351 . S
C830 C824 1.428 . S
C830 N829 1.351 . S
C830 C831 1.434 . S
C831 C822 1.429 . S
C831 N828 1.350 . S
C831 C830 1.434 . S
C832 C833 1.369 . S
C832 C834 1.419 . S
C832 H836 0.930 1_554 S
C833 C832 1.369 . S
C833 C842 1.429 . S
C834 C832 1.419 . S
C834 C835 1.363 . S
C834 H837 0.929 1_565 S
C835 C834 1.363 . S
C835 C841 1.428 . S
H836 C832 0.930 1_556 S
H837 C834 0.929 1_545 S
S838 N839 1.613 . S
S838 N840 1.610 . S
N839 S838 1.613 . S
N839 C842 1.350 . S
N840 S838 1.610 . S
N840 C841 1.351 . S
C841 C835 1.428 . S
C841 N840 1.351 . S
C841 C842 1.434 . S
C842 C833 1.429 . S
C842 N839 1.350 . S
C842 C841 1.434 . S
C843 C844 1.369 1_554 S
C843 C845 1.419 . S
C843 H847 0.930 . S
C844 C843 1.369 1_556 S
C844 C853 1.429 . S
C845 C843 1.419 . S
C845 C846 1.363 1_554 S
C845 H848 0.929 . S
C846 C845 1.363 1_556 S
C846 C852 1.428 . S
H847 C843 0.930 . S
H848 C845 0.929 . S
S849 N850 1.613 . S
S849 N851 1.610 . S
N850 S849 1.613 . S
N850 C853 1.350 . S
N851 S849 1.610 . S
N851 C852 1.351 . S
C852 C846 1.428 . S
C852 N851 1.351 . S
C852 C853 1.434 . S
C853 C844 1.429 . S
C853 N850 1.350 . S
C853 C852 1.434 . S
C854 C855 1.369 . S
C854 C856 1.419 . S
C854 H858 0.930 . S
C855 C854 1.369 . S
C855 C864 1.429 . S
C856 C854 1.419 . S
C856 C857 1.363 . S
C856 H859 0.929 . S
C857 C856 1.363 . S
C857 C863 1.428 . S
H858 C854 0.930 . S
H859 C856 0.929 . S
S860 N861 1.613 . S
S860 N862 1.610 . S
N861 S860 1.613 . S
N861 C864 1.350 . S
N862 S860 1.610 . S
N862 C863 1.351 . S
C863 C857 1.428 . S
C863 N862 1.351 . S
C863 C864 1.434 . S
C864 C855 1.429 . S
C864 N861 1.350 . S
C864 C863 1.434 . S
C865 C866 1.369 . S
C865 C867 1.419 . S
C865 H869 0.930 . S
C866 C865 1.369 . S
C866 C875 1.429 . S
C867 C865 1.419 . S
C867 C868 1.363 . S
C867 H870 0.929 . S
C868 C867 1.363 . S
C868 C874 1.428 . S
H869 C865 0.930 . S
H870 C867 0.929 . S
S871 N872 1.613 . S
S871 N873 1.610 . S
N872 S871 1.613 . S
N872 C875 1.350 . S
N873 S871 1.610 . S
N873 C874 1.351 . S
C874 C868 1.428 . S
C874 N873 1.351 . S
C874 C875 1.434 . S
C875 C866 1.429 . S
C875 N872 1.350 . S
C875 C874 1.434 . S
C876 C877 1.369 . S
C876 C878 1.419 . S
C876 H880 0.930 . S
C877 C876 1.369 . S
C877 C886 1.429 . S
C878 C876 1.419 . S
C878 C879 1.363 . S
C878 H881 0.929 . S
C879 C878 1.363 . S
C879 C885 1.428 . S
H880 C876 0.930 . S
H881 C878 0.929 . S
S882 N883 1.613 . S
S882 N884 1.610 . S
N883 S882 1.613 . S
N883 C886 1.350 . S
N884 S882 1.610 . S
N884 C885 1.351 . S
C885 C879 1.428 . S
C885 N884 1.351 . S
C885 C886 1.434 . S
C886 C877 1.429 . S
C886 N883 1.350 . S
C886 C885 1.434 . S
C887 C888 1.369 . S
C887 C889 1.419 . S
C887 H891 0.930 . S
C888 C887 1.369 . S
C888 C897 1.429 . S
C889 C887 1.419 . S
C889 C890 1.363 . S
C889 H892 0.929 . S
C890 C889 1.363 . S
C890 C896 1.428 . S
H891 C887 0.930 . S
H892 C889 0.929 . S
S893 N894 1.613 . S
S893 N895 1.610 . S
N894 S893 1.613 . S
N894 C897 1.350 . S
N895 S893 1.610 . S
N895 C896 1.351 . S
C896 C890 1.428 . S
C896 N895 1.351 . S
C896 C897 1.434 . S
C897 C888 1.429 . S
C897 N894 1.350 . S
C897 C896 1.434 . S
C898 C899 1.369 . S
C898 C900 1.419 . S
C898 H902 0.930 . S
C899 C898 1.369 . S
C899 C908 1.429 . S
C900 C898 1.419 . S
C900 C901 1.363 . S
C900 H903 0.929 . S
C901 C900 1.363 . S
C901 C907 1.428 . S
H902 C898 0.930 . S
H903 C900 0.929 . S
S904 N905 1.613 . S
S904 N906 1.610 . S
N905 S904 1.613 . S
N905 C908 1.350 . S
N906 S904 1.610 . S
N906 C907 1.351 . S
C907 C901 1.428 . S
C907 N906 1.351 . S
C907 C908 1.434 . S
C908 C899 1.429 . S
C908 N905 1.350 . S
C908 C907 1.434 . S
C909 C910 1.369 . S
C909 C911 1.419 . S
C909 H913 0.930 . S
C910 C909 1.369 . S
C910 C919 1.429 . S
C911 C909 1.419 . S
C911 C912 1.363 . S
C911 H914 0.929 . S
C912 C911 1.363 . S
C912 C918 1.428 . S
H913 C909 0.930 . S
H914 C911 0.929 . S
S915 N916 1.613 . S
S915 N917 1.610 . S
N916 S915 1.613 . S
N916 C919 1.350 . S
N917 S915 1.610 . S
N917 C918 1.351 . S
C918 C912 1.428 . S
C918 N917 1.351 . S
C918 C919 1.434 . S
C919 C910 1.429 . S
C919 N916 1.350 . S
C919 C918 1.434 . S
C920 C921 1.369 . S
C920 C922 1.419 . S
C920 H924 0.930 1_455 S
C921 C920 1.369 . S
C921 C930 1.429 . S
C922 C920 1.419 . S
C922 C923 1.363 . S
C922 H925 0.929 1_455 S
C923 C922 1.363 . S
C923 C929 1.428 . S
H924 C920 0.930 1_655 S
H925 C922 0.929 1_655 S
S926 N927 1.613 . S
S926 N928 1.610 . S
N927 S926 1.613 . S
N927 C930 1.350 . S
N928 S926 1.610 . S
N928 C929 1.351 . S
C929 C923 1.428 . S
C929 N928 1.351 . S
C929 C930 1.434 . S
C930 C921 1.429 . S
C930 N927 1.350 . S
C930 C929 1.434 . S
C931 C932 1.369 . S
C931 C933 1.419 . S
C931 H935 0.930 . S
C932 C931 1.369 . S
C932 C941 1.429 . S
C933 C931 1.419 . S
C933 C934 1.363 . S
C933 H936 0.929 . S
C934 C933 1.363 . S
C934 C940 1.428 . S
H935 C931 0.930 . S
H936 C933 0.929 . S
S937 N938 1.613 . S
S937 N939 1.610 . S
N938 S937 1.613 . S
N938 C941 1.350 . S
N939 S937 1.610 . S
N939 C940 1.351 . S
C940 C934 1.428 . S
C940 N939 1.351 . S
C940 C941 1.434 . S
C941 C932 1.429 . S
C941 N938 1.350 . S
C941 C940 1.434 . S
C942 C943 1.369 . S
C942 C944 1.419 . S
C942 H946 0.930 . S
C943 C942 1.369 . S
C943 C952 1.429 . S
C944 C942 1.419 . S
C944 C945 1.363 . S
C944 H947 0.929 . S
C945 C944 1.363 . S
C945 C951 1.428 . S
H946 C942 0.930 . S
H947 C944 0.929 . S
S948 N949 1.613 . S
S948 N950 1.610 . S
N949 S948 1.613 . S
N949 C952 1.350 . S
N950 S948 1.610 . S
N950 C951 1.351 . S
C951 C945 1.428 . S
C951 N950 1.351 . S
C951 C952 1.434 . S
C952 C943 1.429 . S
C952 N949 1.350 . S
C952 C951 1.434 . S
C953 C954 1.369 . S
C953 C955 1.419 . S
C953 H957 0.930 . S
C954 C953 1.369 . S
C954 C963 1.429 . S
C955 C953 1.419 . S
C955 C956 1.363 . S
C955 H958 0.929 . S
C956 C955 1.363 . S
C956 C962 1.428 . S
H957 C953 0.930 . S
H958 C955 0.929 . S
S959 N960 1.613 . S
S959 N961 1.610 . S
N960 S959 1.613 . S
N960 C963 1.350 . S
N961 S959 1.610 . S
N961 C962 1.351 . S
C962 C956 1.428 . S
C962 N961 1.351 . S
C962 C963 1.434 . S
C963 C954 1.429 . S
C963 N960 1.350 . S
C963 C962 1.434 . S
C964 C965 1.369 1_655 S
C964 C966 1.419 . S
C964 H968 0.930 . S
C965 C964 1.369 1_455 S
C965 C974 1.429 . S
C966 C964 1.419 . S
C966 C967 1.363 1_655 S
C966 H969 0.929 . S
C967 C966 1.363 1_455 S
C967 C973 1.428 . S
H968 C964 0.930 . S
H969 C966 0.929 . S
S970 N971 1.613 . S
S970 N972 1.610 . S
N971 S970 1.613 . S
N971 C974 1.350 . S
N972 S970 1.610 . S
N972 C973 1.351 . S
C973 C967 1.428 . S
C973 N972 1.351 . S
C973 C974 1.434 . S
C974 C965 1.429 . S
C974 N971 1.350 . S
C974 C973 1.434 . S
C975 C976 1.369 . S
C975 C977 1.419 . S
C975 H979 0.930 . S
C976 C975 1.369 . S
C976 C985 1.429 . S
C977 C975 1.419 . S
C977 C978 1.363 . S
C977 H980 0.929 . S
C978 C977 1.363 . S
C978 C984 1.428 . S
H979 C975 0.930 . S
H980 C977 0.929 . S
S981 N982 1.613 . S
S981 N983 1.610 . S
N982 S981 1.613 . S
N982 C985 1.350 . S
N983 S981 1.610 . S
N983 C984 1.351 . S
C984 C978 1.428 . S
C984 N983 1.351 . S
C984 C985 1.434 . S
C985 C976 1.429 . S
C985 N982 1.350 . S
C985 C984 1.434 . S
C986 C987 1.369 . S
C986 C988 1.419 . S
C986 H990 0.930 . S
C987 C986 1.369 . S
C987 C996 1.429 . S
C988 C986 1.419 . S
C988 C989 1.363 . S
C988 H991 0.929 . S
C989 C988 1.363 . S
C989 C995 1.428 . S
H990 C986 0.930 . S
H991 C988 0.929 . S
S992 N993 1.617 . S
S992 N994 1.610 1_556 S
N993 S992 1.617 . S
N993 C996 1.350 . S
N994 S992 1.610 1_554 S
N994 C995 1.351 1_554 S
C995 C989 1.428 . S
C995 N994 1.351 1_556 S
C995 C996 1.434 . S
C996 C987 1.429 . S
C996 N993 1.350 . S
C996 C995 1.434 . S
C997 C998 1.369 . S
C997 C999 1.419 . S
C997 H1001 0.930 . S
C998 C997 1.369 . S
C998 C1007 1.429 . S
C999 C997 1.419 . S
C999 C1000 1.363 . S
C999 H1002 0.929 . S
C1000 C999 1.363 . S
C1000 C1006 1.428 . S
H1001 C997 0.930 . S
H1002 C999 0.929 . S
S1003 N1004 1.613 . S
S1003 N1005 1.610 . S
N1004 S1003 1.613 . S
N1004 C1007 1.350 . S
N1005 S1003 1.610 . S
N1005 C1006 1.351 . S
C1006 C1000 1.428 . S
C1006 N1005 1.351 . S
C1006 C1007 1.434 . S
C1007 C998 1.429 . S
C1007 N1004 1.350 . S
C1007 C1006 1.434 . S
C1008 C1009 1.369 . S
C1008 C1010 1.419 . S
C1008 H1012 0.930 . S
C1009 C1008 1.369 . S
C1009 C1018 1.429 1_545 S
C1010 C1008 1.419 . S
C1010 C1011 1.363 . S
C1010 H1013 0.929 . S
C1011 C1010 1.363 . S
C1011 C1017 1.428 1_545 S
H1012 C1008 0.930 . S
H1013 C1010 0.929 . S
S1014 N1015 1.613 . S
S1014 N1016 1.610 . S
N1015 S1014 1.613 . S
N1015 C1018 1.350 . S
N1016 S1014 1.610 . S
N1016 C1017 1.351 . S
C1017 C1011 1.428 1_565 S
C1017 N1016 1.351 . S
C1017 C1018 1.434 . S
C1018 C1009 1.429 1_565 S
C1018 N1015 1.350 . S
C1018 C1017 1.434 . S
C1019 C1020 1.369 . S
C1019 C1021 1.419 . S
C1019 H1023 0.930 . S
C1020 C1019 1.369 . S
C1020 C1029 1.429 . S
C1021 C1019 1.419 . S
C1021 C1022 1.363 . S
C1021 H1024 0.929 . S
C1022 C1021 1.363 . S
C1022 C1028 1.428 . S
H1023 C1019 0.930 . S
H1024 C1021 0.929 . S
S1025 N1026 1.613 . S
S1025 N1027 1.610 . S
N1026 S1025 1.613 . S
N1026 C1029 1.350 . S
N1027 S1025 1.610 . S
N1027 C1028 1.351 . S
C1028 C1022 1.428 . S
C1028 N1027 1.351 . S
C1028 C1029 1.434 . S
C1029 C1020 1.429 . S
C1029 N1026 1.350 . S
C1029 C1028 1.434 . S
C1030 C1031 1.369 . S
C1030 C1032 1.419 . S
C1030 H1034 0.930 1_545 S
C1031 C1030 1.369 . S
C1031 C1040 1.429 . S
C1032 C1030 1.419 . S
C1032 C1033 1.363 . S
C1032 H1035 0.929 1_545 S
C1033 C1032 1.363 . S
C1033 C1039 1.428 . S
H1034 C1030 0.930 1_565 S
H1035 C1032 0.929 1_565 S
S1036 N1037 1.613 . S
S1036 N1038 1.610 . S
N1037 S1036 1.613 . S
N1037 C1040 1.350 . S
N1038 S1036 1.610 . S
N1038 C1039 1.351 . S
C1039 C1033 1.428 . S
C1039 N1038 1.351 . S
C1039 C1040 1.434 . S
C1040 C1031 1.429 . S
C1040 N1037 1.350 . S
C1040 C1039 1.434 . S
C1041 C1042 1.369 . S
C1041 C1043 1.419 . S
C1041 H1045 0.930 . S
C1042 C1041 1.369 . S
C1042 C1051 1.429 . S
C1043 C1041 1.419 . S
C1043 C1044 1.363 . S
C1043 H1046 0.929 . S
C1044 C1043 1.363 . S
C1044 C1050 1.428 . S
H1045 C1041 0.930 . S
H1046 C1043 0.929 . S
S1047 N1048 1.613 . S
S1047 N1049 1.610 . S
N1048 S1047 1.613 . S
N1048 C1051 1.350 . S
N1049 S1047 1.610 . S
N1049 C1050 1.351 . S
C1050 C1044 1.428 . S
C1050 N1049 1.351 . S
C1050 C1051 1.434 . S
C1051 C1042 1.429 . S
C1051 N1048 1.350 . S
C1051 C1050 1.434 . S
C1052 C1053 1.369 1_545 S
C1052 C1054 1.419 . S
C1052 H1056 0.930 . S
C1053 C1052 1.369 1_565 S
C1053 C1062 1.429 . S
C1054 C1052 1.419 . S
C1054 C1055 1.363 . S
C1054 H1057 0.929 . S
C1055 C1054 1.363 . S
C1055 C1061 1.428 1_545 S
H1056 C1052 0.930 . S
H1057 C1054 0.929 . S
S1058 N1059 1.613 . S
S1058 N1060 1.610 . S
N1059 S1058 1.613 . S
N1059 C1062 1.350 . S
N1060 S1058 1.610 . S
N1060 C1061 1.351 . S
C1061 C1055 1.428 1_565 S
C1061 N1060 1.351 . S
C1061 C1062 1.434 . S
C1062 C1053 1.429 . S
C1062 N1059 1.350 . S
C1062 C1061 1.434 . S
C1063 C1064 1.369 . S
C1063 C1065 1.419 . S
C1063 H1067 0.930 . S
C1064 C1063 1.369 . S
C1064 C1073 1.429 . S
C1065 C1063 1.419 . S
C1065 C1066 1.363 . S
C1065 H1068 0.929 . S
C1066 C1065 1.363 . S
C1066 C1072 1.428 . S
H1067 C1063 0.930 . S
H1068 C1065 0.929 . S
S1069 N1070 1.613 . S
S1069 N1071 1.610 . S
N1070 S1069 1.613 . S
N1070 C1073 1.350 . S
N1071 S1069 1.610 . S
N1071 C1072 1.351 . S
C1072 C1066 1.428 . S
C1072 N1071 1.351 . S
C1072 C1073 1.434 . S
C1073 C1064 1.429 . S
C1073 N1070 1.350 . S
C1073 C1072 1.434 . S
C1074 C1075 1.369 1_565 S
C1074 C1076 1.419 . S
C1074 H1078 0.930 . S
C1075 C1074 1.369 1_545 S
C1075 C1084 1.429 . S
C1076 C1074 1.419 . S
C1076 C1077 1.363 . S
C1076 H1079 0.929 . S
C1077 C1076 1.363 . S
C1077 C1083 1.428 1_565 S
H1078 C1074 0.930 . S
H1079 C1076 0.929 . S
S1080 N1081 1.613 . S
S1080 N1082 1.610 . S
N1081 S1080 1.613 . S
N1081 C1084 1.350 . S
N1082 S1080 1.610 . S
N1082 C1083 1.351 . S
C1083 C1077 1.428 1_545 S
C1083 N1082 1.351 . S
C1083 C1084 1.434 . S
C1084 C1075 1.429 . S
C1084 N1081 1.350 . S
C1084 C1083 1.434 . S
C1085 C1086 1.369 . S
C1085 C1087 1.419 . S
C1085 H1089 0.930 . S
C1086 C1085 1.369 . S
C1086 C1095 1.429 . S
C1087 C1085 1.419 . S
C1087 C1088 1.363 . S
C1087 H1090 0.929 . S
C1088 C1087 1.363 . S
C1088 C1094 1.428 . S
H1089 C1085 0.930 . S
H1090 C1087 0.929 . S
S1091 N1092 1.613 . S
S1091 N1093 1.610 . S
N1092 S1091 1.613 . S
N1092 C1095 1.350 . S
N1093 S1091 1.610 . S
N1093 C1094 1.351 . S
C1094 C1088 1.428 . S
C1094 N1093 1.351 . S
C1094 C1095 1.434 . S
C1095 C1086 1.429 . S
C1095 N1092 1.350 . S
C1095 C1094 1.434 . S
C1096 C1097 1.369 . S
C1096 C1098 1.419 . S
C1096 H1100 0.930 . S
C1097 C1096 1.369 . S
C1097 C1106 1.429 1_556 S
C1098 C1096 1.419 . S
C1098 C1099 1.363 . S
C1098 H1101 0.929 . S
C1099 C1098 1.363 . S
C1099 C1105 1.428 1_556 S
H1100 C1096 0.930 . S
H1101 C1098 0.929 . S
S1102 N1103 1.613 . S
S1102 N1104 1.610 . S
N1103 S1102 1.613 . S
N1103 C1106 1.350 . S
N1104 S1102 1.610 . S
N1104 C1105 1.351 . S
C1105 C1099 1.428 1_554 S
C1105 N1104 1.351 . S
C1105 C1106 1.434 . S
C1106 C1097 1.429 1_554 S
C1106 N1103 1.350 . S
C1106 C1105 1.434 . S
C1107 C1108 1.369 . S
C1107 C1109 1.419 . S
C1107 H1111 0.930 . S
C1108 C1107 1.369 . S
C1108 C1117 1.429 . S
C1109 C1107 1.419 . S
C1109 C1110 1.363 . S
C1109 H1112 0.929 . S
C1110 C1109 1.363 . S
C1110 C1116 1.428 . S
H1111 C1107 0.930 . S
H1112 C1109 0.929 . S
S1113 N1114 1.613 . S
S1113 N1115 1.610 . S
N1114 S1113 1.613 . S
N1114 C1117 1.350 . S
N1115 S1113 1.610 . S
N1115 C1116 1.351 . S
C1116 C1110 1.428 . S
C1116 N1115 1.351 . S
C1116 C1117 1.434 . S
C1117 C1108 1.429 . S
C1117 N1114 1.350 . S
C1117 C1116 1.434 . S
C1118 C1119 1.369 . S
C1118 C1120 1.419 . S
C1118 H1122 0.930 . S
C1119 C1118 1.369 . S
C1119 C1128 1.429 . S
C1120 C1118 1.419 . S
C1120 C1121 1.363 . S
C1120 H1123 0.929 . S
C1121 C1120 1.363 . S
C1121 C1127 1.428 . S
H1122 C1118 0.930 . S
H1123 C1120 0.929 . S
S1124 N1125 1.613 . S
S1124 N1126 1.610 . S
N1125 S1124 1.613 . S
N1125 C1128 1.350 . S
N1126 S1124 1.610 . S
N1126 C1127 1.351 . S
C1127 C1121 1.428 . S
C1127 N1126 1.351 . S
C1127 C1128 1.434 . S
C1128 C1119 1.429 . S
C1128 N1125 1.350 . S
C1128 C1127 1.434 . S
C1129 C1130 1.369 . S
C1129 C1131 1.419 . S
C1129 H1133 0.930 . S
C1130 C1129 1.369 . S
C1130 C1139 1.429 . S
C1131 C1129 1.419 . S
C1131 C1132 1.363 . S
C1131 H1134 0.929 . S
C1132 C1131 1.363 . S
C1132 C1138 1.428 . S
H1133 C1129 0.930 . S
H1134 C1131 0.929 . S
S1135 N1136 1.613 . S
S1135 N1137 1.610 . S
N1136 S1135 1.613 . S
N1136 C1139 1.350 . S
N1137 S1135 1.610 . S
N1137 C1138 1.351 . S
C1138 C1132 1.428 . S
C1138 N1137 1.351 . S
C1138 C1139 1.434 . S
C1139 C1130 1.429 . S
C1139 N1136 1.350 . S
C1139 C1138 1.434 . S
C1140 C1141 1.369 . S
C1140 C1142 1.419 . S
C1140 H1144 0.930 . S
C1141 C1140 1.369 . S
C1141 C1150 1.429 . S
C1142 C1140 1.419 . S
C1142 C1143 1.363 . S
C1142 H1145 0.929 . S
C1143 C1142 1.363 . S
C1143 C1149 1.428 . S
H1144 C1140 0.930 . S
H1145 C1142 0.929 . S
S1146 N1147 1.613 . S
S1146 N1148 1.610 . S
N1147 S1146 1.613 . S
N1147 C1150 1.350 . S
N1148 S1146 1.610 . S
N1148 C1149 1.351 . S
C1149 C1143 1.428 . S
C1149 N1148 1.351 . S
C1149 C1150 1.434 . S
C1150 C1141 1.429 . S
C1150 N1147 1.350 . S
C1150 C1149 1.434 . S
C1151 C1152 1.369 . S
C1151 C1153 1.419 . S
C1151 H1155 0.930 . S
C1152 C1151 1.369 . S
C1152 C1161 1.429 . S
C1153 C1151 1.419 . S
C1153 C1154 1.363 . S
C1153 H1156 0.929 . S
C1154 C1153 1.363 . S
C1154 C1160 1.428 . S
H1155 C1151 0.930 . S
H1156 C1153 0.929 . S
S1157 N1158 1.613 . S
S1157 N1159 1.610 . S
N1158 S1157 1.613 . S
N1158 C1161 1.350 . S
N1159 S1157 1.610 . S
N1159 C1160 1.351 . S
C1160 C1154 1.428 . S
C1160 N1159 1.351 . S
C1160 C1161 1.434 . S
C1161 C1152 1.429 . S
C1161 N1158 1.350 . S
C1161 C1160 1.434 . S
C1162 C1163 1.369 . S
C1162 C1164 1.419 . S
C1162 H1166 0.930 . S
C1163 C1162 1.369 . S
C1163 C1172 1.429 . S
C1164 C1162 1.419 . S
C1164 C1165 1.363 . S
C1164 H1167 0.929 . S
C1165 C1164 1.363 . S
C1165 C1171 1.428 . S
H1166 C1162 0.930 . S
H1167 C1164 0.929 . S
S1168 N1169 1.613 . S
S1168 N1170 1.610 . S
N1169 S1168 1.613 . S
N1169 C1172 1.350 . S
N1170 S1168 1.610 . S
N1170 C1171 1.351 . S
C1171 C1165 1.428 . S
C1171 N1170 1.351 . S
C1171 C1172 1.434 . S
C1172 C1163 1.429 . S
C1172 N1169 1.350 . S
C1172 C1171 1.434 . S
C1173 C1174 1.369 . S
C1173 C1175 1.419 . S
C1173 H1177 0.930 . S
C1174 C1173 1.369 . S
C1174 C1183 1.429 . S
C1175 C1173 1.419 . S
C1175 C1176 1.363 . S
C1175 H1178 0.929 . S
C1176 C1175 1.363 . S
C1176 C1182 1.428 . S
H1177 C1173 0.930 . S
H1178 C1175 0.929 . S
S1179 N1180 1.613 . S
S1179 N1181 1.610 . S
N1180 S1179 1.613 . S
N1180 C1183 1.350 . S
N1181 S1179 1.610 . S
N1181 C1182 1.351 . S
C1182 C1176 1.428 . S
C1182 N1181 1.351 . S
C1182 C1183 1.434 . S
C1183 C1174 1.429 . S
C1183 N1180 1.350 . S
C1183 C1182 1.434 . S
C1184 C1185 1.369 . S
C1184 C1186 1.419 . S
C1184 H1188 0.930 . S
C1185 C1184 1.369 . S
C1185 C1194 1.429 . S
C1186 C1184 1.419 . S
C1186 C1187 1.363 . S
C1186 H1189 0.929 . S
C1187 C1186 1.363 . S
C1187 C1193 1.428 . S
H1188 C1184 0.930 . S
H1189 C1186 0.929 . S
S1190 N1191 1.613 . S
S1190 N1192 1.610 . S
N1191 S1190 1.613 . S
N1191 C1194 1.350 . S
N1192 S1190 1.610 . S
N1192 C1193 1.351 . S
C1193 C1187 1.428 . S
C1193 N1192 1.351 . S
C1193 C1194 1.434 . S
C1194 C1185 1.429 . S
C1194 N1191 1.350 . S
C1194 C1193 1.434 . S
C1195 C1196 1.369 . S
C1195 C1197 1.419 . S
C1195 H1199 0.930 . S
C1196 C1195 1.369 . S
C1196 C1205 1.429 . S
C1197 C1195 1.419 . S
C1197 C1198 1.363 . S
C1197 H1200 0.929 . S
C1198 C1197 1.363 . S
C1198 C1204 1.428 . S
H1199 C1195 0.930 . S
H1200 C1197 0.929 . S
S1201 N1202 1.613 . S
S1201 N1203 1.610 . S
N1202 S1201 1.613 . S
N1202 C1205 1.350 . S
N1203 S1201 1.610 . S
N1203 C1204 1.351 . S
C1204 C1198 1.428 . S
C1204 N1203 1.351 . S
C1204 C1205 1.434 . S
C1205 C1196 1.429 . S
C1205 N1202 1.350 . S
C1205 C1204 1.434 . S
C1206 C1207 1.369 1_655 S
C1206 C1208 1.419 . S
C1206 H1210 0.930 . S
C1207 C1206 1.369 1_455 S
C1207 C1216 1.429 . S
C1208 C1206 1.419 . S
C1208 C1209 1.363 1_655 S
C1208 H1211 0.929 . S
C1209 C1208 1.363 1_455 S
C1209 C1215 1.428 . S
H1210 C1206 0.930 . S
H1211 C1208 0.929 . S
S1212 N1213 1.613 . S
S1212 N1214 1.610 . S
N1213 S1212 1.613 . S
N1213 C1216 1.350 . S
N1214 S1212 1.610 . S
N1214 C1215 1.351 . S
C1215 C1209 1.428 . S
C1215 N1214 1.351 . S
C1215 C1216 1.434 . S
C1216 C1207 1.429 . S
C1216 N1213 1.350 . S
C1216 C1215 1.434 . S
C1217 C1218 1.369 . S
C1217 C1219 1.419 . S
C1217 H1221 0.930 . S
C1218 C1217 1.369 . S
C1218 C1227 1.429 . S
C1219 C1217 1.419 . S
C1219 C1220 1.363 . S
C1219 H1222 0.929 . S
C1220 C1219 1.363 . S
C1220 C1226 1.428 . S
H1221 C1217 0.930 . S
H1222 C1219 0.929 . S
S1223 N1224 1.613 . S
S1223 N1225 1.610 . S
N1224 S1223 1.613 . S
N1224 C1227 1.350 . S
N1225 S1223 1.610 . S
N1225 C1226 1.351 . S
C1226 C1220 1.428 . S
C1226 N1225 1.351 . S
C1226 C1227 1.434 . S
C1227 C1218 1.429 . S
C1227 N1224 1.350 . S
C1227 C1226 1.434 . S
C1228 C1229 1.369 . S
C1228 C1230 1.419 . S
C1228 H1232 0.930 . S
C1229 C1228 1.369 . S
C1229 C1238 1.429 . S
C1230 C1228 1.419 . S
C1230 C1231 1.363 . S
C1230 H1233 0.929 . S
C1231 C1230 1.363 . S
C1231 C1237 1.428 . S
H1232 C1228 0.930 . S
H1233 C1230 0.929 . S
S1234 N1235 1.613 . S
S1234 N1236 1.610 . S
N1235 S1234 1.613 . S
N1235 C1238 1.350 . S
N1236 S1234 1.610 . S
N1236 C1237 1.351 . S
C1237 C1231 1.428 . S
C1237 N1236 1.351 . S
C1237 C1238 1.434 . S
C1238 C1229 1.429 . S
C1238 N1235 1.350 . S
C1238 C1237 1.434 . S
C1239 C1240 1.369 . S
C1239 C1241 1.419 . S
C1239 H1243 0.930 . S
C1240 C1239 1.369 . S
C1240 C1249 1.429 . S
C1241 C1239 1.419 . S
C1241 C1242 1.363 . S
C1241 H1244 0.929 . S
C1242 C1241 1.363 . S
C1242 C1248 1.428 . S
H1243 C1239 0.930 . S
H1244 C1241 0.929 . S
S1245 N1246 1.613 . S
S1245 N1247 1.610 . S
N1246 S1245 1.613 . S
N1246 C1249 1.350 . S
N1247 S1245 1.610 . S
N1247 C1248 1.351 . S
C1248 C1242 1.428 . S
C1248 N1247 1.351 . S
C1248 C1249 1.434 . S
C1249 C1240 1.429 . S
C1249 N1246 1.350 . S
C1249 C1248 1.434 . S
C1250 C1251 1.382 . S
C1250 C1252 1.419 . S
C1250 H1254 0.930 . S
C1251 C1250 1.382 . S
C1251 C1260 1.408 1_655 S
C1252 C1250 1.419 . S
C1252 C1253 1.363 1_655 S
C1252 H1255 0.929 . S
C1253 C1252 1.363 1_455 S
C1253 C1259 1.428 . S
H1254 C1250 0.930 . S
H1255 C1252 0.929 . S
S1256 N1257 1.613 . S
S1256 N1258 1.610 . S
N1257 S1256 1.613 . S
N1257 C1260 1.350 . S
N1258 S1256 1.610 . S
N1258 C1259 1.351 . S
C1259 C1253 1.428 . S
C1259 N1258 1.351 . S
C1259 C1260 1.434 . S
C1260 C1251 1.408 1_455 S
C1260 N1257 1.350 . S
C1260 C1259 1.434 . S
C1261 C1262 1.369 . S
C1261 C1263 1.419 . S
C1261 H1265 0.930 . S
C1262 C1261 1.369 . S
C1262 C1271 1.429 . S
C1263 C1261 1.419 . S
C1263 C1264 1.363 . S
C1263 H1266 0.929 . S
C1264 C1263 1.363 . S
C1264 C1270 1.428 . S
H1265 C1261 0.930 . S
H1266 C1263 0.929 . S
S1267 N1268 1.613 . S
S1267 N1269 1.610 . S
N1268 S1267 1.613 . S
N1268 C1271 1.350 . S
N1269 S1267 1.610 . S
N1269 C1270 1.351 . S
C1270 C1264 1.428 . S
C1270 N1269 1.351 . S
C1270 C1271 1.434 . S
C1271 C1262 1.429 . S
C1271 N1268 1.350 . S
C1271 C1270 1.434 . S
C1272 C1273 1.369 . S
C1272 C1274 1.419 . S
C1272 H1276 0.930 . S
C1273 C1272 1.369 . S
C1273 C1282 1.429 . S
C1274 C1272 1.419 . S
C1274 C1275 1.363 . S
C1274 H1277 0.929 . S
C1275 C1274 1.363 . S
C1275 C1281 1.428 . S
H1276 C1272 0.930 . S
H1277 C1274 0.929 . S
S1278 N1279 1.613 . S
S1278 N1280 1.610 . S
N1279 S1278 1.613 . S
N1279 C1282 1.350 . S
N1280 S1278 1.610 . S
N1280 C1281 1.351 . S
C1281 C1275 1.428 . S
C1281 N1280 1.351 . S
C1281 C1282 1.434 . S
C1282 C1273 1.429 . S
C1282 N1279 1.350 . S
C1282 C1281 1.434 . S
C1283 C1284 1.369 . S
C1283 C1285 1.419 . S
C1283 H1287 0.930 . S
C1284 C1283 1.369 . S
C1284 C1293 1.429 . S
C1285 C1283 1.419 . S
C1285 C1286 1.363 . S
C1285 H1288 0.929 . S
C1286 C1285 1.363 . S
C1286 C1292 1.428 . S
H1287 C1283 0.930 . S
H1288 C1285 0.929 . S
S1289 N1290 1.613 . S
S1289 N1291 1.610 . S
N1290 S1289 1.613 . S
N1290 C1293 1.350 . S
N1291 S1289 1.610 . S
N1291 C1292 1.351 . S
C1292 C1286 1.428 . S
C1292 N1291 1.351 . S
C1292 C1293 1.434 . S
C1293 C1284 1.429 . S
C1293 N1290 1.350 . S
C1293 C1292 1.434 . S
C1294 C1295 1.369 . S
C1294 C1296 1.419 . S
C1294 H1298 0.930 . S
C1295 C1294 1.369 . S
C1295 C1304 1.429 . S
C1296 C1294 1.419 . S
C1296 C1297 1.363 . S
C1296 H1299 0.929 . S
C1297 C1296 1.363 . S
C1297 C1303 1.428 . S
H1298 C1294 0.930 . S
H1299 C1296 0.929 . S
S1300 N1301 1.613 . S
S1300 N1302 1.610 . S
N1301 S1300 1.613 . S
N1301 C1304 1.350 . S
N1302 S1300 1.610 . S
N1302 C1303 1.351 . S
C1303 C1297 1.428 . S
C1303 N1302 1.351 . S
C1303 C1304 1.434 . S
C1304 C1295 1.429 . S
C1304 N1301 1.350 . S
C1304 C1303 1.434 . S
C1305 C1306 1.369 . S
C1305 C1307 1.419 . S
C1305 H1309 0.930 . S
C1306 C1305 1.369 . S
C1306 C1315 1.429 . S
C1307 C1305 1.419 . S
C1307 C1308 1.363 . S
C1307 H1310 0.929 . S
C1308 C1307 1.363 . S
C1308 C1314 1.428 . S
H1309 C1305 0.930 . S
H1310 C1307 0.929 . S
S1311 N1312 1.613 . S
S1311 N1313 1.610 . S
N1312 S1311 1.613 . S
N1312 C1315 1.350 . S
N1313 S1311 1.610 . S
N1313 C1314 1.351 . S
C1314 C1308 1.428 . S
C1314 N1313 1.351 . S
C1314 C1315 1.434 . S
C1315 C1306 1.429 . S
C1315 N1312 1.350 . S
C1315 C1314 1.434 . S
C1316 C1317 1.369 . S
C1316 C1318 1.419 . S
C1316 H1320 0.930 . S
C1317 C1316 1.369 . S
C1317 C1326 1.429 . S
C1318 C1316 1.419 . S
C1318 C1319 1.363 . S
C1318 H1321 0.929 . S
C1319 C1318 1.363 . S
C1319 C1325 1.428 . S
H1320 C1316 0.930 . S
H1321 C1318 0.929 . S
S1322 N1323 1.613 . S
S1322 N1324 1.610 . S
N1323 S1322 1.613 . S
N1323 C1326 1.350 . S
N1324 S1322 1.610 . S
N1324 C1325 1.351 . S
C1325 C1319 1.428 . S
C1325 N1324 1.351 . S
C1325 C1326 1.434 . S
C1326 C1317 1.429 . S
C1326 N1323 1.350 . S
C1326 C1325 1.434 . S
C1327 C1328 1.369 . S
C1327 C1329 1.419 . S
C1327 H1331 0.930 . S
C1328 C1327 1.369 . S
C1328 C1337 1.429 . S
C1329 C1327 1.419 . S
C1329 C1330 1.363 . S
C1329 H1332 0.929 . S
C1330 C1329 1.363 . S
C1330 C1336 1.428 . S
H1331 C1327 0.930 . S
H1332 C1329 0.929 . S
S1333 N1334 1.613 . S
S1333 N1335 1.610 . S
N1334 S1333 1.613 . S
N1334 C1337 1.350 . S
N1335 S1333 1.610 . S
N1335 C1336 1.351 . S
C1336 C1330 1.428 . S
C1336 N1335 1.351 . S
C1336 C1337 1.434 . S
C1337 C1328 1.429 . S
C1337 N1334 1.350 . S
C1337 C1336 1.434 . S
C1338 C1339 1.369 . S
C1338 C1340 1.419 . S
C1338 H1342 0.930 . S
C1339 C1338 1.369 . S
C1339 C1348 1.429 . S
C1340 C1338 1.419 . S
C1340 C1341 1.363 . S
C1340 H1343 0.929 . S
C1341 C1340 1.363 . S
C1341 C1347 1.428 . S
H1342 C1338 0.930 . S
H1343 C1340 0.929 . S
S1344 N1345 1.613 . S
S1344 N1346 1.610 . S
N1345 S1344 1.613 . S
N1345 C1348 1.350 . S
N1346 S1344 1.610 . S
N1346 C1347 1.351 . S
C1347 C1341 1.428 . S
C1347 N1346 1.351 . S
C1347 C1348 1.434 . S
C1348 C1339 1.429 . S
C1348 N1345 1.350 . S
C1348 C1347 1.434 . S
C1349 C1350 1.369 . S
C1349 C1351 1.419 . S
C1349 H1353 0.930 . S
C1350 C1349 1.369 . S
C1350 C1359 1.429 . S
C1351 C1349 1.419 . S
C1351 C1352 1.363 . S
C1351 H1354 0.929 . S
C1352 C1351 1.363 . S
C1352 C1358 1.428 . S
H1353 C1349 0.930 . S
H1354 C1351 0.929 . S
S1355 N1356 1.613 . S
S1355 N1357 1.610 . S
N1356 S1355 1.613 . S
N1356 C1359 1.350 . S
N1357 S1355 1.610 . S
N1357 C1358 1.351 . S
C1358 C1352 1.428 . S
C1358 N1357 1.351 . S
C1358 C1359 1.434 . S
C1359 C1350 1.429 . S
C1359 N1356 1.350 . S
C1359 C1358 1.434 . S
C1360 C1361 1.369 . S
C1360 C1362 1.419 . S
C1360 H1364 0.930 . S
C1361 C1360 1.369 . S
C1361 C1370 1.429 . S
C1362 C1360 1.419 . S
C1362 C1363 1.363 . S
C1362 H1365 0.929 . S
C1363 C1362 1.363 . S
C1363 C1369 1.428 . S
H1364 C1360 0.930 . S
H1365 C1362 0.929 . S
S1366 N1367 1.613 . S
S1366 N1368 1.610 . S
N1367 S1366 1.613 . S
N1367 C1370 1.350 . S
N1368 S1366 1.610 . S
N1368 C1369 1.351 . S
C1369 C1363 1.428 . S
C1369 N1368 1.351 . S
C1369 C1370 1.434 . S
C1370 C1361 1.429 . S
C1370 N1367 1.350 . S
C1370 C1369 1.434 . S
C1371 C1372 1.369 . S
C1371 C1373 1.419 . S
C1371 H1375 0.930 . S
C1372 C1371 1.369 . S
C1372 C1381 1.429 . S
C1373 C1371 1.419 . S
C1373 C1374 1.363 . S
C1373 H1376 0.929 . S
C1374 C1373 1.363 . S
C1374 C1380 1.428 . S
H1375 C1371 0.930 . S
H1376 C1373 0.929 . S
S1377 N1378 1.613 . S
S1377 N1379 1.610 . S
N1378 S1377 1.613 . S
N1378 C1381 1.350 . S
N1379 S1377 1.610 . S
N1379 C1380 1.351 . S
C1380 C1374 1.428 . S
C1380 N1379 1.351 . S
C1380 C1381 1.434 . S
C1381 C1372 1.429 . S
C1381 N1378 1.350 . S
C1381 C1380 1.434 . S
C1382 C1383 1.369 . S
C1382 C1384 1.419 . S
C1382 H1386 0.930 . S
C1383 C1382 1.369 . S
C1383 C1392 1.429 . S
C1384 C1382 1.419 . S
C1384 C1385 1.363 . S
C1384 H1387 0.929 . S
C1385 C1384 1.363 . S
C1385 C1391 1.428 . S
H1386 C1382 0.930 . S
H1387 C1384 0.929 . S
S1388 N1389 1.613 . S
S1388 N1390 1.610 . S
N1389 S1388 1.613 . S
N1389 C1392 1.350 . S
N1390 S1388 1.610 . S
N1390 C1391 1.351 . S
C1391 C1385 1.428 . S
C1391 N1390 1.351 . S
C1391 C1392 1.434 . S
C1392 C1383 1.429 . S
C1392 N1389 1.350 . S
C1392 C1391 1.434 . S
C1393 C1394 1.380 . S
C1393 C1395 1.414 1_554 S
C1393 H1397 0.924 1_554 S
C1394 C1393 1.380 . S
C1394 C1403 1.429 . S
C1395 C1393 1.414 1_556 S
C1395 C1396 1.363 1_556 S
C1395 H1398 0.929 . S
C1396 C1395 1.363 1_554 S
C1396 C1402 1.428 1_565 S
H1397 C1393 0.924 1_556 S
H1398 C1395 0.929 . S
S1399 N1400 1.613 . S
S1399 N1401 1.610 . S
N1400 S1399 1.613 . S
N1400 C1403 1.350 1_545 S
N1401 S1399 1.610 . S
N1401 C1402 1.351 . S
C1402 C1396 1.428 1_545 S
C1402 N1401 1.351 . S
C1402 C1403 1.434 1_545 S
C1403 C1394 1.429 . S
C1403 N1400 1.350 1_565 S
C1403 C1402 1.434 1_565 S
C1404 C1405 1.369 . S
C1404 C1406 1.419 . S
C1404 H1408 0.930 . S
C1405 C1404 1.369 . S
C1405 C1414 1.429 . S
C1406 C1404 1.419 . S
C1406 C1407 1.363 . S
C1406 H1409 0.929 . S
C1407 C1406 1.363 . S
C1407 C1413 1.428 . S
H1408 C1404 0.930 . S
H1409 C1406 0.929 . S
S1410 N1411 1.613 . S
S1410 N1412 1.610 . S
N1411 S1410 1.613 . S
N1411 C1414 1.350 . S
N1412 S1410 1.610 . S
N1412 C1413 1.351 . S
C1413 C1407 1.428 . S
C1413 N1412 1.351 . S
C1413 C1414 1.434 . S
C1414 C1405 1.429 . S
C1414 N1411 1.350 . S
C1414 C1413 1.434 . S
C1415 C1416 1.369 . S
C1415 C1417 1.419 . S
C1415 H1419 0.930 . S
C1416 C1415 1.369 . S
C1416 C1425 1.429 . S
C1417 C1415 1.419 . S
C1417 C1418 1.363 . S
C1417 H1420 0.929 . S
C1418 C1417 1.363 . S
C1418 C1424 1.428 . S
H1419 C1415 0.930 . S
H1420 C1417 0.929 . S
S1421 N1422 1.613 . S
S1421 N1423 1.610 . S
N1422 S1421 1.613 . S
N1422 C1425 1.350 . S
N1423 S1421 1.610 . S
N1423 C1424 1.351 . S
C1424 C1418 1.428 . S
C1424 N1423 1.351 . S
C1424 C1425 1.434 . S
C1425 C1416 1.429 . S
C1425 N1422 1.350 . S
C1425 C1424 1.434 . S
C1426 C1427 1.369 . S
C1426 C1428 1.419 . S
C1426 H1430 0.930 . S
C1427 C1426 1.369 . S
C1427 C1436 1.429 . S
C1428 C1426 1.419 . S
C1428 C1429 1.363 . S
C1428 H1431 0.929 . S
C1429 C1428 1.363 . S
C1429 C1435 1.428 . S
H1430 C1426 0.930 . S
H1431 C1428 0.929 . S
S1432 N1433 1.613 . S
S1432 N1434 1.610 . S
N1433 S1432 1.613 . S
N1433 C1436 1.350 . S
N1434 S1432 1.610 . S
N1434 C1435 1.351 . S
C1435 C1429 1.428 . S
C1435 N1434 1.351 . S
C1435 C1436 1.434 . S
C1436 C1427 1.429 . S
C1436 N1433 1.350 . S
C1436 C1435 1.434 . S
C1437 C1438 1.369 . S
C1437 C1439 1.419 . S
C1437 H1441 0.930 . S
C1438 C1437 1.369 . S
C1438 C1447 1.429 . S
C1439 C1437 1.419 . S
C1439 C1440 1.363 . S
C1439 H1442 0.929 . S
C1440 C1439 1.363 . S
C1440 C1446 1.428 . S
H1441 C1437 0.930 . S
H1442 C1439 0.929 . S
S1443 N1444 1.613 . S
S1443 N1445 1.610 . S
N1444 S1443 1.613 . S
N1444 C1447 1.350 . S
N1445 S1443 1.610 . S
N1445 C1446 1.351 . S
C1446 C1440 1.428 . S
C1446 N1445 1.351 . S
C1446 C1447 1.434 . S
C1447 C1438 1.429 . S
C1447 N1444 1.350 . S
C1447 C1446 1.434 . S
C1448 C1449 1.369 . S
C1448 C1450 1.419 . S
C1448 H1452 0.930 . S
C1449 C1448 1.369 . S
C1449 C1458 1.429 . S
C1450 C1448 1.419 . S
C1450 C1451 1.363 . S
C1450 H1453 0.929 . S
C1451 C1450 1.363 . S
C1451 C1457 1.428 . S
H1452 C1448 0.930 . S
H1453 C1450 0.929 . S
S1454 N1455 1.613 . S
S1454 N1456 1.610 . S
N1455 S1454 1.613 . S
N1455 C1458 1.350 . S
N1456 S1454 1.610 . S
N1456 C1457 1.351 . S
C1457 C1451 1.428 . S
C1457 N1456 1.351 . S
C1457 C1458 1.434 . S
C1458 C1449 1.429 . S
C1458 N1455 1.350 . S
C1458 C1457 1.434 . S
C1459 C1460 1.369 . S
C1459 C1461 1.419 . S
C1459 H1463 0.930 . S
C1460 C1459 1.369 . S
C1460 C1469 1.429 . S
C1461 C1459 1.419 . S
C1461 C1462 1.363 . S
C1461 H1464 0.929 . S
C1462 C1461 1.363 . S
C1462 C1468 1.428 . S
H1463 C1459 0.930 . S
H1464 C1461 0.929 . S
S1465 N1466 1.613 . S
S1465 N1467 1.610 . S
N1466 S1465 1.613 . S
N1466 C1469 1.350 . S
N1467 S1465 1.610 . S
N1467 C1468 1.351 . S
C1468 C1462 1.428 . S
C1468 N1467 1.351 . S
C1468 C1469 1.434 . S
C1469 C1460 1.429 . S
C1469 N1466 1.350 . S
C1469 C1468 1.434 . S
C1470 C1471 1.369 . S
C1470 C1472 1.419 . S
C1470 H1474 0.915 1_455 S
C1471 C1470 1.369 . S
C1471 C1480 1.429 . S
C1472 C1470 1.419 . S
C1472 C1473 1.363 . S
C1472 H1475 0.929 1_455 S
C1473 C1472 1.363 . S
C1473 C1479 1.428 . S
H1474 C1470 0.915 1_655 S
H1475 C1472 0.929 1_655 S
S1476 N1477 1.613 . S
S1476 N1478 1.610 . S
N1477 S1476 1.613 . S
N1477 C1480 1.350 . S
N1478 S1476 1.610 . S
N1478 C1479 1.351 . S
C1479 C1473 1.428 . S
C1479 N1478 1.351 . S
C1479 C1480 1.434 . S
C1480 C1471 1.429 . S
C1480 N1477 1.350 . S
C1480 C1479 1.434 . S
C1481 C1482 1.369 . S
C1481 C1483 1.419 . S
C1481 H1485 0.930 . S
C1482 C1481 1.369 . S
C1482 C1491 1.429 . S
C1483 C1481 1.419 . S
C1483 C1484 1.363 . S
C1483 H1486 0.929 . S
C1484 C1483 1.363 . S
C1484 C1490 1.428 . S
H1485 C1481 0.930 . S
H1486 C1483 0.929 . S
S1487 N1488 1.613 . S
S1487 N1489 1.610 . S
N1488 S1487 1.613 . S
N1488 C1491 1.350 . S
N1489 S1487 1.610 . S
N1489 C1490 1.351 . S
C1490 C1484 1.428 . S
C1490 N1489 1.351 . S
C1490 C1491 1.434 . S
C1491 C1482 1.429 . S
C1491 N1488 1.350 . S
C1491 C1490 1.434 . S
C1492 C1493 1.369 . S
C1492 C1494 1.419 . S
C1492 H1496 0.930 . S
C1493 C1492 1.369 . S
C1493 C1502 1.429 . S
C1494 C1492 1.419 . S
C1494 C1495 1.363 . S
C1494 H1497 0.929 . S
C1495 C1494 1.363 . S
C1495 C1501 1.428 . S
H1496 C1492 0.930 . S
H1497 C1494 0.929 . S
S1498 N1499 1.613 . S
S1498 N1500 1.610 . S
N1499 S1498 1.613 . S
N1499 C1502 1.350 . S
N1500 S1498 1.610 . S
N1500 C1501 1.351 . S
C1501 C1495 1.428 . S
C1501 N1500 1.351 . S
C1501 C1502 1.434 . S
C1502 C1493 1.429 . S
C1502 N1499 1.350 . S
C1502 C1501 1.434 . S
C1503 C1504 1.369 . S
C1503 C1505 1.419 . S
C1503 H1507 0.930 . S
C1504 C1503 1.369 . S
C1504 C1513 1.429 . S
C1505 C1503 1.419 . S
C1505 C1506 1.363 . S
C1505 H1508 0.929 . S
C1506 C1505 1.363 . S
C1506 C1512 1.428 . S
H1507 C1503 0.930 . S
H1508 C1505 0.929 . S
S1509 N1510 1.613 . S
S1509 N1511 1.610 . S
N1510 S1509 1.613 . S
N1510 C1513 1.350 . S
N1511 S1509 1.610 . S
N1511 C1512 1.351 . S
C1512 C1506 1.428 . S
C1512 N1511 1.351 . S
C1512 C1513 1.434 . S
C1513 C1504 1.429 . S
C1513 N1510 1.350 . S
C1513 C1512 1.434 . S
C1514 C1515 1.369 . S
C1514 C1516 1.419 . S
C1514 H1518 0.930 . S
C1515 C1514 1.369 . S
C1515 C1524 1.429 . S
C1516 C1514 1.419 . S
C1516 C1517 1.363 . S
C1516 H1519 0.929 . S
C1517 C1516 1.363 . S
C1517 C1523 1.428 . S
H1518 C1514 0.930 . S
H1519 C1516 0.929 . S
S1520 N1521 1.613 . S
S1520 N1522 1.610 . S
N1521 S1520 1.613 . S
N1521 C1524 1.350 1_655 S
N1522 S1520 1.610 . S
N1522 C1523 1.351 1_655 S
C1523 C1517 1.428 . S
C1523 N1522 1.351 1_455 S
C1523 C1524 1.434 . S
C1524 C1515 1.429 . S
C1524 N1521 1.350 1_455 S
C1524 C1523 1.434 . S
C1525 C1526 1.369 . S
C1525 C1527 1.419 . S
C1525 H1529 0.930 . S
C1526 C1525 1.369 . S
C1526 C1535 1.429 . S
C1527 C1525 1.419 . S
C1527 C1528 1.363 . S
C1527 H1530 0.929 . S
C1528 C1527 1.363 . S
C1528 C1534 1.428 . S
H1529 C1525 0.930 . S
H1530 C1527 0.929 . S
S1531 N1532 1.613 . S
S1531 N1533 1.610 . S
N1532 S1531 1.613 . S
N1532 C1535 1.350 . S
N1533 S1531 1.610 . S
N1533 C1534 1.351 . S
C1534 C1528 1.428 . S
C1534 N1533 1.351 . S
C1534 C1535 1.434 . S
C1535 C1526 1.429 . S
C1535 N1532 1.350 . S
C1535 C1534 1.434 . S
C1536 C1537 1.369 . S
C1536 C1538 1.419 . S
C1536 H1540 0.930 . S
C1537 C1536 1.369 . S
C1537 C1546 1.429 . S
C1538 C1536 1.419 . S
C1538 C1539 1.363 . S
C1538 H1541 0.929 . S
C1539 C1538 1.363 . S
C1539 C1545 1.428 . S
H1540 C1536 0.930 . S
H1541 C1538 0.929 . S
S1542 N1543 1.613 . S
S1542 N1544 1.610 . S
N1543 S1542 1.613 . S
N1543 C1546 1.350 . S
N1544 S1542 1.610 . S
N1544 C1545 1.351 . S
C1545 C1539 1.428 . S
C1545 N1544 1.351 . S
C1545 C1546 1.434 . S
C1546 C1537 1.429 . S
C1546 N1543 1.350 . S
C1546 C1545 1.434 . S
C1547 C1548 1.369 . S
C1547 C1549 1.419 . S
C1547 H1551 0.930 . S
C1548 C1547 1.369 . S
C1548 C1557 1.429 . S
C1549 C1547 1.419 . S
C1549 C1550 1.363 . S
C1549 H1552 0.929 . S
C1550 C1549 1.363 . S
C1550 C1556 1.428 . S
H1551 C1547 0.930 . S
H1552 C1549 0.929 . S
S1553 N1554 1.613 . S
S1553 N1555 1.610 . S
N1554 S1553 1.613 . S
N1554 C1557 1.350 . S
N1555 S1553 1.610 . S
N1555 C1556 1.351 . S
C1556 C1550 1.428 . S
C1556 N1555 1.351 . S
C1556 C1557 1.434 . S
C1557 C1548 1.429 . S
C1557 N1554 1.350 . S
C1557 C1556 1.434 . S
C1558 C1559 1.369 . S
C1558 C1560 1.419 . S
C1558 H1562 0.930 . S
C1559 C1558 1.369 . S
C1559 C1568 1.429 . S
C1560 C1558 1.419 . S
C1560 C1561 1.363 . S
C1560 H1563 0.929 . S
C1561 C1560 1.363 . S
C1561 C1567 1.428 1_655 S
H1562 C1558 0.930 . S
H1563 C1560 0.929 . S
S1564 N1565 1.626 . S
S1564 N1566 1.610 . S
N1565 S1564 1.626 . S
N1565 C1568 1.342 1_455 S
N1566 S1564 1.610 . S
N1566 C1567 1.351 . S
C1567 C1561 1.428 1_455 S
C1567 N1566 1.351 . S
C1567 C1568 1.434 1_455 S
C1568 C1559 1.429 . S
C1568 N1565 1.342 1_655 S
C1568 C1567 1.434 1_655 S
C1569 C1570 1.369 . S
C1569 C1571 1.419 . S
C1569 H1573 0.930 . S
C1570 C1569 1.369 . S
C1570 C1579 1.429 . S
C1571 C1569 1.419 . S
C1571 C1572 1.363 . S
C1571 H1574 0.929 . S
C1572 C1571 1.363 . S
C1572 C1578 1.428 . S
H1573 C1569 0.930 . S
H1574 C1571 0.929 . S
S1575 N1576 1.613 . S
S1575 N1577 1.610 . S
N1576 S1575 1.613 . S
N1576 C1579 1.350 . S
N1577 S1575 1.610 . S
N1577 C1578 1.351 . S
C1578 C1572 1.428 . S
C1578 N1577 1.351 . S
C1578 C1579 1.434 . S
C1579 C1570 1.429 . S
C1579 N1576 1.350 . S
C1579 C1578 1.434 . S
C1580 C1581 1.369 . S
C1580 C1582 1.419 . S
C1580 H1584 0.930 . S
C1581 C1580 1.369 . S
C1581 C1590 1.429 . S
C1582 C1580 1.419 . S
C1582 C1583 1.363 . S
C1582 H1585 0.929 . S
C1583 C1582 1.363 . S
C1583 C1589 1.428 . S
H1584 C1580 0.930 . S
H1585 C1582 0.929 . S
S1586 N1587 1.613 . S
S1586 N1588 1.610 . S
N1587 S1586 1.613 . S
N1587 C1590 1.350 . S
N1588 S1586 1.610 . S
N1588 C1589 1.351 . S
C1589 C1583 1.428 . S
C1589 N1588 1.351 . S
C1589 C1590 1.434 . S
C1590 C1581 1.429 . S
C1590 N1587 1.350 . S
C1590 C1589 1.434 . S
C1591 C1592 1.369 . S
C1591 C1593 1.419 . S
C1591 H1595 0.930 . S
C1592 C1591 1.369 . S
C1592 C1601 1.429 . S
C1593 C1591 1.419 . S
C1593 C1594 1.363 . S
C1593 H1596 0.929 . S
C1594 C1593 1.363 . S
C1594 C1600 1.428 . S
H1595 C1591 0.930 . S
H1596 C1593 0.929 . S
S1597 N1598 1.613 . S
S1597 N1599 1.610 . S
N1598 S1597 1.613 . S
N1598 C1601 1.350 . S
N1599 S1597 1.610 . S
N1599 C1600 1.351 . S
C1600 C1594 1.428 . S
C1600 N1599 1.351 . S
C1600 C1601 1.434 . S
C1601 C1592 1.429 . S
C1601 N1598 1.350 . S
C1601 C1600 1.434 . S
C1602 C1603 1.369 . S
C1602 C1604 1.419 . S
C1602 H1606 0.930 . S
C1603 C1602 1.369 . S
C1603 C1612 1.429 . S
C1604 C1602 1.419 . S
C1604 C1605 1.363 . S
C1604 H1607 0.929 . S
C1605 C1604 1.363 . S
C1605 C1611 1.428 . S
H1606 C1602 0.930 . S
H1607 C1604 0.929 . S
S1608 N1609 1.613 . S
S1608 N1610 1.610 . S
N1609 S1608 1.613 . S
N1609 C1612 1.350 . S
N1610 S1608 1.610 . S
N1610 C1611 1.351 . S
C1611 C1605 1.428 . S
C1611 N1610 1.351 . S
C1611 C1612 1.434 . S
C1612 C1603 1.429 . S
C1612 N1609 1.350 . S
C1612 C1611 1.434 . S
C1613 C1614 1.369 . S
C1613 C1615 1.419 . S
C1613 H1617 0.930 . S
C1614 C1613 1.369 . S
C1614 C1623 1.429 . S
C1615 C1613 1.419 . S
C1615 C1616 1.363 . S
C1615 H1618 0.929 . S
C1616 C1615 1.363 . S
C1616 C1622 1.428 . S
H1617 C1613 0.930 . S
H1618 C1615 0.929 . S
S1619 N1620 1.613 . S
S1619 N1621 1.610 . S
N1620 S1619 1.613 . S
N1620 C1623 1.350 . S
N1621 S1619 1.610 . S
N1621 C1622 1.351 . S
C1622 C1616 1.428 . S
C1622 N1621 1.351 . S
C1622 C1623 1.434 . S
C1623 C1614 1.429 . S
C1623 N1620 1.350 . S
C1623 C1622 1.434 . S
C1624 C1625 1.369 . S
C1624 C1626 1.419 . S
C1624 H1628 0.930 . S
C1625 C1624 1.369 . S
C1625 C1634 1.429 . S
C1626 C1624 1.419 . S
C1626 C1627 1.363 . S
C1626 H1629 0.929 . S
C1627 C1626 1.363 . S
C1627 C1633 1.428 . S
H1628 C1624 0.930 . S
H1629 C1626 0.929 . S
S1630 N1631 1.613 . S
S1630 N1632 1.610 . S
N1631 S1630 1.613 . S
N1631 C1634 1.350 . S
N1632 S1630 1.610 . S
N1632 C1633 1.351 . S
C1633 C1627 1.428 . S
C1633 N1632 1.351 . S
C1633 C1634 1.434 . S
C1634 C1625 1.429 . S
C1634 N1631 1.350 . S
C1634 C1633 1.434 . S
C1635 C1636 1.369 . S
C1635 C1637 1.419 . S
C1635 H1639 0.930 . S
C1636 C1635 1.369 . S
C1636 C1645 1.429 . S
C1637 C1635 1.419 . S
C1637 C1638 1.363 . S
C1637 H1640 0.929 . S
C1638 C1637 1.363 . S
C1638 C1644 1.428 . S
H1639 C1635 0.930 . S
H1640 C1637 0.929 . S
S1641 N1642 1.613 . S
S1641 N1643 1.610 . S
N1642 S1641 1.613 . S
N1642 C1645 1.350 . S
N1643 S1641 1.610 . S
N1643 C1644 1.351 . S
C1644 C1638 1.428 . S
C1644 N1643 1.351 . S
C1644 C1645 1.434 . S
C1645 C1636 1.429 . S
C1645 N1642 1.350 . S
C1645 C1644 1.434 . S
C1646 C1647 1.369 . S
C1646 C1648 1.419 . S
C1646 H1650 0.930 . S
C1647 C1646 1.369 . S
C1647 C1656 1.429 . S
C1648 C1646 1.419 . S
C1648 C1649 1.363 . S
C1648 H1651 0.929 . S
C1649 C1648 1.363 . S
C1649 C1655 1.428 . S
H1650 C1646 0.930 . S
H1651 C1648 0.929 . S
S1652 N1653 1.613 . S
S1652 N1654 1.610 . S
N1653 S1652 1.613 . S
N1653 C1656 1.350 . S
N1654 S1652 1.610 . S
N1654 C1655 1.351 . S
C1655 C1649 1.428 . S
C1655 N1654 1.351 . S
C1655 C1656 1.434 . S
C1656 C1647 1.429 . S
C1656 N1653 1.350 . S
C1656 C1655 1.434 . S
C1657 C1658 1.369 . S
C1657 C1659 1.419 . S
C1657 H1661 0.930 . S
C1658 C1657 1.369 . S
C1658 C1667 1.429 1_556 S
C1659 C1657 1.419 . S
C1659 C1660 1.363 1_556 S
C1659 H1662 0.929 . S
C1660 C1659 1.363 1_554 S
C1660 C1666 1.428 . S
H1661 C1657 0.930 . S
H1662 C1659 0.929 . S
S1663 N1664 1.642 . S
S1663 N1665 1.620 . S
N1664 S1663 1.642 . S
N1664 C1667 1.350 . S
N1665 S1663 1.620 . S
N1665 C1666 1.351 . S
C1666 C1660 1.428 . S
C1666 N1665 1.351 . S
C1666 C1667 1.434 . S
C1667 C1658 1.429 1_554 S
C1667 N1664 1.350 . S
C1667 C1666 1.434 . S
C1668 C1669 1.369 . S
C1668 C1670 1.419 . S
C1668 H1672 0.930 . S
C1669 C1668 1.369 . S
C1669 C1678 1.429 . S
C1670 C1668 1.419 . S
C1670 C1671 1.363 . S
C1670 H1673 0.929 . S
C1671 C1670 1.363 . S
C1671 C1677 1.428 . S
H1672 C1668 0.930 . S
H1673 C1670 0.929 . S
S1674 N1675 1.613 . S
S1674 N1676 1.610 . S
N1675 S1674 1.613 . S
N1675 C1678 1.350 . S
N1676 S1674 1.610 . S
N1676 C1677 1.351 . S
C1677 C1671 1.428 . S
C1677 N1676 1.351 . S
C1677 C1678 1.434 . S
C1678 C1669 1.429 . S
C1678 N1675 1.350 . S
C1678 C1677 1.434 . S
C1679 C1680 1.369 1_556 S
C1679 C1681 1.419 . S
C1679 H1683 0.930 . S
C1680 C1679 1.369 1_554 S
C1680 C1689 1.429 . S
C1681 C1679 1.419 . S
C1681 C1682 1.363 . S
C1681 H1684 0.929 . S
C1682 C1681 1.363 . S
C1682 C1688 1.428 1_556 S
H1683 C1679 0.930 . S
H1684 C1681 0.929 . S
S1685 N1686 1.613 . S
S1685 N1687 1.610 . S
N1686 S1685 1.613 . S
N1686 C1689 1.350 . S
N1687 S1685 1.610 . S
N1687 C1688 1.351 . S
C1688 C1682 1.428 1_554 S
C1688 N1687 1.351 . S
C1688 C1689 1.434 . S
C1689 C1680 1.429 . S
C1689 N1686 1.350 . S
C1689 C1688 1.434 . S
C1690 C1691 1.369 . S
C1690 C1692 1.419 . S
C1690 H1694 0.930 . S
C1691 C1690 1.369 . S
C1691 C1700 1.429 . S
C1692 C1690 1.419 . S
C1692 C1693 1.363 . S
C1692 H1695 0.929 . S
C1693 C1692 1.363 . S
C1693 C1699 1.428 . S
H1694 C1690 0.930 . S
H1695 C1692 0.929 . S
S1696 N1697 1.613 . S
S1696 N1698 1.610 . S
N1697 S1696 1.613 . S
N1697 C1700 1.350 . S
N1698 S1696 1.610 . S
N1698 C1699 1.351 . S
C1699 C1693 1.428 . S
C1699 N1698 1.351 . S
C1699 C1700 1.434 . S
C1700 C1691 1.429 . S
C1700 N1697 1.350 . S
C1700 C1699 1.434 . S
C1701 C1702 1.369 . S
C1701 C1703 1.419 . S
C1701 H1705 0.930 . S
C1702 C1701 1.369 . S
C1702 C1711 1.429 . S
C1703 C1701 1.419 . S
C1703 C1704 1.363 . S
C1703 H1706 0.929 . S
C1704 C1703 1.363 . S
C1704 C1710 1.428 . S
H1705 C1701 0.930 . S
H1706 C1703 0.929 . S
S1707 N1708 1.613 . S
S1707 N1709 1.610 . S
N1708 S1707 1.613 . S
N1708 C1711 1.350 . S
N1709 S1707 1.610 . S
N1709 C1710 1.351 . S
C1710 C1704 1.428 . S
C1710 N1709 1.351 . S
C1710 C1711 1.434 . S
C1711 C1702 1.429 . S
C1711 N1708 1.350 . S
C1711 C1710 1.434 . S
C657 C105 1.670 . S
C659 C354 1.632 . S
C668 C65 1.712 . S
C670 C365 1.715 . S
C679 C73 1.240 . S
C681 C394 1.190 . S
C692 C397 1.455 . S
C690 C92 1.467 . S
C701 C17 1.714 . S
C703 C435 1.627 . S
C714 C438 1.244 . S
C712 C37 1.241 . S
C725 C465 1.571 . S
C723 C49 1.501 . S
C734 C8 1.724 . S
C736 C494 1.629 . S
C747 C345 1.666 1_655 S
C745 C231 1.591 . S
C756 C241 1.111 . S
C758 C357 1.090 . S
C769 C385 1.573 . S
C767 C273 1.526 . S
C780 C414 1.275 . S
C778 C171 1.293 . S
C789 C227 1.206 . S
C791 C418 1.211 . S
C802 C444 1.616 . S
C800 C245 1.579 . S
C813 C457 0.941 . S
C811 C269 0.953 . S
C824 C485 1.667 . S
C822 C175 1.646 . S
C835 C337 1.555 1_565 S
C833 C162 1.588 . S
C844 C289 1.764 . S
C846 C504 1.725 . S
C857 C535 1.618 . S
C855 C330 1.693 . S
C868 C554 1.066 . S
C866 C317 1.094 . S
C877 C120 1.450 . S
C879 C477 1.456 . S
C888 C134 1.586 . S
C890 C377 1.577 . S
C899 C331 1.581 . S
C901 C565 1.581 . S
C912 C594 1.042 . S
C910 C303 1.117 . S
C923 C355 1.647 . S
C921 C59 1.696 . S
C934 C584 1.727 . S
C932 C107 1.722 . S
C943 C91 1.220 . S
C945 C395 1.216 . S
C954 C78 1.478 . S
C956 C558 1.475 . S
C967 C434 1.650 . S
C965 C7 1.672 . S
C976 C51 1.246 . S
C978 C517 1.243 . S
C989 C464 1.591 . S
C987 C31 1.595 . S
C1000 C615 1.639 . S
C998 C22 1.722 . S
C1011 C344 1.670 . S
C1009 C143 1.668 . S
C1022 C578 1.095 . S
C1020 C315 1.073 . S
C1031 C115 1.589 . S
C1033 C384 1.583 . S
C1042 C287 1.297 . S
C1044 C575 1.312 . S
C1053 C147 1.139 . S
C1055 C417 1.229 . S
C1066 C525 1.621 . S
C1064 C311 1.648 . S
C1075 C119 0.948 . S
C1077 C458 0.953 . S
C1086 C283 1.692 . S
C1088 C604 1.680 . S
C1097 C190 1.579 1_556 S
C1099 C338 1.553 . S
C1108 C177 1.771 . S
C1110 C505 1.736 . S
C1119 C260 1.683 . S
C1121 C454 1.626 . S
C1130 C247 1.122 . S
C1132 C555 1.098 . S
C1143 C598 1.448 . S
C1141 C274 1.439 . S
C1152 C218 1.575 . S
C1154 C378 1.585 . S
C1165 C404 1.601 . S
C1163 C261 1.595 . S
C1176 C375 1.051 . S
C1174 C205 1.125 . S
C1185 C77 1.667 . S
C1187 C634 1.636 . S
C1198 C585 1.715 . S
C1196 C93 1.714 . S
C1207 C101 1.240 . S
C1209 C654 1.186 . S
C1218 C64 1.465 . S
C1220 C557 1.459 . S
C1229 C45 1.713 . S
C1231 C515 1.629 . S
C1242 C518 1.240 . S
C1240 C9 1.236 . S
C1253 C545 1.572 . S
C1251 C21 1.497 1_655 S
C1264 C614 1.637 . S
C1262 C36 1.719 . S
C1275 C625 1.666 . S
C1273 C259 1.587 . S
C1284 C185 1.119 . S
C1286 C577 1.082 . S
C1297 C645 1.572 . S
C1295 C203 1.520 . S
C1308 C574 1.276 . S
C1306 C213 1.294 . S
C1319 C498 1.213 . S
C1317 C255 1.200 . S
C1328 C189 1.582 . S
C1330 C524 1.613 . S
C1341 C537 0.940 . S
C1339 C199 0.954 . S
C1350 C217 1.648 . S
C1352 C605 1.668 . S
C1363 C617 1.550 . S
C1361 C316 1.589 . S
C1372 C135 1.763 . S
C1374 C424 1.726 . S
C1385 C455 1.612 . S
C1383 C148 1.703 . S
C1396 C474 1.074 . S
C1394 C163 1.094 . S
C1407 C597 1.450 . S
C1405 C302 1.454 . S
C1416 C288 1.581 . S
C1418 C637 1.580 . S
C1429 C405 1.581 . S
C1427 C149 1.578 . S
C1440 C374 1.037 . S
C1438 C121 1.117 . S
C1449 C87 1.692 . S
C1451 C635 1.648 . S
C1462 C364 1.727 . S
C1460 C79 1.720 . S
C1471 C63 1.224 . S
C1473 C655 1.212 . S
C1482 C106 1.480 . S
C1484 C398 1.474 . S
C1493 C35 1.667 . S
C1495 C514 1.655 . S
C1506 C437 1.245 . S
C1504 C23 1.251 . S
C1515 C3 1.593 . S
C1517 C544 1.592 . S
C1526 C50 1.719 . S
C1528 C495 1.646 . S
C1539 C624 1.670 . S
C1537 C325 1.668 . S
C1548 C161 1.071 . S
C1550 C358 1.094 . S
C1561 C644 1.581 1_655 S
C1559 C297 1.589 . S
C1570 C133 1.296 . S
C1572 C415 1.310 . S
C1581 C329 1.139 . S
C1583 C497 1.231 . S
C1594 C445 1.621 . S
C1592 C157 1.648 . S
C1603 C301 0.934 . S
C1605 C538 0.962 . S
C1616 C484 1.680 . S
C1614 C129 1.692 . S
C1627 C618 1.557 . S
C1625 C246 1.576 . S
C1638 C425 1.740 1_565 S
C1636 C219 1.770 . S
C1647 C232 1.688 . S
C1649 C534 1.623 . S
C1660 C475 1.106 . S
C1658 C191 1.126 . S
C1669 C204 1.431 . S
C1671 C478 1.453 . S
C1680 C176 1.576 . S
C1682 C638 1.584 . S
C1693 C564 1.600 . S
C1691 C233 1.597 . S
C1704 C595 1.057 . S
C1702 C275 1.125 . S
