# Generated by pormake.
# Topology ocu, (6,8)-cn, num edge types: 1
# Building blocks:
#     Node 0, Type 0, BuildingBlock: JUFBIX_clean_sbu_0, # of connection points: 6
#     Node 1, Type 0, BuildingBlock: JUFBIX_clean_sbu_0, # of connection points: 6
#     Node 2, Type 0, BuildingBlock: JUFBIX_clean_sbu_0, # of connection points: 6
#     Node 3, Type 0, BuildingBlock: JUFBIX_clean_sbu_0, # of connection points: 6
#     Node 4, Type 0, BuildingBlock: JUFBIX_clean_sbu_0, # of connection points: 6
#     Node 5, Type 0, BuildingBlock: JUFBIX_clean_sbu_0, # of connection points: 6
#     Node 6, Type 0, BuildingBlock: JUFBIX_clean_sbu_0, # of connection points: 6
#     Node 7, Type 0, BuildingBlock: JUFBIX_clean_sbu_0, # of connection points: 6
#     Node 8, Type 1, BuildingBlock: TAGTUT_clean_sbu_1, # of connection points: 8
#     Node 9, Type 1, BuildingBlock: TAGTUT_clean_sbu_1, # of connection points: 8
#     Node 10, Type 1, BuildingBlock: TAGTUT_clean_sbu_1, # of connection points: 8
#     Node 11, Type 1, BuildingBlock: TAGTUT_clean_sbu_1, # of connection points: 8
#     Node 12, Type 1, BuildingBlock: TAGTUT_clean_sbu_1, # of connection points: 8
#     Node 13, Type 1, BuildingBlock: TAGTUT_clean_sbu_1, # of connection points: 8
#     Edge 14, Type (0, 1), BuildingBlock: XIVTED_clean_linker_0, # of connection points: 2
#     Edge 15, Type (0, 1), BuildingBlock: XIVTED_clean_linker_0, # of connection points: 2
#     Edge 16, Type (0, 1), BuildingBlock: XIVTED_clean_linker_0, # of connection points: 2
#     Edge 17, Type (0, 1), BuildingBlock: XIVTED_clean_linker_0, # of connection points: 2
#     Edge 18, Type (0, 1), BuildingBlock: XIVTED_clean_linker_0, # of connection points: 2
#     Edge 19, Type (0, 1), BuildingBlock: XIVTED_clean_linker_0, # of connection points: 2
#     Edge 20, Type (0, 1), BuildingBlock: XIVTED_clean_linker_0, # of connection points: 2
#     Edge 21, Type (0, 1), BuildingBlock: XIVTED_clean_linker_0, # of connection points: 2
#     Edge 22, Type (0, 1), BuildingBlock: XIVTED_clean_linker_0, # of connection points: 2
#     Edge 23, Type (0, 1), BuildingBlock: XIVTED_clean_linker_0, # of connection points: 2
#     Edge 24, Type (0, 1), BuildingBlock: XIVTED_clean_linker_0, # of connection points: 2
#     Edge 25, Type (0, 1), BuildingBlock: XIVTED_clean_linker_0, # of connection points: 2
#     Edge 26, Type (0, 1), BuildingBlock: XIVTED_clean_linker_0, # of connection points: 2
#     Edge 27, Type (0, 1), BuildingBlock: XIVTED_clean_linker_0, # of connection points: 2
#     Edge 28, Type (0, 1), BuildingBlock: XIVTED_clean_linker_0, # of connection points: 2
#     Edge 29, Type (0, 1), BuildingBlock: XIVTED_clean_linker_0, # of connection points: 2
#     Edge 30, Type (0, 1), BuildingBlock: XIVTED_clean_linker_0, # of connection points: 2
#     Edge 31, Type (0, 1), BuildingBlock: XIVTED_clean_linker_0, # of connection points: 2
#     Edge 32, Type (0, 1), BuildingBlock: XIVTED_clean_linker_0, # of connection points: 2
#     Edge 33, Type (0, 1), BuildingBlock: XIVTED_clean_linker_0, # of connection points: 2
#     Edge 34, Type (0, 1), BuildingBlock: XIVTED_clean_linker_0, # of connection points: 2
#     Edge 35, Type (0, 1), BuildingBlock: XIVTED_clean_linker_0, # of connection points: 2
#     Edge 36, Type (0, 1), BuildingBlock: XIVTED_clean_linker_0, # of connection points: 2
#     Edge 37, Type (0, 1), BuildingBlock: XIVTED_clean_linker_0, # of connection points: 2
#     Edge 38, Type (0, 1), BuildingBlock: XIVTED_clean_linker_0, # of connection points: 2
#     Edge 39, Type (0, 1), BuildingBlock: XIVTED_clean_linker_0, # of connection points: 2
#     Edge 40, Type (0, 1), BuildingBlock: XIVTED_clean_linker_0, # of connection points: 2
#     Edge 41, Type (0, 1), BuildingBlock: XIVTED_clean_linker_0, # of connection points: 2
#     Edge 42, Type (0, 1), BuildingBlock: XIVTED_clean_linker_0, # of connection points: 2
#     Edge 43, Type (0, 1), BuildingBlock: XIVTED_clean_linker_0, # of connection points: 2
#     Edge 44, Type (0, 1), BuildingBlock: XIVTED_clean_linker_0, # of connection points: 2
#     Edge 45, Type (0, 1), BuildingBlock: XIVTED_clean_linker_0, # of connection points: 2
#     Edge 46, Type (0, 1), BuildingBlock: XIVTED_clean_linker_0, # of connection points: 2
#     Edge 47, Type (0, 1), BuildingBlock: XIVTED_clean_linker_0, # of connection points: 2
#     Edge 48, Type (0, 1), BuildingBlock: XIVTED_clean_linker_0, # of connection points: 2
#     Edge 49, Type (0, 1), BuildingBlock: XIVTED_clean_linker_0, # of connection points: 2
#     Edge 50, Type (0, 1), BuildingBlock: XIVTED_clean_linker_0, # of connection points: 2
#     Edge 51, Type (0, 1), BuildingBlock: XIVTED_clean_linker_0, # of connection points: 2
#     Edge 52, Type (0, 1), BuildingBlock: XIVTED_clean_linker_0, # of connection points: 2
#     Edge 53, Type (0, 1), BuildingBlock: XIVTED_clean_linker_0, # of connection points: 2
#     Edge 54, Type (0, 1), BuildingBlock: XIVTED_clean_linker_0, # of connection points: 2
#     Edge 55, Type (0, 1), BuildingBlock: XIVTED_clean_linker_0, # of connection points: 2
#     Edge 56, Type (0, 1), BuildingBlock: XIVTED_clean_linker_0, # of connection points: 2
#     Edge 57, Type (0, 1), BuildingBlock: XIVTED_clean_linker_0, # of connection points: 2
#     Edge 58, Type (0, 1), BuildingBlock: XIVTED_clean_linker_0, # of connection points: 2
#     Edge 59, Type (0, 1), BuildingBlock: XIVTED_clean_linker_0, # of connection points: 2
#     Edge 60, Type (0, 1), BuildingBlock: XIVTED_clean_linker_0, # of connection points: 2
#     Edge 61, Type (0, 1), BuildingBlock: XIVTED_clean_linker_0, # of connection points: 2
# Relax obj value: 0.186
# Max RMSD: 0.311
# Mean RMSD: 0.181
data_MOF--net-ocu--node1-JUFBIX_clean_sbu_0--node2-TAGTUT_clean_sbu_1--edge1-XIVTED_clean_linker_0
_symmetry_space_group_name_H-M    P1
_symmetry_Int_Tables_number       1
_symmetry_cell_setting            triclinic
loop_
_symmetry_equiv_pos_as_xyz
'x, y, z'
_cell_length_a     37.56324
_cell_length_b     36.727062
_cell_length_c     39.992348
_cell_angle_alpha  92.940039
_cell_angle_beta   94.891012
_cell_angle_gamma 100.73282
loop_
_atom_site_label
_atom_site_type_symbol
_atom_site_fract_x
_atom_site_fract_y
_atom_site_fract_z
_atom_type_partial_charge
Co0 Co 0.23609 0.23008 0.23858 0.0
C1 C 0.22976 0.27997 0.29251 0.0
Co2 Co 0.28145 0.27772 0.24827 0.0
C3 C 0.17414 0.17822 0.2538 0.0
C4 C 0.18281 0.17087 0.20197 0.0
N5 N 0.19655 0.1913 0.23082 0.0
N6 N 0.14695 0.15083 0.24058 0.0
C7 C 0.15242 0.14547 0.20805 0.0
H8 H 0.17804 0.1879 0.28012 0.0
H9 H 0.19405 0.1742 0.17805 0.0
C10 C 0.28881 0.22863 0.19434 0.0
N11 N 0.32077 0.31624 0.25652 0.0
C12 C 0.33456 0.33879 0.23353 0.0
C13 C 0.34483 0.32477 0.28418 0.0
N14 N 0.36645 0.36062 0.24536 0.0
C15 C 0.37345 0.3518 0.27713 0.0
C16 C 0.29222 0.21523 0.2827 0.0
O17 O 0.25865 0.21068 0.20214 0.0
O18 O 0.30294 0.25913 0.21088 0.0
O19 O 0.30615 0.2483 0.27695 0.0
O20 O 0.26045 0.20126 0.26892 0.0
O21 O 0.26065 0.29638 0.28534 0.0
H22 H 0.34279 0.31079 0.3073 0.0
H23 H 0.32291 0.33713 0.20764 0.0
O24 O 0.21418 0.25042 0.27523 0.0
O25 O 0.21175 0.2585 0.20854 0.0
O26 O 0.25579 0.30698 0.21905 0.0
C27 C 0.22471 0.29225 0.20407 0.0
H28 H 0.13563 0.1249 0.19013 0.0
H29 H 0.39807 0.36286 0.29337 0.0
Co30 Co 0.79423 0.25997 0.24247 0.0
C31 C 0.78679 0.30954 0.29558 0.0
Co32 Co 0.74445 0.24495 0.26732 0.0
C33 C 0.85123 0.27133 0.19763 0.0
C34 C 0.8711 0.27626 0.24964 0.0
N35 N 0.84018 0.27036 0.22869 0.0
N36 N 0.88798 0.27756 0.19832 0.0
C37 C 0.90038 0.28036 0.23116 0.0
H38 H 0.83256 0.2689 0.17514 0.0
H39 H 0.87234 0.27779 0.27681 0.0
C40 C 0.75169 0.19627 0.21321 0.0
N41 N 0.69904 0.23554 0.28223 0.0
C42 C 0.67644 0.20262 0.28262 0.0
C43 C 0.6786 0.26119 0.2886 0.0
N44 N 0.64245 0.20661 0.28847 0.0
C45 C 0.64384 0.24351 0.29254 0.0
C46 C 0.74172 0.29172 0.21187 0.0
O47 O 0.78219 0.21763 0.21212 0.0
O48 O 0.731 0.20341 0.23521 0.0
O49 O 0.72561 0.27594 0.23544 0.0
O50 O 0.77453 0.28858 0.20879 0.0
O51 O 0.75808 0.28634 0.29915 0.0
H52 H 0.68794 0.29091 0.28877 0.0
H53 H 0.68483 0.1763 0.27823 0.0
O54 O 0.80629 0.30308 0.27243 0.0
O55 O 0.8132 0.23103 0.27545 0.0
O56 O 0.76342 0.21348 0.29943 0.0
C57 C 0.79693 0.21257 0.29744 0.0
H58 H 0.92858 0.28625 0.2414 0.0
H59 H 0.62129 0.25692 0.29732 0.0
Co60 Co 0.75239 0.71827 0.27359 0.0
C61 C 0.80192 0.78217 0.3013 0.0
Co62 Co 0.75841 0.76676 0.24343 0.0
C63 C 0.78381 0.66241 0.30262 0.0
C64 C 0.73157 0.66131 0.3202 0.0
N65 N 0.75426 0.67797 0.29869 0.0
N66 N 0.78108 0.63725 0.32575 0.0
C67 C 0.74851 0.63669 0.33755 0.0
H68 H 0.80898 0.67244 0.29186 0.0
H69 H 0.70574 0.66856 0.32489 0.0
C70 C 0.70912 0.70293 0.21588 0.0
N71 N 0.75498 0.80646 0.21841 0.0
C72 C 0.7223 0.8115 0.20547 0.0
C73 C 0.77862 0.83695 0.21153 0.0
N74 N 0.724 0.84353 0.19071 0.0
C75 C 0.7594 0.86014 0.19443 0.0
C76 C 0.80339 0.72278 0.22375 0.0
O77 O 0.71644 0.68875 0.24322 0.0
O78 O 0.72383 0.73616 0.21196 0.0
O79 O 0.79554 0.75425 0.21836 0.0
O80 O 0.78834 0.70436 0.2465 0.0
O81 O 0.79276 0.79659 0.27455 0.0
H82 H 0.80751 0.84247 0.21935 0.0
H83 H 0.69711 0.7927 0.20847 0.0
O84 O 0.78902 0.74815 0.30485 0.0
O85 O 0.71645 0.73248 0.29955 0.0
O86 O 0.72123 0.77989 0.26848 0.0
C87 C 0.7071 0.76275 0.29224 0.0
H88 H 0.73906 0.62194 0.35884 0.0
H89 H 0.7704 0.88701 0.18579 0.0
Co90 Co 0.24919 0.77472 0.23271 0.0
C91 C 0.29354 0.80016 0.29127 0.0
Co92 Co 0.29249 0.74327 0.24392 0.0
C93 C 0.18772 0.80528 0.24513 0.0
C94 C 0.20667 0.8227 0.19858 0.0
N95 N 0.21265 0.80096 0.22393 0.0
N96 N 0.16661 0.82891 0.23449 0.0
C97 C 0.17867 0.84067 0.20546 0.0
H98 H 0.18714 0.79406 0.26964 0.0
H99 H 0.22288 0.8269 0.17752 0.0
C100 C 0.24786 0.71769 0.18554 0.0
N101 N 0.32868 0.71607 0.25146 0.0
C102 C 0.34912 0.70806 0.22715 0.0
C103 C 0.33363 0.69226 0.27529 0.0
N104 N 0.36566 0.6795 0.23396 0.0
C105 C 0.35604 0.66922 0.26426 0.0
C106 C 0.22852 0.71481 0.27495 0.0
O107 O 0.23217 0.74416 0.19344 0.0
O108 O 0.27441 0.71162 0.20472 0.0
O109 O 0.26081 0.71027 0.27103 0.0
O110 O 0.21727 0.74068 0.25948 0.0
O111 O 0.30997 0.77427 0.28298 0.0
H112 H 0.31905 0.68922 0.29748 0.0
H113 H 0.3479 0.71946 0.20273 0.0
O114 O 0.26653 0.80589 0.27231 0.0
O115 O 0.28084 0.8081 0.20655 0.0
O116 O 0.32435 0.77724 0.2166 0.0
C117 C 0.31303 0.80375 0.20214 0.0
H118 H 0.16939 0.86215 0.19146 0.0
H119 H 0.36219 0.64499 0.27614 0.0
Co120 Co 0.30132 0.7607 0.73743 0.0
C121 C 0.28361 0.79979 0.79422 0.0
Co122 Co 0.24933 0.73803 0.7562 0.0
C123 C 0.36551 0.78183 0.70265 0.0
C124 C 0.37688 0.78289 0.756 0.0
N125 N 0.34934 0.77661 0.73114 0.0
N126 N 0.40212 0.79115 0.70877 0.0
C127 C 0.40932 0.79187 0.74235 0.0
H128 H 0.35055 0.78011 0.67808 0.0
H129 H 0.37355 0.78111 0.78251 0.0
C130 C 0.26695 0.69928 0.69914 0.0
N131 N 0.2012 0.72209 0.76243 0.0
C132 C 0.18433 0.72025 0.79077 0.0
C133 C 0.17409 0.7144 0.73718 0.0
N134 N 0.14772 0.71186 0.78415 0.0
C135 C 0.14125 0.70804 0.75042 0.0
C136 C 0.25087 0.79409 0.70775 0.0
O137 O 0.29584 0.72383 0.70102 0.0
O138 O 0.24409 0.70126 0.72038 0.0
O139 O 0.23328 0.77204 0.7266 0.0
O140 O 0.28488 0.7949 0.70732 0.0
O141 O 0.25492 0.775 0.79269 0.0
H142 H 0.17793 0.71438 0.71067 0.0
H143 H 0.19873 0.72464 0.81569 0.0
O144 O 0.30655 0.79771 0.77307 0.0
O145 O 0.31736 0.72678 0.76714 0.0
O146 O 0.2656 0.70367 0.78606 0.0
C147 C 0.29962 0.70455 0.78575 0.0
H148 H 0.436 0.79928 0.75614 0.0
H149 H 0.11474 0.70115 0.73628 0.0
Co150 Co 0.26888 0.24314 0.76389 0.0
C151 C 0.29364 0.31946 0.75443 0.0
Co152 Co 0.24036 0.26835 0.72407 0.0
C153 C 0.32625 0.20982 0.79089 0.0
C154 C 0.30966 0.24612 0.82755 0.0
N155 N 0.30005 0.22925 0.79647 0.0
N156 N 0.35278 0.2154 0.81637 0.0
C157 C 0.34212 0.23758 0.8399 0.0
H158 H 0.32764 0.19462 0.76732 0.0
H159 H 0.29597 0.2662 0.83913 0.0
C160 C 0.21612 0.19165 0.73325 0.0
N161 N 0.20884 0.28245 0.69204 0.0
C162 C 0.18592 0.30579 0.6974 0.0
C163 C 0.19513 0.26279 0.66284 0.0
N164 N 0.15754 0.30016 0.67372 0.0
C165 C 0.16343 0.27362 0.65152 0.0
C166 C 0.2944 0.23804 0.69956 0.0
O167 O 0.24234 0.19392 0.7559 0.0
O168 O 0.21085 0.22059 0.71919 0.0
O169 O 0.26836 0.25373 0.68991 0.0
O170 O 0.29978 0.23278 0.73047 0.0
O171 O 0.27006 0.31668 0.72928 0.0
H172 H 0.20547 0.2396 0.65223 0.0
H173 H 0.18812 0.32417 0.7198 0.0
O174 O 0.29584 0.29158 0.7713 0.0
O175 O 0.23771 0.2542 0.79738 0.0
O176 O 0.21275 0.283 0.75808 0.0
C177 C 0.21551 0.27487 0.78844 0.0
H178 H 0.35749 0.24842 0.86357 0.0
H179 H 0.14535 0.26179 0.62955 0.0
Co180 Co 0.74353 0.2781 0.72922 0.0
C181 C 0.78285 0.30697 0.78877 0.0
Co182 Co 0.78746 0.24869 0.74385 0.0
C183 C 0.68072 0.30782 0.73642 0.0
C184 C 0.7026 0.32434 0.69082 0.0
N185 N 0.70626 0.30219 0.71636 0.0
N186 N 0.66191 0.33325 0.72533 0.0
C187 C 0.67574 0.34424 0.69676 0.0
H188 H 0.67919 0.29735 0.76119 0.0
H189 H 0.72047 0.32847 0.67096 0.0
C190 C 0.74781 0.21956 0.6844 0.0
N191 N 0.82492 0.2253 0.75712 0.0
C192 C 0.85175 0.22039 0.73832 0.0
C193 C 0.83079 0.20743 0.78518 0.0
N194 N 0.874 0.20002 0.75312 0.0
C195 C 0.86075 0.1911 0.78244 0.0
C196 C 0.72214 0.2187 0.77219 0.0
O197 O 0.73049 0.24523 0.69083 0.0
O198 O 0.77412 0.21495 0.70487 0.0
O199 O 0.75499 0.21538 0.76958 0.0
O200 O 0.71055 0.24388 0.75582 0.0
O201 O 0.8002 0.28137 0.78235 0.0
H202 H 0.81352 0.205 0.80558 0.0
H203 H 0.85338 0.2291 0.71294 0.0
O204 O 0.75693 0.31184 0.76807 0.0
O205 O 0.77625 0.31131 0.7033 0.0
O206 O 0.82052 0.28289 0.71777 0.0
C207 C 0.80923 0.3081 0.70131 0.0
H208 H 0.66926 0.36719 0.68304 0.0
H209 H 0.87093 0.17278 0.79967 0.0
Co210 Co 0.74637 0.74106 0.74055 0.0
C211 C 0.73968 0.79082 0.79414 0.0
Co212 Co 0.79183 0.7888 0.75008 0.0
C213 C 0.69503 0.67871 0.75613 0.0
C214 C 0.68122 0.69396 0.70652 0.0
N215 N 0.70669 0.70247 0.73317 0.0
N216 N 0.66343 0.65589 0.74514 0.0
C217 C 0.6542 0.6654 0.71404 0.0
H218 H 0.70853 0.67923 0.78122 0.0
H219 H 0.68164 0.7083 0.68356 0.0
C220 C 0.7986 0.73878 0.69655 0.0
N221 N 0.8317 0.82727 0.75815 0.0
C222 C 0.85587 0.8392 0.73623 0.0
C223 C 0.84552 0.84639 0.78764 0.0
N224 N 0.8843 0.86442 0.75081 0.0
C225 C 0.8778 0.86966 0.78307 0.0
C226 C 0.8028 0.72674 0.78516 0.0
O227 O 0.76766 0.72177 0.70338 0.0
O228 O 0.81342 0.76856 0.71378 0.0
O229 O 0.81609 0.76027 0.78026 0.0
O230 O 0.77178 0.71212 0.77014 0.0
O231 O 0.76985 0.80822 0.78611 0.0
H232 H 0.83358 0.84285 0.81121 0.0
H233 H 0.85293 0.82951 0.70995 0.0
O234 O 0.72494 0.76034 0.77783 0.0
O235 O 0.7218 0.77036 0.71152 0.0
O236 O 0.76732 0.81772 0.71967 0.0
C237 C 0.73551 0.80359 0.70592 0.0
H238 H 0.62969 0.65292 0.69822 0.0
H239 H 0.89558 0.88807 0.80204 0.0
C240 C 0.95307 0.09671 0.55085 0.0
C241 C 0.95337 0.0762 0.44433 0.0
C242 C 0.96385 0.93401 0.48046 0.0
Mg243 Mg 1.01386 0.09183 0.50391 0.0
O244 O 1.00146 0.0432 0.51675 0.0
Mg245 Mg 0.95038 0.01587 0.50723 0.0
Mg246 Mg 0.02852 0.0053 0.50157 0.0
O247 O 0.05606 0.96769 0.48632 0.0
Mg248 Mg 0.04508 0.91916 0.4994 0.0
Mg249 Mg 0.10706 0.99578 0.49661 0.0
C250 C 0.09331 0.07599 0.52811 0.0
C251 C 0.06644 0.03406 0.43624 0.0
O252 O 0.93632 0.06393 0.53988 0.0
O253 O 0.98302 0.11251 0.54037 0.0
O254 O 0.93885 0.04786 0.45932 0.0
O255 O 0.98463 0.09548 0.45524 0.0
O256 O 0.07289 0.09912 0.51909 0.0
O257 O 0.08173 0.04077 0.52435 0.0
C258 C 0.99102 0.97726 0.5672 0.0
O259 O 0.01952 0.97933 0.55157 0.0
O260 O 0.96263 0.9883 0.55503 0.0
O261 O 0.12246 0.94866 0.46422 0.0
O262 O 0.07614 0.89951 0.46228 0.0
O263 O 0.11857 0.96432 0.54458 0.0
C264 C 0.10617 0.91606 0.45235 0.0
O265 O 0.07322 0.9164 0.54837 0.0
O266 O 0.98579 0.91202 0.48842 0.0
C267 C 0.10398 0.93621 0.55971 0.0
O268 O 0.97475 0.96928 0.47973 0.0
O269 O 0.03768 0.03129 0.4516 0.0
O270 O 0.09502 0.02359 0.44875 0.0
C271 C 0.43541 0.11048 0.03556 0.0
C272 C 0.48399 0.10054 0.93848 0.0
C273 C 0.45042 0.95524 0.94939 0.0
Mg274 Mg 0.51105 0.10293 0.01262 0.0
O275 O 0.49083 0.05196 0.0108 0.0
Mg276 Mg 0.44182 0.03433 0.98484 0.0
Mg277 Mg 0.51687 0.01495 0.99006 0.0
O278 O 0.54295 0.97742 0.97034 0.0
Mg279 Mg 0.52283 0.92702 0.97436 0.0
Mg280 Mg 0.59242 0.9963 -0.00427 0.0
C281 C 0.58235 0.07311 0.03621 0.0
C282 C 0.58122 0.05634 0.93972 0.0
O283 O 0.42146 0.08047 0.01728 0.0
O284 O 0.46967 0.12396 0.03814 0.0
O285 O 0.45817 0.07401 0.94375 0.0
O286 O 0.50841 0.11582 0.96157 0.0
O287 O 0.56545 0.10046 0.03499 0.0
O288 O 0.56756 0.0402 0.02417 0.0
C289 C 0.45268 0.97308 0.03966 0.0
O290 O 0.48589 0.97531 0.03152 0.0
O291 O 0.43184 0.99303 0.02555 0.0
O292 O 0.61164 0.94876 0.9645 0.0
O293 O 0.56254 0.90399 0.94854 0.0
O294 O 0.57937 0.95915 0.03821 0.0
C295 C 0.59665 0.91741 0.94874 0.0
O296 O 0.52892 0.91616 0.02638 0.0
O297 O 0.46752 0.92839 0.95402 0.0
C298 C 0.55523 0.93311 0.0469 0.0
O299 O 0.46576 0.9895 0.95614 0.0
O300 O 0.54804 0.05445 0.94795 0.0
O301 O 0.60182 0.03637 0.95407 0.0
C302 C 0.92828 0.59575 0.05256 0.0
C303 C 0.94057 0.58706 0.94653 0.0
C304 C 0.94293 0.44165 0.96619 0.0
Mg305 Mg 0.994 0.59364 0.01041 0.0
O306 O 0.98108 0.54314 0.0183 0.0
Mg307 Mg 0.92981 0.51854 0.0022 0.0
Mg308 Mg 1.00853 0.50759 -0.00267 0.0
O309 O 0.03589 0.47162 0.97662 0.0
Mg310 Mg 0.02218 0.42148 0.98605 0.0
Mg311 Mg 0.08697 0.49605 0.99374 0.0
C312 C 0.07377 0.57387 0.02672 0.0
C313 C 0.05365 0.5503 0.94252 0.0
O314 O 0.91302 0.5631 0.03946 0.0
O315 O 0.95966 0.61228 0.04544 0.0
O316 O 0.92348 0.55775 0.95839 0.0
O317 O 0.97124 0.60417 0.96088 0.0
O318 O 0.0529 0.59769 0.02193 0.0
O319 O 0.06171 0.53863 0.02468 0.0
C320 C 0.96402 0.46393 0.05218 0.0
O321 O 0.9944 0.47166 0.03957 0.0
O322 O 0.93673 0.47878 0.04311 0.0
O323 O 0.10462 0.4502 0.95881 0.0
O324 O 0.05815 0.40082 0.95378 0.0
O325 O 0.09243 0.45766 0.03806 0.0
C326 C 0.08997 0.41681 0.94727 0.0
O327 O 0.04423 0.41182 0.03626 0.0
O328 O 0.96338 0.41752 0.97165 0.0
C329 C 0.07516 0.42874 0.05029 0.0
O330 O 0.95522 0.47683 0.96988 0.0
O331 O 0.02305 0.54352 0.95492 0.0
O332 O 0.08048 0.53493 0.95204 0.0
C333 C 0.42242 0.56142 0.02423 0.0
C334 C 0.44616 0.55237 0.92248 0.0
C335 C 0.45926 0.41247 0.94439 0.0
Mg336 Mg 0.49381 0.56423 0.98926 0.0
O337 O 0.48184 0.51479 -0.00041 0.0
Mg338 Mg 0.43384 0.48567 0.97922 0.0
Mg339 Mg 0.51515 0.48145 0.98725 0.0
O340 O 0.54789 0.44773 0.97504 0.0
Mg341 Mg 0.53516 0.39657 0.97986 0.0
Mg342 Mg 0.59542 0.47616 -0.00343 0.0
C343 C 0.57157 0.55191 0.0226 0.0
C344 C 0.56807 0.52316 0.93588 0.0
O345 O 0.40973 0.52803 0.01171 0.0
O346 O 0.45354 0.57985 0.01849 0.0
O347 O 0.4296 0.52285 0.93428 0.0
O348 O 0.47574 0.57108 0.93762 0.0
O349 O 0.55053 0.57335 0.01113 0.0
O350 O 0.56198 0.51637 0.02073 0.0
C351 C 0.46391 0.43988 0.03949 0.0
O352 O 0.49641 0.448 0.03124 0.0
O353 O 0.4374 0.45058 0.02326 0.0
O354 O 0.62067 0.43538 0.96399 0.0
O355 O 0.57632 0.38507 0.95004 0.0
O356 O 0.59674 0.43747 0.04115 0.0
C357 C 0.60812 0.404 0.94744 0.0
O358 O 0.55478 0.38531 0.03064 0.0
O359 O 0.47969 0.38904 0.95264 0.0
C360 C 0.58136 0.40543 0.04936 0.0
O361 O 0.4682 0.44704 0.95387 0.0
O362 O 0.53503 0.51546 0.94307 0.0
O363 O 0.59362 0.51173 0.95293 0.0
C364 C 0.94611 0.61655 0.54234 0.0
C365 C 0.99144 0.60939 0.44493 0.0
C366 C 0.95378 0.46499 0.44754 0.0
Mg367 Mg 0.02047 0.60709 0.51735 0.0
O368 O 0.99822 0.55639 0.51557 0.0
Mg369 Mg 0.94876 0.54154 0.48952 0.0
Mg370 Mg 0.02193 0.51798 0.4938 0.0
O371 O 0.04538 0.47944 0.47205 0.0
Mg372 Mg 0.02158 0.42961 0.47059 0.0
Mg373 Mg 0.09426 0.49299 0.49907 0.0
C374 C 0.09033 0.57231 0.53796 0.0
C375 C 0.08838 0.55667 0.44512 0.0
O376 O 0.93103 0.58735 0.5235 0.0
O377 O 0.98063 0.62889 0.54484 0.0
O378 O 0.9663 0.58273 0.451 0.0
O379 O 0.01701 0.62433 0.46705 0.0
O380 O 0.07491 0.60074 0.53653 0.0
O381 O 0.07331 0.53917 0.52853 0.0
C382 C 0.95495 0.47654 0.5414 0.0
O383 O 0.98832 0.47798 0.53396 0.0
O384 O 0.93561 0.49816 0.52787 0.0
O385 O 0.11105 0.44473 0.46642 0.0
O386 O 0.0603 0.40463 0.44547 0.0
O387 O 0.07513 0.45381 0.53974 0.0
C388 C 0.09497 0.41532 0.44824 0.0
O389 O 0.0227 0.41579 0.52128 0.0
O390 O 0.96843 0.43611 0.4489 0.0
C391 C 0.04765 0.42898 0.54457 0.0
O392 O 0.97079 0.49746 0.45877 0.0
O393 O 0.05559 0.55711 0.45343 0.0
O394 O 0.10724 0.53464 0.4589 0.0
C395 C 0.43063 0.1013 0.54683 0.0
C396 C 0.43932 0.08329 0.44188 0.0
C397 C 0.44268 0.93882 0.47437 0.0
Mg398 Mg 0.49585 0.09629 0.50486 0.0
O399 O 0.4834 0.04627 0.51352 0.0
Mg400 Mg 0.43165 0.02021 0.50215 0.0
Mg401 Mg 0.50948 0.00789 0.49544 0.0
O402 O 0.53516 0.96859 0.4784 0.0
Mg403 Mg 0.52275 0.92042 0.49265 0.0
Mg404 Mg 0.58692 0.99422 0.48892 0.0
C405 C 0.57643 0.07697 0.51884 0.0
C406 C 0.54633 0.03446 0.42955 0.0
O407 O 0.41527 0.06847 0.53454 0.0
O408 O 0.46272 0.11673 0.54054 0.0
O409 O 0.4233 0.05413 0.45483 0.0
O410 O 0.46949 0.10238 0.45567 0.0
O411 O 0.55534 0.10077 0.5149 0.0
O412 O 0.56421 0.04175 0.51658 0.0
C413 C 0.47062 0.97497 0.55797 0.0
O414 O 0.49979 0.9807 0.54327 0.0
O415 O 0.44205 0.98719 0.54761 0.0
O416 O 0.60115 0.94389 0.45816 0.0
O417 O 0.55458 0.89543 0.45891 0.0
O418 O 0.59715 0.96335 0.53805 0.0
C419 C 0.58546 0.91008 0.44934 0.0
O420 O 0.54956 0.918 0.54248 0.0
O421 O 0.46355 0.91554 0.48158 0.0
C422 C 0.58107 0.93629 0.5537 0.0
O423 O 0.45493 0.97389 0.47395 0.0
O424 O 0.51886 0.03405 0.44643 0.0
O425 O 0.57441 0.02185 0.44055 0.0
H426 H 0.12681 0.07629 0.23905 0.0
H427 H 0.03339 0.08852 0.41027 0.0
H428 H 0.1077 0.1785 0.28526 0.0
H429 H 0.09887 0.00825 0.38469 0.0
H430 H 0.03953 0.11281 0.35439 0.0
H431 H 0.09386 0.04205 0.2818 0.0
C432 C 0.11453 0.09125 0.25754 0.0
C433 C 0.12026 0.13007 0.25926 0.0
C434 C 0.05194 0.08945 0.36095 0.0
C435 C 0.08312 0.09167 0.30786 0.0
C436 C 0.0485 0.07571 0.3927 0.0
C437 C 0.06638 0.04705 0.40214 0.0
C438 C 0.0727 0.07374 0.33859 0.0
C439 C 0.08546 0.03107 0.37854 0.0
C440 C 0.09604 0.07189 0.28196 0.0
C441 C 0.10415 0.14851 0.28368 0.0
N442 N 0.08831 0.04478 0.34788 0.0
N443 N 0.08667 0.12918 0.30743 0.0
H444 H 0.7726 0.15869 0.34142 0.0
H445 H 0.97513 0.13022 0.4011 0.0
H446 H 0.8702 0.21581 0.30305 0.0
H447 H 0.87914 0.05778 0.42798 0.0
H448 H 0.93629 0.16174 0.36521 0.0
H449 H 0.81006 0.12219 0.37459 0.0
C450 C 0.80176 0.16373 0.34004 0.0
C451 C 0.81807 0.19055 0.31933 0.0
C452 C 0.92363 0.13872 0.37868 0.0
C453 C 0.86113 0.14882 0.35709 0.0
C454 C 0.94593 0.12051 0.39911 0.0
C455 C 0.93061 0.09113 0.41772 0.0
C456 C 0.88548 0.12798 0.37696 0.0
C457 C 0.89236 0.08008 0.41403 0.0
C458 C 0.82313 0.14275 0.35883 0.0
C459 C 0.85611 0.19558 0.3185 0.0
N460 N 0.87118 0.0987 0.39444 0.0
N461 N 0.87611 0.17516 0.33702 0.0
H462 H 0.82643 0.85721 0.30443 0.0
H463 H 0.92474 0.86535 0.48906 0.0
H464 H 0.82373 0.76168 0.3635 0.0
H465 H 0.92217 0.96193 0.43248 0.0
H466 H 0.879 0.82887 0.44746 0.0
H467 H 0.85589 0.89707 0.35341 0.0
C468 C 0.83233 0.84455 0.32763 0.0
C469 C 0.823 0.80597 0.32976 0.0
C470 C 0.88784 0.85821 0.44446 0.0
C471 C 0.85613 0.85161 0.38615 0.0
C472 C 0.9137 0.87914 0.46839 0.0
C473 C 0.92787 0.91646 0.46373 0.0
C474 C 0.87646 0.87471 0.41556 0.0
C475 C 0.91231 0.9331 0.43681 0.0
C476 C 0.84877 0.86741 0.35571 0.0
C477 C 0.83081 0.79123 0.36062 0.0
N478 N 0.88804 0.91184 0.41322 0.0
N479 N 0.84708 0.81408 0.38757 0.0
H480 H 0.10993 0.79433 0.2641 0.0
H481 H 0.15866 0.94989 0.41472 0.0
H482 H 0.17888 0.90061 0.25711 0.0
H483 H 0.07817 0.84947 0.41727 0.0
H484 H 0.16589 0.93231 0.3566 0.0
H485 H 0.09283 0.81631 0.31806 0.0
C486 C 0.12003 0.82294 0.27339 0.0
C487 C 0.14565 0.84583 0.25651 0.0
C488 C 0.14673 0.91407 0.36992 0.0
C489 C 0.12813 0.87055 0.31858 0.0
C490 C 0.14302 0.92375 0.40335 0.0
C491 C 0.11758 0.90121 0.42092 0.0
C492 C 0.12508 0.88151 0.35404 0.0
C493 C 0.09801 0.86778 0.4047 0.0
C494 C 0.11092 0.83528 0.30438 0.0
C495 C 0.15876 0.88242 0.26948 0.0
N496 N 0.10203 0.85904 0.37207 0.0
N497 N 0.15051 0.89348 0.30028 0.0
H498 H 0.17785 0.79157 0.70189 0.0
H499 H 0.17758 0.95666 0.57868 0.0
H500 H 0.27676 0.85131 0.66758 0.0
H501 H 0.08118 0.88262 0.60274 0.0
H502 H 0.21476 0.92462 0.61615 0.0
H503 H 0.14322 0.82983 0.67019 0.0
C504 C 0.19249 0.81279 0.68765 0.0
C505 C 0.23054 0.81796 0.68745 0.0
C506 C 0.18546 0.91568 0.61346 0.0
C507 C 0.19028 0.86255 0.65066 0.0
C508 C 0.16408 0.93419 0.59231 0.0
C509 C 0.12602 0.92226 0.58728 0.0
C510 C 0.16871 0.88516 0.62998 0.0
C511 C 0.11032 0.89277 0.60556 0.0
C512 C 0.17247 0.83477 0.66946 0.0
C513 C 0.24754 0.84614 0.66839 0.0
N514 N 0.13167 0.87522 0.62584 0.0
N515 N 0.22728 0.86739 0.65073 0.0
H516 H 0.14396 0.16871 0.71798 0.0
H517 H 0.14031 0.03652 0.56025 0.0
H518 H 0.24752 0.13803 0.70548 0.0
H519 H 0.11542 0.14657 0.55702 0.0
H520 H 0.17187 0.05401 0.61681 0.0
H521 H 0.11924 0.13448 0.66452 0.0
C522 C 0.16082 0.15281 0.70498 0.0
C523 C 0.19777 0.15628 0.71588 0.0
C524 C 0.16001 0.07429 0.60319 0.0
C525 C 0.17023 0.11848 0.65457 0.0
C526 C 0.1423 0.06459 0.57086 0.0
C527 C 0.12406 0.08971 0.55415 0.0
C528 C 0.15887 0.10901 0.61867 0.0
C529 C 0.12821 0.12589 0.56902 0.0
C530 C 0.14699 0.13404 0.67422 0.0
C531 C 0.21878 0.13573 0.69784 0.0
N532 N 0.14421 0.13408 0.60085 0.0
N533 N 0.20499 0.11841 0.66728 0.0
H534 H 0.8728 0.12693 0.74251 0.0
H535 H 0.9769 0.1674 0.57892 0.0
H536 H 0.92862 0.23529 0.72115 0.0
H537 H 0.90554 0.06382 0.5934 0.0
H538 H 0.96766 0.19057 0.63507 0.0
H539 H 0.89694 0.0999 0.69407 0.0
C540 C 0.89158 0.1447 0.72846 0.0
C541 C 0.89868 0.18324 0.73528 0.0
C542 C 0.95394 0.16282 0.62588 0.0
C543 C 0.92493 0.15324 0.67955 0.0
C544 C 0.95883 0.14973 0.59368 0.0
C545 C 0.9418 0.11368 0.58134 0.0
C546 C 0.93194 0.13968 0.64591 0.0
C547 C 0.9189 0.09194 0.60169 0.0
C548 C 0.90473 0.12949 0.70049 0.0
C549 C 0.92261 0.20541 0.71626 0.0
N550 N 0.91475 0.10526 0.63307 0.0
N551 N 0.93436 0.19019 0.68872 0.0
H552 H 0.91731 0.93663 0.75817 0.0
H553 H 1.01406 0.91571 0.59028 0.0
H554 H 0.92003 0.83182 0.70588 0.0
H555 H 0.96782 0.00969 0.6209 0.0
H556 H 1.00258 0.88977 0.64482 0.0
H557 H 0.95966 0.968 0.7205 0.0
C558 C 0.92771 0.92023 0.73937 0.0
C559 C 0.91469 0.88192 0.73433 0.0
C560 C 0.99585 0.91652 0.63979 0.0
C561 C 0.96265 0.91712 0.69157 0.0
C562 C 1.00236 0.9312 0.60884 0.0
C563 C 0.99095 0.96423 0.60115 0.0
C564 C 0.9785 0.93553 0.66297 0.0
C565 C 0.97613 0.98362 0.62583 0.0
C566 C 0.95168 0.93801 0.7179 0.0
C567 C 0.92888 0.86163 0.70978 0.0
N568 N 0.96998 0.96879 0.65558 0.0
N569 N 0.95174 0.87955 0.68888 0.0
H570 H 0.3549 0.25903 0.1736 0.0
H571 H 0.36304 0.08651 0.04469 0.0
H572 H 0.26803 0.16324 0.15467 0.0
H573 H 0.45326 0.17736 0.07285 0.0
H574 H 0.3258 0.11636 0.08083 0.0
H575 H 0.38897 0.23182 0.13284 0.0
C576 C 0.34282 0.23236 0.16073 0.0
C577 C 0.3085 0.21338 0.16777 0.0
C578 C 0.3537 0.12982 0.07896 0.0
C579 C 0.3477 0.18184 0.12089 0.0
C580 C 0.37501 0.11283 0.05822 0.0
C581 C 0.41153 0.12928 0.05569 0.0
C582 C 0.36886 0.16364 0.09729 0.0
C583 C 0.42538 0.16343 0.074 0.0
C584 C 0.3624 0.21676 0.13745 0.0
C585 C 0.29438 0.17888 0.15016 0.0
N586 N 0.40412 0.17934 0.09399 0.0
N587 N 0.31406 0.16419 0.12766 0.0
H588 H 0.86652 0.26534 0.1312 0.0
H589 H 1.01385 0.43982 0.09511 0.0
H590 H 0.95856 0.31472 0.20179 0.0
H591 H 0.90195 0.41337 0.05216 0.0
H592 H 1.00446 0.38112 0.12287 0.0
H593 H 0.89298 0.30401 0.08853 0.0
C594 C 0.89249 0.28376 0.1377 0.0
C595 C 0.90892 0.28875 0.17087 0.0
C596 C 0.98217 0.38822 0.10713 0.0
C597 C 0.93937 0.3323 0.12223 0.0
C598 C 0.98731 0.42174 0.09179 0.0
C599 C 0.95828 0.43168 0.07227 0.0
C600 C 0.94799 0.36453 0.10227 0.0
C601 C 0.92465 0.4072 0.06798 0.0
C602 C 0.90764 0.30564 0.11326 0.0
C603 C 0.94381 0.31114 0.17711 0.0
N604 N 0.9204 0.37471 0.08296 0.0
N605 N 0.95743 0.33306 0.15322 0.0
H606 H 0.66284 0.80109 0.1596 0.0
H607 H 0.58409 0.97455 0.10422 0.0
H608 H 0.71367 0.91472 0.18944 0.0
H609 H 0.54146 0.86184 0.06531 0.0
H610 H 0.61814 0.95155 0.15053 0.0
H611 H 0.60811 0.82169 0.13832 0.0
C612 C 0.66235 0.83048 0.16185 0.0
C613 C 0.69286 0.85636 0.17612 0.0
C614 C 0.60057 0.93178 0.13243 0.0
C615 C 0.6303 0.88019 0.15131 0.0
C616 C 0.58107 0.94488 0.10611 0.0
C617 C 0.56154 0.91996 0.08033 0.0
C618 C 0.60054 0.89364 0.13242 0.0
C619 C 0.55713 0.88188 0.08435 0.0
C620 C 0.63101 0.84219 0.1498 0.0
C621 C 0.69094 0.89406 0.17799 0.0
N622 N 0.57754 0.86976 0.10946 0.0
N623 N 0.66016 0.90495 0.16538 0.0
H624 H 0.25205 0.64485 0.17173 0.0
H625 H 0.11454 0.6377 0.0089 0.0
H626 H 0.21541 0.73821 0.1284 0.0
H627 H 0.12084 0.54336 0.06757 0.0
H628 H 0.17151 0.67064 0.03905 0.0
H629 H 0.22245 0.60508 0.12196 0.0
C630 C 0.23836 0.65703 0.15145 0.0
C631 C 0.23511 0.69446 0.15436 0.0
C632 C 0.16091 0.6424 0.04481 0.0
C633 C 0.2023 0.64979 0.09765 0.0
C634 C 0.12845 0.62362 0.02762 0.0
C635 C 0.11251 0.58842 0.03676 0.0
C636 C 0.17694 0.62609 0.07171 0.0
C637 C 0.132 0.57089 0.06041 0.0
C638 C 0.22166 0.63444 0.12315 0.0
C639 C 0.21761 0.7092 0.12742 0.0
N640 N 0.16285 0.59039 0.07791 0.0
N641 N 0.20155 0.68673 0.10032 0.0
H642 H 0.27152 0.79868 0.86092 0.0
H643 H 0.41578 0.9875 0.89929 0.0
H644 H 0.31499 0.87085 0.78649 0.0
H645 H 0.39909 0.89894 0.96631 0.0
H646 H 0.36003 0.9572 0.86453 0.0
H647 H 0.2995 0.847 0.9052 0.0
C648 C 0.28596 0.82512 0.85391 0.0
C649 C 0.29174 0.8307 0.82027 0.0
C650 C 0.368 0.94503 0.88743 0.0
C651 C 0.3235 0.8857 0.87026 0.0
C652 C 0.39961 0.96245 0.90733 0.0
C653 C 0.41224 0.9451 0.93509 0.0
C654 C 0.34915 0.9103 0.89565 0.0
C655 C 0.39046 0.91266 0.94456 0.0
C656 C 0.30199 0.85259 0.87908 0.0
C657 C 0.31063 0.86534 0.81232 0.0
N658 N 0.36029 0.8959 0.92452 0.0
N659 N 0.32627 0.89135 0.83715 0.0
H660 H 0.19524 0.34133 0.78258 0.0
H661 H 0.08485 0.34153 0.94119 0.0
H662 H 0.19489 0.25386 0.85068 0.0
H663 H 0.1417 0.44305 0.90538 0.0
H664 H 0.11715 0.30598 0.90455 0.0
H665 H 0.1671 0.37584 0.82304 0.0
C666 C 0.18885 0.32911 0.80595 0.0
C667 C 0.19708 0.29437 0.8131 0.0
C668 C 0.12266 0.33602 0.90495 0.0
C669 C 0.16476 0.3341 0.85965 0.0
C670 C 0.10413 0.35635 0.92562 0.0
C671 C 0.11046 0.39535 0.92616 0.0
C672 C 0.14699 0.35477 0.88404 0.0
C673 C 0.136 0.41308 0.90575 0.0
C674 C 0.17313 0.3491 0.82916 0.0
C675 C 0.18882 0.28043 0.84414 0.0
N676 N 0.15296 0.39262 0.88516 0.0
N677 N 0.17266 0.30019 0.86621 0.0
H678 H 0.74212 0.16655 0.81337 0.0
H679 H 0.55045 0.09961 0.89217 0.0
H680 H 0.64896 0.21513 0.78516 0.0
H681 H 0.65291 0.07154 0.92696 0.0
H682 H 0.58221 0.13958 0.85137 0.0
H683 H 0.70685 0.12908 0.85224 0.0
C684 C 0.71413 0.16938 0.81508 0.0
C685 C 0.69896 0.19448 0.79538 0.0
C686 C 0.59769 0.12473 0.86808 0.0
C687 C 0.65731 0.1505 0.84109 0.0
C688 C 0.57944 0.10201 0.8917 0.0
C689 C 0.59849 0.08198 0.9139 0.0
C690 C 0.63555 0.12737 0.86607 0.0
C691 C 0.63631 0.08592 0.91088 0.0
C692 C 0.69381 0.14779 0.83762 0.0
C693 C 0.6622 0.19634 0.79947 0.0
N694 N 0.6531 0.10764 0.88782 0.0
N695 N 0.64281 0.17481 0.82161 0.0
H696 H 0.87169 0.74885 0.81706 0.0
H697 H 0.87343 0.56119 0.91133 0.0
H698 H 0.78233 0.65507 0.8042 0.0
H699 H 0.96501 0.65256 0.91763 0.0
H700 H 0.84046 0.59373 0.8708 0.0
H701 H 0.90627 0.71337 0.85311 0.0
C702 C 0.85923 0.72078 0.82181 0.0
C703 C 0.82383 0.70509 0.80749 0.0
C704 C 0.86787 0.60655 0.88084 0.0
C705 C 0.86372 0.66395 0.84909 0.0
C706 C 0.88687 0.58787 0.90395 0.0
C707 C 0.92218 0.60407 0.91826 0.0
C708 C 0.88406 0.64193 0.87187 0.0
C709 C 0.9379 0.63884 0.90752 0.0
C710 C 0.87914 0.70044 0.84241 0.0
C711 C 0.80943 0.66844 0.81464 0.0
N712 N 0.91871 0.6566 0.8853 0.0
N713 N 0.82932 0.64923 0.83495 0.0
H714 H 0.24345 0.36485 0.18679 0.0
H715 H 0.05205 0.36235 0.0784 0.0
H716 H 0.1555 0.26974 0.17294 0.0
H717 H 0.14247 0.45494 0.08495 0.0
H718 H 0.08773 0.33039 0.11711 0.0
H719 H 0.20584 0.39989 0.15274 0.0
C720 C 0.21631 0.35127 0.1766 0.0
C721 C 0.20284 0.31411 0.18276 0.0
C722 C 0.0997 0.35783 0.11031 0.0
C723 C 0.15931 0.35434 0.14384 0.0
C724 C 0.07916 0.3763 0.08831 0.0
C725 C 0.09412 0.41152 0.07809 0.0
C726 C 0.13566 0.3745 0.12236 0.0
C727 C 0.12963 0.42786 0.0919 0.0
C728 C 0.19477 0.37135 0.15718 0.0
C729 C 0.16728 0.29819 0.16886 0.0
N730 N 0.14916 0.4092 0.11303 0.0
N731 N 0.1469 0.3183 0.15019 0.0
H732 H 0.08116 0.66664 0.77336 0.0
H733 H 0.11512 0.60151 0.94482 0.0
H734 H 0.15415 0.73691 0.84977 0.0
H735 H 1.00645 0.57132 0.89453 0.0
H736 H 0.12675 0.65484 0.91115 0.0
H737 H 0.04708 0.63752 0.81702 0.0
C738 C 0.08943 0.67685 0.79923 0.0
C739 C 0.1217 0.70292 0.80812 0.0
C740 C 0.10015 0.63691 0.90767 0.0
C741 C 0.08317 0.6693 0.85793 0.0
C742 C 0.09384 0.60605 0.92634 0.0
C743 C 0.06033 0.5815 0.92133 0.0
C744 C 0.07314 0.6426 0.88313 0.0
C745 C 0.03302 0.58929 0.89822 0.0
C746 C 0.06982 0.66018 0.82418 0.0
C747 C 0.13057 0.71546 0.842 0.0
N748 N 0.04034 0.61885 0.87916 0.0
N749 N 0.11204 0.69769 0.86589 0.0
H750 H 0.36816 0.15686 0.7795 0.0
H751 H 0.45031 0.06575 0.87929 0.0
H752 H 0.41692 0.24807 0.85119 0.0
H753 H 0.52076 0.16726 0.92089 0.0
H754 H 0.43812 0.09544 0.82825 0.0
H755 H 0.42272 0.13065 0.78811 0.0
C756 C 0.39038 0.17156 0.79694 0.0
C757 C 0.38696 0.20332 0.81655 0.0
C758 C 0.45723 0.11128 0.84781 0.0
C759 C 0.44845 0.17233 0.82784 0.0
C760 C 0.46368 0.09427 0.87735 0.0
C761 C 0.48439 0.11501 0.90503 0.0
C762 C 0.47048 0.14963 0.84673 0.0
C763 C 0.50286 0.151 0.90065 0.0
C764 C 0.42156 0.15642 0.80198 0.0
C765 C 0.41731 0.22203 0.83746 0.0
N766 N 0.49456 0.16765 0.87235 0.0
N767 N 0.44648 0.2057 0.84326 0.0
H768 H 0.79777 0.28106 0.849 0.0
H769 H 0.90046 0.47703 0.92489 0.0
H770 H 0.78828 0.3821 0.8017 0.0
H771 H 0.90009 0.37459 0.97317 0.0
H772 H 0.84717 0.44645 0.88746 0.0
H773 H 0.82231 0.31722 0.90123 0.0
C774 C 0.8006 0.31102 0.84987 0.0
C775 C 0.79196 0.32887 0.82105 0.0
C776 C 0.85813 0.43095 0.90684 0.0
C777 C 0.82091 0.37068 0.88046 0.0
C778 C 0.88845 0.44845 0.92833 0.0
C779 C 0.90531 0.42784 0.95134 0.0
C780 C 0.84489 0.39277 0.90856 0.0
C781 C 0.88852 0.3911 0.95502 0.0
C782 C 0.81447 0.33171 0.87972 0.0
C783 C 0.79522 0.36754 0.82347 0.0
N784 N 0.85967 0.37453 0.93338 0.0
N785 N 0.81041 0.38739 0.85255 0.0
H786 H 0.7642 0.85501 0.83402 0.0
H787 H 0.57584 0.84865 0.91523 0.0
H788 H 0.67223 0.76426 0.81443 0.0
H789 H 0.66864 0.93821 0.93722 0.0
H790 H 0.61186 0.81598 0.88061 0.0
H791 H 0.73095 0.88422 0.87426 0.0
C792 C 0.7371 0.84105 0.83834 0.0
C793 C 0.72094 0.80717 0.82064 0.0
C794 C 0.62444 0.84269 0.89312 0.0
C795 C 0.68256 0.8407 0.86666 0.0
C796 C 0.60385 0.86146 0.91294 0.0
C797 C 0.61909 0.89646 0.92913 0.0
C798 C 0.66061 0.85896 0.88923 0.0
C799 C 0.65563 0.91139 0.92522 0.0
C800 C 0.7181 0.85781 0.86134 0.0
C801 C 0.68577 0.79041 0.82741 0.0
N802 N 0.67505 0.89267 0.90554 0.0
N803 N 0.66771 0.80745 0.8497 0.0
H804 H 0.81237 0.6506 0.22043 0.0
H805 H 0.94016 0.67016 0.07054 0.0
H806 H 0.84394 0.75423 0.1747 0.0
H807 H 0.87455 0.56576 0.0914 0.0
H808 H 0.91173 0.7018 0.11324 0.0
H809 H 0.84261 0.61975 0.17873 0.0
C810 C 0.82607 0.66704 0.2019 0.0
C811 C 0.82557 0.70517 0.2011 0.0
C812 C 0.90349 0.672 0.10839 0.0
C813 C 0.86017 0.66975 0.15313 0.0
C814 C 0.91973 0.65384 0.08407 0.0
C815 C 0.90973 0.61516 0.07732 0.0
C816 C 0.87744 0.65134 0.12662 0.0
C817 C 0.88297 0.5956 0.0956 0.0
C818 C 0.84306 0.64927 0.17792 0.0
C819 C 0.84364 0.72484 0.1763 0.0
N820 N 0.86796 0.61386 0.1196 0.0
N821 N 0.86024 0.70692 0.15332 0.0
H822 H 0.29569 0.86291 0.16898 0.0
H823 H 0.47959 0.91685 0.07487 0.0
H824 H 0.38309 0.80237 0.18288 0.0
H825 H 0.38636 0.96978 0.06419 0.0
H826 H 0.44798 0.8756 0.1148 0.0
H827 H 0.33093 0.9025 0.13158 0.0
C828 C 0.3224 0.85784 0.16435 0.0
C829 C 0.33602 0.82883 0.17961 0.0
C830 C 0.43456 0.89635 0.10367 0.0
C831 C 0.37755 0.87514 0.13562 0.0
C832 C 0.45275 0.9201 0.08078 0.0
C833 C 0.43605 0.94734 0.06551 0.0
C834 C 0.39926 0.89968 0.11169 0.0
C835 C 0.40091 0.94956 0.07469 0.0
C836 C 0.34272 0.88068 0.14272 0.0
C837 C 0.37115 0.82424 0.17203 0.0
N838 N 0.38412 0.92645 0.09672 0.0
N839 N 0.39051 0.84692 0.15073 0.0
H840 H 0.69939 0.13428 0.21595 0.0
H841 H 0.63786 0.13095 0.03123 0.0
H842 H 0.77268 0.19127 0.1498 0.0
H843 H 0.6083 0.03184 0.08358 0.0
H844 H 0.69082 0.15101 0.07238 0.0
H845 H 0.66843 0.09304 0.16804 0.0
C846 C 0.70946 0.13752 0.19147 0.0
C847 C 0.7382 0.16649 0.18663 0.0
C848 C 0.67344 0.12429 0.07432 0.0
C849 C 0.7026 0.12012 0.13185 0.0
C850 C 0.64325 0.11293 0.05091 0.0
C851 C 0.61877 0.07993 0.05444 0.0
C852 C 0.67818 0.10313 0.10204 0.0
C853 C 0.62671 0.05746 0.08024 0.0
C854 C 0.69195 0.11388 0.1642 0.0
C855 C 0.75041 0.1694 0.1545 0.0
N856 N 0.65522 0.07002 0.10381 0.0
N857 N 0.73187 0.14715 0.12806 0.0
H858 H 0.5919 0.64692 0.75548 0.0
H859 H 0.63603 0.55347 0.9224 0.0
H860 H 0.6903 0.60592 0.78056 0.0
H861 H 0.52348 0.54054 0.88232 0.0
H862 H 0.65478 0.5807 0.87172 0.0
H863 H 0.56355 0.61207 0.80079 0.0
C864 C 0.60699 0.62963 0.76987 0.0
C865 C 0.64347 0.62934 0.76488 0.0
C866 C 0.62593 0.57178 0.87374 0.0
C867 C 0.61206 0.59072 0.81637 0.0
C868 C 0.61509 0.55639 0.90289 0.0
C869 C 0.57807 0.54405 0.90645 0.0
C870 C 0.59973 0.57537 0.84768 0.0
C871 C 0.55233 0.54948 0.88043 0.0
C872 C 0.59101 0.61008 0.79571 0.0
C873 C 0.66227 0.60704 0.78412 0.0
N874 N 0.56368 0.56479 0.85186 0.0
N875 N 0.64653 0.58902 0.80928 0.0
H876 H 0.27263 0.64207 0.81902 0.0
H877 H 0.47178 0.61336 0.88815 0.0
H878 H 0.37295 0.71102 0.79698 0.0
H879 H 0.37464 0.5318 0.89646 0.0
H880 H 0.43546 0.6487 0.85373 0.0
H881 H 0.30857 0.60143 0.84834 0.0
C882 C 0.30206 0.6488 0.82048 0.0
C883 C 0.31967 0.68009 0.80549 0.0
C884 C 0.42209 0.62284 0.86275 0.0
C885 C 0.36091 0.63373 0.8387 0.0
C886 C 0.44296 0.60247 0.88225 0.0
C887 C 0.42639 0.56954 0.89547 0.0
C888 C 0.38416 0.61059 0.85662 0.0
C889 C 0.38874 0.557 0.88689 0.0
C890 C 0.32257 0.62548 0.83698 0.0
C891 C 0.35798 0.68726 0.80801 0.0
N892 N 0.36887 0.57775 0.86845 0.0
N893 N 0.37714 0.66444 0.82425 0.0
H894 H 0.3648 0.33991 0.74717 0.0
H895 H 0.39972 0.4444 0.92937 0.0
H896 H 0.27656 0.37359 0.79489 0.0
H897 H 0.45425 0.35805 0.89461 0.0
H898 H 0.36067 0.43521 0.87593 0.0
H899 H 0.407 0.36931 0.79493 0.0
C900 C 0.35471 0.35567 0.76672 0.0
C901 C 0.3173 0.35427 0.76734 0.0
C902 C 0.38114 0.41829 0.88027 0.0
C903 C 0.36477 0.3862 0.8225 0.0
C904 C 0.40311 0.42316 0.91079 0.0
C905 C 0.43014 0.40177 0.91656 0.0
C906 C 0.38701 0.39257 0.8552 0.0
C907 C 0.4335 0.37481 0.89152 0.0
C908 C 0.3786 0.37152 0.79437 0.0
C909 C 0.30538 0.37433 0.79357 0.0
N910 N 0.41249 0.3713 0.8618 0.0
N911 N 0.32895 0.38867 0.82079 0.0
H912 H 0.68513 0.4037 0.75058 0.0
H913 H 0.60204 0.33532 0.91637 0.0
H914 H 0.60178 0.30668 0.75402 0.0
H915 H 0.65154 0.45036 0.90985 0.0
H916 H 0.60993 0.32326 0.85733 0.0
H917 H 0.67523 0.42371 0.80794 0.0
C918 C 0.66327 0.38779 0.76279 0.0
C919 C 0.64426 0.35347 0.74798 0.0
C920 C 0.61938 0.3511 0.86888 0.0
C921 C 0.63429 0.37474 0.81351 0.0
C922 C 0.6156 0.3578 0.90274 0.0
C923 C 0.6257 0.39395 0.91784 0.0
C924 C 0.63358 0.38071 0.85009 0.0
C925 C 0.64334 0.42205 0.89911 0.0
C926 C 0.65827 0.39867 0.79572 0.0
C927 C 0.6168 0.33331 0.76485 0.0
N928 N 0.64628 0.41496 0.86589 0.0
N929 N 0.61327 0.3437 0.79716 0.0
H930 H 0.73798 0.28853 0.14275 0.0
H931 H 0.61555 0.43866 0.11 0.0
H932 H 0.69682 0.33934 0.22707 0.0
H933 H 0.59309 0.33433 0.05048 0.0
H934 H 0.65558 0.41231 0.15033 0.0
H935 H 0.69649 0.31564 0.10441 0.0
C936 C 0.72083 0.30603 0.15315 0.0
C937 C 0.72104 0.31194 0.18812 0.0
C938 C 0.64152 0.39517 0.12859 0.0
C939 C 0.67385 0.34314 0.14455 0.0
C940 C 0.61851 0.41006 0.10572 0.0
C941 C 0.60032 0.38847 0.07711 0.0
C942 C 0.64764 0.35897 0.12208 0.0
C943 C 0.60587 0.35175 0.07251 0.0
C944 C 0.69692 0.32111 0.13133 0.0
C945 C 0.69763 0.33425 0.20026 0.0
N946 N 0.62945 0.33841 0.09437 0.0
N947 N 0.67528 0.34933 0.17857 0.0
H948 H 0.68823 0.72595 0.15508 0.0
H949 H 0.60626 0.52232 0.07439 0.0
H950 H 0.68725 0.62727 0.20963 0.0
H951 H 0.61023 0.62206 0.02106 0.0
H952 H 0.64509 0.55861 0.12119 0.0
H953 H 0.66498 0.68713 0.10407 0.0
C954 C 0.68267 0.69605 0.1564 0.0
C955 C 0.68946 0.67977 0.18666 0.0
C956 C 0.63807 0.57239 0.09895 0.0
C957 C 0.66339 0.63508 0.12814 0.0
C958 C 0.6163 0.55162 0.07205 0.0
C959 C 0.60427 0.56956 0.04433 0.0
C960 C 0.64767 0.6111 0.0978 0.0
C961 C 0.61821 0.60743 0.04243 0.0
C962 C 0.66979 0.67387 0.12716 0.0
C963 C 0.682 0.64092 0.18686 0.0
N964 N 0.63862 0.62714 0.06918 0.0
N965 N 0.6693 0.61981 0.15794 0.0
H966 H 0.34652 0.60544 0.21788 0.0
H967 H 0.42357 0.63439 0.03936 0.0
H968 H 0.41239 0.70639 0.1904 0.0
H969 H 0.38269 0.52514 0.07103 0.0
H970 H 0.41083 0.66149 0.09276 0.0
H971 H 0.35549 0.57448 0.16409 0.0
C972 C 0.36391 0.62062 0.20098 0.0
C973 C 0.37896 0.65838 0.20838 0.0
C974 C 0.40425 0.63159 0.088 0.0
C975 C 0.38792 0.62401 0.14676 0.0
C976 C 0.41104 0.61617 0.05732 0.0
C977 C 0.40441 0.57753 0.05097 0.0
C978 C 0.3909 0.6082 0.11263 0.0
C979 C 0.38805 0.55513 0.07499 0.0
C980 C 0.36848 0.60322 0.17015 0.0
C981 C 0.4005 0.67721 0.18546 0.0
N982 N 0.38228 0.5708 0.10513 0.0
N983 N 0.40399 0.65998 0.15551 0.0
H984 H 0.43658 0.35615 0.23833 0.0
H985 H 0.39957 0.40078 0.05407 0.0
H986 H 0.34954 0.41053 0.20376 0.0
H987 H 0.51094 0.43892 0.0961 0.0
H988 H 0.38261 0.38607 0.10979 0.0
H989 H 0.46812 0.37533 0.18854 0.0
C990 C 0.42501 0.37351 0.22101 0.0
C991 C 0.39043 0.38167 0.22457 0.0
C992 C 0.41084 0.39734 0.10671 0.0
C993 C 0.42511 0.40212 0.16811 0.0
C994 C 0.4206 0.40542 0.07498 0.0
C995 C 0.4565 0.42187 0.07074 0.0
C996 C 0.43712 0.40552 0.13437 0.0
C997 C 0.48285 0.42657 0.09857 0.0
C998 C 0.44273 0.38403 0.19265 0.0
C999 C 0.37604 0.40361 0.20146 0.0
N1000 N 0.47254 0.41882 0.12967 0.0
N1001 N 0.39305 0.41237 0.17371 0.0
H1002 H 0.86629 0.76732 0.67846 0.0
H1003 H 0.87306 0.59536 0.54903 0.0
H1004 H 0.77701 0.6743 0.65577 0.0
H1005 H 0.96587 0.6819 0.58195 0.0
H1006 H 0.83585 0.62637 0.58402 0.0
H1007 H 0.9011 0.73913 0.63912 0.0
C1008 C 0.85383 0.74108 0.66502 0.0
C1009 C 0.81861 0.72312 0.67059 0.0
C1010 C 0.86432 0.63862 0.58351 0.0
C1011 C 0.85866 0.69048 0.62542 0.0
C1012 C 0.88566 0.62096 0.56346 0.0
C1013 C 0.92283 0.6359 0.56254 0.0
C1014 C 0.88012 0.67162 0.60276 0.0
C1015 C 0.93745 0.66918 0.58188 0.0
C1016 C 0.87384 0.72492 0.64258 0.0
C1017 C 0.80404 0.68914 0.65235 0.0
N1018 N 0.9161 0.68584 0.60117 0.0
N1019 N 0.82416 0.67387 0.63069 0.0
H1020 H 0.39605 0.77363 0.64178 0.0
H1021 H 0.52356 0.96143 0.60437 0.0
H1022 H 0.46453 0.84267 0.72186 0.0
H1023 H 0.41179 0.92245 0.56407 0.0
H1024 H 0.5194 0.90667 0.63806 0.0
H1025 H 0.42383 0.81483 0.60121 0.0
C1026 C 0.41761 0.79682 0.65072 0.0
C1027 C 0.42667 0.80599 0.6852 0.0
C1028 C 0.49605 0.91034 0.62165 0.0
C1029 C 0.45844 0.85244 0.63939 0.0
C1030 C 0.49813 0.9416 0.60303 0.0
C1031 C 0.46759 0.94669 0.58234 0.0
C1032 C 0.46371 0.88382 0.61829 0.0
C1033 C 0.43554 0.92001 0.58054 0.0
C1034 C 0.43349 0.82011 0.62765 0.0
C1035 C 0.45595 0.83528 0.69551 0.0
N1036 N 0.4345 0.88954 0.5982 0.0
N1037 N 0.4702 0.85835 0.67264 0.0
H1038 H 0.08814 0.26934 0.65023 0.0
H1039 H 0.08029 0.46254 0.60467 0.0
H1040 H 0.15504 0.36917 0.69913 0.0
H1041 H 1.00729 0.3636 0.56078 0.0
H1042 H 0.08654 0.4325 0.6571 0.0
H1043 H 0.03946 0.30358 0.63792 0.0
C1044 C 0.09235 0.29843 0.65866 0.0
C1045 C 0.12629 0.31723 0.67364 0.0
C1046 C 0.06848 0.41752 0.63629 0.0
C1047 C 0.07138 0.35659 0.65928 0.0
C1048 C 0.06535 0.43454 0.60623 0.0
C1049 C 0.04529 0.41445 0.57787 0.0
C1050 C 0.05294 0.37972 0.63719 0.0
C1051 C 0.02467 0.37925 0.58166 0.0
C1052 C 0.06442 0.3179 0.65212 0.0
C1053 C 0.12973 0.35415 0.68613 0.0
N1054 N 0.02993 0.36245 0.61053 0.0
N1055 N 0.10296 0.37304 0.67772 0.0
H1056 H 0.72971 0.24251 0.62347 0.0
H1057 H 0.62213 0.04358 0.55874 0.0
H1058 H 0.74137 0.14401 0.67412 0.0
H1059 H 0.61763 0.14374 0.50806 0.0
H1060 H 0.67742 0.0758 0.59268 0.0
H1061 H 0.70116 0.2039 0.57359 0.0
C1062 C 0.72663 0.21259 0.62379 0.0
C1063 C 0.73713 0.19623 0.65294 0.0
C1064 C 0.66491 0.09041 0.57349 0.0
C1065 C 0.70349 0.15165 0.59632 0.0
C1066 C 0.63346 0.07195 0.55395 0.0
C1067 C 0.61481 0.09142 0.53124 0.0
C1068 C 0.67751 0.12843 0.57014 0.0
C1069 C 0.6307 0.12803 0.52592 0.0
C1070 C 0.71039 0.19049 0.5953 0.0
C1071 C 0.73322 0.1575 0.65206 0.0
N1072 N 0.66073 0.14554 0.54568 0.0
N1073 N 0.7158 0.13634 0.62439 0.0
H1074 H 0.76776 0.32168 0.35922 0.0
H1075 H 0.92864 0.497 0.39284 0.0
H1076 H 0.83195 0.37369 0.284 0.0
H1077 H 0.89517 0.41875 0.46606 0.0
H1078 H 0.87383 0.46919 0.35566 0.0
H1079 H 0.79586 0.37349 0.39987 0.0
C1080 C 0.78716 0.34438 0.35109 0.0
C1081 C 0.79843 0.34302 0.3186 0.0
C1082 C 0.87783 0.45907 0.3804 0.0
C1083 C 0.82998 0.40224 0.3645 0.0
C1084 C 0.90884 0.4751 0.40165 0.0
C1085 C 0.91634 0.45949 0.43203 0.0
C1086 C 0.85457 0.42752 0.38996 0.0
C1087 C 0.89027 0.43102 0.44245 0.0
C1088 C 0.80305 0.37391 0.37421 0.0
C1089 C 0.82329 0.37326 0.30915 0.0
N1090 N 0.86075 0.41539 0.42113 0.0
N1091 N 0.83863 0.40145 0.33215 0.0
H1092 H 0.67092 0.7357 0.34571 0.0
H1093 H 0.63711 0.93457 0.40721 0.0
H1094 H 0.69177 0.83194 0.28748 0.0
H1095 H 0.57355 0.83418 0.43907 0.0
H1096 H 0.66395 0.89696 0.36783 0.0
H1097 H 0.63977 0.77069 0.38418 0.0
C1098 C 0.66858 0.76392 0.34078 0.0
C1099 C 0.68407 0.78091 0.31339 0.0
C1100 C 0.64408 0.88318 0.38343 0.0
C1101 C 0.64944 0.82112 0.35752 0.0
C1102 C 0.62896 0.90461 0.40608 0.0
C1103 C 0.603 0.88751 0.42641 0.0
C1104 C 0.63367 0.8443 0.38144 0.0
C1105 C 0.59333 0.84852 0.42371 0.0
C1106 C 0.65093 0.78386 0.36274 0.0
C1107 C 0.68035 0.81764 0.30826 0.0
N1108 N 0.60883 0.82816 0.40174 0.0
N1109 N 0.66383 0.83659 0.33031 0.0
H1110 H 0.15849 0.71823 0.29219 0.0
H1111 H 0.15613 0.55837 0.42401 0.0
H1112 H 0.24504 0.65794 0.31268 0.0
H1113 H 0.06377 0.61149 0.40589 0.0
H1114 H 0.18744 0.59561 0.38331 0.0
H1115 H 0.12292 0.68132 0.33228 0.0
C1116 C 0.1701 0.69718 0.30486 0.0
C1117 C 0.2052 0.69148 0.2985 0.0
C1118 C 0.16035 0.59941 0.38797 0.0
C1119 C 0.16408 0.64874 0.34525 0.0
C1120 C 0.14206 0.57788 0.41159 0.0
C1121 C 0.10663 0.58117 0.41911 0.0
C1122 C 0.14382 0.62532 0.37087 0.0
C1123 C 0.09083 0.60752 0.40138 0.0
C1124 C 0.14962 0.67606 0.32794 0.0
C1125 C 0.21833 0.66368 0.31625 0.0
N1126 N 0.10941 0.62842 0.3783 0.0
N1127 N 0.19803 0.64376 0.33847 0.0
H1128 H 0.27091 0.14458 0.30376 0.0
H1129 H 0.46402 0.14445 0.40741 0.0
H1130 H 0.3627 0.23575 0.31081 0.0
H1131 H 0.36991 0.05759 0.41104 0.0
H1132 H 0.42875 0.17467 0.36705 0.0
H1133 H 0.30757 0.10962 0.33896 0.0
C1134 C 0.29871 0.15728 0.31266 0.0
C1135 C 0.31357 0.19333 0.30433 0.0
C1136 C 0.41582 0.14885 0.37645 0.0
C1137 C 0.3559 0.15323 0.34447 0.0
C1138 C 0.43608 0.13138 0.39945 0.0
C1139 C 0.42 0.09841 0.41304 0.0
C1140 C 0.37901 0.13343 0.36673 0.0
C1141 C 0.38358 0.08295 0.40143 0.0
C1142 C 0.31967 0.13726 0.33274 0.0
C1143 C 0.34988 0.20819 0.3166 0.0
N1144 N 0.3643 0.1007 0.37923 0.0
N1145 N 0.36965 0.18817 0.33593 0.0
H1146 H 0.75586 0.87449 0.68467 0.0
H1147 H 0.5582 0.87636 0.59038 0.0
H1148 H 0.66433 0.78324 0.6796 0.0
H1149 H 0.65218 0.9615 0.58084 0.0
H1150 H 0.59549 0.84607 0.62886 0.0
H1151 H 0.71778 0.90981 0.65129 0.0
C1152 C 0.72786 0.86182 0.67655 0.0
C1153 C 0.7135 0.82563 0.68494 0.0
C1154 C 0.60797 0.87155 0.61861 0.0
C1155 C 0.66949 0.86623 0.64698 0.0
C1156 C 0.58653 0.88914 0.59673 0.0
C1157 C 0.60189 0.92164 0.58198 0.0
C1158 C 0.64531 0.88634 0.62606 0.0
C1159 C 0.63897 0.93654 0.59141 0.0
C1160 C 0.70608 0.88206 0.65753 0.0
C1161 C 0.67685 0.81087 0.67372 0.0
N1162 N 0.65939 0.91869 0.61257 0.0
N1163 N 0.65627 0.83114 0.65549 0.0
H1164 H 0.58207 0.21215 0.32006 0.0
H1165 H 0.58607 0.02103 0.37803 0.0
H1166 H 0.63246 0.13389 0.2657 0.0
H1167 H 0.5047 0.08277 0.40564 0.0
H1168 H 0.59241 0.05499 0.32757 0.0
H1169 H 0.5412 0.16078 0.34026 0.0
C1170 C 0.58414 0.18423 0.31168 0.0
C1171 C 0.61229 0.17738 0.29278 0.0
C1172 C 0.57251 0.06062 0.34422 0.0
C1173 C 0.566 0.11838 0.31652 0.0
C1174 C 0.56926 0.04153 0.37325 0.0
C1175 C 0.54596 0.05035 0.39665 0.0
C1176 C 0.55316 0.08945 0.33921 0.0
C1177 C 0.52378 0.07603 0.3887 0.0
C1178 C 0.56061 0.15474 0.32324 0.0
C1179 C 0.61272 0.1405 0.28202 0.0
N1180 N 0.52865 0.09552 0.36104 0.0
N1181 N 0.59069 0.11226 0.29493 0.0
H1182 H 0.81009 0.65942 0.38842 0.0
H1183 H 0.98316 0.57738 0.38147 0.0
H1184 H 0.82558 0.59802 0.298 0.0
H1185 H 0.98181 0.67968 0.43835 0.0
H1186 H 0.93057 0.58655 0.34509 0.0
H1187 H 0.87439 0.66376 0.40769 0.0
C1188 C 0.82688 0.6455 0.3734 0.0
C1189 C 0.81281 0.62763 0.3421 0.0
C1190 C 0.9427 0.60788 0.36459 0.0
C1191 C 0.88626 0.63417 0.36266 0.0
C1192 C 0.97324 0.60309 0.38486 0.0
C1193 C 0.98522 0.62692 0.41375 0.0
C1194 C 0.92494 0.6367 0.37374 0.0
C1195 C 0.97222 0.66005 0.41689 0.0
C1196 C 0.86369 0.64905 0.38371 0.0
C1197 C 0.83569 0.61122 0.32268 0.0
N1198 N 0.94128 0.66316 0.39816 0.0
N1199 N 0.87152 0.61485 0.33326 0.0
H1200 H 0.28435 0.87081 0.30877 0.0
H1201 H 0.40185 0.87131 0.48391 0.0
H1202 H 0.32695 0.77835 0.34741 0.0
H1203 H 0.39858 0.97044 0.43117 0.0
H1204 H 0.35212 0.83766 0.44445 0.0
H1205 H 0.30697 0.90717 0.36229 0.0
C1206 C 0.2981 0.85811 0.32864 0.0
C1207 C 0.30469 0.82195 0.32355 0.0
C1208 C 0.36167 0.86703 0.44205 0.0
C1209 C 0.32928 0.86259 0.3846 0.0
C1210 C 0.38991 0.88629 0.46464 0.0
C1211 C 0.40519 0.92329 0.45996 0.0
C1212 C 0.34898 0.88488 0.41454 0.0
C1213 C 0.38809 0.94164 0.43516 0.0
C1214 C 0.31076 0.87872 0.35908 0.0
C1215 C 0.32215 0.80648 0.35007 0.0
N1216 N 0.36146 0.92191 0.41263 0.0
N1217 N 0.33399 0.82695 0.37939 0.0
H1218 H 0.16125 0.25544 0.31135 0.0
H1219 H 0.16831 0.43178 0.44053 0.0
H1220 H 0.25595 0.34261 0.33405 0.0
H1221 H 0.07147 0.34889 0.41134 0.0
H1222 H 0.20248 0.39671 0.40563 0.0
H1223 H 0.12966 0.28636 0.352 0.0
C1224 C 0.17553 0.2809 0.32507 0.0
C1225 C 0.21127 0.29653 0.3191 0.0
C1226 C 0.17378 0.38613 0.407 0.0
C1227 C 0.17514 0.33224 0.36562 0.0
C1228 C 0.15424 0.40614 0.427 0.0
C1229 C 0.11683 0.39348 0.42881 0.0
C1230 C 0.15586 0.35315 0.3887 0.0
C1231 C 0.10017 0.35997 0.41064 0.0
C1232 C 0.15742 0.29862 0.34823 0.0
C1233 C 0.22836 0.3296 0.33769 0.0
N1234 N 0.11973 0.34111 0.39133 0.0
N1235 N 0.21011 0.34642 0.35995 0.0
H1236 H 0.36421 0.22748 0.71077 0.0
H1237 H 0.35673 0.09391 0.54772 0.0
H1238 H 0.27386 0.21228 0.63395 0.0
H1239 H 0.45851 0.15705 0.59531 0.0
H1240 H 0.32405 0.13029 0.58326 0.0
H1241 H 0.39794 0.19565 0.67257 0.0
C1242 C 0.35167 0.21781 0.68569 0.0
C1243 C 0.31635 0.22279 0.67534 0.0
C1244 C 0.35353 0.13618 0.58578 0.0
C1245 C 0.35433 0.18546 0.63199 0.0
C1246 C 0.37219 0.11528 0.56574 0.0
C1247 C 0.41042 0.12243 0.56859 0.0
C1248 C 0.37322 0.16382 0.60936 0.0
C1249 C 0.42905 0.15068 0.59219 0.0
C1250 C 0.3709 0.19966 0.66397 0.0
C1251 C 0.30123 0.20943 0.64271 0.0
N1252 N 0.41029 0.17009 0.6119 0.0
N1253 N 0.32013 0.1909 0.6223 0.0
H1254 H 0.88384 0.31488 0.69427 0.0
H1255 H 0.88178 0.4534 0.54386 0.0
H1256 H 0.79003 0.35751 0.65636 0.0
H1257 H 0.98323 0.43774 0.59414 0.0
H1258 H 0.84892 0.41363 0.5823 0.0
H1259 H 0.92089 0.35419 0.65659 0.0
C1260 C 0.87088 0.33245 0.6782 0.0
C1261 C 0.83331 0.33255 0.679 0.0
C1262 C 0.87838 0.41848 0.58506 0.0
C1263 C 0.87611 0.37782 0.63491 0.0
C1264 C 0.89751 0.44146 0.56286 0.0
C1265 C 0.93597 0.44923 0.56497 0.0
C1266 C 0.89715 0.40213 0.61032 0.0
C1267 C 0.95389 0.43213 0.59056 0.0
C1268 C 0.89223 0.35502 0.65658 0.0
C1269 C 0.81862 0.35615 0.65715 0.0
N1270 N 0.93451 0.40955 0.61204 0.0
N1271 N 0.83973 0.3773 0.63625 0.0
H1272 H 0.28703 0.70156 0.63466 0.0
H1273 H 0.14342 0.62803 0.52335 0.0
H1274 H 0.22494 0.63103 0.70057 0.0
H1275 H 0.12425 0.53302 0.58282 0.0
H1276 H 0.20137 0.65027 0.55649 0.0
H1277 H 0.25708 0.65973 0.58647 0.0
C1278 C 0.26775 0.67681 0.63901 0.0
C1279 C 0.25747 0.67025 0.67136 0.0
C1280 C 0.18552 0.62377 0.56163 0.0
C1281 C 0.22244 0.62319 0.61672 0.0
C1282 C 0.15217 0.61124 0.54281 0.0
C1283 C 0.12893 0.57912 0.55094 0.0
C1284 C 0.19526 0.6044 0.58932 0.0
C1285 C 0.14141 0.55813 0.57607 0.0
C1286 C 0.25032 0.65318 0.61151 0.0
C1287 C 0.23277 0.6376 0.67581 0.0
N1288 N 0.17332 0.57178 0.59515 0.0
N1289 N 0.21562 0.61563 0.64874 0.0
loop_
_geom_bond_atom_site_label_1
_geom_bond_atom_site_label_2
_geom_bond_distance
_geom_bond_site_symmetry_2
_ccdc_geom_bond_type
Co0 N5 2.057 . S
Co0 O17 2.021 . S
Co0 O20 2.062 . S
Co0 O24 2.117 . S
Co0 O25 2.020 . S
C1 O21 1.259 . S
C1 O24 1.258 . S
Co2 N11 2.057 . S
Co2 O18 2.117 . S
Co2 O19 2.020 . S
Co2 O21 2.021 . S
Co2 O26 2.062 . S
C3 N5 1.316 . S
C3 N6 1.347 . S
C3 H8 0.931 . S
C4 N5 1.375 . S
C4 C7 1.350 . S
C4 H9 0.930 . S
N5 Co0 2.057 . S
N5 C3 1.316 . S
N5 C4 1.375 . S
N6 C3 1.347 . S
N6 C7 1.373 . S
C7 C4 1.350 . S
C7 N6 1.373 . S
C7 H28 0.931 . S
H8 C3 0.931 . S
H9 C4 0.930 . S
C10 O17 1.259 . S
C10 O18 1.258 . S
N11 Co2 2.057 . S
N11 C12 1.316 . S
N11 C13 1.375 . S
C12 N11 1.316 . S
C12 N14 1.347 . S
C12 H23 0.931 . S
C13 N11 1.375 . S
C13 C15 1.350 . S
C13 H22 0.930 . S
N14 C12 1.347 . S
N14 C15 1.373 . S
C15 C13 1.350 . S
C15 N14 1.373 . S
C15 H29 0.931 . S
C16 O19 1.256 . S
C16 O20 1.255 . S
O17 Co0 2.021 . S
O17 C10 1.259 . S
O18 Co2 2.117 . S
O18 C10 1.258 . S
O19 Co2 2.020 . S
O19 C16 1.256 . S
O20 Co0 2.062 . S
O20 C16 1.255 . S
O21 C1 1.259 . S
O21 Co2 2.021 . S
H22 C13 0.930 . S
H23 C12 0.931 . S
O24 Co0 2.117 . S
O24 C1 1.258 . S
O25 Co0 2.020 . S
O25 C27 1.256 . S
O26 Co2 2.062 . S
O26 C27 1.255 . S
C27 O25 1.256 . S
C27 O26 1.255 . S
H28 C7 0.931 . S
H29 C15 0.931 . S
Co30 N35 2.057 . S
Co30 O47 2.021 . S
Co30 O50 2.062 . S
Co30 O54 2.117 . S
Co30 O55 2.020 . S
C31 O51 1.259 . S
C31 O54 1.258 . S
Co32 N41 2.057 . S
Co32 O48 2.117 . S
Co32 O49 2.020 . S
Co32 O51 2.021 . S
Co32 O56 2.062 . S
C33 N35 1.316 . S
C33 N36 1.347 . S
C33 H38 0.931 . S
C34 N35 1.375 . S
C34 C37 1.350 . S
C34 H39 0.930 . S
N35 Co30 2.057 . S
N35 C33 1.316 . S
N35 C34 1.375 . S
N36 C33 1.347 . S
N36 C37 1.373 . S
C37 C34 1.350 . S
C37 N36 1.373 . S
C37 H58 0.931 . S
H38 C33 0.931 . S
H39 C34 0.930 . S
C40 O47 1.259 . S
C40 O48 1.258 . S
N41 Co32 2.057 . S
N41 C42 1.316 . S
N41 C43 1.375 . S
C42 N41 1.316 . S
C42 N44 1.347 . S
C42 H53 0.931 . S
C43 N41 1.375 . S
C43 C45 1.350 . S
C43 H52 0.930 . S
N44 C42 1.347 . S
N44 C45 1.373 . S
C45 C43 1.350 . S
C45 N44 1.373 . S
C45 H59 0.931 . S
C46 O49 1.256 . S
C46 O50 1.255 . S
O47 Co30 2.021 . S
O47 C40 1.259 . S
O48 Co32 2.117 . S
O48 C40 1.258 . S
O49 Co32 2.020 . S
O49 C46 1.256 . S
O50 Co30 2.062 . S
O50 C46 1.255 . S
O51 C31 1.259 . S
O51 Co32 2.021 . S
H52 C43 0.930 . S
H53 C42 0.931 . S
O54 Co30 2.117 . S
O54 C31 1.258 . S
O55 Co30 2.020 . S
O55 C57 1.256 . S
O56 Co32 2.062 . S
O56 C57 1.255 . S
C57 O55 1.256 . S
C57 O56 1.255 . S
H58 C37 0.931 . S
H59 C45 0.931 . S
Co60 N65 2.057 . S
Co60 O77 2.021 . S
Co60 O80 2.062 . S
Co60 O84 2.117 . S
Co60 O85 2.020 . S
C61 O81 1.259 . S
C61 O84 1.258 . S
Co62 N71 2.057 . S
Co62 O78 2.117 . S
Co62 O79 2.020 . S
Co62 O81 2.021 . S
Co62 O86 2.062 . S
C63 N65 1.316 . S
C63 N66 1.347 . S
C63 H68 0.931 . S
C64 N65 1.375 . S
C64 C67 1.350 . S
C64 H69 0.930 . S
N65 Co60 2.057 . S
N65 C63 1.316 . S
N65 C64 1.375 . S
N66 C63 1.347 . S
N66 C67 1.373 . S
C67 C64 1.350 . S
C67 N66 1.373 . S
C67 H88 0.931 . S
H68 C63 0.931 . S
H69 C64 0.930 . S
C70 O77 1.259 . S
C70 O78 1.258 . S
N71 Co62 2.057 . S
N71 C72 1.316 . S
N71 C73 1.375 . S
C72 N71 1.316 . S
C72 N74 1.347 . S
C72 H83 0.931 . S
C73 N71 1.375 . S
C73 C75 1.350 . S
C73 H82 0.930 . S
N74 C72 1.347 . S
N74 C75 1.373 . S
C75 C73 1.350 . S
C75 N74 1.373 . S
C75 H89 0.931 . S
C76 O79 1.256 . S
C76 O80 1.255 . S
O77 Co60 2.021 . S
O77 C70 1.259 . S
O78 Co62 2.117 . S
O78 C70 1.258 . S
O79 Co62 2.020 . S
O79 C76 1.256 . S
O80 Co60 2.062 . S
O80 C76 1.255 . S
O81 C61 1.259 . S
O81 Co62 2.021 . S
H82 C73 0.930 . S
H83 C72 0.931 . S
O84 Co60 2.117 . S
O84 C61 1.258 . S
O85 Co60 2.020 . S
O85 C87 1.256 . S
O86 Co62 2.062 . S
O86 C87 1.255 . S
C87 O85 1.256 . S
C87 O86 1.255 . S
H88 C67 0.931 . S
H89 C75 0.931 . S
Co90 N95 2.057 . S
Co90 O107 2.021 . S
Co90 O110 2.062 . S
Co90 O114 2.117 . S
Co90 O115 2.020 . S
C91 O111 1.259 . S
C91 O114 1.258 . S
Co92 N101 2.057 . S
Co92 O108 2.117 . S
Co92 O109 2.020 . S
Co92 O111 2.021 . S
Co92 O116 2.062 . S
C93 N95 1.316 . S
C93 N96 1.347 . S
C93 H98 0.931 . S
C94 N95 1.375 . S
C94 C97 1.350 . S
C94 H99 0.930 . S
N95 Co90 2.057 . S
N95 C93 1.316 . S
N95 C94 1.375 . S
N96 C93 1.347 . S
N96 C97 1.373 . S
C97 C94 1.350 . S
C97 N96 1.373 . S
C97 H118 0.931 . S
H98 C93 0.931 . S
H99 C94 0.930 . S
C100 O107 1.259 . S
C100 O108 1.258 . S
N101 Co92 2.057 . S
N101 C102 1.316 . S
N101 C103 1.375 . S
C102 N101 1.316 . S
C102 N104 1.347 . S
C102 H113 0.931 . S
C103 N101 1.375 . S
C103 C105 1.350 . S
C103 H112 0.930 . S
N104 C102 1.347 . S
N104 C105 1.373 . S
C105 C103 1.350 . S
C105 N104 1.373 . S
C105 H119 0.931 . S
C106 O109 1.256 . S
C106 O110 1.255 . S
O107 Co90 2.021 . S
O107 C100 1.259 . S
O108 Co92 2.117 . S
O108 C100 1.258 . S
O109 Co92 2.020 . S
O109 C106 1.256 . S
O110 Co90 2.062 . S
O110 C106 1.255 . S
O111 C91 1.259 . S
O111 Co92 2.021 . S
H112 C103 0.930 . S
H113 C102 0.931 . S
O114 Co90 2.117 . S
O114 C91 1.258 . S
O115 Co90 2.020 . S
O115 C117 1.256 . S
O116 Co92 2.062 . S
O116 C117 1.255 . S
C117 O115 1.256 . S
C117 O116 1.255 . S
H118 C97 0.931 . S
H119 C105 0.931 . S
Co120 N125 2.057 . S
Co120 O137 2.021 . S
Co120 O140 2.062 . S
Co120 O144 2.117 . S
Co120 O145 2.020 . S
C121 O141 1.259 . S
C121 O144 1.258 . S
Co122 N131 2.057 . S
Co122 O138 2.117 . S
Co122 O139 2.020 . S
Co122 O141 2.021 . S
Co122 O146 2.062 . S
C123 N125 1.316 . S
C123 N126 1.347 . S
C123 H128 0.931 . S
C124 N125 1.375 . S
C124 C127 1.350 . S
C124 H129 0.930 . S
N125 Co120 2.057 . S
N125 C123 1.316 . S
N125 C124 1.375 . S
N126 C123 1.347 . S
N126 C127 1.373 . S
C127 C124 1.350 . S
C127 N126 1.373 . S
C127 H148 0.931 . S
H128 C123 0.931 . S
H129 C124 0.930 . S
C130 O137 1.259 . S
C130 O138 1.258 . S
N131 Co122 2.057 . S
N131 C132 1.316 . S
N131 C133 1.375 . S
C132 N131 1.316 . S
C132 N134 1.347 . S
C132 H143 0.931 . S
C133 N131 1.375 . S
C133 C135 1.350 . S
C133 H142 0.930 . S
N134 C132 1.347 . S
N134 C135 1.373 . S
C135 C133 1.350 . S
C135 N134 1.373 . S
C135 H149 0.931 . S
C136 O139 1.256 . S
C136 O140 1.255 . S
O137 Co120 2.021 . S
O137 C130 1.259 . S
O138 Co122 2.117 . S
O138 C130 1.258 . S
O139 Co122 2.020 . S
O139 C136 1.256 . S
O140 Co120 2.062 . S
O140 C136 1.255 . S
O141 C121 1.259 . S
O141 Co122 2.021 . S
H142 C133 0.930 . S
H143 C132 0.931 . S
O144 Co120 2.117 . S
O144 C121 1.258 . S
O145 Co120 2.020 . S
O145 C147 1.256 . S
O146 Co122 2.062 . S
O146 C147 1.255 . S
C147 O145 1.256 . S
C147 O146 1.255 . S
H148 C127 0.931 . S
H149 C135 0.931 . S
Co150 N155 2.057 . S
Co150 O167 2.021 . S
Co150 O170 2.062 . S
Co150 O174 2.117 . S
Co150 O175 2.020 . S
C151 O171 1.259 . S
C151 O174 1.258 . S
Co152 N161 2.057 . S
Co152 O168 2.117 . S
Co152 O169 2.020 . S
Co152 O171 2.021 . S
Co152 O176 2.062 . S
C153 N155 1.316 . S
C153 N156 1.347 . S
C153 H158 0.931 . S
C154 N155 1.375 . S
C154 C157 1.350 . S
C154 H159 0.930 . S
N155 Co150 2.057 . S
N155 C153 1.316 . S
N155 C154 1.375 . S
N156 C153 1.347 . S
N156 C157 1.373 . S
C157 C154 1.350 . S
C157 N156 1.373 . S
C157 H178 0.931 . S
H158 C153 0.931 . S
H159 C154 0.930 . S
C160 O167 1.259 . S
C160 O168 1.258 . S
N161 Co152 2.057 . S
N161 C162 1.316 . S
N161 C163 1.375 . S
C162 N161 1.316 . S
C162 N164 1.347 . S
C162 H173 0.931 . S
C163 N161 1.375 . S
C163 C165 1.350 . S
C163 H172 0.930 . S
N164 C162 1.347 . S
N164 C165 1.373 . S
C165 C163 1.350 . S
C165 N164 1.373 . S
C165 H179 0.931 . S
C166 O169 1.256 . S
C166 O170 1.255 . S
O167 Co150 2.021 . S
O167 C160 1.259 . S
O168 Co152 2.117 . S
O168 C160 1.258 . S
O169 Co152 2.020 . S
O169 C166 1.256 . S
O170 Co150 2.062 . S
O170 C166 1.255 . S
O171 C151 1.259 . S
O171 Co152 2.021 . S
H172 C163 0.930 . S
H173 C162 0.931 . S
O174 Co150 2.117 . S
O174 C151 1.258 . S
O175 Co150 2.020 . S
O175 C177 1.256 . S
O176 Co152 2.062 . S
O176 C177 1.255 . S
C177 O175 1.256 . S
C177 O176 1.255 . S
H178 C157 0.931 . S
H179 C165 0.931 . S
Co180 N185 2.057 . S
Co180 O197 2.021 . S
Co180 O200 2.062 . S
Co180 O204 2.117 . S
Co180 O205 2.020 . S
C181 O201 1.259 . S
C181 O204 1.258 . S
Co182 N191 2.057 . S
Co182 O198 2.117 . S
Co182 O199 2.020 . S
Co182 O201 2.021 . S
Co182 O206 2.062 . S
C183 N185 1.316 . S
C183 N186 1.347 . S
C183 H188 0.931 . S
C184 N185 1.375 . S
C184 C187 1.350 . S
C184 H189 0.930 . S
N185 Co180 2.057 . S
N185 C183 1.316 . S
N185 C184 1.375 . S
N186 C183 1.347 . S
N186 C187 1.373 . S
C187 C184 1.350 . S
C187 N186 1.373 . S
C187 H208 0.931 . S
H188 C183 0.931 . S
H189 C184 0.930 . S
C190 O197 1.259 . S
C190 O198 1.258 . S
N191 Co182 2.057 . S
N191 C192 1.316 . S
N191 C193 1.375 . S
C192 N191 1.316 . S
C192 N194 1.347 . S
C192 H203 0.931 . S
C193 N191 1.375 . S
C193 C195 1.350 . S
C193 H202 0.930 . S
N194 C192 1.347 . S
N194 C195 1.373 . S
C195 C193 1.350 . S
C195 N194 1.373 . S
C195 H209 0.931 . S
C196 O199 1.256 . S
C196 O200 1.255 . S
O197 Co180 2.021 . S
O197 C190 1.259 . S
O198 Co182 2.117 . S
O198 C190 1.258 . S
O199 Co182 2.020 . S
O199 C196 1.256 . S
O200 Co180 2.062 . S
O200 C196 1.255 . S
O201 C181 1.259 . S
O201 Co182 2.021 . S
H202 C193 0.930 . S
H203 C192 0.931 . S
O204 Co180 2.117 . S
O204 C181 1.258 . S
O205 Co180 2.020 . S
O205 C207 1.256 . S
O206 Co182 2.062 . S
O206 C207 1.255 . S
C207 O205 1.256 . S
C207 O206 1.255 . S
H208 C187 0.931 . S
H209 C195 0.931 . S
Co210 N215 2.057 . S
Co210 O227 2.021 . S
Co210 O230 2.062 . S
Co210 O234 2.117 . S
Co210 O235 2.020 . S
C211 O231 1.259 . S
C211 O234 1.258 . S
Co212 N221 2.057 . S
Co212 O228 2.117 . S
Co212 O229 2.020 . S
Co212 O231 2.021 . S
Co212 O236 2.062 . S
C213 N215 1.316 . S
C213 N216 1.347 . S
C213 H218 0.931 . S
C214 N215 1.375 . S
C214 C217 1.350 . S
C214 H219 0.930 . S
N215 Co210 2.057 . S
N215 C213 1.316 . S
N215 C214 1.375 . S
N216 C213 1.347 . S
N216 C217 1.373 . S
C217 C214 1.350 . S
C217 N216 1.373 . S
C217 H238 0.931 . S
H218 C213 0.931 . S
H219 C214 0.930 . S
C220 O227 1.259 . S
C220 O228 1.258 . S
N221 Co212 2.057 . S
N221 C222 1.316 . S
N221 C223 1.375 . S
C222 N221 1.316 . S
C222 N224 1.347 . S
C222 H233 0.931 . S
C223 N221 1.375 . S
C223 C225 1.350 . S
C223 H232 0.930 . S
N224 C222 1.347 . S
N224 C225 1.373 . S
C225 C223 1.350 . S
C225 N224 1.373 . S
C225 H239 0.931 . S
C226 O229 1.256 . S
C226 O230 1.255 . S
O227 Co210 2.021 . S
O227 C220 1.259 . S
O228 Co212 2.117 . S
O228 C220 1.258 . S
O229 Co212 2.020 . S
O229 C226 1.256 . S
O230 Co210 2.062 . S
O230 C226 1.255 . S
O231 C211 1.259 . S
O231 Co212 2.021 . S
H232 C223 0.930 . S
H233 C222 0.931 . S
O234 Co210 2.117 . S
O234 C211 1.258 . S
O235 Co210 2.020 . S
O235 C237 1.256 . S
O236 Co212 2.062 . S
O236 C237 1.255 . S
C237 O235 1.256 . S
C237 O236 1.255 . S
H238 C217 0.931 . S
H239 C225 0.931 . S
C240 O252 1.241 . S
C240 O253 1.280 . S
C241 O254 1.277 . S
C241 O255 1.245 . S
C242 O266 1.247 . S
C242 O268 1.289 . S
Mg243 O244 1.926 . S
Mg243 O253 1.984 . S
Mg243 O255 1.988 . S
Mg243 O256 2.061 1_655 S
O244 Mg243 1.926 . S
O244 Mg245 1.986 . S
O244 Mg246 1.917 1_655 S
Mg245 O244 1.986 . S
Mg245 O252 2.042 . S
Mg245 O254 2.041 . S
Mg245 O260 2.038 1_545 S
Mg245 O268 2.238 1_545 S
Mg246 O244 1.917 1_455 S
Mg246 O247 1.917 1_545 S
Mg246 O257 2.106 . S
Mg246 O259 2.079 1_445 S
Mg246 O268 2.106 1_445 S
Mg246 O269 2.079 . S
O247 Mg246 1.917 1_565 S
O247 Mg248 1.926 . S
O247 Mg249 1.986 . S
Mg248 O247 1.926 . S
Mg248 O262 1.984 . S
Mg248 O265 1.988 . S
Mg248 O266 2.061 1_455 S
Mg249 O247 1.986 . S
Mg249 O257 2.238 1_565 S
Mg249 O261 2.042 . S
Mg249 O263 2.041 . S
Mg249 O270 2.038 1_565 S
C250 O256 1.247 . S
C250 O257 1.289 . S
C251 O269 1.245 . S
C251 O270 1.274 . S
O252 C240 1.241 . S
O252 Mg245 2.042 . S
O253 C240 1.280 . S
O253 Mg243 1.984 . S
O254 C241 1.277 . S
O254 Mg245 2.041 . S
O255 C241 1.245 . S
O255 Mg243 1.988 . S
O256 Mg243 2.061 1_455 S
O256 C250 1.247 . S
O257 Mg246 2.106 . S
O257 Mg249 2.238 1_545 S
O257 C250 1.289 . S
C258 O259 1.245 . S
C258 O260 1.274 . S
O259 Mg246 2.079 1_665 S
O259 C258 1.245 . S
O260 Mg245 2.038 1_565 S
O260 C258 1.274 . S
O261 Mg249 2.042 . S
O261 C264 1.241 . S
O262 Mg248 1.984 . S
O262 C264 1.280 . S
O263 Mg249 2.041 . S
O263 C267 1.277 . S
C264 O261 1.241 . S
C264 O262 1.280 . S
O265 Mg248 1.988 . S
O265 C267 1.245 . S
O266 C242 1.247 . S
O266 Mg248 2.061 1_655 S
C267 O263 1.277 . S
C267 O265 1.245 . S
O268 C242 1.289 . S
O268 Mg245 2.238 1_565 S
O268 Mg246 2.106 1_665 S
O269 Mg246 2.079 . S
O269 C251 1.245 . S
O270 Mg249 2.038 1_545 S
O270 C251 1.274 . S
C271 O283 1.241 . S
C271 O284 1.280 . S
C272 O285 1.277 . S
C272 O286 1.245 . S
C273 O297 1.247 . S
C273 O299 1.289 . S
Mg274 O275 1.926 . S
Mg274 O284 1.984 . S
Mg274 O286 1.988 1_554 S
Mg274 O287 2.061 . S
O275 Mg274 1.926 . S
O275 Mg276 1.986 1_554 S
O275 Mg277 1.917 . S
Mg276 O275 1.986 1_556 S
Mg276 O283 2.042 1_556 S
Mg276 O285 2.041 . S
Mg276 O291 2.038 1_546 S
Mg276 O299 2.238 1_545 S
Mg277 O275 1.917 . S
Mg277 O278 1.917 1_544 S
Mg277 O288 2.106 . S
Mg277 O290 2.079 1_545 S
Mg277 O299 2.106 1_544 S
Mg277 O300 2.079 1_554 S
O278 Mg277 1.917 1_566 S
O278 Mg279 1.926 . S
O278 Mg280 1.986 1_556 S
Mg279 O278 1.926 . S
Mg279 O293 1.984 . S
Mg279 O296 1.988 1_556 S
Mg279 O297 2.061 . S
Mg280 O278 1.986 1_554 S
Mg280 O288 2.238 1_565 S
Mg280 O292 2.042 1_554 S
Mg280 O294 2.041 . S
Mg280 O301 2.038 1_564 S
C281 O287 1.247 . S
C281 O288 1.289 . S
C282 O300 1.245 . S
C282 O301 1.274 . S
O283 C271 1.241 . S
O283 Mg276 2.042 1_554 S
O284 C271 1.280 . S
O284 Mg274 1.984 . S
O285 C272 1.277 . S
O285 Mg276 2.041 . S
O286 C272 1.245 . S
O286 Mg274 1.988 1_556 S
O287 Mg274 2.061 . S
O287 C281 1.247 . S
O288 Mg277 2.106 . S
O288 Mg280 2.238 1_545 S
O288 C281 1.289 . S
C289 O290 1.245 . S
C289 O291 1.274 . S
O290 Mg277 2.079 1_565 S
O290 C289 1.245 . S
O291 Mg276 2.038 1_564 S
O291 C289 1.274 . S
O292 Mg280 2.042 1_556 S
O292 C295 1.241 . S
O293 Mg279 1.984 . S
O293 C295 1.280 . S
O294 Mg280 2.041 . S
O294 C298 1.277 . S
C295 O292 1.241 . S
C295 O293 1.280 . S
O296 Mg279 1.988 1_554 S
O296 C298 1.245 . S
O297 C273 1.247 . S
O297 Mg279 2.061 . S
C298 O294 1.277 . S
C298 O296 1.245 . S
O299 C273 1.289 . S
O299 Mg276 2.238 1_565 S
O299 Mg277 2.106 1_566 S
O300 Mg277 2.079 1_556 S
O300 C282 1.245 . S
O301 Mg280 2.038 1_546 S
O301 C282 1.274 . S
C302 O314 1.241 . S
C302 O315 1.280 . S
C303 O316 1.277 . S
C303 O317 1.245 . S
C304 O328 1.247 . S
C304 O330 1.289 . S
Mg305 O306 1.926 . S
Mg305 O315 1.984 . S
Mg305 O317 1.988 1_554 S
Mg305 O318 2.061 1_655 S
O306 Mg305 1.926 . S
O306 Mg307 1.986 1_554 S
O306 Mg308 1.917 1_655 S
Mg307 O306 1.986 1_556 S
Mg307 O314 2.042 1_556 S
Mg307 O316 2.041 . S
Mg307 O322 2.038 1_556 S
Mg307 O330 2.238 . S
Mg308 O306 1.917 1_455 S
Mg308 O309 1.917 1_554 S
Mg308 O319 2.106 . S
Mg308 O321 2.079 1_455 S
Mg308 O330 2.106 1_454 S
Mg308 O331 2.079 1_554 S
O309 Mg308 1.917 1_556 S
O309 Mg310 1.926 . S
O309 Mg311 1.986 1_556 S
Mg310 O309 1.926 . S
Mg310 O324 1.984 . S
Mg310 O327 1.988 1_556 S
Mg310 O328 2.061 1_455 S
Mg311 O309 1.986 1_554 S
Mg311 O319 2.238 . S
Mg311 O323 2.042 1_554 S
Mg311 O325 2.041 . S
Mg311 O332 2.038 1_554 S
C312 O318 1.247 . S
C312 O319 1.289 . S
C313 O331 1.245 . S
C313 O332 1.274 . S
O314 C302 1.241 . S
O314 Mg307 2.042 1_554 S
O315 C302 1.280 . S
O315 Mg305 1.984 . S
O316 C303 1.277 . S
O316 Mg307 2.041 . S
O317 C303 1.245 . S
O317 Mg305 1.988 1_556 S
O318 Mg305 2.061 1_455 S
O318 C312 1.247 . S
O319 Mg308 2.106 . S
O319 Mg311 2.238 . S
O319 C312 1.289 . S
C320 O321 1.245 . S
C320 O322 1.274 . S
O321 Mg308 2.079 1_655 S
O321 C320 1.245 . S
O322 Mg307 2.038 1_554 S
O322 C320 1.274 . S
O323 Mg311 2.042 1_556 S
O323 C326 1.241 . S
O324 Mg310 1.984 . S
O324 C326 1.280 . S
O325 Mg311 2.041 . S
O325 C329 1.277 . S
C326 O323 1.241 . S
C326 O324 1.280 . S
O327 Mg310 1.988 1_554 S
O327 C329 1.245 . S
O328 C304 1.247 . S
O328 Mg310 2.061 1_655 S
C329 O325 1.277 . S
C329 O327 1.245 . S
O330 C304 1.289 . S
O330 Mg307 2.238 . S
O330 Mg308 2.106 1_656 S
O331 Mg308 2.079 1_556 S
O331 C313 1.245 . S
O332 Mg311 2.038 1_556 S
O332 C313 1.274 . S
C333 O345 1.241 . S
C333 O346 1.280 . S
C334 O347 1.277 . S
C334 O348 1.245 . S
C335 O359 1.247 . S
C335 O361 1.289 . S
Mg336 O337 1.926 . S
Mg336 O346 1.984 . S
Mg336 O348 1.988 1_554 S
Mg336 O349 2.061 . S
O337 Mg336 1.926 . S
O337 Mg338 1.986 1_554 S
O337 Mg339 1.917 . S
Mg338 O337 1.986 1_556 S
Mg338 O345 2.042 1_556 S
Mg338 O347 2.041 . S
Mg338 O353 2.038 1_556 S
Mg338 O361 2.238 . S
Mg339 O337 1.917 . S
Mg339 O340 1.917 1_554 S
Mg339 O350 2.106 . S
Mg339 O352 2.079 . S
Mg339 O361 2.106 1_554 S
Mg339 O362 2.079 1_554 S
O340 Mg339 1.917 1_556 S
O340 Mg341 1.926 . S
O340 Mg342 1.986 1_556 S
Mg341 O340 1.926 . S
Mg341 O355 1.984 . S
Mg341 O358 1.988 1_556 S
Mg341 O359 2.061 . S
Mg342 O340 1.986 1_554 S
Mg342 O350 2.238 . S
Mg342 O354 2.042 1_554 S
Mg342 O356 2.041 . S
Mg342 O363 2.038 1_554 S
C343 O349 1.247 . S
C343 O350 1.289 . S
C344 O362 1.245 . S
C344 O363 1.274 . S
O345 C333 1.241 . S
O345 Mg338 2.042 1_554 S
O346 C333 1.280 . S
O346 Mg336 1.984 . S
O347 C334 1.277 . S
O347 Mg338 2.041 . S
O348 C334 1.245 . S
O348 Mg336 1.988 1_556 S
O349 Mg336 2.061 . S
O349 C343 1.247 . S
O350 Mg339 2.106 . S
O350 Mg342 2.238 . S
O350 C343 1.289 . S
C351 O352 1.245 . S
C351 O353 1.274 . S
O352 Mg339 2.079 . S
O352 C351 1.245 . S
O353 Mg338 2.038 1_554 S
O353 C351 1.274 . S
O354 Mg342 2.042 1_556 S
O354 C357 1.241 . S
O355 Mg341 1.984 . S
O355 C357 1.280 . S
O356 Mg342 2.041 . S
O356 C360 1.277 . S
C357 O354 1.241 . S
C357 O355 1.280 . S
O358 Mg341 1.988 1_554 S
O358 C360 1.245 . S
O359 C335 1.247 . S
O359 Mg341 2.061 . S
C360 O356 1.277 . S
C360 O358 1.245 . S
O361 C335 1.289 . S
O361 Mg338 2.238 . S
O361 Mg339 2.106 1_556 S
O362 Mg339 2.079 1_556 S
O362 C344 1.245 . S
O363 Mg342 2.038 1_556 S
O363 C344 1.274 . S
C364 O376 1.241 . S
C364 O377 1.280 . S
C365 O378 1.277 . S
C365 O379 1.245 . S
C366 O390 1.247 . S
C366 O392 1.289 . S
Mg367 O368 1.926 . S
Mg367 O377 1.984 . S
Mg367 O379 1.988 . S
Mg367 O380 2.061 1_655 S
O368 Mg367 1.926 . S
O368 Mg369 1.986 . S
O368 Mg370 1.917 1_655 S
Mg369 O368 1.986 . S
Mg369 O376 2.042 . S
Mg369 O378 2.041 . S
Mg369 O384 2.038 . S
Mg369 O392 2.238 . S
Mg370 O368 1.917 1_455 S
Mg370 O371 1.917 . S
Mg370 O381 2.106 . S
Mg370 O383 2.079 1_455 S
Mg370 O392 2.106 1_455 S
Mg370 O393 2.079 . S
O371 Mg370 1.917 . S
O371 Mg372 1.926 . S
O371 Mg373 1.986 . S
Mg372 O371 1.926 . S
Mg372 O386 1.984 . S
Mg372 O389 1.988 . S
Mg372 O390 2.061 1_455 S
Mg373 O371 1.986 . S
Mg373 O381 2.238 . S
Mg373 O385 2.042 . S
Mg373 O387 2.041 . S
Mg373 O394 2.038 . S
C374 O380 1.247 . S
C374 O381 1.289 . S
C375 O393 1.245 . S
C375 O394 1.274 . S
O376 C364 1.241 . S
O376 Mg369 2.042 . S
O377 C364 1.280 . S
O377 Mg367 1.984 . S
O378 C365 1.277 . S
O378 Mg369 2.041 . S
O379 C365 1.245 . S
O379 Mg367 1.988 . S
O380 Mg367 2.061 1_455 S
O380 C374 1.247 . S
O381 Mg370 2.106 . S
O381 Mg373 2.238 . S
O381 C374 1.289 . S
C382 O383 1.245 . S
C382 O384 1.274 . S
O383 Mg370 2.079 1_655 S
O383 C382 1.245 . S
O384 Mg369 2.038 . S
O384 C382 1.274 . S
O385 Mg373 2.042 . S
O385 C388 1.241 . S
O386 Mg372 1.984 . S
O386 C388 1.280 . S
O387 Mg373 2.041 . S
O387 C391 1.277 . S
C388 O385 1.241 . S
C388 O386 1.280 . S
O389 Mg372 1.988 . S
O389 C391 1.245 . S
O390 C366 1.247 . S
O390 Mg372 2.061 1_655 S
C391 O387 1.277 . S
C391 O389 1.245 . S
O392 C366 1.289 . S
O392 Mg369 2.238 . S
O392 Mg370 2.106 1_655 S
O393 Mg370 2.079 . S
O393 C375 1.245 . S
O394 Mg373 2.038 . S
O394 C375 1.274 . S
C395 O407 1.241 . S
C395 O408 1.280 . S
C396 O409 1.277 . S
C396 O410 1.245 . S
C397 O421 1.247 . S
C397 O423 1.289 . S
Mg398 O399 1.926 . S
Mg398 O408 1.984 . S
Mg398 O410 1.988 . S
Mg398 O411 2.061 . S
O399 Mg398 1.926 . S
O399 Mg400 1.986 . S
O399 Mg401 1.917 . S
Mg400 O399 1.986 . S
Mg400 O407 2.042 . S
Mg400 O409 2.041 . S
Mg400 O415 2.038 1_545 S
Mg400 O423 2.238 1_545 S
Mg401 O399 1.917 . S
Mg401 O402 1.917 1_545 S
Mg401 O412 2.106 . S
Mg401 O414 2.079 1_545 S
Mg401 O423 2.106 1_545 S
Mg401 O424 2.079 . S
O402 Mg401 1.917 1_565 S
O402 Mg403 1.926 . S
O402 Mg404 1.986 . S
Mg403 O402 1.926 . S
Mg403 O417 1.984 . S
Mg403 O420 1.988 . S
Mg403 O421 2.061 . S
Mg404 O402 1.986 . S
Mg404 O412 2.238 1_565 S
Mg404 O416 2.042 . S
Mg404 O418 2.041 . S
Mg404 O425 2.038 1_565 S
C405 O411 1.247 . S
C405 O412 1.289 . S
C406 O424 1.245 . S
C406 O425 1.274 . S
O407 C395 1.241 . S
O407 Mg400 2.042 . S
O408 C395 1.280 . S
O408 Mg398 1.984 . S
O409 C396 1.277 . S
O409 Mg400 2.041 . S
O410 C396 1.245 . S
O410 Mg398 1.988 . S
O411 Mg398 2.061 . S
O411 C405 1.247 . S
O412 Mg401 2.106 . S
O412 Mg404 2.238 1_545 S
O412 C405 1.289 . S
C413 O414 1.245 . S
C413 O415 1.274 . S
O414 Mg401 2.079 1_565 S
O414 C413 1.245 . S
O415 Mg400 2.038 1_565 S
O415 C413 1.274 . S
O416 Mg404 2.042 . S
O416 C419 1.241 . S
O417 Mg403 1.984 . S
O417 C419 1.280 . S
O418 Mg404 2.041 . S
O418 C422 1.277 . S
C419 O416 1.241 . S
C419 O417 1.280 . S
O420 Mg403 1.988 . S
O420 C422 1.245 . S
O421 C397 1.247 . S
O421 Mg403 2.061 . S
C422 O418 1.277 . S
C422 O420 1.245 . S
O423 C397 1.289 . S
O423 Mg400 2.238 1_565 S
O423 Mg401 2.106 1_565 S
O424 Mg401 2.079 . S
O424 C406 1.245 . S
O425 Mg404 2.038 1_545 S
O425 C406 1.274 . S
H426 C432 0.930 . S
H427 C436 0.930 . S
H428 C441 0.929 . S
H429 C439 0.929 . S
H430 C434 0.929 . S
H431 C440 0.929 . S
C432 H426 0.930 . S
C432 C433 1.367 . S
C432 C440 1.378 . S
C433 C432 1.367 . S
C433 C441 1.433 . S
C434 H430 0.929 . S
C434 C436 1.378 . S
C434 C438 1.350 . S
C435 C438 1.463 . S
C435 C440 1.350 . S
C435 N443 1.427 . S
C436 H427 0.930 . S
C436 C434 1.378 . S
C436 C437 1.367 . S
C437 C436 1.367 . S
C437 C439 1.433 . S
C438 C434 1.350 . S
C438 C435 1.463 . S
C438 N442 1.427 . S
C439 H429 0.929 . S
C439 C437 1.433 . S
C439 N442 1.384 . S
C440 H431 0.929 . S
C440 C432 1.378 . S
C440 C435 1.350 . S
C441 H428 0.929 . S
C441 C433 1.433 . S
C441 N443 1.384 . S
N442 C438 1.427 . S
N442 C439 1.384 . S
N443 C435 1.427 . S
N443 C441 1.384 . S
H444 C450 0.930 . S
H445 C454 0.930 . S
H446 C459 0.929 . S
H447 C457 0.929 . S
H448 C452 0.929 . S
H449 C458 0.929 . S
C450 H444 0.930 . S
C450 C451 1.367 . S
C450 C458 1.378 . S
C451 C450 1.367 . S
C451 C459 1.433 . S
C452 H448 0.929 . S
C452 C454 1.378 . S
C452 C456 1.350 . S
C453 C456 1.463 . S
C453 C458 1.350 . S
C453 N461 1.427 . S
C454 H445 0.930 . S
C454 C452 1.378 . S
C454 C455 1.367 . S
C455 C454 1.367 . S
C455 C457 1.433 . S
C456 C452 1.350 . S
C456 C453 1.463 . S
C456 N460 1.427 . S
C457 H447 0.929 . S
C457 C455 1.433 . S
C457 N460 1.384 . S
C458 H449 0.929 . S
C458 C450 1.378 . S
C458 C453 1.350 . S
C459 H446 0.929 . S
C459 C451 1.433 . S
C459 N461 1.384 . S
N460 C456 1.427 . S
N460 C457 1.384 . S
N461 C453 1.427 . S
N461 C459 1.384 . S
H462 C468 0.930 . S
H463 C472 0.930 . S
H464 C477 0.929 . S
H465 C475 0.929 . S
H466 C470 0.929 . S
H467 C476 0.929 . S
C468 H462 0.930 . S
C468 C469 1.367 . S
C468 C476 1.378 . S
C469 C468 1.367 . S
C469 C477 1.433 . S
C470 H466 0.929 . S
C470 C472 1.378 . S
C470 C474 1.350 . S
C471 C474 1.463 . S
C471 C476 1.350 . S
C471 N479 1.427 . S
C472 H463 0.930 . S
C472 C470 1.378 . S
C472 C473 1.367 . S
C473 C472 1.367 . S
C473 C475 1.433 . S
C474 C470 1.350 . S
C474 C471 1.463 . S
C474 N478 1.427 . S
C475 H465 0.929 . S
C475 C473 1.433 . S
C475 N478 1.384 . S
C476 H467 0.929 . S
C476 C468 1.378 . S
C476 C471 1.350 . S
C477 H464 0.929 . S
C477 C469 1.433 . S
C477 N479 1.384 . S
N478 C474 1.427 . S
N478 C475 1.384 . S
N479 C471 1.427 . S
N479 C477 1.384 . S
H480 C486 0.930 . S
H481 C490 0.930 . S
H482 C495 0.929 . S
H483 C493 0.929 . S
H484 C488 0.929 . S
H485 C494 0.929 . S
C486 H480 0.930 . S
C486 C487 1.367 . S
C486 C494 1.378 . S
C487 C486 1.367 . S
C487 C495 1.433 . S
C488 H484 0.929 . S
C488 C490 1.378 . S
C488 C492 1.350 . S
C489 C492 1.463 . S
C489 C494 1.350 . S
C489 N497 1.427 . S
C490 H481 0.930 . S
C490 C488 1.378 . S
C490 C491 1.367 . S
C491 C490 1.367 . S
C491 C493 1.433 . S
C492 C488 1.350 . S
C492 C489 1.463 . S
C492 N496 1.427 . S
C493 H483 0.929 . S
C493 C491 1.433 . S
C493 N496 1.384 . S
C494 H485 0.929 . S
C494 C486 1.378 . S
C494 C489 1.350 . S
C495 H482 0.929 . S
C495 C487 1.433 . S
C495 N497 1.384 . S
N496 C492 1.427 . S
N496 C493 1.384 . S
N497 C489 1.427 . S
N497 C495 1.384 . S
H498 C504 0.930 . S
H499 C508 0.930 . S
H500 C513 0.929 . S
H501 C511 0.929 . S
H502 C506 0.929 . S
H503 C512 0.929 . S
C504 H498 0.930 . S
C504 C505 1.367 . S
C504 C512 1.378 . S
C505 C504 1.367 . S
C505 C513 1.433 . S
C506 H502 0.929 . S
C506 C508 1.378 . S
C506 C510 1.350 . S
C507 C510 1.463 . S
C507 C512 1.350 . S
C507 N515 1.427 . S
C508 H499 0.930 . S
C508 C506 1.378 . S
C508 C509 1.367 . S
C509 C508 1.367 . S
C509 C511 1.433 . S
C510 C506 1.350 . S
C510 C507 1.463 . S
C510 N514 1.427 . S
C511 H501 0.929 . S
C511 C509 1.433 . S
C511 N514 1.384 . S
C512 H503 0.929 . S
C512 C504 1.378 . S
C512 C507 1.350 . S
C513 H500 0.929 . S
C513 C505 1.433 . S
C513 N515 1.384 . S
N514 C510 1.427 . S
N514 C511 1.384 . S
N515 C507 1.427 . S
N515 C513 1.384 . S
H516 C522 0.930 . S
H517 C526 0.930 . S
H518 C531 0.929 . S
H519 C529 0.929 . S
H520 C524 0.929 . S
H521 C530 0.929 . S
C522 H516 0.930 . S
C522 C523 1.367 . S
C522 C530 1.378 . S
C523 C522 1.367 . S
C523 C531 1.433 . S
C524 H520 0.929 . S
C524 C526 1.378 . S
C524 C528 1.350 . S
C525 C528 1.463 . S
C525 C530 1.350 . S
C525 N533 1.427 . S
C526 H517 0.930 . S
C526 C524 1.378 . S
C526 C527 1.367 . S
C527 C526 1.367 . S
C527 C529 1.433 . S
C528 C524 1.350 . S
C528 C525 1.463 . S
C528 N532 1.427 . S
C529 H519 0.929 . S
C529 C527 1.433 . S
C529 N532 1.384 . S
C530 H521 0.929 . S
C530 C522 1.378 . S
C530 C525 1.350 . S
C531 H518 0.929 . S
C531 C523 1.433 . S
C531 N533 1.384 . S
N532 C528 1.427 . S
N532 C529 1.384 . S
N533 C525 1.427 . S
N533 C531 1.384 . S
H534 C540 0.930 . S
H535 C544 0.930 . S
H536 C549 0.929 . S
H537 C547 0.929 . S
H538 C542 0.929 . S
H539 C548 0.929 . S
C540 H534 0.930 . S
C540 C541 1.367 . S
C540 C548 1.378 . S
C541 C540 1.367 . S
C541 C549 1.433 . S
C542 H538 0.929 . S
C542 C544 1.378 . S
C542 C546 1.350 . S
C543 C546 1.463 . S
C543 C548 1.350 . S
C543 N551 1.427 . S
C544 H535 0.930 . S
C544 C542 1.378 . S
C544 C545 1.367 . S
C545 C544 1.367 . S
C545 C547 1.433 . S
C546 C542 1.350 . S
C546 C543 1.463 . S
C546 N550 1.427 . S
C547 H537 0.929 . S
C547 C545 1.433 . S
C547 N550 1.384 . S
C548 H539 0.929 . S
C548 C540 1.378 . S
C548 C543 1.350 . S
C549 H536 0.929 . S
C549 C541 1.433 . S
C549 N551 1.384 . S
N550 C546 1.427 . S
N550 C547 1.384 . S
N551 C543 1.427 . S
N551 C549 1.384 . S
H552 C558 0.930 . S
H553 C562 0.930 . S
H554 C567 0.929 . S
H555 C565 0.935 . S
H556 C560 0.929 . S
H557 C566 0.929 . S
C558 H552 0.930 . S
C558 C559 1.367 . S
C558 C566 1.378 . S
C559 C558 1.367 . S
C559 C567 1.433 . S
C560 H556 0.929 . S
C560 C562 1.378 . S
C560 C564 1.350 . S
C561 C564 1.463 . S
C561 C566 1.350 . S
C561 N569 1.427 . S
C562 H553 0.930 . S
C562 C560 1.378 . S
C562 C563 1.367 . S
C563 C562 1.367 . S
C563 C565 1.433 . S
C564 C560 1.350 . S
C564 C561 1.463 . S
C564 N568 1.427 . S
C565 H555 0.935 . S
C565 C563 1.433 . S
C565 N568 1.384 . S
C566 H557 0.929 . S
C566 C558 1.378 . S
C566 C561 1.350 . S
C567 H554 0.929 . S
C567 C559 1.433 . S
C567 N569 1.384 . S
N568 C564 1.427 . S
N568 C565 1.384 . S
N569 C561 1.427 . S
N569 C567 1.384 . S
H570 C576 0.930 . S
H571 C580 0.930 . S
H572 C585 0.929 . S
H573 C583 0.929 . S
H574 C578 0.929 . S
H575 C584 0.929 . S
C576 H570 0.930 . S
C576 C577 1.367 . S
C576 C584 1.378 . S
C577 C576 1.367 . S
C577 C585 1.433 . S
C578 H574 0.929 . S
C578 C580 1.378 . S
C578 C582 1.350 . S
C579 C582 1.463 . S
C579 C584 1.350 . S
C579 N587 1.427 . S
C580 H571 0.930 . S
C580 C578 1.378 . S
C580 C581 1.367 . S
C581 C580 1.367 . S
C581 C583 1.433 . S
C582 C578 1.350 . S
C582 C579 1.463 . S
C582 N586 1.427 . S
C583 H573 0.929 . S
C583 C581 1.433 . S
C583 N586 1.384 . S
C584 H575 0.929 . S
C584 C576 1.378 . S
C584 C579 1.350 . S
C585 H572 0.929 . S
C585 C577 1.433 . S
C585 N587 1.384 . S
N586 C582 1.427 . S
N586 C583 1.384 . S
N587 C579 1.427 . S
N587 C585 1.384 . S
H588 C594 0.930 . S
H589 C598 0.930 . S
H590 C603 0.929 . S
H591 C601 0.929 . S
H592 C596 0.929 . S
H593 C602 0.929 . S
C594 H588 0.930 . S
C594 C595 1.367 . S
C594 C602 1.378 . S
C595 C594 1.367 . S
C595 C603 1.433 . S
C596 H592 0.929 . S
C596 C598 1.378 . S
C596 C600 1.350 . S
C597 C600 1.463 . S
C597 C602 1.350 . S
C597 N605 1.427 . S
C598 H589 0.930 . S
C598 C596 1.378 . S
C598 C599 1.367 . S
C599 C598 1.367 . S
C599 C601 1.433 . S
C600 C596 1.350 . S
C600 C597 1.463 . S
C600 N604 1.427 . S
C601 H591 0.929 . S
C601 C599 1.433 . S
C601 N604 1.384 . S
C602 H593 0.929 . S
C602 C594 1.378 . S
C602 C597 1.350 . S
C603 H590 0.929 . S
C603 C595 1.433 . S
C603 N605 1.384 . S
N604 C600 1.427 . S
N604 C601 1.384 . S
N605 C597 1.427 . S
N605 C603 1.384 . S
H606 C612 0.930 . S
H607 C616 0.930 . S
H608 C621 0.929 . S
H609 C619 0.929 . S
H610 C614 0.929 . S
H611 C620 0.929 . S
C612 H606 0.930 . S
C612 C613 1.367 . S
C612 C620 1.378 . S
C613 C612 1.367 . S
C613 C621 1.433 . S
C614 H610 0.929 . S
C614 C616 1.378 . S
C614 C618 1.350 . S
C615 C618 1.463 . S
C615 C620 1.350 . S
C615 N623 1.427 . S
C616 H607 0.930 . S
C616 C614 1.378 . S
C616 C617 1.367 . S
C617 C616 1.367 . S
C617 C619 1.433 . S
C618 C614 1.350 . S
C618 C615 1.463 . S
C618 N622 1.427 . S
C619 H609 0.929 . S
C619 C617 1.433 . S
C619 N622 1.384 . S
C620 H611 0.929 . S
C620 C612 1.378 . S
C620 C615 1.350 . S
C621 H608 0.929 . S
C621 C613 1.433 . S
C621 N623 1.384 . S
N622 C618 1.427 . S
N622 C619 1.384 . S
N623 C615 1.427 . S
N623 C621 1.384 . S
H624 C630 0.930 . S
H625 C634 0.930 . S
H626 C639 0.929 . S
H627 C637 0.929 . S
H628 C632 0.929 . S
H629 C638 0.929 . S
C630 H624 0.930 . S
C630 C631 1.367 . S
C630 C638 1.378 . S
C631 C630 1.367 . S
C631 C639 1.433 . S
C632 H628 0.929 . S
C632 C634 1.378 . S
C632 C636 1.350 . S
C633 C636 1.463 . S
C633 C638 1.350 . S
C633 N641 1.427 . S
C634 H625 0.930 . S
C634 C632 1.378 . S
C634 C635 1.367 . S
C635 C634 1.367 . S
C635 C637 1.433 . S
C636 C632 1.350 . S
C636 C633 1.463 . S
C636 N640 1.427 . S
C637 H627 0.929 . S
C637 C635 1.433 . S
C637 N640 1.384 . S
C638 H629 0.929 . S
C638 C630 1.378 . S
C638 C633 1.350 . S
C639 H626 0.929 . S
C639 C631 1.433 . S
C639 N641 1.384 . S
N640 C636 1.427 . S
N640 C637 1.384 . S
N641 C633 1.427 . S
N641 C639 1.384 . S
H642 C648 0.930 . S
H643 C652 0.930 . S
H644 C657 0.929 . S
H645 C655 0.929 . S
H646 C650 0.929 . S
H647 C656 0.929 . S
C648 H642 0.930 . S
C648 C649 1.367 . S
C648 C656 1.378 . S
C649 C648 1.367 . S
C649 C657 1.433 . S
C650 H646 0.929 . S
C650 C652 1.378 . S
C650 C654 1.350 . S
C651 C654 1.463 . S
C651 C656 1.350 . S
C651 N659 1.427 . S
C652 H643 0.930 . S
C652 C650 1.378 . S
C652 C653 1.367 . S
C653 C652 1.367 . S
C653 C655 1.433 . S
C654 C650 1.350 . S
C654 C651 1.463 . S
C654 N658 1.427 . S
C655 H645 0.929 . S
C655 C653 1.433 . S
C655 N658 1.384 . S
C656 H647 0.929 . S
C656 C648 1.378 . S
C656 C651 1.350 . S
C657 H644 0.929 . S
C657 C649 1.433 . S
C657 N659 1.384 . S
N658 C654 1.427 . S
N658 C655 1.384 . S
N659 C651 1.427 . S
N659 C657 1.384 . S
H660 C666 0.930 . S
H661 C670 0.930 . S
H662 C675 0.929 . S
H663 C673 0.929 . S
H664 C668 0.929 . S
H665 C674 0.929 . S
C666 H660 0.930 . S
C666 C667 1.367 . S
C666 C674 1.378 . S
C667 C666 1.367 . S
C667 C675 1.433 . S
C668 H664 0.929 . S
C668 C670 1.378 . S
C668 C672 1.350 . S
C669 C672 1.463 . S
C669 C674 1.350 . S
C669 N677 1.427 . S
C670 H661 0.930 . S
C670 C668 1.378 . S
C670 C671 1.367 . S
C671 C670 1.367 . S
C671 C673 1.433 . S
C672 C668 1.350 . S
C672 C669 1.463 . S
C672 N676 1.427 . S
C673 H663 0.929 . S
C673 C671 1.433 . S
C673 N676 1.384 . S
C674 H665 0.929 . S
C674 C666 1.378 . S
C674 C669 1.350 . S
C675 H662 0.929 . S
C675 C667 1.433 . S
C675 N677 1.384 . S
N676 C672 1.427 . S
N676 C673 1.384 . S
N677 C669 1.427 . S
N677 C675 1.384 . S
H678 C684 0.930 . S
H679 C688 0.930 . S
H680 C693 0.929 . S
H681 C691 0.929 . S
H682 C686 0.929 . S
H683 C692 0.929 . S
C684 H678 0.930 . S
C684 C685 1.367 . S
C684 C692 1.378 . S
C685 C684 1.367 . S
C685 C693 1.433 . S
C686 H682 0.929 . S
C686 C688 1.378 . S
C686 C690 1.350 . S
C687 C690 1.463 . S
C687 C692 1.350 . S
C687 N695 1.427 . S
C688 H679 0.930 . S
C688 C686 1.378 . S
C688 C689 1.367 . S
C689 C688 1.367 . S
C689 C691 1.433 . S
C690 C686 1.350 . S
C690 C687 1.463 . S
C690 N694 1.427 . S
C691 H681 0.929 . S
C691 C689 1.433 . S
C691 N694 1.384 . S
C692 H683 0.929 . S
C692 C684 1.378 . S
C692 C687 1.350 . S
C693 H680 0.929 . S
C693 C685 1.433 . S
C693 N695 1.384 . S
N694 C690 1.427 . S
N694 C691 1.384 . S
N695 C687 1.427 . S
N695 C693 1.384 . S
H696 C702 0.930 . S
H697 C706 0.930 . S
H698 C711 0.929 . S
H699 C709 0.929 . S
H700 C704 0.929 . S
H701 C710 0.929 . S
C702 H696 0.930 . S
C702 C703 1.367 . S
C702 C710 1.378 . S
C703 C702 1.367 . S
C703 C711 1.433 . S
C704 H700 0.929 . S
C704 C706 1.378 . S
C704 C708 1.350 . S
C705 C708 1.463 . S
C705 C710 1.350 . S
C705 N713 1.427 . S
C706 H697 0.930 . S
C706 C704 1.378 . S
C706 C707 1.367 . S
C707 C706 1.367 . S
C707 C709 1.433 . S
C708 C704 1.350 . S
C708 C705 1.463 . S
C708 N712 1.427 . S
C709 H699 0.929 . S
C709 C707 1.433 . S
C709 N712 1.384 . S
C710 H701 0.929 . S
C710 C702 1.378 . S
C710 C705 1.350 . S
C711 H698 0.929 . S
C711 C703 1.433 . S
C711 N713 1.384 . S
N712 C708 1.427 . S
N712 C709 1.384 . S
N713 C705 1.427 . S
N713 C711 1.384 . S
H714 C720 0.930 . S
H715 C724 0.930 . S
H716 C729 0.929 . S
H717 C727 0.929 . S
H718 C722 0.929 . S
H719 C728 0.929 . S
C720 H714 0.930 . S
C720 C721 1.367 . S
C720 C728 1.378 . S
C721 C720 1.367 . S
C721 C729 1.433 . S
C722 H718 0.929 . S
C722 C724 1.378 . S
C722 C726 1.350 . S
C723 C726 1.463 . S
C723 C728 1.350 . S
C723 N731 1.427 . S
C724 H715 0.930 . S
C724 C722 1.378 . S
C724 C725 1.367 . S
C725 C724 1.367 . S
C725 C727 1.433 . S
C726 C722 1.350 . S
C726 C723 1.463 . S
C726 N730 1.427 . S
C727 H717 0.929 . S
C727 C725 1.433 . S
C727 N730 1.384 . S
C728 H719 0.929 . S
C728 C720 1.378 . S
C728 C723 1.350 . S
C729 H716 0.929 . S
C729 C721 1.433 . S
C729 N731 1.384 . S
N730 C726 1.427 . S
N730 C727 1.384 . S
N731 C723 1.427 . S
N731 C729 1.384 . S
H732 C738 0.930 . S
H733 C742 0.930 . S
H734 C747 0.929 . S
H735 C745 0.929 . S
H736 C740 0.929 . S
H737 C746 0.929 . S
C738 H732 0.930 . S
C738 C739 1.367 . S
C738 C746 1.378 . S
C739 C738 1.367 . S
C739 C747 1.433 . S
C740 H736 0.929 . S
C740 C742 1.378 . S
C740 C744 1.350 . S
C741 C744 1.463 . S
C741 C746 1.350 . S
C741 N749 1.427 . S
C742 H733 0.930 . S
C742 C740 1.378 . S
C742 C743 1.367 . S
C743 C742 1.367 . S
C743 C745 1.433 . S
C744 C740 1.350 . S
C744 C741 1.463 . S
C744 N748 1.427 . S
C745 H735 0.929 . S
C745 C743 1.433 . S
C745 N748 1.384 . S
C746 H737 0.929 . S
C746 C738 1.378 . S
C746 C741 1.350 . S
C747 H734 0.929 . S
C747 C739 1.433 . S
C747 N749 1.384 . S
N748 C744 1.427 . S
N748 C745 1.384 . S
N749 C741 1.427 . S
N749 C747 1.384 . S
H750 C756 0.930 . S
H751 C760 0.930 . S
H752 C765 0.929 . S
H753 C763 0.929 . S
H754 C758 0.929 . S
H755 C764 0.929 . S
C756 H750 0.930 . S
C756 C757 1.367 . S
C756 C764 1.378 . S
C757 C756 1.367 . S
C757 C765 1.433 . S
C758 H754 0.929 . S
C758 C760 1.378 . S
C758 C762 1.350 . S
C759 C762 1.463 . S
C759 C764 1.350 . S
C759 N767 1.427 . S
C760 H751 0.930 . S
C760 C758 1.378 . S
C760 C761 1.367 . S
C761 C760 1.367 . S
C761 C763 1.433 . S
C762 C758 1.350 . S
C762 C759 1.463 . S
C762 N766 1.427 . S
C763 H753 0.929 . S
C763 C761 1.433 . S
C763 N766 1.384 . S
C764 H755 0.929 . S
C764 C756 1.378 . S
C764 C759 1.350 . S
C765 H752 0.929 . S
C765 C757 1.433 . S
C765 N767 1.384 . S
N766 C762 1.427 . S
N766 C763 1.384 . S
N767 C759 1.427 . S
N767 C765 1.384 . S
H768 C774 0.930 . S
H769 C778 0.930 . S
H770 C783 0.929 . S
H771 C781 0.929 . S
H772 C776 0.929 . S
H773 C782 0.929 . S
C774 H768 0.930 . S
C774 C775 1.367 . S
C774 C782 1.378 . S
C775 C774 1.367 . S
C775 C783 1.433 . S
C776 H772 0.929 . S
C776 C778 1.378 . S
C776 C780 1.350 . S
C777 C780 1.463 . S
C777 C782 1.350 . S
C777 N785 1.427 . S
C778 H769 0.930 . S
C778 C776 1.378 . S
C778 C779 1.367 . S
C779 C778 1.367 . S
C779 C781 1.433 . S
C780 C776 1.350 . S
C780 C777 1.463 . S
C780 N784 1.427 . S
C781 H771 0.929 . S
C781 C779 1.433 . S
C781 N784 1.384 . S
C782 H773 0.929 . S
C782 C774 1.378 . S
C782 C777 1.350 . S
C783 H770 0.929 . S
C783 C775 1.433 . S
C783 N785 1.384 . S
N784 C780 1.427 . S
N784 C781 1.384 . S
N785 C777 1.427 . S
N785 C783 1.384 . S
H786 C792 0.930 . S
H787 C796 0.930 . S
H788 C801 0.929 . S
H789 C799 0.929 . S
H790 C794 0.929 . S
H791 C800 0.929 . S
C792 H786 0.930 . S
C792 C793 1.367 . S
C792 C800 1.378 . S
C793 C792 1.367 . S
C793 C801 1.433 . S
C794 H790 0.929 . S
C794 C796 1.378 . S
C794 C798 1.350 . S
C795 C798 1.463 . S
C795 C800 1.350 . S
C795 N803 1.427 . S
C796 H787 0.930 . S
C796 C794 1.378 . S
C796 C797 1.367 . S
C797 C796 1.367 . S
C797 C799 1.433 . S
C798 C794 1.350 . S
C798 C795 1.463 . S
C798 N802 1.427 . S
C799 H789 0.929 . S
C799 C797 1.433 . S
C799 N802 1.384 . S
C800 H791 0.929 . S
C800 C792 1.378 . S
C800 C795 1.350 . S
C801 H788 0.929 . S
C801 C793 1.433 . S
C801 N803 1.384 . S
N802 C798 1.427 . S
N802 C799 1.384 . S
N803 C795 1.427 . S
N803 C801 1.384 . S
H804 C810 0.930 . S
H805 C814 0.930 . S
H806 C819 0.929 . S
H807 C817 0.929 . S
H808 C812 0.929 . S
H809 C818 0.929 . S
C810 H804 0.930 . S
C810 C811 1.367 . S
C810 C818 1.378 . S
C811 C810 1.367 . S
C811 C819 1.433 . S
C812 H808 0.929 . S
C812 C814 1.378 . S
C812 C816 1.350 . S
C813 C816 1.463 . S
C813 C818 1.350 . S
C813 N821 1.427 . S
C814 H805 0.930 . S
C814 C812 1.378 . S
C814 C815 1.367 . S
C815 C814 1.367 . S
C815 C817 1.433 . S
C816 C812 1.350 . S
C816 C813 1.463 . S
C816 N820 1.427 . S
C817 H807 0.929 . S
C817 C815 1.433 . S
C817 N820 1.384 . S
C818 H809 0.929 . S
C818 C810 1.378 . S
C818 C813 1.350 . S
C819 H806 0.929 . S
C819 C811 1.433 . S
C819 N821 1.384 . S
N820 C816 1.427 . S
N820 C817 1.384 . S
N821 C813 1.427 . S
N821 C819 1.384 . S
H822 C828 0.930 . S
H823 C832 0.930 . S
H824 C837 0.929 . S
H825 C835 0.929 . S
H826 C830 0.929 . S
H827 C836 0.929 . S
C828 H822 0.930 . S
C828 C829 1.367 . S
C828 C836 1.378 . S
C829 C828 1.367 . S
C829 C837 1.433 . S
C830 H826 0.929 . S
C830 C832 1.378 . S
C830 C834 1.350 . S
C831 C834 1.463 . S
C831 C836 1.350 . S
C831 N839 1.427 . S
C832 H823 0.930 . S
C832 C830 1.378 . S
C832 C833 1.367 . S
C833 C832 1.367 . S
C833 C835 1.433 . S
C834 C830 1.350 . S
C834 C831 1.463 . S
C834 N838 1.427 . S
C835 H825 0.929 . S
C835 C833 1.433 . S
C835 N838 1.384 . S
C836 H827 0.929 . S
C836 C828 1.378 . S
C836 C831 1.350 . S
C837 H824 0.929 . S
C837 C829 1.433 . S
C837 N839 1.384 . S
N838 C834 1.427 . S
N838 C835 1.384 . S
N839 C831 1.427 . S
N839 C837 1.384 . S
H840 C846 0.930 . S
H841 C850 0.930 . S
H842 C855 0.929 . S
H843 C853 0.929 . S
H844 C848 0.929 . S
H845 C854 0.929 . S
C846 H840 0.930 . S
C846 C847 1.367 . S
C846 C854 1.378 . S
C847 C846 1.367 . S
C847 C855 1.433 . S
C848 H844 0.929 . S
C848 C850 1.378 . S
C848 C852 1.350 . S
C849 C852 1.463 . S
C849 C854 1.350 . S
C849 N857 1.427 . S
C850 H841 0.930 . S
C850 C848 1.378 . S
C850 C851 1.367 . S
C851 C850 1.367 . S
C851 C853 1.433 . S
C852 C848 1.350 . S
C852 C849 1.463 . S
C852 N856 1.427 . S
C853 H843 0.929 . S
C853 C851 1.433 . S
C853 N856 1.384 . S
C854 H845 0.929 . S
C854 C846 1.378 . S
C854 C849 1.350 . S
C855 H842 0.929 . S
C855 C847 1.433 . S
C855 N857 1.384 . S
N856 C852 1.427 . S
N856 C853 1.384 . S
N857 C849 1.427 . S
N857 C855 1.384 . S
H858 C864 0.930 . S
H859 C868 0.930 . S
H860 C873 0.929 . S
H861 C871 0.929 . S
H862 C866 0.929 . S
H863 C872 0.929 . S
C864 H858 0.930 . S
C864 C865 1.367 . S
C864 C872 1.378 . S
C865 C864 1.367 . S
C865 C873 1.433 . S
C866 H862 0.929 . S
C866 C868 1.378 . S
C866 C870 1.350 . S
C867 C870 1.463 . S
C867 C872 1.350 . S
C867 N875 1.427 . S
C868 H859 0.930 . S
C868 C866 1.378 . S
C868 C869 1.367 . S
C869 C868 1.367 . S
C869 C871 1.433 . S
C870 C866 1.350 . S
C870 C867 1.463 . S
C870 N874 1.427 . S
C871 H861 0.929 . S
C871 C869 1.433 . S
C871 N874 1.384 . S
C872 H863 0.929 . S
C872 C864 1.378 . S
C872 C867 1.350 . S
C873 H860 0.929 . S
C873 C865 1.433 . S
C873 N875 1.384 . S
N874 C870 1.427 . S
N874 C871 1.384 . S
N875 C867 1.427 . S
N875 C873 1.384 . S
H876 C882 0.930 . S
H877 C886 0.930 . S
H878 C891 0.929 . S
H879 C889 0.929 . S
H880 C884 0.929 . S
H881 C890 0.929 . S
C882 H876 0.930 . S
C882 C883 1.367 . S
C882 C890 1.378 . S
C883 C882 1.367 . S
C883 C891 1.433 . S
C884 H880 0.929 . S
C884 C886 1.378 . S
C884 C888 1.350 . S
C885 C888 1.463 . S
C885 C890 1.350 . S
C885 N893 1.427 . S
C886 H877 0.930 . S
C886 C884 1.378 . S
C886 C887 1.367 . S
C887 C886 1.367 . S
C887 C889 1.433 . S
C888 C884 1.350 . S
C888 C885 1.463 . S
C888 N892 1.427 . S
C889 H879 0.929 . S
C889 C887 1.433 . S
C889 N892 1.384 . S
C890 H881 0.929 . S
C890 C882 1.378 . S
C890 C885 1.350 . S
C891 H878 0.929 . S
C891 C883 1.433 . S
C891 N893 1.384 . S
N892 C888 1.427 . S
N892 C889 1.384 . S
N893 C885 1.427 . S
N893 C891 1.384 . S
H894 C900 0.930 . S
H895 C904 0.930 . S
H896 C909 0.929 . S
H897 C907 0.929 . S
H898 C902 0.929 . S
H899 C908 0.929 . S
C900 H894 0.930 . S
C900 C901 1.367 . S
C900 C908 1.378 . S
C901 C900 1.367 . S
C901 C909 1.433 . S
C902 H898 0.929 . S
C902 C904 1.378 . S
C902 C906 1.350 . S
C903 C906 1.463 . S
C903 C908 1.350 . S
C903 N911 1.427 . S
C904 H895 0.930 . S
C904 C902 1.378 . S
C904 C905 1.367 . S
C905 C904 1.367 . S
C905 C907 1.433 . S
C906 C902 1.350 . S
C906 C903 1.463 . S
C906 N910 1.427 . S
C907 H897 0.929 . S
C907 C905 1.433 . S
C907 N910 1.384 . S
C908 H899 0.929 . S
C908 C900 1.378 . S
C908 C903 1.350 . S
C909 H896 0.929 . S
C909 C901 1.433 . S
C909 N911 1.384 . S
N910 C906 1.427 . S
N910 C907 1.384 . S
N911 C903 1.427 . S
N911 C909 1.384 . S
H912 C918 0.930 . S
H913 C922 0.930 . S
H914 C927 0.929 . S
H915 C925 0.929 . S
H916 C920 0.929 . S
H917 C926 0.929 . S
C918 H912 0.930 . S
C918 C919 1.367 . S
C918 C926 1.378 . S
C919 C918 1.367 . S
C919 C927 1.433 . S
C920 H916 0.929 . S
C920 C922 1.378 . S
C920 C924 1.350 . S
C921 C924 1.463 . S
C921 C926 1.350 . S
C921 N929 1.427 . S
C922 H913 0.930 . S
C922 C920 1.378 . S
C922 C923 1.367 . S
C923 C922 1.367 . S
C923 C925 1.433 . S
C924 C920 1.350 . S
C924 C921 1.463 . S
C924 N928 1.427 . S
C925 H915 0.929 . S
C925 C923 1.433 . S
C925 N928 1.384 . S
C926 H917 0.929 . S
C926 C918 1.378 . S
C926 C921 1.350 . S
C927 H914 0.929 . S
C927 C919 1.433 . S
C927 N929 1.384 . S
N928 C924 1.427 . S
N928 C925 1.384 . S
N929 C921 1.427 . S
N929 C927 1.384 . S
H930 C936 0.930 . S
H931 C940 0.930 . S
H932 C945 0.929 . S
H933 C943 0.929 . S
H934 C938 0.929 . S
H935 C944 0.929 . S
C936 H930 0.930 . S
C936 C937 1.367 . S
C936 C944 1.378 . S
C937 C936 1.367 . S
C937 C945 1.433 . S
C938 H934 0.929 . S
C938 C940 1.378 . S
C938 C942 1.350 . S
C939 C942 1.463 . S
C939 C944 1.350 . S
C939 N947 1.427 . S
C940 H931 0.930 . S
C940 C938 1.378 . S
C940 C941 1.367 . S
C941 C940 1.367 . S
C941 C943 1.433 . S
C942 C938 1.350 . S
C942 C939 1.463 . S
C942 N946 1.427 . S
C943 H933 0.929 . S
C943 C941 1.433 . S
C943 N946 1.384 . S
C944 H935 0.929 . S
C944 C936 1.378 . S
C944 C939 1.350 . S
C945 H932 0.929 . S
C945 C937 1.433 . S
C945 N947 1.384 . S
N946 C942 1.427 . S
N946 C943 1.384 . S
N947 C939 1.427 . S
N947 C945 1.384 . S
H948 C954 0.930 . S
H949 C958 0.930 . S
H950 C963 0.929 . S
H951 C961 0.929 . S
H952 C956 0.929 . S
H953 C962 0.929 . S
C954 H948 0.930 . S
C954 C955 1.367 . S
C954 C962 1.378 . S
C955 C954 1.367 . S
C955 C963 1.433 . S
C956 H952 0.929 . S
C956 C958 1.378 . S
C956 C960 1.350 . S
C957 C960 1.463 . S
C957 C962 1.350 . S
C957 N965 1.427 . S
C958 H949 0.930 . S
C958 C956 1.378 . S
C958 C959 1.367 . S
C959 C958 1.367 . S
C959 C961 1.433 . S
C960 C956 1.350 . S
C960 C957 1.463 . S
C960 N964 1.427 . S
C961 H951 0.929 . S
C961 C959 1.433 . S
C961 N964 1.384 . S
C962 H953 0.929 . S
C962 C954 1.378 . S
C962 C957 1.350 . S
C963 H950 0.929 . S
C963 C955 1.433 . S
C963 N965 1.384 . S
N964 C960 1.427 . S
N964 C961 1.384 . S
N965 C957 1.427 . S
N965 C963 1.384 . S
H966 C972 0.930 . S
H967 C976 0.930 . S
H968 C981 0.929 . S
H969 C979 0.929 . S
H970 C974 0.929 . S
H971 C980 0.929 . S
C972 H966 0.930 . S
C972 C973 1.367 . S
C972 C980 1.378 . S
C973 C972 1.367 . S
C973 C981 1.433 . S
C974 H970 0.929 . S
C974 C976 1.378 . S
C974 C978 1.350 . S
C975 C978 1.463 . S
C975 C980 1.350 . S
C975 N983 1.427 . S
C976 H967 0.930 . S
C976 C974 1.378 . S
C976 C977 1.367 . S
C977 C976 1.367 . S
C977 C979 1.433 . S
C978 C974 1.350 . S
C978 C975 1.463 . S
C978 N982 1.427 . S
C979 H969 0.929 . S
C979 C977 1.433 . S
C979 N982 1.384 . S
C980 H971 0.929 . S
C980 C972 1.378 . S
C980 C975 1.350 . S
C981 H968 0.929 . S
C981 C973 1.433 . S
C981 N983 1.384 . S
N982 C978 1.427 . S
N982 C979 1.384 . S
N983 C975 1.427 . S
N983 C981 1.384 . S
H984 C990 0.930 . S
H985 C994 0.930 . S
H986 C999 0.929 . S
H987 C997 0.929 . S
H988 C992 0.929 . S
H989 C998 0.929 . S
C990 H984 0.930 . S
C990 C991 1.367 . S
C990 C998 1.378 . S
C991 C990 1.367 . S
C991 C999 1.433 . S
C992 H988 0.929 . S
C992 C994 1.378 . S
C992 C996 1.350 . S
C993 C996 1.463 . S
C993 C998 1.350 . S
C993 N1001 1.427 . S
C994 H985 0.930 . S
C994 C992 1.378 . S
C994 C995 1.367 . S
C995 C994 1.367 . S
C995 C997 1.433 . S
C996 C992 1.350 . S
C996 C993 1.463 . S
C996 N1000 1.427 . S
C997 H987 0.929 . S
C997 C995 1.433 . S
C997 N1000 1.384 . S
C998 H989 0.929 . S
C998 C990 1.378 . S
C998 C993 1.350 . S
C999 H986 0.929 . S
C999 C991 1.433 . S
C999 N1001 1.384 . S
N1000 C996 1.427 . S
N1000 C997 1.384 . S
N1001 C993 1.427 . S
N1001 C999 1.384 . S
H1002 C1008 0.930 . S
H1003 C1012 0.930 . S
H1004 C1017 0.929 . S
H1005 C1015 0.929 . S
H1006 C1010 0.929 . S
H1007 C1016 0.929 . S
C1008 H1002 0.930 . S
C1008 C1009 1.367 . S
C1008 C1016 1.378 . S
C1009 C1008 1.367 . S
C1009 C1017 1.433 . S
C1010 H1006 0.929 . S
C1010 C1012 1.378 . S
C1010 C1014 1.350 . S
C1011 C1014 1.463 . S
C1011 C1016 1.350 . S
C1011 N1019 1.427 . S
C1012 H1003 0.930 . S
C1012 C1010 1.378 . S
C1012 C1013 1.367 . S
C1013 C1012 1.367 . S
C1013 C1015 1.433 . S
C1014 C1010 1.350 . S
C1014 C1011 1.463 . S
C1014 N1018 1.427 . S
C1015 H1005 0.929 . S
C1015 C1013 1.433 . S
C1015 N1018 1.384 . S
C1016 H1007 0.929 . S
C1016 C1008 1.378 . S
C1016 C1011 1.350 . S
C1017 H1004 0.929 . S
C1017 C1009 1.433 . S
C1017 N1019 1.384 . S
N1018 C1014 1.427 . S
N1018 C1015 1.384 . S
N1019 C1011 1.427 . S
N1019 C1017 1.384 . S
H1020 C1026 0.930 . S
H1021 C1030 0.930 . S
H1022 C1035 0.929 . S
H1023 C1033 0.929 . S
H1024 C1028 0.929 . S
H1025 C1034 0.929 . S
C1026 H1020 0.930 . S
C1026 C1027 1.367 . S
C1026 C1034 1.378 . S
C1027 C1026 1.367 . S
C1027 C1035 1.433 . S
C1028 H1024 0.929 . S
C1028 C1030 1.378 . S
C1028 C1032 1.350 . S
C1029 C1032 1.463 . S
C1029 C1034 1.350 . S
C1029 N1037 1.427 . S
C1030 H1021 0.930 . S
C1030 C1028 1.378 . S
C1030 C1031 1.367 . S
C1031 C1030 1.367 . S
C1031 C1033 1.433 . S
C1032 C1028 1.350 . S
C1032 C1029 1.463 . S
C1032 N1036 1.427 . S
C1033 H1023 0.929 . S
C1033 C1031 1.433 . S
C1033 N1036 1.384 . S
C1034 H1025 0.929 . S
C1034 C1026 1.378 . S
C1034 C1029 1.350 . S
C1035 H1022 0.929 . S
C1035 C1027 1.433 . S
C1035 N1037 1.384 . S
N1036 C1032 1.427 . S
N1036 C1033 1.384 . S
N1037 C1029 1.427 . S
N1037 C1035 1.384 . S
H1038 C1044 0.930 . S
H1039 C1048 0.930 . S
H1040 C1053 0.929 . S
H1041 C1051 0.929 . S
H1042 C1046 0.929 . S
H1043 C1052 0.929 . S
C1044 H1038 0.930 . S
C1044 C1045 1.367 . S
C1044 C1052 1.378 . S
C1045 C1044 1.367 . S
C1045 C1053 1.433 . S
C1046 H1042 0.929 . S
C1046 C1048 1.378 . S
C1046 C1050 1.350 . S
C1047 C1050 1.463 . S
C1047 C1052 1.350 . S
C1047 N1055 1.427 . S
C1048 H1039 0.930 . S
C1048 C1046 1.378 . S
C1048 C1049 1.367 . S
C1049 C1048 1.367 . S
C1049 C1051 1.433 . S
C1050 C1046 1.350 . S
C1050 C1047 1.463 . S
C1050 N1054 1.427 . S
C1051 H1041 0.929 . S
C1051 C1049 1.433 . S
C1051 N1054 1.384 . S
C1052 H1043 0.929 . S
C1052 C1044 1.378 . S
C1052 C1047 1.350 . S
C1053 H1040 0.929 . S
C1053 C1045 1.433 . S
C1053 N1055 1.384 . S
N1054 C1050 1.427 . S
N1054 C1051 1.384 . S
N1055 C1047 1.427 . S
N1055 C1053 1.384 . S
H1056 C1062 0.930 . S
H1057 C1066 0.930 . S
H1058 C1071 0.929 . S
H1059 C1069 0.929 . S
H1060 C1064 0.929 . S
H1061 C1070 0.929 . S
C1062 H1056 0.930 . S
C1062 C1063 1.367 . S
C1062 C1070 1.378 . S
C1063 C1062 1.367 . S
C1063 C1071 1.433 . S
C1064 H1060 0.929 . S
C1064 C1066 1.378 . S
C1064 C1068 1.350 . S
C1065 C1068 1.463 . S
C1065 C1070 1.350 . S
C1065 N1073 1.427 . S
C1066 H1057 0.930 . S
C1066 C1064 1.378 . S
C1066 C1067 1.367 . S
C1067 C1066 1.367 . S
C1067 C1069 1.433 . S
C1068 C1064 1.350 . S
C1068 C1065 1.463 . S
C1068 N1072 1.427 . S
C1069 H1059 0.929 . S
C1069 C1067 1.433 . S
C1069 N1072 1.384 . S
C1070 H1061 0.929 . S
C1070 C1062 1.378 . S
C1070 C1065 1.350 . S
C1071 H1058 0.929 . S
C1071 C1063 1.433 . S
C1071 N1073 1.384 . S
N1072 C1068 1.427 . S
N1072 C1069 1.384 . S
N1073 C1065 1.427 . S
N1073 C1071 1.384 . S
H1074 C1080 0.930 . S
H1075 C1084 0.930 . S
H1076 C1089 0.929 . S
H1077 C1087 0.929 . S
H1078 C1082 0.929 . S
H1079 C1088 0.929 . S
C1080 H1074 0.930 . S
C1080 C1081 1.367 . S
C1080 C1088 1.378 . S
C1081 C1080 1.367 . S
C1081 C1089 1.433 . S
C1082 H1078 0.929 . S
C1082 C1084 1.378 . S
C1082 C1086 1.350 . S
C1083 C1086 1.463 . S
C1083 C1088 1.350 . S
C1083 N1091 1.427 . S
C1084 H1075 0.930 . S
C1084 C1082 1.378 . S
C1084 C1085 1.367 . S
C1085 C1084 1.367 . S
C1085 C1087 1.433 . S
C1086 C1082 1.350 . S
C1086 C1083 1.463 . S
C1086 N1090 1.427 . S
C1087 H1077 0.929 . S
C1087 C1085 1.433 . S
C1087 N1090 1.384 . S
C1088 H1079 0.929 . S
C1088 C1080 1.378 . S
C1088 C1083 1.350 . S
C1089 H1076 0.929 . S
C1089 C1081 1.433 . S
C1089 N1091 1.384 . S
N1090 C1086 1.427 . S
N1090 C1087 1.384 . S
N1091 C1083 1.427 . S
N1091 C1089 1.384 . S
H1092 C1098 0.930 . S
H1093 C1102 0.930 . S
H1094 C1107 0.929 . S
H1095 C1105 0.929 . S
H1096 C1100 0.929 . S
H1097 C1106 0.929 . S
C1098 H1092 0.930 . S
C1098 C1099 1.367 . S
C1098 C1106 1.378 . S
C1099 C1098 1.367 . S
C1099 C1107 1.433 . S
C1100 H1096 0.929 . S
C1100 C1102 1.378 . S
C1100 C1104 1.350 . S
C1101 C1104 1.463 . S
C1101 C1106 1.350 . S
C1101 N1109 1.427 . S
C1102 H1093 0.930 . S
C1102 C1100 1.378 . S
C1102 C1103 1.367 . S
C1103 C1102 1.367 . S
C1103 C1105 1.433 . S
C1104 C1100 1.350 . S
C1104 C1101 1.463 . S
C1104 N1108 1.427 . S
C1105 H1095 0.929 . S
C1105 C1103 1.433 . S
C1105 N1108 1.384 . S
C1106 H1097 0.929 . S
C1106 C1098 1.378 . S
C1106 C1101 1.350 . S
C1107 H1094 0.929 . S
C1107 C1099 1.433 . S
C1107 N1109 1.384 . S
N1108 C1104 1.427 . S
N1108 C1105 1.384 . S
N1109 C1101 1.427 . S
N1109 C1107 1.384 . S
H1110 C1116 0.930 . S
H1111 C1120 0.930 . S
H1112 C1125 0.929 . S
H1113 C1123 0.929 . S
H1114 C1118 0.929 . S
H1115 C1124 0.929 . S
C1116 H1110 0.930 . S
C1116 C1117 1.367 . S
C1116 C1124 1.378 . S
C1117 C1116 1.367 . S
C1117 C1125 1.433 . S
C1118 H1114 0.929 . S
C1118 C1120 1.378 . S
C1118 C1122 1.350 . S
C1119 C1122 1.463 . S
C1119 C1124 1.350 . S
C1119 N1127 1.427 . S
C1120 H1111 0.930 . S
C1120 C1118 1.378 . S
C1120 C1121 1.367 . S
C1121 C1120 1.367 . S
C1121 C1123 1.433 . S
C1122 C1118 1.350 . S
C1122 C1119 1.463 . S
C1122 N1126 1.427 . S
C1123 H1113 0.929 . S
C1123 C1121 1.433 . S
C1123 N1126 1.384 . S
C1124 H1115 0.929 . S
C1124 C1116 1.378 . S
C1124 C1119 1.350 . S
C1125 H1112 0.929 . S
C1125 C1117 1.433 . S
C1125 N1127 1.384 . S
N1126 C1122 1.427 . S
N1126 C1123 1.384 . S
N1127 C1119 1.427 . S
N1127 C1125 1.384 . S
H1128 C1134 0.930 . S
H1129 C1138 0.930 . S
H1130 C1143 0.929 . S
H1131 C1141 0.929 . S
H1132 C1136 0.929 . S
H1133 C1142 0.929 . S
C1134 H1128 0.930 . S
C1134 C1135 1.367 . S
C1134 C1142 1.378 . S
C1135 C1134 1.367 . S
C1135 C1143 1.433 . S
C1136 H1132 0.929 . S
C1136 C1138 1.378 . S
C1136 C1140 1.350 . S
C1137 C1140 1.463 . S
C1137 C1142 1.350 . S
C1137 N1145 1.427 . S
C1138 H1129 0.930 . S
C1138 C1136 1.378 . S
C1138 C1139 1.367 . S
C1139 C1138 1.367 . S
C1139 C1141 1.433 . S
C1140 C1136 1.350 . S
C1140 C1137 1.463 . S
C1140 N1144 1.427 . S
C1141 H1131 0.929 . S
C1141 C1139 1.433 . S
C1141 N1144 1.384 . S
C1142 H1133 0.929 . S
C1142 C1134 1.378 . S
C1142 C1137 1.350 . S
C1143 H1130 0.929 . S
C1143 C1135 1.433 . S
C1143 N1145 1.384 . S
N1144 C1140 1.427 . S
N1144 C1141 1.384 . S
N1145 C1137 1.427 . S
N1145 C1143 1.384 . S
H1146 C1152 0.930 . S
H1147 C1156 0.930 . S
H1148 C1161 0.929 . S
H1149 C1159 0.929 . S
H1150 C1154 0.929 . S
H1151 C1160 0.929 . S
C1152 H1146 0.930 . S
C1152 C1153 1.367 . S
C1152 C1160 1.378 . S
C1153 C1152 1.367 . S
C1153 C1161 1.433 . S
C1154 H1150 0.929 . S
C1154 C1156 1.378 . S
C1154 C1158 1.350 . S
C1155 C1158 1.463 . S
C1155 C1160 1.350 . S
C1155 N1163 1.427 . S
C1156 H1147 0.930 . S
C1156 C1154 1.378 . S
C1156 C1157 1.367 . S
C1157 C1156 1.367 . S
C1157 C1159 1.433 . S
C1158 C1154 1.350 . S
C1158 C1155 1.463 . S
C1158 N1162 1.427 . S
C1159 H1149 0.929 . S
C1159 C1157 1.433 . S
C1159 N1162 1.384 . S
C1160 H1151 0.929 . S
C1160 C1152 1.378 . S
C1160 C1155 1.350 . S
C1161 H1148 0.929 . S
C1161 C1153 1.433 . S
C1161 N1163 1.384 . S
N1162 C1158 1.427 . S
N1162 C1159 1.384 . S
N1163 C1155 1.427 . S
N1163 C1161 1.384 . S
H1164 C1170 0.930 . S
H1165 C1174 0.930 . S
H1166 C1179 0.929 . S
H1167 C1177 0.929 . S
H1168 C1172 0.929 . S
H1169 C1178 0.929 . S
C1170 H1164 0.930 . S
C1170 C1171 1.367 . S
C1170 C1178 1.378 . S
C1171 C1170 1.367 . S
C1171 C1179 1.433 . S
C1172 H1168 0.929 . S
C1172 C1174 1.378 . S
C1172 C1176 1.350 . S
C1173 C1176 1.463 . S
C1173 C1178 1.350 . S
C1173 N1181 1.427 . S
C1174 H1165 0.930 . S
C1174 C1172 1.378 . S
C1174 C1175 1.367 . S
C1175 C1174 1.367 . S
C1175 C1177 1.433 . S
C1176 C1172 1.350 . S
C1176 C1173 1.463 . S
C1176 N1180 1.427 . S
C1177 H1167 0.929 . S
C1177 C1175 1.433 . S
C1177 N1180 1.384 . S
C1178 H1169 0.929 . S
C1178 C1170 1.378 . S
C1178 C1173 1.350 . S
C1179 H1166 0.929 . S
C1179 C1171 1.433 . S
C1179 N1181 1.384 . S
N1180 C1176 1.427 . S
N1180 C1177 1.384 . S
N1181 C1173 1.427 . S
N1181 C1179 1.384 . S
H1182 C1188 0.930 . S
H1183 C1192 0.930 . S
H1184 C1197 0.929 . S
H1185 C1195 0.929 . S
H1186 C1190 0.929 . S
H1187 C1196 0.929 . S
C1188 H1182 0.930 . S
C1188 C1189 1.367 . S
C1188 C1196 1.378 . S
C1189 C1188 1.367 . S
C1189 C1197 1.433 . S
C1190 H1186 0.929 . S
C1190 C1192 1.378 . S
C1190 C1194 1.350 . S
C1191 C1194 1.463 . S
C1191 C1196 1.350 . S
C1191 N1199 1.427 . S
C1192 H1183 0.930 . S
C1192 C1190 1.378 . S
C1192 C1193 1.367 . S
C1193 C1192 1.367 . S
C1193 C1195 1.433 . S
C1194 C1190 1.350 . S
C1194 C1191 1.463 . S
C1194 N1198 1.427 . S
C1195 H1185 0.929 . S
C1195 C1193 1.433 . S
C1195 N1198 1.384 . S
C1196 H1187 0.929 . S
C1196 C1188 1.378 . S
C1196 C1191 1.350 . S
C1197 H1184 0.929 . S
C1197 C1189 1.433 . S
C1197 N1199 1.384 . S
N1198 C1194 1.427 . S
N1198 C1195 1.384 . S
N1199 C1191 1.427 . S
N1199 C1197 1.384 . S
H1200 C1206 0.930 . S
H1201 C1210 0.930 . S
H1202 C1215 0.929 . S
H1203 C1213 0.929 . S
H1204 C1208 0.929 . S
H1205 C1214 0.929 . S
C1206 H1200 0.930 . S
C1206 C1207 1.367 . S
C1206 C1214 1.378 . S
C1207 C1206 1.367 . S
C1207 C1215 1.433 . S
C1208 H1204 0.929 . S
C1208 C1210 1.378 . S
C1208 C1212 1.350 . S
C1209 C1212 1.463 . S
C1209 C1214 1.350 . S
C1209 N1217 1.427 . S
C1210 H1201 0.930 . S
C1210 C1208 1.378 . S
C1210 C1211 1.367 . S
C1211 C1210 1.367 . S
C1211 C1213 1.433 . S
C1212 C1208 1.350 . S
C1212 C1209 1.463 . S
C1212 N1216 1.427 . S
C1213 H1203 0.929 . S
C1213 C1211 1.433 . S
C1213 N1216 1.384 . S
C1214 H1205 0.929 . S
C1214 C1206 1.378 . S
C1214 C1209 1.350 . S
C1215 H1202 0.929 . S
C1215 C1207 1.433 . S
C1215 N1217 1.384 . S
N1216 C1212 1.427 . S
N1216 C1213 1.384 . S
N1217 C1209 1.427 . S
N1217 C1215 1.384 . S
H1218 C1224 0.930 . S
H1219 C1228 0.930 . S
H1220 C1233 0.929 . S
H1221 C1231 0.929 . S
H1222 C1226 0.929 . S
H1223 C1232 0.929 . S
C1224 H1218 0.930 . S
C1224 C1225 1.367 . S
C1224 C1232 1.378 . S
C1225 C1224 1.367 . S
C1225 C1233 1.433 . S
C1226 H1222 0.929 . S
C1226 C1228 1.378 . S
C1226 C1230 1.350 . S
C1227 C1230 1.463 . S
C1227 C1232 1.350 . S
C1227 N1235 1.427 . S
C1228 H1219 0.930 . S
C1228 C1226 1.378 . S
C1228 C1229 1.367 . S
C1229 C1228 1.367 . S
C1229 C1231 1.433 . S
C1230 C1226 1.350 . S
C1230 C1227 1.463 . S
C1230 N1234 1.427 . S
C1231 H1221 0.929 . S
C1231 C1229 1.433 . S
C1231 N1234 1.384 . S
C1232 H1223 0.929 . S
C1232 C1224 1.378 . S
C1232 C1227 1.350 . S
C1233 H1220 0.929 . S
C1233 C1225 1.433 . S
C1233 N1235 1.384 . S
N1234 C1230 1.427 . S
N1234 C1231 1.384 . S
N1235 C1227 1.427 . S
N1235 C1233 1.384 . S
H1236 C1242 0.930 . S
H1237 C1246 0.930 . S
H1238 C1251 0.929 . S
H1239 C1249 0.929 . S
H1240 C1244 0.929 . S
H1241 C1250 0.929 . S
C1242 H1236 0.930 . S
C1242 C1243 1.367 . S
C1242 C1250 1.378 . S
C1243 C1242 1.367 . S
C1243 C1251 1.433 . S
C1244 H1240 0.929 . S
C1244 C1246 1.378 . S
C1244 C1248 1.350 . S
C1245 C1248 1.463 . S
C1245 C1250 1.350 . S
C1245 N1253 1.427 . S
C1246 H1237 0.930 . S
C1246 C1244 1.378 . S
C1246 C1247 1.367 . S
C1247 C1246 1.367 . S
C1247 C1249 1.433 . S
C1248 C1244 1.350 . S
C1248 C1245 1.463 . S
C1248 N1252 1.427 . S
C1249 H1239 0.929 . S
C1249 C1247 1.433 . S
C1249 N1252 1.384 . S
C1250 H1241 0.929 . S
C1250 C1242 1.378 . S
C1250 C1245 1.350 . S
C1251 H1238 0.929 . S
C1251 C1243 1.433 . S
C1251 N1253 1.384 . S
N1252 C1248 1.427 . S
N1252 C1249 1.384 . S
N1253 C1245 1.427 . S
N1253 C1251 1.384 . S
H1254 C1260 0.930 . S
H1255 C1264 0.930 . S
H1256 C1269 0.929 . S
H1257 C1267 0.929 . S
H1258 C1262 0.929 . S
H1259 C1268 0.929 . S
C1260 H1254 0.930 . S
C1260 C1261 1.367 . S
C1260 C1268 1.378 . S
C1261 C1260 1.367 . S
C1261 C1269 1.433 . S
C1262 H1258 0.929 . S
C1262 C1264 1.378 . S
C1262 C1266 1.350 . S
C1263 C1266 1.463 . S
C1263 C1268 1.350 . S
C1263 N1271 1.427 . S
C1264 H1255 0.930 . S
C1264 C1262 1.378 . S
C1264 C1265 1.367 . S
C1265 C1264 1.367 . S
C1265 C1267 1.433 . S
C1266 C1262 1.350 . S
C1266 C1263 1.463 . S
C1266 N1270 1.427 . S
C1267 H1257 0.929 . S
C1267 C1265 1.433 . S
C1267 N1270 1.384 . S
C1268 H1259 0.929 . S
C1268 C1260 1.378 . S
C1268 C1263 1.350 . S
C1269 H1256 0.929 . S
C1269 C1261 1.433 . S
C1269 N1271 1.384 . S
N1270 C1266 1.427 . S
N1270 C1267 1.384 . S
N1271 C1263 1.427 . S
N1271 C1269 1.384 . S
H1272 C1278 0.930 . S
H1273 C1282 0.930 . S
H1274 C1287 0.929 . S
H1275 C1285 0.929 . S
H1276 C1280 0.929 . S
H1277 C1286 0.929 . S
C1278 H1272 0.930 . S
C1278 C1279 1.367 . S
C1278 C1286 1.378 . S
C1279 C1278 1.367 . S
C1279 C1287 1.433 . S
C1280 H1276 0.929 . S
C1280 C1282 1.378 . S
C1280 C1284 1.350 . S
C1281 C1284 1.463 . S
C1281 C1286 1.350 . S
C1281 N1289 1.427 . S
C1282 H1273 0.930 . S
C1282 C1280 1.378 . S
C1282 C1283 1.367 . S
C1283 C1282 1.367 . S
C1283 C1285 1.433 . S
C1284 C1280 1.350 . S
C1284 C1281 1.463 . S
C1284 N1288 1.427 . S
C1285 H1275 0.929 . S
C1285 C1283 1.433 . S
C1285 N1288 1.384 . S
C1286 H1277 0.929 . S
C1286 C1278 1.378 . S
C1286 C1281 1.350 . S
C1287 H1274 0.929 . S
C1287 C1279 1.433 . S
C1287 N1289 1.384 . S
N1288 C1284 1.427 . S
N1288 C1285 1.384 . S
N1289 C1281 1.427 . S
N1289 C1287 1.384 . S
C437 C251 0.988 . S
C433 N6 0.939 . S
C455 C241 2.025 . S
C451 C57 2.036 . S
C473 C242 0.987 . S
C469 C61 1.019 . S
C487 N96 0.682 . S
C491 C264 0.663 . S
C505 C136 2.034 . S
C509 C267 2.028 . S
C527 C250 1.004 . S
C523 C160 1.010 . S
C541 N194 0.663 . S
C545 C240 0.647 . S
C559 N224 0.950 . S
C563 C258 0.979 . S
C581 C271 1.908 . S
C577 C10 1.951 . S
C595 N36 0.853 . S
C599 C320 0.865 . S
C617 C298 0.740 . S
C613 N74 0.724 . S
C635 C312 0.966 . S
C631 C100 1.009 . S
C649 C121 1.001 . S
C653 C273 0.985 . S
C671 C326 1.866 . S
C667 C177 1.910 . S
C685 C196 2.261 . S
C689 C282 2.184 . S
C703 C226 2.040 . S
C707 C303 2.013 . S
C721 C27 2.034 . S
C725 C329 2.004 . S
C739 N134 0.853 . S
C743 C313 0.860 . S
C761 C272 0.754 . S
C757 N156 0.752 . S
C779 C304 0.980 . S
C775 C181 1.012 . S
C793 C211 1.954 . S
C797 C295 1.909 . S
C811 C76 1.911 . S
C815 C302 1.866 . S
C833 C289 2.177 . S
C829 C117 2.259 . S
C847 C40 1.005 . S
C851 C281 0.964 . S
C865 N216 0.935 . S
C869 C344 0.969 . S
C883 C147 2.038 . S
C887 C334 2.025 . S
C905 C335 0.999 . S
C901 C151 1.015 . S
C923 C357 0.647 . S
C919 N186 0.701 . S
C937 C46 2.031 . S
C941 C360 2.032 . S
C959 C343 1.002 . S
C955 C70 1.010 . S
C973 N104 0.684 . S
C977 C333 0.642 . S
C991 N14 0.950 . S
C995 C351 0.978 . S
C1009 C220 1.953 . S
C1013 C364 1.918 . S
C1031 C413 0.887 . S
C1027 N126 0.879 . S
C1045 N164 0.724 . S
C1049 C391 0.732 . S
C1063 C190 1.007 . S
C1067 C405 0.971 . S
C1085 C366 0.981 . S
C1081 C31 1.006 . S
C1099 C87 1.917 . S
C1103 C419 1.878 . S
C1121 C375 2.184 . S
C1117 C106 2.260 . S
C1139 C396 2.009 . S
C1135 C16 2.034 . S
C1157 C422 2.010 . S
C1153 C237 2.038 . S
C1171 N44 0.880 . S
C1175 C406 0.877 . S
C1189 N66 0.727 . S
C1193 C365 0.729 . S
C1211 C397 0.959 . S
C1207 C91 1.006 . S
C1225 C1 1.951 . S
C1229 C388 1.915 . S
C1243 C166 1.915 . S
C1247 C395 1.867 . S
C1265 C382 2.174 . S
C1261 C207 2.256 . S
C1283 C374 0.976 . S
C1279 C130 1.000 . S
