# Generated by pormake.
# Topology zzz, (3,6)-cn, num edge types: 1
# Building blocks:
#     Node 0, Type 0, BuildingBlock: OLANEW_clean_sbu_2, # of connection points: 3
#     Node 1, Type 0, BuildingBlock: OLANEW_clean_sbu_2, # of connection points: 3
#     Node 2, Type 0, BuildingBlock: OLANEW_clean_sbu_2, # of connection points: 3
#     Node 3, Type 0, BuildingBlock: OLANEW_clean_sbu_2, # of connection points: 3
#     Node 4, Type 0, BuildingBlock: OLANEW_clean_sbu_2, # of connection points: 3
#     Node 5, Type 0, BuildingBlock: OLANEW_clean_sbu_2, # of connection points: 3
#     Node 6, Type 0, BuildingBlock: OLANEW_clean_sbu_2, # of connection points: 3
#     Node 7, Type 0, BuildingBlock: OLANEW_clean_sbu_2, # of connection points: 3
#     Node 8, Type 1, BuildingBlock: CUWYAW_clean_sbu_0, # of connection points: 6
#     Node 9, Type 1, BuildingBlock: CUWYAW_clean_sbu_0, # of connection points: 6
#     Node 10, Type 1, BuildingBlock: CUWYAW_clean_sbu_0, # of connection points: 6
#     Node 11, Type 1, BuildingBlock: CUWYAW_clean_sbu_0, # of connection points: 6
#     Edge 12, Type (0, 1), BuildingBlock: UVAHIK_clean_linker_0, # of connection points: 2
#     Edge 13, Type (0, 1), BuildingBlock: UVAHIK_clean_linker_0, # of connection points: 2
#     Edge 14, Type (0, 1), BuildingBlock: UVAHIK_clean_linker_0, # of connection points: 2
#     Edge 15, Type (0, 1), BuildingBlock: UVAHIK_clean_linker_0, # of connection points: 2
#     Edge 16, Type (0, 1), BuildingBlock: UVAHIK_clean_linker_0, # of connection points: 2
#     Edge 17, Type (0, 1), BuildingBlock: UVAHIK_clean_linker_0, # of connection points: 2
#     Edge 18, Type (0, 1), BuildingBlock: UVAHIK_clean_linker_0, # of connection points: 2
#     Edge 19, Type (0, 1), BuildingBlock: UVAHIK_clean_linker_0, # of connection points: 2
#     Edge 20, Type (0, 1), BuildingBlock: UVAHIK_clean_linker_0, # of connection points: 2
#     Edge 21, Type (0, 1), BuildingBlock: UVAHIK_clean_linker_0, # of connection points: 2
#     Edge 22, Type (0, 1), BuildingBlock: UVAHIK_clean_linker_0, # of connection points: 2
#     Edge 23, Type (0, 1), BuildingBlock: UVAHIK_clean_linker_0, # of connection points: 2
#     Edge 24, Type (0, 1), BuildingBlock: UVAHIK_clean_linker_0, # of connection points: 2
#     Edge 25, Type (0, 1), BuildingBlock: UVAHIK_clean_linker_0, # of connection points: 2
#     Edge 26, Type (0, 1), BuildingBlock: UVAHIK_clean_linker_0, # of connection points: 2
#     Edge 27, Type (0, 1), BuildingBlock: UVAHIK_clean_linker_0, # of connection points: 2
#     Edge 28, Type (0, 1), BuildingBlock: UVAHIK_clean_linker_0, # of connection points: 2
#     Edge 29, Type (0, 1), BuildingBlock: UVAHIK_clean_linker_0, # of connection points: 2
#     Edge 30, Type (0, 1), BuildingBlock: UVAHIK_clean_linker_0, # of connection points: 2
#     Edge 31, Type (0, 1), BuildingBlock: UVAHIK_clean_linker_0, # of connection points: 2
#     Edge 32, Type (0, 1), BuildingBlock: UVAHIK_clean_linker_0, # of connection points: 2
#     Edge 33, Type (0, 1), BuildingBlock: UVAHIK_clean_linker_0, # of connection points: 2
#     Edge 34, Type (0, 1), BuildingBlock: UVAHIK_clean_linker_0, # of connection points: 2
#     Edge 35, Type (0, 1), BuildingBlock: UVAHIK_clean_linker_0, # of connection points: 2
# Relax obj value: 0.202
# Max RMSD: 0.152
# Mean RMSD: 0.143
data_MOF--net-zzz--node1-OLANEW_clean_sbu_2--node2-CUWYAW_clean_sbu_0--edge1-UVAHIK_clean_linker_0
_symmetry_space_group_name_H-M    P1
_symmetry_Int_Tables_number       1
_symmetry_cell_setting            triclinic
loop_
_symmetry_equiv_pos_as_xyz
'x, y, z'
_cell_length_a     70.746658
_cell_length_b     71.133348
_cell_length_c     20.263944
_cell_angle_alpha  90.001511
_cell_angle_beta   90.076747
_cell_angle_gamma 90.044056
loop_
_atom_site_label
_atom_site_type_symbol
_atom_site_fract_x
_atom_site_fract_y
_atom_site_fract_z
_atom_type_partial_charge
O0 O 0.74054 0.54078 0.26167 0.0
Cd1 Cd 0.70871 0.54799 0.30117 0.0
O2 O 0.74112 0.51458 0.31838 0.0
Cd3 Cd 0.75307 0.48852 0.35788 0.0
O4 O 0.75648 0.45873 0.39767 0.0
C5 C 0.76953 0.45324 0.43699 0.0
O6 O 0.75597 0.45816 0.39699 0.0
C7 C 0.74917 0.52589 0.27874 0.0
C8 C 0.68102 0.53922 0.20771 0.0
O9 O 0.68977 0.55499 0.2062 0.0
O10 O 0.68536 0.52753 0.25343 0.0
O11 O 0.97644 0.71837 0.18863 0.0
Cd12 Cd 0.9746 0.6905 0.25854 0.0
O13 O 0.00177 0.72433 0.24682 0.0
Cd14 Cd 0.02202 0.74429 0.28721 0.0
O15 O 0.02445 0.77071 0.3402 0.0
C16 C 0.01217 0.78287 0.32398 0.0
O17 O 4e-05 0.7788 0.27701 0.0
C18 C 0.9903 0.7291 0.20148 0.0
C19 C 0.984 0.65842 0.188 0.0
O20 O 0.96672 0.6635 0.19463 0.0
O21 O 0.99685 0.66847 0.21537 0.0
O22 O 0.76717 0.95921 0.21847 0.0
Cd23 Cd 0.79813 0.95217 0.26578 0.0
O24 O 0.76716 0.9868 0.26695 0.0
Cd25 Cd 0.75104 0.01076 0.30308 0.0
O26 O 0.72394 0.01616 0.34967 0.0
C27 C 0.71641 0.00131 0.37257 0.0
O28 O 0.72555 0.98532 0.36667 0.0
C29 C 0.75892 0.97465 0.23089 0.0
C30 C 0.82744 0.96069 0.17938 0.0
O31 O 0.81873 0.94491 0.17621 0.0
O32 O 0.82228 0.97252 0.22356 0.0
O33 O 0.53683 0.77045 0.22837 0.0
Cd34 Cd 0.53941 0.7994 0.29211 0.0
O35 O 0.51224 0.76543 0.29117 0.0
Cd36 Cd 0.4886 0.74888 0.32811 0.0
O37 O 0.47891 0.72388 0.37907 0.0
C38 C 0.47359 0.70961 0.34628 0.0
O39 O 0.47195 0.711 0.28186 0.0
C40 C 0.52329 0.75986 0.24571 0.0
C41 C 0.52648 0.82981 0.2192 0.0
O42 O 0.54411 0.82566 0.22107 0.0
O43 O 0.51496 0.81963 0.25242 0.0
O44 O 0.26814 0.535 0.14643 0.0
Cd45 Cd 0.29983 0.53597 0.09935 0.0
O46 O 0.26209 0.511 0.08216 0.0
Cd47 Cd 0.2432 0.49109 0.03337 0.0
O48 O 0.21825 0.47878 0.98781 0.0
C49 C 0.21747 0.47641 0.92575 0.0
O50 O 0.23233 0.4806 0.88977 0.0
C51 C 0.25664 0.52256 0.12615 0.0
C52 C 0.32663 0.52479 0.19188 0.0
O53 O 0.32139 0.54199 0.18743 0.0
O54 O 0.31927 0.51284 0.15204 0.0
O55 O 0.96939 0.26168 0.06089 0.0
Cd56 Cd 0.96625 0.29177 0.00513 0.0
O57 O 8e-05 0.26572 0.05841 0.0
Cd58 Cd 0.0287 0.25435 0.05944 0.0
O59 O 0.03812 0.22845 0.01357 0.0
C60 C 0.02612 0.22289 0.97115 0.0
O61 O 0.01125 0.23343 0.95945 0.0
C62 C 0.98586 0.25569 0.07417 0.0
C63 C 0.97299 0.32016 0.09594 0.0
O64 O 0.9563 0.31365 0.08667 0.0
O65 O 0.9865 0.31347 0.06105 0.0
O66 O 0.23373 0.96837 0.07572 0.0
Cd67 Cd 0.20134 0.96853 0.0341 0.0
O68 O 0.23957 0.99542 0.02846 0.0
Cd69 Cd 0.25454 0.02179 0.00827 0.0
O70 O 0.25756 0.05287 0.98217 0.0
C71 C 0.27008 0.06004 0.94414 0.0
O72 O 0.25707 0.05339 0.98317 0.0
C73 C 0.24508 0.98183 0.06446 0.0
C74 C 0.17618 0.97524 0.13749 0.0
O75 O 0.18164 0.95853 0.1235 0.0
O76 O 0.18247 0.9888 0.10208 0.0
O77 O 0.52889 0.22265 0.11978 0.0
Cd78 Cd 0.52983 0.1904 0.08055 0.0
O79 O 0.49857 0.2228 0.09762 0.0
Cd80 Cd 0.47232 0.23789 0.07865 0.0
O81 O 0.46612 0.26478 0.03307 0.0
C82 C 0.48043 0.2711 0.00247 0.0
O83 O 0.49581 0.26078 0.00029 0.0
C84 C 0.51317 0.23124 0.11952 0.0
C85 C 0.51567 0.16758 0.17996 0.0
O86 O 0.53327 0.1718 0.17732 0.0
O87 O 0.50477 0.17382 0.13438 0.0
C88 C 0.99874 0.0229 0.50267 0.0
Eu89 Eu 0.00074 0.00593 0.61653 0.0
C90 C 0.99863 0.04211 0.47434 0.0
C91 C 0.98181 0.05257 0.47034 0.0
C92 C 0.9816 0.07019 0.43972 0.0
C93 C 0.99819 0.07773 0.41209 0.0
C94 C 0.01504 0.06734 0.41668 0.0
C95 C 0.01524 0.04971 0.44721 0.0
C96 C 0.97295 0.00169 0.7062 0.0
C97 C 0.01678 0.03424 0.73188 0.0
C98 C 0.01423 0.97279 0.86462 0.0
Eu99 Eu 0.01317 0.99018 0.75156 0.0
C100 C 0.01292 0.95327 0.88842 0.0
C101 C 0.02082 0.93828 0.85272 0.0
C102 C 0.01909 0.91982 0.8759 0.0
C103 C 0.00926 0.91602 0.93471 0.0
C104 C 0.00127 0.93107 0.96996 0.0
C105 C 0.00313 0.94952 0.94706 0.0
C106 C 0.04082 0.99362 0.66009 0.0
C107 C 0.99767 0.96169 0.6365 0.0
O108 O 0.01461 0.01702 0.52884 0.0
O109 O 0.98389 0.01756 0.53632 0.0
O110 O 0.97056 -0.00124 0.64353 0.0
O111 O 0.98936 0.00769 0.71789 0.0
O112 O 0.01381 0.03129 0.66812 0.0
O113 O 0.01494 0.02076 0.77615 0.0
O114 O 0.99875 0.9798 0.83931 0.0
O115 O 0.02938 0.97739 0.8312 0.0
O116 O 0.04366 0.99637 0.72275 0.0
O117 O 0.02419 0.98812 0.65007 0.0
O118 O 0.0004 0.96474 0.70025 0.0
O119 O -0.00053 0.9752 0.59217 0.0
H120 H 0.96869 0.04704 0.48986 0.0
H121 H 0.96832 0.07767 0.4362 0.0
H122 H 0.02811 0.07281 0.39662 0.0
H123 H 0.02839 0.04193 0.44888 0.0
H124 H 0.02822 0.94082 0.8068 0.0
H125 H 0.02519 0.90849 0.84728 0.0
H126 H 0.99375 0.92861 0.01568 0.0
H127 H 0.99686 0.96088 0.9751 0.0
C128 C 0.47487 0.98838 0.51273 0.0
Eu129 Eu 0.48484 0.99389 0.6348 0.0
C130 C 0.45755 0.98359 0.47676 0.0
C131 C 0.45831 0.98052 0.40857 0.0
C132 C 0.44164 0.97816 0.37239 0.0
C133 C 0.42395 0.97891 0.40393 0.0
C134 C 0.42335 0.98138 0.47283 0.0
C135 C 0.44002 0.98369 0.50894 0.0
C136 C 0.48587 0.96864 0.73427 0.0
C137 C 0.4551 0.00537 0.74647 0.0
C138 C 0.51692 0.0134 0.88211 0.0
Eu139 Eu 0.49972 0.00864 0.76989 0.0
C140 C 0.53587 0.00946 0.90941 0.0
C141 C 0.55232 0.01452 0.87485 0.0
C142 C 0.57015 0.01138 0.90247 0.0
C143 C 0.57192 0.00302 0.96505 0.0
C144 C 0.55545 -0.00241 -0.00108 0.0
C145 C 0.53759 0.00084 0.97139 0.0
C146 C 0.48822 0.03509 0.6827 0.0
C147 C 0.5302 -0.00211 0.65561 0.0
O148 O 0.47466 0.00485 0.54161 0.0
O149 O 0.48231 0.97519 0.54972 0.0
O150 O 0.47251 0.9689 0.69026 0.0
O151 O 0.49809 0.98095 0.72201 0.0
O152 O 0.4586 0.00567 0.68233 0.0
O153 O 0.46875 0.00329 0.79074 0.0
O154 O 0.50612 -0.00118 0.86969 0.0
O155 O 0.51593 0.02636 0.83629 0.0
O156 O 0.48569 0.0367 0.74595 0.0
O157 O 0.49726 0.02037 0.66998 0.0
O158 O 0.52737 0.00325 0.71734 0.0
O159 O 0.51617 0.9938 0.61489 0.0
H160 H 0.47176 0.98044 0.38305 0.0
H161 H 0.4426 0.97601 0.31959 0.0
H162 H 0.40997 0.98226 0.49858 0.0
H163 H 0.43921 0.98619 0.56163 0.0
H164 H 0.55144 0.02106 0.82668 0.0
H165 H 0.58257 0.01544 0.8747 0.0
H166 H 0.55636 0.99122 0.04737 0.0
H167 H 0.5251 -0.0032 -0.00115 0.0
C168 C 0.51759 0.46785 0.52174 0.0
Eu169 Eu 0.51222 0.48617 0.6317 0.0
C170 C 0.51573 0.44867 0.49379 0.0
C171 C 0.53086 0.4359 0.49702 0.0
C172 C 0.52955 0.41829 0.4667 0.0
C173 C 0.51313 0.41306 0.43204 0.0
C174 C 0.49794 0.42577 0.42928 0.0
C175 C 0.49924 0.44338 0.45963 0.0
C176 C 0.53887 0.4956 0.72134 0.0
C177 C 0.49707 0.45839 0.74905 0.0
C178 C 0.4936 0.521 0.87247 0.0
Eu179 Eu 0.49753 0.50268 0.762 0.0
C180 C 0.49508 0.54047 0.89655 0.0
C181 C 0.48335 0.54639 0.94813 0.0
C182 C 0.48492 0.56459 0.97349 0.0
C183 C 0.49834 0.57725 0.94787 0.0
C184 C 0.50986 0.57134 0.89518 0.0
C185 C 0.50822 0.55313 0.86967 0.0
C186 C 0.47063 0.49383 0.6722 0.0
C187 C 0.50991 0.5307 0.64127 0.0
O188 O 0.50197 0.47684 0.53573 0.0
O189 O 0.53088 0.47069 0.56566 0.0
O190 O 0.54091 0.49826 0.65836 0.0
O191 O 0.5234 0.4876 0.73353 0.0
O192 O 0.49983 0.46085 0.68499 0.0
O193 O 0.49804 0.47243 0.79146 0.0
O194 O 0.50937 0.5129 0.85432 0.0
O195 O 0.4795 0.5173 0.83274 0.0
O196 O 0.46823 0.49194 0.73545 0.0
O197 O 0.48639 0.50127 0.66039 0.0
O198 O 0.50767 0.52851 0.70573 0.0
O199 O 0.51015 0.51625 0.60041 0.0
H200 H 0.54388 0.43962 0.52199 0.0
H201 H 0.54164 0.40897 0.46894 0.0
H202 H 0.48502 0.42212 0.40359 0.0
H203 H 0.48739 0.45295 0.45557 0.0
H204 H 0.47303 0.53685 0.96919 0.0
H205 H 0.47556 0.56875 0.01314 0.0
H206 H 0.52046 0.58062 0.87461 0.0
H207 H 0.51739 0.54887 0.82959 0.0
C208 C 0.01083 0.50859 0.45668 0.0
Eu209 Eu 0.00032 0.50003 0.57573 0.0
C210 C 0.02901 0.51339 0.42578 0.0
C211 C 0.04326 0.52262 0.46165 0.0
C212 C 0.06125 0.52503 0.43427 0.0
C213 C 0.06534 0.51799 0.37103 0.0
C214 C 0.0509 0.50913 0.33481 0.0
C215 C 0.03288 0.50689 0.36195 0.0
C216 C 0.00381 0.52156 0.68515 0.0
C217 C 0.03019 0.48198 0.6762 0.0
C218 C 0.97137 0.47418 0.82031 0.0
Eu219 Eu 0.98595 0.48222 0.70599 0.0
C220 C 0.95514 0.4796 0.86094 0.0
C221 C 0.9514 0.4696 0.91894 0.0
C222 C 0.93563 0.47403 0.95725 0.0
C223 C 0.92332 0.48856 0.93807 0.0
C224 C 0.9273 0.49874 0.88013 0.0
C225 C 0.94309 0.49427 0.84176 0.0
C226 C 0.99365 0.45791 0.60663 0.0
C227 C 0.95516 0.5003 0.60485 0.0
O228 O 0.00969 0.49128 0.47842 0.0
O229 O 0.00357 0.5209 0.49772 0.0
O230 O 0.01619 0.52146 0.63801 0.0
O231 O 0.99002 0.51119 0.67092 0.0
O232 O 0.02595 0.48435 0.61316 0.0
O233 O 0.01735 0.48381 0.72305 0.0
O234 O 0.98451 0.48697 0.81197 0.0
O235 O 0.96741 0.46491 0.76617 0.0
O236 O 0.99678 0.45403 0.66822 0.0
O237 O 0.98589 0.47368 0.60152 0.0
O238 O 0.95859 0.49331 0.66421 0.0
O239 O 0.96876 0.50355 0.56141 0.0
H240 H 0.04067 0.52746 0.51151 0.0
H241 H 0.07215 0.53173 0.46358 0.0
H242 H 0.0536 0.50371 0.28576 0.0
H243 H 0.02212 0.49957 0.33382 0.0
H244 H 0.96061 0.45826 0.93441 0.0
H245 H 0.93311 0.46611 0.00204 0.0
H246 H 0.91799 0.50988 0.8637 0.0
H247 H 0.94579 0.50209 0.79687 0.0
C248 C 0.15844 0.96418 0.2371 0.0
C249 C 0.16313 0.97875 0.19317 0.0
C250 C 0.14618 0.96747 0.28987 0.0
C251 C 0.10774 -0.00169 0.34323 0.0
H252 H 0.11833 0.97768 0.51663 0.0
C253 C 0.05078 0.98936 0.54323 0.0
C254 C 0.05548 0.99413 0.60846 0.0
C255 C 0.06455 0.98934 0.49403 0.0
C256 C 0.11528 0.98369 0.46867 0.0
H257 H 0.15862 0.0082 0.17025 0.0
H258 H 0.13703 0.01386 0.26216 0.0
H259 H 0.1415 0.97407 0.42811 0.0
H260 H 0.07824 0.00263 0.6736 0.0
H261 H 0.10253 0.00234 0.58731 0.0
H262 H 0.0814 0.00769 0.3835 0.0
C263 C 0.14287 -9e-05 0.25563 0.0
C264 C 0.12844 0.98147 0.41787 0.0
C265 C 0.15527 0.99667 0.20317 0.0
C266 C 0.07425 -0.00109 0.62365 0.0
C267 C 0.08812 -0.00131 0.57441 0.0
C268 C 0.0945 0.00038 0.39384 0.0
C269 C 0.13821 0.98534 0.29956 0.0
C270 C 0.12472 0.98859 0.35445 0.0
C271 C 0.08339 0.99388 0.50909 0.0
C272 C 0.09805 0.99292 0.45689 0.0
H273 H 0.16427 0.95022 0.23085 0.0
H274 H 0.14268 0.95591 0.32244 0.0
H275 H 0.10443 0.00385 0.29479 0.0
H276 H 0.03647 0.98539 0.53021 0.0
H277 H 0.06053 0.98529 0.44442 0.0
C278 C 0.48943 0.14952 0.23376 0.0
C279 C 0.50819 0.15608 0.23468 0.0
C280 C 0.48254 0.13846 0.28548 0.0
C281 C 0.49189 0.12498 0.45862 0.0
H282 H 0.46872 0.0775 0.41045 0.0
C283 C 0.47621 0.06702 0.65114 0.0
C284 C 0.48447 0.04981 0.63335 0.0
C285 C 0.47425 0.08137 0.60428 0.0
C286 C 0.47495 0.09082 0.42467 0.0
H287 H 0.53428 0.15653 0.29108 0.0
H288 H 0.52228 0.13724 0.38093 0.0
H289 H 0.47501 0.10095 0.32524 0.0
H290 H 0.49699 0.03402 0.55299 0.0
H291 H 0.49319 0.0587 0.47149 0.0
H292 H 0.49272 0.11444 0.55753 0.0
C293 C 0.51286 0.14076 0.34061 0.0
C294 C 0.47845 0.10427 0.37603 0.0
C295 C 0.51978 0.15165 0.28878 0.0
C296 C 0.49021 0.04698 0.56784 0.0
C297 C 0.48802 0.06113 0.52107 0.0
C298 C 0.48828 0.11158 0.50734 0.0
C299 C 0.49422 0.13395 0.33933 0.0
C300 C 0.48757 0.1212 0.39221 0.0
C301 C 0.4803 0.07857 0.53893 0.0
C302 C 0.4804 0.09411 0.49039 0.0
H303 H 0.48014 0.15276 0.1928 0.0
H304 H 0.4681 0.13342 0.28335 0.0
H305 H 0.49872 0.13804 0.47251 0.0
H306 H 0.47172 0.06954 0.70145 0.0
H307 H 0.46828 0.09472 0.61925 0.0
C308 C 0.34688 0.53173 0.2901 0.0
C309 C 0.34065 0.51893 0.24195 0.0
C310 C 0.36001 0.52625 0.33781 0.0
C311 C 0.39793 0.49254 0.36954 0.0
H312 H 0.39148 0.50851 0.55117 0.0
C313 C 0.45897 0.4972 0.55679 0.0
C314 C 0.45546 0.49217 0.62265 0.0
C315 C 0.44434 0.49725 0.51056 0.0
C316 C 0.39337 0.50371 0.50088 0.0
H317 H 0.34337 0.49033 0.20593 0.0
H318 H 0.36648 0.4808 0.28926 0.0
H319 H 0.36671 0.515 0.47049 0.0
H320 H 0.43411 0.48266 0.69155 0.0
H321 H 0.40838 0.48288 0.61055 0.0
H322 H 0.42476 0.48154 0.3998 0.0
C323 C 0.36116 0.49508 0.2899 0.0
C324 C 0.37928 0.50761 0.45457 0.0
C325 C 0.34789 0.50052 0.2424 0.0
C326 C 0.43717 0.48665 0.64109 0.0
C327 C 0.42246 0.48683 0.59486 0.0
C328 C 0.41209 0.48875 0.41581 0.0
C329 C 0.3673 0.50788 0.3382 0.0
C330 C 0.38155 0.50234 0.38822 0.0
C331 C 0.42586 0.49241 0.52935 0.0
C332 C 0.41008 0.49455 0.48174 0.0
H333 H 0.34159 0.54601 0.2911 0.0
H334 H 0.36469 0.5365 0.37384 0.0
H335 H 0.4001 0.48838 0.31869 0.0
H336 H 0.47291 0.50169 0.54132 0.0
H337 H 0.44736 0.50186 0.46072 0.0
C338 C 0.9618 0.34085 0.18739 0.0
C339 C 0.97655 0.33471 0.14642 0.0
C340 C 0.96512 0.35435 0.23593 0.0
C341 C 0.0029 0.37644 0.33488 0.0
H342 H 0.96476 0.41474 0.36232 0.0
C343 C 0.00146 0.42605 0.56215 0.0
C344 C 0.99507 0.44448 0.55171 0.0
C345 C 0.00105 0.41296 0.51059 0.0
C346 C 0.97568 0.40429 0.35487 0.0
H347 H 0.00638 0.33789 0.12424 0.0
H348 H 0.0121 0.36178 0.20851 0.0
H349 H 0.96039 0.3916 0.27564 0.0
H350 H 0.98389 0.46394 0.47918 0.0
H351 H 0.9838 0.44144 0.38905 0.0
H352 H 0.01833 0.38946 0.41371 0.0
C353 C 0.99803 0.35593 0.2036 0.0
C354 C 0.97304 0.39086 0.30572 0.0
C355 C 0.99472 0.34235 0.15506 0.0
C356 C 0.98897 0.44983 0.48856 0.0
C357 C 0.98872 0.43687 0.43708 0.0
C358 C 0.00558 0.38996 0.38412 0.0
C359 C 0.98324 0.3621 0.24444 0.0
C360 C 0.98653 0.37669 0.29545 0.0
C361 C 0.99431 0.41817 0.44783 0.0
C362 C 0.99196 0.40401 0.39471 0.0
H363 H 0.94768 0.33513 0.18236 0.0
H364 H 0.95349 0.35856 0.26733 0.0
H365 H 0.01349 0.3656 0.32849 0.0
H366 H 0.00622 0.4216 0.61051 0.0
H367 H 0.00532 0.39863 0.52057 0.0
C368 C 0.85549 0.97999 0.14612 0.0
C369 C 0.84298 0.96509 0.13324 0.0
C370 C 0.8703 0.98395 0.10265 0.0
C371 C 0.89754 0.96296 0.9635 0.0
H372 H 0.91219 0.01471 0.93146 0.0
C373 C 0.94307 0.98632 0.74225 0.0
C374 C 0.95865 -0.00221 0.75706 0.0
C375 C 0.92964 0.98225 0.79064 0.0
C376 C 0.90832 0.0002 0.94044 0.0
H377 H 0.83595 0.94286 0.06427 0.0
H378 H 0.86122 0.95017 0.9873 0.0
H379 H 0.88716 0.00784 0.01068 0.0
H380 H 0.97243 0.0142 0.83333 0.0
H381 H 0.94859 0.00744 0.91785 0.0
H382 H 0.91827 0.95548 0.89115 0.0
C383 C 0.86008 0.95846 0.03191 0.0
C384 C 0.89404 0.99622 0.98601 0.0
C385 C 0.84546 0.95434 0.07583 0.0
C386 C 0.96052 0.00531 0.82082 0.0
C387 C 0.9469 0.0015 0.86896 0.0
C388 C 0.91158 0.96698 0.91724 0.0
C389 C 0.87277 0.97326 0.04485 0.0
C390 C 0.88838 0.97754 -0.00211 0.0
C391 C 0.93141 0.98985 0.85433 0.0
C392 C 0.91702 0.98562 0.90509 0.0
H393 H 0.85399 0.98845 0.19025 0.0
H394 H 0.87994 0.99526 0.11489 0.0
H395 H 0.89392 0.94839 0.97237 0.0
H396 H 0.94136 0.98032 0.69347 0.0
H397 H 0.91774 0.97334 0.77809 0.0
C398 C 0.50034 0.84741 0.16327 0.0
C399 C 0.51965 0.84564 0.17865 0.0
C400 C 0.49409 0.86187 0.12193 0.0
C401 C 0.50702 0.90828 0.05716 0.0
H402 H 0.47768 0.89419 0.90307 0.0
C403 C 0.50384 0.95479 0.82757 0.0
C404 C 0.48711 0.95562 0.79045 0.0
C405 C 0.50542 0.94241 0.8805 0.0
C406 C 0.48552 0.89847 0.94648 0.0
H407 H 0.54744 0.85788 0.16445 0.0
H408 H 0.53647 0.88322 0.09303 0.0
H409 H 0.48463 0.87072 0.98751 0.0
H410 H 0.45881 0.94442 0.77961 0.0
H411 H 0.46145 0.92277 0.87322 0.0
H412 H 0.50808 0.93595 0.01635 0.0
C413 C 0.5262 0.87343 0.11284 0.0
C414 C 0.48953 0.88501 0.99471 0.0
C415 C 0.53249 0.85886 0.15335 0.0
C416 C 0.47189 0.94394 0.80742 0.0
C417 C 0.47344 0.93155 0.86081 0.0
C418 C 0.50286 0.92177 0.00937 0.0
C419 C 0.50699 0.87495 0.09618 0.0
C420 C 0.50073 0.88969 0.04958 0.0
C421 C 0.49027 0.93061 0.89781 0.0
C422 C 0.49252 0.9169 0.95253 0.0
H423 H 0.49012 0.83741 0.18202 0.0
H424 H 0.47919 0.8628 0.10995 0.0
H425 H 0.51544 0.9123 0.09959 0.0
H426 H 0.51586 0.96354 0.81511 0.0
H427 H 0.51874 0.94179 0.90685 0.0
C428 C 0.65374 0.51968 0.16837 0.0
C429 C 0.66631 0.53469 0.15819 0.0
C430 C 0.63967 0.51561 0.12194 0.0
C431 C 0.61426 0.53641 0.97792 0.0
H432 H 0.59982 0.48459 0.94599 0.0
C433 C 0.56816 0.51251 0.75658 0.0
C434 C 0.55308 0.50044 0.77183 0.0
C435 C 0.58167 0.51699 0.80453 0.0
C436 C 0.60364 0.49913 0.95478 0.0
H437 H 0.67422 0.55701 0.0908 0.0
H438 H 0.65023 0.54953 0.00876 0.0
H439 H 0.62428 0.49163 0.02722 0.0
H440 H 0.54022 0.48356 0.8487 0.0
H441 H 0.56406 0.49112 0.93218 0.0
H442 H 0.59392 0.54374 0.90371 0.0
C443 C 0.65077 0.54121 0.05346 0.0
C444 C 0.61759 0.50321 0.00156 0.0
C445 C 0.66464 0.54543 0.10033 0.0
C446 C 0.55172 0.49291 0.83571 0.0
C447 C 0.56538 0.49716 0.88332 0.0
C448 C 0.60051 0.53229 0.93046 0.0
C449 C 0.63801 0.52629 0.06371 0.0
C450 C 0.62309 0.52192 0.01389 0.0
C451 C 0.58048 0.50925 0.8682 0.0
C452 C 0.59504 0.51362 0.91854 0.0
H453 H 0.65458 0.51122 0.21272 0.0
H454 H 0.62995 0.50423 0.13228 0.0
H455 H 0.61778 0.551 0.98685 0.0
H456 H 0.56947 0.51853 0.7077 0.0
H457 H 0.59323 0.52627 0.79152 0.0
C458 C 0.97481 0.62921 0.12749 0.0
C459 C 0.98895 0.64179 0.14806 0.0
C460 C 0.97924 0.61412 0.08634 0.0
C461 C 0.01228 0.60082 0.95819 0.0
H462 H 0.99066 0.55114 0.98096 0.0
C463 C 0.02135 0.5433 0.76026 0.0
C464 C 0.00497 0.533 0.74546 0.0
C465 C 0.02199 0.55475 0.81631 0.0
C466 C 0.99673 0.56497 0.97369 0.0
H467 H 0.01891 0.64818 0.14304 0.0
H468 H 0.02659 0.6219 0.07005 0.0
H469 H 0.98688 0.57465 0.06766 0.0
H470 H 0.97658 0.52619 0.77774 0.0
H471 H 0.97747 0.54645 0.87426 0.0
H472 H 0.02136 0.59158 0.86308 0.0
C473 C 0.0121 0.62375 0.08605 0.0
C474 C 0.99461 0.57837 0.02345 0.0
C475 C 0.00771 0.63873 0.12792 0.0
C476 C 0.98941 0.53398 0.78815 0.0
C477 C 0.99 0.54548 0.84382 0.0
C478 C 0.01424 0.58749 0.90813 0.0
C479 C 0.99787 0.61143 0.06438 0.0
C480 C 0.00204 0.59654 0.01557 0.0
C481 C 0.00622 0.55617 0.85829 0.0
C482 C 0.00613 0.56952 0.91466 0.0
H483 H 0.96024 0.63117 0.14238 0.0
H484 H 0.96796 0.60495 0.06979 0.0
H485 H 0.01799 0.61479 0.95058 0.0
H486 H 0.03359 0.54263 0.72828 0.0
H487 H 0.0348 0.56258 0.82651 0.0
C488 C 0.97476 0.22277 0.09323 0.0
C489 C 0.98826 0.23692 0.10445 0.0
C490 C 0.97641 0.20528 0.12412 0.0
C491 C 0.0102 0.174 0.20958 0.0
H492 H 0.96488 0.15226 0.2855 0.0
C493 C 0.00795 0.09873 0.31822 0.0
C494 C 0.99779 0.09614 0.37717 0.0
C495 C 0.00721 0.11586 0.28448 0.0
C496 C 0.97769 0.15819 0.26495 0.0
H497 H 0.01367 0.24403 0.15882 0.0
H498 H 0.01678 0.21339 0.21176 0.0
H499 H 0.96295 0.18208 0.22663 0.0
H500 H 0.97922 0.10977 0.44754 0.0
H501 H 0.97787 0.13962 0.38851 0.0
H502 H 0.02498 0.15021 0.24882 0.0
C503 C 0.00515 0.21568 0.17791 0.0
C504 C 0.97655 0.17517 0.23052 0.0
C505 C 0.00345 0.2332 0.14718 0.0
C506 C 0.98698 0.11117 0.40176 0.0
C507 C 0.9862 0.12828 0.36794 0.0
C508 C 0.01133 0.15695 0.24379 0.0
C509 C 0.99155 0.20157 0.16719 0.0
C510 C 0.99279 0.1833 0.20256 0.0
C511 C 0.99625 0.13081 0.30875 0.0
C512 C 0.9951 0.14888 0.27208 0.0
H513 H 0.96289 0.22524 0.06056 0.0
H514 H 0.96581 0.19464 0.11425 0.0
H515 H 0.02295 0.17983 0.18819 0.0
H516 H 0.01617 0.08737 0.29727 0.0
H517 H 0.0149 0.11726 0.23857 0.0
C518 C 0.27939 0.99101 0.06765 0.0
C519 C 0.26385 0.9819 0.09652 0.0
C520 C 0.29702 0.99091 0.09903 0.0
C521 C 0.31909 0.98342 0.26258 0.0
H522 H 0.365 0.97576 0.16177 0.0
C523 C 0.39032 0.96837 0.38885 0.0
C524 C 0.40617 0.97813 0.36492 0.0
C525 C 0.37325 0.96867 0.35414 0.0
C526 C 0.35231 0.97808 0.19049 0.0
H527 H 0.25467 0.9651 0.17982 0.0
H528 H 0.28539 0.96463 0.23386 0.0
H529 H 0.33458 0.9771 0.10479 0.0
H530 H 0.4165 0.99578 0.28537 0.0
H531 H 0.38675 0.99616 0.22461 0.0
H532 H 0.33675 0.98431 0.34823 0.0
C533 C 0.28393 0.97225 0.18786 0.0
C534 C 0.3349 0.97889 0.15786 0.0
C535 C 0.26636 0.97237 0.15659 0.0
C536 C 0.40466 0.98786 0.3047 0.0
C537 C 0.3876 0.98812 0.2699 0.0
C538 C 0.33646 0.98256 0.29513 0.0
C539 C 0.29945 0.98159 0.15969 0.0
C540 C 0.31807 0.98143 0.19364 0.0
C541 C 0.37165 0.97872 0.29465 0.0
C542 C 0.35325 0.97976 0.25955 0.0
H543 H 0.27806 -0.00213 0.02026 0.0
H544 H 0.30871 -0.00177 0.0761 0.0
H545 H 0.30644 0.98577 0.29147 0.0
H546 H 0.39109 0.96049 0.43451 0.0
H547 H 0.36129 0.961 0.37388 0.0
C548 C 0.52792 0.26281 0.13673 0.0
C549 C 0.51219 0.2509 0.14307 0.0
C550 C 0.52754 0.28101 0.16266 0.0
C551 C 0.49559 0.31821 0.22535 0.0
H552 H 0.54001 0.33412 0.32288 0.0
C553 C 0.50397 0.39318 0.33434 0.0
C554 C 0.51209 0.3946 0.39756 0.0
C555 C 0.50358 0.37596 0.30103 0.0
C556 C 0.52745 0.32985 0.29616 0.0
H557 H 0.48393 0.24854 0.18337 0.0
H558 H 0.48311 0.28039 0.22773 0.0
H559 H 0.53997 0.30378 0.2672 0.0
H560 H 0.52567 0.37885 0.47603 0.0
H561 H 0.52501 0.34885 0.41796 0.0
H562 H 0.48294 0.34417 0.25565 0.0
C563 C 0.49559 0.27583 0.20131 0.0
C564 C 0.52752 0.31256 0.2635 0.0
C565 C 0.49601 0.25761 0.1755 0.0
C566 C 0.5196 0.37833 0.42696 0.0
C567 C 0.51923 0.36113 0.39365 0.0
C568 C 0.49554 0.33557 0.25789 0.0
C569 C 0.51144 0.28767 0.19595 0.0
C570 C 0.51156 0.30647 0.22803 0.0
C571 C 0.51134 0.35976 0.3301 0.0
C572 C 0.51143 0.34152 0.29412 0.0
H573 H 0.54059 0.258 0.11199 0.0
H574 H 0.5399 0.28985 0.15702 0.0
H575 H 0.48312 0.31399 0.19799 0.0
H576 H 0.49831 0.40548 0.30983 0.0
H577 H 0.49759 0.37543 0.25184 0.0
C578 C 0.22835 0.539 0.17224 0.0
C579 C 0.23703 0.52225 0.1515 0.0
C580 C 0.20978 0.53886 0.19585 0.0
C581 C 0.16576 0.51151 0.18988 0.0
H582 H 0.15277 0.53909 0.34851 0.0
C583 C 0.09314 0.50314 0.31514 0.0
C584 C 0.08483 0.51904 0.34419 0.0
C585 C 0.11164 0.50385 0.29129 0.0
C586 C 0.15606 0.53154 0.30357 0.0
H587 H 0.23354 0.49204 0.14427 0.0
H588 H 0.20092 0.49188 0.18313 0.0
H589 H 0.18517 0.5398 0.30768 0.0
H590 H 0.08929 0.54824 0.37027 0.0
H591 H 0.12149 0.54968 0.32721 0.0
H592 H 0.13669 0.50346 0.18489 0.0
C593 C 0.20833 0.50517 0.17957 0.0
C594 C 0.17466 0.53191 0.28034 0.0
C595 C 0.22694 0.5053 0.15654 0.0
C596 C 0.0954 0.53572 0.3486 0.0
C597 C 0.11387 0.5365 0.32414 0.0
C598 C 0.14713 0.51128 0.21272 0.0
C599 C 0.19952 0.52197 0.19924 0.0
C600 C 0.17973 0.52182 0.22346 0.0
C601 C 0.12226 0.52054 0.29535 0.0
C602 C 0.14204 0.5212 0.27011 0.0
H603 H 0.23583 0.55227 0.16939 0.0
H604 H 0.20335 0.55203 0.21045 0.0
H605 H 0.1692 0.50382 0.14535 0.0
H606 H 0.08545 0.48999 0.3121 0.0
H607 H 0.11772 0.49117 0.27076 0.0
C608 C 0.01005 0.75466 0.15226 0.0
C609 C 0.99214 0.74749 0.16831 0.0
C610 C 0.01187 0.7725 0.12391 0.0
C611 C 0.98784 0.81791 0.1138 0.0
H612 H 0.02051 0.82701 0.96366 0.0
C613 C 0.98978 0.8899 0.98274 0.0
C614 C 0.00727 0.89645 0.95933 0.0
C615 C 0.98793 0.87156 0.0067 0.0
C616 C 0.01153 0.8248 0.00618 0.0
H617 H 0.96204 0.75298 0.16546 0.0
H618 H 0.9652 0.78433 0.11672 0.0
H619 H 0.01739 0.79523 0.00766 0.0
H620 H 0.03659 0.88897 0.94332 0.0
H621 H 0.0335 0.85709 0.98634 0.0
H622 H 0.98226 0.84744 0.11365 0.0
C623 C 0.97784 0.77619 0.12639 0.0
C624 C 0.00969 0.80656 0.03116 0.0
C625 C 0.97602 0.75823 0.15382 0.0
C626 C 0.02287 0.88424 0.9603 0.0
C627 C 0.02107 0.86594 0.98483 0.0
C628 C 0.98981 0.83617 0.08929 0.0
C629 C 0.99579 0.78357 0.11168 0.0
C630 C 0.99776 0.80291 0.08502 0.0
C631 C 0.00357 0.85935 0.00843 0.0
C632 C 0.00162 0.83987 0.03493 0.0
H633 H 0.02268 0.7465 0.16194 0.0
H634 H 0.02587 0.77783 0.11322 0.0
H635 H 0.97879 0.81555 0.15608 0.0
H636 H 0.97744 0.89889 0.98175 0.0
H637 H 0.97414 0.8669 0.02315 0.0
C638 C 0.73394 0.99578 0.18458 0.0
C639 C 0.73949 0.97791 0.2067 0.0
C640 C 0.71562 -0.00122 0.16093 0.0
C641 C 0.66722 0.97979 0.16486 0.0
H642 H 0.66109 0.0071 0.00063 0.0
C643 C 0.59557 0.98341 0.02712 0.0
C644 C 0.59089 0.00032 0.99519 0.0
C645 C 0.61354 0.98086 0.05466 0.0
C646 C 0.66248 -0.00032 0.04705 0.0
H647 H 0.73036 0.94914 0.22114 0.0
H648 H 0.69824 0.95438 0.17999 0.0
H649 H 0.6926 0.00259 0.04647 0.0
H650 H 0.6012 0.02801 0.96884 0.0
H651 H 0.63238 0.02373 0.01759 0.0
H652 H 0.63709 0.97702 0.16593 0.0
C653 C 0.70801 0.96611 0.18149 0.0
C654 C 0.68057 -0.00293 0.07322 0.0
C655 C 0.7264 0.96307 0.20453 0.0
C656 C 0.60449 0.0147 0.99212 0.0
C657 C 0.62239 0.01222 0.02 0.0
C658 C 0.64908 0.98252 0.13894 0.0
C659 C 0.70245 0.98398 0.15909 0.0
C660 C 0.68315 0.98705 0.13226 0.0
C661 C 0.62721 0.99523 0.0513 0.0
C662 C 0.64648 0.99246 0.07955 0.0
H663 H 0.74388 0.00736 0.18435 0.0
H664 H 0.71173 0.01272 0.14421 0.0
H665 H 0.66876 0.97219 0.21088 0.0
H666 H 0.58545 0.972 0.02969 0.0
H667 H 0.61682 0.96749 0.07745 0.0
C668 C 0.52352 0.73919 0.14604 0.0
C669 C 0.5207 0.74133 0.21417 0.0
C670 C 0.52094 0.72166 0.11596 0.0
C671 C 0.49813 0.67531 0.14259 0.0
H672 H 0.53179 0.65901 0.00302 0.0
C673 C 0.49918 0.59901 0.04563 0.0
C674 C 0.50054 0.59636 0.97699 0.0
C675 C 0.50135 0.61688 0.07328 0.0
C676 C 0.52215 0.66345 0.04145 0.0
H677 H 0.51431 0.72666 0.30504 0.0
H678 H 0.50997 0.69603 0.25298 0.0
H679 H 0.53644 0.68974 0.054 0.0
H680 H 0.50505 0.61061 0.88363 0.0
H681 H 0.50905 0.64178 0.93212 0.0
H682 H 0.484 0.6489 0.13058 0.0
C683 C 0.51344 0.70799 0.22217 0.0
C684 C 0.52479 0.68107 0.07065 0.0
C685 C 0.51584 0.72554 0.25205 0.0
C686 C 0.50418 0.61207 0.93674 0.0
C687 C 0.50645 0.62994 0.96449 0.0
C688 C 0.49555 0.65765 0.11365 0.0
C689 C 0.51578 0.70585 0.15363 0.0
C690 C 0.51286 0.6872 0.12178 0.0
C691 C 0.50504 0.63255 0.03309 0.0
C692 C 0.50756 0.65149 0.06287 0.0
H693 H 0.52738 0.75115 0.11584 0.0
H694 H 0.52273 0.72058 0.06303 0.0
H695 H 0.48843 0.67973 0.1808 0.0
H696 H 0.49676 0.58721 0.07831 0.0
H697 H 0.50048 0.61836 0.1264 0.0
C698 C 0.77443 0.50363 0.24062 0.0
C699 C 0.76824 0.52209 0.25225 0.0
C700 C 0.79211 0.5003 0.21224 0.0
C701 C 0.82701 0.52282 0.10429 0.0
H702 H 0.86023 0.4829 0.16361 0.0
C703 C 0.9008 0.51146 0.99017 0.0
C704 C 0.90622 0.49279 0.97784 0.0
C705 C 0.88462 0.51536 0.02726 0.0
C706 C 0.85103 0.494 0.14609 0.0
H707 H 0.77568 0.55154 0.2432 0.0
H708 H 0.80651 0.54575 0.19333 0.0
H709 H 0.83084 0.48905 0.223 0.0
H710 H 0.89876 0.46357 0.99407 0.0
H711 H 0.87051 0.47036 0.05834 0.0
H712 H 0.84694 0.52762 0.02688 0.0
C713 C 0.79771 0.53384 0.20621 0.0
C714 C 0.83422 0.49752 0.18016 0.0
C715 C 0.78009 0.53715 0.23489 0.0
C716 C 0.89513 0.47811 0.00357 0.0
C717 C 0.87895 0.482 0.04052 0.0
C718 C 0.84376 0.51927 0.07016 0.0
C719 C 0.80385 0.51538 0.194 0.0
C720 C 0.822 0.51193 0.15945 0.0
C721 C 0.87347 0.50067 0.05269 0.0
C722 C 0.85594 0.50477 0.09045 0.0
H723 H 0.76533 0.49176 0.25072 0.0
H724 H 0.7963 0.48593 0.20232 0.0
H725 H 0.81774 0.53382 0.08644 0.0
H726 H 0.90919 0.52307 0.97181 0.0
H727 H 0.88095 0.5299 0.03653 0.0
C728 C 0.01237 0.19704 0.90358 0.0
C729 C 0.02772 0.20425 0.93966 0.0
C730 C 0.01299 0.17889 0.87801 0.0
C731 C 0.04352 0.14055 0.82643 0.0
H732 H 0.00092 0.10902 0.87464 0.0
C733 C 0.02567 0.06779 0.70994 0.0
C734 C 0.02099 0.05349 0.75494 0.0
C735 C 0.0285 0.08622 0.73192 0.0
C736 C 0.01293 0.11765 0.86105 0.0
H737 H 0.05607 0.19839 0.97496 0.0
H738 H 0.0572 0.1665 0.9291 0.0
H739 H 0.00207 0.14158 0.9123 0.0
H740 H 0.01608 0.04719 0.8584 0.0
H741 H 0.02074 0.07934 0.89625 0.0
H742 H 0.05421 0.11652 0.77431 0.0
C743 C 0.04471 0.17501 0.92113 0.0
C744 C 0.01352 0.13627 0.88215 0.0
C745 C 0.04402 0.19317 0.94753 0.0
C746 C 0.01964 0.05787 0.8224 0.0
C747 C 0.02224 0.07627 0.84414 0.0
C748 C 0.04279 0.12192 0.80439 0.0
C749 C 0.02903 0.16762 0.88735 0.0
C750 C 0.02879 0.14788 0.86503 0.0
C751 C 0.02645 0.09064 0.79905 0.0
C752 C 0.02751 0.11032 0.82182 0.0
H753 H -0.00038 0.20522 0.89649 0.0
H754 H 0.0008 0.17353 0.85156 0.0
H755 H 0.0554 0.1493 0.81252 0.0
H756 H 0.0269 0.06484 0.65768 0.0
H757 H 0.03165 0.09711 0.69622 0.0
C758 C 0.29553 0.05386 0.86413 0.0
C759 C 0.28684 0.04921 0.924 0.0
C760 C 0.31252 0.04538 0.84576 0.0
C761 C 0.35535 0.02658 0.91606 0.0
H762 H 0.36462 0.00769 0.73959 0.0
C763 C 0.42998 0.00294 0.83355 0.0
C764 C 0.43532 0.0076 0.76882 0.0
C765 C 0.41123 0.00513 0.85414 0.0
C766 C 0.36236 0.01309 0.7889 0.0
H767 H 0.28922 0.03237 0.01285 0.0
H768 H 0.31925 0.01769 0.98104 0.0
H769 H 0.33264 0.01652 0.77191 0.0
H770 H 0.42517 0.01831 0.67502 0.0
H771 H 0.39283 0.02279 0.71131 0.0
H772 H 0.38511 0.0242 0.93231 0.0
C773 C 0.31261 0.02758 0.94769 0.0
C774 C 0.344 0.018 0.80746 0.0
C775 C 0.29537 0.03582 0.9655 0.0
C776 C 0.42152 0.01446 0.72514 0.0
C777 C 0.40287 0.01688 0.74589 0.0
C778 C 0.37378 0.02194 0.89722 0.0
C779 C 0.32139 0.03241 0.88784 0.0
C780 C 0.34037 0.02508 0.87083 0.0
C781 C 0.39743 0.01224 0.81067 0.0
C782 C 0.3776 0.01548 0.83292 0.0
H783 H 0.28932 0.06433 0.83188 0.0
H784 H 0.31911 0.04955 0.7998 0.0
H785 H 0.35295 0.03218 0.96505 0.0
H786 H 0.44026 -0.00256 0.86821 0.0
H787 H 0.40755 0.00114 0.90406 0.0
C788 C 0.49747 0.29795 0.95084 0.0
C789 C 0.48042 0.29007 0.97306 0.0
C790 C 0.4979 0.31616 0.92563 0.0
C791 C 0.46938 0.35292 0.84945 0.0
H792 H 0.50852 0.386 0.91701 0.0
C793 C 0.49002 0.42425 0.73065 0.0
C794 C 0.49311 0.43931 0.77427 0.0
C795 C 0.48684 0.40613 0.75497 0.0
C796 C 0.49744 0.37697 0.89801 0.0
H797 H 0.45035 0.29491 0.98495 0.0
H798 H 0.45112 0.32689 0.94 0.0
H799 H 0.50599 0.35401 0.95922 0.0
H800 H 0.4949 0.44725 0.87761 0.0
H801 H 0.4895 0.41566 0.9197 0.0
H802 H 0.46097 0.37597 0.78778 0.0
C803 C 0.46411 0.31887 0.94235 0.0
C804 C 0.4961 0.35864 0.92174 0.0
C805 C 0.4637 0.30065 0.96829 0.0
C806 C 0.49264 0.43596 0.8426 0.0
C807 C 0.48962 0.41786 0.8668 0.0
C808 C 0.47086 0.37126 0.82513 0.0
C809 C 0.48128 0.32684 0.92163 0.0
C810 C 0.48213 0.34642 0.8975 0.0
C811 C 0.48687 0.40276 0.82326 0.0
C812 C 0.48492 0.38343 0.84924 0.0
H813 H 0.51061 0.29018 0.95384 0.0
H814 H 0.51129 0.32191 0.90927 0.0
H815 H 0.45855 0.34371 0.82981 0.0
H816 H 0.49021 0.42638 0.67773 0.0
H817 H 0.48489 0.39468 0.72036 0.0
C818 C 0.19778 0.47056 0.82493 0.0
C819 C 0.19938 0.47118 0.89404 0.0
C820 C 0.18017 0.46781 0.79504 0.0
C821 C 0.13062 0.45319 0.82747 0.0
H822 H 0.11873 0.48892 0.68896 0.0
C823 C 0.05451 0.47424 0.76167 0.0
C824 C 0.04986 0.47744 0.69516 0.0
C825 C 0.07314 0.47055 0.78021 0.0
C826 C 0.12189 0.47861 0.7267 0.0
H827 H 0.18391 0.46843 0.98598 0.0
H828 H 0.15327 0.46386 0.93396 0.0
H829 H 0.15087 0.48702 0.73137 0.0
H830 H 0.06114 0.47892 0.59572 0.0
H831 H 0.09372 0.47242 0.62826 0.0
H832 H 0.10145 0.44519 0.82402 0.0
C833 C 0.1656 0.46533 0.90274 0.0
C834 C 0.14033 0.47749 0.75099 0.0
C835 C 0.18317 0.46809 0.9326 0.0
C836 C 0.06424 0.47657 0.64742 0.0
C837 C 0.08292 0.47292 0.66604 0.0
C838 C 0.11216 0.45432 0.80319 0.0
C839 C 0.16383 0.46559 0.83365 0.0
C840 C 0.14482 0.46505 0.80259 0.0
C841 C 0.08758 0.46999 0.73272 0.0
C842 C 0.10752 0.46731 0.7535 0.0
H843 H 0.21002 0.47276 0.79381 0.0
H844 H 0.1793 0.4678 0.74167 0.0
H845 H 0.1337 0.44325 0.86651 0.0
H846 H 0.0438 0.4748 0.79977 0.0
H847 H 0.0763 0.46865 0.83209 0.0
C848 C -7e-05 0.81557 0.33278 0.0
C849 C 0.01047 0.80077 0.36 0.0
C850 C 0.99727 0.83217 0.36812 0.0
C851 C 0.01611 0.85951 0.50906 0.0
H852 H 0.96829 0.88576 0.49215 0.0
C853 C -0.00023 0.92702 0.65447 0.0
C854 C 0.99487 0.94222 0.61356 0.0
C855 C -0.00036 0.90871 0.62973 0.0
C856 C 0.98167 0.87852 0.49737 0.0
H857 H 0.02657 0.79166 0.44528 0.0
H858 H 0.02151 0.82048 0.50795 0.0
H859 H 0.97267 0.85562 0.43676 0.0
H860 H 0.98484 0.95011 0.51623 0.0
H861 H 0.98432 0.91805 0.47344 0.0
H862 H 0.02499 0.88245 0.57009 0.0
C863 C 0.01562 0.81946 0.45873 0.0
C864 C 0.98427 0.86135 0.46533 0.0
C865 C 0.0185 0.80293 0.42293 0.0
C866 C 0.9888 0.93868 0.54874 0.0
C867 C 0.9884 0.92035 0.52436 0.0
C868 C 0.01341 0.87655 0.54179 0.0
C869 C 0.00486 0.83424 0.43188 0.0
C870 C 0.00166 0.85182 0.46973 0.0
C871 C 0.99429 0.90528 0.56411 0.0
C872 C 0.99629 0.88634 0.53527 0.0
H873 H 0.99372 0.81435 0.28406 0.0
H874 H 0.98932 0.84342 0.34518 0.0
H875 H 0.02976 0.85271 0.51289 0.0
H876 H 0.00451 0.9293 0.70469 0.0
H877 H 0.00411 0.89727 0.66138 0.0
C878 C 0.68687 0.01832 0.4061 0.0
C879 C 0.6977 0.00176 0.40483 0.0
C880 C 0.66904 0.01844 0.4358 0.0
C881 C 0.63964 0.99279 0.55611 0.0
H882 H 0.59771 0.01626 0.46436 0.0
C883 C 0.55308 0.994 0.5625 0.0
C884 C 0.54976 -0.00261 0.62986 0.0
C885 C 0.57137 0.99477 0.53702 0.0
C886 C 0.60927 0.00957 0.49042 0.0
H887 H 0.69836 0.9724 0.43397 0.0
H888 H 0.66733 0.97265 0.48551 0.0
H889 H 0.6293 0.01748 0.41633 0.0
H890 H 0.56322 0.00377 0.72357 0.0
H891 H 0.59519 0.00512 0.67889 0.0
H892 H 0.61954 0.98458 0.62958 0.0
C893 C 0.67266 0.98556 0.46415 0.0
C894 C 0.62738 0.01047 0.4633 0.0
C895 C 0.6904 0.98541 0.43421 0.0
C896 C 0.56525 0.00113 0.67144 0.0
C897 C 0.58358 0.00183 0.64592 0.0
C898 C 0.62154 0.99198 0.58339 0.0
C899 C 0.66177 0.00205 0.46513 0.0
C900 C 0.64273 0.00194 0.49557 0.0
C901 C 0.5868 -0.00113 0.57829 0.0
C902 C 0.60613 0.00021 0.55052 0.0
H903 H 0.69211 0.03114 0.38383 0.0
H904 H 0.661 0.03139 0.43626 0.0
H905 H 0.65124 0.98624 0.5824 0.0
H906 H 0.54151 0.99103 0.529 0.0
H907 H 0.57345 0.99211 0.4849 0.0
C908 C 0.47336 0.67451 0.34057 0.0
C909 C 0.47322 0.69102 0.37863 0.0
C910 C 0.47656 0.65711 0.37038 0.0
C911 C 0.47706 0.63183 0.52897 0.0
H912 H 0.51644 0.60218 0.4462 0.0
C913 C 0.50722 0.56565 0.65415 0.0
C914 C 0.5094 0.54986 0.61314 0.0
C915 C 0.50383 0.58337 0.62684 0.0
C916 C 0.5053 0.61019 0.46963 0.0
H917 H 0.47488 0.70209 0.47829 0.0
H918 H 0.48025 0.67166 0.53029 0.0
H919 H 0.50617 0.63142 0.39496 0.0
H920 H 0.51067 0.5405 0.51121 0.0
H921 H 0.50453 0.5712 0.46398 0.0
H922 H 0.47598 0.61049 0.60319 0.0
C923 C 0.47805 0.67221 0.47742 0.0
C924 C 0.49939 0.6269 0.44016 0.0
C925 C 0.47502 0.68963 0.44756 0.0
C926 C 0.50906 0.55234 0.54434 0.0
C927 C 0.50561 0.57 0.51714 0.0
C928 C 0.48288 0.61502 0.55825 0.0
C929 C 0.47945 0.65587 0.43886 0.0
C930 C 0.48517 0.63786 0.46942 0.0
C931 C 0.50253 0.58565 0.55804 0.0
C932 C 0.49704 0.60398 0.5288 0.0
H933 H 0.4719 0.67509 0.28743 0.0
H934 H 0.47726 0.64466 0.33967 0.0
H935 H 0.46601 0.63998 0.55238 0.0
H936 H 0.5075 0.56425 0.70737 0.0
H937 H 0.50189 0.59523 0.65967 0.0
C938 C 0.79401 0.47715 0.4025 0.0
C939 C 0.78618 0.4651 0.45032 0.0
C940 C 0.81111 0.48648 0.415 0.0
C941 C 0.84328 0.50133 0.54832 0.0
H942 H 0.88391 0.49061 0.42585 0.0
C943 C 0.92058 0.49904 0.63008 0.0
C944 C 0.93516 0.50318 0.58529 0.0
C945 C 0.90171 0.49941 0.61003 0.0
C946 C 0.87271 0.4942 0.45995 0.0
H947 H 0.78979 0.45345 0.54803 0.0
H948 H 0.8193 0.47009 0.57068 0.0
H949 H 0.85148 0.4825 0.39641 0.0
H950 H 0.94118 0.512 0.48499 0.0
H951 H 0.90812 0.51299 0.45027 0.0
H952 H 0.86439 0.51276 0.61241 0.0
C953 C 0.81226 0.47244 0.52388 0.0
C954 C 0.85412 0.48949 0.44302 0.0
C955 C 0.79544 0.46287 0.51089 0.0
C956 C 0.93032 0.50863 0.52071 0.0
C957 C 0.91136 0.50907 0.50066 0.0
C958 C 0.8618 0.50626 0.56491 0.0
C959 C 0.82043 0.4841 0.47578 0.0
C960 C 0.83934 0.4924 0.48807 0.0
C961 C 0.89684 0.50406 0.54471 0.0
C962 C 0.87687 0.50209 0.52205 0.0
H963 H 0.78741 0.47871 0.35462 0.0
H964 H 0.81719 0.49528 0.3769 0.0
H965 H 0.83208 0.50395 0.58356 0.0
H966 H 0.92371 0.49483 0.68029 0.0
H967 H 0.89102 0.49518 0.64523 0.0
loop_
_geom_bond_atom_site_label_1
_geom_bond_atom_site_label_2
_geom_bond_distance
_geom_bond_site_symmetry_2
_ccdc_geom_bond_type
O0 Cd1 2.300 . S
O0 C7 1.275 . S
Cd1 O0 2.300 . S
Cd1 O9 2.381 . S
Cd1 O10 2.378 . S
O2 Cd3 2.385 . S
O2 C7 1.255 . S
Cd3 O2 2.385 . S
Cd3 O4 2.317 . S
O4 Cd3 2.317 . S
O4 C5 1.232 . S
C5 O4 1.232 . S
C5 O6 1.218 . S
O6 C5 1.218 . S
C7 O0 1.275 . S
C7 O2 1.255 . S
C8 O9 1.258 . S
C8 O10 1.256 . S
O9 Cd1 2.381 . S
O9 C8 1.258 . S
O10 Cd1 2.378 . S
O10 C8 1.256 . S
O11 Cd12 2.300 1_655 S
O11 C18 1.275 1_655 S
Cd12 O11 2.300 1_455 S
Cd12 O20 2.381 1_455 S
Cd12 O21 2.378 . S
O13 Cd14 2.385 . S
O13 C18 1.255 . S
Cd14 O13 2.385 . S
Cd14 O15 2.317 . S
O15 Cd14 2.317 . S
O15 C16 1.232 . S
C16 O15 1.232 . S
C16 O17 1.218 . S
O17 C16 1.218 . S
C18 O11 1.275 1_455 S
C18 O13 1.255 . S
C19 O20 1.258 1_455 S
C19 O21 1.256 . S
O20 Cd12 2.381 1_655 S
O20 C19 1.258 1_655 S
O21 Cd12 2.378 . S
O21 C19 1.256 . S
O22 Cd23 2.300 1_565 S
O22 C29 1.275 1_565 S
Cd23 O22 2.300 1_545 S
Cd23 O31 2.381 1_545 S
Cd23 O32 2.378 . S
O24 Cd25 2.385 . S
O24 C29 1.255 . S
Cd25 O24 2.385 . S
Cd25 O26 2.317 . S
O26 Cd25 2.317 . S
O26 C27 1.232 . S
C27 O26 1.232 . S
C27 O28 1.218 . S
O28 C27 1.218 . S
C29 O22 1.275 1_545 S
C29 O24 1.255 . S
C30 O31 1.258 1_545 S
C30 O32 1.256 . S
O31 Cd23 2.381 1_565 S
O31 C30 1.258 1_565 S
O32 Cd23 2.378 . S
O32 C30 1.256 . S
O33 Cd34 2.300 . S
O33 C40 1.275 . S
Cd34 O33 2.300 . S
Cd34 O42 2.381 . S
Cd34 O43 2.378 . S
O35 Cd36 2.385 . S
O35 C40 1.255 . S
Cd36 O35 2.385 . S
Cd36 O37 2.317 . S
O37 Cd36 2.317 . S
O37 C38 1.232 . S
C38 O37 1.232 . S
C38 O39 1.218 . S
O39 C38 1.218 . S
C40 O33 1.275 . S
C40 O35 1.255 . S
C41 O42 1.258 . S
C41 O43 1.256 . S
O42 Cd34 2.381 . S
O42 C41 1.258 . S
O43 Cd34 2.378 . S
O43 C41 1.256 . S
O44 Cd45 2.300 . S
O44 C51 1.275 . S
Cd45 O44 2.300 . S
Cd45 O53 2.381 . S
Cd45 O54 2.378 . S
O46 Cd47 2.385 . S
O46 C51 1.255 . S
Cd47 O46 2.385 . S
Cd47 O48 2.317 1_554 S
O48 Cd47 2.317 1_556 S
O48 C49 1.232 . S
C49 O48 1.232 . S
C49 O50 1.218 . S
O50 C49 1.218 . S
C51 O44 1.275 . S
C51 O46 1.255 . S
C52 O53 1.258 . S
C52 O54 1.256 . S
O53 Cd45 2.381 . S
O53 C52 1.258 . S
O54 Cd45 2.378 . S
O54 C52 1.256 . S
O55 Cd56 2.300 1_655 S
O55 C62 1.275 1_655 S
Cd56 O55 2.300 1_455 S
Cd56 O64 2.381 1_455 S
Cd56 O65 2.378 . S
O57 Cd58 2.385 . S
O57 C62 1.255 . S
Cd58 O57 2.385 . S
Cd58 O59 2.317 1_554 S
O59 Cd58 2.317 1_556 S
O59 C60 1.232 . S
C60 O59 1.232 . S
C60 O61 1.218 . S
O61 C60 1.218 . S
C62 O55 1.275 1_455 S
C62 O57 1.255 . S
C63 O64 1.258 1_455 S
C63 O65 1.256 . S
O64 Cd56 2.381 1_655 S
O64 C63 1.258 1_655 S
O65 Cd56 2.378 . S
O65 C63 1.256 . S
O66 Cd67 2.300 1_565 S
O66 C73 1.275 1_565 S
Cd67 O66 2.300 1_545 S
Cd67 O75 2.381 1_545 S
Cd67 O76 2.378 . S
O68 Cd69 2.385 . S
O68 C73 1.255 . S
Cd69 O68 2.385 . S
Cd69 O70 2.317 1_554 S
O70 Cd69 2.317 1_556 S
O70 C71 1.232 . S
C71 O70 1.232 . S
C71 O72 1.218 . S
O72 C71 1.218 . S
C73 O66 1.275 1_545 S
C73 O68 1.255 . S
C74 O75 1.258 1_545 S
C74 O76 1.256 . S
O75 Cd67 2.381 1_565 S
O75 C74 1.258 1_565 S
O76 Cd67 2.378 . S
O76 C74 1.256 . S
O77 Cd78 2.300 . S
O77 C84 1.275 . S
Cd78 O77 2.300 . S
Cd78 O86 2.381 . S
Cd78 O87 2.378 . S
O79 Cd80 2.385 . S
O79 C84 1.255 . S
Cd80 O79 2.385 . S
Cd80 O81 2.317 1_554 S
O81 Cd80 2.317 1_556 S
O81 C82 1.232 . S
C82 O81 1.232 . S
C82 O83 1.218 . S
O83 C82 1.218 . S
C84 O77 1.275 . S
C84 O79 1.255 . S
C85 O86 1.258 . S
C85 O87 1.256 . S
O86 Cd78 2.381 . S
O86 C85 1.258 . S
O87 Cd78 2.378 . S
O87 C85 1.256 . S
C88 Eu89 2.835 . S
C88 C90 1.500 . S
C88 O108 1.254 . S
C88 O109 1.260 . S
Eu89 C88 2.835 . S
Eu89 O108 2.471 . S
Eu89 O109 2.480 . S
Eu89 O110 2.430 . S
Eu89 O111 2.670 1_545 S
Eu89 O112 2.394 . S
Eu89 O117 2.355 1_655 S
Eu89 O119 2.374 1_545 S
C90 C88 1.500 . S
C90 C91 1.377 . S
C90 C95 1.410 . S
C91 C90 1.377 . S
C91 C92 1.395 . S
C91 H120 0.931 . S
C92 C91 1.395 . S
C92 C93 1.383 . S
C92 H121 0.931 . S
C93 C92 1.383 . S
C93 C94 1.394 . S
C94 C93 1.394 . S
C94 C95 1.381 . S
C94 H122 0.931 1_655 S
C95 C90 1.410 . S
C95 C94 1.381 . S
C95 H123 0.896 1_655 S
C96 O110 1.280 . S
C96 O111 1.256 1_545 S
C97 O112 1.251 1_455 S
C97 O113 1.251 . S
C98 Eu99 2.835 . S
C98 C100 1.500 . S
C98 O114 1.266 . S
C98 O115 1.260 . S
Eu99 C98 2.835 . S
Eu99 O111 2.355 1_455 S
Eu99 O113 2.374 1_565 S
Eu99 O114 2.477 . S
Eu99 O115 2.480 . S
Eu99 O116 2.430 . S
Eu99 O117 2.670 1_565 S
Eu99 O118 2.394 . S
C100 C98 1.500 . S
C100 C101 1.377 . S
C100 C105 1.422 . S
C101 C100 1.377 . S
C101 C102 1.395 . S
C101 H124 0.931 . S
C102 C101 1.395 . S
C102 C103 1.383 . S
C102 H125 0.931 . S
C103 C102 1.383 . S
C103 C104 1.394 . S
C104 C103 1.394 . S
C104 C105 1.382 . S
C104 H126 0.931 1_455 S
C105 C100 1.422 . S
C105 C104 1.382 . S
C105 H127 0.883 1_455 S
C106 O116 1.272 . S
C106 O117 1.261 1_565 S
C107 O118 1.251 1_655 S
C107 O119 1.251 . S
O108 C88 1.254 . S
O108 Eu89 2.471 . S
O109 C88 1.260 . S
O109 Eu89 2.480 . S
O110 Eu89 2.430 . S
O110 C96 1.280 . S
O111 Eu89 2.670 1_565 S
O111 C96 1.256 1_565 S
O111 Eu99 2.355 1_655 S
O112 Eu89 2.394 . S
O112 C97 1.251 1_655 S
O113 C97 1.251 . S
O113 Eu99 2.374 1_545 S
O114 C98 1.266 . S
O114 Eu99 2.477 . S
O115 C98 1.260 . S
O115 Eu99 2.480 . S
O116 Eu99 2.430 . S
O116 C106 1.272 . S
O117 Eu89 2.355 1_455 S
O117 Eu99 2.670 1_545 S
O117 C106 1.261 1_545 S
O118 Eu99 2.394 . S
O118 C107 1.251 1_455 S
O119 Eu89 2.374 1_565 S
O119 C107 1.251 . S
H120 C91 0.931 . S
H121 C92 0.931 . S
H122 C94 0.931 1_455 S
H123 C95 0.896 1_455 S
H124 C101 0.931 . S
H125 C102 0.931 . S
H126 C104 0.931 1_655 S
H127 C105 0.883 1_655 S
C128 Eu129 2.835 . S
C128 C130 1.500 . S
C128 O148 1.253 . S
C128 O149 1.260 . S
Eu129 C128 2.835 . S
Eu129 O148 2.471 . S
Eu129 O149 2.480 . S
Eu129 O150 2.430 . S
Eu129 O151 2.670 . S
Eu129 O152 2.394 . S
Eu129 O157 2.355 1_565 S
Eu129 O159 2.374 . S
C130 C128 1.500 . S
C130 C131 1.377 . S
C130 C135 1.409 . S
C131 C130 1.377 . S
C131 C132 1.395 . S
C131 H160 0.931 . S
C132 C131 1.395 . S
C132 C133 1.383 . S
C132 H161 0.931 . S
C133 C132 1.383 . S
C133 C134 1.394 . S
C134 C133 1.394 . S
C134 C135 1.381 . S
C134 H162 0.931 1_565 S
C135 C130 1.409 . S
C135 C134 1.381 . S
C135 H163 0.897 1_565 S
C136 O150 1.259 . S
C136 O151 1.270 . S
C137 O152 1.251 1_545 S
C137 O153 1.251 . S
C138 Eu139 2.835 . S
C138 C140 1.500 . S
C138 O154 1.265 . S
C138 O155 1.260 . S
Eu139 C138 2.835 . S
Eu139 O151 2.355 1_545 S
Eu139 O153 2.374 . S
Eu139 O154 2.476 . S
Eu139 O155 2.480 . S
Eu139 O156 2.430 . S
Eu139 O157 2.670 . S
Eu139 O158 2.394 . S
C140 C138 1.500 . S
C140 C141 1.377 . S
C140 C145 1.420 . S
C141 C140 1.377 . S
C141 C142 1.395 . S
C141 H164 0.931 . S
C142 C141 1.395 . S
C142 C143 1.383 . S
C142 H165 0.931 . S
C143 C142 1.383 . S
C143 C144 1.394 . S
C144 C143 1.394 . S
C144 C145 1.382 . S
C144 H166 0.931 1_545 S
C145 C140 1.420 . S
C145 C144 1.382 . S
C145 H167 0.885 1_545 S
C146 O156 1.259 . S
C146 O157 1.270 . S
C147 O158 1.251 1_565 S
C147 O159 1.251 . S
O148 C128 1.253 . S
O148 Eu129 2.471 . S
O149 C128 1.260 . S
O149 Eu129 2.480 . S
O150 Eu129 2.430 . S
O150 C136 1.259 . S
O151 Eu129 2.670 . S
O151 C136 1.270 . S
O151 Eu139 2.355 1_565 S
O152 Eu129 2.394 . S
O152 C137 1.251 1_565 S
O153 C137 1.251 . S
O153 Eu139 2.374 . S
O154 C138 1.265 . S
O154 Eu139 2.476 . S
O155 C138 1.260 . S
O155 Eu139 2.480 . S
O156 Eu139 2.430 . S
O156 C146 1.259 . S
O157 Eu129 2.355 1_545 S
O157 Eu139 2.670 . S
O157 C146 1.270 . S
O158 Eu139 2.394 . S
O158 C147 1.251 1_545 S
O159 Eu129 2.374 . S
O159 C147 1.251 . S
H160 C131 0.931 . S
H161 C132 0.931 . S
H162 C134 0.931 1_545 S
H163 C135 0.897 1_545 S
H164 C141 0.931 . S
H165 C142 0.931 . S
H166 C144 0.931 1_565 S
H167 C145 0.885 1_565 S
C168 Eu169 2.835 . S
C168 C170 1.500 . S
C168 O188 1.257 . S
C168 O189 1.260 . S
Eu169 C168 2.835 . S
Eu169 O188 2.473 . S
Eu169 O189 2.480 . S
Eu169 O190 2.430 . S
Eu169 O191 2.670 . S
Eu169 O192 2.394 . S
Eu169 O197 2.355 . S
Eu169 O199 2.374 . S
C170 C168 1.500 . S
C170 C171 1.377 . S
C170 C175 1.377 . S
C171 C170 1.377 . S
C171 C172 1.395 . S
C171 H200 0.931 . S
C172 C171 1.395 . S
C172 C173 1.383 . S
C172 H201 0.931 . S
C173 C172 1.383 . S
C173 C174 1.394 . S
C174 C173 1.394 . S
C174 C175 1.378 . S
C174 H202 0.931 . S
C175 C170 1.377 . S
C175 C174 1.378 . S
C175 H203 0.931 . S
C176 O190 1.259 . S
C176 O191 1.270 . S
C177 O192 1.251 . S
C177 O193 1.251 . S
C178 Eu179 2.835 . S
C178 C180 1.500 . S
C178 O194 1.257 . S
C178 O195 1.260 . S
Eu179 C178 2.835 . S
Eu179 O191 2.355 . S
Eu179 O193 2.374 . S
Eu179 O194 2.473 . S
Eu179 O195 2.480 . S
Eu179 O196 2.430 . S
Eu179 O197 2.670 . S
Eu179 O198 2.394 . S
C180 C178 1.500 . S
C180 C181 1.377 . S
C180 C185 1.377 . S
C181 C180 1.377 . S
C181 C182 1.395 . S
C181 H204 0.931 . S
C182 C181 1.395 . S
C182 C183 1.383 . S
C182 H205 0.931 . S
C183 C182 1.383 . S
C183 C184 1.394 . S
C184 C183 1.394 . S
C184 C185 1.378 . S
C184 H206 0.931 . S
C185 C180 1.377 . S
C185 C184 1.378 . S
C185 H207 0.931 . S
C186 O196 1.259 . S
C186 O197 1.270 . S
C187 O198 1.251 . S
C187 O199 1.251 . S
O188 C168 1.257 . S
O188 Eu169 2.473 . S
O189 C168 1.260 . S
O189 Eu169 2.480 . S
O190 Eu169 2.430 . S
O190 C176 1.259 . S
O191 Eu169 2.670 . S
O191 C176 1.270 . S
O191 Eu179 2.355 . S
O192 Eu169 2.394 . S
O192 C177 1.251 . S
O193 C177 1.251 . S
O193 Eu179 2.374 . S
O194 C178 1.257 . S
O194 Eu179 2.473 . S
O195 C178 1.260 . S
O195 Eu179 2.480 . S
O196 Eu179 2.430 . S
O196 C186 1.259 . S
O197 Eu169 2.355 . S
O197 Eu179 2.670 . S
O197 C186 1.270 . S
O198 Eu179 2.394 . S
O198 C187 1.251 . S
O199 Eu169 2.374 . S
O199 C187 1.251 . S
H200 C171 0.931 . S
H201 C172 0.931 . S
H202 C174 0.931 . S
H203 C175 0.931 . S
H204 C181 0.931 . S
H205 C182 0.931 . S
H206 C184 0.931 . S
H207 C185 0.931 . S
C208 Eu209 2.835 . S
C208 C210 1.500 . S
C208 O228 1.257 . S
C208 O229 1.260 . S
Eu209 C208 2.835 . S
Eu209 O228 2.473 . S
Eu209 O229 2.480 . S
Eu209 O230 2.430 . S
Eu209 O231 2.670 1_455 S
Eu209 O232 2.394 . S
Eu209 O237 2.355 . S
Eu209 O239 2.374 1_455 S
C210 C208 1.500 . S
C210 C211 1.377 . S
C210 C215 1.377 . S
C211 C210 1.377 . S
C211 C212 1.395 . S
C211 H240 0.931 . S
C212 C211 1.395 . S
C212 C213 1.383 . S
C212 H241 0.931 . S
C213 C212 1.383 . S
C213 C214 1.394 . S
C214 C213 1.394 . S
C214 C215 1.378 . S
C214 H242 0.931 . S
C215 C210 1.377 . S
C215 C214 1.378 . S
C215 H243 0.931 . S
C216 O230 1.280 . S
C216 O231 1.255 1_455 S
C217 O232 1.251 . S
C217 O233 1.251 . S
C218 Eu219 2.835 . S
C218 C220 1.500 . S
C218 O234 1.257 . S
C218 O235 1.260 . S
Eu219 C218 2.835 . S
Eu219 O231 2.355 . S
Eu219 O233 2.374 1_655 S
Eu219 O234 2.473 . S
Eu219 O235 2.480 . S
Eu219 O236 2.430 . S
Eu219 O237 2.670 1_655 S
Eu219 O238 2.394 . S
C220 C218 1.500 . S
C220 C221 1.377 . S
C220 C225 1.377 . S
C221 C220 1.377 . S
C221 C222 1.395 . S
C221 H244 0.931 . S
C222 C221 1.395 . S
C222 C223 1.383 . S
C222 H245 0.931 . S
C223 C222 1.383 . S
C223 C224 1.394 . S
C224 C223 1.394 . S
C224 C225 1.378 . S
C224 H246 0.931 . S
C225 C220 1.377 . S
C225 C224 1.378 . S
C225 H247 0.931 . S
C226 O236 1.273 . S
C226 O237 1.260 1_655 S
C227 O238 1.251 . S
C227 O239 1.251 . S
O228 C208 1.257 . S
O228 Eu209 2.473 . S
O229 C208 1.260 . S
O229 Eu209 2.480 . S
O230 Eu209 2.430 . S
O230 C216 1.280 . S
O231 Eu209 2.670 1_655 S
O231 C216 1.255 1_655 S
O231 Eu219 2.355 . S
O232 Eu209 2.394 . S
O232 C217 1.251 . S
O233 C217 1.251 . S
O233 Eu219 2.374 1_455 S
O234 C218 1.257 . S
O234 Eu219 2.473 . S
O235 C218 1.260 . S
O235 Eu219 2.480 . S
O236 Eu219 2.430 . S
O236 C226 1.273 . S
O237 Eu209 2.355 . S
O237 Eu219 2.670 1_455 S
O237 C226 1.260 1_455 S
O238 Eu219 2.394 . S
O238 C227 1.251 . S
O239 Eu209 2.374 1_655 S
O239 C227 1.251 . S
H240 C211 0.931 . S
H241 C212 0.931 . S
H242 C214 0.931 . S
H243 C215 0.931 . S
H244 C221 0.931 . S
H245 C222 0.931 . S
H246 C224 0.931 . S
H247 C225 0.931 . S
C248 C249 1.329 1_565 S
C248 C250 1.327 . S
C248 H273 0.950 . S
C249 C248 1.329 1_545 S
C249 C265 1.369 . S
C250 C248 1.327 . S
C250 C269 1.406 1_565 S
C250 H274 0.950 . S
C251 C268 1.574 . S
C251 C270 1.395 . S
C251 H275 0.949 . S
H252 C256 0.949 . S
C253 C254 1.383 . S
C253 C255 1.327 . S
C253 H276 0.950 . S
C254 C253 1.383 . S
C254 C266 1.316 1_545 S
C255 C253 1.327 . S
C255 C271 1.458 . S
C255 H277 0.950 . S
C256 H252 0.949 . S
C256 C264 1.574 . S
C256 C272 1.338 1_565 S
H257 C265 0.950 . S
H258 C263 0.950 . S
H259 C264 0.949 . S
H260 C266 0.950 . S
H261 C267 0.950 . S
H262 C268 0.949 . S
C263 H258 0.950 . S
C263 C265 1.327 . S
C263 C269 1.451 . S
C264 C256 1.574 . S
C264 H259 0.949 . S
C264 C270 1.342 1_565 S
C265 C249 1.369 . S
C265 H257 0.950 . S
C265 C263 1.327 . S
C266 C254 1.316 1_565 S
C266 H260 0.950 . S
C266 C267 1.327 . S
C267 H261 0.950 . S
C267 C266 1.327 . S
C267 C271 1.400 1_565 S
C268 C251 1.574 . S
C268 H262 0.949 . S
C268 C272 1.399 . S
C269 C250 1.406 1_545 S
C269 C263 1.451 . S
C269 C270 1.523 . S
C270 C251 1.395 . S
C270 C264 1.342 1_545 S
C270 C269 1.523 . S
C271 C255 1.458 . S
C271 C267 1.400 1_545 S
C271 C272 1.523 . S
C272 C256 1.338 1_545 S
C272 C268 1.399 . S
C272 C271 1.523 . S
H273 C248 0.950 . S
H274 C250 0.950 . S
H275 C251 0.949 . S
H276 C253 0.950 . S
H277 C255 0.950 . S
C278 C279 1.349 . S
C278 C280 1.327 . S
C278 H303 0.950 . S
C279 C278 1.349 . S
C279 C295 1.349 . S
C280 C278 1.327 . S
C280 C299 1.429 . S
C280 H304 0.950 . S
C281 C298 1.574 . S
C281 C300 1.368 . S
C281 H305 0.949 . S
H282 C286 0.949 . S
C283 C284 1.349 . S
C283 C285 1.327 . S
C283 H306 0.950 . S
C284 C283 1.349 . S
C284 C296 1.349 . S
C285 C283 1.327 . S
C285 C301 1.429 . S
C285 H307 0.950 . S
C286 H282 0.949 . S
C286 C294 1.574 . S
C286 C302 1.368 . S
H287 C295 0.950 . S
H288 C293 0.950 . S
H289 C294 0.949 . S
H290 C296 0.950 . S
H291 C297 0.950 . S
H292 C298 0.949 . S
C293 H288 0.950 . S
C293 C295 1.327 . S
C293 C299 1.429 . S
C294 C286 1.574 . S
C294 H289 0.949 . S
C294 C300 1.368 . S
C295 C279 1.349 . S
C295 H287 0.950 . S
C295 C293 1.327 . S
C296 C284 1.349 . S
C296 H290 0.950 . S
C296 C297 1.327 . S
C297 H291 0.950 . S
C297 C296 1.327 . S
C297 C301 1.429 . S
C298 C281 1.574 . S
C298 H292 0.949 . S
C298 C302 1.368 . S
C299 C280 1.429 . S
C299 C293 1.429 . S
C299 C300 1.523 . S
C300 C281 1.368 . S
C300 C294 1.368 . S
C300 C299 1.523 . S
C301 C285 1.429 . S
C301 C297 1.429 . S
C301 C302 1.523 . S
C302 C286 1.368 . S
C302 C298 1.368 . S
C302 C301 1.523 . S
H303 C278 0.950 . S
H304 C280 0.950 . S
H305 C281 0.949 . S
H306 C283 0.950 . S
H307 C285 0.950 . S
C308 C309 1.349 . S
C308 C310 1.327 . S
C308 H333 0.950 . S
C309 C308 1.349 . S
C309 C325 1.349 . S
C310 C308 1.327 . S
C310 C329 1.429 . S
C310 H334 0.950 . S
C311 C328 1.574 . S
C311 C330 1.368 . S
C311 H335 0.949 . S
H312 C316 0.949 . S
C313 C314 1.349 . S
C313 C315 1.327 . S
C313 H336 0.950 . S
C314 C313 1.349 . S
C314 C326 1.349 . S
C315 C313 1.327 . S
C315 C331 1.429 . S
C315 H337 0.950 . S
C316 H312 0.949 . S
C316 C324 1.574 . S
C316 C332 1.368 . S
H317 C325 0.950 . S
H318 C323 0.950 . S
H319 C324 0.949 . S
H320 C326 0.950 . S
H321 C327 0.950 . S
H322 C328 0.949 . S
C323 H318 0.950 . S
C323 C325 1.327 . S
C323 C329 1.429 . S
C324 C316 1.574 . S
C324 H319 0.949 . S
C324 C330 1.368 . S
C325 C309 1.349 . S
C325 H317 0.950 . S
C325 C323 1.327 . S
C326 C314 1.349 . S
C326 H320 0.950 . S
C326 C327 1.327 . S
C327 H321 0.950 . S
C327 C326 1.327 . S
C327 C331 1.429 . S
C328 C311 1.574 . S
C328 H322 0.949 . S
C328 C332 1.368 . S
C329 C310 1.429 . S
C329 C323 1.429 . S
C329 C330 1.523 . S
C330 C311 1.368 . S
C330 C324 1.368 . S
C330 C329 1.523 . S
C331 C315 1.429 . S
C331 C327 1.429 . S
C331 C332 1.523 . S
C332 C316 1.368 . S
C332 C328 1.368 . S
C332 C331 1.523 . S
H333 C308 0.950 . S
H334 C310 0.950 . S
H335 C311 0.949 . S
H336 C313 0.950 . S
H337 C315 0.950 . S
C338 C339 1.332 1_655 S
C338 C340 1.327 . S
C338 H363 0.950 . S
C339 C338 1.332 1_455 S
C339 C355 1.366 . S
C340 C338 1.327 . S
C340 C359 1.408 1_655 S
C340 H364 0.950 . S
C341 C358 1.574 . S
C341 C360 1.394 . S
C341 H365 0.949 . S
H342 C346 0.949 . S
C343 C344 1.385 . S
C343 C345 1.327 . S
C343 H366 0.950 . S
C344 C343 1.385 . S
C344 C356 1.313 1_455 S
C345 C343 1.327 . S
C345 C361 1.459 . S
C345 H367 0.950 . S
C346 H342 0.949 . S
C346 C354 1.574 . S
C346 C362 1.338 1_655 S
H347 C355 0.950 . S
H348 C353 0.950 . S
H349 C354 0.949 . S
H350 C356 0.950 . S
H351 C357 0.950 . S
H352 C358 0.949 . S
C353 H348 0.950 . S
C353 C355 1.327 . S
C353 C359 1.450 . S
C354 C346 1.574 . S
C354 H349 0.949 . S
C354 C360 1.343 1_655 S
C355 C339 1.366 . S
C355 H347 0.950 . S
C355 C353 1.327 . S
C356 C344 1.313 1_655 S
C356 H350 0.950 . S
C356 C357 1.327 . S
C357 H351 0.950 . S
C357 C356 1.327 . S
C357 C361 1.399 1_655 S
C358 C341 1.574 . S
C358 H352 0.949 . S
C358 C362 1.399 . S
C359 C340 1.408 1_455 S
C359 C353 1.450 . S
C359 C360 1.523 . S
C360 C341 1.394 . S
C360 C354 1.343 1_455 S
C360 C359 1.523 . S
C361 C345 1.459 . S
C361 C357 1.399 1_455 S
C361 C362 1.523 . S
C362 C346 1.338 1_455 S
C362 C358 1.399 . S
C362 C361 1.523 . S
H363 C338 0.950 . S
H364 C340 0.950 . S
H365 C341 0.949 . S
H366 C343 0.950 . S
H367 C345 0.950 . S
C368 C369 1.339 1_545 S
C368 C370 1.327 . S
C368 H393 0.950 . S
C369 C368 1.339 1_565 S
C369 C385 1.359 . S
C370 C368 1.327 . S
C370 C389 1.415 1_545 S
C370 H394 0.950 . S
C371 C388 1.574 . S
C371 C390 1.385 1_556 S
C371 H395 0.949 . S
H372 C376 0.949 . S
C373 C374 1.374 . S
C373 C375 1.327 . S
C373 H396 0.950 . S
C374 C373 1.374 . S
C374 C386 1.324 1_565 S
C375 C373 1.327 . S
C375 C391 1.449 . S
C375 H397 0.950 . S
C376 H372 0.949 . S
C376 C384 1.574 1_556 S
C376 C392 1.348 1_545 S
H377 C385 0.950 . S
H378 C383 0.950 . S
H379 C384 0.949 . S
H380 C386 0.950 . S
H381 C387 0.950 . S
H382 C388 0.949 . S
C383 H378 0.950 . S
C383 C385 1.327 . S
C383 C389 1.442 . S
C384 C376 1.574 1_554 S
C384 H379 0.949 . S
C384 C390 1.352 1_545 S
C385 C369 1.359 . S
C385 H377 0.950 . S
C385 C383 1.327 . S
C386 C374 1.324 1_545 S
C386 H380 0.950 . S
C386 C387 1.327 . S
C387 H381 0.950 . S
C387 C386 1.327 . S
C387 C391 1.408 1_545 S
C388 C371 1.574 . S
C388 H382 0.949 . S
C388 C392 1.389 . S
C389 C370 1.415 1_565 S
C389 C383 1.442 . S
C389 C390 1.523 . S
C390 C371 1.385 1_554 S
C390 C384 1.352 1_565 S
C390 C389 1.523 . S
C391 C375 1.449 . S
C391 C387 1.408 1_565 S
C391 C392 1.523 . S
C392 C376 1.348 1_565 S
C392 C388 1.389 . S
C392 C391 1.523 . S
H393 C368 0.950 . S
H394 C370 0.950 . S
H395 C371 0.949 . S
H396 C373 0.950 . S
H397 C375 0.950 . S
C398 C399 1.349 . S
C398 C400 1.327 . S
C398 H423 0.950 . S
C399 C398 1.349 . S
C399 C415 1.349 . S
C400 C398 1.327 . S
C400 C419 1.429 . S
C400 H424 0.950 . S
C401 C418 1.574 1_554 S
C401 C420 1.368 . S
C401 H425 0.949 . S
H402 C406 0.949 . S
C403 C404 1.349 . S
C403 C405 1.327 . S
C403 H426 0.950 . S
C404 C403 1.349 . S
C404 C416 1.349 . S
C405 C403 1.327 . S
C405 C421 1.429 . S
C405 H427 0.950 . S
C406 H402 0.949 . S
C406 C414 1.574 . S
C406 C422 1.368 . S
H407 C415 0.950 . S
H408 C413 0.950 . S
H409 C414 0.949 . S
H410 C416 0.950 . S
H411 C417 0.950 . S
H412 C418 0.949 . S
C413 H408 0.950 . S
C413 C415 1.327 . S
C413 C419 1.429 . S
C414 C406 1.574 . S
C414 H409 0.949 . S
C414 C420 1.368 1_556 S
C415 C399 1.349 . S
C415 H407 0.950 . S
C415 C413 1.327 . S
C416 C404 1.349 . S
C416 H410 0.950 . S
C416 C417 1.327 . S
C417 H411 0.950 . S
C417 C416 1.327 . S
C417 C421 1.429 . S
C418 C401 1.574 1_556 S
C418 H412 0.949 . S
C418 C422 1.368 . S
C419 C400 1.429 . S
C419 C413 1.429 . S
C419 C420 1.523 . S
C420 C401 1.368 . S
C420 C414 1.368 1_554 S
C420 C419 1.523 . S
C421 C405 1.429 . S
C421 C417 1.429 . S
C421 C422 1.523 . S
C422 C406 1.368 . S
C422 C418 1.368 . S
C422 C421 1.523 . S
H423 C398 0.950 . S
H424 C400 0.950 . S
H425 C401 0.949 . S
H426 C403 0.950 . S
H427 C405 0.950 . S
C428 C429 1.349 . S
C428 C430 1.327 . S
C428 H453 0.950 . S
C429 C428 1.349 . S
C429 C445 1.349 . S
C430 C428 1.327 . S
C430 C449 1.429 . S
C430 H454 0.950 . S
C431 C448 1.574 . S
C431 C450 1.368 1_556 S
C431 H455 0.949 . S
H432 C436 0.949 . S
C433 C434 1.349 . S
C433 C435 1.327 . S
C433 H456 0.950 . S
C434 C433 1.349 . S
C434 C446 1.349 . S
C435 C433 1.327 . S
C435 C451 1.429 . S
C435 H457 0.950 . S
C436 H432 0.949 . S
C436 C444 1.574 1_556 S
C436 C452 1.368 . S
H437 C445 0.950 . S
H438 C443 0.950 . S
H439 C444 0.949 . S
H440 C446 0.950 . S
H441 C447 0.950 . S
H442 C448 0.949 . S
C443 H438 0.950 . S
C443 C445 1.327 . S
C443 C449 1.429 . S
C444 C436 1.574 1_554 S
C444 H439 0.949 . S
C444 C450 1.368 . S
C445 C429 1.349 . S
C445 H437 0.950 . S
C445 C443 1.327 . S
C446 C434 1.349 . S
C446 H440 0.950 . S
C446 C447 1.327 . S
C447 H441 0.950 . S
C447 C446 1.327 . S
C447 C451 1.429 . S
C448 C431 1.574 . S
C448 H442 0.949 . S
C448 C452 1.368 . S
C449 C430 1.429 . S
C449 C443 1.429 . S
C449 C450 1.523 . S
C450 C431 1.368 1_554 S
C450 C444 1.368 . S
C450 C449 1.523 . S
C451 C435 1.429 . S
C451 C447 1.429 . S
C451 C452 1.523 . S
C452 C436 1.368 . S
C452 C448 1.368 . S
C452 C451 1.523 . S
H453 C428 0.950 . S
H454 C430 0.950 . S
H455 C431 0.949 . S
H456 C433 0.950 . S
H457 C435 0.950 . S
C458 C459 1.356 . S
C458 C460 1.327 . S
C458 H483 0.950 . S
C459 C458 1.356 . S
C459 C475 1.342 1_655 S
C460 C458 1.327 . S
C460 C479 1.439 . S
C460 H484 0.950 . S
C461 C478 1.574 . S
C461 C480 1.355 1_456 S
C461 H485 0.949 . S
H462 C466 0.949 . S
C463 C464 1.326 1_455 S
C463 C465 1.327 . S
C463 H486 0.950 . S
C464 C463 1.326 1_655 S
C464 C476 1.372 . S
C465 C463 1.327 . S
C465 C481 1.410 1_455 S
C465 H487 0.950 . S
C466 H462 0.949 . S
C466 C474 1.574 1_556 S
C466 C482 1.386 . S
H467 C475 0.950 . S
H468 C473 0.950 . S
H469 C474 0.949 . S
H470 C476 0.950 . S
H471 C477 0.950 . S
H472 C478 0.949 . S
C473 H468 0.950 . S
C473 C475 1.327 . S
C473 C479 1.418 1_455 S
C474 C466 1.574 1_554 S
C474 H469 0.949 . S
C474 C480 1.382 . S
C475 C459 1.342 1_455 S
C475 H467 0.950 . S
C475 C473 1.327 . S
C476 C464 1.372 . S
C476 H470 0.950 . S
C476 C477 1.327 . S
C477 H471 0.950 . S
C477 C476 1.327 . S
C477 C481 1.447 . S
C478 C461 1.574 . S
C478 H472 0.949 . S
C478 C482 1.351 1_455 S
C479 C460 1.439 . S
C479 C473 1.418 1_655 S
C479 C480 1.523 . S
C480 C461 1.355 1_654 S
C480 C474 1.382 . S
C480 C479 1.523 . S
C481 C465 1.410 1_655 S
C481 C477 1.447 . S
C481 C482 1.523 . S
C482 C466 1.386 . S
C482 C478 1.351 1_655 S
C482 C481 1.523 . S
H483 C458 0.950 . S
H484 C460 0.950 . S
H485 C461 0.949 . S
H486 C463 0.950 . S
H487 C465 0.950 . S
C488 C489 1.349 1_655 S
C488 C490 1.327 . S
C488 H513 0.950 . S
C489 C488 1.349 1_455 S
C489 C505 1.349 . S
C490 C488 1.327 . S
C490 C509 1.429 . S
C490 H514 0.950 . S
C491 C508 1.574 1_455 S
C491 C510 1.368 1_455 S
C491 H515 0.949 . S
H492 C496 0.949 . S
C493 C494 1.349 . S
C493 C495 1.327 . S
C493 H516 0.950 . S
C494 C493 1.349 . S
C494 C506 1.349 . S
C495 C493 1.327 . S
C495 C511 1.429 . S
C495 H517 0.964 . S
C496 H492 0.949 . S
C496 C504 1.574 . S
C496 C512 1.368 . S
H497 C505 0.950 . S
H498 C503 0.950 . S
H499 C504 0.949 . S
H500 C506 0.950 . S
H501 C507 0.950 . S
H502 C508 0.949 1_455 S
C503 H498 0.950 . S
C503 C505 1.327 . S
C503 C509 1.429 1_455 S
C504 C496 1.574 . S
C504 H499 0.949 . S
C504 C510 1.368 . S
C505 C489 1.349 . S
C505 H497 0.950 . S
C505 C503 1.327 . S
C506 C494 1.349 . S
C506 H500 0.950 . S
C506 C507 1.327 . S
C507 H501 0.950 . S
C507 C506 1.327 . S
C507 C511 1.429 . S
C508 C491 1.574 1_655 S
C508 H502 0.949 1_655 S
C508 C512 1.368 . S
C509 C490 1.429 . S
C509 C503 1.429 1_655 S
C509 C510 1.523 . S
C510 C491 1.368 1_655 S
C510 C504 1.368 . S
C510 C509 1.523 . S
C511 C495 1.429 . S
C511 C507 1.429 . S
C511 C512 1.523 . S
C512 C496 1.368 . S
C512 C508 1.368 . S
C512 C511 1.523 . S
H513 C488 0.950 . S
H514 C490 0.950 . S
H515 C491 0.949 . S
H516 C493 0.950 . S
H517 C495 0.964 . S
C518 C519 1.349 1_565 S
C518 C520 1.327 . S
C518 H543 0.950 . S
C519 C518 1.349 1_545 S
C519 C535 1.349 . S
C520 C518 1.327 . S
C520 C539 1.429 . S
C520 H544 0.950 . S
C521 C538 1.573 1_545 S
C521 C540 1.368 1_545 S
C521 H545 0.949 . S
H522 C526 0.949 . S
C523 C524 1.349 . S
C523 C525 1.327 . S
C523 H546 0.950 . S
C524 C523 1.349 . S
C524 C536 1.349 . S
C525 C523 1.327 . S
C525 C541 1.429 . S
C525 H547 0.950 1_565 S
C526 H522 0.949 . S
C526 C534 1.574 . S
C526 C542 1.368 . S
H527 C535 0.950 . S
H528 C533 0.950 . S
H529 C534 0.949 . S
H530 C536 0.950 . S
H531 C537 0.950 . S
H532 C538 0.947 1_545 S
C533 H528 0.950 . S
C533 C535 1.327 . S
C533 C539 1.429 1_545 S
C534 C526 1.574 . S
C534 H529 0.949 . S
C534 C540 1.368 . S
C535 C519 1.349 . S
C535 H527 0.950 . S
C535 C533 1.327 . S
C536 C524 1.349 . S
C536 H530 0.950 . S
C536 C537 1.327 . S
C537 H531 0.950 . S
C537 C536 1.327 . S
C537 C541 1.429 . S
C538 C521 1.573 1_565 S
C538 H532 0.947 1_565 S
C538 C542 1.372 . S
C539 C520 1.429 . S
C539 C533 1.429 1_565 S
C539 C540 1.523 . S
C540 C521 1.368 1_565 S
C540 C534 1.368 . S
C540 C539 1.523 . S
C541 C525 1.429 . S
C541 C537 1.429 . S
C541 C542 1.523 . S
C542 C526 1.368 . S
C542 C538 1.372 . S
C542 C541 1.523 . S
H543 C518 0.950 . S
H544 C520 0.950 . S
H545 C521 0.949 . S
H546 C523 0.950 . S
H547 C525 0.950 1_545 S
C548 C549 1.349 . S
C548 C550 1.327 . S
C548 H573 0.950 . S
C549 C548 1.349 . S
C549 C565 1.349 . S
C550 C548 1.327 . S
C550 C569 1.429 . S
C550 H574 0.950 . S
C551 C568 1.574 . S
C551 C570 1.368 . S
C551 H575 0.949 . S
H552 C556 0.949 . S
C553 C554 1.349 . S
C553 C555 1.327 . S
C553 H576 0.950 . S
C554 C553 1.349 . S
C554 C566 1.349 . S
C555 C553 1.327 . S
C555 C571 1.429 . S
C555 H577 0.950 . S
C556 H552 0.949 . S
C556 C564 1.574 . S
C556 C572 1.368 . S
H557 C565 0.950 . S
H558 C563 0.950 . S
H559 C564 0.949 . S
H560 C566 0.950 . S
H561 C567 0.950 . S
H562 C568 0.949 . S
C563 H558 0.950 . S
C563 C565 1.327 . S
C563 C569 1.429 . S
C564 C556 1.574 . S
C564 H559 0.949 . S
C564 C570 1.368 . S
C565 C549 1.349 . S
C565 H557 0.950 . S
C565 C563 1.327 . S
C566 C554 1.349 . S
C566 H560 0.950 . S
C566 C567 1.327 . S
C567 H561 0.950 . S
C567 C566 1.327 . S
C567 C571 1.429 . S
C568 C551 1.574 . S
C568 H562 0.949 . S
C568 C572 1.368 . S
C569 C550 1.429 . S
C569 C563 1.429 . S
C569 C570 1.523 . S
C570 C551 1.368 . S
C570 C564 1.368 . S
C570 C569 1.523 . S
C571 C555 1.429 . S
C571 C567 1.429 . S
C571 C572 1.523 . S
C572 C556 1.368 . S
C572 C568 1.368 . S
C572 C571 1.523 . S
H573 C548 0.950 . S
H574 C550 0.950 . S
H575 C551 0.949 . S
H576 C553 0.950 . S
H577 C555 0.950 . S
C578 C579 1.349 . S
C578 C580 1.327 . S
C578 H603 0.950 . S
C579 C578 1.349 . S
C579 C595 1.349 . S
C580 C578 1.327 . S
C580 C599 1.429 . S
C580 H604 0.950 . S
C581 C598 1.574 . S
C581 C600 1.368 . S
C581 H605 0.949 . S
H582 C586 0.949 . S
C583 C584 1.349 . S
C583 C585 1.327 . S
C583 H606 0.950 . S
C584 C583 1.349 . S
C584 C596 1.349 . S
C585 C583 1.327 . S
C585 C601 1.429 . S
C585 H607 0.950 . S
C586 H582 0.949 . S
C586 C594 1.574 . S
C586 C602 1.368 . S
H587 C595 0.950 . S
H588 C593 0.950 . S
H589 C594 0.949 . S
H590 C596 0.950 . S
H591 C597 0.950 . S
H592 C598 0.949 . S
C593 H588 0.950 . S
C593 C595 1.327 . S
C593 C599 1.429 . S
C594 C586 1.574 . S
C594 H589 0.949 . S
C594 C600 1.368 . S
C595 C579 1.349 . S
C595 H587 0.950 . S
C595 C593 1.327 . S
C596 C584 1.349 . S
C596 H590 0.950 . S
C596 C597 1.327 . S
C597 H591 0.950 . S
C597 C596 1.327 . S
C597 C601 1.429 . S
C598 C581 1.574 . S
C598 H592 0.949 . S
C598 C602 1.368 . S
C599 C580 1.429 . S
C599 C593 1.429 . S
C599 C600 1.523 . S
C600 C581 1.368 . S
C600 C594 1.368 . S
C600 C599 1.523 . S
C601 C585 1.429 . S
C601 C597 1.429 . S
C601 C602 1.523 . S
C602 C586 1.368 . S
C602 C598 1.368 . S
C602 C601 1.523 . S
H603 C578 0.950 . S
H604 C580 0.950 . S
H605 C581 0.949 . S
H606 C583 0.950 . S
H607 C585 0.950 . S
C608 C609 1.308 1_455 S
C608 C610 1.327 . S
C608 H633 0.950 . S
C609 C608 1.308 1_655 S
C609 C625 1.383 . S
C610 C608 1.327 . S
C610 C629 1.429 . S
C610 H634 0.950 . S
C611 C628 1.574 . S
C611 C630 1.368 1_655 S
C611 H635 0.949 . S
H612 C616 0.949 . S
C613 C614 1.349 . S
C613 C615 1.327 . S
C613 H636 0.943 1_455 S
C614 C613 1.349 . S
C614 C626 1.349 . S
C615 C613 1.327 . S
C615 C631 1.429 . S
C615 H637 0.950 1_455 S
C616 H612 0.949 . S
C616 C624 1.574 . S
C616 C632 1.368 . S
H617 C625 0.950 . S
H618 C623 0.950 . S
H619 C624 0.949 . S
H620 C626 0.950 . S
H621 C627 0.950 . S
H622 C628 0.949 1_556 S
C623 H618 0.950 . S
C623 C625 1.327 . S
C623 C629 1.429 1_655 S
C624 C616 1.574 . S
C624 H619 0.949 . S
C624 C630 1.368 . S
C625 C609 1.383 . S
C625 H617 0.950 . S
C625 C623 1.327 . S
C626 C614 1.349 . S
C626 H620 0.950 . S
C626 C627 1.327 1_556 S
C627 H621 0.950 . S
C627 C626 1.327 1_554 S
C627 C631 1.429 1_554 S
C628 C611 1.574 . S
C628 H622 0.949 1_554 S
C628 C632 1.368 1_655 S
C629 C610 1.429 . S
C629 C623 1.429 1_455 S
C629 C630 1.523 . S
C630 C611 1.368 1_455 S
C630 C624 1.368 . S
C630 C629 1.523 . S
C631 C615 1.429 . S
C631 C627 1.429 1_556 S
C631 C632 1.523 1_556 S
C632 C616 1.368 . S
C632 C628 1.368 1_455 S
C632 C631 1.523 1_554 S
H633 C608 0.950 . S
H634 C610 0.950 . S
H635 C611 0.949 . S
H636 C613 0.943 1_655 S
H637 C615 0.950 1_655 S
C638 C639 1.292 1_545 S
C638 C640 1.327 . S
C638 H663 0.950 . S
C639 C638 1.292 1_565 S
C639 C655 1.398 . S
C640 C638 1.327 . S
C640 C659 1.429 . S
C640 H664 0.950 . S
C641 C658 1.574 . S
C641 C660 1.368 1_565 S
C641 H665 0.949 . S
H642 C646 0.949 . S
C643 C644 1.349 . S
C643 C645 1.332 . S
C643 H666 0.950 1_545 S
C644 C643 1.349 . S
C644 C656 1.349 . S
C645 C643 1.332 . S
C645 C661 1.449 . S
C645 H667 0.924 1_545 S
C646 H642 0.949 . S
C646 C654 1.574 . S
C646 C662 1.368 . S
H647 C655 0.950 . S
H648 C653 0.950 . S
H649 C654 0.949 . S
H650 C656 0.950 . S
H651 C657 0.950 . S
H652 C658 0.949 . S
C653 H648 0.950 . S
C653 C655 1.327 . S
C653 C659 1.429 1_565 S
C654 C646 1.574 . S
C654 H649 0.949 . S
C654 C660 1.368 . S
C655 C639 1.398 . S
C655 H647 0.950 . S
C655 C653 1.327 . S
C656 C644 1.349 . S
C656 H650 0.950 . S
C656 C657 1.327 . S
C657 H651 0.950 . S
C657 C656 1.327 . S
C657 C661 1.429 . S
C658 C641 1.574 . S
C658 H652 0.949 . S
C658 C662 1.368 1_565 S
C659 C640 1.429 . S
C659 C653 1.429 1_545 S
C659 C660 1.523 . S
C660 C641 1.368 1_545 S
C660 C654 1.368 . S
C660 C659 1.523 . S
C661 C645 1.449 . S
C661 C657 1.429 . S
C661 C662 1.523 1_556 S
C662 C646 1.368 . S
C662 C658 1.368 1_545 S
C662 C661 1.523 1_554 S
H663 C638 0.950 . S
H664 C640 0.950 . S
H665 C641 0.949 . S
H666 C643 0.950 1_565 S
H667 C645 0.924 1_565 S
C668 C669 1.349 . S
C668 C670 1.327 . S
C668 H693 0.950 . S
C669 C668 1.349 . S
C669 C685 1.349 . S
C670 C668 1.327 . S
C670 C689 1.429 . S
C670 H694 0.950 . S
C671 C688 1.574 . S
C671 C690 1.368 . S
C671 H695 0.949 . S
H672 C676 0.949 1_556 S
C673 C674 1.349 . S
C673 C675 1.327 1_556 S
C673 H696 0.950 . S
C674 C673 1.349 . S
C674 C686 1.349 . S
C675 C673 1.327 1_554 S
C675 C691 1.429 1_554 S
C675 H697 0.950 . S
C676 H672 0.949 1_554 S
C676 C684 1.574 . S
C676 C692 1.368 . S
H677 C685 0.950 . S
H678 C683 0.950 . S
H679 C684 0.949 . S
H680 C686 0.950 . S
H681 C687 0.950 . S
H682 C688 0.949 . S
C683 H678 0.950 . S
C683 C685 1.327 . S
C683 C689 1.429 . S
C684 C676 1.574 . S
C684 H679 0.949 . S
C684 C690 1.368 . S
C685 C669 1.349 . S
C685 H677 0.950 . S
C685 C683 1.327 . S
C686 C674 1.349 . S
C686 H680 0.950 . S
C686 C687 1.327 . S
C687 H681 0.950 . S
C687 C686 1.327 . S
C687 C691 1.429 . S
C688 C671 1.574 . S
C688 H682 0.949 . S
C688 C692 1.368 . S
C689 C670 1.429 . S
C689 C683 1.429 . S
C689 C690 1.523 . S
C690 C671 1.368 . S
C690 C684 1.368 . S
C690 C689 1.523 . S
C691 C675 1.429 1_556 S
C691 C687 1.429 . S
C691 C692 1.523 1_556 S
C692 C676 1.368 . S
C692 C688 1.368 . S
C692 C691 1.523 1_554 S
H693 C668 0.950 . S
H694 C670 0.950 . S
H695 C671 0.949 . S
H696 C673 0.950 . S
H697 C675 0.950 . S
C698 C699 1.349 . S
C698 C700 1.327 . S
C698 H723 0.950 . S
C699 C698 1.349 . S
C699 C715 1.349 . S
C700 C698 1.327 . S
C700 C719 1.429 . S
C700 H724 0.950 . S
C701 C718 1.574 . S
C701 C720 1.368 . S
C701 H725 0.949 . S
H702 C706 0.949 . S
C703 C704 1.349 . S
C703 C705 1.327 . S
C703 H726 0.950 . S
C704 C703 1.349 . S
C704 C716 1.349 . S
C705 C703 1.327 . S
C705 C721 1.429 . S
C705 H727 0.950 . S
C706 H702 0.949 . S
C706 C714 1.574 . S
C706 C722 1.368 . S
H707 C715 0.950 . S
H708 C713 0.950 . S
H709 C714 0.949 . S
H710 C716 0.950 . S
H711 C717 0.950 . S
H712 C718 0.949 . S
C713 H708 0.950 . S
C713 C715 1.327 . S
C713 C719 1.429 . S
C714 C706 1.574 . S
C714 H709 0.949 . S
C714 C720 1.368 . S
C715 C699 1.349 . S
C715 H707 0.950 . S
C715 C713 1.327 . S
C716 C704 1.349 . S
C716 H710 0.950 . S
C716 C717 1.327 . S
C717 H711 0.950 . S
C717 C716 1.327 . S
C717 C721 1.429 . S
C718 C701 1.574 . S
C718 H712 0.949 . S
C718 C722 1.368 . S
C719 C700 1.429 . S
C719 C713 1.429 . S
C719 C720 1.523 . S
C720 C701 1.368 . S
C720 C714 1.368 . S
C720 C719 1.523 . S
C721 C705 1.429 . S
C721 C717 1.429 . S
C721 C722 1.523 1_556 S
C722 C706 1.368 . S
C722 C718 1.368 . S
C722 C721 1.523 1_554 S
H723 C698 0.950 . S
H724 C700 0.950 . S
H725 C701 0.949 . S
H726 C703 0.950 . S
H727 C705 0.950 . S
C728 C729 1.349 1_655 S
C728 C730 1.327 . S
C728 H753 0.950 . S
C729 C728 1.349 1_455 S
C729 C745 1.349 . S
C730 C728 1.327 . S
C730 C749 1.429 1_655 S
C730 H754 0.950 . S
C731 C748 1.574 . S
C731 C750 1.368 . S
C731 H755 0.949 . S
H732 C736 0.949 . S
C733 C734 1.349 . S
C733 C735 1.327 . S
C733 H756 0.950 . S
C734 C733 1.349 . S
C734 C746 1.327 1_455 S
C735 C733 1.327 . S
C735 C751 1.429 . S
C735 H757 0.950 . S
C736 H732 0.949 . S
C736 C744 1.574 . S
C736 C752 1.368 1_655 S
H737 C745 0.950 . S
H738 C743 0.950 . S
H739 C744 0.949 . S
H740 C746 0.971 . S
H741 C747 0.950 . S
H742 C748 0.949 . S
C743 H738 0.950 . S
C743 C745 1.327 . S
C743 C749 1.429 . S
C744 C736 1.574 . S
C744 H739 0.949 . S
C744 C750 1.368 1_655 S
C745 C729 1.349 . S
C745 H737 0.950 . S
C745 C743 1.327 . S
C746 C734 1.327 1_655 S
C746 H740 0.971 . S
C746 C747 1.331 . S
C747 H741 0.950 . S
C747 C746 1.331 . S
C747 C751 1.429 1_655 S
C748 C731 1.574 . S
C748 H742 0.949 . S
C748 C752 1.368 . S
C749 C730 1.429 1_455 S
C749 C743 1.429 . S
C749 C750 1.523 . S
C750 C731 1.368 . S
C750 C744 1.368 1_455 S
C750 C749 1.523 . S
C751 C735 1.429 . S
C751 C747 1.429 1_455 S
C751 C752 1.523 . S
C752 C736 1.368 1_455 S
C752 C748 1.368 . S
C752 C751 1.523 . S
H753 C728 0.950 . S
H754 C730 0.950 . S
H755 C731 0.949 . S
H756 C733 0.950 . S
H757 C735 0.950 . S
C758 C759 1.349 1_565 S
C758 C760 1.327 . S
C758 H783 0.950 . S
C759 C758 1.349 1_545 S
C759 C775 1.349 . S
C760 C758 1.327 . S
C760 C779 1.429 1_565 S
C760 H784 0.950 . S
C761 C778 1.574 . S
C761 C780 1.368 . S
C761 H785 0.949 . S
H762 C766 0.949 . S
C763 C764 1.349 . S
C763 C765 1.327 . S
C763 H786 0.950 . S
C764 C763 1.349 . S
C764 C776 1.349 1_545 S
C765 C763 1.327 . S
C765 C781 1.429 . S
C765 H787 0.950 . S
C766 H762 0.949 . S
C766 C774 1.574 . S
C766 C782 1.368 1_565 S
H767 C775 0.950 . S
H768 C773 0.950 . S
H769 C774 0.949 . S
H770 C776 0.950 . S
H771 C777 0.950 . S
H772 C778 0.949 . S
C773 H768 0.950 . S
C773 C775 1.327 . S
C773 C779 1.429 . S
C774 C766 1.574 . S
C774 H769 0.949 . S
C774 C780 1.368 1_565 S
C775 C759 1.349 . S
C775 H767 0.950 . S
C775 C773 1.327 . S
C776 C764 1.349 1_565 S
C776 H770 0.950 . S
C776 C777 1.327 . S
C777 H771 0.950 . S
C777 C776 1.327 . S
C777 C781 1.429 1_565 S
C778 C761 1.574 . S
C778 H772 0.949 . S
C778 C782 1.368 . S
C779 C760 1.429 1_545 S
C779 C773 1.429 . S
C779 C780 1.523 . S
C780 C761 1.368 . S
C780 C774 1.368 1_545 S
C780 C779 1.523 . S
C781 C765 1.429 . S
C781 C777 1.429 1_545 S
C781 C782 1.523 . S
C782 C766 1.368 1_545 S
C782 C778 1.368 . S
C782 C781 1.523 . S
H783 C758 0.950 . S
H784 C760 0.950 . S
H785 C761 0.949 . S
H786 C763 0.950 . S
H787 C765 0.950 . S
C788 C789 1.349 . S
C788 C790 1.327 . S
C788 H813 0.950 . S
C789 C788 1.349 . S
C789 C805 1.349 . S
C790 C788 1.327 . S
C790 C809 1.429 . S
C790 H814 0.950 . S
C791 C808 1.574 . S
C791 C810 1.368 . S
C791 H815 0.949 . S
H792 C796 0.949 . S
C793 C794 1.349 . S
C793 C795 1.327 . S
C793 H816 0.950 . S
C794 C793 1.349 . S
C794 C806 1.349 . S
C795 C793 1.327 . S
C795 C811 1.429 . S
C795 H817 0.950 . S
C796 H792 0.949 . S
C796 C804 1.574 . S
C796 C812 1.368 . S
H797 C805 0.950 . S
H798 C803 0.950 . S
H799 C804 0.949 . S
H800 C806 0.950 . S
H801 C807 0.950 . S
H802 C808 0.949 . S
C803 H798 0.950 . S
C803 C805 1.327 . S
C803 C809 1.429 . S
C804 C796 1.574 . S
C804 H799 0.949 . S
C804 C810 1.368 . S
C805 C789 1.349 . S
C805 H797 0.950 . S
C805 C803 1.327 . S
C806 C794 1.349 . S
C806 H800 0.950 . S
C806 C807 1.327 . S
C807 H801 0.950 . S
C807 C806 1.327 . S
C807 C811 1.429 . S
C808 C791 1.574 . S
C808 H802 0.949 . S
C808 C812 1.368 . S
C809 C790 1.429 . S
C809 C803 1.429 . S
C809 C810 1.523 . S
C810 C791 1.368 . S
C810 C804 1.368 . S
C810 C809 1.523 . S
C811 C795 1.429 . S
C811 C807 1.429 . S
C811 C812 1.523 . S
C812 C796 1.368 . S
C812 C808 1.368 . S
C812 C811 1.523 . S
H813 C788 0.950 . S
H814 C790 0.950 . S
H815 C791 0.949 . S
H816 C793 0.950 . S
H817 C795 0.950 . S
C818 C819 1.349 . S
C818 C820 1.327 . S
C818 H843 0.950 . S
C819 C818 1.349 . S
C819 C835 1.349 . S
C820 C818 1.327 . S
C820 C839 1.429 . S
C820 H844 0.950 . S
C821 C838 1.574 . S
C821 C840 1.368 . S
C821 H845 0.949 . S
H822 C826 0.949 . S
C823 C824 1.349 . S
C823 C825 1.327 . S
C823 H846 0.950 . S
C824 C823 1.349 . S
C824 C836 1.349 . S
C825 C823 1.327 . S
C825 C841 1.429 . S
C825 H847 0.950 . S
C826 H822 0.949 . S
C826 C834 1.574 . S
C826 C842 1.368 . S
H827 C835 0.950 . S
H828 C833 0.950 . S
H829 C834 0.949 . S
H830 C836 0.950 . S
H831 C837 0.950 . S
H832 C838 0.949 . S
C833 H828 0.950 . S
C833 C835 1.327 . S
C833 C839 1.429 . S
C834 C826 1.574 . S
C834 H829 0.949 . S
C834 C840 1.368 . S
C835 C819 1.349 . S
C835 H827 0.950 . S
C835 C833 1.327 . S
C836 C824 1.349 . S
C836 H830 0.950 . S
C836 C837 1.327 . S
C837 H831 0.950 . S
C837 C836 1.327 . S
C837 C841 1.429 . S
C838 C821 1.574 . S
C838 H832 0.949 . S
C838 C842 1.368 . S
C839 C820 1.429 . S
C839 C833 1.429 . S
C839 C840 1.523 . S
C840 C821 1.368 . S
C840 C834 1.368 . S
C840 C839 1.523 . S
C841 C825 1.429 . S
C841 C837 1.429 . S
C841 C842 1.523 . S
C842 C826 1.368 . S
C842 C838 1.368 . S
C842 C841 1.523 . S
H843 C818 0.950 . S
H844 C820 0.950 . S
H845 C821 0.949 . S
H846 C823 0.950 . S
H847 C825 0.950 . S
C848 C849 1.383 . S
C848 C850 1.327 . S
C848 H873 0.950 . S
C849 C848 1.383 . S
C849 C865 1.319 1_655 S
C850 C848 1.327 . S
C850 C869 1.429 . S
C850 H874 0.950 . S
C851 C868 1.574 . S
C851 C870 1.368 1_455 S
C851 H875 0.949 . S
H852 C856 0.949 . S
C853 C854 1.349 1_455 S
C853 C855 1.327 . S
C853 H876 0.950 . S
C854 C853 1.349 1_655 S
C854 C866 1.349 . S
C855 C853 1.327 . S
C855 C871 1.429 1_455 S
C855 H877 0.950 . S
C856 H852 0.949 . S
C856 C864 1.574 . S
C856 C872 1.368 . S
H857 C865 0.950 . S
H858 C863 0.950 . S
H859 C864 0.949 . S
H860 C866 0.950 . S
H861 C867 0.950 . S
H862 C868 0.949 . S
C863 H858 0.950 . S
C863 C865 1.327 . S
C863 C869 1.429 1_455 S
C864 C856 1.574 . S
C864 H859 0.949 . S
C864 C870 1.368 . S
C865 C849 1.319 1_455 S
C865 H857 0.950 . S
C865 C863 1.327 . S
C866 C854 1.349 . S
C866 H860 0.950 . S
C866 C867 1.327 . S
C867 H861 0.950 . S
C867 C866 1.327 . S
C867 C871 1.429 . S
C868 C851 1.574 . S
C868 H862 0.949 . S
C868 C872 1.368 1_455 S
C869 C850 1.429 . S
C869 C863 1.429 1_655 S
C869 C870 1.523 . S
C870 C851 1.368 1_655 S
C870 C864 1.368 . S
C870 C869 1.523 . S
C871 C855 1.429 1_655 S
C871 C867 1.429 . S
C871 C872 1.523 . S
C872 C856 1.368 . S
C872 C868 1.368 1_655 S
C872 C871 1.523 . S
H873 C848 0.950 . S
H874 C850 0.950 . S
H875 C851 0.949 . S
H876 C853 0.950 . S
H877 C855 0.950 . S
C878 C879 1.302 1_545 S
C878 C880 1.327 . S
C878 H903 0.950 . S
C879 C878 1.302 1_565 S
C879 C895 1.399 . S
C880 C878 1.327 . S
C880 C899 1.429 1_545 S
C880 H904 0.950 . S
C881 C898 1.574 . S
C881 C900 1.368 . S
C881 H905 0.949 . S
H882 C886 0.949 . S
C883 C884 1.349 . S
C883 C885 1.327 . S
C883 H906 0.950 . S
C884 C883 1.349 . S
C884 C896 1.349 1_565 S
C885 C883 1.327 . S
C885 C901 1.429 . S
C885 H907 0.950 . S
C886 H882 0.949 . S
C886 C894 1.574 . S
C886 C902 1.368 1_545 S
H887 C895 0.950 . S
H888 C893 0.950 . S
H889 C894 0.949 . S
H890 C896 0.950 . S
H891 C897 0.950 . S
H892 C898 0.949 . S
C893 H888 0.950 . S
C893 C895 1.327 . S
C893 C899 1.429 . S
C894 C886 1.574 . S
C894 H889 0.949 . S
C894 C900 1.368 1_545 S
C895 C879 1.399 . S
C895 H887 0.950 . S
C895 C893 1.327 . S
C896 C884 1.349 1_545 S
C896 H890 0.950 . S
C896 C897 1.327 . S
C897 H891 0.950 . S
C897 C896 1.327 . S
C897 C901 1.429 1_545 S
C898 C881 1.574 . S
C898 H892 0.949 . S
C898 C902 1.368 . S
C899 C880 1.429 1_565 S
C899 C893 1.429 . S
C899 C900 1.523 . S
C900 C881 1.368 . S
C900 C894 1.368 1_565 S
C900 C899 1.523 . S
C901 C885 1.429 . S
C901 C897 1.429 1_565 S
C901 C902 1.523 . S
C902 C886 1.368 1_565 S
C902 C898 1.368 . S
C902 C901 1.523 . S
H903 C878 0.950 . S
H904 C880 0.950 . S
H905 C881 0.949 . S
H906 C883 0.950 . S
H907 C885 0.950 . S
C908 C909 1.349 . S
C908 C910 1.327 . S
C908 H933 0.950 . S
C909 C908 1.349 . S
C909 C925 1.349 . S
C910 C908 1.327 . S
C910 C929 1.429 . S
C910 H934 0.950 . S
C911 C928 1.574 . S
C911 C930 1.368 . S
C911 H935 0.949 . S
H912 C916 0.949 . S
C913 C914 1.349 . S
C913 C915 1.327 . S
C913 H936 0.950 . S
C914 C913 1.349 . S
C914 C926 1.349 . S
C915 C913 1.327 . S
C915 C931 1.429 . S
C915 H937 0.950 . S
C916 H912 0.949 . S
C916 C924 1.574 . S
C916 C932 1.368 . S
H917 C925 0.950 . S
H918 C923 0.950 . S
H919 C924 0.949 . S
H920 C926 0.950 . S
H921 C927 0.950 . S
H922 C928 0.949 . S
C923 H918 0.950 . S
C923 C925 1.327 . S
C923 C929 1.429 . S
C924 C916 1.574 . S
C924 H919 0.949 . S
C924 C930 1.368 . S
C925 C909 1.349 . S
C925 H917 0.950 . S
C925 C923 1.327 . S
C926 C914 1.349 . S
C926 H920 0.950 . S
C926 C927 1.327 . S
C927 H921 0.950 . S
C927 C926 1.327 . S
C927 C931 1.429 . S
C928 C911 1.574 . S
C928 H922 0.949 . S
C928 C932 1.368 . S
C929 C910 1.429 . S
C929 C923 1.429 . S
C929 C930 1.523 . S
C930 C911 1.368 . S
C930 C924 1.368 . S
C930 C929 1.523 . S
C931 C915 1.429 . S
C931 C927 1.429 . S
C931 C932 1.523 . S
C932 C916 1.368 . S
C932 C928 1.368 . S
C932 C931 1.523 . S
H933 C908 0.950 . S
H934 C910 0.950 . S
H935 C911 0.949 . S
H936 C913 0.950 . S
H937 C915 0.950 . S
C938 C939 1.349 . S
C938 C940 1.327 . S
C938 H963 0.950 . S
C939 C938 1.349 . S
C939 C955 1.349 . S
C940 C938 1.327 . S
C940 C959 1.429 . S
C940 H964 0.950 . S
C941 C958 1.574 . S
C941 C960 1.368 . S
C941 H965 0.949 . S
H942 C946 0.949 . S
C943 C944 1.349 . S
C943 C945 1.327 . S
C943 H966 0.950 . S
C944 C943 1.349 . S
C944 C956 1.349 . S
C945 C943 1.327 . S
C945 C961 1.429 . S
C945 H967 0.950 . S
C946 H942 0.949 . S
C946 C954 1.574 . S
C946 C962 1.368 . S
H947 C955 0.950 . S
H948 C953 0.950 . S
H949 C954 0.949 . S
H950 C956 0.950 . S
H951 C957 0.950 . S
H952 C958 0.949 . S
C953 H948 0.950 . S
C953 C955 1.327 . S
C953 C959 1.429 . S
C954 C946 1.574 . S
C954 H949 0.949 . S
C954 C960 1.368 . S
C955 C939 1.349 . S
C955 H947 0.950 . S
C955 C953 1.327 . S
C956 C944 1.349 . S
C956 H950 0.950 . S
C956 C957 1.327 . S
C957 H951 0.950 . S
C957 C956 1.327 . S
C957 C961 1.429 . S
C958 C941 1.574 . S
C958 H952 0.949 . S
C958 C962 1.368 . S
C959 C940 1.429 . S
C959 C953 1.429 . S
C959 C960 1.523 . S
C960 C941 1.368 . S
C960 C954 1.368 . S
C960 C959 1.523 . S
C961 C945 1.429 . S
C961 C957 1.429 . S
C961 C962 1.523 . S
C962 C946 1.368 . S
C962 C958 1.368 . S
C962 C961 1.523 . S
H963 C938 0.950 . S
H964 C940 0.950 . S
H965 C941 0.949 . S
H966 C943 0.950 . S
H967 C945 0.950 . S
C249 C74 1.709 . S
C254 C106 1.765 1_545 S
C284 C146 1.770 . S
C279 C85 1.705 . S
C314 C186 1.770 . S
C309 C52 1.706 . S
C344 C226 1.767 1_455 S
C339 C63 1.707 . S
C374 C96 1.768 1_565 S
C369 C30 1.708 1_565 S
C399 C41 1.707 . S
C404 C136 1.771 . S
C429 C8 1.706 . S
C434 C176 1.769 . S
C459 C19 1.705 1_655 S
C464 C216 1.767 1_655 S
C494 C93 0.418 . S
C489 C62 0.419 . S
C524 C133 0.418 . S
C519 C73 0.422 . S
C554 C173 0.419 . S
C549 C84 0.423 . S
C579 C51 0.423 . S
C584 C213 0.416 . S
C609 C18 0.442 1_655 S
C614 C103 0.419 . S
C644 C143 0.418 . S
C639 C29 0.440 1_565 S
C674 C183 0.419 . S
C669 C40 0.476 . S
C699 C7 0.476 . S
C704 C223 0.420 . S
C729 C60 1.589 . S
C734 C97 2.032 . S
C759 C71 1.589 . S
C764 C137 2.034 . S
C794 C177 2.034 . S
C789 C82 1.589 . S
C824 C217 2.034 . S
C819 C49 1.587 . S
C849 C16 1.604 1_655 S
C854 C107 2.037 . S
C884 C147 2.034 . S
C879 C27 1.601 1_565 S
C914 C187 2.034 . S
C909 C38 1.625 . S
C939 C5 1.625 . S
C944 C227 2.037 . S
