# Generated by pormake.
# Topology pth, (4,4)-cn, num edge types: 1
# Building blocks:
#     Node 0, Type 0, BuildingBlock: QUQFOY_clean_sbu_1, # of connection points: 4
#     Node 1, Type 0, BuildingBlock: QUQFOY_clean_sbu_1, # of connection points: 4
#     Node 2, Type 0, BuildingBlock: QUQFOY_clean_sbu_1, # of connection points: 4
#     Node 3, Type 1, BuildingBlock: MUDLON_clean_sbu_0, # of connection points: 4
#     Node 4, Type 1, BuildingBlock: MUDLON_clean_sbu_0, # of connection points: 4
#     Node 5, Type 1, BuildingBlock: MUDLON_clean_sbu_0, # of connection points: 4
#     Edge 6, Type (0, 1), BuildingBlock: ZUJKAS_clean_linker_0, # of connection points: 2
#     Edge 7, Type (0, 1), BuildingBlock: ZUJKAS_clean_linker_0, # of connection points: 2
#     Edge 8, Type (0, 1), BuildingBlock: ZUJKAS_clean_linker_0, # of connection points: 2
#     Edge 9, Type (0, 1), BuildingBlock: ZUJKAS_clean_linker_0, # of connection points: 2
#     Edge 10, Type (0, 1), BuildingBlock: ZUJKAS_clean_linker_0, # of connection points: 2
#     Edge 11, Type (0, 1), BuildingBlock: ZUJKAS_clean_linker_0, # of connection points: 2
#     Edge 12, Type (0, 1), BuildingBlock: ZUJKAS_clean_linker_0, # of connection points: 2
#     Edge 13, Type (0, 1), BuildingBlock: ZUJKAS_clean_linker_0, # of connection points: 2
#     Edge 14, Type (0, 1), BuildingBlock: ZUJKAS_clean_linker_0, # of connection points: 2
#     Edge 15, Type (0, 1), BuildingBlock: ZUJKAS_clean_linker_0, # of connection points: 2
#     Edge 16, Type (0, 1), BuildingBlock: ZUJKAS_clean_linker_0, # of connection points: 2
#     Edge 17, Type (0, 1), BuildingBlock: ZUJKAS_clean_linker_0, # of connection points: 2
# Relax obj value: 0.036
# Max RMSD: 0.128
# Mean RMSD: 0.077
data_MOF--net-pth--node1-QUQFOY_clean_sbu_1--node2-MUDLON_clean_sbu_0--edge1-ZUJKAS_clean_linker_0
_symmetry_space_group_name_H-M    P1
_symmetry_Int_Tables_number       1
_symmetry_cell_setting            triclinic
loop_
_symmetry_equiv_pos_as_xyz
'x, y, z'
_cell_length_a     28.289894
_cell_length_b     30.805579
_cell_length_c     79.785527
_cell_angle_alpha  90.083656
_cell_angle_beta   89.93763
_cell_angle_gamma 120.0824
loop_
_atom_site_label
_atom_site_type_symbol
_atom_site_fract_x
_atom_site_fract_y
_atom_site_fract_z
_atom_type_partial_charge
O0 O 0.03071 0.08029 0.12215 0.0
Cd1 Cd 0.96824 0.02669 0.13663 0.0
Cd2 Cd 0.03921 0.99017 0.13792 0.0
O3 O 0.09252 0.0575 0.1259 0.0
O4 O 0.92554 0.05932 0.14384 0.0
O5 O 0.97125 0.03907 0.16159 0.0
C6 C 0.94224 0.06011 0.15894 0.0
C7 C 0.06424 0.95814 0.16084 0.0
C8 C 0.07863 0.08766 0.11975 0.0
C9 C 0.93045 0.92739 0.12009 0.0
O10 O 0.97781 0.93476 0.12352 0.0
O11 O 0.9161 0.9585 0.12498 0.0
O12 O 0.08166 0.95812 0.14589 0.0
O13 O 0.0352 0.97939 0.163 0.0
O14 O 0.94956 0.03453 0.47907 0.0
Cd15 Cd 0.0219 0.06005 0.46593 0.0
Cd16 Cd 0.98649 0.95702 0.46504 0.0
O17 O 0.91936 0.95329 0.47711 0.0
O18 O 0.04502 0.13071 0.45927 0.0
O19 O 0.0238 0.07016 0.44083 0.0
C20 C 0.03882 0.11657 0.44382 0.0
C21 C 0.97097 0.90023 0.4431 0.0
C22 C 0.91323 0.98938 0.48216 0.0
C23 C 0.09229 0.02571 0.48343 0.0
O24 O 0.05698 0.98112 0.47918 0.0
O25 O 0.08666 0.06256 0.47898 0.0
O26 O 0.96124 0.8858 0.45849 0.0
O27 O 0.98939 0.94718 0.44002 0.0
O28 O 0.93323 0.99619 0.78504 0.0
Cd29 Cd 0.97219 0.96586 0.79844 0.0
Cd30 Cd 0.05519 0.06295 0.79751 0.0
O31 O 0.99775 0.07591 0.78573 0.0
O32 O 0.91241 0.90007 0.8071 0.0
O33 O 0.96583 0.9633 0.82371 0.0
C34 C 0.92491 0.91829 0.82205 0.0
C35 C 0.10795 0.11174 0.82022 0.0
C36 C 0.95015 0.0418 0.78131 0.0
C37 C 0.07253 0.98547 0.77939 0.0
O38 O 0.09048 0.03142 0.78288 0.0
O39 O 0.02634 0.95189 0.785 0.0
O40 O 0.11757 0.12882 0.8051 0.0
O41 O 0.06678 0.06726 0.82259 0.0
Mg42 Mg 1.00519 0.50581 0.29985 0.0
C43 C 0.05288 0.44217 0.31247 0.0
O44 O 0.0314 0.41864 0.29836 0.0
C45 C 0.01731 0.57512 0.27222 0.0
O46 O 0.9681 0.5364 0.27004 0.0
C47 C 0.98145 0.44186 0.26962 0.0
O48 O 0.02939 0.48134 0.26651 0.0
O49 O 0.95703 0.44111 0.28318 0.0
O50 O 0.05339 0.48308 0.31551 0.0
O51 O 0.96516 0.52726 0.31903 0.0
C52 C 0.93943 0.55079 0.31659 0.0
O53 O 0.92682 0.55652 0.30124 0.0
O54 O 0.04663 0.57356 0.28408 0.0
Mg55 Mg 0.50533 1.00569 0.6322 0.0
C56 C 0.49346 0.0577 0.601 0.0
O57 O 0.53372 0.05189 0.5955 0.0
C58 C 0.5736 0.01885 0.66096 0.0
O59 O 0.53748 0.97076 0.65996 0.0
C60 C 0.38867 0.95265 0.64583 0.0
O61 O 0.37912 0.96749 0.63144 0.0
O62 O 0.43609 0.95915 0.64862 0.0
O63 O 0.47805 0.04662 0.61617 0.0
O64 O 0.53638 0.96817 0.61604 0.0
C65 C 0.51506 0.9463 0.60225 0.0
O66 O 0.46703 0.93967 0.59797 0.0
O67 O 0.57177 0.04812 0.65003 0.0
Mg68 Mg 0.52146 0.50733 0.97528 0.0
C69 C 0.46514 0.45106 0.94558 0.0
O70 O 0.45523 0.48827 0.94701 0.0
C71 C 0.58671 0.52552 1.00755 0.0
O72 O 0.53808 0.49473 0.01368 0.0
C73 C 0.42999 0.43095 0.99443 0.0
O74 O 0.45179 0.40801 0.9864 0.0
O75 O 0.4501 0.47792 0.99201 0.0
O76 O 0.49697 0.44813 0.95625 0.0
O77 O 0.5507 0.57466 0.95967 0.0
C78 C 0.5908 0.57856 0.95111 0.0
O79 O 0.60495 0.54431 0.95329 0.0
O80 O 0.59238 0.53156 0.99173 0.0
H81 H 0.89221 0.11606 0.15603 0.0
H82 H 0.88802 0.17221 0.17685 0.0
H83 H 0.9654 0.12448 0.21314 0.0
H84 H 0.97109 0.06902 0.19219 0.0
H85 H 0.84348 0.16229 0.2082 0.0
H86 H 0.06995 0.27439 0.21131 0.0
H87 H 0.03452 0.22657 0.19567 0.0
H88 H 0.04179 0.20947 0.21665 0.0
C89 C 0.90782 0.11698 0.16849 0.0
C90 C 0.9326 0.08839 0.17235 0.0
C91 C 0.90529 0.14914 0.18042 0.0
C92 C 0.9274 0.15346 0.19649 0.0
C93 C 0.94923 0.12274 0.20071 0.0
H94 H 0.90919 0.34256 0.27699 0.0
H95 H 0.89054 0.26923 0.25986 0.0
C96 C 0.95213 0.09076 0.18874 0.0
C97 C 0.93054 0.19236 0.20833 0.0
H98 H 0.02127 0.29921 0.22904 0.0
C99 C 0.88231 0.1921 0.21285 0.0
C100 C 0.98129 0.23173 0.21421 0.0
C101 C 0.03491 0.23604 0.20912 0.0
C102 C 0.88354 0.23023 0.22296 0.0
C103 C 0.93429 0.26933 0.2289 0.0
C104 C 0.98233 0.26914 0.22456 0.0
C105 C 0.93958 0.31273 0.23876 0.0
C106 C 0.8308 0.22934 0.2267 0.0
C107 C 0.97279 0.36153 0.23261 0.0
C108 C 0.98374 0.40319 0.24237 0.0
C109 C 0.96169 0.39724 0.25857 0.0
C110 C 0.9263 0.34839 0.26449 0.0
C111 C 0.91561 0.30644 0.2547 0.0
H112 H 0.79731 0.20344 0.21821 0.0
H113 H 0.81819 0.21643 0.23977 0.0
H114 H 0.83611 0.26745 0.22551 0.0
H115 H 0.99161 0.36745 0.22036 0.0
H116 H 0.01099 0.44025 0.23739 0.0
H117 H 0.82539 0.89789 0.49059 0.0
H118 H 0.74938 0.88122 0.50926 0.0
H119 H 0.81713 0.04019 0.51669 0.0
H120 H 0.89237 0.05724 0.49781 0.0
H121 H 0.75187 0.90343 0.54199 0.0
H122 H 0.66023 0.99724 0.50667 0.0
H123 H 0.71004 0.98403 0.4975 0.0
H124 H 0.73159 0.0386 0.51052 0.0
C125 C 0.82376 0.92937 0.49601 0.0
C126 C 0.865 0.97896 0.49259 0.0
C127 C 0.78029 0.91974 0.50672 0.0
C128 C 0.77695 0.95941 0.51421 0.0
C129 C 0.8179 0.00891 0.51076 0.0
H130 H 0.62067 0.96703 0.60568 0.0
H131 H 0.67982 0.96368 0.58409 0.0
C132 C 0.86119 0.0186 0.49999 0.0
C133 C 0.73241 0.94922 0.52633 0.0
H134 H 0.63469 0.97974 0.53562 0.0
C135 C 0.72583 0.91966 0.54049 0.0
C136 C 0.69765 0.96957 0.52428 0.0
C137 C 0.69978 0.99867 0.50883 0.0
C138 C 0.68708 0.91161 0.55296 0.0
C139 C 0.65475 0.93464 0.55143 0.0
C140 C 0.6598 0.96249 0.53693 0.0
C141 C 0.61717 0.93225 0.56497 0.0
C142 C 0.68113 0.87834 0.56762 0.0
C143 C 0.56211 0.91608 0.56147 0.0
C144 C 0.52812 0.91843 0.5738 0.0
C145 C 0.54857 0.93723 0.58989 0.0
C146 C 0.60331 0.95198 0.59349 0.0
C147 C 0.63725 0.94983 0.58115 0.0
H148 H 0.69425 0.85095 0.56426 0.0
H149 H 0.70755 0.90185 0.57804 0.0
H150 H 0.63828 0.85741 0.57216 0.0
H151 H 0.54566 0.90256 0.54908 0.0
H152 H 0.4863 0.90694 0.57055 0.0
H153 H 0.93031 0.94984 0.85459 0.0
H154 H 0.87212 0.90165 0.87819 0.0
H155 H 0.78651 0.77218 0.84618 0.0
H156 H 0.84339 0.82029 0.82252 0.0
H157 H 0.7161 0.78657 0.8655 0.0
H158 H 0.88242 0.79543 0.90499 0.0
H159 H 0.89156 0.85532 0.899 0.0
H160 H 0.89251 0.81395 0.88326 0.0
C161 C 0.89933 0.911 0.85261 0.0
C162 C 0.89179 0.88886 0.83667 0.0
C163 C 0.86614 0.88344 0.86614 0.0
C164 C 0.82524 0.83302 0.86405 0.0
C165 C 0.81769 0.81098 0.84813 0.0
H166 H 0.67064 0.5874 0.93019 0.0
H167 H 0.72437 0.65361 0.91034 0.0
C168 C 0.8505 0.83853 0.83461 0.0
C169 C 0.79013 0.80273 0.87831 0.0
H170 H 0.79372 0.75352 0.91633 0.0
C171 C 0.73305 0.77964 0.87669 0.0
C172 C 0.81223 0.79356 0.8929 0.0
C173 C 0.87297 0.81545 0.89516 0.0
C174 C 0.69756 0.74652 0.88897 0.0
C175 C 0.7197 0.73683 0.90342 0.0
C176 C 0.77675 0.76125 0.9053 0.0
C177 C 0.68514 0.69692 0.91568 0.0
C178 C 0.63676 0.72027 0.88598 0.0
C179 C 0.64463 0.69886 0.92539 0.0
C180 C 0.61311 0.66037 0.93688 0.0
C181 C 0.62196 0.61961 0.93888 0.0
C182 C 0.66256 0.61812 0.92909 0.0
C183 C 0.69361 0.65616 0.91769 0.0
H184 H 0.62673 0.72517 0.87291 0.0
H185 H 0.61774 0.67951 0.8886 0.0
H186 H 0.61819 0.73592 0.89457 0.0
H187 H 0.63782 0.73032 0.92424 0.0
H188 H 0.58237 0.66277 0.94427 0.0
H189 H 0.11116 0.89947 0.15866 0.0
H190 H 0.11327 0.84381 0.18 0.0
H191 H 0.04027 0.89815 0.21564 0.0
H192 H 0.0363 0.95293 0.19411 0.0
H193 H 0.15772 0.85348 0.21067 0.0
H194 H 0.93148 0.75022 0.21582 0.0
H195 H 0.96723 0.7965 0.1998 0.0
H196 H 0.96294 0.81571 0.22079 0.0
C197 C 0.09604 0.90009 0.17108 0.0
C198 C 0.07292 0.9303 0.17459 0.0
C199 C 0.09737 0.86818 0.18331 0.0
C200 C 0.0758 0.86579 0.19936 0.0
C201 C 0.05582 0.89824 0.20323 0.0
H202 H 0.09449 0.67365 0.27893 0.0
H203 H 0.11334 0.74778 0.26228 0.0
C204 C 0.05396 0.92987 0.19093 0.0
C205 C 0.07145 0.8272 0.21154 0.0
H206 H 0.97888 0.72381 0.23336 0.0
C207 C 0.11866 0.82525 0.21572 0.0
C208 C 0.02038 0.7899 0.21798 0.0
C209 C 0.96753 0.78771 0.21327 0.0
C210 C 0.11608 0.78673 0.22589 0.0
C211 C 0.06501 0.74961 0.23236 0.0
C212 C 0.01809 0.75229 0.22847 0.0
C213 C 0.05796 0.70543 0.24212 0.0
C214 C 0.16769 0.78502 0.22903 0.0
C215 C 0.02066 0.65693 0.23643 0.0
C216 C 0.00936 0.61488 0.24599 0.0
C217 C 0.03534 0.62005 0.26148 0.0
C218 C 0.07428 0.66843 0.26696 0.0
C219 C 0.08515 0.71083 0.25742 0.0
H220 H 0.20046 0.80869 0.21998 0.0
H221 H 0.18284 0.79931 0.24183 0.0
H222 H 0.15989 0.74599 0.22819 0.0
H223 H 0.9993 0.65158 0.22467 0.0
H224 H 0.97934 0.57818 0.24135 0.0
H225 H 0.1243 0.95847 0.49249 0.0
H226 H 0.19643 0.97129 0.51213 0.0
H227 H 0.23645 0.12471 0.51948 0.0
H228 H 0.16533 0.11264 0.49949 0.0
H229 H 0.32763 0.11797 0.51731 0.0
H230 H 0.18475 0.97611 0.56234 0.0
H231 H 0.18032 0.95041 0.54184 0.0
H232 H 0.16149 0.99769 0.5449 0.0
C233 C 0.14856 0.99505 0.49821 0.0
C234 C 0.1386 0.0344 0.49448 0.0
C235 C 0.18959 1.00222 0.50956 0.0
C236 C 0.22107 0.04862 0.51764 0.0
C237 C 0.21247 0.08845 0.51353 0.0
H238 H 0.40813 0.07346 0.60787 0.0
H239 H 0.34531 0.07792 0.58782 0.0
C240 C 0.17172 0.08145 0.50207 0.0
C241 C 0.26263 0.05548 0.53044 0.0
H242 H 0.2795 0.00687 0.56692 0.0
C243 C 0.31705 0.09387 0.52821 0.0
C244 C 0.24878 0.0248 0.54489 0.0
C245 C 0.19057 0.9853 0.54876 0.0
C246 C 0.35813 0.10145 0.53975 0.0
C247 C 0.34474 0.06902 0.55373 0.0
C248 C 0.29005 0.03152 0.55617 0.0
C249 C 0.38664 0.07223 0.56579 0.0
C250 C 0.41525 0.14462 0.53694 0.0
C251 C 0.43143 0.06831 0.56016 0.0
C252 C 0.46783 0.06641 0.5716 0.0
C253 C 0.45978 0.06749 0.58897 0.0
C254 C 0.41571 0.07269 0.59459 0.0
C255 C 0.37959 0.07505 0.58313 0.0
H256 H 0.41496 0.17477 0.5294 0.0
H257 H 0.43634 0.16092 0.549 0.0
H258 H 0.43916 0.13101 0.5299 0.0
H259 H 0.43714 0.06473 0.54691 0.0
H260 H 0.50091 0.06185 0.5668 0.0
H261 H 0.20307 0.20153 0.81817 0.0
H262 H 0.26503 0.25016 0.84086 0.0
H263 H 0.15871 0.13913 0.87662 0.0
H264 H 0.09612 0.08995 0.85389 0.0
H265 H 0.19275 0.23881 0.88611 0.0
H266 H 0.36958 0.21893 0.86736 0.0
H267 H 0.34327 0.23973 0.85064 0.0
H268 H 0.30137 0.17833 0.85947 0.0
C269 C 0.19273 0.18729 0.83084 0.0
C270 C 0.14455 0.14174 0.83419 0.0
C271 C 0.22854 0.21499 0.8438 0.0
C272 C 0.2171 0.19785 0.86041 0.0
C273 C 0.16864 0.1528 0.86387 0.0
H274 H 0.44897 0.35489 0.94355 0.0
H275 H 0.38889 0.28866 0.9237 0.0
C276 C 0.13286 0.12481 0.85087 0.0
C277 C 0.25462 0.22843 0.87416 0.0
H278 H 0.38774 0.2844 0.88706 0.0
C279 C 0.23518 0.24821 0.88645 0.0
C280 C 0.30984 0.2402 0.87475 0.0
C281 C 0.33224 0.21782 0.86245 0.0
C282 C 0.27007 0.28139 0.89877 0.0
C283 C 0.32608 0.29565 0.89873 0.0
C284 C 0.34497 0.27388 0.88698 0.0
C285 C 0.36592 0.33584 0.90999 0.0
C286 C 0.24682 0.30162 0.91161 0.0
C287 C 0.37446 0.38456 0.90846 0.0
C288 C 0.40848 0.42211 0.91966 0.0
C289 C 0.43525 0.41205 0.93264 0.0
C290 C 0.42898 0.36383 0.93369 0.0
C291 C 0.39455 0.32597 0.92241 0.0
H292 H 0.20193 0.27689 0.91297 0.0
H293 H 0.26628 0.3058 0.92404 0.0
H294 H 0.25473 0.33912 0.90754 0.0
H295 H 0.35384 0.39335 0.89875 0.0
H296 H 0.41287 0.45894 0.91832 0.0
H297 H 0.84275 0.98047 0.77339 0.0
H298 H 0.78682 0.99695 0.7541 0.0
H299 H 0.92087 0.14687 0.74595 0.0
H300 H 0.97771 0.13063 0.76531 0.0
H301 H 0.75784 0.07453 0.75448 0.0
H302 H 0.8794 0.08344 0.69822 0.0
H303 H 0.88475 0.0569 0.71779 0.0
H304 H 0.9153 0.12359 0.71567 0.0
C305 C 0.86045 0.01715 0.76763 0.0
C306 C 0.91497 0.05411 0.77085 0.0
C307 C 0.82828 0.02652 0.7566 0.0
C308 C 0.84984 0.07288 0.74842 0.0
C309 C 0.90365 0.11057 0.75196 0.0
H310 H 0.66934 0.1101 0.66388 0.0
H311 H 0.74001 0.13464 0.68567 0.0
C312 C 0.93594 0.10131 0.76311 0.0
C313 C 0.8158 0.08031 0.73584 0.0
H314 H 0.7979 0.08407 0.69361 0.0
C315 C 0.76705 0.07749 0.74118 0.0
C316 C 0.82802 0.08456 0.7185 0.0
C317 C 0.8795 0.08706 0.71207 0.0
C318 C 0.72911 0.07655 0.72963 0.0
C319 C 0.73963 0.07743 0.71225 0.0
C320 C 0.78986 0.08336 0.70693 0.0
C321 C 0.69623 0.06522 0.69956 0.0
C322 C 0.67732 0.07323 0.73615 0.0
C323 C 0.64855 0.01813 0.70008 0.0
C324 C 0.60866 1.00407 0.68772 0.0
C325 C 0.61537 0.03667 0.67444 0.0
C326 C 0.66283 0.08428 0.67399 0.0
C327 C 0.70322 0.09828 0.6864 0.0
H328 H 0.68346 0.09001 0.74886 0.0
H329 H 0.66262 0.09247 0.72765 0.0
H330 H 0.64507 0.03318 0.73709 0.0
H331 H 0.6427 0.99153 0.70986 0.0
H332 H 0.57273 0.96711 0.68851 0.0
H333 H 0.93592 0.8425 0.11472 0.0
H334 H 0.87939 0.7723 0.09617 0.0
H335 H 0.78579 0.84253 0.08269 0.0
H336 H 0.84111 0.91223 0.10181 0.0
H337 H 0.72035 0.74531 0.08658 0.0
H338 H 0.89248 0.77232 0.0464 0.0
H339 H 0.90273 0.76216 0.06788 0.0
H340 H 0.89976 0.81729 0.06215 0.0
C341 C 0.90318 0.843 0.10786 0.0
C342 C 0.89334 0.88325 0.10967 0.0
C343 C 0.87115 0.80296 0.09711 0.0
C344 C 0.82927 0.80265 0.08759 0.0
C345 C 0.81819 0.84204 0.08976 0.0
H346 H 0.67567 0.61664 0.99977 0.0
H347 H 0.73528 0.68259 0.01937 0.0
C348 C 0.84978 0.88186 0.10073 0.0
C349 C 0.79678 0.7611 0.07553 0.0
H350 H 0.80813 0.6962 0.04241 0.0
C351 C 0.73959 0.73474 0.07689 0.0
C352 C 0.82164 0.74768 0.06264 0.0
C353 C 0.88246 0.7767 0.05954 0.0
C354 C 0.70672 0.69513 0.06593 0.0
C355 C 0.73172 0.68012 0.05357 0.0
C356 C 0.78888 0.70696 0.05205 0.0
C357 C 0.69916 0.63809 0.04167 0.0
C358 C 0.64544 0.67085 0.06746 0.0
C359 C 0.66062 0.59019 0.04756 0.0
C360 C 0.62605 0.55253 0.03637 0.0
C361 C 0.63009 0.56156 0.01901 0.0
C362 C 0.67149 0.60829 0.01305 0.0
C363 C 0.70551 0.6462 0.02427 0.0
H364 H 0.63341 0.6959 0.07387 0.0
H365 H 0.6255 0.66078 0.05496 0.0
H366 H 0.62962 0.63612 0.07502 0.0
H367 H 0.65616 0.5823 0.06087 0.0
H368 H 0.59494 0.51682 0.04137 0.0
H369 H 0.89588 0.80051 0.44235 0.0
H370 H 0.88337 0.73928 0.42077 0.0
H371 H 0.01601 0.85574 0.39228 0.0
H372 H 0.02589 0.91774 0.41335 0.0
H373 H 0.94331 0.79783 0.37168 0.0
H374 H 0.97046 0.67348 0.41556 0.0
H375 H 0.91307 0.67966 0.42148 0.0
H376 H 0.98092 0.73377 0.4219 0.0
C377 C 0.92219 0.81304 0.43143 0.0
C378 C 0.96215 0.86383 0.42959 0.0
C379 C 0.91543 0.77786 0.41916 0.0
C380 C 0.94994 0.79222 0.40508 0.0
C381 C 0.98904 0.84334 0.40304 0.0
H382 H 1.00049 0.58385 0.34511 0.0
H383 H 1.00079 0.64171 0.36603 0.0
C384 C 0.99474 0.87884 0.4151 0.0
C385 C 0.94523 0.75421 0.39247 0.0
H386 H 0.93759 0.64034 0.38837 0.0
C387 C 0.94244 0.76355 0.37536 0.0
C388 C 0.94498 0.70964 0.3971 0.0
C389 C 0.95314 0.69882 0.41499 0.0
C390 C 0.93947 0.72997 0.36285 0.0
C391 C 0.93642 0.68421 0.36755 0.0
C392 C 0.93909 0.67488 0.38466 0.0
C393 C 0.93382 0.64689 0.355 0.0
C394 C 0.94192 0.74518 0.34475 0.0
C395 C 0.89516 0.62898 0.34193 0.0
C396 C 0.89585 0.59665 0.32965 0.0
C397 C 0.93387 0.58003 0.33051 0.0
C398 C 0.97037 0.59561 0.34411 0.0
C399 C 0.97064 0.62892 0.3561 0.0
H400 H 0.96142 0.78655 0.34343 0.0
H401 H 0.96514 0.7323 0.33699 0.0
H402 H 0.8998 0.72834 0.33972 0.0
H403 H 0.86482 0.64045 0.34108 0.0
H404 H 0.86693 0.585 0.3194 0.0
H405 H 0.17746 0.0454 0.76865 0.0
H406 H 0.22569 0.0277 0.74674 0.0
H407 H 0.08765 0.87854 0.74103 0.0
H408 H 0.03909 0.89564 0.76325 0.0
H409 H 0.18929 0.88205 0.73893 0.0
H410 H 0.1836 0.02357 0.6975 0.0
H411 H 0.21444 0.04861 0.71747 0.0
H412 H 0.14335 1.00128 0.71639 0.0
C413 C 0.1574 0.00858 0.76289 0.0
C414 C 0.10405 0.97213 0.76761 0.0
C415 C 0.18502 0.99862 0.75029 0.0
C416 C 0.15982 0.95222 0.74196 0.0
C417 C 0.10773 0.91476 0.7472 0.0
H418 H 0.28215 0.9299 0.64391 0.0
H419 H 0.22136 0.92072 0.66712 0.0
C420 C 0.08005 0.9246 0.75992 0.0
C421 C 0.18707 0.94405 0.72732 0.0
H422 H 0.24139 0.99221 0.68894 0.0
C423 C 0.20036 0.90583 0.72793 0.0
C424 C 0.20054 0.97441 0.71282 0.0
C425 C 0.18428 0.01393 0.71088 0.0
C426 C 0.22849 0.8984 0.71467 0.0
C427 C 0.24451 0.93058 0.70055 0.0
C428 C 0.22957 0.96768 0.69977 0.0
C429 C 0.27807 0.92791 0.68659 0.0
C430 C 0.24031 0.8559 0.71586 0.0
C431 C 0.32982 0.93373 0.68973 0.0
C432 C 0.36451 0.93844 0.67645 0.0
C433 C 0.34854 0.93829 0.65973 0.0
C434 C 0.29583 0.93029 0.65662 0.0
C435 C 0.26102 0.92513 0.66989 0.0
H436 H 0.2108 0.82576 0.72429 0.0
H437 H 0.23879 0.83942 0.70335 0.0
H438 H 0.28179 0.8703 0.72116 0.0
H439 H 0.3446 0.93719 0.70245 0.0
H440 H 0.40497 0.94495 0.67932 0.0
H441 H 0.06424 0.16266 0.10709 0.0
H442 H 0.12242 0.22839 0.08735 0.0
H443 H 0.23739 0.17534 0.08775 0.0
H444 H 0.17956 0.10947 0.10776 0.0
H445 H 0.28719 0.28166 0.08842 0.0
H446 H 0.13203 0.19755 0.03786 0.0
H447 H 0.10789 0.21102 0.05689 0.0
H448 H 0.12813 0.16425 0.05687 0.0
C449 C 0.10206 0.165 0.10311 0.0
C450 C 0.11686 0.13028 0.10893 0.0
C451 C 0.13521 0.20261 0.09174 0.0
C452 C 0.18375 0.20625 0.08581 0.0
C453 C 0.19992 0.17307 0.09209 0.0
H454 H 0.3663 0.33006 0.99647 0.0
H455 H 0.30539 0.2807 0.0191 0.0
C456 C 0.16679 0.13539 0.10353 0.0
C457 C 0.21643 0.24336 0.07259 0.0
H458 H 0.2113 0.27459 0.03181 0.0
C459 C 0.27059 0.28035 0.07607 0.0
C460 C 0.19478 0.24138 0.05643 0.0
C461 C 0.13771 0.20121 0.05167 0.0
C462 C 0.30381 0.3151 0.06377 0.0
C463 C 0.28206 0.31315 0.04763 0.0
C464 C 0.2277 0.27651 0.04424 0.0
C465 C 0.31662 0.34471 0.03351 0.0
C466 C 0.36253 0.35233 0.06794 0.0
C467 C 0.34221 0.39741 0.03378 0.0
C468 C 0.37731 0.42609 0.02069 0.0
C469 C 0.38736 0.40237 1.00719 0.0
C470 C 0.35982 0.34962 1.00672 0.0
C471 C 0.32485 0.32122 0.01967 0.0
H472 H 0.37557 0.34314 0.07991 0.0
H473 H 0.39007 0.35366 0.05778 0.0
H474 H 0.36751 0.39029 0.06915 0.0
H475 H 0.33569 0.41634 0.04421 0.0
H476 H 0.39803 0.46663 0.02144 0.0
H477 H 0.06859 0.21558 0.44662 0.0
H478 H 0.0778 0.27353 0.42426 0.0
H479 H 0.03833 0.15743 0.38755 0.0
H480 H 0.02814 0.09887 0.4099 0.0
H481 H 0.14511 0.30863 0.39644 0.0
H482 H 0.9276 0.20124 0.37717 0.0
H483 H 0.95193 0.18857 0.39641 0.0
H484 H 0.96133 0.16504 0.37679 0.0
C485 C 0.06191 0.20228 0.43379 0.0
C486 C 0.04718 0.15235 0.43008 0.0
C487 C 0.06731 0.23557 0.421 0.0
C488 C 0.05789 0.21971 0.40423 0.0
C489 C 0.04467 0.17029 0.40043 0.0
H490 H 0.05348 0.35421 0.30962 0.0
H491 H 0.05987 0.30365 0.33203 0.0
C492 C 0.03916 0.1369 0.41322 0.0
C493 C 0.06128 0.25473 0.39078 0.0
H494 H 0.98706 0.26942 0.35981 0.0
C495 C 0.1105 0.30015 0.38847 0.0
C496 C 0.01601 0.24391 0.38044 0.0
C497 C 0.96106 0.19731 0.38289 0.0
C498 C 0.116 0.33435 0.37585 0.0
C499 C 0.07096 0.32309 0.36538 0.0
C500 C 0.02169 0.27789 0.36778 0.0
C501 C 0.07379 0.35711 0.35169 0.0
C502 C 0.17024 0.38174 0.37356 0.0
C503 C 0.08057 0.40465 0.35521 0.0
C504 C 0.07689 0.4339 0.34235 0.0
C505 C 0.06613 0.41601 0.32574 0.0
C506 C 0.06174 0.36931 0.32223 0.0
C507 C 0.06525 0.34017 0.33505 0.0
H508 H 0.20374 0.37996 0.3802 0.0
H509 H 0.1808 0.38896 0.36005 0.0
H510 H 0.16756 0.41396 0.37866 0.0
H511 H 0.08648 0.41825 0.368 0.0
H512 H 0.08011 0.46947 0.34555 0.0
loop_
_geom_bond_atom_site_label_1
_geom_bond_atom_site_label_2
_geom_bond_distance
_geom_bond_site_symmetry_2
_ccdc_geom_bond_type
O0 Cd1 2.223 1_455 S
O0 C8 1.315 . S
Cd1 O0 2.223 1_655 S
Cd1 O4 2.297 . S
Cd1 O5 2.439 . S
Cd1 O11 2.240 1_545 S
Cd2 O3 2.240 1_565 S
Cd2 O10 2.223 1_455 S
Cd2 O12 2.297 . S
Cd2 O13 2.439 . S
O3 Cd2 2.240 1_545 S
O3 C8 1.279 . S
O4 Cd1 2.297 . S
O4 C6 1.247 . S
O5 Cd1 2.439 . S
O5 C6 1.208 . S
C6 O4 1.247 . S
C6 O5 1.208 . S
C7 O12 1.247 . S
C7 O13 1.208 . S
C8 O0 1.315 . S
C8 O3 1.279 . S
C9 O10 1.315 . S
C9 O11 1.279 . S
O10 Cd2 2.223 1_655 S
O10 C9 1.315 . S
O11 Cd1 2.240 1_565 S
O11 C9 1.279 . S
O12 Cd2 2.297 . S
O12 C7 1.247 . S
O13 Cd2 2.439 . S
O13 C7 1.208 . S
O14 Cd15 2.223 1_655 S
O14 C22 1.315 . S
Cd15 O14 2.223 1_455 S
Cd15 O18 2.297 . S
Cd15 O19 2.439 . S
Cd15 O25 2.240 . S
Cd16 O17 2.240 . S
Cd16 O24 2.223 1_655 S
Cd16 O26 2.297 . S
Cd16 O27 2.439 . S
O17 Cd16 2.240 . S
O17 C22 1.279 1_565 S
O18 Cd15 2.297 . S
O18 C20 1.247 . S
O19 Cd15 2.439 . S
O19 C20 1.208 . S
C20 O18 1.247 . S
C20 O19 1.208 . S
C21 O26 1.247 . S
C21 O27 1.208 . S
C22 O14 1.315 . S
C22 O17 1.279 1_545 S
C23 O24 1.315 . S
C23 O25 1.279 1_565 S
O24 Cd16 2.223 1_455 S
O24 C23 1.315 . S
O25 Cd15 2.240 . S
O25 C23 1.279 1_545 S
O26 Cd16 2.297 . S
O26 C21 1.247 . S
O27 Cd16 2.439 . S
O27 C21 1.208 . S
O28 Cd29 2.223 . S
O28 C36 1.315 . S
Cd29 O28 2.223 . S
Cd29 O32 2.297 . S
Cd29 O33 2.439 . S
Cd29 O39 2.240 1_655 S
Cd30 O31 2.240 1_455 S
Cd30 O38 2.223 . S
Cd30 O40 2.297 . S
Cd30 O41 2.439 . S
O31 Cd30 2.240 1_655 S
O31 C36 1.279 1_545 S
O32 Cd29 2.297 . S
O32 C34 1.247 . S
O33 Cd29 2.439 . S
O33 C34 1.208 . S
C34 O32 1.247 . S
C34 O33 1.208 . S
C35 O40 1.247 . S
C35 O41 1.208 . S
C36 O28 1.315 . S
C36 O31 1.279 1_565 S
C37 O38 1.315 . S
C37 O39 1.279 1_545 S
O38 Cd30 2.223 . S
O38 C37 1.315 . S
O39 Cd29 2.240 1_455 S
O39 C37 1.279 1_565 S
O40 Cd30 2.297 . S
O40 C35 1.247 . S
O41 Cd30 2.439 . S
O41 C35 1.208 . S
Mg42 O49 2.141 . S
Mg42 O50 2.048 . S
Mg42 O51 2.048 . S
Mg42 O54 2.141 . S
C43 O44 1.313 . S
C43 O50 1.195 1_655 S
O44 C43 1.313 . S
C45 O46 1.245 . S
C45 O54 1.289 1_655 S
O46 C45 1.245 . S
C47 O48 1.245 . S
C47 O49 1.289 1_655 S
O48 C47 1.245 . S
O49 Mg42 2.141 . S
O49 C47 1.289 1_455 S
O50 Mg42 2.048 . S
O50 C43 1.195 1_455 S
O51 Mg42 2.048 . S
O51 C52 1.195 1_455 S
C52 O51 1.195 1_655 S
C52 O53 1.313 . S
O53 C52 1.313 . S
O54 Mg42 2.141 . S
O54 C45 1.289 1_455 S
Mg55 O62 2.141 . S
Mg55 O63 2.048 . S
Mg55 O64 2.048 . S
Mg55 O67 2.141 . S
C56 O57 1.313 . S
C56 O63 1.195 1_565 S
O57 C56 1.313 . S
C58 O59 1.245 . S
C58 O67 1.289 1_565 S
O59 C58 1.245 . S
C60 O61 1.245 . S
C60 O62 1.289 1_565 S
O61 C60 1.245 . S
O62 Mg55 2.141 . S
O62 C60 1.289 1_545 S
O63 Mg55 2.048 . S
O63 C56 1.195 1_545 S
O64 Mg55 2.048 . S
O64 C65 1.195 1_545 S
C65 O64 1.195 1_565 S
C65 O66 1.313 . S
O66 C65 1.313 . S
O67 Mg55 2.141 . S
O67 C58 1.289 1_545 S
Mg68 O75 2.141 . S
Mg68 O76 2.048 . S
Mg68 O77 2.048 . S
Mg68 O80 2.141 . S
C69 O70 1.313 . S
C69 O76 1.195 . S
O70 C69 1.313 . S
C71 O72 1.245 . S
C71 O80 1.289 . S
O72 C71 1.245 . S
C73 O74 1.245 . S
C73 O75 1.289 . S
O74 C73 1.245 . S
O75 Mg68 2.141 . S
O75 C73 1.289 . S
O76 Mg68 2.048 . S
O76 C69 1.195 . S
O77 Mg68 2.048 . S
O77 C78 1.195 . S
C78 O77 1.195 . S
C78 O79 1.313 . S
O79 C78 1.313 . S
O80 Mg68 2.141 . S
O80 C71 1.289 . S
H81 C89 0.929 . S
H82 C91 0.930 . S
H83 C93 0.930 . S
H84 C96 0.929 . S
H85 C99 0.930 . S
H86 C101 0.960 . S
H87 C101 0.960 . S
H88 C101 0.960 . S
C89 H81 0.929 . S
C89 C90 1.359 1_655 S
C89 C91 1.384 . S
C90 C89 1.359 1_455 S
C90 C96 1.399 . S
C91 H82 0.930 . S
C91 C89 1.384 . S
C91 C92 1.376 . S
C92 C91 1.376 . S
C92 C93 1.391 1_655 S
C92 C97 1.494 . S
C93 H83 0.930 . S
C93 C92 1.391 1_455 S
C93 C96 1.386 . S
H94 C110 0.930 . S
H95 C111 0.931 . S
C96 H84 0.929 . S
C96 C90 1.399 . S
C96 C93 1.386 . S
C97 C92 1.494 . S
C97 C99 1.395 . S
C97 C100 1.403 1_655 S
H98 C104 0.930 . S
C99 H85 0.930 . S
C99 C97 1.395 . S
C99 C102 1.403 . S
C100 C97 1.403 1_455 S
C100 C101 1.524 . S
C100 C104 1.400 . S
C101 H86 0.960 . S
C101 H87 0.960 . S
C101 H88 0.960 . S
C101 C100 1.524 . S
C102 C99 1.403 . S
C102 C103 1.392 . S
C102 C106 1.495 . S
C103 C102 1.392 . S
C103 C104 1.385 1_655 S
C103 C105 1.478 . S
C104 H98 0.930 . S
C104 C100 1.400 . S
C104 C103 1.385 1_455 S
C105 C103 1.478 . S
C105 C107 1.381 . S
C105 C111 1.383 1_655 S
C106 C102 1.495 . S
C106 H112 0.959 . S
C106 H113 0.961 . S
C106 H114 0.960 . S
C107 C105 1.381 . S
C107 C108 1.394 . S
C107 H115 0.930 . S
C108 C107 1.394 . S
C108 C109 1.383 . S
C108 H116 0.929 . S
C109 C108 1.383 . S
C109 C110 1.377 1_655 S
C110 H94 0.930 . S
C110 C109 1.377 1_455 S
C110 C111 1.379 . S
C111 H95 0.931 . S
C111 C105 1.383 1_455 S
C111 C110 1.379 . S
H112 C106 0.959 . S
H113 C106 0.961 . S
H114 C106 0.960 . S
H115 C107 0.930 . S
H116 C108 0.929 . S
H117 C125 0.929 . S
H118 C127 0.930 . S
H119 C129 0.930 . S
H120 C132 0.929 . S
H121 C135 0.930 . S
H122 C137 0.960 . S
H123 C137 0.960 . S
H124 C137 0.960 . S
C125 H117 0.929 . S
C125 C126 1.377 1_565 S
C125 C127 1.384 . S
C126 C125 1.377 1_545 S
C126 C132 1.390 . S
C127 H118 0.930 . S
C127 C125 1.384 . S
C127 C128 1.366 1_565 S
C128 C127 1.366 1_545 S
C128 C129 1.403 . S
C128 C133 1.492 1_545 S
C129 H119 0.930 . S
C129 C128 1.403 . S
C129 C132 1.386 . S
H130 C146 0.930 . S
H131 C147 0.931 . S
C132 H120 0.929 . S
C132 C126 1.390 . S
C132 C129 1.386 . S
C133 C128 1.492 1_565 S
C133 C135 1.395 . S
C133 C136 1.403 1_565 S
H134 C140 0.930 . S
C135 H121 0.930 . S
C135 C133 1.395 . S
C135 C138 1.403 . S
C136 C133 1.403 1_545 S
C136 C137 1.524 . S
C136 C140 1.400 . S
C137 H122 0.960 . S
C137 H123 0.960 . S
C137 H124 0.960 . S
C137 C136 1.524 . S
C138 C135 1.403 . S
C138 C139 1.392 . S
C138 C142 1.495 . S
C139 C138 1.392 . S
C139 C140 1.385 1_565 S
C139 C141 1.478 . S
C140 H134 0.930 . S
C140 C136 1.400 . S
C140 C139 1.385 1_545 S
C141 C139 1.478 . S
C141 C143 1.381 . S
C141 C147 1.383 1_565 S
C142 C138 1.495 . S
C142 H148 0.959 . S
C142 H149 0.961 . S
C142 H150 0.960 . S
C143 C141 1.381 . S
C143 C144 1.394 . S
C143 H151 0.930 . S
C144 C143 1.394 . S
C144 C145 1.383 . S
C144 H152 0.929 . S
C145 C144 1.383 . S
C145 C146 1.377 1_565 S
C146 H130 0.930 . S
C146 C145 1.377 1_545 S
C146 C147 1.379 . S
C147 H131 0.931 . S
C147 C141 1.383 1_545 S
C147 C146 1.379 . S
H148 C142 0.959 . S
H149 C142 0.961 . S
H150 C142 0.960 . S
H151 C143 0.930 . S
H152 C144 0.929 . S
H153 C161 0.929 . S
H154 C163 0.930 . S
H155 C165 0.930 . S
H156 C168 0.929 . S
H157 C171 0.930 . S
H158 C173 0.960 . S
H159 C173 0.960 . S
H160 C173 0.960 . S
C161 H153 0.929 . S
C161 C162 1.377 . S
C161 C163 1.384 . S
C162 C161 1.377 . S
C162 C168 1.390 . S
C163 H154 0.930 . S
C163 C161 1.384 . S
C163 C164 1.372 . S
C164 C163 1.372 . S
C164 C165 1.400 . S
C164 C169 1.490 . S
C165 H155 0.930 . S
C165 C164 1.400 . S
C165 C168 1.386 . S
H166 C182 0.930 . S
H167 C183 0.931 . S
C168 H156 0.929 . S
C168 C162 1.390 . S
C168 C165 1.386 . S
C169 C164 1.490 . S
C169 C171 1.395 . S
C169 C172 1.403 . S
H170 C176 0.930 . S
C171 H157 0.930 . S
C171 C169 1.395 . S
C171 C174 1.403 . S
C172 C169 1.403 . S
C172 C173 1.524 . S
C172 C176 1.400 . S
C173 H158 0.960 . S
C173 H159 0.960 . S
C173 H160 0.960 . S
C173 C172 1.524 . S
C174 C171 1.403 . S
C174 C175 1.392 . S
C174 C178 1.495 . S
C175 C174 1.392 . S
C175 C176 1.385 . S
C175 C177 1.478 . S
C176 H170 0.930 . S
C176 C172 1.400 . S
C176 C175 1.385 . S
C177 C175 1.478 . S
C177 C179 1.381 . S
C177 C183 1.383 . S
C178 C174 1.495 . S
C178 H184 0.959 . S
C178 H185 0.961 . S
C178 H186 0.960 . S
C179 C177 1.381 . S
C179 C180 1.394 . S
C179 H187 0.930 . S
C180 C179 1.394 . S
C180 C181 1.383 . S
C180 H188 0.929 . S
C181 C180 1.383 . S
C181 C182 1.377 . S
C182 H166 0.930 . S
C182 C181 1.377 . S
C182 C183 1.379 . S
C183 H167 0.931 . S
C183 C177 1.383 . S
C183 C182 1.379 . S
H184 C178 0.959 . S
H185 C178 0.961 . S
H186 C178 0.960 . S
H187 C179 0.930 . S
H188 C180 0.929 . S
H189 C197 0.929 . S
H190 C199 0.930 . S
H191 C201 0.930 . S
H192 C204 0.929 . S
H193 C207 0.930 . S
H194 C209 0.960 . S
H195 C209 0.960 . S
H196 C209 0.960 1_455 S
C197 H189 0.929 . S
C197 C198 1.377 . S
C197 C199 1.384 . S
C198 C197 1.377 . S
C198 C204 1.390 1_655 S
C199 H190 0.930 . S
C199 C197 1.384 . S
C199 C200 1.372 . S
C200 C199 1.372 . S
C200 C201 1.400 1_655 S
C200 C205 1.490 . S
C201 H191 0.930 . S
C201 C200 1.400 1_455 S
C201 C204 1.386 . S
H202 C218 0.930 . S
H203 C219 0.931 . S
C204 H192 0.929 . S
C204 C198 1.390 1_455 S
C204 C201 1.386 . S
C205 C200 1.490 . S
C205 C207 1.395 1_655 S
C205 C208 1.403 . S
H206 C212 0.930 . S
C207 H193 0.930 . S
C207 C205 1.395 1_455 S
C207 C210 1.403 . S
C208 C205 1.403 . S
C208 C209 1.524 . S
C208 C212 1.400 . S
C209 H194 0.960 . S
C209 H195 0.960 . S
C209 H196 0.960 1_655 S
C209 C208 1.524 . S
C210 C207 1.403 . S
C210 C211 1.393 1_455 S
C210 C214 1.495 . S
C211 C210 1.393 1_655 S
C211 C212 1.384 . S
C211 C213 1.479 1_655 S
C212 H206 0.930 . S
C212 C208 1.400 . S
C212 C211 1.384 . S
C213 C211 1.479 1_455 S
C213 C215 1.381 1_455 S
C213 C219 1.383 . S
C214 C210 1.495 . S
C214 H220 0.959 . S
C214 H221 0.961 . S
C214 H222 0.960 1_455 S
C215 C213 1.381 1_655 S
C215 C216 1.394 . S
C215 H223 0.930 . S
C216 C215 1.394 . S
C216 C217 1.383 1_655 S
C216 H224 0.929 . S
C217 C216 1.383 1_455 S
C217 C218 1.377 . S
C218 H202 0.930 . S
C218 C217 1.377 . S
C218 C219 1.379 . S
C219 H203 0.931 . S
C219 C213 1.383 . S
C219 C218 1.379 . S
H220 C214 0.959 . S
H221 C214 0.961 . S
H222 C214 0.960 1_655 S
H223 C215 0.930 . S
H224 C216 0.929 . S
H225 C233 0.929 . S
H226 C235 0.930 . S
H227 C237 0.930 . S
H228 C240 0.929 . S
H229 C243 0.930 . S
H230 C245 0.960 . S
H231 C245 0.960 . S
H232 C245 0.960 . S
C233 H225 0.929 . S
C233 C234 1.377 . S
C233 C235 1.384 . S
C234 C233 1.377 . S
C234 C240 1.390 1_565 S
C235 H226 0.930 . S
C235 C233 1.384 . S
C235 C236 1.372 . S
C236 C235 1.372 . S
C236 C237 1.400 1_565 S
C236 C241 1.490 . S
C237 H227 0.930 . S
C237 C236 1.400 1_545 S
C237 C240 1.386 . S
H238 C254 0.930 . S
H239 C255 0.931 . S
C240 H228 0.929 . S
C240 C234 1.390 1_545 S
C240 C237 1.386 . S
C241 C236 1.490 . S
C241 C243 1.395 1_565 S
C241 C244 1.403 . S
H242 C248 0.930 . S
C243 H229 0.930 . S
C243 C241 1.395 1_545 S
C243 C246 1.403 . S
C244 C241 1.403 . S
C244 C245 1.524 . S
C244 C248 1.400 . S
C245 H230 0.960 . S
C245 H231 0.960 . S
C245 H232 0.960 . S
C245 C244 1.524 . S
C246 C243 1.403 . S
C246 C247 1.392 . S
C246 C250 1.495 . S
C247 C246 1.392 . S
C247 C248 1.385 1_545 S
C247 C249 1.478 . S
C248 H242 0.930 . S
C248 C244 1.400 . S
C248 C247 1.385 1_565 S
C249 C247 1.478 . S
C249 C251 1.381 1_545 S
C249 C255 1.383 . S
C250 C246 1.495 . S
C250 H256 0.959 . S
C250 H257 0.961 . S
C250 H258 0.960 . S
C251 C249 1.381 1_565 S
C251 C252 1.394 . S
C251 H259 0.930 . S
C252 C251 1.394 . S
C252 C253 1.383 1_565 S
C252 H260 0.929 . S
C253 C252 1.383 1_545 S
C253 C254 1.377 . S
C254 H238 0.930 . S
C254 C253 1.377 . S
C254 C255 1.379 . S
C255 H239 0.931 . S
C255 C249 1.383 . S
C255 C254 1.379 . S
H256 C250 0.959 . S
H257 C250 0.961 . S
H258 C250 0.960 . S
H259 C251 0.930 . S
H260 C252 0.929 . S
H261 C269 0.929 . S
H262 C271 0.930 . S
H263 C273 0.930 . S
H264 C276 0.929 . S
H265 C279 0.930 . S
H266 C281 0.960 . S
H267 C281 0.960 . S
H268 C281 0.960 . S
C269 H261 0.929 . S
C269 C270 1.377 . S
C269 C271 1.384 . S
C270 C269 1.377 . S
C270 C276 1.390 . S
C271 H262 0.930 . S
C271 C269 1.384 . S
C271 C272 1.372 . S
C272 C271 1.372 . S
C272 C273 1.400 . S
C272 C277 1.490 . S
C273 H263 0.930 . S
C273 C272 1.400 . S
C273 C276 1.386 . S
H274 C290 0.930 . S
H275 C291 0.931 . S
C276 H264 0.929 . S
C276 C270 1.390 . S
C276 C273 1.386 . S
C277 C272 1.490 . S
C277 C279 1.395 . S
C277 C280 1.403 . S
H278 C284 0.930 . S
C279 H265 0.930 . S
C279 C277 1.395 . S
C279 C282 1.403 . S
C280 C277 1.403 . S
C280 C281 1.524 . S
C280 C284 1.400 . S
C281 H266 0.960 . S
C281 H267 0.960 . S
C281 H268 0.960 . S
C281 C280 1.524 . S
C282 C279 1.403 . S
C282 C283 1.392 . S
C282 C286 1.495 . S
C283 C282 1.392 . S
C283 C284 1.385 . S
C283 C285 1.478 . S
C284 H278 0.930 . S
C284 C280 1.400 . S
C284 C283 1.385 . S
C285 C283 1.478 . S
C285 C287 1.381 . S
C285 C291 1.383 . S
C286 C282 1.495 . S
C286 H292 0.959 . S
C286 H293 0.961 . S
C286 H294 0.960 . S
C287 C285 1.381 . S
C287 C288 1.394 . S
C287 H295 0.930 . S
C288 C287 1.394 . S
C288 C289 1.383 . S
C288 H296 0.929 . S
C289 C288 1.383 . S
C289 C290 1.377 . S
C290 H274 0.930 . S
C290 C289 1.377 . S
C290 C291 1.379 . S
C291 H275 0.931 . S
C291 C285 1.383 . S
C291 C290 1.379 . S
H292 C286 0.959 . S
H293 C286 0.961 . S
H294 C286 0.960 . S
H295 C287 0.930 . S
H296 C288 0.929 . S
H297 C305 0.929 . S
H298 C307 0.930 . S
H299 C309 0.930 . S
H300 C312 0.929 . S
H301 C315 0.930 . S
H302 C317 0.960 . S
H303 C317 0.960 . S
H304 C317 0.960 . S
C305 H297 0.929 . S
C305 C306 1.377 . S
C305 C307 1.384 . S
C306 C305 1.377 . S
C306 C312 1.390 1_565 S
C307 H298 0.930 . S
C307 C305 1.384 . S
C307 C308 1.372 . S
C308 C307 1.372 . S
C308 C309 1.400 1_565 S
C308 C313 1.490 . S
C309 H299 0.930 . S
C309 C308 1.400 1_545 S
C309 C312 1.386 . S
H310 C326 0.930 . S
H311 C327 0.931 . S
C312 H300 0.929 . S
C312 C306 1.390 1_545 S
C312 C309 1.386 . S
C313 C308 1.490 . S
C313 C315 1.395 1_565 S
C313 C316 1.403 . S
H314 C320 0.930 . S
C315 H301 0.930 . S
C315 C313 1.395 1_545 S
C315 C318 1.403 . S
C316 C313 1.403 . S
C316 C317 1.524 . S
C316 C320 1.400 . S
C317 H302 0.960 . S
C317 H303 0.960 . S
C317 H304 0.960 . S
C317 C316 1.524 . S
C318 C315 1.403 . S
C318 C319 1.392 1_545 S
C318 C322 1.495 . S
C319 C318 1.392 1_565 S
C319 C320 1.385 . S
C319 C321 1.478 . S
C320 H314 0.930 . S
C320 C316 1.400 . S
C320 C319 1.385 . S
C321 C319 1.478 . S
C321 C323 1.382 . S
C321 C327 1.381 1_565 S
C322 C318 1.495 . S
C322 H328 0.959 . S
C322 H329 0.961 . S
C322 H330 0.960 1_545 S
C323 C321 1.382 . S
C323 C324 1.394 . S
C323 H331 0.930 . S
C324 C323 1.394 . S
C324 C325 1.372 1_565 S
C324 H332 0.929 . S
C325 C324 1.372 1_545 S
C325 C326 1.382 . S
C326 H310 0.930 . S
C326 C325 1.382 . S
C326 C327 1.379 . S
C327 H311 0.931 . S
C327 C321 1.381 1_545 S
C327 C326 1.379 . S
H328 C322 0.959 . S
H329 C322 0.961 . S
H330 C322 0.960 1_565 S
H331 C323 0.930 . S
H332 C324 0.929 . S
H333 C341 0.929 . S
H334 C343 0.930 . S
H335 C345 0.930 . S
H336 C348 0.929 . S
H337 C351 0.930 . S
H338 C353 0.960 . S
H339 C353 0.960 . S
H340 C353 0.960 . S
C341 H333 0.929 . S
C341 C342 1.377 . S
C341 C343 1.384 . S
C342 C341 1.377 . S
C342 C348 1.390 . S
C343 H334 0.930 . S
C343 C341 1.384 . S
C343 C344 1.372 . S
C344 C343 1.372 . S
C344 C345 1.400 . S
C344 C349 1.490 . S
C345 H335 0.930 . S
C345 C344 1.400 . S
C345 C348 1.386 . S
H346 C362 0.930 . S
H347 C363 0.931 . S
C348 H336 0.929 . S
C348 C342 1.390 . S
C348 C345 1.386 . S
C349 C344 1.490 . S
C349 C351 1.395 . S
C349 C352 1.403 . S
H350 C356 0.930 . S
C351 H337 0.930 . S
C351 C349 1.395 . S
C351 C354 1.403 . S
C352 C349 1.403 . S
C352 C353 1.524 . S
C352 C356 1.400 . S
C353 H338 0.960 . S
C353 H339 0.960 . S
C353 H340 0.960 . S
C353 C352 1.524 . S
C354 C351 1.403 . S
C354 C355 1.392 . S
C354 C358 1.495 . S
C355 C354 1.392 . S
C355 C356 1.385 . S
C355 C357 1.478 . S
C356 H350 0.930 . S
C356 C352 1.400 . S
C356 C355 1.385 . S
C357 C355 1.478 . S
C357 C359 1.381 . S
C357 C363 1.383 . S
C358 C354 1.495 . S
C358 H364 0.959 . S
C358 H365 0.961 . S
C358 H366 0.960 . S
C359 C357 1.381 . S
C359 C360 1.394 . S
C359 H367 0.930 . S
C360 C359 1.394 . S
C360 C361 1.383 1_554 S
C360 H368 0.929 . S
C361 C360 1.383 1_556 S
C361 C362 1.377 . S
C362 H346 0.930 . S
C362 C361 1.377 . S
C362 C363 1.379 1_556 S
C363 H347 0.931 . S
C363 C357 1.383 . S
C363 C362 1.379 1_554 S
H364 C358 0.959 . S
H365 C358 0.961 . S
H366 C358 0.960 . S
H367 C359 0.930 . S
H368 C360 0.929 . S
H369 C377 0.929 . S
H370 C379 0.930 . S
H371 C381 0.930 . S
H372 C384 0.929 . S
H373 C387 0.930 . S
H374 C389 0.960 . S
H375 C389 0.960 . S
H376 C389 0.960 . S
C377 H369 0.929 . S
C377 C378 1.377 1_655 S
C377 C379 1.384 . S
C378 C377 1.377 1_455 S
C378 C384 1.390 . S
C379 H370 0.930 . S
C379 C377 1.384 . S
C379 C380 1.351 1_655 S
C380 C379 1.351 1_455 S
C380 C381 1.413 . S
C380 C385 1.505 1_455 S
C381 H371 0.930 . S
C381 C380 1.413 . S
C381 C384 1.386 . S
H382 C398 0.930 . S
H383 C399 0.931 . S
C384 H372 0.929 . S
C384 C378 1.390 . S
C384 C381 1.386 . S
C385 C380 1.505 1_655 S
C385 C387 1.404 . S
C385 C388 1.388 1_655 S
H386 C392 0.930 . S
C387 H373 0.930 . S
C387 C385 1.404 . S
C387 C390 1.403 . S
C388 C385 1.388 1_455 S
C388 C389 1.524 . S
C388 C392 1.400 . S
C389 H374 0.960 . S
C389 H375 0.960 . S
C389 H376 0.960 . S
C389 C388 1.524 . S
C390 C387 1.403 . S
C390 C391 1.392 . S
C390 C394 1.495 . S
C391 C390 1.392 . S
C391 C392 1.385 1_655 S
C391 C393 1.478 . S
C392 H386 0.930 . S
C392 C388 1.400 . S
C392 C391 1.385 1_455 S
C393 C391 1.478 . S
C393 C395 1.381 . S
C393 C399 1.383 1_655 S
C394 C390 1.495 . S
C394 H400 0.959 . S
C394 H401 0.961 . S
C394 H402 0.960 . S
C395 C393 1.381 . S
C395 C396 1.394 . S
C395 H403 0.930 . S
C396 C395 1.394 . S
C396 C397 1.383 . S
C396 H404 0.929 . S
C397 C396 1.383 . S
C397 C398 1.377 1_655 S
C398 H382 0.930 . S
C398 C397 1.377 1_455 S
C398 C399 1.379 . S
C399 H383 0.931 . S
C399 C393 1.383 1_455 S
C399 C398 1.379 . S
H400 C394 0.959 . S
H401 C394 0.961 . S
H402 C394 0.960 . S
H403 C395 0.930 . S
H404 C396 0.929 . S
H405 C413 0.929 . S
H406 C415 0.930 . S
H407 C417 0.930 . S
H408 C420 0.929 . S
H409 C423 0.930 . S
H410 C425 0.960 . S
H411 C425 0.960 1_545 S
H412 C425 0.960 . S
C413 H405 0.929 . S
C413 C414 1.377 . S
C413 C415 1.384 . S
C414 C413 1.377 . S
C414 C420 1.390 1_545 S
C415 H406 0.930 . S
C415 C413 1.384 . S
C415 C416 1.372 . S
C416 C415 1.372 . S
C416 C417 1.400 1_545 S
C416 C421 1.490 . S
C417 H407 0.930 . S
C417 C416 1.400 1_565 S
C417 C420 1.386 . S
H418 C434 0.930 . S
H419 C435 0.931 . S
C420 H408 0.929 . S
C420 C414 1.390 1_565 S
C420 C417 1.386 . S
C421 C416 1.490 . S
C421 C423 1.395 . S
C421 C424 1.403 . S
H422 C428 0.931 . S
C423 H409 0.930 . S
C423 C421 1.395 . S
C423 C426 1.403 . S
C424 C421 1.403 . S
C424 C425 1.530 1_545 S
C424 C428 1.388 1_545 S
C425 H410 0.960 . S
C425 H411 0.960 1_565 S
C425 H412 0.960 . S
C425 C424 1.530 1_565 S
C426 C423 1.403 . S
C426 C427 1.392 . S
C426 C430 1.495 . S
C427 C426 1.392 . S
C427 C428 1.389 1_545 S
C427 C429 1.478 . S
C428 H422 0.931 . S
C428 C424 1.388 1_565 S
C428 C427 1.389 1_565 S
C429 C427 1.478 . S
C429 C431 1.381 . S
C429 C435 1.383 1_545 S
C430 C426 1.495 . S
C430 H436 0.959 . S
C430 H437 0.961 1_545 S
C430 H438 0.960 . S
C431 C429 1.381 . S
C431 C432 1.394 . S
C431 H439 0.930 . S
C432 C431 1.394 . S
C432 C433 1.401 . S
C432 H440 0.929 . S
C433 C432 1.401 . S
C433 C434 1.368 1_545 S
C434 H418 0.930 . S
C434 C433 1.368 1_565 S
C434 C435 1.379 . S
C435 H419 0.931 . S
C435 C429 1.383 1_565 S
C435 C434 1.379 . S
H436 C430 0.959 . S
H437 C430 0.961 1_565 S
H438 C430 0.960 . S
H439 C431 0.930 . S
H440 C432 0.929 . S
H441 C449 0.929 . S
H442 C451 0.930 . S
H443 C453 0.930 . S
H444 C456 0.929 . S
H445 C459 0.930 . S
H446 C461 0.960 . S
H447 C461 0.960 . S
H448 C461 0.960 . S
C449 H441 0.929 . S
C449 C450 1.377 . S
C449 C451 1.384 . S
C450 C449 1.377 . S
C450 C456 1.390 . S
C451 H442 0.930 . S
C451 C449 1.384 . S
C451 C452 1.372 . S
C452 C451 1.372 . S
C452 C453 1.400 . S
C452 C457 1.490 . S
C453 H443 0.930 . S
C453 C452 1.400 . S
C453 C456 1.386 . S
H454 C470 0.930 . S
H455 C471 0.931 . S
C456 H444 0.929 . S
C456 C450 1.390 . S
C456 C453 1.386 . S
C457 C452 1.490 . S
C457 C459 1.395 . S
C457 C460 1.403 . S
H458 C464 0.930 . S
C459 H445 0.930 . S
C459 C457 1.395 . S
C459 C462 1.403 . S
C460 C457 1.403 . S
C460 C461 1.524 . S
C460 C464 1.400 . S
C461 H446 0.960 . S
C461 H447 0.960 . S
C461 H448 0.960 . S
C461 C460 1.524 . S
C462 C459 1.403 . S
C462 C463 1.392 . S
C462 C466 1.495 . S
C463 C462 1.392 . S
C463 C464 1.385 . S
C463 C465 1.478 . S
C464 H458 0.930 . S
C464 C460 1.400 . S
C464 C463 1.385 . S
C465 C463 1.478 . S
C465 C467 1.381 . S
C465 C471 1.383 . S
C466 C462 1.495 . S
C466 H472 0.959 . S
C466 H473 0.961 . S
C466 H474 0.960 . S
C467 C465 1.381 . S
C467 C468 1.394 1_554 S
C467 H475 0.930 . S
C468 C467 1.394 1_556 S
C468 C469 1.383 . S
C468 H476 0.929 . S
C469 C468 1.383 . S
C469 C470 1.377 1_556 S
C470 H454 0.930 . S
C470 C469 1.377 1_554 S
C470 C471 1.379 . S
C471 H455 0.931 . S
C471 C465 1.383 . S
C471 C470 1.379 . S
H472 C466 0.959 . S
H473 C466 0.961 . S
H474 C466 0.960 . S
H475 C467 0.930 . S
H476 C468 0.929 . S
H477 C485 0.929 . S
H478 C487 0.930 . S
H479 C489 0.930 . S
H480 C492 0.929 . S
H481 C495 0.930 . S
H482 C497 0.960 . S
H483 C497 0.960 . S
H484 C497 0.960 . S
C485 H477 0.929 . S
C485 C486 1.377 1_455 S
C485 C487 1.384 . S
C486 C485 1.377 1_655 S
C486 C492 1.390 . S
C487 H478 0.930 . S
C487 C485 1.384 . S
C487 C488 1.372 1_455 S
C488 C487 1.372 1_655 S
C488 C489 1.400 . S
C488 C493 1.487 . S
C489 H479 0.930 . S
C489 C488 1.400 . S
C489 C492 1.386 . S
H490 C506 0.930 . S
H491 C507 0.931 . S
C492 H480 0.929 . S
C492 C486 1.390 . S
C492 C489 1.386 . S
C493 C488 1.487 . S
C493 C495 1.390 1_655 S
C493 C496 1.410 . S
H494 C500 0.930 . S
C495 H481 0.930 . S
C495 C493 1.390 1_455 S
C495 C498 1.403 . S
C496 C493 1.410 . S
C496 C497 1.524 . S
C496 C500 1.400 . S
C497 H482 0.960 . S
C497 H483 0.960 . S
C497 H484 0.960 . S
C497 C496 1.524 . S
C498 C495 1.403 . S
C498 C499 1.392 . S
C498 C502 1.495 . S
C499 C498 1.392 . S
C499 C500 1.385 1_455 S
C499 C501 1.478 . S
C500 H494 0.930 . S
C500 C496 1.400 . S
C500 C499 1.385 1_655 S
C501 C499 1.478 . S
C501 C503 1.381 . S
C501 C507 1.383 1_455 S
C502 C498 1.495 . S
C502 H508 0.959 . S
C502 H509 0.961 . S
C502 H510 0.960 . S
C503 C501 1.381 . S
C503 C504 1.394 . S
C503 H511 0.930 . S
C504 C503 1.394 . S
C504 C505 1.383 . S
C504 H512 0.929 . S
C505 C504 1.383 . S
C505 C506 1.377 1_455 S
C506 H490 0.930 . S
C506 C505 1.377 1_655 S
C506 C507 1.379 . S
C507 H491 0.931 . S
C507 C501 1.383 1_655 S
C507 C506 1.379 . S
H508 C502 0.959 . S
H509 C502 0.961 . S
H510 C502 0.960 . S
H511 C503 0.930 . S
H512 C504 0.929 . S
C109 C47 1.389 . S
C90 C6 1.403 1_455 S
C126 C22 1.549 . S
C145 C65 1.559 . S
C162 C34 1.262 . S
C181 C78 1.276 . S
C198 C7 1.403 1_655 S
C217 C45 1.406 1_455 S
C253 C56 1.565 1_545 S
C234 C23 1.543 . S
C270 C35 1.263 . S
C289 C69 1.263 . S
C325 C58 1.486 1_545 S
C306 C36 1.478 . S
C342 C9 1.700 . S
C361 C71 1.726 . S
C397 C52 1.478 . S
C378 C21 1.470 1_455 S
C433 C60 1.472 1_545 S
C414 C37 1.475 . S
C469 C73 1.727 . S
C450 C8 1.702 . S
C486 C20 1.471 1_655 S
C505 C43 1.487 1_455 S
