# Generated by pormake.
# Topology myd, (4,6)-cn, num edge types: 1
# Building blocks:
#     Node 0, Type 0, BuildingBlock: NAWXER_clean_sbu_0, # of connection points: 4
#     Node 1, Type 0, BuildingBlock: NAWXER_clean_sbu_0, # of connection points: 4
#     Node 2, Type 0, BuildingBlock: NAWXER_clean_sbu_0, # of connection points: 4
#     Node 3, Type 0, BuildingBlock: NAWXER_clean_sbu_0, # of connection points: 4
#     Node 4, Type 0, BuildingBlock: NAWXER_clean_sbu_0, # of connection points: 4
#     Node 5, Type 0, BuildingBlock: NAWXER_clean_sbu_0, # of connection points: 4
#     Node 6, Type 0, BuildingBlock: NAWXER_clean_sbu_0, # of connection points: 4
#     Node 7, Type 0, BuildingBlock: NAWXER_clean_sbu_0, # of connection points: 4
#     Node 8, Type 0, BuildingBlock: NAWXER_clean_sbu_0, # of connection points: 4
#     Node 9, Type 0, BuildingBlock: NAWXER_clean_sbu_0, # of connection points: 4
#     Node 10, Type 0, BuildingBlock: NAWXER_clean_sbu_0, # of connection points: 4
#     Node 11, Type 0, BuildingBlock: NAWXER_clean_sbu_0, # of connection points: 4
#     Node 12, Type 1, BuildingBlock: VOLQOD_clean_sbu_1, # of connection points: 6
#     Node 13, Type 1, BuildingBlock: VOLQOD_clean_sbu_1, # of connection points: 6
#     Node 14, Type 1, BuildingBlock: VOLQOD_clean_sbu_1, # of connection points: 6
#     Node 15, Type 1, BuildingBlock: VOLQOD_clean_sbu_1, # of connection points: 6
#     Node 16, Type 1, BuildingBlock: VOLQOD_clean_sbu_1, # of connection points: 6
#     Node 17, Type 1, BuildingBlock: VOLQOD_clean_sbu_1, # of connection points: 6
#     Node 18, Type 1, BuildingBlock: VOLQOD_clean_sbu_1, # of connection points: 6
#     Node 19, Type 1, BuildingBlock: VOLQOD_clean_sbu_1, # of connection points: 6
#     Edge 20, Type (0, 1), BuildingBlock: MIFKUJ_clean_linker_0, # of connection points: 2
#     Edge 21, Type (0, 1), BuildingBlock: MIFKUJ_clean_linker_0, # of connection points: 2
#     Edge 22, Type (0, 1), BuildingBlock: MIFKUJ_clean_linker_0, # of connection points: 2
#     Edge 23, Type (0, 1), BuildingBlock: MIFKUJ_clean_linker_0, # of connection points: 2
#     Edge 24, Type (0, 1), BuildingBlock: MIFKUJ_clean_linker_0, # of connection points: 2
#     Edge 25, Type (0, 1), BuildingBlock: MIFKUJ_clean_linker_0, # of connection points: 2
#     Edge 26, Type (0, 1), BuildingBlock: MIFKUJ_clean_linker_0, # of connection points: 2
#     Edge 27, Type (0, 1), BuildingBlock: MIFKUJ_clean_linker_0, # of connection points: 2
#     Edge 28, Type (0, 1), BuildingBlock: MIFKUJ_clean_linker_0, # of connection points: 2
#     Edge 29, Type (0, 1), BuildingBlock: MIFKUJ_clean_linker_0, # of connection points: 2
#     Edge 30, Type (0, 1), BuildingBlock: MIFKUJ_clean_linker_0, # of connection points: 2
#     Edge 31, Type (0, 1), BuildingBlock: MIFKUJ_clean_linker_0, # of connection points: 2
#     Edge 32, Type (0, 1), BuildingBlock: MIFKUJ_clean_linker_0, # of connection points: 2
#     Edge 33, Type (0, 1), BuildingBlock: MIFKUJ_clean_linker_0, # of connection points: 2
#     Edge 34, Type (0, 1), BuildingBlock: MIFKUJ_clean_linker_0, # of connection points: 2
#     Edge 35, Type (0, 1), BuildingBlock: MIFKUJ_clean_linker_0, # of connection points: 2
#     Edge 36, Type (0, 1), BuildingBlock: MIFKUJ_clean_linker_0, # of connection points: 2
#     Edge 37, Type (0, 1), BuildingBlock: MIFKUJ_clean_linker_0, # of connection points: 2
#     Edge 38, Type (0, 1), BuildingBlock: MIFKUJ_clean_linker_0, # of connection points: 2
#     Edge 39, Type (0, 1), BuildingBlock: MIFKUJ_clean_linker_0, # of connection points: 2
#     Edge 40, Type (0, 1), BuildingBlock: MIFKUJ_clean_linker_0, # of connection points: 2
#     Edge 41, Type (0, 1), BuildingBlock: MIFKUJ_clean_linker_0, # of connection points: 2
#     Edge 42, Type (0, 1), BuildingBlock: MIFKUJ_clean_linker_0, # of connection points: 2
#     Edge 43, Type (0, 1), BuildingBlock: MIFKUJ_clean_linker_0, # of connection points: 2
#     Edge 44, Type (0, 1), BuildingBlock: MIFKUJ_clean_linker_0, # of connection points: 2
#     Edge 45, Type (0, 1), BuildingBlock: MIFKUJ_clean_linker_0, # of connection points: 2
#     Edge 46, Type (0, 1), BuildingBlock: MIFKUJ_clean_linker_0, # of connection points: 2
#     Edge 47, Type (0, 1), BuildingBlock: MIFKUJ_clean_linker_0, # of connection points: 2
#     Edge 48, Type (0, 1), BuildingBlock: MIFKUJ_clean_linker_0, # of connection points: 2
#     Edge 49, Type (0, 1), BuildingBlock: MIFKUJ_clean_linker_0, # of connection points: 2
#     Edge 50, Type (0, 1), BuildingBlock: MIFKUJ_clean_linker_0, # of connection points: 2
#     Edge 51, Type (0, 1), BuildingBlock: MIFKUJ_clean_linker_0, # of connection points: 2
#     Edge 52, Type (0, 1), BuildingBlock: MIFKUJ_clean_linker_0, # of connection points: 2
#     Edge 53, Type (0, 1), BuildingBlock: MIFKUJ_clean_linker_0, # of connection points: 2
#     Edge 54, Type (0, 1), BuildingBlock: MIFKUJ_clean_linker_0, # of connection points: 2
#     Edge 55, Type (0, 1), BuildingBlock: MIFKUJ_clean_linker_0, # of connection points: 2
#     Edge 56, Type (0, 1), BuildingBlock: MIFKUJ_clean_linker_0, # of connection points: 2
#     Edge 57, Type (0, 1), BuildingBlock: MIFKUJ_clean_linker_0, # of connection points: 2
#     Edge 58, Type (0, 1), BuildingBlock: MIFKUJ_clean_linker_0, # of connection points: 2
#     Edge 59, Type (0, 1), BuildingBlock: MIFKUJ_clean_linker_0, # of connection points: 2
#     Edge 60, Type (0, 1), BuildingBlock: MIFKUJ_clean_linker_0, # of connection points: 2
#     Edge 61, Type (0, 1), BuildingBlock: MIFKUJ_clean_linker_0, # of connection points: 2
#     Edge 62, Type (0, 1), BuildingBlock: MIFKUJ_clean_linker_0, # of connection points: 2
#     Edge 63, Type (0, 1), BuildingBlock: MIFKUJ_clean_linker_0, # of connection points: 2
#     Edge 64, Type (0, 1), BuildingBlock: MIFKUJ_clean_linker_0, # of connection points: 2
#     Edge 65, Type (0, 1), BuildingBlock: MIFKUJ_clean_linker_0, # of connection points: 2
#     Edge 66, Type (0, 1), BuildingBlock: MIFKUJ_clean_linker_0, # of connection points: 2
#     Edge 67, Type (0, 1), BuildingBlock: MIFKUJ_clean_linker_0, # of connection points: 2
# Relax obj value: 0.200
# Max RMSD: 0.164
# Mean RMSD: 0.124
data_MOF--net-myd--node1-NAWXER_clean_sbu_0--node2-VOLQOD_clean_sbu_1--edge1-MIFKUJ_clean_linker_0
_symmetry_space_group_name_H-M    P1
_symmetry_Int_Tables_number       1
_symmetry_cell_setting            triclinic
loop_
_symmetry_equiv_pos_as_xyz
'x, y, z'
_cell_length_a     59.967488
_cell_length_b     60.038721
_cell_length_c     60.097437
_cell_angle_alpha  91.228125
_cell_angle_beta   90.064309
_cell_angle_gamma 91.373455
loop_
_atom_site_label
_atom_site_type_symbol
_atom_site_fract_x
_atom_site_fract_y
_atom_site_fract_z
_atom_type_partial_charge
C0 C 0.99664 0.21264 0.29431 0.0
C1 C 0.99314 0.27467 0.3484 0.0
O2 O 0.01575 0.21998 0.30123 0.0
Zn3 Zn 0.02961 0.245 0.32381 0.0
O4 O 0.97889 0.22122 0.3019 0.0
Zn5 Zn 0.99391 0.24255 0.32193 0.0
O6 O 0.00971 0.26309 0.29769 0.0
O7 O 0.04617 0.264 0.30327 0.0
O8 O 0.97685 0.26365 0.33975 0.0
O9 O 0.01308 0.269 0.34381 0.0
O10 O 0.04518 0.22696 0.34498 0.0
O11 O 0.0088 0.22052 0.34495 0.0
C12 C 0.0293 0.26986 0.29214 0.0
C13 C 0.02832 0.21598 0.35203 0.0
C14 C 0.03805 0.77578 0.2014 0.0
C15 C 0.023 0.71704 0.14572 0.0
O16 O 0.05232 0.76391 0.19135 0.0
Zn17 Zn 0.03118 0.74728 0.17259 0.0
O18 O 0.01723 0.77293 0.19709 0.0
Zn19 Zn 0.99623 0.75209 0.17616 0.0
O20 O 0.97911 0.7356 0.19804 0.0
O21 O 0.01464 0.72684 0.19664 0.0
O22 O 0.0052 0.72584 0.15333 0.0
O23 O 0.04193 0.72507 0.15172 0.0
O24 O 0.01785 0.7726 0.15213 0.0
O25 O 0.98162 0.77375 0.15819 0.0
C26 C 0.99508 0.72388 0.20479 0.0
C27 C 0.99888 0.78119 0.1483 0.0
C28 C 0.36641 0.01133 0.22736 0.0
C29 C 0.3014 0.00946 0.2756 0.0
O30 O 0.35694 0.99198 0.22814 0.0
Zn31 Zn 0.32897 0.97636 0.24391 0.0
O32 O 0.35863 0.02744 0.23874 0.0
Zn33 Zn 0.33424 0.01098 0.25195 0.0
O34 O 0.35047 0.9886 0.27329 0.0
O35 O 0.34178 0.95402 0.26243 0.0
O36 O 0.31465 0.026 0.27273 0.0
O37 O 0.30498 0.99075 0.26578 0.0
O38 O 0.3107 0.96707 0.21882 0.0
O39 O 0.31279 0.0036 0.22393 0.0
C40 C 0.3519 0.96756 0.2757 0.0
C41 C 0.30524 0.98644 0.213 0.0
C42 C 0.71409 0.4841 0.22313 0.0
C43 C 0.65911 0.4892 0.28259 0.0
O44 O 0.70512 0.46834 0.23401 0.0
Zn45 Zn 0.68561 0.48634 0.25181 0.0
O46 O 0.7081 0.50424 0.22687 0.0
Zn47 Zn 0.68526 0.5214 0.24895 0.0
O48 O 0.70524 0.54069 0.26636 0.0
O49 O 0.70953 0.50477 0.27182 0.0
O50 O 0.66403 0.50827 0.27448 0.0
O51 O 0.66763 0.4718 0.27417 0.0
O52 O 0.66242 0.49825 0.22768 0.0
O53 O 0.66503 0.53496 0.22881 0.0
C54 C 0.71528 0.52513 0.27595 0.0
C55 C 0.6563 0.51717 0.22054 0.0
C56 C 0.2417 0.34802 0.02596 0.0
C57 C 0.29813 0.29113 0.02175 0.0
O58 O 0.24626 0.34217 0.00586 0.0
Zn59 Zn 0.26859 0.32024 0.98893 0.0
O60 O 0.25268 0.34008 0.04193 0.0
Zn61 Zn 0.2714 0.32087 0.0244 0.0
O62 O 0.29422 0.34277 0.00804 0.0
O63 O 0.28811 0.33976 0.97193 0.0
O64 O 0.29148 0.30117 0.03929 0.0
O65 O 0.29097 0.29689 0.00266 0.0
O66 O 0.24796 0.29953 0.97371 0.0
O67 O 0.24722 0.29756 0.01041 0.0
C68 C 0.29911 0.3484 0.98815 0.0
C69 C 0.23998 0.29091 0.99126 0.0
C70 C 0.23194 0.70574 0.50849 0.0
C71 C 0.2953 0.65625 0.51379 0.0
O72 O 0.2395 0.69927 0.48951 0.0
Zn73 Zn 0.26505 0.67805 0.47644 0.0
O74 O 0.24091 0.69894 0.52623 0.0
Zn75 Zn 0.26321 0.68071 0.51191 0.0
O76 O 0.28381 0.70541 0.49625 0.0
O77 O 0.28398 0.6984 0.45994 0.0
O78 O 0.28458 0.6651 0.5298 0.0
O79 O 0.28933 0.65973 0.49372 0.0
O80 O 0.24775 0.65529 0.46056 0.0
O81 O 0.24283 0.65477 0.49693 0.0
C82 C 0.29049 0.71018 0.47664 0.0
C83 C 0.23824 0.64689 0.47742 0.0
C84 C 0.73326 0.85081 0.48484 0.0
C85 C 0.79103 0.7954 0.48112 0.0
O86 O 0.74182 0.84195 0.46758 0.0
Zn87 Zn 0.76287 0.82369 0.48254 0.0
O88 O 0.74064 0.84594 0.50413 0.0
Zn89 Zn 0.76536 0.82501 0.51783 0.0
O90 O 0.78669 0.84534 0.53217 0.0
O91 O 0.78751 0.84679 0.49556 0.0
O92 O 0.78655 0.80175 0.50109 0.0
O93 O 0.78116 0.8041 0.46483 0.0
O94 O 0.74181 0.8002 0.49989 0.0
O95 O 0.74773 0.80514 0.53596 0.0
C96 C 0.79515 0.85333 0.51459 0.0
C97 C 0.73772 0.79477 0.52005 0.0
C98 C 0.53071 0.78513 0.78204 0.0
C99 C 0.54247 0.72939 0.83813 0.0
O100 O 0.51237 0.77731 0.79007 0.0
Zn101 Zn 0.50189 0.75384 0.81498 0.0
O102 O 0.54923 0.77853 0.78945 0.0
Zn103 Zn 0.53694 0.75811 0.81063 0.0
O104 O 0.52084 0.73376 0.78907 0.0
O105 O 0.48499 0.7317 0.79765 0.0
O106 O 0.55713 0.74047 0.82754 0.0
O107 O 0.52176 0.73311 0.83502 0.0
O108 O 0.48645 0.77232 0.83633 0.0
O109 O 0.52247 0.78037 0.83445 0.0
C110 C 0.50128 0.72521 0.78585 0.0
C111 C 0.50317 0.78424 0.84262 0.0
C112 C 0.49263 0.21939 0.70753 0.0
C113 C 0.4948 0.27718 0.65194 0.0
O114 O 0.47624 0.22907 0.69885 0.0
Zn115 Zn 0.49333 0.24773 0.67912 0.0
O116 O 0.51252 0.22411 0.701 0.0
Zn117 Zn 0.52862 0.24582 0.67759 0.0
O118 O 0.54747 0.26449 0.69671 0.0
O119 O 0.51145 0.26888 0.70243 0.0
O120 O 0.51421 0.26988 0.65634 0.0
O121 O 0.47776 0.26896 0.66159 0.0
O122 O 0.50578 0.22438 0.6549 0.0
O123 O 0.54255 0.22523 0.65727 0.0
C124 C 0.53181 0.27375 0.70741 0.0
C125 C 0.52476 0.21734 0.64836 0.0
C126 C 0.80582 0.49078 0.72549 0.0
C127 C 0.86002 0.48707 0.78605 0.0
O128 O 0.81373 0.50993 0.7318 0.0
Zn129 Zn 0.83741 0.5236 0.7557 0.0
O130 O 0.81261 0.47325 0.73463 0.0
Zn131 Zn 0.83379 0.48819 0.75464 0.0
O132 O 0.81114 0.50558 0.77615 0.0
O133 O 0.81877 0.54177 0.7748 0.0
O134 O 0.85088 0.47083 0.77532 0.0
O135 O 0.85646 0.50702 0.78006 0.0
O136 O 0.859 0.538 0.73674 0.0
O137 O 0.85797 0.50147 0.73186 0.0
C138 C 0.80715 0.52565 0.78239 0.0
C139 C 0.86579 0.5207 0.72655 0.0
C140 C 0.24093 0.0077 0.73131 0.0
C141 C 0.17937 0.00957 0.78418 0.0
O142 O 0.23378 0.98822 0.73667 0.0
Zn143 Zn 0.2075 0.97364 0.75664 0.0
O144 O 0.2313 0.02496 0.73876 0.0
Zn145 Zn 0.2096 0.00922 0.75665 0.0
O146 O 0.23084 0.99321 0.77996 0.0
O147 O 0.22451 0.95673 0.7775 0.0
O148 O 0.18943 0.02601 0.77535 0.0
O149 O 0.18462 0.98971 0.77841 0.0
O150 O 0.18869 0.95804 0.73477 0.0
O151 O 0.18895 0.99452 0.73137 0.0
C152 C 0.23495 0.97343 0.78623 0.0
C153 C 0.18239 0.9751 0.72455 0.0
C154 C 0.73876 0.1602 0.97537 0.0
C155 C 0.78896 0.22245 0.95945 0.0
O156 O 0.7456 0.17049 0.9931 0.0
Zn157 Zn 0.76829 0.19733 0.00178 0.0
O158 O 0.74651 0.16588 0.95661 0.0
Zn159 Zn 0.76515 0.19048 0.96705 0.0
O160 O 0.79267 0.17514 0.98258 0.0
O161 O 0.79172 0.18376 0.0184 0.0
O162 O 0.78031 0.20874 0.94533 0.0
O163 O 0.78577 0.21989 0.98033 0.0
O164 O 0.74916 0.21761 0.01723 0.0
O165 O 0.74127 0.21314 0.98139 0.0
C166 C 0.80103 0.17392 0.00212 0.0
C167 C 0.73716 0.22205 0.00052 0.0
O168 O 0.09792 0.0342 0.08932 0.0
Zn169 Zn 0.06643 0.0412 0.08046 0.0
O170 O 0.06597 0.05241 0.0503 0.0
Zn171 Zn 0.0572 0.08337 0.05119 0.0
Zn172 Zn 0.09543 0.05046 0.03702 0.0
Zn173 Zn 0.04473 0.03467 0.03221 0.0
O174 O 0.02843 0.08675 0.0349 0.0
O175 O 0.01678 0.05199 0.02726 0.0
O176 O 0.05407 0.06344 0.10279 0.0
O177 O 0.05055 0.09357 0.08246 0.0
O178 O 0.08075 0.10394 0.03848 0.0
O179 O 0.10768 0.08083 0.02908 0.0
O180 O 0.09417 0.03348 0.00807 0.0
O181 O 0.04865 0.01239 0.08198 0.0
O182 O 0.05795 0.02752 0.00194 0.0
O183 O 0.03624 0.00591 0.04752 0.0
C184 C 0.11603 0.03221 0.07845 0.0
C185 C 0.01351 0.07289 0.02785 0.0
C186 C 0.09997 0.10039 0.03034 0.0
C187 C 0.04909 0.08385 0.10104 0.0
C188 C 0.07816 0.02692 0.99544 0.0
C189 C 0.03834 1.0 0.06767 0.0
O190 O 0.11721 0.03682 0.05789 0.0
O191 O 0.92917 0.45045 0.1008 0.0
Zn192 Zn 0.961 0.4477 0.09011 0.0
O193 O 0.96152 0.43588 0.05987 0.0
Zn194 Zn 0.97137 0.40538 0.0606 0.0
Zn195 Zn 0.93181 0.43683 0.04739 0.0
Zn196 Zn 0.98172 0.45337 0.04138 0.0
O197 O 0.00289 0.40393 0.04955 0.0
O198 O 0.01084 0.43768 0.03685 0.0
O199 O 0.97661 0.42712 0.11121 0.0
O200 O 0.97341 0.39502 0.09218 0.0
O201 O 0.9512 0.3846 0.04216 0.0
O202 O 0.92228 0.40627 0.03667 0.0
O203 O 0.93143 0.45469 0.01951 0.0
O204 O 0.97489 0.4787 0.09084 0.0
O205 O 0.96742 0.45892 0.01144 0.0
O206 O 0.98863 0.48298 0.05672 0.0
C207 C 0.91051 0.45106 0.09067 0.0
C208 C 0.01657 0.41791 0.04109 0.0
C209 C 0.93167 0.38755 0.03453 0.0
C210 C 0.97805 0.40595 0.11008 0.0
C211 C 0.94691 0.46015 0.00603 0.0
C212 C 0.98495 0.49047 0.07635 0.0
O213 O 0.90909 0.44757 0.06972 0.0
O214 O 0.10834 0.90692 0.46832 0.0
Zn215 Zn 0.1013 0.93883 0.46201 0.0
O216 O 0.07092 0.94096 0.4509 0.0
Zn217 Zn 0.07133 0.95251 0.42095 0.0
Zn218 Zn 0.05666 0.91156 0.4505 0.0
Zn219 Zn 0.05438 0.9611 0.47011 0.0
O220 O 0.05853 0.98333 0.42007 0.0
O221 O 0.05119 0.991 0.45561 0.0
O222 O 0.1241 0.95104 0.44049 0.0
O223 O 0.10292 0.95671 0.41089 0.0
O224 O 0.05734 0.93084 0.39856 0.0
O225 O 0.05323 0.90042 0.41876 0.0
O226 O 0.02607 0.91288 0.46454 0.0
O227 O 0.10449 0.9545 0.49162 0.0
O228 O 0.02391 0.94799 0.4767 0.0
O229 O 0.0703 0.96573 0.49945 0.0
C230 C 0.09621 0.88946 0.47095 0.0
C231 C 0.05268 0.99699 0.43541 0.0
C232 C 0.05294 0.91004 0.40007 0.0
C233 C 0.12194 0.95646 0.42025 0.0
C234 C 0.01528 0.92852 0.47395 0.0
C235 C 0.09054 0.96307 0.50504 0.0
O236 O 0.07544 0.88919 0.46634 0.0
O237 O 0.97453 0.59049 0.40867 0.0
Zn238 Zn 0.97165 0.58466 0.44096 0.0
O239 O 0.95583 0.55656 0.44571 0.0
Zn240 Zn 0.92809 0.56299 0.46118 0.0
Zn241 Zn 0.94941 0.54228 0.41671 0.0
Zn242 Zn 0.97408 0.53708 0.46388 0.0
O243 O 0.92789 0.54995 0.49149 0.0
O244 O 0.9606 0.5337 0.49488 0.0
O245 O 0.95562 0.61122 0.45317 0.0
O246 O 0.92437 0.59578 0.46593 0.0
O247 O 0.90123 0.5525 0.44343 0.0
O248 O 0.91631 0.53897 0.41236 0.0
O249 O 0.96149 0.51131 0.41535 0.0
O250 O 0.00247 0.58392 0.45318 0.0
O251 O 0.97561 0.50633 0.44908 0.0
O252 O 0.00575 0.55013 0.46703 0.0
C253 C 0.96985 0.58003 0.3906 0.0
C254 C 0.9419 0.5395 0.50301 0.0
C255 C 0.8993 0.54361 0.42408 0.0
C256 C 0.93654 0.61289 0.46216 0.0
C257 C 0.97053 0.49893 0.4296 0.0
C258 C 0.01411 0.56923 0.46235 0.0
O259 O 0.96077 0.56062 0.39073 0.0
O260 O 0.43812 0.96518 0.58914 0.0
Zn261 Zn 0.46812 0.95905 0.57565 0.0
O262 O 0.46484 0.94589 0.54602 0.0
Zn263 Zn 0.47668 0.91597 0.54574 0.0
Zn264 Zn 0.43334 0.94444 0.5381 0.0
Zn265 Zn 0.48114 0.96412 0.52462 0.0
O266 O 0.50462 0.9148 0.52741 0.0
O267 O 0.50905 0.94894 0.51438 0.0
O268 O 0.48398 0.93884 0.59634 0.0
O269 O 0.48554 0.9072 0.57663 0.0
O270 O 0.45421 0.89332 0.53356 0.0
O271 O 0.42306 0.91258 0.5329 0.0
O272 O 0.42833 0.95857 0.50872 0.0
O273 O 0.48431 0.98863 0.57438 0.0
O274 O 0.46222 0.96885 0.49748 0.0
O275 O 0.4902 0.99397 0.53838 0.0
C276 C 0.41835 0.96532 0.58141 0.0
C277 C 0.51578 0.92913 0.51642 0.0
C278 C 0.43327 0.89434 0.53024 0.0
C279 C 0.48874 0.91831 0.5947 0.0
C280 C 0.44134 0.96643 0.49397 0.0
C281 C 0.49123 0.0008 0.55859 0.0
O282 O 0.41395 0.95883 0.56153 0.0
O283 O 0.59691 0.52504 0.59839 0.0
Zn284 Zn 0.56594 0.53381 0.5892 0.0
O285 O 0.56636 0.54686 0.55963 0.0
Zn286 Zn 0.55701 0.57765 0.56184 0.0
Zn287 Zn 0.59661 0.54655 0.54768 0.0
Zn288 Zn 0.54578 0.52994 0.53985 0.0
O289 O 0.52832 0.58194 0.54555 0.0
O290 O 0.51834 0.54798 0.53335 0.0
O291 O 0.5536 0.55492 0.61259 0.0
O292 O 0.55029 0.58589 0.59347 0.0
O293 O 0.58053 0.59946 0.55144 0.0
O294 O 0.60916 0.57779 0.54412 0.0
O295 O 0.5967 0.53148 0.51736 0.0
O296 O 0.54716 0.50582 0.58895 0.0
O297 O 0.56117 0.522 0.51084 0.0
O298 O 0.53522 0.50126 0.55411 0.0
C299 C 0.61555 0.52449 0.58825 0.0
C300 C 0.51427 0.56862 0.53609 0.0
C301 C 0.60077 0.59704 0.5457 0.0
C302 C 0.54881 0.57543 0.61161 0.0
C303 C 0.5815 0.52312 0.50463 0.0
C304 C 0.53655 0.49453 0.57404 0.0
O305 O 0.61762 0.53146 0.56847 0.0
O306 O 0.61122 0.42651 0.97151 0.0
Zn307 Zn 0.60416 0.45774 0.96256 0.0
O308 O 0.57639 0.45752 0.9455 0.0
Zn309 Zn 0.58352 0.46633 0.91548 0.0
Zn310 Zn 0.56296 0.42778 0.94412 0.0
Zn311 Zn 0.55526 0.4782 0.95915 0.0
O312 O 0.57181 0.4965 0.90986 0.0
O313 O 0.55374 0.50607 0.9408 0.0
O314 O 0.63069 0.4706 0.9455 0.0
O315 O 0.61618 0.47046 0.91156 0.0
O316 O 0.57342 0.44392 0.89209 0.0
O317 O 0.56079 0.41601 0.91253 0.0
O318 O 0.53165 0.42789 0.95569 0.0
O319 O 0.60038 0.47529 0.99083 0.0
O320 O 0.52434 0.46366 0.96156 0.0
O321 O 0.56575 0.48763 0.99026 0.0
C322 C 0.60039 0.40799 0.97037 0.0
C323 C 0.56114 0.51062 0.92149 0.0
C324 C 0.56523 0.42428 0.89368 0.0
C325 C 0.63273 0.47324 0.92461 0.0
C326 C 0.51808 0.44318 0.96074 0.0
C327 C 0.58446 0.48564 7e-05 0.0
O328 O 0.58136 0.40629 0.96097 0.0
O329 O 0.4737 0.09687 0.92258 0.0
Zn330 Zn 0.47227 0.08596 0.95408 0.0
O331 O 0.46092 0.05556 0.95416 0.0
Zn332 Zn 0.43117 0.05514 0.96664 0.0
Zn333 Zn 0.46026 0.04332 0.92412 0.0
Zn334 Zn 0.48017 0.03766 0.97205 0.0
O335 O 0.43184 0.04256 0.99719 0.0
O336 O 0.46699 0.03314 0.00252 0.0
O337 O 0.45216 0.10641 0.97142 0.0
O338 O 0.42043 0.08642 0.9714 0.0
O339 O 0.40939 0.03725 0.94735 0.0
O340 O 0.42917 0.03296 0.91638 0.0
O341 O 0.47792 0.01529 0.92161 0.0
O342 O 0.50359 0.08766 0.96614 0.0
O343 O 0.48418 0.00779 0.9571 0.0
O344 O 0.51032 0.05279 0.97541 0.0
C345 C 0.47324 0.08708 0.90354 0.0
C346 C 0.44715 0.03536 0.00964 0.0
C347 C 0.4111 0.03041 0.92722 0.0
C348 C 0.43127 0.10465 0.97511 0.0
C349 C 0.4841 0.00201 0.93657 0.0
C350 C 0.51678 0.07298 0.97309 0.0
O351 O 0.46962 0.06612 0.90158 0.0
H352 H 0.99853 0.18185 0.35785 0.0
H353 H 0.00396 0.14741 0.37732 0.0
H354 H 0.0694 0.17096 0.39836 0.0
H355 H 0.06446 0.20525 0.37761 0.0
H356 H 0.07315 0.13142 0.38598 0.0
H357 H 0.02262 0.16481 0.43559 0.0
H358 H 0.98923 0.18469 0.44811 0.0
H359 H 0.94724 0.13089 0.42305 0.0
H360 H 0.98035 0.11081 0.41008 0.0
H361 H 0.04183 0.03158 0.46369 0.0
H362 H 0.03956 0.07106 0.45497 0.0
H363 H 0.05387 0.05569 0.38608 0.0
H364 H 0.05647 0.01632 0.39466 0.0
H365 H 0.01377 0.09408 0.43003 0.0
H366 H 0.08554 0.09698 0.36353 0.0
H367 H 0.12271 0.08118 0.35752 0.0
H368 H 0.12764 0.06728 0.4271 0.0
H369 H 0.0907 0.08331 0.43362 0.0
C370 C 0.01398 0.17992 0.36689 0.0
C371 C 0.03104 0.19637 0.36625 0.0
C372 C 0.01702 0.16017 0.3782 0.0
C373 C 0.03693 0.15658 0.38976 0.0
C374 C 0.05384 0.17326 0.38962 0.0
C375 C 0.05099 0.19291 0.37785 0.0
C376 C 0.04052 0.13477 0.40049 0.0
C377 C 0.06018 0.12336 0.39571 0.0
C378 C 0.02402 0.12439 0.41393 0.0
C379 C 0.004 0.13636 0.42174 0.0
C380 C 0.00626 0.15728 0.43261 0.0
C381 C 0.98738 0.16858 0.43981 0.0
C382 C 0.96613 0.15908 0.43635 0.0
C383 C 0.96372 0.13823 0.42572 0.0
C384 C 0.98254 0.12686 0.41848 0.0
C385 C 0.04437 0.03656 0.44664 0.0
C386 C 0.04938 0.0207 0.4299 0.0
C387 C 0.04309 0.05918 0.4417 0.0
C388 C 0.0469 0.06644 0.41994 0.0
C389 C 0.05132 0.05059 0.40309 0.0
C390 C 0.05261 0.028 0.40801 0.0
C391 C 0.04593 0.09051 0.41464 0.0
C392 C 0.02678 0.10228 0.42046 0.0
C393 C 0.06331 0.10158 0.403 0.0
C394 C 0.08523 0.0912 0.39902 0.0
C395 C 0.09456 0.09058 0.37756 0.0
C396 C 0.11562 0.08164 0.37408 0.0
C397 C 0.12755 0.07332 0.39194 0.0
C398 C 0.11838 0.07375 0.41329 0.0
C399 C 0.09735 0.08271 0.41687 0.0
H400 H 0.14388 0.06647 0.38922 0.0
H401 H 0.95154 0.16786 0.44193 0.0
H402 H 0.02422 0.29819 0.37285 0.0
H403 H 0.02043 0.33461 0.3909 0.0
H404 H 0.95092 0.33471 0.37238 0.0
H405 H 0.95453 0.29793 0.35438 0.0
H406 H 0.01113 0.37187 0.37067 0.0
H407 H 0.92307 0.36827 0.41013 0.0
H408 H 0.89766 0.34094 0.42769 0.0
H409 H 0.95357 0.30241 0.44711 0.0
H410 H 0.97933 0.32965 0.42995 0.0
H411 H 0.96776 0.47916 0.38828 0.0
H412 H 0.9721 0.43989 0.37834 0.0
H413 H 0.98556 0.42543 0.44695 0.0
H414 H 0.98126 0.46485 0.45715 0.0
H415 H 0.95524 0.39495 0.42688 0.0
H416 H 0.02764 0.42681 0.41253 0.0
H417 H 0.05458 0.4538 0.39673 0.0
H418 H 0.03329 0.43462 0.33067 0.0
H419 H 0.00598 0.40773 0.34609 0.0
C420 C 0.008 0.30575 0.37288 0.0
C421 C 0.98969 0.29518 0.36203 0.0
C422 C 0.00589 0.32663 0.38318 0.0
C423 C 0.98544 0.33746 0.38295 0.0
C424 C 0.96684 0.32659 0.37296 0.0
C425 C 0.96892 0.30557 0.36265 0.0
C426 C 0.98417 0.36075 0.3917 0.0
C427 C 0.99892 0.37685 0.383 0.0
C428 C 0.96843 0.36728 0.40797 0.0
C429 C 0.95311 0.3509 0.41855 0.0
C430 C 0.92995 0.35401 0.41822 0.0
C431 C 0.91548 0.33852 0.42809 0.0
C432 C 0.92399 0.31991 0.43844 0.0
C433 C 0.947 0.31678 0.43901 0.0
C434 C 0.96153 0.33222 0.42918 0.0
C435 C 0.97173 0.4677 0.4013 0.0
C436 C 0.97423 0.47521 0.42353 0.0
C437 C 0.97421 0.44524 0.39556 0.0
C438 C 0.97921 0.42976 0.41189 0.0
C439 C 0.98167 0.43711 0.43411 0.0
C440 C 0.97935 0.45967 0.43986 0.0
C441 C 0.98199 0.40596 0.40558 0.0
C442 C 0.96749 0.38984 0.41463 0.0
C443 C 0.99815 0.3993 0.38983 0.0
C444 C 0.01463 0.41539 0.38048 0.0
C445 C 0.02857 0.42847 0.39464 0.0
C446 C 0.04394 0.44373 0.38575 0.0
C447 C 0.04561 0.44596 0.36271 0.0
C448 C 0.03196 0.43289 0.34851 0.0
C449 C 0.01655 0.41762 0.35732 0.0
H450 H 0.05751 0.45778 0.35587 0.0
H451 H 0.91276 0.30794 0.44607 0.0
H452 H 0.03085 0.79715 0.12027 0.0
H453 H 0.03284 0.83385 0.10366 0.0
H454 H 0.96751 0.84821 0.12938 0.0
H455 H 0.96521 0.81122 0.14584 0.0
H456 H 0.97477 0.86723 0.08835 0.0
H457 H 0.01083 0.86516 0.15922 0.0
H458 H 0.03616 0.85045 0.18741 0.0
H459 H 0.09214 0.8625 0.14448 0.0
H460 H 0.06709 0.87712 0.11592 0.0
H461 H 0.03128 0.98583 0.10997 0.0
H462 H 0.01937 0.94879 0.12167 0.0
H463 H 0.0144 0.92683 0.05295 0.0
H464 H 0.02564 0.96417 0.04109 0.0
H465 H 0.03953 0.91211 0.11722 0.0
H466 H 0.97749 0.88291 0.04746 0.0
H467 H 0.94932 0.89896 0.02294 0.0
H468 H 0.94024 0.95278 0.07003 0.0
H469 H 0.96812 0.9369 0.09495 0.0
C470 C 0.01667 0.80789 0.12201 0.0
C471 C 0.998 0.80139 0.13465 0.0
C472 C 0.01786 0.82888 0.11252 0.0
C473 C 0.00052 0.84391 0.11568 0.0
C474 C 0.98111 0.83688 0.12681 0.0
C475 C 0.97984 0.81575 0.13623 0.0
C476 C 0.0038 0.86754 0.10945 0.0
C477 C 0.98892 0.87709 0.09458 0.0
C478 C 0.02189 0.88058 0.11815 0.0
C479 C 0.03707 0.87204 0.13536 0.0
C480 C 0.02853 0.86454 0.15573 0.0
C481 C 0.04283 0.85623 0.17179 0.0
C482 C 0.06573 0.85545 0.16771 0.0
C483 C 0.07439 0.86308 0.1476 0.0
C484 C 0.06016 0.87142 0.13149 0.0
C485 C 0.02742 0.9732 0.09731 0.0
C486 C 0.02949 0.97795 0.07458 0.0
C487 C 0.02063 0.95199 0.10403 0.0
C488 C 0.01591 0.93496 0.08823 0.0
C489 C 0.01756 0.93975 0.06549 0.0
C490 C 0.02409 0.9611 0.05872 0.0
C491 C 0.01072 0.91193 0.09568 0.0
C492 C 0.02532 0.90239 0.11087 0.0
C493 C 0.992 0.89923 0.08775 0.0
C494 C 0.97507 0.90882 0.07296 0.0
C495 C 0.96943 0.89813 0.05262 0.0
C496 C 0.95352 0.9072 0.03864 0.0
C497 C 0.94306 0.92692 0.04489 0.0
C498 C 0.94842 0.93756 0.06516 0.0
C499 C 0.9643 0.92854 0.0792 0.0
H500 H 0.93075 0.93392 0.03404 0.0
H501 H 0.07677 0.84898 0.18015 0.0
H502 H 0.98519 0.69262 0.13628 0.0
H503 H 0.98252 0.65463 0.12129 0.0
H504 H 0.05361 0.65485 0.11089 0.0
H505 H 0.05665 0.69301 0.12637 0.0
H506 H 0.0206 0.63325 0.07451 0.0
H507 H 0.04275 0.63303 0.15279 0.0
H508 H 0.03887 0.64382 0.19242 0.0
H509 H 0.9722 0.61613 0.19278 0.0
H510 H 0.97548 0.60566 0.15306 0.0
H511 H 0.02046 0.51485 0.06069 0.0
H512 H 0.03061 0.55368 0.07005 0.0
H513 H 0.97309 0.5577 0.11304 0.0
H514 H 0.9639 0.5186 0.10488 0.0
H515 H 0.00402 0.57777 0.1326 0.0
H516 H 0.97743 0.58059 0.05728 0.0
H517 H 0.97615 0.57084 0.01721 0.0
H518 H 0.0438 0.59459 0.00987 0.0
H519 H 0.04557 0.60423 0.04998 0.0
C520 C 0.00028 0.68486 0.13042 0.0
C521 C 0.02119 0.69582 0.13272 0.0
C522 C 0.99868 0.66312 0.12187 0.0
C523 C 0.01788 0.65198 0.1152 0.0
C524 C 0.03862 0.66328 0.11598 0.0
C525 C 0.04031 0.68503 0.12485 0.0
C526 C 0.01625 0.62793 0.10951 0.0
C527 C 0.01736 0.62096 0.08715 0.0
C528 C 0.01129 0.61219 0.12603 0.0
C529 C 0.00931 0.61873 0.14989 0.0
C530 C 0.02716 0.6295 0.16125 0.0
C531 C 0.02508 0.63553 0.18374 0.0
C532 C 0.0053 0.63067 0.1951 0.0
C533 C 0.9875 0.6199 0.18397 0.0
C534 C 0.98946 0.61393 0.16147 0.0
C535 C 0.0101 0.52407 0.07222 0.0
C536 C 0.99144 0.51375 0.08212 0.0
C537 C 0.01579 0.54632 0.07743 0.0
C538 C 0.00243 0.55889 0.09198 0.0
C539 C 0.98378 0.54846 0.10185 0.0
C540 C 0.97849 0.52609 0.09716 0.0
C541 C 0.00782 0.58276 0.09735 0.0
C542 C 0.00746 0.58982 0.11978 0.0
C543 C 0.01275 0.59864 0.08077 0.0
C544 C 0.01172 0.59288 0.05667 0.0
C545 C 0.99209 0.58358 0.04715 0.0
C546 C 0.99126 0.5781 0.02443 0.0
C547 C 0.00991 0.58203 0.01102 0.0
C548 C 0.02939 0.59151 0.02029 0.0
C549 C 0.03031 0.597 0.04301 0.0
H550 H 0.00924 0.57778 0.99343 0.0
H551 H 0.0038 0.63508 0.21255 0.0
H552 H 0.38097 0.05089 0.20998 0.0
H553 H 0.40227 0.05509 0.17552 0.0
H554 H 0.41298 0.98433 0.17289 0.0
H555 H 0.39174 0.97994 0.20713 0.0
H556 H 0.44413 0.04211 0.15472 0.0
H557 H 0.39091 0.96688 0.12329 0.0
H558 H 0.35593 0.94696 0.13322 0.0
H559 H 0.33004 0.00745 0.16118 0.0
H560 H 0.36466 0.02777 0.15103 0.0
H561 H 0.47469 0.01916 0.04176 0.0
H562 H 0.4662 0.01448 0.08126 0.0
H563 H 0.39964 0.03778 0.07034 0.0
H564 H 0.40771 0.04198 0.031 0.0
H565 H 0.39797 0.00367 0.09623 0.0
H566 H 0.44135 0.07192 0.09291 0.0
H567 H 0.47412 0.09546 0.08348 0.0
H568 H 0.51563 0.05577 0.12439 0.0
H569 H 0.48313 0.03181 0.13383 0.0
C570 C 0.38858 0.03637 0.20252 0.0
C571 C 0.38425 0.01502 0.2109 0.0
C572 C 0.4008 0.03881 0.18288 0.0
C573 C 0.40877 0.01994 0.17156 0.0
C574 C 0.40673 0.99902 0.18134 0.0
C575 C 0.39449 0.99656 0.20085 0.0
C576 C 0.41511 0.02132 0.14791 0.0
C577 C 0.43422 0.03362 0.14188 0.0
C578 C 0.40173 0.01067 0.13125 0.0
C579 C 0.38049 0.99875 0.13664 0.0
C580 C 0.3777 0.97593 0.13144 0.0
C581 C 0.35793 0.96458 0.13711 0.0
C582 C 0.34081 0.97592 0.1479 0.0
C583 C 0.34334 0.99867 0.1529 0.0
C584 C 0.36303 0.0101 0.14719 0.0
C585 C 0.45819 0.02311 0.04775 0.0
C586 C 0.4419 0.03099 0.03322 0.0
C587 C 0.45342 0.02055 0.07035 0.0
C588 C 0.43238 0.02606 0.07878 0.0
C589 C 0.41599 0.03342 0.0642 0.0
C590 C 0.42066 0.03584 0.04167 0.0
C591 C 0.42724 0.02437 0.10279 0.0
C592 C 0.40818 0.01198 0.10896 0.0
C593 C 0.44034 0.03551 0.11944 0.0
C594 C 0.45986 0.04994 0.11387 0.0
C595 C 0.4575 0.06812 0.09976 0.0
C596 C 0.47601 0.08155 0.09444 0.0
C597 C 0.49695 0.07707 0.10328 0.0
C598 C 0.4994 0.0592 0.11752 0.0
C599 C 0.48094 0.04569 0.12287 0.0
H600 H 0.51127 0.08749 0.09914 0.0
H601 H 0.32556 0.96709 0.15235 0.0
H602 H 0.63745 0.48211 0.19711 0.0
H603 H 0.61782 0.48328 0.16167 0.0
H604 H 0.62041 0.55515 0.16482 0.0
H605 H 0.64057 0.55414 0.2002 0.0
H606 H 0.58076 0.49948 0.14384 0.0
H607 H 0.63392 0.5732 0.11305 0.0
H608 H 0.66967 0.59285 0.12153 0.0
H609 H 0.69628 0.53251 0.1466 0.0
H610 H 0.6608 0.51248 0.138 0.0
H611 H 0.55435 0.50688 0.02741 0.0
H612 H 0.56012 0.5192 0.06625 0.0
H613 H 0.62773 0.4963 0.06342 0.0
H614 H 0.62237 0.48453 0.02491 0.0
H615 H 0.62692 0.5345 0.08506 0.0
H616 H 0.58406 0.46455 0.08548 0.0
H617 H 0.55132 0.44034 0.0765 0.0
H618 H 0.50876 0.48584 0.11127 0.0
H619 H 0.54127 0.51045 0.12024 0.0
C620 C 0.63351 0.4982 0.19052 0.0
C621 C 0.64095 0.51803 0.20129 0.0
C622 C 0.62214 0.49883 0.17028 0.0
C623 C 0.61795 0.51929 0.16043 0.0
C624 C 0.62376 0.53917 0.17199 0.0
C625 C 0.63528 0.53855 0.19221 0.0
C626 C 0.61015 0.51951 0.137 0.0
C627 C 0.59064 0.50744 0.131 0.0
C628 C 0.62315 0.52968 0.12021 0.0
C629 C 0.64464 0.54147 0.12516 0.0
C630 C 0.64743 0.56415 0.12033 0.0
C631 C 0.66764 0.57534 0.12515 0.0
C632 C 0.6852 0.56396 0.13468 0.0
C633 C 0.68264 0.54133 0.1393 0.0
C634 C 0.66249 0.53006 0.13446 0.0
C635 C 0.5705 0.50471 0.03503 0.0
C636 C 0.58784 0.49458 0.02305 0.0
C637 C 0.57374 0.51169 0.05723 0.0
C638 C 0.59431 0.50853 0.0678 0.0
C639 C 0.61175 0.49903 0.05563 0.0
C640 C 0.60858 0.49217 0.03356 0.0
C641 C 0.59785 0.51395 0.09177 0.0
C642 C 0.61658 0.52715 0.09791 0.0
C643 C 0.58449 0.50426 0.10858 0.0
C644 C 0.56501 0.48945 0.10328 0.0
C645 C 0.56769 0.46946 0.09107 0.0
C646 C 0.54919 0.45566 0.08601 0.0
C647 C 0.52796 0.46159 0.09324 0.0
C648 C 0.52521 0.4813 0.10563 0.0
C649 C 0.54366 0.49517 0.11071 0.0
H650 H 0.51365 0.45088 0.08931 0.0
H651 H 0.70082 0.57266 0.13843 0.0
H652 H 0.3325 0.9483 0.31108 0.0
H653 H 0.34886 0.94635 0.34844 0.0
H654 H 0.41238 0.96895 0.3227 0.0
H655 H 0.3958 0.97176 0.28552 0.0
H656 H 0.41248 0.93332 0.35769 0.0
H657 H 0.38513 0.00543 0.33956 0.0
H658 H 0.35748 0.03232 0.32747 0.0
H659 H 0.31583 0.01598 0.38306 0.0
H660 H 0.34276 0.98812 0.39495 0.0
H661 H 0.46462 0.97493 0.45577 0.0
H662 H 0.44993 0.97425 0.4178 0.0
H663 H 0.38319 0.96459 0.44306 0.0
H664 H 0.39761 0.96541 0.48106 0.0
H665 H 0.38483 0.9932 0.40804 0.0
H666 H 0.41102 0.92079 0.42589 0.0
H667 H 0.43866 0.89419 0.43887 0.0
H668 H 0.48227 0.91185 0.38511 0.0
H669 H 0.45509 0.93891 0.37207 0.0
C670 C 0.35015 0.95198 0.31332 0.0
C671 C 0.36309 0.95986 0.2956 0.0
C672 C 0.35939 0.95105 0.3346 0.0
C673 C 0.38172 0.95768 0.33821 0.0
C674 C 0.39514 0.96372 0.32012 0.0
C675 C 0.38574 0.96521 0.29896 0.0
C676 C 0.39033 0.96085 0.36106 0.0
C677 C 0.40662 0.9465 0.36867 0.0
C678 C 0.38232 0.97792 0.37534 0.0
C679 C 0.36578 0.99425 0.36786 0.0
C680 C 0.36983 0.0071 0.34891 0.0
C681 C 0.3543 0.02257 0.34212 0.0
C682 C 0.33482 0.0257 0.3544 0.0
C683 C 0.33083 0.01334 0.37346 0.0
C684 C 0.34619 0.99765 0.38018 0.0
C685 C 0.44677 0.9731 0.45331 0.0
C686 C 0.43231 0.96998 0.47145 0.0
C687 C 0.43844 0.97258 0.43159 0.0
C688 C 0.41555 0.96894 0.42768 0.0
C689 C 0.40093 0.96727 0.44577 0.0
C690 C 0.40922 0.96772 0.46747 0.0
C691 C 0.40696 0.96563 0.40476 0.0
C692 C 0.39066 0.97996 0.39711 0.0
C693 C 0.41486 0.9485 0.39048 0.0
C694 C 0.43112 0.93205 0.39814 0.0
C695 C 0.42658 0.91914 0.41694 0.0
C696 C 0.44215 0.90396 0.42429 0.0
C697 C 0.46222 0.90136 0.41284 0.0
C698 C 0.46674 0.9139 0.39398 0.0
C699 C 0.45126 0.92917 0.3866 0.0
H700 H 0.47424 0.88959 0.41855 0.0
H701 H 0.32294 0.03788 0.3493 0.0
H702 H 0.66134 0.45874 0.31556 0.0
H703 H 0.64422 0.46125 0.35241 0.0
H704 H 0.60929 0.51975 0.33275 0.0
H705 H 0.62728 0.51789 0.29633 0.0
H706 H 0.628 0.5284 0.3696 0.0
H707 H 0.58267 0.46662 0.34297 0.0
H708 H 0.5751 0.42941 0.32606 0.0
H709 H 0.61113 0.39922 0.37885 0.0
H710 H 0.61916 0.43628 0.39593 0.0
H711 H 0.55388 0.50551 0.4719 0.0
H712 H 0.56366 0.49625 0.4333 0.0
H713 H 0.63243 0.5142 0.44707 0.0
H714 H 0.62288 0.52364 0.4855 0.0
H715 H 0.59291 0.46728 0.41258 0.0
H716 H 0.65231 0.54398 0.40417 0.0
H717 H 0.65718 0.58194 0.4203 0.0
H718 H 0.58719 0.58364 0.43506 0.0
H719 H 0.58186 0.54585 0.41875 0.0
C720 C 0.64961 0.47182 0.31897 0.0
C721 C 0.64565 0.48814 0.30312 0.0
C722 C 0.63977 0.47322 0.34004 0.0
C723 C 0.62533 0.49064 0.34544 0.0
C724 C 0.62046 0.50623 0.32911 0.0
C725 C 0.63066 0.50511 0.30825 0.0
C726 C 0.61693 0.49393 0.36856 0.0
C727 C 0.62022 0.51499 0.37885 0.0
C728 C 0.60662 0.47657 0.38078 0.0
C729 C 0.60165 0.45425 0.37064 0.0
C730 C 0.58909 0.45206 0.3509 0.0
C731 C 0.5847 0.43099 0.3413 0.0
C732 C 0.59266 0.41197 0.35135 0.0
C733 C 0.60498 0.41397 0.37107 0.0
C734 C 0.60943 0.435 0.38074 0.0
C735 C 0.57113 0.5073 0.46678 0.0
C736 C 0.58754 0.51558 0.48178 0.0
C737 C 0.57669 0.5019 0.44473 0.0
C738 C 0.59871 0.5048 0.43727 0.0
C739 C 0.61527 0.51212 0.45242 0.0
C740 C 0.60976 0.5175 0.47442 0.0
C741 C 0.60425 0.50157 0.41338 0.0
C742 C 0.60054 0.4806 0.40309 0.0
C743 C 0.61376 0.51911 0.40092 0.0
C744 C 0.61675 0.54201 0.41043 0.0
C745 C 0.63795 0.55251 0.41077 0.0
C746 C 0.64079 0.57398 0.41996 0.0
C747 C 0.62252 0.58516 0.42877 0.0
C748 C 0.60135 0.57493 0.42832 0.0
C749 C 0.59841 0.55348 0.41912 0.0
H750 H 0.62476 0.60177 0.4359 0.0
H751 H 0.58926 0.39568 0.34388 0.0
H752 H 0.22219 0.37702 0.99808 0.0
H753 H 0.18511 0.3929 0.00202 0.0
H754 H 0.17827 0.36366 0.06662 0.0
H755 H 0.21556 0.34817 0.06307 0.0
H756 H 0.1446 0.35112 0.0311 0.0
H757 H 0.18054 0.41458 0.0683 0.0
H758 H 0.20794 0.44578 0.07137 0.0
H759 H 0.1806 0.4747 0.0129 0.0
H760 H 0.15322 0.44349 0.00929 0.0
H761 H 0.03836 0.3856 0.06266 0.0
H762 H 0.07767 0.37679 0.06036 0.0
H763 H 0.08742 0.42669 0.01039 0.0
H764 H 0.04806 0.43644 0.01355 0.0
H765 H 0.12051 0.42948 0.03717 0.0
H766 H 0.08566 0.36838 0.99804 0.0
H767 H 0.05901 0.33707 0.99118 0.0
H768 H 0.08492 0.30323 0.04751 0.0
H769 H 0.11153 0.33449 0.0549 0.0
C770 C 0.21303 0.3745 0.01338 0.0
C771 C 0.22171 0.36132 0.03025 0.0
C772 C 0.1919 0.38358 0.0156 0.0
C773 C 0.17903 0.37934 0.03456 0.0
C774 C 0.18806 0.36712 0.0519 0.0
C775 C 0.20939 0.3584 0.04989 0.0
C776 C 0.15531 0.38541 0.03512 0.0
C777 C 0.13923 0.36821 0.03279 0.0
C778 C 0.14857 0.40778 0.0362 0.0
C779 C 0.16499 0.42657 0.03839 0.0
C780 C 0.18051 0.42747 0.05597 0.0
C781 C 0.19601 0.44519 0.05784 0.0
C782 C 0.19605 0.46218 0.0423 0.0
C783 C 0.18056 0.46151 0.0249 0.0
C784 C 0.16504 0.44382 0.02295 0.0
C785 C 0.04879 0.39455 0.05098 0.0
C786 C 0.04006 0.41157 0.03812 0.0
C787 C 0.0713 0.38944 0.04963 0.0
C788 C 0.08551 0.40073 0.03486 0.0
C789 C 0.07681 0.41769 0.02187 0.0
C790 C 0.05431 0.42317 0.02359 0.0
C791 C 0.1095 0.39511 0.0335 0.0
C792 C 0.12572 0.41235 0.0355 0.0
C793 C 0.11645 0.37275 0.03153 0.0
C794 C 0.10047 0.35388 0.02714 0.0
C795 C 0.08557 0.35434 0.00906 0.0
C796 C 0.07048 0.33659 0.00506 0.0
C797 C 0.07024 0.3182 0.01893 0.0
C798 C 0.08511 0.3175 0.0368 0.0
C799 C 0.10022 0.33522 0.04089 0.0
H800 H 0.05855 0.30447 0.0158 0.0
H801 H 0.20806 0.47588 0.04378 0.0
H802 H 0.21655 0.63334 0.43904 0.0
H803 H 0.18043 0.61348 0.4367 0.0
H804 H 0.18182 0.60357 0.50752 0.0
H805 H 0.21777 0.62326 0.51007 0.0
H806 H 0.15904 0.57187 0.45126 0.0
H807 H 0.13345 0.62659 0.52643 0.0
H808 H 0.1465 0.66137 0.54546 0.0
H809 H 0.17269 0.68561 0.48384 0.0
H810 H 0.15923 0.6513 0.46436 0.0
H811 H 0.04635 0.54187 0.47857 0.0
H812 H 0.08642 0.5504 0.48226 0.0
H813 H 0.07611 0.61651 0.45807 0.0
H814 H 0.03637 0.60842 0.45482 0.0
H815 H 0.10421 0.61882 0.49113 0.0
H816 H 0.09549 0.57434 0.42399 0.0
H817 H 0.08368 0.54125 0.40155 0.0
H818 H 0.12578 0.50028 0.44051 0.0
H819 H 0.13763 0.53312 0.46338 0.0
C820 C 0.20953 0.62629 0.45399 0.0
C821 C 0.21977 0.63029 0.47481 0.0
C822 C 0.18893 0.61487 0.4526 0.0
C823 C 0.17839 0.60742 0.472 0.0
C824 C 0.18966 0.60939 0.49241 0.0
C825 C 0.21017 0.62074 0.49382 0.0
C826 C 0.15438 0.60127 0.47165 0.0
C827 C 0.14701 0.58197 0.46007 0.0
C828 C 0.13875 0.61487 0.48271 0.0
C829 C 0.14561 0.63621 0.49403 0.0
C830 C 0.14183 0.63942 0.51692 0.0
C831 C 0.14932 0.65905 0.52778 0.0
C832 C 0.1606 0.6756 0.5159 0.0
C833 C 0.16414 0.67269 0.49307 0.0
C834 C 0.1565 0.6532 0.4821 0.0
C835 C 0.05261 0.55828 0.47426 0.0
C836 C 0.03812 0.5744 0.4663 0.0
C837 C 0.07552 0.56309 0.47625 0.0
C838 C 0.0843 0.58402 0.47019 0.0
C839 C 0.06975 0.60026 0.46286 0.0
C840 C 0.04697 0.59554 0.46095 0.0
C841 C 0.10864 0.58913 0.47089 0.0
C842 C 0.11615 0.60843 0.48253 0.0
C843 C 0.12426 0.57585 0.45932 0.0
C844 C 0.11724 0.55613 0.44555 0.0
C845 C 0.1021 0.55825 0.42788 0.0
C846 C 0.09542 0.53955 0.41507 0.0
C847 C 0.10392 0.51867 0.41965 0.0
C848 C 0.11918 0.51646 0.43701 0.0
C849 C 0.12589 0.53511 0.44989 0.0
H850 H 0.09873 0.50421 0.40971 0.0
H851 H 0.16643 0.69076 0.52434 0.0
H852 H 0.82113 0.86475 0.55095 0.0
H853 H 0.85755 0.88419 0.55079 0.0
H854 H 0.85138 0.89365 0.4801 0.0
H855 H 0.81506 0.87481 0.4802 0.0
H856 H 0.89335 0.87039 0.53039 0.0
H857 H 0.88026 0.93781 0.46311 0.0
H858 H 0.85136 0.96402 0.45225 0.0
H859 H 0.82419 0.9629 0.5183 0.0
H860 H 0.85311 0.93694 0.52966 0.0
H861 H 0.99005 0.89022 0.46829 0.0
H862 H 0.95222 0.88276 0.48149 0.0
H863 H 0.95063 0.94865 0.51143 0.0
H864 H 0.98838 0.95647 0.49788 0.0
H865 H 0.91292 0.93971 0.49059 0.0
H866 H 0.9561 0.90278 0.54386 0.0
H867 H 0.98514 0.87816 0.55766 0.0
H868 H 0.95225 0.82175 0.52572 0.0
H869 H 0.92318 0.84608 0.51144 0.0
C870 C 0.82731 0.87148 0.5355 0.0
C871 C 0.81525 0.86812 0.51557 0.0
C872 C 0.84816 0.88249 0.53541 0.0
C873 C 0.85718 0.89048 0.51545 0.0
C874 C 0.84466 0.88801 0.49578 0.0
C875 C 0.82389 0.87707 0.49585 0.0
C876 C 0.88052 0.89924 0.51446 0.0
C877 C 0.89762 0.88568 0.52192 0.0
C878 C 0.88613 0.91945 0.50386 0.0
C879 C 0.86882 0.9353 0.4972 0.0
C880 C 0.86822 0.94325 0.47537 0.0
C881 C 0.8518 0.95805 0.46911 0.0
C882 C 0.83592 0.96508 0.48456 0.0
C883 C 0.83646 0.95738 0.50633 0.0
C884 C 0.85284 0.9426 0.51267 0.0
C885 C 0.98172 0.90314 0.47773 0.0
C886 C 0.99231 0.92393 0.48205 0.0
C887 C 0.96011 0.89879 0.48539 0.0
C888 C 0.9487 0.91502 0.49777 0.0
C889 C 0.95914 0.93585 0.50199 0.0
C890 C 0.98074 0.94027 0.49423 0.0
C891 C 0.92564 0.91034 0.50564 0.0
C892 C 0.90863 0.92464 0.49944 0.0
C893 C 0.92012 0.89107 0.51785 0.0
C894 C 0.93752 0.8763 0.52648 0.0
C895 C 0.95513 0.88515 0.53966 0.0
C896 C 0.97159 0.87124 0.54758 0.0
C897 C 0.97056 0.84841 0.54255 0.0
C898 C 0.95303 0.83944 0.52961 0.0
C899 C 0.93654 0.85328 0.52162 0.0
H900 H 0.98332 0.83767 0.54869 0.0
H901 H 0.82322 0.97652 0.47968 0.0
H902 H 0.31988 0.65393 0.55227 0.0
H903 H 0.35678 0.63763 0.55626 0.0
H904 H 0.35378 0.61394 0.48804 0.0
H905 H 0.31723 0.63023 0.48385 0.0
H906 H 0.37448 0.59558 0.55058 0.0
H907 H 0.4055 0.62512 0.46436 0.0
H908 H 0.39668 0.654 0.43736 0.0
H909 H 0.37095 0.69544 0.48993 0.0
H910 H 0.38039 0.66718 0.51742 0.0
H911 H 0.4765 0.5445 0.52411 0.0
H912 H 0.43877 0.55851 0.51981 0.0
H913 H 0.46374 0.62572 0.5314 0.0
H914 H 0.50144 0.61197 0.53553 0.0
H915 H 0.43252 0.6241 0.4989 0.0
H916 H 0.4404 0.59794 0.57327 0.0
H917 H 0.4492 0.5706 0.60184 0.0
H918 H 0.3977 0.52623 0.57615 0.0
H919 H 0.38879 0.5532 0.54721 0.0
C920 C 0.32692 0.64489 0.53827 0.0
C921 C 0.31576 0.6436 0.51768 0.0
C922 C 0.34798 0.6356 0.54057 0.0
C923 C 0.35814 0.62494 0.52231 0.0
C924 C 0.34639 0.62242 0.50221 0.0
C925 C 0.32547 0.63174 0.49988 0.0
C926 C 0.38156 0.61775 0.52367 0.0
C927 C 0.38716 0.60177 0.53927 0.0
C928 C 0.39819 0.6262 0.50915 0.0
C929 C 0.39344 0.64386 0.49294 0.0
C930 C 0.39819 0.64049 0.47022 0.0
C931 C 0.39311 0.65677 0.45484 0.0
C932 C 0.38327 0.67654 0.46196 0.0
C933 C 0.37865 0.68015 0.4845 0.0
C934 C 0.3839 0.66401 0.49999 0.0
C935 C 0.47404 0.5623 0.52537 0.0
C936 C 0.492 0.57709 0.53034 0.0
C937 C 0.45244 0.57026 0.52305 0.0
C938 C 0.44841 0.59312 0.52564 0.0
C939 C 0.46646 0.60801 0.52942 0.0
C940 C 0.48801 0.60008 0.53183 0.0
C941 C 0.42533 0.60149 0.52544 0.0
C942 C 0.41981 0.61781 0.51013 0.0
C943 C 0.40889 0.59366 0.54047 0.0
C944 C 0.41408 0.57749 0.55795 0.0
C945 C 0.43106 0.58228 0.57361 0.0
C946 C 0.43605 0.56687 0.58989 0.0
C947 C 0.42405 0.54667 0.59077 0.0
C948 C 0.40699 0.54187 0.57542 0.0
C949 C 0.40196 0.55722 0.55909 0.0
H950 H 0.42795 0.53475 0.60338 0.0
H951 H 0.37921 0.68907 0.45001 0.0
H952 H 0.51665 0.70811 0.86862 0.0
H953 H 0.52395 0.67274 0.8861 0.0
H954 H 0.58921 0.67196 0.85601 0.0
H955 H 0.582 0.7075 0.83835 0.0
H956 H 0.564 0.63418 0.8465 0.0
H957 H 0.58501 0.67711 0.91131 0.0
H958 H 0.58088 0.70592 0.94076 0.0
H959 H 0.52134 0.67272 0.96383 0.0
H960 H 0.52492 0.64386 0.93431 0.0
H961 H 0.59001 0.53141 0.89361 0.0
H962 H 0.59005 0.57004 0.88226 0.0
H963 H 0.52926 0.58039 0.91911 0.0
H964 H 0.52991 0.54181 0.93167 0.0
H965 H 0.5555 0.61425 0.92577 0.0
H966 H 0.53173 0.57394 0.85928 0.0
H967 H 0.53428 0.54554 0.82917 0.0
H968 H 0.59706 0.57415 0.80864 0.0
H969 H 0.59499 0.60258 0.83878 0.0
C970 C 0.53276 0.70069 0.86611 0.0
C971 C 0.5487 0.71049 0.85198 0.0
C972 C 0.53694 0.68051 0.87619 0.0
C973 C 0.55712 0.66976 0.87234 0.0
C974 C 0.57354 0.68005 0.85918 0.0
C975 C 0.56944 0.70039 0.8492 0.0
C976 C 0.55989 0.64675 0.88004 0.0
C977 C 0.56261 0.62983 0.86389 0.0
C978 C 0.55732 0.6411 0.90262 0.0
C979 C 0.55516 0.6584 0.92047 0.0
C980 C 0.57094 0.67604 0.92255 0.0
C981 C 0.56871 0.69237 0.93928 0.0
C982 C 0.55084 0.69118 0.95413 0.0
C983 C 0.53517 0.67363 0.95231 0.0
C984 C 0.53731 0.65726 0.9356 0.0
C985 C 0.57648 0.54182 0.89911 0.0
C986 C 0.55976 0.53354 0.91332 0.0
C987 C 0.57651 0.56394 0.89255 0.0
C988 C 0.55941 0.57807 0.89942 0.0
C989 C 0.54261 0.56979 0.91355 0.0
C990 C 0.54289 0.54775 0.9206 0.0
C991 C 0.5593 0.60156 0.89218 0.0
C992 C 0.55707 0.61857 0.9084 0.0
C993 C 0.56206 0.60731 0.86958 0.0
C994 C 0.56328 0.59027 0.85139 0.0
C995 C 0.54613 0.57409 0.84842 0.0
C996 C 0.54748 0.55801 0.83133 0.0
C997 C 0.56583 0.55802 0.81702 0.0
C998 C 0.58285 0.57416 0.81973 0.0
C999 C 0.58158 0.59028 0.83679 0.0
H1000 H 0.56685 0.54556 0.8038 0.0
H1001 H 0.54914 0.70384 0.96708 0.0
H1002 H 0.53487 0.81532 0.85479 0.0
H1003 H 0.52993 0.84956 0.87622 0.0
H1004 H 0.46063 0.83175 0.88666 0.0
H1005 H 0.4653 0.79748 0.86441 0.0
H1006 H 0.46365 0.87264 0.87446 0.0
H1007 H 0.49925 0.8321 0.93012 0.0
H1008 H 0.52706 0.80781 0.94672 0.0
H1009 H 0.57886 0.85645 0.93391 0.0
H1010 H 0.55142 0.88091 0.91693 0.0
H1011 H 0.48774 0.96641 0.9639 0.0
H1012 H 0.48936 0.92711 0.95281 0.0
H1013 H 0.49247 0.94534 0.88381 0.0
H1014 H 0.49025 0.98461 0.89468 0.0
H1015 H 0.5172 0.9015 0.93177 0.0
H1016 H 0.46236 0.9091 0.852 0.0
H1017 H 0.43164 0.93205 0.83881 0.0
H1018 H 0.41259 0.94649 0.90634 0.0
H1019 H 0.44292 0.92331 0.91994 0.0
C1020 C 0.51861 0.81845 0.86187 0.0
C1021 C 0.50045 0.80365 0.85785 0.0
C1022 C 0.51585 0.83804 0.87428 0.0
C1023 C 0.49498 0.84313 0.88333 0.0
C1024 C 0.47691 0.82813 0.87987 0.0
C1025 C 0.47961 0.80853 0.86722 0.0
C1026 C 0.49191 0.86494 0.89487 0.0
C1027 C 0.47524 0.87886 0.88713 0.0
C1028 C 0.50664 0.87289 0.91184 0.0
C1029 C 0.52326 0.8583 0.92213 0.0
C1030 C 0.51659 0.83756 0.93071 0.0
C1031 C 0.53229 0.82377 0.9402 0.0
C1032 C 0.55471 0.83057 0.94134 0.0
C1033 C 0.56148 0.8512 0.93302 0.0
C1034 C 0.54585 0.86506 0.92349 0.0
C1035 C 0.48906 0.96209 0.94637 0.0
C1036 C 0.48863 0.97864 0.93015 0.0
C1037 C 0.48994 0.9396 0.94007 0.0
C1038 C 0.4905 0.93328 0.91747 0.0
C1039 C 0.49145 0.94983 0.90132 0.0
C1040 C 0.49034 0.97229 0.90758 0.0
C1041 C 0.48958 0.9094 0.91066 0.0
C1042 C 0.50546 0.89514 0.91931 0.0
C1043 C 0.47364 0.9009 0.89506 0.0
C1044 C 0.45507 0.91459 0.88699 0.0
C1045 C 0.45154 0.91705 0.86404 0.0
C1046 C 0.4342 0.93013 0.85649 0.0
C1047 C 0.42021 0.94077 0.87173 0.0
C1048 C 0.42348 0.93829 0.89455 0.0
C1049 C 0.44075 0.9252 0.90219 0.0
H1050 H 0.40682 0.95091 0.86585 0.0
H1051 H 0.56684 0.81987 0.9487 0.0
H1052 H 0.52406 0.29066 0.62018 0.0
H1053 H 0.5255 0.32673 0.60221 0.0
H1054 H 0.46361 0.34425 0.63382 0.0
H1055 H 0.46174 0.30781 0.65145 0.0
H1056 H 0.46825 0.36344 0.59242 0.0
H1057 H 0.51039 0.35731 0.65998 0.0
H1058 H 0.53746 0.33989 0.68474 0.0
H1059 H 0.5895 0.35122 0.63699 0.0
H1060 H 0.56263 0.36837 0.61177 0.0
H1061 H 0.52956 0.47878 0.61568 0.0
H1062 H 0.51662 0.44166 0.6259 0.0
H1063 H 0.50852 0.42331 0.55649 0.0
H1064 H 0.52109 0.46078 0.54607 0.0
H1065 H 0.53682 0.4047 0.61741 0.0
H1066 H 0.46856 0.38079 0.55191 0.0
H1067 H 0.43924 0.39892 0.53044 0.0
H1068 H 0.43575 0.45095 0.58036 0.0
H1069 H 0.4648 0.43299 0.60227 0.0
C1070 C 0.51045 0.30195 0.62285 0.0
C1071 C 0.49299 0.29662 0.63751 0.0
C1072 C 0.51128 0.32253 0.61255 0.0
C1073 C 0.49492 0.33831 0.61711 0.0
C1074 C 0.47643 0.3323 0.63016 0.0
C1075 C 0.47542 0.31152 0.64025 0.0
C1076 C 0.49887 0.36184 0.611 0.0
C1077 C 0.48325 0.3725 0.59776 0.0
C1078 C 0.51815 0.37379 0.61856 0.0
C1079 C 0.53446 0.36395 0.63391 0.0
C1080 C 0.52758 0.35598 0.65471 0.0
C1081 C 0.54288 0.34615 0.66883 0.0
C1082 C 0.56517 0.34441 0.66242 0.0
C1083 C 0.57222 0.35256 0.64192 0.0
C1084 C 0.55697 0.36234 0.62771 0.0
C1085 C 0.52479 0.46697 0.60254 0.0
C1086 C 0.52655 0.47269 0.58003 0.0
C1087 C 0.5174 0.44573 0.60843 0.0
C1088 C 0.51164 0.42967 0.59199 0.0
C1089 C 0.51263 0.43551 0.56949 0.0
C1090 C 0.5199 0.4569 0.56355 0.0
C1091 C 0.50635 0.40645 0.59851 0.0
C1092 C 0.5218 0.39575 0.61191 0.0
C1093 C 0.48664 0.39479 0.59157 0.0
C1094 C 0.46905 0.40566 0.57859 0.0
C1095 C 0.46149 0.39607 0.55833 0.0
C1096 C 0.44492 0.40632 0.54608 0.0
C1097 C 0.4357 0.42612 0.55399 0.0
C1098 C 0.44297 0.43567 0.5742 0.0
C1099 C 0.45952 0.42548 0.58652 0.0
H1100 H 0.42287 0.43403 0.54448 0.0
H1101 H 0.57698 0.33678 0.67337 0.0
H1102 H 0.55684 0.1861 0.64326 0.0
H1103 H 0.55422 0.15187 0.62055 0.0
H1104 H 0.49191 0.17314 0.59297 0.0
H1105 H 0.494 0.20685 0.61639 0.0
H1106 H 0.48601 0.13469 0.60809 0.0
H1107 H 0.54084 0.16644 0.56076 0.0
H1108 H 0.57612 0.18552 0.55062 0.0
H1109 H 0.6132 0.1319 0.57731 0.0
H1110 H 0.57815 0.11263 0.58791 0.0
H1111 H 0.50407 0.03346 0.52959 0.0
H1112 H 0.51296 0.07266 0.53871 0.0
H1113 H 0.50542 0.05934 0.60855 0.0
H1114 H 0.49643 0.02038 0.59973 0.0
H1115 H 0.54469 0.09572 0.56536 0.0
H1116 H 0.47386 0.10075 0.63132 0.0
H1117 H 0.43701 0.08344 0.63868 0.0
H1118 H 0.42944 0.06642 0.56928 0.0
H1119 H 0.46596 0.08423 0.56139 0.0
C1120 C 0.54286 0.18368 0.63196 0.0
C1121 C 0.52548 0.19895 0.63175 0.0
C1122 C 0.54143 0.16415 0.61887 0.0
C1123 C 0.52286 0.15988 0.60499 0.0
C1124 C 0.50632 0.17597 0.60365 0.0
C1125 C 0.50752 0.19522 0.61703 0.0
C1126 C 0.51913 0.13755 0.59433 0.0
C1127 C 0.49883 0.12633 0.59858 0.0
C1128 C 0.53568 0.12665 0.58163 0.0
C1129 C 0.55683 0.13816 0.57527 0.0
C1130 C 0.55651 0.15879 0.56462 0.0
C1131 C 0.57648 0.16963 0.55876 0.0
C1132 C 0.59689 0.15995 0.56335 0.0
C1133 C 0.59738 0.13938 0.57377 0.0
C1134 C 0.57746 0.12848 0.57968 0.0
C1135 C 0.50458 0.03882 0.54691 0.0
C1136 C 0.49922 0.02383 0.56391 0.0
C1137 C 0.50974 0.06119 0.55207 0.0
C1138 C 0.5095 0.0689 0.57426 0.0
C1139 C 0.50538 0.05374 0.59129 0.0
C1140 C 0.50024 0.03146 0.58619 0.0
C1141 C 0.51192 0.09296 0.57978 0.0
C1142 C 0.53189 0.10437 0.57463 0.0
C1143 C 0.49489 0.10431 0.59126 0.0
C1144 C 0.4728 0.09362 0.59581 0.0
C1145 C 0.4643 0.0934 0.61761 0.0
C1146 C 0.44345 0.0835 0.62187 0.0
C1147 C 0.43093 0.07371 0.60448 0.0
C1148 C 0.43919 0.07392 0.58275 0.0
C1149 C 0.45997 0.08393 0.57837 0.0
H1150 H 0.41481 0.06602 0.60782 0.0
H1151 H 0.61233 0.16837 0.5588 0.0
H1152 H 0.87129 0.55666 0.69999 0.0
H1153 H 0.88869 0.55725 0.66317 0.0
H1154 H 0.90989 0.4898 0.67107 0.0
H1155 H 0.89195 0.48879 0.70772 0.0
H1156 H 0.94209 0.52823 0.64877 0.0
H1157 H 0.87162 0.48542 0.64511 0.0
H1158 H 0.83165 0.47988 0.65357 0.0
H1159 H 0.81696 0.54088 0.62118 0.0
H1160 H 0.85694 0.547 0.61294 0.0
H1161 H 0.96219 0.5111 0.5318 0.0
H1162 H 0.9529 0.50514 0.57102 0.0
H1163 H 0.90088 0.55335 0.5669 0.0
H1164 H 0.90942 0.55869 0.52788 0.0
H1165 H 0.8857 0.52026 0.58843 0.0
H1166 H 0.95395 0.56446 0.592 0.0
H1167 H 0.99358 0.57317 0.58439 0.0
H1168 H 0.0125 0.51362 0.61714 0.0
H1169 H 0.97293 0.50441 0.62471 0.0
C1170 C 0.88014 0.54215 0.69417 0.0
C1171 C 0.88016 0.52264 0.70668 0.0
C1172 C 0.89002 0.54251 0.67313 0.0
C1173 C 0.90044 0.52354 0.66448 0.0
C1174 C 0.90195 0.50459 0.67756 0.0
C1175 C 0.89165 0.50405 0.69843 0.0
C1176 C 0.90737 0.52279 0.6409 0.0
C1177 C 0.9299 0.52612 0.63548 0.0
C1178 C 0.89132 0.52048 0.62375 0.0
C1179 C 0.86729 0.51679 0.62864 0.0
C1180 C 0.8599 0.49778 0.64003 0.0
C1181 C 0.83724 0.49451 0.64474 0.0
C1182 C 0.82179 0.51003 0.63793 0.0
C1183 C 0.82896 0.52888 0.62645 0.0
C1184 C 0.85161 0.53226 0.62176 0.0
C1185 C 0.94873 0.52034 0.53929 0.0
C1186 C 0.93652 0.53531 0.52666 0.0
C1187 C 0.94352 0.51703 0.56174 0.0
C1188 C 0.9263 0.52896 0.57205 0.0
C1189 C 0.91414 0.54383 0.55938 0.0
C1190 C 0.91909 0.54689 0.53699 0.0
C1191 C 0.92058 0.5261 0.59595 0.0
C1192 C 0.89811 0.52209 0.60154 0.0
C1193 C 0.93671 0.52811 0.6132 0.0
C1194 C 0.96048 0.53362 0.60868 0.0
C1195 C 0.96655 0.55314 0.59742 0.0
C1196 C 0.989 0.55818 0.59314 0.0
C1197 C 0.00554 0.54392 0.60021 0.0
C1198 C 0.99967 0.52462 0.61163 0.0
C1199 C 0.97724 0.51949 0.61593 0.0
H1200 H 0.02291 0.54785 0.59689 0.0
H1201 H 0.80424 0.50739 0.64145 0.0
H1202 H 0.16034 0.93795 0.70696 0.0
H1203 H 0.14025 0.93502 0.67135 0.0
H1204 H 0.15546 0.00443 0.65967 0.0
H1205 H 0.17454 0.00766 0.69519 0.0
H1206 H 0.11554 0.99618 0.64694 0.0
H1207 H 0.18605 0.95887 0.63748 0.0
H1208 H 0.21412 0.93027 0.64381 0.0
H1209 H 0.16633 0.87874 0.62553 0.0
H1210 H 0.13788 0.90697 0.61938 0.0
H1211 H 0.133 0.96822 0.52078 0.0
H1212 H 0.14493 0.97059 0.55958 0.0
H1213 H 0.07617 0.96925 0.58074 0.0
H1214 H 0.06407 0.96754 0.54185 0.0
H1215 H 0.13908 0.9407 0.58993 0.0
H1216 H 0.07248 0.99492 0.63209 0.0
H1217 H 0.04776 0.02578 0.62313 0.0
H1218 H 0.09367 0.04784 0.57297 0.0
H1219 H 0.11877 0.0173 0.58181 0.0
C1220 C 0.15915 0.95259 0.69685 0.0
C1221 C 0.16905 0.97301 0.70389 0.0
C1222 C 0.14777 0.95089 0.67648 0.0
C1223 C 0.14654 0.96946 0.66269 0.0
C1224 C 0.15604 0.98989 0.67001 0.0
C1225 C 0.16704 0.99169 0.69038 0.0
C1226 C 0.13619 0.96788 0.64025 0.0
C1227 C 0.12059 0.98392 0.63453 0.0
C1228 C 0.14279 0.95198 0.62396 0.0
C1229 C 0.15975 0.93502 0.62832 0.0
C1230 C 0.18146 0.94143 0.63507 0.0
C1231 C 0.19745 0.9253 0.63858 0.0
C1232 C 0.19198 0.90272 0.6352 0.0
C1233 C 0.17052 0.89622 0.62826 0.0
C1234 C 0.15445 0.91228 0.62477 0.0
C1235 C 0.1204 0.96881 0.53368 0.0
C1236 C 0.0976 0.96767 0.52827 0.0
C1237 C 0.12725 0.97003 0.55584 0.0
C1238 C 0.11146 0.97 0.57306 0.0
C1239 C 0.08865 0.96955 0.56773 0.0
C1240 C 0.08177 0.9686 0.54549 0.0
C1241 C 0.11908 0.96943 0.5965 0.0
C1242 C 0.13389 0.95281 0.60244 0.0
C1243 C 0.11221 0.98513 0.6128 0.0
C1244 C 0.09734 0.00366 0.60744 0.0
C1245 C 0.0773 0.00639 0.61918 0.0
C1246 C 0.06323 0.02382 0.61412 0.0
C1247 C 0.0691 0.03871 0.59743 0.0
C1248 C 0.0891 0.03624 0.58582 0.0
C1249 C 0.10323 0.01885 0.59083 0.0
H1250 H 0.05818 0.05218 0.59353 0.0
H1251 H 0.20441 0.89028 0.63788 0.0
H1252 H 0.87775 0.44818 0.80101 0.0
H1253 H 0.89671 0.44271 0.83663 0.0
H1254 H 0.88891 0.5123 0.85366 0.0
H1255 H 0.87108 0.51801 0.81803 0.0
H1256 H 0.92712 0.50135 0.86709 0.0
H1257 H 0.85312 0.46747 0.87161 0.0
H1258 H 0.82225 0.441 0.86218 0.0
H1259 H 0.86417 0.38606 0.87629 0.0
H1260 H 0.89534 0.41219 0.88551 0.0
H1261 H 0.90533 0.46831 0.99006 0.0
H1262 H 0.89421 0.4728 0.95145 0.0
H1263 H 0.96282 0.46798 0.93075 0.0
H1264 H 0.97421 0.46384 0.96954 0.0
H1265 H 0.89725 0.44414 0.91807 0.0
H1266 H 0.96971 0.497 0.88214 0.0
H1267 H 0.99731 0.52582 0.89453 0.0
H1268 H 0.95304 0.547 0.94653 0.0
H1269 H 0.92508 0.51853 0.93426 0.0
C1270 C 0.88036 0.46232 0.81228 0.0
C1271 C 0.87291 0.48352 0.80667 0.0
C1272 C 0.89108 0.45917 0.83269 0.0
C1273 C 0.89401 0.47703 0.84804 0.0
C1274 C 0.887 0.49825 0.84215 0.0
C1275 C 0.87672 0.50148 0.8217 0.0
C1276 C 0.90361 0.47389 0.87059 0.0
C1277 C 0.92065 0.48871 0.87815 0.0
C1278 C 0.89519 0.45749 0.88521 0.0
C1279 C 0.87663 0.4418 0.87899 0.0
C1280 C 0.85579 0.44975 0.8725 0.0
C1281 C 0.83824 0.43481 0.86721 0.0
C1282 C 0.84127 0.41187 0.86854 0.0
C1283 C 0.86186 0.40382 0.87516 0.0
C1284 C 0.87948 0.41869 0.88039 0.0
C1285 C 0.91815 0.4685 0.97737 0.0
C1286 C 0.94069 0.46569 0.98294 0.0
C1287 C 0.91173 0.47095 0.95526 0.0
C1288 C 0.92764 0.47065 0.93817 0.0
C1289 C 0.95025 0.46846 0.94367 0.0
C1290 C 0.95674 0.46612 0.96587 0.0
C1291 C 0.92026 0.47189 0.91462 0.0
C1292 C 0.90384 0.45658 0.90686 0.0
C1293 C 0.92884 0.48814 0.90003 0.0
C1294 C 0.94545 0.50545 0.90744 0.0
C1295 C 0.96586 0.50785 0.89618 0.0
C1296 C 0.98156 0.52412 0.90319 0.0
C1297 C 0.97697 0.53817 0.92136 0.0
C1298 C 0.95662 0.53604 0.93252 0.0
C1299 C 0.94086 0.51982 0.92556 0.0
H1300 H 0.98915 0.55075 0.92676 0.0
H1301 H 0.82765 0.40034 0.86451 0.0
H1302 H 0.1594 0.9777 0.80934 0.0
H1303 H 0.13564 0.98292 0.84159 0.0
H1304 H 0.13769 0.05401 0.83223 0.0
H1305 H 0.16234 0.04893 0.8001 0.0
H1306 H 0.14544 0.04657 0.87312 0.0
H1307 H 0.08853 0.02165 0.82402 0.0
H1308 H 0.06973 0.99832 0.79506 0.0
H1309 H 0.07106 0.9419 0.83772 0.0
H1310 H 0.09016 0.9648 0.86683 0.0
H1311 H 0.05045 0.02865 0.95926 0.0
H1312 H 0.06162 0.02739 0.92002 0.0
H1313 H 0.12863 0.01173 0.93943 0.0
H1314 H 0.11779 0.01347 0.9785 0.0
H1315 H 0.07947 0.99864 0.89068 0.0
H1316 H 0.16558 0.0419 0.91085 0.0
H1317 H 0.18155 0.06822 0.93899 0.0
H1318 H 0.11662 0.09425 0.95166 0.0
H1319 H 0.1003 0.06838 0.92331 0.0
C1320 C 0.15459 0.99446 0.81387 0.0
C1321 C 0.16287 0.01292 0.80216 0.0
C1322 C 0.14079 0.99741 0.83229 0.0
C1323 C 0.13456 0.01883 0.83923 0.0
C1324 C 0.14222 0.0373 0.82716 0.0
C1325 C 0.15628 0.03438 0.80879 0.0
C1326 C 0.12187 0.02183 0.86027 0.0
C1327 C 0.13088 0.03625 0.87682 0.0
C1328 C 0.10246 0.00885 0.86502 0.0
C1329 C 0.09089 0.99495 0.84759 0.0
C1330 C 0.08495 0.00423 0.82719 0.0
C1331 C 0.07422 0.99108 0.81074 0.0
C1332 C 0.06923 0.96864 0.81454 0.0
C1333 C 0.07493 0.9593 0.83481 0.0
C1334 C 0.08568 0.97237 0.8513 0.0
C1335 C 0.06744 0.02446 0.95511 0.0
C1336 C 0.08333 0.02145 0.97195 0.0
C1337 C 0.0738 0.02382 0.9327 0.0
C1338 C 0.09608 0.02008 0.92688 0.0
C1339 C 0.11148 0.01524 0.9436 0.0
C1340 C 0.10522 0.01611 0.96592 0.0
C1341 C 0.1038 0.02247 0.90361 0.0
C1342 C 0.09382 0.00916 0.88674 0.0
C1343 C 0.12189 0.037 0.89834 0.0
C1344 C 0.1317 0.05306 0.91503 0.0
C1345 C 0.15473 0.05335 0.91951 0.0
C1346 C 0.16384 0.06817 0.93552 0.0
C1347 C 0.1501 0.08286 0.94713 0.0
C1348 C 0.12723 0.08283 0.94268 0.0
C1349 C 0.11804 0.06808 0.92665 0.0
H1350 H 0.15719 0.09428 0.95956 0.0
H1351 H 0.06093 0.95848 0.80179 0.0
H1352 H 0.71195 0.87254 0.51856 0.0
H1353 H 0.67615 0.89065 0.51695 0.0
H1354 H 0.6739 0.87963 0.44579 0.0
H1355 H 0.70973 0.86096 0.44731 0.0
H1356 H 0.65802 0.92515 0.49767 0.0
H1357 H 0.61993 0.86443 0.43216 0.0
H1358 H 0.626 0.82678 0.4163 0.0
H1359 H 0.6558 0.80724 0.47768 0.0
H1360 H 0.64963 0.84466 0.49395 0.0
H1361 H 0.54389 0.95421 0.49039 0.0
H1362 H 0.58133 0.94475 0.47771 0.0
H1363 H 0.57466 0.8809 0.50895 0.0
H1364 H 0.53721 0.88992 0.52117 0.0
H1365 H 0.59537 0.87617 0.47077 0.0
H1366 H 0.60125 0.92611 0.53497 0.0
H1367 H 0.59502 0.96113 0.55603 0.0
H1368 H 0.62946 0.99811 0.50566 0.0
H1369 H 0.63565 0.9633 0.48416 0.0
C1370 C 0.70406 0.87423 0.50248 0.0
C1371 C 0.71353 0.86499 0.4831 0.0
C1372 C 0.68362 0.88473 0.50158 0.0
C1373 C 0.67221 0.88621 0.48131 0.0
C1374 C 0.68231 0.87839 0.46166 0.0
C1375 C 0.7028 0.86777 0.46255 0.0
C1376 C 0.64892 0.89393 0.48139 0.0
C1377 C 0.64433 0.91461 0.49147 0.0
C1378 C 0.63103 0.88002 0.47363 0.0
C1379 C 0.63459 0.8574 0.46412 0.0
C1380 C 0.62773 0.85207 0.44225 0.0
C1381 C 0.63119 0.83078 0.43321 0.0
C1382 C 0.64137 0.81466 0.44594 0.0
C1383 C 0.64801 0.81976 0.4678 0.0
C1384 C 0.64454 0.84101 0.47693 0.0
C1385 C 0.5503 0.93805 0.49433 0.0
C1386 C 0.53762 0.9229 0.50698 0.0
C1387 C 0.57172 0.9327 0.48711 0.0
C1388 C 0.58089 0.91223 0.49262 0.0
C1389 C 0.56791 0.89677 0.50446 0.0
C1390 C 0.5465 0.90202 0.51153 0.0
C1391 C 0.60444 0.90722 0.48743 0.0
C1392 C 0.60907 0.88704 0.47637 0.0
C1393 C 0.62233 0.92127 0.49493 0.0
C1394 C 0.61866 0.94217 0.50784 0.0
C1395 C 0.60734 0.94174 0.52831 0.0
C1396 C 0.60384 0.96153 0.54034 0.0
C1397 C 0.61177 0.98184 0.53215 0.0
C1398 C 0.62328 0.98237 0.51195 0.0
C1399 C 0.62679 0.96262 0.49984 0.0
H1400 H 0.60905 0.99715 0.54148 0.0
H1401 H 0.64405 0.7982 0.4389 0.0
H1402 H 0.72 0.13446 0.94171 0.0
H1403 H 0.68444 0.1137 0.94296 0.0
H1404 H 0.67873 0.12961 0.01305 0.0
H1405 H 0.71446 0.14967 0.01213 0.0
H1406 H 0.66024 0.09015 0.00482 0.0
H1407 H 0.65625 0.16321 0.97416 0.0
H1408 H 0.66641 0.19318 0.94836 0.0
H1409 H 0.6449 0.15178 0.89287 0.0
H1410 H 0.63489 0.12143 0.91836 0.0
H1411 H 0.53477 0.11483 0.97913 0.0
H1412 H 0.57418 0.12551 0.98219 0.0
H1413 H 0.5918 0.05627 0.9778 0.0
H1414 H 0.55232 0.04542 0.97552 0.0
H1415 H 0.60494 0.12108 0.95311 0.0
H1416 H 0.64206 0.04886 0.00301 0.0
H1417 H 0.63096 0.02341 0.03296 0.0
H1418 H 0.58361 0.07065 0.05712 0.0
H1419 H 0.59463 0.09649 0.02752 0.0
C1420 C 0.71144 0.13306 0.9575 0.0
C1421 C 0.71985 0.14405 0.97672 0.0
C1422 C 0.6911 0.12124 0.95818 0.0
C1423 C 0.6787 0.12059 0.97799 0.0
C1424 C 0.68796 0.12998 0.99756 0.0
C1425 C 0.70838 0.14155 0.99696 0.0
C1426 C 0.65513 0.11259 0.97789 0.0
C1427 C 0.64814 0.09673 0.9934 0.0
C1428 C 0.63923 0.12173 0.96348 0.0
C1429 C 0.64506 0.13999 0.94812 0.0
C1430 C 0.65382 0.16046 0.95644 0.0
C1431 C 0.65954 0.17751 0.94188 0.0
C1432 C 0.65636 0.17436 0.91898 0.0
C1433 C 0.64739 0.15417 0.9106 0.0
C1434 C 0.64169 0.13704 0.9251 0.0
C1435 C 0.54702 0.10186 0.97912 0.0
C1436 C 0.54044 0.07929 0.97703 0.0
C1437 C 0.56955 0.10798 0.98079 0.0
C1438 C 0.58598 0.09171 0.98023 0.0
C1439 C 0.57944 0.06912 0.97863 0.0
C1440 C 0.55685 0.06295 0.97726 0.0
C1441 C 0.60991 0.09856 0.98006 0.0
C1442 C 0.61699 0.11424 0.96441 0.0
C1443 C 0.62565 0.08985 0.99492 0.0
C1444 C 0.61899 0.07448 0.01288 0.0
C1445 C 0.62932 0.05383 0.01475 0.0
C1446 C 0.62304 0.03934 0.03167 0.0
C1447 C 0.60653 0.04537 0.04688 0.0
C1448 C 0.59632 0.06595 0.04527 0.0
C1449 C 0.60255 0.08051 0.0284 0.0
H1450 H 0.60169 0.03413 0.05996 0.0
H1451 H 0.6608 0.18758 0.90773 0.0
H1452 H 0.31347 0.36681 0.94896 0.0
H1453 H 0.34807 0.38839 0.94291 0.0
H1454 H 0.36398 0.38442 0.01275 0.0
H1455 H 0.32929 0.36377 0.01902 0.0
H1456 H 0.37714 0.42296 0.99938 0.0
H1457 H 0.38481 0.3472 0.97205 0.0
H1458 H 0.375 0.31405 0.94876 0.0
H1459 H 0.38601 0.35178 0.8897 0.0
H1460 H 0.39564 0.38522 0.91268 0.0
H1461 H 0.50098 0.40167 0.96856 0.0
H1462 H 0.46201 0.39021 0.97241 0.0
H1463 H 0.44224 0.45826 0.96468 0.0
H1464 H 0.48152 0.47001 0.96136 0.0
H1465 H 0.42949 0.39094 0.94418 0.0
H1466 H 0.39241 0.46566 0.99227 0.0
H1467 H 0.40414 0.495 0.01952 0.0
H1468 H 0.45554 0.45313 0.04365 0.0
H1469 H 0.44393 0.42346 0.01676 0.0
C1470 C 0.3242 0.37084 0.96306 0.0
C1471 C 0.3187 0.36338 0.98442 0.0
C1472 C 0.34402 0.38311 0.95957 0.0
C1473 C 0.35887 0.38773 0.97731 0.0
C1474 C 0.35285 0.38113 0.99878 0.0
C1475 C 0.33299 0.36919 0.00231 0.0
C1476 C 0.38138 0.39794 0.97356 0.0
C1477 C 0.38852 0.41609 0.98715 0.0
C1478 C 0.39642 0.38881 0.95788 0.0
C1479 C 0.39067 0.36874 0.94406 0.0
C1480 C 0.38498 0.34844 0.9541 0.0
C1481 C 0.37948 0.32961 0.94096 0.0
C1482 C 0.37981 0.33083 0.91776 0.0
C1483 C 0.38571 0.35087 0.90766 0.0
C1484 C 0.3912 0.36977 0.92073 0.0
C1485 C 0.4884 0.41428 0.96783 0.0
C1486 C 0.49439 0.43677 0.96462 0.0
C1487 C 0.46607 0.40767 0.96994 0.0
C1488 C 0.44913 0.42333 0.96879 0.0
C1489 C 0.45501 0.44588 0.96586 0.0
C1490 C 0.47747 0.45258 0.96396 0.0
C1491 C 0.42542 0.41567 0.97029 0.0
C1492 C 0.41802 0.39807 0.95616 0.0
C1493 C 0.41043 0.42482 0.98599 0.0
C1494 C 0.41748 0.44249 0.0023 0.0
C1495 C 0.40619 0.46272 0.00342 0.0
C1496 C 0.41282 0.4794 0.0188 0.0
C1497 C 0.43063 0.47597 0.03324 0.0
C1498 C 0.44181 0.45581 0.03239 0.0
C1499 C 0.43523 0.43907 0.01706 0.0
H1500 H 0.43574 0.4889 0.04513 0.0
H1501 H 0.37554 0.31623 0.90762 0.0
H1502 H 0.81855 0.15839 0.04083 0.0
H1503 H 0.8537 0.13899 0.04529 0.0
H1504 H 0.86642 0.14447 0.97489 0.0
H1505 H 0.83102 0.16282 0.97022 0.0
H1506 H 0.87701 0.10553 0.98648 0.0
H1507 H 0.89499 0.17993 0.01648 0.0
H1508 H 0.88988 0.21273 0.04138 0.0
H1509 H 0.89477 0.17126 0.09841 0.0
H1510 H 0.89991 0.1383 0.07383 0.0
H1511 H 0.00324 0.11553 0.0182 0.0
H1512 H 0.96629 0.13061 0.0129 0.0
H1513 H 0.93663 0.06496 0.02022 0.0
H1514 H 0.97373 0.04961 0.02496 0.0
H1515 H 0.93372 0.13227 0.04157 0.0
H1516 H 0.88674 0.06216 0.99222 0.0
H1517 H 0.89444 0.0324 0.96452 0.0
H1518 H 0.95113 0.06997 0.94092 0.0
H1519 H 0.94361 0.10006 0.96828 0.0
C1520 C 0.82885 0.15534 0.02633 0.0
C1521 C 0.82202 0.16202 0.00518 0.0
C1522 C 0.84899 0.1444 0.02891 0.0
C1523 C 0.86286 0.14048 0.01046 0.0
C1524 C 0.85597 0.14715 0.98936 0.0
C1525 C 0.83572 0.15767 0.98671 0.0
C1526 C 0.88458 0.12944 0.01289 0.0
C1527 C 0.88939 0.11136 0.99857 0.0
C1528 C 0.90082 0.13702 0.02856 0.0
C1529 C 0.89749 0.1567 0.04334 0.0
C1530 C 0.89475 0.17785 0.03432 0.0
C1531 C 0.89192 0.19644 0.04836 0.0
C1532 C 0.89184 0.19405 0.07144 0.0
C1533 C 0.89474 0.17308 0.08053 0.0
C1534 C 0.89767 0.15446 0.06656 0.0
C1535 C 0.98889 0.10423 0.01838 0.0
C1536 C 0.99139 0.08139 0.02205 0.0
C1537 C 0.96777 0.11289 0.01545 0.0
C1538 C 0.9487 0.09894 0.01624 0.0
C1539 C 0.95114 0.076 0.0193 0.0
C1540 C 0.97235 0.06725 0.022 0.0
C1541 C 0.92633 0.10875 0.01481 0.0
C1542 C 0.92131 0.12639 0.02952 0.0
C1543 C 0.91015 0.10112 0.99911 0.0
C1544 C 0.91475 0.08322 0.98247 0.0
C1545 C 0.90081 0.06408 0.98108 0.0
C1546 C 0.90515 0.04716 0.96544 0.0
C1547 C 0.92331 0.04925 0.95103 0.0
C1548 C 0.93713 0.06832 0.95216 0.0
C1549 C 0.93285 0.0853 0.96775 0.0
H1550 H 0.92665 0.03613 0.93895 0.0
H1551 H 0.88963 0.20845 0.08228 0.0
H1552 H 0.02929 0.1839 0.28387 0.0
H1553 H 0.03209 0.16037 0.25057 0.0
H1554 H 0.96608 0.17869 0.23054 0.0
H1555 H 0.96304 0.20252 0.26421 0.0
H1556 H 0.97908 0.13111 0.22094 0.0
H1557 H 0.00179 0.20698 0.20692 0.0
H1558 H 0.02101 0.24229 0.21798 0.0
H1559 H 0.08362 0.20914 0.21946 0.0
H1560 H 0.06474 0.17358 0.20845 0.0
H1561 H 0.03502 0.12684 0.10271 0.0
H1562 H 0.02048 0.14748 0.13469 0.0
H1563 H 0.02981 0.09051 0.17594 0.0
H1564 H 0.04406 0.06952 0.14388 0.0
H1565 H 0.03948 0.16021 0.17225 0.0
H1566 H 0.99028 0.08916 0.21647 0.0
H1567 H 0.96881 0.05482 0.20646 0.0
H1568 H 0.95475 0.08074 0.14203 0.0
H1569 H 0.97585 0.11534 0.15176 0.0
C1570 C 0.01514 0.18265 0.27265 0.0
C1571 C 0.99606 0.19532 0.27647 0.0
C1572 C 0.01677 0.16912 0.25366 0.0
C1573 C 0.99942 0.16805 0.23803 0.0
C1574 C 0.97962 0.17934 0.24249 0.0
C1575 C 0.97793 0.19292 0.26167 0.0
C1576 C 0.00348 0.15737 0.21605 0.0
C1577 C 0.99214 0.13745 0.21015 0.0
C1578 C 0.02018 0.16604 0.20184 0.0
C1579 C 0.03184 0.18761 0.20702 0.0
C1580 C 0.01966 0.20723 0.20961 0.0
C1581 C 0.03047 0.22727 0.21592 0.0
C1582 C 0.05347 0.22789 0.21968 0.0
C1583 C 0.06578 0.20859 0.21667 0.0
C1584 C 0.05505 0.1885 0.2103 0.0
C1585 C 0.03398 0.11863 0.11856 0.0
C1586 C 0.04074 0.09648 0.12069 0.0
C1587 C 0.02564 0.13049 0.13684 0.0
C1588 C 0.0238 0.12049 0.15766 0.0
C1589 C 0.03068 0.09845 0.15993 0.0
C1590 C 0.03899 0.08652 0.14162 0.0
C1591 C 0.01547 0.13342 0.17716 0.0
C1592 C 0.02614 0.15387 0.18271 0.0
C1593 C 0.99779 0.12542 0.1907 0.0
C1594 C 0.98483 0.10477 0.1848 0.0
C1595 C 0.98252 0.08757 0.20021 0.0
C1596 C 0.97043 0.06805 0.19457 0.0
C1597 C 0.96048 0.06558 0.1736 0.0
C1598 C 0.96254 0.08264 0.15824 0.0
C1599 C 0.97459 0.1022 0.1638 0.0
H1600 H 0.95114 0.05045 0.16927 0.0
H1601 H 0.06176 0.24335 0.22485 0.0
H1602 H 0.00615 0.26453 0.25398 0.0
H1603 H 0.00545 0.2894 0.22245 0.0
H1604 H 0.05575 0.33186 0.25401 0.0
H1605 H 0.05692 0.3064 0.28569 0.0
H1606 H 0.01487 0.3534 0.24054 0.0
H1607 H 0.07151 0.30796 0.20845 0.0
H1608 H 0.08947 0.27295 0.19722 0.0
H1609 H 0.03293 0.25454 0.15638 0.0
H1610 H 0.0146 0.28943 0.16738 0.0
H1611 H 0.00298 0.42221 0.14537 0.0
H1612 H 0.01834 0.40112 0.17601 0.0
H1613 H 0.98629 0.34106 0.14954 0.0
H1614 H 0.9718 0.36183 0.11849 0.0
H1615 H 0.02583 0.33164 0.1613 0.0
H1616 H 0.96663 0.3724 0.19662 0.0
H1617 H 0.94621 0.4059 0.20813 0.0
H1618 H 0.00385 0.43104 0.24391 0.0
H1619 H 0.0247 0.39779 0.23237 0.0
C1620 C 0.01737 0.27895 0.25403 0.0
C1621 C 0.03155 0.28363 0.27222 0.0
C1622 C 0.01701 0.29309 0.23598 0.0
C1623 C 0.03058 0.31242 0.23588 0.0
C1624 C 0.04524 0.31693 0.25378 0.0
C1625 C 0.04597 0.3024 0.27175 0.0
C1626 C 0.02762 0.32858 0.21788 0.0
C1627 C 0.01781 0.34898 0.2232 0.0
C1628 C 0.03081 0.32241 0.19531 0.0
C1629 C 0.04168 0.3013 0.18878 0.0
C1630 C 0.06287 0.2964 0.19715 0.0
C1631 C 0.07316 0.27663 0.19074 0.0
C1632 C 0.06239 0.26158 0.17602 0.0
C1633 C 0.04129 0.26626 0.16769 0.0
C1634 C 0.03098 0.28607 0.17395 0.0
C1635 C 0.99911 0.40453 0.1462 0.0
C1636 C 0.98614 0.39369 0.12953 0.0
C1637 C 0.00787 0.39248 0.16375 0.0
C1638 C 0.00336 0.36947 0.16527 0.0
C1639 C 0.99017 0.35875 0.14873 0.0
C1640 C 0.98178 0.37067 0.13102 0.0
C1641 C 0.01239 0.35631 0.18384 0.0
C1642 C 0.0233 0.33641 0.17861 0.0
C1643 C 0.0098 0.36276 0.20651 0.0
C1644 C 0.99731 0.38276 0.2134 0.0
C1645 C 0.97501 0.38517 0.20679 0.0
C1646 C 0.96334 0.40409 0.21334 0.0
C1647 C 0.97375 0.42063 0.22668 0.0
C1648 C 0.99583 0.41825 0.23354 0.0
C1649 C 0.00757 0.39936 0.227 0.0
H1650 H 0.96469 0.43526 0.23174 0.0
H1651 H 0.07034 0.24623 0.17117 0.0
H1652 H 0.07003 0.77184 0.23335 0.0
H1653 H 0.07557 0.79624 0.26641 0.0
H1654 H 0.0266 0.84094 0.24157 0.0
H1655 H 0.02037 0.81623 0.20908 0.0
H1656 H 0.07095 0.86022 0.26443 0.0
H1657 H 0.00474 0.8106 0.27215 0.0
H1658 H 0.9871 0.77304 0.27052 0.0
H1659 H 0.03385 0.7506 0.31885 0.0
H1660 H 0.05202 0.78796 0.32043 0.0
H1661 H 0.04007 0.92362 0.35886 0.0
H1662 H 0.03917 0.90153 0.32419 0.0
H1663 H 0.06011 0.84393 0.35982 0.0
H1664 H 0.05982 0.86558 0.39459 0.0
H1665 H 0.03244 0.83036 0.33094 0.0
H1666 H 0.09682 0.87819 0.3277 0.0
H1667 H 0.11836 0.9137 0.32935 0.0
H1668 H 0.08125 0.9374 0.27386 0.0
H1669 H 0.05925 0.90215 0.27209 0.0
C1670 C 0.0609 0.78716 0.23474 0.0
C1671 C 0.04474 0.7922 0.21882 0.0
C1672 C 0.06404 0.80102 0.25357 0.0
C1673 C 0.05145 0.8203 0.25633 0.0
C1674 C 0.03651 0.82616 0.23963 0.0
C1675 C 0.03293 0.81204 0.22117 0.0
C1676 C 0.05174 0.8329 0.27771 0.0
C1677 C 0.06244 0.85388 0.279 0.0
C1678 C 0.04116 0.8242 0.29673 0.0
C1679 C 0.02987 0.80196 0.29621 0.0
C1680 C 0.01136 0.7976 0.28228 0.0
C1681 C 0.00126 0.77636 0.28139 0.0
C1682 C 0.00939 0.75942 0.29452 0.0
C1683 C 0.02759 0.76372 0.30865 0.0
C1684 C 0.03779 0.78492 0.30956 0.0
C1685 C 0.04419 0.90617 0.35931 0.0
C1686 C 0.05005 0.89636 0.37945 0.0
C1687 C 0.04389 0.89359 0.33945 0.0
C1688 C 0.05015 0.87116 0.33922 0.0
C1689 C 0.05529 0.86119 0.35947 0.0
C1690 C 0.05509 0.87361 0.37938 0.0
C1691 C 0.05157 0.85809 0.31794 0.0
C1692 C 0.04113 0.83689 0.31657 0.0
C1693 C 0.06292 0.86642 0.29902 0.0
C1694 C 0.07623 0.88759 0.2999 0.0
C1695 C 0.09315 0.89103 0.31594 0.0
C1696 C 0.10545 0.91111 0.31689 0.0
C1697 C 0.10114 0.92782 0.30175 0.0
C1698 C 0.08455 0.92445 0.28559 0.0
C1699 C 0.07217 0.90442 0.2846 0.0
H1700 H 0.11067 0.94335 0.30252 0.0
H1701 H 0.00157 0.74299 0.29379 0.0
H1702 H 0.02266 0.69013 0.21422 0.0
H1703 H 0.01823 0.66215 0.2426 0.0
H1704 H 0.95563 0.69047 0.26246 0.0
H1705 H 0.95977 0.71843 0.23351 0.0
H1706 H 0.01812 0.66507 0.28415 0.0
H1707 H 0.92161 0.65152 0.28571 0.0
H1708 H 0.88989 0.65152 0.25953 0.0
H1709 H 0.93384 0.63656 0.20515 0.0
H1710 H 0.96573 0.63615 0.23106 0.0
H1711 H 0.98446 0.62286 0.38556 0.0
H1712 H 0.98876 0.64329 0.35144 0.0
H1713 H 0.96858 0.58466 0.31309 0.0
H1714 H 0.9635 0.56397 0.34762 0.0
H1715 H 0.94904 0.62021 0.2973 0.0
H1716 H 0.02351 0.60235 0.31468 0.0
H1717 H 0.05698 0.59865 0.33805 0.0
H1718 H 0.06047 0.66958 0.34885 0.0
H1719 H 0.02683 0.67368 0.3258 0.0
C1720 C 0.00786 0.69041 0.22454 0.0
C1721 C 0.99157 0.70657 0.22166 0.0
C1722 C 0.00535 0.67434 0.24079 0.0
C1723 C 0.9865 0.67397 0.25458 0.0
C1724 C 0.97011 0.69006 0.25172 0.0
C1725 C 0.97253 0.70611 0.23525 0.0
C1726 C 0.98471 0.65739 0.27259 0.0
C1727 C 0.00302 0.65522 0.28691 0.0
C1728 C 0.96526 0.64403 0.27594 0.0
C1729 C 0.9461 0.64403 0.2603 0.0
C1730 C 0.92449 0.64814 0.26818 0.0
C1731 C 0.90648 0.64822 0.25339 0.0
C1732 C 0.90986 0.64411 0.23068 0.0
C1733 C 0.93125 0.63982 0.22272 0.0
C1734 C 0.9493 0.63969 0.23745 0.0
C1735 C 0.98107 0.61411 0.36993 0.0
C1736 C 0.97377 0.59165 0.36938 0.0
C1737 C 0.98361 0.62588 0.35036 0.0
C1738 C 0.97935 0.61545 0.32965 0.0
C1739 C 0.97205 0.59302 0.32891 0.0
C1740 C 0.96928 0.58119 0.34863 0.0
C1741 C 0.98226 0.62837 0.30901 0.0
C1742 C 0.96418 0.62991 0.2943 0.0
C1743 C 0.00221 0.64064 0.3048 0.0
C1744 C 0.02254 0.6383 0.31861 0.0
C1745 C 0.03133 0.61715 0.32215 0.0
C1746 C 0.05034 0.61498 0.33533 0.0
C1747 C 0.06082 0.63386 0.34496 0.0
C1748 C 0.05233 0.65496 0.34139 0.0
C1749 C 0.03331 0.65722 0.32824 0.0
H1750 H 0.07554 0.63215 0.35516 0.0
H1751 H 0.8959 0.6442 0.21925 0.0
H1752 H 0.28785 0.02538 0.19953 0.0
H1753 H 0.25797 0.03032 0.17285 0.0
H1754 H 0.2564 0.95969 0.15783 0.0
H1755 H 0.28607 0.95447 0.18517 0.0
H1756 H 0.2509 0.02419 0.13053 0.0
H1757 H 0.20225 0.9427 0.14959 0.0
H1758 H 0.19814 0.91578 0.17989 0.0
H1759 H 0.21645 0.96701 0.22791 0.0
H1760 H 0.22036 0.99426 0.19794 0.0
H1761 H 0.15582 0.0201 0.06004 0.0
H1762 H 0.18957 0.00931 0.07948 0.0
H1763 H 0.15601 0.01752 0.1425 0.0
H1764 H 0.12206 0.0277 0.12321 0.0
H1765 H 0.18008 0.98203 0.14341 0.0
H1766 H 0.19214 0.05793 0.12211 0.0
H1767 H 0.19446 0.08919 0.09617 0.0
H1768 H 0.24644 0.05655 0.05988 0.0
H1769 H 0.24423 0.02496 0.08546 0.0
C1770 C 0.28134 0.01086 0.19044 0.0
C1771 C 0.28909 0.98946 0.19476 0.0
C1772 C 0.2643 0.01376 0.17507 0.0
C1773 C 0.25469 0.99535 0.16358 0.0
C1774 C 0.2633 0.97409 0.16683 0.0
C1775 C 0.28027 0.97114 0.18241 0.0
C1776 C 0.23468 0.99846 0.14954 0.0
C1777 C 0.23548 0.01481 0.13317 0.0
C1778 C 0.2144 0.9866 0.15333 0.0
C1779 C 0.21187 0.9704 0.1715 0.0
C1780 C 0.20534 0.9482 0.16663 0.0
C1781 C 0.20305 0.9329 0.18374 0.0
C1782 C 0.20712 0.93966 0.2058 0.0
C1783 C 0.21339 0.96177 0.21081 0.0
C1784 C 0.21567 0.97714 0.19377 0.0
C1785 C 0.15558 0.01952 0.07804 0.0
C1786 C 0.13627 0.0249 0.09008 0.0
C1787 C 0.17492 0.01339 0.08912 0.0
C1788 C 0.17541 0.01288 0.11246 0.0
C1789 C 0.15601 0.01776 0.12448 0.0
C1790 C 0.13662 0.02367 0.11341 0.0
C1791 C 0.19625 0.00786 0.1245 0.0
C1792 C 0.1956 0.99114 0.14046 0.0
C1793 C 0.21643 0.01997 0.12092 0.0
C1794 C 0.21784 0.03897 0.10554 0.0
C1795 C 0.20395 0.05735 0.1085 0.0
C1796 C 0.20526 0.07514 0.09388 0.0
C1797 C 0.22054 0.07482 0.07634 0.0
C1798 C 0.23458 0.05675 0.07344 0.0
C1799 C 0.23332 0.0389 0.088 0.0
H1800 H 0.22154 0.08861 0.06505 0.0
H1801 H 0.20536 0.92778 0.21901 0.0
H1802 H 0.74254 0.4493 0.22286 0.0
H1803 H 0.77505 0.44401 0.19876 0.0
H1804 H 0.75917 0.5032 0.16326 0.0
H1805 H 0.727 0.50905 0.18773 0.0
H1806 H 0.77249 0.45577 0.13826 0.0
H1807 H 0.79447 0.51662 0.19065 0.0
H1808 H 0.7975 0.53231 0.22884 0.0
H1809 H 0.83628 0.47671 0.24823 0.0
H1810 H 0.83313 0.46051 0.21021 0.0
H1811 H 0.87196 0.46946 0.07631 0.0
H1812 H 0.83791 0.47569 0.09766 0.0
H1813 H 0.86826 0.44692 0.1552 0.0
H1814 H 0.90274 0.44196 0.13428 0.0
H1815 H 0.84639 0.47927 0.16908 0.0
H1816 H 0.82769 0.41844 0.11938 0.0
H1817 H 0.8237 0.39834 0.08332 0.0
H1818 H 0.77847 0.44747 0.0608 0.0
H1819 H 0.78241 0.46803 0.09663 0.0
C1820 C 0.74581 0.46104 0.20976 0.0
C1821 C 0.73229 0.47963 0.20721 0.0
C1822 C 0.76438 0.45801 0.19606 0.0
C1823 C 0.76943 0.47325 0.17934 0.0
C1824 C 0.75546 0.49129 0.17611 0.0
C1825 C 0.73718 0.49462 0.19012 0.0
C1826 C 0.79003 0.47096 0.16607 0.0
C1827 C 0.78867 0.46116 0.14475 0.0
C1828 C 0.81107 0.4773 0.175 0.0
C1829 C 0.81334 0.48725 0.19769 0.0
C1830 C 0.80346 0.50765 0.20312 0.0
C1831 C 0.80523 0.51665 0.22472 0.0
C1832 C 0.81701 0.50548 0.24097 0.0
C1833 C 0.82713 0.48533 0.23563 0.0
C1834 C 0.82536 0.47624 0.21407 0.0
C1835 C 0.87135 0.46454 0.09354 0.0
C1836 C 0.88998 0.45517 0.10361 0.0
C1837 C 0.8518 0.46795 0.10571 0.0
C1838 C 0.85021 0.46134 0.12798 0.0
C1839 C 0.86896 0.45218 0.13808 0.0
C1840 C 0.88868 0.44931 0.12609 0.0
C1841 C 0.82915 0.46407 0.14085 0.0
C1842 C 0.83033 0.4739 0.16228 0.0
C1843 C 0.80798 0.45724 0.13215 0.0
C1844 C 0.80552 0.44489 0.11061 0.0
C1845 C 0.81701 0.42504 0.10668 0.0
C1846 C 0.81474 0.41356 0.08629 0.0
C1847 C 0.80089 0.42166 0.06975 0.0
C1848 C 0.78922 0.44124 0.0736 0.0
C1849 C 0.79145 0.4528 0.09396 0.0
H1850 H 0.79916 0.41274 0.05398 0.0
H1851 H 0.81835 0.51246 0.25769 0.0
H1852 H 0.29925 0.03096 0.31604 0.0
H1853 H 0.26907 0.02713 0.3436 0.0
H1854 H 0.23043 0.98735 0.29618 0.0
H1855 H 0.26065 0.9905 0.26914 0.0
H1856 H 0.20527 0.01882 0.32065 0.0
H1857 H 0.26021 0.96258 0.33006 0.0
H1858 H 0.29722 0.94758 0.33782 0.0
H1859 H 0.29685 0.97844 0.40291 0.0
H1860 H 0.26018 0.9944 0.39521 0.0
H1861 H 0.12763 0.95152 0.37566 0.0
H1862 H 0.15906 0.96469 0.35339 0.0
H1863 H 0.19181 0.9906 0.41284 0.0
H1864 H 0.16072 0.97638 0.43539 0.0
H1865 H 0.22102 0.97233 0.38585 0.0
H1866 H 0.16116 0.02298 0.3768 0.0
H1867 H 0.12227 0.03214 0.36818 0.0
H1868 H 0.13071 0.00864 0.30088 0.0
H1869 H 0.16921 0.99811 0.30933 0.0
C1870 C 0.28409 0.02181 0.31149 0.0
C1871 C 0.28219 0.01093 0.29064 0.0
C1872 C 0.26697 0.01957 0.32718 0.0
C1873 C 0.24764 0.00686 0.32188 0.0
C1874 C 0.24522 0.99724 0.30054 0.0
C1875 C 0.26247 0.99901 0.28515 0.0
C1876 C 0.23049 0.00193 0.33882 0.0
C1877 C 0.20865 0.00875 0.33499 0.0
C1878 C 0.23513 0.98898 0.35759 0.0
C1879 C 0.25761 0.9801 0.36187 0.0
C1880 C 0.26821 0.96661 0.34585 0.0
C1881 C 0.28911 0.95787 0.35026 0.0
C1882 C 0.29942 0.96212 0.37081 0.0
C1883 C 0.28887 0.9752 0.38697 0.0
C1884 C 0.26809 0.98423 0.38254 0.0
C1885 C 0.1416 0.95991 0.38399 0.0
C1886 C 0.14169 0.96315 0.4072 0.0
C1887 C 0.15949 0.96754 0.37125 0.0
C1888 C 0.17748 0.97925 0.38137 0.0
C1889 C 0.17798 0.98181 0.40466 0.0
C1890 C 0.16026 0.97369 0.41751 0.0
C1891 C 0.1956 0.98889 0.36753 0.0
C1892 C 0.21764 0.98295 0.37191 0.0
C1893 C 0.19108 0.00243 0.34908 0.0
C1894 C 0.16815 0.00966 0.34375 0.0
C1895 C 0.15473 0.01966 0.36018 0.0
C1896 C 0.13273 0.02508 0.35533 0.0
C1897 C 0.12411 0.02119 0.33397 0.0
C1898 C 0.13743 0.01172 0.31742 0.0
C1899 C 0.15932 0.00592 0.32225 0.0
H1900 H 0.10709 0.02546 0.33027 0.0
H1901 H 0.31553 0.95522 0.37426 0.0
H1902 H 0.74919 0.49831 0.28621 0.0
H1903 H 0.77716 0.50401 0.31527 0.0
H1904 H 0.74974 0.568 0.33215 0.0
H1905 H 0.72195 0.56265 0.30227 0.0
H1906 H 0.79378 0.57032 0.33454 0.0
H1907 H 0.73816 0.52267 0.36433 0.0
H1908 H 0.71129 0.49098 0.36527 0.0
H1909 H 0.76505 0.44515 0.36072 0.0
H1910 H 0.79225 0.47656 0.35938 0.0
H1911 H 0.86203 0.56738 0.4331 0.0
H1912 H 0.8269 0.56615 0.41209 0.0
H1913 H 0.85122 0.51206 0.37125 0.0
H1914 H 0.88652 0.51351 0.39175 0.0
H1915 H 0.80389 0.50843 0.38685 0.0
H1916 H 0.85792 0.55886 0.35098 0.0
H1917 H 0.88357 0.5916 0.35146 0.0
H1918 H 0.82977 0.63376 0.37084 0.0
H1919 H 0.80386 0.60116 0.37077 0.0
C1920 C 0.74917 0.51366 0.29602 0.0
C1921 C 0.73326 0.52994 0.2922 0.0
C1922 C 0.76508 0.51685 0.31272 0.0
C1923 C 0.7651 0.53612 0.32635 0.0
C1924 C 0.74984 0.55289 0.32198 0.0
C1925 C 0.73404 0.54985 0.30492 0.0
C1926 C 0.78111 0.53835 0.34513 0.0
C1927 C 0.79564 0.55701 0.34628 0.0
C1928 C 0.78351 0.52103 0.36056 0.0
C1929 C 0.76725 0.50201 0.36164 0.0
C1930 C 0.74426 0.50583 0.3634 0.0
C1931 C 0.72896 0.48792 0.36401 0.0
C1932 C 0.73646 0.46607 0.36303 0.0
C1933 C 0.75927 0.46209 0.36149 0.0
C1934 C 0.77464 0.47995 0.36083 0.0
C1935 C 0.85969 0.55494 0.41994 0.0
C1936 C 0.87699 0.54058 0.41397 0.0
C1937 C 0.83969 0.55433 0.40794 0.0
C1938 C 0.83663 0.5391 0.39013 0.0
C1939 C 0.85335 0.5239 0.38499 0.0
C1940 C 0.87348 0.52479 0.39665 0.0
C1941 C 0.81682 0.53995 0.37563 0.0
C1942 C 0.80161 0.52189 0.37537 0.0
C1943 C 0.81352 0.55799 0.36135 0.0
C1944 C 0.82904 0.57757 0.36113 0.0
C1945 C 0.85161 0.57508 0.35553 0.0
C1946 C 0.86619 0.59361 0.35569 0.0
C1947 C 0.85832 0.61474 0.36125 0.0
C1948 C 0.83585 0.61738 0.36658 0.0
C1949 C 0.82121 0.59889 0.36647 0.0
H1950 H 0.86963 0.62906 0.36136 0.0
H1951 H 0.72459 0.45222 0.36349 0.0
H1952 H 0.23391 0.2585 0.9587 0.0
H1953 H 0.20979 0.22495 0.96086 0.0
H1954 H 0.184 0.24882 0.0238 0.0
H1955 H 0.20847 0.2817 0.02204 0.0
H1956 H 0.19642 0.20821 0.02782 0.0
H1957 H 0.15296 0.24696 0.97371 0.0
H1958 H 0.14647 0.26584 0.93832 0.0
H1959 H 0.16433 0.20667 0.90179 0.0
H1960 H 0.17119 0.18752 0.93699 0.0
H1961 H 0.09764 0.14399 0.04352 0.0
H1962 H 0.1218 0.17512 0.0321 0.0
H1963 H 0.15723 0.13116 0.9877 0.0
H1964 H 0.13346 0.09968 0.99946 0.0
H1965 H 0.14257 0.17831 0.97132 0.0
H1966 H 0.18497 0.1396 0.02617 0.0
H1967 H 0.18991 0.12094 0.06194 0.0
H1968 H 0.17277 0.18104 0.09727 0.0
H1969 H 0.16738 0.19995 0.06166 0.0
C1970 C 0.22275 0.2567 0.97274 0.0
C1971 C 0.22312 0.27259 0.99026 0.0
C1972 C 0.20898 0.23755 0.97399 0.0
C1973 C 0.19509 0.23429 0.99256 0.0
C1974 C 0.19472 0.2508 0.00943 0.0
C1975 C 0.20865 0.26964 0.00837 0.0
C1976 C 0.18197 0.21322 0.99545 0.0
C1977 C 0.18455 0.20185 0.01546 0.0
C1978 C 0.16696 0.20439 0.97911 0.0
C1979 C 0.16284 0.2159 0.95797 0.0
C1980 C 0.15569 0.23804 0.95813 0.0
C1981 C 0.1519 0.24878 0.93811 0.0
C1982 C 0.15506 0.23749 0.91782 0.0
C1983 C 0.16194 0.21541 0.91752 0.0
C1984 C 0.16576 0.2046 0.93749 0.0
C1985 C 0.11045 0.14095 0.0312 0.0
C1986 C 0.11378 0.11938 0.02251 0.0
C1987 C 0.1242 0.15874 0.0247 0.0
C1988 C 0.14122 0.15535 0.00909 0.0
C1989 C 0.14412 0.13403 -0.00027 0.0
C1990 C 0.13065 0.1161 0.00658 0.0
C1991 C 0.15675 0.17397 0.0038 0.0
C1992 C 0.15465 0.18471 0.98344 0.0
C1993 C 0.17217 0.18236 0.01981 0.0
C1994 C 0.17554 0.17111 0.04126 0.0
C1995 C 0.18204 0.14877 0.04157 0.0
C1996 C 0.18498 0.13816 0.06181 0.0
C1997 C 0.1816 0.14978 0.08187 0.0
C1998 C 0.17535 0.17205 0.08172 0.0
C1999 C 0.17237 0.18273 0.06151 0.0
H2000 H 0.18388 0.14153 0.09752 0.0
H2001 H 0.15212 0.24583 0.90234 0.0
H2002 H 0.21089 0.72358 0.54528 0.0
H2003 H 0.18127 0.7511 0.54574 0.0
H2004 H 0.18178 0.75122 0.47394 0.0
H2005 H 0.21062 0.72358 0.47334 0.0
H2006 H 0.18173 0.79179 0.53304 0.0
H2007 H 0.13583 0.76199 0.45151 0.0
H2008 H 0.12245 0.72671 0.43376 0.0
H2009 H 0.11976 0.69586 0.49751 0.0
H2010 H 0.13359 0.7308 0.5156 0.0
H2011 H 0.1406 0.88189 0.47639 0.0
H2012 H 0.15787 0.8484 0.48968 0.0
H2013 H 0.09286 0.81765 0.499 0.0
H2014 H 0.07539 0.85102 0.485 0.0
H2015 H 0.11772 0.78898 0.48061 0.0
H2016 H 0.12635 0.83476 0.54425 0.0
H2017 H 0.13526 0.86822 0.56737 0.0
H2018 H 0.20418 0.86451 0.54871 0.0
H2019 H 0.19565 0.83121 0.52522 0.0
C2020 C 0.20446 0.7293 0.52961 0.0
C2021 C 0.21321 0.72143 0.50929 0.0
C2022 C 0.18753 0.74502 0.5299 0.0
C2023 C 0.17902 0.75307 0.50987 0.0
C2024 C 0.18757 0.74492 0.48963 0.0
C2025 C 0.20431 0.72922 0.48933 0.0
C2026 C 0.16263 0.77129 0.50974 0.0
C2027 C 0.16758 0.79111 0.52177 0.0
C2028 C 0.1436 0.77021 0.49577 0.0
C2029 C 0.13582 0.749 0.48488 0.0
C2030 C 0.13243 0.74766 0.46173 0.0
C2031 C 0.12488 0.72769 0.45161 0.0
C2032 C 0.12041 0.70901 0.46449 0.0
C2033 C 0.12348 0.71027 0.48753 0.0
C2034 C 0.13132 0.73011 0.49771 0.0
C2035 C 0.12991 0.86808 0.48136 0.0
C2036 C 0.10658 0.86917 0.47958 0.0
C2037 C 0.13984 0.84895 0.48917 0.0
C2038 C 0.1267 0.83057 0.49576 0.0
C2039 C 0.10338 0.83162 0.49411 0.0
C2040 C 0.09341 0.85072 0.48608 0.0
C2041 C 0.13755 0.80987 0.50297 0.0
C2042 C 0.13156 0.78959 0.49225 0.0
C2043 C 0.15503 0.81032 0.5189 0.0
C2044 C 0.16031 0.83051 0.53285 0.0
C2045 C 0.14338 0.84117 0.54492 0.0
C2046 C 0.14837 0.8601 0.55813 0.0
C2047 C 0.17026 0.8685 0.5595 0.0
C2048 C 0.18722 0.85798 0.54765 0.0
C2049 C 0.18232 0.83905 0.53441 0.0
H2050 H 0.17409 0.88313 0.56976 0.0
H2051 H 0.11448 0.69359 0.45665 0.0
H2052 H 0.81543 0.78645 0.44352 0.0
H2053 H 0.84432 0.75847 0.43901 0.0
H2054 H 0.83217 0.73674 0.50604 0.0
H2055 H 0.80411 0.76505 0.51086 0.0
H2056 H 0.87444 0.7396 0.49993 0.0
H2057 H 0.8126 0.70746 0.45844 0.0
H2058 H 0.78317 0.70574 0.42971 0.0
H2059 H 0.83269 0.7123 0.37858 0.0
H2060 H 0.86242 0.71439 0.40703 0.0
H2061 H 0.90578 0.62486 0.49317 0.0
H2062 H 0.8859 0.66 0.49557 0.0
H2063 H 0.92496 0.6855 0.44114 0.0
H2064 H 0.94542 0.65062 0.43905 0.0
H2065 H 0.87358 0.68368 0.43795 0.0
H2066 H 0.93565 0.71096 0.48248 0.0
H2067 H 0.96297 0.70927 0.51305 0.0
H2068 H 0.90976 0.70791 0.56078 0.0
H2069 H 0.88209 0.70925 0.53046 0.0
C2070 C 0.81892 0.77561 0.45721 0.0
C2071 C 0.80761 0.77794 0.47755 0.0
C2072 C 0.83538 0.75962 0.45463 0.0
C2073 C 0.84036 0.74542 0.47217 0.0
C2074 C 0.82879 0.74762 0.49234 0.0
C2075 C 0.81268 0.76376 0.49504 0.0
C2076 C 0.85764 0.72827 0.46984 0.0
C2077 C 0.87415 0.72734 0.4864 0.0
C2078 C 0.85756 0.71248 0.45199 0.0
C2079 C 0.8397 0.71139 0.43488 0.0
C2080 C 0.8172 0.70876 0.44109 0.0
C2081 C 0.80047 0.70767 0.42485 0.0
C2082 C 0.80605 0.70899 0.40235 0.0
C2083 C 0.82839 0.71134 0.39602 0.0
C2084 C 0.84518 0.71248 0.41219 0.0
C2085 C 0.91046 0.63815 0.48206 0.0
C2086 C 0.92711 0.63508 0.46595 0.0
C2087 C 0.89912 0.65815 0.48344 0.0
C2088 C 0.90401 0.67518 0.46849 0.0
C2089 C 0.92108 0.67248 0.45283 0.0
C2090 C 0.93279 0.65265 0.45176 0.0
C2091 C 0.88992 0.69494 0.46819 0.0
C2092 C 0.87401 0.69626 0.4512 0.0
C2093 C 0.89019 0.71074 0.48589 0.0
C2094 C 0.90679 0.71001 0.50417 0.0
C2095 C 0.92976 0.71008 0.49948 0.0
C2096 C 0.94532 0.70924 0.51676 0.0
C2097 C 0.93811 0.70843 0.53884 0.0
C2098 C 0.91532 0.70852 0.54367 0.0
C2099 C 0.8997 0.70935 0.52644 0.0
H2100 H 0.95018 0.70778 0.5522 0.0
H2101 H 0.79308 0.70812 0.3898 0.0
H2102 H 0.33255 0.71 0.45962 0.0
H2103 H 0.36057 0.74062 0.46256 0.0
H2104 H 0.31109 0.78333 0.49165 0.0
H2105 H 0.28345 0.75265 0.48943 0.0
H2106 H 0.34085 0.80412 0.45877 0.0
H2107 H 0.34078 0.75842 0.52503 0.0
H2108 H 0.34482 0.72333 0.54504 0.0
H2109 H 0.41152 0.7174 0.52007 0.0
H2110 H 0.40769 0.75226 0.49949 0.0
H2111 H 0.38815 0.8892 0.52527 0.0
H2112 H 0.3674 0.85694 0.51018 0.0
H2113 H 0.42881 0.82196 0.50079 0.0
H2114 H 0.44977 0.85412 0.5164 0.0
H2115 H 0.39808 0.79505 0.51741 0.0
H2116 H 0.40121 0.84293 0.45585 0.0
H2117 H 0.39835 0.87802 0.43561 0.0
H2118 H 0.32828 0.87971 0.44986 0.0
H2119 H 0.33072 0.84468 0.47037 0.0
C2120 C 0.32763 0.72614 0.46605 0.0
C2121 C 0.30595 0.72923 0.47412 0.0
C2122 C 0.34359 0.74351 0.46783 0.0
C2123 C 0.33781 0.76417 0.47731 0.0
C2124 C 0.31578 0.76755 0.48416 0.0
C2125 C 0.30005 0.75009 0.4829 0.0
C2126 C 0.35492 0.78174 0.48217 0.0
C2127 C 0.35341 0.80221 0.47155 0.0
C2128 C 0.37167 0.7789 0.49838 0.0
C2129 C 0.37383 0.75777 0.51047 0.0
C2130 C 0.3562 0.74949 0.52356 0.0
C2131 C 0.35848 0.72968 0.53507 0.0
C2132 C 0.37842 0.71815 0.53385 0.0
C2133 C 0.3961 0.72637 0.52104 0.0
C2134 C 0.39386 0.74612 0.5094 0.0
C2135 C 0.3973 0.87466 0.52005 0.0
C2136 C 0.42065 0.8743 0.522 0.0
C2137 C 0.3854 0.85626 0.51124 0.0
C2138 C 0.39658 0.83719 0.50389 0.0
C2139 C 0.41985 0.83656 0.50621 0.0
C2140 C 0.43179 0.85495 0.51517 0.0
C2141 C 0.38372 0.81778 0.49441 0.0
C2142 C 0.38596 0.79693 0.50421 0.0
C2143 C 0.36784 0.82021 0.47722 0.0
C2144 C 0.36619 0.84123 0.46478 0.0
C2145 C 0.38521 0.85085 0.4548 0.0
C2146 C 0.38367 0.87072 0.44326 0.0
C2147 C 0.36318 0.88114 0.44152 0.0
C2148 C 0.34415 0.87163 0.45124 0.0
C2149 C 0.34559 0.85173 0.46278 0.0
H2150 H 0.36204 0.89654 0.4326 0.0
H2151 H 0.38017 0.70286 0.54282 0.0
H2152 H 0.52199 0.72378 0.74612 0.0
H2153 H 0.52077 0.69357 0.71827 0.0
H2154 H 0.47378 0.65682 0.7585 0.0
H2155 H 0.47442 0.68761 0.78639 0.0
H2156 H 0.51774 0.63491 0.74269 0.0
H2157 H 0.45177 0.669 0.71674 0.0
H2158 H 0.42851 0.70042 0.70622 0.0
H2159 H 0.47473 0.71725 0.65436 0.0
H2160 H 0.49846 0.68614 0.66479 0.0
H2161 H 0.53003 0.55796 0.64931 0.0
H2162 H 0.51405 0.57867 0.68088 0.0
H2163 H 0.5336 0.64063 0.65047 0.0
H2164 H 0.54881 0.6202 0.61884 0.0
H2165 H 0.49294 0.64333 0.66463 0.0
H2166 H 0.56233 0.61664 0.69499 0.0
H2167 H 0.58881 0.58818 0.70634 0.0
H2168 H 0.53965 0.56013 0.75019 0.0
H2169 H 0.51275 0.58824 0.73882 0.0
C2170 C 0.51112 0.70942 0.74888 0.0
C2171 C 0.49829 0.70794 0.76832 0.0
C2172 C 0.51042 0.69223 0.73298 0.0
C2173 C 0.49719 0.67307 0.73641 0.0
C2174 C 0.48402 0.67159 0.75563 0.0
C2175 C 0.4843 0.68914 0.7714 0.0
C2176 C 0.49863 0.65435 0.72021 0.0
C2177 C 0.51177 0.63626 0.72573 0.0
C2178 C 0.49123 0.65659 0.69809 0.0
C2179 C 0.47694 0.67526 0.69163 0.0
C2180 C 0.45706 0.67949 0.7032 0.0
C2181 C 0.44378 0.69723 0.69723 0.0
C2182 C 0.45015 0.71083 0.67965 0.0
C2183 C 0.46981 0.70669 0.66797 0.0
C2184 C 0.48316 0.68898 0.67388 0.0
C2185 C 0.53102 0.576 0.6495 0.0
C2186 C 0.54062 0.58747 0.63158 0.0
C2187 C 0.52188 0.58781 0.66752 0.0
C2188 C 0.5226 0.61123 0.66805 0.0
C2189 C 0.5326 0.62258 0.65035 0.0
C2190 C 0.5414 0.61087 0.63229 0.0
C2191 C 0.513 0.62433 0.6868 0.0
C2192 C 0.49833 0.64141 0.68171 0.0
C2193 C 0.51936 0.62137 0.70923 0.0
C2194 C 0.53542 0.6043 0.71579 0.0
C2195 C 0.55709 0.60424 0.70686 0.0
C2196 C 0.57219 0.58821 0.71333 0.0
C2197 C 0.56588 0.57229 0.7289 0.0
C2198 C 0.54448 0.57241 0.73806 0.0
C2199 C 0.5293 0.58837 0.7316 0.0
H2200 H 0.57761 0.55992 0.73392 0.0
H2201 H 0.43984 0.72456 0.67505 0.0
H2202 H 0.56574 0.80795 0.76293 0.0
H2203 H 0.56394 0.83489 0.73292 0.0
H2204 H 0.49242 0.82552 0.73012 0.0
H2205 H 0.49398 0.79915 0.76021 0.0
H2206 H 0.55054 0.83065 0.69114 0.0
H2207 H 0.46732 0.87226 0.71752 0.0
H2208 H 0.44773 0.88266 0.75214 0.0
H2209 H 0.50998 0.88544 0.78758 0.0
H2210 H 0.52999 0.8754 0.75313 0.0
H2211 H 0.49372 0.87362 0.60014 0.0
H2212 H 0.50653 0.85493 0.63323 0.0
H2213 H 0.5173 0.91861 0.66669 0.0
H2214 H 0.50384 0.93745 0.63381 0.0
H2215 H 0.4967 0.89215 0.69316 0.0
H2216 H 0.56164 0.88625 0.64907 0.0
H2217 H 0.58409 0.87826 0.61562 0.0
H2218 H 0.56419 0.80916 0.61784 0.0
H2219 H 0.54135 0.81679 0.65112 0.0
C2220 C 0.54963 0.81175 0.75598 0.0
C2221 C 0.52999 0.80151 0.76404 0.0
C2222 C 0.54864 0.8271 0.73883 0.0
C2223 C 0.52802 0.83247 0.72952 0.0
C2224 C 0.50847 0.82204 0.73739 0.0
C2225 C 0.50942 0.80685 0.75455 0.0
C2226 C 0.52671 0.84841 0.7111 0.0
C2227 C 0.53891 0.84422 0.69161 0.0
C2228 C 0.51204 0.86653 0.71197 0.0
C2229 C 0.50014 0.87293 0.73273 0.0
C2230 C 0.47685 0.87523 0.73266 0.0
C2231 C 0.46567 0.88103 0.75227 0.0
C2232 C 0.4776 0.88466 0.77206 0.0
C2233 C 0.50075 0.88256 0.77226 0.0
C2234 C 0.51202 0.87679 0.7527 0.0
C2235 C 0.49898 0.88369 0.61445 0.0
C2236 C 0.4977 0.90704 0.61434 0.0
C2237 C 0.50646 0.87297 0.63334 0.0
C2238 C 0.51319 0.88536 0.65237 0.0
C2239 C 0.51223 0.9087 0.65219 0.0
C2240 C 0.50453 0.91944 0.63338 0.0
C2241 C 0.51984 0.87382 0.67285 0.0
C2242 C 0.50862 0.87883 0.69275 0.0
C2243 C 0.53586 0.85687 0.67252 0.0
C2244 C 0.54967 0.85213 0.65254 0.0
C2245 C 0.56193 0.86938 0.64235 0.0
C2246 C 0.57474 0.8649 0.62342 0.0
C2247 C 0.57554 0.84322 0.6146 0.0
C2248 C 0.56356 0.82595 0.6247 0.0
C2249 C 0.5507 0.83034 0.64362 0.0
H2250 H 0.58547 0.8398 0.59994 0.0
H2251 H 0.4689 0.88913 0.78722 0.0
H2252 H 0.5699 0.299 0.71496 0.0
H2253 H 0.57684 0.32605 0.74549 0.0
H2254 H 0.51167 0.31071 0.7724 0.0
H2255 H 0.50441 0.28447 0.74164 0.0
H2256 H 0.51779 0.35296 0.77402 0.0
H2257 H 0.56124 0.29099 0.79516 0.0
H2258 H 0.58945 0.262 0.79082 0.0
H2259 H 0.64072 0.31242 0.78331 0.0
H2260 H 0.61276 0.34174 0.7873 0.0
H2261 H 0.53626 0.38891 0.88767 0.0
H2262 H 0.53177 0.36495 0.85435 0.0
H2263 H 0.5826 0.40356 0.8209 0.0
H2264 H 0.5868 0.42802 0.85392 0.0
H2265 H 0.58531 0.35166 0.82171 0.0
H2266 H 0.53864 0.41354 0.80271 0.0
H2267 H 0.50881 0.44023 0.81028 0.0
H2268 H 0.4615 0.38607 0.8176 0.0
H2269 H 0.49114 0.35904 0.81041 0.0
C2270 C 0.55713 0.30141 0.72746 0.0
C2271 C 0.53662 0.28967 0.72593 0.0
C2272 C 0.56112 0.31679 0.74492 0.0
C2273 C 0.54484 0.32029 0.76139 0.0
C2274 C 0.52443 0.30843 0.75987 0.0
C2275 C 0.52032 0.29339 0.74228 0.0
C2276 C 0.54874 0.33649 0.7801 0.0
C2277 C 0.5325 0.35249 0.78449 0.0
C2278 C 0.56803 0.33614 0.79372 0.0
C2279 C 0.58487 0.31855 0.79126 0.0
C2280 C 0.5785 0.2959 0.79239 0.0
C2281 C 0.59444 0.27941 0.79003 0.0
C2282 C 0.61684 0.28536 0.78672 0.0
C2283 C 0.62335 0.30783 0.78582 0.0
C2284 C 0.60747 0.32439 0.78814 0.0
C2285 C 0.54638 0.39238 0.87317 0.0
C2286 C 0.56182 0.41037 0.87334 0.0
C2287 C 0.54381 0.3787 0.85421 0.0
C2288 C 0.5569 0.38255 0.83531 0.0
C2289 C 0.57239 0.40039 0.83541 0.0
C2290 C 0.57465 0.41439 0.8542 0.0
C2291 C 0.55435 0.3678 0.81546 0.0
C2292 C 0.57077 0.35211 0.81098 0.0
C2293 C 0.53501 0.36805 0.80208 0.0
C2294 C 0.51715 0.38428 0.80625 0.0
C2295 C 0.52192 0.40732 0.80615 0.0
C2296 C 0.50504 0.42251 0.81032 0.0
C2297 C 0.48328 0.41485 0.81448 0.0
C2298 C 0.47836 0.39198 0.81441 0.0
C2299 C 0.49519 0.37672 0.81026 0.0
H2300 H 0.47023 0.42663 0.81771 0.0
H2301 H 0.62916 0.27257 0.78491 0.0
H2302 H 0.45389 0.20974 0.72999 0.0
H2303 H 0.4496 0.18687 0.76306 0.0
H2304 H 0.51929 0.17089 0.75981 0.0
H2305 H 0.5238 0.19388 0.7271 0.0
H2306 H 0.45561 0.14379 0.77238 0.0
H2307 H 0.54066 0.17112 0.812 0.0
H2308 H 0.56665 0.20362 0.81196 0.0
H2309 H 0.51271 0.2463 0.79608 0.0
H2310 H 0.48635 0.21415 0.7964 0.0
H2311 H 0.47943 0.07215 0.86064 0.0
H2312 H 0.48215 0.09438 0.82713 0.0
H2313 H 0.47509 0.15448 0.8669 0.0
H2314 H 0.47305 0.13246 0.90052 0.0
H2315 H 0.50517 0.16143 0.83689 0.0
H2316 H 0.43096 0.13065 0.83629 0.0
H2317 H 0.40188 0.10097 0.83767 0.0
H2318 H 0.42834 0.07042 0.77842 0.0
H2319 H 0.45779 0.09975 0.77685 0.0
C2320 C 0.46824 0.20118 0.7362 0.0
C2321 C 0.48923 0.20381 0.72605 0.0
C2322 C 0.46576 0.1881 0.75507 0.0
C2323 C 0.48421 0.17749 0.7641 0.0
C2324 C 0.50492 0.17927 0.75337 0.0
C2325 C 0.50744 0.19238 0.73462 0.0
C2326 C 0.48212 0.16523 0.78518 0.0
C2327 C 0.46644 0.14761 0.78649 0.0
C2328 C 0.4959 0.17061 0.80378 0.0
C2329 C 0.51158 0.19015 0.80401 0.0
C2330 C 0.53433 0.18745 0.80861 0.0
C2331 C 0.54913 0.20582 0.80853 0.0
C2332 C 0.54135 0.22699 0.80395 0.0
C2333 C 0.51873 0.22987 0.79955 0.0
C2334 C 0.50386 0.21158 0.79967 0.0
C2335 C 0.47856 0.09011 0.86228 0.0
C2336 C 0.47593 0.10051 0.88327 0.0
C2337 C 0.47999 0.10279 0.84307 0.0
C2338 C 0.47844 0.12609 0.84443 0.0
C2339 C 0.4763 0.13654 0.86541 0.0
C2340 C 0.47511 0.12389 0.88464 0.0
C2341 C 0.47895 0.13961 0.824 0.0
C2342 C 0.49434 0.15753 0.8228 0.0
C2343 C 0.46446 0.1349 0.80576 0.0
C2344 C 0.4467 0.11729 0.80658 0.0
C2345 C 0.43067 0.11751 0.82364 0.0
C2346 C 0.41411 0.10077 0.82445 0.0
C2347 C 0.41329 0.08379 0.80818 0.0
C2348 C 0.42901 0.08356 0.79103 0.0
C2349 C 0.44563 0.10026 0.79016 0.0
H2350 H 0.40046 0.07083 0.80883 0.0
H2351 H 0.55282 0.24118 0.80387 0.0
H2352 H 0.77113 0.4605 0.72096 0.0
H2353 H 0.73929 0.4625 0.69553 0.0
H2354 H 0.76951 0.52052 0.66551 0.0
H2355 H 0.80069 0.5191 0.69147 0.0
H2356 H 0.72953 0.52915 0.67367 0.0
H2357 H 0.76434 0.46681 0.63875 0.0
H2358 H 0.78112 0.42975 0.63631 0.0
H2359 H 0.71936 0.39929 0.65733 0.0
H2360 H 0.70229 0.43622 0.66019 0.0
H2361 H 0.65927 0.53359 0.57871 0.0
H2362 H 0.69206 0.52371 0.60032 0.0
H2363 H 0.64996 0.48777 0.646 0.0
H2364 H 0.6169 0.49801 0.62477 0.0
H2365 H 0.69478 0.46673 0.6295 0.0
H2366 H 0.66172 0.53183 0.66528 0.0
H2367 H 0.64631 0.56953 0.6646 0.0
H2368 H 0.70791 0.5952 0.6379 0.0
H2369 H 0.72356 0.55755 0.63811 0.0
C2370 C 0.77108 0.47342 0.70865 0.0
C2371 C 0.78826 0.48972 0.70824 0.0
C2372 C 0.75292 0.47454 0.69407 0.0
C2373 C 0.75195 0.49164 0.67846 0.0
C2374 C 0.7697 0.50728 0.67747 0.0
C2375 C 0.78756 0.50642 0.69228 0.0
C2376 C 0.73187 0.49437 0.66424 0.0
C2377 C 0.72223 0.51547 0.66383 0.0
C2378 C 0.7219 0.47654 0.65161 0.0
C2379 C 0.7321 0.45431 0.6499 0.0
C2380 C 0.75439 0.45223 0.64302 0.0
C2381 C 0.76394 0.43124 0.64153 0.0
C2382 C 0.75133 0.41218 0.64672 0.0
C2383 C 0.72912 0.41407 0.65335 0.0
C2384 C 0.71949 0.43502 0.65489 0.0
C2385 C 0.65697 0.52334 0.59317 0.0
C2386 C 0.63547 0.51669 0.60011 0.0
C2387 C 0.67572 0.5177 0.60546 0.0
C2388 C 0.67335 0.50502 0.62468 0.0
C2389 C 0.65206 0.49749 0.63113 0.0
C2390 C 0.63323 0.50347 0.61907 0.0
C2391 C 0.69294 0.50137 0.63901 0.0
C2392 C 0.70232 0.48022 0.63943 0.0
C2393 C 0.703 0.51919 0.65134 0.0
C2394 C 0.69371 0.54186 0.65149 0.0
C2395 C 0.6719 0.54548 0.65907 0.0
C2396 C 0.66314 0.56684 0.65881 0.0
C2397 C 0.67609 0.58474 0.65115 0.0
C2398 C 0.69787 0.58132 0.6438 0.0
C2399 C 0.7067 0.55998 0.64401 0.0
H2400 H 0.66928 0.60127 0.65095 0.0
H2401 H 0.75876 0.39594 0.64555 0.0
H2402 H 0.24814 0.0365 0.69722 0.0
H2403 H 0.27925 0.03589 0.67046 0.0
H2404 H 0.30898 0.98277 0.70648 0.0
H2405 H 0.27772 0.98274 0.73261 0.0
H2406 H 0.33938 0.02068 0.69079 0.0
H2407 H 0.28081 0.96652 0.66786 0.0
H2408 H 0.24191 0.95713 0.6576 0.0
H2409 H 0.24597 0.00237 0.60327 0.0
H2410 H 0.28478 0.01259 0.61373 0.0
H2411 H 0.41488 0.961 0.62615 0.0
H2412 H 0.38505 0.97385 0.65041 0.0
H2413 H 0.35179 0.00159 0.59394 0.0
H2414 H 0.38099 0.9873 0.56937 0.0
H2415 H 0.32226 0.98411 0.61772 0.0
H2416 H 0.38258 0.0338 0.63545 0.0
H2417 H 0.42102 0.04525 0.64568 0.0
H2418 H 0.41391 0.01301 0.70839 0.0
H2419 H 0.37564 0.00072 0.69832 0.0
C2420 C 0.26153 0.02496 0.69953 0.0
C2421 C 0.26058 0.00956 0.71678 0.0
C2422 C 0.2792 0.02463 0.68431 0.0
C2423 C 0.29632 0.00929 0.6866 0.0
C2424 C 0.29595 0.99477 0.70454 0.0
C2425 C 0.27806 0.99468 0.71933 0.0
C2426 C 0.31369 0.00675 0.66939 0.0
C2427 C 0.33579 0.01272 0.67476 0.0
C2428 C 0.3087 0.99703 0.6483 0.0
C2429 C 0.28556 0.99056 0.64177 0.0
C2430 C 0.27333 0.97466 0.65388 0.0
C2431 C 0.2513 0.96915 0.648 0.0
C2432 C 0.24144 0.97914 0.62978 0.0
C2433 C 0.25361 0.99467 0.61741 0.0
C2434 C 0.27561 0.00037 0.62334 0.0
C2435 C 0.4012 0.96986 0.61894 0.0
C2436 C 0.40025 0.97324 0.59593 0.0
C2437 C 0.38423 0.97741 0.63285 0.0
C2438 C 0.36639 0.98931 0.62418 0.0
C2439 C 0.36539 0.99258 0.6011 0.0
C2440 C 0.38207 0.98443 0.58707 0.0
C2441 C 0.34845 0.99751 0.63916 0.0
C2442 C 0.32611 0.99257 0.63343 0.0
C2443 C 0.35325 0.0086 0.65979 0.0
C2444 C 0.37621 0.01622 0.66606 0.0
C2445 C 0.38923 0.02902 0.65138 0.0
C2446 C 0.41101 0.03568 0.65715 0.0
C2447 C 0.41989 0.02993 0.67768 0.0
C2448 C 0.40701 0.01747 0.69249 0.0
C2449 C 0.38527 0.01063 0.68676 0.0
H2450 H 0.43675 0.03513 0.6821 0.0
H2451 H 0.2244 0.97482 0.62521 0.0
H2452 H 0.80688 0.55432 0.81851 0.0
H2453 H 0.77854 0.55526 0.84823 0.0
H2454 H 0.73867 0.50612 0.81171 0.0
H2455 H 0.76699 0.50467 0.7826 0.0
H2456 H 0.71409 0.54287 0.83269 0.0
H2457 H 0.77368 0.48908 0.84721 0.0
H2458 H 0.81314 0.48133 0.85474 0.0
H2459 H 0.81196 0.52454 0.91258 0.0
H2460 H 0.77264 0.53305 0.90499 0.0
H2461 H 0.64639 0.46718 0.88212 0.0
H2462 H 0.67796 0.48505 0.86383 0.0
H2463 H 0.69873 0.51591 0.92618 0.0
H2464 H 0.66687 0.49765 0.94491 0.0
H2465 H 0.73467 0.50136 0.89999 0.0
H2466 H 0.67337 0.54761 0.89205 0.0
H2467 H 0.6342 0.55725 0.88562 0.0
H2468 H 0.63846 0.5328 0.81815 0.0
H2469 H 0.67754 0.52256 0.82427 0.0
C2470 C 0.7918 0.54414 0.81672 0.0
C2471 C 0.78903 0.52937 0.79841 0.0
C2472 C 0.77572 0.54465 0.83365 0.0
C2473 C 0.75658 0.53074 0.8321 0.0
C2474 C 0.75328 0.51705 0.81314 0.0
C2475 C 0.76947 0.51616 0.79659 0.0
C2476 C 0.74082 0.52833 0.85084 0.0
C2477 C 0.71855 0.53403 0.84754 0.0
C2478 C 0.74692 0.51759 0.87061 0.0
C2479 C 0.77034 0.51195 0.87536 0.0
C2480 C 0.78189 0.49708 0.86142 0.0
C2481 C 0.80423 0.49252 0.86572 0.0
C2482 C 0.81506 0.50245 0.88412 0.0
C2483 C 0.80356 0.5169 0.8983 0.0
C2484 C 0.78127 0.52163 0.89399 0.0
C2485 C 0.65777 0.47755 0.89207 0.0
C2486 C 0.654 0.48125 0.9149 0.0
C2487 C 0.67578 0.48783 0.88156 0.0
C2488 C 0.6903 0.50228 0.89353 0.0
C2489 C 0.68752 0.50499 0.91663 0.0
C2490 C 0.66942 0.4945 0.92729 0.0
C2491 C 0.7077 0.51486 0.88121 0.0
C2492 C 0.73024 0.51101 0.88565 0.0
C2493 C 0.7019 0.52777 0.86271 0.0
C2494 C 0.67845 0.53425 0.85867 0.0
C2495 C 0.66594 0.54416 0.87586 0.0
C2496 C 0.64374 0.54974 0.87228 0.0
C2497 C 0.63384 0.54563 0.8515 0.0
C2498 C 0.64616 0.53599 0.83424 0.0
C2499 C 0.66837 0.53032 0.83775 0.0
H2500 H 0.61664 0.54991 0.84878 0.0
H2501 H 0.83236 0.49897 0.88743 0.0
H2502 H 0.27397 0.99632 0.78847 0.0
H2503 H 0.30282 0.99452 0.81701 0.0
H2504 H 0.26479 0.94321 0.85018 0.0
H2505 H 0.2359 0.94441 0.82092 0.0
H2506 H 0.28085 0.98849 0.8751 0.0
H2507 H 0.30538 0.92341 0.83601 0.0
H2508 H 0.31476 0.90085 0.80272 0.0
H2509 H 0.36635 0.94837 0.78594 0.0
H2510 H 0.35705 0.97141 0.81893 0.0
H2511 H 0.37549 0.00877 0.94648 0.0
H2512 H 0.34472 0.98858 0.92746 0.0
H2513 H 0.3729 0.00621 0.86394 0.0
H2514 H 0.40396 0.02542 0.88275 0.0
H2515 H 0.35864 0.96569 0.86116 0.0
H2516 H 0.32803 0.03481 0.89078 0.0
H2517 H 0.31812 0.06149 0.92076 0.0
H2518 H 0.27799 0.0109 0.95198 0.0
H2519 H 0.28788 0.98385 0.92227 0.0
C2520 C 0.27188 0.98445 0.80169 0.0
C2521 C 0.25277 0.97056 0.80264 0.0
C2522 C 0.28837 0.98338 0.81789 0.0
C2523 C 0.28587 0.96871 0.83557 0.0
C2524 C 0.26696 0.95453 0.83651 0.0
C2525 C 0.25059 0.95519 0.81986 0.0
C2526 C 0.30259 0.96992 0.85358 0.0
C2527 C 0.29775 0.98289 0.87254 0.0
C2528 C 0.32463 0.96307 0.84975 0.0
C2529 C 0.33043 0.94919 0.82993 0.0
C2530 C 0.31861 0.92915 0.82514 0.0
C2531 C 0.32394 0.91625 0.80633 0.0
C2532 C 0.34113 0.92318 0.79221 0.0
C2533 C 0.35305 0.94301 0.7969 0.0
C2534 C 0.34778 0.95598 0.81568 0.0
C2535 C 0.37504 0.00832 0.92846 0.0
C2536 C 0.39204 0.0188 0.91609 0.0
C2537 C 0.35748 0.99677 0.91761 0.0
C2538 C 0.35636 0.996 0.89424 0.0
C2539 C 0.37344 0.00638 0.88197 0.0
C2540 C 0.39113 0.01752 0.89275 0.0
C2541 C 0.33718 0.98529 0.88219 0.0
C2542 C 0.34161 0.97059 0.86432 0.0
C2543 C 0.31482 0.99104 0.88669 0.0
C2544 C 0.30893 0.00726 0.90452 0.0
C2545 C 0.31722 0.02935 0.90414 0.0
C2546 C 0.3116 0.04454 0.92105 0.0
C2547 C 0.29751 0.03787 0.93831 0.0
C2548 C 0.28896 0.01602 0.93864 0.0
C2549 C 0.29456 0.00076 0.92177 0.0
H2550 H 0.29316 0.04965 0.95139 0.0
H2551 H 0.34522 0.91318 0.77765 0.0
H2552 H 0.73056 0.77325 0.55935 0.0
H2553 H 0.70782 0.73938 0.565 0.0
H2554 H 0.68734 0.7395 0.49617 0.0
H2555 H 0.7102 0.77295 0.49029 0.0
H2556 H 0.66463 0.72826 0.56127 0.0
H2557 H 0.68501 0.68687 0.47535 0.0
H2558 H 0.71586 0.68665 0.44822 0.0
H2559 H 0.76245 0.70503 0.50011 0.0
H2560 H 0.73197 0.705 0.5276 0.0
H2561 H 0.58772 0.63996 0.54031 0.0
H2562 H 0.6115 0.67327 0.53682 0.0
H2563 H 0.67001 0.63302 0.54038 0.0
H2564 H 0.64631 0.59953 0.54314 0.0
H2565 H 0.67667 0.66303 0.51095 0.0
H2566 H 0.65123 0.66413 0.58593 0.0
H2567 H 0.62373 0.66268 0.61638 0.0
H2568 H 0.59344 0.7217 0.59249 0.0
H2569 H 0.62057 0.72333 0.56169 0.0
C2570 C 0.72106 0.76615 0.54548 0.0
C2571 C 0.72238 0.77566 0.52432 0.0
C2572 C 0.70806 0.74682 0.54874 0.0
C2573 C 0.69621 0.73669 0.53091 0.0
C2574 C 0.69673 0.74675 0.51005 0.0
C2575 C 0.70976 0.76594 0.50675 0.0
C2576 C 0.68374 0.7153 0.53381 0.0
C2577 C 0.66725 0.71399 0.55029 0.0
C2578 C 0.68762 0.69645 0.51989 0.0
C2579 C 0.70614 0.69614 0.5035 0.0
C2580 C 0.70185 0.69076 0.48099 0.0
C2581 C 0.71928 0.69069 0.46554 0.0
C2582 C 0.74109 0.69589 0.47242 0.0
C2583 C 0.74554 0.70108 0.49478 0.0
C2584 C 0.72819 0.70113 0.5103 0.0
C2585 C 0.60565 0.63817 0.54022 0.0
C2586 C 0.61511 0.61708 0.54212 0.0
C2587 C 0.61924 0.65726 0.53835 0.0
C2588 C 0.64258 0.65574 0.53879 0.0
C2589 C 0.65206 0.63465 0.54008 0.0
C2590 C 0.63847 0.6155 0.54166 0.0
C2591 C 0.65707 0.67615 0.53803 0.0
C2592 C 0.67401 0.67727 0.52196 0.0
C2593 C 0.65408 0.69455 0.55281 0.0
C2594 C 0.63782 0.69374 0.57139 0.0
C2595 C 0.63861 0.67672 0.58708 0.0
C2596 C 0.6231 0.67587 0.60441 0.0
C2597 C 0.60682 0.69206 0.60633 0.0
C2598 C 0.60605 0.70916 0.59096 0.0
C2599 C 0.6215 0.71006 0.57358 0.0
H2600 H 0.59482 0.69137 0.61976 0.0
H2601 H 0.75455 0.69584 0.46045 0.0
H2602 H 0.73486 0.25772 0.02925 0.0
H2603 H 0.70767 0.28742 0.02866 0.0
H2604 H 0.67145 0.25211 0.97612 0.0
H2605 H 0.69924 0.22304 0.97594 0.0
H2606 H 0.67763 0.29189 0.96457 0.0
H2607 H 0.65093 0.25948 0.03159 0.0
H2608 H 0.65317 0.2446 0.06942 0.0
H2609 H 0.67693 0.30834 0.09451 0.0
H2610 H 0.67513 0.32354 0.05676 0.0
H2611 H 0.58749 0.36468 0.9621 0.0
H2612 H 0.6072 0.33127 0.97233 0.0
H2613 H 0.65625 0.37177 0.008 0.0
H2614 H 0.63679 0.40545 0.99767 0.0
H2615 H 0.6415 0.32902 0.02919 0.0
H2616 H 0.67033 0.35936 0.96021 0.0
H2617 H 0.66608 0.37348 0.92224 0.0
H2618 H 0.63551 0.31117 0.90105 0.0
H2619 H 0.63928 0.29681 0.93902 0.0
C2620 C 0.72086 0.25616 0.01787 0.0
C2621 C 0.71918 0.23823 0.00253 0.0
C2622 C 0.70525 0.27308 0.01761 0.0
C2623 C 0.68738 0.27199 0.00242 0.0
C2624 C 0.68514 0.25342 0.9879 0.0
C2625 C 0.70099 0.23681 0.98781 0.0
C2626 C 0.67233 0.29109 9e-05 0.0
C2627 C 0.66942 0.29964 0.97873 0.0
C2628 C 0.66197 0.30167 0.01855 0.0
C2629 C 0.66308 0.29259 0.04129 0.0
C2630 C 0.6568 0.27028 0.04514 0.0
C2631 C 0.65796 0.2618 0.06658 0.0
C2632 C 0.66524 0.2755 0.08435 0.0
C2633 C 0.67132 0.29774 0.08073 0.0
C2634 C 0.67021 0.30631 0.05931 0.0
C2635 C 0.60225 0.36652 0.97244 0.0
C2636 C 0.61073 0.38774 0.97886 0.0
C2637 C 0.61345 0.3474 0.97828 0.0
C2638 C 0.63317 0.34916 0.99081 0.0
C2639 C 0.64099 0.37016 0.99838 0.0
C2640 C 0.62994 0.38935 0.99232 0.0
C2641 C 0.64687 0.32936 0.99382 0.0
C2642 C 0.6496 0.3209 0.01518 0.0
C2643 C 0.65686 0.3186 0.97538 0.0
C2644 C 0.65486 0.32711 0.95249 0.0
C2645 C 0.66254 0.34875 0.94749 0.0
C2646 C 0.66024 0.35678 0.92597 0.0
C2647 C 0.65047 0.34325 0.90926 0.0
C2648 C 0.64304 0.32164 0.91402 0.0
C2649 C 0.64526 0.31354 0.93553 0.0
H2650 H 0.64871 0.3495 0.8926 0.0
H2651 H 0.66613 0.2689 0.10094 0.0
H2652 H 0.29978 0.25638 0.99263 0.0
H2653 H 0.3249 0.22506 0.99293 0.0
H2654 H 0.3559 0.25143 0.05298 0.0
H2655 H 0.33012 0.28287 0.05318 0.0
H2656 H 0.38375 0.23779 0.00796 0.0
H2657 H 0.33397 0.21205 0.06572 0.0
H2658 H 0.2968 0.20487 0.08195 0.0
H2659 H 0.27967 0.16112 0.02678 0.0
H2660 H 0.31662 0.16831 0.01005 0.0
H2661 H 0.44838 0.13979 -0.00018 0.0
H2662 H 0.42824 0.17155 0.01519 0.0
H2663 H 0.36727 0.1454 0.98529 0.0
H2664 H 0.38708 0.11313 0.97096 0.0
H2665 H 0.35781 0.16065 0.02372 0.0
H2666 H 0.40112 0.18946 0.96263 0.0
H2667 H 0.43543 0.19765 0.94141 0.0
H2668 H 0.4619 0.23624 0.99677 0.0
H2669 H 0.42783 0.22805 0.01842 0.0
C2670 C 0.31187 0.25553 0.00598 0.0
C2671 C 0.3131 0.27208 0.02285 0.0
C2672 C 0.32613 0.2376 0.00614 0.0
C2673 C 0.34213 0.23603 0.02296 0.0
C2674 C 0.34353 0.25246 0.03991 0.0
C2675 C 0.32884 0.27028 0.04004 0.0
C2676 C 0.35761 0.21733 0.02191 0.0
C2677 C 0.37848 0.22093 0.01201 0.0
C2678 C 0.35017 0.19541 0.02643 0.0
C2679 C 0.32802 0.19085 0.03657 0.0
C2680 C 0.32221 0.20105 0.05696 0.0
C2681 C 0.30119 0.19694 0.06627 0.0
C2682 C 0.28587 0.18258 0.05538 0.0
C2683 C 0.29155 0.17225 0.03519 0.0
C2684 C 0.31255 0.1763 0.02581 0.0
C2685 C 0.43067 0.14087 0.99655 0.0
C2686 C 0.4193 0.12407 0.98409 0.0
C2687 C 0.41918 0.15905 0.0053 0.0
C2688 C 0.39626 0.16109 0.00117 0.0
C2689 C 0.38492 0.14421 0.98882 0.0
C2690 C 0.39627 0.1258 0.98053 0.0
C2691 C 0.38397 0.1809 0.00924 0.0
C2692 C 0.36357 0.17749 0.02028 0.0
C2693 C 0.39159 0.20299 0.0052 0.0
C2694 C 0.41208 0.2079 0.99223 0.0
C2695 C 0.41434 0.19954 0.97033 0.0
C2696 C 0.43372 0.20421 0.95822 0.0
C2697 C 0.45087 0.21739 0.96777 0.0
C2698 C 0.44863 0.22599 0.98942 0.0
C2699 C 0.42929 0.22134 0.00162 0.0
H2700 H 0.46586 0.22099 0.95836 0.0
H2701 H 0.2696 0.17944 0.06261 0.0
H2702 H 0.82795 0.22015 0.93665 0.0
H2703 H 0.85738 0.24936 0.93686 0.0
H2704 H 0.81223 0.29517 0.96826 0.0
H2705 H 0.78315 0.26595 0.96857 0.0
H2706 H 0.84694 0.31541 0.93837 0.0
H2707 H 0.83606 0.26638 0.0035 0.0
H2708 H 0.83066 0.22776 0.01613 0.0
H2709 H 0.89264 0.20975 0.98575 0.0
H2710 H 0.89822 0.24826 0.97272 0.0
H2711 H 0.88798 0.38592 0.0221 0.0
H2712 H 0.86875 0.35773 0.99911 0.0
H2713 H 0.92916 0.32034 0.99413 0.0
H2714 H 0.94859 0.34847 0.01773 0.0
H2715 H 0.8945 0.2934 0.00157 0.0
H2716 H 0.91006 0.34998 0.9495 0.0
H2717 H 0.91219 0.38803 0.93483 0.0
H2718 H 0.84089 0.392 0.93786 0.0
H2719 H 0.83829 0.35416 0.95293 0.0
C2720 C 0.82409 0.23679 0.94256 0.0
C2721 C 0.80347 0.241 0.9526 0.0
C2722 C 0.84085 0.25341 0.94269 0.0
C2723 C 0.83693 0.27434 0.95265 0.0
C2724 C 0.81548 0.2792 0.96032 0.0
C2725 C 0.79894 0.26252 0.96059 0.0
C2726 C 0.8557 0.28904 0.96009 0.0
C2727 C 0.85759 0.31068 0.95199 0.0
C2728 C 0.86973 0.28256 0.97759 0.0
C2729 C 0.86754 0.26009 0.98715 0.0
C2730 C 0.84859 0.25419 -0.00033 0.0
C2731 C 0.84545 0.23233 0.0068 0.0
C2732 C 0.86125 0.21631 0.00166 0.0
C2733 C 0.88039 0.22219 0.98966 0.0
C2734 C 0.88358 0.24403 0.98244 0.0
C2735 C 0.89726 0.37172 0.01617 0.0
C2736 C 0.91988 0.36952 0.02169 0.0
C2737 C 0.88626 0.35569 0.00282 0.0
C2738 C 0.89767 0.33722 0.99436 0.0
C2739 C 0.92011 0.33461 0.00026 0.0
C2740 C 0.93115 0.35064 0.01382 0.0
C2741 C 0.88557 0.3203 0.98026 0.0
C2742 C 0.8847 0.29815 0.98732 0.0
C2743 C 0.87256 0.32642 0.96171 0.0
C2744 C 0.874 0.3492 0.95247 0.0
C2745 C 0.89483 0.359 0.94718 0.0
C2746 C 0.89612 0.38054 0.93879 0.0
C2747 C 0.87669 0.39242 0.93549 0.0
C2748 C 0.85592 0.38277 0.94046 0.0
C2749 C 0.85453 0.36126 0.9489 0.0
H2750 H 0.87771 0.40911 0.92909 0.0
H2751 H 0.85869 0.19937 0.00705 0.0
loop_
_geom_bond_atom_site_label_1
_geom_bond_atom_site_label_2
_geom_bond_distance
_geom_bond_site_symmetry_2
_ccdc_geom_bond_type
C0 O2 1.247 . S
C0 O4 1.258 1_455 S
C1 O8 1.247 . S
C1 O9 1.258 1_655 S
O2 C0 1.247 . S
O2 Zn3 2.028 . S
Zn3 O2 2.028 . S
Zn3 O7 2.035 . S
Zn3 O9 2.035 . S
Zn3 O10 2.028 . S
O4 C0 1.258 1_655 S
O4 Zn5 2.035 . S
Zn5 O4 2.035 . S
Zn5 O6 2.028 . S
Zn5 O8 2.028 . S
Zn5 O11 2.035 . S
O6 Zn5 2.028 . S
O6 C12 1.247 . S
O7 Zn3 2.035 . S
O7 C12 1.258 1_455 S
O8 C1 1.247 . S
O8 Zn5 2.028 . S
O9 C1 1.258 1_455 S
O9 Zn3 2.035 . S
O10 Zn3 2.028 . S
O10 C13 1.247 . S
O11 Zn5 2.035 . S
O11 C13 1.258 1_655 S
C12 O6 1.247 . S
C12 O7 1.258 1_655 S
C13 O10 1.247 . S
C13 O11 1.258 1_455 S
C14 O16 1.247 . S
C14 O18 1.258 . S
C15 O22 1.247 . S
C15 O23 1.258 . S
O16 C14 1.247 . S
O16 Zn17 2.028 . S
Zn17 O16 2.028 . S
Zn17 O21 2.035 . S
Zn17 O23 2.035 . S
Zn17 O24 2.028 . S
O18 C14 1.258 . S
O18 Zn19 2.035 . S
Zn19 O18 2.035 . S
Zn19 O20 2.028 . S
Zn19 O22 2.028 . S
Zn19 O25 2.035 . S
O20 Zn19 2.028 . S
O20 C26 1.247 . S
O21 Zn17 2.035 . S
O21 C26 1.258 . S
O22 C15 1.247 . S
O22 Zn19 2.028 . S
O23 C15 1.258 . S
O23 Zn17 2.035 . S
O24 Zn17 2.028 . S
O24 C27 1.247 . S
O25 Zn19 2.035 . S
O25 C27 1.258 . S
C26 O20 1.247 . S
C26 O21 1.258 . S
C27 O24 1.247 . S
C27 O25 1.258 . S
C28 O30 1.247 1_545 S
C28 O32 1.258 . S
C29 O36 1.247 1_565 S
C29 O37 1.258 . S
O30 C28 1.247 1_565 S
O30 Zn31 2.028 . S
Zn31 O30 2.028 . S
Zn31 O35 2.035 . S
Zn31 O37 2.035 . S
Zn31 O38 2.028 . S
O32 C28 1.258 . S
O32 Zn33 2.035 . S
Zn33 O32 2.035 . S
Zn33 O34 2.028 . S
Zn33 O36 2.028 . S
Zn33 O39 2.035 . S
O34 Zn33 2.028 . S
O34 C40 1.247 1_545 S
O35 Zn31 2.035 . S
O35 C40 1.258 . S
O36 C29 1.247 1_545 S
O36 Zn33 2.028 . S
O37 C29 1.258 . S
O37 Zn31 2.035 . S
O38 Zn31 2.028 . S
O38 C41 1.247 1_565 S
O39 Zn33 2.035 . S
O39 C41 1.258 . S
C40 O34 1.247 1_565 S
C40 O35 1.258 . S
C41 O38 1.247 1_545 S
C41 O39 1.258 . S
C42 O44 1.247 . S
C42 O46 1.258 . S
C43 O50 1.247 . S
C43 O51 1.258 . S
O44 C42 1.247 . S
O44 Zn45 2.028 . S
Zn45 O44 2.028 . S
Zn45 O49 2.035 . S
Zn45 O51 2.035 . S
Zn45 O52 2.028 . S
O46 C42 1.258 . S
O46 Zn47 2.035 . S
Zn47 O46 2.035 . S
Zn47 O48 2.028 . S
Zn47 O50 2.028 . S
Zn47 O53 2.035 . S
O48 Zn47 2.028 . S
O48 C54 1.247 . S
O49 Zn45 2.035 . S
O49 C54 1.258 . S
O50 C43 1.247 . S
O50 Zn47 2.028 . S
O51 C43 1.258 . S
O51 Zn45 2.035 . S
O52 Zn45 2.028 . S
O52 C55 1.247 . S
O53 Zn47 2.035 . S
O53 C55 1.258 . S
C54 O48 1.247 . S
C54 O49 1.258 . S
C55 O52 1.247 . S
C55 O53 1.258 . S
C56 O58 1.247 . S
C56 O60 1.258 . S
C57 O64 1.247 . S
C57 O65 1.258 1_554 S
O58 C56 1.247 . S
O58 Zn59 2.028 1_554 S
Zn59 O58 2.028 1_556 S
Zn59 O63 2.035 . S
Zn59 O65 2.035 . S
Zn59 O66 2.028 1_556 S
O60 C56 1.258 . S
O60 Zn61 2.035 . S
Zn61 O60 2.035 . S
Zn61 O62 2.028 . S
Zn61 O64 2.028 . S
Zn61 O67 2.035 . S
O62 Zn61 2.028 . S
O62 C68 1.247 . S
O63 Zn59 2.035 . S
O63 C68 1.258 1_556 S
O64 C57 1.247 . S
O64 Zn61 2.028 . S
O65 C57 1.258 1_556 S
O65 Zn59 2.035 . S
O66 Zn59 2.028 1_554 S
O66 C69 1.247 . S
O67 Zn61 2.035 . S
O67 C69 1.258 . S
C68 O62 1.247 . S
C68 O63 1.258 1_554 S
C69 O66 1.247 . S
C69 O67 1.258 . S
C70 O72 1.247 . S
C70 O74 1.258 . S
C71 O78 1.247 . S
C71 O79 1.258 . S
O72 C70 1.247 . S
O72 Zn73 2.028 . S
Zn73 O72 2.028 . S
Zn73 O77 2.035 . S
Zn73 O79 2.035 . S
Zn73 O80 2.028 . S
O74 C70 1.258 . S
O74 Zn75 2.035 . S
Zn75 O74 2.035 . S
Zn75 O76 2.028 . S
Zn75 O78 2.028 . S
Zn75 O81 2.035 . S
O76 Zn75 2.028 . S
O76 C82 1.247 . S
O77 Zn73 2.035 . S
O77 C82 1.258 . S
O78 C71 1.247 . S
O78 Zn75 2.028 . S
O79 C71 1.258 . S
O79 Zn73 2.035 . S
O80 Zn73 2.028 . S
O80 C83 1.247 . S
O81 Zn75 2.035 . S
O81 C83 1.258 . S
C82 O76 1.247 . S
C82 O77 1.258 . S
C83 O80 1.247 . S
C83 O81 1.258 . S
C84 O86 1.247 . S
C84 O88 1.258 . S
C85 O92 1.247 . S
C85 O93 1.258 . S
O86 C84 1.247 . S
O86 Zn87 2.028 . S
Zn87 O86 2.028 . S
Zn87 O91 2.035 . S
Zn87 O93 2.035 . S
Zn87 O94 2.028 . S
O88 C84 1.258 . S
O88 Zn89 2.035 . S
Zn89 O88 2.035 . S
Zn89 O90 2.028 . S
Zn89 O92 2.028 . S
Zn89 O95 2.035 . S
O90 Zn89 2.028 . S
O90 C96 1.247 . S
O91 Zn87 2.035 . S
O91 C96 1.258 . S
O92 C85 1.247 . S
O92 Zn89 2.028 . S
O93 C85 1.258 . S
O93 Zn87 2.035 . S
O94 Zn87 2.028 . S
O94 C97 1.247 . S
O95 Zn89 2.035 . S
O95 C97 1.258 . S
C96 O90 1.247 . S
C96 O91 1.258 . S
C97 O94 1.247 . S
C97 O95 1.258 . S
C98 O100 1.247 . S
C98 O102 1.258 . S
C99 O106 1.247 . S
C99 O107 1.258 . S
O100 C98 1.247 . S
O100 Zn101 2.028 . S
Zn101 O100 2.028 . S
Zn101 O105 2.035 . S
Zn101 O107 2.035 . S
Zn101 O108 2.028 . S
O102 C98 1.258 . S
O102 Zn103 2.035 . S
Zn103 O102 2.035 . S
Zn103 O104 2.028 . S
Zn103 O106 2.028 . S
Zn103 O109 2.035 . S
O104 Zn103 2.028 . S
O104 C110 1.247 . S
O105 Zn101 2.035 . S
O105 C110 1.258 . S
O106 C99 1.247 . S
O106 Zn103 2.028 . S
O107 C99 1.258 . S
O107 Zn101 2.035 . S
O108 Zn101 2.028 . S
O108 C111 1.247 . S
O109 Zn103 2.035 . S
O109 C111 1.258 . S
C110 O104 1.247 . S
C110 O105 1.258 . S
C111 O108 1.247 . S
C111 O109 1.258 . S
C112 O114 1.247 . S
C112 O116 1.258 . S
C113 O120 1.247 . S
C113 O121 1.258 . S
O114 C112 1.247 . S
O114 Zn115 2.028 . S
Zn115 O114 2.028 . S
Zn115 O119 2.035 . S
Zn115 O121 2.035 . S
Zn115 O122 2.028 . S
O116 C112 1.258 . S
O116 Zn117 2.035 . S
Zn117 O116 2.035 . S
Zn117 O118 2.028 . S
Zn117 O120 2.028 . S
Zn117 O123 2.035 . S
O118 Zn117 2.028 . S
O118 C124 1.247 . S
O119 Zn115 2.035 . S
O119 C124 1.258 . S
O120 C113 1.247 . S
O120 Zn117 2.028 . S
O121 C113 1.258 . S
O121 Zn115 2.035 . S
O122 Zn115 2.028 . S
O122 C125 1.247 . S
O123 Zn117 2.035 . S
O123 C125 1.258 . S
C124 O118 1.247 . S
C124 O119 1.258 . S
C125 O122 1.247 . S
C125 O123 1.258 . S
C126 O128 1.247 . S
C126 O130 1.258 . S
C127 O134 1.247 . S
C127 O135 1.258 . S
O128 C126 1.247 . S
O128 Zn129 2.028 . S
Zn129 O128 2.028 . S
Zn129 O133 2.035 . S
Zn129 O135 2.035 . S
Zn129 O136 2.028 . S
O130 C126 1.258 . S
O130 Zn131 2.035 . S
Zn131 O130 2.035 . S
Zn131 O132 2.028 . S
Zn131 O134 2.028 . S
Zn131 O137 2.035 . S
O132 Zn131 2.028 . S
O132 C138 1.247 . S
O133 Zn129 2.035 . S
O133 C138 1.258 . S
O134 C127 1.247 . S
O134 Zn131 2.028 . S
O135 C127 1.258 . S
O135 Zn129 2.035 . S
O136 Zn129 2.028 . S
O136 C139 1.247 . S
O137 Zn131 2.035 . S
O137 C139 1.258 . S
C138 O132 1.247 . S
C138 O133 1.258 . S
C139 O136 1.247 . S
C139 O137 1.258 . S
C140 O142 1.247 1_545 S
C140 O144 1.258 . S
C141 O148 1.247 . S
C141 O149 1.258 . S
O142 C140 1.247 1_565 S
O142 Zn143 2.028 . S
Zn143 O142 2.028 . S
Zn143 O147 2.035 1_565 S
Zn143 O149 2.035 1_565 S
Zn143 O150 2.028 . S
O144 C140 1.258 . S
O144 Zn145 2.035 . S
Zn145 O144 2.035 . S
Zn145 O146 2.028 . S
Zn145 O148 2.028 . S
Zn145 O151 2.035 . S
O146 Zn145 2.028 . S
O146 C152 1.247 . S
O147 Zn143 2.035 1_545 S
O147 C152 1.258 . S
O148 C141 1.247 . S
O148 Zn145 2.028 . S
O149 C141 1.258 . S
O149 Zn143 2.035 1_545 S
O150 Zn143 2.028 . S
O150 C153 1.247 1_565 S
O151 Zn145 2.035 . S
O151 C153 1.258 . S
C152 O146 1.247 . S
C152 O147 1.258 . S
C153 O150 1.247 1_545 S
C153 O151 1.258 . S
C154 O156 1.247 1_556 S
C154 O158 1.258 . S
C155 O162 1.247 1_554 S
C155 O163 1.258 . S
O156 C154 1.247 1_554 S
O156 Zn157 2.028 . S
Zn157 O156 2.028 . S
Zn157 O161 2.035 . S
Zn157 O163 2.035 . S
Zn157 O164 2.028 . S
O158 C154 1.258 . S
O158 Zn159 2.035 . S
Zn159 O158 2.035 . S
Zn159 O160 2.028 . S
Zn159 O162 2.028 . S
Zn159 O165 2.035 . S
O160 Zn159 2.028 . S
O160 C166 1.247 1_556 S
O161 Zn157 2.035 . S
O161 C166 1.258 . S
O162 C155 1.247 1_556 S
O162 Zn159 2.028 . S
O163 C155 1.258 . S
O163 Zn157 2.035 . S
O164 Zn157 2.028 . S
O164 C167 1.247 1_554 S
O165 Zn159 2.035 . S
O165 C167 1.258 . S
C166 O160 1.247 1_554 S
C166 O161 1.258 . S
C167 O164 1.247 1_556 S
C167 O165 1.258 . S
O168 Zn169 1.953 . S
O168 C184 1.225 . S
Zn169 O168 1.953 . S
Zn169 O170 1.949 . S
Zn169 O176 1.919 . S
Zn169 O181 1.924 . S
O170 Zn169 1.949 . S
O170 Zn171 1.923 . S
O170 Zn172 1.950 . S
O170 Zn173 1.945 . S
Zn171 O170 1.923 . S
Zn171 O174 1.933 . S
Zn171 O177 1.941 . S
Zn171 O178 1.965 . S
Zn172 O170 1.950 . S
Zn172 O179 1.938 . S
Zn172 O180 1.906 . S
Zn172 O190 1.953 . S
Zn173 O170 1.945 . S
Zn173 O175 1.932 . S
Zn173 O182 1.977 . S
Zn173 O183 1.897 1_545 S
O174 Zn171 1.933 . S
O174 C185 1.226 . S
O175 Zn173 1.932 . S
O175 C185 1.307 . S
O176 Zn169 1.919 . S
O176 C187 1.253 . S
O177 Zn171 1.941 . S
O177 C187 1.283 . S
O178 Zn171 1.965 . S
O178 C186 1.303 . S
O179 Zn172 1.938 . S
O179 C186 1.247 . S
O180 Zn172 1.906 . S
O180 C188 1.304 1_554 S
O181 Zn169 1.924 . S
O181 C189 1.311 1_545 S
O182 Zn173 1.977 . S
O182 C188 1.272 1_554 S
O183 Zn173 1.897 1_565 S
O183 C189 1.235 . S
C184 O168 1.225 . S
C184 O190 1.298 . S
C185 O174 1.226 . S
C185 O175 1.307 . S
C186 O178 1.303 . S
C186 O179 1.247 . S
C187 O176 1.253 . S
C187 O177 1.283 . S
C188 O180 1.304 1_556 S
C188 O182 1.272 1_556 S
C189 O181 1.311 1_565 S
C189 O183 1.235 . S
O190 Zn172 1.953 . S
O190 C184 1.298 . S
O191 Zn192 1.953 . S
O191 C207 1.225 . S
Zn192 O191 1.953 . S
Zn192 O193 1.949 . S
Zn192 O199 1.919 . S
Zn192 O204 1.924 . S
O193 Zn192 1.949 . S
O193 Zn194 1.923 . S
O193 Zn195 1.950 . S
O193 Zn196 1.945 . S
Zn194 O193 1.923 . S
Zn194 O197 1.933 1_655 S
Zn194 O200 1.941 . S
Zn194 O201 1.965 . S
Zn195 O193 1.950 . S
Zn195 O202 1.938 . S
Zn195 O203 1.906 . S
Zn195 O213 1.953 . S
Zn196 O193 1.945 . S
Zn196 O198 1.932 1_655 S
Zn196 O205 1.977 . S
Zn196 O206 1.910 . S
O197 Zn194 1.933 1_455 S
O197 C208 1.226 . S
O198 Zn196 1.932 1_455 S
O198 C208 1.307 . S
O199 Zn192 1.919 . S
O199 C210 1.253 . S
O200 Zn194 1.941 . S
O200 C210 1.283 . S
O201 Zn194 1.965 . S
O201 C209 1.303 . S
O202 Zn195 1.938 . S
O202 C209 1.247 . S
O203 Zn195 1.906 . S
O203 C211 1.304 1_554 S
O204 Zn192 1.924 . S
O204 C212 1.311 . S
O205 Zn196 1.977 . S
O205 C211 1.272 1_554 S
O206 Zn196 1.910 . S
O206 C212 1.231 . S
C207 O191 1.225 . S
C207 O213 1.298 . S
C208 O197 1.226 . S
C208 O198 1.307 . S
C209 O201 1.303 . S
C209 O202 1.247 . S
C210 O199 1.253 . S
C210 O200 1.283 . S
C211 O203 1.304 1_556 S
C211 O205 1.272 1_556 S
C212 O204 1.311 . S
C212 O206 1.231 . S
O213 Zn195 1.953 . S
O213 C207 1.298 . S
O214 Zn215 1.953 . S
O214 C230 1.225 . S
Zn215 O214 1.953 . S
Zn215 O216 1.949 . S
Zn215 O222 1.919 . S
Zn215 O227 1.924 . S
O216 Zn215 1.949 . S
O216 Zn217 1.923 . S
O216 Zn218 1.950 . S
O216 Zn219 1.945 . S
Zn217 O216 1.923 . S
Zn217 O220 1.933 . S
Zn217 O223 1.941 . S
Zn217 O224 1.965 . S
Zn218 O216 1.950 . S
Zn218 O225 1.938 . S
Zn218 O226 1.906 . S
Zn218 O236 1.953 . S
Zn219 O216 1.945 . S
Zn219 O221 1.932 . S
Zn219 O228 1.977 . S
Zn219 O229 1.910 . S
O220 Zn217 1.933 . S
O220 C231 1.226 1_565 S
O221 Zn219 1.932 . S
O221 C231 1.307 1_565 S
O222 Zn215 1.919 . S
O222 C233 1.253 . S
O223 Zn217 1.941 . S
O223 C233 1.283 . S
O224 Zn217 1.965 . S
O224 C232 1.303 . S
O225 Zn218 1.938 . S
O225 C232 1.247 . S
O226 Zn218 1.906 . S
O226 C234 1.304 . S
O227 Zn215 1.924 . S
O227 C235 1.311 . S
O228 Zn219 1.977 . S
O228 C234 1.272 . S
O229 Zn219 1.910 . S
O229 C235 1.231 . S
C230 O214 1.225 . S
C230 O236 1.298 . S
C231 O220 1.226 1_545 S
C231 O221 1.307 1_545 S
C232 O224 1.303 . S
C232 O225 1.247 . S
C233 O222 1.253 . S
C233 O223 1.283 . S
C234 O226 1.304 . S
C234 O228 1.272 . S
C235 O227 1.311 . S
C235 O229 1.231 . S
O236 Zn218 1.953 . S
O236 C230 1.298 . S
O237 Zn238 1.953 . S
O237 C253 1.225 . S
Zn238 O237 1.953 . S
Zn238 O239 1.949 . S
Zn238 O245 1.919 . S
Zn238 O250 1.924 1_655 S
O239 Zn238 1.949 . S
O239 Zn240 1.923 . S
O239 Zn241 1.950 . S
O239 Zn242 1.945 . S
Zn240 O239 1.923 . S
Zn240 O243 1.933 . S
Zn240 O246 1.941 . S
Zn240 O247 1.965 . S
Zn241 O239 1.950 . S
Zn241 O248 1.938 . S
Zn241 O249 1.906 . S
Zn241 O259 1.953 . S
Zn242 O239 1.945 . S
Zn242 O244 1.932 . S
Zn242 O251 1.977 . S
Zn242 O252 1.910 1_655 S
O243 Zn240 1.933 . S
O243 C254 1.226 . S
O244 Zn242 1.932 . S
O244 C254 1.307 . S
O245 Zn238 1.919 . S
O245 C256 1.253 . S
O246 Zn240 1.941 . S
O246 C256 1.283 . S
O247 Zn240 1.965 . S
O247 C255 1.303 . S
O248 Zn241 1.938 . S
O248 C255 1.247 . S
O249 Zn241 1.906 . S
O249 C257 1.304 . S
O250 Zn238 1.924 1_455 S
O250 C258 1.311 . S
O251 Zn242 1.977 . S
O251 C257 1.272 . S
O252 Zn242 1.910 1_455 S
O252 C258 1.231 . S
C253 O237 1.225 . S
C253 O259 1.298 . S
C254 O243 1.226 . S
C254 O244 1.307 . S
C255 O247 1.303 . S
C255 O248 1.247 . S
C256 O245 1.253 . S
C256 O246 1.283 . S
C257 O249 1.304 . S
C257 O251 1.272 . S
C258 O250 1.311 . S
C258 O252 1.231 . S
O259 Zn241 1.953 . S
O259 C253 1.298 . S
O260 Zn261 1.953 . S
O260 C276 1.225 . S
Zn261 O260 1.953 . S
Zn261 O262 1.949 . S
Zn261 O268 1.919 . S
Zn261 O273 1.924 . S
O262 Zn261 1.949 . S
O262 Zn263 1.923 . S
O262 Zn264 1.950 . S
O262 Zn265 1.945 . S
Zn263 O262 1.923 . S
Zn263 O266 1.933 . S
Zn263 O269 1.941 . S
Zn263 O270 1.965 . S
Zn264 O262 1.950 . S
Zn264 O271 1.938 . S
Zn264 O272 1.906 . S
Zn264 O282 1.953 . S
Zn265 O262 1.945 . S
Zn265 O267 1.932 . S
Zn265 O274 1.977 . S
Zn265 O275 1.910 . S
O266 Zn263 1.933 . S
O266 C277 1.226 . S
O267 Zn265 1.932 . S
O267 C277 1.307 . S
O268 Zn261 1.919 . S
O268 C279 1.253 . S
O269 Zn263 1.941 . S
O269 C279 1.283 . S
O270 Zn263 1.965 . S
O270 C278 1.303 . S
O271 Zn264 1.938 . S
O271 C278 1.247 . S
O272 Zn264 1.906 . S
O272 C280 1.304 . S
O273 Zn261 1.924 . S
O273 C281 1.310 1_565 S
O274 Zn265 1.977 . S
O274 C280 1.272 . S
O275 Zn265 1.910 . S
O275 C281 1.230 1_565 S
C276 O260 1.225 . S
C276 O282 1.298 . S
C277 O266 1.226 . S
C277 O267 1.307 . S
C278 O270 1.303 . S
C278 O271 1.247 . S
C279 O268 1.253 . S
C279 O269 1.283 . S
C280 O272 1.304 . S
C280 O274 1.272 . S
C281 O273 1.310 1_545 S
C281 O275 1.230 1_545 S
O282 Zn264 1.953 . S
O282 C276 1.298 . S
O283 Zn284 1.953 . S
O283 C299 1.225 . S
Zn284 O283 1.953 . S
Zn284 O285 1.949 . S
Zn284 O291 1.919 . S
Zn284 O296 1.924 . S
O285 Zn284 1.949 . S
O285 Zn286 1.923 . S
O285 Zn287 1.950 . S
O285 Zn288 1.945 . S
Zn286 O285 1.923 . S
Zn286 O289 1.933 . S
Zn286 O292 1.941 . S
Zn286 O293 1.965 . S
Zn287 O285 1.950 . S
Zn287 O294 1.938 . S
Zn287 O295 1.906 . S
Zn287 O305 1.953 . S
Zn288 O285 1.945 . S
Zn288 O290 1.932 . S
Zn288 O297 1.977 . S
Zn288 O298 1.910 . S
O289 Zn286 1.933 . S
O289 C300 1.226 . S
O290 Zn288 1.932 . S
O290 C300 1.307 . S
O291 Zn284 1.919 . S
O291 C302 1.253 . S
O292 Zn286 1.941 . S
O292 C302 1.283 . S
O293 Zn286 1.965 . S
O293 C301 1.303 . S
O294 Zn287 1.938 . S
O294 C301 1.247 . S
O295 Zn287 1.906 . S
O295 C303 1.304 . S
O296 Zn284 1.924 . S
O296 C304 1.311 . S
O297 Zn288 1.977 . S
O297 C303 1.272 . S
O298 Zn288 1.910 . S
O298 C304 1.231 . S
C299 O283 1.225 . S
C299 O305 1.298 . S
C300 O289 1.226 . S
C300 O290 1.307 . S
C301 O293 1.303 . S
C301 O294 1.247 . S
C302 O291 1.253 . S
C302 O292 1.283 . S
C303 O295 1.304 . S
C303 O297 1.272 . S
C304 O296 1.311 . S
C304 O298 1.231 . S
O305 Zn287 1.953 . S
O305 C299 1.298 . S
O306 Zn307 1.953 . S
O306 C322 1.225 . S
Zn307 O306 1.953 . S
Zn307 O308 1.949 . S
Zn307 O314 1.919 . S
Zn307 O319 1.924 . S
O308 Zn307 1.949 . S
O308 Zn309 1.923 . S
O308 Zn310 1.950 . S
O308 Zn311 1.945 . S
Zn309 O308 1.923 . S
Zn309 O312 1.933 . S
Zn309 O315 1.941 . S
Zn309 O316 1.965 . S
Zn310 O308 1.950 . S
Zn310 O317 1.938 . S
Zn310 O318 1.906 . S
Zn310 O328 1.953 . S
Zn311 O308 1.945 . S
Zn311 O313 1.932 . S
Zn311 O320 1.977 . S
Zn311 O321 1.910 . S
O312 Zn309 1.933 . S
O312 C323 1.226 . S
O313 Zn311 1.932 . S
O313 C323 1.307 . S
O314 Zn307 1.919 . S
O314 C325 1.253 . S
O315 Zn309 1.941 . S
O315 C325 1.283 . S
O316 Zn309 1.965 . S
O316 C324 1.303 . S
O317 Zn310 1.938 . S
O317 C324 1.247 . S
O318 Zn310 1.906 . S
O318 C326 1.304 . S
O319 Zn307 1.924 . S
O319 C327 1.309 1_556 S
O320 Zn311 1.977 . S
O320 C326 1.272 . S
O321 Zn311 1.910 . S
O321 C327 1.230 1_556 S
C322 O306 1.225 . S
C322 O328 1.298 . S
C323 O312 1.226 . S
C323 O313 1.307 . S
C324 O316 1.303 . S
C324 O317 1.247 . S
C325 O314 1.253 . S
C325 O315 1.283 . S
C326 O318 1.304 . S
C326 O320 1.272 . S
C327 O319 1.309 1_554 S
C327 O321 1.230 1_554 S
O328 Zn310 1.953 . S
O328 C322 1.298 . S
O329 Zn330 1.953 . S
O329 C345 1.225 . S
Zn330 O329 1.953 . S
Zn330 O331 1.949 . S
Zn330 O337 1.919 . S
Zn330 O342 1.924 . S
O331 Zn330 1.949 . S
O331 Zn332 1.923 . S
O331 Zn333 1.950 . S
O331 Zn334 1.945 . S
Zn332 O331 1.923 . S
Zn332 O335 1.933 . S
Zn332 O338 1.941 . S
Zn332 O339 1.965 . S
Zn333 O331 1.950 . S
Zn333 O340 1.938 . S
Zn333 O341 1.906 . S
Zn333 O351 1.953 . S
Zn334 O331 1.945 . S
Zn334 O336 1.932 . S
Zn334 O343 1.977 . S
Zn334 O344 1.910 . S
O335 Zn332 1.933 . S
O335 C346 1.226 1_556 S
O336 Zn334 1.932 . S
O336 C346 1.307 1_556 S
O337 Zn330 1.919 . S
O337 C348 1.253 . S
O338 Zn332 1.941 . S
O338 C348 1.283 . S
O339 Zn332 1.965 . S
O339 C347 1.303 . S
O340 Zn333 1.938 . S
O340 C347 1.247 . S
O341 Zn333 1.906 . S
O341 C349 1.304 1_545 S
O342 Zn330 1.924 . S
O342 C350 1.311 . S
O343 Zn334 1.977 . S
O343 C349 1.272 1_545 S
O344 Zn334 1.910 . S
O344 C350 1.231 . S
C345 O329 1.225 . S
C345 O351 1.298 . S
C346 O335 1.226 1_554 S
C346 O336 1.307 1_554 S
C347 O339 1.303 . S
C347 O340 1.247 . S
C348 O337 1.253 . S
C348 O338 1.283 . S
C349 O341 1.304 1_565 S
C349 O343 1.272 1_565 S
C350 O342 1.311 . S
C350 O344 1.231 . S
O351 Zn333 1.953 . S
O351 C345 1.298 . S
H352 C370 0.951 . S
H353 C372 0.979 . S
H354 C374 0.950 . S
H355 C375 0.950 . S
H356 C377 0.950 . S
H357 C380 0.950 . S
H358 C381 0.950 . S
H359 C383 0.950 . S
H360 C384 0.950 . S
H361 C385 0.951 . S
H362 C387 0.951 . S
H363 C389 0.950 . S
H364 C390 0.950 . S
H365 C392 0.950 1_655 S
H366 C395 0.950 . S
H367 C396 0.950 . S
H368 C398 0.950 . S
H369 C399 0.950 . S
C370 H352 0.951 . S
C370 C371 1.366 1_655 S
C370 C372 1.395 . S
C371 C370 1.366 1_455 S
C371 C375 1.385 . S
C372 H353 0.979 . S
C372 C370 1.395 . S
C372 C373 1.332 1_655 S
C373 C372 1.332 1_455 S
C373 C374 1.414 . S
C373 C376 1.499 . S
C374 H354 0.950 . S
C374 C373 1.414 . S
C374 C375 1.374 . S
C375 H355 0.950 . S
C375 C371 1.385 . S
C375 C374 1.374 . S
C376 C373 1.499 . S
C376 C377 1.373 . S
C376 C378 1.389 . S
C377 H356 0.950 . S
C377 C376 1.373 . S
C377 C393 1.377 . S
C378 C376 1.389 . S
C378 C379 1.524 1_455 S
C378 C392 1.377 . S
C379 C378 1.524 1_655 S
C379 C380 1.397 . S
C379 C384 1.363 . S
C380 H357 0.950 . S
C380 C379 1.397 . S
C380 C381 1.334 . S
C381 H358 0.950 . S
C381 C380 1.334 . S
C381 C382 1.287 . S
C382 C381 1.287 . S
C382 C383 1.524 . S
C382 H401 0.913 . S
C383 H359 0.950 . S
C383 C382 1.524 . S
C383 C384 1.415 . S
C384 H360 0.950 . S
C384 C379 1.363 . S
C384 C383 1.415 . S
C385 H361 0.951 . S
C385 C386 1.366 . S
C385 C387 1.388 . S
C386 C385 1.366 . S
C386 C390 1.385 . S
C387 H362 0.951 . S
C387 C385 1.388 . S
C387 C388 1.366 . S
C388 C387 1.366 . S
C388 C389 1.414 . S
C388 C391 1.499 . S
C389 H363 0.950 . S
C389 C388 1.414 . S
C389 C390 1.374 . S
C390 H364 0.950 . S
C390 C386 1.385 . S
C390 C389 1.374 . S
C391 C388 1.499 . S
C391 C392 1.373 . S
C391 C393 1.389 . S
C392 H365 0.950 1_455 S
C392 C378 1.377 . S
C392 C391 1.373 . S
C393 C377 1.377 . S
C393 C391 1.389 . S
C393 C394 1.524 . S
C394 C393 1.524 . S
C394 C395 1.397 . S
C394 C399 1.363 . S
C395 H366 0.950 . S
C395 C394 1.397 . S
C395 C396 1.334 . S
C396 H367 0.950 . S
C396 C395 1.334 . S
C396 C397 1.287 . S
C397 C396 1.287 . S
C397 C398 1.524 . S
C397 H400 0.999 . S
C398 H368 0.950 . S
C398 C397 1.524 . S
C398 C399 1.415 . S
C399 H369 0.950 . S
C399 C394 1.363 . S
C399 C398 1.415 . S
H400 C397 0.999 . S
H401 C382 0.913 . S
H402 C420 0.951 . S
H403 C422 0.951 . S
H404 C424 0.953 . S
H405 C425 0.943 1_455 S
H406 C427 0.950 . S
H407 C430 0.950 . S
H408 C431 0.950 . S
H409 C433 0.950 . S
H410 C434 0.950 . S
H411 C435 0.951 . S
H412 C437 0.951 . S
H413 C439 0.950 . S
H414 C440 0.950 . S
H415 C442 0.950 . S
H416 C445 0.950 . S
H417 C446 0.950 . S
H418 C448 0.950 . S
H419 C449 0.950 . S
C420 H402 0.951 . S
C420 C421 1.366 . S
C420 C422 1.388 . S
C421 C420 1.366 . S
C421 C425 1.385 . S
C422 H403 0.951 . S
C422 C420 1.388 . S
C422 C423 1.366 . S
C423 C422 1.366 . S
C423 C424 1.414 . S
C423 C426 1.499 . S
C424 H404 0.953 . S
C424 C423 1.414 . S
C424 C425 1.374 . S
C425 H405 0.943 1_655 S
C425 C421 1.385 . S
C425 C424 1.374 . S
C426 C423 1.499 . S
C426 C427 1.373 1_655 S
C426 C428 1.389 . S
C427 H406 0.950 . S
C427 C426 1.373 1_455 S
C427 C443 1.377 . S
C428 C426 1.389 . S
C428 C429 1.524 . S
C428 C442 1.377 . S
C429 C428 1.524 . S
C429 C430 1.397 . S
C429 C434 1.363 . S
C430 H407 0.950 . S
C430 C429 1.397 . S
C430 C431 1.334 . S
C431 H408 0.950 . S
C431 C430 1.334 . S
C431 C432 1.287 . S
C432 C431 1.287 . S
C432 C433 1.524 . S
C432 H451 0.913 . S
C433 H409 0.950 . S
C433 C432 1.524 . S
C433 C434 1.415 . S
C434 H410 0.950 . S
C434 C429 1.363 . S
C434 C433 1.415 . S
C435 H411 0.951 . S
C435 C436 1.366 . S
C435 C437 1.388 . S
C436 C435 1.366 . S
C436 C440 1.385 . S
C437 H412 0.951 . S
C437 C435 1.388 . S
C437 C438 1.366 . S
C438 C437 1.366 . S
C438 C439 1.414 . S
C438 C441 1.499 . S
C439 H413 0.950 . S
C439 C438 1.414 . S
C439 C440 1.374 . S
C440 H414 0.950 . S
C440 C436 1.385 . S
C440 C439 1.374 . S
C441 C438 1.499 . S
C441 C442 1.373 . S
C441 C443 1.389 1_655 S
C442 H415 0.950 . S
C442 C428 1.377 . S
C442 C441 1.373 . S
C443 C427 1.377 . S
C443 C441 1.389 1_455 S
C443 C444 1.524 . S
C444 C443 1.524 . S
C444 C445 1.397 . S
C444 C449 1.363 . S
C445 H416 0.950 . S
C445 C444 1.397 . S
C445 C446 1.334 . S
C446 H417 0.950 . S
C446 C445 1.334 . S
C446 C447 1.287 . S
C447 C446 1.287 . S
C447 C448 1.524 . S
C447 H450 0.999 . S
C448 H418 0.950 . S
C448 C447 1.524 . S
C448 C449 1.415 . S
C449 H419 0.950 . S
C449 C444 1.363 . S
C449 C448 1.415 . S
H450 C447 0.999 . S
H451 C432 0.913 . S
H452 C470 0.951 . S
H453 C472 0.951 . S
H454 C474 0.950 . S
H455 C475 0.950 . S
H456 C477 0.950 . S
H457 C480 0.950 . S
H458 C481 0.950 . S
H459 C483 0.950 . S
H460 C484 0.950 . S
H461 C485 0.951 . S
H462 C487 0.951 . S
H463 C489 0.950 . S
H464 C490 0.950 . S
H465 C492 0.950 . S
H466 C495 0.950 . S
H467 C496 0.950 . S
H468 C498 0.950 . S
H469 C499 0.950 . S
C470 H452 0.951 . S
C470 C471 1.366 . S
C470 C472 1.388 . S
C471 C470 1.366 . S
C471 C475 1.385 . S
C472 H453 0.951 . S
C472 C470 1.388 . S
C472 C473 1.366 . S
C473 C472 1.366 . S
C473 C474 1.414 . S
C473 C476 1.499 . S
C474 H454 0.950 . S
C474 C473 1.414 . S
C474 C475 1.374 . S
C475 H455 0.950 . S
C475 C471 1.385 . S
C475 C474 1.374 . S
C476 C473 1.499 . S
C476 C477 1.373 . S
C476 C478 1.389 . S
C477 H456 0.950 . S
C477 C476 1.373 . S
C477 C493 1.377 . S
C478 C476 1.389 . S
C478 C479 1.524 . S
C478 C492 1.377 . S
C479 C478 1.524 . S
C479 C480 1.397 . S
C479 C484 1.363 . S
C480 H457 0.950 . S
C480 C479 1.397 . S
C480 C481 1.334 . S
C481 H458 0.950 . S
C481 C480 1.334 . S
C481 C482 1.287 . S
C482 C481 1.287 . S
C482 C483 1.524 . S
C482 H501 0.913 . S
C483 H459 0.950 . S
C483 C482 1.524 . S
C483 C484 1.415 . S
C484 H460 0.950 . S
C484 C479 1.363 . S
C484 C483 1.415 . S
C485 H461 0.951 . S
C485 C486 1.366 . S
C485 C487 1.388 . S
C486 C485 1.366 . S
C486 C490 1.385 . S
C487 H462 0.951 . S
C487 C485 1.388 . S
C487 C488 1.366 . S
C488 C487 1.366 . S
C488 C489 1.414 . S
C488 C491 1.499 . S
C489 H463 0.950 . S
C489 C488 1.414 . S
C489 C490 1.374 . S
C490 H464 0.950 . S
C490 C486 1.385 . S
C490 C489 1.374 . S
C491 C488 1.499 . S
C491 C492 1.373 . S
C491 C493 1.389 . S
C492 H465 0.950 . S
C492 C478 1.377 . S
C492 C491 1.373 . S
C493 C477 1.377 . S
C493 C491 1.389 . S
C493 C494 1.524 . S
C494 C493 1.524 . S
C494 C495 1.397 1_455 S
C494 C499 1.363 . S
C495 H466 0.950 . S
C495 C494 1.397 1_655 S
C495 C496 1.334 . S
C496 H467 0.950 . S
C496 C495 1.334 . S
C496 C497 1.287 . S
C497 C496 1.287 . S
C497 C498 1.524 . S
C497 H500 0.999 . S
C498 H468 0.950 . S
C498 C497 1.524 . S
C498 C499 1.415 1_655 S
C499 H469 0.950 . S
C499 C494 1.363 . S
C499 C498 1.415 1_455 S
H500 C497 0.999 . S
H501 C482 0.913 . S
H502 C520 0.951 . S
H503 C522 0.951 . S
H504 C524 0.950 . S
H505 C525 0.950 . S
H506 C527 0.950 . S
H507 C530 0.950 1_455 S
H508 C531 0.950 . S
H509 C533 0.950 . S
H510 C534 0.950 . S
H511 C535 0.951 . S
H512 C537 0.951 . S
H513 C539 0.950 . S
H514 C540 0.950 . S
H515 C542 0.950 . S
H516 C545 0.950 . S
H517 C546 0.950 . S
H518 C548 0.950 . S
H519 C549 0.950 . S
C520 H502 0.951 . S
C520 C521 1.366 1_655 S
C520 C522 1.388 . S
C521 C520 1.366 1_455 S
C521 C525 1.385 . S
C522 H503 0.951 . S
C522 C520 1.388 . S
C522 C523 1.366 1_655 S
C523 C522 1.366 1_455 S
C523 C524 1.414 . S
C523 C526 1.499 . S
C524 H504 0.950 . S
C524 C523 1.414 . S
C524 C525 1.374 . S
C525 H505 0.950 . S
C525 C521 1.385 . S
C525 C524 1.374 . S
C526 C523 1.499 . S
C526 C527 1.373 . S
C526 C528 1.389 1_455 S
C527 H506 0.950 . S
C527 C526 1.373 . S
C527 C543 1.377 . S
C528 C526 1.389 1_655 S
C528 C529 1.524 . S
C528 C542 1.377 . S
C529 C528 1.524 . S
C529 C530 1.397 . S
C529 C534 1.363 . S
C530 H507 0.950 1_655 S
C530 C529 1.397 . S
C530 C531 1.334 . S
C531 H508 0.950 . S
C531 C530 1.334 . S
C531 C532 1.287 . S
C532 C531 1.287 . S
C532 C533 1.524 . S
C532 H551 0.913 . S
C533 H509 0.950 . S
C533 C532 1.524 . S
C533 C534 1.415 . S
C534 H510 0.950 . S
C534 C529 1.363 . S
C534 C533 1.415 . S
C535 H511 0.951 . S
C535 C536 1.366 1_455 S
C535 C537 1.388 . S
C536 C535 1.366 1_655 S
C536 C540 1.385 . S
C537 H512 0.951 . S
C537 C535 1.388 . S
C537 C538 1.366 1_455 S
C538 C537 1.366 1_655 S
C538 C539 1.414 . S
C538 C541 1.498 1_655 S
C539 H513 0.950 . S
C539 C538 1.414 . S
C539 C540 1.374 . S
C540 H514 0.950 . S
C540 C536 1.385 . S
C540 C539 1.374 . S
C541 C538 1.498 1_455 S
C541 C542 1.371 1_455 S
C541 C543 1.392 . S
C542 H515 0.950 . S
C542 C528 1.377 . S
C542 C541 1.371 1_655 S
C543 C527 1.377 . S
C543 C541 1.392 . S
C543 C544 1.524 . S
C544 C543 1.524 . S
C544 C545 1.397 . S
C544 C549 1.363 . S
C545 H516 0.950 . S
C545 C544 1.397 . S
C545 C546 1.334 . S
C546 H517 0.950 . S
C546 C545 1.334 . S
C546 C547 1.287 . S
C547 C546 1.287 . S
C547 C548 1.524 . S
C547 H550 0.999 . S
C548 H518 0.950 . S
C548 C547 1.524 . S
C548 C549 1.415 . S
C549 H519 0.950 . S
C549 C544 1.363 . S
C549 C548 1.415 . S
H550 C547 0.999 . S
H551 C532 0.913 . S
H552 C570 0.951 . S
H553 C572 0.951 . S
H554 C574 0.950 . S
H555 C575 0.950 . S
H556 C577 0.950 . S
H557 C580 0.950 . S
H558 C581 0.950 . S
H559 C583 0.950 . S
H560 C584 0.950 . S
H561 C585 0.951 . S
H562 C587 0.951 . S
H563 C589 0.950 . S
H564 C590 0.950 . S
H565 C592 0.950 1_565 S
H566 C595 0.950 . S
H567 C596 0.950 . S
H568 C598 0.950 . S
H569 C599 0.950 . S
C570 H552 0.951 . S
C570 C571 1.366 . S
C570 C572 1.388 . S
C571 C570 1.366 . S
C571 C575 1.385 . S
C572 H553 0.951 . S
C572 C570 1.388 . S
C572 C573 1.366 . S
C573 C572 1.366 . S
C573 C574 1.414 . S
C573 C576 1.499 . S
C574 H554 0.950 . S
C574 C573 1.414 . S
C574 C575 1.374 . S
C575 H555 0.950 . S
C575 C571 1.385 . S
C575 C574 1.374 . S
C576 C573 1.499 . S
C576 C577 1.373 . S
C576 C578 1.395 . S
C577 H556 0.950 . S
C577 C576 1.373 . S
C577 C593 1.377 . S
C578 C576 1.395 . S
C578 C579 1.516 1_545 S
C578 C592 1.378 . S
C579 C578 1.516 1_565 S
C579 C580 1.397 . S
C579 C584 1.363 . S
C580 H557 0.950 . S
C580 C579 1.397 . S
C580 C581 1.334 . S
C581 H558 0.950 . S
C581 C580 1.334 . S
C581 C582 1.287 . S
C582 C581 1.287 . S
C582 C583 1.524 . S
C582 H601 0.913 . S
C583 H559 0.950 . S
C583 C582 1.524 . S
C583 C584 1.415 . S
C584 H560 0.950 . S
C584 C579 1.363 . S
C584 C583 1.415 . S
C585 H561 0.951 . S
C585 C586 1.366 . S
C585 C587 1.388 . S
C586 C585 1.366 . S
C586 C590 1.385 . S
C587 H562 0.951 . S
C587 C585 1.388 . S
C587 C588 1.366 . S
C588 C587 1.366 . S
C588 C589 1.414 . S
C588 C591 1.499 . S
C589 H563 0.950 . S
C589 C588 1.414 . S
C589 C590 1.374 . S
C590 H564 0.950 . S
C590 C586 1.385 . S
C590 C589 1.374 . S
C591 C588 1.499 . S
C591 C592 1.373 . S
C591 C593 1.389 . S
C592 H565 0.950 1_545 S
C592 C578 1.378 . S
C592 C591 1.373 . S
C593 C577 1.377 . S
C593 C591 1.389 . S
C593 C594 1.524 . S
C594 C593 1.524 . S
C594 C595 1.397 . S
C594 C599 1.363 . S
C595 H566 0.950 . S
C595 C594 1.397 . S
C595 C596 1.334 . S
C596 H567 0.950 . S
C596 C595 1.334 . S
C596 C597 1.287 . S
C597 C596 1.287 . S
C597 C598 1.524 . S
C597 H600 0.999 . S
C598 H568 0.950 . S
C598 C597 1.524 . S
C598 C599 1.415 . S
C599 H569 0.950 . S
C599 C594 1.363 . S
C599 C598 1.415 . S
H600 C597 0.999 . S
H601 C582 0.913 . S
H602 C620 0.951 . S
H603 C622 0.951 . S
H604 C624 0.950 . S
H605 C625 0.950 . S
H606 C627 0.950 . S
H607 C630 0.950 . S
H608 C631 0.950 . S
H609 C633 0.950 . S
H610 C634 0.950 . S
H611 C635 0.951 . S
H612 C637 0.951 . S
H613 C639 0.950 . S
H614 C640 0.950 . S
H615 C642 0.950 . S
H616 C645 0.950 . S
H617 C646 0.950 . S
H618 C648 0.950 . S
H619 C649 0.950 . S
C620 H602 0.951 . S
C620 C621 1.366 . S
C620 C622 1.388 . S
C621 C620 1.366 . S
C621 C625 1.385 . S
C622 H603 0.951 . S
C622 C620 1.388 . S
C622 C623 1.366 . S
C623 C622 1.366 . S
C623 C624 1.414 . S
C623 C626 1.499 . S
C624 H604 0.950 . S
C624 C623 1.414 . S
C624 C625 1.374 . S
C625 H605 0.950 . S
C625 C621 1.385 . S
C625 C624 1.374 . S
C626 C623 1.499 . S
C626 C627 1.373 . S
C626 C628 1.389 . S
C627 H606 0.950 . S
C627 C626 1.373 . S
C627 C643 1.377 . S
C628 C626 1.389 . S
C628 C629 1.524 . S
C628 C642 1.377 . S
C629 C628 1.524 . S
C629 C630 1.397 . S
C629 C634 1.363 . S
C630 H607 0.950 . S
C630 C629 1.397 . S
C630 C631 1.334 . S
C631 H608 0.950 . S
C631 C630 1.334 . S
C631 C632 1.287 . S
C632 C631 1.287 . S
C632 C633 1.524 . S
C632 H651 0.913 . S
C633 H609 0.950 . S
C633 C632 1.524 . S
C633 C634 1.415 . S
C634 H610 0.950 . S
C634 C629 1.363 . S
C634 C633 1.415 . S
C635 H611 0.951 . S
C635 C636 1.366 . S
C635 C637 1.388 . S
C636 C635 1.366 . S
C636 C640 1.385 . S
C637 H612 0.951 . S
C637 C635 1.388 . S
C637 C638 1.366 . S
C638 C637 1.366 . S
C638 C639 1.414 . S
C638 C641 1.499 . S
C639 H613 0.950 . S
C639 C638 1.414 . S
C639 C640 1.374 . S
C640 H614 0.950 . S
C640 C636 1.385 . S
C640 C639 1.374 . S
C641 C638 1.499 . S
C641 C642 1.373 . S
C641 C643 1.389 . S
C642 H615 0.950 . S
C642 C628 1.377 . S
C642 C641 1.373 . S
C643 C627 1.377 . S
C643 C641 1.389 . S
C643 C644 1.524 . S
C644 C643 1.524 . S
C644 C645 1.397 . S
C644 C649 1.363 . S
C645 H616 0.950 . S
C645 C644 1.397 . S
C645 C646 1.334 . S
C646 H617 0.950 . S
C646 C645 1.334 . S
C646 C647 1.287 . S
C647 C646 1.287 . S
C647 C648 1.524 . S
C647 H650 0.999 . S
C648 H618 0.950 . S
C648 C647 1.524 . S
C648 C649 1.415 . S
C649 H619 0.950 . S
C649 C644 1.363 . S
C649 C648 1.415 . S
H650 C647 0.999 . S
H651 C632 0.913 . S
H652 C670 0.951 . S
H653 C672 0.951 . S
H654 C674 0.950 . S
H655 C675 0.950 . S
H656 C677 0.950 . S
H657 C680 0.950 . S
H658 C681 0.950 . S
H659 C683 0.950 . S
H660 C684 0.950 . S
H661 C685 0.951 . S
H662 C687 0.951 . S
H663 C689 0.950 . S
H664 C690 0.950 . S
H665 C692 0.950 1_545 S
H666 C695 0.950 . S
H667 C696 0.950 . S
H668 C698 0.950 . S
H669 C699 0.950 . S
C670 H652 0.951 . S
C670 C671 1.366 . S
C670 C672 1.388 . S
C671 C670 1.366 . S
C671 C675 1.385 . S
C672 H653 0.951 . S
C672 C670 1.388 . S
C672 C673 1.366 . S
C673 C672 1.366 . S
C673 C674 1.414 . S
C673 C676 1.499 . S
C674 H654 0.950 . S
C674 C673 1.414 . S
C674 C675 1.374 . S
C675 H655 0.950 . S
C675 C671 1.385 . S
C675 C674 1.374 . S
C676 C673 1.499 . S
C676 C677 1.373 . S
C676 C678 1.389 1_565 S
C677 H656 0.950 . S
C677 C676 1.373 . S
C677 C693 1.377 . S
C678 C676 1.389 1_545 S
C678 C679 1.524 . S
C678 C692 1.377 1_545 S
C679 C678 1.524 . S
C679 C680 1.397 . S
C679 C684 1.363 . S
C680 H657 0.950 . S
C680 C679 1.397 . S
C680 C681 1.334 . S
C681 H658 0.950 . S
C681 C680 1.334 . S
C681 C682 1.287 . S
C682 C681 1.287 . S
C682 C683 1.524 . S
C682 H701 0.913 . S
C683 H659 0.950 . S
C683 C682 1.524 . S
C683 C684 1.415 . S
C684 H660 0.950 . S
C684 C679 1.363 . S
C684 C683 1.415 . S
C685 H661 0.951 . S
C685 C686 1.366 . S
C685 C687 1.388 . S
C686 C685 1.366 . S
C686 C690 1.385 . S
C687 H662 0.951 . S
C687 C685 1.388 . S
C687 C688 1.366 . S
C688 C687 1.366 . S
C688 C689 1.414 . S
C688 C691 1.499 . S
C689 H663 0.950 . S
C689 C688 1.414 . S
C689 C690 1.374 . S
C690 H664 0.950 . S
C690 C686 1.385 . S
C690 C689 1.374 . S
C691 C688 1.499 . S
C691 C692 1.373 . S
C691 C693 1.389 . S
C692 H665 0.950 1_565 S
C692 C678 1.377 1_565 S
C692 C691 1.373 . S
C693 C677 1.377 . S
C693 C691 1.389 . S
C693 C694 1.524 . S
C694 C693 1.524 . S
C694 C695 1.397 . S
C694 C699 1.363 . S
C695 H666 0.950 . S
C695 C694 1.397 . S
C695 C696 1.334 . S
C696 H667 0.950 . S
C696 C695 1.334 . S
C696 C697 1.287 . S
C697 C696 1.287 . S
C697 C698 1.524 . S
C697 H700 0.999 . S
C698 H668 0.950 . S
C698 C697 1.524 . S
C698 C699 1.415 . S
C699 H669 0.950 . S
C699 C694 1.363 . S
C699 C698 1.415 . S
H700 C697 0.999 . S
H701 C682 0.913 . S
H702 C720 0.951 . S
H703 C722 0.951 . S
H704 C724 0.950 . S
H705 C725 0.950 . S
H706 C727 0.950 . S
H707 C730 0.950 . S
H708 C731 0.950 . S
H709 C733 0.950 . S
H710 C734 0.950 . S
H711 C735 0.951 . S
H712 C737 0.951 . S
H713 C739 0.950 . S
H714 C740 0.950 . S
H715 C742 0.950 . S
H716 C745 0.950 . S
H717 C746 0.950 . S
H718 C748 0.950 . S
H719 C749 0.950 . S
C720 H702 0.951 . S
C720 C721 1.366 . S
C720 C722 1.388 . S
C721 C720 1.366 . S
C721 C725 1.385 . S
C722 H703 0.951 . S
C722 C720 1.388 . S
C722 C723 1.366 . S
C723 C722 1.366 . S
C723 C724 1.414 . S
C723 C726 1.499 . S
C724 H704 0.950 . S
C724 C723 1.414 . S
C724 C725 1.374 . S
C725 H705 0.950 . S
C725 C721 1.385 . S
C725 C724 1.374 . S
C726 C723 1.499 . S
C726 C727 1.373 . S
C726 C728 1.389 . S
C727 H706 0.950 . S
C727 C726 1.373 . S
C727 C743 1.377 . S
C728 C726 1.389 . S
C728 C729 1.524 . S
C728 C742 1.377 . S
C729 C728 1.524 . S
C729 C730 1.397 . S
C729 C734 1.363 . S
C730 H707 0.950 . S
C730 C729 1.397 . S
C730 C731 1.334 . S
C731 H708 0.950 . S
C731 C730 1.334 . S
C731 C732 1.287 . S
C732 C731 1.287 . S
C732 C733 1.524 . S
C732 H751 0.913 . S
C733 H709 0.950 . S
C733 C732 1.524 . S
C733 C734 1.415 . S
C734 H710 0.950 . S
C734 C729 1.363 . S
C734 C733 1.415 . S
C735 H711 0.951 . S
C735 C736 1.366 . S
C735 C737 1.388 . S
C736 C735 1.366 . S
C736 C740 1.385 . S
C737 H712 0.951 . S
C737 C735 1.388 . S
C737 C738 1.366 . S
C738 C737 1.366 . S
C738 C739 1.414 . S
C738 C741 1.499 . S
C739 H713 0.950 . S
C739 C738 1.414 . S
C739 C740 1.374 . S
C740 H714 0.950 . S
C740 C736 1.385 . S
C740 C739 1.374 . S
C741 C738 1.499 . S
C741 C742 1.373 . S
C741 C743 1.389 . S
C742 H715 0.950 . S
C742 C728 1.377 . S
C742 C741 1.373 . S
C743 C727 1.377 . S
C743 C741 1.389 . S
C743 C744 1.524 . S
C744 C743 1.524 . S
C744 C745 1.397 . S
C744 C749 1.363 . S
C745 H716 0.950 . S
C745 C744 1.397 . S
C745 C746 1.334 . S
C746 H717 0.950 . S
C746 C745 1.334 . S
C746 C747 1.287 . S
C747 C746 1.287 . S
C747 C748 1.524 . S
C747 H750 0.999 . S
C748 H718 0.950 . S
C748 C747 1.524 . S
C748 C749 1.415 . S
C749 H719 0.950 . S
C749 C744 1.363 . S
C749 C748 1.415 . S
H750 C747 0.999 . S
H751 C732 0.913 . S
H752 C770 0.951 1_556 S
H753 C772 0.951 1_556 S
H754 C774 0.950 . S
H755 C775 0.950 . S
H756 C777 0.950 . S
H757 C780 0.950 . S
H758 C781 0.951 1_554 S
H759 C783 0.950 . S
H760 C784 0.950 . S
H761 C785 0.951 . S
H762 C787 0.951 . S
H763 C789 0.950 1_556 S
H764 C790 0.950 1_556 S
H765 C792 0.950 1_556 S
H766 C795 0.950 . S
H767 C796 0.950 . S
H768 C798 0.950 . S
H769 C799 0.950 . S
C770 H752 0.951 1_554 S
C770 C771 1.366 . S
C770 C772 1.388 . S
C771 C770 1.366 . S
C771 C775 1.385 . S
C772 H753 0.951 1_554 S
C772 C770 1.388 . S
C772 C773 1.366 . S
C773 C772 1.366 . S
C773 C774 1.414 . S
C773 C776 1.499 . S
C774 H754 0.950 . S
C774 C773 1.414 . S
C774 C775 1.374 . S
C775 H755 0.950 . S
C775 C771 1.385 . S
C775 C774 1.374 . S
C776 C773 1.499 . S
C776 C777 1.373 . S
C776 C778 1.389 . S
C777 H756 0.950 . S
C777 C776 1.373 . S
C777 C793 1.377 . S
C778 C776 1.389 . S
C778 C779 1.524 1_554 S
C778 C792 1.377 . S
C779 C778 1.524 1_556 S
C779 C780 1.397 1_556 S
C779 C784 1.363 . S
C780 H757 0.950 . S
C780 C779 1.397 1_554 S
C780 C781 1.334 1_554 S
C781 H758 0.951 1_556 S
C781 C780 1.334 1_556 S
C781 C782 1.287 . S
C782 C781 1.287 . S
C782 C783 1.524 . S
C782 H801 0.913 . S
C783 H759 0.950 . S
C783 C782 1.524 . S
C783 C784 1.415 . S
C784 H760 0.950 . S
C784 C779 1.363 . S
C784 C783 1.415 . S
C785 H761 0.951 . S
C785 C786 1.366 . S
C785 C787 1.388 . S
C786 C785 1.366 . S
C786 C790 1.385 . S
C787 H762 0.951 . S
C787 C785 1.388 . S
C787 C788 1.366 . S
C788 C787 1.366 . S
C788 C789 1.414 . S
C788 C791 1.499 . S
C789 H763 0.950 1_554 S
C789 C788 1.414 . S
C789 C790 1.374 . S
C790 H764 0.950 1_554 S
C790 C786 1.385 . S
C790 C789 1.374 . S
C791 C788 1.499 . S
C791 C792 1.373 . S
C791 C793 1.389 . S
C792 H765 0.950 1_554 S
C792 C778 1.377 . S
C792 C791 1.373 . S
C793 C777 1.377 . S
C793 C791 1.389 . S
C793 C794 1.524 . S
C794 C793 1.524 . S
C794 C795 1.397 . S
C794 C799 1.363 . S
C795 H766 0.950 . S
C795 C794 1.397 . S
C795 C796 1.334 . S
C796 H767 0.950 . S
C796 C795 1.334 . S
C796 C797 1.287 . S
C797 C796 1.287 . S
C797 C798 1.524 . S
C797 H800 0.999 . S
C798 H768 0.950 . S
C798 C797 1.524 . S
C798 C799 1.415 . S
C799 H769 0.950 . S
C799 C794 1.363 . S
C799 C798 1.415 . S
H800 C797 0.999 . S
H801 C782 0.913 . S
H802 C820 0.951 . S
H803 C822 0.951 . S
H804 C824 0.950 . S
H805 C825 0.950 . S
H806 C827 0.950 . S
H807 C830 0.950 . S
H808 C831 0.950 . S
H809 C833 0.950 . S
H810 C834 0.950 . S
H811 C835 0.951 . S
H812 C837 0.951 . S
H813 C839 0.950 . S
H814 C840 0.950 . S
H815 C842 0.950 . S
H816 C845 0.950 . S
H817 C846 0.950 . S
H818 C848 0.950 . S
H819 C849 0.950 . S
C820 H802 0.951 . S
C820 C821 1.366 . S
C820 C822 1.388 . S
C821 C820 1.366 . S
C821 C825 1.385 . S
C822 H803 0.951 . S
C822 C820 1.388 . S
C822 C823 1.366 . S
C823 C822 1.366 . S
C823 C824 1.414 . S
C823 C826 1.499 . S
C824 H804 0.950 . S
C824 C823 1.414 . S
C824 C825 1.374 . S
C825 H805 0.950 . S
C825 C821 1.385 . S
C825 C824 1.374 . S
C826 C823 1.499 . S
C826 C827 1.373 . S
C826 C828 1.389 . S
C827 H806 0.950 . S
C827 C826 1.373 . S
C827 C843 1.377 . S
C828 C826 1.389 . S
C828 C829 1.524 . S
C828 C842 1.377 . S
C829 C828 1.524 . S
C829 C830 1.397 . S
C829 C834 1.363 . S
C830 H807 0.950 . S
C830 C829 1.397 . S
C830 C831 1.334 . S
C831 H808 0.950 . S
C831 C830 1.334 . S
C831 C832 1.287 . S
C832 C831 1.287 . S
C832 C833 1.524 . S
C832 H851 0.913 . S
C833 H809 0.950 . S
C833 C832 1.524 . S
C833 C834 1.415 . S
C834 H810 0.950 . S
C834 C829 1.363 . S
C834 C833 1.415 . S
C835 H811 0.951 . S
C835 C836 1.366 . S
C835 C837 1.388 . S
C836 C835 1.366 . S
C836 C840 1.385 . S
C837 H812 0.951 . S
C837 C835 1.388 . S
C837 C838 1.366 . S
C838 C837 1.366 . S
C838 C839 1.414 . S
C838 C841 1.499 . S
C839 H813 0.950 . S
C839 C838 1.414 . S
C839 C840 1.374 . S
C840 H814 0.950 . S
C840 C836 1.385 . S
C840 C839 1.374 . S
C841 C838 1.499 . S
C841 C842 1.373 . S
C841 C843 1.389 . S
C842 H815 0.950 . S
C842 C828 1.377 . S
C842 C841 1.373 . S
C843 C827 1.377 . S
C843 C841 1.389 . S
C843 C844 1.524 . S
C844 C843 1.524 . S
C844 C845 1.397 . S
C844 C849 1.363 . S
C845 H816 0.950 . S
C845 C844 1.397 . S
C845 C846 1.334 . S
C846 H817 0.950 . S
C846 C845 1.334 . S
C846 C847 1.287 . S
C847 C846 1.287 . S
C847 C848 1.524 . S
C847 H850 0.999 . S
C848 H818 0.950 . S
C848 C847 1.524 . S
C848 C849 1.415 . S
C849 H819 0.950 . S
C849 C844 1.363 . S
C849 C848 1.415 . S
H850 C847 0.999 . S
H851 C832 0.913 . S
H852 C870 0.951 . S
H853 C872 0.951 . S
H854 C874 0.950 . S
H855 C875 0.950 . S
H856 C877 0.950 . S
H857 C880 0.950 . S
H858 C881 0.950 . S
H859 C883 0.950 . S
H860 C884 0.950 . S
H861 C885 0.951 . S
H862 C887 0.951 . S
H863 C889 0.950 . S
H864 C890 0.950 . S
H865 C892 0.950 . S
H866 C895 0.950 . S
H867 C896 0.950 . S
H868 C898 0.950 . S
H869 C899 0.950 . S
C870 H852 0.951 . S
C870 C871 1.366 . S
C870 C872 1.388 . S
C871 C870 1.366 . S
C871 C875 1.385 . S
C872 H853 0.951 . S
C872 C870 1.388 . S
C872 C873 1.366 . S
C873 C872 1.366 . S
C873 C874 1.414 . S
C873 C876 1.499 . S
C874 H854 0.950 . S
C874 C873 1.414 . S
C874 C875 1.374 . S
C875 H855 0.950 . S
C875 C871 1.385 . S
C875 C874 1.374 . S
C876 C873 1.499 . S
C876 C877 1.373 . S
C876 C878 1.389 . S
C877 H856 0.950 . S
C877 C876 1.373 . S
C877 C893 1.377 . S
C878 C876 1.389 . S
C878 C879 1.524 . S
C878 C892 1.377 . S
C879 C878 1.524 . S
C879 C880 1.397 . S
C879 C884 1.363 . S
C880 H857 0.950 . S
C880 C879 1.397 . S
C880 C881 1.334 . S
C881 H858 0.950 . S
C881 C880 1.334 . S
C881 C882 1.287 . S
C882 C881 1.287 . S
C882 C883 1.524 . S
C882 H901 0.913 . S
C883 H859 0.950 . S
C883 C882 1.524 . S
C883 C884 1.415 . S
C884 H860 0.950 . S
C884 C879 1.363 . S
C884 C883 1.415 . S
C885 H861 0.951 . S
C885 C886 1.366 . S
C885 C887 1.388 . S
C886 C885 1.366 . S
C886 C890 1.385 . S
C887 H862 0.951 . S
C887 C885 1.388 . S
C887 C888 1.366 . S
C888 C887 1.366 . S
C888 C889 1.414 . S
C888 C891 1.499 . S
C889 H863 0.950 . S
C889 C888 1.414 . S
C889 C890 1.374 . S
C890 H864 0.950 . S
C890 C886 1.385 . S
C890 C889 1.374 . S
C891 C888 1.499 . S
C891 C892 1.373 . S
C891 C893 1.389 . S
C892 H865 0.950 . S
C892 C878 1.377 . S
C892 C891 1.373 . S
C893 C877 1.377 . S
C893 C891 1.389 . S
C893 C894 1.524 . S
C894 C893 1.524 . S
C894 C895 1.397 . S
C894 C899 1.363 . S
C895 H866 0.950 . S
C895 C894 1.397 . S
C895 C896 1.334 . S
C896 H867 0.950 . S
C896 C895 1.334 . S
C896 C897 1.287 . S
C897 C896 1.287 . S
C897 C898 1.524 . S
C897 H900 0.999 . S
C898 H868 0.950 . S
C898 C897 1.524 . S
C898 C899 1.415 . S
C899 H869 0.950 . S
C899 C894 1.363 . S
C899 C898 1.415 . S
H900 C897 0.999 . S
H901 C882 0.913 . S
H902 C920 0.951 . S
H903 C922 0.951 . S
H904 C924 0.950 . S
H905 C925 0.950 . S
H906 C927 0.950 . S
H907 C930 0.950 . S
H908 C931 0.950 . S
H909 C933 0.950 . S
H910 C934 0.950 . S
H911 C935 0.951 . S
H912 C937 0.951 . S
H913 C939 0.950 . S
H914 C940 0.950 . S
H915 C942 0.950 . S
H916 C945 0.950 . S
H917 C946 0.950 . S
H918 C948 0.950 . S
H919 C949 0.950 . S
C920 H902 0.951 . S
C920 C921 1.366 . S
C920 C922 1.388 . S
C921 C920 1.366 . S
C921 C925 1.385 . S
C922 H903 0.951 . S
C922 C920 1.388 . S
C922 C923 1.366 . S
C923 C922 1.366 . S
C923 C924 1.414 . S
C923 C926 1.499 . S
C924 H904 0.950 . S
C924 C923 1.414 . S
C924 C925 1.374 . S
C925 H905 0.950 . S
C925 C921 1.385 . S
C925 C924 1.374 . S
C926 C923 1.499 . S
C926 C927 1.373 . S
C926 C928 1.389 . S
C927 H906 0.950 . S
C927 C926 1.373 . S
C927 C943 1.377 . S
C928 C926 1.389 . S
C928 C929 1.524 . S
C928 C942 1.377 . S
C929 C928 1.524 . S
C929 C930 1.397 . S
C929 C934 1.363 . S
C930 H907 0.950 . S
C930 C929 1.397 . S
C930 C931 1.334 . S
C931 H908 0.950 . S
C931 C930 1.334 . S
C931 C932 1.287 . S
C932 C931 1.287 . S
C932 C933 1.524 . S
C932 H951 0.913 . S
C933 H909 0.950 . S
C933 C932 1.524 . S
C933 C934 1.415 . S
C934 H910 0.950 . S
C934 C929 1.363 . S
C934 C933 1.415 . S
C935 H911 0.951 . S
C935 C936 1.366 . S
C935 C937 1.388 . S
C936 C935 1.366 . S
C936 C940 1.385 . S
C937 H912 0.951 . S
C937 C935 1.388 . S
C937 C938 1.366 . S
C938 C937 1.366 . S
C938 C939 1.414 . S
C938 C941 1.499 . S
C939 H913 0.950 . S
C939 C938 1.414 . S
C939 C940 1.374 . S
C940 H914 0.950 . S
C940 C936 1.385 . S
C940 C939 1.374 . S
C941 C938 1.499 . S
C941 C942 1.373 . S
C941 C943 1.389 . S
C942 H915 0.950 . S
C942 C928 1.377 . S
C942 C941 1.373 . S
C943 C927 1.377 . S
C943 C941 1.389 . S
C943 C944 1.524 . S
C944 C943 1.524 . S
C944 C945 1.397 . S
C944 C949 1.363 . S
C945 H916 0.950 . S
C945 C944 1.397 . S
C945 C946 1.334 . S
C946 H917 0.950 . S
C946 C945 1.334 . S
C946 C947 1.287 . S
C947 C946 1.287 . S
C947 C948 1.524 . S
C947 H950 0.999 . S
C948 H918 0.950 . S
C948 C947 1.524 . S
C948 C949 1.415 . S
C949 H919 0.950 . S
C949 C944 1.363 . S
C949 C948 1.415 . S
H950 C947 0.999 . S
H951 C932 0.913 . S
H952 C970 0.951 . S
H953 C972 0.951 . S
H954 C974 0.950 . S
H955 C975 0.950 . S
H956 C977 0.950 . S
H957 C980 0.950 . S
H958 C981 0.950 . S
H959 C983 0.950 . S
H960 C984 0.950 . S
H961 C985 0.951 . S
H962 C987 0.951 . S
H963 C989 0.950 . S
H964 C990 0.950 . S
H965 C992 0.950 . S
H966 C995 0.950 . S
H967 C996 0.950 . S
H968 C998 0.950 . S
H969 C999 0.950 . S
C970 H952 0.951 . S
C970 C971 1.366 . S
C970 C972 1.388 . S
C971 C970 1.366 . S
C971 C975 1.385 . S
C972 H953 0.951 . S
C972 C970 1.388 . S
C972 C973 1.366 . S
C973 C972 1.366 . S
C973 C974 1.414 . S
C973 C976 1.499 . S
C974 H954 0.950 . S
C974 C973 1.414 . S
C974 C975 1.374 . S
C975 H955 0.950 . S
C975 C971 1.385 . S
C975 C974 1.374 . S
C976 C973 1.499 . S
C976 C977 1.373 . S
C976 C978 1.389 . S
C977 H956 0.950 . S
C977 C976 1.373 . S
C977 C993 1.377 . S
C978 C976 1.389 . S
C978 C979 1.524 . S
C978 C992 1.377 . S
C979 C978 1.524 . S
C979 C980 1.397 . S
C979 C984 1.363 . S
C980 H957 0.950 . S
C980 C979 1.397 . S
C980 C981 1.334 . S
C981 H958 0.950 . S
C981 C980 1.334 . S
C981 C982 1.287 . S
C982 C981 1.287 . S
C982 C983 1.524 . S
C982 H1001 0.913 . S
C983 H959 0.950 . S
C983 C982 1.524 . S
C983 C984 1.415 . S
C984 H960 0.950 . S
C984 C979 1.363 . S
C984 C983 1.415 . S
C985 H961 0.951 . S
C985 C986 1.366 . S
C985 C987 1.388 . S
C986 C985 1.366 . S
C986 C990 1.385 . S
C987 H962 0.951 . S
C987 C985 1.388 . S
C987 C988 1.366 . S
C988 C987 1.366 . S
C988 C989 1.414 . S
C988 C991 1.499 . S
C989 H963 0.950 . S
C989 C988 1.414 . S
C989 C990 1.374 . S
C990 H964 0.950 . S
C990 C986 1.385 . S
C990 C989 1.374 . S
C991 C988 1.499 . S
C991 C992 1.373 . S
C991 C993 1.389 . S
C992 H965 0.950 . S
C992 C978 1.377 . S
C992 C991 1.373 . S
C993 C977 1.377 . S
C993 C991 1.389 . S
C993 C994 1.524 . S
C994 C993 1.524 . S
C994 C995 1.397 . S
C994 C999 1.363 . S
C995 H966 0.950 . S
C995 C994 1.397 . S
C995 C996 1.334 . S
C996 H967 0.950 . S
C996 C995 1.334 . S
C996 C997 1.287 . S
C997 C996 1.287 . S
C997 C998 1.524 . S
C997 H1000 0.999 . S
C998 H968 0.950 . S
C998 C997 1.524 . S
C998 C999 1.415 . S
C999 H969 0.950 . S
C999 C994 1.363 . S
C999 C998 1.415 . S
H1000 C997 0.999 . S
H1001 C982 0.913 . S
H1002 C1020 0.951 . S
H1003 C1022 0.951 . S
H1004 C1024 0.950 . S
H1005 C1025 0.950 . S
H1006 C1027 0.950 . S
H1007 C1030 0.950 . S
H1008 C1031 0.950 . S
H1009 C1033 0.950 . S
H1010 C1034 0.950 . S
H1011 C1035 0.951 . S
H1012 C1037 0.951 . S
H1013 C1039 0.950 . S
H1014 C1040 0.950 . S
H1015 C1042 0.950 . S
H1016 C1045 0.950 . S
H1017 C1046 0.950 . S
H1018 C1048 0.950 . S
H1019 C1049 0.950 . S
C1020 H1002 0.951 . S
C1020 C1021 1.366 . S
C1020 C1022 1.388 . S
C1021 C1020 1.366 . S
C1021 C1025 1.385 . S
C1022 H1003 0.951 . S
C1022 C1020 1.388 . S
C1022 C1023 1.366 . S
C1023 C1022 1.366 . S
C1023 C1024 1.414 . S
C1023 C1026 1.499 . S
C1024 H1004 0.950 . S
C1024 C1023 1.414 . S
C1024 C1025 1.374 . S
C1025 H1005 0.950 . S
C1025 C1021 1.385 . S
C1025 C1024 1.374 . S
C1026 C1023 1.499 . S
C1026 C1027 1.373 . S
C1026 C1028 1.389 . S
C1027 H1006 0.950 . S
C1027 C1026 1.373 . S
C1027 C1043 1.377 . S
C1028 C1026 1.389 . S
C1028 C1029 1.524 . S
C1028 C1042 1.377 . S
C1029 C1028 1.524 . S
C1029 C1030 1.397 . S
C1029 C1034 1.363 . S
C1030 H1007 0.950 . S
C1030 C1029 1.397 . S
C1030 C1031 1.334 . S
C1031 H1008 0.950 . S
C1031 C1030 1.334 . S
C1031 C1032 1.287 . S
C1032 C1031 1.287 . S
C1032 C1033 1.524 . S
C1032 H1051 0.913 . S
C1033 H1009 0.950 . S
C1033 C1032 1.524 . S
C1033 C1034 1.415 . S
C1034 H1010 0.950 . S
C1034 C1029 1.363 . S
C1034 C1033 1.415 . S
C1035 H1011 0.951 . S
C1035 C1036 1.366 . S
C1035 C1037 1.388 . S
C1036 C1035 1.366 . S
C1036 C1040 1.385 . S
C1037 H1012 0.951 . S
C1037 C1035 1.388 . S
C1037 C1038 1.366 . S
C1038 C1037 1.366 . S
C1038 C1039 1.414 . S
C1038 C1041 1.499 . S
C1039 H1013 0.950 . S
C1039 C1038 1.414 . S
C1039 C1040 1.374 . S
C1040 H1014 0.950 . S
C1040 C1036 1.385 . S
C1040 C1039 1.374 . S
C1041 C1038 1.499 . S
C1041 C1042 1.373 . S
C1041 C1043 1.389 . S
C1042 H1015 0.950 . S
C1042 C1028 1.377 . S
C1042 C1041 1.373 . S
C1043 C1027 1.377 . S
C1043 C1041 1.389 . S
C1043 C1044 1.524 . S
C1044 C1043 1.524 . S
C1044 C1045 1.397 . S
C1044 C1049 1.363 . S
C1045 H1016 0.950 . S
C1045 C1044 1.397 . S
C1045 C1046 1.334 . S
C1046 H1017 0.950 . S
C1046 C1045 1.334 . S
C1046 C1047 1.287 . S
C1047 C1046 1.287 . S
C1047 C1048 1.524 . S
C1047 H1050 0.999 . S
C1048 H1018 0.950 . S
C1048 C1047 1.524 . S
C1048 C1049 1.415 . S
C1049 H1019 0.950 . S
C1049 C1044 1.363 . S
C1049 C1048 1.415 . S
H1050 C1047 0.999 . S
H1051 C1032 0.913 . S
H1052 C1070 0.951 . S
H1053 C1072 0.951 . S
H1054 C1074 0.950 . S
H1055 C1075 0.950 . S
H1056 C1077 0.950 . S
H1057 C1080 0.950 . S
H1058 C1081 0.950 . S
H1059 C1083 0.950 . S
H1060 C1084 0.950 . S
H1061 C1085 0.951 . S
H1062 C1087 0.951 . S
H1063 C1089 0.950 . S
H1064 C1090 0.950 . S
H1065 C1092 0.950 . S
H1066 C1095 0.950 . S
H1067 C1096 0.950 . S
H1068 C1098 0.950 . S
H1069 C1099 0.950 . S
C1070 H1052 0.951 . S
C1070 C1071 1.366 . S
C1070 C1072 1.388 . S
C1071 C1070 1.366 . S
C1071 C1075 1.385 . S
C1072 H1053 0.951 . S
C1072 C1070 1.388 . S
C1072 C1073 1.366 . S
C1073 C1072 1.366 . S
C1073 C1074 1.414 . S
C1073 C1076 1.499 . S
C1074 H1054 0.950 . S
C1074 C1073 1.414 . S
C1074 C1075 1.374 . S
C1075 H1055 0.950 . S
C1075 C1071 1.385 . S
C1075 C1074 1.374 . S
C1076 C1073 1.499 . S
C1076 C1077 1.373 . S
C1076 C1078 1.389 . S
C1077 H1056 0.950 . S
C1077 C1076 1.373 . S
C1077 C1093 1.377 . S
C1078 C1076 1.389 . S
C1078 C1079 1.524 . S
C1078 C1092 1.377 . S
C1079 C1078 1.524 . S
C1079 C1080 1.397 . S
C1079 C1084 1.363 . S
C1080 H1057 0.950 . S
C1080 C1079 1.397 . S
C1080 C1081 1.334 . S
C1081 H1058 0.950 . S
C1081 C1080 1.334 . S
C1081 C1082 1.287 . S
C1082 C1081 1.287 . S
C1082 C1083 1.524 . S
C1082 H1101 0.913 . S
C1083 H1059 0.950 . S
C1083 C1082 1.524 . S
C1083 C1084 1.415 . S
C1084 H1060 0.950 . S
C1084 C1079 1.363 . S
C1084 C1083 1.415 . S
C1085 H1061 0.951 . S
C1085 C1086 1.366 . S
C1085 C1087 1.388 . S
C1086 C1085 1.366 . S
C1086 C1090 1.385 . S
C1087 H1062 0.951 . S
C1087 C1085 1.388 . S
C1087 C1088 1.366 . S
C1088 C1087 1.366 . S
C1088 C1089 1.414 . S
C1088 C1091 1.499 . S
C1089 H1063 0.950 . S
C1089 C1088 1.414 . S
C1089 C1090 1.374 . S
C1090 H1064 0.950 . S
C1090 C1086 1.385 . S
C1090 C1089 1.374 . S
C1091 C1088 1.499 . S
C1091 C1092 1.373 . S
C1091 C1093 1.389 . S
C1092 H1065 0.950 . S
C1092 C1078 1.377 . S
C1092 C1091 1.373 . S
C1093 C1077 1.377 . S
C1093 C1091 1.389 . S
C1093 C1094 1.524 . S
C1094 C1093 1.524 . S
C1094 C1095 1.397 . S
C1094 C1099 1.363 . S
C1095 H1066 0.950 . S
C1095 C1094 1.397 . S
C1095 C1096 1.334 . S
C1096 H1067 0.950 . S
C1096 C1095 1.334 . S
C1096 C1097 1.287 . S
C1097 C1096 1.287 . S
C1097 C1098 1.524 . S
C1097 H1100 0.999 . S
C1098 H1068 0.950 . S
C1098 C1097 1.524 . S
C1098 C1099 1.415 . S
C1099 H1069 0.950 . S
C1099 C1094 1.363 . S
C1099 C1098 1.415 . S
H1100 C1097 0.999 . S
H1101 C1082 0.913 . S
H1102 C1120 0.951 . S
H1103 C1122 0.951 . S
H1104 C1124 0.950 . S
H1105 C1125 0.950 . S
H1106 C1127 0.950 . S
H1107 C1130 0.950 . S
H1108 C1131 0.950 . S
H1109 C1133 0.950 . S
H1110 C1134 0.950 . S
H1111 C1135 0.951 . S
H1112 C1137 0.951 . S
H1113 C1139 0.950 . S
H1114 C1140 0.950 . S
H1115 C1142 0.950 . S
H1116 C1145 0.950 . S
H1117 C1146 0.950 . S
H1118 C1148 0.950 . S
H1119 C1149 0.950 . S
C1120 H1102 0.951 . S
C1120 C1121 1.366 . S
C1120 C1122 1.388 . S
C1121 C1120 1.366 . S
C1121 C1125 1.385 . S
C1122 H1103 0.951 . S
C1122 C1120 1.388 . S
C1122 C1123 1.366 . S
C1123 C1122 1.366 . S
C1123 C1124 1.414 . S
C1123 C1126 1.499 . S
C1124 H1104 0.950 . S
C1124 C1123 1.414 . S
C1124 C1125 1.374 . S
C1125 H1105 0.950 . S
C1125 C1121 1.385 . S
C1125 C1124 1.374 . S
C1126 C1123 1.499 . S
C1126 C1127 1.373 . S
C1126 C1128 1.389 . S
C1127 H1106 0.950 . S
C1127 C1126 1.373 . S
C1127 C1143 1.377 . S
C1128 C1126 1.389 . S
C1128 C1129 1.524 . S
C1128 C1142 1.377 . S
C1129 C1128 1.524 . S
C1129 C1130 1.397 . S
C1129 C1134 1.363 . S
C1130 H1107 0.950 . S
C1130 C1129 1.397 . S
C1130 C1131 1.334 . S
C1131 H1108 0.950 . S
C1131 C1130 1.334 . S
C1131 C1132 1.287 . S
C1132 C1131 1.287 . S
C1132 C1133 1.524 . S
C1132 H1151 0.913 . S
C1133 H1109 0.950 . S
C1133 C1132 1.524 . S
C1133 C1134 1.415 . S
C1134 H1110 0.950 . S
C1134 C1129 1.363 . S
C1134 C1133 1.415 . S
C1135 H1111 0.951 . S
C1135 C1136 1.366 . S
C1135 C1137 1.388 . S
C1136 C1135 1.366 . S
C1136 C1140 1.385 . S
C1137 H1112 0.951 . S
C1137 C1135 1.388 . S
C1137 C1138 1.366 . S
C1138 C1137 1.366 . S
C1138 C1139 1.414 . S
C1138 C1141 1.499 . S
C1139 H1113 0.950 . S
C1139 C1138 1.414 . S
C1139 C1140 1.374 . S
C1140 H1114 0.950 . S
C1140 C1136 1.385 . S
C1140 C1139 1.374 . S
C1141 C1138 1.499 . S
C1141 C1142 1.373 . S
C1141 C1143 1.389 . S
C1142 H1115 0.950 . S
C1142 C1128 1.377 . S
C1142 C1141 1.373 . S
C1143 C1127 1.377 . S
C1143 C1141 1.389 . S
C1143 C1144 1.524 . S
C1144 C1143 1.524 . S
C1144 C1145 1.397 . S
C1144 C1149 1.363 . S
C1145 H1116 0.950 . S
C1145 C1144 1.397 . S
C1145 C1146 1.334 . S
C1146 H1117 0.950 . S
C1146 C1145 1.334 . S
C1146 C1147 1.287 . S
C1147 C1146 1.287 . S
C1147 C1148 1.524 . S
C1147 H1150 0.999 . S
C1148 H1118 0.950 . S
C1148 C1147 1.524 . S
C1148 C1149 1.415 . S
C1149 H1119 0.950 . S
C1149 C1144 1.363 . S
C1149 C1148 1.415 . S
H1150 C1147 0.999 . S
H1151 C1132 0.913 . S
H1152 C1170 0.951 . S
H1153 C1172 0.951 . S
H1154 C1174 0.950 . S
H1155 C1175 0.950 . S
H1156 C1177 0.950 . S
H1157 C1180 0.950 . S
H1158 C1181 0.950 . S
H1159 C1183 0.950 . S
H1160 C1184 0.950 . S
H1161 C1185 0.951 . S
H1162 C1187 0.951 . S
H1163 C1189 0.950 . S
H1164 C1190 0.950 . S
H1165 C1192 0.950 . S
H1166 C1195 0.950 . S
H1167 C1196 0.950 . S
H1168 C1198 0.950 . S
H1169 C1199 0.950 . S
C1170 H1152 0.951 . S
C1170 C1171 1.366 . S
C1170 C1172 1.388 . S
C1171 C1170 1.366 . S
C1171 C1175 1.385 . S
C1172 H1153 0.951 . S
C1172 C1170 1.388 . S
C1172 C1173 1.366 . S
C1173 C1172 1.366 . S
C1173 C1174 1.414 . S
C1173 C1176 1.499 . S
C1174 H1154 0.950 . S
C1174 C1173 1.414 . S
C1174 C1175 1.374 . S
C1175 H1155 0.950 . S
C1175 C1171 1.385 . S
C1175 C1174 1.374 . S
C1176 C1173 1.499 . S
C1176 C1177 1.373 . S
C1176 C1178 1.389 . S
C1177 H1156 0.950 . S
C1177 C1176 1.373 . S
C1177 C1193 1.377 . S
C1178 C1176 1.389 . S
C1178 C1179 1.524 . S
C1178 C1192 1.377 . S
C1179 C1178 1.524 . S
C1179 C1180 1.397 . S
C1179 C1184 1.363 . S
C1180 H1157 0.950 . S
C1180 C1179 1.397 . S
C1180 C1181 1.334 . S
C1181 H1158 0.950 . S
C1181 C1180 1.334 . S
C1181 C1182 1.287 . S
C1182 C1181 1.287 . S
C1182 C1183 1.524 . S
C1182 H1201 0.913 . S
C1183 H1159 0.950 . S
C1183 C1182 1.524 . S
C1183 C1184 1.415 . S
C1184 H1160 0.950 . S
C1184 C1179 1.363 . S
C1184 C1183 1.415 . S
C1185 H1161 0.951 . S
C1185 C1186 1.366 . S
C1185 C1187 1.388 . S
C1186 C1185 1.366 . S
C1186 C1190 1.385 . S
C1187 H1162 0.951 . S
C1187 C1185 1.388 . S
C1187 C1188 1.366 . S
C1188 C1187 1.366 . S
C1188 C1189 1.414 . S
C1188 C1191 1.499 . S
C1189 H1163 0.950 . S
C1189 C1188 1.414 . S
C1189 C1190 1.374 . S
C1190 H1164 0.950 . S
C1190 C1186 1.385 . S
C1190 C1189 1.374 . S
C1191 C1188 1.499 . S
C1191 C1192 1.373 . S
C1191 C1193 1.389 . S
C1192 H1165 0.950 . S
C1192 C1178 1.377 . S
C1192 C1191 1.373 . S
C1193 C1177 1.377 . S
C1193 C1191 1.389 . S
C1193 C1194 1.524 . S
C1194 C1193 1.524 . S
C1194 C1195 1.397 . S
C1194 C1199 1.363 . S
C1195 H1166 0.950 . S
C1195 C1194 1.397 . S
C1195 C1196 1.334 . S
C1196 H1167 0.950 . S
C1196 C1195 1.334 . S
C1196 C1197 1.287 . S
C1197 C1196 1.287 . S
C1197 C1198 1.524 . S
C1197 H1200 0.999 1_655 S
C1198 H1168 0.950 . S
C1198 C1197 1.524 . S
C1198 C1199 1.415 . S
C1199 H1169 0.950 . S
C1199 C1194 1.363 . S
C1199 C1198 1.415 . S
H1200 C1197 0.999 1_455 S
H1201 C1182 0.913 . S
H1202 C1220 0.951 . S
H1203 C1222 0.951 . S
H1204 C1224 0.950 . S
H1205 C1225 0.950 . S
H1206 C1227 0.950 . S
H1207 C1230 0.950 . S
H1208 C1231 0.950 . S
H1209 C1233 0.950 . S
H1210 C1234 0.950 . S
H1211 C1235 0.951 1_545 S
H1212 C1237 0.951 1_545 S
H1213 C1239 0.950 . S
H1214 C1240 0.950 . S
H1215 C1242 0.950 . S
H1216 C1245 0.950 . S
H1217 C1246 0.950 . S
H1218 C1248 0.950 . S
H1219 C1249 0.950 . S
C1220 H1202 0.951 . S
C1220 C1221 1.366 1_565 S
C1220 C1222 1.388 . S
C1221 C1220 1.366 1_545 S
C1221 C1225 1.385 . S
C1222 H1203 0.951 . S
C1222 C1220 1.388 . S
C1222 C1223 1.366 . S
C1223 C1222 1.366 . S
C1223 C1224 1.414 1_565 S
C1223 C1226 1.499 . S
C1224 H1204 0.950 . S
C1224 C1223 1.414 1_545 S
C1224 C1225 1.374 . S
C1225 H1205 0.950 . S
C1225 C1221 1.385 . S
C1225 C1224 1.374 . S
C1226 C1223 1.499 . S
C1226 C1227 1.373 1_565 S
C1226 C1228 1.389 . S
C1227 H1206 0.950 . S
C1227 C1226 1.373 1_545 S
C1227 C1243 1.377 . S
C1228 C1226 1.389 . S
C1228 C1229 1.524 . S
C1228 C1242 1.377 . S
C1229 C1228 1.524 . S
C1229 C1230 1.397 . S
C1229 C1234 1.363 . S
C1230 H1207 0.950 . S
C1230 C1229 1.397 . S
C1230 C1231 1.334 . S
C1231 H1208 0.950 . S
C1231 C1230 1.334 . S
C1231 C1232 1.287 . S
C1232 C1231 1.287 . S
C1232 C1233 1.524 . S
C1232 H1251 0.913 . S
C1233 H1209 0.950 . S
C1233 C1232 1.524 . S
C1233 C1234 1.415 . S
C1234 H1210 0.950 . S
C1234 C1229 1.363 . S
C1234 C1233 1.415 . S
C1235 H1211 0.951 1_565 S
C1235 C1236 1.366 . S
C1235 C1237 1.388 . S
C1236 C1235 1.366 . S
C1236 C1240 1.385 . S
C1237 H1212 0.951 1_565 S
C1237 C1235 1.388 . S
C1237 C1238 1.366 . S
C1238 C1237 1.366 . S
C1238 C1239 1.414 . S
C1238 C1241 1.499 . S
C1239 H1213 0.950 . S
C1239 C1238 1.414 . S
C1239 C1240 1.374 . S
C1240 H1214 0.950 . S
C1240 C1236 1.385 . S
C1240 C1239 1.374 . S
C1241 C1238 1.499 . S
C1241 C1242 1.373 . S
C1241 C1243 1.389 1_565 S
C1242 H1215 0.950 . S
C1242 C1228 1.377 . S
C1242 C1241 1.373 . S
C1243 C1227 1.377 . S
C1243 C1241 1.389 1_545 S
C1243 C1244 1.524 . S
C1244 C1243 1.524 . S
C1244 C1245 1.397 . S
C1244 C1249 1.363 . S
C1245 H1216 0.950 . S
C1245 C1244 1.397 . S
C1245 C1246 1.334 . S
C1246 H1217 0.950 . S
C1246 C1245 1.334 . S
C1246 C1247 1.287 . S
C1247 C1246 1.287 . S
C1247 C1248 1.524 . S
C1247 H1250 0.999 . S
C1248 H1218 0.950 . S
C1248 C1247 1.524 . S
C1248 C1249 1.415 . S
C1249 H1219 0.950 . S
C1249 C1244 1.363 . S
C1249 C1248 1.415 . S
H1250 C1247 0.999 . S
H1251 C1232 0.913 . S
H1252 C1270 0.951 . S
H1253 C1272 0.951 . S
H1254 C1274 0.950 . S
H1255 C1275 0.950 . S
H1256 C1277 0.950 . S
H1257 C1280 0.950 . S
H1258 C1281 0.950 . S
H1259 C1283 0.950 . S
H1260 C1284 0.950 . S
H1261 C1285 0.951 . S
H1262 C1287 0.951 . S
H1263 C1289 0.950 . S
H1264 C1290 0.950 . S
H1265 C1292 0.950 . S
H1266 C1295 0.950 . S
H1267 C1296 0.950 . S
H1268 C1298 0.950 . S
H1269 C1299 0.950 . S
C1270 H1252 0.951 . S
C1270 C1271 1.366 . S
C1270 C1272 1.388 . S
C1271 C1270 1.366 . S
C1271 C1275 1.385 . S
C1272 H1253 0.951 . S
C1272 C1270 1.388 . S
C1272 C1273 1.366 . S
C1273 C1272 1.366 . S
C1273 C1274 1.414 . S
C1273 C1276 1.499 . S
C1274 H1254 0.950 . S
C1274 C1273 1.414 . S
C1274 C1275 1.374 . S
C1275 H1255 0.950 . S
C1275 C1271 1.385 . S
C1275 C1274 1.374 . S
C1276 C1273 1.499 . S
C1276 C1277 1.373 . S
C1276 C1278 1.389 . S
C1277 H1256 0.950 . S
C1277 C1276 1.373 . S
C1277 C1293 1.377 . S
C1278 C1276 1.389 . S
C1278 C1279 1.524 . S
C1278 C1292 1.377 . S
C1279 C1278 1.524 . S
C1279 C1280 1.397 . S
C1279 C1284 1.363 . S
C1280 H1257 0.950 . S
C1280 C1279 1.397 . S
C1280 C1281 1.334 . S
C1281 H1258 0.950 . S
C1281 C1280 1.334 . S
C1281 C1282 1.287 . S
C1282 C1281 1.287 . S
C1282 C1283 1.524 . S
C1282 H1301 0.913 . S
C1283 H1259 0.950 . S
C1283 C1282 1.524 . S
C1283 C1284 1.415 . S
C1284 H1260 0.950 . S
C1284 C1279 1.363 . S
C1284 C1283 1.415 . S
C1285 H1261 0.951 . S
C1285 C1286 1.366 . S
C1285 C1287 1.388 . S
C1286 C1285 1.366 . S
C1286 C1290 1.385 . S
C1287 H1262 0.951 . S
C1287 C1285 1.388 . S
C1287 C1288 1.366 . S
C1288 C1287 1.366 . S
C1288 C1289 1.414 . S
C1288 C1291 1.499 . S
C1289 H1263 0.950 . S
C1289 C1288 1.414 . S
C1289 C1290 1.374 . S
C1290 H1264 0.950 . S
C1290 C1286 1.385 . S
C1290 C1289 1.374 . S
C1291 C1288 1.499 . S
C1291 C1292 1.373 . S
C1291 C1293 1.389 . S
C1292 H1265 0.950 . S
C1292 C1278 1.377 . S
C1292 C1291 1.373 . S
C1293 C1277 1.377 . S
C1293 C1291 1.389 . S
C1293 C1294 1.524 . S
C1294 C1293 1.524 . S
C1294 C1295 1.397 . S
C1294 C1299 1.363 . S
C1295 H1266 0.950 . S
C1295 C1294 1.397 . S
C1295 C1296 1.334 . S
C1296 H1267 0.950 . S
C1296 C1295 1.334 . S
C1296 C1297 1.287 . S
C1297 C1296 1.287 . S
C1297 C1298 1.524 . S
C1297 H1300 0.999 . S
C1298 H1268 0.950 . S
C1298 C1297 1.524 . S
C1298 C1299 1.415 . S
C1299 H1269 0.950 . S
C1299 C1294 1.363 . S
C1299 C1298 1.415 . S
H1300 C1297 0.999 . S
H1301 C1282 0.913 . S
H1302 C1320 0.951 1_565 S
H1303 C1322 0.951 1_565 S
H1304 C1324 0.950 . S
H1305 C1325 0.950 . S
H1306 C1327 0.950 . S
H1307 C1330 0.950 1_545 S
H1308 C1331 0.950 . S
H1309 C1333 0.950 . S
H1310 C1334 0.950 . S
H1311 C1335 0.951 . S
H1312 C1337 0.951 . S
H1313 C1339 0.950 1_565 S
H1314 C1340 0.950 1_565 S
H1315 C1342 0.950 1_565 S
H1316 C1345 0.950 . S
H1317 C1346 0.950 . S
H1318 C1348 0.950 . S
H1319 C1349 0.950 . S
C1320 H1302 0.951 1_545 S
C1320 C1321 1.366 . S
C1320 C1322 1.388 . S
C1321 C1320 1.366 . S
C1321 C1325 1.385 . S
C1322 H1303 0.951 1_545 S
C1322 C1320 1.388 . S
C1322 C1323 1.366 . S
C1323 C1322 1.366 . S
C1323 C1324 1.414 . S
C1323 C1326 1.499 . S
C1324 H1304 0.950 . S
C1324 C1323 1.414 . S
C1324 C1325 1.374 . S
C1325 H1305 0.950 . S
C1325 C1321 1.385 . S
C1325 C1324 1.374 . S
C1326 C1323 1.499 . S
C1326 C1327 1.373 . S
C1326 C1328 1.389 . S
C1327 H1306 0.950 . S
C1327 C1326 1.373 . S
C1327 C1343 1.377 . S
C1328 C1326 1.389 . S
C1328 C1329 1.524 1_545 S
C1328 C1342 1.377 . S
C1329 C1328 1.524 1_565 S
C1329 C1330 1.397 . S
C1329 C1334 1.363 . S
C1330 H1307 0.950 1_565 S
C1330 C1329 1.397 . S
C1330 C1331 1.334 . S
C1331 H1308 0.950 . S
C1331 C1330 1.334 . S
C1331 C1332 1.287 . S
C1332 C1331 1.287 . S
C1332 C1333 1.524 . S
C1332 H1351 0.913 . S
C1333 H1309 0.950 . S
C1333 C1332 1.524 . S
C1333 C1334 1.415 . S
C1334 H1310 0.950 . S
C1334 C1329 1.363 . S
C1334 C1333 1.415 . S
C1335 H1311 0.951 . S
C1335 C1336 1.366 . S
C1335 C1337 1.388 . S
C1336 C1335 1.366 . S
C1336 C1340 1.385 . S
C1337 H1312 0.951 . S
C1337 C1335 1.388 . S
C1337 C1338 1.366 . S
C1338 C1337 1.366 . S
C1338 C1339 1.414 . S
C1338 C1341 1.499 . S
C1339 H1313 0.950 1_545 S
C1339 C1338 1.414 . S
C1339 C1340 1.374 . S
C1340 H1314 0.950 1_545 S
C1340 C1336 1.385 . S
C1340 C1339 1.374 . S
C1341 C1338 1.499 . S
C1341 C1342 1.373 . S
C1341 C1343 1.389 . S
C1342 H1315 0.950 1_545 S
C1342 C1328 1.377 . S
C1342 C1341 1.373 . S
C1343 C1327 1.377 . S
C1343 C1341 1.389 . S
C1343 C1344 1.524 . S
C1344 C1343 1.524 . S
C1344 C1345 1.397 . S
C1344 C1349 1.363 . S
C1345 H1316 0.950 . S
C1345 C1344 1.397 . S
C1345 C1346 1.334 . S
C1346 H1317 0.950 . S
C1346 C1345 1.334 . S
C1346 C1347 1.287 . S
C1347 C1346 1.287 . S
C1347 C1348 1.524 . S
C1347 H1350 0.999 . S
C1348 H1318 0.950 . S
C1348 C1347 1.524 . S
C1348 C1349 1.415 . S
C1349 H1319 0.950 . S
C1349 C1344 1.363 . S
C1349 C1348 1.415 . S
H1350 C1347 0.999 . S
H1351 C1332 0.913 . S
H1352 C1370 0.951 . S
H1353 C1372 0.951 . S
H1354 C1374 0.950 . S
H1355 C1375 0.950 . S
H1356 C1377 0.950 . S
H1357 C1380 0.950 . S
H1358 C1381 0.950 . S
H1359 C1383 0.950 . S
H1360 C1384 0.950 . S
H1361 C1385 0.951 . S
H1362 C1387 0.951 . S
H1363 C1389 0.950 . S
H1364 C1390 0.950 . S
H1365 C1392 0.950 . S
H1366 C1395 0.950 . S
H1367 C1396 0.950 . S
H1368 C1398 0.950 . S
H1369 C1399 0.950 . S
C1370 H1352 0.951 . S
C1370 C1371 1.366 . S
C1370 C1372 1.388 . S
C1371 C1370 1.366 . S
C1371 C1375 1.385 . S
C1372 H1353 0.951 . S
C1372 C1370 1.388 . S
C1372 C1373 1.366 . S
C1373 C1372 1.366 . S
C1373 C1374 1.414 . S
C1373 C1376 1.499 . S
C1374 H1354 0.950 . S
C1374 C1373 1.414 . S
C1374 C1375 1.374 . S
C1375 H1355 0.950 . S
C1375 C1371 1.385 . S
C1375 C1374 1.374 . S
C1376 C1373 1.499 . S
C1376 C1377 1.373 . S
C1376 C1378 1.389 . S
C1377 H1356 0.950 . S
C1377 C1376 1.373 . S
C1377 C1393 1.377 . S
C1378 C1376 1.389 . S
C1378 C1379 1.524 . S
C1378 C1392 1.377 . S
C1379 C1378 1.524 . S
C1379 C1380 1.397 . S
C1379 C1384 1.363 . S
C1380 H1357 0.950 . S
C1380 C1379 1.397 . S
C1380 C1381 1.334 . S
C1381 H1358 0.950 . S
C1381 C1380 1.334 . S
C1381 C1382 1.287 . S
C1382 C1381 1.287 . S
C1382 C1383 1.524 . S
C1382 H1401 0.913 . S
C1383 H1359 0.950 . S
C1383 C1382 1.524 . S
C1383 C1384 1.415 . S
C1384 H1360 0.950 . S
C1384 C1379 1.363 . S
C1384 C1383 1.415 . S
C1385 H1361 0.951 . S
C1385 C1386 1.366 . S
C1385 C1387 1.388 . S
C1386 C1385 1.366 . S
C1386 C1390 1.385 . S
C1387 H1362 0.951 . S
C1387 C1385 1.388 . S
C1387 C1388 1.366 . S
C1388 C1387 1.366 . S
C1388 C1389 1.414 . S
C1388 C1391 1.499 . S
C1389 H1363 0.950 . S
C1389 C1388 1.414 . S
C1389 C1390 1.374 . S
C1390 H1364 0.950 . S
C1390 C1386 1.385 . S
C1390 C1389 1.374 . S
C1391 C1388 1.499 . S
C1391 C1392 1.373 . S
C1391 C1393 1.389 . S
C1392 H1365 0.950 . S
C1392 C1378 1.377 . S
C1392 C1391 1.373 . S
C1393 C1377 1.377 . S
C1393 C1391 1.389 . S
C1393 C1394 1.524 . S
C1394 C1393 1.524 . S
C1394 C1395 1.397 . S
C1394 C1399 1.363 . S
C1395 H1366 0.950 . S
C1395 C1394 1.397 . S
C1395 C1396 1.334 . S
C1396 H1367 0.950 . S
C1396 C1395 1.334 . S
C1396 C1397 1.287 . S
C1397 C1396 1.287 . S
C1397 C1398 1.524 . S
C1397 H1400 0.999 . S
C1398 H1368 0.950 . S
C1398 C1397 1.524 . S
C1398 C1399 1.415 . S
C1399 H1369 0.950 . S
C1399 C1394 1.363 . S
C1399 C1398 1.415 . S
H1400 C1397 0.999 . S
H1401 C1382 0.913 . S
H1402 C1420 0.951 . S
H1403 C1422 0.951 . S
H1404 C1424 0.950 . S
H1405 C1425 0.950 . S
H1406 C1427 0.950 1_554 S
H1407 C1430 0.950 . S
H1408 C1431 0.950 . S
H1409 C1433 0.950 . S
H1410 C1434 0.950 . S
H1411 C1435 0.951 . S
H1412 C1437 0.951 . S
H1413 C1439 0.950 . S
H1414 C1440 0.950 . S
H1415 C1442 0.950 . S
H1416 C1445 0.950 . S
H1417 C1446 0.950 . S
H1418 C1448 0.950 . S
H1419 C1449 0.950 . S
C1420 H1402 0.951 . S
C1420 C1421 1.366 . S
C1420 C1422 1.388 . S
C1421 C1420 1.366 . S
C1421 C1425 1.385 . S
C1422 H1403 0.951 . S
C1422 C1420 1.388 . S
C1422 C1423 1.366 . S
C1423 C1422 1.366 . S
C1423 C1424 1.414 . S
C1423 C1426 1.499 . S
C1424 H1404 0.950 . S
C1424 C1423 1.414 . S
C1424 C1425 1.374 . S
C1425 H1405 0.950 . S
C1425 C1421 1.385 . S
C1425 C1424 1.374 . S
C1426 C1423 1.499 . S
C1426 C1427 1.373 . S
C1426 C1428 1.389 . S
C1427 H1406 0.950 1_556 S
C1427 C1426 1.373 . S
C1427 C1443 1.377 . S
C1428 C1426 1.389 . S
C1428 C1429 1.524 . S
C1428 C1442 1.377 . S
C1429 C1428 1.524 . S
C1429 C1430 1.397 . S
C1429 C1434 1.363 . S
C1430 H1407 0.950 . S
C1430 C1429 1.397 . S
C1430 C1431 1.334 . S
C1431 H1408 0.950 . S
C1431 C1430 1.334 . S
C1431 C1432 1.287 . S
C1432 C1431 1.287 . S
C1432 C1433 1.524 . S
C1432 H1451 0.913 . S
C1433 H1409 0.950 . S
C1433 C1432 1.524 . S
C1433 C1434 1.415 . S
C1434 H1410 0.950 . S
C1434 C1429 1.363 . S
C1434 C1433 1.415 . S
C1435 H1411 0.951 . S
C1435 C1436 1.366 . S
C1435 C1437 1.388 . S
C1436 C1435 1.366 . S
C1436 C1440 1.385 . S
C1437 H1412 0.951 . S
C1437 C1435 1.388 . S
C1437 C1438 1.366 . S
C1438 C1437 1.366 . S
C1438 C1439 1.414 . S
C1438 C1441 1.499 . S
C1439 H1413 0.950 . S
C1439 C1438 1.414 . S
C1439 C1440 1.374 . S
C1440 H1414 0.950 . S
C1440 C1436 1.385 . S
C1440 C1439 1.374 . S
C1441 C1438 1.499 . S
C1441 C1442 1.373 . S
C1441 C1443 1.389 . S
C1442 H1415 0.950 . S
C1442 C1428 1.377 . S
C1442 C1441 1.373 . S
C1443 C1427 1.377 . S
C1443 C1441 1.389 . S
C1443 C1444 1.524 1_556 S
C1444 C1443 1.524 1_554 S
C1444 C1445 1.397 . S
C1444 C1449 1.363 . S
C1445 H1416 0.950 . S
C1445 C1444 1.397 . S
C1445 C1446 1.334 . S
C1446 H1417 0.950 . S
C1446 C1445 1.334 . S
C1446 C1447 1.287 . S
C1447 C1446 1.287 . S
C1447 C1448 1.524 . S
C1447 H1450 0.999 . S
C1448 H1418 0.950 . S
C1448 C1447 1.524 . S
C1448 C1449 1.415 . S
C1449 H1419 0.950 . S
C1449 C1444 1.363 . S
C1449 C1448 1.415 . S
H1450 C1447 0.999 . S
H1451 C1432 0.913 . S
H1452 C1470 0.951 . S
H1453 C1472 0.951 . S
H1454 C1474 0.950 . S
H1455 C1475 0.950 . S
H1456 C1477 0.950 . S
H1457 C1480 0.950 . S
H1458 C1481 0.950 . S
H1459 C1483 0.950 . S
H1460 C1484 0.950 . S
H1461 C1485 0.951 . S
H1462 C1487 0.951 . S
H1463 C1489 0.950 . S
H1464 C1490 0.950 . S
H1465 C1492 0.950 . S
H1466 C1495 0.950 . S
H1467 C1496 0.950 . S
H1468 C1498 0.950 . S
H1469 C1499 0.950 . S
C1470 H1452 0.951 . S
C1470 C1471 1.366 1_556 S
C1470 C1472 1.388 . S
C1471 C1470 1.366 1_554 S
C1471 C1475 1.385 . S
C1472 H1453 0.951 . S
C1472 C1470 1.388 . S
C1472 C1473 1.366 . S
C1473 C1472 1.366 . S
C1473 C1474 1.414 1_556 S
C1473 C1476 1.499 . S
C1474 H1454 0.950 . S
C1474 C1473 1.414 1_554 S
C1474 C1475 1.374 . S
C1475 H1455 0.950 . S
C1475 C1471 1.385 . S
C1475 C1474 1.374 . S
C1476 C1473 1.499 . S
C1476 C1477 1.373 1_556 S
C1476 C1478 1.389 . S
C1477 H1456 0.950 . S
C1477 C1476 1.373 1_554 S
C1477 C1493 1.377 . S
C1478 C1476 1.389 . S
C1478 C1479 1.524 . S
C1478 C1492 1.377 . S
C1479 C1478 1.524 . S
C1479 C1480 1.397 . S
C1479 C1484 1.363 . S
C1480 H1457 0.950 . S
C1480 C1479 1.397 . S
C1480 C1481 1.334 . S
C1481 H1458 0.950 . S
C1481 C1480 1.334 . S
C1481 C1482 1.287 . S
C1482 C1481 1.287 . S
C1482 C1483 1.524 . S
C1482 H1501 0.913 . S
C1483 H1459 0.950 . S
C1483 C1482 1.524 . S
C1483 C1484 1.415 . S
C1484 H1460 0.950 . S
C1484 C1479 1.363 . S
C1484 C1483 1.415 . S
C1485 H1461 0.951 . S
C1485 C1486 1.366 . S
C1485 C1487 1.388 . S
C1486 C1485 1.366 . S
C1486 C1490 1.385 . S
C1487 H1462 0.951 . S
C1487 C1485 1.388 . S
C1487 C1488 1.366 . S
C1488 C1487 1.366 . S
C1488 C1489 1.414 . S
C1488 C1491 1.499 . S
C1489 H1463 0.950 . S
C1489 C1488 1.414 . S
C1489 C1490 1.374 . S
C1490 H1464 0.950 . S
C1490 C1486 1.385 . S
C1490 C1489 1.374 . S
C1491 C1488 1.499 . S
C1491 C1492 1.373 . S
C1491 C1493 1.389 1_556 S
C1492 H1465 0.950 . S
C1492 C1478 1.377 . S
C1492 C1491 1.373 . S
C1493 C1477 1.377 . S
C1493 C1491 1.389 1_554 S
C1493 C1494 1.524 . S
C1494 C1493 1.524 . S
C1494 C1495 1.397 . S
C1494 C1499 1.363 . S
C1495 H1466 0.950 . S
C1495 C1494 1.397 . S
C1495 C1496 1.334 . S
C1496 H1467 0.950 . S
C1496 C1495 1.334 . S
C1496 C1497 1.287 . S
C1497 C1496 1.287 . S
C1497 C1498 1.524 . S
C1497 H1500 0.999 . S
C1498 H1468 0.950 . S
C1498 C1497 1.524 . S
C1498 C1499 1.415 . S
C1499 H1469 0.950 . S
C1499 C1494 1.363 . S
C1499 C1498 1.415 . S
H1500 C1497 0.999 . S
H1501 C1482 0.913 . S
H1502 C1520 0.951 . S
H1503 C1522 0.951 . S
H1504 C1524 0.950 . S
H1505 C1525 0.950 . S
H1506 C1527 0.950 . S
H1507 C1530 0.950 . S
H1508 C1531 0.950 . S
H1509 C1533 0.950 . S
H1510 C1534 0.950 . S
H1511 C1535 0.951 1_556 S
H1512 C1537 0.951 1_556 S
H1513 C1539 0.950 . S
H1514 C1540 0.950 . S
H1515 C1542 0.950 . S
H1516 C1545 0.950 . S
H1517 C1546 0.950 . S
H1518 C1548 0.950 . S
H1519 C1549 0.950 . S
C1520 H1502 0.951 . S
C1520 C1521 1.366 . S
C1520 C1522 1.388 . S
C1521 C1520 1.366 . S
C1521 C1525 1.385 1_554 S
C1522 H1503 0.951 . S
C1522 C1520 1.388 . S
C1522 C1523 1.366 . S
C1523 C1522 1.366 . S
C1523 C1524 1.414 1_554 S
C1523 C1526 1.499 . S
C1524 H1504 0.950 . S
C1524 C1523 1.414 1_556 S
C1524 C1525 1.374 . S
C1525 H1505 0.950 . S
C1525 C1521 1.385 1_556 S
C1525 C1524 1.374 . S
C1526 C1523 1.499 . S
C1526 C1527 1.373 1_554 S
C1526 C1528 1.389 . S
C1527 H1506 0.950 . S
C1527 C1526 1.373 1_556 S
C1527 C1543 1.377 . S
C1528 C1526 1.389 . S
C1528 C1529 1.524 . S
C1528 C1542 1.377 . S
C1529 C1528 1.524 . S
C1529 C1530 1.397 . S
C1529 C1534 1.363 . S
C1530 H1507 0.950 . S
C1530 C1529 1.397 . S
C1530 C1531 1.334 . S
C1531 H1508 0.950 . S
C1531 C1530 1.334 . S
C1531 C1532 1.287 . S
C1532 C1531 1.287 . S
C1532 C1533 1.524 . S
C1532 H1551 0.913 . S
C1533 H1509 0.950 . S
C1533 C1532 1.524 . S
C1533 C1534 1.415 . S
C1534 H1510 0.950 . S
C1534 C1529 1.363 . S
C1534 C1533 1.415 . S
C1535 H1511 0.951 1_554 S
C1535 C1536 1.366 . S
C1535 C1537 1.388 . S
C1536 C1535 1.366 . S
C1536 C1540 1.385 . S
C1537 H1512 0.951 1_554 S
C1537 C1535 1.388 . S
C1537 C1538 1.366 . S
C1538 C1537 1.366 . S
C1538 C1539 1.414 . S
C1538 C1541 1.499 . S
C1539 H1513 0.950 . S
C1539 C1538 1.414 . S
C1539 C1540 1.374 . S
C1540 H1514 0.950 . S
C1540 C1536 1.385 . S
C1540 C1539 1.374 . S
C1541 C1538 1.499 . S
C1541 C1542 1.373 . S
C1541 C1543 1.389 1_554 S
C1542 H1515 0.950 . S
C1542 C1528 1.377 . S
C1542 C1541 1.373 . S
C1543 C1527 1.377 . S
C1543 C1541 1.389 1_556 S
C1543 C1544 1.524 . S
C1544 C1543 1.524 . S
C1544 C1545 1.397 . S
C1544 C1549 1.363 . S
C1545 H1516 0.950 . S
C1545 C1544 1.397 . S
C1545 C1546 1.334 . S
C1546 H1517 0.950 . S
C1546 C1545 1.334 . S
C1546 C1547 1.287 . S
C1547 C1546 1.287 . S
C1547 C1548 1.524 . S
C1547 H1550 0.999 . S
C1548 H1518 0.950 . S
C1548 C1547 1.524 . S
C1548 C1549 1.415 . S
C1549 H1519 0.950 . S
C1549 C1544 1.363 . S
C1549 C1548 1.415 . S
H1550 C1547 0.999 . S
H1551 C1532 0.913 . S
H1552 C1570 0.951 . S
H1553 C1572 0.951 . S
H1554 C1574 0.950 . S
H1555 C1575 0.950 . S
H1556 C1577 0.950 1_655 S
H1557 C1580 0.950 . S
H1558 C1581 0.950 . S
H1559 C1583 0.950 . S
H1560 C1584 0.950 . S
H1561 C1585 0.980 . S
H1562 C1587 0.951 1_655 S
H1563 C1589 0.950 . S
H1564 C1590 0.950 . S
H1565 C1592 0.950 . S
H1566 C1595 0.950 . S
H1567 C1596 0.949 . S
H1568 C1598 0.950 . S
H1569 C1599 0.950 . S
C1570 H1552 0.951 . S
C1570 C1571 1.366 . S
C1570 C1572 1.388 . S
C1571 C1570 1.366 . S
C1571 C1575 1.385 1_455 S
C1572 H1553 0.951 . S
C1572 C1570 1.388 . S
C1572 C1573 1.366 . S
C1573 C1572 1.366 . S
C1573 C1574 1.414 1_455 S
C1573 C1576 1.499 . S
C1574 H1554 0.950 . S
C1574 C1573 1.414 1_655 S
C1574 C1575 1.374 . S
C1575 H1555 0.950 . S
C1575 C1571 1.385 1_655 S
C1575 C1574 1.374 . S
C1576 C1573 1.499 . S
C1576 C1577 1.373 . S
C1576 C1578 1.389 . S
C1577 H1556 0.950 1_455 S
C1577 C1576 1.373 . S
C1577 C1593 1.377 . S
C1578 C1576 1.389 . S
C1578 C1579 1.524 . S
C1578 C1592 1.377 . S
C1579 C1578 1.524 . S
C1579 C1580 1.397 . S
C1579 C1584 1.363 . S
C1580 H1557 0.950 . S
C1580 C1579 1.397 . S
C1580 C1581 1.334 . S
C1581 H1558 0.950 . S
C1581 C1580 1.334 . S
C1581 C1582 1.287 . S
C1582 C1581 1.287 . S
C1582 C1583 1.524 . S
C1582 H1601 0.913 . S
C1583 H1559 0.950 . S
C1583 C1582 1.524 . S
C1583 C1584 1.415 . S
C1584 H1560 0.950 . S
C1584 C1579 1.363 . S
C1584 C1583 1.415 . S
C1585 H1561 0.980 . S
C1585 C1586 1.366 . S
C1585 C1587 1.388 . S
C1586 C1585 1.366 . S
C1586 C1590 1.385 . S
C1587 H1562 0.951 1_455 S
C1587 C1585 1.388 . S
C1587 C1588 1.366 . S
C1588 C1587 1.366 . S
C1588 C1589 1.414 . S
C1588 C1591 1.499 . S
C1589 H1563 0.950 . S
C1589 C1588 1.414 . S
C1589 C1590 1.374 . S
C1590 H1564 0.950 . S
C1590 C1586 1.385 . S
C1590 C1589 1.374 . S
C1591 C1588 1.499 . S
C1591 C1592 1.373 . S
C1591 C1593 1.389 . S
C1592 H1565 0.950 . S
C1592 C1578 1.377 . S
C1592 C1591 1.373 . S
C1593 C1577 1.377 . S
C1593 C1591 1.389 . S
C1593 C1594 1.524 1_455 S
C1594 C1593 1.524 1_655 S
C1594 C1595 1.397 1_655 S
C1594 C1599 1.363 . S
C1595 H1566 0.950 . S
C1595 C1594 1.397 1_455 S
C1595 C1596 1.334 1_455 S
C1596 H1567 0.949 . S
C1596 C1595 1.334 1_655 S
C1596 C1597 1.287 . S
C1597 C1596 1.287 . S
C1597 C1598 1.524 . S
C1597 H1600 0.999 . S
C1598 H1568 0.950 . S
C1598 C1597 1.524 . S
C1598 C1599 1.415 . S
C1599 H1569 0.950 . S
C1599 C1594 1.363 . S
C1599 C1598 1.415 . S
H1600 C1597 0.999 . S
H1601 C1582 0.913 . S
H1602 C1620 0.951 . S
H1603 C1622 0.951 . S
H1604 C1624 0.950 1_455 S
H1605 C1625 0.950 1_455 S
H1606 C1627 0.950 . S
H1607 C1630 0.950 . S
H1608 C1631 0.950 . S
H1609 C1633 0.950 . S
H1610 C1634 0.950 . S
H1611 C1635 0.951 1_455 S
H1612 C1637 0.943 1_455 S
H1613 C1639 0.950 . S
H1614 C1640 0.950 . S
H1615 C1642 0.950 . S
H1616 C1645 0.950 . S
H1617 C1646 0.950 . S
H1618 C1648 0.950 . S
H1619 C1649 0.950 . S
C1620 H1602 0.951 . S
C1620 C1621 1.366 . S
C1620 C1622 1.388 . S
C1621 C1620 1.366 . S
C1621 C1625 1.385 . S
C1622 H1603 0.951 . S
C1622 C1620 1.388 . S
C1622 C1623 1.366 . S
C1623 C1622 1.366 . S
C1623 C1624 1.414 . S
C1623 C1626 1.499 . S
C1624 H1604 0.950 1_655 S
C1624 C1623 1.414 . S
C1624 C1625 1.374 . S
C1625 H1605 0.950 1_655 S
C1625 C1621 1.385 . S
C1625 C1624 1.374 . S
C1626 C1623 1.499 . S
C1626 C1627 1.373 . S
C1626 C1628 1.389 1_655 S
C1627 H1606 0.950 . S
C1627 C1626 1.373 . S
C1627 C1643 1.377 . S
C1628 C1626 1.389 1_455 S
C1628 C1629 1.524 . S
C1628 C1642 1.377 . S
C1629 C1628 1.524 . S
C1629 C1630 1.397 . S
C1629 C1634 1.363 . S
C1630 H1607 0.950 . S
C1630 C1629 1.397 . S
C1630 C1631 1.334 . S
C1631 H1608 0.950 . S
C1631 C1630 1.334 . S
C1631 C1632 1.287 . S
C1632 C1631 1.287 . S
C1632 C1633 1.524 . S
C1632 H1651 0.913 . S
C1633 H1609 0.950 . S
C1633 C1632 1.524 . S
C1633 C1634 1.415 . S
C1634 H1610 0.950 . S
C1634 C1629 1.363 . S
C1634 C1633 1.415 . S
C1635 H1611 0.951 1_655 S
C1635 C1636 1.366 . S
C1635 C1637 1.388 . S
C1636 C1635 1.366 . S
C1636 C1640 1.385 . S
C1637 H1612 0.943 1_655 S
C1637 C1635 1.388 . S
C1637 C1638 1.366 . S
C1638 C1637 1.366 . S
C1638 C1639 1.414 . S
C1638 C1641 1.499 . S
C1639 H1613 0.950 . S
C1639 C1638 1.414 . S
C1639 C1640 1.374 . S
C1640 H1614 0.950 . S
C1640 C1636 1.385 . S
C1640 C1639 1.374 . S
C1641 C1638 1.499 . S
C1641 C1642 1.373 1_655 S
C1641 C1643 1.389 . S
C1642 H1615 0.950 . S
C1642 C1628 1.377 . S
C1642 C1641 1.373 1_455 S
C1643 C1627 1.377 . S
C1643 C1641 1.389 . S
C1643 C1644 1.524 . S
C1644 C1643 1.524 . S
C1644 C1645 1.397 . S
C1644 C1649 1.363 . S
C1645 H1616 0.950 . S
C1645 C1644 1.397 . S
C1645 C1646 1.334 . S
C1646 H1617 0.950 . S
C1646 C1645 1.334 . S
C1646 C1647 1.287 . S
C1647 C1646 1.287 . S
C1647 C1648 1.524 . S
C1647 H1650 0.999 . S
C1648 H1618 0.950 . S
C1648 C1647 1.524 . S
C1648 C1649 1.415 . S
C1649 H1619 0.950 . S
C1649 C1644 1.363 . S
C1649 C1648 1.415 . S
H1650 C1647 0.999 . S
H1651 C1632 0.913 . S
H1652 C1670 0.951 . S
H1653 C1672 0.951 . S
H1654 C1674 0.950 . S
H1655 C1675 0.950 . S
H1656 C1677 0.950 . S
H1657 C1680 0.950 . S
H1658 C1681 0.950 . S
H1659 C1683 0.950 . S
H1660 C1684 0.950 . S
H1661 C1685 0.951 . S
H1662 C1687 0.951 . S
H1663 C1689 0.950 . S
H1664 C1690 0.950 . S
H1665 C1692 0.950 . S
H1666 C1695 0.950 . S
H1667 C1696 0.950 . S
H1668 C1698 0.950 . S
H1669 C1699 0.950 . S
C1670 H1652 0.951 . S
C1670 C1671 1.366 . S
C1670 C1672 1.388 . S
C1671 C1670 1.366 . S
C1671 C1675 1.385 . S
C1672 H1653 0.951 . S
C1672 C1670 1.388 . S
C1672 C1673 1.366 . S
C1673 C1672 1.366 . S
C1673 C1674 1.414 . S
C1673 C1676 1.499 . S
C1674 H1654 0.950 . S
C1674 C1673 1.414 . S
C1674 C1675 1.374 . S
C1675 H1655 0.950 . S
C1675 C1671 1.385 . S
C1675 C1674 1.374 . S
C1676 C1673 1.499 . S
C1676 C1677 1.373 . S
C1676 C1678 1.389 . S
C1677 H1656 0.950 . S
C1677 C1676 1.373 . S
C1677 C1693 1.377 . S
C1678 C1676 1.389 . S
C1678 C1679 1.524 . S
C1678 C1692 1.377 . S
C1679 C1678 1.524 . S
C1679 C1680 1.397 . S
C1679 C1684 1.363 . S
C1680 H1657 0.950 . S
C1680 C1679 1.397 . S
C1680 C1681 1.334 . S
C1681 H1658 0.950 . S
C1681 C1680 1.334 . S
C1681 C1682 1.287 . S
C1682 C1681 1.287 . S
C1682 C1683 1.524 . S
C1682 H1701 0.913 . S
C1683 H1659 0.950 . S
C1683 C1682 1.524 . S
C1683 C1684 1.415 . S
C1684 H1660 0.950 . S
C1684 C1679 1.363 . S
C1684 C1683 1.415 . S
C1685 H1661 0.951 . S
C1685 C1686 1.366 . S
C1685 C1687 1.388 . S
C1686 C1685 1.366 . S
C1686 C1690 1.385 . S
C1687 H1662 0.951 . S
C1687 C1685 1.388 . S
C1687 C1688 1.366 . S
C1688 C1687 1.366 . S
C1688 C1689 1.414 . S
C1688 C1691 1.499 . S
C1689 H1663 0.950 . S
C1689 C1688 1.414 . S
C1689 C1690 1.374 . S
C1690 H1664 0.950 . S
C1690 C1686 1.385 . S
C1690 C1689 1.374 . S
C1691 C1688 1.499 . S
C1691 C1692 1.373 . S
C1691 C1693 1.389 . S
C1692 H1665 0.950 . S
C1692 C1678 1.377 . S
C1692 C1691 1.373 . S
C1693 C1677 1.377 . S
C1693 C1691 1.389 . S
C1693 C1694 1.524 . S
C1694 C1693 1.524 . S
C1694 C1695 1.397 . S
C1694 C1699 1.363 . S
C1695 H1666 0.950 . S
C1695 C1694 1.397 . S
C1695 C1696 1.334 . S
C1696 H1667 0.950 . S
C1696 C1695 1.334 . S
C1696 C1697 1.287 . S
C1697 C1696 1.287 . S
C1697 C1698 1.524 . S
C1697 H1700 0.999 . S
C1698 H1668 0.950 . S
C1698 C1697 1.524 . S
C1698 C1699 1.415 . S
C1699 H1669 0.950 . S
C1699 C1694 1.363 . S
C1699 C1698 1.415 . S
H1700 C1697 0.999 . S
H1701 C1682 0.913 . S
H1702 C1720 0.951 . S
H1703 C1722 0.951 . S
H1704 C1724 0.950 . S
H1705 C1725 0.950 . S
H1706 C1727 0.950 . S
H1707 C1730 0.950 . S
H1708 C1731 0.950 . S
H1709 C1733 0.950 . S
H1710 C1734 0.950 . S
H1711 C1735 0.951 . S
H1712 C1737 0.951 . S
H1713 C1739 0.950 . S
H1714 C1740 0.950 . S
H1715 C1742 0.950 . S
H1716 C1745 0.950 . S
H1717 C1746 0.950 . S
H1718 C1748 0.950 . S
H1719 C1749 0.950 . S
C1720 H1702 0.951 . S
C1720 C1721 1.366 . S
C1720 C1722 1.388 . S
C1721 C1720 1.366 . S
C1721 C1725 1.385 . S
C1722 H1703 0.951 . S
C1722 C1720 1.388 . S
C1722 C1723 1.366 . S
C1723 C1722 1.366 . S
C1723 C1724 1.414 . S
C1723 C1726 1.499 . S
C1724 H1704 0.950 . S
C1724 C1723 1.414 . S
C1724 C1725 1.374 . S
C1725 H1705 0.950 . S
C1725 C1721 1.385 . S
C1725 C1724 1.374 . S
C1726 C1723 1.499 . S
C1726 C1727 1.373 . S
C1726 C1728 1.389 1_455 S
C1727 H1706 0.950 . S
C1727 C1726 1.373 . S
C1727 C1743 1.377 . S
C1728 C1726 1.389 1_655 S
C1728 C1729 1.524 . S
C1728 C1742 1.377 . S
C1729 C1728 1.524 . S
C1729 C1730 1.397 . S
C1729 C1734 1.363 . S
C1730 H1707 0.950 . S
C1730 C1729 1.397 . S
C1730 C1731 1.334 . S
C1731 H1708 0.950 . S
C1731 C1730 1.334 . S
C1731 C1732 1.287 . S
C1732 C1731 1.287 . S
C1732 C1733 1.524 . S
C1732 H1751 0.913 . S
C1733 H1709 0.950 . S
C1733 C1732 1.524 . S
C1733 C1734 1.415 . S
C1734 H1710 0.950 . S
C1734 C1729 1.363 . S
C1734 C1733 1.415 . S
C1735 H1711 0.951 . S
C1735 C1736 1.366 . S
C1735 C1737 1.388 . S
C1736 C1735 1.366 . S
C1736 C1740 1.385 . S
C1737 H1712 0.951 . S
C1737 C1735 1.388 . S
C1737 C1738 1.366 . S
C1738 C1737 1.366 . S
C1738 C1739 1.414 . S
C1738 C1741 1.499 1_655 S
C1739 H1713 0.950 . S
C1739 C1738 1.414 . S
C1739 C1740 1.374 . S
C1740 H1714 0.950 . S
C1740 C1736 1.385 . S
C1740 C1739 1.374 . S
C1741 C1738 1.499 1_455 S
C1741 C1742 1.373 1_455 S
C1741 C1743 1.389 . S
C1742 H1715 0.950 . S
C1742 C1728 1.377 . S
C1742 C1741 1.373 1_655 S
C1743 C1727 1.377 . S
C1743 C1741 1.389 . S
C1743 C1744 1.524 . S
C1744 C1743 1.524 . S
C1744 C1745 1.397 . S
C1744 C1749 1.363 . S
C1745 H1716 0.950 . S
C1745 C1744 1.397 . S
C1745 C1746 1.334 . S
C1746 H1717 0.950 . S
C1746 C1745 1.334 . S
C1746 C1747 1.287 . S
C1747 C1746 1.287 . S
C1747 C1748 1.524 . S
C1747 H1750 0.999 . S
C1748 H1718 0.950 . S
C1748 C1747 1.524 . S
C1748 C1749 1.415 . S
C1749 H1719 0.950 . S
C1749 C1744 1.363 . S
C1749 C1748 1.415 . S
H1750 C1747 0.999 . S
H1751 C1732 0.913 . S
H1752 C1770 0.951 . S
H1753 C1772 0.951 . S
H1754 C1774 0.950 . S
H1755 C1775 0.950 . S
H1756 C1777 0.950 . S
H1757 C1780 0.950 . S
H1758 C1781 0.950 . S
H1759 C1783 0.950 . S
H1760 C1784 0.950 . S
H1761 C1785 0.951 . S
H1762 C1787 0.951 . S
H1763 C1789 0.950 . S
H1764 C1790 0.950 . S
H1765 C1792 0.950 1_565 S
H1766 C1795 0.950 . S
H1767 C1796 0.950 . S
H1768 C1798 0.950 . S
H1769 C1799 0.950 . S
C1770 H1752 0.951 . S
C1770 C1771 1.366 . S
C1770 C1772 1.388 . S
C1771 C1770 1.366 . S
C1771 C1775 1.385 . S
C1772 H1753 0.951 . S
C1772 C1770 1.388 . S
C1772 C1773 1.366 . S
C1773 C1772 1.366 . S
C1773 C1774 1.414 . S
C1773 C1776 1.499 . S
C1774 H1754 0.950 . S
C1774 C1773 1.414 . S
C1774 C1775 1.374 . S
C1775 H1755 0.950 . S
C1775 C1771 1.385 . S
C1775 C1774 1.374 . S
C1776 C1773 1.499 . S
C1776 C1777 1.373 . S
C1776 C1778 1.389 . S
C1777 H1756 0.950 . S
C1777 C1776 1.373 . S
C1777 C1793 1.377 . S
C1778 C1776 1.389 . S
C1778 C1779 1.524 1_545 S
C1778 C1792 1.377 . S
C1779 C1778 1.524 1_565 S
C1779 C1780 1.397 . S
C1779 C1784 1.363 . S
C1780 H1757 0.950 . S
C1780 C1779 1.397 . S
C1780 C1781 1.334 . S
C1781 H1758 0.950 . S
C1781 C1780 1.334 . S
C1781 C1782 1.287 . S
C1782 C1781 1.287 . S
C1782 C1783 1.524 . S
C1782 H1801 0.913 . S
C1783 H1759 0.950 . S
C1783 C1782 1.524 . S
C1783 C1784 1.415 . S
C1784 H1760 0.950 . S
C1784 C1779 1.363 . S
C1784 C1783 1.415 . S
C1785 H1761 0.951 . S
C1785 C1786 1.366 . S
C1785 C1787 1.388 . S
C1786 C1785 1.366 . S
C1786 C1790 1.385 . S
C1787 H1762 0.951 . S
C1787 C1785 1.388 . S
C1787 C1788 1.366 . S
C1788 C1787 1.366 . S
C1788 C1789 1.414 . S
C1788 C1791 1.499 . S
C1789 H1763 0.950 . S
C1789 C1788 1.414 . S
C1789 C1790 1.374 . S
C1790 H1764 0.950 . S
C1790 C1786 1.385 . S
C1790 C1789 1.374 . S
C1791 C1788 1.499 . S
C1791 C1792 1.373 . S
C1791 C1793 1.389 . S
C1792 H1765 0.950 1_545 S
C1792 C1778 1.377 . S
C1792 C1791 1.373 . S
C1793 C1777 1.377 . S
C1793 C1791 1.389 . S
C1793 C1794 1.524 . S
C1794 C1793 1.524 . S
C1794 C1795 1.397 . S
C1794 C1799 1.363 . S
C1795 H1766 0.950 . S
C1795 C1794 1.397 . S
C1795 C1796 1.334 . S
C1796 H1767 0.950 . S
C1796 C1795 1.334 . S
C1796 C1797 1.287 . S
C1797 C1796 1.287 . S
C1797 C1798 1.524 . S
C1797 H1800 0.999 . S
C1798 H1768 0.950 . S
C1798 C1797 1.524 . S
C1798 C1799 1.415 . S
C1799 H1769 0.950 . S
C1799 C1794 1.363 . S
C1799 C1798 1.415 . S
H1800 C1797 0.999 . S
H1801 C1782 0.913 . S
H1802 C1820 0.951 . S
H1803 C1822 0.951 . S
H1804 C1824 0.950 . S
H1805 C1825 0.950 . S
H1806 C1827 0.950 . S
H1807 C1830 0.950 . S
H1808 C1831 0.950 . S
H1809 C1833 0.950 . S
H1810 C1834 0.950 . S
H1811 C1835 0.951 . S
H1812 C1837 0.951 . S
H1813 C1839 0.950 . S
H1814 C1840 0.950 . S
H1815 C1842 0.950 . S
H1816 C1845 0.950 . S
H1817 C1846 0.950 . S
H1818 C1848 0.950 . S
H1819 C1849 0.950 . S
C1820 H1802 0.951 . S
C1820 C1821 1.366 . S
C1820 C1822 1.388 . S
C1821 C1820 1.366 . S
C1821 C1825 1.385 . S
C1822 H1803 0.951 . S
C1822 C1820 1.388 . S
C1822 C1823 1.366 . S
C1823 C1822 1.366 . S
C1823 C1824 1.414 . S
C1823 C1826 1.499 . S
C1824 H1804 0.950 . S
C1824 C1823 1.414 . S
C1824 C1825 1.374 . S
C1825 H1805 0.950 . S
C1825 C1821 1.385 . S
C1825 C1824 1.374 . S
C1826 C1823 1.499 . S
C1826 C1827 1.373 . S
C1826 C1828 1.389 . S
C1827 H1806 0.950 . S
C1827 C1826 1.373 . S
C1827 C1843 1.377 . S
C1828 C1826 1.389 . S
C1828 C1829 1.524 . S
C1828 C1842 1.377 . S
C1829 C1828 1.524 . S
C1829 C1830 1.397 . S
C1829 C1834 1.363 . S
C1830 H1807 0.950 . S
C1830 C1829 1.397 . S
C1830 C1831 1.334 . S
C1831 H1808 0.950 . S
C1831 C1830 1.334 . S
C1831 C1832 1.287 . S
C1832 C1831 1.287 . S
C1832 C1833 1.524 . S
C1832 H1851 0.913 . S
C1833 H1809 0.950 . S
C1833 C1832 1.524 . S
C1833 C1834 1.415 . S
C1834 H1810 0.950 . S
C1834 C1829 1.363 . S
C1834 C1833 1.415 . S
C1835 H1811 0.951 . S
C1835 C1836 1.366 . S
C1835 C1837 1.388 . S
C1836 C1835 1.366 . S
C1836 C1840 1.385 . S
C1837 H1812 0.951 . S
C1837 C1835 1.388 . S
C1837 C1838 1.366 . S
C1838 C1837 1.366 . S
C1838 C1839 1.414 . S
C1838 C1841 1.499 . S
C1839 H1813 0.950 . S
C1839 C1838 1.414 . S
C1839 C1840 1.374 . S
C1840 H1814 0.950 . S
C1840 C1836 1.385 . S
C1840 C1839 1.374 . S
C1841 C1838 1.499 . S
C1841 C1842 1.373 . S
C1841 C1843 1.389 . S
C1842 H1815 0.950 . S
C1842 C1828 1.377 . S
C1842 C1841 1.373 . S
C1843 C1827 1.377 . S
C1843 C1841 1.389 . S
C1843 C1844 1.524 . S
C1844 C1843 1.524 . S
C1844 C1845 1.397 . S
C1844 C1849 1.363 . S
C1845 H1816 0.950 . S
C1845 C1844 1.397 . S
C1845 C1846 1.334 . S
C1846 H1817 0.950 . S
C1846 C1845 1.334 . S
C1846 C1847 1.287 . S
C1847 C1846 1.287 . S
C1847 C1848 1.524 . S
C1847 H1850 0.999 . S
C1848 H1818 0.950 . S
C1848 C1847 1.524 . S
C1848 C1849 1.415 . S
C1849 H1819 0.950 . S
C1849 C1844 1.363 . S
C1849 C1848 1.415 . S
H1850 C1847 0.999 . S
H1851 C1832 0.913 . S
H1852 C1870 0.951 . S
H1853 C1872 0.951 . S
H1854 C1874 0.950 . S
H1855 C1875 0.950 . S
H1856 C1877 0.950 . S
H1857 C1880 0.950 . S
H1858 C1881 0.950 . S
H1859 C1883 0.950 . S
H1860 C1884 0.950 . S
H1861 C1885 0.951 . S
H1862 C1887 0.951 . S
H1863 C1889 0.955 . S
H1864 C1890 0.950 1_545 S
H1865 C1892 0.950 . S
H1866 C1895 0.934 1_545 S
H1867 C1896 0.951 . S
H1868 C1898 0.950 . S
H1869 C1899 0.950 . S
C1870 H1852 0.951 . S
C1870 C1871 1.366 1_545 S
C1870 C1872 1.388 . S
C1871 C1870 1.366 1_565 S
C1871 C1875 1.385 . S
C1872 H1853 0.951 . S
C1872 C1870 1.388 . S
C1872 C1873 1.366 1_545 S
C1873 C1872 1.366 1_565 S
C1873 C1874 1.414 . S
C1873 C1876 1.499 . S
C1874 H1854 0.950 . S
C1874 C1873 1.414 . S
C1874 C1875 1.374 . S
C1875 H1855 0.950 . S
C1875 C1871 1.385 . S
C1875 C1874 1.374 . S
C1876 C1873 1.499 . S
C1876 C1877 1.373 . S
C1876 C1878 1.389 . S
C1877 H1856 0.950 . S
C1877 C1876 1.373 . S
C1877 C1893 1.377 . S
C1878 C1876 1.389 . S
C1878 C1879 1.524 . S
C1878 C1892 1.377 . S
C1879 C1878 1.524 . S
C1879 C1880 1.397 . S
C1879 C1884 1.363 1_565 S
C1880 H1857 0.950 . S
C1880 C1879 1.397 . S
C1880 C1881 1.334 . S
C1881 H1858 0.950 . S
C1881 C1880 1.334 . S
C1881 C1882 1.287 . S
C1882 C1881 1.287 . S
C1882 C1883 1.524 1_565 S
C1882 H1901 0.913 . S
C1883 H1859 0.950 . S
C1883 C1882 1.524 1_545 S
C1883 C1884 1.415 . S
C1884 H1860 0.950 . S
C1884 C1879 1.363 1_545 S
C1884 C1883 1.415 . S
C1885 H1861 0.951 . S
C1885 C1886 1.366 . S
C1885 C1887 1.388 . S
C1886 C1885 1.366 . S
C1886 C1890 1.385 . S
C1887 H1862 0.951 . S
C1887 C1885 1.388 . S
C1887 C1888 1.366 . S
C1888 C1887 1.366 . S
C1888 C1889 1.410 1_565 S
C1888 C1891 1.499 . S
C1889 H1863 0.955 . S
C1889 C1888 1.410 1_545 S
C1889 C1890 1.373 1_545 S
C1890 H1864 0.950 1_565 S
C1890 C1886 1.385 . S
C1890 C1889 1.373 1_565 S
C1891 C1888 1.499 . S
C1891 C1892 1.373 . S
C1891 C1893 1.389 . S
C1892 H1865 0.950 . S
C1892 C1878 1.377 . S
C1892 C1891 1.373 . S
C1893 C1877 1.377 . S
C1893 C1891 1.389 . S
C1893 C1894 1.524 . S
C1894 C1893 1.524 . S
C1894 C1895 1.413 . S
C1894 C1899 1.363 . S
C1895 H1866 0.934 1_565 S
C1895 C1894 1.413 . S
C1895 C1896 1.333 1_565 S
C1896 H1867 0.951 . S
C1896 C1895 1.333 1_545 S
C1896 C1897 1.286 1_545 S
C1897 C1896 1.286 1_565 S
C1897 C1898 1.524 . S
C1897 H1900 0.999 . S
C1898 H1868 0.950 . S
C1898 C1897 1.524 . S
C1898 C1899 1.415 . S
C1899 H1869 0.950 . S
C1899 C1894 1.363 . S
C1899 C1898 1.415 . S
H1900 C1897 0.999 . S
H1901 C1882 0.913 . S
H1902 C1920 0.951 . S
H1903 C1922 0.951 . S
H1904 C1924 0.950 . S
H1905 C1925 0.950 . S
H1906 C1927 0.950 . S
H1907 C1930 0.950 . S
H1908 C1931 0.950 . S
H1909 C1933 0.950 . S
H1910 C1934 0.950 . S
H1911 C1935 0.951 . S
H1912 C1937 0.951 . S
H1913 C1939 0.950 . S
H1914 C1940 0.950 . S
H1915 C1942 0.950 . S
H1916 C1945 0.950 . S
H1917 C1946 0.950 . S
H1918 C1948 0.950 . S
H1919 C1949 0.950 . S
C1920 H1902 0.951 . S
C1920 C1921 1.366 . S
C1920 C1922 1.388 . S
C1921 C1920 1.366 . S
C1921 C1925 1.385 . S
C1922 H1903 0.951 . S
C1922 C1920 1.388 . S
C1922 C1923 1.366 . S
C1923 C1922 1.366 . S
C1923 C1924 1.414 . S
C1923 C1926 1.499 . S
C1924 H1904 0.950 . S
C1924 C1923 1.414 . S
C1924 C1925 1.374 . S
C1925 H1905 0.950 . S
C1925 C1921 1.385 . S
C1925 C1924 1.374 . S
C1926 C1923 1.499 . S
C1926 C1927 1.373 . S
C1926 C1928 1.389 . S
C1927 H1906 0.950 . S
C1927 C1926 1.373 . S
C1927 C1943 1.377 . S
C1928 C1926 1.389 . S
C1928 C1929 1.524 . S
C1928 C1942 1.377 . S
C1929 C1928 1.524 . S
C1929 C1930 1.397 . S
C1929 C1934 1.363 . S
C1930 H1907 0.950 . S
C1930 C1929 1.397 . S
C1930 C1931 1.334 . S
C1931 H1908 0.950 . S
C1931 C1930 1.334 . S
C1931 C1932 1.287 . S
C1932 C1931 1.287 . S
C1932 C1933 1.524 . S
C1932 H1951 0.913 . S
C1933 H1909 0.950 . S
C1933 C1932 1.524 . S
C1933 C1934 1.415 . S
C1934 H1910 0.950 . S
C1934 C1929 1.363 . S
C1934 C1933 1.415 . S
C1935 H1911 0.951 . S
C1935 C1936 1.366 . S
C1935 C1937 1.388 . S
C1936 C1935 1.366 . S
C1936 C1940 1.385 . S
C1937 H1912 0.951 . S
C1937 C1935 1.388 . S
C1937 C1938 1.366 . S
C1938 C1937 1.366 . S
C1938 C1939 1.414 . S
C1938 C1941 1.499 . S
C1939 H1913 0.950 . S
C1939 C1938 1.414 . S
C1939 C1940 1.374 . S
C1940 H1914 0.950 . S
C1940 C1936 1.385 . S
C1940 C1939 1.374 . S
C1941 C1938 1.499 . S
C1941 C1942 1.373 . S
C1941 C1943 1.389 . S
C1942 H1915 0.950 . S
C1942 C1928 1.377 . S
C1942 C1941 1.373 . S
C1943 C1927 1.377 . S
C1943 C1941 1.389 . S
C1943 C1944 1.524 . S
C1944 C1943 1.524 . S
C1944 C1945 1.397 . S
C1944 C1949 1.363 . S
C1945 H1916 0.950 . S
C1945 C1944 1.397 . S
C1945 C1946 1.334 . S
C1946 H1917 0.950 . S
C1946 C1945 1.334 . S
C1946 C1947 1.287 . S
C1947 C1946 1.287 . S
C1947 C1948 1.524 . S
C1947 H1950 0.999 . S
C1948 H1918 0.950 . S
C1948 C1947 1.524 . S
C1948 C1949 1.415 . S
C1949 H1919 0.950 . S
C1949 C1944 1.363 . S
C1949 C1948 1.415 . S
H1950 C1947 0.999 . S
H1951 C1932 0.913 . S
H1952 C1970 0.951 . S
H1953 C1972 0.951 . S
H1954 C1974 0.950 . S
H1955 C1975 0.950 . S
H1956 C1977 0.950 . S
H1957 C1980 0.950 . S
H1958 C1981 0.950 . S
H1959 C1983 0.950 . S
H1960 C1984 0.950 . S
H1961 C1985 0.951 . S
H1962 C1987 0.951 . S
H1963 C1989 0.950 . S
H1964 C1990 0.950 . S
H1965 C1992 0.950 . S
H1966 C1995 0.950 . S
H1967 C1996 0.950 . S
H1968 C1998 0.950 . S
H1969 C1999 0.950 . S
C1970 H1952 0.951 . S
C1970 C1971 1.366 . S
C1970 C1972 1.388 . S
C1971 C1970 1.366 . S
C1971 C1975 1.385 . S
C1972 H1953 0.951 . S
C1972 C1970 1.388 . S
C1972 C1973 1.366 . S
C1973 C1972 1.366 . S
C1973 C1974 1.414 . S
C1973 C1976 1.499 . S
C1974 H1954 0.950 . S
C1974 C1973 1.414 . S
C1974 C1975 1.374 . S
C1975 H1955 0.950 . S
C1975 C1971 1.385 . S
C1975 C1974 1.374 . S
C1976 C1973 1.499 . S
C1976 C1977 1.373 . S
C1976 C1978 1.389 . S
C1977 H1956 0.950 . S
C1977 C1976 1.373 . S
C1977 C1993 1.377 . S
C1978 C1976 1.389 . S
C1978 C1979 1.524 1_554 S
C1978 C1992 1.377 . S
C1979 C1978 1.524 1_556 S
C1979 C1980 1.397 . S
C1979 C1984 1.363 . S
C1980 H1957 0.950 . S
C1980 C1979 1.397 . S
C1980 C1981 1.334 . S
C1981 H1958 0.950 . S
C1981 C1980 1.334 . S
C1981 C1982 1.287 . S
C1982 C1981 1.287 . S
C1982 C1983 1.524 . S
C1982 H2001 0.913 . S
C1983 H1959 0.950 . S
C1983 C1982 1.524 . S
C1983 C1984 1.415 . S
C1984 H1960 0.950 . S
C1984 C1979 1.363 . S
C1984 C1983 1.415 . S
C1985 H1961 0.951 . S
C1985 C1986 1.366 . S
C1985 C1987 1.388 . S
C1986 C1985 1.366 . S
C1986 C1990 1.385 . S
C1987 H1962 0.951 . S
C1987 C1985 1.388 . S
C1987 C1988 1.366 . S
C1988 C1987 1.366 . S
C1988 C1989 1.414 . S
C1988 C1991 1.499 . S
C1989 H1963 0.950 . S
C1989 C1988 1.414 . S
C1989 C1990 1.374 . S
C1990 H1964 0.950 . S
C1990 C1986 1.385 . S
C1990 C1989 1.374 . S
C1991 C1988 1.499 . S
C1991 C1992 1.373 . S
C1991 C1993 1.389 . S
C1992 H1965 0.950 . S
C1992 C1978 1.377 . S
C1992 C1991 1.373 . S
C1993 C1977 1.377 . S
C1993 C1991 1.389 . S
C1993 C1994 1.524 . S
C1994 C1993 1.524 . S
C1994 C1995 1.397 . S
C1994 C1999 1.363 . S
C1995 H1966 0.950 . S
C1995 C1994 1.397 . S
C1995 C1996 1.334 . S
C1996 H1967 0.950 . S
C1996 C1995 1.334 . S
C1996 C1997 1.287 . S
C1997 C1996 1.287 . S
C1997 C1998 1.524 . S
C1997 H2000 0.999 . S
C1998 H1968 0.950 . S
C1998 C1997 1.524 . S
C1998 C1999 1.415 . S
C1999 H1969 0.950 . S
C1999 C1994 1.363 . S
C1999 C1998 1.415 . S
H2000 C1997 0.999 . S
H2001 C1982 0.913 . S
H2002 C2020 0.951 . S
H2003 C2022 0.951 . S
H2004 C2024 0.950 . S
H2005 C2025 0.950 . S
H2006 C2027 0.950 . S
H2007 C2030 0.950 . S
H2008 C2031 0.950 . S
H2009 C2033 0.950 . S
H2010 C2034 0.950 . S
H2011 C2035 0.951 . S
H2012 C2037 0.951 . S
H2013 C2039 0.950 . S
H2014 C2040 0.950 . S
H2015 C2042 0.950 . S
H2016 C2045 0.950 . S
H2017 C2046 0.950 . S
H2018 C2048 0.950 . S
H2019 C2049 0.950 . S
C2020 H2002 0.951 . S
C2020 C2021 1.366 . S
C2020 C2022 1.388 . S
C2021 C2020 1.366 . S
C2021 C2025 1.385 . S
C2022 H2003 0.951 . S
C2022 C2020 1.388 . S
C2022 C2023 1.366 . S
C2023 C2022 1.366 . S
C2023 C2024 1.414 . S
C2023 C2026 1.499 . S
C2024 H2004 0.950 . S
C2024 C2023 1.414 . S
C2024 C2025 1.374 . S
C2025 H2005 0.950 . S
C2025 C2021 1.385 . S
C2025 C2024 1.374 . S
C2026 C2023 1.499 . S
C2026 C2027 1.373 . S
C2026 C2028 1.389 . S
C2027 H2006 0.950 . S
C2027 C2026 1.373 . S
C2027 C2043 1.377 . S
C2028 C2026 1.389 . S
C2028 C2029 1.524 . S
C2028 C2042 1.377 . S
C2029 C2028 1.524 . S
C2029 C2030 1.397 . S
C2029 C2034 1.363 . S
C2030 H2007 0.950 . S
C2030 C2029 1.397 . S
C2030 C2031 1.334 . S
C2031 H2008 0.950 . S
C2031 C2030 1.334 . S
C2031 C2032 1.287 . S
C2032 C2031 1.287 . S
C2032 C2033 1.524 . S
C2032 H2051 0.913 . S
C2033 H2009 0.950 . S
C2033 C2032 1.524 . S
C2033 C2034 1.415 . S
C2034 H2010 0.950 . S
C2034 C2029 1.363 . S
C2034 C2033 1.415 . S
C2035 H2011 0.951 . S
C2035 C2036 1.366 . S
C2035 C2037 1.388 . S
C2036 C2035 1.366 . S
C2036 C2040 1.385 . S
C2037 H2012 0.951 . S
C2037 C2035 1.388 . S
C2037 C2038 1.366 . S
C2038 C2037 1.366 . S
C2038 C2039 1.414 . S
C2038 C2041 1.499 . S
C2039 H2013 0.950 . S
C2039 C2038 1.414 . S
C2039 C2040 1.374 . S
C2040 H2014 0.950 . S
C2040 C2036 1.385 . S
C2040 C2039 1.374 . S
C2041 C2038 1.499 . S
C2041 C2042 1.373 . S
C2041 C2043 1.389 . S
C2042 H2015 0.950 . S
C2042 C2028 1.377 . S
C2042 C2041 1.373 . S
C2043 C2027 1.377 . S
C2043 C2041 1.389 . S
C2043 C2044 1.524 . S
C2044 C2043 1.524 . S
C2044 C2045 1.397 . S
C2044 C2049 1.363 . S
C2045 H2016 0.950 . S
C2045 C2044 1.397 . S
C2045 C2046 1.334 . S
C2046 H2017 0.950 . S
C2046 C2045 1.334 . S
C2046 C2047 1.287 . S
C2047 C2046 1.287 . S
C2047 C2048 1.524 . S
C2047 H2050 0.999 . S
C2048 H2018 0.950 . S
C2048 C2047 1.524 . S
C2048 C2049 1.415 . S
C2049 H2019 0.950 . S
C2049 C2044 1.363 . S
C2049 C2048 1.415 . S
H2050 C2047 0.999 . S
H2051 C2032 0.913 . S
H2052 C2070 0.951 . S
H2053 C2072 0.951 . S
H2054 C2074 0.950 . S
H2055 C2075 0.950 . S
H2056 C2077 0.950 . S
H2057 C2080 0.950 . S
H2058 C2081 0.950 . S
H2059 C2083 0.950 . S
H2060 C2084 0.950 . S
H2061 C2085 0.951 . S
H2062 C2087 0.951 . S
H2063 C2089 0.950 . S
H2064 C2090 0.950 . S
H2065 C2092 0.950 . S
H2066 C2095 0.950 . S
H2067 C2096 0.950 . S
H2068 C2098 0.950 . S
H2069 C2099 0.950 . S
C2070 H2052 0.951 . S
C2070 C2071 1.366 . S
C2070 C2072 1.388 . S
C2071 C2070 1.366 . S
C2071 C2075 1.385 . S
C2072 H2053 0.951 . S
C2072 C2070 1.388 . S
C2072 C2073 1.366 . S
C2073 C2072 1.366 . S
C2073 C2074 1.414 . S
C2073 C2076 1.499 . S
C2074 H2054 0.950 . S
C2074 C2073 1.414 . S
C2074 C2075 1.374 . S
C2075 H2055 0.950 . S
C2075 C2071 1.385 . S
C2075 C2074 1.374 . S
C2076 C2073 1.499 . S
C2076 C2077 1.373 . S
C2076 C2078 1.389 . S
C2077 H2056 0.950 . S
C2077 C2076 1.373 . S
C2077 C2093 1.377 . S
C2078 C2076 1.389 . S
C2078 C2079 1.524 . S
C2078 C2092 1.377 . S
C2079 C2078 1.524 . S
C2079 C2080 1.397 . S
C2079 C2084 1.363 . S
C2080 H2057 0.950 . S
C2080 C2079 1.397 . S
C2080 C2081 1.334 . S
C2081 H2058 0.950 . S
C2081 C2080 1.334 . S
C2081 C2082 1.287 . S
C2082 C2081 1.287 . S
C2082 C2083 1.524 . S
C2082 H2101 0.913 . S
C2083 H2059 0.950 . S
C2083 C2082 1.524 . S
C2083 C2084 1.415 . S
C2084 H2060 0.950 . S
C2084 C2079 1.363 . S
C2084 C2083 1.415 . S
C2085 H2061 0.951 . S
C2085 C2086 1.366 . S
C2085 C2087 1.388 . S
C2086 C2085 1.366 . S
C2086 C2090 1.385 . S
C2087 H2062 0.951 . S
C2087 C2085 1.388 . S
C2087 C2088 1.366 . S
C2088 C2087 1.366 . S
C2088 C2089 1.414 . S
C2088 C2091 1.499 . S
C2089 H2063 0.950 . S
C2089 C2088 1.414 . S
C2089 C2090 1.374 . S
C2090 H2064 0.950 . S
C2090 C2086 1.385 . S
C2090 C2089 1.374 . S
C2091 C2088 1.499 . S
C2091 C2092 1.373 . S
C2091 C2093 1.389 . S
C2092 H2065 0.950 . S
C2092 C2078 1.377 . S
C2092 C2091 1.373 . S
C2093 C2077 1.377 . S
C2093 C2091 1.389 . S
C2093 C2094 1.524 . S
C2094 C2093 1.524 . S
C2094 C2095 1.397 . S
C2094 C2099 1.363 . S
C2095 H2066 0.950 . S
C2095 C2094 1.397 . S
C2095 C2096 1.334 . S
C2096 H2067 0.950 . S
C2096 C2095 1.334 . S
C2096 C2097 1.287 . S
C2097 C2096 1.287 . S
C2097 C2098 1.524 . S
C2097 H2100 0.999 . S
C2098 H2068 0.950 . S
C2098 C2097 1.524 . S
C2098 C2099 1.415 . S
C2099 H2069 0.950 . S
C2099 C2094 1.363 . S
C2099 C2098 1.415 . S
H2100 C2097 0.999 . S
H2101 C2082 0.913 . S
H2102 C2120 0.951 . S
H2103 C2122 0.951 . S
H2104 C2124 0.950 . S
H2105 C2125 0.950 . S
H2106 C2127 0.950 . S
H2107 C2130 0.950 . S
H2108 C2131 0.950 . S
H2109 C2133 0.950 . S
H2110 C2134 0.950 . S
H2111 C2135 0.951 . S
H2112 C2137 0.951 . S
H2113 C2139 0.950 . S
H2114 C2140 0.950 . S
H2115 C2142 0.950 . S
H2116 C2145 0.950 . S
H2117 C2146 0.950 . S
H2118 C2148 0.950 . S
H2119 C2149 0.950 . S
C2120 H2102 0.951 . S
C2120 C2121 1.366 . S
C2120 C2122 1.388 . S
C2121 C2120 1.366 . S
C2121 C2125 1.385 . S
C2122 H2103 0.951 . S
C2122 C2120 1.388 . S
C2122 C2123 1.366 . S
C2123 C2122 1.366 . S
C2123 C2124 1.414 . S
C2123 C2126 1.499 . S
C2124 H2104 0.950 . S
C2124 C2123 1.414 . S
C2124 C2125 1.374 . S
C2125 H2105 0.950 . S
C2125 C2121 1.385 . S
C2125 C2124 1.374 . S
C2126 C2123 1.499 . S
C2126 C2127 1.373 . S
C2126 C2128 1.389 . S
C2127 H2106 0.950 . S
C2127 C2126 1.373 . S
C2127 C2143 1.377 . S
C2128 C2126 1.389 . S
C2128 C2129 1.524 . S
C2128 C2142 1.377 . S
C2129 C2128 1.524 . S
C2129 C2130 1.397 . S
C2129 C2134 1.363 . S
C2130 H2107 0.950 . S
C2130 C2129 1.397 . S
C2130 C2131 1.334 . S
C2131 H2108 0.950 . S
C2131 C2130 1.334 . S
C2131 C2132 1.287 . S
C2132 C2131 1.287 . S
C2132 C2133 1.524 . S
C2132 H2151 0.913 . S
C2133 H2109 0.950 . S
C2133 C2132 1.524 . S
C2133 C2134 1.415 . S
C2134 H2110 0.950 . S
C2134 C2129 1.363 . S
C2134 C2133 1.415 . S
C2135 H2111 0.951 . S
C2135 C2136 1.366 . S
C2135 C2137 1.388 . S
C2136 C2135 1.366 . S
C2136 C2140 1.385 . S
C2137 H2112 0.951 . S
C2137 C2135 1.388 . S
C2137 C2138 1.366 . S
C2138 C2137 1.366 . S
C2138 C2139 1.414 . S
C2138 C2141 1.499 . S
C2139 H2113 0.950 . S
C2139 C2138 1.414 . S
C2139 C2140 1.374 . S
C2140 H2114 0.950 . S
C2140 C2136 1.385 . S
C2140 C2139 1.374 . S
C2141 C2138 1.499 . S
C2141 C2142 1.373 . S
C2141 C2143 1.389 . S
C2142 H2115 0.950 . S
C2142 C2128 1.377 . S
C2142 C2141 1.373 . S
C2143 C2127 1.377 . S
C2143 C2141 1.389 . S
C2143 C2144 1.524 . S
C2144 C2143 1.524 . S
C2144 C2145 1.397 . S
C2144 C2149 1.363 . S
C2145 H2116 0.950 . S
C2145 C2144 1.397 . S
C2145 C2146 1.334 . S
C2146 H2117 0.950 . S
C2146 C2145 1.334 . S
C2146 C2147 1.287 . S
C2147 C2146 1.287 . S
C2147 C2148 1.524 . S
C2147 H2150 0.999 . S
C2148 H2118 0.950 . S
C2148 C2147 1.524 . S
C2148 C2149 1.415 . S
C2149 H2119 0.950 . S
C2149 C2144 1.363 . S
C2149 C2148 1.415 . S
H2150 C2147 0.999 . S
H2151 C2132 0.913 . S
H2152 C2170 0.951 . S
H2153 C2172 0.951 . S
H2154 C2174 0.950 . S
H2155 C2175 0.950 . S
H2156 C2177 0.950 . S
H2157 C2180 0.950 . S
H2158 C2181 0.950 . S
H2159 C2183 0.950 . S
H2160 C2184 0.950 . S
H2161 C2185 0.951 . S
H2162 C2187 0.951 . S
H2163 C2189 0.950 . S
H2164 C2190 0.950 . S
H2165 C2192 0.950 . S
H2166 C2195 0.950 . S
H2167 C2196 0.950 . S
H2168 C2198 0.950 . S
H2169 C2199 0.950 . S
C2170 H2152 0.951 . S
C2170 C2171 1.366 . S
C2170 C2172 1.388 . S
C2171 C2170 1.366 . S
C2171 C2175 1.385 . S
C2172 H2153 0.951 . S
C2172 C2170 1.388 . S
C2172 C2173 1.366 . S
C2173 C2172 1.366 . S
C2173 C2174 1.414 . S
C2173 C2176 1.499 . S
C2174 H2154 0.950 . S
C2174 C2173 1.414 . S
C2174 C2175 1.374 . S
C2175 H2155 0.950 . S
C2175 C2171 1.385 . S
C2175 C2174 1.374 . S
C2176 C2173 1.499 . S
C2176 C2177 1.373 . S
C2176 C2178 1.389 . S
C2177 H2156 0.950 . S
C2177 C2176 1.373 . S
C2177 C2193 1.377 . S
C2178 C2176 1.389 . S
C2178 C2179 1.524 . S
C2178 C2192 1.377 . S
C2179 C2178 1.524 . S
C2179 C2180 1.397 . S
C2179 C2184 1.363 . S
C2180 H2157 0.950 . S
C2180 C2179 1.397 . S
C2180 C2181 1.334 . S
C2181 H2158 0.950 . S
C2181 C2180 1.334 . S
C2181 C2182 1.287 . S
C2182 C2181 1.287 . S
C2182 C2183 1.524 . S
C2182 H2201 0.913 . S
C2183 H2159 0.950 . S
C2183 C2182 1.524 . S
C2183 C2184 1.415 . S
C2184 H2160 0.950 . S
C2184 C2179 1.363 . S
C2184 C2183 1.415 . S
C2185 H2161 0.951 . S
C2185 C2186 1.366 . S
C2185 C2187 1.388 . S
C2186 C2185 1.366 . S
C2186 C2190 1.385 . S
C2187 H2162 0.951 . S
C2187 C2185 1.388 . S
C2187 C2188 1.366 . S
C2188 C2187 1.366 . S
C2188 C2189 1.414 . S
C2188 C2191 1.499 . S
C2189 H2163 0.950 . S
C2189 C2188 1.414 . S
C2189 C2190 1.374 . S
C2190 H2164 0.950 . S
C2190 C2186 1.385 . S
C2190 C2189 1.374 . S
C2191 C2188 1.499 . S
C2191 C2192 1.373 . S
C2191 C2193 1.389 . S
C2192 H2165 0.950 . S
C2192 C2178 1.377 . S
C2192 C2191 1.373 . S
C2193 C2177 1.377 . S
C2193 C2191 1.389 . S
C2193 C2194 1.524 . S
C2194 C2193 1.524 . S
C2194 C2195 1.397 . S
C2194 C2199 1.363 . S
C2195 H2166 0.950 . S
C2195 C2194 1.397 . S
C2195 C2196 1.334 . S
C2196 H2167 0.950 . S
C2196 C2195 1.334 . S
C2196 C2197 1.287 . S
C2197 C2196 1.287 . S
C2197 C2198 1.524 . S
C2197 H2200 0.999 . S
C2198 H2168 0.950 . S
C2198 C2197 1.524 . S
C2198 C2199 1.415 . S
C2199 H2169 0.950 . S
C2199 C2194 1.363 . S
C2199 C2198 1.415 . S
H2200 C2197 0.999 . S
H2201 C2182 0.913 . S
H2202 C2220 0.951 . S
H2203 C2222 0.951 . S
H2204 C2224 0.950 . S
H2205 C2225 0.950 . S
H2206 C2227 0.950 . S
H2207 C2230 0.950 . S
H2208 C2231 0.950 . S
H2209 C2233 0.950 . S
H2210 C2234 0.950 . S
H2211 C2235 0.951 . S
H2212 C2237 0.951 . S
H2213 C2239 0.950 . S
H2214 C2240 0.950 . S
H2215 C2242 0.950 . S
H2216 C2245 0.950 . S
H2217 C2246 0.950 . S
H2218 C2248 0.950 . S
H2219 C2249 0.950 . S
C2220 H2202 0.951 . S
C2220 C2221 1.366 . S
C2220 C2222 1.388 . S
C2221 C2220 1.366 . S
C2221 C2225 1.385 . S
C2222 H2203 0.951 . S
C2222 C2220 1.388 . S
C2222 C2223 1.366 . S
C2223 C2222 1.366 . S
C2223 C2224 1.414 . S
C2223 C2226 1.499 . S
C2224 H2204 0.950 . S
C2224 C2223 1.414 . S
C2224 C2225 1.374 . S
C2225 H2205 0.950 . S
C2225 C2221 1.385 . S
C2225 C2224 1.374 . S
C2226 C2223 1.499 . S
C2226 C2227 1.373 . S
C2226 C2228 1.389 . S
C2227 H2206 0.950 . S
C2227 C2226 1.373 . S
C2227 C2243 1.377 . S
C2228 C2226 1.389 . S
C2228 C2229 1.524 . S
C2228 C2242 1.377 . S
C2229 C2228 1.524 . S
C2229 C2230 1.397 . S
C2229 C2234 1.363 . S
C2230 H2207 0.950 . S
C2230 C2229 1.397 . S
C2230 C2231 1.334 . S
C2231 H2208 0.950 . S
C2231 C2230 1.334 . S
C2231 C2232 1.287 . S
C2232 C2231 1.287 . S
C2232 C2233 1.524 . S
C2232 H2251 0.913 . S
C2233 H2209 0.950 . S
C2233 C2232 1.524 . S
C2233 C2234 1.415 . S
C2234 H2210 0.950 . S
C2234 C2229 1.363 . S
C2234 C2233 1.415 . S
C2235 H2211 0.951 . S
C2235 C2236 1.366 . S
C2235 C2237 1.388 . S
C2236 C2235 1.366 . S
C2236 C2240 1.385 . S
C2237 H2212 0.951 . S
C2237 C2235 1.388 . S
C2237 C2238 1.366 . S
C2238 C2237 1.366 . S
C2238 C2239 1.414 . S
C2238 C2241 1.499 . S
C2239 H2213 0.950 . S
C2239 C2238 1.414 . S
C2239 C2240 1.374 . S
C2240 H2214 0.950 . S
C2240 C2236 1.385 . S
C2240 C2239 1.374 . S
C2241 C2238 1.499 . S
C2241 C2242 1.373 . S
C2241 C2243 1.389 . S
C2242 H2215 0.950 . S
C2242 C2228 1.377 . S
C2242 C2241 1.373 . S
C2243 C2227 1.377 . S
C2243 C2241 1.389 . S
C2243 C2244 1.524 . S
C2244 C2243 1.524 . S
C2244 C2245 1.397 . S
C2244 C2249 1.363 . S
C2245 H2216 0.950 . S
C2245 C2244 1.397 . S
C2245 C2246 1.334 . S
C2246 H2217 0.950 . S
C2246 C2245 1.334 . S
C2246 C2247 1.287 . S
C2247 C2246 1.287 . S
C2247 C2248 1.524 . S
C2247 H2250 0.999 . S
C2248 H2218 0.950 . S
C2248 C2247 1.524 . S
C2248 C2249 1.415 . S
C2249 H2219 0.950 . S
C2249 C2244 1.363 . S
C2249 C2248 1.415 . S
H2250 C2247 0.999 . S
H2251 C2232 0.913 . S
H2252 C2270 0.951 . S
H2253 C2272 0.951 . S
H2254 C2274 0.950 . S
H2255 C2275 0.950 . S
H2256 C2277 0.950 . S
H2257 C2280 0.950 . S
H2258 C2281 0.950 . S
H2259 C2283 0.950 . S
H2260 C2284 0.950 . S
H2261 C2285 0.951 . S
H2262 C2287 0.951 . S
H2263 C2289 0.950 . S
H2264 C2290 0.950 . S
H2265 C2292 0.950 . S
H2266 C2295 0.950 . S
H2267 C2296 0.950 . S
H2268 C2298 0.950 . S
H2269 C2299 0.950 . S
C2270 H2252 0.951 . S
C2270 C2271 1.366 . S
C2270 C2272 1.388 . S
C2271 C2270 1.366 . S
C2271 C2275 1.385 . S
C2272 H2253 0.951 . S
C2272 C2270 1.388 . S
C2272 C2273 1.366 . S
C2273 C2272 1.366 . S
C2273 C2274 1.414 . S
C2273 C2276 1.499 . S
C2274 H2254 0.950 . S
C2274 C2273 1.414 . S
C2274 C2275 1.374 . S
C2275 H2255 0.950 . S
C2275 C2271 1.385 . S
C2275 C2274 1.374 . S
C2276 C2273 1.499 . S
C2276 C2277 1.373 . S
C2276 C2278 1.389 . S
C2277 H2256 0.950 . S
C2277 C2276 1.373 . S
C2277 C2293 1.377 . S
C2278 C2276 1.389 . S
C2278 C2279 1.524 . S
C2278 C2292 1.377 . S
C2279 C2278 1.524 . S
C2279 C2280 1.397 . S
C2279 C2284 1.363 . S
C2280 H2257 0.950 . S
C2280 C2279 1.397 . S
C2280 C2281 1.334 . S
C2281 H2258 0.950 . S
C2281 C2280 1.334 . S
C2281 C2282 1.287 . S
C2282 C2281 1.287 . S
C2282 C2283 1.524 . S
C2282 H2301 0.913 . S
C2283 H2259 0.950 . S
C2283 C2282 1.524 . S
C2283 C2284 1.415 . S
C2284 H2260 0.950 . S
C2284 C2279 1.363 . S
C2284 C2283 1.415 . S
C2285 H2261 0.951 . S
C2285 C2286 1.366 . S
C2285 C2287 1.388 . S
C2286 C2285 1.366 . S
C2286 C2290 1.385 . S
C2287 H2262 0.951 . S
C2287 C2285 1.388 . S
C2287 C2288 1.366 . S
C2288 C2287 1.366 . S
C2288 C2289 1.414 . S
C2288 C2291 1.499 . S
C2289 H2263 0.950 . S
C2289 C2288 1.414 . S
C2289 C2290 1.374 . S
C2290 H2264 0.950 . S
C2290 C2286 1.385 . S
C2290 C2289 1.374 . S
C2291 C2288 1.499 . S
C2291 C2292 1.373 . S
C2291 C2293 1.389 . S
C2292 H2265 0.950 . S
C2292 C2278 1.377 . S
C2292 C2291 1.373 . S
C2293 C2277 1.377 . S
C2293 C2291 1.389 . S
C2293 C2294 1.524 . S
C2294 C2293 1.524 . S
C2294 C2295 1.397 . S
C2294 C2299 1.363 . S
C2295 H2266 0.950 . S
C2295 C2294 1.397 . S
C2295 C2296 1.334 . S
C2296 H2267 0.950 . S
C2296 C2295 1.334 . S
C2296 C2297 1.287 . S
C2297 C2296 1.287 . S
C2297 C2298 1.524 . S
C2297 H2300 0.999 . S
C2298 H2268 0.950 . S
C2298 C2297 1.524 . S
C2298 C2299 1.415 . S
C2299 H2269 0.950 . S
C2299 C2294 1.363 . S
C2299 C2298 1.415 . S
H2300 C2297 0.999 . S
H2301 C2282 0.913 . S
H2302 C2320 0.951 . S
H2303 C2322 0.951 . S
H2304 C2324 0.950 . S
H2305 C2325 0.950 . S
H2306 C2327 0.950 . S
H2307 C2330 0.950 . S
H2308 C2331 0.950 . S
H2309 C2333 0.950 . S
H2310 C2334 0.950 . S
H2311 C2335 0.951 . S
H2312 C2337 0.951 . S
H2313 C2339 0.950 . S
H2314 C2340 0.950 . S
H2315 C2342 0.950 . S
H2316 C2345 0.950 . S
H2317 C2346 0.950 . S
H2318 C2348 0.950 . S
H2319 C2349 0.950 . S
C2320 H2302 0.951 . S
C2320 C2321 1.366 . S
C2320 C2322 1.388 . S
C2321 C2320 1.366 . S
C2321 C2325 1.385 . S
C2322 H2303 0.951 . S
C2322 C2320 1.388 . S
C2322 C2323 1.366 . S
C2323 C2322 1.366 . S
C2323 C2324 1.414 . S
C2323 C2326 1.499 . S
C2324 H2304 0.950 . S
C2324 C2323 1.414 . S
C2324 C2325 1.374 . S
C2325 H2305 0.950 . S
C2325 C2321 1.385 . S
C2325 C2324 1.374 . S
C2326 C2323 1.499 . S
C2326 C2327 1.373 . S
C2326 C2328 1.389 . S
C2327 H2306 0.950 . S
C2327 C2326 1.373 . S
C2327 C2343 1.377 . S
C2328 C2326 1.389 . S
C2328 C2329 1.524 . S
C2328 C2342 1.377 . S
C2329 C2328 1.524 . S
C2329 C2330 1.397 . S
C2329 C2334 1.363 . S
C2330 H2307 0.950 . S
C2330 C2329 1.397 . S
C2330 C2331 1.334 . S
C2331 H2308 0.950 . S
C2331 C2330 1.334 . S
C2331 C2332 1.287 . S
C2332 C2331 1.287 . S
C2332 C2333 1.524 . S
C2332 H2351 0.913 . S
C2333 H2309 0.950 . S
C2333 C2332 1.524 . S
C2333 C2334 1.415 . S
C2334 H2310 0.950 . S
C2334 C2329 1.363 . S
C2334 C2333 1.415 . S
C2335 H2311 0.951 . S
C2335 C2336 1.366 . S
C2335 C2337 1.388 . S
C2336 C2335 1.366 . S
C2336 C2340 1.385 . S
C2337 H2312 0.951 . S
C2337 C2335 1.388 . S
C2337 C2338 1.366 . S
C2338 C2337 1.366 . S
C2338 C2339 1.414 . S
C2338 C2341 1.499 . S
C2339 H2313 0.950 . S
C2339 C2338 1.414 . S
C2339 C2340 1.374 . S
C2340 H2314 0.950 . S
C2340 C2336 1.385 . S
C2340 C2339 1.374 . S
C2341 C2338 1.499 . S
C2341 C2342 1.373 . S
C2341 C2343 1.389 . S
C2342 H2315 0.950 . S
C2342 C2328 1.377 . S
C2342 C2341 1.373 . S
C2343 C2327 1.377 . S
C2343 C2341 1.389 . S
C2343 C2344 1.524 . S
C2344 C2343 1.524 . S
C2344 C2345 1.397 . S
C2344 C2349 1.363 . S
C2345 H2316 0.950 . S
C2345 C2344 1.397 . S
C2345 C2346 1.334 . S
C2346 H2317 0.950 . S
C2346 C2345 1.334 . S
C2346 C2347 1.287 . S
C2347 C2346 1.287 . S
C2347 C2348 1.524 . S
C2347 H2350 0.999 . S
C2348 H2318 0.950 . S
C2348 C2347 1.524 . S
C2348 C2349 1.415 . S
C2349 H2319 0.950 . S
C2349 C2344 1.363 . S
C2349 C2348 1.415 . S
H2350 C2347 0.999 . S
H2351 C2332 0.913 . S
H2352 C2370 0.951 . S
H2353 C2372 0.951 . S
H2354 C2374 0.950 . S
H2355 C2375 0.950 . S
H2356 C2377 0.950 . S
H2357 C2380 0.950 . S
H2358 C2381 0.950 . S
H2359 C2383 0.950 . S
H2360 C2384 0.950 . S
H2361 C2385 0.951 . S
H2362 C2387 0.951 . S
H2363 C2389 0.950 . S
H2364 C2390 0.950 . S
H2365 C2392 0.950 . S
H2366 C2395 0.950 . S
H2367 C2396 0.950 . S
H2368 C2398 0.950 . S
H2369 C2399 0.950 . S
C2370 H2352 0.951 . S
C2370 C2371 1.366 . S
C2370 C2372 1.388 . S
C2371 C2370 1.366 . S
C2371 C2375 1.385 . S
C2372 H2353 0.951 . S
C2372 C2370 1.388 . S
C2372 C2373 1.366 . S
C2373 C2372 1.366 . S
C2373 C2374 1.414 . S
C2373 C2376 1.499 . S
C2374 H2354 0.950 . S
C2374 C2373 1.414 . S
C2374 C2375 1.374 . S
C2375 H2355 0.950 . S
C2375 C2371 1.385 . S
C2375 C2374 1.374 . S
C2376 C2373 1.499 . S
C2376 C2377 1.373 . S
C2376 C2378 1.389 . S
C2377 H2356 0.950 . S
C2377 C2376 1.373 . S
C2377 C2393 1.377 . S
C2378 C2376 1.389 . S
C2378 C2379 1.524 . S
C2378 C2392 1.377 . S
C2379 C2378 1.524 . S
C2379 C2380 1.397 . S
C2379 C2384 1.363 . S
C2380 H2357 0.950 . S
C2380 C2379 1.397 . S
C2380 C2381 1.334 . S
C2381 H2358 0.950 . S
C2381 C2380 1.334 . S
C2381 C2382 1.287 . S
C2382 C2381 1.287 . S
C2382 C2383 1.524 . S
C2382 H2401 0.913 . S
C2383 H2359 0.950 . S
C2383 C2382 1.524 . S
C2383 C2384 1.415 . S
C2384 H2360 0.950 . S
C2384 C2379 1.363 . S
C2384 C2383 1.415 . S
C2385 H2361 0.951 . S
C2385 C2386 1.366 . S
C2385 C2387 1.388 . S
C2386 C2385 1.366 . S
C2386 C2390 1.385 . S
C2387 H2362 0.951 . S
C2387 C2385 1.388 . S
C2387 C2388 1.366 . S
C2388 C2387 1.366 . S
C2388 C2389 1.414 . S
C2388 C2391 1.499 . S
C2389 H2363 0.950 . S
C2389 C2388 1.414 . S
C2389 C2390 1.374 . S
C2390 H2364 0.950 . S
C2390 C2386 1.385 . S
C2390 C2389 1.374 . S
C2391 C2388 1.499 . S
C2391 C2392 1.373 . S
C2391 C2393 1.389 . S
C2392 H2365 0.950 . S
C2392 C2378 1.377 . S
C2392 C2391 1.373 . S
C2393 C2377 1.377 . S
C2393 C2391 1.389 . S
C2393 C2394 1.524 . S
C2394 C2393 1.524 . S
C2394 C2395 1.397 . S
C2394 C2399 1.363 . S
C2395 H2366 0.950 . S
C2395 C2394 1.397 . S
C2395 C2396 1.334 . S
C2396 H2367 0.950 . S
C2396 C2395 1.334 . S
C2396 C2397 1.287 . S
C2397 C2396 1.287 . S
C2397 C2398 1.524 . S
C2397 H2400 0.999 . S
C2398 H2368 0.950 . S
C2398 C2397 1.524 . S
C2398 C2399 1.415 . S
C2399 H2369 0.950 . S
C2399 C2394 1.363 . S
C2399 C2398 1.415 . S
H2400 C2397 0.999 . S
H2401 C2382 0.913 . S
H2402 C2420 0.951 . S
H2403 C2422 0.951 . S
H2404 C2424 0.950 . S
H2405 C2425 0.954 . S
H2406 C2427 0.950 . S
H2407 C2430 0.950 . S
H2408 C2431 0.950 . S
H2409 C2433 0.950 . S
H2410 C2434 0.950 . S
H2411 C2435 0.951 . S
H2412 C2437 0.951 . S
H2413 C2439 0.950 . S
H2414 C2440 0.950 . S
H2415 C2442 0.950 . S
H2416 C2445 0.950 . S
H2417 C2446 0.950 . S
H2418 C2448 0.950 . S
H2419 C2449 0.950 . S
C2420 H2402 0.951 . S
C2420 C2421 1.366 . S
C2420 C2422 1.388 . S
C2421 C2420 1.366 . S
C2421 C2425 1.375 1_545 S
C2422 H2403 0.951 . S
C2422 C2420 1.388 . S
C2422 C2423 1.366 1_545 S
C2423 C2422 1.366 1_565 S
C2423 C2424 1.414 . S
C2423 C2426 1.499 . S
C2424 H2404 0.950 . S
C2424 C2423 1.414 . S
C2424 C2425 1.381 . S
C2425 H2405 0.954 . S
C2425 C2421 1.375 1_565 S
C2425 C2424 1.381 . S
C2426 C2423 1.499 . S
C2426 C2427 1.373 1_565 S
C2426 C2428 1.389 . S
C2427 H2406 0.950 . S
C2427 C2426 1.373 1_545 S
C2427 C2443 1.376 . S
C2428 C2426 1.389 . S
C2428 C2429 1.524 . S
C2428 C2442 1.377 . S
C2429 C2428 1.524 . S
C2429 C2430 1.397 . S
C2429 C2434 1.363 . S
C2430 H2407 0.950 . S
C2430 C2429 1.397 . S
C2430 C2431 1.334 . S
C2431 H2408 0.950 . S
C2431 C2430 1.334 . S
C2431 C2432 1.287 . S
C2432 C2431 1.287 . S
C2432 C2433 1.524 . S
C2432 H2451 0.913 . S
C2433 H2409 0.950 . S
C2433 C2432 1.524 . S
C2433 C2434 1.415 . S
C2434 H2410 0.950 . S
C2434 C2429 1.363 . S
C2434 C2433 1.415 . S
C2435 H2411 0.951 . S
C2435 C2436 1.366 . S
C2435 C2437 1.388 . S
C2436 C2435 1.366 . S
C2436 C2440 1.385 . S
C2437 H2412 0.951 . S
C2437 C2435 1.388 . S
C2437 C2438 1.366 . S
C2438 C2437 1.366 . S
C2438 C2439 1.414 . S
C2438 C2441 1.499 . S
C2439 H2413 0.950 . S
C2439 C2438 1.414 . S
C2439 C2440 1.374 . S
C2440 H2414 0.950 . S
C2440 C2436 1.385 . S
C2440 C2439 1.374 . S
C2441 C2438 1.499 . S
C2441 C2442 1.373 . S
C2441 C2443 1.391 1_565 S
C2442 H2415 0.950 . S
C2442 C2428 1.377 . S
C2442 C2441 1.373 . S
C2443 C2427 1.376 . S
C2443 C2441 1.391 1_545 S
C2443 C2444 1.523 . S
C2444 C2443 1.523 . S
C2444 C2445 1.397 . S
C2444 C2449 1.363 . S
C2445 H2416 0.950 . S
C2445 C2444 1.397 . S
C2445 C2446 1.334 . S
C2446 H2417 0.950 . S
C2446 C2445 1.334 . S
C2446 C2447 1.287 . S
C2447 C2446 1.287 . S
C2447 C2448 1.524 . S
C2447 H2450 0.999 . S
C2448 H2418 0.950 . S
C2448 C2447 1.524 . S
C2448 C2449 1.415 . S
C2449 H2419 0.950 . S
C2449 C2444 1.363 . S
C2449 C2448 1.415 . S
H2450 C2447 0.999 . S
H2451 C2432 0.913 . S
H2452 C2470 0.951 . S
H2453 C2472 0.951 . S
H2454 C2474 0.950 . S
H2455 C2475 0.950 . S
H2456 C2477 0.950 . S
H2457 C2480 0.950 . S
H2458 C2481 0.950 . S
H2459 C2483 0.950 . S
H2460 C2484 0.950 . S
H2461 C2485 0.951 . S
H2462 C2487 0.951 . S
H2463 C2489 0.950 . S
H2464 C2490 0.950 . S
H2465 C2492 0.950 . S
H2466 C2495 0.950 . S
H2467 C2496 0.950 . S
H2468 C2498 0.950 . S
H2469 C2499 0.950 . S
C2470 H2452 0.951 . S
C2470 C2471 1.366 . S
C2470 C2472 1.388 . S
C2471 C2470 1.366 . S
C2471 C2475 1.385 . S
C2472 H2453 0.951 . S
C2472 C2470 1.388 . S
C2472 C2473 1.366 . S
C2473 C2472 1.366 . S
C2473 C2474 1.414 . S
C2473 C2476 1.499 . S
C2474 H2454 0.950 . S
C2474 C2473 1.414 . S
C2474 C2475 1.374 . S
C2475 H2455 0.950 . S
C2475 C2471 1.385 . S
C2475 C2474 1.374 . S
C2476 C2473 1.499 . S
C2476 C2477 1.373 . S
C2476 C2478 1.389 . S
C2477 H2456 0.950 . S
C2477 C2476 1.373 . S
C2477 C2493 1.377 . S
C2478 C2476 1.389 . S
C2478 C2479 1.524 . S
C2478 C2492 1.377 . S
C2479 C2478 1.524 . S
C2479 C2480 1.397 . S
C2479 C2484 1.363 . S
C2480 H2457 0.950 . S
C2480 C2479 1.397 . S
C2480 C2481 1.334 . S
C2481 H2458 0.950 . S
C2481 C2480 1.334 . S
C2481 C2482 1.287 . S
C2482 C2481 1.287 . S
C2482 C2483 1.524 . S
C2482 H2501 0.913 . S
C2483 H2459 0.950 . S
C2483 C2482 1.524 . S
C2483 C2484 1.415 . S
C2484 H2460 0.950 . S
C2484 C2479 1.363 . S
C2484 C2483 1.415 . S
C2485 H2461 0.951 . S
C2485 C2486 1.366 . S
C2485 C2487 1.388 . S
C2486 C2485 1.366 . S
C2486 C2490 1.385 . S
C2487 H2462 0.951 . S
C2487 C2485 1.388 . S
C2487 C2488 1.366 . S
C2488 C2487 1.366 . S
C2488 C2489 1.414 . S
C2488 C2491 1.499 . S
C2489 H2463 0.950 . S
C2489 C2488 1.414 . S
C2489 C2490 1.374 . S
C2490 H2464 0.950 . S
C2490 C2486 1.385 . S
C2490 C2489 1.374 . S
C2491 C2488 1.499 . S
C2491 C2492 1.373 . S
C2491 C2493 1.389 . S
C2492 H2465 0.950 . S
C2492 C2478 1.377 . S
C2492 C2491 1.373 . S
C2493 C2477 1.377 . S
C2493 C2491 1.389 . S
C2493 C2494 1.524 . S
C2494 C2493 1.524 . S
C2494 C2495 1.397 . S
C2494 C2499 1.363 . S
C2495 H2466 0.950 . S
C2495 C2494 1.397 . S
C2495 C2496 1.334 . S
C2496 H2467 0.950 . S
C2496 C2495 1.334 . S
C2496 C2497 1.287 . S
C2497 C2496 1.287 . S
C2497 C2498 1.524 . S
C2497 H2500 0.999 . S
C2498 H2468 0.950 . S
C2498 C2497 1.524 . S
C2498 C2499 1.415 . S
C2499 H2469 0.950 . S
C2499 C2494 1.363 . S
C2499 C2498 1.415 . S
H2500 C2497 0.999 . S
H2501 C2482 0.913 . S
H2502 C2520 0.951 . S
H2503 C2522 0.951 . S
H2504 C2524 0.950 1_565 S
H2505 C2525 0.950 1_565 S
H2506 C2527 0.950 . S
H2507 C2530 0.950 . S
H2508 C2531 0.950 . S
H2509 C2533 0.950 . S
H2510 C2534 0.950 . S
H2511 C2535 0.951 . S
H2512 C2537 0.951 . S
H2513 C2539 0.950 . S
H2514 C2540 0.950 . S
H2515 C2542 0.950 . S
H2516 C2545 0.950 . S
H2517 C2546 0.950 . S
H2518 C2548 0.973 . S
H2519 C2549 0.950 1_565 S
C2520 H2502 0.951 . S
C2520 C2521 1.366 . S
C2520 C2522 1.388 . S
C2521 C2520 1.366 . S
C2521 C2525 1.385 . S
C2522 H2503 0.951 . S
C2522 C2520 1.388 . S
C2522 C2523 1.366 . S
C2523 C2522 1.366 . S
C2523 C2524 1.414 . S
C2523 C2526 1.499 . S
C2524 H2504 0.950 1_545 S
C2524 C2523 1.414 . S
C2524 C2525 1.374 . S
C2525 H2505 0.950 1_545 S
C2525 C2521 1.385 . S
C2525 C2524 1.374 . S
C2526 C2523 1.499 . S
C2526 C2527 1.373 . S
C2526 C2528 1.389 . S
C2527 H2506 0.950 . S
C2527 C2526 1.373 . S
C2527 C2543 1.377 . S
C2528 C2526 1.389 . S
C2528 C2529 1.524 . S
C2528 C2542 1.377 . S
C2529 C2528 1.524 . S
C2529 C2530 1.397 . S
C2529 C2534 1.363 . S
C2530 H2507 0.950 . S
C2530 C2529 1.397 . S
C2530 C2531 1.334 . S
C2531 H2508 0.950 . S
C2531 C2530 1.334 . S
C2531 C2532 1.287 . S
C2532 C2531 1.287 . S
C2532 C2533 1.524 . S
C2532 H2551 0.913 . S
C2533 H2509 0.950 . S
C2533 C2532 1.524 . S
C2533 C2534 1.415 . S
C2534 H2510 0.950 . S
C2534 C2529 1.363 . S
C2534 C2533 1.415 . S
C2535 H2511 0.951 . S
C2535 C2536 1.366 . S
C2535 C2537 1.388 . S
C2536 C2535 1.366 . S
C2536 C2540 1.385 . S
C2537 H2512 0.951 . S
C2537 C2535 1.388 . S
C2537 C2538 1.366 . S
C2538 C2537 1.366 . S
C2538 C2539 1.414 . S
C2538 C2541 1.499 . S
C2539 H2513 0.950 . S
C2539 C2538 1.414 . S
C2539 C2540 1.374 . S
C2540 H2514 0.950 . S
C2540 C2536 1.385 . S
C2540 C2539 1.374 . S
C2541 C2538 1.499 . S
C2541 C2542 1.373 . S
C2541 C2543 1.389 . S
C2542 H2515 0.950 . S
C2542 C2528 1.377 . S
C2542 C2541 1.373 . S
C2543 C2527 1.377 . S
C2543 C2541 1.389 . S
C2543 C2544 1.524 . S
C2544 C2543 1.524 . S
C2544 C2545 1.397 . S
C2544 C2549 1.363 . S
C2545 H2516 0.950 . S
C2545 C2544 1.397 . S
C2545 C2546 1.334 . S
C2546 H2517 0.950 . S
C2546 C2545 1.334 . S
C2546 C2547 1.287 . S
C2547 C2546 1.287 . S
C2547 C2548 1.502 1_545 S
C2547 H2550 0.999 . S
C2548 H2518 0.973 . S
C2548 C2547 1.502 1_565 S
C2548 C2549 1.410 1_565 S
C2549 H2519 0.950 1_545 S
C2549 C2544 1.363 . S
C2549 C2548 1.410 1_545 S
H2550 C2547 0.999 . S
H2551 C2532 0.913 . S
H2552 C2570 0.951 . S
H2553 C2572 0.951 . S
H2554 C2574 0.950 . S
H2555 C2575 0.950 . S
H2556 C2577 0.950 . S
H2557 C2580 0.950 . S
H2558 C2581 0.950 . S
H2559 C2583 0.950 . S
H2560 C2584 0.950 . S
H2561 C2585 0.951 . S
H2562 C2587 0.951 . S
H2563 C2589 0.950 . S
H2564 C2590 0.950 . S
H2565 C2592 0.950 . S
H2566 C2595 0.950 . S
H2567 C2596 0.950 . S
H2568 C2598 0.950 . S
H2569 C2599 0.950 . S
C2570 H2552 0.951 . S
C2570 C2571 1.366 . S
C2570 C2572 1.388 . S
C2571 C2570 1.366 . S
C2571 C2575 1.385 . S
C2572 H2553 0.951 . S
C2572 C2570 1.388 . S
C2572 C2573 1.366 . S
C2573 C2572 1.366 . S
C2573 C2574 1.414 . S
C2573 C2576 1.499 . S
C2574 H2554 0.950 . S
C2574 C2573 1.414 . S
C2574 C2575 1.374 . S
C2575 H2555 0.950 . S
C2575 C2571 1.385 . S
C2575 C2574 1.374 . S
C2576 C2573 1.499 . S
C2576 C2577 1.373 . S
C2576 C2578 1.389 . S
C2577 H2556 0.950 . S
C2577 C2576 1.373 . S
C2577 C2593 1.377 . S
C2578 C2576 1.389 . S
C2578 C2579 1.524 . S
C2578 C2592 1.377 . S
C2579 C2578 1.524 . S
C2579 C2580 1.397 . S
C2579 C2584 1.363 . S
C2580 H2557 0.950 . S
C2580 C2579 1.397 . S
C2580 C2581 1.334 . S
C2581 H2558 0.950 . S
C2581 C2580 1.334 . S
C2581 C2582 1.287 . S
C2582 C2581 1.287 . S
C2582 C2583 1.524 . S
C2582 H2601 0.913 . S
C2583 H2559 0.950 . S
C2583 C2582 1.524 . S
C2583 C2584 1.415 . S
C2584 H2560 0.950 . S
C2584 C2579 1.363 . S
C2584 C2583 1.415 . S
C2585 H2561 0.951 . S
C2585 C2586 1.366 . S
C2585 C2587 1.388 . S
C2586 C2585 1.366 . S
C2586 C2590 1.385 . S
C2587 H2562 0.951 . S
C2587 C2585 1.388 . S
C2587 C2588 1.366 . S
C2588 C2587 1.366 . S
C2588 C2589 1.414 . S
C2588 C2591 1.499 . S
C2589 H2563 0.950 . S
C2589 C2588 1.414 . S
C2589 C2590 1.374 . S
C2590 H2564 0.950 . S
C2590 C2586 1.385 . S
C2590 C2589 1.374 . S
C2591 C2588 1.499 . S
C2591 C2592 1.373 . S
C2591 C2593 1.389 . S
C2592 H2565 0.950 . S
C2592 C2578 1.377 . S
C2592 C2591 1.373 . S
C2593 C2577 1.377 . S
C2593 C2591 1.389 . S
C2593 C2594 1.524 . S
C2594 C2593 1.524 . S
C2594 C2595 1.397 . S
C2594 C2599 1.363 . S
C2595 H2566 0.950 . S
C2595 C2594 1.397 . S
C2595 C2596 1.334 . S
C2596 H2567 0.950 . S
C2596 C2595 1.334 . S
C2596 C2597 1.287 . S
C2597 C2596 1.287 . S
C2597 C2598 1.524 . S
C2597 H2600 0.999 . S
C2598 H2568 0.950 . S
C2598 C2597 1.524 . S
C2598 C2599 1.415 . S
C2599 H2569 0.950 . S
C2599 C2594 1.363 . S
C2599 C2598 1.415 . S
H2600 C2597 0.999 . S
H2601 C2582 0.913 . S
H2602 C2620 0.951 . S
H2603 C2622 0.951 . S
H2604 C2624 0.950 . S
H2605 C2625 0.950 . S
H2606 C2627 0.950 . S
H2607 C2630 0.950 . S
H2608 C2631 0.950 . S
H2609 C2633 0.950 . S
H2610 C2634 0.950 . S
H2611 C2635 0.951 . S
H2612 C2637 0.951 . S
H2613 C2639 0.950 1_554 S
H2614 C2640 0.950 . S
H2615 C2642 0.950 1_554 S
H2616 C2645 0.950 . S
H2617 C2646 0.950 . S
H2618 C2648 0.950 . S
H2619 C2649 0.950 . S
C2620 H2602 0.951 . S
C2620 C2621 1.366 1_554 S
C2620 C2622 1.388 . S
C2621 C2620 1.366 1_556 S
C2621 C2625 1.385 . S
C2622 H2603 0.951 . S
C2622 C2620 1.388 . S
C2622 C2623 1.366 1_554 S
C2623 C2622 1.366 1_556 S
C2623 C2624 1.414 . S
C2623 C2626 1.499 . S
C2624 H2604 0.950 . S
C2624 C2623 1.414 . S
C2624 C2625 1.374 . S
C2625 H2605 0.950 . S
C2625 C2621 1.385 . S
C2625 C2624 1.374 . S
C2626 C2623 1.499 . S
C2626 C2627 1.373 . S
C2626 C2628 1.389 1_556 S
C2627 H2606 0.950 . S
C2627 C2626 1.373 . S
C2627 C2643 1.377 . S
C2628 C2626 1.389 1_554 S
C2628 C2629 1.524 . S
C2628 C2642 1.377 1_554 S
C2629 C2628 1.524 . S
C2629 C2630 1.397 . S
C2629 C2634 1.363 . S
C2630 H2607 0.950 . S
C2630 C2629 1.397 . S
C2630 C2631 1.334 . S
C2631 H2608 0.950 . S
C2631 C2630 1.334 . S
C2631 C2632 1.287 . S
C2632 C2631 1.287 . S
C2632 C2633 1.524 . S
C2632 H2651 0.913 . S
C2633 H2609 0.950 . S
C2633 C2632 1.524 . S
C2633 C2634 1.415 . S
C2634 H2610 0.950 . S
C2634 C2629 1.363 . S
C2634 C2633 1.415 . S
C2635 H2611 0.951 . S
C2635 C2636 1.366 . S
C2635 C2637 1.388 . S
C2636 C2635 1.366 . S
C2636 C2640 1.385 . S
C2637 H2612 0.951 . S
C2637 C2635 1.388 . S
C2637 C2638 1.366 . S
C2638 C2637 1.366 . S
C2638 C2639 1.414 . S
C2638 C2641 1.499 . S
C2639 H2613 0.950 1_556 S
C2639 C2638 1.414 . S
C2639 C2640 1.374 . S
C2640 H2614 0.950 . S
C2640 C2636 1.385 . S
C2640 C2639 1.374 . S
C2641 C2638 1.499 . S
C2641 C2642 1.373 . S
C2641 C2643 1.389 . S
C2642 H2615 0.950 1_556 S
C2642 C2628 1.377 1_556 S
C2642 C2641 1.373 . S
C2643 C2627 1.377 . S
C2643 C2641 1.389 . S
C2643 C2644 1.524 . S
C2644 C2643 1.524 . S
C2644 C2645 1.397 . S
C2644 C2649 1.363 . S
C2645 H2616 0.950 . S
C2645 C2644 1.397 . S
C2645 C2646 1.334 . S
C2646 H2617 0.950 . S
C2646 C2645 1.334 . S
C2646 C2647 1.287 . S
C2647 C2646 1.287 . S
C2647 C2648 1.524 . S
C2647 H2650 0.999 . S
C2648 H2618 0.950 . S
C2648 C2647 1.524 . S
C2648 C2649 1.415 . S
C2649 H2619 0.950 . S
C2649 C2644 1.363 . S
C2649 C2648 1.415 . S
H2650 C2647 0.999 . S
H2651 C2632 0.913 . S
H2652 C2670 0.951 . S
H2653 C2672 0.951 . S
H2654 C2674 0.950 . S
H2655 C2675 0.950 . S
H2656 C2677 0.950 . S
H2657 C2680 0.950 . S
H2658 C2681 0.950 . S
H2659 C2683 0.950 . S
H2660 C2684 0.950 . S
H2661 C2685 0.951 1_554 S
H2662 C2687 0.951 1_554 S
H2663 C2689 0.950 . S
H2664 C2690 0.950 . S
H2665 C2692 0.950 . S
H2666 C2695 0.950 . S
H2667 C2696 0.950 . S
H2668 C2698 0.940 1_554 S
H2669 C2699 0.950 1_554 S
C2670 H2652 0.951 . S
C2670 C2671 1.366 1_556 S
C2670 C2672 1.388 . S
C2671 C2670 1.366 1_554 S
C2671 C2675 1.385 . S
C2672 H2653 0.951 . S
C2672 C2670 1.388 . S
C2672 C2673 1.366 1_556 S
C2673 C2672 1.366 1_554 S
C2673 C2674 1.414 . S
C2673 C2676 1.495 1_554 S
C2674 H2654 0.950 . S
C2674 C2673 1.414 . S
C2674 C2675 1.374 . S
C2675 H2655 0.950 . S
C2675 C2671 1.385 . S
C2675 C2674 1.374 . S
C2676 C2673 1.495 1_556 S
C2676 C2677 1.381 . S
C2676 C2678 1.390 . S
C2677 H2656 0.950 . S
C2677 C2676 1.381 . S
C2677 C2693 1.377 . S
C2678 C2676 1.390 . S
C2678 C2679 1.524 1_556 S
C2678 C2692 1.377 . S
C2679 C2678 1.524 1_554 S
C2679 C2680 1.397 . S
C2679 C2684 1.363 1_554 S
C2680 H2657 0.950 . S
C2680 C2679 1.397 . S
C2680 C2681 1.334 . S
C2681 H2658 0.950 . S
C2681 C2680 1.334 . S
C2681 C2682 1.287 . S
C2682 C2681 1.287 . S
C2682 C2683 1.524 1_554 S
C2682 H2701 0.913 . S
C2683 H2659 0.950 . S
C2683 C2682 1.524 1_556 S
C2683 C2684 1.415 . S
C2684 H2660 0.950 . S
C2684 C2679 1.363 1_556 S
C2684 C2683 1.415 . S
C2685 H2661 0.951 1_556 S
C2685 C2686 1.366 . S
C2685 C2687 1.388 . S
C2686 C2685 1.366 . S
C2686 C2690 1.385 . S
C2687 H2662 0.951 1_556 S
C2687 C2685 1.388 . S
C2687 C2688 1.366 . S
C2688 C2687 1.366 . S
C2688 C2689 1.414 . S
C2688 C2691 1.499 . S
C2689 H2663 0.950 . S
C2689 C2688 1.414 . S
C2689 C2690 1.374 . S
C2690 H2664 0.950 . S
C2690 C2686 1.385 . S
C2690 C2689 1.374 . S
C2691 C2688 1.499 . S
C2691 C2692 1.373 . S
C2691 C2693 1.389 . S
C2692 H2665 0.950 . S
C2692 C2678 1.377 . S
C2692 C2691 1.373 . S
C2693 C2677 1.377 . S
C2693 C2691 1.389 . S
C2693 C2694 1.524 . S
C2694 C2693 1.524 . S
C2694 C2695 1.397 . S
C2694 C2699 1.363 . S
C2695 H2666 0.950 . S
C2695 C2694 1.397 . S
C2695 C2696 1.334 . S
C2696 H2667 0.950 . S
C2696 C2695 1.334 . S
C2696 C2697 1.287 . S
C2697 C2696 1.287 . S
C2697 C2698 1.524 . S
C2697 H2700 0.999 . S
C2698 H2668 0.940 1_556 S
C2698 C2697 1.524 . S
C2698 C2699 1.415 . S
C2699 H2669 0.950 1_556 S
C2699 C2694 1.363 . S
C2699 C2698 1.415 . S
H2700 C2697 0.999 . S
H2701 C2682 0.913 . S
H2702 C2720 0.951 . S
H2703 C2722 0.951 . S
H2704 C2724 0.950 . S
H2705 C2725 0.950 . S
H2706 C2727 0.950 1_556 S
H2707 C2730 0.950 . S
H2708 C2731 0.950 . S
H2709 C2733 0.950 . S
H2710 C2734 0.950 . S
H2711 C2735 0.951 . S
H2712 C2737 0.951 . S
H2713 C2739 0.950 . S
H2714 C2740 0.950 . S
H2715 C2742 0.950 . S
H2716 C2745 0.950 . S
H2717 C2746 0.950 . S
H2718 C2748 0.950 . S
H2719 C2749 0.950 . S
C2720 H2702 0.951 . S
C2720 C2721 1.366 . S
C2720 C2722 1.388 . S
C2721 C2720 1.366 . S
C2721 C2725 1.385 . S
C2722 H2703 0.951 . S
C2722 C2720 1.388 . S
C2722 C2723 1.366 . S
C2723 C2722 1.366 . S
C2723 C2724 1.414 . S
C2723 C2726 1.499 . S
C2724 H2704 0.950 . S
C2724 C2723 1.414 . S
C2724 C2725 1.374 . S
C2725 H2705 0.950 . S
C2725 C2721 1.385 . S
C2725 C2724 1.374 . S
C2726 C2723 1.499 . S
C2726 C2727 1.373 . S
C2726 C2728 1.389 . S
C2727 H2706 0.950 1_554 S
C2727 C2726 1.373 . S
C2727 C2743 1.377 . S
C2728 C2726 1.389 . S
C2728 C2729 1.524 . S
C2728 C2742 1.377 . S
C2729 C2728 1.524 . S
C2729 C2730 1.397 . S
C2729 C2734 1.363 . S
C2730 H2707 0.950 . S
C2730 C2729 1.397 . S
C2730 C2731 1.334 . S
C2731 H2708 0.950 . S
C2731 C2730 1.334 . S
C2731 C2732 1.287 . S
C2732 C2731 1.287 . S
C2732 C2733 1.524 . S
C2732 H2751 0.913 . S
C2733 H2709 0.950 . S
C2733 C2732 1.524 . S
C2733 C2734 1.415 . S
C2734 H2710 0.950 . S
C2734 C2729 1.363 . S
C2734 C2733 1.415 . S
C2735 H2711 0.951 . S
C2735 C2736 1.366 . S
C2735 C2737 1.388 . S
C2736 C2735 1.366 . S
C2736 C2740 1.385 . S
C2737 H2712 0.951 . S
C2737 C2735 1.388 . S
C2737 C2738 1.366 . S
C2738 C2737 1.366 . S
C2738 C2739 1.414 . S
C2738 C2741 1.499 . S
C2739 H2713 0.950 . S
C2739 C2738 1.414 . S
C2739 C2740 1.374 . S
C2740 H2714 0.950 . S
C2740 C2736 1.385 . S
C2740 C2739 1.374 . S
C2741 C2738 1.499 . S
C2741 C2742 1.373 . S
C2741 C2743 1.389 . S
C2742 H2715 0.950 . S
C2742 C2728 1.377 . S
C2742 C2741 1.373 . S
C2743 C2727 1.377 . S
C2743 C2741 1.389 . S
C2743 C2744 1.524 1_554 S
C2744 C2743 1.524 1_556 S
C2744 C2745 1.397 . S
C2744 C2749 1.363 . S
C2745 H2716 0.950 . S
C2745 C2744 1.397 . S
C2745 C2746 1.334 . S
C2746 H2717 0.950 . S
C2746 C2745 1.334 . S
C2746 C2747 1.287 . S
C2747 C2746 1.287 . S
C2747 C2748 1.524 . S
C2747 H2750 0.999 . S
C2748 H2718 0.950 . S
C2748 C2747 1.524 . S
C2748 C2749 1.415 . S
C2749 H2719 0.950 . S
C2749 C2744 1.363 . S
C2749 C2748 1.415 . S
H2750 C2747 0.999 . S
H2751 C2732 0.913 . S
C371 C13 1.554 . S
C386 C231 1.548 . S
C436 C257 1.571 . S
C421 C1 1.595 . S
C486 C189 1.610 . S
C471 C27 1.601 . S
C521 C15 1.322 . S
C536 C212 1.325 . S
C571 C28 1.403 . S
C586 C346 1.397 . S
C621 C55 1.303 . S
C636 C327 1.314 . S
C686 C280 1.597 . S
C671 C40 1.632 . S
C721 C43 1.656 . S
C736 C303 1.633 . S
C786 C208 1.602 . S
C771 C56 1.612 . S
C836 C258 1.336 . S
C821 C83 1.333 . S
C871 C96 1.555 . S
C886 C234 1.527 1_655 S
C921 C71 1.667 . S
C936 C300 1.653 . S
C986 C323 1.549 . S
C971 C99 1.554 . S
C1036 C349 1.571 . S
C1021 C111 1.595 . S
C1071 C113 1.601 . S
C1086 C304 1.610 . S
C1136 C281 1.328 . S
C1121 C125 1.321 . S
C1171 C139 1.403 . S
C1186 C254 1.397 . S
C1221 C153 1.304 . S
C1236 C235 1.310 . S
C1286 C211 1.597 . S
C1271 C127 1.632 . S
C1321 C141 1.656 . S
C1336 C188 1.634 . S
C1386 C277 1.602 . S
C1371 C84 1.613 . S
C1436 C350 1.336 . S
C1421 C154 1.333 . S
C1471 C68 1.555 . S
C1486 C326 1.526 . S
C1521 C166 1.666 . S
C1536 C185 1.651 1_655 S
C1586 C187 1.201 . S
C1571 C0 1.250 . S
C1621 C12 1.411 . S
C1636 C210 1.343 . S
C1686 C232 1.132 . S
C1671 C14 1.130 . S
C1736 C253 1.258 . S
C1721 C26 1.260 . S
C1771 C41 1.356 . S
C1786 C184 1.353 . S
C1821 C42 1.349 . S
C1836 C207 1.345 . S
C1886 C233 1.318 . S
C1871 C29 1.385 . S
C1921 C54 1.283 . S
C1936 C255 1.287 . S
C1971 C69 1.197 . S
C1986 C186 1.198 . S
C2036 C230 1.273 . S
C2021 C70 1.276 . S
C2071 C85 1.352 . S
C2086 C256 1.297 . S
C2121 C82 1.092 . S
C2136 C278 1.093 . S
C2186 C302 1.201 . S
C2171 C110 1.251 . S
C2221 C98 1.411 . S
C2236 C279 1.339 . S
C2271 C124 1.130 . S
C2286 C324 1.133 . S
C2321 C112 1.260 . S
C2336 C345 1.259 . S
C2371 C126 1.356 . S
C2386 C299 1.353 . S
C2436 C276 1.345 . S
C2421 C140 1.349 . S
C2471 C138 1.386 . S
C2486 C325 1.318 . S
C2536 C347 1.287 . S
C2521 C152 1.284 . S
C2586 C301 1.198 . S
C2571 C97 1.197 . S
C2636 C322 1.274 . S
C2621 C167 1.277 . S
C2686 C348 1.298 . S
C2671 C57 1.352 . S
C2721 C155 1.092 . S
C2736 C209 1.094 . S
