# Generated by pormake.
# Topology gar, (4,6)-cn, num edge types: 1
# Building blocks:
#     Node 0, Type 0, BuildingBlock: AZAVOO_clean_sbu_0, # of connection points: 4
#     Node 1, Type 0, BuildingBlock: AZAVOO_clean_sbu_0, # of connection points: 4
#     Node 2, Type 0, BuildingBlock: AZAVOO_clean_sbu_0, # of connection points: 4
#     Node 3, Type 0, BuildingBlock: AZAVOO_clean_sbu_0, # of connection points: 4
#     Node 4, Type 0, BuildingBlock: AZAVOO_clean_sbu_0, # of connection points: 4
#     Node 5, Type 0, BuildingBlock: AZAVOO_clean_sbu_0, # of connection points: 4
#     Node 6, Type 0, BuildingBlock: AZAVOO_clean_sbu_0, # of connection points: 4
#     Node 7, Type 0, BuildingBlock: AZAVOO_clean_sbu_0, # of connection points: 4
#     Node 8, Type 0, BuildingBlock: AZAVOO_clean_sbu_0, # of connection points: 4
#     Node 9, Type 0, BuildingBlock: AZAVOO_clean_sbu_0, # of connection points: 4
#     Node 10, Type 0, BuildingBlock: AZAVOO_clean_sbu_0, # of connection points: 4
#     Node 11, Type 0, BuildingBlock: AZAVOO_clean_sbu_0, # of connection points: 4
#     Node 12, Type 0, BuildingBlock: AZAVOO_clean_sbu_0, # of connection points: 4
#     Node 13, Type 0, BuildingBlock: AZAVOO_clean_sbu_0, # of connection points: 4
#     Node 14, Type 0, BuildingBlock: AZAVOO_clean_sbu_0, # of connection points: 4
#     Node 15, Type 0, BuildingBlock: AZAVOO_clean_sbu_0, # of connection points: 4
#     Node 16, Type 0, BuildingBlock: AZAVOO_clean_sbu_0, # of connection points: 4
#     Node 17, Type 0, BuildingBlock: AZAVOO_clean_sbu_0, # of connection points: 4
#     Node 18, Type 0, BuildingBlock: AZAVOO_clean_sbu_0, # of connection points: 4
#     Node 19, Type 0, BuildingBlock: AZAVOO_clean_sbu_0, # of connection points: 4
#     Node 20, Type 0, BuildingBlock: AZAVOO_clean_sbu_0, # of connection points: 4
#     Node 21, Type 0, BuildingBlock: AZAVOO_clean_sbu_0, # of connection points: 4
#     Node 22, Type 0, BuildingBlock: AZAVOO_clean_sbu_0, # of connection points: 4
#     Node 23, Type 0, BuildingBlock: AZAVOO_clean_sbu_0, # of connection points: 4
#     Node 24, Type 1, BuildingBlock: PAMTOO_clean_sbu_0, # of connection points: 6
#     Node 25, Type 1, BuildingBlock: PAMTOO_clean_sbu_0, # of connection points: 6
#     Node 26, Type 1, BuildingBlock: PAMTOO_clean_sbu_0, # of connection points: 6
#     Node 27, Type 1, BuildingBlock: PAMTOO_clean_sbu_0, # of connection points: 6
#     Node 28, Type 1, BuildingBlock: PAMTOO_clean_sbu_0, # of connection points: 6
#     Node 29, Type 1, BuildingBlock: PAMTOO_clean_sbu_0, # of connection points: 6
#     Node 30, Type 1, BuildingBlock: PAMTOO_clean_sbu_0, # of connection points: 6
#     Node 31, Type 1, BuildingBlock: PAMTOO_clean_sbu_0, # of connection points: 6
#     Node 32, Type 1, BuildingBlock: PAMTOO_clean_sbu_0, # of connection points: 6
#     Node 33, Type 1, BuildingBlock: PAMTOO_clean_sbu_0, # of connection points: 6
#     Node 34, Type 1, BuildingBlock: PAMTOO_clean_sbu_0, # of connection points: 6
#     Node 35, Type 1, BuildingBlock: PAMTOO_clean_sbu_0, # of connection points: 6
#     Node 36, Type 1, BuildingBlock: PAMTOO_clean_sbu_0, # of connection points: 6
#     Node 37, Type 1, BuildingBlock: PAMTOO_clean_sbu_0, # of connection points: 6
#     Node 38, Type 1, BuildingBlock: PAMTOO_clean_sbu_0, # of connection points: 6
#     Node 39, Type 1, BuildingBlock: PAMTOO_clean_sbu_0, # of connection points: 6
#     Edge 40, Type (0, 1), BuildingBlock: XIVTED_clean_linker_0, # of connection points: 2
#     Edge 41, Type (0, 1), BuildingBlock: XIVTED_clean_linker_0, # of connection points: 2
#     Edge 42, Type (0, 1), BuildingBlock: XIVTED_clean_linker_0, # of connection points: 2
#     Edge 43, Type (0, 1), BuildingBlock: XIVTED_clean_linker_0, # of connection points: 2
#     Edge 44, Type (0, 1), BuildingBlock: XIVTED_clean_linker_0, # of connection points: 2
#     Edge 45, Type (0, 1), BuildingBlock: XIVTED_clean_linker_0, # of connection points: 2
#     Edge 46, Type (0, 1), BuildingBlock: XIVTED_clean_linker_0, # of connection points: 2
#     Edge 47, Type (0, 1), BuildingBlock: XIVTED_clean_linker_0, # of connection points: 2
#     Edge 48, Type (0, 1), BuildingBlock: XIVTED_clean_linker_0, # of connection points: 2
#     Edge 49, Type (0, 1), BuildingBlock: XIVTED_clean_linker_0, # of connection points: 2
#     Edge 50, Type (0, 1), BuildingBlock: XIVTED_clean_linker_0, # of connection points: 2
#     Edge 51, Type (0, 1), BuildingBlock: XIVTED_clean_linker_0, # of connection points: 2
#     Edge 52, Type (0, 1), BuildingBlock: XIVTED_clean_linker_0, # of connection points: 2
#     Edge 53, Type (0, 1), BuildingBlock: XIVTED_clean_linker_0, # of connection points: 2
#     Edge 54, Type (0, 1), BuildingBlock: XIVTED_clean_linker_0, # of connection points: 2
#     Edge 55, Type (0, 1), BuildingBlock: XIVTED_clean_linker_0, # of connection points: 2
#     Edge 56, Type (0, 1), BuildingBlock: XIVTED_clean_linker_0, # of connection points: 2
#     Edge 57, Type (0, 1), BuildingBlock: XIVTED_clean_linker_0, # of connection points: 2
#     Edge 58, Type (0, 1), BuildingBlock: XIVTED_clean_linker_0, # of connection points: 2
#     Edge 59, Type (0, 1), BuildingBlock: XIVTED_clean_linker_0, # of connection points: 2
#     Edge 60, Type (0, 1), BuildingBlock: XIVTED_clean_linker_0, # of connection points: 2
#     Edge 61, Type (0, 1), BuildingBlock: XIVTED_clean_linker_0, # of connection points: 2
#     Edge 62, Type (0, 1), BuildingBlock: XIVTED_clean_linker_0, # of connection points: 2
#     Edge 63, Type (0, 1), BuildingBlock: XIVTED_clean_linker_0, # of connection points: 2
#     Edge 64, Type (0, 1), BuildingBlock: XIVTED_clean_linker_0, # of connection points: 2
#     Edge 65, Type (0, 1), BuildingBlock: XIVTED_clean_linker_0, # of connection points: 2
#     Edge 66, Type (0, 1), BuildingBlock: XIVTED_clean_linker_0, # of connection points: 2
#     Edge 67, Type (0, 1), BuildingBlock: XIVTED_clean_linker_0, # of connection points: 2
#     Edge 68, Type (0, 1), BuildingBlock: XIVTED_clean_linker_0, # of connection points: 2
#     Edge 69, Type (0, 1), BuildingBlock: XIVTED_clean_linker_0, # of connection points: 2
#     Edge 70, Type (0, 1), BuildingBlock: XIVTED_clean_linker_0, # of connection points: 2
#     Edge 71, Type (0, 1), BuildingBlock: XIVTED_clean_linker_0, # of connection points: 2
#     Edge 72, Type (0, 1), BuildingBlock: XIVTED_clean_linker_0, # of connection points: 2
#     Edge 73, Type (0, 1), BuildingBlock: XIVTED_clean_linker_0, # of connection points: 2
#     Edge 74, Type (0, 1), BuildingBlock: XIVTED_clean_linker_0, # of connection points: 2
#     Edge 75, Type (0, 1), BuildingBlock: XIVTED_clean_linker_0, # of connection points: 2
#     Edge 76, Type (0, 1), BuildingBlock: XIVTED_clean_linker_0, # of connection points: 2
#     Edge 77, Type (0, 1), BuildingBlock: XIVTED_clean_linker_0, # of connection points: 2
#     Edge 78, Type (0, 1), BuildingBlock: XIVTED_clean_linker_0, # of connection points: 2
#     Edge 79, Type (0, 1), BuildingBlock: XIVTED_clean_linker_0, # of connection points: 2
#     Edge 80, Type (0, 1), BuildingBlock: XIVTED_clean_linker_0, # of connection points: 2
#     Edge 81, Type (0, 1), BuildingBlock: XIVTED_clean_linker_0, # of connection points: 2
#     Edge 82, Type (0, 1), BuildingBlock: XIVTED_clean_linker_0, # of connection points: 2
#     Edge 83, Type (0, 1), BuildingBlock: XIVTED_clean_linker_0, # of connection points: 2
#     Edge 84, Type (0, 1), BuildingBlock: XIVTED_clean_linker_0, # of connection points: 2
#     Edge 85, Type (0, 1), BuildingBlock: XIVTED_clean_linker_0, # of connection points: 2
#     Edge 86, Type (0, 1), BuildingBlock: XIVTED_clean_linker_0, # of connection points: 2
#     Edge 87, Type (0, 1), BuildingBlock: XIVTED_clean_linker_0, # of connection points: 2
#     Edge 88, Type (0, 1), BuildingBlock: XIVTED_clean_linker_0, # of connection points: 2
#     Edge 89, Type (0, 1), BuildingBlock: XIVTED_clean_linker_0, # of connection points: 2
#     Edge 90, Type (0, 1), BuildingBlock: XIVTED_clean_linker_0, # of connection points: 2
#     Edge 91, Type (0, 1), BuildingBlock: XIVTED_clean_linker_0, # of connection points: 2
#     Edge 92, Type (0, 1), BuildingBlock: XIVTED_clean_linker_0, # of connection points: 2
#     Edge 93, Type (0, 1), BuildingBlock: XIVTED_clean_linker_0, # of connection points: 2
#     Edge 94, Type (0, 1), BuildingBlock: XIVTED_clean_linker_0, # of connection points: 2
#     Edge 95, Type (0, 1), BuildingBlock: XIVTED_clean_linker_0, # of connection points: 2
#     Edge 96, Type (0, 1), BuildingBlock: XIVTED_clean_linker_0, # of connection points: 2
#     Edge 97, Type (0, 1), BuildingBlock: XIVTED_clean_linker_0, # of connection points: 2
#     Edge 98, Type (0, 1), BuildingBlock: XIVTED_clean_linker_0, # of connection points: 2
#     Edge 99, Type (0, 1), BuildingBlock: XIVTED_clean_linker_0, # of connection points: 2
#     Edge 100, Type (0, 1), BuildingBlock: XIVTED_clean_linker_0, # of connection points: 2
#     Edge 101, Type (0, 1), BuildingBlock: XIVTED_clean_linker_0, # of connection points: 2
#     Edge 102, Type (0, 1), BuildingBlock: XIVTED_clean_linker_0, # of connection points: 2
#     Edge 103, Type (0, 1), BuildingBlock: XIVTED_clean_linker_0, # of connection points: 2
#     Edge 104, Type (0, 1), BuildingBlock: XIVTED_clean_linker_0, # of connection points: 2
#     Edge 105, Type (0, 1), BuildingBlock: XIVTED_clean_linker_0, # of connection points: 2
#     Edge 106, Type (0, 1), BuildingBlock: XIVTED_clean_linker_0, # of connection points: 2
#     Edge 107, Type (0, 1), BuildingBlock: XIVTED_clean_linker_0, # of connection points: 2
#     Edge 108, Type (0, 1), BuildingBlock: XIVTED_clean_linker_0, # of connection points: 2
#     Edge 109, Type (0, 1), BuildingBlock: XIVTED_clean_linker_0, # of connection points: 2
#     Edge 110, Type (0, 1), BuildingBlock: XIVTED_clean_linker_0, # of connection points: 2
#     Edge 111, Type (0, 1), BuildingBlock: XIVTED_clean_linker_0, # of connection points: 2
#     Edge 112, Type (0, 1), BuildingBlock: XIVTED_clean_linker_0, # of connection points: 2
#     Edge 113, Type (0, 1), BuildingBlock: XIVTED_clean_linker_0, # of connection points: 2
#     Edge 114, Type (0, 1), BuildingBlock: XIVTED_clean_linker_0, # of connection points: 2
#     Edge 115, Type (0, 1), BuildingBlock: XIVTED_clean_linker_0, # of connection points: 2
#     Edge 116, Type (0, 1), BuildingBlock: XIVTED_clean_linker_0, # of connection points: 2
#     Edge 117, Type (0, 1), BuildingBlock: XIVTED_clean_linker_0, # of connection points: 2
#     Edge 118, Type (0, 1), BuildingBlock: XIVTED_clean_linker_0, # of connection points: 2
#     Edge 119, Type (0, 1), BuildingBlock: XIVTED_clean_linker_0, # of connection points: 2
#     Edge 120, Type (0, 1), BuildingBlock: XIVTED_clean_linker_0, # of connection points: 2
#     Edge 121, Type (0, 1), BuildingBlock: XIVTED_clean_linker_0, # of connection points: 2
#     Edge 122, Type (0, 1), BuildingBlock: XIVTED_clean_linker_0, # of connection points: 2
#     Edge 123, Type (0, 1), BuildingBlock: XIVTED_clean_linker_0, # of connection points: 2
#     Edge 124, Type (0, 1), BuildingBlock: XIVTED_clean_linker_0, # of connection points: 2
#     Edge 125, Type (0, 1), BuildingBlock: XIVTED_clean_linker_0, # of connection points: 2
#     Edge 126, Type (0, 1), BuildingBlock: XIVTED_clean_linker_0, # of connection points: 2
#     Edge 127, Type (0, 1), BuildingBlock: XIVTED_clean_linker_0, # of connection points: 2
#     Edge 128, Type (0, 1), BuildingBlock: XIVTED_clean_linker_0, # of connection points: 2
#     Edge 129, Type (0, 1), BuildingBlock: XIVTED_clean_linker_0, # of connection points: 2
#     Edge 130, Type (0, 1), BuildingBlock: XIVTED_clean_linker_0, # of connection points: 2
#     Edge 131, Type (0, 1), BuildingBlock: XIVTED_clean_linker_0, # of connection points: 2
#     Edge 132, Type (0, 1), BuildingBlock: XIVTED_clean_linker_0, # of connection points: 2
#     Edge 133, Type (0, 1), BuildingBlock: XIVTED_clean_linker_0, # of connection points: 2
#     Edge 134, Type (0, 1), BuildingBlock: XIVTED_clean_linker_0, # of connection points: 2
#     Edge 135, Type (0, 1), BuildingBlock: XIVTED_clean_linker_0, # of connection points: 2
# Relax obj value: 0.176
# Max RMSD: 0.273
# Mean RMSD: 0.197
data_MOF--net-gar--node1-AZAVOO_clean_sbu_0--node2-PAMTOO_clean_sbu_0--edge1-XIVTED_clean_linker_0
_symmetry_space_group_name_H-M    P1
_symmetry_Int_Tables_number       1
_symmetry_cell_setting            triclinic
loop_
_symmetry_equiv_pos_as_xyz
'x, y, z'
_cell_length_a     60.993312
_cell_length_b     59.186305
_cell_length_c     58.253259
_cell_angle_alpha  99.403027
_cell_angle_beta   95.746302
_cell_angle_gamma 104.84955
loop_
_atom_site_label
_atom_site_type_symbol
_atom_site_fract_x
_atom_site_fract_y
_atom_site_fract_z
_atom_type_partial_charge
Mg0 Mg 0.0315 0.30116 0.34876 0.0
O1 O 0.03814 0.33741 0.37605 0.0
O2 O 0.00813 0.33228 0.39595 0.0
Mg3 Mg 0.98181 0.29632 0.38183 0.0
C4 C 0.02728 0.34489 0.39215 0.0
C5 C 0.07512 0.29282 0.32605 0.0
O6 O 0.05833 0.27387 0.31598 0.0
O7 O 0.03926 0.28098 0.37882 0.0
O8 O 0.00765 0.27825 0.3959 0.0
O9 O 0.00876 0.31353 0.32128 0.0
O10 O 0.99541 0.29513 0.34848 0.0
C11 C 0.02692 0.27387 0.39427 0.0
C12 C 0.99122 0.30483 0.33109 0.0
O13 O 0.07029 0.30877 0.34083 0.0
Mg14 Mg 0.00873 0.76055 0.70059 0.0
O15 O 0.00445 0.72264 0.67892 0.0
O16 O 0.97222 0.71163 0.65318 0.0
Mg17 Mg 0.95416 0.74156 0.65912 0.0
C18 C 0.99055 0.70766 0.66204 0.0
C19 C 0.0647 0.78055 0.71306 0.0
O20 O 0.06048 0.79951 0.70671 0.0
O21 O 0.01748 0.7773 0.66815 0.0
O22 O 0.98316 0.76704 0.64557 0.0
O23 O 0.98577 0.74856 0.72847 0.0
O24 O 0.9721 0.75605 0.69552 0.0
C25 C 0.00453 0.77822 0.64977 0.0
C26 C 0.96815 0.75032 0.7153 0.0
O27 O 0.04769 0.76257 0.71293 0.0
Mg28 Mg 0.53376 0.80324 0.84607 0.0
O29 O 0.5391 0.83954 0.87373 0.0
O30 O 0.50884 0.8316 0.89312 0.0
Mg31 Mg 0.4841 0.79481 0.87937 0.0
C32 C 0.52742 0.84565 0.88975 0.0
C33 C 0.59073 0.81206 0.84813 0.0
O34 O 0.59058 0.81151 0.87057 0.0
O35 O 0.54321 0.78357 0.87583 0.0
O36 O 0.5117 0.77868 0.89332 0.0
O37 O 0.50985 0.81431 0.81875 0.0
O38 O 0.49757 0.79562 0.84617 0.0
C39 C 0.53148 0.7757 0.89139 0.0
C40 C 0.49266 0.80499 0.82873 0.0
O41 O 0.57187 0.81098 0.83546 0.0
Mg42 Mg 0.50856 0.26426 0.20163 0.0
O43 O 0.50297 0.22635 0.17859 0.0
O44 O 0.47074 0.21895 0.15338 0.0
Mg45 Mg 0.45375 0.24932 0.1607 0.0
C46 C 0.48832 0.21298 0.16124 0.0
C47 C 0.55789 0.25153 0.21528 0.0
O48 O 0.54529 0.22925 0.21068 0.0
O49 O 0.51781 0.28195 0.16975 0.0
O50 O 0.48345 0.27371 0.14768 0.0
O51 O 0.48433 0.25143 0.22886 0.0
O52 O 0.47256 0.26115 0.19652 0.0
C53 C 0.50503 0.2838 0.15169 0.0
C54 C 0.46755 0.25471 0.21565 0.0
O55 O 0.54798 0.26795 0.21369 0.0
Mg56 Mg 0.05878 0.80659 0.11846 0.0
O57 O 0.05637 0.77026 0.09299 0.0
O58 O 0.02167 0.75967 0.07163 0.0
Mg59 Mg 0.00219 0.78763 0.08249 0.0
C60 C 0.04076 0.75535 0.07738 0.0
C61 C 0.10174 0.81794 0.1541 0.0
O62 O 0.08528 0.82275 0.16524 0.0
O63 O 0.06243 0.83235 0.09076 0.0
O64 O 0.02625 0.82061 0.07235 0.0
O65 O 0.04271 0.78556 0.14424 0.0
O66 O 0.02263 0.79775 0.11786 0.0
C67 C 0.04643 0.83505 0.07611 0.0
C68 C 0.02292 0.78662 0.13505 0.0
O69 O 0.09753 0.81186 0.13167 0.0
Mg70 Mg 0.48999 0.76176 0.42517 0.0
O71 O 0.4968 0.79851 0.45108 0.0
O72 O 0.46616 0.79496 0.46953 0.0
Mg73 Mg 0.441 0.75715 0.45588 0.0
C74 C 0.48533 0.80751 0.46553 0.0
C75 C 0.5331 0.75441 0.40506 0.0
O76 O 0.51825 0.73324 0.39861 0.0
O77 O 0.49687 0.73936 0.45331 0.0
O78 O 0.46408 0.73345 0.46814 0.0
O79 O 0.47337 0.77684 0.39796 0.0
O80 O 0.45355 0.75678 0.42131 0.0
C81 C 0.48333 0.72885 0.46617 0.0
C82 C 0.45379 0.76897 0.40476 0.0
O83 O 0.5274 0.77075 0.41812 0.0
Mg84 Mg 0.55925 0.31153 0.61798 0.0
O85 O 0.55657 0.2754 0.59214 0.0
O86 O 0.52133 0.26432 0.57193 0.0
Mg87 Mg 0.50188 0.29217 0.58335 0.0
C88 C 0.54068 0.26028 0.577 0.0
C89 C 0.60267 0.32204 0.65281 0.0
O90 O 0.58646 0.32679 0.6644 0.0
O91 O 0.56178 0.33747 0.59032 0.0
O92 O 0.52527 0.3252 0.5728 0.0
O93 O 0.54363 0.29021 0.64397 0.0
O94 O 0.52325 0.30277 0.61819 0.0
C95 C 0.54528 0.3399 0.57608 0.0
C96 C 0.5238 0.29157 0.63527 0.0
O97 O 0.59817 0.31652 0.63036 0.0
Mg98 Mg 0.98698 0.25508 0.9217 0.0
O99 O 0.99488 0.29214 0.94739 0.0
O100 O 0.96593 0.28889 0.96825 0.0
Mg101 Mg 0.9404 0.251 0.9556 0.0
C102 C 0.98444 0.30135 0.96284 0.0
C103 C 0.03166 0.28122 0.90363 0.0
O104 O 0.01896 0.29579 0.90114 0.0
O105 O 0.99545 0.23279 0.94954 0.0
O106 O 0.96383 0.22682 0.96635 0.0
O107 O 0.96901 0.27009 0.89533 0.0
O108 O 0.95054 0.25053 0.9198 0.0
C109 C 0.98288 0.22223 0.96313 0.0
C110 C 0.94994 0.26267 0.90324 0.0
O111 O 0.02399 0.26333 0.91299 0.0
Mg112 Mg 0.42027 0.05387 0.28514 0.0
O113 O 0.39999 0.02002 0.29555 0.0
O114 O 0.38673 0.02807 0.32937 0.0
Mg115 Mg 0.39817 0.06867 0.34016 0.0
C116 C 0.38903 0.01328 0.31184 0.0
C117 C 0.42588 0.01265 0.24983 0.0
O118 O 0.43291 0.00821 0.27025 0.0
O119 O 0.38698 0.06139 0.2733 0.0
O120 O 0.37441 0.07046 0.30745 0.0
O121 O 0.45163 0.05164 0.30553 0.0
O122 O 0.42779 0.07049 0.32069 0.0
C123 C 0.3721 0.0674 0.28499 0.0
C124 C 0.44541 0.06243 0.32386 0.0
O125 O 0.4195 0.03144 0.24936 0.0
Mg126 Mg 0.28093 0.18821 0.50941 0.0
O127 O 0.28191 0.21459 0.54405 0.0
O128 O 0.3174 0.23898 0.55185 0.0
Mg129 Mg 0.3379 0.22931 0.52226 0.0
C130 C 0.29739 0.23179 0.5574 0.0
C131 C 0.23624 0.15088 0.50034 0.0
O132 O 0.25211 0.14015 0.49561 0.0
O133 O 0.27886 0.21474 0.48501 0.0
O134 O 0.31521 0.23717 0.49147 0.0
O135 O 0.29321 0.165 0.53081 0.0
O136 O 0.31657 0.19188 0.51578 0.0
C137 C 0.29488 0.23104 0.47999 0.0
C138 C 0.31394 0.17554 0.52829 0.0
O139 O 0.24218 0.17351 0.50634 0.0
Mg140 Mg 0.12309 0.03731 0.79039 0.0
O141 O 0.14694 0.07561 0.79869 0.0
O142 O 0.17039 0.08038 0.83219 0.0
Mg143 Mg 0.16055 0.04599 0.84654 0.0
C144 C 0.16362 0.08824 0.81442 0.0
C145 C 0.09951 0.02337 0.73807 0.0
O146 O 0.093 0.00309 0.74525 0.0
O147 O 0.1532 0.02338 0.77988 0.0
O148 O 0.17382 0.02783 0.81518 0.0
O149 O 0.09694 0.04735 0.81194 0.0
O150 O 0.126 0.03562 0.82614 0.0
C151 C 0.17043 0.0211 0.79281 0.0
C152 C 0.10817 0.04263 0.82978 0.0
O153 O 0.1124 0.04147 0.75257 0.0
Mg154 Mg 0.27564 0.89564 0.02634 0.0
O155 O 0.27796 0.88423 0.98706 0.0
O156 O 0.31044 0.87332 0.9856 0.0
Mg157 Mg 0.32675 0.87422 0.02266 0.0
C158 C 0.2925 0.87707 0.97555 0.0
C159 C 0.2381 0.91529 0.00515 0.0
O160 O 0.25517 0.92364 0.99401 0.0
O161 O 0.26246 0.85658 0.02896 0.0
O162 O 0.29485 0.84564 0.02714 0.0
O163 O 0.29829 0.93193 0.02682 0.0
O164 O 0.31075 0.9019 0.03528 0.0
C165 C 0.2735 0.8409 0.02896 0.0
C166 C 0.3153 0.92345 0.03196 0.0
O167 O 0.24009 0.90035 0.01806 0.0
Mg168 Mg 0.29835 0.389 0.04687 0.0
O169 O 0.2934 0.36279 0.01087 0.0
O170 O 0.32197 0.34574 0.01354 0.0
Mg171 Mg 0.34423 0.35998 0.04994 0.0
C172 C 0.30448 0.34877 0.00176 0.0
C173 C 0.26293 0.4158 0.04936 0.0
O174 O 0.28149 0.42884 0.06371 0.0
O175 O 0.28567 0.35994 0.06848 0.0
O176 O 0.31586 0.34526 0.07188 0.0
O177 O 0.32084 0.41724 0.03208 0.0
O178 O 0.33404 0.39332 0.05152 0.0
C179 C 0.29625 0.34644 0.07716 0.0
C180 C 0.33814 0.41033 0.03988 0.0
O181 O 0.26297 0.39523 0.03871 0.0
Mg182 Mg 0.77691 0.15491 0.02015 0.0
O183 O 0.7915 0.17056 0.05866 0.0
O184 O 0.82928 0.18694 0.06153 0.0
Mg185 Mg 0.83893 0.1788 0.0247 0.0
C186 C 0.81091 0.18214 0.07073 0.0
C187 C 0.7343 0.14163 0.04411 0.0
O188 O 0.74905 0.13411 0.05672 0.0
O189 O 0.78203 0.19221 0.01377 0.0
O190 O 0.81991 0.20561 0.01433 0.0
O191 O 0.7813 0.11999 0.02423 0.0
O192 O 0.80768 0.14851 0.01401 0.0
C193 C 0.79974 0.20838 0.01183 0.0
C194 C 0.80179 0.12763 0.01924 0.0
O195 O 0.74092 0.15247 0.02788 0.0
Mg196 Mg 0.16832 0.52251 0.25137 0.0
O197 O 0.1842 0.56288 0.26379 0.0
O198 O 0.19854 0.57089 0.30196 0.0
Mg199 Mg 0.19429 0.53529 0.31332 0.0
C200 C 0.1941 0.57764 0.28275 0.0
C201 C 0.15124 0.5428 0.21133 0.0
O202 O 0.14738 0.55565 0.2303 0.0
O203 O 0.20402 0.51821 0.24905 0.0
O204 O 0.21818 0.52616 0.28733 0.0
O205 O 0.13584 0.52567 0.26301 0.0
O206 O 0.1641 0.51973 0.28605 0.0
C207 C 0.2203 0.52074 0.26566 0.0
C208 C 0.14465 0.52463 0.28378 0.0
O209 O 0.1621 0.5274 0.21366 0.0
Mg210 Mg 0.79717 0.88836 0.54605 0.0
O211 O 0.79252 0.86156 0.51042 0.0
O212 O 0.82167 0.8454 0.51359 0.0
Mg213 Mg 0.84345 0.86012 0.55022 0.0
C214 C 0.80404 0.84789 0.50156 0.0
C215 C 0.76344 0.91636 0.54668 0.0
O216 O 0.78289 0.9293 0.55961 0.0
O217 O 0.78462 0.85996 0.56844 0.0
O218 O 0.81496 0.84548 0.57199 0.0
O219 O 0.81954 0.91587 0.53036 0.0
O220 O 0.83287 0.8932 0.55154 0.0
C221 C 0.79535 0.84664 0.57726 0.0
C222 C 0.83685 0.90957 0.53916 0.0
O223 O 0.76196 0.89486 0.53747 0.0
Mg224 Mg 0.94706 0.03966 0.27251 0.0
O225 O 0.92045 0.00288 0.27109 0.0
O226 O 0.90671 0.00708 0.30536 0.0
Mg227 Mg 0.92351 0.04353 0.3284 0.0
C228 C 0.90711 -0.00524 0.28533 0.0
C229 C 0.96623 0.04826 0.22769 0.0
O230 O 0.97798 0.06608 0.2446 0.0
O231 O 0.91752 0.05709 0.26599 0.0
O232 O 0.90556 0.05889 0.30119 0.0
O233 O 0.97522 0.02746 0.29162 0.0
O234 O 0.95239 0.04569 0.309 0.0
C235 C 0.90422 0.06273 0.28024 0.0
C236 C 0.96858 0.03565 0.31091 0.0
O237 O 0.95033 0.03211 0.23294 0.0
Mg238 Mg 0.27184 0.65385 0.50861 0.0
O239 O 0.28007 0.66752 0.54812 0.0
O240 O 0.31747 0.67277 0.55955 0.0
Mg241 Mg 0.33273 0.66028 0.52687 0.0
C242 C 0.29765 0.67398 0.56401 0.0
C243 C 0.22184 0.66494 0.51575 0.0
O244 O 0.20935 0.67972 0.51338 0.0
O245 O 0.29132 0.69009 0.50437 0.0
O246 O 0.32879 0.69366 0.51265 0.0
O247 O 0.26347 0.61553 0.51326 0.0
O248 O 0.29791 0.63779 0.51066 0.0
C249 C 0.31223 0.70186 0.50622 0.0
C250 C 0.2853 0.61808 0.51427 0.0
O251 O 0.24073 0.66847 0.50768 0.0
Mg252 Mg 0.44738 0.54161 0.77713 0.0
O253 O 0.4207 0.50468 0.77452 0.0
O254 O 0.40809 0.50707 0.80951 0.0
Mg255 Mg 0.42666 0.54203 0.83447 0.0
C256 C 0.40767 0.49585 0.78871 0.0
C257 C 0.46506 0.55218 0.73195 0.0
O258 O 0.47838 0.56879 0.74905 0.0
O259 O 0.41793 0.55939 0.77422 0.0
O260 O 0.40821 0.56025 0.81031 0.0
O261 O 0.47634 0.52828 0.79206 0.0
O262 O 0.45414 0.54422 0.81325 0.0
C263 C 0.40586 0.56508 0.78978 0.0
C264 C 0.47027 0.53396 0.81238 0.0
O265 O 0.44872 0.53656 0.73724 0.0
Mg266 Mg 0.65654 0.02332 0.76314 0.0
O267 O 0.67344 0.06381 0.77341 0.0
O268 O 0.68656 0.07345 0.81196 0.0
Mg269 Mg 0.68022 0.03909 0.82596 0.0
C270 C 0.68325 0.07923 0.792 0.0
C271 C 0.6403 0.04034 0.72087 0.0
O272 O 0.63636 0.05418 0.7391 0.0
O273 O 0.69199 0.0178 0.76334 0.0
O274 O 0.70467 0.02724 0.80202 0.0
O275 O 0.6239 0.02831 0.77255 0.0
O276 O 0.65081 0.02324 0.79798 0.0
C277 C 0.7075 0.02051 0.78079 0.0
C278 C 0.63184 0.02878 0.79405 0.0
O279 O 0.65162 0.0256 0.72442 0.0
Mg280 Mg 0.78358 0.68781 0.00927 0.0
O281 O 0.78299 0.71247 0.04429 0.0
O282 O 0.81687 0.73978 0.05358 0.0
Mg283 Mg 0.83919 0.73074 0.02528 0.0
C284 C 0.79685 0.73057 0.05816 0.0
C285 C 0.73757 0.65101 0.9949 0.0
O286 O 0.75234 0.64018 0.9868 0.0
O287 O 0.78177 0.71506 0.98565 0.0
O288 O 0.81774 0.73844 0.99342 0.0
O289 O 0.79533 0.66418 0.03012 0.0
O290 O 0.81928 0.69237 0.01704 0.0
C291 C 0.79771 0.73182 0.98122 0.0
C292 C 0.81623 0.67538 0.02882 0.0
O293 O 0.74483 0.67287 0.00487 0.0
Mg294 Mg 0.91292 0.55544 0.78689 0.0
O295 O 0.89315 0.52071 0.79628 0.0
O296 O 0.87976 0.52766 0.83021 0.0
Mg297 Mg 0.89068 0.56814 0.84217 0.0
C298 C 0.88228 0.51335 0.81241 0.0
C299 C 0.9188 0.5157 0.75024 0.0
O300 O 0.92545 0.51039 0.77034 0.0
O301 O 0.87936 0.56267 0.77573 0.0
O302 O 0.86672 0.57081 0.80997 0.0
O303 O 0.94469 0.5532 0.80641 0.0
O304 O 0.9205 0.5707 0.82283 0.0
C305 C 0.86442 0.56829 0.78756 0.0
C306 C 0.93847 0.56302 0.82524 0.0
O307 O 0.91244 0.53458 0.75046 0.0
Mg308 Mg 0.78899 0.41704 0.52726 0.0
O309 O 0.78641 0.40173 0.48772 0.0
O310 O 0.81656 0.38705 0.48381 0.0
Mg311 Mg 0.83611 0.38975 0.51985 0.0
C312 C 0.79859 0.39174 0.47511 0.0
C313 C 0.75171 0.43857 0.50848 0.0
O314 O 0.76809 0.44601 0.49619 0.0
O315 O 0.7741 0.37932 0.53322 0.0
O316 O 0.80414 0.36469 0.52886 0.0
O317 O 0.81341 0.45144 0.52395 0.0
O318 O 0.8239 0.42041 0.53249 0.0
C319 C 0.78355 0.36236 0.53293 0.0
C320 C 0.82961 0.44153 0.52803 0.0
O321 O 0.75416 0.42417 0.52187 0.0
Mg322 Mg 0.61501 0.53952 0.29178 0.0
O323 O 0.64039 0.57707 0.29954 0.0
O324 O 0.66425 0.58088 0.33248 0.0
Mg325 Mg 0.65302 0.54672 0.34711 0.0
C326 C 0.65766 0.58908 0.31487 0.0
C327 C 0.59705 0.52593 0.2378 0.0
O328 O 0.59692 0.50502 0.24277 0.0
O329 O 0.64369 0.52327 0.28055 0.0
O330 O 0.66472 0.52688 0.31544 0.0
O331 O 0.59008 0.55134 0.31383 0.0
O332 O 0.61811 0.53784 0.32759 0.0
C333 C 0.66062 0.51993 0.29308 0.0
C334 C 0.6009 0.54591 0.33149 0.0
O335 O 0.60399 0.54426 0.25425 0.0
Dy336 Dy 0.05268 0.04849 0.03586 0.0
Dy337 Dy 0.00199 0.0184 0.00963 0.0
C338 C 0.0437 0.02934 0.98092 0.0
O339 O 0.0389 0.07559 0.02006 0.0
O340 O 1.00035 0.05681 0.01539 0.0
O341 O 0.0869 0.06934 0.03359 0.0
O342 O 0.07845 0.0606 0.06683 0.0
O343 O 0.99941 0.02345 0.04804 0.0
O344 O 0.02988 0.05635 0.06212 0.0
O345 O 0.02138 0.99074 0.01179 0.0
O346 O 0.04749 0.0115 0.04387 0.0
O347 O 0.97154 0.98945 0.00777 0.0
O348 O 0.97458 0.01031 0.9805 0.0
C349 C 0.01734 0.07594 0.01542 0.0
O350 O 0.057 0.03033 0.00038 0.0
O351 O 0.0221 0.02843 0.98122 0.0
C352 C 0.11301 0.05493 0.05522 0.0
C353 C 0.14273 0.02595 0.04658 0.0
C354 C 0.12326 0.01815 0.0573 0.0
C355 C 0.10863 0.03248 0.06161 0.0
C356 C 0.13305 0.06335 0.04566 0.0
C357 C 0.14783 0.04901 0.04142 0.0
C358 C 0.09486 0.0673 0.05455 0.0
C359 C 0.01087 0.04126 0.06502 0.0
C360 C 0.03639 0.99108 0.02986 0.0
C361 C 0.93871 -0.00066 0.99257 0.0
C362 C 0.90131 0.01829 -0.00297 0.0
C363 C 0.91543 0.01729 0.01718 0.0
C364 C 0.9341 0.00803 0.01497 0.0
C365 C 0.9236 -0.00136 0.97253 0.0
C366 C 0.90503 0.00813 0.97473 0.0
C367 C 0.96089 -0.00524 0.98977 0.0
H368 H 0.11855 0.00043 0.06123 0.0
H369 H 0.09321 0.02533 0.0688 0.0
H370 H 0.13669 0.08051 0.04041 0.0
H371 H 0.1629 0.05573 0.03351 0.0
H372 H 0.91307 0.02523 0.03454 0.0
H373 H 0.94568 0.00903 0.03071 0.0
H374 H 0.92697 0.99211 0.95513 0.0
H375 H 0.89422 0.00858 0.95897 0.0
Dy376 Dy 0.28775 0.78706 0.25884 0.0
Dy377 Dy 0.26737 0.80587 0.30603 0.0
C378 C 0.30176 0.841 0.28337 0.0
O379 O 0.30955 0.77896 0.28805 0.0
O380 O 0.30259 0.80387 0.31948 0.0
O381 O 0.306 0.79433 0.22989 0.0
O382 O 0.29196 0.75782 0.23358 0.0
O383 O 0.26177 0.76682 0.3029 0.0
O384 O 0.25759 0.7582 0.26295 0.0
O385 O 0.23832 0.79986 0.27669 0.0
O386 O 0.25916 0.8015 0.24586 0.0
O387 O 0.24535 0.80102 0.33285 0.0
O388 O 0.26881 0.83557 0.33356 0.0
C389 C 0.31442 0.78983 0.31031 0.0
O390 O 0.31017 0.82354 0.27525 0.0
O391 O 0.28118 0.83639 0.28916 0.0
C392 C 0.28893 0.76604 0.19541 0.0
C393 C 0.26767 0.75685 0.14827 0.0
C394 C 0.26316 0.77416 0.16533 0.0
C395 C 0.27363 0.77863 0.18859 0.0
C396 C 0.29283 0.74805 0.17881 0.0
C397 C 0.28227 0.74346 0.15538 0.0
C398 C 0.30071 0.77188 0.21979 0.0
C399 C 0.25432 0.75155 0.28299 0.0
C400 C 0.24011 0.80176 0.25464 0.0
C401 C 0.26674 0.82224 0.36941 0.0
C402 C 0.28788 0.81411 0.41136 0.0
C403 C 0.2638 0.80783 0.40596 0.0
C404 C 0.25332 0.81187 0.38514 0.0
C405 C 0.29077 0.82985 0.37551 0.0
C406 C 0.30121 0.8259 0.39631 0.0
C407 C 0.25606 0.82205 0.3455 0.0
H408 H 0.25248 0.78523 0.16058 0.0
H409 H 0.27035 0.79257 0.20112 0.0
H410 H 0.30437 0.73792 0.18385 0.0
H411 H 0.28596 0.72986 0.14276 0.0
H412 H 0.25302 0.79844 0.41705 0.0
H413 H 0.23481 0.80572 0.38071 0.0
H414 H 0.30165 0.83782 0.36371 0.0
H415 H 0.31976 0.8312 0.40011 0.0
Dy416 Dy 0.50708 0.0346 0.5327 0.0
Dy417 Dy 0.55712 0.04035 0.51271 0.0
C418 C 0.51287 0.04292 0.48062 0.0
O419 O 0.5057 -0.00251 0.51441 0.0
O420 O 0.54431 0.0017 0.51546 0.0
O421 O 0.46993 0.02337 0.52629 0.0
O422 O 0.488 0.04022 0.56134 0.0
O423 O 0.56486 0.0439 0.55116 0.0
O424 O 0.52972 0.02509 0.56 0.0
O425 O 0.55296 0.07787 0.51811 0.0
O426 O 0.5254 0.07364 0.54272 0.0
O427 O 0.59391 0.05555 0.51655 0.0
O428 O 0.57613 0.02893 0.48589 0.0
C429 C 0.52301 0.98812 0.51235 0.0
O430 O 0.50366 0.04831 0.49941 0.0
O431 O 0.53085 0.03468 0.48156 0.0
C432 C 0.45409 0.05008 0.54917 0.0
C433 C 0.42667 0.08209 0.55013 0.0
C434 C 0.41652 0.0573 0.54628 0.0
C435 C 0.43012 0.04147 0.54576 0.0
C436 C 0.46429 0.0748 0.55325 0.0
C437 C 0.45074 0.09064 0.55369 0.0
C438 C 0.46829 0.03327 0.54754 0.0
C439 C 0.55214 0.03322 0.56514 0.0
C440 C 0.54064 0.08708 0.53252 0.0
C441 C 0.61239 0.02696 0.50197 0.0
C442 C 0.64401 0.00051 0.50992 0.0
C443 C 0.62143 0.99276 0.51468 0.0
C444 C 0.60582 0.00593 0.51086 0.0
C445 C 0.63481 0.03468 0.49704 0.0
C446 C 0.65051 0.02161 0.50102 0.0
C447 C 0.59598 0.04091 0.49812 0.0
H448 H 0.39805 0.05008 0.54315 0.0
H449 H 0.42191 0.02246 0.54243 0.0
H450 H 0.48277 0.08186 0.55603 0.0
H451 H 0.45914 0.10959 0.55697 0.0
H452 H 0.61596 0.9768 0.52184 0.0
H453 H 0.58864 -0.00023 0.51499 0.0
H454 H 0.6402 0.05085 0.49018 0.0
H455 H 0.66771 0.02796 0.497 0.0
Dy456 Dy 0.30833 0.27812 0.77961 0.0
Dy457 Dy 0.25947 0.29312 0.77358 0.0
C458 C 0.30757 0.32966 0.77072 0.0
O459 O 0.30602 0.29702 0.81564 0.0
O460 O 0.26715 0.29238 0.81195 0.0
O461 O 0.34495 0.28778 0.79094 0.0
O462 O 0.32686 0.25162 0.77351 0.0
O463 O 0.25056 0.25371 0.7707 0.0
O464 O 0.28263 0.25043 0.79241 0.0
O465 O 0.26911 0.28879 0.737 0.0
O466 O 0.29205 0.26412 0.74206 0.0
O467 O 0.22345 0.28465 0.75936 0.0
O468 O 0.24015 0.31831 0.7828 0.0
C469 C 0.28734 0.2976 0.82503 0.0
O470 O 0.31614 0.31163 0.76534 0.0
O471 O 0.2877 0.32688 0.77838 0.0
C472 C 0.3639 0.26764 0.76477 0.0
C473 C 0.39667 0.26899 0.73344 0.0
C474 C 0.37537 0.27309 0.72679 0.0
C475 C 0.3593 0.27266 0.74237 0.0
C476 C 0.38495 0.26343 0.77155 0.0
C477 C 0.40122 0.26419 0.75611 0.0
C478 C 0.34683 0.26707 0.78105 0.0
C479 C 0.26084 0.24196 0.78338 0.0
C480 C 0.28046 0.27396 0.7283 0.0
C481 C 0.2016 0.30049 0.78578 0.0
C482 C 0.16566 0.29634 0.81345 0.0
C483 C 0.18497 0.28849 0.81973 0.0
C484 C 0.20277 0.29057 0.80603 0.0
C485 C 0.1823 0.308 0.77925 0.0
C486 C 0.16451 0.30594 0.7929 0.0
C487 C 0.2207 0.30384 0.77186 0.0
H488 H 0.37094 0.27649 0.70947 0.0
H489 H 0.34326 0.27629 0.73698 0.0
H490 H 0.38889 0.25973 0.78887 0.0
H491 H 0.41752 0.26142 0.76216 0.0
H492 H 0.1866 0.28124 0.83551 0.0
H493 H 0.21759 0.28472 0.81142 0.0
H494 H 0.18107 0.31566 0.76366 0.0
H495 H 0.14978 0.31179 0.78726 0.0
Dy496 Dy 0.04437 0.00182 0.5169 0.0
Dy497 Dy 0.0322 0.05388 0.52867 0.0
C498 C 0.99498 0.00554 0.52824 0.0
O499 O 0.03965 0.01182 0.48152 0.0
O500 O 0.01712 0.03662 0.49148 0.0
O501 O 0.03504 0.96407 0.50141 0.0
O502 O 0.0679 0.98099 0.52311 0.0
O503 O 0.06254 0.05972 0.51005 0.0
O504 O 0.0774 0.03051 0.52058 0.0
O505 O 0.05147 0.05007 0.56208 0.0
O506 O 0.0416 0.00929 0.55516 0.0
O507 O 0.04379 0.09178 0.54313 0.0
O508 O 0.00894 0.0757 0.52549 0.0
C509 C 0.02529 0.02389 0.47558 0.0
O510 O 0.00633 -0.00534 0.5143 0.0
O511 O 0.004 0.02751 0.54002 0.0
C512 C 0.04959 0.94136 0.526 0.0
C513 C 0.04285 0.90379 0.55149 0.0
C514 C 0.04611 0.92751 0.56302 0.0
C515 C 0.04936 0.94605 0.55041 0.0
C516 C 0.04635 0.91777 0.51442 0.0
C517 C 0.04298 0.89918 0.527 0.0
C518 C 0.05329 0.96086 0.51254 0.0
C519 C 0.07991 0.05093 0.51361 0.0
C520 C 0.04951 0.02998 0.56964 0.0
C521 C 0.02764 0.1146 0.52019 0.0
C522 C 0.03335 0.15167 0.49399 0.0
C523 C 0.02894 0.12769 0.4826 0.0
C524 C 0.02619 0.10937 0.49556 0.0
C525 C 0.03237 0.13844 0.53163 0.0
C526 C 0.03523 0.15674 0.51874 0.0
C527 C 0.02488 0.09556 0.5342 0.0
H528 H 0.04577 0.93173 0.58176 0.0
H529 H 0.0517 0.96409 0.55974 0.0
H530 H 0.04649 0.91372 0.49562 0.0
H531 H 0.04076 0.88121 0.51755 0.0
H532 H 0.02715 0.12296 0.46362 0.0
H533 H 0.02279 0.09111 0.48631 0.0
H534 H 0.03388 0.14293 0.55062 0.0
H535 H 0.03907 0.17494 0.52826 0.0
Dy536 Dy 0.28565 0.81397 0.75184 0.0
Dy537 Dy 0.27269 0.7641 0.7712 0.0
C538 C 0.27509 0.81292 0.80461 0.0
O539 O 0.31931 0.80488 0.75755 0.0
O540 O 0.31022 0.7814 0.78477 0.0
O541 O 0.30655 0.84993 0.75389 0.0
O542 O 0.27866 0.8337 0.72518 0.0
O543 O 0.28902 0.75743 0.73926 0.0
O544 O 0.27723 0.7841 0.72072 0.0
O545 O 0.23919 0.76683 0.75291 0.0
O546 O 0.24839 0.80733 0.75594 0.0
O547 O 0.25609 0.72626 0.76325 0.0
O548 O 0.27438 0.74329 0.79817 0.0
C549 C 0.32564 0.79433 0.77432 0.0
O550 O 0.28768 0.82429 0.79079 0.0
O551 O 0.26394 0.79022 0.7983 0.0
C552 C 0.28513 0.87449 0.74019 0.0
C553 C 0.26557 0.91292 0.74685 0.0
C554 C 0.27136 0.90269 0.76593 0.0
C555 C 0.28092 0.88357 0.76262 0.0
C556 C 0.27963 0.88481 0.72115 0.0
C557 C 0.26984 0.90383 0.72442 0.0
C558 C 0.29373 0.85332 0.73618 0.0
C559 C 0.28414 0.76485 0.71998 0.0
C560 C 0.23294 0.78647 0.75208 0.0
C561 C 0.27757 0.70528 0.78229 0.0
C562 C 0.30215 0.67075 0.77876 0.0
C563 C 0.31252 0.69413 0.7761 0.0
C564 C 0.30032 0.71121 0.77779 0.0
C565 C 0.26705 0.68201 0.78474 0.0
C566 C 0.27922 0.66487 0.78299 0.0
C567 C 0.26465 0.72314 0.78354 0.0
H568 H 0.2679 0.90905 0.78335 0.0
H569 H 0.28462 0.87563 0.77753 0.0
H570 H 0.28258 0.8779 0.70368 0.0
H571 H 0.2656 0.91142 0.70943 0.0
H572 H 0.33021 0.6994 0.77315 0.0
H573 H 0.30866 0.7291 0.77565 0.0
H574 H 0.24941 0.67707 0.78793 0.0
H575 H 0.27059 0.64696 0.78478 0.0
Dy576 Dy 0.51574 0.04616 0.00691 0.0
Dy577 Dy 0.53103 0.02223 0.05027 0.0
C578 C 0.52825 -0.0029 -0.00294 0.0
O579 O 0.48395 0.01876 0.00986 0.0
O580 O 0.49309 0.01342 0.04752 0.0
O581 O 0.5009 0.04345 0.97099 0.0
O582 O 0.51282 0.07787 0.99462 0.0
O583 O 0.53169 0.05993 0.06594 0.0
O584 O 0.50351 0.06269 0.03865 0.0
O585 O 0.56375 0.03931 0.03887 0.0
O586 O 0.55203 0.06685 0.02102 0.0
O587 O 0.53719 0.02175 0.08726 0.0
O588 O 0.5434 -0.00586 0.06165 0.0
C589 C 0.47814 0.01073 0.02875 0.0
O590 O 0.53203 0.01821 0.99137 0.0
O591 O 0.52152 -0.00589 0.01735 0.0
C592 C 0.52029 0.07565 0.95557 0.0
C593 C 0.54964 0.08255 0.92166 0.0
C594 C 0.55821 0.09124 0.94564 0.0
C595 C 0.54367 0.08769 0.96249 0.0
C596 C 0.51133 0.06891 0.93161 0.0
C597 C 0.5259 0.07232 0.91473 0.0
C598 C 0.50624 0.06655 0.97285 0.0
C599 C 0.5158 0.07006 0.05964 0.0
C600 C 0.56829 0.05911 0.03078 0.0
C601 C 0.52611 0.98308 0.09393 0.0
C602 C 0.49249 0.9597 0.11813 0.0
C603 C 0.48754 0.95856 0.09383 0.0
C604 C 0.50424 0.97026 0.08181 0.0
C605 C 0.53183 0.98214 0.11754 0.0
C606 C 0.51515 0.97043 0.12957 0.0
C607 C 0.54104 0.0009 0.08347 0.0
H608 H 0.57636 0.09952 0.95145 0.0
H609 H 0.55104 0.09306 0.9809 0.0
H610 H 0.49336 0.05949 0.92598 0.0
H611 H 0.51879 0.06525 0.89639 0.0
H612 H 0.4703 0.95026 0.08454 0.0
H613 H 0.49953 0.97084 0.06353 0.0
H614 H 0.54859 0.99208 0.12714 0.0
H615 H 0.51949 0.97185 0.14834 0.0
Dy616 Dy 0.26109 0.25211 0.26258 0.0
Dy617 Dy 0.28702 0.30741 0.28381 0.0
C618 C 0.27887 0.27063 0.31797 0.0
O619 O 0.23245 0.2695 0.2657 0.0
O620 O 0.25126 0.30256 0.29364 0.0
O621 O 0.24861 0.21604 0.26746 0.0
O622 O 0.24125 0.22458 0.23335 0.0
O623 O 0.27052 0.30663 0.24737 0.0
O624 O 0.27162 0.26908 0.23203 0.0
O625 O 0.31256 0.2921 0.26567 0.0
O626 O 0.29851 0.2526 0.26648 0.0
O627 O 0.31758 0.33667 0.28717 0.0
O628 O 0.28906 0.34195 0.30432 0.0
C629 C 0.23197 0.28751 0.28206 0.0
O630 O 0.26185 0.25726 0.30183 0.0
O631 O 0.29407 0.28853 0.31289 0.0
C632 C 0.24691 0.18688 0.23483 0.0
C633 C 0.26313 0.14651 0.22535 0.0
C634 C 0.27752 0.16935 0.22557 0.0
C635 C 0.26947 0.1894 0.23035 0.0
C636 C 0.23195 0.16408 0.23265 0.0
C637 C 0.23997 0.14398 0.22786 0.0
C638 C 0.24009 0.2077 0.24539 0.0
C639 C 0.27061 0.29038 0.22913 0.0
C640 C 0.31532 0.27055 0.26374 0.0
C641 C 0.30948 0.37328 0.28811 0.0
C642 C 0.30958 0.41463 0.27012 0.0
C643 C 0.29221 0.39323 0.26122 0.0
C644 C 0.29223 0.37274 0.27007 0.0
C645 C 0.32742 0.39413 0.29632 0.0
C646 C 0.32753 0.41467 0.28735 0.0
C647 C 0.30866 0.35211 0.29834 0.0
H648 H 0.29551 0.17197 0.22401 0.0
H649 H 0.28127 0.20696 0.23213 0.0
H650 H 0.21447 0.1619 0.23611 0.0
H651 H 0.22845 0.1266 0.22754 0.0
H652 H 0.27789 0.39253 0.24829 0.0
H653 H 0.27837 0.35666 0.26333 0.0
H654 H 0.34107 0.39466 0.30999 0.0
H655 H 0.34132 0.43073 0.29435 0.0
Dy656 Dy 0.54704 0.50524 0.01803 0.0
Dy657 Dy 0.53278 0.55631 0.02631 0.0
C658 C 0.49726 0.50646 0.02863 0.0
O659 O 0.52753 0.50681 0.98397 0.0
O660 O 0.53699 0.54743 0.98849 0.0
O661 O 0.53892 0.46768 0.00314 0.0
O662 O 0.57163 0.48553 0.02495 0.0
O663 O 0.57078 0.56513 0.0291 0.0
O664 O 0.57466 0.53158 0.00587 0.0
O665 O 0.53597 0.54737 0.06239 0.0
O666 O 0.55982 0.52338 0.05533 0.0
O667 O 0.53972 0.59367 0.04207 0.0
O668 O 0.50976 0.57643 0.01597 0.0
C669 C 0.5295 0.52612 0.9751 0.0
O670 O 0.51461 0.49792 0.03362 0.0
O671 O 0.50015 0.52685 0.02149 0.0
C672 C 0.55385 0.44606 0.02869 0.0
C673 C 0.54754 0.40954 0.0553 0.0
C674 C 0.52989 0.42014 0.0503 0.0
C675 C 0.53304 0.43828 0.03726 0.0
C676 C 0.57161 0.43575 0.03388 0.0
C677 C 0.56854 0.41773 0.04715 0.0
C678 C 0.55729 0.46511 0.0147 0.0
C679 C 0.58261 0.55428 0.01578 0.0
C680 C 0.55012 0.53573 0.06991 0.0
C681 C 0.52821 0.61663 0.01583 0.0
C682 C 0.53694 0.65443 0.99065 0.0
C683 C 0.54896 0.63696 0.98797 0.0
C684 C 0.54462 0.61825 0.00042 0.0
C685 C 0.51623 0.63394 0.01857 0.0
C686 C 0.52051 0.65259 0.00615 0.0
C687 C 0.52277 0.5966 0.02844 0.0
H688 H 0.51364 0.41452 0.05664 0.0
H689 H 0.51915 0.44616 0.03387 0.0
H690 H 0.58785 0.44159 0.02758 0.0
H691 H 0.58241 0.40985 0.05061 0.0
H692 H 0.56185 0.63784 0.9764 0.0
H693 H 0.554 0.60499 -0.00204 0.0
H694 H 0.50333 0.63289 0.03017 0.0
H695 H 0.51055 0.66532 0.00839 0.0
Dy696 Dy 0.78275 0.31382 0.25418 0.0
Dy697 Dy 0.77276 0.26454 0.27584 0.0
C698 C 0.7736 0.31374 0.30742 0.0
O699 O 0.81795 0.30807 0.26132 0.0
O700 O 0.81004 0.28363 0.2881 0.0
O701 O 0.79906 0.35157 0.25761 0.0
O702 O 0.77571 0.33185 0.22615 0.0
O703 O 0.78887 0.25683 0.24403 0.0
O704 O 0.78102 0.28473 0.2239 0.0
O705 O 0.73899 0.26365 0.25579 0.0
O706 O 0.74482 0.30355 0.25659 0.0
O707 O 0.75663 0.22667 0.27016 0.0
O708 O 0.77749 0.2452 0.30352 0.0
C709 C 0.82488 0.29739 0.27774 0.0
O710 O 0.78579 0.3245 0.29301 0.0
O711 O 0.76295 0.29084 0.30207 0.0
C712 C 0.77495 0.37134 0.23996 0.0
C713 C 0.75187 0.40719 0.2448 0.0
C714 C 0.74023 0.38343 0.245 0.0
C715 C 0.75168 0.36571 0.24272 0.0
C716 C 0.78658 0.39495 0.23949 0.0
C717 C 0.77517 0.41275 0.24193 0.0
C718 C 0.78727 0.35285 0.23817 0.0
C719 C 0.78709 0.26513 0.22466 0.0
C720 C 0.7309 0.28188 0.25355 0.0
C721 C 0.78059 0.20693 0.28746 0.0
C722 C 0.8051 0.17254 0.27909 0.0
C723 C 0.81617 0.19697 0.28141 0.0
C724 C 0.80401 0.21397 0.28542 0.0
C725 C 0.76946 0.18267 0.28519 0.0
C726 C 0.78157 0.16563 0.28103 0.0
C727 C 0.76731 0.22455 0.28987 0.0
H728 H 0.7224 0.37862 0.24756 0.0
H729 H 0.74239 0.34764 0.24336 0.0
H730 H 0.80455 0.39965 0.23741 0.0
H731 H 0.78458 0.43085 0.24156 0.0
H732 H 0.83429 0.20303 0.28035 0.0
H733 H 0.81288 0.23261 0.28674 0.0
H734 H 0.75131 0.17686 0.28626 0.0
H735 H 0.77235 0.14699 0.27894 0.0
Dy736 Dy 0.03903 0.55179 0.51493 0.0
Dy737 Dy 0.04652 0.52237 0.55594 0.0
C738 C 0.04701 0.49982 0.5022 0.0
O739 O 0.00417 0.53864 0.52456 0.0
O740 O 0.0107 0.50624 0.53764 0.0
O741 O 0.02125 0.55599 0.48263 0.0
O742 O 0.05049 0.58424 0.50188 0.0
O743 O 0.02958 0.54997 0.57109 0.0
O744 O 0.04431 0.57728 0.54931 0.0
O745 O 0.08027 0.54887 0.55718 0.0
O746 O 0.07529 0.55003 0.51813 0.0
O747 O 0.05304 0.52052 0.5927 0.0
O748 O 0.04839 0.48923 0.56568 0.0
C749 C 0.99656 0.51762 0.52989 0.0
O750 O 0.03618 0.51478 0.49552 0.0
O751 O 0.05655 0.50284 0.52415 0.0
C752 C 0.04834 0.5747 0.4613 0.0
C753 C 0.07216 0.57244 0.42264 0.0
C754 C 0.07354 0.55764 0.43895 0.0
C755 C 0.06176 0.55878 0.45808 0.0
C756 C 0.04674 0.58953 0.44515 0.0
C757 C 0.05856 0.58834 0.42578 0.0
C758 C 0.03671 0.57565 0.48199 0.0
C759 C 0.0349 0.57203 0.56774 0.0
C760 C 0.08876 0.5534 0.5381 0.0
C761 C 0.03077 0.48417 0.59911 0.0
C762 C 0.99375 0.46694 0.62251 0.0
C763 C 0.99007 0.46632 0.59822 0.0
C764 C 0.00843 0.47492 0.58664 0.0
C765 C 0.03475 0.48326 0.62297 0.0
C766 C 0.01636 0.47462 0.6346 0.0
C767 C 0.04912 0.49741 0.58798 0.0
H768 H 0.08343 0.54483 0.43672 0.0
H769 H 0.06309 0.54714 0.47039 0.0
H770 H 0.03647 0.60196 0.44754 0.0
H771 H 0.05725 0.59992 0.41342 0.0
H772 H 0.97287 0.46036 0.58845 0.0
H773 H 0.00499 0.47544 0.56818 0.0
H774 H 0.05186 0.49045 0.63286 0.0
H775 H 0.0197 0.47563 0.65341 0.0
Dy776 Dy 0.80625 0.77517 0.27805 0.0
Dy777 Dy 0.75916 0.79292 0.27403 0.0
C778 C 0.80796 0.82818 0.2715 0.0
O779 O 0.80537 0.79328 0.31501 0.0
O780 O 0.76703 0.79134 0.31208 0.0
O781 O 0.84269 0.7821 0.28864 0.0
O782 O 0.82278 0.74727 0.26919 0.0
O783 O 0.74857 0.75335 0.27073 0.0
O784 O 0.78026 0.74847 0.29162 0.0
O785 O 0.76938 0.79023 0.23773 0.0
O786 O 0.78771 0.76145 0.24111 0.0
O787 O 0.72378 0.78685 0.25887 0.0
O788 O 0.74045 0.81803 0.28578 0.0
C789 C 0.78717 0.79516 0.32482 0.0
O790 O 0.81573 0.80966 0.26541 0.0
O791 O 0.78822 0.82597 0.27934 0.0
C792 C 0.86048 0.76162 0.26117 0.0
C793 C 0.89378 0.76185 0.23056 0.0
C794 C 0.8804 0.77807 0.23085 0.0
C795 C 0.86388 0.77791 0.24594 0.0
C796 C 0.87353 0.74527 0.26079 0.0
C797 C 0.88998 0.74534 0.24565 0.0
C798 C 0.84326 0.76138 0.2773 0.0
C799 C 0.75831 0.74095 0.28311 0.0
C800 C 0.77801 0.77338 0.22806 0.0
C801 C 0.70189 0.79912 0.28725 0.0
C802 C 0.6665 0.79007 0.31528 0.0
C803 C 0.68241 0.77651 0.31425 0.0
C804 C 0.69995 0.78104 0.30044 0.0
C805 C 0.68609 0.81264 0.28811 0.0
C806 C 0.66856 0.80818 0.30199 0.0
C807 C 0.72104 0.80468 0.27362 0.0
H808 H 0.88297 0.79124 0.21976 0.0
H809 H 0.85388 0.79062 0.24584 0.0
H810 H 0.87101 0.73242 0.27225 0.0
H811 H 0.89961 0.7323 0.24566 0.0
H812 H 0.68157 0.76267 0.32447 0.0
H813 H 0.71218 0.77059 0.30025 0.0
H814 H 0.68739 0.82676 0.27816 0.0
H815 H 0.65648 0.81878 0.30213 0.0
Dy816 Dy 0.7847 0.2859 0.75981 0.0
Dy817 Dy 0.76413 0.30524 0.80662 0.0
C818 C 0.79843 0.34004 0.78373 0.0
O819 O 0.80626 0.27747 0.78886 0.0
O820 O 0.79853 0.30107 0.82096 0.0
O821 O 0.80674 0.29223 0.73344 0.0
O822 O 0.78462 0.25688 0.73178 0.0
O823 O 0.75819 0.26648 0.8052 0.0
O824 O 0.75558 0.25641 0.7653 0.0
O825 O 0.73574 0.29848 0.77634 0.0
O826 O 0.75729 0.30153 0.74635 0.0
O827 O 0.73772 0.30366 0.82886 0.0
O828 O 0.76816 0.33378 0.83619 0.0
C829 C 0.81071 0.28752 0.81137 0.0
O830 O 0.80699 0.32261 0.77592 0.0
O831 O 0.77778 0.33535 0.78927 0.0
C832 C 0.7877 0.27051 0.69631 0.0
C833 C 0.76892 0.27029 0.65003 0.0
C834 C 0.76719 0.28749 0.66898 0.0
C835 C 0.77642 0.28755 0.69182 0.0
C836 C 0.78897 0.25285 0.67768 0.0
C837 C 0.77967 0.25274 0.65466 0.0
C838 C 0.79752 0.27105 0.72054 0.0
C839 C 0.75172 0.25058 0.78561 0.0
C840 C 0.73796 0.30126 0.75462 0.0
C841 C 0.75247 0.32118 0.86895 0.0
C842 C 0.76143 0.31468 0.91542 0.0
C843 C 0.74246 0.29917 0.89985 0.0
C844 C 0.738 0.30241 0.87685 0.0
C845 C 0.77039 0.33773 0.88503 0.0
C846 C 0.7749 0.33444 0.90803 0.0
C847 C 0.74972 0.32285 0.84385 0.0
H848 H 0.75955 0.30161 0.66614 0.0
H849 H 0.77515 0.30131 0.70594 0.0
H850 H 0.79736 0.23935 0.6809 0.0
H851 H 0.78116 0.23916 0.64049 0.0
H852 H 0.73187 0.28364 0.90494 0.0
H853 H 0.7238 0.28959 0.86502 0.0
H854 H 0.78152 0.35272 0.87961 0.0
H855 H 0.78943 0.34685 0.91977 0.0
Dy856 Dy 0.76198 0.75468 0.7636 0.0
Dy857 Dy 0.79212 0.80901 0.78546 0.0
C858 C 0.7831 0.77178 0.8191 0.0
O859 O 0.73565 0.7752 0.76831 0.0
O860 O 0.75719 0.80659 0.79675 0.0
O861 O 0.74763 0.71898 0.76857 0.0
O862 O 0.73893 0.72846 0.73519 0.0
O863 O 0.77494 0.80869 0.74929 0.0
O864 O 0.77379 0.77074 0.73317 0.0
O865 O 0.81863 0.79102 0.77352 0.0
O866 O 0.79803 0.75153 0.76195 0.0
O867 O 0.81946 0.83889 0.78174 0.0
O868 O 0.80015 0.8422 0.81067 0.0
C869 C 0.737 0.79319 0.78554 0.0
O870 O 0.76566 0.75894 0.80311 0.0
O871 O 0.79848 0.78965 0.81423 0.0
C872 C 0.74231 0.68957 0.73529 0.0
C873 C 0.75632 0.64778 0.72604 0.0
C874 C 0.77101 0.66985 0.72429 0.0
C875 C 0.76405 0.69062 0.72894 0.0
C876 C 0.72681 0.66742 0.73476 0.0
C877 C 0.73372 0.6466 0.73005 0.0
C878 C 0.73751 0.71127 0.74689 0.0
C879 C 0.77411 0.79244 0.73072 0.0
C880 C 0.81754 0.76856 0.76543 0.0
C881 C 0.81174 0.8753 0.79292 0.0
C882 C 0.80469 0.91728 0.78096 0.0
C883 C 0.7888 0.89505 0.77141 0.0
C884 C 0.79231 0.87426 0.77733 0.0
C885 C 0.82794 0.89725 0.80213 0.0
C886 C 0.82443 0.91816 0.79622 0.0
C887 C 0.81521 0.85333 0.799 0.0
H888 H 0.78859 0.67147 0.72148 0.0
H889 H 0.77627 0.70765 0.72943 0.0
H890 H 0.70996 0.66637 0.73969 0.0
H891 H 0.72194 0.62981 0.73119 0.0
H892 H 0.77318 0.89376 0.76002 0.0
H893 H 0.77969 0.85736 0.77 0.0
H894 H 0.84316 0.89823 0.814 0.0
H895 H 0.83701 0.935 0.80376 0.0
Dy896 Dy 0.54837 0.55291 0.53817 0.0
Dy897 Dy 0.49622 0.52443 0.51335 0.0
C898 C 0.53768 0.53242 0.48337 0.0
O899 O 0.53521 0.57991 0.52185 0.0
O900 O 0.49659 0.56341 0.51978 0.0
O901 O 0.5807 0.57818 0.5373 0.0
O902 O 0.57663 0.55963 0.56631 0.0
O903 O 0.4953 0.52974 0.55208 0.0
O904 O 0.52691 0.56169 0.56548 0.0
O905 O 0.51419 0.49539 0.51511 0.0
O906 O 0.54267 0.51576 0.54553 0.0
O907 O 0.46568 0.49544 0.51099 0.0
O908 O 0.46685 0.51998 0.48718 0.0
C909 C 0.51402 0.58156 0.51855 0.0
O910 O 0.55135 0.53381 0.50271 0.0
O911 O 0.51614 0.53196 0.48392 0.0
C912 C 0.61092 0.56288 0.55031 0.0
C913 C 0.6439 0.53803 0.54127 0.0
C914 C 0.63042 0.54277 0.52263 0.0
C915 C 0.61408 0.55499 0.52708 0.0
C916 C 0.62504 0.55911 0.569 0.0
C917 C 0.64138 0.54676 0.56454 0.0
C918 C 0.5911 0.57202 0.55494 0.0
C919 C 0.50769 0.54728 0.56886 0.0
C920 C 0.53028 0.49549 0.53212 0.0
C921 C 0.43189 0.50659 0.50111 0.0
C922 C 0.39197 0.5194 0.51163 0.0
C923 C 0.40843 0.51815 0.52977 0.0
C924 C 0.42826 0.51198 0.52458 0.0
C925 C 0.41503 0.50666 0.48294 0.0
C926 C 0.39526 0.51303 0.48813 0.0
C927 C 0.45392 0.50297 0.49546 0.0
H928 H 0.63173 0.53606 0.50451 0.0
H929 H 0.60331 0.55738 0.51224 0.0
H930 H 0.62283 0.5649 0.58704 0.0
H931 H 0.65173 0.54364 0.57928 0.0
H932 H 0.40631 0.52258 0.54805 0.0
H933 H 0.44105 0.51216 0.53897 0.0
H934 H 0.41757 0.50269 0.46473 0.0
H935 H 0.38315 0.5141 0.47371 0.0
Dy936 Dy 0.00447 0.52889 0.03033 0.0
Dy937 Dy 0.05367 0.53468 0.01011 0.0
C938 C 0.00961 0.53764 0.97756 0.0
O939 O 0.00808 0.4914 0.02372 0.0
O940 O 0.03416 0.4958 -0.00231 0.0
O941 O 0.96765 0.51515 0.02778 0.0
O942 O 0.98738 0.5389 0.0595 0.0
O943 O 0.05521 0.51855 0.0416 0.0
O944 O 0.033 0.53819 0.06064 0.0
O945 O 0.05381 0.57204 0.0283 0.0
O946 O 0.01502 0.56657 0.02535 0.0
O947 O 0.09049 0.54882 0.01824 0.0
O948 O 0.07488 0.52746 0.9838 0.0
C949 C 0.01903 0.48209 0.00789 0.0
O950 O 0.9963 0.52804 0.99187 0.0
O951 O 0.03207 0.54432 0.98249 0.0
C952 C 0.9518 0.54441 0.04678 0.0
C953 C 0.92533 0.57733 0.04731 0.0
C954 C 0.9383 0.57379 0.02903 0.0
C955 C 0.95148 0.5576 0.02884 0.0
C956 C 0.93889 0.54775 0.06498 0.0
C957 C 0.9258 0.56405 0.06527 0.0
C958 C 0.96699 0.52871 0.04762 0.0
C959 C 0.04966 0.52799 0.06116 0.0
C960 C 0.03595 0.58084 0.02908 0.0
C961 C 0.10988 0.52261 0.00072 0.0
C962 C 0.14142 0.49616 0.009 0.0
C963 C 0.11785 0.48627 0.00907 0.0
C964 C 0.10223 0.49943 0.00509 0.0
C965 C 0.13326 0.53232 0.0001 0.0
C966 C 0.14889 0.51924 0.00419 0.0
C967 C 0.09391 0.53732 -0.00157 0.0
H968 H 0.93817 0.58339 0.01473 0.0
H969 H 0.9616 0.55554 0.01477 0.0
H970 H 0.93924 0.53805 0.07919 0.0
H971 H 0.91639 0.56654 0.07985 0.0
H972 H 0.11157 0.46867 0.01296 0.0
H973 H 0.08426 0.49172 0.00592 0.0
H974 H 0.13949 0.55021 -0.00314 0.0
H975 H 0.16687 0.52728 0.00374 0.0
H976 H 0.02368 0.2093 0.96446 0.0
H977 H 0.97565 0.08696 0.01041 0.0
H978 H 0.95637 0.18857 0.98455 0.0
H979 H 0.04715 0.11622 0.00609 0.0
H980 H 0.96781 0.12281 -0.00065 0.0
H981 H 0.03216 0.17482 0.97802 0.0
C982 C 0.01069 0.19771 0.97188 0.0
C983 C 0.98924 0.2023 0.97336 0.0
C984 C 0.98525 0.12147 0.0009 0.0
C985 C 0.99884 0.16191 0.98869 0.0
C986 C 0.98977 0.10087 0.00723 0.0
C987 C 0.01219 0.09826 0.00938 0.0
C988 C 0.00315 0.1398 -0.00376 0.0
C989 C 0.02961 0.1172 0.00486 0.0
C990 C 0.01557 0.17786 0.97962 0.0
C991 C 0.97321 0.18617 0.9831 0.0
N992 N 0.02473 0.13687 -0.00156 0.0
N993 N 0.97824 0.16682 0.99014 0.0
H994 H 0.11342 0.82943 0.20179 0.0
H995 H 0.23452 0.79961 0.20668 0.0
H996 H 0.13954 0.80497 0.13901 0.0
H997 H 0.20009 0.81025 0.26705 0.0
H998 H 0.2019 0.80431 0.1817 0.0
H999 H 0.14695 0.82584 0.22563 0.0
C1000 C 0.12628 0.82342 0.1929 0.0
C1001 C 0.12345 0.81744 0.16819 0.0
C1002 C 0.20149 0.80562 0.2004 0.0
C1003 C 0.16234 0.8132 0.19584 0.0
C1004 C 0.22018 0.80298 0.21477 0.0
C1005 C 0.22023 0.80453 0.23916 0.0
C1006 C 0.18265 0.81011 0.21043 0.0
C1007 C 0.20095 0.80884 0.24842 0.0
C1008 C 0.14547 0.82129 0.20666 0.0
C1009 C 0.14091 0.80981 0.15795 0.0
N1010 N 0.18308 0.81155 0.23411 0.0
N1011 N 0.15958 0.80788 0.1718 0.0
H1012 H 0.46194 0.83417 0.49134 0.0
H1013 H 0.55271 0.9617 0.49926 0.0
H1014 H 0.52498 0.84179 0.46191 0.0
H1015 H 0.48291 0.95319 0.51213 0.0
H1016 H 0.54479 0.91816 0.48949 0.0
H1017 H 0.47148 0.87749 0.50335 0.0
C1018 C 0.47797 0.84484 0.48762 0.0
C1019 C 0.49263 0.83394 0.4755 0.0
C1020 C 0.53121 0.9258 0.49447 0.0
C1021 C 0.50368 0.88426 0.48931 0.0
C1022 C 0.53572 0.95076 0.50014 0.0
C1023 C 0.51847 0.96142 0.50655 0.0
C1024 C 0.50931 0.91109 0.49545 0.0
C1025 C 0.49679 0.94602 0.50723 0.0
C1026 C 0.48333 0.86974 0.4944 0.0
C1027 C 0.51309 0.84913 0.47121 0.0
N1028 N 0.49291 0.92182 0.50186 0.0
N1029 N 0.51796 0.87337 0.47805 0.0
H1030 H 0.51856 0.26468 0.6696 0.0
H1031 H 0.40552 0.2981 0.70106 0.0
H1032 H 0.48221 0.30061 0.62705 0.0
H1033 H 0.42806 0.24277 0.72816 0.0
H1034 H 0.43429 0.30012 0.67477 0.0
H1035 H 0.48635 0.2569 0.69195 0.0
C1036 C 0.50367 0.27062 0.66472 0.0
C1037 C 0.50314 0.28338 0.64645 0.0
C1038 C 0.43284 0.28742 0.68637 0.0
C1039 C 0.46644 0.27498 0.67228 0.0
C1040 C 0.41628 0.28614 0.70139 0.0
C1041 C 0.41414 0.27018 0.71701 0.0
C1042 C 0.44775 0.27291 0.68708 0.0
C1043 C 0.42919 0.25567 0.71683 0.0
C1044 C 0.48532 0.26622 0.67752 0.0
C1045 C 0.4834 0.29069 0.64096 0.0
N1046 N 0.44541 0.25749 0.70225 0.0
N1047 N 0.46601 0.28666 0.654 0.0
H1048 H 0.0438 0.81593 0.65809 0.0
H1049 H 0.01255 0.85909 0.53826 0.0
H1050 H 0.98551 0.77813 0.60516 0.0
H1051 H 0.06416 0.90309 0.59533 0.0
H1052 H 0.00566 0.82718 0.56071 0.0
H1053 H 0.05486 0.84568 0.63342 0.0
C1054 C 0.03354 0.81364 0.64115 0.0
C1055 C 0.0136 0.7945 0.63381 0.0
C1056 C 0.01856 0.84378 0.56833 0.0
C1057 C 0.02608 0.82862 0.60555 0.0
C1058 C 0.0226 0.86201 0.55543 0.0
C1059 C 0.03894 0.88393 0.56487 0.0
C1060 C 0.03097 0.8473 0.59091 0.0
C1061 C 0.05118 0.88665 0.58742 0.0
C1062 C 0.03977 0.83074 0.62715 0.0
C1063 C 1.00091 0.79262 0.61171 0.0
N1064 N 0.04694 0.86861 0.59965 0.0
N1065 N 0.0073 0.80946 0.59848 0.0
H1066 H 0.45371 0.78208 0.84437 0.0
H1067 H 0.36379 0.81979 0.7579 0.0
H1068 H 0.47548 0.82649 0.79451 0.0
H1069 H 0.34495 0.77444 0.80779 0.0
H1070 H 0.40441 0.82328 0.77077 0.0
H1071 H 0.41406 0.78023 0.83128 0.0
C1072 C 0.45027 0.79173 0.83082 0.0
C1073 C 0.46831 0.80473 0.82083 0.0
C1074 C 0.39138 0.81259 0.77889 0.0
C1075 C 0.42207 0.80229 0.8052 0.0
C1076 C 0.3681 0.81056 0.77154 0.0
C1077 C 0.35065 0.7968 0.78172 0.0
C1078 C 0.39745 0.8008 0.79663 0.0
C1079 C 0.35755 0.7853 0.79934 0.0
C1080 C 0.42741 0.79051 0.82318 0.0
C1081 C 0.4623 0.81635 0.80289 0.0
N1082 N 0.38021 0.78757 0.80616 0.0
N1083 N 0.43978 0.81487 0.79568 0.0
H1084 H 0.52509 0.19421 0.16918 0.0
H1085 H 0.48062 0.09038 0.05412 0.0
H1086 H 0.46067 0.18045 0.12394 0.0
H1087 H 0.54097 0.09577 0.10249 0.0
H1088 H 0.4738 0.12379 0.07991 0.0
H1089 H 0.53179 0.15874 0.1458 0.0
C1090 C 0.51226 0.18371 0.15452 0.0
C1091 C 0.49227 0.19054 0.14861 0.0
C1092 C 0.48853 0.11771 0.08503 0.0
C1093 C 0.49999 0.14994 0.12158 0.0
C1094 C 0.49249 0.09855 0.07021 0.0
C1095 C 0.51146 0.09013 0.07602 0.0
C1096 C 0.5037 0.12891 0.10594 0.0
C1097 C 0.52611 0.10158 0.09726 0.0
C1098 C 0.51614 0.16346 0.14113 0.0
C1099 C 0.47637 0.17613 0.12928 0.0
N1100 N 0.522 0.12043 0.11138 0.0
N1101 N 0.48063 0.15674 0.11651 0.0
H1102 H 0.11721 0.32633 0.34562 0.0
H1103 H 0.18881 0.25962 0.2617 0.0
H1104 H 0.08778 0.26278 0.29239 0.0
H1105 H 0.22232 0.3209 0.31636 0.0
H1106 H 0.15178 0.2623 0.27233 0.0
H1107 H 0.15552 0.32644 0.33505 0.0
C1108 C 0.11868 0.31248 0.3317 0.0
C1109 C 0.09895 0.2945 0.31999 0.0
C1110 C 0.16716 0.27528 0.28205 0.0
C1111 C 0.14298 0.29452 0.30773 0.0
C1112 C 0.18849 0.27377 0.27591 0.0
C1113 C 0.20905 0.29004 0.28805 0.0
C1114 C 0.16591 0.29321 0.30062 0.0
C1115 C 0.20709 0.30793 0.30638 0.0
C1116 C 0.14063 0.31253 0.32568 0.0
C1117 C 0.10222 0.27704 0.3021 0.0
N1118 N 0.18603 0.309 0.3121 0.0
N1119 N 0.12354 0.27752 0.29663 0.0
H1120 H 1.00012 0.0799 0.21275 0.0
H1121 H 0.97288 0.01255 0.07777 0.0
H1122 H 0.94552 0.0151 0.187 0.0
H1123 H 0.03037 0.07425 0.10577 0.0
H1124 H 0.96121 0.01431 0.11681 0.0
H1125 H 0.01 0.07898 0.17322 0.0
C1126 C 0.99013 0.06543 0.19878 0.0
C1127 C 0.97193 0.0475 0.20334 0.0
C1128 C 0.97633 0.02751 0.11441 0.0
C1129 C 0.98328 0.04639 0.15763 0.0
C1130 C 0.98302 0.02658 0.09206 0.0
C1131 C 0.00274 0.04326 0.08836 0.0
C1132 C 0.98938 0.04527 0.13334 0.0
C1133 C 0.01508 0.061 0.10768 0.0
C1134 C 0.99584 0.06493 0.17612 0.0
C1135 C 0.95969 0.02927 0.18437 0.0
N1136 N 0.00823 0.06148 0.12926 0.0
N1137 N 0.9656 0.02918 0.16237 0.0
H1138 H 0.29013 0.73512 0.51825 0.0
H1139 H 0.32439 0.79515 0.41149 0.0
H1140 H 0.34391 0.72196 0.47986 0.0
H1141 H 0.27631 0.81354 0.45567 0.0
H1142 H 0.33767 0.7748 0.44088 0.0
H1143 H 0.29091 0.77 0.50089 0.0
C1144 C 0.30245 0.73995 0.50647 0.0
C1145 C 0.31673 0.72557 0.50011 0.0
C1146 C 0.32454 0.78369 0.4444 0.0
C1147 C 0.3173 0.76502 0.47962 0.0
C1148 C 0.31701 0.79546 0.42765 0.0
C1149 C 0.2989 0.80575 0.43095 0.0
C1150 C 0.31373 0.78196 0.46445 0.0
C1151 C 0.2899 0.80534 0.45214 0.0
C1152 C 0.3029 0.75985 0.49653 0.0
C1153 C 0.33256 0.73262 0.48504 0.0
N1154 N 0.29715 0.7933 0.46791 0.0
N1155 N 0.33205 0.75161 0.47481 0.0
H1156 H 0.60526 0.05929 0.71072 0.0
H1157 H 0.59457 0.02699 0.57283 0.0
H1158 H 0.64681 0.01814 0.67774 0.0
H1159 H 0.53684 0.03393 0.60779 0.0
H1160 H 0.61614 0.02711 0.61061 0.0
H1161 H 0.5826 0.05468 0.67256 0.0
C1162 C 0.60978 0.04945 0.69541 0.0
C1163 C 0.62802 0.03911 0.69739 0.0
C1164 C 0.59868 0.02835 0.60995 0.0
C1165 C 0.602 0.03376 0.65369 0.0
C1166 C 0.58641 0.02838 0.58849 0.0
C1167 C 0.564 0.03065 0.58736 0.0
C1168 C 0.58863 0.03116 0.63042 0.0
C1169 C 0.55408 0.03214 0.60801 0.0
C1170 C 0.59665 0.04663 0.67369 0.0
C1171 C 0.63291 0.0264 0.67695 0.0
N1172 N 0.56663 0.03275 0.62885 0.0
N1173 N 0.62003 0.0242 0.65582 0.0
H1174 H 0.26895 0.35046 0.96899 0.0
H1175 H 0.32356 0.30076 0.85867 0.0
H1176 H 0.3281 0.3233 0.97522 0.0
H1177 H 0.25499 0.30875 0.85135 0.0
H1178 H 0.32613 0.31114 0.90142 0.0
H1179 H 0.26373 0.33689 0.92611 0.0
C1180 C 0.28068 0.34142 0.96147 0.0
C1181 C 0.29902 0.3381 0.97598 0.0
C1182 C 0.31047 0.31057 0.8905 0.0
C1183 C 0.29337 0.32291 0.92667 0.0
C1184 C 0.30902 0.30472 0.866 0.0
C1185 C 0.28903 0.30386 0.85121 0.0
C1186 C 0.29193 0.31596 0.90053 0.0
C1187 C 0.27075 0.30912 0.86195 0.0
C1188 C 0.27772 0.33374 0.93693 0.0
C1189 C 0.31369 0.32633 0.96498 0.0
N1190 N 0.27269 0.31507 0.88587 0.0
N1191 N 0.31067 0.31942 0.94114 0.0
H1192 H 0.9631 0.059 0.35292 0.0
H1193 H 0.03711 0.00074 0.43507 0.0
H1194 H 0.99642 0.00748 0.32295 0.0
H1195 H 0.99624 0.04729 0.4587 0.0
H1196 H 0.02428 0.00281 0.39408 0.0
H1197 H 0.97722 0.05514 0.39185 0.0
C1198 C 0.97328 0.04665 0.35449 0.0
C1199 C 0.97823 0.03326 0.33452 0.0
C1200 C 0.01818 0.01247 0.40835 0.0
C1201 C 0.99494 0.02886 0.37972 0.0
C1202 C 0.02546 0.01129 0.43172 0.0
C1203 C 0.01778 0.02384 0.45048 0.0
C1204 C 0.00324 0.02635 0.40386 0.0
C1205 C 0.00273 0.03725 0.44503 0.0
C1206 C 0.98149 0.0445 0.3769 0.0
C1207 C 0.99209 0.01804 0.33789 0.0
N1208 N 0.99607 0.03813 0.42241 0.0
N1209 N 0.99994 0.01616 0.36014 0.0
H1210 H 0.32739 0.68248 0.60516 0.0
H1211 H 0.26427 0.76633 0.67635 0.0
H1212 H 0.26239 0.69116 0.57715 0.0
H1213 H 0.3083 0.73201 0.71175 0.0
H1214 H 0.26702 0.74272 0.63873 0.0
H1215 H 0.32394 0.70397 0.64378 0.0
C1216 C 0.31236 0.68876 0.60715 0.0
C1217 C 0.29519 0.68508 0.58789 0.0
C1218 C 0.27603 0.74034 0.65476 0.0
C1219 C 0.29138 0.70988 0.63172 0.0
C1220 C 0.27459 0.7539 0.67619 0.0
C1221 C 0.28606 0.75109 0.69716 0.0
C1222 C 0.28935 0.72418 0.65426 0.0
C1223 C 0.29911 0.73463 0.69596 0.0
C1224 C 0.3104 0.70096 0.62915 0.0
C1225 C 0.27604 0.69354 0.59148 0.0
N1226 N 0.30054 0.72188 0.67481 0.0
N1227 N 0.27478 0.70577 0.6129 0.0
H1228 H 0.59774 0.05049 0.79045 0.0
H1229 H 0.58943 0.06973 0.9274 0.0
H1230 H 0.64179 0.03033 0.8414 0.0
H1231 H 0.54569 0.09009 0.87633 0.0
H1232 H 0.61183 0.05972 0.89697 0.0
H1233 H 0.58073 0.06819 0.82223 0.0
C1234 C 0.60382 0.04973 0.80835 0.0
C1235 C 0.62117 0.03883 0.81331 0.0
C1236 C 0.59752 0.06666 0.89247 0.0
C1237 C 0.60182 0.05925 0.84981 0.0
C1238 C 0.58485 0.07266 0.9099 0.0
C1239 C 0.56555 0.08064 0.90435 0.0
C1240 C 0.59076 0.0685 0.86928 0.0
C1241 C 0.56022 0.08364 0.88127 0.0
C1242 C 0.59418 0.06 0.82651 0.0
C1243 C 0.6285 0.03859 0.83682 0.0
N1244 N 0.57263 0.07732 0.8645 0.0
N1245 N 0.61869 0.04859 0.85424 0.0
H1246 H 0.26635 0.35792 0.10654 0.0
H1247 H 0.28101 0.2654 0.18961 0.0
H1248 H 0.30736 0.30901 0.09326 0.0
H1249 H 0.26229 0.32973 0.2141 0.0
H1250 H 0.28433 0.27684 0.15129 0.0
H1251 H 0.25797 0.34314 0.14261 0.0
C1252 C 0.2732 0.34372 0.11088 0.0
C1253 C 0.28762 0.33474 0.09669 0.0
C1254 C 0.27936 0.28839 0.165 0.0
C1255 C 0.27814 0.3178 0.13823 0.0
C1256 C 0.27737 0.28183 0.18692 0.0
C1257 C 0.27137 0.29661 0.20528 0.0
C1258 C 0.27503 0.30976 0.16108 0.0
C1259 C 0.26701 0.31777 0.20058 0.0
C1260 C 0.26859 0.33547 0.13165 0.0
C1261 C 0.29621 0.31654 0.10356 0.0
N1262 N 0.26888 0.32366 0.179 0.0
N1263 N 0.29137 0.30873 0.12375 0.0
H1264 H 0.20599 0.91036 0.03507 0.0
H1265 H 0.16214 0.02035 0.0062 0.0
H1266 H 0.22923 0.94879 0.98109 0.0
H1267 H 0.15442 0.9932 0.07027 0.0
H1268 H 0.18273 0.99119 0.99367 0.0
H1269 H 0.18148 0.93642 0.04402 0.0
C1270 C 0.20565 0.92399 0.0248 0.0
C1271 C 0.21991 0.92757 0.00747 0.0
C1272 C 0.17652 0.99166 0.01047 0.0
C1273 C 0.19209 0.95764 0.01787 0.0
C1274 C 0.16497 0.00848 0.01778 0.0
C1275 C 0.15656 0.00935 0.03941 0.0
C1276 C 0.17954 0.97545 0.02477 0.0
C1277 C 0.1603 0.99304 0.05334 0.0
C1278 C 0.1918 0.939 0.03007 0.0
C1279 C 0.21868 0.94552 0.99473 0.0
N1280 N 0.17146 0.97676 0.04577 0.0
N1281 N 0.20517 0.96002 0.00031 0.0
H1282 H 0.71728 0.60389 0.97584 0.0
H1283 H 0.60184 0.6022 0.0303 0.0
H1284 H 0.70343 0.6663 0.01424 0.0
H1285 H 0.61432 0.53931 0.99117 0.0
H1286 H 0.63841 0.62598 0.02312 0.0
H1287 H 0.67901 0.58025 0.97938 0.0
C1288 C 0.70613 0.61269 0.98485 0.0
C1289 C 0.71365 0.63712 0.99489 0.0
C1290 C 0.6332 0.60699 0.01607 0.0
C1291 C 0.66984 0.61006 -0.00087 0.0
C1292 C 0.6123 0.59331 0.02023 0.0
C1293 C 0.60501 0.5686 0.01147 0.0
C1294 C 0.6471 0.59599 0.00306 0.0
C1295 C 0.61928 0.55825 -0.00164 0.0
C1296 C 0.68428 0.59914 0.9869 0.0
C1297 C 0.69841 0.64753 0.00629 0.0
N1298 N 0.6397 0.572 0.99461 0.0
N1299 N 0.6773 0.63392 0.00822 0.0
H1300 H 0.6506 0.48735 0.25127 0.0
H1301 H 0.76817 0.45163 0.27276 0.0
H1302 H 0.7044 0.52148 0.30993 0.0
H1303 H 0.70837 0.40602 0.22578 0.0
H1304 H 0.74742 0.48153 0.28126 0.0
H1305 H 0.67403 0.46158 0.23653 0.0
C1306 C 0.66746 0.48969 0.26083 0.0
C1307 C 0.67546 0.50643 0.28199 0.0
C1308 C 0.73887 0.46505 0.26896 0.0
C1309 C 0.70225 0.4771 0.26527 0.0
C1310 C 0.75077 0.44803 0.26398 0.0
C1311 C 0.73996 0.42621 0.24864 0.0
C1312 C 0.71598 0.46034 0.25847 0.0
C1313 C 0.71725 0.42245 0.23799 0.0
C1314 C 0.68074 0.47489 0.2525 0.0
C1315 C 0.69741 0.50863 0.2937 0.0
N1316 N 0.70599 0.4393 0.24316 0.0
N1317 N 0.70996 0.4941 0.28525 0.0
H1318 H 0.84754 0.48395 0.51415 0.0
H1319 H 0.97554 0.47251 0.53455 0.0
H1320 H 0.86685 0.42621 0.53963 0.0
H1321 H 0.96085 0.53678 0.51989 0.0
H1322 H 0.9349 0.4543 0.53282 0.0
H1323 H 0.88819 0.50288 0.51297 0.0
C1324 C 0.86026 0.47521 0.51937 0.0
C1325 C 0.85377 0.45334 0.52676 0.0
C1326 C 0.94047 0.4724 0.52997 0.0
C1327 C 0.90001 0.47475 0.52544 0.0
C1328 C 0.96377 0.48287 0.531 0.0
C1329 C 0.97168 0.50633 0.52762 0.0
C1330 C 0.92477 0.4854 0.52549 0.0
C1331 C 0.95547 0.51866 0.52268 0.0
C1332 C 0.88341 0.48601 0.5187 0.0
C1333 C 0.87093 0.44283 0.53343 0.0
N1334 N 0.93271 0.50805 0.52184 0.0
N1335 N 0.89318 0.45362 0.53258 0.0
H1336 H 0.33208 0.07005 0.30107 0.0
H1337 H 0.29565 0.13353 0.20072 0.0
H1338 H 0.3663 0.07513 0.23994 0.0
H1339 H 0.2545 0.11466 0.25448 0.0
H1340 H 0.31879 0.10753 0.2113 0.0
H1341 H 0.30088 0.08193 0.28146 0.0
C1342 C 0.33295 0.0735 0.28344 0.0
C1343 C 0.35201 0.07202 0.2723 0.0
C1344 C 0.30436 0.10866 0.2204 0.0
C1345 C 0.31639 0.08579 0.24975 0.0
C1346 C 0.29118 0.12351 0.21438 0.0
C1347 C 0.27335 0.12656 0.22697 0.0
C1348 C 0.29984 0.0971 0.23935 0.0
C1349 C 0.26806 0.11289 0.24427 0.0
C1350 C 0.31505 0.08015 0.27217 0.0
C1351 C 0.35203 0.07629 0.24928 0.0
N1352 N 0.28152 0.09913 0.25024 0.0
N1353 N 0.33467 0.08338 0.2389 0.0
H1354 H 0.3137 0.14455 0.5582 0.0
H1355 H 0.43314 0.1222 0.53064 0.0
H1356 H 0.3578 0.18551 0.5173 0.0
H1357 H 0.38711 0.08037 0.56936 0.0
H1358 H 0.40813 0.14848 0.52922 0.0
H1359 H 0.34287 0.12433 0.56653 0.0
C1360 C 0.32969 0.14957 0.55124 0.0
C1361 C 0.33321 0.16662 0.53684 0.0
C1362 C 0.40358 0.13364 0.53815 0.0
C1363 C 0.36667 0.14317 0.54604 0.0
C1364 C 0.41791 0.11866 0.53907 0.0
C1365 C 0.41217 0.09889 0.55001 0.0
C1366 C 0.38334 0.12888 0.54828 0.0
C1367 C 0.39205 0.0951 0.56037 0.0
C1368 C 0.34633 0.13791 0.55593 0.0
C1369 C 0.35434 0.17245 0.52844 0.0
N1370 N 0.37836 0.10987 0.55917 0.0
N1371 N 0.37017 0.16053 0.53293 0.0
H1372 H 0.64767 0.61486 0.28203 0.0
H1373 H 0.77004 0.71261 0.31252 0.0
H1374 H 0.69954 0.61654 0.33896 0.0
H1375 H 0.71342 0.71804 0.26499 0.0
H1376 H 0.74522 0.67627 0.32107 0.0
H1377 H 0.67207 0.65184 0.27449 0.0
C1378 C 0.66411 0.62304 0.29306 0.0
C1379 C 0.6715 0.61248 0.31118 0.0
C1380 C 0.73825 0.68544 0.30877 0.0
C1381 C 0.69971 0.6548 0.30242 0.0
C1382 C 0.75245 0.70614 0.30379 0.0
C1383 C 0.74387 0.71842 0.28795 0.0
C1384 C 0.71532 0.67683 0.29772 0.0
C1385 C 0.72085 0.7092 0.27729 0.0
C1386 C 0.67807 0.64418 0.28872 0.0
C1387 C 0.69304 0.624 0.32484 0.0
N1388 N 0.70743 0.68898 0.28232 0.0
N1389 N 0.70641 0.64441 0.3201 0.0
H1390 H 0.85172 0.49074 0.83836 0.0
H1391 H 0.83899 0.35904 0.76798 0.0
H1392 H 0.8886 0.47692 0.78046 0.0
H1393 H 0.78924 0.3782 0.80942 0.0
H1394 H 0.86117 0.40125 0.77613 0.0
H1395 H 0.83265 0.44814 0.83212 0.0
C1396 C 0.85594 0.47877 0.82445 0.0
C1397 C 0.87167 0.48747 0.80982 0.0
C1398 C 0.84537 0.39609 0.78337 0.0
C1399 C 0.8499 0.4387 0.80259 0.0
C1400 C 0.83275 0.37208 0.77875 0.0
C1401 C 0.81218 0.36516 0.78788 0.0
C1402 C 0.83746 0.41306 0.79749 0.0
C1403 C 0.80488 0.38273 0.8018 0.0
C1404 C 0.84498 0.45446 0.82083 0.0
C1405 C 0.87647 0.47105 0.79207 0.0
N1406 N 0.81753 0.40582 0.80622 0.0
N1407 N 0.86559 0.44743 0.78892 0.0
H1408 H 0.02127 0.84144 0.0371 0.0
H1409 H 0.06708 0.98477 0.06505 0.0
H1410 H 0.07701 0.88026 0.09229 0.0
H1411 H 0.01478 0.94445 0.00708 0.0
H1412 H 0.07224 0.94732 0.07436 0.0
H1413 H 0.0204 0.87879 0.02483 0.0
C1414 C 0.03368 0.85775 0.04645 0.0
C1415 C 0.04935 0.85734 0.0658 0.0
C1416 C 0.05971 0.94662 0.05952 0.0
C1417 C 0.04802 0.901 0.05193 0.0
C1418 C 0.05672 0.96812 0.05412 0.0
C1419 C 0.04041 0.96811 0.03514 0.0
C1420 C 0.04623 0.92458 0.046 0.0
C1421 C 0.02757 0.94565 0.02185 0.0
C1422 C 0.03305 0.87925 0.03945 0.0
C1423 C 0.0648 0.87939 0.07714 0.0
N1424 N 0.03067 0.92501 0.02758 0.0
N1425 N 0.06358 0.9002 0.07023 0.0
H1426 H 0.90724 0.25809 0.91858 0.0
H1427 H 0.84733 0.27418 0.79621 0.0
H1428 H 0.94363 0.27652 0.86147 0.0
H1429 H 0.81977 0.2921 0.85993 0.0
H1430 H 0.88012 0.26825 0.81959 0.0
H1431 H 0.87266 0.26444 0.89744 0.0
C1432 C 0.90802 0.26347 0.90171 0.0
C1433 C 0.92851 0.26679 0.89189 0.0
C1434 C 0.86692 0.27346 0.82853 0.0
C1435 C 0.88898 0.27361 0.86749 0.0
C1436 C 0.84807 0.27679 0.81514 0.0
C1437 C 0.83065 0.28376 0.82601 0.0
C1438 C 0.86846 0.27666 0.85314 0.0
C1439 C 0.83282 0.28689 0.85075 0.0
C1440 C 0.88831 0.26715 0.88971 0.0
C1441 C 0.92841 0.27379 0.86992 0.0
N1442 N 0.85128 0.28317 0.86347 0.0
N1443 N 0.90906 0.27671 0.8585 0.0
H1444 H 0.5788 0.24262 0.58231 0.0
H1445 H 0.50536 0.10718 0.53384 0.0
H1446 H 0.50798 0.22162 0.54995 0.0
H1447 H 0.57906 0.12669 0.54027 0.0
H1448 H 0.50667 0.14928 0.54275 0.0
H1449 H 0.58022 0.20119 0.56971 0.0
C1450 C 0.56364 0.2295 0.57235 0.0
C1451 C 0.54323 0.23596 0.56727 0.0
C1452 C 0.52264 0.14452 0.54218 0.0
C1453 C 0.54466 0.18815 0.55318 0.0
C1454 C 0.5219 0.12035 0.53723 0.0
C1455 C 0.54212 0.11319 0.53647 0.0
C1456 C 0.54383 0.16213 0.54688 0.0
C1457 C 0.56302 0.1313 0.54059 0.0
C1458 C 0.56447 0.20578 0.56519 0.0
C1459 C 0.52416 0.21785 0.55438 0.0
N1460 N 0.56336 0.15489 0.54589 0.0
N1461 N 0.5253 0.19499 0.5481 0.0
H1462 H 0.55145 0.72263 0.37975 0.0
H1463 H 0.65016 0.82247 0.3431 0.0
H1464 H 0.5639 0.79794 0.40635 0.0
H1465 H 0.64031 0.74682 0.32142 0.0
H1466 H 0.61916 0.8141 0.3668 0.0
H1467 H 0.58474 0.73134 0.35934 0.0
C1468 C 0.56129 0.74102 0.38148 0.0
C1469 C 0.55475 0.75958 0.39476 0.0
C1470 C 0.62384 0.79934 0.35693 0.0
C1471 C 0.59296 0.76975 0.37109 0.0
C1472 C 0.64145 0.80409 0.34324 0.0
C1473 C 0.64788 0.78533 0.33013 0.0
C1474 C 0.61241 0.77562 0.35748 0.0
C1475 C 0.63616 0.76189 0.33138 0.0
C1476 C 0.58033 0.74599 0.36975 0.0
C1477 C 0.56829 0.78306 0.39635 0.0
N1478 N 0.61899 0.75773 0.34468 0.0
N1479 N 0.58662 0.78748 0.38451 0.0
H1480 H 0.05183 0.24077 0.387 0.0
H1481 H 0.01802 0.19154 0.50295 0.0
H1482 H 0.01679 0.27268 0.43837 0.0
H1483 H 0.05283 0.15666 0.45337 0.0
H1484 H 0.02061 0.22304 0.48051 0.0
H1485 H 0.05599 0.21186 0.41209 0.0
C1486 C 0.04548 0.24203 0.40373 0.0
C1487 C 0.03381 0.25909 0.4105 0.0
C1488 C 0.02781 0.20859 0.47451 0.0
C1489 C 0.0382 0.226 0.43908 0.0
C1490 C 0.02646 0.19056 0.48748 0.0
C1491 C 0.03527 0.17126 0.48024 0.0
C1492 C 0.03793 0.20752 0.45385 0.0
C1493 C 0.04552 0.17095 0.45958 0.0
C1494 C 0.04765 0.2254 0.41795 0.0
C1495 C 0.0257 0.25972 0.43228 0.0
N1496 N 0.04651 0.18873 0.4471 0.0
N1497 N 0.02791 0.24341 0.4456 0.0
H1498 H 0.59087 0.29538 0.22432 0.0
H1499 H 0.69692 0.23945 0.24553 0.0
H1500 H 0.58378 0.2204 0.22039 0.0
H1501 H 0.70619 0.31469 0.24863 0.0
H1502 H 0.65551 0.23268 0.23667 0.0
H1503 H 0.63273 0.30328 0.23361 0.0
C1504 C 0.59802 0.28056 0.22546 0.0
C1505 C 0.58352 0.25714 0.22153 0.0
C1506 C 0.66653 0.25071 0.23926 0.0
C1507 C 0.63174 0.26612 0.23217 0.0
C1508 C 0.69033 0.25463 0.24435 0.0
C1509 C 0.70537 0.27773 0.24787 0.0
C1510 C 0.65729 0.26998 0.23763 0.0
C1511 C 0.69545 0.29655 0.24605 0.0
C1512 C 0.622 0.28511 0.23074 0.0
C1513 C 0.59403 0.23875 0.22324 0.0
N1514 N 0.67216 0.29227 0.24109 0.0
N1515 N 0.61729 0.24363 0.22838 0.0
H1516 H 0.53073 0.85449 0.93704 0.0
H1517 H 0.53779 -0.00633 0.95115 0.0
H1518 H 0.53901 0.89082 0.87883 0.0
H1519 H 0.5258 0.9525 0.0056 0.0
H1520 H 0.54187 0.95823 0.925 0.0
H1521 H 0.53363 0.89212 0.96304 0.0
C1522 C 0.5337 0.87059 0.92983 0.0
C1523 C 0.53483 0.86948 0.90574 0.0
C1524 C 0.53844 0.95705 0.94271 0.0
C1525 C 0.53738 0.91301 0.9355 0.0
C1526 C 0.53608 0.97728 0.95767 0.0
C1527 C 0.53129 0.97618 0.98069 0.0
C1528 C 0.53613 0.93554 0.95083 0.0
C1529 C 0.52933 0.95437 0.98806 0.0
C1530 C 0.53515 0.89213 0.94468 0.0
C1531 C 0.53841 0.89092 0.89736 0.0
N1532 N 0.53171 0.93511 0.97327 0.0
N1533 N 0.53929 0.91178 0.91215 0.0
H1534 H 0.95887 0.75979 0.76066 0.0
H1535 H 0.82238 0.73344 0.73016 0.0
H1536 H 0.92502 0.73864 0.68887 0.0
H1537 H 0.86233 0.79084 0.7858 0.0
H1538 H 0.85829 0.72686 0.71815 0.0
H1539 H 0.92227 0.76274 0.77351 0.0
C1540 C 0.9437 0.75528 0.7476 0.0
C1541 C 0.94523 0.74886 0.72357 0.0
C1542 C 0.85916 0.74076 0.7331 0.0
C1543 C 0.90292 0.75204 0.73834 0.0
C1544 C 0.83864 0.74445 0.74009 0.0
C1545 C 0.83915 0.76276 0.75909 0.0
C1546 C 0.88054 0.75499 0.74557 0.0
C1547 C 0.86093 0.77656 0.77104 0.0
C1548 C 0.92281 0.75719 0.75497 0.0
C1549 C 0.92483 0.74364 0.70754 0.0
N1550 N 0.88059 0.77229 0.76426 0.0
N1551 N 0.90463 0.74518 0.71518 0.0
H1552 H 0.12944 0.03531 0.87054 0.0
H1553 H 0.02185 0.0327 0.93878 0.0
H1554 H 0.0683 0.05125 0.8421 0.0
H1555 H 0.08749 0.03031 0.97212 0.0
H1556 H 0.03814 0.03783 0.90279 0.0
H1557 H 0.1143 0.03267 0.90748 0.0
C1558 C 0.11296 0.0386 0.87211 0.0
C1559 C 0.10019 0.04364 0.8531 0.0
C1560 C 0.049 0.03618 0.91795 0.0
C1561 C 0.08248 0.04008 0.89544 0.0
C1562 C 0.03968 0.03309 0.93853 0.0
C1563 C 0.05328 0.03097 0.95859 0.0
C1564 C 0.07212 0.03702 0.91722 0.0
C1565 C 0.07631 0.03178 0.95712 0.0
C1566 C 0.10427 0.03696 0.89326 0.0
C1567 C 0.0788 0.04743 0.85626 0.0
N1568 N 0.08498 0.03469 0.93679 0.0
N1569 N 0.07055 0.0454 0.87693 0.0
H1570 H 0.79364 0.31966 0.52586 0.0
H1571 H 0.73133 0.28333 0.63255 0.0
H1572 H 0.74701 0.35477 0.5575 0.0
H1573 H 0.79074 0.26319 0.6117 0.0
H1574 H 0.72669 0.29803 0.59601 0.0
H1575 H 0.7817 0.28766 0.54736 0.0
C1576 C 0.78051 0.3204 0.53695 0.0
C1577 C 0.77185 0.3403 0.54051 0.0
C1578 C 0.74038 0.28983 0.59922 0.0
C1579 C 0.7583 0.30383 0.56532 0.0
C1580 C 0.74313 0.28154 0.6201 0.0
C1581 C 0.76194 0.27273 0.6256 0.0
C1582 C 0.75647 0.2892 0.58371 0.0
C1583 C 0.77615 0.27005 0.60842 0.0
C1584 C 0.7737 0.3021 0.54921 0.0
C1585 C 0.75446 0.33998 0.5546 0.0
N1586 N 0.77339 0.2787 0.58847 0.0
N1587 N 0.74864 0.3223 0.56698 0.0
H1588 H 0.43545 0.08098 0.36685 0.0
H1589 H 0.5266 0.03223 0.43802 0.0
H1590 H 0.48056 0.04383 0.33494 0.0
H1591 H 0.47755 0.0626 0.47108 0.0
H1592 H 0.51125 0.039 0.40047 0.0
H1593 H 0.45217 0.07729 0.4056 0.0
C1594 C 0.44885 0.07209 0.36796 0.0
C1595 C 0.45639 0.0624 0.34759 0.0
C1596 C 0.5038 0.0442 0.4159 0.0
C1597 C 0.47565 0.05831 0.39175 0.0
C1598 C 0.51256 0.04031 0.43741 0.0
C1599 C 0.5033 0.04677 0.45776 0.0
C1600 C 0.48561 0.05465 0.41461 0.0
C1601 C 0.48514 0.05724 0.45581 0.0
C1602 C 0.45839 0.07001 0.39008 0.0
C1603 C 0.47408 0.05143 0.35012 0.0
N1604 N 0.47685 0.06086 0.43457 0.0
N1605 N 0.48302 0.04961 0.37176 0.0
H1606 H 0.81426 0.7745 0.08794 0.0
H1607 H 0.77249 0.72976 0.20058 0.0
H1608 H 0.7662 0.70558 0.08261 0.0
H1609 H 0.78278 0.8037 0.19645 0.0
H1610 H 0.77445 0.7204 0.15838 0.0
H1611 H 0.80714 0.78586 0.12852 0.0
C1612 C 0.80202 0.76186 0.09515 0.0
C1613 C 0.79076 0.73905 0.08168 0.0
C1614 C 0.77608 0.73865 0.16664 0.0
C1615 C 0.78307 0.75175 0.12838 0.0
C1616 C 0.77501 0.74402 0.19074 0.0
C1617 C 0.77731 0.76753 0.20206 0.0
C1618 C 0.78022 0.757 0.15373 0.0
C1619 C 0.78066 0.7853 0.18838 0.0
C1620 C 0.79797 0.76838 0.11831 0.0
C1621 C 0.77516 0.72341 0.09213 0.0
N1622 N 0.78237 0.77975 0.16502 0.0
N1623 N 0.77209 0.72989 0.11488 0.0
H1624 H 0.07284 0.98751 0.70305 0.0
H1625 H 0.0724 0.06832 0.60506 0.0
H1626 H 0.10841 0.06256 0.71687 0.0
H1627 H 0.04188 0.99222 0.59213 0.0
H1628 H 0.08438 0.06746 0.64636 0.0
H1629 H 0.06017 0.98975 0.66271 0.0
C1630 C 0.07801 0.00451 0.69763 0.0
C1631 C 0.09178 0.02487 0.71346 0.0
C1632 C 0.07504 0.05098 0.63444 0.0
C1633 C 0.0772 0.02759 0.66696 0.0
C1634 C 0.06813 0.05147 0.61087 0.0
C1635 C 0.0562 0.0303 0.59498 0.0
C1636 C 0.06988 0.02919 0.64221 0.0
C1637 C 0.0512 0.00898 0.60357 0.0
C1638 C 0.07075 0.00578 0.67451 0.0
C1639 C 0.09785 0.04639 0.70529 0.0
N1640 N 0.05805 0.009 0.6265 0.0
N1641 N 0.09053 0.04719 0.68261 0.0
H1642 H 0.75589 0.36764 0.45111 0.0
H1643 H 0.79939 0.35909 0.32636 0.0
H1644 H 0.82564 0.39845 0.4414 0.0
H1645 H 0.74803 0.30063 0.34205 0.0
H1646 H 0.80238 0.38103 0.36619 0.0
H1647 H 0.74649 0.35017 0.40865 0.0
C1648 C 0.76902 0.37114 0.43991 0.0
C1649 C 0.79155 0.38439 0.44955 0.0
C1650 C 0.79031 0.36349 0.36082 0.0
C1651 C 0.78098 0.36488 0.40156 0.0
C1652 C 0.78853 0.3509 0.33807 0.0
C1653 C 0.77366 0.32777 0.33091 0.0
C1654 C 0.77696 0.35308 0.37656 0.0
C1655 C 0.75993 0.31828 0.34693 0.0
C1656 C 0.76372 0.36106 0.41587 0.0
C1657 C 0.8081 0.38825 0.43454 0.0
N1658 N 0.76198 0.33097 0.36914 0.0
N1659 N 0.80248 0.37856 0.41126 0.0
H1660 H 0.41233 0.01568 0.20439 0.0
H1661 H 0.49023 0.93776 0.15631 0.0
H1662 H 0.44234 0.97365 0.24538 0.0
H1663 H 0.45237 0.97187 0.11311 0.0
H1664 H 0.4658 0.94268 0.18645 0.0
H1665 H 0.41996 0.9929 0.1687 0.0
C1666 C 0.42029 0.00148 0.20585 0.0
C1667 C 0.42731 -0.003 0.22791 0.0
C1668 C 0.46242 0.94851 0.1701 0.0
C1669 C 0.43619 0.97093 0.18721 0.0
C1670 C 0.47636 0.94565 0.15289 0.0
C1671 C 0.47371 0.95495 0.13246 0.0
C1672 C 0.44604 0.96111 0.16694 0.0
C1673 C 0.45519 0.96461 0.12869 0.0
C1674 C 0.42454 0.98837 0.18546 0.0
C1675 C 0.43711 0.97807 0.22876 0.0
N1676 N 0.44244 0.968 0.14604 0.0
N1677 N 0.44167 0.96603 0.20874 0.0
H1678 H 0.8273 0.7674 0.96511 0.0
H1679 H 0.75254 0.73869 0.83694 0.0
H1680 H 0.76014 0.71712 0.94629 0.0
H1681 H 0.81703 0.7933 0.85717 0.0
H1682 H 0.75491 0.73101 0.87697 0.0
H1683 H 0.82339 0.77808 0.92635 0.0
C1684 C 0.81157 0.75881 0.95302 0.0
C1685 C 0.79405 0.74125 0.95919 0.0
C1686 C 0.76855 0.7447 0.8727 0.0
C1687 C 0.78963 0.75322 0.91429 0.0
C1688 C 0.76725 0.74907 0.84974 0.0
C1689 C 0.78464 0.76666 0.84346 0.0
C1690 C 0.78743 0.75791 0.88973 0.0
C1691 C 0.8032 0.77954 0.86104 0.0
C1692 C 0.80941 0.76487 0.93076 0.0
C1693 C 0.77413 0.73078 0.94253 0.0
N1694 N 0.80412 0.77487 0.88325 0.0
N1695 N 0.77257 0.73676 0.92089 0.0
H1696 H 0.79736 0.08672 0.03642 0.0
H1697 H 0.89672 0.05229 0.97227 0.0
H1698 H 0.84133 0.13356 -5e-05 0.0
H1699 H 0.86972 0.018 0.0274 0.0
H1700 H 0.87295 0.0795 0.97884 0.0
H1701 H 0.82116 0.05925 0.03104 0.0
C1702 C 0.81215 0.09131 0.02747 0.0
C1703 C 0.81739 0.11237 0.01853 0.0
C1704 C 0.87215 0.06597 0.98945 0.0
C1705 C 0.84431 0.08095 0.01202 0.0
C1706 C 0.88545 0.05025 0.98549 0.0
C1707 C 0.885 0.03282 -0.00078 0.0
C1708 C 0.85817 0.06414 0.00714 0.0
C1709 C 0.87052 0.03126 0.01648 0.0
C1710 C 0.82567 0.07564 0.0244 0.0
C1711 C 0.83673 0.11752 0.00714 0.0
N1712 N 0.85758 0.04674 0.01995 0.0
N1713 N 0.84938 0.10177 0.004 0.0
H1714 H 0.37869 0.40122 0.05495 0.0
H1715 H 0.45637 0.51559 0.0157 0.0
H1716 H 0.35143 0.44764 0.01756 0.0
H1717 H 0.48444 0.46482 0.04518 0.0
H1718 H 0.41783 0.49128 0.01729 0.0
H1719 H 0.41757 0.42419 0.05197 0.0
C1720 C 0.38085 0.41608 0.04592 0.0
C1721 C 0.36173 0.42249 0.0365 0.0
C1722 C 0.43241 0.48543 0.02342 0.0
C1723 C 0.40619 0.44907 0.03331 0.0
C1724 C 0.45447 0.49938 0.0226 0.0
C1725 C 0.47376 0.4923 0.03033 0.0
C1726 C 0.42949 0.46422 0.03212 0.0
C1727 C 0.47012 0.47102 0.03901 0.0
C1728 C 0.40306 0.42924 0.0443 0.0
C1729 C 0.36561 0.44201 0.0251 0.0
N1730 N 0.44846 0.45777 0.0397 0.0
N1731 N 0.38734 0.45464 0.02394 0.0
H1732 H 0.40185 0.59038 0.75437 0.0
H1733 H 0.30133 0.63744 0.80644 0.0
H1734 H 0.37054 0.5692 0.81364 0.0
H1735 H 0.33351 0.6633 0.74944 0.0
H1736 H 0.32436 0.60944 0.80631 0.0
H1737 H 0.37489 0.61441 0.74933 0.0
C1738 C 0.38921 0.59057 0.76614 0.0
C1739 C 0.38865 0.57797 0.78461 0.0
C1740 C 0.32637 0.62115 0.79372 0.0
C1741 C 0.35789 0.60532 0.779 0.0
C1742 C 0.31305 0.63707 0.79368 0.0
C1743 C 0.31547 0.65285 0.77797 0.0
C1744 C 0.34239 0.62094 0.778 0.0
C1745 C 0.33131 0.65174 0.76213 0.0
C1746 C 0.3739 0.60434 0.76332 0.0
C1747 C 0.37189 0.57887 0.79934 0.0
N1748 N 0.34424 0.63613 0.76261 0.0
N1749 N 0.35732 0.59235 0.79627 0.0
H1750 H 0.20608 0.66531 0.55751 0.0
H1751 H 0.11353 0.54958 0.50204 0.0
H1752 H 0.2154 0.61808 0.49705 0.0
H1753 H 0.12051 0.57986 0.57585 0.0
H1754 H 0.15328 0.57135 0.5018 0.0
H1755 H 0.17863 0.63191 0.56783 0.0
C1756 C 0.20294 0.64763 0.54694 0.0
C1757 C 0.21275 0.64431 0.52637 0.0
C1758 C 0.14634 0.57285 0.5182 0.0
C1759 C 0.1807 0.60634 0.53733 0.0
C1760 C 0.12358 0.56057 0.5183 0.0
C1761 C 0.11365 0.56332 0.5389 0.0
C1762 C 0.15906 0.58853 0.53869 0.0
C1763 C 0.1275 0.57746 0.55955 0.0
C1764 C 0.18721 0.62858 0.55275 0.0
C1765 C 0.20812 0.62122 0.51309 0.0
N1766 N 0.14938 0.59004 0.5588 0.0
N1767 N 0.19184 0.60316 0.51839 0.0
H1768 H 0.74731 0.03135 0.81147 0.0
H1769 H 0.78587 0.92634 0.73976 0.0
H1770 H 0.71592 -0.0061 0.74115 0.0
H1771 H 0.81067 0.95856 0.81286 0.0
H1772 H 0.76853 0.95874 0.73599 0.0
H1773 H 0.77864 0.01308 0.80788 0.0
C1774 C 0.74717 0.01954 0.79512 0.0
C1775 C 0.72862 0.01357 0.77684 0.0
C1776 C 0.77819 0.95897 0.75271 0.0
C1777 C 0.76436 0.99243 0.77272 0.0
C1778 C 0.78802 0.94045 0.75491 0.0
C1779 C 0.79919 0.9394 0.77683 0.0
C1780 C 0.77948 0.97646 0.77262 0.0
C1781 C 0.80207 0.9585 0.79567 0.0
C1782 C 0.76511 0.00915 0.79307 0.0
C1783 C 0.72966 -0.00134 0.75585 0.0
N1784 N 0.79187 0.97601 0.79324 0.0
N1785 N 0.747 0.98817 0.75455 0.0
H1786 H 0.76402 0.96235 0.56262 0.0
H1787 H 0.63775 0.95192 0.50065 0.0
H1788 H 0.7204 0.89647 0.52002 0.0
H1789 H 0.68877 0.01838 0.53079 0.0
H1790 H 0.66597 0.93041 0.50986 0.0
H1791 H 0.73476 0.98203 0.55373 0.0
C1792 C 0.74821 0.95192 0.55143 0.0
C1793 C 0.74476 0.92765 0.542 0.0
C1794 C 0.67096 0.94969 0.51438 0.0
C1795 C 0.71092 0.95037 0.53163 0.0
C1796 C 0.65486 0.96199 0.50924 0.0
C1797 C 0.66091 0.98704 0.5149 0.0
C1798 C 0.6932 0.96252 0.5255 0.0
C1799 C 0.68338 -0.00087 0.52582 0.0
C1800 C 0.73149 0.96327 0.54628 0.0
C1801 C 0.72382 0.9152 0.52765 0.0
N1802 N 0.69862 0.98678 0.53082 0.0
N1803 N 0.70766 0.92671 0.52288 0.0
H1804 H 0.36617 0.48099 0.80249 0.0
H1805 H 0.34885 0.34297 0.75428 0.0
H1806 H 0.41163 0.45619 0.75879 0.0
H1807 H 0.29716 0.37183 0.78353 0.0
H1808 H 0.37199 0.38362 0.75476 0.0
H1809 H 0.34057 0.44078 0.7947 0.0
C1810 C 0.37068 0.46703 0.79107 0.0
C1811 C 0.39115 0.4719 0.78141 0.0
C1812 C 0.35547 0.38099 0.76084 0.0
C1813 C 0.3619 0.42548 0.77259 0.0
C1814 C 0.34226 0.35779 0.76064 0.0
C1815 C 0.32106 0.35392 0.76909 0.0
C1816 C 0.34753 0.40046 0.76973 0.0
C1817 C 0.31341 0.37385 0.77698 0.0
C1818 C 0.356 0.44404 0.78658 0.0
C1819 C 0.39599 0.45317 0.76655 0.0
N1820 N 0.3267 0.39618 0.77729 0.0
N1821 N 0.38161 0.43064 0.76285 0.0
H1822 H 0.19153 0.59933 0.24475 0.0
H1823 H 0.24718 0.73077 0.32122 0.0
H1824 H 0.21207 0.61478 0.3201 0.0
H1825 H 0.23586 0.71489 0.24521 0.0
H1826 H 0.23059 0.68865 0.32121 0.0
H1827 H 0.2041 0.64197 0.24472 0.0
C1828 C 0.1986 0.61166 0.2613 0.0
C1829 C 0.20089 0.60341 0.28245 0.0
C1830 C 0.23166 0.69439 0.30453 0.0
C1831 C 0.21524 0.65222 0.2825 0.0
C1832 C 0.24109 0.71846 0.30451 0.0
C1833 C 0.24304 0.72635 0.28318 0.0
C1834 C 0.22407 0.67807 0.28306 0.0
C1835 C 0.2348 0.70958 0.26208 0.0
C1836 C 0.20579 0.636 0.26125 0.0
C1837 C 0.21011 0.62026 0.30334 0.0
N1838 N 0.22574 0.68619 0.26255 0.0
N1839 N 0.21698 0.64384 0.30282 0.0
H1840 H 0.45555 0.69689 0.48813 0.0
H1841 H 0.54515 0.62009 0.50823 0.0
H1842 H 0.52308 0.71394 0.46793 0.0
H1843 H 0.47356 0.59522 0.51466 0.0
H1844 H 0.53837 0.65616 0.49709 0.0
H1845 H 0.46291 0.66199 0.50158 0.0
C1846 C 0.47207 0.69358 0.48674 0.0
C1847 C 0.4887 0.70878 0.47681 0.0
C1848 C 0.52412 0.64289 0.50099 0.0
C1849 C 0.49725 0.66816 0.49232 0.0
C1850 C 0.52798 0.62217 0.50747 0.0
C1851 C 0.50995 0.60426 0.51252 0.0
C1852 C 0.50202 0.64622 0.49964 0.0
C1853 C 0.48809 0.60832 0.51099 0.0
C1854 C 0.4762 0.67342 0.49434 0.0
C1855 C 0.50967 0.70303 0.47545 0.0
N1856 N 0.48479 0.62873 0.5048 0.0
N1857 N 0.51329 0.68337 0.48306 0.0
H1858 H 0.63997 0.30873 0.63669 0.0
H1859 H 0.69791 0.3092 0.76704 0.0
H1860 H 0.61469 0.33198 0.70043 0.0
H1861 H 0.73309 0.30097 0.70687 0.0
H1862 H 0.66622 0.31512 0.74184 0.0
H1863 H 0.67348 0.30398 0.66091 0.0
C1864 C 0.6415 0.31303 0.65568 0.0
C1865 C 0.62434 0.32075 0.66643 0.0
C1866 C 0.68087 0.31206 0.73408 0.0
C1867 C 0.66245 0.31501 0.69425 0.0
C1868 C 0.69901 0.30859 0.74852 0.0
C1869 C 0.71836 0.30461 0.7392 0.0
C1870 C 0.68178 0.31138 0.70993 0.0
C1871 C 0.71864 0.30408 0.71494 0.0
C1872 C 0.6606 0.31025 0.66951 0.0
C1873 C 0.62731 0.32592 0.69119 0.0
N1874 N 0.70065 0.30733 0.70117 0.0
N1875 N 0.64576 0.32283 0.70412 0.0
H1876 H 0.96681 0.32759 -0.00382 0.0
H1877 H 0.03999 0.45596 0.97792 0.0
H1878 H 0.01862 0.33631 0.95056 0.0
H1879 H 0.98859 0.44681 0.02396 0.0
H1880 H 0.03319 0.4126 0.9685 0.0
H1881 H 0.97569 0.37098 0.00762 0.0
C1882 C 0.98028 0.33854 0.98873 0.0
C1883 C 0.99196 0.3279 0.97232 0.0
C1884 C 0.02338 0.42003 0.98067 0.0
C1885 C 0.00208 0.37829 0.9853 0.0
C1886 C 0.02721 0.44492 0.98606 0.0
C1887 C 0.01481 0.45539 0.00176 0.0
C1888 C 0.00697 0.40513 0.99099 0.0
C1889 C 0.9986 0.43982 0.01173 0.0
C1890 C 0.98527 0.36347 -0.00476 0.0
C1891 C 0.00915 0.34342 0.96334 0.0
N1892 N 0.99516 0.41567 0.00618 0.0
N1893 N 0.01355 0.36764 0.96981 0.0
H1894 H 0.97914 0.78894 0.12172 0.0
H1895 H 0.93627 0.7546 0.24011 0.0
H1896 H 0.01926 0.76555 0.17349 0.0
H1897 H 0.89292 0.77068 0.18542 0.0
H1898 H 0.96609 0.75678 0.21499 0.0
H1899 H 0.94663 0.78032 0.14349 0.0
C1900 C 0.98103 0.78165 0.13745 0.0
C1901 C 0.00204 0.77807 0.14582 0.0
C1902 C 0.95001 0.75971 0.2084 0.0
C1903 C 0.96495 0.76852 0.17107 0.0
C1904 C 0.93286 0.75833 0.22273 0.0
C1905 C 0.91192 0.76249 0.215 0.0
C1906 C 0.94641 0.76542 0.1861 0.0
C1907 C 0.90885 0.76773 0.19238 0.0
C1908 C 0.96246 0.77683 0.14995 0.0
C1909 C 0.00345 0.76866 0.16637 0.0
N1910 N 0.92591 0.76914 0.17881 0.0
N1911 N 0.98527 0.76443 0.17837 0.0
H1912 H 0.48576 0.2837 0.10743 0.0
H1913 H 0.57634 0.4027 0.09154 0.0
H1914 H 0.54571 0.31989 0.15887 0.0
H1915 H 0.50999 0.37105 0.04907 0.0
H1916 H 0.56856 0.37027 0.11375 0.0
H1917 H 0.49793 0.31276 0.08298 0.0
C1918 C 0.50165 0.29767 0.11354 0.0
C1919 C 0.51457 0.29945 0.13545 0.0
C1920 C 0.55577 0.37042 0.09951 0.0
C1921 C 0.52859 0.33322 0.10736 0.0
C1922 C 0.56023 0.38885 0.08678 0.0
C1923 C 0.5437 0.3897 0.06853 0.0
C1924 C 0.53475 0.35259 0.09375 0.0
C1925 C 0.52308 0.37136 0.06321 0.0
C1926 C 0.50857 0.31436 0.09953 0.0
C1927 C 0.53518 0.31783 0.14215 0.0
N1928 N 0.51922 0.35365 0.07573 0.0
N1929 N 0.54144 0.33418 0.12827 0.0
H1930 H 0.95191 0.28318 0.34664 0.0
H1931 H 0.863 0.32286 0.26079 0.0
H1932 H 0.97503 0.32717 0.29684 0.0
H1933 H 0.84451 0.27827 0.31141 0.0
H1934 H 0.90374 0.32596 0.27329 0.0
H1935 H 0.91273 0.28272 0.33384 0.0
C1936 C 0.94888 0.29306 0.33316 0.0
C1937 C 0.96717 0.30552 0.32314 0.0
C1938 C 0.89072 0.31556 0.28165 0.0
C1939 C 0.92132 0.30465 0.30775 0.0
C1940 C 0.8674 0.31378 0.27453 0.0
C1941 C 0.85001 0.30029 0.285 0.0
C1942 C 0.89682 0.30378 0.29941 0.0
C1943 C 0.85701 0.28892 0.3027 0.0
C1944 C 0.92624 0.29263 0.32567 0.0
C1945 C 0.96163 0.31743 0.30524 0.0
N1946 N 0.87961 0.29093 0.30923 0.0
N1947 N 0.93926 0.31671 0.29813 0.0
H1948 H 0.96201 0.6644 0.63812 0.0
H1949 H 0.05826 0.61935 0.5794 0.0
H1950 H 0.03358 0.70186 0.66001 0.0
H1951 H 0.99869 0.56866 0.59292 0.0
H1952 H 0.04786 0.65136 0.6045 0.0
H1953 H 0.97317 0.63041 0.61725 0.0
C1954 C 0.98005 0.66543 0.63869 0.0
C1955 C 0.99687 0.68605 0.65096 0.0
C1956 C 0.03715 0.63321 0.6021 0.0
C1957 C 0.00971 0.64742 0.62656 0.0
C1958 C 0.04303 0.61493 0.58773 0.0
C1959 C 0.02939 0.59124 0.58412 0.0
C1960 C 0.01707 0.62797 0.61244 0.0
C1961 C 0.00981 0.58662 0.59538 0.0
C1962 C 0.98639 0.64601 0.62682 0.0
C1963 C 0.02001 0.68632 0.65099 0.0
N1964 N 0.00405 0.60484 0.60874 0.0
N1965 N 0.02573 0.66751 0.63871 0.0
H1966 H 0.63497 0.82533 0.87121 0.0
H1967 H 0.69213 0.77487 0.76281 0.0
H1968 H 0.59659 0.79783 0.80159 0.0
H1969 H 0.73177 0.82148 0.82626 0.0
H1970 H 0.65693 0.78096 0.7768 0.0
H1971 H 0.67003 0.82212 0.85547 0.0
C1972 C 0.63385 0.81875 0.85253 0.0
C1973 C 0.61252 0.81197 0.8378 0.0
C1974 C 0.67333 0.78997 0.78762 0.0
C1975 C 0.65317 0.80775 0.81949 0.0
C1976 C 0.69355 0.78648 0.77964 0.0
C1977 C 0.71525 0.79768 0.79325 0.0
C1978 C 0.67452 0.80449 0.80967 0.0
C1979 C 0.71565 0.81248 0.81497 0.0
C1980 C 0.65402 0.81691 0.84353 0.0
C1981 C 0.6125 0.8035 0.8137 0.0
N1982 N 0.69575 0.81525 0.8225 0.0
N1983 N 0.63234 0.80143 0.80541 0.0
H1984 H 0.4418 0.52052 0.69134 0.0
H1985 H 0.52895 0.58007 0.6092 0.0
H1986 H 0.49921 0.58296 0.71636 0.0
H1987 H 0.46963 0.51989 0.58268 0.0
H1988 H 0.51765 0.58186 0.64842 0.0
H1989 H 0.4511 0.52024 0.65127 0.0
C1990 C 0.4563 0.53419 0.68844 0.0
C1991 C 0.46975 0.55175 0.70733 0.0
C1992 C 0.50704 0.56832 0.634 0.0
C1993 C 0.48054 0.55152 0.6615 0.0
C1994 C 0.51348 0.56732 0.61155 0.0
C1995 C 0.50031 0.54976 0.59252 0.0
C1996 C 0.48729 0.5516 0.63759 0.0
C1997 C 0.4804 0.53372 0.59676 0.0
C1998 C 0.46161 0.53404 0.66555 0.0
C1999 C 0.48834 0.56903 0.70244 0.0
N2000 N 0.47459 0.53496 0.6188 0.0
N2001 N 0.49319 0.56843 0.68011 0.0
H2002 H 0.83166 0.24496 7e-05 0.0
H2003 H 0.73484 0.29768 0.94754 0.0
H2004 H 0.76038 0.22246 0.00904 0.0
H2005 H 0.80482 0.31624 0.93385 0.0
H2006 H 0.74619 0.27794 0.97859 0.0
H2007 H 0.82432 0.27846 0.98417 0.0
C2008 C 0.81454 0.24721 -0.00101 0.0
C2009 C 0.79648 0.23051 0.00532 0.0
C2010 C 0.75916 0.28676 0.96912 0.0
C2011 C 0.78798 0.26877 0.98715 0.0
C2012 C 0.75268 0.298 0.9514 0.0
C2013 C 0.76881 0.30816 0.93781 0.0
C2014 C 0.78188 0.28548 0.97304 0.0
C2015 C 0.79179 0.30855 0.94384 0.0
C2016 C 0.81037 0.26637 0.98994 0.0
C2017 C 0.77473 0.23456 0.00386 0.0
N2018 N 0.79756 0.29692 0.96071 0.0
N2019 N 0.77102 0.25308 0.99462 0.0
H2020 H 0.12554 0.57242 0.2014 0.0
H2021 H 0.08225 0.50476 0.06803 0.0
H2022 H 0.14912 0.51383 0.16876 0.0
H2023 H 0.05069 0.55468 0.10463 0.0
H2024 H 0.1088 0.50984 0.10382 0.0
H2025 H 0.1009 0.56901 0.1647 0.0
C2026 C 0.12575 0.55899 0.18642 0.0
C2027 C 0.13926 0.54322 0.18821 0.0
C2028 C 0.09602 0.51961 0.10407 0.0
C2029 C 0.11087 0.5391 0.14621 0.0
C2030 C 0.08079 0.51669 0.08367 0.0
C2031 C 0.06421 0.52933 0.08338 0.0
C2032 C 0.09479 0.53541 0.12433 0.0
C2033 C 0.06314 0.54451 0.10413 0.0
C2034 C 0.11155 0.55698 0.16552 0.0
C2035 C 0.13892 0.5263 0.16819 0.0
N2036 N 0.07833 0.54722 0.12378 0.0
N2037 N 0.1248 0.52458 0.14803 0.0
H2038 H 0.76842 0.84855 0.46837 0.0
H2039 H 0.82338 0.79768 0.35849 0.0
H2040 H 0.8285 0.823 0.47548 0.0
H2041 H 0.75541 0.80726 0.35127 0.0
H2042 H 0.82613 0.80849 0.40132 0.0
H2043 H 0.76356 0.83464 0.42559 0.0
C2044 C 0.78044 0.83979 0.46106 0.0
C2045 C 0.7989 0.83701 0.4758 0.0
C2046 C 0.81057 0.80816 0.39038 0.0
C2047 C 0.79365 0.82138 0.42655 0.0
C2048 C 0.80902 0.80204 0.36584 0.0
C2049 C 0.78914 0.80152 0.35106 0.0
C2050 C 0.79223 0.8141 0.40041 0.0
C2051 C 0.77109 0.80733 0.36183 0.0
C2052 C 0.77769 0.83191 0.43657 0.0
C2053 C 0.81396 0.82558 0.46505 0.0
N2054 N 0.77311 0.81348 0.38573 0.0
N2055 N 0.81112 0.81844 0.44123 0.0
H2056 H 0.51571 0.5445 0.82969 0.0
H2057 H 0.49668 0.49028 0.94512 0.0
H2058 H 0.44826 0.51121 0.84399 0.0
H2059 H 0.54674 0.55726 0.94723 0.0
H2060 H 0.48345 0.48894 0.90352 0.0
H2061 H 0.53211 0.54018 0.86864 0.0
C2062 C 0.50446 0.53585 0.84086 0.0
C2063 C 0.48066 0.52831 0.83386 0.0
C2064 C 0.4975 0.50375 0.9131 0.0
C2065 C 0.49914 0.52308 0.87785 0.0
C2066 C 0.5051 0.5045 0.93673 0.0
C2067 C 0.52271 0.52399 0.9496 0.0
C2068 C 0.50801 0.5223 0.90219 0.0
C2069 C 0.53297 0.54202 0.93795 0.0
C2070 C 0.51376 0.53356 0.86302 0.0
C2071 C 0.4667 0.51744 0.84894 0.0
N2072 N 0.52551 0.54072 0.91484 0.0
N2073 N 0.47614 0.51507 0.87025 0.0
H2074 H 0.83914 0.22414 0.09623 0.0
H2075 H 0.7831 0.21757 0.21323 0.0
H2076 H 0.7833 0.1642 0.10134 0.0
H2077 H 0.80371 0.28312 0.18759 0.0
H2078 H 0.7918 0.19606 0.17714 0.0
H2079 H 0.83541 0.24418 0.13539 0.0
C2080 C 0.82646 0.21499 0.10582 0.0
C2081 C 0.81142 0.19255 0.09559 0.0
C2082 C 0.79449 0.21516 0.17956 0.0
C2083 C 0.80722 0.21523 0.1401 0.0
C2084 C 0.78957 0.22743 0.20006 0.0
C2085 C 0.79251 0.2521 0.2032 0.0
C2086 C 0.80293 0.22778 0.16246 0.0
C2087 C 0.80096 0.26405 0.18566 0.0
C2088 C 0.82423 0.2265 0.12799 0.0
C2089 C 0.79512 0.18156 0.10862 0.0
N2090 N 0.80601 0.25177 0.16602 0.0
N2091 N 0.79344 0.19303 0.13027 0.0
H2092 H 0.1583 0.52466 0.33006 0.0
H2093 H 0.05598 0.57052 0.3766 0.0
H2094 H 0.10735 0.54199 0.28441 0.0
H2095 H 0.11581 0.56893 0.42195 0.0
H2096 H 0.07437 0.56049 0.34238 0.0
H2097 H 0.1422 0.53991 0.36397 0.0
C2098 C 0.14381 0.53176 0.32716 0.0
C2099 C 0.13431 0.53227 0.3044 0.0
C2100 C 0.08355 0.56259 0.35984 0.0
C2101 C 0.11566 0.54955 0.34307 0.0
C2102 C 0.07314 0.56849 0.37934 0.0
C2103 C 0.08429 0.57022 0.40206 0.0
C2104 C 0.10514 0.55828 0.36319 0.0
C2105 C 0.10644 0.56724 0.40467 0.0
C2106 C 0.13463 0.54049 0.34653 0.0
C2107 C 0.11523 0.54127 0.30167 0.0
N2108 N 0.11604 0.56115 0.38545 0.0
N2109 N 0.1065 0.54954 0.32079 0.0
H2110 H 0.76705 0.85948 0.60794 0.0
H2111 H 0.78204 0.76657 0.69038 0.0
H2112 H 0.80575 0.80864 0.59272 0.0
H2113 H 0.76699 0.83262 0.71644 0.0
H2114 H 0.78409 0.77761 0.65179 0.0
H2115 H 0.75978 0.84533 0.64458 0.0
C2116 C 0.77357 0.84497 0.61197 0.0
C2117 C 0.78704 0.83525 0.59707 0.0
C2118 C 0.78023 0.78964 0.66591 0.0
C2119 C 0.77887 0.81907 0.63923 0.0
C2120 C 0.77898 0.78333 0.688 0.0
C2121 C 0.77438 0.79869 0.70686 0.0
C2122 C 0.77654 0.81137 0.66234 0.0
C2123 C 0.77066 0.82023 0.70253 0.0
C2124 C 0.76962 0.83709 0.63306 0.0
C2125 C 0.7953 0.81671 0.60357 0.0
N2126 N 0.77177 0.82589 0.68077 0.0
N2127 N 0.79111 0.80929 0.62407 0.0
H2128 H 0.74236 0.47122 0.48356 0.0
H2129 H 0.65036 0.50215 0.56312 0.0
H2130 H 0.71895 0.43313 0.5377 0.0
H2131 H 0.67251 0.53895 0.50776 0.0
H2132 H 0.67472 0.47606 0.55347 0.0
H2133 H 0.7153 0.49471 0.4907 0.0
C2134 C 0.73134 0.46758 0.49676 0.0
C2135 C 0.73307 0.45029 0.51017 0.0
C2136 C 0.67425 0.48983 0.54342 0.0
C2137 C 0.70223 0.47737 0.51866 0.0
C2138 C 0.66053 0.5049 0.54909 0.0
C2139 C 0.65948 0.52285 0.53631 0.0
C2140 C 0.68709 0.49274 0.52486 0.0
C2141 C 0.67266 0.52524 0.51796 0.0
C2142 C 0.71595 0.48109 0.5009 0.0
C2143 C 0.71828 0.44632 0.52699 0.0
N2144 N 0.68594 0.51039 0.51282 0.0
N2145 N 0.70363 0.45992 0.53089 0.0
H2146 H 0.19795 0.16628 0.50667 0.0
H2147 H 0.11962 0.03715 0.513 0.0
H2148 H 0.22065 0.10255 0.49461 0.0
H2149 H 0.09238 0.09675 0.50663 0.0
H2150 H 0.15742 0.06142 0.50849 0.0
H2151 H 0.15948 0.14162 0.50877 0.0
C2152 C 0.19483 0.14713 0.50435 0.0
C2153 C 0.21255 0.13648 0.50048 0.0
C2154 C 0.14311 0.06912 0.50797 0.0
C2155 C 0.16874 0.10824 0.50309 0.0
C2156 C 0.12156 0.05528 0.5106 0.0
C2157 C 0.10279 0.06489 0.51018 0.0
C2158 C 0.14597 0.09281 0.50518 0.0
C2159 C 0.10632 0.08853 0.50699 0.0
C2160 C 0.17289 0.13307 0.50554 0.0
C2161 C 0.20753 0.11156 0.49761 0.0
N2162 N 0.12749 0.1017 0.50474 0.0
N2163 N 0.18616 0.09833 0.49912 0.0
H2164 H 0.16422 0.99182 0.74931 0.0
H2165 H 0.27754 0.95236 0.78205 0.0
H2166 H 0.21354 0.02313 0.81225 0.0
H2167 H 0.2281 0.91779 0.71992 0.0
H2168 H 0.25661 0.98204 0.79027 0.0
H2169 H 0.18968 0.96829 0.73505 0.0
C2170 C 0.18052 -0.00598 0.75995 0.0
C2171 C 0.1866 0.0092 0.78216 0.0
C2172 C 0.25038 0.96811 0.77471 0.0
C2173 C 0.21567 0.98237 0.76606 0.0
C2174 C 0.26231 0.95111 0.77007 0.0
C2175 C 0.25439 0.93244 0.75045 0.0
C2176 C 0.23021 0.96635 0.75975 0.0
C2177 C 0.2348 0.93194 0.73525 0.0
C2178 C 0.19499 0.98053 0.75186 0.0
C2179 C 0.20794 0.01137 0.7952 0.0
N2180 N 0.22319 0.94849 0.74037 0.0
N2181 N 0.22156 -0.00201 0.78705 0.0
H2182 H 0.35386 0.91554 0.05254 0.0
H2183 H 0.44044 0.01023 -0.00135 0.0
H2184 H 0.33092 0.96227 0.01202 0.0
H2185 H 0.46068 0.98361 0.05984 0.0
H2186 H 0.40035 0.98979 -0.0001 0.0
H2187 H 0.39354 0.9374 0.05204 0.0
C2188 C 0.35721 0.93042 0.04353 0.0
C2189 C 0.33916 0.93713 0.03226 0.0
C2190 C 0.41362 0.98853 0.01305 0.0
C2191 C 0.38443 0.96206 0.0315 0.0
C2192 C 0.43647 5e-05 0.01229 0.0
C2193 C 0.45391 -0.00147 0.02912 0.0
C2194 C 0.40829 0.97515 0.03054 0.0
C2195 C 0.4478 0.98524 0.0465 0.0
C2196 C 0.37983 0.94294 0.04334 0.0
C2197 C 0.34441 0.95662 0.02098 0.0
N2198 N 0.42549 0.97393 0.04667 0.0
N2199 N 0.36665 0.96835 0.02071 0.0
H2200 H 0.8251 0.57266 0.80443 0.0
H2201 H 0.78694 0.63168 0.70063 0.0
H2202 H 0.85783 0.57473 0.7421 0.0
H2203 H 0.74853 0.61853 0.75775 0.0
H2204 H 0.80977 0.60576 0.71216 0.0
H2205 H 0.79395 0.58466 0.78485 0.0
C2206 C 0.82566 0.57547 0.78655 0.0
C2207 C 0.84431 0.5731 0.77505 0.0
C2208 C 0.79599 0.60813 0.72183 0.0
C2209 C 0.80871 0.58697 0.75252 0.0
C2210 C 0.78297 0.62293 0.71525 0.0
C2211 C 0.76603 0.62758 0.72844 0.0
C2212 C 0.79219 0.5982 0.7419 0.0
C2213 C 0.76137 0.61549 0.74701 0.0
C2214 C 0.80779 0.58221 0.77532 0.0
C2215 C 0.84391 0.5766 0.75175 0.0
N2216 N 0.77466 0.60173 0.75344 0.0
N2217 N 0.82658 0.58373 0.74138 0.0
H2218 H 0.81497 0.64345 0.05776 0.0
H2219 H 0.93534 0.62099 0.03375 0.0
H2220 H 0.86045 0.68522 0.01857 0.0
H2221 H 0.88304 0.57325 0.06141 0.0
H2222 H 0.91106 0.64806 0.03287 0.0
H2223 H 0.84321 0.62194 0.0652 0.0
C2224 C 0.83109 0.64838 0.05102 0.0
C2225 C 0.83523 0.66602 0.03729 0.0
C2226 C 0.905 0.63172 0.03925 0.0
C2227 C 0.86763 0.64107 0.04548 0.0
C2228 C 0.91877 0.61612 0.03961 0.0
C2229 C 0.91124 0.5946 0.04754 0.0
C2230 C 0.88355 0.62589 0.04699 0.0
C2231 C 0.88979 0.58966 0.0554 0.0
C2232 C 0.84718 0.63596 0.05517 0.0
C2233 C 0.85652 0.67172 0.02918 0.0
N2234 N 0.87674 0.6051 0.05485 0.0
N2235 N 0.87184 0.65907 0.03316 0.0
H2236 H 0.15336 0.11307 0.78082 0.0
H2237 H 0.27299 0.215 0.81411 0.0
H2238 H 0.20429 0.11734 0.83969 0.0
H2239 H 0.21699 0.21688 0.76353 0.0
H2240 H 0.24891 0.17816 0.82252 0.0
H2241 H 0.17703 0.15045 0.77341 0.0
C2242 C 0.16943 0.12192 0.79231 0.0
C2243 C 0.17679 0.11195 0.81092 0.0
C2244 C 0.24193 0.18667 0.80958 0.0
C2245 C 0.20417 0.15472 0.80231 0.0
C2246 C 0.25571 0.20763 0.80468 0.0
C2247 C 0.24705 0.21908 0.78806 0.0
C2248 C 0.21937 0.17699 0.79768 0.0
C2249 C 0.22445 0.20874 0.7765 0.0
C2250 C 0.18297 0.14327 0.78803 0.0
C2251 C 0.19783 0.12431 0.82517 0.0
N2252 N 0.21144 0.18831 0.78149 0.0
N2253 N 0.21082 0.14494 0.82049 0.0
H2254 H 0.35726 0.99185 0.3374 0.0
H2255 H 0.34264 0.85929 0.2681 0.0
H2256 H 0.39528 0.97605 0.28104 0.0
H2257 H 0.29283 0.87964 0.30869 0.0
H2258 H 0.36554 0.90116 0.27643 0.0
H2259 H 0.33708 0.94949 0.33127 0.0
C2260 C 0.36151 0.97949 0.32388 0.0
C2261 C 0.37788 0.98756 0.30961 0.0
C2262 C 0.34957 0.89637 0.28346 0.0
C2263 C 0.35484 0.93911 0.30251 0.0
C2264 C 0.33653 0.87253 0.27871 0.0
C2265 C 0.31575 0.86602 0.28757 0.0
C2266 C 0.34186 0.91363 0.29739 0.0
C2267 C 0.30864 0.88386 0.3013 0.0
C2268 C 0.34991 0.95533 0.32032 0.0
C2269 C 0.38268 0.97067 0.29235 0.0
N2270 N 0.3217 0.90682 0.30583 0.0
N2271 N 0.37117 0.94724 0.28925 0.0
H2272 H 0.51844 0.34584 0.53803 0.0
H2273 H 0.56334 0.48928 0.56472 0.0
H2274 H 0.57553 0.38547 0.59145 0.0
H2275 H 0.50713 0.44862 0.51069 0.0
H2276 H 0.56943 0.45199 0.57337 0.0
H2277 H 0.51604 0.38301 0.52625 0.0
C2278 C 0.53083 0.3623 0.54708 0.0
C2279 C 0.54733 0.36215 0.56582 0.0
C2280 C 0.55581 0.45115 0.55956 0.0
C2281 C 0.54424 0.4056 0.55249 0.0
C2282 C 0.55225 0.47256 0.55455 0.0
C2283 C 0.53457 0.47243 0.53688 0.0
C2284 C 0.54162 0.42905 0.54692 0.0
C2285 C 0.52096 0.4499 0.52445 0.0
C2286 C 0.52931 0.38368 0.54037 0.0
C2287 C 0.56269 0.38439 0.57677 0.0
N2288 N 0.5247 0.42933 0.52974 0.0
N2289 N 0.56063 0.40507 0.57013 0.0
H2290 H 0.44903 0.78181 0.36229 0.0
H2291 H 0.32261 0.79588 0.35875 0.0
H2292 H 0.41041 0.76426 0.41818 0.0
H2293 H 0.35143 0.7761 0.29637 0.0
H2294 H 0.35575 0.79047 0.38291 0.0
H2295 H 0.41494 0.78648 0.34029 0.0
C2296 C 0.4334 0.77908 0.37009 0.0
C2297 C 0.43271 0.77259 0.39223 0.0
C2298 C 0.35471 0.78726 0.36393 0.0
C2299 C 0.39327 0.77815 0.36683 0.0
C2300 C 0.33589 0.79046 0.35012 0.0
C2301 C 0.33419 0.78649 0.32541 0.0
C2302 C 0.37225 0.7806 0.35302 0.0
C2303 C 0.35188 0.77932 0.31527 0.0
C2304 C 0.41385 0.78164 0.35736 0.0
C2305 C 0.41176 0.76921 0.40118 0.0
N2306 N 0.37018 0.77687 0.32907 0.0
N2307 N 0.39288 0.77219 0.38853 0.0
H2308 H 0.07644 0.73533 0.08778 0.0
H2309 H 0.00315 0.60376 0.0211 0.0
H2310 H 0.01018 0.71888 0.04524 0.0
H2311 H 0.07463 0.61869 0.04927 0.0
H2312 H 0.00606 0.64606 0.03108 0.0
H2313 H 0.077 0.69368 0.07494 0.0
C2314 C 0.06215 0.72318 0.07554 0.0
C2315 C 0.04322 0.73098 0.06769 0.0
C2316 C 0.02123 0.64027 0.03504 0.0
C2317 C 0.04363 0.68285 0.05317 0.0
C2318 C 0.01958 0.61591 0.02935 0.0
C2319 C 0.03867 0.60731 0.03428 0.0
C2320 C 0.04209 0.65667 0.04614 0.0
C2321 C 0.05944 0.62433 0.04498 0.0
C2322 C 0.06247 0.6993 0.06827 0.0
C2323 C 0.0252 0.71405 0.05192 0.0
N2324 N 0.06055 0.64809 0.05071 0.0
N2325 N 0.0258 0.69102 0.04544 0.0
H2326 H 0.05967 0.25129 0.89961 0.0
H2327 H 0.14158 0.329 0.82448 0.0
H2328 H 0.05288 0.31803 0.88353 0.0
H2329 H 0.14708 0.26055 0.83673 0.0
H2330 H 0.11042 0.32606 0.84798 0.0
H2331 H 0.09328 0.25539 0.87911 0.0
C2332 C 0.06534 0.26691 0.89198 0.0
C2333 C 0.05331 0.28429 0.89325 0.0
C2334 C 0.11843 0.31167 0.84559 0.0
C2335 C 0.09173 0.28902 0.8696 0.0
C2336 C 0.13618 0.31326 0.83199 0.0
C2337 C 0.14695 0.29491 0.82836 0.0
C2338 C 0.11124 0.29157 0.85577 0.0
C2339 C 0.13946 0.27523 0.83912 0.0
C2340 C 0.0845 0.26919 0.88019 0.0
C2341 C 0.06149 0.30411 0.88296 0.0
N2342 N 0.12204 0.27404 0.85222 0.0
N2343 N 0.08006 0.30587 0.87154 0.0
H2344 H 0.55317 0.7404 0.88137 0.0
H2345 H 0.53771 0.70117 0.00579 0.0
H2346 H 0.52733 0.77795 0.93752 0.0
H2347 H 0.54597 0.65343 0.94489 0.0
H2348 H 0.54132 0.7326 0.98294 0.0
H2349 H 0.55853 0.71188 0.90649 0.0
C2350 C 0.54924 0.74302 0.89917 0.0
C2351 C 0.53977 0.76154 0.90738 0.0
C2352 C 0.54247 0.71529 0.97457 0.0
C2353 C 0.5456 0.72901 0.93603 0.0
C2354 C 0.54025 0.69721 0.9876 0.0
C2355 C 0.54113 0.67434 0.97725 0.0
C2356 C 0.54569 0.71071 0.95089 0.0
C2357 C 0.5452 0.67072 0.95372 0.0
C2358 C 0.55204 0.72662 0.9134 0.0
C2359 C 0.5346 0.76388 0.93046 0.0
N2360 N 0.54715 0.68862 0.9413 0.0
N2361 N 0.53748 0.74782 0.94386 0.0
H2362 H 0.08188 0.74339 0.72307 0.0
H2363 H 0.21383 0.82296 0.7465 0.0
H2364 H 0.10376 0.81749 0.71807 0.0
H2365 H 0.19465 0.74736 0.74547 0.0
H2366 H 0.17334 0.82108 0.73767 0.0
H2367 H 0.12239 0.74425 0.7328 0.0
C2368 C 0.0951 0.75985 0.72409 0.0
C2369 C 0.08916 0.78039 0.71969 0.0
C2370 C 0.17789 0.80484 0.73936 0.0
C2371 C 0.13582 0.78151 0.73088 0.0
C2372 C 0.20115 0.8059 0.74446 0.0
C2373 C 0.20795 0.78529 0.74677 0.0
C2374 C 0.1609 0.78301 0.73656 0.0
C2375 C 0.19041 0.76376 0.74385 0.0
C2376 C 0.11829 0.76032 0.7296 0.0
C2377 C 0.10726 0.80115 0.72124 0.0
N2378 N 0.16782 0.76319 0.73894 0.0
N2379 N 0.12954 0.80115 0.72668 0.0
H2380 H 0.03742 0.35474 0.43961 0.0
H2381 H 0.03622 0.49039 0.45374 0.0
H2382 H 0.03649 0.38906 0.37995 0.0
H2383 H 0.0597 0.46052 0.51112 0.0
H2384 H 0.0356 0.45393 0.42623 0.0
H2385 H 0.04544 0.39353 0.46592 0.0
C2386 C 0.03944 0.3706 0.43209 0.0
C2387 C 0.03666 0.36875 0.40761 0.0
C2388 C 0.04108 0.45549 0.44482 0.0
C2389 C 0.04494 0.41332 0.43764 0.0
C2390 C 0.04135 0.47627 0.46058 0.0
C2391 C 0.0479 0.47858 0.48489 0.0
C2392 C 0.04706 0.43667 0.45342 0.0
C2393 C 0.0545 0.45966 0.4926 0.0
C2394 C 0.04389 0.39275 0.44711 0.0
C2395 C 0.03895 0.3898 0.39875 0.0
N2396 N 0.05368 0.43952 0.47702 0.0
N2397 N 0.04263 0.41119 0.41375 0.0
H2398 H 0.44718 0.23598 0.25204 0.0
H2399 H 0.34568 0.29786 0.24085 0.0
H2400 H 0.43444 0.27178 0.19542 0.0
H2401 H 0.33574 0.2345 0.27053 0.0
H2402 H 0.38158 0.29212 0.22923 0.0
H2403 H 0.4097 0.23807 0.26377 0.0
C2404 C 0.43653 0.24407 0.24195 0.0
C2405 C 0.44415 0.25358 0.22256 0.0
C2406 C 0.37161 0.27943 0.2383 0.0
C2407 C 0.40144 0.25662 0.23633 0.0
C2408 C 0.35105 0.28275 0.24507 0.0
C2409 C 0.33743 0.26667 0.25677 0.0
C2410 C 0.37927 0.26013 0.2436 0.0
C2411 C 0.34552 0.24734 0.26151 0.0
C2412 C 0.41511 0.24526 0.24867 0.0
C2413 C 0.42947 0.26401 0.21035 0.0
N2414 N 0.36595 0.24474 0.25514 0.0
N2415 N 0.40919 0.26548 0.21756 0.0
H2416 H 0.56207 0.55691 0.344 0.0
H2417 H 0.58032 0.52961 0.474 0.0
H2418 H 0.62067 0.53629 0.37184 0.0
H2419 H 0.51694 0.53824 0.44159 0.0
H2420 H 0.5965 0.53461 0.43776 0.0
H2421 H 0.54673 0.55366 0.38098 0.0
C2422 C 0.57188 0.55201 0.35797 0.0
C2423 C 0.59274 0.54691 0.35475 0.0
C2424 C 0.57902 0.53533 0.43855 0.0
C2425 C 0.57513 0.54289 0.39711 0.0
C2426 C 0.56974 0.53243 0.45925 0.0
C2427 C 0.54718 0.53345 0.46091 0.0
C2428 C 0.56575 0.53948 0.41935 0.0
C2429 C 0.53435 0.53717 0.44115 0.0
C2430 C 0.56302 0.54999 0.37904 0.0
C2431 C 0.60458 0.54048 0.37348 0.0
N2432 N 0.54383 0.54014 0.42128 0.0
N2433 N 0.59561 0.53861 0.39378 0.0
H2434 H 0.28764 0.80043 0.02208 0.0
H2435 H 0.22644 0.76089 0.12776 0.0
H2436 H 0.23512 0.82861 0.05023 0.0
H2437 H 0.29083 0.75013 0.11088 0.0
H2438 H 0.21943 0.77147 0.08937 0.0
H2439 H 0.27787 0.76795 0.04344 0.0
C2440 C 0.27362 0.79944 0.03226 0.0
C2441 C 0.26274 0.81774 0.0351 0.0
C2442 C 0.23477 0.76612 0.09386 0.0
C2443 C 0.25172 0.78079 0.05978 0.0
C2444 C 0.23887 0.7602 0.11581 0.0
C2445 C 0.2597 0.75552 0.12298 0.0
C2446 C 0.25156 0.76721 0.07898 0.0
C2447 C 0.27469 0.75395 0.10638 0.0
C2448 C 0.26806 0.78088 0.04445 0.0
C2449 C 0.24431 0.81518 0.04798 0.0
N2450 N 0.27056 0.76031 0.08537 0.0
N2451 N 0.23978 0.7974 0.06041 0.0
H2452 H 0.97938 0.55365 0.83476 0.0
H2453 H 0.96542 0.53922 0.96614 0.0
H2454 H 0.92432 0.57084 0.86865 0.0
H2455 H 0.02968 0.54652 0.93894 0.0
H2456 H 0.94863 0.54776 0.92967 0.0
H2457 H 0.99705 0.54858 0.87224 0.0
C2458 C 0.97103 0.55649 0.85011 0.0
C2459 C 0.95016 0.56243 0.84848 0.0
C2460 C 0.96641 0.54755 0.93177 0.0
C2461 C 0.97023 0.55638 0.89142 0.0
C2462 C 0.97595 0.54248 0.95246 0.0
C2463 C 0.99895 0.54205 0.9555 0.0
C2464 C 0.9799 0.55187 0.91395 0.0
C2465 C 0.01188 0.54668 0.93734 0.0
C2466 C 0.98116 0.55361 0.87151 0.0
C2467 C 0.94025 0.56605 0.869 0.0
N2468 N 0.00213 0.55126 0.91728 0.0
N2469 N 0.95025 0.5627 0.88963 0.0
H2470 H 0.25612 0.22927 0.57448 0.0
H2471 H 0.31207 0.25643 0.70695 0.0
H2472 H 0.32937 0.25565 0.59576 0.0
H2473 H 0.25156 0.27919 0.69053 0.0
H2474 H 0.3154 0.24889 0.6653 0.0
H2475 H 0.25079 0.24125 0.61571 0.0
C2476 C 0.27105 0.23781 0.58767 0.0
C2477 C 0.29326 0.24146 0.58148 0.0
C2478 C 0.30139 0.25557 0.67077 0.0
C2479 C 0.28721 0.25453 0.62868 0.0
C2480 C 0.29941 0.25988 0.69464 0.0
C2481 C 0.28161 0.26874 0.70251 0.0
C2482 C 0.2851 0.25941 0.65422 0.0
C2483 C 0.26565 0.27253 0.68536 0.0
C2484 C 0.26796 0.24465 0.61116 0.0
C2485 C 0.31193 0.25254 0.59948 0.0
N2486 N 0.26762 0.26761 0.66197 0.0
N2487 N 0.30849 0.25827 0.62218 0.0
H2488 H 0.58615 0.49093 0.19842 0.0
H2489 H 0.54719 0.56797 0.10915 0.0
H2490 H 0.5896 0.56504 0.22145 0.0
H2491 H 0.56475 0.50216 0.08849 0.0
H2492 H 0.5578 0.56627 0.15077 0.0
H2493 H 0.57326 0.49371 0.15835 0.0
C2494 C 0.58419 0.50783 0.19508 0.0
C2495 C 0.58911 0.52781 0.21339 0.0
C2496 C 0.55928 0.55226 0.13702 0.0
C2497 C 0.57417 0.53112 0.16721 0.0
C2498 C 0.55314 0.55317 0.11333 0.0
C2499 C 0.55527 0.53531 0.09528 0.0
C2500 C 0.56716 0.53314 0.14256 0.0
C2501 C 0.56308 0.51653 0.10171 0.0
C2502 C 0.57683 0.50942 0.17211 0.0
C2503 C 0.58614 0.54921 0.20785 0.0
N2504 N 0.56866 0.51595 0.12468 0.0
N2505 N 0.57883 0.55032 0.18524 0.0
H2506 H 0.32443 0.88378 0.94622 0.0
H2507 H 0.24426 0.80039 0.83466 0.0
H2508 H 0.25147 0.85892 0.94615 0.0
H2509 H 0.3053 0.85432 0.8291 0.0
H2510 H 0.24655 0.81979 0.87571 0.0
H2511 H 0.3182 0.87154 0.9034 0.0
C2512 C 0.30707 0.87592 0.93711 0.0
C2513 C 0.28843 0.87221 0.94964 0.0
C2514 C 0.25922 0.82751 0.86535 0.0
C2515 C 0.28123 0.8578 0.90081 0.0
C2516 C 0.25802 0.8164 0.842 0.0
C2517 C 0.27475 0.82563 0.82853 0.0
C2518 C 0.27755 0.84764 0.87536 0.0
C2519 C 0.29208 0.84654 0.83885 0.0
C2520 C 0.30352 0.86904 0.91271 0.0
C2521 C 0.26627 0.8621 0.93704 0.0
N2522 N 0.29325 0.85662 0.86178 0.0
N2523 N 0.26328 0.85481 0.91326 0.0
H2524 H 0.90921 0.52259 0.70531 0.0
H2525 H 0.98678 0.443 0.6589 0.0
H2526 H 0.93326 0.47547 0.74449 0.0
H2527 H 0.95663 0.48422 0.61703 0.0
H2528 H 0.96014 0.44729 0.68688 0.0
H2529 H 0.91916 0.50199 0.66971 0.0
C2530 C 0.91629 0.50771 0.70636 0.0
C2531 C 0.92107 0.50119 0.72799 0.0
C2532 C 0.95897 0.45493 0.67128 0.0
C2533 C 0.93261 0.47765 0.68745 0.0
C2534 C 0.9742 0.45249 0.65535 0.0
C2535 C 0.97423 0.4637 0.63594 0.0
C2536 C 0.94402 0.46905 0.66794 0.0
C2537 C 0.95731 0.47539 0.63186 0.0
C2538 C 0.9219 0.49588 0.68602 0.0
C2539 C 0.92983 0.48149 0.72827 0.0
N2540 N 0.94323 0.47823 0.64803 0.0
N2541 N 0.93572 0.4707 0.70839 0.0
H2542 H 0.32409 0.26668 0.46366 0.0
H2543 H 0.24844 0.23765 0.33603 0.0
H2544 H 0.25688 0.21642 0.44555 0.0
H2545 H 0.3126 0.29278 0.35602 0.0
H2546 H 0.25102 0.23015 0.37614 0.0
H2547 H 0.31967 0.27745 0.42502 0.0
C2548 C 0.30824 0.25811 0.45175 0.0
C2549 C 0.29086 0.24052 0.45808 0.0
C2550 C 0.26452 0.24394 0.37181 0.0
C2551 C 0.28585 0.2526 0.41329 0.0
C2552 C 0.26311 0.24821 0.34881 0.0
C2553 C 0.28036 0.26586 0.34244 0.0
C2554 C 0.2834 0.25731 0.38876 0.0
C2555 C 0.29888 0.27896 0.35997 0.0
C2556 C 0.30578 0.26423 0.42956 0.0
C2557 C 0.27077 0.2301 0.44165 0.0
N2558 N 0.29994 0.27437 0.38221 0.0
N2559 N 0.26893 0.23612 0.42005 0.0
H2560 H 0.27156 0.5702 0.49578 0.0
H2561 H 0.39295 0.55657 0.54689 0.0
H2562 H 0.32361 0.62435 0.54514 0.0
H2563 H 0.34732 0.50609 0.48886 0.0
H2564 H 0.36331 0.57669 0.55274 0.0
H2565 H 0.29468 0.54205 0.49932 0.0
C2566 C 0.28758 0.57594 0.50777 0.0
C2567 C 0.296 0.59964 0.51988 0.0
C2568 C 0.35963 0.56104 0.53888 0.0
C2569 C 0.3224 0.5679 0.52392 0.0
C2570 C 0.37654 0.54936 0.53564 0.0
C2571 C 0.37279 0.52967 0.51717 0.0
C2572 C 0.3388 0.55321 0.52345 0.0
C2573 C 0.35118 0.5215 0.50299 0.0
C2574 C 0.30082 0.55999 0.50965 0.0
C2575 C 0.31683 0.60636 0.53509 0.0
N2576 N 0.33508 0.53348 0.50625 0.0
N2577 N 0.32941 0.59065 0.53653 0.0
H2578 H 0.85075 0.92946 0.50213 0.0
H2579 H 0.97348 0.00562 0.56737 0.0
H2580 H 0.87617 0.91853 0.57005 0.0
H2581 H 0.96309 0.97542 0.49323 0.0
H2582 H 0.93485 0.98098 0.56993 0.0
H2583 H 0.8895 0.95325 0.4994 0.0
C2584 C 0.86454 0.93195 0.51637 0.0
C2585 C 0.86039 0.92191 0.53626 0.0
C2586 C 0.94111 0.9799 0.55314 0.0
C2587 C 0.90428 0.94967 0.53362 0.0
C2588 C 0.96296 -0.00597 0.55164 0.0
C2589 C 0.97136 0.99246 0.53007 0.0
C2590 C 0.92749 0.96473 0.5328 0.0
C2591 C 0.9572 0.97703 0.5102 0.0
C2592 C 0.88654 0.94551 0.51482 0.0
C2593 C 0.87878 0.92577 0.55431 0.0
N2594 N 0.93585 0.96391 0.51198 0.0
N2595 N 0.89992 0.93965 0.55273 0.0
H2596 H 0.86188 0.05575 0.29264 0.0
H2597 H 0.83973 0.17169 0.25203 0.0
H2598 H 0.90704 0.09721 0.25303 0.0
H2599 H 0.80031 0.13188 0.29722 0.0
H2600 H 0.86191 0.14248 0.24767 0.0
H2601 H 0.83588 0.08035 0.28867 0.0
C2602 C 0.86613 0.06989 0.28276 0.0
C2603 C 0.88673 0.0746 0.27333 0.0
C2604 C 0.84828 0.14009 0.25837 0.0
C2605 C 0.85717 0.10337 0.26915 0.0
C2606 C 0.83569 0.15685 0.26104 0.0
C2607 C 0.81811 0.1544 0.27515 0.0
C2608 C 0.84324 0.12068 0.26983 0.0
C2609 C 0.81343 0.13449 0.28595 0.0
C2610 C 0.85131 0.08403 0.28058 0.0
C2611 C 0.89129 0.09299 0.26053 0.0
N2612 N 0.82595 0.11855 0.28314 0.0
N2613 N 0.87677 0.107 0.25911 0.0
H2614 H 0.71392 0.11482 0.07414 0.0
H2615 H 0.58635 0.09809 0.01171 0.0
H2616 H 0.69857 0.15067 0.01822 0.0
H2617 H 0.60509 0.05322 0.0573 0.0
H2618 H 0.62655 0.12173 0.01778 0.0
H2619 H 0.67298 0.09708 0.07283 0.0
C2620 C 0.70194 0.11921 0.06178 0.0
C2621 C 0.70968 0.13396 0.04602 0.0
C2622 C 0.62178 0.10673 0.02647 0.0
C2623 C 0.6628 0.11352 0.04428 0.0
C2624 C 0.59888 0.09322 0.02298 0.0
C2625 C 0.59238 0.07354 0.03385 0.0
C2626 C 0.63818 0.10059 0.04107 0.0
C2627 C 0.60931 0.06809 0.04836 0.0
C2628 C 0.67855 0.10898 0.06096 0.0
C2629 C 0.69334 0.13918 0.03052 0.0
N2630 N 0.6314 0.08154 0.05153 0.0
N2631 N 0.67063 0.12877 0.02988 0.0
H2632 H 0.26216 0.53466 0.29314 0.0
H2633 H 0.29316 0.42236 0.22706 0.0
H2634 H 0.22641 0.49233 0.22599 0.0
H2635 H 0.31968 0.45858 0.29888 0.0
H2636 H 0.2788 0.45611 0.22057 0.0
H2637 H 0.29315 0.51596 0.28891 0.0
C2638 C 0.26106 0.52176 0.27726 0.0
C2639 C 0.24136 0.51444 0.26024 0.0
C2640 C 0.2883 0.45689 0.23755 0.0
C2641 C 0.27657 0.49269 0.25549 0.0
C2642 C 0.2964 0.43759 0.24133 0.0
C2643 C 0.30695 0.43722 0.2638 0.0
C2644 C 0.29079 0.47591 0.25639 0.0
C2645 C 0.31143 0.45782 0.28133 0.0
C2646 C 0.27877 0.5111 0.27484 0.0
C2647 C 0.2411 0.49814 0.23975 0.0
N2648 N 0.3029 0.47609 0.27739 0.0
N2649 N 0.25819 0.48731 0.23821 0.0
H2650 H 0.25914 0.4591 0.06985 0.0
H2651 H 0.13851 0.4486 0.99428 0.0
H2652 H 0.22261 0.39631 0.01802 0.0
H2653 H 0.18281 0.51364 0.03758 0.0
H2654 H 0.16691 0.42769 0.00475 0.0
H2655 H 0.22904 0.47763 0.06051 0.0
C2656 C 0.24471 0.44909 0.05654 0.0
C2657 C 0.24353 0.42609 0.04462 0.0
C2658 C 0.17038 0.44654 0.01191 0.0
C2659 C 0.20875 0.44747 0.0337 0.0
C2660 C 0.15416 0.45847 0.00602 0.0
C2661 C 0.15834 0.48298 0.01493 0.0
C2662 C 0.19082 0.45916 0.02701 0.0
C2663 C 0.17898 0.49487 0.02996 0.0
C2664 C 0.22749 0.45978 0.05116 0.0
C2665 C 0.22426 0.41408 0.02762 0.0
N2666 N 0.19435 0.48286 0.03553 0.0
N2667 N 0.20764 0.42494 0.0226 0.0
H2668 H 0.86554 0.97988 0.29894 0.0
H2669 H 0.84968 0.84097 0.25555 0.0
H2670 H 0.91234 0.9542 0.2578 0.0
H2671 H 0.79807 0.87064 0.28391 0.0
H2672 H 0.87297 0.88149 0.25542 0.0
H2673 H 0.84069 0.93947 0.29271 0.0
C2674 C 0.87053 0.96567 0.28843 0.0
C2675 C 0.89114 0.97041 0.27901 0.0
C2676 C 0.85646 0.87905 0.26148 0.0
C2677 C 0.86269 0.92369 0.27196 0.0
C2678 C 0.84316 0.85593 0.26162 0.0
C2679 C 0.8219 0.85233 0.26994 0.0
C2680 C 0.84851 0.89868 0.26985 0.0
C2681 C 0.81435 0.87242 0.27747 0.0
C2682 C 0.85626 0.94254 0.28482 0.0
C2683 C 0.89657 0.95131 0.26533 0.0
N2684 N 0.82767 0.89463 0.27739 0.0
N2685 N 0.88255 0.92866 0.26245 0.0
H2686 H 0.68414 0.09884 0.75235 0.0
H2687 H 0.74238 0.23173 0.82453 0.0
H2688 H 0.70117 0.11758 0.82809 0.0
H2689 H 0.73425 0.21264 0.74874 0.0
H2690 H 0.72416 0.19032 0.82586 0.0
H2691 H 0.69934 0.14085 0.75044 0.0
C2692 C 0.69098 0.11176 0.76858 0.0
C2693 C 0.69149 0.10462 0.79042 0.0
C2694 C 0.72631 0.19517 0.80892 0.0
C2695 C 0.70885 0.15267 0.78831 0.0
C2696 C 0.7367 0.21885 0.80814 0.0
C2697 C 0.73994 0.22567 0.78649 0.0
C2698 C 0.71905 0.17813 0.78791 0.0
C2699 C 0.73217 0.20817 0.76583 0.0
C2700 C 0.69968 0.13573 0.76746 0.0
C2701 C 0.70053 0.12218 0.81085 0.0
N2702 N 0.72211 0.18517 0.76706 0.0
N2703 N 0.70887 0.14535 0.80928 0.0
loop_
_geom_bond_atom_site_label_1
_geom_bond_atom_site_label_2
_geom_bond_distance
_geom_bond_site_symmetry_2
_ccdc_geom_bond_type
Mg0 O1 2.028 . S
Mg0 O7 1.986 . S
Mg0 O9 2.114 . S
Mg0 O10 2.251 1_455 S
Mg0 O13 2.010 . S
O1 Mg0 2.028 . S
O1 C4 1.250 . S
O2 Mg3 2.028 1_455 S
O2 C4 1.248 . S
Mg3 O2 2.028 1_655 S
Mg3 O8 2.032 1_655 S
Mg3 O10 2.079 . S
C4 O1 1.250 . S
C4 O2 1.248 . S
C5 O6 1.264 . S
C5 O13 1.249 . S
O6 C5 1.264 . S
O7 Mg0 1.986 . S
O7 C11 1.246 . S
O8 Mg3 2.032 1_455 S
O8 C11 1.259 . S
O9 Mg0 2.114 . S
O9 C12 1.252 1_455 S
O10 Mg0 2.251 1_655 S
O10 Mg3 2.079 . S
O10 C12 1.273 . S
C11 O7 1.246 . S
C11 O8 1.259 . S
C12 O9 1.252 1_655 S
C12 O10 1.273 . S
O13 Mg0 2.010 . S
O13 C5 1.249 . S
Mg14 O15 2.028 . S
Mg14 O21 1.986 . S
Mg14 O23 2.114 . S
Mg14 O24 2.251 1_455 S
Mg14 O27 2.010 . S
O15 Mg14 2.028 . S
O15 C18 1.250 . S
O16 Mg17 2.028 . S
O16 C18 1.248 1_655 S
Mg17 O16 2.028 . S
Mg17 O22 2.032 1_655 S
Mg17 O24 2.079 . S
C18 O15 1.250 . S
C18 O16 1.248 1_455 S
C19 O20 1.264 . S
C19 O27 1.249 . S
O20 C19 1.264 . S
O21 Mg14 1.986 . S
O21 C25 1.246 . S
O22 Mg17 2.032 1_455 S
O22 C25 1.259 . S
O23 Mg14 2.114 . S
O23 C26 1.252 1_455 S
O24 Mg14 2.251 1_655 S
O24 Mg17 2.079 . S
O24 C26 1.273 . S
C25 O21 1.246 . S
C25 O22 1.259 . S
C26 O23 1.252 1_655 S
C26 O24 1.273 . S
O27 Mg14 2.010 . S
O27 C19 1.249 . S
Mg28 O29 2.028 . S
Mg28 O35 1.986 . S
Mg28 O37 2.114 . S
Mg28 O38 2.251 . S
Mg28 O41 2.010 . S
O29 Mg28 2.028 . S
O29 C32 1.250 . S
O30 Mg31 2.028 . S
O30 C32 1.248 . S
Mg31 O30 2.028 . S
Mg31 O36 2.032 . S
Mg31 O38 2.079 . S
C32 O29 1.250 . S
C32 O30 1.248 . S
C33 O34 1.264 . S
C33 O41 1.249 . S
O34 C33 1.264 . S
O35 Mg28 1.986 . S
O35 C39 1.246 . S
O36 Mg31 2.032 . S
O36 C39 1.259 . S
O37 Mg28 2.114 . S
O37 C40 1.252 . S
O38 Mg28 2.251 . S
O38 Mg31 2.079 . S
O38 C40 1.273 . S
C39 O35 1.246 . S
C39 O36 1.259 . S
C40 O37 1.252 . S
C40 O38 1.273 . S
O41 Mg28 2.010 . S
O41 C33 1.249 . S
Mg42 O43 2.028 . S
Mg42 O49 1.986 . S
Mg42 O51 2.114 . S
Mg42 O52 2.251 . S
Mg42 O55 2.010 . S
O43 Mg42 2.028 . S
O43 C46 1.250 . S
O44 Mg45 2.028 . S
O44 C46 1.248 . S
Mg45 O44 2.028 . S
Mg45 O50 2.032 . S
Mg45 O52 2.079 . S
C46 O43 1.250 . S
C46 O44 1.248 . S
C47 O48 1.264 . S
C47 O55 1.249 . S
O48 C47 1.264 . S
O49 Mg42 1.986 . S
O49 C53 1.246 . S
O50 Mg45 2.032 . S
O50 C53 1.259 . S
O51 Mg42 2.114 . S
O51 C54 1.252 . S
O52 Mg42 2.251 . S
O52 Mg45 2.079 . S
O52 C54 1.273 . S
C53 O49 1.246 . S
C53 O50 1.259 . S
C54 O51 1.252 . S
C54 O52 1.273 . S
O55 Mg42 2.010 . S
O55 C47 1.249 . S
Mg56 O57 2.028 . S
Mg56 O63 1.986 . S
Mg56 O65 2.114 . S
Mg56 O66 2.251 . S
Mg56 O69 2.010 . S
O57 Mg56 2.028 . S
O57 C60 1.250 . S
O58 Mg59 2.028 . S
O58 C60 1.248 . S
Mg59 O58 2.028 . S
Mg59 O64 2.032 . S
Mg59 O66 2.079 . S
C60 O57 1.250 . S
C60 O58 1.248 . S
C61 O62 1.264 . S
C61 O69 1.249 . S
O62 C61 1.264 . S
O63 Mg56 1.986 . S
O63 C67 1.246 . S
O64 Mg59 2.032 . S
O64 C67 1.259 . S
O65 Mg56 2.114 . S
O65 C68 1.252 . S
O66 Mg56 2.251 . S
O66 Mg59 2.079 . S
O66 C68 1.273 . S
C67 O63 1.246 . S
C67 O64 1.259 . S
C68 O65 1.252 . S
C68 O66 1.273 . S
O69 Mg56 2.010 . S
O69 C61 1.249 . S
Mg70 O71 2.028 . S
Mg70 O77 1.986 . S
Mg70 O79 2.114 . S
Mg70 O80 2.251 . S
Mg70 O83 2.010 . S
O71 Mg70 2.028 . S
O71 C74 1.250 . S
O72 Mg73 2.028 . S
O72 C74 1.248 . S
Mg73 O72 2.028 . S
Mg73 O78 2.032 . S
Mg73 O80 2.079 . S
C74 O71 1.250 . S
C74 O72 1.248 . S
C75 O76 1.264 . S
C75 O83 1.249 . S
O76 C75 1.264 . S
O77 Mg70 1.986 . S
O77 C81 1.246 . S
O78 Mg73 2.032 . S
O78 C81 1.259 . S
O79 Mg70 2.114 . S
O79 C82 1.252 . S
O80 Mg70 2.251 . S
O80 Mg73 2.079 . S
O80 C82 1.273 . S
C81 O77 1.246 . S
C81 O78 1.259 . S
C82 O79 1.252 . S
C82 O80 1.273 . S
O83 Mg70 2.010 . S
O83 C75 1.249 . S
Mg84 O85 2.028 . S
Mg84 O91 1.986 . S
Mg84 O93 2.114 . S
Mg84 O94 2.251 . S
Mg84 O97 2.010 . S
O85 Mg84 2.028 . S
O85 C88 1.250 . S
O86 Mg87 2.028 . S
O86 C88 1.248 . S
Mg87 O86 2.028 . S
Mg87 O92 2.032 . S
Mg87 O94 2.079 . S
C88 O85 1.250 . S
C88 O86 1.248 . S
C89 O90 1.264 . S
C89 O97 1.249 . S
O90 C89 1.264 . S
O91 Mg84 1.986 . S
O91 C95 1.246 . S
O92 Mg87 2.032 . S
O92 C95 1.259 . S
O93 Mg84 2.114 . S
O93 C96 1.252 . S
O94 Mg84 2.251 . S
O94 Mg87 2.079 . S
O94 C96 1.273 . S
C95 O91 1.246 . S
C95 O92 1.259 . S
C96 O93 1.252 . S
C96 O94 1.273 . S
O97 Mg84 2.010 . S
O97 C89 1.249 . S
Mg98 O99 2.028 1_655 S
Mg98 O105 1.986 1_655 S
Mg98 O107 2.114 . S
Mg98 O108 2.251 . S
Mg98 O111 2.010 1_655 S
O99 Mg98 2.028 1_455 S
O99 C102 1.250 . S
O100 Mg101 2.028 . S
O100 C102 1.248 1_655 S
Mg101 O100 2.028 . S
Mg101 O106 2.032 . S
Mg101 O108 2.079 . S
C102 O99 1.250 . S
C102 O100 1.248 1_455 S
C103 O104 1.264 . S
C103 O111 1.249 . S
O104 C103 1.264 . S
O105 Mg98 1.986 1_455 S
O105 C109 1.246 1_455 S
O106 Mg101 2.032 . S
O106 C109 1.259 . S
O107 Mg98 2.114 . S
O107 C110 1.252 . S
O108 Mg98 2.251 . S
O108 Mg101 2.079 . S
O108 C110 1.273 . S
C109 O105 1.246 1_655 S
C109 O106 1.259 . S
C110 O107 1.252 . S
C110 O108 1.273 . S
O111 Mg98 2.010 1_455 S
O111 C103 1.249 . S
Mg112 O113 2.028 1_545 S
Mg112 O119 1.986 . S
Mg112 O121 2.114 . S
Mg112 O122 2.251 . S
Mg112 O125 2.010 . S
O113 Mg112 2.028 1_565 S
O113 C116 1.250 . S
O114 Mg115 2.028 1_565 S
O114 C116 1.248 . S
Mg115 O114 2.028 1_545 S
Mg115 O120 2.032 . S
Mg115 O122 2.079 . S
C116 O113 1.250 . S
C116 O114 1.248 . S
C117 O118 1.264 . S
C117 O125 1.249 . S
O118 C117 1.264 . S
O119 Mg112 1.986 . S
O119 C123 1.246 . S
O120 Mg115 2.032 . S
O120 C123 1.259 . S
O121 Mg112 2.114 . S
O121 C124 1.252 . S
O122 Mg112 2.251 . S
O122 Mg115 2.079 . S
O122 C124 1.273 . S
C123 O119 1.246 . S
C123 O120 1.259 . S
C124 O121 1.252 . S
C124 O122 1.273 . S
O125 Mg112 2.010 . S
O125 C117 1.249 . S
Mg126 O127 2.028 . S
Mg126 O133 1.986 . S
Mg126 O135 2.114 . S
Mg126 O136 2.251 . S
Mg126 O139 2.010 . S
O127 Mg126 2.028 . S
O127 C130 1.250 . S
O128 Mg129 2.028 . S
O128 C130 1.248 . S
Mg129 O128 2.028 . S
Mg129 O134 2.032 . S
Mg129 O136 2.079 . S
C130 O127 1.250 . S
C130 O128 1.248 . S
C131 O132 1.264 . S
C131 O139 1.249 . S
O132 C131 1.264 . S
O133 Mg126 1.986 . S
O133 C137 1.246 . S
O134 Mg129 2.032 . S
O134 C137 1.259 . S
O135 Mg126 2.114 . S
O135 C138 1.252 . S
O136 Mg126 2.251 . S
O136 Mg129 2.079 . S
O136 C138 1.273 . S
C137 O133 1.246 . S
C137 O134 1.259 . S
C138 O135 1.252 . S
C138 O136 1.273 . S
O139 Mg126 2.010 . S
O139 C131 1.249 . S
Mg140 O141 2.028 . S
Mg140 O147 1.986 . S
Mg140 O149 2.114 . S
Mg140 O150 2.251 . S
Mg140 O153 2.010 . S
O141 Mg140 2.028 . S
O141 C144 1.250 . S
O142 Mg143 2.028 . S
O142 C144 1.248 . S
Mg143 O142 2.028 . S
Mg143 O148 2.032 . S
Mg143 O150 2.079 . S
C144 O141 1.250 . S
C144 O142 1.248 . S
C145 O146 1.264 . S
C145 O153 1.249 . S
O146 C145 1.264 . S
O147 Mg140 1.986 . S
O147 C151 1.246 . S
O148 Mg143 2.032 . S
O148 C151 1.259 . S
O149 Mg140 2.114 . S
O149 C152 1.252 . S
O150 Mg140 2.251 . S
O150 Mg143 2.079 . S
O150 C152 1.273 . S
C151 O147 1.246 . S
C151 O148 1.259 . S
C152 O149 1.252 . S
C152 O150 1.273 . S
O153 Mg140 2.010 . S
O153 C145 1.249 . S
Mg154 O155 2.028 1_554 S
Mg154 O161 1.986 . S
Mg154 O163 2.114 1_554 S
Mg154 O164 2.251 . S
Mg154 O167 2.010 . S
O155 Mg154 2.028 1_556 S
O155 C158 1.250 . S
O156 Mg157 2.028 1_556 S
O156 C158 1.248 . S
Mg157 O156 2.028 1_554 S
Mg157 O162 2.032 . S
Mg157 O164 2.079 . S
C158 O155 1.250 . S
C158 O156 1.248 . S
C159 O160 1.264 . S
C159 O167 1.249 . S
O160 C159 1.264 . S
O161 Mg154 1.986 . S
O161 C165 1.246 . S
O162 Mg157 2.032 . S
O162 C165 1.259 . S
O163 Mg154 2.114 1_556 S
O163 C166 1.252 1_556 S
O164 Mg154 2.251 . S
O164 Mg157 2.079 . S
O164 C166 1.273 . S
C165 O161 1.246 . S
C165 O162 1.259 . S
C166 O163 1.252 1_554 S
C166 O164 1.273 . S
O167 Mg154 2.010 . S
O167 C159 1.249 . S
Mg168 O169 2.028 . S
Mg168 O175 1.986 . S
Mg168 O177 2.114 . S
Mg168 O178 2.251 . S
Mg168 O181 2.010 . S
O169 Mg168 2.028 . S
O169 C172 1.250 1_554 S
O170 Mg171 2.028 . S
O170 C172 1.248 1_554 S
Mg171 O170 2.028 . S
Mg171 O176 2.032 . S
Mg171 O178 2.079 . S
C172 O169 1.250 1_556 S
C172 O170 1.248 1_556 S
C173 O174 1.264 . S
C173 O181 1.249 . S
O174 C173 1.264 . S
O175 Mg168 1.986 . S
O175 C179 1.246 . S
O176 Mg171 2.032 . S
O176 C179 1.259 . S
O177 Mg168 2.114 . S
O177 C180 1.252 . S
O178 Mg168 2.251 . S
O178 Mg171 2.079 . S
O178 C180 1.273 . S
C179 O175 1.246 . S
C179 O176 1.259 . S
C180 O177 1.252 . S
C180 O178 1.273 . S
O181 Mg168 2.010 . S
O181 C173 1.249 . S
Mg182 O183 2.028 . S
Mg182 O189 1.986 . S
Mg182 O191 2.114 . S
Mg182 O192 2.251 . S
Mg182 O195 2.010 . S
O183 Mg182 2.028 . S
O183 C186 1.250 . S
O184 Mg185 2.028 . S
O184 C186 1.248 . S
Mg185 O184 2.028 . S
Mg185 O190 2.032 . S
Mg185 O192 2.079 . S
C186 O183 1.250 . S
C186 O184 1.248 . S
C187 O188 1.264 . S
C187 O195 1.249 . S
O188 C187 1.264 . S
O189 Mg182 1.986 . S
O189 C193 1.246 . S
O190 Mg185 2.032 . S
O190 C193 1.259 . S
O191 Mg182 2.114 . S
O191 C194 1.252 . S
O192 Mg182 2.251 . S
O192 Mg185 2.079 . S
O192 C194 1.273 . S
C193 O189 1.246 . S
C193 O190 1.259 . S
C194 O191 1.252 . S
C194 O192 1.273 . S
O195 Mg182 2.010 . S
O195 C187 1.249 . S
Mg196 O197 2.028 . S
Mg196 O203 1.986 . S
Mg196 O205 2.114 . S
Mg196 O206 2.251 . S
Mg196 O209 2.010 . S
O197 Mg196 2.028 . S
O197 C200 1.250 . S
O198 Mg199 2.028 . S
O198 C200 1.248 . S
Mg199 O198 2.028 . S
Mg199 O204 2.032 . S
Mg199 O206 2.079 . S
C200 O197 1.250 . S
C200 O198 1.248 . S
C201 O202 1.264 . S
C201 O209 1.249 . S
O202 C201 1.264 . S
O203 Mg196 1.986 . S
O203 C207 1.246 . S
O204 Mg199 2.032 . S
O204 C207 1.259 . S
O205 Mg196 2.114 . S
O205 C208 1.252 . S
O206 Mg196 2.251 . S
O206 Mg199 2.079 . S
O206 C208 1.273 . S
C207 O203 1.246 . S
C207 O204 1.259 . S
C208 O205 1.252 . S
C208 O206 1.273 . S
O209 Mg196 2.010 . S
O209 C201 1.249 . S
Mg210 O211 2.028 . S
Mg210 O217 1.986 . S
Mg210 O219 2.114 . S
Mg210 O220 2.251 . S
Mg210 O223 2.010 . S
O211 Mg210 2.028 . S
O211 C214 1.250 . S
O212 Mg213 2.028 . S
O212 C214 1.248 . S
Mg213 O212 2.028 . S
Mg213 O218 2.032 . S
Mg213 O220 2.079 . S
C214 O211 1.250 . S
C214 O212 1.248 . S
C215 O216 1.264 . S
C215 O223 1.249 . S
O216 C215 1.264 . S
O217 Mg210 1.986 . S
O217 C221 1.246 . S
O218 Mg213 2.032 . S
O218 C221 1.259 . S
O219 Mg210 2.114 . S
O219 C222 1.252 . S
O220 Mg210 2.251 . S
O220 Mg213 2.079 . S
O220 C222 1.273 . S
C221 O217 1.246 . S
C221 O218 1.259 . S
C222 O219 1.252 . S
C222 O220 1.273 . S
O223 Mg210 2.010 . S
O223 C215 1.249 . S
Mg224 O225 2.028 . S
Mg224 O231 1.986 . S
Mg224 O233 2.114 . S
Mg224 O234 2.251 . S
Mg224 O237 2.010 . S
O225 Mg224 2.028 . S
O225 C228 1.250 1_545 S
O226 Mg227 2.028 . S
O226 C228 1.248 1_545 S
Mg227 O226 2.028 . S
Mg227 O232 2.032 . S
Mg227 O234 2.079 . S
C228 O225 1.250 1_565 S
C228 O226 1.248 1_565 S
C229 O230 1.264 . S
C229 O237 1.249 . S
O230 C229 1.264 . S
O231 Mg224 1.986 . S
O231 C235 1.246 . S
O232 Mg227 2.032 . S
O232 C235 1.259 . S
O233 Mg224 2.114 . S
O233 C236 1.252 . S
O234 Mg224 2.251 . S
O234 Mg227 2.079 . S
O234 C236 1.273 . S
C235 O231 1.246 . S
C235 O232 1.259 . S
C236 O233 1.252 . S
C236 O234 1.273 . S
O237 Mg224 2.010 . S
O237 C229 1.249 . S
Mg238 O239 2.028 . S
Mg238 O245 1.986 . S
Mg238 O247 2.114 . S
Mg238 O248 2.251 . S
Mg238 O251 2.010 . S
O239 Mg238 2.028 . S
O239 C242 1.250 . S
O240 Mg241 2.028 . S
O240 C242 1.248 . S
Mg241 O240 2.028 . S
Mg241 O246 2.032 . S
Mg241 O248 2.079 . S
C242 O239 1.250 . S
C242 O240 1.248 . S
C243 O244 1.264 . S
C243 O251 1.249 . S
O244 C243 1.264 . S
O245 Mg238 1.986 . S
O245 C249 1.246 . S
O246 Mg241 2.032 . S
O246 C249 1.259 . S
O247 Mg238 2.114 . S
O247 C250 1.252 . S
O248 Mg238 2.251 . S
O248 Mg241 2.079 . S
O248 C250 1.273 . S
C249 O245 1.246 . S
C249 O246 1.259 . S
C250 O247 1.252 . S
C250 O248 1.273 . S
O251 Mg238 2.010 . S
O251 C243 1.249 . S
Mg252 O253 2.028 . S
Mg252 O259 1.986 . S
Mg252 O261 2.114 . S
Mg252 O262 2.251 . S
Mg252 O265 2.010 . S
O253 Mg252 2.028 . S
O253 C256 1.250 . S
O254 Mg255 2.028 . S
O254 C256 1.248 . S
Mg255 O254 2.028 . S
Mg255 O260 2.032 . S
Mg255 O262 2.079 . S
C256 O253 1.250 . S
C256 O254 1.248 . S
C257 O258 1.264 . S
C257 O265 1.249 . S
O258 C257 1.264 . S
O259 Mg252 1.986 . S
O259 C263 1.246 . S
O260 Mg255 2.032 . S
O260 C263 1.259 . S
O261 Mg252 2.114 . S
O261 C264 1.252 . S
O262 Mg252 2.251 . S
O262 Mg255 2.079 . S
O262 C264 1.273 . S
C263 O259 1.246 . S
C263 O260 1.259 . S
C264 O261 1.252 . S
C264 O262 1.273 . S
O265 Mg252 2.010 . S
O265 C257 1.249 . S
Mg266 O267 2.028 . S
Mg266 O273 1.986 . S
Mg266 O275 2.114 . S
Mg266 O276 2.251 . S
Mg266 O279 2.010 . S
O267 Mg266 2.028 . S
O267 C270 1.250 . S
O268 Mg269 2.028 . S
O268 C270 1.248 . S
Mg269 O268 2.028 . S
Mg269 O274 2.032 . S
Mg269 O276 2.079 . S
C270 O267 1.250 . S
C270 O268 1.248 . S
C271 O272 1.264 . S
C271 O279 1.249 . S
O272 C271 1.264 . S
O273 Mg266 1.986 . S
O273 C277 1.246 . S
O274 Mg269 2.032 . S
O274 C277 1.259 . S
O275 Mg266 2.114 . S
O275 C278 1.252 . S
O276 Mg266 2.251 . S
O276 Mg269 2.079 . S
O276 C278 1.273 . S
C277 O273 1.246 . S
C277 O274 1.259 . S
C278 O275 1.252 . S
C278 O276 1.273 . S
O279 Mg266 2.010 . S
O279 C271 1.249 . S
Mg280 O281 2.028 . S
Mg280 O287 1.986 1_554 S
Mg280 O289 2.114 . S
Mg280 O290 2.251 . S
Mg280 O293 2.010 . S
O281 Mg280 2.028 . S
O281 C284 1.250 . S
O282 Mg283 2.028 . S
O282 C284 1.248 . S
Mg283 O282 2.028 . S
Mg283 O288 2.032 . S
Mg283 O290 2.079 . S
C284 O281 1.250 . S
C284 O282 1.248 . S
C285 O286 1.264 1_554 S
C285 O293 1.249 . S
O286 C285 1.264 1_556 S
O287 Mg280 1.986 1_556 S
O287 C291 1.246 . S
O288 Mg283 2.032 . S
O288 C291 1.259 1_554 S
O289 Mg280 2.114 . S
O289 C292 1.252 . S
O290 Mg280 2.251 . S
O290 Mg283 2.079 . S
O290 C292 1.273 . S
C291 O287 1.246 . S
C291 O288 1.259 1_556 S
C292 O289 1.252 . S
C292 O290 1.273 . S
O293 Mg280 2.010 . S
O293 C285 1.249 . S
Mg294 O295 2.028 . S
Mg294 O301 1.986 . S
Mg294 O303 2.114 . S
Mg294 O304 2.251 . S
Mg294 O307 2.010 . S
O295 Mg294 2.028 . S
O295 C298 1.250 . S
O296 Mg297 2.028 . S
O296 C298 1.248 . S
Mg297 O296 2.028 . S
Mg297 O302 2.032 . S
Mg297 O304 2.079 . S
C298 O295 1.250 . S
C298 O296 1.248 . S
C299 O300 1.264 . S
C299 O307 1.249 . S
O300 C299 1.264 . S
O301 Mg294 1.986 . S
O301 C305 1.246 . S
O302 Mg297 2.032 . S
O302 C305 1.259 . S
O303 Mg294 2.114 . S
O303 C306 1.252 . S
O304 Mg294 2.251 . S
O304 Mg297 2.079 . S
O304 C306 1.273 . S
C305 O301 1.246 . S
C305 O302 1.259 . S
C306 O303 1.252 . S
C306 O304 1.273 . S
O307 Mg294 2.010 . S
O307 C299 1.249 . S
Mg308 O309 2.028 . S
Mg308 O315 1.986 . S
Mg308 O317 2.114 . S
Mg308 O318 2.251 . S
Mg308 O321 2.010 . S
O309 Mg308 2.028 . S
O309 C312 1.250 . S
O310 Mg311 2.028 . S
O310 C312 1.248 . S
Mg311 O310 2.028 . S
Mg311 O316 2.032 . S
Mg311 O318 2.079 . S
C312 O309 1.250 . S
C312 O310 1.248 . S
C313 O314 1.264 . S
C313 O321 1.249 . S
O314 C313 1.264 . S
O315 Mg308 1.986 . S
O315 C319 1.246 . S
O316 Mg311 2.032 . S
O316 C319 1.259 . S
O317 Mg308 2.114 . S
O317 C320 1.252 . S
O318 Mg308 2.251 . S
O318 Mg311 2.079 . S
O318 C320 1.273 . S
C319 O315 1.246 . S
C319 O316 1.259 . S
C320 O317 1.252 . S
C320 O318 1.273 . S
O321 Mg308 2.010 . S
O321 C313 1.249 . S
Mg322 O323 2.028 . S
Mg322 O329 1.986 . S
Mg322 O331 2.114 . S
Mg322 O332 2.251 . S
Mg322 O335 2.010 . S
O323 Mg322 2.028 . S
O323 C326 1.250 . S
O324 Mg325 2.028 . S
O324 C326 1.248 . S
Mg325 O324 2.028 . S
Mg325 O330 2.032 . S
Mg325 O332 2.079 . S
C326 O323 1.250 . S
C326 O324 1.248 . S
C327 O328 1.264 . S
C327 O335 1.249 . S
O328 C327 1.264 . S
O329 Mg322 1.986 . S
O329 C333 1.246 . S
O330 Mg325 2.032 . S
O330 C333 1.259 . S
O331 Mg322 2.114 . S
O331 C334 1.252 . S
O332 Mg322 2.251 . S
O332 Mg325 2.079 . S
O332 C334 1.273 . S
C333 O329 1.246 . S
C333 O330 1.259 . S
C334 O331 1.252 . S
C334 O332 1.273 . S
O335 Mg322 2.010 . S
O335 C327 1.249 . S
Dy336 O339 2.307 . S
Dy336 O341 2.395 . S
Dy336 O342 2.379 . S
Dy336 O344 2.339 . S
Dy336 O346 2.298 . S
Dy336 O350 2.298 . S
Dy336 C358 2.738 . S
Dy337 O340 2.298 1_655 S
Dy337 O343 2.275 1_655 S
Dy337 O345 2.307 1_645 S
Dy337 O347 2.395 . S
Dy337 O348 2.379 1_554 S
Dy337 O351 2.339 1_654 S
Dy337 C367 2.738 . S
C338 O350 1.231 1_556 S
C338 O351 1.257 . S
O339 Dy336 2.307 . S
O339 C349 1.266 . S
O340 Dy337 2.298 1_455 S
O340 C349 1.236 . S
O341 Dy336 2.395 . S
O341 C358 1.255 . S
O342 Dy336 2.379 . S
O342 C358 1.249 . S
O343 Dy337 2.275 1_455 S
O343 C359 1.254 . S
O344 Dy336 2.339 . S
O344 C359 1.257 . S
O345 Dy337 2.307 1_465 S
O345 C360 1.266 . S
O346 Dy336 2.298 . S
O346 C360 1.236 1_545 S
O347 Dy337 2.395 . S
O347 C367 1.255 . S
O348 Dy337 2.379 1_556 S
O348 C367 1.249 1_556 S
C349 O339 1.266 . S
C349 O340 1.236 . S
O350 Dy336 2.298 . S
O350 C338 1.231 1_554 S
O351 Dy337 2.339 1_456 S
O351 C338 1.257 . S
C352 C355 1.344 . S
C352 C356 1.328 . S
C352 C358 1.516 . S
C353 C354 1.304 . S
C353 C357 1.323 . S
C354 C353 1.304 . S
C354 C355 1.371 . S
C354 H368 0.930 1_545 S
C355 C352 1.344 . S
C355 C354 1.371 . S
C355 H369 0.931 . S
C356 C352 1.328 . S
C356 C357 1.433 . S
C356 H370 0.931 . S
C357 C353 1.323 . S
C357 C356 1.433 . S
C357 H371 0.933 . S
C358 Dy336 2.738 . S
C358 O341 1.255 . S
C358 O342 1.249 . S
C358 C352 1.516 . S
C359 O343 1.254 . S
C359 O344 1.257 . S
C360 O345 1.266 . S
C360 O346 1.236 1_565 S
C361 C364 1.344 . S
C361 C365 1.328 1_554 S
C361 C367 1.516 . S
C362 C363 1.304 . S
C362 C366 1.323 1_554 S
C363 C362 1.304 . S
C363 C364 1.371 . S
C363 H372 0.930 . S
C364 C361 1.344 . S
C364 C363 1.371 . S
C364 H373 0.931 . S
C365 C361 1.328 1_556 S
C365 C366 1.433 . S
C365 H374 0.931 . S
C366 C362 1.323 1_556 S
C366 C365 1.433 . S
C366 H375 0.933 . S
C367 Dy337 2.738 . S
C367 O347 1.255 . S
C367 O348 1.249 1_554 S
C367 C361 1.516 . S
H368 C354 0.930 1_565 S
H369 C355 0.931 . S
H370 C356 0.931 . S
H371 C357 0.933 . S
H372 C363 0.930 . S
H373 C364 0.931 . S
H374 C365 0.931 . S
H375 C366 0.933 . S
Dy376 O379 2.307 . S
Dy376 O381 2.395 . S
Dy376 O382 2.379 . S
Dy376 O384 2.339 . S
Dy376 O386 2.298 . S
Dy376 O390 2.275 . S
Dy376 C398 2.738 . S
Dy377 O380 2.298 . S
Dy377 O383 2.275 . S
Dy377 O385 2.307 . S
Dy377 O387 2.395 . S
Dy377 O388 2.379 . S
Dy377 O391 2.339 . S
Dy377 C407 2.738 . S
C378 O390 1.254 . S
C378 O391 1.257 . S
O379 Dy376 2.307 . S
O379 C389 1.266 . S
O380 Dy377 2.298 . S
O380 C389 1.236 . S
O381 Dy376 2.395 . S
O381 C398 1.255 . S
O382 Dy376 2.379 . S
O382 C398 1.249 . S
O383 Dy377 2.275 . S
O383 C399 1.254 . S
O384 Dy376 2.339 . S
O384 C399 1.257 . S
O385 Dy377 2.307 . S
O385 C400 1.266 . S
O386 Dy376 2.298 . S
O386 C400 1.236 . S
O387 Dy377 2.395 . S
O387 C407 1.255 . S
O388 Dy377 2.379 . S
O388 C407 1.249 . S
C389 O379 1.266 . S
C389 O380 1.236 . S
O390 Dy376 2.275 . S
O390 C378 1.254 . S
O391 Dy377 2.339 . S
O391 C378 1.257 . S
C392 C395 1.344 . S
C392 C396 1.328 . S
C392 C398 1.516 . S
C393 C394 1.304 . S
C393 C397 1.323 . S
C394 C393 1.304 . S
C394 C395 1.371 . S
C394 H408 0.930 . S
C395 C392 1.344 . S
C395 C394 1.371 . S
C395 H409 0.931 . S
C396 C392 1.328 . S
C396 C397 1.433 . S
C396 H410 0.931 . S
C397 C393 1.323 . S
C397 C396 1.433 . S
C397 H411 0.933 . S
C398 Dy376 2.738 . S
C398 O381 1.255 . S
C398 O382 1.249 . S
C398 C392 1.516 . S
C399 O383 1.254 . S
C399 O384 1.257 . S
C400 O385 1.266 . S
C400 O386 1.236 . S
C401 C404 1.344 . S
C401 C405 1.328 . S
C401 C407 1.516 . S
C402 C403 1.304 . S
C402 C406 1.323 . S
C403 C402 1.304 . S
C403 C404 1.371 . S
C403 H412 0.930 . S
C404 C401 1.344 . S
C404 C403 1.371 . S
C404 H413 0.931 . S
C405 C401 1.328 . S
C405 C406 1.433 . S
C405 H414 0.931 . S
C406 C402 1.323 . S
C406 C405 1.433 . S
C406 H415 0.933 . S
C407 Dy377 2.738 . S
C407 O387 1.255 . S
C407 O388 1.249 . S
C407 C401 1.516 . S
H408 C394 0.930 . S
H409 C395 0.931 . S
H410 C396 0.931 . S
H411 C397 0.933 . S
H412 C403 0.930 . S
H413 C404 0.931 . S
H414 C405 0.931 . S
H415 C406 0.933 . S
Dy416 O419 2.307 . S
Dy416 O421 2.395 . S
Dy416 O422 2.379 . S
Dy416 O424 2.339 . S
Dy416 O426 2.298 . S
Dy416 O430 2.275 . S
Dy416 C438 2.738 . S
Dy417 O420 2.298 . S
Dy417 O423 2.275 . S
Dy417 O425 2.307 . S
Dy417 O427 2.395 . S
Dy417 O428 2.379 . S
Dy417 O431 2.339 . S
Dy417 C447 2.738 . S
C418 O430 1.254 . S
C418 O431 1.257 . S
O419 Dy416 2.307 . S
O419 C429 1.266 1_545 S
O420 Dy417 2.298 . S
O420 C429 1.236 1_545 S
O421 Dy416 2.395 . S
O421 C438 1.255 . S
O422 Dy416 2.379 . S
O422 C438 1.249 . S
O423 Dy417 2.275 . S
O423 C439 1.254 . S
O424 Dy416 2.339 . S
O424 C439 1.257 . S
O425 Dy417 2.307 . S
O425 C440 1.266 . S
O426 Dy416 2.298 . S
O426 C440 1.236 . S
O427 Dy417 2.395 . S
O427 C447 1.255 . S
O428 Dy417 2.379 . S
O428 C447 1.249 . S
C429 O419 1.266 1_565 S
C429 O420 1.236 1_565 S
O430 Dy416 2.275 . S
O430 C418 1.254 . S
O431 Dy417 2.339 . S
O431 C418 1.257 . S
C432 C435 1.344 . S
C432 C436 1.328 . S
C432 C438 1.516 . S
C433 C434 1.304 . S
C433 C437 1.323 . S
C434 C433 1.304 . S
C434 C435 1.371 . S
C434 H448 0.930 . S
C435 C432 1.344 . S
C435 C434 1.371 . S
C435 H449 0.931 . S
C436 C432 1.328 . S
C436 C437 1.433 . S
C436 H450 0.931 . S
C437 C433 1.323 . S
C437 C436 1.433 . S
C437 H451 0.933 . S
C438 Dy416 2.738 . S
C438 O421 1.255 . S
C438 O422 1.249 . S
C438 C432 1.516 . S
C439 O423 1.254 . S
C439 O424 1.257 . S
C440 O425 1.266 . S
C440 O426 1.236 . S
C441 C444 1.344 1_545 S
C441 C445 1.328 . S
C441 C447 1.516 . S
C442 C443 1.304 . S
C442 C446 1.323 . S
C443 C442 1.304 . S
C443 C444 1.371 . S
C443 H452 0.930 . S
C444 C441 1.344 1_565 S
C444 C443 1.371 . S
C444 H453 0.931 . S
C445 C441 1.328 . S
C445 C446 1.433 1_545 S
C445 H454 0.931 . S
C446 C442 1.323 . S
C446 C445 1.433 1_565 S
C446 H455 0.933 . S
C447 Dy417 2.738 . S
C447 O427 1.255 . S
C447 O428 1.249 . S
C447 C441 1.516 . S
H448 C434 0.930 . S
H449 C435 0.931 . S
H450 C436 0.931 . S
H451 C437 0.933 . S
H452 C443 0.930 . S
H453 C444 0.931 . S
H454 C445 0.931 . S
H455 C446 0.933 . S
Dy456 O459 2.307 . S
Dy456 O461 2.395 . S
Dy456 O462 2.379 . S
Dy456 O464 2.339 . S
Dy456 O466 2.298 . S
Dy456 O470 2.275 . S
Dy456 C478 2.738 . S
Dy457 O460 2.298 . S
Dy457 O463 2.275 . S
Dy457 O465 2.307 . S
Dy457 O467 2.395 . S
Dy457 O468 2.379 . S
Dy457 O471 2.339 . S
Dy457 C487 2.738 . S
C458 O470 1.254 . S
C458 O471 1.257 . S
O459 Dy456 2.307 . S
O459 C469 1.266 . S
O460 Dy457 2.298 . S
O460 C469 1.236 . S
O461 Dy456 2.395 . S
O461 C478 1.255 . S
O462 Dy456 2.379 . S
O462 C478 1.249 . S
O463 Dy457 2.275 . S
O463 C479 1.254 . S
O464 Dy456 2.339 . S
O464 C479 1.257 . S
O465 Dy457 2.307 . S
O465 C480 1.266 . S
O466 Dy456 2.298 . S
O466 C480 1.236 . S
O467 Dy457 2.395 . S
O467 C487 1.255 . S
O468 Dy457 2.379 . S
O468 C487 1.249 . S
C469 O459 1.266 . S
C469 O460 1.236 . S
O470 Dy456 2.275 . S
O470 C458 1.254 . S
O471 Dy457 2.339 . S
O471 C458 1.257 . S
C472 C475 1.344 . S
C472 C476 1.328 . S
C472 C478 1.516 . S
C473 C474 1.304 . S
C473 C477 1.323 . S
C474 C473 1.304 . S
C474 C475 1.371 . S
C474 H488 0.930 . S
C475 C472 1.344 . S
C475 C474 1.371 . S
C475 H489 0.931 . S
C476 C472 1.328 . S
C476 C477 1.433 . S
C476 H490 0.931 . S
C477 C473 1.323 . S
C477 C476 1.433 . S
C477 H491 0.933 . S
C478 Dy456 2.738 . S
C478 O461 1.255 . S
C478 O462 1.249 . S
C478 C472 1.516 . S
C479 O463 1.254 . S
C479 O464 1.257 . S
C480 O465 1.266 . S
C480 O466 1.236 . S
C481 C484 1.344 . S
C481 C485 1.328 . S
C481 C487 1.516 . S
C482 C483 1.304 . S
C482 C486 1.323 . S
C483 C482 1.304 . S
C483 C484 1.371 . S
C483 H492 0.930 . S
C484 C481 1.344 . S
C484 C483 1.371 . S
C484 H493 0.931 . S
C485 C481 1.328 . S
C485 C486 1.433 . S
C485 H494 0.931 . S
C486 C482 1.323 . S
C486 C485 1.433 . S
C486 H495 0.933 . S
C487 Dy457 2.738 . S
C487 O467 1.255 . S
C487 O468 1.249 . S
C487 C481 1.516 . S
H488 C474 0.930 . S
H489 C475 0.931 . S
H490 C476 0.931 . S
H491 C477 0.933 . S
H492 C483 0.930 . S
H493 C484 0.931 . S
H494 C485 0.931 . S
H495 C486 0.933 . S
Dy496 O499 2.307 . S
Dy496 O501 2.395 1_545 S
Dy496 O502 2.379 1_545 S
Dy496 O504 2.339 . S
Dy496 O506 2.298 . S
Dy496 O510 2.275 1_455 S
Dy496 C518 2.738 1_545 S
Dy497 O500 2.298 . S
Dy497 O503 2.275 . S
Dy497 O505 2.307 . S
Dy497 O507 2.395 . S
Dy497 O508 2.379 1_455 S
Dy497 O511 2.339 1_455 S
Dy497 C527 2.738 . S
C498 O510 1.254 . S
C498 O511 1.257 . S
O499 Dy496 2.307 . S
O499 C509 1.266 . S
O500 Dy497 2.298 . S
O500 C509 1.236 . S
O501 Dy496 2.395 1_565 S
O501 C518 1.255 . S
O502 Dy496 2.379 1_565 S
O502 C518 1.249 . S
O503 Dy497 2.275 . S
O503 C519 1.254 . S
O504 Dy496 2.339 . S
O504 C519 1.257 . S
O505 Dy497 2.307 . S
O505 C520 1.266 . S
O506 Dy496 2.298 . S
O506 C520 1.236 . S
O507 Dy497 2.395 . S
O507 C527 1.255 . S
O508 Dy497 2.379 1_655 S
O508 C527 1.249 1_655 S
C509 O499 1.266 . S
C509 O500 1.236 . S
O510 Dy496 2.275 1_655 S
O510 C498 1.254 . S
O511 Dy497 2.339 1_655 S
O511 C498 1.257 . S
C512 C515 1.344 . S
C512 C516 1.328 . S
C512 C518 1.516 . S
C513 C514 1.304 . S
C513 C517 1.323 . S
C514 C513 1.304 . S
C514 C515 1.371 . S
C514 H528 0.930 . S
C515 C512 1.344 . S
C515 C514 1.371 . S
C515 H529 0.931 . S
C516 C512 1.328 . S
C516 C517 1.433 . S
C516 H530 0.931 . S
C517 C513 1.323 . S
C517 C516 1.433 . S
C517 H531 0.933 . S
C518 Dy496 2.738 1_565 S
C518 O501 1.255 . S
C518 O502 1.249 . S
C518 C512 1.516 . S
C519 O503 1.254 . S
C519 O504 1.257 . S
C520 O505 1.266 . S
C520 O506 1.236 . S
C521 C524 1.344 . S
C521 C525 1.328 1_455 S
C521 C527 1.516 . S
C522 C523 1.304 . S
C522 C526 1.323 1_455 S
C523 C522 1.304 . S
C523 C524 1.371 . S
C523 H532 0.930 . S
C524 C521 1.344 . S
C524 C523 1.371 . S
C524 H533 0.931 . S
C525 C521 1.328 1_655 S
C525 C526 1.433 . S
C525 H534 0.931 . S
C526 C522 1.323 1_655 S
C526 C525 1.433 . S
C526 H535 0.933 . S
C527 Dy497 2.738 . S
C527 O507 1.255 . S
C527 O508 1.249 1_455 S
C527 C521 1.516 . S
H528 C514 0.930 . S
H529 C515 0.931 . S
H530 C516 0.931 . S
H531 C517 0.933 . S
H532 C523 0.930 . S
H533 C524 0.931 . S
H534 C525 0.931 . S
H535 C526 0.933 . S
Dy536 O539 2.307 . S
Dy536 O541 2.395 . S
Dy536 O542 2.379 . S
Dy536 O544 2.339 . S
Dy536 O546 2.298 . S
Dy536 O550 2.275 . S
Dy536 C558 2.738 . S
Dy537 O540 2.298 . S
Dy537 O543 2.275 . S
Dy537 O545 2.307 . S
Dy537 O547 2.395 . S
Dy537 O548 2.379 . S
Dy537 O551 2.339 . S
Dy537 C567 2.738 . S
C538 O550 1.254 . S
C538 O551 1.257 . S
O539 Dy536 2.307 . S
O539 C549 1.266 . S
O540 Dy537 2.298 . S
O540 C549 1.236 . S
O541 Dy536 2.395 . S
O541 C558 1.255 . S
O542 Dy536 2.379 . S
O542 C558 1.249 . S
O543 Dy537 2.275 . S
O543 C559 1.254 . S
O544 Dy536 2.339 . S
O544 C559 1.257 . S
O545 Dy537 2.307 . S
O545 C560 1.266 . S
O546 Dy536 2.298 . S
O546 C560 1.236 . S
O547 Dy537 2.395 . S
O547 C567 1.255 . S
O548 Dy537 2.379 . S
O548 C567 1.249 . S
C549 O539 1.266 . S
C549 O540 1.236 . S
O550 Dy536 2.275 . S
O550 C538 1.254 . S
O551 Dy537 2.339 . S
O551 C538 1.257 . S
C552 C555 1.344 . S
C552 C556 1.328 . S
C552 C558 1.516 . S
C553 C554 1.304 . S
C553 C557 1.323 . S
C554 C553 1.304 . S
C554 C555 1.371 . S
C554 H568 0.930 . S
C555 C552 1.344 . S
C555 C554 1.371 . S
C555 H569 0.931 . S
C556 C552 1.328 . S
C556 C557 1.433 . S
C556 H570 0.931 . S
C557 C553 1.323 . S
C557 C556 1.433 . S
C557 H571 0.933 . S
C558 Dy536 2.738 . S
C558 O541 1.255 . S
C558 O542 1.249 . S
C558 C552 1.516 . S
C559 O543 1.254 . S
C559 O544 1.257 . S
C560 O545 1.266 . S
C560 O546 1.236 . S
C561 C564 1.344 . S
C561 C565 1.328 . S
C561 C567 1.516 . S
C562 C563 1.304 . S
C562 C566 1.323 . S
C563 C562 1.304 . S
C563 C564 1.371 . S
C563 H572 0.930 . S
C564 C561 1.344 . S
C564 C563 1.371 . S
C564 H573 0.931 . S
C565 C561 1.328 . S
C565 C566 1.433 . S
C565 H574 0.931 . S
C566 C562 1.323 . S
C566 C565 1.433 . S
C566 H575 0.933 . S
C567 Dy537 2.738 . S
C567 O547 1.255 . S
C567 O548 1.249 . S
C567 C561 1.516 . S
H568 C554 0.930 . S
H569 C555 0.931 . S
H570 C556 0.931 . S
H571 C557 0.933 . S
H572 C563 0.930 . S
H573 C564 0.931 . S
H574 C565 0.931 . S
H575 C566 0.933 . S
Dy576 O579 2.307 1_556 S
Dy576 O581 2.395 . S
Dy576 O582 2.379 . S
Dy576 O584 2.339 1_556 S
Dy576 O586 2.298 1_556 S
Dy576 O590 2.275 1_556 S
Dy576 C598 2.738 . S
Dy577 O580 2.298 . S
Dy577 O583 2.275 . S
Dy577 O585 2.307 . S
Dy577 O587 2.395 . S
Dy577 O588 2.379 1_545 S
Dy577 O591 2.339 1_545 S
Dy577 C607 2.738 . S
C578 O590 1.254 1_565 S
C578 O591 1.257 . S
O579 Dy576 2.307 1_554 S
O579 C589 1.266 . S
O580 Dy577 2.298 . S
O580 C589 1.236 . S
O581 Dy576 2.395 . S
O581 C598 1.255 . S
O582 Dy576 2.379 . S
O582 C598 1.249 . S
O583 Dy577 2.275 . S
O583 C599 1.254 . S
O584 Dy576 2.339 1_554 S
O584 C599 1.257 . S
O585 Dy577 2.307 . S
O585 C600 1.266 . S
O586 Dy576 2.298 1_554 S
O586 C600 1.236 . S
O587 Dy577 2.395 . S
O587 C607 1.255 . S
O588 Dy577 2.379 1_565 S
O588 C607 1.249 1_565 S
C589 O579 1.266 . S
C589 O580 1.236 . S
O590 Dy576 2.275 1_554 S
O590 C578 1.254 1_545 S
O591 Dy577 2.339 1_565 S
O591 C578 1.257 . S
C592 C595 1.344 . S
C592 C596 1.328 . S
C592 C598 1.516 . S
C593 C594 1.304 . S
C593 C597 1.323 . S
C594 C593 1.304 . S
C594 C595 1.371 . S
C594 H608 0.930 . S
C595 C592 1.344 . S
C595 C594 1.371 . S
C595 H609 0.931 . S
C596 C592 1.328 . S
C596 C597 1.433 . S
C596 H610 0.931 . S
C597 C593 1.323 . S
C597 C596 1.433 . S
C597 H611 0.933 . S
C598 Dy576 2.738 . S
C598 O581 1.255 . S
C598 O582 1.249 . S
C598 C592 1.516 . S
C599 O583 1.254 . S
C599 O584 1.257 . S
C600 O585 1.266 . S
C600 O586 1.236 . S
C601 C604 1.344 . S
C601 C605 1.328 1_545 S
C601 C607 1.516 . S
C602 C603 1.304 1_565 S
C602 C606 1.323 . S
C603 C602 1.304 1_545 S
C603 C604 1.371 . S
C603 H612 0.930 . S
C604 C601 1.344 . S
C604 C603 1.371 . S
C604 H613 0.931 . S
C605 C601 1.328 1_565 S
C605 C606 1.433 . S
C605 H614 0.931 . S
C606 C602 1.323 . S
C606 C605 1.433 . S
C606 H615 0.933 . S
C607 Dy577 2.738 . S
C607 O587 1.255 . S
C607 O588 1.249 1_545 S
C607 C601 1.516 . S
H608 C594 0.930 . S
H609 C595 0.931 . S
H610 C596 0.931 . S
H611 C597 0.933 . S
H612 C603 0.930 . S
H613 C604 0.931 . S
H614 C605 0.931 . S
H615 C606 0.933 . S
Dy616 O619 2.307 . S
Dy616 O621 2.395 . S
Dy616 O622 2.379 . S
Dy616 O624 2.339 . S
Dy616 O626 2.298 . S
Dy616 O630 2.275 . S
Dy616 C638 2.738 . S
Dy617 O620 2.298 . S
Dy617 O623 2.275 . S
Dy617 O625 2.307 . S
Dy617 O627 2.395 . S
Dy617 O628 2.379 . S
Dy617 O631 2.339 . S
Dy617 C647 2.738 . S
C618 O630 1.254 . S
C618 O631 1.257 . S
O619 Dy616 2.307 . S
O619 C629 1.266 . S
O620 Dy617 2.298 . S
O620 C629 1.236 . S
O621 Dy616 2.395 . S
O621 C638 1.255 . S
O622 Dy616 2.379 . S
O622 C638 1.249 . S
O623 Dy617 2.275 . S
O623 C639 1.254 . S
O624 Dy616 2.339 . S
O624 C639 1.257 . S
O625 Dy617 2.307 . S
O625 C640 1.266 . S
O626 Dy616 2.298 . S
O626 C640 1.236 . S
O627 Dy617 2.395 . S
O627 C647 1.255 . S
O628 Dy617 2.379 . S
O628 C647 1.249 . S
C629 O619 1.266 . S
C629 O620 1.236 . S
O630 Dy616 2.275 . S
O630 C618 1.254 . S
O631 Dy617 2.339 . S
O631 C618 1.257 . S
C632 C635 1.344 . S
C632 C636 1.328 . S
C632 C638 1.516 . S
C633 C634 1.304 . S
C633 C637 1.323 . S
C634 C633 1.304 . S
C634 C635 1.371 . S
C634 H648 0.930 . S
C635 C632 1.344 . S
C635 C634 1.371 . S
C635 H649 0.931 . S
C636 C632 1.328 . S
C636 C637 1.433 . S
C636 H650 0.931 . S
C637 C633 1.323 . S
C637 C636 1.433 . S
C637 H651 0.933 . S
C638 Dy616 2.738 . S
C638 O621 1.255 . S
C638 O622 1.249 . S
C638 C632 1.516 . S
C639 O623 1.254 . S
C639 O624 1.257 . S
C640 O625 1.266 . S
C640 O626 1.236 . S
C641 C644 1.344 . S
C641 C645 1.328 . S
C641 C647 1.516 . S
C642 C643 1.304 . S
C642 C646 1.323 . S
C643 C642 1.304 . S
C643 C644 1.371 . S
C643 H652 0.930 . S
C644 C641 1.344 . S
C644 C643 1.371 . S
C644 H653 0.931 . S
C645 C641 1.328 . S
C645 C646 1.433 . S
C645 H654 0.931 . S
C646 C642 1.323 . S
C646 C645 1.433 . S
C646 H655 0.933 . S
C647 Dy617 2.738 . S
C647 O627 1.255 . S
C647 O628 1.249 . S
C647 C641 1.516 . S
H648 C634 0.930 . S
H649 C635 0.931 . S
H650 C636 0.931 . S
H651 C637 0.933 . S
H652 C643 0.930 . S
H653 C644 0.931 . S
H654 C645 0.931 . S
H655 C646 0.933 . S
Dy656 O659 2.307 1_554 S
Dy656 O661 2.395 . S
Dy656 O662 2.379 . S
Dy656 O664 2.339 . S
Dy656 O666 2.298 . S
Dy656 O670 2.275 . S
Dy656 C678 2.738 . S
Dy657 O660 2.298 1_554 S
Dy657 O663 2.275 . S
Dy657 O665 2.307 . S
Dy657 O667 2.395 . S
Dy657 O668 2.379 . S
Dy657 O671 2.339 . S
Dy657 C687 2.738 . S
C658 O670 1.254 . S
C658 O671 1.257 . S
O659 Dy656 2.307 1_556 S
O659 C669 1.266 . S
O660 Dy657 2.298 1_556 S
O660 C669 1.236 . S
O661 Dy656 2.395 . S
O661 C678 1.255 . S
O662 Dy656 2.379 . S
O662 C678 1.249 . S
O663 Dy657 2.275 . S
O663 C679 1.254 . S
O664 Dy656 2.339 . S
O664 C679 1.257 . S
O665 Dy657 2.307 . S
O665 C680 1.266 . S
O666 Dy656 2.298 . S
O666 C680 1.236 . S
O667 Dy657 2.395 . S
O667 C687 1.255 . S
O668 Dy657 2.379 . S
O668 C687 1.249 . S
C669 O659 1.266 . S
C669 O660 1.236 . S
O670 Dy656 2.275 . S
O670 C658 1.254 . S
O671 Dy657 2.339 . S
O671 C658 1.257 . S
C672 C675 1.344 . S
C672 C676 1.328 . S
C672 C678 1.516 . S
C673 C674 1.304 . S
C673 C677 1.323 . S
C674 C673 1.304 . S
C674 C675 1.371 . S
C674 H688 0.930 . S
C675 C672 1.344 . S
C675 C674 1.371 . S
C675 H689 0.931 . S
C676 C672 1.328 . S
C676 C677 1.433 . S
C676 H690 0.931 . S
C677 C673 1.323 . S
C677 C676 1.433 . S
C677 H691 0.933 . S
C678 Dy656 2.738 . S
C678 O661 1.255 . S
C678 O662 1.249 . S
C678 C672 1.516 . S
C679 O663 1.254 . S
C679 O664 1.257 . S
C680 O665 1.266 . S
C680 O666 1.236 . S
C681 C684 1.344 . S
C681 C685 1.328 . S
C681 C687 1.516 1_556 S
C682 C683 1.304 . S
C682 C686 1.323 . S
C683 C682 1.304 . S
C683 C684 1.371 . S
C683 H692 0.930 . S
C684 C681 1.344 . S
C684 C683 1.371 . S
C684 H693 0.931 . S
C685 C681 1.328 . S
C685 C686 1.433 . S
C685 H694 0.931 1_556 S
C686 C682 1.323 . S
C686 C685 1.433 . S
C686 H695 0.933 . S
C687 Dy657 2.738 . S
C687 O667 1.255 . S
C687 O668 1.249 . S
C687 C681 1.516 1_554 S
H688 C674 0.930 . S
H689 C675 0.931 . S
H690 C676 0.931 . S
H691 C677 0.933 . S
H692 C683 0.930 . S
H693 C684 0.931 . S
H694 C685 0.931 1_554 S
H695 C686 0.933 . S
Dy696 O699 2.307 . S
Dy696 O701 2.395 . S
Dy696 O702 2.379 . S
Dy696 O704 2.339 . S
Dy696 O706 2.298 . S
Dy696 O710 2.275 . S
Dy696 C718 2.738 . S
Dy697 O700 2.298 . S
Dy697 O703 2.275 . S
Dy697 O705 2.307 . S
Dy697 O707 2.395 . S
Dy697 O708 2.379 . S
Dy697 O711 2.339 . S
Dy697 C727 2.738 . S
C698 O710 1.254 . S
C698 O711 1.257 . S
O699 Dy696 2.307 . S
O699 C709 1.266 . S
O700 Dy697 2.298 . S
O700 C709 1.236 . S
O701 Dy696 2.395 . S
O701 C718 1.255 . S
O702 Dy696 2.379 . S
O702 C718 1.249 . S
O703 Dy697 2.275 . S
O703 C719 1.254 . S
O704 Dy696 2.339 . S
O704 C719 1.257 . S
O705 Dy697 2.307 . S
O705 C720 1.266 . S
O706 Dy696 2.298 . S
O706 C720 1.236 . S
O707 Dy697 2.395 . S
O707 C727 1.255 . S
O708 Dy697 2.379 . S
O708 C727 1.249 . S
C709 O699 1.266 . S
C709 O700 1.236 . S
O710 Dy696 2.275 . S
O710 C698 1.254 . S
O711 Dy697 2.339 . S
O711 C698 1.257 . S
C712 C715 1.344 . S
C712 C716 1.328 . S
C712 C718 1.516 . S
C713 C714 1.304 . S
C713 C717 1.323 . S
C714 C713 1.304 . S
C714 C715 1.371 . S
C714 H728 0.930 . S
C715 C712 1.344 . S
C715 C714 1.371 . S
C715 H729 0.931 . S
C716 C712 1.328 . S
C716 C717 1.433 . S
C716 H730 0.931 . S
C717 C713 1.323 . S
C717 C716 1.433 . S
C717 H731 0.933 . S
C718 Dy696 2.738 . S
C718 O701 1.255 . S
C718 O702 1.249 . S
C718 C712 1.516 . S
C719 O703 1.254 . S
C719 O704 1.257 . S
C720 O705 1.266 . S
C720 O706 1.236 . S
C721 C724 1.344 . S
C721 C725 1.328 . S
C721 C727 1.516 . S
C722 C723 1.304 . S
C722 C726 1.323 . S
C723 C722 1.304 . S
C723 C724 1.371 . S
C723 H732 0.930 . S
C724 C721 1.344 . S
C724 C723 1.371 . S
C724 H733 0.931 . S
C725 C721 1.328 . S
C725 C726 1.433 . S
C725 H734 0.931 . S
C726 C722 1.323 . S
C726 C725 1.433 . S
C726 H735 0.933 . S
C727 Dy697 2.738 . S
C727 O707 1.255 . S
C727 O708 1.249 . S
C727 C721 1.516 . S
H728 C714 0.930 . S
H729 C715 0.931 . S
H730 C716 0.931 . S
H731 C717 0.933 . S
H732 C723 0.930 . S
H733 C724 0.931 . S
H734 C725 0.931 . S
H735 C726 0.933 . S
Dy736 O739 2.307 1_455 S
Dy736 O741 2.395 . S
Dy736 O742 2.379 . S
Dy736 O744 2.339 . S
Dy736 O746 2.298 . S
Dy736 O750 2.275 . S
Dy736 C758 2.738 . S
Dy737 O740 2.298 1_455 S
Dy737 O743 2.275 . S
Dy737 O745 2.307 . S
Dy737 O747 2.395 . S
Dy737 O748 2.379 . S
Dy737 O751 2.339 . S
Dy737 C767 2.738 . S
C738 O750 1.254 . S
C738 O751 1.257 . S
O739 Dy736 2.307 1_655 S
O739 C749 1.266 . S
O740 Dy737 2.298 1_655 S
O740 C749 1.236 . S
O741 Dy736 2.395 . S
O741 C758 1.255 . S
O742 Dy736 2.379 . S
O742 C758 1.249 . S
O743 Dy737 2.275 . S
O743 C759 1.254 . S
O744 Dy736 2.339 . S
O744 C759 1.257 . S
O745 Dy737 2.307 . S
O745 C760 1.266 . S
O746 Dy736 2.298 . S
O746 C760 1.236 . S
O747 Dy737 2.395 . S
O747 C767 1.255 . S
O748 Dy737 2.379 . S
O748 C767 1.249 . S
C749 O739 1.266 . S
C749 O740 1.236 . S
O750 Dy736 2.275 . S
O750 C738 1.254 . S
O751 Dy737 2.339 . S
O751 C738 1.257 . S
C752 C755 1.344 . S
C752 C756 1.328 . S
C752 C758 1.516 . S
C753 C754 1.304 . S
C753 C757 1.323 . S
C754 C753 1.304 . S
C754 C755 1.371 . S
C754 H768 0.930 . S
C755 C752 1.344 . S
C755 C754 1.371 . S
C755 H769 0.931 . S
C756 C752 1.328 . S
C756 C757 1.433 . S
C756 H770 0.931 . S
C757 C753 1.323 . S
C757 C756 1.433 . S
C757 H771 0.933 . S
C758 Dy736 2.738 . S
C758 O741 1.255 . S
C758 O742 1.249 . S
C758 C752 1.516 . S
C759 O743 1.254 . S
C759 O744 1.257 . S
C760 O745 1.266 . S
C760 O746 1.236 . S
C761 C764 1.344 . S
C761 C765 1.328 . S
C761 C767 1.516 1_655 S
C762 C763 1.304 . S
C762 C766 1.323 . S
C763 C762 1.304 . S
C763 C764 1.371 . S
C763 H772 0.930 . S
C764 C761 1.344 . S
C764 C763 1.371 . S
C764 H773 0.931 . S
C765 C761 1.328 . S
C765 C766 1.433 . S
C765 H774 0.931 . S
C766 C762 1.323 . S
C766 C765 1.433 . S
C766 H775 0.933 . S
C767 Dy737 2.738 . S
C767 O747 1.255 . S
C767 O748 1.249 . S
C767 C761 1.516 1_455 S
H768 C754 0.930 . S
H769 C755 0.931 . S
H770 C756 0.931 . S
H771 C757 0.933 . S
H772 C763 0.930 . S
H773 C764 0.931 . S
H774 C765 0.931 . S
H775 C766 0.933 . S
Dy776 O779 2.307 . S
Dy776 O781 2.395 . S
Dy776 O782 2.379 . S
Dy776 O784 2.339 . S
Dy776 O786 2.298 . S
Dy776 O790 2.275 . S
Dy776 C798 2.738 . S
Dy777 O780 2.298 . S
Dy777 O783 2.275 . S
Dy777 O785 2.307 . S
Dy777 O787 2.395 . S
Dy777 O788 2.379 . S
Dy777 O791 2.339 . S
Dy777 C807 2.738 . S
C778 O790 1.254 . S
C778 O791 1.257 . S
O779 Dy776 2.307 . S
O779 C789 1.266 . S
O780 Dy777 2.298 . S
O780 C789 1.236 . S
O781 Dy776 2.395 . S
O781 C798 1.255 . S
O782 Dy776 2.379 . S
O782 C798 1.249 . S
O783 Dy777 2.275 . S
O783 C799 1.254 . S
O784 Dy776 2.339 . S
O784 C799 1.257 . S
O785 Dy777 2.307 . S
O785 C800 1.266 . S
O786 Dy776 2.298 . S
O786 C800 1.236 . S
O787 Dy777 2.395 . S
O787 C807 1.255 . S
O788 Dy777 2.379 . S
O788 C807 1.249 . S
C789 O779 1.266 . S
C789 O780 1.236 . S
O790 Dy776 2.275 . S
O790 C778 1.254 . S
O791 Dy777 2.339 . S
O791 C778 1.257 . S
C792 C795 1.344 . S
C792 C796 1.328 . S
C792 C798 1.516 . S
C793 C794 1.304 . S
C793 C797 1.323 . S
C794 C793 1.304 . S
C794 C795 1.371 . S
C794 H808 0.930 . S
C795 C792 1.344 . S
C795 C794 1.371 . S
C795 H809 0.931 . S
C796 C792 1.328 . S
C796 C797 1.433 . S
C796 H810 0.931 . S
C797 C793 1.323 . S
C797 C796 1.433 . S
C797 H811 0.933 . S
C798 Dy776 2.738 . S
C798 O781 1.255 . S
C798 O782 1.249 . S
C798 C792 1.516 . S
C799 O783 1.254 . S
C799 O784 1.257 . S
C800 O785 1.266 . S
C800 O786 1.236 . S
C801 C804 1.344 . S
C801 C805 1.328 . S
C801 C807 1.516 . S
C802 C803 1.304 . S
C802 C806 1.323 . S
C803 C802 1.304 . S
C803 C804 1.371 . S
C803 H812 0.930 . S
C804 C801 1.344 . S
C804 C803 1.371 . S
C804 H813 0.931 . S
C805 C801 1.328 . S
C805 C806 1.433 . S
C805 H814 0.931 . S
C806 C802 1.323 . S
C806 C805 1.433 . S
C806 H815 0.933 . S
C807 Dy777 2.738 . S
C807 O787 1.255 . S
C807 O788 1.249 . S
C807 C801 1.516 . S
H808 C794 0.930 . S
H809 C795 0.931 . S
H810 C796 0.931 . S
H811 C797 0.933 . S
H812 C803 0.930 . S
H813 C804 0.931 . S
H814 C805 0.931 . S
H815 C806 0.933 . S
Dy816 O819 2.307 . S
Dy816 O821 2.395 . S
Dy816 O822 2.379 . S
Dy816 O824 2.339 . S
Dy816 O826 2.298 . S
Dy816 O830 2.275 . S
Dy816 C838 2.738 . S
Dy817 O820 2.298 . S
Dy817 O823 2.275 . S
Dy817 O825 2.307 . S
Dy817 O827 2.395 . S
Dy817 O828 2.379 . S
Dy817 O831 2.339 . S
Dy817 C847 2.738 . S
C818 O830 1.254 . S
C818 O831 1.257 . S
O819 Dy816 2.307 . S
O819 C829 1.266 . S
O820 Dy817 2.298 . S
O820 C829 1.236 . S
O821 Dy816 2.395 . S
O821 C838 1.255 . S
O822 Dy816 2.379 . S
O822 C838 1.249 . S
O823 Dy817 2.275 . S
O823 C839 1.254 . S
O824 Dy816 2.339 . S
O824 C839 1.257 . S
O825 Dy817 2.307 . S
O825 C840 1.266 . S
O826 Dy816 2.298 . S
O826 C840 1.236 . S
O827 Dy817 2.395 . S
O827 C847 1.255 . S
O828 Dy817 2.379 . S
O828 C847 1.249 . S
C829 O819 1.266 . S
C829 O820 1.236 . S
O830 Dy816 2.275 . S
O830 C818 1.254 . S
O831 Dy817 2.339 . S
O831 C818 1.257 . S
C832 C835 1.344 . S
C832 C836 1.328 . S
C832 C838 1.516 . S
C833 C834 1.304 . S
C833 C837 1.323 . S
C834 C833 1.304 . S
C834 C835 1.371 . S
C834 H848 0.930 . S
C835 C832 1.344 . S
C835 C834 1.371 . S
C835 H849 0.931 . S
C836 C832 1.328 . S
C836 C837 1.433 . S
C836 H850 0.931 . S
C837 C833 1.323 . S
C837 C836 1.433 . S
C837 H851 0.933 . S
C838 Dy816 2.738 . S
C838 O821 1.255 . S
C838 O822 1.249 . S
C838 C832 1.516 . S
C839 O823 1.254 . S
C839 O824 1.257 . S
C840 O825 1.266 . S
C840 O826 1.236 . S
C841 C844 1.344 . S
C841 C845 1.328 . S
C841 C847 1.516 . S
C842 C843 1.304 . S
C842 C846 1.323 . S
C843 C842 1.304 . S
C843 C844 1.371 . S
C843 H852 0.930 . S
C844 C841 1.344 . S
C844 C843 1.371 . S
C844 H853 0.931 . S
C845 C841 1.328 . S
C845 C846 1.433 . S
C845 H854 0.931 . S
C846 C842 1.323 . S
C846 C845 1.433 . S
C846 H855 0.933 . S
C847 Dy817 2.738 . S
C847 O827 1.255 . S
C847 O828 1.249 . S
C847 C841 1.516 . S
H848 C834 0.930 . S
H849 C835 0.931 . S
H850 C836 0.931 . S
H851 C837 0.933 . S
H852 C843 0.930 . S
H853 C844 0.931 . S
H854 C845 0.931 . S
H855 C846 0.933 . S
Dy856 O859 2.307 . S
Dy856 O861 2.395 . S
Dy856 O862 2.379 . S
Dy856 O864 2.339 . S
Dy856 O866 2.298 . S
Dy856 O870 2.275 . S
Dy856 C878 2.738 . S
Dy857 O860 2.298 . S
Dy857 O863 2.275 . S
Dy857 O865 2.307 . S
Dy857 O867 2.395 . S
Dy857 O868 2.379 . S
Dy857 O871 2.339 . S
Dy857 C887 2.738 . S
C858 O870 1.254 . S
C858 O871 1.257 . S
O859 Dy856 2.307 . S
O859 C869 1.266 . S
O860 Dy857 2.298 . S
O860 C869 1.236 . S
O861 Dy856 2.395 . S
O861 C878 1.255 . S
O862 Dy856 2.379 . S
O862 C878 1.249 . S
O863 Dy857 2.275 . S
O863 C879 1.254 . S
O864 Dy856 2.339 . S
O864 C879 1.257 . S
O865 Dy857 2.307 . S
O865 C880 1.266 . S
O866 Dy856 2.298 . S
O866 C880 1.236 . S
O867 Dy857 2.395 . S
O867 C887 1.255 . S
O868 Dy857 2.379 . S
O868 C887 1.249 . S
C869 O859 1.266 . S
C869 O860 1.236 . S
O870 Dy856 2.275 . S
O870 C858 1.254 . S
O871 Dy857 2.339 . S
O871 C858 1.257 . S
C872 C875 1.344 . S
C872 C876 1.328 . S
C872 C878 1.516 . S
C873 C874 1.304 . S
C873 C877 1.323 . S
C874 C873 1.304 . S
C874 C875 1.371 . S
C874 H888 0.930 . S
C875 C872 1.344 . S
C875 C874 1.371 . S
C875 H889 0.931 . S
C876 C872 1.328 . S
C876 C877 1.433 . S
C876 H890 0.931 . S
C877 C873 1.323 . S
C877 C876 1.433 . S
C877 H891 0.933 . S
C878 Dy856 2.738 . S
C878 O861 1.255 . S
C878 O862 1.249 . S
C878 C872 1.516 . S
C879 O863 1.254 . S
C879 O864 1.257 . S
C880 O865 1.266 . S
C880 O866 1.236 . S
C881 C884 1.344 . S
C881 C885 1.328 . S
C881 C887 1.516 . S
C882 C883 1.304 . S
C882 C886 1.323 . S
C883 C882 1.304 . S
C883 C884 1.371 . S
C883 H892 0.930 . S
C884 C881 1.344 . S
C884 C883 1.371 . S
C884 H893 0.931 . S
C885 C881 1.328 . S
C885 C886 1.433 . S
C885 H894 0.931 . S
C886 C882 1.323 . S
C886 C885 1.433 . S
C886 H895 0.933 . S
C887 Dy857 2.738 . S
C887 O867 1.255 . S
C887 O868 1.249 . S
C887 C881 1.516 . S
H888 C874 0.930 . S
H889 C875 0.931 . S
H890 C876 0.931 . S
H891 C877 0.933 . S
H892 C883 0.930 . S
H893 C884 0.931 . S
H894 C885 0.931 . S
H895 C886 0.933 . S
Dy896 O899 2.307 . S
Dy896 O901 2.395 . S
Dy896 O902 2.379 . S
Dy896 O904 2.339 . S
Dy896 O906 2.298 . S
Dy896 O910 2.275 . S
Dy896 C918 2.738 . S
Dy897 O900 2.298 . S
Dy897 O903 2.275 . S
Dy897 O905 2.307 . S
Dy897 O907 2.395 . S
Dy897 O908 2.379 . S
Dy897 O911 2.339 . S
Dy897 C927 2.738 . S
C898 O910 1.254 . S
C898 O911 1.257 . S
O899 Dy896 2.307 . S
O899 C909 1.266 . S
O900 Dy897 2.298 . S
O900 C909 1.236 . S
O901 Dy896 2.395 . S
O901 C918 1.255 . S
O902 Dy896 2.379 . S
O902 C918 1.249 . S
O903 Dy897 2.275 . S
O903 C919 1.254 . S
O904 Dy896 2.339 . S
O904 C919 1.257 . S
O905 Dy897 2.307 . S
O905 C920 1.266 . S
O906 Dy896 2.298 . S
O906 C920 1.236 . S
O907 Dy897 2.395 . S
O907 C927 1.255 . S
O908 Dy897 2.379 . S
O908 C927 1.249 . S
C909 O899 1.266 . S
C909 O900 1.236 . S
O910 Dy896 2.275 . S
O910 C898 1.254 . S
O911 Dy897 2.339 . S
O911 C898 1.257 . S
C912 C915 1.344 . S
C912 C916 1.328 . S
C912 C918 1.516 . S
C913 C914 1.304 . S
C913 C917 1.323 . S
C914 C913 1.304 . S
C914 C915 1.371 . S
C914 H928 0.930 . S
C915 C912 1.344 . S
C915 C914 1.371 . S
C915 H929 0.931 . S
C916 C912 1.328 . S
C916 C917 1.433 . S
C916 H930 0.931 . S
C917 C913 1.323 . S
C917 C916 1.433 . S
C917 H931 0.933 . S
C918 Dy896 2.738 . S
C918 O901 1.255 . S
C918 O902 1.249 . S
C918 C912 1.516 . S
C919 O903 1.254 . S
C919 O904 1.257 . S
C920 O905 1.266 . S
C920 O906 1.236 . S
C921 C924 1.344 . S
C921 C925 1.328 . S
C921 C927 1.516 . S
C922 C923 1.304 . S
C922 C926 1.323 . S
C923 C922 1.304 . S
C923 C924 1.371 . S
C923 H932 0.930 . S
C924 C921 1.344 . S
C924 C923 1.371 . S
C924 H933 0.931 . S
C925 C921 1.328 . S
C925 C926 1.433 . S
C925 H934 0.931 . S
C926 C922 1.323 . S
C926 C925 1.433 . S
C926 H935 0.933 . S
C927 Dy897 2.738 . S
C927 O907 1.255 . S
C927 O908 1.249 . S
C927 C921 1.516 . S
H928 C914 0.930 . S
H929 C915 0.931 . S
H930 C916 0.931 . S
H931 C917 0.933 . S
H932 C923 0.930 . S
H933 C924 0.931 . S
H934 C925 0.931 . S
H935 C926 0.933 . S
Dy936 O939 2.307 1_655 S
Dy936 O941 2.395 . S
Dy936 O942 2.379 . S
Dy936 O944 2.339 1_655 S
Dy936 O946 2.298 1_655 S
Dy936 O950 2.275 1_655 S
Dy936 C958 2.738 . S
Dy937 O940 2.298 . S
Dy937 O943 2.275 . S
Dy937 O945 2.307 . S
Dy937 O947 2.395 . S
Dy937 O948 2.379 1_554 S
Dy937 O951 2.339 1_554 S
Dy937 C967 2.738 . S
C938 O950 1.254 1_556 S
C938 O951 1.257 . S
O939 Dy936 2.307 1_455 S
O939 C949 1.266 . S
O940 Dy937 2.298 . S
O940 C949 1.236 . S
O941 Dy936 2.395 . S
O941 C958 1.255 . S
O942 Dy936 2.379 . S
O942 C958 1.249 . S
O943 Dy937 2.275 . S
O943 C959 1.254 . S
O944 Dy936 2.339 1_455 S
O944 C959 1.257 . S
O945 Dy937 2.307 . S
O945 C960 1.266 . S
O946 Dy936 2.298 1_455 S
O946 C960 1.236 . S
O947 Dy937 2.395 . S
O947 C967 1.255 . S
O948 Dy937 2.379 1_556 S
O948 C967 1.249 1_556 S
C949 O939 1.266 . S
C949 O940 1.236 . S
O950 Dy936 2.275 1_455 S
O950 C938 1.254 1_554 S
O951 Dy937 2.339 1_556 S
O951 C938 1.257 . S
C952 C955 1.344 . S
C952 C956 1.328 . S
C952 C958 1.516 . S
C953 C954 1.304 . S
C953 C957 1.323 . S
C954 C953 1.304 . S
C954 C955 1.371 . S
C954 H968 0.930 . S
C955 C952 1.344 . S
C955 C954 1.371 . S
C955 H969 0.931 . S
C956 C952 1.328 . S
C956 C957 1.433 . S
C956 H970 0.931 . S
C957 C953 1.323 . S
C957 C956 1.433 . S
C957 H971 0.933 . S
C958 Dy936 2.738 . S
C958 O941 1.255 . S
C958 O942 1.249 . S
C958 C952 1.516 . S
C959 O943 1.254 . S
C959 O944 1.257 . S
C960 O945 1.266 . S
C960 O946 1.236 . S
C961 C964 1.344 . S
C961 C965 1.328 1_554 S
C961 C967 1.516 . S
C962 C963 1.304 1_556 S
C962 C966 1.323 . S
C963 C962 1.304 1_554 S
C963 C964 1.371 . S
C963 H972 0.930 . S
C964 C961 1.344 . S
C964 C963 1.371 . S
C964 H973 0.931 . S
C965 C961 1.328 1_556 S
C965 C966 1.433 . S
C965 H974 0.931 . S
C966 C962 1.323 . S
C966 C965 1.433 . S
C966 H975 0.933 . S
C967 Dy937 2.738 . S
C967 O947 1.255 . S
C967 O948 1.249 1_554 S
C967 C961 1.516 . S
H968 C954 0.930 . S
H969 C955 0.931 . S
H970 C956 0.931 . S
H971 C957 0.933 . S
H972 C963 0.930 . S
H973 C964 0.931 . S
H974 C965 0.931 . S
H975 C966 0.933 . S
H976 C982 0.930 . S
H977 C986 0.930 . S
H978 C991 0.929 . S
H979 C989 0.932 . S
H980 C984 0.929 . S
H981 C990 0.929 . S
C982 H976 0.930 . S
C982 C983 1.367 1_455 S
C982 C990 1.378 . S
C983 C982 1.367 1_655 S
C983 C991 1.433 1_556 S
C984 H980 0.929 . S
C984 C986 1.378 . S
C984 C988 1.350 . S
C985 C988 1.463 . S
C985 C990 1.350 1_554 S
C985 N993 1.427 1_455 S
C986 H977 0.930 . S
C986 C984 1.378 . S
C986 C987 1.367 . S
C987 C986 1.367 . S
C987 C989 1.429 1_554 S
C988 C984 1.350 . S
C988 C985 1.463 . S
C988 N992 1.427 1_554 S
C989 H979 0.932 . S
C989 C987 1.429 1_556 S
C989 N992 1.385 . S
C990 H981 0.929 . S
C990 C982 1.378 . S
C990 C985 1.350 1_556 S
C991 H978 0.929 . S
C991 C983 1.433 1_554 S
C991 N993 1.384 . S
N992 C988 1.427 1_556 S
N992 C989 1.385 . S
N993 C985 1.427 1_655 S
N993 C991 1.384 . S
H994 C1000 0.930 . S
H995 C1004 0.930 . S
H996 C1009 0.929 . S
H997 C1007 0.929 . S
H998 C1002 0.929 . S
H999 C1008 0.929 . S
C1000 H994 0.930 . S
C1000 C1001 1.367 . S
C1000 C1008 1.378 . S
C1001 C1000 1.367 . S
C1001 C1009 1.433 . S
C1002 H998 0.929 . S
C1002 C1004 1.378 . S
C1002 C1006 1.350 . S
C1003 C1006 1.463 . S
C1003 C1008 1.350 . S
C1003 N1011 1.427 . S
C1004 H995 0.930 . S
C1004 C1002 1.378 . S
C1004 C1005 1.367 . S
C1005 C1004 1.367 . S
C1005 C1007 1.433 . S
C1006 C1002 1.350 . S
C1006 C1003 1.463 . S
C1006 N1010 1.427 . S
C1007 H997 0.929 . S
C1007 C1005 1.433 . S
C1007 N1010 1.384 . S
C1008 H999 0.929 . S
C1008 C1000 1.378 . S
C1008 C1003 1.350 . S
C1009 H996 0.929 . S
C1009 C1001 1.433 . S
C1009 N1011 1.384 . S
N1010 C1006 1.427 . S
N1010 C1007 1.384 . S
N1011 C1003 1.427 . S
N1011 C1009 1.384 . S
H1012 C1018 0.930 . S
H1013 C1022 0.930 . S
H1014 C1027 0.929 . S
H1015 C1025 0.929 . S
H1016 C1020 0.929 . S
H1017 C1026 0.929 . S
C1018 H1012 0.930 . S
C1018 C1019 1.367 . S
C1018 C1026 1.378 . S
C1019 C1018 1.367 . S
C1019 C1027 1.433 . S
C1020 H1016 0.929 . S
C1020 C1022 1.378 . S
C1020 C1024 1.350 . S
C1021 C1024 1.463 . S
C1021 C1026 1.350 . S
C1021 N1029 1.427 . S
C1022 H1013 0.930 . S
C1022 C1020 1.378 . S
C1022 C1023 1.367 . S
C1023 C1022 1.367 . S
C1023 C1025 1.433 . S
C1024 C1020 1.350 . S
C1024 C1021 1.463 . S
C1024 N1028 1.427 . S
C1025 H1015 0.929 . S
C1025 C1023 1.433 . S
C1025 N1028 1.384 . S
C1026 H1017 0.929 . S
C1026 C1018 1.378 . S
C1026 C1021 1.350 . S
C1027 H1014 0.929 . S
C1027 C1019 1.433 . S
C1027 N1029 1.384 . S
N1028 C1024 1.427 . S
N1028 C1025 1.384 . S
N1029 C1021 1.427 . S
N1029 C1027 1.384 . S
H1030 C1036 0.930 . S
H1031 C1040 0.930 . S
H1032 C1045 0.929 . S
H1033 C1043 0.929 . S
H1034 C1038 0.929 . S
H1035 C1044 0.929 . S
C1036 H1030 0.930 . S
C1036 C1037 1.367 . S
C1036 C1044 1.378 . S
C1037 C1036 1.367 . S
C1037 C1045 1.433 . S
C1038 H1034 0.929 . S
C1038 C1040 1.378 . S
C1038 C1042 1.350 . S
C1039 C1042 1.463 . S
C1039 C1044 1.350 . S
C1039 N1047 1.427 . S
C1040 H1031 0.930 . S
C1040 C1038 1.378 . S
C1040 C1041 1.367 . S
C1041 C1040 1.367 . S
C1041 C1043 1.433 . S
C1042 C1038 1.350 . S
C1042 C1039 1.463 . S
C1042 N1046 1.427 . S
C1043 H1033 0.929 . S
C1043 C1041 1.433 . S
C1043 N1046 1.384 . S
C1044 H1035 0.929 . S
C1044 C1036 1.378 . S
C1044 C1039 1.350 . S
C1045 H1032 0.929 . S
C1045 C1037 1.433 . S
C1045 N1047 1.384 . S
N1046 C1042 1.427 . S
N1046 C1043 1.384 . S
N1047 C1039 1.427 . S
N1047 C1045 1.384 . S
H1048 C1054 0.930 . S
H1049 C1058 0.930 . S
H1050 C1063 0.929 . S
H1051 C1061 0.929 . S
H1052 C1056 0.929 . S
H1053 C1062 0.929 . S
C1054 H1048 0.930 . S
C1054 C1055 1.367 . S
C1054 C1062 1.378 . S
C1055 C1054 1.367 . S
C1055 C1063 1.433 . S
C1056 H1052 0.929 . S
C1056 C1058 1.378 . S
C1056 C1060 1.350 . S
C1057 C1060 1.463 . S
C1057 C1062 1.350 . S
C1057 N1065 1.427 . S
C1058 H1049 0.930 . S
C1058 C1056 1.378 . S
C1058 C1059 1.367 . S
C1059 C1058 1.367 . S
C1059 C1061 1.433 . S
C1060 C1056 1.350 . S
C1060 C1057 1.463 . S
C1060 N1064 1.427 . S
C1061 H1051 0.929 . S
C1061 C1059 1.433 . S
C1061 N1064 1.384 . S
C1062 H1053 0.929 . S
C1062 C1054 1.378 . S
C1062 C1057 1.350 . S
C1063 H1050 0.929 . S
C1063 C1055 1.433 . S
C1063 N1065 1.384 . S
N1064 C1060 1.427 . S
N1064 C1061 1.384 . S
N1065 C1057 1.427 . S
N1065 C1063 1.384 . S
H1066 C1072 0.930 . S
H1067 C1076 0.930 . S
H1068 C1081 0.929 . S
H1069 C1079 0.929 . S
H1070 C1074 0.929 . S
H1071 C1080 0.929 . S
C1072 H1066 0.930 . S
C1072 C1073 1.367 . S
C1072 C1080 1.378 . S
C1073 C1072 1.367 . S
C1073 C1081 1.433 . S
C1074 H1070 0.929 . S
C1074 C1076 1.378 . S
C1074 C1078 1.350 . S
C1075 C1078 1.463 . S
C1075 C1080 1.350 . S
C1075 N1083 1.427 . S
C1076 H1067 0.930 . S
C1076 C1074 1.378 . S
C1076 C1077 1.367 . S
C1077 C1076 1.367 . S
C1077 C1079 1.433 . S
C1078 C1074 1.350 . S
C1078 C1075 1.463 . S
C1078 N1082 1.427 . S
C1079 H1069 0.929 . S
C1079 C1077 1.433 . S
C1079 N1082 1.384 . S
C1080 H1071 0.929 . S
C1080 C1072 1.378 . S
C1080 C1075 1.350 . S
C1081 H1068 0.929 . S
C1081 C1073 1.433 . S
C1081 N1083 1.384 . S
N1082 C1078 1.427 . S
N1082 C1079 1.384 . S
N1083 C1075 1.427 . S
N1083 C1081 1.384 . S
H1084 C1090 0.930 . S
H1085 C1094 0.930 . S
H1086 C1099 0.929 . S
H1087 C1097 0.929 . S
H1088 C1092 0.929 . S
H1089 C1098 0.929 . S
C1090 H1084 0.930 . S
C1090 C1091 1.367 . S
C1090 C1098 1.378 . S
C1091 C1090 1.367 . S
C1091 C1099 1.433 . S
C1092 H1088 0.929 . S
C1092 C1094 1.378 . S
C1092 C1096 1.350 . S
C1093 C1096 1.463 . S
C1093 C1098 1.350 . S
C1093 N1101 1.427 . S
C1094 H1085 0.930 . S
C1094 C1092 1.378 . S
C1094 C1095 1.367 . S
C1095 C1094 1.367 . S
C1095 C1097 1.433 . S
C1096 C1092 1.350 . S
C1096 C1093 1.463 . S
C1096 N1100 1.427 . S
C1097 H1087 0.929 . S
C1097 C1095 1.433 . S
C1097 N1100 1.384 . S
C1098 H1089 0.929 . S
C1098 C1090 1.378 . S
C1098 C1093 1.350 . S
C1099 H1086 0.929 . S
C1099 C1091 1.433 . S
C1099 N1101 1.384 . S
N1100 C1096 1.427 . S
N1100 C1097 1.384 . S
N1101 C1093 1.427 . S
N1101 C1099 1.384 . S
H1102 C1108 0.930 . S
H1103 C1112 0.930 . S
H1104 C1117 0.929 . S
H1105 C1115 0.929 . S
H1106 C1110 0.929 . S
H1107 C1116 0.929 . S
C1108 H1102 0.930 . S
C1108 C1109 1.367 . S
C1108 C1116 1.378 . S
C1109 C1108 1.367 . S
C1109 C1117 1.433 . S
C1110 H1106 0.929 . S
C1110 C1112 1.378 . S
C1110 C1114 1.350 . S
C1111 C1114 1.463 . S
C1111 C1116 1.350 . S
C1111 N1119 1.427 . S
C1112 H1103 0.930 . S
C1112 C1110 1.378 . S
C1112 C1113 1.367 . S
C1113 C1112 1.367 . S
C1113 C1115 1.433 . S
C1114 C1110 1.350 . S
C1114 C1111 1.463 . S
C1114 N1118 1.427 . S
C1115 H1105 0.929 . S
C1115 C1113 1.433 . S
C1115 N1118 1.384 . S
C1116 H1107 0.929 . S
C1116 C1108 1.378 . S
C1116 C1111 1.350 . S
C1117 H1104 0.929 . S
C1117 C1109 1.433 . S
C1117 N1119 1.384 . S
N1118 C1114 1.427 . S
N1118 C1115 1.384 . S
N1119 C1111 1.427 . S
N1119 C1117 1.384 . S
H1120 C1126 0.930 1_455 S
H1121 C1130 0.930 . S
H1122 C1135 0.929 . S
H1123 C1133 0.929 . S
H1124 C1128 0.929 . S
H1125 C1134 0.929 . S
C1126 H1120 0.930 1_655 S
C1126 C1127 1.367 . S
C1126 C1134 1.378 1_655 S
C1127 C1126 1.367 . S
C1127 C1135 1.433 . S
C1128 H1124 0.929 . S
C1128 C1130 1.378 . S
C1128 C1132 1.350 . S
C1129 C1132 1.463 . S
C1129 C1134 1.350 1_655 S
C1129 N1137 1.427 . S
C1130 H1121 0.930 . S
C1130 C1128 1.378 . S
C1130 C1131 1.367 1_655 S
C1131 C1130 1.367 1_455 S
C1131 C1133 1.433 . S
C1132 C1128 1.350 . S
C1132 C1129 1.463 . S
C1132 N1136 1.427 1_655 S
C1133 H1123 0.929 . S
C1133 C1131 1.433 . S
C1133 N1136 1.384 . S
C1134 H1125 0.929 . S
C1134 C1126 1.378 1_455 S
C1134 C1129 1.350 1_455 S
C1135 H1122 0.929 . S
C1135 C1127 1.433 . S
C1135 N1137 1.384 . S
N1136 C1132 1.427 1_455 S
N1136 C1133 1.384 . S
N1137 C1129 1.427 . S
N1137 C1135 1.384 . S
H1138 C1144 0.930 . S
H1139 C1148 0.930 . S
H1140 C1153 0.929 . S
H1141 C1151 0.929 . S
H1142 C1146 0.929 . S
H1143 C1152 0.929 . S
C1144 H1138 0.930 . S
C1144 C1145 1.367 . S
C1144 C1152 1.378 . S
C1145 C1144 1.367 . S
C1145 C1153 1.433 . S
C1146 H1142 0.929 . S
C1146 C1148 1.378 . S
C1146 C1150 1.350 . S
C1147 C1150 1.463 . S
C1147 C1152 1.350 . S
C1147 N1155 1.427 . S
C1148 H1139 0.930 . S
C1148 C1146 1.378 . S
C1148 C1149 1.367 . S
C1149 C1148 1.367 . S
C1149 C1151 1.433 . S
C1150 C1146 1.350 . S
C1150 C1147 1.463 . S
C1150 N1154 1.427 . S
C1151 H1141 0.929 . S
C1151 C1149 1.433 . S
C1151 N1154 1.384 . S
C1152 H1143 0.929 . S
C1152 C1144 1.378 . S
C1152 C1147 1.350 . S
C1153 H1140 0.929 . S
C1153 C1145 1.433 . S
C1153 N1155 1.384 . S
N1154 C1150 1.427 . S
N1154 C1151 1.384 . S
N1155 C1147 1.427 . S
N1155 C1153 1.384 . S
H1156 C1162 0.930 . S
H1157 C1166 0.930 . S
H1158 C1171 0.929 . S
H1159 C1169 0.929 . S
H1160 C1164 0.929 . S
H1161 C1170 0.929 . S
C1162 H1156 0.930 . S
C1162 C1163 1.367 . S
C1162 C1170 1.378 . S
C1163 C1162 1.367 . S
C1163 C1171 1.433 . S
C1164 H1160 0.929 . S
C1164 C1166 1.378 . S
C1164 C1168 1.350 . S
C1165 C1168 1.463 . S
C1165 C1170 1.350 . S
C1165 N1173 1.427 . S
C1166 H1157 0.930 . S
C1166 C1164 1.378 . S
C1166 C1167 1.367 . S
C1167 C1166 1.367 . S
C1167 C1169 1.433 . S
C1168 C1164 1.350 . S
C1168 C1165 1.463 . S
C1168 N1172 1.427 . S
C1169 H1159 0.929 . S
C1169 C1167 1.433 . S
C1169 N1172 1.384 . S
C1170 H1161 0.929 . S
C1170 C1162 1.378 . S
C1170 C1165 1.350 . S
C1171 H1158 0.929 . S
C1171 C1163 1.433 . S
C1171 N1173 1.384 . S
N1172 C1168 1.427 . S
N1172 C1169 1.384 . S
N1173 C1165 1.427 . S
N1173 C1171 1.384 . S
H1174 C1180 0.930 . S
H1175 C1184 0.930 . S
H1176 C1189 0.929 . S
H1177 C1187 0.929 . S
H1178 C1182 0.929 . S
H1179 C1188 0.929 . S
C1180 H1174 0.930 . S
C1180 C1181 1.367 . S
C1180 C1188 1.378 . S
C1181 C1180 1.367 . S
C1181 C1189 1.433 . S
C1182 H1178 0.929 . S
C1182 C1184 1.378 . S
C1182 C1186 1.350 . S
C1183 C1186 1.463 . S
C1183 C1188 1.350 . S
C1183 N1191 1.427 . S
C1184 H1175 0.930 . S
C1184 C1182 1.378 . S
C1184 C1185 1.367 . S
C1185 C1184 1.367 . S
C1185 C1187 1.433 . S
C1186 C1182 1.350 . S
C1186 C1183 1.463 . S
C1186 N1190 1.427 . S
C1187 H1177 0.929 . S
C1187 C1185 1.433 . S
C1187 N1190 1.384 . S
C1188 H1179 0.929 . S
C1188 C1180 1.378 . S
C1188 C1183 1.350 . S
C1189 H1176 0.929 . S
C1189 C1181 1.433 . S
C1189 N1191 1.384 . S
N1190 C1186 1.427 . S
N1190 C1187 1.384 . S
N1191 C1183 1.427 . S
N1191 C1189 1.384 . S
H1192 C1198 0.930 . S
H1193 C1202 0.930 . S
H1194 C1207 0.929 . S
H1195 C1205 0.929 . S
H1196 C1200 0.929 . S
H1197 C1206 0.929 . S
C1198 H1192 0.930 . S
C1198 C1199 1.367 . S
C1198 C1206 1.378 . S
C1199 C1198 1.367 . S
C1199 C1207 1.433 . S
C1200 H1196 0.929 . S
C1200 C1202 1.378 . S
C1200 C1204 1.350 1_455 S
C1201 C1204 1.463 . S
C1201 C1206 1.350 . S
C1201 N1209 1.427 . S
C1202 H1193 0.930 . S
C1202 C1200 1.378 . S
C1202 C1203 1.367 . S
C1203 C1202 1.367 . S
C1203 C1205 1.433 1_455 S
C1204 C1200 1.350 1_655 S
C1204 C1201 1.463 . S
C1204 N1208 1.427 . S
C1205 H1195 0.929 . S
C1205 C1203 1.433 1_655 S
C1205 N1208 1.384 . S
C1206 H1197 0.929 . S
C1206 C1198 1.378 . S
C1206 C1201 1.350 . S
C1207 H1194 0.929 . S
C1207 C1199 1.433 . S
C1207 N1209 1.384 . S
N1208 C1204 1.427 . S
N1208 C1205 1.384 . S
N1209 C1201 1.427 . S
N1209 C1207 1.384 . S
H1210 C1216 0.930 . S
H1211 C1220 0.930 . S
H1212 C1225 0.929 . S
H1213 C1223 0.929 . S
H1214 C1218 0.929 . S
H1215 C1224 0.929 . S
C1216 H1210 0.930 . S
C1216 C1217 1.367 . S
C1216 C1224 1.378 . S
C1217 C1216 1.367 . S
C1217 C1225 1.433 . S
C1218 H1214 0.929 . S
C1218 C1220 1.378 . S
C1218 C1222 1.350 . S
C1219 C1222 1.463 . S
C1219 C1224 1.350 . S
C1219 N1227 1.427 . S
C1220 H1211 0.930 . S
C1220 C1218 1.378 . S
C1220 C1221 1.367 . S
C1221 C1220 1.367 . S
C1221 C1223 1.433 . S
C1222 C1218 1.350 . S
C1222 C1219 1.463 . S
C1222 N1226 1.427 . S
C1223 H1213 0.929 . S
C1223 C1221 1.433 . S
C1223 N1226 1.384 . S
C1224 H1215 0.929 . S
C1224 C1216 1.378 . S
C1224 C1219 1.350 . S
C1225 H1212 0.929 . S
C1225 C1217 1.433 . S
C1225 N1227 1.384 . S
N1226 C1222 1.427 . S
N1226 C1223 1.384 . S
N1227 C1219 1.427 . S
N1227 C1225 1.384 . S
H1228 C1234 0.930 . S
H1229 C1238 0.930 . S
H1230 C1243 0.929 . S
H1231 C1241 0.929 . S
H1232 C1236 0.929 . S
H1233 C1242 0.929 . S
C1234 H1228 0.930 . S
C1234 C1235 1.367 . S
C1234 C1242 1.378 . S
C1235 C1234 1.367 . S
C1235 C1243 1.433 . S
C1236 H1232 0.929 . S
C1236 C1238 1.378 . S
C1236 C1240 1.350 . S
C1237 C1240 1.463 . S
C1237 C1242 1.350 . S
C1237 N1245 1.427 . S
C1238 H1229 0.930 . S
C1238 C1236 1.378 . S
C1238 C1239 1.367 . S
C1239 C1238 1.367 . S
C1239 C1241 1.433 . S
C1240 C1236 1.350 . S
C1240 C1237 1.463 . S
C1240 N1244 1.427 . S
C1241 H1231 0.929 . S
C1241 C1239 1.433 . S
C1241 N1244 1.384 . S
C1242 H1233 0.929 . S
C1242 C1234 1.378 . S
C1242 C1237 1.350 . S
C1243 H1230 0.929 . S
C1243 C1235 1.433 . S
C1243 N1245 1.384 . S
N1244 C1240 1.427 . S
N1244 C1241 1.384 . S
N1245 C1237 1.427 . S
N1245 C1243 1.384 . S
H1246 C1252 0.930 . S
H1247 C1256 0.930 . S
H1248 C1261 0.929 . S
H1249 C1259 0.929 . S
H1250 C1254 0.929 . S
H1251 C1260 0.929 . S
C1252 H1246 0.930 . S
C1252 C1253 1.367 . S
C1252 C1260 1.378 . S
C1253 C1252 1.367 . S
C1253 C1261 1.433 . S
C1254 H1250 0.929 . S
C1254 C1256 1.378 . S
C1254 C1258 1.350 . S
C1255 C1258 1.463 . S
C1255 C1260 1.350 . S
C1255 N1263 1.427 . S
C1256 H1247 0.930 . S
C1256 C1254 1.378 . S
C1256 C1257 1.367 . S
C1257 C1256 1.367 . S
C1257 C1259 1.433 . S
C1258 C1254 1.350 . S
C1258 C1255 1.463 . S
C1258 N1262 1.427 . S
C1259 H1249 0.929 . S
C1259 C1257 1.433 . S
C1259 N1262 1.384 . S
C1260 H1251 0.929 . S
C1260 C1252 1.378 . S
C1260 C1255 1.350 . S
C1261 H1248 0.929 . S
C1261 C1253 1.433 . S
C1261 N1263 1.384 . S
N1262 C1258 1.427 . S
N1262 C1259 1.384 . S
N1263 C1255 1.427 . S
N1263 C1261 1.384 . S
H1264 C1270 0.930 . S
H1265 C1274 0.930 . S
H1266 C1279 0.929 . S
H1267 C1277 0.929 . S
H1268 C1272 0.929 . S
H1269 C1278 0.929 . S
C1270 H1264 0.930 . S
C1270 C1271 1.367 1_554 S
C1270 C1278 1.378 . S
C1271 C1270 1.367 1_556 S
C1271 C1279 1.433 . S
C1272 H1268 0.929 . S
C1272 C1274 1.378 . S
C1272 C1276 1.350 1_545 S
C1273 C1276 1.463 . S
C1273 C1278 1.350 . S
C1273 N1281 1.427 . S
C1274 H1265 0.930 . S
C1274 C1272 1.378 . S
C1274 C1275 1.367 . S
C1275 C1274 1.367 . S
C1275 C1277 1.433 1_545 S
C1276 C1272 1.350 1_565 S
C1276 C1273 1.463 . S
C1276 N1280 1.427 . S
C1277 H1267 0.929 . S
C1277 C1275 1.433 1_565 S
C1277 N1280 1.384 . S
C1278 H1269 0.929 . S
C1278 C1270 1.378 . S
C1278 C1273 1.350 . S
C1279 H1266 0.929 . S
C1279 C1271 1.433 . S
C1279 N1281 1.384 1_556 S
N1280 C1276 1.427 . S
N1280 C1277 1.384 . S
N1281 C1273 1.427 . S
N1281 C1279 1.384 1_554 S
H1282 C1288 0.930 1_556 S
H1283 C1292 0.930 . S
H1284 C1297 0.929 . S
H1285 C1295 0.929 1_556 S
H1286 C1290 0.929 . S
H1287 C1296 0.929 1_556 S
C1288 H1282 0.930 1_554 S
C1288 C1289 1.367 . S
C1288 C1296 1.378 . S
C1289 C1288 1.367 . S
C1289 C1297 1.433 . S
C1290 H1286 0.929 . S
C1290 C1292 1.378 . S
C1290 C1294 1.350 . S
C1291 C1294 1.463 . S
C1291 C1296 1.350 . S
C1291 N1299 1.427 . S
C1292 H1283 0.930 . S
C1292 C1290 1.378 . S
C1292 C1293 1.367 . S
C1293 C1292 1.367 . S
C1293 C1295 1.433 . S
C1294 C1290 1.350 . S
C1294 C1291 1.463 . S
C1294 N1298 1.427 . S
C1295 H1285 0.929 1_554 S
C1295 C1293 1.433 . S
C1295 N1298 1.384 . S
C1296 H1287 0.929 1_554 S
C1296 C1288 1.378 . S
C1296 C1291 1.350 . S
C1297 H1284 0.929 . S
C1297 C1289 1.433 . S
C1297 N1299 1.384 . S
N1298 C1294 1.427 . S
N1298 C1295 1.384 . S
N1299 C1291 1.427 . S
N1299 C1297 1.384 . S
H1300 C1306 0.930 . S
H1301 C1310 0.930 . S
H1302 C1315 0.929 . S
H1303 C1313 0.929 . S
H1304 C1308 0.929 . S
H1305 C1314 0.929 . S
C1306 H1300 0.930 . S
C1306 C1307 1.367 . S
C1306 C1314 1.378 . S
C1307 C1306 1.367 . S
C1307 C1315 1.433 . S
C1308 H1304 0.929 . S
C1308 C1310 1.378 . S
C1308 C1312 1.350 . S
C1309 C1312 1.463 . S
C1309 C1314 1.350 . S
C1309 N1317 1.427 . S
C1310 H1301 0.930 . S
C1310 C1308 1.378 . S
C1310 C1311 1.367 . S
C1311 C1310 1.367 . S
C1311 C1313 1.433 . S
C1312 C1308 1.350 . S
C1312 C1309 1.463 . S
C1312 N1316 1.427 . S
C1313 H1303 0.929 . S
C1313 C1311 1.433 . S
C1313 N1316 1.384 . S
C1314 H1305 0.929 . S
C1314 C1306 1.378 . S
C1314 C1309 1.350 . S
C1315 H1302 0.929 . S
C1315 C1307 1.433 . S
C1315 N1317 1.384 . S
N1316 C1312 1.427 . S
N1316 C1313 1.384 . S
N1317 C1309 1.427 . S
N1317 C1315 1.384 . S
H1318 C1324 0.930 . S
H1319 C1328 0.930 . S
H1320 C1333 0.929 . S
H1321 C1331 0.929 . S
H1322 C1326 0.929 . S
H1323 C1332 0.929 . S
C1324 H1318 0.930 . S
C1324 C1325 1.367 . S
C1324 C1332 1.378 . S
C1325 C1324 1.367 . S
C1325 C1333 1.433 . S
C1326 H1322 0.929 . S
C1326 C1328 1.378 . S
C1326 C1330 1.350 . S
C1327 C1330 1.463 . S
C1327 C1332 1.350 . S
C1327 N1335 1.427 . S
C1328 H1319 0.930 . S
C1328 C1326 1.378 . S
C1328 C1329 1.367 . S
C1329 C1328 1.367 . S
C1329 C1331 1.433 . S
C1330 C1326 1.350 . S
C1330 C1327 1.463 . S
C1330 N1334 1.427 . S
C1331 H1321 0.929 . S
C1331 C1329 1.433 . S
C1331 N1334 1.384 . S
C1332 H1323 0.929 . S
C1332 C1324 1.378 . S
C1332 C1327 1.350 . S
C1333 H1320 0.929 . S
C1333 C1325 1.433 . S
C1333 N1335 1.384 . S
N1334 C1330 1.427 . S
N1334 C1331 1.384 . S
N1335 C1327 1.427 . S
N1335 C1333 1.384 . S
H1336 C1342 0.930 . S
H1337 C1346 0.930 . S
H1338 C1351 0.929 . S
H1339 C1349 0.929 . S
H1340 C1344 0.929 . S
H1341 C1350 0.929 . S
C1342 H1336 0.930 . S
C1342 C1343 1.367 . S
C1342 C1350 1.378 . S
C1343 C1342 1.367 . S
C1343 C1351 1.433 . S
C1344 H1340 0.929 . S
C1344 C1346 1.378 . S
C1344 C1348 1.350 . S
C1345 C1348 1.463 . S
C1345 C1350 1.350 . S
C1345 N1353 1.427 . S
C1346 H1337 0.930 . S
C1346 C1344 1.378 . S
C1346 C1347 1.367 . S
C1347 C1346 1.367 . S
C1347 C1349 1.433 . S
C1348 C1344 1.350 . S
C1348 C1345 1.463 . S
C1348 N1352 1.427 . S
C1349 H1339 0.929 . S
C1349 C1347 1.433 . S
C1349 N1352 1.384 . S
C1350 H1341 0.929 . S
C1350 C1342 1.378 . S
C1350 C1345 1.350 . S
C1351 H1338 0.929 . S
C1351 C1343 1.433 . S
C1351 N1353 1.384 . S
N1352 C1348 1.427 . S
N1352 C1349 1.384 . S
N1353 C1345 1.427 . S
N1353 C1351 1.384 . S
H1354 C1360 0.930 . S
H1355 C1364 0.930 . S
H1356 C1369 0.929 . S
H1357 C1367 0.929 . S
H1358 C1362 0.929 . S
H1359 C1368 0.929 . S
C1360 H1354 0.930 . S
C1360 C1361 1.367 . S
C1360 C1368 1.378 . S
C1361 C1360 1.367 . S
C1361 C1369 1.433 . S
C1362 H1358 0.929 . S
C1362 C1364 1.378 . S
C1362 C1366 1.350 . S
C1363 C1366 1.463 . S
C1363 C1368 1.350 . S
C1363 N1371 1.427 . S
C1364 H1355 0.930 . S
C1364 C1362 1.378 . S
C1364 C1365 1.367 . S
C1365 C1364 1.367 . S
C1365 C1367 1.433 . S
C1366 C1362 1.350 . S
C1366 C1363 1.463 . S
C1366 N1370 1.427 . S
C1367 H1357 0.929 . S
C1367 C1365 1.433 . S
C1367 N1370 1.384 . S
C1368 H1359 0.929 . S
C1368 C1360 1.378 . S
C1368 C1363 1.350 . S
C1369 H1356 0.929 . S
C1369 C1361 1.433 . S
C1369 N1371 1.384 . S
N1370 C1366 1.427 . S
N1370 C1367 1.384 . S
N1371 C1363 1.427 . S
N1371 C1369 1.384 . S
H1372 C1378 0.930 . S
H1373 C1382 0.930 . S
H1374 C1387 0.929 . S
H1375 C1385 0.929 . S
H1376 C1380 0.929 . S
H1377 C1386 0.929 . S
C1378 H1372 0.930 . S
C1378 C1379 1.367 . S
C1378 C1386 1.378 . S
C1379 C1378 1.367 . S
C1379 C1387 1.433 . S
C1380 H1376 0.929 . S
C1380 C1382 1.378 . S
C1380 C1384 1.350 . S
C1381 C1384 1.463 . S
C1381 C1386 1.350 . S
C1381 N1389 1.427 . S
C1382 H1373 0.930 . S
C1382 C1380 1.378 . S
C1382 C1383 1.367 . S
C1383 C1382 1.367 . S
C1383 C1385 1.433 . S
C1384 C1380 1.350 . S
C1384 C1381 1.463 . S
C1384 N1388 1.427 . S
C1385 H1375 0.929 . S
C1385 C1383 1.433 . S
C1385 N1388 1.384 . S
C1386 H1377 0.929 . S
C1386 C1378 1.378 . S
C1386 C1381 1.350 . S
C1387 H1374 0.929 . S
C1387 C1379 1.433 . S
C1387 N1389 1.384 . S
N1388 C1384 1.427 . S
N1388 C1385 1.384 . S
N1389 C1381 1.427 . S
N1389 C1387 1.384 . S
H1390 C1396 0.930 . S
H1391 C1400 0.930 . S
H1392 C1405 0.929 . S
H1393 C1403 0.929 . S
H1394 C1398 0.929 . S
H1395 C1404 0.929 . S
C1396 H1390 0.930 . S
C1396 C1397 1.367 . S
C1396 C1404 1.378 . S
C1397 C1396 1.367 . S
C1397 C1405 1.433 . S
C1398 H1394 0.929 . S
C1398 C1400 1.378 . S
C1398 C1402 1.350 . S
C1399 C1402 1.463 . S
C1399 C1404 1.350 . S
C1399 N1407 1.427 . S
C1400 H1391 0.930 . S
C1400 C1398 1.378 . S
C1400 C1401 1.367 . S
C1401 C1400 1.367 . S
C1401 C1403 1.433 . S
C1402 C1398 1.350 . S
C1402 C1399 1.463 . S
C1402 N1406 1.427 . S
C1403 H1393 0.929 . S
C1403 C1401 1.433 . S
C1403 N1406 1.384 . S
C1404 H1395 0.929 . S
C1404 C1396 1.378 . S
C1404 C1399 1.350 . S
C1405 H1392 0.929 . S
C1405 C1397 1.433 . S
C1405 N1407 1.384 . S
N1406 C1402 1.427 . S
N1406 C1403 1.384 . S
N1407 C1399 1.427 . S
N1407 C1405 1.384 . S
H1408 C1414 0.930 . S
H1409 C1418 0.930 . S
H1410 C1423 0.929 . S
H1411 C1421 0.929 1_556 S
H1412 C1416 0.929 . S
H1413 C1422 0.929 . S
C1414 H1408 0.930 . S
C1414 C1415 1.367 . S
C1414 C1422 1.378 . S
C1415 C1414 1.367 . S
C1415 C1423 1.433 . S
C1416 H1412 0.929 . S
C1416 C1418 1.378 . S
C1416 C1420 1.350 . S
C1417 C1420 1.463 . S
C1417 C1422 1.350 . S
C1417 N1425 1.427 . S
C1418 H1409 0.930 . S
C1418 C1416 1.378 . S
C1418 C1419 1.367 . S
C1419 C1418 1.367 . S
C1419 C1421 1.433 . S
C1420 C1416 1.350 . S
C1420 C1417 1.463 . S
C1420 N1424 1.427 . S
C1421 H1411 0.929 1_554 S
C1421 C1419 1.433 . S
C1421 N1424 1.384 . S
C1422 H1413 0.929 . S
C1422 C1414 1.378 . S
C1422 C1417 1.350 . S
C1423 H1410 0.929 . S
C1423 C1415 1.433 . S
C1423 N1425 1.384 . S
N1424 C1420 1.427 . S
N1424 C1421 1.384 . S
N1425 C1417 1.427 . S
N1425 C1423 1.384 . S
H1426 C1432 0.930 . S
H1427 C1436 0.930 . S
H1428 C1441 0.929 . S
H1429 C1439 0.929 . S
H1430 C1434 0.929 . S
H1431 C1440 0.929 . S
C1432 H1426 0.930 . S
C1432 C1433 1.367 . S
C1432 C1440 1.378 . S
C1433 C1432 1.367 . S
C1433 C1441 1.433 . S
C1434 H1430 0.929 . S
C1434 C1436 1.378 . S
C1434 C1438 1.350 . S
C1435 C1438 1.463 . S
C1435 C1440 1.350 . S
C1435 N1443 1.427 . S
C1436 H1427 0.930 . S
C1436 C1434 1.378 . S
C1436 C1437 1.367 . S
C1437 C1436 1.367 . S
C1437 C1439 1.433 . S
C1438 C1434 1.350 . S
C1438 C1435 1.463 . S
C1438 N1442 1.427 . S
C1439 H1429 0.929 . S
C1439 C1437 1.433 . S
C1439 N1442 1.384 . S
C1440 H1431 0.929 . S
C1440 C1432 1.378 . S
C1440 C1435 1.350 . S
C1441 H1428 0.929 . S
C1441 C1433 1.433 . S
C1441 N1443 1.384 . S
N1442 C1438 1.427 . S
N1442 C1439 1.384 . S
N1443 C1435 1.427 . S
N1443 C1441 1.384 . S
H1444 C1450 0.930 . S
H1445 C1454 0.930 . S
H1446 C1459 0.929 . S
H1447 C1457 0.929 . S
H1448 C1452 0.929 . S
H1449 C1458 0.929 . S
C1450 H1444 0.930 . S
C1450 C1451 1.367 . S
C1450 C1458 1.378 . S
C1451 C1450 1.367 . S
C1451 C1459 1.433 . S
C1452 H1448 0.929 . S
C1452 C1454 1.378 . S
C1452 C1456 1.350 . S
C1453 C1456 1.463 . S
C1453 C1458 1.350 . S
C1453 N1461 1.427 . S
C1454 H1445 0.930 . S
C1454 C1452 1.378 . S
C1454 C1455 1.367 . S
C1455 C1454 1.367 . S
C1455 C1457 1.433 . S
C1456 C1452 1.350 . S
C1456 C1453 1.463 . S
C1456 N1460 1.427 . S
C1457 H1447 0.929 . S
C1457 C1455 1.433 . S
C1457 N1460 1.384 . S
C1458 H1449 0.929 . S
C1458 C1450 1.378 . S
C1458 C1453 1.350 . S
C1459 H1446 0.929 . S
C1459 C1451 1.433 . S
C1459 N1461 1.384 . S
N1460 C1456 1.427 . S
N1460 C1457 1.384 . S
N1461 C1453 1.427 . S
N1461 C1459 1.384 . S
H1462 C1468 0.930 . S
H1463 C1472 0.930 . S
H1464 C1477 0.929 . S
H1465 C1475 0.929 . S
H1466 C1470 0.929 . S
H1467 C1476 0.929 . S
C1468 H1462 0.930 . S
C1468 C1469 1.367 . S
C1468 C1476 1.378 . S
C1469 C1468 1.367 . S
C1469 C1477 1.433 . S
C1470 H1466 0.929 . S
C1470 C1472 1.378 . S
C1470 C1474 1.350 . S
C1471 C1474 1.463 . S
C1471 C1476 1.350 . S
C1471 N1479 1.427 . S
C1472 H1463 0.930 . S
C1472 C1470 1.378 . S
C1472 C1473 1.367 . S
C1473 C1472 1.367 . S
C1473 C1475 1.433 . S
C1474 C1470 1.350 . S
C1474 C1471 1.463 . S
C1474 N1478 1.427 . S
C1475 H1465 0.929 . S
C1475 C1473 1.433 . S
C1475 N1478 1.384 . S
C1476 H1467 0.929 . S
C1476 C1468 1.378 . S
C1476 C1471 1.350 . S
C1477 H1464 0.929 . S
C1477 C1469 1.433 . S
C1477 N1479 1.384 . S
N1478 C1474 1.427 . S
N1478 C1475 1.384 . S
N1479 C1471 1.427 . S
N1479 C1477 1.384 . S
H1480 C1486 0.930 . S
H1481 C1490 0.930 . S
H1482 C1495 0.929 1_655 S
H1483 C1493 0.929 . S
H1484 C1488 0.929 . S
H1485 C1494 0.929 . S
C1486 H1480 0.930 . S
C1486 C1487 1.367 . S
C1486 C1494 1.378 . S
C1487 C1486 1.367 . S
C1487 C1495 1.433 . S
C1488 H1484 0.929 . S
C1488 C1490 1.378 . S
C1488 C1492 1.350 1_655 S
C1489 C1492 1.463 . S
C1489 C1494 1.350 . S
C1489 N1497 1.427 1_455 S
C1490 H1481 0.930 . S
C1490 C1488 1.378 . S
C1490 C1491 1.342 1_655 S
C1491 C1490 1.342 1_455 S
C1491 C1493 1.460 . S
C1492 C1488 1.350 1_455 S
C1492 C1489 1.463 . S
C1492 N1496 1.427 . S
C1493 H1483 0.929 . S
C1493 C1491 1.460 . S
C1493 N1496 1.384 . S
C1494 H1485 0.929 . S
C1494 C1486 1.378 . S
C1494 C1489 1.350 . S
C1495 H1482 0.929 1_455 S
C1495 C1487 1.433 . S
C1495 N1497 1.384 1_455 S
N1496 C1492 1.427 . S
N1496 C1493 1.384 . S
N1497 C1489 1.427 1_655 S
N1497 C1495 1.384 1_655 S
H1498 C1504 0.930 . S
H1499 C1508 0.930 . S
H1500 C1513 0.929 . S
H1501 C1511 0.929 . S
H1502 C1506 0.929 . S
H1503 C1512 0.929 . S
C1504 H1498 0.930 . S
C1504 C1505 1.367 . S
C1504 C1512 1.378 . S
C1505 C1504 1.367 . S
C1505 C1513 1.433 . S
C1506 H1502 0.929 . S
C1506 C1508 1.378 . S
C1506 C1510 1.350 . S
C1507 C1510 1.463 . S
C1507 C1512 1.350 . S
C1507 N1515 1.427 . S
C1508 H1499 0.930 . S
C1508 C1506 1.378 . S
C1508 C1509 1.367 . S
C1509 C1508 1.367 . S
C1509 C1511 1.433 . S
C1510 C1506 1.350 . S
C1510 C1507 1.463 . S
C1510 N1514 1.427 . S
C1511 H1501 0.929 . S
C1511 C1509 1.433 . S
C1511 N1514 1.384 . S
C1512 H1503 0.929 . S
C1512 C1504 1.378 . S
C1512 C1507 1.350 . S
C1513 H1500 0.929 . S
C1513 C1505 1.433 . S
C1513 N1515 1.384 . S
N1514 C1510 1.427 . S
N1514 C1511 1.384 . S
N1515 C1507 1.427 . S
N1515 C1513 1.384 . S
H1516 C1522 0.930 . S
H1517 C1526 0.930 . S
H1518 C1531 0.929 . S
H1519 C1529 0.929 . S
H1520 C1524 0.929 . S
H1521 C1530 0.929 . S
C1522 H1516 0.930 . S
C1522 C1523 1.367 . S
C1522 C1530 1.378 . S
C1523 C1522 1.367 . S
C1523 C1531 1.433 . S
C1524 H1520 0.929 . S
C1524 C1526 1.378 . S
C1524 C1528 1.350 . S
C1525 C1528 1.463 . S
C1525 C1530 1.350 . S
C1525 N1533 1.427 . S
C1526 H1517 0.930 . S
C1526 C1524 1.378 . S
C1526 C1527 1.367 . S
C1527 C1526 1.367 . S
C1527 C1529 1.433 . S
C1528 C1524 1.350 . S
C1528 C1525 1.463 . S
C1528 N1532 1.427 . S
C1529 H1519 0.929 . S
C1529 C1527 1.433 . S
C1529 N1532 1.384 . S
C1530 H1521 0.929 . S
C1530 C1522 1.378 . S
C1530 C1525 1.350 . S
C1531 H1518 0.929 . S
C1531 C1523 1.433 . S
C1531 N1533 1.384 . S
N1532 C1528 1.427 . S
N1532 C1529 1.384 . S
N1533 C1525 1.427 . S
N1533 C1531 1.384 . S
H1534 C1540 0.930 . S
H1535 C1544 0.930 . S
H1536 C1549 0.929 . S
H1537 C1547 0.929 . S
H1538 C1542 0.929 . S
H1539 C1548 0.929 . S
C1540 H1534 0.930 . S
C1540 C1541 1.367 . S
C1540 C1548 1.378 . S
C1541 C1540 1.367 . S
C1541 C1549 1.433 . S
C1542 H1538 0.929 . S
C1542 C1544 1.378 . S
C1542 C1546 1.350 . S
C1543 C1546 1.463 . S
C1543 C1548 1.350 . S
C1543 N1551 1.427 . S
C1544 H1535 0.930 . S
C1544 C1542 1.378 . S
C1544 C1545 1.367 . S
C1545 C1544 1.367 . S
C1545 C1547 1.433 . S
C1546 C1542 1.350 . S
C1546 C1543 1.463 . S
C1546 N1550 1.427 . S
C1547 H1537 0.929 . S
C1547 C1545 1.433 . S
C1547 N1550 1.384 . S
C1548 H1539 0.929 . S
C1548 C1540 1.378 . S
C1548 C1543 1.350 . S
C1549 H1536 0.929 . S
C1549 C1541 1.433 . S
C1549 N1551 1.384 . S
N1550 C1546 1.427 . S
N1550 C1547 1.384 . S
N1551 C1543 1.427 . S
N1551 C1549 1.384 . S
H1552 C1558 0.930 . S
H1553 C1562 0.930 . S
H1554 C1567 0.929 . S
H1555 C1565 0.929 . S
H1556 C1560 0.929 . S
H1557 C1566 0.929 . S
C1558 H1552 0.930 . S
C1558 C1559 1.367 . S
C1558 C1566 1.378 . S
C1559 C1558 1.367 . S
C1559 C1567 1.433 . S
C1560 H1556 0.929 . S
C1560 C1562 1.378 . S
C1560 C1564 1.350 . S
C1561 C1564 1.463 . S
C1561 C1566 1.350 . S
C1561 N1569 1.427 . S
C1562 H1553 0.930 . S
C1562 C1560 1.378 . S
C1562 C1563 1.367 . S
C1563 C1562 1.367 . S
C1563 C1565 1.433 . S
C1564 C1560 1.350 . S
C1564 C1561 1.463 . S
C1564 N1568 1.427 . S
C1565 H1555 0.929 . S
C1565 C1563 1.433 . S
C1565 N1568 1.384 . S
C1566 H1557 0.929 . S
C1566 C1558 1.378 . S
C1566 C1561 1.350 . S
C1567 H1554 0.929 . S
C1567 C1559 1.433 . S
C1567 N1569 1.384 . S
N1568 C1564 1.427 . S
N1568 C1565 1.384 . S
N1569 C1561 1.427 . S
N1569 C1567 1.384 . S
H1570 C1576 0.930 . S
H1571 C1580 0.930 . S
H1572 C1585 0.929 . S
H1573 C1583 0.929 . S
H1574 C1578 0.929 . S
H1575 C1584 0.929 . S
C1576 H1570 0.930 . S
C1576 C1577 1.367 . S
C1576 C1584 1.378 . S
C1577 C1576 1.367 . S
C1577 C1585 1.433 . S
C1578 H1574 0.929 . S
C1578 C1580 1.378 . S
C1578 C1582 1.350 . S
C1579 C1582 1.463 . S
C1579 C1584 1.350 . S
C1579 N1587 1.427 . S
C1580 H1571 0.930 . S
C1580 C1578 1.378 . S
C1580 C1581 1.367 . S
C1581 C1580 1.367 . S
C1581 C1583 1.433 . S
C1582 C1578 1.350 . S
C1582 C1579 1.463 . S
C1582 N1586 1.427 . S
C1583 H1573 0.929 . S
C1583 C1581 1.433 . S
C1583 N1586 1.384 . S
C1584 H1575 0.929 . S
C1584 C1576 1.378 . S
C1584 C1579 1.350 . S
C1585 H1572 0.929 . S
C1585 C1577 1.433 . S
C1585 N1587 1.384 . S
N1586 C1582 1.427 . S
N1586 C1583 1.384 . S
N1587 C1579 1.427 . S
N1587 C1585 1.384 . S
H1588 C1594 0.930 . S
H1589 C1598 0.930 . S
H1590 C1603 0.929 . S
H1591 C1601 0.929 . S
H1592 C1596 0.929 1_565 S
H1593 C1602 0.929 . S
C1594 H1588 0.930 . S
C1594 C1595 1.367 . S
C1594 C1602 1.378 . S
C1595 C1594 1.367 . S
C1595 C1603 1.433 1_545 S
C1596 H1592 0.929 1_545 S
C1596 C1598 1.378 . S
C1596 C1600 1.350 . S
C1597 C1600 1.463 . S
C1597 C1602 1.350 . S
C1597 N1605 1.413 1_545 S
C1598 H1589 0.930 . S
C1598 C1596 1.378 . S
C1598 C1599 1.367 . S
C1599 C1598 1.367 . S
C1599 C1601 1.433 . S
C1600 C1596 1.350 . S
C1600 C1597 1.463 . S
C1600 N1604 1.427 . S
C1601 H1591 0.929 . S
C1601 C1599 1.433 . S
C1601 N1604 1.384 . S
C1602 H1593 0.929 . S
C1602 C1594 1.378 . S
C1602 C1597 1.350 . S
C1603 H1590 0.929 . S
C1603 C1595 1.433 1_565 S
C1603 N1605 1.382 . S
N1604 C1600 1.427 . S
N1604 C1601 1.384 . S
N1605 C1597 1.413 1_565 S
N1605 C1603 1.382 . S
H1606 C1612 0.930 . S
H1607 C1616 0.930 . S
H1608 C1621 0.929 . S
H1609 C1619 0.929 . S
H1610 C1614 0.929 . S
H1611 C1620 0.929 . S
C1612 H1606 0.930 . S
C1612 C1613 1.367 . S
C1612 C1620 1.378 . S
C1613 C1612 1.367 . S
C1613 C1621 1.433 . S
C1614 H1610 0.929 . S
C1614 C1616 1.378 . S
C1614 C1618 1.350 . S
C1615 C1618 1.463 . S
C1615 C1620 1.350 . S
C1615 N1623 1.427 . S
C1616 H1607 0.930 . S
C1616 C1614 1.378 . S
C1616 C1617 1.367 . S
C1617 C1616 1.367 . S
C1617 C1619 1.433 . S
C1618 C1614 1.350 . S
C1618 C1615 1.463 . S
C1618 N1622 1.427 . S
C1619 H1609 0.929 . S
C1619 C1617 1.433 . S
C1619 N1622 1.384 . S
C1620 H1611 0.929 . S
C1620 C1612 1.378 . S
C1620 C1615 1.350 . S
C1621 H1608 0.929 . S
C1621 C1613 1.433 . S
C1621 N1623 1.384 . S
N1622 C1618 1.427 . S
N1622 C1619 1.384 . S
N1623 C1615 1.427 . S
N1623 C1621 1.384 . S
H1624 C1630 0.930 . S
H1625 C1634 0.930 . S
H1626 C1639 0.929 . S
H1627 C1637 0.929 . S
H1628 C1632 0.929 . S
H1629 C1638 0.929 . S
C1630 H1624 0.930 . S
C1630 C1631 1.367 . S
C1630 C1638 1.378 . S
C1631 C1630 1.367 . S
C1631 C1639 1.433 . S
C1632 H1628 0.929 . S
C1632 C1634 1.378 . S
C1632 C1636 1.350 . S
C1633 C1636 1.463 . S
C1633 C1638 1.350 . S
C1633 N1641 1.427 . S
C1634 H1625 0.930 . S
C1634 C1632 1.378 . S
C1634 C1635 1.367 . S
C1635 C1634 1.367 . S
C1635 C1637 1.433 . S
C1636 C1632 1.350 . S
C1636 C1633 1.463 . S
C1636 N1640 1.427 . S
C1637 H1627 0.929 . S
C1637 C1635 1.433 . S
C1637 N1640 1.384 . S
C1638 H1629 0.929 . S
C1638 C1630 1.378 . S
C1638 C1633 1.350 . S
C1639 H1626 0.929 . S
C1639 C1631 1.433 . S
C1639 N1641 1.384 . S
N1640 C1636 1.427 . S
N1640 C1637 1.384 . S
N1641 C1633 1.427 . S
N1641 C1639 1.384 . S
H1642 C1648 0.930 . S
H1643 C1652 0.930 . S
H1644 C1657 0.929 . S
H1645 C1655 0.929 . S
H1646 C1650 0.929 . S
H1647 C1656 0.929 . S
C1648 H1642 0.930 . S
C1648 C1649 1.367 . S
C1648 C1656 1.378 . S
C1649 C1648 1.367 . S
C1649 C1657 1.433 . S
C1650 H1646 0.929 . S
C1650 C1652 1.378 . S
C1650 C1654 1.350 . S
C1651 C1654 1.463 . S
C1651 C1656 1.350 . S
C1651 N1659 1.427 . S
C1652 H1643 0.930 . S
C1652 C1650 1.378 . S
C1652 C1653 1.367 . S
C1653 C1652 1.367 . S
C1653 C1655 1.433 . S
C1654 C1650 1.350 . S
C1654 C1651 1.463 . S
C1654 N1658 1.427 . S
C1655 H1645 0.929 . S
C1655 C1653 1.433 . S
C1655 N1658 1.384 . S
C1656 H1647 0.929 . S
C1656 C1648 1.378 . S
C1656 C1651 1.350 . S
C1657 H1644 0.929 . S
C1657 C1649 1.433 . S
C1657 N1659 1.384 . S
N1658 C1654 1.427 . S
N1658 C1655 1.384 . S
N1659 C1651 1.427 . S
N1659 C1657 1.384 . S
H1660 C1666 0.930 . S
H1661 C1670 0.930 . S
H1662 C1675 0.929 . S
H1663 C1673 0.929 . S
H1664 C1668 0.929 . S
H1665 C1674 0.929 . S
C1666 H1660 0.930 . S
C1666 C1667 1.367 1_545 S
C1666 C1674 1.378 . S
C1667 C1666 1.367 1_565 S
C1667 C1675 1.433 . S
C1668 H1664 0.929 . S
C1668 C1670 1.378 . S
C1668 C1672 1.350 . S
C1669 C1672 1.463 . S
C1669 C1674 1.350 1_565 S
C1669 N1677 1.427 . S
C1670 H1661 0.930 . S
C1670 C1668 1.378 . S
C1670 C1671 1.367 . S
C1671 C1670 1.367 . S
C1671 C1673 1.433 1_565 S
C1672 C1668 1.350 . S
C1672 C1669 1.463 . S
C1672 N1676 1.427 1_565 S
C1673 H1663 0.929 . S
C1673 C1671 1.433 1_545 S
C1673 N1676 1.384 . S
C1674 H1665 0.929 . S
C1674 C1666 1.378 . S
C1674 C1669 1.350 1_545 S
C1675 H1662 0.929 . S
C1675 C1667 1.433 . S
C1675 N1677 1.384 . S
N1676 C1672 1.427 1_545 S
N1676 C1673 1.384 . S
N1677 C1669 1.427 . S
N1677 C1675 1.384 . S
H1678 C1684 0.930 . S
H1679 C1688 0.930 . S
H1680 C1693 0.929 . S
H1681 C1691 0.929 . S
H1682 C1686 0.929 . S
H1683 C1692 0.929 . S
C1684 H1678 0.930 . S
C1684 C1685 1.367 . S
C1684 C1692 1.378 . S
C1685 C1684 1.367 . S
C1685 C1693 1.433 . S
C1686 H1682 0.929 . S
C1686 C1688 1.378 . S
C1686 C1690 1.350 . S
C1687 C1690 1.463 . S
C1687 C1692 1.350 . S
C1687 N1695 1.427 . S
C1688 H1679 0.930 . S
C1688 C1686 1.378 . S
C1688 C1689 1.367 . S
C1689 C1688 1.367 . S
C1689 C1691 1.433 . S
C1690 C1686 1.350 . S
C1690 C1687 1.463 . S
C1690 N1694 1.427 . S
C1691 H1681 0.929 . S
C1691 C1689 1.433 . S
C1691 N1694 1.384 . S
C1692 H1683 0.929 . S
C1692 C1684 1.378 . S
C1692 C1687 1.350 . S
C1693 H1680 0.929 . S
C1693 C1685 1.433 . S
C1693 N1695 1.384 . S
N1694 C1690 1.427 . S
N1694 C1691 1.384 . S
N1695 C1687 1.427 . S
N1695 C1693 1.384 . S
H1696 C1702 0.930 . S
H1697 C1706 0.930 . S
H1698 C1711 0.929 . S
H1699 C1709 0.929 . S
H1700 C1704 0.929 1_556 S
H1701 C1710 0.929 . S
C1702 H1696 0.930 . S
C1702 C1703 1.367 . S
C1702 C1710 1.378 . S
C1703 C1702 1.367 . S
C1703 C1711 1.433 . S
C1704 H1700 0.929 1_554 S
C1704 C1706 1.378 1_554 S
C1704 C1708 1.350 . S
C1705 C1708 1.463 . S
C1705 C1710 1.350 . S
C1705 N1713 1.427 . S
C1706 H1697 0.930 . S
C1706 C1704 1.378 1_556 S
C1706 C1707 1.367 1_556 S
C1707 C1706 1.367 1_554 S
C1707 C1709 1.433 . S
C1708 C1704 1.350 . S
C1708 C1705 1.463 . S
C1708 N1712 1.427 . S
C1709 H1699 0.929 . S
C1709 C1707 1.433 . S
C1709 N1712 1.384 . S
C1710 H1701 0.929 . S
C1710 C1702 1.378 . S
C1710 C1705 1.350 . S
C1711 H1698 0.929 . S
C1711 C1703 1.433 . S
C1711 N1713 1.384 . S
N1712 C1708 1.427 . S
N1712 C1709 1.384 . S
N1713 C1705 1.427 . S
N1713 C1711 1.384 . S
H1714 C1720 0.930 . S
H1715 C1724 0.974 . S
H1716 C1729 0.929 . S
H1717 C1727 0.929 . S
H1718 C1722 0.929 . S
H1719 C1728 0.929 . S
C1720 H1714 0.930 . S
C1720 C1721 1.367 . S
C1720 C1728 1.378 . S
C1721 C1720 1.367 . S
C1721 C1729 1.433 . S
C1722 H1718 0.929 . S
C1722 C1724 1.378 . S
C1722 C1726 1.350 . S
C1723 C1726 1.463 . S
C1723 C1728 1.350 . S
C1723 N1731 1.427 . S
C1724 H1715 0.974 . S
C1724 C1722 1.378 . S
C1724 C1725 1.367 . S
C1725 C1724 1.367 . S
C1725 C1727 1.433 . S
C1726 C1722 1.350 . S
C1726 C1723 1.463 . S
C1726 N1730 1.427 . S
C1727 H1717 0.929 . S
C1727 C1725 1.433 . S
C1727 N1730 1.384 . S
C1728 H1719 0.929 . S
C1728 C1720 1.378 . S
C1728 C1723 1.350 . S
C1729 H1716 0.929 . S
C1729 C1721 1.433 . S
C1729 N1731 1.384 . S
N1730 C1726 1.427 . S
N1730 C1727 1.384 . S
N1731 C1723 1.427 . S
N1731 C1729 1.384 . S
H1732 C1738 0.930 . S
H1733 C1742 0.930 . S
H1734 C1747 0.929 . S
H1735 C1745 0.929 . S
H1736 C1740 0.929 . S
H1737 C1746 0.929 . S
C1738 H1732 0.930 . S
C1738 C1739 1.367 . S
C1738 C1746 1.378 . S
C1739 C1738 1.367 . S
C1739 C1747 1.433 . S
C1740 H1736 0.929 . S
C1740 C1742 1.378 . S
C1740 C1744 1.350 . S
C1741 C1744 1.463 . S
C1741 C1746 1.350 . S
C1741 N1749 1.427 . S
C1742 H1733 0.930 . S
C1742 C1740 1.378 . S
C1742 C1743 1.367 . S
C1743 C1742 1.367 . S
C1743 C1745 1.433 . S
C1744 C1740 1.350 . S
C1744 C1741 1.463 . S
C1744 N1748 1.427 . S
C1745 H1735 0.929 . S
C1745 C1743 1.433 . S
C1745 N1748 1.384 . S
C1746 H1737 0.929 . S
C1746 C1738 1.378 . S
C1746 C1741 1.350 . S
C1747 H1734 0.929 . S
C1747 C1739 1.433 . S
C1747 N1749 1.384 . S
N1748 C1744 1.427 . S
N1748 C1745 1.384 . S
N1749 C1741 1.427 . S
N1749 C1747 1.384 . S
H1750 C1756 0.930 . S
H1751 C1760 0.930 . S
H1752 C1765 0.929 . S
H1753 C1763 0.929 . S
H1754 C1758 0.929 . S
H1755 C1764 0.929 . S
C1756 H1750 0.930 . S
C1756 C1757 1.367 . S
C1756 C1764 1.378 . S
C1757 C1756 1.367 . S
C1757 C1765 1.433 . S
C1758 H1754 0.929 . S
C1758 C1760 1.378 . S
C1758 C1762 1.350 . S
C1759 C1762 1.463 . S
C1759 C1764 1.350 . S
C1759 N1767 1.427 . S
C1760 H1751 0.930 . S
C1760 C1758 1.378 . S
C1760 C1761 1.367 . S
C1761 C1760 1.367 . S
C1761 C1763 1.433 . S
C1762 C1758 1.350 . S
C1762 C1759 1.463 . S
C1762 N1766 1.427 . S
C1763 H1753 0.929 . S
C1763 C1761 1.433 . S
C1763 N1766 1.384 . S
C1764 H1755 0.929 . S
C1764 C1756 1.378 . S
C1764 C1759 1.350 . S
C1765 H1752 0.929 . S
C1765 C1757 1.433 . S
C1765 N1767 1.384 . S
N1766 C1762 1.427 . S
N1766 C1763 1.384 . S
N1767 C1759 1.427 . S
N1767 C1765 1.384 . S
H1768 C1774 0.930 . S
H1769 C1778 0.930 . S
H1770 C1783 0.929 . S
H1771 C1781 0.929 . S
H1772 C1776 0.929 . S
H1773 C1782 0.929 . S
C1774 H1768 0.930 . S
C1774 C1775 1.367 . S
C1774 C1782 1.378 . S
C1775 C1774 1.367 . S
C1775 C1783 1.433 . S
C1776 H1772 0.929 . S
C1776 C1778 1.378 . S
C1776 C1780 1.350 . S
C1777 C1780 1.463 1_545 S
C1777 C1782 1.350 . S
C1777 N1785 1.427 1_545 S
C1778 H1769 0.930 . S
C1778 C1776 1.378 . S
C1778 C1779 1.367 . S
C1779 C1778 1.367 . S
C1779 C1781 1.433 . S
C1780 C1776 1.350 . S
C1780 C1777 1.463 1_565 S
C1780 N1784 1.427 . S
C1781 H1771 0.929 . S
C1781 C1779 1.433 . S
C1781 N1784 1.384 . S
C1782 H1773 0.929 . S
C1782 C1774 1.378 . S
C1782 C1777 1.350 . S
C1783 H1770 0.929 . S
C1783 C1775 1.433 . S
C1783 N1785 1.384 1_545 S
N1784 C1780 1.427 . S
N1784 C1781 1.384 . S
N1785 C1777 1.427 1_565 S
N1785 C1783 1.384 1_565 S
H1786 C1792 0.930 . S
H1787 C1796 0.930 . S
H1788 C1801 0.929 . S
H1789 C1799 0.939 . S
H1790 C1794 0.929 . S
H1791 C1800 0.929 . S
C1792 H1786 0.930 . S
C1792 C1793 1.367 . S
C1792 C1800 1.378 . S
C1793 C1792 1.367 . S
C1793 C1801 1.433 . S
C1794 H1790 0.929 . S
C1794 C1796 1.378 . S
C1794 C1798 1.350 . S
C1795 C1798 1.463 . S
C1795 C1800 1.350 . S
C1795 N1803 1.427 . S
C1796 H1787 0.930 . S
C1796 C1794 1.378 . S
C1796 C1797 1.367 . S
C1797 C1796 1.367 . S
C1797 C1799 1.433 . S
C1798 C1794 1.350 . S
C1798 C1795 1.463 . S
C1798 N1802 1.427 . S
C1799 H1789 0.939 . S
C1799 C1797 1.433 . S
C1799 N1802 1.384 . S
C1800 H1791 0.929 . S
C1800 C1792 1.378 . S
C1800 C1795 1.350 . S
C1801 H1788 0.929 . S
C1801 C1793 1.433 . S
C1801 N1803 1.384 . S
N1802 C1798 1.427 . S
N1802 C1799 1.384 . S
N1803 C1795 1.427 . S
N1803 C1801 1.384 . S
H1804 C1810 0.930 . S
H1805 C1814 0.930 . S
H1806 C1819 0.929 . S
H1807 C1817 0.929 . S
H1808 C1812 0.929 . S
H1809 C1818 0.929 . S
C1810 H1804 0.930 . S
C1810 C1811 1.367 . S
C1810 C1818 1.378 . S
C1811 C1810 1.367 . S
C1811 C1819 1.433 . S
C1812 H1808 0.929 . S
C1812 C1814 1.378 . S
C1812 C1816 1.350 . S
C1813 C1816 1.463 . S
C1813 C1818 1.350 . S
C1813 N1821 1.427 . S
C1814 H1805 0.930 . S
C1814 C1812 1.378 . S
C1814 C1815 1.367 . S
C1815 C1814 1.367 . S
C1815 C1817 1.433 . S
C1816 C1812 1.350 . S
C1816 C1813 1.463 . S
C1816 N1820 1.427 . S
C1817 H1807 0.929 . S
C1817 C1815 1.433 . S
C1817 N1820 1.384 . S
C1818 H1809 0.929 . S
C1818 C1810 1.378 . S
C1818 C1813 1.350 . S
C1819 H1806 0.929 . S
C1819 C1811 1.433 . S
C1819 N1821 1.384 . S
N1820 C1816 1.427 . S
N1820 C1817 1.384 . S
N1821 C1813 1.427 . S
N1821 C1819 1.384 . S
H1822 C1828 0.930 . S
H1823 C1832 0.930 . S
H1824 C1837 0.929 . S
H1825 C1835 0.929 . S
H1826 C1830 0.929 . S
H1827 C1836 0.929 . S
C1828 H1822 0.930 . S
C1828 C1829 1.367 . S
C1828 C1836 1.378 . S
C1829 C1828 1.367 . S
C1829 C1837 1.433 . S
C1830 H1826 0.929 . S
C1830 C1832 1.378 . S
C1830 C1834 1.350 . S
C1831 C1834 1.463 . S
C1831 C1836 1.350 . S
C1831 N1839 1.427 . S
C1832 H1823 0.930 . S
C1832 C1830 1.378 . S
C1832 C1833 1.367 . S
C1833 C1832 1.367 . S
C1833 C1835 1.433 . S
C1834 C1830 1.350 . S
C1834 C1831 1.463 . S
C1834 N1838 1.427 . S
C1835 H1825 0.929 . S
C1835 C1833 1.433 . S
C1835 N1838 1.384 . S
C1836 H1827 0.929 . S
C1836 C1828 1.378 . S
C1836 C1831 1.350 . S
C1837 H1824 0.929 . S
C1837 C1829 1.433 . S
C1837 N1839 1.384 . S
N1838 C1834 1.427 . S
N1838 C1835 1.384 . S
N1839 C1831 1.427 . S
N1839 C1837 1.384 . S
H1840 C1846 0.930 . S
H1841 C1850 0.930 . S
H1842 C1855 0.929 . S
H1843 C1853 0.929 . S
H1844 C1848 0.929 . S
H1845 C1854 0.929 . S
C1846 H1840 0.930 . S
C1846 C1847 1.367 . S
C1846 C1854 1.378 . S
C1847 C1846 1.367 . S
C1847 C1855 1.433 . S
C1848 H1844 0.929 . S
C1848 C1850 1.378 . S
C1848 C1852 1.350 . S
C1849 C1852 1.463 . S
C1849 C1854 1.350 . S
C1849 N1857 1.427 . S
C1850 H1841 0.930 . S
C1850 C1848 1.378 . S
C1850 C1851 1.367 . S
C1851 C1850 1.367 . S
C1851 C1853 1.433 . S
C1852 C1848 1.350 . S
C1852 C1849 1.463 . S
C1852 N1856 1.427 . S
C1853 H1843 0.929 . S
C1853 C1851 1.433 . S
C1853 N1856 1.384 . S
C1854 H1845 0.929 . S
C1854 C1846 1.378 . S
C1854 C1849 1.350 . S
C1855 H1842 0.929 . S
C1855 C1847 1.433 . S
C1855 N1857 1.384 . S
N1856 C1852 1.427 . S
N1856 C1853 1.384 . S
N1857 C1849 1.427 . S
N1857 C1855 1.384 . S
H1858 C1864 0.930 . S
H1859 C1868 0.930 . S
H1860 C1873 0.929 . S
H1861 C1871 0.929 . S
H1862 C1866 0.929 . S
H1863 C1872 0.929 . S
C1864 H1858 0.930 . S
C1864 C1865 1.367 . S
C1864 C1872 1.378 . S
C1865 C1864 1.367 . S
C1865 C1873 1.433 . S
C1866 H1862 0.929 . S
C1866 C1868 1.378 . S
C1866 C1870 1.350 . S
C1867 C1870 1.463 . S
C1867 C1872 1.350 . S
C1867 N1875 1.427 . S
C1868 H1859 0.930 . S
C1868 C1866 1.378 . S
C1868 C1869 1.367 . S
C1869 C1868 1.367 . S
C1869 C1871 1.433 . S
C1870 C1866 1.350 . S
C1870 C1867 1.463 . S
C1870 N1874 1.427 . S
C1871 H1861 0.929 . S
C1871 C1869 1.433 . S
C1871 N1874 1.384 . S
C1872 H1863 0.929 . S
C1872 C1864 1.378 . S
C1872 C1867 1.350 . S
C1873 H1860 0.929 . S
C1873 C1865 1.433 . S
C1873 N1875 1.384 . S
N1874 C1870 1.427 . S
N1874 C1871 1.384 . S
N1875 C1867 1.427 . S
N1875 C1873 1.384 . S
H1876 C1882 0.930 . S
H1877 C1886 0.930 . S
H1878 C1891 0.929 1_655 S
H1879 C1889 0.929 . S
H1880 C1884 0.929 . S
H1881 C1890 0.929 . S
C1882 H1876 0.930 . S
C1882 C1883 1.367 1_554 S
C1882 C1890 1.378 . S
C1883 C1882 1.367 1_556 S
C1883 C1891 1.433 . S
C1884 H1880 0.929 . S
C1884 C1886 1.378 . S
C1884 C1888 1.350 1_556 S
C1885 C1888 1.463 . S
C1885 C1890 1.350 . S
C1885 N1893 1.427 1_554 S
C1886 H1877 0.930 . S
C1886 C1884 1.378 . S
C1886 C1887 1.367 1_556 S
C1887 C1886 1.367 1_554 S
C1887 C1889 1.433 . S
C1888 C1884 1.350 1_554 S
C1888 C1885 1.463 . S
C1888 N1892 1.427 . S
C1889 H1879 0.929 . S
C1889 C1887 1.433 . S
C1889 N1892 1.384 . S
C1890 H1881 0.929 . S
C1890 C1882 1.378 . S
C1890 C1885 1.350 . S
C1891 H1878 0.929 1_455 S
C1891 C1883 1.433 . S
C1891 N1893 1.384 . S
N1892 C1888 1.427 . S
N1892 C1889 1.384 . S
N1893 C1885 1.427 1_556 S
N1893 C1891 1.384 . S
H1894 C1900 0.930 . S
H1895 C1904 0.930 . S
H1896 C1909 0.929 . S
H1897 C1907 0.929 . S
H1898 C1902 0.929 . S
H1899 C1908 0.929 . S
C1900 H1894 0.930 . S
C1900 C1901 1.367 1_655 S
C1900 C1908 1.378 . S
C1901 C1900 1.367 1_455 S
C1901 C1909 1.433 . S
C1902 H1898 0.929 . S
C1902 C1904 1.378 . S
C1902 C1906 1.350 . S
C1903 C1906 1.463 . S
C1903 C1908 1.350 . S
C1903 N1911 1.427 . S
C1904 H1895 0.930 . S
C1904 C1902 1.378 . S
C1904 C1905 1.367 . S
C1905 C1904 1.367 . S
C1905 C1907 1.433 . S
C1906 C1902 1.350 . S
C1906 C1903 1.463 . S
C1906 N1910 1.427 . S
C1907 H1897 0.929 . S
C1907 C1905 1.433 . S
C1907 N1910 1.384 . S
C1908 H1899 0.929 . S
C1908 C1900 1.378 . S
C1908 C1903 1.350 . S
C1909 H1896 0.929 . S
C1909 C1901 1.433 . S
C1909 N1911 1.384 1_455 S
N1910 C1906 1.427 . S
N1910 C1907 1.384 . S
N1911 C1903 1.427 . S
N1911 C1909 1.384 1_655 S
H1912 C1918 0.930 . S
H1913 C1922 0.930 . S
H1914 C1927 0.929 . S
H1915 C1925 0.929 . S
H1916 C1920 0.929 . S
H1917 C1926 0.929 . S
C1918 H1912 0.930 . S
C1918 C1919 1.367 . S
C1918 C1926 1.378 . S
C1919 C1918 1.367 . S
C1919 C1927 1.433 . S
C1920 H1916 0.929 . S
C1920 C1922 1.378 . S
C1920 C1924 1.350 . S
C1921 C1924 1.463 . S
C1921 C1926 1.350 . S
C1921 N1929 1.427 . S
C1922 H1913 0.930 . S
C1922 C1920 1.378 . S
C1922 C1923 1.367 . S
C1923 C1922 1.367 . S
C1923 C1925 1.433 . S
C1924 C1920 1.350 . S
C1924 C1921 1.463 . S
C1924 N1928 1.427 . S
C1925 H1915 0.929 . S
C1925 C1923 1.433 . S
C1925 N1928 1.384 . S
C1926 H1917 0.929 . S
C1926 C1918 1.378 . S
C1926 C1921 1.350 . S
C1927 H1914 0.929 . S
C1927 C1919 1.433 . S
C1927 N1929 1.384 . S
N1928 C1924 1.427 . S
N1928 C1925 1.384 . S
N1929 C1921 1.427 . S
N1929 C1927 1.384 . S
H1930 C1936 0.930 . S
H1931 C1940 0.930 . S
H1932 C1945 0.929 . S
H1933 C1943 0.929 . S
H1934 C1938 0.929 . S
H1935 C1944 0.929 . S
C1936 H1930 0.930 . S
C1936 C1937 1.367 . S
C1936 C1944 1.378 . S
C1937 C1936 1.367 . S
C1937 C1945 1.433 . S
C1938 H1934 0.929 . S
C1938 C1940 1.378 . S
C1938 C1942 1.350 . S
C1939 C1942 1.463 . S
C1939 C1944 1.350 . S
C1939 N1947 1.427 . S
C1940 H1931 0.930 . S
C1940 C1938 1.378 . S
C1940 C1941 1.367 . S
C1941 C1940 1.367 . S
C1941 C1943 1.433 . S
C1942 C1938 1.350 . S
C1942 C1939 1.463 . S
C1942 N1946 1.427 . S
C1943 H1933 0.929 . S
C1943 C1941 1.433 . S
C1943 N1946 1.384 . S
C1944 H1935 0.929 . S
C1944 C1936 1.378 . S
C1944 C1939 1.350 . S
C1945 H1932 0.929 . S
C1945 C1937 1.433 . S
C1945 N1947 1.384 . S
N1946 C1942 1.427 . S
N1946 C1943 1.384 . S
N1947 C1939 1.427 . S
N1947 C1945 1.384 . S
H1948 C1954 0.930 1_655 S
H1949 C1958 0.930 . S
H1950 C1963 0.929 . S
H1951 C1961 0.929 1_655 S
H1952 C1956 0.929 . S
H1953 C1962 0.929 1_655 S
C1954 H1948 0.930 1_455 S
C1954 C1955 1.367 . S
C1954 C1962 1.378 . S
C1955 C1954 1.367 . S
C1955 C1963 1.433 . S
C1956 H1952 0.929 . S
C1956 C1958 1.378 . S
C1956 C1960 1.350 . S
C1957 C1960 1.463 . S
C1957 C1962 1.350 . S
C1957 N1965 1.427 . S
C1958 H1949 0.930 . S
C1958 C1956 1.378 . S
C1958 C1959 1.367 . S
C1959 C1958 1.367 . S
C1959 C1961 1.433 . S
C1960 C1956 1.350 . S
C1960 C1957 1.463 . S
C1960 N1964 1.427 . S
C1961 H1951 0.929 1_455 S
C1961 C1959 1.433 . S
C1961 N1964 1.384 . S
C1962 H1953 0.929 1_455 S
C1962 C1954 1.378 . S
C1962 C1957 1.350 . S
C1963 H1950 0.929 . S
C1963 C1955 1.433 . S
C1963 N1965 1.384 . S
N1964 C1960 1.427 . S
N1964 C1961 1.384 . S
N1965 C1957 1.427 . S
N1965 C1963 1.384 . S
H1966 C1972 0.930 . S
H1967 C1976 0.930 . S
H1968 C1981 0.929 . S
H1969 C1979 0.929 . S
H1970 C1974 0.929 . S
H1971 C1980 0.929 . S
C1972 H1966 0.930 . S
C1972 C1973 1.367 . S
C1972 C1980 1.378 . S
C1973 C1972 1.367 . S
C1973 C1981 1.433 . S
C1974 H1970 0.929 . S
C1974 C1976 1.378 . S
C1974 C1978 1.350 . S
C1975 C1978 1.463 . S
C1975 C1980 1.350 . S
C1975 N1983 1.427 . S
C1976 H1967 0.930 . S
C1976 C1974 1.378 . S
C1976 C1977 1.367 . S
C1977 C1976 1.367 . S
C1977 C1979 1.433 . S
C1978 C1974 1.350 . S
C1978 C1975 1.463 . S
C1978 N1982 1.427 . S
C1979 H1969 0.929 . S
C1979 C1977 1.433 . S
C1979 N1982 1.384 . S
C1980 H1971 0.929 . S
C1980 C1972 1.378 . S
C1980 C1975 1.350 . S
C1981 H1968 0.929 . S
C1981 C1973 1.433 . S
C1981 N1983 1.384 . S
N1982 C1978 1.427 . S
N1982 C1979 1.384 . S
N1983 C1975 1.427 . S
N1983 C1981 1.384 . S
H1984 C1990 0.930 . S
H1985 C1994 0.930 . S
H1986 C1999 0.929 . S
H1987 C1997 0.929 . S
H1988 C1992 0.929 . S
H1989 C1998 0.929 . S
C1990 H1984 0.930 . S
C1990 C1991 1.367 . S
C1990 C1998 1.378 . S
C1991 C1990 1.367 . S
C1991 C1999 1.433 . S
C1992 H1988 0.929 . S
C1992 C1994 1.378 . S
C1992 C1996 1.350 . S
C1993 C1996 1.463 . S
C1993 C1998 1.350 . S
C1993 N2001 1.427 . S
C1994 H1985 0.930 . S
C1994 C1992 1.378 . S
C1994 C1995 1.367 . S
C1995 C1994 1.367 . S
C1995 C1997 1.433 . S
C1996 C1992 1.350 . S
C1996 C1993 1.463 . S
C1996 N2000 1.427 . S
C1997 H1987 0.929 . S
C1997 C1995 1.433 . S
C1997 N2000 1.384 . S
C1998 H1989 0.929 . S
C1998 C1990 1.378 . S
C1998 C1993 1.350 . S
C1999 H1986 0.929 . S
C1999 C1991 1.433 . S
C1999 N2001 1.384 . S
N2000 C1996 1.427 . S
N2000 C1997 1.384 . S
N2001 C1993 1.427 . S
N2001 C1999 1.384 . S
H2002 C2008 0.930 . S
H2003 C2012 0.930 . S
H2004 C2017 0.924 . S
H2005 C2015 0.929 . S
H2006 C2010 0.929 . S
H2007 C2016 0.929 . S
C2008 H2002 0.930 . S
C2008 C2009 1.367 . S
C2008 C2016 1.378 . S
C2009 C2008 1.367 . S
C2009 C2017 1.406 1_554 S
C2010 H2006 0.929 . S
C2010 C2012 1.378 . S
C2010 C2014 1.350 . S
C2011 C2014 1.463 . S
C2011 C2016 1.350 1_556 S
C2011 N2019 1.427 . S
C2012 H2003 0.930 . S
C2012 C2010 1.378 . S
C2012 C2013 1.367 . S
C2013 C2012 1.367 . S
C2013 C2015 1.433 . S
C2014 C2010 1.350 . S
C2014 C2011 1.463 . S
C2014 N2018 1.427 . S
C2015 H2005 0.929 . S
C2015 C2013 1.433 . S
C2015 N2018 1.384 . S
C2016 H2007 0.929 . S
C2016 C2008 1.378 . S
C2016 C2011 1.350 1_554 S
C2017 H2004 0.924 . S
C2017 C2009 1.406 1_556 S
C2017 N2019 1.418 . S
N2018 C2014 1.427 . S
N2018 C2015 1.384 . S
N2019 C2011 1.427 . S
N2019 C2017 1.418 . S
H2020 C2026 0.930 . S
H2021 C2030 0.930 . S
H2022 C2035 0.929 . S
H2023 C2033 0.929 . S
H2024 C2028 0.929 . S
H2025 C2034 0.929 . S
C2026 H2020 0.930 . S
C2026 C2027 1.367 . S
C2026 C2034 1.378 . S
C2027 C2026 1.367 . S
C2027 C2035 1.433 . S
C2028 H2024 0.929 . S
C2028 C2030 1.378 . S
C2028 C2032 1.350 . S
C2029 C2032 1.463 . S
C2029 C2034 1.350 . S
C2029 N2037 1.427 . S
C2030 H2021 0.930 . S
C2030 C2028 1.378 . S
C2030 C2031 1.367 . S
C2031 C2030 1.367 . S
C2031 C2033 1.433 . S
C2032 C2028 1.350 . S
C2032 C2029 1.463 . S
C2032 N2036 1.427 . S
C2033 H2023 0.929 . S
C2033 C2031 1.433 . S
C2033 N2036 1.384 . S
C2034 H2025 0.929 . S
C2034 C2026 1.378 . S
C2034 C2029 1.350 . S
C2035 H2022 0.929 . S
C2035 C2027 1.433 . S
C2035 N2037 1.384 . S
N2036 C2032 1.427 . S
N2036 C2033 1.384 . S
N2037 C2029 1.427 . S
N2037 C2035 1.384 . S
H2038 C2044 0.930 . S
H2039 C2048 0.930 . S
H2040 C2053 0.929 . S
H2041 C2051 0.929 . S
H2042 C2046 0.929 . S
H2043 C2052 0.929 . S
C2044 H2038 0.930 . S
C2044 C2045 1.367 . S
C2044 C2052 1.378 . S
C2045 C2044 1.367 . S
C2045 C2053 1.433 . S
C2046 H2042 0.929 . S
C2046 C2048 1.378 . S
C2046 C2050 1.350 . S
C2047 C2050 1.463 . S
C2047 C2052 1.350 . S
C2047 N2055 1.427 . S
C2048 H2039 0.930 . S
C2048 C2046 1.378 . S
C2048 C2049 1.367 . S
C2049 C2048 1.367 . S
C2049 C2051 1.433 . S
C2050 C2046 1.350 . S
C2050 C2047 1.463 . S
C2050 N2054 1.427 . S
C2051 H2041 0.929 . S
C2051 C2049 1.433 . S
C2051 N2054 1.384 . S
C2052 H2043 0.929 . S
C2052 C2044 1.378 . S
C2052 C2047 1.350 . S
C2053 H2040 0.929 . S
C2053 C2045 1.433 . S
C2053 N2055 1.384 . S
N2054 C2050 1.427 . S
N2054 C2051 1.384 . S
N2055 C2047 1.427 . S
N2055 C2053 1.384 . S
H2056 C2062 0.930 . S
H2057 C2066 0.930 . S
H2058 C2071 0.929 . S
H2059 C2069 0.929 . S
H2060 C2064 0.929 . S
H2061 C2070 0.929 . S
C2062 H2056 0.930 . S
C2062 C2063 1.367 . S
C2062 C2070 1.378 . S
C2063 C2062 1.367 . S
C2063 C2071 1.433 . S
C2064 H2060 0.929 . S
C2064 C2066 1.378 . S
C2064 C2068 1.350 . S
C2065 C2068 1.463 . S
C2065 C2070 1.350 . S
C2065 N2073 1.427 . S
C2066 H2057 0.930 . S
C2066 C2064 1.378 . S
C2066 C2067 1.367 . S
C2067 C2066 1.367 . S
C2067 C2069 1.433 . S
C2068 C2064 1.350 . S
C2068 C2065 1.463 . S
C2068 N2072 1.427 . S
C2069 H2059 0.929 . S
C2069 C2067 1.433 . S
C2069 N2072 1.384 . S
C2070 H2061 0.929 . S
C2070 C2062 1.378 . S
C2070 C2065 1.350 . S
C2071 H2058 0.929 . S
C2071 C2063 1.433 . S
C2071 N2073 1.384 . S
N2072 C2068 1.427 . S
N2072 C2069 1.384 . S
N2073 C2065 1.427 . S
N2073 C2071 1.384 . S
H2074 C2080 0.930 . S
H2075 C2084 0.930 . S
H2076 C2089 0.929 . S
H2077 C2087 0.929 . S
H2078 C2082 0.929 . S
H2079 C2088 0.929 . S
C2080 H2074 0.930 . S
C2080 C2081 1.367 . S
C2080 C2088 1.378 . S
C2081 C2080 1.367 . S
C2081 C2089 1.433 . S
C2082 H2078 0.929 . S
C2082 C2084 1.378 . S
C2082 C2086 1.350 . S
C2083 C2086 1.463 . S
C2083 C2088 1.350 . S
C2083 N2091 1.427 . S
C2084 H2075 0.930 . S
C2084 C2082 1.378 . S
C2084 C2085 1.367 . S
C2085 C2084 1.367 . S
C2085 C2087 1.433 . S
C2086 C2082 1.350 . S
C2086 C2083 1.463 . S
C2086 N2090 1.427 . S
C2087 H2077 0.929 . S
C2087 C2085 1.433 . S
C2087 N2090 1.384 . S
C2088 H2079 0.929 . S
C2088 C2080 1.378 . S
C2088 C2083 1.350 . S
C2089 H2076 0.929 . S
C2089 C2081 1.433 . S
C2089 N2091 1.384 . S
N2090 C2086 1.427 . S
N2090 C2087 1.384 . S
N2091 C2083 1.427 . S
N2091 C2089 1.384 . S
H2092 C2098 0.930 . S
H2093 C2102 0.930 . S
H2094 C2107 0.929 . S
H2095 C2105 0.929 . S
H2096 C2100 0.929 . S
H2097 C2106 0.929 . S
C2098 H2092 0.930 . S
C2098 C2099 1.367 . S
C2098 C2106 1.378 . S
C2099 C2098 1.367 . S
C2099 C2107 1.433 . S
C2100 H2096 0.929 . S
C2100 C2102 1.378 . S
C2100 C2104 1.350 . S
C2101 C2104 1.463 . S
C2101 C2106 1.350 . S
C2101 N2109 1.427 . S
C2102 H2093 0.930 . S
C2102 C2100 1.378 . S
C2102 C2103 1.367 . S
C2103 C2102 1.367 . S
C2103 C2105 1.433 . S
C2104 C2100 1.350 . S
C2104 C2101 1.463 . S
C2104 N2108 1.427 . S
C2105 H2095 0.929 . S
C2105 C2103 1.433 . S
C2105 N2108 1.384 . S
C2106 H2097 0.929 . S
C2106 C2098 1.378 . S
C2106 C2101 1.350 . S
C2107 H2094 0.929 . S
C2107 C2099 1.433 . S
C2107 N2109 1.384 . S
N2108 C2104 1.427 . S
N2108 C2105 1.384 . S
N2109 C2101 1.427 . S
N2109 C2107 1.384 . S
H2110 C2116 0.930 . S
H2111 C2120 0.930 . S
H2112 C2125 0.929 . S
H2113 C2123 0.929 . S
H2114 C2118 0.929 . S
H2115 C2124 0.929 . S
C2116 H2110 0.930 . S
C2116 C2117 1.367 . S
C2116 C2124 1.378 . S
C2117 C2116 1.367 . S
C2117 C2125 1.433 . S
C2118 H2114 0.929 . S
C2118 C2120 1.378 . S
C2118 C2122 1.350 . S
C2119 C2122 1.463 . S
C2119 C2124 1.350 . S
C2119 N2127 1.427 . S
C2120 H2111 0.930 . S
C2120 C2118 1.378 . S
C2120 C2121 1.367 . S
C2121 C2120 1.367 . S
C2121 C2123 1.433 . S
C2122 C2118 1.350 . S
C2122 C2119 1.463 . S
C2122 N2126 1.427 . S
C2123 H2113 0.929 . S
C2123 C2121 1.433 . S
C2123 N2126 1.384 . S
C2124 H2115 0.929 . S
C2124 C2116 1.378 . S
C2124 C2119 1.350 . S
C2125 H2112 0.929 . S
C2125 C2117 1.433 . S
C2125 N2127 1.384 . S
N2126 C2122 1.427 . S
N2126 C2123 1.384 . S
N2127 C2119 1.427 . S
N2127 C2125 1.384 . S
H2128 C2134 0.930 . S
H2129 C2138 0.930 . S
H2130 C2143 0.929 . S
H2131 C2141 0.929 . S
H2132 C2136 0.929 . S
H2133 C2142 0.929 . S
C2134 H2128 0.930 . S
C2134 C2135 1.367 . S
C2134 C2142 1.378 . S
C2135 C2134 1.367 . S
C2135 C2143 1.433 . S
C2136 H2132 0.929 . S
C2136 C2138 1.378 . S
C2136 C2140 1.350 . S
C2137 C2140 1.463 . S
C2137 C2142 1.350 . S
C2137 N2145 1.427 . S
C2138 H2129 0.930 . S
C2138 C2136 1.378 . S
C2138 C2139 1.367 . S
C2139 C2138 1.367 . S
C2139 C2141 1.433 . S
C2140 C2136 1.350 . S
C2140 C2137 1.463 . S
C2140 N2144 1.427 . S
C2141 H2131 0.929 . S
C2141 C2139 1.433 . S
C2141 N2144 1.384 . S
C2142 H2133 0.929 . S
C2142 C2134 1.378 . S
C2142 C2137 1.350 . S
C2143 H2130 0.929 . S
C2143 C2135 1.433 . S
C2143 N2145 1.384 . S
N2144 C2140 1.427 . S
N2144 C2141 1.384 . S
N2145 C2137 1.427 . S
N2145 C2143 1.384 . S
H2146 C2152 0.930 . S
H2147 C2156 0.930 . S
H2148 C2161 0.929 . S
H2149 C2159 0.929 . S
H2150 C2154 0.929 . S
H2151 C2160 0.929 . S
C2152 H2146 0.930 . S
C2152 C2153 1.367 . S
C2152 C2160 1.378 . S
C2153 C2152 1.367 . S
C2153 C2161 1.433 . S
C2154 H2150 0.929 . S
C2154 C2156 1.378 . S
C2154 C2158 1.350 . S
C2155 C2158 1.463 . S
C2155 C2160 1.350 . S
C2155 N2163 1.427 . S
C2156 H2147 0.930 . S
C2156 C2154 1.378 . S
C2156 C2157 1.367 . S
C2157 C2156 1.367 . S
C2157 C2159 1.433 . S
C2158 C2154 1.350 . S
C2158 C2155 1.463 . S
C2158 N2162 1.427 . S
C2159 H2149 0.929 . S
C2159 C2157 1.433 . S
C2159 N2162 1.384 . S
C2160 H2151 0.929 . S
C2160 C2152 1.378 . S
C2160 C2155 1.350 . S
C2161 H2148 0.929 . S
C2161 C2153 1.433 . S
C2161 N2163 1.384 . S
N2162 C2158 1.427 . S
N2162 C2159 1.384 . S
N2163 C2155 1.427 . S
N2163 C2161 1.384 . S
H2164 C2170 0.930 . S
H2165 C2174 0.930 . S
H2166 C2179 0.929 . S
H2167 C2177 0.929 . S
H2168 C2172 0.929 . S
H2169 C2178 0.929 . S
C2170 H2164 0.930 . S
C2170 C2171 1.367 1_565 S
C2170 C2178 1.378 . S
C2171 C2170 1.367 1_545 S
C2171 C2179 1.433 . S
C2172 H2168 0.929 . S
C2172 C2174 1.378 . S
C2172 C2176 1.350 . S
C2173 C2176 1.463 . S
C2173 C2178 1.350 . S
C2173 N2181 1.427 . S
C2174 H2165 0.930 . S
C2174 C2172 1.378 . S
C2174 C2175 1.367 . S
C2175 C2174 1.367 . S
C2175 C2177 1.433 . S
C2176 C2172 1.350 . S
C2176 C2173 1.463 . S
C2176 N2180 1.427 . S
C2177 H2167 0.929 . S
C2177 C2175 1.433 . S
C2177 N2180 1.384 . S
C2178 H2169 0.929 . S
C2178 C2170 1.378 . S
C2178 C2173 1.350 . S
C2179 H2166 0.929 . S
C2179 C2171 1.433 . S
C2179 N2181 1.384 1_545 S
N2180 C2176 1.427 . S
N2180 C2177 1.384 . S
N2181 C2173 1.427 . S
N2181 C2179 1.384 1_565 S
H2182 C2188 0.930 . S
H2183 C2192 0.930 1_556 S
H2184 C2197 0.929 . S
H2185 C2195 0.929 . S
H2186 C2190 0.929 . S
H2187 C2196 0.929 . S
C2188 H2182 0.930 . S
C2188 C2189 1.367 . S
C2188 C2196 1.378 . S
C2189 C2188 1.367 . S
C2189 C2197 1.433 1_554 S
C2190 H2186 0.929 . S
C2190 C2192 1.378 1_566 S
C2190 C2194 1.349 1_556 S
C2191 C2194 1.463 . S
C2191 C2196 1.350 . S
C2191 N2199 1.427 1_554 S
C2192 H2183 0.930 1_554 S
C2192 C2190 1.378 1_544 S
C2192 C2193 1.367 . S
C2193 C2192 1.367 . S
C2193 C2195 1.433 . S
C2194 C2190 1.349 1_554 S
C2194 C2191 1.463 . S
C2194 N2198 1.429 1_565 S
C2195 H2185 0.929 . S
C2195 C2193 1.433 . S
C2195 N2198 1.388 . S
C2196 H2187 0.929 . S
C2196 C2188 1.378 . S
C2196 C2191 1.350 . S
C2197 H2184 0.929 . S
C2197 C2189 1.433 1_556 S
C2197 N2199 1.384 . S
N2198 C2194 1.429 1_545 S
N2198 C2195 1.388 . S
N2199 C2191 1.427 1_556 S
N2199 C2197 1.384 . S
H2200 C2206 0.930 . S
H2201 C2210 0.930 . S
H2202 C2215 0.929 . S
H2203 C2213 0.929 . S
H2204 C2208 0.929 . S
H2205 C2214 0.929 . S
C2206 H2200 0.930 . S
C2206 C2207 1.367 . S
C2206 C2214 1.378 . S
C2207 C2206 1.367 . S
C2207 C2215 1.433 . S
C2208 H2204 0.929 . S
C2208 C2210 1.378 . S
C2208 C2212 1.350 . S
C2209 C2212 1.463 . S
C2209 C2214 1.350 . S
C2209 N2217 1.427 . S
C2210 H2201 0.930 . S
C2210 C2208 1.378 . S
C2210 C2211 1.367 . S
C2211 C2210 1.367 . S
C2211 C2213 1.433 . S
C2212 C2208 1.350 . S
C2212 C2209 1.463 . S
C2212 N2216 1.427 . S
C2213 H2203 0.929 . S
C2213 C2211 1.433 . S
C2213 N2216 1.384 . S
C2214 H2205 0.929 . S
C2214 C2206 1.378 . S
C2214 C2209 1.350 . S
C2215 H2202 0.929 . S
C2215 C2207 1.433 . S
C2215 N2217 1.384 . S
N2216 C2212 1.427 . S
N2216 C2213 1.384 . S
N2217 C2209 1.427 . S
N2217 C2215 1.384 . S
H2218 C2224 0.930 . S
H2219 C2228 0.930 . S
H2220 C2233 0.929 1_556 S
H2221 C2231 0.929 . S
H2222 C2226 0.929 . S
H2223 C2232 0.929 . S
C2224 H2218 0.930 . S
C2224 C2225 1.367 . S
C2224 C2232 1.378 . S
C2225 C2224 1.367 . S
C2225 C2233 1.433 . S
C2226 H2222 0.929 . S
C2226 C2228 1.378 . S
C2226 C2230 1.350 . S
C2227 C2230 1.463 . S
C2227 C2232 1.350 . S
C2227 N2235 1.427 . S
C2228 H2219 0.930 . S
C2228 C2226 1.378 . S
C2228 C2229 1.367 . S
C2229 C2228 1.367 . S
C2229 C2231 1.433 . S
C2230 C2226 1.350 . S
C2230 C2227 1.463 . S
C2230 N2234 1.427 . S
C2231 H2221 0.929 . S
C2231 C2229 1.433 . S
C2231 N2234 1.384 . S
C2232 H2223 0.929 . S
C2232 C2224 1.378 . S
C2232 C2227 1.350 . S
C2233 H2220 0.929 1_554 S
C2233 C2225 1.433 . S
C2233 N2235 1.384 . S
N2234 C2230 1.427 . S
N2234 C2231 1.384 . S
N2235 C2227 1.427 . S
N2235 C2233 1.384 . S
H2236 C2242 0.930 . S
H2237 C2246 0.930 . S
H2238 C2251 0.929 . S
H2239 C2249 0.929 . S
H2240 C2244 0.929 . S
H2241 C2250 0.929 . S
C2242 H2236 0.930 . S
C2242 C2243 1.367 . S
C2242 C2250 1.378 . S
C2243 C2242 1.367 . S
C2243 C2251 1.433 . S
C2244 H2240 0.929 . S
C2244 C2246 1.378 . S
C2244 C2248 1.350 . S
C2245 C2248 1.463 . S
C2245 C2250 1.350 . S
C2245 N2253 1.427 . S
C2246 H2237 0.930 . S
C2246 C2244 1.378 . S
C2246 C2247 1.367 . S
C2247 C2246 1.367 . S
C2247 C2249 1.433 . S
C2248 C2244 1.350 . S
C2248 C2245 1.463 . S
C2248 N2252 1.427 . S
C2249 H2239 0.929 . S
C2249 C2247 1.433 . S
C2249 N2252 1.384 . S
C2250 H2241 0.929 . S
C2250 C2242 1.378 . S
C2250 C2245 1.350 . S
C2251 H2238 0.929 . S
C2251 C2243 1.433 . S
C2251 N2253 1.384 . S
N2252 C2248 1.427 . S
N2252 C2249 1.384 . S
N2253 C2245 1.427 . S
N2253 C2251 1.384 . S
H2254 C2260 0.930 . S
H2255 C2264 0.930 . S
H2256 C2269 0.929 . S
H2257 C2267 0.929 . S
H2258 C2262 0.929 . S
H2259 C2268 0.929 . S
C2260 H2254 0.930 . S
C2260 C2261 1.367 . S
C2260 C2268 1.378 . S
C2261 C2260 1.367 . S
C2261 C2269 1.433 . S
C2262 H2258 0.929 . S
C2262 C2264 1.378 . S
C2262 C2266 1.350 . S
C2263 C2266 1.463 . S
C2263 C2268 1.350 . S
C2263 N2271 1.427 . S
C2264 H2255 0.930 . S
C2264 C2262 1.378 . S
C2264 C2265 1.367 . S
C2265 C2264 1.367 . S
C2265 C2267 1.433 . S
C2266 C2262 1.350 . S
C2266 C2263 1.463 . S
C2266 N2270 1.427 . S
C2267 H2257 0.929 . S
C2267 C2265 1.433 . S
C2267 N2270 1.384 . S
C2268 H2259 0.929 . S
C2268 C2260 1.378 . S
C2268 C2263 1.350 . S
C2269 H2256 0.929 . S
C2269 C2261 1.433 . S
C2269 N2271 1.384 . S
N2270 C2266 1.427 . S
N2270 C2267 1.384 . S
N2271 C2263 1.427 . S
N2271 C2269 1.384 . S
H2272 C2278 0.930 . S
H2273 C2282 0.930 . S
H2274 C2287 0.929 . S
H2275 C2285 0.929 . S
H2276 C2280 0.929 . S
H2277 C2286 0.929 . S
C2278 H2272 0.930 . S
C2278 C2279 1.367 . S
C2278 C2286 1.378 . S
C2279 C2278 1.367 . S
C2279 C2287 1.433 . S
C2280 H2276 0.929 . S
C2280 C2282 1.378 . S
C2280 C2284 1.350 . S
C2281 C2284 1.463 . S
C2281 C2286 1.350 . S
C2281 N2289 1.427 . S
C2282 H2273 0.930 . S
C2282 C2280 1.378 . S
C2282 C2283 1.367 . S
C2283 C2282 1.367 . S
C2283 C2285 1.433 . S
C2284 C2280 1.350 . S
C2284 C2281 1.463 . S
C2284 N2288 1.427 . S
C2285 H2275 0.929 . S
C2285 C2283 1.433 . S
C2285 N2288 1.384 . S
C2286 H2277 0.929 . S
C2286 C2278 1.378 . S
C2286 C2281 1.350 . S
C2287 H2274 0.929 . S
C2287 C2279 1.433 . S
C2287 N2289 1.384 . S
N2288 C2284 1.427 . S
N2288 C2285 1.384 . S
N2289 C2281 1.427 . S
N2289 C2287 1.384 . S
H2290 C2296 0.930 . S
H2291 C2300 0.930 . S
H2292 C2305 0.929 . S
H2293 C2303 0.929 . S
H2294 C2298 0.929 . S
H2295 C2304 0.929 . S
C2296 H2290 0.930 . S
C2296 C2297 1.367 . S
C2296 C2304 1.378 . S
C2297 C2296 1.367 . S
C2297 C2305 1.433 . S
C2298 H2294 0.929 . S
C2298 C2300 1.378 . S
C2298 C2302 1.350 . S
C2299 C2302 1.463 . S
C2299 C2304 1.350 . S
C2299 N2307 1.427 . S
C2300 H2291 0.930 . S
C2300 C2298 1.378 . S
C2300 C2301 1.367 . S
C2301 C2300 1.367 . S
C2301 C2303 1.433 . S
C2302 C2298 1.350 . S
C2302 C2299 1.463 . S
C2302 N2306 1.427 . S
C2303 H2293 0.929 . S
C2303 C2301 1.433 . S
C2303 N2306 1.384 . S
C2304 H2295 0.929 . S
C2304 C2296 1.378 . S
C2304 C2299 1.350 . S
C2305 H2292 0.929 . S
C2305 C2297 1.433 . S
C2305 N2307 1.384 . S
N2306 C2302 1.427 . S
N2306 C2303 1.384 . S
N2307 C2299 1.427 . S
N2307 C2305 1.384 . S
H2308 C2314 0.930 . S
H2309 C2318 0.930 . S
H2310 C2323 0.929 . S
H2311 C2321 0.929 . S
H2312 C2316 0.929 . S
H2313 C2322 0.929 . S
C2314 H2308 0.930 . S
C2314 C2315 1.367 . S
C2314 C2322 1.378 . S
C2315 C2314 1.367 . S
C2315 C2323 1.433 . S
C2316 H2312 0.929 . S
C2316 C2318 1.378 . S
C2316 C2320 1.350 . S
C2317 C2320 1.463 . S
C2317 C2322 1.350 . S
C2317 N2325 1.427 . S
C2318 H2309 0.930 . S
C2318 C2316 1.378 . S
C2318 C2319 1.367 . S
C2319 C2318 1.367 . S
C2319 C2321 1.433 . S
C2320 C2316 1.350 . S
C2320 C2317 1.463 . S
C2320 N2324 1.427 . S
C2321 H2311 0.929 . S
C2321 C2319 1.433 . S
C2321 N2324 1.384 . S
C2322 H2313 0.929 . S
C2322 C2314 1.378 . S
C2322 C2317 1.350 . S
C2323 H2310 0.929 . S
C2323 C2315 1.433 . S
C2323 N2325 1.384 . S
N2324 C2320 1.427 . S
N2324 C2321 1.384 . S
N2325 C2317 1.427 . S
N2325 C2323 1.384 . S
H2326 C2332 0.930 . S
H2327 C2336 0.930 . S
H2328 C2341 0.929 . S
H2329 C2339 0.929 . S
H2330 C2334 0.929 . S
H2331 C2340 0.929 . S
C2332 H2326 0.930 . S
C2332 C2333 1.367 . S
C2332 C2340 1.378 . S
C2333 C2332 1.367 . S
C2333 C2341 1.433 . S
C2334 H2330 0.929 . S
C2334 C2336 1.378 . S
C2334 C2338 1.350 . S
C2335 C2338 1.463 . S
C2335 C2340 1.350 . S
C2335 N2343 1.427 . S
C2336 H2327 0.930 . S
C2336 C2334 1.378 . S
C2336 C2337 1.367 . S
C2337 C2336 1.367 . S
C2337 C2339 1.433 . S
C2338 C2334 1.350 . S
C2338 C2335 1.463 . S
C2338 N2342 1.427 . S
C2339 H2329 0.929 . S
C2339 C2337 1.433 . S
C2339 N2342 1.384 . S
C2340 H2331 0.929 . S
C2340 C2332 1.378 . S
C2340 C2335 1.350 . S
C2341 H2328 0.929 . S
C2341 C2333 1.433 . S
C2341 N2343 1.384 . S
N2342 C2338 1.427 . S
N2342 C2339 1.384 . S
N2343 C2335 1.427 . S
N2343 C2341 1.384 . S
H2344 C2350 0.930 . S
H2345 C2354 0.930 . S
H2346 C2359 0.929 . S
H2347 C2357 0.929 . S
H2348 C2352 0.929 . S
H2349 C2358 0.929 . S
C2350 H2344 0.930 . S
C2350 C2351 1.367 . S
C2350 C2358 1.378 . S
C2351 C2350 1.367 . S
C2351 C2359 1.433 . S
C2352 H2348 0.929 . S
C2352 C2354 1.378 . S
C2352 C2356 1.350 . S
C2353 C2356 1.463 . S
C2353 C2358 1.350 . S
C2353 N2361 1.427 . S
C2354 H2345 0.930 . S
C2354 C2352 1.378 . S
C2354 C2355 1.367 . S
C2355 C2354 1.367 . S
C2355 C2357 1.433 . S
C2356 C2352 1.350 . S
C2356 C2353 1.463 . S
C2356 N2360 1.427 . S
C2357 H2347 0.929 . S
C2357 C2355 1.433 . S
C2357 N2360 1.384 . S
C2358 H2349 0.929 . S
C2358 C2350 1.378 . S
C2358 C2353 1.350 . S
C2359 H2346 0.929 . S
C2359 C2351 1.433 . S
C2359 N2361 1.384 . S
N2360 C2356 1.427 . S
N2360 C2357 1.384 . S
N2361 C2353 1.427 . S
N2361 C2359 1.384 . S
H2362 C2368 0.930 . S
H2363 C2372 0.930 . S
H2364 C2377 0.929 . S
H2365 C2375 0.929 . S
H2366 C2370 0.929 . S
H2367 C2376 0.929 . S
C2368 H2362 0.930 . S
C2368 C2369 1.367 . S
C2368 C2376 1.378 . S
C2369 C2368 1.367 . S
C2369 C2377 1.433 . S
C2370 H2366 0.929 . S
C2370 C2372 1.378 . S
C2370 C2374 1.350 . S
C2371 C2374 1.463 . S
C2371 C2376 1.350 . S
C2371 N2379 1.427 . S
C2372 H2363 0.930 . S
C2372 C2370 1.378 . S
C2372 C2373 1.367 . S
C2373 C2372 1.367 . S
C2373 C2375 1.433 . S
C2374 C2370 1.350 . S
C2374 C2371 1.463 . S
C2374 N2378 1.427 . S
C2375 H2365 0.929 . S
C2375 C2373 1.433 . S
C2375 N2378 1.384 . S
C2376 H2367 0.929 . S
C2376 C2368 1.378 . S
C2376 C2371 1.350 . S
C2377 H2364 0.929 . S
C2377 C2369 1.433 . S
C2377 N2379 1.384 . S
N2378 C2374 1.427 . S
N2378 C2375 1.384 . S
N2379 C2371 1.427 . S
N2379 C2377 1.384 . S
H2380 C2386 0.930 . S
H2381 C2390 0.930 . S
H2382 C2395 0.929 . S
H2383 C2393 0.929 . S
H2384 C2388 0.929 . S
H2385 C2394 0.929 . S
C2386 H2380 0.930 . S
C2386 C2387 1.367 . S
C2386 C2394 1.378 . S
C2387 C2386 1.367 . S
C2387 C2395 1.433 . S
C2388 H2384 0.929 . S
C2388 C2390 1.378 . S
C2388 C2392 1.350 . S
C2389 C2392 1.463 . S
C2389 C2394 1.350 . S
C2389 N2397 1.427 . S
C2390 H2381 0.930 . S
C2390 C2388 1.378 . S
C2390 C2391 1.367 . S
C2391 C2390 1.367 . S
C2391 C2393 1.433 . S
C2392 C2388 1.350 . S
C2392 C2389 1.463 . S
C2392 N2396 1.427 . S
C2393 H2383 0.929 . S
C2393 C2391 1.433 . S
C2393 N2396 1.384 . S
C2394 H2385 0.929 . S
C2394 C2386 1.378 . S
C2394 C2389 1.350 . S
C2395 H2382 0.929 . S
C2395 C2387 1.433 . S
C2395 N2397 1.384 . S
N2396 C2392 1.427 . S
N2396 C2393 1.384 . S
N2397 C2389 1.427 . S
N2397 C2395 1.384 . S
H2398 C2404 0.930 . S
H2399 C2408 0.930 . S
H2400 C2413 0.929 . S
H2401 C2411 0.929 . S
H2402 C2406 0.929 . S
H2403 C2412 0.929 . S
C2404 H2398 0.930 . S
C2404 C2405 1.367 . S
C2404 C2412 1.378 . S
C2405 C2404 1.367 . S
C2405 C2413 1.433 . S
C2406 H2402 0.929 . S
C2406 C2408 1.378 . S
C2406 C2410 1.350 . S
C2407 C2410 1.463 . S
C2407 C2412 1.350 . S
C2407 N2415 1.427 . S
C2408 H2399 0.930 . S
C2408 C2406 1.378 . S
C2408 C2409 1.367 . S
C2409 C2408 1.367 . S
C2409 C2411 1.433 . S
C2410 C2406 1.350 . S
C2410 C2407 1.463 . S
C2410 N2414 1.427 . S
C2411 H2401 0.929 . S
C2411 C2409 1.433 . S
C2411 N2414 1.384 . S
C2412 H2403 0.929 . S
C2412 C2404 1.378 . S
C2412 C2407 1.350 . S
C2413 H2400 0.929 . S
C2413 C2405 1.433 . S
C2413 N2415 1.384 . S
N2414 C2410 1.427 . S
N2414 C2411 1.384 . S
N2415 C2407 1.427 . S
N2415 C2413 1.384 . S
H2416 C2422 0.930 . S
H2417 C2426 0.930 . S
H2418 C2431 0.929 . S
H2419 C2429 0.929 . S
H2420 C2424 0.929 . S
H2421 C2430 0.929 . S
C2422 H2416 0.930 . S
C2422 C2423 1.367 . S
C2422 C2430 1.378 . S
C2423 C2422 1.367 . S
C2423 C2431 1.433 . S
C2424 H2420 0.929 . S
C2424 C2426 1.378 . S
C2424 C2428 1.350 . S
C2425 C2428 1.463 . S
C2425 C2430 1.350 . S
C2425 N2433 1.427 . S
C2426 H2417 0.930 . S
C2426 C2424 1.378 . S
C2426 C2427 1.367 . S
C2427 C2426 1.367 . S
C2427 C2429 1.433 . S
C2428 C2424 1.350 . S
C2428 C2425 1.463 . S
C2428 N2432 1.427 . S
C2429 H2419 0.929 . S
C2429 C2427 1.433 . S
C2429 N2432 1.384 . S
C2430 H2421 0.929 . S
C2430 C2422 1.378 . S
C2430 C2425 1.350 . S
C2431 H2418 0.929 . S
C2431 C2423 1.433 . S
C2431 N2433 1.384 . S
N2432 C2428 1.427 . S
N2432 C2429 1.384 . S
N2433 C2425 1.427 . S
N2433 C2431 1.384 . S
H2434 C2440 0.930 . S
H2435 C2444 0.930 . S
H2436 C2449 0.929 . S
H2437 C2447 0.929 . S
H2438 C2442 0.929 . S
H2439 C2448 0.929 . S
C2440 H2434 0.930 . S
C2440 C2441 1.367 . S
C2440 C2448 1.378 . S
C2441 C2440 1.367 . S
C2441 C2449 1.433 . S
C2442 H2438 0.929 . S
C2442 C2444 1.378 . S
C2442 C2446 1.350 . S
C2443 C2446 1.463 . S
C2443 C2448 1.350 . S
C2443 N2451 1.427 . S
C2444 H2435 0.930 . S
C2444 C2442 1.378 . S
C2444 C2445 1.367 . S
C2445 C2444 1.367 . S
C2445 C2447 1.433 . S
C2446 C2442 1.350 . S
C2446 C2443 1.463 . S
C2446 N2450 1.427 . S
C2447 H2437 0.929 . S
C2447 C2445 1.433 . S
C2447 N2450 1.384 . S
C2448 H2439 0.929 . S
C2448 C2440 1.378 . S
C2448 C2443 1.350 . S
C2449 H2436 0.929 . S
C2449 C2441 1.433 . S
C2449 N2451 1.384 . S
N2450 C2446 1.427 . S
N2450 C2447 1.384 . S
N2451 C2443 1.427 . S
N2451 C2449 1.384 . S
H2452 C2458 0.930 . S
H2453 C2462 0.927 1_455 S
H2454 C2467 0.929 . S
H2455 C2465 0.929 . S
H2456 C2460 0.929 . S
H2457 C2466 0.929 . S
C2458 H2452 0.930 . S
C2458 C2459 1.367 . S
C2458 C2466 1.378 . S
C2459 C2458 1.367 . S
C2459 C2467 1.433 . S
C2460 H2456 0.929 . S
C2460 C2462 1.378 . S
C2460 C2464 1.350 . S
C2461 C2464 1.463 . S
C2461 C2466 1.350 . S
C2461 N2469 1.427 . S
C2462 H2453 0.927 1_655 S
C2462 C2460 1.378 . S
C2462 C2463 1.387 . S
C2463 C2462 1.387 . S
C2463 C2465 1.438 . S
C2464 C2460 1.350 . S
C2464 C2461 1.463 . S
C2464 N2468 1.427 . S
C2465 H2455 0.929 . S
C2465 C2463 1.438 . S
C2465 N2468 1.384 . S
C2466 H2457 0.929 . S
C2466 C2458 1.378 . S
C2466 C2461 1.350 . S
C2467 H2454 0.929 . S
C2467 C2459 1.433 . S
C2467 N2469 1.384 . S
N2468 C2464 1.427 . S
N2468 C2465 1.384 . S
N2469 C2461 1.427 . S
N2469 C2467 1.384 . S
H2470 C2476 0.930 . S
H2471 C2480 0.930 . S
H2472 C2485 0.929 . S
H2473 C2483 0.929 . S
H2474 C2478 0.929 . S
H2475 C2484 0.929 . S
C2476 H2470 0.930 . S
C2476 C2477 1.367 . S
C2476 C2484 1.378 . S
C2477 C2476 1.367 . S
C2477 C2485 1.433 . S
C2478 H2474 0.929 . S
C2478 C2480 1.378 . S
C2478 C2482 1.350 . S
C2479 C2482 1.463 . S
C2479 C2484 1.350 . S
C2479 N2487 1.427 . S
C2480 H2471 0.930 . S
C2480 C2478 1.378 . S
C2480 C2481 1.367 . S
C2481 C2480 1.367 . S
C2481 C2483 1.433 . S
C2482 C2478 1.350 . S
C2482 C2479 1.463 . S
C2482 N2486 1.427 . S
C2483 H2473 0.929 . S
C2483 C2481 1.433 . S
C2483 N2486 1.384 . S
C2484 H2475 0.929 . S
C2484 C2476 1.378 . S
C2484 C2479 1.350 . S
C2485 H2472 0.929 . S
C2485 C2477 1.433 . S
C2485 N2487 1.384 . S
N2486 C2482 1.427 . S
N2486 C2483 1.384 . S
N2487 C2479 1.427 . S
N2487 C2485 1.384 . S
H2488 C2494 0.930 . S
H2489 C2498 0.930 . S
H2490 C2503 0.929 . S
H2491 C2501 0.929 . S
H2492 C2496 0.929 . S
H2493 C2502 0.929 . S
C2494 H2488 0.930 . S
C2494 C2495 1.367 . S
C2494 C2502 1.378 . S
C2495 C2494 1.367 . S
C2495 C2503 1.433 . S
C2496 H2492 0.929 . S
C2496 C2498 1.378 . S
C2496 C2500 1.350 . S
C2497 C2500 1.463 . S
C2497 C2502 1.350 . S
C2497 N2505 1.427 . S
C2498 H2489 0.930 . S
C2498 C2496 1.378 . S
C2498 C2499 1.367 . S
C2499 C2498 1.367 . S
C2499 C2501 1.433 . S
C2500 C2496 1.350 . S
C2500 C2497 1.463 . S
C2500 N2504 1.427 . S
C2501 H2491 0.929 . S
C2501 C2499 1.433 . S
C2501 N2504 1.384 . S
C2502 H2493 0.929 . S
C2502 C2494 1.378 . S
C2502 C2497 1.350 . S
C2503 H2490 0.929 . S
C2503 C2495 1.433 . S
C2503 N2505 1.384 . S
N2504 C2500 1.427 . S
N2504 C2501 1.384 . S
N2505 C2497 1.427 . S
N2505 C2503 1.384 . S
H2506 C2512 0.930 . S
H2507 C2516 0.930 . S
H2508 C2521 0.929 . S
H2509 C2519 0.929 . S
H2510 C2514 0.929 . S
H2511 C2520 0.929 . S
C2512 H2506 0.930 . S
C2512 C2513 1.367 . S
C2512 C2520 1.378 . S
C2513 C2512 1.367 . S
C2513 C2521 1.433 . S
C2514 H2510 0.929 . S
C2514 C2516 1.378 . S
C2514 C2518 1.350 . S
C2515 C2518 1.463 . S
C2515 C2520 1.350 . S
C2515 N2523 1.427 . S
C2516 H2507 0.930 . S
C2516 C2514 1.378 . S
C2516 C2517 1.367 . S
C2517 C2516 1.367 . S
C2517 C2519 1.433 . S
C2518 C2514 1.350 . S
C2518 C2515 1.463 . S
C2518 N2522 1.427 . S
C2519 H2509 0.929 . S
C2519 C2517 1.433 . S
C2519 N2522 1.384 . S
C2520 H2511 0.929 . S
C2520 C2512 1.378 . S
C2520 C2515 1.350 . S
C2521 H2508 0.929 . S
C2521 C2513 1.433 . S
C2521 N2523 1.384 . S
N2522 C2518 1.427 . S
N2522 C2519 1.384 . S
N2523 C2515 1.427 . S
N2523 C2521 1.384 . S
H2524 C2530 0.930 . S
H2525 C2534 0.930 . S
H2526 C2539 0.929 . S
H2527 C2537 0.929 . S
H2528 C2532 0.929 . S
H2529 C2538 0.929 . S
C2530 H2524 0.930 . S
C2530 C2531 1.367 . S
C2530 C2538 1.378 . S
C2531 C2530 1.367 . S
C2531 C2539 1.433 . S
C2532 H2528 0.929 . S
C2532 C2534 1.378 . S
C2532 C2536 1.350 . S
C2533 C2536 1.463 . S
C2533 C2538 1.350 . S
C2533 N2541 1.427 . S
C2534 H2525 0.930 . S
C2534 C2532 1.378 . S
C2534 C2535 1.367 . S
C2535 C2534 1.367 . S
C2535 C2537 1.433 . S
C2536 C2532 1.350 . S
C2536 C2533 1.463 . S
C2536 N2540 1.427 . S
C2537 H2527 0.929 . S
C2537 C2535 1.433 . S
C2537 N2540 1.384 . S
C2538 H2529 0.929 . S
C2538 C2530 1.378 . S
C2538 C2533 1.350 . S
C2539 H2526 0.929 . S
C2539 C2531 1.433 . S
C2539 N2541 1.384 . S
N2540 C2536 1.427 . S
N2540 C2537 1.384 . S
N2541 C2533 1.427 . S
N2541 C2539 1.384 . S
H2542 C2548 0.930 . S
H2543 C2552 0.930 . S
H2544 C2557 0.929 . S
H2545 C2555 0.929 . S
H2546 C2550 0.929 . S
H2547 C2556 0.929 . S
C2548 H2542 0.930 . S
C2548 C2549 1.367 . S
C2548 C2556 1.378 . S
C2549 C2548 1.367 . S
C2549 C2557 1.433 . S
C2550 H2546 0.929 . S
C2550 C2552 1.378 . S
C2550 C2554 1.350 . S
C2551 C2554 1.463 . S
C2551 C2556 1.350 . S
C2551 N2559 1.427 . S
C2552 H2543 0.930 . S
C2552 C2550 1.378 . S
C2552 C2553 1.367 . S
C2553 C2552 1.367 . S
C2553 C2555 1.433 . S
C2554 C2550 1.350 . S
C2554 C2551 1.463 . S
C2554 N2558 1.427 . S
C2555 H2545 0.929 . S
C2555 C2553 1.433 . S
C2555 N2558 1.384 . S
C2556 H2547 0.929 . S
C2556 C2548 1.378 . S
C2556 C2551 1.350 . S
C2557 H2544 0.929 . S
C2557 C2549 1.433 . S
C2557 N2559 1.384 . S
N2558 C2554 1.427 . S
N2558 C2555 1.384 . S
N2559 C2551 1.427 . S
N2559 C2557 1.384 . S
H2560 C2566 0.930 . S
H2561 C2570 0.930 . S
H2562 C2575 0.929 . S
H2563 C2573 0.929 . S
H2564 C2568 0.929 . S
H2565 C2574 0.929 . S
C2566 H2560 0.930 . S
C2566 C2567 1.367 . S
C2566 C2574 1.378 . S
C2567 C2566 1.367 . S
C2567 C2575 1.433 . S
C2568 H2564 0.929 . S
C2568 C2570 1.378 . S
C2568 C2572 1.350 . S
C2569 C2572 1.463 . S
C2569 C2574 1.350 . S
C2569 N2577 1.427 . S
C2570 H2561 0.930 . S
C2570 C2568 1.378 . S
C2570 C2571 1.367 . S
C2571 C2570 1.367 . S
C2571 C2573 1.433 . S
C2572 C2568 1.350 . S
C2572 C2569 1.463 . S
C2572 N2576 1.427 . S
C2573 H2563 0.929 . S
C2573 C2571 1.433 . S
C2573 N2576 1.384 . S
C2574 H2565 0.929 . S
C2574 C2566 1.378 . S
C2574 C2569 1.350 . S
C2575 H2562 0.929 . S
C2575 C2567 1.433 . S
C2575 N2577 1.384 . S
N2576 C2572 1.427 . S
N2576 C2573 1.384 . S
N2577 C2569 1.427 . S
N2577 C2575 1.384 . S
H2578 C2584 0.930 . S
H2579 C2588 0.933 . S
H2580 C2593 0.929 . S
H2581 C2591 0.929 . S
H2582 C2586 0.929 . S
H2583 C2592 0.929 . S
C2584 H2578 0.930 . S
C2584 C2585 1.367 . S
C2584 C2592 1.378 . S
C2585 C2584 1.367 . S
C2585 C2593 1.433 . S
C2586 H2582 0.929 . S
C2586 C2588 1.373 1_565 S
C2586 C2590 1.350 . S
C2587 C2590 1.463 . S
C2587 C2592 1.350 . S
C2587 N2595 1.427 . S
C2588 H2579 0.933 . S
C2588 C2586 1.373 1_545 S
C2588 C2589 1.369 . S
C2589 C2588 1.369 . S
C2589 C2591 1.433 1_545 S
C2590 C2586 1.350 . S
C2590 C2587 1.463 . S
C2590 N2594 1.427 . S
C2591 H2581 0.929 . S
C2591 C2589 1.433 1_565 S
C2591 N2594 1.384 . S
C2592 H2583 0.929 . S
C2592 C2584 1.378 . S
C2592 C2587 1.350 . S
C2593 H2580 0.929 . S
C2593 C2585 1.433 . S
C2593 N2595 1.384 . S
N2594 C2590 1.427 . S
N2594 C2591 1.384 . S
N2595 C2587 1.427 . S
N2595 C2593 1.384 . S
H2596 C2602 0.930 . S
H2597 C2606 0.930 . S
H2598 C2611 0.929 . S
H2599 C2609 0.929 . S
H2600 C2604 0.929 . S
H2601 C2610 0.929 . S
C2602 H2596 0.930 . S
C2602 C2603 1.367 . S
C2602 C2610 1.378 . S
C2603 C2602 1.367 . S
C2603 C2611 1.433 . S
C2604 H2600 0.929 . S
C2604 C2606 1.378 . S
C2604 C2608 1.350 . S
C2605 C2608 1.463 . S
C2605 C2610 1.350 . S
C2605 N2613 1.427 . S
C2606 H2597 0.930 . S
C2606 C2604 1.378 . S
C2606 C2607 1.367 . S
C2607 C2606 1.367 . S
C2607 C2609 1.433 . S
C2608 C2604 1.350 . S
C2608 C2605 1.463 . S
C2608 N2612 1.427 . S
C2609 H2599 0.929 . S
C2609 C2607 1.433 . S
C2609 N2612 1.384 . S
C2610 H2601 0.929 . S
C2610 C2602 1.378 . S
C2610 C2605 1.350 . S
C2611 H2598 0.929 . S
C2611 C2603 1.433 . S
C2611 N2613 1.384 . S
N2612 C2608 1.427 . S
N2612 C2609 1.384 . S
N2613 C2605 1.427 . S
N2613 C2611 1.384 . S
H2614 C2620 0.930 . S
H2615 C2624 0.886 1_556 S
H2616 C2629 0.929 . S
H2617 C2627 0.929 . S
H2618 C2622 0.929 . S
H2619 C2628 0.929 . S
C2620 H2614 0.930 . S
C2620 C2621 1.367 . S
C2620 C2628 1.378 . S
C2621 C2620 1.367 . S
C2621 C2629 1.433 . S
C2622 H2618 0.929 . S
C2622 C2624 1.378 . S
C2622 C2626 1.350 . S
C2623 C2626 1.463 . S
C2623 C2628 1.350 . S
C2623 N2631 1.427 . S
C2624 H2615 0.886 1_554 S
C2624 C2622 1.378 . S
C2624 C2625 1.367 . S
C2625 C2624 1.367 . S
C2625 C2627 1.433 . S
C2626 C2622 1.350 . S
C2626 C2623 1.463 . S
C2626 N2630 1.427 . S
C2627 H2617 0.929 . S
C2627 C2625 1.433 . S
C2627 N2630 1.384 . S
C2628 H2619 0.929 . S
C2628 C2620 1.378 . S
C2628 C2623 1.350 . S
C2629 H2616 0.929 . S
C2629 C2621 1.433 . S
C2629 N2631 1.384 . S
N2630 C2626 1.427 . S
N2630 C2627 1.384 . S
N2631 C2623 1.427 . S
N2631 C2629 1.384 . S
H2632 C2638 0.930 . S
H2633 C2642 0.930 . S
H2634 C2647 0.929 . S
H2635 C2645 0.929 . S
H2636 C2640 0.929 . S
H2637 C2646 0.929 . S
C2638 H2632 0.930 . S
C2638 C2639 1.367 . S
C2638 C2646 1.378 . S
C2639 C2638 1.367 . S
C2639 C2647 1.433 . S
C2640 H2636 0.929 . S
C2640 C2642 1.378 . S
C2640 C2644 1.350 . S
C2641 C2644 1.463 . S
C2641 C2646 1.350 . S
C2641 N2649 1.427 . S
C2642 H2633 0.930 . S
C2642 C2640 1.378 . S
C2642 C2643 1.367 . S
C2643 C2642 1.367 . S
C2643 C2645 1.433 . S
C2644 C2640 1.350 . S
C2644 C2641 1.463 . S
C2644 N2648 1.427 . S
C2645 H2635 0.929 . S
C2645 C2643 1.433 . S
C2645 N2648 1.384 . S
C2646 H2637 0.929 . S
C2646 C2638 1.378 . S
C2646 C2641 1.350 . S
C2647 H2634 0.929 . S
C2647 C2639 1.433 . S
C2647 N2649 1.384 . S
N2648 C2644 1.427 . S
N2648 C2645 1.384 . S
N2649 C2641 1.427 . S
N2649 C2647 1.384 . S
H2650 C2656 0.930 . S
H2651 C2660 0.930 . S
H2652 C2665 0.929 . S
H2653 C2663 0.929 . S
H2654 C2658 0.929 . S
H2655 C2664 0.929 . S
C2656 H2650 0.930 . S
C2656 C2657 1.367 . S
C2656 C2664 1.378 . S
C2657 C2656 1.367 . S
C2657 C2665 1.433 . S
C2658 H2654 0.929 . S
C2658 C2660 1.378 . S
C2658 C2662 1.350 1_556 S
C2659 C2662 1.463 . S
C2659 C2664 1.350 . S
C2659 N2667 1.427 . S
C2660 H2651 0.930 . S
C2660 C2658 1.378 . S
C2660 C2661 1.367 . S
C2661 C2660 1.367 . S
C2661 C2663 1.433 1_556 S
C2662 C2658 1.350 1_554 S
C2662 C2659 1.463 . S
C2662 N2666 1.427 . S
C2663 H2653 0.929 . S
C2663 C2661 1.433 1_554 S
C2663 N2666 1.384 . S
C2664 H2655 0.929 . S
C2664 C2656 1.378 . S
C2664 C2659 1.350 . S
C2665 H2652 0.929 . S
C2665 C2657 1.433 . S
C2665 N2667 1.384 . S
N2666 C2662 1.427 . S
N2666 C2663 1.384 . S
N2667 C2659 1.427 . S
N2667 C2665 1.384 . S
H2668 C2674 0.930 . S
H2669 C2678 0.930 . S
H2670 C2683 0.929 . S
H2671 C2681 0.929 . S
H2672 C2676 0.929 . S
H2673 C2682 0.929 . S
C2674 H2668 0.930 . S
C2674 C2675 1.367 . S
C2674 C2682 1.378 . S
C2675 C2674 1.367 . S
C2675 C2683 1.433 . S
C2676 H2672 0.929 . S
C2676 C2678 1.378 . S
C2676 C2680 1.350 . S
C2677 C2680 1.463 . S
C2677 C2682 1.350 . S
C2677 N2685 1.427 . S
C2678 H2669 0.930 . S
C2678 C2676 1.378 . S
C2678 C2679 1.367 . S
C2679 C2678 1.367 . S
C2679 C2681 1.433 . S
C2680 C2676 1.350 . S
C2680 C2677 1.463 . S
C2680 N2684 1.427 . S
C2681 H2671 0.929 . S
C2681 C2679 1.433 . S
C2681 N2684 1.384 . S
C2682 H2673 0.929 . S
C2682 C2674 1.378 . S
C2682 C2677 1.350 . S
C2683 H2670 0.929 . S
C2683 C2675 1.433 . S
C2683 N2685 1.384 . S
N2684 C2680 1.427 . S
N2684 C2681 1.384 . S
N2685 C2677 1.427 . S
N2685 C2683 1.384 . S
H2686 C2692 0.930 . S
H2687 C2696 0.930 . S
H2688 C2701 0.929 . S
H2689 C2699 0.929 . S
H2690 C2694 0.929 . S
H2691 C2700 0.929 . S
C2692 H2686 0.930 . S
C2692 C2693 1.367 . S
C2692 C2700 1.378 . S
C2693 C2692 1.367 . S
C2693 C2701 1.433 . S
C2694 H2690 0.929 . S
C2694 C2696 1.378 . S
C2694 C2698 1.350 . S
C2695 C2698 1.463 . S
C2695 C2700 1.350 . S
C2695 N2703 1.427 . S
C2696 H2687 0.930 . S
C2696 C2694 1.378 . S
C2696 C2697 1.367 . S
C2697 C2696 1.367 . S
C2697 C2699 1.433 . S
C2698 C2694 1.350 . S
C2698 C2695 1.463 . S
C2698 N2702 1.427 . S
C2699 H2689 0.929 . S
C2699 C2697 1.433 . S
C2699 N2702 1.384 . S
C2700 H2691 0.929 . S
C2700 C2692 1.378 . S
C2700 C2695 1.350 . S
C2701 H2688 0.929 . S
C2701 C2693 1.433 . S
C2701 N2703 1.384 . S
N2702 C2698 1.427 . S
N2702 C2699 1.384 . S
N2703 C2695 1.427 . S
N2703 C2701 1.384 . S
C983 C109 2.133 . S
C987 C349 2.116 . S
C1001 C61 1.770 . S
C1005 C400 2.019 . S
C1019 C74 1.560 . S
C1023 C429 1.615 . S
C1041 C473 1.439 . S
C1037 C96 1.495 . S
C1055 C25 1.278 . S
C1059 C513 1.253 . S
C1077 C549 1.624 . S
C1073 C40 1.603 . S
C1095 C599 1.901 . S
C1091 C46 1.886 . S
C1109 C5 1.909 . S
C1113 C629 2.301 . S
C1131 C359 1.836 . S
C1127 C229 1.558 . S
C1145 C249 0.529 . S
C1149 C402 0.568 . S
C1167 C439 1.105 . S
C1163 C271 0.943 . S
C1185 C469 1.535 . S
C1181 C172 1.471 . S
C1199 C236 1.390 . S
C1203 C509 1.401 . S
C1221 C559 1.049 . S
C1217 C242 1.048 . S
C1239 C593 0.729 . S
C1235 C278 0.741 . S
C1257 C639 1.945 . S
C1253 C179 1.972 . S
C1275 C353 1.060 . S
C1271 C159 0.846 1_556 S
C1289 C285 1.367 . S
C1293 C679 1.598 . S
C1311 C713 1.291 . S
C1307 C333 1.327 . S
C1329 C749 0.781 . S
C1325 C320 0.793 . S
C1343 C123 1.378 . S
C1347 C633 1.304 . S
C1361 C138 1.540 . S
C1365 C433 1.485 . S
C1379 C326 1.673 . S
C1383 C799 1.686 . S
C1401 C818 0.257 . S
C1397 C298 0.303 . S
C1419 C360 2.068 . S
C1415 C67 2.020 . S
C1437 C829 1.932 . S
C1433 C110 1.947 . S
C1451 C88 1.573 . S
C1455 C440 1.577 . S
C1469 C75 1.159 . S
C1473 C802 1.351 . S
C1491 C522 1.244 . S
C1487 C11 1.250 . S
C1505 C47 1.415 . S
C1509 C720 1.578 . S
C1527 C578 1.773 1_556 S
C1523 C32 1.663 . S
C1545 C880 2.308 . S
C1541 C26 2.310 . S
C1563 C338 1.902 . S
C1559 C152 1.930 . S
C1581 C833 0.537 . S
C1577 C319 0.514 . S
C1595 C124 1.074 . S
C1599 C418 1.063 . S
C1613 C284 1.531 . S
C1617 C800 1.534 . S
C1631 C145 1.192 . S
C1635 C520 1.325 . S
C1653 C698 0.897 . S
C1649 C312 0.896 . S
C1667 C117 0.671 1_565 S
C1671 C602 0.656 . S
C1685 C291 1.849 . S
C1689 C858 1.849 . S
C1703 C194 1.203 . S
C1707 C362 1.160 . S
C1721 C180 1.567 . S
C1725 C658 1.552 . S
C1739 C263 1.243 . S
C1743 C562 1.237 . S
C1757 C243 0.757 . S
C1761 C760 0.733 . S
C1779 C882 1.329 . S
C1775 C277 1.319 . S
C1793 C215 1.317 . S
C1797 C442 1.463 . S
C1815 C458 1.570 . S
C1811 C256 1.498 . S
C1833 C399 0.307 . S
C1829 C200 0.344 . S
C1847 C81 2.137 . S
C1851 C909 2.111 . S
C1869 C840 2.020 . S
C1865 C89 1.780 . S
C1883 C102 1.570 . S
C1887 C949 1.610 . S
C1901 C68 1.498 . S
C1905 C793 1.452 . S
C1919 C53 1.271 . S
C1923 C673 1.250 . S
C1941 C709 1.621 . S
C1937 C12 1.607 . S
C1959 C759 1.901 . S
C1955 C18 1.885 . S
C1977 C869 2.298 . S
C1973 C33 1.909 . S
C1995 C919 1.831 . S
C1991 C257 1.568 . S
C2009 C193 0.510 . S
C2013 C842 0.542 . S
C2031 C959 1.105 . S
C2027 C201 0.944 . S
C2049 C789 1.535 . S
C2045 C214 1.471 . S
C2067 C669 1.397 . S
C2063 C264 1.395 . S
C2081 C186 1.055 . S
C2085 C719 1.060 . S
C2103 C753 0.755 . S
C2099 C208 0.743 . S
C2117 C221 1.971 . S
C2121 C879 1.945 . S
C2139 C913 1.048 . S
C2135 C313 0.818 . S
C2153 C131 1.391 . S
C2157 C519 1.597 . S
C2175 C553 1.286 . S
C2171 C151 1.326 . S
C2193 C589 0.785 . S
C2189 C166 0.786 . S
C2211 C873 1.316 . S
C2207 C305 1.380 . S
C2225 C292 1.535 . S
C2229 C953 1.473 . S
C2247 C479 1.688 . S
C2243 C144 1.672 . S
C2265 C378 0.254 . S
C2261 C116 0.313 . S
C2279 C95 2.013 . S
C2283 C920 2.070 . S
C2301 C389 1.938 . S
C2297 C82 1.943 . S
C2315 C60 1.565 . S
C2319 C960 1.583 . S
C2333 C103 1.163 . S
C2337 C482 1.354 . S
C2351 C39 1.249 . S
C2355 C682 1.235 . S
C2373 C560 1.575 . S
C2369 C19 1.431 . S
C2387 C4 1.670 . S
C2391 C738 1.772 . S
C2405 C54 2.315 . S
C2409 C640 2.310 . S
C2427 C898 1.911 . S
C2423 C334 1.936 . S
C2441 C165 0.516 . S
C2445 C393 0.526 . S
C2463 C938 1.044 1_655 S
C2459 C306 1.077 . S
C2477 C130 1.532 . S
C2481 C480 1.536 . S
C2495 C327 1.191 . S
C2499 C680 1.329 . S
C2517 C538 0.900 . S
C2513 C158 0.887 . S
C2531 C299 0.670 . S
C2535 C762 0.659 . S
C2553 C618 1.850 . S
C2549 C137 1.849 . S
C2571 C922 1.149 . S
C2567 C250 1.198 . S
C2589 C498 1.556 . S
C2585 C222 1.564 . S
C2603 C235 1.226 . S
C2607 C722 1.219 . S
C2625 C600 0.727 . S
C2621 C187 0.762 . S
C2639 C207 1.319 . S
C2643 C642 1.332 . S
C2657 C173 1.318 . S
C2661 C962 1.461 . S
C2679 C778 1.571 . S
C2675 C228 1.500 . S
C2697 C839 0.309 . S
C2693 C270 0.347 . S
