# Generated by pormake.
# Topology apo, (3,6)-cn, num edge types: 1
# Building blocks:
#     Node 0, Type 0, BuildingBlock: WUSLED_clean_sbu_0, # of connection points: 3
#     Node 1, Type 0, BuildingBlock: WUSLED_clean_sbu_0, # of connection points: 3
#     Node 2, Type 0, BuildingBlock: WUSLED_clean_sbu_0, # of connection points: 3
#     Node 3, Type 0, BuildingBlock: WUSLED_clean_sbu_0, # of connection points: 3
#     Node 4, Type 0, BuildingBlock: WUSLED_clean_sbu_0, # of connection points: 3
#     Node 5, Type 0, BuildingBlock: WUSLED_clean_sbu_0, # of connection points: 3
#     Node 6, Type 0, BuildingBlock: WUSLED_clean_sbu_0, # of connection points: 3
#     Node 7, Type 0, BuildingBlock: WUSLED_clean_sbu_0, # of connection points: 3
#     Node 8, Type 1, BuildingBlock: KUMBUR_clean_sbu_1, # of connection points: 6
#     Node 9, Type 1, BuildingBlock: KUMBUR_clean_sbu_1, # of connection points: 6
#     Node 10, Type 1, BuildingBlock: KUMBUR_clean_sbu_1, # of connection points: 6
#     Node 11, Type 1, BuildingBlock: KUMBUR_clean_sbu_1, # of connection points: 6
#     Edge 12, Type (0, 1), None
#     Edge 13, Type (0, 1), None
#     Edge 14, Type (0, 1), None
#     Edge 15, Type (0, 1), None
#     Edge 16, Type (0, 1), None
#     Edge 17, Type (0, 1), None
#     Edge 18, Type (0, 1), None
#     Edge 19, Type (0, 1), None
#     Edge 20, Type (0, 1), None
#     Edge 21, Type (0, 1), None
#     Edge 22, Type (0, 1), None
#     Edge 23, Type (0, 1), None
#     Edge 24, Type (0, 1), None
#     Edge 25, Type (0, 1), None
#     Edge 26, Type (0, 1), None
#     Edge 27, Type (0, 1), None
#     Edge 28, Type (0, 1), None
#     Edge 29, Type (0, 1), None
#     Edge 30, Type (0, 1), None
#     Edge 31, Type (0, 1), None
#     Edge 32, Type (0, 1), None
#     Edge 33, Type (0, 1), None
#     Edge 34, Type (0, 1), None
#     Edge 35, Type (0, 1), None
# Relax obj value: 0.007
# Max RMSD: 0.133
# Mean RMSD: 0.098
data_MOF--net-apo--node1-WUSLED_clean_sbu_0--node2-KUMBUR_clean_sbu_1--edge1-none
_symmetry_space_group_name_H-M    P1
_symmetry_Int_Tables_number       1
_symmetry_cell_setting            triclinic
loop_
_symmetry_equiv_pos_as_xyz
'x, y, z'
_cell_length_a     18.705529
_cell_length_b     31.128995
_cell_length_c     39.942049
_cell_angle_alpha  90.417387
_cell_angle_beta   89.912317
_cell_angle_gamma 90.67463
loop_
_atom_site_label
_atom_site_type_symbol
_atom_site_fract_x
_atom_site_fract_y
_atom_site_fract_z
_atom_type_partial_charge
C0 C 0.32593 0.46835 0.36022 0.0
C1 C 0.32393 0.50649 0.37935 0.0
C2 C 0.39811 0.54302 0.33796 0.0
C3 C 0.35994 0.54363 0.36828 0.0
C4 C 0.40225 0.50433 0.31976 0.0
C5 C 0.36623 0.4675 0.33067 0.0
U6 U 0.24887 0.38978 0.42525 0.0
O7 O 0.14568 0.35506 0.42595 0.0
O8 O 0.24558 0.31898 0.42402 0.0
C9 C 0.17541 0.31725 0.42201 0.0
C10 C 0.28581 0.42924 0.36988 0.0
C11 C 0.14432 0.28816 0.39593 0.0
C12 C 0.14749 0.2205 0.36468 0.0
C13 C 0.17905 0.24982 0.38713 0.0
C14 C 0.04598 0.26723 0.35893 0.0
C15 C 0.08032 0.2287 0.35056 0.0
C16 C 0.07739 0.29652 0.38144 0.0
C17 C 0.28129 0.41582 0.51904 0.0
C18 C 0.23842 0.37342 0.56601 0.0
C19 C 0.30849 0.43816 0.57607 0.0
C20 C 0.31361 0.44472 0.54157 0.0
C21 C 0.27087 0.40243 0.5888 0.0
C22 C 0.24363 0.38005 0.53139 0.0
C23 C 0.28753 0.42408 0.48292 0.0
O24 O 0.3238 0.3985 0.38316 0.0
O25 O 0.22406 0.43497 0.38495 0.0
O26 O 0.228 0.43379 0.46742 0.0
O27 O 0.32776 0.39746 0.46577 0.0
H28 H 0.29365 0.50777 0.40247 0.0
H29 H 0.35605 0.57304 0.3828 0.0
H30 H 0.43313 0.50257 0.29686 0.0
H31 H 0.36915 0.43837 0.31572 0.0
H32 H 0.17492 0.19087 0.35904 0.0
H33 H 0.23011 0.242 0.39814 0.0
H34 H 0.99438 0.2746 0.34828 0.0
H35 H 0.04854 0.32541 0.38783 0.0
H36 H 0.2097 0.34532 0.5749 0.0
H37 H 0.33317 0.46149 0.59279 0.0
H38 H 0.34268 0.47261 0.53246 0.0
H39 H 0.21843 0.35735 0.5143 0.0
C40 C 0.28224 0.16671 1.02729 0.0
C41 C 0.3248 0.13528 1.04237 0.0
C42 C 0.27241 0.15075 0.09712 0.0
C43 C 0.31989 0.12743 0.07678 0.0
C44 C 0.22866 0.18147 0.08195 0.0
C45 C 0.23384 0.18952 0.04751 0.0
U46 U 0.26018 0.14582 0.9321 0.0
O47 O 0.23804 0.19098 0.89123 0.0
O48 O 0.33778 0.15466 0.89119 0.0
C49 C 0.30073 0.18519 0.877 0.0
C50 C 0.29178 0.17822 0.99139 0.0
C51 C 0.3415 0.22405 0.86619 0.0
C52 C 0.44932 0.25539 0.8415 0.0
C53 C 0.41215 0.22001 0.85456 0.0
C54 C 0.34639 0.30001 0.85146 0.0
C55 C 0.41643 0.29557 0.83929 0.0
C56 C 0.30909 0.26459 0.86458 0.0
C57 C 0.1612 0.04125 0.90416 0.0
C58 C 0.12048 0.02201 0.84807 0.0
C59 C 0.11117 0.97027 0.89284 0.0
C60 C 0.14151 1.00013 0.91506 0.0
C61 C 0.10002 0.98079 0.85907 0.0
C62 C 0.15106 0.05203 0.87042 0.0
C63 C 0.18981 0.07223 0.92897 0.0
O64 O 0.33598 0.15458 0.97369 0.0
O65 O 0.23391 0.18844 0.9747 0.0
O66 O 0.15835 0.10974 0.93062 0.0
O67 O 0.25978 0.07502 0.93123 0.0
H68 H 0.36296 0.11715 1.02775 0.0
H69 H 0.35373 0.10314 0.08752 0.0
H70 H 0.19203 0.20032 0.09689 0.0
H71 H 0.20096 0.21431 1.0368 0.0
H72 H 0.50323 0.25099 0.83223 0.0
H73 H 0.43838 0.18918 0.85489 0.0
H74 H 0.32011 0.33078 0.85046 0.0
H75 H 0.2545 0.2689 0.87287 0.0
H76 H 0.11104 0.0315 0.82252 0.0
H77 H 0.09609 0.93893 0.90229 0.0
H78 H 0.14883 0.9912 0.94099 0.0
H79 H 0.16568 0.08373 0.86153 0.0
C80 C 0.85165 0.07753 0.74146 0.0
C81 C 0.88643 0.04938 0.71944 0.0
C82 C 0.9059 0.99909 0.76511 0.0
C83 C 0.91318 1.01042 0.73114 0.0
C84 C 0.86957 0.0272 0.78681 0.0
C85 C 0.84281 0.06602 0.77507 0.0
U86 U 0.82107 0.1653 0.6753 0.0
O87 O 0.72857 0.20746 0.66947 0.0
O88 O 0.8336 0.23537 0.68189 0.0
C89 C 0.7649 0.24219 0.67812 0.0
C90 C 0.82609 0.11959 0.73036 0.0
C91 C 0.73096 0.26991 0.70352 0.0
C92 C 0.66672 0.27987 0.75612 0.0
C93 C 0.70583 0.25361 0.73417 0.0
C94 C 0.68059 0.33918 0.71763 0.0
C95 C 0.65214 0.32262 0.74753 0.0
C96 C 0.71965 0.3131 0.69589 0.0
C97 C 0.87791 0.14897 0.58323 0.0
C98 C 0.85537 0.20042 0.53898 0.0
C99 C 0.92078 0.13558 0.52653 0.0
C100 C 0.91393 0.12301 0.56001 0.0
C101 C 0.89171 0.17452 0.5155 0.0
C102 C 0.84858 0.18778 0.5725 0.0
C103 C 0.87115 0.13479 0.61833 0.0
O104 O 0.87602 0.14742 0.7217 0.0
O105 O 0.77113 0.11899 0.70989 0.0
O106 O 0.80567 0.12749 0.62901 0.0
O107 O 0.91087 0.15565 0.64033 0.0
H108 H 0.89364 0.05778 0.69336 0.0
H109 H 0.94046 0.98953 0.71363 0.0
H110 H 0.8628 0.01966 0.81306 0.0
H111 H 0.81602 0.08741 0.79241 0.0
H112 H 0.64452 0.26612 0.77875 0.0
H113 H 0.71417 0.22026 0.74051 0.0
H114 H 0.67018 0.37201 0.71041 0.0
H115 H 0.73883 0.32631 0.67247 0.0
H116 H 0.83143 0.23031 0.53141 0.0
H117 H 0.94994 0.11508 0.50942 0.0
H118 H 0.93704 0.09294 0.56782 0.0
H119 H 0.8203 0.20822 0.59001 0.0
C120 C 0.60905 0.38215 0.08736 0.0
C121 C 0.56908 0.40599 0.06459 0.0
C122 C 0.58965 0.35239 1.02085 0.0
C123 C 0.55938 0.3913 1.03171 0.0
C124 C 0.62901 0.32825 1.044 0.0
C125 C 0.63868 0.34303 0.07696 0.0
U126 U 0.68083 0.37296 0.17702 0.0
O127 O 0.7728 0.33091 0.1686 0.0
O128 O 0.6707 0.30341 0.18586 0.0
C129 C 0.73843 0.29654 0.1792 0.0
C130 C 0.62054 0.39918 0.12148 0.0
C131 C 0.77719 0.26985 0.20322 0.0
C132 C 0.83902 0.20345 0.21396 0.0
C133 C 0.79711 0.22857 0.19317 0.0
C134 C 0.83947 0.25979 0.25613 0.0
C135 C 0.86168 0.21897 0.24536 0.0
C136 C 0.7975 0.28522 0.23507 0.0
C137 C 0.65888 0.46563 0.24007 0.0
C138 C 0.64457 0.51999 0.28332 0.0
C139 C 0.59151 0.5302 0.22869 0.0
C140 C 0.61922 0.49078 0.21797 0.0
C141 C 0.60268 0.5449 0.26175 0.0
C142 C 0.67225 0.48076 0.27256 0.0
C143 C 0.68429 0.42282 0.23034 0.0
O144 O 0.68732 0.40788 0.12943 0.0
O145 O 0.58505 0.37967 0.14551 0.0
O146 O 0.63402 0.39378 0.22487 0.0
O147 O 0.73585 0.42192 0.20797 0.0
H148 H 0.54562 0.4362 0.0722 0.0
H149 H 0.52778 0.41039 1.01482 0.0
H150 H 0.65363 0.29838 1.03647 0.0
H151 H 0.66988 0.32422 0.09422 0.0
H152 H 0.85507 0.17204 0.2051 0.0
H153 H 0.78176 0.21613 0.16878 0.0
H154 H 0.85694 0.27265 0.28006 0.0
H155 H 0.78251 0.31715 0.24321 0.0
H156 H 0.65468 0.53015 0.30889 0.0
H157 H 0.55995 0.54853 0.21129 0.0
H158 H 0.60857 0.47954 0.19271 0.0
H159 H 0.70292 0.46176 0.28991 0.0
C160 C 0.67327 0.56856 0.73326 0.0
C161 C 0.67517 0.53052 0.71401 0.0
C162 C 0.60158 0.49371 0.75546 0.0
C163 C 0.6394 0.49329 0.72505 0.0
C164 C 0.59752 0.53231 0.77379 0.0
C165 C 0.6333 0.56923 0.76291 0.0
U166 U 0.74992 0.64712 0.66818 0.0
O167 O 0.75282 0.71793 0.66926 0.0
O168 O 0.85293 0.68204 0.66742 0.0
C169 C 0.82298 0.7198 0.67127 0.0
C170 C 0.71315 0.60775 0.72361 0.0
C171 C 0.85391 0.74902 0.6973 0.0
C172 C 0.84996 0.81651 0.72875 0.0
C173 C 0.8186 0.78709 0.70632 0.0
C174 C 0.95242 0.77044 0.73403 0.0
C175 C 0.91747 0.80868 0.74264 0.0
C176 C 0.92123 0.74105 0.71154 0.0
C177 C 0.71795 0.62081 0.57446 0.0
C178 C 0.7608 0.6633 0.52754 0.0
C179 C 0.69114 0.59841 0.51741 0.0
C180 C 0.6859 0.59184 0.5519 0.0
C181 C 0.72862 0.63423 0.50473 0.0
C182 C 0.75546 0.65665 0.56215 0.0
C183 C 0.71158 0.61256 0.61057 0.0
O184 O 0.77498 0.60214 0.70859 0.0
O185 O 0.67499 0.63837 0.71026 0.0
O186 O 0.67114 0.63913 0.62766 0.0
O187 O 0.77112 0.603 0.62612 0.0
H188 H 0.7052 0.5294 0.69081 0.0
H189 H 0.64322 0.46395 0.71043 0.0
H190 H 0.5669 0.53391 0.79678 0.0
H191 H 0.63045 0.59829 0.77795 0.0
H192 H 0.82207 0.84593 0.73455 0.0
H193 H 0.76724 0.79462 0.69549 0.0
H194 H 0.00431 0.76334 0.74451 0.0
H195 H 0.95053 0.71239 0.70497 0.0
H196 H 0.78939 0.69145 0.51868 0.0
H197 H 0.66666 0.57503 0.50066 0.0
H198 H 0.65695 0.56389 0.56099 0.0
H199 H 0.78045 0.67941 0.57927 0.0
C200 C 0.71613 0.87013 0.06614 0.0
C201 C 0.67314 0.90133 0.05105 0.0
C202 C 0.72568 0.88605 0.99629 0.0
C203 C 0.6779 0.90916 1.01663 0.0
C204 C 0.76984 0.85555 1.01147 0.0
C205 C 0.7648 0.84753 0.04592 0.0
U206 U 0.73841 0.89126 0.16128 0.0
O207 O 0.76104 0.84623 0.20218 0.0
O208 O 0.66105 0.8823 0.20227 0.0
C209 C 0.69837 0.8519 0.21647 0.0
C210 C 0.70682 0.85866 0.10205 0.0
C211 C 0.65792 0.81296 0.22735 0.0
C212 C 0.55031 0.78138 0.25207 0.0
C213 C 0.58723 0.81684 0.23898 0.0
C214 C 0.65357 0.73702 0.24217 0.0
C215 C 0.58348 0.74128 0.25431 0.0
C216 C 0.69063 0.77251 0.22903 0.0
C217 C 0.83671 0.99612 0.18902 0.0
C218 C 0.87676 1.01562 0.24516 0.0
C219 C 0.88679 0.06711 0.20024 0.0
C220 C 0.85666 0.03716 0.17804 0.0
C221 C 0.89747 0.05676 0.23408 0.0
C222 C 0.8464 0.98551 0.22283 0.0
C223 C 0.80824 0.96503 0.16426 0.0
O224 O 0.76483 0.84862 0.11871 0.0
O225 O 0.66251 0.8822 0.11977 0.0
O226 O 0.73829 0.96205 0.16206 0.0
O227 O 0.83998 0.92761 0.16262 0.0
H228 H 0.63475 0.9193 0.06566 0.0
H229 H 0.64373 0.93328 1.00588 0.0
H230 H 0.8067 0.83685 0.99654 0.0
H231 H 0.79803 0.82291 0.05664 0.0
H232 H 0.49636 0.78565 0.26132 0.0
H233 H 0.56077 0.84759 0.23862 0.0
H234 H 0.68007 0.70632 0.24319 0.0
H235 H 0.74526 0.76834 0.22074 0.0
H236 H 0.88585 1.00626 0.27076 0.0
H237 H 0.90208 0.09839 0.19072 0.0
H238 H 0.84969 0.04595 0.15205 0.0
H239 H 0.83158 0.95387 0.23178 0.0
C240 C 0.14518 0.95976 0.3515 0.0
C241 C 0.10974 0.98761 0.37354 0.0
C242 C 0.09075 0.03829 0.32807 0.0
C243 C 0.08289 0.02662 0.36194 0.0
C244 C 0.1277 1.01047 0.30637 0.0
C245 C 0.15455 0.97163 0.31801 0.0
U246 U 0.17593 0.87122 0.4171 0.0
O247 O 0.16389 0.80119 0.40999 0.0
O248 O 0.26865 0.82922 0.42275 0.0
C249 C 0.23256 0.79445 0.41399 0.0
C250 C 0.17088 0.91765 0.36242 0.0
C251 C 0.26707 0.76669 0.38881 0.0
C252 C 0.33258 0.7566 0.33658 0.0
C253 C 0.29269 0.78287 0.35821 0.0
C254 C 0.31863 0.69755 0.3753 0.0
C255 C 0.34746 0.71399 0.34545 0.0
C256 C 0.27877 0.72362 0.39672 0.0
C257 C 0.11946 0.88554 0.50983 0.0
C258 C 0.06311 0.84093 0.55263 0.0
C259 C 0.15242 0.89394 0.56867 0.0
C260 C 0.15987 0.90601 0.53509 0.0
C261 C 0.10387 0.86122 0.57797 0.0
C262 C 0.07077 0.85291 0.51904 0.0
C263 C 0.12612 0.90024 0.47455 0.0
O264 O 0.22575 0.91811 0.38294 0.0
O265 O 0.12106 0.88961 0.37081 0.0
O266 O 0.08607 0.88056 0.45199 0.0
O267 O 0.1913 0.90845 0.46377 0.0
H268 H 0.10211 0.97894 0.39953 0.0
H269 H 0.05513 0.04728 0.37945 0.0
H270 H 0.13495 1.01826 0.28019 0.0
H271 H 0.18184 0.95048 0.30065 0.0
H272 H 0.35504 0.77026 0.31398 0.0
H273 H 0.28413 0.81613 0.35168 0.0
H274 H 0.32926 0.66482 0.38273 0.0
H275 H 0.25929 0.71052 0.42013 0.0
H276 H 0.02432 0.81612 0.55876 0.0
H277 H 0.18543 0.90997 0.58729 0.0
H278 H 0.19729 0.93157 0.52888 0.0
H279 H 0.03799 0.83676 0.50039 0.0
C280 C 0.38487 0.65671 1.00633 0.0
C281 C 0.34378 0.63961 1.03264 0.0
C282 C 0.40517 0.686 0.07312 0.0
C283 C 0.35348 0.6542 0.06553 0.0
C284 C 0.44607 0.70333 0.04675 0.0
C285 C 0.43614 0.68883 1.01376 0.0
U286 U 0.31807 0.66446 0.91541 0.0
O287 O 0.32783 0.73403 0.90649 0.0
O288 O 0.22553 0.7062 0.9232 0.0
C289 C 0.25993 0.74072 0.91292 0.0
C290 C 0.37558 0.6393 0.97184 0.0
C291 C 0.22135 0.7676 0.889 0.0
C292 C 0.15928 0.83404 0.87874 0.0
C293 C 0.20155 0.80881 0.89928 0.0
C294 C 0.15834 0.77793 0.83636 0.0
C295 C 0.1362 0.81867 0.84737 0.0
C296 C 0.20064 0.7524 0.85717 0.0
C297 C 0.34209 0.57146 0.85281 0.0
C298 C 0.35555 0.51646 0.81001 0.0
C299 C 0.41011 0.5072 0.86442 0.0
C300 C 0.38245 0.54673 0.87492 0.0
C301 C 0.39814 0.49196 0.83157 0.0
C302 C 0.32795 0.55579 0.82055 0.0
C303 C 0.31653 0.61433 0.86225 0.0
O304 O 0.41248 0.65789 0.94778 0.0
O305 O 0.30966 0.62954 0.96298 0.0
O306 O 0.26416 0.61536 0.8842 0.0
O307 O 0.36665 0.64339 0.86803 0.0
H308 H 0.30422 0.61463 1.02782 0.0
H309 H 0.32019 0.64054 0.08504 0.0
H310 H 0.48699 0.72744 0.05166 0.0
H311 H 0.4693 0.70248 0.9942 0.0
H312 H 0.14328 0.86538 0.88776 0.0
H313 H 0.21716 0.8211 0.92368 0.0
H314 H 0.14056 0.76522 0.81243 0.0
H315 H 0.21549 0.72051 0.84889 0.0
H316 H 0.34479 0.50589 0.7846 0.0
H317 H 0.44221 0.48918 0.88181 0.0
H318 H 0.39365 0.55838 0.90002 0.0
H319 H 0.2967 0.57445 0.8032 0.0
Tb320 Tb 0.07015 0.151 0.25848 0.0
C321 C 0.75872 0.11296 0.30656 0.0
N322 N 0.79999 0.14814 0.31324 0.0
C323 C 0.7007 0.19375 0.30124 0.0
C324 C 0.68756 0.11678 0.29553 0.0
C325 C 0.77048 0.18813 0.31286 0.0
C326 C 0.65948 0.15794 0.29187 0.0
C327 C 0.7429 0.03585 0.31103 0.0
C328 C 0.78582 0.07314 0.31403 0.0
C329 C 0.67343 0.03906 0.29802 0.0
C330 C 0.64585 0.07949 0.29018 0.0
Tb331 Tb 0.91548 0.13476 0.32901 0.0
N332 N 0.8531 0.07143 0.32648 0.0
C333 C 0.77012 0.99691 0.32254 0.0
C334 C 0.87801 0.03431 0.34005 0.0
C335 C 0.83741 0.99633 0.33777 0.0
H336 H 0.80073 0.21589 0.32141 0.0
H337 H 0.85804 0.96669 0.34768 0.0
H338 H 0.20496 0.1017 0.29393 0.0
H339 H 0.02894 0.31801 0.22608 0.0
H340 H 0.92985 0.03399 0.35187 0.0
H341 H 0.73875 0.9675 0.32081 0.0
H342 H 0.00193 0.24087 0.22466 0.0
H343 H 0.67844 0.22563 0.29998 0.0
H344 H 0.6398 1.01071 0.29504 0.0
H345 H 0.5913 0.0817 0.28133 0.0
H346 H 0.32129 0.12183 0.31927 0.0
H347 H 0.60508 0.16232 0.28338 0.0
H348 H 0.13799 0.34513 0.25449 0.0
N349 N 0.17733 0.1661 0.28291 0.0
C350 C 0.19829 0.20802 0.28298 0.0
C351 C 0.28695 0.1464 0.30935 0.0
C352 C 0.2639 0.22102 0.29729 0.0
C353 C 0.22092 0.13511 0.29521 0.0
C354 C 0.30839 0.18956 0.31058 0.0
N355 N 0.08967 0.22386 0.25581 0.0
C356 C 0.04721 0.25194 0.23904 0.0
C357 C 0.17143 0.28191 0.26982 0.0
C358 C 0.15235 0.23795 0.26956 0.0
C359 C 0.1253 0.31108 0.25483 0.0
C360 C 0.06348 0.29592 0.23895 0.0
H361 H 0.35935 0.19823 0.32175 0.0
H362 H 0.33252 0.27557 0.30921 0.0
H363 H 0.25167 0.32891 0.28509 0.0
O364 O 0.10218 0.16814 0.20976 0.0
O365 O 0.0835 0.16828 0.31184 0.0
O366 O 0.97534 0.19527 0.3264 0.0
O367 O 0.12952 0.10675 0.2298 0.0
O368 O 0.96279 0.17357 0.24656 0.0
O369 O 0.91292 0.19284 0.29737 0.0
O370 O 0.95677 0.12906 0.37784 0.0
O371 O 0.92461 0.08485 0.28951 0.0
O372 O 0.96948 0.11999 0.24308 0.0
O373 O 0.84763 0.14599 0.37027 0.0
O374 O 0.0175 0.10083 0.33561 0.0
O375 O 0.07131 0.08873 0.28359 0.0
C376 C 0.04527 0.1969 0.32792 0.0
C377 C 0.20469 0.13558 0.18683 0.0
C378 C 0.27081 0.1441 0.13414 0.0
C379 C 0.33506 0.13966 0.152 0.0
C380 C 0.2695 0.13124 0.20399 0.0
C381 C 0.33424 0.13339 0.18661 0.0
C382 C 0.20566 0.14225 0.15194 0.0
C383 C 0.91393 0.19359 0.26438 0.0
C384 C 0.1352 0.13238 0.20429 0.0
C385 C 0.28252 0.26485 0.29813 0.0
C386 C 0.23634 0.29523 0.28449 0.0
C387 C 0.93223 0.08862 0.25688 0.0
C388 C 0.90292 0.17175 0.41971 0.0
C389 C 0.90011 0.18836 0.47986 0.0
C390 C 0.91359 0.23182 0.47226 0.0
C391 C 0.91552 0.21524 0.41286 0.0
C392 C 0.8952 0.15842 0.45316 0.0
C393 C 0.9212 0.24503 0.43904 0.0
C394 C 0.05842 0.07825 0.31509 0.0
C395 C 0.89735 0.13993 0.39228 0.0
H396 H 0.38616 0.14154 0.13927 0.0
H397 H 0.27023 0.12593 0.23068 0.0
H398 H 0.38409 0.1301 0.20003 0.0
H399 H 0.15553 0.14517 0.13861 0.0
H400 H 0.91913 0.25563 0.49201 0.0
H401 H 0.92066 0.22607 0.38728 0.0
H402 H 0.88429 0.12482 0.45827 0.0
H403 H 0.93155 0.27854 0.43357 0.0
Tb404 Tb 0.44195 0.38532 0.75712 0.0
C405 C 0.7404 0.41312 0.81933 0.0
N406 N 0.69576 0.3792 0.82454 0.0
C407 C 0.79277 0.33076 0.81503 0.0
C408 C 0.81242 0.40731 0.8102 0.0
C409 C 0.72209 0.3384 0.82475 0.0
C410 C 0.83776 0.36535 0.80697 0.0
C411 C 0.76181 0.48949 0.82619 0.0
C412 C 0.71565 0.45347 0.82706 0.0
C413 C 0.83219 0.48456 0.81454 0.0
C414 C 0.85748 0.44346 0.80649 0.0
Tb415 Tb 0.57887 0.39559 0.83578 0.0
N416 N 0.64787 0.45658 0.83867 0.0
C417 C 0.73693 0.52867 0.83882 0.0
C418 C 0.62558 0.49352 0.85399 0.0
C419 C 0.66914 0.53041 0.85359 0.0
H420 H 0.68795 0.31158 0.83163 0.0
H421 H 0.65033 0.56013 0.86451 0.0
H422 H 0.2937 0.42267 0.79067 0.0
H423 H 0.51279 0.22694 0.71125 0.0
H424 H 0.57293 0.49482 0.86511 0.0
H425 H 0.77068 0.55719 0.83864 0.0
H426 H 0.52682 0.30506 0.71722 0.0
H427 H 0.81262 0.29826 0.81402 0.0
H428 H 0.86834 0.51194 0.81312 0.0
H429 H 0.91277 0.43978 0.79898 0.0
H430 H 0.17639 0.39366 0.8088 0.0
H431 H 0.89274 0.35942 0.79991 0.0
H432 H 0.40476 0.19049 0.73356 0.0
N433 N 0.33338 0.36172 0.7757 0.0
C434 C 0.31896 0.31921 0.77133 0.0
C435 C 0.21621 0.37234 0.7985 0.0
C436 C 0.25295 0.30122 0.78138 0.0
C437 C 0.2828 0.38864 0.78843 0.0
C438 C 0.20132 0.32841 0.79513 0.0
N439 N 0.43404 0.31261 0.7476 0.0
C440 C 0.48246 0.28948 0.72949 0.0
C441 C 0.35931 0.24921 0.7531 0.0
C442 C 0.37162 0.29367 0.75749 0.0
C443 C 0.41206 0.22475 0.7374 0.0
C444 C 0.47333 0.24515 0.725 0.0
H445 H 0.14988 0.31584 0.80316 0.0
H446 H 0.19096 0.24225 0.78563 0.0
H447 H 0.28405 0.19667 0.76081 0.0
O448 O 0.42526 0.37381 0.70582 0.0
O449 O 0.42002 0.36289 0.80873 0.0
O450 O 0.52462 0.33463 0.82626 0.0
O451 O 0.37723 0.428 0.72995 0.0
O452 O 0.5543 0.37041 0.74816 0.0
O453 O 0.58932 0.34302 0.79864 0.0
O454 O 0.52261 0.39191 0.88138 0.0
O455 O 0.57023 0.45061 0.8023 0.0
O456 O 0.53839 0.42582 0.74944 0.0
O457 O 0.63662 0.38619 0.88033 0.0
O458 O 0.4782 0.43261 0.83934 0.0
O459 O 0.42563 0.44346 0.78665 0.0
C460 C 0.45503 0.3322 0.82375 0.0
C461 C 0.31939 0.39865 0.68152 0.0
C462 C 0.26537 0.39579 0.62568 0.0
C463 C 0.20094 0.38142 0.64022 0.0
C464 C 0.25465 0.38428 0.69544 0.0
C465 C 0.1958 0.37576 0.67484 0.0
C466 C 0.32445 0.40425 0.6467 0.0
C467 C 0.59916 0.34833 0.76631 0.0
C468 C 0.38365 0.4064 0.70213 0.0
C469 C 0.24107 0.2568 0.77776 0.0
C470 C 0.29422 0.23083 0.76376 0.0
C471 C 0.56978 0.45405 0.76957 0.0
C472 C 0.57587 0.35377 0.92558 0.0
C473 C 0.5809 0.33759 0.98543 0.0
C474 C 0.56829 0.29396 0.97769 0.0
C475 C 0.56318 0.31025 0.91836 0.0
C476 C 0.58479 0.36723 0.95897 0.0
C477 C 0.55945 0.28051 0.94439 0.0
C478 C 0.43379 0.45266 0.81882 0.0
C479 C 0.5799 0.38611 0.89903 0.0
H480 H 0.15417 0.37513 0.62492 0.0
H481 H 0.24943 0.37944 0.72203 0.0
H482 H 0.14591 0.36477 0.68576 0.0
H483 H 0.37502 0.41455 0.63596 0.0
H484 H 0.56416 0.27031 0.99737 0.0
H485 H 0.5562 0.29939 0.89273 0.0
H486 H 0.59554 0.4009 0.96424 0.0
H487 H 0.54939 0.24691 0.93877 0.0
Tb488 Tb 0.08146 0.90313 0.76409 0.0
C489 C 0.79927 0.82927 0.81045 0.0
N490 N 0.82011 0.8712 0.81044 0.0
C491 C 0.71027 0.89075 0.78413 0.0
C492 C 0.73361 0.81617 0.79624 0.0
C493 C 0.77636 0.90213 0.79818 0.0
C494 C 0.68894 0.84757 0.78298 0.0
C495 C 0.82645 0.75541 0.8236 0.0
C496 C 0.8454 0.7994 0.82382 0.0
C497 C 0.76147 0.74201 0.80905 0.0
C498 C 0.7151 0.77233 0.79546 0.0
Tb499 Tb 0.92737 0.88645 0.83476 0.0
N500 N 0.90815 0.81357 0.83745 0.0
C501 C 0.87278 0.72631 0.83852 0.0
C502 C 0.95083 0.78554 0.85415 0.0
C503 C 0.93469 0.74155 0.85429 0.0
H504 H 0.79221 0.93556 0.79941 0.0
H505 H 0.96941 0.7195 0.86711 0.0
H506 H 0.1969 0.82231 0.77145 0.0
H507 H 0.13738 0.07138 0.74544 0.0
H508 H 0.99619 0.79667 0.86845 0.0
H509 H 0.86021 0.69225 0.8389 0.0
H510 H 0.06606 1.00388 0.74132 0.0
H511 H 0.6758 0.91527 0.77424 0.0
H512 H 0.74623 0.70832 0.80849 0.0
H513 H 0.66505 0.76154 0.78446 0.0
H514 H 0.31943 0.8129 0.79269 0.0
H515 H 0.63793 0.83884 0.77189 0.0
H516 H 0.25689 0.07087 0.77211 0.0
N517 N 0.19713 0.89004 0.77969 0.0
C518 C 0.23816 0.92534 0.78631 0.0
C519 C 0.29689 0.84472 0.79149 0.0
C520 C 0.30944 0.92172 0.79723 0.0
C521 C 0.22698 0.85014 0.77998 0.0
C522 C 0.33788 0.88064 0.80082 0.0
N523 N 0.1433 0.96663 0.76656 0.0
C524 C 0.11799 1.0037 0.75306 0.0
C525 C 0.25334 1.0025 0.78185 0.0
C526 C 0.21069 0.9651 0.7789 0.0
C527 C 0.22573 0.04137 0.77041 0.0
C528 C 0.15831 0.04178 0.7553 0.0
H529 H 0.39239 0.87641 0.80921 0.0
H530 H 0.40553 0.95706 0.81128 0.0
H531 H 0.35636 0.02791 0.79769 0.0
O532 O 0.03962 0.90827 0.71531 0.0
O533 O 0.07217 0.95296 0.80363 0.0
O534 O 0.02798 0.91758 0.85008 0.0
O535 O 0.14932 0.89251 0.72278 0.0
O536 O 0.97909 0.93661 0.75758 0.0
O537 O 0.9257 0.94876 0.80967 0.0
O538 O 0.89577 0.8692 0.88352 0.0
O539 O 0.91379 0.86901 0.78144 0.0
O540 O 0.02218 0.84242 0.76679 0.0
O541 O 0.86787 0.93054 0.86355 0.0
O542 O 0.03495 0.86401 0.84651 0.0
O543 O 0.08459 0.84499 0.79559 0.0
C544 C 0.06501 0.94903 0.83627 0.0
C545 C 0.09432 0.86548 0.67376 0.0
C546 C 0.09642 0.84791 0.61378 0.0
C547 C 0.08617 0.8043 0.62193 0.0
C548 C 0.08458 0.82189 0.68115 0.0
C549 C 0.08015 0.79154 0.65532 0.0
C550 C 0.10013 0.87839 0.64014 0.0
C551 C 0.93831 0.9592 0.77814 0.0
C552 C 0.0992 0.89779 0.70083 0.0
C553 C 0.35089 0.95912 0.80252 0.0
C554 C 0.32293 0.99948 0.79475 0.0
C555 C 0.95226 0.84057 0.7653 0.0
C556 C 0.79308 0.90143 0.90655 0.0
C557 C 0.72715 0.89266 0.95927 0.0
C558 C 0.6628 0.89679 0.94142 0.0
C559 C 0.72818 0.90546 0.88941 0.0
C560 C 0.79225 0.89479 0.94144 0.0
C561 C 0.66349 0.90303 0.90681 0.0
C562 C 0.08377 0.84411 0.82856 0.0
C563 C 0.86249 0.90486 0.88905 0.0
H564 H 0.08408 0.77983 0.60254 0.0
H565 H 0.08096 0.81139 0.70686 0.0
H566 H 0.07267 0.75789 0.6612 0.0
H567 H 0.10697 0.91222 0.6346 0.0
H568 H 0.61175 0.89469 0.95417 0.0
H569 H 0.72733 0.91073 0.86272 0.0
H570 H 0.84244 0.8921 0.95476 0.0
H571 H 0.61357 0.90609 0.89341 0.0
Tb572 Tb 0.42181 0.64084 0.25756 0.0
C573 C 0.68097 0.71746 0.32232 0.0
N574 N 0.66659 0.67495 0.31788 0.0
C575 C 0.78385 0.66441 0.29516 0.0
C576 C 0.747 0.73548 0.31234 0.0
C577 C 0.71723 0.64807 0.30516 0.0
C578 C 0.79869 0.70834 0.29859 0.0
C579 C 0.64049 0.78742 0.34057 0.0
C580 C 0.62823 0.74296 0.33613 0.0
C581 C 0.7056 0.80584 0.32999 0.0
C582 C 0.75883 0.7799 0.31601 0.0
Tb583 Tb 0.55796 0.65129 0.33635 0.0
N584 N 0.56576 0.72399 0.34593 0.0
C585 C 0.58761 0.81185 0.3562 0.0
C586 C 0.51719 0.7471 0.36396 0.0
C587 C 0.52627 0.79143 0.3685 0.0
H588 H 0.70638 0.61404 0.30287 0.0
H589 H 0.4867 0.80963 0.38219 0.0
H590 H 0.31197 0.7245 0.26148 0.0
H591 H 0.35217 0.47611 0.22855 0.0
H592 H 0.4727 0.73152 0.37614 0.0
H593 H 0.59487 0.84611 0.36007 0.0
H594 H 0.42905 0.54165 0.22824 0.0
H595 H 0.82373 0.64312 0.28486 0.0
H596 H 0.71573 0.83999 0.33297 0.0
H597 H 0.80896 0.79448 0.3082 0.0
H598 H 0.18696 0.73741 0.27875 0.0
H599 H 0.85015 0.72093 0.29061 0.0
H600 H 0.23141 0.47866 0.25403 0.0
N601 N 0.30466 0.65686 0.26853 0.0
C602 C 0.26025 0.62279 0.27357 0.0
C603 C 0.20711 0.70497 0.27778 0.0
C604 C 0.18805 0.62835 0.28249 0.0
C605 C 0.27799 0.69757 0.26826 0.0
C606 C 0.16231 0.67023 0.28568 0.0
N607 N 0.35342 0.57963 0.25447 0.0
C608 C 0.37624 0.54277 0.2392 0.0
C609 C 0.23957 0.54636 0.26657 0.0
C610 C 0.28545 0.58252 0.26588 0.0
C611 C 0.26494 0.50728 0.25398 0.0
C612 C 0.33297 0.50575 0.23943 0.0
H613 H 0.10718 0.67598 0.29257 0.0
H614 H 0.08781 0.59557 0.29336 0.0
H615 H 0.13303 0.52357 0.27929 0.0
O616 O 0.47848 0.64484 0.2121 0.0
O617 O 0.43043 0.58586 0.29109 0.0
O618 O 0.46141 0.61087 0.34397 0.0
O619 O 0.36434 0.65 0.21292 0.0
O620 O 0.52294 0.60435 0.25403 0.0
O621 O 0.57451 0.59309 0.30684 0.0
O622 O 0.57445 0.6628 0.38766 0.0
O623 O 0.58018 0.67392 0.28482 0.0
O624 O 0.47549 0.70195 0.26721 0.0
O625 O 0.62258 0.60862 0.36357 0.0
O626 O 0.44552 0.66627 0.34515 0.0
O627 O 0.41071 0.69345 0.29456 0.0
C628 C 0.43024 0.58257 0.32383 0.0
C629 C 0.42502 0.68318 0.16808 0.0
C630 C 0.41719 0.70021 0.10848 0.0
C631 C 0.43162 0.7436 0.11642 0.0
C632 C 0.43906 0.72649 0.17552 0.0
C633 C 0.44248 0.75653 0.1497 0.0
C634 C 0.41436 0.67022 0.13471 0.0
C635 C 0.5669 0.58409 0.27462 0.0
C636 C 0.42127 0.65052 0.19437 0.0
C637 C 0.14324 0.59207 0.28603 0.0
C638 C 0.16898 0.55106 0.27801 0.0
C639 C 0.54505 0.70455 0.2698 0.0
C640 C 0.68029 0.63802 0.41201 0.0
C641 C 0.73418 0.64089 0.46786 0.0
C642 C 0.79859 0.65537 0.45336 0.0
C643 C 0.745 0.65248 0.39812 0.0
C644 C 0.67518 0.63238 0.44681 0.0
C645 C 0.80379 0.66105 0.41875 0.0
C646 C 0.40075 0.68828 0.32689 0.0
C647 C 0.61608 0.63023 0.39138 0.0
H648 H 0.43351 0.76768 0.09699 0.0
H649 H 0.44729 0.73697 0.20116 0.0
H650 H 0.45329 0.79 0.1555 0.0
H651 H 0.40473 0.63649 0.12922 0.0
H652 H 0.8453 0.6617 0.46868 0.0
H653 H 0.75026 0.65733 0.37154 0.0
H654 H 0.62462 0.62201 0.45753 0.0
H655 H 0.85366 0.67212 0.40785 0.0
loop_
_geom_bond_atom_site_label_1
_geom_bond_atom_site_label_2
_geom_bond_distance
_geom_bond_site_symmetry_2
_ccdc_geom_bond_type
C0 C1 1.264 . S
C0 C5 1.479 . S
C0 C10 1.465 . S
C1 C0 1.264 . S
C1 C3 1.339 . S
C1 H28 0.931 . S
C2 C3 1.395 . S
C2 C4 1.320 . S
C3 C1 1.339 . S
C3 C2 1.395 . S
C3 H29 0.929 . S
C4 C2 1.320 . S
C4 C5 1.405 . S
C4 H30 0.930 . S
C5 C0 1.479 . S
C5 C4 1.405 . S
C5 H31 0.931 . S
U6 O7 2.454 . S
U6 O8 2.458 . S
U6 C9 2.984 . S
U6 C10 2.847 . S
U6 C23 2.882 . S
U6 O24 2.441 . S
U6 O25 2.420 . S
U6 O26 2.455 . S
U6 O27 2.449 . S
O7 U6 2.454 . S
O7 C9 1.353 . S
O8 U6 2.458 . S
O8 C9 1.286 . S
C9 U6 2.984 . S
C9 O7 1.353 . S
C9 O8 1.286 . S
C9 C11 1.363 . S
C10 C0 1.465 . S
C10 U6 2.847 . S
C10 O24 1.249 . S
C10 O25 1.202 . S
C11 C9 1.363 . S
C11 C13 1.408 . S
C11 C16 1.342 . S
C12 C13 1.310 . S
C12 C15 1.461 . S
C12 H32 0.932 . S
C13 C11 1.408 . S
C13 C12 1.310 . S
C13 H33 0.930 . S
C14 C15 1.474 . S
C14 C16 1.285 . S
C14 H34 0.929 . S
C15 C12 1.461 . S
C15 C14 1.474 . S
C16 C11 1.342 . S
C16 C14 1.285 . S
C16 H35 0.930 . S
C17 C20 1.424 . S
C17 C22 1.245 . S
C17 C23 1.428 . S
C18 C21 1.260 . S
C18 C22 1.477 . S
C18 H36 0.932 . S
C19 C20 1.384 . S
C19 C21 1.479 . S
C19 H37 0.929 . S
C20 C17 1.424 . S
C20 C19 1.384 . S
C20 H38 0.928 . S
C21 C18 1.260 . S
C21 C19 1.479 . S
C22 C17 1.245 . S
C22 C18 1.477 . S
C22 H39 0.932 . S
C23 U6 2.882 . S
C23 C17 1.428 . S
C23 O26 1.301 . S
C23 O27 1.282 . S
O24 U6 2.441 . S
O24 C10 1.249 . S
O25 U6 2.420 . S
O25 C10 1.202 . S
O26 U6 2.455 . S
O26 C23 1.301 . S
O27 U6 2.449 . S
O27 C23 1.282 . S
H28 C1 0.931 . S
H29 C3 0.929 . S
H30 C4 0.930 . S
H31 C5 0.931 . S
H32 C12 0.932 . S
H33 C13 0.930 . S
H34 C14 0.929 . S
H35 C16 0.930 . S
H36 C18 0.932 . S
H37 C19 0.929 . S
H38 C20 0.928 . S
H39 C22 0.932 . S
C40 C41 1.264 . S
C40 C45 1.479 1_556 S
C40 C50 1.465 . S
C41 C40 1.264 . S
C41 C43 1.339 1_556 S
C41 H68 0.931 . S
C42 C43 1.395 . S
C42 C44 1.320 . S
C43 C41 1.339 1_554 S
C43 C42 1.395 . S
C43 H69 0.929 . S
C44 C42 1.320 . S
C44 C45 1.405 . S
C44 H70 0.930 . S
C45 C40 1.479 1_554 S
C45 C44 1.405 . S
C45 H71 0.931 1_554 S
U46 O47 2.454 . S
U46 O48 2.458 . S
U46 C49 2.984 . S
U46 C50 2.847 . S
U46 C63 2.882 . S
U46 O64 2.441 . S
U46 O65 2.420 . S
U46 O66 2.455 . S
U46 O67 2.449 . S
O47 U46 2.454 . S
O47 C49 1.353 . S
O48 U46 2.458 . S
O48 C49 1.286 . S
C49 U46 2.984 . S
C49 O47 1.353 . S
C49 O48 1.286 . S
C49 C51 1.363 . S
C50 C40 1.465 . S
C50 U46 2.847 . S
C50 O64 1.249 . S
C50 O65 1.202 . S
C51 C49 1.363 . S
C51 C53 1.408 . S
C51 C56 1.342 . S
C52 C53 1.310 . S
C52 C55 1.461 . S
C52 H72 0.932 . S
C53 C51 1.408 . S
C53 C52 1.310 . S
C53 H73 0.930 . S
C54 C55 1.474 . S
C54 C56 1.285 . S
C54 H74 0.929 . S
C55 C52 1.461 . S
C55 C54 1.474 . S
C56 C51 1.342 . S
C56 C54 1.285 . S
C56 H75 0.930 . S
C57 C60 1.424 1_545 S
C57 C62 1.245 . S
C57 C63 1.428 . S
C58 C61 1.260 . S
C58 C62 1.477 1_565 S
C58 H76 0.932 . S
C59 C60 1.384 . S
C59 C61 1.479 . S
C59 H77 0.929 . S
C60 C57 1.424 1_565 S
C60 C59 1.384 . S
C60 H78 0.928 . S
C61 C58 1.260 . S
C61 C59 1.479 . S
C62 C57 1.245 . S
C62 C58 1.477 1_545 S
C62 H79 0.932 . S
C63 U46 2.882 . S
C63 C57 1.428 . S
C63 O66 1.301 . S
C63 O67 1.282 . S
O64 U46 2.441 . S
O64 C50 1.249 . S
O65 U46 2.420 . S
O65 C50 1.202 . S
O66 U46 2.455 . S
O66 C63 1.301 . S
O67 U46 2.449 . S
O67 C63 1.282 . S
H68 C41 0.931 . S
H69 C43 0.929 . S
H70 C44 0.930 . S
H71 C45 0.931 1_556 S
H72 C52 0.932 . S
H73 C53 0.930 . S
H74 C54 0.929 . S
H75 C56 0.930 . S
H76 C58 0.932 . S
H77 C59 0.929 . S
H78 C60 0.928 . S
H79 C62 0.932 . S
C80 C81 1.245 1_545 S
C80 C85 1.478 . S
C80 C90 1.484 . S
C81 C80 1.245 1_565 S
C81 C83 1.339 . S
C81 H108 0.931 . S
C82 C83 1.395 . S
C82 C84 1.320 . S
C83 C81 1.339 . S
C83 C82 1.395 . S
C83 H109 0.929 . S
C84 C82 1.320 . S
C84 C85 1.403 1_565 S
C84 H110 0.930 . S
C85 C80 1.478 . S
C85 C84 1.403 1_545 S
C85 H111 0.933 . S
U86 O87 2.454 . S
U86 O88 2.458 . S
U86 C89 2.984 . S
U86 C90 2.847 . S
U86 C103 2.882 . S
U86 O104 2.441 . S
U86 O105 2.420 . S
U86 O106 2.455 . S
U86 O107 2.449 . S
O87 U86 2.454 . S
O87 C89 1.353 . S
O88 U86 2.458 . S
O88 C89 1.286 . S
C89 U86 2.984 . S
C89 O87 1.353 . S
C89 O88 1.286 . S
C89 C91 1.363 . S
C90 C80 1.484 . S
C90 U86 2.847 . S
C90 O104 1.249 . S
C90 O105 1.202 . S
C91 C89 1.363 . S
C91 C93 1.408 . S
C91 C96 1.342 . S
C92 C93 1.310 . S
C92 C95 1.461 . S
C92 H112 0.932 . S
C93 C91 1.408 . S
C93 C92 1.310 . S
C93 H113 0.930 . S
C94 C95 1.474 . S
C94 C96 1.285 . S
C94 H114 0.929 . S
C95 C92 1.461 . S
C95 C94 1.474 . S
C96 C91 1.342 . S
C96 C94 1.285 . S
C96 H115 0.930 . S
C97 C100 1.424 . S
C97 C102 1.245 . S
C97 C103 1.428 . S
C98 C101 1.260 . S
C98 C102 1.477 . S
C98 H116 0.932 . S
C99 C100 1.384 . S
C99 C101 1.479 . S
C99 H117 0.929 . S
C100 C97 1.424 . S
C100 C99 1.384 . S
C100 H118 0.928 . S
C101 C98 1.260 . S
C101 C99 1.479 . S
C102 C97 1.245 . S
C102 C98 1.477 . S
C102 H119 0.932 . S
C103 U86 2.882 . S
C103 C97 1.428 . S
C103 O106 1.301 . S
C103 O107 1.282 . S
O104 U86 2.441 . S
O104 C90 1.249 . S
O105 U86 2.420 . S
O105 C90 1.202 . S
O106 U86 2.455 . S
O106 C103 1.301 . S
O107 U86 2.449 . S
O107 C103 1.282 . S
H108 C81 0.931 . S
H109 C83 0.929 . S
H110 C84 0.930 . S
H111 C85 0.933 . S
H112 C92 0.932 . S
H113 C93 0.930 . S
H114 C94 0.929 . S
H115 C96 0.930 . S
H116 C98 0.932 . S
H117 C99 0.929 . S
H118 C100 0.928 . S
H119 C102 0.932 . S
C120 C121 1.264 . S
C120 C125 1.479 1_554 S
C120 C130 1.465 . S
C121 C120 1.264 . S
C121 C123 1.339 1_554 S
C121 H148 0.931 . S
C122 C123 1.395 . S
C122 C124 1.320 . S
C123 C121 1.339 1_556 S
C123 C122 1.395 . S
C123 H149 0.929 . S
C124 C122 1.320 . S
C124 C125 1.405 . S
C124 H150 0.930 . S
C125 C120 1.479 1_556 S
C125 C124 1.405 . S
C125 H151 0.931 1_556 S
U126 O127 2.454 . S
U126 O128 2.458 . S
U126 C129 2.984 . S
U126 C130 2.847 . S
U126 C143 2.882 . S
U126 O144 2.441 . S
U126 O145 2.420 . S
U126 O146 2.455 . S
U126 O147 2.449 . S
O127 U126 2.454 . S
O127 C129 1.353 . S
O128 U126 2.458 . S
O128 C129 1.286 . S
C129 U126 2.984 . S
C129 O127 1.353 . S
C129 O128 1.286 . S
C129 C131 1.363 . S
C130 C120 1.465 . S
C130 U126 2.847 . S
C130 O144 1.249 . S
C130 O145 1.202 . S
C131 C129 1.363 . S
C131 C133 1.408 . S
C131 C136 1.342 . S
C132 C133 1.310 . S
C132 C135 1.461 . S
C132 H152 0.932 . S
C133 C131 1.408 . S
C133 C132 1.310 . S
C133 H153 0.930 . S
C134 C135 1.474 . S
C134 C136 1.285 . S
C134 H154 0.929 . S
C135 C132 1.461 . S
C135 C134 1.474 . S
C136 C131 1.342 . S
C136 C134 1.285 . S
C136 H155 0.930 . S
C137 C140 1.424 . S
C137 C142 1.245 . S
C137 C143 1.428 . S
C138 C141 1.260 . S
C138 C142 1.477 . S
C138 H156 0.932 . S
C139 C140 1.384 . S
C139 C141 1.479 . S
C139 H157 0.929 . S
C140 C137 1.424 . S
C140 C139 1.384 . S
C140 H158 0.928 . S
C141 C138 1.260 . S
C141 C139 1.479 . S
C142 C137 1.245 . S
C142 C138 1.477 . S
C142 H159 0.932 . S
C143 U126 2.882 . S
C143 C137 1.428 . S
C143 O146 1.301 . S
C143 O147 1.282 . S
O144 U126 2.441 . S
O144 C130 1.249 . S
O145 U126 2.420 . S
O145 C130 1.202 . S
O146 U126 2.455 . S
O146 C143 1.301 . S
O147 U126 2.449 . S
O147 C143 1.282 . S
H148 C121 0.931 . S
H149 C123 0.929 . S
H150 C124 0.930 . S
H151 C125 0.931 1_554 S
H152 C132 0.932 . S
H153 C133 0.930 . S
H154 C134 0.929 . S
H155 C136 0.930 . S
H156 C138 0.932 . S
H157 C139 0.929 . S
H158 C140 0.928 . S
H159 C142 0.932 . S
C160 C161 1.264 . S
C160 C165 1.479 . S
C160 C170 1.465 . S
C161 C160 1.264 . S
C161 C163 1.339 . S
C161 H188 0.931 . S
C162 C163 1.395 . S
C162 C164 1.320 . S
C163 C161 1.339 . S
C163 C162 1.395 . S
C163 H189 0.929 . S
C164 C162 1.320 . S
C164 C165 1.405 . S
C164 H190 0.930 . S
C165 C160 1.479 . S
C165 C164 1.405 . S
C165 H191 0.931 . S
U166 O167 2.454 . S
U166 O168 2.458 . S
U166 C169 2.984 . S
U166 C170 2.847 . S
U166 C183 2.882 . S
U166 O184 2.441 . S
U166 O185 2.420 . S
U166 O186 2.455 . S
U166 O187 2.449 . S
O167 U166 2.454 . S
O167 C169 1.353 . S
O168 U166 2.458 . S
O168 C169 1.286 . S
C169 U166 2.984 . S
C169 O167 1.353 . S
C169 O168 1.286 . S
C169 C171 1.363 . S
C170 C160 1.465 . S
C170 U166 2.847 . S
C170 O184 1.249 . S
C170 O185 1.202 . S
C171 C169 1.363 . S
C171 C173 1.408 . S
C171 C176 1.342 . S
C172 C173 1.310 . S
C172 C175 1.461 . S
C172 H192 0.932 . S
C173 C171 1.408 . S
C173 C172 1.310 . S
C173 H193 0.930 . S
C174 C175 1.474 . S
C174 C176 1.285 . S
C174 H194 0.929 . S
C175 C172 1.461 . S
C175 C174 1.474 . S
C176 C171 1.342 . S
C176 C174 1.285 . S
C176 H195 0.930 . S
C177 C180 1.424 . S
C177 C182 1.245 . S
C177 C183 1.428 . S
C178 C181 1.260 . S
C178 C182 1.477 . S
C178 H196 0.932 . S
C179 C180 1.384 . S
C179 C181 1.479 . S
C179 H197 0.929 . S
C180 C177 1.424 . S
C180 C179 1.384 . S
C180 H198 0.928 . S
C181 C178 1.260 . S
C181 C179 1.479 . S
C182 C177 1.245 . S
C182 C178 1.477 . S
C182 H199 0.932 . S
C183 U166 2.882 . S
C183 C177 1.428 . S
C183 O186 1.301 . S
C183 O187 1.282 . S
O184 U166 2.441 . S
O184 C170 1.249 . S
O185 U166 2.420 . S
O185 C170 1.202 . S
O186 U166 2.455 . S
O186 C183 1.301 . S
O187 U166 2.449 . S
O187 C183 1.282 . S
H188 C161 0.931 . S
H189 C163 0.929 . S
H190 C164 0.930 . S
H191 C165 0.931 . S
H192 C172 0.932 . S
H193 C173 0.930 . S
H194 C174 0.929 . S
H195 C176 0.930 . S
H196 C178 0.932 . S
H197 C179 0.929 . S
H198 C180 0.928 . S
H199 C182 0.932 . S
C200 C201 1.264 1_554 S
C200 C205 1.479 1_554 S
C200 C210 1.465 . S
C201 C200 1.264 1_556 S
C201 C203 1.339 . S
C201 H228 0.931 1_556 S
C202 C203 1.395 . S
C202 C204 1.320 . S
C203 C201 1.339 . S
C203 C202 1.395 . S
C203 H229 0.929 . S
C204 C202 1.320 . S
C204 C205 1.405 . S
C204 H230 0.930 . S
C205 C200 1.479 1_556 S
C205 C204 1.405 . S
C205 H231 0.931 . S
U206 O207 2.454 . S
U206 O208 2.458 . S
U206 C209 2.984 . S
U206 C210 2.847 . S
U206 C223 2.882 . S
U206 O224 2.441 . S
U206 O225 2.420 . S
U206 O226 2.455 . S
U206 O227 2.449 . S
O207 U206 2.454 . S
O207 C209 1.353 . S
O208 U206 2.458 . S
O208 C209 1.286 . S
C209 U206 2.984 . S
C209 O207 1.353 . S
C209 O208 1.286 . S
C209 C211 1.363 . S
C210 C200 1.465 . S
C210 U206 2.847 . S
C210 O224 1.249 . S
C210 O225 1.202 . S
C211 C209 1.363 . S
C211 C213 1.408 . S
C211 C216 1.342 . S
C212 C213 1.310 . S
C212 C215 1.461 . S
C212 H232 0.932 . S
C213 C211 1.408 . S
C213 C212 1.310 . S
C213 H233 0.930 . S
C214 C215 1.474 . S
C214 C216 1.285 . S
C214 H234 0.929 . S
C215 C212 1.461 . S
C215 C214 1.474 . S
C216 C211 1.342 . S
C216 C214 1.285 . S
C216 H235 0.930 . S
C217 C220 1.424 1_565 S
C217 C222 1.245 . S
C217 C223 1.428 . S
C218 C221 1.260 . S
C218 C222 1.477 1_545 S
C218 H236 0.932 . S
C219 C220 1.384 . S
C219 C221 1.479 . S
C219 H237 0.929 . S
C220 C217 1.424 1_545 S
C220 C219 1.384 . S
C220 H238 0.928 . S
C221 C218 1.260 . S
C221 C219 1.479 . S
C222 C217 1.245 . S
C222 C218 1.477 1_565 S
C222 H239 0.932 . S
C223 U206 2.882 . S
C223 C217 1.428 . S
C223 O226 1.301 . S
C223 O227 1.282 . S
O224 U206 2.441 . S
O224 C210 1.249 . S
O225 U206 2.420 . S
O225 C210 1.202 . S
O226 U206 2.455 . S
O226 C223 1.301 . S
O227 U206 2.449 . S
O227 C223 1.282 . S
H228 C201 0.931 1_554 S
H229 C203 0.929 . S
H230 C204 0.930 . S
H231 C205 0.931 . S
H232 C212 0.932 . S
H233 C213 0.930 . S
H234 C214 0.929 . S
H235 C216 0.930 . S
H236 C218 0.932 . S
H237 C219 0.929 . S
H238 C220 0.928 . S
H239 C222 0.932 . S
C240 C241 1.264 1_565 S
C240 C245 1.479 . S
C240 C250 1.465 . S
C241 C240 1.264 1_545 S
C241 C243 1.339 . S
C241 H268 0.931 . S
C242 C243 1.395 . S
C242 C244 1.320 . S
C243 C241 1.339 . S
C243 C242 1.395 . S
C243 H269 0.929 . S
C244 C242 1.320 . S
C244 C245 1.405 1_545 S
C244 H270 0.930 . S
C245 C240 1.479 . S
C245 C244 1.405 1_565 S
C245 H271 0.931 . S
U246 O247 2.454 . S
U246 O248 2.458 . S
U246 C249 2.984 . S
U246 C250 2.847 . S
U246 C263 2.882 . S
U246 O264 2.441 . S
U246 O265 2.420 . S
U246 O266 2.455 . S
U246 O267 2.449 . S
O247 U246 2.454 . S
O247 C249 1.353 . S
O248 U246 2.458 . S
O248 C249 1.286 . S
C249 U246 2.984 . S
C249 O247 1.353 . S
C249 O248 1.286 . S
C249 C251 1.363 . S
C250 C240 1.465 . S
C250 U246 2.847 . S
C250 O264 1.249 . S
C250 O265 1.202 . S
C251 C249 1.363 . S
C251 C253 1.408 . S
C251 C256 1.342 . S
C252 C253 1.310 . S
C252 C255 1.461 . S
C252 H272 0.932 . S
C253 C251 1.408 . S
C253 C252 1.310 . S
C253 H273 0.930 . S
C254 C255 1.474 . S
C254 C256 1.285 . S
C254 H274 0.929 . S
C255 C252 1.461 . S
C255 C254 1.474 . S
C256 C251 1.342 . S
C256 C254 1.285 . S
C256 H275 0.930 . S
C257 C260 1.424 . S
C257 C262 1.245 . S
C257 C263 1.428 . S
C258 C261 1.260 . S
C258 C262 1.477 . S
C258 H276 0.932 . S
C259 C260 1.384 . S
C259 C261 1.479 . S
C259 H277 0.929 . S
C260 C257 1.424 . S
C260 C259 1.384 . S
C260 H278 0.928 . S
C261 C258 1.260 . S
C261 C259 1.479 . S
C262 C257 1.245 . S
C262 C258 1.477 . S
C262 H279 0.932 . S
C263 U246 2.882 . S
C263 C257 1.428 . S
C263 O266 1.301 . S
C263 O267 1.282 . S
O264 U246 2.441 . S
O264 C250 1.249 . S
O265 U246 2.420 . S
O265 C250 1.202 . S
O266 U246 2.455 . S
O266 C263 1.301 . S
O267 U246 2.449 . S
O267 C263 1.282 . S
H268 C241 0.931 . S
H269 C243 0.929 . S
H270 C244 0.930 . S
H271 C245 0.931 . S
H272 C252 0.932 . S
H273 C253 0.930 . S
H274 C254 0.929 . S
H275 C256 0.930 . S
H276 C258 0.932 . S
H277 C259 0.929 . S
H278 C260 0.928 . S
H279 C262 0.932 . S
C280 C281 1.264 1_556 S
C280 C285 1.479 1_556 S
C280 C290 1.465 . S
C281 C280 1.264 1_554 S
C281 C283 1.339 . S
C281 H308 0.931 1_554 S
C282 C283 1.395 . S
C282 C284 1.320 . S
C283 C281 1.339 . S
C283 C282 1.395 . S
C283 H309 0.929 . S
C284 C282 1.320 . S
C284 C285 1.405 . S
C284 H310 0.930 . S
C285 C280 1.479 1_554 S
C285 C284 1.405 . S
C285 H311 0.920 1_554 S
U286 O287 2.454 . S
U286 O288 2.458 . S
U286 C289 2.984 . S
U286 C290 2.847 . S
U286 C303 2.882 . S
U286 O304 2.441 . S
U286 O305 2.420 . S
U286 O306 2.455 . S
U286 O307 2.449 . S
O287 U286 2.454 . S
O287 C289 1.353 . S
O288 U286 2.458 . S
O288 C289 1.286 . S
C289 U286 2.984 . S
C289 O287 1.353 . S
C289 O288 1.286 . S
C289 C291 1.363 . S
C290 C280 1.465 . S
C290 U286 2.847 . S
C290 O304 1.249 . S
C290 O305 1.202 . S
C291 C289 1.363 . S
C291 C293 1.408 . S
C291 C296 1.342 . S
C292 C293 1.310 . S
C292 C295 1.461 . S
C292 H312 0.932 . S
C293 C291 1.408 . S
C293 C292 1.310 . S
C293 H313 0.930 . S
C294 C295 1.474 . S
C294 C296 1.285 . S
C294 H314 0.929 . S
C295 C292 1.461 . S
C295 C294 1.474 . S
C296 C291 1.342 . S
C296 C294 1.285 . S
C296 H315 0.930 . S
C297 C300 1.424 . S
C297 C302 1.245 . S
C297 C303 1.428 . S
C298 C301 1.260 . S
C298 C302 1.477 . S
C298 H316 0.932 . S
C299 C300 1.384 . S
C299 C301 1.479 . S
C299 H317 0.929 . S
C300 C297 1.424 . S
C300 C299 1.384 . S
C300 H318 0.928 . S
C301 C298 1.260 . S
C301 C299 1.479 . S
C302 C297 1.245 . S
C302 C298 1.477 . S
C302 H319 0.932 . S
C303 U286 2.882 . S
C303 C297 1.428 . S
C303 O306 1.301 . S
C303 O307 1.282 . S
O304 U286 2.441 . S
O304 C290 1.249 . S
O305 U286 2.420 . S
O305 C290 1.202 . S
O306 U286 2.455 . S
O306 C303 1.301 . S
O307 U286 2.449 . S
O307 C303 1.282 . S
H308 C281 0.931 1_556 S
H309 C283 0.929 . S
H310 C284 0.930 . S
H311 C285 0.920 1_556 S
H312 C292 0.932 . S
H313 C293 0.930 . S
H314 C294 0.929 . S
H315 C296 0.930 . S
H316 C298 0.932 . S
H317 C299 0.929 . S
H318 C300 0.928 . S
H319 C302 0.932 . S
Tb320 N349 2.617 . S
Tb320 N355 2.572 . S
Tb320 O364 2.465 . S
Tb320 O365 2.387 . S
Tb320 O367 2.428 . S
Tb320 O368 2.308 1_455 S
Tb320 O372 2.349 . S
Tb320 O375 2.393 . S
Tb320 C384 2.802 . S
C321 N322 1.379 . S
C321 C324 1.416 . S
C321 C328 1.424 . S
N322 C321 1.379 . S
N322 C325 1.334 . S
N322 Tb331 2.617 . S
C323 C325 1.390 . S
C323 C326 1.339 . S
C323 H343 0.930 . S
C324 C321 1.416 . S
C324 C326 1.416 . S
C324 C330 1.448 . S
C325 N322 1.334 . S
C325 C323 1.390 . S
C325 H336 0.930 . S
C326 C323 1.339 . S
C326 C324 1.416 . S
C326 H347 0.930 . S
C327 C328 1.413 . S
C327 C329 1.427 . S
C327 C333 1.416 1_545 S
C328 C321 1.424 . S
C328 C327 1.413 . S
C328 N332 1.361 . S
C329 C327 1.427 . S
C329 C330 1.328 . S
C329 H344 0.929 . S
C330 C324 1.448 . S
C330 C329 1.328 . S
C330 H345 0.930 . S
Tb331 N322 2.617 . S
Tb331 N332 2.572 . S
Tb331 O366 2.349 1_655 S
Tb331 O369 2.393 . S
Tb331 O370 2.465 . S
Tb331 O371 2.387 . S
Tb331 O373 2.428 . S
Tb331 O374 2.308 1_655 S
Tb331 C395 2.802 . S
N332 C328 1.361 . S
N332 Tb331 2.572 . S
N332 C334 1.340 . S
C333 C327 1.416 1_565 S
C333 C335 1.332 . S
C333 H341 0.931 . S
C334 N332 1.340 . S
C334 C335 1.407 1_545 S
C334 H340 0.930 . S
C335 C333 1.332 . S
C335 C334 1.407 1_565 S
C335 H337 0.929 . S
H336 C325 0.930 . S
H337 C335 0.929 . S
H338 C353 0.930 . S
H339 C360 0.929 . S
H340 C334 0.930 . S
H341 C333 0.931 . S
H342 C356 0.930 . S
H343 C323 0.930 . S
H344 C329 0.929 . S
H345 C330 0.930 . S
H346 C351 0.930 . S
H347 C326 0.930 . S
H348 C359 0.931 . S
N349 Tb320 2.617 . S
N349 C350 1.379 . S
N349 C353 1.334 . S
C350 N349 1.379 . S
C350 C352 1.416 . S
C350 C358 1.424 . S
C351 H346 0.930 . S
C351 C353 1.390 . S
C351 C354 1.339 . S
C352 C350 1.416 . S
C352 C354 1.416 . S
C352 C385 1.448 . S
C353 H338 0.930 . S
C353 N349 1.334 . S
C353 C351 1.390 . S
C354 C351 1.339 . S
C354 C352 1.416 . S
C354 H361 0.930 . S
N355 Tb320 2.572 . S
N355 C356 1.340 . S
N355 C358 1.361 . S
C356 H342 0.930 . S
C356 N355 1.340 . S
C356 C360 1.407 . S
C357 C358 1.413 . S
C357 C359 1.416 . S
C357 C386 1.427 . S
C358 C350 1.424 . S
C358 N355 1.361 . S
C358 C357 1.413 . S
C359 H348 0.931 . S
C359 C357 1.416 . S
C359 C360 1.332 . S
C360 H339 0.929 . S
C360 C356 1.407 . S
C360 C359 1.332 . S
H361 C354 0.930 . S
H362 C385 0.930 . S
H363 C386 0.929 . S
O364 Tb320 2.465 . S
O364 C384 1.264 . S
O365 Tb320 2.387 . S
O365 C376 1.264 . S
O366 Tb331 2.349 1_455 S
O366 C376 1.243 . S
O367 Tb320 2.428 . S
O367 C384 1.256 . S
O368 Tb320 2.308 1_655 S
O368 C383 1.266 . S
O369 Tb331 2.393 . S
O369 C383 1.248 . S
O370 Tb331 2.465 . S
O370 C395 1.264 . S
O371 Tb331 2.387 . S
O371 C387 1.264 . S
O372 Tb320 2.349 . S
O372 C387 1.243 1_455 S
O373 Tb331 2.428 . S
O373 C395 1.256 . S
O374 Tb331 2.308 1_455 S
O374 C394 1.266 . S
O375 Tb320 2.393 . S
O375 C394 1.248 . S
C376 O365 1.264 . S
C376 O366 1.243 . S
C377 C380 1.399 . S
C377 C382 1.383 . S
C377 C384 1.496 . S
C378 C379 1.399 . S
C378 C382 1.389 . S
C379 C378 1.399 . S
C379 C381 1.380 . S
C379 H396 0.929 . S
C380 C377 1.399 . S
C380 C381 1.392 . S
C380 H397 0.929 . S
C381 C379 1.380 . S
C381 C380 1.392 . S
C381 H398 0.929 . S
C382 C377 1.383 . S
C382 C378 1.389 . S
C382 H399 0.931 . S
C383 O368 1.266 . S
C383 O369 1.248 . S
C384 Tb320 2.802 . S
C384 O364 1.264 . S
C384 O367 1.256 . S
C384 C377 1.496 . S
C385 C352 1.448 . S
C385 H362 0.930 . S
C385 C386 1.328 . S
C386 C357 1.427 . S
C386 H363 0.929 . S
C386 C385 1.328 . S
C387 O371 1.264 . S
C387 O372 1.243 1_655 S
C388 C391 1.399 . S
C388 C392 1.383 . S
C388 C395 1.496 . S
C389 C390 1.399 . S
C389 C392 1.389 . S
C390 C389 1.399 . S
C390 C393 1.380 . S
C390 H400 0.929 . S
C391 C388 1.399 . S
C391 C393 1.392 . S
C391 H401 0.929 . S
C392 C388 1.383 . S
C392 C389 1.389 . S
C392 H402 0.931 . S
C393 C390 1.380 . S
C393 C391 1.392 . S
C393 H403 0.929 . S
C394 O374 1.266 . S
C394 O375 1.248 . S
C395 Tb331 2.802 . S
C395 O370 1.264 . S
C395 O373 1.256 . S
C395 C388 1.496 . S
H396 C379 0.929 . S
H397 C380 0.929 . S
H398 C381 0.929 . S
H399 C382 0.931 . S
H400 C390 0.929 . S
H401 C391 0.929 . S
H402 C392 0.931 . S
H403 C393 0.929 . S
Tb404 N433 2.617 . S
Tb404 N439 2.572 . S
Tb404 O448 2.465 . S
Tb404 O449 2.387 . S
Tb404 O451 2.428 . S
Tb404 O452 2.308 . S
Tb404 O456 2.349 . S
Tb404 O459 2.393 . S
Tb404 C468 2.802 . S
C405 N406 1.379 . S
C405 C408 1.416 . S
C405 C412 1.424 . S
N406 C405 1.379 . S
N406 C409 1.334 . S
N406 Tb415 2.617 . S
C407 C409 1.390 . S
C407 C410 1.339 . S
C407 H427 0.930 . S
C408 C405 1.416 . S
C408 C410 1.416 . S
C408 C414 1.448 . S
C409 N406 1.334 . S
C409 C407 1.390 . S
C409 H420 0.930 . S
C410 C407 1.339 . S
C410 C408 1.416 . S
C410 H431 0.930 . S
C411 C412 1.413 . S
C411 C413 1.427 . S
C411 C417 1.416 . S
C412 C405 1.424 . S
C412 C411 1.413 . S
C412 N416 1.361 . S
C413 C411 1.427 . S
C413 C414 1.328 . S
C413 H428 0.929 . S
C414 C408 1.448 . S
C414 C413 1.328 . S
C414 H429 0.930 . S
Tb415 N406 2.617 . S
Tb415 N416 2.572 . S
Tb415 O450 2.349 . S
Tb415 O453 2.393 . S
Tb415 O454 2.465 . S
Tb415 O455 2.387 . S
Tb415 O457 2.428 . S
Tb415 O458 2.308 . S
Tb415 C479 2.802 . S
N416 C412 1.361 . S
N416 Tb415 2.572 . S
N416 C418 1.340 . S
C417 C411 1.416 . S
C417 C419 1.332 . S
C417 H425 0.931 . S
C418 N416 1.340 . S
C418 C419 1.407 . S
C418 H424 0.930 . S
C419 C417 1.332 . S
C419 C418 1.407 . S
C419 H421 0.929 . S
H420 C409 0.930 . S
H421 C419 0.929 . S
H422 C437 0.930 . S
H423 C444 0.929 . S
H424 C418 0.930 . S
H425 C417 0.931 . S
H426 C440 0.930 . S
H427 C407 0.930 . S
H428 C413 0.929 . S
H429 C414 0.930 . S
H430 C435 0.930 . S
H431 C410 0.930 . S
H432 C443 0.931 . S
N433 Tb404 2.617 . S
N433 C434 1.379 . S
N433 C437 1.334 . S
C434 N433 1.379 . S
C434 C436 1.416 . S
C434 C442 1.424 . S
C435 H430 0.930 . S
C435 C437 1.390 . S
C435 C438 1.339 . S
C436 C434 1.416 . S
C436 C438 1.416 . S
C436 C469 1.448 . S
C437 H422 0.930 . S
C437 N433 1.334 . S
C437 C435 1.390 . S
C438 C435 1.339 . S
C438 C436 1.416 . S
C438 H445 0.930 . S
N439 Tb404 2.572 . S
N439 C440 1.340 . S
N439 C442 1.361 . S
C440 H426 0.930 . S
C440 N439 1.340 . S
C440 C444 1.407 . S
C441 C442 1.413 . S
C441 C443 1.416 . S
C441 C470 1.427 . S
C442 C434 1.424 . S
C442 N439 1.361 . S
C442 C441 1.413 . S
C443 H432 0.931 . S
C443 C441 1.416 . S
C443 C444 1.332 . S
C444 H423 0.929 . S
C444 C440 1.407 . S
C444 C443 1.332 . S
H445 C438 0.930 . S
H446 C469 0.930 . S
H447 C470 0.929 . S
O448 Tb404 2.465 . S
O448 C468 1.264 . S
O449 Tb404 2.387 . S
O449 C460 1.264 . S
O450 Tb415 2.349 . S
O450 C460 1.243 . S
O451 Tb404 2.428 . S
O451 C468 1.256 . S
O452 Tb404 2.308 . S
O452 C467 1.266 . S
O453 Tb415 2.393 . S
O453 C467 1.248 . S
O454 Tb415 2.465 . S
O454 C479 1.264 . S
O455 Tb415 2.387 . S
O455 C471 1.264 . S
O456 Tb404 2.349 . S
O456 C471 1.243 . S
O457 Tb415 2.428 . S
O457 C479 1.256 . S
O458 Tb415 2.308 . S
O458 C478 1.266 . S
O459 Tb404 2.393 . S
O459 C478 1.248 . S
C460 O449 1.264 . S
C460 O450 1.243 . S
C461 C464 1.399 . S
C461 C466 1.383 . S
C461 C468 1.496 . S
C462 C463 1.399 . S
C462 C466 1.389 . S
C463 C462 1.399 . S
C463 C465 1.380 . S
C463 H480 0.929 . S
C464 C461 1.399 . S
C464 C465 1.392 . S
C464 H481 0.929 . S
C465 C463 1.380 . S
C465 C464 1.392 . S
C465 H482 0.929 . S
C466 C461 1.383 . S
C466 C462 1.389 . S
C466 H483 0.931 . S
C467 O452 1.266 . S
C467 O453 1.248 . S
C468 Tb404 2.802 . S
C468 O448 1.264 . S
C468 O451 1.256 . S
C468 C461 1.496 . S
C469 C436 1.448 . S
C469 H446 0.930 . S
C469 C470 1.328 . S
C470 C441 1.427 . S
C470 H447 0.929 . S
C470 C469 1.328 . S
C471 O455 1.264 . S
C471 O456 1.243 . S
C472 C475 1.399 . S
C472 C476 1.383 . S
C472 C479 1.496 . S
C473 C474 1.399 . S
C473 C476 1.389 . S
C474 C473 1.399 . S
C474 C477 1.380 . S
C474 H484 0.929 . S
C475 C472 1.399 . S
C475 C477 1.392 . S
C475 H485 0.929 . S
C476 C472 1.383 . S
C476 C473 1.389 . S
C476 H486 0.931 . S
C477 C474 1.380 . S
C477 C475 1.392 . S
C477 H487 0.929 . S
C478 O458 1.266 . S
C478 O459 1.248 . S
C479 Tb415 2.802 . S
C479 O454 1.264 . S
C479 O457 1.256 . S
C479 C472 1.496 . S
H480 C463 0.929 . S
H481 C464 0.929 . S
H482 C465 0.929 . S
H483 C466 0.931 . S
H484 C474 0.929 . S
H485 C475 0.929 . S
H486 C476 0.931 . S
H487 C477 0.929 . S
Tb488 N517 2.617 . S
Tb488 N523 2.572 . S
Tb488 O532 2.465 . S
Tb488 O533 2.387 . S
Tb488 O535 2.428 . S
Tb488 O536 2.308 . S
Tb488 O540 2.349 . S
Tb488 O543 2.393 . S
Tb488 C552 2.802 . S
C489 N490 1.379 . S
C489 C492 1.416 . S
C489 C496 1.424 . S
N490 C489 1.379 . S
N490 C493 1.334 . S
N490 Tb499 2.617 . S
C491 C493 1.390 . S
C491 C494 1.339 . S
C491 H511 0.930 . S
C492 C489 1.416 . S
C492 C494 1.416 . S
C492 C498 1.448 . S
C493 N490 1.334 . S
C493 C491 1.390 . S
C493 H504 0.930 . S
C494 C491 1.339 . S
C494 C492 1.416 . S
C494 H515 0.930 . S
C495 C496 1.413 . S
C495 C497 1.427 . S
C495 C501 1.416 . S
C496 C489 1.424 . S
C496 C495 1.413 . S
C496 N500 1.361 . S
C497 C495 1.427 . S
C497 C498 1.328 . S
C497 H512 0.929 . S
C498 C492 1.448 . S
C498 C497 1.328 . S
C498 H513 0.930 . S
Tb499 N490 2.617 . S
Tb499 N500 2.572 . S
Tb499 O534 2.349 1_655 S
Tb499 O537 2.393 . S
Tb499 O538 2.465 . S
Tb499 O539 2.387 . S
Tb499 O541 2.428 . S
Tb499 O542 2.308 1_655 S
Tb499 C563 2.802 . S
N500 C496 1.361 . S
N500 Tb499 2.572 . S
N500 C502 1.340 . S
C501 C495 1.416 . S
C501 C503 1.332 . S
C501 H509 0.931 . S
C502 N500 1.340 . S
C502 C503 1.407 . S
C502 H508 0.930 . S
C503 C501 1.332 . S
C503 C502 1.407 . S
C503 H505 0.929 . S
H504 C493 0.930 . S
H505 C503 0.929 . S
H506 C521 0.930 . S
H507 C528 0.929 . S
H508 C502 0.930 . S
H509 C501 0.931 . S
H510 C524 0.930 . S
H511 C491 0.930 . S
H512 C497 0.929 . S
H513 C498 0.930 . S
H514 C519 0.930 . S
H515 C494 0.930 . S
H516 C527 0.931 . S
N517 Tb488 2.617 . S
N517 C518 1.379 . S
N517 C521 1.334 . S
C518 N517 1.379 . S
C518 C520 1.416 . S
C518 C526 1.424 . S
C519 H514 0.930 . S
C519 C521 1.390 . S
C519 C522 1.339 . S
C520 C518 1.416 . S
C520 C522 1.416 . S
C520 C553 1.448 . S
C521 H506 0.930 . S
C521 N517 1.334 . S
C521 C519 1.390 . S
C522 C519 1.339 . S
C522 C520 1.416 . S
C522 H529 0.930 . S
N523 Tb488 2.572 . S
N523 C524 1.340 . S
N523 C526 1.361 . S
C524 H510 0.930 . S
C524 N523 1.340 . S
C524 C528 1.407 1_565 S
C525 C526 1.413 . S
C525 C527 1.416 1_565 S
C525 C554 1.427 . S
C526 C518 1.424 . S
C526 N523 1.361 . S
C526 C525 1.413 . S
C527 H516 0.931 . S
C527 C525 1.416 1_545 S
C527 C528 1.332 . S
C528 H507 0.929 . S
C528 C524 1.407 1_545 S
C528 C527 1.332 . S
H529 C522 0.930 . S
H530 C553 0.930 . S
H531 C554 0.929 . S
O532 Tb488 2.465 . S
O532 C552 1.264 . S
O533 Tb488 2.387 . S
O533 C544 1.264 . S
O534 Tb499 2.349 1_455 S
O534 C544 1.243 . S
O535 Tb488 2.428 . S
O535 C552 1.256 . S
O536 Tb488 2.308 . S
O536 C551 1.266 1_455 S
O537 Tb499 2.393 . S
O537 C551 1.248 . S
O538 Tb499 2.465 . S
O538 C563 1.264 . S
O539 Tb499 2.387 . S
O539 C555 1.264 . S
O540 Tb488 2.349 . S
O540 C555 1.243 1_455 S
O541 Tb499 2.428 . S
O541 C563 1.256 . S
O542 Tb499 2.308 1_455 S
O542 C562 1.266 . S
O543 Tb488 2.393 . S
O543 C562 1.248 . S
C544 O533 1.264 . S
C544 O534 1.243 . S
C545 C548 1.399 . S
C545 C550 1.383 . S
C545 C552 1.496 . S
C546 C547 1.399 . S
C546 C550 1.389 . S
C547 C546 1.399 . S
C547 C549 1.380 . S
C547 H564 0.929 . S
C548 C545 1.399 . S
C548 C549 1.392 . S
C548 H565 0.929 . S
C549 C547 1.380 . S
C549 C548 1.392 . S
C549 H566 0.929 . S
C550 C545 1.383 . S
C550 C546 1.389 . S
C550 H567 0.931 . S
C551 O536 1.266 1_655 S
C551 O537 1.248 . S
C552 Tb488 2.802 . S
C552 O532 1.264 . S
C552 O535 1.256 . S
C552 C545 1.496 . S
C553 C520 1.448 . S
C553 H530 0.930 . S
C553 C554 1.328 . S
C554 C525 1.427 . S
C554 H531 0.929 . S
C554 C553 1.328 . S
C555 O539 1.264 . S
C555 O540 1.243 1_655 S
C556 C559 1.399 . S
C556 C560 1.383 . S
C556 C563 1.496 . S
C557 C558 1.399 . S
C557 C560 1.389 . S
C558 C557 1.399 . S
C558 C561 1.380 . S
C558 H568 0.929 . S
C559 C556 1.399 . S
C559 C561 1.392 . S
C559 H569 0.929 . S
C560 C556 1.383 . S
C560 C557 1.389 . S
C560 H570 0.931 . S
C561 C558 1.380 . S
C561 C559 1.392 . S
C561 H571 0.929 . S
C562 O542 1.266 . S
C562 O543 1.248 . S
C563 Tb499 2.802 . S
C563 O538 1.264 . S
C563 O541 1.256 . S
C563 C556 1.496 . S
H564 C547 0.929 . S
H565 C548 0.929 . S
H566 C549 0.929 . S
H567 C550 0.931 . S
H568 C558 0.929 . S
H569 C559 0.929 . S
H570 C560 0.931 . S
H571 C561 0.929 . S
Tb572 N601 2.617 . S
Tb572 N607 2.572 . S
Tb572 O616 2.465 . S
Tb572 O617 2.387 . S
Tb572 O619 2.428 . S
Tb572 O620 2.308 . S
Tb572 O624 2.349 . S
Tb572 O627 2.393 . S
Tb572 C636 2.802 . S
C573 N574 1.379 . S
C573 C576 1.416 . S
C573 C580 1.424 . S
N574 C573 1.379 . S
N574 C577 1.334 . S
N574 Tb583 2.617 . S
C575 C577 1.390 . S
C575 C578 1.339 . S
C575 H595 0.930 . S
C576 C573 1.416 . S
C576 C578 1.416 . S
C576 C582 1.448 . S
C577 N574 1.334 . S
C577 C575 1.390 . S
C577 H588 0.930 . S
C578 C575 1.339 . S
C578 C576 1.416 . S
C578 H599 0.930 . S
C579 C580 1.413 . S
C579 C581 1.427 . S
C579 C585 1.416 . S
C580 C573 1.424 . S
C580 C579 1.413 . S
C580 N584 1.361 . S
C581 C579 1.427 . S
C581 C582 1.328 . S
C581 H596 0.929 . S
C582 C576 1.448 . S
C582 C581 1.328 . S
C582 H597 0.930 . S
Tb583 N574 2.617 . S
Tb583 N584 2.572 . S
Tb583 O618 2.349 . S
Tb583 O621 2.393 . S
Tb583 O622 2.465 . S
Tb583 O623 2.387 . S
Tb583 O625 2.428 . S
Tb583 O626 2.308 . S
Tb583 C647 2.802 . S
N584 C580 1.361 . S
N584 Tb583 2.572 . S
N584 C586 1.340 . S
C585 C579 1.416 . S
C585 C587 1.332 . S
C585 H593 0.931 . S
C586 N584 1.340 . S
C586 C587 1.407 . S
C586 H592 0.930 . S
C587 C585 1.332 . S
C587 C586 1.407 . S
C587 H589 0.929 . S
H588 C577 0.930 . S
H589 C587 0.929 . S
H590 C605 0.930 . S
H591 C612 0.929 . S
H592 C586 0.930 . S
H593 C585 0.931 . S
H594 C608 0.930 . S
H595 C575 0.930 . S
H596 C581 0.929 . S
H597 C582 0.930 . S
H598 C603 0.930 . S
H599 C578 0.930 . S
H600 C611 0.931 . S
N601 Tb572 2.617 . S
N601 C602 1.379 . S
N601 C605 1.334 . S
C602 N601 1.379 . S
C602 C604 1.416 . S
C602 C610 1.424 . S
C603 H598 0.930 . S
C603 C605 1.390 . S
C603 C606 1.339 . S
C604 C602 1.416 . S
C604 C606 1.416 . S
C604 C637 1.448 . S
C605 H590 0.930 . S
C605 N601 1.334 . S
C605 C603 1.390 . S
C606 C603 1.339 . S
C606 C604 1.416 . S
C606 H613 0.930 . S
N607 Tb572 2.572 . S
N607 C608 1.340 . S
N607 C610 1.361 . S
C608 H594 0.930 . S
C608 N607 1.340 . S
C608 C612 1.407 . S
C609 C610 1.413 . S
C609 C611 1.416 . S
C609 C638 1.427 . S
C610 C602 1.424 . S
C610 N607 1.361 . S
C610 C609 1.413 . S
C611 H600 0.931 . S
C611 C609 1.416 . S
C611 C612 1.332 . S
C612 H591 0.929 . S
C612 C608 1.407 . S
C612 C611 1.332 . S
H613 C606 0.930 . S
H614 C637 0.930 . S
H615 C638 0.929 . S
O616 Tb572 2.465 . S
O616 C636 1.264 . S
O617 Tb572 2.387 . S
O617 C628 1.264 . S
O618 Tb583 2.349 . S
O618 C628 1.243 . S
O619 Tb572 2.428 . S
O619 C636 1.256 . S
O620 Tb572 2.308 . S
O620 C635 1.266 . S
O621 Tb583 2.393 . S
O621 C635 1.248 . S
O622 Tb583 2.465 . S
O622 C647 1.264 . S
O623 Tb583 2.387 . S
O623 C639 1.264 . S
O624 Tb572 2.349 . S
O624 C639 1.243 . S
O625 Tb583 2.428 . S
O625 C647 1.256 . S
O626 Tb583 2.308 . S
O626 C646 1.266 . S
O627 Tb572 2.393 . S
O627 C646 1.248 . S
C628 O617 1.264 . S
C628 O618 1.243 . S
C629 C632 1.399 . S
C629 C634 1.383 . S
C629 C636 1.496 . S
C630 C631 1.399 . S
C630 C634 1.389 . S
C631 C630 1.399 . S
C631 C633 1.380 . S
C631 H648 0.929 . S
C632 C629 1.399 . S
C632 C633 1.392 . S
C632 H649 0.929 . S
C633 C631 1.380 . S
C633 C632 1.392 . S
C633 H650 0.929 . S
C634 C629 1.383 . S
C634 C630 1.389 . S
C634 H651 0.931 . S
C635 O620 1.266 . S
C635 O621 1.248 . S
C636 Tb572 2.802 . S
C636 O616 1.264 . S
C636 O619 1.256 . S
C636 C629 1.496 . S
C637 C604 1.448 . S
C637 H614 0.930 . S
C637 C638 1.328 . S
C638 C609 1.427 . S
C638 H615 0.929 . S
C638 C637 1.328 . S
C639 O623 1.264 . S
C639 O624 1.243 . S
C640 C643 1.399 . S
C640 C644 1.383 . S
C640 C647 1.496 . S
C641 C642 1.399 . S
C641 C644 1.389 . S
C642 C641 1.399 . S
C642 C645 1.380 . S
C642 H652 0.929 . S
C643 C640 1.399 . S
C643 C645 1.392 . S
C643 H653 0.929 . S
C644 C640 1.383 . S
C644 C641 1.389 . S
C644 H654 0.931 . S
C645 C642 1.380 . S
C645 C643 1.392 . S
C645 H655 0.929 . S
C646 O626 1.266 . S
C646 O627 1.248 . S
C647 Tb583 2.802 . S
C647 O622 1.264 . S
C647 O625 1.256 . S
C647 C640 1.496 . S
H648 C631 0.929 . S
H649 C632 0.929 . S
H650 C633 0.929 . S
H651 C634 0.931 . S
H652 C642 0.929 . S
H653 C643 0.929 . S
H654 C644 0.931 . S
H655 C645 0.929 . S
C242 C394 1.480 . S
C478 C301 1.599 . S
C471 C162 1.475 . S
C221 C387 1.587 . S
C551 C82 1.621 . S
C635 C141 1.480 . S
C2 C628 1.620 . S
C61 C544 1.462 . S
C378 C42 1.215 . S
C462 C21 1.254 . S
C473 C122 1.373 . S
C389 C101 1.529 . S
C557 C202 1.245 . S
C181 C641 1.192 . S
C630 C282 1.456 . S
C261 C546 1.418 . S
C376 C15 1.839 . S
C460 C55 1.769 . S
C95 C467 1.855 . S
C383 C135 1.783 . S
C555 C175 1.823 . S
C215 C639 1.785 . S
C255 C646 1.842 . S
C295 C562 1.795 . S
