# Generated by pormake.
# Topology zzz, (3,6)-cn, num edge types: 1
# Building blocks:
#     Node 0, Type 0, BuildingBlock: WUSLED_clean_sbu_0, # of connection points: 3
#     Node 1, Type 0, BuildingBlock: WUSLED_clean_sbu_0, # of connection points: 3
#     Node 2, Type 0, BuildingBlock: WUSLED_clean_sbu_0, # of connection points: 3
#     Node 3, Type 0, BuildingBlock: WUSLED_clean_sbu_0, # of connection points: 3
#     Node 4, Type 0, BuildingBlock: WUSLED_clean_sbu_0, # of connection points: 3
#     Node 5, Type 0, BuildingBlock: WUSLED_clean_sbu_0, # of connection points: 3
#     Node 6, Type 0, BuildingBlock: WUSLED_clean_sbu_0, # of connection points: 3
#     Node 7, Type 0, BuildingBlock: WUSLED_clean_sbu_0, # of connection points: 3
#     Node 8, Type 1, BuildingBlock: CUKXOW_clean_sbu_0, # of connection points: 6
#     Node 9, Type 1, BuildingBlock: CUKXOW_clean_sbu_0, # of connection points: 6
#     Node 10, Type 1, BuildingBlock: CUKXOW_clean_sbu_0, # of connection points: 6
#     Node 11, Type 1, BuildingBlock: CUKXOW_clean_sbu_0, # of connection points: 6
#     Edge 12, Type (0, 1), BuildingBlock: XUDNAN_clean_linker_2, # of connection points: 2
#     Edge 13, Type (0, 1), BuildingBlock: XUDNAN_clean_linker_2, # of connection points: 2
#     Edge 14, Type (0, 1), BuildingBlock: XUDNAN_clean_linker_2, # of connection points: 2
#     Edge 15, Type (0, 1), BuildingBlock: XUDNAN_clean_linker_2, # of connection points: 2
#     Edge 16, Type (0, 1), BuildingBlock: XUDNAN_clean_linker_2, # of connection points: 2
#     Edge 17, Type (0, 1), BuildingBlock: XUDNAN_clean_linker_2, # of connection points: 2
#     Edge 18, Type (0, 1), BuildingBlock: XUDNAN_clean_linker_2, # of connection points: 2
#     Edge 19, Type (0, 1), BuildingBlock: XUDNAN_clean_linker_2, # of connection points: 2
#     Edge 20, Type (0, 1), BuildingBlock: XUDNAN_clean_linker_2, # of connection points: 2
#     Edge 21, Type (0, 1), BuildingBlock: XUDNAN_clean_linker_2, # of connection points: 2
#     Edge 22, Type (0, 1), BuildingBlock: XUDNAN_clean_linker_2, # of connection points: 2
#     Edge 23, Type (0, 1), BuildingBlock: XUDNAN_clean_linker_2, # of connection points: 2
#     Edge 24, Type (0, 1), BuildingBlock: XUDNAN_clean_linker_2, # of connection points: 2
#     Edge 25, Type (0, 1), BuildingBlock: XUDNAN_clean_linker_2, # of connection points: 2
#     Edge 26, Type (0, 1), BuildingBlock: XUDNAN_clean_linker_2, # of connection points: 2
#     Edge 27, Type (0, 1), BuildingBlock: XUDNAN_clean_linker_2, # of connection points: 2
#     Edge 28, Type (0, 1), BuildingBlock: XUDNAN_clean_linker_2, # of connection points: 2
#     Edge 29, Type (0, 1), BuildingBlock: XUDNAN_clean_linker_2, # of connection points: 2
#     Edge 30, Type (0, 1), BuildingBlock: XUDNAN_clean_linker_2, # of connection points: 2
#     Edge 31, Type (0, 1), BuildingBlock: XUDNAN_clean_linker_2, # of connection points: 2
#     Edge 32, Type (0, 1), BuildingBlock: XUDNAN_clean_linker_2, # of connection points: 2
#     Edge 33, Type (0, 1), BuildingBlock: XUDNAN_clean_linker_2, # of connection points: 2
#     Edge 34, Type (0, 1), BuildingBlock: XUDNAN_clean_linker_2, # of connection points: 2
#     Edge 35, Type (0, 1), BuildingBlock: XUDNAN_clean_linker_2, # of connection points: 2
# Relax obj value: 0.204
# Max RMSD: 0.223
# Mean RMSD: 0.182
data_MOF--net-zzz--node1-WUSLED_clean_sbu_0--node2-CUKXOW_clean_sbu_0--edge1-XUDNAN_clean_linker_2
_symmetry_space_group_name_H-M    P1
_symmetry_Int_Tables_number       1
_symmetry_cell_setting            triclinic
loop_
_symmetry_equiv_pos_as_xyz
'x, y, z'
_cell_length_a     62.572453
_cell_length_b     60.189453
_cell_length_c     21.719977
_cell_angle_alpha  92.274705
_cell_angle_beta   88.308571
_cell_angle_gamma 95.491181
loop_
_atom_site_label
_atom_site_type_symbol
_atom_site_fract_x
_atom_site_fract_y
_atom_site_fract_z
_atom_type_partial_charge
C0 C 0.79349 0.46328 0.27299 0.0
C1 C 0.81412 0.46044 0.249 0.0
C2 C 0.82924 0.4737 0.34707 0.0
C3 C 0.83193 0.46568 0.28596 0.0
C4 C 0.80852 0.47545 0.37182 0.0
C5 C 0.79072 0.47032 0.33479 0.0
U6 U 0.76492 0.45878 0.11662 0.0
O7 O 0.73314 0.44113 0.09651 0.0
O8 O 0.73794 0.47801 0.09859 0.0
C9 C 0.72435 0.46004 0.09357 0.0
C10 C 0.77485 0.46134 0.23345 0.0
C11 C 0.70586 0.46115 0.05483 0.0
C12 C 0.66802 0.46655 0.05278 0.0
C13 C 0.68583 0.46186 0.08504 0.0
C14 C 0.68991 0.4689 0.95872 0.0
C15 C 0.67007 0.47046 0.9898 0.0
C16 C 0.70787 0.46427 0.99125 0.0
C17 C 0.80965 0.45782 0.97744 0.0
C18 C 0.82139 0.47419 0.88032 0.0
C19 C 0.84544 0.45331 0.93566 0.0
C20 C 0.82946 0.4489 0.98093 0.0
C21 C 0.84181 0.46678 0.88645 0.0
C22 C 0.80535 0.46969 0.92562 0.0
C23 C 0.79531 0.45746 0.03222 0.0
O24 O 0.77299 0.47884 0.20058 0.0
O25 O 0.77058 0.44227 0.20261 0.0
O26 O 0.78526 0.43904 0.05363 0.0
O27 O 0.78846 0.47622 0.05445 0.0
H28 H 0.81648 0.45515 0.20122 0.0
H29 H 0.84789 0.46441 0.26616 0.0
H30 H 0.80619 0.48198 0.41848 0.0
H31 H 0.77486 0.47281 0.35361 0.0
H32 H 0.65292 0.46821 0.07752 0.0
H33 H 0.68419 0.45989 0.13441 0.0
H34 H 0.69169 0.47227 0.91012 0.0
H35 H 0.72333 0.46406 0.96758 0.0
H36 H 0.8184 0.48479 0.84297 0.0
H37 H 0.86124 0.44795 0.94214 0.0
H38 H 0.83314 0.43996 0.02103 0.0
H39 H 0.79012 0.47667 0.92216 0.0
C40 C 0.9114 0.81601 0.21599 0.0
C41 C 0.91793 0.83819 0.20154 0.0
C42 C 0.91949 0.84888 0.31116 0.0
C43 C 0.92198 0.85451 0.2489 0.0
C44 C 0.91247 0.8268 0.32538 0.0
C45 C 0.90857 0.81052 0.27819 0.0
U46 U 0.90722 0.77665 0.06047 0.0
O47 O 0.92523 0.74717 0.06055 0.0
O48 O 0.89005 0.74278 0.06083 0.0
C49 C 0.90797 0.73298 0.05897 0.0
C50 C 0.90956 0.79767 0.1687 0.0
C51 C 0.90934 0.71355 0.01623 0.0
C52 C 0.91306 0.67379 1.00311 0.0
C53 C 0.90887 0.69234 0.04075 0.0
C54 C 0.91788 0.69745 0.91524 0.0
C55 C 0.91819 0.67609 0.93994 0.0
C56 C 0.91341 0.71596 0.95297 0.0
C57 C 0.9082 0.81842 0.92523 0.0
C58 C 0.92642 0.84337 0.85055 0.0
C59 C 0.89893 0.85653 0.91977 0.0
C60 C 0.89553 0.83545 0.94528 0.0
C61 C 0.91528 0.86104 0.87466 0.0
C62 C 0.92288 0.82225 0.87568 0.0
C63 C 0.90686 0.79659 0.95467 0.0
O64 O 0.89111 0.7914 0.14273 0.0
O65 O 0.92649 0.79415 0.13372 0.0
O66 O 0.92448 0.79159 0.98024 0.0
O67 O 0.88931 0.79022 0.98673 0.0
H68 H 0.9203 0.84275 0.15393 0.0
H69 H 0.92718 0.87152 0.23702 0.0
H70 H 0.91052 0.82206 0.37297 0.0
H71 H 0.90386 0.79342 0.29036 0.0
H72 H 0.91258 0.65774 0.02408 0.0
H73 H 0.90585 0.69021 0.08965 0.0
H74 H 0.92201 0.70024 0.86728 0.0
H75 H 0.91399 0.73227 0.93325 0.0
H76 H 0.93915 0.8463 0.81612 0.0
H77 H 0.88995 0.86985 0.93876 0.0
H78 H 0.88373 0.83283 0.98241 0.0
H79 H 0.93246 0.80915 0.85846 0.0
C80 C 0.72148 0.02358 0.31381 0.0
C81 C 0.70156 0.02769 0.29044 0.0
C82 C 0.68425 0.02154 0.39093 0.0
C83 C 0.68311 0.02666 0.32871 0.0
C84 C 0.7042 0.01792 0.41471 0.0
C85 C 0.72271 0.01898 0.37639 0.0
U86 U 0.74273 0.01959 0.15105 0.0
O87 O 0.77112 0.03491 0.1011 0.0
O88 O 0.76532 0.99806 0.10346 0.0
C89 C 0.77713 0.01541 0.0818 0.0
C90 C 0.74043 0.02231 0.27184 0.0
C91 C 0.79961 1.01368 0.0619 0.0
C92 C 0.83801 0.02283 0.07301 0.0
C93 C 0.81706 0.02157 0.09848 0.0
C94 C 0.82424 1.00722 0.97584 0.0
C95 C 0.84163 0.0161 0.0111 0.0
C96 C 0.80342 1.00607 1.00106 0.0
C97 C 0.69554 0.01884 0.03688 0.0
C98 C 0.69473 0.02396 0.92642 0.0
C99 C 0.66186 1.01319 0.98435 0.0
C100 C 0.67335 1.01323 0.03799 0.0
C101 C 0.67237 0.01881 0.92856 0.0
C102 C 0.70639 0.02392 0.98075 0.0
C103 C 0.70608 0.02023 0.09634 0.0
O104 O 0.74087 1.00326 0.24026 0.0
O105 O 0.74539 0.03978 0.23788 0.0
O106 O 0.7188 0.03836 0.10927 0.0
O107 O 0.71316 1.00181 0.11469 0.0
H108 H 0.70015 0.03098 0.24213 0.0
H109 H 0.66779 0.02904 0.30921 0.0
H110 H 0.7053 1.01347 0.46228 0.0
H111 H 0.73784 0.01551 0.39514 0.0
H112 H 0.85129 0.02988 0.1007 0.0
H113 H 0.81443 0.02757 0.14551 0.0
H114 H 0.82663 1.00243 0.92769 0.0
H115 H 0.79011 1.00024 0.97192 0.0
H116 H 0.703 0.02824 0.88338 0.0
H117 H 0.64459 1.00924 0.98663 0.0
H118 H 0.66477 1.00933 0.08089 0.0
H119 H 0.7236 0.0282 0.97922 0.0
C120 C 0.62697 0.72651 0.27329 0.0
C121 C 0.62862 0.70452 0.25119 0.0
C122 C 0.61505 0.6903 0.35033 0.0
C123 C 0.62273 0.68659 0.28947 0.0
C124 C 0.6149 0.71237 0.37361 0.0
C125 C 0.62077 0.7303 0.33531 0.0
U126 U 0.63086 0.75637 0.11491 0.0
O127 O 0.61232 0.78456 0.09845 0.0
O128 O 0.64768 0.78952 0.09345 0.0
C129 C 0.62945 0.79864 0.09069 0.0
C130 C 0.62913 0.74559 0.2319 0.0
C131 C 0.62758 0.81788 0.05154 0.0
C132 C 0.62573 0.85804 0.05091 0.0
C133 C 0.63174 0.83922 0.07909 0.0
C134 C 0.61243 0.83478 0.96432 0.0
C135 C 0.61507 0.85606 0.99443 0.0
C136 C 0.6185 0.81579 0.99289 0.0
C137 C 0.62966 0.70744 0.97875 0.0
C138 C 0.60869 0.68609 0.90016 0.0
C139 C 0.63711 0.66951 0.94978 0.0
C140 C 0.64232 0.68957 0.9832 0.0
C141 C 0.6193 0.66717 0.91115 0.0
C142 C 0.61369 0.70605 0.93428 0.0
C143 C 0.63012 0.72509 0.02799 0.0
O144 O 0.64725 0.74953 0.20023 0.0
O145 O 0.61219 0.74804 0.19958 0.0
O146 O 0.61249 0.73252 0.05183 0.0
O147 O 0.64822 0.73459 0.05041 0.0
H148 H 0.63335 0.70118 0.20359 0.0
H149 H 0.62288 0.6697 0.27033 0.0
H150 H 0.60872 0.71575 0.41982 0.0
H151 H 0.6193 0.74717 0.35321 0.0
H152 H 0.6286 0.87409 0.07503 0.0
H153 H 0.63855 0.84125 0.12453 0.0
H154 H 0.6044 0.83255 0.92074 0.0
H155 H 0.61508 0.79945 0.97076 0.0
H156 H 0.59485 0.68471 0.87092 0.0
H157 H 0.64547 0.65512 0.95924 0.0
H158 H 0.65473 0.69025 0.01715 0.0
H159 H 0.60387 0.71974 0.92967 0.0
C160 C 0.23395 0.56094 0.12143 0.0
C161 C 0.21269 0.5593 0.14472 0.0
C162 C 0.19914 0.55508 0.04039 0.0
C163 C 0.19546 0.55628 0.10454 0.0
C164 C 0.22036 0.55771 0.01703 0.0
C165 C 0.23764 0.5606 0.05732 0.0
U166 U 0.25394 0.56354 0.28461 0.0
O167 O 0.27756 0.54506 0.32982 0.0
O168 O 0.282 0.58208 0.32872 0.0
C169 C 0.28874 0.56362 0.34822 0.0
C170 C 0.25215 0.56174 0.16373 0.0
C171 C 0.31088 0.56319 0.36859 0.0
C172 C 0.34927 0.56187 0.35058 0.0
C173 C 0.3287 0.56345 0.32781 0.0
C174 C 0.33418 0.55991 0.45443 0.0
C175 C 0.35223 0.55977 0.41431 0.0
C176 C 0.31386 0.56172 0.4318 0.0
C177 C 0.20673 0.5666 0.40644 0.0
C178 C 0.20177 0.55631 0.51345 0.0
C179 C 0.17441 0.57459 0.46367 0.0
C180 C 0.18697 0.57567 0.40986 0.0
C181 C 0.18132 0.56437 0.5156 0.0
C182 C 0.21448 0.55746 0.45904 0.0
C183 C 0.21726 0.56522 0.34527 0.0
O184 O 0.25607 0.58051 0.19619 0.0
O185 O 0.25267 0.54397 0.19678 0.0
O186 O 0.22521 0.54639 0.32857 0.0
O187 O 0.22909 0.5831 0.32728 0.0
H188 H 0.20943 0.55953 0.19401 0.0
H189 H 0.17923 0.55395 0.12359 0.0
H190 H 0.22359 0.55638 0.96782 0.0
H191 H 0.25391 0.56179 0.03845 0.0
H192 H 0.36278 0.56213 0.31822 0.0
H193 H 0.32669 0.56462 0.27872 0.0
H194 H 0.33549 0.5578 0.50338 0.0
H195 H 0.30024 0.56143 0.4639 0.0
H196 H 0.20743 0.54823 0.55274 0.0
H197 H 0.15853 0.58033 0.46283 0.0
H198 H 0.18067 0.58257 0.36955 0.0
H199 H 0.22978 0.55039 0.45725 0.0
C200 C 0.12032 0.22618 0.17167 0.0
C201 C 0.12652 0.20489 0.18191 0.0
C202 C 0.11195 0.19114 0.08263 0.0
C203 C 0.12246 0.18751 0.13747 0.0
C204 C 0.10598 0.21257 0.07273 0.0
C205 C 0.1102 0.22988 0.1167 0.0
U206 U 0.12721 0.25894 0.33297 0.0
O207 O 0.14304 0.29315 0.35052 0.0
O208 O 0.1078 0.28698 0.35046 0.0
C209 C 0.12448 0.30182 0.35469 0.0
C210 C 0.12317 0.24497 0.21715 0.0
C211 C 0.12168 0.32156 0.39518 0.0
C212 C 0.10629 0.35716 0.40566 0.0
C213 C 0.11284 0.33939 0.36896 0.0
C214 C 0.11896 0.34043 0.49561 0.0
C215 C 0.10865 0.35773 0.46993 0.0
C216 C 0.12515 0.32232 0.45866 0.0
C217 C 0.12867 0.2149 0.47063 0.0
C218 C 0.11002 0.20007 0.56195 0.0
C219 C 0.12972 0.17596 0.49432 0.0
C220 C 0.13659 0.19413 0.45799 0.0
C221 C 0.11486 0.17847 0.54336 0.0
C222 C 0.11667 0.21817 0.52526 0.0
C223 C 0.1282 0.23073 0.42077 0.0
O224 O 0.10687 0.2475 0.25522 0.0
O225 O 0.14194 0.24966 0.2428 0.0
O226 O 0.14584 0.23956 0.39321 0.0
O227 O 0.11012 0.23715 0.40163 0.0
H228 H 0.13422 0.20165 0.22422 0.0
H229 H 0.1271 0.1711 0.14658 0.0
H230 H 0.09813 0.21599 0.0308 0.0
H231 H 0.10532 0.24625 0.10798 0.0
H232 H 0.09827 0.36972 0.38357 0.0
H233 H 0.10995 0.33902 0.31994 0.0
H234 H 0.1217 0.34048 0.54457 0.0
H235 H 0.13196 0.3087 0.47981 0.0
H236 H 0.09847 0.2024 0.59925 0.0
H237 H 0.13344 0.15942 0.47857 0.0
H238 H 0.14584 0.19123 0.41595 0.0
H239 H 0.11053 0.23414 0.53601 0.0
C240 C 0.30574 0.03347 0.09885 0.0
C241 C 0.32678 0.03974 0.11833 0.0
C242 C 0.34121 0.02904 0.01735 0.0
C243 C 0.34437 0.0377 0.07771 0.0
C244 C 0.32017 0.02312 0.99767 0.0
C245 C 0.30257 0.02544 0.03801 0.0
U246 U 0.28643 0.03575 0.26392 0.0
O247 O 0.26027 0.05118 0.3144 0.0
O248 O 0.26197 0.01471 0.31612 0.0
C249 C 0.25207 0.03201 0.3361 0.0
C250 C 0.28735 0.03342 0.14316 0.0
C251 C 0.22891 0.02881 0.35113 0.0
C252 C 0.19177 0.036 0.33764 0.0
C253 C 0.21326 0.03737 0.31624 0.0
C254 C 0.20151 0.01714 0.42771 0.0
C255 C 0.18572 0.02619 0.39432 0.0
C256 C 0.22279 0.01852 0.40644 0.0
C257 C 0.33205 0.03994 0.37972 0.0
C258 C 0.33015 0.02412 0.48112 0.0
C259 C 0.36388 0.04179 0.44092 0.0
C260 C 0.3538 0.04688 0.38764 0.0
C261 C 0.35236 0.02944 0.48657 0.0
C262 C 0.31995 0.02956 0.42798 0.0
C263 C 0.32361 0.04017 0.31758 0.0
O264 O 0.2846 0.0157 0.17699 0.0
O265 O 0.28557 0.0522 0.17527 0.0
O266 O 0.31334 0.05734 0.30438 0.0
O267 O 0.31433 0.02094 0.29691 0.0
H268 H 0.32963 0.04561 0.16545 0.0
H269 H 0.36048 0.04196 0.0942 0.0
H270 H 0.3174 0.01624 0.95143 0.0
H271 H 0.28651 0.02032 0.02227 0.0
H272 H 0.18007 0.04319 0.31069 0.0
H273 H 0.21768 0.04549 0.27349 0.0
H274 H 0.19749 1.00896 0.4706 0.0
H275 H 0.23466 1.01194 0.43422 0.0
H276 H 0.32109 0.01444 0.51577 0.0
H277 H 0.38112 0.04563 0.4437 0.0
H278 H 0.36338 0.0547 0.35063 0.0
H279 H 0.30307 0.02416 0.42255 0.0
C280 C 0.39343 0.30958 0.13377 0.0
C281 C 0.38841 0.33166 0.14487 0.0
C282 C 0.40503 0.34242 0.04488 0.0
C283 C 0.39395 0.34789 0.10049 0.0
C284 C 0.4097 0.32002 0.03514 0.0
C285 C 0.40369 0.30396 0.0782 0.0
U286 U 0.38752 0.28103 0.29549 0.0
O287 O 0.37142 0.24748 0.31656 0.0
O288 O 0.40675 0.25334 0.31075 0.0
C289 C 0.38995 0.23884 0.31805 0.0
C290 C 0.39017 0.29188 0.17914 0.0
C291 C 0.39263 0.21931 0.35505 0.0
C292 C 0.3997 0.1803 0.35115 0.0
C293 C 0.39293 0.19874 0.32302 0.0
C294 C 0.40466 0.2022 0.44629 0.0
C295 C 0.40592 0.1816 0.41321 0.0
C296 C 0.39834 0.22098 0.41721 0.0
C297 C 0.38887 0.32993 0.43097 0.0
C298 C 0.41043 0.35107 0.50841 0.0
C299 C 0.38304 0.36852 0.45653 0.0
C300 C 0.37708 0.34835 0.42457 0.0
C301 C 0.4008 0.37046 0.49539 0.0
C302 C 0.40462 0.33097 0.47591 0.0
C303 C 0.38838 0.31228 0.38205 0.0
O304 O 0.40683 0.28922 0.21232 0.0
O305 O 0.37172 0.28859 0.20959 0.0
O306 O 0.37022 0.30273 0.36013 0.0
O307 O 0.40599 0.30478 0.35838 0.0
H308 H 0.38057 0.3364 0.18787 0.0
H309 H 0.38967 0.36466 0.11045 0.0
H310 H 0.41884 0.31457 0.9954 0.0
H311 H 0.40788 0.28705 0.06888 0.0
H312 H 0.40096 0.16536 0.32251 0.0
H313 H 0.38907 0.1972 0.2746 0.0
H314 H 0.40892 0.20405 0.49425 0.0
H315 H 0.39852 0.23685 0.4426 0.0
H316 H 0.42407 0.35197 0.53825 0.0
H317 H 0.37516 0.38315 0.44621 0.0
H318 H 0.36484 0.3479 0.39015 0.0
H319 H 0.41376 0.31684 0.48189 0.0
Tb320 Tb 0.99975 1.00583 0.65022 0.0
C321 C 0.04981 0.01399 0.63483 0.0
Tb322 Tb 0.02629 0.03442 0.75297 0.0
O323 O 1.00663 0.03211 0.58241 0.0
O324 O 0.00851 0.03974 0.67555 0.0
O325 O 0.03239 1.00046 0.62172 0.0
C326 C 0.04899 0.06646 0.81946 0.0
O327 O 0.05062 0.0293 0.6807 0.0
C328 C 0.01204 0.99367 0.78329 0.0
C329 C 0.97584 0.02674 0.76519 0.0
O330 O 0.05489 0.04678 0.80451 0.0
O331 O 0.0303 0.06819 0.79659 0.0
O332 O 0.01866 1.0096 0.82231 0.0
O333 O 0.01701 1.00022 0.72976 0.0
O334 O 0.99321 0.04057 0.7777 0.0
O335 O 0.97556 1.01024 0.72272 0.0
C336 C 0.97757 0.97341 0.58322 0.0
O337 O 0.97023 0.99179 0.60464 0.0
O338 O 0.9973 0.97327 0.5999 0.0
C339 C 0.01316 0.04735 0.62351 0.0
Tb340 Tb 0.50682 0.04181 0.67303 0.0
C341 C 0.54535 0.01654 0.61496 0.0
Tb342 Tb 0.5158 0.99398 0.72383 0.0
O343 O 0.53644 0.05842 0.71359 0.0
O344 O 0.52209 0.02853 0.7464 0.0
O345 O 0.53344 0.03362 0.61059 0.0
C346 C 0.53317 0.96357 0.79032 0.0
O347 O 0.54137 1.00029 0.65444 0.0
C348 C 0.48449 0.99257 0.64649 0.0
C349 C 0.47663 0.01885 0.77978 0.0
O350 O 0.53288 0.96351 0.73036 0.0
O351 O 0.52342 0.98043 0.81211 0.0
O352 O 0.48799 0.97579 0.67983 0.0
O353 O 0.50025 1.00723 0.6518 0.0
O354 O 0.48908 1.00225 0.78394 0.0
O355 O 0.48063 0.03569 0.74179 0.0
C356 C 0.48811 0.07073 0.60542 0.0
O357 O 0.49536 0.07503 0.66078 0.0
O358 O 0.49158 0.05037 0.58887 0.0
C359 C 0.53885 0.042 0.74959 0.0
Tb360 Tb 0.52467 0.53358 0.65831 0.0
C361 C 0.47446 0.53004 0.66136 0.0
Tb362 Tb 0.49828 0.50194 0.75336 0.0
O363 O 0.51535 0.51152 0.57869 0.0
O364 O 0.51375 0.49901 0.66556 0.0
O365 O 0.49233 0.54343 0.65336 0.0
C366 C 0.47806 0.46725 0.81257 0.0
O367 O 0.47347 0.51148 0.69313 0.0
C368 C 0.51522 0.5406 0.80031 0.0
C369 C 0.54886 0.50768 0.75361 0.0
O370 O 0.47227 0.4875 0.81555 0.0
O371 O 0.49466 0.46672 0.77552 0.0
O372 O 0.50833 0.52358 0.83275 0.0
O373 O 0.5093 0.53624 0.74584 0.0
O374 O 0.53129 0.49401 0.76447 0.0
O375 O 0.54935 0.52528 0.7186 0.0
C376 C 0.546 0.56862 0.60197 0.0
O377 O 0.55371 0.54973 0.61133 0.0
O378 O 0.52634 0.56734 0.62305 0.0
C379 C 0.50814 0.49448 0.61074 0.0
Tb380 Tb 0.99661 0.51399 0.64305 0.0
C381 C 0.02902 0.47849 0.65453 0.0
Tb382 Tb 0.02893 0.52151 0.75009 0.0
O383 O 0.02356 0.52098 0.57725 0.0
O384 O 0.02424 0.53552 0.66503 0.0
O385 O 0.01085 0.48263 0.62913 0.0
C386 C 0.06594 0.52704 0.81036 0.0
O387 O 0.03885 0.49181 0.69774 0.0
C388 C 0.99091 0.5032 0.78128 0.0
C389 C 0.99357 0.55494 0.74168 0.0
O390 O 0.05023 0.51174 0.81969 0.0
O391 O 0.06064 0.53988 0.76765 0.0
O392 O 1.00383 0.51444 0.81975 0.0
O393 O 1.00077 0.50071 0.7302 0.0
O394 O 0.01214 0.55166 0.76696 0.0
O395 O 0.98456 0.54164 0.69743 0.0
C396 C 0.96097 0.50934 0.57684 0.0
O397 O 0.97737 0.52392 0.56845 0.0
O398 O 0.96476 0.4969 0.62209 0.0
C399 C 0.03515 0.53365 0.61598 0.0
H400 H 0.17197 0.03071 0.51567 0.0
H401 H 0.14826 0.01935 0.32988 0.0
H402 H 0.11111 0.01574 0.37203 0.0
H403 H 0.13395 0.98978 0.58377 0.0
H404 H 0.13134 1.00559 0.65535 0.0
H405 H 0.15608 1.00871 0.61061 0.0
H406 H 0.15351 0.05141 0.60823 0.0
H407 H 0.1288 0.0484 0.65304 0.0
H408 H 0.12962 0.06164 0.57991 0.0
H409 H 0.07691 1.01088 0.43385 0.0
H410 H 0.04735 1.00752 0.51143 0.0
H411 H 0.093 0.02198 0.65754 0.0
C412 C 0.15903 0.02738 0.48361 0.0
C413 C 0.16318 0.02526 0.41919 0.0
C414 C 0.14562 0.02133 0.37918 0.0
C415 C 0.12444 0.01908 0.40274 0.0
C416 C 0.12106 0.02075 0.46638 0.0
C417 C 0.13783 0.02492 0.50632 0.0
C418 C 0.12982 0.0252 0.57296 0.0
C419 C 0.13831 1.0062 0.60771 0.0
C420 C 0.13579 0.04803 0.60541 0.0
C421 C 0.10585 0.02095 0.56412 0.0
C422 C 0.10122 0.01812 0.50226 0.0
C423 C 0.08032 1.0131 0.48237 0.0
C424 C 0.06368 1.01102 0.52679 0.0
C425 C 0.06799 0.01427 0.59029 0.0
C426 C 0.08934 0.0194 0.6092 0.0
H427 H 0.43506 0.18083 0.50866 0.0
H428 H 0.39645 0.13666 0.38287 0.0
H429 H 0.41484 0.10508 0.41453 0.0
H430 H 0.48323 0.15482 0.49518 0.0
H431 H 0.48929 0.15734 0.57592 0.0
H432 H 0.47368 0.17725 0.54262 0.0
H433 H 0.44297 0.16845 0.62304 0.0
H434 H 0.45859 0.14876 0.6573 0.0
H435 H 0.43187 0.13994 0.63162 0.0
H436 H 0.44104 0.07932 0.44807 0.0
H437 H 0.46578 0.05814 0.50315 0.0
H438 H 0.48237 0.11605 0.62366 0.0
C439 C 0.43003 0.16455 0.48836 0.0
C440 C 0.41472 0.16185 0.44082 0.0
C441 C 0.40885 0.13987 0.4166 0.0
C442 C 0.41908 0.12157 0.43481 0.0
C443 C 0.43468 0.12509 0.47938 0.0
C444 C 0.43953 0.14579 0.50774 0.0
C445 C 0.45611 0.14451 0.55713 0.0
C446 C 0.4768 0.15937 0.54179 0.0
C447 C 0.44682 0.15078 0.62108 0.0
C448 C 0.45987 0.11988 0.55161 0.0
C449 C 0.4478 0.10927 0.5049 0.0
C450 C 0.45006 0.08724 0.48605 0.0
C451 C 0.46433 0.07539 0.51741 0.0
C452 C 0.47552 0.08514 0.56899 0.0
C453 C 0.47354 0.1079 0.5856 0.0
H454 H 0.369 0.57354 0.52784 0.0
H455 H 0.38367 0.53646 0.35828 0.0
H456 H 0.41691 0.52652 0.40317 0.0
H457 H 0.42446 0.59272 0.5683 0.0
H458 H 0.41934 0.58886 0.64944 0.0
H459 H 0.39808 0.59571 0.60142 0.0
H460 H 0.3745 0.56056 0.63747 0.0
H461 H 0.39583 0.55352 0.68486 0.0
H462 H 0.38464 0.53355 0.62768 0.0
H463 H 0.44775 0.51966 0.46584 0.0
H464 H 0.47437 0.51564 0.54455 0.0
H465 H 0.43795 0.55245 0.67878 0.0
C466 C 0.37914 0.56335 0.49983 0.0
C467 C 0.37353 0.55589 0.43907 0.0
C468 C 0.38763 0.54288 0.40418 0.0
C469 C 0.40652 0.53695 0.42952 0.0
C470 C 0.41106 0.54397 0.48996 0.0
C471 C 0.39786 0.5569 0.5248 0.0
C472 C 0.40592 0.56107 0.58997 0.0
C473 C 0.41233 0.58608 0.60303 0.0
C474 C 0.38922 0.5516 0.6378 0.0
C475 C 0.42545 0.54799 0.58658 0.0
C476 C 0.42822 0.53863 0.52798 0.0
C477 C 0.44548 0.5265 0.51214 0.0
C478 C 0.4603 0.52388 0.55734 0.0
C479 C 0.45748 0.53255 0.61799 0.0
C480 C 0.43996 0.545 0.63302 0.0
H481 H 0.10175 0.40157 0.44369 0.0
H482 H 0.091 0.35268 0.58642 0.0
H483 H 0.07094 0.37883 0.64859 0.0
H484 H 0.10474 0.45164 0.54922 0.0
H485 H 0.09068 0.46762 0.49796 0.0
H486 H 0.10701 0.44649 0.46709 0.0
H487 H 0.07444 0.42736 0.40848 0.0
H488 H 0.05801 0.44834 0.43921 0.0
H489 H 0.04982 0.41921 0.45047 0.0
H490 H 0.0513 0.40935 0.69556 0.0
H491 H 0.03186 0.44247 0.72231 0.0
H492 H 0.0495 0.46895 0.54312 0.0
C493 C 0.09527 0.39626 0.48802 0.0
C494 C 0.09838 0.37485 0.5099 0.0
C495 C 0.08965 0.36902 0.56876 0.0
C496 C 0.07794 0.38374 0.60447 0.0
C497 C 0.07476 0.40427 0.58088 0.0
C498 C 0.08311 0.41062 0.52403 0.0
C499 C 0.07624 0.43328 0.50848 0.0
C500 C 0.09583 0.45079 0.50551 0.0
C501 C 0.06388 0.43194 0.44809 0.0
C502 C 0.06179 0.43792 0.56412 0.0
C503 C 0.06188 0.42132 0.60618 0.0
C504 C 0.05093 0.4224 0.66287 0.0
C505 C 0.03983 0.44113 0.67755 0.0
C506 C 0.03912 0.45811 0.63494 0.0
C507 C 0.04985 0.45625 0.57685 0.0
H508 H 0.87018 0.98733 0.96348 0.0
H509 H 0.8595 0.05731 0.98617 0.0
H510 H 0.89253 0.06755 0.92438 0.0
H511 H 0.92955 0.99697 0.97372 0.0
H512 H 0.93407 0.97473 0.91831 0.0
H513 H 0.91009 0.97297 0.96648 0.0
H514 H 0.88704 0.96745 0.86868 0.0
H515 H 0.91114 0.96942 0.82123 0.0
H516 H 0.89064 0.98783 0.80962 0.0
H517 H 0.92604 0.07039 0.86017 0.0
H518 H 0.95912 0.06562 0.79769 0.0
H519 H 0.94821 0.99383 0.81426 0.0
C520 C 0.8751 1.00478 0.95605 0.0
C521 C 0.86263 0.02166 0.98003 0.0
C522 C 0.86919 0.0443 0.96901 0.0
C523 C 0.8878 0.05023 0.93378 0.0
C524 C 0.89977 0.03329 0.91055 0.0
C525 C 0.8939 1.01104 0.92168 0.0
C526 C 0.90989 0.99628 0.89151 0.0
C527 C 0.92159 0.98455 0.94044 0.0
C528 C 0.899 0.97925 0.84495 0.0
C529 C 0.92506 1.01367 0.85977 0.0
C530 C 0.91907 0.03493 0.87224 0.0
C531 C 0.93095 0.05385 0.85008 0.0
C532 C 0.94967 0.05102 0.81484 0.0
C533 C 0.956 0.02944 0.80129 0.0
C534 C 0.94346 1.01051 0.82352 0.0
H535 H 0.61004 0.86908 0.87348 0.0
H536 H 0.59511 0.88688 0.06483 0.0
H537 H 0.57573 0.91754 0.03189 0.0
H538 H 0.61478 0.92832 0.81986 0.0
H539 H 0.60274 0.92012 0.74708 0.0
H540 H 0.61823 0.90117 0.78503 0.0
H541 H 0.58581 0.87105 0.78108 0.0
H542 H 0.57019 0.88998 0.74387 0.0
H543 H 0.56028 0.87744 0.81446 0.0
H544 H 0.55515 0.94381 0.98138 0.0
H545 H 0.53441 0.96515 0.91431 0.0
H546 H 0.56072 0.93137 0.75302 0.0
C547 C 0.60289 0.87958 0.90841 0.0
C548 C 0.60455 0.87554 0.97209 0.0
C549 C 0.5948 0.88977 0.01601 0.0
C550 C 0.58354 0.90727 0.99775 0.0
C551 C 0.58199 0.91059 0.93516 0.0
C552 C 0.59148 0.89737 0.89088 0.0
C553 C 0.58625 0.90423 0.82656 0.0
C554 C 0.60672 0.91404 0.79263 0.0
C555 C 0.57495 0.88449 0.78931 0.0
C556 C 0.57119 0.92225 0.84214 0.0
C557 C 0.56951 0.92588 0.90522 0.0
C558 C 0.55639 0.94122 0.93187 0.0
C559 C 0.54455 0.95318 0.8933 0.0
C560 C 0.54566 0.94976 0.82852 0.0
C561 C 0.55934 0.93416 0.80247 0.0
H562 H 0.63591 0.44741 0.93222 0.0
H563 H 0.66477 0.51388 0.98098 0.0
H564 H 0.63592 0.53036 0.9282 0.0
H565 H 0.62019 0.45904 0.78276 0.0
H566 H 0.5949 0.44198 0.78515 0.0
H567 H 0.61683 0.43501 0.83031 0.0
H568 H 0.59295 0.43625 0.92978 0.0
H569 H 0.57085 0.44281 0.88459 0.0
H570 H 0.57948 0.46087 0.94911 0.0
H571 H 0.60717 0.53952 0.86255 0.0
H572 H 0.57657 0.54154 0.79575 0.0
H573 H 0.56408 0.46927 0.79286 0.0
C574 C 0.63594 0.4654 0.93171 0.0
C575 C 0.65249 0.47958 0.95928 0.0
C576 C 0.65223 0.50299 0.95891 0.0
C577 C 0.63595 0.51241 0.92943 0.0
C578 C 0.62009 0.49809 0.90117 0.0
C579 C 0.61967 0.47511 0.90266 0.0
C580 C 0.60086 0.46371 0.86736 0.0
C581 C 0.60867 0.44908 0.81318 0.0
C582 C 0.5851 0.45011 0.9103 0.0
C583 C 0.59113 0.48393 0.84488 0.0
C584 C 0.60264 0.50351 0.86482 0.0
C585 C 0.59779 0.52436 0.84737 0.0
C586 C 0.58046 0.5253 0.80904 0.0
C587 C 0.56796 0.50557 0.78956 0.0
C588 C 0.57332 0.48459 0.80772 0.0
H589 H 0.9391 0.64009 0.97564 0.0
H590 H 0.91288 0.66764 0.81502 0.0
H591 H 0.92872 0.63917 0.74889 0.0
H592 H 0.98674 0.62633 0.92075 0.0
H593 H 0.98644 0.59914 0.95301 0.0
H594 H 0.971 0.61984 0.98979 0.0
H595 H 0.93635 0.59283 0.98239 0.0
H596 H 0.95175 0.57173 0.94662 0.0
H597 H 0.92875 0.5801 0.90881 0.0
H598 H 0.95 0.61033 0.69893 0.0
H599 H 0.97341 0.58088 0.66845 0.0
H600 H 0.98564 0.57129 0.8607 0.0
C601 C 0.93604 0.6399 0.92689 0.0
C602 C 0.92504 0.65675 0.90093 0.0
C603 C 0.92181 0.65564 0.83643 0.0
C604 C 0.93052 0.63927 0.7983 0.0
C605 C 0.94191 0.6236 0.82525 0.0
C606 C 0.94416 0.6233 0.88818 0.0
C607 C 0.9572 0.60446 0.90499 0.0
C608 C 0.9765 0.61298 0.94443 0.0
C609 C 0.94266 0.58621 0.93766 0.0
C610 C 0.96414 0.5961 0.84133 0.0
C611 C 0.95431 0.60677 0.7962 0.0
C612 C 0.95768 0.60177 0.73383 0.0
C613 C 0.97115 0.58517 0.71698 0.0
C614 C 0.98158 0.57407 0.76209 0.0
C615 C 0.97819 0.57979 0.82519 0.0
H616 H 0.10914 0.1473 0.63725 0.0
H617 H 0.08219 0.16876 0.47012 0.0
H618 H 0.05266 0.13904 0.47762 0.0
H619 H 0.09649 0.08792 0.6101 0.0
H620 H 0.08873 0.08203 0.68881 0.0
H621 H 0.10795 0.1054 0.67237 0.0
H622 H 0.08441 0.13125 0.73523 0.0
H623 H 0.06434 0.10845 0.74954 0.0
H624 H 0.05697 0.13297 0.71411 0.0
H625 H 0.02826 0.10654 0.49509 0.0
H626 H 0.00736 0.072 0.52676 0.0
H627 H 0.047 0.07086 0.6869 0.0
C628 C 0.09696 0.14555 0.60255 0.0
C629 C 0.0979 0.16006 0.55254 0.0
C630 C 0.08171 0.15759 0.50818 0.0
C631 C 0.06489 0.14083 0.51212 0.0
C632 C 0.06434 0.12661 0.56097 0.0
C633 C 0.07973 0.12865 0.6058 0.0
C634 C 0.07466 0.11077 0.65322 0.0
C635 C 0.09305 0.09563 0.65625 0.0
C636 C 0.06983 0.12154 0.71679 0.0
C637 C 0.05451 0.09815 0.62622 0.0
C638 C 0.04904 0.10783 0.57311 0.0
C639 C 0.03206 0.09888 0.53713 0.0
C640 C 0.0203 0.07927 0.55537 0.0
C641 C 0.02524 0.06895 0.60964 0.0
C642 C 0.04246 0.07865 0.64606 0.0
H643 H 0.37799 0.0479 0.57819 0.0
H644 H 0.35603 0.98535 0.48524 0.0
H645 H 0.38674 0.96793 0.52441 0.0
H646 H 0.42683 0.0502 0.54691 0.0
H647 H 0.43926 0.0595 0.61911 0.0
H648 H 0.41245 0.06562 0.60473 0.0
H649 H 0.39736 0.04567 0.70154 0.0
H650 H 0.42466 0.04169 0.71934 0.0
H651 H 0.40462 0.01812 0.7161 0.0
H652 H 0.42325 0.96009 0.55246 0.0
H653 H 0.46098 0.96028 0.58312 0.0
H654 H 0.46015 0.02883 0.65128 0.0
C655 C 0.37899 0.03017 0.56984 0.0
C656 C 0.36469 0.0178 0.52966 0.0
C657 C 0.36665 0.99485 0.51725 0.0
C658 C 0.3841 0.98487 0.53901 0.0
C659 C 0.39894 0.99794 0.57471 0.0
C660 C 0.39606 0.0198 0.59269 0.0
C661 C 0.4155 0.03075 0.6258 0.0
C662 C 0.42405 0.05285 0.59727 0.0
C663 C 0.41022 0.03423 0.69483 0.0
C664 C 0.43081 1.01286 0.61548 0.0
C665 C 0.42057 0.9937 0.58873 0.0
C666 C 0.43131 0.97485 0.57465 0.0
C667 C 0.45278 0.97522 0.59129 0.0
C668 C 0.46351 0.99456 0.61947 0.0
C669 C 0.45251 0.0138 0.63013 0.0
H670 H 0.41899 0.3877 0.60474 0.0
H671 H 0.41092 0.40254 0.41327 0.0
H672 H 0.43676 0.43564 0.42448 0.0
H673 H 0.42584 0.44712 0.66315 0.0
H674 H 0.44626 0.44255 0.71637 0.0
H675 H 0.42559 0.42048 0.69835 0.0
H676 H 0.45395 0.39484 0.67076 0.0
H677 H 0.47716 0.41505 0.6745 0.0
H678 H 0.4714 0.3997 0.60417 0.0
H679 H 0.46754 0.46246 0.4492 0.0
H680 H 0.49676 0.48779 0.49249 0.0
H681 H 0.4839 0.4594 0.67155 0.0
C682 C 0.42211 0.39842 0.56596 0.0
C683 C 0.41262 0.39268 0.50833 0.0
C684 C 0.4175 0.40683 0.45823 0.0
C685 C 0.43235 0.42561 0.46394 0.0
C686 C 0.44196 0.43039 0.52043 0.0
C687 C 0.43661 0.41773 0.57124 0.0
C688 C 0.4503 0.42621 0.62551 0.0
C689 C 0.43616 0.43455 0.67906 0.0
C690 C 0.46393 0.40787 0.64511 0.0
C691 C 0.46427 0.44546 0.5969 0.0
C692 C 0.45931 0.4471 0.53588 0.0
C693 C 0.47109 0.46192 0.49754 0.0
C694 C 0.48781 0.47617 0.52268 0.0
C695 C 0.49227 0.47635 0.5863 0.0
C696 C 0.4806 0.4603 0.62356 0.0
H697 H 0.15261 0.59085 0.5722 0.0
H698 H 0.17277 0.52384 0.56629 0.0
H699 H 0.13795 0.50979 0.61132 0.0
H700 H 0.11297 0.58253 0.71733 0.0
H701 H 0.09512 0.59989 0.68264 0.0
H702 H 0.1238 0.60566 0.67208 0.0
H703 H 0.11829 0.60393 0.55382 0.0
H704 H 0.08994 0.59679 0.56431 0.0
H705 H 0.10575 0.57864 0.51793 0.0
H706 H 0.09946 0.50149 0.60627 0.0
H707 H 0.06063 0.50044 0.59544 0.0
H708 H 0.06309 0.57177 0.62621 0.0
C709 C 0.15007 0.57347 0.58401 0.0
C710 C 0.16529 0.5584 0.56529 0.0
C711 C 0.16149 0.53573 0.5806 0.0
C712 C 0.14162 0.52755 0.60583 0.0
C713 C 0.12606 0.54238 0.61712 0.0
C714 C 0.1303 0.56509 0.6099 0.0
C715 C 0.10985 0.57682 0.61762 0.0
C716 C 0.11048 0.59214 0.67591 0.0
C717 C 0.10574 0.5898 0.56 0.0
C718 C 0.09333 0.55693 0.62473 0.0
C719 C 0.10314 0.53725 0.62339 0.0
C720 C 0.09155 0.51666 0.6129 0.0
C721 C 0.06942 0.5161 0.60663 0.0
C722 C 0.05875 0.5356 0.61464 0.0
C723 C 0.07085 0.55642 0.62341 0.0
H724 H 0.92804 0.8829 0.76568 0.0
H725 H 0.92495 0.89133 0.96539 0.0
H726 H 0.94685 0.92692 0.95941 0.0
H727 H 0.97965 0.90377 0.7345 0.0
H728 H 0.97527 0.92087 0.67046 0.0
H729 H 0.95652 0.89719 0.68713 0.0
H730 H 0.92656 0.92298 0.69013 0.0
H731 H 0.94471 0.94789 0.68086 0.0
H732 H 0.9266 0.9458 0.74628 0.0
H733 H 0.97387 0.95602 0.93789 0.0
H734 H 1.00116 0.98395 0.89928 0.0
H735 H 0.98697 0.96152 0.71098 0.0
C736 C 0.9315 0.89268 0.80774 0.0
C737 C 0.92455 0.88439 0.86618 0.0
C738 C 0.92956 0.89747 0.92024 0.0
C739 C 0.94218 0.9177 0.91741 0.0
C740 C 0.94939 0.92505 0.86005 0.0
C741 C 0.9438 0.91357 0.80573 0.0
C742 C 0.95418 0.92605 0.75087 0.0
C743 C 0.9672 0.91106 0.7083 0.0
C744 C 0.93696 0.93624 0.71486 0.0
C745 C 0.96854 0.94441 0.78404 0.0
C746 C 0.96484 0.94354 0.84691 0.0
C747 C 0.97655 0.95741 0.88871 0.0
C748 C 0.99219 0.97315 0.8661 0.0
C749 C 0.99618 0.97514 0.80203 0.0
C750 C 0.98423 0.96047 0.76011 0.0
H751 H 0.65656 0.05561 0.88732 0.0
H752 H 0.656 0.98405 0.8571 0.0
H753 H 0.62288 0.98354 0.7981 0.0
H754 H 0.60424 0.05577 0.91988 0.0
H755 H 0.59921 0.08105 0.88332 0.0
H756 H 0.62571 0.07757 0.90903 0.0
H757 H 0.64184 0.08416 0.79955 0.0
H758 H 0.61552 0.08839 0.77308 0.0
H759 H 0.63079 0.06768 0.73494 0.0
H760 H 0.58628 0.98881 0.77434 0.0
H761 H 0.55125 1.00097 0.75664 0.0
H762 H 0.57458 0.0698 0.78852 0.0
C763 C 0.65019 0.04018 0.86444 0.0
C764 C 0.65898 0.01994 0.87474 0.0
C765 C 0.64975 0.99971 0.84768 0.0
C766 C 0.63086 0.99929 0.81475 0.0
C767 C 0.62174 0.01931 0.8089 0.0
C768 C 0.63134 0.03954 0.83102 0.0
C769 C 0.61671 0.05807 0.82461 0.0
C770 C 0.61115 0.06874 0.88797 0.0
C771 C 0.62681 0.07562 0.78038 0.0
C772 C 0.59716 0.04493 0.79724 0.0
C773 C 0.60048 0.02258 0.79001 0.0
C774 C 0.58394 1.00641 0.77637 0.0
C775 C 0.56381 1.01336 0.76702 0.0
C776 C 0.56008 0.03603 0.76841 0.0
C777 C 0.57706 0.05223 0.78455 0.0
H778 H 0.60611 0.64547 0.8003 0.0
H779 H 0.605 0.63929 0.99884 0.0
H780 H 0.5798 0.60564 0.98934 0.0
H781 H 0.55314 0.62914 0.76998 0.0
H782 H 0.55723 0.61156 0.70234 0.0
H783 H 0.57722 0.63392 0.72305 0.0
H784 H 0.60532 0.60533 0.72043 0.0
H785 H 0.58559 0.58195 0.70553 0.0
H786 H 0.60218 0.58234 0.77168 0.0
H787 H 0.55179 0.57676 0.96295 0.0
H788 H 0.52417 0.54968 0.91875 0.0
H789 H 0.54275 0.57155 0.73515 0.0
C790 C 0.60098 0.63653 0.84127 0.0
C791 C 0.60772 0.64477 0.90039 0.0
C792 C 0.60047 0.63296 0.95319 0.0
C793 C 0.58603 0.61389 0.94832 0.0
C794 C 0.57929 0.60644 0.89009 0.0
C795 C 0.58685 0.61684 0.8371 0.0
C796 C 0.57655 0.60484 0.78068 0.0
C797 C 0.56537 0.62082 0.74169 0.0
C798 C 0.59341 0.59296 0.74224 0.0
C799 C 0.56043 0.58784 0.81125 0.0
C800 C 0.56291 0.58884 0.87427 0.0
C801 C 0.5499 0.57546 0.91355 0.0
C802 C 0.53412 0.56024 0.88792 0.0
C803 C 0.53121 0.55849 0.82353 0.0
C804 C 0.54447 0.57263 0.7845 0.0
H805 H 0.87108 0.44728 0.80905 0.0
H806 H 0.85535 0.51031 0.89363 0.0
H807 H 0.89123 0.52766 0.86455 0.0
H808 H 0.92155 0.44736 0.85171 0.0
H809 H 0.93386 0.43748 0.78099 0.0
H810 H 0.90566 0.43052 0.79609 0.0
H811 H 0.8961 0.44817 0.69405 0.0
H812 H 0.92453 0.4539 0.67789 0.0
H813 H 0.90734 0.47628 0.67942 0.0
H814 H 0.93015 0.53439 0.85602 0.0
H815 H 0.96914 0.53393 0.84205 0.0
H816 H 0.96027 0.46974 0.74434 0.0
C817 C 0.87497 0.46497 0.81862 0.0
C818 C 0.86054 0.47762 0.85295 0.0
C819 C 0.86612 0.50057 0.86631 0.0
C820 C 0.88648 0.51051 0.85029 0.0
C821 C 0.90076 0.49743 0.81912 0.0
C822 C 0.8951 0.47544 0.80088 0.0
C823 C 0.91411 0.46513 0.76999 0.0
C824 C 0.91908 0.44387 0.80166 0.0
C825 C 0.91027 0.46051 0.70115 0.0
C826 C 0.93166 0.48404 0.77944 0.0
C827 C 0.92344 0.50248 0.80785 0.0
C828 C 0.93665 0.52067 0.83044 0.0
C829 C 0.95878 0.52028 0.82231 0.0
C830 C 0.96751 0.50239 0.78945 0.0
C831 C 0.95381 0.48401 0.76743 0.0
H832 H 0.074 0.17976 0.02261 0.0
H833 H 0.13869 0.16065 0.03795 0.0
H834 H 0.13002 0.12828 0.96662 0.0
H835 H 0.04754 0.1265 0.02435 0.0
H836 H 0.02773 0.13062 0.9683 0.0
H837 H 0.03949 0.15404 0.0138 0.0
H838 H 0.05176 0.1748 0.91485 0.0
H839 H 0.03959 0.15161 0.86902 0.0
H840 H 0.06751 0.16114 0.85652 0.0
H841 H 0.11375 0.09637 0.90233 0.0
H842 H 0.0911 0.06703 0.84584 0.0
H843 H 0.03654 0.10616 0.87081 0.0
C844 C 0.08645 0.16899 0.00995 0.0
C845 C 0.10702 0.17262 0.03623 0.0
C846 C 0.12277 0.15799 0.01916 0.0
C847 C 0.11803 0.13968 0.9783 0.0
C848 C 0.09746 0.13619 0.95464 0.0
C849 C 0.08194 0.15052 0.96923 0.0
C850 C 0.06072 0.14212 0.94013 0.0
C851 C 0.04282 0.13807 0.9896 0.0
C852 C 0.05454 0.15839 0.89229 0.0
C853 C 0.06656 0.12034 0.90917 0.0
C854 C 0.08794 0.11752 0.91743 0.0
C855 C 0.09704 0.09847 0.89507 0.0
C856 C 0.08402 0.08182 0.8634 0.0
C857 C 0.06211 0.08427 0.85416 0.0
C858 C 0.05328 0.10386 0.87718 0.0
H859 H 0.3736 0.05825 0.96937 0.0
H860 H 0.35065 0.98809 0.97604 0.0
H861 H 0.3825 0.97823 0.91463 0.0
H862 H 0.3937 0.05423 0.8111 0.0
H863 H 0.41721 0.07374 0.82059 0.0
H864 H 0.39329 0.07696 0.86718 0.0
H865 H 0.41317 0.07573 0.96817 0.0
H866 H 0.4379 0.07406 0.92439 0.0
H867 H 0.42952 0.05323 0.9798 0.0
H868 H 0.41781 0.97566 0.86151 0.0
H869 H 0.45318 0.98041 0.80873 0.0
H870 H 0.45282 0.05245 0.8274 0.0
C871 C 0.37533 0.04086 0.95743 0.0
C872 C 0.3598 0.02384 0.97739 0.0
C873 C 0.36238 1.00128 0.96082 0.0
C874 C 0.38041 0.99556 0.92617 0.0
C875 C 0.39554 1.01263 0.90755 0.0
C876 C 0.39309 0.03486 0.92157 0.0
C877 C 0.41161 0.04984 0.8942 0.0
C878 C 0.4035 0.06458 0.84533 0.0
C879 C 0.42377 0.06405 0.94468 0.0
C880 C 0.42527 0.03249 0.86505 0.0
C881 C 0.41561 1.01116 0.87356 0.0
C882 C 0.42545 0.99226 0.85396 0.0
C883 C 0.44567 0.99515 0.8246 0.0
C884 C 0.45586 0.01679 0.81445 0.0
C885 C 0.44541 0.03572 0.83459 0.0
H886 H 0.41158 0.38945 0.0594 0.0
H887 H 0.4153 0.33554 0.92043 0.0
H888 H 0.43496 0.36142 0.85147 0.0
H889 H 0.40038 0.42991 0.93947 0.0
H890 H 0.41417 0.45321 0.98132 0.0
H891 H 0.40076 0.4302 0.02246 0.0
H892 H 0.43625 0.42521 0.07637 0.0
H893 H 0.44989 0.44787 0.03455 0.0
H894 H 0.45999 0.42077 0.0302 0.0
H895 H 0.46054 0.39072 0.80676 0.0
H896 H 0.48065 0.42519 0.77165 0.0
H897 H 0.452 0.46336 0.91984 0.0
C898 C 0.41602 0.38291 0.01428 0.0
C899 C 0.41288 0.35963 0.99839 0.0
C900 C 0.41878 0.35257 0.93736 0.0
C901 C 0.42974 0.36733 0.89664 0.0
C902 C 0.43359 0.38962 0.9153 0.0
C903 C 0.42598 0.39773 0.9711 0.0
C904 C 0.43112 0.423 0.97684 0.0
C905 C 0.41037 0.43478 0.98022 0.0
C906 C 0.44515 0.42959 0.03282 0.0
C907 C 0.44358 0.42748 0.91651 0.0
C908 C 0.44519 0.4077 0.88291 0.0
C909 C 0.4584 0.40653 0.83056 0.0
C910 C 0.46965 0.42619 0.81059 0.0
C911 C 0.46672 0.44706 0.84001 0.0
C912 C 0.45368 0.44775 0.89449 0.0
H913 H 0.17789 0.57846 0.95638 0.0
H914 H 0.17981 0.51345 0.03411 0.0
H915 H 0.14815 0.49894 0.97495 0.0
H916 H 0.12219 0.57963 0.96146 0.0
H917 H 0.11972 0.59232 0.88851 0.0
H918 H 0.14433 0.59739 0.92983 0.0
H919 H 0.16577 0.58316 0.83473 0.0
H920 H 0.14117 0.57848 0.79305 0.0
H921 H 0.15787 0.55599 0.80022 0.0
H922 H 0.11478 0.49232 0.92011 0.0
H923 H 0.08077 0.4931 0.86731 0.0
H924 H 0.09878 0.56184 0.81945 0.0
C925 C 0.17178 0.56109 0.95969 0.0
C926 C 0.1812 0.54694 0.99972 0.0
C927 C 0.17274 0.52443 1.00378 0.0
C928 C 0.15484 0.51605 0.97018 0.0
C929 C 0.14554 0.53037 0.93234 0.0
C930 C 0.1537 0.55235 0.92608 0.0
C931 C 0.13954 0.56419 0.88441 0.0
C932 C 0.13094 0.58458 0.9181 0.0
C933 C 0.15182 0.57084 0.82455 0.0
C934 C 0.1216 0.54574 0.87167 0.0
C935 C 0.1258 0.52634 0.89913 0.0
C936 C 0.1114 0.50727 0.89766 0.0
C937 C 0.09202 0.50794 0.86786 0.0
C938 C 0.08708 0.5275 0.83949 0.0
C939 C 0.10223 0.54662 0.84049 0.0
H940 H 0.9587 0.8701 0.34049 0.0
H941 H 0.89131 0.86583 0.39459 0.0
H942 H 0.89892 0.89664 0.47252 0.0
H943 H 0.97893 0.88229 0.49896 0.0
H944 H 1.00143 0.9005 0.47142 0.0
H945 H 0.99047 0.8774 0.42315 0.0
H946 H 0.98532 0.90492 0.33717 0.0
H947 H 0.99576 0.92814 0.38574 0.0
H948 H 0.96952 0.92808 0.35353 0.0
H949 H 0.91329 0.93164 0.53255 0.0
H950 H 0.93412 0.96363 0.58471 0.0
H951 H 0.99294 0.94216 0.50204 0.0
C952 C 0.94564 0.87559 0.36926 0.0
C953 C 0.92437 0.86598 0.3611 0.0
C954 C 0.90766 0.87323 0.39993 0.0
C955 C 0.91185 0.89067 0.44418 0.0
C956 C 0.93294 0.90029 0.44996 0.0
C957 C 0.94965 0.89257 0.41479 0.0
C958 C 0.97086 0.9057 0.43031 0.0
C959 C 0.98633 0.89057 0.4576 0.0
C960 C 0.98096 0.91741 0.3733 0.0
C961 C 0.96341 0.92245 0.47844 0.0
C962 C 0.94143 0.91923 0.48846 0.0
C963 C 0.93057 0.93392 0.52638 0.0
C964 C 0.94251 0.9521 0.5556 0.0
C965 C 0.96514 0.955 0.54872 0.0
C966 C 0.97569 0.93999 0.50941 0.0
H967 H 0.66307 0.05012 0.4689 0.0
H968 H 0.66014 0.98216 0.39369 0.0
H969 H 0.62461 0.9738 0.44457 0.0
H970 H 0.63421 0.03473 0.61948 0.0
H971 H 0.6208 0.05995 0.62337 0.0
H972 H 0.6471 0.05988 0.58721 0.0
H973 H 0.63214 0.07474 0.48831 0.0
H974 H 0.60577 0.0743 0.52401 0.0
H975 H 0.60956 0.05924 0.45169 0.0
H976 H 0.58892 0.9733 0.49512 0.0
H977 H 0.55493 0.97981 0.54998 0.0
H978 H 0.57952 0.04825 0.59382 0.0
C979 C 0.65501 0.03342 0.46438 0.0
C980 C 0.66418 0.01667 0.42763 0.0
C981 C 0.65328 0.99507 0.42189 0.0
C982 C 0.63315 0.99021 0.45057 0.0
C983 C 0.62419 1.00713 0.48515 0.0
C984 C 0.63482 0.02821 0.4933 0.0
C985 C 0.62105 0.04334 0.53185 0.0
C986 C 0.63142 0.04985 0.59416 0.0
C987 C 0.61688 0.06413 0.49683 0.0
C988 C 0.60061 0.02785 0.54048 0.0
C989 C 0.60308 1.00694 0.51408 0.0
C990 C 0.58676 0.98958 0.51602 0.0
C991 C 0.56746 0.99348 0.54673 0.0
C992 C 0.56445 0.01464 0.57448 0.0
C993 C 0.5812 0.03214 0.57111 0.0
H994 H 0.62191 0.67322 0.46601 0.0
H995 H 0.58017 0.66579 0.30898 0.0
H996 H 0.55847 0.63486 0.35807 0.0
H997 H 0.62232 0.61469 0.4921 0.0
H998 H 0.62119 0.61706 0.57512 0.0
H999 H 0.63324 0.64003 0.53139 0.0
H1000 H 0.6073 0.66669 0.58365 0.0
H1001 H 0.59641 0.64376 0.62924 0.0
H1002 H 0.57882 0.65845 0.58463 0.0
H1003 H 0.54101 0.60548 0.4207 0.0
H1004 H 0.52891 0.57669 0.49483 0.0
H1005 H 0.58237 0.59941 0.61128 0.0
C1006 C 0.60818 0.66498 0.44232 0.0
C1007 C 0.60283 0.67167 0.38308 0.0
C1008 C 0.58472 0.66067 0.35365 0.0
C1009 C 0.57222 0.64318 0.38136 0.0
C1010 C 0.57799 0.63663 0.43875 0.0
C1011 C 0.59551 0.64701 0.4693 0.0
C1012 C 0.5981 0.63579 0.5302 0.0
C1013 C 0.62001 0.62632 0.53226 0.0
C1014 C 0.59495 0.65216 0.58516 0.0
C1015 C 0.57969 0.61718 0.52747 0.0
C1016 C 0.56815 0.61852 0.47473 0.0
C1017 C 0.54997 0.60407 0.46199 0.0
C1018 C 0.54324 0.58774 0.50423 0.0
C1019 C 0.55483 0.58558 0.55811 0.0
C1020 C 0.57341 0.60044 0.56992 0.0
H1021 H 0.84619 0.45884 0.45189 0.0
H1022 H 0.85421 0.51075 0.3182 0.0
H1023 H 0.88682 0.52739 0.37006 0.0
H1024 H 0.86805 0.49622 0.5851 0.0
H1025 H 0.87894 0.47268 0.61678 0.0
H1026 H 0.85519 0.4684 0.57222 0.0
H1027 H 0.87507 0.4398 0.50373 0.0
H1028 H 0.89935 0.44606 0.54596 0.0
H1029 H 0.89973 0.44927 0.4637 0.0
H1030 H 0.91955 0.53636 0.42801 0.0
H1031 H 0.95201 0.53749 0.48953 0.0
H1032 H 0.925 0.47887 0.58451 0.0
C1033 C 0.85482 0.47382 0.43428 0.0
C1034 C 0.84802 0.48357 0.38104 0.0
C1035 C 0.85946 0.50309 0.35874 0.0
C1036 C 0.87785 0.51269 0.38806 0.0
C1037 C 0.88455 0.5025 0.43961 0.0
C1038 C 0.87346 0.48354 0.46278 0.0
C1039 C 0.88483 0.47557 0.51739 0.0
C1040 C 0.87098 0.47842 0.57636 0.0
C1041 C 0.89006 0.45123 0.50699 0.0
C1042 C 0.90502 0.49188 0.51753 0.0
C1043 C 0.90395 0.5077 0.47356 0.0
C1044 C 0.9206 0.52423 0.46298 0.0
C1045 C 0.93904 0.52462 0.49783 0.0
C1046 C 0.94092 0.50837 0.54209 0.0
C1047 C 0.92367 0.49177 0.5521 0.0
loop_
_geom_bond_atom_site_label_1
_geom_bond_atom_site_label_2
_geom_bond_distance
_geom_bond_site_symmetry_2
_ccdc_geom_bond_type
C0 C1 1.264 . S
C0 C5 1.479 . S
C0 C10 1.465 . S
C1 C0 1.264 . S
C1 C3 1.339 . S
C1 H28 0.931 . S
C2 C3 1.395 . S
C2 C4 1.320 . S
C3 C1 1.339 . S
C3 C2 1.395 . S
C3 H29 0.929 . S
C4 C2 1.320 . S
C4 C5 1.405 . S
C4 H30 0.930 . S
C5 C0 1.479 . S
C5 C4 1.405 . S
C5 H31 0.931 . S
U6 O7 2.454 . S
U6 O8 2.458 . S
U6 C9 2.984 . S
U6 C10 2.847 . S
U6 C23 2.882 1_554 S
U6 O24 2.441 . S
U6 O25 2.420 . S
U6 O26 2.455 1_554 S
U6 O27 2.449 . S
O7 U6 2.454 . S
O7 C9 1.353 . S
O8 U6 2.458 . S
O8 C9 1.286 . S
C9 U6 2.984 . S
C9 O7 1.353 . S
C9 O8 1.286 . S
C9 C11 1.363 . S
C10 C0 1.465 . S
C10 U6 2.847 . S
C10 O24 1.249 . S
C10 O25 1.202 . S
C11 C9 1.363 . S
C11 C13 1.408 . S
C11 C16 1.342 1_554 S
C12 C13 1.310 . S
C12 C15 1.461 1_554 S
C12 H32 0.932 . S
C13 C11 1.408 . S
C13 C12 1.310 . S
C13 H33 0.930 . S
C14 C15 1.474 . S
C14 C16 1.285 . S
C14 H34 0.929 . S
C15 C12 1.461 1_556 S
C15 C14 1.474 . S
C16 C11 1.342 1_556 S
C16 C14 1.285 . S
C16 H35 0.930 . S
C17 C20 1.424 . S
C17 C22 1.245 . S
C17 C23 1.428 . S
C18 C21 1.260 . S
C18 C22 1.477 . S
C18 H36 0.932 . S
C19 C20 1.384 . S
C19 C21 1.479 . S
C19 H37 0.929 . S
C20 C17 1.424 . S
C20 C19 1.384 . S
C20 H38 0.928 . S
C21 C18 1.260 . S
C21 C19 1.479 . S
C22 C17 1.245 . S
C22 C18 1.477 . S
C22 H39 0.932 . S
C23 U6 2.882 1_556 S
C23 C17 1.428 . S
C23 O26 1.301 . S
C23 O27 1.282 1_556 S
O24 U6 2.441 . S
O24 C10 1.249 . S
O25 U6 2.420 . S
O25 C10 1.202 . S
O26 U6 2.455 1_556 S
O26 C23 1.301 . S
O27 U6 2.449 . S
O27 C23 1.282 1_554 S
H28 C1 0.931 . S
H29 C3 0.929 . S
H30 C4 0.930 . S
H31 C5 0.931 . S
H32 C12 0.932 . S
H33 C13 0.930 . S
H34 C14 0.929 . S
H35 C16 0.930 . S
H36 C18 0.932 . S
H37 C19 0.929 . S
H38 C20 0.928 . S
H39 C22 0.932 . S
C40 C41 1.264 . S
C40 C45 1.479 . S
C40 C50 1.465 . S
C41 C40 1.264 . S
C41 C43 1.339 . S
C41 H68 0.931 . S
C42 C43 1.395 . S
C42 C44 1.320 . S
C43 C41 1.339 . S
C43 C42 1.395 . S
C43 H69 0.929 . S
C44 C42 1.320 . S
C44 C45 1.405 . S
C44 H70 0.930 . S
C45 C40 1.479 . S
C45 C44 1.405 . S
C45 H71 0.931 . S
U46 O47 2.454 . S
U46 O48 2.458 1_554 S
U46 C49 2.984 . S
U46 C50 2.847 . S
U46 C63 2.882 1_554 S
U46 O64 2.441 . S
U46 O65 2.420 . S
U46 O66 2.455 1_554 S
U46 O67 2.449 . S
O47 U46 2.454 . S
O47 C49 1.353 . S
O48 U46 2.458 1_556 S
O48 C49 1.286 1_556 S
C49 U46 2.984 . S
C49 O47 1.353 . S
C49 O48 1.286 1_554 S
C49 C51 1.363 1_554 S
C50 C40 1.465 . S
C50 U46 2.847 . S
C50 O64 1.249 . S
C50 O65 1.202 . S
C51 C49 1.363 1_556 S
C51 C53 1.408 1_556 S
C51 C56 1.342 . S
C52 C53 1.310 . S
C52 C55 1.461 1_554 S
C52 H72 0.932 . S
C53 C51 1.408 1_554 S
C53 C52 1.310 . S
C53 H73 0.930 . S
C54 C55 1.474 . S
C54 C56 1.285 . S
C54 H74 0.929 . S
C55 C52 1.461 1_556 S
C55 C54 1.474 . S
C56 C51 1.342 . S
C56 C54 1.285 . S
C56 H75 0.930 . S
C57 C60 1.424 . S
C57 C62 1.245 . S
C57 C63 1.428 . S
C58 C61 1.260 . S
C58 C62 1.477 . S
C58 H76 0.932 . S
C59 C60 1.384 . S
C59 C61 1.479 . S
C59 H77 0.929 . S
C60 C57 1.424 . S
C60 C59 1.384 . S
C60 H78 0.928 . S
C61 C58 1.260 . S
C61 C59 1.479 . S
C62 C57 1.245 . S
C62 C58 1.477 . S
C62 H79 0.932 . S
C63 U46 2.882 1_556 S
C63 C57 1.428 . S
C63 O66 1.301 . S
C63 O67 1.282 1_556 S
O64 U46 2.441 . S
O64 C50 1.249 . S
O65 U46 2.420 . S
O65 C50 1.202 . S
O66 U46 2.455 1_556 S
O66 C63 1.301 . S
O67 U46 2.449 . S
O67 C63 1.282 1_554 S
H68 C41 0.931 . S
H69 C43 0.929 . S
H70 C44 0.930 . S
H71 C45 0.931 . S
H72 C52 0.932 . S
H73 C53 0.930 . S
H74 C54 0.929 . S
H75 C56 0.930 . S
H76 C58 0.932 . S
H77 C59 0.929 . S
H78 C60 0.928 . S
H79 C62 0.932 . S
C80 C81 1.264 . S
C80 C85 1.479 . S
C80 C90 1.465 . S
C81 C80 1.264 . S
C81 C83 1.339 . S
C81 H108 0.931 . S
C82 C83 1.395 . S
C82 C84 1.320 . S
C83 C81 1.339 . S
C83 C82 1.395 . S
C83 H109 0.929 . S
C84 C82 1.320 . S
C84 C85 1.405 . S
C84 H110 0.917 1_545 S
C85 C80 1.479 . S
C85 C84 1.405 . S
C85 H111 0.931 . S
U86 O87 2.454 . S
U86 O88 2.458 . S
U86 C89 2.984 . S
U86 C90 2.847 . S
U86 C103 2.882 . S
U86 O104 2.441 . S
U86 O105 2.420 . S
U86 O106 2.455 . S
U86 O107 2.449 . S
O87 U86 2.454 . S
O87 C89 1.353 . S
O88 U86 2.458 . S
O88 C89 1.286 . S
C89 U86 2.984 . S
C89 O87 1.353 . S
C89 O88 1.286 . S
C89 C91 1.363 . S
C90 C80 1.465 . S
C90 U86 2.847 . S
C90 O104 1.249 . S
C90 O105 1.202 . S
C91 C89 1.363 . S
C91 C93 1.408 . S
C91 C96 1.342 1_554 S
C92 C93 1.310 . S
C92 C95 1.461 . S
C92 H112 0.932 . S
C93 C91 1.408 . S
C93 C92 1.310 . S
C93 H113 0.930 . S
C94 C95 1.475 1_566 S
C94 C96 1.284 1_565 S
C94 H114 0.930 . S
C95 C92 1.461 . S
C95 C94 1.475 1_544 S
C96 C91 1.342 1_556 S
C96 C94 1.284 1_545 S
C96 H115 0.929 . S
C97 C100 1.424 . S
C97 C102 1.245 . S
C97 C103 1.428 1_556 S
C98 C101 1.260 . S
C98 C102 1.477 . S
C98 H116 0.932 . S
C99 C100 1.384 . S
C99 C101 1.479 . S
C99 H117 0.929 . S
C100 C97 1.424 . S
C100 C99 1.384 . S
C100 H118 0.928 1_556 S
C101 C98 1.260 . S
C101 C99 1.479 . S
C102 C97 1.245 . S
C102 C98 1.477 . S
C102 H119 0.932 . S
C103 U86 2.882 . S
C103 C97 1.428 1_554 S
C103 O106 1.301 . S
C103 O107 1.282 . S
O104 U86 2.441 . S
O104 C90 1.249 . S
O105 U86 2.420 . S
O105 C90 1.202 . S
O106 U86 2.455 . S
O106 C103 1.301 . S
O107 U86 2.449 . S
O107 C103 1.282 . S
H108 C81 0.931 . S
H109 C83 0.929 . S
H110 C84 0.917 1_565 S
H111 C85 0.931 . S
H112 C92 0.932 . S
H113 C93 0.930 . S
H114 C94 0.930 . S
H115 C96 0.929 . S
H116 C98 0.932 . S
H117 C99 0.929 . S
H118 C100 0.928 1_554 S
H119 C102 0.932 . S
C120 C121 1.264 . S
C120 C125 1.479 . S
C120 C130 1.465 . S
C121 C120 1.264 . S
C121 C123 1.339 . S
C121 H148 0.931 . S
C122 C123 1.395 . S
C122 C124 1.320 . S
C123 C121 1.339 . S
C123 C122 1.395 . S
C123 H149 0.929 . S
C124 C122 1.320 . S
C124 C125 1.405 . S
C124 H150 0.930 . S
C125 C120 1.479 . S
C125 C124 1.405 . S
C125 H151 0.931 . S
U126 O127 2.454 . S
U126 O128 2.458 . S
U126 C129 2.984 . S
U126 C130 2.847 . S
U126 C143 2.876 1_554 S
U126 O144 2.441 . S
U126 O145 2.420 . S
U126 O146 2.455 1_554 S
U126 O147 2.449 . S
O127 U126 2.454 . S
O127 C129 1.353 . S
O128 U126 2.458 . S
O128 C129 1.286 . S
C129 U126 2.984 . S
C129 O127 1.353 . S
C129 O128 1.286 . S
C129 C131 1.363 . S
C130 C120 1.465 . S
C130 U126 2.847 . S
C130 O144 1.249 . S
C130 O145 1.202 . S
C131 C129 1.363 . S
C131 C133 1.408 . S
C131 C136 1.342 1_554 S
C132 C133 1.310 . S
C132 C135 1.461 . S
C132 H152 0.932 . S
C133 C131 1.408 . S
C133 C132 1.310 . S
C133 H153 0.930 . S
C134 C135 1.474 1_556 S
C134 C136 1.285 . S
C134 H154 0.929 . S
C135 C132 1.461 . S
C135 C134 1.474 1_554 S
C136 C131 1.342 1_556 S
C136 C134 1.285 . S
C136 H155 0.930 . S
C137 C140 1.424 . S
C137 C142 1.245 . S
C137 C143 1.434 . S
C138 C141 1.260 . S
C138 C142 1.477 . S
C138 H156 0.932 . S
C139 C140 1.384 . S
C139 C141 1.479 . S
C139 H157 0.929 . S
C140 C137 1.424 . S
C140 C139 1.384 . S
C140 H158 0.928 1_556 S
C141 C138 1.260 . S
C141 C139 1.479 . S
C142 C137 1.245 . S
C142 C138 1.477 . S
C142 H159 0.932 . S
C143 U126 2.876 1_556 S
C143 C137 1.434 . S
C143 O146 1.303 . S
C143 O147 1.273 1_556 S
O144 U126 2.441 . S
O144 C130 1.249 . S
O145 U126 2.420 . S
O145 C130 1.202 . S
O146 U126 2.455 1_556 S
O146 C143 1.303 . S
O147 U126 2.449 . S
O147 C143 1.273 1_554 S
H148 C121 0.931 . S
H149 C123 0.929 . S
H150 C124 0.930 . S
H151 C125 0.931 . S
H152 C132 0.932 . S
H153 C133 0.930 . S
H154 C134 0.929 . S
H155 C136 0.930 . S
H156 C138 0.932 . S
H157 C139 0.929 . S
H158 C140 0.928 1_554 S
H159 C142 0.932 . S
C160 C161 1.264 . S
C160 C165 1.479 . S
C160 C170 1.465 . S
C161 C160 1.264 . S
C161 C163 1.339 . S
C161 H188 0.931 . S
C162 C163 1.395 . S
C162 C164 1.320 . S
C163 C161 1.339 . S
C163 C162 1.395 . S
C163 H189 0.929 . S
C164 C162 1.320 . S
C164 C165 1.405 . S
C164 H190 0.930 1_554 S
C165 C160 1.479 . S
C165 C164 1.405 . S
C165 H191 0.931 . S
U166 O167 2.454 . S
U166 O168 2.458 . S
U166 C169 2.984 . S
U166 C170 2.847 . S
U166 C183 2.882 . S
U166 O184 2.441 . S
U166 O185 2.420 . S
U166 O186 2.455 . S
U166 O187 2.449 . S
O167 U166 2.454 . S
O167 C169 1.353 . S
O168 U166 2.458 . S
O168 C169 1.286 . S
C169 U166 2.984 . S
C169 O167 1.353 . S
C169 O168 1.286 . S
C169 C171 1.363 . S
C170 C160 1.465 . S
C170 U166 2.847 . S
C170 O184 1.249 . S
C170 O185 1.202 . S
C171 C169 1.363 . S
C171 C173 1.408 . S
C171 C176 1.342 . S
C172 C173 1.310 . S
C172 C175 1.461 . S
C172 H192 0.932 . S
C173 C171 1.408 . S
C173 C172 1.310 . S
C173 H193 0.930 . S
C174 C175 1.474 . S
C174 C176 1.285 . S
C174 H194 0.929 . S
C175 C172 1.461 . S
C175 C174 1.474 . S
C176 C171 1.342 . S
C176 C174 1.285 . S
C176 H195 0.930 . S
C177 C180 1.424 . S
C177 C182 1.245 . S
C177 C183 1.428 . S
C178 C181 1.260 . S
C178 C182 1.477 . S
C178 H196 0.932 . S
C179 C180 1.384 . S
C179 C181 1.479 . S
C179 H197 0.929 . S
C180 C177 1.424 . S
C180 C179 1.384 . S
C180 H198 0.928 . S
C181 C178 1.260 . S
C181 C179 1.479 . S
C182 C177 1.245 . S
C182 C178 1.477 . S
C182 H199 0.932 . S
C183 U166 2.882 . S
C183 C177 1.428 . S
C183 O186 1.301 . S
C183 O187 1.282 . S
O184 U166 2.441 . S
O184 C170 1.249 . S
O185 U166 2.420 . S
O185 C170 1.202 . S
O186 U166 2.455 . S
O186 C183 1.301 . S
O187 U166 2.449 . S
O187 C183 1.282 . S
H188 C161 0.931 . S
H189 C163 0.929 . S
H190 C164 0.930 1_556 S
H191 C165 0.931 . S
H192 C172 0.932 . S
H193 C173 0.930 . S
H194 C174 0.929 . S
H195 C176 0.930 . S
H196 C178 0.932 . S
H197 C179 0.929 . S
H198 C180 0.928 . S
H199 C182 0.932 . S
C200 C201 1.264 . S
C200 C205 1.479 . S
C200 C210 1.465 . S
C201 C200 1.264 . S
C201 C203 1.339 . S
C201 H228 0.931 . S
C202 C203 1.395 . S
C202 C204 1.320 . S
C203 C201 1.339 . S
C203 C202 1.395 . S
C203 H229 0.929 . S
C204 C202 1.320 . S
C204 C205 1.405 . S
C204 H230 0.930 . S
C205 C200 1.479 . S
C205 C204 1.405 . S
C205 H231 0.931 . S
U206 O207 2.454 . S
U206 O208 2.458 . S
U206 C209 2.984 . S
U206 C210 2.847 . S
U206 C223 2.882 . S
U206 O224 2.441 . S
U206 O225 2.420 . S
U206 O226 2.455 . S
U206 O227 2.449 . S
O207 U206 2.454 . S
O207 C209 1.353 . S
O208 U206 2.458 . S
O208 C209 1.286 . S
C209 U206 2.984 . S
C209 O207 1.353 . S
C209 O208 1.286 . S
C209 C211 1.363 . S
C210 C200 1.465 . S
C210 U206 2.847 . S
C210 O224 1.249 . S
C210 O225 1.202 . S
C211 C209 1.363 . S
C211 C213 1.408 . S
C211 C216 1.342 . S
C212 C213 1.310 . S
C212 C215 1.461 . S
C212 H232 0.932 . S
C213 C211 1.408 . S
C213 C212 1.310 . S
C213 H233 0.930 . S
C214 C215 1.474 . S
C214 C216 1.285 . S
C214 H234 0.929 . S
C215 C212 1.461 . S
C215 C214 1.474 . S
C216 C211 1.342 . S
C216 C214 1.285 . S
C216 H235 0.930 . S
C217 C220 1.424 . S
C217 C222 1.245 . S
C217 C223 1.428 . S
C218 C221 1.260 . S
C218 C222 1.477 . S
C218 H236 0.932 . S
C219 C220 1.384 . S
C219 C221 1.479 . S
C219 H237 0.929 . S
C220 C217 1.424 . S
C220 C219 1.384 . S
C220 H238 0.928 . S
C221 C218 1.260 . S
C221 C219 1.479 . S
C222 C217 1.245 . S
C222 C218 1.477 . S
C222 H239 0.932 . S
C223 U206 2.882 . S
C223 C217 1.428 . S
C223 O226 1.301 . S
C223 O227 1.282 . S
O224 U206 2.441 . S
O224 C210 1.249 . S
O225 U206 2.420 . S
O225 C210 1.202 . S
O226 U206 2.455 . S
O226 C223 1.301 . S
O227 U206 2.449 . S
O227 C223 1.282 . S
H228 C201 0.931 . S
H229 C203 0.929 . S
H230 C204 0.930 . S
H231 C205 0.931 . S
H232 C212 0.932 . S
H233 C213 0.930 . S
H234 C214 0.929 . S
H235 C216 0.930 . S
H236 C218 0.932 . S
H237 C219 0.929 . S
H238 C220 0.928 . S
H239 C222 0.932 . S
C240 C241 1.264 . S
C240 C245 1.479 . S
C240 C250 1.465 . S
C241 C240 1.264 . S
C241 C243 1.339 . S
C241 H268 0.931 . S
C242 C243 1.395 1_556 S
C242 C244 1.320 . S
C243 C241 1.339 . S
C243 C242 1.395 1_554 S
C243 H269 0.929 . S
C244 C242 1.320 . S
C244 C245 1.405 1_556 S
C244 H270 0.930 . S
C245 C240 1.479 . S
C245 C244 1.405 1_554 S
C245 H271 0.931 . S
U246 O247 2.454 . S
U246 O248 2.458 . S
U246 C249 2.984 . S
U246 C250 2.847 . S
U246 C263 2.882 . S
U246 O264 2.441 . S
U246 O265 2.420 . S
U246 O266 2.455 . S
U246 O267 2.449 . S
O247 U246 2.454 . S
O247 C249 1.353 . S
O248 U246 2.458 . S
O248 C249 1.286 . S
C249 U246 2.984 . S
C249 O247 1.353 . S
C249 O248 1.286 . S
C249 C251 1.363 . S
C250 C240 1.465 . S
C250 U246 2.847 . S
C250 O264 1.249 . S
C250 O265 1.202 . S
C251 C249 1.363 . S
C251 C253 1.408 . S
C251 C256 1.342 . S
C252 C253 1.310 . S
C252 C255 1.461 . S
C252 H272 0.932 . S
C253 C251 1.408 . S
C253 C252 1.310 . S
C253 H273 0.930 . S
C254 C255 1.474 . S
C254 C256 1.285 . S
C254 H274 0.929 . S
C255 C252 1.461 . S
C255 C254 1.474 . S
C256 C251 1.342 . S
C256 C254 1.285 . S
C256 H275 0.930 . S
C257 C260 1.424 . S
C257 C262 1.245 . S
C257 C263 1.428 . S
C258 C261 1.260 . S
C258 C262 1.477 . S
C258 H276 0.932 . S
C259 C260 1.384 . S
C259 C261 1.479 . S
C259 H277 0.929 . S
C260 C257 1.424 . S
C260 C259 1.384 . S
C260 H278 0.928 . S
C261 C258 1.260 . S
C261 C259 1.479 . S
C262 C257 1.245 . S
C262 C258 1.477 . S
C262 H279 0.932 . S
C263 U246 2.882 . S
C263 C257 1.428 . S
C263 O266 1.301 . S
C263 O267 1.282 . S
O264 U246 2.441 . S
O264 C250 1.249 . S
O265 U246 2.420 . S
O265 C250 1.202 . S
O266 U246 2.455 . S
O266 C263 1.301 . S
O267 U246 2.449 . S
O267 C263 1.282 . S
H268 C241 0.931 . S
H269 C243 0.929 . S
H270 C244 0.930 . S
H271 C245 0.931 . S
H272 C252 0.932 . S
H273 C253 0.930 . S
H274 C254 0.929 . S
H275 C256 0.930 . S
H276 C258 0.932 . S
H277 C259 0.929 . S
H278 C260 0.928 . S
H279 C262 0.932 . S
C280 C281 1.264 . S
C280 C285 1.479 . S
C280 C290 1.465 . S
C281 C280 1.264 . S
C281 C283 1.339 . S
C281 H308 0.931 . S
C282 C283 1.395 1_556 S
C282 C284 1.320 1_556 S
C283 C281 1.339 . S
C283 C282 1.395 1_554 S
C283 H309 0.929 . S
C284 C282 1.320 1_554 S
C284 C285 1.405 . S
C284 H310 0.930 1_554 S
C285 C280 1.479 . S
C285 C284 1.405 . S
C285 H311 0.931 . S
U286 O287 2.454 . S
U286 O288 2.458 . S
U286 C289 2.984 . S
U286 C290 2.847 . S
U286 C303 2.882 . S
U286 O304 2.441 . S
U286 O305 2.420 . S
U286 O306 2.455 . S
U286 O307 2.449 . S
O287 U286 2.454 . S
O287 C289 1.353 . S
O288 U286 2.458 . S
O288 C289 1.286 . S
C289 U286 2.984 . S
C289 O287 1.353 . S
C289 O288 1.286 . S
C289 C291 1.363 . S
C290 C280 1.465 . S
C290 U286 2.847 . S
C290 O304 1.249 . S
C290 O305 1.202 . S
C291 C289 1.363 . S
C291 C293 1.408 . S
C291 C296 1.342 . S
C292 C293 1.310 . S
C292 C295 1.461 . S
C292 H312 0.932 . S
C293 C291 1.408 . S
C293 C292 1.310 . S
C293 H313 0.930 . S
C294 C295 1.474 . S
C294 C296 1.285 . S
C294 H314 0.929 . S
C295 C292 1.461 . S
C295 C294 1.474 . S
C296 C291 1.342 . S
C296 C294 1.285 . S
C296 H315 0.930 . S
C297 C300 1.424 . S
C297 C302 1.245 . S
C297 C303 1.428 . S
C298 C301 1.260 . S
C298 C302 1.477 . S
C298 H316 0.932 . S
C299 C300 1.384 . S
C299 C301 1.479 . S
C299 H317 0.929 . S
C300 C297 1.424 . S
C300 C299 1.384 . S
C300 H318 0.928 . S
C301 C298 1.260 . S
C301 C299 1.479 . S
C302 C297 1.245 . S
C302 C298 1.477 . S
C302 H319 0.932 . S
C303 U286 2.882 . S
C303 C297 1.428 . S
C303 O306 1.301 . S
C303 O307 1.282 . S
O304 U286 2.441 . S
O304 C290 1.249 . S
O305 U286 2.420 . S
O305 C290 1.202 . S
O306 U286 2.455 . S
O306 C303 1.301 . S
O307 U286 2.449 . S
O307 C303 1.282 . S
H308 C281 0.931 . S
H309 C283 0.929 . S
H310 C284 0.930 1_556 S
H311 C285 0.931 . S
H312 C292 0.932 . S
H313 C293 0.930 . S
H314 C294 0.929 . S
H315 C296 0.930 . S
H316 C298 0.932 . S
H317 C299 0.929 . S
H318 C300 0.928 . S
H319 C302 0.932 . S
Tb320 O323 2.476 1_655 S
Tb320 O324 2.610 1_655 S
Tb320 O325 2.369 1_645 S
Tb320 O333 2.330 1_545 S
Tb320 O335 2.361 . S
Tb320 O337 2.411 1_545 S
Tb320 O338 2.491 1_545 S
C321 O325 1.254 . S
C321 O327 1.263 . S
Tb322 O324 2.343 . S
Tb322 O327 2.344 1_545 S
Tb322 O330 2.427 . S
Tb322 O331 2.513 . S
Tb322 O332 2.453 1_545 S
Tb322 O333 2.596 1_445 S
Tb322 O334 2.374 1_455 S
O323 Tb320 2.476 1_455 S
O323 C339 1.245 . S
O324 Tb320 2.610 1_455 S
O324 Tb322 2.343 . S
O324 C339 1.259 . S
O325 Tb320 2.369 1_465 S
O325 C321 1.254 . S
C326 O330 1.275 . S
C326 O331 1.246 . S
O327 C321 1.263 . S
O327 Tb322 2.344 1_565 S
C328 O332 1.245 1_655 S
C328 O333 1.259 . S
C329 O334 1.250 . S
C329 O335 1.263 . S
O330 Tb322 2.427 . S
O330 C326 1.275 . S
O331 Tb322 2.513 . S
O331 C326 1.246 . S
O332 Tb322 2.453 1_565 S
O332 C328 1.245 1_455 S
O333 Tb320 2.330 1_565 S
O333 Tb322 2.596 1_665 S
O333 C328 1.259 . S
O334 Tb322 2.374 1_655 S
O334 C329 1.250 . S
O335 Tb320 2.361 . S
O335 C329 1.263 . S
C336 O337 1.275 . S
C336 O338 1.246 . S
O337 Tb320 2.411 1_565 S
O337 C336 1.275 . S
O338 Tb320 2.491 1_565 S
O338 C336 1.246 . S
C339 O323 1.245 . S
C339 O324 1.259 . S
Tb340 O343 2.453 . S
Tb340 O344 2.596 . S
Tb340 O345 2.374 . S
Tb340 O353 2.343 . S
Tb340 O355 2.353 . S
Tb340 O357 2.427 . S
Tb340 O358 2.513 . S
C341 O345 1.251 . S
C341 O347 1.263 1_545 S
Tb342 O344 2.343 1_565 S
Tb342 O347 2.353 . S
Tb342 O350 2.427 . S
Tb342 O351 2.513 . S
Tb342 O352 2.453 . S
Tb342 O353 2.596 1_565 S
Tb342 O354 2.374 . S
O343 Tb340 2.453 . S
O343 C359 1.245 . S
O344 Tb340 2.596 . S
O344 Tb342 2.343 1_545 S
O344 C359 1.259 . S
O345 Tb340 2.374 . S
O345 C341 1.251 . S
C346 O350 1.275 . S
C346 O351 1.246 . S
O347 C341 1.263 1_565 S
O347 Tb342 2.353 . S
C348 O352 1.245 . S
C348 O353 1.259 1_565 S
C349 O354 1.250 1_545 S
C349 O355 1.263 . S
O350 Tb342 2.427 . S
O350 C346 1.275 . S
O351 Tb342 2.513 . S
O351 C346 1.246 . S
O352 Tb342 2.453 . S
O352 C348 1.245 . S
O353 Tb340 2.343 . S
O353 Tb342 2.596 1_545 S
O353 C348 1.259 1_545 S
O354 Tb342 2.374 . S
O354 C349 1.250 1_565 S
O355 Tb340 2.353 . S
O355 C349 1.263 . S
C356 O357 1.275 . S
C356 O358 1.246 . S
O357 Tb340 2.427 . S
O357 C356 1.275 . S
O358 Tb340 2.513 . S
O358 C356 1.246 . S
C359 O343 1.245 . S
C359 O344 1.259 . S
Tb360 O363 2.453 . S
Tb360 O364 2.596 . S
Tb360 O365 2.374 . S
Tb360 O373 2.343 . S
Tb360 O375 2.353 . S
Tb360 O377 2.427 . S
Tb360 O378 2.513 . S
C361 O365 1.251 . S
C361 O367 1.263 . S
Tb362 O364 2.343 . S
Tb362 O367 2.353 . S
Tb362 O370 2.427 . S
Tb362 O371 2.513 . S
Tb362 O372 2.453 . S
Tb362 O373 2.596 . S
Tb362 O374 2.374 . S
O363 Tb360 2.453 . S
O363 C379 1.245 . S
O364 Tb360 2.596 . S
O364 Tb362 2.343 . S
O364 C379 1.259 . S
O365 Tb360 2.374 . S
O365 C361 1.251 . S
C366 O370 1.275 . S
C366 O371 1.246 . S
O367 C361 1.263 . S
O367 Tb362 2.353 . S
C368 O372 1.245 . S
C368 O373 1.259 . S
C369 O374 1.250 . S
C369 O375 1.263 . S
O370 Tb362 2.427 . S
O370 C366 1.275 . S
O371 Tb362 2.513 . S
O371 C366 1.246 . S
O372 Tb362 2.453 . S
O372 C368 1.245 . S
O373 Tb360 2.343 . S
O373 Tb362 2.596 . S
O373 C368 1.259 . S
O374 Tb362 2.374 . S
O374 C369 1.250 . S
O375 Tb360 2.353 . S
O375 C369 1.263 . S
C376 O377 1.275 . S
C376 O378 1.246 . S
O377 Tb360 2.427 . S
O377 C376 1.275 . S
O378 Tb360 2.513 . S
O378 C376 1.246 . S
C379 O363 1.245 . S
C379 O364 1.259 . S
Tb380 O383 2.453 1_655 S
Tb380 O384 2.596 1_655 S
Tb380 O385 2.374 1_655 S
Tb380 O393 2.343 . S
Tb380 O395 2.353 . S
Tb380 O397 2.427 . S
Tb380 O398 2.513 . S
C381 O385 1.251 . S
C381 O387 1.263 . S
Tb382 O384 2.343 . S
Tb382 O387 2.353 . S
Tb382 O390 2.427 . S
Tb382 O391 2.513 . S
Tb382 O392 2.453 1_455 S
Tb382 O393 2.596 1_455 S
Tb382 O394 2.374 . S
O383 Tb380 2.453 1_455 S
O383 C399 1.245 . S
O384 Tb380 2.596 1_455 S
O384 Tb382 2.343 . S
O384 C399 1.259 . S
O385 Tb380 2.374 1_455 S
O385 C381 1.251 . S
C386 O390 1.275 . S
C386 O391 1.246 . S
O387 C381 1.263 . S
O387 Tb382 2.353 . S
C388 O392 1.245 . S
C388 O393 1.259 . S
C389 O394 1.250 1_655 S
C389 O395 1.263 . S
O390 Tb382 2.427 . S
O390 C386 1.275 . S
O391 Tb382 2.513 . S
O391 C386 1.246 . S
O392 Tb382 2.453 1_655 S
O392 C388 1.245 . S
O393 Tb380 2.343 . S
O393 Tb382 2.596 1_655 S
O393 C388 1.259 . S
O394 Tb382 2.374 . S
O394 C389 1.250 1_455 S
O395 Tb380 2.353 . S
O395 C389 1.263 . S
C396 O397 1.275 . S
C396 O398 1.246 . S
O397 Tb380 2.427 . S
O397 C396 1.275 . S
O398 Tb380 2.513 . S
O398 C396 1.246 . S
C399 O383 1.245 . S
C399 O384 1.259 . S
H400 C412 0.930 . S
H401 C414 0.930 . S
H402 C415 0.930 . S
H403 C419 0.959 . S
H404 C419 0.959 . S
H405 C419 0.961 . S
H406 C420 0.960 . S
H407 C420 0.961 . S
H408 C420 0.959 . S
H409 C423 0.929 . S
H410 C424 0.931 . S
H411 C426 0.930 . S
C412 H400 0.930 . S
C412 C413 1.399 . S
C412 C417 1.399 . S
C413 C412 1.399 . S
C413 C414 1.376 . S
C414 H401 0.930 . S
C414 C413 1.376 . S
C414 C415 1.388 . S
C415 H402 0.930 . S
C415 C414 1.388 . S
C415 C416 1.390 . S
C416 C415 1.390 . S
C416 C417 1.394 . S
C416 C422 1.465 . S
C417 C412 1.399 . S
C417 C416 1.394 . S
C417 C418 1.516 . S
C418 C417 1.516 . S
C418 C419 1.502 1_545 S
C418 C420 1.561 . S
C418 C421 1.526 . S
C419 H403 0.959 . S
C419 H404 0.959 . S
C419 H405 0.961 . S
C419 C418 1.502 1_565 S
C420 H406 0.960 . S
C420 H407 0.961 . S
C420 H408 0.959 . S
C420 C418 1.561 . S
C421 C418 1.526 . S
C421 C422 1.396 . S
C421 C426 1.390 . S
C422 C416 1.465 . S
C422 C421 1.396 . S
C422 C423 1.399 . S
C423 H409 0.929 . S
C423 C422 1.399 . S
C423 C424 1.385 . S
C424 H410 0.931 . S
C424 C423 1.385 . S
C424 C425 1.389 . S
C425 C424 1.389 . S
C425 C426 1.387 . S
C426 H411 0.930 . S
C426 C421 1.390 . S
C426 C425 1.387 . S
H427 C439 0.930 . S
H428 C441 0.930 . S
H429 C442 0.930 . S
H430 C446 0.959 . S
H431 C446 0.959 . S
H432 C446 0.961 . S
H433 C447 0.960 . S
H434 C447 0.961 . S
H435 C447 0.959 . S
H436 C450 0.929 . S
H437 C451 0.931 . S
H438 C453 0.930 . S
C439 H427 0.930 . S
C439 C440 1.399 . S
C439 C444 1.399 . S
C440 C439 1.399 . S
C440 C441 1.376 . S
C441 H428 0.930 . S
C441 C440 1.376 . S
C441 C442 1.388 . S
C442 H429 0.930 . S
C442 C441 1.388 . S
C442 C443 1.390 . S
C443 C442 1.390 . S
C443 C444 1.394 . S
C443 C449 1.465 . S
C444 C439 1.399 . S
C444 C443 1.394 . S
C444 C445 1.516 . S
C445 C444 1.516 . S
C445 C446 1.502 . S
C445 C447 1.561 . S
C445 C448 1.526 . S
C446 H430 0.959 . S
C446 H431 0.959 . S
C446 H432 0.961 . S
C446 C445 1.502 . S
C447 H433 0.960 . S
C447 H434 0.961 . S
C447 H435 0.959 . S
C447 C445 1.561 . S
C448 C445 1.526 . S
C448 C449 1.396 . S
C448 C453 1.390 . S
C449 C443 1.465 . S
C449 C448 1.396 . S
C449 C450 1.399 . S
C450 H436 0.929 . S
C450 C449 1.399 . S
C450 C451 1.385 . S
C451 H437 0.931 . S
C451 C450 1.385 . S
C451 C452 1.389 . S
C452 C451 1.389 . S
C452 C453 1.387 . S
C453 H438 0.930 . S
C453 C448 1.390 . S
C453 C452 1.387 . S
H454 C466 0.930 . S
H455 C468 0.930 . S
H456 C469 0.930 . S
H457 C473 0.959 . S
H458 C473 0.959 . S
H459 C473 0.961 . S
H460 C474 0.960 . S
H461 C474 0.961 . S
H462 C474 0.959 . S
H463 C477 0.929 . S
H464 C478 0.931 . S
H465 C480 0.930 . S
C466 H454 0.930 . S
C466 C467 1.399 . S
C466 C471 1.399 . S
C467 C466 1.399 . S
C467 C468 1.376 . S
C468 H455 0.930 . S
C468 C467 1.376 . S
C468 C469 1.388 . S
C469 H456 0.930 . S
C469 C468 1.388 . S
C469 C470 1.390 . S
C470 C469 1.390 . S
C470 C471 1.394 . S
C470 C476 1.465 . S
C471 C466 1.399 . S
C471 C470 1.394 . S
C471 C472 1.516 . S
C472 C471 1.516 . S
C472 C473 1.502 . S
C472 C474 1.561 . S
C472 C475 1.526 . S
C473 H457 0.959 . S
C473 H458 0.959 . S
C473 H459 0.961 . S
C473 C472 1.502 . S
C474 H460 0.960 . S
C474 H461 0.961 . S
C474 H462 0.959 . S
C474 C472 1.561 . S
C475 C472 1.526 . S
C475 C476 1.396 . S
C475 C480 1.390 . S
C476 C470 1.465 . S
C476 C475 1.396 . S
C476 C477 1.399 . S
C477 H463 0.929 . S
C477 C476 1.399 . S
C477 C478 1.385 . S
C478 H464 0.931 . S
C478 C477 1.385 . S
C478 C479 1.389 . S
C479 C478 1.389 . S
C479 C480 1.387 . S
C480 H465 0.930 . S
C480 C475 1.390 . S
C480 C479 1.387 . S
H481 C493 0.930 . S
H482 C495 0.930 . S
H483 C496 0.930 . S
H484 C500 0.959 . S
H485 C500 0.959 . S
H486 C500 0.961 . S
H487 C501 0.960 . S
H488 C501 0.961 . S
H489 C501 0.959 . S
H490 C504 0.929 . S
H491 C505 0.931 . S
H492 C507 0.930 . S
C493 H481 0.930 . S
C493 C494 1.399 . S
C493 C498 1.399 . S
C494 C493 1.399 . S
C494 C495 1.376 . S
C495 H482 0.930 . S
C495 C494 1.376 . S
C495 C496 1.388 . S
C496 H483 0.930 . S
C496 C495 1.388 . S
C496 C497 1.390 . S
C497 C496 1.390 . S
C497 C498 1.394 . S
C497 C503 1.465 . S
C498 C493 1.399 . S
C498 C497 1.394 . S
C498 C499 1.516 . S
C499 C498 1.516 . S
C499 C500 1.502 . S
C499 C501 1.561 . S
C499 C502 1.526 . S
C500 H484 0.959 . S
C500 H485 0.959 . S
C500 H486 0.961 . S
C500 C499 1.502 . S
C501 H487 0.960 . S
C501 H488 0.961 . S
C501 H489 0.959 . S
C501 C499 1.561 . S
C502 C499 1.526 . S
C502 C503 1.396 . S
C502 C507 1.390 . S
C503 C497 1.465 . S
C503 C502 1.396 . S
C503 C504 1.399 . S
C504 H490 0.929 . S
C504 C503 1.399 . S
C504 C505 1.385 . S
C505 H491 0.931 . S
C505 C504 1.385 . S
C505 C506 1.389 . S
C506 C505 1.389 . S
C506 C507 1.387 . S
C507 H492 0.930 . S
C507 C502 1.390 . S
C507 C506 1.387 . S
H508 C520 0.930 . S
H509 C522 0.930 . S
H510 C523 0.930 . S
H511 C527 0.959 . S
H512 C527 0.959 . S
H513 C527 0.961 . S
H514 C528 0.960 . S
H515 C528 0.961 . S
H516 C528 0.959 . S
H517 C531 0.929 . S
H518 C532 0.931 . S
H519 C534 0.930 . S
C520 H508 0.930 . S
C520 C521 1.399 1_565 S
C520 C525 1.399 . S
C521 C520 1.399 1_545 S
C521 C522 1.376 . S
C522 H509 0.930 . S
C522 C521 1.376 . S
C522 C523 1.388 . S
C523 H510 0.930 . S
C523 C522 1.388 . S
C523 C524 1.390 . S
C524 C523 1.390 . S
C524 C525 1.394 1_545 S
C524 C530 1.465 . S
C525 C520 1.399 . S
C525 C524 1.394 1_565 S
C525 C526 1.516 . S
C526 C525 1.516 . S
C526 C527 1.502 . S
C526 C528 1.561 . S
C526 C529 1.526 . S
C527 H511 0.959 . S
C527 H512 0.959 . S
C527 H513 0.961 . S
C527 C526 1.502 . S
C528 H514 0.960 . S
C528 H515 0.961 . S
C528 H516 0.959 . S
C528 C526 1.561 . S
C529 C526 1.526 . S
C529 C530 1.396 1_565 S
C529 C534 1.390 . S
C530 C524 1.465 . S
C530 C529 1.396 1_545 S
C530 C531 1.399 . S
C531 H517 0.929 . S
C531 C530 1.399 . S
C531 C532 1.385 . S
C532 H518 0.931 . S
C532 C531 1.385 . S
C532 C533 1.389 . S
C533 C532 1.389 . S
C533 C534 1.387 1_545 S
C534 H519 0.930 . S
C534 C529 1.390 . S
C534 C533 1.387 1_565 S
H535 C547 0.930 . S
H536 C549 0.930 . S
H537 C550 0.921 1_554 S
H538 C554 0.959 . S
H539 C554 0.959 . S
H540 C554 0.961 . S
H541 C555 0.960 . S
H542 C555 0.961 . S
H543 C555 0.959 . S
H544 C558 0.929 . S
H545 C559 0.931 . S
H546 C561 0.930 . S
C547 H535 0.930 . S
C547 C548 1.399 . S
C547 C552 1.399 . S
C548 C547 1.399 . S
C548 C549 1.376 1_556 S
C549 H536 0.930 . S
C549 C548 1.376 1_554 S
C549 C550 1.383 1_554 S
C550 H537 0.921 1_556 S
C550 C549 1.383 1_556 S
C550 C551 1.405 . S
C551 C550 1.405 . S
C551 C552 1.394 . S
C551 C557 1.465 . S
C552 C547 1.399 . S
C552 C551 1.394 . S
C552 C553 1.516 . S
C553 C552 1.516 . S
C553 C554 1.502 . S
C553 C555 1.561 . S
C553 C556 1.526 . S
C554 H538 0.959 . S
C554 H539 0.959 . S
C554 H540 0.961 . S
C554 C553 1.502 . S
C555 H541 0.960 . S
C555 H542 0.961 . S
C555 H543 0.959 . S
C555 C553 1.561 . S
C556 C553 1.526 . S
C556 C557 1.396 . S
C556 C561 1.390 . S
C557 C551 1.465 . S
C557 C556 1.396 . S
C557 C558 1.399 . S
C558 H544 0.929 . S
C558 C557 1.399 . S
C558 C559 1.385 . S
C559 H545 0.931 . S
C559 C558 1.385 . S
C559 C560 1.389 . S
C560 C559 1.389 . S
C560 C561 1.387 . S
C561 H546 0.930 . S
C561 C556 1.390 . S
C561 C560 1.387 . S
H562 C574 0.930 . S
H563 C576 0.930 1_554 S
H564 C577 0.930 . S
H565 C581 0.959 . S
H566 C581 0.959 . S
H567 C581 0.961 . S
H568 C582 0.960 . S
H569 C582 0.961 . S
H570 C582 0.959 . S
H571 C585 0.929 . S
H572 C586 0.931 . S
H573 C588 0.930 . S
C574 H562 0.930 . S
C574 C575 1.399 . S
C574 C579 1.399 . S
C575 C574 1.399 . S
C575 C576 1.376 . S
C576 H563 0.930 1_556 S
C576 C575 1.376 . S
C576 C577 1.388 . S
C577 H564 0.930 . S
C577 C576 1.388 . S
C577 C578 1.390 . S
C578 C577 1.390 . S
C578 C579 1.394 . S
C578 C584 1.465 . S
C579 C574 1.399 . S
C579 C578 1.394 . S
C579 C580 1.516 . S
C580 C579 1.516 . S
C580 C581 1.502 . S
C580 C582 1.561 . S
C580 C583 1.526 . S
C581 H565 0.959 . S
C581 H566 0.959 . S
C581 H567 0.961 . S
C581 C580 1.502 . S
C582 H568 0.960 . S
C582 H569 0.961 . S
C582 H570 0.959 . S
C582 C580 1.561 . S
C583 C580 1.526 . S
C583 C584 1.396 . S
C583 C588 1.390 . S
C584 C578 1.465 . S
C584 C583 1.396 . S
C584 C585 1.399 . S
C585 H571 0.929 . S
C585 C584 1.399 . S
C585 C586 1.385 . S
C586 H572 0.931 . S
C586 C585 1.385 . S
C586 C587 1.389 . S
C587 C586 1.389 . S
C587 C588 1.387 . S
C588 H573 0.930 . S
C588 C583 1.390 . S
C588 C587 1.387 . S
H589 C601 0.930 . S
H590 C603 0.930 . S
H591 C604 0.930 . S
H592 C608 0.959 . S
H593 C608 0.959 . S
H594 C608 0.961 . S
H595 C609 0.960 . S
H596 C609 0.961 . S
H597 C609 0.959 . S
H598 C612 0.929 . S
H599 C613 0.931 . S
H600 C615 0.930 . S
C601 H589 0.930 . S
C601 C602 1.399 . S
C601 C606 1.399 . S
C602 C601 1.399 . S
C602 C603 1.376 . S
C603 H590 0.930 . S
C603 C602 1.376 . S
C603 C604 1.388 . S
C604 H591 0.930 . S
C604 C603 1.388 . S
C604 C605 1.390 . S
C605 C604 1.390 . S
C605 C606 1.394 . S
C605 C611 1.465 . S
C606 C601 1.399 . S
C606 C605 1.394 . S
C606 C607 1.516 . S
C607 C606 1.516 . S
C607 C608 1.502 . S
C607 C609 1.561 . S
C607 C610 1.526 . S
C608 H592 0.959 . S
C608 H593 0.959 . S
C608 H594 0.961 . S
C608 C607 1.502 . S
C609 H595 0.960 . S
C609 H596 0.961 . S
C609 H597 0.959 . S
C609 C607 1.561 . S
C610 C607 1.526 . S
C610 C611 1.396 . S
C610 C615 1.390 . S
C611 C605 1.465 . S
C611 C610 1.396 . S
C611 C612 1.399 . S
C612 H598 0.929 . S
C612 C611 1.399 . S
C612 C613 1.385 . S
C613 H599 0.931 . S
C613 C612 1.385 . S
C613 C614 1.389 . S
C614 C613 1.389 . S
C614 C615 1.387 . S
C615 H600 0.930 . S
C615 C610 1.390 . S
C615 C614 1.387 . S
H616 C628 0.930 . S
H617 C630 0.930 . S
H618 C631 0.930 . S
H619 C635 0.959 . S
H620 C635 0.959 . S
H621 C635 0.961 . S
H622 C636 0.960 . S
H623 C636 0.961 . S
H624 C636 0.959 . S
H625 C639 0.929 . S
H626 C640 0.931 . S
H627 C642 0.930 . S
C628 H616 0.930 . S
C628 C629 1.399 . S
C628 C633 1.399 . S
C629 C628 1.399 . S
C629 C630 1.376 . S
C630 H617 0.930 . S
C630 C629 1.376 . S
C630 C631 1.388 . S
C631 H618 0.930 . S
C631 C630 1.388 . S
C631 C632 1.390 . S
C632 C631 1.390 . S
C632 C633 1.394 . S
C632 C638 1.465 . S
C633 C628 1.399 . S
C633 C632 1.394 . S
C633 C634 1.516 . S
C634 C633 1.516 . S
C634 C635 1.502 . S
C634 C636 1.561 . S
C634 C637 1.526 . S
C635 H619 0.959 . S
C635 H620 0.959 . S
C635 H621 0.961 . S
C635 C634 1.502 . S
C636 H622 0.960 . S
C636 H623 0.961 . S
C636 H624 0.959 . S
C636 C634 1.561 . S
C637 C634 1.526 . S
C637 C638 1.396 . S
C637 C642 1.390 . S
C638 C632 1.465 . S
C638 C637 1.396 . S
C638 C639 1.399 . S
C639 H625 0.929 . S
C639 C638 1.399 . S
C639 C640 1.385 . S
C640 H626 0.931 . S
C640 C639 1.385 . S
C640 C641 1.389 . S
C641 C640 1.389 . S
C641 C642 1.387 . S
C642 H627 0.930 . S
C642 C637 1.390 . S
C642 C641 1.387 . S
H643 C655 0.930 . S
H644 C657 0.930 . S
H645 C658 0.930 . S
H646 C662 0.959 . S
H647 C662 0.959 . S
H648 C662 0.961 . S
H649 C663 0.960 . S
H650 C663 0.961 . S
H651 C663 0.959 . S
H652 C666 0.929 . S
H653 C667 0.931 . S
H654 C669 0.930 . S
C655 H643 0.930 . S
C655 C656 1.399 . S
C655 C660 1.399 . S
C656 C655 1.399 . S
C656 C657 1.376 1_545 S
C657 H644 0.930 . S
C657 C656 1.376 1_565 S
C657 C658 1.388 . S
C658 H645 0.930 . S
C658 C657 1.388 . S
C658 C659 1.390 . S
C659 C658 1.390 . S
C659 C660 1.394 1_565 S
C659 C665 1.465 . S
C660 C655 1.399 . S
C660 C659 1.394 1_545 S
C660 C661 1.516 . S
C661 C660 1.516 . S
C661 C662 1.502 . S
C661 C663 1.561 . S
C661 C664 1.526 . S
C662 H646 0.959 . S
C662 H647 0.959 . S
C662 H648 0.961 . S
C662 C661 1.502 . S
C663 H649 0.960 . S
C663 H650 0.961 . S
C663 H651 0.959 . S
C663 C661 1.561 . S
C664 C661 1.526 . S
C664 C665 1.396 1_545 S
C664 C669 1.390 . S
C665 C659 1.465 . S
C665 C664 1.396 1_565 S
C665 C666 1.399 . S
C666 H652 0.929 . S
C666 C665 1.399 . S
C666 C667 1.385 . S
C667 H653 0.931 . S
C667 C666 1.385 . S
C667 C668 1.389 1_565 S
C668 C667 1.389 1_545 S
C668 C669 1.387 . S
C669 H654 0.930 . S
C669 C664 1.390 . S
C669 C668 1.387 . S
H670 C682 0.930 . S
H671 C684 0.930 . S
H672 C685 0.930 . S
H673 C689 0.959 . S
H674 C689 0.959 . S
H675 C689 0.961 . S
H676 C690 0.960 . S
H677 C690 0.961 . S
H678 C690 0.959 . S
H679 C693 0.929 . S
H680 C694 0.931 . S
H681 C696 0.930 . S
C682 H670 0.930 . S
C682 C683 1.399 . S
C682 C687 1.399 . S
C683 C682 1.399 . S
C683 C684 1.376 . S
C684 H671 0.930 . S
C684 C683 1.376 . S
C684 C685 1.388 . S
C685 H672 0.930 . S
C685 C684 1.388 . S
C685 C686 1.390 . S
C686 C685 1.390 . S
C686 C687 1.394 . S
C686 C692 1.465 . S
C687 C682 1.399 . S
C687 C686 1.394 . S
C687 C688 1.516 . S
C688 C687 1.516 . S
C688 C689 1.502 . S
C688 C690 1.561 . S
C688 C691 1.526 . S
C689 H673 0.959 . S
C689 H674 0.959 . S
C689 H675 0.961 . S
C689 C688 1.502 . S
C690 H676 0.960 . S
C690 H677 0.961 . S
C690 H678 0.959 . S
C690 C688 1.561 . S
C691 C688 1.526 . S
C691 C692 1.396 . S
C691 C696 1.390 . S
C692 C686 1.465 . S
C692 C691 1.396 . S
C692 C693 1.399 . S
C693 H679 0.929 . S
C693 C692 1.399 . S
C693 C694 1.385 . S
C694 H680 0.931 . S
C694 C693 1.385 . S
C694 C695 1.389 . S
C695 C694 1.389 . S
C695 C696 1.387 . S
C696 H681 0.930 . S
C696 C691 1.390 . S
C696 C695 1.387 . S
H697 C709 0.930 . S
H698 C711 0.930 . S
H699 C712 0.930 . S
H700 C716 0.959 . S
H701 C716 0.959 . S
H702 C716 0.961 . S
H703 C717 0.960 . S
H704 C717 0.961 . S
H705 C717 0.959 . S
H706 C720 0.929 . S
H707 C721 0.931 . S
H708 C723 0.930 . S
C709 H697 0.930 . S
C709 C710 1.399 . S
C709 C714 1.399 . S
C710 C709 1.399 . S
C710 C711 1.376 . S
C711 H698 0.930 . S
C711 C710 1.376 . S
C711 C712 1.388 . S
C712 H699 0.930 . S
C712 C711 1.388 . S
C712 C713 1.390 . S
C713 C712 1.390 . S
C713 C714 1.394 . S
C713 C719 1.465 . S
C714 C709 1.399 . S
C714 C713 1.394 . S
C714 C715 1.516 . S
C715 C714 1.516 . S
C715 C716 1.502 . S
C715 C717 1.561 . S
C715 C718 1.526 . S
C716 H700 0.959 . S
C716 H701 0.959 . S
C716 H702 0.961 . S
C716 C715 1.502 . S
C717 H703 0.960 . S
C717 H704 0.961 . S
C717 H705 0.959 . S
C717 C715 1.561 . S
C718 C715 1.526 . S
C718 C719 1.396 . S
C718 C723 1.390 . S
C719 C713 1.465 . S
C719 C718 1.396 . S
C719 C720 1.399 . S
C720 H706 0.929 . S
C720 C719 1.399 . S
C720 C721 1.385 . S
C721 H707 0.931 . S
C721 C720 1.385 . S
C721 C722 1.389 . S
C722 C721 1.389 . S
C722 C723 1.387 . S
C723 H708 0.930 . S
C723 C718 1.390 . S
C723 C722 1.387 . S
H724 C736 0.930 . S
H725 C738 0.930 . S
H726 C739 0.930 . S
H727 C743 0.959 . S
H728 C743 0.959 . S
H729 C743 0.961 . S
H730 C744 0.960 . S
H731 C744 0.961 . S
H732 C744 0.959 . S
H733 C747 0.929 . S
H734 C748 0.931 . S
H735 C750 0.930 . S
C736 H724 0.930 . S
C736 C737 1.399 . S
C736 C741 1.399 . S
C737 C736 1.399 . S
C737 C738 1.376 . S
C738 H725 0.930 . S
C738 C737 1.376 . S
C738 C739 1.388 . S
C739 H726 0.930 . S
C739 C738 1.388 . S
C739 C740 1.390 . S
C740 C739 1.390 . S
C740 C741 1.394 . S
C740 C746 1.465 . S
C741 C736 1.399 . S
C741 C740 1.394 . S
C741 C742 1.516 . S
C742 C741 1.516 . S
C742 C743 1.502 . S
C742 C744 1.561 . S
C742 C745 1.526 . S
C743 H727 0.959 . S
C743 H728 0.959 . S
C743 H729 0.961 . S
C743 C742 1.502 . S
C744 H730 0.960 . S
C744 H731 0.961 . S
C744 H732 0.959 . S
C744 C742 1.561 . S
C745 C742 1.526 . S
C745 C746 1.396 . S
C745 C750 1.390 . S
C746 C740 1.465 . S
C746 C745 1.396 . S
C746 C747 1.399 . S
C747 H733 0.929 . S
C747 C746 1.399 . S
C747 C748 1.385 . S
C748 H734 0.931 . S
C748 C747 1.385 . S
C748 C749 1.389 . S
C749 C748 1.389 . S
C749 C750 1.387 . S
C750 H735 0.930 . S
C750 C745 1.390 . S
C750 C749 1.387 . S
H751 C763 0.930 . S
H752 C765 0.930 . S
H753 C766 0.930 . S
H754 C770 0.959 . S
H755 C770 0.959 . S
H756 C770 0.961 . S
H757 C771 0.960 . S
H758 C771 0.961 . S
H759 C771 0.959 . S
H760 C774 0.929 . S
H761 C775 0.931 . S
H762 C777 0.930 . S
C763 H751 0.930 . S
C763 C764 1.399 1_545 S
C763 C768 1.399 . S
C764 C763 1.399 1_565 S
C764 C765 1.376 . S
C765 H752 0.930 . S
C765 C764 1.376 . S
C765 C766 1.388 . S
C766 H753 0.930 . S
C766 C765 1.388 . S
C766 C767 1.390 . S
C767 C766 1.390 . S
C767 C768 1.394 1_565 S
C767 C773 1.465 . S
C768 C763 1.399 . S
C768 C767 1.394 1_545 S
C768 C769 1.516 . S
C769 C768 1.516 . S
C769 C770 1.502 . S
C769 C771 1.561 . S
C769 C772 1.526 . S
C770 H754 0.959 . S
C770 H755 0.959 . S
C770 H756 0.961 . S
C770 C769 1.502 . S
C771 H757 0.960 . S
C771 H758 0.961 . S
C771 H759 0.959 . S
C771 C769 1.561 . S
C772 C769 1.526 . S
C772 C773 1.396 1_545 S
C772 C777 1.390 . S
C773 C767 1.465 . S
C773 C772 1.396 1_565 S
C773 C774 1.399 . S
C774 H760 0.929 . S
C774 C773 1.399 . S
C774 C775 1.385 . S
C775 H761 0.931 . S
C775 C774 1.385 . S
C775 C776 1.389 1_565 S
C776 C775 1.389 1_545 S
C776 C777 1.387 . S
C777 H762 0.930 . S
C777 C772 1.390 . S
C777 C776 1.387 . S
H778 C790 0.930 . S
H779 C792 0.930 . S
H780 C793 0.930 . S
H781 C797 0.959 . S
H782 C797 0.959 . S
H783 C797 0.961 . S
H784 C798 0.960 . S
H785 C798 0.961 . S
H786 C798 0.959 . S
H787 C801 0.929 . S
H788 C802 0.931 . S
H789 C804 0.930 . S
C790 H778 0.930 . S
C790 C791 1.399 . S
C790 C795 1.399 . S
C791 C790 1.399 . S
C791 C792 1.376 . S
C792 H779 0.930 . S
C792 C791 1.376 . S
C792 C793 1.388 . S
C793 H780 0.930 . S
C793 C792 1.388 . S
C793 C794 1.390 . S
C794 C793 1.390 . S
C794 C795 1.394 . S
C794 C800 1.465 . S
C795 C790 1.399 . S
C795 C794 1.394 . S
C795 C796 1.516 . S
C796 C795 1.516 . S
C796 C797 1.502 . S
C796 C798 1.561 . S
C796 C799 1.526 . S
C797 H781 0.959 . S
C797 H782 0.959 . S
C797 H783 0.961 . S
C797 C796 1.502 . S
C798 H784 0.960 . S
C798 H785 0.961 . S
C798 H786 0.959 . S
C798 C796 1.561 . S
C799 C796 1.526 . S
C799 C800 1.396 . S
C799 C804 1.390 . S
C800 C794 1.465 . S
C800 C799 1.396 . S
C800 C801 1.399 . S
C801 H787 0.929 . S
C801 C800 1.399 . S
C801 C802 1.385 . S
C802 H788 0.931 . S
C802 C801 1.385 . S
C802 C803 1.389 . S
C803 C802 1.389 . S
C803 C804 1.387 . S
C804 H789 0.930 . S
C804 C799 1.390 . S
C804 C803 1.387 . S
H805 C817 0.930 . S
H806 C819 0.930 . S
H807 C820 0.930 . S
H808 C824 0.959 . S
H809 C824 0.959 . S
H810 C824 0.961 . S
H811 C825 0.960 . S
H812 C825 0.961 . S
H813 C825 0.959 . S
H814 C828 0.929 . S
H815 C829 0.931 . S
H816 C831 0.930 . S
C817 H805 0.930 . S
C817 C818 1.399 . S
C817 C822 1.399 . S
C818 C817 1.399 . S
C818 C819 1.376 . S
C819 H806 0.930 . S
C819 C818 1.376 . S
C819 C820 1.388 . S
C820 H807 0.930 . S
C820 C819 1.388 . S
C820 C821 1.390 . S
C821 C820 1.390 . S
C821 C822 1.394 . S
C821 C827 1.465 . S
C822 C817 1.399 . S
C822 C821 1.394 . S
C822 C823 1.516 . S
C823 C822 1.516 . S
C823 C824 1.502 . S
C823 C825 1.561 . S
C823 C826 1.526 . S
C824 H808 0.959 . S
C824 H809 0.959 . S
C824 H810 0.961 . S
C824 C823 1.502 . S
C825 H811 0.960 . S
C825 H812 0.961 . S
C825 H813 0.959 . S
C825 C823 1.561 . S
C826 C823 1.526 . S
C826 C827 1.396 . S
C826 C831 1.390 . S
C827 C821 1.465 . S
C827 C826 1.396 . S
C827 C828 1.399 . S
C828 H814 0.929 . S
C828 C827 1.399 . S
C828 C829 1.385 . S
C829 H815 0.931 . S
C829 C828 1.385 . S
C829 C830 1.389 . S
C830 C829 1.389 . S
C830 C831 1.387 . S
C831 H816 0.930 . S
C831 C826 1.390 . S
C831 C830 1.387 . S
H832 C844 0.930 . S
H833 C846 0.930 . S
H834 C847 0.930 . S
H835 C851 0.959 1_554 S
H836 C851 0.959 . S
H837 C851 0.961 1_554 S
H838 C852 0.960 . S
H839 C852 0.961 . S
H840 C852 0.959 . S
H841 C855 0.929 . S
H842 C856 0.931 . S
H843 C858 0.930 . S
C844 H832 0.930 . S
C844 C845 1.399 . S
C844 C849 1.399 . S
C845 C844 1.399 . S
C845 C846 1.376 . S
C846 H833 0.930 . S
C846 C845 1.376 . S
C846 C847 1.388 . S
C847 H834 0.930 . S
C847 C846 1.388 . S
C847 C848 1.390 . S
C848 C847 1.390 . S
C848 C849 1.394 . S
C848 C854 1.465 . S
C849 C844 1.399 . S
C849 C848 1.394 . S
C849 C850 1.516 . S
C850 C849 1.516 . S
C850 C851 1.502 . S
C850 C852 1.561 . S
C850 C853 1.526 . S
C851 H835 0.959 1_556 S
C851 H836 0.959 . S
C851 H837 0.961 1_556 S
C851 C850 1.502 . S
C852 H838 0.960 . S
C852 H839 0.961 . S
C852 H840 0.959 . S
C852 C850 1.561 . S
C853 C850 1.526 . S
C853 C854 1.396 . S
C853 C858 1.390 . S
C854 C848 1.465 . S
C854 C853 1.396 . S
C854 C855 1.399 . S
C855 H841 0.929 . S
C855 C854 1.399 . S
C855 C856 1.385 . S
C856 H842 0.931 . S
C856 C855 1.385 . S
C856 C857 1.389 . S
C857 C856 1.389 . S
C857 C858 1.387 . S
C858 H843 0.930 . S
C858 C853 1.390 . S
C858 C857 1.387 . S
H859 C871 0.930 . S
H860 C873 0.930 . S
H861 C874 0.930 . S
H862 C878 0.959 . S
H863 C878 0.959 . S
H864 C878 0.961 . S
H865 C879 0.960 . S
H866 C879 0.961 . S
H867 C879 0.959 . S
H868 C882 0.929 . S
H869 C883 0.931 . S
H870 C885 0.930 . S
C871 H859 0.930 . S
C871 C872 1.399 . S
C871 C876 1.399 . S
C872 C871 1.399 . S
C872 C873 1.376 1_545 S
C873 H860 0.930 . S
C873 C872 1.376 1_565 S
C873 C874 1.388 . S
C874 H861 0.930 . S
C874 C873 1.388 . S
C874 C875 1.390 . S
C875 C874 1.390 . S
C875 C876 1.394 1_565 S
C875 C881 1.465 . S
C876 C871 1.399 . S
C876 C875 1.394 1_545 S
C876 C877 1.516 . S
C877 C876 1.516 . S
C877 C878 1.502 . S
C877 C879 1.561 . S
C877 C880 1.526 . S
C878 H862 0.959 . S
C878 H863 0.959 . S
C878 H864 0.961 . S
C878 C877 1.502 . S
C879 H865 0.960 . S
C879 H866 0.961 . S
C879 H867 0.959 . S
C879 C877 1.561 . S
C880 C877 1.526 . S
C880 C881 1.396 1_545 S
C880 C885 1.390 . S
C881 C875 1.465 . S
C881 C880 1.396 1_565 S
C881 C882 1.399 . S
C882 H868 0.929 . S
C882 C881 1.399 . S
C882 C883 1.385 . S
C883 H869 0.931 . S
C883 C882 1.385 . S
C883 C884 1.389 1_565 S
C884 C883 1.389 1_545 S
C884 C885 1.387 . S
C885 H870 0.930 . S
C885 C880 1.390 . S
C885 C884 1.387 . S
H886 C898 0.930 1_554 S
H887 C900 0.930 . S
H888 C901 0.930 . S
H889 C905 0.959 . S
H890 C905 0.959 . S
H891 C905 0.961 1_554 S
H892 C906 0.960 . S
H893 C906 0.961 . S
H894 C906 0.959 1_556 S
H895 C909 0.929 . S
H896 C910 0.931 . S
H897 C912 0.930 . S
C898 H886 0.930 1_556 S
C898 C899 1.399 . S
C898 C903 1.399 . S
C899 C898 1.399 . S
C899 C900 1.376 . S
C900 H887 0.930 . S
C900 C899 1.376 . S
C900 C901 1.388 . S
C901 H888 0.930 . S
C901 C900 1.388 . S
C901 C902 1.390 . S
C902 C901 1.390 . S
C902 C903 1.394 . S
C902 C908 1.465 . S
C903 C898 1.399 . S
C903 C902 1.394 . S
C903 C904 1.516 . S
C904 C903 1.516 . S
C904 C905 1.502 . S
C904 C906 1.561 1_556 S
C904 C907 1.526 . S
C905 H889 0.959 . S
C905 H890 0.959 . S
C905 H891 0.961 1_556 S
C905 C904 1.502 . S
C906 H892 0.960 . S
C906 H893 0.961 . S
C906 H894 0.959 1_554 S
C906 C904 1.561 1_554 S
C907 C904 1.526 . S
C907 C908 1.396 . S
C907 C912 1.390 . S
C908 C902 1.465 . S
C908 C907 1.396 . S
C908 C909 1.399 . S
C909 H895 0.929 . S
C909 C908 1.399 . S
C909 C910 1.385 . S
C910 H896 0.931 . S
C910 C909 1.385 . S
C910 C911 1.389 . S
C911 C910 1.389 . S
C911 C912 1.387 . S
C912 H897 0.930 . S
C912 C907 1.390 . S
C912 C911 1.387 . S
H913 C925 0.930 . S
H914 C927 0.930 . S
H915 C928 0.930 . S
H916 C932 0.959 . S
H917 C932 0.959 . S
H918 C932 0.961 . S
H919 C933 0.960 . S
H920 C933 0.961 . S
H921 C933 0.959 . S
H922 C936 0.929 . S
H923 C937 0.931 . S
H924 C939 0.930 . S
C925 H913 0.930 . S
C925 C926 1.399 . S
C925 C930 1.399 . S
C926 C925 1.399 . S
C926 C927 1.376 . S
C927 H914 0.930 . S
C927 C926 1.376 . S
C927 C928 1.388 . S
C928 H915 0.930 . S
C928 C927 1.388 . S
C928 C929 1.390 . S
C929 C928 1.390 . S
C929 C930 1.394 . S
C929 C935 1.465 . S
C930 C925 1.399 . S
C930 C929 1.394 . S
C930 C931 1.516 . S
C931 C930 1.516 . S
C931 C932 1.502 . S
C931 C933 1.561 . S
C931 C934 1.526 . S
C932 H916 0.959 . S
C932 H917 0.959 . S
C932 H918 0.961 . S
C932 C931 1.502 . S
C933 H919 0.960 . S
C933 H920 0.961 . S
C933 H921 0.959 . S
C933 C931 1.561 . S
C934 C931 1.526 . S
C934 C935 1.396 . S
C934 C939 1.390 . S
C935 C929 1.465 . S
C935 C934 1.396 . S
C935 C936 1.399 . S
C936 H922 0.929 . S
C936 C935 1.399 . S
C936 C937 1.385 . S
C937 H923 0.931 . S
C937 C936 1.385 . S
C937 C938 1.389 . S
C938 C937 1.389 . S
C938 C939 1.387 . S
C939 H924 0.930 . S
C939 C934 1.390 . S
C939 C938 1.387 . S
H940 C952 0.930 . S
H941 C954 0.930 . S
H942 C955 0.930 . S
H943 C959 0.959 . S
H944 C959 0.959 . S
H945 C959 0.961 . S
H946 C960 0.960 . S
H947 C960 0.961 . S
H948 C960 0.959 . S
H949 C963 0.929 . S
H950 C964 0.931 . S
H951 C966 0.930 . S
C952 H940 0.930 . S
C952 C953 1.399 . S
C952 C957 1.399 . S
C953 C952 1.399 . S
C953 C954 1.376 . S
C954 H941 0.930 . S
C954 C953 1.376 . S
C954 C955 1.388 . S
C955 H942 0.930 . S
C955 C954 1.388 . S
C955 C956 1.390 . S
C956 C955 1.390 . S
C956 C957 1.394 . S
C956 C962 1.465 . S
C957 C952 1.399 . S
C957 C956 1.394 . S
C957 C958 1.516 . S
C958 C957 1.516 . S
C958 C959 1.502 . S
C958 C960 1.561 . S
C958 C961 1.526 . S
C959 H943 0.959 . S
C959 H944 0.959 . S
C959 H945 0.961 . S
C959 C958 1.502 . S
C960 H946 0.960 . S
C960 H947 0.961 . S
C960 H948 0.959 . S
C960 C958 1.561 . S
C961 C958 1.526 . S
C961 C962 1.396 . S
C961 C966 1.390 . S
C962 C956 1.465 . S
C962 C961 1.396 . S
C962 C963 1.399 . S
C963 H949 0.929 . S
C963 C962 1.399 . S
C963 C964 1.385 . S
C964 H950 0.931 . S
C964 C963 1.385 . S
C964 C965 1.389 . S
C965 C964 1.389 . S
C965 C966 1.387 . S
C966 H951 0.930 . S
C966 C961 1.390 . S
C966 C965 1.387 . S
H967 C979 0.930 . S
H968 C981 0.930 . S
H969 C982 0.930 . S
H970 C986 0.959 . S
H971 C986 0.959 . S
H972 C986 0.961 . S
H973 C987 0.960 . S
H974 C987 0.961 . S
H975 C987 0.959 . S
H976 C990 0.929 . S
H977 C991 0.931 . S
H978 C993 0.930 . S
C979 H967 0.930 . S
C979 C980 1.399 1_545 S
C979 C984 1.399 . S
C980 C979 1.399 1_565 S
C980 C981 1.376 . S
C981 H968 0.930 . S
C981 C980 1.376 . S
C981 C982 1.388 . S
C982 H969 0.930 . S
C982 C981 1.388 . S
C982 C983 1.390 . S
C983 C982 1.390 . S
C983 C984 1.394 1_565 S
C983 C989 1.465 . S
C984 C979 1.399 . S
C984 C983 1.394 1_545 S
C984 C985 1.516 . S
C985 C984 1.516 . S
C985 C986 1.502 . S
C985 C987 1.561 . S
C985 C988 1.526 . S
C986 H970 0.959 . S
C986 H971 0.959 . S
C986 H972 0.961 . S
C986 C985 1.502 . S
C987 H973 0.960 . S
C987 H974 0.961 . S
C987 H975 0.959 . S
C987 C985 1.561 . S
C988 C985 1.526 . S
C988 C989 1.396 1_545 S
C988 C993 1.390 . S
C989 C983 1.465 . S
C989 C988 1.396 1_565 S
C989 C990 1.399 . S
C990 H976 0.929 . S
C990 C989 1.399 . S
C990 C991 1.385 . S
C991 H977 0.931 . S
C991 C990 1.385 . S
C991 C992 1.363 1_565 S
C992 C991 1.363 1_545 S
C992 C993 1.406 . S
C993 H978 0.930 . S
C993 C988 1.390 . S
C993 C992 1.406 . S
H994 C1006 0.930 . S
H995 C1008 0.930 . S
H996 C1009 0.930 . S
H997 C1013 0.959 . S
H998 C1013 0.959 . S
H999 C1013 0.961 . S
H1000 C1014 0.960 . S
H1001 C1014 0.961 . S
H1002 C1014 0.959 . S
H1003 C1017 0.929 . S
H1004 C1018 0.931 . S
H1005 C1020 0.930 . S
C1006 H994 0.930 . S
C1006 C1007 1.399 . S
C1006 C1011 1.399 . S
C1007 C1006 1.399 . S
C1007 C1008 1.376 . S
C1008 H995 0.930 . S
C1008 C1007 1.376 . S
C1008 C1009 1.388 . S
C1009 H996 0.930 . S
C1009 C1008 1.388 . S
C1009 C1010 1.390 . S
C1010 C1009 1.390 . S
C1010 C1011 1.394 . S
C1010 C1016 1.465 . S
C1011 C1006 1.399 . S
C1011 C1010 1.394 . S
C1011 C1012 1.516 . S
C1012 C1011 1.516 . S
C1012 C1013 1.502 . S
C1012 C1014 1.561 . S
C1012 C1015 1.526 . S
C1013 H997 0.959 . S
C1013 H998 0.959 . S
C1013 H999 0.961 . S
C1013 C1012 1.502 . S
C1014 H1000 0.960 . S
C1014 H1001 0.961 . S
C1014 H1002 0.959 . S
C1014 C1012 1.561 . S
C1015 C1012 1.526 . S
C1015 C1016 1.396 . S
C1015 C1020 1.390 . S
C1016 C1010 1.465 . S
C1016 C1015 1.396 . S
C1016 C1017 1.399 . S
C1017 H1003 0.929 . S
C1017 C1016 1.399 . S
C1017 C1018 1.385 . S
C1018 H1004 0.931 . S
C1018 C1017 1.385 . S
C1018 C1019 1.389 . S
C1019 C1018 1.389 . S
C1019 C1020 1.387 . S
C1020 H1005 0.930 . S
C1020 C1015 1.390 . S
C1020 C1019 1.387 . S
H1021 C1033 0.930 . S
H1022 C1035 0.930 . S
H1023 C1036 0.930 . S
H1024 C1040 0.959 . S
H1025 C1040 0.959 . S
H1026 C1040 0.961 . S
H1027 C1041 0.960 . S
H1028 C1041 0.961 . S
H1029 C1041 0.959 . S
H1030 C1044 0.929 . S
H1031 C1045 0.931 . S
H1032 C1047 0.930 . S
C1033 H1021 0.930 . S
C1033 C1034 1.399 . S
C1033 C1038 1.399 . S
C1034 C1033 1.399 . S
C1034 C1035 1.376 . S
C1035 H1022 0.930 . S
C1035 C1034 1.376 . S
C1035 C1036 1.388 . S
C1036 H1023 0.930 . S
C1036 C1035 1.388 . S
C1036 C1037 1.390 . S
C1037 C1036 1.390 . S
C1037 C1038 1.394 . S
C1037 C1043 1.465 . S
C1038 C1033 1.399 . S
C1038 C1037 1.394 . S
C1038 C1039 1.516 . S
C1039 C1038 1.516 . S
C1039 C1040 1.502 . S
C1039 C1041 1.561 . S
C1039 C1042 1.526 . S
C1040 H1024 0.959 . S
C1040 H1025 0.959 . S
C1040 H1026 0.961 . S
C1040 C1039 1.502 . S
C1041 H1027 0.960 . S
C1041 H1028 0.961 . S
C1041 H1029 0.959 . S
C1041 C1039 1.561 . S
C1042 C1039 1.526 . S
C1042 C1043 1.396 . S
C1042 C1047 1.390 . S
C1043 C1037 1.465 . S
C1043 C1042 1.396 . S
C1043 C1044 1.399 . S
C1044 H1030 0.929 . S
C1044 C1043 1.399 . S
C1044 C1045 1.385 . S
C1045 H1031 0.931 . S
C1045 C1044 1.385 . S
C1045 C1046 1.389 . S
C1046 C1045 1.389 . S
C1046 C1047 1.387 . S
C1047 H1032 0.930 . S
C1047 C1042 1.390 . S
C1047 C1046 1.387 . S
C413 C255 1.579 . S
C425 C321 1.546 1_545 S
C452 C356 2.401 . S
C440 C295 2.272 . S
C479 C361 1.438 . S
C467 C175 1.427 . S
C506 C381 2.059 . S
C494 C215 1.890 . S
C533 C329 1.570 . S
C521 C95 1.522 1_556 S
C548 C135 2.216 1_556 S
C560 C346 2.403 . S
C575 C15 1.433 . S
C587 C369 1.460 . S
C602 C55 1.921 . S
C614 C389 2.056 . S
C641 C339 1.648 . S
C629 C221 1.500 . S
C668 C348 0.618 1_545 S
C656 C261 0.723 . S
C695 C379 1.806 . S
C683 C301 1.675 . S
C710 C181 0.815 . S
C722 C399 0.963 . S
C737 C61 1.352 . S
C749 C328 1.639 . S
C776 C359 0.735 . S
C764 C101 0.771 1_565 S
C803 C368 1.806 . S
C791 C141 1.504 . S
C818 C21 0.906 . S
C830 C388 0.944 . S
C845 C202 2.321 1_556 S
C857 C326 2.396 . S
C872 C242 1.880 . S
C884 C349 2.031 . S
C911 C366 2.609 . S
C899 C282 2.479 . S
C938 C386 2.252 . S
C926 C162 2.063 1_556 S
C953 C42 2.204 . S
C965 C336 2.398 . S
C992 C341 2.044 . S
C980 C82 1.867 1_565 S
C1019 C376 2.600 . S
C1007 C122 2.282 . S
C1034 C2 2.107 . S
C1046 C396 2.246 . S
