# Generated by pormake.
# Topology eea, (3,6)-cn, num edge types: 1
# Building blocks:
#     Node 0, Type 0, BuildingBlock: WUSLED_clean_sbu_0, # of connection points: 3
#     Node 1, Type 0, BuildingBlock: WUSLED_clean_sbu_0, # of connection points: 3
#     Node 2, Type 0, BuildingBlock: WUSLED_clean_sbu_0, # of connection points: 3
#     Node 3, Type 0, BuildingBlock: WUSLED_clean_sbu_0, # of connection points: 3
#     Node 4, Type 0, BuildingBlock: WUSLED_clean_sbu_0, # of connection points: 3
#     Node 5, Type 0, BuildingBlock: WUSLED_clean_sbu_0, # of connection points: 3
#     Node 6, Type 0, BuildingBlock: WUSLED_clean_sbu_0, # of connection points: 3
#     Node 7, Type 0, BuildingBlock: WUSLED_clean_sbu_0, # of connection points: 3
#     Node 8, Type 0, BuildingBlock: WUSLED_clean_sbu_0, # of connection points: 3
#     Node 9, Type 0, BuildingBlock: WUSLED_clean_sbu_0, # of connection points: 3
#     Node 10, Type 0, BuildingBlock: WUSLED_clean_sbu_0, # of connection points: 3
#     Node 11, Type 0, BuildingBlock: WUSLED_clean_sbu_0, # of connection points: 3
#     Node 12, Type 0, BuildingBlock: WUSLED_clean_sbu_0, # of connection points: 3
#     Node 13, Type 0, BuildingBlock: WUSLED_clean_sbu_0, # of connection points: 3
#     Node 14, Type 0, BuildingBlock: WUSLED_clean_sbu_0, # of connection points: 3
#     Node 15, Type 0, BuildingBlock: WUSLED_clean_sbu_0, # of connection points: 3
#     Node 16, Type 0, BuildingBlock: WUSLED_clean_sbu_0, # of connection points: 3
#     Node 17, Type 0, BuildingBlock: WUSLED_clean_sbu_0, # of connection points: 3
#     Node 18, Type 1, BuildingBlock: CUKXOW_clean_sbu_0, # of connection points: 6
#     Node 19, Type 1, BuildingBlock: CUKXOW_clean_sbu_0, # of connection points: 6
#     Node 20, Type 1, BuildingBlock: CUKXOW_clean_sbu_0, # of connection points: 6
#     Node 21, Type 1, BuildingBlock: CUKXOW_clean_sbu_0, # of connection points: 6
#     Node 22, Type 1, BuildingBlock: CUKXOW_clean_sbu_0, # of connection points: 6
#     Node 23, Type 1, BuildingBlock: CUKXOW_clean_sbu_0, # of connection points: 6
#     Node 24, Type 1, BuildingBlock: CUKXOW_clean_sbu_0, # of connection points: 6
#     Node 25, Type 1, BuildingBlock: CUKXOW_clean_sbu_0, # of connection points: 6
#     Node 26, Type 1, BuildingBlock: CUKXOW_clean_sbu_0, # of connection points: 6
#     Edge 27, Type (0, 1), BuildingBlock: EZIPEK_clean_linker_0, # of connection points: 2
#     Edge 28, Type (0, 1), BuildingBlock: EZIPEK_clean_linker_0, # of connection points: 2
#     Edge 29, Type (0, 1), BuildingBlock: EZIPEK_clean_linker_0, # of connection points: 2
#     Edge 30, Type (0, 1), BuildingBlock: EZIPEK_clean_linker_0, # of connection points: 2
#     Edge 31, Type (0, 1), BuildingBlock: EZIPEK_clean_linker_0, # of connection points: 2
#     Edge 32, Type (0, 1), BuildingBlock: EZIPEK_clean_linker_0, # of connection points: 2
#     Edge 33, Type (0, 1), BuildingBlock: EZIPEK_clean_linker_0, # of connection points: 2
#     Edge 34, Type (0, 1), BuildingBlock: EZIPEK_clean_linker_0, # of connection points: 2
#     Edge 35, Type (0, 1), BuildingBlock: EZIPEK_clean_linker_0, # of connection points: 2
#     Edge 36, Type (0, 1), BuildingBlock: EZIPEK_clean_linker_0, # of connection points: 2
#     Edge 37, Type (0, 1), BuildingBlock: EZIPEK_clean_linker_0, # of connection points: 2
#     Edge 38, Type (0, 1), BuildingBlock: EZIPEK_clean_linker_0, # of connection points: 2
#     Edge 39, Type (0, 1), BuildingBlock: EZIPEK_clean_linker_0, # of connection points: 2
#     Edge 40, Type (0, 1), BuildingBlock: EZIPEK_clean_linker_0, # of connection points: 2
#     Edge 41, Type (0, 1), BuildingBlock: EZIPEK_clean_linker_0, # of connection points: 2
#     Edge 42, Type (0, 1), BuildingBlock: EZIPEK_clean_linker_0, # of connection points: 2
#     Edge 43, Type (0, 1), BuildingBlock: EZIPEK_clean_linker_0, # of connection points: 2
#     Edge 44, Type (0, 1), BuildingBlock: EZIPEK_clean_linker_0, # of connection points: 2
#     Edge 45, Type (0, 1), BuildingBlock: EZIPEK_clean_linker_0, # of connection points: 2
#     Edge 46, Type (0, 1), BuildingBlock: EZIPEK_clean_linker_0, # of connection points: 2
#     Edge 47, Type (0, 1), BuildingBlock: EZIPEK_clean_linker_0, # of connection points: 2
#     Edge 48, Type (0, 1), BuildingBlock: EZIPEK_clean_linker_0, # of connection points: 2
#     Edge 49, Type (0, 1), BuildingBlock: EZIPEK_clean_linker_0, # of connection points: 2
#     Edge 50, Type (0, 1), BuildingBlock: EZIPEK_clean_linker_0, # of connection points: 2
#     Edge 51, Type (0, 1), BuildingBlock: EZIPEK_clean_linker_0, # of connection points: 2
#     Edge 52, Type (0, 1), BuildingBlock: EZIPEK_clean_linker_0, # of connection points: 2
#     Edge 53, Type (0, 1), BuildingBlock: EZIPEK_clean_linker_0, # of connection points: 2
#     Edge 54, Type (0, 1), BuildingBlock: EZIPEK_clean_linker_0, # of connection points: 2
#     Edge 55, Type (0, 1), BuildingBlock: EZIPEK_clean_linker_0, # of connection points: 2
#     Edge 56, Type (0, 1), BuildingBlock: EZIPEK_clean_linker_0, # of connection points: 2
#     Edge 57, Type (0, 1), BuildingBlock: EZIPEK_clean_linker_0, # of connection points: 2
#     Edge 58, Type (0, 1), BuildingBlock: EZIPEK_clean_linker_0, # of connection points: 2
#     Edge 59, Type (0, 1), BuildingBlock: EZIPEK_clean_linker_0, # of connection points: 2
#     Edge 60, Type (0, 1), BuildingBlock: EZIPEK_clean_linker_0, # of connection points: 2
#     Edge 61, Type (0, 1), BuildingBlock: EZIPEK_clean_linker_0, # of connection points: 2
#     Edge 62, Type (0, 1), BuildingBlock: EZIPEK_clean_linker_0, # of connection points: 2
#     Edge 63, Type (0, 1), BuildingBlock: EZIPEK_clean_linker_0, # of connection points: 2
#     Edge 64, Type (0, 1), BuildingBlock: EZIPEK_clean_linker_0, # of connection points: 2
#     Edge 65, Type (0, 1), BuildingBlock: EZIPEK_clean_linker_0, # of connection points: 2
#     Edge 66, Type (0, 1), BuildingBlock: EZIPEK_clean_linker_0, # of connection points: 2
#     Edge 67, Type (0, 1), BuildingBlock: EZIPEK_clean_linker_0, # of connection points: 2
#     Edge 68, Type (0, 1), BuildingBlock: EZIPEK_clean_linker_0, # of connection points: 2
#     Edge 69, Type (0, 1), BuildingBlock: EZIPEK_clean_linker_0, # of connection points: 2
#     Edge 70, Type (0, 1), BuildingBlock: EZIPEK_clean_linker_0, # of connection points: 2
#     Edge 71, Type (0, 1), BuildingBlock: EZIPEK_clean_linker_0, # of connection points: 2
#     Edge 72, Type (0, 1), BuildingBlock: EZIPEK_clean_linker_0, # of connection points: 2
#     Edge 73, Type (0, 1), BuildingBlock: EZIPEK_clean_linker_0, # of connection points: 2
#     Edge 74, Type (0, 1), BuildingBlock: EZIPEK_clean_linker_0, # of connection points: 2
#     Edge 75, Type (0, 1), BuildingBlock: EZIPEK_clean_linker_0, # of connection points: 2
#     Edge 76, Type (0, 1), BuildingBlock: EZIPEK_clean_linker_0, # of connection points: 2
#     Edge 77, Type (0, 1), BuildingBlock: EZIPEK_clean_linker_0, # of connection points: 2
#     Edge 78, Type (0, 1), BuildingBlock: EZIPEK_clean_linker_0, # of connection points: 2
#     Edge 79, Type (0, 1), BuildingBlock: EZIPEK_clean_linker_0, # of connection points: 2
#     Edge 80, Type (0, 1), BuildingBlock: EZIPEK_clean_linker_0, # of connection points: 2
# Relax obj value: 0.018
# Max RMSD: 0.122
# Mean RMSD: 0.058
data_MOF--net-eea--node1-WUSLED_clean_sbu_0--node2-CUKXOW_clean_sbu_0--edge1-EZIPEK_clean_linker_0
_symmetry_space_group_name_H-M    P1
_symmetry_Int_Tables_number       1
_symmetry_cell_setting            triclinic
loop_
_symmetry_equiv_pos_as_xyz
'x, y, z'
_cell_length_a     57.434615
_cell_length_b     54.238539
_cell_length_c     59.671379
_cell_angle_alpha  92.787063
_cell_angle_beta   92.941168
_cell_angle_gamma 119.98684
loop_
_atom_site_label
_atom_site_type_symbol
_atom_site_fract_x
_atom_site_fract_y
_atom_site_fract_z
_atom_type_partial_charge
C0 C 0.23108 0.18449 0.41637 0.0
C1 C 0.25254 0.21222 0.41406 0.0
C2 C 0.22107 0.22611 0.39845 0.0
C3 C 0.24755 0.23283 0.4052 0.0
C4 C 0.19966 0.1986 0.40099 0.0
C5 C 0.20462 0.17801 0.40979 0.0
U6 U 0.25518 0.14591 0.4576 0.0
O7 O 0.23456 0.09988 0.46251 0.0
O8 O 0.27438 0.12061 0.44933 0.0
C9 C 0.25362 0.0965 0.45419 0.0
C10 C 0.2357 0.16122 0.42344 0.0
C11 C 0.2447 0.07099 0.43821 0.0
C12 C 0.24152 0.04842 0.40089 0.0
C13 C 0.24793 0.07288 0.41501 0.0
C14 C 0.22788 0.01985 0.43279 0.0
C15 C 0.23176 0.02177 0.40977 0.0
C16 C 0.23425 0.04419 0.44683 0.0
C17 C 0.28802 0.17883 0.51788 0.0
C18 C 0.31431 0.16487 0.54197 0.0
C19 C 0.29749 0.19415 0.55808 0.0
C20 C 0.28568 0.1937 0.53678 0.0
C21 C 0.31198 0.17978 0.56089 0.0
C22 C 0.30241 0.16433 0.52068 0.0
C23 C 0.27568 0.17912 0.49551 0.0
O24 O 0.26075 0.1666 0.42588 0.0
O25 O 0.22085 0.14558 0.43888 0.0
O26 O 0.24984 0.1605 0.49115 0.0
O27 O 0.28971 0.18139 0.4782 0.0
H28 H 0.27319 0.21791 0.41876 0.0
H29 H 0.26436 0.25396 0.40342 0.0
H30 H 0.17909 0.19298 0.39594 0.0
H31 H 0.18773 0.15676 0.41106 0.0
H32 H 0.24483 0.05037 0.3832 0.0
H33 H 0.25598 0.0933 0.40793 0.0
H34 H 0.22054 0.99957 0.43999 0.0
H35 H 0.23167 0.0422 0.46465 0.0
H36 H 0.32523 0.15347 0.54375 0.0
H37 H 0.2953 0.20568 0.57239 0.0
H38 H 0.27469 0.20504 0.53504 0.0
H39 H 0.30443 0.15261 0.50642 0.0
C40 C 0.94435 0.17415 0.42092 0.0
C41 C 0.96412 0.1962 0.43595 0.0
C42 C 0.992 0.21928 0.40482 0.0
C43 C 0.98791 0.21789 0.42816 0.0
C44 C 0.97308 0.19493 0.39056 0.0
C45 C 0.94944 0.17329 0.39832 0.0
U46 U 0.88773 0.13811 0.4619 0.0
O47 O 0.84386 0.11317 0.45273 0.0
O48 O 0.86453 0.09252 0.46791 0.0
C49 C 0.8417 0.08922 0.45884 0.0
C50 C 0.91872 0.15119 0.42819 0.0
C51 C 0.82516 0.06343 0.44318 0.0
C52 C 0.81707 0.03472 0.40782 0.0
C53 C 0.83308 0.06001 0.42188 0.0
C54 C 0.78502 0.01634 0.43605 0.0
C55 C 0.79297 1.01263 0.41489 0.0
C56 C 0.80093 0.04151 0.45002 0.0
C57 C 0.89076 0.17471 0.52065 0.0
C58 C 0.88119 0.16058 0.55893 0.0
C59 C 0.87538 0.19904 0.54634 0.0
C60 C 0.88364 0.19568 0.52524 0.0
C61 C 0.87425 0.18166 0.56343 0.0
C62 C 0.88938 0.15713 0.53779 0.0
C63 C 0.90142 0.17309 0.49867 0.0
O64 O 0.92045 0.13705 0.44487 0.0
O65 O 0.89909 0.15688 0.42948 0.0
O66 O 0.8885 0.17477 0.48049 0.0
O67 O 0.90937 0.15433 0.49567 0.0
H68 H 0.96135 0.19648 0.45376 0.0
H69 H 1.00298 0.23276 0.44095 0.0
H70 H 0.97635 0.19196 0.37322 0.0
H71 H 0.93513 0.15561 0.38656 0.0
H72 H 0.82368 0.03215 0.39164 0.0
H73 H 0.85173 0.07667 0.4163 0.0
H74 H 0.76666 0.9995 0.4419 0.0
H75 H 0.79446 0.04371 0.46637 0.0
H76 H 0.88049 0.14695 0.57187 0.0
H77 H 0.87013 0.21543 0.54943 0.0
H78 H 0.88481 0.2098 0.51256 0.0
H79 H 0.89494 0.14094 0.53501 0.0
C80 C 0.86598 0.7885 0.42013 0.0
C81 C 0.83999 0.77194 0.42721 0.0
C82 C 0.8238 0.79743 0.40464 0.0
C83 C 0.81899 0.77632 0.41944 0.0
C84 C 0.84983 0.81409 0.39774 0.0
C85 C 0.87074 0.80962 0.40542 0.0
U86 U 0.9006 0.76268 0.46199 0.0
O87 O 0.9248 0.74229 0.45583 0.0
O88 O 0.94342 0.78418 0.47504 0.0
C89 C 0.94724 0.76444 0.46521 0.0
C90 C 0.88845 0.78433 0.42789 0.0
C91 C 0.97094 0.77494 0.45195 0.0
C92 C 0.99129 0.786 0.41628 0.0
C93 C 0.96862 0.77666 0.42858 0.0
C94 C 0.01897 0.79259 0.45059 0.0
C95 C 1.01659 0.79391 0.42721 0.0
C96 C 0.9963 0.78313 0.46285 0.0
C97 C 0.86361 0.72775 0.51444 0.0
C98 C 0.86725 0.69468 0.5387 0.0
C99 C 0.84926 0.72402 0.55238 0.0
C100 C 0.85273 0.73607 0.53178 0.0
C101 C 0.85652 0.70331 0.55604 0.0
C102 C 0.87084 0.70688 0.51801 0.0
C103 C 0.86633 0.74078 0.49282 0.0
O104 O 0.90263 0.79965 0.44648 0.0
O105 O 0.88328 0.75777 0.42718 0.0
O106 O 0.86584 0.72587 0.47456 0.0
O107 O 0.88429 0.76811 0.49328 0.0
H108 H 0.83595 0.75563 0.43868 0.0
H109 H 0.79901 0.76327 0.42492 0.0
H110 H 0.8539 0.83045 0.38634 0.0
H111 H 0.89067 0.82266 0.39984 0.0
H112 H 0.98911 0.78692 0.39825 0.0
H113 H 0.94927 0.77061 0.41984 0.0
H114 H 0.03834 0.79861 0.45928 0.0
H115 H 0.99854 0.78204 0.48085 0.0
H116 H 0.87307 0.67881 0.54129 0.0
H117 H 0.84104 0.731 0.56558 0.0
H118 H 0.84689 0.75198 0.52938 0.0
H119 H 0.87927 0.70007 0.5049 0.0
C120 C 0.0822 0.24222 0.6181 0.0
C121 C 0.07788 0.2647 0.62503 0.0
C122 C 0.03263 0.23056 0.6344 0.0
C123 C 0.05329 0.25889 0.63312 0.0
C124 C 0.03668 0.20813 0.62708 0.0
C125 C 0.06125 0.21391 0.61908 0.0
U126 U 0.14196 0.27153 0.5802 0.0
O127 O 0.18551 0.29119 0.58992 0.0
O128 O 0.16424 0.2508 0.56856 0.0
C129 C 0.18695 0.26989 0.57998 0.0
C130 C 0.10878 0.24751 0.61145 0.0
C131 C 0.20116 0.25854 0.59345 0.0
C132 C 0.20204 0.22759 0.62129 0.0
C133 C 0.18806 0.23829 0.60898 0.0
C134 C 0.2423 0.25741 0.6028 0.0
C135 C 0.22928 0.23711 0.61827 0.0
C136 C 0.22834 0.26802 0.59049 0.0
C137 C 0.14114 0.31053 0.52807 0.0
C138 C 0.17879 0.33613 0.50522 0.0
C139 C 0.13318 0.32094 0.49021 0.0
C140 C 0.12344 0.30931 0.5104 0.0
C141 C 0.16085 0.33415 0.48736 0.0
C142 C 0.16897 0.32426 0.52547 0.0
C143 C 0.12977 0.2963 0.54852 0.0
O144 O 0.10843 0.23344 0.59274 0.0
O145 O 0.12904 0.27401 0.61394 0.0
O146 O 0.14303 0.30974 0.56797 0.0
O147 O 0.12102 0.26875 0.5474 0.0
H148 H 0.0936 0.28676 0.62461 0.0
H149 H 0.0505 0.27647 0.63874 0.0
H150 H 0.02101 0.18615 0.62801 0.0
H151 H 0.0641 0.19619 0.61407 0.0
H152 H 0.19169 0.21193 0.63315 0.0
H153 H 0.16709 0.23075 0.6115 0.0
H154 H 0.26328 0.26498 0.60026 0.0
H155 H 0.23877 0.28361 0.57859 0.0
H156 H 0.20016 0.34596 0.50321 0.0
H157 H 0.11903 0.31899 0.47655 0.0
H158 H 0.10193 0.29877 0.51204 0.0
H159 H 0.18298 0.32529 0.53886 0.0
C160 C 0.79746 0.84473 0.63296 0.0
C161 C 0.81051 0.83346 0.62024 0.0
C162 C 0.80718 0.8023 0.64963 0.0
C163 C 0.8153 0.81243 0.62851 0.0
C164 C 0.79367 0.81311 0.6621 0.0
C165 C 0.78892 0.83413 0.65386 0.0
U166 U 0.77784 0.88614 0.59105 0.0
O167 O 0.75809 0.91132 0.5984 0.0
O168 O 0.79902 0.93237 0.58738 0.0
C169 C 0.77925 0.93555 0.59435 0.0
C170 C 0.79429 0.8689 0.6259 0.0
C171 C 0.78684 0.96088 0.61013 0.0
C172 C 0.81623 0.99676 0.64038 0.0
C173 C 0.80794 0.97096 0.62736 0.0
C174 C 0.78206 1.00227 0.61954 0.0
C175 C 0.80359 1.01282 0.63631 0.0
C176 C 0.77375 0.97656 0.60663 0.0
C177 C 0.74832 0.85496 0.52942 0.0
C178 C 0.71375 0.85537 0.50408 0.0
C179 C 0.74946 0.85044 0.48858 0.0
C180 C 0.76049 0.85179 0.51046 0.0
C181 C 0.72584 0.85196 0.48518 0.0
C182 C 0.72485 0.85688 0.52596 0.0
C183 C 0.75944 0.85435 0.55238 0.0
O184 O 0.81044 0.88506 0.61131 0.0
O185 O 0.76951 0.864 0.6223 0.0
O186 O 0.7444 0.85134 0.56909 0.0
O187 O 0.78517 0.87271 0.55784 0.0
H188 H 0.8174 0.84121 0.6041 0.0
H189 H 0.8257 0.80434 0.61859 0.0
H190 H 0.78717 0.80558 0.67838 0.0
H191 H 0.779 0.84255 0.66408 0.0
H192 H 0.833 1.00463 0.65316 0.0
H193 H 0.81841 0.9593 0.63035 0.0
H194 H 0.77214 1.01438 0.61604 0.0
H195 H 0.75754 0.9693 0.59339 0.0
H196 H 0.69561 0.85676 0.50186 0.0
H197 H 0.75923 0.84798 0.47429 0.0
H198 H 0.77844 0.85004 0.51257 0.0
H199 H 0.71487 0.85926 0.54012 0.0
C200 C 0.08276 0.84876 0.62719 0.0
C201 C 0.05845 0.83473 0.61321 0.0
C202 C 0.03376 0.81031 0.64483 0.0
C203 C 0.03416 0.81565 0.62197 0.0
C204 C 0.05812 0.82376 0.65861 0.0
C205 C 0.08234 0.84278 0.64987 0.0
U206 U 0.13897 0.88456 0.58553 0.0
O207 O 0.16066 0.92996 0.57854 0.0
O208 O 0.18281 0.91108 0.59415 0.0
C209 C 0.18391 0.93444 0.58767 0.0
C210 C 0.10827 0.87153 0.61941 0.0
C211 C 0.19999 0.9608 0.60292 0.0
C212 C 0.21475 0.9864 0.64033 0.0
C213 C 0.19778 0.96135 0.62629 0.0
C214 C 0.23582 1.01066 0.60779 0.0
C215 C 0.23407 1.01119 0.63116 0.0
C216 C 0.21893 0.98575 0.59383 0.0
C217 C 0.13599 0.8471 0.52762 0.0
C218 C 0.17232 0.86487 0.50272 0.0
C219 C 0.12853 0.82455 0.48949 0.0
C220 C 0.11902 0.82609 0.51042 0.0
C221 C 0.15527 0.84395 0.48542 0.0
C222 C 0.16278 0.86646 0.52362 0.0
C223 C 0.1253 0.84843 0.54946 0.0
O224 O 0.12824 0.86634 0.61832 0.0
O225 O 0.10629 0.88542 0.60263 0.0
O226 O 0.11693 0.86687 0.55197 0.0
O227 O 0.13918 0.84819 0.56759 0.0
H228 H 0.0581 0.83897 0.59568 0.0
H229 H 1.01558 0.8055 0.61105 0.0
H230 H 0.05828 0.82002 0.67627 0.0
H231 H 0.10074 0.85347 0.66104 0.0
H232 H 0.21319 0.98631 0.65834 0.0
H233 H 0.18333 0.94235 0.63369 0.0
H234 H 0.25065 0.02946 0.60039 0.0
H235 H 0.22103 0.9858 0.57588 0.0
H236 H 0.19294 0.88024 0.49988 0.0
H237 H 0.11494 0.80848 0.47636 0.0
H238 H 0.09827 0.81098 0.51312 0.0
H239 H 0.17622 0.88289 0.5366 0.0
C240 C 0.90919 0.51899 0.74458 0.0
C241 C 0.89931 0.53325 0.75799 0.0
C242 C 0.89724 0.55908 0.72624 0.0
C243 C 0.89344 0.55318 0.74889 0.0
C244 C 0.9077 0.54537 0.71307 0.0
C245 C 0.91358 0.52556 0.72214 0.0
U246 U 0.93301 0.4807 0.78657 0.0
O247 O 0.91093 0.43519 0.79329 0.0
O248 O 0.94955 0.45283 0.77826 0.0
C249 C 0.92869 0.42989 0.78458 0.0
C250 C 0.91274 0.49541 0.75253 0.0
C251 C 0.91798 0.40329 0.76955 0.0
C252 C 0.9055 0.37734 0.7323 0.0
C253 C 0.91372 0.40263 0.74604 0.0
C254 C 0.90518 0.35307 0.76539 0.0
C255 C 0.90144 0.35244 0.7419 0.0
C256 C 0.91331 0.37821 0.77906 0.0
C257 C 0.97085 0.51756 0.84515 0.0
C258 C 0.99136 0.49957 0.87174 0.0
C259 C 0.98607 0.5397 0.88357 0.0
C260 C 0.97445 0.53842 0.86202 0.0
C261 C 0.99446 0.5202 0.88871 0.0
C262 C 0.97961 0.49824 0.85009 0.0
C263 C 0.95752 0.51634 0.82284 0.0
O264 O 0.93733 0.4994 0.75387 0.0
O265 O 0.89882 0.48177 0.76914 0.0
O266 O 0.9313 0.4988 0.81995 0.0
O267 O 0.96994 0.51584 0.80507 0.0
H268 H 0.89559 0.52857 0.77531 0.0
H269 H 0.88541 0.56355 0.75934 0.0
H270 H 0.9108 0.54959 0.69559 0.0
H271 H 0.92095 0.51475 0.71138 0.0
H272 H 0.90286 0.37733 0.7142 0.0
H273 H 0.91725 0.42174 0.73833 0.0
H274 H 0.90227 0.33417 0.77313 0.0
H275 H 0.91654 0.37823 0.79711 0.0
H276 H 0.99733 0.48406 0.87543 0.0
H277 H 0.98794 0.55552 0.89646 0.0
H278 H 0.96784 0.5535 0.85861 0.0
H279 H 0.97697 0.4819 0.83737 0.0
C280 C 0.6203 0.50607 0.75353 0.0
C281 C 0.63768 0.5324 0.76589 0.0
C282 C 0.66989 0.54543 0.73721 0.0
C283 C 0.66234 0.55195 0.75778 0.0
C284 C 0.65244 0.51911 0.72497 0.0
C285 C 0.62794 0.49967 0.73305 0.0
U286 U 0.56269 0.47227 0.79456 0.0
O287 O 0.51886 0.44907 0.78477 0.0
O288 O 0.53784 0.42661 0.79972 0.0
C289 C 0.51555 0.42454 0.7906 0.0
C290 C 0.594 0.48477 0.76107 0.0
C291 C 0.49831 0.39906 0.77479 0.0
C292 C 0.49087 0.36788 0.74107 0.0
C293 C 0.50742 0.39328 0.75486 0.0
C294 C 0.45591 0.35414 0.76674 0.0
C295 C 0.46508 0.34798 0.74707 0.0
C296 C 0.47234 0.37945 0.78042 0.0
C297 C 0.56575 0.50667 0.85416 0.0
C298 C 0.54791 0.5286 0.87968 0.0
C299 C 0.55555 0.49123 0.89206 0.0
C300 C 0.56489 0.48912 0.87116 0.0
C301 C 0.54695 0.51097 0.89651 0.0
C302 C 0.55729 0.52655 0.8588 0.0
C303 C 0.57691 0.50585 0.83222 0.0
O304 O 0.59453 0.46952 0.77734 0.0
O305 O 0.57573 0.49244 0.76285 0.0
O306 O 0.56488 0.50908 0.81416 0.0
O307 O 0.58398 0.48647 0.82857 0.0
H308 H 0.63219 0.53779 0.78172 0.0
H309 H 0.67554 0.57211 0.76752 0.0
H310 H 0.65783 0.51359 0.70913 0.0
H311 H 0.61486 0.47952 0.72323 0.0
H312 H 0.49841 0.36339 0.72606 0.0
H313 H 0.52742 0.40811 0.75023 0.0
H314 H 0.43621 0.33902 0.77176 0.0
H315 H 0.46494 0.38345 0.79572 0.0
H316 H 0.54133 0.54393 0.88271 0.0
H317 H 0.55497 0.4774 0.90479 0.0
H318 H 0.57153 0.47381 0.86839 0.0
H319 H 0.55806 0.54069 0.84628 0.0
C320 C 0.533 0.11912 0.755 0.0
C321 C 0.50562 0.09796 0.75471 0.0
C322 C 0.49215 0.13077 0.74064 0.0
C323 C 0.48535 0.10375 0.74749 0.0
C324 C 0.51941 0.15202 0.74128 0.0
C325 C 0.53966 0.14621 0.74835 0.0
U326 U 0.56701 0.09007 0.79451 0.0
O327 O 0.58939 0.06797 0.78653 0.0
O328 O 0.60988 0.10937 0.80654 0.0
C329 C 0.61245 0.08916 0.79591 0.0
C330 C 0.55495 0.11345 0.76167 0.0
C331 C 0.63568 0.09896 0.78215 0.0
C332 C 0.66309 0.12823 0.75361 0.0
C333 C 0.6405 0.11872 0.76607 0.0
C334 C 0.67607 0.09807 0.77289 0.0
C335 C 0.68108 0.11804 0.757 0.0
C336 C 0.65356 0.08864 0.78537 0.0
C337 C 0.5297 0.05603 0.84752 0.0
C338 C 0.53495 0.02525 0.8733 0.0
C339 C 0.51249 0.05107 0.88443 0.0
C340 C 0.51631 0.06269 0.86365 0.0
C341 C 0.52193 0.03246 0.88953 0.0
C342 C 0.53887 0.03702 0.85239 0.0
C343 C 0.53332 0.06927 0.82595 0.0
O344 O 0.57031 0.12819 0.78001 0.0
O345 O 0.54892 0.08658 0.76025 0.0
O346 O 0.53198 0.05399 0.80759 0.0
O347 O 0.5523 0.09623 0.82648 0.0
H348 H 0.49986 0.07693 0.75985 0.0
H349 H 0.46439 0.08711 0.74709 0.0
H350 H 0.525 0.17297 0.73601 0.0
H351 H 0.56059 0.16283 0.74843 0.0
H352 H 0.66663 0.14364 0.74142 0.0
H353 H 0.62691 0.1269 0.76328 0.0
H354 H 0.68972 0.08999 0.77576 0.0
H355 H 0.6502 0.07339 0.79767 0.0
H356 H 0.54257 1.01109 0.87703 0.0
H357 H 0.50258 0.05703 0.89677 0.0
H358 H 0.50898 0.07718 0.86022 0.0
H359 H 0.54924 0.03155 0.84019 0.0
C360 C 0.74899 0.57763 0.95378 0.0
C361 C 0.72974 0.55003 0.95875 0.0
C362 C 0.69903 0.56663 0.96848 0.0
C363 C 0.70494 0.54456 0.96598 0.0
C364 C 0.71799 0.59416 0.96316 0.0
C365 C 0.7428 0.59964 0.95582 0.0
U366 U 0.80855 0.60536 0.91605 0.0
O367 O 0.85211 0.62638 0.92578 0.0
O368 O 0.83154 0.58458 0.90626 0.0
C369 C 0.85393 0.60453 0.91753 0.0
C370 C 0.77569 0.58294 0.94772 0.0
C371 C 0.86783 0.59429 0.93263 0.0
C372 C 0.87886 0.58461 0.96991 0.0
C373 C 0.8648 0.59367 0.95587 0.0
C374 C 0.89857 0.57603 0.9376 0.0
C375 C 0.89592 0.57586 0.96084 0.0
C376 C 0.88465 0.58523 0.92361 0.0
C377 C 0.80707 0.64029 0.86189 0.0
C378 C 0.84411 0.66061 0.83779 0.0
C379 C 0.79994 0.65212 0.82436 0.0
C380 C 0.79015 0.64174 0.84488 0.0
C381 C 0.82686 0.66128 0.82055 0.0
C382 C 0.83423 0.65006 0.85835 0.0
C383 C 0.79555 0.62728 0.88264 0.0
O384 O 0.77557 0.5679 0.92972 0.0
O385 O 0.79553 0.60965 0.94934 0.0
O386 O 0.80859 0.64207 0.90177 0.0
O387 O 0.78745 0.59995 0.88276 0.0
H388 H 0.73408 0.53276 0.9574 0.0
H389 H 0.69055 0.52321 0.97005 0.0
H390 H 0.71372 0.61144 0.96501 0.0
H391 H 0.75723 0.62112 0.95209 0.0
H392 H 0.87659 0.58455 0.98782 0.0
H393 H 0.85176 0.60038 0.96316 0.0
H394 H 0.91165 0.56935 0.93036 0.0
H395 H 0.88718 0.58547 0.90574 0.0
H396 H 0.86488 0.66739 0.83505 0.0
H397 H 0.78633 0.65231 0.8112 0.0
H398 H 0.76914 0.63424 0.84728 0.0
H399 H 0.84757 0.64895 0.87126 0.0
C400 C 0.46888 0.18559 0.96441 0.0
C401 C 0.4545 0.15778 0.95394 0.0
C402 C 0.47228 0.14013 0.98386 0.0
C403 C 0.45683 0.13562 0.96308 0.0
C404 C 0.48931 0.1691 0.99221 0.0
C405 C 0.48706 0.19121 0.98308 0.0
U406 U 0.44659 0.22378 0.92154 0.0
O407 O 0.42629 0.24837 0.92871 0.0
O408 O 0.46667 0.26972 0.91666 0.0
C409 C 0.44684 0.2726 0.92385 0.0
C410 C 0.46507 0.20902 0.95673 0.0
C411 C 0.45448 0.29817 0.9393 0.0
C412 C 0.47802 0.32954 0.97344 0.0
C413 C 0.46996 0.30409 0.95997 0.0
C414 C 0.45482 0.34302 0.94596 0.0
C415 C 0.47071 0.34933 0.96638 0.0
C416 C 0.44675 0.31768 0.9326 0.0
C417 C 0.41515 0.18976 0.86081 0.0
C418 C 0.41857 0.20738 0.82347 0.0
C419 C 0.37699 0.16628 0.83208 0.0
C420 C 0.38853 0.16815 0.85385 0.0
C421 C 0.3919 0.18585 0.81667 0.0
C422 C 0.4301 0.20934 0.84529 0.0
C423 C 0.42727 0.19034 0.88369 0.0
O424 O 0.4804 0.22417 0.94132 0.0
O425 O 0.44004 0.20344 0.95343 0.0
O426 O 0.41264 0.18781 0.90061 0.0
O427 O 0.45303 0.20906 0.8886 0.0
H428 H 0.44143 0.15315 0.93868 0.0
H429 H 0.44668 0.11533 0.95322 0.0
H430 H 0.50476 0.17526 1.00586 0.0
H431 H 0.49951 0.21284 0.99081 0.0
H432 H 0.49049 0.33415 0.98905 0.0
H433 H 0.47618 0.28934 0.96544 0.0
H434 H 0.44914 0.35805 0.94012 0.0
H435 H 0.43485 0.31357 0.91673 0.0
H436 H 0.43043 0.22275 0.81189 0.0
H437 H 0.35637 0.14958 0.82726 0.0
H438 H 0.37661 0.15255 0.86527 0.0
H439 H 0.45072 0.22612 0.84993 0.0
C440 C 0.74603 0.18791 0.95616 0.0
C441 C 0.74033 0.15977 0.95859 0.0
C442 C 0.69779 0.148 0.97394 0.0
C443 C 0.71642 0.14002 0.9674 0.0
C444 C 0.70315 0.17584 0.97108 0.0
C445 C 0.72706 0.19559 0.96235 0.0
U446 U 0.80496 0.22524 0.91705 0.0
O447 O 0.84866 0.24807 0.92744 0.0
O448 O 0.82984 0.27126 0.91344 0.0
C449 C 0.85177 0.27304 0.92315 0.0
C450 C 0.77264 0.21041 0.94979 0.0
C451 C 0.868 0.2972 0.94051 0.0
C452 C 0.87541 0.3395 0.96335 0.0
C453 C 0.85822 0.31444 0.9495 0.0
C454 C 0.91198 0.32975 0.96041 0.0
C455 C 0.90259 0.34766 0.96847 0.0
C456 C 0.89486 0.3048 0.94656 0.0
C457 C 0.80294 0.19355 0.85697 0.0
C458 C 0.84132 0.20463 0.83524 0.0
C459 C 0.79613 0.18016 0.81649 0.0
C460 C 0.7857 0.18098 0.8371 0.0
C461 C 0.82403 0.19179 0.81542 0.0
C462 C 0.8309 0.20556 0.85582 0.0
C463 C 0.79126 0.19321 0.87864 0.0
O464 O 0.79166 0.20381 0.94812 0.0
O465 O 0.77253 0.22678 0.93428 0.0
O466 O 0.78456 0.21281 0.8826 0.0
O467 O 0.80303 0.18932 0.89652 0.0
H468 H 0.75458 0.15317 0.9542 0.0
H469 H 0.71262 0.11862 0.96944 0.0
H470 H 0.68903 0.18241 0.976 0.0
H471 H 0.73105 0.21719 0.96097 0.0
H472 H 0.86788 0.35321 0.96919 0.0
H473 H 0.83762 0.30921 0.94515 0.0
H474 H 0.93295 0.33583 0.96396 0.0
H475 H 0.90296 0.29202 0.9398 0.0
H476 H 0.86291 0.2139 0.83475 0.0
H477 H 0.78245 0.17038 0.8014 0.0
H478 H 0.76409 0.17162 0.83755 0.0
H479 H 0.84466 0.2155 0.87085 0.0
C480 C 0.57061 0.85291 0.07911 0.0
C481 C 0.59191 0.8814 0.07984 0.0
C482 C 0.56143 0.89591 0.06309 0.0
C483 C 0.58733 0.90272 0.07189 0.0
C484 C 0.54022 0.86755 0.06243 0.0
C485 C 0.54478 0.84629 0.07028 0.0
U486 U 0.59484 0.81509 0.12059 0.0
O487 O 0.57332 0.76966 0.12746 0.0
O488 O 0.61223 0.78784 0.11284 0.0
C489 C 0.59146 0.76473 0.11908 0.0
C490 C 0.57469 0.82934 0.08622 0.0
C491 C 0.58118 0.73815 0.10412 0.0
C492 C 0.56842 0.71193 0.06698 0.0
C493 C 0.57649 0.73724 0.08064 0.0
C494 C 0.56911 0.68815 0.10011 0.0
C495 C 0.56493 0.68726 0.07664 0.0
C496 C 0.5771 0.71331 0.1137 0.0
C497 C 0.6306 0.85176 0.17951 0.0
C498 C 0.63944 0.8283 0.20988 0.0
C499 C 0.6557 0.87907 0.21481 0.0
C500 C 0.64458 0.87779 0.19299 0.0
C501 C 0.6531 0.8543 0.2235 0.0
C502 C 0.62831 0.82703 0.18805 0.0
C503 C 0.61779 0.85078 0.15705 0.0
O504 O 0.59951 0.83398 0.08806 0.0
O505 O 0.56033 0.81481 0.1023 0.0
O506 O 0.59171 0.83272 0.15359 0.0
O507 O 0.63095 0.85084 0.13965 0.0
H508 H 0.61207 0.88719 0.08648 0.0
H509 H 0.60392 0.92454 0.07272 0.0
H510 H 0.52007 0.86188 0.05585 0.0
H511 H 0.52807 0.82451 0.06935 0.0
H512 H 0.56547 0.71174 0.04889 0.0
H513 H 0.57953 0.75615 0.07288 0.0
H514 H 0.56668 0.66945 0.10788 0.0
H515 H 0.58064 0.71353 0.13174 0.0
H516 H 0.63703 0.80889 0.2163 0.0
H517 H 0.66593 0.89926 0.22505 0.0
H518 H 0.64651 0.89711 0.18676 0.0
H519 H 0.61759 0.80672 0.17798 0.0
C520 C 0.28578 0.84712 0.08795 0.0
C521 C 0.30861 0.86402 0.10315 0.0
C522 C 0.33549 0.88649 0.07199 0.0
C523 C 0.3333 0.88359 0.09521 0.0
C524 C 0.31254 0.86999 0.05691 0.0
C525 C 0.28795 0.85052 0.06483 0.0
U526 U 0.22959 0.81117 0.12937 0.0
O527 O 0.18559 0.78687 0.12071 0.0
O528 O 0.20609 0.76554 0.135 0.0
C529 C 0.18326 0.76269 0.12642 0.0
C530 C 0.25992 0.8246 0.09527 0.0
C531 C 0.16632 0.73718 0.11067 0.0
C532 C 0.15846 0.70776 0.07579 0.0
C533 C 0.1747 0.73302 0.08979 0.0
C534 C 0.1253 0.69093 0.10324 0.0
C535 C 0.13373 0.68645 0.08255 0.0
C536 C 0.14142 0.71609 0.11714 0.0
C537 C 0.23308 0.84528 0.18881 0.0
C538 C 0.21966 0.8263 0.22523 0.0
C539 C 0.21764 0.86812 0.2158 0.0
C540 C 0.22729 0.8669 0.1949 0.0
C541 C 0.21378 0.84786 0.23116 0.0
C542 C 0.22919 0.82498 0.20426 0.0
C543 C 0.24411 0.84508 0.16678 0.0
O544 O 0.26132 0.8095 0.11133 0.0
O545 O 0.24081 0.83098 0.09726 0.0
O546 O 0.23123 0.84766 0.14899 0.0
O547 O 0.25195 0.82638 0.16291 0.0
H548 H 0.30746 0.86176 0.12106 0.0
H549 H 0.35081 0.89612 0.1071 0.0
H550 H 0.3138 0.87187 0.03897 0.0
H551 H 0.27066 0.83765 0.05279 0.0
H552 H 0.1654 0.70455 0.05997 0.0
H553 H 0.19388 0.74905 0.08453 0.0
H554 H 0.10641 0.67468 0.10882 0.0
H555 H 0.13463 0.71887 0.13318 0.0
H556 H 0.21683 0.81046 0.23683 0.0
H557 H 0.21321 0.88491 0.22002 0.0
H558 H 0.23031 0.88298 0.18348 0.0
H559 H 0.23357 0.80811 0.20025 0.0
C560 C 0.20335 0.46499 0.09525 0.0
C561 C 0.17666 0.4422 0.09054 0.0
C562 C 0.16233 0.47496 0.07792 0.0
C563 C 0.15634 0.44717 0.08191 0.0
C564 C 0.18877 0.49776 0.08303 0.0
C565 C 0.20909 0.49281 0.09154 0.0
U566 U 0.24001 0.43836 0.13524 0.0
O567 O 0.26276 0.41694 0.12657 0.0
O568 O 0.28337 0.4588 0.14592 0.0
C569 C 0.28591 0.43853 0.13538 0.0
C570 C 0.22581 0.46025 0.10249 0.0
C571 C 0.30858 0.44816 0.12107 0.0
C572 C 0.33278 0.4738 0.08981 0.0
C573 C 0.31091 0.46481 0.10307 0.0
C574 C 0.35006 0.44947 0.11231 0.0
C575 C 0.35249 0.46614 0.09434 0.0
C576 C 0.32828 0.44056 0.12556 0.0
C577 C 0.20661 0.40227 0.18892 0.0
C578 C 0.21001 0.40492 0.23003 0.0
C579 C 0.18809 0.35878 0.20861 0.0
C580 C 0.19331 0.37226 0.18852 0.0
C581 C 0.19594 0.375 0.22948 0.0
C582 C 0.21524 0.41843 0.20996 0.0
C583 C 0.20826 0.4164 0.16779 0.0
O584 O 0.24106 0.47553 0.12074 0.0
O585 O 0.22072 0.43371 0.10128 0.0
O586 O 0.20582 0.40182 0.14867 0.0
O587 O 0.22647 0.44366 0.16807 0.0
H588 H 0.17154 0.4205 0.09314 0.0
H589 H 0.13602 0.42932 0.07807 0.0
H590 H 0.19375 0.51933 0.08003 0.0
H591 H 0.22948 0.5107 0.09486 0.0
H592 H 0.33435 0.48669 0.07604 0.0
H593 H 0.29588 0.47087 0.09934 0.0
H594 H 0.36508 0.4434 0.11607 0.0
H595 H 0.32682 0.42773 0.13936 0.0
H596 H 0.21599 0.41777 0.24599 0.0
H597 H 0.17698 0.33566 0.20786 0.0
H598 H 0.18597 0.35909 0.17269 0.0
H599 H 0.22513 0.44152 0.21096 0.0
C600 C 0.41391 0.90991 0.2851 0.0
C601 C 0.40853 0.93251 0.28714 0.0
C602 C 0.36599 0.90153 0.30269 0.0
C603 C 0.38472 0.92833 0.29589 0.0
C604 C 0.37113 0.87888 0.30026 0.0
C605 C 0.39489 0.88306 0.2916 0.0
U606 U 0.47131 0.93415 0.24488 0.0
O607 O 0.515 0.95391 0.25358 0.0
O608 O 0.49272 0.91168 0.2348 0.0
C609 C 0.51577 0.93143 0.24532 0.0
C610 C 0.43973 0.91392 0.27772 0.0
C611 C 0.53002 0.92104 0.25991 0.0
C612 C 0.54308 0.91229 0.29684 0.0
C613 C 0.52853 0.92134 0.28337 0.0
C614 C 0.56024 0.90192 0.26358 0.0
C615 C 0.55914 0.90267 0.28702 0.0
C616 C 0.54582 0.91108 0.25015 0.0
C617 C 0.47021 0.96925 0.19035 0.0
C618 C 0.50518 1.00681 0.17063 0.0
C619 C 0.46505 0.96872 0.14948 0.0
C620 C 0.45516 0.95656 0.16952 0.0
C621 C 0.49011 0.99396 0.14987 0.0
C622 C 0.49538 0.99455 0.19069 0.0
C623 C 0.45876 0.95635 0.21139 0.0
O624 O 0.43805 0.89805 0.25966 0.0
O625 O 0.46015 0.94025 0.27856 0.0
O626 O 0.4718 0.97102 0.23056 0.0
O627 O 0.4498 0.92883 0.21171 0.0
H628 H 0.42282 0.95346 0.28229 0.0
H629 H 0.38101 0.94602 0.29758 0.0
H630 H 0.35689 0.85805 0.30537 0.0
H631 H 0.39864 0.86537 0.29032 0.0
H632 H 0.542 0.91296 0.31491 0.0
H633 H 0.51634 0.9288 0.29126 0.0
H634 H 0.57252 0.89455 0.25573 0.0
H635 H 0.54719 0.91062 0.2321 0.0
H636 H 0.52456 0.0263 0.17127 0.0
H637 H 0.45312 0.95849 0.13363 0.0
H638 H 0.43563 0.93723 0.16877 0.0
H639 H 0.50748 1.00498 0.20643 0.0
C640 C 0.13193 0.51731 0.30202 0.0
C641 C 0.11393 0.48876 0.29427 0.0
C642 C 0.13502 0.47208 0.32215 0.0
C643 C 0.11596 0.46659 0.30368 0.0
C644 C 0.15518 0.50113 0.32732 0.0
C645 C 0.15318 0.52327 0.31796 0.0
U646 U 0.11201 0.55719 0.25911 0.0
O647 O 0.1324 0.60335 0.25513 0.0
O648 O 0.09124 0.58149 0.2656 0.0
C649 C 0.11219 0.60597 0.2617 0.0
C650 C 0.1286 0.54116 0.29459 0.0
C651 C 0.11909 0.63103 0.27756 0.0
C652 C 0.14524 0.66446 0.31014 0.0
C653 C 0.13746 0.63904 0.29673 0.0
C654 C 0.11586 0.67362 0.28578 0.0
C655 C 0.13478 0.68216 0.30453 0.0
C656 C 0.10806 0.64829 0.27249 0.0
C657 C 0.08381 0.52438 0.19743 0.0
C658 C 0.08943 0.54194 0.16 0.0
C659 C 0.04674 0.50168 0.1677 0.0
C660 C 0.0572 0.50327 0.18983 0.0
C661 C 0.06273 0.52104 0.15259 0.0
C662 C 0.09988 0.54361 0.18216 0.0
C663 C 0.09476 0.5247 0.22073 0.0
O664 O 0.14488 0.55708 0.27999 0.0
O665 O 0.10372 0.53583 0.29053 0.0
O666 O 0.07914 0.5217 0.23698 0.0
O667 O 0.12029 0.54352 0.22656 0.0
H668 H 0.09818 0.48354 0.281 0.0
H669 H 0.10254 0.44535 0.29591 0.0
H670 H 0.17289 0.50735 0.33856 0.0
H671 H 0.16824 0.54521 0.32341 0.0
H672 H 0.16007 0.67081 0.32441 0.0
H673 H 0.14627 0.62609 0.30096 0.0
H674 H 0.10774 0.68704 0.28104 0.0
H675 H 0.09393 0.64259 0.25778 0.0
H676 H 0.10209 0.55716 0.14865 0.0
H677 H 0.02607 0.48549 0.16241 0.0
H678 H 0.04445 0.48788 0.20103 0.0
H679 H 0.12055 0.55995 0.18728 0.0
C680 C 0.40511 0.51478 0.28603 0.0
C681 C 0.38052 0.50887 0.27466 0.0
C682 C 0.35522 0.476 0.30231 0.0
C683 C 0.35582 0.48963 0.28272 0.0
C684 C 0.37966 0.48126 0.3133 0.0
C685 C 0.40432 0.50048 0.30528 0.0
U686 U 0.46499 0.55423 0.24799 0.0
O687 O 0.48849 0.60054 0.24433 0.0
O688 O 0.50841 0.57881 0.25902 0.0
C689 C 0.51071 0.60334 0.25434 0.0
C690 C 0.4316 0.53804 0.28001 0.0
C691 C 0.52631 0.62826 0.27127 0.0
C692 C 0.55258 0.6498 0.30751 0.0
C693 C 0.53493 0.62546 0.29306 0.0
C694 C 0.55252 0.68006 0.27903 0.0
C695 C 0.56186 0.67729 0.30044 0.0
C696 C 0.53497 0.65583 0.26462 0.0
C697 C 0.46524 0.52263 0.1883 0.0
C698 C 0.50415 0.53531 0.16684 0.0
C699 C 0.45907 0.50817 0.14804 0.0
C700 C 0.44826 0.50878 0.16848 0.0
C701 C 0.48714 0.52135 0.14703 0.0
C702 C 0.49333 0.536 0.18728 0.0
C703 C 0.45315 0.52212 0.20979 0.0
O704 O 0.45127 0.53234 0.27898 0.0
O705 O 0.43147 0.55422 0.26433 0.0
O706 O 0.4454 0.54095 0.21327 0.0
O707 O 0.46516 0.51913 0.22797 0.0
H708 H 0.38033 0.51966 0.25992 0.0
H709 H 0.33718 0.48587 0.274 0.0
H710 H 0.37966 0.47103 0.32845 0.0
H711 H 0.42288 0.50487 0.31458 0.0
H712 H 0.55974 0.64721 0.32388 0.0
H713 H 0.52875 0.60454 0.29869 0.0
H714 H 0.55961 0.70104 0.27317 0.0
H715 H 0.52888 0.65866 0.2479 0.0
H716 H 0.52585 0.54578 0.16644 0.0
H717 H 0.44555 0.49739 0.13301 0.0
H718 H 0.42655 0.4983 0.16883 0.0
H719 H 0.50689 0.54689 0.20228 0.0
Tb720 Tb 0.54622 0.04236 0.0242 0.0
C721 C 0.53181 0.97768 0.03201 0.0
Tb722 Tb 0.4875 0.99464 0.02281 0.0
O723 O 0.54633 0.05907 0.05853 0.0
O724 O 0.52052 0.01657 0.04755 0.0
O725 O 0.55045 1.00433 0.02856 0.0
C726 C 0.43812 0.96168 0.03647 0.0
O727 O 0.50574 0.96916 0.03125 0.0
C728 C 0.5085 1.00376 0.98301 0.0
C729 C 0.50031 0.05805 1.01564 0.0
O730 O 0.45905 0.98121 0.04893 0.0
O731 O 0.44484 0.96086 1.01605 0.0
O732 O 0.49055 0.97889 0.98896 0.0
O733 O 0.5129 0.02164 0.99927 0.0
O734 O 0.48234 0.03212 0.02105 0.0
O735 O 0.52593 0.06566 1.01328 0.0
C736 C 0.59723 0.07209 1.01202 0.0
O737 O 0.58443 0.08277 0.02237 0.0
O738 O 0.58132 0.04465 1.00908 0.0
C739 C 0.52546 0.03537 0.06317 0.0
Tb740 Tb 0.99927 0.52616 0.02276 0.0
C741 C 0.06031 0.57366 0.03759 0.0
Tb742 Tb 0.04342 0.50927 0.02247 0.0
O743 O 1.00211 0.5332 0.05939 0.0
O744 O 1.01456 0.50695 0.04432 0.0
O745 O 0.03517 0.56804 0.03253 0.0
C746 C 0.08059 0.49701 0.03836 0.0
O747 O 0.06768 0.55418 0.03486 0.0
C748 C 0.0272 0.51648 0.98227 0.0
C749 C 0.98328 0.46082 1.0089 0.0
O750 O 0.08244 0.51108 0.02086 0.0
O751 O 0.05775 0.48958 0.04657 0.0
O752 O 0.03914 0.50174 0.98571 0.0
O753 O 0.02873 0.5298 1.00089 0.0
O754 O 1.00832 0.46659 1.01441 0.0
O755 O 0.97576 0.48035 1.01051 0.0
C756 C 0.96388 0.54188 1.00875 0.0
O757 O 0.95901 0.52178 0.02198 0.0
O758 O 0.98868 0.55329 1.00375 0.0
C759 C 1.01538 0.51989 0.06291 0.0
Tb760 Tb 0.49085 0.51013 0.02481 0.0
C761 C 0.50591 0.46314 1.00908 0.0
Tb762 Tb 0.55144 0.52878 0.02111 0.0
O763 O 0.48062 0.50187 0.9882 0.0
O764 O 0.51994 0.52922 1.0016 0.0
O765 O 0.48664 0.46823 1.01554 0.0
C766 C 0.59823 0.54125 1.00471 0.0
O767 O 0.53178 0.4833 1.01017 0.0
C768 C 0.53509 0.52371 0.06215 0.0
C769 C 0.53751 0.57628 0.03375 0.0
O770 O 0.59094 0.53148 0.02416 0.0
O771 O 0.57927 0.54411 0.99469 0.0
O772 O 0.56007 0.54003 0.05781 0.0
O773 O 0.52192 0.5091 0.04411 0.0
O774 O 0.55444 0.57051 0.02351 0.0
O775 O 0.51297 0.55566 0.03792 0.0
C776 C 0.44522 0.49663 0.04365 0.0
O777 O 0.45371 0.51219 0.02671 0.0
O778 O 0.46229 0.4887 0.04985 0.0
C779 C 0.50571 0.51572 0.98351 0.0
Tb780 Tb 0.20475 0.36944 0.35493 0.0
C781 C 0.19271 0.30636 0.3626 0.0
Tb782 Tb 0.14559 0.32106 0.35559 0.0
O783 O 0.20478 0.38523 0.38976 0.0
O784 O 0.17978 0.34299 0.3789 0.0
O785 O 0.21062 0.33244 0.35743 0.0
C786 C 0.09603 0.291 0.37041 0.0
O787 O 0.16689 0.29813 0.36447 0.0
C788 C 0.16432 0.32892 0.31552 0.0
C789 C 0.15924 0.38553 0.34903 0.0
O790 O 0.10631 0.28126 0.35593 0.0
O791 O 0.11359 0.31762 0.3762 0.0
O792 O 0.14392 0.30509 0.32057 0.0
O793 O 0.17008 0.34736 0.33167 0.0
O794 O 0.14163 0.35961 0.35483 0.0
O795 O 0.18452 0.39299 0.34553 0.0
C796 C 0.2535 0.40262 0.34015 0.0
O797 O 0.23407 0.37913 0.32981 0.0
O798 O 0.24561 0.40731 0.35914 0.0
C799 C 0.18469 0.3612 0.39501 0.0
Tb800 Tb 0.65891 0.85211 0.3554 0.0
C801 C 0.7208 0.8997 0.36909 0.0
Tb802 Tb 0.70582 0.83528 0.35425 0.0
O803 O 0.657 0.85294 0.39243 0.0
O804 O 0.68199 0.84191 0.3767 0.0
O805 O 0.69555 0.89399 0.36384 0.0
C806 C 0.74143 0.82063 0.36908 0.0
O807 O 0.72855 0.88037 0.36682 0.0
C808 C 0.68973 0.84351 0.31371 0.0
C809 C 0.64421 0.78654 0.3454 0.0
O810 O 0.74601 0.83988 0.35507 0.0
O811 O 0.71674 0.80936 0.37447 0.0
O812 O 0.7085 0.83686 0.31707 0.0
O813 O 0.68199 0.84476 0.33284 0.0
O814 O 0.6697 0.79294 0.34994 0.0
O815 O 0.63603 0.80574 0.3462 0.0
C816 C 0.62623 0.86858 0.33698 0.0
O817 O 0.6198 0.85016 0.35207 0.0
O818 O 0.65108 0.87797 0.33261 0.0
C819 C 0.67558 0.84595 0.39587 0.0
Tb820 Tb 0.15785 0.846 0.35964 0.0
C821 C 0.17228 0.79704 0.34624 0.0
Tb822 Tb 0.21939 0.86116 0.35846 0.0
O823 O 0.14954 0.8458 0.32277 0.0
O824 O 0.18607 0.85335 0.337 0.0
O825 O 0.15389 0.80349 0.35288 0.0
C826 C 0.26733 0.87787 0.34245 0.0
O827 O 0.19839 0.81617 0.34648 0.0
C828 C 0.19752 0.84866 0.3976 0.0
C829 C 0.20654 0.91151 0.36784 0.0
O830 O 0.26134 0.87024 0.36268 0.0
O831 O 0.24658 0.87667 0.3317 0.0
O832 O 0.21839 0.84652 0.39278 0.0
O833 O 0.19262 0.86022 0.38176 0.0
O834 O 0.22449 0.90414 0.3619 0.0
O835 O 0.18044 0.89241 0.36937 0.0
C836 C 0.11215 0.82924 0.37899 0.0
O837 O 0.12119 0.84804 0.36412 0.0
O838 O 0.12867 0.81975 0.38271 0.0
C839 C 0.17357 0.85097 0.31838 0.0
Tb840 Tb 0.87968 0.70251 0.69073 0.0
C841 C 0.86637 0.63768 0.69092 0.0
Tb842 Tb 0.82116 0.65507 0.68724 0.0
O843 O 0.87822 0.71432 0.7263 0.0
O844 O 0.85349 0.6732 0.71259 0.0
O845 O 0.88444 0.66468 0.68836 0.0
C846 C 0.77114 0.62181 0.69992 0.0
O847 O 0.84089 0.63007 0.69359 0.0
C848 C 0.84186 0.66772 0.64756 0.0
C849 C 0.83467 0.71958 0.6825 0.0
O850 O 0.78118 0.61584 0.68282 0.0
O851 O 0.78904 0.64667 0.70951 0.0
O852 O 0.82296 0.64257 0.65208 0.0
O853 O 0.84686 0.68428 0.66499 0.0
O854 O 0.81627 0.69316 0.68673 0.0
O855 O 0.86033 0.727 0.68082 0.0
C856 C 0.93125 0.73674 0.68154 0.0
O857 O 0.91772 0.74396 0.69448 0.0
O858 O 0.91598 0.71003 0.67439 0.0
C859 C 0.85763 0.68975 0.72971 0.0
Tb860 Tb 0.3307 0.18738 0.6851 0.0
C861 C 0.39115 0.2345 0.70249 0.0
Tb862 Tb 0.37425 0.16924 0.68997 0.0
O863 O 0.33062 0.19504 0.72151 0.0
O864 O 0.3436 0.16817 0.70879 0.0
O865 O 0.36658 0.2293 0.69523 0.0
C866 C 0.41115 0.15683 0.70624 0.0
O867 O 0.39811 0.21451 0.70173 0.0
C868 C 0.35974 0.17494 0.6486 0.0
C869 C 0.31452 0.12154 0.67598 0.0
O870 O 0.41103 0.16686 0.68693 0.0
O871 O 0.39047 0.15373 0.71629 0.0
O872 O 0.36949 0.15847 0.65325 0.0
O873 O 0.36162 0.18928 0.66659 0.0
O874 O 0.3377 0.12733 0.68681 0.0
O875 O 0.30906 0.1421 0.67147 0.0
C876 C 0.29617 0.2012 0.66603 0.0
O877 O 0.2912 0.18475 0.68241 0.0
O878 O 0.32044 0.20978 0.66044 0.0
C879 C 0.3432 0.18142 0.72671 0.0
Tb880 Tb 0.826 0.17556 0.6929 0.0
C881 C 0.83972 0.12685 0.67858 0.0
Tb882 Tb 0.88613 0.19228 0.6895 0.0
O883 O 0.82575 0.195 0.66123 0.0
O884 O 0.85151 0.17949 0.66741 0.0
O885 O 0.82084 0.13305 0.68415 0.0
C886 C 0.93267 0.20449 0.67293 0.0
O887 O 0.86594 0.14633 0.67944 0.0
C888 C 0.87051 0.19045 0.73066 0.0
C889 C 0.87214 0.24055 0.70023 0.0
O890 O 0.9226 0.18877 0.68959 0.0
O891 O 0.91665 0.21342 0.66584 0.0
O892 O 0.89553 0.20533 0.72606 0.0
O893 O 0.85697 0.17532 0.71299 0.0
O894 O 0.88803 0.23363 0.68952 0.0
O895 O 0.84805 0.22074 0.70571 0.0
C896 C 0.77881 0.15716 0.7108 0.0
O897 O 0.80244 0.16981 0.72186 0.0
O898 O 0.78166 0.15482 0.68942 0.0
C899 C 0.84595 0.19322 0.65389 0.0
C900 C 0.37736 0.89444 0.05432 0.0
C901 C 0.36199 0.90596 0.06318 0.0
C902 C 0.3969 0.95414 0.05515 0.0
C903 C 0.41141 0.94236 0.0449 0.0
N904 N 0.41468 0.90107 0.03301 0.0
N905 N 0.35502 0.94585 0.06973 0.0
C906 C 0.4013 0.9124 0.04386 0.0
C907 C 0.37126 0.93561 0.06306 0.0
N908 N 0.36958 0.86647 0.05675 0.0
N909 N 0.40765 0.98313 0.05737 0.0
H910 H 0.3364 0.93304 0.07597 0.0
H911 H 0.35898 0.96651 0.06769 0.0
H912 H 0.42513 0.99731 0.05021 0.0
H913 H 0.40004 0.99336 0.06725 0.0
H914 H 0.38129 0.85735 0.05307 0.0
H915 H 0.35213 0.85264 0.06416 0.0
H916 H 0.40668 0.87928 0.02906 0.0
H917 H 0.43335 0.91345 0.02678 0.0
C918 C 0.13446 0.47541 0.04412 0.0
C919 C 0.14109 0.4802 0.06778 0.0
C920 C 0.11027 0.49886 0.07171 0.0
C921 C 0.10173 0.49157 0.04834 0.0
N922 N 0.1022 0.46819 1.01304 0.0
N923 N 0.13233 0.49207 0.10464 0.0
C924 C 0.11295 0.47866 0.0347 0.0
C925 C 0.12807 0.49059 0.08174 0.0
N926 N 0.14911 0.46836 0.03058 0.0
N927 N 0.10256 0.51502 0.08411 0.0
H928 H 0.14556 0.48665 0.11258 0.0
H929 H 0.1211 0.49633 0.11573 0.0
H930 H 0.09042 0.5225 0.07731 0.0
H931 H 0.1103 0.52343 0.10062 0.0
H932 H 0.14733 0.46782 1.01309 0.0
H933 H 0.16464 0.46523 0.03686 0.0
H934 H 0.10754 0.4558 1.00309 0.0
H935 H 0.08609 0.46955 1.00563 0.0
C936 C 0.57964 0.65473 0.05922 0.0
C937 C 0.55876 0.66089 0.06239 0.0
C938 C 0.52674 0.61578 0.04045 0.0
C939 C 0.54622 0.60682 0.04141 0.0
N940 N 0.59201 0.61859 0.05413 0.0
N941 N 0.51163 0.64637 0.0573 0.0
C942 C 0.57305 0.62664 0.0511 0.0
C943 C 0.53208 0.64121 0.05328 0.0
N944 N 0.60595 0.67588 0.06389 0.0
N945 N 0.50364 0.60081 0.02637 0.0
H946 H 0.51486 0.66503 0.06615 0.0
H947 H 0.49134 0.63122 0.05327 0.0
H948 H 0.50003 0.58355 1.01529 0.0
H949 H 0.4898 0.60766 0.02361 0.0
H950 H 0.6222 0.67374 0.05947 0.0
H951 H 0.61148 0.69659 0.07007 0.0
H952 H 0.6104 0.63123 0.06365 0.0
H953 H 0.58892 0.59842 0.04951 0.0
C954 C 0.9252 0.3829 1.003 0.0
C955 C 0.92228 0.37678 0.97926 0.0
C956 C 0.96077 0.42436 0.97546 0.0
C957 C 0.96273 0.43144 0.99901 0.0
N958 N 0.94448 0.41895 0.03487 0.0
N959 N 0.93328 0.39372 0.94251 0.0
C960 C 0.94419 0.41112 1.0127 0.0
C961 C 0.93889 0.39815 0.9654 0.0
N962 N 0.91031 0.36155 1.01625 0.0
N963 N 0.98029 0.4423 0.96264 0.0
H964 H 0.9175 0.37477 0.93439 0.0
H965 H 0.94258 0.40975 0.93168 0.0
H966 H 0.99661 0.46152 0.96932 0.0
H967 H 0.98171 0.43697 0.94596 0.0
H968 H 0.91339 0.36364 0.03374 0.0
H969 H 0.89592 0.34094 1.00961 0.0
H970 H 0.9298 0.40627 0.04526 0.0
H971 H 0.95852 0.43911 0.04256 0.0
C972 C 0.67319 0.56879 1.00054 0.0
C973 C 0.6733 0.56099 0.97752 0.0
C974 C 0.62396 0.53812 0.97279 0.0
C975 C 0.62408 0.54811 0.99532 0.0
N976 N 0.6495 0.57848 0.02891 0.0
N977 N 0.64965 0.54284 0.94063 0.0
C978 C 0.64888 0.56491 1.00877 0.0
C979 C 0.64892 0.54708 0.9633 0.0
N980 N 0.69618 0.57929 1.01471 0.0
N981 N 0.60013 0.51888 0.96083 0.0
H982 H 0.66754 0.5488 0.93316 0.0
H983 H 0.63291 0.53574 0.92906 0.0
H984 H 0.58145 0.51075 0.96738 0.0
H985 H 0.59898 0.50878 0.94519 0.0
H986 H 0.69653 0.58221 0.03213 0.0
H987 H 0.71452 0.58288 1.00929 0.0
H988 H 0.66734 0.59336 0.03829 0.0
H989 H 0.63239 0.57725 0.0352 0.0
C990 C 0.48755 0.12091 1.01704 0.0
C991 C 0.47316 0.1159 0.99558 0.0
C992 C 0.47127 0.06975 0.99038 0.0
C993 C 0.49051 0.07772 1.0092 0.0
N994 N 0.51655 0.11096 0.04125 0.0
N995 N 0.43447 0.07511 0.97566 0.0
C996 C 0.49853 0.10333 0.02281 0.0
C997 C 0.46006 0.0873 0.98571 0.0
N998 N 0.48678 0.1391 0.03321 0.0
N999 N 0.46396 0.04578 0.97652 0.0
H1000 H 0.4232 0.08532 0.9769 0.0
H1001 H 0.42317 0.05357 0.96979 0.0
H1002 H 0.47188 0.03241 0.97899 0.0
H1003 H 0.4518 0.04077 0.96149 0.0
H1004 H 0.49469 0.14174 0.04983 0.0
H1005 H 0.47472 0.14826 0.03066 0.0
H1006 H 0.5253 0.13095 0.05024 0.0
H1007 H 0.52398 0.09801 0.0467 0.0
C1008 C 0.6706 0.13064 1.00754 0.0
C1009 C 0.67278 0.12734 0.98413 0.0
C1010 C 0.62842 0.08343 0.98039 0.0
C1011 C 0.62433 0.08905 1.00307 0.0
N1012 N 0.64221 0.11776 0.03862 0.0
N1013 N 0.65226 0.10309 0.94753 0.0
C1014 C 0.64564 0.11267 1.01671 0.0
C1015 C 0.65134 0.10433 0.9704 0.0
N1016 N 0.69279 0.15027 0.02116 0.0
N1017 N 0.61095 0.05811 0.96826 0.0
H1018 H 0.66864 0.11789 0.9395 0.0
H1019 H 0.6358 0.08899 0.93636 0.0
H1020 H 0.59367 0.04185 0.97408 0.0
H1021 H 0.61501 0.05191 0.95283 0.0
H1022 H 0.6936 0.15182 0.03866 0.0
H1023 H 0.71135 0.16365 1.01505 0.0
H1024 H 0.65507 0.13672 0.04843 0.0
H1025 H 0.62603 0.10323 0.04696 0.0
C1026 C 0.93714 0.58802 0.98627 0.0
C1027 C 0.91164 0.56706 0.97563 0.0
C1028 C 0.91905 0.52892 0.98822 0.0
C1029 C 0.94432 0.54993 0.99945 0.0
N1030 N 0.97406 0.59889 1.014 0.0
N1031 N 0.87563 0.51808 0.97041 0.0
C1032 C 0.95235 0.57934 0.9999 0.0
C1033 C 0.90172 0.53765 0.97794 0.0
N1034 N 0.94722 0.61617 0.98279 0.0
N1035 N 0.91225 0.50084 0.98606 0.0
H1036 H 0.86257 0.52372 0.96244 0.0
H1037 H 0.86622 0.4967 0.97378 0.0
H1038 H 0.92413 0.49325 0.99314 0.0
H1039 H 0.89578 0.48525 0.97566 0.0
H1040 H 0.96701 0.63203 0.9878 0.0
H1041 H 0.93636 0.62348 0.97346 0.0
H1042 H 0.9794 0.62026 1.01673 0.0
H1043 H 0.98512 0.59319 0.0248 0.0
C1044 C 0.50372 0.40203 0.97152 0.0
C1045 C 0.48142 0.37788 0.97912 0.0
C1046 C 0.47885 0.40896 1.00915 0.0
C1047 C 0.49827 0.43365 0.99931 0.0
N1048 N 0.52627 0.45272 0.96818 0.0
N1049 N 0.44581 0.35826 1.00391 0.0
C1050 C 0.51014 0.42996 0.97983 0.0
C1051 C 0.46844 0.38131 0.99761 0.0
N1052 N 0.51901 0.39831 0.95637 0.0
N1053 N 0.47138 0.41165 0.03009 0.0
H1054 H 0.43814 0.33763 0.99631 0.0
H1055 H 0.43363 0.35994 1.01552 0.0
H1056 H 0.47973 0.43114 0.03974 0.0
H1057 H 0.45928 0.39425 0.03896 0.0
H1058 H 0.53739 0.4149 0.95219 0.0
H1059 H 0.51474 0.37822 0.94964 0.0
H1060 H 0.53254 0.45054 0.9525 0.0
H1061 H 0.53107 0.47359 0.97251 0.0
C1062 C 0.11869 0.63445 0.07593 0.0
C1063 C 0.11734 0.65834 0.06905 0.0
C1064 C 0.08305 0.62758 0.03848 0.0
C1065 C 0.08114 0.60297 0.04767 0.0
N1066 N 0.09536 0.58342 0.07778 0.0
N1067 N 0.09669 0.67772 0.04493 0.0
C1068 C 0.0987 0.60649 0.06696 0.0
C1069 C 0.09913 0.65495 0.05059 0.0
N1070 N 0.13927 0.63848 0.09104 0.0
N1071 N 0.07059 0.62507 1.01767 0.0
H1072 H 0.10866 0.69819 0.053 0.0
H1073 H 0.08156 0.67585 0.03337 0.0
H1074 H 0.06 0.60574 1.0077 0.0
H1075 H 0.07327 0.64255 1.00924 0.0
H1076 H 0.14315 0.62224 0.09477 0.0
H1077 H 0.15411 0.65863 0.09818 0.0
H1078 H 0.10544 0.58522 0.09333 0.0
H1079 H 0.0805 0.56248 0.07284 0.0
C1080 C 0.40175 0.49815 0.08934 0.0
C1081 C 0.37591 0.47566 0.08044 0.0
C1082 C 0.39501 0.4706 0.04572 0.0
C1083 C 0.42119 0.49089 0.0556 0.0
N1084 N 0.45026 0.52394 0.08667 0.0
N1085 N 0.34794 0.43844 0.0513 0.0
C1086 C 0.42477 0.50467 0.0774 0.0
C1087 C 0.37248 0.4615 0.05883 0.0
N1088 N 0.40406 0.51367 0.10896 0.0
N1089 N 0.3917 0.46008 0.02378 0.0
H1090 H 0.33094 0.43127 0.0603 0.0
H1091 H 0.34474 0.42509 0.03694 0.0
H1092 H 0.40782 0.46554 1.01394 0.0
H1093 H 0.37296 0.44765 1.01475 0.0
H1094 H 0.42171 0.53196 0.11552 0.0
H1095 H 0.38762 0.50946 0.11807 0.0
H1096 H 0.45476 0.53277 0.10326 0.0
H1097 H 0.46739 0.53051 0.07792 0.0
C1098 C 0.54419 0.92973 0.07013 0.0
C1099 C 0.55591 0.91852 0.05547 0.0
C1100 C 0.5548 0.94857 0.02618 0.0
C1101 C 0.54066 0.95769 0.04009 0.0
N1102 N 0.51937 0.95454 0.0747 0.0
N1103 N 0.5705 0.91497 0.01896 0.0
C1104 C 0.53462 0.94755 0.06187 0.0
C1105 C 0.5609 0.92749 0.03337 0.0
N1106 N 0.54298 0.92405 0.09227 0.0
N1107 N 0.56217 0.95986 1.006 0.0
H1108 H 0.5757 0.9 0.02382 0.0
H1109 H 0.57176 0.91793 1.00188 0.0
H1110 H 0.55642 0.97367 0.99941 0.0
H1111 H 0.5752 0.95682 0.99626 0.0
H1112 H 0.53773 0.93425 0.10454 0.0
H1113 H 0.54954 0.9109 0.0989 0.0
H1114 H 0.51102 0.94456 0.08905 0.0
H1115 H 0.51355 0.96917 0.07048 0.0
C1116 C 0.01909 0.24562 0.37186 0.0
C1117 C 1.01681 0.24372 0.39542 0.0
C1118 C 0.06527 0.27802 0.40212 0.0
C1119 C 0.06856 0.275 0.37882 0.0
N1120 N 0.04742 0.25715 0.34089 0.0
N1121 N 0.03436 0.27839 0.42758 0.0
C1122 C 0.04513 0.25911 0.36348 0.0
C1123 C 0.03891 0.26556 0.40948 0.0
N1124 N 0.99677 0.23906 0.35796 0.0
N1125 N 0.0871 0.29212 0.41759 0.0
H1126 H 1.01501 0.27452 0.43012 0.0
H1127 H 0.04979 0.29608 0.43735 0.0
H1128 H 0.10691 0.30117 0.41342 0.0
H1129 H 0.08521 0.29239 0.43489 0.0
H1130 H 0.99729 0.24257 0.34094 0.0
H1131 H 0.97842 0.23396 0.36432 0.0
H1132 H 0.03138 0.2428 0.32947 0.0
H1133 H 0.06547 0.26893 0.33358 0.0
C1134 C 0.79223 0.81646 0.41011 0.0
C1135 C 0.80157 0.80202 0.39596 0.0
C1136 C 0.7721 0.80064 0.36399 0.0
C1137 C 0.76171 0.8137 0.37842 0.0
N1138 N 0.75913 0.83103 0.41573 0.0
N1139 N 0.79724 0.77577 0.36074 0.0
C1140 C 0.77081 0.8205 0.40169 0.0
C1141 C 0.79063 0.79285 0.37323 0.0
N1142 N 0.80474 0.82753 0.43126 0.0
N1143 N 0.76432 0.79577 0.34141 0.0
H1144 H 0.8106 0.76948 0.36699 0.0
H1145 H 0.78787 0.7658 0.3449 0.0
H1146 H 0.74955 0.79947 0.33418 0.0
H1147 H 0.77359 0.78965 0.32959 0.0
H1148 H 0.80106 0.84104 0.44155 0.0
H1149 H 0.82042 0.82496 0.43804 0.0
H1150 H 0.76234 0.83296 0.43321 0.0
H1151 H 0.74489 0.83639 0.41005 0.0
C1152 C 0.20381 0.97942 0.38113 0.0
C1153 C 0.2276 0.99609 0.3957 0.0
C1154 C 0.23996 0.95904 0.39032 0.0
C1155 C 0.21616 0.94223 0.37531 0.0
N1156 N 0.1808 0.94145 0.35109 0.0
N1157 N 0.27201 1.00591 0.40861 0.0
C1158 C 0.19972 0.95401 0.36909 0.0
C1159 C 0.24688 0.98723 0.39838 0.0
N1160 N 0.18468 0.98733 0.3793 0.0
N1161 N 0.25517 0.94788 0.39832 0.0
H1162 H 0.27769 0.02663 0.41487 0.0
H1163 H 0.28798 1.00193 0.4088 0.0
H1164 H 0.25161 0.92753 0.39367 0.0
H1165 H 0.27028 0.95807 0.4115 0.0
H1166 H 0.16556 0.9743 0.371 0.0
H1167 H 0.18728 1.00611 0.38745 0.0
H1168 H 0.16982 0.9504 0.34453 0.0
H1169 H 0.17831 0.92383 0.3411 0.0
C1170 C 0.57747 0.71606 0.33256 0.0
C1171 C 0.58355 0.70328 0.31416 0.0
C1172 C 0.62953 0.74446 0.3166 0.0
C1173 C 0.62408 0.75679 0.33584 0.0
N1174 N 0.59467 0.75119 0.36496 0.0
N1175 N 0.61715 0.70168 0.29258 0.0
C1176 C 0.59853 0.74161 0.34467 0.0
C1177 C 0.6102 0.71632 0.30753 0.0
N1178 N 0.55143 0.7043 0.33802 0.0
N1179 N 0.65224 0.76019 0.3058 0.0
H1180 H 0.60352 0.68106 0.28546 0.0
H1181 H 0.63699 0.70882 0.28901 0.0
H1182 H 0.66671 0.78125 0.31095 0.0
H1183 H 0.6554 0.75335 0.29023 0.0
H1184 H 0.5451 0.71428 0.34954 0.0
H1185 H 0.53571 0.68533 0.32984 0.0
H1186 H 0.57741 0.73975 0.37335 0.0
H1187 H 0.60986 0.76934 0.37449 0.0
C1188 C 0.34218 0.90681 0.33536 0.0
C1189 C 0.34098 0.89696 0.31262 0.0
C1190 C 0.29158 0.87238 0.31026 0.0
C1191 C 0.29279 0.88446 0.33232 0.0
N1192 N 0.31972 0.91813 0.36396 0.0
N1193 N 0.31503 0.87547 0.27696 0.0
C1194 C 0.31823 0.90302 0.3444 0.0
C1195 C 0.3158 0.88138 0.2996 0.0
N1196 N 0.36606 0.91912 0.34855 0.0
N1197 N 0.26755 0.85101 0.29993 0.0
H1198 H 0.33238 0.88155 0.2686 0.0
H1199 H 0.29744 0.86699 0.26618 0.0
H1200 H 0.24951 0.84216 0.30758 0.0
H1201 H 0.26597 0.83974 0.28475 0.0
H1202 H 0.36753 0.92371 0.36589 0.0
H1203 H 0.38409 0.92263 0.34249 0.0
H1204 H 0.33787 0.93413 0.37224 0.0
H1205 H 0.30283 0.91683 0.37077 0.0
C1206 C 0.1178 0.41876 0.32769 0.0
C1207 C 0.13586 0.44811 0.33427 0.0
C1208 C 0.16399 0.43429 0.35677 0.0
C1209 C 0.15001 0.40651 0.34515 0.0
N1210 N 0.11293 0.37261 0.3186 0.0
N1211 N 0.16054 0.47541 0.36893 0.0
C1212 C 0.12654 0.3987 0.33054 0.0
C1213 C 0.15489 0.45395 0.35286 0.0
N1214 N 0.09109 0.40927 0.32262 0.0
N1215 N 0.18581 0.44207 0.37171 0.0
H1216 H 0.15014 0.48662 0.36855 0.0
H1217 H 0.17223 0.47911 0.38401 0.0
H1218 H 0.19203 0.42792 0.37655 0.0
H1219 H 0.19849 0.4631 0.37844 0.0
H1220 H 0.0766 0.38766 0.31961 0.0
H1221 H 0.08313 0.42269 0.32515 0.0
H1222 H 0.09742 0.36742 0.30612 0.0
H1223 H 0.11852 0.35719 0.31976 0.0
C1224 C 0.31785 0.42707 0.31005 0.0
C1225 C 0.32908 0.45716 0.31195 0.0
C1226 C 0.28975 0.45139 0.33075 0.0
C1227 C 0.27987 0.42157 0.33095 0.0
N1228 N 0.28734 0.38187 0.32439 0.0
N1229 N 0.32821 0.49845 0.32772 0.0
C1230 C 0.29465 0.40961 0.32151 0.0
C1231 C 0.31575 0.46946 0.32338 0.0
N1232 N 0.32897 0.41509 0.29684 0.0
N1233 N 0.27375 0.46236 0.33635 0.0
H1234 H 0.34715 0.51244 0.32251 0.0
H1235 H 0.32086 0.50845 0.33819 0.0
H1236 H 0.25418 0.4499 0.34095 0.0
H1237 H 0.27878 0.48335 0.33417 0.0
H1238 H 0.31996 0.39317 0.29274 0.0
H1239 H 0.34602 0.42719 0.28834 0.0
H1240 H 0.29891 0.37283 0.3199 0.0
H1241 H 0.27116 0.36863 0.33336 0.0
C1242 C 0.56578 0.8645 0.30336 0.0
C1243 C 0.57541 0.89392 0.30122 0.0
C1244 C 0.6162 0.90649 0.32561 0.0
C1245 C 0.60796 0.87707 0.32567 0.0
N1246 N 0.57684 0.82808 0.3117 0.0
N1247 N 0.6111 0.94304 0.3079 0.0
C1248 C 0.58315 0.85601 0.31392 0.0
C1249 C 0.60098 0.91498 0.31173 0.0
N1250 N 0.53987 0.8447 0.29552 0.0
N1251 N 0.63803 0.92627 0.33948 0.0
H1252 H 0.60034 0.95019 0.29826 0.0
H1253 H 0.63089 0.95895 0.31285 0.0
H1254 H 0.64935 0.92085 0.35024 0.0
H1255 H 0.64342 0.94767 0.34195 0.0
H1256 H 0.53067 0.82328 0.29873 0.0
H1257 H 0.52674 0.85013 0.28739 0.0
H1258 H 0.56061 0.81235 0.30117 0.0
H1259 H 0.58917 0.82095 0.31873 0.0
C1260 C 0.13436 0.71493 0.33617 0.0
C1261 C 0.1456 0.71114 0.31656 0.0
C1262 C 0.17284 0.76317 0.31564 0.0
C1263 C 0.16316 0.76726 0.33629 0.0
N1264 N 0.13904 0.7464 0.36859 0.0
N1265 N 0.17974 0.73139 0.29049 0.0
C1266 C 0.14504 0.74294 0.34721 0.0
C1267 C 0.1662 0.7352 0.30728 0.0
N1268 N 0.11312 0.69183 0.34403 0.0
N1269 N 0.18709 0.78566 0.30311 0.0
H1270 H 0.17517 0.71129 0.28355 0.0
H1271 H 0.19713 0.74805 0.28492 0.0
H1272 H 0.19197 0.80649 0.30778 0.0
H1273 H 0.19165 0.78327 0.28676 0.0
H1274 H 0.10197 0.69349 0.35663 0.0
H1275 H 0.10545 0.67102 0.33682 0.0
H1276 H 0.12816 0.72943 0.37826 0.0
H1277 H 0.14719 0.7663 0.37758 0.0
C1278 C 0.77875 0.96085 0.40776 0.0
C1279 C 0.77686 0.98456 0.40119 0.0
C1280 C 0.74285 0.95369 0.37045 0.0
C1281 C 0.74137 0.92911 0.37938 0.0
N1282 N 0.75626 0.90984 0.40932 0.0
N1283 N 0.75542 1.00346 0.37745 0.0
C1284 C 0.75907 0.93281 0.39864 0.0
C1285 C 0.75847 0.98098 0.38281 0.0
N1286 N 0.7996 0.96515 0.42266 0.0
N1287 N 0.73045 0.95126 0.34963 0.0
H1288 H 0.76696 0.02386 0.38575 0.0
H1289 H 0.74014 1.00136 0.36594 0.0
H1290 H 0.7203 0.93208 0.33944 0.0
H1291 H 0.73283 0.96878 0.3414 0.0
H1292 H 0.80391 0.94914 0.42613 0.0
H1293 H 0.81426 0.98536 0.42985 0.0
H1294 H 0.76649 0.91179 0.42482 0.0
H1295 H 0.74179 0.88878 0.40435 0.0
C1296 C 0.04488 0.78219 0.40288 0.0
C1297 C 0.04062 0.80307 0.41415 0.0
C1298 C 0.08401 0.84112 0.4034 0.0
C1299 C 0.0872 0.8204 0.39058 0.0
N1300 N 0.06868 0.77176 0.37494 0.0
N1301 N 0.05372 0.85248 0.42235 0.0
C1302 C 0.0671 0.79105 0.38948 0.0
C1303 C 0.05948 0.83258 0.41354 0.0
N1304 N 0.02808 0.75388 0.40547 0.0
N1305 N 0.10495 0.86867 0.40693 0.0
H1306 H 0.03618 0.84702 0.43023 0.0
H1307 H 0.0652 0.87419 0.42023 0.0
H1308 H 0.12344 0.8757 0.4002 0.0
H1309 H 0.10496 0.88396 0.41818 0.0
H1310 H 0.0319 0.73786 0.39989 0.0
H1311 H 1.01129 0.74651 0.41476 0.0
H1312 H 0.05326 0.75061 0.37158 0.0
H1313 H 0.0844 0.77744 0.3646 0.0
C1314 C 0.21732 0.27047 0.40314 0.0
C1315 C 0.2156 0.24785 0.38879 0.0
C1316 C 0.19929 0.26392 0.3568 0.0
C1317 C 0.20258 0.28746 0.37089 0.0
N1318 N 0.21928 0.3162 0.40644 0.0
N1319 N 0.20954 0.22578 0.35127 0.0
C1320 C 0.21309 0.29171 0.39373 0.0
C1321 C 0.2079 0.24538 0.36538 0.0
N1322 N 0.22177 0.27093 0.42594 0.0
N1323 N 0.18743 0.25897 0.33535 0.0
H1324 H 0.21579 0.21195 0.35695 0.0
H1325 H 0.20689 0.22476 0.33379 0.0
H1326 H 0.18184 0.2727 0.32833 0.0
H1327 H 0.18159 0.24044 0.32502 0.0
H1328 H 0.21998 0.28475 0.43752 0.0
H1329 H 0.22503 0.25585 0.4335 0.0
H1330 H 0.21625 0.33213 0.40032 0.0
H1331 H 0.22955 0.32195 0.42242 0.0
C1332 C 0.71764 0.55977 0.72943 0.0
C1333 C 0.6962 0.56575 0.72838 0.0
C1334 C 0.72449 0.60943 0.70978 0.0
C1335 C 0.74501 0.6021 0.70909 0.0
N1336 N 0.76043 0.56899 0.71646 0.0
N1337 N 0.67762 0.59407 0.71502 0.0
C1338 C 0.74131 0.5768 0.7183 0.0
C1339 C 0.69925 0.59008 0.71795 0.0
N1340 N 0.71577 0.53844 0.7419 0.0
N1341 N 0.72915 0.63497 0.70267 0.0
H1342 H 0.65897 0.58059 0.72094 0.0
H1343 H 0.67743 0.60941 0.70532 0.0
H1344 H 0.74661 0.64889 0.69533 0.0
H1345 H 0.71649 0.64324 0.70523 0.0
H1346 H 0.73171 0.53487 0.74553 0.0
H1347 H 0.69886 0.52565 0.75033 0.0
H1348 H 0.75754 0.54917 0.72027 0.0
H1349 H 0.77877 0.58158 0.70977 0.0
C1350 C 0.46157 0.15085 0.74666 0.0
C1351 C 0.47077 0.13669 0.73209 0.0
C1352 C 0.43847 0.13265 0.70153 0.0
C1353 C 0.43144 0.14963 0.71529 0.0
N1354 N 0.43945 0.17881 0.74994 0.0
N1355 N 0.47094 0.11757 0.69481 0.0
C1356 C 0.4437 0.15967 0.73766 0.0
C1357 C 0.46008 0.12861 0.70926 0.0
N1358 N 0.46963 0.15551 0.76917 0.0
N1359 N 0.42359 0.11905 0.68159 0.0
H1360 H 0.48634 0.11364 0.69991 0.0
H1361 H 0.46618 0.11444 0.67744 0.0
H1362 H 0.4069 0.12039 0.6757 0.0
H1363 H 0.42601 0.10404 0.67201 0.0
H1364 H 0.46128 0.16276 0.78107 0.0
H1365 H 0.48311 0.14985 0.77625 0.0
H1366 H 0.44992 0.18905 0.76543 0.0
H1367 H 0.42733 0.18666 0.74381 0.0
C1368 C 0.86806 0.30647 0.71875 0.0
C1369 C 0.8949 0.32597 0.72761 0.0
C1370 C 0.90855 0.29119 0.71622 0.0
C1371 C 0.8815 0.27146 0.70703 0.0
N1372 N 0.83883 0.26557 0.6925 0.0
N1373 N 0.94194 0.3404 0.72873 0.0
C1374 C 0.86225 0.28072 0.70617 0.0
C1375 C 0.91553 0.31945 0.72425 0.0
N1376 N 0.84792 0.3121 0.72284 0.0
N1377 N 0.92733 0.28285 0.71891 0.0
H1378 H 0.94772 0.36119 0.73487 0.0
H1379 H 0.95802 0.33801 0.7242 0.0
H1380 H 0.92388 0.26255 0.71424 0.0
H1381 H 0.94597 0.29541 0.72808 0.0
H1382 H 0.82753 0.29713 0.71906 0.0
H1383 H 0.8515 0.33103 0.73148 0.0
H1384 H 0.82508 0.27255 0.68976 0.0
H1385 H 0.83479 0.2479 0.68174 0.0
C1386 C 0.28093 0.04365 0.64949 0.0
C1387 C 0.25387 0.03733 0.64588 0.0
C1388 C 0.26596 0.08187 0.66832 0.0
C1389 C 0.2939 0.09106 0.66786 0.0
N1390 N 0.32784 0.08005 0.65558 0.0
N1391 N 0.22061 0.05139 0.65057 0.0
C1392 C 0.30143 0.07164 0.65815 0.0
C1393 C 0.24633 0.05665 0.65503 0.0
N1394 N 0.28708 0.02275 0.64473 0.0
N1395 N 0.25801 0.09647 0.6823 0.0
H1396 H 0.20557 0.03291 0.64131 0.0
H1397 H 0.21482 0.06634 0.65464 0.0
H1398 H 0.27156 0.11363 0.69361 0.0
H1399 H 0.23787 0.0894 0.68472 0.0
H1400 H 0.3058 0.02497 0.64941 0.0
H1401 H 0.27262 1.00211 0.63822 0.0
H1402 H 0.33369 0.06776 0.64609 0.0
H1403 H 0.34406 0.10023 0.66062 0.0
C1404 C 0.98335 0.21568 0.62991 0.0
C1405 C 1.00707 0.22426 0.64425 0.0
C1406 C 0.98258 0.22224 0.67731 0.0
C1407 C 0.95825 0.21098 0.66312 0.0
N1408 N 0.9345 0.19209 0.62619 0.0
N1409 N 0.0285 0.23139 0.6817 0.0
C1410 C 0.95836 0.20646 0.63946 0.0
C1411 C 1.00645 0.22627 0.668 0.0
N1412 N 0.98481 0.21687 0.60716 0.0
N1413 N 0.98329 0.2305 0.69947 0.0
H1414 H 0.04651 0.23492 0.67556 0.0
H1415 H 0.02823 0.22983 0.69902 0.0
H1416 H 0.96652 0.2287 0.70687 0.0
H1417 H 1.00107 0.2417 0.71002 0.0
H1418 H 0.96892 0.21401 0.59603 0.0
H1419 H 1.00268 0.22311 0.59956 0.0
H1420 H 0.93314 0.18567 0.60921 0.0
H1421 H 0.9157 0.18404 0.63254 0.0
C1422 C 0.7986 0.75185 0.64963 0.0
C1423 C 0.81322 0.7807 0.65888 0.0
C1424 C 0.83849 0.76809 0.68611 0.0
C1425 C 0.82588 0.73996 0.6753 0.0
N1426 N 0.7979 0.70707 0.64354 0.0
N1427 N 0.84982 0.81739 0.68387 0.0
C1428 C 0.80685 0.73229 0.65627 0.0
C1429 C 0.83387 0.78911 0.67663 0.0
N1430 N 0.77645 0.74295 0.63476 0.0
N1431 N 0.85443 0.77456 0.70578 0.0
H1432 H 0.84711 0.83339 0.6774 0.0
H1433 H 0.86711 0.82531 0.69492 0.0
H1434 H 0.85834 0.75981 0.71312 0.0
H1435 H 0.86184 0.79364 0.71582 0.0
H1436 H 0.76323 0.72155 0.62935 0.0
H1437 H 0.76986 0.75664 0.62939 0.0
H1438 H 0.78658 0.7019 0.62807 0.0
H1439 H 0.80395 0.69246 0.64722 0.0
C1440 C 1.00134 0.76419 0.66092 0.0
C1441 C 1.00769 0.79165 0.65466 0.0
C1442 C 0.96342 0.78275 0.66502 0.0
C1443 C 0.95808 0.75639 0.6733 0.0
N1444 N 0.97446 0.72476 0.68305 0.0
N1445 N 0.99713 0.82946 0.65516 0.0
C1446 C 0.97775 0.74785 0.67231 0.0
C1447 C 0.98943 0.80164 0.65806 0.0
N1448 N 1.01746 0.75334 0.65542 0.0
N1449 N 0.94329 0.78915 0.66242 0.0
H1450 H 1.01595 0.84399 0.65004 0.0
H1451 H 0.98587 0.8388 0.65985 0.0
H1452 H 0.9236 0.77567 0.66628 0.0
H1453 H 0.94536 0.80652 0.65413 0.0
H1454 H 1.01234 0.73227 0.65729 0.0
H1455 H 0.03488 0.76466 0.64714 0.0
H1456 H 0.98929 0.71913 0.68482 0.0
H1457 H 0.958 0.71288 0.69223 0.0
C1458 C 0.25427 0.23643 0.65398 0.0
C1459 C 0.24439 0.2259 0.6312 0.0
C1460 C 0.2675 0.19805 0.6316 0.0
C1461 C 0.27688 0.20814 0.65453 0.0
N1462 N 0.27583 0.2329 0.68879 0.0
N1463 N 0.23756 0.19336 0.59927 0.0
C1464 C 0.26905 0.22594 0.66614 0.0
C1465 C 0.24986 0.2057 0.62027 0.0
N1466 N 0.25065 0.25754 0.66363 0.0
N1467 N 0.27552 0.18114 0.62069 0.0
H1468 H 0.22451 0.19845 0.59058 0.0
H1469 H 0.23854 0.17662 0.591 0.0
H1470 H 0.28684 0.17346 0.6288 0.0
H1471 H 0.27187 0.17538 0.60345 0.0
H1472 H 0.25998 0.26859 0.6792 0.0
H1473 H 0.23975 0.26559 0.65538 0.0
H1474 H 0.26817 0.24299 0.69876 0.0
H1475 H 0.28774 0.22683 0.69807 0.0
C1476 C 0.8322 0.06628 0.63757 0.0
C1477 C 0.81407 0.04183 0.64816 0.0
C1478 C 0.81495 0.073 0.68003 0.0
C1479 C 0.83096 0.09743 0.66837 0.0
N1480 N 0.85039 0.11669 0.63383 0.0
N1481 N 0.78562 0.02143 0.6782 0.0
C1482 C 0.83852 0.09391 0.64658 0.0
C1483 C 0.80473 0.04506 0.66907 0.0
N1484 N 0.84371 0.06313 0.61895 0.0
N1485 N 0.81038 0.07648 0.7019 0.0
H1486 H 0.77838 1.0007 0.67101 0.0
H1487 H 0.77563 0.02239 0.69199 0.0
H1488 H 0.81772 0.0965 0.7105 0.0
H1489 H 0.80132 0.05972 0.71213 0.0
H1490 H 0.85945 0.08022 0.61202 0.0
H1491 H 0.83923 0.04325 0.61154 0.0
H1492 H 0.85333 0.11477 0.61691 0.0
H1493 H 0.85493 0.13724 0.63932 0.0
C1494 C 0.44827 0.29536 0.74202 0.0
C1495 C 0.4483 0.31952 0.73402 0.0
C1496 C 0.41506 0.28865 0.7028 0.0
C1497 C 0.4118 0.26391 0.71282 0.0
N1498 N 0.42339 0.24452 0.74469 0.0
N1499 N 0.42991 0.33923 0.70798 0.0
C1500 C 0.42808 0.26745 0.73304 0.0
C1501 C 0.43119 0.31619 0.71472 0.0
N1502 N 0.46777 0.29908 0.75819 0.0
N1503 N 0.40398 0.28613 0.6814 0.0
H1504 H 0.442 0.3598 0.71587 0.0
H1505 H 0.41555 0.33757 0.69568 0.0
H1506 H 0.39346 0.26672 0.67158 0.0
H1507 H 0.40779 0.30361 0.67246 0.0
H1508 H 0.47081 0.28255 0.76281 0.0
H1509 H 0.48264 0.31915 0.76544 0.0
H1510 H 0.43239 0.24649 0.76079 0.0
H1511 H 0.40847 0.22361 0.73977 0.0
C1512 C 0.70609 0.11108 0.72605 0.0
C1513 C 0.70555 0.12859 0.74425 0.0
C1514 C 0.75115 0.16637 0.73772 0.0
C1515 C 0.75296 0.1476 0.72133 0.0
N1516 N 0.73356 0.1001 0.7027 0.0
N1517 N 0.72909 0.17116 0.76983 0.0
C1518 C 0.73073 0.11945 0.71609 0.0
C1519 C 0.72852 0.15577 0.75077 0.0
N1520 N 0.68292 0.0866 0.71806 0.0
N1521 N 0.77044 0.1947 0.74015 0.0
H1522 H 0.71283 0.16433 0.7797 0.0
H1523 H 0.74646 0.18946 0.77692 0.0
H1524 H 0.78667 0.20369 0.73023 0.0
H1525 H 0.76883 0.20989 0.75026 0.0
H1526 H 0.68131 0.07455 0.70331 0.0
H1527 H 0.66461 0.07965 0.72508 0.0
H1528 H 0.71905 0.07848 0.70033 0.0
H1529 H 0.75141 0.10492 0.69562 0.0
C1530 C 0.90983 0.60711 0.71238 0.0
C1531 C 0.88956 0.57887 0.71576 0.0
C1532 C 0.85567 0.58673 0.69553 0.0
C1533 C 0.87533 0.61605 0.69463 0.0
N1534 N 0.92271 0.64784 0.69071 0.0
N1535 N 0.84282 0.54168 0.71134 0.0
C1536 C 0.90298 0.62466 0.69982 0.0
C1537 C 0.86238 0.56861 0.70745 0.0
N1538 N 0.93559 0.61752 0.72171 0.0
N1539 N 0.83148 0.57556 0.68296 0.0
H1540 H 0.84703 0.52734 0.71908 0.0
H1541 H 0.82226 0.53418 0.70834 0.0
H1542 H 0.82758 0.58723 0.67148 0.0
H1543 H 0.81688 0.55395 0.68135 0.0
H1544 H 0.9505 0.63897 0.72218 0.0
H1545 H 0.94146 0.60526 0.73076 0.0
H1546 H 0.94307 0.65407 0.69274 0.0
H1547 H 0.91847 0.65774 0.67789 0.0
C1548 C 0.4884 0.02014 0.11659 0.0
C1549 C 0.50058 1.00678 0.12844 0.0
C1550 C 0.53281 0.01819 0.0997 0.0
C1551 C 0.51844 0.02816 0.0865 0.0
N1552 N 0.48196 0.03777 0.0815 0.0
N1553 N 0.53217 0.98975 0.13002 0.0
C1554 C 0.49611 0.02901 0.09475 0.0
C1555 C 0.52237 1.00512 0.11975 0.0
N1556 N 0.47003 0.0251 0.12654 0.0
N1557 N 0.55648 0.02123 0.09306 0.0
H1558 H 0.52493 0.97961 0.1446 0.0
H1559 H 0.54588 0.98498 0.12312 0.0
H1560 H 0.56441 0.02995 0.07818 0.0
H1561 H 0.56935 0.01716 0.1031 0.0
H1562 H 0.46235 0.03721 0.11984 0.0
H1563 H 0.46406 0.01906 0.14254 0.0
H1564 H 0.4635 0.03552 0.08518 0.0
H1565 H 0.48801 0.04596 0.06604 0.0
C1566 C 0.04593 0.54274 0.12424 0.0
C1567 C 0.05097 0.52056 0.12947 0.0
C1568 C 0.02987 0.49589 0.09205 0.0
C1569 C 0.02827 0.52002 0.08561 0.0
N1570 N 0.04123 0.56963 0.09524 0.0
N1571 N 0.0523 0.47847 0.11676 0.0
C1572 C 0.03799 0.5443 0.10164 0.0
C1573 C 0.04436 0.4979 0.11287 0.0
N1574 N 0.04804 0.56207 0.14098 0.0
N1575 N 1.01612 0.47039 0.07923 0.0
H1576 H 0.06292 0.47926 0.13176 0.0
H1577 H 0.05062 0.46337 0.10431 0.0
H1578 H 1.00371 0.4671 0.06474 0.0
H1579 H 1.01463 0.4516 0.08436 0.0
H1580 H 0.04155 0.57666 0.13853 0.0
H1581 H 0.05366 0.56169 0.1578 0.0
H1582 H 0.05089 0.5885 0.1058 0.0
H1583 H 0.03791 0.57317 0.07875 0.0
C1584 C 0.51336 0.54752 0.11506 0.0
C1585 C 0.49889 0.5215 0.12511 0.0
C1586 C 0.50701 0.4965 0.09348 0.0
C1587 C 0.52358 0.52309 0.08443 0.0
N1588 N 0.54715 0.5748 0.09024 0.0
N1589 N 0.48512 0.47172 0.1258 0.0
C1590 C 0.5282 0.54884 0.09633 0.0
C1591 C 0.49641 0.49605 0.11475 0.0
N1592 N 0.51203 0.5709 0.12281 0.0
N1593 N 0.50182 0.47158 0.08205 0.0
H1594 H 0.47736 0.47062 0.14138 0.0
H1595 H 0.48534 0.45327 0.12053 0.0
H1596 H 0.51172 0.47087 0.06811 0.0
H1597 H 0.48692 0.4515 0.08591 0.0
H1598 H 0.51936 0.58945 0.11445 0.0
H1599 H 0.50107 0.57076 0.13626 0.0
H1600 H 0.55336 0.59398 0.09981 0.0
H1601 H 0.55873 0.57721 0.07693 0.0
C1602 C 0.98395 0.50622 0.92794 0.0
C1603 C 1.00361 0.51966 0.91255 0.0
C1604 C 0.03947 0.53338 0.94325 0.0
C1605 C 0.01963 0.52158 0.959 0.0
N1606 N 0.97348 0.50416 0.96647 0.0
N1607 N 0.05019 0.54931 0.9057 0.0
C1608 C 0.99204 0.51016 0.95133 0.0
C1609 C 0.03146 0.53419 0.92025 0.0
N1610 N 0.9574 0.48915 0.92018 0.0
N1611 N 0.06599 0.54384 0.9503 0.0
H1612 H 0.04498 0.54963 0.88875 0.0
H1613 H 0.07059 0.5629 0.91062 0.0
H1614 H 0.07281 0.546 0.96721 0.0
H1615 H 0.0811 0.54946 0.93938 0.0
H1616 H 0.94258 0.476 0.93031 0.0
H1617 H 0.95051 0.48598 0.90319 0.0
H1618 H 0.95342 0.49808 0.96216 0.0
H1619 H 0.97943 0.5096 0.9834 0.0
C1620 C 0.55107 0.53637 0.93456 0.0
C1621 C 0.53609 0.51252 0.91853 0.0
C1622 C 0.50176 0.4898 0.9453 0.0
C1623 C 0.51559 0.51487 0.9607 0.0
N1624 N 0.549 0.5652 0.96571 0.0
N1625 N 0.49405 0.46956 0.90666 0.0
C1626 C 0.53905 0.53908 0.95416 0.0
C1627 C 0.51044 0.49022 0.92329 0.0
N1628 N 0.57704 0.55627 0.93137 0.0
N1629 N 0.48152 0.46478 0.9519 0.0
H1630 H 0.49968 0.46898 0.89038 0.0
H1631 H 0.47393 0.45466 0.90839 0.0
H1632 H 0.47544 0.46209 0.96812 0.0
H1633 H 0.47305 0.4454 0.94207 0.0
H1634 H 0.58983 0.57236 0.94373 0.0
H1635 H 0.58655 0.55504 0.91727 0.0
H1636 H 0.5647 0.58391 0.96047 0.0
H1637 H 0.53949 0.56883 0.97882 0.0
C1638 C 0.54074 0.03976 0.92961 0.0
C1639 C 0.51977 0.02278 0.9127 0.0
C1640 C 0.4906 0.99512 0.9415 0.0
C1641 C 0.51203 1.01129 0.95875 0.0
N1642 N 0.5539 0.05587 0.96874 0.0
N1643 N 0.47678 0.98109 0.90157 0.0
C1644 C 0.53621 0.03539 0.95268 0.0
C1645 C 0.49538 0.99941 0.91839 0.0
N1646 N 0.56537 0.05997 0.92356 0.0
N1647 N 0.46476 0.97847 0.94712 0.0
H1648 H 0.47957 0.98396 0.88454 0.0
H1649 H 0.45997 0.96171 0.90439 0.0
H1650 H 0.45915 0.97852 0.96341 0.0
H1651 H 0.44805 0.9681 0.93535 0.0
H1652 H 0.58264 0.07064 0.93474 0.0
H1653 H 0.56932 0.06438 0.90692 0.0
H1654 H 0.56953 0.07573 0.96526 0.0
H1655 H 0.55142 0.05472 0.98568 0.0
C1656 C 0.17527 0.37005 0.45805 0.0
C1657 C 0.17005 0.3431 0.46471 0.0
C1658 C 0.16717 0.32646 0.42549 0.0
C1659 C 0.17633 0.35444 0.41863 0.0
N1660 N 0.18711 0.40291 0.4288 0.0
N1661 N 0.16721 0.29793 0.45527 0.0
C1662 C 0.18004 0.37637 0.43512 0.0
C1663 C 0.16847 0.32229 0.44861 0.0
N1664 N 0.17473 0.38916 0.47351 0.0
N1665 N 0.15415 0.30318 0.4103 0.0
H1666 H 0.16735 0.29366 0.47211 0.0
H1667 H 0.16877 0.28347 0.44417 0.0
H1668 H 0.14584 0.30446 0.39491 0.0
H1669 H 0.14626 0.28225 0.41457 0.0
H1670 H 0.17525 0.40787 0.46947 0.0
H1671 H 0.17247 0.38557 0.49049 0.0
H1672 H 0.19397 0.42083 0.44013 0.0
H1673 H 0.186 0.40703 0.41204 0.0
C1674 C 0.71564 0.87539 0.45368 0.0
C1675 C 0.71391 0.85046 0.46186 0.0
C1676 C 0.68965 0.82319 0.42575 0.0
C1677 C 0.68938 0.84758 0.41835 0.0
N1678 N 0.69962 0.89634 0.42645 0.0
N1679 N 0.69663 0.79974 0.45699 0.0
C1680 C 0.70139 0.87339 0.43277 0.0
C1681 C 0.70038 0.82414 0.44816 0.0
N1682 N 0.73209 0.90135 0.46541 0.0
N1683 N 0.67921 0.7989 0.4115 0.0
H1684 H 0.70405 0.79956 0.47327 0.0
H1685 H 0.6845 0.77934 0.44897 0.0
H1686 H 0.66914 0.79651 0.39581 0.0
H1687 H 0.68181 0.78167 0.4146 0.0
H1688 H 0.73694 0.92077 0.45911 0.0
H1689 H 0.74306 0.90376 0.48065 0.0
H1690 H 0.70455 0.9141 0.43743 0.0
H1691 H 0.69218 0.8974 0.41047 0.0
C1692 C 0.17021 0.8666 0.44921 0.0
C1693 C 0.16501 0.84386 0.46261 0.0
C1694 C 0.17913 0.82248 0.43258 0.0
C1695 C 0.18731 0.84709 0.42052 0.0
N1696 N 0.19828 0.89632 0.42196 0.0
N1697 N 0.16787 0.80175 0.46847 0.0
C1698 C 0.18477 0.87012 0.43002 0.0
C1699 C 0.17036 0.82216 0.45467 0.0
N1700 N 0.16103 0.88483 0.45465 0.0
N1701 N 0.17892 0.79909 0.42274 0.0
H1702 H 0.1614 0.80079 0.48458 0.0
H1703 H 0.1742 0.7872 0.46464 0.0
H1704 H 0.18535 0.79864 0.40678 0.0
H1705 H 0.17041 0.77945 0.42962 0.0
H1706 H 0.16195 0.89998 0.44407 0.0
H1707 H 0.15004 0.88286 0.46851 0.0
H1708 H 0.19883 0.91445 0.42931 0.0
H1709 H 0.21222 0.90068 0.41019 0.0
C1710 C 0.64405 0.84176 0.26329 0.0
C1711 C 0.66303 0.85494 0.24734 0.0
C1712 C 0.69958 0.86648 0.27669 0.0
C1713 C 0.6803 0.84885 0.29134 0.0
N1714 N 0.63386 0.8136 0.29494 0.0
N1715 N 0.70924 0.8778 0.23814 0.0
C1716 C 0.65239 0.83522 0.28386 0.0
C1717 C 0.69097 0.8669 0.25386 0.0
N1718 N 0.61789 0.83506 0.25873 0.0
N1719 N 0.72599 0.88356 0.28471 0.0
H1720 H 0.70373 0.87872 0.22141 0.0
H1721 H 0.72949 0.88387 0.24131 0.0
H1722 H 0.73287 0.88468 0.30145 0.0
H1723 H 0.74046 0.89878 0.27543 0.0
H1724 H 0.60386 0.82787 0.27073 0.0
H1725 H 0.61102 0.83949 0.24377 0.0
H1726 H 0.61345 0.80145 0.28936 0.0
H1727 H 0.6399 0.80483 0.30728 0.0
C1728 C 0.17648 0.82803 0.25729 0.0
C1729 C 0.20314 0.84899 0.25333 0.0
C1730 C 0.2081 0.8739 0.2903 0.0
C1731 C 0.18309 0.8509 0.29556 0.0
N1732 N 0.14507 0.80361 0.28494 0.0
N1733 N 0.24611 0.88937 0.26774 0.0
C1734 C 0.16754 0.82739 0.27921 0.0
C1735 C 0.21947 0.87125 0.27032 0.0
N1736 N 0.15943 0.8091 0.23998 0.0
N1737 N 0.22034 0.89893 0.30376 0.0
H1738 H 0.25527 0.88798 0.25346 0.0
H1739 H 0.25959 0.90396 0.28065 0.0
H1740 H 0.2119 0.90204 0.31792 0.0
H1741 H 0.23732 0.91736 0.29962 0.0
H1742 H 0.13892 0.79539 0.24125 0.0
H1743 H 0.16518 0.80887 0.22371 0.0
H1744 H 0.13483 0.78464 0.27454 0.0
H1745 H 0.13824 0.8016 0.30095 0.0
C1746 C 0.20408 0.3543 0.26404 0.0
C1747 C 0.18691 0.36068 0.25064 0.0
C1748 C 0.15263 0.34104 0.27786 0.0
C1749 C 0.17059 0.33659 0.29206 0.0
N1750 N 0.20968 0.33134 0.29627 0.0
N1751 N 0.14598 0.36261 0.24525 0.0
C1752 C 0.19532 0.3411 0.28446 0.0
C1753 C 0.16136 0.35443 0.25757 0.0
N1754 N 0.22917 0.36194 0.25763 0.0
N1755 N 0.12681 0.33138 0.28331 0.0
H1756 H 0.15117 0.37163 0.22995 0.0
H1757 H 0.12898 0.36233 0.25079 0.0
H1758 H 0.11947 0.32118 0.2978 0.0
H1759 H 0.11176 0.33106 0.27262 0.0
H1760 H 0.24403 0.36115 0.26777 0.0
H1761 H 0.23582 0.37078 0.24247 0.0
H1762 H 0.22663 0.33142 0.29084 0.0
H1763 H 0.20334 0.32103 0.31094 0.0
C1764 C 0.83305 0.6475 0.78166 0.0
C1765 C 0.83586 0.6691 0.79769 0.0
C1766 C 0.84855 0.70288 0.76837 0.0
C1767 C 0.84649 0.6814 0.7523 0.0
N1768 N 0.82486 0.63035 0.74262 0.0
N1769 N 0.84912 0.7181 0.80759 0.0
C1770 C 0.83561 0.65288 0.75861 0.0
C1771 C 0.84435 0.69702 0.79138 0.0
N1772 N 0.82795 0.62166 0.78847 0.0
N1773 N 0.852 0.72795 0.76118 0.0
H1774 H 0.84593 0.71431 0.82445 0.0
H1775 H 0.85816 0.73962 0.80487 0.0
H1776 H 0.85195 0.73157 0.7442 0.0
H1777 H 0.8516 0.74377 0.77145 0.0
H1778 H 0.82934 0.60646 0.77815 0.0
H1779 H 0.82476 0.61632 0.80502 0.0
H1780 H 0.81521 0.60907 0.74619 0.0
H1781 H 0.82067 0.63247 0.72606 0.0
C1782 C 0.37247 0.16142 0.77745 0.0
C1783 C 0.37922 0.18447 0.79371 0.0
C1784 C 0.3649 0.20689 0.76559 0.0
C1785 C 0.35529 0.18225 0.74996 0.0
N1786 N 0.34292 0.13251 0.74482 0.0
N1787 N 0.37566 0.22573 0.80472 0.0
C1788 C 0.35716 0.1585 0.75691 0.0
C1789 C 0.37347 0.20611 0.78823 0.0
N1790 N 0.38104 0.14252 0.78138 0.0
N1791 N 0.36774 0.23188 0.75875 0.0
H1792 H 0.38176 0.22589 0.82152 0.0
H1793 H 0.36882 0.24 0.80213 0.0
H1794 H 0.36428 0.23498 0.74216 0.0
H1795 H 0.37725 0.25097 0.76904 0.0
H1796 H 0.37911 0.12715 0.76906 0.0
H1797 H 0.39238 0.14402 0.79614 0.0
H1798 H 0.34195 0.11407 0.75025 0.0
H1799 H 0.32937 0.12852 0.73097 0.0
C1800 C 0.83237 0.16511 0.78371 0.0
C1801 C 0.83533 0.19104 0.79349 0.0
C1802 C 0.86453 0.21704 0.7642 0.0
C1803 C 0.85952 0.19081 0.75297 0.0
N1804 N 0.83733 0.13933 0.75167 0.0
N1805 N 0.84944 0.24056 0.79043 0.0
C1806 C 0.84283 0.16466 0.76254 0.0
C1807 C 0.85005 0.21666 0.78296 0.0
N1808 N 0.82068 0.14116 0.7952 0.0
N1809 N 0.88354 0.24253 0.7574 0.0
H1810 H 0.83897 0.24112 0.80405 0.0
H1811 H 0.85702 0.25892 0.78181 0.0
H1812 H 0.89486 0.24409 0.74404 0.0
H1813 H 0.89004 0.26214 0.76638 0.0
H1814 H 0.82056 0.12239 0.79038 0.0
H1815 H 0.81281 0.14064 0.81065 0.0
H1816 H 0.82231 0.1195 0.75585 0.0
H1817 H 0.84719 0.13801 0.73788 0.0
C1818 C 0.3464 0.20418 0.59478 0.0
C1819 C 0.32382 0.17923 0.58374 0.0
C1820 C 0.32699 0.15105 0.61347 0.0
C1821 C 0.34792 0.17635 0.62587 0.0
N1822 N 0.37634 0.22775 0.62874 0.0
N1823 N 0.28863 0.13048 0.58551 0.0
C1824 C 0.35703 0.20318 0.61673 0.0
C1825 C 0.31299 0.15315 0.59396 0.0
N1826 N 0.35861 0.22852 0.5838 0.0
N1827 N 0.32067 0.12476 0.61981 0.0
H1828 H 0.27748 0.13128 0.57149 0.0
H1829 H 0.27814 0.11202 0.59379 0.0
H1830 H 0.33043 0.12187 0.63358 0.0
H1831 H 0.30768 0.10577 0.61004 0.0
H1832 H 0.37689 0.2465 0.58972 0.0
H1833 H 0.3516 0.23001 0.56774 0.0
H1834 H 0.38103 0.24806 0.62459 0.0
H1835 H 0.38705 0.22795 0.64344 0.0
C1836 C 0.88364 0.20978 0.60116 0.0
C1837 C 0.8659 0.18562 0.58609 0.0
C1838 C 0.83359 0.16735 0.615 0.0
C1839 C 0.85079 0.19225 0.62961 0.0
N1840 N 0.88864 0.24013 0.63446 0.0
N1841 N 0.82177 0.14427 0.57696 0.0
C1842 C 0.87474 0.21438 0.622 0.0
C1843 C 0.84018 0.16526 0.59252 0.0
N1844 N 0.9094 0.22772 0.596 0.0
N1845 N 0.81147 0.14516 0.62286 0.0
H1846 H 0.82589 0.14202 0.5604 0.0
H1847 H 0.80173 0.13062 0.57985 0.0
H1848 H 0.80537 0.14612 0.63888 0.0
H1849 H 0.80021 0.12507 0.6141 0.0
H1850 H 0.92418 0.24375 0.6074 0.0
H1851 H 0.91674 0.225 0.581 0.0
H1852 H 0.90504 0.25801 0.62899 0.0
H1853 H 0.88181 0.24442 0.64919 0.0
C1854 C 0.8753 0.70598 0.59546 0.0
C1855 C 0.85363 0.6919 0.57858 0.0
C1856 C 0.82354 0.66386 0.60674 0.0
C1857 C 0.84548 0.67744 0.62394 0.0
N1858 N 0.88937 0.71894 0.63489 0.0
N1859 N 0.80877 0.65379 0.56675 0.0
C1860 C 0.87067 0.70042 0.61835 0.0
C1861 C 0.82828 0.66968 0.58383 0.0
N1862 N 0.90058 0.72456 0.58955 0.0
N1863 N 0.79761 0.64814 0.61244 0.0
H1864 H 0.81152 0.65783 0.54989 0.0
H1865 H 0.791 0.63502 0.56898 0.0
H1866 H 0.79236 0.64671 0.62894 0.0
H1867 H 0.78071 0.63996 0.60091 0.0
H1868 H 0.91798 0.7326 0.60048 0.0
H1869 H 0.9046 0.7299 0.57308 0.0
H1870 H 0.90685 0.7376 0.63195 0.0
H1871 H 0.88572 0.71818 0.65164 0.0
loop_
_geom_bond_atom_site_label_1
_geom_bond_atom_site_label_2
_geom_bond_distance
_geom_bond_site_symmetry_2
_ccdc_geom_bond_type
C0 C1 1.264 . S
C0 C5 1.479 . S
C0 C10 1.465 . S
C1 C0 1.264 . S
C1 C3 1.339 . S
C1 H28 0.931 . S
C2 C3 1.395 . S
C2 C4 1.320 . S
C3 C1 1.339 . S
C3 C2 1.395 . S
C3 H29 0.929 . S
C4 C2 1.320 . S
C4 C5 1.405 . S
C4 H30 0.930 . S
C5 C0 1.479 . S
C5 C4 1.405 . S
C5 H31 0.931 . S
U6 O7 2.454 . S
U6 O8 2.458 . S
U6 C9 2.984 . S
U6 C10 2.847 . S
U6 C23 2.882 . S
U6 O24 2.441 . S
U6 O25 2.420 . S
U6 O26 2.455 . S
U6 O27 2.449 . S
O7 U6 2.454 . S
O7 C9 1.353 . S
O8 U6 2.458 . S
O8 C9 1.286 . S
C9 U6 2.984 . S
C9 O7 1.353 . S
C9 O8 1.286 . S
C9 C11 1.363 . S
C10 C0 1.465 . S
C10 U6 2.847 . S
C10 O24 1.249 . S
C10 O25 1.202 . S
C11 C9 1.363 . S
C11 C13 1.408 . S
C11 C16 1.342 . S
C12 C13 1.310 . S
C12 C15 1.461 . S
C12 H32 0.932 . S
C13 C11 1.408 . S
C13 C12 1.310 . S
C13 H33 0.930 . S
C14 C15 1.474 . S
C14 C16 1.285 . S
C14 H34 0.929 . S
C15 C12 1.461 . S
C15 C14 1.474 . S
C16 C11 1.342 . S
C16 C14 1.285 . S
C16 H35 0.930 . S
C17 C20 1.424 . S
C17 C22 1.245 . S
C17 C23 1.428 . S
C18 C21 1.260 . S
C18 C22 1.477 . S
C18 H36 0.932 . S
C19 C20 1.384 . S
C19 C21 1.479 . S
C19 H37 0.929 . S
C20 C17 1.424 . S
C20 C19 1.384 . S
C20 H38 0.928 . S
C21 C18 1.260 . S
C21 C19 1.479 . S
C22 C17 1.245 . S
C22 C18 1.477 . S
C22 H39 0.932 . S
C23 U6 2.882 . S
C23 C17 1.428 . S
C23 O26 1.301 . S
C23 O27 1.282 . S
O24 U6 2.441 . S
O24 C10 1.249 . S
O25 U6 2.420 . S
O25 C10 1.202 . S
O26 U6 2.455 . S
O26 C23 1.301 . S
O27 U6 2.449 . S
O27 C23 1.282 . S
H28 C1 0.931 . S
H29 C3 0.929 . S
H30 C4 0.930 . S
H31 C5 0.931 . S
H32 C12 0.932 . S
H33 C13 0.930 . S
H34 C14 0.929 . S
H35 C16 0.930 . S
H36 C18 0.932 . S
H37 C19 0.929 . S
H38 C20 0.928 . S
H39 C22 0.932 . S
C40 C41 1.264 . S
C40 C45 1.479 . S
C40 C50 1.465 . S
C41 C40 1.264 . S
C41 C43 1.339 . S
C41 H68 0.931 . S
C42 C43 1.395 . S
C42 C44 1.320 . S
C43 C41 1.339 . S
C43 C42 1.395 . S
C43 H69 0.929 . S
C44 C42 1.320 . S
C44 C45 1.405 . S
C44 H70 0.930 . S
C45 C40 1.479 . S
C45 C44 1.405 . S
C45 H71 0.931 . S
U46 O47 2.454 . S
U46 O48 2.458 . S
U46 C49 2.984 . S
U46 C50 2.847 . S
U46 C63 2.882 . S
U46 O64 2.441 . S
U46 O65 2.420 . S
U46 O66 2.455 . S
U46 O67 2.449 . S
O47 U46 2.454 . S
O47 C49 1.353 . S
O48 U46 2.458 . S
O48 C49 1.286 . S
C49 U46 2.984 . S
C49 O47 1.353 . S
C49 O48 1.286 . S
C49 C51 1.363 . S
C50 C40 1.465 . S
C50 U46 2.847 . S
C50 O64 1.249 . S
C50 O65 1.202 . S
C51 C49 1.363 . S
C51 C53 1.408 . S
C51 C56 1.342 . S
C52 C53 1.310 . S
C52 C55 1.461 . S
C52 H72 0.932 . S
C53 C51 1.408 . S
C53 C52 1.310 . S
C53 H73 0.930 . S
C54 C55 1.474 . S
C54 C56 1.285 . S
C54 H74 0.929 . S
C55 C52 1.461 . S
C55 C54 1.474 . S
C56 C51 1.342 . S
C56 C54 1.285 . S
C56 H75 0.930 . S
C57 C60 1.424 . S
C57 C62 1.245 . S
C57 C63 1.428 . S
C58 C61 1.260 . S
C58 C62 1.477 . S
C58 H76 0.932 . S
C59 C60 1.384 . S
C59 C61 1.479 . S
C59 H77 0.929 . S
C60 C57 1.424 . S
C60 C59 1.384 . S
C60 H78 0.928 . S
C61 C58 1.260 . S
C61 C59 1.479 . S
C62 C57 1.245 . S
C62 C58 1.477 . S
C62 H79 0.932 . S
C63 U46 2.882 . S
C63 C57 1.428 . S
C63 O66 1.301 . S
C63 O67 1.282 . S
O64 U46 2.441 . S
O64 C50 1.249 . S
O65 U46 2.420 . S
O65 C50 1.202 . S
O66 U46 2.455 . S
O66 C63 1.301 . S
O67 U46 2.449 . S
O67 C63 1.282 . S
H68 C41 0.931 . S
H69 C43 0.929 . S
H70 C44 0.930 . S
H71 C45 0.931 . S
H72 C52 0.932 . S
H73 C53 0.930 . S
H74 C54 0.929 . S
H75 C56 0.930 . S
H76 C58 0.932 . S
H77 C59 0.929 . S
H78 C60 0.928 . S
H79 C62 0.932 . S
C80 C81 1.264 . S
C80 C85 1.479 . S
C80 C90 1.465 . S
C81 C80 1.264 . S
C81 C83 1.339 . S
C81 H108 0.931 . S
C82 C83 1.395 . S
C82 C84 1.320 . S
C83 C81 1.339 . S
C83 C82 1.395 . S
C83 H109 0.929 . S
C84 C82 1.320 . S
C84 C85 1.405 . S
C84 H110 0.930 . S
C85 C80 1.479 . S
C85 C84 1.405 . S
C85 H111 0.931 . S
U86 O87 2.454 . S
U86 O88 2.458 . S
U86 C89 2.984 . S
U86 C90 2.847 . S
U86 C103 2.882 . S
U86 O104 2.441 . S
U86 O105 2.420 . S
U86 O106 2.455 . S
U86 O107 2.449 . S
O87 U86 2.454 . S
O87 C89 1.353 . S
O88 U86 2.458 . S
O88 C89 1.286 . S
C89 U86 2.984 . S
C89 O87 1.353 . S
C89 O88 1.286 . S
C89 C91 1.363 . S
C90 C80 1.465 . S
C90 U86 2.847 . S
C90 O104 1.249 . S
C90 O105 1.202 . S
C91 C89 1.363 . S
C91 C93 1.408 . S
C91 C96 1.342 . S
C92 C93 1.310 . S
C92 C95 1.462 . S
C92 H112 0.932 . S
C93 C91 1.408 . S
C93 C92 1.310 . S
C93 H113 0.930 . S
C94 C95 1.474 . S
C94 C96 1.285 . S
C94 H114 0.929 1_655 S
C95 C92 1.462 . S
C95 C94 1.474 . S
C96 C91 1.342 . S
C96 C94 1.285 . S
C96 H115 0.930 . S
C97 C100 1.424 . S
C97 C102 1.245 . S
C97 C103 1.428 . S
C98 C101 1.260 . S
C98 C102 1.477 . S
C98 H116 0.932 . S
C99 C100 1.384 . S
C99 C101 1.479 . S
C99 H117 0.929 . S
C100 C97 1.424 . S
C100 C99 1.384 . S
C100 H118 0.928 . S
C101 C98 1.260 . S
C101 C99 1.479 . S
C102 C97 1.245 . S
C102 C98 1.477 . S
C102 H119 0.932 . S
C103 U86 2.882 . S
C103 C97 1.428 . S
C103 O106 1.301 . S
C103 O107 1.282 . S
O104 U86 2.441 . S
O104 C90 1.249 . S
O105 U86 2.420 . S
O105 C90 1.202 . S
O106 U86 2.455 . S
O106 C103 1.301 . S
O107 U86 2.449 . S
O107 C103 1.282 . S
H108 C81 0.931 . S
H109 C83 0.929 . S
H110 C84 0.930 . S
H111 C85 0.931 . S
H112 C92 0.932 . S
H113 C93 0.930 . S
H114 C94 0.929 1_455 S
H115 C96 0.930 . S
H116 C98 0.932 . S
H117 C99 0.929 . S
H118 C100 0.928 . S
H119 C102 0.932 . S
C120 C121 1.264 . S
C120 C125 1.479 . S
C120 C130 1.465 . S
C121 C120 1.264 . S
C121 C123 1.339 . S
C121 H148 0.931 . S
C122 C123 1.395 . S
C122 C124 1.320 . S
C123 C121 1.339 . S
C123 C122 1.395 . S
C123 H149 0.929 . S
C124 C122 1.320 . S
C124 C125 1.405 . S
C124 H150 0.930 . S
C125 C120 1.479 . S
C125 C124 1.405 . S
C125 H151 0.931 . S
U126 O127 2.454 . S
U126 O128 2.458 . S
U126 C129 2.984 . S
U126 C130 2.847 . S
U126 C143 2.882 . S
U126 O144 2.441 . S
U126 O145 2.420 . S
U126 O146 2.455 . S
U126 O147 2.449 . S
O127 U126 2.454 . S
O127 C129 1.353 . S
O128 U126 2.458 . S
O128 C129 1.286 . S
C129 U126 2.984 . S
C129 O127 1.353 . S
C129 O128 1.286 . S
C129 C131 1.363 . S
C130 C120 1.465 . S
C130 U126 2.847 . S
C130 O144 1.249 . S
C130 O145 1.202 . S
C131 C129 1.363 . S
C131 C133 1.408 . S
C131 C136 1.342 . S
C132 C133 1.310 . S
C132 C135 1.461 . S
C132 H152 0.932 . S
C133 C131 1.408 . S
C133 C132 1.310 . S
C133 H153 0.930 . S
C134 C135 1.474 . S
C134 C136 1.285 . S
C134 H154 0.929 . S
C135 C132 1.461 . S
C135 C134 1.474 . S
C136 C131 1.342 . S
C136 C134 1.285 . S
C136 H155 0.930 . S
C137 C140 1.424 . S
C137 C142 1.245 . S
C137 C143 1.428 . S
C138 C141 1.260 . S
C138 C142 1.477 . S
C138 H156 0.932 . S
C139 C140 1.384 . S
C139 C141 1.479 . S
C139 H157 0.929 . S
C140 C137 1.424 . S
C140 C139 1.384 . S
C140 H158 0.928 . S
C141 C138 1.260 . S
C141 C139 1.479 . S
C142 C137 1.245 . S
C142 C138 1.477 . S
C142 H159 0.932 . S
C143 U126 2.882 . S
C143 C137 1.428 . S
C143 O146 1.301 . S
C143 O147 1.282 . S
O144 U126 2.441 . S
O144 C130 1.249 . S
O145 U126 2.420 . S
O145 C130 1.202 . S
O146 U126 2.455 . S
O146 C143 1.301 . S
O147 U126 2.449 . S
O147 C143 1.282 . S
H148 C121 0.931 . S
H149 C123 0.929 . S
H150 C124 0.930 . S
H151 C125 0.931 . S
H152 C132 0.932 . S
H153 C133 0.930 . S
H154 C134 0.929 . S
H155 C136 0.930 . S
H156 C138 0.932 . S
H157 C139 0.929 . S
H158 C140 0.928 . S
H159 C142 0.932 . S
C160 C161 1.264 . S
C160 C165 1.479 . S
C160 C170 1.465 . S
C161 C160 1.264 . S
C161 C163 1.339 . S
C161 H188 0.931 . S
C162 C163 1.395 . S
C162 C164 1.320 . S
C163 C161 1.339 . S
C163 C162 1.395 . S
C163 H189 0.929 . S
C164 C162 1.320 . S
C164 C165 1.405 . S
C164 H190 0.930 . S
C165 C160 1.479 . S
C165 C164 1.405 . S
C165 H191 0.931 . S
U166 O167 2.454 . S
U166 O168 2.458 . S
U166 C169 2.984 . S
U166 C170 2.847 . S
U166 C183 2.882 . S
U166 O184 2.441 . S
U166 O185 2.420 . S
U166 O186 2.455 . S
U166 O187 2.449 . S
O167 U166 2.454 . S
O167 C169 1.353 . S
O168 U166 2.458 . S
O168 C169 1.286 . S
C169 U166 2.984 . S
C169 O167 1.353 . S
C169 O168 1.286 . S
C169 C171 1.363 . S
C170 C160 1.465 . S
C170 U166 2.847 . S
C170 O184 1.249 . S
C170 O185 1.202 . S
C171 C169 1.363 . S
C171 C173 1.408 . S
C171 C176 1.342 . S
C172 C173 1.310 . S
C172 C175 1.461 . S
C172 H192 0.932 . S
C173 C171 1.408 . S
C173 C172 1.310 . S
C173 H193 0.930 . S
C174 C175 1.474 . S
C174 C176 1.285 . S
C174 H194 0.929 . S
C175 C172 1.461 . S
C175 C174 1.474 . S
C176 C171 1.342 . S
C176 C174 1.285 . S
C176 H195 0.930 . S
C177 C180 1.424 . S
C177 C182 1.245 . S
C177 C183 1.428 . S
C178 C181 1.260 . S
C178 C182 1.477 . S
C178 H196 0.932 . S
C179 C180 1.384 . S
C179 C181 1.479 . S
C179 H197 0.929 . S
C180 C177 1.424 . S
C180 C179 1.384 . S
C180 H198 0.928 . S
C181 C178 1.260 . S
C181 C179 1.479 . S
C182 C177 1.245 . S
C182 C178 1.477 . S
C182 H199 0.932 . S
C183 U166 2.882 . S
C183 C177 1.428 . S
C183 O186 1.301 . S
C183 O187 1.282 . S
O184 U166 2.441 . S
O184 C170 1.249 . S
O185 U166 2.420 . S
O185 C170 1.202 . S
O186 U166 2.455 . S
O186 C183 1.301 . S
O187 U166 2.449 . S
O187 C183 1.282 . S
H188 C161 0.931 . S
H189 C163 0.929 . S
H190 C164 0.930 . S
H191 C165 0.931 . S
H192 C172 0.932 . S
H193 C173 0.930 . S
H194 C174 0.929 . S
H195 C176 0.930 . S
H196 C178 0.932 . S
H197 C179 0.929 . S
H198 C180 0.928 . S
H199 C182 0.932 . S
C200 C201 1.264 . S
C200 C205 1.479 . S
C200 C210 1.465 . S
C201 C200 1.264 . S
C201 C203 1.339 . S
C201 H228 0.931 . S
C202 C203 1.395 . S
C202 C204 1.320 . S
C203 C201 1.339 . S
C203 C202 1.395 . S
C203 H229 0.929 . S
C204 C202 1.320 . S
C204 C205 1.405 . S
C204 H230 0.930 . S
C205 C200 1.479 . S
C205 C204 1.405 . S
C205 H231 0.931 . S
U206 O207 2.454 . S
U206 O208 2.458 . S
U206 C209 2.984 . S
U206 C210 2.847 . S
U206 C223 2.882 . S
U206 O224 2.441 . S
U206 O225 2.420 . S
U206 O226 2.455 . S
U206 O227 2.449 . S
O207 U206 2.454 . S
O207 C209 1.353 . S
O208 U206 2.458 . S
O208 C209 1.286 . S
C209 U206 2.984 . S
C209 O207 1.353 . S
C209 O208 1.286 . S
C209 C211 1.363 . S
C210 C200 1.465 . S
C210 U206 2.847 . S
C210 O224 1.249 . S
C210 O225 1.202 . S
C211 C209 1.363 . S
C211 C213 1.408 . S
C211 C216 1.342 . S
C212 C213 1.310 . S
C212 C215 1.461 . S
C212 H232 0.932 . S
C213 C211 1.408 . S
C213 C212 1.310 . S
C213 H233 0.930 . S
C214 C215 1.474 . S
C214 C216 1.285 . S
C214 H234 0.929 . S
C215 C212 1.461 . S
C215 C214 1.474 . S
C216 C211 1.342 . S
C216 C214 1.285 . S
C216 H235 0.930 . S
C217 C220 1.424 . S
C217 C222 1.245 . S
C217 C223 1.428 . S
C218 C221 1.260 . S
C218 C222 1.477 . S
C218 H236 0.932 . S
C219 C220 1.384 . S
C219 C221 1.479 . S
C219 H237 0.929 . S
C220 C217 1.424 . S
C220 C219 1.384 . S
C220 H238 0.928 . S
C221 C218 1.260 . S
C221 C219 1.479 . S
C222 C217 1.245 . S
C222 C218 1.477 . S
C222 H239 0.932 . S
C223 U206 2.882 . S
C223 C217 1.428 . S
C223 O226 1.301 . S
C223 O227 1.282 . S
O224 U206 2.441 . S
O224 C210 1.249 . S
O225 U206 2.420 . S
O225 C210 1.202 . S
O226 U206 2.455 . S
O226 C223 1.301 . S
O227 U206 2.449 . S
O227 C223 1.282 . S
H228 C201 0.931 . S
H229 C203 0.929 . S
H230 C204 0.930 . S
H231 C205 0.931 . S
H232 C212 0.932 . S
H233 C213 0.930 . S
H234 C214 0.929 . S
H235 C216 0.930 . S
H236 C218 0.932 . S
H237 C219 0.929 . S
H238 C220 0.928 . S
H239 C222 0.932 . S
C240 C241 1.264 . S
C240 C245 1.479 . S
C240 C250 1.465 . S
C241 C240 1.264 . S
C241 C243 1.339 . S
C241 H268 0.931 . S
C242 C243 1.395 . S
C242 C244 1.320 . S
C243 C241 1.339 . S
C243 C242 1.395 . S
C243 H269 0.929 . S
C244 C242 1.320 . S
C244 C245 1.405 . S
C244 H270 0.930 . S
C245 C240 1.479 . S
C245 C244 1.405 . S
C245 H271 0.931 . S
U246 O247 2.454 . S
U246 O248 2.458 . S
U246 C249 2.984 . S
U246 C250 2.847 . S
U246 C263 2.882 . S
U246 O264 2.441 . S
U246 O265 2.420 . S
U246 O266 2.455 . S
U246 O267 2.449 . S
O247 U246 2.454 . S
O247 C249 1.353 . S
O248 U246 2.458 . S
O248 C249 1.286 . S
C249 U246 2.984 . S
C249 O247 1.353 . S
C249 O248 1.286 . S
C249 C251 1.363 . S
C250 C240 1.465 . S
C250 U246 2.847 . S
C250 O264 1.249 . S
C250 O265 1.202 . S
C251 C249 1.363 . S
C251 C253 1.408 . S
C251 C256 1.342 . S
C252 C253 1.310 . S
C252 C255 1.461 . S
C252 H272 0.932 . S
C253 C251 1.408 . S
C253 C252 1.310 . S
C253 H273 0.930 . S
C254 C255 1.474 . S
C254 C256 1.285 . S
C254 H274 0.929 . S
C255 C252 1.461 . S
C255 C254 1.474 . S
C256 C251 1.342 . S
C256 C254 1.285 . S
C256 H275 0.930 . S
C257 C260 1.424 . S
C257 C262 1.245 . S
C257 C263 1.428 . S
C258 C261 1.260 . S
C258 C262 1.477 . S
C258 H276 0.932 . S
C259 C260 1.384 . S
C259 C261 1.479 . S
C259 H277 0.929 . S
C260 C257 1.424 . S
C260 C259 1.384 . S
C260 H278 0.928 . S
C261 C258 1.260 . S
C261 C259 1.479 . S
C262 C257 1.245 . S
C262 C258 1.477 . S
C262 H279 0.932 . S
C263 U246 2.882 . S
C263 C257 1.428 . S
C263 O266 1.301 . S
C263 O267 1.282 . S
O264 U246 2.441 . S
O264 C250 1.249 . S
O265 U246 2.420 . S
O265 C250 1.202 . S
O266 U246 2.455 . S
O266 C263 1.301 . S
O267 U246 2.449 . S
O267 C263 1.282 . S
H268 C241 0.931 . S
H269 C243 0.929 . S
H270 C244 0.930 . S
H271 C245 0.931 . S
H272 C252 0.932 . S
H273 C253 0.930 . S
H274 C254 0.929 . S
H275 C256 0.930 . S
H276 C258 0.932 . S
H277 C259 0.929 . S
H278 C260 0.928 . S
H279 C262 0.932 . S
C280 C281 1.264 . S
C280 C285 1.479 . S
C280 C290 1.465 . S
C281 C280 1.264 . S
C281 C283 1.339 . S
C281 H308 0.931 . S
C282 C283 1.395 . S
C282 C284 1.320 . S
C283 C281 1.339 . S
C283 C282 1.395 . S
C283 H309 0.929 . S
C284 C282 1.320 . S
C284 C285 1.405 . S
C284 H310 0.930 . S
C285 C280 1.479 . S
C285 C284 1.405 . S
C285 H311 0.931 . S
U286 O287 2.454 . S
U286 O288 2.458 . S
U286 C289 2.984 . S
U286 C290 2.847 . S
U286 C303 2.882 . S
U286 O304 2.441 . S
U286 O305 2.420 . S
U286 O306 2.455 . S
U286 O307 2.449 . S
O287 U286 2.454 . S
O287 C289 1.353 . S
O288 U286 2.458 . S
O288 C289 1.286 . S
C289 U286 2.984 . S
C289 O287 1.353 . S
C289 O288 1.286 . S
C289 C291 1.363 . S
C290 C280 1.465 . S
C290 U286 2.847 . S
C290 O304 1.249 . S
C290 O305 1.202 . S
C291 C289 1.363 . S
C291 C293 1.408 . S
C291 C296 1.342 . S
C292 C293 1.310 . S
C292 C295 1.461 . S
C292 H312 0.932 . S
C293 C291 1.408 . S
C293 C292 1.310 . S
C293 H313 0.930 . S
C294 C295 1.474 . S
C294 C296 1.285 . S
C294 H314 0.929 . S
C295 C292 1.461 . S
C295 C294 1.474 . S
C296 C291 1.342 . S
C296 C294 1.285 . S
C296 H315 0.930 . S
C297 C300 1.424 . S
C297 C302 1.245 . S
C297 C303 1.428 . S
C298 C301 1.260 . S
C298 C302 1.477 . S
C298 H316 0.932 . S
C299 C300 1.384 . S
C299 C301 1.479 . S
C299 H317 0.929 . S
C300 C297 1.424 . S
C300 C299 1.384 . S
C300 H318 0.928 . S
C301 C298 1.260 . S
C301 C299 1.479 . S
C302 C297 1.245 . S
C302 C298 1.477 . S
C302 H319 0.932 . S
C303 U286 2.882 . S
C303 C297 1.428 . S
C303 O306 1.301 . S
C303 O307 1.282 . S
O304 U286 2.441 . S
O304 C290 1.249 . S
O305 U286 2.420 . S
O305 C290 1.202 . S
O306 U286 2.455 . S
O306 C303 1.301 . S
O307 U286 2.449 . S
O307 C303 1.282 . S
H308 C281 0.931 . S
H309 C283 0.929 . S
H310 C284 0.930 . S
H311 C285 0.931 . S
H312 C292 0.932 . S
H313 C293 0.930 . S
H314 C294 0.929 . S
H315 C296 0.930 . S
H316 C298 0.932 . S
H317 C299 0.929 . S
H318 C300 0.928 . S
H319 C302 0.932 . S
C320 C321 1.264 . S
C320 C325 1.479 . S
C320 C330 1.465 . S
C321 C320 1.264 . S
C321 C323 1.339 . S
C321 H348 0.931 . S
C322 C323 1.395 . S
C322 C324 1.320 . S
C323 C321 1.339 . S
C323 C322 1.395 . S
C323 H349 0.929 . S
C324 C322 1.320 . S
C324 C325 1.405 . S
C324 H350 0.930 . S
C325 C320 1.479 . S
C325 C324 1.405 . S
C325 H351 0.931 . S
U326 O327 2.454 . S
U326 O328 2.458 . S
U326 C329 2.984 . S
U326 C330 2.847 . S
U326 C343 2.882 . S
U326 O344 2.441 . S
U326 O345 2.420 . S
U326 O346 2.455 . S
U326 O347 2.449 . S
O327 U326 2.454 . S
O327 C329 1.353 . S
O328 U326 2.458 . S
O328 C329 1.286 . S
C329 U326 2.984 . S
C329 O327 1.353 . S
C329 O328 1.286 . S
C329 C331 1.363 . S
C330 C320 1.465 . S
C330 U326 2.847 . S
C330 O344 1.249 . S
C330 O345 1.202 . S
C331 C329 1.363 . S
C331 C333 1.408 . S
C331 C336 1.342 . S
C332 C333 1.310 . S
C332 C335 1.461 . S
C332 H352 0.932 . S
C333 C331 1.408 . S
C333 C332 1.310 . S
C333 H353 0.930 . S
C334 C335 1.474 . S
C334 C336 1.285 . S
C334 H354 0.929 . S
C335 C332 1.461 . S
C335 C334 1.474 . S
C336 C331 1.342 . S
C336 C334 1.285 . S
C336 H355 0.930 . S
C337 C340 1.424 . S
C337 C342 1.245 . S
C337 C343 1.428 . S
C338 C341 1.260 . S
C338 C342 1.477 . S
C338 H356 0.932 . S
C339 C340 1.384 . S
C339 C341 1.479 . S
C339 H357 0.929 . S
C340 C337 1.424 . S
C340 C339 1.384 . S
C340 H358 0.928 . S
C341 C338 1.260 . S
C341 C339 1.479 . S
C342 C337 1.245 . S
C342 C338 1.477 . S
C342 H359 0.932 . S
C343 U326 2.882 . S
C343 C337 1.428 . S
C343 O346 1.301 . S
C343 O347 1.282 . S
O344 U326 2.441 . S
O344 C330 1.249 . S
O345 U326 2.420 . S
O345 C330 1.202 . S
O346 U326 2.455 . S
O346 C343 1.301 . S
O347 U326 2.449 . S
O347 C343 1.282 . S
H348 C321 0.931 . S
H349 C323 0.929 . S
H350 C324 0.930 . S
H351 C325 0.931 . S
H352 C332 0.932 . S
H353 C333 0.930 . S
H354 C334 0.929 . S
H355 C336 0.930 . S
H356 C338 0.932 . S
H357 C339 0.929 . S
H358 C340 0.928 . S
H359 C342 0.932 . S
C360 C361 1.264 . S
C360 C365 1.479 . S
C360 C370 1.465 . S
C361 C360 1.264 . S
C361 C363 1.339 . S
C361 H388 0.931 . S
C362 C363 1.395 . S
C362 C364 1.320 . S
C363 C361 1.339 . S
C363 C362 1.395 . S
C363 H389 0.929 . S
C364 C362 1.320 . S
C364 C365 1.405 . S
C364 H390 0.930 . S
C365 C360 1.479 . S
C365 C364 1.405 . S
C365 H391 0.931 . S
U366 O367 2.454 . S
U366 O368 2.458 . S
U366 C369 2.984 . S
U366 C370 2.847 . S
U366 C383 2.882 . S
U366 O384 2.441 . S
U366 O385 2.420 . S
U366 O386 2.455 . S
U366 O387 2.449 . S
O367 U366 2.454 . S
O367 C369 1.353 . S
O368 U366 2.458 . S
O368 C369 1.286 . S
C369 U366 2.984 . S
C369 O367 1.353 . S
C369 O368 1.286 . S
C369 C371 1.363 . S
C370 C360 1.465 . S
C370 U366 2.847 . S
C370 O384 1.249 . S
C370 O385 1.202 . S
C371 C369 1.363 . S
C371 C373 1.408 . S
C371 C376 1.342 . S
C372 C373 1.310 . S
C372 C375 1.461 . S
C372 H392 0.932 . S
C373 C371 1.408 . S
C373 C372 1.310 . S
C373 H393 0.930 . S
C374 C375 1.474 . S
C374 C376 1.285 . S
C374 H394 0.929 . S
C375 C372 1.461 . S
C375 C374 1.474 . S
C376 C371 1.342 . S
C376 C374 1.285 . S
C376 H395 0.930 . S
C377 C380 1.424 . S
C377 C382 1.245 . S
C377 C383 1.428 . S
C378 C381 1.260 . S
C378 C382 1.477 . S
C378 H396 0.932 . S
C379 C380 1.384 . S
C379 C381 1.479 . S
C379 H397 0.929 . S
C380 C377 1.424 . S
C380 C379 1.384 . S
C380 H398 0.928 . S
C381 C378 1.260 . S
C381 C379 1.479 . S
C382 C377 1.245 . S
C382 C378 1.477 . S
C382 H399 0.932 . S
C383 U366 2.882 . S
C383 C377 1.428 . S
C383 O386 1.301 . S
C383 O387 1.282 . S
O384 U366 2.441 . S
O384 C370 1.249 . S
O385 U366 2.420 . S
O385 C370 1.202 . S
O386 U366 2.455 . S
O386 C383 1.301 . S
O387 U366 2.449 . S
O387 C383 1.282 . S
H388 C361 0.931 . S
H389 C363 0.929 . S
H390 C364 0.930 . S
H391 C365 0.931 . S
H392 C372 0.932 . S
H393 C373 0.930 . S
H394 C374 0.929 . S
H395 C376 0.930 . S
H396 C378 0.932 . S
H397 C379 0.929 . S
H398 C380 0.928 . S
H399 C382 0.932 . S
C400 C401 1.264 . S
C400 C405 1.479 . S
C400 C410 1.465 . S
C401 C400 1.264 . S
C401 C403 1.339 . S
C401 H428 0.931 . S
C402 C403 1.395 . S
C402 C404 1.320 . S
C403 C401 1.339 . S
C403 C402 1.395 . S
C403 H429 0.929 . S
C404 C402 1.320 . S
C404 C405 1.405 . S
C404 H430 0.930 . S
C405 C400 1.479 . S
C405 C404 1.405 . S
C405 H431 0.931 . S
U406 O407 2.454 . S
U406 O408 2.458 . S
U406 C409 2.984 . S
U406 C410 2.847 . S
U406 C423 2.882 . S
U406 O424 2.441 . S
U406 O425 2.420 . S
U406 O426 2.455 . S
U406 O427 2.449 . S
O407 U406 2.454 . S
O407 C409 1.353 . S
O408 U406 2.458 . S
O408 C409 1.286 . S
C409 U406 2.984 . S
C409 O407 1.353 . S
C409 O408 1.286 . S
C409 C411 1.363 . S
C410 C400 1.465 . S
C410 U406 2.847 . S
C410 O424 1.249 . S
C410 O425 1.202 . S
C411 C409 1.363 . S
C411 C413 1.408 . S
C411 C416 1.342 . S
C412 C413 1.310 . S
C412 C415 1.461 . S
C412 H432 0.939 . S
C413 C411 1.408 . S
C413 C412 1.310 . S
C413 H433 0.930 . S
C414 C415 1.474 . S
C414 C416 1.285 . S
C414 H434 0.929 . S
C415 C412 1.461 . S
C415 C414 1.474 . S
C416 C411 1.342 . S
C416 C414 1.285 . S
C416 H435 0.930 . S
C417 C420 1.424 . S
C417 C422 1.245 . S
C417 C423 1.428 . S
C418 C421 1.260 . S
C418 C422 1.477 . S
C418 H436 0.932 . S
C419 C420 1.384 . S
C419 C421 1.479 . S
C419 H437 0.929 . S
C420 C417 1.424 . S
C420 C419 1.384 . S
C420 H438 0.928 . S
C421 C418 1.260 . S
C421 C419 1.479 . S
C422 C417 1.245 . S
C422 C418 1.477 . S
C422 H439 0.932 . S
C423 U406 2.882 . S
C423 C417 1.428 . S
C423 O426 1.301 . S
C423 O427 1.282 . S
O424 U406 2.441 . S
O424 C410 1.249 . S
O425 U406 2.420 . S
O425 C410 1.202 . S
O426 U406 2.455 . S
O426 C423 1.301 . S
O427 U406 2.449 . S
O427 C423 1.282 . S
H428 C401 0.931 . S
H429 C403 0.929 . S
H430 C404 0.930 . S
H431 C405 0.931 . S
H432 C412 0.939 . S
H433 C413 0.930 . S
H434 C414 0.929 . S
H435 C416 0.930 . S
H436 C418 0.932 . S
H437 C419 0.929 . S
H438 C420 0.928 . S
H439 C422 0.932 . S
C440 C441 1.264 . S
C440 C445 1.479 . S
C440 C450 1.465 . S
C441 C440 1.264 . S
C441 C443 1.339 . S
C441 H468 0.931 . S
C442 C443 1.395 . S
C442 C444 1.320 . S
C443 C441 1.339 . S
C443 C442 1.395 . S
C443 H469 0.929 . S
C444 C442 1.320 . S
C444 C445 1.405 . S
C444 H470 0.930 . S
C445 C440 1.479 . S
C445 C444 1.405 . S
C445 H471 0.931 . S
U446 O447 2.454 . S
U446 O448 2.458 . S
U446 C449 2.984 . S
U446 C450 2.847 . S
U446 C463 2.882 . S
U446 O464 2.441 . S
U446 O465 2.420 . S
U446 O466 2.455 . S
U446 O467 2.449 . S
O447 U446 2.454 . S
O447 C449 1.353 . S
O448 U446 2.458 . S
O448 C449 1.286 . S
C449 U446 2.984 . S
C449 O447 1.353 . S
C449 O448 1.286 . S
C449 C451 1.363 . S
C450 C440 1.465 . S
C450 U446 2.847 . S
C450 O464 1.249 . S
C450 O465 1.202 . S
C451 C449 1.363 . S
C451 C453 1.408 . S
C451 C456 1.342 . S
C452 C453 1.310 . S
C452 C455 1.461 . S
C452 H472 0.932 . S
C453 C451 1.408 . S
C453 C452 1.310 . S
C453 H473 0.930 . S
C454 C455 1.474 . S
C454 C456 1.285 . S
C454 H474 0.929 . S
C455 C452 1.461 . S
C455 C454 1.474 . S
C456 C451 1.342 . S
C456 C454 1.285 . S
C456 H475 0.930 . S
C457 C460 1.424 . S
C457 C462 1.245 . S
C457 C463 1.428 . S
C458 C461 1.260 . S
C458 C462 1.477 . S
C458 H476 0.932 . S
C459 C460 1.384 . S
C459 C461 1.479 . S
C459 H477 0.929 . S
C460 C457 1.424 . S
C460 C459 1.384 . S
C460 H478 0.928 . S
C461 C458 1.260 . S
C461 C459 1.479 . S
C462 C457 1.245 . S
C462 C458 1.477 . S
C462 H479 0.932 . S
C463 U446 2.882 . S
C463 C457 1.428 . S
C463 O466 1.301 . S
C463 O467 1.282 . S
O464 U446 2.441 . S
O464 C450 1.249 . S
O465 U446 2.420 . S
O465 C450 1.202 . S
O466 U446 2.455 . S
O466 C463 1.301 . S
O467 U446 2.449 . S
O467 C463 1.282 . S
H468 C441 0.931 . S
H469 C443 0.929 . S
H470 C444 0.930 . S
H471 C445 0.931 . S
H472 C452 0.932 . S
H473 C453 0.930 . S
H474 C454 0.929 . S
H475 C456 0.930 . S
H476 C458 0.932 . S
H477 C459 0.929 . S
H478 C460 0.928 . S
H479 C462 0.932 . S
C480 C481 1.264 . S
C480 C485 1.479 . S
C480 C490 1.465 . S
C481 C480 1.264 . S
C481 C483 1.339 . S
C481 H508 0.931 . S
C482 C483 1.395 . S
C482 C484 1.320 . S
C483 C481 1.339 . S
C483 C482 1.395 . S
C483 H509 0.929 . S
C484 C482 1.320 . S
C484 C485 1.405 . S
C484 H510 0.930 . S
C485 C480 1.479 . S
C485 C484 1.405 . S
C485 H511 0.931 . S
U486 O487 2.454 . S
U486 O488 2.458 . S
U486 C489 2.984 . S
U486 C490 2.847 . S
U486 C503 2.882 . S
U486 O504 2.441 . S
U486 O505 2.420 . S
U486 O506 2.455 . S
U486 O507 2.449 . S
O487 U486 2.454 . S
O487 C489 1.353 . S
O488 U486 2.458 . S
O488 C489 1.286 . S
C489 U486 2.984 . S
C489 O487 1.353 . S
C489 O488 1.286 . S
C489 C491 1.363 . S
C490 C480 1.465 . S
C490 U486 2.847 . S
C490 O504 1.249 . S
C490 O505 1.202 . S
C491 C489 1.363 . S
C491 C493 1.408 . S
C491 C496 1.342 . S
C492 C493 1.310 . S
C492 C495 1.461 . S
C492 H512 0.932 . S
C493 C491 1.408 . S
C493 C492 1.310 . S
C493 H513 0.930 . S
C494 C495 1.474 . S
C494 C496 1.285 . S
C494 H514 0.929 . S
C495 C492 1.461 . S
C495 C494 1.474 . S
C496 C491 1.342 . S
C496 C494 1.285 . S
C496 H515 0.930 . S
C497 C500 1.424 . S
C497 C502 1.245 . S
C497 C503 1.428 . S
C498 C501 1.260 . S
C498 C502 1.477 . S
C498 H516 0.932 . S
C499 C500 1.384 . S
C499 C501 1.479 . S
C499 H517 0.929 . S
C500 C497 1.424 . S
C500 C499 1.384 . S
C500 H518 0.928 . S
C501 C498 1.260 . S
C501 C499 1.479 . S
C502 C497 1.245 . S
C502 C498 1.477 . S
C502 H519 0.932 . S
C503 U486 2.882 . S
C503 C497 1.428 . S
C503 O506 1.301 . S
C503 O507 1.282 . S
O504 U486 2.441 . S
O504 C490 1.249 . S
O505 U486 2.420 . S
O505 C490 1.202 . S
O506 U486 2.455 . S
O506 C503 1.301 . S
O507 U486 2.449 . S
O507 C503 1.282 . S
H508 C481 0.931 . S
H509 C483 0.929 . S
H510 C484 0.930 . S
H511 C485 0.931 . S
H512 C492 0.932 . S
H513 C493 0.930 . S
H514 C494 0.929 . S
H515 C496 0.930 . S
H516 C498 0.932 . S
H517 C499 0.929 . S
H518 C500 0.928 . S
H519 C502 0.932 . S
C520 C521 1.264 . S
C520 C525 1.479 . S
C520 C530 1.465 . S
C521 C520 1.264 . S
C521 C523 1.339 . S
C521 H548 0.931 . S
C522 C523 1.395 . S
C522 C524 1.320 . S
C523 C521 1.339 . S
C523 C522 1.395 . S
C523 H549 0.929 . S
C524 C522 1.320 . S
C524 C525 1.405 . S
C524 H550 0.930 . S
C525 C520 1.479 . S
C525 C524 1.405 . S
C525 H551 0.931 . S
U526 O527 2.454 . S
U526 O528 2.458 . S
U526 C529 2.984 . S
U526 C530 2.847 . S
U526 C543 2.882 . S
U526 O544 2.441 . S
U526 O545 2.420 . S
U526 O546 2.455 . S
U526 O547 2.449 . S
O527 U526 2.454 . S
O527 C529 1.353 . S
O528 U526 2.458 . S
O528 C529 1.286 . S
C529 U526 2.984 . S
C529 O527 1.353 . S
C529 O528 1.286 . S
C529 C531 1.363 . S
C530 C520 1.465 . S
C530 U526 2.847 . S
C530 O544 1.249 . S
C530 O545 1.202 . S
C531 C529 1.363 . S
C531 C533 1.408 . S
C531 C536 1.342 . S
C532 C533 1.310 . S
C532 C535 1.461 . S
C532 H552 0.932 . S
C533 C531 1.408 . S
C533 C532 1.310 . S
C533 H553 0.930 . S
C534 C535 1.474 . S
C534 C536 1.285 . S
C534 H554 0.929 . S
C535 C532 1.461 . S
C535 C534 1.474 . S
C536 C531 1.342 . S
C536 C534 1.285 . S
C536 H555 0.930 . S
C537 C540 1.424 . S
C537 C542 1.245 . S
C537 C543 1.428 . S
C538 C541 1.260 . S
C538 C542 1.477 . S
C538 H556 0.932 . S
C539 C540 1.384 . S
C539 C541 1.479 . S
C539 H557 0.929 . S
C540 C537 1.424 . S
C540 C539 1.384 . S
C540 H558 0.928 . S
C541 C538 1.260 . S
C541 C539 1.479 . S
C542 C537 1.245 . S
C542 C538 1.477 . S
C542 H559 0.932 . S
C543 U526 2.882 . S
C543 C537 1.428 . S
C543 O546 1.301 . S
C543 O547 1.282 . S
O544 U526 2.441 . S
O544 C530 1.249 . S
O545 U526 2.420 . S
O545 C530 1.202 . S
O546 U526 2.455 . S
O546 C543 1.301 . S
O547 U526 2.449 . S
O547 C543 1.282 . S
H548 C521 0.931 . S
H549 C523 0.929 . S
H550 C524 0.930 . S
H551 C525 0.931 . S
H552 C532 0.932 . S
H553 C533 0.930 . S
H554 C534 0.929 . S
H555 C536 0.930 . S
H556 C538 0.932 . S
H557 C539 0.929 . S
H558 C540 0.928 . S
H559 C542 0.932 . S
C560 C561 1.264 . S
C560 C565 1.479 . S
C560 C570 1.465 . S
C561 C560 1.264 . S
C561 C563 1.339 . S
C561 H588 0.931 . S
C562 C563 1.395 . S
C562 C564 1.320 . S
C563 C561 1.339 . S
C563 C562 1.395 . S
C563 H589 0.929 . S
C564 C562 1.320 . S
C564 C565 1.405 . S
C564 H590 0.930 . S
C565 C560 1.479 . S
C565 C564 1.405 . S
C565 H591 0.931 . S
U566 O567 2.454 . S
U566 O568 2.458 . S
U566 C569 2.984 . S
U566 C570 2.847 . S
U566 C583 2.882 . S
U566 O584 2.441 . S
U566 O585 2.420 . S
U566 O586 2.455 . S
U566 O587 2.449 . S
O567 U566 2.454 . S
O567 C569 1.353 . S
O568 U566 2.458 . S
O568 C569 1.286 . S
C569 U566 2.984 . S
C569 O567 1.353 . S
C569 O568 1.286 . S
C569 C571 1.363 . S
C570 C560 1.465 . S
C570 U566 2.847 . S
C570 O584 1.249 . S
C570 O585 1.202 . S
C571 C569 1.363 . S
C571 C573 1.408 . S
C571 C576 1.342 . S
C572 C573 1.310 . S
C572 C575 1.461 . S
C572 H592 0.932 . S
C573 C571 1.408 . S
C573 C572 1.310 . S
C573 H593 0.930 . S
C574 C575 1.474 . S
C574 C576 1.285 . S
C574 H594 0.929 . S
C575 C572 1.461 . S
C575 C574 1.474 . S
C576 C571 1.342 . S
C576 C574 1.285 . S
C576 H595 0.930 . S
C577 C580 1.424 . S
C577 C582 1.245 . S
C577 C583 1.428 . S
C578 C581 1.260 . S
C578 C582 1.477 . S
C578 H596 0.932 . S
C579 C580 1.384 . S
C579 C581 1.479 . S
C579 H597 0.929 . S
C580 C577 1.424 . S
C580 C579 1.384 . S
C580 H598 0.928 . S
C581 C578 1.260 . S
C581 C579 1.479 . S
C582 C577 1.245 . S
C582 C578 1.477 . S
C582 H599 0.932 . S
C583 U566 2.882 . S
C583 C577 1.428 . S
C583 O586 1.301 . S
C583 O587 1.282 . S
O584 U566 2.441 . S
O584 C570 1.249 . S
O585 U566 2.420 . S
O585 C570 1.202 . S
O586 U566 2.455 . S
O586 C583 1.301 . S
O587 U566 2.449 . S
O587 C583 1.282 . S
H588 C561 0.931 . S
H589 C563 0.929 . S
H590 C564 0.930 . S
H591 C565 0.931 . S
H592 C572 0.932 . S
H593 C573 0.930 . S
H594 C574 0.929 . S
H595 C576 0.930 . S
H596 C578 0.932 . S
H597 C579 0.929 . S
H598 C580 0.928 . S
H599 C582 0.932 . S
C600 C601 1.264 . S
C600 C605 1.479 . S
C600 C610 1.465 . S
C601 C600 1.264 . S
C601 C603 1.339 . S
C601 H628 0.931 . S
C602 C603 1.395 . S
C602 C604 1.320 . S
C603 C601 1.339 . S
C603 C602 1.395 . S
C603 H629 0.929 . S
C604 C602 1.320 . S
C604 C605 1.405 . S
C604 H630 0.930 . S
C605 C600 1.479 . S
C605 C604 1.405 . S
C605 H631 0.931 . S
U606 O607 2.454 . S
U606 O608 2.458 . S
U606 C609 2.984 . S
U606 C610 2.847 . S
U606 C623 2.882 . S
U606 O624 2.441 . S
U606 O625 2.420 . S
U606 O626 2.455 . S
U606 O627 2.449 . S
O607 U606 2.454 . S
O607 C609 1.353 . S
O608 U606 2.458 . S
O608 C609 1.286 . S
C609 U606 2.984 . S
C609 O607 1.353 . S
C609 O608 1.286 . S
C609 C611 1.363 . S
C610 C600 1.465 . S
C610 U606 2.847 . S
C610 O624 1.249 . S
C610 O625 1.202 . S
C611 C609 1.363 . S
C611 C613 1.408 . S
C611 C616 1.342 . S
C612 C613 1.310 . S
C612 C615 1.461 . S
C612 H632 0.932 . S
C613 C611 1.408 . S
C613 C612 1.310 . S
C613 H633 0.930 . S
C614 C615 1.474 . S
C614 C616 1.285 . S
C614 H634 0.929 . S
C615 C612 1.461 . S
C615 C614 1.474 . S
C616 C611 1.342 . S
C616 C614 1.285 . S
C616 H635 0.930 . S
C617 C620 1.424 . S
C617 C622 1.245 . S
C617 C623 1.428 . S
C618 C621 1.260 . S
C618 C622 1.477 . S
C618 H636 0.932 . S
C619 C620 1.384 . S
C619 C621 1.479 . S
C619 H637 0.929 . S
C620 C617 1.424 . S
C620 C619 1.384 . S
C620 H638 0.928 . S
C621 C618 1.260 . S
C621 C619 1.479 . S
C622 C617 1.245 . S
C622 C618 1.477 . S
C622 H639 0.932 . S
C623 U606 2.882 . S
C623 C617 1.428 . S
C623 O626 1.301 . S
C623 O627 1.282 . S
O624 U606 2.441 . S
O624 C610 1.249 . S
O625 U606 2.420 . S
O625 C610 1.202 . S
O626 U606 2.455 . S
O626 C623 1.301 . S
O627 U606 2.449 . S
O627 C623 1.282 . S
H628 C601 0.931 . S
H629 C603 0.929 . S
H630 C604 0.930 . S
H631 C605 0.931 . S
H632 C612 0.932 . S
H633 C613 0.930 . S
H634 C614 0.929 . S
H635 C616 0.930 . S
H636 C618 0.932 . S
H637 C619 0.929 . S
H638 C620 0.928 . S
H639 C622 0.932 . S
C640 C641 1.264 . S
C640 C645 1.479 . S
C640 C650 1.465 . S
C641 C640 1.264 . S
C641 C643 1.339 . S
C641 H668 0.931 . S
C642 C643 1.395 . S
C642 C644 1.320 . S
C643 C641 1.339 . S
C643 C642 1.395 . S
C643 H669 0.929 . S
C644 C642 1.320 . S
C644 C645 1.405 . S
C644 H670 0.930 . S
C645 C640 1.479 . S
C645 C644 1.405 . S
C645 H671 0.931 . S
U646 O647 2.454 . S
U646 O648 2.458 . S
U646 C649 2.984 . S
U646 C650 2.847 . S
U646 C663 2.882 . S
U646 O664 2.441 . S
U646 O665 2.420 . S
U646 O666 2.455 . S
U646 O667 2.449 . S
O647 U646 2.454 . S
O647 C649 1.353 . S
O648 U646 2.458 . S
O648 C649 1.286 . S
C649 U646 2.984 . S
C649 O647 1.353 . S
C649 O648 1.286 . S
C649 C651 1.363 . S
C650 C640 1.465 . S
C650 U646 2.847 . S
C650 O664 1.249 . S
C650 O665 1.202 . S
C651 C649 1.363 . S
C651 C653 1.408 . S
C651 C656 1.342 . S
C652 C653 1.310 . S
C652 C655 1.461 . S
C652 H672 0.932 . S
C653 C651 1.408 . S
C653 C652 1.310 . S
C653 H673 0.930 . S
C654 C655 1.474 . S
C654 C656 1.285 . S
C654 H674 0.929 . S
C655 C652 1.461 . S
C655 C654 1.474 . S
C656 C651 1.342 . S
C656 C654 1.285 . S
C656 H675 0.930 . S
C657 C660 1.424 . S
C657 C662 1.245 . S
C657 C663 1.428 . S
C658 C661 1.260 . S
C658 C662 1.477 . S
C658 H676 0.932 . S
C659 C660 1.384 . S
C659 C661 1.479 . S
C659 H677 0.929 . S
C660 C657 1.424 . S
C660 C659 1.384 . S
C660 H678 0.928 . S
C661 C658 1.260 . S
C661 C659 1.479 . S
C662 C657 1.245 . S
C662 C658 1.477 . S
C662 H679 0.932 . S
C663 U646 2.882 . S
C663 C657 1.428 . S
C663 O666 1.301 . S
C663 O667 1.282 . S
O664 U646 2.441 . S
O664 C650 1.249 . S
O665 U646 2.420 . S
O665 C650 1.202 . S
O666 U646 2.455 . S
O666 C663 1.301 . S
O667 U646 2.449 . S
O667 C663 1.282 . S
H668 C641 0.931 . S
H669 C643 0.929 . S
H670 C644 0.930 . S
H671 C645 0.931 . S
H672 C652 0.932 . S
H673 C653 0.930 . S
H674 C654 0.929 . S
H675 C656 0.930 . S
H676 C658 0.932 . S
H677 C659 0.929 . S
H678 C660 0.928 . S
H679 C662 0.932 . S
C680 C681 1.264 . S
C680 C685 1.479 . S
C680 C690 1.465 . S
C681 C680 1.264 . S
C681 C683 1.339 . S
C681 H708 0.931 . S
C682 C683 1.395 . S
C682 C684 1.320 . S
C683 C681 1.339 . S
C683 C682 1.395 . S
C683 H709 0.929 . S
C684 C682 1.320 . S
C684 C685 1.405 . S
C684 H710 0.930 . S
C685 C680 1.479 . S
C685 C684 1.405 . S
C685 H711 0.931 . S
U686 O687 2.454 . S
U686 O688 2.458 . S
U686 C689 2.984 . S
U686 C690 2.847 . S
U686 C703 2.882 . S
U686 O704 2.441 . S
U686 O705 2.420 . S
U686 O706 2.455 . S
U686 O707 2.449 . S
O687 U686 2.454 . S
O687 C689 1.353 . S
O688 U686 2.458 . S
O688 C689 1.286 . S
C689 U686 2.984 . S
C689 O687 1.353 . S
C689 O688 1.286 . S
C689 C691 1.363 . S
C690 C680 1.465 . S
C690 U686 2.847 . S
C690 O704 1.249 . S
C690 O705 1.202 . S
C691 C689 1.363 . S
C691 C693 1.408 . S
C691 C696 1.342 . S
C692 C693 1.310 . S
C692 C695 1.461 . S
C692 H712 0.932 . S
C693 C691 1.408 . S
C693 C692 1.310 . S
C693 H713 0.930 . S
C694 C695 1.474 . S
C694 C696 1.285 . S
C694 H714 0.929 . S
C695 C692 1.461 . S
C695 C694 1.474 . S
C696 C691 1.342 . S
C696 C694 1.285 . S
C696 H715 0.930 . S
C697 C700 1.424 . S
C697 C702 1.245 . S
C697 C703 1.428 . S
C698 C701 1.260 . S
C698 C702 1.477 . S
C698 H716 0.932 . S
C699 C700 1.384 . S
C699 C701 1.479 . S
C699 H717 0.929 . S
C700 C697 1.424 . S
C700 C699 1.384 . S
C700 H718 0.928 . S
C701 C698 1.260 . S
C701 C699 1.479 . S
C702 C697 1.245 . S
C702 C698 1.477 . S
C702 H719 0.932 . S
C703 U686 2.882 . S
C703 C697 1.428 . S
C703 O706 1.301 . S
C703 O707 1.282 . S
O704 U686 2.441 . S
O704 C690 1.249 . S
O705 U686 2.420 . S
O705 C690 1.202 . S
O706 U686 2.455 . S
O706 C703 1.301 . S
O707 U686 2.449 . S
O707 C703 1.282 . S
H708 C681 0.931 . S
H709 C683 0.929 . S
H710 C684 0.930 . S
H711 C685 0.931 . S
H712 C692 0.932 . S
H713 C693 0.930 . S
H714 C694 0.929 . S
H715 C696 0.930 . S
H716 C698 0.932 . S
H717 C699 0.929 . S
H718 C700 0.928 . S
H719 C702 0.932 . S
Tb720 O723 2.453 . S
Tb720 O724 2.596 1_545 S
Tb720 O725 2.374 1_545 S
Tb720 O733 2.343 1_554 S
Tb720 O735 2.353 . S
Tb720 O737 2.427 1_554 S
Tb720 O738 2.513 1_554 S
C721 O725 1.251 . S
C721 O727 1.263 . S
Tb722 O724 2.343 1_556 S
Tb722 O727 2.353 1_556 S
Tb722 O730 2.427 1_556 S
Tb722 O731 2.513 1_556 S
Tb722 O732 2.453 . S
Tb722 O733 2.596 1_565 S
Tb722 O734 2.374 1_565 S
O723 Tb720 2.453 . S
O723 C739 1.245 . S
O724 Tb720 2.596 1_565 S
O724 Tb722 2.343 1_554 S
O724 C739 1.259 1_565 S
O725 Tb720 2.374 1_565 S
O725 C721 1.251 . S
C726 O730 1.275 . S
C726 O731 1.246 . S
O727 C721 1.263 . S
O727 Tb722 2.353 1_554 S
C728 O732 1.230 1_545 S
C728 O733 1.263 . S
C729 O734 1.250 . S
C729 O735 1.263 1_556 S
O730 Tb722 2.427 1_554 S
O730 C726 1.275 . S
O731 Tb722 2.513 1_554 S
O731 C726 1.246 . S
O732 Tb722 2.453 . S
O732 C728 1.230 1_565 S
O733 Tb720 2.343 1_556 S
O733 Tb722 2.596 1_545 S
O733 C728 1.263 . S
O734 Tb722 2.374 1_545 S
O734 C729 1.250 . S
O735 Tb720 2.353 . S
O735 C729 1.263 1_554 S
C736 O737 1.275 . S
C736 O738 1.246 . S
O737 Tb720 2.427 1_556 S
O737 C736 1.275 . S
O738 Tb720 2.513 1_556 S
O738 C736 1.246 . S
C739 O723 1.245 . S
C739 O724 1.259 1_545 S
Tb740 O743 2.453 . S
Tb740 O744 2.596 1_655 S
Tb740 O745 2.374 1_655 S
Tb740 O753 2.343 1_554 S
Tb740 O755 2.353 . S
Tb740 O757 2.427 1_554 S
Tb740 O758 2.513 1_554 S
C741 O745 1.251 . S
C741 O747 1.263 . S
Tb742 O744 2.343 1_556 S
Tb742 O747 2.353 1_556 S
Tb742 O750 2.427 1_556 S
Tb742 O751 2.513 1_556 S
Tb742 O752 2.453 . S
Tb742 O753 2.596 1_455 S
Tb742 O754 2.374 1_455 S
O743 Tb740 2.453 . S
O743 C759 1.245 1_655 S
O744 Tb740 2.596 1_455 S
O744 Tb742 2.343 1_554 S
O744 C759 1.259 . S
O745 Tb740 2.374 1_455 S
O745 C741 1.251 . S
C746 O750 1.275 . S
C746 O751 1.246 . S
O747 C741 1.263 . S
O747 Tb742 2.353 1_554 S
C748 O752 1.227 1_655 S
C748 O753 1.266 . S
C749 O754 1.250 . S
C749 O755 1.263 1_556 S
O750 Tb742 2.427 1_554 S
O750 C746 1.275 . S
O751 Tb742 2.513 1_554 S
O751 C746 1.246 . S
O752 Tb742 2.453 . S
O752 C748 1.227 1_455 S
O753 Tb740 2.343 1_556 S
O753 Tb742 2.596 1_655 S
O753 C748 1.266 . S
O754 Tb742 2.374 1_655 S
O754 C749 1.250 . S
O755 Tb740 2.353 . S
O755 C749 1.263 1_554 S
C756 O757 1.275 . S
C756 O758 1.246 . S
O757 Tb740 2.427 1_556 S
O757 C756 1.275 . S
O758 Tb740 2.513 1_556 S
O758 C756 1.246 . S
C759 O743 1.245 1_455 S
C759 O744 1.259 . S
Tb760 O763 2.453 . S
Tb760 O764 2.596 . S
Tb760 O765 2.374 . S
Tb760 O773 2.343 1_556 S
Tb760 O775 2.353 1_556 S
Tb760 O777 2.427 1_556 S
Tb760 O778 2.513 1_556 S
C761 O765 1.251 . S
C761 O767 1.263 1_556 S
Tb762 O764 2.343 1_554 S
Tb762 O767 2.353 . S
Tb762 O770 2.427 1_554 S
Tb762 O771 2.513 1_554 S
Tb762 O772 2.453 . S
Tb762 O773 2.596 . S
Tb762 O774 2.374 . S
O763 Tb760 2.453 . S
O763 C779 1.245 . S
O764 Tb760 2.596 . S
O764 Tb762 2.343 1_556 S
O764 C779 1.259 . S
O765 Tb760 2.374 . S
O765 C761 1.251 . S
C766 O770 1.275 . S
C766 O771 1.246 . S
O767 C761 1.263 1_554 S
O767 Tb762 2.353 . S
C768 O772 1.245 . S
C768 O773 1.259 . S
C769 O774 1.250 . S
C769 O775 1.263 . S
O770 Tb762 2.427 1_556 S
O770 C766 1.275 . S
O771 Tb762 2.513 1_556 S
O771 C766 1.246 . S
O772 Tb762 2.453 . S
O772 C768 1.245 . S
O773 Tb760 2.343 1_554 S
O773 Tb762 2.596 . S
O773 C768 1.259 . S
O774 Tb762 2.374 . S
O774 C769 1.250 . S
O775 Tb760 2.353 1_554 S
O775 C769 1.263 . S
C776 O777 1.275 . S
C776 O778 1.246 . S
O777 Tb760 2.427 1_554 S
O777 C776 1.275 . S
O778 Tb760 2.513 1_554 S
O778 C776 1.246 . S
C779 O763 1.245 . S
C779 O764 1.259 . S
Tb780 O783 2.453 . S
Tb780 O784 2.596 . S
Tb780 O785 2.374 . S
Tb780 O793 2.343 . S
Tb780 O795 2.353 . S
Tb780 O797 2.427 . S
Tb780 O798 2.513 . S
C781 O785 1.251 . S
C781 O787 1.263 . S
Tb782 O784 2.343 . S
Tb782 O787 2.353 . S
Tb782 O790 2.427 . S
Tb782 O791 2.513 . S
Tb782 O792 2.453 . S
Tb782 O793 2.596 . S
Tb782 O794 2.374 . S
O783 Tb780 2.453 . S
O783 C799 1.245 . S
O784 Tb780 2.596 . S
O784 Tb782 2.343 . S
O784 C799 1.259 . S
O785 Tb780 2.374 . S
O785 C781 1.251 . S
C786 O790 1.275 . S
C786 O791 1.246 . S
O787 C781 1.263 . S
O787 Tb782 2.353 . S
C788 O792 1.245 . S
C788 O793 1.259 . S
C789 O794 1.250 . S
C789 O795 1.263 . S
O790 Tb782 2.427 . S
O790 C786 1.275 . S
O791 Tb782 2.513 . S
O791 C786 1.246 . S
O792 Tb782 2.453 . S
O792 C788 1.245 . S
O793 Tb780 2.343 . S
O793 Tb782 2.596 . S
O793 C788 1.259 . S
O794 Tb782 2.374 . S
O794 C789 1.250 . S
O795 Tb780 2.353 . S
O795 C789 1.263 . S
C796 O797 1.275 . S
C796 O798 1.246 . S
O797 Tb780 2.427 . S
O797 C796 1.275 . S
O798 Tb780 2.513 . S
O798 C796 1.246 . S
C799 O783 1.245 . S
C799 O784 1.259 . S
Tb800 O803 2.453 . S
Tb800 O804 2.596 . S
Tb800 O805 2.374 . S
Tb800 O813 2.343 . S
Tb800 O815 2.353 . S
Tb800 O817 2.427 . S
Tb800 O818 2.513 . S
C801 O805 1.251 . S
C801 O807 1.263 . S
Tb802 O804 2.343 . S
Tb802 O807 2.353 . S
Tb802 O810 2.427 . S
Tb802 O811 2.513 . S
Tb802 O812 2.453 . S
Tb802 O813 2.596 . S
Tb802 O814 2.374 . S
O803 Tb800 2.453 . S
O803 C819 1.245 . S
O804 Tb800 2.596 . S
O804 Tb802 2.343 . S
O804 C819 1.259 . S
O805 Tb800 2.374 . S
O805 C801 1.251 . S
C806 O810 1.275 . S
C806 O811 1.246 . S
O807 C801 1.263 . S
O807 Tb802 2.353 . S
C808 O812 1.245 . S
C808 O813 1.259 . S
C809 O814 1.250 . S
C809 O815 1.263 . S
O810 Tb802 2.427 . S
O810 C806 1.275 . S
O811 Tb802 2.513 . S
O811 C806 1.246 . S
O812 Tb802 2.453 . S
O812 C808 1.245 . S
O813 Tb800 2.343 . S
O813 Tb802 2.596 . S
O813 C808 1.259 . S
O814 Tb802 2.374 . S
O814 C809 1.250 . S
O815 Tb800 2.353 . S
O815 C809 1.263 . S
C816 O817 1.275 . S
C816 O818 1.246 . S
O817 Tb800 2.427 . S
O817 C816 1.275 . S
O818 Tb800 2.513 . S
O818 C816 1.246 . S
C819 O803 1.245 . S
C819 O804 1.259 . S
Tb820 O823 2.453 . S
Tb820 O824 2.596 . S
Tb820 O825 2.374 . S
Tb820 O833 2.343 . S
Tb820 O835 2.353 . S
Tb820 O837 2.427 . S
Tb820 O838 2.513 . S
C821 O825 1.251 . S
C821 O827 1.263 . S
Tb822 O824 2.343 . S
Tb822 O827 2.353 . S
Tb822 O830 2.427 . S
Tb822 O831 2.513 . S
Tb822 O832 2.453 . S
Tb822 O833 2.596 . S
Tb822 O834 2.374 . S
O823 Tb820 2.453 . S
O823 C839 1.245 . S
O824 Tb820 2.596 . S
O824 Tb822 2.343 . S
O824 C839 1.259 . S
O825 Tb820 2.374 . S
O825 C821 1.251 . S
C826 O830 1.275 . S
C826 O831 1.246 . S
O827 C821 1.263 . S
O827 Tb822 2.353 . S
C828 O832 1.245 . S
C828 O833 1.259 . S
C829 O834 1.250 . S
C829 O835 1.263 . S
O830 Tb822 2.427 . S
O830 C826 1.275 . S
O831 Tb822 2.513 . S
O831 C826 1.246 . S
O832 Tb822 2.453 . S
O832 C828 1.245 . S
O833 Tb820 2.343 . S
O833 Tb822 2.596 . S
O833 C828 1.259 . S
O834 Tb822 2.374 . S
O834 C829 1.250 . S
O835 Tb820 2.353 . S
O835 C829 1.263 . S
C836 O837 1.275 . S
C836 O838 1.246 . S
O837 Tb820 2.427 . S
O837 C836 1.275 . S
O838 Tb820 2.513 . S
O838 C836 1.246 . S
C839 O823 1.245 . S
C839 O824 1.259 . S
Tb840 O843 2.453 . S
Tb840 O844 2.596 . S
Tb840 O845 2.374 . S
Tb840 O853 2.343 . S
Tb840 O855 2.353 . S
Tb840 O857 2.427 . S
Tb840 O858 2.513 . S
C841 O845 1.251 . S
C841 O847 1.263 . S
Tb842 O844 2.343 . S
Tb842 O847 2.353 . S
Tb842 O850 2.427 . S
Tb842 O851 2.513 . S
Tb842 O852 2.453 . S
Tb842 O853 2.596 . S
Tb842 O854 2.374 . S
O843 Tb840 2.453 . S
O843 C859 1.245 . S
O844 Tb840 2.596 . S
O844 Tb842 2.343 . S
O844 C859 1.259 . S
O845 Tb840 2.374 . S
O845 C841 1.251 . S
C846 O850 1.275 . S
C846 O851 1.246 . S
O847 C841 1.263 . S
O847 Tb842 2.353 . S
C848 O852 1.245 . S
C848 O853 1.259 . S
C849 O854 1.250 . S
C849 O855 1.263 . S
O850 Tb842 2.427 . S
O850 C846 1.275 . S
O851 Tb842 2.513 . S
O851 C846 1.246 . S
O852 Tb842 2.453 . S
O852 C848 1.245 . S
O853 Tb840 2.343 . S
O853 Tb842 2.596 . S
O853 C848 1.259 . S
O854 Tb842 2.374 . S
O854 C849 1.250 . S
O855 Tb840 2.353 . S
O855 C849 1.263 . S
C856 O857 1.275 . S
C856 O858 1.246 . S
O857 Tb840 2.427 . S
O857 C856 1.275 . S
O858 Tb840 2.513 . S
O858 C856 1.246 . S
C859 O843 1.245 . S
C859 O844 1.259 . S
Tb860 O863 2.453 . S
Tb860 O864 2.596 . S
Tb860 O865 2.374 . S
Tb860 O873 2.343 . S
Tb860 O875 2.353 . S
Tb860 O877 2.427 . S
Tb860 O878 2.513 . S
C861 O865 1.251 . S
C861 O867 1.263 . S
Tb862 O864 2.343 . S
Tb862 O867 2.353 . S
Tb862 O870 2.427 . S
Tb862 O871 2.513 . S
Tb862 O872 2.453 . S
Tb862 O873 2.596 . S
Tb862 O874 2.374 . S
O863 Tb860 2.453 . S
O863 C879 1.245 . S
O864 Tb860 2.596 . S
O864 Tb862 2.343 . S
O864 C879 1.259 . S
O865 Tb860 2.374 . S
O865 C861 1.251 . S
C866 O870 1.275 . S
C866 O871 1.246 . S
O867 C861 1.263 . S
O867 Tb862 2.353 . S
C868 O872 1.245 . S
C868 O873 1.259 . S
C869 O874 1.250 . S
C869 O875 1.263 . S
O870 Tb862 2.427 . S
O870 C866 1.275 . S
O871 Tb862 2.513 . S
O871 C866 1.246 . S
O872 Tb862 2.453 . S
O872 C868 1.245 . S
O873 Tb860 2.343 . S
O873 Tb862 2.596 . S
O873 C868 1.259 . S
O874 Tb862 2.374 . S
O874 C869 1.250 . S
O875 Tb860 2.353 . S
O875 C869 1.263 . S
C876 O877 1.275 . S
C876 O878 1.246 . S
O877 Tb860 2.427 . S
O877 C876 1.275 . S
O878 Tb860 2.513 . S
O878 C876 1.246 . S
C879 O863 1.245 . S
C879 O864 1.259 . S
Tb880 O883 2.453 . S
Tb880 O884 2.596 . S
Tb880 O885 2.374 . S
Tb880 O893 2.343 . S
Tb880 O895 2.353 . S
Tb880 O897 2.427 . S
Tb880 O898 2.513 . S
C881 O885 1.251 . S
C881 O887 1.263 . S
Tb882 O884 2.343 . S
Tb882 O887 2.353 . S
Tb882 O890 2.427 . S
Tb882 O891 2.513 . S
Tb882 O892 2.453 . S
Tb882 O893 2.596 . S
Tb882 O894 2.374 . S
O883 Tb880 2.453 . S
O883 C899 1.245 . S
O884 Tb880 2.596 . S
O884 Tb882 2.343 . S
O884 C899 1.259 . S
O885 Tb880 2.374 . S
O885 C881 1.251 . S
C886 O890 1.275 . S
C886 O891 1.246 . S
O887 C881 1.263 . S
O887 Tb882 2.353 . S
C888 O892 1.245 . S
C888 O893 1.259 . S
C889 O894 1.250 . S
C889 O895 1.263 . S
O890 Tb882 2.427 . S
O890 C886 1.275 . S
O891 Tb882 2.513 . S
O891 C886 1.246 . S
O892 Tb882 2.453 . S
O892 C888 1.245 . S
O893 Tb880 2.343 . S
O893 Tb882 2.596 . S
O893 C888 1.259 . S
O894 Tb882 2.374 . S
O894 C889 1.250 . S
O895 Tb880 2.353 . S
O895 C889 1.263 . S
C896 O897 1.275 . S
C896 O898 1.246 . S
O897 Tb880 2.427 . S
O897 C896 1.275 . S
O898 Tb880 2.513 . S
O898 C896 1.246 . S
C899 O883 1.245 . S
C899 O884 1.259 . S
C900 C901 1.363 . S
C900 C906 1.379 . S
C900 N908 1.356 . S
C901 C900 1.363 . S
C901 C907 1.363 . S
C902 C903 1.363 . S
C902 C907 1.379 . S
C902 N909 1.356 . S
C903 C902 1.363 . S
C903 C906 1.363 . S
N904 C906 1.356 . S
N904 H916 0.984 . S
N904 H917 0.985 . S
N905 C907 1.356 . S
N905 H910 0.984 . S
N905 H911 0.985 . S
C906 C900 1.379 . S
C906 C903 1.363 . S
C906 N904 1.356 . S
C907 C901 1.363 . S
C907 C902 1.379 . S
C907 N905 1.356 . S
N908 C900 1.356 . S
N908 H914 0.984 . S
N908 H915 0.984 . S
N909 C902 1.356 . S
N909 H912 0.984 . S
N909 H913 0.985 . S
H910 N905 0.984 . S
H911 N905 0.985 . S
H912 N909 0.984 . S
H913 N909 0.985 . S
H914 N908 0.984 . S
H915 N908 0.984 . S
H916 N904 0.984 . S
H917 N904 0.985 . S
C918 C919 1.363 . S
C918 C924 1.379 . S
C918 N926 1.356 . S
C919 C918 1.363 . S
C919 C925 1.363 . S
C920 C921 1.363 . S
C920 C925 1.379 . S
C920 N927 1.356 . S
C921 C920 1.363 . S
C921 C924 1.363 . S
N922 C924 1.356 . S
N922 H934 0.984 1_554 S
N922 H935 0.985 . S
N923 C925 1.356 . S
N923 H928 0.984 . S
N923 H929 0.985 . S
C924 C918 1.379 . S
C924 C921 1.363 . S
C924 N922 1.356 . S
C925 C919 1.363 . S
C925 C920 1.379 . S
C925 N923 1.356 . S
N926 C918 1.356 . S
N926 H932 0.984 . S
N926 H933 0.984 . S
N927 C920 1.356 . S
N927 H930 0.984 . S
N927 H931 0.985 . S
H928 N923 0.984 . S
H929 N923 0.985 . S
H930 N927 0.984 . S
H931 N927 0.985 . S
H932 N926 0.984 . S
H933 N926 0.984 . S
H934 N922 0.984 1_556 S
H935 N922 0.985 . S
C936 C937 1.363 . S
C936 C942 1.379 . S
C936 N944 1.356 . S
C937 C936 1.363 . S
C937 C943 1.363 . S
C938 C939 1.363 . S
C938 C943 1.379 . S
C938 N945 1.356 1_554 S
C939 C938 1.363 . S
C939 C942 1.363 . S
N940 C942 1.356 . S
N940 H952 0.984 . S
N940 H953 0.985 . S
N941 C943 1.355 1_556 S
N941 H946 0.984 1_556 S
N941 H947 0.986 . S
C942 C936 1.379 . S
C942 C939 1.363 . S
C942 N940 1.356 . S
C943 C937 1.363 . S
C943 C938 1.379 . S
C943 N941 1.355 1_554 S
N944 C936 1.356 . S
N944 H950 0.984 . S
N944 H951 0.984 . S
N945 C938 1.356 1_556 S
N945 H948 0.984 . S
N945 H949 0.985 . S
H946 N941 0.984 1_554 S
H947 N941 0.986 . S
H948 N945 0.984 . S
H949 N945 0.985 . S
H950 N944 0.984 . S
H951 N944 0.984 . S
H952 N940 0.984 . S
H953 N940 0.985 . S
C954 C955 1.363 . S
C954 C960 1.385 . S
C954 N962 1.356 1_556 S
C955 C954 1.363 . S
C955 C961 1.363 . S
C956 C957 1.363 . S
C956 C961 1.379 . S
C956 N963 1.356 . S
C957 C956 1.363 . S
C957 C960 1.399 . S
N958 C960 1.322 1_554 S
N958 H970 0.984 . S
N958 H971 0.985 . S
N959 C961 1.356 . S
N959 H964 0.984 . S
N959 H965 0.985 . S
C960 C954 1.385 . S
C960 C957 1.399 . S
C960 N958 1.322 1_556 S
C961 C955 1.363 . S
C961 C956 1.379 . S
C961 N959 1.356 . S
N962 C954 1.356 1_554 S
N962 H968 0.984 . S
N962 H969 0.984 1_554 S
N963 C956 1.356 . S
N963 H966 0.984 . S
N963 H967 0.985 . S
H964 N959 0.984 . S
H965 N959 0.985 . S
H966 N963 0.984 . S
H967 N963 0.985 . S
H968 N962 0.984 . S
H969 N962 0.984 1_556 S
H970 N958 0.984 . S
H971 N958 0.985 . S
C972 C973 1.363 . S
C972 C978 1.379 . S
C972 N980 1.356 . S
C973 C972 1.363 . S
C973 C979 1.363 . S
C974 C975 1.363 . S
C974 C979 1.379 . S
C974 N981 1.356 . S
C975 C974 1.363 . S
C975 C978 1.363 . S
N976 C978 1.356 . S
N976 H988 0.965 1_556 S
N976 H989 0.985 . S
N977 C979 1.356 . S
N977 H982 0.984 . S
N977 H983 0.985 . S
C978 C972 1.379 . S
C978 C975 1.363 . S
C978 N976 1.356 . S
C979 C973 1.363 . S
C979 C974 1.379 . S
C979 N977 1.356 . S
N980 C972 1.356 . S
N980 H986 0.984 . S
N980 H987 0.984 . S
N981 C974 1.356 . S
N981 H984 0.984 . S
N981 H985 0.985 . S
H982 N977 0.984 . S
H983 N977 0.985 . S
H984 N981 0.984 . S
H985 N981 0.985 . S
H986 N980 0.984 . S
H987 N980 0.984 . S
H988 N976 0.965 1_554 S
H989 N976 0.985 . S
C990 C991 1.363 . S
C990 C996 1.383 . S
C990 N998 1.356 1_556 S
C991 C990 1.363 . S
C991 C997 1.363 . S
C992 C993 1.363 . S
C992 C997 1.379 . S
C992 N999 1.356 . S
C993 C992 1.363 . S
C993 C996 1.373 . S
N994 C996 1.344 1_554 S
N994 H1006 0.984 . S
N994 H1007 0.985 . S
N995 C997 1.356 . S
N995 H1000 0.984 . S
N995 H1001 0.985 . S
C996 C990 1.383 . S
C996 C993 1.373 . S
C996 N994 1.344 1_556 S
C997 C991 1.363 . S
C997 C992 1.379 . S
C997 N995 1.356 . S
N998 C990 1.356 1_554 S
N998 H1004 0.984 . S
N998 H1005 0.984 1_554 S
N999 C992 1.356 . S
N999 H1002 0.984 . S
N999 H1003 0.985 . S
H1000 N995 0.984 . S
H1001 N995 0.985 . S
H1002 N999 0.984 . S
H1003 N999 0.985 . S
H1004 N998 0.984 . S
H1005 N998 0.984 1_556 S
H1006 N994 0.984 . S
H1007 N994 0.985 . S
C1008 C1009 1.363 . S
C1008 C1014 1.379 . S
C1008 N1016 1.356 . S
C1009 C1008 1.363 . S
C1009 C1015 1.363 . S
C1010 C1011 1.363 . S
C1010 C1015 1.379 . S
C1010 N1017 1.356 . S
C1011 C1010 1.363 . S
C1011 C1014 1.363 . S
N1012 C1014 1.356 1_554 S
N1012 H1024 0.984 . S
N1012 H1025 0.985 . S
N1013 C1015 1.356 . S
N1013 H1018 0.984 . S
N1013 H1019 0.985 . S
C1014 C1008 1.379 . S
C1014 C1011 1.363 . S
C1014 N1012 1.356 1_556 S
C1015 C1009 1.363 . S
C1015 C1010 1.379 . S
C1015 N1013 1.356 . S
N1016 C1008 1.356 . S
N1016 H1022 0.984 1_556 S
N1016 H1023 0.984 . S
N1017 C1010 1.356 . S
N1017 H1020 0.984 . S
N1017 H1021 0.985 . S
H1018 N1013 0.984 . S
H1019 N1013 0.985 . S
H1020 N1017 0.984 . S
H1021 N1017 0.985 . S
H1022 N1016 0.984 1_554 S
H1023 N1016 0.984 . S
H1024 N1012 0.984 . S
H1025 N1012 0.985 . S
C1026 C1027 1.363 . S
C1026 C1032 1.379 . S
C1026 N1034 1.356 . S
C1027 C1026 1.363 . S
C1027 C1033 1.363 . S
C1028 C1029 1.363 . S
C1028 C1033 1.379 . S
C1028 N1035 1.356 . S
C1029 C1028 1.363 . S
C1029 C1032 1.363 . S
N1030 C1032 1.356 . S
N1030 H1042 0.984 . S
N1030 H1043 0.985 . S
N1031 C1033 1.356 . S
N1031 H1036 0.984 . S
N1031 H1037 0.985 . S
C1032 C1026 1.379 . S
C1032 C1029 1.363 . S
C1032 N1030 1.356 . S
C1033 C1027 1.363 . S
C1033 C1028 1.379 . S
C1033 N1031 1.356 . S
N1034 C1026 1.356 . S
N1034 H1040 0.984 . S
N1034 H1041 0.984 . S
N1035 C1028 1.356 . S
N1035 H1038 0.984 . S
N1035 H1039 0.985 . S
H1036 N1031 0.984 . S
H1037 N1031 0.985 . S
H1038 N1035 0.984 . S
H1039 N1035 0.985 . S
H1040 N1034 0.984 . S
H1041 N1034 0.984 . S
H1042 N1030 0.984 . S
H1043 N1030 0.985 . S
C1044 C1045 1.363 . S
C1044 C1050 1.379 . S
C1044 N1052 1.356 . S
C1045 C1044 1.363 . S
C1045 C1051 1.363 . S
C1046 C1047 1.361 1_554 S
C1046 C1051 1.379 1_554 S
C1046 N1053 1.358 . S
C1047 C1046 1.361 1_556 S
C1047 C1050 1.363 . S
N1048 C1050 1.356 . S
N1048 H1060 0.984 . S
N1048 H1061 0.985 . S
N1049 C1051 1.356 1_554 S
N1049 H1054 0.984 . S
N1049 H1055 0.985 . S
C1050 C1044 1.379 . S
C1050 C1047 1.363 . S
C1050 N1048 1.356 . S
C1051 C1045 1.363 . S
C1051 C1046 1.379 1_556 S
C1051 N1049 1.356 1_556 S
N1052 C1044 1.356 . S
N1052 H1058 0.984 . S
N1052 H1059 0.984 . S
N1053 C1046 1.358 . S
N1053 H1056 0.984 . S
N1053 H1057 0.985 . S
H1054 N1049 0.984 . S
H1055 N1049 0.985 . S
H1056 N1053 0.984 . S
H1057 N1053 0.985 . S
H1058 N1052 0.984 . S
H1059 N1052 0.984 . S
H1060 N1048 0.984 . S
H1061 N1048 0.985 . S
C1062 C1063 1.363 . S
C1062 C1068 1.379 . S
C1062 N1070 1.356 . S
C1063 C1062 1.363 . S
C1063 C1069 1.363 . S
C1064 C1065 1.363 . S
C1064 C1069 1.379 . S
C1064 N1071 1.356 1_554 S
C1065 C1064 1.363 . S
C1065 C1068 1.363 . S
N1066 C1068 1.356 . S
N1066 H1078 0.984 . S
N1066 H1079 0.985 . S
N1067 C1069 1.356 . S
N1067 H1072 0.984 . S
N1067 H1073 0.985 1_554 S
C1068 C1062 1.379 . S
C1068 C1065 1.363 . S
C1068 N1066 1.356 . S
C1069 C1063 1.363 . S
C1069 C1064 1.379 . S
C1069 N1067 1.356 . S
N1070 C1062 1.356 . S
N1070 H1076 0.984 . S
N1070 H1077 0.984 . S
N1071 C1064 1.356 1_556 S
N1071 H1074 0.984 . S
N1071 H1075 0.985 . S
H1072 N1067 0.984 . S
H1073 N1067 0.985 1_556 S
H1074 N1071 0.984 . S
H1075 N1071 0.985 . S
H1076 N1070 0.984 . S
H1077 N1070 0.984 . S
H1078 N1066 0.984 . S
H1079 N1066 0.985 . S
C1080 C1081 1.363 . S
C1080 C1086 1.379 . S
C1080 N1088 1.356 . S
C1081 C1080 1.363 . S
C1081 C1087 1.363 . S
C1082 C1083 1.363 . S
C1082 C1087 1.379 . S
C1082 N1089 1.356 . S
C1083 C1082 1.363 . S
C1083 C1086 1.363 . S
N1084 C1086 1.356 . S
N1084 H1096 0.984 . S
N1084 H1097 0.985 . S
N1085 C1087 1.356 . S
N1085 H1090 0.984 . S
N1085 H1091 0.985 . S
C1086 C1080 1.379 . S
C1086 C1083 1.363 . S
C1086 N1084 1.356 . S
C1087 C1081 1.363 . S
C1087 C1082 1.379 . S
C1087 N1085 1.356 . S
N1088 C1080 1.356 . S
N1088 H1094 0.984 . S
N1088 H1095 0.984 . S
N1089 C1082 1.356 . S
N1089 H1092 0.984 . S
N1089 H1093 0.985 1_554 S
H1090 N1085 0.984 . S
H1091 N1085 0.985 . S
H1092 N1089 0.984 . S
H1093 N1089 0.985 1_556 S
H1094 N1088 0.984 . S
H1095 N1088 0.984 . S
H1096 N1084 0.984 . S
H1097 N1084 0.985 . S
C1098 C1099 1.363 . S
C1098 C1104 1.379 . S
C1098 N1106 1.356 . S
C1099 C1098 1.363 . S
C1099 C1105 1.363 . S
C1100 C1101 1.363 . S
C1100 C1105 1.379 . S
C1100 N1107 1.356 1_554 S
C1101 C1100 1.363 . S
C1101 C1104 1.363 . S
N1102 C1104 1.356 . S
N1102 H1114 0.984 . S
N1102 H1115 0.985 . S
N1103 C1105 1.356 . S
N1103 H1108 0.984 . S
N1103 H1109 0.985 1_554 S
C1104 C1098 1.379 . S
C1104 C1101 1.363 . S
C1104 N1102 1.356 . S
C1105 C1099 1.363 . S
C1105 C1100 1.379 . S
C1105 N1103 1.356 . S
N1106 C1098 1.356 . S
N1106 H1112 0.984 . S
N1106 H1113 0.984 . S
N1107 C1100 1.356 1_556 S
N1107 H1110 0.984 . S
N1107 H1111 0.985 . S
H1108 N1103 0.984 . S
H1109 N1103 0.985 1_556 S
H1110 N1107 0.984 . S
H1111 N1107 0.985 . S
H1112 N1106 0.984 . S
H1113 N1106 0.984 . S
H1114 N1102 0.984 . S
H1115 N1102 0.985 . S
C1116 C1117 1.363 . S
C1116 C1122 1.379 . S
C1116 N1124 1.356 1_455 S
C1117 C1116 1.363 . S
C1117 C1123 1.363 . S
C1118 C1119 1.363 . S
C1118 C1123 1.379 . S
C1118 N1125 1.356 . S
C1119 C1118 1.363 . S
C1119 C1122 1.363 . S
N1120 C1122 1.356 . S
N1120 H1132 0.984 . S
N1120 H1133 0.985 . S
N1121 C1123 1.356 . S
N1121 H1126 0.984 . S
N1121 H1127 0.985 . S
C1122 C1116 1.379 . S
C1122 C1119 1.363 . S
C1122 N1120 1.356 . S
C1123 C1117 1.363 . S
C1123 C1118 1.379 . S
C1123 N1121 1.356 . S
N1124 C1116 1.356 1_655 S
N1124 H1130 0.984 . S
N1124 H1131 0.984 . S
N1125 C1118 1.356 . S
N1125 H1128 0.984 . S
N1125 H1129 0.985 . S
H1126 N1121 0.984 . S
H1127 N1121 0.985 . S
H1128 N1125 0.984 . S
H1129 N1125 0.985 . S
H1130 N1124 0.984 . S
H1131 N1124 0.984 . S
H1132 N1120 0.984 . S
H1133 N1120 0.985 . S
C1134 C1135 1.363 . S
C1134 C1140 1.379 . S
C1134 N1142 1.356 . S
C1135 C1134 1.363 . S
C1135 C1141 1.363 . S
C1136 C1137 1.363 . S
C1136 C1141 1.379 . S
C1136 N1143 1.356 . S
C1137 C1136 1.363 . S
C1137 C1140 1.363 . S
N1138 C1140 1.356 . S
N1138 H1150 0.984 . S
N1138 H1151 0.985 . S
N1139 C1141 1.356 . S
N1139 H1144 0.984 . S
N1139 H1145 0.985 . S
C1140 C1134 1.379 . S
C1140 C1137 1.363 . S
C1140 N1138 1.356 . S
C1141 C1135 1.363 . S
C1141 C1136 1.379 . S
C1141 N1139 1.356 . S
N1142 C1134 1.356 . S
N1142 H1148 0.984 . S
N1142 H1149 0.984 . S
N1143 C1136 1.356 . S
N1143 H1146 0.984 . S
N1143 H1147 0.985 . S
H1144 N1139 0.984 . S
H1145 N1139 0.985 . S
H1146 N1143 0.984 . S
H1147 N1143 0.985 . S
H1148 N1142 0.984 . S
H1149 N1142 0.984 . S
H1150 N1138 0.984 . S
H1151 N1138 0.985 . S
C1152 C1153 1.363 . S
C1152 C1158 1.379 . S
C1152 N1160 1.356 . S
C1153 C1152 1.363 . S
C1153 C1159 1.363 . S
C1154 C1155 1.363 . S
C1154 C1159 1.379 . S
C1154 N1161 1.356 . S
C1155 C1154 1.363 . S
C1155 C1158 1.363 . S
N1156 C1158 1.356 . S
N1156 H1168 0.984 . S
N1156 H1169 0.985 . S
N1157 C1159 1.356 . S
N1157 H1162 0.984 1_565 S
N1157 H1163 0.985 . S
C1158 C1152 1.379 . S
C1158 C1155 1.363 . S
C1158 N1156 1.356 . S
C1159 C1153 1.363 . S
C1159 C1154 1.379 . S
C1159 N1157 1.356 . S
N1160 C1152 1.356 . S
N1160 H1166 0.984 . S
N1160 H1167 0.984 1_565 S
N1161 C1154 1.356 . S
N1161 H1164 0.984 . S
N1161 H1165 0.985 . S
H1162 N1157 0.984 1_545 S
H1163 N1157 0.985 . S
H1164 N1161 0.984 . S
H1165 N1161 0.985 . S
H1166 N1160 0.984 . S
H1167 N1160 0.984 1_545 S
H1168 N1156 0.984 . S
H1169 N1156 0.985 . S
C1170 C1171 1.363 . S
C1170 C1176 1.379 . S
C1170 N1178 1.356 . S
C1171 C1170 1.363 . S
C1171 C1177 1.363 . S
C1172 C1173 1.363 . S
C1172 C1177 1.379 . S
C1172 N1179 1.356 . S
C1173 C1172 1.363 . S
C1173 C1176 1.363 . S
N1174 C1176 1.356 . S
N1174 H1186 0.984 . S
N1174 H1187 0.985 . S
N1175 C1177 1.356 . S
N1175 H1180 0.984 . S
N1175 H1181 0.985 . S
C1176 C1170 1.379 . S
C1176 C1173 1.363 . S
C1176 N1174 1.356 . S
C1177 C1171 1.363 . S
C1177 C1172 1.379 . S
C1177 N1175 1.356 . S
N1178 C1170 1.356 . S
N1178 H1184 0.984 . S
N1178 H1185 0.984 . S
N1179 C1172 1.356 . S
N1179 H1182 0.984 . S
N1179 H1183 0.985 . S
H1180 N1175 0.984 . S
H1181 N1175 0.985 . S
H1182 N1179 0.984 . S
H1183 N1179 0.985 . S
H1184 N1178 0.984 . S
H1185 N1178 0.984 . S
H1186 N1174 0.984 . S
H1187 N1174 0.985 . S
C1188 C1189 1.363 . S
C1188 C1194 1.379 . S
C1188 N1196 1.356 . S
C1189 C1188 1.363 . S
C1189 C1195 1.363 . S
C1190 C1191 1.363 . S
C1190 C1195 1.379 . S
C1190 N1197 1.356 . S
C1191 C1190 1.363 . S
C1191 C1194 1.363 . S
N1192 C1194 1.356 . S
N1192 H1204 0.984 . S
N1192 H1205 0.985 . S
N1193 C1195 1.356 . S
N1193 H1198 0.984 . S
N1193 H1199 0.985 . S
C1194 C1188 1.379 . S
C1194 C1191 1.363 . S
C1194 N1192 1.356 . S
C1195 C1189 1.363 . S
C1195 C1190 1.379 . S
C1195 N1193 1.356 . S
N1196 C1188 1.356 . S
N1196 H1202 0.984 . S
N1196 H1203 0.984 . S
N1197 C1190 1.356 . S
N1197 H1200 0.984 . S
N1197 H1201 0.985 . S
H1198 N1193 0.984 . S
H1199 N1193 0.985 . S
H1200 N1197 0.984 . S
H1201 N1197 0.985 . S
H1202 N1196 0.984 . S
H1203 N1196 0.984 . S
H1204 N1192 0.984 . S
H1205 N1192 0.985 . S
C1206 C1207 1.363 . S
C1206 C1212 1.379 . S
C1206 N1214 1.356 . S
C1207 C1206 1.363 . S
C1207 C1213 1.363 . S
C1208 C1209 1.363 . S
C1208 C1213 1.379 . S
C1208 N1215 1.356 . S
C1209 C1208 1.363 . S
C1209 C1212 1.363 . S
N1210 C1212 1.356 . S
N1210 H1222 0.984 . S
N1210 H1223 0.985 . S
N1211 C1213 1.356 . S
N1211 H1216 0.984 . S
N1211 H1217 0.985 . S
C1212 C1206 1.379 . S
C1212 C1209 1.363 . S
C1212 N1210 1.356 . S
C1213 C1207 1.363 . S
C1213 C1208 1.379 . S
C1213 N1211 1.356 . S
N1214 C1206 1.356 . S
N1214 H1220 0.984 . S
N1214 H1221 0.984 . S
N1215 C1208 1.356 . S
N1215 H1218 0.984 . S
N1215 H1219 0.985 . S
H1216 N1211 0.984 . S
H1217 N1211 0.985 . S
H1218 N1215 0.984 . S
H1219 N1215 0.985 . S
H1220 N1214 0.984 . S
H1221 N1214 0.984 . S
H1222 N1210 0.984 . S
H1223 N1210 0.985 . S
C1224 C1225 1.363 . S
C1224 C1230 1.379 . S
C1224 N1232 1.356 . S
C1225 C1224 1.363 . S
C1225 C1231 1.363 . S
C1226 C1227 1.363 . S
C1226 C1231 1.379 . S
C1226 N1233 1.356 . S
C1227 C1226 1.363 . S
C1227 C1230 1.363 . S
N1228 C1230 1.356 . S
N1228 H1240 0.984 . S
N1228 H1241 0.985 . S
N1229 C1231 1.356 . S
N1229 H1234 0.984 . S
N1229 H1235 0.985 . S
C1230 C1224 1.379 . S
C1230 C1227 1.363 . S
C1230 N1228 1.356 . S
C1231 C1225 1.363 . S
C1231 C1226 1.379 . S
C1231 N1229 1.356 . S
N1232 C1224 1.356 . S
N1232 H1238 0.984 . S
N1232 H1239 0.984 . S
N1233 C1226 1.356 . S
N1233 H1236 0.984 . S
N1233 H1237 0.985 . S
H1234 N1229 0.984 . S
H1235 N1229 0.985 . S
H1236 N1233 0.984 . S
H1237 N1233 0.985 . S
H1238 N1232 0.984 . S
H1239 N1232 0.984 . S
H1240 N1228 0.984 . S
H1241 N1228 0.985 . S
C1242 C1243 1.363 . S
C1242 C1248 1.379 . S
C1242 N1250 1.356 . S
C1243 C1242 1.363 . S
C1243 C1249 1.363 . S
C1244 C1245 1.363 . S
C1244 C1249 1.379 . S
C1244 N1251 1.356 . S
C1245 C1244 1.363 . S
C1245 C1248 1.363 . S
N1246 C1248 1.356 . S
N1246 H1258 0.984 . S
N1246 H1259 0.985 . S
N1247 C1249 1.356 . S
N1247 H1252 0.984 . S
N1247 H1253 0.985 . S
C1248 C1242 1.379 . S
C1248 C1245 1.363 . S
C1248 N1246 1.356 . S
C1249 C1243 1.363 . S
C1249 C1244 1.379 . S
C1249 N1247 1.356 . S
N1250 C1242 1.356 . S
N1250 H1256 0.984 . S
N1250 H1257 0.984 . S
N1251 C1244 1.356 . S
N1251 H1254 0.984 . S
N1251 H1255 0.985 . S
H1252 N1247 0.984 . S
H1253 N1247 0.985 . S
H1254 N1251 0.984 . S
H1255 N1251 0.985 . S
H1256 N1250 0.984 . S
H1257 N1250 0.984 . S
H1258 N1246 0.984 . S
H1259 N1246 0.985 . S
C1260 C1261 1.363 . S
C1260 C1266 1.379 . S
C1260 N1268 1.356 . S
C1261 C1260 1.363 . S
C1261 C1267 1.363 . S
C1262 C1263 1.363 . S
C1262 C1267 1.379 . S
C1262 N1269 1.356 . S
C1263 C1262 1.363 . S
C1263 C1266 1.363 . S
N1264 C1266 1.356 . S
N1264 H1276 0.984 . S
N1264 H1277 0.985 . S
N1265 C1267 1.356 . S
N1265 H1270 0.984 . S
N1265 H1271 0.985 . S
C1266 C1260 1.379 . S
C1266 C1263 1.363 . S
C1266 N1264 1.356 . S
C1267 C1261 1.363 . S
C1267 C1262 1.379 . S
C1267 N1265 1.356 . S
N1268 C1260 1.356 . S
N1268 H1274 0.984 . S
N1268 H1275 0.984 . S
N1269 C1262 1.356 . S
N1269 H1272 0.984 . S
N1269 H1273 0.985 . S
H1270 N1265 0.984 . S
H1271 N1265 0.985 . S
H1272 N1269 0.984 . S
H1273 N1269 0.985 . S
H1274 N1268 0.984 . S
H1275 N1268 0.984 . S
H1276 N1264 0.984 . S
H1277 N1264 0.985 . S
C1278 C1279 1.363 . S
C1278 C1284 1.379 . S
C1278 N1286 1.356 . S
C1279 C1278 1.363 . S
C1279 C1285 1.363 . S
C1280 C1281 1.363 . S
C1280 C1285 1.379 . S
C1280 N1287 1.356 . S
C1281 C1280 1.363 . S
C1281 C1284 1.363 . S
N1282 C1284 1.356 . S
N1282 H1294 0.984 . S
N1282 H1295 0.985 . S
N1283 C1285 1.356 . S
N1283 H1288 0.984 1_565 S
N1283 H1289 0.985 . S
C1284 C1278 1.379 . S
C1284 C1281 1.363 . S
C1284 N1282 1.356 . S
C1285 C1279 1.363 . S
C1285 C1280 1.379 . S
C1285 N1283 1.356 . S
N1286 C1278 1.356 . S
N1286 H1292 0.984 . S
N1286 H1293 0.984 . S
N1287 C1280 1.356 . S
N1287 H1290 0.984 . S
N1287 H1291 0.985 . S
H1288 N1283 0.984 1_545 S
H1289 N1283 0.985 . S
H1290 N1287 0.984 . S
H1291 N1287 0.985 . S
H1292 N1286 0.984 . S
H1293 N1286 0.984 . S
H1294 N1282 0.984 . S
H1295 N1282 0.985 . S
C1296 C1297 1.363 . S
C1296 C1302 1.379 . S
C1296 N1304 1.356 . S
C1297 C1296 1.363 . S
C1297 C1303 1.363 . S
C1298 C1299 1.363 . S
C1298 C1303 1.379 . S
C1298 N1305 1.356 . S
C1299 C1298 1.363 . S
C1299 C1302 1.363 . S
N1300 C1302 1.356 . S
N1300 H1312 0.984 . S
N1300 H1313 0.985 . S
N1301 C1303 1.356 . S
N1301 H1306 0.984 . S
N1301 H1307 0.985 . S
C1302 C1296 1.379 . S
C1302 C1299 1.363 . S
C1302 N1300 1.356 . S
C1303 C1297 1.363 . S
C1303 C1298 1.379 . S
C1303 N1301 1.356 . S
N1304 C1296 1.356 . S
N1304 H1310 0.984 . S
N1304 H1311 0.947 1_455 S
N1305 C1298 1.356 . S
N1305 H1308 0.984 . S
N1305 H1309 0.985 . S
H1306 N1301 0.984 . S
H1307 N1301 0.985 . S
H1308 N1305 0.984 . S
H1309 N1305 0.985 . S
H1310 N1304 0.984 . S
H1311 N1304 0.947 1_655 S
H1312 N1300 0.984 . S
H1313 N1300 0.985 . S
C1314 C1315 1.363 . S
C1314 C1320 1.379 . S
C1314 N1322 1.356 . S
C1315 C1314 1.363 . S
C1315 C1321 1.363 . S
C1316 C1317 1.363 . S
C1316 C1321 1.379 . S
C1316 N1323 1.356 . S
C1317 C1316 1.363 . S
C1317 C1320 1.363 . S
N1318 C1320 1.356 . S
N1318 H1330 0.984 . S
N1318 H1331 0.985 . S
N1319 C1321 1.356 . S
N1319 H1324 0.984 . S
N1319 H1325 0.985 . S
C1320 C1314 1.379 . S
C1320 C1317 1.363 . S
C1320 N1318 1.356 . S
C1321 C1315 1.363 . S
C1321 C1316 1.379 . S
C1321 N1319 1.356 . S
N1322 C1314 1.356 . S
N1322 H1328 0.984 . S
N1322 H1329 0.984 . S
N1323 C1316 1.356 . S
N1323 H1326 0.984 . S
N1323 H1327 0.985 . S
H1324 N1319 0.984 . S
H1325 N1319 0.985 . S
H1326 N1323 0.984 . S
H1327 N1323 0.985 . S
H1328 N1322 0.984 . S
H1329 N1322 0.984 . S
H1330 N1318 0.984 . S
H1331 N1318 0.985 . S
C1332 C1333 1.363 . S
C1332 C1338 1.379 . S
C1332 N1340 1.356 . S
C1333 C1332 1.363 . S
C1333 C1339 1.363 . S
C1334 C1335 1.363 . S
C1334 C1339 1.379 . S
C1334 N1341 1.356 . S
C1335 C1334 1.363 . S
C1335 C1338 1.363 . S
N1336 C1338 1.356 . S
N1336 H1348 0.984 . S
N1336 H1349 0.985 . S
N1337 C1339 1.356 . S
N1337 H1342 0.984 . S
N1337 H1343 0.985 . S
C1338 C1332 1.379 . S
C1338 C1335 1.363 . S
C1338 N1336 1.356 . S
C1339 C1333 1.363 . S
C1339 C1334 1.379 . S
C1339 N1337 1.356 . S
N1340 C1332 1.356 . S
N1340 H1346 0.984 . S
N1340 H1347 0.984 . S
N1341 C1334 1.356 . S
N1341 H1344 0.984 . S
N1341 H1345 0.985 . S
H1342 N1337 0.984 . S
H1343 N1337 0.985 . S
H1344 N1341 0.984 . S
H1345 N1341 0.985 . S
H1346 N1340 0.984 . S
H1347 N1340 0.984 . S
H1348 N1336 0.984 . S
H1349 N1336 0.985 . S
C1350 C1351 1.363 . S
C1350 C1356 1.379 . S
C1350 N1358 1.356 . S
C1351 C1350 1.363 . S
C1351 C1357 1.363 . S
C1352 C1353 1.363 . S
C1352 C1357 1.379 . S
C1352 N1359 1.356 . S
C1353 C1352 1.363 . S
C1353 C1356 1.363 . S
N1354 C1356 1.356 . S
N1354 H1366 0.984 . S
N1354 H1367 0.985 . S
N1355 C1357 1.356 . S
N1355 H1360 0.984 . S
N1355 H1361 0.985 . S
C1356 C1350 1.379 . S
C1356 C1353 1.363 . S
C1356 N1354 1.356 . S
C1357 C1351 1.363 . S
C1357 C1352 1.379 . S
C1357 N1355 1.356 . S
N1358 C1350 1.356 . S
N1358 H1364 0.984 . S
N1358 H1365 0.984 . S
N1359 C1352 1.356 . S
N1359 H1362 0.984 . S
N1359 H1363 0.985 . S
H1360 N1355 0.984 . S
H1361 N1355 0.985 . S
H1362 N1359 0.984 . S
H1363 N1359 0.985 . S
H1364 N1358 0.984 . S
H1365 N1358 0.984 . S
H1366 N1354 0.984 . S
H1367 N1354 0.985 . S
C1368 C1369 1.363 . S
C1368 C1374 1.379 . S
C1368 N1376 1.356 . S
C1369 C1368 1.363 . S
C1369 C1375 1.363 . S
C1370 C1371 1.363 . S
C1370 C1375 1.379 . S
C1370 N1377 1.356 . S
C1371 C1370 1.363 . S
C1371 C1374 1.363 . S
N1372 C1374 1.356 . S
N1372 H1384 0.984 . S
N1372 H1385 0.985 . S
N1373 C1375 1.356 . S
N1373 H1378 0.984 . S
N1373 H1379 0.985 . S
C1374 C1368 1.379 . S
C1374 C1371 1.363 . S
C1374 N1372 1.356 . S
C1375 C1369 1.363 . S
C1375 C1370 1.379 . S
C1375 N1373 1.356 . S
N1376 C1368 1.356 . S
N1376 H1382 0.984 . S
N1376 H1383 0.984 . S
N1377 C1370 1.356 . S
N1377 H1380 0.984 . S
N1377 H1381 0.985 . S
H1378 N1373 0.984 . S
H1379 N1373 0.985 . S
H1380 N1377 0.984 . S
H1381 N1377 0.985 . S
H1382 N1376 0.984 . S
H1383 N1376 0.984 . S
H1384 N1372 0.984 . S
H1385 N1372 0.985 . S
C1386 C1387 1.363 . S
C1386 C1392 1.379 . S
C1386 N1394 1.356 . S
C1387 C1386 1.363 . S
C1387 C1393 1.363 . S
C1388 C1389 1.363 . S
C1388 C1393 1.379 . S
C1388 N1395 1.356 . S
C1389 C1388 1.363 . S
C1389 C1392 1.363 . S
N1390 C1392 1.356 . S
N1390 H1402 0.984 . S
N1390 H1403 0.985 . S
N1391 C1393 1.356 . S
N1391 H1396 0.984 1_545 S
N1391 H1397 0.985 . S
C1392 C1386 1.379 . S
C1392 C1389 1.363 . S
C1392 N1390 1.356 . S
C1393 C1387 1.363 . S
C1393 C1388 1.379 . S
C1393 N1391 1.356 . S
N1394 C1386 1.356 . S
N1394 H1400 0.984 . S
N1394 H1401 0.984 . S
N1395 C1388 1.356 . S
N1395 H1398 0.984 . S
N1395 H1399 0.985 . S
H1396 N1391 0.984 1_565 S
H1397 N1391 0.985 . S
H1398 N1395 0.984 . S
H1399 N1395 0.985 . S
H1400 N1394 0.984 . S
H1401 N1394 0.984 . S
H1402 N1390 0.984 . S
H1403 N1390 0.985 . S
C1404 C1405 1.363 . S
C1404 C1410 1.379 . S
C1404 N1412 1.356 . S
C1405 C1404 1.363 . S
C1405 C1411 1.363 . S
C1406 C1407 1.363 . S
C1406 C1411 1.379 . S
C1406 N1413 1.356 . S
C1407 C1406 1.363 . S
C1407 C1410 1.363 . S
N1408 C1410 1.356 . S
N1408 H1420 0.984 . S
N1408 H1421 0.985 . S
N1409 C1411 1.356 1_455 S
N1409 H1414 0.984 . S
N1409 H1415 0.985 . S
C1410 C1404 1.379 . S
C1410 C1407 1.363 . S
C1410 N1408 1.356 . S
C1411 C1405 1.363 . S
C1411 C1406 1.379 . S
C1411 N1409 1.356 1_655 S
N1412 C1404 1.356 . S
N1412 H1418 0.984 . S
N1412 H1419 0.984 . S
N1413 C1406 1.356 . S
N1413 H1416 0.984 . S
N1413 H1417 0.985 . S
H1414 N1409 0.984 . S
H1415 N1409 0.985 . S
H1416 N1413 0.984 . S
H1417 N1413 0.985 . S
H1418 N1412 0.984 . S
H1419 N1412 0.984 . S
H1420 N1408 0.984 . S
H1421 N1408 0.985 . S
C1422 C1423 1.363 . S
C1422 C1428 1.379 . S
C1422 N1430 1.356 . S
C1423 C1422 1.363 . S
C1423 C1429 1.363 . S
C1424 C1425 1.363 . S
C1424 C1429 1.379 . S
C1424 N1431 1.356 . S
C1425 C1424 1.363 . S
C1425 C1428 1.363 . S
N1426 C1428 1.356 . S
N1426 H1438 0.984 . S
N1426 H1439 0.985 . S
N1427 C1429 1.356 . S
N1427 H1432 0.984 . S
N1427 H1433 0.985 . S
C1428 C1422 1.379 . S
C1428 C1425 1.363 . S
C1428 N1426 1.356 . S
C1429 C1423 1.363 . S
C1429 C1424 1.379 . S
C1429 N1427 1.356 . S
N1430 C1422 1.356 . S
N1430 H1436 0.984 . S
N1430 H1437 0.984 . S
N1431 C1424 1.356 . S
N1431 H1434 0.984 . S
N1431 H1435 0.985 . S
H1432 N1427 0.984 . S
H1433 N1427 0.985 . S
H1434 N1431 0.984 . S
H1435 N1431 0.985 . S
H1436 N1430 0.984 . S
H1437 N1430 0.984 . S
H1438 N1426 0.984 . S
H1439 N1426 0.985 . S
C1440 C1441 1.363 . S
C1440 C1446 1.379 . S
C1440 N1448 1.356 . S
C1441 C1440 1.363 . S
C1441 C1447 1.363 . S
C1442 C1443 1.363 . S
C1442 C1447 1.379 . S
C1442 N1449 1.356 . S
C1443 C1442 1.363 . S
C1443 C1446 1.363 . S
N1444 C1446 1.356 . S
N1444 H1456 0.984 . S
N1444 H1457 0.985 . S
N1445 C1447 1.356 1_455 S
N1445 H1450 0.984 . S
N1445 H1451 0.985 . S
C1446 C1440 1.379 . S
C1446 C1443 1.363 . S
C1446 N1444 1.356 . S
C1447 C1441 1.363 . S
C1447 C1442 1.379 . S
C1447 N1445 1.356 1_655 S
N1448 C1440 1.356 . S
N1448 H1454 0.984 . S
N1448 H1455 0.984 . S
N1449 C1442 1.356 . S
N1449 H1452 0.984 . S
N1449 H1453 0.985 . S
H1450 N1445 0.984 . S
H1451 N1445 0.985 . S
H1452 N1449 0.984 . S
H1453 N1449 0.985 . S
H1454 N1448 0.984 . S
H1455 N1448 0.984 . S
H1456 N1444 0.984 . S
H1457 N1444 0.985 . S
C1458 C1459 1.363 . S
C1458 C1464 1.379 . S
C1458 N1466 1.356 . S
C1459 C1458 1.363 . S
C1459 C1465 1.363 . S
C1460 C1461 1.363 . S
C1460 C1465 1.379 . S
C1460 N1467 1.356 . S
C1461 C1460 1.363 . S
C1461 C1464 1.363 . S
N1462 C1464 1.356 . S
N1462 H1474 0.984 . S
N1462 H1475 0.985 . S
N1463 C1465 1.356 . S
N1463 H1468 0.984 . S
N1463 H1469 0.985 . S
C1464 C1458 1.379 . S
C1464 C1461 1.363 . S
C1464 N1462 1.356 . S
C1465 C1459 1.363 . S
C1465 C1460 1.379 . S
C1465 N1463 1.356 . S
N1466 C1458 1.356 . S
N1466 H1472 0.984 . S
N1466 H1473 0.984 . S
N1467 C1460 1.356 . S
N1467 H1470 0.984 . S
N1467 H1471 0.985 . S
H1468 N1463 0.984 . S
H1469 N1463 0.985 . S
H1470 N1467 0.984 . S
H1471 N1467 0.985 . S
H1472 N1466 0.984 . S
H1473 N1466 0.984 . S
H1474 N1462 0.984 . S
H1475 N1462 0.985 . S
C1476 C1477 1.363 . S
C1476 C1482 1.379 . S
C1476 N1484 1.356 . S
C1477 C1476 1.363 . S
C1477 C1483 1.363 . S
C1478 C1479 1.363 . S
C1478 C1483 1.379 . S
C1478 N1485 1.356 . S
C1479 C1478 1.363 . S
C1479 C1482 1.363 . S
N1480 C1482 1.356 . S
N1480 H1492 0.984 . S
N1480 H1493 0.985 . S
N1481 C1483 1.356 . S
N1481 H1486 0.984 1_545 S
N1481 H1487 0.985 . S
C1482 C1476 1.379 . S
C1482 C1479 1.363 . S
C1482 N1480 1.356 . S
C1483 C1477 1.363 . S
C1483 C1478 1.379 . S
C1483 N1481 1.356 . S
N1484 C1476 1.356 . S
N1484 H1490 0.984 . S
N1484 H1491 0.984 1_545 S
N1485 C1478 1.356 . S
N1485 H1488 0.984 . S
N1485 H1489 0.985 . S
H1486 N1481 0.984 1_565 S
H1487 N1481 0.985 . S
H1488 N1485 0.984 . S
H1489 N1485 0.985 . S
H1490 N1484 0.984 . S
H1491 N1484 0.984 1_565 S
H1492 N1480 0.984 . S
H1493 N1480 0.985 . S
C1494 C1495 1.363 . S
C1494 C1500 1.379 . S
C1494 N1502 1.356 . S
C1495 C1494 1.363 . S
C1495 C1501 1.363 . S
C1496 C1497 1.363 . S
C1496 C1501 1.379 . S
C1496 N1503 1.356 . S
C1497 C1496 1.363 . S
C1497 C1500 1.363 . S
N1498 C1500 1.356 . S
N1498 H1510 0.984 . S
N1498 H1511 0.985 . S
N1499 C1501 1.356 . S
N1499 H1504 0.984 . S
N1499 H1505 0.985 . S
C1500 C1494 1.379 . S
C1500 C1497 1.363 . S
C1500 N1498 1.356 . S
C1501 C1495 1.363 . S
C1501 C1496 1.379 . S
C1501 N1499 1.356 . S
N1502 C1494 1.356 . S
N1502 H1508 0.984 . S
N1502 H1509 0.984 . S
N1503 C1496 1.356 . S
N1503 H1506 0.984 . S
N1503 H1507 0.985 . S
H1504 N1499 0.984 . S
H1505 N1499 0.985 . S
H1506 N1503 0.984 . S
H1507 N1503 0.985 . S
H1508 N1502 0.984 . S
H1509 N1502 0.984 . S
H1510 N1498 0.984 . S
H1511 N1498 0.985 . S
C1512 C1513 1.363 . S
C1512 C1518 1.379 . S
C1512 N1520 1.356 . S
C1513 C1512 1.363 . S
C1513 C1519 1.363 . S
C1514 C1515 1.363 . S
C1514 C1519 1.379 . S
C1514 N1521 1.356 . S
C1515 C1514 1.363 . S
C1515 C1518 1.363 . S
N1516 C1518 1.356 . S
N1516 H1528 0.984 . S
N1516 H1529 0.985 . S
N1517 C1519 1.356 . S
N1517 H1522 0.984 . S
N1517 H1523 0.985 . S
C1518 C1512 1.379 . S
C1518 C1515 1.363 . S
C1518 N1516 1.356 . S
C1519 C1513 1.363 . S
C1519 C1514 1.379 . S
C1519 N1517 1.356 . S
N1520 C1512 1.356 . S
N1520 H1526 0.984 . S
N1520 H1527 0.984 . S
N1521 C1514 1.356 . S
N1521 H1524 0.984 . S
N1521 H1525 0.985 . S
H1522 N1517 0.984 . S
H1523 N1517 0.985 . S
H1524 N1521 0.984 . S
H1525 N1521 0.985 . S
H1526 N1520 0.984 . S
H1527 N1520 0.984 . S
H1528 N1516 0.984 . S
H1529 N1516 0.985 . S
C1530 C1531 1.363 . S
C1530 C1536 1.379 . S
C1530 N1538 1.356 . S
C1531 C1530 1.363 . S
C1531 C1537 1.363 . S
C1532 C1533 1.363 . S
C1532 C1537 1.379 . S
C1532 N1539 1.356 . S
C1533 C1532 1.363 . S
C1533 C1536 1.363 . S
N1534 C1536 1.356 . S
N1534 H1546 0.984 . S
N1534 H1547 0.985 . S
N1535 C1537 1.356 . S
N1535 H1540 0.984 . S
N1535 H1541 0.985 . S
C1536 C1530 1.379 . S
C1536 C1533 1.363 . S
C1536 N1534 1.356 . S
C1537 C1531 1.363 . S
C1537 C1532 1.379 . S
C1537 N1535 1.356 . S
N1538 C1530 1.356 . S
N1538 H1544 0.984 . S
N1538 H1545 0.984 . S
N1539 C1532 1.356 . S
N1539 H1542 0.984 . S
N1539 H1543 0.985 . S
H1540 N1535 0.984 . S
H1541 N1535 0.985 . S
H1542 N1539 0.984 . S
H1543 N1539 0.985 . S
H1544 N1538 0.984 . S
H1545 N1538 0.984 . S
H1546 N1534 0.984 . S
H1547 N1534 0.985 . S
C1548 C1549 1.333 1_545 S
C1548 C1554 1.383 . S
C1548 N1556 1.376 . S
C1549 C1548 1.333 1_565 S
C1549 C1555 1.363 . S
C1550 C1551 1.363 . S
C1550 C1555 1.379 . S
C1550 N1557 1.356 . S
C1551 C1550 1.363 . S
C1551 C1554 1.363 1_565 S
N1552 C1554 1.356 . S
N1552 H1564 0.984 . S
N1552 H1565 0.985 . S
N1553 C1555 1.356 . S
N1553 H1558 0.984 . S
N1553 H1559 0.985 . S
C1554 C1548 1.383 . S
C1554 C1551 1.363 1_545 S
C1554 N1552 1.356 . S
C1555 C1549 1.363 . S
C1555 C1550 1.379 . S
C1555 N1553 1.356 . S
N1556 C1548 1.376 . S
N1556 H1562 0.984 . S
N1556 H1563 0.984 . S
N1557 C1550 1.356 . S
N1557 H1560 0.984 . S
N1557 H1561 0.985 . S
H1558 N1553 0.984 . S
H1559 N1553 0.985 . S
H1560 N1557 0.984 . S
H1561 N1557 0.985 . S
H1562 N1556 0.984 . S
H1563 N1556 0.984 . S
H1564 N1552 0.984 . S
H1565 N1552 0.985 . S
C1566 C1567 1.363 . S
C1566 C1572 1.379 . S
C1566 N1574 1.356 . S
C1567 C1566 1.363 . S
C1567 C1573 1.363 . S
C1568 C1569 1.363 . S
C1568 C1573 1.379 . S
C1568 N1575 1.356 . S
C1569 C1568 1.363 . S
C1569 C1572 1.363 . S
N1570 C1572 1.356 . S
N1570 H1582 0.984 . S
N1570 H1583 0.985 . S
N1571 C1573 1.356 . S
N1571 H1576 0.984 . S
N1571 H1577 0.985 . S
C1572 C1566 1.379 . S
C1572 C1569 1.363 . S
C1572 N1570 1.356 . S
C1573 C1567 1.363 . S
C1573 C1568 1.379 . S
C1573 N1571 1.356 . S
N1574 C1566 1.356 . S
N1574 H1580 0.984 . S
N1574 H1581 0.984 . S
N1575 C1568 1.356 . S
N1575 H1578 0.984 . S
N1575 H1579 0.985 . S
H1576 N1571 0.984 . S
H1577 N1571 0.985 . S
H1578 N1575 0.984 . S
H1579 N1575 0.985 . S
H1580 N1574 0.984 . S
H1581 N1574 0.984 . S
H1582 N1570 0.984 . S
H1583 N1570 0.985 . S
C1584 C1585 1.363 . S
C1584 C1590 1.379 . S
C1584 N1592 1.356 . S
C1585 C1584 1.363 . S
C1585 C1591 1.363 . S
C1586 C1587 1.363 . S
C1586 C1591 1.379 . S
C1586 N1593 1.356 . S
C1587 C1586 1.363 . S
C1587 C1590 1.363 . S
N1588 C1590 1.356 . S
N1588 H1600 0.984 . S
N1588 H1601 0.985 . S
N1589 C1591 1.356 . S
N1589 H1594 0.984 . S
N1589 H1595 0.985 . S
C1590 C1584 1.379 . S
C1590 C1587 1.363 . S
C1590 N1588 1.356 . S
C1591 C1585 1.363 . S
C1591 C1586 1.379 . S
C1591 N1589 1.356 . S
N1592 C1584 1.356 . S
N1592 H1598 0.984 . S
N1592 H1599 0.984 . S
N1593 C1586 1.356 . S
N1593 H1596 0.984 . S
N1593 H1597 0.985 . S
H1594 N1589 0.984 . S
H1595 N1589 0.985 . S
H1596 N1593 0.984 . S
H1597 N1593 0.985 . S
H1598 N1592 0.984 . S
H1599 N1592 0.984 . S
H1600 N1588 0.984 . S
H1601 N1588 0.985 . S
C1602 C1603 1.363 . S
C1602 C1608 1.379 . S
C1602 N1610 1.356 . S
C1603 C1602 1.363 . S
C1603 C1609 1.363 1_655 S
C1604 C1605 1.363 1_455 S
C1604 C1609 1.379 . S
C1604 N1611 1.356 . S
C1605 C1604 1.363 1_655 S
C1605 C1608 1.363 . S
N1606 C1608 1.356 . S
N1606 H1618 0.984 . S
N1606 H1619 0.985 . S
N1607 C1609 1.356 . S
N1607 H1612 0.984 . S
N1607 H1613 0.985 . S
C1608 C1602 1.379 . S
C1608 C1605 1.363 . S
C1608 N1606 1.356 . S
C1609 C1603 1.363 1_455 S
C1609 C1604 1.379 . S
C1609 N1607 1.356 . S
N1610 C1602 1.356 . S
N1610 H1616 0.984 . S
N1610 H1617 0.984 . S
N1611 C1604 1.356 . S
N1611 H1614 0.984 . S
N1611 H1615 0.985 . S
H1612 N1607 0.984 . S
H1613 N1607 0.985 . S
H1614 N1611 0.984 . S
H1615 N1611 0.985 . S
H1616 N1610 0.984 . S
H1617 N1610 0.984 . S
H1618 N1606 0.984 . S
H1619 N1606 0.985 . S
C1620 C1621 1.363 . S
C1620 C1626 1.379 . S
C1620 N1628 1.356 . S
C1621 C1620 1.363 . S
C1621 C1627 1.363 . S
C1622 C1623 1.363 . S
C1622 C1627 1.379 . S
C1622 N1629 1.356 . S
C1623 C1622 1.363 . S
C1623 C1626 1.363 . S
N1624 C1626 1.356 . S
N1624 H1636 0.984 . S
N1624 H1637 0.985 . S
N1625 C1627 1.356 . S
N1625 H1630 0.984 . S
N1625 H1631 0.985 . S
C1626 C1620 1.379 . S
C1626 C1623 1.363 . S
C1626 N1624 1.356 . S
C1627 C1621 1.363 . S
C1627 C1622 1.379 . S
C1627 N1625 1.356 . S
N1628 C1620 1.356 . S
N1628 H1634 0.984 . S
N1628 H1635 0.984 . S
N1629 C1622 1.356 . S
N1629 H1632 0.984 . S
N1629 H1633 0.985 . S
H1630 N1625 0.984 . S
H1631 N1625 0.985 . S
H1632 N1629 0.984 . S
H1633 N1629 0.985 . S
H1634 N1628 0.984 . S
H1635 N1628 0.984 . S
H1636 N1624 0.984 . S
H1637 N1624 0.985 . S
C1638 C1639 1.363 . S
C1638 C1644 1.379 . S
C1638 N1646 1.356 . S
C1639 C1638 1.363 . S
C1639 C1645 1.363 . S
C1640 C1641 1.363 1_565 S
C1640 C1645 1.379 1_565 S
C1640 N1647 1.356 . S
C1641 C1640 1.363 1_545 S
C1641 C1644 1.363 . S
N1642 C1644 1.356 . S
N1642 H1654 0.984 . S
N1642 H1655 0.985 . S
N1643 C1645 1.356 1_565 S
N1643 H1648 0.984 . S
N1643 H1649 0.985 . S
C1644 C1638 1.379 . S
C1644 C1641 1.363 . S
C1644 N1642 1.356 . S
C1645 C1639 1.363 . S
C1645 C1640 1.379 1_545 S
C1645 N1643 1.356 1_545 S
N1646 C1638 1.356 . S
N1646 H1652 0.984 . S
N1646 H1653 0.984 . S
N1647 C1640 1.356 . S
N1647 H1650 0.984 . S
N1647 H1651 0.985 . S
H1648 N1643 0.984 . S
H1649 N1643 0.985 . S
H1650 N1647 0.984 . S
H1651 N1647 0.985 . S
H1652 N1646 0.984 . S
H1653 N1646 0.984 . S
H1654 N1642 0.984 . S
H1655 N1642 0.985 . S
C1656 C1657 1.363 . S
C1656 C1662 1.379 . S
C1656 N1664 1.356 . S
C1657 C1656 1.363 . S
C1657 C1663 1.363 . S
C1658 C1659 1.363 . S
C1658 C1663 1.379 . S
C1658 N1665 1.356 . S
C1659 C1658 1.363 . S
C1659 C1662 1.363 . S
N1660 C1662 1.356 . S
N1660 H1672 0.984 . S
N1660 H1673 0.985 . S
N1661 C1663 1.356 . S
N1661 H1666 0.984 . S
N1661 H1667 0.985 . S
C1662 C1656 1.379 . S
C1662 C1659 1.363 . S
C1662 N1660 1.356 . S
C1663 C1657 1.363 . S
C1663 C1658 1.379 . S
C1663 N1661 1.356 . S
N1664 C1656 1.356 . S
N1664 H1670 0.984 . S
N1664 H1671 0.984 . S
N1665 C1658 1.356 . S
N1665 H1668 0.984 . S
N1665 H1669 0.985 . S
H1666 N1661 0.984 . S
H1667 N1661 0.985 . S
H1668 N1665 0.984 . S
H1669 N1665 0.985 . S
H1670 N1664 0.984 . S
H1671 N1664 0.984 . S
H1672 N1660 0.984 . S
H1673 N1660 0.985 . S
C1674 C1675 1.363 . S
C1674 C1680 1.379 . S
C1674 N1682 1.356 . S
C1675 C1674 1.363 . S
C1675 C1681 1.363 . S
C1676 C1677 1.363 . S
C1676 C1681 1.379 . S
C1676 N1683 1.356 . S
C1677 C1676 1.363 . S
C1677 C1680 1.363 . S
N1678 C1680 1.356 . S
N1678 H1690 0.984 . S
N1678 H1691 0.985 . S
N1679 C1681 1.356 . S
N1679 H1684 0.984 . S
N1679 H1685 0.985 . S
C1680 C1674 1.379 . S
C1680 C1677 1.363 . S
C1680 N1678 1.356 . S
C1681 C1675 1.363 . S
C1681 C1676 1.379 . S
C1681 N1679 1.356 . S
N1682 C1674 1.356 . S
N1682 H1688 0.984 . S
N1682 H1689 0.984 . S
N1683 C1676 1.356 . S
N1683 H1686 0.984 . S
N1683 H1687 0.985 . S
H1684 N1679 0.984 . S
H1685 N1679 0.985 . S
H1686 N1683 0.984 . S
H1687 N1683 0.985 . S
H1688 N1682 0.984 . S
H1689 N1682 0.984 . S
H1690 N1678 0.984 . S
H1691 N1678 0.985 . S
C1692 C1693 1.363 . S
C1692 C1698 1.379 . S
C1692 N1700 1.356 . S
C1693 C1692 1.363 . S
C1693 C1699 1.363 . S
C1694 C1695 1.363 . S
C1694 C1699 1.379 . S
C1694 N1701 1.356 . S
C1695 C1694 1.363 . S
C1695 C1698 1.363 . S
N1696 C1698 1.356 . S
N1696 H1708 0.984 . S
N1696 H1709 0.985 . S
N1697 C1699 1.356 . S
N1697 H1702 0.984 . S
N1697 H1703 0.985 . S
C1698 C1692 1.379 . S
C1698 C1695 1.363 . S
C1698 N1696 1.356 . S
C1699 C1693 1.363 . S
C1699 C1694 1.379 . S
C1699 N1697 1.356 . S
N1700 C1692 1.356 . S
N1700 H1706 0.984 . S
N1700 H1707 0.984 . S
N1701 C1694 1.356 . S
N1701 H1704 0.984 . S
N1701 H1705 0.985 . S
H1702 N1697 0.984 . S
H1703 N1697 0.985 . S
H1704 N1701 0.984 . S
H1705 N1701 0.985 . S
H1706 N1700 0.984 . S
H1707 N1700 0.984 . S
H1708 N1696 0.984 . S
H1709 N1696 0.985 . S
C1710 C1711 1.363 . S
C1710 C1716 1.379 . S
C1710 N1718 1.356 . S
C1711 C1710 1.363 . S
C1711 C1717 1.363 . S
C1712 C1713 1.363 . S
C1712 C1717 1.379 . S
C1712 N1719 1.356 . S
C1713 C1712 1.363 . S
C1713 C1716 1.363 . S
N1714 C1716 1.356 . S
N1714 H1726 0.984 . S
N1714 H1727 0.985 . S
N1715 C1717 1.356 . S
N1715 H1720 0.984 . S
N1715 H1721 0.985 . S
C1716 C1710 1.379 . S
C1716 C1713 1.363 . S
C1716 N1714 1.356 . S
C1717 C1711 1.363 . S
C1717 C1712 1.379 . S
C1717 N1715 1.356 . S
N1718 C1710 1.356 . S
N1718 H1724 0.984 . S
N1718 H1725 0.984 . S
N1719 C1712 1.356 . S
N1719 H1722 0.984 . S
N1719 H1723 0.985 . S
H1720 N1715 0.984 . S
H1721 N1715 0.985 . S
H1722 N1719 0.984 . S
H1723 N1719 0.985 . S
H1724 N1718 0.984 . S
H1725 N1718 0.984 . S
H1726 N1714 0.984 . S
H1727 N1714 0.985 . S
C1728 C1729 1.363 . S
C1728 C1734 1.379 . S
C1728 N1736 1.356 . S
C1729 C1728 1.363 . S
C1729 C1735 1.363 . S
C1730 C1731 1.363 . S
C1730 C1735 1.379 . S
C1730 N1737 1.356 . S
C1731 C1730 1.363 . S
C1731 C1734 1.363 . S
N1732 C1734 1.356 . S
N1732 H1744 0.984 . S
N1732 H1745 0.985 . S
N1733 C1735 1.356 . S
N1733 H1738 0.984 . S
N1733 H1739 0.985 . S
C1734 C1728 1.379 . S
C1734 C1731 1.363 . S
C1734 N1732 1.356 . S
C1735 C1729 1.363 . S
C1735 C1730 1.379 . S
C1735 N1733 1.356 . S
N1736 C1728 1.356 . S
N1736 H1742 0.984 . S
N1736 H1743 0.984 . S
N1737 C1730 1.356 . S
N1737 H1740 0.984 . S
N1737 H1741 0.985 . S
H1738 N1733 0.984 . S
H1739 N1733 0.985 . S
H1740 N1737 0.984 . S
H1741 N1737 0.985 . S
H1742 N1736 0.984 . S
H1743 N1736 0.984 . S
H1744 N1732 0.984 . S
H1745 N1732 0.985 . S
C1746 C1747 1.363 . S
C1746 C1752 1.379 . S
C1746 N1754 1.356 . S
C1747 C1746 1.363 . S
C1747 C1753 1.363 . S
C1748 C1749 1.363 . S
C1748 C1753 1.379 . S
C1748 N1755 1.356 . S
C1749 C1748 1.363 . S
C1749 C1752 1.363 . S
N1750 C1752 1.356 . S
N1750 H1762 0.984 . S
N1750 H1763 0.985 . S
N1751 C1753 1.356 . S
N1751 H1756 0.984 . S
N1751 H1757 0.985 . S
C1752 C1746 1.379 . S
C1752 C1749 1.363 . S
C1752 N1750 1.356 . S
C1753 C1747 1.363 . S
C1753 C1748 1.379 . S
C1753 N1751 1.356 . S
N1754 C1746 1.356 . S
N1754 H1760 0.984 . S
N1754 H1761 0.984 . S
N1755 C1748 1.356 . S
N1755 H1758 0.984 . S
N1755 H1759 0.985 . S
H1756 N1751 0.984 . S
H1757 N1751 0.985 . S
H1758 N1755 0.984 . S
H1759 N1755 0.985 . S
H1760 N1754 0.984 . S
H1761 N1754 0.984 . S
H1762 N1750 0.984 . S
H1763 N1750 0.985 . S
C1764 C1765 1.363 . S
C1764 C1770 1.379 . S
C1764 N1772 1.356 . S
C1765 C1764 1.363 . S
C1765 C1771 1.363 . S
C1766 C1767 1.363 . S
C1766 C1771 1.379 . S
C1766 N1773 1.356 . S
C1767 C1766 1.363 . S
C1767 C1770 1.363 . S
N1768 C1770 1.356 . S
N1768 H1780 0.984 . S
N1768 H1781 0.985 . S
N1769 C1771 1.356 . S
N1769 H1774 0.984 . S
N1769 H1775 0.985 . S
C1770 C1764 1.379 . S
C1770 C1767 1.363 . S
C1770 N1768 1.356 . S
C1771 C1765 1.363 . S
C1771 C1766 1.379 . S
C1771 N1769 1.356 . S
N1772 C1764 1.356 . S
N1772 H1778 0.984 . S
N1772 H1779 0.984 . S
N1773 C1766 1.356 . S
N1773 H1776 0.984 . S
N1773 H1777 0.985 . S
H1774 N1769 0.984 . S
H1775 N1769 0.985 . S
H1776 N1773 0.984 . S
H1777 N1773 0.985 . S
H1778 N1772 0.984 . S
H1779 N1772 0.984 . S
H1780 N1768 0.984 . S
H1781 N1768 0.985 . S
C1782 C1783 1.363 . S
C1782 C1788 1.379 . S
C1782 N1790 1.356 . S
C1783 C1782 1.363 . S
C1783 C1789 1.363 . S
C1784 C1785 1.363 . S
C1784 C1789 1.379 . S
C1784 N1791 1.356 . S
C1785 C1784 1.363 . S
C1785 C1788 1.363 . S
N1786 C1788 1.356 . S
N1786 H1798 0.984 . S
N1786 H1799 0.985 . S
N1787 C1789 1.356 . S
N1787 H1792 0.984 . S
N1787 H1793 0.985 . S
C1788 C1782 1.379 . S
C1788 C1785 1.363 . S
C1788 N1786 1.356 . S
C1789 C1783 1.363 . S
C1789 C1784 1.379 . S
C1789 N1787 1.356 . S
N1790 C1782 1.356 . S
N1790 H1796 0.984 . S
N1790 H1797 0.984 . S
N1791 C1784 1.356 . S
N1791 H1794 0.984 . S
N1791 H1795 0.985 . S
H1792 N1787 0.984 . S
H1793 N1787 0.985 . S
H1794 N1791 0.984 . S
H1795 N1791 0.985 . S
H1796 N1790 0.984 . S
H1797 N1790 0.984 . S
H1798 N1786 0.984 . S
H1799 N1786 0.985 . S
C1800 C1801 1.363 . S
C1800 C1806 1.379 . S
C1800 N1808 1.356 . S
C1801 C1800 1.363 . S
C1801 C1807 1.363 . S
C1802 C1803 1.363 . S
C1802 C1807 1.379 . S
C1802 N1809 1.356 . S
C1803 C1802 1.363 . S
C1803 C1806 1.363 . S
N1804 C1806 1.356 . S
N1804 H1816 0.984 . S
N1804 H1817 0.985 . S
N1805 C1807 1.356 . S
N1805 H1810 0.984 . S
N1805 H1811 0.985 . S
C1806 C1800 1.379 . S
C1806 C1803 1.363 . S
C1806 N1804 1.356 . S
C1807 C1801 1.363 . S
C1807 C1802 1.379 . S
C1807 N1805 1.356 . S
N1808 C1800 1.356 . S
N1808 H1814 0.984 . S
N1808 H1815 0.984 . S
N1809 C1802 1.356 . S
N1809 H1812 0.984 . S
N1809 H1813 0.985 . S
H1810 N1805 0.984 . S
H1811 N1805 0.985 . S
H1812 N1809 0.984 . S
H1813 N1809 0.985 . S
H1814 N1808 0.984 . S
H1815 N1808 0.984 . S
H1816 N1804 0.984 . S
H1817 N1804 0.985 . S
C1818 C1819 1.363 . S
C1818 C1824 1.379 . S
C1818 N1826 1.356 . S
C1819 C1818 1.363 . S
C1819 C1825 1.363 . S
C1820 C1821 1.363 . S
C1820 C1825 1.379 . S
C1820 N1827 1.356 . S
C1821 C1820 1.363 . S
C1821 C1824 1.363 . S
N1822 C1824 1.356 . S
N1822 H1834 0.984 . S
N1822 H1835 0.985 . S
N1823 C1825 1.356 . S
N1823 H1828 0.984 . S
N1823 H1829 0.985 . S
C1824 C1818 1.379 . S
C1824 C1821 1.363 . S
C1824 N1822 1.356 . S
C1825 C1819 1.363 . S
C1825 C1820 1.379 . S
C1825 N1823 1.356 . S
N1826 C1818 1.356 . S
N1826 H1832 0.984 . S
N1826 H1833 0.984 . S
N1827 C1820 1.356 . S
N1827 H1830 0.984 . S
N1827 H1831 0.985 . S
H1828 N1823 0.984 . S
H1829 N1823 0.985 . S
H1830 N1827 0.984 . S
H1831 N1827 0.985 . S
H1832 N1826 0.984 . S
H1833 N1826 0.984 . S
H1834 N1822 0.984 . S
H1835 N1822 0.985 . S
C1836 C1837 1.363 . S
C1836 C1842 1.379 . S
C1836 N1844 1.356 . S
C1837 C1836 1.363 . S
C1837 C1843 1.363 . S
C1838 C1839 1.363 . S
C1838 C1843 1.379 . S
C1838 N1845 1.356 . S
C1839 C1838 1.363 . S
C1839 C1842 1.363 . S
N1840 C1842 1.356 . S
N1840 H1852 0.984 . S
N1840 H1853 0.985 . S
N1841 C1843 1.356 . S
N1841 H1846 0.984 . S
N1841 H1847 0.985 . S
C1842 C1836 1.379 . S
C1842 C1839 1.363 . S
C1842 N1840 1.356 . S
C1843 C1837 1.363 . S
C1843 C1838 1.379 . S
C1843 N1841 1.356 . S
N1844 C1836 1.356 . S
N1844 H1850 0.984 . S
N1844 H1851 0.984 . S
N1845 C1838 1.356 . S
N1845 H1848 0.984 . S
N1845 H1849 0.985 . S
H1846 N1841 0.984 . S
H1847 N1841 0.985 . S
H1848 N1845 0.984 . S
H1849 N1845 0.985 . S
H1850 N1844 0.984 . S
H1851 N1844 0.984 . S
H1852 N1840 0.984 . S
H1853 N1840 0.985 . S
C1854 C1855 1.363 . S
C1854 C1860 1.379 . S
C1854 N1862 1.356 . S
C1855 C1854 1.363 . S
C1855 C1861 1.363 . S
C1856 C1857 1.363 . S
C1856 C1861 1.379 . S
C1856 N1863 1.356 . S
C1857 C1856 1.363 . S
C1857 C1860 1.363 . S
N1858 C1860 1.356 . S
N1858 H1870 0.984 . S
N1858 H1871 0.985 . S
N1859 C1861 1.356 . S
N1859 H1864 0.984 . S
N1859 H1865 0.985 . S
C1860 C1854 1.379 . S
C1860 C1857 1.363 . S
C1860 N1858 1.356 . S
C1861 C1855 1.363 . S
C1861 C1856 1.379 . S
C1861 N1859 1.356 . S
N1862 C1854 1.356 . S
N1862 H1868 0.984 . S
N1862 H1869 0.984 . S
N1863 C1856 1.356 . S
N1863 H1866 0.984 . S
N1863 H1867 0.985 . S
H1864 N1859 0.984 . S
H1865 N1859 0.985 . S
H1866 N1863 0.984 . S
H1867 N1863 0.985 . S
H1868 N1862 0.984 . S
H1869 N1862 0.984 . S
H1870 N1858 0.984 . S
H1871 N1858 0.985 . S
C901 C522 1.642 . S
C903 C726 1.597 . S
C919 C562 1.544 . S
C921 C746 1.493 . S
C937 C495 1.615 . S
C939 C769 1.614 . S
C955 C455 1.518 . S
C957 C749 1.515 . S
C975 C766 1.471 . S
C973 C362 1.488 . S
C991 C402 1.573 . S
C993 C729 1.539 . S
C1011 C736 1.619 . S
C1009 C442 1.582 . S
C1029 C756 1.474 . S
C1027 C375 1.514 . S
C1045 C415 1.624 . S
C1047 C761 1.614 . S
C1063 C535 1.525 . S
C1065 C741 1.514 . S
C1081 C575 1.465 . S
C1083 C776 1.448 . S
C1101 C721 1.562 . S
C1099 C482 1.514 . S
C1119 C786 1.597 . S
C1117 C42 1.642 1_455 S
C1135 C82 1.544 . S
C1137 C806 1.493 . S
C1153 C15 1.615 1_565 S
C1155 C829 1.613 . S
C1171 C695 1.518 . S
C1173 C809 1.515 . S
C1189 C602 1.489 . S
C1191 C826 1.472 . S
C1207 C642 1.573 . S
C1209 C789 1.539 . S
C1225 C682 1.582 . S
C1227 C796 1.619 . S
C1243 C615 1.514 . S
C1245 C816 1.474 . S
C1263 C821 1.614 . S
C1261 C655 1.624 . S
C1279 C55 1.525 1_565 S
C1281 C801 1.514 . S
C1299 C836 1.448 . S
C1297 C95 1.464 1_455 S
C1315 C2 1.514 . S
C1317 C781 1.562 . S
C1335 C846 1.597 . S
C1333 C282 1.642 . S
C1351 C322 1.544 . S
C1353 C866 1.493 . S
C1371 C889 1.614 . S
C1369 C255 1.615 . S
C1389 C869 1.515 . S
C1387 C215 1.518 1_545 S
C1407 C886 1.471 . S
C1405 C122 1.488 1_655 S
C1423 C162 1.573 . S
C1425 C849 1.539 . S
C1441 C202 1.582 1_655 S
C1443 C856 1.619 . S
C1459 C135 1.514 . S
C1461 C876 1.474 . S
C1479 C881 1.614 . S
C1477 C175 1.624 1_545 S
C1495 C295 1.525 . S
C1497 C861 1.514 . S
C1513 C335 1.464 . S
C1515 C896 1.447 . S
C1531 C242 1.514 . S
C1533 C841 1.562 . S
C1549 C621 1.322 . S
C1551 C739 1.283 1_565 S
C1569 C759 1.623 . S
C1567 C661 1.724 . S
C1585 C701 1.519 . S
C1587 C768 1.514 . S
C1603 C261 1.663 . S
C1605 C748 1.650 . S
C1621 C301 1.563 . S
C1623 C779 1.490 . S
C1641 C728 1.280 . S
C1639 C341 1.310 . S
C1657 C141 1.323 . S
C1659 C799 1.283 . S
C1675 C181 1.724 . S
C1677 C819 1.623 . S
C1693 C221 1.519 . S
C1695 C828 1.514 . S
C1711 C501 1.663 . S
C1713 C808 1.645 . S
C1731 C839 1.491 . S
C1729 C541 1.564 . S
C1747 C581 1.310 . S
C1749 C788 1.271 . S
C1765 C381 1.322 . S
C1767 C859 1.283 . S
C1783 C421 1.724 . S
C1785 C879 1.623 . S
C1803 C888 1.514 . S
C1801 C461 1.519 . S
C1819 C21 1.663 . S
C1821 C868 1.645 . S
C1837 C61 1.563 . S
C1839 C899 1.490 . S
C1855 C101 1.310 . S
C1857 C848 1.271 . S
