# Generated by pormake.
# Topology bcu-b, (8,8)-cn, num edge types: 1
# Building blocks:
#     Node 0, Type 0, BuildingBlock: TAGTUT_clean_sbu_1, # of connection points: 8
#     Node 1, Type 1, BuildingBlock: VETTIZ_charged_sbu_0, # of connection points: 8
#     Edge 2, Type (0, 1), BuildingBlock: ZUJKAS_clean_linker_0, # of connection points: 2
#     Edge 3, Type (0, 1), BuildingBlock: ZUJKAS_clean_linker_0, # of connection points: 2
#     Edge 4, Type (0, 1), BuildingBlock: ZUJKAS_clean_linker_0, # of connection points: 2
#     Edge 5, Type (0, 1), BuildingBlock: ZUJKAS_clean_linker_0, # of connection points: 2
#     Edge 6, Type (0, 1), BuildingBlock: ZUJKAS_clean_linker_0, # of connection points: 2
#     Edge 7, Type (0, 1), BuildingBlock: ZUJKAS_clean_linker_0, # of connection points: 2
#     Edge 8, Type (0, 1), BuildingBlock: ZUJKAS_clean_linker_0, # of connection points: 2
#     Edge 9, Type (0, 1), BuildingBlock: ZUJKAS_clean_linker_0, # of connection points: 2
# Relax obj value: 0.029
# Max RMSD: 0.124
# Mean RMSD: 0.087
data_MOF--net-bcu-b--node1-TAGTUT_clean_sbu_1--node2-VETTIZ_charged_sbu_0--edge1-ZUJKAS_clean_linker_0
_symmetry_space_group_name_H-M    P1
_symmetry_Int_Tables_number       1
_symmetry_cell_setting            triclinic
loop_
_symmetry_equiv_pos_as_xyz
'x, y, z'
_cell_length_a     25.285848
_cell_length_b     23.969672
_cell_length_c     25.636917
_cell_angle_alpha  90.517281
_cell_angle_beta   91.851494
_cell_angle_gamma 97.832259
loop_
_atom_site_label
_atom_site_type_symbol
_atom_site_fract_x
_atom_site_fract_y
_atom_site_fract_z
_atom_type_partial_charge
C0 C 0.86559 0.13483 0.07494 0.0
C1 C 0.91961 0.13479 0.91695 0.0
C2 C 0.91432 0.91116 0.93994 0.0
Mg3 Mg 0.97574 0.13402 0.02463 0.0
O4 O 0.95529 0.05642 0.03129 0.0
Mg5 Mg 0.88475 0.02427 0.99733 0.0
Mg6 Mg 1.00175 1.00487 0.00061 0.0
O7 O 0.04796 0.95304 0.96989 0.0
Mg8 Mg 0.02772 0.87531 0.97454 0.0
Mg9 Mg 0.11856 0.98477 0.00323 0.0
C10 C 0.08937 0.0989 0.05956 0.0
C11 C 0.08093 0.07375 0.9188 0.0
O12 O 0.84803 0.08826 0.05072 0.0
O13 O 0.91384 0.15892 0.07145 0.0
O14 O 0.89008 0.08999 0.93072 0.0
O15 O 0.95901 0.15724 0.94572 0.0
O16 O 0.05873 0.13702 0.05227 0.0
O17 O 0.07353 0.04636 0.05004 0.0
C18 C 0.92168 0.93294 0.08022 0.0
O19 O 0.96978 0.94301 0.06457 0.0
O20 O 0.88425 0.95886 0.06148 0.0
O21 O 0.15545 0.92065 0.95042 0.0
O22 O 0.08915 0.85172 0.92641 0.0
O23 O 0.11281 0.91968 0.07006 0.0
C24 C 0.1377 0.87532 0.92446 0.0
O25 O 0.04505 0.85135 0.05322 0.0
O26 O 0.94494 0.8729 0.94651 0.0
C27 C 0.08363 0.87425 0.08287 0.0
O28 O 0.93029 0.96339 0.95082 0.0
O29 O 0.03356 0.06652 0.93646 0.0
O30 O 0.11828 0.04758 0.93714 0.0
Fe31 Fe 0.51136 0.63265 0.45729 0.0
O32 O 0.50572 0.55049 0.46286 0.0
Fe33 Fe 0.56701 0.51561 0.50258 0.0
Fe34 Fe 0.44402 0.50486 0.49577 0.0
O35 O 0.51087 0.55091 0.46315 0.0
O36 O 0.50508 0.46989 0.53512 0.0
O37 O 0.50006 0.46936 0.53466 0.0
Fe38 Fe 0.49741 0.38777 0.54139 0.0
C39 C 0.43964 0.61402 0.55074 0.0
O40 O 0.44987 0.61131 0.40281 0.0
O41 O 0.39291 0.54854 0.44965 0.0
O42 O 0.55469 0.37767 0.48768 0.0
O43 O 0.56697 0.45761 0.44302 0.0
O44 O 0.62477 0.56876 0.46215 0.0
O45 O 0.5759 0.6246 0.41185 0.0
O46 O 0.441 0.44673 0.43608 0.0
O47 O 0.43968 0.36855 0.48253 0.0
C48 C 0.61973 0.60446 0.42472 0.0
O49 O 0.56044 0.40804 0.59449 0.0
O50 O 0.61791 0.47171 0.54893 0.0
O51 O 0.45177 0.64085 0.50921 0.0
O52 O 0.44527 0.56248 0.55563 0.0
C53 C 0.40305 0.58382 0.41156 0.0
C54 C 0.43169 0.39345 0.43986 0.0
C55 C 0.39198 0.42029 0.57644 0.0
O56 O 0.38605 0.45258 0.53662 0.0
O57 O 0.43522 0.39903 0.58897 0.0
C58 C 0.56962 0.40517 0.44716 0.0
O59 O 0.56944 0.57376 0.5626 0.0
O60 O 0.56686 0.65244 0.51741 0.0
C61 C 0.60737 0.43551 0.58625 0.0
C62 C 0.57561 0.62723 0.55966 0.0
H63 H 0.15329 0.19604 0.04064 0.0
H64 H 0.22868 0.23959 0.09541 0.0
H65 H 0.21986 0.0895 0.18813 0.0
H66 H 0.14496 0.04504 0.13225 0.0
H67 H 0.20698 0.25733 0.19744 0.0
H68 H 0.38136 0.14044 0.18589 0.0
H69 H 0.32877 0.13491 0.1359 0.0
H70 H 0.31878 0.09711 0.19577 0.0
C71 C 0.16872 0.17157 0.07155 0.0
C72 C 0.14308 0.11748 0.08268 0.0
C73 C 0.21178 0.19648 0.10279 0.0
C74 C 0.22977 0.16796 0.146 0.0
C75 C 0.20719 0.11201 0.15455 0.0
H76 H 0.39767 0.27994 0.43499 0.0
H77 H 0.35327 0.22532 0.36117 0.0
C78 C 0.16433 0.08666 0.12268 0.0
C79 C 0.26466 0.20024 0.18657 0.0
H80 H 0.38273 0.20651 0.25642 0.0
C81 C 0.2457 0.24655 0.20989 0.0
C82 C 0.31474 0.18561 0.20325 0.0
C83 C 0.33747 0.13709 0.17867 0.0
C84 C 0.27499 0.27828 0.24984 0.0
C85 C 0.32522 0.26398 0.26642 0.0
C86 C 0.34433 0.21756 0.24331 0.0
C87 C 0.35727 0.29601 0.30897 0.0
C88 C 0.25109 0.32587 0.27499 0.0
C89 C 0.37534 0.35361 0.30362 0.0
C90 C 0.40027 0.38516 0.34585 0.0
C91 C 0.40799 0.35953 0.39415 0.0
C92 C 0.39196 0.3012 0.39856 0.0
C93 C 0.36683 0.26978 0.35633 0.0
H94 H 0.20739 0.32262 0.26656 0.0
H95 H 0.25822 0.32657 0.31797 0.0
H96 H 0.2701 0.36656 0.25952 0.0
H97 H 0.3691 0.37443 0.26705 0.0
H98 H 0.41274 0.42979 0.3408 0.0
H99 H 0.88961 0.23189 0.13263 0.0
H100 H 0.83275 0.27393 0.19226 0.0
H101 H 0.70363 0.14117 0.15581 0.0
H102 H 0.76034 0.09837 0.09542 0.0
H103 H 0.67524 0.25591 0.15822 0.0
H104 H 0.78993 0.20357 0.33532 0.0
H105 H 0.82986 0.23912 0.28575 0.0
H106 H 0.79492 0.16971 0.27279 0.0
C107 C 0.84911 0.21144 0.13698 0.0
C108 C 0.82975 0.16135 0.10938 0.0
C109 C 0.81673 0.23558 0.17128 0.0
C110 C 0.76434 0.21022 0.17891 0.0
C111 C 0.74414 0.16116 0.15054 0.0
H112 H 0.57741 0.29275 0.43979 0.0
H113 H 0.61991 0.24394 0.37223 0.0
C114 C 0.77663 0.13676 0.11615 0.0
C115 C 0.73134 0.23481 0.21732 0.0
H116 H 0.72669 0.26698 0.34686 0.0
C117 C 0.68613 0.25804 0.19953 0.0
C118 C 0.7455 0.23696 0.27117 0.0
C119 C 0.79242 0.2106 0.29264 0.0
C120 C 0.65545 0.28486 0.23422 0.0
C121 C 0.67086 0.28885 0.28781 0.0
C122 C 0.71524 0.26426 0.30567 0.0
C123 C 0.64169 0.3183 0.32635 0.0
C124 C 0.6067 0.30837 0.21339 0.0
C125 C 0.6398 0.37642 0.3229 0.0
C126 C 0.61556 0.40466 0.36159 0.0
C127 C 0.59309 0.37526 0.40462 0.0
C128 C 0.59446 0.31685 0.4074 0.0
C129 C 0.61866 0.28876 0.36876 0.0
H130 H 0.59284 0.28976 0.17466 0.0
H131 H 0.57345 0.3006 0.24081 0.0
H132 H 0.61662 0.35457 0.20884 0.0
H133 H 0.65826 0.4002 0.29098 0.0
H134 H 0.61542 0.44966 0.35827 0.0
H135 H 0.98856 0.88368 0.14741 0.0
H136 H 0.96264 0.80964 0.21124 0.0
H137 H 0.79722 0.80837 0.16413 0.0
H138 H 0.82236 0.88128 0.10087 0.0
H139 H 0.88742 0.81862 0.29503 0.0
H140 H 0.81958 0.6394 0.16089 0.0
H141 H 0.8659 0.69962 0.14216 0.0
H142 H 0.79519 0.703 0.14067 0.0
C143 C 0.94677 0.86712 0.15039 0.0
C144 C 0.90756 0.88839 0.11903 0.0
C145 C 0.93207 0.82492 0.18683 0.0
C146 C 0.8781 0.80289 0.19163 0.0
C147 C 0.83917 0.82398 0.16026 0.0
H148 H 0.63977 0.70775 0.38214 0.0
H149 H 0.71674 0.7468 0.33331 0.0
C150 C 0.85365 0.86618 0.12445 0.0
C151 C 0.86052 0.76096 0.23174 0.0
H152 H 0.77578 0.6386 0.24416 0.0
C153 C 0.86455 0.7783 0.28427 0.0
C154 C 0.83127 0.70808 0.21777 0.0
C155 C 0.82814 0.68612 0.16231 0.0
C156 C 0.83523 0.7469 0.32223 0.0
C157 C 0.80111 0.69732 0.30703 0.0
C158 C 0.80168 0.67688 0.25567 0.0
C159 C 0.75723 0.67323 0.34033 0.0
C160 C 0.83792 0.76898 0.37763 0.0
C161 C 0.75426 0.61846 0.36009 0.0
C162 C 0.71005 0.59588 0.38863 0.0
C163 C 0.66781 0.62738 0.3964 0.0
C164 C 0.67131 0.68213 0.37643 0.0
C165 C 0.71555 0.70479 0.34892 0.0
H166 H 0.87629 0.79638 0.38657 0.0
H167 H 0.80498 0.7945 0.38306 0.0
H168 H 0.83328 0.73388 0.40582 0.0
H169 H 0.78587 0.59327 0.35322 0.0
H170 H 0.70827 0.55351 0.40345 0.0
H171 H 0.03643 0.77273 0.11917 0.0
H172 H 0.07308 0.71437 0.18524 0.0
H173 H 0.20392 0.84661 0.21738 0.0
H174 H 0.16757 0.90539 0.15195 0.0
H175 H 0.1717 0.67926 0.17564 0.0
H176 H 0.16532 0.79319 0.36345 0.0
H177 H 0.12533 0.8073 0.30663 0.0
H178 H 0.1943 0.83798 0.31322 0.0
C179 C 0.07233 0.79001 0.14114 0.0
C180 C 0.09937 0.84361 0.12972 0.0
C181 C 0.09322 0.7565 0.17889 0.0
C182 C 0.14113 0.77615 0.20639 0.0
C183 C 0.16644 0.83087 0.19731 0.0
H184 H 0.40692 0.6295 0.31449 0.0
H185 H 0.33541 0.66702 0.26594 0.0
C186 C 0.14567 0.86438 0.15957 0.0
C187 C 0.1683 0.73752 0.23958 0.0
H188 H 0.22954 0.72749 0.35913 0.0
C189 C 0.18344 0.68921 0.21609 0.0
C190 C 0.18321 0.75015 0.29247 0.0
C191 C 0.16572 0.79969 0.3206 0.0
C192 C 0.21575 0.65513 0.2431 0.0
C193 C 0.23378 0.67005 0.29476 0.0
C194 C 0.21601 0.71635 0.31934 0.0
C195 C 0.27501 0.6416 0.32209 0.0
C196 C 0.23145 0.60421 0.2157 0.0
C197 C 0.26473 0.6145 0.36974 0.0
C198 C 0.30566 0.59266 0.39766 0.0
C199 C 0.35775 0.59856 0.37875 0.0
C200 C 0.36733 0.62429 0.33023 0.0
C201 C 0.3264 0.64554 0.30224 0.0
H202 H 0.20248 0.58907 0.18346 0.0
H203 H 0.27117 0.61566 0.1986 0.0
H204 H 0.23424 0.56926 0.24336 0.0
H205 H 0.22536 0.61136 0.38584 0.0
H206 H 0.29706 0.57355 0.43511 0.0
H207 H 0.24731 0.8875 0.92917 0.0
H208 H 0.30573 0.84352 0.8716 0.0
H209 H 0.16767 0.76382 0.78268 0.0
H210 H 0.10934 0.80541 0.8411 0.0
H211 H 0.23438 0.69152 0.79994 0.0
H212 H 0.34784 0.8885 0.72754 0.0
H213 H 0.35289 0.88184 0.79709 0.0
H214 H 0.28929 0.88839 0.76585 0.0
C215 C 0.22954 0.8607 0.89724 0.0
C216 C 0.17374 0.84994 0.88968 0.0
C217 C 0.26296 0.83588 0.86415 0.0
C218 C 0.24118 0.80107 0.8222 0.0
C219 C 0.18548 0.79046 0.81474 0.0
H220 H 0.38817 0.70663 0.54343 0.0
H221 H 0.34324 0.75086 0.61235 0.0
C222 C 0.15214 0.81433 0.84821 0.0
C223 C 0.27573 0.77449 0.78633 0.0
H224 H 0.37623 0.80299 0.70069 0.0
C225 C 0.26545 0.71592 0.77826 0.0
C226 C 0.31591 0.8064 0.75765 0.0
C227 C 0.32688 0.86979 0.76199 0.0
C228 C 0.2933 0.68848 0.74164 0.0
C229 C 0.33421 0.72021 0.7137 0.0
C230 C 0.34521 0.77864 0.72245 0.0
C231 C 0.3637 0.69426 0.67283 0.0
C232 C 0.27683 0.62623 0.73173 0.0
C233 C 0.39104 0.64831 0.68401 0.0
C234 C 0.4159 0.62223 0.64438 0.0
C235 C 0.41502 0.64257 0.59314 0.0
C236 C 0.38953 0.68997 0.58251 0.0
C237 C 0.36389 0.71534 0.62191 0.0
H238 H 0.23588 0.61205 0.74512 0.0
H239 H 0.27807 0.6155 0.68961 0.0
H240 H 0.30466 0.60224 0.75362 0.0
H241 H 0.39287 0.63234 0.7233 0.0
H242 H 0.43597 0.58629 0.65388 0.0
H243 H 0.06101 0.1827 0.91014 0.0
H244 H 0.09915 0.25158 0.84649 0.0
H245 H 0.16797 0.1205 0.76713 0.0
H246 H 0.13214 0.0528 0.83185 0.0
H247 H 0.24129 0.20336 0.79393 0.0
H248 H 0.07337 0.29307 0.6968 0.0
H249 H 0.07359 0.2973 0.76676 0.0
H250 H 0.06352 0.22952 0.73461 0.0
C251 C 0.08301 0.16859 0.87815 0.0
C252 C 0.09395 0.11277 0.87573 0.0
C253 C 0.10462 0.20784 0.84167 0.0
C254 C 0.13634 0.19125 0.8018 0.0
C255 C 0.14385 0.13441 0.79759 0.0
H256 H 0.29438 0.36652 0.54463 0.0
H257 H 0.22658 0.31782 0.60111 0.0
C258 C 0.1234 0.09574 0.8345 0.0
C259 C 0.16812 0.23334 0.76903 0.0
H260 H 0.16126 0.33979 0.6822 0.0
C261 C 0.22359 0.23298 0.76936 0.0
C262 C 0.14512 0.27199 0.73692 0.0
C263 C 0.08558 0.27281 0.73324 0.0
C264 C 0.25664 0.26922 0.73807 0.0
C265 C 0.23407 0.30908 0.70705 0.0
C266 C 0.17856 0.30982 0.70663 0.0
C267 C 0.26793 0.34811 0.67329 0.0
C268 C 0.31529 0.26291 0.73739 0.0
C269 C 0.31202 0.38361 0.6951 0.0
C270 C 0.35117 0.41005 0.66307 0.0
C271 C 0.34576 0.40316 0.60871 0.0
C272 C 0.29906 0.37251 0.58655 0.0
C273 C 0.26043 0.34478 0.61874 0.0
H274 H 0.32297 0.22101 0.75163 0.0
H275 H 0.33077 0.26841 0.69746 0.0
H276 H 0.33821 0.29538 0.76347 0.0
H277 H 0.3179 0.3879 0.73706 0.0
H278 H 0.38682 0.43389 0.68081 0.0
H279 H 0.97043 0.23259 0.87615 0.0
H280 H 0.93395 0.29227 0.81103 0.0
H281 H 0.79489 0.16782 0.78818 0.0
H282 H 0.83108 0.10756 0.85259 0.0
H283 H 0.83125 0.22122 0.69488 0.0
H284 H 0.80863 0.37486 0.85408 0.0
H285 H 0.87489 0.35775 0.8456 0.0
H286 H 0.82337 0.30463 0.86697 0.0
C287 C 0.93252 0.21735 0.85662 0.0
C288 C 0.90325 0.16561 0.8704 0.0
C289 C 0.91164 0.25172 0.81956 0.0
C290 C 0.86114 0.23506 0.79573 0.0
C291 C 0.83377 0.18167 0.80642 0.0
H292 H 0.60197 0.38962 0.68304 0.0
H293 H 0.67149 0.34852 0.7312 0.0
C294 C 0.85459 0.14724 0.84334 0.0
C295 C 0.83443 0.27459 0.76311 0.0
H296 H 0.7749 0.39402 0.77083 0.0
C297 C 0.81963 0.25951 0.71112 0.0
C298 C 0.8188 0.32417 0.78473 0.0
C299 C 0.83177 0.34138 0.84098 0.0
C300 C 0.78835 0.29184 0.68057 0.0
C301 C 0.77193 0.34083 0.70252 0.0
C302 C 0.78808 0.3568 0.75399 0.0
C303 C 0.73247 0.37175 0.67513 0.0
C304 C 0.77068 0.27175 0.62601 0.0
C305 C 0.74421 0.40035 0.62842 0.0
C306 C 0.70436 0.42431 0.6007 0.0
C307 C 0.65215 0.41966 0.6192 0.0
C308 C 0.64157 0.39355 0.66739 0.0
C309 C 0.68132 0.37006 0.69508 0.0
H310 H 0.78025 0.22873 0.6177 0.0
H311 H 0.72697 0.27165 0.61998 0.0
H312 H 0.79114 0.30092 0.59736 0.0
H313 H 0.78371 0.40283 0.61276 0.0
H314 H 0.71379 0.444 0.56366 0.0
H315 H 0.85923 0.80566 0.93724 0.0
H316 H 0.78185 0.77125 0.88149 0.0
H317 H 0.76886 0.94105 0.83363 0.0
H318 H 0.84781 0.97604 0.88883 0.0
H319 H 0.67623 0.78969 0.86523 0.0
H320 H 0.80307 0.86302 0.69873 0.0
H321 H 0.82983 0.86256 0.76471 0.0
H322 H 0.7904 0.9161 0.74482 0.0
C323 C 0.83947 0.83598 0.91561 0.0
C324 C 0.86046 0.89344 0.91636 0.0
C325 C 0.79494 0.8162 0.88398 0.0
C326 C 0.77045 0.85339 0.85247 0.0
C327 C 0.78798 0.91153 0.85691 0.0
H328 H 0.58042 0.74107 0.57149 0.0
H329 H 0.61786 0.79975 0.64542 0.0
C330 C 0.83283 0.9315 0.88869 0.0
C331 C 0.73187 0.82968 0.81064 0.0
H332 H 0.72197 0.80709 0.67887 0.0
C333 C 0.68566 0.7942 0.82438 0.0
C334 C 0.74456 0.83528 0.75739 0.0
C335 C 0.79478 0.87091 0.74025 0.0
C336 C 0.6526 0.76293 0.78634 0.0
C337 C 0.66665 0.76679 0.73345 0.0
C338 C 0.7114 0.8042 0.71953 0.0
C339 C 0.63777 0.73023 0.69189 0.0
C340 C 0.60341 0.72552 0.80314 0.0
C341 C 0.63624 0.67147 0.69361 0.0
C342 C 0.61491 0.63757 0.65122 0.0
C343 C 0.59535 0.66202 0.60615 0.0
C344 C 0.5957 0.7208 0.60528 0.0
C345 C 0.61681 0.7545 0.64763 0.0
H346 H 0.58957 0.73983 0.84107 0.0
H347 H 0.57032 0.72438 0.77343 0.0
H348 H 0.61297 0.682 0.80806 0.0
H349 H 0.65331 0.65196 0.72693 0.0
H350 H 0.61522 0.59249 0.6532 0.0
loop_
_geom_bond_atom_site_label_1
_geom_bond_atom_site_label_2
_geom_bond_distance
_geom_bond_site_symmetry_2
_ccdc_geom_bond_type
C0 O12 1.241 . S
C0 O13 1.280 . S
C1 O14 1.277 . S
C1 O15 1.245 . S
C2 O26 1.247 . S
C2 O28 1.289 . S
Mg3 O4 1.926 . S
Mg3 O13 1.984 . S
Mg3 O15 1.988 1_554 S
Mg3 O16 2.061 1_655 S
O4 Mg3 1.926 . S
O4 Mg5 1.988 . S
O4 Mg6 1.917 1_655 S
Mg5 O4 1.988 . S
Mg5 O12 2.047 . S
Mg5 O14 2.036 1_554 S
Mg5 O20 2.043 1_545 S
Mg5 O28 2.234 1_544 S
Mg6 O4 1.917 1_455 S
Mg6 O7 1.917 1_544 S
Mg6 O17 2.106 . S
Mg6 O19 2.079 1_445 S
Mg6 O28 2.106 1_444 S
Mg6 O29 2.079 1_554 S
O7 Mg6 1.917 1_566 S
O7 Mg8 1.926 . S
O7 Mg9 1.987 . S
Mg8 O7 1.926 . S
Mg8 O22 1.984 . S
Mg8 O25 1.988 1_556 S
Mg8 O26 2.061 1_455 S
Mg9 O7 1.987 . S
Mg9 O17 2.237 1_566 S
Mg9 O21 2.043 . S
Mg9 O23 2.040 1_556 S
Mg9 O30 2.040 1_565 S
C10 O16 1.247 . S
C10 O17 1.289 . S
C11 O29 1.245 . S
C11 O30 1.274 . S
O12 C0 1.241 . S
O12 Mg5 2.047 . S
O13 C0 1.280 . S
O13 Mg3 1.984 . S
O14 C1 1.277 . S
O14 Mg5 2.036 1_556 S
O15 C1 1.245 . S
O15 Mg3 1.988 1_556 S
O16 Mg3 2.061 1_455 S
O16 C10 1.247 . S
O17 Mg6 2.106 . S
O17 Mg9 2.237 1_544 S
O17 C10 1.289 . S
C18 O19 1.245 . S
C18 O20 1.274 . S
O19 Mg6 2.079 1_665 S
O19 C18 1.245 . S
O20 Mg5 2.043 1_565 S
O20 C18 1.274 . S
O21 Mg9 2.043 . S
O21 C24 1.241 . S
O22 Mg8 1.984 . S
O22 C24 1.280 . S
O23 Mg9 2.040 1_554 S
O23 C27 1.277 . S
C24 O21 1.241 . S
C24 O22 1.280 . S
O25 Mg8 1.988 1_554 S
O25 C27 1.245 . S
O26 C2 1.247 . S
O26 Mg8 2.061 1_655 S
C27 O23 1.277 . S
C27 O25 1.245 . S
O28 C2 1.289 . S
O28 Mg5 2.234 1_566 S
O28 Mg6 2.106 1_666 S
O29 Mg6 2.079 1_556 S
O29 C11 1.245 . S
O30 Mg9 2.040 1_545 S
O30 C11 1.274 . S
Fe31 O32 1.886 . S
Fe31 O35 1.715 . S
Fe31 O40 2.077 . S
Fe31 O45 1.935 . S
Fe31 O51 2.077 . S
Fe31 O60 1.935 . S
O32 Fe31 1.886 . S
O32 Fe34 1.715 . S
Fe33 O35 1.886 . S
Fe33 O36 1.715 . S
Fe33 O43 1.935 . S
Fe33 O44 2.077 . S
Fe33 O50 1.935 . S
Fe33 O59 2.077 . S
Fe34 O32 1.715 . S
Fe34 O37 1.886 . S
Fe34 O41 1.935 . S
Fe34 O46 2.077 . S
Fe34 O52 1.935 . S
Fe34 O56 2.077 . S
O35 Fe31 1.715 . S
O35 Fe33 1.886 . S
O36 Fe33 1.715 . S
O36 Fe38 1.886 . S
O37 Fe34 1.886 . S
O37 Fe38 1.715 . S
Fe38 O36 1.886 . S
Fe38 O37 1.715 . S
Fe38 O42 2.077 . S
Fe38 O47 1.935 . S
Fe38 O49 2.077 . S
Fe38 O57 1.935 . S
C39 O51 1.381 . S
C39 O52 1.421 . S
O40 Fe31 2.077 . S
O40 C53 1.381 . S
O41 Fe34 1.935 . S
O41 C53 1.421 . S
O42 Fe38 2.077 . S
O42 C58 1.381 . S
O43 Fe33 1.935 . S
O43 C58 1.421 . S
O44 Fe33 2.077 . S
O44 C48 1.381 . S
O45 Fe31 1.935 . S
O45 C48 1.421 . S
O46 Fe34 2.077 . S
O46 C54 1.381 . S
O47 Fe38 1.935 . S
O47 C54 1.421 . S
C48 O44 1.381 . S
C48 O45 1.421 . S
O49 Fe38 2.077 . S
O49 C61 1.381 . S
O50 Fe33 1.935 . S
O50 C61 1.421 . S
O51 Fe31 2.077 . S
O51 C39 1.381 . S
O52 Fe34 1.935 . S
O52 C39 1.421 . S
C53 O40 1.381 . S
C53 O41 1.421 . S
C54 O46 1.381 . S
C54 O47 1.421 . S
C55 O56 1.381 . S
C55 O57 1.421 . S
O56 Fe34 2.077 . S
O56 C55 1.381 . S
O57 Fe38 1.935 . S
O57 C55 1.421 . S
C58 O42 1.381 . S
C58 O43 1.421 . S
O59 Fe33 2.077 . S
O59 C62 1.381 . S
O60 Fe31 1.935 . S
O60 C62 1.421 . S
C61 O49 1.381 . S
C61 O50 1.421 . S
C62 O59 1.381 . S
C62 O60 1.421 . S
H63 C71 0.929 . S
H64 C73 0.930 . S
H65 C75 0.930 . S
H66 C78 0.929 . S
H67 C81 0.930 . S
H68 C83 0.960 . S
H69 C83 0.960 . S
H70 C83 0.960 . S
C71 H63 0.929 . S
C71 C72 1.377 . S
C71 C73 1.384 . S
C72 C71 1.377 . S
C72 C78 1.390 . S
C73 H64 0.930 . S
C73 C71 1.384 . S
C73 C74 1.372 . S
C74 C73 1.372 . S
C74 C75 1.400 . S
C74 C79 1.490 . S
C75 H65 0.930 . S
C75 C74 1.400 . S
C75 C78 1.386 . S
H76 C92 0.930 . S
H77 C93 0.931 . S
C78 H66 0.929 . S
C78 C72 1.390 . S
C78 C75 1.386 . S
C79 C74 1.490 . S
C79 C81 1.395 . S
C79 C82 1.403 . S
H80 C86 0.930 . S
C81 H67 0.930 . S
C81 C79 1.395 . S
C81 C84 1.403 . S
C82 C79 1.403 . S
C82 C83 1.524 . S
C82 C86 1.400 . S
C83 H68 0.960 . S
C83 H69 0.960 . S
C83 H70 0.960 . S
C83 C82 1.524 . S
C84 C81 1.403 . S
C84 C85 1.392 . S
C84 C88 1.495 . S
C85 C84 1.392 . S
C85 C86 1.385 . S
C85 C87 1.478 . S
C86 H80 0.930 . S
C86 C82 1.400 . S
C86 C85 1.385 . S
C87 C85 1.478 . S
C87 C89 1.381 . S
C87 C93 1.383 . S
C88 C84 1.495 . S
C88 H94 0.959 . S
C88 H95 0.961 . S
C88 H96 0.960 . S
C89 C87 1.381 . S
C89 C90 1.394 . S
C89 H97 0.930 . S
C90 C89 1.394 . S
C90 C91 1.383 . S
C90 H98 0.929 . S
C91 C90 1.383 . S
C91 C92 1.377 . S
C92 H76 0.930 . S
C92 C91 1.377 . S
C92 C93 1.379 . S
C93 H77 0.931 . S
C93 C87 1.383 . S
C93 C92 1.379 . S
H94 C88 0.959 . S
H95 C88 0.961 . S
H96 C88 0.960 . S
H97 C89 0.930 . S
H98 C90 0.929 . S
H99 C107 0.929 . S
H100 C109 0.930 . S
H101 C111 0.930 . S
H102 C114 0.929 . S
H103 C117 0.930 . S
H104 C119 0.960 . S
H105 C119 0.960 . S
H106 C119 0.960 . S
C107 H99 0.929 . S
C107 C108 1.377 . S
C107 C109 1.384 . S
C108 C107 1.377 . S
C108 C114 1.390 . S
C109 H100 0.930 . S
C109 C107 1.384 . S
C109 C110 1.372 . S
C110 C109 1.372 . S
C110 C111 1.400 . S
C110 C115 1.490 . S
C111 H101 0.930 . S
C111 C110 1.400 . S
C111 C114 1.386 . S
H112 C128 0.930 . S
H113 C129 0.931 . S
C114 H102 0.929 . S
C114 C108 1.390 . S
C114 C111 1.386 . S
C115 C110 1.490 . S
C115 C117 1.395 . S
C115 C118 1.403 . S
H116 C122 0.930 . S
C117 H103 0.930 . S
C117 C115 1.395 . S
C117 C120 1.403 . S
C118 C115 1.403 . S
C118 C119 1.524 . S
C118 C122 1.400 . S
C119 H104 0.960 . S
C119 H105 0.960 . S
C119 H106 0.960 . S
C119 C118 1.524 . S
C120 C117 1.403 . S
C120 C121 1.392 . S
C120 C124 1.495 . S
C121 C120 1.392 . S
C121 C122 1.385 . S
C121 C123 1.478 . S
C122 H116 0.930 . S
C122 C118 1.400 . S
C122 C121 1.385 . S
C123 C121 1.478 . S
C123 C125 1.381 . S
C123 C129 1.383 . S
C124 C120 1.495 . S
C124 H130 0.959 . S
C124 H131 0.961 . S
C124 H132 0.960 . S
C125 C123 1.381 . S
C125 C126 1.394 . S
C125 H133 0.930 . S
C126 C125 1.394 . S
C126 C127 1.383 . S
C126 H134 0.929 . S
C127 C126 1.383 . S
C127 C128 1.377 . S
C128 H112 0.930 . S
C128 C127 1.377 . S
C128 C129 1.379 . S
C129 H113 0.931 . S
C129 C123 1.383 . S
C129 C128 1.379 . S
H130 C124 0.959 . S
H131 C124 0.961 . S
H132 C124 0.960 . S
H133 C125 0.930 . S
H134 C126 0.929 . S
H135 C143 0.929 . S
H136 C145 0.930 . S
H137 C147 0.930 . S
H138 C150 0.929 . S
H139 C153 0.930 . S
H140 C155 0.960 . S
H141 C155 0.960 . S
H142 C155 0.960 . S
C143 H135 0.929 . S
C143 C144 1.377 . S
C143 C145 1.384 . S
C144 C143 1.377 . S
C144 C150 1.390 . S
C145 H136 0.930 . S
C145 C143 1.384 . S
C145 C146 1.372 . S
C146 C145 1.372 . S
C146 C147 1.400 . S
C146 C151 1.490 . S
C147 H137 0.930 . S
C147 C146 1.400 . S
C147 C150 1.386 . S
H148 C164 0.930 . S
H149 C165 0.931 . S
C150 H138 0.929 . S
C150 C144 1.390 . S
C150 C147 1.386 . S
C151 C146 1.490 . S
C151 C153 1.395 . S
C151 C154 1.403 . S
H152 C158 0.930 . S
C153 H139 0.930 . S
C153 C151 1.395 . S
C153 C156 1.403 . S
C154 C151 1.403 . S
C154 C155 1.524 . S
C154 C158 1.400 . S
C155 H140 0.960 . S
C155 H141 0.960 . S
C155 H142 0.960 . S
C155 C154 1.524 . S
C156 C153 1.403 . S
C156 C157 1.392 . S
C156 C160 1.495 . S
C157 C156 1.392 . S
C157 C158 1.385 . S
C157 C159 1.478 . S
C158 H152 0.930 . S
C158 C154 1.400 . S
C158 C157 1.385 . S
C159 C157 1.478 . S
C159 C161 1.381 . S
C159 C165 1.383 . S
C160 C156 1.495 . S
C160 H166 0.959 . S
C160 H167 0.961 . S
C160 H168 0.960 . S
C161 C159 1.381 . S
C161 C162 1.394 . S
C161 H169 0.930 . S
C162 C161 1.394 . S
C162 C163 1.383 . S
C162 H170 0.929 . S
C163 C162 1.383 . S
C163 C164 1.377 . S
C164 H148 0.930 . S
C164 C163 1.377 . S
C164 C165 1.379 . S
C165 H149 0.931 . S
C165 C159 1.383 . S
C165 C164 1.379 . S
H166 C160 0.959 . S
H167 C160 0.961 . S
H168 C160 0.960 . S
H169 C161 0.930 . S
H170 C162 0.929 . S
H171 C179 0.929 . S
H172 C181 0.930 . S
H173 C183 0.930 . S
H174 C186 0.929 . S
H175 C189 0.930 . S
H176 C191 0.960 . S
H177 C191 0.960 . S
H178 C191 0.960 . S
C179 H171 0.929 . S
C179 C180 1.377 . S
C179 C181 1.384 . S
C180 C179 1.377 . S
C180 C186 1.390 . S
C181 H172 0.930 . S
C181 C179 1.384 . S
C181 C182 1.372 . S
C182 C181 1.372 . S
C182 C183 1.400 . S
C182 C187 1.490 . S
C183 H173 0.930 . S
C183 C182 1.400 . S
C183 C186 1.386 . S
H184 C200 0.930 . S
H185 C201 0.931 . S
C186 H174 0.929 . S
C186 C180 1.390 . S
C186 C183 1.386 . S
C187 C182 1.490 . S
C187 C189 1.395 . S
C187 C190 1.403 . S
H188 C194 0.930 . S
C189 H175 0.930 . S
C189 C187 1.395 . S
C189 C192 1.403 . S
C190 C187 1.403 . S
C190 C191 1.524 . S
C190 C194 1.400 . S
C191 H176 0.960 . S
C191 H177 0.960 . S
C191 H178 0.960 . S
C191 C190 1.524 . S
C192 C189 1.403 . S
C192 C193 1.392 . S
C192 C196 1.495 . S
C193 C192 1.392 . S
C193 C194 1.385 . S
C193 C195 1.478 . S
C194 H188 0.930 . S
C194 C190 1.400 . S
C194 C193 1.385 . S
C195 C193 1.478 . S
C195 C197 1.381 . S
C195 C201 1.383 . S
C196 C192 1.495 . S
C196 H202 0.959 . S
C196 H203 0.961 . S
C196 H204 0.960 . S
C197 C195 1.381 . S
C197 C198 1.394 . S
C197 H205 0.930 . S
C198 C197 1.394 . S
C198 C199 1.383 . S
C198 H206 0.929 . S
C199 C198 1.383 . S
C199 C200 1.377 . S
C200 H184 0.930 . S
C200 C199 1.377 . S
C200 C201 1.379 . S
C201 H185 0.931 . S
C201 C195 1.383 . S
C201 C200 1.379 . S
H202 C196 0.959 . S
H203 C196 0.961 . S
H204 C196 0.960 . S
H205 C197 0.930 . S
H206 C198 0.929 . S
H207 C215 0.929 . S
H208 C217 0.930 . S
H209 C219 0.930 . S
H210 C222 0.929 . S
H211 C225 0.930 . S
H212 C227 0.960 . S
H213 C227 0.960 . S
H214 C227 0.960 . S
C215 H207 0.929 . S
C215 C216 1.377 . S
C215 C217 1.384 . S
C216 C215 1.377 . S
C216 C222 1.390 . S
C217 H208 0.930 . S
C217 C215 1.384 . S
C217 C218 1.372 . S
C218 C217 1.372 . S
C218 C219 1.400 . S
C218 C223 1.490 . S
C219 H209 0.930 . S
C219 C218 1.400 . S
C219 C222 1.386 . S
H220 C236 0.930 . S
H221 C237 0.931 . S
C222 H210 0.929 . S
C222 C216 1.390 . S
C222 C219 1.386 . S
C223 C218 1.490 . S
C223 C225 1.395 . S
C223 C226 1.403 . S
H224 C230 0.930 . S
C225 H211 0.930 . S
C225 C223 1.395 . S
C225 C228 1.403 . S
C226 C223 1.403 . S
C226 C227 1.524 . S
C226 C230 1.400 . S
C227 H212 0.960 . S
C227 H213 0.960 . S
C227 H214 0.960 . S
C227 C226 1.524 . S
C228 C225 1.403 . S
C228 C229 1.392 . S
C228 C232 1.495 . S
C229 C228 1.392 . S
C229 C230 1.385 . S
C229 C231 1.478 . S
C230 H224 0.930 . S
C230 C226 1.400 . S
C230 C229 1.385 . S
C231 C229 1.478 . S
C231 C233 1.381 . S
C231 C237 1.383 . S
C232 C228 1.495 . S
C232 H238 0.959 . S
C232 H239 0.961 . S
C232 H240 0.960 . S
C233 C231 1.381 . S
C233 C234 1.394 . S
C233 H241 0.930 . S
C234 C233 1.394 . S
C234 C235 1.383 . S
C234 H242 0.929 . S
C235 C234 1.383 . S
C235 C236 1.377 . S
C236 H220 0.930 . S
C236 C235 1.377 . S
C236 C237 1.379 . S
C237 H221 0.931 . S
C237 C231 1.383 . S
C237 C236 1.379 . S
H238 C232 0.959 . S
H239 C232 0.961 . S
H240 C232 0.960 . S
H241 C233 0.930 . S
H242 C234 0.929 . S
H243 C251 0.929 . S
H244 C253 0.930 . S
H245 C255 0.930 . S
H246 C258 0.929 . S
H247 C261 0.930 . S
H248 C263 0.960 . S
H249 C263 0.960 . S
H250 C263 0.960 . S
C251 H243 0.929 . S
C251 C252 1.377 . S
C251 C253 1.384 . S
C252 C251 1.377 . S
C252 C258 1.390 . S
C253 H244 0.930 . S
C253 C251 1.384 . S
C253 C254 1.372 . S
C254 C253 1.372 . S
C254 C255 1.400 . S
C254 C259 1.490 . S
C255 H245 0.930 . S
C255 C254 1.400 . S
C255 C258 1.386 . S
H256 C272 0.930 . S
H257 C273 0.931 . S
C258 H246 0.929 . S
C258 C252 1.390 . S
C258 C255 1.386 . S
C259 C254 1.490 . S
C259 C261 1.395 . S
C259 C262 1.403 . S
H260 C266 0.930 . S
C261 H247 0.930 . S
C261 C259 1.395 . S
C261 C264 1.403 . S
C262 C259 1.403 . S
C262 C263 1.524 . S
C262 C266 1.400 . S
C263 H248 0.960 . S
C263 H249 0.960 . S
C263 H250 0.960 . S
C263 C262 1.524 . S
C264 C261 1.403 . S
C264 C265 1.392 . S
C264 C268 1.495 . S
C265 C264 1.392 . S
C265 C266 1.385 . S
C265 C267 1.478 . S
C266 H260 0.930 . S
C266 C262 1.400 . S
C266 C265 1.385 . S
C267 C265 1.478 . S
C267 C269 1.381 . S
C267 C273 1.383 . S
C268 C264 1.495 . S
C268 H274 0.959 . S
C268 H275 0.961 . S
C268 H276 0.960 . S
C269 C267 1.381 . S
C269 C270 1.394 . S
C269 H277 0.930 . S
C270 C269 1.394 . S
C270 C271 1.383 . S
C270 H278 0.929 . S
C271 C270 1.383 . S
C271 C272 1.377 . S
C272 H256 0.930 . S
C272 C271 1.377 . S
C272 C273 1.379 . S
C273 H257 0.931 . S
C273 C267 1.383 . S
C273 C272 1.379 . S
H274 C268 0.959 . S
H275 C268 0.961 . S
H276 C268 0.960 . S
H277 C269 0.930 . S
H278 C270 0.929 . S
H279 C287 0.929 . S
H280 C289 0.930 . S
H281 C291 0.930 . S
H282 C294 0.929 . S
H283 C297 0.930 . S
H284 C299 0.960 . S
H285 C299 0.960 . S
H286 C299 0.960 . S
C287 H279 0.929 . S
C287 C288 1.377 . S
C287 C289 1.384 . S
C288 C287 1.377 . S
C288 C294 1.390 . S
C289 H280 0.930 . S
C289 C287 1.384 . S
C289 C290 1.372 . S
C290 C289 1.372 . S
C290 C291 1.400 . S
C290 C295 1.490 . S
C291 H281 0.930 . S
C291 C290 1.400 . S
C291 C294 1.386 . S
H292 C308 0.930 . S
H293 C309 0.931 . S
C294 H282 0.929 . S
C294 C288 1.390 . S
C294 C291 1.386 . S
C295 C290 1.490 . S
C295 C297 1.395 . S
C295 C298 1.403 . S
H296 C302 0.930 . S
C297 H283 0.930 . S
C297 C295 1.395 . S
C297 C300 1.403 . S
C298 C295 1.403 . S
C298 C299 1.524 . S
C298 C302 1.400 . S
C299 H284 0.960 . S
C299 H285 0.960 . S
C299 H286 0.960 . S
C299 C298 1.524 . S
C300 C297 1.403 . S
C300 C301 1.392 . S
C300 C304 1.495 . S
C301 C300 1.392 . S
C301 C302 1.385 . S
C301 C303 1.478 . S
C302 H296 0.930 . S
C302 C298 1.400 . S
C302 C301 1.385 . S
C303 C301 1.478 . S
C303 C305 1.381 . S
C303 C309 1.383 . S
C304 C300 1.495 . S
C304 H310 0.959 . S
C304 H311 0.961 . S
C304 H312 0.960 . S
C305 C303 1.381 . S
C305 C306 1.394 . S
C305 H313 0.930 . S
C306 C305 1.394 . S
C306 C307 1.383 . S
C306 H314 0.929 . S
C307 C306 1.383 . S
C307 C308 1.377 . S
C308 H292 0.930 . S
C308 C307 1.377 . S
C308 C309 1.379 . S
C309 H293 0.931 . S
C309 C303 1.383 . S
C309 C308 1.379 . S
H310 C304 0.959 . S
H311 C304 0.961 . S
H312 C304 0.960 . S
H313 C305 0.930 . S
H314 C306 0.929 . S
H315 C323 0.929 . S
H316 C325 0.930 . S
H317 C327 0.930 . S
H318 C330 0.929 . S
H319 C333 0.930 . S
H320 C335 0.960 . S
H321 C335 0.960 . S
H322 C335 0.960 . S
C323 H315 0.929 . S
C323 C324 1.377 . S
C323 C325 1.384 . S
C324 C323 1.377 . S
C324 C330 1.390 . S
C325 H316 0.930 . S
C325 C323 1.384 . S
C325 C326 1.372 . S
C326 C325 1.372 . S
C326 C327 1.400 . S
C326 C331 1.490 . S
C327 H317 0.930 . S
C327 C326 1.400 . S
C327 C330 1.386 . S
H328 C344 0.930 . S
H329 C345 0.931 . S
C330 H318 0.929 . S
C330 C324 1.390 . S
C330 C327 1.386 . S
C331 C326 1.490 . S
C331 C333 1.395 . S
C331 C334 1.403 . S
H332 C338 0.930 . S
C333 H319 0.930 . S
C333 C331 1.395 . S
C333 C336 1.403 . S
C334 C331 1.403 . S
C334 C335 1.524 . S
C334 C338 1.400 . S
C335 H320 0.960 . S
C335 H321 0.960 . S
C335 H322 0.960 . S
C335 C334 1.524 . S
C336 C333 1.403 . S
C336 C337 1.392 . S
C336 C340 1.495 . S
C337 C336 1.392 . S
C337 C338 1.385 . S
C337 C339 1.478 . S
C338 H332 0.930 . S
C338 C334 1.400 . S
C338 C337 1.385 . S
C339 C337 1.478 . S
C339 C341 1.381 . S
C339 C345 1.383 . S
C340 C336 1.495 . S
C340 H346 0.959 . S
C340 H347 0.961 . S
C340 H348 0.960 . S
C341 C339 1.381 . S
C341 C342 1.394 . S
C341 H349 0.930 . S
C342 C341 1.394 . S
C342 C343 1.383 . S
C342 H350 0.929 . S
C343 C342 1.383 . S
C343 C344 1.377 . S
C344 H328 0.930 . S
C344 C343 1.377 . S
C344 C345 1.379 . S
C345 H329 0.931 . S
C345 C339 1.383 . S
C345 C344 1.379 . S
H346 C340 0.959 . S
H347 C340 0.961 . S
H348 C340 0.960 . S
H349 C341 0.930 . S
H350 C342 0.929 . S
C72 C10 1.077 . S
C91 C54 1.094 . S
C108 C0 1.561 . S
C127 C58 1.581 . S
C144 C18 1.463 . S
C163 C48 1.490 . S
C180 C27 1.649 . S
C199 C53 1.626 . S
C216 C24 1.564 . S
C235 C39 1.571 . S
C271 C55 1.503 . S
C252 C11 1.470 . S
C288 C1 1.645 . S
C307 C61 1.611 . S
C343 C62 1.098 . S
C324 C2 1.075 . S
