# Generated by pormake.
# Topology pto, (3,4)-cn, num edge types: 1
# Building blocks:
#     Node 0, Type 0, BuildingBlock: OLANEW_clean_sbu_2, # of connection points: 3
#     Node 1, Type 0, BuildingBlock: OLANEW_clean_sbu_2, # of connection points: 3
#     Node 2, Type 0, BuildingBlock: OLANEW_clean_sbu_2, # of connection points: 3
#     Node 3, Type 0, BuildingBlock: OLANEW_clean_sbu_2, # of connection points: 3
#     Node 4, Type 0, BuildingBlock: OLANEW_clean_sbu_2, # of connection points: 3
#     Node 5, Type 0, BuildingBlock: OLANEW_clean_sbu_2, # of connection points: 3
#     Node 6, Type 0, BuildingBlock: OLANEW_clean_sbu_2, # of connection points: 3
#     Node 7, Type 0, BuildingBlock: OLANEW_clean_sbu_2, # of connection points: 3
#     Node 8, Type 1, BuildingBlock: KOZSID_clean_sbu_0, # of connection points: 4
#     Node 9, Type 1, BuildingBlock: KOZSID_clean_sbu_0, # of connection points: 4
#     Node 10, Type 1, BuildingBlock: KOZSID_clean_sbu_0, # of connection points: 4
#     Node 11, Type 1, BuildingBlock: KOZSID_clean_sbu_0, # of connection points: 4
#     Node 12, Type 1, BuildingBlock: KOZSID_clean_sbu_0, # of connection points: 4
#     Node 13, Type 1, BuildingBlock: KOZSID_clean_sbu_0, # of connection points: 4
#     Edge 14, Type (0, 1), BuildingBlock: MIFKUJ_clean_linker_0, # of connection points: 2
#     Edge 15, Type (0, 1), BuildingBlock: MIFKUJ_clean_linker_0, # of connection points: 2
#     Edge 16, Type (0, 1), BuildingBlock: MIFKUJ_clean_linker_0, # of connection points: 2
#     Edge 17, Type (0, 1), BuildingBlock: MIFKUJ_clean_linker_0, # of connection points: 2
#     Edge 18, Type (0, 1), BuildingBlock: MIFKUJ_clean_linker_0, # of connection points: 2
#     Edge 19, Type (0, 1), BuildingBlock: MIFKUJ_clean_linker_0, # of connection points: 2
#     Edge 20, Type (0, 1), BuildingBlock: MIFKUJ_clean_linker_0, # of connection points: 2
#     Edge 21, Type (0, 1), BuildingBlock: MIFKUJ_clean_linker_0, # of connection points: 2
#     Edge 22, Type (0, 1), BuildingBlock: MIFKUJ_clean_linker_0, # of connection points: 2
#     Edge 23, Type (0, 1), BuildingBlock: MIFKUJ_clean_linker_0, # of connection points: 2
#     Edge 24, Type (0, 1), BuildingBlock: MIFKUJ_clean_linker_0, # of connection points: 2
#     Edge 25, Type (0, 1), BuildingBlock: MIFKUJ_clean_linker_0, # of connection points: 2
#     Edge 26, Type (0, 1), BuildingBlock: MIFKUJ_clean_linker_0, # of connection points: 2
#     Edge 27, Type (0, 1), BuildingBlock: MIFKUJ_clean_linker_0, # of connection points: 2
#     Edge 28, Type (0, 1), BuildingBlock: MIFKUJ_clean_linker_0, # of connection points: 2
#     Edge 29, Type (0, 1), BuildingBlock: MIFKUJ_clean_linker_0, # of connection points: 2
#     Edge 30, Type (0, 1), BuildingBlock: MIFKUJ_clean_linker_0, # of connection points: 2
#     Edge 31, Type (0, 1), BuildingBlock: MIFKUJ_clean_linker_0, # of connection points: 2
#     Edge 32, Type (0, 1), BuildingBlock: MIFKUJ_clean_linker_0, # of connection points: 2
#     Edge 33, Type (0, 1), BuildingBlock: MIFKUJ_clean_linker_0, # of connection points: 2
#     Edge 34, Type (0, 1), BuildingBlock: MIFKUJ_clean_linker_0, # of connection points: 2
#     Edge 35, Type (0, 1), BuildingBlock: MIFKUJ_clean_linker_0, # of connection points: 2
#     Edge 36, Type (0, 1), BuildingBlock: MIFKUJ_clean_linker_0, # of connection points: 2
#     Edge 37, Type (0, 1), BuildingBlock: MIFKUJ_clean_linker_0, # of connection points: 2
# Relax obj value: 0.008
# Max RMSD: 0.121
# Mean RMSD: 0.053
data_MOF--net-pto--node1-OLANEW_clean_sbu_2--node2-KOZSID_clean_sbu_0--edge1-MIFKUJ_clean_linker_0
_symmetry_space_group_name_H-M    P1
_symmetry_Int_Tables_number       1
_symmetry_cell_setting            triclinic
loop_
_symmetry_equiv_pos_as_xyz
'x, y, z'
_cell_length_a     49.906255
_cell_length_b     70.064184
_cell_length_c     59.729433
_cell_angle_alpha  91.366392
_cell_angle_beta   87.740995
_cell_angle_gamma 106.8955
loop_
_atom_site_label
_atom_site_type_symbol
_atom_site_fract_x
_atom_site_fract_y
_atom_site_fract_z
_atom_type_partial_charge
O0 O 0.38177 0.35291 0.30655 0.0
Cd1 Cd 0.36179 0.35462 0.34429 0.0
O2 O 0.35732 0.37054 0.29143 0.0
Cd3 Cd 0.3329 0.37505 0.32116 0.0
O4 O 0.29817 0.38621 0.33296 0.0
C5 C 0.27609 0.3804 0.32171 0.0
O6 O 0.27523 0.36742 0.3053 0.0
C7 C 0.37545 0.36102 0.28951 0.0
C8 C 0.3628 0.3214 0.36873 0.0
O9 O 0.34112 0.32152 0.35798 0.0
O10 O 0.38389 0.33707 0.36811 0.0
O11 O 0.27594 0.89423 0.79497 0.0
Cd12 Cd 0.2404 0.90051 0.7716 0.0
O13 O 0.26644 0.86496 0.77868 0.0
Cd14 Cd 0.26582 0.83448 0.76896 0.0
O15 O 0.25052 0.80291 0.75971 0.0
C16 C 0.22958 0.79239 0.77105 0.0
O17 O 0.21924 0.80084 0.78781 0.0
C18 C 0.2802 0.87724 0.79312 0.0
C19 C 0.26197 0.92987 0.73967 0.0
O20 O 0.25349 0.93429 0.7591 0.0
O21 O 0.26057 0.91159 0.73545 0.0
O22 O 0.80998 0.78682 0.30461 0.0
Cd23 Cd 0.80785 0.76722 0.26996 0.0
O24 O 0.76747 0.77095 0.31706 0.0
Cd25 Cd 0.75636 0.75574 0.28497 0.0
O26 O 0.73577 0.75366 0.25304 0.0
C27 C 0.74638 0.76694 0.2385 0.0
O28 O 0.77014 0.78048 0.24267 0.0
C29 C 0.79086 0.784 0.31993 0.0
C30 C 0.83201 0.73638 0.27475 0.0
O31 O 0.84708 0.75414 0.2703 0.0
O32 O 0.8054 0.73311 0.27684 0.0
O33 O 0.76641 0.3076 0.65159 0.0
Cd34 Cd 0.73186 0.27887 0.63557 0.0
O35 O 0.74055 0.30428 0.68256 0.0
Cd36 Cd 0.73079 0.31183 0.71708 0.0
O37 O 0.71685 0.31625 0.75141 0.0
C38 C 0.697 0.32406 0.75474 0.0
O39 O 0.68581 0.32959 0.7374 0.0
C40 C 0.76217 0.31382 0.67118 0.0
C41 C 0.75192 0.24623 0.62644 0.0
O42 O 0.75575 0.26034 0.61232 0.0
O43 O 0.73892 0.24769 0.64506 0.0
O44 O 0.75191 0.77802 0.68317 0.0
Cd45 Cd 0.73564 0.74913 0.7077 0.0
O46 O 0.70889 0.77973 0.68008 0.0
Cd47 Cd 0.69187 0.76004 0.70817 0.0
O48 O 0.67646 0.75769 0.74301 0.0
C49 C 0.68177 0.77428 0.75356 0.0
O50 O 0.69603 0.79054 0.74303 0.0
C51 C 0.73476 0.78573 0.67434 0.0
C52 C 0.77222 0.72566 0.70791 0.0
O53 O 0.75505 0.72404 0.69209 0.0
O54 O 0.7723 0.7385 0.72358 0.0
O55 O 0.84609 0.27061 0.31706 0.0
Cd56 Cd 0.81743 0.23616 0.31109 0.0
O57 O 0.80963 0.27659 0.3031 0.0
Cd58 Cd 0.78531 0.294 0.28803 0.0
O59 O 0.75729 0.30359 0.26673 0.0
C60 C 0.76622 0.31018 0.24738 0.0
O61 O 0.79227 0.3116 0.24117 0.0
C62 C 0.83404 0.28317 0.31084 0.0
C63 C 0.82447 0.2077 0.34028 0.0
O64 O 0.83861 0.21129 0.32167 0.0
O65 O 0.80762 0.218 0.34536 0.0
O66 O 0.2766 0.34452 0.77157 0.0
Cd67 Cd 0.25018 0.33711 0.7372 0.0
O68 O 0.3136 0.36512 0.75511 0.0
Cd69 Cd 0.29879 0.35476 0.72186 0.0
O70 O 0.29952 0.33268 0.69561 0.0
C71 C 0.31524 0.32188 0.69967 0.0
O72 O 0.32894 0.32505 0.7184 0.0
C73 C 0.30078 0.35702 0.77284 0.0
C74 C 0.21975 0.36427 0.73149 0.0
O75 O 0.20925 0.34821 0.74256 0.0
O76 O 0.24462 0.36744 0.72299 0.0
O77 O 0.36724 0.83618 0.28861 0.0
Cd78 Cd 0.34843 0.82835 0.32678 0.0
O79 O 0.32699 0.83601 0.27475 0.0
Cd80 Cd 0.30269 0.82202 0.30425 0.0
O81 O 0.27379 0.79427 0.31669 0.0
C82 C 0.28156 0.77866 0.3134 0.0
O83 O 0.30665 0.7805 0.30445 0.0
C84 C 0.3533 0.83897 0.27227 0.0
C85 C 0.351 0.86332 0.35105 0.0
O86 O 0.3722 0.8565 0.34929 0.0
O87 O 0.32848 0.85351 0.34151 0.0
C88 C 0.06812 0.57554 0.33502 0.0
C89 C 0.07679 0.5838 0.35584 0.0
C90 C 0.05912 0.57224 0.37146 0.0
C91 C 0.0409 0.55757 0.35938 0.0
N92 N 0.04592 0.55898 0.33696 0.0
Co93 Co 0.02495 0.54039 0.31328 0.0
N94 N 0.99844 0.52382 0.33626 0.0
C95 C 0.9971 0.52771 0.35849 0.0
C96 C 0.97735 0.51323 0.37008 0.0
C97 C 0.96566 0.49911 0.35439 0.0
C98 C 0.97898 0.50585 0.33401 0.0
N99 N 0.00476 0.52126 0.28972 0.0
C100 C 0.98529 0.5033 0.29203 0.0
C101 C 0.97784 0.49406 0.27146 0.0
C102 C 0.99375 0.5064 0.25555 0.0
C103 C 0.00988 0.52239 0.26731 0.0
N104 N 0.05088 0.5573 0.2902 0.0
C105 C 0.04981 0.55478 0.26768 0.0
C106 C 0.06935 0.56934 0.25605 0.0
C107 C 0.0836 0.58207 0.27205 0.0
C108 C 0.07197 0.57444 0.29263 0.0
N109 N 0.0506 0.52373 0.31608 0.0
C110 C 0.08486 0.49841 0.31972 0.0
C111 C 0.08051 0.50549 0.2989 0.0
C112 C 0.06352 0.51809 0.29748 0.0
C113 C 0.07211 0.50448 0.33872 0.0
C114 C 0.05517 0.51702 0.33654 0.0
N115 N 0.99918 0.55719 0.31045 0.0
C116 C 0.97261 0.57267 0.28748 0.0
C117 C 0.96678 0.58371 0.30578 0.0
C118 C 0.97651 0.58077 0.3266 0.0
C119 C 0.9922 0.56736 0.32861 0.0
C120 C 0.98882 0.5597 0.29013 0.0
H121 H 0.9987 0.56573 0.34501 0.0
H122 H 0.99302 0.55219 0.27535 0.0
H123 H 0.06097 0.52298 0.28115 0.0
H124 H 0.04572 0.52092 0.3516 0.0
C125 C 0.01761 0.54321 0.36841 0.0
C126 C 0.081 0.58439 0.31394 0.0
C127 C 0.97419 0.49405 0.31333 0.0
C128 C 0.03068 0.53834 0.25795 0.0
H129 H 0.09383 0.59702 0.35934 0.0
H130 H 0.05915 0.57454 0.38945 0.0
H131 H 0.97315 0.51244 0.38801 0.0
H132 H 0.94999 0.48507 0.35777 0.0
H133 H 0.96291 0.47966 0.26835 0.0
H134 H 0.99407 0.50379 0.23762 0.0
H135 H 0.07274 0.5706 0.23806 0.0
H136 H 0.10043 0.59557 0.26888 0.0
H137 H 0.09033 0.50147 0.28374 0.0
H138 H 0.07469 0.49926 0.35519 0.0
H139 H 0.96547 0.57452 0.27099 0.0
H140 H 0.97204 0.58881 0.34133 0.0
C141 C 0.05164 0.58452 0.73817 0.0
C142 C 0.06101 0.59179 0.75918 0.0
C143 C 0.04348 0.57981 0.77454 0.0
C144 C 0.02452 0.56595 0.76211 0.0
N145 N 0.02888 0.56831 0.73971 0.0
Co146 Co 0.00646 0.55123 0.71557 0.0
N147 N 0.97991 0.5342 0.73822 0.0
C148 C 0.97952 0.53715 0.76068 0.0
C149 C 0.95915 0.52286 0.77194 0.0
C150 C 0.94581 0.50991 0.75575 0.0
C151 C 0.95882 0.51713 0.73542 0.0
N152 N 0.98495 0.53349 0.69148 0.0
C153 C 0.96388 0.51623 0.69313 0.0
C154 C 0.95544 0.5082 0.67218 0.0
C155 C 0.97227 0.52055 0.65674 0.0
C156 C 0.98987 0.53537 0.66908 0.0
N157 N 0.03226 0.56877 0.69289 0.0
C158 C 0.03065 0.56723 0.67034 0.0
C159 C 0.05046 0.58195 0.65912 0.0
C160 C 0.06545 0.59378 0.67548 0.0
C161 C 0.05383 0.58554 0.6958 0.0
N162 N 0.03116 0.53364 0.71636 0.0
C163 C 0.06382 0.50695 0.71723 0.0
C164 C 0.06022 0.51571 0.69722 0.0
C165 C 0.04394 0.52891 0.69716 0.0
C166 C 0.05125 0.51212 0.73685 0.0
C167 C 0.03522 0.52541 0.73605 0.0
N168 N 0.98159 0.56888 0.71478 0.0
C169 C 0.95273 0.58435 0.69424 0.0
C170 C 0.94726 0.59464 0.71341 0.0
C171 C 0.95921 0.59162 0.73333 0.0
C172 C 0.97583 0.57867 0.73369 0.0
C173 C 0.96996 0.57187 0.69523 0.0
H174 H 0.98389 0.57697 0.7495 0.0
H175 H 0.97352 0.56488 0.67987 0.0
H176 H 0.04167 0.53491 0.68135 0.0
H177 H 0.02612 0.52868 0.75157 0.0
C178 C 0.00093 0.55174 0.77089 0.0
C179 C 0.06391 0.5943 0.71736 0.0
C180 C 0.95159 0.5067 0.71407 0.0
C181 C 0.01091 0.55142 0.66018 0.0
H182 H 0.07828 0.60472 0.76305 0.0
H183 H 0.04398 0.58139 0.7926 0.0
H184 H 0.95534 0.52147 0.78988 0.0
H185 H 0.92903 0.49635 0.75874 0.0
H186 H 0.93897 0.49471 0.66845 0.0
H187 H 0.97186 0.51886 0.63869 0.0
H188 H 0.05365 0.58383 0.64118 0.0
H189 H 0.08291 0.60702 0.6728 0.0
H190 H 0.06938 0.51207 0.68154 0.0
H191 H 0.05384 0.506 0.75283 0.0
H192 H 0.94364 0.58571 0.67841 0.0
H193 H 0.95616 0.59939 0.74866 0.0
C194 C 0.36584 0.08284 0.55599 0.0
C195 C 0.38835 0.0819 0.56843 0.0
C196 C 0.41191 0.0937 0.55792 0.0
C197 C 0.40249 0.10123 0.53983 0.0
N198 N 0.37432 0.0949 0.53809 0.0
Co199 Co 0.35177 0.10277 0.5148 0.0
N200 N 0.38632 0.12072 0.49995 0.0
C201 C 0.41321 0.1225 0.50468 0.0
C202 C 0.4323 0.13679 0.49231 0.0
C203 C 0.41664 0.14487 0.47925 0.0
C204 C 0.3888 0.13494 0.48439 0.0
N205 N 0.32919 0.11143 0.49218 0.0
C206 C 0.33718 0.12678 0.47772 0.0
C207 C 0.31477 0.12888 0.46598 0.0
C208 C 0.29155 0.11466 0.47383 0.0
C209 C 0.30114 0.10479 0.48982 0.0
N210 N 0.31721 0.08441 0.52918 0.0
C211 C 0.29076 0.08004 0.52187 0.0
C212 C 0.27149 0.06641 0.53482 0.0
C213 C 0.28652 0.06172 0.55134 0.0
C214 C 0.31421 0.07287 0.54753 0.0
N215 N 0.3482 0.12505 0.53448 0.0
C216 C 0.34328 0.15806 0.56027 0.0
C217 C 0.31965 0.1443 0.5516 0.0
C218 C 0.32254 0.12798 0.53893 0.0
C219 C 0.36938 0.15478 0.55616 0.0
C220 C 0.37135 0.1383 0.5433 0.0
N221 N 0.3553 0.0802 0.49492 0.0
C222 C 0.33499 0.05351 0.46866 0.0
C223 C 0.35803 0.04609 0.46963 0.0
C224 C 0.38021 0.05654 0.48282 0.0
C225 C 0.37852 0.07346 0.49504 0.0
C226 C 0.33404 0.07031 0.48131 0.0
H227 H 0.39621 0.08057 0.50465 0.0
H228 H 0.31564 0.07476 0.4798 0.0
H229 H 0.30378 0.11798 0.5327 0.0
H230 H 0.39183 0.13667 0.54042 0.0
C231 C 0.41955 0.11352 0.5236 0.0
C232 C 0.3369 0.07174 0.56162 0.0
C233 C 0.36531 0.14051 0.47567 0.0
C234 C 0.28433 0.09 0.50376 0.0
H235 H 0.3878 0.07343 0.58345 0.0
H236 H 0.43337 0.09633 0.56277 0.0
H237 H 0.45483 0.14175 0.49378 0.0
H238 H 0.42481 0.15726 0.46803 0.0
H239 H 0.31512 0.13997 0.45355 0.0
H240 H 0.27012 0.11231 0.46905 0.0
H241 H 0.24911 0.06077 0.5327 0.0
H242 H 0.27805 0.05129 0.5647 0.0
H243 H 0.29894 0.14601 0.55468 0.0
H244 H 0.3883 0.16511 0.56241 0.0
H245 H 0.31756 0.04637 0.45819 0.0
H246 H 0.3986 0.05147 0.48423 0.0
C247 C 0.5028 0.84849 0.04464 0.0
C248 C 0.50969 0.86837 0.05141 0.0
C249 C 0.53187 0.87836 0.03804 0.0
C250 C 0.53713 0.8641 0.02387 0.0
N251 N 0.51954 0.84559 0.02727 0.0
Co252 Co 0.51951 0.82052 0.01028 0.0
N253 N 0.5538 0.8349 0.99207 0.0
C254 C 0.56883 0.85431 0.99406 0.0
C255 C 0.59154 0.85984 0.97947 0.0
C256 C 0.59099 0.84298 0.96736 0.0
C257 C 0.56778 0.82812 0.97526 0.0
N258 N 0.51898 0.79557 0.99282 0.0
C259 C 0.53581 0.79268 0.9755 0.0
C260 C 0.5274 0.77317 0.96743 0.0
C261 C 0.50441 0.76336 0.9801 0.0
C262 C 0.50004 0.7774 0.99503 0.0
N263 N 0.48577 0.80601 0.02902 0.0
C264 C 0.47159 0.78637 0.02781 0.0
C265 C 0.45021 0.78049 0.04355 0.0
C266 C 0.45093 0.79731 0.05576 0.0
C267 C 0.47271 0.81257 0.04661 0.0
N268 N 0.49513 0.82682 0.98777 0.0
C269 C 0.46156 0.8351 0.95451 0.0
C270 C 0.4536 0.81691 0.96567 0.0
C271 C 0.47054 0.8131 0.98203 0.0
C272 C 0.48646 0.84919 0.96055 0.0
C273 C 0.50268 0.84481 0.97712 0.0
N274 N 0.54391 0.81421 0.0327 0.0
C275 C 0.55674 0.79022 0.05525 0.0
C276 C 0.5784 0.80523 0.06471 0.0
C277 C 0.58246 0.82483 0.05783 0.0
C278 C 0.56519 0.82894 0.04192 0.0
C279 C 0.53987 0.795 0.03948 0.0
H280 H 0.5694 0.84416 0.03742 0.0
H281 H 0.52371 0.78287 0.03301 0.0
H282 H 0.46329 0.79891 0.98971 0.0
H283 H 0.52138 0.85619 0.98086 0.0
C284 C 0.55992 0.86727 0.00866 0.0
C285 C 0.48077 0.83287 0.05571 0.0
C286 C 0.55952 0.80799 0.96582 0.0
C287 C 0.47878 0.77385 0.01163 0.0
H288 H 0.5 0.87488 0.0649 0.0
H289 H 0.54331 0.89405 0.03897 0.0
H290 H 0.60638 0.87448 0.97754 0.0
H291 H 0.60575 0.84181 0.954 0.0
H292 H 0.53679 0.76671 0.95371 0.0
H293 H 0.49229 0.74786 0.97858 0.0
H294 H 0.436 0.76569 0.046 0.0
H295 H 0.43717 0.79814 0.06997 0.0
H296 H 0.43423 0.80563 0.96197 0.0
H297 H 0.49375 0.86345 0.95229 0.0
H298 H 0.55294 0.77476 0.05976 0.0
H299 H 0.59867 0.83706 0.06488 0.0
C300 C 0.82946 0.98466 0.55439 0.0
C301 C 0.8538 0.98451 0.56474 0.0
C302 C 0.87537 0.99774 0.55348 0.0
C303 C 0.86296 0.00522 0.53706 0.0
N304 N 0.83472 0.99786 0.53745 0.0
Co305 Co 0.80827 0.00398 0.51628 0.0
N306 N 0.84016 0.02078 0.49735 0.0
C307 C 0.86786 0.02392 0.50031 0.0
C308 C 0.88475 0.03681 0.48521 0.0
C309 C 0.86681 0.04252 0.47203 0.0
C310 C 0.83987 0.03269 0.47985 0.0
N311 N 0.78179 0.01054 0.49542 0.0
C312 C 0.78713 0.02365 0.47834 0.0
C313 C 0.76268 0.02453 0.46869 0.0
C314 C 0.74102 0.01197 0.48053 0.0
C315 C 0.75345 0.00413 0.49661 0.0
N316 N 0.77639 0.98669 0.53485 0.0
C317 C 0.74867 0.98288 0.53142 0.0
C318 C 0.73192 0.96907 0.54571 0.0
C319 C 0.75 0.96334 0.55871 0.0
C320 C 0.77687 0.97414 0.55164 0.0
N321 N 0.80755 0.02783 0.5347 0.0
C322 C 0.80611 0.06361 0.55655 0.0
C323 C 0.78145 0.04848 0.55262 0.0
C324 C 0.78263 0.03089 0.54173 0.0
C325 C 0.83158 0.06023 0.55022 0.0
C326 C 0.83183 0.04229 0.53961 0.0
N327 N 0.80892 0.98013 0.49789 0.0
C328 C 0.78421 0.95006 0.47809 0.0
C329 C 0.80883 0.94457 0.47476 0.0
C330 C 0.83364 0.95742 0.48279 0.0
C331 C 0.83323 0.97499 0.49418 0.0
C332 C 0.78474 0.96776 0.48951 0.0
H333 H 0.85276 0.98404 0.50011 0.0
H334 H 0.76524 0.97098 0.4915 0.0
H335 H 0.76303 0.02024 0.53872 0.0
H336 H 0.85191 0.04066 0.53516 0.0
C337 C 0.87732 0.0168 0.51923 0.0
C338 C 0.8022 0.97084 0.56 0.0
C339 C 0.81477 0.03643 0.47156 0.0
C340 C 0.73912 0.99136 0.51356 0.0
H341 H 0.85577 0.97516 0.57838 0.0
H342 H 0.89754 0.00071 0.55615 0.0
H343 H 0.9074 0.04227 0.48464 0.0
H344 H 0.87302 0.05337 0.45882 0.0
H345 H 0.76073 0.03374 0.4549 0.0
H346 H 0.71884 0.0093 0.47812 0.0
H347 H 0.70931 0.96322 0.54598 0.0
H348 H 0.74399 0.95194 0.57135 0.0
H349 H 0.76119 0.05048 0.55715 0.0
H350 H 0.85126 0.07144 0.55328 0.0
H351 H 0.76455 0.94084 0.47173 0.0
H352 H 0.85327 0.95378 0.48067 0.0
C353 C 0.50502 0.36538 0.05566 0.0
C354 C 0.50965 0.38441 0.06487 0.0
C355 C 0.52965 0.39692 0.05155 0.0
C356 C 0.53622 0.38488 0.03514 0.0
N357 N 0.52122 0.36545 0.03688 0.0
Co358 Co 0.52611 0.34248 0.01806 0.0
N359 N 0.5579 0.36055 0.00013 0.0
C360 C 0.5683 0.38059 0.00234 0.0
C361 C 0.58951 0.38897 0.98714 0.0
C362 C 0.59264 0.3734 0.97422 0.0
C363 C 0.57302 0.35636 0.98233 0.0
N364 N 0.53148 0.31941 -0.00028 0.0
C365 C 0.54966 0.3191 0.98234 0.0
C366 C 0.54632 0.29985 0.97417 0.0
C367 C 0.52515 0.28758 0.98673 0.0
C368 C 0.51679 0.29995 0.00178 0.0
N369 N 0.49396 0.3245 0.03563 0.0
C370 C 0.48208 0.30472 0.0323 0.0
C371 C 0.46056 0.29642 0.04728 0.0
C372 C 0.4589 0.31174 0.06127 0.0
C373 C 0.47973 0.32851 0.05404 0.0
N374 N 0.49957 0.34663 0.99599 0.0
C375 C 0.4637 0.35255 0.96319 0.0
C376 C 0.46239 0.33338 0.97006 0.0
C377 C 0.48036 0.33078 0.98631 0.0
C378 C 0.48289 0.36871 0.97331 0.0
C379 C 0.50039 0.36545 0.98955 0.0
N380 N 0.55251 0.3384 0.04015 0.0
C381 C 0.56548 0.31738 0.06669 0.0
C382 C 0.58706 0.33347 0.07437 0.0
C383 C 0.59155 0.35192 0.0642 0.0
C384 C 0.57418 0.35404 0.04728 0.0
C385 C 0.54872 0.32011 0.04958 0.0
H386 H 0.5784 0.36856 0.04051 0.0
H387 H 0.53259 0.30729 0.04445 0.0
H388 H 0.47851 0.31579 0.99052 0.0
H389 H 0.51453 0.37842 0.99648 0.0
C390 C 0.55768 0.39113 0.01885 0.0
C391 C 0.48644 0.34753 0.06607 0.0
C392 C 0.56918 0.33666 0.9722 0.0
C393 C 0.49382 0.29396 0.01679 0.0
H394 H 0.50027 0.38878 0.08003 0.0
H395 H 0.53907 0.41278 0.05404 0.0
H396 H 0.60113 0.40456 0.98552 0.0
H397 H 0.60749 0.37447 0.96026 0.0
H398 H 0.55753 0.29521 0.9602 0.0
H399 H 0.51632 0.27161 0.98468 0.0
H400 H 0.4484 0.28091 0.04852 0.0
H401 H 0.44468 0.31059 0.07567 0.0
H402 H 0.44804 0.32035 0.96255 0.0
H403 H 0.48442 0.38388 0.96877 0.0
H404 H 0.56155 0.3027 0.07381 0.0
H405 H 0.60794 0.36486 0.06967 0.0
H406 H 0.22785 0.37249 0.2987 0.0
H407 H 0.1928 0.39062 0.30088 0.0
H408 H 0.23723 0.4278 0.35405 0.0
H409 H 0.2725 0.40965 0.35208 0.0
H410 H 0.1783 0.41677 0.36066 0.0
H411 H 0.24817 0.44493 0.3029 0.0
H412 H 0.27731 0.44357 0.26892 0.0
H413 H 0.20327 0.42012 0.23099 0.0
H414 H 0.17368 0.42107 0.26485 0.0
H415 H 0.12404 0.49945 0.35089 0.0
H416 H 0.1537 0.47732 0.35335 0.0
H417 H 0.11528 0.44444 0.29522 0.0
H418 H 0.08561 0.46655 0.29263 0.0
H419 H 0.17038 0.45248 0.29158 0.0
H420 H 0.10006 0.42497 0.34783 0.0
H421 H 0.06973 0.42545 0.3813 0.0
H422 H 0.14223 0.44629 0.42152 0.0
H423 H 0.17303 0.44621 0.3882 0.0
C424 C 0.23004 0.38435 0.31108 0.0
C425 C 0.25317 0.38978 0.32505 0.0
C426 C 0.20998 0.39471 0.31227 0.0
C427 C 0.21267 0.41072 0.3274 0.0
C428 C 0.23485 0.41551 0.34222 0.0
C429 C 0.25501 0.40516 0.34101 0.0
C430 C 0.19341 0.42328 0.32662 0.0
C431 C 0.17674 0.42478 0.34568 0.0
C432 C 0.19095 0.43331 0.30686 0.0
C433 C 0.20872 0.43289 0.28645 0.0
C434 C 0.23811 0.43934 0.28735 0.0
C435 C 0.25471 0.43867 0.26811 0.0
C436 C 0.24215 0.43172 0.24782 0.0
C437 C 0.21297 0.42548 0.24672 0.0
C438 C 0.19627 0.42609 0.26593 0.0
C439 C 0.1217 0.48736 0.33879 0.0
C440 C 0.10251 0.48476 0.32154 0.0
C441 C 0.13864 0.47471 0.34022 0.0
C442 C 0.13653 0.45909 0.3246 0.0
C443 C 0.11731 0.45642 0.30743 0.0
C444 C 0.10044 0.4691 0.30593 0.0
C445 C 0.15509 0.446 0.32563 0.0
C446 C 0.17176 0.44444 0.3066 0.0
C447 C 0.15731 0.43581 0.34535 0.0
C448 C 0.13887 0.43576 0.36546 0.0
C449 C 0.10955 0.4298 0.36377 0.0
C450 C 0.09227 0.42998 0.38273 0.0
C451 C 0.10405 0.43594 0.40352 0.0
C452 C 0.13314 0.44169 0.4054 0.0
C453 C 0.15052 0.44157 0.38649 0.0
H454 H 0.09064 0.43607 0.41817 0.0
H455 H 0.25503 0.43121 0.23294 0.0
H456 H 0.24414 0.77052 0.73641 0.0
H457 H 0.21969 0.73623 0.72517 0.0
H458 H 0.15945 0.73255 0.77992 0.0
H459 H 0.18392 0.76658 0.79144 0.0
H460 H 0.1739 0.69904 0.7764 0.0
H461 H 0.14467 0.7416 0.72641 0.0
H462 H 0.15164 0.76811 0.69847 0.0
H463 H 0.19153 0.73578 0.65278 0.0
H464 H 0.18511 0.70918 0.68058 0.0
H465 H 0.05406 0.62977 0.71098 0.0
H466 H 0.08619 0.66323 0.71727 0.0
H467 H 0.15162 0.63712 0.73259 0.0
H468 H 0.11928 0.60365 0.72647 0.0
H469 H 0.13672 0.68509 0.69997 0.0
H470 H 0.18612 0.66297 0.77711 0.0
H471 H 0.17464 0.63705 0.80611 0.0
H472 H 0.08689 0.62996 0.79958 0.0
H473 H 0.09787 0.65596 0.77072 0.0
C474 C 0.2258 0.76236 0.74614 0.0
C475 C 0.2159 0.77133 0.76476 0.0
C476 C 0.21179 0.74279 0.73964 0.0
C477 C 0.18757 0.7319 0.75157 0.0
C478 C 0.1781 0.74066 0.77048 0.0
C479 C 0.19209 0.76016 0.777 0.0
C480 C 0.17153 0.71155 0.74418 0.0
C481 C 0.16598 0.69598 0.75963 0.0
C482 C 0.16085 0.70757 0.72239 0.0
C483 C 0.1647 0.72352 0.70566 0.0
C484 C 0.15513 0.74022 0.71047 0.0
C485 C 0.15894 0.75525 0.69465 0.0
C486 C 0.17209 0.75366 0.67389 0.0
C487 C 0.18139 0.73701 0.66888 0.0
C488 C 0.17766 0.72195 0.68466 0.0
C489 C 0.07547 0.63132 0.71533 0.0
C490 C 0.08439 0.61438 0.71839 0.0
C491 C 0.09378 0.65034 0.71886 0.0
C492 C 0.12118 0.65263 0.72563 0.0
C493 C 0.13047 0.63566 0.72762 0.0
C494 C 0.11214 0.61663 0.72407 0.0
C495 C 0.1392 0.67265 0.73218 0.0
C496 C 0.14507 0.68812 0.71661 0.0
C497 C 0.14967 0.67667 0.75401 0.0
C498 C 0.14284 0.66125 0.7716 0.0
C499 C 0.16439 0.65591 0.78193 0.0
C500 C 0.15797 0.6412 0.79832 0.0
C501 C 0.13005 0.63182 0.80462 0.0
C502 C 0.1085 0.63719 0.79463 0.0
C503 C 0.11481 0.65189 0.77822 0.0
H504 H 0.12512 0.62041 0.81729 0.0
H505 H 0.17502 0.76531 0.66166 0.0
H506 H 0.88603 0.74002 0.28486 0.0
H507 H 0.90758 0.71337 0.28988 0.0
H508 H 0.82936 0.66951 0.27496 0.0
H509 H 0.80732 0.69619 0.27113 0.0
H510 H 0.8505 0.65645 0.30704 0.0
H511 H 0.88806 0.68349 0.23623 0.0
H512 H 0.91139 0.70944 0.20893 0.0
H513 H 0.98628 0.72443 0.24672 0.0
H514 H 0.96327 0.69874 0.27442 0.0
H515 H 0.91733 0.57883 0.28506 0.0
H516 H 0.89302 0.60417 0.27963 0.0
H517 H 0.95813 0.64775 0.31416 0.0
H518 H 0.98225 0.62244 0.31993 0.0
H519 H 0.94272 0.65954 0.27061 0.0
H520 H 0.9017 0.63115 0.34171 0.0
H521 H 0.87703 0.60338 0.36641 0.0
H522 H 0.80651 0.58863 0.32368 0.0
H523 H 0.83095 0.61616 0.29852 0.0
C524 C 0.87345 0.72469 0.28261 0.0
C525 C 0.84504 0.72018 0.27749 0.0
C526 C 0.88583 0.70945 0.28534 0.0
C527 C 0.87032 0.68937 0.28232 0.0
C528 C 0.84184 0.68485 0.27733 0.0
C529 C 0.82927 0.7001 0.27509 0.0
C530 C 0.8837 0.67314 0.28476 0.0
C531 C 0.87045 0.65703 0.29875 0.0
C532 C 0.9099 0.67385 0.27415 0.0
C533 C 0.92384 0.68931 0.25751 0.0
C534 C 0.90944 0.69242 0.23881 0.0
C535 C 0.92261 0.70706 0.22325 0.0
C536 C 0.95028 0.71861 0.22612 0.0
C537 C 0.96484 0.71549 0.24453 0.0
C538 C 0.95175 0.70087 0.26016 0.0
C539 C 0.92635 0.59381 0.29153 0.0
C540 C 0.95157 0.59871 0.30298 0.0
C541 C 0.91246 0.60821 0.28848 0.0
C542 C 0.92383 0.62776 0.29654 0.0
C543 C 0.94907 0.63271 0.30785 0.0
C544 C 0.9627 0.61825 0.31125 0.0
C545 C 0.90959 0.64319 0.29295 0.0
C546 C 0.9227 0.65905 0.27873 0.0
C547 C 0.88304 0.64203 0.30292 0.0
C548 C 0.86828 0.62557 0.31811 0.0
C549 C 0.88104 0.62187 0.33747 0.0
C550 C 0.86707 0.6062 0.35157 0.0
C551 C 0.84025 0.59421 0.34658 0.0
C552 C 0.8273 0.59791 0.3275 0.0
C553 C 0.84119 0.61355 0.31333 0.0
H554 H 0.82947 0.58209 0.35753 0.0
H555 H 0.96044 0.72994 0.21405 0.0
H556 H 0.81871 0.3268 0.66424 0.0
H557 H 0.85071 0.35886 0.67592 0.0
H558 H 0.78154 0.3749 0.70858 0.0
H559 H 0.74948 0.34295 0.69683 0.0
H560 H 0.81416 0.40373 0.67897 0.0
H561 H 0.82741 0.36442 0.74014 0.0
H562 H 0.83794 0.33593 0.75743 0.0
H563 H 0.9197 0.35235 0.7252 0.0
H564 H 0.90951 0.38079 0.70744 0.0
H565 H 0.89555 0.49502 0.72445 0.0
H566 H 0.86299 0.46134 0.7214 0.0
H567 H 0.93126 0.43902 0.6978 0.0
H568 H 0.96393 0.47258 0.70184 0.0
H569 H 0.89787 0.41299 0.72483 0.0
H570 H 0.88545 0.45002 0.66176 0.0
H571 H 0.87648 0.47814 0.64242 0.0
H572 H 0.79507 0.46539 0.67501 0.0
H573 H 0.80375 0.43738 0.69485 0.0
C574 C 0.81045 0.33706 0.67421 0.0
C575 C 0.78174 0.33226 0.68001 0.0
C576 C 0.82872 0.35531 0.68091 0.0
C577 C 0.81849 0.36914 0.69328 0.0
C578 C 0.78985 0.36432 0.69922 0.0
C579 C 0.77163 0.34598 0.69274 0.0
C580 C 0.83739 0.38914 0.69871 0.0
C581 C 0.83219 0.40582 0.68934 0.0
C582 C 0.86139 0.39171 0.71159 0.0
C583 C 0.86759 0.37463 0.72229 0.0
C584 C 0.84754 0.36186 0.73658 0.0
C585 C 0.85347 0.34574 0.74649 0.0
C586 C 0.87945 0.3423 0.74237 0.0
C587 C 0.89958 0.35502 0.72836 0.0
C588 C 0.89374 0.37115 0.71838 0.0
C589 C 0.90352 0.4828 0.71895 0.0
C590 C 0.93208 0.48619 0.71344 0.0
C591 C 0.88497 0.46363 0.71704 0.0
C592 C 0.89461 0.44769 0.70904 0.0
C593 C 0.92333 0.45106 0.70401 0.0
C594 C 0.94193 0.47018 0.70621 0.0
C595 C 0.87466 0.42766 0.7051 0.0
C596 C 0.87971 0.41095 0.71464 0.0
C597 C 0.85074 0.425 0.69202 0.0
C598 C 0.84537 0.44173 0.67997 0.0
C599 C 0.86571 0.4533 0.66493 0.0
C600 C 0.86067 0.46921 0.65386 0.0
C601 C 0.83524 0.47358 0.65752 0.0
C602 C 0.81478 0.46201 0.67222 0.0
C603 C 0.81974 0.44611 0.68337 0.0
H604 H 0.83138 0.4859 0.64893 0.0
H605 H 0.884 0.32982 0.75007 0.0
H606 H 0.3195 0.288 0.37779 0.0
H607 H 0.32106 0.25834 0.39779 0.0
H608 H 0.40963 0.28441 0.40695 0.0
H609 H 0.40803 0.31436 0.38757 0.0
H610 H 0.34645 0.2317 0.38867 0.0
H611 H 0.42916 0.2678 0.45474 0.0
H612 H 0.4452 0.29918 0.4765 0.0
H613 H 0.36477 0.30907 0.47088 0.0
H614 H 0.34813 0.27763 0.44935 0.0
H615 H 0.39037 0.15507 0.43569 0.0
H616 H 0.39237 0.18715 0.41897 0.0
H617 H 0.34902 0.2023 0.47764 0.0
H618 H 0.34787 0.17049 0.49456 0.0
H619 H 0.38814 0.23437 0.46316 0.0
H620 H 0.31398 0.18305 0.43101 0.0
H621 H 0.29278 0.15092 0.41191 0.0
H622 H 0.34616 0.17081 0.35377 0.0
H623 H 0.36805 0.20296 0.3727 0.0
C624 C 0.33928 0.28747 0.38418 0.0
C625 C 0.36362 0.30356 0.38116 0.0
C626 C 0.34016 0.27048 0.39556 0.0
C627 C 0.3654 0.26918 0.40407 0.0
C628 C 0.38979 0.28519 0.40094 0.0
C629 C 0.38886 0.30228 0.38976 0.0
C630 C 0.36628 0.25088 0.41574 0.0
C631 C 0.3556 0.23233 0.40495 0.0
C632 C 0.37777 0.25158 0.43716 0.0
C633 C 0.38752 0.27047 0.45022 0.0
C634 C 0.41488 0.27665 0.4582 0.0
C635 C 0.42408 0.29445 0.47049 0.0
C636 C 0.40605 0.30615 0.475 0.0
C637 C 0.37875 0.30003 0.46729 0.0
C638 C 0.36944 0.28224 0.45502 0.0
C639 C 0.38186 0.1655 0.4451 0.0
C640 C 0.36917 0.16057 0.46637 0.0
C641 C 0.38278 0.1837 0.43554 0.0
C642 C 0.37053 0.19702 0.44695 0.0
C643 C 0.35864 0.19229 0.46855 0.0
C644 C 0.35791 0.17417 0.47816 0.0
C645 C 0.36868 0.21533 0.43593 0.0
C646 C 0.37914 0.23383 0.44683 0.0
C647 C 0.35622 0.21455 0.41491 0.0
C648 C 0.34283 0.19534 0.40335 0.0
C649 C 0.32132 0.18053 0.41421 0.0
C650 C 0.30917 0.16232 0.40341 0.0
C651 C 0.31815 0.15881 0.38165 0.0
C652 C 0.33925 0.17354 0.37063 0.0
C653 C 0.35154 0.19176 0.38139 0.0
H654 H 0.30872 0.1447 0.37332 0.0
H655 H 0.41322 0.31992 0.48451 0.0
H656 H 0.31994 0.90306 0.81784 0.0
H657 H 0.3518 0.89539 0.84367 0.0
H658 H 0.31877 0.83274 0.82765 0.0
H659 H 0.28547 0.84019 0.80313 0.0
H660 H 0.32375 0.83666 0.86998 0.0
H661 H 0.38587 0.86272 0.80793 0.0
H662 H 0.40865 0.88681 0.7786 0.0
H663 H 0.44153 0.93134 0.82895 0.0
H664 H 0.41863 0.90759 0.8586 0.0
H665 H 0.43274 0.80929 0.92255 0.0
H666 H 0.40305 0.81599 0.89399 0.0
H667 H 0.42166 0.87711 0.91693 0.0
H668 H 0.4508 0.87046 0.94599 0.0
H669 H 0.4252 0.87296 0.87003 0.0
H670 H 0.36097 0.84581 0.93179 0.0
H671 H 0.33904 0.8206 0.96026 0.0
H672 H 0.31131 0.77649 0.90845 0.0
H673 H 0.33343 0.80138 0.87968 0.0
C674 C 0.3195 0.88763 0.81969 0.0
C675 C 0.30049 0.87229 0.80782 0.0
C676 C 0.33797 0.88328 0.83436 0.0
C677 C 0.33825 0.86351 0.83725 0.0
C678 C 0.31924 0.84815 0.82551 0.0
C679 C 0.30045 0.85248 0.81109 0.0
C680 C 0.35743 0.85881 0.85329 0.0
C681 C 0.34602 0.84438 0.86968 0.0
C682 C 0.38645 0.8691 0.85327 0.0
C683 C 0.40032 0.88341 0.83548 0.0
C684 C 0.39779 0.87769 0.81275 0.0
C685 C 0.41075 0.89128 0.79607 0.0
C686 C 0.42647 0.91061 0.80191 0.0
C687 C 0.42932 0.91637 0.82445 0.0
C688 C 0.41638 0.90284 0.8412 0.0
C689 C 0.43031 0.82411 0.92173 0.0
C690 C 0.44406 0.8393 0.93671 0.0
C691 C 0.41346 0.82794 0.90529 0.0
C692 C 0.41005 0.84701 0.90346 0.0
C693 C 0.42412 0.8623 0.91804 0.0
C694 C 0.44084 0.85847 0.93459 0.0
C695 C 0.39141 0.85093 0.88657 0.0
C696 C 0.40295 0.86521 0.8701 0.0
C697 C 0.3626 0.84034 0.88632 0.0
C698 C 0.34909 0.82541 0.9036 0.0
C699 C 0.35038 0.8307 0.92648 0.0
C700 C 0.33788 0.81647 0.94267 0.0
C701 C 0.32385 0.79694 0.93617 0.0
C702 C 0.32222 0.79161 0.91347 0.0
C703 C 0.33471 0.80578 0.89721 0.0
H704 H 0.31419 0.78595 0.94873 0.0
H705 H 0.43649 0.9211 0.78897 0.0
H706 H 0.75549 0.78132 0.35674 0.0
H707 H 0.75968 0.80538 0.38767 0.0
H708 H 0.83905 0.84061 0.35946 0.0
H709 H 0.83536 0.81644 0.32878 0.0
H710 H 0.84032 0.84074 0.40424 0.0
H711 H 0.7781 0.85154 0.34925 0.0
H712 H 0.73704 0.84188 0.32529 0.0
H713 H 0.68232 0.82715 0.38361 0.0
H714 H 0.72312 0.83649 0.40791 0.0
H715 H 0.84703 0.9385 0.44334 0.0
H716 H 0.84494 0.90799 0.4219 0.0
H717 H 0.76773 0.87762 0.45713 0.0
H718 H 0.76982 0.90805 0.47882 0.0
H719 H 0.76372 0.87268 0.41212 0.0
H720 H 0.82698 0.86604 0.46733 0.0
H721 H 0.86866 0.87696 0.49048 0.0
H722 H 0.92215 0.88512 0.43124 0.0
H723 H 0.88076 0.87452 0.40769 0.0
C724 C 0.77404 0.79403 0.35728 0.0
C725 C 0.79494 0.79708 0.34013 0.0
C726 C 0.77636 0.8078 0.37494 0.0
C727 C 0.79942 0.82499 0.37563 0.0
C728 C 0.82102 0.82749 0.35923 0.0
C729 C 0.81883 0.81367 0.34165 0.0
C730 C 0.80021 0.84105 0.39248 0.0
C731 C 0.82366 0.84781 0.4059 0.0
C732 C 0.77821 0.85002 0.39493 0.0
C733 C 0.75367 0.84448 0.38036 0.0
C734 C 0.75732 0.8461 0.35695 0.0
C735 C 0.7341 0.84071 0.34331 0.0
C736 C 0.70709 0.83385 0.35292 0.0
C737 C 0.70325 0.83243 0.37619 0.0
C738 C 0.72642 0.83777 0.3899 0.0
C739 C 0.82987 0.92524 0.44682 0.0
C740 C 0.80852 0.92573 0.4627 0.0
C741 C 0.82869 0.90781 0.43454 0.0
C742 C 0.80626 0.8905 0.43802 0.0
C743 C 0.78519 0.89082 0.45416 0.0
C744 C 0.78635 0.90825 0.46645 0.0
C745 C 0.80394 0.8725 0.42378 0.0
C746 C 0.78021 0.86543 0.41075 0.0
C747 C 0.82577 0.86338 0.42161 0.0
C748 C 0.85074 0.86962 0.43573 0.0
C749 C 0.84762 0.8703 0.45922 0.0
C750 C 0.8712 0.87641 0.47242 0.0
C751 C 0.89803 0.88177 0.46234 0.0
C752 C 0.90134 0.88097 0.43903 0.0
C753 C 0.87783 0.87489 0.42574 0.0
H754 H 0.91627 0.8865 0.47259 0.0
H755 H 0.68914 0.82968 0.34234 0.0
H756 H 0.71493 0.31374 0.79422 0.0
H757 H 0.69538 0.31625 0.83199 0.0
H758 H 0.63428 0.34135 0.80508 0.0
H759 H 0.65392 0.33916 0.76733 0.0
H760 H 0.65621 0.36114 0.84235 0.0
H761 H 0.61686 0.2924 0.8199 0.0
H762 H 0.61842 0.25921 0.8063 0.0
H763 H 0.6659 0.25373 0.86296 0.0
H764 H 0.66493 0.28702 0.87674 0.0
H765 H 0.55576 0.34673 0.93155 0.0
H766 H 0.57963 0.34466 0.89526 0.0
H767 H 0.63837 0.32069 0.92774 0.0
H768 H 0.61414 0.32259 0.96405 0.0
H769 H 0.62051 0.30069 0.88892 0.0
H770 H 0.65728 0.36857 0.9127 0.0
H771 H 0.65449 0.4013 0.9268 0.0
H772 H 0.61181 0.40846 0.86796 0.0
H773 H 0.61386 0.37556 0.85368 0.0
C774 C 0.69739 0.31986 0.79634 0.0
C775 C 0.68589 0.32616 0.77774 0.0
C776 C 0.68618 0.32122 0.81793 0.0
C777 C 0.66315 0.32876 0.82132 0.0
C778 C 0.65203 0.33545 0.80285 0.0
C779 C 0.66324 0.33414 0.78126 0.0
C780 C 0.65036 0.32951 0.84405 0.0
C781 C 0.64815 0.34789 0.85244 0.0
C782 C 0.64052 0.31231 0.85746 0.0
C783 C 0.64109 0.29229 0.84921 0.0
C784 C 0.62783 0.28419 0.82936 0.0
C785 C 0.62857 0.26535 0.82164 0.0
C786 C 0.64233 0.2544 0.83372 0.0
C787 C 0.6553 0.26224 0.85359 0.0
C788 C 0.65465 0.28109 0.86137 0.0
C789 C 0.57373 0.34098 0.9308 0.0
C790 C 0.5833 0.33483 0.95033 0.0
C791 C 0.58739 0.33987 0.91018 0.0
C792 C 0.61099 0.33275 0.90887 0.0
C793 C 0.62024 0.32626 0.92841 0.0
C794 C 0.60653 0.32737 0.94906 0.0
C795 C 0.62605 0.33227 0.88707 0.0
C796 C 0.62873 0.31396 0.87888 0.0
C797 C 0.63635 0.34954 0.87385 0.0
C798 C 0.63554 0.36951 0.88219 0.0
C799 C 0.64714 0.37705 0.90282 0.0
C800 C 0.6457 0.39565 0.91085 0.0
C801 C 0.63294 0.40694 0.8983 0.0
C802 C 0.62167 0.39968 0.87767 0.0
C803 C 0.62298 0.38107 0.86959 0.0
H804 H 0.63184 0.42133 0.90455 0.0
H805 H 0.64287 0.23981 0.82772 0.0
H806 H 0.26257 0.96901 0.74213 0.0
H807 H 0.27733 0.99402 0.71278 0.0
H808 H 0.2993 0.95079 0.66879 0.0
H809 H 0.28466 0.92567 0.69807 0.0
H810 H 0.33905 0.98782 0.66739 0.0
H811 H 0.23904 0.96064 0.66241 0.0
H812 H 0.19006 0.95119 0.67688 0.0
H813 H 0.19828 0.01227 0.69494 0.0
H814 H 0.24746 0.02204 0.68084 0.0
H815 H 0.34378 0.0348 0.56284 0.0
H816 H 0.33283 0.01155 0.59427 0.0
H817 H 0.30546 0.05474 0.63469 0.0
H818 H 0.31595 0.07779 0.60298 0.0
H819 H 0.26935 0.0186 0.63899 0.0
H820 H 0.36865 0.0463 0.6424 0.0
H821 H 0.41749 0.05596 0.62765 0.0
H822 H 0.41116 0.99456 0.61285 0.0
H823 H 0.36208 0.98455 0.62716 0.0
C824 C 0.2707 0.96484 0.72626 0.0
C825 C 0.27229 0.94532 0.72237 0.0
C826 C 0.27905 0.97914 0.7095 0.0
C827 C 0.28913 0.97418 0.68855 0.0
C828 C 0.29154 0.95489 0.68484 0.0
C829 C 0.28307 0.94055 0.70156 0.0
C830 C 0.29639 0.98895 0.67029 0.0
C831 C 0.32377 0.99442 0.66099 0.0
C832 C 0.27659 0.99787 0.66236 0.0
C833 C 0.24701 0.99203 0.67079 0.0
C834 C 0.23047 0.97203 0.66964 0.0
C835 C 0.20266 0.96662 0.67774 0.0
C836 C 0.19109 0.98111 0.68688 0.0
C837 C 0.20728 0.00106 0.68788 0.0
C838 C 0.23512 0.00654 0.67983 0.0
C839 C 0.3355 0.03923 0.57852 0.0
C840 C 0.33074 0.05794 0.58077 0.0
C841 C 0.32938 0.02605 0.59644 0.0
C842 C 0.31868 0.03152 0.61694 0.0
C843 C 0.31377 0.05025 0.61907 0.0
C844 C 0.31979 0.06339 0.60108 0.0
C845 C 0.31204 0.01751 0.63598 0.0
C846 C 0.28473 0.01213 0.64543 0.0
C847 C 0.33196 0.00874 0.64408 0.0
C848 C 0.36158 0.01469 0.63568 0.0
C849 C 0.37759 0.03486 0.63585 0.0
C850 C 0.40533 0.0404 0.62759 0.0
C851 C 0.4174 0.02588 0.61928 0.0
C852 C 0.40177 0.00579 0.61927 0.0
C853 C 0.37399 0.00017 0.62747 0.0
H854 H 0.43888 0.0302 0.61289 0.0
H855 H 0.16955 0.9769 0.69314 0.0
H856 H 0.76431 0.79232 0.20342 0.0
H857 H 0.73694 0.79742 0.1723 0.0
H858 H 0.66553 0.75092 0.19731 0.0
H859 H 0.69297 0.74541 0.22825 0.0
H860 H 0.66942 0.74904 0.15268 0.0
H861 H 0.67127 0.8001 0.20797 0.0
H862 H 0.69313 0.82778 0.23375 0.0
H863 H 0.73671 0.86265 0.1782 0.0
H864 H 0.71539 0.83506 0.1521 0.0
H865 H 0.56292 0.77817 0.0987 0.0
H866 H 0.59281 0.77038 0.12638 0.0
H867 H 0.66458 0.81401 0.09727 0.0
H868 H 0.63499 0.82162 0.06918 0.0
H869 H 0.66104 0.81724 0.14326 0.0
H870 H 0.65675 0.76569 0.08785 0.0
H871 H 0.63314 0.7379 0.06283 0.0
H872 H 0.59197 0.70379 0.11966 0.0
H873 H 0.61504 0.73151 0.14502 0.0
C874 C 0.74287 0.78302 0.20219 0.0
C875 C 0.73073 0.76858 0.21844 0.0
C876 C 0.72721 0.78602 0.18443 0.0
C877 C 0.69902 0.77483 0.18273 0.0
C878 C 0.68722 0.75979 0.19836 0.0
C879 C 0.70293 0.75669 0.21605 0.0
C880 C 0.68155 0.77932 0.16519 0.0
C881 C 0.66735 0.7639 0.15077 0.0
C882 C 0.67917 0.79879 0.16248 0.0
C883 C 0.69196 0.81543 0.17811 0.0
C884 C 0.68568 0.81361 0.20127 0.0
C885 C 0.69795 0.82929 0.21593 0.0
C886 C 0.71636 0.84694 0.20762 0.0
C887 C 0.72248 0.84896 0.18461 0.0
C888 C 0.7103 0.83331 0.16988 0.0
C889 C 0.58513 0.78594 0.09796 0.0
C890 C 0.59654 0.8005 0.08164 0.0
C891 C 0.60216 0.7815 0.11385 0.0
C892 C 0.63094 0.7915 0.11375 0.0
C893 C 0.64239 0.80614 0.09764 0.0
C894 C 0.62541 0.81053 0.08167 0.0
C895 C 0.649 0.78698 0.13075 0.0
C896 C 0.66324 0.8024 0.1451 0.0
C897 C 0.65119 0.76749 0.13352 0.0
C898 C 0.63743 0.75075 0.11831 0.0
C899 C 0.6425 0.75232 0.095 0.0
C900 C 0.62924 0.73657 0.08076 0.0
C901 C 0.61102 0.71911 0.08964 0.0
C902 C 0.60607 0.71734 0.1128 0.0
C903 C 0.61925 0.73306 0.12711 0.0
H904 H 0.60077 0.70693 0.07859 0.0
H905 H 0.72582 0.85907 0.219 0.0
H906 H 0.78758 0.24156 0.59227 0.0
H907 H 0.80106 0.21156 0.58212 0.0
H908 H 0.75039 0.18054 0.6377 0.0
H909 H 0.73763 0.21073 0.64841 0.0
H910 H 0.79682 0.17042 0.63412 0.0
H911 H 0.72734 0.17484 0.58284 0.0
H912 H 0.70598 0.19054 0.5547 0.0
H913 H 0.77713 0.19576 0.50991 0.0
H914 H 0.79908 0.18033 0.53792 0.0
H915 H 0.77451 0.07051 0.59259 0.0
H916 H 0.76987 0.10271 0.60616 0.0
H917 H 0.83029 0.13281 0.55543 0.0
H918 H 0.83488 0.10065 0.5417 0.0
H919 H 0.78121 0.14384 0.55647 0.0
H920 H 0.84876 0.13682 0.60826 0.0
H921 H 0.86761 0.11962 0.63658 0.0
H922 H 0.79678 0.11751 0.68069 0.0
H923 H 0.77729 0.13444 0.65249 0.0
C924 C 0.77945 0.22839 0.60242 0.0
C925 C 0.76136 0.22846 0.62104 0.0
C926 C 0.78708 0.21121 0.59654 0.0
C927 C 0.7763 0.19365 0.60887 0.0
C928 C 0.75892 0.19388 0.62789 0.0
C929 C 0.75158 0.21114 0.63396 0.0
C930 C 0.78249 0.1749 0.60162 0.0
C931 C 0.79313 0.16451 0.6172 0.0
C932 C 0.77812 0.16732 0.57944 0.0
C933 C 0.76499 0.17663 0.56258 0.0
C934 C 0.73853 0.17948 0.56706 0.0
C935 C 0.7263 0.18831 0.55113 0.0
C936 C 0.74023 0.1942 0.53056 0.0
C937 C 0.76639 0.19123 0.52587 0.0
C938 C 0.77873 0.18243 0.54176 0.0
C939 C 0.78694 0.08402 0.58446 0.0
C940 C 0.80507 0.0831 0.56611 0.0
C941 C 0.78441 0.10238 0.5923 0.0
C942 C 0.79986 0.12012 0.58186 0.0
C943 C 0.81828 0.11927 0.56376 0.0
C944 C 0.82102 0.10093 0.55604 0.0
C945 C 0.79549 0.13942 0.58894 0.0
C946 C 0.78508 0.14986 0.57333 0.0
C947 C 0.79972 0.14687 0.61114 0.0
C948 C 0.81144 0.13674 0.62817 0.0
C949 C 0.83708 0.13254 0.62392 0.0
C950 C 0.84791 0.12287 0.63997 0.0
C951 C 0.83337 0.11743 0.6604 0.0
C952 C 0.80801 0.12171 0.66484 0.0
C953 C 0.79708 0.13136 0.64884 0.0
H954 H 0.84179 0.10995 0.6728 0.0
H955 H 0.73072 0.20103 0.51824 0.0
H956 H 0.36742 0.37744 0.25028 0.0
H957 H 0.38771 0.37365 0.21329 0.0
H958 H 0.43349 0.33662 0.24083 0.0
H959 H 0.41347 0.34053 0.2782 0.0
H960 H 0.46579 0.36337 0.21087 0.0
H961 H 0.3756 0.31522 0.21249 0.0
H962 H 0.32437 0.30291 0.21874 0.0
H963 H 0.31311 0.34295 0.16905 0.0
H964 H 0.36432 0.35571 0.16272 0.0
H965 H 0.50094 0.3308 0.10242 0.0
H966 H 0.48294 0.33136 0.14119 0.0
H967 H 0.43025 0.36657 0.1208 0.0
H968 H 0.44758 0.36534 0.08192 0.0
H969 H 0.4021 0.33801 0.14815 0.0
H970 H 0.49301 0.38727 0.14807 0.0
H971 H 0.54425 0.39877 0.14145 0.0
H972 H 0.55422 0.35581 0.18806 0.0
H973 H 0.50297 0.34387 0.19474 0.0
C974 C 0.38184 0.36851 0.24857 0.0
C975 C 0.38866 0.35917 0.26722 0.0
C976 C 0.39336 0.36631 0.22736 0.0
C977 C 0.41177 0.35461 0.22426 0.0
C978 C 0.41923 0.34566 0.24287 0.0
C979 C 0.40771 0.34787 0.26419 0.0
C980 C 0.42282 0.35163 0.20144 0.0
C981 C 0.45191 0.35754 0.19721 0.0
C982 C 0.40466 0.34424 0.18359 0.0
C983 C 0.37382 0.33654 0.18727 0.0
C984 C 0.36221 0.32151 0.20301 0.0
C985 C 0.33317 0.31443 0.20655 0.0
C986 C 0.3155 0.32217 0.19434 0.0
C987 C 0.32683 0.33698 0.17852 0.0
C988 C 0.35586 0.34412 0.17493 0.0
C989 C 0.48553 0.33865 0.10637 0.0
C990 C 0.47582 0.34828 0.08949 0.0
C991 C 0.47537 0.33905 0.12844 0.0
C992 C 0.4556 0.3493 0.13397 0.0
C993 C 0.4456 0.35866 0.11694 0.0
C994 C 0.45556 0.35808 0.09484 0.0
C995 C 0.44506 0.35019 0.15743 0.0
C996 C 0.41602 0.34378 0.16181 0.0
C997 C 0.46328 0.35707 0.17538 0.0
C998 C 0.49414 0.36456 0.17176 0.0
C999 C 0.50612 0.38021 0.15683 0.0
C1000 C 0.53516 0.38681 0.15307 0.0
C1001 C 0.55247 0.37799 0.16428 0.0
C1002 C 0.54078 0.36261 0.17937 0.0
C1003 C 0.51174 0.35594 0.18317 0.0
H1004 H 0.57495 0.3831 0.16132 0.0
H1005 H 0.29302 0.31667 0.1971 0.0
H1006 H 0.79115 0.7075 0.67236 0.0
H1007 H 0.82173 0.68591 0.67297 0.0
H1008 H 0.82492 0.69233 0.74499 0.0
H1009 H 0.79573 0.71493 0.74421 0.0
H1010 H 0.87318 0.69303 0.73064 0.0
H1011 H 0.78261 0.64891 0.71601 0.0
H1012 H 0.73802 0.63605 0.6967 0.0
H1013 H 0.78289 0.6289 0.63575 0.0
H1014 H 0.82778 0.64196 0.65463 0.0
H1015 H 0.91166 0.60249 0.74647 0.0
H1016 H 0.88336 0.62559 0.74523 0.0
H1017 H 0.9122 0.64019 0.67712 0.0
H1018 H 0.94209 0.6182 0.67851 0.0
H1019 H 0.84822 0.62821 0.68954 0.0
H1020 H 0.93957 0.67308 0.70738 0.0
H1021 H 0.98198 0.68369 0.72976 0.0
H1022 H 0.93146 0.68641 0.78896 0.0
H1023 H 0.88869 0.6755 0.76697 0.0
C1024 C 0.79846 0.70433 0.6883 0.0
C1025 C 0.79099 0.71281 0.70825 0.0
C1026 C 0.81578 0.69185 0.68867 0.0
C1027 C 0.82519 0.68704 0.70909 0.0
C1028 C 0.81796 0.69574 0.72901 0.0
C1029 C 0.80122 0.70862 0.72857 0.0
C1030 C 0.84271 0.6731 0.70969 0.0
C1031 C 0.86741 0.67877 0.72185 0.0
C1032 C 0.83553 0.65448 0.6981 0.0
C1033 C 0.80857 0.6466 0.68669 0.0
C1034 C 0.78298 0.64473 0.69845 0.0
C1035 C 0.75765 0.63738 0.68758 0.0
C1036 C 0.75763 0.63172 0.665 0.0
C1037 C 0.78294 0.63333 0.65324 0.0
C1038 C 0.80833 0.64068 0.66402 0.0
C1039 C 0.91251 0.61083 0.73131 0.0
C1040 C 0.92939 0.60839 0.7126 0.0
C1041 C 0.89606 0.62389 0.7306 0.0
C1042 C 0.89575 0.6345 0.71109 0.0
C1043 C 0.91211 0.63199 0.69229 0.0
C1044 C 0.92902 0.61926 0.6931 0.0
C1045 C 0.87835 0.6483 0.71035 0.0
C1046 C 0.85375 0.64253 0.69824 0.0
C1047 C 0.88522 0.66656 0.7224 0.0
C1048 C 0.91093 0.67325 0.73558 0.0
C1049 C 0.93748 0.67574 0.72521 0.0
C1050 C 0.96159 0.68185 0.73782 0.0
C1051 C 0.95941 0.68566 0.76079 0.0
C1052 C 0.93312 0.68342 0.77118 0.0
C1053 C 0.90894 0.67729 0.75865 0.0
H1054 H 0.9781 0.69039 0.77052 0.0
H1055 H 0.73799 0.62603 0.65662 0.0
H1056 H 0.81091 0.31369 0.31843 0.0
H1057 H 0.83491 0.34944 0.319 0.0
H1058 H 0.91416 0.33726 0.30646 0.0
H1059 H 0.89013 0.30139 0.30615 0.0
H1060 H 0.91995 0.36536 0.33692 0.0
H1061 H 0.88025 0.3547 0.26411 0.0
H1062 H 0.84329 0.34342 0.23647 0.0
H1063 H 0.7976 0.38065 0.26803 0.0
H1064 H 0.83431 0.39213 0.29589 0.0
H1065 H 0.99748 0.46394 0.30593 0.0
H1066 H 0.97382 0.42795 0.30584 0.0
H1067 H 0.8949 0.43964 0.32189 0.0
H1068 H 0.91858 0.47568 0.32135 0.0
H1069 H 0.88933 0.41188 0.28962 0.0
H1070 H 0.93138 0.42342 0.36181 0.0
H1071 H 0.97061 0.43584 0.38726 0.0
H1072 H 0.01362 0.3971 0.3553 0.0
H1073 H 0.97479 0.38463 0.32944 0.0
C1074 C 0.83337 0.31864 0.3154 0.0
C1075 C 0.84858 0.30479 0.3117 0.0
C1076 C 0.84711 0.33909 0.31582 0.0
C1077 C 0.87631 0.34611 0.31229 0.0
C1078 C 0.89161 0.33224 0.30911 0.0
C1079 C 0.87788 0.31176 0.30891 0.0
C1080 C 0.8909 0.36788 0.31217 0.0
C1081 C 0.91347 0.37549 0.32636 0.0
C1082 C 0.88218 0.38121 0.29872 0.0
C1083 C 0.85989 0.37413 0.28219 0.0
C1084 C 0.86221 0.36036 0.26525 0.0
C1085 C 0.84135 0.35397 0.24951 0.0
C1086 C 0.81807 0.36127 0.25053 0.0
C1087 C 0.81564 0.375 0.26727 0.0
C1088 C 0.8365 0.38149 0.283 0.0
C1089 C 0.9751 0.45871 0.30951 0.0
C1090 C 0.95977 0.47235 0.31395 0.0
C1091 C 0.96163 0.43822 0.30955 0.0
C1092 C 0.93264 0.43109 0.31423 0.0
C1093 C 0.91729 0.44481 0.31838 0.0
C1094 C 0.93076 0.46531 0.3182 0.0
C1095 C 0.91824 0.40933 0.3144 0.0
C1096 C 0.89574 0.40174 0.30022 0.0
C1097 C 0.92718 0.39603 0.32772 0.0
C1098 C 0.95027 0.4032 0.34358 0.0
C1099 C 0.94926 0.41762 0.36014 0.0
C1100 C 0.97142 0.42466 0.37464 0.0
C1101 C 0.99462 0.41729 0.37287 0.0
C1102 C 0.99565 0.4028 0.35664 0.0
C1103 C 0.97355 0.39572 0.34208 0.0
H1104 H 0.01177 0.42279 0.38409 0.0
H1105 H 0.80195 0.35634 0.23833 0.0
H1106 H 0.23497 0.3985 0.70699 0.0
H1107 H 0.20871 0.42268 0.70311 0.0
H1108 H 0.14237 0.38738 0.74634 0.0
H1109 H 0.16823 0.36293 0.74992 0.0
H1110 H 0.12113 0.40001 0.71149 0.0
H1111 H 0.19043 0.43012 0.76541 0.0
H1112 H 0.23813 0.44266 0.77975 0.0
H1113 H 0.26185 0.48445 0.72595 0.0
H1114 H 0.21437 0.47197 0.71111 0.0
H1115 H 0.05105 0.4721 0.74041 0.0
H1116 H 0.07802 0.4481 0.74135 0.0
H1117 H 0.14008 0.48426 0.69552 0.0
H1118 H 0.11356 0.50867 0.69497 0.0
H1119 H 0.16401 0.47155 0.73007 0.0
H1120 H 0.09349 0.44205 0.67717 0.0
H1121 H 0.04533 0.42973 0.66372 0.0
H1122 H 0.02346 0.38683 0.7165 0.0
H1123 H 0.0714 0.39909 0.73047 0.0
C1124 C 0.21477 0.39586 0.71565 0.0
C1125 C 0.20374 0.37882 0.72884 0.0
C1126 C 0.19983 0.40975 0.71349 0.0
C1127 C 0.17372 0.40699 0.72467 0.0
C1128 C 0.16248 0.38984 0.73758 0.0
C1129 C 0.17734 0.3759 0.73965 0.0
C1130 C 0.15809 0.42197 0.723 0.0
C1131 C 0.13041 0.41561 0.7158 0.0
C1132 C 0.17039 0.44242 0.72812 0.0
C1133 C 0.19894 0.44996 0.73702 0.0
C1134 C 0.20589 0.44187 0.75654 0.0
C1135 C 0.23287 0.44899 0.76477 0.0
C1136 C 0.25303 0.4643 0.75373 0.0
C1137 C 0.24623 0.47257 0.73446 0.0
C1138 C 0.21928 0.46549 0.72614 0.0
C1139 C 0.07056 0.47504 0.73067 0.0
C1140 C 0.08017 0.49231 0.71762 0.0
C1141 C 0.0858 0.46121 0.73105 0.0
C1142 C 0.1109 0.46428 0.7183 0.0
C1143 C 0.1207 0.48157 0.70541 0.0
C1144 C 0.10543 0.49541 0.70499 0.0
C1145 C 0.12704 0.44955 0.71871 0.0
C1146 C 0.1548 0.45596 0.72567 0.0
C1147 C 0.11478 0.42913 0.71346 0.0
C1148 C 0.08599 0.42161 0.70498 0.0
C1149 C 0.07836 0.43009 0.68601 0.0
C1150 C 0.05111 0.4231 0.67828 0.0
C1151 C 0.03133 0.40754 0.68928 0.0
C1152 C 0.03879 0.39889 0.70801 0.0
C1153 C 0.06601 0.40585 0.71582 0.0
H1154 H 0.01024 0.40215 0.68327 0.0
H1155 H 0.27391 0.46979 0.76013 0.0
H1156 H 0.29187 0.74266 0.30742 0.0
H1157 H 0.25814 0.70955 0.3094 0.0
H1158 H 0.19253 0.73589 0.32902 0.0
H1159 H 0.22628 0.76916 0.32734 0.0
H1160 H 0.18802 0.70197 0.3523 0.0
H1161 H 0.19954 0.72208 0.27543 0.0
H1162 H 0.22606 0.73445 0.24041 0.0
H1163 H 0.25827 0.68386 0.23757 0.0
H1164 H 0.23223 0.67133 0.27277 0.0
H1165 H 0.07174 0.61997 0.3239 0.0
H1166 H 0.10643 0.65298 0.32525 0.0
H1167 H 0.17196 0.62635 0.30609 0.0
H1168 H 0.13711 0.59333 0.30464 0.0
H1169 H 0.17664 0.66032 0.28295 0.0
H1170 H 0.16343 0.63967 0.35954 0.0
H1171 H 0.13564 0.62716 0.39398 0.0
H1172 H 0.10568 0.67878 0.39705 0.0
H1173 H 0.13289 0.69142 0.36236 0.0
C1174 C 0.27034 0.74145 0.31239 0.0
C1175 C 0.26171 0.75858 0.31701 0.0
C1176 C 0.25106 0.72249 0.31344 0.0
C1177 C 0.22273 0.72029 0.31896 0.0
C1178 C 0.21428 0.73728 0.32462 0.0
C1179 C 0.23359 0.75627 0.32361 0.0
C1180 C 0.2018 0.70034 0.31787 0.0
C1181 C 0.18529 0.69295 0.33708 0.0
C1182 C 0.1986 0.68844 0.2981 0.0
C1183 C 0.21416 0.69588 0.27686 0.0
C1184 C 0.21245 0.71368 0.26743 0.0
C1185 C 0.22737 0.7207 0.24753 0.0
C1186 C 0.2439 0.70998 0.2368 0.0
C1187 C 0.24549 0.69217 0.24592 0.0
C1188 C 0.23064 0.68509 0.26584 0.0
C1189 C 0.09358 0.62129 0.31997 0.0
C1190 C 0.10199 0.60432 0.31419 0.0
C1191 C 0.11334 0.64005 0.3208 0.0
C1192 C 0.14181 0.64207 0.316 0.0
C1193 C 0.15011 0.6251 0.30988 0.0
C1194 C 0.13032 0.60632 0.30908 0.0
C1195 C 0.16292 0.66191 0.31739 0.0
C1196 C 0.17943 0.6693 0.2982 0.0
C1197 C 0.16603 0.67381 0.33715 0.0
C1198 C 0.15002 0.66641 0.35823 0.0
C1199 C 0.15077 0.64829 0.36747 0.0
C1200 C 0.13513 0.64118 0.38704 0.0
C1201 C 0.11886 0.65215 0.39767 0.0
C1202 C 0.11826 0.67028 0.38878 0.0
C1203 C 0.1338 0.67744 0.36917 0.0
H1204 H 0.10676 0.64662 0.41282 0.0
H1205 H 0.25544 0.71544 0.2214 0.0
H1206 H 0.78909 0.80555 0.66188 0.0
H1207 H 0.80542 0.83579 0.63944 0.0
H1208 H 0.7198 0.8345 0.6294 0.0
H1209 H 0.7033 0.80426 0.65149 0.0
H1210 H 0.75183 0.84589 0.59169 0.0
H1211 H 0.75618 0.86284 0.67082 0.0
H1212 H 0.77127 0.8614 0.70942 0.0
H1213 H 0.85742 0.88347 0.68705 0.0
H1214 H 0.8428 0.88479 0.64825 0.0
H1215 H 0.78212 0.95986 0.6023 0.0
H1216 H 0.77576 0.92739 0.61972 0.0
H1217 H 0.81387 0.90761 0.56092 0.0
H1218 H 0.81923 0.93985 0.54325 0.0
H1219 H 0.80902 0.9061 0.63147 0.0
H1220 H 0.78099 0.85887 0.5513 0.0
H1221 H 0.76375 0.86187 0.51373 0.0
H1222 H 0.71929 0.90189 0.54036 0.0
H1223 H 0.73599 0.89894 0.57808 0.0
C1224 C 0.77373 0.81153 0.65461 0.0
C1225 C 0.74488 0.80259 0.65868 0.0
C1226 C 0.78311 0.82884 0.64184 0.0
C1227 C 0.76381 0.83752 0.63299 0.0
C1228 C 0.73505 0.82806 0.63607 0.0
C1229 C 0.72566 0.8108 0.64881 0.0
C1230 C 0.77332 0.85722 0.62199 0.0
C1231 C 0.76455 0.85902 0.60029 0.0
C1232 C 0.78963 0.8744 0.63331 0.0
C1233 C 0.79842 0.8737 0.65662 0.0
C1234 C 0.77834 0.86724 0.67412 0.0
C1235 C 0.7868 0.86647 0.69603 0.0
C1236 C 0.81529 0.87229 0.70067 0.0
C1237 C 0.83536 0.87894 0.68342 0.0
C1238 C 0.82701 0.87971 0.66147 0.0
C1239 C 0.78914 0.94852 0.59324 0.0
C1240 C 0.80063 0.952 0.57141 0.0
C1241 C 0.78571 0.93009 0.60318 0.0
C1242 C 0.79395 0.91497 0.59147 0.0
C1243 C 0.8069 0.91892 0.57008 0.0
C1244 C 0.81005 0.93728 0.56006 0.0
C1245 C 0.78745 0.8948 0.60122 0.0
C1246 C 0.79673 0.89292 0.62269 0.0
C1247 C 0.77117 0.87762 0.58984 0.0
C1248 C 0.75993 0.87879 0.56745 0.0
C1249 C 0.76736 0.86818 0.54915 0.0
C1250 C 0.75773 0.86991 0.52783 0.0
C1251 C 0.74049 0.88209 0.52465 0.0
C1252 C 0.73269 0.89248 0.54282 0.0
C1253 C 0.74223 0.89079 0.56417 0.0
H1254 H 0.73314 0.88346 0.50813 0.0
H1255 H 0.8218 0.87168 0.71765 0.0
H1256 H 0.7092 0.30174 0.25156 0.0
H1257 H 0.67731 0.30687 0.22377 0.0
H1258 H 0.74774 0.33392 0.17944 0.0
H1259 H 0.77982 0.32872 0.20703 0.0
H1260 H 0.7059 0.35437 0.18225 0.0
H1261 H 0.71388 0.28755 0.17035 0.0
H1262 H 0.71146 0.25356 0.18209 0.0
H1263 H 0.62445 0.24267 0.20099 0.0
H1264 H 0.62648 0.27672 0.18964 0.0
H1265 H 0.64386 0.34821 0.07738 0.0
H1266 H 0.67246 0.34528 0.10866 0.0
H1267 H 0.59842 0.31084 0.14498 0.0
H1268 H 0.56967 0.31363 0.11362 0.0
H1269 H 0.63976 0.29451 0.14843 0.0
H1270 H 0.62943 0.3595 0.159 0.0
H1271 H 0.63022 0.39344 0.14839 0.0
H1272 H 0.7188 0.40816 0.13399 0.0
H1273 H 0.71849 0.37418 0.14421 0.0
C1274 C 0.71795 0.30895 0.23599 0.0
C1275 C 0.74704 0.31471 0.23143 0.0
C1276 C 0.69968 0.31182 0.22013 0.0
C1277 C 0.7102 0.32062 0.19952 0.0
C1278 C 0.73925 0.32709 0.19526 0.0
C1279 C 0.75752 0.32403 0.21101 0.0
C1280 C 0.69089 0.3223 0.18198 0.0
C1281 C 0.69161 0.34131 0.17467 0.0
C1282 C 0.67168 0.30524 0.17267 0.0
C1283 C 0.67042 0.28475 0.17939 0.0
C1284 C 0.6943 0.27797 0.17719 0.0
C1285 C 0.69298 0.25868 0.18374 0.0
C1286 C 0.66784 0.24599 0.19234 0.0
C1287 C 0.64393 0.25253 0.19436 0.0
C1288 C 0.64514 0.27182 0.18786 0.0
C1289 C 0.63366 0.34011 0.09208 0.0
C1290 C 0.60452 0.3312 0.09308 0.0
C1291 C 0.65001 0.33846 0.10996 0.0
C1292 C 0.63752 0.32809 0.1293 0.0
C1293 C 0.60848 0.31893 0.13023 0.0
C1294 C 0.59211 0.32047 0.11228 0.0
C1295 C 0.65492 0.32662 0.1484 0.0
C1296 C 0.65387 0.30763 0.15606 0.0
C1297 C 0.67355 0.34372 0.15823 0.0
C1298 C 0.67389 0.36422 0.15219 0.0
C1299 C 0.64905 0.36992 0.15342 0.0
C1300 C 0.64942 0.38918 0.1475 0.0
C1301 C 0.67454 0.40294 0.14048 0.0
C1302 C 0.69936 0.39748 0.13942 0.0
C1303 C 0.69911 0.37823 0.14529 0.0
H1304 H 0.67478 0.41784 0.1359 0.0
H1305 H 0.66686 0.23106 0.1974 0.0
H1306 H 0.28942 0.31059 0.65971 0.0
H1307 H 0.29422 0.28378 0.63421 0.0
H1308 H 0.35203 0.27017 0.67868 0.0
H1309 H 0.34766 0.29698 0.70402 0.0
H1310 H 0.37062 0.2705 0.63584 0.0
H1311 H 0.284 0.24159 0.67741 0.0
H1312 H 0.23631 0.23966 0.69183 0.0
H1313 H 0.20825 0.23764 0.62454 0.0
H1314 H 0.25589 0.23982 0.60971 0.0
H1315 H 0.36951 0.17358 0.59882 0.0
H1316 H 0.3649 0.20255 0.62053 0.0
H1317 H 0.30661 0.21144 0.57323 0.0
H1318 H 0.3111 0.18244 0.55145 0.0
H1319 H 0.28796 0.2147 0.61524 0.0
H1320 H 0.37408 0.24171 0.57359 0.0
H1321 H 0.4217 0.24339 0.55923 0.0
H1322 H 0.45081 0.24902 0.62645 0.0
H1323 H 0.40325 0.24709 0.64125 0.0
C1324 C 0.30318 0.3019 0.66403 0.0
C1325 C 0.31809 0.30588 0.68393 0.0
C1326 C 0.30583 0.28655 0.64948 0.0
C1327 C 0.32331 0.27486 0.65464 0.0
C1328 C 0.33845 0.279 0.67435 0.0
C1329 C 0.33583 0.29431 0.68886 0.0
C1330 C 0.32584 0.25822 0.63968 0.0
C1331 C 0.35258 0.2582 0.63149 0.0
C1332 C 0.30222 0.24243 0.63356 0.0
C1333 C 0.27357 0.24109 0.64246 0.0
C1334 C 0.26771 0.2409 0.66569 0.0
C1335 C 0.24068 0.23973 0.67394 0.0
C1336 C 0.21928 0.23859 0.65911 0.0
C1337 C 0.22486 0.23856 0.636 0.0
C1338 C 0.25186 0.23975 0.62767 0.0
C1339 C 0.35592 0.18182 0.59293 0.0
C1340 C 0.34069 0.17574 0.57341 0.0
C1341 C 0.3533 0.19837 0.60535 0.0
C1342 C 0.33565 0.2093 0.59836 0.0
C1343 C 0.32033 0.20322 0.57894 0.0
C1344 C 0.32285 0.18662 0.56656 0.0
C1345 C 0.33279 0.22686 0.61158 0.0
C1346 C 0.30599 0.22706 0.61943 0.0
C1347 C 0.35636 0.24282 0.61738 0.0
C1348 C 0.38503 0.24409 0.60853 0.0
C1349 C 0.39058 0.24316 0.58532 0.0
C1350 C 0.41758 0.24418 0.5771 0.0
C1351 C 0.43925 0.24626 0.59192 0.0
C1352 C 0.43399 0.24738 0.61499 0.0
C1353 C 0.40703 0.24635 0.62331 0.0
H1354 H 0.46013 0.24705 0.58552 0.0
H1355 H 0.19837 0.23768 0.66553 0.0
H1356 H 0.32953 0.84486 0.23346 0.0
H1357 H 0.3511 0.8487 0.19577 0.0
H1358 H 0.42971 0.84775 0.22253 0.0
H1359 H 0.40846 0.84417 0.26033 0.0
H1360 H 0.4374 0.87453 0.1885 0.0
H1361 H 0.38592 0.80565 0.20192 0.0
H1362 H 0.34404 0.77812 0.21227 0.0
H1363 H 0.29991 0.79283 0.15806 0.0
H1364 H 0.34144 0.82064 0.14757 0.0
H1365 H 0.50401 0.83873 0.09647 0.0
H1366 H 0.48193 0.84446 0.13243 0.0
H1367 H 0.40628 0.84283 0.09877 0.0
H1368 H 0.42842 0.83684 0.06282 0.0
H1369 H 0.39499 0.81982 0.13497 0.0
H1370 H 0.44879 0.88659 0.11892 0.0
H1371 H 0.49118 0.9136 0.10842 0.0
H1372 H 0.53138 0.90291 0.16713 0.0
H1373 H 0.48938 0.87559 0.17781 0.0
C1374 C 0.35152 0.84577 0.23141 0.0
C1375 C 0.36718 0.84395 0.2499 0.0
C1376 C 0.36379 0.84792 0.20983 0.0
C1377 C 0.39186 0.84817 0.20633 0.0
C1378 C 0.40798 0.84753 0.22486 0.0
C1379 C 0.39575 0.84541 0.24646 0.0
C1380 C 0.40388 0.84759 0.18331 0.0
C1381 C 0.42827 0.86253 0.17681 0.0
C1382 C 0.39158 0.83214 0.16793 0.0
C1383 C 0.36666 0.81535 0.17413 0.0
C1384 C 0.36721 0.8031 0.19232 0.0
C1385 C 0.34356 0.78744 0.19819 0.0
C1386 C 0.3193 0.78376 0.18587 0.0
C1387 C 0.31869 0.79571 0.16761 0.0
C1388 C 0.34228 0.81142 0.16169 0.0
C1389 C 0.48276 0.83978 0.09686 0.0
C1390 C 0.46775 0.83734 0.07714 0.0
C1391 C 0.47022 0.84315 0.1173 0.0
C1392 C 0.44254 0.84428 0.11825 0.0
C1393 C 0.42766 0.84205 0.0984 0.0
C1394 C 0.44023 0.83868 0.07796 0.0
C1395 C 0.4287 0.84669 0.14013 0.0
C1396 C 0.40397 0.83202 0.14648 0.0
C1397 C 0.44075 0.86238 0.15534 0.0
C1398 C 0.46599 0.87892 0.14908 0.0
C1399 C 0.46674 0.88989 0.12952 0.0
C1400 C 0.49069 0.90527 0.12354 0.0
C1401 C 0.51398 0.90994 0.13708 0.0
C1402 C 0.51333 0.89926 0.15665 0.0
C1403 C 0.48944 0.88384 0.16269 0.0
H1404 H 0.5325 0.92186 0.13243 0.0
H1405 H 0.30101 0.77162 0.19044 0.0
H1406 H 0.80179 0.19903 0.38258 0.0
H1407 H 0.80225 0.17066 0.40553 0.0
H1408 H 0.85141 0.15099 0.35389 0.0
H1409 H 0.85119 0.17935 0.33086 0.0
H1410 H 0.80438 0.12088 0.36919 0.0
H1411 H 0.8821 0.17154 0.40012 0.0
H1412 H 0.90508 0.20425 0.41738 0.0
H1413 H 0.84667 0.19058 0.47358 0.0
H1414 H 0.82311 0.15788 0.45651 0.0
H1415 H 0.83495 0.04408 0.42855 0.0
H1416 H 0.83847 0.07403 0.40682 0.0
H1417 H 0.80149 0.09862 0.46284 0.0
H1418 H 0.79924 0.06903 0.48483 0.0
H1419 H 0.84249 0.12663 0.44534 0.0
H1420 H 0.76386 0.07737 0.4161 0.0
H1421 H 0.73799 0.04489 0.39981 0.0
H1422 H 0.79338 0.05604 0.34165 0.0
H1423 H 0.81988 0.08847 0.35776 0.0
C1424 C 0.81293 0.18878 0.37619 0.0
C1425 C 0.82646 0.19144 0.3549 0.0
C1426 C 0.81322 0.1726 0.38934 0.0
C1427 C 0.82693 0.15878 0.38141 0.0
C1428 C 0.84071 0.16151 0.36029 0.0
C1429 C 0.84065 0.17777 0.34721 0.0
C1430 C 0.826 0.14104 0.39477 0.0
C1431 C 0.81308 0.12209 0.38571 0.0
C1432 C 0.83645 0.14272 0.41661 0.0
C1433 C 0.85068 0.16234 0.42693 0.0
C1434 C 0.87402 0.17558 0.41607 0.0
C1435 C 0.88717 0.1941 0.42584 0.0
C1436 C 0.8773 0.19951 0.44653 0.0
C1437 C 0.85428 0.18638 0.45754 0.0
C1438 C 0.84104 0.16784 0.44783 0.0
C1439 C 0.82784 0.05601 0.43617 0.0
C1440 C 0.81704 0.05448 0.45829 0.0
C1441 C 0.82961 0.07301 0.42375 0.0
C1442 C 0.81991 0.0885 0.43308 0.0
C1443 C 0.80914 0.08691 0.45527 0.0
C1444 C 0.80773 0.07003 0.46777 0.0
C1445 C 0.82097 0.10635 0.41974 0.0
C1446 C 0.83383 0.12535 0.4288 0.0
C1447 C 0.80998 0.10473 0.39804 0.0
C1448 C 0.79402 0.08527 0.38824 0.0
C1449 C 0.77066 0.07283 0.39991 0.0
C1450 C 0.75587 0.05443 0.3907 0.0
C1451 C 0.76408 0.04838 0.36973 0.0
C1452 C 0.78707 0.06074 0.35791 0.0
C1453 C 0.80197 0.07913 0.36706 0.0
H1454 H 0.7526 0.03413 0.36263 0.0
H1455 H 0.88752 0.21386 0.45406 0.0
H1456 H 0.35164 0.38349 0.78174 0.0
H1457 H 0.37793 0.38616 0.81588 0.0
H1458 H 0.3092 0.34116 0.84679 0.0
H1459 H 0.28251 0.33865 0.81287 0.0
H1460 H 0.33356 0.36988 0.87685 0.0
H1461 H 0.36375 0.32854 0.82193 0.0
H1462 H 0.38146 0.32045 0.78485 0.0
H1463 H 0.45645 0.36908 0.79195 0.0
H1464 H 0.43899 0.37763 0.82895 0.0
H1465 H 0.40817 0.33338 0.95709 0.0
H1466 H 0.37948 0.33743 0.92627 0.0
H1467 H 0.44984 0.38282 0.89792 0.0
H1468 H 0.47883 0.37851 0.92835 0.0
H1469 H 0.42503 0.35553 0.8669 0.0
H1470 H 0.39538 0.39529 0.92362 0.0
H1471 H 0.37722 0.40238 0.9609 0.0
H1472 H 0.30087 0.35562 0.95094 0.0
H1473 H 0.31874 0.34805 0.9137 0.0
C1474 C 0.34191 0.37437 0.79591 0.0
C1475 C 0.31509 0.36067 0.79446 0.0
C1476 C 0.35701 0.37588 0.81539 0.0
C1477 C 0.34574 0.36357 0.8337 0.0
C1478 C 0.31835 0.35074 0.83282 0.0
C1479 C 0.30315 0.34929 0.81337 0.0
C1480 C 0.36317 0.36305 0.8531 0.0
C1481 C 0.35345 0.36659 0.87473 0.0
C1482 C 0.38932 0.35903 0.85028 0.0
C1483 C 0.39993 0.35386 0.82809 0.0
C1484 C 0.38392 0.3376 0.8155 0.0
C1485 C 0.39393 0.33292 0.79452 0.0
C1486 C 0.42003 0.34428 0.78602 0.0
C1487 C 0.43621 0.36032 0.79853 0.0
C1488 C 0.42628 0.36508 0.81952 0.0
C1489 C 0.41753 0.34421 0.94428 0.0
C1490 C 0.44577 0.35562 0.94516 0.0
C1491 C 0.40103 0.34665 0.92681 0.0
C1492 C 0.41246 0.36057 0.90992 0.0
C1493 C 0.44058 0.37206 0.91084 0.0
C1494 C 0.45705 0.36968 0.92832 0.0
C1495 C 0.39551 0.36243 0.8907 0.0
C1496 C 0.40527 0.35902 0.86906 0.0
C1497 C 0.36936 0.36643 0.89358 0.0
C1498 C 0.35852 0.37099 0.91594 0.0
C1499 C 0.37481 0.38641 0.92945 0.0
C1500 C 0.36455 0.39053 0.95056 0.0
C1501 C 0.33793 0.37942 0.95831 0.0
C1502 C 0.3215 0.3642 0.94493 0.0
C1503 C 0.33167 0.36 0.9238 0.0
H1504 H 0.33002 0.38264 0.97466 0.0
H1505 H 0.42774 0.34063 0.76977 0.0
H1506 H 0.30762 0.87683 0.36678 0.0
H1507 H 0.31031 0.90803 0.38694 0.0
H1508 H 0.40065 0.92386 0.38278 0.0
H1509 H 0.39802 0.89221 0.36349 0.0
H1510 H 0.38571 0.93369 0.42192 0.0
H1511 H 0.36103 0.94483 0.34796 0.0
H1512 H 0.33385 0.93792 0.31358 0.0
H1513 H 0.26018 0.94129 0.35114 0.0
H1514 H 0.28683 0.94796 0.38581 0.0
H1515 H 0.403 0.0372 0.44839 0.0
H1516 H 0.40334 0.00632 0.4285 0.0
H1517 H 0.31464 0.98212 0.44252 0.0
H1518 H 0.31418 0.01252 0.46308 0.0
H1519 H 0.33088 0.97778 0.39742 0.0
H1520 H 0.35786 0.96643 0.47174 0.0
H1521 H 0.38714 0.97469 0.50492 0.0
H1522 H 0.4597 0.9736 0.46439 0.0
H1523 H 0.43089 0.96561 0.43089 0.0
C1524 C 0.32805 0.88695 0.37018 0.0
C1525 C 0.35261 0.88212 0.36346 0.0
C1526 C 0.32959 0.90486 0.3816 0.0
C1527 C 0.35571 0.91855 0.386 0.0
C1528 C 0.38025 0.9136 0.37955 0.0
C1529 C 0.37872 0.89552 0.36848 0.0
C1530 C 0.35739 0.93795 0.39744 0.0
C1531 C 0.37403 0.94345 0.41631 0.0
C1532 C 0.34197 0.95067 0.39035 0.0
C1533 C 0.32588 0.94672 0.36952 0.0
C1534 C 0.33898 0.94396 0.34891 0.0
C1535 C 0.32368 0.94011 0.32937 0.0
C1536 C 0.29529 0.93912 0.33018 0.0
C1537 C 0.28216 0.94204 0.35054 0.0
C1538 C 0.29736 0.94588 0.37014 0.0
C1539 C 0.38361 0.02523 0.44751 0.0
C1540 C 0.35854 0.02744 0.45732 0.0
C1541 C 0.38384 0.00764 0.43603 0.0
C1542 C 0.35902 0.99196 0.43408 0.0
C1543 C 0.33399 0.99411 0.44373 0.0
C1544 C 0.33377 0.01158 0.45537 0.0
C1545 C 0.35893 0.9733 0.42186 0.0
C1546 C 0.34262 0.968 0.40287 0.0
C1547 C 0.37499 0.96095 0.42861 0.0
C1548 C 0.39227 0.96563 0.44877 0.0
C1549 C 0.3801 0.96812 0.46987 0.0
C1550 C 0.3966 0.97272 0.48874 0.0
C1551 C 0.42528 0.97473 0.48675 0.0
C1552 C 0.43749 0.97208 0.4659 0.0
C1553 C 0.42109 0.9675 0.44697 0.0
H1554 H 0.43802 0.97829 0.50138 0.0
H1555 H 0.28348 0.93613 0.31503 0.0
H1556 H 0.68819 0.80781 0.77936 0.0
H1557 H 0.66933 0.81046 0.81716 0.0
H1558 H 0.6328 0.74661 0.81868 0.0
H1559 H 0.65127 0.74383 0.78049 0.0
H1560 H 0.59601 0.76495 0.83396 0.0
H1561 H 0.69056 0.76927 0.84904 0.0
H1562 H 0.74204 0.7815 0.84473 0.0
H1563 H 0.74015 0.84048 0.86425 0.0
H1564 H 0.68861 0.82867 0.86839 0.0
H1565 H 0.59946 0.78855 0.96238 0.0
H1566 H 0.6221 0.77988 0.92783 0.0
H1567 H 0.57443 0.80869 0.88875 0.0
H1568 H 0.55178 0.81718 0.92326 0.0
H1569 H 0.65439 0.80275 0.89488 0.0
H1570 H 0.55511 0.78119 0.84124 0.0
H1571 H 0.50395 0.7673 0.84698 0.0
H1572 H 0.51615 0.73861 0.90688 0.0
H1573 H 0.56735 0.752 0.90128 0.0
C1574 C 0.6763 0.79428 0.78773 0.0
C1575 C 0.67126 0.77559 0.7769 0.0
C1576 C 0.66564 0.79583 0.80943 0.0
C1577 C 0.64995 0.77872 0.82088 0.0
C1578 C 0.64493 0.76 0.81017 0.0
C1579 C 0.65555 0.75844 0.78838 0.0
C1580 C 0.63791 0.7806 0.84366 0.0
C1581 C 0.6088 0.77311 0.84731 0.0
C1582 C 0.65466 0.79093 0.86124 0.0
C1583 C 0.68569 0.7981 0.85888 0.0
C1584 C 0.7011 0.78488 0.85227 0.0
C1585 C 0.7303 0.79173 0.84988 0.0
C1586 C 0.74435 0.81176 0.85418 0.0
C1587 C 0.72924 0.82497 0.86092 0.0
C1588 C 0.70003 0.8182 0.86332 0.0
C1589 C 0.59404 0.79302 0.94634 0.0
C1590 C 0.57399 0.8034 0.94519 0.0
C1591 C 0.60693 0.78814 0.92671 0.0
C1592 C 0.5997 0.79345 0.90575 0.0
C1593 C 0.58001 0.8042 0.90474 0.0
C1594 C 0.56719 0.80911 0.92434 0.0
C1595 C 0.61249 0.78766 0.88484 0.0
C1596 C 0.64168 0.79443 0.88157 0.0
C1597 C 0.59589 0.77636 0.86775 0.0
C1598 C 0.56509 0.76775 0.87091 0.0
C1599 C 0.54688 0.7718 0.85555 0.0
C1600 C 0.51787 0.76403 0.85879 0.0
C1601 C 0.50681 0.75212 0.87731 0.0
C1602 C 0.52474 0.74788 0.89257 0.0
C1603 C 0.55376 0.75556 0.88937 0.0
H1604 H 0.48434 0.74616 0.87982 0.0
H1605 H 0.76696 0.81704 0.85231 0.0
loop_
_geom_bond_atom_site_label_1
_geom_bond_atom_site_label_2
_geom_bond_distance
_geom_bond_site_symmetry_2
_ccdc_geom_bond_type
O0 Cd1 2.300 . S
O0 C7 1.275 . S
Cd1 O0 2.300 . S
Cd1 O9 2.381 . S
Cd1 O10 2.378 . S
O2 Cd3 2.385 . S
O2 C7 1.255 . S
Cd3 O2 2.385 . S
Cd3 O4 2.317 . S
O4 Cd3 2.317 . S
O4 C5 1.232 . S
C5 O4 1.232 . S
C5 O6 1.218 . S
O6 C5 1.218 . S
C7 O0 1.275 . S
C7 O2 1.255 . S
C8 O9 1.258 . S
C8 O10 1.256 . S
O9 Cd1 2.381 . S
O9 C8 1.258 . S
O10 Cd1 2.378 . S
O10 C8 1.256 . S
O11 Cd12 2.300 . S
O11 C18 1.275 . S
Cd12 O11 2.300 . S
Cd12 O20 2.381 . S
Cd12 O21 2.378 . S
O13 Cd14 2.385 . S
O13 C18 1.255 . S
Cd14 O13 2.385 . S
Cd14 O15 2.317 . S
O15 Cd14 2.317 . S
O15 C16 1.232 . S
C16 O15 1.232 . S
C16 O17 1.218 . S
O17 C16 1.218 . S
C18 O11 1.275 . S
C18 O13 1.255 . S
C19 O20 1.258 . S
C19 O21 1.256 . S
O20 Cd12 2.381 . S
O20 C19 1.258 . S
O21 Cd12 2.378 . S
O21 C19 1.256 . S
O22 Cd23 2.300 . S
O22 C29 1.275 . S
Cd23 O22 2.300 . S
Cd23 O31 2.381 . S
Cd23 O32 2.378 . S
O24 Cd25 2.385 . S
O24 C29 1.255 . S
Cd25 O24 2.385 . S
Cd25 O26 2.317 . S
O26 Cd25 2.317 . S
O26 C27 1.232 . S
C27 O26 1.232 . S
C27 O28 1.218 . S
O28 C27 1.218 . S
C29 O22 1.275 . S
C29 O24 1.255 . S
C30 O31 1.258 . S
C30 O32 1.256 . S
O31 Cd23 2.381 . S
O31 C30 1.258 . S
O32 Cd23 2.378 . S
O32 C30 1.256 . S
O33 Cd34 2.300 . S
O33 C40 1.275 . S
Cd34 O33 2.300 . S
Cd34 O42 2.381 . S
Cd34 O43 2.378 . S
O35 Cd36 2.385 . S
O35 C40 1.255 . S
Cd36 O35 2.385 . S
Cd36 O37 2.317 . S
O37 Cd36 2.317 . S
O37 C38 1.232 . S
C38 O37 1.232 . S
C38 O39 1.218 . S
O39 C38 1.218 . S
C40 O33 1.275 . S
C40 O35 1.255 . S
C41 O42 1.258 . S
C41 O43 1.256 . S
O42 Cd34 2.381 . S
O42 C41 1.258 . S
O43 Cd34 2.378 . S
O43 C41 1.256 . S
O44 Cd45 2.300 . S
O44 C51 1.275 . S
Cd45 O44 2.300 . S
Cd45 O53 2.381 . S
Cd45 O54 2.378 . S
O46 Cd47 2.385 . S
O46 C51 1.255 . S
Cd47 O46 2.385 . S
Cd47 O48 2.317 . S
O48 Cd47 2.317 . S
O48 C49 1.232 . S
C49 O48 1.232 . S
C49 O50 1.218 . S
O50 C49 1.218 . S
C51 O44 1.275 . S
C51 O46 1.255 . S
C52 O53 1.258 . S
C52 O54 1.256 . S
O53 Cd45 2.381 . S
O53 C52 1.258 . S
O54 Cd45 2.378 . S
O54 C52 1.256 . S
O55 Cd56 2.300 . S
O55 C62 1.275 . S
Cd56 O55 2.300 . S
Cd56 O64 2.381 . S
Cd56 O65 2.378 . S
O57 Cd58 2.385 . S
O57 C62 1.255 . S
Cd58 O57 2.385 . S
Cd58 O59 2.317 . S
O59 Cd58 2.317 . S
O59 C60 1.232 . S
C60 O59 1.232 . S
C60 O61 1.218 . S
O61 C60 1.218 . S
C62 O55 1.275 . S
C62 O57 1.255 . S
C63 O64 1.258 . S
C63 O65 1.256 . S
O64 Cd56 2.381 . S
O64 C63 1.258 . S
O65 Cd56 2.378 . S
O65 C63 1.256 . S
O66 Cd67 2.300 . S
O66 C73 1.275 . S
Cd67 O66 2.300 . S
Cd67 O75 2.381 . S
Cd67 O76 2.378 . S
O68 Cd69 2.385 . S
O68 C73 1.255 . S
Cd69 O68 2.385 . S
Cd69 O70 2.317 . S
O70 Cd69 2.317 . S
O70 C71 1.232 . S
C71 O70 1.232 . S
C71 O72 1.218 . S
O72 C71 1.218 . S
C73 O66 1.275 . S
C73 O68 1.255 . S
C74 O75 1.258 . S
C74 O76 1.256 . S
O75 Cd67 2.381 . S
O75 C74 1.258 . S
O76 Cd67 2.378 . S
O76 C74 1.256 . S
O77 Cd78 2.300 . S
O77 C84 1.275 . S
Cd78 O77 2.300 . S
Cd78 O86 2.381 . S
Cd78 O87 2.378 . S
O79 Cd80 2.385 . S
O79 C84 1.255 . S
Cd80 O79 2.385 . S
Cd80 O81 2.317 . S
O81 Cd80 2.317 . S
O81 C82 1.232 . S
C82 O81 1.232 . S
C82 O83 1.218 . S
O83 C82 1.218 . S
C84 O77 1.275 . S
C84 O79 1.255 . S
C85 O86 1.258 . S
C85 O87 1.256 . S
O86 Cd78 2.381 . S
O86 C85 1.258 . S
O87 Cd78 2.378 . S
O87 C85 1.256 . S
C88 C89 1.443 . S
C88 N92 1.376 . S
C88 C126 1.389 . S
C89 C88 1.443 . S
C89 C90 1.340 . S
C89 H129 0.951 . S
C90 C89 1.340 . S
C90 C91 1.439 . S
C90 H130 0.950 . S
C91 C90 1.439 . S
C91 N92 1.374 . S
C91 C125 1.395 . S
N92 C88 1.376 . S
N92 C91 1.374 . S
N92 Co93 2.008 . S
Co93 N92 2.008 . S
Co93 N94 1.995 . S
Co93 N99 2.008 . S
Co93 N104 1.995 . S
Co93 N109 2.282 . S
Co93 N115 2.282 . S
N94 Co93 1.995 . S
N94 C95 1.376 . S
N94 C98 1.383 . S
C95 N94 1.376 . S
C95 C96 1.446 . S
C95 C125 1.391 . S
C96 C95 1.446 . S
C96 C97 1.339 1_455 S
C96 H131 0.949 . S
C97 C96 1.339 1_655 S
C97 C98 1.439 1_655 S
C97 H132 0.950 . S
C98 N94 1.383 . S
C98 C97 1.439 1_455 S
C98 C127 1.392 . S
N99 Co93 2.008 . S
N99 C100 1.376 . S
N99 C103 1.374 . S
C100 N99 1.376 . S
C100 C101 1.443 . S
C100 C127 1.389 . S
C101 C100 1.443 . S
C101 C102 1.340 . S
C101 H133 0.951 . S
C102 C101 1.340 . S
C102 C103 1.439 . S
C102 H134 0.950 . S
C103 N99 1.374 . S
C103 C102 1.439 . S
C103 C128 1.395 . S
N104 Co93 1.995 . S
N104 C105 1.376 . S
N104 C108 1.383 . S
C105 N104 1.376 . S
C105 C106 1.446 . S
C105 C128 1.391 . S
C106 C105 1.446 . S
C106 C107 1.339 . S
C106 H135 0.949 . S
C107 C106 1.339 . S
C107 C108 1.439 . S
C107 H136 0.950 . S
C108 N104 1.383 . S
C108 C107 1.439 . S
C108 C126 1.392 . S
N109 Co93 2.282 . S
N109 C112 1.332 . S
N109 C114 1.332 . S
C110 C111 1.386 . S
C110 C113 1.388 . S
C111 C110 1.386 . S
C111 C112 1.382 . S
C111 H137 0.950 . S
C112 N109 1.332 . S
C112 C111 1.382 . S
C112 H123 0.952 . S
C113 C110 1.388 . S
C113 C114 1.382 . S
C113 H138 0.950 . S
C114 N109 1.332 . S
C114 C113 1.382 . S
C114 H124 0.948 . S
N115 Co93 2.282 . S
N115 C119 1.332 . S
N115 C120 1.332 . S
C116 C117 1.388 1_455 S
C116 C120 1.382 . S
C116 H139 0.950 . S
C117 C116 1.388 1_655 S
C117 C118 1.386 . S
C118 C117 1.386 . S
C118 C119 1.382 1_655 S
C118 H140 0.950 . S
C119 N115 1.332 . S
C119 C118 1.382 1_455 S
C119 H121 0.952 . S
C120 N115 1.332 . S
C120 C116 1.382 . S
C120 H122 0.948 . S
H121 C119 0.952 . S
H122 C120 0.948 . S
H123 C112 0.952 . S
H124 C114 0.948 . S
C125 C91 1.395 . S
C125 C95 1.391 . S
C126 C88 1.389 . S
C126 C108 1.392 . S
C127 C98 1.392 . S
C127 C100 1.389 . S
C128 C103 1.395 . S
C128 C105 1.391 . S
H129 C89 0.951 . S
H130 C90 0.950 . S
H131 C96 0.949 . S
H132 C97 0.950 . S
H133 C101 0.951 . S
H134 C102 0.950 . S
H135 C106 0.949 . S
H136 C107 0.950 . S
H137 C111 0.950 . S
H138 C113 0.950 . S
H139 C116 0.950 . S
H140 C118 0.950 . S
C141 C142 1.443 . S
C141 N145 1.376 . S
C141 C179 1.389 . S
C142 C141 1.443 . S
C142 C143 1.340 . S
C142 H182 0.951 . S
C143 C142 1.340 . S
C143 C144 1.439 . S
C143 H183 0.950 . S
C144 C143 1.439 . S
C144 N145 1.374 . S
C144 C178 1.395 1_455 S
N145 C141 1.376 . S
N145 C144 1.374 . S
N145 Co146 2.008 . S
Co146 N145 2.008 . S
Co146 N147 1.995 1_455 S
Co146 N152 2.008 1_455 S
Co146 N157 1.995 . S
Co146 N162 2.282 . S
Co146 N168 2.282 1_455 S
N147 Co146 1.995 1_655 S
N147 C148 1.376 . S
N147 C151 1.383 . S
C148 N147 1.376 . S
C148 C149 1.446 . S
C148 C178 1.391 . S
C149 C148 1.446 . S
C149 C150 1.339 . S
C149 H184 0.949 . S
C150 C149 1.339 . S
C150 C151 1.439 . S
C150 H185 0.950 . S
C151 N147 1.383 . S
C151 C150 1.439 . S
C151 C180 1.392 . S
N152 Co146 2.008 1_655 S
N152 C153 1.376 . S
N152 C156 1.374 . S
C153 N152 1.376 . S
C153 C154 1.443 . S
C153 C180 1.389 . S
C154 C153 1.443 . S
C154 C155 1.340 . S
C154 H186 0.951 . S
C155 C154 1.340 . S
C155 C156 1.439 . S
C155 H187 0.950 . S
C156 N152 1.374 . S
C156 C155 1.439 . S
C156 C181 1.395 1_655 S
N157 Co146 1.995 . S
N157 C158 1.376 . S
N157 C161 1.383 . S
C158 N157 1.376 . S
C158 C159 1.446 . S
C158 C181 1.391 . S
C159 C158 1.446 . S
C159 C160 1.339 . S
C159 H188 0.949 . S
C160 C159 1.339 . S
C160 C161 1.439 . S
C160 H189 0.950 . S
C161 N157 1.383 . S
C161 C160 1.439 . S
C161 C179 1.392 . S
N162 Co146 2.282 . S
N162 C165 1.332 . S
N162 C167 1.332 . S
C163 C164 1.386 . S
C163 C166 1.388 . S
C164 C163 1.386 . S
C164 C165 1.382 . S
C164 H190 0.950 . S
C165 N162 1.332 . S
C165 C164 1.382 . S
C165 H176 0.952 . S
C166 C163 1.388 . S
C166 C167 1.382 . S
C166 H191 0.950 . S
C167 N162 1.332 . S
C167 C166 1.382 . S
C167 H177 0.948 . S
N168 Co146 2.282 1_655 S
N168 C172 1.332 . S
N168 C173 1.332 . S
C169 C170 1.388 . S
C169 C173 1.382 . S
C169 H192 0.950 . S
C170 C169 1.388 . S
C170 C171 1.386 . S
C171 C170 1.386 . S
C171 C172 1.382 . S
C171 H193 0.950 . S
C172 N168 1.332 . S
C172 C171 1.382 . S
C172 H174 0.952 . S
C173 N168 1.332 . S
C173 C169 1.382 . S
C173 H175 0.948 . S
H174 C172 0.952 . S
H175 C173 0.948 . S
H176 C165 0.952 . S
H177 C167 0.948 . S
C178 C144 1.395 1_655 S
C178 C148 1.391 . S
C179 C141 1.389 . S
C179 C161 1.392 . S
C180 C151 1.392 . S
C180 C153 1.389 . S
C181 C156 1.395 1_455 S
C181 C158 1.391 . S
H182 C142 0.951 . S
H183 C143 0.950 . S
H184 C149 0.949 . S
H185 C150 0.950 . S
H186 C154 0.951 . S
H187 C155 0.950 . S
H188 C159 0.949 . S
H189 C160 0.950 . S
H190 C164 0.950 . S
H191 C166 0.950 . S
H192 C169 0.950 . S
H193 C171 0.950 . S
C194 C195 1.443 . S
C194 N198 1.376 . S
C194 C232 1.389 . S
C195 C194 1.443 . S
C195 C196 1.340 . S
C195 H235 0.951 . S
C196 C195 1.340 . S
C196 C197 1.439 . S
C196 H236 0.950 . S
C197 C196 1.439 . S
C197 N198 1.374 . S
C197 C231 1.395 . S
N198 C194 1.376 . S
N198 C197 1.374 . S
N198 Co199 2.008 . S
Co199 N198 2.008 . S
Co199 N200 1.995 . S
Co199 N205 2.008 . S
Co199 N210 1.995 . S
Co199 N215 2.282 . S
Co199 N221 2.282 . S
N200 Co199 1.995 . S
N200 C201 1.376 . S
N200 C204 1.383 . S
C201 N200 1.376 . S
C201 C202 1.446 . S
C201 C231 1.391 . S
C202 C201 1.446 . S
C202 C203 1.339 . S
C202 H237 0.949 . S
C203 C202 1.339 . S
C203 C204 1.439 . S
C203 H238 0.950 . S
C204 N200 1.383 . S
C204 C203 1.439 . S
C204 C233 1.392 . S
N205 Co199 2.008 . S
N205 C206 1.376 . S
N205 C209 1.374 . S
C206 N205 1.376 . S
C206 C207 1.443 . S
C206 C233 1.389 . S
C207 C206 1.443 . S
C207 C208 1.340 . S
C207 H239 0.951 . S
C208 C207 1.340 . S
C208 C209 1.439 . S
C208 H240 0.950 . S
C209 N205 1.374 . S
C209 C208 1.439 . S
C209 C234 1.395 . S
N210 Co199 1.995 . S
N210 C211 1.376 . S
N210 C214 1.383 . S
C211 N210 1.376 . S
C211 C212 1.446 . S
C211 C234 1.391 . S
C212 C211 1.446 . S
C212 C213 1.339 . S
C212 H241 0.949 . S
C213 C212 1.339 . S
C213 C214 1.439 . S
C213 H242 0.950 . S
C214 N210 1.383 . S
C214 C213 1.439 . S
C214 C232 1.392 . S
N215 Co199 2.282 . S
N215 C218 1.332 . S
N215 C220 1.332 . S
C216 C217 1.386 . S
C216 C219 1.388 . S
C217 C216 1.386 . S
C217 C218 1.382 . S
C217 H243 0.950 . S
C218 N215 1.332 . S
C218 C217 1.382 . S
C218 H229 0.952 . S
C219 C216 1.388 . S
C219 C220 1.382 . S
C219 H244 0.950 . S
C220 N215 1.332 . S
C220 C219 1.382 . S
C220 H230 0.948 . S
N221 Co199 2.282 . S
N221 C225 1.332 . S
N221 C226 1.332 . S
C222 C223 1.388 . S
C222 C226 1.382 . S
C222 H245 0.950 . S
C223 C222 1.388 . S
C223 C224 1.386 . S
C224 C223 1.386 . S
C224 C225 1.382 . S
C224 H246 0.950 . S
C225 N221 1.332 . S
C225 C224 1.382 . S
C225 H227 0.952 . S
C226 N221 1.332 . S
C226 C222 1.382 . S
C226 H228 0.948 . S
H227 C225 0.952 . S
H228 C226 0.948 . S
H229 C218 0.952 . S
H230 C220 0.948 . S
C231 C197 1.395 . S
C231 C201 1.391 . S
C232 C194 1.389 . S
C232 C214 1.392 . S
C233 C204 1.392 . S
C233 C206 1.389 . S
C234 C209 1.395 . S
C234 C211 1.391 . S
H235 C195 0.951 . S
H236 C196 0.950 . S
H237 C202 0.949 . S
H238 C203 0.950 . S
H239 C207 0.951 . S
H240 C208 0.950 . S
H241 C212 0.949 . S
H242 C213 0.950 . S
H243 C217 0.950 . S
H244 C219 0.950 . S
H245 C222 0.950 . S
H246 C224 0.950 . S
C247 C248 1.443 . S
C247 N251 1.376 . S
C247 C285 1.389 . S
C248 C247 1.443 . S
C248 C249 1.340 . S
C248 H288 0.951 . S
C249 C248 1.340 . S
C249 C250 1.439 . S
C249 H289 0.950 . S
C250 C249 1.439 . S
C250 N251 1.374 . S
C250 C284 1.395 . S
N251 C247 1.376 . S
N251 C250 1.374 . S
N251 Co252 2.008 . S
Co252 N251 2.008 . S
Co252 N253 1.995 1_554 S
Co252 N258 2.008 1_554 S
Co252 N263 1.995 . S
Co252 N268 2.282 1_554 S
Co252 N274 2.282 . S
N253 Co252 1.995 1_556 S
N253 C254 1.376 1_556 S
N253 C257 1.383 . S
C254 N253 1.376 1_554 S
C254 C255 1.446 1_554 S
C254 C284 1.391 . S
C255 C254 1.446 1_556 S
C255 C256 1.339 . S
C255 H290 0.949 . S
C256 C255 1.339 . S
C256 C257 1.439 . S
C256 H291 0.950 . S
C257 N253 1.383 . S
C257 C256 1.439 . S
C257 C286 1.392 . S
N258 Co252 2.008 1_556 S
N258 C259 1.376 . S
N258 C262 1.374 . S
C259 N258 1.376 . S
C259 C260 1.443 . S
C259 C286 1.389 . S
C260 C259 1.443 . S
C260 C261 1.340 . S
C260 H292 0.951 . S
C261 C260 1.340 . S
C261 C262 1.439 . S
C261 H293 0.950 . S
C262 N258 1.374 . S
C262 C261 1.439 . S
C262 C287 1.395 1_556 S
N263 Co252 1.995 . S
N263 C264 1.376 . S
N263 C267 1.383 . S
C264 N263 1.376 . S
C264 C265 1.446 . S
C264 C287 1.391 . S
C265 C264 1.446 . S
C265 C266 1.339 . S
C265 H294 0.949 . S
C266 C265 1.339 . S
C266 C267 1.439 . S
C266 H295 0.950 . S
C267 N263 1.383 . S
C267 C266 1.439 . S
C267 C285 1.392 . S
N268 Co252 2.282 1_556 S
N268 C271 1.332 . S
N268 C273 1.332 . S
C269 C270 1.386 . S
C269 C272 1.388 . S
C270 C269 1.386 . S
C270 C271 1.382 . S
C270 H296 0.950 . S
C271 N268 1.332 . S
C271 C270 1.382 . S
C271 H282 0.952 . S
C272 C269 1.388 . S
C272 C273 1.382 . S
C272 H297 0.950 . S
C273 N268 1.332 . S
C273 C272 1.382 . S
C273 H283 0.948 . S
N274 Co252 2.282 . S
N274 C278 1.332 . S
N274 C279 1.332 . S
C275 C276 1.388 . S
C275 C279 1.382 . S
C275 H298 0.950 . S
C276 C275 1.388 . S
C276 C277 1.386 . S
C277 C276 1.386 . S
C277 C278 1.382 . S
C277 H299 0.950 . S
C278 N274 1.332 . S
C278 C277 1.382 . S
C278 H280 0.952 . S
C279 N274 1.332 . S
C279 C275 1.382 . S
C279 H281 0.948 . S
H280 C278 0.952 . S
H281 C279 0.948 . S
H282 C271 0.952 . S
H283 C273 0.948 . S
C284 C250 1.395 . S
C284 C254 1.391 . S
C285 C247 1.389 . S
C285 C267 1.392 . S
C286 C257 1.392 . S
C286 C259 1.389 . S
C287 C262 1.395 1_554 S
C287 C264 1.391 . S
H288 C248 0.951 . S
H289 C249 0.950 . S
H290 C255 0.949 . S
H291 C256 0.950 . S
H292 C260 0.951 . S
H293 C261 0.950 . S
H294 C265 0.949 . S
H295 C266 0.950 . S
H296 C270 0.950 . S
H297 C272 0.950 . S
H298 C275 0.950 . S
H299 C277 0.950 . S
C300 C301 1.443 . S
C300 N304 1.376 1_565 S
C300 C338 1.389 . S
C301 C300 1.443 . S
C301 C302 1.340 . S
C301 H341 0.951 . S
C302 C301 1.340 . S
C302 C303 1.439 1_565 S
C302 H342 0.950 . S
C303 C302 1.439 1_545 S
C303 N304 1.374 . S
C303 C337 1.395 . S
N304 C300 1.376 1_545 S
N304 C303 1.374 . S
N304 Co305 2.008 . S
Co305 N304 2.008 . S
Co305 N306 1.995 . S
Co305 N311 2.008 . S
Co305 N316 1.995 1_545 S
Co305 N321 2.282 . S
Co305 N327 2.282 1_545 S
N306 Co305 1.995 . S
N306 C307 1.376 . S
N306 C310 1.383 . S
C307 N306 1.376 . S
C307 C308 1.446 . S
C307 C337 1.391 . S
C308 C307 1.446 . S
C308 C309 1.339 . S
C308 H343 0.949 . S
C309 C308 1.339 . S
C309 C310 1.439 . S
C309 H344 0.950 . S
C310 N306 1.383 . S
C310 C309 1.439 . S
C310 C339 1.392 . S
N311 Co305 2.008 . S
N311 C312 1.376 . S
N311 C315 1.374 . S
C312 N311 1.376 . S
C312 C313 1.443 . S
C312 C339 1.389 . S
C313 C312 1.443 . S
C313 C314 1.340 . S
C313 H345 0.951 . S
C314 C313 1.340 . S
C314 C315 1.439 . S
C314 H346 0.950 . S
C315 N311 1.374 . S
C315 C314 1.439 . S
C315 C340 1.434 . S
N316 Co305 1.995 1_565 S
N316 C317 1.376 . S
N316 C320 1.383 . S
C317 N316 1.376 . S
C317 C318 1.446 . S
C317 C340 1.350 1_565 S
C318 C317 1.446 . S
C318 C319 1.339 . S
C318 H347 0.949 . S
C319 C318 1.339 . S
C319 C320 1.439 . S
C319 H348 0.950 . S
C320 N316 1.383 . S
C320 C319 1.439 . S
C320 C338 1.392 . S
N321 Co305 2.282 . S
N321 C324 1.332 . S
N321 C326 1.332 . S
C322 C323 1.386 . S
C322 C325 1.388 . S
C323 C322 1.386 . S
C323 C324 1.382 . S
C323 H349 0.950 . S
C324 N321 1.332 . S
C324 C323 1.382 . S
C324 H335 0.952 . S
C325 C322 1.388 . S
C325 C326 1.382 . S
C325 H350 0.950 . S
C326 N321 1.332 . S
C326 C325 1.382 . S
C326 H336 0.948 . S
N327 Co305 2.282 1_565 S
N327 C331 1.332 . S
N327 C332 1.332 . S
C328 C329 1.388 . S
C328 C332 1.382 . S
C328 H351 0.950 . S
C329 C328 1.388 . S
C329 C330 1.386 . S
C330 C329 1.386 . S
C330 C331 1.382 . S
C330 H352 0.950 . S
C331 N327 1.332 . S
C331 C330 1.382 . S
C331 H333 0.952 . S
C332 N327 1.332 . S
C332 C328 1.382 . S
C332 H334 0.948 . S
H333 C331 0.952 . S
H334 C332 0.948 . S
H335 C324 0.952 . S
H336 C326 0.948 . S
C337 C303 1.395 . S
C337 C307 1.391 . S
C338 C300 1.389 . S
C338 C320 1.392 . S
C339 C310 1.392 . S
C339 C312 1.389 . S
C340 C315 1.434 . S
C340 C317 1.350 1_545 S
H341 C301 0.951 . S
H342 C302 0.950 . S
H343 C308 0.949 . S
H344 C309 0.950 . S
H345 C313 0.951 . S
H346 C314 0.950 . S
H347 C318 0.949 . S
H348 C319 0.950 . S
H349 C323 0.950 . S
H350 C325 0.950 . S
H351 C328 0.950 . S
H352 C330 0.950 . S
C353 C354 1.443 . S
C353 N357 1.376 . S
C353 C391 1.389 . S
C354 C353 1.443 . S
C354 C355 1.340 . S
C354 H394 0.951 . S
C355 C354 1.340 . S
C355 C356 1.439 . S
C355 H395 0.950 . S
C356 C355 1.439 . S
C356 N357 1.374 . S
C356 C390 1.395 . S
N357 C353 1.376 . S
N357 C356 1.374 . S
N357 Co358 2.008 . S
Co358 N357 2.008 . S
Co358 N359 1.995 . S
Co358 N364 2.008 . S
Co358 N369 1.995 . S
Co358 N374 2.282 1_554 S
Co358 N380 2.282 . S
N359 Co358 1.995 . S
N359 C360 1.376 . S
N359 C363 1.383 1_554 S
C360 N359 1.376 . S
C360 C361 1.446 1_554 S
C360 C390 1.391 . S
C361 C360 1.446 1_556 S
C361 C362 1.339 . S
C361 H396 0.949 . S
C362 C361 1.339 . S
C362 C363 1.439 . S
C362 H397 0.950 . S
C363 N359 1.383 1_556 S
C363 C362 1.439 . S
C363 C392 1.392 . S
N364 Co358 2.008 . S
N364 C365 1.376 1_554 S
N364 C368 1.374 . S
C365 N364 1.376 1_556 S
C365 C366 1.443 . S
C365 C392 1.389 . S
C366 C365 1.443 . S
C366 C367 1.340 . S
C366 H398 0.951 . S
C367 C366 1.340 . S
C367 C368 1.439 1_556 S
C367 H399 0.950 . S
C368 N364 1.374 . S
C368 C367 1.439 1_554 S
C368 C393 1.395 . S
N369 Co358 1.995 . S
N369 C370 1.376 . S
N369 C373 1.383 . S
C370 N369 1.376 . S
C370 C371 1.446 . S
C370 C393 1.391 . S
C371 C370 1.446 . S
C371 C372 1.339 . S
C371 H400 0.949 . S
C372 C371 1.339 . S
C372 C373 1.439 . S
C372 H401 0.950 . S
C373 N369 1.383 . S
C373 C372 1.439 . S
C373 C391 1.392 . S
N374 Co358 2.282 1_556 S
N374 C377 1.332 . S
N374 C379 1.332 . S
C375 C376 1.386 . S
C375 C378 1.388 . S
C376 C375 1.386 . S
C376 C377 1.382 . S
C376 H402 0.950 . S
C377 N374 1.332 . S
C377 C376 1.382 . S
C377 H388 0.952 1_556 S
C378 C375 1.388 . S
C378 C379 1.382 . S
C378 H403 0.950 . S
C379 N374 1.332 . S
C379 C378 1.382 . S
C379 H389 0.948 . S
N380 Co358 2.282 . S
N380 C384 1.332 . S
N380 C385 1.332 . S
C381 C382 1.388 . S
C381 C385 1.382 . S
C381 H404 0.950 . S
C382 C381 1.388 . S
C382 C383 1.386 . S
C383 C382 1.386 . S
C383 C384 1.382 . S
C383 H405 0.950 . S
C384 N380 1.332 . S
C384 C383 1.382 . S
C384 H386 0.952 . S
C385 N380 1.332 . S
C385 C381 1.382 . S
C385 H387 0.948 . S
H386 C384 0.952 . S
H387 C385 0.948 . S
H388 C377 0.952 1_554 S
H389 C379 0.948 . S
C390 C356 1.395 . S
C390 C360 1.391 . S
C391 C353 1.389 . S
C391 C373 1.392 . S
C392 C363 1.392 . S
C392 C365 1.389 . S
C393 C368 1.395 . S
C393 C370 1.391 . S
H394 C354 0.951 . S
H395 C355 0.950 . S
H396 C361 0.949 . S
H397 C362 0.950 . S
H398 C366 0.951 . S
H399 C367 0.950 . S
H400 C371 0.949 . S
H401 C372 0.950 . S
H402 C376 0.950 . S
H403 C378 0.950 . S
H404 C381 0.950 . S
H405 C383 0.950 . S
H406 C424 0.951 . S
H407 C426 0.951 . S
H408 C428 0.950 . S
H409 C429 0.950 . S
H410 C431 0.950 . S
H411 C434 0.950 . S
H412 C435 0.950 . S
H413 C437 0.950 . S
H414 C438 0.950 . S
H415 C439 0.951 . S
H416 C441 0.951 . S
H417 C443 0.950 . S
H418 C444 0.950 . S
H419 C446 0.950 . S
H420 C449 0.950 . S
H421 C450 0.950 . S
H422 C452 0.950 . S
H423 C453 0.950 . S
C424 H406 0.951 . S
C424 C425 1.366 . S
C424 C426 1.388 . S
C425 C424 1.366 . S
C425 C429 1.385 . S
C426 H407 0.951 . S
C426 C424 1.388 . S
C426 C427 1.366 . S
C427 C426 1.366 . S
C427 C428 1.414 . S
C427 C430 1.499 . S
C428 H408 0.950 . S
C428 C427 1.414 . S
C428 C429 1.374 . S
C429 H409 0.950 . S
C429 C425 1.385 . S
C429 C428 1.374 . S
C430 C427 1.499 . S
C430 C431 1.373 . S
C430 C432 1.389 . S
C431 H410 0.950 . S
C431 C430 1.373 . S
C431 C447 1.377 . S
C432 C430 1.389 . S
C432 C433 1.524 . S
C432 C446 1.377 . S
C433 C432 1.524 . S
C433 C434 1.397 . S
C433 C438 1.363 . S
C434 H411 0.950 . S
C434 C433 1.397 . S
C434 C435 1.334 . S
C435 H412 0.950 . S
C435 C434 1.334 . S
C435 C436 1.287 . S
C436 C435 1.287 . S
C436 C437 1.524 . S
C436 H455 0.913 . S
C437 H413 0.950 . S
C437 C436 1.524 . S
C437 C438 1.415 . S
C438 H414 0.950 . S
C438 C433 1.363 . S
C438 C437 1.415 . S
C439 H415 0.951 . S
C439 C440 1.366 . S
C439 C441 1.388 . S
C440 C439 1.366 . S
C440 C444 1.385 . S
C441 H416 0.951 . S
C441 C439 1.388 . S
C441 C442 1.366 . S
C442 C441 1.366 . S
C442 C443 1.414 . S
C442 C445 1.499 . S
C443 H417 0.950 . S
C443 C442 1.414 . S
C443 C444 1.374 . S
C444 H418 0.950 . S
C444 C440 1.385 . S
C444 C443 1.374 . S
C445 C442 1.499 . S
C445 C446 1.373 . S
C445 C447 1.389 . S
C446 H419 0.950 . S
C446 C432 1.377 . S
C446 C445 1.373 . S
C447 C431 1.377 . S
C447 C445 1.389 . S
C447 C448 1.524 . S
C448 C447 1.524 . S
C448 C449 1.397 . S
C448 C453 1.363 . S
C449 H420 0.950 . S
C449 C448 1.397 . S
C449 C450 1.334 . S
C450 H421 0.950 . S
C450 C449 1.334 . S
C450 C451 1.287 . S
C451 C450 1.287 . S
C451 C452 1.524 . S
C451 H454 0.999 . S
C452 H422 0.950 . S
C452 C451 1.524 . S
C452 C453 1.415 . S
C453 H423 0.950 . S
C453 C448 1.363 . S
C453 C452 1.415 . S
H454 C451 0.999 . S
H455 C436 0.913 . S
H456 C474 0.951 . S
H457 C476 0.951 . S
H458 C478 0.950 . S
H459 C479 0.950 . S
H460 C481 0.950 . S
H461 C484 0.950 . S
H462 C485 0.950 . S
H463 C487 0.950 . S
H464 C488 0.950 . S
H465 C489 0.951 . S
H466 C491 0.951 . S
H467 C493 0.950 . S
H468 C494 0.950 . S
H469 C496 0.950 . S
H470 C499 0.950 . S
H471 C500 0.950 . S
H472 C502 0.950 . S
H473 C503 0.950 . S
C474 H456 0.951 . S
C474 C475 1.366 . S
C474 C476 1.388 . S
C475 C474 1.366 . S
C475 C479 1.385 . S
C476 H457 0.951 . S
C476 C474 1.388 . S
C476 C477 1.366 . S
C477 C476 1.366 . S
C477 C478 1.414 . S
C477 C480 1.499 . S
C478 H458 0.950 . S
C478 C477 1.414 . S
C478 C479 1.374 . S
C479 H459 0.950 . S
C479 C475 1.385 . S
C479 C478 1.374 . S
C480 C477 1.499 . S
C480 C481 1.373 . S
C480 C482 1.389 . S
C481 H460 0.950 . S
C481 C480 1.373 . S
C481 C497 1.377 . S
C482 C480 1.389 . S
C482 C483 1.524 . S
C482 C496 1.377 . S
C483 C482 1.524 . S
C483 C484 1.397 . S
C483 C488 1.363 . S
C484 H461 0.950 . S
C484 C483 1.397 . S
C484 C485 1.334 . S
C485 H462 0.950 . S
C485 C484 1.334 . S
C485 C486 1.287 . S
C486 C485 1.287 . S
C486 C487 1.524 . S
C486 H505 0.913 . S
C487 H463 0.950 . S
C487 C486 1.524 . S
C487 C488 1.415 . S
C488 H464 0.950 . S
C488 C483 1.363 . S
C488 C487 1.415 . S
C489 H465 0.951 . S
C489 C490 1.366 . S
C489 C491 1.388 . S
C490 C489 1.366 . S
C490 C494 1.385 . S
C491 H466 0.951 . S
C491 C489 1.388 . S
C491 C492 1.366 . S
C492 C491 1.366 . S
C492 C493 1.414 . S
C492 C495 1.499 . S
C493 H467 0.950 . S
C493 C492 1.414 . S
C493 C494 1.374 . S
C494 H468 0.950 . S
C494 C490 1.385 . S
C494 C493 1.374 . S
C495 C492 1.499 . S
C495 C496 1.373 . S
C495 C497 1.389 . S
C496 H469 0.950 . S
C496 C482 1.377 . S
C496 C495 1.373 . S
C497 C481 1.377 . S
C497 C495 1.389 . S
C497 C498 1.524 . S
C498 C497 1.524 . S
C498 C499 1.397 . S
C498 C503 1.363 . S
C499 H470 0.950 . S
C499 C498 1.397 . S
C499 C500 1.334 . S
C500 H471 0.950 . S
C500 C499 1.334 . S
C500 C501 1.287 . S
C501 C500 1.287 . S
C501 C502 1.524 . S
C501 H504 0.999 . S
C502 H472 0.950 . S
C502 C501 1.524 . S
C502 C503 1.415 . S
C503 H473 0.950 . S
C503 C498 1.363 . S
C503 C502 1.415 . S
H504 C501 0.999 . S
H505 C486 0.913 . S
H506 C524 0.951 . S
H507 C526 0.951 . S
H508 C528 0.950 . S
H509 C529 0.950 . S
H510 C531 0.950 . S
H511 C534 0.950 . S
H512 C535 0.950 . S
H513 C537 0.950 . S
H514 C538 0.950 . S
H515 C539 0.951 . S
H516 C541 0.951 . S
H517 C543 0.950 . S
H518 C544 0.950 . S
H519 C546 0.950 . S
H520 C549 0.950 . S
H521 C550 0.950 . S
H522 C552 0.950 . S
H523 C553 0.950 . S
C524 H506 0.951 . S
C524 C525 1.366 . S
C524 C526 1.388 . S
C525 C524 1.366 . S
C525 C529 1.385 . S
C526 H507 0.951 . S
C526 C524 1.388 . S
C526 C527 1.366 . S
C527 C526 1.366 . S
C527 C528 1.414 . S
C527 C530 1.499 . S
C528 H508 0.950 . S
C528 C527 1.414 . S
C528 C529 1.374 . S
C529 H509 0.950 . S
C529 C525 1.385 . S
C529 C528 1.374 . S
C530 C527 1.499 . S
C530 C531 1.373 . S
C530 C532 1.389 . S
C531 H510 0.950 . S
C531 C530 1.373 . S
C531 C547 1.377 . S
C532 C530 1.389 . S
C532 C533 1.524 . S
C532 C546 1.377 . S
C533 C532 1.524 . S
C533 C534 1.397 . S
C533 C538 1.363 . S
C534 H511 0.950 . S
C534 C533 1.397 . S
C534 C535 1.334 . S
C535 H512 0.950 . S
C535 C534 1.334 . S
C535 C536 1.287 . S
C536 C535 1.287 . S
C536 C537 1.524 . S
C536 H555 0.913 . S
C537 H513 0.950 . S
C537 C536 1.524 . S
C537 C538 1.415 . S
C538 H514 0.950 . S
C538 C533 1.363 . S
C538 C537 1.415 . S
C539 H515 0.951 . S
C539 C540 1.366 . S
C539 C541 1.388 . S
C540 C539 1.366 . S
C540 C544 1.385 . S
C541 H516 0.951 . S
C541 C539 1.388 . S
C541 C542 1.366 . S
C542 C541 1.366 . S
C542 C543 1.414 . S
C542 C545 1.499 . S
C543 H517 0.950 . S
C543 C542 1.414 . S
C543 C544 1.374 . S
C544 H518 0.950 . S
C544 C540 1.385 . S
C544 C543 1.374 . S
C545 C542 1.499 . S
C545 C546 1.373 . S
C545 C547 1.389 . S
C546 H519 0.950 . S
C546 C532 1.377 . S
C546 C545 1.373 . S
C547 C531 1.377 . S
C547 C545 1.389 . S
C547 C548 1.524 . S
C548 C547 1.524 . S
C548 C549 1.397 . S
C548 C553 1.363 . S
C549 H520 0.950 . S
C549 C548 1.397 . S
C549 C550 1.334 . S
C550 H521 0.950 . S
C550 C549 1.334 . S
C550 C551 1.287 . S
C551 C550 1.287 . S
C551 C552 1.524 . S
C551 H554 0.999 . S
C552 H522 0.950 . S
C552 C551 1.524 . S
C552 C553 1.415 . S
C553 H523 0.950 . S
C553 C548 1.363 . S
C553 C552 1.415 . S
H554 C551 0.999 . S
H555 C536 0.913 . S
H556 C574 0.951 . S
H557 C576 0.951 . S
H558 C578 0.950 . S
H559 C579 0.950 . S
H560 C581 0.950 . S
H561 C584 0.950 . S
H562 C585 0.950 . S
H563 C587 0.950 . S
H564 C588 0.950 . S
H565 C589 0.951 . S
H566 C591 0.951 . S
H567 C593 0.950 . S
H568 C594 0.950 . S
H569 C596 0.950 . S
H570 C599 0.950 . S
H571 C600 0.950 . S
H572 C602 0.950 . S
H573 C603 0.950 . S
C574 H556 0.951 . S
C574 C575 1.366 . S
C574 C576 1.388 . S
C575 C574 1.366 . S
C575 C579 1.385 . S
C576 H557 0.951 . S
C576 C574 1.388 . S
C576 C577 1.366 . S
C577 C576 1.366 . S
C577 C578 1.414 . S
C577 C580 1.499 . S
C578 H558 0.950 . S
C578 C577 1.414 . S
C578 C579 1.374 . S
C579 H559 0.950 . S
C579 C575 1.385 . S
C579 C578 1.374 . S
C580 C577 1.499 . S
C580 C581 1.373 . S
C580 C582 1.389 . S
C581 H560 0.950 . S
C581 C580 1.373 . S
C581 C597 1.377 . S
C582 C580 1.389 . S
C582 C583 1.524 . S
C582 C596 1.377 . S
C583 C582 1.524 . S
C583 C584 1.397 . S
C583 C588 1.363 . S
C584 H561 0.950 . S
C584 C583 1.397 . S
C584 C585 1.334 . S
C585 H562 0.950 . S
C585 C584 1.334 . S
C585 C586 1.287 . S
C586 C585 1.287 . S
C586 C587 1.524 . S
C586 H605 0.913 . S
C587 H563 0.950 . S
C587 C586 1.524 . S
C587 C588 1.415 . S
C588 H564 0.950 . S
C588 C583 1.363 . S
C588 C587 1.415 . S
C589 H565 0.951 . S
C589 C590 1.366 . S
C589 C591 1.388 . S
C590 C589 1.366 . S
C590 C594 1.385 . S
C591 H566 0.951 . S
C591 C589 1.388 . S
C591 C592 1.366 . S
C592 C591 1.366 . S
C592 C593 1.414 . S
C592 C595 1.499 . S
C593 H567 0.950 . S
C593 C592 1.414 . S
C593 C594 1.374 . S
C594 H568 0.950 . S
C594 C590 1.385 . S
C594 C593 1.374 . S
C595 C592 1.499 . S
C595 C596 1.373 . S
C595 C597 1.389 . S
C596 H569 0.950 . S
C596 C582 1.377 . S
C596 C595 1.373 . S
C597 C581 1.377 . S
C597 C595 1.389 . S
C597 C598 1.524 . S
C598 C597 1.524 . S
C598 C599 1.397 . S
C598 C603 1.363 . S
C599 H570 0.950 . S
C599 C598 1.397 . S
C599 C600 1.334 . S
C600 H571 0.950 . S
C600 C599 1.334 . S
C600 C601 1.287 . S
C601 C600 1.287 . S
C601 C602 1.524 . S
C601 H604 0.999 . S
C602 H572 0.950 . S
C602 C601 1.524 . S
C602 C603 1.415 . S
C603 H573 0.950 . S
C603 C598 1.363 . S
C603 C602 1.415 . S
H604 C601 0.999 . S
H605 C586 0.913 . S
H606 C624 0.951 . S
H607 C626 0.951 . S
H608 C628 0.950 . S
H609 C629 0.950 . S
H610 C631 0.950 . S
H611 C634 0.950 . S
H612 C635 0.950 . S
H613 C637 0.950 . S
H614 C638 0.950 . S
H615 C639 0.951 . S
H616 C641 0.951 . S
H617 C643 0.950 . S
H618 C644 0.950 . S
H619 C646 0.950 . S
H620 C649 0.950 . S
H621 C650 0.950 . S
H622 C652 0.950 . S
H623 C653 0.950 . S
C624 H606 0.951 . S
C624 C625 1.366 . S
C624 C626 1.388 . S
C625 C624 1.366 . S
C625 C629 1.385 . S
C626 H607 0.951 . S
C626 C624 1.388 . S
C626 C627 1.366 . S
C627 C626 1.366 . S
C627 C628 1.414 . S
C627 C630 1.499 . S
C628 H608 0.950 . S
C628 C627 1.414 . S
C628 C629 1.374 . S
C629 H609 0.950 . S
C629 C625 1.385 . S
C629 C628 1.374 . S
C630 C627 1.499 . S
C630 C631 1.373 . S
C630 C632 1.389 . S
C631 H610 0.950 . S
C631 C630 1.373 . S
C631 C647 1.377 . S
C632 C630 1.389 . S
C632 C633 1.524 . S
C632 C646 1.377 . S
C633 C632 1.524 . S
C633 C634 1.397 . S
C633 C638 1.363 . S
C634 H611 0.950 . S
C634 C633 1.397 . S
C634 C635 1.334 . S
C635 H612 0.950 . S
C635 C634 1.334 . S
C635 C636 1.287 . S
C636 C635 1.287 . S
C636 C637 1.524 . S
C636 H655 0.913 . S
C637 H613 0.950 . S
C637 C636 1.524 . S
C637 C638 1.415 . S
C638 H614 0.950 . S
C638 C633 1.363 . S
C638 C637 1.415 . S
C639 H615 0.951 . S
C639 C640 1.366 . S
C639 C641 1.388 . S
C640 C639 1.366 . S
C640 C644 1.385 . S
C641 H616 0.951 . S
C641 C639 1.388 . S
C641 C642 1.366 . S
C642 C641 1.366 . S
C642 C643 1.414 . S
C642 C645 1.499 . S
C643 H617 0.950 . S
C643 C642 1.414 . S
C643 C644 1.374 . S
C644 H618 0.950 . S
C644 C640 1.385 . S
C644 C643 1.374 . S
C645 C642 1.499 . S
C645 C646 1.373 . S
C645 C647 1.389 . S
C646 H619 0.950 . S
C646 C632 1.377 . S
C646 C645 1.373 . S
C647 C631 1.377 . S
C647 C645 1.389 . S
C647 C648 1.524 . S
C648 C647 1.524 . S
C648 C649 1.397 . S
C648 C653 1.363 . S
C649 H620 0.950 . S
C649 C648 1.397 . S
C649 C650 1.334 . S
C650 H621 0.950 . S
C650 C649 1.334 . S
C650 C651 1.287 . S
C651 C650 1.287 . S
C651 C652 1.524 . S
C651 H654 0.999 . S
C652 H622 0.950 . S
C652 C651 1.524 . S
C652 C653 1.415 . S
C653 H623 0.950 . S
C653 C648 1.363 . S
C653 C652 1.415 . S
H654 C651 0.999 . S
H655 C636 0.913 . S
H656 C674 0.951 . S
H657 C676 0.951 . S
H658 C678 0.950 . S
H659 C679 0.950 . S
H660 C681 0.950 . S
H661 C684 0.950 . S
H662 C685 0.950 . S
H663 C687 0.950 . S
H664 C688 0.950 . S
H665 C689 0.951 . S
H666 C691 0.951 . S
H667 C693 0.950 . S
H668 C694 0.950 . S
H669 C696 0.950 . S
H670 C699 0.950 . S
H671 C700 0.950 . S
H672 C702 0.950 . S
H673 C703 0.950 . S
C674 H656 0.951 . S
C674 C675 1.366 . S
C674 C676 1.388 . S
C675 C674 1.366 . S
C675 C679 1.385 . S
C676 H657 0.951 . S
C676 C674 1.388 . S
C676 C677 1.366 . S
C677 C676 1.366 . S
C677 C678 1.414 . S
C677 C680 1.499 . S
C678 H658 0.950 . S
C678 C677 1.414 . S
C678 C679 1.374 . S
C679 H659 0.950 . S
C679 C675 1.385 . S
C679 C678 1.374 . S
C680 C677 1.499 . S
C680 C681 1.373 . S
C680 C682 1.389 . S
C681 H660 0.950 . S
C681 C680 1.373 . S
C681 C697 1.377 . S
C682 C680 1.389 . S
C682 C683 1.524 . S
C682 C696 1.377 . S
C683 C682 1.524 . S
C683 C684 1.397 . S
C683 C688 1.363 . S
C684 H661 0.950 . S
C684 C683 1.397 . S
C684 C685 1.334 . S
C685 H662 0.950 . S
C685 C684 1.334 . S
C685 C686 1.287 . S
C686 C685 1.287 . S
C686 C687 1.524 . S
C686 H705 0.913 . S
C687 H663 0.950 . S
C687 C686 1.524 . S
C687 C688 1.415 . S
C688 H664 0.950 . S
C688 C683 1.363 . S
C688 C687 1.415 . S
C689 H665 0.951 . S
C689 C690 1.366 . S
C689 C691 1.388 . S
C690 C689 1.366 . S
C690 C694 1.385 . S
C691 H666 0.951 . S
C691 C689 1.388 . S
C691 C692 1.366 . S
C692 C691 1.366 . S
C692 C693 1.414 . S
C692 C695 1.499 . S
C693 H667 0.950 . S
C693 C692 1.414 . S
C693 C694 1.374 . S
C694 H668 0.950 . S
C694 C690 1.385 . S
C694 C693 1.374 . S
C695 C692 1.499 . S
C695 C696 1.373 . S
C695 C697 1.389 . S
C696 H669 0.950 . S
C696 C682 1.377 . S
C696 C695 1.373 . S
C697 C681 1.377 . S
C697 C695 1.389 . S
C697 C698 1.524 . S
C698 C697 1.524 . S
C698 C699 1.397 . S
C698 C703 1.363 . S
C699 H670 0.950 . S
C699 C698 1.397 . S
C699 C700 1.334 . S
C700 H671 0.950 . S
C700 C699 1.334 . S
C700 C701 1.287 . S
C701 C700 1.287 . S
C701 C702 1.524 . S
C701 H704 0.999 . S
C702 H672 0.950 . S
C702 C701 1.524 . S
C702 C703 1.415 . S
C703 H673 0.950 . S
C703 C698 1.363 . S
C703 C702 1.415 . S
H704 C701 0.999 . S
H705 C686 0.913 . S
H706 C724 0.951 . S
H707 C726 0.951 . S
H708 C728 0.950 . S
H709 C729 0.950 . S
H710 C731 0.950 . S
H711 C734 0.950 . S
H712 C735 0.950 . S
H713 C737 0.950 . S
H714 C738 0.950 . S
H715 C739 0.951 . S
H716 C741 0.951 . S
H717 C743 0.950 . S
H718 C744 0.950 . S
H719 C746 0.950 . S
H720 C749 0.950 . S
H721 C750 0.950 . S
H722 C752 0.950 . S
H723 C753 0.950 . S
C724 H706 0.951 . S
C724 C725 1.366 . S
C724 C726 1.388 . S
C725 C724 1.366 . S
C725 C729 1.385 . S
C726 H707 0.951 . S
C726 C724 1.388 . S
C726 C727 1.366 . S
C727 C726 1.366 . S
C727 C728 1.414 . S
C727 C730 1.499 . S
C728 H708 0.950 . S
C728 C727 1.414 . S
C728 C729 1.374 . S
C729 H709 0.950 . S
C729 C725 1.385 . S
C729 C728 1.374 . S
C730 C727 1.499 . S
C730 C731 1.373 . S
C730 C732 1.389 . S
C731 H710 0.950 . S
C731 C730 1.373 . S
C731 C747 1.377 . S
C732 C730 1.389 . S
C732 C733 1.524 . S
C732 C746 1.377 . S
C733 C732 1.524 . S
C733 C734 1.397 . S
C733 C738 1.363 . S
C734 H711 0.950 . S
C734 C733 1.397 . S
C734 C735 1.334 . S
C735 H712 0.950 . S
C735 C734 1.334 . S
C735 C736 1.287 . S
C736 C735 1.287 . S
C736 C737 1.524 . S
C736 H755 0.913 . S
C737 H713 0.950 . S
C737 C736 1.524 . S
C737 C738 1.415 . S
C738 H714 0.950 . S
C738 C733 1.363 . S
C738 C737 1.415 . S
C739 H715 0.951 . S
C739 C740 1.366 . S
C739 C741 1.388 . S
C740 C739 1.366 . S
C740 C744 1.385 . S
C741 H716 0.951 . S
C741 C739 1.388 . S
C741 C742 1.366 . S
C742 C741 1.366 . S
C742 C743 1.414 . S
C742 C745 1.499 . S
C743 H717 0.950 . S
C743 C742 1.414 . S
C743 C744 1.374 . S
C744 H718 0.950 . S
C744 C740 1.385 . S
C744 C743 1.374 . S
C745 C742 1.499 . S
C745 C746 1.373 . S
C745 C747 1.389 . S
C746 H719 0.950 . S
C746 C732 1.377 . S
C746 C745 1.373 . S
C747 C731 1.377 . S
C747 C745 1.389 . S
C747 C748 1.524 . S
C748 C747 1.524 . S
C748 C749 1.397 . S
C748 C753 1.363 . S
C749 H720 0.950 . S
C749 C748 1.397 . S
C749 C750 1.334 . S
C750 H721 0.950 . S
C750 C749 1.334 . S
C750 C751 1.287 . S
C751 C750 1.287 . S
C751 C752 1.524 . S
C751 H754 0.999 . S
C752 H722 0.950 . S
C752 C751 1.524 . S
C752 C753 1.415 . S
C753 H723 0.950 . S
C753 C748 1.363 . S
C753 C752 1.415 . S
H754 C751 0.999 . S
H755 C736 0.913 . S
H756 C774 0.951 . S
H757 C776 0.951 . S
H758 C778 0.950 . S
H759 C779 0.950 . S
H760 C781 0.950 . S
H761 C784 0.950 . S
H762 C785 0.950 . S
H763 C787 0.950 . S
H764 C788 0.950 . S
H765 C789 0.951 . S
H766 C791 0.951 . S
H767 C793 0.950 . S
H768 C794 0.950 . S
H769 C796 0.950 . S
H770 C799 0.950 . S
H771 C800 0.950 . S
H772 C802 0.950 . S
H773 C803 0.950 . S
C774 H756 0.951 . S
C774 C775 1.366 . S
C774 C776 1.388 . S
C775 C774 1.366 . S
C775 C779 1.385 . S
C776 H757 0.951 . S
C776 C774 1.388 . S
C776 C777 1.366 . S
C777 C776 1.366 . S
C777 C778 1.414 . S
C777 C780 1.499 . S
C778 H758 0.950 . S
C778 C777 1.414 . S
C778 C779 1.374 . S
C779 H759 0.950 . S
C779 C775 1.385 . S
C779 C778 1.374 . S
C780 C777 1.499 . S
C780 C781 1.373 . S
C780 C782 1.389 . S
C781 H760 0.950 . S
C781 C780 1.373 . S
C781 C797 1.377 . S
C782 C780 1.389 . S
C782 C783 1.524 . S
C782 C796 1.377 . S
C783 C782 1.524 . S
C783 C784 1.397 . S
C783 C788 1.363 . S
C784 H761 0.950 . S
C784 C783 1.397 . S
C784 C785 1.334 . S
C785 H762 0.950 . S
C785 C784 1.334 . S
C785 C786 1.287 . S
C786 C785 1.287 . S
C786 C787 1.524 . S
C786 H805 0.913 . S
C787 H763 0.950 . S
C787 C786 1.524 . S
C787 C788 1.415 . S
C788 H764 0.950 . S
C788 C783 1.363 . S
C788 C787 1.415 . S
C789 H765 0.951 . S
C789 C790 1.366 . S
C789 C791 1.388 . S
C790 C789 1.366 . S
C790 C794 1.385 . S
C791 H766 0.951 . S
C791 C789 1.388 . S
C791 C792 1.366 . S
C792 C791 1.366 . S
C792 C793 1.414 . S
C792 C795 1.499 . S
C793 H767 0.950 . S
C793 C792 1.414 . S
C793 C794 1.374 . S
C794 H768 0.950 . S
C794 C790 1.385 . S
C794 C793 1.374 . S
C795 C792 1.499 . S
C795 C796 1.373 . S
C795 C797 1.389 . S
C796 H769 0.950 . S
C796 C782 1.377 . S
C796 C795 1.373 . S
C797 C781 1.377 . S
C797 C795 1.389 . S
C797 C798 1.524 . S
C798 C797 1.524 . S
C798 C799 1.397 . S
C798 C803 1.363 . S
C799 H770 0.950 . S
C799 C798 1.397 . S
C799 C800 1.334 . S
C800 H771 0.950 . S
C800 C799 1.334 . S
C800 C801 1.287 . S
C801 C800 1.287 . S
C801 C802 1.524 . S
C801 H804 0.999 . S
C802 H772 0.950 . S
C802 C801 1.524 . S
C802 C803 1.415 . S
C803 H773 0.950 . S
C803 C798 1.363 . S
C803 C802 1.415 . S
H804 C801 0.999 . S
H805 C786 0.913 . S
H806 C824 0.951 . S
H807 C826 0.951 . S
H808 C828 0.950 . S
H809 C829 0.950 . S
H810 C831 0.950 . S
H811 C834 0.950 . S
H812 C835 0.950 . S
H813 C837 0.950 . S
H814 C838 0.950 . S
H815 C839 0.951 . S
H816 C841 0.951 . S
H817 C843 0.950 . S
H818 C844 0.950 . S
H819 C846 0.950 1_545 S
H820 C849 0.950 . S
H821 C850 0.950 . S
H822 C852 0.950 . S
H823 C853 0.950 . S
C824 H806 0.951 . S
C824 C825 1.366 . S
C824 C826 1.388 . S
C825 C824 1.366 . S
C825 C829 1.385 . S
C826 H807 0.951 . S
C826 C824 1.388 . S
C826 C827 1.366 . S
C827 C826 1.366 . S
C827 C828 1.414 . S
C827 C830 1.499 . S
C828 H808 0.950 . S
C828 C827 1.414 . S
C828 C829 1.374 . S
C829 H809 0.950 . S
C829 C825 1.385 . S
C829 C828 1.374 . S
C830 C827 1.499 . S
C830 C831 1.373 . S
C830 C832 1.389 . S
C831 H810 0.950 . S
C831 C830 1.373 . S
C831 C847 1.377 . S
C832 C830 1.389 . S
C832 C833 1.524 . S
C832 C846 1.377 . S
C833 C832 1.524 . S
C833 C834 1.397 . S
C833 C838 1.363 . S
C834 H811 0.950 . S
C834 C833 1.397 . S
C834 C835 1.334 . S
C835 H812 0.950 . S
C835 C834 1.334 . S
C835 C836 1.287 . S
C836 C835 1.287 . S
C836 C837 1.524 . S
C836 H855 0.913 . S
C837 H813 0.950 . S
C837 C836 1.524 . S
C837 C838 1.415 . S
C838 H814 0.950 . S
C838 C833 1.363 . S
C838 C837 1.415 . S
C839 H815 0.951 . S
C839 C840 1.366 . S
C839 C841 1.388 . S
C840 C839 1.366 . S
C840 C844 1.385 . S
C841 H816 0.951 . S
C841 C839 1.388 . S
C841 C842 1.366 . S
C842 C841 1.366 . S
C842 C843 1.414 . S
C842 C845 1.499 . S
C843 H817 0.950 . S
C843 C842 1.414 . S
C843 C844 1.374 . S
C844 H818 0.950 . S
C844 C840 1.385 . S
C844 C843 1.374 . S
C845 C842 1.499 . S
C845 C846 1.373 1_545 S
C845 C847 1.389 1_545 S
C846 H819 0.950 1_565 S
C846 C832 1.377 . S
C846 C845 1.373 1_565 S
C847 C831 1.377 . S
C847 C845 1.389 1_565 S
C847 C848 1.526 . S
C848 C847 1.526 . S
C848 C849 1.372 1_565 S
C848 C853 1.386 . S
C849 H820 0.950 . S
C849 C848 1.372 1_545 S
C849 C850 1.334 . S
C850 H821 0.950 . S
C850 C849 1.334 . S
C850 C851 1.287 . S
C851 C850 1.287 . S
C851 C852 1.524 1_545 S
C851 H854 0.999 . S
C852 H822 0.950 . S
C852 C851 1.524 1_565 S
C852 C853 1.415 . S
C853 H823 0.950 . S
C853 C848 1.386 . S
C853 C852 1.415 . S
H854 C851 0.999 . S
H855 C836 0.913 . S
H856 C874 0.951 . S
H857 C876 0.951 . S
H858 C878 0.950 . S
H859 C879 0.950 . S
H860 C881 0.950 . S
H861 C884 0.950 . S
H862 C885 0.950 . S
H863 C887 0.950 . S
H864 C888 0.950 . S
H865 C889 0.951 . S
H866 C891 0.951 . S
H867 C893 0.950 . S
H868 C894 0.950 . S
H869 C896 0.950 . S
H870 C899 0.950 . S
H871 C900 0.950 . S
H872 C902 0.950 . S
H873 C903 0.950 . S
C874 H856 0.951 . S
C874 C875 1.366 . S
C874 C876 1.388 . S
C875 C874 1.366 . S
C875 C879 1.385 . S
C876 H857 0.951 . S
C876 C874 1.388 . S
C876 C877 1.366 . S
C877 C876 1.366 . S
C877 C878 1.414 . S
C877 C880 1.499 . S
C878 H858 0.950 . S
C878 C877 1.414 . S
C878 C879 1.374 . S
C879 H859 0.950 . S
C879 C875 1.385 . S
C879 C878 1.374 . S
C880 C877 1.499 . S
C880 C881 1.373 . S
C880 C882 1.389 . S
C881 H860 0.950 . S
C881 C880 1.373 . S
C881 C897 1.377 . S
C882 C880 1.389 . S
C882 C883 1.524 . S
C882 C896 1.377 . S
C883 C882 1.524 . S
C883 C884 1.397 . S
C883 C888 1.363 . S
C884 H861 0.950 . S
C884 C883 1.397 . S
C884 C885 1.334 . S
C885 H862 0.950 . S
C885 C884 1.334 . S
C885 C886 1.287 . S
C886 C885 1.287 . S
C886 C887 1.524 . S
C886 H905 0.913 . S
C887 H863 0.950 . S
C887 C886 1.524 . S
C887 C888 1.415 . S
C888 H864 0.950 . S
C888 C883 1.363 . S
C888 C887 1.415 . S
C889 H865 0.951 . S
C889 C890 1.366 . S
C889 C891 1.388 . S
C890 C889 1.366 . S
C890 C894 1.385 . S
C891 H866 0.951 . S
C891 C889 1.388 . S
C891 C892 1.366 . S
C892 C891 1.366 . S
C892 C893 1.414 . S
C892 C895 1.499 . S
C893 H867 0.950 . S
C893 C892 1.414 . S
C893 C894 1.374 . S
C894 H868 0.950 . S
C894 C890 1.385 . S
C894 C893 1.374 . S
C895 C892 1.499 . S
C895 C896 1.373 . S
C895 C897 1.389 . S
C896 H869 0.950 . S
C896 C882 1.377 . S
C896 C895 1.373 . S
C897 C881 1.377 . S
C897 C895 1.389 . S
C897 C898 1.524 . S
C898 C897 1.524 . S
C898 C899 1.397 . S
C898 C903 1.363 . S
C899 H870 0.950 . S
C899 C898 1.397 . S
C899 C900 1.334 . S
C900 H871 0.950 . S
C900 C899 1.334 . S
C900 C901 1.287 . S
C901 C900 1.287 . S
C901 C902 1.524 . S
C901 H904 0.999 . S
C902 H872 0.950 . S
C902 C901 1.524 . S
C902 C903 1.415 . S
C903 H873 0.950 . S
C903 C898 1.363 . S
C903 C902 1.415 . S
H904 C901 0.999 . S
H905 C886 0.913 . S
H906 C924 0.951 . S
H907 C926 0.951 . S
H908 C928 0.950 . S
H909 C929 0.950 . S
H910 C931 0.950 . S
H911 C934 0.950 . S
H912 C935 0.950 . S
H913 C937 0.950 . S
H914 C938 0.950 . S
H915 C939 0.951 . S
H916 C941 0.951 . S
H917 C943 0.950 . S
H918 C944 0.950 . S
H919 C946 0.950 . S
H920 C949 0.950 . S
H921 C950 0.950 . S
H922 C952 0.950 . S
H923 C953 0.950 . S
C924 H906 0.951 . S
C924 C925 1.366 . S
C924 C926 1.388 . S
C925 C924 1.366 . S
C925 C929 1.385 . S
C926 H907 0.951 . S
C926 C924 1.388 . S
C926 C927 1.366 . S
C927 C926 1.366 . S
C927 C928 1.414 . S
C927 C930 1.499 . S
C928 H908 0.950 . S
C928 C927 1.414 . S
C928 C929 1.374 . S
C929 H909 0.950 . S
C929 C925 1.385 . S
C929 C928 1.374 . S
C930 C927 1.499 . S
C930 C931 1.373 . S
C930 C932 1.389 . S
C931 H910 0.950 . S
C931 C930 1.373 . S
C931 C947 1.377 . S
C932 C930 1.389 . S
C932 C933 1.524 . S
C932 C946 1.377 . S
C933 C932 1.524 . S
C933 C934 1.397 . S
C933 C938 1.363 . S
C934 H911 0.950 . S
C934 C933 1.397 . S
C934 C935 1.334 . S
C935 H912 0.950 . S
C935 C934 1.334 . S
C935 C936 1.287 . S
C936 C935 1.287 . S
C936 C937 1.524 . S
C936 H955 0.913 . S
C937 H913 0.950 . S
C937 C936 1.524 . S
C937 C938 1.415 . S
C938 H914 0.950 . S
C938 C933 1.363 . S
C938 C937 1.415 . S
C939 H915 0.951 . S
C939 C940 1.366 . S
C939 C941 1.388 . S
C940 C939 1.366 . S
C940 C944 1.385 . S
C941 H916 0.951 . S
C941 C939 1.388 . S
C941 C942 1.366 . S
C942 C941 1.366 . S
C942 C943 1.414 . S
C942 C945 1.499 . S
C943 H917 0.950 . S
C943 C942 1.414 . S
C943 C944 1.374 . S
C944 H918 0.950 . S
C944 C940 1.385 . S
C944 C943 1.374 . S
C945 C942 1.499 . S
C945 C946 1.373 . S
C945 C947 1.389 . S
C946 H919 0.950 . S
C946 C932 1.377 . S
C946 C945 1.373 . S
C947 C931 1.377 . S
C947 C945 1.389 . S
C947 C948 1.524 . S
C948 C947 1.524 . S
C948 C949 1.397 . S
C948 C953 1.363 . S
C949 H920 0.950 . S
C949 C948 1.397 . S
C949 C950 1.334 . S
C950 H921 0.950 . S
C950 C949 1.334 . S
C950 C951 1.287 . S
C951 C950 1.287 . S
C951 C952 1.524 . S
C951 H954 0.999 . S
C952 H922 0.950 . S
C952 C951 1.524 . S
C952 C953 1.415 . S
C953 H923 0.950 . S
C953 C948 1.363 . S
C953 C952 1.415 . S
H954 C951 0.999 . S
H955 C936 0.913 . S
H956 C974 0.951 . S
H957 C976 0.951 . S
H958 C978 0.950 . S
H959 C979 0.950 . S
H960 C981 0.950 . S
H961 C984 0.950 . S
H962 C985 0.950 . S
H963 C987 0.950 . S
H964 C988 0.950 . S
H965 C989 0.951 . S
H966 C991 0.951 . S
H967 C993 0.950 . S
H968 C994 0.950 . S
H969 C996 0.950 . S
H970 C999 0.950 . S
H971 C1000 0.950 . S
H972 C1002 0.950 . S
H973 C1003 0.950 . S
C974 H956 0.951 . S
C974 C975 1.366 . S
C974 C976 1.388 . S
C975 C974 1.366 . S
C975 C979 1.385 . S
C976 H957 0.951 . S
C976 C974 1.388 . S
C976 C977 1.366 . S
C977 C976 1.366 . S
C977 C978 1.414 . S
C977 C980 1.499 . S
C978 H958 0.950 . S
C978 C977 1.414 . S
C978 C979 1.374 . S
C979 H959 0.950 . S
C979 C975 1.385 . S
C979 C978 1.374 . S
C980 C977 1.499 . S
C980 C981 1.373 . S
C980 C982 1.389 . S
C981 H960 0.950 . S
C981 C980 1.373 . S
C981 C997 1.377 . S
C982 C980 1.389 . S
C982 C983 1.524 . S
C982 C996 1.377 . S
C983 C982 1.524 . S
C983 C984 1.397 . S
C983 C988 1.363 . S
C984 H961 0.950 . S
C984 C983 1.397 . S
C984 C985 1.334 . S
C985 H962 0.950 . S
C985 C984 1.334 . S
C985 C986 1.287 . S
C986 C985 1.287 . S
C986 C987 1.524 . S
C986 H1005 0.913 . S
C987 H963 0.950 . S
C987 C986 1.524 . S
C987 C988 1.415 . S
C988 H964 0.950 . S
C988 C983 1.363 . S
C988 C987 1.415 . S
C989 H965 0.951 . S
C989 C990 1.366 . S
C989 C991 1.388 . S
C990 C989 1.366 . S
C990 C994 1.385 . S
C991 H966 0.951 . S
C991 C989 1.388 . S
C991 C992 1.366 . S
C992 C991 1.366 . S
C992 C993 1.414 . S
C992 C995 1.499 . S
C993 H967 0.950 . S
C993 C992 1.414 . S
C993 C994 1.374 . S
C994 H968 0.950 . S
C994 C990 1.385 . S
C994 C993 1.374 . S
C995 C992 1.499 . S
C995 C996 1.373 . S
C995 C997 1.389 . S
C996 H969 0.950 . S
C996 C982 1.377 . S
C996 C995 1.373 . S
C997 C981 1.377 . S
C997 C995 1.389 . S
C997 C998 1.524 . S
C998 C997 1.524 . S
C998 C999 1.397 . S
C998 C1003 1.363 . S
C999 H970 0.950 . S
C999 C998 1.397 . S
C999 C1000 1.334 . S
C1000 H971 0.950 . S
C1000 C999 1.334 . S
C1000 C1001 1.287 . S
C1001 C1000 1.287 . S
C1001 C1002 1.524 . S
C1001 H1004 0.999 . S
C1002 H972 0.950 . S
C1002 C1001 1.524 . S
C1002 C1003 1.415 . S
C1003 H973 0.950 . S
C1003 C998 1.363 . S
C1003 C1002 1.415 . S
H1004 C1001 0.999 . S
H1005 C986 0.913 . S
H1006 C1024 0.951 . S
H1007 C1026 0.951 . S
H1008 C1028 0.950 . S
H1009 C1029 0.950 . S
H1010 C1031 0.950 . S
H1011 C1034 0.950 . S
H1012 C1035 0.950 . S
H1013 C1037 0.950 . S
H1014 C1038 0.950 . S
H1015 C1039 0.951 . S
H1016 C1041 0.951 . S
H1017 C1043 0.950 . S
H1018 C1044 0.950 . S
H1019 C1046 0.950 . S
H1020 C1049 0.950 . S
H1021 C1050 0.950 . S
H1022 C1052 0.950 . S
H1023 C1053 0.950 . S
C1024 H1006 0.951 . S
C1024 C1025 1.366 . S
C1024 C1026 1.388 . S
C1025 C1024 1.366 . S
C1025 C1029 1.385 . S
C1026 H1007 0.951 . S
C1026 C1024 1.388 . S
C1026 C1027 1.366 . S
C1027 C1026 1.366 . S
C1027 C1028 1.414 . S
C1027 C1030 1.499 . S
C1028 H1008 0.950 . S
C1028 C1027 1.414 . S
C1028 C1029 1.374 . S
C1029 H1009 0.950 . S
C1029 C1025 1.385 . S
C1029 C1028 1.374 . S
C1030 C1027 1.499 . S
C1030 C1031 1.373 . S
C1030 C1032 1.389 . S
C1031 H1010 0.950 . S
C1031 C1030 1.373 . S
C1031 C1047 1.377 . S
C1032 C1030 1.389 . S
C1032 C1033 1.524 . S
C1032 C1046 1.377 . S
C1033 C1032 1.524 . S
C1033 C1034 1.397 . S
C1033 C1038 1.363 . S
C1034 H1011 0.950 . S
C1034 C1033 1.397 . S
C1034 C1035 1.334 . S
C1035 H1012 0.950 . S
C1035 C1034 1.334 . S
C1035 C1036 1.287 . S
C1036 C1035 1.287 . S
C1036 C1037 1.524 . S
C1036 H1055 0.913 . S
C1037 H1013 0.950 . S
C1037 C1036 1.524 . S
C1037 C1038 1.415 . S
C1038 H1014 0.950 . S
C1038 C1033 1.363 . S
C1038 C1037 1.415 . S
C1039 H1015 0.951 . S
C1039 C1040 1.366 . S
C1039 C1041 1.388 . S
C1040 C1039 1.366 . S
C1040 C1044 1.385 . S
C1041 H1016 0.951 . S
C1041 C1039 1.388 . S
C1041 C1042 1.366 . S
C1042 C1041 1.366 . S
C1042 C1043 1.414 . S
C1042 C1045 1.499 . S
C1043 H1017 0.950 . S
C1043 C1042 1.414 . S
C1043 C1044 1.374 . S
C1044 H1018 0.950 . S
C1044 C1040 1.385 . S
C1044 C1043 1.374 . S
C1045 C1042 1.499 . S
C1045 C1046 1.373 . S
C1045 C1047 1.389 . S
C1046 H1019 0.950 . S
C1046 C1032 1.377 . S
C1046 C1045 1.373 . S
C1047 C1031 1.377 . S
C1047 C1045 1.389 . S
C1047 C1048 1.524 . S
C1048 C1047 1.524 . S
C1048 C1049 1.397 . S
C1048 C1053 1.363 . S
C1049 H1020 0.950 . S
C1049 C1048 1.397 . S
C1049 C1050 1.334 . S
C1050 H1021 0.950 . S
C1050 C1049 1.334 . S
C1050 C1051 1.287 . S
C1051 C1050 1.287 . S
C1051 C1052 1.524 . S
C1051 H1054 0.999 . S
C1052 H1022 0.950 . S
C1052 C1051 1.524 . S
C1052 C1053 1.415 . S
C1053 H1023 0.950 . S
C1053 C1048 1.363 . S
C1053 C1052 1.415 . S
H1054 C1051 0.999 . S
H1055 C1036 0.913 . S
H1056 C1074 0.951 . S
H1057 C1076 0.951 . S
H1058 C1078 0.950 . S
H1059 C1079 0.950 . S
H1060 C1081 0.950 . S
H1061 C1084 0.950 . S
H1062 C1085 0.950 . S
H1063 C1087 0.950 . S
H1064 C1088 0.950 . S
H1065 C1089 0.951 1_455 S
H1066 C1091 0.951 . S
H1067 C1093 0.950 . S
H1068 C1094 0.950 . S
H1069 C1096 0.950 . S
H1070 C1099 0.950 . S
H1071 C1100 0.950 . S
H1072 C1102 0.950 1_455 S
H1073 C1103 0.950 . S
C1074 H1056 0.951 . S
C1074 C1075 1.366 . S
C1074 C1076 1.388 . S
C1075 C1074 1.366 . S
C1075 C1079 1.385 . S
C1076 H1057 0.951 . S
C1076 C1074 1.388 . S
C1076 C1077 1.366 . S
C1077 C1076 1.366 . S
C1077 C1078 1.414 . S
C1077 C1080 1.499 . S
C1078 H1058 0.950 . S
C1078 C1077 1.414 . S
C1078 C1079 1.374 . S
C1079 H1059 0.950 . S
C1079 C1075 1.385 . S
C1079 C1078 1.374 . S
C1080 C1077 1.499 . S
C1080 C1081 1.373 . S
C1080 C1082 1.389 . S
C1081 H1060 0.950 . S
C1081 C1080 1.373 . S
C1081 C1097 1.377 . S
C1082 C1080 1.389 . S
C1082 C1083 1.524 . S
C1082 C1096 1.377 . S
C1083 C1082 1.524 . S
C1083 C1084 1.397 . S
C1083 C1088 1.363 . S
C1084 H1061 0.950 . S
C1084 C1083 1.397 . S
C1084 C1085 1.334 . S
C1085 H1062 0.950 . S
C1085 C1084 1.334 . S
C1085 C1086 1.287 . S
C1086 C1085 1.287 . S
C1086 C1087 1.524 . S
C1086 H1105 0.913 . S
C1087 H1063 0.950 . S
C1087 C1086 1.524 . S
C1087 C1088 1.415 . S
C1088 H1064 0.950 . S
C1088 C1083 1.363 . S
C1088 C1087 1.415 . S
C1089 H1065 0.951 1_655 S
C1089 C1090 1.366 . S
C1089 C1091 1.388 . S
C1090 C1089 1.366 . S
C1090 C1094 1.385 . S
C1091 H1066 0.951 . S
C1091 C1089 1.388 . S
C1091 C1092 1.366 . S
C1092 C1091 1.366 . S
C1092 C1093 1.414 . S
C1092 C1095 1.499 . S
C1093 H1067 0.950 . S
C1093 C1092 1.414 . S
C1093 C1094 1.374 . S
C1094 H1068 0.950 . S
C1094 C1090 1.385 . S
C1094 C1093 1.374 . S
C1095 C1092 1.499 . S
C1095 C1096 1.373 . S
C1095 C1097 1.389 . S
C1096 H1069 0.950 . S
C1096 C1082 1.377 . S
C1096 C1095 1.373 . S
C1097 C1081 1.377 . S
C1097 C1095 1.389 . S
C1097 C1098 1.524 . S
C1098 C1097 1.524 . S
C1098 C1099 1.397 . S
C1098 C1103 1.363 . S
C1099 H1070 0.950 . S
C1099 C1098 1.397 . S
C1099 C1100 1.334 . S
C1100 H1071 0.950 . S
C1100 C1099 1.334 . S
C1100 C1101 1.287 . S
C1101 C1100 1.287 . S
C1101 C1102 1.524 . S
C1101 H1104 0.999 1_655 S
C1102 H1072 0.950 1_655 S
C1102 C1101 1.524 . S
C1102 C1103 1.415 . S
C1103 H1073 0.950 . S
C1103 C1098 1.363 . S
C1103 C1102 1.415 . S
H1104 C1101 0.999 1_455 S
H1105 C1086 0.913 . S
H1106 C1124 0.951 . S
H1107 C1126 0.951 . S
H1108 C1128 0.950 . S
H1109 C1129 0.950 . S
H1110 C1131 0.950 . S
H1111 C1134 0.950 . S
H1112 C1135 0.950 . S
H1113 C1137 0.950 . S
H1114 C1138 0.950 . S
H1115 C1139 0.951 . S
H1116 C1141 0.951 . S
H1117 C1143 0.950 . S
H1118 C1144 0.950 . S
H1119 C1146 0.950 . S
H1120 C1149 0.950 . S
H1121 C1150 0.950 . S
H1122 C1152 0.950 . S
H1123 C1153 0.950 . S
C1124 H1106 0.951 . S
C1124 C1125 1.366 . S
C1124 C1126 1.388 . S
C1125 C1124 1.366 . S
C1125 C1129 1.385 . S
C1126 H1107 0.951 . S
C1126 C1124 1.388 . S
C1126 C1127 1.366 . S
C1127 C1126 1.366 . S
C1127 C1128 1.414 . S
C1127 C1130 1.499 . S
C1128 H1108 0.950 . S
C1128 C1127 1.414 . S
C1128 C1129 1.374 . S
C1129 H1109 0.950 . S
C1129 C1125 1.385 . S
C1129 C1128 1.374 . S
C1130 C1127 1.499 . S
C1130 C1131 1.373 . S
C1130 C1132 1.389 . S
C1131 H1110 0.950 . S
C1131 C1130 1.373 . S
C1131 C1147 1.377 . S
C1132 C1130 1.389 . S
C1132 C1133 1.524 . S
C1132 C1146 1.377 . S
C1133 C1132 1.524 . S
C1133 C1134 1.397 . S
C1133 C1138 1.363 . S
C1134 H1111 0.950 . S
C1134 C1133 1.397 . S
C1134 C1135 1.334 . S
C1135 H1112 0.950 . S
C1135 C1134 1.334 . S
C1135 C1136 1.287 . S
C1136 C1135 1.287 . S
C1136 C1137 1.524 . S
C1136 H1155 0.913 . S
C1137 H1113 0.950 . S
C1137 C1136 1.524 . S
C1137 C1138 1.415 . S
C1138 H1114 0.950 . S
C1138 C1133 1.363 . S
C1138 C1137 1.415 . S
C1139 H1115 0.951 . S
C1139 C1140 1.366 . S
C1139 C1141 1.388 . S
C1140 C1139 1.366 . S
C1140 C1144 1.385 . S
C1141 H1116 0.951 . S
C1141 C1139 1.388 . S
C1141 C1142 1.366 . S
C1142 C1141 1.366 . S
C1142 C1143 1.414 . S
C1142 C1145 1.499 . S
C1143 H1117 0.950 . S
C1143 C1142 1.414 . S
C1143 C1144 1.374 . S
C1144 H1118 0.950 . S
C1144 C1140 1.385 . S
C1144 C1143 1.374 . S
C1145 C1142 1.499 . S
C1145 C1146 1.373 . S
C1145 C1147 1.389 . S
C1146 H1119 0.950 . S
C1146 C1132 1.377 . S
C1146 C1145 1.373 . S
C1147 C1131 1.377 . S
C1147 C1145 1.389 . S
C1147 C1148 1.524 . S
C1148 C1147 1.524 . S
C1148 C1149 1.397 . S
C1148 C1153 1.363 . S
C1149 H1120 0.950 . S
C1149 C1148 1.397 . S
C1149 C1150 1.334 . S
C1150 H1121 0.950 . S
C1150 C1149 1.334 . S
C1150 C1151 1.287 . S
C1151 C1150 1.287 . S
C1151 C1152 1.524 . S
C1151 H1154 0.999 . S
C1152 H1122 0.950 . S
C1152 C1151 1.524 . S
C1152 C1153 1.415 . S
C1153 H1123 0.950 . S
C1153 C1148 1.363 . S
C1153 C1152 1.415 . S
H1154 C1151 0.999 . S
H1155 C1136 0.913 . S
H1156 C1174 0.951 . S
H1157 C1176 0.951 . S
H1158 C1178 0.950 . S
H1159 C1179 0.950 . S
H1160 C1181 0.950 . S
H1161 C1184 0.950 . S
H1162 C1185 0.950 . S
H1163 C1187 0.950 . S
H1164 C1188 0.950 . S
H1165 C1189 0.951 . S
H1166 C1191 0.951 . S
H1167 C1193 0.950 . S
H1168 C1194 0.950 . S
H1169 C1196 0.950 . S
H1170 C1199 0.950 . S
H1171 C1200 0.950 . S
H1172 C1202 0.950 . S
H1173 C1203 0.950 . S
C1174 H1156 0.951 . S
C1174 C1175 1.366 . S
C1174 C1176 1.388 . S
C1175 C1174 1.366 . S
C1175 C1179 1.385 . S
C1176 H1157 0.951 . S
C1176 C1174 1.388 . S
C1176 C1177 1.366 . S
C1177 C1176 1.366 . S
C1177 C1178 1.414 . S
C1177 C1180 1.499 . S
C1178 H1158 0.950 . S
C1178 C1177 1.414 . S
C1178 C1179 1.374 . S
C1179 H1159 0.950 . S
C1179 C1175 1.385 . S
C1179 C1178 1.374 . S
C1180 C1177 1.499 . S
C1180 C1181 1.373 . S
C1180 C1182 1.389 . S
C1181 H1160 0.950 . S
C1181 C1180 1.373 . S
C1181 C1197 1.377 . S
C1182 C1180 1.389 . S
C1182 C1183 1.524 . S
C1182 C1196 1.377 . S
C1183 C1182 1.524 . S
C1183 C1184 1.397 . S
C1183 C1188 1.363 . S
C1184 H1161 0.950 . S
C1184 C1183 1.397 . S
C1184 C1185 1.334 . S
C1185 H1162 0.950 . S
C1185 C1184 1.334 . S
C1185 C1186 1.287 . S
C1186 C1185 1.287 . S
C1186 C1187 1.524 . S
C1186 H1205 0.913 . S
C1187 H1163 0.950 . S
C1187 C1186 1.524 . S
C1187 C1188 1.415 . S
C1188 H1164 0.950 . S
C1188 C1183 1.363 . S
C1188 C1187 1.415 . S
C1189 H1165 0.951 . S
C1189 C1190 1.366 . S
C1189 C1191 1.388 . S
C1190 C1189 1.366 . S
C1190 C1194 1.385 . S
C1191 H1166 0.951 . S
C1191 C1189 1.388 . S
C1191 C1192 1.366 . S
C1192 C1191 1.366 . S
C1192 C1193 1.414 . S
C1192 C1195 1.499 . S
C1193 H1167 0.950 . S
C1193 C1192 1.414 . S
C1193 C1194 1.374 . S
C1194 H1168 0.950 . S
C1194 C1190 1.385 . S
C1194 C1193 1.374 . S
C1195 C1192 1.499 . S
C1195 C1196 1.373 . S
C1195 C1197 1.389 . S
C1196 H1169 0.950 . S
C1196 C1182 1.377 . S
C1196 C1195 1.373 . S
C1197 C1181 1.377 . S
C1197 C1195 1.389 . S
C1197 C1198 1.524 . S
C1198 C1197 1.524 . S
C1198 C1199 1.397 . S
C1198 C1203 1.363 . S
C1199 H1170 0.950 . S
C1199 C1198 1.397 . S
C1199 C1200 1.334 . S
C1200 H1171 0.950 . S
C1200 C1199 1.334 . S
C1200 C1201 1.287 . S
C1201 C1200 1.287 . S
C1201 C1202 1.524 . S
C1201 H1204 0.999 . S
C1202 H1172 0.950 . S
C1202 C1201 1.524 . S
C1202 C1203 1.415 . S
C1203 H1173 0.950 . S
C1203 C1198 1.363 . S
C1203 C1202 1.415 . S
H1204 C1201 0.999 . S
H1205 C1186 0.913 . S
H1206 C1224 0.951 . S
H1207 C1226 0.951 . S
H1208 C1228 0.950 . S
H1209 C1229 0.950 . S
H1210 C1231 0.950 . S
H1211 C1234 0.950 . S
H1212 C1235 0.950 . S
H1213 C1237 0.950 . S
H1214 C1238 0.950 . S
H1215 C1239 0.951 . S
H1216 C1241 0.951 . S
H1217 C1243 0.950 . S
H1218 C1244 0.950 . S
H1219 C1246 0.950 . S
H1220 C1249 0.950 . S
H1221 C1250 0.950 . S
H1222 C1252 0.950 . S
H1223 C1253 0.950 . S
C1224 H1206 0.951 . S
C1224 C1225 1.366 . S
C1224 C1226 1.388 . S
C1225 C1224 1.366 . S
C1225 C1229 1.385 . S
C1226 H1207 0.951 . S
C1226 C1224 1.388 . S
C1226 C1227 1.366 . S
C1227 C1226 1.366 . S
C1227 C1228 1.414 . S
C1227 C1230 1.499 . S
C1228 H1208 0.950 . S
C1228 C1227 1.414 . S
C1228 C1229 1.374 . S
C1229 H1209 0.950 . S
C1229 C1225 1.385 . S
C1229 C1228 1.374 . S
C1230 C1227 1.499 . S
C1230 C1231 1.373 . S
C1230 C1232 1.389 . S
C1231 H1210 0.950 . S
C1231 C1230 1.373 . S
C1231 C1247 1.377 . S
C1232 C1230 1.389 . S
C1232 C1233 1.524 . S
C1232 C1246 1.377 . S
C1233 C1232 1.524 . S
C1233 C1234 1.397 . S
C1233 C1238 1.363 . S
C1234 H1211 0.950 . S
C1234 C1233 1.397 . S
C1234 C1235 1.334 . S
C1235 H1212 0.950 . S
C1235 C1234 1.334 . S
C1235 C1236 1.287 . S
C1236 C1235 1.287 . S
C1236 C1237 1.524 . S
C1236 H1255 0.913 . S
C1237 H1213 0.950 . S
C1237 C1236 1.524 . S
C1237 C1238 1.415 . S
C1238 H1214 0.950 . S
C1238 C1233 1.363 . S
C1238 C1237 1.415 . S
C1239 H1215 0.951 . S
C1239 C1240 1.366 . S
C1239 C1241 1.388 . S
C1240 C1239 1.366 . S
C1240 C1244 1.385 . S
C1241 H1216 0.951 . S
C1241 C1239 1.388 . S
C1241 C1242 1.366 . S
C1242 C1241 1.366 . S
C1242 C1243 1.414 . S
C1242 C1245 1.499 . S
C1243 H1217 0.950 . S
C1243 C1242 1.414 . S
C1243 C1244 1.374 . S
C1244 H1218 0.950 . S
C1244 C1240 1.385 . S
C1244 C1243 1.374 . S
C1245 C1242 1.499 . S
C1245 C1246 1.373 . S
C1245 C1247 1.389 . S
C1246 H1219 0.950 . S
C1246 C1232 1.377 . S
C1246 C1245 1.373 . S
C1247 C1231 1.377 . S
C1247 C1245 1.389 . S
C1247 C1248 1.524 . S
C1248 C1247 1.524 . S
C1248 C1249 1.397 . S
C1248 C1253 1.363 . S
C1249 H1220 0.950 . S
C1249 C1248 1.397 . S
C1249 C1250 1.334 . S
C1250 H1221 0.950 . S
C1250 C1249 1.334 . S
C1250 C1251 1.287 . S
C1251 C1250 1.287 . S
C1251 C1252 1.524 . S
C1251 H1254 0.999 . S
C1252 H1222 0.950 . S
C1252 C1251 1.524 . S
C1252 C1253 1.415 . S
C1253 H1223 0.950 . S
C1253 C1248 1.363 . S
C1253 C1252 1.415 . S
H1254 C1251 0.999 . S
H1255 C1236 0.913 . S
H1256 C1274 0.951 . S
H1257 C1276 0.951 . S
H1258 C1278 0.950 . S
H1259 C1279 0.950 . S
H1260 C1281 0.950 . S
H1261 C1284 0.950 . S
H1262 C1285 0.950 . S
H1263 C1287 0.950 . S
H1264 C1288 0.950 . S
H1265 C1289 0.951 . S
H1266 C1291 0.951 . S
H1267 C1293 0.950 . S
H1268 C1294 0.950 . S
H1269 C1296 0.950 . S
H1270 C1299 0.950 . S
H1271 C1300 0.950 . S
H1272 C1302 0.950 . S
H1273 C1303 0.950 . S
C1274 H1256 0.951 . S
C1274 C1275 1.366 . S
C1274 C1276 1.388 . S
C1275 C1274 1.366 . S
C1275 C1279 1.385 . S
C1276 H1257 0.951 . S
C1276 C1274 1.388 . S
C1276 C1277 1.366 . S
C1277 C1276 1.366 . S
C1277 C1278 1.414 . S
C1277 C1280 1.499 . S
C1278 H1258 0.950 . S
C1278 C1277 1.414 . S
C1278 C1279 1.374 . S
C1279 H1259 0.950 . S
C1279 C1275 1.385 . S
C1279 C1278 1.374 . S
C1280 C1277 1.499 . S
C1280 C1281 1.373 . S
C1280 C1282 1.389 . S
C1281 H1260 0.950 . S
C1281 C1280 1.373 . S
C1281 C1297 1.377 . S
C1282 C1280 1.389 . S
C1282 C1283 1.524 . S
C1282 C1296 1.377 . S
C1283 C1282 1.524 . S
C1283 C1284 1.397 . S
C1283 C1288 1.363 . S
C1284 H1261 0.950 . S
C1284 C1283 1.397 . S
C1284 C1285 1.334 . S
C1285 H1262 0.950 . S
C1285 C1284 1.334 . S
C1285 C1286 1.287 . S
C1286 C1285 1.287 . S
C1286 C1287 1.524 . S
C1286 H1305 0.913 . S
C1287 H1263 0.950 . S
C1287 C1286 1.524 . S
C1287 C1288 1.415 . S
C1288 H1264 0.950 . S
C1288 C1283 1.363 . S
C1288 C1287 1.415 . S
C1289 H1265 0.951 . S
C1289 C1290 1.366 . S
C1289 C1291 1.388 . S
C1290 C1289 1.366 . S
C1290 C1294 1.385 . S
C1291 H1266 0.951 . S
C1291 C1289 1.388 . S
C1291 C1292 1.366 . S
C1292 C1291 1.366 . S
C1292 C1293 1.414 . S
C1292 C1295 1.499 . S
C1293 H1267 0.950 . S
C1293 C1292 1.414 . S
C1293 C1294 1.374 . S
C1294 H1268 0.950 . S
C1294 C1290 1.385 . S
C1294 C1293 1.374 . S
C1295 C1292 1.499 . S
C1295 C1296 1.373 . S
C1295 C1297 1.389 . S
C1296 H1269 0.950 . S
C1296 C1282 1.377 . S
C1296 C1295 1.373 . S
C1297 C1281 1.377 . S
C1297 C1295 1.389 . S
C1297 C1298 1.524 . S
C1298 C1297 1.524 . S
C1298 C1299 1.397 . S
C1298 C1303 1.363 . S
C1299 H1270 0.950 . S
C1299 C1298 1.397 . S
C1299 C1300 1.334 . S
C1300 H1271 0.950 . S
C1300 C1299 1.334 . S
C1300 C1301 1.287 . S
C1301 C1300 1.287 . S
C1301 C1302 1.524 . S
C1301 H1304 0.999 . S
C1302 H1272 0.950 . S
C1302 C1301 1.524 . S
C1302 C1303 1.415 . S
C1303 H1273 0.950 . S
C1303 C1298 1.363 . S
C1303 C1302 1.415 . S
H1304 C1301 0.999 . S
H1305 C1286 0.913 . S
H1306 C1324 0.951 . S
H1307 C1326 0.951 . S
H1308 C1328 0.950 . S
H1309 C1329 0.950 . S
H1310 C1331 0.950 . S
H1311 C1334 0.950 . S
H1312 C1335 0.950 . S
H1313 C1337 0.950 . S
H1314 C1338 0.950 . S
H1315 C1339 0.951 . S
H1316 C1341 0.951 . S
H1317 C1343 0.950 . S
H1318 C1344 0.950 . S
H1319 C1346 0.950 . S
H1320 C1349 0.950 . S
H1321 C1350 0.950 . S
H1322 C1352 0.950 . S
H1323 C1353 0.950 . S
C1324 H1306 0.951 . S
C1324 C1325 1.366 . S
C1324 C1326 1.388 . S
C1325 C1324 1.366 . S
C1325 C1329 1.385 . S
C1326 H1307 0.951 . S
C1326 C1324 1.388 . S
C1326 C1327 1.366 . S
C1327 C1326 1.366 . S
C1327 C1328 1.414 . S
C1327 C1330 1.499 . S
C1328 H1308 0.950 . S
C1328 C1327 1.414 . S
C1328 C1329 1.374 . S
C1329 H1309 0.950 . S
C1329 C1325 1.385 . S
C1329 C1328 1.374 . S
C1330 C1327 1.499 . S
C1330 C1331 1.373 . S
C1330 C1332 1.389 . S
C1331 H1310 0.950 . S
C1331 C1330 1.373 . S
C1331 C1347 1.377 . S
C1332 C1330 1.389 . S
C1332 C1333 1.524 . S
C1332 C1346 1.377 . S
C1333 C1332 1.524 . S
C1333 C1334 1.397 . S
C1333 C1338 1.363 . S
C1334 H1311 0.950 . S
C1334 C1333 1.397 . S
C1334 C1335 1.334 . S
C1335 H1312 0.950 . S
C1335 C1334 1.334 . S
C1335 C1336 1.287 . S
C1336 C1335 1.287 . S
C1336 C1337 1.524 . S
C1336 H1355 0.913 . S
C1337 H1313 0.950 . S
C1337 C1336 1.524 . S
C1337 C1338 1.415 . S
C1338 H1314 0.950 . S
C1338 C1333 1.363 . S
C1338 C1337 1.415 . S
C1339 H1315 0.951 . S
C1339 C1340 1.366 . S
C1339 C1341 1.388 . S
C1340 C1339 1.366 . S
C1340 C1344 1.385 . S
C1341 H1316 0.951 . S
C1341 C1339 1.388 . S
C1341 C1342 1.366 . S
C1342 C1341 1.366 . S
C1342 C1343 1.414 . S
C1342 C1345 1.499 . S
C1343 H1317 0.950 . S
C1343 C1342 1.414 . S
C1343 C1344 1.374 . S
C1344 H1318 0.950 . S
C1344 C1340 1.385 . S
C1344 C1343 1.374 . S
C1345 C1342 1.499 . S
C1345 C1346 1.373 . S
C1345 C1347 1.389 . S
C1346 H1319 0.950 . S
C1346 C1332 1.377 . S
C1346 C1345 1.373 . S
C1347 C1331 1.377 . S
C1347 C1345 1.389 . S
C1347 C1348 1.524 . S
C1348 C1347 1.524 . S
C1348 C1349 1.397 . S
C1348 C1353 1.363 . S
C1349 H1320 0.950 . S
C1349 C1348 1.397 . S
C1349 C1350 1.334 . S
C1350 H1321 0.950 . S
C1350 C1349 1.334 . S
C1350 C1351 1.287 . S
C1351 C1350 1.287 . S
C1351 C1352 1.524 . S
C1351 H1354 0.999 . S
C1352 H1322 0.950 . S
C1352 C1351 1.524 . S
C1352 C1353 1.415 . S
C1353 H1323 0.950 . S
C1353 C1348 1.363 . S
C1353 C1352 1.415 . S
H1354 C1351 0.999 . S
H1355 C1336 0.913 . S
H1356 C1374 0.951 . S
H1357 C1376 0.951 . S
H1358 C1378 0.950 . S
H1359 C1379 0.950 . S
H1360 C1381 0.950 . S
H1361 C1384 0.950 . S
H1362 C1385 0.950 . S
H1363 C1387 0.950 . S
H1364 C1388 0.950 . S
H1365 C1389 0.951 . S
H1366 C1391 0.951 . S
H1367 C1393 0.950 . S
H1368 C1394 0.950 . S
H1369 C1396 0.950 . S
H1370 C1399 0.950 . S
H1371 C1400 0.950 . S
H1372 C1402 0.950 . S
H1373 C1403 0.950 . S
C1374 H1356 0.951 . S
C1374 C1375 1.366 . S
C1374 C1376 1.388 . S
C1375 C1374 1.366 . S
C1375 C1379 1.385 . S
C1376 H1357 0.951 . S
C1376 C1374 1.388 . S
C1376 C1377 1.366 . S
C1377 C1376 1.366 . S
C1377 C1378 1.414 . S
C1377 C1380 1.499 . S
C1378 H1358 0.950 . S
C1378 C1377 1.414 . S
C1378 C1379 1.374 . S
C1379 H1359 0.950 . S
C1379 C1375 1.385 . S
C1379 C1378 1.374 . S
C1380 C1377 1.499 . S
C1380 C1381 1.373 . S
C1380 C1382 1.389 . S
C1381 H1360 0.950 . S
C1381 C1380 1.373 . S
C1381 C1397 1.377 . S
C1382 C1380 1.389 . S
C1382 C1383 1.524 . S
C1382 C1396 1.377 . S
C1383 C1382 1.524 . S
C1383 C1384 1.397 . S
C1383 C1388 1.363 . S
C1384 H1361 0.950 . S
C1384 C1383 1.397 . S
C1384 C1385 1.334 . S
C1385 H1362 0.950 . S
C1385 C1384 1.334 . S
C1385 C1386 1.287 . S
C1386 C1385 1.287 . S
C1386 C1387 1.524 . S
C1386 H1405 0.913 . S
C1387 H1363 0.950 . S
C1387 C1386 1.524 . S
C1387 C1388 1.415 . S
C1388 H1364 0.950 . S
C1388 C1383 1.363 . S
C1388 C1387 1.415 . S
C1389 H1365 0.951 . S
C1389 C1390 1.366 . S
C1389 C1391 1.388 . S
C1390 C1389 1.366 . S
C1390 C1394 1.385 . S
C1391 H1366 0.951 . S
C1391 C1389 1.388 . S
C1391 C1392 1.366 . S
C1392 C1391 1.366 . S
C1392 C1393 1.414 . S
C1392 C1395 1.499 . S
C1393 H1367 0.950 . S
C1393 C1392 1.414 . S
C1393 C1394 1.374 . S
C1394 H1368 0.950 . S
C1394 C1390 1.385 . S
C1394 C1393 1.374 . S
C1395 C1392 1.499 . S
C1395 C1396 1.373 . S
C1395 C1397 1.389 . S
C1396 H1369 0.950 . S
C1396 C1382 1.377 . S
C1396 C1395 1.373 . S
C1397 C1381 1.377 . S
C1397 C1395 1.389 . S
C1397 C1398 1.524 . S
C1398 C1397 1.524 . S
C1398 C1399 1.397 . S
C1398 C1403 1.363 . S
C1399 H1370 0.950 . S
C1399 C1398 1.397 . S
C1399 C1400 1.334 . S
C1400 H1371 0.950 . S
C1400 C1399 1.334 . S
C1400 C1401 1.287 . S
C1401 C1400 1.287 . S
C1401 C1402 1.524 . S
C1401 H1404 0.999 . S
C1402 H1372 0.950 . S
C1402 C1401 1.524 . S
C1402 C1403 1.415 . S
C1403 H1373 0.950 . S
C1403 C1398 1.363 . S
C1403 C1402 1.415 . S
H1404 C1401 0.999 . S
H1405 C1386 0.913 . S
H1406 C1424 0.951 . S
H1407 C1426 0.951 . S
H1408 C1428 0.950 . S
H1409 C1429 0.950 . S
H1410 C1431 0.950 . S
H1411 C1434 0.950 . S
H1412 C1435 0.950 . S
H1413 C1437 0.950 . S
H1414 C1438 0.950 . S
H1415 C1439 0.951 . S
H1416 C1441 0.951 . S
H1417 C1443 0.950 . S
H1418 C1444 0.950 . S
H1419 C1446 0.950 . S
H1420 C1449 0.950 . S
H1421 C1450 0.950 . S
H1422 C1452 0.950 . S
H1423 C1453 0.950 . S
C1424 H1406 0.951 . S
C1424 C1425 1.366 . S
C1424 C1426 1.388 . S
C1425 C1424 1.366 . S
C1425 C1429 1.385 . S
C1426 H1407 0.951 . S
C1426 C1424 1.388 . S
C1426 C1427 1.366 . S
C1427 C1426 1.366 . S
C1427 C1428 1.414 . S
C1427 C1430 1.499 . S
C1428 H1408 0.950 . S
C1428 C1427 1.414 . S
C1428 C1429 1.374 . S
C1429 H1409 0.950 . S
C1429 C1425 1.385 . S
C1429 C1428 1.374 . S
C1430 C1427 1.499 . S
C1430 C1431 1.373 . S
C1430 C1432 1.389 . S
C1431 H1410 0.950 . S
C1431 C1430 1.373 . S
C1431 C1447 1.377 . S
C1432 C1430 1.389 . S
C1432 C1433 1.524 . S
C1432 C1446 1.377 . S
C1433 C1432 1.524 . S
C1433 C1434 1.397 . S
C1433 C1438 1.363 . S
C1434 H1411 0.950 . S
C1434 C1433 1.397 . S
C1434 C1435 1.334 . S
C1435 H1412 0.950 . S
C1435 C1434 1.334 . S
C1435 C1436 1.287 . S
C1436 C1435 1.287 . S
C1436 C1437 1.524 . S
C1436 H1455 0.913 . S
C1437 H1413 0.950 . S
C1437 C1436 1.524 . S
C1437 C1438 1.415 . S
C1438 H1414 0.950 . S
C1438 C1433 1.363 . S
C1438 C1437 1.415 . S
C1439 H1415 0.951 . S
C1439 C1440 1.366 . S
C1439 C1441 1.388 . S
C1440 C1439 1.366 . S
C1440 C1444 1.385 . S
C1441 H1416 0.951 . S
C1441 C1439 1.388 . S
C1441 C1442 1.366 . S
C1442 C1441 1.366 . S
C1442 C1443 1.414 . S
C1442 C1445 1.499 . S
C1443 H1417 0.950 . S
C1443 C1442 1.414 . S
C1443 C1444 1.374 . S
C1444 H1418 0.950 . S
C1444 C1440 1.385 . S
C1444 C1443 1.374 . S
C1445 C1442 1.499 . S
C1445 C1446 1.373 . S
C1445 C1447 1.389 . S
C1446 H1419 0.950 . S
C1446 C1432 1.377 . S
C1446 C1445 1.373 . S
C1447 C1431 1.377 . S
C1447 C1445 1.389 . S
C1447 C1448 1.524 . S
C1448 C1447 1.524 . S
C1448 C1449 1.397 . S
C1448 C1453 1.363 . S
C1449 H1420 0.950 . S
C1449 C1448 1.397 . S
C1449 C1450 1.334 . S
C1450 H1421 0.950 . S
C1450 C1449 1.334 . S
C1450 C1451 1.287 . S
C1451 C1450 1.287 . S
C1451 C1452 1.524 . S
C1451 H1454 0.999 . S
C1452 H1422 0.950 . S
C1452 C1451 1.524 . S
C1452 C1453 1.415 . S
C1453 H1423 0.950 . S
C1453 C1448 1.363 . S
C1453 C1452 1.415 . S
H1454 C1451 0.999 . S
H1455 C1436 0.913 . S
H1456 C1474 0.951 . S
H1457 C1476 0.951 . S
H1458 C1478 0.950 . S
H1459 C1479 0.950 . S
H1460 C1481 0.950 . S
H1461 C1484 0.950 . S
H1462 C1485 0.950 . S
H1463 C1487 0.950 . S
H1464 C1488 0.950 . S
H1465 C1489 0.951 . S
H1466 C1491 0.951 . S
H1467 C1493 0.950 . S
H1468 C1494 0.950 . S
H1469 C1496 0.950 . S
H1470 C1499 0.950 . S
H1471 C1500 0.950 . S
H1472 C1502 0.950 . S
H1473 C1503 0.950 . S
C1474 H1456 0.951 . S
C1474 C1475 1.366 . S
C1474 C1476 1.388 . S
C1475 C1474 1.366 . S
C1475 C1479 1.385 . S
C1476 H1457 0.951 . S
C1476 C1474 1.388 . S
C1476 C1477 1.366 . S
C1477 C1476 1.366 . S
C1477 C1478 1.414 . S
C1477 C1480 1.499 . S
C1478 H1458 0.950 . S
C1478 C1477 1.414 . S
C1478 C1479 1.374 . S
C1479 H1459 0.950 . S
C1479 C1475 1.385 . S
C1479 C1478 1.374 . S
C1480 C1477 1.499 . S
C1480 C1481 1.373 . S
C1480 C1482 1.389 . S
C1481 H1460 0.950 . S
C1481 C1480 1.373 . S
C1481 C1497 1.377 . S
C1482 C1480 1.389 . S
C1482 C1483 1.524 . S
C1482 C1496 1.377 . S
C1483 C1482 1.524 . S
C1483 C1484 1.397 . S
C1483 C1488 1.363 . S
C1484 H1461 0.950 . S
C1484 C1483 1.397 . S
C1484 C1485 1.334 . S
C1485 H1462 0.950 . S
C1485 C1484 1.334 . S
C1485 C1486 1.287 . S
C1486 C1485 1.287 . S
C1486 C1487 1.524 . S
C1486 H1505 0.913 . S
C1487 H1463 0.950 . S
C1487 C1486 1.524 . S
C1487 C1488 1.415 . S
C1488 H1464 0.950 . S
C1488 C1483 1.363 . S
C1488 C1487 1.415 . S
C1489 H1465 0.951 . S
C1489 C1490 1.366 . S
C1489 C1491 1.388 . S
C1490 C1489 1.366 . S
C1490 C1494 1.385 . S
C1491 H1466 0.951 . S
C1491 C1489 1.388 . S
C1491 C1492 1.366 . S
C1492 C1491 1.366 . S
C1492 C1493 1.414 . S
C1492 C1495 1.499 . S
C1493 H1467 0.950 . S
C1493 C1492 1.414 . S
C1493 C1494 1.374 . S
C1494 H1468 0.950 . S
C1494 C1490 1.385 . S
C1494 C1493 1.374 . S
C1495 C1492 1.499 . S
C1495 C1496 1.373 . S
C1495 C1497 1.389 . S
C1496 H1469 0.950 . S
C1496 C1482 1.377 . S
C1496 C1495 1.373 . S
C1497 C1481 1.377 . S
C1497 C1495 1.389 . S
C1497 C1498 1.524 . S
C1498 C1497 1.524 . S
C1498 C1499 1.397 . S
C1498 C1503 1.363 . S
C1499 H1470 0.950 . S
C1499 C1498 1.397 . S
C1499 C1500 1.334 . S
C1500 H1471 0.950 . S
C1500 C1499 1.334 . S
C1500 C1501 1.287 . S
C1501 C1500 1.287 . S
C1501 C1502 1.524 . S
C1501 H1504 0.999 . S
C1502 H1472 0.950 . S
C1502 C1501 1.524 . S
C1502 C1503 1.415 . S
C1503 H1473 0.950 . S
C1503 C1498 1.363 . S
C1503 C1502 1.415 . S
H1504 C1501 0.999 . S
H1505 C1486 0.913 . S
H1506 C1524 0.951 . S
H1507 C1526 0.951 . S
H1508 C1528 0.950 . S
H1509 C1529 0.950 . S
H1510 C1531 0.950 . S
H1511 C1534 0.950 . S
H1512 C1535 0.950 . S
H1513 C1537 0.950 . S
H1514 C1538 0.950 . S
H1515 C1539 0.951 . S
H1516 C1541 0.951 . S
H1517 C1543 0.950 . S
H1518 C1544 0.950 . S
H1519 C1546 0.950 . S
H1520 C1549 0.950 . S
H1521 C1550 0.950 . S
H1522 C1552 0.950 . S
H1523 C1553 0.950 . S
C1524 H1506 0.951 . S
C1524 C1525 1.366 . S
C1524 C1526 1.388 . S
C1525 C1524 1.366 . S
C1525 C1529 1.385 . S
C1526 H1507 0.951 . S
C1526 C1524 1.388 . S
C1526 C1527 1.366 . S
C1527 C1526 1.366 . S
C1527 C1528 1.414 . S
C1527 C1530 1.499 . S
C1528 H1508 0.950 . S
C1528 C1527 1.414 . S
C1528 C1529 1.374 . S
C1529 H1509 0.950 . S
C1529 C1525 1.385 . S
C1529 C1528 1.374 . S
C1530 C1527 1.499 . S
C1530 C1531 1.373 . S
C1530 C1532 1.389 . S
C1531 H1510 0.950 . S
C1531 C1530 1.373 . S
C1531 C1547 1.377 . S
C1532 C1530 1.389 . S
C1532 C1533 1.524 . S
C1532 C1546 1.377 . S
C1533 C1532 1.524 . S
C1533 C1534 1.397 . S
C1533 C1538 1.363 . S
C1534 H1511 0.950 . S
C1534 C1533 1.397 . S
C1534 C1535 1.334 . S
C1535 H1512 0.950 . S
C1535 C1534 1.334 . S
C1535 C1536 1.287 . S
C1536 C1535 1.287 . S
C1536 C1537 1.524 . S
C1536 H1555 0.913 . S
C1537 H1513 0.950 . S
C1537 C1536 1.524 . S
C1537 C1538 1.415 . S
C1538 H1514 0.950 . S
C1538 C1533 1.363 . S
C1538 C1537 1.415 . S
C1539 H1515 0.951 . S
C1539 C1540 1.366 . S
C1539 C1541 1.388 . S
C1540 C1539 1.366 . S
C1540 C1544 1.385 . S
C1541 H1516 0.951 . S
C1541 C1539 1.388 . S
C1541 C1542 1.366 1_545 S
C1542 C1541 1.366 1_565 S
C1542 C1543 1.414 . S
C1542 C1545 1.499 . S
C1543 H1517 0.950 . S
C1543 C1542 1.414 . S
C1543 C1544 1.374 1_565 S
C1544 H1518 0.950 . S
C1544 C1540 1.385 . S
C1544 C1543 1.374 1_545 S
C1545 C1542 1.499 . S
C1545 C1546 1.373 . S
C1545 C1547 1.389 . S
C1546 H1519 0.950 . S
C1546 C1532 1.377 . S
C1546 C1545 1.373 . S
C1547 C1531 1.377 . S
C1547 C1545 1.389 . S
C1547 C1548 1.524 . S
C1548 C1547 1.524 . S
C1548 C1549 1.397 . S
C1548 C1553 1.363 . S
C1549 H1520 0.950 . S
C1549 C1548 1.397 . S
C1549 C1550 1.334 . S
C1550 H1521 0.950 . S
C1550 C1549 1.334 . S
C1550 C1551 1.287 . S
C1551 C1550 1.287 . S
C1551 C1552 1.524 . S
C1551 H1554 0.999 . S
C1552 H1522 0.950 . S
C1552 C1551 1.524 . S
C1552 C1553 1.415 . S
C1553 H1523 0.950 . S
C1553 C1548 1.363 . S
C1553 C1552 1.415 . S
H1554 C1551 0.999 . S
H1555 C1536 0.913 . S
H1556 C1574 0.951 . S
H1557 C1576 0.951 . S
H1558 C1578 0.950 . S
H1559 C1579 0.950 . S
H1560 C1581 0.950 . S
H1561 C1584 0.950 . S
H1562 C1585 0.950 . S
H1563 C1587 0.950 . S
H1564 C1588 0.950 . S
H1565 C1589 0.951 . S
H1566 C1591 0.951 . S
H1567 C1593 0.950 . S
H1568 C1594 0.950 . S
H1569 C1596 0.950 . S
H1570 C1599 0.950 . S
H1571 C1600 0.950 . S
H1572 C1602 0.950 . S
H1573 C1603 0.950 . S
C1574 H1556 0.951 . S
C1574 C1575 1.366 . S
C1574 C1576 1.388 . S
C1575 C1574 1.366 . S
C1575 C1579 1.385 . S
C1576 H1557 0.951 . S
C1576 C1574 1.388 . S
C1576 C1577 1.366 . S
C1577 C1576 1.366 . S
C1577 C1578 1.414 . S
C1577 C1580 1.499 . S
C1578 H1558 0.950 . S
C1578 C1577 1.414 . S
C1578 C1579 1.374 . S
C1579 H1559 0.950 . S
C1579 C1575 1.385 . S
C1579 C1578 1.374 . S
C1580 C1577 1.499 . S
C1580 C1581 1.373 . S
C1580 C1582 1.389 . S
C1581 H1560 0.950 . S
C1581 C1580 1.373 . S
C1581 C1597 1.377 . S
C1582 C1580 1.389 . S
C1582 C1583 1.524 . S
C1582 C1596 1.377 . S
C1583 C1582 1.524 . S
C1583 C1584 1.397 . S
C1583 C1588 1.363 . S
C1584 H1561 0.950 . S
C1584 C1583 1.397 . S
C1584 C1585 1.334 . S
C1585 H1562 0.950 . S
C1585 C1584 1.334 . S
C1585 C1586 1.287 . S
C1586 C1585 1.287 . S
C1586 C1587 1.524 . S
C1586 H1605 0.913 . S
C1587 H1563 0.950 . S
C1587 C1586 1.524 . S
C1587 C1588 1.415 . S
C1588 H1564 0.950 . S
C1588 C1583 1.363 . S
C1588 C1587 1.415 . S
C1589 H1565 0.951 . S
C1589 C1590 1.366 . S
C1589 C1591 1.388 . S
C1590 C1589 1.366 . S
C1590 C1594 1.385 . S
C1591 H1566 0.951 . S
C1591 C1589 1.388 . S
C1591 C1592 1.366 . S
C1592 C1591 1.366 . S
C1592 C1593 1.414 . S
C1592 C1595 1.499 . S
C1593 H1567 0.950 . S
C1593 C1592 1.414 . S
C1593 C1594 1.374 . S
C1594 H1568 0.950 . S
C1594 C1590 1.385 . S
C1594 C1593 1.374 . S
C1595 C1592 1.499 . S
C1595 C1596 1.373 . S
C1595 C1597 1.389 . S
C1596 H1569 0.950 . S
C1596 C1582 1.377 . S
C1596 C1595 1.373 . S
C1597 C1581 1.377 . S
C1597 C1595 1.389 . S
C1597 C1598 1.524 . S
C1598 C1597 1.524 . S
C1598 C1599 1.397 . S
C1598 C1603 1.363 . S
C1599 H1570 0.950 . S
C1599 C1598 1.397 . S
C1599 C1600 1.334 . S
C1600 H1571 0.950 . S
C1600 C1599 1.334 . S
C1600 C1601 1.287 . S
C1601 C1600 1.287 . S
C1601 C1602 1.524 . S
C1601 H1604 0.999 . S
C1602 H1572 0.950 . S
C1602 C1601 1.524 . S
C1602 C1603 1.415 . S
C1603 H1573 0.950 . S
C1603 C1598 1.363 . S
C1603 C1602 1.415 . S
H1604 C1601 0.999 . S
H1605 C1586 0.913 . S
C440 C110 1.548 . S
C425 C5 1.377 . S
C490 C179 1.478 . S
C475 C16 1.253 . S
C540 C117 1.731 . S
C525 C30 1.731 . S
C590 C180 1.620 . S
C575 C40 1.566 . S
C640 C233 1.429 . S
C625 C8 1.430 . S
C690 C269 1.478 . S
C675 C18 1.415 . S
C725 C29 1.748 . S
C740 C329 1.771 . S
C790 C392 1.558 . S
C775 C38 1.311 . S
C840 C232 1.378 . S
C825 C19 1.366 . S
C875 C27 1.492 . S
C890 C276 1.649 . S
C940 C322 1.598 . S
C925 C41 1.575 . S
C990 C391 1.535 . S
C975 C7 1.487 . S
C1025 C52 1.545 . S
C1040 C170 1.573 . S
C1090 C127 1.609 1_655 S
C1075 C62 1.571 . S
C1125 C74 1.351 . S
C1140 C163 1.358 . S
C1175 C82 1.207 . S
C1190 C126 1.396 . S
C1240 C338 1.839 . S
C1225 C51 1.745 . S
C1290 C382 1.609 . S
C1275 C60 1.369 . S
C1340 C216 1.484 . S
C1325 C71 1.258 . S
C1375 C84 1.432 . S
C1390 C285 1.484 . S
C1440 C339 1.717 . S
C1425 C63 1.710 . S
C1490 C375 1.480 . S
C1475 C73 1.434 . S
C1540 C223 1.524 . S
C1525 C85 1.531 . S
C1575 C49 1.391 . S
C1590 C286 1.675 . S
