# Generated by pormake.
# Topology scu, (8,4)-cn, num edge types: 1
# Building blocks:
#     Node 0, Type 0, BuildingBlock: VETTIZ_charged_sbu_0, # of connection points: 8
#     Node 1, Type 1, BuildingBlock: MUDLON_clean_sbu_0, # of connection points: 4
#     Node 2, Type 1, BuildingBlock: MUDLON_clean_sbu_0, # of connection points: 4
#     Edge 3, Type (0, 1), BuildingBlock: ZUJKAS_clean_linker_0, # of connection points: 2
#     Edge 4, Type (0, 1), BuildingBlock: ZUJKAS_clean_linker_0, # of connection points: 2
#     Edge 5, Type (0, 1), BuildingBlock: ZUJKAS_clean_linker_0, # of connection points: 2
#     Edge 6, Type (0, 1), BuildingBlock: ZUJKAS_clean_linker_0, # of connection points: 2
#     Edge 7, Type (0, 1), BuildingBlock: ZUJKAS_clean_linker_0, # of connection points: 2
#     Edge 8, Type (0, 1), BuildingBlock: ZUJKAS_clean_linker_0, # of connection points: 2
#     Edge 9, Type (0, 1), BuildingBlock: ZUJKAS_clean_linker_0, # of connection points: 2
#     Edge 10, Type (0, 1), BuildingBlock: ZUJKAS_clean_linker_0, # of connection points: 2
# Relax obj value: 0.036
# Max RMSD: 0.093
# Mean RMSD: 0.083
data_MOF--net-scu--node1-VETTIZ_charged_sbu_0--node2-MUDLON_clean_sbu_0--edge1-ZUJKAS_clean_linker_0
_symmetry_space_group_name_H-M    P1
_symmetry_Int_Tables_number       1
_symmetry_cell_setting            triclinic
loop_
_symmetry_equiv_pos_as_xyz
'x, y, z'
_cell_length_a     30.961154
_cell_length_b     31.630041
_cell_length_c     26.095583
_cell_angle_alpha  90.159186
_cell_angle_beta   89.962447
_cell_angle_gamma 88.883925
loop_
_atom_site_label
_atom_site_type_symbol
_atom_site_fract_x
_atom_site_fract_y
_atom_site_fract_z
_atom_type_partial_charge
Fe0 Fe 1.01958 0.01195 0.07272 0.0
O1 O 1.01642 0.05487 0.01662 0.0
Fe2 Fe 0.06994 0.92587 0.01137 0.0
Fe3 Fe 0.97153 0.09968 0.01401 0.0
O4 O 0.02474 0.97055 0.01476 0.0
O5 O 0.0257 0.97086 0.00959 0.0
O6 O 1.01608 0.05485 0.01142 0.0
Fe7 Fe 1.02178 0.01364 0.95366 0.0
C8 C 0.92647 0.03589 0.08307 0.0
O9 O 1.01585 0.06286 0.12543 0.0
O10 O 1.00839 0.12208 0.07362 0.0
O11 O 0.08727 0.02164 0.95371 0.0
O12 O 0.10988 0.95446 0.9579 0.0
O13 O 0.10672 0.9507 0.06914 0.0
O14 O 0.08563 0.01808 0.07702 0.0
O15 O 1.00694 0.12303 0.95407 0.0
O16 O 1.01699 0.0647 0.902 0.0
C17 C 0.11285 0.98816 0.08486 0.0
O18 O 0.02814 0.96402 0.89985 0.0
O19 O 0.03549 0.90406 0.94944 0.0
O20 O 0.95329 1.00585 0.07368 0.0
O21 O 0.93391 0.07377 0.07017 0.0
C22 C 1.01872 0.10336 0.11636 0.0
C23 C 1.01625 0.10538 0.9104 0.0
C24 C 0.92736 0.03386 0.94454 0.0
O25 O 0.93242 0.07215 0.95868 0.0
O26 O 0.95646 1.00554 0.95113 0.0
C27 C 0.11582 0.99299 0.94564 0.0
O28 O 0.03237 0.90193 0.06963 0.0
O29 O 1.02185 0.95979 0.12308 0.0
C30 C 0.02812 0.92314 0.90624 0.0
C31 C 1.02061 0.91929 0.11294 0.0
Mg32 Mg 1.01068 0.52021 0.49178 0.0
C33 C 0.07411 0.46832 0.42055 0.0
O34 O 0.1052 0.47773 0.45259 0.0
C35 C 0.04218 0.56945 0.57889 0.0
O36 O 1.01457 0.5436 0.5998 0.0
C37 C 0.02447 0.44749 0.55659 0.0
O38 O 0.06279 0.4595 0.54168 0.0
O39 O 0.99167 0.46996 0.5439 0.0
O40 O 0.03662 0.48466 0.42677 0.0
O41 O 0.96088 0.5637 0.46366 0.0
C42 C 0.95498 0.56698 0.4156 0.0
O43 O 0.97188 0.53782 0.38532 0.0
O44 O 0.05201 0.56413 0.53194 0.0
Mg45 Mg 0.52001 1.0034 0.53239 0.0
C46 C 0.46026 1.00188 0.4481 0.0
O47 O 0.48085 0.03773 0.44534 0.0
C48 C 0.59491 0.95392 0.58073 0.0
O49 O 0.61089 0.95736 0.53438 0.0
C50 C 0.48601 0.04816 0.62709 0.0
O51 O 0.52111 0.03067 0.64657 0.0
O52 O 0.48093 0.04737 0.57867 0.0
O53 O 0.47001 0.9762 0.48403 0.0
O54 O 0.56817 0.02658 0.4779 0.0
C55 C 0.57596 1.00014 0.44189 0.0
O56 O 0.5547 0.96459 0.44146 0.0
O57 O 0.55568 0.96494 0.58849 0.0
H58 H 0.09134 0.14801 0.10955 0.0
H59 H 0.114 0.20534 0.16592 0.0
H60 H 1.00638 0.18114 0.26619 0.0
H61 H 0.98473 0.12248 0.21045 0.0
H62 H 0.06664 0.27409 0.17884 0.0
H63 H 0.09925 0.20479 0.3697 0.0
H64 H 0.0953 0.17282 0.31252 0.0
H65 H 0.04722 0.19081 0.34547 0.0
C66 C 0.07349 0.1541 0.14463 0.0
C67 C 0.03659 0.13091 0.15614 0.0
C68 C 0.0863 0.18691 0.17667 0.0
C69 C 0.06207 0.19757 0.22048 0.0
C70 C 0.02622 0.17299 0.23332 0.0
H71 H 1.01726 0.44329 0.34727 0.0
H72 H 1.01972 0.37815 0.29735 0.0
C73 C 1.01376 0.13957 0.2015 0.0
C74 C 0.07102 0.23752 0.24835 0.0
H75 H 0.08657 0.2801 0.36719 0.0
C76 C 0.0716 0.27521 0.21996 0.0
C77 C 0.07798 0.23915 0.30189 0.0
C78 C 0.08037 0.19966 0.3341 0.0
C79 C 0.07744 0.31449 0.24373 0.0
C80 C 0.08178 0.31639 0.2976 0.0
C81 C 0.08287 0.27864 0.3259 0.0
C82 C 0.08234 0.35735 0.32545 0.0
C83 C 0.07873 0.35361 0.21082 0.0
C84 C 0.11674 0.36741 0.35803 0.0
C85 C 0.1154 0.40482 0.38695 0.0
C86 C 0.07936 0.43253 0.38412 0.0
C87 C 0.04561 0.42283 0.35026 0.0
C88 C 0.047 0.38558 0.32149 0.0
H89 H 0.08916 0.34587 0.17108 0.0
H90 H 0.04585 0.3681 0.20875 0.0
H91 H 0.10096 0.37732 0.22698 0.0
H92 H 0.14426 0.34597 0.36176 0.0
H93 H 0.14175 0.41112 0.41297 0.0
H94 H 0.85734 0.08916 0.09675 0.0
H95 H 0.79756 0.08205 0.15646 0.0
H96 H 0.84637 0.95889 0.20089 0.0
H97 H 0.90737 0.96612 0.14154 0.0
H98 H 0.73341 0.0249 0.16401 0.0
H99 H 0.83652 0.02103 0.33813 0.0
H100 H 0.85696 0.03552 0.27596 0.0
H101 H 0.84939 0.98084 0.29148 0.0
C102 C 0.85543 0.06037 0.11895 0.0
C103 C 0.88747 0.02835 0.11461 0.0
C104 C 0.82109 0.05638 0.1531 0.0
C105 C 0.8179 0.02036 0.18392 0.0
C106 C 0.84872 0.98741 0.17827 0.0
H107 H 0.59354 0.951 0.35867 0.0
H108 H 0.65158 0.95791 0.2966 0.0
C109 C 0.88329 0.99137 0.14392 0.0
C110 C 0.78238 0.0181 0.22211 0.0
H111 H 0.76148 0.01166 0.35049 0.0
C112 C 0.73957 0.02194 0.20477 0.0
C113 C 0.79046 0.01517 0.27541 0.0
C114 C 0.83579 0.0133 0.29658 0.0
C115 C 0.70462 0.02234 0.23911 0.0
C116 C 0.71262 0.01804 0.29224 0.0
C117 C 0.75542 0.01482 0.30973 0.0
C118 C 0.67687 0.01497 0.32996 0.0
C119 C 0.65945 0.02799 0.21818 0.0
C120 C 0.67211 0.04446 0.3701 0.0
C121 C 0.63876 0.04053 0.40615 0.0
C122 C 0.60998 1.00678 0.40282 0.0
C123 C 0.61497 0.9775 0.36243 0.0
C124 C 0.64807 0.98147 0.3266 0.0
H125 H 0.65955 0.043 0.17974 0.0
H126 H 0.64449 0.99655 0.21427 0.0
H127 H 0.63901 0.04762 0.24432 0.0
H128 H 0.6942 0.07045 0.37352 0.0
H129 H 0.63594 0.06344 0.43695 0.0
H130 H 0.9939 0.93816 0.21174 0.0
H131 H 0.96677 0.88872 0.27619 0.0
H132 H 0.98251 0.7858 0.16881 0.0
H133 H 1.00934 0.83413 0.10471 0.0
H134 H 0.89938 0.79071 0.22419 0.0
H135 H 0.04488 0.79643 0.34985 0.0
H136 H 1.01892 0.8453 0.33056 0.0
H137 H 0.0467 0.81325 0.28383 0.0
C138 C 0.99168 0.90499 0.20188 0.0
C139 C 1.00423 0.89025 0.15297 0.0
C140 C 0.97615 0.87684 0.23876 0.0
C141 C 0.97281 0.83362 0.22721 0.0
C142 C 0.98475 0.81905 0.17843 0.0
H143 H 0.93959 0.58497 0.31505 0.0
H144 H 0.93331 0.65477 0.2764 0.0
C145 C 1.00034 0.84688 0.14184 0.0
C146 C 0.95809 0.80257 0.26556 0.0
H147 H 0.99501 0.74345 0.3661 0.0
C148 C 0.91978 0.78089 0.25596 0.0
C149 C 0.98459 0.79007 0.30712 0.0
C150 C 0.0262 0.8122 0.31872 0.0
C151 C 0.90844 0.74556 0.28515 0.0
C152 C 0.93666 0.73101 0.32419 0.0
C153 C 0.97343 0.75451 0.33607 0.0
C154 C 0.93206 0.68888 0.34848 0.0
C155 C 0.86694 0.7235 0.27293 0.0
C156 C 0.93282 0.68454 0.40201 0.0
C157 C 0.93663 0.64442 0.42435 0.0
C158 C 0.94034 0.60795 0.39344 0.0
C159 C 0.93678 0.61231 0.34001 0.0
C160 C 0.9329 0.65233 0.31779 0.0
H161 H 0.84237 0.7461 0.25739 0.0
H162 H 0.8733 0.69904 0.24316 0.0
H163 H 0.8534 0.70793 0.3073 0.0
H164 H 0.93243 0.71229 0.42645 0.0
H165 H 0.93941 0.64227 0.46563 0.0
H166 H 0.19088 0.94753 0.08127 0.0
H167 H 0.24882 0.95024 0.14457 0.0
H168 H 0.1765 0.04473 0.23009 0.0
H169 H 0.11912 0.04346 0.16536 0.0
H170 H 0.25862 0.06219 0.232 0.0
H171 H 0.24384 0.89317 0.2803 0.0
H172 H 0.25579 0.89977 0.21365 0.0
H173 H 0.2056 0.92044 0.23941 0.0
C174 C 0.18761 0.9693 0.11323 0.0
C175 C 0.15038 0.99504 0.11863 0.0
C176 C 0.2205 0.97043 0.14975 0.0
C177 C 0.21634 0.99645 0.19321 0.0
C178 C 0.1802 0.02391 0.19727 0.0
H179 H 0.38418 0.96012 0.46251 0.0
H180 H 0.32271 0.95838 0.40282 0.0
C181 C 0.14754 0.02338 0.16013 0.0
C182 C 0.24972 0.99487 0.23421 0.0
H183 H 0.3079 0.92685 0.31031 0.0
C184 C 0.26909 0.03262 0.2494 0.0
C185 C 0.26269 0.95647 0.25816 0.0
C186 C 0.24051 0.91529 0.24747 0.0
C187 C 0.30212 0.03285 0.28623 0.0
C188 C 0.31742 0.99403 0.30715 0.0
C189 C 0.29686 0.95649 0.29357 0.0
C190 C 0.35532 0.99182 0.34212 0.0
C191 C 0.31982 0.07489 0.30273 0.0
C192 C 0.3946 1.00934 0.32705 0.0
C193 C 0.4292 1.01085 0.36113 0.0
C194 C 0.42577 0.99374 0.41054 0.0
C195 C 0.38763 0.97341 0.42455 0.0
C196 C 0.35252 0.97263 0.39059 0.0
H197 H 0.29558 0.10087 0.29736 0.0
H198 H 0.32985 0.07444 0.34357 0.0
H199 H 0.34834 0.08225 0.27881 0.0
H200 H 0.39823 0.02281 0.28922 0.0
H201 H 0.45849 0.0262 0.34911 0.0
H202 H 0.05138 0.93883 0.80665 0.0
H203 H 0.05448 0.88742 0.73577 0.0
H204 H 0.99883 0.79336 0.83376 0.0
H205 H 0.99559 0.8441 0.90413 0.0
H206 H 0.10206 0.80882 0.74107 0.0
H207 H 0.92926 0.78285 0.70049 0.0
H208 H 0.94794 0.82926 0.73368 0.0
H209 H 0.9412 0.7804 0.76771 0.0
C210 C 0.03876 0.90751 0.81253 0.0
C211 C 0.02324 0.89545 0.86092 0.0
C212 C 0.04082 0.87815 0.77218 0.0
C213 C 0.02658 0.8367 0.77944 0.0
C214 C 1.00937 0.82533 0.82705 0.0
H215 H 0.03235 0.5859 0.68047 0.0
H216 H 0.03363 0.65479 0.72261 0.0
C217 C 1.00773 0.85434 0.86734 0.0
C218 C 0.03279 0.80376 0.73946 0.0
H219 H 0.9787 0.72595 0.67729 0.0
C220 C 0.07511 0.79128 0.72596 0.0
C221 C 0.99757 0.78103 0.71983 0.0
C222 C 0.95142 0.79432 0.73075 0.0
C223 C 0.08314 0.75479 0.69626 0.0
C224 C 0.04797 0.73054 0.67968 0.0
C225 C 1.00564 0.74448 0.69056 0.0
C226 C 0.05404 0.68859 0.65519 0.0
C227 C 0.12906 0.74084 0.68529 0.0
C228 C 0.06656 0.68464 0.60367 0.0
C229 C 0.066 0.64507 0.57932 0.0
C230 C 0.05257 0.60907 0.6062 0.0
C231 C 0.04265 0.61297 0.6586 0.0
C232 C 0.04325 0.65234 0.68276 0.0
H233 H 0.15294 0.7621 0.70316 0.0
H234 H 0.13477 0.70821 0.69974 0.0
H235 H 0.13455 0.74026 0.64326 0.0
H236 H 0.07476 0.71238 0.58174 0.0
H237 H 0.07355 0.64317 0.53884 0.0
H238 H 0.13647 0.07012 0.90553 0.0
H239 H 0.19857 0.08718 0.85213 0.0
H240 H 0.24738 0.95924 0.8671 0.0
H241 H 0.18507 0.94158 0.92 0.0
H242 H 0.28683 0.08346 0.86963 0.0
H243 H 0.2419 0.97505 0.71199 0.0
H244 H 0.20526 0.98911 0.76336 0.0
H245 H 0.24674 0.94933 0.773 0.0
C246 C 0.16048 0.04556 0.8978 0.0
C247 C 0.15546 1.00429 0.91687 0.0
C248 C 0.19601 0.05544 0.86719 0.0
C249 C 0.22722 0.02432 0.85478 0.0
C250 C 0.22319 0.98354 0.87521 0.0
H251 H 0.48372 0.04511 0.7317 0.0
H252 H 0.41988 0.04556 0.78637 0.0
C253 C 0.18763 0.97357 0.90576 0.0
C254 C 0.26368 0.03437 0.81998 0.0
H255 H 0.31182 1.00468 0.70736 0.0
C256 C 0.29219 0.06642 0.83399 0.0
C257 C 0.27016 0.01279 0.77293 0.0
C258 C 0.23917 0.97995 0.75406 0.0
C259 C 0.32779 0.07646 0.80307 0.0
C260 C 0.33549 0.05337 0.75729 0.0
C261 C 0.30616 0.02226 0.74256 0.0
C262 C 0.37467 0.05931 0.72515 0.0
C263 C 0.3566 0.11189 0.81961 0.0
C264 C 0.37082 0.0673 0.67237 0.0
C265 C 0.40742 0.06676 0.64075 0.0
C266 C 0.44864 0.05789 0.66124 0.0
C267 C 0.45258 0.0522 0.71453 0.0
C268 C 0.41601 0.05264 0.74604 0.0
H269 H 0.33911 0.13477 0.84491 0.0
H270 H 0.3843 0.09852 0.84161 0.0
H271 H 0.36945 0.12918 0.78609 0.0
H272 H 0.33926 0.07246 0.65532 0.0
H273 H 0.40309 0.07116 0.59991 0.0
H274 H 1.01421 0.08851 0.80664 0.0
H275 H 1.01862 0.14009 0.73661 0.0
H276 H 0.03727 0.23987 0.84686 0.0
H277 H 0.03397 0.18917 0.91623 0.0
H278 H 0.96444 0.21044 0.72056 0.0
H279 H 0.13319 0.26046 0.74505 0.0
H280 H 0.11297 0.21296 0.7739 0.0
H281 H 0.10381 0.26359 0.8042 0.0
C282 C 1.02013 0.12131 0.81581 0.0
C283 C 0.0237 0.13463 0.86711 0.0
C284 C 1.02235 0.15074 0.77581 0.0
C285 C 0.02872 0.19374 0.78655 0.0
C286 C 0.03317 0.20679 0.83757 0.0
H287 H 0.96083 0.42344 0.62363 0.0
H288 H 0.96006 0.35846 0.67505 0.0
C289 C 0.03096 0.17764 0.8773 0.0
C290 C 0.0286 0.22587 0.74531 0.0
H291 H 0.08579 0.30912 0.70082 0.0
C292 C 0.99121 0.23165 0.71551 0.0
C293 C 0.0637 0.25321 0.73842 0.0
C294 C 0.10583 0.24698 0.76674 0.0
C295 C 0.98733 0.2652 0.68045 0.0
C296 C 1.02138 0.29422 0.6761 0.0
C297 C 0.05937 0.28731 0.70455 0.0
C298 C 1.01897 0.3319 0.64223 0.0
C299 C 0.94694 0.26904 0.64839 0.0
C300 C 0.05246 0.3389 0.60724 0.0
C301 C 0.05347 0.37622 0.57911 0.0
C302 C 1.02075 0.4073 0.58478 0.0
C303 C 0.98631 0.39987 0.61838 0.0
C304 C 0.98571 0.36261 0.64741 0.0
H305 H 0.93095 0.23807 0.64426 0.0
H306 H 0.92375 0.29117 0.66745 0.0
H307 H 0.95413 0.28142 0.6096 0.0
H308 H 0.07842 0.31575 0.60242 0.0
H309 H 0.08021 0.38083 0.55302 0.0
H310 H 0.90713 0.95618 0.90579 0.0
H311 H 0.84647 0.9384 0.85076 0.0
H312 H 0.7973 0.06653 0.86222 0.0
H313 H 0.85839 0.085 0.91693 0.0
H314 H 0.75638 0.9434 0.86331 0.0
H315 H 0.81263 0.04832 0.70744 0.0
H316 H 0.84605 0.03443 0.76168 0.0
H317 H 0.80407 0.07414 0.7681 0.0
C318 C 0.88332 0.98066 0.89706 0.0
C319 C 0.88803 0.02225 0.91545 0.0
C320 C 0.84855 0.97032 0.86562 0.0
C321 C 0.81774 1.00126 0.85171 0.0
C322 C 0.82117 0.04233 0.87174 0.0
H323 H 0.57795 0.96554 0.68328 0.0
H324 H 0.63112 0.97275 0.75184 0.0
C325 C 0.85603 0.05279 0.90321 0.0
C326 C 0.78336 0.9908 0.81434 0.0
H327 H 0.74641 0.01426 0.69431 0.0
C328 C 0.75407 0.95891 0.82637 0.0
C329 C 0.78089 1.01059 0.76585 0.0
C330 C 0.81277 0.04351 0.74961 0.0
C331 C 0.72214 0.94656 0.79133 0.0
C332 C 0.7192 0.96696 0.74325 0.0
C333 C 0.74862 0.99869 0.73124 0.0
C334 C 0.68619 0.95607 0.70429 0.0
C335 C 0.69247 0.91121 0.80557 0.0
C336 C 0.69927 0.94347 0.65496 0.0
C337 C 0.66901 0.93958 0.61561 0.0
C338 C 0.62495 0.94846 0.62466 0.0
C339 C 0.61157 0.95839 0.67492 0.0
C340 C 0.64197 0.96243 0.7143 0.0
H341 H 0.70584 0.89179 0.83745 0.0
H342 H 0.66094 0.92489 0.81822 0.0
H343 H 0.68656 0.89026 0.77218 0.0
H344 H 0.73322 0.93829 0.64639 0.0
H345 H 0.68049 0.93172 0.57748 0.0
loop_
_geom_bond_atom_site_label_1
_geom_bond_atom_site_label_2
_geom_bond_distance
_geom_bond_site_symmetry_2
_ccdc_geom_bond_type
Fe0 O1 1.906 . S
Fe0 O4 1.695 1_645 S
Fe0 O9 2.098 1_655 S
Fe0 O14 1.924 1_655 S
Fe0 O20 2.092 1_545 S
Fe0 O29 1.916 1_545 S
O1 Fe0 1.906 . S
O1 Fe3 1.715 . S
Fe2 O4 1.886 . S
Fe2 O5 1.715 1_554 S
Fe2 O12 1.935 1_554 S
Fe2 O13 2.077 . S
Fe2 O19 1.935 1_554 S
Fe2 O28 2.077 . S
Fe3 O1 1.715 . S
Fe3 O6 1.886 1_554 S
Fe3 O10 1.935 . S
Fe3 O15 2.077 1_554 S
Fe3 O21 1.935 . S
Fe3 O25 2.077 1_554 S
O4 Fe0 1.695 1_465 S
O4 Fe2 1.886 . S
O5 Fe2 1.715 1_556 S
O5 Fe7 1.906 . S
O6 Fe3 1.886 1_556 S
O6 Fe7 1.695 1_645 S
Fe7 O5 1.906 . S
Fe7 O6 1.695 1_465 S
Fe7 O11 2.098 1_565 S
Fe7 O16 1.924 1_565 S
Fe7 O18 2.092 1_455 S
Fe7 O26 1.916 1_455 S
C8 O20 1.381 1_545 S
C8 O21 1.421 . S
O9 Fe0 2.098 1_455 S
O9 C22 1.381 1_455 S
O10 Fe3 1.935 . S
O10 C22 1.421 . S
O11 Fe7 2.098 1_545 S
O11 C27 1.381 1_545 S
O12 Fe2 1.935 1_556 S
O12 C27 1.421 . S
O13 Fe2 2.077 . S
O13 C17 1.381 . S
O14 Fe0 1.924 1_455 S
O14 C17 1.421 1_545 S
O15 Fe3 2.077 1_556 S
O15 C23 1.381 . S
O16 Fe7 1.924 1_545 S
O16 C23 1.421 1_455 S
C17 O13 1.381 . S
C17 O14 1.421 1_565 S
O18 Fe7 2.092 1_655 S
O18 C30 1.381 1_655 S
O19 Fe2 1.935 1_556 S
O19 C30 1.421 . S
O20 Fe0 2.092 1_565 S
O20 C8 1.381 1_565 S
O21 Fe3 1.935 . S
O21 C8 1.421 . S
C22 O9 1.381 1_655 S
C22 O10 1.421 . S
C23 O15 1.381 . S
C23 O16 1.421 1_655 S
C24 O25 1.381 . S
C24 O26 1.421 1_545 S
O25 Fe3 2.077 1_556 S
O25 C24 1.381 . S
O26 Fe7 1.916 1_655 S
O26 C24 1.421 1_565 S
C27 O11 1.381 1_565 S
C27 O12 1.421 . S
O28 Fe2 2.077 . S
O28 C31 1.381 . S
O29 Fe0 1.916 1_565 S
O29 C31 1.421 1_655 S
C30 O18 1.381 1_455 S
C30 O19 1.421 . S
C31 O28 1.381 . S
C31 O29 1.421 1_455 S
Mg32 O39 2.141 . S
Mg32 O40 2.048 . S
Mg32 O41 2.048 . S
Mg32 O44 2.141 . S
C33 O34 1.313 . S
C33 O40 1.195 1_455 S
O34 C33 1.313 . S
C35 O36 1.245 . S
C35 O44 1.289 1_455 S
O36 C35 1.245 . S
C37 O38 1.245 . S
C37 O39 1.289 1_455 S
O38 C37 1.245 . S
O39 Mg32 2.141 . S
O39 C37 1.289 1_655 S
O40 Mg32 2.048 . S
O40 C33 1.195 1_655 S
O41 Mg32 2.048 . S
O41 C42 1.195 1_655 S
C42 O41 1.195 1_455 S
C42 O43 1.313 . S
O43 C42 1.313 . S
O44 Mg32 2.141 . S
O44 C35 1.289 1_655 S
Mg45 O52 2.141 . S
Mg45 O53 2.048 . S
Mg45 O54 2.048 . S
Mg45 O57 2.141 . S
C46 O47 1.313 . S
C46 O53 1.195 1_565 S
O47 C46 1.313 . S
C48 O49 1.245 . S
C48 O57 1.289 1_565 S
O49 C48 1.245 . S
C50 O51 1.245 . S
C50 O52 1.289 1_565 S
O51 C50 1.245 . S
O52 Mg45 2.141 . S
O52 C50 1.289 1_545 S
O53 Mg45 2.048 . S
O53 C46 1.195 1_545 S
O54 Mg45 2.048 . S
O54 C55 1.195 1_545 S
C55 O54 1.195 1_565 S
C55 O56 1.313 . S
O56 C55 1.313 . S
O57 Mg45 2.141 . S
O57 C48 1.289 1_545 S
H58 C66 0.929 . S
H59 C68 0.930 . S
H60 C70 0.930 . S
H61 C73 0.929 . S
H62 C76 0.930 . S
H63 C78 0.960 . S
H64 C78 0.960 1_455 S
H65 C78 0.960 . S
C66 H58 0.929 . S
C66 C67 1.395 . S
C66 C68 1.384 . S
C67 C66 1.395 . S
C67 C73 1.372 1_455 S
C68 H59 0.930 . S
C68 C66 1.384 . S
C68 C69 1.372 . S
C69 C68 1.372 . S
C69 C70 1.400 1_455 S
C69 C74 1.490 . S
C70 H60 0.930 . S
C70 C69 1.400 1_655 S
C70 C73 1.386 . S
H71 C87 0.930 . S
H72 C88 0.931 . S
C73 H61 0.929 . S
C73 C67 1.372 1_655 S
C73 C70 1.386 . S
C74 C69 1.490 . S
C74 C76 1.395 . S
C74 C77 1.403 1_455 S
H75 C81 0.930 . S
C76 H62 0.930 . S
C76 C74 1.395 . S
C76 C79 1.403 . S
C77 C74 1.403 1_655 S
C77 C78 1.524 . S
C77 C81 1.400 . S
C78 H63 0.960 . S
C78 H64 0.960 1_655 S
C78 H65 0.960 . S
C78 C77 1.524 . S
C79 C76 1.403 . S
C79 C80 1.392 . S
C79 C83 1.495 . S
C80 C79 1.392 . S
C80 C81 1.385 1_455 S
C80 C82 1.478 . S
C81 H75 0.930 . S
C81 C77 1.400 . S
C81 C80 1.385 1_655 S
C82 C80 1.478 . S
C82 C84 1.381 . S
C82 C88 1.383 1_455 S
C83 C79 1.495 . S
C83 H89 0.959 . S
C83 H90 0.961 1_455 S
C83 H91 0.960 . S
C84 C82 1.381 . S
C84 C85 1.394 . S
C84 H92 0.930 . S
C85 C84 1.394 . S
C85 C86 1.392 . S
C85 H93 0.929 . S
C86 C85 1.392 . S
C86 C87 1.368 1_455 S
C87 H71 0.930 . S
C87 C86 1.368 1_655 S
C87 C88 1.379 . S
C88 H72 0.931 . S
C88 C82 1.383 1_655 S
C88 C87 1.379 . S
H89 C83 0.959 . S
H90 C83 0.961 1_655 S
H91 C83 0.960 . S
H92 C84 0.930 . S
H93 C85 0.929 . S
H94 C102 0.929 . S
H95 C104 0.930 . S
H96 C106 0.930 . S
H97 C109 0.929 . S
H98 C112 0.930 . S
H99 C114 0.960 . S
H100 C114 0.960 1_545 S
H101 C114 0.960 . S
C102 H94 0.929 . S
C102 C103 1.388 . S
C102 C104 1.384 . S
C103 C102 1.388 . S
C103 C109 1.380 1_545 S
C104 H95 0.930 . S
C104 C102 1.384 . S
C104 C105 1.372 . S
C105 C104 1.372 . S
C105 C106 1.400 1_545 S
C105 C110 1.490 . S
C106 H96 0.930 . S
C106 C105 1.400 1_565 S
C106 C109 1.386 . S
H107 C123 0.930 . S
H108 C124 0.931 . S
C109 H97 0.929 . S
C109 C103 1.380 1_565 S
C109 C106 1.386 . S
C110 C105 1.490 . S
C110 C112 1.395 . S
C110 C113 1.403 1_545 S
H111 C117 0.930 . S
C112 H98 0.930 . S
C112 C110 1.395 . S
C112 C115 1.403 . S
C113 C110 1.403 1_565 S
C113 C114 1.524 . S
C113 C117 1.400 . S
C114 H99 0.960 . S
C114 H100 0.960 1_565 S
C114 H101 0.960 . S
C114 C113 1.524 . S
C115 C112 1.403 . S
C115 C116 1.392 . S
C115 C119 1.495 . S
C116 C115 1.392 . S
C116 C117 1.385 1_545 S
C116 C118 1.478 . S
C117 H111 0.930 . S
C117 C113 1.400 . S
C117 C116 1.385 1_565 S
C118 C116 1.478 . S
C118 C120 1.381 . S
C118 C124 1.383 1_545 S
C119 C115 1.495 . S
C119 H125 0.959 . S
C119 H126 0.961 1_545 S
C119 H127 0.960 . S
C120 C118 1.381 . S
C120 C121 1.394 . S
C120 H128 0.930 . S
C121 C120 1.394 . S
C121 C122 1.394 . S
C121 H129 0.929 . S
C122 C121 1.394 . S
C122 C123 1.366 1_545 S
C123 H107 0.930 . S
C123 C122 1.366 1_565 S
C123 C124 1.379 . S
C124 H108 0.931 . S
C124 C118 1.383 1_565 S
C124 C123 1.379 . S
H125 C119 0.959 . S
H126 C119 0.961 1_565 S
H127 C119 0.960 . S
H128 C120 0.930 . S
H129 C121 0.929 . S
H130 C138 0.929 . S
H131 C140 0.930 . S
H132 C142 0.930 . S
H133 C145 0.929 . S
H134 C148 0.930 . S
H135 C150 0.960 . S
H136 C150 0.960 . S
H137 C150 0.960 . S
C138 H130 0.929 . S
C138 C139 1.380 . S
C138 C140 1.384 . S
C139 C138 1.380 . S
C139 C145 1.387 1_655 S
C140 H131 0.930 . S
C140 C138 1.384 . S
C140 C141 1.372 . S
C141 C140 1.372 . S
C141 C142 1.400 1_655 S
C141 C146 1.490 . S
C142 H132 0.930 . S
C142 C141 1.400 1_455 S
C142 C145 1.386 . S
H143 C159 0.930 . S
H144 C160 0.931 . S
C145 H133 0.929 . S
C145 C139 1.387 1_455 S
C145 C142 1.386 . S
C146 C141 1.490 . S
C146 C148 1.395 . S
C146 C149 1.403 1_655 S
H147 C153 0.930 . S
C148 H134 0.930 . S
C148 C146 1.395 . S
C148 C151 1.403 . S
C149 C146 1.403 1_455 S
C149 C150 1.524 . S
C149 C153 1.400 . S
C150 H135 0.960 . S
C150 H136 0.960 . S
C150 H137 0.960 . S
C150 C149 1.524 . S
C151 C148 1.403 . S
C151 C152 1.392 . S
C151 C155 1.495 . S
C152 C151 1.392 . S
C152 C153 1.385 1_655 S
C152 C154 1.478 . S
C153 H147 0.930 . S
C153 C149 1.400 . S
C153 C152 1.385 1_455 S
C154 C152 1.478 . S
C154 C156 1.381 . S
C154 C160 1.383 1_655 S
C155 C151 1.495 . S
C155 H161 0.959 . S
C155 H162 0.961 . S
C155 H163 0.960 . S
C156 C154 1.381 . S
C156 C157 1.394 . S
C156 H164 0.930 . S
C157 C156 1.394 . S
C157 C158 1.383 . S
C157 H165 0.929 . S
C158 C157 1.383 . S
C158 C159 1.377 1_655 S
C159 H143 0.930 . S
C159 C158 1.377 1_455 S
C159 C160 1.379 . S
C160 H144 0.931 . S
C160 C154 1.383 1_455 S
C160 C159 1.379 . S
H161 C155 0.959 . S
H162 C155 0.961 . S
H163 C155 0.960 . S
H164 C156 0.930 . S
H165 C157 0.929 . S
H166 C174 0.929 . S
H167 C176 0.930 . S
H168 C178 0.930 . S
H169 C181 0.929 . S
H170 C184 0.930 . S
H171 C186 0.960 . S
H172 C186 0.960 . S
H173 C186 0.960 1_545 S
C174 H166 0.929 . S
C174 C175 1.384 . S
C174 C176 1.384 . S
C175 C174 1.384 . S
C175 C181 1.384 1_565 S
C176 H167 0.930 . S
C176 C174 1.384 . S
C176 C177 1.372 . S
C177 C176 1.372 . S
C177 C178 1.400 1_565 S
C177 C182 1.490 . S
C178 H168 0.930 . S
C178 C177 1.400 1_545 S
C178 C181 1.386 . S
H179 C195 0.930 . S
H180 C196 0.931 . S
C181 H169 0.929 . S
C181 C175 1.384 1_545 S
C181 C178 1.386 . S
C182 C177 1.490 . S
C182 C184 1.395 1_565 S
C182 C185 1.403 . S
H183 C189 0.930 . S
C184 H170 0.930 . S
C184 C182 1.395 1_545 S
C184 C187 1.403 . S
C185 C182 1.403 . S
C185 C186 1.524 . S
C185 C189 1.400 . S
C186 H171 0.960 . S
C186 H172 0.960 . S
C186 H173 0.960 1_565 S
C186 C185 1.524 . S
C187 C184 1.403 . S
C187 C188 1.395 . S
C187 C191 1.495 . S
C188 C187 1.395 . S
C188 C189 1.383 1_545 S
C188 C190 1.478 . S
C189 H183 0.930 . S
C189 C185 1.400 . S
C189 C188 1.383 1_565 S
C190 C188 1.478 . S
C190 C192 1.381 1_545 S
C190 C196 1.383 . S
C191 C187 1.495 . S
C191 H197 0.959 . S
C191 H198 0.961 . S
C191 H199 0.960 1_545 S
C192 C190 1.381 1_565 S
C192 C193 1.394 . S
C192 H200 0.930 . S
C193 C192 1.394 . S
C193 C194 1.383 1_565 S
C193 H201 0.929 . S
C194 C193 1.383 1_545 S
C194 C195 1.377 . S
C195 H179 0.930 . S
C195 C194 1.377 . S
C195 C196 1.379 . S
C196 H180 0.931 . S
C196 C190 1.383 . S
C196 C195 1.379 . S
H197 C191 0.959 . S
H198 C191 0.961 . S
H199 C191 0.960 1_565 S
H200 C192 0.930 . S
H201 C193 0.929 . S
H202 C210 0.929 . S
H203 C212 0.930 . S
H204 C214 0.930 . S
H205 C217 0.929 . S
H206 C220 0.930 . S
H207 C222 0.960 . S
H208 C222 0.960 . S
H209 C222 0.960 . S
C210 H202 0.929 . S
C210 C211 1.389 . S
C210 C212 1.384 . S
C211 C210 1.389 . S
C211 C217 1.378 1_655 S
C212 H203 0.930 . S
C212 C210 1.384 . S
C212 C213 1.372 . S
C213 C212 1.372 . S
C213 C214 1.400 1_655 S
C213 C218 1.490 . S
C214 H204 0.930 . S
C214 C213 1.400 1_455 S
C214 C217 1.386 . S
H215 C231 0.930 . S
H216 C232 0.931 . S
C217 H205 0.929 . S
C217 C211 1.378 1_455 S
C217 C214 1.386 . S
C218 C213 1.490 . S
C218 C220 1.395 1_655 S
C218 C221 1.403 . S
H219 C225 0.930 . S
C220 H206 0.930 . S
C220 C218 1.395 1_455 S
C220 C223 1.403 . S
C221 C218 1.403 . S
C221 C222 1.524 . S
C221 C225 1.400 . S
C222 H207 0.960 . S
C222 H208 0.960 . S
C222 H209 0.960 . S
C222 C221 1.524 . S
C223 C220 1.403 . S
C223 C224 1.392 . S
C223 C227 1.495 . S
C224 C223 1.392 . S
C224 C225 1.385 1_455 S
C224 C226 1.478 . S
C225 H219 0.930 . S
C225 C221 1.400 . S
C225 C224 1.385 1_655 S
C226 C224 1.478 . S
C226 C228 1.381 1_455 S
C226 C232 1.383 . S
C227 C223 1.495 . S
C227 H233 0.959 . S
C227 H234 0.961 . S
C227 H235 0.960 . S
C228 C226 1.381 1_655 S
C228 C229 1.394 . S
C228 H236 0.930 . S
C229 C228 1.394 . S
C229 C230 1.383 1_655 S
C229 H237 0.929 . S
C230 C229 1.383 1_455 S
C230 C231 1.377 . S
C231 H215 0.930 . S
C231 C230 1.377 . S
C231 C232 1.379 . S
C232 H216 0.931 . S
C232 C226 1.383 . S
C232 C231 1.379 . S
H233 C227 0.959 . S
H234 C227 0.961 . S
H235 C227 0.960 . S
H236 C228 0.930 . S
H237 C229 0.929 . S
H238 C246 0.929 . S
H239 C248 0.930 . S
H240 C250 0.930 . S
H241 C253 0.929 . S
H242 C256 0.930 . S
H243 C258 0.960 . S
H244 C258 0.960 . S
H245 C258 0.960 . S
C246 H238 0.929 . S
C246 C247 1.383 . S
C246 C248 1.384 . S
C247 C246 1.383 . S
C247 C253 1.384 1_545 S
C248 H239 0.930 . S
C248 C246 1.384 . S
C248 C249 1.372 . S
C249 C248 1.372 . S
C249 C250 1.400 1_545 S
C249 C254 1.490 . S
C250 H240 0.930 . S
C250 C249 1.400 1_565 S
C250 C253 1.386 . S
H251 C267 0.930 . S
H252 C268 0.931 . S
C253 H241 0.929 . S
C253 C247 1.384 1_565 S
C253 C250 1.386 . S
C254 C249 1.490 . S
C254 C256 1.395 . S
C254 C257 1.403 1_545 S
H255 C261 0.930 . S
C256 H242 0.930 . S
C256 C254 1.395 . S
C256 C259 1.403 . S
C257 C254 1.403 1_565 S
C257 C258 1.524 . S
C257 C261 1.400 . S
C258 H243 0.960 . S
C258 H244 0.960 . S
C258 H245 0.960 . S
C258 C257 1.524 . S
C259 C256 1.403 . S
C259 C260 1.392 . S
C259 C263 1.495 . S
C260 C259 1.392 . S
C260 C261 1.385 1_545 S
C260 C262 1.478 . S
C261 H255 0.930 . S
C261 C257 1.400 . S
C261 C260 1.385 1_565 S
C262 C260 1.478 . S
C262 C264 1.381 . S
C262 C268 1.383 1_545 S
C263 C259 1.495 . S
C263 H269 0.959 . S
C263 H270 0.961 . S
C263 H271 0.960 . S
C264 C262 1.381 . S
C264 C265 1.394 . S
C264 H272 0.930 . S
C265 C264 1.394 . S
C265 C266 1.383 . S
C265 H273 0.929 . S
C266 C265 1.383 . S
C266 C267 1.377 1_545 S
C267 H251 0.930 . S
C267 C266 1.377 1_565 S
C267 C268 1.379 . S
C268 H252 0.931 . S
C268 C262 1.383 1_565 S
C268 C267 1.379 . S
H269 C263 0.959 . S
H270 C263 0.961 . S
H271 C263 0.960 . S
H272 C264 0.930 . S
H273 C265 0.929 . S
H274 C282 0.929 . S
H275 C284 0.930 . S
H276 C286 0.930 . S
H277 C289 0.929 . S
H278 C292 0.930 . S
H279 C294 0.960 . S
H280 C294 0.960 . S
H281 C294 0.960 . S
C282 H274 0.929 . S
C282 C283 1.383 . S
C282 C284 1.384 . S
C283 C282 1.383 . S
C283 C289 1.384 1_455 S
C284 H275 0.930 . S
C284 C282 1.384 . S
C284 C285 1.372 . S
C285 C284 1.372 . S
C285 C286 1.400 1_455 S
C285 C290 1.490 . S
C286 H276 0.930 . S
C286 C285 1.400 1_655 S
C286 C289 1.386 . S
H287 C303 0.930 . S
H288 C304 0.931 . S
C289 H277 0.929 . S
C289 C283 1.384 1_655 S
C289 C286 1.386 . S
C290 C285 1.490 . S
C290 C292 1.394 1_455 S
C290 C293 1.403 . S
H291 C297 0.930 . S
C292 H278 0.930 . S
C292 C290 1.394 1_655 S
C292 C295 1.403 . S
C293 C290 1.403 . S
C293 C294 1.524 . S
C293 C297 1.400 . S
C294 H279 0.960 . S
C294 H280 0.960 . S
C294 H281 0.960 . S
C294 C293 1.524 . S
C295 C292 1.403 . S
C295 C296 1.392 . S
C295 C299 1.495 . S
C296 C295 1.392 . S
C296 C297 1.385 1_655 S
C296 C298 1.478 . S
C297 H291 0.930 . S
C297 C293 1.400 . S
C297 C296 1.385 1_455 S
C298 C296 1.478 . S
C298 C300 1.381 1_655 S
C298 C304 1.383 . S
C299 C295 1.495 . S
C299 H305 0.959 . S
C299 H306 0.961 . S
C299 H307 0.960 . S
C300 C298 1.381 1_455 S
C300 C301 1.394 . S
C300 H308 0.930 . S
C301 C300 1.394 . S
C301 C302 1.383 1_455 S
C301 H309 0.929 . S
C302 C301 1.383 1_655 S
C302 C303 1.377 . S
C303 H287 0.930 . S
C303 C302 1.377 . S
C303 C304 1.379 . S
C304 H288 0.931 . S
C304 C298 1.383 . S
C304 C303 1.379 . S
H305 C299 0.959 . S
H306 C299 0.961 . S
H307 C299 0.960 . S
H308 C300 0.930 . S
H309 C301 0.929 . S
H310 C318 0.929 . S
H311 C320 0.930 . S
H312 C322 0.930 . S
H313 C325 0.929 . S
H314 C328 0.930 . S
H315 C330 0.960 . S
H316 C330 0.960 1_565 S
H317 C330 0.960 . S
C318 H310 0.929 . S
C318 C319 1.390 . S
C318 C320 1.384 . S
C319 C318 1.390 . S
C319 C325 1.377 1_565 S
C320 H311 0.930 . S
C320 C318 1.384 . S
C320 C321 1.372 . S
C321 C320 1.372 . S
C321 C322 1.400 1_565 S
C321 C326 1.490 . S
C322 H312 0.930 . S
C322 C321 1.400 1_545 S
C322 C325 1.386 . S
H323 C339 0.930 . S
H324 C340 0.931 . S
C325 H313 0.929 . S
C325 C319 1.377 1_545 S
C325 C322 1.386 . S
C326 C321 1.490 . S
C326 C328 1.395 . S
C326 C329 1.403 1_565 S
H327 C333 0.930 . S
C328 H314 0.930 . S
C328 C326 1.395 . S
C328 C331 1.403 . S
C329 C326 1.403 1_545 S
C329 C330 1.524 . S
C329 C333 1.400 . S
C330 H315 0.960 . S
C330 H316 0.960 1_545 S
C330 H317 0.960 . S
C330 C329 1.524 . S
C331 C328 1.403 . S
C331 C332 1.392 . S
C331 C335 1.495 . S
C332 C331 1.392 . S
C332 C333 1.385 1_565 S
C332 C334 1.478 . S
C333 H327 0.930 . S
C333 C329 1.400 . S
C333 C332 1.385 1_545 S
C334 C332 1.478 . S
C334 C336 1.381 . S
C334 C340 1.383 1_565 S
C335 C331 1.495 . S
C335 H341 0.959 . S
C335 H342 0.961 1_565 S
C335 H343 0.960 . S
C336 C334 1.381 . S
C336 C337 1.394 . S
C336 H344 0.930 . S
C337 C336 1.394 . S
C337 C338 1.390 . S
C337 H345 0.929 . S
C338 C337 1.390 . S
C338 C339 1.370 1_565 S
C339 H323 0.930 . S
C339 C338 1.370 1_545 S
C339 C340 1.379 . S
C340 H324 0.931 . S
C340 C334 1.383 1_545 S
C340 C339 1.379 . S
H341 C335 0.959 . S
H342 C335 0.961 1_545 S
H343 C335 0.960 . S
H344 C336 0.930 . S
H345 C337 0.929 . S
C67 C22 1.404 1_455 S
C86 C33 1.450 . S
C103 C8 1.403 . S
C122 C55 1.452 1_545 S
C139 C31 1.399 1_655 S
C158 C42 1.458 1_655 S
C175 C17 1.399 . S
C194 C46 1.453 1_545 S
C211 C30 1.328 1_655 S
C230 C35 1.358 . S
C247 C27 1.324 1_545 S
C266 C50 1.375 1_545 S
C302 C37 1.373 1_655 S
C283 C23 1.320 1_455 S
C319 C24 1.322 1_565 S
C338 C48 1.367 . S
