# Generated by pormake.
# Topology gar, (4,6)-cn, num edge types: 1
# Building blocks:
#     Node 0, Type 0, BuildingBlock: QUQFOY_clean_sbu_3, # of connection points: 4
#     Node 1, Type 0, BuildingBlock: QUQFOY_clean_sbu_3, # of connection points: 4
#     Node 2, Type 0, BuildingBlock: QUQFOY_clean_sbu_3, # of connection points: 4
#     Node 3, Type 0, BuildingBlock: QUQFOY_clean_sbu_3, # of connection points: 4
#     Node 4, Type 0, BuildingBlock: QUQFOY_clean_sbu_3, # of connection points: 4
#     Node 5, Type 0, BuildingBlock: QUQFOY_clean_sbu_3, # of connection points: 4
#     Node 6, Type 0, BuildingBlock: QUQFOY_clean_sbu_3, # of connection points: 4
#     Node 7, Type 0, BuildingBlock: QUQFOY_clean_sbu_3, # of connection points: 4
#     Node 8, Type 0, BuildingBlock: QUQFOY_clean_sbu_3, # of connection points: 4
#     Node 9, Type 0, BuildingBlock: QUQFOY_clean_sbu_3, # of connection points: 4
#     Node 10, Type 0, BuildingBlock: QUQFOY_clean_sbu_3, # of connection points: 4
#     Node 11, Type 0, BuildingBlock: QUQFOY_clean_sbu_3, # of connection points: 4
#     Node 12, Type 0, BuildingBlock: QUQFOY_clean_sbu_3, # of connection points: 4
#     Node 13, Type 0, BuildingBlock: QUQFOY_clean_sbu_3, # of connection points: 4
#     Node 14, Type 0, BuildingBlock: QUQFOY_clean_sbu_3, # of connection points: 4
#     Node 15, Type 0, BuildingBlock: QUQFOY_clean_sbu_3, # of connection points: 4
#     Node 16, Type 0, BuildingBlock: QUQFOY_clean_sbu_3, # of connection points: 4
#     Node 17, Type 0, BuildingBlock: QUQFOY_clean_sbu_3, # of connection points: 4
#     Node 18, Type 0, BuildingBlock: QUQFOY_clean_sbu_3, # of connection points: 4
#     Node 19, Type 0, BuildingBlock: QUQFOY_clean_sbu_3, # of connection points: 4
#     Node 20, Type 0, BuildingBlock: QUQFOY_clean_sbu_3, # of connection points: 4
#     Node 21, Type 0, BuildingBlock: QUQFOY_clean_sbu_3, # of connection points: 4
#     Node 22, Type 0, BuildingBlock: QUQFOY_clean_sbu_3, # of connection points: 4
#     Node 23, Type 0, BuildingBlock: QUQFOY_clean_sbu_3, # of connection points: 4
#     Node 24, Type 1, BuildingBlock: PAMTUU_clean_sbu_0, # of connection points: 6
#     Node 25, Type 1, BuildingBlock: PAMTUU_clean_sbu_0, # of connection points: 6
#     Node 26, Type 1, BuildingBlock: PAMTUU_clean_sbu_0, # of connection points: 6
#     Node 27, Type 1, BuildingBlock: PAMTUU_clean_sbu_0, # of connection points: 6
#     Node 28, Type 1, BuildingBlock: PAMTUU_clean_sbu_0, # of connection points: 6
#     Node 29, Type 1, BuildingBlock: PAMTUU_clean_sbu_0, # of connection points: 6
#     Node 30, Type 1, BuildingBlock: PAMTUU_clean_sbu_0, # of connection points: 6
#     Node 31, Type 1, BuildingBlock: PAMTUU_clean_sbu_0, # of connection points: 6
#     Node 32, Type 1, BuildingBlock: PAMTUU_clean_sbu_0, # of connection points: 6
#     Node 33, Type 1, BuildingBlock: PAMTUU_clean_sbu_0, # of connection points: 6
#     Node 34, Type 1, BuildingBlock: PAMTUU_clean_sbu_0, # of connection points: 6
#     Node 35, Type 1, BuildingBlock: PAMTUU_clean_sbu_0, # of connection points: 6
#     Node 36, Type 1, BuildingBlock: PAMTUU_clean_sbu_0, # of connection points: 6
#     Node 37, Type 1, BuildingBlock: PAMTUU_clean_sbu_0, # of connection points: 6
#     Node 38, Type 1, BuildingBlock: PAMTUU_clean_sbu_0, # of connection points: 6
#     Node 39, Type 1, BuildingBlock: PAMTUU_clean_sbu_0, # of connection points: 6
#     Edge 40, Type (0, 1), BuildingBlock: XIVTED_clean_linker_0, # of connection points: 2
#     Edge 41, Type (0, 1), BuildingBlock: XIVTED_clean_linker_0, # of connection points: 2
#     Edge 42, Type (0, 1), BuildingBlock: XIVTED_clean_linker_0, # of connection points: 2
#     Edge 43, Type (0, 1), BuildingBlock: XIVTED_clean_linker_0, # of connection points: 2
#     Edge 44, Type (0, 1), BuildingBlock: XIVTED_clean_linker_0, # of connection points: 2
#     Edge 45, Type (0, 1), BuildingBlock: XIVTED_clean_linker_0, # of connection points: 2
#     Edge 46, Type (0, 1), BuildingBlock: XIVTED_clean_linker_0, # of connection points: 2
#     Edge 47, Type (0, 1), BuildingBlock: XIVTED_clean_linker_0, # of connection points: 2
#     Edge 48, Type (0, 1), BuildingBlock: XIVTED_clean_linker_0, # of connection points: 2
#     Edge 49, Type (0, 1), BuildingBlock: XIVTED_clean_linker_0, # of connection points: 2
#     Edge 50, Type (0, 1), BuildingBlock: XIVTED_clean_linker_0, # of connection points: 2
#     Edge 51, Type (0, 1), BuildingBlock: XIVTED_clean_linker_0, # of connection points: 2
#     Edge 52, Type (0, 1), BuildingBlock: XIVTED_clean_linker_0, # of connection points: 2
#     Edge 53, Type (0, 1), BuildingBlock: XIVTED_clean_linker_0, # of connection points: 2
#     Edge 54, Type (0, 1), BuildingBlock: XIVTED_clean_linker_0, # of connection points: 2
#     Edge 55, Type (0, 1), BuildingBlock: XIVTED_clean_linker_0, # of connection points: 2
#     Edge 56, Type (0, 1), BuildingBlock: XIVTED_clean_linker_0, # of connection points: 2
#     Edge 57, Type (0, 1), BuildingBlock: XIVTED_clean_linker_0, # of connection points: 2
#     Edge 58, Type (0, 1), BuildingBlock: XIVTED_clean_linker_0, # of connection points: 2
#     Edge 59, Type (0, 1), BuildingBlock: XIVTED_clean_linker_0, # of connection points: 2
#     Edge 60, Type (0, 1), BuildingBlock: XIVTED_clean_linker_0, # of connection points: 2
#     Edge 61, Type (0, 1), BuildingBlock: XIVTED_clean_linker_0, # of connection points: 2
#     Edge 62, Type (0, 1), BuildingBlock: XIVTED_clean_linker_0, # of connection points: 2
#     Edge 63, Type (0, 1), BuildingBlock: XIVTED_clean_linker_0, # of connection points: 2
#     Edge 64, Type (0, 1), BuildingBlock: XIVTED_clean_linker_0, # of connection points: 2
#     Edge 65, Type (0, 1), BuildingBlock: XIVTED_clean_linker_0, # of connection points: 2
#     Edge 66, Type (0, 1), BuildingBlock: XIVTED_clean_linker_0, # of connection points: 2
#     Edge 67, Type (0, 1), BuildingBlock: XIVTED_clean_linker_0, # of connection points: 2
#     Edge 68, Type (0, 1), BuildingBlock: XIVTED_clean_linker_0, # of connection points: 2
#     Edge 69, Type (0, 1), BuildingBlock: XIVTED_clean_linker_0, # of connection points: 2
#     Edge 70, Type (0, 1), BuildingBlock: XIVTED_clean_linker_0, # of connection points: 2
#     Edge 71, Type (0, 1), BuildingBlock: XIVTED_clean_linker_0, # of connection points: 2
#     Edge 72, Type (0, 1), BuildingBlock: XIVTED_clean_linker_0, # of connection points: 2
#     Edge 73, Type (0, 1), BuildingBlock: XIVTED_clean_linker_0, # of connection points: 2
#     Edge 74, Type (0, 1), BuildingBlock: XIVTED_clean_linker_0, # of connection points: 2
#     Edge 75, Type (0, 1), BuildingBlock: XIVTED_clean_linker_0, # of connection points: 2
#     Edge 76, Type (0, 1), BuildingBlock: XIVTED_clean_linker_0, # of connection points: 2
#     Edge 77, Type (0, 1), BuildingBlock: XIVTED_clean_linker_0, # of connection points: 2
#     Edge 78, Type (0, 1), BuildingBlock: XIVTED_clean_linker_0, # of connection points: 2
#     Edge 79, Type (0, 1), BuildingBlock: XIVTED_clean_linker_0, # of connection points: 2
#     Edge 80, Type (0, 1), BuildingBlock: XIVTED_clean_linker_0, # of connection points: 2
#     Edge 81, Type (0, 1), BuildingBlock: XIVTED_clean_linker_0, # of connection points: 2
#     Edge 82, Type (0, 1), BuildingBlock: XIVTED_clean_linker_0, # of connection points: 2
#     Edge 83, Type (0, 1), BuildingBlock: XIVTED_clean_linker_0, # of connection points: 2
#     Edge 84, Type (0, 1), BuildingBlock: XIVTED_clean_linker_0, # of connection points: 2
#     Edge 85, Type (0, 1), BuildingBlock: XIVTED_clean_linker_0, # of connection points: 2
#     Edge 86, Type (0, 1), BuildingBlock: XIVTED_clean_linker_0, # of connection points: 2
#     Edge 87, Type (0, 1), BuildingBlock: XIVTED_clean_linker_0, # of connection points: 2
#     Edge 88, Type (0, 1), BuildingBlock: XIVTED_clean_linker_0, # of connection points: 2
#     Edge 89, Type (0, 1), BuildingBlock: XIVTED_clean_linker_0, # of connection points: 2
#     Edge 90, Type (0, 1), BuildingBlock: XIVTED_clean_linker_0, # of connection points: 2
#     Edge 91, Type (0, 1), BuildingBlock: XIVTED_clean_linker_0, # of connection points: 2
#     Edge 92, Type (0, 1), BuildingBlock: XIVTED_clean_linker_0, # of connection points: 2
#     Edge 93, Type (0, 1), BuildingBlock: XIVTED_clean_linker_0, # of connection points: 2
#     Edge 94, Type (0, 1), BuildingBlock: XIVTED_clean_linker_0, # of connection points: 2
#     Edge 95, Type (0, 1), BuildingBlock: XIVTED_clean_linker_0, # of connection points: 2
#     Edge 96, Type (0, 1), BuildingBlock: XIVTED_clean_linker_0, # of connection points: 2
#     Edge 97, Type (0, 1), BuildingBlock: XIVTED_clean_linker_0, # of connection points: 2
#     Edge 98, Type (0, 1), BuildingBlock: XIVTED_clean_linker_0, # of connection points: 2
#     Edge 99, Type (0, 1), BuildingBlock: XIVTED_clean_linker_0, # of connection points: 2
#     Edge 100, Type (0, 1), BuildingBlock: XIVTED_clean_linker_0, # of connection points: 2
#     Edge 101, Type (0, 1), BuildingBlock: XIVTED_clean_linker_0, # of connection points: 2
#     Edge 102, Type (0, 1), BuildingBlock: XIVTED_clean_linker_0, # of connection points: 2
#     Edge 103, Type (0, 1), BuildingBlock: XIVTED_clean_linker_0, # of connection points: 2
#     Edge 104, Type (0, 1), BuildingBlock: XIVTED_clean_linker_0, # of connection points: 2
#     Edge 105, Type (0, 1), BuildingBlock: XIVTED_clean_linker_0, # of connection points: 2
#     Edge 106, Type (0, 1), BuildingBlock: XIVTED_clean_linker_0, # of connection points: 2
#     Edge 107, Type (0, 1), BuildingBlock: XIVTED_clean_linker_0, # of connection points: 2
#     Edge 108, Type (0, 1), BuildingBlock: XIVTED_clean_linker_0, # of connection points: 2
#     Edge 109, Type (0, 1), BuildingBlock: XIVTED_clean_linker_0, # of connection points: 2
#     Edge 110, Type (0, 1), BuildingBlock: XIVTED_clean_linker_0, # of connection points: 2
#     Edge 111, Type (0, 1), BuildingBlock: XIVTED_clean_linker_0, # of connection points: 2
#     Edge 112, Type (0, 1), BuildingBlock: XIVTED_clean_linker_0, # of connection points: 2
#     Edge 113, Type (0, 1), BuildingBlock: XIVTED_clean_linker_0, # of connection points: 2
#     Edge 114, Type (0, 1), BuildingBlock: XIVTED_clean_linker_0, # of connection points: 2
#     Edge 115, Type (0, 1), BuildingBlock: XIVTED_clean_linker_0, # of connection points: 2
#     Edge 116, Type (0, 1), BuildingBlock: XIVTED_clean_linker_0, # of connection points: 2
#     Edge 117, Type (0, 1), BuildingBlock: XIVTED_clean_linker_0, # of connection points: 2
#     Edge 118, Type (0, 1), BuildingBlock: XIVTED_clean_linker_0, # of connection points: 2
#     Edge 119, Type (0, 1), BuildingBlock: XIVTED_clean_linker_0, # of connection points: 2
#     Edge 120, Type (0, 1), BuildingBlock: XIVTED_clean_linker_0, # of connection points: 2
#     Edge 121, Type (0, 1), BuildingBlock: XIVTED_clean_linker_0, # of connection points: 2
#     Edge 122, Type (0, 1), BuildingBlock: XIVTED_clean_linker_0, # of connection points: 2
#     Edge 123, Type (0, 1), BuildingBlock: XIVTED_clean_linker_0, # of connection points: 2
#     Edge 124, Type (0, 1), BuildingBlock: XIVTED_clean_linker_0, # of connection points: 2
#     Edge 125, Type (0, 1), BuildingBlock: XIVTED_clean_linker_0, # of connection points: 2
#     Edge 126, Type (0, 1), BuildingBlock: XIVTED_clean_linker_0, # of connection points: 2
#     Edge 127, Type (0, 1), BuildingBlock: XIVTED_clean_linker_0, # of connection points: 2
#     Edge 128, Type (0, 1), BuildingBlock: XIVTED_clean_linker_0, # of connection points: 2
#     Edge 129, Type (0, 1), BuildingBlock: XIVTED_clean_linker_0, # of connection points: 2
#     Edge 130, Type (0, 1), BuildingBlock: XIVTED_clean_linker_0, # of connection points: 2
#     Edge 131, Type (0, 1), BuildingBlock: XIVTED_clean_linker_0, # of connection points: 2
#     Edge 132, Type (0, 1), BuildingBlock: XIVTED_clean_linker_0, # of connection points: 2
#     Edge 133, Type (0, 1), BuildingBlock: XIVTED_clean_linker_0, # of connection points: 2
#     Edge 134, Type (0, 1), BuildingBlock: XIVTED_clean_linker_0, # of connection points: 2
#     Edge 135, Type (0, 1), BuildingBlock: XIVTED_clean_linker_0, # of connection points: 2
# Relax obj value: 0.172
# Max RMSD: 0.331
# Mean RMSD: 0.158
data_MOF--net-gar--node1-QUQFOY_clean_sbu_3--node2-PAMTUU_clean_sbu_0--edge1-XIVTED_clean_linker_0
_symmetry_space_group_name_H-M    P1
_symmetry_Int_Tables_number       1
_symmetry_cell_setting            triclinic
loop_
_symmetry_equiv_pos_as_xyz
'x, y, z'
_cell_length_a     60.371449
_cell_length_b     57.41802
_cell_length_c     60.561816
_cell_angle_alpha  94.318369
_cell_angle_beta   93.59691
_cell_angle_gamma 106.71878
loop_
_atom_site_label
_atom_site_type_symbol
_atom_site_fract_x
_atom_site_fract_y
_atom_site_fract_z
_atom_type_partial_charge
C0 C 1.01151 0.29145 0.36307 0.0
O1 O 0.02798 0.3059 0.35451 0.0
Cd2 Cd 0.06143 0.30675 0.3791 0.0
O3 O 0.01762 0.28023 0.37913 0.0
Cd4 Cd 0.06289 0.28429 0.39838 0.0
C5 C 0.06779 0.3465 0.41824 0.0
O6 O 0.08866 0.2877 0.36302 0.0
O7 O 0.10852 0.29783 0.39418 0.0
O8 O 0.05362 0.23723 0.40344 0.0
C9 C 0.10883 0.29321 0.37331 0.0
O10 O 0.07254 0.34826 0.39821 0.0
C11 C 0.05879 0.2385 0.42432 0.0
O12 O 0.06271 0.32484 0.42465 0.0
O13 O 0.06539 0.26036 0.43354 0.0
C14 C 1.00457 0.79571 0.70043 0.0
O15 O 0.013 0.77894 0.70587 0.0
Cd16 Cd 0.04665 0.78458 0.68377 0.0
O17 O 0.0161 0.81007 0.6869 0.0
Cd18 Cd 0.05722 0.81036 0.66669 0.0
C19 C 0.04773 0.74696 0.64541 0.0
O20 O 0.08518 0.80522 0.70198 0.0
O21 O 0.10135 0.8151 0.67232 0.0
O22 O 0.06381 0.85715 0.66235 0.0
C23 C 0.104 0.81051 0.69236 0.0
O24 O 0.04616 0.74519 0.66601 0.0
C25 C 0.06134 0.85628 0.64122 0.0
O26 O 0.05025 0.76841 0.63889 0.0
O27 O 0.05758 0.8348 0.63161 0.0
C28 C 0.51219 0.79112 0.86226 0.0
O29 O 0.52855 0.8058 0.85379 0.0
Cd30 Cd 0.56207 0.80719 0.87848 0.0
O31 O 0.51841 0.78002 0.87835 0.0
Cd32 Cd 0.56363 0.78469 0.89769 0.0
C33 C 0.56788 0.84683 0.91764 0.0
O34 O 0.5895 0.78838 0.86242 0.0
O35 O 0.60925 0.79802 0.89367 0.0
O36 O 0.55422 0.73766 0.90214 0.0
C37 C 0.60962 0.79362 0.87278 0.0
O38 O 0.57263 0.84867 0.89762 0.0
C39 C 0.55936 0.73856 0.92298 0.0
O40 O 0.56304 0.82515 0.92403 0.0
O41 O 0.56603 0.76028 0.93253 0.0
C42 C 0.50359 0.29528 0.20044 0.0
O43 O 0.51236 0.27883 0.2061 0.0
Cd44 Cd 0.54584 0.28458 0.1838 0.0
O45 O 0.51486 0.3095 0.18668 0.0
Cd46 Cd 0.55616 0.30999 0.16661 0.0
C47 C 0.54643 0.24648 0.14558 0.0
O48 O 0.58432 0.30522 0.20198 0.0
O49 O 0.60035 0.31463 0.17216 0.0
O50 O 0.56183 0.35666 0.16277 0.0
C51 C 0.60311 0.31031 0.19228 0.0
O52 O 0.54526 0.24507 0.16626 0.0
C53 C 0.5602 0.35631 0.14166 0.0
O54 O 0.54879 0.26781 0.13882 0.0
O55 O 0.55731 0.33512 0.13174 0.0
C56 C 0.07555 0.80286 0.17835 0.0
O57 O 0.09135 0.79658 0.18901 0.0
Cd58 Cd 0.12797 0.79752 0.1769 0.0
O59 O 0.07903 0.81203 0.15982 0.0
Cd60 Cd 0.11144 0.82517 0.13489 0.0
C61 C 0.10818 0.76519 0.12461 0.0
O62 O 0.14077 0.83681 0.16492 0.0
O63 O 0.15466 0.83449 0.13342 0.0
O64 O 0.10306 0.86403 0.13561 0.0
C65 C 0.15852 0.83915 0.15437 0.0
O66 O 0.11687 0.76727 0.14465 0.0
C67 C 0.10054 0.86474 0.11476 0.0
O68 O 0.1037 0.78323 0.11613 0.0
O69 O 0.10289 0.84664 0.10264 0.0
C70 C 0.47752 0.766 0.38869 0.0
O71 O 0.49251 0.77964 0.37784 0.0
Cd72 Cd 0.53127 0.7993 0.39079 0.0
O73 O 0.483 0.76077 0.40807 0.0
Cd74 Cd 0.52121 0.76827 0.43192 0.0
C75 C 0.52635 0.82853 0.44169 0.0
O76 O 0.54314 0.76528 0.4007 0.0
O77 O 0.56445 0.78154 0.43073 0.0
O78 O 0.50968 0.72459 0.43658 0.0
C79 C 0.56316 0.77262 0.41075 0.0
O80 O 0.53041 0.82928 0.42134 0.0
C81 C 0.51679 0.72673 0.45699 0.0
O82 O 0.52188 0.80843 0.45057 0.0
O83 O 0.52453 0.74838 0.46642 0.0
C84 C 0.571 0.29346 0.67602 0.0
O85 O 0.58586 0.28459 0.68515 0.0
Cd86 Cd 0.62344 0.28757 0.67339 0.0
O87 O 0.57538 0.30514 0.65892 0.0
Cd88 Cd 0.60789 0.31842 0.63483 0.0
C89 C 0.60771 0.25989 0.61972 0.0
O90 O 0.6371 0.3286 0.66536 0.0
O91 O 0.65096 0.32776 0.63365 0.0
O92 O 0.60222 0.35867 0.63611 0.0
C93 C 0.65483 0.33183 0.65465 0.0
O94 O 0.61751 0.26055 0.63911 0.0
C95 C 0.59806 0.3589 0.61537 0.0
O96 O 0.60039 0.27751 0.61394 0.0
O97 O 0.59827 0.33998 0.60311 0.0
C98 C 0.98434 0.27561 0.89049 0.0
O99 O 1.00188 0.28833 0.88187 0.0
Cd100 Cd 0.04076 0.30057 0.89701 0.0
O101 O 0.98652 0.26809 0.90963 0.0
Cd102 Cd 0.02155 0.27137 0.93658 0.0
C103 C 0.03664 0.33268 0.94622 0.0
O104 O 0.0454 0.26362 0.90807 0.0
O105 O 0.06483 0.28074 0.93873 0.0
O106 O 1.00376 0.22859 0.94288 0.0
C107 C 0.06465 0.27008 0.91958 0.0
O108 O 0.04526 0.33214 0.92759 0.0
C109 C 1.01065 0.23103 0.96337 0.0
O110 O 0.0246 0.31304 0.95335 0.0
O111 O 0.02099 0.25263 0.97192 0.0
C112 C 0.47889 0.06391 0.34667 0.0
O113 O 0.48946 0.05873 0.33035 0.0
Cd114 Cd 0.47493 0.05142 0.29211 0.0
O115 O 0.45823 0.06532 0.34382 0.0
Cd116 Cd 0.42848 0.06082 0.31284 0.0
C117 C 0.42777 1.00227 0.29608 0.0
O118 O 0.45628 0.0827 0.28991 0.0
O119 O 0.422 0.06894 0.27355 0.0
O120 O 0.41272 0.08947 0.33362 0.0
C121 C 0.44311 0.08063 0.27242 0.0
O122 O 0.44728 0.01006 0.28807 0.0
C123 C 0.39184 0.07585 0.33031 0.0
O124 O 0.41882 0.01695 0.30637 0.0
O125 O 0.38835 0.05524 0.31928 0.0
C126 C 0.33961 0.17213 0.54154 0.0
O127 O 0.32198 0.16 0.55046 0.0
Cd128 Cd 0.2836 0.16278 0.54802 0.0
O129 O 0.33842 0.1891 0.52939 0.0
Cd130 Cd 0.30712 0.20829 0.51794 0.0
C131 C 0.2983 0.22204 0.57272 0.0
O132 O 0.27709 0.16988 0.51091 0.0
O133 O 0.2644 0.20109 0.51302 0.0
O134 O 0.31971 0.20903 0.48007 0.0
C135 C 0.25985 0.17808 0.50945 0.0
O136 O 0.28698 0.19952 0.57202 0.0
C137 C 0.31932 0.23057 0.47712 0.0
O138 O 0.3095 0.2306 0.55635 0.0
O139 O 0.31477 0.24278 0.49376 0.0
C140 C 0.13751 0.03148 0.85984 0.0
O141 O 0.12493 0.03483 0.84346 0.0
Cd142 Cd 0.13287 0.03859 0.8055 0.0
O143 O 0.15777 0.02962 0.85761 0.0
Cd144 Cd 0.18233 0.03097 0.82676 0.0
C145 C 0.18193 0.08753 0.81482 0.0
O146 O 0.15226 0.00912 0.79836 0.0
O147 O 0.18545 0.02495 0.78658 0.0
O148 O 0.19825 0.99951 0.83884 0.0
C149 C 0.16424 0.01316 0.78192 0.0
O150 O 0.16178 0.07814 0.80474 0.0
C151 C 0.21929 0.01244 0.8392 0.0
O152 O 0.19207 0.07495 0.8259 0.0
O153 O 0.22292 0.03465 0.83549 0.0
C154 C 0.33113 0.97064 0.98916 0.0
O155 O 0.31994 0.98408 0.98096 0.0
Cd156 Cd 0.27848 0.97187 0.97959 0.0
O157 O 0.32055 0.95105 0.99723 0.0
Cd158 Cd 0.28211 0.92579 0.00503 0.0
C159 C 0.26717 0.91631 0.94929 0.0
O160 O 0.27245 0.9619 0.01723 0.0
O161 O 0.24477 0.92847 0.01793 0.0
O162 O 0.30554 0.91951 0.03661 0.0
C163 C 0.25236 0.95145 0.02259 0.0
O164 O 0.26749 0.93859 0.94956 0.0
C165 C 0.29589 0.89671 0.03621 0.0
O166 O 0.27183 0.90755 0.96707 0.0
O167 O 0.27933 0.88715 0.02126 0.0
C168 C 0.35136 0.41331 0.01956 0.0
O169 O 0.33806 0.4227 0.00862 0.0
Cd170 Cd 0.2974 0.41168 0.00659 0.0
O171 O 0.34321 0.39541 0.03104 0.0
Cd172 Cd 0.30294 0.36907 0.03781 0.0
C173 C 0.29184 0.3544 0.98088 0.0
O174 O 0.29088 0.40474 0.04371 0.0
O175 O 0.26204 0.37236 0.03837 0.0
O176 O 0.31937 0.36955 0.07617 0.0
C177 C 0.26935 0.39521 0.04387 0.0
O178 O 0.28825 0.37519 0.98096 0.0
C179 C 0.30695 0.34858 0.08 0.0
O180 O 0.29893 0.34727 0.99886 0.0
O181 O 0.29375 0.33575 0.06354 0.0
C182 C 0.83446 0.1026 0.06051 0.0
O183 O 0.82123 0.09225 0.07461 0.0
Cd184 Cd 0.79315 0.10832 0.09007 0.0
O185 O 0.8343 0.12353 0.05494 0.0
Cd186 Cd 0.8132 0.15393 0.06302 0.0
C187 C 0.82588 0.1627 0.11835 0.0
O188 O 0.77704 0.1219 0.05832 0.0
O189 O 0.77445 0.15736 0.07003 0.0
O190 O 0.8177 0.15996 0.02434 0.0
C191 C 0.76434 0.13542 0.0625 0.0
O192 O 0.81221 0.14122 0.11843 0.0
C193 C 0.82086 0.18283 0.0263 0.0
O194 O 0.83102 0.17173 0.10011 0.0
O195 O 0.82194 0.19295 0.04589 0.0
C196 C 0.11302 0.51084 0.2617 0.0
O197 O 0.10623 0.5165 0.2431 0.0
Cd198 Cd 0.12673 0.51771 0.21057 0.0
O199 O 0.1323 0.50606 0.26456 0.0
Cd200 Cd 0.16589 0.50413 0.24439 0.0
C201 C 0.17466 0.5635 0.23219 0.0
O202 O 0.14047 0.48273 0.21372 0.0
O203 O 0.17606 0.49047 0.20702 0.0
O204 O 0.17502 0.4777 0.27139 0.0
C205 C 0.15487 0.48118 0.19993 0.0
O206 O 0.15746 0.55729 0.21745 0.0
C207 C 0.19624 0.49036 0.27485 0.0
O208 O 0.17955 0.54782 0.24377 0.0
O209 O 0.20308 0.50826 0.26337 0.0
C210 C 0.85219 0.91304 0.51877 0.0
O211 O 0.83791 0.92056 0.50713 0.0
Cd212 Cd 0.7972 0.90677 0.50614 0.0
O213 O 0.84515 0.89566 0.53109 0.0
Cd214 Cd 0.80591 0.86743 0.53819 0.0
C215 C 0.79401 0.8501 0.48182 0.0
O216 O 0.79163 0.90173 0.54393 0.0
O217 O 0.76426 0.86803 0.53868 0.0
O218 O 0.82298 0.8689 0.57648 0.0
C219 C 0.7704 0.89084 0.54445 0.0
O220 O 0.78826 0.86971 0.48121 0.0
C221 C 0.81104 0.84783 0.58057 0.0
O222 O 0.80283 0.84486 0.4999 0.0
O223 O 0.79796 0.83455 0.56428 0.0
C224 C 0.97069 0.04817 0.26124 0.0
O225 O 0.97957 0.04429 0.24336 0.0
Cd226 Cd 0.96089 0.04209 0.20707 0.0
O227 O 0.95095 0.05216 0.2608 0.0
Cd228 Cd 0.91965 0.0557 0.23395 0.0
C229 C 0.91221 0.99633 0.21502 0.0
O230 O 0.94563 0.07643 0.20935 0.0
O231 O 0.91006 0.06502 0.19579 0.0
O232 O 0.91177 0.08557 0.26065 0.0
C233 C 0.9311 0.07576 0.19321 0.0
O234 O 0.93109 1.00216 0.20565 0.0
C235 C 0.89003 0.07504 0.25931 0.0
O236 O 0.9055 0.01232 0.22612 0.0
O237 O 0.88223 0.05589 0.24588 0.0
C238 C 0.341 0.60192 0.56036 0.0
O239 O 0.32803 0.5909 0.57435 0.0
Cd240 Cd 0.29867 0.6052 0.58969 0.0
O241 O 0.33963 0.62242 0.55467 0.0
Cd242 Cd 0.31615 0.65058 0.56253 0.0
C243 C 0.32868 0.66059 0.6178 0.0
O244 O 0.28041 0.61741 0.55831 0.0
O245 O 0.27735 0.65252 0.57058 0.0
O246 O 0.31929 0.65698 0.5237 0.0
C247 C 0.26746 0.63053 0.56308 0.0
O248 O 0.31591 0.63873 0.6181 0.0
C249 C 0.32209 0.67979 0.52595 0.0
O250 O 0.33355 0.66945 0.59944 0.0
O251 O 0.32345 0.68965 0.54567 0.0
C252 C 0.47125 0.54642 0.7589 0.0
O253 O 0.48186 0.54388 0.74184 0.0
Cd254 Cd 0.46447 0.5409 0.70494 0.0
O255 O 0.45112 0.54947 0.75699 0.0
Cd256 Cd 0.42162 0.55389 0.72837 0.0
C257 C 0.41507 0.49467 0.7109 0.0
O258 O 0.44924 0.57532 0.70529 0.0
O259 O 0.41439 0.56329 0.68971 0.0
O260 O 0.41351 0.58381 0.75477 0.0
C261 C 0.43556 0.57468 0.68843 0.0
O262 O 0.43495 0.50068 0.70335 0.0
C263 C 0.39162 0.5742 0.75228 0.0
O264 O 0.40709 0.51056 0.72053 0.0
O265 O 0.38381 0.55554 0.73829 0.0
C266 C 0.61604 0.01508 0.7607 0.0
O267 O 0.60916 0.0206 0.74207 0.0
Cd268 Cd 0.62834 0.01924 0.70885 0.0
O269 O 0.63488 0.00939 0.76331 0.0
Cd270 Cd 0.66738 1.00585 0.74228 0.0
C271 C 0.67702 0.0646 0.72821 0.0
O272 O 0.64065 0.98349 0.71283 0.0
O273 O 0.67574 0.99042 0.70472 0.0
O274 O 0.67688 0.98013 0.76979 0.0
C275 C 0.65432 0.98094 0.6986 0.0
O276 O 0.6601 0.05809 0.71319 0.0
C277 C 0.69827 0.99233 0.77234 0.0
O278 O 0.68137 0.04943 0.74076 0.0
O279 O 0.70499 0.00963 0.76018 0.0
C280 C 0.83857 0.67009 0.04155 0.0
O281 O 0.821 0.65906 0.05116 0.0
Cd282 Cd 0.78346 0.66414 0.04978 0.0
O283 O 0.83776 0.68696 0.02914 0.0
Cd284 Cd 0.80741 0.70759 0.01811 0.0
C285 C 0.80174 0.72379 0.07319 0.0
O286 O 0.7763 0.67003 0.01235 0.0
O287 O 0.76476 0.70199 0.01408 0.0
O288 O 0.81925 0.70744 0.97992 0.0
C289 C 0.7595 0.6789 0.01087 0.0
O290 O 0.78945 0.70174 0.07355 0.0
C291 C 0.81954 0.72918 0.97699 0.0
O292 O 0.81222 0.73106 0.05609 0.0
O293 O 0.81564 0.74178 0.9937 0.0
C294 C 0.98097 0.56267 0.84656 0.0
O295 O 0.99165 0.55807 0.8301 0.0
Cd296 Cd 0.97731 0.55171 0.79173 0.0
O297 O 0.96021 0.56383 0.84383 0.0
Cd298 Cd 0.93051 0.55944 0.81284 0.0
C299 C 0.93081 0.50165 0.79464 0.0
O300 O 0.95806 0.58246 0.79021 0.0
O301 O 0.92388 0.5681 0.77375 0.0
O302 O 0.91446 0.5875 0.83402 0.0
C303 C 0.94485 0.58036 0.77275 0.0
O304 O 0.94997 0.51024 0.78624 0.0
C305 C 0.8936 0.57393 0.83034 0.0
O306 O 0.92173 0.51557 0.80585 0.0
O307 O 0.89023 0.55349 0.81906 0.0
C308 C 0.83443 0.47139 0.48549 0.0
O309 O 0.82398 0.48556 0.47744 0.0
Cd310 Cd 0.78273 0.47642 0.47725 0.0
O311 O 0.82325 0.45235 0.494 0.0
Cd312 Cd 0.78436 0.42934 0.50284 0.0
C313 C 0.76716 0.42021 0.44748 0.0
O314 O 0.77791 0.46708 0.51512 0.0
O315 O 0.74904 0.43534 0.51801 0.0
O316 O 0.8081 0.42117 0.53316 0.0
C317 C 0.75803 0.45829 0.52169 0.0
O318 O 0.76893 0.44285 0.44767 0.0
C319 C 0.79702 0.39874 0.53307 0.0
O320 O 0.77176 0.41125 0.46516 0.0
O321 O 0.7795 0.39032 0.51892 0.0
C322 C 0.64231 0.52766 0.36996 0.0
O323 O 0.62651 0.5355 0.36125 0.0
Cd324 Cd 0.62467 0.5513 0.326 0.0
O325 O 0.65973 0.52643 0.35967 0.0
Cd326 Cd 0.67126 0.53496 0.32218 0.0
C327 C 0.67746 0.59529 0.33024 0.0
O328 O 0.63367 0.52308 0.30018 0.0
O329 O 0.66306 0.54486 0.28512 0.0
O330 O 0.68316 0.499 0.31219 0.0
C331 C 0.64165 0.53319 0.28328 0.0
O332 O 0.65543 0.59014 0.32719 0.0
C333 C 0.70438 0.51074 0.31134 0.0
O334 O 0.6873 0.57851 0.33125 0.0
O335 O 0.71036 0.53361 0.31677 0.0
Tb336 Tb 0.0707 0.06291 0.05336 0.0
Tb337 Tb 0.02491 0.02551 0.02424 0.0
C338 C 0.02106 0.05349 0.06955 0.0
C339 C 0.12769 0.07989 0.08316 0.0
C340 C 0.16215 0.05587 0.08631 0.0
C341 C 0.16575 0.07708 0.07513 0.0
C342 C 0.14866 0.08903 0.07362 0.0
C343 C 0.12516 0.06023 0.09629 0.0
C344 C 0.14227 0.04838 0.09788 0.0
C345 C 0.10736 0.0877 0.07594 0.0
O346 O 0.06443 0.02744 0.06632 0.0
O347 O 0.04666 1.00341 0.03474 0.0
O348 O 0.05044 0.04258 0.00279 0.0
O349 O 0.08256 0.04514 0.02533 0.0
O350 O 0.99246 0.99883 0.02189 0.0
O351 O 1.01031 1.00826 0.9927 0.0
O352 O 0.0196 0.06125 0.02177 0.0
O353 O 0.05697 0.08605 0.03268 0.0
O354 O 0.04117 0.06957 0.068 0.0
O355 O 0.01422 0.03251 0.05711 0.0
C356 C 0.05834 1.0063 0.05423 0.0
O357 O 0.10385 0.08819 0.0545 0.0
O358 O 0.08811 0.07748 0.08463 0.0
C359 C 0.07191 0.04224 0.00538 0.0
C360 C 0.96996 1.00092 0.98991 0.0
C361 C 0.92837 0.01286 0.98307 0.0
C362 C 0.92798 0.98844 0.98487 0.0
C363 C 0.94872 0.98256 0.98851 0.0
C364 C 0.97043 0.02457 0.98518 0.0
C365 C 0.9498 0.03052 0.98176 0.0
C366 C 0.99085 0.99675 0.00025 0.0
C367 C 0.03555 0.08274 0.02391 0.0
H368 H 0.18086 0.0833 0.06597 0.0
H369 H 0.15105 0.1042 0.0635 0.0
H370 H 0.10929 0.05283 0.10408 0.0
H371 H 0.13927 0.0324 0.10701 0.0
H372 H 0.91171 0.97433 0.98545 0.0
H373 H 0.94811 0.96415 0.99197 0.0
H374 H 0.98671 0.03898 0.98606 0.0
H375 H 0.95089 0.04952 0.98051 0.0
Tb376 Tb 0.29508 0.78388 0.29418 0.0
Tb377 Tb 0.3218 0.77427 0.25021 0.0
C378 C 0.2803 0.79703 0.24691 0.0
C379 C 0.27951 0.77662 0.35024 0.0
C380 C 0.28857 0.7562 0.38944 0.0
C381 C 0.27697 0.77428 0.3899 0.0
C382 C 0.27252 0.78448 0.3704 0.0
C383 C 0.29087 0.75848 0.34971 0.0
C384 C 0.29541 0.74843 0.36908 0.0
C385 C 0.27704 0.78848 0.33001 0.0
O386 O 0.28605 0.74463 0.28571 0.0
O387 O 0.289 0.74578 0.24849 0.0
O388 O 0.33364 0.75495 0.27592 0.0
O389 O 0.32797 0.77896 0.30568 0.0
O390 O 0.31984 0.75661 0.2182 0.0
O391 O 0.35243 0.77987 0.23398 0.0
O392 O 0.34175 0.80954 0.26718 0.0
O393 O 0.31304 0.81976 0.28515 0.0
O394 O 0.27349 0.78886 0.26588 0.0
O395 O 0.3005 0.79697 0.23997 0.0
C396 C 0.28036 0.73434 0.2653 0.0
O397 O 0.2963 0.80359 0.32506 0.0
O398 O 0.26603 0.77392 0.31268 0.0
C399 C 0.33764 0.76307 0.29711 0.0
C400 C 0.34395 0.7821 0.19583 0.0
C401 C 0.34167 0.8066 0.1576 0.0
C402 C 0.34213 0.78218 0.15569 0.0
C403 C 0.34329 0.77003 0.1747 0.0
C404 C 0.34418 0.80668 0.19781 0.0
C405 C 0.34318 0.81885 0.17888 0.0
C406 C 0.34121 0.76829 0.21541 0.0
C407 C 0.33354 0.82583 0.27743 0.0
H408 H 0.27132 0.78051 0.40528 0.0
H409 H 0.26394 0.79866 0.3711 0.0
H410 H 0.2967 0.75245 0.33433 0.0
H411 H 0.30481 0.73496 0.36815 0.0
H412 H 0.34112 0.77235 0.13949 0.0
H413 H 0.3428 0.75096 0.17288 0.0
H414 H 0.3442 0.8162 0.21396 0.0
H415 H 0.34245 0.83752 0.18089 0.0
Tb416 Tb 0.53883 0.03805 0.5431 0.0
Tb417 Tb 0.59119 0.04769 0.52607 0.0
C418 C 0.57931 0.028 0.5708 0.0
C419 C 0.48547 0.05125 0.55656 0.0
C420 C 0.45875 0.0842 0.55599 0.0
C421 C 0.45079 0.06192 0.56544 0.0
C422 C 0.46406 0.04557 0.56569 0.0
C423 C 0.49358 0.0735 0.54726 0.0
C424 C 0.48032 0.08982 0.54694 0.0
C425 C 0.49928 0.03398 0.55633 0.0
O426 O 0.55904 0.07509 0.55597 0.0
O427 O 0.58761 0.08417 0.53175 0.0
O428 O 0.56906 0.04951 0.49725 0.0
O429 O 0.539 0.0583 0.51429 0.0
O430 O 0.62723 0.06283 0.53314 0.0
O431 O 0.61295 0.04043 0.50248 0.0
O432 O 0.57586 1.00824 0.52511 0.0
O433 O 0.53743 1.00637 0.52029 0.0
O434 O 0.55721 0.01898 0.56399 0.0
O435 O 0.59235 0.04626 0.56155 0.0
C436 C 0.57527 0.09095 0.54674 0.0
O437 O 0.50261 0.0256 0.5366 0.0
O438 O 0.51842 0.04074 0.5695 0.0
C439 C 0.5505 0.05707 0.49677 0.0
C440 C 0.64546 0.03402 0.52089 0.0
C441 C 0.67089 1.0012 0.52964 0.0
C442 C 0.6803 0.02153 0.51791 0.0
C443 C 0.6676 0.03781 0.5135 0.0
C444 C 0.63617 0.01394 0.53283 0.0
C445 C 0.64873 0.99763 0.53712 0.0
C446 C 0.63158 0.05041 0.51589 0.0
C447 C 0.55418 0.99613 0.51858 0.0
H448 H 0.4341 0.05691 0.57228 0.0
H449 H 0.45753 0.02843 0.57285 0.0
H450 H 0.51014 0.07819 0.54017 0.0
H451 H 0.48706 0.10691 0.53978 0.0
H452 H 0.6973 0.02459 0.51182 0.0
H453 H 0.67497 0.05319 0.50422 0.0
H454 H 0.61912 0.01084 0.53879 0.0
H455 H 0.6412 0.98235 0.54646 0.0
Tb456 Tb 0.32826 0.28727 0.78064 0.0
Tb457 Tb 0.28048 0.30294 0.77318 0.0
C458 C 0.27973 0.25194 0.78592 0.0
C459 C 0.3863 0.27818 0.77563 0.0
C460 C 0.42684 0.28285 0.75361 0.0
C461 C 0.41956 0.26435 0.76783 0.0
C462 C 0.3995 0.26209 0.77877 0.0
C463 C 0.39329 0.29661 0.76138 0.0
C464 C 0.41347 0.29898 0.7505 0.0
C465 C 0.36482 0.27479 0.78662 0.0
O466 O 0.32341 0.28806 0.7448 0.0
O467 O 0.28415 0.28342 0.74175 0.0
O468 O 0.30561 0.33001 0.7577 0.0
O469 O 0.33922 0.32582 0.77494 0.0
O470 O 0.24565 0.29296 0.76034 0.0
O471 O 0.26156 0.32805 0.77901 0.0
O472 O 0.29697 0.31922 0.80595 0.0
O473 O 0.31642 0.29173 0.81374 0.0
O474 O 0.29904 0.25422 0.77647 0.0
O475 O 0.27265 0.27089 0.79118 0.0
C476 C 0.30341 0.28304 0.73275 0.0
O477 O 0.36168 0.29432 0.79672 0.0
O478 O 0.34607 0.26126 0.77497 0.0
C479 C 0.32815 0.33768 0.76271 0.0
C480 C 0.22393 0.30648 0.78671 0.0
C481 C 0.19152 0.29714 0.81884 0.0
C482 C 0.19679 0.31937 0.80912 0.0
C483 C 0.21287 0.32398 0.79312 0.0
C484 C 0.21875 0.28435 0.79655 0.0
C485 C 0.20265 0.2797 0.81236 0.0
C486 C 0.24211 0.31192 0.77115 0.0
C487 C 0.30645 0.30824 0.82044 0.0
H488 H 0.42915 0.25131 0.77027 0.0
H489 H 0.39414 0.24758 0.78951 0.0
H490 H 0.38312 0.30907 0.75864 0.0
H491 H 0.41869 0.31356 0.73983 0.0
H492 H 0.18833 0.33306 0.81374 0.0
H493 H 0.21684 0.34126 0.78592 0.0
H494 H 0.22731 0.27067 0.79224 0.0
H495 H 0.19919 0.26257 0.81979 0.0
Tb496 Tb 0.05717 0.06154 0.55486 0.0
Tb497 Tb 0.06171 0.03138 0.50916 0.0
C498 C 0.01369 0.02565 0.52659 0.0
C499 C 0.06875 0.07746 0.61321 0.0
C500 C 0.08884 0.0615 0.65012 0.0
C501 C 0.06892 0.06938 0.65197 0.0
C502 C 0.05891 0.07728 0.63357 0.0
C503 C 0.0888 0.06993 0.61152 0.0
C504 C 0.09871 0.06206 0.62973 0.0
C505 C 0.0569 0.08224 0.5929 0.0
O506 O 0.06929 0.03055 0.56571 0.0
O507 O 0.05805 1.00425 0.53402 0.0
O508 O 0.0965 0.04445 0.52583 0.0
O509 O 0.09129 0.07788 0.54458 0.0
O510 O 0.05054 0.99968 0.48684 0.0
O511 O 0.07979 0.02978 0.48084 0.0
O512 O 0.06191 0.06817 0.49939 0.0
O513 O 0.04743 0.08387 0.52946 0.0
O514 O 0.02396 0.0344 0.54636 0.0
O515 O 0.02514 0.02881 0.50886 0.0
C516 C 0.06413 1.00804 0.55567 0.0
O517 O 0.07051 0.0922 0.57822 0.0
O518 O 0.03991 0.06388 0.58376 0.0
C519 C 0.10491 0.0667 0.53548 0.0
C520 C 0.05446 0.00979 0.45 0.0
C521 C 0.03673 0.01726 0.40791 0.0
C522 C 0.05951 0.01569 0.41119 0.0
C523 C 0.06828 0.01195 0.43209 0.0
C524 C 0.03149 0.01062 0.44663 0.0
C525 C 0.02266 0.01414 0.42574 0.0
C526 C 0.06483 0.00932 0.47247 0.0
C527 C 0.05407 0.08549 0.50895 0.0
H528 H 0.06103 0.06926 0.66754 0.0
H529 H 0.04322 0.08265 0.63506 0.0
H530 H 0.09645 0.06937 0.59584 0.0
H531 H 0.11371 0.05562 0.62759 0.0
H532 H 0.07087 0.01828 0.39786 0.0
H533 H 0.08613 0.01163 0.43447 0.0
H534 H 0.02051 0.0092 0.46024 0.0
H535 H 1.00491 0.01478 0.42366 0.0
Tb536 Tb 0.31826 0.82039 0.77048 0.0
Tb537 Tb 0.29192 0.77129 0.79253 0.0
C538 C 0.31632 0.76864 0.74785 0.0
C539 C 0.33029 0.88267 0.75642 0.0
C540 C 0.31406 0.92226 0.7697 0.0
C541 C 0.33804 0.92524 0.7703 0.0
C542 C 0.34611 0.90551 0.7637 0.0
C543 C 0.30646 0.88024 0.75407 0.0
C544 C 0.29843 0.89985 0.76061 0.0
C545 C 0.33795 0.8607 0.7565 0.0
O546 O 0.28208 0.81059 0.75442 0.0
O547 O 0.26314 0.78479 0.7789 0.0
O548 O 0.29947 0.80143 0.81808 0.0
O549 O 0.29874 0.83153 0.79611 0.0
O550 O 0.26822 0.73601 0.78931 0.0
O551 O 0.28403 0.75366 0.8214 0.0
O552 O 0.32905 0.7729 0.79917 0.0
O553 O 0.34583 0.81271 0.79246 0.0
O554 O 0.32679 0.79216 0.75023 0.0
O555 O 0.30047 0.75799 0.76069 0.0
C556 C 0.26244 0.79833 0.76219 0.0
O557 O 0.34236 0.85511 0.77644 0.0
O558 O 0.32556 0.84159 0.74351 0.0
C559 C 0.2963 0.82258 0.81531 0.0
C560 C 0.27977 0.71174 0.81434 0.0
C561 C 0.29599 0.67047 0.81481 0.0
C562 C 0.27208 0.66769 0.81097 0.0
C563 C 0.26404 0.68823 0.8107 0.0
C564 C 0.30342 0.7145 0.81943 0.0
C565 C 0.31145 0.69411 0.8197 0.0
C566 C 0.27207 0.73318 0.81019 0.0
C567 C 0.34763 0.79219 0.80006 0.0
H568 H 0.35048 0.94238 0.77698 0.0
H569 H 0.36455 0.9076 0.76584 0.0
H570 H 0.29388 0.86268 0.74889 0.0
H571 H 0.27984 0.89673 0.76021 0.0
H572 H 0.25973 0.64971 0.80733 0.0
H573 H 0.24572 0.68577 0.80668 0.0
H574 H 0.31594 0.73246 0.82214 0.0
H575 H 0.33 0.69704 0.82231 0.0
Tb576 Tb 0.54701 0.03155 0.05124 0.0
Tb577 Tb 0.54879 0.05799 0.00638 0.0
C578 C 0.59333 0.06143 0.03504 0.0
C579 C 0.54079 0.02265 0.10968 0.0
C580 C 0.52349 0.04279 0.14594 0.0
C581 C 0.51836 0.01732 0.14161 0.0
C582 C 0.52697 1.00731 0.12358 0.0
C583 C 0.54747 0.04809 0.11498 0.0
C584 C 0.53896 0.05812 0.13313 0.0
C585 C 0.54337 0.01251 0.08745 0.0
O586 O 0.53929 0.0664 0.0612 0.0
O587 O 0.55398 0.08846 0.03259 0.0
O588 O 0.51452 0.05102 0.01761 0.0
O589 O 0.5147 0.0155 0.03067 0.0
O590 O 0.56443 0.08492 0.98599 0.0
O591 O 0.53022 0.05977 0.97655 0.0
O592 O 0.54708 0.01962 0.99488 0.0
O593 O 0.55733 1.006 0.02768 0.0
O594 O 0.58091 0.05796 0.05208 0.0
O595 O 0.58354 0.05635 0.0147 0.0
C596 C 0.54642 0.08765 0.05263 0.0
O597 O 0.52587 0.01112 0.07321 0.0
O598 O 0.56319 0.02141 0.07924 0.0
C599 C 0.50325 0.02918 0.02203 0.0
C600 C 0.55388 0.07127 0.94812 0.0
C601 C 0.56188 0.0554 0.90524 0.0
C602 C 0.545 0.06758 0.90826 0.0
C603 C 0.54106 0.07549 0.92958 0.0
C604 C 0.57099 0.05948 0.94524 0.0
C605 C 0.57509 0.05177 0.92393 0.0
C606 C 0.54747 0.07675 0.9703 0.0
C607 C 0.55335 1.00292 0.00574 0.0
H608 H 0.50672 1.00516 0.15151 0.0
H609 H 0.52146 0.98767 0.11954 0.0
H610 H 0.55787 0.06023 0.10421 0.0
H611 H 0.54312 0.0778 0.13612 0.0
H612 H 0.53435 0.07038 0.89422 0.0
H613 H 0.52753 0.08423 0.93165 0.0
H614 H 0.58082 0.05578 0.95945 0.0
H615 H 0.58852 0.04285 0.92214 0.0
Tb616 Tb 0.29414 0.27087 0.27374 0.0
Tb617 Tb 0.3168 0.32774 0.29162 0.0
C618 C 0.29842 0.31079 0.24054 0.0
C619 C 0.28272 0.20549 0.27374 0.0
C620 C 0.29283 0.17042 0.29936 0.0
C621 C 0.27065 0.16591 0.2882 0.0
C622 C 0.26559 0.18345 0.27554 0.0
C623 C 0.30496 0.20977 0.28448 0.0
C624 C 0.31 0.19238 0.29708 0.0
C625 C 0.27666 0.2255 0.26375 0.0
O626 O 0.33001 0.27876 0.2627 0.0
O627 O 0.34737 0.31726 0.28031 0.0
O628 O 0.31217 0.30783 0.32094 0.0
O629 O 0.31342 0.27093 0.30552 0.0
O630 O 0.31995 0.36458 0.28896 0.0
O631 O 0.34076 0.35384 0.31442 0.0
O632 O 0.27965 0.32189 0.29834 0.0
O633 O 0.2653 0.28037 0.29011 0.0
O634 O 0.28568 0.28961 0.24585 0.0
O635 O 0.31294 0.32664 0.25543 0.0
C636 C 0.34866 0.29795 0.26753 0.0
O637 O 0.26811 0.23849 0.27735 0.0
O638 O 0.29238 0.2393 0.25278 0.0
C639 C 0.31467 0.28622 0.32309 0.0
C640 C 0.32701 0.38758 0.32333 0.0
C641 C 0.30741 0.42197 0.34301 0.0
C642 C 0.33116 0.42871 0.33928 0.0
C643 C 0.34076 0.41168 0.32904 0.0
C644 C 0.30463 0.37993 0.33034 0.0
C645 C 0.29481 0.39696 0.33995 0.0
C646 C 0.33418 0.37175 0.30694 0.0
C647 C 0.26257 0.30128 0.29841 0.0
H648 H 0.25712 0.14912 0.28965 0.0
H649 H 0.24819 0.18013 0.26771 0.0
H650 H 0.31834 0.22686 0.2836 0.0
H651 H 0.32743 0.19616 0.30497 0.0
H652 H 0.34182 0.44752 0.3424 0.0
H653 H 0.3583 0.41775 0.32414 0.0
H654 H 0.29397 0.36121 0.32646 0.0
H655 H 0.27659 0.39062 0.34264 0.0
Tb656 Tb 0.55499 0.56171 0.05463 0.0
Tb657 Tb 0.56076 0.53189 0.00911 0.0
C658 C 0.51357 0.52297 0.02807 0.0
C659 C 0.54396 0.57659 0.11229 0.0
C660 C 0.54611 0.56531 0.15644 0.0
C661 C 0.54541 0.5887 0.1516 0.0
C662 C 0.54454 0.59435 0.12961 0.0
C663 C 0.54184 0.55251 0.11688 0.0
C664 C 0.54291 0.54688 0.13885 0.0
C665 C 0.54964 0.58406 0.09031 0.0
O666 O 0.56466 0.52971 0.06671 0.0
O667 O 0.55938 0.50495 0.03392 0.0
O668 O 0.59521 0.54673 0.02625 0.0
O669 O 0.58838 0.58007 0.04366 0.0
O670 O 0.54838 0.50073 0.98623 0.0
O671 O 0.57921 0.52938 0.98122 0.0
O672 O 0.56103 0.56823 0.99836 0.0
O673 O 0.54735 0.58449 0.02857 0.0
O674 O 0.52454 0.53054 0.0477 0.0
O675 O 0.52418 0.52897 0.01024 0.0
C676 C 0.56262 0.50801 0.05594 0.0
O677 O 0.56962 0.58201 0.08478 0.0
O678 O 0.53325 0.57571 0.07412 0.0
C679 C 0.60271 0.56942 0.03506 0.0
C680 C 0.55329 0.51195 0.95018 0.0
C681 C 0.53463 0.51785 0.908 0.0
C682 C 0.54897 0.50252 0.91018 0.0
C683 C 0.55826 0.4996 0.93119 0.0
C684 C 0.53894 0.52715 0.94808 0.0
C685 C 0.52973 0.53011 0.9272 0.0
C686 C 0.56338 0.5098 0.97226 0.0
C687 C 0.55372 0.58583 0.008 0.0
H688 H 0.54743 0.60313 0.16483 0.0
H689 H 0.54605 0.61299 0.12625 0.0
H690 H 0.54128 0.53857 0.10359 0.0
H691 H 0.54352 0.52874 0.14197 0.0
H692 H 0.55288 0.49269 0.89569 0.0
H693 H 0.56934 0.48784 0.9326 0.0
H694 H 0.53504 0.53691 0.96263 0.0
H695 H 0.5191 0.54237 0.92608 0.0
Tb696 Tb 0.81763 0.32161 0.27077 0.0
Tb697 Tb 0.79153 0.273 0.29354 0.0
C698 C 0.81596 0.26969 0.24932 0.0
C699 C 0.82701 0.38108 0.25005 0.0
C700 C 0.80732 0.4199 0.25115 0.0
C701 C 0.83155 0.4246 0.25442 0.0
C702 C 0.84133 0.40525 0.25392 0.0
C703 C 0.80302 0.37648 0.24536 0.0
C704 C 0.79328 0.39567 0.24585 0.0
C705 C 0.83631 0.36081 0.25446 0.0
O706 O 0.78142 0.31071 0.25448 0.0
O707 O 0.76256 0.28611 0.2798 0.0
O708 O 0.7988 0.30366 0.31851 0.0
O709 O 0.79775 0.3331 0.29585 0.0
O710 O 0.76864 0.2373 0.29092 0.0
O711 O 0.78356 0.25621 0.32281 0.0
O712 O 0.82882 0.27507 0.30003 0.0
O713 O 0.84533 0.31503 0.29351 0.0
O714 O 0.82736 0.29294 0.25242 0.0
O715 O 0.79905 0.25958 0.26128 0.0
C716 C 0.76179 0.29897 0.2626 0.0
O717 O 0.83908 0.35784 0.2755 0.0
O718 O 0.82629 0.34011 0.24249 0.0
C719 C 0.79523 0.32453 0.31521 0.0
C720 C 0.78026 0.21442 0.31728 0.0
C721 C 0.79704 0.17378 0.32059 0.0
C722 C 0.77305 0.17057 0.31689 0.0
C723 C 0.76473 0.19079 0.3152 0.0
C724 C 0.80404 0.21771 0.32216 0.0
C725 C 0.81235 0.19763 0.32383 0.0
C726 C 0.77215 0.23529 0.31202 0.0
C727 C 0.8473 0.29452 0.30111 0.0
H728 H 0.84282 0.44309 0.25835 0.0
H729 H 0.85987 0.40909 0.25774 0.0
H730 H 0.79157 0.35795 0.24265 0.0
H731 H 0.77454 0.39125 0.24367 0.0
H732 H 0.76081 0.15243 0.3145 0.0
H733 H 0.74631 0.18794 0.31138 0.0
H734 H 0.81638 0.23577 0.32372 0.0
H735 H 0.83095 0.20086 0.32626 0.0
Tb736 Tb 0.04872 0.53157 0.55216 0.0
Tb737 Tb 0.05188 0.55871 0.50766 0.0
C738 C 0.09578 0.56041 0.53662 0.0
C739 C 0.04213 0.52299 0.6105 0.0
C740 C 0.02588 0.5443 0.64682 0.0
C741 C 0.02 0.51874 0.64265 0.0
C742 C 0.02807 0.50816 0.62457 0.0
C743 C 0.04955 0.54846 0.61563 0.0
C744 C 0.04155 0.55907 0.6338 0.0
C745 C 0.04431 0.51247 0.5883 0.0
O746 O 0.04125 0.56653 0.56201 0.0
O747 O 0.05721 0.58899 0.53411 0.0
O748 O 0.01743 0.55189 0.51839 0.0
O749 O 0.0167 0.51595 0.53103 0.0
O750 O 0.06849 0.58516 0.48721 0.0
O751 O 0.03346 0.56174 0.47817 0.0
O752 O 0.04952 0.52025 0.49581 0.0
O753 O 0.05869 0.50582 0.52857 0.0
O754 O 0.08309 0.55729 0.55349 0.0
O755 O 0.08622 0.55598 0.5162 0.0
C756 C 0.04898 0.58793 0.55385 0.0
O757 O 0.027 0.51169 0.57404 0.0
O758 O 0.06425 0.52061 0.58007 0.0
C759 C 1.00575 0.52994 0.52214 0.0
C760 C 0.05684 0.57179 0.44937 0.0
C761 C 0.06247 0.55392 0.40635 0.0
C762 C 0.04616 0.56676 0.40973 0.0
C763 C 0.04341 0.57567 0.43111 0.0
C764 C 0.07344 0.5594 0.4461 0.0
C765 C 0.07637 0.55071 0.42472 0.0
C766 C 0.05123 0.57788 0.47174 0.0
C767 C 0.05512 0.50313 0.5066 0.0
H768 H 1.0082 0.50699 0.65271 0.0
H769 H 0.022 0.4885 0.62067 0.0
H770 H 0.06015 0.56023 0.60472 0.0
H771 H 0.04629 0.57881 0.63666 0.0
H772 H 0.03499 0.56928 0.39597 0.0
H773 H 0.03023 0.58484 0.43348 0.0
H774 H 0.08371 0.55591 0.4601 0.0
H775 H 0.08941 0.54131 0.42263 0.0
Tb776 Tb 0.83072 0.78586 0.28226 0.0
Tb777 Tb 0.78322 0.80195 0.27254 0.0
C778 C 0.78139 0.75019 0.28703 0.0
C779 C 0.88784 0.77626 0.27544 0.0
C780 C 0.92714 0.78002 0.25166 0.0
C781 C 0.92094 0.76243 0.26694 0.0
C782 C 0.90149 0.76064 0.27877 0.0
C783 C 0.89346 0.79333 0.25973 0.0
C784 C 0.913 0.79527 0.248 0.0
C785 C 0.86785 0.77465 0.28845 0.0
O786 O 0.81801 0.77248 0.24761 0.0
O787 O 0.79497 0.7971 0.23977 0.0
O788 O 0.81259 0.83458 0.2754 0.0
O789 O 0.84063 0.81796 0.26431 0.0
O790 O 0.75016 0.79652 0.25616 0.0
O791 O 0.76578 0.82798 0.27979 0.0
O792 O 0.7861 0.79836 0.30797 0.0
O793 O 0.8254 0.80486 0.31341 0.0
O794 O 0.8033 0.75803 0.2948 0.0
O795 O 0.77199 0.7627 0.27403 0.0
C796 C 0.8066 0.78202 0.23329 0.0
O797 O 0.86519 0.79547 0.29605 0.0
O798 O 0.84828 0.75915 0.27995 0.0
C799 C 0.83215 0.83647 0.26646 0.0
C800 C 0.72633 0.80884 0.28115 0.0
C801 C 0.6913 0.80003 0.3106 0.0
C802 C 0.69824 0.82252 0.30143 0.0
C803 C 0.71561 0.82686 0.28674 0.0
C804 C 0.71924 0.78628 0.29011 0.0
C805 C 0.70174 0.78185 0.30457 0.0
C806 C 0.74676 0.81468 0.26838 0.0
C807 C 0.80529 0.80381 0.32123 0.0
H808 H 0.93115 0.75006 0.26983 0.0
H809 H 0.89721 0.74717 0.29065 0.0
H810 H 0.88294 0.80541 0.25679 0.0
H811 H 0.91736 0.80914 0.23652 0.0
H812 H 0.6903 0.83675 0.3057 0.0
H813 H 0.72114 0.8445 0.28025 0.0
H814 H 0.72768 0.77234 0.28647 0.0
H815 H 0.69692 0.76448 0.31162 0.0
Tb816 Tb 0.79907 0.28423 0.79165 0.0
Tb817 Tb 0.82415 0.27425 0.74625 0.0
C818 C 0.78217 0.29712 0.74539 0.0
C819 C 0.78322 0.27858 0.84849 0.0
C820 C 0.79038 0.25843 0.88839 0.0
C821 C 0.78286 0.27951 0.88862 0.0
C822 C 0.77938 0.28955 0.86878 0.0
C823 C 0.79037 0.25741 0.84818 0.0
C824 C 0.794 0.24749 0.86789 0.0
C825 C 0.78183 0.29016 0.82787 0.0
O826 O 0.77725 0.25063 0.77337 0.0
O827 O 0.80497 0.23875 0.75523 0.0
O828 O 0.84737 0.27216 0.77439 0.0
O829 O 0.82152 0.26241 0.80091 0.0
O830 O 0.82114 0.25575 0.71443 0.0
O831 O 0.8539 0.28047 0.72873 0.0
O832 O 0.83332 0.31358 0.75329 0.0
O833 O 0.83048 0.31422 0.79082 0.0
O834 O 0.78541 0.30325 0.76698 0.0
O835 O 0.7925 0.28255 0.73537 0.0
C836 C 0.78428 0.23386 0.76245 0.0
O837 O 0.80155 0.30409 0.82275 0.0
O838 O 0.77036 0.27575 0.81071 0.0
C839 C 0.84195 0.26426 0.79373 0.0
C840 C 0.84365 0.28102 0.69063 0.0
C841 C 0.84059 0.30478 0.65207 0.0
C842 C 0.83903 0.27979 0.65041 0.0
C843 C 0.84061 0.26801 0.66959 0.0
C844 C 0.84567 0.30608 0.69229 0.0
C845 C 0.84429 0.31787 0.67319 0.0
C846 C 0.84212 0.268 0.7107 0.0
C847 C 0.83822 0.32504 0.77333 0.0
H848 H 0.7797 0.28823 0.90409 0.0
H849 H 0.77403 0.30603 0.86931 0.0
H850 H 0.79362 0.24878 0.8327 0.0
H851 H 0.80023 0.23157 0.86707 0.0
H852 H 0.83626 0.2693 0.63432 0.0
H853 H 0.83876 0.2486 0.66802 0.0
H854 H 0.84758 0.31642 0.70837 0.0
H855 H 0.84514 0.33703 0.67502 0.0
Tb856 Tb 0.79478 0.76987 0.77396 0.0
Tb857 Tb 0.81766 0.82679 0.79163 0.0
C858 C 0.79934 0.80956 0.74067 0.0
C859 C 0.7838 0.70444 0.77328 0.0
C860 C 0.79484 0.66921 0.79806 0.0
C861 C 0.77242 0.66464 0.78741 0.0
C862 C 0.7669 0.68225 0.77517 0.0
C863 C 0.80629 0.70876 0.78345 0.0
C864 C 0.81179 0.69129 0.79563 0.0
C865 C 0.77725 0.72452 0.76393 0.0
O866 O 0.83067 0.77762 0.76301 0.0
O867 O 0.84822 0.8162 0.7804 0.0
O868 O 0.81324 0.80699 0.82103 0.0
O869 O 0.81427 0.77 0.80561 0.0
O870 O 0.82088 0.86356 0.78853 0.0
O871 O 0.84142 0.8531 0.81442 0.0
O872 O 0.78048 0.8211 0.79817 0.0
O873 O 0.76602 0.77954 0.79028 0.0
O874 O 0.78619 0.78871 0.74623 0.0
O875 O 0.81418 0.82527 0.7554 0.0
C876 C 0.84939 0.79677 0.76773 0.0
O877 O 0.76924 0.73735 0.77819 0.0
O878 O 0.79241 0.73846 0.75252 0.0
C879 C 0.81567 0.78533 0.82317 0.0
C880 C 0.82768 0.88701 0.82264 0.0
C881 C 0.8078 0.92169 0.84128 0.0
C882 C 0.83157 0.92842 0.8376 0.0
C883 C 0.84131 0.91123 0.8279 0.0
C884 C 0.80526 0.87947 0.8296 0.0
C885 C 0.7953 0.89665 0.83869 0.0
C886 C 0.83497 0.87092 0.80659 0.0
C887 C 0.76335 0.80054 0.79838 0.0
H888 H 0.75905 0.64777 0.78899 0.0
H889 H 0.74932 0.67889 0.76779 0.0
H890 H 0.81949 0.72595 0.7825 0.0
H891 H 0.82938 0.69511 0.80315 0.0
H892 H 0.84211 0.94731 0.84033 0.0
H893 H 0.85886 0.91724 0.82301 0.0
H894 H 0.79467 0.86069 0.82602 0.0
H895 H 0.77707 0.89039 0.84134 0.0
Tb896 Tb 0.57925 0.56369 0.5569 0.0
Tb897 Tb 0.5366 0.52616 0.52351 0.0
C898 C 0.527 0.55381 0.56654 0.0
C899 C 0.63627 0.5864 0.58732 0.0
C900 C 0.67387 0.56674 0.58898 0.0
C901 C 0.6581 0.56248 0.60536 0.0
C902 C 0.63951 0.57234 0.60461 0.0
C903 C 0.65366 0.59312 0.57266 0.0
C904 C 0.67227 0.58331 0.57344 0.0
C905 C 0.61331 0.59006 0.58223 0.0
O906 O 0.58186 0.52725 0.56091 0.0
O907 O 0.54426 0.50464 0.54948 0.0
O908 O 0.56811 0.51877 0.5147 0.0
O909 O 0.59339 0.55653 0.52571 0.0
O910 O 0.50477 0.49859 0.51825 0.0
O911 O 0.52363 0.51265 0.49059 0.0
O912 O 0.54489 0.56192 0.51052 0.0
O913 O 0.5608 0.5869 0.54238 0.0
O914 O 0.54836 0.55655 0.57468 0.0
O915 O 0.51973 0.54558 0.54578 0.0
C916 C 0.56475 0.50685 0.55971 0.0
O917 O 0.60865 0.59449 0.56189 0.0
O918 O 0.59579 0.57392 0.58911 0.0
C919 C 0.58804 0.53529 0.51381 0.0
C920 C 0.48312 0.50525 0.48758 0.0
C921 C 0.4421 0.51888 0.48394 0.0
C922 C 0.44111 0.49408 0.48384 0.0
C923 C 0.46156 0.48732 0.48577 0.0
C924 C 0.48407 0.52961 0.4851 0.0
C925 C 0.46373 0.53637 0.4832 0.0
C926 C 0.50386 0.49975 0.4968 0.0
C927 C 0.55063 0.58345 0.52212 0.0
H928 H 0.65925 0.5502 0.61782 0.0
H929 H 0.62668 0.5673 0.6165 0.0
H930 H 0.65193 0.6043 0.5594 0.0
H931 H 0.68416 0.58701 0.5606 0.0
H932 H 0.42464 0.48017 0.48407 0.0
H933 H 0.46054 0.46844 0.48771 0.0
H934 H 0.50053 0.5438 0.48664 0.0
H935 H 0.46522 0.55564 0.48351 0.0
Tb936 Tb 0.04242 0.54159 0.04442 0.0
Tb937 Tb 0.09503 0.55545 0.02752 0.0
C938 C 0.08352 0.53172 0.07126 0.0
C939 C 0.9878 0.55211 0.05752 0.0
C940 C 0.95926 0.58322 0.05637 0.0
C941 C 0.95148 0.56019 0.06454 0.0
C942 C 0.96565 0.54474 0.06507 0.0
C943 C 0.99574 0.57513 0.04953 0.0
C944 C 0.98157 0.59053 0.0489 0.0
C945 C 1.00243 0.53565 0.05724 0.0
O946 O 0.06267 0.57733 0.06024 0.0
O947 O 0.08826 0.59043 0.03426 0.0
O948 O 0.0722 0.55524 0.99866 0.0
O949 O 0.04174 0.56241 0.01602 0.0
O950 O 0.13072 0.57279 0.03514 0.0
O951 O 0.11782 0.55156 0.00367 0.0
O952 O 0.08218 0.51574 0.02445 0.0
O953 O 0.04275 0.50974 0.02271 0.0
O954 O 0.06143 0.52254 0.06447 0.0
O955 O 0.09652 0.55054 0.06256 0.0
C956 C 0.0768 0.59507 0.05095 0.0
O957 O 1.0063 0.52793 0.03747 0.0
O958 O 0.02142 0.54287 0.07061 0.0
C959 C 0.053 0.56156 0.99828 0.0
C960 C 0.1504 0.54552 0.02218 0.0
C961 C 0.17553 0.51193 0.02896 0.0
C962 C 0.18429 0.53192 0.01661 0.0
C963 C 0.17172 0.54858 0.01316 0.0
C964 C 0.14187 0.52586 0.03482 0.0
C965 C 0.15428 0.50921 0.03816 0.0
C966 C 0.13601 0.56158 0.01761 0.0
C967 C 0.06074 0.50178 0.01942 0.0
H968 H 0.93426 0.5539 0.07015 0.0
H969 H 0.95923 0.52697 0.07117 0.0
H970 H 0.01287 0.58111 0.04365 0.0
H971 H 0.98816 0.60824 0.04276 0.0
H972 H 0.20058 0.53435 0.00922 0.0
H973 H 0.17844 0.56355 0.00323 0.0
H974 H 0.12541 0.5232 0.0419 0.0
H975 H 0.14728 0.49426 0.04803 0.0
H976 H 0.03311 0.22971 0.00375 0.0
H977 H 0.99726 0.08359 0.99716 0.0
H978 H 0.98666 0.18306 0.95066 0.0
H979 H 0.05918 0.13112 0.03432 0.0
H980 H 0.98794 0.11961 0.98476 0.0
H981 H 0.03693 0.19337 0.02039 0.0
C982 C 0.02334 0.21184 0.99581 0.0
C983 C 1.00966 0.20944 0.97568 0.0
C984 C 1.00351 0.12209 0.99569 0.0
C985 C 0.01414 0.16777 0.99458 0.0
C986 C 1.00886 0.10155 0.00278 0.0
C987 C 0.02919 0.10427 0.01662 0.0
C988 C 0.0184 0.14555 0.00275 0.0
C989 C 0.04347 0.12807 0.02345 0.0
C990 C 0.0257 0.1911 0.00524 0.0
C991 C 0.9975 0.18577 0.96613 0.0
N992 N 0.03781 0.14774 0.01647 0.0
N993 N 1.00012 0.16585 0.97558 0.0
H994 H 0.19595 0.82704 0.13822 0.0
H995 H 0.24364 0.81184 0.25981 0.0
H996 H 0.17116 0.85167 0.19834 0.0
H997 H 0.28171 0.8052 0.20281 0.0
H998 H 0.21726 0.82695 0.23688 0.0
H999 H 0.22851 0.82035 0.16069 0.0
C1000 C 0.19763 0.83152 0.15605 0.0
C1001 C 0.18067 0.83959 0.16648 0.0
C1002 C 0.23146 0.82237 0.22935 0.0
C1003 C 0.21746 0.83166 0.19218 0.0
C1004 C 0.24647 0.81358 0.24244 0.0
C1005 C 0.26479 0.80706 0.23318 0.0
C1006 C 0.23452 0.82437 0.20669 0.0
C1007 C 0.26774 0.80997 0.21061 0.0
C1008 C 0.21612 0.8276 0.16887 0.0
C1009 C 0.18365 0.84509 0.18964 0.0
N1010 N 0.25258 0.81818 0.19804 0.0
N1011 N 0.20145 0.84072 0.2017 0.0
H1012 H 0.51226 0.86624 0.42767 0.0
H1013 H 0.5787 0.96357 0.52584 0.0
H1014 H 0.54315 0.84362 0.48526 0.0
H1015 H 0.51683 0.96985 0.4902 0.0
H1016 H 0.56966 0.92123 0.50907 0.0
H1017 H 0.51714 0.9061 0.44812 0.0
C1018 C 0.51992 0.86964 0.44471 0.0
C1019 C 0.52728 0.85163 0.45484 0.0
C1020 C 0.558 0.93187 0.50511 0.0
C1021 C 0.53343 0.89736 0.47809 0.0
C1022 C 0.5632 0.95603 0.51454 0.0
C1023 C 0.54851 0.97026 0.50935 0.0
C1024 C 0.53832 0.9221 0.48996 0.0
C1025 C 0.52859 0.95952 0.4947 0.0
C1026 C 0.52264 0.89233 0.45635 0.0
C1027 C 0.5371 0.85697 0.47694 0.0
N1028 N 0.52425 0.9362 0.48527 0.0
N1029 N 0.54026 0.87955 0.48775 0.0
H1030 H 0.53357 0.30788 0.66074 0.0
H1031 H 0.46791 0.27696 0.77018 0.0
H1032 H 0.55821 0.27416 0.71475 0.0
H1033 H 0.43473 0.29403 0.71083 0.0
H1034 H 0.50237 0.27896 0.75072 0.0
H1035 H 0.49819 0.30568 0.67931 0.0
C1036 C 0.53152 0.29993 0.67642 0.0
C1037 C 0.54892 0.29123 0.68621 0.0
C1038 C 0.48755 0.28223 0.74191 0.0
C1039 C 0.50868 0.28888 0.70756 0.0
C1040 C 0.4678 0.281 0.753 0.0
C1041 C 0.44826 0.28512 0.74209 0.0
C1042 C 0.48795 0.2878 0.71974 0.0
C1043 C 0.44944 0.29092 0.71997 0.0
C1044 C 0.51134 0.29869 0.687 0.0
C1045 C 0.54531 0.28111 0.70655 0.0
N1046 N 0.46895 0.29207 0.7095 0.0
N1047 N 0.52568 0.28033 0.71657 0.0
H1048 H 0.055 0.85948 0.59555 0.0
H1049 H 0.07373 1.00637 0.60151 0.0
H1050 H 0.06991 0.90554 0.65733 0.0
H1051 H 0.05567 0.9588 0.54056 0.0
H1052 H 0.07338 0.9707 0.62201 0.0
H1053 H 0.05608 0.8955 0.57552 0.0
C1054 C 0.05857 0.8771 0.60506 0.0
C1055 C 0.06237 0.87888 0.62849 0.0
C1056 C 0.06953 0.96798 0.60414 0.0
C1057 C 0.06367 0.92132 0.60504 0.0
C1058 C 0.06977 0.98856 0.59227 0.0
C1059 C 0.06479 0.9862 0.5689 0.0
C1060 C 0.0643 0.94427 0.59287 0.0
C1061 C 0.05971 0.9621 0.55839 0.0
C1062 C 0.05916 0.89788 0.59346 0.0
C1063 C 0.06685 0.90274 0.6394 0.0
N1064 N 0.05962 0.94249 0.57025 0.0
N1065 N 0.06737 0.92266 0.62776 0.0
H1066 H 0.46881 0.759 0.8718 0.0
H1067 H 0.39112 0.82568 0.79904 0.0
H1068 H 0.49687 0.81883 0.83303 0.0
H1069 H 0.35988 0.7563 0.82352 0.0
H1070 H 0.42931 0.82423 0.81405 0.0
H1071 H 0.42916 0.75822 0.85727 0.0
C1072 C 0.46687 0.77196 0.86029 0.0
C1073 C 0.48689 0.78895 0.8538 0.0
C1074 C 0.41419 0.80923 0.81624 0.0
C1075 C 0.4407 0.78838 0.83705 0.0
C1076 C 0.39208 0.81007 0.8076 0.0
C1077 C 0.37159 0.79111 0.80974 0.0
C1078 C 0.41659 0.78939 0.82765 0.0
C1079 C 0.37478 0.77146 0.82121 0.0
C1080 C 0.44402 0.7715 0.85192 0.0
C1081 C 0.4825 0.80521 0.83873 0.0
N1082 N 0.39652 0.77119 0.82969 0.0
N1083 N 0.46038 0.80456 0.83117 0.0
H1084 H 0.53621 0.19924 0.15671 0.0
H1085 H 0.55757 0.13488 0.03967 0.0
H1086 H 0.5545 0.23983 0.10019 0.0
H1087 H 0.53433 0.09555 0.0958 0.0
H1088 H 0.55708 0.17298 0.06086 0.0
H1089 H 0.5359 0.16188 0.13449 0.0
C1090 C 0.54013 0.20049 0.13956 0.0
C1091 C 0.54537 0.22332 0.13062 0.0
C1092 C 0.55205 0.15606 0.06859 0.0
C1093 C 0.54516 0.17932 0.10446 0.0
C1094 C 0.55233 0.13407 0.05643 0.0
C1095 C 0.54597 0.11142 0.06569 0.0
C1096 C 0.54545 0.15595 0.09052 0.0
C1097 C 0.53939 0.11218 0.08766 0.0
C1098 C 0.53994 0.17884 0.12677 0.0
C1099 C 0.55025 0.22299 0.10807 0.0
N1100 N 0.53937 0.13379 0.09914 0.0
N1101 N 0.5501 0.20158 0.09595 0.0
H1102 H 0.11468 0.27189 0.3316 0.0
H1103 H 0.25358 0.33495 0.33027 0.0
H1104 H 0.1555 0.31759 0.388 0.0
H1105 H 0.21826 0.26702 0.29138 0.0
H1106 H 0.2175 0.33308 0.34811 0.0
H1107 H 0.15078 0.27379 0.31375 0.0
C1108 C 0.13111 0.28246 0.34034 0.0
C1109 C 0.13139 0.2945 0.36171 0.0
C1110 C 0.2175 0.31858 0.33561 0.0
C1111 C 0.17392 0.29725 0.34055 0.0
C1112 C 0.23831 0.3197 0.32517 0.0
C1113 C 0.23964 0.30118 0.30889 0.0
C1114 C 0.19699 0.29905 0.32966 0.0
C1115 C 0.21867 0.28189 0.30364 0.0
C1116 C 0.15196 0.28348 0.33002 0.0
C1117 C 0.15384 0.30781 0.37171 0.0
N1118 N 0.1986 0.2815 0.31365 0.0
N1119 N 0.17376 0.30897 0.36114 0.0
H1120 H 0.91044 0.05069 0.15345 0.0
H1121 H 0.02959 0.09517 0.09754 0.0
H1122 H 0.97089 0.10749 0.18298 0.0
H1123 H 0.97662 0.02713 0.07638 0.0
H1124 H 1.00408 0.10566 0.12352 0.0
H1125 H 0.93006 0.04853 0.11944 0.0
C1126 C 0.92753 0.06326 0.15248 0.0
C1127 C 0.93928 0.07908 0.17103 0.0
C1128 C 0.99798 0.08849 0.11311 0.0
C1129 C 0.96176 0.07647 0.13261 0.0
C1130 C 0.01258 0.08239 0.09832 0.0
C1131 C 1.00541 0.05998 0.08505 0.0
C1132 C 0.97602 0.07209 0.11472 0.0
C1133 C 0.983 0.04441 0.08658 0.0
C1134 C 0.93878 0.06184 0.1332 0.0
C1135 C 0.96141 0.09486 0.16905 0.0
N1136 N 0.96913 0.05067 0.10133 0.0
N1137 N 0.97207 0.09295 0.15027 0.0
H1138 H 0.32248 0.7277 0.52462 0.0
H1139 H 0.286 0.70853 0.39409 0.0
H1140 H 0.31905 0.66247 0.48245 0.0
H1141 H 0.30324 0.77933 0.43159 0.0
H1142 H 0.29692 0.69142 0.42712 0.0
H1143 H 0.31529 0.74742 0.49144 0.0
C1144 C 0.32055 0.71766 0.50839 0.0
C1145 C 0.32121 0.69335 0.5063 0.0
C1146 C 0.29841 0.71073 0.42817 0.0
C1147 C 0.31265 0.71558 0.46846 0.0
C1148 C 0.2922 0.72054 0.40926 0.0
C1149 C 0.29387 0.74548 0.40997 0.0
C1150 C 0.3062 0.72584 0.44813 0.0
C1151 C 0.30148 0.75997 0.43031 0.0
C1152 C 0.31636 0.72888 0.4895 0.0
C1153 C 0.31855 0.68118 0.48489 0.0
N1154 N 0.30738 0.74993 0.44862 0.0
N1155 N 0.3142 0.69234 0.46687 0.0
H1156 H 0.61095 0.95518 0.68112 0.0
H1157 H 0.62571 0.03614 0.58011 0.0
H1158 H 0.67697 0.99865 0.66276 0.0
H1159 H 0.55925 0.99185 0.59705 0.0
H1160 H 0.64501 0.01656 0.60602 0.0
H1161 H 0.59251 0.96087 0.64575 0.0
C1162 C 0.62169 0.96527 0.66929 0.0
C1163 C 0.64541 0.97693 0.67502 0.0
C1164 C 0.62621 0.01098 0.60406 0.0
C1165 C 0.62437 0.98405 0.63487 0.0
C1166 C 0.6151 0.02234 0.58939 0.0
C1167 C 0.59075 0.01601 0.58677 0.0
C1168 C 0.61296 0.99335 0.61657 0.0
C1169 C 0.57804 0.99757 0.59885 0.0
C1170 C 0.61112 0.96868 0.64918 0.0
C1171 C 0.65859 0.98957 0.65909 0.0
N1172 N 0.58932 0.98709 0.61348 0.0
N1173 N 0.64777 0.9933 0.6399 0.0
H1174 H 0.31765 0.32419 0.96637 0.0
H1175 H 0.28007 0.33466 0.83907 0.0
H1176 H 0.26367 0.35476 0.9443 0.0
H1177 H 0.32631 0.29279 0.85698 0.0
H1178 H 0.27437 0.34165 0.87809 0.0
H1179 H 0.32068 0.31071 0.9273 0.0
C1180 C 0.30601 0.32747 0.95343 0.0
C1181 C 0.29042 0.34071 0.95867 0.0
C1182 C 0.28579 0.3309 0.87361 0.0
C1183 C 0.2942 0.32595 0.91397 0.0
C1184 C 0.2892 0.32702 0.85121 0.0
C1185 C 0.30386 0.31323 0.84457 0.0
C1186 C 0.29721 0.32114 0.88985 0.0
C1187 C 0.31493 0.30363 0.86127 0.0
C1188 C 0.30792 0.32002 0.9311 0.0
C1189 C 0.27605 0.34477 0.94112 0.0
N1190 N 0.31148 0.30786 0.88313 0.0
N1191 N 0.27845 0.33769 0.91971 0.0
H1192 H 1.00826 0.03123 0.26851 0.0
H1193 H 1.00987 0.04753 0.40069 0.0
H1194 H 0.96011 0.06047 0.30298 0.0
H1195 H 0.04384 1.00093 0.36588 0.0
H1196 H 0.99512 0.05683 0.36507 0.0
H1197 H 0.02559 0.02499 0.30427 0.0
C1198 C 1.00146 0.03656 0.28359 0.0
C1199 C 0.98262 0.04629 0.28275 0.0
C1200 C 1.00579 0.04456 0.36524 0.0
C1201 C 1.00234 0.03911 0.32365 0.0
C1202 C 0.01409 0.03908 0.38556 0.0
C1203 C 0.02793 0.02319 0.3863 0.0
C1204 C 1.0115 0.03426 0.34546 0.0
C1205 C 0.03337 0.01339 0.36612 0.0
C1206 C 1.0113 0.03286 0.30398 0.0
C1207 C 0.97452 0.0528 0.30283 0.0
N1208 N 0.02511 0.01907 0.3465 0.0
N1209 N 0.98442 0.04904 0.32247 0.0
H1210 H 0.32374 0.64722 0.65996 0.0
H1211 H 0.34211 0.78368 0.71305 0.0
H1212 H 0.34703 0.71054 0.62374 0.0
H1213 H 0.30558 0.71883 0.74243 0.0
H1214 H 0.35135 0.75782 0.68321 0.0
H1215 H 0.32549 0.67409 0.69352 0.0
C1216 C 0.32961 0.6668 0.65912 0.0
C1217 C 0.3348 0.67664 0.63888 0.0
C1218 C 0.34145 0.7493 0.69628 0.0
C1219 C 0.33654 0.70749 0.67724 0.0
C1220 C 0.33613 0.76403 0.71331 0.0
C1221 C 0.32276 0.75339 0.7301 0.0
C1222 C 0.33348 0.72379 0.69616 0.0
C1223 C 0.31562 0.72783 0.72965 0.0
C1224 C 0.3305 0.68213 0.6783 0.0
C1225 C 0.34263 0.70216 0.63892 0.0
N1226 N 0.32099 0.71392 0.7129 0.0
N1227 N 0.34292 0.71673 0.65776 0.0
H1228 H 0.58435 0.04033 0.76621 0.0
H1229 H 0.57047 0.01231 0.89242 0.0
H1230 H 0.61814 0.99402 0.7993 0.0
H1231 H 0.56147 0.07748 0.86669 0.0
H1232 H 0.57931 0.99891 0.85567 0.0
H1233 H 0.56668 0.04713 0.80047 0.0
C1234 C 0.58776 0.0313 0.78057 0.0
C1235 C 0.60296 0.01687 0.78009 0.0
C1236 C 0.57523 0.01605 0.8581 0.0
C1237 C 0.58284 0.02449 0.81903 0.0
C1238 C 0.57037 0.02382 0.87907 0.0
C1239 C 0.56562 0.04627 0.88272 0.0
C1240 C 0.57513 0.03073 0.84064 0.0
C1241 C 0.56497 0.06003 0.86462 0.0
C1242 C 0.57777 0.03528 0.80008 0.0
C1243 C 0.60678 1.00557 0.79911 0.0
N1244 N 0.56983 0.0521 0.84435 0.0
N1245 N 0.59687 0.00973 0.81789 0.0
H1246 H 0.27943 0.30642 0.09516 0.0
H1247 H 0.32296 0.35253 0.22353 0.0
H1248 H 0.33272 0.37354 0.1178 0.0
H1249 H 0.27396 0.28189 0.203 0.0
H1250 H 0.32534 0.36055 0.18471 0.0
H1251 H 0.27647 0.29676 0.13398 0.0
C1252 C 0.29069 0.319 0.10821 0.0
C1253 C 0.3064 0.34083 0.10306 0.0
C1254 C 0.31399 0.34329 0.1886 0.0
C1255 C 0.30283 0.33005 0.14768 0.0
C1256 C 0.31251 0.3387 0.21091 0.0
C1257 C 0.29818 0.31645 0.21678 0.0
C1258 C 0.30106 0.32559 0.17171 0.0
C1259 C 0.28519 0.29934 0.1994 0.0
C1260 C 0.2889 0.31353 0.13041 0.0
C1261 C 0.32038 0.35648 0.1208 0.0
N1262 N 0.28696 0.30423 0.17772 0.0
N1263 N 0.31818 0.35085 0.14216 0.0
H1264 H 0.20834 0.93516 0.03595 0.0
H1265 H 0.20962 0.06865 0.08595 0.0
H1266 H 0.26687 0.9998 0.03717 0.0
H1267 H 0.14839 1.00618 0.07801 0.0
H1268 H 0.23249 0.04212 0.0734 0.0
H1269 H 0.18739 0.9596 0.05603 0.0
C1270 C 0.21677 0.95445 0.04046 0.0
C1271 C 0.23926 0.96553 0.03472 0.0
C1272 C 0.2141 0.03418 0.07469 0.0
C1273 C 0.21561 0.99346 0.05777 0.0
C1274 C 0.20106 0.04932 0.08186 0.0
C1275 C 0.17705 0.03968 0.08287 0.0
C1276 C 0.203 0.00927 0.06836 0.0
C1277 C 0.16689 0.01441 0.07767 0.0
C1278 C 0.20486 0.96837 0.05197 0.0
C1279 C 0.24946 0.99055 0.04109 0.0
N1280 N 0.17987 1.00013 0.0704 0.0
N1281 N 0.23754 1.00367 0.05221 0.0
H1282 H 0.72097 0.69251 0.02071 0.0
H1283 H 0.63777 0.55527 0.01634 0.0
H1284 H 0.74377 0.62923 0.00383 0.0
H1285 H 0.62183 0.61821 0.04706 0.0
H1286 H 0.67567 0.58195 0.00885 0.0
H1287 H 0.6828 0.66539 0.02659 0.0
C1288 C 0.71786 0.67293 0.018 0.0
C1289 C 0.73558 0.66309 0.01191 0.0
C1290 C 0.66387 0.58984 0.01733 0.0
C1291 C 0.69209 0.63199 0.01877 0.0
C1292 C 0.64229 0.57461 0.0217 0.0
C1293 C 0.62659 0.58448 0.03237 0.0
C1294 C 0.66964 0.6151 0.0235 0.0
C1295 C 0.63335 0.60972 0.03882 0.0
C1296 C 0.69614 0.65745 0.02151 0.0
C1297 C 0.73061 0.63757 0.00866 0.0
N1298 N 0.65428 0.62415 0.03418 0.0
N1299 N 0.70934 0.62288 0.01219 0.0
H1300 H 0.69415 0.46751 0.28566 0.0
H1301 H 0.82019 0.45694 0.285 0.0
H1302 H 0.75188 0.52715 0.31602 0.0
H1303 H 0.76856 0.4266 0.22967 0.0
H1304 H 0.79639 0.48201 0.29854 0.0
H1305 H 0.72142 0.44942 0.26808 0.0
C1306 C 0.71259 0.47666 0.2888 0.0
C1307 C 0.72084 0.49877 0.30236 0.0
C1308 C 0.79055 0.47017 0.28322 0.0
C1309 C 0.75201 0.47831 0.28223 0.0
C1310 C 0.8042 0.45601 0.27533 0.0
C1311 C 0.79616 0.43928 0.25634 0.0
C1312 C 0.76863 0.4672 0.27226 0.0
C1313 C 0.77513 0.43872 0.24471 0.0
C1314 C 0.7281 0.46651 0.27854 0.0
C1315 C 0.74489 0.51004 0.30568 0.0
N1316 N 0.76184 0.45207 0.25311 0.0
N1317 N 0.75973 0.49954 0.29581 0.0
H1318 H 0.86204 0.44448 0.50017 0.0
H1319 H 0.97887 0.55398 0.50123 0.0
H1320 H 0.86509 0.51352 0.4747 0.0
H1321 H 0.97583 0.48501 0.52681 0.0
H1322 H 0.93758 0.53847 0.48924 0.0
H1323 H 0.90416 0.45775 0.50719 0.0
C1324 C 0.87158 0.46235 0.49584 0.0
C1325 C 0.85999 0.47804 0.48706 0.0
C1326 C 0.94593 0.5267 0.49743 0.0
C1327 C 0.90823 0.4934 0.49524 0.0
C1328 C 0.9695 0.53556 0.50436 0.0
C1329 C 0.98075 0.52079 0.51516 0.0
C1330 C 0.9335 0.5029 0.50136 0.0
C1331 C 0.96779 0.49705 0.51864 0.0
C1332 C 0.89565 0.46993 0.49991 0.0
C1333 C 0.87328 0.50089 0.48162 0.0
N1334 N 0.9448 0.48885 0.51181 0.0
N1335 N 0.89671 0.50798 0.48599 0.0
H1336 H 0.39339 0.11814 0.35524 0.0
H1337 H 0.28101 0.12088 0.28893 0.0
H1338 H 0.34568 0.054 0.31868 0.0
H1339 H 0.31845 0.17802 0.33956 0.0
H1340 H 0.29909 0.09289 0.30581 0.0
H1341 H 0.36213 0.13712 0.3565 0.0
C1342 C 0.37619 0.10785 0.34791 0.0
C1343 C 0.37226 0.08482 0.33622 0.0
C1344 C 0.30296 0.11139 0.31359 0.0
C1345 C 0.33656 0.10652 0.33721 0.0
C1346 C 0.29255 0.12737 0.30396 0.0
C1347 C 0.29889 0.15201 0.31241 0.0
C1348 C 0.32008 0.1203 0.33149 0.0
C1349 C 0.31382 0.15937 0.33201 0.0
C1350 C 0.3583 0.11866 0.34866 0.0
C1351 C 0.34958 0.07207 0.32741 0.0
N1352 N 0.32439 0.14375 0.34057 0.0
N1353 N 0.33269 0.08335 0.32756 0.0
H1354 H 0.37496 0.17598 0.51401 0.0
H1355 H 0.43423 0.09709 0.58886 0.0
H1356 H 0.35326 0.15237 0.57725 0.0
H1357 H 0.45074 0.11045 0.52178 0.0
H1358 H 0.4087 0.12306 0.58681 0.0
H1359 H 0.40733 0.15819 0.51865 0.0
C1360 C 0.37726 0.16748 0.52901 0.0
C1361 C 0.36128 0.16535 0.54514 0.0
C1362 C 0.41798 0.12045 0.57255 0.0
C1363 C 0.39796 0.14501 0.55051 0.0
C1364 C 0.43247 0.10549 0.57368 0.0
C1365 C 0.44441 0.10131 0.55537 0.0
C1366 C 0.41526 0.13131 0.55292 0.0
C1367 C 0.44189 0.1132 0.53631 0.0
C1368 C 0.3956 0.15721 0.53159 0.0
C1369 C 0.36498 0.15409 0.56424 0.0
N1370 N 0.42743 0.12749 0.53549 0.0
N1371 N 0.38279 0.14424 0.56631 0.0
H1372 H 0.66386 0.63433 0.31778 0.0
H1373 H 0.79411 0.7187 0.31344 0.0
H1374 H 0.72442 0.61379 0.33992 0.0
H1375 H 0.7342 0.73108 0.27911 0.0
H1376 H 0.76855 0.68312 0.32797 0.0
H1377 H 0.68922 0.67358 0.30939 0.0
C1378 C 0.68245 0.63823 0.32127 0.0
C1379 C 0.69206 0.62062 0.32928 0.0
C1380 C 0.76102 0.69366 0.31727 0.0
C1381 C 0.72111 0.6653 0.31945 0.0
C1382 C 0.7756 0.71392 0.30888 0.0
C1383 C 0.76631 0.72784 0.29492 0.0
C1384 C 0.73697 0.68735 0.31176 0.0
C1385 C 0.74217 0.72085 0.28972 0.0
C1386 C 0.69692 0.66056 0.3163 0.0
C1387 C 0.71628 0.62671 0.33351 0.0
N1388 N 0.72833 0.70108 0.29815 0.0
N1389 N 0.72999 0.64847 0.32834 0.0
H1390 H 0.93698 0.46708 0.76356 0.0
H1391 H 0.84424 0.35699 0.81037 0.0
H1392 H 0.8966 0.47604 0.81823 0.0
H1393 H 0.86516 0.35174 0.74371 0.0
H1394 H 0.8678 0.39957 0.81562 0.0
H1395 H 0.91505 0.42351 0.75808 0.0
C1396 C 0.92362 0.45988 0.77446 0.0
C1397 C 0.91856 0.47521 0.79134 0.0
C1398 C 0.86724 0.38912 0.79983 0.0
C1399 C 0.89366 0.42563 0.78525 0.0
C1400 C 0.85385 0.36476 0.79683 0.0
C1401 C 0.85268 0.35079 0.77654 0.0
C1402 C 0.87979 0.39961 0.78252 0.0
C1403 C 0.86548 0.36191 0.75959 0.0
C1404 C 0.91107 0.4351 0.77125 0.0
C1405 C 0.90102 0.46496 0.80493 0.0
N1406 N 0.8786 0.38571 0.76297 0.0
N1407 N 0.88927 0.44083 0.80163 0.0
H1408 H 0.10122 0.908 0.13708 0.0
H1409 H 0.05203 0.96084 0.03252 0.0
H1410 H 0.08763 0.86968 0.07128 0.0
H1411 H 0.08022 1.00407 0.09481 0.0
H1412 H 0.06311 0.92659 0.04661 0.0
H1413 H 0.09176 0.94255 0.12211 0.0
C1414 C 0.09624 0.90683 0.11944 0.0
C1415 C 0.09517 0.88584 0.10542 0.0
C1416 C 0.0669 0.94358 0.05716 0.0
C1417 C 0.08417 0.92549 0.08814 0.0
C1418 C 0.06052 0.96316 0.04917 0.0
C1419 C 0.06505 0.98539 0.06254 0.0
C1420 C 0.07776 0.94613 0.07876 0.0
C1421 C 0.07625 0.98729 0.08393 0.0
C1422 C 0.0909 0.92665 0.1109 0.0
C1423 C 0.08869 0.88549 0.08269 0.0
N1424 N 0.0821 0.96791 0.09139 0.0
N1425 N 0.08331 0.90497 0.07477 0.0
H1426 H 0.97754 0.26982 0.84575 0.0
H1427 H 0.843 0.26014 0.83882 0.0
H1428 H 0.93987 0.26545 0.90429 0.0
H1429 H 0.88284 0.25781 0.78237 0.0
H1430 H 0.87633 0.25829 0.86331 0.0
H1431 H 0.94148 0.26185 0.82267 0.0
C1432 C 0.96156 0.26713 0.85378 0.0
C1433 C 0.96175 0.26865 0.87701 0.0
C1434 C 0.8776 0.25785 0.84554 0.0
C1435 C 0.92 0.2596 0.85046 0.0
C1436 C 0.85858 0.25882 0.83153 0.0
C1437 C 0.86025 0.25945 0.80851 0.0
C1438 C 0.89832 0.25747 0.83638 0.0
C1439 C 0.88083 0.25772 0.8 0.0
C1440 C 0.94088 0.26246 0.84054 0.0
C1441 C 0.94045 0.26453 0.88642 0.0
N1442 N 0.89904 0.25702 0.81393 0.0
N1443 N 0.92036 0.26052 0.87309 0.0
H1444 H 0.638 0.23351 0.61367 0.0
H1445 H 0.54455 0.11395 0.56172 0.0
H1446 H 0.56922 0.23525 0.59173 0.0
H1447 H 0.61624 0.12767 0.54813 0.0
H1448 H 0.55271 0.15708 0.57553 0.0
H1449 H 0.63038 0.19364 0.59229 0.0
C1450 C 0.62139 0.22559 0.60408 0.0
C1451 C 0.6042 0.23763 0.60439 0.0
C1452 C 0.56657 0.15067 0.56931 0.0
C1453 C 0.59518 0.19181 0.58047 0.0
C1454 C 0.562 0.12607 0.56158 0.0
C1455 C 0.57981 0.11722 0.5539 0.0
C1456 C 0.58925 0.16639 0.56992 0.0
C1457 C 0.60203 0.13376 0.5539 0.0
C1458 C 0.61709 0.20291 0.59188 0.0
C1459 C 0.58296 0.22659 0.59176 0.0
N1460 N 0.60623 0.15749 0.56216 0.0
N1461 N 0.57885 0.20403 0.58062 0.0
H1462 H 0.56518 0.74565 0.3728 0.0
H1463 H 0.68816 0.83019 0.34673 0.0
H1464 H 0.60735 0.80391 0.42008 0.0
H1465 H 0.65417 0.75963 0.31115 0.0
H1466 H 0.65836 0.82218 0.3732 0.0
H1467 H 0.59747 0.75129 0.3496 0.0
C1468 C 0.58138 0.75952 0.37837 0.0
C1469 C 0.58363 0.77444 0.39828 0.0
C1470 C 0.65754 0.80842 0.35967 0.0
C1471 C 0.62058 0.78124 0.37167 0.0
C1472 C 0.67436 0.81307 0.34448 0.0
C1473 C 0.67349 0.79558 0.3267 0.0
C1474 C 0.6396 0.78628 0.35684 0.0
C1475 C 0.65551 0.77354 0.32469 0.0
C1476 C 0.59981 0.76272 0.36513 0.0
C1477 C 0.60498 0.79204 0.40482 0.0
N1478 N 0.63918 0.76959 0.33949 0.0
N1479 N 0.62263 0.79519 0.39136 0.0
H1480 H 0.06206 0.23478 0.4702 0.0
H1481 H 0.05796 0.0916 0.46387 0.0
H1482 H 0.0526 0.18969 0.40826 0.0
H1483 H 0.0495 0.13127 0.52439 0.0
H1484 H 0.05856 0.12752 0.44387 0.0
H1485 H 0.06016 0.19854 0.49032 0.0
C1486 C 0.05959 0.21736 0.46068 0.0
C1487 C 0.05746 0.21588 0.43716 0.0
C1488 C 0.05651 0.12848 0.46151 0.0
C1489 C 0.05551 0.17331 0.46071 0.0
C1490 C 0.05616 0.10775 0.47311 0.0
C1491 C 0.05354 0.10773 0.49619 0.0
C1492 C 0.05464 0.15021 0.47278 0.0
C1493 C 0.05139 0.12981 0.50673 0.0
C1494 C 0.05846 0.19645 0.47233 0.0
C1495 C 0.05429 0.19226 0.42624 0.0
N1496 N 0.05215 0.14984 0.49514 0.0
N1497 N 0.05358 0.17233 0.43793 0.0
H1498 H 0.64695 0.32445 0.17632 0.0
H1499 H 0.71728 0.28126 0.27688 0.0
H1500 H 0.61446 0.29474 0.23339 0.0
H1501 H 0.75131 0.3209 0.22485 0.0
H1502 H 0.6799 0.28454 0.26081 0.0
H1503 H 0.68444 0.32208 0.19296 0.0
C1504 C 0.64753 0.31751 0.19242 0.0
C1505 C 0.62688 0.30998 0.20325 0.0
C1506 C 0.69548 0.29255 0.25281 0.0
C1507 C 0.67091 0.30679 0.22276 0.0
C1508 C 0.7171 0.29063 0.26204 0.0
C1509 C 0.73816 0.30071 0.25246 0.0
C1510 C 0.69418 0.30454 0.23343 0.0
C1511 C 0.73599 0.31268 0.23312 0.0
C1512 C 0.6692 0.31612 0.20198 0.0
C1513 C 0.62949 0.30102 0.22417 0.0
N1514 N 0.71477 0.31413 0.2244 0.0
N1515 N 0.6507 0.29961 0.233 0.0
H1516 H 0.56093 0.85324 0.96314 0.0
H1517 H 0.55395 0.99229 0.96013 0.0
H1518 H 0.57133 0.89298 0.90524 0.0
H1519 H 0.55834 0.96002 0.02159 0.0
H1520 H 0.55783 0.95512 0.93986 0.0
H1521 H 0.55774 0.8904 0.98461 0.0
C1522 C 0.56264 0.86965 0.95485 0.0
C1523 C 0.56658 0.8695 0.93209 0.0
C1524 C 0.55796 0.95606 0.95779 0.0
C1525 C 0.5625 0.9127 0.95687 0.0
C1526 C 0.55568 0.97746 0.96949 0.0
C1527 C 0.5558 0.97982 0.99289 0.0
C1528 C 0.56014 0.93616 0.96923 0.0
C1529 C 0.55819 0.95949 0.00368 0.0
C1530 C 0.56078 0.89102 0.96721 0.0
C1531 C 0.56845 0.89175 0.92263 0.0
N1532 N 0.56012 0.93878 0.9919 0.0
N1533 N 0.5663 0.91202 0.93485 0.0
H1534 H 0.98463 0.83497 0.70448 0.0
H1535 H 0.86406 0.7575 0.75054 0.0
H1536 H 0.97089 0.7598 0.71783 0.0
H1537 H 0.88831 0.83597 0.76165 0.0
H1538 H 0.90065 0.75788 0.73443 0.0
H1539 H 0.94808 0.83576 0.72072 0.0
C1540 C 0.97404 0.81855 0.71061 0.0
C1541 C 0.98151 0.79728 0.70954 0.0
C1542 C 0.89809 0.77509 0.74037 0.0
C1543 C 0.93853 0.79797 0.72827 0.0
C1544 C 0.87694 0.7749 0.74967 0.0
C1545 C 0.87252 0.79671 0.75792 0.0
C1546 C 0.91541 0.79731 0.73848 0.0
C1547 C 0.89051 0.81853 0.7559 0.0
C1548 C 0.95301 0.81905 0.72007 0.0
C1549 C 0.96644 0.77678 0.71812 0.0
N1550 N 0.9107 0.81826 0.74639 0.0
N1551 N 0.94605 0.77761 0.72675 0.0
H1552 H 0.09255 0.02287 0.8687 0.0
H1553 H 0.11864 0.0502 0.00024 0.0
H1554 H 0.16166 0.03687 0.90084 0.0
H1555 H 0.05043 0.02365 0.96485 0.0
H1556 H 0.1357 0.04481 0.96496 0.0
H1557 H 0.07747 0.02271 0.9048 0.0
C1558 C 0.10457 0.02587 0.88341 0.0
C1559 C 0.12839 0.03006 0.8818 0.0
C1560 C 0.11701 0.04004 0.96511 0.0
C1561 C 0.11124 0.03002 0.92342 0.0
C1562 C 0.10732 0.04311 0.98515 0.0
C1563 C 0.08316 0.0378 0.98533 0.0
C1564 C 0.10229 0.03157 0.94542 0.0
C1565 C 0.06918 0.02849 0.96545 0.0
C1566 C 0.09595 0.02569 0.90409 0.0
C1567 C 0.14314 0.03359 0.90143 0.0
N1568 N 0.07895 0.02583 0.94636 0.0
N1569 N 0.13433 0.03373 0.92155 0.0
H1570 H 0.77641 0.35037 0.53808 0.0
H1571 H 0.8653 0.34989 0.64167 0.0
H1572 H 0.8345 0.41219 0.56376 0.0
H1573 H 0.80711 0.28767 0.6173 0.0
H1574 H 0.85598 0.37176 0.61108 0.0
H1575 H 0.7888 0.32592 0.56509 0.0
C1576 C 0.79178 0.35877 0.54935 0.0
C1577 C 0.80435 0.38339 0.54879 0.0
C1578 C 0.84533 0.35326 0.61228 0.0
C1579 C 0.81864 0.35558 0.5796 0.0
C1580 C 0.85064 0.34079 0.62976 0.0
C1581 C 0.83686 0.31702 0.6321 0.0
C1582 C 0.82598 0.34194 0.59707 0.0
C1583 C 0.81827 0.30594 0.61603 0.0
C1584 C 0.79887 0.34481 0.56472 0.0
C1585 C 0.82419 0.39332 0.56369 0.0
N1586 N 0.81323 0.31858 0.59929 0.0
N1587 N 0.83066 0.37942 0.57852 0.0
H1588 H 0.46107 0.07216 0.38605 0.0
H1589 H 0.57227 0.06232 0.45855 0.0
H1590 H 0.52339 0.06454 0.35887 0.0
H1591 H 0.50934 0.06671 0.48657 0.0
H1592 H 0.55632 0.06882 0.42246 0.0
H1593 H 0.48009 0.07557 0.42345 0.0
C1594 C 0.47879 0.07137 0.38793 0.0
C1595 C 0.49056 0.06773 0.36931 0.0
C1596 C 0.54604 0.06854 0.43652 0.0
C1597 C 0.51235 0.07164 0.41197 0.0
C1598 C 0.55513 0.06481 0.45715 0.0
C1599 C 0.54195 0.06358 0.47552 0.0
C1600 C 0.52354 0.0709 0.43417 0.0
C1601 C 0.52001 0.06729 0.47278 0.0
C1602 C 0.48963 0.07334 0.40928 0.0
C1603 C 0.51354 0.06703 0.37273 0.0
N1604 N 0.51135 0.07052 0.45238 0.0
N1605 N 0.52362 0.06879 0.39365 0.0
H1606 H 0.76902 0.74006 0.09274 0.0
H1607 H 0.8375 0.76287 0.21235 0.0
H1608 H 0.84069 0.74145 0.10196 0.0
H1609 H 0.77766 0.78801 0.19876 0.0
H1610 H 0.83836 0.75342 0.1723 0.0
H1611 H 0.77138 0.75721 0.13145 0.0
C1612 C 0.78547 0.74474 0.10278 0.0
C1613 C 0.80484 0.73992 0.09405 0.0
C1614 C 0.82513 0.76114 0.17809 0.0
C1615 C 0.8074 0.7583 0.1387 0.0
C1616 C 0.8245 0.76636 0.20098 0.0
C1617 C 0.80738 0.77613 0.20902 0.0
C1618 C 0.80829 0.76531 0.16306 0.0
C1619 C 0.79116 0.78049 0.19339 0.0
C1620 C 0.78677 0.7543 0.12492 0.0
C1621 C 0.82554 0.7455 0.10794 0.0
N1622 N 0.79188 0.77483 0.17125 0.0
N1623 N 0.82619 0.75405 0.12968 0.0
H1624 H 0.18502 0.02822 0.74457 0.0
H1625 H 0.06641 0.03097 0.67974 0.0
H1626 H 0.11775 0.99889 0.76871 0.0
H1627 H 0.13484 0.07017 0.6632 0.0
H1628 H 0.08427 0.01416 0.70969 0.0
H1629 H 0.16607 0.03705 0.71081 0.0
C1630 C 0.16623 0.02322 0.74259 0.0
C1631 C 0.15296 0.01323 0.75964 0.0
C1632 C 0.09533 0.02638 0.69943 0.0
C1633 C 0.13119 0.02366 0.72124 0.0
C1634 C 0.08517 0.03618 0.68251 0.0
C1635 C 0.09917 0.05204 0.669 0.0
C1636 C 0.11964 0.03249 0.70278 0.0
C1637 C 0.12337 0.0578 0.67304 0.0
C1638 C 0.15543 0.02843 0.72338 0.0
C1639 C 0.12866 1.00689 0.75608 0.0
N1640 N 0.13282 0.04805 0.68956 0.0
N1641 N 0.11854 0.01254 0.73738 0.0
H1642 H 0.768 0.43482 0.40531 0.0
H1643 H 0.78207 0.3083 0.35483 0.0
H1644 H 0.75857 0.37074 0.4409 0.0
H1645 H 0.7898 0.37059 0.31703 0.0
H1646 H 0.76924 0.32995 0.38508 0.0
H1647 H 0.77074 0.41043 0.37126 0.0
C1648 C 0.76599 0.41552 0.40589 0.0
C1649 C 0.76346 0.40489 0.42608 0.0
C1650 C 0.77364 0.33892 0.37017 0.0
C1651 C 0.76691 0.37706 0.38731 0.0
C1652 C 0.78113 0.3266 0.35289 0.0
C1653 C 0.78734 0.33779 0.33347 0.0
C1654 C 0.77249 0.36275 0.36819 0.0
C1655 C 0.78539 0.36138 0.33181 0.0
C1656 C 0.76771 0.40165 0.38646 0.0
C1657 C 0.76089 0.3798 0.4258 0.0
N1658 N 0.77831 0.3732 0.34907 0.0
N1659 N 0.763 0.36684 0.4068 0.0
H1660 H 0.48724 0.1059 0.26524 0.0
H1661 H 0.47703 0.02895 0.1494 0.0
H1662 H 0.4221 0.06202 0.23086 0.0
H1663 H 0.54098 0.08059 0.17868 0.0
H1664 H 0.45597 0.04481 0.17696 0.0
H1665 H 0.50636 0.10206 0.23143 0.0
C1666 C 0.47687 0.09591 0.2504 0.0
C1667 C 0.45317 0.08378 0.25094 0.0
C1668 C 0.47457 0.05287 0.17731 0.0
C1669 C 0.47498 0.07896 0.2124 0.0
C1670 C 0.48662 0.04363 0.16174 0.0
C1671 C 0.5108 0.05314 0.16218 0.0
C1672 C 0.48683 0.07158 0.19363 0.0
C1673 C 0.52234 0.07262 0.17801 0.0
C1674 C 0.48781 0.09367 0.23112 0.0
C1675 C 0.44048 0.07137 0.23123 0.0
N1676 N 0.51027 0.081 0.19337 0.0
N1677 N 0.45166 0.06885 0.21285 0.0
H1678 H 0.82561 0.7049 0.9381 0.0
H1679 H 0.81878 0.81249 0.86308 0.0
H1680 H 0.81933 0.77435 0.96461 0.0
H1681 H 0.81955 0.74117 0.8356 0.0
H1682 H 0.8219 0.79976 0.9004 0.0
H1683 H 0.82652 0.71883 0.90088 0.0
C1684 C 0.82466 0.72319 0.93617 0.0
C1685 C 0.82237 0.73845 0.95464 0.0
C1686 C 0.82148 0.78689 0.88625 0.0
C1687 C 0.82324 0.75451 0.91178 0.0
C1688 C 0.81973 0.79416 0.86483 0.0
C1689 C 0.81885 0.7779 0.84599 0.0
C1690 C 0.8224 0.76312 0.88908 0.0
C1691 C 0.82016 0.75438 0.84953 0.0
C1692 C 0.82509 0.7311 0.91483 0.0
C1693 C 0.82113 0.76193 0.95095 0.0
N1694 N 0.8218 0.7477 0.8706 0.0
N1695 N 0.8215 0.76918 0.93 0.0
H1696 H 0.83917 0.05804 0.06838 0.0
H1697 H 0.91356 0.04934 0.96544 0.0
H1698 H 0.85891 0.11489 0.0243 0.0
H1699 H 0.89737 0.99603 0.01324 0.0
H1700 H 0.88841 0.07056 0.98295 0.0
H1701 H 0.8569 0.03299 0.04553 0.0
C1702 C 0.84743 0.06537 0.05399 0.0
C1703 C 0.84766 0.08867 0.04832 0.0
C1704 C 0.89008 0.05395 0.98929 0.0
C1705 C 0.86774 0.05985 0.02183 0.0
C1706 C 0.90432 0.04176 0.97924 0.0
C1707 C 0.90799 0.02113 0.98813 0.0
C1708 C 0.87947 0.04535 0.00826 0.0
C1709 C 0.89517 0.01182 0.00573 0.0
C1710 C 0.85739 0.05095 0.04082 0.0
C1711 C 0.85851 0.09711 0.0294 0.0
N1712 N 0.8818 0.02424 0.01543 0.0
N1713 N 0.86814 0.08268 0.0168 0.0
H1714 H 0.37373 0.43498 0.98573 0.0
H1715 H 0.49021 0.50105 0.06167 0.0
H1716 H 0.38608 0.41783 0.05268 0.0
H1717 H 0.48365 0.5043 0.99062 0.0
H1718 H 0.45213 0.47084 0.05878 0.0
H1719 H 0.41411 0.45973 0.98697 0.0
C1720 C 0.3851 0.43619 0.00062 0.0
C1721 C 0.37657 0.42452 0.01922 0.0
C1722 C 0.45904 0.47807 0.04381 0.0
C1723 C 0.42274 0.45321 0.02088 0.0
C1724 C 0.48072 0.49551 0.04544 0.0
C1725 C 0.49007 0.50541 0.02635 0.0
C1726 C 0.44644 0.47059 0.02297 0.0
C1727 C 0.47706 0.49729 0.00578 0.0
C1728 C 0.40814 0.45034 0.00131 0.0
C1729 C 0.39202 0.42652 0.03799 0.0
N1730 N 0.45582 0.48044 0.00466 0.0
N1731 N 0.41435 0.44096 0.03848 0.0
H1732 H 0.40308 0.60845 0.78819 0.0
H1733 H 0.28133 0.63261 0.78192 0.0
H1734 H 0.34442 0.56278 0.74532 0.0
H1735 H 0.33258 0.66091 0.83786 0.0
H1736 H 0.30256 0.60437 0.77003 0.0
H1737 H 0.37689 0.62647 0.80777 0.0
C1738 C 0.38467 0.60215 0.78297 0.0
C1739 C 0.37591 0.58435 0.76494 0.0
C1740 C 0.30893 0.61643 0.78515 0.0
C1741 C 0.34589 0.60484 0.78722 0.0
C1742 C 0.29668 0.63245 0.79209 0.0
C1743 C 0.30542 0.64952 0.81071 0.0
C1744 C 0.33021 0.61775 0.79672 0.0
C1745 C 0.32557 0.64854 0.82304 0.0
C1746 C 0.36971 0.61229 0.79425 0.0
C1747 C 0.3519 0.57662 0.75903 0.0
N1748 N 0.33755 0.63329 0.81558 0.0
N1749 N 0.33774 0.58716 0.76995 0.0
H1750 H 0.23497 0.64851 0.58193 0.0
H1751 H 0.12815 0.55618 0.50848 0.0
H1752 H 0.24252 0.58964 0.53717 0.0
H1753 H 0.12074 0.5871 0.57385 0.0
H1754 H 0.17032 0.5734 0.51536 0.0
H1755 H 0.19262 0.63106 0.57588 0.0
C1756 C 0.22769 0.63196 0.57085 0.0
C1757 C 0.24211 0.62041 0.56005 0.0
C1758 C 0.15941 0.57631 0.52818 0.0
C1759 C 0.19417 0.60076 0.55291 0.0
C1760 C 0.13543 0.5666 0.52426 0.0
C1761 C 0.12109 0.57021 0.54067 0.0
C1762 C 0.16894 0.59007 0.54846 0.0
C1763 C 0.13129 0.58378 0.56086 0.0
C1764 C 0.20365 0.62201 0.56749 0.0
C1765 C 0.23194 0.59899 0.5459 0.0
N1766 N 0.15469 0.59344 0.56415 0.0
N1767 N 0.20853 0.58993 0.54258 0.0
H1768 H 0.74418 0.0167 0.78148 0.0
H1769 H 0.76729 0.92058 0.8612 0.0
H1770 H 0.69003 0.95646 0.80101 0.0
H1771 H 0.81821 0.96549 0.8229 0.0
H1772 H 0.74017 0.94285 0.84993 0.0
H1773 H 0.77214 1.00657 0.80689 0.0
C1774 C 0.73813 1.00138 0.7912 0.0
C1775 C 0.71483 0.98702 0.78875 0.0
C1776 C 0.75753 0.94809 0.84451 0.0
C1777 C 0.74679 0.9755 0.81802 0.0
C1778 C 0.77305 0.93537 0.85086 0.0
C1779 C 0.79487 0.94026 0.84222 0.0
C1780 C 0.76409 0.96615 0.82987 0.0
C1781 C 0.80162 0.96054 0.82984 0.0
C1782 C 0.7541 0.99573 0.8058 0.0
C1783 C 0.70792 0.96771 0.80211 0.0
N1784 N 0.78613 0.97237 0.8237 0.0
N1785 N 0.72392 0.9623 0.81601 0.0
H1786 H 0.78007 0.93776 0.56184 0.0
H1787 H 0.65521 0.95114 0.52508 0.0
H1788 H 0.72335 0.87694 0.53171 0.0
H1789 H 0.71662 0.01162 0.54451 0.0
H1790 H 0.67784 0.92274 0.53198 0.0
H1791 H 0.75474 0.96383 0.56085 0.0
C1792 C 0.76216 0.92983 0.55516 0.0
C1793 C 0.75386 0.90524 0.54656 0.0
C1794 C 0.6863 0.94222 0.53479 0.0
C1795 C 0.72473 0.93514 0.54516 0.0
C1796 C 0.67342 0.95841 0.53094 0.0
C1797 C 0.68414 0.98376 0.5341 0.0
C1798 C 0.71 0.95148 0.54202 0.0
C1799 C 0.70777 0.99223 0.54154 0.0
C1800 C 0.74771 0.94477 0.55455 0.0
C1801 C 0.73043 0.89586 0.53841 0.0
N1802 N 0.71989 0.97613 0.54523 0.0
N1803 N 0.71668 0.91094 0.53768 0.0
H1804 H 0.36833 0.47525 0.70785 0.0
H1805 H 0.37548 0.35544 0.7617 0.0
H1806 H 0.4321 0.45591 0.71599 0.0
H1807 H 0.31119 0.36949 0.74071 0.0
H1808 H 0.39672 0.39121 0.744 0.0
H1809 H 0.34696 0.43497 0.71744 0.0
C1810 C 0.37774 0.46224 0.71121 0.0
C1811 C 0.40196 0.46885 0.71128 0.0
C1812 C 0.37796 0.38633 0.7432 0.0
C1813 C 0.37778 0.423 0.72295 0.0
C1814 C 0.36584 0.36607 0.75347 0.0
C1815 C 0.34153 0.3596 0.75289 0.0
C1816 C 0.36566 0.40024 0.73244 0.0
C1817 C 0.32992 0.37383 0.74172 0.0
C1818 C 0.36558 0.43929 0.71679 0.0
C1819 C 0.41338 0.4514 0.7157 0.0
N1820 N 0.3421 0.39352 0.73206 0.0
N1821 N 0.40122 0.42933 0.7218 0.0
H1822 H 0.17768 0.60143 0.20611 0.0
H1823 H 0.26539 0.70078 0.29507 0.0
H1824 H 0.20442 0.58427 0.26868 0.0
H1825 H 0.25758 0.71159 0.22556 0.0
H1826 H 0.23848 0.65957 0.28708 0.0
H1827 H 0.20258 0.64376 0.21436 0.0
C1828 C 0.1887 0.60656 0.22156 0.0
C1829 C 0.18907 0.58926 0.23665 0.0
C1830 C 0.24268 0.671 0.27359 0.0
C1831 C 0.2173 0.63746 0.24625 0.0
C1832 C 0.25798 0.69452 0.27816 0.0
C1833 C 0.26386 0.70956 0.26094 0.0
C1834 C 0.23297 0.66259 0.25172 0.0
C1835 C 0.25369 0.70052 0.23931 0.0
C1836 C 0.20292 0.63064 0.22623 0.0
C1837 C 0.20369 0.5969 0.25645 0.0
N1838 N 0.2387 0.67763 0.23531 0.0
N1839 N 0.21714 0.62041 0.26069 0.0
H1840 H 0.53459 0.72554 0.49964 0.0
H1841 H 0.52891 0.58406 0.48093 0.0
H1842 H 0.50324 0.67877 0.43993 0.0
H1843 H 0.55839 0.63017 0.5415 0.0
H1844 H 0.51824 0.61817 0.46612 0.0
H1845 H 0.54167 0.69035 0.51602 0.0
C1846 C 0.52891 0.70782 0.49008 0.0
C1847 C 0.51836 0.70515 0.46834 0.0
C1848 C 0.52702 0.62082 0.48266 0.0
C1849 C 0.52673 0.66481 0.48688 0.0
C1850 C 0.53317 0.60132 0.49114 0.0
C1851 C 0.54463 0.60417 0.51252 0.0
C1852 C 0.5324 0.64343 0.4956 0.0
C1853 C 0.54966 0.62707 0.52491 0.0
C1854 C 0.53307 0.68774 0.4994 0.0
C1855 C 0.51146 0.68173 0.45673 0.0
N1856 N 0.54357 0.64577 0.51628 0.0
N1857 N 0.51591 0.66255 0.46607 0.0
H1858 H 0.69225 0.32063 0.63785 0.0
H1859 H 0.75427 0.32449 0.75948 0.0
H1860 H 0.66843 0.34548 0.69844 0.0
H1861 H 0.7736 0.29161 0.70003 0.0
H1862 H 0.72648 0.33803 0.73659 0.0
H1863 H 0.72621 0.31613 0.65956 0.0
C1864 C 0.6944 0.32559 0.65564 0.0
C1865 C 0.6774 0.33317 0.66642 0.0
C1866 C 0.7369 0.32796 0.72855 0.0
C1867 C 0.71593 0.32785 0.69131 0.0
C1868 C 0.75277 0.3202 0.74162 0.0
C1869 C 0.7661 0.30659 0.73173 0.0
C1870 C 0.73431 0.32211 0.70538 0.0
C1871 C 0.7635 0.30177 0.70845 0.0
C1872 C 0.71368 0.32287 0.66804 0.0
C1873 C 0.68101 0.33931 0.6895 0.0
N1874 N 0.74781 0.30938 0.6961 0.0
N1875 N 0.69974 0.33631 0.70119 0.0
H1876 H 0.07299 0.37334 0.9449 0.0
H1877 H 0.02009 0.46391 0.01471 0.0
H1878 H 1.00996 0.34676 0.97697 0.0
H1879 H 0.09276 0.48089 0.0037 0.0
H1880 H 0.01446 0.42175 0.99894 0.0
H1881 H 0.07908 0.41373 0.96429 0.0
C1882 C 0.06044 0.376 0.9561 0.0
C1883 C 0.04088 0.35666 0.95926 0.0
C1884 C 0.03163 0.43472 0.00013 0.0
C1885 C 0.04765 0.4031 0.98139 0.0
C1886 C 0.03485 0.45881 0.009 0.0
C1887 C 0.05692 0.47605 0.01042 0.0
C1888 C 0.05052 0.42795 0.99231 0.0
C1889 C 0.07543 0.46831 0.00291 0.0
C1890 C 0.06398 0.39907 0.96723 0.0
C1891 C 0.02529 0.36116 0.97411 0.0
N1892 N 0.07177 0.44494 0.99402 0.0
N1893 N 0.02886 0.38403 0.98446 0.0
H1894 H 0.03574 0.81152 0.16055 0.0
H1895 H 0.96908 0.77735 0.26914 0.0
H1896 H 0.06409 0.78663 0.21842 0.0
H1897 H 0.93473 0.79006 0.20847 0.0
H1898 H 1.00456 0.78259 0.25074 0.0
H1899 H 0.99903 0.80583 0.1778 0.0
C1900 C 0.03428 0.80487 0.17682 0.0
C1901 C 0.05306 0.79957 0.18803 0.0
C1902 C 0.98927 0.78417 0.24137 0.0
C1903 C 1.0113 0.79311 0.2078 0.0
C1904 C 0.9689 0.781 0.25185 0.0
C1905 C 0.94877 0.78305 0.24031 0.0
C1906 C 0.98971 0.78962 0.21915 0.0
C1907 C 0.94987 0.78851 0.21808 0.0
C1908 C 0.01334 0.8016 0.18663 0.0
C1909 C 0.05016 0.79098 0.20908 0.0
N1910 N 0.97002 0.79161 0.2082 0.0
N1911 N 0.02976 0.78808 0.21824 0.0
H1912 H 0.56554 0.40448 0.15885 0.0
H1913 H 0.55913 0.46021 0.03961 0.0
H1914 H 0.55702 0.36134 0.09593 0.0
H1915 H 0.56693 0.50402 0.10211 0.0
H1916 H 0.55881 0.42462 0.05986 0.0
H1917 H 0.56653 0.44064 0.13894 0.0
C1918 C 0.56391 0.40242 0.14085 0.0
C1919 C 0.56121 0.37922 0.12937 0.0
C1920 C 0.56066 0.44197 0.06927 0.0
C1921 C 0.56231 0.42163 0.1059 0.0
C1922 C 0.56089 0.4626 0.0576 0.0
C1923 C 0.56318 0.48584 0.0688 0.0
C1924 C 0.5627 0.44388 0.09275 0.0
C1925 C 0.56524 0.48692 0.09236 0.0
C1926 C 0.56446 0.42333 0.12939 0.0
C1927 C 0.55916 0.37844 0.10586 0.0
N1928 N 0.56494 0.46657 0.10332 0.0
N1929 N 0.55975 0.39898 0.09514 0.0
H1930 H 0.96784 0.2596 0.37233 0.0
H1931 H 0.89095 0.32816 0.30061 0.0
H1932 H 0.99656 0.31994 0.33434 0.0
H1933 H 0.85941 0.25835 0.32415 0.0
H1934 H 0.92908 0.32634 0.31558 0.0
H1935 H 0.92835 0.25946 0.3579 0.0
C1936 C 0.96608 0.27281 0.36102 0.0
C1937 C 0.98626 0.28973 0.35471 0.0
C1938 C 0.9139 0.31134 0.31759 0.0
C1939 C 0.94021 0.28991 0.33807 0.0
C1940 C 0.89182 0.31239 0.30897 0.0
C1941 C 0.87126 0.29342 0.31085 0.0
C1942 C 0.91617 0.29125 0.32871 0.0
C1943 C 0.87435 0.27355 0.32205 0.0
C1944 C 0.94332 0.27271 0.3527 0.0
C1945 C 0.98208 0.30633 0.33988 0.0
N1946 N 0.89603 0.27307 0.3305 0.0
N1947 N 0.96003 0.30604 0.33237 0.0
H1948 H 0.05661 0.7415 0.6003 0.0
H1949 H 0.03574 0.59473 0.59654 0.0
H1950 H 0.03758 0.69937 0.65576 0.0
H1951 H 0.06065 0.63565 0.54176 0.0
H1952 H 0.03506 0.63277 0.61754 0.0
H1953 H 0.05679 0.70363 0.57793 0.0
C1954 C 0.05232 0.72443 0.60783 0.0
C1955 C 0.04705 0.72412 0.63022 0.0
C1956 C 0.04068 0.63355 0.60091 0.0
C1957 C 0.04727 0.68007 0.60438 0.0
C1958 C 0.04107 0.61162 0.5888 0.0
C1959 C 0.0483 0.61148 0.56709 0.0
C1960 C 0.04743 0.65606 0.5915 0.0
C1961 C 0.05494 0.63444 0.55833 0.0
C1962 C 0.05251 0.70267 0.59499 0.0
C1963 C 0.0418 0.70102 0.63873 0.0
N1964 N 0.05432 0.65551 0.57041 0.0
N1965 N 0.04204 0.68032 0.62599 0.0
H1966 H 0.61543 0.77237 0.83105 0.0
H1967 H 0.75448 0.83444 0.8301 0.0
H1968 H 0.65631 0.81762 0.88766 0.0
H1969 H 0.71895 0.76651 0.7913 0.0
H1970 H 0.71839 0.83285 0.84782 0.0
H1971 H 0.65154 0.77401 0.8133 0.0
C1972 C 0.63188 0.78279 0.83985 0.0
C1973 C 0.63217 0.79478 0.86124 0.0
C1974 C 0.71835 0.81829 0.83536 0.0
C1975 C 0.67471 0.79722 0.84021 0.0
C1976 C 0.73917 0.81925 0.82499 0.0
C1977 C 0.74044 0.80064 0.80878 0.0
C1978 C 0.69778 0.79885 0.8294 0.0
C1979 C 0.71941 0.78144 0.80352 0.0
C1980 C 0.65273 0.78366 0.8296 0.0
C1981 C 0.65464 0.80788 0.87134 0.0
N1982 N 0.69933 0.78121 0.81345 0.0
N1983 N 0.67456 0.80891 0.86082 0.0
H1984 H 0.47635 0.6071 0.68151 0.0
H1985 H 0.47925 0.54102 0.56169 0.0
H1986 H 0.41672 0.55324 0.64681 0.0
H1987 H 0.53906 0.58452 0.60445 0.0
H1988 H 0.45399 0.55263 0.58803 0.0
H1989 H 0.49682 0.60763 0.64807 0.0
C1990 C 0.46741 0.59579 0.66663 0.0
C1991 C 0.44506 0.57977 0.66697 0.0
C1992 C 0.47265 0.55978 0.59144 0.0
C1993 C 0.46854 0.57967 0.62888 0.0
C1994 C 0.48704 0.55312 0.5765 0.0
C1995 C 0.51125 0.56138 0.5812 0.0
C1996 C 0.48267 0.575 0.61094 0.0
C1997 C 0.52049 0.57724 0.60043 0.0
C1998 C 0.47911 0.59597 0.64758 0.0
C1999 C 0.43407 0.56569 0.64723 0.0
N2000 N 0.5062 0.5834 0.61462 0.0
N2001 N 0.44615 0.56553 0.62903 0.0
H2002 H 0.82404 0.23142 0.02424 0.0
H2003 H 0.7808 0.21017 0.89545 0.0
H2004 H 0.816 0.1643 0.98302 0.0
H2005 H 0.81026 0.28268 0.92907 0.0
H2006 H 0.79079 0.19306 0.92887 0.0
H2007 H 0.81736 0.25095 0.99074 0.0
C2008 C 0.82122 0.22091 0.00816 0.0
C2009 C 0.82045 0.19616 0.00642 0.0
C2010 C 0.79515 0.21273 0.92895 0.0
C2011 C 0.81238 0.21816 0.96831 0.0
C2012 C 0.78948 0.22254 0.90983 0.0
C2013 C 0.79492 0.24795 0.9093 0.0
C2014 C 0.80614 0.22836 0.94789 0.0
C2015 C 0.80557 0.26299 0.92874 0.0
C2016 C 0.81732 0.23203 0.9891 0.0
C2017 C 0.81665 0.18338 0.98519 0.0
N2018 N 0.81086 0.25296 0.94729 0.0
N2019 N 0.81253 0.19444 0.96703 0.0
H2020 H 0.11248 0.45538 0.18015 0.0
H2021 H 0.12978 0.54253 0.08365 0.0
H2022 H 0.17897 0.50193 0.16598 0.0
H2023 H 0.06336 0.49348 0.09524 0.0
H2024 H 0.14877 0.5229 0.10984 0.0
H2025 H 0.09541 0.46262 0.14468 0.0
C2026 C 0.12364 0.46651 0.1692 0.0
C2027 C 0.14704 0.47848 0.17613 0.0
C2028 C 0.13005 0.51629 0.10662 0.0
C2029 C 0.12754 0.4874 0.13592 0.0
C2030 C 0.11911 0.52765 0.09177 0.0
C2031 C 0.09483 0.51993 0.08753 0.0
C2032 C 0.11666 0.49723 0.11763 0.0
C2033 C 0.08207 0.50026 0.09827 0.0
C2034 C 0.11384 0.4708 0.14904 0.0
C2035 C 0.1608 0.49254 0.16133 0.0
N2036 N 0.09313 0.48975 0.11305 0.0
N2037 N 0.1507 0.49709 0.1421 0.0
H2038 H 0.75959 0.83909 0.44833 0.0
H2039 H 0.8395 0.81063 0.35581 0.0
H2040 H 0.82694 0.83045 0.46536 0.0
H2041 H 0.76721 0.80612 0.34258 0.0
H2042 H 0.83565 0.81712 0.39581 0.0
H2043 H 0.76186 0.82513 0.40971 0.0
C2044 C 0.77463 0.83362 0.44399 0.0
C2045 C 0.79299 0.83572 0.46015 0.0
C2046 C 0.82063 0.81457 0.38412 0.0
C2047 C 0.79621 0.82056 0.41553 0.0
C2048 C 0.82284 0.81101 0.36125 0.0
C2049 C 0.80371 0.80795 0.34565 0.0
C2050 C 0.79917 0.81526 0.3915 0.0
C2051 C 0.78253 0.80846 0.35382 0.0
C2052 C 0.77603 0.82583 0.42186 0.0
C2053 C 0.81224 0.82873 0.45351 0.0
N2054 N 0.7809 0.81216 0.37603 0.0
N2055 N 0.81352 0.82183 0.43164 0.0
H2056 H 0.51424 0.54122 0.76959 0.0
H2057 H 0.49097 0.52037 0.89609 0.0
H2058 H 0.45197 0.54606 0.79865 0.0
H2059 H 0.55642 0.5238 0.86952 0.0
H2060 H 0.47608 0.52868 0.86011 0.0
H2061 H 0.52988 0.53425 0.80582 0.0
C2062 C 0.5039 0.54098 0.78361 0.0
C2063 C 0.48171 0.54417 0.78105 0.0
C2064 C 0.4937 0.52763 0.86213 0.0
C2065 C 0.49947 0.53599 0.82252 0.0
C2066 C 0.50224 0.52294 0.88269 0.0
C2067 C 0.52502 0.52151 0.88585 0.0
C2068 C 0.508 0.53084 0.84452 0.0
C2069 C 0.53868 0.52451 0.86776 0.0
C2070 C 0.51285 0.53696 0.80428 0.0
C2071 C 0.46915 0.54369 0.79982 0.0
N2072 N 0.52997 0.52909 0.84787 0.0
N2073 N 0.47816 0.53955 0.81973 0.0
H2074 H 0.82115 0.14847 0.16022 0.0
H2075 H 0.84354 0.28459 0.21576 0.0
H2076 H 0.84591 0.21239 0.12507 0.0
H2077 H 0.80354 0.21981 0.24305 0.0
H2078 H 0.85263 0.25869 0.18586 0.0
H2079 H 0.82394 0.17489 0.19431 0.0
C2080 C 0.82758 0.16807 0.15973 0.0
C2081 C 0.83281 0.17825 0.13964 0.0
C2082 C 0.84203 0.2502 0.19851 0.0
C2083 C 0.83576 0.20856 0.1786 0.0
C2084 C 0.83679 0.26493 0.21556 0.0
C2085 C 0.82246 0.25433 0.23173 0.0
C2086 C 0.83302 0.22471 0.19776 0.0
C2087 C 0.81434 0.22878 0.23073 0.0
C2088 C 0.82907 0.18314 0.17921 0.0
C2089 C 0.84142 0.20376 0.14013 0.0
N2090 N 0.81965 0.21484 0.21396 0.0
N2091 N 0.84227 0.2181 0.15926 0.0
H2092 H 0.08004 0.53445 0.2668 0.0
H2093 H 0.06983 0.51001 0.39414 0.0
H2094 H 0.11541 0.48974 0.30027 0.0
H2095 H 0.06031 0.57435 0.36709 0.0
H2096 H 0.07689 0.49502 0.35722 0.0
H2097 H 0.06239 0.54115 0.30107 0.0
C2098 C 0.08375 0.52568 0.28122 0.0
C2099 C 0.09949 0.51186 0.28088 0.0
C2100 C 0.07303 0.51231 0.35941 0.0
C2101 C 0.07942 0.5194 0.31985 0.0
C2102 C 0.06921 0.52099 0.38047 0.0
C2103 C 0.06491 0.54371 0.38379 0.0
C2104 C 0.07232 0.52632 0.34156 0.0
C2105 C 0.06352 0.55674 0.36531 0.0
C2106 C 0.07377 0.52961 0.30075 0.0
C2107 C 0.10366 0.50086 0.29999 0.0
N2108 N 0.06739 0.54792 0.34497 0.0
N2109 N 0.09381 0.50503 0.31881 0.0
H2110 H 0.83752 0.87309 0.61789 0.0
H2111 H 0.77404 0.78066 0.70357 0.0
H2112 H 0.78329 0.80631 0.59645 0.0
H2113 H 0.82516 0.85027 0.72301 0.0
H2114 H 0.77726 0.78873 0.66444 0.0
H2115 H 0.83404 0.86361 0.65634 0.0
C2116 C 0.82502 0.85625 0.62121 0.0
C2117 C 0.81072 0.84048 0.60375 0.0
C2118 C 0.78769 0.80226 0.6773 0.0
C2119 C 0.80638 0.82956 0.64821 0.0
C2120 C 0.78578 0.79772 0.6997 0.0
C2121 C 0.79929 0.8148 0.71681 0.0
C2122 C 0.8033 0.82401 0.67185 0.0
C2123 C 0.81431 0.8365 0.71058 0.0
C2124 C 0.82294 0.8509 0.64328 0.0
C2125 C 0.79477 0.81898 0.60929 0.0
N2126 N 0.81593 0.84039 0.68875 0.0
N2127 N 0.79297 0.81421 0.63099 0.0
H2128 H 0.77455 0.5075 0.53177 0.0
H2129 H 0.66291 0.51748 0.59089 0.0
H2130 H 0.71647 0.44524 0.54038 0.0
H2131 H 0.71899 0.5798 0.57809 0.0
H2132 H 0.68493 0.49054 0.57766 0.0
H2133 H 0.75652 0.53385 0.55274 0.0
C2134 C 0.75796 0.49936 0.53807 0.0
C2135 C 0.74687 0.47416 0.53417 0.0
C2136 C 0.69258 0.51011 0.57804 0.0
C2137 C 0.72618 0.50428 0.55834 0.0
C2138 C 0.68015 0.52556 0.58586 0.0
C2139 C 0.68911 0.55096 0.58548 0.0
C2140 C 0.71407 0.52012 0.56969 0.0
C2141 C 0.71133 0.56031 0.57838 0.0
C2142 C 0.74772 0.51443 0.55013 0.0
C2143 C 0.7255 0.46461 0.54287 0.0
N2144 N 0.72296 0.54487 0.57054 0.0
N2145 N 0.71578 0.47973 0.55449 0.0
H2146 H 0.22114 0.19027 0.52081 0.0
H2147 H 0.13816 0.05309 0.5128 0.0
H2148 H 0.24505 0.12839 0.50132 0.0
H2149 H 0.12642 0.11376 0.55202 0.0
H2150 H 0.1759 0.08005 0.50492 0.0
H2151 H 0.18377 0.16219 0.52743 0.0
C2152 C 0.21842 0.17079 0.51765 0.0
C2153 C 0.23624 0.16163 0.51064 0.0
C2154 C 0.16504 0.0873 0.51537 0.0
C2155 C 0.19365 0.12941 0.51836 0.0
C2156 C 0.1436 0.07192 0.51998 0.0
C2157 C 0.12904 0.08118 0.533 0.0
C2158 C 0.17172 0.11209 0.52364 0.0
C2159 C 0.13694 0.10578 0.54178 0.0
C2160 C 0.19717 0.15476 0.52161 0.0
C2161 C 0.23178 0.13618 0.50685 0.0
N2162 N 0.15761 0.12039 0.53678 0.0
N2163 N 0.21091 0.12092 0.5108 0.0
H2164 H 0.26602 0.03476 0.83907 0.0
H2165 H 0.27606 0.93624 0.7565 0.0
H2166 H 0.21526 0.96387 0.83668 0.0
H2167 H 0.33094 0.94988 0.80949 0.0
H2168 H 0.25631 0.95924 0.77971 0.0
H2169 H 0.29392 0.01487 0.82468 0.0
C2170 C 0.261 0.01501 0.83629 0.0
C2171 C 0.23814 1.00094 0.83857 0.0
C2172 C 0.27287 0.95739 0.78599 0.0
C2173 C 0.26952 0.97861 0.8219 0.0
C2174 C 0.28414 0.94437 0.77284 0.0
C2175 C 0.30497 0.94078 0.78121 0.0
C2176 C 0.28272 0.96728 0.8074 0.0
C2177 C 0.31494 0.95228 0.80235 0.0
C2178 C 0.27688 1.00379 0.82806 0.0
C2179 C 0.23256 0.97543 0.83484 0.0
N2180 N 0.3036 0.96498 0.81491 0.0
N2181 N 0.24794 0.96511 0.82595 0.0
H2182 H 0.3605 0.01334 0.97783 0.0
H2183 H 0.4743 0.98423 0.02806 0.0
H2184 H 0.36007 0.94565 0.00477 0.0
H2185 H 0.47491 0.05264 0.00252 0.0
H2186 H 0.43256 0.96895 0.01776 0.0
H2187 H 0.40281 0.02708 0.98437 0.0
C2188 C 0.3693 1.00129 0.98493 0.0
C2189 C 0.35672 0.97841 0.99094 0.0
C2190 C 0.44183 0.98729 0.01438 0.0
C2191 C 0.40501 0.99404 0.99859 0.0
C2192 C 0.46565 0.99604 0.02031 0.0
C2193 C 0.47804 0.01976 0.01623 0.0
C2194 C 0.43038 1.0024 0.00433 0.0
C2195 C 0.46599 0.03425 0.00606 0.0
C2196 C 0.39343 0.00916 0.98872 0.0
C2197 C 0.36902 0.96352 3e-05 0.0
N2198 N 0.4428 0.02535 0.00049 0.0
N2199 N 0.39247 0.97166 0.0037 0.0
H2200 H 0.89488 0.61599 0.8555 0.0
H2201 H 0.78314 0.61967 0.78762 0.0
H2202 H 0.84756 0.55245 0.81773 0.0
H2203 H 0.8211 0.67697 0.8379 0.0
H2204 H 0.80114 0.59163 0.80455 0.0
H2205 H 0.86385 0.63533 0.85604 0.0
C2206 C 0.8778 0.60589 0.84776 0.0
C2207 C 0.87395 0.58294 0.83595 0.0
C2208 C 0.80517 0.61019 0.81222 0.0
C2209 C 0.83852 0.60507 0.83609 0.0
C2210 C 0.79481 0.6262 0.80256 0.0
C2211 C 0.80125 0.65086 0.81094 0.0
C2212 C 0.82232 0.61908 0.8301 0.0
C2213 C 0.81637 0.65828 0.83041 0.0
C2214 C 0.86004 0.61692 0.84808 0.0
C2215 C 0.8514 0.57045 0.82659 0.0
N2216 N 0.82682 0.64261 0.83904 0.0
N2217 N 0.83467 0.58195 0.82635 0.0
H2218 H 0.87435 0.67418 0.01439 0.0
H2219 H 0.93176 0.59267 0.08796 0.0
H2220 H 0.85088 0.64802 0.07633 0.0
H2221 H 0.95219 0.61081 0.02289 0.0
H2222 H 0.90522 0.61749 0.08558 0.0
H2223 H 0.90645 0.656 0.01893 0.0
C2224 C 0.87614 0.66495 0.02905 0.0
C2225 C 0.85978 0.66234 0.04486 0.0
C2226 C 0.91555 0.61616 0.07182 0.0
C2227 C 0.8962 0.64157 0.05013 0.0
C2228 C 0.93063 0.60185 0.07314 0.0
C2229 C 0.94402 0.59942 0.0555 0.0
C2230 C 0.9137 0.62811 0.05267 0.0
C2231 C 0.94222 0.61224 0.03691 0.0
C2232 C 0.89435 0.65448 0.03159 0.0
C2233 C 0.86287 0.65017 0.06354 0.0
N2234 N 0.92718 0.6259 0.03589 0.0
N2235 N 0.88058 0.64018 0.06558 0.0
H2236 H 0.21098 0.12161 0.84558 0.0
H2237 H 0.27295 0.20853 0.76118 0.0
H2238 H 0.1825 0.11028 0.77713 0.0
H2239 H 0.25432 0.24082 0.82122 0.0
H2240 H 0.2476 0.16852 0.76868 0.0
H2241 H 0.23473 0.16277 0.839 0.0
C2242 C 0.20967 0.1279 0.82926 0.0
C2243 C 0.19476 0.11281 0.81187 0.0
C2244 C 0.24921 0.18445 0.78016 0.0
C2245 C 0.22215 0.1589 0.8042 0.0
C2246 C 0.26369 0.20709 0.77601 0.0
C2247 C 0.26557 0.22778 0.79063 0.0
C2248 C 0.23725 0.18256 0.79936 0.0
C2249 C 0.25315 0.22517 0.80955 0.0
C2250 C 0.22311 0.15122 0.82556 0.0
C2251 C 0.19364 0.12158 0.79098 0.0
N2252 N 0.23963 0.20281 0.81356 0.0
N2253 N 0.20749 0.144 0.78759 0.0
H2254 H 0.43983 0.96437 0.27435 0.0
H2255 H 0.32306 0.86441 0.29883 0.0
H2256 H 0.38611 0.98012 0.31139 0.0
H2257 H 0.37615 0.84638 0.26241 0.0
H2258 H 0.34639 0.90703 0.30339 0.0
H2259 H 0.41725 0.92108 0.26969 0.0
C2260 C 0.42335 0.95876 0.28152 0.0
C2261 C 0.41486 0.97594 0.29326 0.0
C2262 C 0.35299 0.89378 0.2944 0.0
C2263 C 0.389 0.92658 0.28797 0.0
C2264 C 0.33964 0.86939 0.29177 0.0
C2265 C 0.34765 0.85175 0.28023 0.0
C2266 C 0.37456 0.9007 0.28542 0.0
C2267 C 0.36931 0.85936 0.27147 0.0
C2268 C 0.41048 0.93407 0.27885 0.0
C2269 C 0.39339 0.96762 0.30219 0.0
N2270 N 0.38202 0.8833 0.27424 0.0
N2271 N 0.38124 0.9436 0.29933 0.0
H2272 H 0.57614 0.36142 0.57478 0.0
H2273 H 0.5993 0.50571 0.59073 0.0
H2274 H 0.60921 0.40533 0.63542 0.0
H2275 H 0.54105 0.45853 0.54834 0.0
H2276 H 0.60766 0.46955 0.60383 0.0
H2277 H 0.56762 0.39748 0.56111 0.0
C2278 C 0.5817 0.37864 0.58514 0.0
C2279 C 0.59332 0.38038 0.60628 0.0
C2280 C 0.593 0.46715 0.59173 0.0
C2281 C 0.58391 0.42156 0.59072 0.0
C2282 C 0.58822 0.48776 0.58423 0.0
C2283 C 0.56934 0.48515 0.56853 0.0
C2284 C 0.57909 0.44374 0.58316 0.0
C2285 C 0.55563 0.4614 0.56063 0.0
C2286 C 0.57674 0.39913 0.5774 0.0
C2287 C 0.60009 0.40313 0.61907 0.0
N2288 N 0.56088 0.4416 0.5679 0.0
N2289 N 0.59542 0.42283 0.61104 0.0
H2290 H 0.43612 0.76328 0.4065 0.0
H2291 H 0.3686 0.73856 0.28499 0.0
H2292 H 0.46527 0.74749 0.34598 0.0
H2293 H 0.34513 0.7706 0.34243 0.0
H2294 H 0.39956 0.73139 0.30907 0.0
H2295 H 0.39819 0.75556 0.38513 0.0
C2296 C 0.43434 0.75753 0.38887 0.0
C2297 C 0.45375 0.75626 0.37787 0.0
C2298 C 0.38745 0.73974 0.31643 0.0
C2299 C 0.41088 0.74761 0.35345 0.0
C2300 C 0.36975 0.7438 0.30268 0.0
C2301 C 0.35456 0.75566 0.31161 0.0
C2302 C 0.38993 0.74755 0.33927 0.0
C2303 C 0.35676 0.76184 0.33473 0.0
C2304 C 0.41282 0.75331 0.37666 0.0
C2305 C 0.4507 0.74894 0.35499 0.0
N2306 N 0.37429 0.75797 0.34772 0.0
N2307 N 0.42976 0.74511 0.34351 0.0
H2308 H 0.10511 0.75349 0.07907 0.0
H2309 H 0.0622 0.61013 0.08966 0.0
H2310 H 0.0979 0.72131 0.14135 0.0
H2311 H 0.0991 0.63821 0.03393 0.0
H2312 H 0.06846 0.65175 0.10595 0.0
H2313 H 0.09671 0.71213 0.05951 0.0
C2314 C 0.10163 0.73779 0.08857 0.0
C2315 C 0.10233 0.74083 0.11187 0.0
C2316 C 0.0752 0.64885 0.09015 0.0
C2317 C 0.09249 0.69388 0.08975 0.0
C2318 C 0.07161 0.62504 0.08077 0.0
C2319 C 0.08035 0.62059 0.06046 0.0
C2320 C 0.08744 0.66857 0.07912 0.0
C2321 C 0.09228 0.6408 0.04973 0.0
C2322 C 0.09699 0.7143 0.07745 0.0
C2323 C 0.09777 0.71989 0.12341 0.0
N2324 N 0.09548 0.664 0.0592 0.0
N2325 N 0.09296 0.69741 0.11226 0.0
H2326 H 0.10813 0.30254 0.92975 0.0
H2327 H 0.15683 0.25493 0.82079 0.0
H2328 H 0.06934 0.24095 0.88405 0.0
H2329 H 0.18706 0.32709 0.85475 0.0
H2330 H 0.12833 0.24616 0.84817 0.0
H2331 H 0.14113 0.30812 0.90689 0.0
C2332 C 0.10677 0.28994 0.91522 0.0
C2333 C 0.08602 0.27138 0.90866 0.0
C2334 C 0.14124 0.26389 0.8497 0.0
C2335 C 0.12336 0.27767 0.88251 0.0
C2336 C 0.15755 0.26888 0.83412 0.0
C2337 C 0.17425 0.29181 0.83547 0.0
C2338 C 0.14164 0.28191 0.86684 0.0
C2339 C 0.17425 0.30929 0.85297 0.0
C2340 C 0.12547 0.29323 0.90207 0.0
C2341 C 0.08503 0.25561 0.88956 0.0
N2342 N 0.15815 0.30399 0.86801 0.0
N2343 N 0.10338 0.25918 0.8771 0.0
H2344 H 0.5529 0.69022 0.90588 0.0
H2345 H 0.54961 0.63128 0.02415 0.0
H2346 H 0.56263 0.73368 0.96876 0.0
H2347 H 0.55767 0.5927 0.96285 0.0
H2348 H 0.5509 0.66744 0.00416 0.0
H2349 H 0.55131 0.65396 0.92583 0.0
C2350 C 0.55463 0.69231 0.92388 0.0
C2351 C 0.55795 0.71564 0.93534 0.0
C2352 C 0.55233 0.65109 0.99498 0.0
C2353 C 0.55585 0.67308 0.95886 0.0
C2354 C 0.55149 0.63015 0.00647 0.0
C2355 C 0.55347 0.60828 0.99549 0.0
C2356 C 0.55487 0.65066 0.97192 0.0
C2357 C 0.55606 0.60875 0.97239 0.0
C2358 C 0.55377 0.67137 0.93537 0.0
C2359 C 0.56009 0.71648 0.95886 0.0
N2360 N 0.55654 0.62921 0.96158 0.0
N2361 N 0.5589 0.69583 0.96962 0.0
H2362 H 0.14793 0.82519 0.67668 0.0
H2363 H 0.21785 0.77992 0.7761 0.0
H2364 H 0.11515 0.79415 0.73314 0.0
H2365 H 0.25212 0.8213 0.72513 0.0
H2366 H 0.1805 0.78341 0.76017 0.0
H2367 H 0.18537 0.82264 0.69325 0.0
C2368 C 0.14843 0.81792 0.69263 0.0
C2369 C 0.12773 0.81007 0.70332 0.0
C2370 C 0.19613 0.79176 0.75238 0.0
C2371 C 0.17168 0.80666 0.72273 0.0
C2372 C 0.21773 0.78972 0.76153 0.0
C2373 C 0.23884 0.80023 0.75219 0.0
C2374 C 0.19491 0.80429 0.73333 0.0
C2375 C 0.23676 0.81275 0.73319 0.0
C2376 C 0.17008 0.81643 0.70216 0.0
C2377 C 0.13023 0.80069 0.72405 0.0
N2378 N 0.21556 0.81428 0.72454 0.0
N2379 N 0.15142 0.79918 0.73284 0.0
H2380 H 0.06071 0.35293 0.46366 0.0
H2381 H 0.05613 0.49281 0.461 0.0
H2382 H 0.07204 0.39284 0.40591 0.0
H2383 H 0.05903 0.45978 0.52226 0.0
H2384 H 0.05958 0.4555 0.44063 0.0
H2385 H 0.05793 0.39023 0.48516 0.0
C2386 C 0.06272 0.36941 0.45542 0.0
C2387 C 0.06678 0.36927 0.43269 0.0
C2388 C 0.05947 0.45631 0.45854 0.0
C2389 C 0.0632 0.41264 0.45751 0.0
C2390 C 0.05744 0.47779 0.47029 0.0
C2391 C 0.05728 0.47997 0.49366 0.0
C2392 C 0.06112 0.43617 0.4699 0.0
C2393 C 0.05912 0.4594 0.50437 0.0
C2394 C 0.0611 0.39086 0.46779 0.0
C2395 C 0.06904 0.39161 0.42327 0.0
N2396 N 0.06083 0.43863 0.49254 0.0
N2397 N 0.06713 0.41196 0.43551 0.0
H2398 H 0.47015 0.25881 0.21725 0.0
H2399 H 0.38735 0.33748 0.26218 0.0
H2400 H 0.48307 0.33424 0.20507 0.0
H2401 H 0.36386 0.2591 0.24973 0.0
H2402 H 0.42369 0.33768 0.24548 0.0
H2403 H 0.43371 0.25957 0.23264 0.0
C2404 C 0.4655 0.27569 0.21774 0.0
C2405 C 0.48038 0.29646 0.20947 0.0
C2406 C 0.41066 0.32038 0.24639 0.0
C2407 C 0.43749 0.29755 0.22811 0.0
C2408 C 0.3897 0.3202 0.25613 0.0
C2409 C 0.37187 0.2982 0.25772 0.0
C2410 C 0.41469 0.29835 0.2383 0.0
C2411 C 0.37662 0.27663 0.24914 0.0
C2412 C 0.44437 0.27604 0.22663 0.0
C2413 C 0.4726 0.31758 0.21091 0.0
N2414 N 0.39727 0.27728 0.24018 0.0
N2415 N 0.45213 0.31761 0.22011 0.0
H2416 H 0.60787 0.49379 0.38614 0.0
H2417 H 0.62749 0.56681 0.50056 0.0
H2418 H 0.67294 0.549 0.40557 0.0
H2419 H 0.58394 0.49199 0.48979 0.0
H2420 H 0.64741 0.55956 0.46787 0.0
H2421 H 0.60102 0.49069 0.42526 0.0
C2422 C 0.62097 0.50476 0.3988 0.0
C2423 C 0.64091 0.52165 0.39292 0.0
C2424 C 0.63387 0.5446 0.47305 0.0
C2425 C 0.63293 0.51903 0.43745 0.0
C2426 C 0.62244 0.54876 0.49163 0.0
C2427 C 0.60353 0.53022 0.49743 0.0
C2428 C 0.62604 0.5219 0.46019 0.0
C2429 C 0.59795 0.50706 0.48551 0.0
C2430 C 0.61713 0.50303 0.42109 0.0
C2431 C 0.65739 0.53569 0.4097 0.0
N2432 N 0.60881 0.50371 0.46716 0.0
N2433 N 0.65276 0.53456 0.43134 0.0
H2434 H 0.27848 0.84766 0.04041 0.0
H2435 H 0.36339 0.85345 0.149 0.0
H2436 H 0.33131 0.91282 0.06903 0.0
H2437 H 0.31092 0.78777 0.121 0.0
H2438 H 0.35361 0.8747 0.11809 0.0
H2439 H 0.29158 0.82459 0.06827 0.0
C2440 C 0.29285 0.85709 0.05251 0.0
C2441 C 0.30372 0.88222 0.0525 0.0
C2442 C 0.34434 0.85558 0.11858 0.0
C2443 C 0.31882 0.856 0.08432 0.0
C2444 C 0.3499 0.84347 0.13625 0.0
C2445 C 0.33786 0.81886 0.13763 0.0
C2446 C 0.32648 0.84305 0.10222 0.0
C2447 C 0.32076 0.8067 0.12049 0.0
C2448 C 0.30035 0.84392 0.06838 0.0
C2449 C 0.32232 0.8935 0.06849 0.0
N2450 N 0.31543 0.81898 0.10359 0.0
N2451 N 0.32921 0.88033 0.08379 0.0
H2452 H 0.02609 0.56537 0.85844 0.0
H2453 H 1.01074 0.56909 0.98843 0.0
H2454 H 0.96274 0.56878 0.88617 0.0
H2455 H 0.07359 0.56617 0.95943 0.0
H2456 H 0.99398 0.57335 0.95167 0.0
H2457 H 0.04481 0.56967 0.89588 0.0
C2458 C 0.01611 0.56708 0.87241 0.0
C2459 C 0.99274 0.56644 0.86917 0.0
C2460 C 1.01151 0.572 0.95344 0.0
C2461 C 0.01409 0.57136 0.91215 0.0
C2462 C 0.0211 0.56962 0.97441 0.0
C2463 C 0.04347 0.56693 0.97693 0.0
C2464 C 0.02442 0.57167 0.93497 0.0
C2465 C 0.05616 0.56784 0.95823 0.0
C2466 C 0.02685 0.56961 0.89381 0.0
C2467 C 0.98077 0.56901 0.88791 0.0
N2468 N 0.04638 0.56993 0.93802 0.0
N2469 N 0.99154 0.57117 0.90864 0.0
H2470 H 0.33557 0.25713 0.59576 0.0
H2471 H 0.26495 0.26588 0.70282 0.0
H2472 H 0.26283 0.22035 0.59836 0.0
H2473 H 0.33981 0.28666 0.70657 0.0
H2474 H 0.26369 0.25539 0.66284 0.0
H2475 H 0.33714 0.27488 0.63444 0.0
C2476 C 0.31983 0.25334 0.60424 0.0
C2477 C 0.29903 0.23728 0.59384 0.0
C2478 C 0.28042 0.26231 0.67238 0.0
C2479 C 0.30071 0.25716 0.63801 0.0
C2480 C 0.28116 0.26832 0.69528 0.0
C2481 C 0.30251 0.27699 0.70825 0.0
C2482 C 0.30118 0.26511 0.66214 0.0
C2483 C 0.32292 0.27983 0.69734 0.0
C2484 C 0.32078 0.26321 0.62638 0.0
C2485 C 0.27923 0.23261 0.60575 0.0
N2486 N 0.32176 0.27388 0.67497 0.0
N2487 N 0.28058 0.24239 0.62712 0.0
H2488 H 0.65312 0.56455 0.25161 0.0
H2489 H 0.53234 0.52507 0.18016 0.0
H2490 H 0.59499 0.51037 0.27343 0.0
H2491 H 0.58178 0.5968 0.18289 0.0
H2492 H 0.55433 0.5167 0.21265 0.0
H2493 H 0.62714 0.57316 0.22321 0.0
C2494 C 0.63488 0.55431 0.25033 0.0
C2495 C 0.62616 0.53676 0.26493 0.0
C2496 C 0.55996 0.53441 0.20632 0.0
C2497 C 0.59628 0.54667 0.23246 0.0
C2498 C 0.54747 0.53921 0.18785 0.0
C2499 C 0.55527 0.56163 0.17874 0.0
C2500 C 0.58051 0.55202 0.21532 0.0
C2501 C 0.57491 0.57935 0.1894 0.0
C2502 C 0.62002 0.55942 0.23423 0.0
C2503 C 0.60235 0.5241 0.26248 0.0
N2504 N 0.58703 0.57401 0.20688 0.0
N2505 N 0.58814 0.52923 0.24642 0.0
H2506 H 0.268 0.93126 0.90721 0.0
H2507 H 0.28452 0.80618 0.85522 0.0
H2508 H 0.26148 0.86733 0.9425 0.0
H2509 H 0.29085 0.8687 0.81797 0.0
H2510 H 0.27241 0.82753 0.88612 0.0
H2511 H 0.27177 0.90762 0.87305 0.0
C2512 C 0.26689 0.91214 0.90771 0.0
C2513 C 0.26475 0.90134 0.92784 0.0
C2514 C 0.27636 0.83663 0.8712 0.0
C2515 C 0.26935 0.87437 0.88892 0.0
C2516 C 0.28342 0.82447 0.85353 0.0
C2517 C 0.28897 0.83576 0.83403 0.0
C2518 C 0.27493 0.86041 0.86955 0.0
C2519 C 0.2869 0.85938 0.83277 0.0
C2520 C 0.2692 0.89872 0.88822 0.0
C2521 C 0.26342 0.87652 0.92746 0.0
N2522 N 0.28019 0.87102 0.85039 0.0
N2523 N 0.26599 0.86398 0.90839 0.0
H2524 H 0.92323 0.56443 0.73091 0.0
H2525 H 0.04457 0.58247 0.67901 0.0
H2526 H 0.98942 0.60447 0.76579 0.0
H2527 H 0.97955 0.53172 0.65103 0.0
H2528 H 0.02366 0.59893 0.70677 0.0
H2529 H 0.94261 0.56168 0.69702 0.0
C2530 C 0.94175 0.57315 0.73131 0.0
C2531 C 0.95486 0.58412 0.75128 0.0
C2532 C 0.01399 0.58433 0.69441 0.0
C2533 C 0.97713 0.58074 0.71278 0.0
C2534 C 0.0259 0.57494 0.67866 0.0
C2535 C 0.01378 0.55535 0.66315 0.0
C2536 C 0.98984 0.57414 0.69442 0.0
C2537 C 0.98959 0.54637 0.66316 0.0
C2538 C 0.95283 0.57144 0.71201 0.0
C2539 C 0.97875 0.59537 0.75081 0.0
N2540 N 0.97843 0.55571 0.67867 0.0
N2541 N 0.98922 0.593 0.73195 0.0
H2542 H 0.32647 0.20682 0.43841 0.0
H2543 H 0.31716 0.31327 0.36294 0.0
H2544 H 0.31776 0.27531 0.46458 0.0
H2545 H 0.31917 0.24232 0.33569 0.0
H2546 H 0.32042 0.30073 0.4003 0.0
H2547 H 0.3271 0.22063 0.40114 0.0
C2548 C 0.32493 0.22489 0.4364 0.0
C2549 C 0.32205 0.2399 0.45479 0.0
C2550 C 0.32024 0.28789 0.38619 0.0
C2551 C 0.32259 0.25581 0.41186 0.0
C2552 C 0.3184 0.29505 0.36475 0.0
C2553 C 0.31784 0.27885 0.34595 0.0
C2554 C 0.32158 0.26429 0.38912 0.0
C2555 C 0.31953 0.25548 0.34958 0.0
C2556 C 0.32519 0.23272 0.41503 0.0
C2557 C 0.32005 0.26309 0.45099 0.0
N2558 N 0.32127 0.24891 0.37068 0.0
N2559 N 0.32028 0.27026 0.43001 0.0
H2560 H 0.34832 0.55848 0.56848 0.0
H2561 H 0.42775 0.55645 0.46818 0.0
H2562 H 0.36639 0.61622 0.52513 0.0
H2563 H 0.41143 0.50115 0.51409 0.0
H2564 H 0.4016 0.5763 0.48578 0.0
H2565 H 0.36904 0.53574 0.54662 0.0
C2566 C 0.35681 0.56649 0.55446 0.0
C2567 C 0.35567 0.58935 0.54869 0.0
C2568 C 0.4035 0.55959 0.49173 0.0
C2569 C 0.37922 0.56318 0.52333 0.0
C2570 C 0.41831 0.5482 0.48163 0.0
C2571 C 0.422 0.52725 0.48981 0.0
C2572 C 0.39237 0.54994 0.51012 0.0
C2573 C 0.40908 0.51715 0.50707 0.0
C2574 C 0.36852 0.55339 0.54187 0.0
C2575 C 0.36694 0.59873 0.53027 0.0
N2576 N 0.3951 0.52878 0.51683 0.0
N2577 N 0.37825 0.58558 0.51822 0.0
H2578 H 0.87362 0.93581 0.48484 0.0
H2579 H 0.98824 1.00821 0.56063 0.0
H2580 H 0.88719 0.92026 0.55211 0.0
H2581 H 0.98455 1.00497 0.48895 0.0
H2582 H 0.95007 0.9783 0.55806 0.0
H2583 H 0.91339 0.96244 0.48602 0.0
C2584 C 0.8851 0.9378 0.4998 0.0
C2585 C 0.8771 0.92593 0.51847 0.0
C2586 C 0.95761 0.98411 0.54289 0.0
C2587 C 0.92248 0.95675 0.52004 0.0
C2588 C 0.97933 1.00141 0.54431 0.0
C2589 C 0.98963 0.00925 0.52494 0.0
C2590 C 0.94586 0.97472 0.52197 0.0
C2591 C 0.97726 0.99954 0.5043 0.0
C2592 C 0.90778 0.953 0.50044 0.0
C2593 C 0.8927 0.92902 0.53735 0.0
N2594 N 0.95594 0.98283 0.50336 0.0
N2595 N 0.91461 0.94444 0.53777 0.0
H2596 H 0.84263 0.06081 0.25489 0.0
H2597 H 0.83433 0.16651 0.34448 0.0
H2598 H 0.9018 0.11126 0.29369 0.0
H2599 H 0.78202 0.13343 0.29031 0.0
H2600 H 0.8555 0.13769 0.3334 0.0
H2601 H 0.81702 0.07931 0.27495 0.0
C2602 C 0.85022 0.07563 0.26777 0.0
C2603 C 0.87438 0.08482 0.27241 0.0
C2604 C 0.83915 0.13651 0.32424 0.0
C2605 C 0.84522 0.10579 0.29549 0.0
C2606 C 0.82707 0.15292 0.33052 0.0
C2607 C 0.80665 0.15278 0.31798 0.0
C2608 C 0.83065 0.11975 0.30541 0.0
C2609 C 0.7977 0.13432 0.30045 0.0
C2610 C 0.8356 0.08612 0.27921 0.0
C2611 C 0.88328 0.10389 0.28938 0.0
N2612 N 0.80996 0.11877 0.29446 0.0
N2613 N 0.86868 0.11387 0.30023 0.0
H2614 H 0.73142 0.1534 0.08068 0.0
H2615 H 0.62591 0.05914 0.00652 0.0
H2616 H 0.73995 0.09535 0.03553 0.0
H2617 H 0.61773 0.08923 0.07198 0.0
H2618 H 0.66786 0.0783 0.01307 0.0
H2619 H 0.68908 0.13575 0.07387 0.0
C2620 C 0.72436 0.13703 0.06932 0.0
C2621 C 0.73903 0.12568 0.05871 0.0
C2622 C 0.65682 0.08064 0.02597 0.0
C2623 C 0.6912 0.10585 0.05071 0.0
C2624 C 0.63297 0.0698 0.02224 0.0
C2625 C 0.6185 0.07253 0.03881 0.0
C2626 C 0.66607 0.09461 0.04622 0.0
C2627 C 0.62842 0.08652 0.05889 0.0
C2628 C 0.70034 0.12698 0.06553 0.0
C2629 C 0.72917 0.10451 0.04416 0.0
N2630 N 0.65169 0.09721 0.06202 0.0
N2631 N 0.70582 0.09534 0.04047 0.0
H2632 H 0.18737 0.45399 0.30297 0.0
H2633 H 0.3184 0.46684 0.32634 0.0
H2634 H 0.242 0.51478 0.28501 0.0
H2635 H 0.26651 0.4202 0.36257 0.0
H2636 H 0.29155 0.48913 0.31693 0.0
H2637 H 0.21567 0.44417 0.32863 0.0
C2638 C 0.20526 0.46535 0.30454 0.0
C2639 C 0.21247 0.48487 0.29148 0.0
C2640 C 0.28609 0.47429 0.32729 0.0
C2641 C 0.24478 0.47394 0.32084 0.0
C2642 C 0.30167 0.46156 0.33301 0.0
C2643 C 0.29456 0.44063 0.34452 0.0
C2644 C 0.26305 0.4658 0.33259 0.0
C2645 C 0.27245 0.43527 0.35258 0.0
C2646 C 0.22135 0.4599 0.31934 0.0
C2647 C 0.23575 0.49926 0.29443 0.0
N2648 N 0.25717 0.4472 0.3458 0.0
N2649 N 0.25111 0.4933 0.30856 0.0
H2650 H 0.28186 0.44334 0.0582 0.0
H2651 H 0.15822 0.462 0.0255 0.0
H2652 H 0.22219 0.38352 0.03199 0.0
H2653 H 0.22199 0.5207 0.04003 0.0
H2654 H 0.17981 0.43249 0.03153 0.0
H2655 H 0.25839 0.47121 0.05607 0.0
C2656 C 0.2637 0.43602 0.05212 0.0
C2657 C 0.25401 0.4111 0.04501 0.0
C2658 C 0.18904 0.45182 0.03341 0.0
C2659 C 0.22699 0.44311 0.04237 0.0
C2660 C 0.17675 0.46867 0.03006 0.0
C2661 C 0.18838 0.49384 0.03224 0.0
C2662 C 0.21308 0.46025 0.03915 0.0
C2663 C 0.2124 0.50148 0.03792 0.0
C2664 C 0.25032 0.452 0.05084 0.0
C2665 C 0.23035 0.40263 0.03755 0.0
N2666 N 0.22393 0.48475 0.04122 0.0
N2667 N 0.21762 0.41868 0.03626 0.0
H2668 H 0.92765 0.95579 0.21038 0.0
H2669 H 0.81619 0.87595 0.2628 0.0
H2670 H 0.86667 0.97837 0.22162 0.0
H2671 H 0.87368 0.84864 0.24758 0.0
H2672 H 0.83393 0.91261 0.24528 0.0
H2673 H 0.90717 0.91489 0.22011 0.0
C2674 C 0.90979 0.95196 0.21435 0.0
C2675 C 0.89892 0.97052 0.21555 0.0
C2676 C 0.84271 0.89862 0.2457 0.0
C2677 C 0.87567 0.92421 0.22701 0.0
C2678 C 0.83265 0.87771 0.25589 0.0
C2679 C 0.84357 0.85928 0.25686 0.0
C2680 C 0.86399 0.90132 0.23651 0.0
C2681 C 0.86475 0.8625 0.24735 0.0
C2682 C 0.89819 0.92872 0.22008 0.0
C2683 C 0.87581 0.96468 0.22085 0.0
N2684 N 0.87437 0.88324 0.23765 0.0
N2685 N 0.86508 0.94214 0.22663 0.0
H2686 H 0.69124 0.09772 0.69765 0.0
H2687 H 0.75024 0.21011 0.78723 0.0
H2688 H 0.69568 0.08958 0.76789 0.0
H2689 H 0.78119 0.20176 0.72595 0.0
H2690 H 0.72286 0.16915 0.77815 0.0
H2691 H 0.71736 0.1398 0.70552 0.0
C2692 C 0.69754 0.10488 0.71468 0.0
C2693 C 0.69149 0.09025 0.73216 0.0
C2694 C 0.73566 0.17637 0.76672 0.0
C2695 C 0.72067 0.13795 0.74119 0.0
C2696 C 0.75121 0.19965 0.77186 0.0
C2697 C 0.76805 0.20912 0.75739 0.0
C2698 C 0.7366 0.16282 0.74671 0.0
C2699 C 0.7686 0.1949 0.73765 0.0
C2700 C 0.71246 0.1287 0.71912 0.0
C2701 C 0.70013 0.10024 0.75394 0.0
N2702 N 0.75293 0.17245 0.73276 0.0
N2703 N 0.71415 0.12355 0.75787 0.0
loop_
_geom_bond_atom_site_label_1
_geom_bond_atom_site_label_2
_geom_bond_distance
_geom_bond_site_symmetry_2
_ccdc_geom_bond_type
C0 O1 1.306 1_655 S
C0 O3 1.160 1_655 S
O1 C0 1.306 1_455 S
O1 Cd2 2.228 . S
Cd2 O1 2.228 . S
Cd2 O6 2.273 . S
Cd2 O10 2.277 . S
O3 C0 1.160 1_455 S
O3 Cd4 2.203 . S
Cd4 O3 2.203 . S
Cd4 O6 2.411 . S
Cd4 O7 2.333 . S
Cd4 O8 2.352 . S
Cd4 O12 2.277 . S
Cd4 O13 2.356 . S
C5 O10 1.209 . S
C5 O12 1.226 . S
O6 Cd2 2.273 . S
O6 Cd4 2.411 . S
O6 C9 1.320 . S
O7 Cd4 2.333 . S
O7 C9 1.214 . S
O8 Cd4 2.352 . S
O8 C11 1.258 . S
C9 O6 1.320 . S
C9 O7 1.214 . S
O10 Cd2 2.277 . S
O10 C5 1.209 . S
C11 O8 1.258 . S
C11 O13 1.282 . S
O12 Cd4 2.277 . S
O12 C5 1.226 . S
O13 Cd4 2.356 . S
O13 C11 1.282 . S
C14 O15 1.306 . S
C14 O17 1.160 . S
O15 C14 1.306 . S
O15 Cd16 2.228 . S
Cd16 O15 2.228 . S
Cd16 O20 2.273 . S
Cd16 O24 2.277 . S
O17 C14 1.160 . S
O17 Cd18 2.203 . S
Cd18 O17 2.203 . S
Cd18 O20 2.411 . S
Cd18 O21 2.333 . S
Cd18 O22 2.352 . S
Cd18 O26 2.277 . S
Cd18 O27 2.356 . S
C19 O24 1.209 . S
C19 O26 1.226 . S
O20 Cd16 2.273 . S
O20 Cd18 2.411 . S
O20 C23 1.320 . S
O21 Cd18 2.333 . S
O21 C23 1.214 . S
O22 Cd18 2.352 . S
O22 C25 1.258 . S
C23 O20 1.320 . S
C23 O21 1.214 . S
O24 Cd16 2.277 . S
O24 C19 1.209 . S
C25 O22 1.258 . S
C25 O27 1.282 . S
O26 Cd18 2.277 . S
O26 C19 1.226 . S
O27 Cd18 2.356 . S
O27 C25 1.282 . S
C28 O29 1.306 . S
C28 O31 1.160 . S
O29 C28 1.306 . S
O29 Cd30 2.228 . S
Cd30 O29 2.228 . S
Cd30 O34 2.273 . S
Cd30 O38 2.277 . S
O31 C28 1.160 . S
O31 Cd32 2.203 . S
Cd32 O31 2.203 . S
Cd32 O34 2.411 . S
Cd32 O35 2.333 . S
Cd32 O36 2.352 . S
Cd32 O40 2.277 . S
Cd32 O41 2.356 . S
C33 O38 1.209 . S
C33 O40 1.226 . S
O34 Cd30 2.273 . S
O34 Cd32 2.411 . S
O34 C37 1.320 . S
O35 Cd32 2.333 . S
O35 C37 1.214 . S
O36 Cd32 2.352 . S
O36 C39 1.258 . S
C37 O34 1.320 . S
C37 O35 1.214 . S
O38 Cd30 2.277 . S
O38 C33 1.209 . S
C39 O36 1.258 . S
C39 O41 1.282 . S
O40 Cd32 2.277 . S
O40 C33 1.226 . S
O41 Cd32 2.356 . S
O41 C39 1.282 . S
C42 O43 1.306 . S
C42 O45 1.160 . S
O43 C42 1.306 . S
O43 Cd44 2.228 . S
Cd44 O43 2.228 . S
Cd44 O48 2.273 . S
Cd44 O52 2.277 . S
O45 C42 1.160 . S
O45 Cd46 2.203 . S
Cd46 O45 2.203 . S
Cd46 O48 2.411 . S
Cd46 O49 2.333 . S
Cd46 O50 2.352 . S
Cd46 O54 2.277 . S
Cd46 O55 2.356 . S
C47 O52 1.209 . S
C47 O54 1.226 . S
O48 Cd44 2.273 . S
O48 Cd46 2.411 . S
O48 C51 1.320 . S
O49 Cd46 2.333 . S
O49 C51 1.214 . S
O50 Cd46 2.352 . S
O50 C53 1.258 . S
C51 O48 1.320 . S
C51 O49 1.214 . S
O52 Cd44 2.277 . S
O52 C47 1.209 . S
C53 O50 1.258 . S
C53 O55 1.282 . S
O54 Cd46 2.277 . S
O54 C47 1.226 . S
O55 Cd46 2.356 . S
O55 C53 1.282 . S
C56 O57 1.306 . S
C56 O59 1.160 . S
O57 C56 1.306 . S
O57 Cd58 2.228 . S
Cd58 O57 2.228 . S
Cd58 O62 2.273 . S
Cd58 O66 2.277 . S
O59 C56 1.160 . S
O59 Cd60 2.203 . S
Cd60 O59 2.203 . S
Cd60 O62 2.411 . S
Cd60 O63 2.333 . S
Cd60 O64 2.352 . S
Cd60 O68 2.277 . S
Cd60 O69 2.356 . S
C61 O66 1.209 . S
C61 O68 1.226 . S
O62 Cd58 2.273 . S
O62 Cd60 2.411 . S
O62 C65 1.320 . S
O63 Cd60 2.333 . S
O63 C65 1.214 . S
O64 Cd60 2.352 . S
O64 C67 1.258 . S
C65 O62 1.320 . S
C65 O63 1.214 . S
O66 Cd58 2.277 . S
O66 C61 1.209 . S
C67 O64 1.258 . S
C67 O69 1.282 . S
O68 Cd60 2.277 . S
O68 C61 1.226 . S
O69 Cd60 2.356 . S
O69 C67 1.282 . S
C70 O71 1.306 . S
C70 O73 1.160 . S
O71 C70 1.306 . S
O71 Cd72 2.228 . S
Cd72 O71 2.228 . S
Cd72 O76 2.273 . S
Cd72 O80 2.277 . S
O73 C70 1.160 . S
O73 Cd74 2.203 . S
Cd74 O73 2.203 . S
Cd74 O76 2.411 . S
Cd74 O77 2.333 . S
Cd74 O78 2.352 . S
Cd74 O82 2.277 . S
Cd74 O83 2.356 . S
C75 O80 1.209 . S
C75 O82 1.226 . S
O76 Cd72 2.273 . S
O76 Cd74 2.411 . S
O76 C79 1.320 . S
O77 Cd74 2.333 . S
O77 C79 1.214 . S
O78 Cd74 2.352 . S
O78 C81 1.258 . S
C79 O76 1.320 . S
C79 O77 1.214 . S
O80 Cd72 2.277 . S
O80 C75 1.209 . S
C81 O78 1.258 . S
C81 O83 1.282 . S
O82 Cd74 2.277 . S
O82 C75 1.226 . S
O83 Cd74 2.356 . S
O83 C81 1.282 . S
C84 O85 1.306 . S
C84 O87 1.160 . S
O85 C84 1.306 . S
O85 Cd86 2.228 . S
Cd86 O85 2.228 . S
Cd86 O90 2.273 . S
Cd86 O94 2.277 . S
O87 C84 1.160 . S
O87 Cd88 2.203 . S
Cd88 O87 2.203 . S
Cd88 O90 2.411 . S
Cd88 O91 2.333 . S
Cd88 O92 2.352 . S
Cd88 O96 2.277 . S
Cd88 O97 2.356 . S
C89 O94 1.209 . S
C89 O96 1.226 . S
O90 Cd86 2.273 . S
O90 Cd88 2.411 . S
O90 C93 1.320 . S
O91 Cd88 2.333 . S
O91 C93 1.214 . S
O92 Cd88 2.352 . S
O92 C95 1.258 . S
C93 O90 1.320 . S
C93 O91 1.214 . S
O94 Cd86 2.277 . S
O94 C89 1.209 . S
C95 O92 1.258 . S
C95 O97 1.282 . S
O96 Cd88 2.277 . S
O96 C89 1.226 . S
O97 Cd88 2.356 . S
O97 C95 1.282 . S
C98 O99 1.306 . S
C98 O101 1.160 . S
O99 C98 1.306 . S
O99 Cd100 2.228 1_655 S
Cd100 O99 2.228 1_455 S
Cd100 O104 2.273 . S
Cd100 O108 2.277 . S
O101 C98 1.160 . S
O101 Cd102 2.203 1_655 S
Cd102 O101 2.203 1_455 S
Cd102 O104 2.411 . S
Cd102 O105 2.333 . S
Cd102 O106 2.352 1_455 S
Cd102 O110 2.277 . S
Cd102 O111 2.356 . S
C103 O108 1.209 . S
C103 O110 1.226 . S
O104 Cd100 2.273 . S
O104 Cd102 2.411 . S
O104 C107 1.320 . S
O105 Cd102 2.333 . S
O105 C107 1.214 . S
O106 Cd102 2.352 1_655 S
O106 C109 1.258 . S
C107 O104 1.320 . S
C107 O105 1.214 . S
O108 Cd100 2.277 . S
O108 C103 1.209 . S
C109 O106 1.258 . S
C109 O111 1.282 1_655 S
O110 Cd102 2.277 . S
O110 C103 1.226 . S
O111 Cd102 2.356 . S
O111 C109 1.282 1_455 S
C112 O113 1.306 . S
C112 O115 1.160 . S
O113 C112 1.306 . S
O113 Cd114 2.228 . S
Cd114 O113 2.228 . S
Cd114 O118 2.273 . S
Cd114 O122 2.277 1_545 S
O115 C112 1.160 . S
O115 Cd116 2.203 . S
Cd116 O115 2.203 . S
Cd116 O118 2.411 . S
Cd116 O119 2.333 . S
Cd116 O120 2.352 . S
Cd116 O124 2.277 1_545 S
Cd116 O125 2.356 . S
C117 O122 1.209 . S
C117 O124 1.226 . S
O118 Cd114 2.273 . S
O118 Cd116 2.411 . S
O118 C121 1.320 . S
O119 Cd116 2.333 . S
O119 C121 1.214 . S
O120 Cd116 2.352 . S
O120 C123 1.258 . S
C121 O118 1.320 . S
C121 O119 1.214 . S
O122 Cd114 2.277 1_565 S
O122 C117 1.209 . S
C123 O120 1.258 . S
C123 O125 1.282 . S
O124 Cd116 2.277 1_565 S
O124 C117 1.226 . S
O125 Cd116 2.356 . S
O125 C123 1.282 . S
C126 O127 1.306 . S
C126 O129 1.160 . S
O127 C126 1.306 . S
O127 Cd128 2.228 . S
Cd128 O127 2.228 . S
Cd128 O132 2.273 . S
Cd128 O136 2.277 . S
O129 C126 1.160 . S
O129 Cd130 2.203 . S
Cd130 O129 2.203 . S
Cd130 O132 2.411 . S
Cd130 O133 2.333 . S
Cd130 O134 2.352 . S
Cd130 O138 2.277 . S
Cd130 O139 2.356 . S
C131 O136 1.209 . S
C131 O138 1.226 . S
O132 Cd128 2.273 . S
O132 Cd130 2.411 . S
O132 C135 1.320 . S
O133 Cd130 2.333 . S
O133 C135 1.214 . S
O134 Cd130 2.352 . S
O134 C137 1.258 . S
C135 O132 1.320 . S
C135 O133 1.214 . S
O136 Cd128 2.277 . S
O136 C131 1.209 . S
C137 O134 1.258 . S
C137 O139 1.282 . S
O138 Cd130 2.277 . S
O138 C131 1.226 . S
O139 Cd130 2.356 . S
O139 C137 1.282 . S
C140 O141 1.306 . S
C140 O143 1.160 . S
O141 C140 1.306 . S
O141 Cd142 2.228 . S
Cd142 O141 2.228 . S
Cd142 O146 2.273 . S
Cd142 O150 2.277 . S
O143 C140 1.160 . S
O143 Cd144 2.203 . S
Cd144 O143 2.203 . S
Cd144 O146 2.411 . S
Cd144 O147 2.333 . S
Cd144 O148 2.352 . S
Cd144 O152 2.277 . S
Cd144 O153 2.356 . S
C145 O150 1.209 . S
C145 O152 1.226 . S
O146 Cd142 2.273 . S
O146 Cd144 2.411 . S
O146 C149 1.320 . S
O147 Cd144 2.333 . S
O147 C149 1.214 . S
O148 Cd144 2.352 . S
O148 C151 1.258 . S
C149 O146 1.320 . S
C149 O147 1.214 . S
O150 Cd142 2.277 . S
O150 C145 1.209 . S
C151 O148 1.258 . S
C151 O153 1.282 . S
O152 Cd144 2.277 . S
O152 C145 1.226 . S
O153 Cd144 2.356 . S
O153 C151 1.282 . S
C154 O155 1.313 . S
C154 O157 1.154 1_556 S
O155 C154 1.313 . S
O155 Cd156 2.228 . S
Cd156 O155 2.228 . S
Cd156 O160 2.283 . S
Cd156 O164 2.277 . S
O157 C154 1.154 1_554 S
O157 Cd158 2.203 . S
Cd158 O157 2.203 . S
Cd158 O160 2.409 1_554 S
Cd158 O161 2.333 . S
Cd158 O162 2.352 . S
Cd158 O166 2.277 1_554 S
Cd158 O167 2.356 . S
C159 O164 1.209 . S
C159 O166 1.226 . S
O160 Cd156 2.283 . S
O160 Cd158 2.409 1_556 S
O160 C163 1.319 1_556 S
O161 Cd158 2.333 . S
O161 C163 1.213 . S
O162 Cd158 2.352 . S
O162 C165 1.258 . S
C163 O160 1.319 1_554 S
C163 O161 1.213 . S
O164 Cd156 2.277 . S
O164 C159 1.209 . S
C165 O162 1.258 . S
C165 O167 1.282 . S
O166 Cd158 2.277 1_556 S
O166 C159 1.226 . S
O167 Cd158 2.356 . S
O167 C165 1.282 . S
C168 O169 1.306 . S
C168 O171 1.160 . S
O169 C168 1.306 . S
O169 Cd170 2.228 . S
Cd170 O169 2.228 . S
Cd170 O174 2.273 . S
Cd170 O178 2.277 1_554 S
O171 C168 1.160 . S
O171 Cd172 2.203 . S
Cd172 O171 2.203 . S
Cd172 O174 2.411 . S
Cd172 O175 2.333 . S
Cd172 O176 2.352 . S
Cd172 O180 2.277 . S
Cd172 O181 2.356 . S
C173 O178 1.209 . S
C173 O180 1.226 1_556 S
O174 Cd170 2.273 . S
O174 Cd172 2.411 . S
O174 C177 1.320 . S
O175 Cd172 2.333 . S
O175 C177 1.214 . S
O176 Cd172 2.352 . S
O176 C179 1.258 . S
C177 O174 1.320 . S
C177 O175 1.214 . S
O178 Cd170 2.277 1_556 S
O178 C173 1.209 . S
C179 O176 1.258 . S
C179 O181 1.282 . S
O180 Cd172 2.277 . S
O180 C173 1.226 1_554 S
O181 Cd172 2.356 . S
O181 C179 1.282 . S
C182 O183 1.306 . S
C182 O185 1.160 . S
O183 C182 1.306 . S
O183 Cd184 2.228 . S
Cd184 O183 2.228 . S
Cd184 O188 2.273 . S
Cd184 O192 2.277 . S
O185 C182 1.160 . S
O185 Cd186 2.203 . S
Cd186 O185 2.203 . S
Cd186 O188 2.411 . S
Cd186 O189 2.333 . S
Cd186 O190 2.352 . S
Cd186 O194 2.277 . S
Cd186 O195 2.356 . S
C187 O192 1.209 . S
C187 O194 1.226 . S
O188 Cd184 2.273 . S
O188 Cd186 2.411 . S
O188 C191 1.320 . S
O189 Cd186 2.333 . S
O189 C191 1.214 . S
O190 Cd186 2.352 . S
O190 C193 1.258 . S
C191 O188 1.320 . S
C191 O189 1.214 . S
O192 Cd184 2.277 . S
O192 C187 1.209 . S
C193 O190 1.258 . S
C193 O195 1.282 . S
O194 Cd186 2.277 . S
O194 C187 1.226 . S
O195 Cd186 2.356 . S
O195 C193 1.282 . S
C196 O197 1.306 . S
C196 O199 1.160 . S
O197 C196 1.306 . S
O197 Cd198 2.228 . S
Cd198 O197 2.228 . S
Cd198 O202 2.273 . S
Cd198 O206 2.277 . S
O199 C196 1.160 . S
O199 Cd200 2.203 . S
Cd200 O199 2.203 . S
Cd200 O202 2.411 . S
Cd200 O203 2.333 . S
Cd200 O204 2.352 . S
Cd200 O208 2.277 . S
Cd200 O209 2.356 . S
C201 O206 1.209 . S
C201 O208 1.226 . S
O202 Cd198 2.273 . S
O202 Cd200 2.411 . S
O202 C205 1.320 . S
O203 Cd200 2.333 . S
O203 C205 1.214 . S
O204 Cd200 2.352 . S
O204 C207 1.258 . S
C205 O202 1.320 . S
C205 O203 1.214 . S
O206 Cd198 2.277 . S
O206 C201 1.209 . S
C207 O204 1.258 . S
C207 O209 1.282 . S
O208 Cd200 2.277 . S
O208 C201 1.226 . S
O209 Cd200 2.356 . S
O209 C207 1.282 . S
C210 O211 1.306 . S
C210 O213 1.160 . S
O211 C210 1.306 . S
O211 Cd212 2.228 . S
Cd212 O211 2.228 . S
Cd212 O216 2.273 . S
Cd212 O220 2.277 . S
O213 C210 1.160 . S
O213 Cd214 2.203 . S
Cd214 O213 2.203 . S
Cd214 O216 2.411 . S
Cd214 O217 2.333 . S
Cd214 O218 2.352 . S
Cd214 O222 2.277 . S
Cd214 O223 2.356 . S
C215 O220 1.209 . S
C215 O222 1.226 . S
O216 Cd212 2.273 . S
O216 Cd214 2.411 . S
O216 C219 1.320 . S
O217 Cd214 2.333 . S
O217 C219 1.214 . S
O218 Cd214 2.352 . S
O218 C221 1.258 . S
C219 O216 1.320 . S
C219 O217 1.214 . S
O220 Cd212 2.277 . S
O220 C215 1.209 . S
C221 O218 1.258 . S
C221 O223 1.282 . S
O222 Cd214 2.277 . S
O222 C215 1.226 . S
O223 Cd214 2.356 . S
O223 C221 1.282 . S
C224 O225 1.306 . S
C224 O227 1.160 . S
O225 C224 1.306 . S
O225 Cd226 2.228 1_545 S
Cd226 O225 2.228 1_565 S
Cd226 O230 2.273 1_565 S
Cd226 O234 2.277 . S
O227 C224 1.160 . S
O227 Cd228 2.203 . S
Cd228 O227 2.203 . S
Cd228 O230 2.411 . S
Cd228 O231 2.333 . S
Cd228 O232 2.352 . S
Cd228 O236 2.277 1_545 S
Cd228 O237 2.356 . S
C229 O234 1.209 . S
C229 O236 1.226 . S
O230 Cd226 2.273 1_545 S
O230 Cd228 2.411 . S
O230 C233 1.320 . S
O231 Cd228 2.333 . S
O231 C233 1.214 . S
O232 Cd228 2.352 . S
O232 C235 1.258 . S
C233 O230 1.320 . S
C233 O231 1.214 . S
O234 Cd226 2.277 . S
O234 C229 1.209 . S
C235 O232 1.258 . S
C235 O237 1.282 . S
O236 Cd228 2.277 1_565 S
O236 C229 1.226 . S
O237 Cd228 2.356 . S
O237 C235 1.282 . S
C238 O239 1.306 . S
C238 O241 1.160 . S
O239 C238 1.306 . S
O239 Cd240 2.228 . S
Cd240 O239 2.228 . S
Cd240 O244 2.273 . S
Cd240 O248 2.277 . S
O241 C238 1.160 . S
O241 Cd242 2.203 . S
Cd242 O241 2.203 . S
Cd242 O244 2.411 . S
Cd242 O245 2.333 . S
Cd242 O246 2.352 . S
Cd242 O250 2.277 . S
Cd242 O251 2.356 . S
C243 O248 1.209 . S
C243 O250 1.226 . S
O244 Cd240 2.273 . S
O244 Cd242 2.411 . S
O244 C247 1.320 . S
O245 Cd242 2.333 . S
O245 C247 1.214 . S
O246 Cd242 2.352 . S
O246 C249 1.258 . S
C247 O244 1.320 . S
C247 O245 1.214 . S
O248 Cd240 2.277 . S
O248 C243 1.209 . S
C249 O246 1.258 . S
C249 O251 1.282 . S
O250 Cd242 2.277 . S
O250 C243 1.226 . S
O251 Cd242 2.356 . S
O251 C249 1.282 . S
C252 O253 1.306 . S
C252 O255 1.160 . S
O253 C252 1.306 . S
O253 Cd254 2.228 . S
Cd254 O253 2.228 . S
Cd254 O258 2.273 . S
Cd254 O262 2.277 . S
O255 C252 1.160 . S
O255 Cd256 2.203 . S
Cd256 O255 2.203 . S
Cd256 O258 2.411 . S
Cd256 O259 2.333 . S
Cd256 O260 2.352 . S
Cd256 O264 2.277 . S
Cd256 O265 2.356 . S
C257 O262 1.209 . S
C257 O264 1.226 . S
O258 Cd254 2.273 . S
O258 Cd256 2.411 . S
O258 C261 1.320 . S
O259 Cd256 2.333 . S
O259 C261 1.214 . S
O260 Cd256 2.352 . S
O260 C263 1.258 . S
C261 O258 1.320 . S
C261 O259 1.214 . S
O262 Cd254 2.277 . S
O262 C257 1.209 . S
C263 O260 1.258 . S
C263 O265 1.282 . S
O264 Cd256 2.277 . S
O264 C257 1.226 . S
O265 Cd256 2.356 . S
O265 C263 1.282 . S
C266 O267 1.306 . S
C266 O269 1.160 . S
O267 C266 1.306 . S
O267 Cd268 2.228 . S
Cd268 O267 2.228 . S
Cd268 O272 2.273 . S
Cd268 O276 2.277 . S
O269 C266 1.160 . S
O269 Cd270 2.203 . S
Cd270 O269 2.203 . S
Cd270 O272 2.411 . S
Cd270 O273 2.333 . S
Cd270 O274 2.352 1_545 S
Cd270 O278 2.277 . S
Cd270 O279 2.356 . S
C271 O276 1.209 . S
C271 O278 1.226 . S
O272 Cd268 2.273 . S
O272 Cd270 2.411 . S
O272 C275 1.320 . S
O273 Cd270 2.333 . S
O273 C275 1.214 . S
O274 Cd270 2.352 1_565 S
O274 C277 1.258 . S
C275 O272 1.320 . S
C275 O273 1.214 . S
O276 Cd268 2.277 . S
O276 C271 1.209 . S
C277 O274 1.258 . S
C277 O279 1.282 1_565 S
O278 Cd270 2.277 . S
O278 C271 1.226 . S
O279 Cd270 2.356 . S
O279 C277 1.282 1_545 S
C280 O281 1.306 . S
C280 O283 1.160 . S
O281 C280 1.306 . S
O281 Cd282 2.228 . S
Cd282 O281 2.228 . S
Cd282 O286 2.273 . S
Cd282 O290 2.277 . S
O283 C280 1.160 . S
O283 Cd284 2.203 . S
Cd284 O283 2.203 . S
Cd284 O286 2.411 . S
Cd284 O287 2.333 . S
Cd284 O288 2.352 1_554 S
Cd284 O292 2.277 . S
Cd284 O293 2.356 . S
C285 O290 1.209 . S
C285 O292 1.226 . S
O286 Cd282 2.273 . S
O286 Cd284 2.411 . S
O286 C289 1.320 . S
O287 Cd284 2.333 . S
O287 C289 1.214 . S
O288 Cd284 2.352 1_556 S
O288 C291 1.258 . S
C289 O286 1.320 . S
C289 O287 1.214 . S
O290 Cd282 2.277 . S
O290 C285 1.209 . S
C291 O288 1.258 . S
C291 O293 1.282 1_556 S
O292 Cd284 2.277 . S
O292 C285 1.226 . S
O293 Cd284 2.356 . S
O293 C291 1.282 1_554 S
C294 O295 1.306 . S
C294 O297 1.160 . S
O295 C294 1.306 . S
O295 Cd296 2.228 . S
Cd296 O295 2.228 . S
Cd296 O300 2.273 . S
Cd296 O304 2.277 . S
O297 C294 1.160 . S
O297 Cd298 2.203 . S
Cd298 O297 2.203 . S
Cd298 O300 2.411 . S
Cd298 O301 2.333 . S
Cd298 O302 2.352 . S
Cd298 O306 2.277 . S
Cd298 O307 2.356 . S
C299 O304 1.209 . S
C299 O306 1.226 . S
O300 Cd296 2.273 . S
O300 Cd298 2.411 . S
O300 C303 1.320 . S
O301 Cd298 2.333 . S
O301 C303 1.214 . S
O302 Cd298 2.352 . S
O302 C305 1.258 . S
C303 O300 1.320 . S
C303 O301 1.214 . S
O304 Cd296 2.277 . S
O304 C299 1.209 . S
C305 O302 1.258 . S
C305 O307 1.282 . S
O306 Cd298 2.277 . S
O306 C299 1.226 . S
O307 Cd298 2.356 . S
O307 C305 1.282 . S
C308 O309 1.306 . S
C308 O311 1.160 . S
O309 C308 1.306 . S
O309 Cd310 2.228 . S
Cd310 O309 2.228 . S
Cd310 O314 2.273 . S
Cd310 O318 2.277 . S
O311 C308 1.160 . S
O311 Cd312 2.203 . S
Cd312 O311 2.203 . S
Cd312 O314 2.411 . S
Cd312 O315 2.333 . S
Cd312 O316 2.352 . S
Cd312 O320 2.277 . S
Cd312 O321 2.356 . S
C313 O318 1.209 . S
C313 O320 1.226 . S
O314 Cd310 2.273 . S
O314 Cd312 2.411 . S
O314 C317 1.320 . S
O315 Cd312 2.333 . S
O315 C317 1.214 . S
O316 Cd312 2.352 . S
O316 C319 1.258 . S
C317 O314 1.320 . S
C317 O315 1.214 . S
O318 Cd310 2.277 . S
O318 C313 1.209 . S
C319 O316 1.258 . S
C319 O321 1.282 . S
O320 Cd312 2.277 . S
O320 C313 1.226 . S
O321 Cd312 2.356 . S
O321 C319 1.282 . S
C322 O323 1.306 . S
C322 O325 1.160 . S
O323 C322 1.306 . S
O323 Cd324 2.228 . S
Cd324 O323 2.228 . S
Cd324 O328 2.273 . S
Cd324 O332 2.277 . S
O325 C322 1.160 . S
O325 Cd326 2.203 . S
Cd326 O325 2.203 . S
Cd326 O328 2.411 . S
Cd326 O329 2.333 . S
Cd326 O330 2.352 . S
Cd326 O334 2.277 . S
Cd326 O335 2.356 . S
C327 O332 1.209 . S
C327 O334 1.226 . S
O328 Cd324 2.273 . S
O328 Cd326 2.411 . S
O328 C331 1.320 . S
O329 Cd326 2.333 . S
O329 C331 1.214 . S
O330 Cd326 2.352 . S
O330 C333 1.258 . S
C331 O328 1.320 . S
C331 O329 1.214 . S
O332 Cd324 2.277 . S
O332 C327 1.209 . S
C333 O330 1.258 . S
C333 O335 1.282 . S
O334 Cd326 2.277 . S
O334 C327 1.226 . S
O335 Cd326 2.356 . S
O335 C333 1.282 . S
Tb336 C345 2.764 . S
Tb336 O346 2.325 . S
Tb336 O349 2.303 . S
Tb336 O353 2.322 . S
Tb336 O354 2.349 . S
Tb336 O357 2.415 . S
Tb336 O358 2.399 . S
Tb337 O347 2.322 1_545 S
Tb337 O348 2.349 1_554 S
Tb337 O350 2.415 1_455 S
Tb337 O351 2.399 1_454 S
Tb337 O352 2.325 . S
Tb337 O355 2.303 . S
Tb337 C366 2.764 1_455 S
C338 O354 1.261 . S
C338 O355 1.257 . S
C339 C342 1.358 . S
C339 C343 1.332 . S
C339 C345 1.504 . S
C340 C341 1.373 . S
C340 C344 1.308 . S
C341 C340 1.373 . S
C341 C342 1.429 . S
C341 H368 0.932 . S
C342 C339 1.358 . S
C342 C341 1.429 . S
C342 H369 0.930 . S
C343 C339 1.332 . S
C343 C344 1.394 . S
C343 H370 0.932 . S
C344 C340 1.308 . S
C344 C343 1.394 . S
C344 H371 0.929 . S
C345 Tb336 2.764 . S
C345 C339 1.504 . S
C345 O357 1.239 . S
C345 O358 1.263 . S
O346 Tb336 2.325 . S
O346 C356 1.236 1_545 S
O347 Tb337 2.322 1_565 S
O347 C356 1.257 . S
O348 Tb337 2.349 1_556 S
O348 C359 1.261 . S
O349 Tb336 2.303 . S
O349 C359 1.257 1_554 S
O350 Tb337 2.415 1_655 S
O350 C366 1.239 . S
O351 Tb337 2.399 1_656 S
O351 C366 1.263 1_556 S
O352 Tb337 2.325 . S
O352 C367 1.236 . S
O353 Tb336 2.322 . S
O353 C367 1.257 . S
O354 Tb336 2.349 . S
O354 C338 1.261 . S
O355 Tb337 2.303 . S
O355 C338 1.257 . S
C356 O346 1.236 1_565 S
C356 O347 1.257 . S
O357 Tb336 2.415 . S
O357 C345 1.239 . S
O358 Tb336 2.399 . S
O358 C345 1.263 . S
C359 O348 1.261 . S
C359 O349 1.257 1_556 S
C360 C363 1.358 1_554 S
C360 C364 1.332 . S
C360 C366 1.504 . S
C361 C362 1.342 1_554 S
C361 C365 1.344 . S
C362 C361 1.342 1_556 S
C362 C363 1.429 . S
C362 H372 0.932 . S
C363 C360 1.358 1_556 S
C363 C362 1.429 . S
C363 H373 0.930 . S
C364 C360 1.332 . S
C364 C365 1.394 . S
C364 H374 0.932 . S
C365 C361 1.344 . S
C365 C364 1.394 . S
C365 H375 0.929 . S
C366 Tb337 2.764 1_655 S
C366 O350 1.239 . S
C366 O351 1.263 1_554 S
C366 C360 1.504 . S
C367 O352 1.236 . S
C367 O353 1.257 . S
H368 C341 0.932 . S
H369 C342 0.930 . S
H370 C343 0.932 . S
H371 C344 0.929 . S
H372 C362 0.932 . S
H373 C363 0.930 . S
H374 C364 0.932 . S
H375 C365 0.929 . S
Tb376 C385 2.764 . S
Tb376 O386 2.325 . S
Tb376 O389 2.303 . S
Tb376 O393 2.322 . S
Tb376 O394 2.349 . S
Tb376 O397 2.415 . S
Tb376 O398 2.399 . S
Tb377 O387 2.322 . S
Tb377 O388 2.349 . S
Tb377 O390 2.415 . S
Tb377 O391 2.399 . S
Tb377 O392 2.325 . S
Tb377 O395 2.303 . S
Tb377 C406 2.764 . S
C378 O394 1.261 . S
C378 O395 1.257 . S
C379 C382 1.358 . S
C379 C383 1.332 . S
C379 C385 1.504 . S
C380 C381 1.373 . S
C380 C384 1.308 . S
C381 C380 1.373 . S
C381 C382 1.429 . S
C381 H408 0.932 . S
C382 C379 1.358 . S
C382 C381 1.429 . S
C382 H409 0.930 . S
C383 C379 1.332 . S
C383 C384 1.394 . S
C383 H410 0.932 . S
C384 C380 1.308 . S
C384 C383 1.394 . S
C384 H411 0.929 . S
C385 Tb376 2.764 . S
C385 C379 1.504 . S
C385 O397 1.239 . S
C385 O398 1.263 . S
O386 Tb376 2.325 . S
O386 C396 1.236 . S
O387 Tb377 2.322 . S
O387 C396 1.257 . S
O388 Tb377 2.349 . S
O388 C399 1.261 . S
O389 Tb376 2.303 . S
O389 C399 1.257 . S
O390 Tb377 2.415 . S
O390 C406 1.239 . S
O391 Tb377 2.399 . S
O391 C406 1.263 . S
O392 Tb377 2.325 . S
O392 C407 1.236 . S
O393 Tb376 2.322 . S
O393 C407 1.257 . S
O394 Tb376 2.349 . S
O394 C378 1.261 . S
O395 Tb377 2.303 . S
O395 C378 1.257 . S
C396 O386 1.236 . S
C396 O387 1.257 . S
O397 Tb376 2.415 . S
O397 C385 1.239 . S
O398 Tb376 2.399 . S
O398 C385 1.263 . S
C399 O388 1.261 . S
C399 O389 1.257 . S
C400 C403 1.358 . S
C400 C404 1.332 . S
C400 C406 1.504 . S
C401 C402 1.373 . S
C401 C405 1.308 . S
C402 C401 1.373 . S
C402 C403 1.429 . S
C402 H412 0.932 . S
C403 C400 1.358 . S
C403 C402 1.429 . S
C403 H413 0.930 . S
C404 C400 1.332 . S
C404 C405 1.394 . S
C404 H414 0.932 . S
C405 C401 1.308 . S
C405 C404 1.394 . S
C405 H415 0.929 . S
C406 Tb377 2.764 . S
C406 O390 1.239 . S
C406 O391 1.263 . S
C406 C400 1.504 . S
C407 O392 1.236 . S
C407 O393 1.257 . S
H408 C381 0.932 . S
H409 C382 0.930 . S
H410 C383 0.932 . S
H411 C384 0.929 . S
H412 C402 0.932 . S
H413 C403 0.930 . S
H414 C404 0.932 . S
H415 C405 0.929 . S
Tb416 C425 2.764 . S
Tb416 O426 2.325 . S
Tb416 O429 2.303 . S
Tb416 O433 2.322 1_545 S
Tb416 O434 2.349 . S
Tb416 O437 2.415 . S
Tb416 O438 2.399 . S
Tb417 O427 2.322 . S
Tb417 O428 2.349 . S
Tb417 O430 2.415 . S
Tb417 O431 2.399 . S
Tb417 O432 2.325 1_545 S
Tb417 O435 2.303 . S
Tb417 C446 2.764 . S
C418 O434 1.261 . S
C418 O435 1.257 . S
C419 C422 1.358 . S
C419 C423 1.332 . S
C419 C425 1.504 . S
C420 C421 1.373 . S
C420 C424 1.308 . S
C421 C420 1.373 . S
C421 C422 1.429 . S
C421 H448 0.932 . S
C422 C419 1.358 . S
C422 C421 1.429 . S
C422 H449 0.930 . S
C423 C419 1.332 . S
C423 C424 1.394 . S
C423 H450 0.932 . S
C424 C420 1.308 . S
C424 C423 1.394 . S
C424 H451 0.929 . S
C425 Tb416 2.764 . S
C425 C419 1.504 . S
C425 O437 1.239 . S
C425 O438 1.263 . S
O426 Tb416 2.325 . S
O426 C436 1.236 . S
O427 Tb417 2.322 . S
O427 C436 1.257 . S
O428 Tb417 2.349 . S
O428 C439 1.261 . S
O429 Tb416 2.303 . S
O429 C439 1.257 . S
O430 Tb417 2.415 . S
O430 C446 1.239 . S
O431 Tb417 2.399 . S
O431 C446 1.263 . S
O432 Tb417 2.325 1_565 S
O432 C447 1.236 . S
O433 Tb416 2.322 1_565 S
O433 C447 1.257 . S
O434 Tb416 2.349 . S
O434 C418 1.261 . S
O435 Tb417 2.303 . S
O435 C418 1.257 . S
C436 O426 1.236 . S
C436 O427 1.257 . S
O437 Tb416 2.415 . S
O437 C425 1.239 . S
O438 Tb416 2.399 . S
O438 C425 1.263 . S
C439 O428 1.261 . S
C439 O429 1.257 . S
C440 C443 1.358 1_565 S
C440 C444 1.332 . S
C440 C446 1.503 1_565 S
C441 C442 1.373 . S
C441 C445 1.308 . S
C442 C441 1.373 . S
C442 C443 1.429 1_565 S
C442 H452 0.932 . S
C443 C440 1.358 1_545 S
C443 C442 1.429 1_545 S
C443 H453 0.930 . S
C444 C440 1.332 . S
C444 C445 1.394 . S
C444 H454 0.932 . S
C445 C441 1.308 . S
C445 C444 1.394 . S
C445 H455 0.929 . S
C446 Tb417 2.764 . S
C446 O430 1.239 . S
C446 O431 1.263 . S
C446 C440 1.503 1_545 S
C447 O432 1.236 . S
C447 O433 1.257 . S
H448 C421 0.932 . S
H449 C422 0.930 . S
H450 C423 0.932 . S
H451 C424 0.929 . S
H452 C442 0.932 . S
H453 C443 0.930 . S
H454 C444 0.932 . S
H455 C445 0.929 . S
Tb456 C465 2.764 . S
Tb456 O466 2.325 . S
Tb456 O469 2.303 . S
Tb456 O473 2.322 . S
Tb456 O474 2.349 . S
Tb456 O477 2.415 . S
Tb456 O478 2.399 . S
Tb457 O467 2.322 . S
Tb457 O468 2.349 . S
Tb457 O470 2.415 . S
Tb457 O471 2.399 . S
Tb457 O472 2.325 . S
Tb457 O475 2.303 . S
Tb457 C486 2.764 . S
C458 O474 1.261 . S
C458 O475 1.257 . S
C459 C462 1.358 . S
C459 C463 1.332 . S
C459 C465 1.504 . S
C460 C461 1.373 . S
C460 C464 1.308 . S
C461 C460 1.373 . S
C461 C462 1.429 . S
C461 H488 0.932 . S
C462 C459 1.358 . S
C462 C461 1.429 . S
C462 H489 0.930 . S
C463 C459 1.332 . S
C463 C464 1.394 . S
C463 H490 0.932 . S
C464 C460 1.308 . S
C464 C463 1.394 . S
C464 H491 0.929 . S
C465 Tb456 2.764 . S
C465 C459 1.504 . S
C465 O477 1.239 . S
C465 O478 1.263 . S
O466 Tb456 2.325 . S
O466 C476 1.236 . S
O467 Tb457 2.322 . S
O467 C476 1.257 . S
O468 Tb457 2.349 . S
O468 C479 1.261 . S
O469 Tb456 2.303 . S
O469 C479 1.257 . S
O470 Tb457 2.415 . S
O470 C486 1.239 . S
O471 Tb457 2.399 . S
O471 C486 1.263 . S
O472 Tb457 2.325 . S
O472 C487 1.236 . S
O473 Tb456 2.322 . S
O473 C487 1.257 . S
O474 Tb456 2.349 . S
O474 C458 1.261 . S
O475 Tb457 2.303 . S
O475 C458 1.257 . S
C476 O466 1.236 . S
C476 O467 1.257 . S
O477 Tb456 2.415 . S
O477 C465 1.239 . S
O478 Tb456 2.399 . S
O478 C465 1.263 . S
C479 O468 1.261 . S
C479 O469 1.257 . S
C480 C483 1.358 . S
C480 C484 1.332 . S
C480 C486 1.504 . S
C481 C482 1.373 . S
C481 C485 1.308 . S
C482 C481 1.373 . S
C482 C483 1.429 . S
C482 H492 0.932 . S
C483 C480 1.358 . S
C483 C482 1.429 . S
C483 H493 0.930 . S
C484 C480 1.332 . S
C484 C485 1.394 . S
C484 H494 0.932 . S
C485 C481 1.308 . S
C485 C484 1.394 . S
C485 H495 0.929 . S
C486 Tb457 2.764 . S
C486 O470 1.239 . S
C486 O471 1.263 . S
C486 C480 1.504 . S
C487 O472 1.236 . S
C487 O473 1.257 . S
H488 C461 0.932 . S
H489 C462 0.930 . S
H490 C463 0.932 . S
H491 C464 0.929 . S
H492 C482 0.932 . S
H493 C483 0.930 . S
H494 C484 0.932 . S
H495 C485 0.929 . S
Tb496 C505 2.764 . S
Tb496 O506 2.325 . S
Tb496 O509 2.303 . S
Tb496 O513 2.322 . S
Tb496 O514 2.349 . S
Tb496 O517 2.415 . S
Tb496 O518 2.399 . S
Tb497 O507 2.322 1_545 S
Tb497 O508 2.349 . S
Tb497 O510 2.415 . S
Tb497 O511 2.399 . S
Tb497 O512 2.325 . S
Tb497 O515 2.303 . S
Tb497 C526 2.764 . S
C498 O514 1.261 . S
C498 O515 1.257 . S
C499 C502 1.358 . S
C499 C503 1.332 . S
C499 C505 1.504 . S
C500 C501 1.373 . S
C500 C504 1.308 . S
C501 C500 1.373 . S
C501 C502 1.429 . S
C501 H528 0.932 . S
C502 C499 1.358 . S
C502 C501 1.429 . S
C502 H529 0.930 . S
C503 C499 1.332 . S
C503 C504 1.394 . S
C503 H530 0.932 . S
C504 C500 1.308 . S
C504 C503 1.394 . S
C504 H531 0.929 . S
C505 Tb496 2.764 . S
C505 C499 1.504 . S
C505 O517 1.239 . S
C505 O518 1.263 . S
O506 Tb496 2.325 . S
O506 C516 1.236 1_545 S
O507 Tb497 2.322 1_565 S
O507 C516 1.257 . S
O508 Tb497 2.349 . S
O508 C519 1.261 . S
O509 Tb496 2.303 . S
O509 C519 1.257 . S
O510 Tb497 2.415 . S
O510 C526 1.239 . S
O511 Tb497 2.399 . S
O511 C526 1.263 . S
O512 Tb497 2.325 . S
O512 C527 1.236 . S
O513 Tb496 2.322 . S
O513 C527 1.257 . S
O514 Tb496 2.349 . S
O514 C498 1.261 . S
O515 Tb497 2.303 . S
O515 C498 1.257 . S
C516 O506 1.236 1_565 S
C516 O507 1.257 . S
O517 Tb496 2.415 . S
O517 C505 1.239 . S
O518 Tb496 2.399 . S
O518 C505 1.263 . S
C519 O508 1.261 . S
C519 O509 1.257 . S
C520 C523 1.358 . S
C520 C524 1.337 . S
C520 C526 1.504 . S
C521 C522 1.373 . S
C521 C525 1.308 1_455 S
C522 C521 1.373 . S
C522 C523 1.429 . S
C522 H532 0.932 . S
C523 C520 1.358 . S
C523 C522 1.429 . S
C523 H533 0.930 . S
C524 C520 1.337 . S
C524 C525 1.393 1_455 S
C524 H534 0.928 1_455 S
C525 C521 1.308 1_655 S
C525 C524 1.393 1_655 S
C525 H535 0.929 . S
C526 Tb497 2.764 . S
C526 O510 1.239 . S
C526 O511 1.263 . S
C526 C520 1.504 . S
C527 O512 1.236 . S
C527 O513 1.257 . S
H528 C501 0.932 . S
H529 C502 0.930 . S
H530 C503 0.932 . S
H531 C504 0.929 . S
H532 C522 0.932 . S
H533 C523 0.930 . S
H534 C524 0.928 1_655 S
H535 C525 0.929 . S
Tb536 C545 2.764 . S
Tb536 O546 2.325 . S
Tb536 O549 2.303 . S
Tb536 O553 2.322 . S
Tb536 O554 2.349 . S
Tb536 O557 2.415 . S
Tb536 O558 2.399 . S
Tb537 O547 2.322 . S
Tb537 O548 2.349 . S
Tb537 O550 2.415 . S
Tb537 O551 2.399 . S
Tb537 O552 2.325 . S
Tb537 O555 2.303 . S
Tb537 C566 2.764 . S
C538 O554 1.261 . S
C538 O555 1.257 . S
C539 C542 1.358 . S
C539 C543 1.332 . S
C539 C545 1.504 . S
C540 C541 1.373 . S
C540 C544 1.308 . S
C541 C540 1.373 . S
C541 C542 1.429 . S
C541 H568 0.932 . S
C542 C539 1.358 . S
C542 C541 1.429 . S
C542 H569 0.930 . S
C543 C539 1.332 . S
C543 C544 1.394 . S
C543 H570 0.932 . S
C544 C540 1.308 . S
C544 C543 1.394 . S
C544 H571 0.929 . S
C545 Tb536 2.764 . S
C545 C539 1.504 . S
C545 O557 1.239 . S
C545 O558 1.263 . S
O546 Tb536 2.325 . S
O546 C556 1.236 . S
O547 Tb537 2.322 . S
O547 C556 1.257 . S
O548 Tb537 2.349 . S
O548 C559 1.261 . S
O549 Tb536 2.303 . S
O549 C559 1.257 . S
O550 Tb537 2.415 . S
O550 C566 1.239 . S
O551 Tb537 2.399 . S
O551 C566 1.263 . S
O552 Tb537 2.325 . S
O552 C567 1.236 . S
O553 Tb536 2.322 . S
O553 C567 1.257 . S
O554 Tb536 2.349 . S
O554 C538 1.261 . S
O555 Tb537 2.303 . S
O555 C538 1.257 . S
C556 O546 1.236 . S
C556 O547 1.257 . S
O557 Tb536 2.415 . S
O557 C545 1.239 . S
O558 Tb536 2.399 . S
O558 C545 1.263 . S
C559 O548 1.261 . S
C559 O549 1.257 . S
C560 C563 1.358 . S
C560 C564 1.332 . S
C560 C566 1.504 . S
C561 C562 1.373 . S
C561 C565 1.308 . S
C562 C561 1.373 . S
C562 C563 1.429 . S
C562 H572 0.932 . S
C563 C560 1.358 . S
C563 C562 1.429 . S
C563 H573 0.930 . S
C564 C560 1.332 . S
C564 C565 1.394 . S
C564 H574 0.932 . S
C565 C561 1.308 . S
C565 C564 1.394 . S
C565 H575 0.929 . S
C566 Tb537 2.764 . S
C566 O550 1.239 . S
C566 O551 1.263 . S
C566 C560 1.504 . S
C567 O552 1.236 . S
C567 O553 1.257 . S
H568 C541 0.932 . S
H569 C542 0.930 . S
H570 C543 0.932 . S
H571 C544 0.929 . S
H572 C562 0.932 . S
H573 C563 0.930 . S
H574 C564 0.932 . S
H575 C565 0.929 . S
Tb576 C585 2.764 . S
Tb576 O586 2.325 . S
Tb576 O589 2.303 . S
Tb576 O593 2.322 1_545 S
Tb576 O594 2.349 . S
Tb576 O597 2.415 . S
Tb576 O598 2.399 . S
Tb577 O587 2.322 . S
Tb577 O588 2.349 . S
Tb577 O590 2.415 1_554 S
Tb577 O591 2.399 1_554 S
Tb577 O592 2.325 1_554 S
Tb577 O595 2.303 . S
Tb577 C606 2.764 1_554 S
C578 O594 1.261 . S
C578 O595 1.257 . S
C579 C582 1.358 . S
C579 C583 1.332 . S
C579 C585 1.504 . S
C580 C581 1.373 . S
C580 C584 1.308 . S
C581 C580 1.373 . S
C581 C582 1.429 . S
C581 H608 0.932 . S
C582 C579 1.358 . S
C582 C581 1.429 . S
C582 H609 0.930 . S
C583 C579 1.332 . S
C583 C584 1.394 . S
C583 H610 0.932 . S
C584 C580 1.308 . S
C584 C583 1.394 . S
C584 H611 0.929 . S
C585 Tb576 2.764 . S
C585 C579 1.504 . S
C585 O597 1.239 . S
C585 O598 1.263 . S
O586 Tb576 2.325 . S
O586 C596 1.236 . S
O587 Tb577 2.322 . S
O587 C596 1.257 . S
O588 Tb577 2.349 . S
O588 C599 1.261 . S
O589 Tb576 2.303 . S
O589 C599 1.257 . S
O590 Tb577 2.415 1_556 S
O590 C606 1.239 . S
O591 Tb577 2.399 1_556 S
O591 C606 1.263 . S
O592 Tb577 2.325 1_556 S
O592 C607 1.236 1_546 S
O593 Tb576 2.322 1_565 S
O593 C607 1.257 . S
O594 Tb576 2.349 . S
O594 C578 1.261 . S
O595 Tb577 2.303 . S
O595 C578 1.257 . S
C596 O586 1.236 . S
C596 O587 1.257 . S
O597 Tb576 2.415 . S
O597 C585 1.239 . S
O598 Tb576 2.399 . S
O598 C585 1.263 . S
C599 O588 1.261 . S
C599 O589 1.257 . S
C600 C603 1.358 . S
C600 C604 1.332 . S
C600 C606 1.504 . S
C601 C602 1.373 . S
C601 C605 1.308 . S
C602 C601 1.373 . S
C602 C603 1.429 . S
C602 H612 0.932 . S
C603 C600 1.358 . S
C603 C602 1.429 . S
C603 H613 0.930 . S
C604 C600 1.332 . S
C604 C605 1.394 . S
C604 H614 0.932 . S
C605 C601 1.308 . S
C605 C604 1.394 . S
C605 H615 0.929 . S
C606 Tb577 2.764 1_556 S
C606 O590 1.239 . S
C606 O591 1.263 . S
C606 C600 1.504 . S
C607 O592 1.236 1_564 S
C607 O593 1.257 . S
H608 C581 0.932 . S
H609 C582 0.930 . S
H610 C583 0.932 . S
H611 C584 0.929 . S
H612 C602 0.932 . S
H613 C603 0.930 . S
H614 C604 0.932 . S
H615 C605 0.929 . S
Tb616 C625 2.764 . S
Tb616 O626 2.325 . S
Tb616 O629 2.303 . S
Tb616 O633 2.322 . S
Tb616 O634 2.349 . S
Tb616 O637 2.415 . S
Tb616 O638 2.399 . S
Tb617 O627 2.322 . S
Tb617 O628 2.349 . S
Tb617 O630 2.415 . S
Tb617 O631 2.399 . S
Tb617 O632 2.325 . S
Tb617 O635 2.303 . S
Tb617 C646 2.764 . S
C618 O634 1.261 . S
C618 O635 1.257 . S
C619 C622 1.358 . S
C619 C623 1.332 . S
C619 C625 1.504 . S
C620 C621 1.373 . S
C620 C624 1.308 . S
C621 C620 1.373 . S
C621 C622 1.429 . S
C621 H648 0.932 . S
C622 C619 1.358 . S
C622 C621 1.429 . S
C622 H649 0.930 . S
C623 C619 1.332 . S
C623 C624 1.394 . S
C623 H650 0.932 . S
C624 C620 1.308 . S
C624 C623 1.394 . S
C624 H651 0.929 . S
C625 Tb616 2.764 . S
C625 C619 1.504 . S
C625 O637 1.239 . S
C625 O638 1.263 . S
O626 Tb616 2.325 . S
O626 C636 1.236 . S
O627 Tb617 2.322 . S
O627 C636 1.257 . S
O628 Tb617 2.349 . S
O628 C639 1.261 . S
O629 Tb616 2.303 . S
O629 C639 1.257 . S
O630 Tb617 2.415 . S
O630 C646 1.239 . S
O631 Tb617 2.399 . S
O631 C646 1.263 . S
O632 Tb617 2.325 . S
O632 C647 1.236 . S
O633 Tb616 2.322 . S
O633 C647 1.257 . S
O634 Tb616 2.349 . S
O634 C618 1.261 . S
O635 Tb617 2.303 . S
O635 C618 1.257 . S
C636 O626 1.236 . S
C636 O627 1.257 . S
O637 Tb616 2.415 . S
O637 C625 1.239 . S
O638 Tb616 2.399 . S
O638 C625 1.263 . S
C639 O628 1.261 . S
C639 O629 1.257 . S
C640 C643 1.358 . S
C640 C644 1.332 . S
C640 C646 1.504 . S
C641 C642 1.373 . S
C641 C645 1.308 . S
C642 C641 1.373 . S
C642 C643 1.429 . S
C642 H652 0.932 . S
C643 C640 1.358 . S
C643 C642 1.429 . S
C643 H653 0.930 . S
C644 C640 1.332 . S
C644 C645 1.394 . S
C644 H654 0.932 . S
C645 C641 1.308 . S
C645 C644 1.394 . S
C645 H655 0.929 . S
C646 Tb617 2.764 . S
C646 O630 1.239 . S
C646 O631 1.263 . S
C646 C640 1.504 . S
C647 O632 1.236 . S
C647 O633 1.257 . S
H648 C621 0.932 . S
H649 C622 0.930 . S
H650 C623 0.932 . S
H651 C624 0.929 . S
H652 C642 0.932 . S
H653 C643 0.930 . S
H654 C644 0.932 . S
H655 C645 0.929 . S
Tb656 C665 2.764 . S
Tb656 O666 2.325 . S
Tb656 O669 2.303 . S
Tb656 O673 2.322 . S
Tb656 O674 2.349 . S
Tb656 O677 2.415 . S
Tb656 O678 2.399 . S
Tb657 O667 2.322 . S
Tb657 O668 2.349 . S
Tb657 O670 2.415 1_554 S
Tb657 O671 2.399 1_554 S
Tb657 O672 2.327 . S
Tb657 O675 2.303 . S
Tb657 C686 2.764 1_554 S
C658 O674 1.261 . S
C658 O675 1.257 . S
C659 C662 1.358 . S
C659 C663 1.332 . S
C659 C665 1.504 . S
C660 C661 1.373 . S
C660 C664 1.308 . S
C661 C660 1.373 . S
C661 C662 1.429 . S
C661 H688 0.932 . S
C662 C659 1.358 . S
C662 C661 1.429 . S
C662 H689 0.930 . S
C663 C659 1.332 . S
C663 C664 1.394 . S
C663 H690 0.932 . S
C664 C660 1.308 . S
C664 C663 1.394 . S
C664 H691 0.929 . S
C665 Tb656 2.764 . S
C665 C659 1.504 . S
C665 O677 1.239 . S
C665 O678 1.263 . S
O666 Tb656 2.325 . S
O666 C676 1.236 . S
O667 Tb657 2.322 . S
O667 C676 1.257 . S
O668 Tb657 2.349 . S
O668 C679 1.261 . S
O669 Tb656 2.303 . S
O669 C679 1.257 . S
O670 Tb657 2.415 1_556 S
O670 C686 1.239 . S
O671 Tb657 2.399 1_556 S
O671 C686 1.263 . S
O672 Tb657 2.327 . S
O672 C687 1.245 . S
O673 Tb656 2.322 . S
O673 C687 1.257 . S
O674 Tb656 2.349 . S
O674 C658 1.261 . S
O675 Tb657 2.303 . S
O675 C658 1.257 . S
C676 O666 1.236 . S
C676 O667 1.257 . S
O677 Tb656 2.415 . S
O677 C665 1.239 . S
O678 Tb656 2.399 . S
O678 C665 1.263 . S
C679 O668 1.261 . S
C679 O669 1.257 . S
C680 C683 1.358 . S
C680 C684 1.332 . S
C680 C686 1.504 . S
C681 C682 1.373 . S
C681 C685 1.308 . S
C682 C681 1.373 . S
C682 C683 1.429 . S
C682 H692 0.932 . S
C683 C680 1.358 . S
C683 C682 1.429 . S
C683 H693 0.930 . S
C684 C680 1.332 . S
C684 C685 1.394 . S
C684 H694 0.932 . S
C685 C681 1.308 . S
C685 C684 1.394 . S
C685 H695 0.929 . S
C686 Tb657 2.764 1_556 S
C686 O670 1.239 . S
C686 O671 1.263 . S
C686 C680 1.504 . S
C687 O672 1.245 . S
C687 O673 1.257 . S
H688 C661 0.932 . S
H689 C662 0.930 . S
H690 C663 0.932 . S
H691 C664 0.929 . S
H692 C682 0.932 . S
H693 C683 0.930 . S
H694 C684 0.932 . S
H695 C685 0.929 . S
Tb696 C705 2.764 . S
Tb696 O706 2.325 . S
Tb696 O709 2.303 . S
Tb696 O713 2.322 . S
Tb696 O714 2.349 . S
Tb696 O717 2.415 . S
Tb696 O718 2.399 . S
Tb697 O707 2.322 . S
Tb697 O708 2.349 . S
Tb697 O710 2.415 . S
Tb697 O711 2.399 . S
Tb697 O712 2.325 . S
Tb697 O715 2.303 . S
Tb697 C726 2.764 . S
C698 O714 1.261 . S
C698 O715 1.257 . S
C699 C702 1.358 . S
C699 C703 1.332 . S
C699 C705 1.504 . S
C700 C701 1.373 . S
C700 C704 1.308 . S
C701 C700 1.373 . S
C701 C702 1.429 . S
C701 H728 0.932 . S
C702 C699 1.358 . S
C702 C701 1.429 . S
C702 H729 0.930 . S
C703 C699 1.332 . S
C703 C704 1.394 . S
C703 H730 0.932 . S
C704 C700 1.308 . S
C704 C703 1.394 . S
C704 H731 0.929 . S
C705 Tb696 2.764 . S
C705 C699 1.504 . S
C705 O717 1.239 . S
C705 O718 1.263 . S
O706 Tb696 2.325 . S
O706 C716 1.236 . S
O707 Tb697 2.322 . S
O707 C716 1.257 . S
O708 Tb697 2.349 . S
O708 C719 1.261 . S
O709 Tb696 2.303 . S
O709 C719 1.257 . S
O710 Tb697 2.415 . S
O710 C726 1.239 . S
O711 Tb697 2.399 . S
O711 C726 1.263 . S
O712 Tb697 2.325 . S
O712 C727 1.236 . S
O713 Tb696 2.322 . S
O713 C727 1.257 . S
O714 Tb696 2.349 . S
O714 C698 1.261 . S
O715 Tb697 2.303 . S
O715 C698 1.257 . S
C716 O706 1.236 . S
C716 O707 1.257 . S
O717 Tb696 2.415 . S
O717 C705 1.239 . S
O718 Tb696 2.399 . S
O718 C705 1.263 . S
C719 O708 1.261 . S
C719 O709 1.257 . S
C720 C723 1.358 . S
C720 C724 1.332 . S
C720 C726 1.504 . S
C721 C722 1.373 . S
C721 C725 1.308 . S
C722 C721 1.373 . S
C722 C723 1.429 . S
C722 H732 0.932 . S
C723 C720 1.358 . S
C723 C722 1.429 . S
C723 H733 0.930 . S
C724 C720 1.332 . S
C724 C725 1.394 . S
C724 H734 0.932 . S
C725 C721 1.308 . S
C725 C724 1.394 . S
C725 H735 0.929 . S
C726 Tb697 2.764 . S
C726 O710 1.239 . S
C726 O711 1.263 . S
C726 C720 1.504 . S
C727 O712 1.236 . S
C727 O713 1.257 . S
H728 C701 0.932 . S
H729 C702 0.930 . S
H730 C703 0.932 . S
H731 C704 0.929 . S
H732 C722 0.932 . S
H733 C723 0.930 . S
H734 C724 0.932 . S
H735 C725 0.929 . S
Tb736 C745 2.764 . S
Tb736 O746 2.325 . S
Tb736 O749 2.303 . S
Tb736 O753 2.322 . S
Tb736 O754 2.349 . S
Tb736 O757 2.415 . S
Tb736 O758 2.399 . S
Tb737 O747 2.322 . S
Tb737 O748 2.349 . S
Tb737 O750 2.415 . S
Tb737 O751 2.399 . S
Tb737 O752 2.325 . S
Tb737 O755 2.303 . S
Tb737 C766 2.764 . S
C738 O754 1.261 . S
C738 O755 1.257 . S
C739 C742 1.358 . S
C739 C743 1.332 . S
C739 C745 1.504 . S
C740 C741 1.373 . S
C740 C744 1.308 1_455 S
C741 C740 1.373 . S
C741 C742 1.429 . S
C741 H768 0.932 . S
C742 C739 1.358 . S
C742 C741 1.429 . S
C742 H769 0.930 . S
C743 C739 1.332 . S
C743 C744 1.394 1_455 S
C743 H770 0.932 1_455 S
C744 C740 1.308 1_655 S
C744 C743 1.394 1_655 S
C744 H771 0.929 . S
C745 Tb736 2.764 . S
C745 C739 1.504 . S
C745 O757 1.239 . S
C745 O758 1.263 . S
O746 Tb736 2.325 . S
O746 C756 1.236 . S
O747 Tb737 2.322 . S
O747 C756 1.257 . S
O748 Tb737 2.349 . S
O748 C759 1.261 1_455 S
O749 Tb736 2.303 . S
O749 C759 1.257 1_455 S
O750 Tb737 2.415 . S
O750 C766 1.239 . S
O751 Tb737 2.399 . S
O751 C766 1.263 . S
O752 Tb737 2.325 . S
O752 C767 1.236 . S
O753 Tb736 2.322 . S
O753 C767 1.257 . S
O754 Tb736 2.349 . S
O754 C738 1.261 . S
O755 Tb737 2.303 . S
O755 C738 1.257 . S
C756 O746 1.236 . S
C756 O747 1.257 . S
O757 Tb736 2.415 . S
O757 C745 1.239 . S
O758 Tb736 2.399 . S
O758 C745 1.263 . S
C759 O748 1.261 1_655 S
C759 O749 1.257 1_655 S
C760 C763 1.358 . S
C760 C764 1.332 . S
C760 C766 1.504 . S
C761 C762 1.373 . S
C761 C765 1.308 . S
C762 C761 1.373 . S
C762 C763 1.429 . S
C762 H772 0.932 . S
C763 C760 1.358 . S
C763 C762 1.429 . S
C763 H773 0.930 . S
C764 C760 1.332 . S
C764 C765 1.394 . S
C764 H774 0.932 . S
C765 C761 1.308 . S
C765 C764 1.394 . S
C765 H775 0.929 . S
C766 Tb737 2.764 . S
C766 O750 1.239 . S
C766 O751 1.263 . S
C766 C760 1.504 . S
C767 O752 1.236 . S
C767 O753 1.257 . S
H768 C741 0.932 . S
H769 C742 0.930 . S
H770 C743 0.932 1_655 S
H771 C744 0.929 . S
H772 C762 0.932 . S
H773 C763 0.930 . S
H774 C764 0.932 . S
H775 C765 0.929 . S
Tb776 C785 2.764 . S
Tb776 O786 2.325 . S
Tb776 O789 2.303 . S
Tb776 O793 2.322 . S
Tb776 O794 2.349 . S
Tb776 O797 2.415 . S
Tb776 O798 2.399 . S
Tb777 O787 2.322 . S
Tb777 O788 2.349 . S
Tb777 O790 2.415 . S
Tb777 O791 2.399 . S
Tb777 O792 2.325 . S
Tb777 O795 2.303 . S
Tb777 C806 2.764 . S
C778 O794 1.261 . S
C778 O795 1.257 . S
C779 C782 1.358 . S
C779 C783 1.332 . S
C779 C785 1.504 . S
C780 C781 1.373 . S
C780 C784 1.308 . S
C781 C780 1.373 . S
C781 C782 1.429 . S
C781 H808 0.932 . S
C782 C779 1.358 . S
C782 C781 1.429 . S
C782 H809 0.930 . S
C783 C779 1.332 . S
C783 C784 1.394 . S
C783 H810 0.932 . S
C784 C780 1.308 . S
C784 C783 1.394 . S
C784 H811 0.929 . S
C785 Tb776 2.764 . S
C785 C779 1.504 . S
C785 O797 1.239 . S
C785 O798 1.263 . S
O786 Tb776 2.325 . S
O786 C796 1.236 . S
O787 Tb777 2.322 . S
O787 C796 1.257 . S
O788 Tb777 2.349 . S
O788 C799 1.261 . S
O789 Tb776 2.303 . S
O789 C799 1.257 . S
O790 Tb777 2.415 . S
O790 C806 1.239 . S
O791 Tb777 2.399 . S
O791 C806 1.263 . S
O792 Tb777 2.325 . S
O792 C807 1.236 . S
O793 Tb776 2.322 . S
O793 C807 1.257 . S
O794 Tb776 2.349 . S
O794 C778 1.261 . S
O795 Tb777 2.303 . S
O795 C778 1.257 . S
C796 O786 1.236 . S
C796 O787 1.257 . S
O797 Tb776 2.415 . S
O797 C785 1.239 . S
O798 Tb776 2.399 . S
O798 C785 1.263 . S
C799 O788 1.261 . S
C799 O789 1.257 . S
C800 C803 1.358 . S
C800 C804 1.332 . S
C800 C806 1.504 . S
C801 C802 1.373 . S
C801 C805 1.308 . S
C802 C801 1.373 . S
C802 C803 1.429 . S
C802 H812 0.932 . S
C803 C800 1.358 . S
C803 C802 1.429 . S
C803 H813 0.930 . S
C804 C800 1.332 . S
C804 C805 1.394 . S
C804 H814 0.932 . S
C805 C801 1.308 . S
C805 C804 1.394 . S
C805 H815 0.929 . S
C806 Tb777 2.764 . S
C806 O790 1.239 . S
C806 O791 1.263 . S
C806 C800 1.504 . S
C807 O792 1.236 . S
C807 O793 1.257 . S
H808 C781 0.932 . S
H809 C782 0.930 . S
H810 C783 0.932 . S
H811 C784 0.929 . S
H812 C802 0.932 . S
H813 C803 0.930 . S
H814 C804 0.932 . S
H815 C805 0.929 . S
Tb816 C825 2.764 . S
Tb816 O826 2.325 . S
Tb816 O829 2.303 . S
Tb816 O833 2.322 . S
Tb816 O834 2.349 . S
Tb816 O837 2.415 . S
Tb816 O838 2.399 . S
Tb817 O827 2.322 . S
Tb817 O828 2.349 . S
Tb817 O830 2.415 . S
Tb817 O831 2.399 . S
Tb817 O832 2.325 . S
Tb817 O835 2.303 . S
Tb817 C846 2.764 . S
C818 O834 1.261 . S
C818 O835 1.257 . S
C819 C822 1.358 . S
C819 C823 1.332 . S
C819 C825 1.504 . S
C820 C821 1.373 . S
C820 C824 1.308 . S
C821 C820 1.373 . S
C821 C822 1.429 . S
C821 H848 0.932 . S
C822 C819 1.358 . S
C822 C821 1.429 . S
C822 H849 0.930 . S
C823 C819 1.332 . S
C823 C824 1.394 . S
C823 H850 0.932 . S
C824 C820 1.308 . S
C824 C823 1.394 . S
C824 H851 0.929 . S
C825 Tb816 2.764 . S
C825 C819 1.504 . S
C825 O837 1.239 . S
C825 O838 1.263 . S
O826 Tb816 2.325 . S
O826 C836 1.236 . S
O827 Tb817 2.322 . S
O827 C836 1.257 . S
O828 Tb817 2.349 . S
O828 C839 1.261 . S
O829 Tb816 2.303 . S
O829 C839 1.257 . S
O830 Tb817 2.415 . S
O830 C846 1.239 . S
O831 Tb817 2.399 . S
O831 C846 1.263 . S
O832 Tb817 2.325 . S
O832 C847 1.236 . S
O833 Tb816 2.322 . S
O833 C847 1.257 . S
O834 Tb816 2.349 . S
O834 C818 1.261 . S
O835 Tb817 2.303 . S
O835 C818 1.257 . S
C836 O826 1.236 . S
C836 O827 1.257 . S
O837 Tb816 2.415 . S
O837 C825 1.239 . S
O838 Tb816 2.399 . S
O838 C825 1.263 . S
C839 O828 1.261 . S
C839 O829 1.257 . S
C840 C843 1.358 . S
C840 C844 1.332 . S
C840 C846 1.504 . S
C841 C842 1.373 . S
C841 C845 1.308 . S
C842 C841 1.373 . S
C842 C843 1.429 . S
C842 H852 0.932 . S
C843 C840 1.358 . S
C843 C842 1.429 . S
C843 H853 0.930 . S
C844 C840 1.332 . S
C844 C845 1.394 . S
C844 H854 0.932 . S
C845 C841 1.308 . S
C845 C844 1.394 . S
C845 H855 0.929 . S
C846 Tb817 2.764 . S
C846 O830 1.239 . S
C846 O831 1.263 . S
C846 C840 1.504 . S
C847 O832 1.236 . S
C847 O833 1.257 . S
H848 C821 0.932 . S
H849 C822 0.930 . S
H850 C823 0.932 . S
H851 C824 0.929 . S
H852 C842 0.932 . S
H853 C843 0.930 . S
H854 C844 0.932 . S
H855 C845 0.929 . S
Tb856 C865 2.764 . S
Tb856 O866 2.325 . S
Tb856 O869 2.303 . S
Tb856 O873 2.322 . S
Tb856 O874 2.349 . S
Tb856 O877 2.415 . S
Tb856 O878 2.399 . S
Tb857 O867 2.322 . S
Tb857 O868 2.349 . S
Tb857 O870 2.415 . S
Tb857 O871 2.399 . S
Tb857 O872 2.325 . S
Tb857 O875 2.303 . S
Tb857 C886 2.764 . S
C858 O874 1.261 . S
C858 O875 1.257 . S
C859 C862 1.358 . S
C859 C863 1.332 . S
C859 C865 1.504 . S
C860 C861 1.373 . S
C860 C864 1.308 . S
C861 C860 1.373 . S
C861 C862 1.429 . S
C861 H888 0.932 . S
C862 C859 1.358 . S
C862 C861 1.429 . S
C862 H889 0.930 . S
C863 C859 1.332 . S
C863 C864 1.394 . S
C863 H890 0.932 . S
C864 C860 1.308 . S
C864 C863 1.394 . S
C864 H891 0.929 . S
C865 Tb856 2.764 . S
C865 C859 1.504 . S
C865 O877 1.239 . S
C865 O878 1.263 . S
O866 Tb856 2.325 . S
O866 C876 1.236 . S
O867 Tb857 2.322 . S
O867 C876 1.257 . S
O868 Tb857 2.349 . S
O868 C879 1.261 . S
O869 Tb856 2.303 . S
O869 C879 1.257 . S
O870 Tb857 2.415 . S
O870 C886 1.239 . S
O871 Tb857 2.399 . S
O871 C886 1.263 . S
O872 Tb857 2.325 . S
O872 C887 1.236 . S
O873 Tb856 2.322 . S
O873 C887 1.257 . S
O874 Tb856 2.349 . S
O874 C858 1.261 . S
O875 Tb857 2.303 . S
O875 C858 1.257 . S
C876 O866 1.236 . S
C876 O867 1.257 . S
O877 Tb856 2.415 . S
O877 C865 1.239 . S
O878 Tb856 2.399 . S
O878 C865 1.263 . S
C879 O868 1.261 . S
C879 O869 1.257 . S
C880 C883 1.358 . S
C880 C884 1.332 . S
C880 C886 1.504 . S
C881 C882 1.373 . S
C881 C885 1.308 . S
C882 C881 1.373 . S
C882 C883 1.429 . S
C882 H892 0.932 . S
C883 C880 1.358 . S
C883 C882 1.429 . S
C883 H893 0.930 . S
C884 C880 1.332 . S
C884 C885 1.394 . S
C884 H894 0.932 . S
C885 C881 1.308 . S
C885 C884 1.394 . S
C885 H895 0.929 . S
C886 Tb857 2.764 . S
C886 O870 1.239 . S
C886 O871 1.263 . S
C886 C880 1.504 . S
C887 O872 1.236 . S
C887 O873 1.257 . S
H888 C861 0.932 . S
H889 C862 0.930 . S
H890 C863 0.932 . S
H891 C864 0.929 . S
H892 C882 0.932 . S
H893 C883 0.930 . S
H894 C884 0.932 . S
H895 C885 0.929 . S
Tb896 C905 2.764 . S
Tb896 O906 2.325 . S
Tb896 O909 2.303 . S
Tb896 O913 2.322 . S
Tb896 O914 2.349 . S
Tb896 O917 2.415 . S
Tb896 O918 2.399 . S
Tb897 O907 2.322 . S
Tb897 O908 2.349 . S
Tb897 O910 2.415 . S
Tb897 O911 2.399 . S
Tb897 O912 2.325 . S
Tb897 O915 2.303 . S
Tb897 C926 2.764 . S
C898 O914 1.261 . S
C898 O915 1.257 . S
C899 C902 1.358 . S
C899 C903 1.332 . S
C899 C905 1.504 . S
C900 C901 1.373 . S
C900 C904 1.308 . S
C901 C900 1.373 . S
C901 C902 1.429 . S
C901 H928 0.932 . S
C902 C899 1.358 . S
C902 C901 1.429 . S
C902 H929 0.930 . S
C903 C899 1.332 . S
C903 C904 1.394 . S
C903 H930 0.932 . S
C904 C900 1.308 . S
C904 C903 1.394 . S
C904 H931 0.929 . S
C905 Tb896 2.764 . S
C905 C899 1.504 . S
C905 O917 1.239 . S
C905 O918 1.263 . S
O906 Tb896 2.325 . S
O906 C916 1.236 . S
O907 Tb897 2.322 . S
O907 C916 1.257 . S
O908 Tb897 2.349 . S
O908 C919 1.261 . S
O909 Tb896 2.303 . S
O909 C919 1.257 . S
O910 Tb897 2.415 . S
O910 C926 1.239 . S
O911 Tb897 2.399 . S
O911 C926 1.263 . S
O912 Tb897 2.325 . S
O912 C927 1.236 . S
O913 Tb896 2.322 . S
O913 C927 1.257 . S
O914 Tb896 2.349 . S
O914 C898 1.261 . S
O915 Tb897 2.303 . S
O915 C898 1.257 . S
C916 O906 1.236 . S
C916 O907 1.257 . S
O917 Tb896 2.415 . S
O917 C905 1.239 . S
O918 Tb896 2.399 . S
O918 C905 1.263 . S
C919 O908 1.261 . S
C919 O909 1.257 . S
C920 C923 1.358 . S
C920 C924 1.332 . S
C920 C926 1.504 . S
C921 C922 1.373 . S
C921 C925 1.308 . S
C922 C921 1.373 . S
C922 C923 1.429 . S
C922 H932 0.932 . S
C923 C920 1.358 . S
C923 C922 1.429 . S
C923 H933 0.930 . S
C924 C920 1.332 . S
C924 C925 1.394 . S
C924 H934 0.932 . S
C925 C921 1.308 . S
C925 C924 1.394 . S
C925 H935 0.929 . S
C926 Tb897 2.764 . S
C926 O910 1.239 . S
C926 O911 1.263 . S
C926 C920 1.504 . S
C927 O912 1.236 . S
C927 O913 1.257 . S
H928 C901 0.932 . S
H929 C902 0.930 . S
H930 C903 0.932 . S
H931 C904 0.929 . S
H932 C922 0.932 . S
H933 C923 0.930 . S
H934 C924 0.932 . S
H935 C925 0.929 . S
Tb936 C945 2.764 1_455 S
Tb936 O946 2.325 . S
Tb936 O949 2.303 . S
Tb936 O953 2.322 . S
Tb936 O954 2.349 . S
Tb936 O957 2.415 1_455 S
Tb936 O958 2.399 1_455 S
Tb937 O947 2.322 . S
Tb937 O948 2.349 1_554 S
Tb937 O950 2.415 . S
Tb937 O951 2.399 . S
Tb937 O952 2.325 . S
Tb937 O955 2.303 . S
Tb937 C966 2.764 . S
C938 O954 1.261 . S
C938 O955 1.257 . S
C939 C942 1.358 . S
C939 C943 1.332 . S
C939 C945 1.504 . S
C940 C941 1.373 . S
C940 C944 1.308 . S
C941 C940 1.373 . S
C941 C942 1.429 . S
C941 H968 0.932 . S
C942 C939 1.358 . S
C942 C941 1.429 . S
C942 H969 0.930 . S
C943 C939 1.332 . S
C943 C944 1.394 . S
C943 H970 0.932 . S
C944 C940 1.308 . S
C944 C943 1.394 . S
C944 H971 0.929 . S
C945 Tb936 2.764 1_655 S
C945 C939 1.504 . S
C945 O957 1.239 . S
C945 O958 1.263 . S
O946 Tb936 2.325 . S
O946 C956 1.236 . S
O947 Tb937 2.322 . S
O947 C956 1.257 . S
O948 Tb937 2.349 1_556 S
O948 C959 1.261 . S
O949 Tb936 2.303 . S
O949 C959 1.257 1_554 S
O950 Tb937 2.415 . S
O950 C966 1.239 . S
O951 Tb937 2.399 . S
O951 C966 1.263 . S
O952 Tb937 2.325 . S
O952 C967 1.236 . S
O953 Tb936 2.322 . S
O953 C967 1.257 . S
O954 Tb936 2.349 . S
O954 C938 1.261 . S
O955 Tb937 2.303 . S
O955 C938 1.257 . S
C956 O946 1.236 . S
C956 O947 1.257 . S
O957 Tb936 2.415 1_655 S
O957 C945 1.239 . S
O958 Tb936 2.399 1_655 S
O958 C945 1.263 . S
C959 O948 1.261 . S
C959 O949 1.257 1_556 S
C960 C963 1.358 1_554 S
C960 C964 1.332 . S
C960 C966 1.504 . S
C961 C962 1.373 1_554 S
C961 C965 1.308 . S
C962 C961 1.373 1_556 S
C962 C963 1.429 . S
C962 H972 0.932 . S
C963 C960 1.358 1_556 S
C963 C962 1.429 . S
C963 H973 0.930 . S
C964 C960 1.332 . S
C964 C965 1.394 . S
C964 H974 0.932 . S
C965 C961 1.308 . S
C965 C964 1.394 . S
C965 H975 0.929 . S
C966 Tb937 2.764 . S
C966 O950 1.239 . S
C966 O951 1.263 . S
C966 C960 1.504 . S
C967 O952 1.236 . S
C967 O953 1.257 . S
H968 C941 0.932 . S
H969 C942 0.930 . S
H970 C943 0.932 . S
H971 C944 0.929 . S
H972 C962 0.932 . S
H973 C963 0.930 . S
H974 C964 0.932 . S
H975 C965 0.929 . S
H976 C982 0.930 . S
H977 C986 0.936 . S
H978 C991 0.929 . S
H979 C989 0.929 . S
H980 C984 0.929 1_655 S
H981 C990 0.929 1_554 S
C982 H976 0.930 . S
C982 C983 1.398 . S
C982 C990 1.378 . S
C983 C982 1.398 . S
C983 C991 1.423 1_455 S
C984 H980 0.929 1_455 S
C984 C986 1.378 1_556 S
C984 C988 1.350 . S
C985 C988 1.463 . S
C985 C990 1.350 . S
C985 N993 1.427 1_455 S
C986 H977 0.936 . S
C986 C984 1.378 1_554 S
C986 C987 1.367 . S
C987 C986 1.367 . S
C987 C989 1.433 . S
C988 C984 1.350 . S
C988 C985 1.463 . S
C988 N992 1.427 1_556 S
C989 H979 0.929 . S
C989 C987 1.433 . S
C989 N992 1.384 . S
C990 H981 0.929 1_556 S
C990 C982 1.378 . S
C990 C985 1.350 . S
C991 H978 0.929 . S
C991 C983 1.423 1_655 S
C991 N993 1.384 . S
N992 C988 1.427 1_554 S
N992 C989 1.384 . S
N993 C985 1.427 1_655 S
N993 C991 1.384 . S
H994 C1000 0.930 . S
H995 C1004 0.930 . S
H996 C1009 0.929 . S
H997 C1007 0.929 . S
H998 C1002 0.929 . S
H999 C1008 0.929 . S
C1000 H994 0.930 . S
C1000 C1001 1.367 . S
C1000 C1008 1.378 . S
C1001 C1000 1.367 . S
C1001 C1009 1.433 . S
C1002 H998 0.929 . S
C1002 C1004 1.378 . S
C1002 C1006 1.350 . S
C1003 C1006 1.463 . S
C1003 C1008 1.350 . S
C1003 N1011 1.427 . S
C1004 H995 0.930 . S
C1004 C1002 1.378 . S
C1004 C1005 1.367 . S
C1005 C1004 1.367 . S
C1005 C1007 1.433 . S
C1006 C1002 1.350 . S
C1006 C1003 1.463 . S
C1006 N1010 1.427 . S
C1007 H997 0.929 . S
C1007 C1005 1.433 . S
C1007 N1010 1.384 . S
C1008 H999 0.929 . S
C1008 C1000 1.378 . S
C1008 C1003 1.350 . S
C1009 H996 0.929 . S
C1009 C1001 1.433 . S
C1009 N1011 1.384 . S
N1010 C1006 1.427 . S
N1010 C1007 1.384 . S
N1011 C1003 1.427 . S
N1011 C1009 1.384 . S
H1012 C1018 0.930 . S
H1013 C1022 0.930 . S
H1014 C1027 0.929 . S
H1015 C1025 0.929 . S
H1016 C1020 0.929 . S
H1017 C1026 0.929 . S
C1018 H1012 0.930 . S
C1018 C1019 1.367 . S
C1018 C1026 1.378 . S
C1019 C1018 1.367 . S
C1019 C1027 1.433 . S
C1020 H1016 0.929 . S
C1020 C1022 1.378 . S
C1020 C1024 1.350 . S
C1021 C1024 1.463 . S
C1021 C1026 1.350 . S
C1021 N1029 1.427 . S
C1022 H1013 0.930 . S
C1022 C1020 1.378 . S
C1022 C1023 1.367 . S
C1023 C1022 1.367 . S
C1023 C1025 1.433 . S
C1024 C1020 1.350 . S
C1024 C1021 1.463 . S
C1024 N1028 1.427 . S
C1025 H1015 0.929 . S
C1025 C1023 1.433 . S
C1025 N1028 1.384 . S
C1026 H1017 0.929 . S
C1026 C1018 1.378 . S
C1026 C1021 1.350 . S
C1027 H1014 0.929 . S
C1027 C1019 1.433 . S
C1027 N1029 1.384 . S
N1028 C1024 1.427 . S
N1028 C1025 1.384 . S
N1029 C1021 1.427 . S
N1029 C1027 1.384 . S
H1030 C1036 0.930 . S
H1031 C1040 0.930 . S
H1032 C1045 0.929 . S
H1033 C1043 0.929 . S
H1034 C1038 0.929 . S
H1035 C1044 0.929 . S
C1036 H1030 0.930 . S
C1036 C1037 1.367 . S
C1036 C1044 1.378 . S
C1037 C1036 1.367 . S
C1037 C1045 1.433 . S
C1038 H1034 0.929 . S
C1038 C1040 1.378 . S
C1038 C1042 1.350 . S
C1039 C1042 1.463 . S
C1039 C1044 1.350 . S
C1039 N1047 1.427 . S
C1040 H1031 0.930 . S
C1040 C1038 1.378 . S
C1040 C1041 1.367 . S
C1041 C1040 1.367 . S
C1041 C1043 1.433 . S
C1042 C1038 1.350 . S
C1042 C1039 1.463 . S
C1042 N1046 1.427 . S
C1043 H1033 0.929 . S
C1043 C1041 1.433 . S
C1043 N1046 1.384 . S
C1044 H1035 0.929 . S
C1044 C1036 1.378 . S
C1044 C1039 1.350 . S
C1045 H1032 0.929 . S
C1045 C1037 1.433 . S
C1045 N1047 1.384 . S
N1046 C1042 1.427 . S
N1046 C1043 1.384 . S
N1047 C1039 1.427 . S
N1047 C1045 1.384 . S
H1048 C1054 0.930 . S
H1049 C1058 0.930 . S
H1050 C1063 0.929 . S
H1051 C1061 0.929 . S
H1052 C1056 0.929 . S
H1053 C1062 0.929 . S
C1054 H1048 0.930 . S
C1054 C1055 1.367 . S
C1054 C1062 1.378 . S
C1055 C1054 1.367 . S
C1055 C1063 1.433 . S
C1056 H1052 0.929 . S
C1056 C1058 1.378 . S
C1056 C1060 1.350 . S
C1057 C1060 1.463 . S
C1057 C1062 1.350 . S
C1057 N1065 1.427 . S
C1058 H1049 0.930 . S
C1058 C1056 1.378 . S
C1058 C1059 1.367 . S
C1059 C1058 1.367 . S
C1059 C1061 1.433 . S
C1060 C1056 1.350 . S
C1060 C1057 1.463 . S
C1060 N1064 1.427 . S
C1061 H1051 0.929 . S
C1061 C1059 1.433 . S
C1061 N1064 1.384 . S
C1062 H1053 0.929 . S
C1062 C1054 1.378 . S
C1062 C1057 1.350 . S
C1063 H1050 0.929 . S
C1063 C1055 1.433 . S
C1063 N1065 1.384 . S
N1064 C1060 1.427 . S
N1064 C1061 1.384 . S
N1065 C1057 1.427 . S
N1065 C1063 1.384 . S
H1066 C1072 0.930 . S
H1067 C1076 0.930 . S
H1068 C1081 0.929 . S
H1069 C1079 0.929 . S
H1070 C1074 0.929 . S
H1071 C1080 0.929 . S
C1072 H1066 0.930 . S
C1072 C1073 1.367 . S
C1072 C1080 1.378 . S
C1073 C1072 1.367 . S
C1073 C1081 1.433 . S
C1074 H1070 0.929 . S
C1074 C1076 1.378 . S
C1074 C1078 1.350 . S
C1075 C1078 1.463 . S
C1075 C1080 1.350 . S
C1075 N1083 1.427 . S
C1076 H1067 0.930 . S
C1076 C1074 1.378 . S
C1076 C1077 1.367 . S
C1077 C1076 1.367 . S
C1077 C1079 1.433 . S
C1078 C1074 1.350 . S
C1078 C1075 1.463 . S
C1078 N1082 1.427 . S
C1079 H1069 0.929 . S
C1079 C1077 1.433 . S
C1079 N1082 1.384 . S
C1080 H1071 0.929 . S
C1080 C1072 1.378 . S
C1080 C1075 1.350 . S
C1081 H1068 0.929 . S
C1081 C1073 1.433 . S
C1081 N1083 1.384 . S
N1082 C1078 1.427 . S
N1082 C1079 1.384 . S
N1083 C1075 1.427 . S
N1083 C1081 1.384 . S
H1084 C1090 0.930 . S
H1085 C1094 0.930 . S
H1086 C1099 0.929 . S
H1087 C1097 0.929 . S
H1088 C1092 0.929 . S
H1089 C1098 0.929 . S
C1090 H1084 0.930 . S
C1090 C1091 1.367 . S
C1090 C1098 1.378 . S
C1091 C1090 1.367 . S
C1091 C1099 1.433 . S
C1092 H1088 0.929 . S
C1092 C1094 1.378 . S
C1092 C1096 1.350 . S
C1093 C1096 1.463 . S
C1093 C1098 1.350 . S
C1093 N1101 1.427 . S
C1094 H1085 0.930 . S
C1094 C1092 1.378 . S
C1094 C1095 1.367 . S
C1095 C1094 1.367 . S
C1095 C1097 1.433 . S
C1096 C1092 1.350 . S
C1096 C1093 1.463 . S
C1096 N1100 1.427 . S
C1097 H1087 0.929 . S
C1097 C1095 1.433 . S
C1097 N1100 1.384 . S
C1098 H1089 0.929 . S
C1098 C1090 1.378 . S
C1098 C1093 1.350 . S
C1099 H1086 0.929 . S
C1099 C1091 1.433 . S
C1099 N1101 1.384 . S
N1100 C1096 1.427 . S
N1100 C1097 1.384 . S
N1101 C1093 1.427 . S
N1101 C1099 1.384 . S
H1102 C1108 0.930 . S
H1103 C1112 0.930 . S
H1104 C1117 0.929 . S
H1105 C1115 0.929 . S
H1106 C1110 0.929 . S
H1107 C1116 0.929 . S
C1108 H1102 0.930 . S
C1108 C1109 1.367 . S
C1108 C1116 1.378 . S
C1109 C1108 1.367 . S
C1109 C1117 1.433 . S
C1110 H1106 0.929 . S
C1110 C1112 1.378 . S
C1110 C1114 1.350 . S
C1111 C1114 1.463 . S
C1111 C1116 1.350 . S
C1111 N1119 1.427 . S
C1112 H1103 0.930 . S
C1112 C1110 1.378 . S
C1112 C1113 1.367 . S
C1113 C1112 1.367 . S
C1113 C1115 1.433 . S
C1114 C1110 1.350 . S
C1114 C1111 1.463 . S
C1114 N1118 1.427 . S
C1115 H1105 0.929 . S
C1115 C1113 1.433 . S
C1115 N1118 1.384 . S
C1116 H1107 0.929 . S
C1116 C1108 1.378 . S
C1116 C1111 1.350 . S
C1117 H1104 0.929 . S
C1117 C1109 1.433 . S
C1117 N1119 1.384 . S
N1118 C1114 1.427 . S
N1118 C1115 1.384 . S
N1119 C1111 1.427 . S
N1119 C1117 1.384 . S
H1120 C1126 0.930 . S
H1121 C1130 0.930 . S
H1122 C1135 0.929 . S
H1123 C1133 0.929 . S
H1124 C1128 0.929 . S
H1125 C1134 0.929 1_565 S
C1126 H1120 0.930 . S
C1126 C1127 1.367 1_565 S
C1126 C1134 1.378 1_565 S
C1127 C1126 1.367 1_545 S
C1127 C1135 1.433 . S
C1128 H1124 0.929 . S
C1128 C1130 1.378 . S
C1128 C1132 1.350 1_455 S
C1129 C1132 1.463 . S
C1129 C1134 1.350 . S
C1129 N1137 1.427 . S
C1130 H1121 0.930 . S
C1130 C1128 1.378 . S
C1130 C1131 1.367 . S
C1131 C1130 1.367 . S
C1131 C1133 1.433 . S
C1132 C1128 1.350 1_655 S
C1132 C1129 1.463 . S
C1132 N1136 1.427 . S
C1133 H1123 0.929 . S
C1133 C1131 1.433 . S
C1133 N1136 1.384 1_455 S
C1134 H1125 0.929 1_545 S
C1134 C1126 1.378 1_545 S
C1134 C1129 1.350 . S
C1135 H1122 0.929 . S
C1135 C1127 1.433 . S
C1135 N1137 1.384 . S
N1136 C1132 1.427 . S
N1136 C1133 1.384 1_655 S
N1137 C1129 1.427 . S
N1137 C1135 1.384 . S
H1138 C1144 0.930 . S
H1139 C1148 0.930 . S
H1140 C1153 0.929 . S
H1141 C1151 0.929 . S
H1142 C1146 0.929 . S
H1143 C1152 0.929 . S
C1144 H1138 0.930 . S
C1144 C1145 1.367 . S
C1144 C1152 1.378 . S
C1145 C1144 1.367 . S
C1145 C1153 1.433 . S
C1146 H1142 0.929 . S
C1146 C1148 1.378 . S
C1146 C1150 1.350 . S
C1147 C1150 1.463 . S
C1147 C1152 1.350 . S
C1147 N1155 1.427 . S
C1148 H1139 0.930 . S
C1148 C1146 1.378 . S
C1148 C1149 1.367 . S
C1149 C1148 1.367 . S
C1149 C1151 1.433 . S
C1150 C1146 1.350 . S
C1150 C1147 1.463 . S
C1150 N1154 1.427 . S
C1151 H1141 0.929 . S
C1151 C1149 1.433 . S
C1151 N1154 1.384 . S
C1152 H1143 0.929 . S
C1152 C1144 1.378 . S
C1152 C1147 1.350 . S
C1153 H1140 0.929 . S
C1153 C1145 1.433 . S
C1153 N1155 1.384 . S
N1154 C1150 1.427 . S
N1154 C1151 1.384 . S
N1155 C1147 1.427 . S
N1155 C1153 1.384 . S
H1156 C1162 0.930 1_565 S
H1157 C1166 0.930 . S
H1158 C1171 0.929 . S
H1159 C1169 0.929 1_565 S
H1160 C1164 0.929 . S
H1161 C1170 0.929 1_565 S
C1162 H1156 0.930 1_545 S
C1162 C1163 1.367 . S
C1162 C1170 1.378 . S
C1163 C1162 1.367 . S
C1163 C1171 1.433 . S
C1164 H1160 0.929 . S
C1164 C1166 1.378 . S
C1164 C1168 1.350 . S
C1165 C1168 1.463 . S
C1165 C1170 1.350 . S
C1165 N1173 1.427 . S
C1166 H1157 0.930 . S
C1166 C1164 1.378 . S
C1166 C1167 1.367 . S
C1167 C1166 1.367 . S
C1167 C1169 1.433 . S
C1168 C1164 1.350 . S
C1168 C1165 1.463 . S
C1168 N1172 1.427 . S
C1169 H1159 0.929 1_545 S
C1169 C1167 1.433 . S
C1169 N1172 1.384 . S
C1170 H1161 0.929 1_545 S
C1170 C1162 1.378 . S
C1170 C1165 1.350 . S
C1171 H1158 0.929 . S
C1171 C1163 1.433 . S
C1171 N1173 1.384 . S
N1172 C1168 1.427 . S
N1172 C1169 1.384 . S
N1173 C1165 1.427 . S
N1173 C1171 1.384 . S
H1174 C1180 0.930 . S
H1175 C1184 0.930 . S
H1176 C1189 0.929 . S
H1177 C1187 0.929 . S
H1178 C1182 0.929 . S
H1179 C1188 0.929 . S
C1180 H1174 0.930 . S
C1180 C1181 1.367 . S
C1180 C1188 1.378 . S
C1181 C1180 1.367 . S
C1181 C1189 1.433 . S
C1182 H1178 0.929 . S
C1182 C1184 1.378 . S
C1182 C1186 1.350 . S
C1183 C1186 1.463 . S
C1183 C1188 1.350 . S
C1183 N1191 1.427 . S
C1184 H1175 0.930 . S
C1184 C1182 1.378 . S
C1184 C1185 1.367 . S
C1185 C1184 1.367 . S
C1185 C1187 1.433 . S
C1186 C1182 1.350 . S
C1186 C1183 1.463 . S
C1186 N1190 1.427 . S
C1187 H1177 0.929 . S
C1187 C1185 1.433 . S
C1187 N1190 1.384 . S
C1188 H1179 0.929 . S
C1188 C1180 1.378 . S
C1188 C1183 1.350 . S
C1189 H1176 0.929 . S
C1189 C1181 1.433 . S
C1189 N1191 1.384 . S
N1190 C1186 1.427 . S
N1190 C1187 1.384 . S
N1191 C1183 1.427 . S
N1191 C1189 1.384 . S
H1192 C1198 0.930 . S
H1193 C1202 0.930 . S
H1194 C1207 0.929 . S
H1195 C1205 0.929 . S
H1196 C1200 0.929 . S
H1197 C1206 0.929 . S
C1198 H1192 0.930 . S
C1198 C1199 1.367 1_565 S
C1198 C1206 1.378 . S
C1199 C1198 1.367 1_545 S
C1199 C1207 1.433 . S
C1200 H1196 0.929 . S
C1200 C1202 1.378 . S
C1200 C1204 1.350 . S
C1201 C1204 1.463 . S
C1201 C1206 1.350 1_545 S
C1201 N1209 1.427 . S
C1202 H1193 0.930 . S
C1202 C1200 1.378 . S
C1202 C1203 1.367 1_655 S
C1203 C1202 1.367 1_455 S
C1203 C1205 1.433 1_545 S
C1204 C1200 1.350 . S
C1204 C1201 1.463 . S
C1204 N1208 1.427 1_545 S
C1205 H1195 0.929 . S
C1205 C1203 1.433 1_565 S
C1205 N1208 1.384 1_455 S
C1206 H1197 0.929 . S
C1206 C1198 1.378 . S
C1206 C1201 1.350 1_565 S
C1207 H1194 0.929 . S
C1207 C1199 1.433 . S
C1207 N1209 1.384 . S
N1208 C1204 1.427 1_565 S
N1208 C1205 1.384 1_655 S
N1209 C1201 1.427 . S
N1209 C1207 1.384 . S
H1210 C1216 0.930 . S
H1211 C1220 0.930 . S
H1212 C1225 0.929 . S
H1213 C1223 0.929 . S
H1214 C1218 0.929 . S
H1215 C1224 0.929 . S
C1216 H1210 0.930 . S
C1216 C1217 1.367 . S
C1216 C1224 1.378 . S
C1217 C1216 1.367 . S
C1217 C1225 1.433 . S
C1218 H1214 0.929 . S
C1218 C1220 1.378 . S
C1218 C1222 1.350 . S
C1219 C1222 1.463 . S
C1219 C1224 1.350 . S
C1219 N1227 1.427 . S
C1220 H1211 0.930 . S
C1220 C1218 1.378 . S
C1220 C1221 1.367 . S
C1221 C1220 1.367 . S
C1221 C1223 1.433 . S
C1222 C1218 1.350 . S
C1222 C1219 1.463 . S
C1222 N1226 1.427 . S
C1223 H1213 0.929 . S
C1223 C1221 1.433 . S
C1223 N1226 1.384 . S
C1224 H1215 0.929 . S
C1224 C1216 1.378 . S
C1224 C1219 1.350 . S
C1225 H1212 0.929 . S
C1225 C1217 1.433 . S
C1225 N1227 1.384 . S
N1226 C1222 1.427 . S
N1226 C1223 1.384 . S
N1227 C1219 1.427 . S
N1227 C1225 1.384 . S
H1228 C1234 0.930 . S
H1229 C1238 0.930 . S
H1230 C1243 0.929 . S
H1231 C1241 0.929 . S
H1232 C1236 0.929 . S
H1233 C1242 0.929 . S
C1234 H1228 0.930 . S
C1234 C1235 1.367 . S
C1234 C1242 1.378 . S
C1235 C1234 1.367 . S
C1235 C1243 1.433 . S
C1236 H1232 0.929 . S
C1236 C1238 1.378 . S
C1236 C1240 1.350 . S
C1237 C1240 1.463 . S
C1237 C1242 1.350 . S
C1237 N1245 1.427 . S
C1238 H1229 0.930 . S
C1238 C1236 1.378 . S
C1238 C1239 1.367 . S
C1239 C1238 1.367 . S
C1239 C1241 1.433 . S
C1240 C1236 1.350 . S
C1240 C1237 1.463 . S
C1240 N1244 1.427 . S
C1241 H1231 0.929 . S
C1241 C1239 1.433 . S
C1241 N1244 1.384 . S
C1242 H1233 0.929 . S
C1242 C1234 1.378 . S
C1242 C1237 1.350 . S
C1243 H1230 0.929 . S
C1243 C1235 1.433 . S
C1243 N1245 1.384 . S
N1244 C1240 1.427 . S
N1244 C1241 1.384 . S
N1245 C1237 1.427 . S
N1245 C1243 1.384 . S
H1246 C1252 0.930 . S
H1247 C1256 0.930 . S
H1248 C1261 0.929 . S
H1249 C1259 0.929 . S
H1250 C1254 0.929 . S
H1251 C1260 0.929 . S
C1252 H1246 0.930 . S
C1252 C1253 1.367 . S
C1252 C1260 1.378 . S
C1253 C1252 1.367 . S
C1253 C1261 1.433 . S
C1254 H1250 0.929 . S
C1254 C1256 1.378 . S
C1254 C1258 1.350 . S
C1255 C1258 1.463 . S
C1255 C1260 1.350 . S
C1255 N1263 1.427 . S
C1256 H1247 0.930 . S
C1256 C1254 1.378 . S
C1256 C1257 1.367 . S
C1257 C1256 1.367 . S
C1257 C1259 1.433 . S
C1258 C1254 1.350 . S
C1258 C1255 1.463 . S
C1258 N1262 1.427 . S
C1259 H1249 0.929 . S
C1259 C1257 1.433 . S
C1259 N1262 1.384 . S
C1260 H1251 0.929 . S
C1260 C1252 1.378 . S
C1260 C1255 1.350 . S
C1261 H1248 0.929 . S
C1261 C1253 1.433 . S
C1261 N1263 1.384 . S
N1262 C1258 1.427 . S
N1262 C1259 1.384 . S
N1263 C1255 1.427 . S
N1263 C1261 1.384 . S
H1264 C1270 0.930 . S
H1265 C1274 0.930 . S
H1266 C1279 0.929 . S
H1267 C1277 0.929 . S
H1268 C1272 0.929 . S
H1269 C1278 0.926 1_556 S
C1270 H1264 0.930 . S
C1270 C1271 1.367 1_556 S
C1270 C1278 1.378 1_556 S
C1271 C1270 1.367 1_554 S
C1271 C1279 1.433 . S
C1272 H1268 0.929 . S
C1272 C1274 1.378 . S
C1272 C1276 1.350 1_545 S
C1273 C1276 1.463 . S
C1273 C1278 1.350 . S
C1273 N1281 1.427 . S
C1274 H1265 0.930 . S
C1274 C1272 1.378 . S
C1274 C1275 1.367 . S
C1275 C1274 1.367 . S
C1275 C1277 1.433 . S
C1276 C1272 1.350 1_565 S
C1276 C1273 1.463 . S
C1276 N1280 1.427 . S
C1277 H1267 0.929 . S
C1277 C1275 1.433 . S
C1277 N1280 1.384 1_545 S
C1278 H1269 0.926 1_554 S
C1278 C1270 1.378 1_554 S
C1278 C1273 1.350 . S
C1279 H1266 0.929 . S
C1279 C1271 1.433 . S
C1279 N1281 1.384 . S
N1280 C1276 1.427 . S
N1280 C1277 1.384 1_565 S
N1281 C1273 1.427 . S
N1281 C1279 1.384 . S
H1282 C1288 0.930 . S
H1283 C1292 0.930 . S
H1284 C1297 0.929 . S
H1285 C1295 0.929 . S
H1286 C1290 0.929 . S
H1287 C1296 0.929 . S
C1288 H1282 0.930 . S
C1288 C1289 1.367 . S
C1288 C1296 1.378 . S
C1289 C1288 1.367 . S
C1289 C1297 1.433 . S
C1290 H1286 0.929 . S
C1290 C1292 1.378 . S
C1290 C1294 1.350 . S
C1291 C1294 1.463 . S
C1291 C1296 1.350 . S
C1291 N1299 1.427 . S
C1292 H1283 0.930 . S
C1292 C1290 1.378 . S
C1292 C1293 1.367 . S
C1293 C1292 1.367 . S
C1293 C1295 1.433 . S
C1294 C1290 1.350 . S
C1294 C1291 1.463 . S
C1294 N1298 1.427 . S
C1295 H1285 0.929 . S
C1295 C1293 1.433 . S
C1295 N1298 1.384 . S
C1296 H1287 0.929 . S
C1296 C1288 1.378 . S
C1296 C1291 1.350 . S
C1297 H1284 0.929 . S
C1297 C1289 1.433 . S
C1297 N1299 1.384 . S
N1298 C1294 1.427 . S
N1298 C1295 1.384 . S
N1299 C1291 1.427 . S
N1299 C1297 1.384 . S
H1300 C1306 0.930 . S
H1301 C1310 0.930 . S
H1302 C1315 0.929 . S
H1303 C1313 0.929 . S
H1304 C1308 0.929 . S
H1305 C1314 0.929 . S
C1306 H1300 0.930 . S
C1306 C1307 1.367 . S
C1306 C1314 1.378 . S
C1307 C1306 1.367 . S
C1307 C1315 1.433 . S
C1308 H1304 0.929 . S
C1308 C1310 1.378 . S
C1308 C1312 1.350 . S
C1309 C1312 1.463 . S
C1309 C1314 1.350 . S
C1309 N1317 1.427 . S
C1310 H1301 0.930 . S
C1310 C1308 1.378 . S
C1310 C1311 1.367 . S
C1311 C1310 1.367 . S
C1311 C1313 1.433 . S
C1312 C1308 1.350 . S
C1312 C1309 1.463 . S
C1312 N1316 1.427 . S
C1313 H1303 0.929 . S
C1313 C1311 1.433 . S
C1313 N1316 1.384 . S
C1314 H1305 0.929 . S
C1314 C1306 1.378 . S
C1314 C1309 1.350 . S
C1315 H1302 0.929 . S
C1315 C1307 1.433 . S
C1315 N1317 1.384 . S
N1316 C1312 1.427 . S
N1316 C1313 1.384 . S
N1317 C1309 1.427 . S
N1317 C1315 1.384 . S
H1318 C1324 0.930 . S
H1319 C1328 0.930 . S
H1320 C1333 0.929 . S
H1321 C1331 0.929 . S
H1322 C1326 0.929 . S
H1323 C1332 0.929 . S
C1324 H1318 0.930 . S
C1324 C1325 1.367 . S
C1324 C1332 1.378 . S
C1325 C1324 1.367 . S
C1325 C1333 1.433 . S
C1326 H1322 0.929 . S
C1326 C1328 1.378 . S
C1326 C1330 1.350 . S
C1327 C1330 1.463 . S
C1327 C1332 1.350 . S
C1327 N1335 1.427 . S
C1328 H1319 0.930 . S
C1328 C1326 1.378 . S
C1328 C1329 1.367 . S
C1329 C1328 1.367 . S
C1329 C1331 1.433 . S
C1330 C1326 1.350 . S
C1330 C1327 1.463 . S
C1330 N1334 1.427 . S
C1331 H1321 0.929 . S
C1331 C1329 1.433 . S
C1331 N1334 1.384 . S
C1332 H1323 0.929 . S
C1332 C1324 1.378 . S
C1332 C1327 1.350 . S
C1333 H1320 0.929 . S
C1333 C1325 1.433 . S
C1333 N1335 1.384 . S
N1334 C1330 1.427 . S
N1334 C1331 1.384 . S
N1335 C1327 1.427 . S
N1335 C1333 1.384 . S
H1336 C1342 0.930 . S
H1337 C1346 0.930 . S
H1338 C1351 0.929 . S
H1339 C1349 0.929 . S
H1340 C1344 0.929 . S
H1341 C1350 0.929 . S
C1342 H1336 0.930 . S
C1342 C1343 1.367 . S
C1342 C1350 1.378 . S
C1343 C1342 1.367 . S
C1343 C1351 1.433 . S
C1344 H1340 0.929 . S
C1344 C1346 1.378 . S
C1344 C1348 1.350 . S
C1345 C1348 1.463 . S
C1345 C1350 1.350 . S
C1345 N1353 1.427 . S
C1346 H1337 0.930 . S
C1346 C1344 1.378 . S
C1346 C1347 1.367 . S
C1347 C1346 1.367 . S
C1347 C1349 1.433 . S
C1348 C1344 1.350 . S
C1348 C1345 1.463 . S
C1348 N1352 1.427 . S
C1349 H1339 0.929 . S
C1349 C1347 1.433 . S
C1349 N1352 1.384 . S
C1350 H1341 0.929 . S
C1350 C1342 1.378 . S
C1350 C1345 1.350 . S
C1351 H1338 0.929 . S
C1351 C1343 1.433 . S
C1351 N1353 1.384 . S
N1352 C1348 1.427 . S
N1352 C1349 1.384 . S
N1353 C1345 1.427 . S
N1353 C1351 1.384 . S
H1354 C1360 0.930 . S
H1355 C1364 0.930 . S
H1356 C1369 0.929 . S
H1357 C1367 0.929 . S
H1358 C1362 0.929 . S
H1359 C1368 0.929 . S
C1360 H1354 0.930 . S
C1360 C1361 1.367 . S
C1360 C1368 1.378 . S
C1361 C1360 1.367 . S
C1361 C1369 1.433 . S
C1362 H1358 0.929 . S
C1362 C1364 1.378 . S
C1362 C1366 1.350 . S
C1363 C1366 1.463 . S
C1363 C1368 1.350 . S
C1363 N1371 1.427 . S
C1364 H1355 0.930 . S
C1364 C1362 1.378 . S
C1364 C1365 1.367 . S
C1365 C1364 1.367 . S
C1365 C1367 1.433 . S
C1366 C1362 1.350 . S
C1366 C1363 1.463 . S
C1366 N1370 1.427 . S
C1367 H1357 0.929 . S
C1367 C1365 1.433 . S
C1367 N1370 1.384 . S
C1368 H1359 0.929 . S
C1368 C1360 1.378 . S
C1368 C1363 1.350 . S
C1369 H1356 0.929 . S
C1369 C1361 1.433 . S
C1369 N1371 1.384 . S
N1370 C1366 1.427 . S
N1370 C1367 1.384 . S
N1371 C1363 1.427 . S
N1371 C1369 1.384 . S
H1372 C1378 0.930 . S
H1373 C1382 0.930 . S
H1374 C1387 0.929 . S
H1375 C1385 0.929 . S
H1376 C1380 0.929 . S
H1377 C1386 0.929 . S
C1378 H1372 0.930 . S
C1378 C1379 1.367 . S
C1378 C1386 1.378 . S
C1379 C1378 1.367 . S
C1379 C1387 1.433 . S
C1380 H1376 0.929 . S
C1380 C1382 1.378 . S
C1380 C1384 1.350 . S
C1381 C1384 1.463 . S
C1381 C1386 1.350 . S
C1381 N1389 1.427 . S
C1382 H1373 0.930 . S
C1382 C1380 1.378 . S
C1382 C1383 1.367 . S
C1383 C1382 1.367 . S
C1383 C1385 1.433 . S
C1384 C1380 1.350 . S
C1384 C1381 1.463 . S
C1384 N1388 1.427 . S
C1385 H1375 0.929 . S
C1385 C1383 1.433 . S
C1385 N1388 1.384 . S
C1386 H1377 0.929 . S
C1386 C1378 1.378 . S
C1386 C1381 1.350 . S
C1387 H1374 0.929 . S
C1387 C1379 1.433 . S
C1387 N1389 1.384 . S
N1388 C1384 1.427 . S
N1388 C1385 1.384 . S
N1389 C1381 1.427 . S
N1389 C1387 1.384 . S
H1390 C1396 0.930 . S
H1391 C1400 0.930 . S
H1392 C1405 0.929 . S
H1393 C1403 0.929 . S
H1394 C1398 0.929 . S
H1395 C1404 0.929 . S
C1396 H1390 0.930 . S
C1396 C1397 1.367 . S
C1396 C1404 1.378 . S
C1397 C1396 1.367 . S
C1397 C1405 1.433 . S
C1398 H1394 0.929 . S
C1398 C1400 1.378 . S
C1398 C1402 1.350 . S
C1399 C1402 1.463 . S
C1399 C1404 1.350 . S
C1399 N1407 1.427 . S
C1400 H1391 0.930 . S
C1400 C1398 1.378 . S
C1400 C1401 1.367 . S
C1401 C1400 1.367 . S
C1401 C1403 1.433 . S
C1402 C1398 1.350 . S
C1402 C1399 1.463 . S
C1402 N1406 1.427 . S
C1403 H1393 0.929 . S
C1403 C1401 1.433 . S
C1403 N1406 1.384 . S
C1404 H1395 0.929 . S
C1404 C1396 1.378 . S
C1404 C1399 1.350 . S
C1405 H1392 0.929 . S
C1405 C1397 1.433 . S
C1405 N1407 1.384 . S
N1406 C1402 1.427 . S
N1406 C1403 1.384 . S
N1407 C1399 1.427 . S
N1407 C1405 1.384 . S
H1408 C1414 0.930 . S
H1409 C1418 0.930 . S
H1410 C1423 0.929 . S
H1411 C1421 0.929 . S
H1412 C1416 0.929 . S
H1413 C1422 0.929 . S
C1414 H1408 0.930 . S
C1414 C1415 1.367 . S
C1414 C1422 1.378 . S
C1415 C1414 1.367 . S
C1415 C1423 1.433 . S
C1416 H1412 0.929 . S
C1416 C1418 1.378 . S
C1416 C1420 1.350 . S
C1417 C1420 1.463 . S
C1417 C1422 1.350 . S
C1417 N1425 1.427 . S
C1418 H1409 0.930 . S
C1418 C1416 1.378 . S
C1418 C1419 1.367 . S
C1419 C1418 1.367 . S
C1419 C1421 1.433 . S
C1420 C1416 1.350 . S
C1420 C1417 1.463 . S
C1420 N1424 1.427 . S
C1421 H1411 0.929 . S
C1421 C1419 1.433 . S
C1421 N1424 1.384 . S
C1422 H1413 0.929 . S
C1422 C1414 1.378 . S
C1422 C1417 1.350 . S
C1423 H1410 0.929 . S
C1423 C1415 1.433 . S
C1423 N1425 1.384 . S
N1424 C1420 1.427 . S
N1424 C1421 1.384 . S
N1425 C1417 1.427 . S
N1425 C1423 1.384 . S
H1426 C1432 0.930 . S
H1427 C1436 0.930 . S
H1428 C1441 0.929 . S
H1429 C1439 0.929 . S
H1430 C1434 0.929 . S
H1431 C1440 0.929 . S
C1432 H1426 0.930 . S
C1432 C1433 1.367 . S
C1432 C1440 1.378 . S
C1433 C1432 1.367 . S
C1433 C1441 1.433 . S
C1434 H1430 0.929 . S
C1434 C1436 1.378 . S
C1434 C1438 1.350 . S
C1435 C1438 1.463 . S
C1435 C1440 1.350 . S
C1435 N1443 1.427 . S
C1436 H1427 0.930 . S
C1436 C1434 1.378 . S
C1436 C1437 1.367 . S
C1437 C1436 1.367 . S
C1437 C1439 1.433 . S
C1438 C1434 1.350 . S
C1438 C1435 1.463 . S
C1438 N1442 1.427 . S
C1439 H1429 0.929 . S
C1439 C1437 1.433 . S
C1439 N1442 1.384 . S
C1440 H1431 0.929 . S
C1440 C1432 1.378 . S
C1440 C1435 1.350 . S
C1441 H1428 0.929 . S
C1441 C1433 1.433 . S
C1441 N1443 1.384 . S
N1442 C1438 1.427 . S
N1442 C1439 1.384 . S
N1443 C1435 1.427 . S
N1443 C1441 1.384 . S
H1444 C1450 0.930 . S
H1445 C1454 0.930 . S
H1446 C1459 0.929 . S
H1447 C1457 0.929 . S
H1448 C1452 0.929 . S
H1449 C1458 0.929 . S
C1450 H1444 0.930 . S
C1450 C1451 1.367 . S
C1450 C1458 1.378 . S
C1451 C1450 1.367 . S
C1451 C1459 1.433 . S
C1452 H1448 0.929 . S
C1452 C1454 1.378 . S
C1452 C1456 1.350 . S
C1453 C1456 1.463 . S
C1453 C1458 1.350 . S
C1453 N1461 1.427 . S
C1454 H1445 0.930 . S
C1454 C1452 1.378 . S
C1454 C1455 1.367 . S
C1455 C1454 1.367 . S
C1455 C1457 1.433 . S
C1456 C1452 1.350 . S
C1456 C1453 1.463 . S
C1456 N1460 1.427 . S
C1457 H1447 0.929 . S
C1457 C1455 1.433 . S
C1457 N1460 1.384 . S
C1458 H1449 0.929 . S
C1458 C1450 1.378 . S
C1458 C1453 1.350 . S
C1459 H1446 0.929 . S
C1459 C1451 1.433 . S
C1459 N1461 1.384 . S
N1460 C1456 1.427 . S
N1460 C1457 1.384 . S
N1461 C1453 1.427 . S
N1461 C1459 1.384 . S
H1462 C1468 0.930 . S
H1463 C1472 0.930 . S
H1464 C1477 0.929 . S
H1465 C1475 0.929 . S
H1466 C1470 0.929 . S
H1467 C1476 0.929 . S
C1468 H1462 0.930 . S
C1468 C1469 1.367 . S
C1468 C1476 1.378 . S
C1469 C1468 1.367 . S
C1469 C1477 1.433 . S
C1470 H1466 0.929 . S
C1470 C1472 1.378 . S
C1470 C1474 1.350 . S
C1471 C1474 1.463 . S
C1471 C1476 1.350 . S
C1471 N1479 1.427 . S
C1472 H1463 0.930 . S
C1472 C1470 1.378 . S
C1472 C1473 1.367 . S
C1473 C1472 1.367 . S
C1473 C1475 1.433 . S
C1474 C1470 1.350 . S
C1474 C1471 1.463 . S
C1474 N1478 1.427 . S
C1475 H1465 0.929 . S
C1475 C1473 1.433 . S
C1475 N1478 1.384 . S
C1476 H1467 0.929 . S
C1476 C1468 1.378 . S
C1476 C1471 1.350 . S
C1477 H1464 0.929 . S
C1477 C1469 1.433 . S
C1477 N1479 1.384 . S
N1478 C1474 1.427 . S
N1478 C1475 1.384 . S
N1479 C1471 1.427 . S
N1479 C1477 1.384 . S
H1480 C1486 0.930 . S
H1481 C1490 0.930 . S
H1482 C1495 0.929 . S
H1483 C1493 0.929 . S
H1484 C1488 0.929 . S
H1485 C1494 0.929 . S
C1486 H1480 0.930 . S
C1486 C1487 1.367 . S
C1486 C1494 1.378 . S
C1487 C1486 1.367 . S
C1487 C1495 1.433 . S
C1488 H1484 0.929 . S
C1488 C1490 1.378 . S
C1488 C1492 1.350 . S
C1489 C1492 1.463 . S
C1489 C1494 1.350 . S
C1489 N1497 1.427 . S
C1490 H1481 0.930 . S
C1490 C1488 1.378 . S
C1490 C1491 1.367 . S
C1491 C1490 1.367 . S
C1491 C1493 1.433 . S
C1492 C1488 1.350 . S
C1492 C1489 1.463 . S
C1492 N1496 1.427 . S
C1493 H1483 0.929 . S
C1493 C1491 1.433 . S
C1493 N1496 1.384 . S
C1494 H1485 0.929 . S
C1494 C1486 1.378 . S
C1494 C1489 1.350 . S
C1495 H1482 0.929 . S
C1495 C1487 1.433 . S
C1495 N1497 1.384 . S
N1496 C1492 1.427 . S
N1496 C1493 1.384 . S
N1497 C1489 1.427 . S
N1497 C1495 1.384 . S
H1498 C1504 0.930 . S
H1499 C1508 0.930 . S
H1500 C1513 0.929 . S
H1501 C1511 0.929 . S
H1502 C1506 0.929 . S
H1503 C1512 0.929 . S
C1504 H1498 0.930 . S
C1504 C1505 1.367 . S
C1504 C1512 1.378 . S
C1505 C1504 1.367 . S
C1505 C1513 1.433 . S
C1506 H1502 0.929 . S
C1506 C1508 1.378 . S
C1506 C1510 1.350 . S
C1507 C1510 1.463 . S
C1507 C1512 1.350 . S
C1507 N1515 1.427 . S
C1508 H1499 0.930 . S
C1508 C1506 1.378 . S
C1508 C1509 1.367 . S
C1509 C1508 1.367 . S
C1509 C1511 1.433 . S
C1510 C1506 1.350 . S
C1510 C1507 1.463 . S
C1510 N1514 1.427 . S
C1511 H1501 0.929 . S
C1511 C1509 1.433 . S
C1511 N1514 1.384 . S
C1512 H1503 0.929 . S
C1512 C1504 1.378 . S
C1512 C1507 1.350 . S
C1513 H1500 0.929 . S
C1513 C1505 1.433 . S
C1513 N1515 1.384 . S
N1514 C1510 1.427 . S
N1514 C1511 1.384 . S
N1515 C1507 1.427 . S
N1515 C1513 1.384 . S
H1516 C1522 0.930 . S
H1517 C1526 0.930 . S
H1518 C1531 0.929 . S
H1519 C1529 0.929 1_554 S
H1520 C1524 0.929 . S
H1521 C1530 0.929 . S
C1522 H1516 0.930 . S
C1522 C1523 1.367 . S
C1522 C1530 1.378 . S
C1523 C1522 1.367 . S
C1523 C1531 1.433 . S
C1524 H1520 0.929 . S
C1524 C1526 1.378 . S
C1524 C1528 1.350 . S
C1525 C1528 1.463 . S
C1525 C1530 1.350 . S
C1525 N1533 1.427 . S
C1526 H1517 0.930 . S
C1526 C1524 1.378 . S
C1526 C1527 1.367 . S
C1527 C1526 1.367 . S
C1527 C1529 1.433 . S
C1528 C1524 1.350 . S
C1528 C1525 1.463 . S
C1528 N1532 1.427 . S
C1529 H1519 0.929 1_556 S
C1529 C1527 1.433 . S
C1529 N1532 1.384 . S
C1530 H1521 0.929 . S
C1530 C1522 1.378 . S
C1530 C1525 1.350 . S
C1531 H1518 0.929 . S
C1531 C1523 1.433 . S
C1531 N1533 1.384 . S
N1532 C1528 1.427 . S
N1532 C1529 1.384 . S
N1533 C1525 1.427 . S
N1533 C1531 1.384 . S
H1534 C1540 0.930 . S
H1535 C1544 0.930 . S
H1536 C1549 0.929 . S
H1537 C1547 0.929 . S
H1538 C1542 0.929 . S
H1539 C1548 0.929 . S
C1540 H1534 0.930 . S
C1540 C1541 1.367 . S
C1540 C1548 1.378 . S
C1541 C1540 1.367 . S
C1541 C1549 1.433 . S
C1542 H1538 0.929 . S
C1542 C1544 1.378 . S
C1542 C1546 1.350 . S
C1543 C1546 1.463 . S
C1543 C1548 1.350 . S
C1543 N1551 1.427 . S
C1544 H1535 0.930 . S
C1544 C1542 1.378 . S
C1544 C1545 1.367 . S
C1545 C1544 1.367 . S
C1545 C1547 1.433 . S
C1546 C1542 1.350 . S
C1546 C1543 1.463 . S
C1546 N1550 1.427 . S
C1547 H1537 0.929 . S
C1547 C1545 1.433 . S
C1547 N1550 1.384 . S
C1548 H1539 0.929 . S
C1548 C1540 1.378 . S
C1548 C1543 1.350 . S
C1549 H1536 0.929 . S
C1549 C1541 1.433 . S
C1549 N1551 1.384 . S
N1550 C1546 1.427 . S
N1550 C1547 1.384 . S
N1551 C1543 1.427 . S
N1551 C1549 1.384 . S
H1552 C1558 0.930 . S
H1553 C1562 0.930 . S
H1554 C1567 0.929 . S
H1555 C1565 0.929 . S
H1556 C1560 0.929 . S
H1557 C1566 0.929 . S
C1558 H1552 0.930 . S
C1558 C1559 1.367 . S
C1558 C1566 1.378 . S
C1559 C1558 1.367 . S
C1559 C1567 1.433 . S
C1560 H1556 0.929 . S
C1560 C1562 1.378 . S
C1560 C1564 1.350 . S
C1561 C1564 1.463 . S
C1561 C1566 1.350 . S
C1561 N1569 1.427 . S
C1562 H1553 0.930 . S
C1562 C1560 1.378 . S
C1562 C1563 1.367 . S
C1563 C1562 1.367 . S
C1563 C1565 1.433 . S
C1564 C1560 1.350 . S
C1564 C1561 1.463 . S
C1564 N1568 1.427 . S
C1565 H1555 0.929 . S
C1565 C1563 1.433 . S
C1565 N1568 1.384 . S
C1566 H1557 0.929 . S
C1566 C1558 1.378 . S
C1566 C1561 1.350 . S
C1567 H1554 0.929 . S
C1567 C1559 1.433 . S
C1567 N1569 1.384 . S
N1568 C1564 1.427 . S
N1568 C1565 1.384 . S
N1569 C1561 1.427 . S
N1569 C1567 1.384 . S
H1570 C1576 0.930 . S
H1571 C1580 0.930 . S
H1572 C1585 0.929 . S
H1573 C1583 0.929 . S
H1574 C1578 0.929 . S
H1575 C1584 0.929 . S
C1576 H1570 0.930 . S
C1576 C1577 1.367 . S
C1576 C1584 1.378 . S
C1577 C1576 1.367 . S
C1577 C1585 1.433 . S
C1578 H1574 0.929 . S
C1578 C1580 1.378 . S
C1578 C1582 1.350 . S
C1579 C1582 1.463 . S
C1579 C1584 1.350 . S
C1579 N1587 1.427 . S
C1580 H1571 0.930 . S
C1580 C1578 1.378 . S
C1580 C1581 1.367 . S
C1581 C1580 1.367 . S
C1581 C1583 1.433 . S
C1582 C1578 1.350 . S
C1582 C1579 1.463 . S
C1582 N1586 1.427 . S
C1583 H1573 0.929 . S
C1583 C1581 1.433 . S
C1583 N1586 1.384 . S
C1584 H1575 0.929 . S
C1584 C1576 1.378 . S
C1584 C1579 1.350 . S
C1585 H1572 0.929 . S
C1585 C1577 1.433 . S
C1585 N1587 1.384 . S
N1586 C1582 1.427 . S
N1586 C1583 1.384 . S
N1587 C1579 1.427 . S
N1587 C1585 1.384 . S
H1588 C1594 0.930 . S
H1589 C1598 0.930 . S
H1590 C1603 0.922 1_565 S
H1591 C1601 0.929 . S
H1592 C1596 0.929 . S
H1593 C1602 0.929 . S
C1594 H1588 0.930 . S
C1594 C1595 1.367 . S
C1594 C1602 1.378 . S
C1595 C1594 1.367 . S
C1595 C1603 1.433 . S
C1596 H1592 0.929 . S
C1596 C1598 1.378 . S
C1596 C1600 1.350 . S
C1597 C1600 1.463 . S
C1597 C1602 1.350 . S
C1597 N1605 1.427 . S
C1598 H1589 0.930 . S
C1598 C1596 1.378 . S
C1598 C1599 1.367 . S
C1599 C1598 1.367 . S
C1599 C1601 1.433 . S
C1600 C1596 1.350 . S
C1600 C1597 1.463 . S
C1600 N1604 1.427 . S
C1601 H1591 0.929 . S
C1601 C1599 1.433 . S
C1601 N1604 1.384 . S
C1602 H1593 0.929 . S
C1602 C1594 1.378 . S
C1602 C1597 1.350 . S
C1603 H1590 0.922 1_545 S
C1603 C1595 1.433 . S
C1603 N1605 1.384 . S
N1604 C1600 1.427 . S
N1604 C1601 1.384 . S
N1605 C1597 1.427 . S
N1605 C1603 1.384 . S
H1606 C1612 0.930 . S
H1607 C1616 0.930 . S
H1608 C1621 0.929 . S
H1609 C1619 0.929 . S
H1610 C1614 0.929 . S
H1611 C1620 0.929 . S
C1612 H1606 0.930 . S
C1612 C1613 1.367 . S
C1612 C1620 1.378 . S
C1613 C1612 1.367 . S
C1613 C1621 1.433 . S
C1614 H1610 0.929 . S
C1614 C1616 1.378 . S
C1614 C1618 1.350 . S
C1615 C1618 1.463 . S
C1615 C1620 1.350 . S
C1615 N1623 1.427 . S
C1616 H1607 0.930 . S
C1616 C1614 1.378 . S
C1616 C1617 1.367 . S
C1617 C1616 1.367 . S
C1617 C1619 1.433 . S
C1618 C1614 1.350 . S
C1618 C1615 1.463 . S
C1618 N1622 1.427 . S
C1619 H1609 0.929 . S
C1619 C1617 1.433 . S
C1619 N1622 1.384 . S
C1620 H1611 0.929 . S
C1620 C1612 1.378 . S
C1620 C1615 1.350 . S
C1621 H1608 0.929 . S
C1621 C1613 1.433 . S
C1621 N1623 1.384 . S
N1622 C1618 1.427 . S
N1622 C1619 1.384 . S
N1623 C1615 1.427 . S
N1623 C1621 1.384 . S
H1624 C1630 0.930 . S
H1625 C1634 0.930 . S
H1626 C1639 0.929 . S
H1627 C1637 0.929 . S
H1628 C1632 0.929 . S
H1629 C1638 0.929 . S
C1630 H1624 0.930 . S
C1630 C1631 1.367 . S
C1630 C1638 1.378 . S
C1631 C1630 1.367 . S
C1631 C1639 1.433 . S
C1632 H1628 0.929 . S
C1632 C1634 1.378 . S
C1632 C1636 1.350 . S
C1633 C1636 1.463 . S
C1633 C1638 1.350 . S
C1633 N1641 1.427 . S
C1634 H1625 0.930 . S
C1634 C1632 1.378 . S
C1634 C1635 1.367 . S
C1635 C1634 1.367 . S
C1635 C1637 1.433 . S
C1636 C1632 1.350 . S
C1636 C1633 1.463 . S
C1636 N1640 1.427 . S
C1637 H1627 0.929 . S
C1637 C1635 1.433 . S
C1637 N1640 1.384 . S
C1638 H1629 0.929 . S
C1638 C1630 1.378 . S
C1638 C1633 1.350 . S
C1639 H1626 0.929 . S
C1639 C1631 1.433 . S
C1639 N1641 1.384 . S
N1640 C1636 1.427 . S
N1640 C1637 1.384 . S
N1641 C1633 1.427 . S
N1641 C1639 1.384 . S
H1642 C1648 0.930 . S
H1643 C1652 0.930 . S
H1644 C1657 0.929 . S
H1645 C1655 0.929 . S
H1646 C1650 0.929 . S
H1647 C1656 0.929 . S
C1648 H1642 0.930 . S
C1648 C1649 1.367 . S
C1648 C1656 1.378 . S
C1649 C1648 1.367 . S
C1649 C1657 1.433 . S
C1650 H1646 0.929 . S
C1650 C1652 1.378 . S
C1650 C1654 1.350 . S
C1651 C1654 1.463 . S
C1651 C1656 1.350 . S
C1651 N1659 1.427 . S
C1652 H1643 0.930 . S
C1652 C1650 1.378 . S
C1652 C1653 1.367 . S
C1653 C1652 1.367 . S
C1653 C1655 1.433 . S
C1654 C1650 1.350 . S
C1654 C1651 1.463 . S
C1654 N1658 1.427 . S
C1655 H1645 0.929 . S
C1655 C1653 1.433 . S
C1655 N1658 1.384 . S
C1656 H1647 0.929 . S
C1656 C1648 1.378 . S
C1656 C1651 1.350 . S
C1657 H1644 0.929 . S
C1657 C1649 1.433 . S
C1657 N1659 1.384 . S
N1658 C1654 1.427 . S
N1658 C1655 1.384 . S
N1659 C1651 1.427 . S
N1659 C1657 1.384 . S
H1660 C1666 0.930 . S
H1661 C1670 0.930 . S
H1662 C1675 0.929 1_565 S
H1663 C1673 0.929 . S
H1664 C1668 0.941 . S
H1665 C1674 0.929 . S
C1666 H1660 0.930 . S
C1666 C1667 1.367 . S
C1666 C1674 1.378 . S
C1667 C1666 1.367 . S
C1667 C1675 1.433 . S
C1668 H1664 0.941 . S
C1668 C1670 1.378 . S
C1668 C1672 1.350 . S
C1669 C1672 1.463 . S
C1669 C1674 1.350 . S
C1669 N1677 1.427 . S
C1670 H1661 0.930 . S
C1670 C1668 1.378 . S
C1670 C1671 1.367 . S
C1671 C1670 1.367 . S
C1671 C1673 1.433 . S
C1672 C1668 1.350 . S
C1672 C1669 1.463 . S
C1672 N1676 1.427 . S
C1673 H1663 0.929 . S
C1673 C1671 1.433 . S
C1673 N1676 1.384 . S
C1674 H1665 0.929 . S
C1674 C1666 1.378 . S
C1674 C1669 1.350 . S
C1675 H1662 0.929 1_545 S
C1675 C1667 1.433 . S
C1675 N1677 1.384 . S
N1676 C1672 1.427 . S
N1676 C1673 1.384 . S
N1677 C1669 1.427 . S
N1677 C1675 1.384 . S
H1678 C1684 0.930 . S
H1679 C1688 0.930 . S
H1680 C1693 0.929 . S
H1681 C1691 0.929 . S
H1682 C1686 0.929 . S
H1683 C1692 0.929 . S
C1684 H1678 0.930 . S
C1684 C1685 1.367 . S
C1684 C1692 1.378 . S
C1685 C1684 1.367 . S
C1685 C1693 1.433 . S
C1686 H1682 0.929 . S
C1686 C1688 1.378 . S
C1686 C1690 1.350 . S
C1687 C1690 1.463 . S
C1687 C1692 1.350 . S
C1687 N1695 1.427 . S
C1688 H1679 0.930 . S
C1688 C1686 1.378 . S
C1688 C1689 1.367 . S
C1689 C1688 1.367 . S
C1689 C1691 1.433 . S
C1690 C1686 1.350 . S
C1690 C1687 1.463 . S
C1690 N1694 1.427 . S
C1691 H1681 0.929 . S
C1691 C1689 1.433 . S
C1691 N1694 1.384 . S
C1692 H1683 0.929 . S
C1692 C1684 1.378 . S
C1692 C1687 1.350 . S
C1693 H1680 0.929 . S
C1693 C1685 1.433 . S
C1693 N1695 1.384 . S
N1694 C1690 1.427 . S
N1694 C1691 1.384 . S
N1695 C1687 1.427 . S
N1695 C1693 1.384 . S
H1696 C1702 0.930 . S
H1697 C1706 0.930 1_556 S
H1698 C1711 0.929 . S
H1699 C1709 0.929 . S
H1700 C1704 0.929 . S
H1701 C1710 0.929 . S
C1702 H1696 0.930 . S
C1702 C1703 1.367 . S
C1702 C1710 1.378 . S
C1703 C1702 1.367 . S
C1703 C1711 1.433 . S
C1704 H1700 0.929 . S
C1704 C1706 1.378 . S
C1704 C1708 1.350 . S
C1705 C1708 1.463 . S
C1705 C1710 1.350 . S
C1705 N1713 1.427 . S
C1706 H1697 0.930 1_554 S
C1706 C1704 1.378 . S
C1706 C1707 1.367 . S
C1707 C1706 1.367 . S
C1707 C1709 1.433 . S
C1708 C1704 1.350 . S
C1708 C1705 1.463 . S
C1708 N1712 1.427 . S
C1709 H1699 0.929 . S
C1709 C1707 1.433 . S
C1709 N1712 1.384 . S
C1710 H1701 0.929 . S
C1710 C1702 1.378 . S
C1710 C1705 1.350 . S
C1711 H1698 0.929 . S
C1711 C1703 1.433 . S
C1711 N1713 1.384 . S
N1712 C1708 1.427 . S
N1712 C1709 1.384 . S
N1713 C1705 1.427 . S
N1713 C1711 1.384 . S
H1714 C1720 0.930 . S
H1715 C1724 0.930 . S
H1716 C1729 0.929 . S
H1717 C1727 0.929 . S
H1718 C1722 0.929 . S
H1719 C1728 0.929 . S
C1720 H1714 0.930 . S
C1720 C1721 1.367 . S
C1720 C1728 1.378 . S
C1721 C1720 1.367 . S
C1721 C1729 1.433 . S
C1722 H1718 0.929 . S
C1722 C1724 1.378 . S
C1722 C1726 1.350 . S
C1723 C1726 1.463 . S
C1723 C1728 1.350 . S
C1723 N1731 1.427 . S
C1724 H1715 0.930 . S
C1724 C1722 1.378 . S
C1724 C1725 1.367 . S
C1725 C1724 1.367 . S
C1725 C1727 1.433 . S
C1726 C1722 1.350 . S
C1726 C1723 1.463 . S
C1726 N1730 1.427 . S
C1727 H1717 0.929 . S
C1727 C1725 1.433 . S
C1727 N1730 1.384 . S
C1728 H1719 0.929 . S
C1728 C1720 1.378 . S
C1728 C1723 1.350 . S
C1729 H1716 0.929 . S
C1729 C1721 1.433 . S
C1729 N1731 1.384 . S
N1730 C1726 1.427 . S
N1730 C1727 1.384 . S
N1731 C1723 1.427 . S
N1731 C1729 1.384 . S
H1732 C1738 0.930 . S
H1733 C1742 0.930 . S
H1734 C1747 0.929 . S
H1735 C1745 0.929 . S
H1736 C1740 0.929 . S
H1737 C1746 0.929 . S
C1738 H1732 0.930 . S
C1738 C1739 1.367 . S
C1738 C1746 1.378 . S
C1739 C1738 1.367 . S
C1739 C1747 1.433 . S
C1740 H1736 0.929 . S
C1740 C1742 1.378 . S
C1740 C1744 1.350 . S
C1741 C1744 1.463 . S
C1741 C1746 1.350 . S
C1741 N1749 1.427 . S
C1742 H1733 0.930 . S
C1742 C1740 1.378 . S
C1742 C1743 1.367 . S
C1743 C1742 1.367 . S
C1743 C1745 1.433 . S
C1744 C1740 1.350 . S
C1744 C1741 1.463 . S
C1744 N1748 1.427 . S
C1745 H1735 0.929 . S
C1745 C1743 1.433 . S
C1745 N1748 1.384 . S
C1746 H1737 0.929 . S
C1746 C1738 1.378 . S
C1746 C1741 1.350 . S
C1747 H1734 0.929 . S
C1747 C1739 1.433 . S
C1747 N1749 1.384 . S
N1748 C1744 1.427 . S
N1748 C1745 1.384 . S
N1749 C1741 1.427 . S
N1749 C1747 1.384 . S
H1750 C1756 0.930 . S
H1751 C1760 0.930 . S
H1752 C1765 0.929 . S
H1753 C1763 0.929 . S
H1754 C1758 0.929 . S
H1755 C1764 0.929 . S
C1756 H1750 0.930 . S
C1756 C1757 1.367 . S
C1756 C1764 1.378 . S
C1757 C1756 1.367 . S
C1757 C1765 1.433 . S
C1758 H1754 0.929 . S
C1758 C1760 1.378 . S
C1758 C1762 1.350 . S
C1759 C1762 1.463 . S
C1759 C1764 1.350 . S
C1759 N1767 1.427 . S
C1760 H1751 0.930 . S
C1760 C1758 1.378 . S
C1760 C1761 1.367 . S
C1761 C1760 1.367 . S
C1761 C1763 1.433 . S
C1762 C1758 1.350 . S
C1762 C1759 1.463 . S
C1762 N1766 1.427 . S
C1763 H1753 0.929 . S
C1763 C1761 1.433 . S
C1763 N1766 1.384 . S
C1764 H1755 0.929 . S
C1764 C1756 1.378 . S
C1764 C1759 1.350 . S
C1765 H1752 0.929 . S
C1765 C1757 1.433 . S
C1765 N1767 1.384 . S
N1766 C1762 1.427 . S
N1766 C1763 1.384 . S
N1767 C1759 1.427 . S
N1767 C1765 1.384 . S
H1768 C1774 0.930 . S
H1769 C1778 0.930 . S
H1770 C1783 0.929 . S
H1771 C1781 0.929 . S
H1772 C1776 0.929 . S
H1773 C1782 0.929 . S
C1774 H1768 0.930 . S
C1774 C1775 1.367 . S
C1774 C1782 1.378 . S
C1775 C1774 1.367 . S
C1775 C1783 1.433 . S
C1776 H1772 0.929 . S
C1776 C1778 1.378 . S
C1776 C1780 1.350 . S
C1777 C1780 1.463 . S
C1777 C1782 1.350 . S
C1777 N1785 1.427 . S
C1778 H1769 0.930 . S
C1778 C1776 1.378 . S
C1778 C1779 1.367 . S
C1779 C1778 1.367 . S
C1779 C1781 1.433 . S
C1780 C1776 1.350 . S
C1780 C1777 1.463 . S
C1780 N1784 1.427 . S
C1781 H1771 0.929 . S
C1781 C1779 1.433 . S
C1781 N1784 1.384 . S
C1782 H1773 0.929 . S
C1782 C1774 1.378 . S
C1782 C1777 1.350 . S
C1783 H1770 0.929 . S
C1783 C1775 1.433 . S
C1783 N1785 1.384 . S
N1784 C1780 1.427 . S
N1784 C1781 1.384 . S
N1785 C1777 1.427 . S
N1785 C1783 1.384 . S
H1786 C1792 0.930 . S
H1787 C1796 0.930 . S
H1788 C1801 0.929 . S
H1789 C1799 0.929 . S
H1790 C1794 0.929 . S
H1791 C1800 0.929 . S
C1792 H1786 0.930 . S
C1792 C1793 1.367 . S
C1792 C1800 1.378 . S
C1793 C1792 1.367 . S
C1793 C1801 1.433 . S
C1794 H1790 0.929 . S
C1794 C1796 1.378 . S
C1794 C1798 1.350 . S
C1795 C1798 1.463 . S
C1795 C1800 1.350 . S
C1795 N1803 1.427 . S
C1796 H1787 0.930 . S
C1796 C1794 1.378 . S
C1796 C1797 1.367 . S
C1797 C1796 1.367 . S
C1797 C1799 1.433 . S
C1798 C1794 1.350 . S
C1798 C1795 1.463 . S
C1798 N1802 1.427 . S
C1799 H1789 0.929 . S
C1799 C1797 1.433 . S
C1799 N1802 1.384 . S
C1800 H1791 0.929 . S
C1800 C1792 1.378 . S
C1800 C1795 1.350 . S
C1801 H1788 0.929 . S
C1801 C1793 1.433 . S
C1801 N1803 1.384 . S
N1802 C1798 1.427 . S
N1802 C1799 1.384 . S
N1803 C1795 1.427 . S
N1803 C1801 1.384 . S
H1804 C1810 0.930 . S
H1805 C1814 0.930 . S
H1806 C1819 0.929 . S
H1807 C1817 0.929 . S
H1808 C1812 0.929 . S
H1809 C1818 0.929 . S
C1810 H1804 0.930 . S
C1810 C1811 1.367 . S
C1810 C1818 1.378 . S
C1811 C1810 1.367 . S
C1811 C1819 1.433 . S
C1812 H1808 0.929 . S
C1812 C1814 1.378 . S
C1812 C1816 1.350 . S
C1813 C1816 1.463 . S
C1813 C1818 1.350 . S
C1813 N1821 1.427 . S
C1814 H1805 0.930 . S
C1814 C1812 1.378 . S
C1814 C1815 1.367 . S
C1815 C1814 1.367 . S
C1815 C1817 1.433 . S
C1816 C1812 1.350 . S
C1816 C1813 1.463 . S
C1816 N1820 1.427 . S
C1817 H1807 0.929 . S
C1817 C1815 1.433 . S
C1817 N1820 1.384 . S
C1818 H1809 0.929 . S
C1818 C1810 1.378 . S
C1818 C1813 1.350 . S
C1819 H1806 0.929 . S
C1819 C1811 1.433 . S
C1819 N1821 1.384 . S
N1820 C1816 1.427 . S
N1820 C1817 1.384 . S
N1821 C1813 1.427 . S
N1821 C1819 1.384 . S
H1822 C1828 0.930 . S
H1823 C1832 0.930 . S
H1824 C1837 0.929 . S
H1825 C1835 0.929 . S
H1826 C1830 0.929 . S
H1827 C1836 0.929 . S
C1828 H1822 0.930 . S
C1828 C1829 1.367 . S
C1828 C1836 1.378 . S
C1829 C1828 1.367 . S
C1829 C1837 1.433 . S
C1830 H1826 0.929 . S
C1830 C1832 1.378 . S
C1830 C1834 1.350 . S
C1831 C1834 1.463 . S
C1831 C1836 1.350 . S
C1831 N1839 1.427 . S
C1832 H1823 0.930 . S
C1832 C1830 1.378 . S
C1832 C1833 1.367 . S
C1833 C1832 1.367 . S
C1833 C1835 1.433 . S
C1834 C1830 1.350 . S
C1834 C1831 1.463 . S
C1834 N1838 1.427 . S
C1835 H1825 0.929 . S
C1835 C1833 1.433 . S
C1835 N1838 1.384 . S
C1836 H1827 0.929 . S
C1836 C1828 1.378 . S
C1836 C1831 1.350 . S
C1837 H1824 0.929 . S
C1837 C1829 1.433 . S
C1837 N1839 1.384 . S
N1838 C1834 1.427 . S
N1838 C1835 1.384 . S
N1839 C1831 1.427 . S
N1839 C1837 1.384 . S
H1840 C1846 0.930 . S
H1841 C1850 0.930 . S
H1842 C1855 0.929 . S
H1843 C1853 0.929 . S
H1844 C1848 0.929 . S
H1845 C1854 0.929 . S
C1846 H1840 0.930 . S
C1846 C1847 1.367 . S
C1846 C1854 1.378 . S
C1847 C1846 1.367 . S
C1847 C1855 1.433 . S
C1848 H1844 0.929 . S
C1848 C1850 1.378 . S
C1848 C1852 1.350 . S
C1849 C1852 1.463 . S
C1849 C1854 1.350 . S
C1849 N1857 1.427 . S
C1850 H1841 0.930 . S
C1850 C1848 1.378 . S
C1850 C1851 1.367 . S
C1851 C1850 1.367 . S
C1851 C1853 1.433 . S
C1852 C1848 1.350 . S
C1852 C1849 1.463 . S
C1852 N1856 1.427 . S
C1853 H1843 0.929 . S
C1853 C1851 1.433 . S
C1853 N1856 1.384 . S
C1854 H1845 0.929 . S
C1854 C1846 1.378 . S
C1854 C1849 1.350 . S
C1855 H1842 0.929 . S
C1855 C1847 1.433 . S
C1855 N1857 1.384 . S
N1856 C1852 1.427 . S
N1856 C1853 1.384 . S
N1857 C1849 1.427 . S
N1857 C1855 1.384 . S
H1858 C1864 0.930 . S
H1859 C1868 0.930 . S
H1860 C1873 0.929 . S
H1861 C1871 0.929 . S
H1862 C1866 0.929 . S
H1863 C1872 0.929 . S
C1864 H1858 0.930 . S
C1864 C1865 1.367 . S
C1864 C1872 1.378 . S
C1865 C1864 1.367 . S
C1865 C1873 1.433 . S
C1866 H1862 0.929 . S
C1866 C1868 1.378 . S
C1866 C1870 1.350 . S
C1867 C1870 1.463 . S
C1867 C1872 1.350 . S
C1867 N1875 1.427 . S
C1868 H1859 0.930 . S
C1868 C1866 1.378 . S
C1868 C1869 1.367 . S
C1869 C1868 1.367 . S
C1869 C1871 1.433 . S
C1870 C1866 1.350 . S
C1870 C1867 1.463 . S
C1870 N1874 1.427 . S
C1871 H1861 0.929 . S
C1871 C1869 1.433 . S
C1871 N1874 1.384 . S
C1872 H1863 0.929 . S
C1872 C1864 1.378 . S
C1872 C1867 1.350 . S
C1873 H1860 0.929 . S
C1873 C1865 1.433 . S
C1873 N1875 1.384 . S
N1874 C1870 1.427 . S
N1874 C1871 1.384 . S
N1875 C1867 1.427 . S
N1875 C1873 1.384 . S
H1876 C1882 0.930 . S
H1877 C1886 0.930 . S
H1878 C1891 0.929 1_655 S
H1879 C1889 0.929 . S
H1880 C1884 0.929 . S
H1881 C1890 0.929 . S
C1882 H1876 0.930 . S
C1882 C1883 1.367 . S
C1882 C1890 1.378 . S
C1883 C1882 1.367 . S
C1883 C1891 1.433 . S
C1884 H1880 0.929 . S
C1884 C1886 1.378 . S
C1884 C1888 1.350 1_554 S
C1885 C1888 1.463 . S
C1885 C1890 1.350 . S
C1885 N1893 1.427 . S
C1886 H1877 0.930 . S
C1886 C1884 1.378 . S
C1886 C1887 1.367 . S
C1887 C1886 1.367 . S
C1887 C1889 1.433 1_554 S
C1888 C1884 1.350 1_556 S
C1888 C1885 1.463 . S
C1888 N1892 1.427 . S
C1889 H1879 0.929 . S
C1889 C1887 1.433 1_556 S
C1889 N1892 1.384 . S
C1890 H1881 0.929 . S
C1890 C1882 1.378 . S
C1890 C1885 1.350 . S
C1891 H1878 0.929 1_455 S
C1891 C1883 1.433 . S
C1891 N1893 1.384 . S
N1892 C1888 1.427 . S
N1892 C1889 1.384 . S
N1893 C1885 1.427 . S
N1893 C1891 1.384 . S
H1894 C1900 0.930 . S
H1895 C1904 0.930 . S
H1896 C1909 0.929 . S
H1897 C1907 0.929 . S
H1898 C1902 0.929 . S
H1899 C1908 0.929 . S
C1900 H1894 0.930 . S
C1900 C1901 1.367 . S
C1900 C1908 1.378 1_455 S
C1901 C1900 1.367 . S
C1901 C1909 1.433 . S
C1902 H1898 0.929 . S
C1902 C1904 1.378 . S
C1902 C1906 1.350 . S
C1903 C1906 1.463 . S
C1903 C1908 1.350 . S
C1903 N1911 1.427 1_655 S
C1904 H1895 0.930 . S
C1904 C1902 1.378 . S
C1904 C1905 1.367 . S
C1905 C1904 1.367 . S
C1905 C1907 1.433 . S
C1906 C1902 1.350 . S
C1906 C1903 1.463 . S
C1906 N1910 1.427 . S
C1907 H1897 0.929 . S
C1907 C1905 1.433 . S
C1907 N1910 1.384 . S
C1908 H1899 0.929 . S
C1908 C1900 1.378 1_655 S
C1908 C1903 1.350 . S
C1909 H1896 0.929 . S
C1909 C1901 1.433 . S
C1909 N1911 1.384 . S
N1910 C1906 1.427 . S
N1910 C1907 1.384 . S
N1911 C1903 1.427 1_455 S
N1911 C1909 1.384 . S
H1912 C1918 0.930 . S
H1913 C1922 0.930 . S
H1914 C1927 0.929 . S
H1915 C1925 0.929 . S
H1916 C1920 0.929 . S
H1917 C1926 0.929 . S
C1918 H1912 0.930 . S
C1918 C1919 1.367 . S
C1918 C1926 1.378 . S
C1919 C1918 1.367 . S
C1919 C1927 1.433 . S
C1920 H1916 0.929 . S
C1920 C1922 1.378 . S
C1920 C1924 1.350 . S
C1921 C1924 1.463 . S
C1921 C1926 1.350 . S
C1921 N1929 1.427 . S
C1922 H1913 0.930 . S
C1922 C1920 1.378 . S
C1922 C1923 1.367 . S
C1923 C1922 1.367 . S
C1923 C1925 1.433 . S
C1924 C1920 1.350 . S
C1924 C1921 1.463 . S
C1924 N1928 1.427 . S
C1925 H1915 0.929 . S
C1925 C1923 1.433 . S
C1925 N1928 1.384 . S
C1926 H1917 0.929 . S
C1926 C1918 1.378 . S
C1926 C1921 1.350 . S
C1927 H1914 0.929 . S
C1927 C1919 1.433 . S
C1927 N1929 1.384 . S
N1928 C1924 1.427 . S
N1928 C1925 1.384 . S
N1929 C1921 1.427 . S
N1929 C1927 1.384 . S
H1930 C1936 0.930 . S
H1931 C1940 0.930 . S
H1932 C1945 0.929 . S
H1933 C1943 0.929 . S
H1934 C1938 0.929 . S
H1935 C1944 0.929 . S
C1936 H1930 0.930 . S
C1936 C1937 1.367 . S
C1936 C1944 1.378 . S
C1937 C1936 1.367 . S
C1937 C1945 1.433 . S
C1938 H1934 0.929 . S
C1938 C1940 1.378 . S
C1938 C1942 1.350 . S
C1939 C1942 1.463 . S
C1939 C1944 1.350 . S
C1939 N1947 1.427 . S
C1940 H1931 0.930 . S
C1940 C1938 1.378 . S
C1940 C1941 1.367 . S
C1941 C1940 1.367 . S
C1941 C1943 1.433 . S
C1942 C1938 1.350 . S
C1942 C1939 1.463 . S
C1942 N1946 1.427 . S
C1943 H1933 0.929 . S
C1943 C1941 1.433 . S
C1943 N1946 1.384 . S
C1944 H1935 0.929 . S
C1944 C1936 1.378 . S
C1944 C1939 1.350 . S
C1945 H1932 0.929 . S
C1945 C1937 1.433 . S
C1945 N1947 1.384 . S
N1946 C1942 1.427 . S
N1946 C1943 1.384 . S
N1947 C1939 1.427 . S
N1947 C1945 1.384 . S
H1948 C1954 0.930 . S
H1949 C1958 0.930 . S
H1950 C1963 0.929 . S
H1951 C1961 0.929 . S
H1952 C1956 0.929 . S
H1953 C1962 0.929 . S
C1954 H1948 0.930 . S
C1954 C1955 1.367 . S
C1954 C1962 1.378 . S
C1955 C1954 1.367 . S
C1955 C1963 1.433 . S
C1956 H1952 0.929 . S
C1956 C1958 1.378 . S
C1956 C1960 1.350 . S
C1957 C1960 1.463 . S
C1957 C1962 1.350 . S
C1957 N1965 1.427 . S
C1958 H1949 0.930 . S
C1958 C1956 1.378 . S
C1958 C1959 1.367 . S
C1959 C1958 1.367 . S
C1959 C1961 1.433 . S
C1960 C1956 1.350 . S
C1960 C1957 1.463 . S
C1960 N1964 1.427 . S
C1961 H1951 0.929 . S
C1961 C1959 1.433 . S
C1961 N1964 1.384 . S
C1962 H1953 0.929 . S
C1962 C1954 1.378 . S
C1962 C1957 1.350 . S
C1963 H1950 0.929 . S
C1963 C1955 1.433 . S
C1963 N1965 1.384 . S
N1964 C1960 1.427 . S
N1964 C1961 1.384 . S
N1965 C1957 1.427 . S
N1965 C1963 1.384 . S
H1966 C1972 0.930 . S
H1967 C1976 0.930 . S
H1968 C1981 0.929 . S
H1969 C1979 0.929 . S
H1970 C1974 0.929 . S
H1971 C1980 0.929 . S
C1972 H1966 0.930 . S
C1972 C1973 1.367 . S
C1972 C1980 1.378 . S
C1973 C1972 1.367 . S
C1973 C1981 1.433 . S
C1974 H1970 0.929 . S
C1974 C1976 1.378 . S
C1974 C1978 1.350 . S
C1975 C1978 1.463 . S
C1975 C1980 1.350 . S
C1975 N1983 1.427 . S
C1976 H1967 0.930 . S
C1976 C1974 1.378 . S
C1976 C1977 1.367 . S
C1977 C1976 1.367 . S
C1977 C1979 1.433 . S
C1978 C1974 1.350 . S
C1978 C1975 1.463 . S
C1978 N1982 1.427 . S
C1979 H1969 0.929 . S
C1979 C1977 1.433 . S
C1979 N1982 1.384 . S
C1980 H1971 0.929 . S
C1980 C1972 1.378 . S
C1980 C1975 1.350 . S
C1981 H1968 0.929 . S
C1981 C1973 1.433 . S
C1981 N1983 1.384 . S
N1982 C1978 1.427 . S
N1982 C1979 1.384 . S
N1983 C1975 1.427 . S
N1983 C1981 1.384 . S
H1984 C1990 0.930 . S
H1985 C1994 0.930 . S
H1986 C1999 0.929 . S
H1987 C1997 0.929 . S
H1988 C1992 0.929 . S
H1989 C1998 0.929 . S
C1990 H1984 0.930 . S
C1990 C1991 1.367 . S
C1990 C1998 1.378 . S
C1991 C1990 1.367 . S
C1991 C1999 1.433 . S
C1992 H1988 0.929 . S
C1992 C1994 1.378 . S
C1992 C1996 1.350 . S
C1993 C1996 1.463 . S
C1993 C1998 1.350 . S
C1993 N2001 1.427 . S
C1994 H1985 0.930 . S
C1994 C1992 1.378 . S
C1994 C1995 1.367 . S
C1995 C1994 1.367 . S
C1995 C1997 1.433 . S
C1996 C1992 1.350 . S
C1996 C1993 1.463 . S
C1996 N2000 1.427 . S
C1997 H1987 0.929 . S
C1997 C1995 1.433 . S
C1997 N2000 1.384 . S
C1998 H1989 0.929 . S
C1998 C1990 1.378 . S
C1998 C1993 1.350 . S
C1999 H1986 0.929 . S
C1999 C1991 1.433 . S
C1999 N2001 1.384 . S
N2000 C1996 1.427 . S
N2000 C1997 1.384 . S
N2001 C1993 1.427 . S
N2001 C1999 1.384 . S
H2002 C2008 0.930 . S
H2003 C2012 0.930 . S
H2004 C2017 0.929 . S
H2005 C2015 0.929 . S
H2006 C2010 0.929 . S
H2007 C2016 0.929 . S
C2008 H2002 0.930 . S
C2008 C2009 1.367 . S
C2008 C2016 1.378 1_554 S
C2009 C2008 1.367 . S
C2009 C2017 1.433 1_554 S
C2010 H2006 0.929 . S
C2010 C2012 1.378 . S
C2010 C2014 1.350 . S
C2011 C2014 1.463 . S
C2011 C2016 1.350 . S
C2011 N2019 1.427 . S
C2012 H2003 0.930 . S
C2012 C2010 1.378 . S
C2012 C2013 1.367 . S
C2013 C2012 1.367 . S
C2013 C2015 1.433 . S
C2014 C2010 1.350 . S
C2014 C2011 1.463 . S
C2014 N2018 1.427 . S
C2015 H2005 0.929 . S
C2015 C2013 1.433 . S
C2015 N2018 1.384 . S
C2016 H2007 0.929 . S
C2016 C2008 1.378 1_556 S
C2016 C2011 1.350 . S
C2017 H2004 0.929 . S
C2017 C2009 1.433 1_556 S
C2017 N2019 1.384 . S
N2018 C2014 1.427 . S
N2018 C2015 1.384 . S
N2019 C2011 1.427 . S
N2019 C2017 1.384 . S
H2020 C2026 0.930 . S
H2021 C2030 0.930 . S
H2022 C2035 0.929 . S
H2023 C2033 0.929 . S
H2024 C2028 0.929 . S
H2025 C2034 0.929 . S
C2026 H2020 0.930 . S
C2026 C2027 1.367 . S
C2026 C2034 1.378 . S
C2027 C2026 1.367 . S
C2027 C2035 1.433 . S
C2028 H2024 0.929 . S
C2028 C2030 1.378 . S
C2028 C2032 1.350 . S
C2029 C2032 1.463 . S
C2029 C2034 1.350 . S
C2029 N2037 1.427 . S
C2030 H2021 0.930 . S
C2030 C2028 1.378 . S
C2030 C2031 1.367 . S
C2031 C2030 1.367 . S
C2031 C2033 1.433 . S
C2032 C2028 1.350 . S
C2032 C2029 1.463 . S
C2032 N2036 1.427 . S
C2033 H2023 0.929 . S
C2033 C2031 1.433 . S
C2033 N2036 1.384 . S
C2034 H2025 0.929 . S
C2034 C2026 1.378 . S
C2034 C2029 1.350 . S
C2035 H2022 0.929 . S
C2035 C2027 1.433 . S
C2035 N2037 1.384 . S
N2036 C2032 1.427 . S
N2036 C2033 1.384 . S
N2037 C2029 1.427 . S
N2037 C2035 1.384 . S
H2038 C2044 0.930 . S
H2039 C2048 0.930 . S
H2040 C2053 0.929 . S
H2041 C2051 0.929 . S
H2042 C2046 0.929 . S
H2043 C2052 0.929 . S
C2044 H2038 0.930 . S
C2044 C2045 1.367 . S
C2044 C2052 1.378 . S
C2045 C2044 1.367 . S
C2045 C2053 1.433 . S
C2046 H2042 0.929 . S
C2046 C2048 1.378 . S
C2046 C2050 1.350 . S
C2047 C2050 1.463 . S
C2047 C2052 1.350 . S
C2047 N2055 1.427 . S
C2048 H2039 0.930 . S
C2048 C2046 1.378 . S
C2048 C2049 1.367 . S
C2049 C2048 1.367 . S
C2049 C2051 1.433 . S
C2050 C2046 1.350 . S
C2050 C2047 1.463 . S
C2050 N2054 1.427 . S
C2051 H2041 0.929 . S
C2051 C2049 1.433 . S
C2051 N2054 1.384 . S
C2052 H2043 0.929 . S
C2052 C2044 1.378 . S
C2052 C2047 1.350 . S
C2053 H2040 0.929 . S
C2053 C2045 1.433 . S
C2053 N2055 1.384 . S
N2054 C2050 1.427 . S
N2054 C2051 1.384 . S
N2055 C2047 1.427 . S
N2055 C2053 1.384 . S
H2056 C2062 0.930 . S
H2057 C2066 0.930 . S
H2058 C2071 0.929 . S
H2059 C2069 0.929 . S
H2060 C2064 0.929 . S
H2061 C2070 0.929 . S
C2062 H2056 0.930 . S
C2062 C2063 1.367 . S
C2062 C2070 1.378 . S
C2063 C2062 1.367 . S
C2063 C2071 1.433 . S
C2064 H2060 0.929 . S
C2064 C2066 1.378 . S
C2064 C2068 1.350 . S
C2065 C2068 1.463 . S
C2065 C2070 1.350 . S
C2065 N2073 1.427 . S
C2066 H2057 0.930 . S
C2066 C2064 1.378 . S
C2066 C2067 1.367 . S
C2067 C2066 1.367 . S
C2067 C2069 1.433 . S
C2068 C2064 1.350 . S
C2068 C2065 1.463 . S
C2068 N2072 1.427 . S
C2069 H2059 0.929 . S
C2069 C2067 1.433 . S
C2069 N2072 1.384 . S
C2070 H2061 0.929 . S
C2070 C2062 1.378 . S
C2070 C2065 1.350 . S
C2071 H2058 0.929 . S
C2071 C2063 1.433 . S
C2071 N2073 1.384 . S
N2072 C2068 1.427 . S
N2072 C2069 1.384 . S
N2073 C2065 1.427 . S
N2073 C2071 1.384 . S
H2074 C2080 0.930 . S
H2075 C2084 0.930 . S
H2076 C2089 0.929 . S
H2077 C2087 0.929 . S
H2078 C2082 0.929 . S
H2079 C2088 0.929 . S
C2080 H2074 0.930 . S
C2080 C2081 1.367 . S
C2080 C2088 1.378 . S
C2081 C2080 1.367 . S
C2081 C2089 1.433 . S
C2082 H2078 0.929 . S
C2082 C2084 1.378 . S
C2082 C2086 1.350 . S
C2083 C2086 1.463 . S
C2083 C2088 1.350 . S
C2083 N2091 1.427 . S
C2084 H2075 0.930 . S
C2084 C2082 1.378 . S
C2084 C2085 1.367 . S
C2085 C2084 1.367 . S
C2085 C2087 1.433 . S
C2086 C2082 1.350 . S
C2086 C2083 1.463 . S
C2086 N2090 1.427 . S
C2087 H2077 0.929 . S
C2087 C2085 1.433 . S
C2087 N2090 1.384 . S
C2088 H2079 0.929 . S
C2088 C2080 1.378 . S
C2088 C2083 1.350 . S
C2089 H2076 0.929 . S
C2089 C2081 1.433 . S
C2089 N2091 1.384 . S
N2090 C2086 1.427 . S
N2090 C2087 1.384 . S
N2091 C2083 1.427 . S
N2091 C2089 1.384 . S
H2092 C2098 0.930 . S
H2093 C2102 0.930 . S
H2094 C2107 0.929 . S
H2095 C2105 0.929 . S
H2096 C2100 0.929 . S
H2097 C2106 0.929 . S
C2098 H2092 0.930 . S
C2098 C2099 1.367 . S
C2098 C2106 1.378 . S
C2099 C2098 1.367 . S
C2099 C2107 1.433 . S
C2100 H2096 0.929 . S
C2100 C2102 1.378 . S
C2100 C2104 1.350 . S
C2101 C2104 1.463 . S
C2101 C2106 1.350 . S
C2101 N2109 1.427 . S
C2102 H2093 0.930 . S
C2102 C2100 1.378 . S
C2102 C2103 1.367 . S
C2103 C2102 1.367 . S
C2103 C2105 1.433 . S
C2104 C2100 1.350 . S
C2104 C2101 1.463 . S
C2104 N2108 1.427 . S
C2105 H2095 0.929 . S
C2105 C2103 1.433 . S
C2105 N2108 1.384 . S
C2106 H2097 0.929 . S
C2106 C2098 1.378 . S
C2106 C2101 1.350 . S
C2107 H2094 0.929 . S
C2107 C2099 1.433 . S
C2107 N2109 1.384 . S
N2108 C2104 1.427 . S
N2108 C2105 1.384 . S
N2109 C2101 1.427 . S
N2109 C2107 1.384 . S
H2110 C2116 0.930 . S
H2111 C2120 0.930 . S
H2112 C2125 0.929 . S
H2113 C2123 0.929 . S
H2114 C2118 0.929 . S
H2115 C2124 0.929 . S
C2116 H2110 0.930 . S
C2116 C2117 1.367 . S
C2116 C2124 1.378 . S
C2117 C2116 1.367 . S
C2117 C2125 1.433 . S
C2118 H2114 0.929 . S
C2118 C2120 1.378 . S
C2118 C2122 1.350 . S
C2119 C2122 1.463 . S
C2119 C2124 1.350 . S
C2119 N2127 1.427 . S
C2120 H2111 0.930 . S
C2120 C2118 1.378 . S
C2120 C2121 1.367 . S
C2121 C2120 1.367 . S
C2121 C2123 1.433 . S
C2122 C2118 1.350 . S
C2122 C2119 1.463 . S
C2122 N2126 1.427 . S
C2123 H2113 0.929 . S
C2123 C2121 1.433 . S
C2123 N2126 1.384 . S
C2124 H2115 0.929 . S
C2124 C2116 1.378 . S
C2124 C2119 1.350 . S
C2125 H2112 0.929 . S
C2125 C2117 1.433 . S
C2125 N2127 1.384 . S
N2126 C2122 1.427 . S
N2126 C2123 1.384 . S
N2127 C2119 1.427 . S
N2127 C2125 1.384 . S
H2128 C2134 0.930 . S
H2129 C2138 0.930 . S
H2130 C2143 0.929 . S
H2131 C2141 0.929 . S
H2132 C2136 0.929 . S
H2133 C2142 0.929 . S
C2134 H2128 0.930 . S
C2134 C2135 1.367 . S
C2134 C2142 1.378 . S
C2135 C2134 1.367 . S
C2135 C2143 1.433 . S
C2136 H2132 0.929 . S
C2136 C2138 1.378 . S
C2136 C2140 1.350 . S
C2137 C2140 1.463 . S
C2137 C2142 1.350 . S
C2137 N2145 1.427 . S
C2138 H2129 0.930 . S
C2138 C2136 1.378 . S
C2138 C2139 1.367 . S
C2139 C2138 1.367 . S
C2139 C2141 1.433 . S
C2140 C2136 1.350 . S
C2140 C2137 1.463 . S
C2140 N2144 1.427 . S
C2141 H2131 0.929 . S
C2141 C2139 1.433 . S
C2141 N2144 1.384 . S
C2142 H2133 0.929 . S
C2142 C2134 1.378 . S
C2142 C2137 1.350 . S
C2143 H2130 0.929 . S
C2143 C2135 1.433 . S
C2143 N2145 1.384 . S
N2144 C2140 1.427 . S
N2144 C2141 1.384 . S
N2145 C2137 1.427 . S
N2145 C2143 1.384 . S
H2146 C2152 0.930 . S
H2147 C2156 0.930 . S
H2148 C2161 0.929 . S
H2149 C2159 0.929 . S
H2150 C2154 0.929 . S
H2151 C2160 0.929 . S
C2152 H2146 0.930 . S
C2152 C2153 1.367 . S
C2152 C2160 1.378 . S
C2153 C2152 1.367 . S
C2153 C2161 1.433 . S
C2154 H2150 0.929 . S
C2154 C2156 1.378 . S
C2154 C2158 1.350 . S
C2155 C2158 1.463 . S
C2155 C2160 1.350 . S
C2155 N2163 1.427 . S
C2156 H2147 0.930 . S
C2156 C2154 1.378 . S
C2156 C2157 1.367 . S
C2157 C2156 1.367 . S
C2157 C2159 1.433 . S
C2158 C2154 1.350 . S
C2158 C2155 1.463 . S
C2158 N2162 1.427 . S
C2159 H2149 0.929 . S
C2159 C2157 1.433 . S
C2159 N2162 1.384 . S
C2160 H2151 0.929 . S
C2160 C2152 1.378 . S
C2160 C2155 1.350 . S
C2161 H2148 0.929 . S
C2161 C2153 1.433 . S
C2161 N2163 1.384 . S
N2162 C2158 1.427 . S
N2162 C2159 1.384 . S
N2163 C2155 1.427 . S
N2163 C2161 1.384 . S
H2164 C2170 0.930 . S
H2165 C2174 0.930 . S
H2166 C2179 0.929 . S
H2167 C2177 0.929 . S
H2168 C2172 0.929 . S
H2169 C2178 0.929 1_545 S
C2170 H2164 0.930 . S
C2170 C2171 1.361 1_545 S
C2170 C2178 1.378 1_545 S
C2171 C2170 1.361 1_565 S
C2171 C2179 1.452 . S
C2172 H2168 0.929 . S
C2172 C2174 1.378 . S
C2172 C2176 1.350 . S
C2173 C2176 1.463 . S
C2173 C2178 1.350 . S
C2173 N2181 1.427 . S
C2174 H2165 0.930 . S
C2174 C2172 1.378 . S
C2174 C2175 1.367 . S
C2175 C2174 1.367 . S
C2175 C2177 1.433 . S
C2176 C2172 1.350 . S
C2176 C2173 1.463 . S
C2176 N2180 1.427 . S
C2177 H2167 0.929 . S
C2177 C2175 1.433 . S
C2177 N2180 1.384 . S
C2178 H2169 0.929 1_565 S
C2178 C2170 1.378 1_565 S
C2178 C2173 1.350 . S
C2179 H2166 0.929 . S
C2179 C2171 1.452 . S
C2179 N2181 1.384 . S
N2180 C2176 1.427 . S
N2180 C2177 1.384 . S
N2181 C2173 1.427 . S
N2181 C2179 1.384 . S
H2182 C2188 0.930 . S
H2183 C2192 0.903 1_565 S
H2184 C2197 0.929 . S
H2185 C2195 0.954 . S
H2186 C2190 0.929 . S
H2187 C2196 0.929 1_545 S
C2188 H2182 0.930 . S
C2188 C2189 1.367 1_556 S
C2188 C2196 1.378 . S
C2189 C2188 1.367 1_554 S
C2189 C2197 1.433 . S
C2190 H2186 0.929 . S
C2190 C2192 1.369 1_565 S
C2190 C2194 1.350 . S
C2191 C2194 1.463 . S
C2191 C2196 1.350 1_554 S
C2191 N2199 1.427 . S
C2192 H2183 0.903 1_545 S
C2192 C2190 1.369 1_545 S
C2192 C2193 1.405 . S
C2193 C2192 1.405 . S
C2193 C2195 1.433 . S
C2194 C2190 1.350 . S
C2194 C2191 1.463 . S
C2194 N2198 1.427 1_565 S
C2195 H2185 0.954 . S
C2195 C2193 1.433 . S
C2195 N2198 1.384 . S
C2196 H2187 0.929 1_565 S
C2196 C2188 1.378 . S
C2196 C2191 1.350 1_556 S
C2197 H2184 0.929 . S
C2197 C2189 1.433 . S
C2197 N2199 1.384 . S
N2198 C2194 1.427 1_545 S
N2198 C2195 1.384 . S
N2199 C2191 1.427 . S
N2199 C2197 1.384 . S
H2200 C2206 0.930 . S
H2201 C2210 0.930 . S
H2202 C2215 0.929 . S
H2203 C2213 0.929 . S
H2204 C2208 0.929 . S
H2205 C2214 0.929 . S
C2206 H2200 0.930 . S
C2206 C2207 1.367 . S
C2206 C2214 1.378 . S
C2207 C2206 1.367 . S
C2207 C2215 1.433 . S
C2208 H2204 0.929 . S
C2208 C2210 1.378 . S
C2208 C2212 1.350 . S
C2209 C2212 1.463 . S
C2209 C2214 1.350 . S
C2209 N2217 1.427 . S
C2210 H2201 0.930 . S
C2210 C2208 1.378 . S
C2210 C2211 1.367 . S
C2211 C2210 1.367 . S
C2211 C2213 1.433 . S
C2212 C2208 1.350 . S
C2212 C2209 1.463 . S
C2212 N2216 1.427 . S
C2213 H2203 0.929 . S
C2213 C2211 1.433 . S
C2213 N2216 1.384 . S
C2214 H2205 0.929 . S
C2214 C2206 1.378 . S
C2214 C2209 1.350 . S
C2215 H2202 0.929 . S
C2215 C2207 1.433 . S
C2215 N2217 1.384 . S
N2216 C2212 1.427 . S
N2216 C2213 1.384 . S
N2217 C2209 1.427 . S
N2217 C2215 1.384 . S
H2218 C2224 0.930 . S
H2219 C2228 0.930 . S
H2220 C2233 0.929 . S
H2221 C2231 0.929 . S
H2222 C2226 0.929 . S
H2223 C2232 0.929 . S
C2224 H2218 0.930 . S
C2224 C2225 1.367 . S
C2224 C2232 1.378 . S
C2225 C2224 1.367 . S
C2225 C2233 1.433 . S
C2226 H2222 0.929 . S
C2226 C2228 1.378 . S
C2226 C2230 1.350 . S
C2227 C2230 1.463 . S
C2227 C2232 1.350 . S
C2227 N2235 1.427 . S
C2228 H2219 0.930 . S
C2228 C2226 1.378 . S
C2228 C2229 1.367 . S
C2229 C2228 1.367 . S
C2229 C2231 1.433 . S
C2230 C2226 1.350 . S
C2230 C2227 1.463 . S
C2230 N2234 1.427 . S
C2231 H2221 0.929 . S
C2231 C2229 1.433 . S
C2231 N2234 1.384 . S
C2232 H2223 0.929 . S
C2232 C2224 1.378 . S
C2232 C2227 1.350 . S
C2233 H2220 0.929 . S
C2233 C2225 1.433 . S
C2233 N2235 1.384 . S
N2234 C2230 1.427 . S
N2234 C2231 1.384 . S
N2235 C2227 1.427 . S
N2235 C2233 1.384 . S
H2236 C2242 0.930 . S
H2237 C2246 0.930 . S
H2238 C2251 0.929 . S
H2239 C2249 0.929 . S
H2240 C2244 0.929 . S
H2241 C2250 0.929 . S
C2242 H2236 0.930 . S
C2242 C2243 1.367 . S
C2242 C2250 1.378 . S
C2243 C2242 1.367 . S
C2243 C2251 1.433 . S
C2244 H2240 0.929 . S
C2244 C2246 1.378 . S
C2244 C2248 1.350 . S
C2245 C2248 1.463 . S
C2245 C2250 1.350 . S
C2245 N2253 1.427 . S
C2246 H2237 0.930 . S
C2246 C2244 1.378 . S
C2246 C2247 1.367 . S
C2247 C2246 1.367 . S
C2247 C2249 1.433 . S
C2248 C2244 1.350 . S
C2248 C2245 1.463 . S
C2248 N2252 1.427 . S
C2249 H2239 0.929 . S
C2249 C2247 1.433 . S
C2249 N2252 1.384 . S
C2250 H2241 0.929 . S
C2250 C2242 1.378 . S
C2250 C2245 1.350 . S
C2251 H2238 0.929 . S
C2251 C2243 1.433 . S
C2251 N2253 1.384 . S
N2252 C2248 1.427 . S
N2252 C2249 1.384 . S
N2253 C2245 1.427 . S
N2253 C2251 1.384 . S
H2254 C2260 0.930 . S
H2255 C2264 0.930 . S
H2256 C2269 0.929 . S
H2257 C2267 0.929 . S
H2258 C2262 0.929 . S
H2259 C2268 0.929 . S
C2260 H2254 0.930 . S
C2260 C2261 1.367 . S
C2260 C2268 1.378 . S
C2261 C2260 1.367 . S
C2261 C2269 1.433 . S
C2262 H2258 0.929 . S
C2262 C2264 1.378 . S
C2262 C2266 1.350 . S
C2263 C2266 1.463 . S
C2263 C2268 1.350 . S
C2263 N2271 1.427 . S
C2264 H2255 0.930 . S
C2264 C2262 1.378 . S
C2264 C2265 1.367 . S
C2265 C2264 1.367 . S
C2265 C2267 1.433 . S
C2266 C2262 1.350 . S
C2266 C2263 1.463 . S
C2266 N2270 1.427 . S
C2267 H2257 0.929 . S
C2267 C2265 1.433 . S
C2267 N2270 1.384 . S
C2268 H2259 0.929 . S
C2268 C2260 1.378 . S
C2268 C2263 1.350 . S
C2269 H2256 0.929 . S
C2269 C2261 1.433 . S
C2269 N2271 1.384 . S
N2270 C2266 1.427 . S
N2270 C2267 1.384 . S
N2271 C2263 1.427 . S
N2271 C2269 1.384 . S
H2272 C2278 0.930 . S
H2273 C2282 0.930 . S
H2274 C2287 0.929 . S
H2275 C2285 0.929 . S
H2276 C2280 0.929 . S
H2277 C2286 0.929 . S
C2278 H2272 0.930 . S
C2278 C2279 1.367 . S
C2278 C2286 1.378 . S
C2279 C2278 1.367 . S
C2279 C2287 1.433 . S
C2280 H2276 0.929 . S
C2280 C2282 1.378 . S
C2280 C2284 1.350 . S
C2281 C2284 1.463 . S
C2281 C2286 1.350 . S
C2281 N2289 1.427 . S
C2282 H2273 0.930 . S
C2282 C2280 1.378 . S
C2282 C2283 1.367 . S
C2283 C2282 1.367 . S
C2283 C2285 1.433 . S
C2284 C2280 1.350 . S
C2284 C2281 1.463 . S
C2284 N2288 1.427 . S
C2285 H2275 0.929 . S
C2285 C2283 1.433 . S
C2285 N2288 1.384 . S
C2286 H2277 0.929 . S
C2286 C2278 1.378 . S
C2286 C2281 1.350 . S
C2287 H2274 0.929 . S
C2287 C2279 1.433 . S
C2287 N2289 1.384 . S
N2288 C2284 1.427 . S
N2288 C2285 1.384 . S
N2289 C2281 1.427 . S
N2289 C2287 1.384 . S
H2290 C2296 0.930 . S
H2291 C2300 0.930 . S
H2292 C2305 0.929 . S
H2293 C2303 0.929 . S
H2294 C2298 0.929 . S
H2295 C2304 0.929 . S
C2296 H2290 0.930 . S
C2296 C2297 1.367 . S
C2296 C2304 1.378 . S
C2297 C2296 1.367 . S
C2297 C2305 1.433 . S
C2298 H2294 0.929 . S
C2298 C2300 1.378 . S
C2298 C2302 1.350 . S
C2299 C2302 1.463 . S
C2299 C2304 1.350 . S
C2299 N2307 1.427 . S
C2300 H2291 0.930 . S
C2300 C2298 1.378 . S
C2300 C2301 1.367 . S
C2301 C2300 1.367 . S
C2301 C2303 1.433 . S
C2302 C2298 1.350 . S
C2302 C2299 1.463 . S
C2302 N2306 1.427 . S
C2303 H2293 0.929 . S
C2303 C2301 1.433 . S
C2303 N2306 1.384 . S
C2304 H2295 0.929 . S
C2304 C2296 1.378 . S
C2304 C2299 1.350 . S
C2305 H2292 0.929 . S
C2305 C2297 1.433 . S
C2305 N2307 1.384 . S
N2306 C2302 1.427 . S
N2306 C2303 1.384 . S
N2307 C2299 1.427 . S
N2307 C2305 1.384 . S
H2308 C2314 0.930 . S
H2309 C2318 0.930 . S
H2310 C2323 0.929 . S
H2311 C2321 0.929 . S
H2312 C2316 0.929 . S
H2313 C2322 0.929 . S
C2314 H2308 0.930 . S
C2314 C2315 1.367 . S
C2314 C2322 1.378 . S
C2315 C2314 1.367 . S
C2315 C2323 1.433 . S
C2316 H2312 0.929 . S
C2316 C2318 1.378 . S
C2316 C2320 1.350 . S
C2317 C2320 1.463 . S
C2317 C2322 1.350 . S
C2317 N2325 1.427 . S
C2318 H2309 0.930 . S
C2318 C2316 1.378 . S
C2318 C2319 1.367 . S
C2319 C2318 1.367 . S
C2319 C2321 1.433 . S
C2320 C2316 1.350 . S
C2320 C2317 1.463 . S
C2320 N2324 1.427 . S
C2321 H2311 0.929 . S
C2321 C2319 1.433 . S
C2321 N2324 1.384 . S
C2322 H2313 0.929 . S
C2322 C2314 1.378 . S
C2322 C2317 1.350 . S
C2323 H2310 0.929 . S
C2323 C2315 1.433 . S
C2323 N2325 1.384 . S
N2324 C2320 1.427 . S
N2324 C2321 1.384 . S
N2325 C2317 1.427 . S
N2325 C2323 1.384 . S
H2326 C2332 0.930 . S
H2327 C2336 0.930 . S
H2328 C2341 0.929 . S
H2329 C2339 0.929 . S
H2330 C2334 0.929 . S
H2331 C2340 0.929 . S
C2332 H2326 0.930 . S
C2332 C2333 1.367 . S
C2332 C2340 1.378 . S
C2333 C2332 1.367 . S
C2333 C2341 1.433 . S
C2334 H2330 0.929 . S
C2334 C2336 1.378 . S
C2334 C2338 1.350 . S
C2335 C2338 1.463 . S
C2335 C2340 1.350 . S
C2335 N2343 1.427 . S
C2336 H2327 0.930 . S
C2336 C2334 1.378 . S
C2336 C2337 1.367 . S
C2337 C2336 1.367 . S
C2337 C2339 1.433 . S
C2338 C2334 1.350 . S
C2338 C2335 1.463 . S
C2338 N2342 1.427 . S
C2339 H2329 0.929 . S
C2339 C2337 1.433 . S
C2339 N2342 1.384 . S
C2340 H2331 0.929 . S
C2340 C2332 1.378 . S
C2340 C2335 1.350 . S
C2341 H2328 0.929 . S
C2341 C2333 1.433 . S
C2341 N2343 1.384 . S
N2342 C2338 1.427 . S
N2342 C2339 1.384 . S
N2343 C2335 1.427 . S
N2343 C2341 1.384 . S
H2344 C2350 0.930 . S
H2345 C2354 0.930 1_554 S
H2346 C2359 0.929 . S
H2347 C2357 0.929 . S
H2348 C2352 0.929 . S
H2349 C2358 0.929 . S
C2350 H2344 0.930 . S
C2350 C2351 1.367 . S
C2350 C2358 1.378 . S
C2351 C2350 1.367 . S
C2351 C2359 1.433 . S
C2352 H2348 0.929 . S
C2352 C2354 1.378 . S
C2352 C2356 1.350 . S
C2353 C2356 1.463 . S
C2353 C2358 1.350 . S
C2353 N2361 1.427 . S
C2354 H2345 0.930 1_556 S
C2354 C2352 1.378 . S
C2354 C2355 1.367 . S
C2355 C2354 1.367 . S
C2355 C2357 1.433 . S
C2356 C2352 1.350 . S
C2356 C2353 1.463 . S
C2356 N2360 1.427 . S
C2357 H2347 0.929 . S
C2357 C2355 1.433 . S
C2357 N2360 1.384 . S
C2358 H2349 0.929 . S
C2358 C2350 1.378 . S
C2358 C2353 1.350 . S
C2359 H2346 0.929 . S
C2359 C2351 1.433 . S
C2359 N2361 1.384 . S
N2360 C2356 1.427 . S
N2360 C2357 1.384 . S
N2361 C2353 1.427 . S
N2361 C2359 1.384 . S
H2362 C2368 0.930 . S
H2363 C2372 0.930 . S
H2364 C2377 0.929 . S
H2365 C2375 0.929 . S
H2366 C2370 0.929 . S
H2367 C2376 0.929 . S
C2368 H2362 0.930 . S
C2368 C2369 1.367 . S
C2368 C2376 1.378 . S
C2369 C2368 1.367 . S
C2369 C2377 1.433 . S
C2370 H2366 0.929 . S
C2370 C2372 1.378 . S
C2370 C2374 1.350 . S
C2371 C2374 1.463 . S
C2371 C2376 1.350 . S
C2371 N2379 1.427 . S
C2372 H2363 0.930 . S
C2372 C2370 1.378 . S
C2372 C2373 1.367 . S
C2373 C2372 1.367 . S
C2373 C2375 1.433 . S
C2374 C2370 1.350 . S
C2374 C2371 1.463 . S
C2374 N2378 1.427 . S
C2375 H2365 0.929 . S
C2375 C2373 1.433 . S
C2375 N2378 1.384 . S
C2376 H2367 0.929 . S
C2376 C2368 1.378 . S
C2376 C2371 1.350 . S
C2377 H2364 0.929 . S
C2377 C2369 1.433 . S
C2377 N2379 1.384 . S
N2378 C2374 1.427 . S
N2378 C2375 1.384 . S
N2379 C2371 1.427 . S
N2379 C2377 1.384 . S
H2380 C2386 0.930 . S
H2381 C2390 0.930 . S
H2382 C2395 0.929 . S
H2383 C2393 0.929 . S
H2384 C2388 0.929 . S
H2385 C2394 0.929 . S
C2386 H2380 0.930 . S
C2386 C2387 1.367 . S
C2386 C2394 1.378 . S
C2387 C2386 1.367 . S
C2387 C2395 1.433 . S
C2388 H2384 0.929 . S
C2388 C2390 1.378 . S
C2388 C2392 1.350 . S
C2389 C2392 1.463 . S
C2389 C2394 1.350 . S
C2389 N2397 1.427 . S
C2390 H2381 0.930 . S
C2390 C2388 1.378 . S
C2390 C2391 1.367 . S
C2391 C2390 1.367 . S
C2391 C2393 1.433 . S
C2392 C2388 1.350 . S
C2392 C2389 1.463 . S
C2392 N2396 1.427 . S
C2393 H2383 0.929 . S
C2393 C2391 1.433 . S
C2393 N2396 1.384 . S
C2394 H2385 0.929 . S
C2394 C2386 1.378 . S
C2394 C2389 1.350 . S
C2395 H2382 0.929 . S
C2395 C2387 1.433 . S
C2395 N2397 1.384 . S
N2396 C2392 1.427 . S
N2396 C2393 1.384 . S
N2397 C2389 1.427 . S
N2397 C2395 1.384 . S
H2398 C2404 0.930 . S
H2399 C2408 0.930 . S
H2400 C2413 0.929 . S
H2401 C2411 0.929 . S
H2402 C2406 0.929 . S
H2403 C2412 0.929 . S
C2404 H2398 0.930 . S
C2404 C2405 1.367 . S
C2404 C2412 1.378 . S
C2405 C2404 1.367 . S
C2405 C2413 1.433 . S
C2406 H2402 0.929 . S
C2406 C2408 1.378 . S
C2406 C2410 1.350 . S
C2407 C2410 1.463 . S
C2407 C2412 1.350 . S
C2407 N2415 1.427 . S
C2408 H2399 0.930 . S
C2408 C2406 1.378 . S
C2408 C2409 1.367 . S
C2409 C2408 1.367 . S
C2409 C2411 1.433 . S
C2410 C2406 1.350 . S
C2410 C2407 1.463 . S
C2410 N2414 1.427 . S
C2411 H2401 0.929 . S
C2411 C2409 1.433 . S
C2411 N2414 1.384 . S
C2412 H2403 0.929 . S
C2412 C2404 1.378 . S
C2412 C2407 1.350 . S
C2413 H2400 0.929 . S
C2413 C2405 1.433 . S
C2413 N2415 1.384 . S
N2414 C2410 1.427 . S
N2414 C2411 1.384 . S
N2415 C2407 1.427 . S
N2415 C2413 1.384 . S
H2416 C2422 0.930 . S
H2417 C2426 0.930 . S
H2418 C2431 0.929 . S
H2419 C2429 0.929 . S
H2420 C2424 0.929 . S
H2421 C2430 0.929 . S
C2422 H2416 0.930 . S
C2422 C2423 1.367 . S
C2422 C2430 1.378 . S
C2423 C2422 1.367 . S
C2423 C2431 1.433 . S
C2424 H2420 0.929 . S
C2424 C2426 1.378 . S
C2424 C2428 1.350 . S
C2425 C2428 1.463 . S
C2425 C2430 1.350 . S
C2425 N2433 1.427 . S
C2426 H2417 0.930 . S
C2426 C2424 1.378 . S
C2426 C2427 1.367 . S
C2427 C2426 1.367 . S
C2427 C2429 1.433 . S
C2428 C2424 1.350 . S
C2428 C2425 1.463 . S
C2428 N2432 1.427 . S
C2429 H2419 0.929 . S
C2429 C2427 1.433 . S
C2429 N2432 1.384 . S
C2430 H2421 0.929 . S
C2430 C2422 1.378 . S
C2430 C2425 1.350 . S
C2431 H2418 0.929 . S
C2431 C2423 1.433 . S
C2431 N2433 1.384 . S
N2432 C2428 1.427 . S
N2432 C2429 1.384 . S
N2433 C2425 1.427 . S
N2433 C2431 1.384 . S
H2434 C2440 0.930 . S
H2435 C2444 0.930 . S
H2436 C2449 0.929 . S
H2437 C2447 0.929 . S
H2438 C2442 0.929 . S
H2439 C2448 0.929 . S
C2440 H2434 0.930 . S
C2440 C2441 1.367 . S
C2440 C2448 1.378 . S
C2441 C2440 1.367 . S
C2441 C2449 1.433 . S
C2442 H2438 0.929 . S
C2442 C2444 1.378 . S
C2442 C2446 1.350 . S
C2443 C2446 1.463 . S
C2443 C2448 1.350 . S
C2443 N2451 1.427 . S
C2444 H2435 0.930 . S
C2444 C2442 1.378 . S
C2444 C2445 1.367 . S
C2445 C2444 1.367 . S
C2445 C2447 1.433 . S
C2446 C2442 1.350 . S
C2446 C2443 1.463 . S
C2446 N2450 1.427 . S
C2447 H2437 0.929 . S
C2447 C2445 1.433 . S
C2447 N2450 1.384 . S
C2448 H2439 0.929 . S
C2448 C2440 1.378 . S
C2448 C2443 1.350 . S
C2449 H2436 0.929 . S
C2449 C2441 1.433 . S
C2449 N2451 1.384 . S
N2450 C2446 1.427 . S
N2450 C2447 1.384 . S
N2451 C2443 1.427 . S
N2451 C2449 1.384 . S
H2452 C2458 0.930 . S
H2453 C2462 0.930 . S
H2454 C2467 0.929 . S
H2455 C2465 0.929 . S
H2456 C2460 0.929 . S
H2457 C2466 0.929 . S
C2458 H2452 0.930 . S
C2458 C2459 1.367 . S
C2458 C2466 1.378 . S
C2459 C2458 1.367 . S
C2459 C2467 1.433 . S
C2460 H2456 0.929 . S
C2460 C2462 1.378 . S
C2460 C2464 1.350 . S
C2461 C2464 1.463 1_655 S
C2461 C2466 1.350 . S
C2461 N2469 1.427 . S
C2462 H2453 0.930 . S
C2462 C2460 1.378 . S
C2462 C2463 1.367 . S
C2463 C2462 1.367 . S
C2463 C2465 1.433 . S
C2464 C2460 1.350 . S
C2464 C2461 1.463 1_455 S
C2464 N2468 1.427 . S
C2465 H2455 0.929 . S
C2465 C2463 1.433 . S
C2465 N2468 1.384 . S
C2466 H2457 0.929 . S
C2466 C2458 1.378 . S
C2466 C2461 1.350 . S
C2467 H2454 0.929 . S
C2467 C2459 1.433 . S
C2467 N2469 1.384 . S
N2468 C2464 1.427 . S
N2468 C2465 1.384 . S
N2469 C2461 1.427 . S
N2469 C2467 1.384 . S
H2470 C2476 0.930 . S
H2471 C2480 0.930 . S
H2472 C2485 0.929 . S
H2473 C2483 0.929 . S
H2474 C2478 0.929 . S
H2475 C2484 0.929 . S
C2476 H2470 0.930 . S
C2476 C2477 1.367 . S
C2476 C2484 1.378 . S
C2477 C2476 1.367 . S
C2477 C2485 1.433 . S
C2478 H2474 0.929 . S
C2478 C2480 1.378 . S
C2478 C2482 1.350 . S
C2479 C2482 1.463 . S
C2479 C2484 1.350 . S
C2479 N2487 1.427 . S
C2480 H2471 0.930 . S
C2480 C2478 1.378 . S
C2480 C2481 1.367 . S
C2481 C2480 1.367 . S
C2481 C2483 1.433 . S
C2482 C2478 1.350 . S
C2482 C2479 1.463 . S
C2482 N2486 1.427 . S
C2483 H2473 0.929 . S
C2483 C2481 1.433 . S
C2483 N2486 1.384 . S
C2484 H2475 0.929 . S
C2484 C2476 1.378 . S
C2484 C2479 1.350 . S
C2485 H2472 0.929 . S
C2485 C2477 1.433 . S
C2485 N2487 1.384 . S
N2486 C2482 1.427 . S
N2486 C2483 1.384 . S
N2487 C2479 1.427 . S
N2487 C2485 1.384 . S
H2488 C2494 0.930 . S
H2489 C2498 0.930 . S
H2490 C2503 0.929 . S
H2491 C2501 0.929 . S
H2492 C2496 0.929 . S
H2493 C2502 0.929 . S
C2494 H2488 0.930 . S
C2494 C2495 1.367 . S
C2494 C2502 1.378 . S
C2495 C2494 1.367 . S
C2495 C2503 1.433 . S
C2496 H2492 0.929 . S
C2496 C2498 1.378 . S
C2496 C2500 1.350 . S
C2497 C2500 1.463 . S
C2497 C2502 1.350 . S
C2497 N2505 1.427 . S
C2498 H2489 0.930 . S
C2498 C2496 1.378 . S
C2498 C2499 1.367 . S
C2499 C2498 1.367 . S
C2499 C2501 1.433 . S
C2500 C2496 1.350 . S
C2500 C2497 1.463 . S
C2500 N2504 1.427 . S
C2501 H2491 0.929 . S
C2501 C2499 1.433 . S
C2501 N2504 1.384 . S
C2502 H2493 0.929 . S
C2502 C2494 1.378 . S
C2502 C2497 1.350 . S
C2503 H2490 0.929 . S
C2503 C2495 1.433 . S
C2503 N2505 1.384 . S
N2504 C2500 1.427 . S
N2504 C2501 1.384 . S
N2505 C2497 1.427 . S
N2505 C2503 1.384 . S
H2506 C2512 0.930 . S
H2507 C2516 0.930 . S
H2508 C2521 0.929 . S
H2509 C2519 0.929 . S
H2510 C2514 0.929 . S
H2511 C2520 0.929 . S
C2512 H2506 0.930 . S
C2512 C2513 1.367 . S
C2512 C2520 1.378 . S
C2513 C2512 1.367 . S
C2513 C2521 1.433 . S
C2514 H2510 0.929 . S
C2514 C2516 1.378 . S
C2514 C2518 1.350 . S
C2515 C2518 1.463 . S
C2515 C2520 1.350 . S
C2515 N2523 1.427 . S
C2516 H2507 0.930 . S
C2516 C2514 1.378 . S
C2516 C2517 1.367 . S
C2517 C2516 1.367 . S
C2517 C2519 1.433 . S
C2518 C2514 1.350 . S
C2518 C2515 1.463 . S
C2518 N2522 1.427 . S
C2519 H2509 0.929 . S
C2519 C2517 1.433 . S
C2519 N2522 1.384 . S
C2520 H2511 0.929 . S
C2520 C2512 1.378 . S
C2520 C2515 1.350 . S
C2521 H2508 0.929 . S
C2521 C2513 1.433 . S
C2521 N2523 1.384 . S
N2522 C2518 1.427 . S
N2522 C2519 1.384 . S
N2523 C2515 1.427 . S
N2523 C2521 1.384 . S
H2524 C2530 0.930 . S
H2525 C2534 0.929 . S
H2526 C2539 0.929 . S
H2527 C2537 0.929 . S
H2528 C2532 0.929 . S
H2529 C2538 0.929 . S
C2530 H2524 0.930 . S
C2530 C2531 1.367 . S
C2530 C2538 1.378 . S
C2531 C2530 1.367 . S
C2531 C2539 1.433 . S
C2532 H2528 0.929 . S
C2532 C2534 1.378 . S
C2532 C2536 1.350 . S
C2533 C2536 1.463 . S
C2533 C2538 1.350 . S
C2533 N2541 1.427 . S
C2534 H2525 0.929 . S
C2534 C2532 1.378 . S
C2534 C2535 1.367 1_655 S
C2535 C2534 1.367 1_455 S
C2535 C2537 1.433 . S
C2536 C2532 1.350 . S
C2536 C2533 1.463 . S
C2536 N2540 1.427 . S
C2537 H2527 0.929 . S
C2537 C2535 1.433 . S
C2537 N2540 1.384 1_455 S
C2538 H2529 0.929 . S
C2538 C2530 1.378 . S
C2538 C2533 1.350 . S
C2539 H2526 0.929 . S
C2539 C2531 1.433 . S
C2539 N2541 1.384 . S
N2540 C2536 1.427 . S
N2540 C2537 1.384 1_655 S
N2541 C2533 1.427 . S
N2541 C2539 1.384 . S
H2542 C2548 0.930 . S
H2543 C2552 0.930 . S
H2544 C2557 0.929 . S
H2545 C2555 0.929 . S
H2546 C2550 0.929 . S
H2547 C2556 0.929 . S
C2548 H2542 0.930 . S
C2548 C2549 1.367 . S
C2548 C2556 1.378 . S
C2549 C2548 1.367 . S
C2549 C2557 1.433 . S
C2550 H2546 0.929 . S
C2550 C2552 1.378 . S
C2550 C2554 1.350 . S
C2551 C2554 1.463 . S
C2551 C2556 1.350 . S
C2551 N2559 1.427 . S
C2552 H2543 0.930 . S
C2552 C2550 1.378 . S
C2552 C2553 1.367 . S
C2553 C2552 1.367 . S
C2553 C2555 1.433 . S
C2554 C2550 1.350 . S
C2554 C2551 1.463 . S
C2554 N2558 1.427 . S
C2555 H2545 0.929 . S
C2555 C2553 1.433 . S
C2555 N2558 1.384 . S
C2556 H2547 0.929 . S
C2556 C2548 1.378 . S
C2556 C2551 1.350 . S
C2557 H2544 0.929 . S
C2557 C2549 1.433 . S
C2557 N2559 1.384 . S
N2558 C2554 1.427 . S
N2558 C2555 1.384 . S
N2559 C2551 1.427 . S
N2559 C2557 1.384 . S
H2560 C2566 0.930 . S
H2561 C2570 0.930 . S
H2562 C2575 0.929 . S
H2563 C2573 0.929 . S
H2564 C2568 0.929 . S
H2565 C2574 0.929 . S
C2566 H2560 0.930 . S
C2566 C2567 1.367 . S
C2566 C2574 1.378 . S
C2567 C2566 1.367 . S
C2567 C2575 1.433 . S
C2568 H2564 0.929 . S
C2568 C2570 1.378 . S
C2568 C2572 1.350 . S
C2569 C2572 1.463 . S
C2569 C2574 1.350 . S
C2569 N2577 1.427 . S
C2570 H2561 0.930 . S
C2570 C2568 1.378 . S
C2570 C2571 1.367 . S
C2571 C2570 1.367 . S
C2571 C2573 1.433 . S
C2572 C2568 1.350 . S
C2572 C2569 1.463 . S
C2572 N2576 1.427 . S
C2573 H2563 0.929 . S
C2573 C2571 1.433 . S
C2573 N2576 1.384 . S
C2574 H2565 0.929 . S
C2574 C2566 1.378 . S
C2574 C2569 1.350 . S
C2575 H2562 0.929 . S
C2575 C2567 1.433 . S
C2575 N2577 1.384 . S
N2576 C2572 1.427 . S
N2576 C2573 1.384 . S
N2577 C2569 1.427 . S
N2577 C2575 1.384 . S
H2578 C2584 0.930 . S
H2579 C2588 0.930 . S
H2580 C2593 0.929 . S
H2581 C2591 0.929 1_545 S
H2582 C2586 0.929 . S
H2583 C2592 0.929 . S
C2584 H2578 0.930 . S
C2584 C2585 1.367 . S
C2584 C2592 1.378 . S
C2585 C2584 1.367 . S
C2585 C2593 1.433 . S
C2586 H2582 0.929 . S
C2586 C2588 1.378 . S
C2586 C2590 1.350 . S
C2587 C2590 1.463 . S
C2587 C2592 1.350 . S
C2587 N2595 1.427 . S
C2588 H2579 0.930 . S
C2588 C2586 1.378 . S
C2588 C2589 1.402 . S
C2589 C2588 1.402 . S
C2589 C2591 1.420 . S
C2590 C2586 1.350 . S
C2590 C2587 1.463 . S
C2590 N2594 1.427 . S
C2591 H2581 0.929 1_565 S
C2591 C2589 1.420 . S
C2591 N2594 1.384 . S
C2592 H2583 0.929 . S
C2592 C2584 1.378 . S
C2592 C2587 1.350 . S
C2593 H2580 0.929 . S
C2593 C2585 1.433 . S
C2593 N2595 1.384 . S
N2594 C2590 1.427 . S
N2594 C2591 1.384 . S
N2595 C2587 1.427 . S
N2595 C2593 1.384 . S
H2596 C2602 0.930 . S
H2597 C2606 0.930 . S
H2598 C2611 0.929 . S
H2599 C2609 0.929 . S
H2600 C2604 0.929 . S
H2601 C2610 0.929 . S
C2602 H2596 0.930 . S
C2602 C2603 1.367 . S
C2602 C2610 1.378 . S
C2603 C2602 1.367 . S
C2603 C2611 1.433 . S
C2604 H2600 0.929 . S
C2604 C2606 1.378 . S
C2604 C2608 1.350 . S
C2605 C2608 1.463 . S
C2605 C2610 1.350 . S
C2605 N2613 1.427 . S
C2606 H2597 0.930 . S
C2606 C2604 1.378 . S
C2606 C2607 1.367 . S
C2607 C2606 1.367 . S
C2607 C2609 1.433 . S
C2608 C2604 1.350 . S
C2608 C2605 1.463 . S
C2608 N2612 1.427 . S
C2609 H2599 0.929 . S
C2609 C2607 1.433 . S
C2609 N2612 1.384 . S
C2610 H2601 0.929 . S
C2610 C2602 1.378 . S
C2610 C2605 1.350 . S
C2611 H2598 0.929 . S
C2611 C2603 1.433 . S
C2611 N2613 1.384 . S
N2612 C2608 1.427 . S
N2612 C2609 1.384 . S
N2613 C2605 1.427 . S
N2613 C2611 1.384 . S
H2614 C2620 0.930 . S
H2615 C2624 0.930 . S
H2616 C2629 0.929 . S
H2617 C2627 0.929 . S
H2618 C2622 0.929 . S
H2619 C2628 0.929 . S
C2620 H2614 0.930 . S
C2620 C2621 1.367 . S
C2620 C2628 1.378 . S
C2621 C2620 1.367 . S
C2621 C2629 1.433 . S
C2622 H2618 0.929 . S
C2622 C2624 1.378 . S
C2622 C2626 1.350 . S
C2623 C2626 1.463 . S
C2623 C2628 1.350 . S
C2623 N2631 1.427 . S
C2624 H2615 0.930 . S
C2624 C2622 1.378 . S
C2624 C2625 1.367 . S
C2625 C2624 1.367 . S
C2625 C2627 1.433 . S
C2626 C2622 1.350 . S
C2626 C2623 1.463 . S
C2626 N2630 1.427 . S
C2627 H2617 0.929 . S
C2627 C2625 1.433 . S
C2627 N2630 1.384 . S
C2628 H2619 0.929 . S
C2628 C2620 1.378 . S
C2628 C2623 1.350 . S
C2629 H2616 0.929 . S
C2629 C2621 1.433 . S
C2629 N2631 1.384 . S
N2630 C2626 1.427 . S
N2630 C2627 1.384 . S
N2631 C2623 1.427 . S
N2631 C2629 1.384 . S
H2632 C2638 0.930 . S
H2633 C2642 0.930 . S
H2634 C2647 0.929 . S
H2635 C2645 0.929 . S
H2636 C2640 0.929 . S
H2637 C2646 0.929 . S
C2638 H2632 0.930 . S
C2638 C2639 1.367 . S
C2638 C2646 1.378 . S
C2639 C2638 1.367 . S
C2639 C2647 1.433 . S
C2640 H2636 0.929 . S
C2640 C2642 1.378 . S
C2640 C2644 1.350 . S
C2641 C2644 1.463 . S
C2641 C2646 1.350 . S
C2641 N2649 1.427 . S
C2642 H2633 0.930 . S
C2642 C2640 1.378 . S
C2642 C2643 1.367 . S
C2643 C2642 1.367 . S
C2643 C2645 1.433 . S
C2644 C2640 1.350 . S
C2644 C2641 1.463 . S
C2644 N2648 1.427 . S
C2645 H2635 0.929 . S
C2645 C2643 1.433 . S
C2645 N2648 1.384 . S
C2646 H2637 0.929 . S
C2646 C2638 1.378 . S
C2646 C2641 1.350 . S
C2647 H2634 0.929 . S
C2647 C2639 1.433 . S
C2647 N2649 1.384 . S
N2648 C2644 1.427 . S
N2648 C2645 1.384 . S
N2649 C2641 1.427 . S
N2649 C2647 1.384 . S
H2650 C2656 0.930 . S
H2651 C2660 0.930 1_556 S
H2652 C2665 0.929 . S
H2653 C2663 0.929 . S
H2654 C2658 0.929 . S
H2655 C2664 0.929 . S
C2656 H2650 0.930 . S
C2656 C2657 1.367 . S
C2656 C2664 1.378 . S
C2657 C2656 1.367 . S
C2657 C2665 1.433 . S
C2658 H2654 0.929 . S
C2658 C2660 1.378 . S
C2658 C2662 1.350 . S
C2659 C2662 1.463 . S
C2659 C2664 1.350 . S
C2659 N2667 1.427 . S
C2660 H2651 0.930 1_554 S
C2660 C2658 1.378 . S
C2660 C2661 1.367 . S
C2661 C2660 1.367 . S
C2661 C2663 1.433 . S
C2662 C2658 1.350 . S
C2662 C2659 1.463 . S
C2662 N2666 1.427 . S
C2663 H2653 0.929 . S
C2663 C2661 1.433 . S
C2663 N2666 1.384 . S
C2664 H2655 0.929 . S
C2664 C2656 1.378 . S
C2664 C2659 1.350 . S
C2665 H2652 0.929 . S
C2665 C2657 1.433 . S
C2665 N2667 1.384 . S
N2666 C2662 1.427 . S
N2666 C2663 1.384 . S
N2667 C2659 1.427 . S
N2667 C2665 1.384 . S
H2668 C2674 0.930 . S
H2669 C2678 0.930 . S
H2670 C2683 0.929 . S
H2671 C2681 0.929 . S
H2672 C2676 0.929 . S
H2673 C2682 0.929 . S
C2674 H2668 0.930 . S
C2674 C2675 1.367 . S
C2674 C2682 1.378 . S
C2675 C2674 1.367 . S
C2675 C2683 1.433 . S
C2676 H2672 0.929 . S
C2676 C2678 1.378 . S
C2676 C2680 1.350 . S
C2677 C2680 1.463 . S
C2677 C2682 1.350 . S
C2677 N2685 1.427 . S
C2678 H2669 0.930 . S
C2678 C2676 1.378 . S
C2678 C2679 1.367 . S
C2679 C2678 1.367 . S
C2679 C2681 1.433 . S
C2680 C2676 1.350 . S
C2680 C2677 1.463 . S
C2680 N2684 1.427 . S
C2681 H2671 0.929 . S
C2681 C2679 1.433 . S
C2681 N2684 1.384 . S
C2682 H2673 0.929 . S
C2682 C2674 1.378 . S
C2682 C2677 1.350 . S
C2683 H2670 0.929 . S
C2683 C2675 1.433 . S
C2683 N2685 1.384 . S
N2684 C2680 1.427 . S
N2684 C2681 1.384 . S
N2685 C2677 1.427 . S
N2685 C2683 1.384 . S
H2686 C2692 0.930 . S
H2687 C2696 0.930 . S
H2688 C2701 0.929 . S
H2689 C2699 0.929 . S
H2690 C2694 0.929 . S
H2691 C2700 0.929 . S
C2692 H2686 0.930 . S
C2692 C2693 1.367 . S
C2692 C2700 1.378 . S
C2693 C2692 1.367 . S
C2693 C2701 1.433 . S
C2694 H2690 0.929 . S
C2694 C2696 1.378 . S
C2694 C2698 1.350 . S
C2695 C2698 1.463 . S
C2695 C2700 1.350 . S
C2695 N2703 1.427 . S
C2696 H2687 0.930 . S
C2696 C2694 1.378 . S
C2696 C2697 1.367 . S
C2697 C2696 1.367 . S
C2697 C2699 1.433 . S
C2698 C2694 1.350 . S
C2698 C2695 1.463 . S
C2698 N2702 1.427 . S
C2699 H2689 0.929 . S
C2699 C2697 1.433 . S
C2699 N2702 1.384 . S
C2700 H2691 0.929 . S
C2700 C2692 1.378 . S
C2700 C2695 1.350 . S
C2701 H2688 0.929 . S
C2701 C2693 1.433 . S
C2701 N2703 1.384 . S
N2702 C2698 1.427 . S
N2702 C2699 1.384 . S
N2703 C2695 1.427 . S
N2703 C2701 1.384 . S
C983 C109 2.116 1_455 S
C987 C367 2.113 . S
C1001 C65 1.827 . S
C1005 C378 1.828 . S
C1019 C75 1.703 . S
C1023 C447 1.670 . S
C1041 C460 1.217 . S
C1037 C84 1.226 . S
C1055 C25 2.517 . S
C1059 C516 2.499 . S
C1077 C567 2.078 . S
C1073 C28 2.096 . S
C1095 C596 2.414 . S
C1091 C47 2.429 . S
C1109 C9 2.492 . S
C1113 C647 2.439 . S
C1131 C338 1.361 . S
C1127 C233 1.365 . S
C1145 C249 0.930 . S
C1149 C380 0.912 . S
C1167 C418 1.084 . S
C1163 C275 1.099 . S
C1185 C487 1.681 . S
C1181 C173 1.675 . S
C1199 C224 0.649 . S
C1203 C521 0.651 . S
C1221 C538 1.465 . S
C1217 C243 1.464 . S
C1239 C601 0.398 . S
C1235 C266 0.383 . S
C1257 C618 2.026 . S
C1253 C179 2.057 . S
C1275 C340 1.701 . S
C1271 C163 1.770 . S
C1289 C289 1.625 . S
C1293 C679 1.580 . S
C1311 C700 1.451 . S
C1307 C333 1.500 . S
C1329 C759 0.388 . S
C1325 C308 0.314 . S
C1343 C123 1.090 . S
C1347 C620 1.083 . S
C1361 C126 1.434 . S
C1365 C420 1.427 . S
C1379 C327 0.970 . S
C1383 C778 0.977 . S
C1401 C847 1.036 . S
C1397 C299 1.056 . S
C1419 C356 2.136 . S
C1415 C67 2.165 . S
C1437 C839 1.867 . S
C1433 C98 1.807 . S
C1451 C89 1.727 . S
C1455 C436 1.690 . S
C1469 C79 1.267 . S
C1473 C801 1.248 . S
C1491 C527 2.536 . S
C1487 C11 2.554 . S
C1505 C51 2.138 . S
C1509 C716 2.105 . S
C1527 C607 2.470 1_556 S
C1523 C33 2.480 . S
C1545 C876 2.442 . S
C1541 C14 2.500 1_655 S
C1563 C359 1.330 . S
C1559 C140 1.323 . S
C1581 C841 0.924 . S
C1577 C319 0.943 . S
C1595 C112 1.122 . S
C1599 C439 1.109 . S
C1613 C285 1.709 . S
C1617 C796 1.713 . S
C1631 C149 0.675 . S
C1635 C500 0.678 . S
C1653 C719 1.502 . S
C1649 C313 1.505 . S
C1667 C121 0.440 . S
C1671 C580 0.465 . S
C1685 C291 2.101 . S
C1689 C879 2.063 . S
C1703 C182 1.762 . S
C1707 C361 1.664 . S
C1721 C168 1.607 . S
C1725 C658 1.582 . S
C1739 C263 1.491 . S
C1743 C561 1.422 . S
C1757 C247 0.411 . S
C1761 C738 0.452 . S
C1779 C881 1.052 . S
C1775 C277 1.068 . S
C1793 C219 1.470 . S
C1797 C441 1.429 . S
C1815 C479 1.028 . S
C1811 C257 1.018 . S
C1833 C396 1.039 . S
C1829 C201 1.054 . S
C1847 C81 2.134 . S
C1851 C927 2.116 . S
C1869 C818 1.831 . S
C1865 C93 1.824 . S
C1883 C103 1.703 . S
C1887 C967 1.670 . S
C1901 C56 1.227 . S
C1905 C780 1.219 . S
C1919 C53 2.522 . S
C1923 C676 2.498 . S
C1941 C727 2.080 . S
C1937 C0 2.097 . S
C1959 C756 2.413 . S
C1955 C19 2.427 . S
C1977 C887 2.438 . S
C1973 C37 2.493 . S
C1995 C898 1.354 . S
C1991 C261 1.357 . S
C2009 C193 0.928 . S
C2013 C820 0.910 . S
C2031 C938 1.082 . S
C2027 C205 1.098 . S
C2049 C807 1.677 . S
C2045 C215 1.680 . S
C2067 C681 0.651 . S
C2063 C252 0.654 . S
C2081 C187 1.462 . S
C2085 C698 1.459 . S
C2103 C761 0.399 . S
C2099 C196 0.383 . S
C2117 C221 2.056 . S
C2121 C858 2.019 . S
C2139 C900 1.685 . S
C2135 C317 1.763 . S
C2153 C135 1.625 . S
C2157 C519 1.573 . S
C2175 C540 1.432 . S
C2171 C151 1.467 1_565 S
C2193 C599 0.418 . S
C2189 C154 0.313 1_554 S
C2211 C860 1.083 . S
C2207 C305 1.090 . S
C2225 C280 1.430 . S
C2229 C940 1.423 . S
C2247 C458 0.980 . S
C2243 C145 0.971 . S
C2265 C407 1.035 . S
C2261 C117 1.056 . S
C2279 C95 2.158 . S
C2283 C916 2.128 . S
C2301 C399 1.862 . S
C2297 C70 1.813 . S
C2315 C61 1.727 . S
C2319 C956 1.687 . S
C2333 C107 1.268 . S
C2337 C481 1.233 . S
C2351 C39 2.556 . S
C2355 C687 2.542 1_556 S
C2373 C556 2.101 . S
C2369 C23 2.142 . S
C2387 C5 2.482 . S
C2391 C767 2.467 . S
C2405 C42 2.500 . S
C2409 C636 2.441 . S
C2427 C919 1.328 . S
C2423 C322 1.322 . S
C2441 C165 0.939 . S
C2445 C401 0.909 . S
C2463 C959 1.119 . S
C2459 C294 1.113 . S
C2477 C131 1.710 . S
C2481 C476 1.715 . S
C2495 C331 0.674 . S
C2499 C660 0.682 . S
C2517 C559 1.502 . S
C2513 C159 1.508 . S
C2531 C303 0.450 . S
C2535 C740 0.453 . S
C2553 C639 2.064 . S
C2549 C137 2.101 . S
C2571 C921 1.663 . S
C2567 C238 1.766 . S
C2589 C498 1.566 1_665 S
C2585 C210 1.608 . S
C2603 C235 1.494 . S
C2607 C721 1.428 . S
C2625 C578 0.450 . S
C2621 C191 0.399 . S
C2639 C207 1.068 . S
C2643 C641 1.046 . S
C2657 C177 1.470 . S
C2661 C961 1.426 . S
C2679 C799 1.024 . S
C2675 C229 1.013 . S
C2697 C836 1.034 . S
C2693 C271 1.053 . S
