# Generated by pormake.
# Topology nia, (6,6)-cn, num edge types: 1
# Building blocks:
#     Node 0, Type 0, BuildingBlock: JUFBIX_clean_sbu_0, # of connection points: 6
#     Node 1, Type 0, BuildingBlock: JUFBIX_clean_sbu_0, # of connection points: 6
#     Node 2, Type 1, BuildingBlock: MIDCAF_clean_sbu_0, # of connection points: 6
#     Node 3, Type 1, BuildingBlock: MIDCAF_clean_sbu_0, # of connection points: 6
#     Edge 4, Type (0, 1), BuildingBlock: KIFKEQ_clean_linker_1, # of connection points: 2
#     Edge 5, Type (0, 1), BuildingBlock: KIFKEQ_clean_linker_1, # of connection points: 2
#     Edge 6, Type (0, 1), BuildingBlock: KIFKEQ_clean_linker_1, # of connection points: 2
#     Edge 7, Type (0, 1), BuildingBlock: KIFKEQ_clean_linker_1, # of connection points: 2
#     Edge 8, Type (0, 1), BuildingBlock: KIFKEQ_clean_linker_1, # of connection points: 2
#     Edge 9, Type (0, 1), BuildingBlock: KIFKEQ_clean_linker_1, # of connection points: 2
#     Edge 10, Type (0, 1), BuildingBlock: KIFKEQ_clean_linker_1, # of connection points: 2
#     Edge 11, Type (0, 1), BuildingBlock: KIFKEQ_clean_linker_1, # of connection points: 2
#     Edge 12, Type (0, 1), BuildingBlock: KIFKEQ_clean_linker_1, # of connection points: 2
#     Edge 13, Type (0, 1), BuildingBlock: KIFKEQ_clean_linker_1, # of connection points: 2
#     Edge 14, Type (0, 1), BuildingBlock: KIFKEQ_clean_linker_1, # of connection points: 2
#     Edge 15, Type (0, 1), BuildingBlock: KIFKEQ_clean_linker_1, # of connection points: 2
# Relax obj value: 0.149
# Max RMSD: 0.238
# Mean RMSD: 0.155
data_MOF--net-nia--node1-JUFBIX_clean_sbu_0--node2-MIDCAF_clean_sbu_0--edge1-KIFKEQ_clean_linker_1
_symmetry_space_group_name_H-M    P1
_symmetry_Int_Tables_number       1
_symmetry_cell_setting            triclinic
loop_
_symmetry_equiv_pos_as_xyz
'x, y, z'
_cell_length_a     23.710901
_cell_length_b     23.762159
_cell_length_c     36.196429
_cell_angle_alpha  85.262023
_cell_angle_beta   85.327313
_cell_angle_gamma 119.80781
loop_
_atom_site_label
_atom_site_type_symbol
_atom_site_fract_x
_atom_site_fract_y
_atom_site_fract_z
_atom_type_partial_charge
Co0 Co 0.98581 0.96485 0.99923 0.0
C1 C 0.90694 0.97005 0.06106 0.0
Co2 Co 0.03402 0.05349 0.027 0.0
C3 C 0.95631 0.86066 0.95303 0.0
C4 C 0.87538 0.87486 0.9679 0.0
N5 N 0.93741 0.89435 0.97421 0.0
N6 N 0.90872 0.8222 0.93342 0.0
C7 C 0.85781 0.83084 0.94278 0.0
H8 H 0.00509 0.8672 0.9502 0.0
H9 H 0.84605 0.89438 0.97912 0.0
C10 C 0.11299 0.04914 0.96505 0.0
N11 N 0.08367 0.12445 0.05184 0.0
C12 C 0.0656 0.15181 0.07833 0.0
C13 C 0.14884 0.14994 0.05213 0.0
N14 N 0.11697 0.19216 0.09512 0.0
C15 C 0.16925 0.19143 0.07841 0.0
C16 C 0.04433 0.94461 0.056 0.0
O17 O 0.06349 0.99317 0.96359 0.0
O18 O 0.10898 0.08183 0.99014 0.0
O19 O 0.06041 0.00387 0.0576 0.0
O20 O 0.00967 0.91485 0.03129 0.0
O21 O 0.95808 0.02441 0.06307 0.0
H22 H 0.17931 0.13594 0.03623 0.0
H23 H 0.01541 0.13913 0.08693 0.0
O24 O 0.90863 0.93722 0.03531 0.0
O25 O 0.96255 0.01556 0.96749 0.0
O26 O 0.00698 0.10247 0.99616 0.0
C27 C 0.97555 0.07364 0.97015 0.0
H28 H 0.81188 0.80823 0.93139 0.0
H29 H 0.21845 0.21731 0.08572 0.0
Co30 Co 0.05627 0.03113 0.52127 0.0
C31 C 0.04745 0.11355 0.46515 0.0
Co32 Co 0.9601 0.98681 0.50092 0.0
C33 C 0.1572 0.06654 0.57027 0.0
C34 C 0.19567 0.10031 0.51208 0.0
N35 N 0.13893 0.06776 0.53591 0.0
N36 N 0.22315 0.09637 0.56852 0.0
C37 C 0.24734 0.11773 0.53196 0.0
H38 H 0.1229 0.04266 0.59584 0.0
H39 H 0.19919 0.10993 0.48199 0.0
C40 C 0.96803 0.90408 0.55704 0.0
N41 N 0.87814 0.95123 0.48542 0.0
C42 C 0.86319 0.94513 0.45018 0.0
C43 C 0.82036 0.92965 0.50722 0.0
N44 N 0.79863 0.9216 0.44923 0.0
C45 C 0.77148 0.91184 0.485 0.0
C46 C 0.04791 0.96328 0.45978 0.0
O47 O 0.02673 0.95163 0.55503 0.0
O48 O 0.93049 0.90934 0.53555 0.0
O49 O 0.98861 0.95015 0.46296 0.0
O50 O 0.08459 -0.00284 0.48254 0.0
O51 O 0.98987 0.06481 0.46641 0.0
H52 H 0.81424 0.92773 0.53733 0.0
H53 H 0.8991 0.95931 0.4256 0.0
O54 O 0.08465 0.10969 0.48737 0.0
O55 O 0.0278 0.06546 0.55986 0.0
O56 O 0.93284 0.02369 0.5391 0.0
C57 C 0.96969 0.05566 0.56246 0.0
H58 H 0.29887 0.14409 0.52043 0.0
H59 H 0.71987 0.89268 0.49435 0.0
Zn60 Zn 0.33502 0.70066 0.19402 0.0
Zn61 Zn 0.3089 0.68494 0.33116 0.0
Zn62 Zn 0.31786 0.69617 0.26228 0.0
C63 C 0.43984 0.73642 0.30702 0.0
C64 C 0.23111 0.56018 0.32204 0.0
O65 O 0.26176 0.74222 0.24156 0.0
O66 O 0.26306 0.71608 0.18453 0.0
C67 C 0.45773 0.78234 0.2037 0.0
O68 O 0.41932 0.74447 0.27623 0.0
O69 O 0.39926 0.70393 0.33608 0.0
O70 O 0.237 0.59406 0.34803 0.0
O71 O 0.26105 0.5891 0.28869 0.0
O72 O 0.42538 0.77321 0.17665 0.0
O73 O 0.42703 0.75456 0.23716 0.0
O74 O 0.27053 0.59419 0.24948 0.0
O75 O 0.31691 0.61042 0.19117 0.0
C76 C 0.28031 0.57158 0.21999 0.0
O77 O 0.2665 0.75029 0.28003 0.0
O78 O 0.28912 0.7551 0.33803 0.0
C79 C 0.24197 0.73823 0.2092 0.0
C80 C 0.26606 0.77149 0.31173 0.0
Zn81 Zn 0.68383 0.31892 0.83012 0.0
Zn82 Zn 0.71757 0.32617 0.6896 0.0
Zn83 Zn 0.70191 0.31971 0.76205 0.0
C84 C 0.77449 0.45516 0.70035 0.0
C85 C 0.58243 0.25137 0.71447 0.0
O86 O 0.74873 0.26691 0.78758 0.0
O87 O 0.70327 0.25013 0.84604 0.0
C88 C 0.77403 0.4462 0.80387 0.0
O89 O 0.75607 0.42621 0.73464 0.0
O90 O 0.76273 0.42169 0.67372 0.0
O91 O 0.62314 0.27045 0.68499 0.0
O92 O 0.60222 0.26639 0.74623 0.0
O93 O 0.75325 0.40843 0.83451 0.0
O94 O 0.75558 0.4232 0.77321 0.0
O95 O 0.5922 0.26791 0.78456 0.0
O96 O 0.59171 0.29698 0.84091 0.0
C97 C 0.56046 0.26843 0.81526 0.0
O98 O 0.75732 0.26784 0.74775 0.0
O99 O 0.77236 0.28582 0.68576 0.0
C100 C 0.73876 0.24133 0.82206 0.0
C101 C 0.7811 0.2622 0.71575 0.0
H102 H 0.14847 0.00103 0.09452 0.0
H103 H 0.98555 0.81338 0.08066 0.0
H104 H 0.18415 0.94729 0.1392 0.0
H105 H 0.01838 0.75941 0.12721 0.0
H106 H 0.15159 0.68366 0.1634 0.0
H107 H 0.09692 0.73118 0.13126 0.0
H108 H 0.17219 0.88981 0.19791 0.0
H109 H 0.2309 0.84285 0.22892 0.0
C110 C 0.11982 0.94815 0.10141 0.0
C111 C 0.06491 0.91126 0.08355 0.0
C112 C 0.13977 0.91727 0.12751 0.0
C113 C 0.10457 0.84865 0.13701 0.0
C114 C 0.04796 0.81213 0.12009 0.0
C115 C 0.02892 0.84296 0.09335 0.0
C116 C 0.15556 0.7281 0.17179 0.0
C117 C 0.19613 0.75989 0.19842 0.0
C118 C 0.12353 0.75532 0.15344 0.0
C119 C 0.13034 0.8151 0.16141 0.0
C120 C 0.16687 0.84446 0.19034 0.0
C121 C 0.19966 0.81712 0.20866 0.0
H122 H 0.33164 0.0872 0.56584 0.0
H123 H 0.2011 0.12025 0.63876 0.0
H124 H 0.40454 0.1106 0.61288 0.0
H125 H 0.2744 0.14326 0.6869 0.0
H126 H 0.48997 0.28742 0.71884 0.0
H127 H 0.3875 0.23481 0.69162 0.0
H128 H 0.41696 0.07295 0.67429 0.0
H129 H 0.52018 0.12703 0.70007 0.0
C130 C 0.31825 0.09875 0.59228 0.0
C131 C 0.26121 0.10262 0.59853 0.0
C132 C 0.35957 0.11136 0.61952 0.0
C133 C 0.34517 0.12847 0.65384 0.0
C134 C 0.28682 0.13026 0.66073 0.0
C135 C 0.2448 0.11681 0.63337 0.0
C136 C 0.47284 0.23938 0.71055 0.0
C137 C 0.51251 0.21111 0.71125 0.0
C138 C 0.41426 0.20918 0.69497 0.0
C139 C 0.39491 0.1504 0.68001 0.0
C140 C 0.43128 0.1189 0.68481 0.0
C141 C 0.48997 0.14941 0.69987 0.0
H142 H 0.06045 0.26556 0.10517 0.0
H143 H 0.17649 0.19514 0.15543 0.0
H144 H 0.08768 0.34499 0.14974 0.0
H145 H 0.20339 0.27356 0.19992 0.0
H146 H 0.33548 0.50426 0.1947 0.0
H147 H 0.27894 0.3953 0.17639 0.0
H148 H 0.09212 0.37223 0.21932 0.0
H149 H 0.14978 0.48184 0.23876 0.0
C150 C 0.08959 0.26547 0.12668 0.0
C151 C 0.11766 0.22561 0.12652 0.0
C152 C 0.10505 0.31061 0.15222 0.0
C153 C 0.14848 0.31595 0.17786 0.0
C154 C 0.17051 0.27101 0.18015 0.0
C155 C 0.15535 0.22639 0.15467 0.0
C156 C 0.28251 0.47492 0.20143 0.0
C157 C 0.24683 0.50096 0.21807 0.0
C158 C 0.25004 0.41253 0.19104 0.0
C159 C 0.18107 0.37543 0.19631 0.0
C160 C 0.1453 0.39996 0.21493 0.0
C161 C 0.17815 0.46218 0.22624 0.0
H162 H 0.03831 0.13691 0.61233 0.0
H163 H 0.84422 0.03057 0.58068 0.0
H164 H -0.00265 0.18018 0.65998 0.0
H165 H 0.80357 0.07393 0.628 0.0
H166 H 0.73116 0.13043 0.72677 0.0
H167 H 0.77976 0.07362 0.69554 0.0
H168 H 0.95864 0.2588 0.65952 0.0
H169 H 0.90983 0.31474 0.69074 0.0
C170 C 0.98686 0.12245 0.61563 0.0
C171 C 0.94474 0.08059 0.59238 0.0
C172 C 0.96337 0.1473 0.64298 0.0
C173 C 0.89701 0.13039 0.64808 0.0
C174 C 0.85467 0.08722 0.62541 0.0
C175 C 0.87822 0.06287 0.59791 0.0
C176 C 0.78198 0.1583 0.71382 0.0
C177 C 0.81718 0.22678 0.71173 0.0
C178 C 0.80948 0.12604 0.69528 0.0
C179 C 0.87282 0.16172 0.67439 0.0
C180 C 0.91002 0.22956 0.67542 0.0
C181 C 0.88228 0.2617 0.69361 0.0
H182 H 0.87154 0.04003 0.10438 0.0
H183 H 0.80392 0.84399 0.07902 0.0
H184 H 0.76862 -2e-05 0.14633 0.0
H185 H 0.70195 0.80389 0.12168 0.0
H186 H 0.54527 0.74597 0.22377 0.0
H187 H 0.65948 0.7936 0.19382 0.0
H188 H 0.64696 0.94928 0.13202 0.0
H189 H 0.53288 0.90065 0.16088 0.0
C190 C 0.83513 0.98829 0.10808 0.0
C191 C 0.84591 0.94532 0.08811 0.0
C192 C 0.7762 0.96539 0.13213 0.0
C193 C 0.72729 0.89868 0.13755 0.0
C194 C 0.73895 0.8554 0.11849 0.0
C195 C 0.79718 0.87851 0.09379 0.0
C196 C 0.56778 0.79152 0.20473 0.0
C197 C 0.5304 0.81992 0.19487 0.0
C198 C 0.63282 0.81836 0.18726 0.0
C199 C 0.66211 0.875 0.16033 0.0
C200 C 0.62608 0.90591 0.15273 0.0
C201 C 0.5608 0.87822 0.16939 0.0
H202 H 0.03843 0.86393 0.59728 0.0
H203 H 0.84048 0.80639 0.57855 0.0
H204 H -0.00348 0.76133 0.63961 0.0
H205 H 0.79884 0.70451 0.62096 0.0
H206 H 0.73657 0.54258 0.71823 0.0
H207 H 0.78667 0.65719 0.68883 0.0
H208 H 0.9434 0.64301 0.6292 0.0
H209 H 0.89293 0.52911 0.65808 0.0
C210 C 0.986 0.82974 0.60239 0.0
C211 C 0.94295 0.84325 0.58417 0.0
C212 C 0.96199 0.77094 0.62666 0.0
C213 C 0.89426 0.72473 0.63381 0.0
C214 C 0.85114 0.73929 0.61651 0.0
C215 C 0.87517 0.79751 0.59186 0.0
C216 C 0.78281 0.56489 0.69979 0.0
C217 C 0.81128 0.52737 0.69065 0.0
C218 C 0.81112 0.63014 0.68261 0.0
C219 C 0.86891 0.6592 0.65645 0.0
C220 C 0.89933 0.62256 0.64937 0.0
C221 C 0.87046 0.55729 0.66593 0.0
H222 H 0.17171 0.03017 0.42271 0.0
H223 H 0.98793 0.84949 0.42796 0.0
H224 H 0.22333 0.99476 0.37682 0.0
H225 H 0.04078 0.81127 0.38353 0.0
H226 H 0.14956 0.76086 0.2947 0.0
H227 H 0.09379 0.81383 0.32351 0.0
H228 H 0.26188 0.9235 0.37983 0.0
H229 H 0.31695 0.87328 0.35025 0.0
C230 C 0.14235 0.98252 0.41407 0.0
C231 C 0.07606 0.94217 0.42943 0.0
C232 C 0.17206 0.96188 0.3878 0.0
C233 C 0.13705 0.89917 0.37689 0.0
C234 C 0.06957 0.85993 0.39095 0.0
C235 C 0.03924 0.88153 0.41668 0.0
C236 C 0.17515 0.79827 0.31209 0.0
C237 C 0.23782 0.81331 0.32 0.0
C238 C 0.14286 0.82784 0.32918 0.0
C239 C 0.1728 0.87304 0.35439 0.0
C240 C 0.23705 0.89022 0.36027 0.0
C241 C 0.2689 0.86107 0.34331 0.0
H242 H 0.2264 0.16419 0.96516 0.0
H243 H 0.14044 -0.00017 0.90355 0.0
H244 H 0.32738 0.21379 0.92212 0.0
H245 H 0.2426 0.05111 0.85912 0.0
H246 H 0.4713 0.13733 0.81984 0.0
H247 H 0.35797 0.08091 0.85216 0.0
H248 H 0.37391 0.26843 0.86081 0.0
H249 H 0.48725 0.32374 0.83038 0.0
C250 C 0.22876 0.13862 0.94219 0.0
C251 C 0.17478 0.07784 0.93797 0.0
C252 C 0.28691 0.16765 0.91706 0.0
C253 C 0.29337 0.13737 0.88645 0.0
C254 C 0.23966 0.07603 0.88228 0.0
C255 C 0.18099 0.04665 0.90772 0.0
C256 C 0.4495 0.16613 0.82757 0.0
C257 C 0.48788 0.23487 0.82256 0.0
C258 C 0.38462 0.13388 0.84631 0.0
C259 C 0.35696 0.16993 0.86019 0.0
C260 C 0.39389 0.23878 0.85176 0.0
C261 C 0.45863 0.2707 0.8337 0.0
H262 H 0.97414 0.1515 0.42672 0.0
H263 H 0.17421 0.21241 0.44214 0.0
H264 H 0.01285 0.25346 0.38449 0.0
H265 H 0.21277 0.31373 0.39949 0.0
H266 H 0.26508 0.47174 0.3005 0.0
H267 H 0.2174 0.35762 0.33005 0.0
H268 H 0.06778 0.37313 0.39692 0.0
H269 H 0.11598 0.48672 0.3681 0.0
C270 C 0.02639 0.18629 0.42083 0.0
C271 C 0.07101 0.17403 0.43812 0.0
C272 C 0.04852 0.24464 0.39662 0.0
C273 C 0.11589 0.29152 0.3885 0.0
C274 C 0.16065 0.27826 0.4048 0.0
C275 C 0.13846 0.22048 0.42954 0.0
C276 C 0.22083 0.44993 0.32064 0.0
C277 C 0.19408 0.48794 0.33196 0.0
C278 C 0.19398 0.38495 0.33785 0.0
C279 C 0.13911 0.35655 0.36605 0.0
C280 C 0.10976 0.39333 0.37521 0.0
C281 C 0.13734 0.4584 0.35868 0.0
H282 H 0.94985 0.04676 0.89977 0.0
H283 H 0.94692 0.17026 0.98013 0.0
H284 H 0.89755 0.08748 0.85819 0.0
H285 H 0.89314 0.20972 0.93871 0.0
H286 H 0.70285 0.15966 0.88703 0.0
H287 H 0.76936 0.12557 0.91892 0.0
H288 H 0.91934 0.21196 0.82245 0.0
H289 H 0.85313 0.24885 0.79028 0.0
C290 C 0.93884 0.08329 0.90831 0.0
C291 C 0.95201 0.10506 0.94336 0.0
C292 C 0.90933 0.10674 0.88438 0.0
C293 C 0.89134 0.15145 0.89536 0.0
C294 C 0.90675 0.1752 0.9297 0.0
C295 C 0.93752 0.15276 0.95333 0.0
C296 C 0.74963 0.17095 0.87219 0.0
C297 C 0.77301 0.20779 0.8362 0.0
C298 C 0.7878 0.15168 0.89067 0.0
C299 C 0.84992 0.16764 0.87348 0.0
C300 C 0.87169 0.19985 0.83636 0.0
C301 C 0.83357 0.22025 0.81785 0.0
H302 H 0.70974 0.95507 0.43321 0.0
H303 H 0.80999 0.85745 0.39358 0.0
H304 H 0.63961 0.91916 0.38404 0.0
H305 H 0.73835 0.81955 0.34471 0.0
H306 H 0.53363 0.86453 0.28545 0.0
H307 H 0.63922 0.92183 0.30951 0.0
H308 H 0.60833 0.73637 0.36085 0.0
H309 H 0.50244 0.67983 0.33807 0.0
C310 C 0.71738 0.92692 0.41341 0.0
C311 C 0.76461 0.90849 0.41714 0.0
C312 C 0.67787 0.90695 0.3851 0.0
C313 C 0.68391 0.86691 0.36051 0.0
C314 C 0.73321 0.85086 0.36316 0.0
C315 C 0.77395 0.87235 0.391 0.0
C316 C 0.55086 0.83612 0.30063 0.0
C317 C 0.51017 0.76807 0.31027 0.0
C318 C 0.61093 0.86879 0.31446 0.0
C319 C 0.63153 0.83341 0.33716 0.0
C320 C 0.59387 0.76472 0.3432 0.0
C321 C 0.53328 0.73239 0.33027 0.0
H322 H 0.882 0.8279 0.86304 0.0
H323 H 0.94044 0.7284 0.94224 0.0
H324 H 0.86971 0.75097 0.81925 0.0
H325 H 0.92425 0.64833 0.90006 0.0
H326 H 0.89542 0.50756 0.82392 0.0
H327 H 0.94813 0.61369 0.84633 0.0
H328 H 0.79236 0.64444 0.81446 0.0
H329 H 0.7429 0.54034 0.79015 0.0
C330 C 0.89279 0.78959 0.87074 0.0
C331 C 0.91169 0.78335 0.90587 0.0
C332 C 0.88529 0.74517 0.84588 0.0
C333 C 0.89477 0.69233 0.8561 0.0
C334 C 0.9173 0.68861 0.89066 0.0
C335 C 0.92631 0.73414 0.9151 0.0
C336 C 0.87454 0.53881 0.82021 0.0
C337 C 0.81566 0.51654 0.80511 0.0
C338 C 0.90395 0.59909 0.83364 0.0
C339 C 0.87379 0.63731 0.83332 0.0
C340 C 0.81771 0.61712 0.8151 0.0
C341 C 0.78915 0.55738 0.80096 0.0
loop_
_geom_bond_atom_site_label_1
_geom_bond_atom_site_label_2
_geom_bond_distance
_geom_bond_site_symmetry_2
_ccdc_geom_bond_type
Co0 N5 2.057 . S
Co0 O17 2.021 1_665 S
Co0 O20 2.062 1_656 S
Co0 O24 2.117 1_556 S
Co0 O25 2.020 1_565 S
C1 O21 1.259 1_565 S
C1 O24 1.258 . S
Co2 N11 2.057 . S
Co2 O18 2.117 1_554 S
Co2 O19 2.020 . S
Co2 O21 2.021 1_455 S
Co2 O26 2.064 1_554 S
C3 N5 1.316 . S
C3 N6 1.347 . S
C3 H8 0.931 1_655 S
C4 N5 1.375 . S
C4 C7 1.350 . S
C4 H9 0.930 . S
N5 Co0 2.057 . S
N5 C3 1.316 . S
N5 C4 1.375 . S
N6 C3 1.347 . S
N6 C7 1.373 . S
C7 C4 1.350 . S
C7 N6 1.373 . S
C7 H28 0.931 . S
H8 C3 0.931 1_455 S
H9 C4 0.930 . S
C10 O17 1.259 . S
C10 O18 1.258 . S
N11 Co2 2.057 . S
N11 C12 1.316 . S
N11 C13 1.375 . S
C12 N11 1.316 . S
C12 N14 1.347 . S
C12 H23 0.931 . S
C13 N11 1.375 . S
C13 C15 1.350 . S
C13 H22 0.930 . S
N14 C12 1.347 . S
N14 C15 1.373 . S
C15 C13 1.350 . S
C15 N14 1.373 . S
C15 H29 0.931 . S
C16 O19 1.256 1_565 S
C16 O20 1.255 . S
O17 Co0 2.021 1_445 S
O17 C10 1.259 . S
O18 Co2 2.117 1_556 S
O18 C10 1.258 . S
O19 Co2 2.020 . S
O19 C16 1.256 1_545 S
O20 Co0 2.062 1_454 S
O20 C16 1.255 . S
O21 C1 1.259 1_545 S
O21 Co2 2.021 1_655 S
H22 C13 0.930 . S
H23 C12 0.931 . S
O24 Co0 2.117 1_554 S
O24 C1 1.258 . S
O25 Co0 2.020 1_545 S
O25 C27 1.256 . S
O26 Co2 2.064 1_556 S
O26 C27 1.254 1_455 S
C27 O25 1.256 . S
C27 O26 1.254 1_655 S
H28 C7 0.931 . S
H29 C15 0.931 . S
Co30 N35 2.057 . S
Co30 O47 2.021 1_545 S
Co30 O50 2.062 1_545 S
Co30 O54 2.117 . S
Co30 O55 2.020 . S
C31 O51 1.259 . S
C31 O54 1.258 . S
Co32 N41 2.057 . S
Co32 O48 2.117 . S
Co32 O49 2.020 1_655 S
Co32 O51 2.021 1_665 S
Co32 O56 2.062 1_565 S
C33 N35 1.316 . S
C33 N36 1.347 . S
C33 H38 0.931 . S
C34 N35 1.375 . S
C34 C37 1.350 . S
C34 H39 0.930 . S
N35 Co30 2.057 . S
N35 C33 1.316 . S
N35 C34 1.375 . S
N36 C33 1.347 . S
N36 C37 1.373 . S
C37 C34 1.350 . S
C37 N36 1.373 . S
C37 H58 0.931 . S
H38 C33 0.931 . S
H39 C34 0.930 . S
C40 O47 1.259 1_655 S
C40 O48 1.258 . S
N41 Co32 2.057 . S
N41 C42 1.316 . S
N41 C43 1.375 . S
C42 N41 1.316 . S
C42 N44 1.347 . S
C42 H53 0.931 . S
C43 N41 1.375 . S
C43 C45 1.350 . S
C43 H52 0.930 . S
N44 C42 1.347 . S
N44 C45 1.373 . S
C45 C43 1.350 . S
C45 N44 1.373 . S
C45 H59 0.931 . S
C46 O49 1.256 . S
C46 O50 1.255 . S
O47 Co30 2.021 1_565 S
O47 C40 1.259 1_455 S
O48 Co32 2.117 . S
O48 C40 1.258 . S
O49 Co32 2.020 1_455 S
O49 C46 1.256 . S
O50 Co30 2.062 1_565 S
O50 C46 1.255 . S
O51 C31 1.259 . S
O51 Co32 2.021 1_445 S
H52 C43 0.930 . S
H53 C42 0.931 . S
O54 Co30 2.117 . S
O54 C31 1.258 . S
O55 Co30 2.020 . S
O55 C57 1.256 1_455 S
O56 Co32 2.062 1_545 S
O56 C57 1.255 . S
C57 O55 1.256 1_655 S
C57 O56 1.255 . S
H58 C37 0.931 . S
H59 C45 0.931 . S
Zn60 O66 1.920 . S
Zn60 O72 1.898 . S
Zn60 O75 1.905 . S
Zn61 O69 1.905 . S
Zn61 O70 1.898 . S
Zn61 O78 1.920 . S
Zn62 O65 2.080 . S
Zn62 O68 2.114 . S
Zn62 O71 2.120 . S
Zn62 O73 2.120 . S
Zn62 O74 2.114 . S
Zn62 O77 2.080 . S
C63 O68 1.166 . S
C63 O69 1.182 . S
C64 O70 1.167 . S
C64 O71 1.299 . S
O65 Zn62 2.080 . S
O65 C79 1.305 . S
O66 Zn60 1.920 . S
O66 C79 1.234 . S
C67 O72 1.167 . S
C67 O73 1.299 . S
O68 Zn62 2.114 . S
O68 C63 1.166 . S
O69 Zn61 1.905 . S
O69 C63 1.182 . S
O70 Zn61 1.898 . S
O70 C64 1.167 . S
O71 Zn62 2.120 . S
O71 C64 1.299 . S
O72 Zn60 1.898 . S
O72 C67 1.167 . S
O73 Zn62 2.120 . S
O73 C67 1.299 . S
O74 Zn62 2.114 . S
O74 C76 1.166 . S
O75 Zn60 1.905 . S
O75 C76 1.182 . S
C76 O74 1.166 . S
C76 O75 1.182 . S
O77 Zn62 2.080 . S
O77 C80 1.305 . S
O78 Zn61 1.920 . S
O78 C80 1.234 . S
C79 O65 1.305 . S
C79 O66 1.234 . S
C80 O77 1.305 . S
C80 O78 1.234 . S
Zn81 O87 1.920 . S
Zn81 O93 1.898 . S
Zn81 O96 1.905 . S
Zn82 O90 1.905 . S
Zn82 O91 1.898 . S
Zn82 O99 1.920 . S
Zn83 O86 2.080 . S
Zn83 O89 2.114 . S
Zn83 O92 2.120 . S
Zn83 O94 2.120 . S
Zn83 O95 2.114 . S
Zn83 O98 2.080 . S
C84 O89 1.166 . S
C84 O90 1.182 . S
C85 O91 1.167 . S
C85 O92 1.299 . S
O86 Zn83 2.080 . S
O86 C100 1.305 . S
O87 Zn81 1.920 . S
O87 C100 1.234 . S
C88 O93 1.167 . S
C88 O94 1.299 . S
O89 Zn83 2.114 . S
O89 C84 1.166 . S
O90 Zn82 1.905 . S
O90 C84 1.182 . S
O91 Zn82 1.898 . S
O91 C85 1.167 . S
O92 Zn83 2.120 . S
O92 C85 1.299 . S
O93 Zn81 1.898 . S
O93 C88 1.167 . S
O94 Zn83 2.120 . S
O94 C88 1.299 . S
O95 Zn83 2.114 . S
O95 C97 1.166 . S
O96 Zn81 1.905 . S
O96 C97 1.182 . S
C97 O95 1.166 . S
C97 O96 1.182 . S
O98 Zn83 2.080 . S
O98 C101 1.305 . S
O99 Zn82 1.920 . S
O99 C101 1.234 . S
C100 O86 1.305 . S
C100 O87 1.234 . S
C101 O98 1.305 . S
C101 O99 1.234 . S
H102 C110 0.950 . S
H103 C115 0.950 . S
H104 C112 0.950 . S
H105 C114 0.950 . S
H106 C116 0.950 . S
H107 C118 0.950 . S
H108 C120 0.950 . S
H109 C121 0.950 . S
C110 H102 0.950 . S
C110 C111 1.386 . S
C110 C112 1.391 . S
C111 C110 1.386 . S
C111 C115 1.393 . S
C112 H104 0.950 . S
C112 C110 1.391 . S
C112 C113 1.400 . S
C113 C112 1.400 . S
C113 C114 1.398 . S
C113 C119 1.491 . S
C114 H105 0.950 . S
C114 C113 1.398 . S
C114 C115 1.391 . S
C115 H103 0.950 . S
C115 C111 1.393 . S
C115 C114 1.391 . S
C116 H106 0.950 . S
C116 C117 1.386 . S
C116 C118 1.391 . S
C117 C116 1.386 . S
C117 C121 1.393 . S
C118 H107 0.950 . S
C118 C116 1.391 . S
C118 C119 1.400 . S
C119 C113 1.491 . S
C119 C118 1.400 . S
C119 C120 1.398 . S
C120 H108 0.950 . S
C120 C119 1.398 . S
C120 C121 1.391 . S
C121 H109 0.950 . S
C121 C117 1.393 . S
C121 C120 1.391 . S
H122 C130 0.950 . S
H123 C135 0.950 . S
H124 C132 0.950 . S
H125 C134 0.950 . S
H126 C136 0.950 . S
H127 C138 0.950 . S
H128 C140 0.950 . S
H129 C141 0.950 . S
C130 H122 0.950 . S
C130 C131 1.386 . S
C130 C132 1.391 . S
C131 C130 1.386 . S
C131 C135 1.393 . S
C132 H124 0.950 . S
C132 C130 1.391 . S
C132 C133 1.400 . S
C133 C132 1.400 . S
C133 C134 1.398 . S
C133 C139 1.491 . S
C134 H125 0.950 . S
C134 C133 1.398 . S
C134 C135 1.391 . S
C135 H123 0.950 . S
C135 C131 1.393 . S
C135 C134 1.391 . S
C136 H126 0.950 . S
C136 C137 1.386 . S
C136 C138 1.391 . S
C137 C136 1.386 . S
C137 C141 1.393 . S
C138 H127 0.950 . S
C138 C136 1.391 . S
C138 C139 1.400 . S
C139 C133 1.491 . S
C139 C138 1.400 . S
C139 C140 1.398 . S
C140 H128 0.950 . S
C140 C139 1.398 . S
C140 C141 1.391 . S
C141 H129 0.950 . S
C141 C137 1.393 . S
C141 C140 1.391 . S
H142 C150 0.950 . S
H143 C155 0.950 . S
H144 C152 0.950 . S
H145 C154 0.950 . S
H146 C156 0.950 . S
H147 C158 0.950 . S
H148 C160 0.950 . S
H149 C161 0.950 . S
C150 H142 0.950 . S
C150 C151 1.386 . S
C150 C152 1.391 . S
C151 C150 1.386 . S
C151 C155 1.393 . S
C152 H144 0.950 . S
C152 C150 1.391 . S
C152 C153 1.400 . S
C153 C152 1.400 . S
C153 C154 1.398 . S
C153 C159 1.491 . S
C154 H145 0.950 . S
C154 C153 1.398 . S
C154 C155 1.391 . S
C155 H143 0.950 . S
C155 C151 1.393 . S
C155 C154 1.391 . S
C156 H146 0.950 . S
C156 C157 1.386 . S
C156 C158 1.391 . S
C157 C156 1.386 . S
C157 C161 1.393 . S
C158 H147 0.950 . S
C158 C156 1.391 . S
C158 C159 1.400 . S
C159 C153 1.491 . S
C159 C158 1.400 . S
C159 C160 1.398 . S
C160 H148 0.950 . S
C160 C159 1.398 . S
C160 C161 1.391 . S
C161 H149 0.950 . S
C161 C157 1.393 . S
C161 C160 1.391 . S
H162 C170 0.950 . S
H163 C175 0.950 . S
H164 C172 0.950 . S
H165 C174 0.950 . S
H166 C176 0.950 . S
H167 C178 0.950 . S
H168 C180 0.950 . S
H169 C181 0.950 . S
C170 H162 0.950 . S
C170 C171 1.386 . S
C170 C172 1.391 . S
C171 C170 1.386 . S
C171 C175 1.393 . S
C172 H164 0.950 . S
C172 C170 1.391 . S
C172 C173 1.400 . S
C173 C172 1.400 . S
C173 C174 1.398 . S
C173 C179 1.491 . S
C174 H165 0.950 . S
C174 C173 1.398 . S
C174 C175 1.391 . S
C175 H163 0.950 . S
C175 C171 1.393 . S
C175 C174 1.391 . S
C176 H166 0.950 . S
C176 C177 1.386 . S
C176 C178 1.391 . S
C177 C176 1.386 . S
C177 C181 1.393 . S
C178 H167 0.950 . S
C178 C176 1.391 . S
C178 C179 1.400 . S
C179 C173 1.491 . S
C179 C178 1.400 . S
C179 C180 1.398 . S
C180 H168 0.950 . S
C180 C179 1.398 . S
C180 C181 1.391 . S
C181 H169 0.950 . S
C181 C177 1.393 . S
C181 C180 1.391 . S
H182 C190 0.950 1_545 S
H183 C195 0.950 . S
H184 C192 0.950 . S
H185 C194 0.950 . S
H186 C196 0.950 . S
H187 C198 0.950 . S
H188 C200 0.950 . S
H189 C201 0.950 . S
C190 H182 0.950 1_565 S
C190 C191 1.386 . S
C190 C192 1.391 . S
C191 C190 1.386 . S
C191 C195 1.393 . S
C192 H184 0.950 . S
C192 C190 1.391 . S
C192 C193 1.400 . S
C193 C192 1.400 . S
C193 C194 1.398 . S
C193 C199 1.491 . S
C194 H185 0.950 . S
C194 C193 1.398 . S
C194 C195 1.391 . S
C195 H183 0.950 . S
C195 C191 1.393 . S
C195 C194 1.391 . S
C196 H186 0.950 . S
C196 C197 1.386 . S
C196 C198 1.391 . S
C197 C196 1.386 . S
C197 C201 1.393 . S
C198 H187 0.950 . S
C198 C196 1.391 . S
C198 C199 1.400 . S
C199 C193 1.491 . S
C199 C198 1.400 . S
C199 C200 1.398 . S
C200 H188 0.950 . S
C200 C199 1.398 . S
C200 C201 1.391 . S
C201 H189 0.950 . S
C201 C197 1.393 . S
C201 C200 1.391 . S
H202 C210 0.950 1_455 S
H203 C215 0.950 . S
H204 C212 0.950 . S
H205 C214 0.950 . S
H206 C216 0.950 . S
H207 C218 0.950 . S
H208 C220 0.950 . S
H209 C221 0.950 . S
C210 H202 0.950 1_655 S
C210 C211 1.386 . S
C210 C212 1.391 . S
C211 C210 1.386 . S
C211 C215 1.393 . S
C212 H204 0.950 . S
C212 C210 1.391 . S
C212 C213 1.400 . S
C213 C212 1.400 . S
C213 C214 1.398 . S
C213 C219 1.491 . S
C214 H205 0.950 . S
C214 C213 1.398 . S
C214 C215 1.391 . S
C215 H203 0.950 . S
C215 C211 1.393 . S
C215 C214 1.391 . S
C216 H206 0.950 . S
C216 C217 1.386 . S
C216 C218 1.391 . S
C217 C216 1.386 . S
C217 C221 1.393 . S
C218 H207 0.950 . S
C218 C216 1.391 . S
C218 C219 1.400 . S
C219 C213 1.491 . S
C219 C218 1.400 . S
C219 C220 1.398 . S
C220 H208 0.950 . S
C220 C219 1.398 . S
C220 C221 1.391 . S
C221 H209 0.950 . S
C221 C217 1.393 . S
C221 C220 1.391 . S
H222 C230 0.950 1_545 S
H223 C235 0.950 . S
H224 C232 0.950 . S
H225 C234 0.950 . S
H226 C236 0.950 . S
H227 C238 0.950 . S
H228 C240 0.950 . S
H229 C241 0.950 . S
C230 H222 0.950 1_565 S
C230 C231 1.386 . S
C230 C232 1.391 . S
C231 C230 1.386 . S
C231 C235 1.393 . S
C232 H224 0.950 . S
C232 C230 1.391 . S
C232 C233 1.400 . S
C233 C232 1.400 . S
C233 C234 1.398 . S
C233 C239 1.491 . S
C234 H225 0.950 . S
C234 C233 1.398 . S
C234 C235 1.391 . S
C235 H223 0.950 . S
C235 C231 1.393 . S
C235 C234 1.391 . S
C236 H226 0.950 . S
C236 C237 1.386 . S
C236 C238 1.391 . S
C237 C236 1.386 . S
C237 C241 1.393 . S
C238 H227 0.950 . S
C238 C236 1.391 . S
C238 C239 1.400 . S
C239 C233 1.491 . S
C239 C238 1.400 . S
C239 C240 1.398 . S
C240 H228 0.950 . S
C240 C239 1.398 . S
C240 C241 1.391 . S
C241 H229 0.950 . S
C241 C237 1.393 . S
C241 C240 1.391 . S
H242 C250 0.950 . S
H243 C255 0.950 . S
H244 C252 0.950 . S
H245 C254 0.950 . S
H246 C256 0.950 . S
H247 C258 0.950 . S
H248 C260 0.950 . S
H249 C261 0.950 . S
C250 H242 0.950 . S
C250 C251 1.386 . S
C250 C252 1.391 . S
C251 C250 1.386 . S
C251 C255 1.393 . S
C252 H244 0.950 . S
C252 C250 1.391 . S
C252 C253 1.400 . S
C253 C252 1.400 . S
C253 C254 1.398 . S
C253 C259 1.491 . S
C254 H245 0.950 . S
C254 C253 1.398 . S
C254 C255 1.391 . S
C255 H243 0.950 . S
C255 C251 1.393 . S
C255 C254 1.391 . S
C256 H246 0.950 . S
C256 C257 1.386 . S
C256 C258 1.391 . S
C257 C256 1.386 . S
C257 C261 1.393 . S
C258 H247 0.950 . S
C258 C256 1.391 . S
C258 C259 1.400 . S
C259 C253 1.491 . S
C259 C258 1.400 . S
C259 C260 1.398 . S
C260 H248 0.950 . S
C260 C259 1.398 . S
C260 C261 1.391 . S
C261 H249 0.950 . S
C261 C257 1.393 . S
C261 C260 1.391 . S
H262 C270 0.950 . S
H263 C275 0.950 . S
H264 C272 0.950 . S
H265 C274 0.950 . S
H266 C276 0.950 . S
H267 C278 0.950 . S
H268 C280 0.950 . S
H269 C281 0.950 . S
C270 H262 0.950 . S
C270 C271 1.386 . S
C270 C272 1.391 . S
C271 C270 1.386 . S
C271 C275 1.393 . S
C272 H264 0.950 . S
C272 C270 1.391 . S
C272 C273 1.400 . S
C273 C272 1.400 . S
C273 C274 1.398 . S
C273 C279 1.491 . S
C274 H265 0.950 . S
C274 C273 1.398 . S
C274 C275 1.391 . S
C275 H263 0.950 . S
C275 C271 1.393 . S
C275 C274 1.391 . S
C276 H266 0.950 . S
C276 C277 1.386 . S
C276 C278 1.391 . S
C277 C276 1.386 . S
C277 C281 1.393 . S
C278 H267 0.950 . S
C278 C276 1.391 . S
C278 C279 1.400 . S
C279 C273 1.491 . S
C279 C278 1.400 . S
C279 C280 1.398 . S
C280 H268 0.950 . S
C280 C279 1.398 . S
C280 C281 1.391 . S
C281 H269 0.950 . S
C281 C277 1.393 . S
C281 C280 1.391 . S
H282 C290 0.950 1_455 S
H283 C295 0.950 . S
H284 C292 0.950 . S
H285 C294 0.950 . S
H286 C296 0.950 . S
H287 C298 0.950 . S
H288 C300 0.950 . S
H289 C301 0.950 . S
C290 H282 0.950 1_655 S
C290 C291 1.386 . S
C290 C292 1.391 . S
C291 C290 1.386 . S
C291 C295 1.393 . S
C292 H284 0.950 . S
C292 C290 1.391 . S
C292 C293 1.400 . S
C293 C292 1.400 . S
C293 C294 1.398 . S
C293 C299 1.491 . S
C294 H285 0.950 . S
C294 C293 1.398 . S
C294 C295 1.391 . S
C295 H283 0.950 . S
C295 C291 1.393 . S
C295 C294 1.391 . S
C296 H286 0.950 . S
C296 C297 1.386 . S
C296 C298 1.391 . S
C297 C296 1.386 . S
C297 C301 1.393 . S
C298 H287 0.950 . S
C298 C296 1.391 . S
C298 C299 1.400 . S
C299 C293 1.491 . S
C299 C298 1.400 . S
C299 C300 1.398 . S
C300 H288 0.950 . S
C300 C299 1.398 . S
C300 C301 1.391 . S
C301 H289 0.950 . S
C301 C297 1.393 . S
C301 C300 1.391 . S
H302 C310 0.950 . S
H303 C315 0.950 . S
H304 C312 0.950 . S
H305 C314 0.950 . S
H306 C316 0.950 . S
H307 C318 0.950 . S
H308 C320 0.950 . S
H309 C321 0.950 . S
C310 H302 0.950 . S
C310 C311 1.386 . S
C310 C312 1.391 . S
C311 C310 1.386 . S
C311 C315 1.393 . S
C312 H304 0.950 . S
C312 C310 1.391 . S
C312 C313 1.400 . S
C313 C312 1.400 . S
C313 C314 1.398 . S
C313 C319 1.491 . S
C314 H305 0.950 . S
C314 C313 1.398 . S
C314 C315 1.391 . S
C315 H303 0.950 . S
C315 C311 1.393 . S
C315 C314 1.391 . S
C316 H306 0.950 . S
C316 C317 1.386 . S
C316 C318 1.391 . S
C317 C316 1.386 . S
C317 C321 1.393 . S
C318 H307 0.950 . S
C318 C316 1.391 . S
C318 C319 1.400 . S
C319 C313 1.491 . S
C319 C318 1.400 . S
C319 C320 1.398 . S
C320 H308 0.950 . S
C320 C319 1.398 . S
C320 C321 1.391 . S
C321 H309 0.950 . S
C321 C317 1.393 . S
C321 C320 1.391 . S
H322 C330 0.950 . S
H323 C335 0.950 . S
H324 C332 0.950 . S
H325 C334 0.950 . S
H326 C336 0.950 . S
H327 C338 0.950 . S
H328 C340 0.950 . S
H329 C341 0.950 . S
C330 H322 0.950 . S
C330 C331 1.386 . S
C330 C332 1.391 . S
C331 C330 1.386 . S
C331 C335 1.393 . S
C332 H324 0.950 . S
C332 C330 1.391 . S
C332 C333 1.400 . S
C333 C332 1.400 . S
C333 C334 1.398 . S
C333 C339 1.491 . S
C334 H325 0.950 . S
C334 C333 1.398 . S
C334 C335 1.391 . S
C335 H323 0.950 . S
C335 C331 1.393 . S
C335 C334 1.391 . S
C336 H326 0.950 . S
C336 C337 1.386 . S
C336 C338 1.391 . S
C337 C336 1.386 . S
C337 C341 1.393 . S
C338 H327 0.950 . S
C338 C336 1.391 . S
C338 C339 1.400 . S
C339 C333 1.491 . S
C339 C338 1.400 . S
C339 C340 1.398 . S
C340 H328 0.950 . S
C340 C339 1.398 . S
C340 C341 1.391 . S
C341 H329 0.950 . S
C341 C337 1.393 . S
C341 C340 1.391 . S
C111 C16 1.503 . S
C117 C79 1.330 . S
C131 N36 1.186 . S
C137 C85 1.111 . S
C151 N14 1.211 . S
C157 C76 1.119 . S
C171 C57 1.634 . S
C177 C101 1.459 . S
C191 C1 1.801 . S
C197 C67 1.653 . S
C217 C84 1.542 . S
C211 C40 1.679 . S
C231 C46 1.506 . S
C237 C80 1.361 . S
C257 C97 1.572 . S
C251 C10 1.681 . S
C277 C64 1.658 . S
C271 C31 1.803 . S
C297 C100 1.436 . S
C291 C27 1.633 . S
C317 C63 1.155 . S
C311 N44 1.217 . S
C337 C88 1.099 . S
C331 N6 1.213 . S
