# Generated by pormake.
# Topology scu, (8,4)-cn, num edge types: 1
# Building blocks:
#     Node 0, Type 0, BuildingBlock: TAGTUT_clean_sbu_3, # of connection points: 8
#     Node 1, Type 1, BuildingBlock: ESEHIV_clean_sbu_0, # of connection points: 4
#     Node 2, Type 1, BuildingBlock: ESEHIV_clean_sbu_0, # of connection points: 4
#     Edge 3, Type (0, 1), BuildingBlock: UVAHIK_clean_linker_0, # of connection points: 2
#     Edge 4, Type (0, 1), BuildingBlock: UVAHIK_clean_linker_0, # of connection points: 2
#     Edge 5, Type (0, 1), BuildingBlock: UVAHIK_clean_linker_0, # of connection points: 2
#     Edge 6, Type (0, 1), BuildingBlock: UVAHIK_clean_linker_0, # of connection points: 2
#     Edge 7, Type (0, 1), BuildingBlock: UVAHIK_clean_linker_0, # of connection points: 2
#     Edge 8, Type (0, 1), BuildingBlock: UVAHIK_clean_linker_0, # of connection points: 2
#     Edge 9, Type (0, 1), BuildingBlock: UVAHIK_clean_linker_0, # of connection points: 2
#     Edge 10, Type (0, 1), BuildingBlock: UVAHIK_clean_linker_0, # of connection points: 2
# Relax obj value: 0.025
# Max RMSD: 0.104
# Mean RMSD: 0.103
data_MOF--net-scu--node1-TAGTUT_clean_sbu_3--node2-ESEHIV_clean_sbu_0--edge1-UVAHIK_clean_linker_0
_symmetry_space_group_name_H-M    P1
_symmetry_Int_Tables_number       1
_symmetry_cell_setting            triclinic
loop_
_symmetry_equiv_pos_as_xyz
'x, y, z'
_cell_length_a     35.651179
_cell_length_b     30.833693
_cell_length_c     25.588992
_cell_angle_alpha  93.659176
_cell_angle_beta   94.720614
_cell_angle_gamma 89.869208
loop_
_atom_site_label
_atom_site_type_symbol
_atom_site_fract_x
_atom_site_fract_y
_atom_site_fract_z
_atom_type_partial_charge
C0 C 0.01805 0.94012 0.08235 0.0
C1 C 0.88065 0.00281 0.07372 0.0
C2 C 0.90562 0.04357 0.9228 0.0
Mg3 Mg 0.09248 0.97179 0.03032 0.0
Mg4 Mg 0.1043 0.07302 0.99923 0.0
O5 O 0.07288 0.02404 0.9938 0.0
Mg6 Mg 0.02039 0.02633 0.01659 0.0
O7 O 0.96796 0.0232 0.03893 0.0
Mg8 Mg 0.9499 0.96834 0.99789 0.0
Mg9 Mg 0.93528 0.07092 0.03584 0.0
C10 C 0.02842 0.11131 0.94446 0.0
O11 O 0.03136 0.08403 0.07875 0.0
O12 O 0.14486 0.9751 0.98125 0.0
O13 O 0.97512 0.11836 0.07594 0.0
O14 O 0.12464 0.01389 0.098 0.0
O15 O 0.14954 0.04398 0.95829 0.0
O16 O 0.1252 0.08389 0.08064 0.0
O17 O 1.00491 0.97033 0.95515 0.0
O18 O 0.059 0.93317 0.96301 0.0
C19 C 0.02545 0.93781 0.94214 0.0
C20 C 0.16098 0.0045 0.95735 0.0
O21 O 1.00799 0.08042 0.95869 0.0
O22 O 0.89721 0.97254 0.04728 0.0
O23 O 0.06382 0.11531 0.9586 0.0
O24 O 0.91665 0.00535 0.93331 0.0
O25 O 0.89148 0.04259 0.076 0.0
O26 O 0.91216 0.07606 0.95573 0.0
O27 O 0.03734 0.97345 0.07308 0.0
O28 O 0.98472 0.93317 0.06081 0.0
C29 C 0.13358 0.05353 0.11127 0.0
C30 C 1.01032 0.11638 0.09168 0.0
Cu31 Cu 0.98581 0.50628 0.5035 0.0
N32 N 0.9489 0.47086 0.52599 0.0
N33 N 0.92487 0.42181 0.57452 0.0
C34 C 0.95348 0.44952 0.57025 0.0
C35 C 0.90119 0.42589 0.53119 0.0
C36 C 0.91602 0.45646 0.50137 0.0
O37 O 0.02654 0.46739 0.48642 0.0
C38 C 0.0237 0.57823 0.56333 0.0
O39 O 0.04737 0.57814 0.52661 0.0
H40 H 0.9785 0.45244 0.59726 0.0
H41 H 0.9043 0.46619 0.46362 0.0
N42 N 0.96874 0.53309 0.44258 0.0
N43 N 0.96815 0.57958 0.37891 0.0
C44 C 0.9774 0.57349 0.43016 0.0
C45 C 0.95309 0.5131 0.39783 0.0
C46 C 0.95252 0.54171 0.35857 0.0
C47 C 0.04831 0.47399 0.45073 0.0
O48 O 0.04859 0.51237 0.43126 0.0
H49 H 0.9929 0.59674 0.457 0.0
H50 H 0.94514 0.47917 0.39317 0.0
O51 O 0.99791 0.54961 0.56052 0.0
H52 H 0.87556 0.40737 0.5212 0.0
H53 H 0.94292 0.53445 0.31772 0.0
Cu54 Cu 0.51312 0.98589 0.50312 0.0
N55 N 0.48891 0.94978 0.54559 0.0
N56 N 0.45085 0.93091 0.60569 0.0
C57 C 0.46308 0.96341 0.57835 0.0
C58 C 0.46979 0.89529 0.58909 0.0
C59 C 0.49331 0.90707 0.55207 0.0
O60 O 0.47473 0.02626 0.47719 0.0
C61 C 0.58206 0.98621 0.55866 0.0
O62 O 0.57735 0.94487 0.54378 0.0
H63 H 0.4534 0.99668 0.58166 0.0
H64 H 0.51257 0.88613 0.53187 0.0
N65 N 0.53201 0.95415 0.44632 0.0
N66 N 0.56949 0.93698 0.38223 0.0
C67 C 0.56257 0.96536 0.42265 0.0
C68 C 0.51905 0.91724 0.42018 0.0
C69 C 0.54224 0.90646 0.38065 0.0
C70 C 0.47199 0.03885 0.43058 0.0
O71 O 0.49917 0.02972 0.40005 0.0
H72 H 0.5794 0.99389 0.43513 0.0
H73 H 0.49433 0.89969 0.42892 0.0
O74 O 0.55599 0.01272 0.54551 0.0
H75 H 0.4675 0.8632 0.6034 0.0
H76 H 0.53877 0.87891 0.35226 0.0
C77 C 1.00719 0.19257 0.13068 0.0
C78 C 0.02677 0.15306 0.12643 0.0
C79 C 0.0213 0.22685 0.16476 0.0
C80 C 0.08098 0.2505 0.28626 0.0
H81 H 0.0657 0.36908 0.24723 0.0
C82 C 0.08458 0.44201 0.37771 0.0
C83 C 0.06497 0.43618 0.42223 0.0
C84 C 0.09248 0.40646 0.34363 0.0
C85 C 0.07103 0.33632 0.2588 0.0
H86 H 0.07694 0.11887 0.1546 0.0
H87 H 0.10173 0.17915 0.21449 0.0
H88 H 0.0558 0.30952 0.18082 0.0
H89 H 0.04149 0.38785 0.46841 0.0
H90 H 0.05453 0.32631 0.40878 0.0
H91 H 0.09555 0.27741 0.3646 0.0
C92 C 0.07533 0.18334 0.19124 0.0
C93 C 0.06484 0.30206 0.2207 0.0
C94 C 0.06126 0.14894 0.15668 0.0
C95 C 0.05645 0.39363 0.43433 0.0
C96 C 0.06414 0.35815 0.40012 0.0
C97 C 0.08724 0.28487 0.32451 0.0
C98 C 0.05536 0.22264 0.19576 0.0
C99 C 0.06844 0.25872 0.2343 0.0
C100 C 0.08078 0.36432 0.35315 0.0
C101 C 0.08115 0.32817 0.31157 0.0
H102 H 0.98063 0.19704 0.10792 0.0
H103 H 1.00486 0.25635 0.16787 0.0
H104 H 0.08399 0.21747 0.29804 0.0
H105 H 0.09197 0.47427 0.3675 0.0
H106 H 0.10617 0.41229 0.30848 0.0
C107 C 0.83526 0.94877 0.10395 0.0
C108 C 0.84763 0.99196 0.10237 0.0
C109 C 0.80385 0.93925 0.13083 0.0
C110 C 0.71883 0.99069 0.18089 0.0
H111 H 0.72092 0.89601 0.27379 0.0
C112 C 0.61409 0.98067 0.33828 0.0
C113 C 0.59906 0.93997 0.34731 0.0
C114 C 0.64296 0.98391 0.30506 0.0
C115 C 0.71967 0.92218 0.24741 0.0
H116 H 0.83657 0.05889 0.12836 0.0
H117 H 0.78241 0.04228 0.17502 0.0
H118 H 0.77423 0.90705 0.22165 0.0
H119 H 0.60282 0.87066 0.3284 0.0
H120 H 0.65328 0.87634 0.26978 0.0
H121 H 0.66466 0.00628 0.20694 0.0
C122 C 0.79658 0.01578 0.15499 0.0
C123 C 0.75021 0.9285 0.21755 0.0
C124 C 0.82791 0.02525 0.12844 0.0
C125 C 0.61358 0.9025 0.32199 0.0
C126 C 0.64271 0.90573 0.28881 0.0
C127 C 0.6884 0.98439 0.21062 0.0
C128 C 0.78402 0.97274 0.15636 0.0
C129 C 0.75043 0.96337 0.18472 0.0
C130 C 0.65766 0.94654 0.27989 0.0
C131 C 0.68873 0.9506 0.24502 0.0
H132 H 0.84976 0.9223 0.08438 0.0
H133 H 0.79476 0.90577 0.13097 0.0
H134 H 0.71771 0.01727 0.1551 0.0
H135 H 0.60331 0.01025 0.35651 0.0
H136 H 0.65412 0.01581 0.29964 0.0
C137 C 0.03975 0.86507 0.09307 0.0
C138 C 0.03393 0.90678 0.11597 0.0
C139 C 0.04186 0.82924 0.12387 0.0
C140 C 0.04502 0.79293 0.26027 0.0
H141 H 0.97749 0.70335 0.19426 0.0
C142 C 0.98242 0.65792 0.37572 0.0
C143 C 0.9785 0.6161 0.35051 0.0
C144 C 0.99347 0.69306 0.34843 0.0
C145 C 0.99692 0.72759 0.21312 0.0
H146 H 0.02786 0.94461 0.18883 0.0
H147 H 0.03138 0.88189 0.24312 0.0
H148 H 0.99336 0.76443 0.14512 0.0
H149 H 0.98436 0.57832 0.27722 0.0
H150 H 1.00366 0.6392 0.22986 0.0
H151 H 0.04798 0.756 0.32873 0.0
C152 C 0.03501 0.87676 0.20158 0.0
C153 C 1.00614 0.76268 0.18481 0.0
C154 C 0.0332 0.91273 0.17065 0.0
C155 C 0.9862 0.6102 0.29754 0.0
C156 C 0.99739 0.64519 0.27038 0.0
C157 C 0.03585 0.75758 0.28868 0.0
C158 C 0.03744 0.83442 0.17804 0.0
C159 C 0.03024 0.79586 0.20795 0.0
C160 C 1.00099 0.68713 0.29533 0.0
C161 C 0.01157 0.72453 0.26543 0.0
H162 H 0.03984 0.8598 0.05078 0.0
H163 H 0.04456 0.79717 0.1047 0.0
H164 H 0.06372 0.8179 0.27918 0.0
H165 H 0.97648 0.66357 0.4164 0.0
H166 H 0.99543 0.725 0.36868 0.0
C167 C 0.17422 0.1049 0.17203 0.0
C168 C 0.15895 0.06308 0.15975 0.0
C169 C 0.20379 0.11168 0.21132 0.0
C170 C 0.2841 0.10722 0.26109 0.0
H171 H 0.29798 0.03789 0.38228 0.0
C172 C 0.43072 0.06358 0.35412 0.0
C173 C 0.43575 0.05634 0.40794 0.0
C174 C 0.39517 0.07346 0.33066 0.0
C175 C 0.29451 0.05817 0.34922 0.0
H176 H 0.16098 0.99637 0.18229 0.0
H177 H 0.21241 0.00798 0.24969 0.0
H178 H 0.23684 0.0391 0.33263 0.0
H179 H 0.40756 0.05647 0.47991 0.0
H180 H 0.34569 0.07466 0.43919 0.0
H181 H 0.34176 0.1263 0.27768 0.0
C182 C 0.20161 0.03574 0.22942 0.0
C183 C 0.25945 0.05841 0.32025 0.0
C184 C 0.17208 0.029 0.19034 0.0
C185 C 0.4047 0.06161 0.43829 0.0
C186 C 0.36911 0.07169 0.41482 0.0
C187 C 0.3191 0.10717 0.29023 0.0
C188 C 0.21874 0.07684 0.2393 0.0
C189 C 0.25405 0.08194 0.2749 0.0
C190 C 0.36366 0.07664 0.3604 0.0
C191 C 0.32511 0.08168 0.33382 0.0
H192 H 0.16459 0.13204 0.14967 0.0
H193 H 0.21573 0.14397 0.21862 0.0
H194 H 0.28123 0.12552 0.22625 0.0
H195 H 0.45392 0.05975 0.32945 0.0
H196 H 0.39217 0.07649 0.2886 0.0
C197 C 0.03187 0.90767 0.85187 0.0
C198 C 0.01308 0.90734 0.89782 0.0
C199 C 0.02716 0.87353 0.81345 0.0
C200 C 1.00612 0.7571 0.802 0.0
H201 H 1.00849 0.77149 0.65284 0.0
C202 C 0.99998 0.61241 0.64563 0.0
C203 C 0.0235 0.61441 0.60431 0.0
C204 C 0.99665 0.64803 0.68149 0.0
C205 C 1.00817 0.76696 0.69443 0.0
H206 H 0.97402 0.87219 0.93983 0.0
H207 H 0.96527 0.81203 0.87208 0.0
H208 H 1.00189 0.83513 0.71308 0.0
H209 H 0.06272 0.65513 0.56913 0.0
H210 H 0.05711 0.71733 0.63208 0.0
H211 H 0.01284 0.68897 0.78338 0.0
C212 C 0.98365 0.83877 0.86568 0.0
C213 C 1.00421 0.80339 0.72891 0.0
C214 C 0.98821 0.87329 0.90408 0.0
C215 C 0.04442 0.65248 0.60052 0.0
C216 C 0.04091 0.68827 0.63627 0.0
C217 C 1.00999 0.72064 0.76747 0.0
C218 C 1.00388 0.83801 0.82056 0.0
C219 C 1.00365 0.79898 0.78321 0.0
C220 C 0.01661 0.68662 0.67676 0.0
C221 C 0.01157 0.72522 0.71338 0.0
H222 H 0.05171 0.93338 0.84688 0.0
H223 H 0.04355 0.87381 0.77967 0.0
H224 H 1.00647 0.75258 0.84366 0.0
H225 H 0.98347 0.58355 0.64974 0.0
H226 H 0.97756 0.64577 0.71201 0.0
C227 C 0.21614 0.02524 0.90956 0.0
C228 C 0.19344 0.99258 0.92662 0.0
C229 C 0.24594 0.01457 0.87904 0.0
C230 C 0.27883 0.9305 0.78631 0.0
H231 H 0.37406 0.99162 0.81354 0.0
C232 C 0.40389 0.89743 0.65749 0.0
C233 C 0.42388 0.93417 0.64498 0.0
C234 C 0.37735 0.90104 0.69498 0.0
C235 C 0.34755 0.9745 0.80505 0.0
H236 H 0.18451 0.9229 0.92501 0.0
H237 H 0.23659 0.90431 0.87107 0.0
H238 H 0.32494 0.00428 0.87349 0.0
H239 H 0.43195 0.0034 0.66346 0.0
H240 H 0.38523 0.00986 0.72707 0.0
H241 H 0.30101 0.90165 0.717 0.0
C242 C 0.23116 0.9382 0.88154 0.0
C243 C 0.31945 0.98168 0.83954 0.0
C244 C 0.2015 0.94886 0.91267 0.0
C245 C 0.41684 0.97445 0.67129 0.0
C246 C 0.39033 0.97806 0.70855 0.0
C247 C 0.3069 0.9235 0.75152 0.0
C248 C 0.25366 0.97099 0.86436 0.0
C249 C 0.28456 0.96031 0.83014 0.0
C250 C 0.37019 0.94146 0.72092 0.0
C251 C 0.3414 0.94601 0.75998 0.0
H252 H 0.21083 0.05924 0.91958 0.0
H253 H 0.26246 0.04061 0.86591 0.0
H254 H 0.25211 0.91381 0.77779 0.0
H255 H 0.40831 0.86595 0.63784 0.0
H256 H 0.36259 0.87208 0.70383 0.0
C257 C 0.97279 0.15287 0.90711 0.0
C258 C 0.01121 0.14235 0.90784 0.0
C259 C 0.95679 0.18159 0.87132 0.0
C260 C 0.96912 0.22326 0.74333 0.0
H261 H 0.91598 0.32623 0.79149 0.0
C262 C 0.91027 0.34806 0.59977 0.0
C263 C 0.92338 0.3905 0.6137 0.0
C264 C 0.91374 0.31611 0.63633 0.0
C265 C 0.93047 0.2974 0.77749 0.0
H266 H 0.06297 0.15356 0.87169 0.0
H267 H 0.03498 0.20304 0.80892 0.0
H268 H 0.93687 0.27232 0.85409 0.0
H269 H 0.9481 0.43353 0.67736 0.0
H270 H 0.95377 0.37792 0.74148 0.0
H271 H 0.96354 0.24852 0.6671 0.0
C272 C 0.01725 0.18917 0.83601 0.0
C273 C 0.94222 0.26654 0.81317 0.0
C274 C 0.03331 0.16113 0.87223 0.0
C275 C 0.93806 0.40097 0.66559 0.0
C276 C 0.94102 0.36925 0.70232 0.0
C277 C 0.95689 0.25369 0.70757 0.0
C278 C 0.97886 0.19962 0.8351 0.0
C279 C 0.96245 0.22973 0.79659 0.0
C280 C 0.9298 0.32624 0.68769 0.0
C281 C 0.93818 0.29154 0.72448 0.0
H282 H 0.95528 0.13938 0.9346 0.0
H283 H 0.92713 0.18925 0.87144 0.0
H284 H 0.98446 0.19499 0.72953 0.0
H285 H 0.89908 0.33906 0.55996 0.0
H286 H 0.90471 0.28323 0.62411 0.0
C287 C 0.85538 0.08402 0.87079 0.0
C288 C 0.87995 0.04833 0.87478 0.0
C289 C 0.82538 0.08336 0.83163 0.0
C290 C 0.76535 0.00181 0.75532 0.0
H291 H 0.72484 0.09719 0.67671 0.0
C292 C 0.64783 0.97124 0.59295 0.0
C293 C 0.61736 1.0002 0.5899 0.0
C294 C 0.68051 0.98171 0.62486 0.0
C295 C 0.73565 0.07043 0.69884 0.0
H296 H 0.89455 0.98615 0.8374 0.0
H297 H 0.84299 0.98544 0.76897 0.0
H298 H 0.7825 0.10797 0.73567 0.0
H299 H 0.59797 0.06385 0.61655 0.0
H300 H 0.65544 0.08209 0.67358 0.0
H301 H 0.71877 0.96434 0.7197 0.0
C302 C 0.8461 0.01332 0.79698 0.0
C303 C 0.76869 0.07655 0.73243 0.0
C304 C 0.87585 0.01387 0.83605 0.0
C305 C 0.62094 0.04081 0.61823 0.0
C306 C 0.65387 0.05128 0.6507 0.0
C307 C 0.73252 0.99578 0.72216 0.0
C308 C 0.81952 0.04708 0.79569 0.0
C309 C 0.78422 0.042 0.76037 0.0
C310 C 0.6837 0.02133 0.65519 0.0
C311 C 0.71752 0.02968 0.69276 0.0
H312 H 0.85777 0.11115 0.89993 0.0
H313 H 0.80548 0.10995 0.83159 0.0
H314 H 0.77579 0.97488 0.77748 0.0
H315 H 0.6464 0.93997 0.57101 0.0
H316 H 0.70325 0.95834 0.62618 0.0
loop_
_geom_bond_atom_site_label_1
_geom_bond_atom_site_label_2
_geom_bond_distance
_geom_bond_site_symmetry_2
_ccdc_geom_bond_type
C0 O27 1.312 1_655 S
C0 O28 1.208 . S
C1 O22 1.331 1_545 S
C1 O25 1.244 . S
C2 O24 1.264 1_545 S
C2 O26 1.273 . S
Mg3 O5 1.936 1_564 S
Mg3 O12 2.081 1_554 S
Mg3 O14 2.023 . S
Mg3 O18 2.031 1_554 S
Mg3 O27 2.291 . S
Mg4 O5 1.963 . S
Mg4 O15 1.942 . S
Mg4 O16 1.955 1_556 S
Mg4 O23 1.986 . S
O5 Mg3 1.936 1_546 S
O5 Mg4 1.963 . S
O5 Mg6 1.915 1_556 S
Mg6 O5 1.915 1_554 S
Mg6 O7 1.915 1_455 S
Mg6 O11 2.013 . S
Mg6 O17 2.114 1_444 S
Mg6 O21 2.013 1_454 S
Mg6 O27 2.114 1_545 S
O7 Mg6 1.915 1_655 S
O7 Mg8 1.936 1_545 S
O7 Mg9 1.963 . S
Mg8 O7 1.936 1_565 S
Mg8 O17 2.289 1_554 S
Mg8 O22 2.083 . S
Mg8 O24 2.021 1_554 S
Mg8 O28 2.033 . S
Mg9 O7 1.963 . S
Mg9 O13 1.986 . S
Mg9 O25 1.942 . S
Mg9 O26 1.955 1_554 S
C10 O21 1.191 1_455 S
C10 O23 1.307 . S
O11 Mg6 2.013 . S
O11 C30 1.191 1_455 S
O12 Mg3 2.081 1_556 S
O12 C20 1.331 . S
O13 Mg9 1.986 . S
O13 C30 1.307 . S
O14 Mg3 2.023 . S
O14 C29 1.264 1_565 S
O15 Mg4 1.942 . S
O15 C20 1.244 1_545 S
O16 Mg4 1.955 1_554 S
O16 C29 1.273 . S
O17 Mg6 2.114 1_666 S
O17 Mg8 2.289 1_556 S
O17 C19 1.312 1_655 S
O18 Mg3 2.031 1_556 S
O18 C19 1.208 . S
C19 O17 1.312 1_455 S
C19 O18 1.208 . S
C20 O12 1.331 . S
C20 O15 1.244 1_565 S
O21 Mg6 2.013 1_656 S
O21 C10 1.191 1_655 S
O22 C1 1.331 1_565 S
O22 Mg8 2.083 . S
O23 Mg4 1.986 . S
O23 C10 1.307 . S
O24 C2 1.264 1_565 S
O24 Mg8 2.021 1_556 S
O25 C1 1.244 . S
O25 Mg9 1.942 . S
O26 C2 1.273 . S
O26 Mg9 1.955 1_556 S
O27 C0 1.312 1_455 S
O27 Mg3 2.291 . S
O27 Mg6 2.114 1_565 S
O28 C0 1.208 . S
O28 Mg8 2.033 . S
C29 O14 1.264 1_545 S
C29 O16 1.273 . S
C30 O11 1.191 1_655 S
C30 O13 1.307 . S
Cu31 N32 1.999 . S
Cu31 O37 1.974 . S
Cu31 N42 1.985 . S
Cu31 O51 1.959 . S
N32 Cu31 1.999 . S
N32 C34 1.263 . S
N32 C36 1.389 . S
N33 C34 1.358 . S
N33 C35 1.400 . S
C34 N32 1.263 . S
C34 N33 1.358 . S
C34 H40 0.930 1_655 S
C35 N33 1.400 . S
C35 C36 1.351 . S
C35 H52 0.930 . S
C36 N32 1.389 . S
C36 C35 1.351 . S
C36 H41 0.930 . S
O37 Cu31 1.974 . S
O37 C47 1.282 1_655 S
C38 O39 1.261 . S
C38 O51 1.251 1_455 S
O39 C38 1.261 . S
H40 C34 0.930 1_455 S
H41 C36 0.930 . S
N42 Cu31 1.985 . S
N42 C44 1.335 . S
N42 C45 1.390 1_655 S
N43 C44 1.345 . S
N43 C46 1.336 1_655 S
C44 N42 1.335 . S
C44 N43 1.345 . S
C44 H49 0.930 . S
C45 N42 1.390 1_455 S
C45 C46 1.346 . S
C45 H50 0.930 . S
C46 N43 1.336 1_455 S
C46 C45 1.346 . S
C46 H53 0.929 . S
C47 O37 1.282 1_455 S
C47 O48 1.216 . S
O48 C47 1.216 . S
H49 C44 0.930 . S
H50 C45 0.930 . S
O51 Cu31 1.959 . S
O51 C38 1.251 1_655 S
H52 C35 0.930 . S
H53 C46 0.929 . S
Cu54 N55 1.999 . S
Cu54 O60 1.974 . S
Cu54 N65 1.985 . S
Cu54 O74 1.959 . S
N55 Cu54 1.999 . S
N55 C57 1.263 . S
N55 C59 1.389 . S
N56 C57 1.358 . S
N56 C58 1.400 . S
C57 N55 1.263 . S
C57 N56 1.358 . S
C57 H63 0.930 1_545 S
C58 N56 1.400 . S
C58 C59 1.351 . S
C58 H75 0.930 . S
C59 N55 1.389 . S
C59 C58 1.351 . S
C59 H64 0.930 . S
O60 Cu54 1.974 . S
O60 C70 1.282 1_545 S
C61 O62 1.261 . S
C61 O74 1.251 1_565 S
O62 C61 1.261 . S
H63 C57 0.930 1_565 S
H64 C59 0.930 . S
N65 Cu54 1.985 . S
N65 C67 1.335 . S
N65 C68 1.390 1_545 S
N66 C67 1.345 . S
N66 C69 1.336 1_545 S
C67 N65 1.335 . S
C67 N66 1.345 . S
C67 H72 0.930 . S
C68 N65 1.390 1_565 S
C68 C69 1.346 . S
C68 H73 0.930 . S
C69 N66 1.336 1_565 S
C69 C68 1.346 . S
C69 H76 0.929 . S
C70 O60 1.282 1_565 S
C70 O71 1.216 . S
O71 C70 1.216 . S
H72 C67 0.930 . S
H73 C68 0.930 . S
O74 Cu54 1.959 . S
O74 C61 1.251 1_545 S
H75 C58 0.930 . S
H76 C69 0.929 . S
C77 C78 1.349 1_655 S
C77 C79 1.327 . S
C77 H102 0.950 . S
C78 C77 1.349 1_455 S
C78 C94 1.349 . S
C79 C77 1.327 . S
C79 C98 1.429 1_655 S
C79 H103 0.950 . S
C80 C97 1.574 . S
C80 C99 1.368 . S
C80 H104 0.949 . S
H81 C85 0.949 . S
C82 C83 1.349 . S
C82 C84 1.327 . S
C82 H105 0.950 . S
C83 C82 1.349 . S
C83 C95 1.349 1_455 S
C84 C82 1.327 . S
C84 C100 1.429 . S
C84 H106 0.950 . S
C85 H81 0.949 . S
C85 C93 1.574 . S
C85 C101 1.368 1_655 S
H86 C94 0.950 . S
H87 C92 0.950 . S
H88 C93 0.949 . S
H89 C95 0.950 . S
H90 C96 0.950 . S
H91 C97 0.949 . S
C92 H87 0.950 . S
C92 C94 1.327 . S
C92 C98 1.429 . S
C93 C85 1.574 . S
C93 H88 0.949 . S
C93 C99 1.368 1_655 S
C94 C78 1.349 . S
C94 H86 0.950 . S
C94 C92 1.327 . S
C95 C83 1.349 1_655 S
C95 H89 0.950 . S
C95 C96 1.327 . S
C96 H90 0.950 . S
C96 C95 1.327 . S
C96 C100 1.429 1_655 S
C97 C80 1.574 . S
C97 H91 0.949 . S
C97 C101 1.368 . S
C98 C79 1.429 1_455 S
C98 C92 1.429 . S
C98 C99 1.523 . S
C99 C80 1.368 . S
C99 C93 1.368 1_455 S
C99 C98 1.523 . S
C100 C84 1.429 . S
C100 C96 1.429 1_455 S
C100 C101 1.523 . S
C101 C85 1.368 1_455 S
C101 C97 1.368 . S
C101 C100 1.523 . S
H102 C77 0.950 . S
H103 C79 0.950 . S
H104 C80 0.949 . S
H105 C82 0.950 . S
H106 C84 0.950 . S
C107 C108 1.340 1_565 S
C107 C109 1.327 . S
C107 H132 0.950 . S
C108 C107 1.340 1_545 S
C108 C124 1.357 . S
C109 C107 1.327 . S
C109 C128 1.429 1_565 S
C109 H133 0.950 . S
C110 C127 1.574 . S
C110 C129 1.368 . S
C110 H134 0.949 . S
H111 C115 0.949 . S
C112 C113 1.349 . S
C112 C114 1.327 . S
C112 H135 0.950 . S
C113 C112 1.349 . S
C113 C125 1.349 1_545 S
C114 C112 1.327 . S
C114 C130 1.429 . S
C114 H136 0.950 . S
C115 H111 0.949 . S
C115 C123 1.574 . S
C115 C131 1.368 1_565 S
H116 C124 0.950 . S
H117 C122 0.950 . S
H118 C123 0.949 . S
H119 C125 0.950 . S
H120 C126 0.950 . S
H121 C127 0.949 . S
C122 H117 0.950 . S
C122 C124 1.327 . S
C122 C128 1.429 . S
C123 C115 1.574 . S
C123 H118 0.949 . S
C123 C129 1.368 1_565 S
C124 C108 1.357 . S
C124 H116 0.950 . S
C124 C122 1.327 . S
C125 C113 1.349 1_565 S
C125 H119 0.950 . S
C125 C126 1.327 . S
C126 H120 0.950 . S
C126 C125 1.327 . S
C126 C130 1.429 1_565 S
C127 C110 1.574 . S
C127 H121 0.949 . S
C127 C131 1.368 . S
C128 C109 1.429 1_545 S
C128 C122 1.429 . S
C128 C129 1.523 . S
C129 C110 1.368 . S
C129 C123 1.368 1_545 S
C129 C128 1.523 . S
C130 C114 1.429 . S
C130 C126 1.429 1_545 S
C130 C131 1.523 . S
C131 C115 1.368 1_545 S
C131 C127 1.368 . S
C131 C130 1.523 . S
H132 C107 0.950 . S
H133 C109 0.950 . S
H134 C110 0.949 . S
H135 C112 0.950 . S
H136 C114 0.950 . S
C137 C138 1.349 . S
C137 C139 1.327 . S
C137 H162 0.950 . S
C138 C137 1.349 . S
C138 C154 1.349 1_455 S
C139 C137 1.327 . S
C139 C158 1.429 . S
C139 H163 0.950 . S
C140 C157 1.574 . S
C140 C159 1.352 1_655 S
C140 H164 0.949 . S
H141 C145 0.949 . S
C142 C143 1.349 . S
C142 C144 1.327 . S
C142 H165 0.950 . S
C143 C142 1.349 . S
C143 C155 1.349 1_655 S
C144 C142 1.327 . S
C144 C160 1.429 . S
C144 H166 0.950 . S
C145 H141 0.949 . S
C145 C153 1.574 . S
C145 C161 1.368 1_455 S
H146 C154 0.950 . S
H147 C152 0.950 . S
H148 C153 0.949 . S
H149 C155 0.950 . S
H150 C156 0.950 . S
H151 C157 0.949 . S
C152 H147 0.950 . S
C152 C154 1.327 . S
C152 C158 1.429 1_655 S
C153 C145 1.574 . S
C153 H148 0.949 . S
C153 C159 1.383 . S
C154 C138 1.349 1_655 S
C154 H146 0.950 . S
C154 C152 1.327 . S
C155 C143 1.349 1_455 S
C155 H149 0.950 . S
C155 C156 1.327 . S
C156 H150 0.950 . S
C156 C155 1.327 . S
C156 C160 1.429 1_455 S
C157 C140 1.574 . S
C157 H151 0.949 . S
C157 C161 1.368 . S
C158 C139 1.429 . S
C158 C152 1.429 1_455 S
C158 C159 1.525 . S
C159 C140 1.352 1_455 S
C159 C153 1.383 . S
C159 C158 1.525 . S
C160 C144 1.429 . S
C160 C156 1.429 1_655 S
C160 C161 1.523 . S
C161 C145 1.368 1_655 S
C161 C157 1.368 . S
C161 C160 1.523 . S
H162 C137 0.950 . S
H163 C139 0.950 . S
H164 C140 0.949 . S
H165 C142 0.950 . S
H166 C144 0.950 . S
C167 C168 1.349 . S
C167 C169 1.327 . S
C167 H192 0.950 . S
C168 C167 1.349 . S
C168 C184 1.349 1_545 S
C169 C167 1.327 . S
C169 C188 1.429 . S
C169 H193 0.950 . S
C170 C187 1.574 . S
C170 C189 1.368 1_565 S
C170 H194 0.949 . S
H171 C175 0.949 . S
C172 C173 1.349 . S
C172 C174 1.327 . S
C172 H195 0.950 . S
C173 C172 1.349 . S
C173 C185 1.349 1_565 S
C174 C172 1.327 . S
C174 C190 1.443 . S
C174 H196 0.950 . S
C175 H171 0.949 . S
C175 C183 1.574 . S
C175 C191 1.368 . S
H176 C184 0.950 . S
H177 C182 0.950 . S
H178 C183 0.949 . S
H179 C185 0.950 . S
H180 C186 0.950 . S
H181 C187 0.949 . S
C182 H177 0.950 . S
C182 C184 1.327 . S
C182 C188 1.429 1_565 S
C183 C175 1.574 . S
C183 H178 0.949 . S
C183 C189 1.368 . S
C184 C168 1.349 1_565 S
C184 H176 0.950 . S
C184 C182 1.327 . S
C185 C173 1.349 1_545 S
C185 H179 0.950 . S
C185 C186 1.327 . S
C186 H180 0.950 . S
C186 C185 1.327 . S
C186 C190 1.417 1_545 S
C187 C170 1.574 . S
C187 H181 0.949 . S
C187 C191 1.368 1_565 S
C188 C169 1.429 . S
C188 C182 1.429 1_545 S
C188 C189 1.523 . S
C189 C170 1.368 1_545 S
C189 C183 1.368 . S
C189 C188 1.523 . S
C190 C174 1.443 . S
C190 C186 1.417 1_565 S
C190 C191 1.521 1_565 S
C191 C175 1.368 . S
C191 C187 1.368 1_545 S
C191 C190 1.521 1_545 S
H192 C167 0.950 . S
H193 C169 0.950 . S
H194 C170 0.949 . S
H195 C172 0.950 . S
H196 C174 0.950 . S
C197 C198 1.349 1_455 S
C197 C199 1.327 . S
C197 H222 0.950 . S
C198 C197 1.349 1_655 S
C198 C214 1.349 . S
C199 C197 1.327 . S
C199 C218 1.429 . S
C199 H223 0.950 . S
C200 C217 1.574 . S
C200 C219 1.368 1_655 S
C200 H224 0.949 . S
H201 C205 0.949 . S
C202 C203 1.349 1_655 S
C202 C204 1.327 . S
C202 H225 0.950 . S
C203 C202 1.349 1_455 S
C203 C215 1.349 . S
C204 C202 1.327 . S
C204 C220 1.429 1_655 S
C204 H226 0.950 . S
C205 H201 0.949 . S
C205 C213 1.574 . S
C205 C221 1.368 . S
H206 C214 0.950 . S
H207 C212 0.950 . S
H208 C213 0.949 . S
H209 C215 0.950 . S
H210 C216 0.950 . S
H211 C217 0.949 . S
C212 H207 0.950 . S
C212 C214 1.327 . S
C212 C218 1.429 1_655 S
C213 C205 1.574 . S
C213 H208 0.949 . S
C213 C219 1.368 . S
C214 C198 1.349 . S
C214 H206 0.950 . S
C214 C212 1.327 . S
C215 C203 1.349 . S
C215 H209 0.950 . S
C215 C216 1.327 . S
C216 H210 0.950 . S
C216 C215 1.327 . S
C216 C220 1.429 . S
C217 C200 1.574 . S
C217 H211 0.949 . S
C217 C221 1.368 1_655 S
C218 C199 1.429 . S
C218 C212 1.429 1_455 S
C218 C219 1.523 . S
C219 C200 1.368 1_455 S
C219 C213 1.368 . S
C219 C218 1.523 . S
C220 C204 1.429 1_455 S
C220 C216 1.429 . S
C220 C221 1.523 . S
C221 C205 1.368 . S
C221 C217 1.368 1_455 S
C221 C220 1.523 . S
H222 C197 0.950 . S
H223 C199 0.950 . S
H224 C200 0.949 . S
H225 C202 0.950 . S
H226 C204 0.950 . S
C227 C228 1.349 1_545 S
C227 C229 1.327 . S
C227 H252 0.950 . S
C228 C227 1.349 1_565 S
C228 C244 1.349 . S
C229 C227 1.327 . S
C229 C248 1.436 . S
C229 H253 0.950 . S
C230 C247 1.574 . S
C230 C249 1.368 1_565 S
C230 H254 0.949 . S
H231 C235 0.949 . S
C232 C233 1.349 1_565 S
C232 C234 1.327 . S
C232 H255 0.950 . S
C233 C232 1.349 1_545 S
C233 C245 1.349 . S
C234 C232 1.327 . S
C234 C250 1.429 1_565 S
C234 H256 0.950 . S
C235 H231 0.949 . S
C235 C243 1.574 . S
C235 C251 1.368 . S
H236 C244 0.950 . S
H237 C242 0.950 . S
H238 C243 0.949 . S
H239 C245 0.950 . S
H240 C246 0.950 . S
H241 C247 0.949 . S
C242 H237 0.950 . S
C242 C244 1.327 . S
C242 C248 1.420 1_565 S
C243 C235 1.574 . S
C243 H238 0.949 . S
C243 C249 1.368 . S
C244 C228 1.349 . S
C244 H236 0.950 . S
C244 C242 1.327 . S
C245 C233 1.349 . S
C245 H239 0.950 . S
C245 C246 1.327 . S
C246 H240 0.950 . S
C246 C245 1.327 . S
C246 C250 1.429 . S
C247 C230 1.574 . S
C247 H241 0.949 . S
C247 C251 1.368 1_565 S
C248 C229 1.436 . S
C248 C242 1.420 1_545 S
C248 C249 1.524 . S
C249 C230 1.368 1_545 S
C249 C243 1.368 . S
C249 C248 1.524 . S
C250 C234 1.429 1_545 S
C250 C246 1.429 . S
C250 C251 1.523 . S
C251 C235 1.368 . S
C251 C247 1.368 1_545 S
C251 C250 1.523 . S
H252 C227 0.950 . S
H253 C229 0.950 . S
H254 C230 0.949 . S
H255 C232 0.950 . S
H256 C234 0.950 . S
C257 C258 1.349 . S
C257 C259 1.327 . S
C257 H282 0.950 . S
C258 C257 1.349 . S
C258 C274 1.349 1_455 S
C259 C257 1.327 . S
C259 C278 1.424 1_455 S
C259 H283 0.950 . S
C260 C277 1.574 . S
C260 C279 1.368 . S
C260 H284 0.949 . S
H261 C265 0.949 . S
C262 C263 1.349 . S
C262 C264 1.327 . S
C262 H285 0.950 . S
C263 C262 1.349 . S
C263 C275 1.349 1_655 S
C264 C262 1.327 . S
C264 C280 1.429 . S
C264 H286 0.950 . S
C265 H261 0.949 . S
C265 C273 1.574 . S
C265 C281 1.368 1_455 S
H266 C274 0.950 . S
H267 C272 0.950 . S
H268 C273 0.949 . S
H269 C275 0.950 . S
H270 C276 0.950 . S
H271 C277 0.949 . S
C272 H267 0.950 . S
C272 C274 1.327 . S
C272 C278 1.435 . S
C273 C265 1.574 . S
C273 H268 0.949 . S
C273 C279 1.368 1_455 S
C274 C258 1.349 1_655 S
C274 H266 0.950 . S
C274 C272 1.327 . S
C275 C263 1.349 1_455 S
C275 H269 0.950 . S
C275 C276 1.327 . S
C276 H270 0.950 . S
C276 C275 1.327 . S
C276 C280 1.429 1_455 S
C277 C260 1.574 . S
C277 H271 0.949 . S
C277 C281 1.368 . S
C278 C259 1.424 1_655 S
C278 C272 1.435 . S
C278 C279 1.523 . S
C279 C260 1.368 . S
C279 C273 1.368 1_655 S
C279 C278 1.523 . S
C280 C264 1.429 . S
C280 C276 1.429 1_655 S
C280 C281 1.523 . S
C281 C265 1.368 1_655 S
C281 C277 1.368 . S
C281 C280 1.523 . S
H282 C257 0.950 . S
H283 C259 0.950 . S
H284 C260 0.949 . S
H285 C262 0.950 . S
H286 C264 0.950 . S
C287 C288 1.349 . S
C287 C289 1.327 . S
C287 H312 0.950 . S
C288 C287 1.349 . S
C288 C304 1.349 1_545 S
C289 C287 1.327 . S
C289 C308 1.429 . S
C289 H313 0.950 . S
C290 C307 1.574 . S
C290 C309 1.368 1_565 S
C290 H314 0.949 . S
H291 C295 0.949 . S
C292 C293 1.349 . S
C292 C294 1.327 . S
C292 H315 0.950 . S
C293 C292 1.349 . S
C293 C305 1.349 1_565 S
C294 C292 1.327 . S
C294 C310 1.429 . S
C294 H316 0.950 . S
C295 H291 0.949 . S
C295 C303 1.574 . S
C295 C311 1.388 . S
H296 C304 0.950 . S
H297 C302 0.950 . S
H298 C303 0.949 . S
H299 C305 0.950 . S
H300 C306 0.950 . S
H301 C307 0.949 . S
C302 H297 0.950 . S
C302 C304 1.327 . S
C302 C308 1.429 1_565 S
C303 C295 1.574 . S
C303 H298 0.949 . S
C303 C309 1.368 . S
C304 C288 1.349 1_565 S
C304 H296 0.950 . S
C304 C302 1.327 . S
C305 C293 1.349 1_545 S
C305 H299 0.950 . S
C305 C306 1.327 . S
C306 H300 0.950 . S
C306 C305 1.327 . S
C306 C310 1.429 1_545 S
C307 C290 1.574 . S
C307 H301 0.949 . S
C307 C311 1.349 1_565 S
C308 C289 1.429 . S
C308 C302 1.429 1_545 S
C308 C309 1.523 . S
C309 C290 1.368 1_545 S
C309 C303 1.368 . S
C309 C308 1.523 . S
C310 C294 1.429 . S
C310 C306 1.429 1_565 S
C310 C311 1.523 1_565 S
C311 C295 1.388 . S
C311 C307 1.349 1_545 S
C311 C310 1.523 1_545 S
H312 C287 0.950 . S
H313 C289 0.950 . S
H314 C290 0.949 . S
H315 C292 0.950 . S
H316 C294 0.950 . S
C78 C30 1.319 1_455 S
C83 C47 1.349 . S
C108 C1 1.499 . S
C113 N66 1.490 . S
C138 C0 1.221 1_455 S
C143 N43 1.242 . S
C168 C29 1.654 . S
C173 C70 1.691 . S
C198 C19 1.346 1_655 S
C203 C38 1.415 . S
C228 C20 1.544 . S
C233 N56 1.546 . S
C263 N33 1.267 . S
C258 C10 1.265 . S
C288 C2 1.696 . S
C293 C61 1.734 . S
