# Generated by pormake.
# Topology gar, (4,6)-cn, num edge types: 1
# Building blocks:
#     Node 0, Type 0, BuildingBlock: AZAVOO_clean_sbu_0, # of connection points: 4
#     Node 1, Type 0, BuildingBlock: AZAVOO_clean_sbu_0, # of connection points: 4
#     Node 2, Type 0, BuildingBlock: AZAVOO_clean_sbu_0, # of connection points: 4
#     Node 3, Type 0, BuildingBlock: AZAVOO_clean_sbu_0, # of connection points: 4
#     Node 4, Type 0, BuildingBlock: AZAVOO_clean_sbu_0, # of connection points: 4
#     Node 5, Type 0, BuildingBlock: AZAVOO_clean_sbu_0, # of connection points: 4
#     Node 6, Type 0, BuildingBlock: AZAVOO_clean_sbu_0, # of connection points: 4
#     Node 7, Type 0, BuildingBlock: AZAVOO_clean_sbu_0, # of connection points: 4
#     Node 8, Type 0, BuildingBlock: AZAVOO_clean_sbu_0, # of connection points: 4
#     Node 9, Type 0, BuildingBlock: AZAVOO_clean_sbu_0, # of connection points: 4
#     Node 10, Type 0, BuildingBlock: AZAVOO_clean_sbu_0, # of connection points: 4
#     Node 11, Type 0, BuildingBlock: AZAVOO_clean_sbu_0, # of connection points: 4
#     Node 12, Type 0, BuildingBlock: AZAVOO_clean_sbu_0, # of connection points: 4
#     Node 13, Type 0, BuildingBlock: AZAVOO_clean_sbu_0, # of connection points: 4
#     Node 14, Type 0, BuildingBlock: AZAVOO_clean_sbu_0, # of connection points: 4
#     Node 15, Type 0, BuildingBlock: AZAVOO_clean_sbu_0, # of connection points: 4
#     Node 16, Type 0, BuildingBlock: AZAVOO_clean_sbu_0, # of connection points: 4
#     Node 17, Type 0, BuildingBlock: AZAVOO_clean_sbu_0, # of connection points: 4
#     Node 18, Type 0, BuildingBlock: AZAVOO_clean_sbu_0, # of connection points: 4
#     Node 19, Type 0, BuildingBlock: AZAVOO_clean_sbu_0, # of connection points: 4
#     Node 20, Type 0, BuildingBlock: AZAVOO_clean_sbu_0, # of connection points: 4
#     Node 21, Type 0, BuildingBlock: AZAVOO_clean_sbu_0, # of connection points: 4
#     Node 22, Type 0, BuildingBlock: AZAVOO_clean_sbu_0, # of connection points: 4
#     Node 23, Type 0, BuildingBlock: AZAVOO_clean_sbu_0, # of connection points: 4
#     Node 24, Type 1, BuildingBlock: BETDEL_clean_sbu_0, # of connection points: 6
#     Node 25, Type 1, BuildingBlock: BETDEL_clean_sbu_0, # of connection points: 6
#     Node 26, Type 1, BuildingBlock: BETDEL_clean_sbu_0, # of connection points: 6
#     Node 27, Type 1, BuildingBlock: BETDEL_clean_sbu_0, # of connection points: 6
#     Node 28, Type 1, BuildingBlock: BETDEL_clean_sbu_0, # of connection points: 6
#     Node 29, Type 1, BuildingBlock: BETDEL_clean_sbu_0, # of connection points: 6
#     Node 30, Type 1, BuildingBlock: BETDEL_clean_sbu_0, # of connection points: 6
#     Node 31, Type 1, BuildingBlock: BETDEL_clean_sbu_0, # of connection points: 6
#     Node 32, Type 1, BuildingBlock: BETDEL_clean_sbu_0, # of connection points: 6
#     Node 33, Type 1, BuildingBlock: BETDEL_clean_sbu_0, # of connection points: 6
#     Node 34, Type 1, BuildingBlock: BETDEL_clean_sbu_0, # of connection points: 6
#     Node 35, Type 1, BuildingBlock: BETDEL_clean_sbu_0, # of connection points: 6
#     Node 36, Type 1, BuildingBlock: BETDEL_clean_sbu_0, # of connection points: 6
#     Node 37, Type 1, BuildingBlock: BETDEL_clean_sbu_0, # of connection points: 6
#     Node 38, Type 1, BuildingBlock: BETDEL_clean_sbu_0, # of connection points: 6
#     Node 39, Type 1, BuildingBlock: BETDEL_clean_sbu_0, # of connection points: 6
#     Edge 40, Type (0, 1), BuildingBlock: OJICUG_clean_linker_0, # of connection points: 2
#     Edge 41, Type (0, 1), BuildingBlock: OJICUG_clean_linker_0, # of connection points: 2
#     Edge 42, Type (0, 1), BuildingBlock: OJICUG_clean_linker_0, # of connection points: 2
#     Edge 43, Type (0, 1), BuildingBlock: OJICUG_clean_linker_0, # of connection points: 2
#     Edge 44, Type (0, 1), BuildingBlock: OJICUG_clean_linker_0, # of connection points: 2
#     Edge 45, Type (0, 1), BuildingBlock: OJICUG_clean_linker_0, # of connection points: 2
#     Edge 46, Type (0, 1), BuildingBlock: OJICUG_clean_linker_0, # of connection points: 2
#     Edge 47, Type (0, 1), BuildingBlock: OJICUG_clean_linker_0, # of connection points: 2
#     Edge 48, Type (0, 1), BuildingBlock: OJICUG_clean_linker_0, # of connection points: 2
#     Edge 49, Type (0, 1), BuildingBlock: OJICUG_clean_linker_0, # of connection points: 2
#     Edge 50, Type (0, 1), BuildingBlock: OJICUG_clean_linker_0, # of connection points: 2
#     Edge 51, Type (0, 1), BuildingBlock: OJICUG_clean_linker_0, # of connection points: 2
#     Edge 52, Type (0, 1), BuildingBlock: OJICUG_clean_linker_0, # of connection points: 2
#     Edge 53, Type (0, 1), BuildingBlock: OJICUG_clean_linker_0, # of connection points: 2
#     Edge 54, Type (0, 1), BuildingBlock: OJICUG_clean_linker_0, # of connection points: 2
#     Edge 55, Type (0, 1), BuildingBlock: OJICUG_clean_linker_0, # of connection points: 2
#     Edge 56, Type (0, 1), BuildingBlock: OJICUG_clean_linker_0, # of connection points: 2
#     Edge 57, Type (0, 1), BuildingBlock: OJICUG_clean_linker_0, # of connection points: 2
#     Edge 58, Type (0, 1), BuildingBlock: OJICUG_clean_linker_0, # of connection points: 2
#     Edge 59, Type (0, 1), BuildingBlock: OJICUG_clean_linker_0, # of connection points: 2
#     Edge 60, Type (0, 1), BuildingBlock: OJICUG_clean_linker_0, # of connection points: 2
#     Edge 61, Type (0, 1), BuildingBlock: OJICUG_clean_linker_0, # of connection points: 2
#     Edge 62, Type (0, 1), BuildingBlock: OJICUG_clean_linker_0, # of connection points: 2
#     Edge 63, Type (0, 1), BuildingBlock: OJICUG_clean_linker_0, # of connection points: 2
#     Edge 64, Type (0, 1), BuildingBlock: OJICUG_clean_linker_0, # of connection points: 2
#     Edge 65, Type (0, 1), BuildingBlock: OJICUG_clean_linker_0, # of connection points: 2
#     Edge 66, Type (0, 1), BuildingBlock: OJICUG_clean_linker_0, # of connection points: 2
#     Edge 67, Type (0, 1), BuildingBlock: OJICUG_clean_linker_0, # of connection points: 2
#     Edge 68, Type (0, 1), BuildingBlock: OJICUG_clean_linker_0, # of connection points: 2
#     Edge 69, Type (0, 1), BuildingBlock: OJICUG_clean_linker_0, # of connection points: 2
#     Edge 70, Type (0, 1), BuildingBlock: OJICUG_clean_linker_0, # of connection points: 2
#     Edge 71, Type (0, 1), BuildingBlock: OJICUG_clean_linker_0, # of connection points: 2
#     Edge 72, Type (0, 1), BuildingBlock: OJICUG_clean_linker_0, # of connection points: 2
#     Edge 73, Type (0, 1), BuildingBlock: OJICUG_clean_linker_0, # of connection points: 2
#     Edge 74, Type (0, 1), BuildingBlock: OJICUG_clean_linker_0, # of connection points: 2
#     Edge 75, Type (0, 1), BuildingBlock: OJICUG_clean_linker_0, # of connection points: 2
#     Edge 76, Type (0, 1), BuildingBlock: OJICUG_clean_linker_0, # of connection points: 2
#     Edge 77, Type (0, 1), BuildingBlock: OJICUG_clean_linker_0, # of connection points: 2
#     Edge 78, Type (0, 1), BuildingBlock: OJICUG_clean_linker_0, # of connection points: 2
#     Edge 79, Type (0, 1), BuildingBlock: OJICUG_clean_linker_0, # of connection points: 2
#     Edge 80, Type (0, 1), BuildingBlock: OJICUG_clean_linker_0, # of connection points: 2
#     Edge 81, Type (0, 1), BuildingBlock: OJICUG_clean_linker_0, # of connection points: 2
#     Edge 82, Type (0, 1), BuildingBlock: OJICUG_clean_linker_0, # of connection points: 2
#     Edge 83, Type (0, 1), BuildingBlock: OJICUG_clean_linker_0, # of connection points: 2
#     Edge 84, Type (0, 1), BuildingBlock: OJICUG_clean_linker_0, # of connection points: 2
#     Edge 85, Type (0, 1), BuildingBlock: OJICUG_clean_linker_0, # of connection points: 2
#     Edge 86, Type (0, 1), BuildingBlock: OJICUG_clean_linker_0, # of connection points: 2
#     Edge 87, Type (0, 1), BuildingBlock: OJICUG_clean_linker_0, # of connection points: 2
#     Edge 88, Type (0, 1), BuildingBlock: OJICUG_clean_linker_0, # of connection points: 2
#     Edge 89, Type (0, 1), BuildingBlock: OJICUG_clean_linker_0, # of connection points: 2
#     Edge 90, Type (0, 1), BuildingBlock: OJICUG_clean_linker_0, # of connection points: 2
#     Edge 91, Type (0, 1), BuildingBlock: OJICUG_clean_linker_0, # of connection points: 2
#     Edge 92, Type (0, 1), BuildingBlock: OJICUG_clean_linker_0, # of connection points: 2
#     Edge 93, Type (0, 1), BuildingBlock: OJICUG_clean_linker_0, # of connection points: 2
#     Edge 94, Type (0, 1), BuildingBlock: OJICUG_clean_linker_0, # of connection points: 2
#     Edge 95, Type (0, 1), BuildingBlock: OJICUG_clean_linker_0, # of connection points: 2
#     Edge 96, Type (0, 1), BuildingBlock: OJICUG_clean_linker_0, # of connection points: 2
#     Edge 97, Type (0, 1), BuildingBlock: OJICUG_clean_linker_0, # of connection points: 2
#     Edge 98, Type (0, 1), BuildingBlock: OJICUG_clean_linker_0, # of connection points: 2
#     Edge 99, Type (0, 1), BuildingBlock: OJICUG_clean_linker_0, # of connection points: 2
#     Edge 100, Type (0, 1), BuildingBlock: OJICUG_clean_linker_0, # of connection points: 2
#     Edge 101, Type (0, 1), BuildingBlock: OJICUG_clean_linker_0, # of connection points: 2
#     Edge 102, Type (0, 1), BuildingBlock: OJICUG_clean_linker_0, # of connection points: 2
#     Edge 103, Type (0, 1), BuildingBlock: OJICUG_clean_linker_0, # of connection points: 2
#     Edge 104, Type (0, 1), BuildingBlock: OJICUG_clean_linker_0, # of connection points: 2
#     Edge 105, Type (0, 1), BuildingBlock: OJICUG_clean_linker_0, # of connection points: 2
#     Edge 106, Type (0, 1), BuildingBlock: OJICUG_clean_linker_0, # of connection points: 2
#     Edge 107, Type (0, 1), BuildingBlock: OJICUG_clean_linker_0, # of connection points: 2
#     Edge 108, Type (0, 1), BuildingBlock: OJICUG_clean_linker_0, # of connection points: 2
#     Edge 109, Type (0, 1), BuildingBlock: OJICUG_clean_linker_0, # of connection points: 2
#     Edge 110, Type (0, 1), BuildingBlock: OJICUG_clean_linker_0, # of connection points: 2
#     Edge 111, Type (0, 1), BuildingBlock: OJICUG_clean_linker_0, # of connection points: 2
#     Edge 112, Type (0, 1), BuildingBlock: OJICUG_clean_linker_0, # of connection points: 2
#     Edge 113, Type (0, 1), BuildingBlock: OJICUG_clean_linker_0, # of connection points: 2
#     Edge 114, Type (0, 1), BuildingBlock: OJICUG_clean_linker_0, # of connection points: 2
#     Edge 115, Type (0, 1), BuildingBlock: OJICUG_clean_linker_0, # of connection points: 2
#     Edge 116, Type (0, 1), BuildingBlock: OJICUG_clean_linker_0, # of connection points: 2
#     Edge 117, Type (0, 1), BuildingBlock: OJICUG_clean_linker_0, # of connection points: 2
#     Edge 118, Type (0, 1), BuildingBlock: OJICUG_clean_linker_0, # of connection points: 2
#     Edge 119, Type (0, 1), BuildingBlock: OJICUG_clean_linker_0, # of connection points: 2
#     Edge 120, Type (0, 1), BuildingBlock: OJICUG_clean_linker_0, # of connection points: 2
#     Edge 121, Type (0, 1), BuildingBlock: OJICUG_clean_linker_0, # of connection points: 2
#     Edge 122, Type (0, 1), BuildingBlock: OJICUG_clean_linker_0, # of connection points: 2
#     Edge 123, Type (0, 1), BuildingBlock: OJICUG_clean_linker_0, # of connection points: 2
#     Edge 124, Type (0, 1), BuildingBlock: OJICUG_clean_linker_0, # of connection points: 2
#     Edge 125, Type (0, 1), BuildingBlock: OJICUG_clean_linker_0, # of connection points: 2
#     Edge 126, Type (0, 1), BuildingBlock: OJICUG_clean_linker_0, # of connection points: 2
#     Edge 127, Type (0, 1), BuildingBlock: OJICUG_clean_linker_0, # of connection points: 2
#     Edge 128, Type (0, 1), BuildingBlock: OJICUG_clean_linker_0, # of connection points: 2
#     Edge 129, Type (0, 1), BuildingBlock: OJICUG_clean_linker_0, # of connection points: 2
#     Edge 130, Type (0, 1), BuildingBlock: OJICUG_clean_linker_0, # of connection points: 2
#     Edge 131, Type (0, 1), BuildingBlock: OJICUG_clean_linker_0, # of connection points: 2
#     Edge 132, Type (0, 1), BuildingBlock: OJICUG_clean_linker_0, # of connection points: 2
#     Edge 133, Type (0, 1), BuildingBlock: OJICUG_clean_linker_0, # of connection points: 2
#     Edge 134, Type (0, 1), BuildingBlock: OJICUG_clean_linker_0, # of connection points: 2
#     Edge 135, Type (0, 1), BuildingBlock: OJICUG_clean_linker_0, # of connection points: 2
# Relax obj value: 0.178
# Max RMSD: 0.280
# Mean RMSD: 0.193
data_MOF--net-gar--node1-AZAVOO_clean_sbu_0--node2-BETDEL_clean_sbu_0--edge1-OJICUG_clean_linker_0
_symmetry_space_group_name_H-M    P1
_symmetry_Int_Tables_number       1
_symmetry_cell_setting            triclinic
loop_
_symmetry_equiv_pos_as_xyz
'x, y, z'
_cell_length_a     42.487452
_cell_length_b     37.970583
_cell_length_c     40.18635
_cell_angle_alpha  98.633873
_cell_angle_beta   91.941825
_cell_angle_gamma 102.48548
loop_
_atom_site_label
_atom_site_type_symbol
_atom_site_fract_x
_atom_site_fract_y
_atom_site_fract_z
_atom_type_partial_charge
Mg0 Mg 0.01518 0.25287 0.38106 0.0
O1 O 0.02734 0.30885 0.416 0.0
O2 O 0.98629 0.3074 0.44993 0.0
Mg3 Mg 0.94854 0.25434 0.43691 0.0
C4 C 0.01308 0.32348 0.4401 0.0
C5 C 0.07759 0.27928 0.34225 0.0
O6 O 0.06031 0.30122 0.3326 0.0
O7 O 0.02674 0.22298 0.42354 0.0
O8 O 0.98406 0.22234 0.45465 0.0
O9 O 0.98931 0.27814 0.34543 0.0
O10 O 0.96646 0.25091 0.38628 0.0
C11 C 0.01086 0.21354 0.44844 0.0
C12 C 0.96442 0.27022 0.36291 0.0
O13 O 0.06652 0.25852 0.36324 0.0
Mg14 Mg 0.99019 0.77526 0.64357 0.0
O15 O 0.97789 0.72251 0.60649 0.0
O16 O 0.93139 0.71651 0.57664 0.0
Mg17 Mg 0.91121 0.7657 0.59933 0.0
C18 C 0.95667 0.70514 0.5833 0.0
C19 C 0.04709 0.73744 0.65503 0.0
O20 O 0.02253 0.71154 0.66003 0.0
O21 O 0.00121 0.80708 0.59977 0.0
O22 O 0.95169 0.80282 0.57624 0.0
O23 O 0.96311 0.74957 0.68465 0.0
O24 O 0.94199 0.77589 0.64686 0.0
C25 C 0.98233 0.81484 0.57787 0.0
C26 C 0.93838 0.75981 0.67284 0.0
O27 O 0.04184 0.76752 0.64854 0.0
Mg28 Mg 0.51619 0.747 0.88333 0.0
O29 O 0.5277 0.80254 0.91888 0.0
O30 O 0.48585 0.80087 0.95173 0.0
Mg31 Mg 0.44819 0.74786 0.93743 0.0
C32 C 0.513 0.81697 0.94269 0.0
C33 C 0.57898 0.77595 0.84663 0.0
O34 O 0.56173 0.79862 0.83851 0.0
O35 O 0.52727 0.71643 0.9258 0.0
O36 O 0.4834 0.71562 0.95499 0.0
O37 O 0.49098 0.77284 0.84747 0.0
O38 O 0.46716 0.74491 0.88741 0.0
C39 C 0.51031 0.70665 0.94991 0.0
C40 C 0.46568 0.76465 0.86429 0.0
O41 O 0.56779 0.7536 0.86626 0.0
Mg42 Mg 0.48628 0.26898 0.13748 0.0
O43 O 0.47546 0.21538 0.10164 0.0
O44 O 0.42953 0.20775 0.07037 0.0
Mg45 Mg 0.40752 0.25601 0.09198 0.0
C46 C 0.45505 0.19729 0.07801 0.0
C47 C 0.54406 0.23346 0.15142 0.0
O48 O 0.51975 0.20745 0.15678 0.0
O49 O 0.4969 0.29906 0.0926 0.0
O50 O 0.4474 0.29363 0.0685 0.0
O51 O 0.45962 0.24447 0.17922 0.0
O52 O 0.43775 0.26862 0.14021 0.0
C53 C 0.478 0.30603 0.07023 0.0
C54 C 0.43459 0.2538 0.16699 0.0
O55 O 0.53834 0.26287 0.14369 0.0
Mg56 Mg 0.04364 0.80426 0.1662 0.0
O57 O 0.0458 0.75033 0.13119 0.0
O58 O 0.99735 0.73274 0.10278 0.0
Mg59 Mg 0.96276 0.76774 0.12339 0.0
C60 C 0.02616 0.72901 0.10821 0.0
C61 C 0.10806 0.83602 0.20663 0.0
O62 O 0.08737 0.85044 0.2246 0.0
O63 O 0.04407 0.83463 0.12028 0.0
O64 O 0.99235 0.81446 0.10044 0.0
O65 O 0.02538 0.77604 0.2097 0.0
O66 O 0.99435 0.7869 0.16917 0.0
C67 C 0.02024 0.83532 0.10004 0.0
C68 C 0.99671 0.7737 0.19644 0.0
O69 O 0.09824 0.81721 0.17774 0.0
Mg70 Mg 0.48726 0.73044 0.35246 0.0
O71 O 0.49162 0.78739 0.38536 0.0
O72 O 0.44552 0.78273 0.41169 0.0
Mg73 Mg 0.41332 0.72574 0.39784 0.0
C74 C 0.47298 0.80113 0.40543 0.0
C75 C 0.54863 0.74678 0.31184 0.0
O76 O 0.52614 0.74924 0.28963 0.0
O77 O 0.49803 0.70721 0.39958 0.0
O78 O 0.45151 0.7024 0.42457 0.0
O79 O 0.46269 0.74739 0.30958 0.0
O80 O 0.43684 0.72303 0.35019 0.0
C81 C 0.48048 0.69796 0.42336 0.0
C82 C 0.43583 0.73789 0.3235 0.0
O83 O 0.54084 0.74131 0.34127 0.0
Mg84 Mg 0.54317 0.30734 0.6681 0.0
O85 O 0.54515 0.25303 0.63381 0.0
O86 O 0.4967 0.23504 0.60544 0.0
Mg87 Mg 0.46226 0.27048 0.62547 0.0
C88 C 0.5255 0.23137 0.61107 0.0
C89 C 0.60843 0.3387 0.70769 0.0
O90 O 0.58851 0.35395 0.72614 0.0
O91 O 0.54366 0.33689 0.62167 0.0
O92 O 0.49195 0.31657 0.60183 0.0
O93 O 0.52488 0.27961 0.71187 0.0
O94 O 0.49389 0.29028 0.67117 0.0
C95 C 0.51988 0.33729 0.60125 0.0
C96 C 0.49623 0.27715 0.69848 0.0
O97 O 0.59776 0.31977 0.67907 0.0
Mg98 Mg 0.98486 0.22728 0.85221 0.0
O99 O 0.98815 0.28418 0.88498 0.0
O100 O 0.94199 0.27879 0.91127 0.0
Mg101 Mg 0.91073 0.22127 0.89745 0.0
C102 C 0.96927 0.29759 0.905 0.0
C103 C 0.04578 0.24168 0.81087 0.0
O104 O 0.02272 0.2408 0.78795 0.0
O105 O 0.99617 0.20482 0.89958 0.0
O106 O 0.9496 0.19923 0.92455 0.0
O107 O 0.95968 0.24309 0.80898 0.0
O108 O 0.93438 0.21869 0.84988 0.0
C109 C 0.97878 0.19548 0.92345 0.0
C110 C 0.93292 0.23298 0.82291 0.0
O111 O 0.0385 0.23906 0.84103 0.0
Mg112 Mg 0.4277 0.09085 0.29727 0.0
O113 O 0.40235 0.03154 0.29998 0.0
O114 O 0.3867 0.02981 0.35236 0.0
Mg115 Mg 0.40029 0.08761 0.38182 0.0
C116 C 0.38851 0.01416 0.32226 0.0
C117 C 0.43725 0.04939 0.22934 0.0
O118 O 0.44584 0.02914 0.25026 0.0
O119 O 0.3782 0.10137 0.29397 0.0
O120 O 0.3612 0.09969 0.34583 0.0
O121 O 0.4746 0.08181 0.31335 0.0
O122 O 0.44025 0.10032 0.34865 0.0
C123 C 0.3565 0.10273 0.31486 0.0
C124 C 0.46677 0.08927 0.34403 0.0
O125 O 0.42695 0.07741 0.24098 0.0
Mg126 Mg 0.27069 0.13221 0.47244 0.0
O127 O 0.26958 0.16504 0.52645 0.0
O128 O 0.31733 0.20423 0.5363 0.0
Mg129 Mg 0.3485 0.19572 0.49103 0.0
C130 C 0.28954 0.19054 0.5458 0.0
C131 C 0.20444 0.09536 0.49529 0.0
O132 O 0.22254 0.0987 0.52322 0.0
O133 O 0.26573 0.17961 0.44389 0.0
O134 O 0.31581 0.21441 0.45293 0.0
O135 O 0.29137 0.09091 0.4946 0.0
O136 O 0.32086 0.13876 0.47653 0.0
C137 C 0.28739 0.20689 0.43828 0.0
C138 C 0.31963 0.10952 0.48956 0.0
O139 O 0.21667 0.10852 0.47017 0.0
Mg140 Mg 0.13224 0.99022 0.79556 0.0
O141 O 0.16656 0.04594 0.80356 0.0
O142 O 0.19599 0.05529 0.85202 0.0
Mg143 Mg 0.17677 0.00446 0.87686 0.0
C144 C 0.18864 0.0657 0.82461 0.0
C145 C 0.11627 0.02762 0.73723 0.0
O146 O 0.1112 0.04991 0.76379 0.0
O147 O 0.1741 0.96253 0.78458 0.0
O148 O 0.19825 0.96859 0.83611 0.0
O149 O 0.09412 0.01301 0.82157 0.0
O150 O 0.12912 0.9886 0.84726 0.0
C151 C 0.19567 0.9563 0.80445 0.0
C152 C 0.10483 0.00391 0.84883 0.0
O153 O 0.12525 0.99863 0.74141 0.0
Mg154 Mg 0.2617 0.90948 0.99615 0.0
O155 O 0.24755 0.86498 0.94846 0.0
O156 O 0.28828 0.83593 0.94609 0.0
Mg157 Mg 0.32771 0.86135 0.98764 0.0
C158 C 0.26117 0.84005 0.93449 0.0
C159 C 0.21606 0.95422 0.01933 0.0
O160 O 0.24292 0.9668 0.03865 0.0
O161 O 0.24995 0.86743 0.03157 0.0
O162 O 0.2935 0.84321 0.02763 0.0
O163 O 0.28736 0.94951 0.96581 0.0
O164 O 0.30929 0.91065 0.98943 0.0
C165 C 0.26704 0.84622 0.04072 0.0
C166 C 0.31209 0.93579 0.97091 0.0
O167 O 0.21345 0.92506 0.99813 0.0
Mg168 Mg 0.27766 0.39248 0.03874 0.0
O169 O 0.27569 0.35439 0.98708 0.0
O170 O 0.3155 0.32517 0.99187 0.0
Mg171 Mg 0.34224 0.34275 0.04436 0.0
C172 C 0.29247 0.33206 0.97451 0.0
C173 C 0.21991 0.43002 0.04625 0.0
O174 O 0.23626 0.44107 0.07569 0.0
O175 O 0.25491 0.34526 0.06816 0.0
O176 O 0.29857 0.32225 0.07428 0.0
O177 O 0.31474 0.43624 0.02005 0.0
O178 O 0.32723 0.39474 0.0475 0.0
C179 C 0.26961 0.32366 0.08085 0.0
C180 C 0.33683 0.42225 0.03239 0.0
O181 O 0.22935 0.40691 0.02477 0.0
Mg182 Mg 0.77521 0.12946 0.01188 0.0
O183 O 0.78895 0.16707 0.06189 0.0
O184 O 0.84041 0.19666 0.06288 0.0
Mg185 Mg 0.8594 0.17658 0.01235 0.0
C186 C 0.81348 0.19036 0.07648 0.0
C187 C 0.71013 0.08818 0.02638 0.0
O188 O 0.72705 0.06309 0.02019 0.0
O189 O 0.77264 0.17861 0.98711 0.0
O190 O 0.82505 0.20468 0.98595 0.0
O191 O 0.79249 0.08435 0.03097 0.0
O192 O 0.82222 0.12499 0.00407 0.0
C193 C 0.79516 0.20348 0.97914 0.0
C194 C 0.8195 0.0963 0.0182 0.0
O195 O 0.72337 0.12116 0.02489 0.0
Mg196 Mg 0.12985 0.49222 0.22792 0.0
O197 O 0.15587 0.5534 0.24051 0.0
O198 O 0.17496 0.56184 0.29435 0.0
Mg199 Mg 0.16198 0.50971 0.31637 0.0
C200 C 0.17155 0.57376 0.2667 0.0
C201 C 0.10517 0.51886 0.16965 0.0
O202 O 0.10366 0.5432 0.19611 0.0
O203 O 0.17939 0.47905 0.22426 0.0
O204 O 0.19536 0.48802 0.27916 0.0
O205 O 0.08324 0.5024 0.24574 0.0
O206 O 0.1221 0.49164 0.27817 0.0
C207 C 0.20015 0.47918 0.2481 0.0
C208 C 0.09468 0.50042 0.27537 0.0
O209 O 0.12142 0.49494 0.17271 0.0
Mg210 Mg 0.7768 0.89244 0.53915 0.0
O211 O 0.77539 0.8541 0.4878 0.0
O212 O 0.81616 0.82633 0.49294 0.0
Mg213 Mg 0.84257 0.84462 0.54553 0.0
C214 C 0.79282 0.8324 0.47542 0.0
C215 C 0.72157 0.93258 0.54539 0.0
O216 O 0.74049 0.9462 0.57294 0.0
O217 O 0.75461 0.84531 0.56881 0.0
O218 O 0.79892 0.82349 0.57515 0.0
O219 O 0.81313 0.93618 0.51976 0.0
O220 O 0.82643 0.89581 0.54825 0.0
C221 C 0.76981 0.82424 0.58165 0.0
C222 C 0.83552 0.92298 0.5326 0.0
O223 O 0.72836 0.90639 0.52525 0.0
Mg224 Mg 0.89205 0.04194 0.2403 0.0
O225 O 0.86015 0.98257 0.23378 0.0
O226 O 0.8378 0.97992 0.28344 0.0
Mg227 Mg 0.85041 0.03446 0.31825 0.0
C228 C 0.84272 0.96504 0.25404 0.0
C229 C 0.92885 0.06445 0.18262 0.0
O230 O 0.93781 0.09094 0.20844 0.0
O231 O 0.8483 0.06681 0.23157 0.0
O232 O 0.82692 0.06327 0.28125 0.0
O233 O 0.93162 0.02185 0.26328 0.0
O234 O 0.89505 0.04386 0.29246 0.0
C235 C 0.82719 0.07318 0.25223 0.0
C236 C 0.91886 0.02781 0.29175 0.0
O237 O 0.9056 0.03786 0.18567 0.0
Mg238 Mg 0.27676 0.63162 0.51137 0.0
O239 O 0.2905 0.66852 0.56178 0.0
O240 O 0.34215 0.69757 0.56284 0.0
Mg241 Mg 0.36109 0.67773 0.51224 0.0
C242 C 0.31522 0.69142 0.57647 0.0
C243 C 0.21079 0.58989 0.51654 0.0
O244 O 0.22726 0.56616 0.50365 0.0
O245 O 0.27484 0.68118 0.4872 0.0
O246 O 0.32734 0.70674 0.48595 0.0
O247 O 0.29282 0.58571 0.52999 0.0
O248 O 0.32346 0.62652 0.50384 0.0
C249 C 0.2975 0.7059 0.47928 0.0
C250 C 0.32011 0.59753 0.51763 0.0
O251 O 0.22493 0.62335 0.52349 0.0
Mg252 Mg 0.39226 0.53793 0.7417 0.0
O253 O 0.35918 0.47924 0.73216 0.0
O254 O 0.33371 0.4751 0.77998 0.0
Mg255 Mg 0.3465 0.52815 0.81688 0.0
C256 C 0.33988 0.46126 0.75068 0.0
C257 C 0.43105 0.56241 0.68502 0.0
O258 O 0.44015 0.58841 0.71121 0.0
O259 O 0.34992 0.56485 0.73222 0.0
O260 O 0.32587 0.55964 0.78031 0.0
O261 O 0.42961 0.51493 0.76519 0.0
O262 O 0.39256 0.53701 0.79349 0.0
C263 C 0.32798 0.57093 0.75191 0.0
C264 C 0.41551 0.51968 0.79301 0.0
O265 O 0.40766 0.5358 0.68764 0.0
Mg266 Mg 0.63167 0.98557 0.724 0.0
O267 O 0.65375 0.04753 0.73811 0.0
O268 O 0.67376 0.05635 0.79161 0.0
Mg269 Mg 0.66673 0.00273 0.81132 0.0
C270 C 0.66833 0.06846 0.76454 0.0
C271 C 0.60042 0.01124 0.66866 0.0
O272 O 0.5964 0.03241 0.69644 0.0
O273 O 0.6826 0.97685 0.71735 0.0
O274 O 0.7002 0.98598 0.7718 0.0
O275 O 0.58513 0.99119 0.74554 0.0
O276 O 0.62641 0.98041 0.77409 0.0
C277 C 0.70455 0.97838 0.74046 0.0
C278 C 0.59808 0.98716 0.77382 0.0
O279 O 0.62025 0.99064 0.66981 0.0
Mg280 Mg 0.76906 0.63341 0.97331 0.0
O281 O 0.76951 0.66599 0.02751 0.0
O282 O 0.81791 0.70406 0.03659 0.0
Mg283 Mg 0.84841 0.69425 0.99098 0.0
C284 C 0.79012 0.69112 0.04652 0.0
C285 C 0.70213 0.59153 0.99069 0.0
O286 O 0.72125 0.58151 0.01205 0.0
O287 O 0.76581 0.68157 0.94539 0.0
O288 O 0.81655 0.71467 0.9533 0.0
O289 O 0.78873 0.59031 0.99432 0.0
O290 O 0.81907 0.63795 0.97698 0.0
C291 C 0.78794 0.7081 0.93928 0.0
C292 C 0.81728 0.60834 0.98951 0.0
O293 O 0.71441 0.61421 0.97184 0.0
Mg294 Mg 0.92315 0.58765 0.79818 0.0
O295 O 0.90184 0.52623 0.79755 0.0
O296 O 0.88237 0.52146 0.84818 0.0
Mg297 Mg 0.89088 0.57771 0.88022 0.0
C298 C 0.88736 0.50724 0.81852 0.0
C299 C 0.94342 0.55418 0.73213 0.0
O300 O 0.95445 0.53679 0.75422 0.0
O301 O 0.87193 0.59286 0.79189 0.0
O302 O 0.853 0.58937 0.84282 0.0
O303 O 0.97141 0.58468 0.81783 0.0
O304 O 0.93187 0.59478 0.84995 0.0
C305 C 0.84924 0.59273 0.8118 0.0
C306 C 0.96041 0.58839 0.84744 0.0
O307 O 0.92714 0.57763 0.7421 0.0
Mg308 Mg 0.75927 0.40728 0.49835 0.0
O309 O 0.74593 0.36478 0.44919 0.0
O310 O 0.7866 0.33568 0.44634 0.0
Mg311 Mg 0.82554 0.35967 0.48872 0.0
C312 C 0.75968 0.34025 0.43468 0.0
C313 C 0.71393 0.45221 0.521 0.0
O314 O 0.74085 0.46464 0.54026 0.0
O315 O 0.74685 0.36319 0.53163 0.0
O316 O 0.79074 0.33955 0.52753 0.0
O317 O 0.78563 0.44933 0.4705 0.0
O318 O 0.80715 0.40915 0.49255 0.0
C319 C 0.76395 0.34174 0.54026 0.0
C320 C 0.8104 0.43565 0.47556 0.0
O321 O 0.71102 0.42282 0.50004 0.0
Mg322 Mg 0.6307 0.49244 0.2937 0.0
O323 O 0.6653 0.54805 0.30183 0.0
O324 O 0.69443 0.55667 0.35044 0.0
Mg325 Mg 0.67465 0.50602 0.3753 0.0
C326 C 0.68743 0.56741 0.32308 0.0
C327 C 0.61533 0.52895 0.23415 0.0
O328 O 0.6095 0.55165 0.26002 0.0
O329 O 0.67231 0.46431 0.28309 0.0
O330 O 0.69607 0.46986 0.33473 0.0
O331 O 0.59251 0.51551 0.31959 0.0
O332 O 0.62731 0.49097 0.34531 0.0
C333 C 0.69359 0.4577 0.30305 0.0
C334 C 0.60296 0.5062 0.34689 0.0
O335 O 0.6244 0.50033 0.23933 0.0
Dy336 Dy 0.98262 0.01448 0.00798 0.0
C337 C 0.11764 0.03689 0.02023 0.0
C338 C 0.91869 0.01506 0.00498 0.0
Dy339 Dy 0.05607 0.04421 0.02788 0.0
O340 O 0.93655 0.01465 0.97938 0.0
O341 O 0.93535 0.01238 0.03178 0.0
O342 O 0.99516 0.98224 0.96023 0.0
O343 O 0.02504 0.0327 0.98209 0.0
C344 C 0.02235 0.00572 0.95912 0.0
C345 C 0.01682 0.05455 0.07688 0.0
O346 O 0.04671 0.09257 0.0069 0.0
O347 O 0.9914 0.07592 0.01226 0.0
O348 O 0.10809 0.05361 0.04758 0.0
O349 O 0.09413 0.02692 0.99704 0.0
O350 O 0.04497 0.07674 0.07617 0.0
O351 O 0.01347 0.02729 0.05395 0.0
O352 O 0.99086 0.96414 0.02546 0.0
O353 O 0.04686 0.98443 0.03364 0.0
C354 C 0.0175 0.09981 0.00604 0.0
C355 C 0.01994 0.95871 0.03293 0.0
Dy356 Dy 0.2743 0.79298 0.2354 0.0
C357 C 0.2718 0.78659 0.3772 0.0
C358 C 0.26378 0.80265 0.17054 0.0
Dy359 Dy 0.26877 0.79751 0.31183 0.0
O360 O 0.27929 0.77933 0.17974 0.0
O361 O 0.25465 0.82122 0.19681 0.0
O362 O 0.31099 0.75871 0.23415 0.0
O363 O 0.30803 0.79515 0.27825 0.0
C364 C 0.32054 0.76915 0.26592 0.0
C365 C 0.22238 0.81861 0.27785 0.0
O366 O 0.30147 0.85116 0.31294 0.0
O367 O 0.30026 0.85202 0.2551 0.0
O368 O 0.24623 0.77546 0.35648 0.0
O369 O 0.29531 0.80437 0.36234 0.0
O370 O 0.23222 0.83271 0.30898 0.0
O371 O 0.23546 0.79256 0.26848 0.0
O372 O 0.24033 0.73924 0.23855 0.0
O373 O 0.25886 0.73791 0.29291 0.0
C374 C 0.30936 0.8679 0.28691 0.0
C375 C 0.24248 0.72143 0.26426 0.0
Dy376 Dy 0.56342 0.02598 0.50131 0.0
C377 C 0.43018 0.04465 0.49587 0.0
C378 C 0.61979 0.00484 0.51376 0.0
Dy379 Dy 0.48768 0.02449 0.503 0.0
O380 O 0.60584 0.00272 0.48398 0.0
O381 O 0.60379 0.02022 0.53646 0.0
O382 O 0.56889 0.06163 0.46113 0.0
O383 O 0.524 0.02602 0.46604 0.0
C384 C 0.53797 0.05235 0.45225 0.0
C385 C 0.51563 0.00123 0.55336 0.0
O386 O 0.48447 0.97097 0.47079 0.0
O387 O 0.53729 0.96662 0.48457 0.0
O388 O 0.43729 0.02606 0.5186 0.0
O389 O 0.45385 0.05069 0.47644 0.0
O390 O 0.48459 0.99138 0.54588 0.0
O391 O 0.52761 0.02614 0.53749 0.0
O392 O 0.56625 0.08204 0.53148 0.0
O393 O 0.51181 0.08299 0.52122 0.0
C394 C 0.50743 0.95219 0.4707 0.0
C395 C 0.54189 0.09915 0.53287 0.0
Dy396 Dy 0.23866 0.25047 0.75653 0.0
C397 C 0.37222 0.24947 0.75109 0.0
C398 C 0.17458 0.24073 0.76895 0.0
Dy399 Dy 0.30912 0.24886 0.76221 0.0
O400 O 0.18825 0.25823 0.74595 0.0
O401 O 0.19566 0.22754 0.78427 0.0
O402 O 0.24807 0.29841 0.7289 0.0
O403 O 0.28341 0.293 0.76425 0.0
C404 C 0.27757 0.31095 0.74163 0.0
C405 C 0.26962 0.19143 0.78114 0.0
O406 O 0.30762 0.27702 0.81477 0.0
O407 O 0.25182 0.26952 0.81273 0.0
O408 O 0.34772 0.22352 0.73861 0.0
O409 O 0.36237 0.27533 0.76999 0.0
O410 O 0.29876 0.20514 0.7943 0.0
O411 O 0.26406 0.20646 0.75619 0.0
O412 O 0.24355 0.22154 0.70397 0.0
O413 O 0.2982 0.24676 0.70686 0.0
C414 C 0.2806 0.27911 0.82975 0.0
C415 C 0.271 0.2299 0.68894 0.0
Dy416 Dy 0.00768 -0.00068 0.47 0.0
C417 C 0.07307 0.04228 0.60479 0.0
C418 C 0.97049 0.99027 0.41181 0.0
Dy419 Dy 0.03351 0.02733 0.54779 0.0
O420 O -0.00171 0.98136 0.41399 0.0
O421 O 0.96276 0.0029 0.44149 0.0
O422 O 0.05768 0.99276 0.45728 0.0
O423 O 0.05157 0.03096 0.49828 0.0
C424 C 0.07198 0.01608 0.48341 0.0
C425 C 0.96907 0.99906 0.54085 0.0
O426 O 0.03409 0.08155 0.53133 0.0
O427 O 0.01147 0.05987 0.47586 0.0
O428 O 0.04968 0.05854 0.59969 0.0
O429 O 0.07528 0.01881 0.57837 0.0
O430 O 0.98488 0.01096 0.57007 0.0
O431 O 0.98895 0.00419 0.51884 0.0
O432 O 0.0004 0.94685 0.49021 0.0
O433 O 0.03804 0.96892 0.53625 0.0
C434 C 0.02297 0.08669 0.50147 0.0
C435 C 0.01849 0.94161 0.51581 0.0
Dy436 Dy 0.29596 0.77761 0.77621 0.0
C437 C 0.17745 0.73059 0.68887 0.0
C438 C 0.34751 0.7977 0.82246 0.0
Dy439 Dy 0.23154 0.75174 0.73199 0.0
O440 O 0.34528 0.81119 0.79485 0.0
O441 O 0.32071 0.77468 0.82554 0.0
O442 O 0.32486 0.76182 0.73377 0.0
O443 O 0.2812 0.77694 0.72309 0.0
C444 C 0.30375 0.76349 0.71043 0.0
C445 C 0.22663 0.76398 0.7993 0.0
O446 O 0.25193 0.70128 0.7236 0.0
O447 O 0.28749 0.71691 0.77162 0.0
O448 O 0.18319 0.71484 0.71427 0.0
O449 O 0.20217 0.75668 0.68603 0.0
O450 O 0.20573 0.76971 0.77774 0.0
O451 O 0.24721 0.7501 0.7837 0.0
O452 O 0.27577 0.82789 0.78356 0.0
O453 O 0.23953 0.81244 0.73633 0.0
C454 C 0.27206 0.69301 0.74561 0.0
C455 C 0.25505 0.83632 0.76231 0.0
Dy456 Dy 0.5008 0.02241 0.03292 0.0
C457 C 0.54025 0.01301 0.89896 0.0
C458 C 0.47615 0.02926 0.09426 0.0
Dy459 Dy 0.51535 0.02466 0.95956 0.0
O460 O 0.48135 0.05468 0.07558 0.0
O461 O 0.48474 0.00033 0.07968 0.0
O462 O 0.52531 0.97602 0.03364 0.0
O463 O 0.50067 0.98091 0.98884 0.0
C464 C 0.51884 0.96351 0.00169 0.0
C465 C 0.49933 0.08431 0.99252 0.0
O466 O 0.46535 0.9914 0.95166 0.0
O467 O 0.45214 0.01336 0.00507 0.0
O468 O 0.54808 0.00046 0.92553 0.0
O469 O 0.51877 0.03235 0.90534 0.0
O470 O 0.4921 0.07316 0.96046 0.0
O471 O 0.51669 0.06534 0.0037 0.0
O472 O 0.55266 0.05065 0.04219 0.0
O473 O 0.56451 0.03646 0.98627 0.0
C474 C 0.44385 0.99743 0.9734 0.0
C475 C 0.57342 0.0481 0.01866 0.0
Dy476 Dy 0.26941 0.30894 0.26609 0.0
C477 C 0.25158 0.15277 0.26468 0.0
C478 C 0.26937 0.37398 0.2468 0.0
Dy479 Dy 0.24815 0.22038 0.25209 0.0
O480 O 0.28942 0.36949 0.27037 0.0
O481 O 0.24923 0.34337 0.23501 0.0
O482 O 0.28342 0.31492 0.32239 0.0
O483 O 0.264 0.26458 0.29331 0.0
C484 C 0.27399 0.27986 0.32292 0.0
C485 C 0.24073 0.25557 0.19966 0.0
O486 O 0.20363 0.23358 0.27393 0.0
O487 O 0.2162 0.29704 0.27463 0.0
O488 O 0.25517 0.16361 0.23549 0.0
O489 O 0.24327 0.17802 0.28565 0.0
O490 O 0.22319 0.22294 0.20128 0.0
O491 O 0.26155 0.2644 0.22418 0.0
O492 O 0.31416 0.29514 0.2456 0.0
O493 O 0.30249 0.23229 0.24777 0.0
C494 C 0.19631 0.26621 0.27947 0.0
C495 C 0.32225 0.2629 0.24206 0.0
Dy496 Dy 0.50267 0.49537 0.96939 0.0
C497 C 0.57494 0.53772 0.09919 0.0
C498 C 0.46233 0.47769 0.9125 0.0
Dy499 Dy 0.53701 0.51671 0.04062 0.0
O500 O 0.49104 0.47111 0.91469 0.0
O501 O 0.45528 0.49224 0.94183 0.0
O502 O 0.54713 0.52491 0.9479 0.0
O503 O 0.55167 0.50036 0.99061 0.0
C504 C 0.5668 0.52044 0.97149 0.0
C505 C 0.47283 0.49071 0.03842 0.0
O506 O 0.54345 0.57144 0.0236 0.0
O507 O 0.50202 0.55438 0.98109 0.0
O508 O 0.54842 0.54813 0.09316 0.0
O509 O 0.58115 0.51672 0.07283 0.0
O510 O 0.49281 0.48655 0.06183 0.0
O511 O 0.48766 0.51135 0.01949 0.0
O512 O 0.49801 0.44063 0.98589 0.0
O513 O 0.53882 0.45799 0.029 0.0
C514 C 0.52375 0.5795 0.00112 0.0
C515 C 0.51724 0.43257 0.00898 0.0
Dy516 Dy 0.79335 0.27861 0.27542 0.0
C517 C 0.67472 0.23024 0.18866 0.0
C518 C 0.84511 0.30025 0.32133 0.0
Dy519 Dy 0.72885 0.25229 0.23171 0.0
O520 O 0.84243 0.31314 0.29346 0.0
O521 O 0.81866 0.27683 0.32479 0.0
O522 O 0.82208 0.26205 0.23317 0.0
O523 O 0.77845 0.2772 0.22217 0.0
C524 C 0.80096 0.26346 0.20973 0.0
C525 C 0.72438 0.26522 0.29909 0.0
O526 O 0.74928 0.20181 0.22388 0.0
O527 O 0.78488 0.21801 0.27185 0.0
O528 O 0.68052 0.21508 0.21445 0.0
O529 O 0.69934 0.25629 0.18547 0.0
O530 O 0.70339 0.27091 0.2776 0.0
O531 O 0.74478 0.25114 0.2834 0.0
O532 O 0.77305 0.32878 0.28245 0.0
O533 O 0.73656 0.31292 0.23546 0.0
C534 C 0.76939 0.19379 0.24608 0.0
C535 C 0.75223 0.33702 0.26122 0.0
Dy536 Dy 0.00338 0.52879 0.53329 0.0
C537 C 0.03276 0.53039 0.3963 0.0
C538 C 0.9846 0.53809 0.59727 0.0
Dy539 Dy 0.01217 0.5324 0.45936 0.0
O540 O 0.00202 0.51546 0.58573 0.0
O541 O 0.97769 0.556 0.57402 0.0
O542 O 0.02706 0.48162 0.53237 0.0
O543 O 0.00163 0.48748 0.4885 0.0
C544 C 0.02025 0.46987 0.50036 0.0
C545 C 0.99539 0.59015 0.49506 0.0
O546 O 0.96153 0.50145 0.45308 0.0
O547 O 0.95239 0.51398 0.50992 0.0
O548 O 0.00891 0.50674 0.40502 0.0
O549 O 0.04514 0.5552 0.42187 0.0
O550 O 0.98562 0.57832 0.46363 0.0
O551 O 0.01506 0.57268 0.50437 0.0
O552 O 0.0548 0.55888 0.53586 0.0
O553 O 0.06111 0.53283 0.48142 0.0
C554 C 0.94208 0.50203 0.47786 0.0
C555 C 0.07333 0.54984 0.51172 0.0
Dy556 Dy 0.741 0.75326 0.25711 0.0
C557 C 0.87361 0.7488 0.25135 0.0
C558 C 0.67698 0.74464 0.26932 0.0
Dy559 Dy 0.81091 0.74996 0.26304 0.0
O560 O 0.69122 0.76315 0.24724 0.0
O561 O 0.69744 0.72991 0.2838 0.0
O562 O 0.7519 0.80145 0.2298 0.0
O563 O 0.78624 0.79504 0.26571 0.0
C564 C 0.78119 0.81358 0.24329 0.0
C565 C 0.7704 0.69286 0.28125 0.0
O566 O 0.80952 0.77754 0.31588 0.0
O567 O 0.75383 0.77123 0.31341 0.0
O568 O 0.84865 0.72338 0.23913 0.0
O569 O 0.86446 0.7751 0.27041 0.0
O570 O 0.79954 0.70593 0.29468 0.0
O571 O 0.76537 0.70835 0.25644 0.0
O572 O 0.74543 0.72426 0.20461 0.0
O573 O 0.80023 0.74851 0.20771 0.0
C574 C 0.78247 0.78002 0.33068 0.0
C575 C 0.77296 0.73209 0.18969 0.0
Dy576 Dy 0.77158 0.28661 0.73381 0.0
C577 C 0.76972 0.28343 0.8764 0.0
C578 C 0.76082 0.29616 0.66898 0.0
Dy579 Dy 0.7667 0.29324 0.81068 0.0
O580 O 0.77581 0.2723 0.67802 0.0
O581 O 0.75246 0.31529 0.69537 0.0
O582 O 0.80655 0.25008 0.73308 0.0
O583 O 0.80495 0.28777 0.77658 0.0
C584 C 0.81635 0.26075 0.76478 0.0
C585 C 0.72201 0.31699 0.77682 0.0
O586 O 0.80202 0.34503 0.81021 0.0
O587 O 0.79999 0.34491 0.7522 0.0
O588 O 0.79348 0.30008 0.86108 0.0
O589 O 0.74395 0.27287 0.85595 0.0
O590 O 0.73245 0.33105 0.80782 0.0
O591 O 0.73357 0.28968 0.76758 0.0
O592 O 0.73577 0.23451 0.73772 0.0
O593 O 0.753 0.23329 0.79266 0.0
C594 C 0.81033 0.36085 0.7837 0.0
C595 C 0.73635 0.2172 0.76399 0.0
Dy596 Dy 0.7695 0.80918 0.76678 0.0
C597 C 0.75033 0.65168 0.76266 0.0
C598 C 0.77015 0.87312 0.745 0.0
Dy599 Dy 0.74888 0.72067 0.75261 0.0
O600 O 0.79024 0.86937 0.76889 0.0
O601 O 0.7493 0.84263 0.73465 0.0
O602 O 0.78333 0.8156 0.82308 0.0
O603 O 0.765 0.76478 0.79397 0.0
C604 C 0.77464 0.78044 0.8236 0.0
C605 C 0.74114 0.75606 0.70041 0.0
O606 O 0.70467 0.73368 0.77531 0.0
O607 O 0.7165 0.79716 0.77619 0.0
O608 O 0.75506 0.6639 0.73422 0.0
O609 O 0.74263 0.67664 0.78451 0.0
O610 O 0.72352 0.72353 0.70208 0.0
O611 O 0.76204 0.76477 0.72482 0.0
O612 O 0.8146 0.79562 0.74734 0.0
O613 O 0.8033 0.73268 0.7491 0.0
C614 C 0.69705 0.76612 0.78126 0.0
C615 C 0.82298 0.76356 0.74389 0.0
Dy616 Dy 0.48272 0.51544 0.50773 0.0
C617 C 0.61752 0.53738 0.52032 0.0
C618 C 0.41873 0.51567 0.50493 0.0
Dy619 Dy 0.55599 0.54504 0.52761 0.0
O620 O 0.43638 0.5147 0.47917 0.0
O621 O 0.43566 0.51386 0.53183 0.0
O622 O 0.49503 0.48296 0.46007 0.0
O623 O 0.52516 0.53338 0.48165 0.0
C624 C 0.5224 0.5061 0.45898 0.0
C625 C 0.5168 0.55537 0.57675 0.0
O626 O 0.54688 0.59342 0.50652 0.0
O627 O 0.49148 0.57683 0.51139 0.0
O628 O 0.60788 0.55409 0.54761 0.0
O629 O 0.59415 0.52774 0.49695 0.0
O630 O 0.54492 0.57757 0.57594 0.0
O631 O 0.51343 0.52812 0.55379 0.0
O632 O 0.49084 0.46511 0.5253 0.0
O633 O 0.54683 0.48527 0.53331 0.0
C634 C 0.51768 0.60068 0.50535 0.0
C635 C 0.5199 0.45961 0.5327 0.0
Dy636 Dy 0.06052 0.52135 0.00079 0.0
C637 C 0.92931 0.54569 0.99847 0.0
C638 C 0.11644 0.49994 0.0147 0.0
Dy639 Dy 0.98506 0.52159 0.00491 0.0
O640 O 0.10604 0.5036 0.9848 0.0
O641 O 0.09702 0.50949 0.03684 0.0
O642 O 0.06328 0.55353 0.95784 0.0
O643 O 0.01949 0.51834 0.96652 0.0
C644 C 0.03223 0.54244 0.94968 0.0
C645 C 0.01512 0.50381 0.05727 0.0
O646 O 0.98103 0.46726 0.97297 0.0
O647 O 0.03385 0.46205 0.98555 0.0
O648 O 0.93149 0.51651 0.01104 0.0
O649 O 0.95716 0.56067 0.9888 0.0
O650 O 0.98377 0.49507 0.05223 0.0
O651 O 0.02622 0.52565 0.03817 0.0
O652 O 0.06512 0.57875 0.02869 0.0
O653 O 0.01071 0.58039 0.01947 0.0
C654 C 0.00362 0.44783 0.97265 0.0
C655 C 0.04115 0.59645 0.02989 0.0
C656 C 0.97231 0.16455 0.9745 0.0
C657 C 0.9918 0.17712 0.94923 0.0
H658 H 0.96565 0.13098 0.01302 0.0
C659 C 0.02265 0.1692 0.94724 0.0
H660 H 0.94862 0.17049 0.97718 0.0
C661 C 0.03258 0.14667 0.96816 0.0
C662 C 0.01179 0.13155 0.99133 0.0
H663 H 0.03846 0.17874 0.92832 0.0
H664 H 0.05546 0.13897 0.96438 0.0
C665 C 0.98216 0.142 0.99524 0.0
C666 C 0.15085 0.85688 0.2544 0.0
C667 C 0.13991 0.83562 0.22265 0.0
H668 H 0.18575 0.86841 0.29677 0.0
C669 C 0.15787 0.81091 0.20829 0.0
H670 H 0.13757 0.87621 0.26616 0.0
C671 C 0.18507 0.80612 0.22605 0.0
C672 C 0.19526 0.82634 0.25831 0.0
H673 H 0.1501 0.79397 0.184 0.0
H674 H 0.19751 0.78567 0.21488 0.0
C675 C 0.17836 0.85238 0.27202 0.0
C676 C 0.51509 0.85881 0.42655 0.0
C677 C 0.48254 0.83992 0.42169 0.0
H678 H 0.54867 0.90914 0.44652 0.0
C679 C 0.45856 0.85827 0.43311 0.0
H680 H 0.5341 0.84535 0.41813 0.0
C681 C 0.46678 0.8946 0.4489 0.0
C682 C 0.49926 0.91349 0.45416 0.0
H683 H 0.43322 0.84462 0.42961 0.0
H684 H 0.44758 0.90779 0.45725 0.0
C685 C 0.52341 0.89521 0.44297 0.0
C686 C 0.4625 0.28101 0.7475 0.0
C687 C 0.46689 0.26363 0.71516 0.0
H688 H 0.42841 0.29073 0.78415 0.0
C689 C 0.44082 0.23869 0.69651 0.0
H690 H 0.48226 0.30089 0.76198 0.0
C691 C 0.41038 0.23226 0.70944 0.0
C692 C 0.40537 0.25171 0.74066 0.0
H693 H 0.44369 0.22536 0.67136 0.0
H694 H 0.39036 0.21383 0.69402 0.0
C695 C 0.43176 0.27549 0.75999 0.0
C696 C 0.9759 0.84772 0.52951 0.0
C697 C 0.9954 0.84228 0.55642 0.0
H698 H 0.96822 0.88323 0.49501 0.0
C699 C 0.02546 0.8666 0.56546 0.0
H700 H 0.95277 0.8292 0.52163 0.0
C701 C 0.03426 0.89772 0.55024 0.0
C702 C 0.01333 0.90487 0.52549 0.0
H703 H 0.04115 0.86308 0.58593 0.0
H704 H 0.0566 0.91724 0.5593 0.0
C705 C 0.98484 0.87865 0.51409 0.0
C706 C 0.43637 0.80361 0.8358 0.0
C707 C 0.43644 0.77839 0.85803 0.0
H708 H 0.40781 0.83066 0.80784 0.0
C709 C 0.40779 0.76496 0.87296 0.0
H710 H 0.4582 0.81488 0.82431 0.0
C711 C 0.37907 0.77431 0.86383 0.0
C712 C 0.3785 0.79713 0.83952 0.0
H713 H 0.40704 0.74559 0.89028 0.0
H714 H 0.35693 0.76165 0.87405 0.0
C715 C 0.4076 0.813 0.82668 0.0
C716 C 0.48974 0.15206 0.06788 0.0
C717 C 0.46375 0.16585 0.05682 0.0
H718 H 0.52159 0.11624 0.0559 0.0
C719 C 0.44893 0.15195 0.02423 0.0
H720 H 0.50178 0.16206 0.09276 0.0
C721 C 0.46052 0.12551 0.00293 0.0
C722 C 0.48691 0.11249 0.01402 0.0
H723 H 0.42906 0.16223 0.01485 0.0
H724 H 0.44894 0.11533 0.97787 0.0
C725 C 0.50121 0.12583 0.04671 0.0
C726 C 0.12143 0.24568 0.32831 0.0
C727 C 0.10818 0.27626 0.32648 0.0
H728 H 0.15916 0.21816 0.31438 0.0
C729 C 0.12371 0.3031 0.30824 0.0
H730 H 0.10996 0.22435 0.34193 0.0
C731 C 0.15209 0.29966 0.29258 0.0
C732 C 0.16523 0.26895 0.29427 0.0
H733 H 0.11407 0.32695 0.30626 0.0
H734 H 0.16369 0.32104 0.27909 0.0
C735 C 0.14947 0.24192 0.31218 0.0
C736 C 0.94556 0.03101 0.12984 0.0
C737 C 0.94915 0.06317 0.15336 0.0
H738 H 0.96478 0.00284 0.08795 0.0
C739 C 0.97458 0.09313 0.15065 0.0
H740 H 0.92649 0.00735 0.13138 0.0
C741 C 0.99644 0.09062 0.12557 0.0
C742 C 0.99329 0.05813 0.10272 0.0
H743 H 0.97808 0.11833 0.1684 0.0
H744 H 0.01599 0.11392 0.12433 0.0
C745 C 0.96753 0.02846 0.10495 0.0
C746 C 0.31361 0.75999 0.44996 0.0
C747 C 0.28921 0.73212 0.45862 0.0
H748 H 0.3269 0.7998 0.41756 0.0
C749 C 0.25756 0.72708 0.44428 0.0
H750 H 0.33814 0.76497 0.46088 0.0
C751 C 0.25116 0.74714 0.41944 0.0
C752 C 0.27625 0.77263 0.40876 0.0
H753 H 0.23813 0.70609 0.45063 0.0
H754 H 0.22709 0.74101 0.40713 0.0
C755 C 0.30716 0.78011 0.42526 0.0
C756 C 0.55096 0.02304 0.64167 0.0
C757 C 0.57748 0.00632 0.63912 0.0
H758 H 0.50939 0.03296 0.61623 0.0
C759 C 0.58045 0.98344 0.60904 0.0
H760 H 0.54769 0.04046 0.66463 0.0
C761 C 0.55807 0.97881 0.58156 0.0
C762 C 0.53236 0.99658 0.58402 0.0
H763 H 0.60041 0.96988 0.60647 0.0
H764 H 0.56168 0.96275 0.55792 0.0
C765 C 0.52857 0.01815 0.61433 0.0
C766 C 0.26031 0.31784 0.91783 0.0
C767 C 0.28787 0.31665 0.93774 0.0
H768 H 0.23611 0.30659 0.86822 0.0
C769 C 0.31253 0.30257 0.9217 0.0
H770 H 0.24089 0.3286 0.92924 0.0
C771 C 0.31012 0.29077 0.88682 0.0
C772 C 0.28273 0.29206 0.86685 0.0
H773 H 0.33427 0.3014 0.93597 0.0
H774 H 0.3298 0.28042 0.87553 0.0
C775 C 0.25761 0.3053 0.88283 0.0
C776 C 0.95467 0.99526 0.32009 0.0
C777 C 0.93 0.01477 0.32183 0.0
H778 H 0.98669 0.97159 0.34749 0.0
C779 C 0.91665 0.02255 0.35284 0.0
H780 H 0.96529 0.98864 0.29648 0.0
C781 C 0.92849 0.01222 0.38175 0.0
C782 C 0.95419 0.99438 0.38031 0.0
H783 H 0.89783 0.03772 0.35517 0.0
H784 H 0.91851 0.0198 0.40554 0.0
C785 C 0.96675 0.98522 0.34917 0.0
C786 C 0.28158 0.71558 0.62073 0.0
C787 C 0.31215 0.712 0.60999 0.0
H788 H 0.2549 0.7358 0.66096 0.0
C789 C 0.33972 0.72815 0.63163 0.0
H790 H 0.25989 0.70371 0.60441 0.0
C791 C 0.33671 0.74614 0.66384 0.0
C792 C 0.30619 0.74902 0.67483 0.0
H793 H 0.36355 0.72597 0.62409 0.0
H794 H 0.35834 0.75724 0.68046 0.0
C795 C 0.27866 0.73428 0.65285 0.0
C796 C 0.55684 0.01131 0.80741 0.0
C797 C 0.58232 0.99307 0.80534 0.0
H798 H 0.52351 0.03241 0.83933 0.0
C799 C 0.59327 0.98096 0.83395 0.0
H800 H 0.54803 0.02092 0.78561 0.0
C801 C 0.57925 0.98733 0.86433 0.0
C802 C 0.55421 0.00611 0.86661 0.0
H803 H 0.61263 0.96645 0.8329 0.0
H804 H 0.58821 0.97777 0.88609 0.0
C805 C 0.54293 0.01798 0.83802 0.0
C806 C 0.27702 0.32077 0.14141 0.0
C807 C 0.25783 0.30797 0.11112 0.0
H808 H 0.2867 0.31461 0.19216 0.0
C809 C 0.23087 0.27868 0.11033 0.0
H810 H 0.29802 0.34315 0.14282 0.0
C811 C 0.22418 0.26184 0.13928 0.0
C812 C 0.24426 0.27428 0.16932 0.0
H813 H 0.21587 0.26797 0.08716 0.0
H814 H 0.20397 0.23862 0.13788 0.0
C815 C 0.27039 0.30431 0.16988 0.0
C816 C 0.17029 0.97225 0.99096 0.0
C817 C 0.19154 0.9764 0.01944 0.0
H818 H 0.13127 0.9896 0.96842 0.0
C819 C 0.19043 0.00342 0.04722 0.0
H820 H 0.17102 0.9522 0.96894 0.0
C821 C 0.16749 0.02487 0.04703 0.0
C822 C 0.14577 0.02004 0.0188 0.0
H823 H 0.20682 0.00742 0.06939 0.0
H824 H 0.16611 0.04437 0.06927 0.0
C825 C 0.14786 0.9941 0.99052 0.0
C826 C 0.64704 0.58302 0.96212 0.0
C827 C 0.66718 0.57437 0.9867 0.0
H828 H 0.5995 0.57239 0.9379 0.0
C829 C 0.65388 0.54793 0.0064 0.0
H830 H 0.65652 0.60318 0.94646 0.0
C831 C 0.62123 0.53027 0.00139 0.0
C832 C 0.60127 0.53878 0.97669 0.0
H833 H 0.66875 0.5405 0.02544 0.0
H834 H 0.61173 0.50963 0.01654 0.0
C835 C 0.61442 0.56531 0.95712 0.0
C836 C 0.7069 0.41185 0.25703 0.0
C837 C 0.71343 0.43161 0.28997 0.0
H838 H 0.71433 0.36662 0.22191 0.0
C839 C 0.73655 0.42314 0.3115 0.0
H840 H 0.68941 0.41773 0.23966 0.0
C841 C 0.75097 0.39389 0.30124 0.0
C842 C 0.74249 0.37234 0.26926 0.0
H843 H 0.7424 0.43795 0.33694 0.0
H844 H 0.7673 0.38693 0.31917 0.0
C845 C 0.7212 0.38246 0.24683 0.0
C846 C 0.86478 0.43227 0.45717 0.0
C847 C 0.84245 0.45335 0.46735 0.0
H848 H 0.91476 0.43211 0.45175 0.0
C849 C 0.85269 0.49138 0.47636 0.0
H850 H 0.85716 0.40286 0.45021 0.0
C851 C 0.88547 0.50775 0.47836 0.0
C852 C 0.9079 0.48631 0.47017 0.0
H853 H 0.83575 0.50794 0.48469 0.0
H854 H 0.89343 0.53676 0.48768 0.0
C855 C 0.89747 0.44886 0.45809 0.0
C856 C 0.31742 0.10266 0.26709 0.0
C857 C 0.32497 0.10766 0.30212 0.0
H858 H 0.28672 0.11156 0.22744 0.0
C859 C 0.30293 0.11906 0.32422 0.0
H860 H 0.33339 0.09278 0.24932 0.0
C861 C 0.27581 0.12931 0.31152 0.0
C862 C 0.27049 0.12837 0.2766 0.0
H863 H 0.30774 0.12245 0.3513 0.0
H864 H 0.26077 0.14115 0.32921 0.0
C865 C 0.29033 0.11278 0.25445 0.0
C866 C 0.37597 0.10657 0.47599 0.0
C867 C 0.34883 0.09492 0.49388 0.0
H868 H 0.42247 0.09899 0.4619 0.0
C869 C 0.34871 0.06659 0.51281 0.0
H870 H 0.37666 0.128 0.46082 0.0
C871 C 0.37519 0.05015 0.51366 0.0
C872 C 0.40186 0.06121 0.49498 0.0
H873 H 0.32802 0.05689 0.52667 0.0
H874 H 0.37461 0.02846 0.5285 0.0
C875 C 0.40205 0.08965 0.47627 0.0
C876 C 0.69835 0.61486 0.28481 0.0
C877 C 0.70702 0.60167 0.31404 0.0
H878 H 0.71148 0.65417 0.2515 0.0
C879 C 0.73577 0.6201 0.33304 0.0
H880 H 0.6763 0.60145 0.26958 0.0
C881 C 0.75592 0.65002 0.32244 0.0
C882 C 0.74774 0.6624 0.29274 0.0
H883 H 0.74325 0.61081 0.35561 0.0
H884 H 0.77823 0.66316 0.33735 0.0
C885 C 0.71847 0.64502 0.27434 0.0
C886 C 0.86646 0.44523 0.83196 0.0
C887 C 0.87254 0.46812 0.80755 0.0
H888 H 0.84261 0.39384 0.84354 0.0
C889 C 0.86041 0.45443 0.77397 0.0
H890 H 0.87573 0.45488 0.85794 0.0
C891 C 0.84076 0.41907 0.76554 0.0
C892 C 0.83319 0.39702 0.79059 0.0
H893 H 0.86462 0.47166 0.75466 0.0
H894 H 0.83064 0.40959 0.73983 0.0
C895 C 0.84718 0.41019 0.82361 0.0
C896 C 0.9962 0.86454 0.05672 0.0
C897 C 0.0231 0.86368 0.07789 0.0
H898 H 0.97411 0.89507 0.02598 0.0
C899 C 0.05063 0.89236 0.08039 0.0
H900 H 0.97465 0.84274 0.05372 0.0
C901 C 0.05033 0.92239 0.06402 0.0
C902 C 0.0224 0.92443 0.04513 0.0
H903 H 0.07177 0.89254 0.09629 0.0
H904 H 0.07139 0.94485 0.06775 0.0
C905 C 0.99579 0.89463 0.04075 0.0
C906 C 0.89722 0.23573 0.77345 0.0
C907 C 0.90235 0.23879 0.80856 0.0
H908 H 0.86555 0.23931 0.73212 0.0
C909 C 0.87847 0.2481 0.82933 0.0
H910 H 0.91519 0.22844 0.75687 0.0
C911 C 0.85033 0.2552 0.81516 0.0
C912 C 0.84529 0.25211 0.78002 0.0
H913 H 0.88192 0.2509 0.85649 0.0
H914 H 0.83249 0.26291 0.8316 0.0
C915 C 0.86877 0.24178 0.75929 0.0
C916 C 0.52228 0.19047 0.5562 0.0
C917 C 0.53594 0.20141 0.58941 0.0
H918 H 0.51492 0.15028 0.51182 0.0
C919 C 0.55719 0.18178 0.6017 0.0
H920 H 0.50639 0.20544 0.54572 0.0
C921 C 0.56211 0.1497 0.58201 0.0
C922 C 0.54609 0.13735 0.5498 0.0
H923 H 0.56819 0.18979 0.62719 0.0
H924 H 0.57629 0.13323 0.5929 0.0
C925 C 0.52742 0.15902 0.53663 0.0
C926 C 0.59185 0.75979 0.27157 0.0
C927 C 0.58183 0.74708 0.3015 0.0
H928 H 0.62988 0.76905 0.23796 0.0
C929 C 0.60325 0.73299 0.32037 0.0
H930 H 0.5759 0.77076 0.25643 0.0
C931 C 0.6339 0.73137 0.3094 0.0
C932 C 0.64391 0.74431 0.27963 0.0
H933 H 0.59618 0.72268 0.34336 0.0
H934 H 0.64991 0.7204 0.32447 0.0
C935 C 0.62268 0.75869 0.26089 0.0
C936 C 0.00601 0.17894 0.49722 0.0
C937 C 0.02073 0.18675 0.46744 0.0
H938 H 0.99578 0.14081 0.53208 0.0
C939 C 0.04085 0.16459 0.45303 0.0
H940 H 0.99053 0.19568 0.50905 0.0
C941 C 0.04338 0.13317 0.46598 0.0
C942 C 0.02654 0.12387 0.49398 0.0
H943 H 0.05256 0.16978 0.43017 0.0
H944 H 0.05705 0.11497 0.45293 0.0
C945 C 0.00906 0.14772 0.51053 0.0
C946 C 0.58436 0.20082 0.17194 0.0
C947 C 0.57772 0.22946 0.15639 0.0
H948 H 0.62063 0.17836 0.19405 0.0
C949 C 0.60365 0.25519 0.14717 0.0
H950 H 0.56494 0.18035 0.17908 0.0
C951 C 0.63554 0.25361 0.15521 0.0
C952 C 0.64206 0.22653 0.17295 0.0
H953 H 0.59933 0.27729 0.13474 0.0
H954 H 0.65499 0.27488 0.1493 0.0
C955 C 0.61625 0.19951 0.18033 0.0
C956 C 0.51863 0.88139 0.9359 0.0
C957 C 0.52376 0.8559 0.95623 0.0
H958 H 0.51213 0.93558 0.93467 0.0
C959 C 0.53097 0.86714 0.99099 0.0
H960 H 0.51216 0.87289 0.90913 0.0
C961 C 0.53165 0.90314 0.00551 0.0
C962 C 0.52389 0.92789 0.98558 0.0
H963 H 0.53425 0.84759 0.00712 0.0
H964 H 0.53605 0.91083 0.03261 0.0
C965 C 0.51831 0.91707 0.95054 0.0
C966 C 0.88852 0.78188 0.68421 0.0
C967 C 0.90821 0.75798 0.69048 0.0
H968 H 0.8471 0.80277 0.69665 0.0
C969 C 0.89975 0.73528 0.71495 0.0
H970 H 0.89434 0.79995 0.66576 0.0
C971 C 0.87185 0.73653 0.73261 0.0
C972 C 0.85291 0.76143 0.7268 0.0
H973 H 0.9146 0.71669 0.72035 0.0
H974 H 0.86542 0.71861 0.75108 0.0
C975 C 0.86155 0.78387 0.70233 0.0
C976 C 0.07138 0.97205 0.88947 0.0
C977 C 0.08611 0.00495 0.87884 0.0
H978 H 0.03853 0.94636 0.92279 0.0
C979 C 0.08012 0.03794 0.89493 0.0
H980 H 0.07542 0.94624 0.87693 0.0
C981 C 0.05982 0.03808 0.92158 0.0
C982 C 0.04422 0.00507 0.93154 0.0
H983 H 0.09103 0.06351 0.88682 0.0
H984 H 0.05562 0.06394 0.93381 0.0
C985 C 0.05013 0.97204 0.91532 0.0
C986 C 0.73852 0.33876 0.59523 0.0
C987 C 0.75611 0.32372 0.57 0.0
H988 H 0.72654 0.34191 0.64681 0.0
C989 C 0.77133 0.29573 0.57634 0.0
H990 H 0.72661 0.36042 0.59117 0.0
C991 C 0.7713 0.28523 0.60816 0.0
C992 C 0.75625 0.3027 0.63419 0.0
H993 H 0.78487 0.28341 0.5573 0.0
H994 H 0.78459 0.26491 0.61286 0.0
C995 C 0.73875 0.32845 0.62718 0.0
C996 C 0.50925 0.0605 0.36518 0.0
C997 C 0.48644 0.08208 0.37206 0.0
H998 H 0.54358 0.03417 0.38569 0.0
C999 C 0.48269 0.09623 0.40565 0.0
H1000 H 0.51277 0.0493 0.33951 0.0
C1001 C 0.50095 0.08815 0.4319 0.0
C1002 C 0.52249 0.0652 0.42489 0.0
H1003 H 0.46568 0.11339 0.41163 0.0
H1004 H 0.49792 0.09937 0.45767 0.0
C1005 C 0.52702 0.05197 0.39145 0.0
C1006 C 0.75487 0.68752 0.0967 0.0
C1007 C 0.78316 0.70373 0.0822 0.0
H1008 H 0.72907 0.6837 0.14186 0.0
C1009 C 0.80637 0.7308 0.10305 0.0
H1010 H 0.73642 0.66654 0.08153 0.0
C1011 C 0.80224 0.74033 0.13735 0.0
C1012 C 0.77466 0.72337 0.15226 0.0
H1013 H 0.82838 0.74418 0.09312 0.0
H1014 H 0.82121 0.76082 0.15235 0.0
C1015 C 0.75062 0.69734 0.13132 0.0
C1016 C 0.11735 0.0132 0.6746 0.0
C1017 C 0.10933 0.03496 0.70306 0.0
H1018 H 0.11273 -0.00075 0.62082 0.0
C1019 C 0.09303 0.0626 0.69854 0.0
H1020 H 0.13028 0.99202 0.67729 0.0
C1021 C 0.08289 0.06666 0.6662 0.0
C1022 C 0.08922 0.0434 0.63794 0.0
H1023 H 0.08678 0.08005 0.72 0.0
H1024 H 0.06886 0.08684 0.66345 0.0
C1025 C 0.1075 0.01752 0.64228 0.0
C1026 C 0.75798 0.28709 0.38936 0.0
C1027 C 0.74605 0.31799 0.40179 0.0
H1028 H 0.75994 0.246 0.34728 0.0
C1029 C 0.72387 0.32901 0.38105 0.0
H1030 H 0.77481 0.27752 0.40471 0.0
C1031 C 0.71538 0.31075 0.34789 0.0
C1032 C 0.729 0.2813 0.33511 0.0
H1033 H 0.71433 0.35276 0.38982 0.0
H1034 H 0.69949 0.32076 0.33181 0.0
C1035 C 0.74955 0.26901 0.35642 0.0
C1036 C 0.45284 0.01019 0.18018 0.0
C1037 C 0.44369 0.04253 0.19356 0.0
H1038 H 0.47019 0.98061 0.13782 0.0
C1039 C 0.44327 0.06947 0.17319 0.0
H1040 H 0.45321 0.98891 0.19528 0.0
C1041 C 0.45328 0.06484 0.14049 0.0
C1042 C 0.4635 0.03309 0.12766 0.0
H1043 H 0.43633 0.0947 0.18287 0.0
H1044 H 0.45365 0.0864 0.12553 0.0
C1045 C 0.46257 0.00545 0.14738 0.0
C1046 C 0.80337 0.7618 0.90844 0.0
C1047 C 0.78197 0.72871 0.91167 0.0
H1048 H 0.81761 0.80399 0.87829 0.0
C1049 C 0.75716 0.71358 0.88606 0.0
H1050 H 0.82277 0.7743 0.92755 0.0
C1051 C 0.75466 0.73034 0.85748 0.0
C1052 C 0.77671 0.76272 0.85391 0.0
H1053 H 0.74029 0.6881 0.88751 0.0
H1054 H 0.73526 0.71818 0.83835 0.0
C1055 C 0.80053 0.77876 0.88012 0.0
C1056 C 0.8634 0.07561 0.98735 0.0
C1057 C 0.84447 0.07481 0.01528 0.0
H1058 H 0.90059 0.05568 0.96136 0.0
C1059 C 0.84807 0.05144 0.03842 0.0
H1060 H 0.86068 0.09289 0.96879 0.0
C1061 C 0.87134 0.03033 0.03437 0.0
C1062 C 0.89039 0.03145 0.0065 0.0
H1063 H 0.83345 0.05012 0.05995 0.0
H1064 H 0.8749 0.01377 0.05329 0.0
C1065 C 0.88581 0.05376 0.98275 0.0
C1066 C 0.38278 0.46715 0.01314 0.0
C1067 C 0.37182 0.43799 0.03082 0.0
H1068 H 0.42359 0.50682 0.00149 0.0
C1069 C 0.39464 0.42543 0.0493 0.0
H1070 H 0.36581 0.47748 0.99869 0.0
C1071 C 0.42739 0.44237 0.05112 0.0
C1072 C 0.43826 0.47208 0.03428 0.0
H1073 H 0.38716 0.40316 0.06331 0.0
H1074 H 0.44422 0.43238 0.0661 0.0
C1075 C 0.4158 0.48393 0.0147 0.0
C1076 C 0.3126 0.61595 0.71758 0.0
C1077 C 0.30738 0.59635 0.74476 0.0
H1078 H 0.30454 0.66219 0.69617 0.0
C1079 C 0.28543 0.60529 0.76838 0.0
H1080 H 0.32929 0.60985 0.69894 0.0
C1081 C 0.27175 0.63531 0.76694 0.0
C1082 C 0.27893 0.65642 0.74135 0.0
H1083 H 0.28049 0.59071 0.7895 0.0
H1084 H 0.25703 0.64332 0.78697 0.0
C1085 C 0.29836 0.64578 0.71587 0.0
C1086 C 0.15928 0.54387 0.50245 0.0
C1087 C 0.1759 0.5782 0.51943 0.0
H1088 H 0.1134 0.50812 0.48689 0.0
C1089 C 0.15861 0.60171 0.53728 0.0
H1090 H 0.17197 0.52509 0.48867 0.0
C1091 C 0.12494 0.59162 0.53671 0.0
C1092 C 0.10842 0.5583 0.51778 0.0
H1093 H 0.17098 0.62822 0.55084 0.0
H1094 H 0.11182 0.61059 0.54945 0.0
C1095 C 0.1258 0.53416 0.50139 0.0
C1096 C 0.72936 0.93408 0.70495 0.0
C1097 C 0.73264 0.96264 0.73226 0.0
H1098 H 0.73986 0.88212 0.68773 0.0
C1099 C 0.75785 0.96744 0.75737 0.0
H1100 H 0.71068 0.93012 0.68484 0.0
C1101 C 0.7745 0.93981 0.7591 0.0
C1102 C 0.76604 0.90766 0.73555 0.0
H1103 H 0.76153 0.98992 0.77824 0.0
H1104 H 0.79048 0.94154 0.78117 0.0
C1105 C 0.74593 0.90645 0.70673 0.0
C1106 C 0.68415 0.97395 0.56219 0.0
C1107 C 0.69478 0.95001 0.53708 0.0
H1108 H 0.65224 0.00998 0.57447 0.0
C1109 C 0.68087 0.9448 0.50394 0.0
H1110 H 0.69431 0.97862 0.58798 0.0
C1111 C 0.65711 0.96341 0.49611 0.0
C1112 C 0.64654 0.98724 0.52131 0.0
H1113 H 0.68867 0.92679 0.48397 0.0
H1114 H 0.64674 0.95877 0.4704 0.0
C1115 C 0.66017 0.99213 0.55445 0.0
C1116 C 0.29998 0.40671 0.72024 0.0
C1117 C 0.32809 0.42155 0.74138 0.0
H1118 H 0.26191 0.3594 0.70345 0.0
C1119 C 0.34136 0.39882 0.7596 0.0
H1120 H 0.28907 0.424 0.70651 0.0
C1121 C 0.32586 0.36218 0.75819 0.0
C1122 C 0.2966 0.34774 0.73875 0.0
H1123 H 0.36282 0.40999 0.77647 0.0
H1124 H 0.33591 0.34571 0.77365 0.0
C1125 C 0.28438 0.36992 0.7188 0.0
C1126 C 0.18701 0.62763 0.23567 0.0
C1127 C 0.18857 0.61177 0.26504 0.0
H1128 H 0.20302 0.67508 0.21208 0.0
C1129 C 0.20819 0.63212 0.29324 0.0
H1130 H 0.1722 0.61257 0.21346 0.0
C1131 C 0.2259 0.66712 0.29227 0.0
C1132 C 0.22445 0.68327 0.26318 0.0
H1133 H 0.21025 0.62098 0.3163 0.0
H1134 H 0.24061 0.68154 0.31477 0.0
C1135 C 0.20477 0.66326 0.23479 0.0
C1136 C 0.52375 0.6707 0.44701 0.0
C1137 C 0.49302 0.67894 0.4489 0.0
H1138 H 0.55612 0.63991 0.46408 0.0
C1139 C 0.4732 0.66613 0.47384 0.0
H1140 H 0.53981 0.68039 0.42834 0.0
C1141 C 0.48265 0.64315 0.49438 0.0
C1142 C 0.51221 0.63252 0.49064 0.0
H1143 H 0.44957 0.67225 0.47642 0.0
H1144 H 0.4659 0.63203 0.51192 0.0
C1145 C 0.53329 0.64776 0.46775 0.0
C1146 C 0.65239 0.35876 0.75434 0.0
C1147 C 0.64027 0.33726 0.723 0.0
H1148 H 0.68808 0.36948 0.79593 0.0
C1149 C 0.65691 0.31126 0.70848 0.0
H1150 H 0.64013 0.37907 0.7662 0.0
C1151 C 0.68391 0.30541 0.72576 0.0
C1152 C 0.69527 0.32589 0.75764 0.0
H1153 H 0.64818 0.29409 0.68451 0.0
H1154 H 0.6952 0.28392 0.71457 0.0
C1155 C 0.67976 0.35324 0.77144 0.0
C1156 C 0.95457 0.3544 0.93342 0.0
C1157 C 0.97861 0.33627 0.92165 0.0
H1158 H 0.94358 0.40363 0.95849 0.0
C1159 C 0.01114 0.35514 0.92686 0.0
H1160 H 0.92925 0.34073 0.92969 0.0
C1161 C 0.0194 0.39123 0.94395 0.0
C1162 C 0.99525 0.40932 0.95555 0.0
H1163 H 0.03019 0.34185 0.91822 0.0
H1164 H 0.04467 0.40509 0.94769 0.0
C1165 C 0.96277 0.39053 0.94991 0.0
C1166 C 0.96392 0.77795 0.2462 0.0
C1167 C 0.96746 0.76075 0.21352 0.0
H1168 H 0.93079 0.78829 0.28374 0.0
C1169 C 0.94075 0.73667 0.1951 0.0
H1170 H 0.98417 0.79719 0.26053 0.0
C1171 C 0.91058 0.73092 0.20863 0.0
C1172 C 0.90645 0.75024 0.24024 0.0
H1173 H 0.94296 0.72349 0.1697 0.0
H1174 H 0.89008 0.71316 0.19339 0.0
C1175 C 0.93345 0.77316 0.2593 0.0
C1176 C 0.4708 0.34058 0.02318 0.0
C1177 C 0.49112 0.33294 0.04825 0.0
H1178 H 0.46343 0.37796 0.99044 0.0
C1179 C 0.52262 0.35459 0.055 0.0
H1180 H 0.44653 0.32413 0.01697 0.0
C1181 C 0.53232 0.38549 0.03969 0.0
C1182 C 0.51078 0.39517 0.01721 0.0
H1183 H 0.53904 0.34925 0.07385 0.0
H1184 H 0.55594 0.40308 0.0472 0.0
C1185 C 0.48057 0.37137 0.00774 0.0
C1186 C 0.90661 0.27006 0.37236 0.0
C1187 C 0.93493 0.28355 0.35691 0.0
H1188 H 0.85567 0.26586 0.37379 0.0
C1189 C 0.93422 0.30821 0.33427 0.0
H1190 H 0.90638 0.25115 0.39004 0.0
C1191 C 0.90513 0.31686 0.32517 0.0
C1192 C 0.87635 0.30076 0.33843 0.0
H1193 H 0.9558 0.31952 0.3224 0.0
H1194 H 0.90484 0.33403 0.30598 0.0
C1195 C 0.87755 0.27865 0.36322 0.0
C1196 C 0.9895 0.65816 0.5717 0.0
C1197 C 0.96386 0.67311 0.56165 0.0
H1198 H 0.01967 0.62073 0.55832 0.0
C1199 C 0.94773 0.6595 0.52962 0.0
H1200 H 0.00243 0.66784 0.59618 0.0
C1201 C 0.95783 0.63235 0.50774 0.0
C1202 C 0.98403 0.61834 0.51768 0.0
H1203 H 0.92803 0.67059 0.52105 0.0
H1204 H 0.94537 0.62258 0.48302 0.0
C1205 C -0.00052 0.63119 0.54996 0.0
C1206 C 0.6247 0.80171 0.81297 0.0
C1207 C 0.60954 0.77393 0.83042 0.0
H1208 H 0.66419 0.82111 0.78372 0.0
C1209 C 0.62304 0.7433 0.83088 0.0
H1210 H 0.61487 0.82562 0.81205 0.0
C1211 C 0.6509 0.74039 0.81413 0.0
C1212 C 0.66624 0.76827 0.79689 0.0
H1213 H 0.61186 0.72128 0.84388 0.0
H1214 H 0.66074 0.71652 0.81526 0.0
C1215 C 0.6529 0.79906 0.79663 0.0
C1216 C 0.44676 0.53037 0.63097 0.0
C1217 C 0.45094 0.5619 0.65539 0.0
H1218 H 0.4649 0.50335 0.58765 0.0
C1219 C 0.47634 0.59196 0.65291 0.0
H1220 H 0.42768 0.50663 0.63226 0.0
C1221 C 0.49757 0.59018 0.62711 0.0
C1222 C 0.49383 0.5583 0.6033 0.0
H1223 H 0.48028 0.61669 0.67134 0.0
H1224 H 0.51712 0.61354 0.62606 0.0
C1225 C 0.46811 0.52853 0.60536 0.0
C1226 C 0.81115 0.25753 0.94978 0.0
C1227 C 0.78679 0.22954 0.95833 0.0
H1228 H 0.82451 0.29722 0.91728 0.0
C1229 C 0.75521 0.22426 0.94374 0.0
H1230 H 0.83562 0.26273 0.9609 0.0
C1231 C 0.74887 0.24419 0.91876 0.0
C1232 C 0.77398 0.26974 0.90815 0.0
H1233 H 0.73581 0.20317 0.95001 0.0
H1234 H 0.72487 0.23786 0.90624 0.0
C1235 C 0.80478 0.27747 0.9249 0.0
C1236 C 0.06254 0.53972 0.13916 0.0
C1237 C 0.08192 0.5142 0.14042 0.0
H1238 H 0.02495 0.55526 0.11196 0.0
C1239 C 0.07648 0.48289 0.11549 0.0
H1240 H 0.06602 0.56407 0.158 0.0
C1241 C 0.05237 0.47761 0.08951 0.0
C1242 C 0.0334 0.5034 0.08838 0.0
H1243 H 0.09087 0.46263 0.11594 0.0
H1244 H 0.04948 0.4543 0.06956 0.0
C1245 C 0.03855 0.53437 0.11332 0.0
C1246 C 0.7612 0.81801 0.4185 0.0
C1247 C 0.78861 0.81693 0.43869 0.0
H1248 H 0.73752 0.80695 0.36871 0.0
C1249 C 0.81353 0.80307 0.42291 0.0
H1250 H 0.7416 0.8286 0.42969 0.0
C1251 C 0.8115 0.79144 0.38802 0.0
C1252 C 0.78428 0.79271 0.36779 0.0
H1253 H 0.83516 0.80199 0.43741 0.0
H1254 H 0.83135 0.78128 0.37692 0.0
C1255 C 0.75892 0.80569 0.38351 0.0
C1256 C 0.44839 0.48371 0.82097 0.0
C1257 C 0.42434 0.50407 0.82254 0.0
H1258 H 0.47896 0.45845 0.84851 0.0
C1259 C 0.40969 0.51051 0.85299 0.0
H1260 H 0.45989 0.47792 0.79775 0.0
C1261 C 0.42014 0.49869 0.88176 0.0
C1262 C 0.44575 0.48072 0.88074 0.0
H1263 H 0.39118 0.52613 0.85516 0.0
H1264 H 0.40955 0.50578 0.90529 0.0
C1265 C 0.45907 0.47219 0.84989 0.0
C1266 C 0.83755 0.22813 0.13137 0.0
C1267 C 0.81012 0.21126 0.10977 0.0
H1268 H 0.85581 0.25804 0.18001 0.0
C1269 C 0.77939 0.21445 0.12032 0.0
H1270 H 0.86149 0.22629 0.12398 0.0
C1271 C 0.77619 0.23343 0.15224 0.0
C1272 C 0.8036 0.24886 0.17421 0.0
H1273 H 0.75779 0.20202 0.10401 0.0
H1274 H 0.75231 0.2346 0.16023 0.0
C1275 C 0.83427 0.24641 0.16338 0.0
C1276 C 0.04501 0.49552 0.30635 0.0
C1277 C 0.07802 0.51056 0.30512 0.0
H1278 H 0.00456 0.4898 0.33712 0.0
C1279 C 0.09524 0.53461 0.33281 0.0
H1280 H 0.03143 0.47702 0.28497 0.0
C1281 C 0.07982 0.5427 0.36202 0.0
C1282 C 0.04725 0.52608 0.36401 0.0
H1283 H 0.12059 0.54701 0.33195 0.0
H1284 H 0.09374 0.56069 0.38349 0.0
C1285 C 0.02975 0.50283 0.33594 0.0
C1286 C 0.73075 0.77987 0.61144 0.0
C1287 C 0.7583 0.80837 0.6119 0.0
H1288 H 0.70341 0.74035 0.63924 0.0
C1289 C 0.77808 0.82045 0.64187 0.0
H1290 H 0.71524 0.76979 0.58854 0.0
C1291 C 0.77146 0.804 0.67032 0.0
C1292 C 0.74475 0.77471 0.67007 0.0
H1293 H 0.79946 0.84231 0.64306 0.0
H1294 H 0.78815 0.81379 0.69236 0.0
C1295 C 0.7241 0.76299 0.64037 0.0
C1296 C 0.66884 0.47094 0.49209 0.0
C1297 C 0.68986 0.47492 0.52073 0.0
H1298 H 0.63055 0.48903 0.46902 0.0
C1299 C 0.68909 0.50238 0.54824 0.0
H1300 H 0.66935 0.45054 0.47027 0.0
C1301 C 0.6667 0.52447 0.54763 0.0
C1302 C 0.64522 0.51983 0.51924 0.0
H1303 H 0.70532 0.50627 0.57052 0.0
H1304 H 0.66555 0.54432 0.56967 0.0
C1305 C 0.64698 0.49341 0.49122 0.0
C1306 C 0.15776 0.05125 0.46215 0.0
C1307 C 0.17085 0.0742 0.49241 0.0
H1308 H 0.11628 0.01342 0.43597 0.0
C1309 C 0.15185 0.07614 0.52017 0.0
H1310 H 0.17217 0.04909 0.44051 0.0
C1311 C 0.11982 0.0565 0.51732 0.0
C1312 C 0.10666 0.03346 0.48713 0.0
H1313 H 0.16146 0.0937 0.54373 0.0
H1314 H 0.10518 0.05993 0.53854 0.0
C1315 C 0.12601 0.03058 0.45968 0.0
C1316 C 0.23879 0.92195 0.81296 0.0
C1317 C 0.21575 0.93048 0.79135 0.0
H1318 H 0.26962 0.8858 0.82062 0.0
C1319 C 0.20956 0.91101 0.75829 0.0
H1320 H 0.24439 0.93653 0.8385 0.0
C1321 C 0.22407 0.88182 0.74802 0.0
C1322 C 0.24523 0.87158 0.7705 0.0
H1323 H 0.19217 0.91697 0.74085 0.0
H1324 H 0.21744 0.8662 0.72297 0.0
C1325 C 0.2534 0.89287 0.80263 0.0
C1326 C 0.36549 0.93011 0.95108 0.0
C1327 C 0.34386 0.95221 0.961 0.0
H1328 H 0.41515 0.92802 0.94632 0.0
C1329 C 0.35494 0.99022 0.96897 0.0
H1330 H 0.35719 0.9007 0.94487 0.0
C1331 C 0.38792 0.00554 0.97092 0.0
C1332 C 0.40973 0.98305 0.96367 0.0
H1333 H 0.33854 0.00759 0.97702 0.0
H1334 H 0.39652 0.03454 0.97997 0.0
C1335 C 0.39841 0.94564 0.95191 0.0
C1336 C 0.79589 0.60955 0.82039 0.0
C1337 C 0.81822 0.59842 0.79849 0.0
H1338 H 0.75526 0.63427 0.8256 0.0
C1339 C 0.81206 0.59597 0.7635 0.0
H1340 H 0.79962 0.61105 0.84741 0.0
C1341 C 0.78642 0.60879 0.75097 0.0
C1342 C 0.76677 0.62451 0.77329 0.0
H1343 H 0.8283 0.58643 0.74585 0.0
H1344 H 0.78409 0.60974 0.7242 0.0
C1345 C 0.77026 0.62249 0.80783 0.0
C1346 C 0.8441 0.56037 0.00704 0.0
C1347 C 0.84637 0.59357 0.99466 0.0
H1348 H 0.86857 0.51896 0.01787 0.0
C1349 C 0.87621 0.61086 0.9842 0.0
H1350 H 0.8214 0.54623 0.01511 0.0
C1351 C 0.90293 0.59504 0.98541 0.0
C1352 C 0.90055 0.56164 0.99726 0.0
H1353 H 0.87881 0.63625 0.97428 0.0
H1354 H 0.92547 0.60894 0.97681 0.0
C1355 C 0.87099 0.5446 0.00841 0.0
C1356 C 0.19848 0.11283 0.78598 0.0
C1357 C 0.20773 0.10004 0.81522 0.0
H1358 H 0.21067 0.15187 0.75227 0.0
C1359 C 0.23657 0.11892 0.83383 0.0
H1360 H 0.17635 0.09907 0.77105 0.0
C1361 C 0.25624 0.14891 0.82282 0.0
C1362 C 0.24748 0.16089 0.79309 0.0
H1363 H 0.24448 0.10994 0.85639 0.0
H1364 H 0.27864 0.16242 0.83742 0.0
C1365 C 0.21811 0.14303 0.7751 0.0
C1366 C 0.35942 0.95516 0.33738 0.0
C1367 C 0.37098 0.97562 0.31233 0.0
H1368 H 0.33105 0.90595 0.34912 0.0
C1369 C 0.36296 0.95999 0.27818 0.0
H1370 H 0.36516 0.9662 0.36389 0.0
C1371 C 0.34289 0.92492 0.26945 0.0
C1372 C 0.33069 0.90496 0.29475 0.0
H1373 H 0.37138 0.97521 0.25824 0.0
H1374 H 0.33673 0.91368 0.24306 0.0
C1375 C 0.33961 0.92044 0.32876 0.0
C1376 C 0.55045 0.39374 0.58083 0.0
C1377 C 0.52284 0.36521 0.57864 0.0
H1378 H 0.57135 0.44591 0.56762 0.0
C1379 C 0.49598 0.36588 0.55734 0.0
H1380 H 0.57158 0.39405 0.59681 0.0
C1381 C 0.49565 0.39572 0.54099 0.0
C1382 C 0.52233 0.42543 0.54511 0.0
H1383 H 0.47438 0.34416 0.55456 0.0
H1384 H 0.47398 0.39607 0.52617 0.0
C1385 C 0.55025 0.42351 0.56409 0.0
C1386 C 0.40085 0.74289 0.27438 0.0
C1387 C 0.40569 0.745 0.3094 0.0
H1388 H 0.36976 0.74805 0.23324 0.0
C1389 C 0.382 0.75464 0.33029 0.0
H1390 H 0.41869 0.7354 0.25771 0.0
C1391 C 0.35426 0.76282 0.31628 0.0
C1392 C 0.34945 0.76049 0.2812 0.0
H1393 H 0.38526 0.75676 0.3574 0.0
H1394 H 0.33649 0.77057 0.33279 0.0
C1395 C 0.37281 0.75001 0.26038 0.0
C1396 C 0.0578 0.67942 0.09822 0.0
C1397 C 0.03651 0.69915 0.08623 0.0
H1398 H 0.07654 0.63066 0.0892 0.0
C1399 C 0.02253 0.68825 0.05311 0.0
H1400 H 0.06901 0.68735 0.12363 0.0
C1401 C 0.02735 0.65668 0.03342 0.0
C1402 C 0.04605 0.63491 0.04637 0.0
H1403 H 0.00656 0.70327 0.04285 0.0
H1404 H 0.0145 0.64786 0.00878 0.0
C1405 C 0.06242 0.64726 0.07842 0.0
C1406 C 0.10132 0.23074 0.82082 0.0
C1407 C 0.07911 0.24238 0.8007 0.0
H1408 H 0.14871 0.22025 0.82607 0.0
C1409 C 0.08846 0.25289 0.76973 0.0
H1410 H 0.09477 0.22215 0.84465 0.0
C1411 C 0.1194 0.25206 0.75923 0.0
C1412 C 0.14142 0.24008 0.7792 0.0
H1413 H 0.0719 0.26194 0.75361 0.0
H1414 H 0.12607 0.26072 0.73546 0.0
C1415 C 0.13208 0.22932 0.81004 0.0
C1416 C 0.54548 0.6638 0.96158 0.0
C1417 C 0.51926 0.67989 0.96972 0.0
H1418 H 0.56782 0.61898 0.9662 0.0
C1419 C 0.49858 0.66629 0.9938 0.0
H1420 H 0.56192 0.67362 0.94327 0.0
C1421 C 0.50192 0.63503 0.0066 0.0
C1422 C 0.52644 0.6174 0.99627 0.0
H1423 H 0.47829 0.67812 0.00098 0.0
H1424 H 0.48408 0.62327 0.02284 0.0
C1425 C 0.54901 0.63269 0.9748 0.0
C1426 C 0.08693 0.70305 0.67345 0.0
C1427 C 0.08055 0.73247 0.65893 0.0
H1428 H 0.12298 0.67912 0.69399 0.0
C1429 C 0.10661 0.75804 0.64971 0.0
H1430 H 0.06739 0.68268 0.68054 0.0
C1431 C 0.13841 0.75555 0.65685 0.0
C1432 C 0.14474 0.72772 0.67368 0.0
H1433 H 0.10248 0.78071 0.63803 0.0
H1434 H 0.158 0.77673 0.65104 0.0
C1435 C 0.11875 0.70083 0.68095 0.0
C1436 C 0.03144 0.3732 0.48851 0.0
C1437 C 0.0242 0.36236 0.45373 0.0
H1438 H 0.03673 0.41643 0.53047 0.0
C1439 C 0.0194 0.38824 0.43366 0.0
H1440 H 0.03453 0.35338 0.50443 0.0
C1441 C 0.01943 0.42396 0.44863 0.0
C1442 C 0.02485 0.43426 0.48373 0.0
H1443 H 0.01299 0.38007 0.40685 0.0
H1444 H 0.01382 0.44299 0.43301 0.0
C1445 C 0.03233 0.40911 0.50334 0.0
C1446 C 0.38595 0.27808 0.17976 0.0
C1447 C 0.40506 0.25343 0.18557 0.0
H1448 H 0.34582 0.30096 0.19369 0.0
C1449 C 0.39698 0.2316 0.21075 0.0
H1450 H 0.39159 0.29557 0.16081 0.0
C1451 C 0.36998 0.23431 0.22951 0.0
C1452 C 0.35161 0.2599 0.22415 0.0
H1453 H 0.41142 0.2125 0.21585 0.0
H1454 H 0.36377 0.2169 0.24842 0.0
C1455 C 0.35991 0.28159 0.19903 0.0
C1456 C 0.56828 0.53609 0.3857 0.0
C1457 C 0.58448 0.50782 0.37725 0.0
H1458 H 0.53627 0.55788 0.41905 0.0
C1459 C 0.5802 0.4789 0.39603 0.0
H1460 H 0.57107 0.55854 0.37148 0.0
C1461 C 0.5592 0.47769 0.42213 0.0
C1462 C 0.54309 0.50597 0.43048 0.0
H1463 H 0.59218 0.45656 0.38973 0.0
H1464 H 0.5559 0.455 0.43608 0.0
C1465 C 0.54826 0.53555 0.41261 0.0
C1466 C 0.27445 0.80116 0.07781 0.0
C1467 C 0.25946 0.82917 0.07106 0.0
H1468 H 0.28741 0.77071 0.11475 0.0
C1469 C 0.24213 0.84488 0.09617 0.0
H1470 H 0.28778 0.78833 0.05888 0.0
C1471 C 0.24226 0.83502 0.12833 0.0
C1472 C 0.25945 0.8091 0.13567 0.0
H1473 H 0.23041 0.86659 0.09178 0.0
H1474 H 0.23019 0.84888 0.14782 0.0
C1475 C 0.27436 0.79115 0.10982 0.0
C1476 C 0.01191 0.59293 0.88067 0.0
C1477 C 0.97828 0.57983 0.87582 0.0
H1478 H 0.05552 0.59195 0.90873 0.0
C1479 C 0.96254 0.55502 0.89564 0.0
H1480 H 0.0245 0.61176 0.86521 0.0
C1481 C 0.98033 0.54255 0.9193 0.0
C1482 C 0.01394 0.55588 0.92454 0.0
H1483 H 0.93676 0.54385 0.8917 0.0
H1484 H 0.96776 0.52205 0.93315 0.0
C1485 C 0.0296 0.58147 0.90529 0.0
C1486 C 0.25404 0.18522 0.59577 0.0
C1487 C 0.28193 0.20268 0.58139 0.0
H1488 H 0.22829 0.18 0.64086 0.0
C1489 C 0.30429 0.23061 0.60234 0.0
H1490 H 0.23623 0.16355 0.58053 0.0
C1491 C 0.29982 0.23975 0.63661 0.0
C1492 C 0.27274 0.22151 0.65145 0.0
H1493 H 0.32594 0.245 0.59251 0.0
H1494 H 0.31818 0.26096 0.65167 0.0
C1495 C 0.24944 0.19463 0.6304 0.0
C1496 C 0.59054 0.56043 0.19341 0.0
C1497 C 0.60908 0.53527 0.19948 0.0
H1498 H 0.56524 0.58111 0.15641 0.0
C1499 C 0.62 0.51478 0.17201 0.0
H1500 H 0.58199 0.57682 0.2141 0.0
C1501 C 0.6109 0.51778 0.13904 0.0
C1502 C 0.59038 0.54093 0.13308 0.0
H1503 H 0.6347 0.49555 0.17596 0.0
H1504 H 0.6184 0.50042 0.11832 0.0
C1505 C 0.58106 0.56304 0.16043 0.0
C1506 C 0.25954 0.78629 0.88983 0.0
C1507 C 0.24743 0.81716 0.90192 0.0
H1508 H 0.26196 0.74508 0.84798 0.0
C1509 C 0.22527 0.82787 0.88091 0.0
H1510 H 0.27638 0.77698 0.90539 0.0
C1511 C 0.21706 0.8094 0.8478 0.0
C1512 C 0.23095 0.78008 0.83531 0.0
H1513 H 0.21561 0.8516 0.88939 0.0
H1514 H 0.20121 0.81923 0.83151 0.0
C1515 C 0.2514 0.76801 0.8569 0.0
C1516 C 0.94395 0.57046 0.67413 0.0
C1517 C 0.95246 0.54893 0.69702 0.0
H1518 H 0.94782 0.58401 0.62435 0.0
C1519 C 0.97115 0.5235 0.68659 0.0
H1520 H 0.92963 0.59036 0.68152 0.0
C1521 C 0.98157 0.52001 0.65403 0.0
C1522 C 0.97346 0.54186 0.6314 0.0
H1523 H 0.97808 0.50653 0.70366 0.0
H1524 H 0.99612 0.50033 0.64666 0.0
C1525 C 0.95443 0.56696 0.64152 0.0
C1526 C 0.30318 0.26031 0.40718 0.0
C1527 C 0.28134 0.2276 0.41072 0.0
H1528 H 0.31784 0.30222 0.37686 0.0
C1529 C 0.25603 0.21308 0.38554 0.0
H1530 H 0.32295 0.27244 0.42597 0.0
C1531 C 0.25345 0.23005 0.35708 0.0
C1532 C 0.27605 0.26189 0.35311 0.0
H1533 H 0.23874 0.18798 0.38727 0.0
H1534 H 0.23354 0.21851 0.33839 0.0
C1535 C 0.30037 0.27735 0.37893 0.0
C1536 C 0.34833 0.55256 0.53814 0.0
C1537 C 0.34474 0.57562 0.51472 0.0
H1538 H 0.37513 0.51505 0.5534 0.0
C1539 C 0.36341 0.57583 0.48659 0.0
H1540 H 0.33387 0.5517 0.55982 0.0
C1541 C 0.38567 0.5538 0.48213 0.0
C1542 C 0.39037 0.53192 0.50622 0.0
H1543 H 0.36064 0.59285 0.46781 0.0
H1544 H 0.40032 0.55532 0.46061 0.0
C1545 C 0.37148 0.5313 0.53423 0.0
C1546 C 0.89248 0.93413 0.55588 0.0
C1547 C 0.87026 0.93973 0.53161 0.0
H1548 H 0.94104 0.94914 0.57793 0.0
C1549 C 0.88137 0.96335 0.50856 0.0
H1550 H 0.88472 0.91622 0.57407 0.0
C1551 C 0.91402 0.98162 0.51035 0.0
C1552 C 0.93564 0.97724 0.53579 0.0
H1553 H 0.86477 0.96816 0.48959 0.0
H1554 H 0.92198 0.00035 0.49293 0.0
C1555 C 0.92469 0.95309 0.55824 0.0
C1556 C 0.78497 0.10748 0.27013 0.0
C1557 C 0.80566 0.09776 0.24539 0.0
H1558 H 0.75728 0.14594 0.28955 0.0
C1559 C 0.80902 0.11613 0.2173 0.0
H1560 H 0.78145 0.09385 0.29198 0.0
C1561 C 0.79434 0.14565 0.21567 0.0
C1562 C 0.77637 0.15723 0.24218 0.0
H1563 H 0.8247 0.10939 0.19779 0.0
H1564 H 0.79918 0.16117 0.19515 0.0
C1565 C 0.77091 0.13722 0.26876 0.0
C1566 C 0.65923 0.04067 0.02069 0.0
C1567 C 0.67533 0.07738 0.03039 0.0
H1568 H 0.61357 0.00285 0.00941 0.0
C1569 C 0.65748 0.10369 0.04111 0.0
H1570 H 0.67233 0.01979 0.01243 0.0
C1571 C 0.62379 0.09368 0.04007 0.0
C1572 C 0.60791 0.05748 0.02788 0.0
H1573 H 0.66943 0.13214 0.04897 0.0
H1574 H 0.61016 0.11448 0.04662 0.0
C1575 C 0.6257 0.0309 0.01905 0.0
C1576 C 0.22578 0.43588 0.21191 0.0
C1577 C 0.22779 0.46235 0.24074 0.0
H1578 H 0.2388 0.38624 0.19113 0.0
C1579 C 0.25227 0.46585 0.26633 0.0
H1580 H 0.20762 0.43297 0.19148 0.0
C1581 C 0.27026 0.43915 0.26601 0.0
C1582 C 0.26368 0.40895 0.24015 0.0
H1583 H 0.25494 0.48673 0.28844 0.0
H1584 H 0.28601 0.43976 0.28796 0.0
C1585 C 0.24362 0.4091 0.21171 0.0
C1586 C 0.18217 0.44602 0.00401 0.0
C1587 C 0.19278 0.44686 0.03774 0.0
H1588 H 0.15019 0.46297 0.97018 0.0
C1589 C 0.17842 0.46589 0.06356 0.0
H1590 H 0.19291 0.43188 0.98352 0.0
C1591 C 0.15396 0.48345 0.05593 0.0
C1592 C 0.1436 0.48296 0.02227 0.0
H1593 H 0.186 0.46712 0.0898 0.0
H1594 H 0.14314 0.49744 0.07646 0.0
C1595 C 0.15796 0.46413 0.99635 0.0
C1596 C 0.80645 0.90881 0.22083 0.0
C1597 C 0.83106 0.92509 0.24607 0.0
H1598 H 0.77109 0.86013 0.20016 0.0
C1599 C 0.8414 0.90353 0.26783 0.0
H1600 H 0.7979 0.92509 0.20407 0.0
C1601 C 0.82642 0.86664 0.26555 0.0
C1602 C 0.80032 0.85075 0.24185 0.0
H1603 H 0.8603 0.91568 0.2876 0.0
H1604 H 0.8342 0.8511 0.2835 0.0
C1605 C 0.79106 0.87182 0.21881 0.0
C1606 C 0.69454 0.1308 0.79387 0.0
C1607 C 0.68213 0.10753 0.76361 0.0
H1608 H 0.72114 0.18303 0.81756 0.0
C1609 C 0.6859 0.12133 0.733 0.0
H1610 H 0.69179 0.12135 0.81797 0.0
C1611 C 0.70304 0.15732 0.73274 0.0
C1612 C 0.71671 0.1798 0.76306 0.0
H1613 H 0.6766 0.10403 0.70924 0.0
H1614 H 0.70632 0.16714 0.70887 0.0
C1615 C 0.71162 0.1663 0.79359 0.0
loop_
_geom_bond_atom_site_label_1
_geom_bond_atom_site_label_2
_geom_bond_distance
_geom_bond_site_symmetry_2
_ccdc_geom_bond_type
Mg0 O1 2.028 . S
Mg0 O7 1.986 . S
Mg0 O9 2.114 . S
Mg0 O10 2.251 1_455 S
Mg0 O13 2.010 . S
O1 Mg0 2.028 . S
O1 C4 1.250 . S
O2 Mg3 2.028 1_455 S
O2 C4 1.248 . S
Mg3 O2 2.028 1_655 S
Mg3 O8 2.032 . S
Mg3 O10 2.079 . S
C4 O1 1.250 . S
C4 O2 1.248 . S
C5 O6 1.264 . S
C5 O13 1.249 . S
O6 C5 1.264 . S
O7 Mg0 1.986 . S
O7 C11 1.246 . S
O8 Mg3 2.032 . S
O8 C11 1.259 1_655 S
O9 Mg0 2.114 . S
O9 C12 1.251 1_455 S
O10 Mg0 2.251 1_655 S
O10 Mg3 2.079 . S
O10 C12 1.273 . S
C11 O7 1.246 . S
C11 O8 1.259 1_455 S
C12 O9 1.251 1_655 S
C12 O10 1.273 . S
O13 Mg0 2.010 . S
O13 C5 1.249 . S
Mg14 O15 2.028 . S
Mg14 O21 1.986 . S
Mg14 O23 2.114 1_455 S
Mg14 O24 2.251 1_455 S
Mg14 O27 2.010 . S
O15 Mg14 2.028 . S
O15 C18 1.250 1_455 S
O16 Mg17 2.028 . S
O16 C18 1.248 . S
Mg17 O16 2.028 . S
Mg17 O22 2.032 . S
Mg17 O24 2.079 . S
C18 O15 1.250 1_655 S
C18 O16 1.248 . S
C19 O20 1.264 . S
C19 O27 1.249 . S
O20 C19 1.264 . S
O21 Mg14 1.986 . S
O21 C25 1.246 . S
O22 Mg17 2.032 . S
O22 C25 1.259 1_655 S
O23 Mg14 2.114 1_655 S
O23 C26 1.252 . S
O24 Mg14 2.251 1_655 S
O24 Mg17 2.079 . S
O24 C26 1.273 . S
C25 O21 1.246 . S
C25 O22 1.259 1_455 S
C26 O23 1.252 . S
C26 O24 1.273 . S
O27 Mg14 2.010 . S
O27 C19 1.249 . S
Mg28 O29 2.028 . S
Mg28 O35 1.986 . S
Mg28 O37 2.114 . S
Mg28 O38 2.251 . S
Mg28 O41 2.010 . S
O29 Mg28 2.028 . S
O29 C32 1.250 . S
O30 Mg31 2.028 . S
O30 C32 1.248 . S
Mg31 O30 2.028 . S
Mg31 O36 2.032 . S
Mg31 O38 2.079 . S
C32 O29 1.250 . S
C32 O30 1.248 . S
C33 O34 1.264 . S
C33 O41 1.249 . S
O34 C33 1.264 . S
O35 Mg28 1.986 . S
O35 C39 1.246 . S
O36 Mg31 2.032 . S
O36 C39 1.259 . S
O37 Mg28 2.114 . S
O37 C40 1.252 . S
O38 Mg28 2.251 . S
O38 Mg31 2.079 . S
O38 C40 1.273 . S
C39 O35 1.246 . S
C39 O36 1.259 . S
C40 O37 1.252 . S
C40 O38 1.273 . S
O41 Mg28 2.010 . S
O41 C33 1.249 . S
Mg42 O43 2.028 . S
Mg42 O49 1.986 . S
Mg42 O51 2.114 . S
Mg42 O52 2.251 . S
Mg42 O55 2.010 . S
O43 Mg42 2.028 . S
O43 C46 1.250 . S
O44 Mg45 2.028 . S
O44 C46 1.248 . S
Mg45 O44 2.028 . S
Mg45 O50 2.032 . S
Mg45 O52 2.079 . S
C46 O43 1.250 . S
C46 O44 1.248 . S
C47 O48 1.264 . S
C47 O55 1.249 . S
O48 C47 1.264 . S
O49 Mg42 1.986 . S
O49 C53 1.246 . S
O50 Mg45 2.032 . S
O50 C53 1.259 . S
O51 Mg42 2.114 . S
O51 C54 1.252 . S
O52 Mg42 2.251 . S
O52 Mg45 2.079 . S
O52 C54 1.273 . S
C53 O49 1.246 . S
C53 O50 1.259 . S
C54 O51 1.252 . S
C54 O52 1.273 . S
O55 Mg42 2.010 . S
O55 C47 1.249 . S
Mg56 O57 2.028 . S
Mg56 O63 1.986 . S
Mg56 O65 2.114 . S
Mg56 O66 2.251 1_455 S
Mg56 O69 2.010 . S
O57 Mg56 2.028 . S
O57 C60 1.250 . S
O58 Mg59 2.028 . S
O58 C60 1.248 1_655 S
Mg59 O58 2.028 . S
Mg59 O64 2.032 1_655 S
Mg59 O66 2.079 . S
C60 O57 1.250 . S
C60 O58 1.248 1_455 S
C61 O62 1.264 . S
C61 O69 1.249 . S
O62 C61 1.264 . S
O63 Mg56 1.986 . S
O63 C67 1.246 . S
O64 Mg59 2.032 1_455 S
O64 C67 1.259 . S
O65 Mg56 2.114 . S
O65 C68 1.252 1_455 S
O66 Mg56 2.251 1_655 S
O66 Mg59 2.079 . S
O66 C68 1.273 . S
C67 O63 1.246 . S
C67 O64 1.259 . S
C68 O65 1.252 1_655 S
C68 O66 1.273 . S
O69 Mg56 2.010 . S
O69 C61 1.249 . S
Mg70 O71 2.028 . S
Mg70 O77 1.986 . S
Mg70 O79 2.114 . S
Mg70 O80 2.251 . S
Mg70 O83 2.010 . S
O71 Mg70 2.028 . S
O71 C74 1.250 . S
O72 Mg73 2.028 . S
O72 C74 1.248 . S
Mg73 O72 2.028 . S
Mg73 O78 2.032 . S
Mg73 O80 2.079 . S
C74 O71 1.250 . S
C74 O72 1.248 . S
C75 O76 1.264 . S
C75 O83 1.249 . S
O76 C75 1.264 . S
O77 Mg70 1.986 . S
O77 C81 1.246 . S
O78 Mg73 2.032 . S
O78 C81 1.259 . S
O79 Mg70 2.114 . S
O79 C82 1.252 . S
O80 Mg70 2.251 . S
O80 Mg73 2.079 . S
O80 C82 1.273 . S
C81 O77 1.246 . S
C81 O78 1.259 . S
C82 O79 1.252 . S
C82 O80 1.273 . S
O83 Mg70 2.010 . S
O83 C75 1.249 . S
Mg84 O85 2.028 . S
Mg84 O91 1.986 . S
Mg84 O93 2.114 . S
Mg84 O94 2.251 . S
Mg84 O97 2.010 . S
O85 Mg84 2.028 . S
O85 C88 1.250 . S
O86 Mg87 2.028 . S
O86 C88 1.248 . S
Mg87 O86 2.028 . S
Mg87 O92 2.032 . S
Mg87 O94 2.079 . S
C88 O85 1.250 . S
C88 O86 1.248 . S
C89 O90 1.264 . S
C89 O97 1.249 . S
O90 C89 1.264 . S
O91 Mg84 1.986 . S
O91 C95 1.246 . S
O92 Mg87 2.032 . S
O92 C95 1.259 . S
O93 Mg84 2.114 . S
O93 C96 1.252 . S
O94 Mg84 2.251 . S
O94 Mg87 2.079 . S
O94 C96 1.273 . S
C95 O91 1.246 . S
C95 O92 1.259 . S
C96 O93 1.252 . S
C96 O94 1.273 . S
O97 Mg84 2.010 . S
O97 C89 1.249 . S
Mg98 O99 2.026 1_655 S
Mg98 O105 1.978 1_655 S
Mg98 O107 2.133 . S
Mg98 O108 2.284 . S
Mg98 O111 1.981 1_655 S
O99 Mg98 2.026 1_455 S
O99 C102 1.252 1_455 S
O100 Mg101 2.028 . S
O100 C102 1.246 . S
Mg101 O100 2.028 . S
Mg101 O106 2.032 . S
Mg101 O108 2.079 . S
C102 O99 1.252 1_655 S
C102 O100 1.246 . S
C103 O104 1.264 . S
C103 O111 1.249 . S
O104 C103 1.264 . S
O105 Mg98 1.978 1_455 S
O105 C109 1.246 1_455 S
O106 Mg101 2.032 . S
O106 C109 1.259 . S
O107 Mg98 2.133 . S
O107 C110 1.252 . S
O108 Mg98 2.284 . S
O108 Mg101 2.079 . S
O108 C110 1.273 . S
C109 O105 1.246 1_655 S
C109 O106 1.259 . S
C110 O107 1.252 . S
C110 O108 1.273 . S
O111 Mg98 1.981 1_455 S
O111 C103 1.249 . S
Mg112 O113 2.028 1_545 S
Mg112 O119 1.986 . S
Mg112 O121 2.114 . S
Mg112 O122 2.251 . S
Mg112 O125 2.010 . S
O113 Mg112 2.028 1_565 S
O113 C116 1.250 . S
O114 Mg115 2.028 1_565 S
O114 C116 1.248 . S
Mg115 O114 2.028 1_545 S
Mg115 O120 2.032 . S
Mg115 O122 2.079 . S
C116 O113 1.250 . S
C116 O114 1.248 . S
C117 O118 1.264 . S
C117 O125 1.249 . S
O118 C117 1.264 . S
O119 Mg112 1.986 . S
O119 C123 1.246 . S
O120 Mg115 2.032 . S
O120 C123 1.259 . S
O121 Mg112 2.114 . S
O121 C124 1.252 . S
O122 Mg112 2.251 . S
O122 Mg115 2.079 . S
O122 C124 1.273 . S
C123 O119 1.246 . S
C123 O120 1.259 . S
C124 O121 1.252 . S
C124 O122 1.273 . S
O125 Mg112 2.010 . S
O125 C117 1.249 . S
Mg126 O127 2.028 . S
Mg126 O133 1.986 . S
Mg126 O135 2.114 . S
Mg126 O136 2.251 . S
Mg126 O139 2.010 . S
O127 Mg126 2.028 . S
O127 C130 1.250 . S
O128 Mg129 2.028 . S
O128 C130 1.248 . S
Mg129 O128 2.028 . S
Mg129 O134 2.032 . S
Mg129 O136 2.079 . S
C130 O127 1.250 . S
C130 O128 1.248 . S
C131 O132 1.264 . S
C131 O139 1.249 . S
O132 C131 1.264 . S
O133 Mg126 1.986 . S
O133 C137 1.246 . S
O134 Mg129 2.032 . S
O134 C137 1.259 . S
O135 Mg126 2.114 . S
O135 C138 1.252 . S
O136 Mg126 2.251 . S
O136 Mg129 2.079 . S
O136 C138 1.273 . S
C137 O133 1.246 . S
C137 O134 1.259 . S
C138 O135 1.252 . S
C138 O136 1.273 . S
O139 Mg126 2.010 . S
O139 C131 1.249 . S
Mg140 O141 2.028 1_565 S
Mg140 O147 1.986 . S
Mg140 O149 2.114 1_565 S
Mg140 O150 2.251 . S
Mg140 O153 2.010 . S
O141 Mg140 2.028 1_545 S
O141 C144 1.250 . S
O142 Mg143 2.028 . S
O142 C144 1.248 . S
Mg143 O142 2.028 . S
Mg143 O148 2.032 1_545 S
Mg143 O150 2.079 1_545 S
C144 O141 1.250 . S
C144 O142 1.248 . S
C145 O146 1.264 . S
C145 O153 1.249 . S
O146 C145 1.264 . S
O147 Mg140 1.986 . S
O147 C151 1.246 . S
O148 Mg143 2.032 1_565 S
O148 C151 1.259 . S
O149 Mg140 2.114 1_545 S
O149 C152 1.252 . S
O150 Mg140 2.251 . S
O150 Mg143 2.079 1_565 S
O150 C152 1.273 1_565 S
C151 O147 1.246 . S
C151 O148 1.259 . S
C152 O149 1.252 . S
C152 O150 1.273 1_545 S
O153 Mg140 2.010 . S
O153 C145 1.249 . S
Mg154 O155 2.028 1_554 S
Mg154 O161 1.986 . S
Mg154 O163 2.114 . S
Mg154 O164 2.251 . S
Mg154 O167 2.010 . S
O155 Mg154 2.028 1_556 S
O155 C158 1.250 . S
O156 Mg157 2.028 1_556 S
O156 C158 1.248 . S
Mg157 O156 2.028 1_554 S
Mg157 O162 2.032 . S
Mg157 O164 2.079 . S
C158 O155 1.250 . S
C158 O156 1.248 . S
C159 O160 1.264 . S
C159 O167 1.249 . S
O160 C159 1.264 . S
O161 Mg154 1.986 . S
O161 C165 1.246 . S
O162 Mg157 2.032 . S
O162 C165 1.259 . S
O163 Mg154 2.114 . S
O163 C166 1.252 . S
O164 Mg154 2.251 . S
O164 Mg157 2.079 . S
O164 C166 1.273 . S
C165 O161 1.246 . S
C165 O162 1.259 . S
C166 O163 1.252 . S
C166 O164 1.273 . S
O167 Mg154 2.010 . S
O167 C159 1.249 . S
Mg168 O169 2.028 1_554 S
Mg168 O175 1.986 . S
Mg168 O177 2.114 . S
Mg168 O178 2.251 . S
Mg168 O181 2.010 . S
O169 Mg168 2.028 1_556 S
O169 C172 1.250 . S
O170 Mg171 2.028 1_556 S
O170 C172 1.248 . S
Mg171 O170 2.028 1_554 S
Mg171 O176 2.032 . S
Mg171 O178 2.079 . S
C172 O169 1.250 . S
C172 O170 1.248 . S
C173 O174 1.264 . S
C173 O181 1.249 . S
O174 C173 1.264 . S
O175 Mg168 1.986 . S
O175 C179 1.246 . S
O176 Mg171 2.032 . S
O176 C179 1.259 . S
O177 Mg168 2.114 . S
O177 C180 1.252 . S
O178 Mg168 2.251 . S
O178 Mg171 2.079 . S
O178 C180 1.273 . S
C179 O175 1.246 . S
C179 O176 1.259 . S
C180 O177 1.252 . S
C180 O178 1.273 . S
O181 Mg168 2.010 . S
O181 C173 1.249 . S
Mg182 O183 2.028 1_556 S
Mg182 O189 1.986 . S
Mg182 O191 2.114 1_556 S
Mg182 O192 2.251 . S
Mg182 O195 2.010 . S
O183 Mg182 2.028 1_554 S
O183 C186 1.250 . S
O184 Mg185 2.028 . S
O184 C186 1.248 . S
Mg185 O184 2.028 . S
Mg185 O190 2.032 1_554 S
Mg185 O192 2.079 1_554 S
C186 O183 1.250 . S
C186 O184 1.248 . S
C187 O188 1.264 . S
C187 O195 1.249 . S
O188 C187 1.264 . S
O189 Mg182 1.986 . S
O189 C193 1.246 . S
O190 Mg185 2.032 1_556 S
O190 C193 1.259 . S
O191 Mg182 2.114 1_554 S
O191 C194 1.252 . S
O192 Mg182 2.251 . S
O192 Mg185 2.079 1_556 S
O192 C194 1.273 1_556 S
C193 O189 1.246 . S
C193 O190 1.259 . S
C194 O191 1.252 . S
C194 O192 1.273 1_554 S
O195 Mg182 2.010 . S
O195 C187 1.249 . S
Mg196 O197 2.028 . S
Mg196 O203 1.986 . S
Mg196 O205 2.114 . S
Mg196 O206 2.251 . S
Mg196 O209 2.010 . S
O197 Mg196 2.028 . S
O197 C200 1.250 . S
O198 Mg199 2.028 . S
O198 C200 1.248 . S
Mg199 O198 2.028 . S
Mg199 O204 2.032 . S
Mg199 O206 2.079 . S
C200 O197 1.250 . S
C200 O198 1.248 . S
C201 O202 1.264 . S
C201 O209 1.249 . S
O202 C201 1.264 . S
O203 Mg196 1.986 . S
O203 C207 1.246 . S
O204 Mg199 2.032 . S
O204 C207 1.259 . S
O205 Mg196 2.114 . S
O205 C208 1.252 . S
O206 Mg196 2.251 . S
O206 Mg199 2.079 . S
O206 C208 1.273 . S
C207 O203 1.246 . S
C207 O204 1.259 . S
C208 O205 1.252 . S
C208 O206 1.273 . S
O209 Mg196 2.010 . S
O209 C201 1.249 . S
Mg210 O211 2.028 . S
Mg210 O217 1.986 . S
Mg210 O219 2.114 . S
Mg210 O220 2.251 . S
Mg210 O223 2.010 . S
O211 Mg210 2.028 . S
O211 C214 1.250 . S
O212 Mg213 2.028 . S
O212 C214 1.248 . S
Mg213 O212 2.028 . S
Mg213 O218 2.032 . S
Mg213 O220 2.079 . S
C214 O211 1.250 . S
C214 O212 1.248 . S
C215 O216 1.264 . S
C215 O223 1.249 . S
O216 C215 1.264 . S
O217 Mg210 1.986 . S
O217 C221 1.246 . S
O218 Mg213 2.032 . S
O218 C221 1.259 . S
O219 Mg210 2.114 . S
O219 C222 1.252 . S
O220 Mg210 2.251 . S
O220 Mg213 2.079 . S
O220 C222 1.273 . S
C221 O217 1.246 . S
C221 O218 1.259 . S
C222 O219 1.252 . S
C222 O220 1.273 . S
O223 Mg210 2.010 . S
O223 C215 1.249 . S
Mg224 O225 2.028 . S
Mg224 O231 1.986 . S
Mg224 O233 2.114 . S
Mg224 O234 2.251 . S
Mg224 O237 2.010 . S
O225 Mg224 2.028 . S
O225 C228 1.250 1_545 S
O226 Mg227 2.028 1_565 S
O226 C228 1.248 . S
Mg227 O226 2.028 1_545 S
Mg227 O232 2.032 . S
Mg227 O234 2.079 . S
C228 O225 1.250 1_565 S
C228 O226 1.248 . S
C229 O230 1.264 . S
C229 O237 1.249 . S
O230 C229 1.264 . S
O231 Mg224 1.986 . S
O231 C235 1.246 . S
O232 Mg227 2.032 . S
O232 C235 1.259 . S
O233 Mg224 2.114 . S
O233 C236 1.252 . S
O234 Mg224 2.251 . S
O234 Mg227 2.079 . S
O234 C236 1.273 . S
C235 O231 1.246 . S
C235 O232 1.259 . S
C236 O233 1.252 . S
C236 O234 1.273 . S
O237 Mg224 2.010 . S
O237 C229 1.249 . S
Mg238 O239 2.028 . S
Mg238 O245 1.986 . S
Mg238 O247 2.114 . S
Mg238 O248 2.251 . S
Mg238 O251 2.010 . S
O239 Mg238 2.028 . S
O239 C242 1.250 . S
O240 Mg241 2.028 . S
O240 C242 1.248 . S
Mg241 O240 2.028 . S
Mg241 O246 2.032 . S
Mg241 O248 2.079 . S
C242 O239 1.250 . S
C242 O240 1.248 . S
C243 O244 1.264 . S
C243 O251 1.249 . S
O244 C243 1.264 . S
O245 Mg238 1.986 . S
O245 C249 1.246 . S
O246 Mg241 2.032 . S
O246 C249 1.259 . S
O247 Mg238 2.114 . S
O247 C250 1.252 . S
O248 Mg238 2.251 . S
O248 Mg241 2.079 . S
O248 C250 1.273 . S
C249 O245 1.246 . S
C249 O246 1.259 . S
C250 O247 1.252 . S
C250 O248 1.273 . S
O251 Mg238 2.010 . S
O251 C243 1.249 . S
Mg252 O253 2.028 . S
Mg252 O259 1.986 . S
Mg252 O261 2.114 . S
Mg252 O262 2.251 . S
Mg252 O265 2.010 . S
O253 Mg252 2.028 . S
O253 C256 1.250 . S
O254 Mg255 2.028 . S
O254 C256 1.248 . S
Mg255 O254 2.028 . S
Mg255 O260 2.032 . S
Mg255 O262 2.079 . S
C256 O253 1.250 . S
C256 O254 1.248 . S
C257 O258 1.264 . S
C257 O265 1.249 . S
O258 C257 1.264 . S
O259 Mg252 1.986 . S
O259 C263 1.246 . S
O260 Mg255 2.032 . S
O260 C263 1.259 . S
O261 Mg252 2.114 . S
O261 C264 1.252 . S
O262 Mg252 2.251 . S
O262 Mg255 2.079 . S
O262 C264 1.273 . S
C263 O259 1.246 . S
C263 O260 1.259 . S
C264 O261 1.252 . S
C264 O262 1.273 . S
O265 Mg252 2.010 . S
O265 C257 1.249 . S
Mg266 O267 2.028 . S
Mg266 O273 1.986 1_545 S
Mg266 O275 2.114 . S
Mg266 O276 2.251 . S
Mg266 O279 2.010 . S
O267 Mg266 2.028 . S
O267 C270 1.250 . S
O268 Mg269 2.028 . S
O268 C270 1.248 . S
Mg269 O268 2.028 . S
Mg269 O274 2.032 1_545 S
Mg269 O276 2.079 . S
C270 O267 1.250 . S
C270 O268 1.248 . S
C271 O272 1.264 1_545 S
C271 O279 1.249 . S
O272 C271 1.264 1_565 S
O273 Mg266 1.986 1_565 S
O273 C277 1.246 . S
O274 Mg269 2.032 1_565 S
O274 C277 1.259 . S
O275 Mg266 2.114 . S
O275 C278 1.252 . S
O276 Mg266 2.251 . S
O276 Mg269 2.079 . S
O276 C278 1.273 . S
C277 O273 1.246 . S
C277 O274 1.259 . S
C278 O275 1.252 . S
C278 O276 1.273 . S
O279 Mg266 2.010 . S
O279 C271 1.249 . S
Mg280 O281 2.028 1_556 S
Mg280 O287 1.986 . S
Mg280 O289 2.114 1_556 S
Mg280 O290 2.251 1_556 S
Mg280 O293 2.010 . S
O281 Mg280 2.028 1_554 S
O281 C284 1.250 . S
O282 Mg283 2.028 . S
O282 C284 1.248 . S
Mg283 O282 2.028 . S
Mg283 O288 2.032 1_554 S
Mg283 O290 2.080 . S
C284 O281 1.250 . S
C284 O282 1.248 . S
C285 O286 1.264 . S
C285 O293 1.249 . S
O286 C285 1.264 . S
O287 Mg280 1.986 . S
O287 C291 1.246 . S
O288 Mg283 2.032 1_556 S
O288 C291 1.259 . S
O289 Mg280 2.114 1_554 S
O289 C292 1.252 . S
O290 Mg280 2.251 1_554 S
O290 Mg283 2.080 . S
O290 C292 1.279 . S
C291 O287 1.246 . S
C291 O288 1.259 . S
C292 O289 1.252 . S
C292 O290 1.279 . S
O293 Mg280 2.010 . S
O293 C285 1.249 . S
Mg294 O295 2.028 . S
Mg294 O301 1.986 . S
Mg294 O303 2.114 . S
Mg294 O304 2.251 . S
Mg294 O307 2.010 . S
O295 Mg294 2.028 . S
O295 C298 1.250 . S
O296 Mg297 2.028 . S
O296 C298 1.248 . S
Mg297 O296 2.028 . S
Mg297 O302 2.032 . S
Mg297 O304 2.079 . S
C298 O295 1.250 . S
C298 O296 1.248 . S
C299 O300 1.264 . S
C299 O307 1.249 . S
O300 C299 1.264 . S
O301 Mg294 1.986 . S
O301 C305 1.246 . S
O302 Mg297 2.032 . S
O302 C305 1.259 . S
O303 Mg294 2.114 . S
O303 C306 1.252 . S
O304 Mg294 2.251 . S
O304 Mg297 2.079 . S
O304 C306 1.273 . S
C305 O301 1.246 . S
C305 O302 1.259 . S
C306 O303 1.252 . S
C306 O304 1.273 . S
O307 Mg294 2.010 . S
O307 C299 1.249 . S
Mg308 O309 2.028 . S
Mg308 O315 1.986 . S
Mg308 O317 2.114 . S
Mg308 O318 2.251 . S
Mg308 O321 2.010 . S
O309 Mg308 2.028 . S
O309 C312 1.250 . S
O310 Mg311 2.028 . S
O310 C312 1.248 . S
Mg311 O310 2.028 . S
Mg311 O316 2.032 . S
Mg311 O318 2.079 . S
C312 O309 1.250 . S
C312 O310 1.248 . S
C313 O314 1.264 . S
C313 O321 1.249 . S
O314 C313 1.264 . S
O315 Mg308 1.986 . S
O315 C319 1.246 . S
O316 Mg311 2.032 . S
O316 C319 1.259 . S
O317 Mg308 2.114 . S
O317 C320 1.252 . S
O318 Mg308 2.251 . S
O318 Mg311 2.079 . S
O318 C320 1.273 . S
C319 O315 1.246 . S
C319 O316 1.259 . S
C320 O317 1.252 . S
C320 O318 1.273 . S
O321 Mg308 2.010 . S
O321 C313 1.249 . S
Mg322 O323 2.028 . S
Mg322 O329 1.986 . S
Mg322 O331 2.114 . S
Mg322 O332 2.251 . S
Mg322 O335 2.010 . S
O323 Mg322 2.028 . S
O323 C326 1.250 . S
O324 Mg325 2.028 . S
O324 C326 1.248 . S
Mg325 O324 2.028 . S
Mg325 O330 2.032 . S
Mg325 O332 2.079 . S
C326 O323 1.250 . S
C326 O324 1.248 . S
C327 O328 1.264 . S
C327 O335 1.249 . S
O328 C327 1.264 . S
O329 Mg322 1.986 . S
O329 C333 1.246 . S
O330 Mg325 2.032 . S
O330 C333 1.259 . S
O331 Mg322 2.114 . S
O331 C334 1.252 . S
O332 Mg322 2.251 . S
O332 Mg325 2.079 . S
O332 C334 1.273 . S
C333 O329 1.246 . S
C333 O330 1.259 . S
C334 O331 1.252 . S
C334 O332 1.273 . S
O335 Mg322 2.010 . S
O335 C327 1.249 . S
Dy336 O340 2.413 . S
Dy336 O341 2.515 1_556 S
Dy336 O342 2.400 1_545 S
Dy336 O343 2.660 1_655 S
Dy336 O347 2.355 . S
Dy336 O351 2.332 1_556 S
Dy336 O352 2.322 1_546 S
C337 O348 1.185 . S
C337 O349 1.355 1_545 S
C338 O340 1.185 . S
C338 O341 1.355 1_556 S
Dy339 O343 2.310 1_554 S
Dy339 O346 2.351 . S
Dy339 O348 2.398 . S
Dy339 O349 2.491 1_545 S
Dy339 O350 2.403 . S
Dy339 O351 2.629 1_455 S
Dy339 O353 2.326 1_545 S
O340 Dy336 2.413 . S
O340 C338 1.185 . S
O341 Dy336 2.515 1_554 S
O341 C338 1.355 1_554 S
O342 Dy336 2.400 1_565 S
O342 C344 1.254 1_655 S
O343 Dy336 2.660 1_455 S
O343 Dy339 2.310 1_556 S
O343 C344 1.268 1_545 S
C344 O342 1.254 1_455 S
C344 O343 1.268 1_565 S
C345 O350 1.254 . S
C345 O351 1.261 1_455 S
O346 Dy339 2.351 . S
O346 C354 1.249 1_554 S
O347 Dy336 2.355 . S
O347 C354 1.267 1_655 S
O348 C337 1.185 . S
O348 Dy339 2.398 . S
O349 C337 1.355 1_565 S
O349 Dy339 2.491 1_565 S
O350 Dy339 2.403 . S
O350 C345 1.254 . S
O351 Dy336 2.332 1_554 S
O351 Dy339 2.629 1_655 S
O351 C345 1.261 1_655 S
O352 Dy336 2.322 1_564 S
O352 C355 1.249 1_655 S
O353 Dy339 2.326 1_565 S
O353 C355 1.267 . S
C354 O346 1.249 1_556 S
C354 O347 1.267 1_455 S
C355 O352 1.249 1_455 S
C355 O353 1.267 . S
Dy356 O360 2.398 . S
Dy356 O361 2.491 . S
Dy356 O362 2.403 . S
Dy356 O363 2.664 . S
Dy356 O367 2.326 . S
Dy356 O371 2.310 . S
Dy356 O372 2.351 . S
C357 O368 1.185 . S
C357 O369 1.355 . S
C358 O360 1.185 . S
C358 O361 1.355 . S
Dy359 O363 2.310 . S
Dy359 O366 2.351 . S
Dy359 O368 2.398 . S
Dy359 O369 2.491 . S
Dy359 O370 2.403 . S
Dy359 O371 2.664 . S
Dy359 O373 2.326 . S
O360 Dy356 2.398 . S
O360 C358 1.185 . S
O361 Dy356 2.491 . S
O361 C358 1.355 . S
O362 Dy356 2.403 . S
O362 C364 1.254 . S
O363 Dy356 2.664 . S
O363 Dy359 2.310 . S
O363 C364 1.268 . S
C364 O362 1.254 . S
C364 O363 1.268 . S
C365 O370 1.254 . S
C365 O371 1.268 . S
O366 Dy359 2.351 . S
O366 C374 1.249 . S
O367 Dy356 2.326 . S
O367 C374 1.267 . S
O368 C357 1.185 . S
O368 Dy359 2.398 . S
O369 C357 1.355 . S
O369 Dy359 2.491 . S
O370 Dy359 2.403 . S
O370 C365 1.254 . S
O371 Dy356 2.310 . S
O371 Dy359 2.664 . S
O371 C365 1.268 . S
O372 Dy356 2.351 . S
O372 C375 1.249 . S
O373 Dy359 2.326 . S
O373 C375 1.267 . S
C374 O366 1.249 . S
C374 O367 1.267 . S
C375 O372 1.249 . S
C375 O373 1.267 . S
Dy376 O380 2.398 . S
Dy376 O381 2.491 1_545 S
Dy376 O382 2.403 . S
Dy376 O383 2.664 . S
Dy376 O387 2.326 1_545 S
Dy376 O391 2.310 . S
Dy376 O392 2.351 . S
C377 O388 1.185 . S
C377 O389 1.355 . S
C378 O380 1.185 1_565 S
C378 O381 1.355 . S
Dy379 O383 2.310 . S
Dy379 O386 2.351 1_545 S
Dy379 O388 2.398 . S
Dy379 O389 2.491 . S
Dy379 O390 2.403 . S
Dy379 O391 2.664 . S
Dy379 O393 2.326 . S
O380 Dy376 2.398 . S
O380 C378 1.185 1_545 S
O381 Dy376 2.491 1_565 S
O381 C378 1.355 . S
O382 Dy376 2.403 . S
O382 C384 1.254 . S
O383 Dy376 2.664 . S
O383 Dy379 2.310 . S
O383 C384 1.268 . S
C384 O382 1.254 . S
C384 O383 1.268 . S
C385 O390 1.254 . S
C385 O391 1.268 . S
O386 Dy379 2.351 1_565 S
O386 C394 1.249 . S
O387 Dy376 2.326 1_565 S
O387 C394 1.267 . S
O388 C377 1.185 . S
O388 Dy379 2.398 . S
O389 C377 1.355 . S
O389 Dy379 2.491 . S
O390 Dy379 2.403 . S
O390 C385 1.254 . S
O391 Dy376 2.310 . S
O391 Dy379 2.664 . S
O391 C385 1.268 . S
O392 Dy376 2.351 . S
O392 C395 1.249 . S
O393 Dy379 2.326 . S
O393 C395 1.267 . S
C394 O386 1.249 . S
C394 O387 1.267 . S
C395 O392 1.249 . S
C395 O393 1.267 . S
Dy396 O400 2.398 . S
Dy396 O401 2.491 . S
Dy396 O402 2.403 . S
Dy396 O403 2.664 . S
Dy396 O407 2.326 . S
Dy396 O411 2.310 . S
Dy396 O412 2.351 . S
C397 O408 1.185 . S
C397 O409 1.355 . S
C398 O400 1.185 . S
C398 O401 1.355 . S
Dy399 O403 2.310 . S
Dy399 O406 2.351 . S
Dy399 O408 2.398 . S
Dy399 O409 2.491 . S
Dy399 O410 2.403 . S
Dy399 O411 2.664 . S
Dy399 O413 2.326 . S
O400 Dy396 2.398 . S
O400 C398 1.185 . S
O401 Dy396 2.491 . S
O401 C398 1.355 . S
O402 Dy396 2.403 . S
O402 C404 1.254 . S
O403 Dy396 2.664 . S
O403 Dy399 2.310 . S
O403 C404 1.268 . S
C404 O402 1.254 . S
C404 O403 1.268 . S
C405 O410 1.254 . S
C405 O411 1.268 . S
O406 Dy399 2.351 . S
O406 C414 1.249 . S
O407 Dy396 2.326 . S
O407 C414 1.267 . S
O408 C397 1.185 . S
O408 Dy399 2.398 . S
O409 C397 1.355 . S
O409 Dy399 2.491 . S
O410 Dy399 2.403 . S
O410 C405 1.254 . S
O411 Dy396 2.310 . S
O411 Dy399 2.664 . S
O411 C405 1.268 . S
O412 Dy396 2.351 . S
O412 C415 1.249 . S
O413 Dy399 2.326 . S
O413 C415 1.267 . S
C414 O406 1.249 . S
C414 O407 1.267 . S
C415 O412 1.249 . S
C415 O413 1.267 . S
Dy416 O420 2.398 1_565 S
Dy416 O421 2.491 1_465 S
Dy416 O422 2.403 1_565 S
Dy416 O423 2.664 1_565 S
Dy416 O427 2.326 1_565 S
Dy416 O431 2.310 1_465 S
Dy416 O432 2.351 . S
C417 O428 1.185 . S
C417 O429 1.355 . S
C418 O420 1.185 1_655 S
C418 O421 1.355 . S
Dy419 O423 2.310 . S
Dy419 O426 2.351 . S
Dy419 O428 2.398 . S
Dy419 O429 2.491 . S
Dy419 O430 2.403 1_455 S
Dy419 O431 2.664 1_455 S
Dy419 O433 2.326 1_545 S
O420 Dy416 2.398 1_545 S
O420 C418 1.185 1_455 S
O421 Dy416 2.491 1_645 S
O421 C418 1.355 . S
O422 Dy416 2.403 1_545 S
O422 C424 1.254 . S
O423 Dy416 2.664 1_545 S
O423 Dy419 2.310 . S
O423 C424 1.268 . S
C424 O422 1.254 . S
C424 O423 1.268 . S
C425 O430 1.254 . S
C425 O431 1.268 . S
O426 Dy419 2.351 . S
O426 C434 1.249 . S
O427 Dy416 2.326 1_545 S
O427 C434 1.267 . S
O428 C417 1.185 . S
O428 Dy419 2.398 . S
O429 C417 1.355 . S
O429 Dy419 2.491 . S
O430 Dy419 2.403 1_655 S
O430 C425 1.254 . S
O431 Dy416 2.310 1_645 S
O431 Dy419 2.664 1_655 S
O431 C425 1.268 . S
O432 Dy416 2.351 . S
O432 C435 1.249 . S
O433 Dy419 2.326 1_565 S
O433 C435 1.267 . S
C434 O426 1.249 . S
C434 O427 1.267 . S
C435 O432 1.249 . S
C435 O433 1.267 . S
Dy436 O440 2.398 . S
Dy436 O441 2.491 . S
Dy436 O442 2.403 . S
Dy436 O443 2.664 . S
Dy436 O447 2.326 . S
Dy436 O451 2.310 . S
Dy436 O452 2.351 . S
C437 O448 1.185 . S
C437 O449 1.355 . S
C438 O440 1.185 . S
C438 O441 1.355 . S
Dy439 O443 2.310 . S
Dy439 O446 2.351 . S
Dy439 O448 2.398 . S
Dy439 O449 2.491 . S
Dy439 O450 2.403 . S
Dy439 O451 2.664 . S
Dy439 O453 2.326 . S
O440 Dy436 2.398 . S
O440 C438 1.185 . S
O441 Dy436 2.491 . S
O441 C438 1.355 . S
O442 Dy436 2.403 . S
O442 C444 1.254 . S
O443 Dy436 2.664 . S
O443 Dy439 2.310 . S
O443 C444 1.268 . S
C444 O442 1.254 . S
C444 O443 1.268 . S
C445 O450 1.254 . S
C445 O451 1.268 . S
O446 Dy439 2.351 . S
O446 C454 1.249 . S
O447 Dy436 2.326 . S
O447 C454 1.267 . S
O448 C437 1.185 . S
O448 Dy439 2.398 . S
O449 C437 1.355 . S
O449 Dy439 2.491 . S
O450 Dy439 2.403 . S
O450 C445 1.254 . S
O451 Dy436 2.310 . S
O451 Dy439 2.664 . S
O451 C445 1.268 . S
O452 Dy436 2.351 . S
O452 C455 1.249 . S
O453 Dy439 2.326 . S
O453 C455 1.267 . S
C454 O446 1.249 . S
C454 O447 1.267 . S
C455 O452 1.249 . S
C455 O453 1.267 . S
Dy456 O460 2.398 1_545 S
Dy456 O461 2.491 . S
Dy456 O462 2.403 1_545 S
Dy456 O463 2.664 1_544 S
Dy456 O467 2.326 1_545 S
Dy456 O471 2.310 . S
Dy456 O472 2.351 . S
C457 O468 1.185 . S
C457 O469 1.355 . S
C458 O460 1.185 . S
C458 O461 1.355 1_565 S
Dy459 O463 2.310 1_545 S
Dy459 O466 2.351 . S
Dy459 O468 2.398 . S
Dy459 O469 2.491 . S
Dy459 O470 2.403 . S
Dy459 O471 2.664 1_556 S
Dy459 O473 2.326 . S
O460 Dy456 2.398 1_565 S
O460 C458 1.185 . S
O461 Dy456 2.491 . S
O461 C458 1.355 1_545 S
O462 Dy456 2.403 1_565 S
O462 C464 1.254 1_554 S
O463 Dy456 2.664 1_566 S
O463 Dy459 2.310 1_565 S
O463 C464 1.268 . S
C464 O462 1.254 1_556 S
C464 O463 1.268 . S
C465 O470 1.254 1_554 S
C465 O471 1.268 . S
O466 Dy459 2.351 . S
O466 C474 1.249 1_546 S
O467 Dy456 2.326 1_565 S
O467 C474 1.267 . S
O468 C457 1.185 . S
O468 Dy459 2.398 . S
O469 C457 1.355 . S
O469 Dy459 2.491 . S
O470 Dy459 2.403 . S
O470 C465 1.254 1_556 S
O471 Dy456 2.310 . S
O471 Dy459 2.664 1_554 S
O471 C465 1.268 . S
O472 Dy456 2.351 . S
O472 C475 1.249 . S
O473 Dy459 2.326 . S
O473 C475 1.267 1_556 S
C474 O466 1.249 1_564 S
C474 O467 1.267 . S
C475 O472 1.249 . S
C475 O473 1.267 1_554 S
Dy476 O480 2.398 . S
Dy476 O481 2.491 . S
Dy476 O482 2.403 . S
Dy476 O483 2.664 . S
Dy476 O487 2.326 . S
Dy476 O491 2.310 . S
Dy476 O492 2.351 . S
C477 O488 1.185 . S
C477 O489 1.355 . S
C478 O480 1.185 . S
C478 O481 1.355 . S
Dy479 O483 2.310 . S
Dy479 O486 2.351 . S
Dy479 O488 2.398 . S
Dy479 O489 2.491 . S
Dy479 O490 2.403 . S
Dy479 O491 2.664 . S
Dy479 O493 2.326 . S
O480 Dy476 2.398 . S
O480 C478 1.185 . S
O481 Dy476 2.491 . S
O481 C478 1.355 . S
O482 Dy476 2.403 . S
O482 C484 1.254 . S
O483 Dy476 2.664 . S
O483 Dy479 2.310 . S
O483 C484 1.268 . S
C484 O482 1.254 . S
C484 O483 1.268 . S
C485 O490 1.254 . S
C485 O491 1.268 . S
O486 Dy479 2.351 . S
O486 C494 1.249 . S
O487 Dy476 2.326 . S
O487 C494 1.267 . S
O488 C477 1.185 . S
O488 Dy479 2.398 . S
O489 C477 1.355 . S
O489 Dy479 2.491 . S
O490 Dy479 2.403 . S
O490 C485 1.254 . S
O491 Dy476 2.310 . S
O491 Dy479 2.664 . S
O491 C485 1.268 . S
O492 Dy476 2.351 . S
O492 C495 1.249 . S
O493 Dy479 2.326 . S
O493 C495 1.267 . S
C494 O486 1.249 . S
C494 O487 1.267 . S
C495 O492 1.249 . S
C495 O493 1.267 . S
Dy496 O500 2.398 . S
Dy496 O501 2.491 . S
Dy496 O502 2.403 . S
Dy496 O503 2.664 1_556 S
Dy496 O507 2.326 . S
Dy496 O511 2.310 1_556 S
Dy496 O512 2.351 . S
C497 O508 1.185 . S
C497 O509 1.355 . S
C498 O500 1.185 . S
C498 O501 1.355 . S
Dy499 O503 2.310 . S
Dy499 O506 2.351 . S
Dy499 O508 2.398 . S
Dy499 O509 2.491 . S
Dy499 O510 2.403 . S
Dy499 O511 2.664 . S
Dy499 O513 2.326 . S
O500 Dy496 2.398 . S
O500 C498 1.185 . S
O501 Dy496 2.491 . S
O501 C498 1.355 . S
O502 Dy496 2.403 . S
O502 C504 1.254 . S
O503 Dy496 2.664 1_554 S
O503 Dy499 2.310 . S
O503 C504 1.268 1_554 S
C504 O502 1.254 . S
C504 O503 1.268 1_556 S
C505 O510 1.254 . S
C505 O511 1.268 . S
O506 Dy499 2.351 . S
O506 C514 1.249 1_554 S
O507 Dy496 2.326 . S
O507 C514 1.267 . S
O508 C497 1.185 . S
O508 Dy499 2.398 . S
O509 C497 1.355 . S
O509 Dy499 2.491 . S
O510 Dy499 2.403 . S
O510 C505 1.254 . S
O511 Dy496 2.310 1_554 S
O511 Dy499 2.664 . S
O511 C505 1.268 . S
O512 Dy496 2.351 . S
O512 C515 1.249 1_556 S
O513 Dy499 2.326 . S
O513 C515 1.267 . S
C514 O506 1.249 1_556 S
C514 O507 1.267 . S
C515 O512 1.249 1_554 S
C515 O513 1.267 . S
Dy516 O520 2.398 . S
Dy516 O521 2.491 . S
Dy516 O522 2.403 . S
Dy516 O523 2.664 . S
Dy516 O527 2.326 . S
Dy516 O531 2.310 . S
Dy516 O532 2.351 . S
C517 O528 1.185 . S
C517 O529 1.355 . S
C518 O520 1.185 . S
C518 O521 1.355 . S
Dy519 O523 2.310 . S
Dy519 O526 2.351 . S
Dy519 O528 2.398 . S
Dy519 O529 2.491 . S
Dy519 O530 2.403 . S
Dy519 O531 2.664 . S
Dy519 O533 2.326 . S
O520 Dy516 2.398 . S
O520 C518 1.185 . S
O521 Dy516 2.491 . S
O521 C518 1.355 . S
O522 Dy516 2.403 . S
O522 C524 1.254 . S
O523 Dy516 2.664 . S
O523 Dy519 2.310 . S
O523 C524 1.268 . S
C524 O522 1.254 . S
C524 O523 1.268 . S
C525 O530 1.254 . S
C525 O531 1.268 . S
O526 Dy519 2.351 . S
O526 C534 1.249 . S
O527 Dy516 2.326 . S
O527 C534 1.267 . S
O528 C517 1.185 . S
O528 Dy519 2.398 . S
O529 C517 1.355 . S
O529 Dy519 2.491 . S
O530 Dy519 2.403 . S
O530 C525 1.254 . S
O531 Dy516 2.310 . S
O531 Dy519 2.664 . S
O531 C525 1.268 . S
O532 Dy516 2.351 . S
O532 C535 1.249 . S
O533 Dy519 2.326 . S
O533 C535 1.267 . S
C534 O526 1.249 . S
C534 O527 1.267 . S
C535 O532 1.249 . S
C535 O533 1.267 . S
Dy536 O540 2.398 1_455 S
Dy536 O541 2.491 1_455 S
Dy536 O542 2.403 . S
Dy536 O543 2.664 . S
Dy536 O547 2.326 1_455 S
Dy536 O551 2.310 . S
Dy536 O552 2.351 . S
C537 O548 1.185 . S
C537 O549 1.355 . S
C538 O540 1.185 . S
C538 O541 1.355 . S
Dy539 O543 2.310 . S
Dy539 O546 2.351 1_455 S
Dy539 O548 2.398 . S
Dy539 O549 2.491 . S
Dy539 O550 2.403 . S
Dy539 O551 2.664 . S
Dy539 O553 2.326 . S
O540 Dy536 2.398 1_655 S
O540 C538 1.185 . S
O541 Dy536 2.491 1_655 S
O541 C538 1.355 . S
O542 Dy536 2.403 . S
O542 C544 1.254 . S
O543 Dy536 2.664 . S
O543 Dy539 2.310 . S
O543 C544 1.268 . S
C544 O542 1.254 . S
C544 O543 1.268 . S
C545 O550 1.254 . S
C545 O551 1.268 . S
O546 Dy539 2.351 1_655 S
O546 C554 1.249 . S
O547 Dy536 2.326 1_655 S
O547 C554 1.267 . S
O548 C537 1.185 . S
O548 Dy539 2.398 . S
O549 C537 1.355 . S
O549 Dy539 2.491 . S
O550 Dy539 2.403 . S
O550 C545 1.254 . S
O551 Dy536 2.310 . S
O551 Dy539 2.664 . S
O551 C545 1.268 . S
O552 Dy536 2.351 . S
O552 C555 1.249 . S
O553 Dy539 2.326 . S
O553 C555 1.267 . S
C554 O546 1.249 . S
C554 O547 1.267 . S
C555 O552 1.249 . S
C555 O553 1.267 . S
Dy556 O560 2.398 . S
Dy556 O561 2.491 . S
Dy556 O562 2.403 . S
Dy556 O563 2.664 . S
Dy556 O567 2.326 . S
Dy556 O571 2.310 . S
Dy556 O572 2.351 . S
C557 O568 1.185 . S
C557 O569 1.355 . S
C558 O560 1.185 . S
C558 O561 1.355 . S
Dy559 O563 2.310 . S
Dy559 O566 2.351 . S
Dy559 O568 2.398 . S
Dy559 O569 2.491 . S
Dy559 O570 2.403 . S
Dy559 O571 2.664 . S
Dy559 O573 2.326 . S
O560 Dy556 2.398 . S
O560 C558 1.185 . S
O561 Dy556 2.491 . S
O561 C558 1.355 . S
O562 Dy556 2.403 . S
O562 C564 1.254 . S
O563 Dy556 2.664 . S
O563 Dy559 2.310 . S
O563 C564 1.268 . S
C564 O562 1.254 . S
C564 O563 1.268 . S
C565 O570 1.254 . S
C565 O571 1.268 . S
O566 Dy559 2.351 . S
O566 C574 1.249 . S
O567 Dy556 2.326 . S
O567 C574 1.267 . S
O568 C557 1.185 . S
O568 Dy559 2.398 . S
O569 C557 1.355 . S
O569 Dy559 2.491 . S
O570 Dy559 2.403 . S
O570 C565 1.254 . S
O571 Dy556 2.310 . S
O571 Dy559 2.664 . S
O571 C565 1.268 . S
O572 Dy556 2.351 . S
O572 C575 1.249 . S
O573 Dy559 2.326 . S
O573 C575 1.267 . S
C574 O566 1.249 . S
C574 O567 1.267 . S
C575 O572 1.249 . S
C575 O573 1.267 . S
Dy576 O580 2.398 . S
Dy576 O581 2.491 . S
Dy576 O582 2.403 . S
Dy576 O583 2.664 . S
Dy576 O587 2.326 . S
Dy576 O591 2.310 . S
Dy576 O592 2.351 . S
C577 O588 1.185 . S
C577 O589 1.355 . S
C578 O580 1.185 . S
C578 O581 1.355 . S
Dy579 O583 2.310 . S
Dy579 O586 2.351 . S
Dy579 O588 2.398 . S
Dy579 O589 2.491 . S
Dy579 O590 2.403 . S
Dy579 O591 2.664 . S
Dy579 O593 2.326 . S
O580 Dy576 2.398 . S
O580 C578 1.185 . S
O581 Dy576 2.491 . S
O581 C578 1.355 . S
O582 Dy576 2.403 . S
O582 C584 1.254 . S
O583 Dy576 2.664 . S
O583 Dy579 2.310 . S
O583 C584 1.268 . S
C584 O582 1.254 . S
C584 O583 1.268 . S
C585 O590 1.254 . S
C585 O591 1.268 . S
O586 Dy579 2.351 . S
O586 C594 1.249 . S
O587 Dy576 2.326 . S
O587 C594 1.267 . S
O588 C577 1.185 . S
O588 Dy579 2.398 . S
O589 C577 1.355 . S
O589 Dy579 2.491 . S
O590 Dy579 2.403 . S
O590 C585 1.254 . S
O591 Dy576 2.310 . S
O591 Dy579 2.664 . S
O591 C585 1.268 . S
O592 Dy576 2.351 . S
O592 C595 1.249 . S
O593 Dy579 2.326 . S
O593 C595 1.267 . S
C594 O586 1.249 . S
C594 O587 1.267 . S
C595 O592 1.249 . S
C595 O593 1.267 . S
Dy596 O600 2.398 . S
Dy596 O601 2.491 . S
Dy596 O602 2.403 . S
Dy596 O603 2.664 . S
Dy596 O607 2.326 . S
Dy596 O611 2.310 . S
Dy596 O612 2.351 . S
C597 O608 1.185 . S
C597 O609 1.355 . S
C598 O600 1.185 . S
C598 O601 1.355 . S
Dy599 O603 2.310 . S
Dy599 O606 2.351 . S
Dy599 O608 2.398 . S
Dy599 O609 2.491 . S
Dy599 O610 2.403 . S
Dy599 O611 2.664 . S
Dy599 O613 2.326 . S
O600 Dy596 2.398 . S
O600 C598 1.185 . S
O601 Dy596 2.491 . S
O601 C598 1.355 . S
O602 Dy596 2.403 . S
O602 C604 1.254 . S
O603 Dy596 2.664 . S
O603 Dy599 2.310 . S
O603 C604 1.268 . S
C604 O602 1.254 . S
C604 O603 1.268 . S
C605 O610 1.254 . S
C605 O611 1.268 . S
O606 Dy599 2.351 . S
O606 C614 1.249 . S
O607 Dy596 2.326 . S
O607 C614 1.267 . S
O608 C597 1.185 . S
O608 Dy599 2.398 . S
O609 C597 1.355 . S
O609 Dy599 2.491 . S
O610 Dy599 2.403 . S
O610 C605 1.254 . S
O611 Dy596 2.310 . S
O611 Dy599 2.664 . S
O611 C605 1.268 . S
O612 Dy596 2.351 . S
O612 C615 1.249 . S
O613 Dy599 2.326 . S
O613 C615 1.267 . S
C614 O606 1.249 . S
C614 O607 1.267 . S
C615 O612 1.249 . S
C615 O613 1.267 . S
Dy616 O620 2.398 . S
Dy616 O621 2.491 . S
Dy616 O622 2.403 . S
Dy616 O623 2.664 . S
Dy616 O627 2.326 . S
Dy616 O631 2.310 . S
Dy616 O632 2.351 . S
C617 O628 1.185 . S
C617 O629 1.355 . S
C618 O620 1.185 . S
C618 O621 1.355 . S
Dy619 O623 2.310 . S
Dy619 O626 2.351 . S
Dy619 O628 2.398 . S
Dy619 O629 2.491 . S
Dy619 O630 2.403 . S
Dy619 O631 2.664 . S
Dy619 O633 2.326 . S
O620 Dy616 2.398 . S
O620 C618 1.185 . S
O621 Dy616 2.491 . S
O621 C618 1.355 . S
O622 Dy616 2.403 . S
O622 C624 1.254 . S
O623 Dy616 2.664 . S
O623 Dy619 2.310 . S
O623 C624 1.268 . S
C624 O622 1.254 . S
C624 O623 1.268 . S
C625 O630 1.254 . S
C625 O631 1.268 . S
O626 Dy619 2.351 . S
O626 C634 1.249 . S
O627 Dy616 2.326 . S
O627 C634 1.267 . S
O628 C617 1.185 . S
O628 Dy619 2.398 . S
O629 C617 1.355 . S
O629 Dy619 2.491 . S
O630 Dy619 2.403 . S
O630 C625 1.254 . S
O631 Dy616 2.310 . S
O631 Dy619 2.664 . S
O631 C625 1.268 . S
O632 Dy616 2.351 . S
O632 C635 1.249 . S
O633 Dy619 2.326 . S
O633 C635 1.267 . S
C634 O626 1.249 . S
C634 O627 1.267 . S
C635 O632 1.249 . S
C635 O633 1.267 . S
Dy636 O640 2.398 . S
Dy636 O641 2.491 1_556 S
Dy636 O642 2.403 . S
Dy636 O643 2.671 . S
Dy636 O647 2.326 . S
Dy636 O651 2.310 1_556 S
Dy636 O652 2.351 1_556 S
C637 O648 1.185 . S
C637 O649 1.355 . S
C638 O640 1.185 . S
C638 O641 1.355 1_556 S
Dy639 O643 2.306 1_654 S
Dy639 O646 2.357 . S
Dy639 O648 2.398 . S
Dy639 O649 2.491 . S
Dy639 O650 2.403 . S
Dy639 O651 2.664 1_655 S
Dy639 O653 2.326 1_655 S
O640 Dy636 2.398 . S
O640 C638 1.185 . S
O641 Dy636 2.491 1_554 S
O641 C638 1.355 1_554 S
O642 Dy636 2.403 . S
O642 C644 1.254 . S
O643 Dy636 2.671 . S
O643 Dy639 2.306 1_456 S
O643 C644 1.270 . S
C644 O642 1.254 . S
C644 O643 1.270 . S
C645 O650 1.254 1_455 S
C645 O651 1.268 . S
O646 Dy639 2.357 . S
O646 C654 1.239 1_654 S
O647 Dy636 2.326 . S
O647 C654 1.267 . S
O648 C637 1.185 . S
O648 Dy639 2.398 . S
O649 C637 1.355 . S
O649 Dy639 2.491 . S
O650 Dy639 2.403 . S
O650 C645 1.254 1_655 S
O651 Dy636 2.310 1_554 S
O651 Dy639 2.664 1_455 S
O651 C645 1.268 . S
O652 Dy636 2.351 1_554 S
O652 C655 1.249 . S
O653 Dy639 2.326 1_455 S
O653 C655 1.267 . S
C654 O646 1.239 1_456 S
C654 O647 1.267 . S
C655 O652 1.249 . S
C655 O653 1.267 . S
C656 C657 1.387 . S
C656 H660 0.950 . S
C656 C665 1.377 1_556 S
C657 C656 1.387 . S
C657 C659 1.387 1_655 S
H658 C665 0.973 . S
C659 C657 1.387 1_455 S
C659 C661 1.390 . S
C659 H663 0.950 . S
H660 C656 0.950 . S
C661 C659 1.390 . S
C661 C662 1.387 . S
C661 H664 0.950 . S
C662 C661 1.387 . S
C662 C665 1.378 1_456 S
H663 C659 0.950 . S
H664 C661 0.950 . S
C665 C656 1.377 1_554 S
C665 H658 0.973 . S
C665 C662 1.378 1_654 S
C666 C667 1.387 . S
C666 H670 0.950 . S
C666 C675 1.390 . S
C667 C666 1.387 . S
C667 C669 1.387 . S
H668 C675 0.950 . S
C669 C667 1.387 . S
C669 C671 1.390 . S
C669 H673 0.950 . S
H670 C666 0.950 . S
C671 C669 1.390 . S
C671 C672 1.387 . S
C671 H674 0.950 . S
C672 C671 1.387 . S
C672 C675 1.387 . S
H673 C669 0.950 . S
H674 C671 0.950 . S
C675 C666 1.390 . S
C675 H668 0.950 . S
C675 C672 1.387 . S
C676 C677 1.387 . S
C676 H680 0.950 . S
C676 C685 1.390 . S
C677 C676 1.387 . S
C677 C679 1.387 . S
H678 C685 0.950 . S
C679 C677 1.387 . S
C679 C681 1.390 . S
C679 H683 0.950 . S
H680 C676 0.950 . S
C681 C679 1.390 . S
C681 C682 1.387 . S
C681 H684 0.950 . S
C682 C681 1.387 . S
C682 C685 1.387 . S
H683 C679 0.950 . S
H684 C681 0.950 . S
C685 C676 1.390 . S
C685 H678 0.950 . S
C685 C682 1.387 . S
C686 C687 1.387 . S
C686 H690 0.950 . S
C686 C695 1.390 . S
C687 C686 1.387 . S
C687 C689 1.387 . S
H688 C695 0.950 . S
C689 C687 1.387 . S
C689 C691 1.390 . S
C689 H693 0.950 . S
H690 C686 0.950 . S
C691 C689 1.390 . S
C691 C692 1.387 . S
C691 H694 0.950 . S
C692 C691 1.387 . S
C692 C695 1.387 . S
H693 C689 0.950 . S
H694 C691 0.950 . S
C695 C686 1.390 . S
C695 H688 0.950 . S
C695 C692 1.387 . S
C696 C697 1.387 1_655 S
C696 H700 0.950 . S
C696 C705 1.390 . S
C697 C696 1.387 1_455 S
C697 C699 1.387 . S
H698 C705 0.950 . S
C699 C697 1.387 . S
C699 C701 1.390 . S
C699 H703 0.950 . S
H700 C696 0.950 . S
C701 C699 1.390 . S
C701 C702 1.387 . S
C701 H704 0.950 . S
C702 C701 1.387 . S
C702 C705 1.387 1_455 S
H703 C699 0.950 . S
H704 C701 0.950 . S
C705 C696 1.390 . S
C705 H698 0.950 . S
C705 C702 1.387 1_655 S
C706 C707 1.387 . S
C706 H710 0.950 . S
C706 C715 1.390 . S
C707 C706 1.387 . S
C707 C709 1.387 . S
H708 C715 0.950 . S
C709 C707 1.387 . S
C709 C711 1.390 . S
C709 H713 0.950 . S
H710 C706 0.950 . S
C711 C709 1.390 . S
C711 C712 1.387 . S
C711 H714 0.950 . S
C712 C711 1.387 . S
C712 C715 1.387 . S
H713 C709 0.950 . S
H714 C711 0.950 . S
C715 C706 1.390 . S
C715 H708 0.950 . S
C715 C712 1.387 . S
C716 C717 1.387 . S
C716 H720 0.950 . S
C716 C725 1.390 . S
C717 C716 1.387 . S
C717 C719 1.387 . S
H718 C725 0.950 . S
C719 C717 1.387 . S
C719 C721 1.390 . S
C719 H723 0.950 . S
H720 C716 0.950 . S
C721 C719 1.390 . S
C721 C722 1.387 . S
C721 H724 0.950 . S
C722 C721 1.387 . S
C722 C725 1.387 . S
H723 C719 0.950 . S
H724 C721 0.950 . S
C725 C716 1.390 . S
C725 H718 0.950 . S
C725 C722 1.387 . S
C726 C727 1.387 . S
C726 H730 0.950 . S
C726 C735 1.390 . S
C727 C726 1.387 . S
C727 C729 1.387 . S
H728 C735 0.950 . S
C729 C727 1.387 . S
C729 C731 1.390 . S
C729 H733 0.950 . S
H730 C726 0.950 . S
C731 C729 1.390 . S
C731 C732 1.387 . S
C731 H734 0.950 . S
C732 C731 1.387 . S
C732 C735 1.387 . S
H733 C729 0.950 . S
H734 C731 0.950 . S
C735 C726 1.390 . S
C735 H728 0.950 . S
C735 C732 1.387 . S
C736 C737 1.387 . S
C736 H740 0.950 1_545 S
C736 C745 1.390 . S
C737 C736 1.387 . S
C737 C739 1.387 . S
H738 C745 0.950 1_565 S
C739 C737 1.387 . S
C739 C741 1.390 . S
C739 H743 0.950 . S
H740 C736 0.950 1_565 S
C741 C739 1.390 . S
C741 C742 1.387 . S
C741 H744 0.950 . S
C742 C741 1.387 . S
C742 C745 1.387 . S
H743 C739 0.950 . S
H744 C741 0.950 . S
C745 C736 1.390 . S
C745 H738 0.950 1_545 S
C745 C742 1.387 . S
C746 C747 1.387 . S
C746 H750 0.950 . S
C746 C755 1.390 . S
C747 C746 1.387 . S
C747 C749 1.387 . S
H748 C755 0.950 . S
C749 C747 1.387 . S
C749 C751 1.390 . S
C749 H753 0.950 . S
H750 C746 0.950 . S
C751 C749 1.390 . S
C751 C752 1.387 . S
C751 H754 0.950 . S
C752 C751 1.387 . S
C752 C755 1.387 . S
H753 C749 0.950 . S
H754 C751 0.950 . S
C755 C746 1.390 . S
C755 H748 0.950 . S
C755 C752 1.387 . S
C756 C757 1.387 . S
C756 H760 0.950 . S
C756 C765 1.390 . S
C757 C756 1.387 . S
C757 C759 1.387 1_545 S
H758 C765 0.950 . S
C759 C757 1.387 1_565 S
C759 C761 1.390 . S
C759 H763 0.950 . S
H760 C756 0.950 . S
C761 C759 1.390 . S
C761 C762 1.387 1_565 S
C761 H764 0.950 . S
C762 C761 1.387 1_545 S
C762 C765 1.387 . S
H763 C759 0.950 . S
H764 C761 0.950 . S
C765 C756 1.390 . S
C765 H758 0.950 . S
C765 C762 1.387 . S
C766 C767 1.387 . S
C766 H770 0.950 . S
C766 C775 1.390 . S
C767 C766 1.387 . S
C767 C769 1.387 . S
H768 C775 0.950 . S
C769 C767 1.387 . S
C769 C771 1.390 . S
C769 H773 0.950 . S
H770 C766 0.950 . S
C771 C769 1.390 . S
C771 C772 1.387 . S
C771 H774 0.950 . S
C772 C771 1.387 . S
C772 C775 1.387 . S
H773 C769 0.950 . S
H774 C771 0.950 . S
C775 C766 1.390 . S
C775 H768 0.950 . S
C775 C772 1.387 . S
C776 C777 1.387 . S
C776 H780 0.950 . S
C776 C785 1.390 . S
C777 C776 1.387 . S
C777 C779 1.387 . S
H778 C785 0.950 . S
C779 C777 1.387 . S
C779 C781 1.390 1_545 S
C779 H783 0.950 1_545 S
H780 C776 0.950 . S
C781 C779 1.390 1_565 S
C781 C782 1.387 1_565 S
C781 H784 0.950 . S
C782 C781 1.387 1_545 S
C782 C785 1.387 . S
H783 C779 0.950 1_565 S
H784 C781 0.950 . S
C785 C776 1.390 . S
C785 H778 0.950 . S
C785 C782 1.387 . S
C786 C787 1.387 . S
C786 H790 0.950 . S
C786 C795 1.390 . S
C787 C786 1.387 . S
C787 C789 1.387 . S
H788 C795 0.950 . S
C789 C787 1.387 . S
C789 C791 1.390 . S
C789 H793 0.950 . S
H790 C786 0.950 . S
C791 C789 1.390 . S
C791 C792 1.387 . S
C791 H794 0.950 . S
C792 C791 1.387 . S
C792 C795 1.387 . S
H793 C789 0.950 . S
H794 C791 0.950 . S
C795 C786 1.390 . S
C795 H788 0.950 . S
C795 C792 1.387 . S
C796 C797 1.387 . S
C796 H800 0.950 . S
C796 C805 1.390 . S
C797 C796 1.387 . S
C797 C799 1.387 . S
H798 C805 0.950 . S
C799 C797 1.387 . S
C799 C801 1.390 . S
C799 H803 0.950 1_545 S
H800 C796 0.950 . S
C801 C799 1.390 . S
C801 C802 1.387 . S
C801 H804 0.950 . S
C802 C801 1.387 . S
C802 C805 1.387 . S
H803 C799 0.950 1_565 S
H804 C801 0.950 . S
C805 C796 1.390 . S
C805 H798 0.950 . S
C805 C802 1.387 . S
C806 C807 1.387 . S
C806 H810 0.950 . S
C806 C815 1.390 . S
C807 C806 1.387 . S
C807 C809 1.387 . S
H808 C815 0.950 . S
C809 C807 1.387 . S
C809 C811 1.390 . S
C809 H813 0.950 . S
H810 C806 0.950 . S
C811 C809 1.390 . S
C811 C812 1.387 . S
C811 H814 0.950 . S
C812 C811 1.387 . S
C812 C815 1.387 . S
H813 C809 0.950 . S
H814 C811 0.950 . S
C815 C806 1.390 . S
C815 H808 0.950 . S
C815 C812 1.387 . S
C816 C817 1.387 1_556 S
C816 H820 0.950 . S
C816 C825 1.390 1_556 S
C817 C816 1.387 1_554 S
C817 C819 1.387 . S
H818 C825 0.944 1_546 S
C819 C817 1.387 . S
C819 C821 1.390 . S
C819 H823 0.950 . S
H820 C816 0.950 . S
C821 C819 1.390 . S
C821 C822 1.387 . S
C821 H824 0.950 . S
C822 C821 1.387 . S
C822 C825 1.387 . S
H823 C819 0.950 . S
H824 C821 0.950 . S
C825 C816 1.390 1_554 S
C825 H818 0.944 1_564 S
C825 C822 1.387 . S
C826 C827 1.387 1_556 S
C826 H830 0.950 . S
C826 C835 1.390 . S
C827 C826 1.387 1_554 S
C827 C829 1.387 . S
H828 C835 0.950 . S
C829 C827 1.387 . S
C829 C831 1.390 . S
C829 H833 0.950 . S
H830 C826 0.950 . S
C831 C829 1.390 . S
C831 C832 1.387 . S
C831 H834 0.950 . S
C832 C831 1.387 . S
C832 C835 1.387 1_554 S
H833 C829 0.950 . S
H834 C831 0.950 . S
C835 C826 1.390 . S
C835 H828 0.950 . S
C835 C832 1.387 1_556 S
C836 C837 1.387 . S
C836 H840 0.950 . S
C836 C845 1.390 . S
C837 C836 1.387 . S
C837 C839 1.387 . S
H838 C845 0.950 . S
C839 C837 1.387 . S
C839 C841 1.390 . S
C839 H843 0.950 . S
H840 C836 0.950 . S
C841 C839 1.390 . S
C841 C842 1.387 . S
C841 H844 0.950 . S
C842 C841 1.387 . S
C842 C845 1.387 . S
H843 C839 0.950 . S
H844 C841 0.950 . S
C845 C836 1.390 . S
C845 H838 0.950 . S
C845 C842 1.387 . S
C846 C847 1.387 . S
C846 H850 0.950 . S
C846 C855 1.390 . S
C847 C846 1.387 . S
C847 C849 1.387 . S
H848 C855 0.950 . S
C849 C847 1.387 . S
C849 C851 1.390 . S
C849 H853 0.950 . S
H850 C846 0.950 . S
C851 C849 1.390 . S
C851 C852 1.387 . S
C851 H854 0.950 . S
C852 C851 1.387 . S
C852 C855 1.387 . S
H853 C849 0.950 . S
H854 C851 0.950 . S
C855 C846 1.390 . S
C855 H848 0.950 . S
C855 C852 1.387 . S
C856 C857 1.387 . S
C856 H860 0.950 . S
C856 C865 1.390 . S
C857 C856 1.387 . S
C857 C859 1.387 . S
H858 C865 0.950 . S
C859 C857 1.387 . S
C859 C861 1.390 . S
C859 H863 0.950 . S
H860 C856 0.950 . S
C861 C859 1.390 . S
C861 C862 1.387 . S
C861 H864 0.950 . S
C862 C861 1.387 . S
C862 C865 1.387 . S
H863 C859 0.950 . S
H864 C861 0.950 . S
C865 C856 1.390 . S
C865 H858 0.950 . S
C865 C862 1.387 . S
C866 C867 1.387 . S
C866 H870 0.950 . S
C866 C875 1.390 . S
C867 C866 1.387 . S
C867 C869 1.387 . S
H868 C875 0.950 . S
C869 C867 1.387 . S
C869 C871 1.390 . S
C869 H873 0.950 . S
H870 C866 0.950 . S
C871 C869 1.390 . S
C871 C872 1.387 . S
C871 H874 0.950 . S
C872 C871 1.387 . S
C872 C875 1.387 . S
H873 C869 0.950 . S
H874 C871 0.950 . S
C875 C866 1.390 . S
C875 H868 0.950 . S
C875 C872 1.387 . S
C876 C877 1.387 . S
C876 H880 0.950 . S
C876 C885 1.390 . S
C877 C876 1.387 . S
C877 C879 1.387 . S
H878 C885 0.950 . S
C879 C877 1.387 . S
C879 C881 1.390 . S
C879 H883 0.950 . S
H880 C876 0.950 . S
C881 C879 1.390 . S
C881 C882 1.387 . S
C881 H884 0.950 . S
C882 C881 1.387 . S
C882 C885 1.387 . S
H883 C879 0.950 . S
H884 C881 0.950 . S
C885 C876 1.390 . S
C885 H878 0.950 . S
C885 C882 1.387 . S
C886 C887 1.387 . S
C886 H890 0.950 . S
C886 C895 1.390 . S
C887 C886 1.387 . S
C887 C889 1.387 . S
H888 C895 0.950 . S
C889 C887 1.387 . S
C889 C891 1.390 . S
C889 H893 0.950 . S
H890 C886 0.950 . S
C891 C889 1.390 . S
C891 C892 1.387 . S
C891 H894 0.950 . S
C892 C891 1.387 . S
C892 C895 1.387 . S
H893 C889 0.950 . S
H894 C891 0.950 . S
C895 C886 1.390 . S
C895 H888 0.950 . S
C895 C892 1.387 . S
C896 C897 1.387 . S
C896 H900 0.950 . S
C896 C905 1.390 . S
C897 C896 1.387 . S
C897 C899 1.387 . S
H898 C905 0.932 1_655 S
C899 C897 1.387 . S
C899 C901 1.390 . S
C899 H903 0.950 . S
H900 C896 0.950 . S
C901 C899 1.390 . S
C901 C902 1.387 . S
C901 H904 0.950 1_554 S
C902 C901 1.387 . S
C902 C905 1.387 . S
H903 C899 0.950 . S
H904 C901 0.950 1_556 S
C905 C896 1.390 . S
C905 H898 0.932 1_455 S
C905 C902 1.387 . S
C906 C907 1.387 . S
C906 H910 0.950 . S
C906 C915 1.390 . S
C907 C906 1.387 . S
C907 C909 1.387 . S
H908 C915 0.950 . S
C909 C907 1.387 . S
C909 C911 1.390 . S
C909 H913 0.950 . S
H910 C906 0.950 . S
C911 C909 1.390 . S
C911 C912 1.387 . S
C911 H914 0.950 . S
C912 C911 1.387 . S
C912 C915 1.387 . S
H913 C909 0.950 . S
H914 C911 0.950 . S
C915 C906 1.390 . S
C915 H908 0.950 . S
C915 C912 1.387 . S
C916 C917 1.387 . S
C916 H920 0.950 . S
C916 C925 1.390 . S
C917 C916 1.387 . S
C917 C919 1.387 . S
H918 C925 0.950 . S
C919 C917 1.387 . S
C919 C921 1.390 . S
C919 H923 0.950 . S
H920 C916 0.950 . S
C921 C919 1.390 . S
C921 C922 1.387 . S
C921 H924 0.950 . S
C922 C921 1.387 . S
C922 C925 1.387 . S
H923 C919 0.950 . S
H924 C921 0.950 . S
C925 C916 1.390 . S
C925 H918 0.950 . S
C925 C922 1.387 . S
C926 C927 1.387 . S
C926 H930 0.950 . S
C926 C935 1.390 . S
C927 C926 1.387 . S
C927 C929 1.387 . S
H928 C935 0.950 . S
C929 C927 1.387 . S
C929 C931 1.390 . S
C929 H933 0.950 . S
H930 C926 0.950 . S
C931 C929 1.390 . S
C931 C932 1.387 . S
C931 H934 0.950 . S
C932 C931 1.387 . S
C932 C935 1.387 . S
H933 C929 0.950 . S
H934 C931 0.950 . S
C935 C926 1.390 . S
C935 H928 0.950 . S
C935 C932 1.387 . S
C936 C937 1.387 . S
C936 H940 0.950 . S
C936 C945 1.390 . S
C937 C936 1.387 . S
C937 C939 1.387 . S
H938 C945 0.950 . S
C939 C937 1.387 . S
C939 C941 1.390 . S
C939 H943 0.950 . S
H940 C936 0.950 . S
C941 C939 1.390 . S
C941 C942 1.390 . S
C941 H944 0.950 1_455 S
C942 C941 1.390 . S
C942 C945 1.386 . S
H943 C939 0.950 . S
H944 C941 0.950 1_655 S
C945 C936 1.390 . S
C945 H938 0.950 . S
C945 C942 1.386 . S
C946 C947 1.387 . S
C946 H950 0.950 . S
C946 C955 1.390 . S
C947 C946 1.387 . S
C947 C949 1.387 . S
H948 C955 0.950 . S
C949 C947 1.387 . S
C949 C951 1.390 . S
C949 H953 0.950 . S
H950 C946 0.950 . S
C951 C949 1.390 . S
C951 C952 1.387 . S
C951 H954 0.950 . S
C952 C951 1.387 . S
C952 C955 1.387 . S
H953 C949 0.950 . S
H954 C951 0.950 . S
C955 C946 1.390 . S
C955 H948 0.950 . S
C955 C952 1.387 . S
C956 C957 1.387 . S
C956 H960 0.950 . S
C956 C965 1.390 . S
C957 C956 1.387 . S
C957 C959 1.387 . S
H958 C965 0.950 . S
C959 C957 1.387 . S
C959 C961 1.390 . S
C959 H963 0.950 . S
H960 C956 0.950 . S
C961 C959 1.390 . S
C961 C962 1.387 . S
C961 H964 0.950 1_556 S
C962 C961 1.387 . S
C962 C965 1.387 . S
H963 C959 0.950 . S
H964 C961 0.950 1_554 S
C965 C956 1.390 . S
C965 H958 0.950 . S
C965 C962 1.387 . S
C966 C967 1.387 . S
C966 H970 0.950 . S
C966 C975 1.390 . S
C967 C966 1.387 . S
C967 C969 1.387 . S
H968 C975 0.950 . S
C969 C967 1.387 . S
C969 C971 1.390 . S
C969 H973 0.950 . S
H970 C966 0.950 . S
C971 C969 1.390 . S
C971 C972 1.387 . S
C971 H974 0.950 . S
C972 C971 1.387 . S
C972 C975 1.387 . S
H973 C969 0.950 . S
H974 C971 0.950 . S
C975 C966 1.390 . S
C975 H968 0.950 . S
C975 C972 1.387 . S
C976 C977 1.387 1_565 S
C976 H980 0.950 . S
C976 C985 1.390 . S
C977 C976 1.387 1_545 S
C977 C979 1.387 . S
H978 C985 0.950 . S
C979 C977 1.387 . S
C979 C981 1.390 . S
C979 H983 0.950 . S
H980 C976 0.950 . S
C981 C979 1.390 . S
C981 C982 1.387 1_545 S
C981 H984 0.950 . S
C982 C981 1.387 1_565 S
C982 C985 1.387 . S
H983 C979 0.950 . S
H984 C981 0.950 . S
C985 C976 1.390 . S
C985 H978 0.950 . S
C985 C982 1.387 . S
C986 C987 1.387 . S
C986 H990 0.950 . S
C986 C995 1.390 . S
C987 C986 1.387 . S
C987 C989 1.387 . S
H988 C995 0.950 . S
C989 C987 1.387 . S
C989 C991 1.390 . S
C989 H993 0.950 . S
H990 C986 0.950 . S
C991 C989 1.390 . S
C991 C992 1.387 . S
C991 H994 0.950 . S
C992 C991 1.387 . S
C992 C995 1.387 . S
H993 C989 0.950 . S
H994 C991 0.950 . S
C995 C986 1.390 . S
C995 H988 0.950 . S
C995 C992 1.387 . S
C996 C997 1.387 1_565 S
C996 H1000 0.950 . S
C996 C1005 1.390 . S
C997 C996 1.387 1_545 S
C997 C999 1.387 . S
H998 C1005 0.950 . S
C999 C997 1.387 . S
C999 C1001 1.390 . S
C999 H1003 0.950 . S
H1000 C996 0.950 . S
C1001 C999 1.390 . S
C1001 C1002 1.387 . S
C1001 H1004 0.950 . S
C1002 C1001 1.387 . S
C1002 C1005 1.387 1_545 S
H1003 C999 0.950 . S
H1004 C1001 0.950 . S
C1005 C996 1.390 . S
C1005 H998 0.950 . S
C1005 C1002 1.387 1_565 S
C1006 C1007 1.387 . S
C1006 H1010 0.950 . S
C1006 C1015 1.390 . S
C1007 C1006 1.387 . S
C1007 C1009 1.387 . S
H1008 C1015 0.950 . S
C1009 C1007 1.387 . S
C1009 C1011 1.390 . S
C1009 H1013 0.950 . S
H1010 C1006 0.950 . S
C1011 C1009 1.390 . S
C1011 C1012 1.387 . S
C1011 H1014 0.950 . S
C1012 C1011 1.387 . S
C1012 C1015 1.387 . S
H1013 C1009 0.950 . S
H1014 C1011 0.950 . S
C1015 C1006 1.390 . S
C1015 H1008 0.950 . S
C1015 C1012 1.387 . S
C1016 C1017 1.387 . S
C1016 H1020 0.950 . S
C1016 C1025 1.390 . S
C1017 C1016 1.387 . S
C1017 C1019 1.387 1_565 S
H1018 C1025 0.950 . S
C1019 C1017 1.387 1_545 S
C1019 C1021 1.390 . S
C1019 H1023 0.950 . S
H1020 C1016 0.950 . S
C1021 C1019 1.390 . S
C1021 C1022 1.387 . S
C1021 H1024 0.950 . S
C1022 C1021 1.387 . S
C1022 C1025 1.387 1_545 S
H1023 C1019 0.950 . S
H1024 C1021 0.950 . S
C1025 C1016 1.390 . S
C1025 H1018 0.950 . S
C1025 C1022 1.387 1_565 S
C1026 C1027 1.387 . S
C1026 H1030 0.950 . S
C1026 C1035 1.390 . S
C1027 C1026 1.387 . S
C1027 C1029 1.387 . S
H1028 C1035 0.950 . S
C1029 C1027 1.387 . S
C1029 C1031 1.390 . S
C1029 H1033 0.950 . S
H1030 C1026 0.950 . S
C1031 C1029 1.390 . S
C1031 C1032 1.387 . S
C1031 H1034 0.950 . S
C1032 C1031 1.387 . S
C1032 C1035 1.387 . S
H1033 C1029 0.950 . S
H1034 C1031 0.950 . S
C1035 C1026 1.390 . S
C1035 H1028 0.950 . S
C1035 C1032 1.387 . S
C1036 C1037 1.387 1_565 S
C1036 H1040 0.950 . S
C1036 C1045 1.390 . S
C1037 C1036 1.387 1_545 S
C1037 C1039 1.387 . S
H1038 C1045 0.950 . S
C1039 C1037 1.387 . S
C1039 C1041 1.390 . S
C1039 H1043 0.950 . S
H1040 C1036 0.950 . S
C1041 C1039 1.390 . S
C1041 C1042 1.387 1_545 S
C1041 H1044 0.950 . S
C1042 C1041 1.387 1_565 S
C1042 C1045 1.387 . S
H1043 C1039 0.950 . S
H1044 C1041 0.950 . S
C1045 C1036 1.390 . S
C1045 H1038 0.950 . S
C1045 C1042 1.387 . S
C1046 C1047 1.387 . S
C1046 H1050 0.950 . S
C1046 C1055 1.390 . S
C1047 C1046 1.387 . S
C1047 C1049 1.387 . S
H1048 C1055 0.950 . S
C1049 C1047 1.387 . S
C1049 C1051 1.390 . S
C1049 H1053 0.950 . S
H1050 C1046 0.950 . S
C1051 C1049 1.390 . S
C1051 C1052 1.387 . S
C1051 H1054 0.950 . S
C1052 C1051 1.387 . S
C1052 C1055 1.387 . S
H1053 C1049 0.950 . S
H1054 C1051 0.950 . S
C1055 C1046 1.390 . S
C1055 H1048 0.950 . S
C1055 C1052 1.387 . S
C1056 C1057 1.398 . S
C1056 H1060 0.950 . S
C1056 C1065 1.390 . S
C1057 C1056 1.398 . S
C1057 C1059 1.383 1_556 S
H1058 C1065 0.950 . S
C1059 C1057 1.383 1_554 S
C1059 C1061 1.390 1_554 S
C1059 H1063 0.950 . S
H1060 C1056 0.950 . S
C1061 C1059 1.390 1_556 S
C1061 C1062 1.387 . S
C1061 H1064 0.950 . S
C1062 C1061 1.387 . S
C1062 C1065 1.387 . S
H1063 C1059 0.950 . S
H1064 C1061 0.950 . S
C1065 C1056 1.390 . S
C1065 H1058 0.950 . S
C1065 C1062 1.387 . S
C1066 C1067 1.387 1_556 S
C1066 H1070 0.950 . S
C1066 C1075 1.390 . S
C1067 C1066 1.387 1_554 S
C1067 C1069 1.387 . S
H1068 C1075 0.950 . S
C1069 C1067 1.387 . S
C1069 C1071 1.390 . S
C1069 H1073 0.950 . S
H1070 C1066 0.950 . S
C1071 C1069 1.390 . S
C1071 C1072 1.387 . S
C1071 H1074 0.950 . S
C1072 C1071 1.387 . S
C1072 C1075 1.387 1_554 S
H1073 C1069 0.950 . S
H1074 C1071 0.950 . S
C1075 C1066 1.390 . S
C1075 H1068 0.950 . S
C1075 C1072 1.387 1_556 S
C1076 C1077 1.387 . S
C1076 H1080 0.950 . S
C1076 C1085 1.390 . S
C1077 C1076 1.387 . S
C1077 C1079 1.387 . S
H1078 C1085 0.950 . S
C1079 C1077 1.387 . S
C1079 C1081 1.390 . S
C1079 H1083 0.950 . S
H1080 C1076 0.950 . S
C1081 C1079 1.390 . S
C1081 C1082 1.387 . S
C1081 H1084 0.950 . S
C1082 C1081 1.387 . S
C1082 C1085 1.387 . S
H1083 C1079 0.950 . S
H1084 C1081 0.950 . S
C1085 C1076 1.390 . S
C1085 H1078 0.950 . S
C1085 C1082 1.387 . S
C1086 C1087 1.387 . S
C1086 H1090 0.950 . S
C1086 C1095 1.390 . S
C1087 C1086 1.387 . S
C1087 C1089 1.387 . S
H1088 C1095 0.950 . S
C1089 C1087 1.387 . S
C1089 C1091 1.390 . S
C1089 H1093 0.950 . S
H1090 C1086 0.950 . S
C1091 C1089 1.390 . S
C1091 C1092 1.387 . S
C1091 H1094 0.950 . S
C1092 C1091 1.387 . S
C1092 C1095 1.387 . S
H1093 C1089 0.950 . S
H1094 C1091 0.950 . S
C1095 C1086 1.390 . S
C1095 H1088 0.950 . S
C1095 C1092 1.387 . S
C1096 C1097 1.387 . S
C1096 H1100 0.950 . S
C1096 C1105 1.390 . S
C1097 C1096 1.387 . S
C1097 C1099 1.387 . S
H1098 C1105 0.950 . S
C1099 C1097 1.387 . S
C1099 C1101 1.390 . S
C1099 H1103 0.950 . S
H1100 C1096 0.950 . S
C1101 C1099 1.390 . S
C1101 C1102 1.387 . S
C1101 H1104 0.950 . S
C1102 C1101 1.387 . S
C1102 C1105 1.387 . S
H1103 C1099 0.950 . S
H1104 C1101 0.950 . S
C1105 C1096 1.390 . S
C1105 H1098 0.950 . S
C1105 C1102 1.387 . S
C1106 C1107 1.387 . S
C1106 H1110 0.950 . S
C1106 C1115 1.390 . S
C1107 C1106 1.387 . S
C1107 C1109 1.387 . S
H1108 C1115 0.950 . S
C1109 C1107 1.387 . S
C1109 C1111 1.390 . S
C1109 H1113 0.950 . S
H1110 C1106 0.950 . S
C1111 C1109 1.390 . S
C1111 C1112 1.387 . S
C1111 H1114 0.950 . S
C1112 C1111 1.387 . S
C1112 C1115 1.387 . S
H1113 C1109 0.950 . S
H1114 C1111 0.950 . S
C1115 C1106 1.390 . S
C1115 H1108 0.950 . S
C1115 C1112 1.387 . S
C1116 C1117 1.387 . S
C1116 H1120 0.950 . S
C1116 C1125 1.390 . S
C1117 C1116 1.387 . S
C1117 C1119 1.387 . S
H1118 C1125 0.950 . S
C1119 C1117 1.387 . S
C1119 C1121 1.390 . S
C1119 H1123 0.950 . S
H1120 C1116 0.950 . S
C1121 C1119 1.390 . S
C1121 C1122 1.387 . S
C1121 H1124 0.950 . S
C1122 C1121 1.387 . S
C1122 C1125 1.387 . S
H1123 C1119 0.950 . S
H1124 C1121 0.950 . S
C1125 C1116 1.390 . S
C1125 H1118 0.950 . S
C1125 C1122 1.387 . S
C1126 C1127 1.387 . S
C1126 H1130 0.950 . S
C1126 C1135 1.390 . S
C1127 C1126 1.387 . S
C1127 C1129 1.387 . S
H1128 C1135 0.950 . S
C1129 C1127 1.387 . S
C1129 C1131 1.390 . S
C1129 H1133 0.950 . S
H1130 C1126 0.950 . S
C1131 C1129 1.390 . S
C1131 C1132 1.387 . S
C1131 H1134 0.950 . S
C1132 C1131 1.387 . S
C1132 C1135 1.387 . S
H1133 C1129 0.950 . S
H1134 C1131 0.950 . S
C1135 C1126 1.390 . S
C1135 H1128 0.950 . S
C1135 C1132 1.387 . S
C1136 C1137 1.387 . S
C1136 H1140 0.950 . S
C1136 C1145 1.390 . S
C1137 C1136 1.387 . S
C1137 C1139 1.387 . S
H1138 C1145 0.950 . S
C1139 C1137 1.387 . S
C1139 C1141 1.390 . S
C1139 H1143 0.950 . S
H1140 C1136 0.950 . S
C1141 C1139 1.390 . S
C1141 C1142 1.387 . S
C1141 H1144 0.950 . S
C1142 C1141 1.387 . S
C1142 C1145 1.387 . S
H1143 C1139 0.950 . S
H1144 C1141 0.950 . S
C1145 C1136 1.390 . S
C1145 H1138 0.950 . S
C1145 C1142 1.387 . S
C1146 C1147 1.387 . S
C1146 H1150 0.950 . S
C1146 C1155 1.390 . S
C1147 C1146 1.387 . S
C1147 C1149 1.387 . S
H1148 C1155 0.950 . S
C1149 C1147 1.387 . S
C1149 C1151 1.390 . S
C1149 H1153 0.950 . S
H1150 C1146 0.950 . S
C1151 C1149 1.390 . S
C1151 C1152 1.387 . S
C1151 H1154 0.950 . S
C1152 C1151 1.387 . S
C1152 C1155 1.387 . S
H1153 C1149 0.950 . S
H1154 C1151 0.950 . S
C1155 C1146 1.390 . S
C1155 H1148 0.950 . S
C1155 C1152 1.387 . S
C1156 C1157 1.387 1_655 S
C1156 H1160 0.950 . S
C1156 C1165 1.390 . S
C1157 C1156 1.387 1_455 S
C1157 C1159 1.387 . S
H1158 C1165 0.950 1_554 S
C1159 C1157 1.387 . S
C1159 C1161 1.390 . S
C1159 H1163 0.950 . S
H1160 C1156 0.950 . S
C1161 C1159 1.390 . S
C1161 C1162 1.387 . S
C1161 H1164 0.950 . S
C1162 C1161 1.387 . S
C1162 C1165 1.387 1_455 S
H1163 C1159 0.950 . S
H1164 C1161 0.950 . S
C1165 C1156 1.390 . S
C1165 H1158 0.950 1_556 S
C1165 C1162 1.387 1_655 S
C1166 C1167 1.387 . S
C1166 H1170 0.950 . S
C1166 C1175 1.390 . S
C1167 C1166 1.387 . S
C1167 C1169 1.387 . S
H1168 C1175 0.950 . S
C1169 C1167 1.387 . S
C1169 C1171 1.390 . S
C1169 H1173 0.950 . S
H1170 C1166 0.950 . S
C1171 C1169 1.390 . S
C1171 C1172 1.387 . S
C1171 H1174 0.950 . S
C1172 C1171 1.387 . S
C1172 C1175 1.387 . S
H1173 C1169 0.950 . S
H1174 C1171 0.950 . S
C1175 C1166 1.390 . S
C1175 H1168 0.950 . S
C1175 C1172 1.387 . S
C1176 C1177 1.387 . S
C1176 H1180 0.950 . S
C1176 C1185 1.390 . S
C1177 C1176 1.387 . S
C1177 C1179 1.387 . S
H1178 C1185 0.950 . S
C1179 C1177 1.387 . S
C1179 C1181 1.390 . S
C1179 H1183 0.950 . S
H1180 C1176 0.950 . S
C1181 C1179 1.390 . S
C1181 C1182 1.387 . S
C1181 H1184 0.950 . S
C1182 C1181 1.387 . S
C1182 C1185 1.387 . S
H1183 C1179 0.950 . S
H1184 C1181 0.950 . S
C1185 C1176 1.390 . S
C1185 H1178 0.950 . S
C1185 C1182 1.387 . S
C1186 C1187 1.387 . S
C1186 H1190 0.950 . S
C1186 C1195 1.390 . S
C1187 C1186 1.387 . S
C1187 C1189 1.387 . S
H1188 C1195 0.950 . S
C1189 C1187 1.387 . S
C1189 C1191 1.390 . S
C1189 H1193 0.950 . S
H1190 C1186 0.950 . S
C1191 C1189 1.390 . S
C1191 C1192 1.387 . S
C1191 H1194 0.950 . S
C1192 C1191 1.387 . S
C1192 C1195 1.387 . S
H1193 C1189 0.950 . S
H1194 C1191 0.950 . S
C1195 C1186 1.390 . S
C1195 H1188 0.950 . S
C1195 C1192 1.387 . S
C1196 C1197 1.381 1_455 S
C1196 H1200 0.950 . S
C1196 C1205 1.390 . S
C1197 C1196 1.381 1_655 S
C1197 C1199 1.391 . S
H1198 C1205 0.950 . S
C1199 C1197 1.391 . S
C1199 C1201 1.390 . S
C1199 H1203 0.950 . S
H1200 C1196 0.950 . S
C1201 C1199 1.390 . S
C1201 C1202 1.387 1_655 S
C1201 H1204 0.950 . S
C1202 C1201 1.387 1_455 S
C1202 C1205 1.387 . S
H1203 C1199 0.950 . S
H1204 C1201 0.950 . S
C1205 C1196 1.390 . S
C1205 H1198 0.950 . S
C1205 C1202 1.387 . S
C1206 C1207 1.387 . S
C1206 H1210 0.950 . S
C1206 C1215 1.390 . S
C1207 C1206 1.387 . S
C1207 C1209 1.387 . S
H1208 C1215 0.950 . S
C1209 C1207 1.387 . S
C1209 C1211 1.390 . S
C1209 H1213 0.950 . S
H1210 C1206 0.950 . S
C1211 C1209 1.390 . S
C1211 C1212 1.387 . S
C1211 H1214 0.950 . S
C1212 C1211 1.387 . S
C1212 C1215 1.387 . S
H1213 C1209 0.950 . S
H1214 C1211 0.950 . S
C1215 C1206 1.390 . S
C1215 H1208 0.950 . S
C1215 C1212 1.387 . S
C1216 C1217 1.387 . S
C1216 H1220 0.950 . S
C1216 C1225 1.390 . S
C1217 C1216 1.387 . S
C1217 C1219 1.387 . S
H1218 C1225 0.950 . S
C1219 C1217 1.387 . S
C1219 C1221 1.390 . S
C1219 H1223 0.950 . S
H1220 C1216 0.950 . S
C1221 C1219 1.390 . S
C1221 C1222 1.387 . S
C1221 H1224 0.950 . S
C1222 C1221 1.387 . S
C1222 C1225 1.387 . S
H1223 C1219 0.950 . S
H1224 C1221 0.950 . S
C1225 C1216 1.390 . S
C1225 H1218 0.950 . S
C1225 C1222 1.387 . S
C1226 C1227 1.387 . S
C1226 H1230 0.950 . S
C1226 C1235 1.390 . S
C1227 C1226 1.387 . S
C1227 C1229 1.387 . S
H1228 C1235 0.950 . S
C1229 C1227 1.387 . S
C1229 C1231 1.390 . S
C1229 H1233 0.950 . S
H1230 C1226 0.950 . S
C1231 C1229 1.390 . S
C1231 C1232 1.387 . S
C1231 H1234 0.950 . S
C1232 C1231 1.387 . S
C1232 C1235 1.387 . S
H1233 C1229 0.950 . S
H1234 C1231 0.950 . S
C1235 C1226 1.390 . S
C1235 H1228 0.950 . S
C1235 C1232 1.387 . S
C1236 C1237 1.387 . S
C1236 H1240 0.950 . S
C1236 C1245 1.390 . S
C1237 C1236 1.387 . S
C1237 C1239 1.387 . S
H1238 C1245 0.950 . S
C1239 C1237 1.387 . S
C1239 C1241 1.390 . S
C1239 H1243 0.950 . S
H1240 C1236 0.950 . S
C1241 C1239 1.390 . S
C1241 C1242 1.387 . S
C1241 H1244 0.950 . S
C1242 C1241 1.387 . S
C1242 C1245 1.387 . S
H1243 C1239 0.950 . S
H1244 C1241 0.950 . S
C1245 C1236 1.390 . S
C1245 H1238 0.950 . S
C1245 C1242 1.387 . S
C1246 C1247 1.387 . S
C1246 H1250 0.950 . S
C1246 C1255 1.390 . S
C1247 C1246 1.387 . S
C1247 C1249 1.387 . S
H1248 C1255 0.950 . S
C1249 C1247 1.387 . S
C1249 C1251 1.390 . S
C1249 H1253 0.950 . S
H1250 C1246 0.950 . S
C1251 C1249 1.390 . S
C1251 C1252 1.387 . S
C1251 H1254 0.950 . S
C1252 C1251 1.387 . S
C1252 C1255 1.387 . S
H1253 C1249 0.950 . S
H1254 C1251 0.950 . S
C1255 C1246 1.390 . S
C1255 H1248 0.950 . S
C1255 C1252 1.387 . S
C1256 C1257 1.387 . S
C1256 H1260 0.950 . S
C1256 C1265 1.390 . S
C1257 C1256 1.387 . S
C1257 C1259 1.387 . S
H1258 C1265 0.950 . S
C1259 C1257 1.387 . S
C1259 C1261 1.390 . S
C1259 H1263 0.950 . S
H1260 C1256 0.950 . S
C1261 C1259 1.390 . S
C1261 C1262 1.387 . S
C1261 H1264 0.950 . S
C1262 C1261 1.387 . S
C1262 C1265 1.387 . S
H1263 C1259 0.950 . S
H1264 C1261 0.950 . S
C1265 C1256 1.390 . S
C1265 H1258 0.950 . S
C1265 C1262 1.387 . S
C1266 C1267 1.387 . S
C1266 H1270 0.950 . S
C1266 C1275 1.390 . S
C1267 C1266 1.387 . S
C1267 C1269 1.387 . S
H1268 C1275 0.950 . S
C1269 C1267 1.387 . S
C1269 C1271 1.390 . S
C1269 H1273 0.950 . S
H1270 C1266 0.950 . S
C1271 C1269 1.390 . S
C1271 C1272 1.387 . S
C1271 H1274 0.950 . S
C1272 C1271 1.387 . S
C1272 C1275 1.387 . S
H1273 C1269 0.950 . S
H1274 C1271 0.950 . S
C1275 C1266 1.390 . S
C1275 H1268 0.950 . S
C1275 C1272 1.387 . S
C1276 C1277 1.387 . S
C1276 H1280 0.950 . S
C1276 C1285 1.390 . S
C1277 C1276 1.387 . S
C1277 C1279 1.387 . S
H1278 C1285 0.950 . S
C1279 C1277 1.387 . S
C1279 C1281 1.390 . S
C1279 H1283 0.950 . S
H1280 C1276 0.950 . S
C1281 C1279 1.390 . S
C1281 C1282 1.387 . S
C1281 H1284 0.950 . S
C1282 C1281 1.387 . S
C1282 C1285 1.387 . S
H1283 C1279 0.950 . S
H1284 C1281 0.950 . S
C1285 C1276 1.390 . S
C1285 H1278 0.950 . S
C1285 C1282 1.387 . S
C1286 C1287 1.387 . S
C1286 H1290 0.950 . S
C1286 C1295 1.390 . S
C1287 C1286 1.387 . S
C1287 C1289 1.387 . S
H1288 C1295 0.950 . S
C1289 C1287 1.387 . S
C1289 C1291 1.390 . S
C1289 H1293 0.950 . S
H1290 C1286 0.950 . S
C1291 C1289 1.390 . S
C1291 C1292 1.387 . S
C1291 H1294 0.950 . S
C1292 C1291 1.387 . S
C1292 C1295 1.387 . S
H1293 C1289 0.950 . S
H1294 C1291 0.950 . S
C1295 C1286 1.390 . S
C1295 H1288 0.950 . S
C1295 C1292 1.387 . S
C1296 C1297 1.387 . S
C1296 H1300 0.950 . S
C1296 C1305 1.390 . S
C1297 C1296 1.387 . S
C1297 C1299 1.387 . S
H1298 C1305 0.950 . S
C1299 C1297 1.387 . S
C1299 C1301 1.390 . S
C1299 H1303 0.950 . S
H1300 C1296 0.950 . S
C1301 C1299 1.390 . S
C1301 C1302 1.387 . S
C1301 H1304 0.950 . S
C1302 C1301 1.387 . S
C1302 C1305 1.387 . S
H1303 C1299 0.950 . S
H1304 C1301 0.950 . S
C1305 C1296 1.390 . S
C1305 H1298 0.950 . S
C1305 C1302 1.387 . S
C1306 C1307 1.387 . S
C1306 H1310 0.950 . S
C1306 C1315 1.390 . S
C1307 C1306 1.387 . S
C1307 C1309 1.387 . S
H1308 C1315 0.950 . S
C1309 C1307 1.387 . S
C1309 C1311 1.390 . S
C1309 H1313 0.950 . S
H1310 C1306 0.950 . S
C1311 C1309 1.390 . S
C1311 C1312 1.387 . S
C1311 H1314 0.950 . S
C1312 C1311 1.387 . S
C1312 C1315 1.387 . S
H1313 C1309 0.950 . S
H1314 C1311 0.950 . S
C1315 C1306 1.390 . S
C1315 H1308 0.950 . S
C1315 C1312 1.387 . S
C1316 C1317 1.387 . S
C1316 H1320 0.950 . S
C1316 C1325 1.390 . S
C1317 C1316 1.387 . S
C1317 C1319 1.387 . S
H1318 C1325 0.950 . S
C1319 C1317 1.387 . S
C1319 C1321 1.390 . S
C1319 H1323 0.950 . S
H1320 C1316 0.950 . S
C1321 C1319 1.390 . S
C1321 C1322 1.387 . S
C1321 H1324 0.950 . S
C1322 C1321 1.387 . S
C1322 C1325 1.387 . S
H1323 C1319 0.950 . S
H1324 C1321 0.950 . S
C1325 C1316 1.390 . S
C1325 H1318 0.950 . S
C1325 C1322 1.387 . S
C1326 C1327 1.387 1_556 S
C1326 H1330 0.950 . S
C1326 C1335 1.390 . S
C1327 C1326 1.387 1_554 S
C1327 C1329 1.387 . S
H1328 C1335 0.950 . S
C1329 C1327 1.387 . S
C1329 C1331 1.390 . S
C1329 H1333 0.950 . S
H1330 C1326 0.950 . S
C1331 C1329 1.390 . S
C1331 C1332 1.387 . S
C1331 H1334 0.950 1_565 S
C1332 C1331 1.387 . S
C1332 C1335 1.387 1_554 S
H1333 C1329 0.950 . S
H1334 C1331 0.950 1_545 S
C1335 C1326 1.390 . S
C1335 H1328 0.950 . S
C1335 C1332 1.387 1_556 S
C1336 C1337 1.387 . S
C1336 H1340 0.950 . S
C1336 C1345 1.390 . S
C1337 C1336 1.387 . S
C1337 C1339 1.387 . S
H1338 C1345 0.950 . S
C1339 C1337 1.387 . S
C1339 C1341 1.390 . S
C1339 H1343 0.950 . S
H1340 C1336 0.950 . S
C1341 C1339 1.390 . S
C1341 C1342 1.387 . S
C1341 H1344 0.950 . S
C1342 C1341 1.387 . S
C1342 C1345 1.387 . S
H1343 C1339 0.950 . S
H1344 C1341 0.950 . S
C1345 C1336 1.390 . S
C1345 H1338 0.950 . S
C1345 C1342 1.387 . S
C1346 C1347 1.387 . S
C1346 H1350 0.950 . S
C1346 C1355 1.390 . S
C1347 C1346 1.387 . S
C1347 C1349 1.387 . S
H1348 C1355 0.950 . S
C1349 C1347 1.387 . S
C1349 C1351 1.390 . S
C1349 H1353 0.950 1_554 S
H1350 C1346 0.950 . S
C1351 C1349 1.390 . S
C1351 C1352 1.387 . S
C1351 H1354 0.957 . S
C1352 C1351 1.387 . S
C1352 C1355 1.387 . S
H1353 C1349 0.950 1_556 S
H1354 C1351 0.957 . S
C1355 C1346 1.390 . S
C1355 H1348 0.950 . S
C1355 C1352 1.387 . S
C1356 C1357 1.387 . S
C1356 H1360 0.950 . S
C1356 C1365 1.390 . S
C1357 C1356 1.387 . S
C1357 C1359 1.387 . S
H1358 C1365 0.950 . S
C1359 C1357 1.387 . S
C1359 C1361 1.390 . S
C1359 H1363 0.950 . S
H1360 C1356 0.950 . S
C1361 C1359 1.390 . S
C1361 C1362 1.387 . S
C1361 H1364 0.950 . S
C1362 C1361 1.387 . S
C1362 C1365 1.387 . S
H1363 C1359 0.950 . S
H1364 C1361 0.950 . S
C1365 C1356 1.390 . S
C1365 H1358 0.950 . S
C1365 C1362 1.387 . S
C1366 C1367 1.387 . S
C1366 H1370 0.950 . S
C1366 C1375 1.390 . S
C1367 C1366 1.387 . S
C1367 C1369 1.387 . S
H1368 C1375 0.950 . S
C1369 C1367 1.387 . S
C1369 C1371 1.390 . S
C1369 H1373 0.950 . S
H1370 C1366 0.950 . S
C1371 C1369 1.390 . S
C1371 C1372 1.387 . S
C1371 H1374 0.950 . S
C1372 C1371 1.387 . S
C1372 C1375 1.387 . S
H1373 C1369 0.950 . S
H1374 C1371 0.950 . S
C1375 C1366 1.390 . S
C1375 H1368 0.950 . S
C1375 C1372 1.387 . S
C1376 C1377 1.387 . S
C1376 H1380 0.950 . S
C1376 C1385 1.390 . S
C1377 C1376 1.387 . S
C1377 C1379 1.387 . S
H1378 C1385 0.950 . S
C1379 C1377 1.387 . S
C1379 C1381 1.390 . S
C1379 H1383 0.950 . S
H1380 C1376 0.950 . S
C1381 C1379 1.390 . S
C1381 C1382 1.387 . S
C1381 H1384 0.950 . S
C1382 C1381 1.387 . S
C1382 C1385 1.387 . S
H1383 C1379 0.950 . S
H1384 C1381 0.950 . S
C1385 C1376 1.390 . S
C1385 H1378 0.950 . S
C1385 C1382 1.387 . S
C1386 C1387 1.387 . S
C1386 H1390 0.950 . S
C1386 C1395 1.390 . S
C1387 C1386 1.387 . S
C1387 C1389 1.387 . S
H1388 C1395 0.950 . S
C1389 C1387 1.387 . S
C1389 C1391 1.390 . S
C1389 H1393 0.950 . S
H1390 C1386 0.950 . S
C1391 C1389 1.390 . S
C1391 C1392 1.387 . S
C1391 H1394 0.950 . S
C1392 C1391 1.387 . S
C1392 C1395 1.387 . S
H1393 C1389 0.950 . S
H1394 C1391 0.950 . S
C1395 C1386 1.390 . S
C1395 H1388 0.950 . S
C1395 C1392 1.387 . S
C1396 C1397 1.387 . S
C1396 H1400 0.950 . S
C1396 C1405 1.390 . S
C1397 C1396 1.387 . S
C1397 C1399 1.409 . S
H1398 C1405 0.950 . S
C1399 C1397 1.409 . S
C1399 C1401 1.402 1_455 S
C1399 H1403 0.923 1_455 S
H1400 C1396 0.950 . S
C1401 C1399 1.402 1_655 S
C1401 C1402 1.365 1_655 S
C1401 H1404 0.968 . S
C1402 C1401 1.365 1_455 S
C1402 C1405 1.387 . S
H1403 C1399 0.923 1_655 S
H1404 C1401 0.968 . S
C1405 C1396 1.390 . S
C1405 H1398 0.950 . S
C1405 C1402 1.387 . S
C1406 C1407 1.387 . S
C1406 H1410 0.950 . S
C1406 C1415 1.390 . S
C1407 C1406 1.387 . S
C1407 C1409 1.387 . S
H1408 C1415 0.950 . S
C1409 C1407 1.387 . S
C1409 C1411 1.390 . S
C1409 H1413 0.950 . S
H1410 C1406 0.950 . S
C1411 C1409 1.390 . S
C1411 C1412 1.387 . S
C1411 H1414 0.950 . S
C1412 C1411 1.387 . S
C1412 C1415 1.387 . S
H1413 C1409 0.950 . S
H1414 C1411 0.950 . S
C1415 C1406 1.390 . S
C1415 H1408 0.950 . S
C1415 C1412 1.387 . S
C1416 C1417 1.387 . S
C1416 H1420 0.950 . S
C1416 C1425 1.390 . S
C1417 C1416 1.387 . S
C1417 C1419 1.387 . S
H1418 C1425 0.950 . S
C1419 C1417 1.387 . S
C1419 C1421 1.390 . S
C1419 H1423 0.950 . S
H1420 C1416 0.950 . S
C1421 C1419 1.390 . S
C1421 C1422 1.387 . S
C1421 H1424 0.950 . S
C1422 C1421 1.387 . S
C1422 C1425 1.387 . S
H1423 C1419 0.950 . S
H1424 C1421 0.950 . S
C1425 C1416 1.390 . S
C1425 H1418 0.950 . S
C1425 C1422 1.387 . S
C1426 C1427 1.387 . S
C1426 H1430 0.950 . S
C1426 C1435 1.390 . S
C1427 C1426 1.387 . S
C1427 C1429 1.387 . S
H1428 C1435 0.950 . S
C1429 C1427 1.387 . S
C1429 C1431 1.390 . S
C1429 H1433 0.950 . S
H1430 C1426 0.950 . S
C1431 C1429 1.390 . S
C1431 C1432 1.387 . S
C1431 H1434 0.950 . S
C1432 C1431 1.387 . S
C1432 C1435 1.387 . S
H1433 C1429 0.950 . S
H1434 C1431 0.950 . S
C1435 C1426 1.390 . S
C1435 H1428 0.950 . S
C1435 C1432 1.387 . S
C1436 C1437 1.387 . S
C1436 H1440 0.950 . S
C1436 C1445 1.390 . S
C1437 C1436 1.387 . S
C1437 C1439 1.387 . S
H1438 C1445 0.950 . S
C1439 C1437 1.387 . S
C1439 C1441 1.395 . S
C1439 H1443 0.950 1_455 S
H1440 C1436 0.950 . S
C1441 C1439 1.395 . S
C1441 C1442 1.397 . S
C1441 H1444 0.935 1_455 S
C1442 C1441 1.397 . S
C1442 C1445 1.387 . S
H1443 C1439 0.950 1_655 S
H1444 C1441 0.935 1_655 S
C1445 C1436 1.390 . S
C1445 H1438 0.950 . S
C1445 C1442 1.387 . S
C1446 C1447 1.387 . S
C1446 H1450 0.950 . S
C1446 C1455 1.390 . S
C1447 C1446 1.387 . S
C1447 C1449 1.387 . S
H1448 C1455 0.950 . S
C1449 C1447 1.387 . S
C1449 C1451 1.390 . S
C1449 H1453 0.950 . S
H1450 C1446 0.950 . S
C1451 C1449 1.390 . S
C1451 C1452 1.387 . S
C1451 H1454 0.950 . S
C1452 C1451 1.387 . S
C1452 C1455 1.387 . S
H1453 C1449 0.950 . S
H1454 C1451 0.950 . S
C1455 C1446 1.390 . S
C1455 H1448 0.950 . S
C1455 C1452 1.387 . S
C1456 C1457 1.387 . S
C1456 H1460 0.950 . S
C1456 C1465 1.390 . S
C1457 C1456 1.387 . S
C1457 C1459 1.387 . S
H1458 C1465 0.950 . S
C1459 C1457 1.387 . S
C1459 C1461 1.390 . S
C1459 H1463 0.950 . S
H1460 C1456 0.950 . S
C1461 C1459 1.390 . S
C1461 C1462 1.387 . S
C1461 H1464 0.950 . S
C1462 C1461 1.387 . S
C1462 C1465 1.387 . S
H1463 C1459 0.950 . S
H1464 C1461 0.950 . S
C1465 C1456 1.390 . S
C1465 H1458 0.950 . S
C1465 C1462 1.387 . S
C1466 C1467 1.387 . S
C1466 H1470 0.950 . S
C1466 C1475 1.390 . S
C1467 C1466 1.387 . S
C1467 C1469 1.387 . S
H1468 C1475 0.950 . S
C1469 C1467 1.387 . S
C1469 C1471 1.390 . S
C1469 H1473 0.950 . S
H1470 C1466 0.950 . S
C1471 C1469 1.390 . S
C1471 C1472 1.387 . S
C1471 H1474 0.950 . S
C1472 C1471 1.387 . S
C1472 C1475 1.387 . S
H1473 C1469 0.950 . S
H1474 C1471 0.950 . S
C1475 C1466 1.390 . S
C1475 H1468 0.950 . S
C1475 C1472 1.387 . S
C1476 C1477 1.387 . S
C1476 H1480 0.950 . S
C1476 C1485 1.390 . S
C1477 C1476 1.387 . S
C1477 C1479 1.387 . S
H1478 C1485 0.950 . S
C1479 C1477 1.387 . S
C1479 C1481 1.390 . S
C1479 H1483 0.950 . S
H1480 C1476 0.950 . S
C1481 C1479 1.390 . S
C1481 C1482 1.387 . S
C1481 H1484 0.950 . S
C1482 C1481 1.387 . S
C1482 C1485 1.387 . S
H1483 C1479 0.950 . S
H1484 C1481 0.950 . S
C1485 C1476 1.390 . S
C1485 H1478 0.950 . S
C1485 C1482 1.387 . S
C1486 C1487 1.387 . S
C1486 H1490 0.950 . S
C1486 C1495 1.390 . S
C1487 C1486 1.387 . S
C1487 C1489 1.387 . S
H1488 C1495 0.950 . S
C1489 C1487 1.387 . S
C1489 C1491 1.390 . S
C1489 H1493 0.950 . S
H1490 C1486 0.950 . S
C1491 C1489 1.390 . S
C1491 C1492 1.387 . S
C1491 H1494 0.950 . S
C1492 C1491 1.387 . S
C1492 C1495 1.387 . S
H1493 C1489 0.950 . S
H1494 C1491 0.950 . S
C1495 C1486 1.390 . S
C1495 H1488 0.950 . S
C1495 C1492 1.387 . S
C1496 C1497 1.387 . S
C1496 H1500 0.950 . S
C1496 C1505 1.390 . S
C1497 C1496 1.387 . S
C1497 C1499 1.387 . S
H1498 C1505 0.950 . S
C1499 C1497 1.387 . S
C1499 C1501 1.390 . S
C1499 H1503 0.950 . S
H1500 C1496 0.950 . S
C1501 C1499 1.390 . S
C1501 C1502 1.387 . S
C1501 H1504 0.950 . S
C1502 C1501 1.387 . S
C1502 C1505 1.387 . S
H1503 C1499 0.950 . S
H1504 C1501 0.950 . S
C1505 C1496 1.390 . S
C1505 H1498 0.950 . S
C1505 C1502 1.387 . S
C1506 C1507 1.387 . S
C1506 H1510 0.950 . S
C1506 C1515 1.390 . S
C1507 C1506 1.387 . S
C1507 C1509 1.387 . S
H1508 C1515 0.950 . S
C1509 C1507 1.387 . S
C1509 C1511 1.390 . S
C1509 H1513 0.950 . S
H1510 C1506 0.950 . S
C1511 C1509 1.390 . S
C1511 C1512 1.387 . S
C1511 H1514 0.950 . S
C1512 C1511 1.387 . S
C1512 C1515 1.387 . S
H1513 C1509 0.950 . S
H1514 C1511 0.950 . S
C1515 C1506 1.390 . S
C1515 H1508 0.950 . S
C1515 C1512 1.387 . S
C1516 C1517 1.387 . S
C1516 H1520 0.950 . S
C1516 C1525 1.390 . S
C1517 C1516 1.387 . S
C1517 C1519 1.387 . S
H1518 C1525 0.950 . S
C1519 C1517 1.387 . S
C1519 C1521 1.390 . S
C1519 H1523 0.950 . S
H1520 C1516 0.950 . S
C1521 C1519 1.390 . S
C1521 C1522 1.387 . S
C1521 H1524 0.950 . S
C1522 C1521 1.387 . S
C1522 C1525 1.387 . S
H1523 C1519 0.950 . S
H1524 C1521 0.950 . S
C1525 C1516 1.390 . S
C1525 H1518 0.950 . S
C1525 C1522 1.387 . S
C1526 C1527 1.387 . S
C1526 H1530 0.950 . S
C1526 C1535 1.390 . S
C1527 C1526 1.387 . S
C1527 C1529 1.387 . S
H1528 C1535 0.950 . S
C1529 C1527 1.387 . S
C1529 C1531 1.390 . S
C1529 H1533 0.950 . S
H1530 C1526 0.950 . S
C1531 C1529 1.390 . S
C1531 C1532 1.387 . S
C1531 H1534 0.950 . S
C1532 C1531 1.387 . S
C1532 C1535 1.387 . S
H1533 C1529 0.950 . S
H1534 C1531 0.950 . S
C1535 C1526 1.390 . S
C1535 H1528 0.950 . S
C1535 C1532 1.387 . S
C1536 C1537 1.387 . S
C1536 H1540 0.950 . S
C1536 C1545 1.390 . S
C1537 C1536 1.387 . S
C1537 C1539 1.387 . S
H1538 C1545 0.950 . S
C1539 C1537 1.387 . S
C1539 C1541 1.390 . S
C1539 H1543 0.950 . S
H1540 C1536 0.950 . S
C1541 C1539 1.390 . S
C1541 C1542 1.387 . S
C1541 H1544 0.950 . S
C1542 C1541 1.387 . S
C1542 C1545 1.387 . S
H1543 C1539 0.950 . S
H1544 C1541 0.950 . S
C1545 C1536 1.390 . S
C1545 H1538 0.950 . S
C1545 C1542 1.387 . S
C1546 C1547 1.387 . S
C1546 H1550 0.950 . S
C1546 C1555 1.390 . S
C1547 C1546 1.387 . S
C1547 C1549 1.387 . S
H1548 C1555 0.950 . S
C1549 C1547 1.387 . S
C1549 C1551 1.390 . S
C1549 H1553 0.950 . S
H1550 C1546 0.950 . S
C1551 C1549 1.390 . S
C1551 C1552 1.387 . S
C1551 H1554 0.950 . S
C1552 C1551 1.387 . S
C1552 C1555 1.387 . S
H1553 C1549 0.950 . S
H1554 C1551 0.950 . S
C1555 C1546 1.390 . S
C1555 H1548 0.950 . S
C1555 C1552 1.387 . S
C1556 C1557 1.387 . S
C1556 H1560 0.950 . S
C1556 C1565 1.390 . S
C1557 C1556 1.387 . S
C1557 C1559 1.387 . S
H1558 C1565 0.950 . S
C1559 C1557 1.387 . S
C1559 C1561 1.390 . S
C1559 H1563 0.950 . S
H1560 C1556 0.950 . S
C1561 C1559 1.390 . S
C1561 C1562 1.387 . S
C1561 H1564 0.950 . S
C1562 C1561 1.387 . S
C1562 C1565 1.387 . S
H1563 C1559 0.950 . S
H1564 C1561 0.950 . S
C1565 C1556 1.390 . S
C1565 H1558 0.950 . S
C1565 C1562 1.387 . S
C1566 C1567 1.387 1_556 S
C1566 H1570 0.950 . S
C1566 C1575 1.390 . S
C1567 C1566 1.387 1_554 S
C1567 C1569 1.387 . S
H1568 C1575 0.950 . S
C1569 C1567 1.387 . S
C1569 C1571 1.390 . S
C1569 H1573 0.950 . S
H1570 C1566 0.950 . S
C1571 C1569 1.390 . S
C1571 C1572 1.387 . S
C1571 H1574 0.950 . S
C1572 C1571 1.387 . S
C1572 C1575 1.387 1_554 S
H1573 C1569 0.950 . S
H1574 C1571 0.950 . S
C1575 C1566 1.390 . S
C1575 H1568 0.950 . S
C1575 C1572 1.387 1_556 S
C1576 C1577 1.387 . S
C1576 H1580 0.950 . S
C1576 C1585 1.390 . S
C1577 C1576 1.387 . S
C1577 C1579 1.387 . S
H1578 C1585 0.950 . S
C1579 C1577 1.387 . S
C1579 C1581 1.390 . S
C1579 H1583 0.950 . S
H1580 C1576 0.950 . S
C1581 C1579 1.390 . S
C1581 C1582 1.387 . S
C1581 H1584 0.950 . S
C1582 C1581 1.387 . S
C1582 C1585 1.387 . S
H1583 C1579 0.950 . S
H1584 C1581 0.950 . S
C1585 C1576 1.390 . S
C1585 H1578 0.950 . S
C1585 C1582 1.387 . S
C1586 C1587 1.387 1_556 S
C1586 H1590 0.950 . S
C1586 C1595 1.390 . S
C1587 C1586 1.387 1_554 S
C1587 C1589 1.387 . S
H1588 C1595 0.950 . S
C1589 C1587 1.387 . S
C1589 C1591 1.390 . S
C1589 H1593 0.950 . S
H1590 C1586 0.950 . S
C1591 C1589 1.390 . S
C1591 C1592 1.387 1_554 S
C1591 H1594 0.950 . S
C1592 C1591 1.387 1_556 S
C1592 C1595 1.387 . S
H1593 C1589 0.950 . S
H1594 C1591 0.950 . S
C1595 C1586 1.390 . S
C1595 H1588 0.950 . S
C1595 C1592 1.387 . S
C1596 C1597 1.387 . S
C1596 H1600 0.950 . S
C1596 C1605 1.390 . S
C1597 C1596 1.387 . S
C1597 C1599 1.387 . S
H1598 C1605 0.950 . S
C1599 C1597 1.387 . S
C1599 C1601 1.390 . S
C1599 H1603 0.950 . S
H1600 C1596 0.950 . S
C1601 C1599 1.390 . S
C1601 C1602 1.387 . S
C1601 H1604 0.950 . S
C1602 C1601 1.387 . S
C1602 C1605 1.387 . S
H1603 C1599 0.950 . S
H1604 C1601 0.950 . S
C1605 C1596 1.390 . S
C1605 H1598 0.950 . S
C1605 C1602 1.387 . S
C1606 C1607 1.387 . S
C1606 H1610 0.950 . S
C1606 C1615 1.390 . S
C1607 C1606 1.387 . S
C1607 C1609 1.387 . S
H1608 C1615 0.950 . S
C1609 C1607 1.387 . S
C1609 C1611 1.390 . S
C1609 H1613 0.950 . S
H1610 C1606 0.950 . S
C1611 C1609 1.390 . S
C1611 C1612 1.387 . S
C1611 H1614 0.950 . S
C1612 C1611 1.387 . S
C1612 C1615 1.387 . S
H1613 C1609 0.950 . S
H1614 C1611 0.950 . S
C1615 C1606 1.390 . S
C1615 H1608 0.950 . S
C1615 C1612 1.387 . S
C657 C109 1.593 . S
C662 C354 1.551 . S
C667 C61 1.366 . S
C672 C365 1.588 . S
C677 C74 1.159 . S
C682 C394 1.166 . S
C692 C397 1.446 . S
C687 C96 1.468 . S
C697 C25 1.574 . S
C702 C435 1.508 . S
C712 C438 1.132 . S
C707 C40 1.119 . S
C722 C465 1.576 . S
C717 C46 1.585 . S
C727 C5 1.336 . S
C732 C494 1.589 . S
C742 C345 1.481 1_655 S
C737 C229 1.214 . S
C747 C249 1.107 . S
C752 C357 1.052 . S
C762 C385 1.447 . S
C757 C271 1.235 . S
C772 C414 1.420 . S
C767 C172 1.353 . S
C777 C236 1.135 . S
C782 C418 1.153 . S
C792 C444 1.704 . S
C787 C242 1.705 . S
C802 C457 0.845 . S
C797 C278 0.854 . S
C812 C485 1.697 . S
C807 C179 1.704 . S
C822 C337 1.507 1_565 S
C817 C159 1.208 . S
C827 C285 1.390 1_554 S
C832 C504 1.619 1_554 S
C842 C535 1.481 . S
C837 C333 1.569 . S
C852 C554 1.064 . S
C847 C320 1.063 . S
C857 C123 1.426 . S
C862 C477 1.364 . S
C867 C138 1.566 . S
C872 C377 1.539 . S
C877 C326 1.679 . S
C882 C565 1.661 . S
C892 C594 1.025 . S
C887 C298 1.016 . S
C902 C355 1.530 . S
C897 C67 1.525 . S
C912 C584 1.567 . S
C907 C110 1.566 . S
C917 C88 1.184 . S
C922 C395 1.164 . S
C927 C75 1.210 . S
C932 C558 1.382 . S
C942 C434 1.479 . S
C937 C11 1.521 . S
C947 C47 1.048 . S
C952 C517 1.137 . S
C962 C464 1.493 . S
C957 C32 1.438 . S
C972 C615 1.621 . S
C967 C26 1.706 . S
C982 C344 1.606 . S
C977 C152 1.602 . S
C992 C578 1.051 . S
C987 C319 1.046 . S
C997 C124 1.446 . S
C1002 C384 1.435 . S
C1007 C284 1.415 . S
C1012 C575 1.421 . S
C1017 C145 1.065 . S
C1022 C417 1.153 . S
C1032 C525 1.632 . S
C1027 C312 1.616 . S
C1037 C117 0.759 . S
C1042 C458 0.770 . S
C1047 C291 1.641 . S
C1052 C604 1.638 . S
C1057 C194 1.597 1_556 S
C1062 C338 1.559 . S
C1067 C180 1.635 . S
C1072 C505 1.612 . S
C1077 C263 1.441 . S
C1082 C454 1.403 . S
C1087 C243 0.926 . S
C1092 C555 1.015 . S
C1102 C598 1.387 . S
C1097 C277 1.353 . S
C1107 C215 1.372 . S
C1112 C378 1.516 . S
C1122 C404 1.584 . S
C1117 C256 1.538 . S
C1132 C375 1.082 . S
C1127 C200 1.114 . S
C1137 C81 1.593 . S
C1142 C634 1.553 . S
C1152 C585 1.589 . S
C1147 C89 1.366 . S
C1157 C102 1.156 1_455 S
C1162 C654 1.168 . S
C1167 C68 1.468 . S
C1172 C557 1.446 . S
C1177 C53 1.574 . S
C1182 C515 1.508 . S
C1192 C518 1.132 . S
C1187 C12 1.121 . S
C1202 C545 1.577 . S
C1197 C18 1.588 . S
C1212 C614 1.586 . S
C1207 C33 1.331 . S
C1222 C625 1.481 . S
C1217 C257 1.213 . S
C1227 C193 1.106 . S
C1232 C577 1.048 . S
C1242 C645 1.447 . S
C1237 C201 1.235 . S
C1252 C574 1.421 . S
C1247 C214 1.353 . S
C1262 C498 1.154 . S
C1257 C264 1.134 . S
C1267 C186 1.705 . S
C1272 C524 1.704 . S
C1282 C537 0.846 . S
C1277 C208 0.854 . S
C1287 C221 1.704 . S
C1292 C605 1.695 . S
C1302 C617 1.509 . S
C1297 C313 1.214 . S
C1307 C131 1.390 . S
C1312 C424 1.619 . S
C1322 C455 1.480 . S
C1317 C151 1.571 . S
C1332 C474 1.065 . S
C1327 C166 1.063 . S
C1342 C597 1.366 . S
C1337 C305 1.426 . S
C1347 C292 1.565 . S
C1352 C637 1.537 . S
C1362 C405 1.663 . S
C1357 C144 1.674 . S
C1372 C374 1.025 . S
C1367 C116 1.017 . S
C1377 C95 1.526 . S
C1382 C635 1.532 . S
C1392 C364 1.567 . S
C1387 C82 1.567 . S
C1397 C60 1.184 . S
C1402 C655 1.162 . S
C1407 C103 1.212 . S
C1412 C398 1.381 . S
C1417 C39 1.520 . S
C1422 C514 1.473 . S
C1432 C437 1.137 . S
C1427 C19 1.049 . S
C1437 C4 1.437 . S
C1442 C544 1.495 . S
C1447 C54 1.706 . S
C1452 C495 1.621 . S
C1462 C624 1.606 . S
C1457 C334 1.603 . S
C1467 C165 1.047 . S
C1472 C358 1.052 . S
C1482 C644 1.436 1_655 S
C1477 C306 1.447 . S
C1487 C130 1.415 . S
C1492 C415 1.422 . S
C1497 C327 1.064 . S
C1502 C497 1.155 . S
C1512 C445 1.632 . S
C1507 C158 1.615 . S
C1517 C299 0.767 . S
C1522 C538 0.764 . S
C1532 C484 1.637 . S
C1527 C137 1.640 . S
C1542 C618 1.561 . S
C1537 C250 1.600 . S
C1552 C425 1.611 1_565 S
C1547 C222 1.635 . S
C1557 C235 1.441 . S
C1562 C534 1.403 . S
C1572 C475 1.015 . S
C1567 C187 0.925 1_554 S
C1577 C207 1.352 . S
C1582 C478 1.387 . S
C1587 C173 1.371 . S
C1592 C638 1.515 . S
C1602 C564 1.583 . S
C1597 C228 1.539 . S
C1612 C595 1.087 . S
C1607 C270 1.117 . S
