# Generated by pormake.
# Topology gar, (4,6)-cn, num edge types: 1
# Building blocks:
#     Node 0, Type 0, BuildingBlock: QUQFOY_clean_sbu_1, # of connection points: 4
#     Node 1, Type 0, BuildingBlock: QUQFOY_clean_sbu_1, # of connection points: 4
#     Node 2, Type 0, BuildingBlock: QUQFOY_clean_sbu_1, # of connection points: 4
#     Node 3, Type 0, BuildingBlock: QUQFOY_clean_sbu_1, # of connection points: 4
#     Node 4, Type 0, BuildingBlock: QUQFOY_clean_sbu_1, # of connection points: 4
#     Node 5, Type 0, BuildingBlock: QUQFOY_clean_sbu_1, # of connection points: 4
#     Node 6, Type 0, BuildingBlock: QUQFOY_clean_sbu_1, # of connection points: 4
#     Node 7, Type 0, BuildingBlock: QUQFOY_clean_sbu_1, # of connection points: 4
#     Node 8, Type 0, BuildingBlock: QUQFOY_clean_sbu_1, # of connection points: 4
#     Node 9, Type 0, BuildingBlock: QUQFOY_clean_sbu_1, # of connection points: 4
#     Node 10, Type 0, BuildingBlock: QUQFOY_clean_sbu_1, # of connection points: 4
#     Node 11, Type 0, BuildingBlock: QUQFOY_clean_sbu_1, # of connection points: 4
#     Node 12, Type 0, BuildingBlock: QUQFOY_clean_sbu_1, # of connection points: 4
#     Node 13, Type 0, BuildingBlock: QUQFOY_clean_sbu_1, # of connection points: 4
#     Node 14, Type 0, BuildingBlock: QUQFOY_clean_sbu_1, # of connection points: 4
#     Node 15, Type 0, BuildingBlock: QUQFOY_clean_sbu_1, # of connection points: 4
#     Node 16, Type 0, BuildingBlock: QUQFOY_clean_sbu_1, # of connection points: 4
#     Node 17, Type 0, BuildingBlock: QUQFOY_clean_sbu_1, # of connection points: 4
#     Node 18, Type 0, BuildingBlock: QUQFOY_clean_sbu_1, # of connection points: 4
#     Node 19, Type 0, BuildingBlock: QUQFOY_clean_sbu_1, # of connection points: 4
#     Node 20, Type 0, BuildingBlock: QUQFOY_clean_sbu_1, # of connection points: 4
#     Node 21, Type 0, BuildingBlock: QUQFOY_clean_sbu_1, # of connection points: 4
#     Node 22, Type 0, BuildingBlock: QUQFOY_clean_sbu_1, # of connection points: 4
#     Node 23, Type 0, BuildingBlock: QUQFOY_clean_sbu_1, # of connection points: 4
#     Node 24, Type 1, BuildingBlock: PAMTOO_clean_sbu_0, # of connection points: 6
#     Node 25, Type 1, BuildingBlock: PAMTOO_clean_sbu_0, # of connection points: 6
#     Node 26, Type 1, BuildingBlock: PAMTOO_clean_sbu_0, # of connection points: 6
#     Node 27, Type 1, BuildingBlock: PAMTOO_clean_sbu_0, # of connection points: 6
#     Node 28, Type 1, BuildingBlock: PAMTOO_clean_sbu_0, # of connection points: 6
#     Node 29, Type 1, BuildingBlock: PAMTOO_clean_sbu_0, # of connection points: 6
#     Node 30, Type 1, BuildingBlock: PAMTOO_clean_sbu_0, # of connection points: 6
#     Node 31, Type 1, BuildingBlock: PAMTOO_clean_sbu_0, # of connection points: 6
#     Node 32, Type 1, BuildingBlock: PAMTOO_clean_sbu_0, # of connection points: 6
#     Node 33, Type 1, BuildingBlock: PAMTOO_clean_sbu_0, # of connection points: 6
#     Node 34, Type 1, BuildingBlock: PAMTOO_clean_sbu_0, # of connection points: 6
#     Node 35, Type 1, BuildingBlock: PAMTOO_clean_sbu_0, # of connection points: 6
#     Node 36, Type 1, BuildingBlock: PAMTOO_clean_sbu_0, # of connection points: 6
#     Node 37, Type 1, BuildingBlock: PAMTOO_clean_sbu_0, # of connection points: 6
#     Node 38, Type 1, BuildingBlock: PAMTOO_clean_sbu_0, # of connection points: 6
#     Node 39, Type 1, BuildingBlock: PAMTOO_clean_sbu_0, # of connection points: 6
#     Edge 40, Type (0, 1), BuildingBlock: TEMPAE_clean_linker_10, # of connection points: 2
#     Edge 41, Type (0, 1), BuildingBlock: TEMPAE_clean_linker_10, # of connection points: 2
#     Edge 42, Type (0, 1), BuildingBlock: TEMPAE_clean_linker_10, # of connection points: 2
#     Edge 43, Type (0, 1), BuildingBlock: TEMPAE_clean_linker_10, # of connection points: 2
#     Edge 44, Type (0, 1), BuildingBlock: TEMPAE_clean_linker_10, # of connection points: 2
#     Edge 45, Type (0, 1), BuildingBlock: TEMPAE_clean_linker_10, # of connection points: 2
#     Edge 46, Type (0, 1), BuildingBlock: TEMPAE_clean_linker_10, # of connection points: 2
#     Edge 47, Type (0, 1), BuildingBlock: TEMPAE_clean_linker_10, # of connection points: 2
#     Edge 48, Type (0, 1), BuildingBlock: TEMPAE_clean_linker_10, # of connection points: 2
#     Edge 49, Type (0, 1), BuildingBlock: TEMPAE_clean_linker_10, # of connection points: 2
#     Edge 50, Type (0, 1), BuildingBlock: TEMPAE_clean_linker_10, # of connection points: 2
#     Edge 51, Type (0, 1), BuildingBlock: TEMPAE_clean_linker_10, # of connection points: 2
#     Edge 52, Type (0, 1), BuildingBlock: TEMPAE_clean_linker_10, # of connection points: 2
#     Edge 53, Type (0, 1), BuildingBlock: TEMPAE_clean_linker_10, # of connection points: 2
#     Edge 54, Type (0, 1), BuildingBlock: TEMPAE_clean_linker_10, # of connection points: 2
#     Edge 55, Type (0, 1), BuildingBlock: TEMPAE_clean_linker_10, # of connection points: 2
#     Edge 56, Type (0, 1), BuildingBlock: TEMPAE_clean_linker_10, # of connection points: 2
#     Edge 57, Type (0, 1), BuildingBlock: TEMPAE_clean_linker_10, # of connection points: 2
#     Edge 58, Type (0, 1), BuildingBlock: TEMPAE_clean_linker_10, # of connection points: 2
#     Edge 59, Type (0, 1), BuildingBlock: TEMPAE_clean_linker_10, # of connection points: 2
#     Edge 60, Type (0, 1), BuildingBlock: TEMPAE_clean_linker_10, # of connection points: 2
#     Edge 61, Type (0, 1), BuildingBlock: TEMPAE_clean_linker_10, # of connection points: 2
#     Edge 62, Type (0, 1), BuildingBlock: TEMPAE_clean_linker_10, # of connection points: 2
#     Edge 63, Type (0, 1), BuildingBlock: TEMPAE_clean_linker_10, # of connection points: 2
#     Edge 64, Type (0, 1), BuildingBlock: TEMPAE_clean_linker_10, # of connection points: 2
#     Edge 65, Type (0, 1), BuildingBlock: TEMPAE_clean_linker_10, # of connection points: 2
#     Edge 66, Type (0, 1), BuildingBlock: TEMPAE_clean_linker_10, # of connection points: 2
#     Edge 67, Type (0, 1), BuildingBlock: TEMPAE_clean_linker_10, # of connection points: 2
#     Edge 68, Type (0, 1), BuildingBlock: TEMPAE_clean_linker_10, # of connection points: 2
#     Edge 69, Type (0, 1), BuildingBlock: TEMPAE_clean_linker_10, # of connection points: 2
#     Edge 70, Type (0, 1), BuildingBlock: TEMPAE_clean_linker_10, # of connection points: 2
#     Edge 71, Type (0, 1), BuildingBlock: TEMPAE_clean_linker_10, # of connection points: 2
#     Edge 72, Type (0, 1), BuildingBlock: TEMPAE_clean_linker_10, # of connection points: 2
#     Edge 73, Type (0, 1), BuildingBlock: TEMPAE_clean_linker_10, # of connection points: 2
#     Edge 74, Type (0, 1), BuildingBlock: TEMPAE_clean_linker_10, # of connection points: 2
#     Edge 75, Type (0, 1), BuildingBlock: TEMPAE_clean_linker_10, # of connection points: 2
#     Edge 76, Type (0, 1), BuildingBlock: TEMPAE_clean_linker_10, # of connection points: 2
#     Edge 77, Type (0, 1), BuildingBlock: TEMPAE_clean_linker_10, # of connection points: 2
#     Edge 78, Type (0, 1), BuildingBlock: TEMPAE_clean_linker_10, # of connection points: 2
#     Edge 79, Type (0, 1), BuildingBlock: TEMPAE_clean_linker_10, # of connection points: 2
#     Edge 80, Type (0, 1), BuildingBlock: TEMPAE_clean_linker_10, # of connection points: 2
#     Edge 81, Type (0, 1), BuildingBlock: TEMPAE_clean_linker_10, # of connection points: 2
#     Edge 82, Type (0, 1), BuildingBlock: TEMPAE_clean_linker_10, # of connection points: 2
#     Edge 83, Type (0, 1), BuildingBlock: TEMPAE_clean_linker_10, # of connection points: 2
#     Edge 84, Type (0, 1), BuildingBlock: TEMPAE_clean_linker_10, # of connection points: 2
#     Edge 85, Type (0, 1), BuildingBlock: TEMPAE_clean_linker_10, # of connection points: 2
#     Edge 86, Type (0, 1), BuildingBlock: TEMPAE_clean_linker_10, # of connection points: 2
#     Edge 87, Type (0, 1), BuildingBlock: TEMPAE_clean_linker_10, # of connection points: 2
#     Edge 88, Type (0, 1), BuildingBlock: TEMPAE_clean_linker_10, # of connection points: 2
#     Edge 89, Type (0, 1), BuildingBlock: TEMPAE_clean_linker_10, # of connection points: 2
#     Edge 90, Type (0, 1), BuildingBlock: TEMPAE_clean_linker_10, # of connection points: 2
#     Edge 91, Type (0, 1), BuildingBlock: TEMPAE_clean_linker_10, # of connection points: 2
#     Edge 92, Type (0, 1), BuildingBlock: TEMPAE_clean_linker_10, # of connection points: 2
#     Edge 93, Type (0, 1), BuildingBlock: TEMPAE_clean_linker_10, # of connection points: 2
#     Edge 94, Type (0, 1), BuildingBlock: TEMPAE_clean_linker_10, # of connection points: 2
#     Edge 95, Type (0, 1), BuildingBlock: TEMPAE_clean_linker_10, # of connection points: 2
#     Edge 96, Type (0, 1), BuildingBlock: TEMPAE_clean_linker_10, # of connection points: 2
#     Edge 97, Type (0, 1), BuildingBlock: TEMPAE_clean_linker_10, # of connection points: 2
#     Edge 98, Type (0, 1), BuildingBlock: TEMPAE_clean_linker_10, # of connection points: 2
#     Edge 99, Type (0, 1), BuildingBlock: TEMPAE_clean_linker_10, # of connection points: 2
#     Edge 100, Type (0, 1), BuildingBlock: TEMPAE_clean_linker_10, # of connection points: 2
#     Edge 101, Type (0, 1), BuildingBlock: TEMPAE_clean_linker_10, # of connection points: 2
#     Edge 102, Type (0, 1), BuildingBlock: TEMPAE_clean_linker_10, # of connection points: 2
#     Edge 103, Type (0, 1), BuildingBlock: TEMPAE_clean_linker_10, # of connection points: 2
#     Edge 104, Type (0, 1), BuildingBlock: TEMPAE_clean_linker_10, # of connection points: 2
#     Edge 105, Type (0, 1), BuildingBlock: TEMPAE_clean_linker_10, # of connection points: 2
#     Edge 106, Type (0, 1), BuildingBlock: TEMPAE_clean_linker_10, # of connection points: 2
#     Edge 107, Type (0, 1), BuildingBlock: TEMPAE_clean_linker_10, # of connection points: 2
#     Edge 108, Type (0, 1), BuildingBlock: TEMPAE_clean_linker_10, # of connection points: 2
#     Edge 109, Type (0, 1), BuildingBlock: TEMPAE_clean_linker_10, # of connection points: 2
#     Edge 110, Type (0, 1), BuildingBlock: TEMPAE_clean_linker_10, # of connection points: 2
#     Edge 111, Type (0, 1), BuildingBlock: TEMPAE_clean_linker_10, # of connection points: 2
#     Edge 112, Type (0, 1), BuildingBlock: TEMPAE_clean_linker_10, # of connection points: 2
#     Edge 113, Type (0, 1), BuildingBlock: TEMPAE_clean_linker_10, # of connection points: 2
#     Edge 114, Type (0, 1), BuildingBlock: TEMPAE_clean_linker_10, # of connection points: 2
#     Edge 115, Type (0, 1), BuildingBlock: TEMPAE_clean_linker_10, # of connection points: 2
#     Edge 116, Type (0, 1), BuildingBlock: TEMPAE_clean_linker_10, # of connection points: 2
#     Edge 117, Type (0, 1), BuildingBlock: TEMPAE_clean_linker_10, # of connection points: 2
#     Edge 118, Type (0, 1), BuildingBlock: TEMPAE_clean_linker_10, # of connection points: 2
#     Edge 119, Type (0, 1), BuildingBlock: TEMPAE_clean_linker_10, # of connection points: 2
#     Edge 120, Type (0, 1), BuildingBlock: TEMPAE_clean_linker_10, # of connection points: 2
#     Edge 121, Type (0, 1), BuildingBlock: TEMPAE_clean_linker_10, # of connection points: 2
#     Edge 122, Type (0, 1), BuildingBlock: TEMPAE_clean_linker_10, # of connection points: 2
#     Edge 123, Type (0, 1), BuildingBlock: TEMPAE_clean_linker_10, # of connection points: 2
#     Edge 124, Type (0, 1), BuildingBlock: TEMPAE_clean_linker_10, # of connection points: 2
#     Edge 125, Type (0, 1), BuildingBlock: TEMPAE_clean_linker_10, # of connection points: 2
#     Edge 126, Type (0, 1), BuildingBlock: TEMPAE_clean_linker_10, # of connection points: 2
#     Edge 127, Type (0, 1), BuildingBlock: TEMPAE_clean_linker_10, # of connection points: 2
#     Edge 128, Type (0, 1), BuildingBlock: TEMPAE_clean_linker_10, # of connection points: 2
#     Edge 129, Type (0, 1), BuildingBlock: TEMPAE_clean_linker_10, # of connection points: 2
#     Edge 130, Type (0, 1), BuildingBlock: TEMPAE_clean_linker_10, # of connection points: 2
#     Edge 131, Type (0, 1), BuildingBlock: TEMPAE_clean_linker_10, # of connection points: 2
#     Edge 132, Type (0, 1), BuildingBlock: TEMPAE_clean_linker_10, # of connection points: 2
#     Edge 133, Type (0, 1), BuildingBlock: TEMPAE_clean_linker_10, # of connection points: 2
#     Edge 134, Type (0, 1), BuildingBlock: TEMPAE_clean_linker_10, # of connection points: 2
#     Edge 135, Type (0, 1), BuildingBlock: TEMPAE_clean_linker_10, # of connection points: 2
# Relax obj value: 0.166
# Max RMSD: 0.280
# Mean RMSD: 0.182
data_MOF--net-gar--node1-QUQFOY_clean_sbu_1--node2-PAMTOO_clean_sbu_0--edge1-TEMPAE_clean_linker_10
_symmetry_space_group_name_H-M    P1
_symmetry_Int_Tables_number       1
_symmetry_cell_setting            triclinic
loop_
_symmetry_equiv_pos_as_xyz
'x, y, z'
_cell_length_a     61.600528
_cell_length_b     61.56604
_cell_length_c     59.33072
_cell_angle_alpha  97.160545
_cell_angle_beta   96.287401
_cell_angle_gamma 107.68294
loop_
_atom_site_label
_atom_site_type_symbol
_atom_site_fract_x
_atom_site_fract_y
_atom_site_fract_z
_atom_type_partial_charge
O0 O 0.05439 0.28964 0.38222 0.0
Cd1 Cd 0.05591 0.30698 0.35397 0.0
Cd2 Cd 0.04319 0.33937 0.39617 0.0
O3 O 0.04817 0.31223 0.41141 0.0
O4 O 0.07212 0.28954 0.3328 0.0
O5 O 0.089 0.32566 0.34872 0.0
C6 C 0.09062 0.3073 0.33679 0.0
C7 C 0.04814 0.37479 0.42131 0.0
C8 C 0.05166 0.29364 0.40318 0.0
C9 C 1.00912 0.31876 0.34903 0.0
O10 O 0.01583 0.33034 0.36933 0.0
O11 O 0.02226 0.30887 0.33927 0.0
O12 O 0.03086 0.35647 0.42048 0.0
O13 O 0.06309 0.37319 0.40811 0.0
O14 O 0.01159 0.72517 0.70875 0.0
Cd15 Cd 0.01702 0.75463 0.73456 0.0
Cd16 Cd 0.0379 0.77783 0.69989 0.0
O17 O 0.02581 0.74458 0.68183 0.0
O18 O 0.99191 0.74891 0.7563 0.0
O19 O 0.99367 0.77327 0.73227 0.0
C20 C 0.983 0.76313 0.74763 0.0
C21 C 0.03692 0.80787 0.67855 0.0
C22 C 0.01711 0.7254 0.68853 0.0
C23 C 0.07094 0.7769 0.74185 0.0
O24 O 0.06773 0.78316 0.72244 0.0
O25 O 0.05328 0.76692 0.75106 0.0
O26 O 0.05006 0.79548 0.67511 0.0
O27 O 0.02413 0.8034 0.6943 0.0
O28 O 0.59816 0.82703 0.88196 0.0
Cd29 Cd 0.57312 0.82758 0.90273 0.0
Cd30 Cd 0.55181 0.83995 0.86136 0.0
O31 O 0.5818 0.83231 0.84891 0.0
O32 O 0.58219 0.81343 0.92944 0.0
O33 O 0.5494 0.79729 0.90571 0.0
C34 C 0.56317 0.79651 0.92344 0.0
C35 C 0.51097 0.82564 0.84565 0.0
C36 C 0.59874 0.82846 0.86078 0.0
C37 C 0.56344 0.87366 0.90742 0.0
O38 O 0.55739 0.86998 0.88563 0.0
O39 O 0.56986 0.8589 0.91725 0.0
O40 O 0.52577 0.84013 0.83633 0.0
O41 O 0.51946 0.81731 0.86217 0.0
O42 O 0.50889 0.21227 0.20113 0.0
Cd43 Cd 0.51532 0.24193 0.22706 0.0
Cd44 Cd 0.5361 0.26445 0.19273 0.0
O45 O 0.52325 0.23137 0.17411 0.0
O46 O 0.49039 0.23699 0.24887 0.0
O47 O 0.49275 0.26128 0.22466 0.0
C48 C 0.48195 0.25148 0.24012 0.0
C49 C 0.53381 0.29541 0.17339 0.0
C50 C 0.51401 0.21227 0.18076 0.0
C51 C 0.56921 0.26358 0.23454 0.0
O52 O 0.56614 0.26946 0.21492 0.0
O53 O 0.55146 0.25398 0.24379 0.0
O54 O 0.54716 0.28354 0.16858 0.0
O55 O 0.52152 0.28978 0.18933 0.0
O56 O 0.05554 0.76721 0.11909 0.0
Cd57 Cd 0.0617 0.79823 0.14097 0.0
Cd58 Cd 0.07901 0.8155 0.10198 0.0
O59 O 0.06433 0.77907 0.08656 0.0
O60 O 0.04542 0.78786 0.1673 0.0
O61 O 0.03631 0.81219 0.14696 0.0
C62 C 0.03258 0.80046 0.16353 0.0
C63 C 0.07108 0.84964 0.08947 0.0
C64 C 0.05754 0.76245 0.09805 0.0
C65 C 0.11314 0.81877 0.14571 0.0
O66 O 0.1102 0.82042 0.12436 0.0
O67 O 0.0959 0.8127 0.15623 0.0
O68 O 0.08395 0.83954 0.0795 0.0
O69 O 0.06193 0.84006 0.10589 0.0
O70 O 0.54459 0.78286 0.45676 0.0
Cd71 Cd 0.52711 0.78198 0.48523 0.0
Cd72 Cd 0.49558 0.79478 0.44161 0.0
O73 O 0.52212 0.78723 0.42679 0.0
O74 O 0.5446 0.76624 0.50657 0.0
O75 O 0.50866 0.74892 0.491 0.0
C76 C 0.52699 0.7476 0.50288 0.0
C77 C 0.46141 0.79205 0.41585 0.0
C78 C 0.5407 0.78428 0.43549 0.0
C79 C 0.51679 0.82971 0.48891 0.0
O80 O 0.50602 0.82277 0.46835 0.0
O81 O 0.52517 0.81614 0.49949 0.0
O82 O 0.48079 0.80798 0.41665 0.0
O83 O 0.46118 0.77723 0.42948 0.0
O84 O 0.56324 0.27502 0.62848 0.0
Cd85 Cd 0.56988 0.30477 0.65165 0.0
Cd86 Cd 0.59408 0.3255 0.61838 0.0
O87 O 0.58124 0.28929 0.60077 0.0
O88 O 0.55019 0.29271 0.675 0.0
O89 O 0.5459 0.32074 0.65722 0.0
C90 C 0.53931 0.30714 0.6718 0.0
C91 C 0.58583 0.35965 0.60571 0.0
C92 C 0.56999 0.27168 0.60926 0.0
C93 C 0.62194 0.32348 0.66426 0.0
O94 O 0.62294 0.33038 0.64473 0.0
O95 O 0.60246 0.31431 0.67026 0.0
O96 O 0.60038 0.35089 0.59717 0.0
O97 O 0.57539 0.34888 0.62085 0.0
O98 O 1.00299 0.2306 0.95744 0.0
Cd99 Cd 1.00288 0.25611 0.93747 0.0
Cd100 Cd 0.99011 0.27718 0.97823 0.0
O101 O 0.99857 0.24776 0.99082 0.0
O102 O 0.01784 0.2483 0.91059 0.0
O103 O 0.03332 0.28031 0.93595 0.0
C104 C 0.03457 0.26734 0.91758 0.0
C105 C 1.00414 0.31836 0.99358 0.0
C106 C 1.00204 0.23046 0.97877 0.0
C107 C 0.95655 0.26489 0.93254 0.0
O108 O 0.95976 0.27068 0.95439 0.0
O109 O 0.97185 0.25916 0.92274 0.0
O110 O 0.98974 0.30369 0.0031 0.0
O111 O 0.01251 0.30958 0.97698 0.0
O112 O 0.44575 0.06146 0.28081 0.0
Cd113 Cd 0.41457 0.05418 0.29218 0.0
Cd114 Cd 0.43601 0.04305 0.32825 0.0
O115 O 0.461 0.04615 0.30736 0.0
O116 O 0.39711 0.0717 0.27686 0.0
O117 O 0.4066 0.07628 0.31479 0.0
C118 C 0.39622 0.0815 0.29712 0.0
C119 C 0.45141 0.05295 0.36707 0.0
C120 C 0.46225 0.05517 0.28925 0.0
C121 C 0.39246 0.00775 0.30175 0.0
O122 O 0.40658 0.01482 0.3204 0.0
O123 O 0.39365 0.02038 0.2863 0.0
O124 O 0.45074 0.03385 0.35503 0.0
O125 O 0.44304 0.0668 0.35716 0.0
O126 O 0.30066 0.22322 0.58051 0.0
Cd127 Cd 0.2956 0.19872 0.55115 0.0
Cd128 Cd 0.27761 0.2295 0.53195 0.0
O129 O 0.28756 0.24867 0.56515 0.0
O130 O 0.31108 0.17666 0.56155 0.0
O131 O 0.32158 0.1962 0.53369 0.0
C132 C 0.32423 0.18116 0.54615 0.0
C133 C 0.28816 0.24228 0.49755 0.0
C134 C 0.29588 0.24205 0.5827 0.0
C135 C 0.24462 0.18252 0.5321 0.0
O136 O 0.24694 0.20291 0.52833 0.0
O137 O 0.26201 0.17711 0.53982 0.0
O138 O 0.27364 0.24922 0.50818 0.0
O139 O 0.29776 0.22905 0.50717 0.0
O140 O 0.12412 0.04545 0.75686 0.0
Cd141 Cd 0.14739 0.04826 0.78584 0.0
Cd142 Cd 0.11589 0.06623 0.80605 0.0
O143 O 0.09797 0.05782 0.77211 0.0
O144 O 0.16958 0.03388 0.77326 0.0
O145 O 0.14992 0.0206 0.80022 0.0
C146 C 0.16501 0.0192 0.78712 0.0
C147 C 0.10042 0.05514 0.83931 0.0
C148 C 0.10548 0.05043 0.75445 0.0
C149 C 0.16418 0.0986 0.80795 0.0
O150 O 0.14389 0.09632 0.81222 0.0
O151 O 0.16904 0.08132 0.79857 0.0
O152 O 0.0955 0.07091 0.82932 0.0
O153 O 0.11308 0.04459 0.82962 0.0
O154 O 0.26535 0.88788 0.09219 0.0
Cd155 Cd 0.2777 0.91992 0.08306 0.0
Cd156 Cd 0.27782 0.89436 0.03949 0.0
O157 O 0.26004 0.8694 0.05671 0.0
O158 O 0.26619 0.94226 0.10077 0.0
O159 O 0.25649 0.93071 0.06296 0.0
C160 C 0.255 0.9434 0.08145 0.0
C161 C 0.27301 0.87932 1.00045 0.0
C162 C 0.25778 0.86929 0.07767 0.0
C163 C 0.32284 0.92928 0.06798 0.0
O164 O 0.31193 0.91425 0.05052 0.0
O165 O 0.31237 0.93474 0.08388 0.0
O166 O 0.28451 0.87271 0.01599 0.0
O167 O 0.26372 0.89473 0.00699 0.0
O168 O 0.28052 0.38066 0.09779 0.0
Cd169 Cd 0.28475 0.40305 0.07373 0.0
Cd170 Cd 0.3028 0.3693 0.05346 0.0
O171 O 0.2918 0.35278 0.08079 0.0
O172 O 0.26939 0.42576 0.08509 0.0
O173 O 0.25772 0.40348 0.0511 0.0
C174 C 0.25533 0.41946 0.06598 0.0
C175 C 0.29376 0.35283 0.01419 0.0
C176 C 0.28408 0.36131 0.09765 0.0
C177 C 0.33517 0.41778 0.06714 0.0
O178 O 0.33311 0.39659 0.06134 0.0
O179 O 0.31782 0.42382 0.07135 0.0
O180 O 0.30761 0.34693 0.02827 0.0
O181 O 0.28376 0.36696 0.02269 0.0
O182 O 0.78712 0.14449 0.11016 0.0
Cd183 Cd 0.77949 0.12538 0.07751 0.0
Cd184 Cd 0.78886 0.16572 0.06437 0.0
O185 O 0.80446 0.17654 0.09775 0.0
O186 O 0.78433 0.09522 0.07846 0.0
O187 O 0.80515 0.12259 0.06113 0.0
C188 C 0.80068 0.10213 0.06653 0.0
C189 C 0.8068 0.18617 0.03758 0.0
C190 C 0.79936 0.16568 0.11423 0.0
C191 C 0.74007 0.13514 0.05373 0.0
O192 O 0.75328 0.15593 0.05712 0.0
O193 O 0.74775 0.11921 0.05889 0.0
O194 O 0.79783 0.19547 0.0531 0.0
O195 O 0.80629 0.16506 0.0376 0.0
O196 O 0.15405 0.51158 0.21815 0.0
Cd197 Cd 0.18116 0.52599 0.24478 0.0
Cd198 Cd 0.14983 0.53841 0.26739 0.0
O199 O 0.12837 0.51897 0.23823 0.0
O200 O 0.20332 0.50861 0.24338 0.0
O201 O 0.18343 0.51053 0.27219 0.0
C202 C 0.19849 0.50311 0.26299 0.0
C203 C 0.13189 0.54008 0.30001 0.0
C204 C 0.13332 0.5104 0.21968 0.0
C205 C 0.19077 0.57604 0.2567 0.0
O206 O 0.17199 0.57024 0.2648 0.0
O207 O 0.19866 0.56072 0.24791 0.0
O208 O 0.12715 0.5493 0.28266 0.0
O209 O 0.14674 0.52921 0.29882 0.0
O210 O 0.79402 0.88533 0.60552 0.0
Cd211 Cd 0.7989 0.90727 0.58152 0.0
Cd212 Cd 0.81267 0.87076 0.55885 0.0
O213 O 0.80416 0.85659 0.5885 0.0
O214 O 0.78628 0.93184 0.59365 0.0
O215 O 0.77159 0.90893 0.56027 0.0
C216 C 0.77116 0.92581 0.57531 0.0
C217 C 0.80058 0.85183 0.52045 0.0
C218 C 0.79718 0.86585 0.60554 0.0
C219 C 0.84736 0.91887 0.56986 0.0
O220 O 0.84308 0.89761 0.56195 0.0
O221 O 0.8322 0.92605 0.57827 0.0
O222 O 0.81525 0.84655 0.53414 0.0
O223 O 0.79122 0.86646 0.52912 0.0
O224 O 0.95245 0.05029 0.24029 0.0
Cd225 Cd 0.93125 0.04666 0.26547 0.0
Cd226 Cd 0.96772 0.03047 0.2857 0.0
O227 O 0.98089 0.03894 0.25533 0.0
O228 O 0.90762 0.06134 0.25584 0.0
O229 O 0.93164 0.07404 0.28858 0.0
C230 C 0.9146 0.07571 0.2749 0.0
C231 C 0.98931 0.03872 0.32304 0.0
C232 C 0.97145 0.04632 0.23893 0.0
C233 C 0.91785 0.99798 0.27607 0.0
O234 O 0.93911 1.00141 0.2828 0.0
O235 O 0.91124 0.01376 0.26862 0.0
O236 O 0.99079 0.02285 0.30746 0.0
O237 O 0.97715 0.05142 0.3169 0.0
O238 O 0.32062 0.68096 0.60873 0.0
Cd239 Cd 0.31086 0.66145 0.57617 0.0
Cd240 Cd 0.30589 0.69937 0.5652 0.0
O241 O 0.32486 0.71423 0.59687 0.0
O242 O 0.32404 0.63588 0.57602 0.0
O243 O 0.33305 0.6627 0.55377 0.0
C244 C 0.33549 0.64423 0.56036 0.0
C245 C 0.31381 0.71855 0.53435 0.0
C246 C 0.32673 0.70289 0.61299 0.0
C247 C 0.263 0.65935 0.56224 0.0
O248 O 0.27147 0.68114 0.5639 0.0
O249 O 0.27615 0.64716 0.56457 0.0
O250 O 0.31891 0.69983 0.53562 0.0
O251 O 0.30498 0.72647 0.5509 0.0
O252 O 0.457 0.55716 0.74817 0.0
Cd253 Cd 0.43481 0.5524 0.77241 0.0
Cd254 Cd 0.47063 0.53704 0.79396 0.0
O255 O 0.48548 0.5469 0.76488 0.0
O256 O 0.41062 0.56592 0.76141 0.0
O257 O 0.43313 0.57929 0.79497 0.0
C258 C 0.41644 0.58038 0.78041 0.0
C259 C 0.48826 0.54711 0.83287 0.0
C260 C 0.47645 0.55392 0.74795 0.0
C261 C 0.42252 0.50277 0.78125 0.0
O262 O 0.44371 0.50638 0.78854 0.0
O263 O 0.41572 0.51883 0.77466 0.0
O264 O 0.49433 0.53349 0.81834 0.0
O265 O 0.47362 0.55661 0.82494 0.0
O266 O 0.65791 0.01482 0.71862 0.0
Cd267 Cd 0.68447 0.03017 0.74554 0.0
Cd268 Cd 0.65252 0.04381 0.76701 0.0
O269 O 0.63216 0.02407 0.73732 0.0
O270 O 0.70679 0.01292 0.74575 0.0
O271 O 0.6864 0.01606 0.77392 0.0
C272 C 0.7017 0.00836 0.76557 0.0
C273 C 0.63243 0.04547 0.79819 0.0
C274 C 0.63726 0.01435 0.71944 0.0
C275 C 0.69448 0.08048 0.7564 0.0
O276 O 0.67581 0.07525 0.76477 0.0
O277 O 0.70188 0.06476 0.74762 0.0
O278 O 0.62922 0.0552 0.78076 0.0
O279 O 0.64721 0.03445 0.79806 0.0
O280 O 0.78788 0.7117 0.08334 0.0
Cd281 Cd 0.7854 0.6895 0.05307 0.0
Cd282 Cd 0.77003 0.72383 0.03639 0.0
O283 O 0.78123 0.74148 0.07016 0.0
O284 O 0.79776 0.66559 0.06437 0.0
O285 O 0.81368 0.68677 0.03959 0.0
C286 C 0.81352 0.67062 0.05158 0.0
C287 C 0.7806 0.73925 0.00308 0.0
C288 C 0.78604 0.73186 0.08701 0.0
C289 C 0.73546 0.67636 0.03261 0.0
O290 O 0.73863 0.69768 0.0321 0.0
O291 O 0.75235 0.66933 0.0382 0.0
O292 O 0.7664 0.74564 0.01467 0.0
O293 O 0.7897 0.7248 0.01099 0.0
O294 O 0.89707 0.54556 0.76118 0.0
Cd295 Cd 0.86996 0.54501 0.77812 0.0
Cd296 Cd 0.90802 0.55622 0.81942 0.0
O297 O 0.92401 0.56303 0.79118 0.0
O298 O 0.84514 0.54548 0.75418 0.0
O299 O 0.86116 0.5735 0.78411 0.0
C300 C 0.84652 0.56534 0.76532 0.0
C301 C 0.93649 0.56817 0.85217 0.0
C302 C 0.91803 0.55578 0.76974 0.0
C303 C 0.86539 0.5114 0.81036 0.0
O304 O 0.88482 0.52431 0.82142 0.0
O305 O 0.85608 0.51703 0.79287 0.0
O306 O 0.93511 0.55131 0.83646 0.0
O307 O 0.92139 0.57865 0.84961 0.0
O308 O 0.77375 0.42806 0.57681 0.0
Cd309 Cd 0.78906 0.45128 0.5567 0.0
Cd310 Cd 0.79185 0.41412 0.5294 0.0
O311 O 0.77311 0.39775 0.55237 0.0
O312 O 0.77049 0.45995 0.53152 0.0
O313 O 0.78325 0.4804 0.56668 0.0
C314 C 0.7726 0.47815 0.54615 0.0
C315 C 0.78295 0.39353 0.49212 0.0
C316 C 0.76831 0.40631 0.571 0.0
C317 C 0.83625 0.45051 0.55225 0.0
O318 O 0.82671 0.43094 0.53959 0.0
O319 O 0.82408 0.46184 0.56051 0.0
O320 O 0.79323 0.38702 0.50874 0.0
O321 O 0.77724 0.41193 0.49666 0.0
O322 O 0.62728 0.54042 0.26336 0.0
Cd323 Cd 0.65169 0.5432 0.29141 0.0
Cd324 Cd 0.62019 0.56149 0.31347 0.0
O325 O 0.6014 0.55234 0.27974 0.0
O326 O 0.6736 0.52928 0.27734 0.0
O327 O 0.65515 0.51523 0.30473 0.0
C328 C 0.66967 0.5142 0.29084 0.0
C329 C 0.60546 0.55185 0.34767 0.0
C330 C 0.60843 0.54506 0.26167 0.0
C331 C 0.66847 0.59371 0.31368 0.0
O332 O 0.64835 0.59145 0.31851 0.0
O333 O 0.6732 0.57641 0.3041 0.0
O334 O 0.60013 0.56699 0.33697 0.0
O335 O 0.61808 0.54109 0.33824 0.0
Dy336 Dy 0.06412 0.05822 0.05166 0.0
Dy337 Dy 0.01258 0.02734 0.02769 0.0
C338 C 0.05376 0.03779 0.99707 0.0
O339 O 0.05047 0.08469 0.03704 0.0
O340 O 0.01176 0.06458 0.03055 0.0
O341 O 0.09808 0.08169 0.05078 0.0
O342 O 0.08932 0.07012 0.08251 0.0
O343 O 0.01185 0.03091 0.06566 0.0
O344 O 0.04168 0.06439 0.07749 0.0
O345 O 0.03041 1.00028 0.03097 0.0
O346 O 0.06102 0.02171 0.05843 0.0
O347 O 0.98215 0.99823 0.02717 0.0
O348 O 0.98287 0.02041 1.00164 0.0
C349 C 0.02892 0.08407 0.03152 0.0
O350 O 0.06903 0.04539 0.01597 0.0
O351 O 0.03152 0.03155 0.99771 0.0
C352 C 0.12652 0.07271 0.07465 0.0
C353 C 0.15994 0.05026 0.07833 0.0
C354 C 0.15475 0.05822 0.05791 0.0
C355 C 0.13813 0.06932 0.05604 0.0
C356 C 0.1331 0.06636 0.09563 0.0
C357 C 0.14954 0.05506 0.0974 0.0
C358 C 0.10589 0.08014 0.07165 0.0
C359 C 0.0235 0.04858 0.08166 0.0
C360 C 0.04769 1.00139 0.04685 0.0
C361 C 0.94902 0.0078 0.01718 0.0
C362 C 0.90927 0.01694 0.02855 0.0
C363 C 0.9312 0.03065 0.04026 0.0
C364 C 0.95087 0.02607 0.03466 0.0
C365 C 0.92728 0.99381 0.00556 0.0
C366 C 0.90744 0.99836 0.01122 0.0
C367 C 0.97008 1.0041 0.01104 0.0
H368 H 0.16258 0.05469 0.04297 0.0
H369 H 0.13361 0.07418 0.03968 0.0
H370 H 0.12466 0.06904 0.11034 0.0
H371 H 0.15357 0.04937 0.11344 0.0
H372 H 0.93327 0.0454 0.05331 0.0
H373 H 0.96761 0.03708 0.04372 0.0
H374 H 0.92568 0.97962 0.99203 0.0
H375 H 0.89075 0.98749 1.00199 0.0
Dy376 Dy 0.29898 0.78832 0.2516 0.0
Dy377 Dy 0.27242 0.79662 0.29431 0.0
C378 C 0.30482 0.83857 0.27602 0.0
O379 O 0.32021 0.78219 0.28214 0.0
O380 O 0.30866 0.80227 0.31091 0.0
O381 O 0.31596 0.79846 0.22284 0.0
O382 O 0.31322 0.76507 0.23271 0.0
O383 O 0.27263 0.76019 0.28877 0.0
O384 O 0.26879 0.7571 0.25021 0.0
O385 O 0.24591 0.79253 0.26346 0.0
O386 O 0.26954 0.79907 0.2358 0.0
O387 O 0.2443 0.78343 0.3129 0.0
O388 O 0.27002 0.81692 0.32576 0.0
C389 C 0.32298 0.79186 0.30378 0.0
O390 O 0.31616 0.82479 0.26888 0.0
O391 O 0.28442 0.83029 0.282 0.0
C392 C 0.30837 0.76711 0.19317 0.0
C393 C 0.28376 0.75516 0.1482 0.0
C394 C 0.30617 0.77146 0.15317 0.0
C395 C 0.31833 0.7773 0.17544 0.0
C396 C 0.28722 0.74902 0.18793 0.0
C397 C 0.27515 0.74289 0.16552 0.0
C398 C 0.31809 0.77812 0.21703 0.0
C399 C 0.26606 0.74733 0.26843 0.0
C400 C 0.24949 0.79711 0.24279 0.0
C401 C 0.26015 0.79171 0.35179 0.0
C402 C 0.27601 0.77837 0.39231 0.0
C403 C 0.28409 0.77312 0.37182 0.0
C404 C 0.27615 0.77964 0.35175 0.0
C405 C 0.2518 0.79688 0.37211 0.0
C406 C 0.2596 0.79009 0.39231 0.0
C407 C 0.25373 0.79977 0.33066 0.0
H408 H 0.31351 0.78156 0.14055 0.0
H409 H 0.33464 0.79125 0.17917 0.0
H410 H 0.27922 0.74076 0.20139 0.0
H411 H 0.25826 0.72988 0.16225 0.0
H412 H 0.29646 0.76382 0.37127 0.0
H413 H 0.28273 0.77544 0.33617 0.0
H414 H 0.23956 0.80632 0.37242 0.0
H415 H 0.25318 0.79435 0.40798 0.0
Dy416 Dy 0.51332 0.04463 0.54924 0.0
Dy417 Dy 0.57599 0.0575 0.55231 0.0
C418 C 0.54938 0.05964 0.51209 0.0
O419 O 0.5182 0.00942 0.54049 0.0
O420 O 0.55835 0.01835 0.54156 0.0
O421 O 0.48513 0.03795 0.5214 0.0
O422 O 0.47944 0.04135 0.55729 0.0
O423 O 0.55684 0.06096 0.58175 0.0
O424 O 0.52307 0.03367 0.58179 0.0
O425 O 0.56964 0.0925 0.55833 0.0
O426 O 0.52975 0.08391 0.55973 0.0
O427 O 0.60157 0.05519 0.57894 0.0
O428 O 0.61208 0.06895 0.54851 0.0
C429 C 0.53704 1.00322 0.53868 0.0
O430 O 0.5412 0.05304 0.53003 0.0
O431 O 0.57125 0.06276 0.5151 0.0
C432 C 0.45751 0.05566 0.53176 0.0
C433 C 0.43147 0.08626 0.52886 0.0
C434 C 0.45571 0.09479 0.53425 0.0
C435 C 0.46854 0.07963 0.53586 0.0
C436 C 0.43348 0.04698 0.52576 0.0
C437 C 0.42056 0.0621 0.52435 0.0
C438 C 0.47071 0.03979 0.53573 0.0
C439 C 0.54488 0.04327 0.59031 0.0
C440 C 0.55099 0.0989 0.56095 0.0
C441 C 0.63314 0.04665 0.56547 0.0
C442 C 0.66044 0.01713 0.5634 0.0
C443 C 0.65487 0.02521 0.5845 0.0
C444 C 0.64148 0.0399 0.58553 0.0
C445 C 0.6387 0.03862 0.54432 0.0
C446 C 0.65231 0.02407 0.54333 0.0
C447 C 0.61837 0.06161 0.56711 0.0
H448 H 0.4648 0.11321 0.53745 0.0
H449 H 0.48708 0.0866 0.54059 0.0
H450 H 0.42463 0.02851 0.52282 0.0
H451 H 0.40195 0.05481 0.52055 0.0
H452 H 0.66115 0.02044 0.60031 0.0
H453 H 0.63754 0.04595 0.60205 0.0
H454 H 0.63247 0.04343 0.52853 0.0
H455 H 0.65621 0.018 0.52681 0.0
Dy456 Dy 0.31357 0.29678 0.7994 0.0
Dy457 Dy 0.26481 0.30867 0.79199 0.0
C458 C 0.31287 0.34561 0.78913 0.0
O459 O 0.3102 0.31455 0.83387 0.0
O460 O 0.27084 0.30462 0.8288 0.0
O461 O 0.35013 0.30861 0.81228 0.0
O462 O 0.33345 0.27358 0.79422 0.0
O463 O 0.25599 0.27027 0.7886 0.0
O464 O 0.28773 0.26799 0.81103 0.0
O465 O 0.27561 0.30649 0.75695 0.0
O466 O 0.29691 0.28226 0.76277 0.0
O467 O 0.22871 0.29951 0.77729 0.0
O468 O 0.2456 0.33176 0.80056 0.0
C469 C 0.29083 0.31188 0.84234 0.0
O470 O 0.32044 0.32838 0.78319 0.0
O471 O 0.29374 0.34234 0.79799 0.0
C472 C 0.37141 0.29271 0.78832 0.0
C473 C 0.40724 0.29957 0.76129 0.0
C474 C 0.41111 0.29624 0.78426 0.0
C475 C 0.39336 0.29283 0.79761 0.0
C476 C 0.36741 0.29611 0.76546 0.0
C477 C 0.38513 0.29942 0.75204 0.0
C478 C 0.35303 0.28963 0.80274 0.0
C479 C 0.26612 0.25887 0.80111 0.0
C480 C 0.28591 0.29193 0.74896 0.0
C481 C 0.20676 0.31223 0.80329 0.0
C482 C 0.16984 0.30357 0.82915 0.0
C483 C 0.1661 0.30542 0.80569 0.0
C484 C 0.18437 0.30974 0.79294 0.0
C485 C 0.21057 0.31012 0.82659 0.0
C486 C 0.19236 0.30593 0.83939 0.0
C487 C 0.22599 0.31721 0.78978 0.0
H488 H 0.42782 0.29595 0.79183 0.0
H489 H 0.39679 0.2903 0.81523 0.0
H490 H 0.3506 0.2963 0.75803 0.0
H491 H 0.38162 0.30216 0.73451 0.0
H492 H 0.14898 0.3033 0.79707 0.0
H493 H 0.18101 0.31117 0.77496 0.0
H494 H 0.2277 0.31192 0.83498 0.0
H495 H 0.19603 0.3049 0.85742 0.0
Dy496 Dy 0.05065 0.02537 0.53903 0.0
Dy497 Dy 0.03724 0.07397 0.5426 0.0
C498 C 1.00008 0.02633 0.5479 0.0
O499 O 0.04775 0.03335 0.50291 0.0
O500 O 0.02309 0.05461 0.5068 0.0
O501 O 0.04413 0.98923 0.52561 0.0
O502 O 0.07459 0.00812 0.55047 0.0
O503 O 0.06927 0.07917 0.5268 0.0
O504 O 0.08332 0.0554 0.5461 0.0
O505 O 0.05275 0.07224 0.57858 0.0
O506 O 0.0448 0.03297 0.5751 0.0
O507 O 0.04928 0.11118 0.55315 0.0
O508 O 0.01443 0.09374 0.53542 0.0
C509 C 0.03293 0.04269 0.49385 0.0
O510 O 0.01265 0.01477 0.53878 0.0
O511 O 1.00718 0.049 0.5535 0.0
C512 C 0.05661 0.96913 0.55365 0.0
C513 C 0.0491 0.93496 0.58246 0.0
C514 C 0.03107 0.94296 0.57434 0.0
C515 C 0.03482 0.95999 0.56021 0.0
C516 C 0.07452 0.96102 0.56157 0.0
C517 C 0.07085 0.94419 0.57584 0.0
C518 C 0.0614 0.98787 0.53962 0.0
C519 C 0.08665 0.07306 0.53516 0.0
C520 C 0.05042 0.0534 0.58788 0.0
C521 C 0.03348 0.13155 0.52799 0.0
C522 C 0.03916 0.16665 0.50023 0.0
C523 C 0.04689 0.17226 0.5241 0.0
C524 C 0.04401 0.15492 0.53779 0.0
C525 C 0.02597 0.12582 0.5041 0.0
C526 C 0.02869 0.14319 0.4904 0.0
C527 C 0.03047 0.1136 0.543 0.0
H528 H 0.01417 0.93637 0.57929 0.0
H529 H 0.02075 0.96616 0.55463 0.0
H530 H 0.09149 0.96788 0.55685 0.0
H531 H 0.08504 0.93824 0.58157 0.0
H532 H 0.0548 0.19013 0.53228 0.0
H533 H 0.04993 0.15979 0.55615 0.0
H534 H 0.01798 0.10793 0.49598 0.0
H535 H 0.0228 0.13822 0.47206 0.0
Dy536 Dy 0.29453 0.82318 0.7905 0.0
Dy537 Dy 0.28395 0.77136 0.80504 0.0
C538 C 0.28333 0.81458 0.84036 0.0
O539 O 0.3305 0.82033 0.79759 0.0
O540 O 0.32248 0.78886 0.81652 0.0
O541 O 0.30998 0.86042 0.79675 0.0
O542 O 0.28669 0.84318 0.76518 0.0
O543 O 0.303 0.77135 0.77558 0.0
O544 O 0.29249 0.79865 0.75855 0.0
O545 O 0.24957 0.77183 0.7865 0.0
O546 O 0.25664 0.81092 0.79355 0.0
O547 O 0.27032 0.73421 0.79465 0.0
O548 O 0.28575 0.74911 0.83009 0.0
C549 C 0.33742 0.80622 0.80957 0.0
O550 O 0.29625 0.82836 0.82844 0.0
O551 O 0.27385 0.79233 0.83288 0.0
C552 C 0.28426 0.87903 0.78159 0.0
C553 C 0.25604 0.90751 0.78586 0.0
C554 C 0.26389 0.89912 0.80507 0.0
C555 C 0.27773 0.88486 0.80293 0.0
C556 C 0.27668 0.88766 0.7625 0.0
C557 C 0.26266 0.90168 0.76458 0.0
C558 C 0.29765 0.86288 0.77848 0.0
C559 C 0.30111 0.78163 0.75791 0.0
C560 C 0.24192 0.7898 0.78784 0.0
C561 C 0.29349 0.7157 0.81364 0.0
C562 C 0.32215 0.68755 0.80935 0.0
C563 C 0.33178 0.71178 0.81497 0.0
C564 C 0.31761 0.72568 0.81702 0.0
C565 C 0.28379 0.69159 0.80822 0.0
C566 C 0.29794 0.67764 0.8061 0.0
C567 C 0.27847 0.7304 0.81452 0.0
H568 H 0.25893 0.90318 0.82164 0.0
H569 H 0.28305 0.87817 0.81789 0.0
H570 H 0.28138 0.88329 0.74586 0.0
H571 H 0.25709 0.90809 0.74953 0.0
H572 H 0.3503 0.72005 0.81788 0.0
H573 H 0.32552 0.74426 0.8211 0.0
H574 H 0.26522 0.68354 0.80529 0.0
H575 H 0.28987 0.65911 0.8014 0.0
Dy576 Dy 0.51908 0.0469 0.02273 0.0
Dy577 Dy 0.5404 0.02759 0.06577 0.0
C578 C 0.53595 1.00255 0.01461 0.0
O579 O 0.48918 0.02003 0.0316 0.0
O580 O 0.50331 0.01948 0.06891 0.0
O581 O 0.49865 0.03847 0.98893 0.0
O582 O 0.51597 0.07427 0.00435 0.0
O583 O 0.53797 0.06222 0.08085 0.0
O584 O 0.51053 0.06616 0.0535 0.0
O585 O 0.56928 0.04369 0.04767 0.0
O586 O 0.55521 0.07036 0.03363 0.0
O587 O 0.57009 0.03174 0.09073 0.0
O588 O 0.53905 1.00268 0.08874 0.0
C589 C 0.48612 0.0145 0.05197 0.0
O590 O 0.53699 0.02253 0.00836 0.0
O591 O 0.53207 0.99901 0.03541 0.0
C592 C 0.51897 0.06276 0.9659 0.0
C593 C 0.54337 0.06179 0.92855 0.0
C594 C 0.55472 0.06514 0.95117 0.0
C595 C 0.54261 0.06548 0.9696 0.0
C596 C 0.50759 0.05993 0.94343 0.0
C597 C 0.51973 0.05945 0.92483 0.0
C598 C 0.50614 0.05977 0.98535 0.0
C599 C 0.52271 0.07225 0.07433 0.0
C600 C 0.57253 0.06341 0.04032 0.0
C601 C 0.55989 0.02038 0.12536 0.0
C602 C 0.55617 0.02968 0.17207 0.0
C603 C 0.55704 0.04662 0.15807 0.0
C604 C 0.55876 0.04197 0.1349 0.0
C605 C 0.56009 1.00378 0.13945 0.0
C606 C 0.5582 0.00837 0.16269 0.0
C607 C 0.55922 0.01469 0.10052 0.0
H608 H 0.57278 0.06654 0.95458 0.0
H609 H 0.55156 0.06698 0.98675 0.0
H610 H 0.48926 0.0574 0.94025 0.0
H611 H 0.51059 0.05695 0.90755 0.0
H612 H 0.55502 0.063 0.16469 0.0
H613 H 0.55836 0.05497 0.12426 0.0
H614 H 0.56091 0.98702 0.1323 0.0
H615 H 0.55753 0.99503 0.17315 0.0
Dy616 Dy 0.27486 0.26072 0.28028 0.0
Dy617 Dy 0.30367 0.3129 0.30441 0.0
C618 C 0.2966 0.27348 0.33402 0.0
O619 O 0.24723 0.27797 0.28119 0.0
O620 O 0.26663 0.30616 0.31163 0.0
O621 O 0.24682 0.22972 0.28117 0.0
O622 O 0.2697 0.22966 0.25605 0.0
O623 O 0.292 0.31655 0.26824 0.0
O624 O 0.27594 0.27881 0.24988 0.0
O625 O 0.33225 0.30114 0.29125 0.0
O626 O 0.31251 0.2623 0.28064 0.0
O627 O 0.32307 0.34854 0.30367 0.0
O628 O 0.31405 0.3379 0.33572 0.0
C629 C 0.24706 0.2938 0.29823 0.0
O630 O 0.2784 0.26205 0.31865 0.0
O631 O 0.31232 0.29118 0.32914 0.0
C632 C 0.26037 0.19797 0.27514 0.0
C633 C 0.28309 0.1677 0.28955 0.0
C634 C 0.28128 0.18568 0.30546 0.0
C635 C 0.27005 0.20071 0.29831 0.0
C636 C 0.2606 0.17898 0.25959 0.0
C637 C 0.27183 0.16384 0.26677 0.0
C638 C 0.2543 0.2171 0.26662 0.0
C639 C 0.28295 0.30113 0.24945 0.0
C640 C 0.33193 0.27992 0.28355 0.0
C641 C 0.3103 0.37343 0.32819 0.0
C642 C 0.28574 0.40522 0.32657 0.0
C643 C 0.30808 0.41063 0.32069 0.0
C644 C 0.32025 0.39485 0.32151 0.0
C645 C 0.28851 0.36854 0.33527 0.0
C646 C 0.27642 0.38433 0.33458 0.0
C647 C 0.32121 0.35527 0.32488 0.0
H648 H 0.28967 0.18887 0.32314 0.0
H649 H 0.27029 0.21534 0.31064 0.0
H650 H 0.25348 0.17676 0.24161 0.0
H651 H 0.27316 0.15018 0.25414 0.0
H652 H 0.31564 0.42647 0.3142 0.0
H653 H 0.33694 0.39889 0.31582 0.0
H654 H 0.2803 0.3521 0.34043 0.0
H655 H 0.2594 0.37981 0.33953 0.0
Dy656 Dy 0.54071 0.52186 0.04651 0.0
Dy657 Dy 0.53108 0.5723 0.05471 0.0
C658 C 0.49132 0.52508 0.05404 0.0
O659 O 0.53759 0.53048 0.01078 0.0
O660 O 0.51995 0.55848 0.01698 0.0
O661 O 0.53055 0.48514 0.03352 0.0
O662 O 0.56366 0.50248 0.05482 0.0
O663 O 0.56224 0.57817 0.03772 0.0
O664 O 0.5749 0.54997 0.05062 0.0
O665 O 0.54928 0.56856 0.08854 0.0
O666 O 0.53645 0.52908 0.08336 0.0
O667 O 0.54329 0.6089 0.06802 0.0
O668 O 0.50819 0.59261 0.05037 0.0
C669 C 0.52678 0.54427 0.00313 0.0
O670 O 0.50257 0.51444 0.04161 0.0
O671 O 0.50105 0.54642 0.06485 0.0
C672 C 0.545 0.46382 0.05914 0.0
C673 C 0.53941 0.42818 0.08624 0.0
C674 C 0.52037 0.43453 0.07768 0.0
C675 C 0.52314 0.45223 0.06436 0.0
C676 C 0.56396 0.45741 0.0676 0.0
C677 C 0.56123 0.43989 0.08103 0.0
C678 C 0.54864 0.48266 0.04516 0.0
C679 C 0.57864 0.56921 0.04205 0.0
C680 C 0.54546 0.54914 0.09698 0.0
C681 C 0.5276 0.63036 0.04412 0.0
C682 C 0.53278 0.66516 0.01605 0.0
C683 C 0.54773 0.65178 0.01655 0.0
C684 C 0.54509 0.63452 0.03032 0.0
C685 C 0.51258 0.6435 0.0436 0.0
C686 C 0.51508 0.66066 0.02971 0.0
C687 C 0.52453 0.61209 0.05864 0.0
H688 H 0.50337 0.42601 0.08153 0.0
H689 H 0.50819 0.45685 0.05824 0.0
H690 H 0.58097 0.466 0.06379 0.0
H691 H 0.57621 0.43526 0.08705 0.0
H692 H 0.56174 0.65485 0.00657 0.0
H693 H 0.55681 0.62448 0.03023 0.0
H694 H 0.4988 0.64041 0.0539 0.0
H695 H 0.50295 0.67022 0.02952 0.0
Dy696 Dy 0.79257 0.31308 0.28498 0.0
Dy697 Dy 0.78337 0.26496 0.30617 0.0
C698 C 0.78319 0.31076 0.33643 0.0
O699 O 0.82814 0.30886 0.28999 0.0
O700 O 0.82176 0.28445 0.31666 0.0
O701 O 0.80943 0.34982 0.28717 0.0
O702 O 0.78269 0.33099 0.25851 0.0
O703 O 0.80003 0.26068 0.27564 0.0
O704 O 0.78809 0.28508 0.25517 0.0
O705 O 0.74828 0.26303 0.28726 0.0
O706 O 0.75496 0.30187 0.28923 0.0
O707 O 0.76942 0.22764 0.30025 0.0
O708 O 0.78776 0.24619 0.33385 0.0
C709 C 0.83609 0.29821 0.30544 0.0
O710 O 0.79629 0.32225 0.32303 0.0
O711 O 0.77294 0.28838 0.3312 0.0
C712 C 0.78311 0.3684 0.27358 0.0
C713 C 0.75704 0.39888 0.2797 0.0
C714 C 0.76501 0.38992 0.29844 0.0
C715 C 0.77777 0.37471 0.29539 0.0
C716 C 0.77538 0.37749 0.25492 0.0
C717 C 0.76243 0.39252 0.25791 0.0
C718 C 0.79535 0.35128 0.26974 0.0
C719 C 0.79613 0.26774 0.25625 0.0
C720 C 0.7404 0.28066 0.28591 0.0
C721 C 0.79481 0.21171 0.31943 0.0
C722 C 0.82345 0.18377 0.31344 0.0
C723 C 0.79953 0.17371 0.31302 0.0
C724 C 0.78539 0.18756 0.31599 0.0
C725 C 0.81868 0.22184 0.32012 0.0
C726 C 0.83284 0.20805 0.31731 0.0
C727 C 0.77957 0.22617 0.32024 0.0
H728 H 0.76095 0.39429 0.31538 0.0
H729 H 0.78319 0.36765 0.31004 0.0
H730 H 0.77913 0.37274 0.23792 0.0
H731 H 0.75674 0.39929 0.24317 0.0
H732 H 0.79159 0.15511 0.30971 0.0
H733 H 0.76699 0.17938 0.31504 0.0
H734 H 0.82635 0.24045 0.32245 0.0
H735 H 0.85117 0.21647 0.31806 0.0
Dy736 Dy 0.04103 0.56585 0.5367 0.0
Dy737 Dy 0.05819 0.54568 0.5813 0.0
C738 C 0.05463 0.51932 0.52994 0.0
O739 O 0.01104 0.53685 0.54151 0.0
O740 O 0.02022 0.53702 0.57997 0.0
O741 O 0.02021 0.55982 0.50342 0.0
O742 O 0.04229 0.59441 0.51848 0.0
O743 O 0.05555 0.58061 0.59495 0.0
O744 O 0.02907 0.58339 0.56612 0.0
O745 O 0.08913 0.55894 0.56493 0.0
O746 O 0.07817 0.5862 0.54825 0.0
O747 O 0.08393 0.5506 0.61087 0.0
O748 O 0.05448 0.51928 0.60272 0.0
C749 C 1.00519 0.53107 0.56103 0.0
O750 O 0.0557 0.53878 0.52237 0.0
O751 O 0.05207 0.51715 0.55138 0.0
C752 C 0.04166 0.58149 0.47931 0.0
C753 C 0.06202 0.57407 0.44017 0.0
C754 C 0.07521 0.57965 0.46218 0.0
C755 C 0.06507 0.58317 0.48157 0.0
C756 C 0.02864 0.5768 0.45735 0.0
C757 C 0.03876 0.57311 0.43786 0.0
C758 C 0.03025 0.58068 0.49975 0.0
C759 C 0.03995 0.58979 0.58743 0.0
C760 C 0.09419 0.57792 0.55608 0.0
C761 C 0.06553 0.53661 0.64147 0.0
C762 C 0.0427 0.54492 0.6784 0.0
C763 C 0.05844 0.56342 0.6711 0.0
C764 C 0.06973 0.55933 0.65275 0.0
C765 C 0.05174 0.51803 0.65038 0.0
C766 C 0.04033 0.52214 0.6687 0.0
C767 C 0.07155 0.53247 0.61835 0.0
H768 H 0.09307 0.5802 0.46448 0.0
H769 H 0.07526 0.58612 0.49839 0.0
H770 H 0.01046 0.57504 0.45532 0.0
H771 H 0.02829 0.56901 0.42104 0.0
H772 H 0.06088 0.58112 0.67862 0.0
H773 H 0.0804 0.57408 0.64644 0.0
H774 H 0.04831 0.50039 0.64199 0.0
H775 H 0.02826 0.50755 0.67397 0.0
Dy776 Dy 0.81489 0.79476 0.30452 0.0
Dy777 Dy 0.76417 0.80439 0.29874 0.0
C778 C 0.81098 0.8424 0.29285 0.0
O779 O 0.81177 0.81261 0.33902 0.0
O780 O 0.77237 0.80005 0.33519 0.0
O781 O 0.85188 0.80801 0.31556 0.0
O782 O 0.83546 0.77218 0.29973 0.0
O783 O 0.75663 0.76619 0.29479 0.0
O784 O 0.78981 0.76452 0.31526 0.0
O785 O 0.77197 0.80071 0.26253 0.0
O786 O 0.79941 0.78235 0.26745 0.0
O787 O 0.7277 0.79484 0.28567 0.0
O788 O 0.74462 0.82656 0.30964 0.0
C789 C 0.79267 0.80863 0.34816 0.0
O790 O 0.8197 0.82584 0.28775 0.0
O791 O 0.79201 0.83869 0.30208 0.0
C792 C 0.87265 0.79119 0.29134 0.0
C793 C 0.90685 0.79581 0.26222 0.0
C794 C 0.91277 0.79822 0.28624 0.0
C795 C 0.89586 0.79594 0.30061 0.0
C796 C 0.86663 0.78889 0.26742 0.0
C797 C 0.88351 0.79115 0.25302 0.0
C798 C 0.85497 0.78887 0.30672 0.0
C799 C 0.76798 0.75494 0.30609 0.0
C800 C 0.78517 0.78934 0.25419 0.0
C801 C 0.70565 0.80724 0.31201 0.0
C802 C 0.66938 0.79965 0.33875 0.0
C803 C 0.68418 0.78612 0.33904 0.0
C804 C 0.70221 0.78994 0.32588 0.0
C805 C 0.69082 0.82058 0.31151 0.0
C806 C 0.67292 0.81686 0.3247 0.0
C807 C 0.72501 0.81227 0.29864 0.0
H808 H 0.93047 0.80149 0.29396 0.0
H809 H 0.90091 0.79779 0.319 0.0
H810 H 0.84884 0.78531 0.25989 0.0
H811 H 0.87828 0.78945 0.23468 0.0
H812 H 0.68214 0.77289 0.34981 0.0
H813 H 0.71359 0.77957 0.32671 0.0
H814 H 0.69319 0.83404 0.30098 0.0
H815 H 0.66172 0.82741 0.32379 0.0
Dy816 Dy 0.80762 0.29853 0.77687 0.0
Dy817 Dy 0.77619 0.2954 0.81819 0.0
C818 C 0.80998 0.34293 0.81155 0.0
O819 O 0.82791 0.28733 0.80439 0.0
O820 O 0.81081 0.29592 0.8355 0.0
O821 O 0.82911 0.31934 0.75612 0.0
O822 O 0.82264 0.28229 0.75114 0.0
O823 O 0.77787 0.26041 0.80589 0.0
O824 O 0.77988 0.26439 0.76867 0.0
O825 O 0.75195 0.29755 0.78785 0.0
O826 O 0.77716 0.30818 0.76207 0.0
O827 O 0.74596 0.27731 0.83186 0.0
O828 O 0.77111 0.30847 0.85195 0.0
C829 C 0.82726 0.2899 0.82666 0.0
O830 O 0.82223 0.33139 0.80196 0.0
O831 O 0.78904 0.33242 0.81499 0.0
C832 C 0.8217 0.3004 0.71846 0.0
C833 C 0.80111 0.30948 0.67765 0.0
C834 C 0.82477 0.32053 0.68584 0.0
C835 C 0.83498 0.31598 0.70611 0.0
C836 C 0.79859 0.2879 0.70934 0.0
C837 C 0.78842 0.29229 0.68898 0.0
C838 C 0.83014 0.30133 0.74272 0.0
C839 C 0.77483 0.25123 0.78426 0.0
C840 C 0.75664 0.30469 0.76834 0.0
C841 C 0.75851 0.27701 0.87049 0.0
C842 C 0.7748 0.2581 0.90678 0.0
C843 C 0.77958 0.25272 0.88463 0.0
C844 C 0.7715 0.26208 0.86665 0.0
C845 C 0.75305 0.28192 0.89244 0.0
C846 C 0.76103 0.27234 0.91053 0.0
C847 C 0.75405 0.28979 0.8523 0.0
H848 H 0.835 0.33406 0.67769 0.0
H849 H 0.85272 0.32602 0.71309 0.0
H850 H 0.78792 0.27599 0.71879 0.0
H851 H 0.77027 0.28325 0.6829 0.0
H852 H 0.78983 0.2415 0.88129 0.0
H853 H 0.77616 0.25831 0.84988 0.0
H854 H 0.74339 0.29371 0.89575 0.0
H855 H 0.75718 0.2767 0.92756 0.0
Dy856 Dy 0.77519 0.77176 0.79046 0.0
Dy857 Dy 0.80548 0.82378 0.81486 0.0
C858 C 0.7931 0.78385 0.84442 0.0
O859 O 0.74754 0.78843 0.79575 0.0
O860 O 0.76884 0.82132 0.82085 0.0
O861 O 0.76475 0.73539 0.79174 0.0
O862 O 0.74925 0.74794 0.76363 0.0
O863 O 0.79298 0.8271 0.77878 0.0
O864 O 0.78524 0.78978 0.76105 0.0
O865 O 0.8331 0.81048 0.80143 0.0
O866 O 0.81235 0.77198 0.78907 0.0
O867 O 0.82677 0.85874 0.8139 0.0
O868 O 0.81781 0.8487 0.84618 0.0
C869 C 0.74861 0.8069 0.81033 0.0
O870 O 0.77521 0.77344 0.82843 0.0
O871 O 0.81018 0.80077 0.84014 0.0
C872 C 0.75424 0.71153 0.75589 0.0
C873 C 0.76228 0.67252 0.73343 0.0
C874 C 0.78024 0.69379 0.73947 0.0
C875 C 0.77621 0.71318 0.75057 0.0
C876 C 0.73582 0.69109 0.74801 0.0
C877 C 0.73978 0.67171 0.73667 0.0
C878 C 0.75111 0.72988 0.772 0.0
C879 C 0.78901 0.81172 0.76004 0.0
C880 C 0.83217 0.78928 0.79271 0.0
C881 C 0.81586 0.88495 0.83886 0.0
C882 C 0.79193 0.91724 0.83698 0.0
C883 C 0.78376 0.89794 0.84775 0.0
C884 C 0.79554 0.88191 0.84862 0.0
C885 C 0.82496 0.9051 0.82963 0.0
C886 C 0.81309 0.92112 0.82867 0.0
C887 C 0.82557 0.86587 0.83524 0.0
H888 H 0.79783 0.69506 0.73749 0.0
H889 H 0.79057 0.72896 0.75646 0.0
H890 H 0.7187 0.68971 0.75185 0.0
H891 H 0.72555 0.65568 0.73187 0.0
H892 H 0.7677 0.89471 0.85463 0.0
H893 H 0.78802 0.86656 0.85589 0.0
H894 H 0.84053 0.90776 0.82193 0.0
H895 H 0.81974 0.93574 0.82009 0.0
Dy896 Dy 0.57599 0.56684 0.56357 0.0
Dy897 Dy 0.52519 0.53619 0.53831 0.0
C898 C 0.56615 0.54456 0.50969 0.0
O899 O 0.55682 0.59294 0.56205 0.0
O900 O 0.53095 0.57284 0.53051 0.0
O901 O 0.60486 0.59762 0.56473 0.0
O902 O 0.60712 0.57349 0.58769 0.0
O903 O 0.52007 0.54593 0.57488 0.0
O904 O 0.55708 0.56473 0.59354 0.0
O905 O 0.53756 0.50831 0.55168 0.0
O906 O 0.57572 0.52949 0.56443 0.0
O907 O 0.48905 0.51836 0.53855 0.0
O908 O 0.50177 0.52222 0.50632 0.0
C909 C 0.54195 0.59267 0.54423 0.0
O910 O 0.5771 0.56271 0.52546 0.0
O911 O 0.54819 0.52863 0.51395 0.0
C912 C 0.64007 0.59063 0.5721 0.0
C913 C 0.67924 0.58065 0.56033 0.0
C914 C 0.65995 0.57646 0.54348 0.0
C915 C 0.64042 0.5813 0.54936 0.0
C916 C 0.6599 0.59648 0.58853 0.0
C917 C 0.67943 0.59154 0.58268 0.0
C918 C 0.61832 0.59144 0.57928 0.0
C919 C 0.53489 0.55598 0.59383 0.0
C920 C 0.55862 0.50948 0.56064 0.0
C921 C 0.4664 0.52852 0.51001 0.0
C922 C 0.43597 0.55445 0.50664 0.0
C923 C 0.4582 0.56294 0.501 0.0
C924 C 0.47329 0.55013 0.5027 0.0
C925 C 0.44373 0.51933 0.5142 0.0
C926 C 0.42858 0.53218 0.51248 0.0
C927 C 0.48363 0.51738 0.51652 0.0
H928 H 0.65927 0.56782 0.52622 0.0
H929 H 0.62518 0.5765 0.53647 0.0
H930 H 0.65985 0.60366 0.60615 0.0
H931 H 0.69419 0.595 0.59592 0.0
H932 H 0.46426 0.57994 0.49623 0.0
H933 H 0.49072 0.55769 0.4994 0.0
H934 H 0.43816 0.50281 0.52003 0.0
H935 H 0.41161 0.5253 0.51715 0.0
Dy936 Dy 1.00464 0.53503 0.04526 0.0
Dy937 Dy 0.05879 0.54734 0.03528 0.0
C938 C 0.01791 0.54952 0.99715 0.0
O939 O 1.00545 0.49933 0.03148 0.0
O940 O 0.0446 0.50809 0.03152 0.0
O941 O 0.96755 0.5211 0.03653 0.0
O942 O 0.98323 0.54051 0.07055 0.0
O943 O 0.05945 0.54852 0.0729 0.0
O944 O 0.02378 0.5227 0.07228 0.0
O945 O 0.05676 0.58341 0.04319 0.0
O946 O 0.01989 0.57438 0.0522 0.0
O947 O 0.09564 0.56148 0.04625 0.0
O948 O 0.08201 0.54118 0.01228 0.0
C949 C 0.02373 0.49279 0.02904 0.0
O950 O 1.00202 0.53931 0.00879 0.0
O951 O 0.04013 0.55549 0.00462 0.0
C952 C 0.94932 0.54644 0.05378 0.0
C953 C 0.92226 0.57617 0.05132 0.0
C954 C 0.93142 0.56929 0.03201 0.0
C955 C 0.94494 0.55471 0.03325 0.0
C956 C 0.94008 0.5532 0.07303 0.0
C957 C 0.92677 0.56798 0.07186 0.0
C958 C 0.96426 0.53169 0.0557 0.0
C959 C 0.04513 0.53309 0.08215 0.0
C960 C 0.03951 0.58978 0.04983 0.0
C961 C 0.11554 0.53679 0.03159 0.0
C962 C 0.14432 0.50911 0.03756 0.0
C963 C 0.12708 0.50878 0.05142 0.0
C964 C 0.11277 0.5224 0.0484 0.0
C965 C 0.13258 0.53714 0.0177 0.0
C966 C 0.1468 0.52343 0.02061 0.0
C967 C 0.10026 0.55084 0.02786 0.0
H968 H 0.92845 0.57549 0.01602 0.0
H969 H 0.9521 0.55009 0.01818 0.0
H970 H 0.94331 0.54717 0.08906 0.0
H971 H 0.91977 0.57279 0.08696 0.0
H972 H 0.12479 0.49823 0.06483 0.0
H973 H 0.09956 0.52169 0.05919 0.0
H974 H 0.1348 0.54791 0.00446 0.0
H975 H 0.15955 0.52386 0.00932 0.0
C976 C 1.00868 0.19128 0.97395 0.0
C977 C 1.00523 0.20949 0.98864 0.0
C978 C 0.01187 0.17142 0.9818 0.0
C979 C 0.01174 0.16892 0.00527 0.0
C980 C 1.00819 0.18711 0.02032 0.0
C981 C 1.005 0.20696 0.01194 0.0
C982 C 0.01555 0.15301 0.96476 0.0
C983 C 1.00785 0.18565 0.04544 0.0
C984 C 1.00161 0.10653 0.01919 0.0
C985 C 0.02413 0.10605 0.026 0.0
C986 C 0.99731 0.12677 0.01315 0.0
C987 C 0.01583 0.14756 0.01375 0.0
C988 C 0.03853 0.14726 0.02099 0.0
C989 C 0.04235 0.12684 0.02692 0.0
C990 C 0.97277 0.12571 0.00563 0.0
C991 C 0.05906 0.16854 0.02203 0.0
H992 H 1.00896 0.19247 0.95591 0.0
H993 H 1.00239 0.22054 0.02373 0.0
H994 H 0.03256 0.15095 0.97005 0.0
H995 H 1.00219 0.13613 0.96449 0.0
H996 H 0.01488 0.15712 0.94704 0.0
H997 H 1.00454 0.20072 0.055 0.0
H998 H 0.99433 0.16961 0.04737 0.0
H999 H 0.02462 0.18469 0.05342 0.0
H1000 H 0.9872 0.09091 0.01828 0.0
H1001 H 0.05988 0.12717 0.03208 0.0
H1002 H 0.9705 0.12807 0.98738 0.0
H1003 H 0.96887 0.13998 0.01595 0.0
H1004 H 0.96011 0.109 0.00738 0.0
H1005 H 0.06044 0.1728 0.00451 0.0
H1006 H 0.07548 0.16622 0.02922 0.0
H1007 H 0.05677 0.18356 0.03274 0.0
C1008 C 0.1469 0.83416 0.17801 0.0
C1009 C 0.13594 0.81905 0.15743 0.0
C1010 C 0.16656 0.83191 0.19099 0.0
C1011 C 0.17487 0.8134 0.18388 0.0
C1012 C 0.16383 0.79819 0.16298 0.0
C1013 C 0.14482 0.80143 0.14991 0.0
C1014 C 0.17805 0.84899 0.21269 0.0
C1015 C 0.17075 0.77736 0.15505 0.0
C1016 C 0.23515 0.81347 0.20918 0.0
C1017 C 0.23045 0.80081 0.22724 0.0
C1018 C 0.2174 0.81796 0.1952 0.0
C1019 C 0.19417 0.80919 0.1989 0.0
C1020 C 0.18929 0.79591 0.21673 0.0
C1021 C 0.20741 0.79218 0.2308 0.0
C1022 C 0.2235 0.83212 0.17644 0.0
C1023 C 0.16481 0.78531 0.22077 0.0
H1024 H 0.13989 0.84757 0.18412 0.0
H1025 H 0.13599 0.78921 0.13442 0.0
H1026 H 0.17546 0.84018 0.22786 0.0
H1027 H 0.19692 0.85593 0.21268 0.0
H1028 H 0.17108 0.86366 0.21468 0.0
H1029 H 0.16646 0.77215 0.13607 0.0
H1030 H 0.18939 0.78042 0.16033 0.0
H1031 H 0.16106 0.76267 0.16293 0.0
H1032 H 0.25282 0.82031 0.20623 0.0
H1033 H 0.20345 0.7822 0.2445 0.0
H1034 H 0.21716 0.84719 0.17873 0.0
H1035 H 0.21484 0.82157 0.15945 0.0
H1036 H 0.24239 0.83849 0.17625 0.0
H1037 H 0.15704 0.79906 0.22505 0.0
H1038 H 0.16375 0.77497 0.23491 0.0
H1039 H 0.15426 0.77393 0.20482 0.0
C1040 C 0.51483 0.86952 0.4842 0.0
C1041 C 0.52027 0.85489 0.49895 0.0
C1042 C 0.5179 0.89312 0.49182 0.0
C1043 C 0.52645 0.90321 0.51517 0.0
C1044 C 0.5319 0.8887 0.53038 0.0
C1045 C 0.52896 0.86495 0.52215 0.0
C1046 C 0.51209 0.9074 0.47458 0.0
C1047 C 0.54081 0.8983 0.55547 0.0
C1048 C 0.55289 0.97013 0.52738 0.0
C1049 C 0.53439 0.97754 0.53329 0.0
C1050 C 0.55079 0.94632 0.5222 0.0
C1051 C 0.52973 0.92886 0.52313 0.0
C1052 C 0.51117 0.93621 0.52964 0.0
C1053 C 0.51364 0.96016 0.53444 0.0
C1054 C 0.57109 0.93986 0.5151 0.0
C1055 C 0.48844 0.91866 0.53125 0.0
H1056 H 0.5083 0.86258 0.46619 0.0
H1057 H 0.53333 0.85427 0.53392 0.0
H1058 H 0.49853 0.91448 0.47985 0.0
H1059 H 0.52753 0.92231 0.47405 0.0
H1060 H 0.50591 0.89725 0.45696 0.0
H1061 H 0.54361 0.88494 0.56535 0.0
H1062 H 0.55735 0.91258 0.5573 0.0
H1063 H 0.52842 0.90567 0.56315 0.0
H1064 H 0.56911 0.98301 0.52642 0.0
H1065 H 0.49918 0.96526 0.5392 0.0
H1066 H 0.56658 0.93067 0.49705 0.0
H1067 H 0.57533 0.92786 0.52597 0.0
H1068 H 0.58668 0.9552 0.51641 0.0
H1069 H 0.4802 0.90869 0.51392 0.0
H1070 H 0.47633 0.92685 0.53841 0.0
H1071 H 0.49127 0.90615 0.54226 0.0
C1072 C 0.50824 0.32379 0.68184 0.0
C1073 C 0.51978 0.30756 0.68433 0.0
C1074 C 0.48963 0.32392 0.69365 0.0
C1075 C 0.48233 0.30739 0.7082 0.0
C1076 C 0.4939 0.29098 0.71072 0.0
C1077 C 0.51245 0.2913 0.69883 0.0
C1078 C 0.4778 0.34176 0.6906 0.0
C1079 C 0.48668 0.27299 0.72598 0.0
C1080 C 0.44865 0.31713 0.75646 0.0
C1081 C 0.42615 0.30289 0.74707 0.0
C1082 C 0.46693 0.31943 0.74371 0.0
C1083 C 0.46268 0.30713 0.72099 0.0
C1084 C 0.4399 0.29324 0.71118 0.0
C1085 C 0.42192 0.29133 0.7243 0.0
C1086 C 0.4909 0.33456 0.75478 0.0
C1087 C 0.43463 0.27972 0.68708 0.0
H1088 H 0.51377 0.33641 0.67068 0.0
H1089 H 0.52118 0.27864 0.70087 0.0
H1090 H 0.45924 0.33307 0.68373 0.0
H1091 H 0.4788 0.35233 0.70749 0.0
H1092 H 0.48557 0.35348 0.67875 0.0
H1093 H 0.49733 0.26131 0.72592 0.0
H1094 H 0.48811 0.28157 0.74392 0.0
H1095 H 0.46835 0.26236 0.72022 0.0
H1096 H 0.45201 0.32644 0.7739 0.0
H1097 H 0.40465 0.28015 0.71695 0.0
H1098 H 0.49844 0.34711 0.7436 0.0
H1099 H 0.50224 0.32374 0.75687 0.0
H1100 H 0.49107 0.34424 0.77193 0.0
H1101 H 0.44147 0.29128 0.67479 0.0
H1102 H 0.41583 0.27108 0.68135 0.0
H1103 H 0.4433 0.26632 0.68633 0.0
C1104 C 0.04825 0.82818 0.64552 0.0
C1105 C 0.03685 0.82651 0.66478 0.0
C1106 C 0.04898 0.84582 0.63242 0.0
C1107 C 0.03825 0.86251 0.63879 0.0
C1108 C 0.02655 0.86087 0.65813 0.0
C1109 C 0.02587 0.84282 0.67082 0.0
C1110 C 0.06144 0.84671 0.61183 0.0
C1111 C 0.01506 0.87841 0.66563 0.0
C1112 C 0.06175 0.9196 0.61717 0.0
C1113 C 0.04541 0.91706 0.59775 0.0
C1114 C 0.05918 0.90239 0.63112 0.0
C1115 C 0.03991 0.88192 0.62545 0.0
C1116 C 0.02307 0.87948 0.60617 0.0
C1117 C 0.02595 0.89711 0.59264 0.0
C1118 C 0.07741 0.90589 0.65166 0.0
C1119 C 1.00239 0.85788 0.59935 0.0
H1120 H 0.05669 0.81561 0.64059 0.0
H1121 H 0.01705 0.84171 0.68568 0.0
H1122 H 0.04966 0.84655 0.59621 0.0
H1123 H 0.07613 0.86303 0.61446 0.0
H1124 H 0.06816 0.83196 0.60864 0.0
H1125 H 1.00626 0.87449 0.68072 0.0
H1126 H 0.02812 0.89589 0.67015 0.0
H1127 H 1.00221 0.87901 0.6513 0.0
H1128 H 0.07665 0.93512 0.62145 0.0
H1129 H 0.01332 0.89493 0.5776 0.0
H1130 H 0.08638 0.89285 0.649 0.0
H1131 H 0.06932 0.90334 0.66735 0.0
H1132 H 0.09047 0.92339 0.65469 0.0
H1133 H 1.00819 0.84284 0.59428 0.0
H1134 H 0.99016 0.8592 0.58476 0.0
H1135 H 0.99308 0.85435 0.61415 0.0
C1136 C 0.47027 0.81524 0.85557 0.0
C1137 C 0.48518 0.82072 0.83923 0.0
C1138 C 0.44649 0.81297 0.85079 0.0
C1139 C 0.43669 0.8154 0.82877 0.0
C1140 C 0.45153 0.82019 0.81196 0.0
C1141 C 0.47545 0.82324 0.81749 0.0
C1142 C 0.43195 0.8086 0.86966 0.0
C1143 C 0.44213 0.82213 0.788 0.0
C1144 C 0.37025 0.78929 0.81208 0.0
C1145 C 0.36284 0.80884 0.81435 0.0
C1146 C 0.39396 0.79117 0.8161 0.0
C1147 C 0.41113 0.81316 0.82349 0.0
C1148 C 0.40368 0.83297 0.82604 0.0
C1149 C 0.37988 0.83063 0.82102 0.0
C1150 C 0.40061 0.76951 0.81214 0.0
C1151 C 0.42088 0.85674 0.83451 0.0
H1152 H 0.47741 0.81358 0.87255 0.0
H1153 H 0.48658 0.8275 0.80464 0.0
H1154 H 0.42424 0.8226 0.87287 0.0
H1155 H 0.41752 0.79214 0.86432 0.0
H1156 H 0.44207 0.80771 0.88601 0.0
H1157 H 0.45528 0.82407 0.77634 0.0
H1158 H 0.42715 0.80656 0.78061 0.0
H1159 H 0.43591 0.83727 0.7886 0.0
H1160 H 0.35743 0.77237 0.80656 0.0
H1161 H 0.37453 0.8459 0.82291 0.0
H1162 H 0.40878 0.76659 0.82859 0.0
H1163 H 0.41349 0.7715 0.8002 0.0
H1164 H 0.38553 0.75396 0.80486 0.0
H1165 H 0.43093 0.857 0.85132 0.0
H1166 H 0.41246 0.87031 0.83657 0.0
H1167 H 0.43332 0.86111 0.8223 0.0
C1168 C 0.52163 0.19143 0.14467 0.0
C1169 C 0.51187 0.19023 0.16507 0.0
C1170 C 0.52227 0.17152 0.13056 0.0
C1171 C 0.51255 0.1494 0.13647 0.0
C1172 C 0.50201 0.14786 0.15664 0.0
C1173 C 0.50198 0.16822 0.17077 0.0
C1174 C 0.534 0.1743 0.10954 0.0
C1175 C 0.49104 0.12469 0.16348 0.0
C1176 C 0.50023 0.09878 0.08677 0.0
C1177 C 0.5194 0.09114 0.0909 0.0
C1178 C 0.49724 0.1169 0.10194 0.0
C1179 C 0.51401 0.12818 0.12166 0.0
C1180 C 0.5332 0.12028 0.12612 0.0
C1181 C 0.53554 0.10184 0.11089 0.0
C1182 C 0.47627 0.12428 0.0966 0.0
C1183 C 0.55175 0.13184 0.14662 0.0
H1184 H 0.52949 0.20816 0.13992 0.0
H1185 H 0.49444 0.1669 0.18641 0.0
H1186 H 0.54858 0.16724 0.11092 0.0
H1187 H 0.52175 0.16435 0.0939 0.0
H1188 H 0.54074 0.19266 0.10723 0.0
H1189 H 0.48213 0.12615 0.17862 0.0
H1190 H 0.47838 0.11295 0.14891 0.0
H1191 H 0.50441 0.11653 0.16767 0.0
H1192 H 0.48746 0.09058 0.07159 0.0
H1193 H 0.55042 0.0962 0.1144 0.0
H1194 H 0.48163 0.14198 0.09232 0.0
H1195 H 0.46745 0.12482 0.11189 0.0
H1196 H 0.46376 0.11249 0.08192 0.0
H1197 H 0.56045 0.15006 0.14489 0.0
H1198 H 0.56496 0.123 0.14842 0.0
H1199 H 0.54403 0.13216 0.16264 0.0
C1200 C 0.11806 0.28484 0.32729 0.0
C1201 C 0.11329 0.30594 0.32961 0.0
C1202 C 0.13967 0.28328 0.32231 0.0
C1203 C 0.15723 0.3031 0.31856 0.0
C1204 C 0.15229 0.32436 0.32026 0.0
C1205 C 0.13081 0.32561 0.32619 0.0
C1206 C 0.14391 0.26034 0.32164 0.0
C1207 C 0.16971 0.34591 0.31567 0.0
C1208 C 0.22136 0.30475 0.32569 0.0
C1209 C 0.22431 0.29693 0.30322 0.0
C1210 C 0.1999 0.30665 0.33087 0.0
C1211 C 0.18064 0.30152 0.31315 0.0
C1212 C 0.18377 0.29429 0.29031 0.0
C1213 C 0.20517 0.29168 0.28575 0.0
C1214 C 0.19771 0.31365 0.35559 0.0
C1215 C 0.16447 0.28941 0.27051 0.0
H1216 H 0.10503 0.2695 0.33015 0.0
H1217 H 0.12763 0.34207 0.32786 0.0
H1218 H 0.14729 0.25445 0.30434 0.0
H1219 H 0.15946 0.26228 0.33411 0.0
H1220 H 0.12906 0.24673 0.32579 0.0
H1221 H 0.16282 0.36063 0.31584 0.0
H1222 H 0.18537 0.35108 0.32885 0.0
H1223 H 0.17513 0.34247 0.29871 0.0
H1224 H 0.23574 0.30876 0.3395 0.0
H1225 H 0.20699 0.28579 0.26829 0.0
H1226 H 0.18344 0.30014 0.36069 0.0
H1227 H 0.19334 0.3299 0.35758 0.0
H1228 H 0.21382 0.31628 0.36755 0.0
H1229 H 0.14985 0.27428 0.27237 0.0
H1230 H 0.16999 0.28582 0.25361 0.0
H1231 H 0.15798 0.30439 0.27061 0.0
C1232 C 0.99898 0.03979 0.212 0.0
C1233 C 0.98163 0.04919 0.2172 0.0
C1234 C 1.00691 0.0406 0.19054 0.0
C1235 C 0.99747 0.05122 0.17381 0.0
C1236 C 0.98053 0.0614 0.17929 0.0
C1237 C 0.97281 0.06019 0.20074 0.0
C1238 C 0.02491 0.02944 0.18549 0.0
C1239 C 0.97006 0.07308 0.16221 0.0
C1240 C 0.02893 0.0681 0.12303 0.0
C1241 C 0.01658 0.04984 0.10513 0.0
C1242 C 0.02302 0.06877 0.14541 0.0
C1243 C 1.00435 0.0507 0.1502 0.0
C1244 C 0.99179 0.03229 0.13218 0.0
C1245 C 0.99798 0.03211 0.10999 0.0
C1246 C 0.03679 0.08884 0.16395 0.0
C1247 C 0.97177 0.01264 0.13634 0.0
H1248 H 1.00591 0.03117 0.22444 0.0
H1249 H 0.95951 0.06765 0.20446 0.0
H1250 H 0.01747 0.01471 0.17108 0.0
H1251 H 0.03968 0.04196 0.17998 0.0
H1252 H 0.03145 0.02297 0.20062 0.0
H1253 H 0.95813 0.0814 0.16954 0.0
H1254 H 0.98384 0.08643 0.15632 0.0
H1255 H 0.96036 0.0602 0.14684 0.0
H1256 H 0.04335 0.08188 0.11962 0.0
H1257 H 0.98827 0.01785 0.09644 0.0
H1258 H 0.04451 0.08244 0.17845 0.0
H1259 H 0.02526 0.09789 0.17087 0.0
H1260 H 0.05081 0.1015 0.15757 0.0
H1261 H 0.97758 1.00416 0.15018 0.0
H1262 H 0.96399 0.9994 0.12068 0.0
H1263 H 0.95822 0.01941 0.14221 0.0
C1264 C 0.31412 0.71633 0.49219 0.0
C1265 C 0.31563 0.7295 0.51367 0.0
C1266 C 0.31066 0.72516 0.4719 0.0
C1267 C 0.30907 0.74775 0.47334 0.0
C1268 C 0.31264 0.76178 0.49505 0.0
C1269 C 0.31569 0.7524 0.515 0.0
C1270 C 0.30684 0.70967 0.44902 0.0
C1271 C 0.31155 0.78612 0.49726 0.0
C1272 C 0.30831 0.77533 0.41971 0.0
C1273 C 0.2846 0.77125 0.41345 0.0
C1274 C 0.31664 0.76773 0.43917 0.0
C1275 C 0.30081 0.75567 0.45246 0.0
C1276 C 0.27686 0.7515 0.44618 0.0
C1277 C 0.26905 0.75949 0.42679 0.0
C1278 C 0.34229 0.77269 0.44552 0.0
C1279 C 0.25944 0.73847 0.45986 0.0
H1280 H 0.31402 0.69859 0.49116 0.0
H1281 H 0.31713 0.76269 0.53165 0.0
H1282 H 0.28835 0.70426 0.44141 0.0
H1283 H 0.31693 0.71906 0.43681 0.0
H1284 H 0.31166 0.6939 0.45073 0.0
H1285 H 0.31785 0.79574 0.51509 0.0
H1286 H 0.32196 0.79584 0.48544 0.0
H1287 H 0.29345 0.78554 0.49236 0.0
H1288 H 0.32035 0.78458 0.40943 0.0
H1289 H 0.25072 0.75607 0.42173 0.0
H1290 H 0.34616 0.75629 0.44609 0.0
H1291 H 0.34835 0.78321 0.46297 0.0
H1292 H 0.35224 0.78209 0.4332 0.0
H1293 H 0.26117 0.72117 0.46076 0.0
H1294 H 0.24141 0.73617 0.45228 0.0
H1295 H 0.26275 0.74788 0.47774 0.0
C1296 C 0.59734 0.00688 0.69975 0.0
C1297 C 0.6198 1.00643 0.69842 0.0
C1298 C 0.58272 0.0072 0.68011 0.0
C1299 C 0.59065 0.0066 0.65863 0.0
C1300 C 0.6119 1.00263 0.6567 0.0
C1301 C 0.62637 1.00273 0.67673 0.0
C1302 C 0.56014 0.01133 0.68297 0.0
C1303 C 0.62062 1.00102 0.63397 0.0
C1304 C 0.54884 0.0098 0.60812 0.0
C1305 C 0.55628 0.0336 0.60765 0.0
C1306 C 0.5605 1.0004 0.62395 0.0
C1307 C 0.57946 0.01535 0.63999 0.0
C1308 C 0.58706 0.0394 0.63935 0.0
C1309 C 0.57549 0.04818 0.623 0.0
C1310 C 0.55257 0.9746 0.62352 0.0
C1311 C 0.60717 0.05601 0.65621 0.0
H1312 H 0.59188 0.00913 0.7164 0.0
H1313 H 0.64354 1.0019 0.67548 0.0
H1314 H 0.56208 0.02972 0.68215 0.0
H1315 H 0.54621 1.00059 0.66894 0.0
H1316 H 0.55477 0.00753 0.69972 0.0
H1317 H 0.63285 0.99096 0.63386 0.0
H1318 H 0.60627 0.99294 0.61944 0.0
H1319 H 0.62997 0.01868 0.63111 0.0
H1320 H 0.53425 0.99848 0.5958 0.0
H1321 H 0.58129 0.06656 0.62243 0.0
H1322 H 0.54497 0.9706 0.63922 0.0
H1323 H 0.56745 0.96801 0.62351 0.0
H1324 H 0.53945 0.96518 0.60824 0.0
H1325 H 0.60372 0.05493 0.67408 0.0
H1326 H 0.61063 0.07421 0.65351 0.0
H1327 H 0.62298 0.05127 0.65452 0.0
C1328 C 0.29768 0.32621 0.98024 0.0
C1329 C 0.29105 0.34512 0.9889 0.0
C1330 C 0.29715 0.31995 0.95647 0.0
C1331 C 0.29034 0.33322 0.94089 0.0
C1332 C 0.28339 0.35219 0.94951 0.0
C1333 C 0.28359 0.35774 0.97333 0.0
C1334 C 0.30414 0.29926 0.94805 0.0
C1335 C 0.27635 0.36705 0.93363 0.0
C1336 C 0.31111 0.3312 0.88239 0.0
C1337 C 0.29113 0.3169 0.86765 0.0
C1338 C 0.31107 0.33676 0.90618 0.0
C1339 C 0.2907 0.32741 0.91562 0.0
C1340 C 0.27062 0.31261 0.90085 0.0
C1341 C 0.27102 0.30773 0.87711 0.0
C1342 C 0.33274 0.35294 0.92118 0.0
C1343 C 0.24866 0.30186 0.91012 0.0
H1344 H 0.30344 0.31632 0.99211 0.0
H1345 H 0.27867 0.37253 0.97984 0.0
H1346 H 0.29024 0.28696 0.93484 0.0
H1347 H 0.31977 0.30485 0.93978 0.0
H1348 H 0.30783 0.29002 0.96219 0.0
H1349 H 0.27133 0.38112 0.94298 0.0
H1350 H 0.29084 0.3749 0.92451 0.0
H1351 H 0.26163 0.3563 0.92036 0.0
H1352 H 0.32668 0.3385 0.87526 0.0
H1353 H 0.2555 0.29652 0.86595 0.0
H1354 H 0.3385 0.34418 0.93477 0.0
H1355 H 0.32918 0.36823 0.92992 0.0
H1356 H 0.34705 0.359 0.91121 0.0
H1357 H 0.25201 0.29173 0.92354 0.0
H1358 H 0.23469 0.29028 0.89648 0.0
H1359 H 0.24249 0.31558 0.91837 0.0
C1360 C 1.00401 0.0608 0.36346 0.0
C1361 C 0.999 0.04036 0.34761 0.0
C1362 C 0.01129 0.06164 0.38706 0.0
C1363 C 0.01276 0.04133 0.39523 0.0
C1364 C 1.0079 0.02072 0.37921 0.0
C1365 C 1.00148 0.0206 0.35566 0.0
C1366 C 0.01701 0.08419 0.40333 0.0
C1367 C 1.00845 0.99846 0.38707 0.0
C1368 C 0.04544 0.04416 0.45496 0.0
C1369 C 0.02778 0.04095 0.46848 0.0
C1370 C 0.04095 0.04477 0.43123 0.0
C1371 C 0.01809 0.04125 0.42056 0.0
C1372 C 1.00013 0.03737 0.43413 0.0
C1373 C 1.00527 0.03774 0.45793 0.0
C1374 C 0.06076 0.04976 0.41769 0.0
C1375 C 0.9754 0.03274 0.42352 0.0
H1376 H 1.00216 0.07615 0.35741 0.0
H1377 H 0.99736 1.00462 0.34362 0.0
H1378 H 1.00399 0.08283 0.41505 0.0
H1379 H 0.03404 0.08806 0.41417 0.0
H1380 H 0.0174 0.09889 0.39408 0.0
H1381 H 1.00469 0.98402 0.37246 0.0
H1382 H 0.02559 1.00085 0.39697 0.0
H1383 H 0.99552 0.99347 0.39873 0.0
H1384 H 0.06295 0.04708 0.46312 0.0
H1385 H 0.99156 0.03528 0.46833 0.0
H1386 H 0.06162 0.06527 0.40963 0.0
H1387 H 0.05797 0.03511 0.40358 0.0
H1388 H 0.07759 0.05278 0.42859 0.0
H1389 H 0.97366 0.04801 0.41631 0.0
H1390 H 0.96329 0.02879 0.43614 0.0
H1391 H 0.97018 0.01796 0.40909 0.0
C1392 C 0.34249 0.73899 0.64194 0.0
C1393 C 0.33137 0.71503 0.6369 0.0
C1394 C 0.34173 0.75174 0.66297 0.0
C1395 C 0.32904 0.74025 0.67892 0.0
C1396 C 0.31934 0.71584 0.67465 0.0
C1397 C 0.32091 0.70347 0.65376 0.0
C1398 C 0.35311 0.77763 0.66738 0.0
C1399 C 0.30553 0.70297 0.69119 0.0
C1400 C 0.32974 0.76761 0.73979 0.0
C1401 C 0.30968 0.77392 0.73729 0.0
C1402 C 0.33712 0.75789 0.72069 0.0
C1403 C 0.32364 0.75371 0.69877 0.0
C1404 C 0.30377 0.76081 0.69609 0.0
C1405 C 0.29721 0.77121 0.71544 0.0
C1406 C 0.35883 0.75133 0.72413 0.0
C1407 C 0.28876 0.7563 0.67299 0.0
H1408 H 0.35078 0.74794 0.62899 0.0
H1409 H 0.31223 0.68496 0.6499 0.0
H1410 H 0.33976 0.7862 0.66506 0.0
H1411 H 0.36226 0.78366 0.68532 0.0
H1412 H 0.36559 0.78329 0.65541 0.0
H1413 H 0.30064 0.68392 0.68616 0.0
H1414 H 0.31543 0.70797 0.70884 0.0
H1415 H 0.28953 0.70764 0.69175 0.0
H1416 H 0.33952 0.77004 0.75679 0.0
H1417 H 0.28167 0.77607 0.71366 0.0
H1418 H 0.36975 0.75706 0.71092 0.0
H1419 H 0.35424 0.73226 0.72217 0.0
H1420 H 0.36912 0.75897 0.74145 0.0
H1421 H 0.29918 0.76399 0.66015 0.0
H1422 H 0.27429 0.76347 0.67374 0.0
H1423 H 0.28147 0.73739 0.66677 0.0
C1424 C 0.62166 0.03575 0.83618 0.0
C1425 C 0.61949 0.04727 0.81753 0.0
C1426 C 0.60927 0.03758 0.85447 0.0
C1427 C 0.59453 0.05132 0.85406 0.0
C1428 C 0.59233 0.06298 0.8353 0.0
C1429 C 0.60479 0.06077 0.81727 0.0
C1430 C 0.61197 0.02488 0.87424 0.0
C1431 C 0.57687 0.07787 0.83429 0.0
C1432 C 0.54641 0.04164 0.89029 0.0
C1433 C 0.55611 0.0596 0.90905 0.0
C1434 C 0.55886 0.03852 0.8724 0.0
C1435 C 0.58149 0.05379 0.87331 0.0
C1436 C 0.59133 0.07202 0.89216 0.0
C1437 C 0.57851 0.0747 0.90981 0.0
C1438 C 0.54784 0.01888 0.85257 0.0
C1439 C 0.61534 0.08876 0.89362 0.0
H1440 H 0.63297 0.02528 0.83646 0.0
H1441 H 0.60304 0.06978 0.80295 0.0
H1442 H 0.61864 0.03739 0.89053 0.0
H1443 H 0.59494 0.01299 0.87617 0.0
H1444 H 0.62391 0.0147 0.87183 0.0
H1445 H 0.57706 0.08575 0.81842 0.0
H1446 H 0.55886 0.0674 0.835 0.0
H1447 H 0.5824 0.09194 0.84941 0.0
H1448 H 0.52925 0.0297 0.88984 0.0
H1449 H 0.58599 0.08871 0.92421 0.0
H1450 H 0.55871 0.00749 0.85092 0.0
H1451 H 0.54664 0.0258 0.83625 0.0
H1452 H 0.53027 0.00827 0.85468 0.0
H1453 H 0.62796 0.07922 0.89275 0.0
H1454 H 0.62067 0.10165 0.90973 0.0
H1455 H 0.61618 0.09813 0.87876 0.0
C1456 C 0.2937 0.3351 0.1237 0.0
C1457 C 0.28103 0.34978 0.11832 0.0
C1458 C 0.29314 0.32639 0.14458 0.0
C1459 C 0.27916 0.33199 0.16035 0.0
C1460 C 0.26556 0.34597 0.15455 0.0
C1461 C 0.26688 0.3549 0.13381 0.0
C1462 C 0.30825 0.31193 0.15018 0.0
C1463 C 0.24998 0.35194 0.1705 0.0
C1464 C 0.26586 0.29506 0.20762 0.0
C1465 C 0.28123 0.30927 0.22684 0.0
C1466 C 0.26468 0.30235 0.18603 0.0
C1467 C 0.27961 0.32417 0.18335 0.0
C1468 C 0.29518 0.33855 0.20269 0.0
C1469 C 0.29562 0.33106 0.22418 0.0
C1470 C 0.24743 0.28669 0.16608 0.0
C1471 C 0.31173 0.36175 0.20063 0.0
H1472 H 0.30486 0.3312 0.112 0.0
H1473 H 0.25695 0.36613 0.12981 0.0
H1474 H 0.32112 0.32096 0.16571 0.0
H1475 H 0.29773 0.29516 0.15417 0.0
H1476 H 0.31758 0.30848 0.13584 0.0
H1477 H 0.23908 0.36132 0.16267 0.0
H1478 H 0.23858 0.33599 0.17526 0.0
H1479 H 0.26052 0.36295 0.18661 0.0
H1480 H 0.25458 0.27824 0.20947 0.0
H1481 H 0.30771 0.34211 0.23882 0.0
H1482 H 0.25656 0.28175 0.1522 0.0
H1483 H 0.23616 0.29597 0.1588 0.0
H1484 H 0.23641 0.27068 0.17114 0.0
H1485 H 0.32277 0.35947 0.18754 0.0
H1486 H 0.32302 0.37072 0.21717 0.0
H1487 H 0.30201 0.37303 0.19472 0.0
C1488 C 0.24331 0.97583 0.09988 0.0
C1489 C 0.24119 0.95918 0.08063 0.0
C1490 C 0.23055 0.99116 0.09943 0.0
C1491 C 0.21514 0.98959 0.07934 0.0
C1492 C 0.21287 0.97281 0.05985 0.0
C1493 C 0.22606 0.95786 0.06068 0.0
C1494 C 0.23353 0.00898 0.12048 0.0
C1495 C 0.19638 0.97054 0.03823 0.0
C1496 C 0.1664 0.01395 0.08669 0.0
C1497 C 0.17451 0.03519 0.07908 0.0
C1498 C 0.17936 0.99881 0.08663 0.0
C1499 C 0.20103 1.00524 0.07897 0.0
C1500 C 0.20936 0.02672 0.07134 0.0
C1501 C 0.19587 0.04142 0.07134 0.0
C1502 C 0.16979 0.97591 0.0946 0.0
C1503 C 0.23251 0.03419 0.06328 0.0
H1504 H 0.2551 0.97704 0.1153 0.0
H1505 H 0.22434 0.94498 0.04578 0.0
H1506 H 0.23869 0.02658 0.11591 0.0
H1507 H 0.21689 1.00621 0.12707 0.0
H1508 H 0.24671 0.00831 0.1345 0.0
H1509 H 0.19678 0.95667 0.02453 0.0
H1510 H 0.17853 0.96666 0.04215 0.0
H1511 H 0.20069 0.98711 0.03152 0.0
H1512 H 0.14964 0.00897 0.09226 0.0
H1513 H 0.20208 0.05788 0.06547 0.0
H1514 H 0.18173 0.97462 0.10941 0.0
H1515 H 0.16832 0.96152 0.08062 0.0
H1516 H 0.15254 0.97349 0.09981 0.0
H1517 H 0.24633 0.03483 0.07726 0.0
H1518 H 0.23645 0.05145 0.05791 0.0
H1519 H 0.23294 0.0214 0.04856 0.0
C1520 C 0.70711 0.63649 0.0209 0.0
C1521 C 0.71177 0.65995 0.02964 0.0
C1522 C 0.68527 0.62032 0.02056 0.0
C1523 C 0.66804 0.62769 0.03002 0.0
C1524 C 0.67259 0.65144 0.03852 0.0
C1525 C 0.69427 0.66733 0.03786 0.0
C1526 C 0.6808 0.59532 0.01052 0.0
C1527 C 0.65492 0.65995 0.04928 0.0
C1528 C 0.6044 0.5925 0.01826 0.0
C1529 C 0.60188 0.58183 0.03778 0.0
C1530 C 0.62609 0.60647 0.01487 0.0
C1531 C 0.64553 0.61058 0.03188 0.0
C1532 C 0.6431 0.59945 0.05144 0.0
C1533 C 0.62132 0.58484 0.05394 0.0
C1534 C 0.62806 0.6173 0.99339 0.0
C1535 C 0.66326 0.60389 0.07028 0.0
H1536 H 0.72062 0.63076 0.0145 0.0
H1537 H 0.69794 0.68541 0.04492 0.0
H1538 H 0.67854 0.58463 0.02435 0.0
H1539 H 0.6646 0.58878 0.99796 0.0
H1540 H 0.69513 0.59283 1.00179 0.0
H1541 H 0.66117 0.67897 0.0551 0.0
H1542 H 0.6388 0.65539 0.03683 0.0
H1543 H 0.6505 0.65134 0.0643 0.0
H1544 H 0.58931 0.59002 0.00569 0.0
H1545 H 0.61926 0.57675 0.06914 0.0
H1546 H 0.64256 0.61449 0.98521 0.0
H1547 H 0.6318 0.63624 0.99791 0.0
H1548 H 0.61198 0.61016 0.98065 0.0
H1549 H 0.67773 0.59986 0.06311 0.0
H1550 H 0.65862 0.59348 0.08409 0.0
H1551 H 0.66957 0.62248 0.07804 0.0
C1552 C 0.67543 0.47805 0.30241 0.0
C1553 C 0.68177 0.49663 0.29032 0.0
C1554 C 0.68685 0.46135 0.30165 0.0
C1555 C 0.70521 0.46343 0.28872 0.0
C1556 C 0.71179 0.48228 0.27669 0.0
C1557 C 0.69995 0.49852 0.27754 0.0
C1558 C 0.67916 0.4414 0.31453 0.0
C1559 C 0.73139 0.48533 0.26288 0.0
C1560 C 0.74983 0.43328 0.30115 0.0
C1561 C 0.74309 0.41473 0.28276 0.0
C1562 C 0.73737 0.44895 0.30363 0.0
C1563 C 0.71752 0.44589 0.28747 0.0
C1564 C 0.71026 0.4268 0.26925 0.0
C1565 C 0.72318 0.41156 0.26705 0.0
C1566 C 0.74587 0.46919 0.32314 0.0
C1567 C 0.68906 0.42271 0.2518 0.0
H1568 H 0.66139 0.47642 0.31229 0.0
H1569 H 0.7051 0.51286 0.26823 0.0
H1570 H 0.67369 0.42481 0.30237 0.0
H1571 H 0.69375 0.44126 0.32718 0.0
H1572 H 0.66462 0.44223 0.32378 0.0
H1573 H 0.73471 0.5012 0.25491 0.0
H1574 H 0.74742 0.48627 0.27407 0.0
H1575 H 0.72744 0.47018 0.24904 0.0
H1576 H 0.76528 0.43593 0.31327 0.0
H1577 H 0.71767 0.39706 0.253 0.0
H1578 H 0.73185 0.46969 0.33324 0.0
H1579 H 0.75103 0.48558 0.31612 0.0
H1580 H 0.76087 0.46848 0.33492 0.0
H1581 H 0.674 0.42228 0.26064 0.0
H1582 H 0.68485 0.40627 0.23958 0.0
H1583 H 0.69177 0.43716 0.24185 0.0
C1584 C 0.87557 0.44753 0.55014 0.0
C1585 C 0.8616 0.46066 0.55676 0.0
C1586 C 0.89959 0.45758 0.55293 0.0
C1587 C 0.90971 0.48132 0.56229 0.0
C1588 C 0.89579 0.49442 0.56982 0.0
C1589 C 0.87189 0.48388 0.56707 0.0
C1590 C 0.91402 0.44307 0.54498 0.0
C1591 C 0.90598 0.51987 0.57966 0.0
C1592 C 0.9743 0.50824 0.58088 0.0
C1593 C 0.98094 0.51782 0.56147 0.0
C1594 C 0.95116 0.49578 0.58127 0.0
C1595 C 0.93442 0.49314 0.56191 0.0
C1596 C 0.94107 0.50263 0.54225 0.0
C1597 C 0.96426 0.51477 0.54224 0.0
C1598 C 0.94458 0.48567 0.60242 0.0
C1599 C 0.92362 0.50035 0.52135 0.0
H1600 H 0.86773 0.4295 0.5424 0.0
H1601 H 0.86121 0.49413 0.5723 0.0
H1602 H 0.9211 0.44878 0.52951 0.0
H1603 H 0.92888 0.4454 0.55848 0.0
H1604 H 0.90388 0.42439 0.5406 0.0
H1605 H 0.89304 0.52709 0.5864 0.0
H1606 H 0.92049 0.52285 0.59376 0.0
H1607 H 0.91303 0.52958 0.56611 0.0
H1608 H 0.98715 0.51043 0.59574 0.0
H1609 H 0.96923 0.52217 0.52719 0.0
H1610 H 0.9352 0.46686 0.59765 0.0
H1611 H 0.93275 0.49375 0.61022 0.0
H1612 H 0.95984 0.48831 0.61558 0.0
H1613 H 0.91415 0.48184 0.51461 0.0
H1614 H 0.93174 0.50846 0.50733 0.0
H1615 H 0.91073 0.50863 0.52617 0.0
C1616 C 0.37293 0.10003 0.31997 0.0
C1617 C 0.38223 0.09699 0.29974 0.0
C1618 C 0.35698 0.1121 0.3213 0.0
C1619 C 0.35059 0.12155 0.30206 0.0
C1620 C 0.36085 0.11951 0.28204 0.0
C1621 C 0.37642 0.10708 0.28107 0.0
C1622 C 0.34626 0.1139 0.34286 0.0
C1623 C 0.35483 0.1298 0.26135 0.0
C1624 C 0.29299 0.13123 0.28966 0.0
C1625 C 0.29933 0.15526 0.29579 0.0
C1626 C 0.30931 0.11979 0.29297 0.0
C1627 C 0.33249 0.13282 0.30224 0.0
C1628 C 0.33873 0.15698 0.30935 0.0
C1629 C 0.32202 0.16791 0.30611 0.0
C1630 C 0.30199 0.09393 0.28549 0.0
C1631 C 0.36333 0.17151 0.31897 0.0
H1632 H 0.37731 0.0921 0.33438 0.0
H1633 H 0.38375 0.10489 0.26547 0.0
H1634 H 0.34794 0.13216 0.34914 0.0
H1635 H 0.32755 0.10405 0.33896 0.0
H1636 H 0.35425 0.10703 0.35684 0.0
H1637 H 0.36544 0.12788 0.24772 0.0
H1638 H 0.33639 0.1212 0.25396 0.0
H1639 H 0.35733 0.14845 0.2665 0.0
H1640 H 0.27541 0.12148 0.2818 0.0
H1641 H 0.32702 0.18657 0.31055 0.0
H1642 H 0.30822 0.08566 0.2993 0.0
H1643 H 0.30985 0.08995 0.27019 0.0
H1644 H 0.28296 0.08608 0.28102 0.0
H1645 H 0.37057 0.16375 0.33262 0.0
H1646 H 0.36476 0.18952 0.32619 0.0
H1647 H 0.37412 0.17211 0.30511 0.0
C1648 C 0.34102 0.1502 0.55425 0.0
C1649 C 0.34125 0.16881 0.5427 0.0
C1650 C 0.35641 0.13775 0.55095 0.0
C1651 C 0.37269 0.14414 0.53588 0.0
C1652 C 0.37321 0.16305 0.52431 0.0
C1653 C 0.35739 0.17509 0.52776 0.0
C1654 C 0.3551 0.11759 0.56349 0.0
C1655 C 0.39049 0.17056 0.50832 0.0
C1656 C 0.424 0.12242 0.54584 0.0
C1657 C 0.4175 0.10234 0.52916 0.0
C1658 C 0.41013 0.13677 0.54752 0.0
C1659 C 0.38903 0.13083 0.53235 0.0
C1660 C 0.3827 0.11104 0.51501 0.0
C1661 C 0.39705 0.09714 0.51354 0.0
C1662 C 0.41763 0.15781 0.56614 0.0
C1663 C 0.36033 0.10402 0.49854 0.0
H1664 H 0.32857 0.14511 0.56576 0.0
H1665 H 0.35771 0.18946 0.51879 0.0
H1666 H 0.35175 0.10156 0.55092 0.0
H1667 H 0.37183 0.1206 0.57452 0.0
H1668 H 0.34132 0.11472 0.57447 0.0
H1669 H 0.38889 0.18579 0.50088 0.0
H1670 H 0.40826 0.17494 0.5177 0.0
H1671 H 0.3881 0.15615 0.49406 0.0
H1672 H 0.43956 0.12655 0.55822 0.0
H1673 H 0.39205 0.08198 0.50028 0.0
H1674 H 0.40587 0.15515 0.57917 0.0
H1675 H 0.41656 0.17326 0.55883 0.0
H1676 H 0.43553 0.16142 0.57494 0.0
H1677 H 0.34559 0.09932 0.50819 0.0
H1678 H 0.3586 0.08905 0.48511 0.0
H1679 H 0.35903 0.11871 0.48999 0.0
C1680 C 0.70561 0.62054 0.30619 0.0
C1681 C 0.68592 0.61709 0.31696 0.0
C1682 C 0.72062 0.64286 0.30622 0.0
C1683 C 0.71606 0.66224 0.31759 0.0
C1684 C 0.69703 0.65883 0.3297 0.0
C1685 C 0.68208 0.63631 0.3291 0.0
C1686 C 0.74057 0.64572 0.2929 0.0
C1687 C 0.69182 0.67904 0.34238 0.0
C1688 C 0.76294 0.72102 0.32688 0.0
C1689 C 0.75535 0.731 0.30886 0.0
C1690 C 0.75025 0.69872 0.33015 0.0
C1691 C 0.72975 0.68602 0.31479 0.0
C1692 C 0.72225 0.69592 0.29638 0.0
C1693 C 0.73502 0.71832 0.29377 0.0
C1694 C 0.75858 0.68888 0.35018 0.0
C1695 C 0.70071 0.68283 0.27937 0.0
H1696 H 0.70878 0.60584 0.29675 0.0
H1697 H 0.66704 0.63383 0.33763 0.0
H1698 H 0.73745 0.65392 0.27777 0.0
H1699 H 0.75681 0.65729 0.30366 0.0
H1700 H 0.74299 0.62894 0.28674 0.0
H1701 H 0.67817 0.67344 0.35318 0.0
H1702 H 0.7076 0.6911 0.35351 0.0
H1703 H 0.68597 0.68881 0.32982 0.0
H1704 H 0.77853 0.73083 0.33873 0.0
H1705 H 0.7291 0.72586 0.27972 0.0
H1706 H 0.76161 0.67247 0.34388 0.0
H1707 H 0.74515 0.68478 0.36144 0.0
H1708 H 0.77478 0.701 0.36063 0.0
H1709 H 0.70214 0.66625 0.27108 0.0
H1710 H 0.69751 0.69281 0.26572 0.0
H1711 H 0.68551 0.67859 0.28843 0.0
C1712 C 0.86509 0.48128 0.83513 0.0
C1713 C 0.85472 0.48835 0.81636 0.0
C1714 C 0.85739 0.45823 0.83859 0.0
C1715 C 0.83913 0.44197 0.82277 0.0
C1716 C 0.82755 0.44935 0.8048 0.0
C1717 C 0.83541 0.4725 0.8019 0.0
C1718 C 0.86977 0.45104 0.85827 0.0
C1719 C 0.80795 0.43248 0.78759 0.0
C1720 C 0.83824 0.38032 0.80742 0.0
C1721 C 0.81933 0.36835 0.81711 0.0
C1722 C 0.84555 0.40447 0.81009 0.0
C1723 C 0.83386 0.4169 0.82305 0.0
C1724 C 0.81572 0.40501 0.83412 0.0
C1725 C 0.80851 0.38079 0.83084 0.0
C1726 C 0.86492 0.41657 0.79791 0.0
C1727 C 0.80324 0.41776 0.8485 0.0
H1728 H 0.87984 0.4935 0.84658 0.0
H1729 H 0.82713 0.47785 0.7875 0.0
H1730 H 0.85726 0.43922 0.86698 0.0
H1731 H 0.881 0.44152 0.85152 0.0
H1732 H 0.8807 0.46616 0.87116 0.0
H1733 H 0.79953 0.44131 0.77587 0.0
H1734 H 0.81459 0.42045 0.77703 0.0
H1735 H 0.79471 0.4219 0.79654 0.0
H1736 H 0.8467 0.3708 0.79683 0.0
H1737 H 0.79406 0.37159 0.83863 0.0
H1738 H 0.87835 0.4305 0.81016 0.0
H1739 H 0.85813 0.42479 0.78437 0.0
H1740 H 0.87314 0.40452 0.78973 0.0
H1741 H 0.81572 0.43283 0.86034 0.0
H1742 H 0.79214 0.40643 0.85878 0.0
H1743 H 0.79219 0.42447 0.83711 0.0
C1744 C 0.05427 0.88315 0.09443 0.0
C1745 C 0.06752 0.87173 0.08274 0.0
C1746 C 0.0513 0.90402 0.08869 0.0
C1747 C 0.0617 0.91429 0.07064 0.0
C1748 C 0.07507 0.90282 0.05875 0.0
C1749 C 0.0778 0.882 0.06488 0.0
C1750 C 0.03697 0.91517 0.10214 0.0
C1751 C 0.08663 0.91261 0.03943 0.0
C1752 C 0.03664 0.95706 0.04188 0.0
C1753 C 0.05178 0.97911 0.05239 0.0
C1754 C 0.0397 0.93619 0.04749 0.0
C1755 C 0.05847 0.93676 0.06414 0.0
C1756 C 0.07398 0.95896 0.07462 0.0
C1757 C 0.07046 0.97957 0.06875 0.0
C1758 C 0.0226 0.91337 0.03557 0.0
C1759 C 0.09437 0.96103 0.09228 0.0
H1760 H 0.04621 0.87581 0.1083 0.0
H1761 H 0.08816 0.87374 0.05558 0.0
H1762 H 0.04754 0.93301 0.11038 0.0
H1763 H 0.02232 0.91652 0.09036 0.0
H1764 H 0.03002 0.90535 0.11568 0.0
H1765 H 0.09625 0.90177 0.03163 0.0
H1766 H 0.07354 0.9141 0.02583 0.0
H1767 H 0.09881 0.93028 0.04591 0.0
H1768 H 0.02208 0.95601 0.02928 0.0
H1769 H 0.08245 0.99618 0.07716 0.0
H1770 H 0.01404 0.90366 0.04846 0.0
H1771 H 0.0317 0.90267 0.02663 0.0
H1772 H 1.00914 0.91555 0.02281 0.0
H1773 H 0.08827 0.95309 0.10719 0.0
H1774 H 0.10524 0.97929 0.09854 0.0
H1775 H 0.10524 0.95143 0.08487 0.0
C1776 C 0.92336 0.2808 0.92624 0.0
C1777 C 0.93567 0.26644 0.918 0.0
C1778 C 0.90525 0.28429 0.91185 0.0
C1779 C 0.89881 0.27281 0.88866 0.0
C1780 C 0.91058 0.25758 0.88055 0.0
C1781 C 0.92894 0.25483 0.89513 0.0
C1782 C 0.89349 0.30088 0.92128 0.0
C1783 C 0.90399 0.24438 0.85629 0.0
C1784 C 0.8396 0.26893 0.85681 0.0
C1785 C 0.84551 0.28556 0.84242 0.0
C1786 C 0.85668 0.2643 0.87156 0.0
C1787 C 0.8803 0.27724 0.87273 0.0
C1788 C 0.88625 0.29436 0.85844 0.0
C1789 C 0.86887 0.29797 0.84318 0.0
C1790 C 0.84949 0.24512 0.88545 0.0
C1791 C 0.91101 0.30906 0.85942 0.0
H1792 H 0.92843 0.29004 0.94376 0.0
H1793 H 0.93817 0.2436 0.88852 0.0
H1794 H 0.89645 0.31551 0.91153 0.0
H1795 H 0.87459 0.29217 0.91903 0.0
H1796 H 0.8999 0.30791 0.93981 0.0
H1797 H 0.91343 0.2318 0.85315 0.0
H1798 H 0.88519 0.2349 0.85267 0.0
H1799 H 0.90777 0.2566 0.8439 0.0
H1800 H 0.82158 0.2591 0.85607 0.0
H1801 H 0.8735 0.31091 0.83217 0.0
H1802 H 0.85682 0.25153 0.90383 0.0
H1803 H 0.85646 0.23113 0.87954 0.0
H1804 H 0.83045 0.23764 0.88386 0.0
H1805 H 0.91841 0.31792 0.87732 0.0
H1806 H 0.91273 0.3223 0.84803 0.0
H1807 H 0.92144 0.29798 0.85424 0.0
C1808 C 0.5718 0.23967 0.57734 0.0
C1809 C 0.56645 0.24662 0.599 0.0
C1810 C 0.56932 0.21605 0.56923 0.0
C1811 C 0.56183 0.19875 0.58319 0.0
C1812 C 0.55649 0.20577 0.60499 0.0
C1813 C 0.55859 0.22915 0.61237 0.0
C1814 C 0.57478 0.20958 0.54567 0.0
C1815 C 0.54888 0.18855 0.62092 0.0
C1816 C 0.53552 0.13297 0.5606 0.0
C1817 C 0.55409 0.12461 0.56574 0.0
C1818 C 0.53805 0.1569 0.56506 0.0
C1819 C 0.55962 0.17338 0.57551 0.0
C1820 C 0.5785 0.16508 0.58055 0.0
C1821 C 0.57561 0.14108 0.57539 0.0
C1822 C 0.51738 0.16448 0.55885 0.0
C1823 C 0.60172 0.18151 0.59214 0.0
H1824 H 0.57795 0.25264 0.5667 0.0
H1825 H 0.55449 0.2338 0.62922 0.0
H1826 H 0.58954 0.20281 0.54719 0.0
H1827 H 0.55981 0.19557 0.53531 0.0
H1828 H 0.57914 0.2245 0.53632 0.0
H1829 H 0.54584 0.19669 0.63755 0.0
H1830 H 0.53274 0.17473 0.61262 0.0
H1831 H 0.56219 0.18014 0.6245 0.0
H1832 H 0.51887 0.12077 0.55285 0.0
H1833 H 0.59019 0.13516 0.57954 0.0
H1834 H 0.52202 0.17903 0.54907 0.0
H1835 H 0.51166 0.17079 0.57476 0.0
H1836 H 0.50267 0.15021 0.54842 0.0
H1837 H 0.60774 0.19569 0.58217 0.0
H1838 H 0.61498 0.17274 0.59405 0.0
H1839 H 0.6002 0.18954 0.60946 0.0
C1840 C 0.58066 0.78362 0.43056 0.0
C1841 C 0.55889 0.78387 0.42082 0.0
C1842 C 0.59857 0.78506 0.41736 0.0
C1843 C 0.59472 0.78666 0.39373 0.0
C1844 C 0.57263 0.78626 0.38362 0.0
C1845 C 0.55506 0.78494 0.39725 0.0
C1846 C 0.62183 0.7855 0.42889 0.0
C1847 C 0.56768 0.78776 0.35848 0.0
C1848 C 0.64624 0.81525 0.36512 0.0
C1849 C 0.65049 0.79615 0.35316 0.0
C1850 C 0.62831 0.81237 0.37842 0.0
C1851 C 0.61407 0.78983 0.37984 0.0
C1852 C 0.61832 0.77046 0.36793 0.0
C1853 C 0.63649 0.77384 0.35483 0.0
C1854 C 0.62462 0.83353 0.39099 0.0
C1855 C 0.60351 0.74613 0.36883 0.0
H1856 H 0.58395 0.78283 0.44871 0.0
H1857 H 0.53837 0.78508 0.38943 0.0
H1858 H 0.62724 0.77174 0.41955 0.0
H1859 H 0.63497 0.80229 0.42831 0.0
H1860 H 0.62179 0.78306 0.44713 0.0
H1861 H 0.54931 0.78593 0.3529 0.0
H1862 H 0.5786 0.80466 0.35512 0.0
H1863 H 0.57209 0.77408 0.34775 0.0
H1864 H 0.65714 0.83255 0.36426 0.0
H1865 H 0.63946 0.75897 0.34551 0.0
H1866 H 0.62598 0.83297 0.4097 0.0
H1867 H 0.607 0.8338 0.38502 0.0
H1868 H 0.63731 0.84985 0.38835 0.0
H1869 H 0.60403 0.74318 0.38692 0.0
H1870 H 0.60916 0.7329 0.35881 0.0
H1871 H 0.58529 0.74366 0.36192 0.0
C1872 C 0.04416 0.27738 0.43958 0.0
C1873 C 0.05147 0.27567 0.418 0.0
C1874 C 0.04259 0.25988 0.45311 0.0
C1875 C 0.04867 0.24019 0.44506 0.0
C1876 C 0.05651 0.23857 0.42353 0.0
C1877 C 0.05772 0.25621 0.41025 0.0
C1878 C 0.034 0.26228 0.47587 0.0
C1879 C 0.06341 0.21803 0.41438 0.0
C1880 C 0.06239 0.20391 0.48894 0.0
C1881 C 0.0418 0.18525 0.48575 0.0
C1882 C 0.06495 0.22174 0.47571 0.0
C1883 C 0.04641 0.22111 0.45896 0.0
C1884 C 0.02559 0.20229 0.45562 0.0
C1885 C 0.02358 0.18459 0.46895 0.0
C1886 C 0.08753 0.24129 0.47967 0.0
C1887 C 1.00531 0.20098 0.43812 0.0
H1888 H 0.03919 0.29222 0.44576 0.0
H1889 H 0.06347 0.25466 0.39368 0.0
H1890 H 0.01803 0.24771 0.47565 0.0
H1891 H 0.04701 0.26142 0.48993 0.0
H1892 H 0.03028 0.27878 0.47988 0.0
H1893 H 0.06995 0.21972 0.39774 0.0
H1894 H 0.07699 0.21593 0.42701 0.0
H1895 H 0.04837 0.20201 0.41188 0.0
H1896 H 0.07666 0.20445 0.50167 0.0
H1897 H 1.00752 0.17041 0.46653 0.0
H1898 H 0.08461 0.25796 0.48503 0.0
H1899 H 0.09486 0.24247 0.46343 0.0
H1900 H 0.10041 0.23908 0.49306 0.0
H1901 H 0.99976 0.21637 0.44223 0.0
H1902 H 0.99037 0.18519 0.43752 0.0
H1903 H 0.01041 0.20113 0.42077 0.0
C1904 C 0.61172 0.273 0.23141 0.0
C1905 C 0.59393 0.26634 0.24479 0.0
C1906 C 0.63479 0.27448 0.23909 0.0
C1907 C 0.64109 0.2696 0.26115 0.0
C1908 C 0.62341 0.26317 0.27502 0.0
C1909 C 0.60017 0.2614 0.26668 0.0
C1910 C 0.65247 0.28111 0.22329 0.0
C1911 C 0.62907 0.25816 0.29879 0.0
C1912 C 0.6984 0.25545 0.2711 0.0
C1913 C 0.71467 0.2771 0.28084 0.0
C1914 C 0.67454 0.25261 0.26521 0.0
C1915 C 0.66621 0.27171 0.26945 0.0
C1916 C 0.68249 0.29341 0.27996 0.0
C1917 C 0.70624 0.29585 0.28526 0.0
C1918 C 0.65829 0.22921 0.25369 0.0
C1919 C 0.67489 0.31435 0.28527 0.0
H1920 H 0.60759 0.27675 0.2144 0.0
H1921 H 0.58692 0.25614 0.27733 0.0
H1922 H 0.66634 0.29732 0.23142 0.0
H1923 H 0.66065 0.26745 0.22031 0.0
H1924 H 0.64486 0.2837 0.20638 0.0
H1925 H 0.61379 0.25396 0.30778 0.0
H1926 H 0.63592 0.24342 0.29772 0.0
H1927 H 0.64275 0.27334 0.30926 0.0
H1928 H 0.7044 0.24075 0.26746 0.0
H1929 H 0.71831 0.3127 0.29291 0.0
H1930 H 0.65107 0.23028 0.23604 0.0
H1931 H 0.64359 0.22368 0.26323 0.0
H1932 H 0.66696 0.21579 0.25256 0.0
H1933 H 0.66873 0.31929 0.26901 0.0
H1934 H 0.68905 0.32943 0.29531 0.0
H1935 H 0.66026 0.31027 0.29512 0.0
C1936 C 0.57515 0.90396 0.94327 0.0
C1937 C 0.5611 0.89438 0.92185 0.0
C1938 C 0.57193 0.92234 0.95783 0.0
C1939 C 0.55365 0.93095 0.95133 0.0
C1940 C 0.53948 0.92139 0.92966 0.0
C1941 C 0.54359 0.90355 0.91509 0.0
C1942 C 0.58799 0.9324 0.98034 0.0
C1943 C 0.51939 0.92941 0.92217 0.0
C1944 C 0.53121 0.96076 1.00012 0.0
C1945 C 0.54031 0.98423 0.99834 0.0
C1946 C 0.53503 0.94334 0.98473 0.0
C1947 C 0.54896 0.94941 0.96747 0.0
C1948 C 0.55843 0.97314 0.9658 0.0
C1949 C 0.55372 0.99015 0.98095 0.0
C1950 C 0.52395 0.91834 0.98683 0.0
C1951 C 0.57389 0.98063 0.94822 0.0
H1952 H 0.58874 0.89707 0.94867 0.0
H1953 H 0.53242 0.8961 0.89875 0.0
H1954 H 0.59527 0.95146 0.98184 0.0
H1955 H 0.5783 0.92882 0.99488 0.0
H1956 H 0.60243 0.92514 0.98209 0.0
H1957 H 0.51005 0.92038 0.90481 0.0
H1958 H 0.50708 0.9263 0.93467 0.0
H1959 H 0.52546 0.94828 0.92198 0.0
H1960 H 0.5207 0.95595 0.01334 0.0
H1961 H 0.56098 0.00822 0.97949 0.0
H1962 H 0.53744 0.91032 0.99097 0.0
H1963 H 0.51343 0.90859 0.97018 0.0
H1964 H 0.51271 0.91636 1.00037 0.0
H1965 H 0.5889 0.97428 0.95063 0.0
H1966 H 0.58035 0.99973 0.94943 0.0
H1967 H 0.56445 0.97291 0.93063 0.0
C1968 C 0.95173 0.75899 0.77384 0.0
C1969 C 0.96102 0.76714 0.75459 0.0
C1970 C 0.93115 0.76234 0.78031 0.0
C1971 C 0.91868 0.77381 0.76717 0.0
C1972 C 0.92789 0.7819 0.74761 0.0
C1973 C 0.94874 0.77871 0.74177 0.0
C1974 C 0.92279 0.75363 0.80149 0.0
C1975 C 0.91553 0.79386 0.73257 0.0
C1976 C 0.85378 0.76442 0.77254 0.0
C1977 C 0.85429 0.78495 0.78653 0.0
C1978 C 0.87422 0.76066 0.7661 0.0
C1979 C 0.89635 0.77755 0.77395 0.0
C1980 C 0.89697 0.79815 0.78832 0.0
C1981 C 0.87625 0.80164 0.79416 0.0
C1982 C 0.87202 0.73855 0.75052 0.0
C1983 C 0.91971 0.81669 0.79771 0.0
H1984 H 0.9607 0.75004 0.78409 0.0
H1985 H 0.95527 0.78506 0.72679 0.0
H1986 H 0.92143 0.76813 0.81378 0.0
H1987 H 0.9053 0.7407 0.79679 0.0
H1988 H 0.93444 0.74555 0.8103 0.0
H1989 H 0.92427 0.79863 0.71764 0.0
H1990 H 0.89758 0.78243 0.72609 0.0
H1991 H 0.91448 0.80978 0.74277 0.0
H1992 H 0.83724 0.75127 0.76623 0.0
H1993 H 0.87736 0.81759 0.80497 0.0
H1994 H 0.88204 0.72889 0.7592 0.0
H1995 H 0.87938 0.7426 0.7347 0.0
H1996 H 0.85381 0.72719 0.74551 0.0
H1997 H 0.93136 0.80927 0.80745 0.0
H1998 H 0.91765 0.83137 0.80922 0.0
H1999 H 0.92826 0.82342 0.78334 0.0
C2000 C 0.09705 0.03248 0.87225 0.0
C2001 C 0.09295 0.05048 0.8619 0.0
C2002 C 0.09114 0.02888 0.89415 0.0
C2003 C 0.08111 0.04377 0.90624 0.0
C2004 C 0.07686 0.06189 0.89581 0.0
C2005 C 0.08268 0.06493 0.87383 0.0
C2006 C 0.09571 0.00917 0.90441 0.0
C2007 C 0.06638 0.07833 0.90801 0.0
C2008 C 0.04596 0.02568 0.95401 0.0
C2009 C 0.06162 0.0374 0.97406 0.0
C2010 C 0.05232 0.02691 0.93198 0.0
C2011 C 0.07486 0.04045 0.92969 0.0
C2012 C 0.09097 0.05182 0.94985 0.0
C2013 C 0.08422 0.05005 0.97173 0.0
C2014 C 0.03463 0.0142 0.9111 0.0
C2015 C 0.11512 0.0666 0.94832 0.0
H2016 H 0.10499 0.02122 0.86328 0.0
H2017 H 0.07954 0.07899 0.86617 0.0
H2018 H 0.10784 0.01598 0.92082 0.0
H2019 H 0.07945 0.99757 0.90844 0.0
H2020 H 0.10314 0.99882 0.8927 0.0
H2021 H 0.06438 0.09169 0.89772 0.0
H2022 H 0.04919 0.06859 0.91176 0.0
H2023 H 0.07737 0.08713 0.92472 0.0
H2024 H 0.02849 0.01573 0.95549 0.0
H2025 H 0.09648 0.05929 0.987 0.0
H2026 H 0.04175 1.00332 0.89967 0.0
H2027 H 0.03036 0.02683 0.9011 0.0
H2028 H 0.01846 1.00301 0.91574 0.0
H2029 H 0.12356 0.05655 0.93757 0.0
H2030 H 0.12598 0.07328 0.96549 0.0
H2031 H 0.1144 0.08152 0.93987 0.0
C2032 C 0.75011 0.36725 0.58018 0.0
C2033 C 0.76133 0.39095 0.58782 0.0
C2034 C 0.75063 0.35124 0.59489 0.0
C2035 C 0.76326 0.35925 0.6173 0.0
C2036 C 0.77204 0.38326 0.62591 0.0
C2037 C 0.77071 0.39893 0.61105 0.0
C2038 C 0.73945 0.32576 0.58588 0.0
C2039 C 0.78489 0.3924 0.65009 0.0
C2040 C 0.76823 0.32208 0.66248 0.0
C2041 C 0.78924 0.31839 0.65963 0.0
C2042 C 0.75871 0.33424 0.64799 0.0
C2043 C 0.77062 0.34308 0.63038 0.0
C2044 C 0.7912 0.33838 0.62664 0.0
C2045 C 0.80013 0.32587 0.64118 0.0
C2046 C 0.7363 0.33803 0.65215 0.0
C2047 C 0.80461 0.34781 0.60817 0.0
H2048 H 0.74241 0.36112 0.56228 0.0
H2049 H 0.77921 0.41727 0.61704 0.0
H2050 H 0.75291 0.31785 0.58221 0.0
H2051 H 0.73029 0.31697 0.599 0.0
H2052 H 0.72703 0.32257 0.56982 0.0
H2053 H 0.7891 0.41143 0.65466 0.0
H2054 H 0.77447 0.384 0.66263 0.0
H2055 H 0.80122 0.38818 0.65181 0.0
H2056 H 0.75984 0.31665 0.67689 0.0
H2057 H 0.81617 0.32276 0.63868 0.0
H2058 H 0.72177 0.32303 0.64259 0.0
H2059 H 0.73437 0.35389 0.64641 0.0
H2060 H 0.73484 0.33916 0.67067 0.0
H2061 H 0.79345 0.3421 0.59114 0.0
H2062 H 0.82004 0.34216 0.60723 0.0
H2063 H 0.81036 0.36699 0.61164 0.0
C2064 C 0.46128 0.04081 0.40384 0.0
C2065 C 0.46264 0.05873 0.39113 0.0
C2066 C 0.47512 0.04472 0.42517 0.0
C2067 C 0.49108 0.06698 0.43368 0.0
C2068 C 0.49148 0.08552 0.42164 0.0
C2069 C 0.47702 0.08119 0.40042 0.0
C2070 C 0.47346 0.02474 0.43806 0.0
C2071 C 0.50792 0.10956 0.43062 0.0
C2072 C 0.51734 0.07216 0.49541 0.0
C2073 C 0.53638 0.06485 0.49244 0.0
C2074 C 0.50327 0.07488 0.47648 0.0
C2075 C 0.50844 0.06996 0.45415 0.0
C2076 C 0.52879 0.0644 0.45131 0.0
C2077 C 0.54264 0.062 0.47061 0.0
C2078 C 0.48225 0.0816 0.48059 0.0
C2079 C 0.53511 0.05944 0.42778 0.0
H2080 H 0.44988 0.02349 0.39669 0.0
H2081 H 0.47802 0.09501 0.3905 0.0
H2082 H 0.48978 0.02051 0.43876 0.0
H2083 H 0.47102 0.02959 0.45603 0.0
H2084 H 0.45899 0.00898 0.42987 0.0
H2085 H 0.50475 0.12244 0.42025 0.0
H2086 H 0.50634 0.115 0.44876 0.0
H2087 H 0.52592 0.10962 0.43036 0.0
H2088 H 0.51321 0.07546 0.51252 0.0
H2089 H 0.55769 0.05678 0.46847 0.0
H2090 H 0.47518 0.0882 0.46589 0.0
H2091 H 0.48651 0.09513 0.49609 0.0
H2092 H 0.46861 0.06625 0.4838 0.0
H2093 H 0.52277 0.04279 0.41835 0.0
H2094 H 0.55282 0.05826 0.42873 0.0
H2095 H 0.53388 0.07311 0.41764 0.0
C2096 C 0.78614 0.72952 0.12892 0.0
C2097 C 0.78723 0.74287 0.11124 0.0
C2098 C 0.78534 0.73864 0.15163 0.0
C2099 C 0.78606 0.76192 0.15715 0.0
C2100 C 0.78759 0.77569 0.13954 0.0
C2101 C 0.78793 0.76596 0.11678 0.0
C2102 C 0.78349 0.72319 0.1697 0.0
C2103 C 0.78891 0.80072 0.14477 0.0
C2104 C 0.76459 0.77718 0.21328 0.0
C2105 C 0.78514 0.78475 0.229 0.0
C2106 C 0.76465 0.77039 0.18966 0.0
C2107 C 0.78581 0.77174 0.18154 0.0
C2108 C 0.80667 0.78064 0.19728 0.0
C2109 C 0.80604 0.78679 0.22075 0.0
C2110 C 0.74198 0.76071 0.17359 0.0
C2111 C 0.82968 0.78289 0.1895 0.0
H2112 H 0.78536 0.71161 0.12495 0.0
H2113 H 0.78872 0.77644 0.10331 0.0
H2114 H 0.79874 0.73032 0.18341 0.0
H2115 H 0.76801 0.72257 0.17791 0.0
H2116 H 0.7823 0.70526 0.16249 0.0
H2117 H 0.7904 0.80924 0.12931 0.0
H2118 H 0.77332 0.80205 0.15179 0.0
H2119 H 0.80402 0.81032 0.15814 0.0
H2120 H 0.7484 0.77556 0.21958 0.0
H2121 H 0.822 0.79312 0.23278 0.0
H2122 H 0.73879 0.74213 0.16712 0.0
H2123 H 0.74257 0.76964 0.15844 0.0
H2124 H 0.72726 0.76238 0.18214 0.0
H2125 H 0.83097 0.76544 0.18426 0.0
H2126 H 0.84439 0.79263 0.20327 0.0
H2127 H 0.83128 0.79177 0.1743 0.0
C2128 C 0.07479 0.05708 0.72646 0.0
C2129 C 0.09416 0.04976 0.73057 0.0
C2130 C 0.06568 0.05848 0.70394 0.0
C2131 C 0.07627 0.05265 0.68503 0.0
C2132 C 0.09558 0.04494 0.68907 0.0
C2133 C 0.10414 0.04349 0.7116 0.0
C2134 C 0.04486 0.06642 0.7004 0.0
C2135 C 0.1075 0.03853 0.66957 0.0
C2136 C 0.04548 0.03474 0.62302 0.0
C2137 C 0.05483 0.05461 0.61334 0.0
C2138 C 0.0513 0.03431 0.64652 0.0
C2139 C 0.06719 0.05413 0.66088 0.0
C2140 C 0.076 0.07456 0.65144 0.0
C2141 C 0.06959 0.07462 0.62784 0.0
C2142 C 0.04117 0.01222 0.65572 0.0
C2143 C 0.09314 0.09603 0.66601 0.0
H2144 H 0.06694 0.06207 0.74087 0.0
H2145 H 0.11911 0.03784 0.71436 0.0
H2146 H 0.04936 0.08256 0.69291 0.0
H2147 H 0.0309 0.05321 0.68797 0.0
H2148 H 0.03817 0.06968 0.71669 0.0
H2149 H 0.12252 0.03317 0.67557 0.0
H2150 H 0.09519 0.02413 0.65684 0.0
H2151 H 0.11358 0.05345 0.6605 0.0
H2152 H 0.03384 0.01923 0.61206 0.0
H2153 H 0.07698 0.09001 0.62056 0.0
H2154 H 0.0342 0.01585 0.67173 0.0
H2155 H 0.05488 1.00453 0.6601 0.0
H2156 H 0.02717 0.99926 0.64308 0.0
H2157 H 0.0866 0.10062 0.68202 0.0
H2158 H 0.09685 0.11105 0.65675 0.0
H2159 H 0.10954 0.09267 0.67113 0.0
C2160 C 0.76683 0.3865 0.45019 0.0
C2161 C 0.779 0.38063 0.46857 0.0
C2162 C 0.76454 0.37503 0.42763 0.0
C2163 C 0.77498 0.35765 0.42351 0.0
C2164 C 0.7867 0.35127 0.4421 0.0
C2165 C 0.78843 0.36273 0.46439 0.0
C2166 C 0.75154 0.3819 0.40817 0.0
C2167 C 0.79824 0.33294 0.43838 0.0
C2168 C 0.76132 0.31384 0.36902 0.0
C2169 C 0.78005 0.32344 0.35791 0.0
C2170 C 0.75855 0.32553 0.38978 0.0
C2171 C 0.77519 0.34704 0.39978 0.0
C2172 C 0.7937 0.35714 0.38823 0.0
C2173 C 0.79579 0.34528 0.36731 0.0
C2174 C 0.73835 0.3145 0.40143 0.0
C2175 C 0.81197 0.3799 0.39855 0.0
H2176 H 0.75937 0.40022 0.45338 0.0
H2177 H 0.79782 0.35804 0.47851 0.0
H2178 H 0.76372 0.39044 0.39704 0.0
H2179 H 0.73873 0.36635 0.39728 0.0
H2180 H 0.74244 0.39395 0.41447 0.0
H2181 H 0.80607 0.32955 0.4548 0.0
H2182 H 0.78558 0.31651 0.42894 0.0
H2183 H 0.812 0.33846 0.4277 0.0
H2184 H 0.74886 0.29713 0.36155 0.0
H2185 H 0.81023 0.35281 0.3587 0.0
H2186 H 0.72978 0.32726 0.407 0.0
H2187 H 0.74455 0.30858 0.41706 0.0
H2188 H 0.72539 0.2994 0.39 0.0
H2189 H 0.80389 0.39329 0.40332 0.0
H2190 H 0.82428 0.38617 0.3866 0.0
H2191 H 0.82183 0.37788 0.41453 0.0
C2192 C 0.48139 0.06241 0.25479 0.0
C2193 C 0.48187 0.05618 0.27671 0.0
C2194 C 0.49775 0.05976 0.24102 0.0
C2195 C 0.51513 0.05088 0.24952 0.0
C2196 C 0.51685 0.04633 0.2723 0.0
C2197 C 0.50008 0.04892 0.28563 0.0
C2198 C 0.49541 0.06492 0.21679 0.0
C2199 C 0.53549 0.03738 0.28209 0.0
C2200 C 0.53108 0.01637 0.20095 0.0
C2201 C 0.54969 0.03321 0.19516 0.0
C2202 C 0.52073 0.02138 0.2199 0.0
C2203 C 0.52938 0.04372 0.23342 0.0
C2204 C 0.54956 0.06002 0.229 0.0
C2205 C 0.55943 0.05461 0.20976 0.0
C2206 C 0.49923 1.00348 0.22407 0.0
C2207 C 0.5596 0.08379 0.2434 0.0
H2208 H 0.46753 0.06826 0.24785 0.0
H2209 H 0.50075 0.04437 0.30271 0.0
H2210 H 0.51208 0.07634 0.21344 0.0
H2211 H 0.49062 0.04859 0.20433 0.0
H2212 H 0.48207 0.07338 0.21347 0.0
H2213 H 0.53712 0.03892 0.3011 0.0
H2214 H 0.53132 0.01887 0.27466 0.0
H2215 H 0.5524 0.04685 0.27751 0.0
H2216 H 0.52339 0.99987 0.18961 0.0
H2217 H 0.57404 0.06754 0.20543 0.0
H2218 H 0.48403 0.00908 0.21948 0.0
H2219 H 0.5003 1.00175 0.2425 0.0
H2220 H 0.49628 0.98624 0.2137 0.0
H2221 H 0.54907 0.0947 0.23843 0.0
H2222 H 0.57763 0.0924 0.24091 0.0
H2223 H 0.55928 0.08289 0.26193 0.0
C2224 C 0.79808 0.73795 0.96656 0.0
C2225 C 0.78517 0.74727 0.98076 0.0
C2226 C 0.80088 0.74407 0.94466 0.0
C2227 C 0.79061 0.75999 0.93665 0.0
C2228 C 0.77809 0.76991 0.95117 0.0
C2229 C 0.77549 0.76342 0.97292 0.0
C2230 C 0.81432 0.73301 0.92981 0.0
C2231 C 0.76694 0.78702 0.9435 0.0
C2232 C 0.81067 0.78994 0.8862 0.0
C2233 C 0.79327 0.77715 0.86782 0.0
C2234 C 0.81024 0.7844 0.90856 0.0
C2235 C 0.79203 0.76553 0.91277 0.0
C2236 C 0.77467 0.75231 0.8942 0.0
C2237 C 0.77547 0.75829 0.87207 0.0
C2238 C 0.82906 0.79902 0.9278 0.0
C2239 C 0.75498 0.732 0.89776 0.0
H2240 H 0.80561 0.72543 0.97235 0.0
H2241 H 0.76551 0.77079 0.98368 0.0
H2242 H 0.80274 0.72232 0.91406 0.0
H2243 H 0.82819 0.74652 0.92422 0.0
H2244 H 0.8222 0.72187 0.93889 0.0
H2245 H 0.75878 0.79406 0.95719 0.0
H2246 H 0.77994 0.80162 0.9383 0.0
H2247 H 0.75353 0.77855 0.92824 0.0
H2248 H 0.82449 0.80457 0.88323 0.0
H2249 H 0.76193 0.7482 0.85809 0.0
H2250 H 0.83748 0.78796 0.93633 0.0
H2251 H 0.82151 0.80752 0.94101 0.0
H2252 H 0.84245 0.81257 0.92164 0.0
H2253 H 0.76178 0.71942 0.90552 0.0
H2254 H 0.7433 0.72295 0.88145 0.0
H2255 H 0.74473 0.73799 0.90993 0.0
C2256 C 0.80546 0.06319 0.05979 0.0
C2257 C 0.81402 0.08699 0.05941 0.0
C2258 C 0.81825 0.04866 0.05365 0.0
C2259 C 0.84024 0.05831 0.04745 0.0
C2260 C 0.84881 0.08228 0.04673 0.0
C2261 C 0.83547 0.09632 0.05253 0.0
C2262 C 0.80842 0.02309 0.05412 0.0
C2263 C 0.87237 0.09323 0.04047 0.0
C2264 C 0.88707 0.03115 0.05636 0.0
C2265 C 0.8888 0.02332 0.03361 0.0
C2266 C 0.87048 0.04157 0.06122 0.0
C2267 C 0.85499 0.04376 0.04289 0.0
C2268 C 0.85535 0.03413 0.02005 0.0
C2269 C 0.87241 0.02413 0.01565 0.0
C2270 C 0.87065 0.05168 0.08581 0.0
C2271 C 0.83873 0.03573 1.00014 0.0
H2272 H 0.78873 0.05589 0.06487 0.0
H2273 H 0.84212 0.11472 0.05225 0.0
H2274 H 0.80888 0.01297 0.03745 0.0
H2275 H 0.8191 0.01819 0.06761 0.0
H2276 H 0.79036 0.01809 0.05763 0.0
H2277 H 0.87629 0.11206 0.04035 0.0
H2278 H 0.88581 0.09069 0.05296 0.0
H2279 H 0.87355 0.08476 0.02323 0.0
H2280 H 0.89939 0.03004 0.07034 0.0
H2281 H 0.8737 0.01817 0.99802 0.0
H2282 H 0.85306 0.04593 0.09041 0.0
H2283 H 0.87626 0.07083 0.08775 0.0
H2284 H 0.88247 0.04677 0.0982 0.0
H2285 H 0.8209 0.03097 0.00422 0.0
H2286 H 0.83891 0.02435 0.98413 0.0
H2287 H 0.84349 0.05381 0.99689 0.0
C2288 C 0.37822 0.43018 0.07262 0.0
C2289 C 0.35781 0.43554 0.06793 0.0
C2290 C 0.39977 0.44628 0.07192 0.0
C2291 C 0.4009 0.46804 0.06572 0.0
C2292 C 0.38037 0.47371 0.06135 0.0
C2293 C 0.35908 0.45749 0.06282 0.0
C2294 C 0.42129 0.43977 0.07728 0.0
C2295 C 0.38079 0.49648 0.05414 0.0
C2296 C 0.45931 0.51541 0.07741 0.0
C2297 C 0.46751 0.51206 0.05656 0.0
C2298 C 0.4375 0.50139 0.08062 0.0
C2299 C 0.42341 0.48412 0.06233 0.0
C2300 C 0.43129 0.4814 0.04094 0.0
C2301 C 0.45338 0.49516 0.03844 0.0
C2302 C 0.42997 0.50442 0.10385 0.0
C2303 C 0.41658 0.46361 0.0208 0.0
H2304 H 0.37732 0.4133 0.07677 0.0
H2305 H 0.34332 0.46164 0.05902 0.0
H2306 H 0.42923 0.43818 0.06151 0.0
H2307 H 0.43418 0.45351 0.09022 0.0
H2308 H 0.41767 0.42314 0.08391 0.0
H2309 H 0.36351 0.49875 0.05254 0.0
H2310 H 0.39301 0.51107 0.06672 0.0
H2311 H 0.38698 0.49748 0.0373 0.0
H2312 H 0.47033 0.52833 0.09151 0.0
H2313 H 0.45966 0.49267 0.02225 0.0
H2314 H 0.42808 0.4885 0.11146 0.0
H2315 H 0.41287 0.50705 0.10204 0.0
H2316 H 0.44247 0.51929 0.11596 0.0
H2317 H 0.41412 0.44598 0.02482 0.0
H2318 H 0.42444 0.46502 0.00483 0.0
H2319 H 0.39925 0.46557 0.01751 0.0
C2320 C 0.38507 0.59688 0.76944 0.0
C2321 C 0.40388 0.59719 0.78529 0.0
C2322 C 0.37243 0.61206 0.77385 0.0
C2323 C 0.37874 0.6281 0.79463 0.0
C2324 C 0.39786 0.62871 0.81064 0.0
C2325 C 0.41018 0.61322 0.8058 0.0
C2326 C 0.35215 0.61076 0.75633 0.0
C2327 C 0.40522 0.64563 0.83293 0.0
C2328 C 0.35675 0.67974 0.79555 0.0
C2329 C 0.33723 0.67273 0.80645 0.0
C2330 C 0.37072 0.66568 0.79211 0.0
C2331 C 0.36504 0.64396 0.79961 0.0
C2332 C 0.34559 0.63692 0.81092 0.0
C2333 C 0.33198 0.65138 0.81423 0.0
C2334 C 0.39129 0.67386 0.77998 0.0
C2335 C 0.3389 0.61392 0.81919 0.0
H2336 H 0.38001 0.58457 0.75354 0.0
H2337 H 0.42468 0.61361 0.81816 0.0
H2338 H 0.33615 0.60659 0.76418 0.0
H2339 H 0.35466 0.62778 0.75074 0.0
H2340 H 0.34963 0.59749 0.74091 0.0
H2341 H 0.42072 0.64425 0.84335 0.0
H2342 H 0.40904 0.66356 0.82935 0.0
H2343 H 0.39095 0.64254 0.84327 0.0
H2344 H 0.36084 0.69603 0.78917 0.0
H2345 H 0.31721 0.64594 0.82302 0.0
H2346 H 0.3887 0.66215 0.76341 0.0
H2347 H 0.40709 0.6733 0.79051 0.0
H2348 H 0.3942 0.69175 0.77644 0.0
H2349 H 0.33474 0.59969 0.80433 0.0
H2350 H 0.32375 0.6113 0.82834 0.0
H2351 H 0.35358 0.61258 0.83092 0.0
C2352 C 0.22792 0.62526 0.54767 0.0
C2353 C 0.23782 0.64828 0.55864 0.0
C2354 C 0.20408 0.61416 0.54526 0.0
C2355 C 0.19003 0.62619 0.55468 0.0
C2356 C 0.19991 0.64957 0.56544 0.0
C2357 C 0.2237 0.66045 0.567 0.0
C2358 C 0.19402 0.58939 0.53314 0.0
C2359 C 0.18554 0.66275 0.57622 0.0
C2360 C 0.12494 0.60301 0.53791 0.0
C2361 C 0.11856 0.5904 0.55555 0.0
C2362 C 0.14824 0.61445 0.5371 0.0
C2363 C 0.16532 0.61383 0.55481 0.0
C2364 C 0.15886 0.60145 0.57289 0.0
C2365 C 0.13554 0.58957 0.57283 0.0
C2366 C 0.1546 0.62694 0.51723 0.0
C2367 C 0.17653 0.60089 0.5924 0.0
H2368 H 0.23883 0.61593 0.541 0.0
H2369 H 0.23139 0.67823 0.57562 0.0
H2370 H 0.18758 0.57796 0.54567 0.0
H2371 H 0.17909 0.5875 0.51988 0.0
H2372 H 0.20688 0.58331 0.52477 0.0
H2373 H 0.19572 0.6811 0.58313 0.0
H2374 H 0.17079 0.6623 0.56345 0.0
H2375 H 0.17829 0.65442 0.5905 0.0
H2376 H 0.11177 0.60353 0.52449 0.0
H2377 H 0.13055 0.57998 0.5866 0.0
H2378 H 0.16684 0.62021 0.50848 0.0
H2379 H 0.16345 0.64563 0.52365 0.0
H2380 H 0.13929 0.62498 0.5044 0.0
H2381 H 0.18881 0.59276 0.58565 0.0
H2382 H 0.16851 0.59115 0.60555 0.0
H2383 H 0.18668 0.61878 0.60088 0.0
C2384 C 0.7274 0.98405 0.76751 0.0
C2385 C 0.71351 0.99498 0.77839 0.0
C2386 C 0.73929 0.97177 0.77938 0.0
C2387 C 0.73742 0.97055 0.80279 0.0
C2388 C 0.72337 0.98148 0.8139 0.0
C2389 C 0.71146 0.9935 0.80151 0.0
C2390 C 0.75391 0.96013 0.76684 0.0
C2391 C 0.72112 0.98062 0.83888 0.0
C2392 C 0.7537 0.9209 0.82293 0.0
C2393 C 0.77716 0.93162 0.83185 0.0
C2394 C 0.74011 0.93364 0.81467 0.0
C2395 C 0.75024 0.95769 0.81535 0.0
C2396 C 0.77351 0.96886 0.82564 0.0
C2397 C 0.78674 0.95565 0.83371 0.0
C2398 C 0.71538 0.92105 0.80377 0.0
C2399 C 0.78482 0.99453 0.82693 0.0
H2400 H 0.729 0.98504 0.74962 0.0
H2401 H 0.70082 1.00201 0.81002 0.0
H2402 H 0.77214 0.96724 0.7754 0.0
H2403 H 0.74799 0.94133 0.76747 0.0
H2404 H 0.75327 0.96248 0.74854 0.0
H2405 H 0.70943 0.98994 0.84496 0.0
H2406 H 0.71441 0.96239 0.84152 0.0
H2407 H 0.73833 0.98842 0.84969 0.0
H2408 H 0.74623 0.90228 0.82118 0.0
H2409 H 0.80478 0.96403 0.84087 0.0
H2410 H 0.71385 0.92034 0.78486 0.0
H2411 H 0.70381 0.93039 0.81002 0.0
H2412 H 0.70928 0.90308 0.80737 0.0
H2413 H 0.78708 0.99842 0.80941 0.0
H2414 H 0.802 1.00099 0.83797 0.0
H2415 H 0.77373 1.00419 0.83375 0.0
C2416 C 0.75614 0.95815 0.58731 0.0
C2417 C 0.75408 0.93815 0.57187 0.0
C2418 C 0.74028 0.9702 0.58461 0.0
C2419 C 0.72172 0.96201 0.56611 0.0
C2420 C 0.71949 0.94182 0.55043 0.0
C2421 C 0.73577 0.93017 0.55344 0.0
C2422 C 0.7434 0.99174 0.60163 0.0
C2423 C 0.69983 0.93248 0.5306 0.0
C2424 C 0.67093 0.98328 0.57477 0.0
C2425 C 0.67505 1.00183 0.56253 0.0
C2426 C 0.68543 0.96956 0.57529 0.0
C2427 C 0.70467 0.97464 0.56346 0.0
C2428 C 0.70854 0.99295 0.55055 0.0
C2429 C 0.69363 1.00627 0.55016 0.0
C2430 C 0.68056 0.95005 0.58907 0.0
C2431 C 0.72897 0.99907 0.53789 0.0
H2432 H 0.77027 0.96452 0.60155 0.0
H2433 H 0.73404 0.91472 0.54146 0.0
H2434 H 0.74487 0.00666 0.59247 0.0
H2435 H 0.72809 0.98941 0.61047 0.0
H2436 H 0.75898 0.99605 0.61483 0.0
H2437 H 0.70053 0.91662 0.51992 0.0
H2438 H 0.68312 0.9284 0.5372 0.0
H2439 H 0.70017 0.94576 0.51949 0.0
H2440 H 0.65638 0.97957 0.58408 0.0
H2441 H 0.697 0.0207 0.54083 0.0
H2442 H 0.69461 0.95396 0.60384 0.0
H2443 H 0.68009 0.93376 0.57834 0.0
H2444 H 0.66394 0.94721 0.59577 0.0
H2445 H 0.74518 1.00531 0.55043 0.0
H2446 H 0.72866 0.01271 0.52735 0.0
H2447 H 0.72939 0.98354 0.52647 0.0
C2448 C 0.38347 0.4731 0.76805 0.0
C2449 C 0.40548 0.47981 0.78126 0.0
C2450 C 0.36716 0.45148 0.76824 0.0
C2451 C 0.37284 0.43642 0.78231 0.0
C2452 C 0.39496 0.44319 0.79582 0.0
C2453 C 0.41106 0.46469 0.79497 0.0
C2454 C 0.34391 0.44467 0.75326 0.0
C2455 C 0.40159 0.42777 0.81129 0.0
C2456 C 0.32553 0.3887 0.80007 0.0
C2457 C 0.32662 0.36905 0.78613 0.0
C2458 C 0.34018 0.41085 0.79871 0.0
C2459 C 0.35589 0.41338 0.78271 0.0
C2460 C 0.35631 0.39365 0.76792 0.0
C2461 C 0.34184 0.37171 0.76998 0.0
C2462 C 0.33947 0.43144 0.815 0.0
C2463 C 0.37246 0.39563 0.75032 0.0
H2464 H 0.37907 0.48466 0.75736 0.0
H2465 H 0.42795 0.46982 0.80539 0.0
H2466 H 0.34114 0.42846 0.74115 0.0
H2467 H 0.33 0.44117 0.76401 0.0
H2468 H 0.34224 0.45827 0.74317 0.0
H2469 H 0.41921 0.4359 0.82126 0.0
H2470 H 0.38913 0.42355 0.82354 0.0
H2471 H 0.40085 0.41122 0.80088 0.0
H2472 H 0.31387 0.38669 0.81264 0.0
H2473 H 0.34255 0.35657 0.75898 0.0
H2474 H 0.33683 0.44492 0.80527 0.0
H2475 H 0.35624 0.43919 0.8266 0.0
H2476 H 0.32555 0.42671 0.82567 0.0
H2477 H 0.37058 0.40867 0.73959 0.0
H2478 H 0.36927 0.3789 0.73886 0.0
H2479 H 0.39058 0.40159 0.75917 0.0
C2480 C 0.19139 0.61696 0.26167 0.0
C2481 C 0.20301 0.60085 0.25739 0.0
C2482 C 0.20249 0.64061 0.26274 0.0
C2483 C 0.2259 0.64843 0.25974 0.0
C2484 C 0.23777 0.63231 0.25531 0.0
C2485 C 0.22611 0.60862 0.25403 0.0
C2486 C 0.18917 0.65726 0.2672 0.0
C2487 C 0.26283 0.64014 0.25226 0.0
C2488 C 0.24696 0.70843 0.24438 0.0
C2489 C 0.25661 0.72195 0.26606 0.0
C2490 C 0.23747 0.68433 0.24195 0.0
C2491 C 0.23787 0.67357 0.26165 0.0
C2492 C 0.24818 0.68707 0.28348 0.0
C2493 C 0.25731 0.71115 0.28545 0.0
C2494 C 0.22639 0.67049 0.21843 0.0
C2495 C 0.24908 0.67614 0.30484 0.0
H2496 H 0.17346 0.61107 0.26407 0.0
H2497 H 0.23517 0.59625 0.25078 0.0
H2498 H 0.19729 0.66946 0.28346 0.0
H2499 H 0.18965 0.66769 0.25319 0.0
H2500 H 0.17086 0.64827 0.26846 0.0
H2501 H 0.26947 0.6254 0.2486 0.0
H2502 H 0.26517 0.65022 0.23795 0.0
H2503 H 0.27344 0.65175 0.26806 0.0
H2504 H 0.24642 0.71669 0.22932 0.0
H2505 H 0.26496 0.72151 0.30222 0.0
H2506 H 0.20763 0.66237 0.21824 0.0
H2507 H 0.23369 0.65632 0.21438 0.0
H2508 H 0.22881 0.68132 0.20468 0.0
H2509 H 0.23133 0.66823 0.3084 0.0
H2510 H 0.25923 0.68887 0.32019 0.0
H2511 H 0.25681 0.66211 0.30218 0.0
C2512 C 0.54966 0.72063 0.5131 0.0
C2513 C 0.52847 0.72511 0.51037 0.0
C2514 C 0.55138 0.69922 0.51843 0.0
C2515 C 0.53161 0.68153 0.52212 0.0
C2516 C 0.51022 0.68618 0.51997 0.0
C2517 C 0.50884 0.70746 0.51372 0.0
C2518 C 0.57447 0.69532 0.51956 0.0
C2519 C 0.48867 0.66867 0.52445 0.0
C2520 C 0.53103 0.61751 0.51614 0.0
C2521 C 0.53844 0.61513 0.53879 0.0
C2522 C 0.52889 0.63871 0.51054 0.0
C2523 C 0.53337 0.65834 0.52799 0.0
C2524 C 0.54016 0.65579 0.551 0.0
C2525 C 0.54301 0.63464 0.55599 0.0
C2526 C 0.52234 0.64022 0.48568 0.0
C2527 C 0.54436 0.67547 0.57054 0.0
H2528 H 0.565 0.73373 0.51031 0.0
H2529 H 0.49231 0.71038 0.51175 0.0
H2530 H 0.58006 0.69242 0.53702 0.0
H2531 H 0.57299 0.67955 0.50735 0.0
H2532 H 0.58805 0.71017 0.51537 0.0
H2533 H 0.47375 0.67527 0.52376 0.0
H2534 H 0.48405 0.65269 0.51155 0.0
H2535 H 0.49178 0.6638 0.54162 0.0
H2536 H 0.52752 0.60287 0.50251 0.0
H2537 H 0.54857 0.63332 0.57359 0.0
H2538 H 0.53581 0.65448 0.48054 0.0
H2539 H 0.50598 0.64429 0.48334 0.0
H2540 H 0.52016 0.6239 0.47397 0.0
H2541 H 0.55944 0.69016 0.56871 0.0
H2542 H 0.54762 0.67039 0.58759 0.0
H2543 H 0.52924 0.68174 0.57003 0.0
C2544 C 0.66482 0.33937 0.68132 0.0
C2545 C 0.64297 0.32271 0.67923 0.0
C2546 C 0.68411 0.33803 0.69589 0.0
C2547 C 0.68178 0.31915 0.70815 0.0
C2548 C 0.65977 0.30223 0.7058 0.0
C2549 C 0.64081 0.30435 0.69172 0.0
C2550 C 0.70657 0.35751 0.6987 0.0
C2551 C 0.65613 0.28177 0.71827 0.0
C2552 C 0.73416 0.30107 0.72903 0.0
C2553 C 0.7381 0.3091 0.75282 0.0
C2554 C 0.71606 0.30426 0.71436 0.0
C2555 C 0.70204 0.31672 0.72339 0.0
C2556 C 0.70654 0.32553 0.74731 0.0
C2557 C 0.72411 0.32123 0.76174 0.0
C2558 C 0.71121 0.29323 0.68939 0.0
C2559 C 0.69258 0.33935 0.75774 0.0
H2560 H 0.66675 0.35377 0.67205 0.0
H2561 H 0.62413 0.29119 0.69017 0.0
H2562 H 0.70607 0.37187 0.71174 0.0
H2563 H 0.72172 0.35236 0.70457 0.0
H2564 H 0.70894 0.36431 0.68233 0.0
H2565 H 0.63806 0.26991 0.71441 0.0
H2566 H 0.66771 0.27185 0.7134 0.0
H2567 H 0.66058 0.28784 0.73711 0.0
H2568 H 0.74472 0.2915 0.72199 0.0
H2569 H 0.72716 0.32769 0.78004 0.0
H2570 H 0.70737 0.30509 0.67813 0.0
H2571 H 0.69574 0.2776 0.6866 0.0
H2572 H 0.72579 0.28785 0.68404 0.0
H2573 H 0.69339 0.35425 0.74871 0.0
H2574 H 0.6988 0.34593 0.77637 0.0
H2575 H 0.67421 0.32849 0.75548 0.0
C2576 C 1.00384 0.35397 0.02066 0.0
C2577 C 1.00908 0.34428 0.99998 0.0
C2578 C 1.00679 0.37796 0.02601 0.0
C2579 C 0.01456 0.39302 0.01011 0.0
C2580 C 0.01991 0.38332 0.98923 0.0
C2581 C 0.0174 0.35939 0.98459 0.0
C2582 C 1.00141 0.3872 0.04875 0.0
C2583 C 0.02777 0.39816 0.97138 0.0
C2584 C 1.00001 0.45037 0.01425 0.0
C2585 C 0.02118 0.46722 0.02423 0.0
C2586 C 0.99771 0.42648 0.0094 0.0
C2587 C 0.01683 0.41869 0.01514 0.0
C2588 C 0.03814 0.43563 0.02558 0.0
C2589 C 0.0401 0.45943 0.02969 0.0
C2590 C 0.97474 0.40953 0.99781 0.0
C2591 C 0.05897 0.42858 0.03268 0.0
H2592 H 0.99737 0.34272 0.03278 0.0
H2593 H 0.02127 0.35234 0.96843 0.0
H2594 H 0.01645 0.40184 0.05804 0.0
H2595 H 0.98674 0.39393 0.04581 0.0
H2596 H 0.99693 0.37377 0.0599 0.0
H2597 H 0.03115 0.38821 0.95597 0.0
H2598 H 0.01442 0.40595 0.96589 0.0
H2599 H 0.04376 0.4126 0.97883 0.0
H2600 H 0.98522 0.4559 0.00981 0.0
H2601 H 0.05656 0.472 0.03759 0.0
H2602 H 0.96805 0.3967 0.00903 0.0
H2603 H 0.97688 0.39984 0.98159 0.0
H2604 H 0.9617 0.41816 0.9938 0.0
H2605 H 0.05482 0.41601 0.04471 0.0
H2606 H 0.07413 0.44358 0.04115 0.0
H2607 H 0.06375 0.41983 0.01742 0.0
C2608 C 0.99976 0.81444 0.1736 0.0
C2609 C 0.01409 0.80097 0.17766 0.0
C2610 C 0.98206 0.81458 0.18678 0.0
C2611 C 0.97854 0.80092 0.20445 0.0
C2612 C 0.99302 0.78738 0.20865 0.0
C2613 C 0.01054 0.78759 0.19527 0.0
C2614 C 0.96706 0.82928 0.18174 0.0
C2615 C 0.98994 0.77256 0.22727 0.0
C2616 C 0.9468 0.8146 0.25337 0.0
C2617 C 0.9249 0.79784 0.24687 0.0
C2618 C 0.96419 0.81616 0.23951 0.0
C2619 C 0.9597 0.80058 0.21855 0.0
C2620 C 0.93751 0.78391 0.21167 0.0
C2621 C 0.92044 0.78275 0.22586 0.0
C2622 C 0.98753 0.83426 0.24749 0.0
C2623 C 0.93196 0.76689 0.18954 0.0
H2624 H 1.00232 0.82484 0.16006 0.0
H2625 H 0.02146 0.7771 0.1986 0.0
H2626 H 0.94877 0.81819 0.17688 0.0
H2627 H 0.9681 0.84169 0.19739 0.0
H2628 H 0.97212 0.83911 0.16763 0.0
H2629 H 1.00266 0.76309 0.22845 0.0
H2630 H 0.99177 0.78347 0.24417 0.0
H2631 H 0.97233 0.75978 0.22391 0.0
H2632 H 0.95037 0.82662 0.26934 0.0
H2633 H 0.90372 0.76956 0.22074 0.0
H2634 H 0.99227 0.84506 0.23403 0.0
H2635 H 1.00086 0.82575 0.25039 0.0
H2636 H 0.98799 0.84573 0.26367 0.0
H2637 H 0.93583 0.77621 0.17487 0.0
H2638 H 0.91359 0.75579 0.18602 0.0
H2639 H 0.94295 0.75561 0.19041 0.0
C2640 C 0.52059 0.32962 0.16777 0.0
C2641 C 0.53296 0.31482 0.16099 0.0
C2642 C 0.52034 0.34833 0.15634 0.0
C2643 C 0.53261 0.35226 0.13756 0.0
C2644 C 0.54486 0.33717 0.13049 0.0
C2645 C 0.54495 0.31876 0.14229 0.0
C2646 C 0.50717 0.36406 0.16452 0.0
C2647 C 0.55806 0.34056 0.1105 0.0
C2648 C 0.51842 0.38836 0.09374 0.0
C2649 C 0.53666 0.40926 0.1003 0.0
C2650 C 0.51652 0.36988 0.10604 0.0
C2651 C 0.53316 0.37236 0.1255 0.0
C2652 C 0.5512 0.39367 0.13262 0.0
C2653 C 0.55277 0.41178 0.11992 0.0
C2654 C 0.49712 0.34743 0.09773 0.0
C2655 C 0.56919 0.3972 0.15337 0.0
H2656 H 0.51129 0.32676 0.18219 0.0
H2657 H 0.5545 0.30742 0.13682 0.0
H2658 H 0.51916 0.38196 0.17009 0.0
H2659 H 0.49422 0.36454 0.15021 0.0
H2660 H 0.49818 0.35847 0.17907 0.0
H2661 H 0.56618 0.32696 0.10673 0.0
H2662 H 0.54636 0.34045 0.09484 0.0
H2663 H 0.57178 0.35765 0.11425 0.0
H2664 H 0.506 0.38616 0.07852 0.0
H2665 H 0.56671 0.42798 0.12534 0.0
H2666 H 0.48753 0.34212 0.11197 0.0
H2667 H 0.50432 0.33356 0.09201 0.0
H2668 H 0.48481 0.3487 0.0832 0.0
H2669 H 0.56076 0.39295 0.16858 0.0
H2670 H 0.58123 0.41522 0.15752 0.0
H2671 H 0.57936 0.38533 0.1502 0.0
C2672 C 0.97112 0.29792 0.32084 0.0
C2673 C 0.98462 0.31625 0.33829 0.0
C2674 C 0.9472 0.29441 0.3137 0.0
C2675 C 0.93615 0.30947 0.32413 0.0
C2676 C 0.94993 0.32834 0.34116 0.0
C2677 C 0.9736 0.33145 0.34786 0.0
C2678 C 0.93355 0.27412 0.29539 0.0
C2679 C 0.9395 0.34502 0.35298 0.0
C2680 C 0.87755 0.31392 0.29724 0.0
C2681 C 0.86171 0.30093 0.30986 0.0
C2682 C 0.90143 0.31622 0.30111 0.0
C2683 C 0.91022 0.30537 0.31813 0.0
C2684 C 0.89424 0.29199 0.33069 0.0
C2685 C 0.87048 0.28994 0.32645 0.0
C2686 C 0.91737 0.33057 0.28708 0.0
C2687 C 0.90231 0.28006 0.34905 0.0
H2688 H 0.979 0.28583 0.31331 0.0
H2689 H 0.98346 0.34581 0.36126 0.0
H2690 H 0.92047 0.26162 0.30294 0.0
H2691 H 0.92412 0.27995 0.2816 0.0
H2692 H 0.94469 0.26505 0.2876 0.0
H2693 H 0.95253 0.35929 0.36531 0.0
H2694 H 0.93103 0.35264 0.34006 0.0
H2695 H 0.926 0.33566 0.36246 0.0
H2696 H 0.87132 0.32241 0.28423 0.0
H2697 H 0.85875 0.27973 0.33637 0.0
H2698 H 0.92728 0.32035 0.27879 0.0
H2699 H 0.93004 0.34583 0.29849 0.0
H2700 H 0.90792 0.3367 0.27354 0.0
H2701 H 0.91192 0.26893 0.34187 0.0
H2702 H 0.88779 0.26924 0.35645 0.0
H2703 H 0.91435 0.29317 0.36313 0.0
C2704 C 0.02723 0.70543 0.65347 0.0
C2705 C 0.01661 0.70367 0.67334 0.0
C2706 C 0.0299 0.68605 0.6402 0.0
C2707 C 0.02134 0.66388 0.64638 0.0
C2708 C 1.00984 0.66173 0.66591 0.0
C2709 C 1.00784 0.6816 0.67927 0.0
C2710 C 0.04257 0.68949 0.61984 0.0
C2711 C 1.0 0.63846 0.67293 0.0
C2712 C 0.01448 0.61372 0.59783 0.0
C2713 C 0.03455 0.60783 0.60326 0.0
C2714 C 1.00941 0.63102 0.61224 0.0
C2715 C 0.02496 0.64329 0.63249 0.0
C2716 C 0.04503 0.6371 0.6383 0.0
C2717 C 0.04943 0.61938 0.62382 0.0
C2718 C 0.98753 0.63647 0.60553 0.0
C2719 C 0.06234 0.64978 0.65943 0.0
H2720 H 0.03428 0.72224 0.64857 0.0
H2721 H 0.99969 0.67987 0.69453 0.0
H2722 H 0.05795 0.68373 0.62229 0.0
H2723 H 0.03133 0.6788 0.60392 0.0
H2724 H 0.0483 0.70783 0.61729 0.0
H2725 H 0.98976 0.63922 0.68713 0.0
H2726 H 0.98883 0.62581 0.65802 0.0
H2727 H 0.01422 0.63189 0.67865 0.0
H2728 H 1.00263 0.60477 0.58222 0.0
H2729 H 0.06494 0.615 0.62834 0.0
H2730 H 0.99186 0.65405 0.60093 0.0
H2731 H 0.97787 0.63642 0.62026 0.0
H2732 H 0.97611 0.62393 0.59065 0.0
H2733 H 0.06996 0.6682 0.65773 0.0
H2734 H 0.0765 0.64228 0.66221 0.0
H2735 H 0.05371 0.64939 0.6749 0.0
C2736 C 0.63524 0.81694 0.86389 0.0
C2737 C 0.61986 0.82538 0.8509 0.0
C2738 C 0.6556 0.81448 0.85635 0.0
C2739 C 0.66161 0.8207 0.83506 0.0
C2740 C 0.64621 0.82919 0.82169 0.0
C2741 C 0.62567 0.83131 0.82961 0.0
C2742 C 0.67081 0.80514 0.87142 0.0
C2743 C 0.6516 0.83633 0.79901 0.0
C2744 C 0.72623 0.83208 0.82823 0.0
C2745 C 0.72625 0.8111 0.81556 0.0
C2746 C 0.70552 0.83575 0.83383 0.0
C2747 C 0.68378 0.81798 0.82705 0.0
C2748 C 0.68369 0.7969 0.814 0.0
C2749 C 0.70459 0.79382 0.80837 0.0
C2750 C 0.70699 0.85869 0.84738 0.0
C2751 C 0.66142 0.7772 0.80637 0.0
H2752 H 0.63138 0.81211 0.88031 0.0
H2753 H 0.61437 0.83798 0.81925 0.0
H2754 H 0.67277 0.78938 0.86178 0.0
H2755 H 0.68829 0.81808 0.87633 0.0
H2756 H 0.66382 0.80077 0.88735 0.0
H2757 H 0.63809 0.84236 0.7904 0.0
H2758 H 0.66837 0.85045 0.80174 0.0
H2759 H 0.65334 0.8216 0.78736 0.0
H2760 H 0.74253 0.84579 0.83392 0.0
H2761 H 0.70395 0.77746 0.79865 0.0
H2762 H 0.70181 0.85618 0.86445 0.0
H2763 H 0.69486 0.8661 0.83839 0.0
H2764 H 0.72465 0.87136 0.85001 0.0
H2765 H 0.65423 0.77112 0.82166 0.0
H2766 H 0.66377 0.76236 0.79538 0.0
H2767 H 0.64848 0.78315 0.79667 0.0
C2768 C 0.5024 0.5443 0.72087 0.0
C2769 C 0.48747 0.55663 0.72675 0.0
C2770 C 0.51053 0.54456 0.69951 0.0
C2771 C 0.50401 0.55784 0.68372 0.0
C2772 C 0.48964 0.571 0.68996 0.0
C2773 C 0.48139 0.57004 0.71118 0.0
C2774 C 0.52551 0.52999 0.69352 0.0
C2775 C 0.48264 0.58584 0.67403 0.0
C2776 C 0.54019 0.57282 0.63583 0.0
C2777 C 0.52647 0.55705 0.61656 0.0
C2778 C 0.53302 0.57344 0.65761 0.0
C2779 C 0.51176 0.55761 0.6605 0.0
C2780 C 0.49783 0.54165 0.64112 0.0
C2781 C 0.50521 0.54171 0.61941 0.0
C2782 C 0.54823 0.59111 0.67756 0.0
C2783 C 0.47521 0.52422 0.64336 0.0
H2784 H 0.50703 0.53369 0.73259 0.0
H2785 H 0.46993 0.57971 0.71551 0.0
H2786 H 0.51672 0.51686 0.67802 0.0
H2787 H 0.542 0.54093 0.6893 0.0
H2788 H 0.52942 0.52095 0.70775 0.0
H2789 H 0.47259 0.59614 0.68195 0.0
H2790 H 0.49816 0.59785 0.66911 0.0
H2791 H 0.47201 0.57477 0.65799 0.0
H2792 H 0.5566 0.58484 0.63389 0.0
H2793 H 0.49454 0.52932 0.60476 0.0
H2794 H 0.55362 0.58227 0.69128 0.0
H2795 H 0.53845 0.6019 0.68508 0.0
H2796 H 0.56393 0.60263 0.67241 0.0
H2797 H 0.47816 0.51342 0.65628 0.0
H2798 H 0.46656 0.51269 0.62681 0.0
H2799 H 0.46339 0.53326 0.6496 0.0
C2800 C 0.81875 0.22255 0.02178 0.0
C2801 C 0.81402 0.19854 0.01864 0.0
C2802 C 0.8179 0.2339 0.00288 0.0
C2803 C 0.81201 0.22079 0.98051 0.0
C2804 C 0.81048 0.19718 0.97725 0.0
C2805 C 0.81154 0.18622 0.99651 0.0
C2806 C 0.82073 0.25938 0.00693 0.0
C2807 C 0.80524 0.18299 0.95351 0.0
C2808 C 0.77021 0.23754 0.9403 0.0
C2809 C 0.78456 0.24907 0.9259 0.0
C2810 C 0.77905 0.22807 0.95797 0.0
C2811 C 0.80287 0.23047 0.96141 0.0
C2812 C 0.81755 0.24249 0.94715 0.0
C2813 C 0.80813 0.25148 0.92937 0.0
C2814 C 0.76283 0.21547 0.97295 0.0
C2815 C 0.84304 0.24565 0.95026 0.0
H2816 H 0.82125 0.23219 0.03898 0.0
H2817 H 0.80818 0.16768 0.99408 0.0
H2818 H 0.83141 0.26837 0.99487 0.0
H2819 H 0.80355 0.2617 0.0037 0.0
H2820 H 0.82885 0.26772 0.02484 0.0
H2821 H 0.8082 0.16608 0.95374 0.0
H2822 H 0.78691 0.17968 0.94629 0.0
H2823 H 0.81606 0.19255 0.94187 0.0
H2824 H 0.75197 0.23557 0.93744 0.0
H2825 H 0.81925 0.26064 0.91828 0.0
H2826 H 0.76853 0.22409 0.99114 0.0
H2827 H 0.76316 0.19746 0.97207 0.0
H2828 H 0.74476 0.21491 0.96775 0.0
H2829 H 0.85024 0.24627 0.96838 0.0
H2830 H 0.85286 0.26176 0.94447 0.0
H2831 H 0.84584 0.23087 0.93962 0.0
C2832 C 0.12155 0.49826 0.17712 0.0
C2833 C 0.11556 0.50306 0.19889 0.0
C2834 C 0.10699 0.49805 0.15712 0.0
C2835 C 0.08621 0.50297 0.15911 0.0
C2836 C 0.07886 0.50504 0.1808 0.0
C2837 C 0.09357 0.50485 0.20044 0.0
C2838 C 0.115 0.49496 0.13414 0.0
C2839 C 0.05676 0.51018 0.18365 0.0
C2840 C 0.07256 0.54125 0.11836 0.0
C2841 C 0.05414 0.52565 0.10276 0.0
C2842 C 0.0828 0.53404 0.13699 0.0
C2843 C 0.07474 0.51051 0.1397 0.0
C2844 C 0.05601 0.49467 0.12405 0.0
C2845 C 0.04574 0.50252 0.10581 0.0
C2846 C 0.10246 0.5516 0.15361 0.0
C2847 C 0.04736 0.46939 0.12609 0.0
H2848 H 0.13833 0.49642 0.17572 0.0
H2849 H 0.08855 0.50807 0.21717 0.0
H2850 H 0.10043 0.48426 0.12068 0.0
H2851 H 0.12197 0.51212 0.1289 0.0
H2852 H 0.12878 0.48677 0.13485 0.0
H2853 H 0.05158 0.50726 0.20067 0.0
H2854 H 0.05925 0.52854 0.18217 0.0
H2855 H 0.04247 0.49936 0.16998 0.0
H2856 H 0.07903 0.55912 0.11594 0.0
H2857 H 0.03174 0.49036 0.09342 0.0
H2858 H 0.1184 0.54682 0.1532 0.0
H2859 H 0.09848 0.55177 0.17141 0.0
H2860 H 0.10597 0.56936 0.14954 0.0
H2861 H 0.06077 0.46138 0.12252 0.0
H2862 H 0.0313 0.45982 0.11386 0.0
H2863 H 0.04404 0.46729 0.14382 0.0
C2864 C 0.78771 0.85491 0.4796 0.0
C2865 C 0.79661 0.84322 0.49522 0.0
C2866 C 0.78675 0.84892 0.4557 0.0
C2867 C 0.79448 0.8305 0.44707 0.0
C2868 C 0.80266 0.81808 0.46273 0.0
C2869 C 0.80385 0.82472 0.48655 0.0
C2870 C 0.77815 0.86282 0.43973 0.0
C2871 C 0.81057 0.79801 0.45433 0.0
C2872 C 0.77421 0.80368 0.3837 0.0
C2873 C 0.79365 0.81371 0.37358 0.0
C2874 C 0.77437 0.80869 0.40754 0.0
C2875 C 0.79431 0.82446 0.42173 0.0
C2876 C 0.81402 0.83462 0.41164 0.0
C2877 C 0.81353 0.82896 0.38776 0.0
C2878 C 0.75313 0.79709 0.41752 0.0
C2879 C 0.83553 0.85179 0.42603 0.0
H2880 H 0.78231 0.86937 0.48608 0.0
H2881 H 0.81075 0.81557 0.49844 0.0
H2882 H 0.79205 0.87124 0.4302 0.0
H2883 H 0.7635 0.85128 0.4268 0.0
H2884 H 0.77244 0.87639 0.44907 0.0
H2885 H 0.8152 0.78928 0.46854 0.0
H2886 H 0.79681 0.78511 0.44144 0.0
H2887 H 0.82585 0.80416 0.44567 0.0
H2888 H 0.75879 0.79174 0.37297 0.0
H2889 H 0.82858 0.83691 0.38013 0.0
H2890 H 0.74625 0.81029 0.42565 0.0
H2891 H 0.75764 0.78769 0.43116 0.0
H2892 H 0.73929 0.78467 0.4043 0.0
H2893 H 0.83136 0.86673 0.43471 0.0
H2894 H 0.84933 0.85829 0.41562 0.0
H2895 H 0.84228 0.84369 0.43968 0.0
C2896 C 0.48087 0.55188 0.87365 0.0
C2897 C 0.4959 0.54956 0.85806 0.0
C2898 C 0.4864 0.55108 0.89717 0.0
C2899 C 0.5079 0.54874 0.9056 0.0
C2900 C 0.52355 0.54737 0.89005 0.0
C2901 C 0.51718 0.5473 0.86645 0.0
C2902 C 0.46885 0.55192 0.91286 0.0
C2903 C 0.54699 0.54578 0.89831 0.0
C2904 C 0.52756 0.56651 0.97055 0.0
C2905 C 0.52301 0.54507 0.97809 0.0
C2906 C 0.52352 0.56795 0.94704 0.0
C2907 C 0.51379 0.54744 0.93059 0.0
C2908 C 0.50912 0.52571 0.93817 0.0
C2909 C 0.51421 0.5248 0.96176 0.0
C2910 C 0.52963 0.59147 0.93983 0.0
C2911 C 0.4981 0.50342 0.92144 0.0
H2912 H 0.46423 0.55324 0.86727 0.0
H2913 H 0.52888 0.54547 0.85451 0.0
H2914 H 0.46435 0.53606 0.9208 0.0
H2915 H 0.4762 0.56686 0.92703 0.0
H2916 H 0.45279 0.55335 0.90361 0.0
H2917 H 0.55787 0.54671 0.88448 0.0
H2918 H 0.55615 0.55999 0.91284 0.0
H2919 H 0.54504 0.52926 0.90479 0.0
H2920 H 0.53459 0.58225 0.98311 0.0
H2921 H 0.51051 0.50821 0.96754 0.0
H2922 H 0.51378 0.59454 0.93222 0.0
H2923 H 0.54093 0.59226 0.92641 0.0
H2924 H 0.53858 0.60564 0.95449 0.0
H2925 H 0.48125 0.50328 0.91248 0.0
H2926 H 0.49523 0.48798 0.93005 0.0
H2927 H 0.50911 0.50204 0.90811 0.0
C2928 C 0.79074 0.17147 0.15414 0.0
C2929 C 0.80461 0.17906 0.13765 0.0
C2930 C 0.79179 0.18645 0.17434 0.0
C2931 C 0.80729 0.20935 0.17812 0.0
C2932 C 0.82266 0.21644 0.16244 0.0
C2933 C 0.82107 0.2012 0.1423 0.0
C2934 C 0.77524 0.17828 0.19085 0.0
C2935 C 0.83978 0.24056 0.16621 0.0
C2936 C 0.7888 0.25405 0.21387 0.0
C2937 C 0.80091 0.25528 0.23559 0.0
C2938 C 0.79118 0.23951 0.19478 0.0
C2939 C 0.80623 0.22627 0.19763 0.0
C2940 C 0.8194 0.22844 0.2193 0.0
C2941 C 0.81649 0.24286 0.23806 0.0
C2942 C 0.77687 0.23756 0.17182 0.0
C2943 C 0.83591 0.21492 0.22288 0.0
H2944 H 0.77797 0.15438 0.15058 0.0
H2945 H 0.83201 0.20704 0.12966 0.0
H2946 H 0.78465 0.18185 0.20865 0.0
H2947 H 0.76266 0.18792 0.19072 0.0
H2948 H 0.76557 0.15949 0.18632 0.0
H2949 H 0.85236 0.24237 0.15394 0.0
H2950 H 0.83043 0.25316 0.16399 0.0
H2951 H 0.84939 0.24525 0.184 0.0
H2952 H 0.77674 0.26362 0.21199 0.0
H2953 H 0.82615 0.24404 0.25484 0.0
H2954 H 0.76478 0.21967 0.1665 0.0
H2955 H 0.78815 0.24111 0.15846 0.0
H2956 H 0.76671 0.24971 0.1723 0.0
H2957 H 0.82611 0.1962 0.22048 0.0
H2958 H 0.84633 0.22015 0.24034 0.0
H2959 H 0.84778 0.2173 0.20995 0.0
C2960 C 0.10633 0.55636 0.32141 0.0
C2961 C 0.12107 0.54291 0.32072 0.0
C2962 C 0.09669 0.56049 0.34111 0.0
C2963 C 0.10178 0.55081 0.3606 0.0
C2964 C 0.11628 0.53683 0.35996 0.0
C2965 C 0.12586 0.53309 0.33997 0.0
C2966 C 0.08138 0.57558 0.34118 0.0
C2967 C 0.1219 0.52614 0.38046 0.0
C2968 C 0.09435 0.58162 0.41713 0.0
C2969 C 0.0723 0.56804 0.41987 0.0
C2970 C 0.10446 0.57582 0.39822 0.0
C2971 C 0.09221 0.55591 0.38176 0.0
C2972 C 0.07011 0.5419 0.38465 0.0
C2973 C 0.06038 0.54818 0.40368 0.0
C2974 C 0.128 0.59127 0.39558 0.0
C2975 C 0.05661 0.5205 0.36747 0.0
H2976 H 0.10254 0.56404 0.30661 0.0
H2977 H 0.13722 0.52267 0.33951 0.0
H2978 H 0.06423 0.56599 0.34516 0.0
H2979 H 0.08903 0.59102 0.3548 0.0
H2980 H 0.07887 0.5815 0.32444 0.0
H2981 H 0.13271 0.51498 0.37687 0.0
H2982 H 0.13122 0.53995 0.39527 0.0
H2983 H 0.10577 0.51562 0.3857 0.0
H2984 H 0.10355 0.59702 0.42962 0.0
H2985 H 0.04351 0.5374 0.40603 0.0
H2986 H 0.12666 0.59914 0.37986 0.0
H2987 H 0.13985 0.58099 0.39347 0.0
H2988 H 0.13574 0.60538 0.41056 0.0
H2989 H 0.05238 0.52541 0.35057 0.0
H2990 H 0.04029 0.51072 0.37298 0.0
H2991 H 0.06717 0.50892 0.36491 0.0
C2992 C 0.80839 0.84275 0.63423 0.0
C2993 C 0.79396 0.85496 0.62652 0.0
C2994 C 0.80748 0.8352 0.65572 0.0
C2995 C 0.79131 0.83938 0.66957 0.0
C2996 C 0.77604 0.85082 0.66133 0.0
C2997 C 0.77779 0.85875 0.64015 0.0
C2998 C 0.82442 0.82352 0.66399 0.0
C2999 C 0.75807 0.85505 0.67508 0.0
C3000 C 0.77675 0.80342 0.71723 0.0
C3001 C 0.78912 0.81912 0.73707 0.0
C3002 C 0.7771 0.80982 0.69526 0.0
C3003 C 0.79067 0.83231 0.69287 0.0
C3004 C 0.80334 0.84819 0.71284 0.0
C3005 C 0.80216 0.84152 0.73469 0.0
C3006 C 0.76278 0.79254 0.67461 0.0
C3007 C 0.81842 0.87218 0.71112 0.0
H3008 H 0.82113 0.84002 0.62395 0.0
H3009 H 0.76653 0.86813 0.63428 0.0
H3010 H 0.8355 0.834 0.68011 0.0
H3011 H 0.8151 0.80634 0.66803 0.0
H3012 H 0.83566 0.82119 0.6511 0.0
H3013 H 0.7464 0.86263 0.66555 0.0
H3014 H 0.7475 0.8386 0.6797 0.0
H3015 H 0.76662 0.86701 0.69138 0.0
H3016 H 0.76652 0.7861 0.7189 0.0
H3017 H 0.81195 0.85369 0.74988 0.0
H3018 H 0.77408 0.78891 0.66233 0.0
H3019 H 0.75064 0.79983 0.66547 0.0
H3020 H 0.75271 0.77595 0.6794 0.0
H3021 H 0.83116 0.87106 0.69954 0.0
H3022 H 0.82785 0.88218 0.72812 0.0
H3023 H 0.80775 0.88185 0.7035 0.0
C3024 C 0.77419 0.51903 0.5498 0.0
C3025 C 0.76257 0.49584 0.54028 0.0
C3026 C 0.76313 0.53571 0.54868 0.0
C3027 C 0.73972 0.52873 0.53851 0.0
C3028 C 0.72863 0.50572 0.52697 0.0
C3029 C 0.74037 0.48949 0.52778 0.0
C3030 C 0.77578 0.56024 0.56045 0.0
C3031 C 0.70361 0.49761 0.51604 0.0
C3032 C 0.70222 0.55565 0.57056 0.0
C3033 C 0.69703 0.56992 0.55567 0.0
C3034 C 0.7163 0.5424 0.56516 0.0
C3035 C 0.72571 0.54371 0.54445 0.0
C3036 C 0.72133 0.5588 0.52972 0.0
C3037 C 0.70673 0.57158 0.53539 0.0
C3038 C 0.72042 0.52639 0.5813 0.0
C3039 C 0.7315 0.56096 0.50777 0.0
H3040 H 0.79159 0.52393 0.55911 0.0
H3041 H 0.73151 0.47151 0.52037 0.0
H3042 H 0.77153 0.57278 0.55031 0.0
H3043 H 0.77039 0.56306 0.57753 0.0
H3044 H 0.79477 0.56391 0.5631 0.0
H3045 H 0.69872 0.48054 0.5047 0.0
H3046 H 0.69259 0.49599 0.52975 0.0
H3047 H 0.69987 0.51032 0.50584 0.0
H3048 H 0.69433 0.55399 0.586 0.0
H3049 H 0.70261 0.5826 0.52385 0.0
H3050 H 0.73916 0.53082 0.58739 0.0
H3051 H 0.71417 0.50827 0.5721 0.0
H3052 H 0.71156 0.52731 0.59656 0.0
H3053 H 0.75012 0.56281 0.51089 0.0
H3054 H 0.72942 0.57597 0.50021 0.0
H3055 H 0.72279 0.54505 0.49498 0.0
C3056 C 0.21765 0.14183 0.52332 0.0
C3057 C 0.22128 0.16554 0.52949 0.0
C3058 C 0.19576 0.12553 0.52237 0.0
C3059 C 0.17737 0.1331 0.5286 0.0
C3060 C 0.18098 0.15706 0.53473 0.0
C3061 C 0.20279 0.173 0.5347 0.0
C3062 C 0.19237 0.10021 0.51493 0.0
C3063 C 0.16203 0.16583 0.54213 0.0
C3064 C 0.11441 0.09601 0.51266 0.0
C3065 C 0.11021 0.08682 0.5328 0.0
C3066 C 0.1365 0.11021 0.51062 0.0
C3067 C 0.15454 0.11606 0.52953 0.0
C3068 C 0.15037 0.10662 0.54985 0.0
C3069 C 0.12832 0.09174 0.55107 0.0
C3070 C 0.14043 0.11924 0.48838 0.0
C3071 C 0.16893 0.11299 0.57064 0.0
H3072 H 0.23193 0.13606 0.51919 0.0
H3073 H 0.20564 0.19131 0.53975 0.0
H3074 H 0.18853 0.09078 0.52953 0.0
H3075 H 0.17738 0.09255 0.50097 0.0
H3076 H 0.20783 0.09734 0.50877 0.0
H3077 H 0.16772 0.18499 0.54657 0.0
H3078 H 0.14695 0.16019 0.52822 0.0
H3079 H 0.15614 0.15838 0.55735 0.0
H3080 H 0.10039 0.092 0.49845 0.0
H3081 H 0.12497 0.08476 0.56671 0.0
H3082 H 0.1558 0.11601 0.48241 0.0
H3083 H 0.14387 0.13821 0.49118 0.0
H3084 H 0.12533 0.11111 0.47457 0.0
H3085 H 0.18428 0.10871 0.56603 0.0
H3086 H 0.16297 0.10393 0.58501 0.0
H3087 H 0.17449 0.13192 0.57677 0.0
C3088 C 0.19595 1.00342 0.77609 0.0
C3089 C 0.17721 1.00181 0.78803 0.0
C3090 C 0.20808 0.98751 0.77678 0.0
C3091 C 0.20122 0.96928 0.78952 0.0
C3092 C 0.18225 0.96743 0.80155 0.0
C3093 C 0.17053 0.98381 0.80077 0.0
C3094 C 0.22831 0.99026 0.76386 0.0
C3095 C 0.17427 0.9481 0.81513 0.0
C3096 C 0.22134 0.91802 0.77146 0.0
C3097 C 0.24101 0.92235 0.78787 0.0
C3098 C 0.20766 0.93259 0.77238 0.0
C3099 C 0.21394 0.95216 0.78997 0.0
C3100 C 0.23345 0.95628 0.80695 0.0
C3101 C 0.24667 0.94125 0.80577 0.0
C3102 C 0.18685 0.92738 0.75412 0.0
C3103 C 0.2409 0.97707 0.82584 0.0
H3104 H 0.20134 0.01732 0.76629 0.0
H3105 H 0.15606 0.98242 0.81001 0.0
H3106 H 0.24408 0.99193 0.77587 0.0
H3107 H 0.22504 0.97467 0.75073 0.0
H3108 H 0.23172 1.00564 0.75513 0.0
H3109 H 0.15919 0.94901 0.82345 0.0
H3110 H 0.1695 0.93116 0.80365 0.0
H3111 H 0.18851 0.94873 0.82863 0.0
H3112 H 0.21669 0.90323 0.7578 0.0
H3113 H 0.26193 0.94475 0.81842 0.0
H3114 H 0.18971 0.94115 0.74331 0.0
H3115 H 0.1714 0.92721 0.7622 0.0
H3116 H 0.18319 0.91049 0.74278 0.0
H3117 H 0.24625 0.99311 0.81826 0.0
H3118 H 0.25551 0.977 0.83856 0.0
H3119 H 0.22628 0.9777 0.83499 0.0
C3120 C 0.35842 0.96334 0.08174 0.0
C3121 C 0.34772 0.94118 0.06884 0.0
C3122 C 0.38141 0.97573 0.08056 0.0
C3123 C 0.39399 0.96548 0.06647 0.0
C3124 C 0.38356 0.94271 0.05424 0.0
C3125 C 0.36049 0.93091 0.05542 0.0
C3126 C 0.39192 1.00009 0.09361 0.0
C3127 C 0.39657 0.93104 0.03936 0.0
C3128 C 0.44335 1.00294 0.0414 0.0
C3129 C 0.46258 1.00243 0.05605 0.0
C3130 C 0.42091 0.99148 0.04501 0.0
C3131 C 0.41766 0.9789 0.06346 0.0
C3132 C 0.437 0.97841 0.07838 0.0
C3133 C 0.45926 0.99035 0.0746 0.0
C3134 C 0.40066 0.99266 0.02892 0.0
C3135 C 0.43418 0.96485 0.09801 0.0
H3136 H 0.34856 0.97138 0.09204 0.0
H3137 H 0.35233 0.91369 0.04557 0.0
H3138 H 0.40844 1.00197 0.10447 0.0
H3139 H 0.39586 0.01238 0.08128 0.0
H3140 H 0.38028 1.00508 0.10477 0.0
H3141 H 0.38651 0.91269 0.03237 0.0
H3142 H 0.40077 0.94034 0.02474 0.0
H3143 H 0.41313 0.93172 0.04938 0.0
H3144 H 0.44582 0.01245 0.02718 0.0
H3145 H 0.47408 0.98982 0.08593 0.0
H3146 H 0.38894 0.99901 0.03889 0.0
H3147 H 0.3906 0.97511 0.0195 0.0
H3148 H 0.40613 1.00418 0.01617 0.0
H3149 H 0.42319 0.9706 0.10944 0.0
H3150 H 0.45098 0.96677 0.10843 0.0
H3151 H 0.42534 0.94624 0.09116 0.0
C3152 C 0.83451 0.60059 0.76792 0.0
C3153 C 0.83191 0.57842 0.75654 0.0
C3154 C 0.82087 0.61328 0.75973 0.0
C3155 C 0.80418 0.6035 0.73971 0.0
C3156 C 0.80155 0.5812 0.72803 0.0
C3157 C 0.81549 0.56889 0.73659 0.0
C3158 C 0.82418 0.63711 0.77267 0.0
C3159 C 0.78387 0.57028 0.7067 0.0
C3160 C 0.75888 0.63265 0.74028 0.0
C3161 C 0.7681 0.65093 0.72851 0.0
C3162 C 0.76911 0.6154 0.74201 0.0
C3163 C 0.78906 0.6166 0.73185 0.0
C3164 C 0.79673 0.63333 0.71765 0.0
C3165 C 0.78604 0.6503 0.71605 0.0
C3166 C 0.76018 0.5976 0.75702 0.0
C3167 C 0.81775 0.63491 0.70622 0.0
H3168 H 0.84722 0.60807 0.78327 0.0
H3169 H 0.81343 0.55174 0.72769 0.0
H3170 H 0.82818 0.65007 0.76101 0.0
H3171 H 0.80801 0.63751 0.77904 0.0
H3172 H 0.83831 0.64239 0.78759 0.0
H3173 H 0.78477 0.55323 0.69902 0.0
H3174 H 0.76629 0.56786 0.71097 0.0
H3175 H 0.78639 0.58184 0.69362 0.0
H3176 H 0.74507 0.63295 0.75005 0.0
H3177 H 0.79287 0.66409 0.70648 0.0
H3178 H 0.77149 0.60263 0.77398 0.0
H3179 H 0.76042 0.58034 0.74929 0.0
H3180 H 0.74232 0.59619 0.75992 0.0
H3181 H 0.83348 0.64306 0.71924 0.0
H3182 H 0.81862 0.64552 0.69231 0.0
H3183 H 0.81792 0.61749 0.69893 0.0
C3184 C 0.84966 0.66504 0.03938 0.0
C3185 C 0.83049 0.65788 0.05068 0.0
C3186 C 0.8657 0.6529 0.0387 0.0
C3187 C 0.86233 0.63299 0.04934 0.0
C3188 C 0.84293 0.62565 0.06063 0.0
C3189 C 0.82737 0.63822 0.06126 0.0
C3190 C 0.88628 0.6614 0.02669 0.0
C3191 C 0.83853 0.60443 0.07201 0.0
C3192 C 0.89002 0.5873 0.03154 0.0
C3193 C 0.90785 0.59164 0.05006 0.0
C3194 C 0.87548 0.60101 0.03075 0.0
C3195 C 0.87897 0.61969 0.0488 0.0
C3196 C 0.89743 0.62462 0.06715 0.0
C3197 C 0.91153 0.61046 0.06763 0.0
C3198 C 0.85586 0.59498 0.011 0.0
C3199 C 0.90195 0.64454 0.08658 0.0
H3200 H 0.85223 0.68023 0.0312 0.0
H3201 H 0.81257 0.63246 0.06995 0.0
H3202 H 0.90244 0.66517 0.03892 0.0
H3203 H 0.88618 0.64776 0.01254 0.0
H3204 H 0.88656 0.67726 0.01944 0.0
H3205 H 0.82246 0.60081 0.07978 0.0
H3206 H 0.83721 0.58911 0.05924 0.0
H3207 H 0.8532 0.60666 0.0857 0.0
H3208 H 0.88699 0.57269 0.01799 0.0
H3209 H 0.9255 0.61411 0.08182 0.0
H3210 H 0.85647 0.61036 0.00283 0.0
H3211 H 0.83916 0.58955 0.01754 0.0
H3212 H 0.85628 0.5808 0.99768 0.0
H3213 H 0.90334 0.66075 0.07964 0.0
H3214 H 0.918 0.64714 0.09863 0.0
H3215 H 0.88727 0.64129 0.0964 0.0
C3216 C 0.17749 0.14118 0.82324 0.0
C3217 C 0.18167 0.12194 0.81157 0.0
C3218 C 0.19254 0.16369 0.82402 0.0
C3219 C 0.21203 0.16702 0.81259 0.0
C3220 C 0.21692 0.14762 0.80174 0.0
C3221 C 0.20179 0.12533 0.80151 0.0
C3222 C 0.18698 0.18394 0.83615 0.0
C3223 C 0.23739 0.15043 0.78917 0.0
C3224 C 0.23255 0.2228 0.78859 0.0
C3225 C 0.25263 0.23531 0.8041 0.0
C3226 C 0.21927 0.20058 0.79119 0.0
C3227 C 0.22599 0.19073 0.81 0.0
C3228 C 0.24614 0.20333 0.82587 0.0
C3229 C 0.25936 0.22543 0.82261 0.0
C3230 C 0.1981 0.18757 0.77367 0.0
C3231 C 0.25364 0.19354 0.84632 0.0
H3232 H 0.1621 0.13874 0.83122 0.0
H3233 H 0.20522 0.1106 0.79245 0.0
H3234 H 0.2025 0.19603 0.84763 0.0
H3235 H 0.18157 0.19364 0.82327 0.0
H3236 H 0.17291 0.17839 0.84649 0.0
H3237 H 0.23989 0.13362 0.78328 0.0
H3238 H 0.23486 0.15867 0.77392 0.0
H3239 H 0.25338 0.16194 0.80036 0.0
H3240 H 0.2273 0.23028 0.77419 0.0
H3241 H 0.27475 0.23511 0.83478 0.0
H3242 H 0.18257 0.18335 0.78224 0.0
H3243 H 0.19968 0.17098 0.7656 0.0
H3244 H 0.19539 0.19759 0.7599 0.0
H3245 H 0.23961 0.18927 0.8569 0.0
H3246 H 0.26944 0.20574 0.85735 0.0
H3247 H 0.25702 0.17722 0.84042 0.0
C3248 C 0.37437 0.97064 0.31519 0.0
C3249 C 0.37581 0.9841 0.29766 0.0
C3250 C 0.36077 0.94734 0.31103 0.0
C3251 C 0.34827 0.9373 0.2888 0.0
C3252 C 0.34869 0.95103 0.27132 0.0
C3253 C 0.36249 0.97434 0.27596 0.0
C3254 C 0.36064 0.93324 0.33015 0.0
C3255 C 0.33538 0.94085 0.24747 0.0
C3256 C 0.33794 0.87313 0.27346 0.0
C3257 C 0.31536 0.86382 0.27788 0.0
C3258 C 0.34858 0.89708 0.27625 0.0
C3259 C 0.3363 0.91203 0.28356 0.0
C3260 C 0.31327 0.90278 0.28735 0.0
C3261 C 0.30307 0.87874 0.28451 0.0
C3262 C 0.37322 0.90638 0.27209 0.0
C3263 C 0.29966 0.91826 0.29505 0.0
H3264 H 0.38442 0.9781 0.33208 0.0
H3265 H 0.36344 0.98468 0.26237 0.0
H3266 H 0.34268 0.92405 0.3323 0.0
H3267 H 0.36892 0.91993 0.32567 0.0
H3268 H 0.36999 0.94405 0.34685 0.0
H3269 H 0.33561 0.95432 0.23658 0.0
H3270 H 0.343 0.92844 0.23898 0.0
H3271 H 0.3172 0.93111 0.24838 0.0
H3272 H 0.34752 0.86172 0.26824 0.0
H3273 H 0.28554 0.87167 0.28779 0.0
H3274 H 0.38446 0.91604 0.28843 0.0
H3275 H 0.3746 0.91867 0.25973 0.0
H3276 H 0.3799 0.89244 0.26528 0.0
H3277 H 0.30754 0.92796 0.31257 0.0
H3278 H 0.28136 0.90836 0.29539 0.0
H3279 H 0.30019 0.93118 0.28348 0.0
C3280 C 0.59014 0.39077 0.57963 0.0
C3281 C 0.58169 0.38149 0.59876 0.0
C3282 C 0.58659 0.41116 0.57311 0.0
C3283 C 0.57458 0.42346 0.58608 0.0
C3284 C 0.56618 0.41427 0.60553 0.0
C3285 C 0.5696 0.3936 0.61141 0.0
C3286 C 0.59565 0.41948 0.55205 0.0
C3287 C 0.55366 0.42647 0.6204 0.0
C3288 C 0.58338 0.48829 0.58093 0.0
C3289 C 0.56306 0.48748 0.56677 0.0
C3290 C 0.58724 0.46797 0.58735 0.0
C3291 C 0.57069 0.44565 0.5793 0.0
C3292 C 0.55031 0.44471 0.56474 0.0
C3293 C 0.5467 0.46532 0.55894 0.0
C3294 C 0.60909 0.4705 0.60314 0.0
C3295 C 0.53215 0.42175 0.55513 0.0
H3296 H 0.59948 0.38192 0.5695 0.0
H3297 H 0.56299 0.38707 0.62629 0.0
H3298 H 0.58131 0.42057 0.53965 0.0
H3299 H 0.60833 0.43713 0.55688 0.0
H3300 H 0.60408 0.40794 0.54333 0.0
H3301 H 0.54866 0.41775 0.63523 0.0
H3302 H 0.56476 0.44456 0.62701 0.0
H3303 H 0.53786 0.42721 0.61003 0.0
H3304 H 0.59628 0.50498 0.5874 0.0
H3305 H 0.53091 0.46396 0.54799 0.0
H3306 H 0.61911 0.46064 0.59453 0.0
H3307 H 0.60476 0.46312 0.61884 0.0
H3308 H 0.62017 0.48883 0.60833 0.0
H3309 H 0.53994 0.41018 0.54548 0.0
H3310 H 0.51763 0.42356 0.54348 0.0
H3311 H 0.52516 0.41319 0.56937 0.0
C3312 C 0.44107 0.80906 0.3871 0.0
C3313 C 0.44038 0.79121 0.39994 0.0
C3314 C 0.42162 0.80881 0.37201 0.0
C3315 C 0.40075 0.79015 0.36933 0.0
C3316 C 0.39987 0.77207 0.38227 0.0
C3317 C 0.41959 0.77285 0.39744 0.0
C3318 C 0.42343 0.82863 0.35888 0.0
C3319 C 0.37808 0.75181 0.38002 0.0
C3320 C 0.34524 0.80025 0.34406 0.0
C3321 C 0.34256 0.79089 0.32065 0.0
C3322 C 0.3637 0.79971 0.3601 0.0
C3323 C 0.38009 0.78955 0.35275 0.0
C3324 C 0.37724 0.77968 0.32925 0.0
C3325 C 0.35864 0.78049 0.31356 0.0
C3326 C 0.36588 0.81044 0.38489 0.0
C3327 C 0.39404 0.76843 0.32058 0.0
H3328 H 0.45691 0.82342 0.3889 0.0
H3329 H 0.41875 0.75897 0.40723 0.0
H3330 H 0.42008 0.8221 0.34012 0.0
H3331 H 0.41014 0.83675 0.36268 0.0
H3332 H 0.44067 0.84211 0.3632 0.0
H3333 H 0.38021 0.73895 0.39092 0.0
H3334 H 0.36383 0.75795 0.38499 0.0
H3335 H 0.37279 0.74306 0.36184 0.0
H3336 H 0.33292 0.80817 0.34992 0.0
H3337 H 0.35679 0.77305 0.29564 0.0
H3338 H 0.38199 0.8254 0.38962 0.0
H3339 H 0.3671 0.79781 0.39636 0.0
H3340 H 0.35107 0.81645 0.38818 0.0
H3341 H 0.41147 0.78145 0.32293 0.0
H3342 H 0.38892 0.76059 0.3021 0.0
H3343 H 0.39537 0.75478 0.33071 0.0
C3344 C 0.05312 0.72888 0.06509 0.0
C3345 C 0.05378 0.73719 0.08847 0.0
C3346 C 0.05043 0.70519 0.05714 0.0
C3347 C 0.04884 0.68921 0.07286 0.0
C3348 C 0.04964 0.69762 0.0964 0.0
C3349 C 0.05184 0.72106 0.10374 0.0
C3350 C 0.04926 0.69722 0.03184 0.0
C3351 C 0.04849 0.68185 0.11411 0.0
C3352 C 0.02247 0.6227 0.05535 0.0
C3353 C 0.04199 0.61534 0.05478 0.0
C3354 C 0.0244 0.64646 0.06015 0.0
C3355 C 0.04644 0.66381 0.0651 0.0
C3356 C 0.0662 0.6565 0.0644 0.0
C3357 C 0.06376 0.63262 0.05904 0.0
C3358 C 1.00268 0.65298 0.06019 0.0
C3359 C 0.09012 0.67392 0.07 0.0
H3360 H 0.05464 0.74083 0.05296 0.0
H3361 H 0.05251 0.72686 0.12189 0.0
H3362 H 0.06391 0.69082 0.02903 0.0
H3363 H 0.03316 0.68258 0.02532 0.0
H3364 H 0.04978 0.71126 0.02161 0.0
H3365 H 0.04982 0.69099 0.13183 0.0
H3366 H 0.03201 0.66731 0.11006 0.0
H3367 H 0.06267 0.67427 0.11369 0.0
H3368 H 1.00549 0.60981 0.0519 0.0
H3369 H 0.07906 0.62746 0.05876 0.0
H3370 H 1.00287 0.6662 0.04904 0.0
H3371 H 1.00183 0.66073 0.07785 0.0
H3372 H 0.98686 0.63786 0.05413 0.0
H3373 H 0.0919 0.68725 0.05875 0.0
H3374 H 0.10375 0.66579 0.06794 0.0
H3375 H 0.09302 0.68293 0.08802 0.0
C3376 C 0.0542 0.26029 0.88386 0.0
C3377 C 0.05457 0.27373 0.90493 0.0
C3378 C 0.073 0.26565 0.87176 0.0
C3379 C 0.09285 0.28486 0.88095 0.0
C3380 C 0.09334 0.29856 0.90218 0.0
C3381 C 0.07418 0.29289 0.91387 0.0
C3382 C 0.07164 0.25067 0.84912 0.0
C3383 C 0.11421 0.31909 0.91264 0.0
C3384 C 0.14885 0.28451 0.85934 0.0
C3385 C 0.15037 0.2992 0.84284 0.0
C3386 C 0.13052 0.28008 0.87216 0.0
C3387 C 0.11308 0.2904 0.86834 0.0
C3388 C 0.11456 0.30536 0.85185 0.0
C3389 C 0.13317 0.30963 0.8394 0.0
C3390 C 0.12966 0.26406 0.88959 0.0
C3391 C 0.09633 0.31667 0.84716 0.0
H3392 H 0.03914 0.24548 0.87675 0.0
H3393 H 0.07467 0.30335 0.93015 0.0
H3394 H 0.07415 0.26137 0.8353 0.0
H3395 H 0.08565 0.24282 0.85019 0.0
H3396 H 0.05484 0.23657 0.84413 0.0
H3397 H 0.11186 0.3281 0.92917 0.0
H3398 H 0.12956 0.31338 0.91574 0.0
H3399 H 0.11791 0.33162 0.90054 0.0
H3400 H 0.16179 0.27608 0.86198 0.0
H3401 H 0.13432 0.32133 0.82703 0.0
H3402 H 0.11406 0.24858 0.88448 0.0
H3403 H 0.12837 0.27281 0.90667 0.0
H3404 H 0.14509 0.25827 0.89132 0.0
H3405 H 0.07931 0.30322 0.84099 0.0
H3406 H 0.10017 0.32818 0.8341 0.0
H3407 H 0.09479 0.32699 0.86327 0.0
C3408 C 0.53573 0.76009 0.93236 0.0
C3409 C 0.5577 0.77682 0.93642 0.0
C3410 C 0.53059 0.74151 0.94474 0.0
C3411 C 0.54789 0.73942 0.96138 0.0
C3412 C 0.57013 0.75617 0.96537 0.0
C3413 C 0.57471 0.77467 0.95299 0.0
C3414 C 0.50659 0.7242 0.94013 0.0
C3415 C 0.58918 0.75452 0.98274 0.0
C3416 C 0.53207 0.70471 0.00955 0.0
C3417 C 0.5358 0.68386 1.00158 0.0
C3418 C 0.53533 0.72263 0.9964 0.0
C3419 C 0.54283 0.71989 0.9748 0.0
C3420 C 0.54643 0.69886 0.96653 0.0
C3421 C 0.54275 0.6811 0.97991 0.0
C3422 C 0.53116 0.7447 0.00584 0.0
C3423 C 0.55454 0.69523 0.94367 0.0
H3424 H 0.52247 0.76161 0.91965 0.0
H3425 H 0.59178 0.7874 0.95619 0.0
H3426 H 0.50734 0.7066 0.93452 0.0
H3427 H 0.49888 0.72381 0.95618 0.0
H3428 H 0.49506 0.72825 0.92671 0.0
H3429 H 0.60564 0.7687 0.98354 0.0
H3430 H 0.58401 0.75514 1.00008 0.0
H3431 H 0.59221 0.73774 0.97834 0.0
H3432 H 0.52704 0.7073 0.02636 0.0
H3433 H 0.54529 0.66498 0.9733 0.0
H3434 H 0.51898 0.74878 0.99315 0.0
H3435 H 0.54757 0.7593 0.00892 0.0
H3436 H 0.52404 0.74362 0.02223 0.0
H3437 H 0.54242 0.69773 0.92975 0.0
H3438 H 0.55605 0.67771 0.93941 0.0
H3439 H 0.57163 0.70826 0.94395 0.0
C3440 C 0.11356 0.78795 0.73875 0.0
C3441 C 0.09574 0.77946 0.75165 0.0
C3442 C 0.1366 0.78879 0.74555 0.0
C3443 C 0.14286 0.78133 0.76624 0.0
C3444 C 0.1252 0.77316 0.77974 0.0
C3445 C 0.10199 0.77212 0.77226 0.0
C3446 C 0.15427 0.79742 0.73022 0.0
C3447 C 0.13083 0.7654 0.80213 0.0
C3448 C 0.19975 0.76594 0.7717 0.0
C3449 C 0.21626 0.78675 0.78332 0.0
C3450 C 0.17594 0.76372 0.76659 0.0
C3451 C 0.16792 0.78255 0.77354 0.0
C3452 C 0.18444 0.80332 0.78589 0.0
C3453 C 0.20812 0.8052 0.79038 0.0
C3454 C 0.15943 0.74134 0.75305 0.0
C3455 C 0.17719 0.82388 0.79408 0.0
H3456 H 0.10947 0.79364 0.72273 0.0
H3457 H 0.08872 0.76537 0.78249 0.0
H3458 H 0.16832 0.81287 0.73969 0.0
H3459 H 0.16219 0.78396 0.72514 0.0
H3460 H 0.14671 0.80207 0.71438 0.0
H3461 H 0.11564 0.76033 0.81116 0.0
H3462 H 0.13719 0.75044 0.79889 0.0
H3463 H 0.14485 0.77949 0.81361 0.0
H3464 H 0.20551 0.75149 0.76604 0.0
H3465 H 0.22037 0.82138 0.79953 0.0
H3466 H 0.15214 0.74446 0.73627 0.0
H3467 H 0.14479 0.73458 0.76236 0.0
H3468 H 0.16787 0.72792 0.7498 0.0
H3469 H 0.17109 0.83077 0.77908 0.0
H3470 H 0.19151 0.83801 0.80522 0.0
H3471 H 0.16259 0.8186 0.80383 0.0
C3472 C 0.07132 0.41492 0.44247 0.0
C3473 C 0.05028 0.39676 0.43671 0.0
C3474 C 0.07335 0.43542 0.45745 0.0
C3475 C 0.05379 0.43814 0.46658 0.0
C3476 C 0.03244 0.42001 0.46044 0.0
C3477 C 0.03102 0.39956 0.44586 0.0
C3478 C 0.09654 0.45405 0.46379 0.0
C3479 C 0.01101 0.42219 0.4693 0.0
C3480 C 0.05968 0.48004 0.52205 0.0
C3481 C 0.0558 0.49915 0.51374 0.0
C3482 C 0.05983 0.46049 0.50695 0.0
C3483 C 0.05557 0.45967 0.48282 0.0
C3484 C 0.05192 0.47904 0.47432 0.0
C3485 C 0.05227 0.49854 0.48982 0.0
C3486 C 0.06423 0.44052 0.51687 0.0
C3487 C 0.04696 0.47891 0.44881 0.0
H3488 H 0.08632 0.41294 0.43558 0.0
H3489 H 0.01463 0.38577 0.44142 0.0
H3490 H 0.09533 0.47047 0.45882 0.0
H3491 H 0.10195 0.45732 0.4827 0.0
H3492 H 0.1101 0.44935 0.45534 0.0
H3493 H 0.99554 0.40696 0.46225 0.0
H3494 H 0.01357 0.42412 0.48834 0.0
H3495 H 1.00763 0.43793 0.46472 0.0
H3496 H 0.06258 0.4803 0.54044 0.0
H3497 H 0.04915 0.5131 0.48313 0.0
H3498 H 0.07842 0.43606 0.50949 0.0
H3499 H 0.04861 0.42503 0.5122 0.0
H3500 H 0.06882 0.44442 0.5359 0.0
H3501 H 0.06081 0.47519 0.44015 0.0
H3502 H 0.04543 0.49562 0.4449 0.0
H3503 H 0.03061 0.46495 0.44131 0.0
C3504 C 0.4481 0.26742 0.23378 0.0
C3505 C 0.4603 0.25613 0.24705 0.0
C3506 C 0.42744 0.2711 0.23953 0.0
C3507 C 0.41844 0.26386 0.25948 0.0
C3508 C 0.43087 0.25272 0.27311 0.0
C3509 C 0.45121 0.24882 0.26668 0.0
C3510 C 0.41501 0.28254 0.22394 0.0
C3511 C 0.4227 0.24495 0.29472 0.0
C3512 C 0.37602 0.2926 0.28496 0.0
C3513 C 0.35415 0.27566 0.2778 0.0
C3514 C 0.39676 0.28891 0.2795 0.0
C3515 C 0.39619 0.26786 0.26598 0.0
C3516 C 0.37415 0.25074 0.25861 0.0
C3517 C 0.35372 0.25469 0.26472 0.0
C3518 C 0.41946 0.30767 0.28841 0.0
C3519 C 0.37204 0.22815 0.24391 0.0
H3520 H 0.4545 0.2731 0.21849 0.0
H3521 H 0.46016 0.24011 0.27727 0.0
H3522 H 0.39705 0.27101 0.21772 0.0
H3523 H 0.41399 0.29873 0.23362 0.0
H3524 H 0.42367 0.28674 0.20883 0.0
H3525 H 0.4346 0.23753 0.30412 0.0
H3526 H 0.42107 0.25976 0.30635 0.0
H3527 H 0.40537 0.23171 0.2904 0.0
H3528 H 0.37702 0.30887 0.29511 0.0
H3529 H 0.33723 0.24133 0.25882 0.0
H3530 H 0.42793 0.31385 0.27379 0.0
H3531 H 0.43121 0.30066 0.29856 0.0
H3532 H 0.41737 0.32266 0.29939 0.0
H3533 H 0.3796 0.23152 0.22804 0.0
H3534 H 0.35383 0.21677 0.23895 0.0
H3535 H 0.3819 0.21879 0.25329 0.0
C3536 C 0.58424 0.55967 0.3802 0.0
C3537 C 0.59852 0.54818 0.37072 0.0
C3538 C 0.57891 0.55789 0.40256 0.0
C3539 C 0.58812 0.54437 0.4161 0.0
C3540 C 0.60222 0.5324 0.4065 0.0
C3541 C 0.60719 0.53439 0.384 0.0
C3542 C 0.5637 0.57086 0.41188 0.0
C3543 C 0.61249 0.51786 0.42021 0.0
C3544 C 0.59245 0.55987 0.48143 0.0
C3545 C 0.57283 0.54326 0.4861 0.0
C3546 C 0.59792 0.56004 0.45895 0.0
C3547 C 0.5834 0.5433 0.44042 0.0
C3548 C 0.56386 0.52617 0.44509 0.0
C3549 C 0.55887 0.52631 0.46778 0.0
C3550 C 0.61903 0.57853 0.45496 0.0
C3551 C 0.54782 0.50801 0.42599 0.0
H3552 H 0.57742 0.57039 0.37021 0.0
H3553 H 0.61831 0.52551 0.377 0.0
H3554 H 0.54872 0.55875 0.41752 0.0
H3555 H 0.57347 0.58381 0.42719 0.0
H3556 H 0.5572 0.57993 0.39898 0.0
H3557 H 0.62245 0.509 0.41011 0.0
H3558 H 0.62413 0.52892 0.43576 0.0
H3559 H 0.59866 0.50462 0.42616 0.0
H3560 H 0.60342 0.57307 0.49532 0.0
H3561 H 0.54362 0.51341 0.47102 0.0
H3562 H 0.61376 0.58985 0.44385 0.0
H3563 H 0.63021 0.57055 0.44583 0.0
H3564 H 0.62932 0.58944 0.47127 0.0
H3565 H 0.53965 0.51642 0.41364 0.0
H3566 H 0.53401 0.49522 0.43251 0.0
H3567 H 0.55767 0.49868 0.41635 0.0
C3568 C 0.23666 0.8269 0.06944 0.0
C3569 C 0.24966 0.84672 0.08531 0.0
C3570 C 0.23375 0.80472 0.07474 0.0
C3571 C 0.24476 0.80248 0.09609 0.0
C3572 C 0.25608 0.82248 0.11294 0.0
C3573 C 0.25806 0.84437 0.10741 0.0
C3574 C 0.22015 0.78404 0.05679 0.0
C3575 C 0.26789 0.82102 0.13619 0.0
C3576 C 0.24571 0.75621 0.12972 0.0
C3577 C 0.26806 0.75569 0.12748 0.0
C3578 C 0.23513 0.76802 0.11571 0.0
C3579 C 0.24768 0.78019 0.10017 0.0
C3580 C 0.26763 0.77535 0.09446 0.0
C3581 C 0.2773 0.76247 0.1079 0.0
C3582 C 0.21232 0.77054 0.12002 0.0
C3583 C 0.28078 0.78679 0.07678 0.0
H3584 H 0.22966 0.82867 0.05243 0.0
H3585 H 0.26794 0.85966 0.11976 0.0
H3586 H 0.23067 0.78202 0.04313 0.0
H3587 H 0.21497 0.76777 0.064 0.0
H3588 H 0.20439 0.78684 0.04845 0.0
H3589 H 0.27599 0.83826 0.14716 0.0
H3590 H 0.2553 0.8101 0.1455 0.0
H3591 H 0.2815 0.81291 0.13394 0.0
H3592 H 0.23764 0.75017 0.14409 0.0
H3593 H 0.29379 0.76063 0.10505 0.0
H3594 H 0.20182 0.77082 0.10368 0.0
H3595 H 0.21536 0.78717 0.13151 0.0
H3596 H 0.20245 0.75626 0.12832 0.0
H3597 H 0.26888 0.78504 0.06074 0.0
H3598 H 0.29441 0.77927 0.0726 0.0
H3599 H 0.28908 0.80554 0.08347 0.0
C3600 C 0.95101 0.58501 0.89374 0.0
C3601 C 0.95397 0.57366 0.87291 0.0
C3602 C 0.96489 0.58553 0.91437 0.0
C3603 C 0.98192 0.57439 0.91393 0.0
C3604 C 0.98645 0.56505 0.89265 0.0
C3605 C 0.97242 0.56483 0.87239 0.0
C3606 C 0.95991 0.59608 0.93676 0.0
C3607 C 1.00449 0.5531 0.89137 0.0
C3608 C 0.02226 0.57572 0.96779 0.0
C3609 C 1.00992 0.5554 0.97514 0.0
C3610 C 0.01324 0.58253 0.94806 0.0
C3611 C 0.99167 0.56841 0.93536 0.0
C3612 C 0.97945 0.54764 0.94255 0.0
C3613 C 0.98865 0.54152 0.96245 0.0
C3614 C 0.02649 0.60497 0.94108 0.0
C3615 C 0.9566 0.53182 0.92923 0.0
H3616 H 0.9369 0.59206 0.89417 0.0
H3617 H 0.97509 0.55646 0.85621 0.0
H3618 H 0.95004 0.58212 0.94539 0.0
H3619 H 0.97617 0.60591 0.94854 0.0
H3620 H 0.94959 0.60779 0.93404 0.0
H3621 H 1.00837 0.55011 0.87361 0.0
H3622 H 0.02072 0.56335 0.90296 0.0
H3623 H 0.99814 0.53609 0.89708 0.0
H3624 H 0.03854 0.58667 0.97787 0.0
H3625 H 0.97912 0.52578 0.96813 0.0
H3626 H 0.01619 0.61695 0.94188 0.0
H3627 H 0.02951 0.60189 0.92304 0.0
H3628 H 0.04339 0.61354 0.95233 0.0
H3629 H 0.94385 0.54123 0.92834 0.0
H3630 H 0.94945 0.51622 0.93711 0.0
H3631 H 0.95867 0.52613 0.91133 0.0
C3632 C 0.31356 0.25425 0.62442 0.0
C3633 C 0.29689 0.25428 0.6063 0.0
C3634 C 0.3126 0.26269 0.64738 0.0
C3635 C 0.29399 0.27048 0.65255 0.0
C3636 C 0.27743 0.27107 0.63423 0.0
C3637 C 0.27931 0.26334 0.61135 0.0
C3638 C 0.33113 0.26252 0.66618 0.0
C3639 C 0.25693 0.27853 0.63886 0.0
C3640 C 0.27791 0.264 0.71235 0.0
C3641 C 0.2863 0.28686 0.72395 0.0
C3642 C 0.27964 0.2586 0.68898 0.0
C3643 C 0.29095 0.27637 0.67711 0.0
C3644 C 0.29962 0.29953 0.68891 0.0
C3645 C 0.29684 0.30454 0.71208 0.0
C3646 C 0.2695 0.23378 0.67704 0.0
C3647 C 0.31254 0.3189 0.67732 0.0
H3648 H 0.32718 0.24726 0.62066 0.0
H3649 H 0.26614 0.26307 0.59751 0.0
H3650 H 0.33763 0.27942 0.6779 0.0
H3651 H 0.32383 0.24911 0.67661 0.0
H3652 H 0.3459 0.25886 0.6592 0.0
H3653 H 0.24628 0.27923 0.62277 0.0
H3654 H 0.24593 0.2662 0.64837 0.0
H3655 H 0.26267 0.2958 0.64985 0.0
H3656 H 0.26989 0.25032 0.72159 0.0
H3657 H 0.30375 0.32218 0.72121 0.0
H3658 H 0.28346 0.2272 0.67203 0.0
H3659 H 0.25775 0.23264 0.66103 0.0
H3660 H 0.25974 0.22233 0.68811 0.0
H3661 H 0.32802 0.31545 0.67189 0.0
H3662 H 0.31813 0.33596 0.68877 0.0
H3663 H 0.30159 0.31983 0.66157 0.0
C3664 C 0.60568 0.53809 0.2186 0.0
C3665 C 0.5962 0.54409 0.23805 0.0
C3666 C 0.59622 0.53928 0.19628 0.0
C3667 C 0.57647 0.54642 0.19293 0.0
C3668 C 0.56636 0.55191 0.21235 0.0
C3669 C 0.57637 0.5508 0.23464 0.0
C3670 C 0.60771 0.53329 0.17625 0.0
C3671 C 0.54511 0.55925 0.20959 0.0
C3672 C 0.56699 0.5692 0.13661 0.0
C3673 C 0.55183 0.54936 0.12212 0.0
C3674 C 0.57456 0.56872 0.15985 0.0
C3675 C 0.56661 0.548 0.16905 0.0
C3676 C 0.55059 0.52822 0.15472 0.0
C3677 C 0.54355 0.52909 0.13153 0.0
C3678 C 0.59181 0.59018 0.17433 0.0
C3679 C 0.54139 0.50581 0.16368 0.0
H3680 H 0.62099 0.53292 0.2208 0.0
H3681 H 0.56887 0.55556 0.2494 0.0
H3682 H 0.59528 0.51892 0.16359 0.0
H3683 H 0.61328 0.54838 0.1673 0.0
H3684 H 0.62299 0.52811 0.18168 0.0
H3685 H 0.53875 0.56207 0.22617 0.0
H3686 H 0.54895 0.57552 0.20232 0.0
H3687 H 0.53112 0.54593 0.19729 0.0
H3688 H 0.57357 0.58493 0.12959 0.0
H3689 H 0.53169 0.51366 0.12066 0.0
H3690 H 0.60835 0.58692 0.17903 0.0
H3691 H 0.58556 0.59458 0.19057 0.0
H3692 H 0.5952 0.6053 0.16521 0.0
H3693 H 0.55558 0.49862 0.16763 0.0
H3694 H 0.52748 0.49267 0.1511 0.0
H3695 H 0.53458 0.50891 0.17991 0.0
C3696 C 0.28411 0.85494 0.97032 0.0
C3697 C 0.27141 0.8697 0.97606 0.0
C3698 C 0.28394 0.84612 0.94745 0.0
C3699 C 0.27054 0.85201 0.9298 0.0
C3700 C 0.25719 0.86645 0.93538 0.0
C3701 C 0.25788 0.87528 0.95856 0.0
C3702 C 0.29857 0.83092 0.94218 0.0
C3703 C 0.24252 0.87279 0.91689 0.0
C3704 C 0.2925 0.84713 0.87309 0.0
C3705 C 0.27896 0.82468 0.8626 0.0
C3706 C 0.2891 0.85677 0.89452 0.0
C3707 C 0.27158 0.8437 0.90556 0.0
C3708 C 0.25712 0.82146 0.89458 0.0
C3709 C 0.2611 0.81212 0.87325 0.0
C3710 C 0.30505 0.88043 0.90585 0.0
C3711 C 0.23808 0.80717 0.90577 0.0
H3712 H 0.29462 0.85052 0.98374 0.0
H3713 H 0.24796 0.88659 0.96295 0.0
H3714 H 0.28767 0.81402 0.93197 0.0
H3715 H 0.31161 0.83916 0.93167 0.0
H3716 H 0.30771 0.82771 0.95799 0.0
H3717 H 0.23202 0.88294 0.92415 0.0
H3718 H 0.25369 0.88313 0.906 0.0
H3719 H 0.23079 0.85693 0.90551 0.0
H3720 H 0.30624 0.857 0.86487 0.0
H3721 H 0.2503 0.79491 0.86502 0.0
H3722 H 0.31615 0.8788 0.92117 0.0
H3723 H 0.29499 0.89159 0.91188 0.0
H3724 H 0.31635 0.88918 0.89408 0.0
H3725 H 0.24571 0.80139 0.9208 0.0
H3726 H 0.22654 0.79165 0.89375 0.0
H3727 H 0.22758 0.81769 0.91222 0.0
C3728 C 0.95866 0.5723 0.76337 0.0
C3729 C 0.93616 0.55739 0.7552 0.0
C3730 C 0.97673 0.57204 0.75107 0.0
C3731 C 0.97216 0.55628 0.73033 0.0
C3732 C 0.94937 0.54179 0.72154 0.0
C3733 C 0.93155 0.54263 0.73404 0.0
C3734 C 1.00077 0.58816 0.76055 0.0
C3735 C 0.94392 0.52499 0.69925 0.0
C3736 C 0.015 0.56523 0.68863 0.0
C3737 C 0.02637 0.54934 0.69339 0.0
C3738 C 0.99742 0.56783 0.70067 0.0
C3739 C 0.99133 0.55445 0.71807 0.0
C3740 C 1.0031 0.53877 0.72336 0.0
C3741 C 0.02049 0.53636 0.71088 0.0
C3742 C 0.9853 0.58474 0.6945 0.0
C3743 C 0.99687 0.52413 0.74178 0.0
H3744 H 0.96224 0.58391 0.77963 0.0
H3745 H 0.9142 0.53106 0.72767 0.0
H3746 H 0.01238 0.57797 0.76445 0.0
H3747 H 1.00774 0.59867 0.7475 0.0
H3748 H 1.00123 0.6 0.77647 0.0
H3749 H 0.92519 0.51532 0.69453 0.0
H3750 H 0.94976 0.53437 0.68508 0.0
H3751 H 0.95339 0.51238 0.70072 0.0
H3752 H 0.01922 0.57503 0.67484 0.0
H3753 H 0.02931 0.52411 0.71456 0.0
H3754 H 0.99189 0.60065 0.70764 0.0
H3755 H 0.96642 0.57754 0.69423 0.0
H3756 H 0.98833 0.58957 0.67743 0.0
H3757 H 0.99838 0.53533 0.75842 0.0
H3758 H 1.00805 0.51316 0.74412 0.0
H3759 H 0.97866 0.51274 0.73722 0.0
C3760 C 0.28178 0.26265 0.46443 0.0
C3761 C 0.29237 0.24812 0.47434 0.0
C3762 C 0.28389 0.26686 0.44184 0.0
C3763 C 0.29687 0.25625 0.42859 0.0
C3764 C 0.30804 0.24197 0.43866 0.0
C3765 C 0.30569 0.2381 0.46136 0.0
C3766 C 0.27176 0.2823 0.43195 0.0
C3767 C 0.32203 0.23029 0.42523 0.0
C3768 C 0.28108 0.249 0.36332 0.0
C3769 C 0.29798 0.26789 0.35786 0.0
C3770 C 0.28093 0.24465 0.38608 0.0
C3771 C 0.29804 0.25958 0.40403 0.0
C3772 C 0.31554 0.27829 0.39854 0.0
C3773 C 0.31533 0.28219 0.3756 0.0
C3774 C 0.26201 0.22441 0.391 0.0
C3775 C 0.33412 0.29465 0.41704 0.0
H3776 H 0.27144 0.27051 0.47421 0.0
H3777 H 0.31389 0.22678 0.46874 0.0
H3778 H 0.28428 0.29649 0.42568 0.0
H3779 H 0.2586 0.27222 0.41697 0.0
H3780 H 0.26311 0.28999 0.44471 0.0
H3781 H 0.33051 0.22057 0.43578 0.0
H3782 H 0.3107 0.2181 0.41013 0.0
H3783 H 0.33549 0.24331 0.4186 0.0
H3784 H 0.26759 0.23778 0.34985 0.0
H3785 H 0.32848 0.29685 0.37169 0.0
H3786 H 0.2511 0.23079 0.40208 0.0
H3787 H 0.26955 0.21335 0.40054 0.0
H3788 H 0.25083 0.21362 0.37505 0.0
H3789 H 0.32624 0.30405 0.42917 0.0
H3790 H 0.34727 0.30752 0.40987 0.0
H3791 H 0.34288 0.28484 0.42711 0.0
C3792 C 0.35713 0.61612 0.56118 0.0
C3793 C 0.35075 0.63264 0.55023 0.0
C3794 C 0.37124 0.60453 0.5518 0.0
C3795 C 0.3789 0.60934 0.53077 0.0
C3796 C 0.37248 0.62596 0.51955 0.0
C3797 C 0.35858 0.63758 0.52954 0.0
C3798 C 0.37802 0.58717 0.56447 0.0
C3799 C 0.38011 0.63127 0.49696 0.0
C3800 C 0.43167 0.59233 0.52165 0.0
C3801 C 0.42166 0.5698 0.50933 0.0
C3802 C 0.41803 0.60602 0.52758 0.0
C3803 C 0.39383 0.59698 0.5209 0.0
C3804 C 0.38379 0.57483 0.50716 0.0
C3805 C 0.39784 0.56141 0.50166 0.0
C3806 C 0.42939 0.62949 0.54237 0.0
C3807 C 0.35806 0.56478 0.49942 0.0
H3808 H 0.35122 0.61232 0.57724 0.0
H3809 H 0.35355 0.65025 0.52096 0.0
H3810 H 0.37177 0.56987 0.55348 0.0
H3811 H 0.39709 0.59218 0.5684 0.0
H3812 H 0.3709 0.58573 0.58084 0.0
H3813 H 0.37351 0.64456 0.49038 0.0
H3814 H 0.39921 0.63748 0.49895 0.0
H3815 H 0.37394 0.61528 0.4839 0.0
H3816 H 0.45007 0.59882 0.52783 0.0
H3817 H 0.39012 0.5441 0.4919 0.0
H3818 H 0.42414 0.62914 0.55966 0.0
H3819 H 0.42368 0.64282 0.53483 0.0
H3820 H 0.44851 0.63476 0.54445 0.0
H3821 H 0.34935 0.56035 0.51442 0.0
H3822 H 0.35337 0.54888 0.48632 0.0
H3823 H 0.3513 0.57762 0.49214 0.0
C3824 C 0.88012 0.95538 0.58473 0.0
C3825 C 0.8698 0.93559 0.568 0.0
C3826 C 0.90144 0.97134 0.5829 0.0
C3827 C 0.91218 0.96779 0.56347 0.0
C3828 C 0.90151 0.94805 0.5463 0.0
C3829 C 0.88065 0.932 0.54898 0.0
C3830 C 0.91267 0.99176 0.60193 0.0
C3831 C 0.91208 0.94393 0.52502 0.0
C3832 C 0.9577 0.01813 0.54707 0.0
C3833 C 0.97777 0.01276 0.55339 0.0
C3834 C 0.93614 1.0038 0.55053 0.0
C3835 C 0.93491 0.98422 0.56128 0.0
C3836 C 0.9554 0.97949 0.56868 0.0
C3837 C 0.97654 0.9936 0.56427 0.0
C3838 C 0.91462 0.00901 0.54179 0.0
C3839 C 0.95498 0.95925 0.58083 0.0
H3840 H 0.87175 0.95811 0.59949 0.0
H3841 H 0.87252 0.91685 0.53587 0.0
H3842 H 0.92987 0.99135 0.60929 0.0
H3843 H 0.91544 0.00813 0.59499 0.0
H3844 H 0.90215 0.99194 0.61597 0.0
H3845 H 0.90086 0.92852 0.51263 0.0
H3846 H 0.91533 0.95926 0.51625 0.0
H3847 H 0.92895 0.94143 0.52987 0.0
H3848 H 0.95876 0.03292 0.53854 0.0
H3849 H 0.99221 0.98969 0.56939 0.0
H3850 H 0.90435 0.01029 0.55583 0.0
H3851 H 0.90365 0.99464 0.52816 0.0
H3852 H 0.91858 0.02535 0.53461 0.0
H3853 H 0.94524 0.95951 0.59548 0.0
H3854 H 0.9726 0.9593 0.5874 0.0
H3855 H 0.94599 0.94282 0.56884 0.0
C3856 C 0.91096 0.10952 0.30104 0.0
C3857 C 0.90276 0.09288 0.28099 0.0
C3858 C 0.89924 0.12524 0.30716 0.0
C3859 C 0.87873 0.12418 0.293 0.0
C3860 C 0.8705 0.10753 0.27267 0.0
C3861 C 0.88263 0.0922 0.26689 0.0
C3862 C 0.90871 0.14289 0.32884 0.0
C3863 C 0.84864 0.10568 0.25715 0.0
C3864 C 0.83462 0.1482 0.31787 0.0
C3865 C 0.83838 0.16901 0.30917 0.0
C3866 C 0.84791 0.13369 0.31312 0.0
C3867 C 0.86557 0.14018 0.29949 0.0
C3868 C 0.86983 0.16139 0.29109 0.0
C3869 C 0.85614 0.17545 0.29591 0.0
C3870 C 0.84272 0.11118 0.32233 0.0
C3871 C 0.88851 0.169 0.27655 0.0
H3872 H 0.9265 0.11021 0.31202 0.0
H3873 H 0.87609 0.07939 0.25139 0.0
H3874 H 0.91167 0.16057 0.32475 0.0
H3875 H 0.89597 0.14023 0.34092 0.0
H3876 H 0.92517 0.14191 0.33764 0.0
H3877 H 0.84465 0.09191 0.24187 0.0
H3878 H 0.83388 0.1019 0.26685 0.0
H3879 H 0.8502 0.12238 0.25117 0.0
H3880 H 0.82124 0.14319 0.32843 0.0
H3881 H 0.85902 0.19127 0.28877 0.0
H3882 H 0.85849 0.11028 0.33262 0.0
H3883 H 0.83723 0.09647 0.30782 0.0
H3884 H 0.82891 0.10897 0.33325 0.0
H3885 H 0.90521 0.16872 0.28544 0.0
H3886 H 0.8907 0.18667 0.27266 0.0
H3887 H 0.88427 0.15679 0.26007 0.0
C3888 C 0.7033 0.14414 0.05292 0.0
C3889 C 0.71535 0.12937 0.04539 0.0
C3890 C 0.6791 0.13657 0.04914 0.0
C3891 C 0.66699 0.11397 0.03716 0.0
C3892 C 0.67922 0.10005 0.02739 0.0
C3893 C 0.70333 0.1078 0.03194 0.0
C3894 C 0.66666 0.15181 0.06 0.0
C3895 C 0.66691 0.07609 0.01396 0.0
C3896 C 0.61377 0.07774 0.05707 0.0
C3897 C 0.59626 0.07794 0.04007 0.0
C3898 C 0.63674 0.09042 0.05686 0.0
C3899 C 0.64237 0.1031 0.03878 0.0
C3900 C 0.62469 0.1038 0.02178 0.0
C3901 C 0.60166 0.0914 0.02283 0.0
C3902 C 0.65505 0.08964 0.07563 0.0
C3903 C 0.63015 0.11671 1.00202 0.0
H3904 H 0.71268 0.16087 0.06329 0.0
H3905 H 0.71276 0.09657 0.0258 0.0
H3906 H 0.65107 0.15106 0.04824 0.0
H3907 H 0.66093 0.14556 0.0758 0.0
H3908 H 0.67796 0.17011 0.06482 0.0
H3909 H 0.6785 0.06936 0.0041 0.0
H3910 H 0.66041 0.06409 0.02601 0.0
H3911 H 0.65183 0.07602 1.00183 0.0
H3912 H 0.60947 0.06758 0.0706 0.0
H3913 H 0.58803 0.09153 0.00971 0.0
H3914 H 0.66619 0.10742 0.08343 0.0
H3915 H 0.66624 0.08044 0.06823 0.0
H3916 H 0.64753 0.08067 0.08947 0.0
H3917 H 0.64201 0.13454 0.00839 0.0
H3918 H 0.61436 0.11762 0.9917 0.0
H3919 H 0.63906 0.10787 0.99056 0.0
C3920 C 0.20705 0.48486 0.29692 0.0
C3921 C 0.2102 0.48887 0.27456 0.0
C3922 C 0.21854 0.47168 0.30805 0.0
C3923 C 0.23334 0.46225 0.29644 0.0
C3924 C 0.23647 0.46617 0.27384 0.0
C3925 C 0.22492 0.47947 0.26321 0.0
C3926 C 0.21487 0.46787 0.33218 0.0
C3927 C 0.25201 0.45626 0.26082 0.0
C3928 C 0.28095 0.44427 0.32661 0.0
C3929 C 0.27135 0.42011 0.32202 0.0
C3930 C 0.26826 0.45835 0.31954 0.0
C3931 C 0.24548 0.44797 0.30757 0.0
C3932 C 0.23527 0.42366 0.30403 0.0
C3933 C 0.24835 0.41002 0.31124 0.0
C3934 C 0.27964 0.48425 0.32381 0.0
C3935 C 0.21103 0.41192 0.29133 0.0
H3936 H 0.19575 0.49214 0.30581 0.0
H3937 H 0.22741 0.48245 0.24591 0.0
H3938 H 0.20769 0.44909 0.33258 0.0
H3939 H 0.23163 0.47447 0.34389 0.0
H3940 H 0.20296 0.47658 0.33891 0.0
H3941 H 0.25256 0.46094 0.24335 0.0
H3942 H 0.26982 0.46261 0.27048 0.0
H3943 H 0.24595 0.43713 0.2591 0.0
H3944 H 0.2986 0.45216 0.33523 0.0
H3945 H 0.24087 0.39136 0.30736 0.0
H3946 H 0.26814 0.49303 0.33124 0.0
H3947 H 0.28287 0.49026 0.30724 0.0
H3948 H 0.29634 0.4897 0.3356 0.0
H3949 H 0.19899 0.42035 0.29814 0.0
H3950 H 0.20464 0.39325 0.2926 0.0
H3951 H 0.21065 0.41356 0.27289 0.0
C3952 C 0.2333 0.44553 0.07911 0.0
C3953 C 0.23748 0.43073 0.06133 0.0
C3954 C 0.21731 0.45726 0.07501 0.0
C3955 C 0.2053 0.45436 0.05252 0.0
C3956 C 0.20917 0.43919 0.03454 0.0
C3957 C 0.22512 0.42746 0.03918 0.0
C3958 C 0.21355 0.47306 0.09474 0.0
C3959 C 0.19685 0.43576 0.01029 0.0
C3960 C 0.1512 0.47238 0.04613 0.0
C3961 C 0.15977 0.49476 0.04086 0.0
C3962 C 0.1657 0.45893 0.04968 0.0
C3963 C 0.18937 0.46793 0.04776 0.0
C3964 C 0.19807 0.49033 0.04214 0.0
C3965 C 0.18325 0.50348 0.03889 0.0
C3966 C 0.15575 0.43519 0.05577 0.0
C3967 C 0.22317 0.50059 0.03989 0.0
H3968 H 0.24265 0.44809 0.09631 0.0
H3969 H 0.22828 0.41611 0.02534 0.0
H3970 H 0.21886 0.49111 0.09136 0.0
H3971 H 0.19497 0.46808 0.09632 0.0
H3972 H 0.22345 0.47261 0.1114 0.0
H3973 H 0.20112 0.42276 0.99841 0.0
H3974 H 0.17791 0.4301 0.01005 0.0
H3975 H 0.20162 0.45241 0.00372 0.0
H3976 H 0.13305 0.46527 0.04734 0.0
H3977 H 0.19021 0.52084 0.03521 0.0
H3978 H 0.16449 0.43446 0.0729 0.0
H3979 H 0.15887 0.42201 0.04315 0.0
H3980 H 0.13691 0.43049 0.05614 0.0
H3981 H 0.23414 0.50255 0.05663 0.0
H3982 H 0.22701 0.51777 0.03435 0.0
H3983 H 0.22813 0.48882 0.02724 0.0
C3984 C 0.87821 0.96866 0.26541 0.0
C3985 C 0.90065 0.97558 0.27776 0.0
C3986 C 0.8619 0.94743 0.26699 0.0
C3987 C 0.86804 0.93299 0.28157 0.0
C3988 C 0.89053 0.94009 0.29436 0.0
C3989 C 0.90659 0.96116 0.29214 0.0
C3990 C 0.83824 0.94027 0.25276 0.0
C3991 C 0.8977 0.92536 0.31035 0.0
C3992 C 0.82234 0.88565 0.30197 0.0
C3993 C 0.82352 0.86576 0.28852 0.0
C3994 C 0.83629 0.90778 0.2995 0.0
C3995 C 0.85138 0.91001 0.28289 0.0
C3996 C 0.85174 0.89 0.26853 0.0
C3997 C 0.83799 0.86814 0.27167 0.0
C3998 C 0.83565 0.92866 0.31536 0.0
C3999 C 0.86722 0.89159 0.25032 0.0
H4000 H 0.8735 0.97968 0.25423 0.0
H4001 H 0.92379 0.96645 0.30194 0.0
H4002 H 0.83527 0.92394 0.24077 0.0
H4003 H 0.82479 0.93685 0.26405 0.0
H4004 H 0.83602 0.95363 0.24258 0.0
H4005 H 0.91544 0.93388 0.31993 0.0
H4006 H 0.88556 0.92149 0.32293 0.0
H4007 H 0.89698 0.90861 0.30037 0.0
H4008 H 0.81126 0.88388 0.31508 0.0
H4009 H 0.83878 0.85282 0.26104 0.0
H4010 H 0.8328 0.94184 0.3053 0.0
H4011 H 0.85253 0.93669 0.32674 0.0
H4012 H 0.82191 0.9242 0.32627 0.0
H4013 H 0.86476 0.90421 0.23929 0.0
H4014 H 0.86389 0.87464 0.2392 0.0
H4015 H 0.88553 0.89788 0.25862 0.0
C4016 C 0.69668 0.12188 0.76201 0.0
C4017 C 0.70743 0.10514 0.75712 0.0
C4018 C 0.70879 0.14545 0.76408 0.0
C4019 C 0.73232 0.15252 0.7614 0.0
C4020 C 0.74314 0.13575 0.75573 0.0
C4021 C 0.7305 0.11217 0.75355 0.0
C4022 C 0.69657 0.16282 0.76993 0.0
C4023 C 0.76825 0.14272 0.75287 0.0
C4024 C 0.75711 0.2154 0.75483 0.0
C4025 C 0.76584 0.22584 0.77776 0.0
C4026 C 0.74699 0.19131 0.74898 0.0
C4027 C 0.74582 0.17749 0.76647 0.0
C4028 C 0.75563 0.1879 0.78945 0.0
C4029 C 0.76541 0.21195 0.79483 0.0
C4030 C 0.7366 0.18078 0.72431 0.0
C4031 C 0.75492 0.17373 0.80856 0.0
H4032 H 0.67876 0.11658 0.76449 0.0
H4033 H 0.73888 0.09931 0.74971 0.0
H4034 H 0.70426 0.17302 0.7873 0.0
H4035 H 0.6988 0.17514 0.75756 0.0
H4036 H 0.67782 0.15445 0.76975 0.0
H4037 H 0.77351 0.12765 0.74641 0.0
H4038 H 0.77184 0.15529 0.74078 0.0
H4039 H 0.77913 0.15142 0.76966 0.0
H4040 H 0.75749 0.22608 0.74157 0.0
H4041 H 0.77244 0.21991 0.81255 0.0
H4042 H 0.71753 0.17408 0.72285 0.0
H4043 H 0.74247 0.16592 0.71866 0.0
H4044 H 0.74113 0.1935 0.71245 0.0
H4045 H 0.73681 0.16608 0.81126 0.0
H4046 H 0.76517 0.18423 0.82507 0.0
H4047 H 0.76161 0.15924 0.80384 0.0
loop_
_geom_bond_atom_site_label_1
_geom_bond_atom_site_label_2
_geom_bond_distance
_geom_bond_site_symmetry_2
_ccdc_geom_bond_type
O0 Cd1 2.223 . S
O0 C8 1.315 . S
Cd1 O0 2.223 . S
Cd1 O4 2.297 . S
Cd1 O5 2.439 . S
Cd1 O11 2.240 . S
Cd2 O3 2.240 . S
Cd2 O10 2.223 1_455 S
Cd2 O12 2.297 . S
Cd2 O13 2.439 . S
O3 Cd2 2.240 . S
O3 C8 1.279 . S
O4 Cd1 2.297 . S
O4 C6 1.247 . S
O5 Cd1 2.439 . S
O5 C6 1.208 . S
C6 O4 1.247 . S
C6 O5 1.208 . S
C7 O12 1.247 . S
C7 O13 1.208 . S
C8 O0 1.315 . S
C8 O3 1.279 . S
C9 O10 1.315 . S
C9 O11 1.279 1_655 S
O10 Cd2 2.223 1_655 S
O10 C9 1.315 . S
O11 Cd1 2.240 . S
O11 C9 1.279 1_455 S
O12 Cd2 2.297 . S
O12 C7 1.247 . S
O13 Cd2 2.439 . S
O13 C7 1.208 . S
O14 Cd15 2.223 . S
O14 C22 1.315 . S
Cd15 O14 2.223 . S
Cd15 O18 2.297 1_455 S
Cd15 O19 2.439 1_455 S
Cd15 O25 2.240 . S
Cd16 O17 2.240 . S
Cd16 O24 2.223 . S
Cd16 O26 2.297 . S
Cd16 O27 2.439 . S
O17 Cd16 2.240 . S
O17 C22 1.279 . S
O18 Cd15 2.297 1_655 S
O18 C20 1.247 . S
O19 Cd15 2.439 1_655 S
O19 C20 1.208 . S
C20 O18 1.247 . S
C20 O19 1.208 . S
C21 O26 1.247 . S
C21 O27 1.208 . S
C22 O14 1.315 . S
C22 O17 1.279 . S
C23 O24 1.315 . S
C23 O25 1.279 . S
O24 Cd16 2.223 . S
O24 C23 1.315 . S
O25 Cd15 2.240 . S
O25 C23 1.279 . S
O26 Cd16 2.297 . S
O26 C21 1.247 . S
O27 Cd16 2.439 . S
O27 C21 1.208 . S
O28 Cd29 2.223 . S
O28 C36 1.315 . S
Cd29 O28 2.223 . S
Cd29 O32 2.297 . S
Cd29 O33 2.439 . S
Cd29 O39 2.240 . S
Cd30 O31 2.240 . S
Cd30 O38 2.223 . S
Cd30 O40 2.297 . S
Cd30 O41 2.439 . S
O31 Cd30 2.240 . S
O31 C36 1.279 . S
O32 Cd29 2.297 . S
O32 C34 1.247 . S
O33 Cd29 2.439 . S
O33 C34 1.208 . S
C34 O32 1.247 . S
C34 O33 1.208 . S
C35 O40 1.247 . S
C35 O41 1.208 . S
C36 O28 1.315 . S
C36 O31 1.279 . S
C37 O38 1.315 . S
C37 O39 1.279 . S
O38 Cd30 2.223 . S
O38 C37 1.315 . S
O39 Cd29 2.240 . S
O39 C37 1.279 . S
O40 Cd30 2.297 . S
O40 C35 1.247 . S
O41 Cd30 2.439 . S
O41 C35 1.208 . S
O42 Cd43 2.223 . S
O42 C50 1.315 . S
Cd43 O42 2.223 . S
Cd43 O46 2.297 . S
Cd43 O47 2.439 . S
Cd43 O53 2.240 . S
Cd44 O45 2.240 . S
Cd44 O52 2.223 . S
Cd44 O54 2.297 . S
Cd44 O55 2.439 . S
O45 Cd44 2.240 . S
O45 C50 1.279 . S
O46 Cd43 2.297 . S
O46 C48 1.247 . S
O47 Cd43 2.439 . S
O47 C48 1.208 . S
C48 O46 1.247 . S
C48 O47 1.208 . S
C49 O54 1.247 . S
C49 O55 1.208 . S
C50 O42 1.315 . S
C50 O45 1.279 . S
C51 O52 1.315 . S
C51 O53 1.279 . S
O52 Cd44 2.223 . S
O52 C51 1.315 . S
O53 Cd43 2.240 . S
O53 C51 1.279 . S
O54 Cd44 2.297 . S
O54 C49 1.247 . S
O55 Cd44 2.439 . S
O55 C49 1.208 . S
O56 Cd57 2.223 . S
O56 C64 1.315 . S
Cd57 O56 2.223 . S
Cd57 O60 2.297 . S
Cd57 O61 2.439 . S
Cd57 O67 2.240 . S
Cd58 O59 2.240 . S
Cd58 O66 2.223 . S
Cd58 O68 2.297 . S
Cd58 O69 2.439 . S
O59 Cd58 2.240 . S
O59 C64 1.279 . S
O60 Cd57 2.297 . S
O60 C62 1.247 . S
O61 Cd57 2.439 . S
O61 C62 1.208 . S
C62 O60 1.247 . S
C62 O61 1.208 . S
C63 O68 1.247 . S
C63 O69 1.208 . S
C64 O56 1.315 . S
C64 O59 1.279 . S
C65 O66 1.315 . S
C65 O67 1.279 . S
O66 Cd58 2.223 . S
O66 C65 1.315 . S
O67 Cd57 2.240 . S
O67 C65 1.279 . S
O68 Cd58 2.297 . S
O68 C63 1.247 . S
O69 Cd58 2.439 . S
O69 C63 1.208 . S
O70 Cd71 2.223 . S
O70 C78 1.315 . S
Cd71 O70 2.223 . S
Cd71 O74 2.297 . S
Cd71 O75 2.439 . S
Cd71 O81 2.240 . S
Cd72 O73 2.240 . S
Cd72 O80 2.223 . S
Cd72 O82 2.297 . S
Cd72 O83 2.439 . S
O73 Cd72 2.240 . S
O73 C78 1.279 . S
O74 Cd71 2.297 . S
O74 C76 1.247 . S
O75 Cd71 2.439 . S
O75 C76 1.208 . S
C76 O74 1.247 . S
C76 O75 1.208 . S
C77 O82 1.247 . S
C77 O83 1.208 . S
C78 O70 1.315 . S
C78 O73 1.279 . S
C79 O80 1.315 . S
C79 O81 1.279 . S
O80 Cd72 2.223 . S
O80 C79 1.315 . S
O81 Cd71 2.240 . S
O81 C79 1.279 . S
O82 Cd72 2.297 . S
O82 C77 1.247 . S
O83 Cd72 2.439 . S
O83 C77 1.208 . S
O84 Cd85 2.223 . S
O84 C92 1.315 . S
Cd85 O84 2.223 . S
Cd85 O88 2.297 . S
Cd85 O89 2.439 . S
Cd85 O95 2.240 . S
Cd86 O87 2.240 . S
Cd86 O94 2.223 . S
Cd86 O96 2.297 . S
Cd86 O97 2.439 . S
O87 Cd86 2.240 . S
O87 C92 1.279 . S
O88 Cd85 2.297 . S
O88 C90 1.247 . S
O89 Cd85 2.439 . S
O89 C90 1.208 . S
C90 O88 1.247 . S
C90 O89 1.208 . S
C91 O96 1.247 . S
C91 O97 1.208 . S
C92 O84 1.315 . S
C92 O87 1.279 . S
C93 O94 1.315 . S
C93 O95 1.279 . S
O94 Cd86 2.223 . S
O94 C93 1.315 . S
O95 Cd85 2.240 . S
O95 C93 1.279 . S
O96 Cd86 2.297 . S
O96 C91 1.247 . S
O97 Cd86 2.439 . S
O97 C91 1.208 . S
O98 Cd99 2.223 1_655 S
O98 C106 1.315 . S
Cd99 O98 2.223 1_455 S
Cd99 O102 2.297 . S
Cd99 O103 2.439 . S
Cd99 O109 2.240 1_455 S
Cd100 O101 2.240 1_655 S
Cd100 O108 2.223 . S
Cd100 O110 2.297 1_556 S
Cd100 O111 2.439 1_655 S
O101 Cd100 2.240 1_455 S
O101 C106 1.279 1_455 S
O102 Cd99 2.297 . S
O102 C104 1.247 . S
O103 Cd99 2.439 . S
O103 C104 1.208 . S
C104 O102 1.247 . S
C104 O103 1.208 . S
C105 O110 1.247 1_456 S
C105 O111 1.208 . S
C106 O98 1.315 . S
C106 O101 1.279 1_655 S
C107 O108 1.315 . S
C107 O109 1.279 . S
O108 Cd100 2.223 . S
O108 C107 1.315 . S
O109 Cd99 2.240 1_655 S
O109 C107 1.279 . S
O110 Cd100 2.297 1_554 S
O110 C105 1.247 1_654 S
O111 Cd100 2.439 1_455 S
O111 C105 1.208 . S
O112 Cd113 2.223 1_565 S
O112 C120 1.315 1_565 S
Cd113 O112 2.223 1_545 S
Cd113 O116 2.297 . S
Cd113 O117 2.439 . S
Cd113 O123 2.240 1_545 S
Cd114 O115 2.240 1_565 S
Cd114 O122 2.223 . S
Cd114 O124 2.297 . S
Cd114 O125 2.439 1_565 S
O115 Cd114 2.240 1_545 S
O115 C120 1.279 . S
O116 Cd113 2.297 . S
O116 C118 1.247 . S
O117 Cd113 2.439 . S
O117 C118 1.208 . S
C118 O116 1.247 . S
C118 O117 1.208 . S
C119 O124 1.247 1_545 S
C119 O125 1.208 . S
C120 O112 1.315 1_545 S
C120 O115 1.279 . S
C121 O122 1.315 . S
C121 O123 1.279 . S
O122 Cd114 2.223 . S
O122 C121 1.315 . S
O123 Cd113 2.240 1_565 S
O123 C121 1.279 . S
O124 Cd114 2.297 . S
O124 C119 1.247 1_565 S
O125 Cd114 2.439 1_545 S
O125 C119 1.208 . S
O126 Cd127 2.223 . S
O126 C134 1.315 . S
Cd127 O126 2.223 . S
Cd127 O130 2.297 . S
Cd127 O131 2.439 . S
Cd127 O137 2.240 . S
Cd128 O129 2.240 . S
Cd128 O136 2.223 . S
Cd128 O138 2.297 . S
Cd128 O139 2.439 . S
O129 Cd128 2.240 . S
O129 C134 1.279 . S
O130 Cd127 2.297 . S
O130 C132 1.247 . S
O131 Cd127 2.439 . S
O131 C132 1.208 . S
C132 O130 1.247 . S
C132 O131 1.208 . S
C133 O138 1.247 . S
C133 O139 1.208 . S
C134 O126 1.315 . S
C134 O129 1.279 . S
C135 O136 1.315 . S
C135 O137 1.279 . S
O136 Cd128 2.223 . S
O136 C135 1.315 . S
O137 Cd127 2.240 . S
O137 C135 1.279 . S
O138 Cd128 2.297 . S
O138 C133 1.247 . S
O139 Cd128 2.439 . S
O139 C133 1.208 . S
O140 Cd141 2.223 . S
O140 C148 1.315 . S
Cd141 O140 2.223 . S
Cd141 O144 2.297 . S
Cd141 O145 2.439 . S
Cd141 O151 2.240 . S
Cd142 O143 2.240 . S
Cd142 O150 2.223 . S
Cd142 O152 2.297 . S
Cd142 O153 2.439 . S
O143 Cd142 2.240 . S
O143 C148 1.279 . S
O144 Cd141 2.297 . S
O144 C146 1.236 1_545 S
O145 Cd141 2.439 . S
O145 C146 1.194 1_545 S
C146 O144 1.236 1_565 S
C146 O145 1.194 1_565 S
C147 O152 1.247 . S
C147 O153 1.208 . S
C148 O140 1.315 . S
C148 O143 1.279 . S
C149 O150 1.315 . S
C149 O151 1.279 . S
O150 Cd142 2.223 . S
O150 C149 1.315 . S
O151 Cd141 2.240 . S
O151 C149 1.279 . S
O152 Cd142 2.297 . S
O152 C147 1.247 . S
O153 Cd142 2.439 . S
O153 C147 1.208 . S
O154 Cd155 2.223 . S
O154 C162 1.315 . S
Cd155 O154 2.223 . S
Cd155 O158 2.297 . S
Cd155 O159 2.439 1_554 S
Cd155 O165 2.240 1_554 S
Cd156 O157 2.240 1_556 S
Cd156 O164 2.223 1_556 S
Cd156 O166 2.297 . S
Cd156 O167 2.439 . S
O157 Cd156 2.240 1_554 S
O157 C162 1.279 . S
O158 Cd155 2.297 . S
O158 C160 1.247 . S
O159 Cd155 2.439 1_556 S
O159 C160 1.208 1_556 S
C160 O158 1.247 . S
C160 O159 1.208 1_554 S
C161 O166 1.247 . S
C161 O167 1.208 . S
C162 O154 1.315 . S
C162 O157 1.279 . S
C163 O164 1.315 . S
C163 O165 1.279 1_554 S
O164 Cd156 2.223 1_554 S
O164 C163 1.315 . S
O165 Cd155 2.240 1_556 S
O165 C163 1.279 1_556 S
O166 Cd156 2.297 . S
O166 C161 1.247 . S
O167 Cd156 2.439 . S
O167 C161 1.208 . S
O168 Cd169 2.223 . S
O168 C176 1.315 . S
Cd169 O168 2.223 . S
Cd169 O172 2.297 . S
Cd169 O173 2.439 . S
Cd169 O179 2.240 . S
Cd170 O171 2.240 . S
Cd170 O178 2.223 . S
Cd170 O180 2.330 . S
Cd170 O181 2.439 . S
O171 Cd170 2.240 . S
O171 C176 1.279 . S
O172 Cd169 2.297 . S
O172 C174 1.247 . S
O173 Cd169 2.439 . S
O173 C174 1.208 . S
C174 O172 1.247 . S
C174 O173 1.208 . S
C175 O180 1.235 1_556 S
C175 O181 1.208 1_556 S
C176 O168 1.315 . S
C176 O171 1.279 . S
C177 O178 1.315 . S
C177 O179 1.279 . S
O178 Cd170 2.223 . S
O178 C177 1.315 . S
O179 Cd169 2.240 . S
O179 C177 1.279 . S
O180 Cd170 2.330 . S
O180 C175 1.235 1_554 S
O181 Cd170 2.439 . S
O181 C175 1.208 1_554 S
O182 Cd183 2.223 . S
O182 C190 1.315 . S
Cd183 O182 2.223 . S
Cd183 O186 2.297 . S
Cd183 O187 2.439 . S
Cd183 O193 2.240 . S
Cd184 O185 2.240 . S
Cd184 O192 2.223 . S
Cd184 O194 2.297 . S
Cd184 O195 2.439 . S
O185 Cd184 2.240 . S
O185 C190 1.279 . S
O186 Cd183 2.297 . S
O186 C188 1.247 . S
O187 Cd183 2.439 . S
O187 C188 1.208 . S
C188 O186 1.247 . S
C188 O187 1.208 . S
C189 O194 1.247 . S
C189 O195 1.208 . S
C190 O182 1.315 . S
C190 O185 1.279 . S
C191 O192 1.315 . S
C191 O193 1.279 . S
O192 Cd184 2.223 . S
O192 C191 1.315 . S
O193 Cd183 2.240 . S
O193 C191 1.279 . S
O194 Cd184 2.297 . S
O194 C189 1.247 . S
O195 Cd184 2.439 . S
O195 C189 1.208 . S
O196 Cd197 2.223 . S
O196 C204 1.315 . S
Cd197 O196 2.223 . S
Cd197 O200 2.297 . S
Cd197 O201 2.439 . S
Cd197 O207 2.240 . S
Cd198 O199 2.240 . S
Cd198 O206 2.223 . S
Cd198 O208 2.297 . S
Cd198 O209 2.439 . S
O199 Cd198 2.240 . S
O199 C204 1.279 . S
O200 Cd197 2.297 . S
O200 C202 1.247 . S
O201 Cd197 2.439 . S
O201 C202 1.208 . S
C202 O200 1.247 . S
C202 O201 1.208 . S
C203 O208 1.247 . S
C203 O209 1.208 . S
C204 O196 1.315 . S
C204 O199 1.279 . S
C205 O206 1.315 . S
C205 O207 1.279 . S
O206 Cd198 2.223 . S
O206 C205 1.315 . S
O207 Cd197 2.240 . S
O207 C205 1.279 . S
O208 Cd198 2.297 . S
O208 C203 1.247 . S
O209 Cd198 2.439 . S
O209 C203 1.208 . S
O210 Cd211 2.223 . S
O210 C218 1.315 . S
Cd211 O210 2.223 . S
Cd211 O214 2.297 . S
Cd211 O215 2.439 . S
Cd211 O221 2.240 . S
Cd212 O213 2.240 . S
Cd212 O220 2.223 . S
Cd212 O222 2.297 . S
Cd212 O223 2.439 . S
O213 Cd212 2.240 . S
O213 C218 1.279 . S
O214 Cd211 2.297 . S
O214 C216 1.247 . S
O215 Cd211 2.439 . S
O215 C216 1.208 . S
C216 O214 1.247 . S
C216 O215 1.208 . S
C217 O222 1.247 . S
C217 O223 1.208 . S
C218 O210 1.315 . S
C218 O213 1.279 . S
C219 O220 1.315 . S
C219 O221 1.279 . S
O220 Cd212 2.223 . S
O220 C219 1.315 . S
O221 Cd211 2.240 . S
O221 C219 1.279 . S
O222 Cd212 2.297 . S
O222 C217 1.247 . S
O223 Cd212 2.439 . S
O223 C217 1.208 . S
O224 Cd225 2.223 . S
O224 C232 1.315 . S
Cd225 O224 2.223 . S
Cd225 O228 2.297 . S
Cd225 O229 2.439 . S
Cd225 O235 2.270 . S
Cd226 O227 2.240 . S
Cd226 O234 2.223 1_545 S
Cd226 O236 2.297 . S
Cd226 O237 2.439 . S
O227 Cd226 2.240 . S
O227 C232 1.279 . S
O228 Cd225 2.297 . S
O228 C230 1.247 . S
O229 Cd225 2.439 . S
O229 C230 1.208 . S
C230 O228 1.247 . S
C230 O229 1.208 . S
C231 O236 1.247 . S
C231 O237 1.208 . S
C232 O224 1.315 . S
C232 O227 1.279 . S
C233 O234 1.315 . S
C233 O235 1.248 1_565 S
O234 Cd226 2.223 1_565 S
O234 C233 1.315 . S
O235 Cd225 2.270 . S
O235 C233 1.248 1_545 S
O236 Cd226 2.297 . S
O236 C231 1.247 . S
O237 Cd226 2.439 . S
O237 C231 1.208 . S
O238 Cd239 2.223 . S
O238 C246 1.315 . S
Cd239 O238 2.223 . S
Cd239 O242 2.297 . S
Cd239 O243 2.439 . S
Cd239 O249 2.240 . S
Cd240 O241 2.240 . S
Cd240 O248 2.223 . S
Cd240 O250 2.297 . S
Cd240 O251 2.439 . S
O241 Cd240 2.240 . S
O241 C246 1.279 . S
O242 Cd239 2.297 . S
O242 C244 1.247 . S
O243 Cd239 2.439 . S
O243 C244 1.208 . S
C244 O242 1.247 . S
C244 O243 1.208 . S
C245 O250 1.247 . S
C245 O251 1.208 . S
C246 O238 1.315 . S
C246 O241 1.279 . S
C247 O248 1.315 . S
C247 O249 1.279 . S
O248 Cd240 2.223 . S
O248 C247 1.315 . S
O249 Cd239 2.240 . S
O249 C247 1.279 . S
O250 Cd240 2.297 . S
O250 C245 1.247 . S
O251 Cd240 2.439 . S
O251 C245 1.208 . S
O252 Cd253 2.223 . S
O252 C260 1.315 . S
Cd253 O252 2.223 . S
Cd253 O256 2.297 . S
Cd253 O257 2.439 . S
Cd253 O263 2.240 . S
Cd254 O255 2.240 . S
Cd254 O262 2.223 . S
Cd254 O264 2.297 . S
Cd254 O265 2.439 . S
O255 Cd254 2.240 . S
O255 C260 1.279 . S
O256 Cd253 2.297 . S
O256 C258 1.247 . S
O257 Cd253 2.439 . S
O257 C258 1.208 . S
C258 O256 1.247 . S
C258 O257 1.208 . S
C259 O264 1.247 . S
C259 O265 1.208 . S
C260 O252 1.315 . S
C260 O255 1.279 . S
C261 O262 1.315 . S
C261 O263 1.279 . S
O262 Cd254 2.223 . S
O262 C261 1.315 . S
O263 Cd253 2.240 . S
O263 C261 1.279 . S
O264 Cd254 2.297 . S
O264 C259 1.247 . S
O265 Cd254 2.439 . S
O265 C259 1.208 . S
O266 Cd267 2.223 . S
O266 C274 1.315 . S
Cd267 O266 2.223 . S
Cd267 O270 2.297 . S
Cd267 O271 2.439 . S
Cd267 O277 2.240 . S
Cd268 O269 2.240 . S
Cd268 O276 2.223 . S
Cd268 O278 2.297 . S
Cd268 O279 2.439 . S
O269 Cd268 2.240 . S
O269 C274 1.279 . S
O270 Cd267 2.297 . S
O270 C272 1.247 . S
O271 Cd267 2.439 . S
O271 C272 1.208 . S
C272 O270 1.247 . S
C272 O271 1.208 . S
C273 O278 1.247 . S
C273 O279 1.208 . S
C274 O266 1.315 . S
C274 O269 1.279 . S
C275 O276 1.315 . S
C275 O277 1.279 . S
O276 Cd268 2.223 . S
O276 C275 1.315 . S
O277 Cd267 2.240 . S
O277 C275 1.279 . S
O278 Cd268 2.297 . S
O278 C273 1.247 . S
O279 Cd268 2.439 . S
O279 C273 1.208 . S
O280 Cd281 2.223 . S
O280 C288 1.315 . S
Cd281 O280 2.223 . S
Cd281 O284 2.297 . S
Cd281 O285 2.439 . S
Cd281 O291 2.240 . S
Cd282 O283 2.240 . S
Cd282 O290 2.223 . S
Cd282 O292 2.297 1_554 S
Cd282 O293 2.482 . S
O283 Cd282 2.240 . S
O283 C288 1.279 . S
O284 Cd281 2.297 . S
O284 C286 1.247 . S
O285 Cd281 2.439 . S
O285 C286 1.208 . S
C286 O284 1.247 . S
C286 O285 1.208 . S
C287 O292 1.247 . S
C287 O293 1.183 1_556 S
C288 O280 1.315 . S
C288 O283 1.279 . S
C289 O290 1.315 . S
C289 O291 1.279 . S
O290 Cd282 2.223 . S
O290 C289 1.315 . S
O291 Cd281 2.240 . S
O291 C289 1.279 . S
O292 Cd282 2.297 1_556 S
O292 C287 1.247 . S
O293 Cd282 2.482 . S
O293 C287 1.183 1_554 S
O294 Cd295 2.223 . S
O294 C302 1.315 . S
Cd295 O294 2.223 . S
Cd295 O298 2.297 . S
Cd295 O299 2.439 . S
Cd295 O305 2.240 . S
Cd296 O297 2.240 . S
Cd296 O304 2.223 . S
Cd296 O306 2.297 . S
Cd296 O307 2.439 . S
O297 Cd296 2.240 . S
O297 C302 1.279 . S
O298 Cd295 2.297 . S
O298 C300 1.247 . S
O299 Cd295 2.439 . S
O299 C300 1.208 . S
C300 O298 1.247 . S
C300 O299 1.208 . S
C301 O306 1.247 . S
C301 O307 1.208 . S
C302 O294 1.315 . S
C302 O297 1.279 . S
C303 O304 1.315 . S
C303 O305 1.279 . S
O304 Cd296 2.223 . S
O304 C303 1.315 . S
O305 Cd295 2.240 . S
O305 C303 1.279 . S
O306 Cd296 2.297 . S
O306 C301 1.247 . S
O307 Cd296 2.439 . S
O307 C301 1.208 . S
O308 Cd309 2.223 . S
O308 C316 1.315 . S
Cd309 O308 2.223 . S
Cd309 O312 2.297 . S
Cd309 O313 2.439 . S
Cd309 O319 2.240 . S
Cd310 O311 2.240 . S
Cd310 O318 2.223 . S
Cd310 O320 2.297 . S
Cd310 O321 2.439 . S
O311 Cd310 2.240 . S
O311 C316 1.279 . S
O312 Cd309 2.297 . S
O312 C314 1.247 . S
O313 Cd309 2.439 . S
O313 C314 1.208 . S
C314 O312 1.247 . S
C314 O313 1.208 . S
C315 O320 1.247 . S
C315 O321 1.208 . S
C316 O308 1.315 . S
C316 O311 1.279 . S
C317 O318 1.315 . S
C317 O319 1.279 . S
O318 Cd310 2.223 . S
O318 C317 1.315 . S
O319 Cd309 2.240 . S
O319 C317 1.279 . S
O320 Cd310 2.297 . S
O320 C315 1.247 . S
O321 Cd310 2.439 . S
O321 C315 1.208 . S
O322 Cd323 2.223 . S
O322 C330 1.315 . S
Cd323 O322 2.223 . S
Cd323 O326 2.297 . S
Cd323 O327 2.439 . S
Cd323 O333 2.240 . S
Cd324 O325 2.240 . S
Cd324 O332 2.223 . S
Cd324 O334 2.297 . S
Cd324 O335 2.439 . S
O325 Cd324 2.240 . S
O325 C330 1.279 . S
O326 Cd323 2.297 . S
O326 C328 1.247 . S
O327 Cd323 2.439 . S
O327 C328 1.208 . S
C328 O326 1.247 . S
C328 O327 1.208 . S
C329 O334 1.247 . S
C329 O335 1.208 . S
C330 O322 1.315 . S
C330 O325 1.279 . S
C331 O332 1.315 . S
C331 O333 1.279 . S
O332 Cd324 2.223 . S
O332 C331 1.315 . S
O333 Cd323 2.240 . S
O333 C331 1.279 . S
O334 Cd324 2.297 . S
O334 C329 1.247 . S
O335 Cd324 2.439 . S
O335 C329 1.208 . S
Dy336 O339 2.307 . S
Dy336 O341 2.395 . S
Dy336 O342 2.379 . S
Dy336 O344 2.339 . S
Dy336 O346 2.298 . S
Dy336 O350 2.275 . S
Dy336 C358 2.738 . S
Dy337 O340 2.298 1_655 S
Dy337 O343 2.275 1_655 S
Dy337 O345 2.307 1_655 S
Dy337 O347 2.395 . S
Dy337 O348 2.379 . S
Dy337 O351 2.339 1_655 S
Dy337 C367 2.738 . S
C338 O350 1.254 . S
C338 O351 1.257 . S
O339 Dy336 2.307 . S
O339 C349 1.266 . S
O340 Dy337 2.298 1_455 S
O340 C349 1.236 . S
O341 Dy336 2.395 . S
O341 C358 1.255 . S
O342 Dy336 2.379 . S
O342 C358 1.249 . S
O343 Dy337 2.275 1_455 S
O343 C359 1.254 . S
O344 Dy336 2.339 . S
O344 C359 1.257 . S
O345 Dy337 2.307 1_455 S
O345 C360 1.266 . S
O346 Dy336 2.298 . S
O346 C360 1.236 . S
O347 Dy337 2.395 . S
O347 C367 1.255 . S
O348 Dy337 2.379 . S
O348 C367 1.249 . S
C349 O339 1.266 . S
C349 O340 1.236 . S
O350 Dy336 2.275 . S
O350 C338 1.254 . S
O351 Dy337 2.339 1_455 S
O351 C338 1.257 . S
C352 C355 1.344 . S
C352 C356 1.328 . S
C352 C358 1.516 . S
C353 C354 1.304 . S
C353 C357 1.323 . S
C354 C353 1.304 . S
C354 C355 1.371 . S
C354 H368 0.930 . S
C355 C352 1.344 . S
C355 C354 1.371 . S
C355 H369 0.931 . S
C356 C352 1.328 . S
C356 C357 1.433 . S
C356 H370 0.931 . S
C357 C353 1.323 . S
C357 C356 1.433 . S
C357 H371 0.933 . S
C358 Dy336 2.738 . S
C358 O341 1.255 . S
C358 O342 1.249 . S
C358 C352 1.516 . S
C359 O343 1.254 . S
C359 O344 1.257 . S
C360 O345 1.266 . S
C360 O346 1.236 . S
C361 C364 1.344 . S
C361 C365 1.328 . S
C361 C367 1.516 . S
C362 C363 1.304 . S
C362 C366 1.323 . S
C363 C362 1.304 . S
C363 C364 1.371 . S
C363 H372 0.930 . S
C364 C361 1.344 . S
C364 C363 1.371 . S
C364 H373 0.931 . S
C365 C361 1.328 . S
C365 C366 1.433 . S
C365 H374 0.895 1_554 S
C366 C362 1.323 . S
C366 C365 1.433 . S
C366 H375 0.933 1_554 S
C367 Dy337 2.738 . S
C367 O347 1.255 . S
C367 O348 1.249 . S
C367 C361 1.516 . S
H368 C354 0.930 . S
H369 C355 0.931 . S
H370 C356 0.931 . S
H371 C357 0.933 . S
H372 C363 0.930 . S
H373 C364 0.931 . S
H374 C365 0.895 1_556 S
H375 C366 0.933 1_556 S
Dy376 O379 2.307 . S
Dy376 O381 2.395 . S
Dy376 O382 2.379 . S
Dy376 O384 2.339 . S
Dy376 O386 2.298 . S
Dy376 O390 2.275 . S
Dy376 C398 2.738 . S
Dy377 O380 2.298 . S
Dy377 O383 2.275 . S
Dy377 O385 2.307 . S
Dy377 O387 2.395 . S
Dy377 O388 2.379 . S
Dy377 O391 2.339 . S
Dy377 C407 2.738 . S
C378 O390 1.254 . S
C378 O391 1.257 . S
O379 Dy376 2.307 . S
O379 C389 1.266 . S
O380 Dy377 2.298 . S
O380 C389 1.236 . S
O381 Dy376 2.395 . S
O381 C398 1.255 . S
O382 Dy376 2.379 . S
O382 C398 1.249 . S
O383 Dy377 2.275 . S
O383 C399 1.254 . S
O384 Dy376 2.339 . S
O384 C399 1.257 . S
O385 Dy377 2.307 . S
O385 C400 1.266 . S
O386 Dy376 2.298 . S
O386 C400 1.236 . S
O387 Dy377 2.395 . S
O387 C407 1.255 . S
O388 Dy377 2.379 . S
O388 C407 1.249 . S
C389 O379 1.266 . S
C389 O380 1.236 . S
O390 Dy376 2.275 . S
O390 C378 1.254 . S
O391 Dy377 2.339 . S
O391 C378 1.257 . S
C392 C395 1.344 . S
C392 C396 1.328 . S
C392 C398 1.516 . S
C393 C394 1.304 . S
C393 C397 1.323 . S
C394 C393 1.304 . S
C394 C395 1.371 . S
C394 H408 0.930 . S
C395 C392 1.344 . S
C395 C394 1.371 . S
C395 H409 0.931 . S
C396 C392 1.328 . S
C396 C397 1.433 . S
C396 H410 0.931 . S
C397 C393 1.323 . S
C397 C396 1.433 . S
C397 H411 0.933 . S
C398 Dy376 2.738 . S
C398 O381 1.255 . S
C398 O382 1.249 . S
C398 C392 1.516 . S
C399 O383 1.254 . S
C399 O384 1.257 . S
C400 O385 1.266 . S
C400 O386 1.236 . S
C401 C404 1.344 . S
C401 C405 1.328 . S
C401 C407 1.516 . S
C402 C403 1.304 . S
C402 C406 1.323 . S
C403 C402 1.304 . S
C403 C404 1.371 . S
C403 H412 0.930 . S
C404 C401 1.344 . S
C404 C403 1.371 . S
C404 H413 0.931 . S
C405 C401 1.328 . S
C405 C406 1.433 . S
C405 H414 0.931 . S
C406 C402 1.323 . S
C406 C405 1.433 . S
C406 H415 0.933 . S
C407 Dy377 2.738 . S
C407 O387 1.255 . S
C407 O388 1.249 . S
C407 C401 1.516 . S
H408 C394 0.930 . S
H409 C395 0.931 . S
H410 C396 0.931 . S
H411 C397 0.933 . S
H412 C403 0.930 . S
H413 C404 0.931 . S
H414 C405 0.931 . S
H415 C406 0.933 . S
Dy416 O419 2.307 . S
Dy416 O421 2.395 . S
Dy416 O422 2.379 . S
Dy416 O424 2.339 . S
Dy416 O426 2.298 . S
Dy416 O430 2.275 . S
Dy416 C438 2.738 . S
Dy417 O420 2.298 . S
Dy417 O423 2.275 . S
Dy417 O425 2.307 . S
Dy417 O427 2.395 . S
Dy417 O428 2.379 . S
Dy417 O431 2.339 . S
Dy417 C447 2.738 . S
C418 O430 1.254 . S
C418 O431 1.257 . S
O419 Dy416 2.307 . S
O419 C429 1.266 1_545 S
O420 Dy417 2.298 . S
O420 C429 1.236 1_545 S
O421 Dy416 2.395 . S
O421 C438 1.255 . S
O422 Dy416 2.379 . S
O422 C438 1.249 . S
O423 Dy417 2.275 . S
O423 C439 1.254 . S
O424 Dy416 2.339 . S
O424 C439 1.257 . S
O425 Dy417 2.307 . S
O425 C440 1.266 . S
O426 Dy416 2.298 . S
O426 C440 1.236 . S
O427 Dy417 2.395 . S
O427 C447 1.255 . S
O428 Dy417 2.379 . S
O428 C447 1.249 . S
C429 O419 1.266 1_565 S
C429 O420 1.236 1_565 S
O430 Dy416 2.275 . S
O430 C418 1.254 . S
O431 Dy417 2.339 . S
O431 C418 1.257 . S
C432 C435 1.344 . S
C432 C436 1.328 . S
C432 C438 1.516 . S
C433 C434 1.304 . S
C433 C437 1.323 . S
C434 C433 1.304 . S
C434 C435 1.371 . S
C434 H448 0.930 . S
C435 C432 1.344 . S
C435 C434 1.371 . S
C435 H449 0.931 . S
C436 C432 1.328 . S
C436 C437 1.433 . S
C436 H450 0.931 . S
C437 C433 1.323 . S
C437 C436 1.433 . S
C437 H451 0.933 . S
C438 Dy416 2.738 . S
C438 O421 1.255 . S
C438 O422 1.249 . S
C438 C432 1.516 . S
C439 O423 1.254 . S
C439 O424 1.257 . S
C440 O425 1.266 . S
C440 O426 1.236 . S
C441 C444 1.344 1_545 S
C441 C445 1.328 . S
C441 C447 1.516 . S
C442 C443 1.304 . S
C442 C446 1.323 . S
C443 C442 1.304 . S
C443 C444 1.371 . S
C443 H452 0.930 . S
C444 C441 1.344 1_565 S
C444 C443 1.371 . S
C444 H453 0.931 . S
C445 C441 1.328 . S
C445 C446 1.433 1_545 S
C445 H454 0.931 . S
C446 C442 1.323 . S
C446 C445 1.433 1_565 S
C446 H455 0.933 . S
C447 Dy417 2.738 . S
C447 O427 1.255 . S
C447 O428 1.249 . S
C447 C441 1.516 . S
H448 C434 0.930 . S
H449 C435 0.931 . S
H450 C436 0.931 . S
H451 C437 0.933 . S
H452 C443 0.930 . S
H453 C444 0.931 . S
H454 C445 0.931 . S
H455 C446 0.933 . S
Dy456 O459 2.307 . S
Dy456 O461 2.395 . S
Dy456 O462 2.379 . S
Dy456 O464 2.339 . S
Dy456 O466 2.298 . S
Dy456 O470 2.275 . S
Dy456 C478 2.738 . S
Dy457 O460 2.298 . S
Dy457 O463 2.275 . S
Dy457 O465 2.307 . S
Dy457 O467 2.395 . S
Dy457 O468 2.379 . S
Dy457 O471 2.339 . S
Dy457 C487 2.738 . S
C458 O470 1.254 . S
C458 O471 1.257 . S
O459 Dy456 2.307 . S
O459 C469 1.266 . S
O460 Dy457 2.298 . S
O460 C469 1.236 . S
O461 Dy456 2.395 . S
O461 C478 1.255 . S
O462 Dy456 2.379 . S
O462 C478 1.249 . S
O463 Dy457 2.275 . S
O463 C479 1.254 . S
O464 Dy456 2.339 . S
O464 C479 1.257 . S
O465 Dy457 2.307 . S
O465 C480 1.266 . S
O466 Dy456 2.298 . S
O466 C480 1.236 . S
O467 Dy457 2.395 . S
O467 C487 1.255 . S
O468 Dy457 2.379 . S
O468 C487 1.249 . S
C469 O459 1.266 . S
C469 O460 1.236 . S
O470 Dy456 2.275 . S
O470 C458 1.254 . S
O471 Dy457 2.339 . S
O471 C458 1.257 . S
C472 C475 1.344 . S
C472 C476 1.328 . S
C472 C478 1.516 . S
C473 C474 1.304 . S
C473 C477 1.323 . S
C474 C473 1.304 . S
C474 C475 1.371 . S
C474 H488 0.930 . S
C475 C472 1.344 . S
C475 C474 1.371 . S
C475 H489 0.931 . S
C476 C472 1.328 . S
C476 C477 1.433 . S
C476 H490 0.931 . S
C477 C473 1.323 . S
C477 C476 1.433 . S
C477 H491 0.933 . S
C478 Dy456 2.738 . S
C478 O461 1.255 . S
C478 O462 1.249 . S
C478 C472 1.516 . S
C479 O463 1.254 . S
C479 O464 1.257 . S
C480 O465 1.266 . S
C480 O466 1.236 . S
C481 C484 1.344 . S
C481 C485 1.328 . S
C481 C487 1.516 . S
C482 C483 1.304 . S
C482 C486 1.323 . S
C483 C482 1.304 . S
C483 C484 1.371 . S
C483 H492 0.930 . S
C484 C481 1.344 . S
C484 C483 1.371 . S
C484 H493 0.931 . S
C485 C481 1.328 . S
C485 C486 1.433 . S
C485 H494 0.931 . S
C486 C482 1.323 . S
C486 C485 1.433 . S
C486 H495 0.933 . S
C487 Dy457 2.738 . S
C487 O467 1.255 . S
C487 O468 1.249 . S
C487 C481 1.516 . S
H488 C474 0.930 . S
H489 C475 0.931 . S
H490 C476 0.931 . S
H491 C477 0.933 . S
H492 C483 0.930 . S
H493 C484 0.931 . S
H494 C485 0.931 . S
H495 C486 0.933 . S
Dy496 O499 2.307 . S
Dy496 O501 2.395 1_545 S
Dy496 O502 2.379 1_545 S
Dy496 O504 2.339 . S
Dy496 O506 2.298 . S
Dy496 O510 2.275 . S
Dy496 C518 2.738 1_545 S
Dy497 O500 2.298 . S
Dy497 O503 2.275 . S
Dy497 O505 2.307 . S
Dy497 O507 2.395 . S
Dy497 O508 2.379 . S
Dy497 O511 2.339 1_455 S
Dy497 C527 2.738 . S
C498 O510 1.254 1_655 S
C498 O511 1.257 . S
O499 Dy496 2.307 . S
O499 C509 1.266 . S
O500 Dy497 2.298 . S
O500 C509 1.236 . S
O501 Dy496 2.395 1_565 S
O501 C518 1.255 . S
O502 Dy496 2.379 1_565 S
O502 C518 1.249 . S
O503 Dy497 2.275 . S
O503 C519 1.254 . S
O504 Dy496 2.339 . S
O504 C519 1.257 . S
O505 Dy497 2.307 . S
O505 C520 1.266 . S
O506 Dy496 2.298 . S
O506 C520 1.236 . S
O507 Dy497 2.395 . S
O507 C527 1.255 . S
O508 Dy497 2.379 . S
O508 C527 1.249 . S
C509 O499 1.266 . S
C509 O500 1.236 . S
O510 Dy496 2.275 . S
O510 C498 1.254 1_455 S
O511 Dy497 2.339 1_655 S
O511 C498 1.257 . S
C512 C515 1.344 . S
C512 C516 1.328 . S
C512 C518 1.516 . S
C513 C514 1.304 . S
C513 C517 1.323 . S
C514 C513 1.304 . S
C514 C515 1.371 . S
C514 H528 0.930 . S
C515 C512 1.344 . S
C515 C514 1.371 . S
C515 H529 0.931 . S
C516 C512 1.328 . S
C516 C517 1.433 . S
C516 H530 0.931 . S
C517 C513 1.323 . S
C517 C516 1.433 . S
C517 H531 0.933 . S
C518 Dy496 2.738 1_565 S
C518 O501 1.255 . S
C518 O502 1.249 . S
C518 C512 1.516 . S
C519 O503 1.254 . S
C519 O504 1.257 . S
C520 O505 1.266 . S
C520 O506 1.236 . S
C521 C524 1.344 . S
C521 C525 1.328 . S
C521 C527 1.516 . S
C522 C523 1.304 . S
C522 C526 1.323 . S
C523 C522 1.304 . S
C523 C524 1.371 . S
C523 H532 0.930 . S
C524 C521 1.344 . S
C524 C523 1.371 . S
C524 H533 0.931 . S
C525 C521 1.328 . S
C525 C526 1.433 . S
C525 H534 0.931 1_455 S
C526 C522 1.323 . S
C526 C525 1.433 . S
C526 H535 0.933 1_455 S
C527 Dy497 2.738 . S
C527 O507 1.255 . S
C527 O508 1.249 . S
C527 C521 1.516 . S
H528 C514 0.930 . S
H529 C515 0.931 . S
H530 C516 0.931 . S
H531 C517 0.933 . S
H532 C523 0.930 . S
H533 C524 0.931 . S
H534 C525 0.931 1_655 S
H535 C526 0.933 1_655 S
Dy536 O539 2.307 . S
Dy536 O541 2.395 . S
Dy536 O542 2.379 . S
Dy536 O544 2.339 . S
Dy536 O546 2.298 . S
Dy536 O550 2.275 . S
Dy536 C558 2.738 . S
Dy537 O540 2.298 . S
Dy537 O543 2.275 . S
Dy537 O545 2.307 . S
Dy537 O547 2.395 . S
Dy537 O548 2.379 . S
Dy537 O551 2.339 . S
Dy537 C567 2.738 . S
C538 O550 1.254 . S
C538 O551 1.257 . S
O539 Dy536 2.307 . S
O539 C549 1.266 . S
O540 Dy537 2.298 . S
O540 C549 1.236 . S
O541 Dy536 2.395 . S
O541 C558 1.255 . S
O542 Dy536 2.379 . S
O542 C558 1.249 . S
O543 Dy537 2.275 . S
O543 C559 1.254 . S
O544 Dy536 2.339 . S
O544 C559 1.257 . S
O545 Dy537 2.307 . S
O545 C560 1.266 . S
O546 Dy536 2.298 . S
O546 C560 1.236 . S
O547 Dy537 2.395 . S
O547 C567 1.255 . S
O548 Dy537 2.379 . S
O548 C567 1.249 . S
C549 O539 1.266 . S
C549 O540 1.236 . S
O550 Dy536 2.275 . S
O550 C538 1.254 . S
O551 Dy537 2.339 . S
O551 C538 1.257 . S
C552 C555 1.344 . S
C552 C556 1.328 . S
C552 C558 1.516 . S
C553 C554 1.304 . S
C553 C557 1.323 . S
C554 C553 1.304 . S
C554 C555 1.371 . S
C554 H568 0.930 . S
C555 C552 1.344 . S
C555 C554 1.371 . S
C555 H569 0.931 . S
C556 C552 1.328 . S
C556 C557 1.433 . S
C556 H570 0.931 . S
C557 C553 1.323 . S
C557 C556 1.433 . S
C557 H571 0.933 . S
C558 Dy536 2.738 . S
C558 O541 1.255 . S
C558 O542 1.249 . S
C558 C552 1.516 . S
C559 O543 1.254 . S
C559 O544 1.257 . S
C560 O545 1.266 . S
C560 O546 1.236 . S
C561 C564 1.344 . S
C561 C565 1.328 . S
C561 C567 1.516 . S
C562 C563 1.304 . S
C562 C566 1.323 . S
C563 C562 1.304 . S
C563 C564 1.371 . S
C563 H572 0.930 . S
C564 C561 1.344 . S
C564 C563 1.371 . S
C564 H573 0.931 . S
C565 C561 1.328 . S
C565 C566 1.433 . S
C565 H574 0.931 . S
C566 C562 1.323 . S
C566 C565 1.433 . S
C566 H575 0.933 . S
C567 Dy537 2.738 . S
C567 O547 1.255 . S
C567 O548 1.249 . S
C567 C561 1.516 . S
H568 C554 0.930 . S
H569 C555 0.931 . S
H570 C556 0.931 . S
H571 C557 0.933 . S
H572 C563 0.930 . S
H573 C564 0.931 . S
H574 C565 0.931 . S
H575 C566 0.933 . S
Dy576 O579 2.307 . S
Dy576 O581 2.395 1_554 S
Dy576 O582 2.379 1_554 S
Dy576 O584 2.339 . S
Dy576 O586 2.298 . S
Dy576 O590 2.275 . S
Dy576 C598 2.738 1_554 S
Dy577 O580 2.298 . S
Dy577 O583 2.275 . S
Dy577 O585 2.307 . S
Dy577 O587 2.395 . S
Dy577 O588 2.380 . S
Dy577 O591 2.339 1_545 S
Dy577 C607 2.738 . S
C578 O590 1.296 . S
C578 O591 1.243 1_545 S
O579 Dy576 2.307 . S
O579 C589 1.266 . S
O580 Dy577 2.298 . S
O580 C589 1.236 . S
O581 Dy576 2.395 1_556 S
O581 C598 1.255 . S
O582 Dy576 2.379 1_556 S
O582 C598 1.249 . S
O583 Dy577 2.275 . S
O583 C599 1.254 . S
O584 Dy576 2.339 . S
O584 C599 1.257 . S
O585 Dy577 2.307 . S
O585 C600 1.266 . S
O586 Dy576 2.298 . S
O586 C600 1.236 . S
O587 Dy577 2.395 . S
O587 C607 1.255 . S
O588 Dy577 2.380 . S
O588 C607 1.250 . S
C589 O579 1.266 . S
C589 O580 1.236 . S
O590 Dy576 2.275 . S
O590 C578 1.296 . S
O591 Dy577 2.339 1_565 S
O591 C578 1.243 1_565 S
C592 C595 1.344 . S
C592 C596 1.328 . S
C592 C598 1.516 . S
C593 C594 1.304 . S
C593 C597 1.323 . S
C594 C593 1.304 . S
C594 C595 1.371 . S
C594 H608 0.930 . S
C595 C592 1.344 . S
C595 C594 1.371 . S
C595 H609 0.931 . S
C596 C592 1.328 . S
C596 C597 1.433 . S
C596 H610 0.931 . S
C597 C593 1.323 . S
C597 C596 1.433 . S
C597 H611 0.933 . S
C598 Dy576 2.738 1_556 S
C598 O581 1.255 . S
C598 O582 1.249 . S
C598 C592 1.516 . S
C599 O583 1.254 . S
C599 O584 1.257 . S
C600 O585 1.266 . S
C600 O586 1.236 . S
C601 C604 1.344 . S
C601 C605 1.328 1_545 S
C601 C607 1.516 . S
C602 C603 1.304 1_565 S
C602 C606 1.323 . S
C603 C602 1.304 1_545 S
C603 C604 1.371 . S
C603 H612 0.930 . S
C604 C601 1.344 . S
C604 C603 1.371 . S
C604 H613 0.931 . S
C605 C601 1.328 1_565 S
C605 C606 1.433 . S
C605 H614 0.931 . S
C606 C602 1.323 . S
C606 C605 1.433 . S
C606 H615 0.933 . S
C607 Dy577 2.738 . S
C607 O587 1.255 . S
C607 O588 1.250 . S
C607 C601 1.516 . S
H608 C594 0.930 . S
H609 C595 0.931 . S
H610 C596 0.931 . S
H611 C597 0.933 . S
H612 C603 0.930 . S
H613 C604 0.931 . S
H614 C605 0.931 . S
H615 C606 0.933 . S
Dy616 O619 2.307 . S
Dy616 O621 2.395 . S
Dy616 O622 2.379 . S
Dy616 O624 2.339 . S
Dy616 O626 2.298 . S
Dy616 O630 2.275 . S
Dy616 C638 2.738 . S
Dy617 O620 2.298 . S
Dy617 O623 2.275 . S
Dy617 O625 2.307 . S
Dy617 O627 2.395 . S
Dy617 O628 2.379 . S
Dy617 O631 2.339 . S
Dy617 C647 2.738 . S
C618 O630 1.254 . S
C618 O631 1.257 . S
O619 Dy616 2.307 . S
O619 C629 1.266 . S
O620 Dy617 2.298 . S
O620 C629 1.236 . S
O621 Dy616 2.395 . S
O621 C638 1.255 . S
O622 Dy616 2.379 . S
O622 C638 1.249 . S
O623 Dy617 2.275 . S
O623 C639 1.254 . S
O624 Dy616 2.339 . S
O624 C639 1.257 . S
O625 Dy617 2.307 . S
O625 C640 1.266 . S
O626 Dy616 2.298 . S
O626 C640 1.236 . S
O627 Dy617 2.395 . S
O627 C647 1.255 . S
O628 Dy617 2.379 . S
O628 C647 1.249 . S
C629 O619 1.266 . S
C629 O620 1.236 . S
O630 Dy616 2.275 . S
O630 C618 1.254 . S
O631 Dy617 2.339 . S
O631 C618 1.257 . S
C632 C635 1.344 . S
C632 C636 1.328 . S
C632 C638 1.516 . S
C633 C634 1.304 . S
C633 C637 1.323 . S
C634 C633 1.304 . S
C634 C635 1.371 . S
C634 H648 0.930 . S
C635 C632 1.344 . S
C635 C634 1.371 . S
C635 H649 0.931 . S
C636 C632 1.328 . S
C636 C637 1.433 . S
C636 H650 0.931 . S
C637 C633 1.323 . S
C637 C636 1.433 . S
C637 H651 0.933 . S
C638 Dy616 2.738 . S
C638 O621 1.255 . S
C638 O622 1.249 . S
C638 C632 1.516 . S
C639 O623 1.254 . S
C639 O624 1.257 . S
C640 O625 1.266 . S
C640 O626 1.236 . S
C641 C644 1.344 . S
C641 C645 1.328 . S
C641 C647 1.516 . S
C642 C643 1.304 . S
C642 C646 1.323 . S
C643 C642 1.304 . S
C643 C644 1.371 . S
C643 H652 0.930 . S
C644 C641 1.344 . S
C644 C643 1.371 . S
C644 H653 0.931 . S
C645 C641 1.328 . S
C645 C646 1.433 . S
C645 H654 0.931 . S
C646 C642 1.323 . S
C646 C645 1.433 . S
C646 H655 0.933 . S
C647 Dy617 2.738 . S
C647 O627 1.255 . S
C647 O628 1.249 . S
C647 C641 1.516 . S
H648 C634 0.930 . S
H649 C635 0.931 . S
H650 C636 0.931 . S
H651 C637 0.933 . S
H652 C643 0.930 . S
H653 C644 0.931 . S
H654 C645 0.931 . S
H655 C646 0.933 . S
Dy656 O659 2.307 . S
Dy656 O661 2.395 . S
Dy656 O662 2.379 . S
Dy656 O664 2.339 . S
Dy656 O666 2.298 . S
Dy656 O670 2.275 . S
Dy656 C678 2.738 . S
Dy657 O660 2.298 . S
Dy657 O663 2.275 . S
Dy657 O665 2.307 . S
Dy657 O667 2.395 . S
Dy657 O668 2.379 . S
Dy657 O671 2.339 . S
Dy657 C687 2.738 . S
C658 O670 1.254 . S
C658 O671 1.257 . S
O659 Dy656 2.307 . S
O659 C669 1.266 . S
O660 Dy657 2.298 . S
O660 C669 1.236 . S
O661 Dy656 2.395 . S
O661 C678 1.255 . S
O662 Dy656 2.379 . S
O662 C678 1.249 . S
O663 Dy657 2.275 . S
O663 C679 1.254 . S
O664 Dy656 2.339 . S
O664 C679 1.257 . S
O665 Dy657 2.307 . S
O665 C680 1.266 . S
O666 Dy656 2.298 . S
O666 C680 1.236 . S
O667 Dy657 2.395 . S
O667 C687 1.255 . S
O668 Dy657 2.379 . S
O668 C687 1.249 . S
C669 O659 1.266 . S
C669 O660 1.236 . S
O670 Dy656 2.275 . S
O670 C658 1.254 . S
O671 Dy657 2.339 . S
O671 C658 1.257 . S
C672 C675 1.344 . S
C672 C676 1.328 . S
C672 C678 1.516 . S
C673 C674 1.304 . S
C673 C677 1.323 . S
C674 C673 1.304 . S
C674 C675 1.371 . S
C674 H688 0.930 . S
C675 C672 1.344 . S
C675 C674 1.371 . S
C675 H689 0.931 . S
C676 C672 1.328 . S
C676 C677 1.433 . S
C676 H690 0.931 . S
C677 C673 1.323 . S
C677 C676 1.433 . S
C677 H691 0.933 . S
C678 Dy656 2.738 . S
C678 O661 1.255 . S
C678 O662 1.249 . S
C678 C672 1.516 . S
C679 O663 1.254 . S
C679 O664 1.257 . S
C680 O665 1.266 . S
C680 O666 1.236 . S
C681 C684 1.344 . S
C681 C685 1.328 . S
C681 C687 1.516 . S
C682 C683 1.304 . S
C682 C686 1.323 1_556 S
C683 C682 1.304 . S
C683 C684 1.371 1_556 S
C683 H692 0.930 . S
C684 C681 1.344 . S
C684 C683 1.371 1_554 S
C684 H693 0.931 . S
C685 C681 1.328 . S
C685 C686 1.433 . S
C685 H694 0.931 . S
C686 C682 1.323 1_554 S
C686 C685 1.433 . S
C686 H695 0.933 . S
C687 Dy657 2.738 . S
C687 O667 1.255 . S
C687 O668 1.249 . S
C687 C681 1.516 . S
H688 C674 0.930 . S
H689 C675 0.931 . S
H690 C676 0.931 . S
H691 C677 0.933 . S
H692 C683 0.930 . S
H693 C684 0.931 . S
H694 C685 0.931 . S
H695 C686 0.933 . S
Dy696 O699 2.307 . S
Dy696 O701 2.395 . S
Dy696 O702 2.379 . S
Dy696 O704 2.339 . S
Dy696 O706 2.298 . S
Dy696 O710 2.275 . S
Dy696 C718 2.738 . S
Dy697 O700 2.298 . S
Dy697 O703 2.275 . S
Dy697 O705 2.307 . S
Dy697 O707 2.395 . S
Dy697 O708 2.379 . S
Dy697 O711 2.339 . S
Dy697 C727 2.738 . S
C698 O710 1.254 . S
C698 O711 1.257 . S
O699 Dy696 2.307 . S
O699 C709 1.266 . S
O700 Dy697 2.298 . S
O700 C709 1.236 . S
O701 Dy696 2.395 . S
O701 C718 1.255 . S
O702 Dy696 2.379 . S
O702 C718 1.249 . S
O703 Dy697 2.275 . S
O703 C719 1.254 . S
O704 Dy696 2.339 . S
O704 C719 1.257 . S
O705 Dy697 2.307 . S
O705 C720 1.266 . S
O706 Dy696 2.298 . S
O706 C720 1.236 . S
O707 Dy697 2.395 . S
O707 C727 1.255 . S
O708 Dy697 2.379 . S
O708 C727 1.249 . S
C709 O699 1.266 . S
C709 O700 1.236 . S
O710 Dy696 2.275 . S
O710 C698 1.254 . S
O711 Dy697 2.339 . S
O711 C698 1.257 . S
C712 C715 1.344 . S
C712 C716 1.328 . S
C712 C718 1.516 . S
C713 C714 1.304 . S
C713 C717 1.323 . S
C714 C713 1.304 . S
C714 C715 1.371 . S
C714 H728 0.930 . S
C715 C712 1.344 . S
C715 C714 1.371 . S
C715 H729 0.931 . S
C716 C712 1.328 . S
C716 C717 1.433 . S
C716 H730 0.931 . S
C717 C713 1.323 . S
C717 C716 1.433 . S
C717 H731 0.933 . S
C718 Dy696 2.738 . S
C718 O701 1.255 . S
C718 O702 1.249 . S
C718 C712 1.516 . S
C719 O703 1.254 . S
C719 O704 1.257 . S
C720 O705 1.266 . S
C720 O706 1.236 . S
C721 C724 1.344 . S
C721 C725 1.328 . S
C721 C727 1.516 . S
C722 C723 1.304 . S
C722 C726 1.323 . S
C723 C722 1.304 . S
C723 C724 1.371 . S
C723 H732 0.930 . S
C724 C721 1.344 . S
C724 C723 1.371 . S
C724 H733 0.931 . S
C725 C721 1.328 . S
C725 C726 1.433 . S
C725 H734 0.931 . S
C726 C722 1.323 . S
C726 C725 1.433 . S
C726 H735 0.933 . S
C727 Dy697 2.738 . S
C727 O707 1.255 . S
C727 O708 1.249 . S
C727 C721 1.516 . S
H728 C714 0.930 . S
H729 C715 0.931 . S
H730 C716 0.931 . S
H731 C717 0.933 . S
H732 C723 0.930 . S
H733 C724 0.931 . S
H734 C725 0.931 . S
H735 C726 0.933 . S
Dy736 O739 2.307 1_455 S
Dy736 O741 2.395 . S
Dy736 O742 2.379 . S
Dy736 O744 2.339 . S
Dy736 O746 2.298 . S
Dy736 O750 2.275 . S
Dy736 C758 2.738 . S
Dy737 O740 2.298 1_455 S
Dy737 O743 2.275 . S
Dy737 O745 2.307 . S
Dy737 O747 2.395 . S
Dy737 O748 2.379 . S
Dy737 O751 2.339 . S
Dy737 C767 2.748 . S
C738 O750 1.254 . S
C738 O751 1.257 . S
O739 Dy736 2.307 1_655 S
O739 C749 1.266 . S
O740 Dy737 2.298 1_655 S
O740 C749 1.236 . S
O741 Dy736 2.395 . S
O741 C758 1.255 . S
O742 Dy736 2.379 . S
O742 C758 1.249 . S
O743 Dy737 2.275 . S
O743 C759 1.254 . S
O744 Dy736 2.339 . S
O744 C759 1.257 . S
O745 Dy737 2.307 . S
O745 C760 1.266 . S
O746 Dy736 2.298 . S
O746 C760 1.236 . S
O747 Dy737 2.395 . S
O747 C767 1.253 . S
O748 Dy737 2.379 . S
O748 C767 1.261 . S
C749 O739 1.266 . S
C749 O740 1.236 . S
O750 Dy736 2.275 . S
O750 C738 1.254 . S
O751 Dy737 2.339 . S
O751 C738 1.257 . S
C752 C755 1.344 . S
C752 C756 1.328 . S
C752 C758 1.516 . S
C753 C754 1.304 . S
C753 C757 1.323 . S
C754 C753 1.304 . S
C754 C755 1.371 . S
C754 H768 0.930 . S
C755 C752 1.344 . S
C755 C754 1.371 . S
C755 H769 0.931 . S
C756 C752 1.328 . S
C756 C757 1.433 . S
C756 H770 0.931 . S
C757 C753 1.323 . S
C757 C756 1.433 . S
C757 H771 0.933 . S
C758 Dy736 2.738 . S
C758 O741 1.255 . S
C758 O742 1.249 . S
C758 C752 1.516 . S
C759 O743 1.254 . S
C759 O744 1.257 . S
C760 O745 1.266 . S
C760 O746 1.236 . S
C761 C764 1.344 . S
C761 C765 1.328 . S
C761 C767 1.506 1_655 S
C762 C763 1.304 . S
C762 C766 1.323 . S
C763 C762 1.304 . S
C763 C764 1.371 . S
C763 H772 0.930 . S
C764 C761 1.344 . S
C764 C763 1.371 . S
C764 H773 0.931 . S
C765 C761 1.328 . S
C765 C766 1.433 . S
C765 H774 0.931 . S
C766 C762 1.323 . S
C766 C765 1.433 . S
C766 H775 0.933 . S
C767 Dy737 2.748 . S
C767 O747 1.253 . S
C767 O748 1.261 . S
C767 C761 1.506 1_455 S
H768 C754 0.930 . S
H769 C755 0.931 . S
H770 C756 0.931 . S
H771 C757 0.933 . S
H772 C763 0.930 . S
H773 C764 0.931 . S
H774 C765 0.931 . S
H775 C766 0.933 . S
Dy776 O779 2.307 . S
Dy776 O781 2.395 . S
Dy776 O782 2.379 . S
Dy776 O784 2.339 . S
Dy776 O786 2.298 . S
Dy776 O790 2.275 . S
Dy776 C798 2.738 . S
Dy777 O780 2.298 . S
Dy777 O783 2.275 . S
Dy777 O785 2.307 . S
Dy777 O787 2.395 . S
Dy777 O788 2.379 . S
Dy777 O791 2.339 . S
Dy777 C807 2.738 . S
C778 O790 1.254 . S
C778 O791 1.257 . S
O779 Dy776 2.307 . S
O779 C789 1.266 . S
O780 Dy777 2.298 . S
O780 C789 1.236 . S
O781 Dy776 2.395 . S
O781 C798 1.255 . S
O782 Dy776 2.379 . S
O782 C798 1.249 . S
O783 Dy777 2.275 . S
O783 C799 1.254 . S
O784 Dy776 2.339 . S
O784 C799 1.257 . S
O785 Dy777 2.307 . S
O785 C800 1.266 . S
O786 Dy776 2.298 . S
O786 C800 1.236 . S
O787 Dy777 2.395 . S
O787 C807 1.255 . S
O788 Dy777 2.379 . S
O788 C807 1.249 . S
C789 O779 1.266 . S
C789 O780 1.236 . S
O790 Dy776 2.275 . S
O790 C778 1.254 . S
O791 Dy777 2.339 . S
O791 C778 1.257 . S
C792 C795 1.344 . S
C792 C796 1.328 . S
C792 C798 1.516 . S
C793 C794 1.304 . S
C793 C797 1.323 . S
C794 C793 1.304 . S
C794 C795 1.371 . S
C794 H808 0.930 . S
C795 C792 1.344 . S
C795 C794 1.371 . S
C795 H809 0.931 . S
C796 C792 1.328 . S
C796 C797 1.433 . S
C796 H810 0.931 . S
C797 C793 1.323 . S
C797 C796 1.433 . S
C797 H811 0.933 . S
C798 Dy776 2.738 . S
C798 O781 1.255 . S
C798 O782 1.249 . S
C798 C792 1.516 . S
C799 O783 1.254 . S
C799 O784 1.257 . S
C800 O785 1.266 . S
C800 O786 1.236 . S
C801 C804 1.344 . S
C801 C805 1.328 . S
C801 C807 1.516 . S
C802 C803 1.304 . S
C802 C806 1.323 . S
C803 C802 1.304 . S
C803 C804 1.371 . S
C803 H812 0.930 . S
C804 C801 1.344 . S
C804 C803 1.371 . S
C804 H813 0.931 . S
C805 C801 1.328 . S
C805 C806 1.433 . S
C805 H814 0.931 . S
C806 C802 1.323 . S
C806 C805 1.433 . S
C806 H815 0.933 . S
C807 Dy777 2.738 . S
C807 O787 1.255 . S
C807 O788 1.249 . S
C807 C801 1.516 . S
H808 C794 0.930 . S
H809 C795 0.931 . S
H810 C796 0.931 . S
H811 C797 0.933 . S
H812 C803 0.930 . S
H813 C804 0.931 . S
H814 C805 0.931 . S
H815 C806 0.933 . S
Dy816 O819 2.307 . S
Dy816 O821 2.395 . S
Dy816 O822 2.379 . S
Dy816 O824 2.339 . S
Dy816 O826 2.298 . S
Dy816 O830 2.275 . S
Dy816 C838 2.738 . S
Dy817 O820 2.298 . S
Dy817 O823 2.275 . S
Dy817 O825 2.307 . S
Dy817 O827 2.395 . S
Dy817 O828 2.379 . S
Dy817 O831 2.339 . S
Dy817 C847 2.738 . S
C818 O830 1.254 . S
C818 O831 1.257 . S
O819 Dy816 2.307 . S
O819 C829 1.266 . S
O820 Dy817 2.298 . S
O820 C829 1.236 . S
O821 Dy816 2.395 . S
O821 C838 1.255 . S
O822 Dy816 2.379 . S
O822 C838 1.249 . S
O823 Dy817 2.275 . S
O823 C839 1.254 . S
O824 Dy816 2.339 . S
O824 C839 1.257 . S
O825 Dy817 2.307 . S
O825 C840 1.266 . S
O826 Dy816 2.298 . S
O826 C840 1.236 . S
O827 Dy817 2.395 . S
O827 C847 1.255 . S
O828 Dy817 2.379 . S
O828 C847 1.249 . S
C829 O819 1.266 . S
C829 O820 1.236 . S
O830 Dy816 2.275 . S
O830 C818 1.254 . S
O831 Dy817 2.339 . S
O831 C818 1.257 . S
C832 C835 1.344 . S
C832 C836 1.328 . S
C832 C838 1.516 . S
C833 C834 1.304 . S
C833 C837 1.323 . S
C834 C833 1.304 . S
C834 C835 1.371 . S
C834 H848 0.930 . S
C835 C832 1.344 . S
C835 C834 1.371 . S
C835 H849 0.931 . S
C836 C832 1.328 . S
C836 C837 1.433 . S
C836 H850 0.931 . S
C837 C833 1.323 . S
C837 C836 1.433 . S
C837 H851 0.933 . S
C838 Dy816 2.738 . S
C838 O821 1.255 . S
C838 O822 1.249 . S
C838 C832 1.516 . S
C839 O823 1.254 . S
C839 O824 1.257 . S
C840 O825 1.266 . S
C840 O826 1.236 . S
C841 C844 1.344 . S
C841 C845 1.328 . S
C841 C847 1.516 . S
C842 C843 1.304 . S
C842 C846 1.323 . S
C843 C842 1.304 . S
C843 C844 1.371 . S
C843 H852 0.930 . S
C844 C841 1.344 . S
C844 C843 1.371 . S
C844 H853 0.931 . S
C845 C841 1.328 . S
C845 C846 1.433 . S
C845 H854 0.931 . S
C846 C842 1.323 . S
C846 C845 1.433 . S
C846 H855 0.933 . S
C847 Dy817 2.738 . S
C847 O827 1.255 . S
C847 O828 1.249 . S
C847 C841 1.516 . S
H848 C834 0.930 . S
H849 C835 0.931 . S
H850 C836 0.931 . S
H851 C837 0.933 . S
H852 C843 0.930 . S
H853 C844 0.931 . S
H854 C845 0.931 . S
H855 C846 0.933 . S
Dy856 O859 2.307 . S
Dy856 O861 2.395 . S
Dy856 O862 2.379 . S
Dy856 O864 2.339 . S
Dy856 O866 2.298 . S
Dy856 O870 2.275 . S
Dy856 C878 2.738 . S
Dy857 O860 2.298 . S
Dy857 O863 2.275 . S
Dy857 O865 2.307 . S
Dy857 O867 2.395 . S
Dy857 O868 2.379 . S
Dy857 O871 2.339 . S
Dy857 C887 2.738 . S
C858 O870 1.254 . S
C858 O871 1.257 . S
O859 Dy856 2.307 . S
O859 C869 1.266 . S
O860 Dy857 2.298 . S
O860 C869 1.236 . S
O861 Dy856 2.395 . S
O861 C878 1.255 . S
O862 Dy856 2.379 . S
O862 C878 1.249 . S
O863 Dy857 2.275 . S
O863 C879 1.254 . S
O864 Dy856 2.339 . S
O864 C879 1.257 . S
O865 Dy857 2.307 . S
O865 C880 1.266 . S
O866 Dy856 2.298 . S
O866 C880 1.236 . S
O867 Dy857 2.395 . S
O867 C887 1.255 . S
O868 Dy857 2.379 . S
O868 C887 1.249 . S
C869 O859 1.266 . S
C869 O860 1.236 . S
O870 Dy856 2.275 . S
O870 C858 1.254 . S
O871 Dy857 2.339 . S
O871 C858 1.257 . S
C872 C875 1.344 . S
C872 C876 1.328 . S
C872 C878 1.516 . S
C873 C874 1.304 . S
C873 C877 1.323 . S
C874 C873 1.304 . S
C874 C875 1.371 . S
C874 H888 0.930 . S
C875 C872 1.344 . S
C875 C874 1.371 . S
C875 H889 0.931 . S
C876 C872 1.328 . S
C876 C877 1.433 . S
C876 H890 0.931 . S
C877 C873 1.323 . S
C877 C876 1.433 . S
C877 H891 0.933 . S
C878 Dy856 2.738 . S
C878 O861 1.255 . S
C878 O862 1.249 . S
C878 C872 1.516 . S
C879 O863 1.254 . S
C879 O864 1.257 . S
C880 O865 1.266 . S
C880 O866 1.236 . S
C881 C884 1.344 . S
C881 C885 1.328 . S
C881 C887 1.516 . S
C882 C883 1.304 . S
C882 C886 1.323 . S
C883 C882 1.304 . S
C883 C884 1.371 . S
C883 H892 0.930 . S
C884 C881 1.344 . S
C884 C883 1.371 . S
C884 H893 0.931 . S
C885 C881 1.328 . S
C885 C886 1.433 . S
C885 H894 0.931 . S
C886 C882 1.323 . S
C886 C885 1.433 . S
C886 H895 0.933 . S
C887 Dy857 2.738 . S
C887 O867 1.255 . S
C887 O868 1.249 . S
C887 C881 1.516 . S
H888 C874 0.930 . S
H889 C875 0.931 . S
H890 C876 0.931 . S
H891 C877 0.933 . S
H892 C883 0.930 . S
H893 C884 0.931 . S
H894 C885 0.931 . S
H895 C886 0.933 . S
Dy896 O899 2.307 . S
Dy896 O901 2.395 . S
Dy896 O902 2.379 . S
Dy896 O904 2.339 . S
Dy896 O906 2.298 . S
Dy896 O910 2.275 . S
Dy896 C918 2.738 . S
Dy897 O900 2.298 . S
Dy897 O903 2.275 . S
Dy897 O905 2.307 . S
Dy897 O907 2.395 . S
Dy897 O908 2.379 . S
Dy897 O911 2.339 . S
Dy897 C927 2.738 . S
C898 O910 1.254 . S
C898 O911 1.257 . S
O899 Dy896 2.307 . S
O899 C909 1.266 . S
O900 Dy897 2.298 . S
O900 C909 1.236 . S
O901 Dy896 2.395 . S
O901 C918 1.255 . S
O902 Dy896 2.379 . S
O902 C918 1.249 . S
O903 Dy897 2.275 . S
O903 C919 1.254 . S
O904 Dy896 2.339 . S
O904 C919 1.257 . S
O905 Dy897 2.307 . S
O905 C920 1.266 . S
O906 Dy896 2.298 . S
O906 C920 1.236 . S
O907 Dy897 2.395 . S
O907 C927 1.255 . S
O908 Dy897 2.379 . S
O908 C927 1.249 . S
C909 O899 1.266 . S
C909 O900 1.236 . S
O910 Dy896 2.275 . S
O910 C898 1.254 . S
O911 Dy897 2.339 . S
O911 C898 1.257 . S
C912 C915 1.344 . S
C912 C916 1.328 . S
C912 C918 1.516 . S
C913 C914 1.304 . S
C913 C917 1.323 . S
C914 C913 1.304 . S
C914 C915 1.371 . S
C914 H928 0.930 . S
C915 C912 1.344 . S
C915 C914 1.371 . S
C915 H929 0.931 . S
C916 C912 1.328 . S
C916 C917 1.433 . S
C916 H930 0.931 . S
C917 C913 1.323 . S
C917 C916 1.433 . S
C917 H931 0.933 . S
C918 Dy896 2.738 . S
C918 O901 1.255 . S
C918 O902 1.249 . S
C918 C912 1.516 . S
C919 O903 1.254 . S
C919 O904 1.257 . S
C920 O905 1.266 . S
C920 O906 1.236 . S
C921 C924 1.344 . S
C921 C925 1.328 . S
C921 C927 1.516 . S
C922 C923 1.304 . S
C922 C926 1.323 . S
C923 C922 1.304 . S
C923 C924 1.371 . S
C923 H932 0.930 . S
C924 C921 1.344 . S
C924 C923 1.371 . S
C924 H933 0.931 . S
C925 C921 1.328 . S
C925 C926 1.433 . S
C925 H934 0.931 . S
C926 C922 1.323 . S
C926 C925 1.433 . S
C926 H935 0.933 . S
C927 Dy897 2.738 . S
C927 O907 1.255 . S
C927 O908 1.249 . S
C927 C921 1.516 . S
H928 C914 0.930 . S
H929 C915 0.931 . S
H930 C916 0.931 . S
H931 C917 0.933 . S
H932 C923 0.930 . S
H933 C924 0.931 . S
H934 C925 0.931 . S
H935 C926 0.933 . S
Dy936 O939 2.318 . S
Dy936 O941 2.379 1_455 S
Dy936 O942 2.364 1_455 S
Dy936 O944 2.349 . S
Dy936 O946 2.303 . S
Dy936 O950 2.283 . S
Dy936 C958 2.721 1_455 S
Dy937 O940 2.298 . S
Dy937 O943 2.275 . S
Dy937 O945 2.307 . S
Dy937 O947 2.395 . S
Dy937 O948 2.379 . S
Dy937 O951 2.339 . S
Dy937 C967 2.738 . S
C938 O950 1.254 . S
C938 O951 1.257 . S
O939 Dy936 2.318 . S
O939 C949 1.266 . S
O940 Dy937 2.298 . S
O940 C949 1.236 . S
O941 Dy936 2.379 1_655 S
O941 C958 1.255 . S
O942 Dy936 2.364 1_655 S
O942 C958 1.249 . S
O943 Dy937 2.275 . S
O943 C959 1.254 . S
O944 Dy936 2.349 . S
O944 C959 1.257 . S
O945 Dy937 2.307 . S
O945 C960 1.266 . S
O946 Dy936 2.303 . S
O946 C960 1.236 . S
O947 Dy937 2.395 . S
O947 C967 1.255 . S
O948 Dy937 2.379 . S
O948 C967 1.249 . S
C949 O939 1.266 . S
C949 O940 1.236 . S
O950 Dy936 2.283 . S
O950 C938 1.254 . S
O951 Dy937 2.339 . S
O951 C938 1.257 . S
C952 C955 1.344 . S
C952 C956 1.328 . S
C952 C958 1.516 . S
C953 C954 1.304 . S
C953 C957 1.323 . S
C954 C953 1.304 . S
C954 C955 1.371 . S
C954 H968 0.930 . S
C955 C952 1.344 . S
C955 C954 1.371 . S
C955 H969 0.931 . S
C956 C952 1.328 . S
C956 C957 1.433 . S
C956 H970 0.931 . S
C957 C953 1.323 . S
C957 C956 1.433 . S
C957 H971 0.933 . S
C958 Dy936 2.721 1_655 S
C958 O941 1.255 . S
C958 O942 1.249 . S
C958 C952 1.516 . S
C959 O943 1.254 . S
C959 O944 1.257 . S
C960 O945 1.266 . S
C960 O946 1.236 . S
C961 C964 1.344 . S
C961 C965 1.328 . S
C961 C967 1.516 . S
C962 C963 1.304 . S
C962 C966 1.323 . S
C963 C962 1.304 . S
C963 C964 1.371 . S
C963 H972 0.930 . S
C964 C961 1.344 . S
C964 C963 1.371 . S
C964 H973 0.931 . S
C965 C961 1.328 . S
C965 C966 1.433 . S
C965 H974 0.931 . S
C966 C962 1.323 . S
C966 C965 1.433 . S
C966 H975 0.933 . S
C967 Dy937 2.738 . S
C967 O947 1.255 . S
C967 O948 1.249 . S
C967 C961 1.516 . S
H968 C954 0.930 . S
H969 C955 0.931 . S
H970 C956 0.931 . S
H971 C957 0.933 . S
H972 C963 0.930 . S
H973 C964 0.931 . S
H974 C965 0.931 . S
H975 C966 0.933 . S
C976 C977 1.391 . S
C976 C978 1.366 1_655 S
C976 H992 0.931 . S
C977 C976 1.391 . S
C977 C981 1.376 1_656 S
C978 C976 1.366 1_455 S
C978 C979 1.388 1_556 S
C978 C982 1.542 1_455 S
C979 C978 1.388 1_554 S
C979 C980 1.410 . S
C979 C987 1.503 . S
C980 C979 1.410 . S
C980 C981 1.392 . S
C980 C983 1.511 . S
C981 C977 1.376 1_454 S
C981 C980 1.392 . S
C981 H993 0.929 . S
C982 C978 1.542 1_655 S
C982 H994 0.960 1_655 S
C982 H995 0.962 . S
C982 H996 0.960 . S
C983 C980 1.511 . S
C983 H997 0.961 . S
C983 H998 0.961 . S
C983 H999 0.961 . S
C984 C985 1.370 . S
C984 C986 1.363 . S
C984 H1000 0.931 1_455 S
C985 C984 1.370 . S
C985 C989 1.408 . S
C986 C984 1.363 . S
C986 C987 1.370 . S
C986 C990 1.524 1_455 S
C987 C979 1.503 . S
C987 C986 1.370 . S
C987 C988 1.403 . S
C988 C987 1.403 . S
C988 C989 1.404 . S
C988 C991 1.539 . S
C989 C985 1.408 . S
C989 C988 1.404 . S
C989 H1001 0.930 . S
C990 C986 1.524 1_655 S
C990 H1002 0.956 . S
C990 H1003 0.961 . S
C990 H1004 0.961 . S
C991 C988 1.539 . S
C991 H1005 0.958 1_554 S
C991 H1006 0.961 . S
C991 H1007 0.960 . S
H992 C976 0.931 . S
H993 C981 0.929 . S
H994 C982 0.960 1_455 S
H995 C982 0.962 . S
H996 C982 0.960 . S
H997 C983 0.961 . S
H998 C983 0.961 . S
H999 C983 0.961 . S
H1000 C984 0.931 1_655 S
H1001 C989 0.930 . S
H1002 C990 0.956 . S
H1003 C990 0.961 . S
H1004 C990 0.961 . S
H1005 C991 0.958 1_556 S
H1006 C991 0.961 . S
H1007 C991 0.960 . S
C1008 C1009 1.391 . S
C1008 C1010 1.394 . S
C1008 H1024 0.931 . S
C1009 C1008 1.391 . S
C1009 C1013 1.376 . S
C1010 C1008 1.394 . S
C1010 C1011 1.369 . S
C1010 C1014 1.531 . S
C1011 C1010 1.369 . S
C1011 C1012 1.410 . S
C1011 C1019 1.503 . S
C1012 C1011 1.410 . S
C1012 C1013 1.392 . S
C1012 C1015 1.511 . S
C1013 C1009 1.376 . S
C1013 C1012 1.392 . S
C1013 H1025 0.929 . S
C1014 C1010 1.531 . S
C1014 H1026 0.960 . S
C1014 H1027 0.962 . S
C1014 H1028 0.960 . S
C1015 C1012 1.511 . S
C1015 H1029 0.961 . S
C1015 H1030 0.961 . S
C1015 H1031 0.961 . S
C1016 C1017 1.370 . S
C1016 C1018 1.363 . S
C1016 H1032 0.931 . S
C1017 C1016 1.370 . S
C1017 C1021 1.408 . S
C1018 C1016 1.363 . S
C1018 C1019 1.370 . S
C1018 C1022 1.524 . S
C1019 C1011 1.503 . S
C1019 C1018 1.370 . S
C1019 C1020 1.403 . S
C1020 C1019 1.403 . S
C1020 C1021 1.404 . S
C1020 C1023 1.539 . S
C1021 C1017 1.408 . S
C1021 C1020 1.404 . S
C1021 H1033 0.930 . S
C1022 C1018 1.524 . S
C1022 H1034 0.956 . S
C1022 H1035 0.961 . S
C1022 H1036 0.961 . S
C1023 C1020 1.539 . S
C1023 H1037 0.958 . S
C1023 H1038 0.961 . S
C1023 H1039 0.960 . S
H1024 C1008 0.931 . S
H1025 C1013 0.929 . S
H1026 C1014 0.960 . S
H1027 C1014 0.962 . S
H1028 C1014 0.960 . S
H1029 C1015 0.961 . S
H1030 C1015 0.961 . S
H1031 C1015 0.961 . S
H1032 C1016 0.931 . S
H1033 C1021 0.930 . S
H1034 C1022 0.956 . S
H1035 C1022 0.961 . S
H1036 C1022 0.961 . S
H1037 C1023 0.958 . S
H1038 C1023 0.961 . S
H1039 C1023 0.960 . S
C1040 C1041 1.391 . S
C1040 C1042 1.394 . S
C1040 H1056 0.931 . S
C1041 C1040 1.391 . S
C1041 C1045 1.376 . S
C1042 C1040 1.394 . S
C1042 C1043 1.369 . S
C1042 C1046 1.531 . S
C1043 C1042 1.369 . S
C1043 C1044 1.410 . S
C1043 C1051 1.503 . S
C1044 C1043 1.410 . S
C1044 C1045 1.392 . S
C1044 C1047 1.511 . S
C1045 C1041 1.376 . S
C1045 C1044 1.392 . S
C1045 H1057 0.929 . S
C1046 C1042 1.531 . S
C1046 H1058 0.960 . S
C1046 H1059 0.962 . S
C1046 H1060 0.960 . S
C1047 C1044 1.511 . S
C1047 H1061 0.961 . S
C1047 H1062 0.961 . S
C1047 H1063 0.961 . S
C1048 C1049 1.370 . S
C1048 C1050 1.363 . S
C1048 H1064 0.931 . S
C1049 C1048 1.370 . S
C1049 C1053 1.408 . S
C1050 C1048 1.363 . S
C1050 C1051 1.370 . S
C1050 C1054 1.524 . S
C1051 C1043 1.503 . S
C1051 C1050 1.370 . S
C1051 C1052 1.403 . S
C1052 C1051 1.403 . S
C1052 C1053 1.404 . S
C1052 C1055 1.539 . S
C1053 C1049 1.408 . S
C1053 C1052 1.404 . S
C1053 H1065 0.930 . S
C1054 C1050 1.524 . S
C1054 H1066 0.956 . S
C1054 H1067 0.961 . S
C1054 H1068 0.961 . S
C1055 C1052 1.539 . S
C1055 H1069 0.958 . S
C1055 H1070 0.961 . S
C1055 H1071 0.960 . S
H1056 C1040 0.931 . S
H1057 C1045 0.929 . S
H1058 C1046 0.960 . S
H1059 C1046 0.962 . S
H1060 C1046 0.960 . S
H1061 C1047 0.961 . S
H1062 C1047 0.961 . S
H1063 C1047 0.961 . S
H1064 C1048 0.931 . S
H1065 C1053 0.930 . S
H1066 C1054 0.956 . S
H1067 C1054 0.961 . S
H1068 C1054 0.961 . S
H1069 C1055 0.958 . S
H1070 C1055 0.961 . S
H1071 C1055 0.960 . S
C1072 C1073 1.391 . S
C1072 C1074 1.394 . S
C1072 H1088 0.931 . S
C1073 C1072 1.391 . S
C1073 C1077 1.376 . S
C1074 C1072 1.394 . S
C1074 C1075 1.369 . S
C1074 C1078 1.531 . S
C1075 C1074 1.369 . S
C1075 C1076 1.410 . S
C1075 C1083 1.503 . S
C1076 C1075 1.410 . S
C1076 C1077 1.392 . S
C1076 C1079 1.511 . S
C1077 C1073 1.376 . S
C1077 C1076 1.392 . S
C1077 H1089 0.929 . S
C1078 C1074 1.531 . S
C1078 H1090 0.960 . S
C1078 H1091 0.962 . S
C1078 H1092 0.960 . S
C1079 C1076 1.511 . S
C1079 H1093 0.961 . S
C1079 H1094 0.961 . S
C1079 H1095 0.961 . S
C1080 C1081 1.370 . S
C1080 C1082 1.363 . S
C1080 H1096 0.931 . S
C1081 C1080 1.370 . S
C1081 C1085 1.408 . S
C1082 C1080 1.363 . S
C1082 C1083 1.370 . S
C1082 C1086 1.524 . S
C1083 C1075 1.503 . S
C1083 C1082 1.370 . S
C1083 C1084 1.403 . S
C1084 C1083 1.403 . S
C1084 C1085 1.404 . S
C1084 C1087 1.539 . S
C1085 C1081 1.408 . S
C1085 C1084 1.404 . S
C1085 H1097 0.930 . S
C1086 C1082 1.524 . S
C1086 H1098 0.956 . S
C1086 H1099 0.961 . S
C1086 H1100 0.961 . S
C1087 C1084 1.539 . S
C1087 H1101 0.958 . S
C1087 H1102 0.961 . S
C1087 H1103 0.960 . S
H1088 C1072 0.931 . S
H1089 C1077 0.929 . S
H1090 C1078 0.960 . S
H1091 C1078 0.962 . S
H1092 C1078 0.960 . S
H1093 C1079 0.961 . S
H1094 C1079 0.961 . S
H1095 C1079 0.961 . S
H1096 C1080 0.931 . S
H1097 C1085 0.930 . S
H1098 C1086 0.956 . S
H1099 C1086 0.961 . S
H1100 C1086 0.961 . S
H1101 C1087 0.958 . S
H1102 C1087 0.961 . S
H1103 C1087 0.960 . S
C1104 C1105 1.391 . S
C1104 C1106 1.394 . S
C1104 H1120 0.931 . S
C1105 C1104 1.391 . S
C1105 C1109 1.376 . S
C1106 C1104 1.394 . S
C1106 C1107 1.369 . S
C1106 C1110 1.531 . S
C1107 C1106 1.369 . S
C1107 C1108 1.410 . S
C1107 C1115 1.503 . S
C1108 C1107 1.410 . S
C1108 C1109 1.392 . S
C1108 C1111 1.511 . S
C1109 C1105 1.376 . S
C1109 C1108 1.392 . S
C1109 H1121 0.929 . S
C1110 C1106 1.531 . S
C1110 H1122 0.960 . S
C1110 H1123 0.962 . S
C1110 H1124 0.960 . S
C1111 C1108 1.511 . S
C1111 H1125 0.961 . S
C1111 H1126 0.961 . S
C1111 H1127 1.002 . S
C1112 C1113 1.370 . S
C1112 C1114 1.363 . S
C1112 H1128 0.931 . S
C1113 C1112 1.370 . S
C1113 C1117 1.408 . S
C1114 C1112 1.363 . S
C1114 C1115 1.370 . S
C1114 C1118 1.524 . S
C1115 C1107 1.503 . S
C1115 C1114 1.370 . S
C1115 C1116 1.403 . S
C1116 C1115 1.403 . S
C1116 C1117 1.404 . S
C1116 C1119 1.539 . S
C1117 C1113 1.408 . S
C1117 C1116 1.404 . S
C1117 H1129 0.930 . S
C1118 C1114 1.524 . S
C1118 H1130 0.956 . S
C1118 H1131 0.961 . S
C1118 H1132 0.961 . S
C1119 C1116 1.539 . S
C1119 H1133 0.958 . S
C1119 H1134 0.961 1_455 S
C1119 H1135 0.960 . S
H1120 C1104 0.931 . S
H1121 C1109 0.929 . S
H1122 C1110 0.960 . S
H1123 C1110 0.962 . S
H1124 C1110 0.960 . S
H1125 C1111 0.961 . S
H1126 C1111 0.961 . S
H1127 C1111 1.002 . S
H1128 C1112 0.931 . S
H1129 C1117 0.930 . S
H1130 C1118 0.956 . S
H1131 C1118 0.961 . S
H1132 C1118 0.961 . S
H1133 C1119 0.958 . S
H1134 C1119 0.961 1_655 S
H1135 C1119 0.960 . S
C1136 C1137 1.391 . S
C1136 C1138 1.394 . S
C1136 H1152 0.931 . S
C1137 C1136 1.391 . S
C1137 C1141 1.376 . S
C1138 C1136 1.394 . S
C1138 C1139 1.369 . S
C1138 C1142 1.531 . S
C1139 C1138 1.369 . S
C1139 C1140 1.410 . S
C1139 C1147 1.503 . S
C1140 C1139 1.410 . S
C1140 C1141 1.392 . S
C1140 C1143 1.511 . S
C1141 C1137 1.376 . S
C1141 C1140 1.392 . S
C1141 H1153 0.929 . S
C1142 C1138 1.531 . S
C1142 H1154 0.960 . S
C1142 H1155 0.962 . S
C1142 H1156 0.960 . S
C1143 C1140 1.511 . S
C1143 H1157 0.961 . S
C1143 H1158 0.961 . S
C1143 H1159 0.961 . S
C1144 C1145 1.370 . S
C1144 C1146 1.363 . S
C1144 H1160 0.931 . S
C1145 C1144 1.370 . S
C1145 C1149 1.408 . S
C1146 C1144 1.363 . S
C1146 C1147 1.370 . S
C1146 C1150 1.524 . S
C1147 C1139 1.503 . S
C1147 C1146 1.370 . S
C1147 C1148 1.403 . S
C1148 C1147 1.403 . S
C1148 C1149 1.404 . S
C1148 C1151 1.539 . S
C1149 C1145 1.408 . S
C1149 C1148 1.404 . S
C1149 H1161 0.930 . S
C1150 C1146 1.524 . S
C1150 H1162 0.956 . S
C1150 H1163 0.961 . S
C1150 H1164 0.961 . S
C1151 C1148 1.539 . S
C1151 H1165 0.958 . S
C1151 H1166 0.961 . S
C1151 H1167 0.960 . S
H1152 C1136 0.931 . S
H1153 C1141 0.929 . S
H1154 C1142 0.960 . S
H1155 C1142 0.962 . S
H1156 C1142 0.960 . S
H1157 C1143 0.961 . S
H1158 C1143 0.961 . S
H1159 C1143 0.961 . S
H1160 C1144 0.931 . S
H1161 C1149 0.930 . S
H1162 C1150 0.956 . S
H1163 C1150 0.961 . S
H1164 C1150 0.961 . S
H1165 C1151 0.958 . S
H1166 C1151 0.961 . S
H1167 C1151 0.960 . S
C1168 C1169 1.391 . S
C1168 C1170 1.394 . S
C1168 H1184 0.931 . S
C1169 C1168 1.391 . S
C1169 C1173 1.376 . S
C1170 C1168 1.394 . S
C1170 C1171 1.369 . S
C1170 C1174 1.531 . S
C1171 C1170 1.369 . S
C1171 C1172 1.410 . S
C1171 C1179 1.503 . S
C1172 C1171 1.410 . S
C1172 C1173 1.392 . S
C1172 C1175 1.511 . S
C1173 C1169 1.376 . S
C1173 C1172 1.392 . S
C1173 H1185 0.929 . S
C1174 C1170 1.531 . S
C1174 H1186 0.960 . S
C1174 H1187 0.962 . S
C1174 H1188 0.960 . S
C1175 C1172 1.511 . S
C1175 H1189 0.961 . S
C1175 H1190 0.961 . S
C1175 H1191 0.961 . S
C1176 C1177 1.370 . S
C1176 C1178 1.363 . S
C1176 H1192 0.931 . S
C1177 C1176 1.370 . S
C1177 C1181 1.408 . S
C1178 C1176 1.363 . S
C1178 C1179 1.370 . S
C1178 C1182 1.524 . S
C1179 C1171 1.503 . S
C1179 C1178 1.370 . S
C1179 C1180 1.403 . S
C1180 C1179 1.403 . S
C1180 C1181 1.404 . S
C1180 C1183 1.539 . S
C1181 C1177 1.408 . S
C1181 C1180 1.404 . S
C1181 H1193 0.930 . S
C1182 C1178 1.524 . S
C1182 H1194 0.956 . S
C1182 H1195 0.961 . S
C1182 H1196 0.961 . S
C1183 C1180 1.539 . S
C1183 H1197 0.958 . S
C1183 H1198 0.961 . S
C1183 H1199 0.960 . S
H1184 C1168 0.931 . S
H1185 C1173 0.929 . S
H1186 C1174 0.960 . S
H1187 C1174 0.962 . S
H1188 C1174 0.960 . S
H1189 C1175 0.961 . S
H1190 C1175 0.961 . S
H1191 C1175 0.961 . S
H1192 C1176 0.931 . S
H1193 C1181 0.930 . S
H1194 C1182 0.956 . S
H1195 C1182 0.961 . S
H1196 C1182 0.961 . S
H1197 C1183 0.958 . S
H1198 C1183 0.961 . S
H1199 C1183 0.960 . S
C1200 C1201 1.391 . S
C1200 C1202 1.394 . S
C1200 H1216 0.931 . S
C1201 C1200 1.391 . S
C1201 C1205 1.376 . S
C1202 C1200 1.394 . S
C1202 C1203 1.369 . S
C1202 C1206 1.531 . S
C1203 C1202 1.369 . S
C1203 C1204 1.410 . S
C1203 C1211 1.503 . S
C1204 C1203 1.410 . S
C1204 C1205 1.392 . S
C1204 C1207 1.511 . S
C1205 C1201 1.376 . S
C1205 C1204 1.392 . S
C1205 H1217 0.929 . S
C1206 C1202 1.531 . S
C1206 H1218 0.960 . S
C1206 H1219 0.962 . S
C1206 H1220 0.960 . S
C1207 C1204 1.511 . S
C1207 H1221 0.961 . S
C1207 H1222 0.961 . S
C1207 H1223 0.961 . S
C1208 C1209 1.370 . S
C1208 C1210 1.363 . S
C1208 H1224 0.931 . S
C1209 C1208 1.370 . S
C1209 C1213 1.408 . S
C1210 C1208 1.363 . S
C1210 C1211 1.370 . S
C1210 C1214 1.524 . S
C1211 C1203 1.503 . S
C1211 C1210 1.370 . S
C1211 C1212 1.403 . S
C1212 C1211 1.403 . S
C1212 C1213 1.404 . S
C1212 C1215 1.539 . S
C1213 C1209 1.408 . S
C1213 C1212 1.404 . S
C1213 H1225 0.930 . S
C1214 C1210 1.524 . S
C1214 H1226 0.956 . S
C1214 H1227 0.961 . S
C1214 H1228 0.961 . S
C1215 C1212 1.539 . S
C1215 H1229 0.958 . S
C1215 H1230 0.961 . S
C1215 H1231 0.960 . S
H1216 C1200 0.931 . S
H1217 C1205 0.929 . S
H1218 C1206 0.960 . S
H1219 C1206 0.962 . S
H1220 C1206 0.960 . S
H1221 C1207 0.961 . S
H1222 C1207 0.961 . S
H1223 C1207 0.961 . S
H1224 C1208 0.931 . S
H1225 C1213 0.930 . S
H1226 C1214 0.956 . S
H1227 C1214 0.961 . S
H1228 C1214 0.961 . S
H1229 C1215 0.958 . S
H1230 C1215 0.961 . S
H1231 C1215 0.960 . S
C1232 C1233 1.391 . S
C1232 C1234 1.394 . S
C1232 H1248 0.931 1_545 S
C1233 C1232 1.391 . S
C1233 C1237 1.376 . S
C1234 C1232 1.394 . S
C1234 C1235 1.369 . S
C1234 C1238 1.531 1_545 S
C1235 C1234 1.369 . S
C1235 C1236 1.410 . S
C1235 C1243 1.503 . S
C1236 C1235 1.410 . S
C1236 C1237 1.392 . S
C1236 C1239 1.511 . S
C1237 C1233 1.376 . S
C1237 C1236 1.392 . S
C1237 H1249 0.929 . S
C1238 C1234 1.531 1_565 S
C1238 H1250 0.960 . S
C1238 H1251 0.962 . S
C1238 H1252 0.960 . S
C1239 C1236 1.511 . S
C1239 H1253 0.961 . S
C1239 H1254 0.961 . S
C1239 H1255 0.961 . S
C1240 C1241 1.370 . S
C1240 C1242 1.363 . S
C1240 H1256 0.931 . S
C1241 C1240 1.370 . S
C1241 C1245 1.408 1_455 S
C1242 C1240 1.363 . S
C1242 C1243 1.370 1_455 S
C1242 C1246 1.524 . S
C1243 C1235 1.503 . S
C1243 C1242 1.370 1_655 S
C1243 C1244 1.403 . S
C1244 C1243 1.403 . S
C1244 C1245 1.404 . S
C1244 C1247 1.539 . S
C1245 C1241 1.408 1_655 S
C1245 C1244 1.404 . S
C1245 H1257 0.930 . S
C1246 C1242 1.524 . S
C1246 H1258 0.956 . S
C1246 H1259 0.961 . S
C1246 H1260 0.961 . S
C1247 C1244 1.539 . S
C1247 H1261 0.958 . S
C1247 H1262 0.961 . S
C1247 H1263 0.960 . S
H1248 C1232 0.931 1_565 S
H1249 C1237 0.929 . S
H1250 C1238 0.960 . S
H1251 C1238 0.962 . S
H1252 C1238 0.960 . S
H1253 C1239 0.961 . S
H1254 C1239 0.961 . S
H1255 C1239 0.961 . S
H1256 C1240 0.931 . S
H1257 C1245 0.930 . S
H1258 C1246 0.956 . S
H1259 C1246 0.961 . S
H1260 C1246 0.961 . S
H1261 C1247 0.958 . S
H1262 C1247 0.961 . S
H1263 C1247 0.960 . S
C1264 C1265 1.391 . S
C1264 C1266 1.394 . S
C1264 H1280 0.931 . S
C1265 C1264 1.391 . S
C1265 C1269 1.376 . S
C1266 C1264 1.394 . S
C1266 C1267 1.369 . S
C1266 C1270 1.531 . S
C1267 C1266 1.369 . S
C1267 C1268 1.410 . S
C1267 C1275 1.503 . S
C1268 C1267 1.410 . S
C1268 C1269 1.392 . S
C1268 C1271 1.511 . S
C1269 C1265 1.376 . S
C1269 C1268 1.392 . S
C1269 H1281 0.929 . S
C1270 C1266 1.531 . S
C1270 H1282 0.960 . S
C1270 H1283 0.962 . S
C1270 H1284 0.960 . S
C1271 C1268 1.511 . S
C1271 H1285 0.961 . S
C1271 H1286 0.961 . S
C1271 H1287 0.961 . S
C1272 C1273 1.370 . S
C1272 C1274 1.363 . S
C1272 H1288 0.931 . S
C1273 C1272 1.370 . S
C1273 C1277 1.408 . S
C1274 C1272 1.363 . S
C1274 C1275 1.370 . S
C1274 C1278 1.524 . S
C1275 C1267 1.503 . S
C1275 C1274 1.370 . S
C1275 C1276 1.403 . S
C1276 C1275 1.403 . S
C1276 C1277 1.404 . S
C1276 C1279 1.539 . S
C1277 C1273 1.408 . S
C1277 C1276 1.404 . S
C1277 H1289 0.930 . S
C1278 C1274 1.524 . S
C1278 H1290 0.956 . S
C1278 H1291 0.961 . S
C1278 H1292 0.961 . S
C1279 C1276 1.539 . S
C1279 H1293 0.958 . S
C1279 H1294 0.961 . S
C1279 H1295 0.960 . S
H1280 C1264 0.931 . S
H1281 C1269 0.929 . S
H1282 C1270 0.960 . S
H1283 C1270 0.962 . S
H1284 C1270 0.960 . S
H1285 C1271 0.961 . S
H1286 C1271 0.961 . S
H1287 C1271 0.961 . S
H1288 C1272 0.931 . S
H1289 C1277 0.930 . S
H1290 C1278 0.956 . S
H1291 C1278 0.961 . S
H1292 C1278 0.961 . S
H1293 C1279 0.958 . S
H1294 C1279 0.961 . S
H1295 C1279 0.960 . S
C1296 C1297 1.391 . S
C1296 C1298 1.394 . S
C1296 H1312 0.931 . S
C1297 C1296 1.391 . S
C1297 C1301 1.376 . S
C1298 C1296 1.394 . S
C1298 C1299 1.369 . S
C1298 C1302 1.531 . S
C1299 C1298 1.369 . S
C1299 C1300 1.410 . S
C1299 C1307 1.503 . S
C1300 C1299 1.410 . S
C1300 C1301 1.392 . S
C1300 C1303 1.511 . S
C1301 C1297 1.376 . S
C1301 C1300 1.392 . S
C1301 H1313 0.929 . S
C1302 C1298 1.531 . S
C1302 H1314 0.960 . S
C1302 H1315 0.962 . S
C1302 H1316 0.960 . S
C1303 C1300 1.511 . S
C1303 H1317 0.961 . S
C1303 H1318 0.961 . S
C1303 H1319 0.961 . S
C1304 C1305 1.370 . S
C1304 C1306 1.363 . S
C1304 H1320 0.931 . S
C1305 C1304 1.370 . S
C1305 C1309 1.408 . S
C1306 C1304 1.363 . S
C1306 C1307 1.370 . S
C1306 C1310 1.524 . S
C1307 C1299 1.503 . S
C1307 C1306 1.370 . S
C1307 C1308 1.403 . S
C1308 C1307 1.403 . S
C1308 C1309 1.404 . S
C1308 C1311 1.539 . S
C1309 C1305 1.408 . S
C1309 C1308 1.404 . S
C1309 H1321 0.930 . S
C1310 C1306 1.524 . S
C1310 H1322 0.956 . S
C1310 H1323 0.961 . S
C1310 H1324 0.961 . S
C1311 C1308 1.539 . S
C1311 H1325 0.958 . S
C1311 H1326 0.961 . S
C1311 H1327 0.960 . S
H1312 C1296 0.931 . S
H1313 C1301 0.929 . S
H1314 C1302 0.960 . S
H1315 C1302 0.962 . S
H1316 C1302 0.960 . S
H1317 C1303 0.961 . S
H1318 C1303 0.961 . S
H1319 C1303 0.961 . S
H1320 C1304 0.931 . S
H1321 C1309 0.930 . S
H1322 C1310 0.956 . S
H1323 C1310 0.961 . S
H1324 C1310 0.961 . S
H1325 C1311 0.958 . S
H1326 C1311 0.961 . S
H1327 C1311 0.960 . S
C1328 C1329 1.391 . S
C1328 C1330 1.394 . S
C1328 H1344 0.931 . S
C1329 C1328 1.391 . S
C1329 C1333 1.376 . S
C1330 C1328 1.394 . S
C1330 C1331 1.369 . S
C1330 C1334 1.531 . S
C1331 C1330 1.369 . S
C1331 C1332 1.410 . S
C1331 C1339 1.503 . S
C1332 C1331 1.410 . S
C1332 C1333 1.392 . S
C1332 C1335 1.511 . S
C1333 C1329 1.376 . S
C1333 C1332 1.392 . S
C1333 H1345 0.929 . S
C1334 C1330 1.531 . S
C1334 H1346 0.960 . S
C1334 H1347 0.962 . S
C1334 H1348 0.960 . S
C1335 C1332 1.511 . S
C1335 H1349 0.961 . S
C1335 H1350 0.961 . S
C1335 H1351 0.961 . S
C1336 C1337 1.370 . S
C1336 C1338 1.363 . S
C1336 H1352 0.931 . S
C1337 C1336 1.370 . S
C1337 C1341 1.408 . S
C1338 C1336 1.363 . S
C1338 C1339 1.370 . S
C1338 C1342 1.524 . S
C1339 C1331 1.503 . S
C1339 C1338 1.370 . S
C1339 C1340 1.403 . S
C1340 C1339 1.403 . S
C1340 C1341 1.404 . S
C1340 C1343 1.539 . S
C1341 C1337 1.408 . S
C1341 C1340 1.404 . S
C1341 H1353 0.930 . S
C1342 C1338 1.524 . S
C1342 H1354 0.956 . S
C1342 H1355 0.961 . S
C1342 H1356 0.961 . S
C1343 C1340 1.539 . S
C1343 H1357 0.958 . S
C1343 H1358 0.961 . S
C1343 H1359 0.960 . S
H1344 C1328 0.931 . S
H1345 C1333 0.929 . S
H1346 C1334 0.960 . S
H1347 C1334 0.962 . S
H1348 C1334 0.960 . S
H1349 C1335 0.961 . S
H1350 C1335 0.961 . S
H1351 C1335 0.961 . S
H1352 C1336 0.931 . S
H1353 C1341 0.930 . S
H1354 C1342 0.956 . S
H1355 C1342 0.961 . S
H1356 C1342 0.961 . S
H1357 C1343 0.958 . S
H1358 C1343 0.961 . S
H1359 C1343 0.960 . S
C1360 C1361 1.391 . S
C1360 C1362 1.394 . S
C1360 H1376 0.931 . S
C1361 C1360 1.391 . S
C1361 C1365 1.376 . S
C1362 C1360 1.394 . S
C1362 C1363 1.369 . S
C1362 C1366 1.531 1_655 S
C1363 C1362 1.369 . S
C1363 C1364 1.410 . S
C1363 C1371 1.511 . S
C1364 C1363 1.410 . S
C1364 C1365 1.392 . S
C1364 C1367 1.487 1_545 S
C1365 C1361 1.376 . S
C1365 C1364 1.392 . S
C1365 H1377 0.929 . S
C1366 C1362 1.531 1_455 S
C1366 H1378 0.960 . S
C1366 H1379 0.962 . S
C1366 H1380 0.960 . S
C1367 C1364 1.487 1_565 S
C1367 H1381 0.986 . S
C1367 H1382 0.977 . S
C1367 H1383 0.945 1_565 S
C1368 C1369 1.370 . S
C1368 C1370 1.363 . S
C1368 H1384 0.931 . S
C1369 C1368 1.370 . S
C1369 C1373 1.408 . S
C1370 C1368 1.363 . S
C1370 C1371 1.352 1_455 S
C1370 C1374 1.524 . S
C1371 C1363 1.511 . S
C1371 C1370 1.352 1_655 S
C1371 C1372 1.414 . S
C1372 C1371 1.414 . S
C1372 C1373 1.404 1_655 S
C1372 C1375 1.539 . S
C1373 C1369 1.408 . S
C1373 C1372 1.404 1_455 S
C1373 H1385 0.941 . S
C1374 C1370 1.524 . S
C1374 H1386 0.956 . S
C1374 H1387 0.961 . S
C1374 H1388 0.961 . S
C1375 C1372 1.539 . S
C1375 H1389 0.958 . S
C1375 H1390 0.961 . S
C1375 H1391 0.960 . S
H1376 C1360 0.931 . S
H1377 C1365 0.929 . S
H1378 C1366 0.960 . S
H1379 C1366 0.962 . S
H1380 C1366 0.960 . S
H1381 C1367 0.986 . S
H1382 C1367 0.977 . S
H1383 C1367 0.945 1_545 S
H1384 C1368 0.931 . S
H1385 C1373 0.941 . S
H1386 C1374 0.956 . S
H1387 C1374 0.961 . S
H1388 C1374 0.961 . S
H1389 C1375 0.958 . S
H1390 C1375 0.961 . S
H1391 C1375 0.960 . S
C1392 C1393 1.391 . S
C1392 C1394 1.394 . S
C1392 H1408 0.931 . S
C1393 C1392 1.391 . S
C1393 C1397 1.376 . S
C1394 C1392 1.394 . S
C1394 C1395 1.369 . S
C1394 C1398 1.531 . S
C1395 C1394 1.369 . S
C1395 C1396 1.410 . S
C1395 C1403 1.503 . S
C1396 C1395 1.410 . S
C1396 C1397 1.392 . S
C1396 C1399 1.511 . S
C1397 C1393 1.376 . S
C1397 C1396 1.392 . S
C1397 H1409 0.929 . S
C1398 C1394 1.531 . S
C1398 H1410 0.960 . S
C1398 H1411 0.962 . S
C1398 H1412 0.960 . S
C1399 C1396 1.511 . S
C1399 H1413 0.961 . S
C1399 H1414 0.961 . S
C1399 H1415 0.961 . S
C1400 C1401 1.370 . S
C1400 C1402 1.363 . S
C1400 H1416 0.931 . S
C1401 C1400 1.370 . S
C1401 C1405 1.408 . S
C1402 C1400 1.363 . S
C1402 C1403 1.370 . S
C1402 C1406 1.524 . S
C1403 C1395 1.503 . S
C1403 C1402 1.370 . S
C1403 C1404 1.403 . S
C1404 C1403 1.403 . S
C1404 C1405 1.404 . S
C1404 C1407 1.539 . S
C1405 C1401 1.408 . S
C1405 C1404 1.404 . S
C1405 H1417 0.930 . S
C1406 C1402 1.524 . S
C1406 H1418 0.956 . S
C1406 H1419 0.961 . S
C1406 H1420 0.961 . S
C1407 C1404 1.539 . S
C1407 H1421 0.958 . S
C1407 H1422 0.961 . S
C1407 H1423 0.960 . S
H1408 C1392 0.931 . S
H1409 C1397 0.929 . S
H1410 C1398 0.960 . S
H1411 C1398 0.962 . S
H1412 C1398 0.960 . S
H1413 C1399 0.961 . S
H1414 C1399 0.961 . S
H1415 C1399 0.961 . S
H1416 C1400 0.931 . S
H1417 C1405 0.930 . S
H1418 C1406 0.956 . S
H1419 C1406 0.961 . S
H1420 C1406 0.961 . S
H1421 C1407 0.958 . S
H1422 C1407 0.961 . S
H1423 C1407 0.960 . S
C1424 C1425 1.391 . S
C1424 C1426 1.394 . S
C1424 H1440 0.931 . S
C1425 C1424 1.391 . S
C1425 C1429 1.376 . S
C1426 C1424 1.394 . S
C1426 C1427 1.369 . S
C1426 C1430 1.531 . S
C1427 C1426 1.369 . S
C1427 C1428 1.410 . S
C1427 C1435 1.503 . S
C1428 C1427 1.410 . S
C1428 C1429 1.392 . S
C1428 C1431 1.511 . S
C1429 C1425 1.376 . S
C1429 C1428 1.392 . S
C1429 H1441 0.929 . S
C1430 C1426 1.531 . S
C1430 H1442 0.960 . S
C1430 H1443 0.962 . S
C1430 H1444 0.960 . S
C1431 C1428 1.511 . S
C1431 H1445 0.961 . S
C1431 H1446 0.961 . S
C1431 H1447 0.961 . S
C1432 C1433 1.370 . S
C1432 C1434 1.363 . S
C1432 H1448 0.931 . S
C1433 C1432 1.370 . S
C1433 C1437 1.408 . S
C1434 C1432 1.363 . S
C1434 C1435 1.370 . S
C1434 C1438 1.524 . S
C1435 C1427 1.503 . S
C1435 C1434 1.370 . S
C1435 C1436 1.403 . S
C1436 C1435 1.403 . S
C1436 C1437 1.404 . S
C1436 C1439 1.539 . S
C1437 C1433 1.408 . S
C1437 C1436 1.404 . S
C1437 H1449 0.930 . S
C1438 C1434 1.524 . S
C1438 H1450 0.956 . S
C1438 H1451 0.961 . S
C1438 H1452 0.961 . S
C1439 C1436 1.539 . S
C1439 H1453 0.958 . S
C1439 H1454 0.961 . S
C1439 H1455 0.960 . S
H1440 C1424 0.931 . S
H1441 C1429 0.929 . S
H1442 C1430 0.960 . S
H1443 C1430 0.962 . S
H1444 C1430 0.960 . S
H1445 C1431 0.961 . S
H1446 C1431 0.961 . S
H1447 C1431 0.961 . S
H1448 C1432 0.931 . S
H1449 C1437 0.930 . S
H1450 C1438 0.956 . S
H1451 C1438 0.961 . S
H1452 C1438 0.961 . S
H1453 C1439 0.958 . S
H1454 C1439 0.961 . S
H1455 C1439 0.960 . S
C1456 C1457 1.391 . S
C1456 C1458 1.394 . S
C1456 H1472 0.931 . S
C1457 C1456 1.391 . S
C1457 C1461 1.376 . S
C1458 C1456 1.394 . S
C1458 C1459 1.369 . S
C1458 C1462 1.531 . S
C1459 C1458 1.369 . S
C1459 C1460 1.410 . S
C1459 C1467 1.503 . S
C1460 C1459 1.410 . S
C1460 C1461 1.392 . S
C1460 C1463 1.511 . S
C1461 C1457 1.376 . S
C1461 C1460 1.392 . S
C1461 H1473 0.929 . S
C1462 C1458 1.531 . S
C1462 H1474 0.960 . S
C1462 H1475 0.962 . S
C1462 H1476 0.960 . S
C1463 C1460 1.511 . S
C1463 H1477 0.961 . S
C1463 H1478 0.961 . S
C1463 H1479 0.961 . S
C1464 C1465 1.370 . S
C1464 C1466 1.363 . S
C1464 H1480 0.931 . S
C1465 C1464 1.370 . S
C1465 C1469 1.408 . S
C1466 C1464 1.363 . S
C1466 C1467 1.370 . S
C1466 C1470 1.524 . S
C1467 C1459 1.503 . S
C1467 C1466 1.370 . S
C1467 C1468 1.403 . S
C1468 C1467 1.403 . S
C1468 C1469 1.404 . S
C1468 C1471 1.539 . S
C1469 C1465 1.408 . S
C1469 C1468 1.404 . S
C1469 H1481 0.930 . S
C1470 C1466 1.524 . S
C1470 H1482 0.956 . S
C1470 H1483 0.961 . S
C1470 H1484 0.961 . S
C1471 C1468 1.539 . S
C1471 H1485 0.958 . S
C1471 H1486 0.961 . S
C1471 H1487 0.960 . S
H1472 C1456 0.931 . S
H1473 C1461 0.929 . S
H1474 C1462 0.960 . S
H1475 C1462 0.962 . S
H1476 C1462 0.960 . S
H1477 C1463 0.961 . S
H1478 C1463 0.961 . S
H1479 C1463 0.961 . S
H1480 C1464 0.931 . S
H1481 C1469 0.930 . S
H1482 C1470 0.956 . S
H1483 C1470 0.961 . S
H1484 C1470 0.961 . S
H1485 C1471 0.958 . S
H1486 C1471 0.961 . S
H1487 C1471 0.960 . S
C1488 C1489 1.391 . S
C1488 C1490 1.394 . S
C1488 H1504 0.931 . S
C1489 C1488 1.391 . S
C1489 C1493 1.390 . S
C1490 C1488 1.394 . S
C1490 C1491 1.369 . S
C1490 C1494 1.531 . S
C1491 C1490 1.369 . S
C1491 C1492 1.410 . S
C1491 C1499 1.503 . S
C1492 C1491 1.410 . S
C1492 C1493 1.405 . S
C1492 C1495 1.511 1_554 S
C1493 C1489 1.390 . S
C1493 C1492 1.405 . S
C1493 H1505 0.901 1_554 S
C1494 C1490 1.531 . S
C1494 H1506 0.960 . S
C1494 H1507 0.962 . S
C1494 H1508 0.960 . S
C1495 C1492 1.511 1_556 S
C1495 H1509 0.961 . S
C1495 H1510 0.961 1_556 S
C1495 H1511 0.961 . S
C1496 C1497 1.370 1_565 S
C1496 C1498 1.363 . S
C1496 H1512 0.931 . S
C1497 C1496 1.370 1_545 S
C1497 C1501 1.408 . S
C1498 C1496 1.363 . S
C1498 C1499 1.370 . S
C1498 C1502 1.524 . S
C1499 C1491 1.503 . S
C1499 C1498 1.370 . S
C1499 C1500 1.403 1_565 S
C1500 C1499 1.403 1_545 S
C1500 C1501 1.404 . S
C1500 C1503 1.539 . S
C1501 C1497 1.408 . S
C1501 C1500 1.404 . S
C1501 H1513 0.930 . S
C1502 C1498 1.524 . S
C1502 H1514 0.956 . S
C1502 H1515 0.961 . S
C1502 H1516 0.961 . S
C1503 C1500 1.539 . S
C1503 H1517 0.958 . S
C1503 H1518 0.961 . S
C1503 H1519 0.960 . S
H1504 C1488 0.931 . S
H1505 C1493 0.901 1_556 S
H1506 C1494 0.960 . S
H1507 C1494 0.962 . S
H1508 C1494 0.960 . S
H1509 C1495 0.961 . S
H1510 C1495 0.961 1_554 S
H1511 C1495 0.961 . S
H1512 C1496 0.931 . S
H1513 C1501 0.930 . S
H1514 C1502 0.956 . S
H1515 C1502 0.961 . S
H1516 C1502 0.961 . S
H1517 C1503 0.958 . S
H1518 C1503 0.961 . S
H1519 C1503 0.960 . S
C1520 C1521 1.391 . S
C1520 C1522 1.394 . S
C1520 H1536 0.931 . S
C1521 C1520 1.391 . S
C1521 C1525 1.376 . S
C1522 C1520 1.394 . S
C1522 C1523 1.369 . S
C1522 C1526 1.531 . S
C1523 C1522 1.369 . S
C1523 C1524 1.410 . S
C1523 C1531 1.503 . S
C1524 C1523 1.410 . S
C1524 C1525 1.392 . S
C1524 C1527 1.511 . S
C1525 C1521 1.376 . S
C1525 C1524 1.392 . S
C1525 H1537 0.929 . S
C1526 C1522 1.531 . S
C1526 H1538 0.960 . S
C1526 H1539 0.962 . S
C1526 H1540 0.960 . S
C1527 C1524 1.511 . S
C1527 H1541 0.961 . S
C1527 H1542 0.961 . S
C1527 H1543 0.961 . S
C1528 C1529 1.370 . S
C1528 C1530 1.363 . S
C1528 H1544 0.931 . S
C1529 C1528 1.370 . S
C1529 C1533 1.408 . S
C1530 C1528 1.363 . S
C1530 C1531 1.370 . S
C1530 C1534 1.524 . S
C1531 C1523 1.503 . S
C1531 C1530 1.370 . S
C1531 C1532 1.403 . S
C1532 C1531 1.403 . S
C1532 C1533 1.404 . S
C1532 C1535 1.539 . S
C1533 C1529 1.408 . S
C1533 C1532 1.404 . S
C1533 H1545 0.930 . S
C1534 C1530 1.524 . S
C1534 H1546 0.956 1_554 S
C1534 H1547 0.961 . S
C1534 H1548 0.961 1_554 S
C1535 C1532 1.539 . S
C1535 H1549 0.958 . S
C1535 H1550 0.961 . S
C1535 H1551 0.960 . S
H1536 C1520 0.931 . S
H1537 C1525 0.929 . S
H1538 C1526 0.960 . S
H1539 C1526 0.962 . S
H1540 C1526 0.960 . S
H1541 C1527 0.961 . S
H1542 C1527 0.961 . S
H1543 C1527 0.961 . S
H1544 C1528 0.931 . S
H1545 C1533 0.930 . S
H1546 C1534 0.956 1_556 S
H1547 C1534 0.961 . S
H1548 C1534 0.961 1_556 S
H1549 C1535 0.958 . S
H1550 C1535 0.961 . S
H1551 C1535 0.960 . S
C1552 C1553 1.391 . S
C1552 C1554 1.394 . S
C1552 H1568 0.931 . S
C1553 C1552 1.391 . S
C1553 C1557 1.376 . S
C1554 C1552 1.394 . S
C1554 C1555 1.369 . S
C1554 C1558 1.531 . S
C1555 C1554 1.369 . S
C1555 C1556 1.410 . S
C1555 C1563 1.503 . S
C1556 C1555 1.410 . S
C1556 C1557 1.392 . S
C1556 C1559 1.511 . S
C1557 C1553 1.376 . S
C1557 C1556 1.392 . S
C1557 H1569 0.929 . S
C1558 C1554 1.531 . S
C1558 H1570 0.960 . S
C1558 H1571 0.962 . S
C1558 H1572 0.960 . S
C1559 C1556 1.511 . S
C1559 H1573 0.961 . S
C1559 H1574 0.961 . S
C1559 H1575 0.961 . S
C1560 C1561 1.370 . S
C1560 C1562 1.363 . S
C1560 H1576 0.931 . S
C1561 C1560 1.370 . S
C1561 C1565 1.408 . S
C1562 C1560 1.363 . S
C1562 C1563 1.370 . S
C1562 C1566 1.524 . S
C1563 C1555 1.503 . S
C1563 C1562 1.370 . S
C1563 C1564 1.403 . S
C1564 C1563 1.403 . S
C1564 C1565 1.404 . S
C1564 C1567 1.539 . S
C1565 C1561 1.408 . S
C1565 C1564 1.404 . S
C1565 H1577 0.930 . S
C1566 C1562 1.524 . S
C1566 H1578 0.956 . S
C1566 H1579 0.961 . S
C1566 H1580 0.961 . S
C1567 C1564 1.539 . S
C1567 H1581 0.958 . S
C1567 H1582 0.961 . S
C1567 H1583 0.960 . S
H1568 C1552 0.931 . S
H1569 C1557 0.929 . S
H1570 C1558 0.960 . S
H1571 C1558 0.962 . S
H1572 C1558 0.960 . S
H1573 C1559 0.961 . S
H1574 C1559 0.961 . S
H1575 C1559 0.961 . S
H1576 C1560 0.931 . S
H1577 C1565 0.930 . S
H1578 C1566 0.956 . S
H1579 C1566 0.961 . S
H1580 C1566 0.961 . S
H1581 C1567 0.958 . S
H1582 C1567 0.961 . S
H1583 C1567 0.960 . S
C1584 C1585 1.391 . S
C1584 C1586 1.394 . S
C1584 H1600 0.931 . S
C1585 C1584 1.391 . S
C1585 C1589 1.376 . S
C1586 C1584 1.394 . S
C1586 C1587 1.369 . S
C1586 C1590 1.531 . S
C1587 C1586 1.369 . S
C1587 C1588 1.410 . S
C1587 C1595 1.503 . S
C1588 C1587 1.410 . S
C1588 C1589 1.392 . S
C1588 C1591 1.511 . S
C1589 C1585 1.376 . S
C1589 C1588 1.392 . S
C1589 H1601 0.929 . S
C1590 C1586 1.531 . S
C1590 H1602 0.960 . S
C1590 H1603 0.962 . S
C1590 H1604 0.960 . S
C1591 C1588 1.511 . S
C1591 H1605 0.961 . S
C1591 H1606 0.961 . S
C1591 H1607 0.961 . S
C1592 C1593 1.370 . S
C1592 C1594 1.363 . S
C1592 H1608 0.931 . S
C1593 C1592 1.370 . S
C1593 C1597 1.408 . S
C1594 C1592 1.363 . S
C1594 C1595 1.370 . S
C1594 C1598 1.524 . S
C1595 C1587 1.503 . S
C1595 C1594 1.370 . S
C1595 C1596 1.403 . S
C1596 C1595 1.403 . S
C1596 C1597 1.404 . S
C1596 C1599 1.539 . S
C1597 C1593 1.408 . S
C1597 C1596 1.404 . S
C1597 H1609 0.930 . S
C1598 C1594 1.524 . S
C1598 H1610 0.956 . S
C1598 H1611 0.961 . S
C1598 H1612 0.961 . S
C1599 C1596 1.539 . S
C1599 H1613 0.958 . S
C1599 H1614 0.961 . S
C1599 H1615 0.960 . S
H1600 C1584 0.931 . S
H1601 C1589 0.929 . S
H1602 C1590 0.960 . S
H1603 C1590 0.962 . S
H1604 C1590 0.960 . S
H1605 C1591 0.961 . S
H1606 C1591 0.961 . S
H1607 C1591 0.961 . S
H1608 C1592 0.931 . S
H1609 C1597 0.930 . S
H1610 C1598 0.956 . S
H1611 C1598 0.961 . S
H1612 C1598 0.961 . S
H1613 C1599 0.958 . S
H1614 C1599 0.961 . S
H1615 C1599 0.960 . S
C1616 C1617 1.391 . S
C1616 C1618 1.394 . S
C1616 H1632 0.931 . S
C1617 C1616 1.391 . S
C1617 C1621 1.376 . S
C1618 C1616 1.394 . S
C1618 C1619 1.369 . S
C1618 C1622 1.531 . S
C1619 C1618 1.369 . S
C1619 C1620 1.410 . S
C1619 C1627 1.503 . S
C1620 C1619 1.410 . S
C1620 C1621 1.392 . S
C1620 C1623 1.511 . S
C1621 C1617 1.376 . S
C1621 C1620 1.392 . S
C1621 H1633 0.929 . S
C1622 C1618 1.531 . S
C1622 H1634 0.960 . S
C1622 H1635 0.962 . S
C1622 H1636 0.960 . S
C1623 C1620 1.511 . S
C1623 H1637 0.961 . S
C1623 H1638 0.961 . S
C1623 H1639 0.961 . S
C1624 C1625 1.370 . S
C1624 C1626 1.363 . S
C1624 H1640 0.931 . S
C1625 C1624 1.370 . S
C1625 C1629 1.408 . S
C1626 C1624 1.363 . S
C1626 C1627 1.370 . S
C1626 C1630 1.524 . S
C1627 C1619 1.503 . S
C1627 C1626 1.370 . S
C1627 C1628 1.403 . S
C1628 C1627 1.403 . S
C1628 C1629 1.404 . S
C1628 C1631 1.539 . S
C1629 C1625 1.408 . S
C1629 C1628 1.404 . S
C1629 H1641 0.930 . S
C1630 C1626 1.524 . S
C1630 H1642 0.956 . S
C1630 H1643 0.961 . S
C1630 H1644 0.961 . S
C1631 C1628 1.539 . S
C1631 H1645 0.958 . S
C1631 H1646 0.961 . S
C1631 H1647 0.960 . S
H1632 C1616 0.931 . S
H1633 C1621 0.929 . S
H1634 C1622 0.960 . S
H1635 C1622 0.962 . S
H1636 C1622 0.960 . S
H1637 C1623 0.961 . S
H1638 C1623 0.961 . S
H1639 C1623 0.961 . S
H1640 C1624 0.931 . S
H1641 C1629 0.930 . S
H1642 C1630 0.956 . S
H1643 C1630 0.961 . S
H1644 C1630 0.961 . S
H1645 C1631 0.958 . S
H1646 C1631 0.961 . S
H1647 C1631 0.960 . S
C1648 C1649 1.391 . S
C1648 C1650 1.394 . S
C1648 H1664 0.931 . S
C1649 C1648 1.391 . S
C1649 C1653 1.376 . S
C1650 C1648 1.394 . S
C1650 C1651 1.369 . S
C1650 C1654 1.531 . S
C1651 C1650 1.369 . S
C1651 C1652 1.410 . S
C1651 C1659 1.503 . S
C1652 C1651 1.410 . S
C1652 C1653 1.392 . S
C1652 C1655 1.511 . S
C1653 C1649 1.376 . S
C1653 C1652 1.392 . S
C1653 H1665 0.929 . S
C1654 C1650 1.531 . S
C1654 H1666 0.960 . S
C1654 H1667 0.962 . S
C1654 H1668 0.960 . S
C1655 C1652 1.511 . S
C1655 H1669 0.961 . S
C1655 H1670 0.961 . S
C1655 H1671 0.961 . S
C1656 C1657 1.370 . S
C1656 C1658 1.363 . S
C1656 H1672 0.931 . S
C1657 C1656 1.370 . S
C1657 C1661 1.408 . S
C1658 C1656 1.363 . S
C1658 C1659 1.370 . S
C1658 C1662 1.524 . S
C1659 C1651 1.503 . S
C1659 C1658 1.370 . S
C1659 C1660 1.403 . S
C1660 C1659 1.403 . S
C1660 C1661 1.404 . S
C1660 C1663 1.539 . S
C1661 C1657 1.408 . S
C1661 C1660 1.404 . S
C1661 H1673 0.930 . S
C1662 C1658 1.524 . S
C1662 H1674 0.956 . S
C1662 H1675 0.961 . S
C1662 H1676 0.961 . S
C1663 C1660 1.539 . S
C1663 H1677 0.958 . S
C1663 H1678 0.961 . S
C1663 H1679 0.960 . S
H1664 C1648 0.931 . S
H1665 C1653 0.929 . S
H1666 C1654 0.960 . S
H1667 C1654 0.962 . S
H1668 C1654 0.960 . S
H1669 C1655 0.961 . S
H1670 C1655 0.961 . S
H1671 C1655 0.961 . S
H1672 C1656 0.931 . S
H1673 C1661 0.930 . S
H1674 C1662 0.956 . S
H1675 C1662 0.961 . S
H1676 C1662 0.961 . S
H1677 C1663 0.958 . S
H1678 C1663 0.961 . S
H1679 C1663 0.960 . S
C1680 C1681 1.391 . S
C1680 C1682 1.394 . S
C1680 H1696 0.931 . S
C1681 C1680 1.391 . S
C1681 C1685 1.376 . S
C1682 C1680 1.394 . S
C1682 C1683 1.369 . S
C1682 C1686 1.531 . S
C1683 C1682 1.369 . S
C1683 C1684 1.410 . S
C1683 C1691 1.503 . S
C1684 C1683 1.410 . S
C1684 C1685 1.392 . S
C1684 C1687 1.511 . S
C1685 C1681 1.376 . S
C1685 C1684 1.392 . S
C1685 H1697 0.929 . S
C1686 C1682 1.531 . S
C1686 H1698 0.960 . S
C1686 H1699 0.962 . S
C1686 H1700 0.960 . S
C1687 C1684 1.511 . S
C1687 H1701 0.961 . S
C1687 H1702 0.961 . S
C1687 H1703 0.961 . S
C1688 C1689 1.370 . S
C1688 C1690 1.363 . S
C1688 H1704 0.931 . S
C1689 C1688 1.370 . S
C1689 C1693 1.408 . S
C1690 C1688 1.363 . S
C1690 C1691 1.370 . S
C1690 C1694 1.524 . S
C1691 C1683 1.503 . S
C1691 C1690 1.370 . S
C1691 C1692 1.403 . S
C1692 C1691 1.403 . S
C1692 C1693 1.404 . S
C1692 C1695 1.539 . S
C1693 C1689 1.408 . S
C1693 C1692 1.404 . S
C1693 H1705 0.930 . S
C1694 C1690 1.524 . S
C1694 H1706 0.956 . S
C1694 H1707 0.961 . S
C1694 H1708 0.961 . S
C1695 C1692 1.539 . S
C1695 H1709 0.958 . S
C1695 H1710 0.961 . S
C1695 H1711 0.960 . S
H1696 C1680 0.931 . S
H1697 C1685 0.929 . S
H1698 C1686 0.960 . S
H1699 C1686 0.962 . S
H1700 C1686 0.960 . S
H1701 C1687 0.961 . S
H1702 C1687 0.961 . S
H1703 C1687 0.961 . S
H1704 C1688 0.931 . S
H1705 C1693 0.930 . S
H1706 C1694 0.956 . S
H1707 C1694 0.961 . S
H1708 C1694 0.961 . S
H1709 C1695 0.958 . S
H1710 C1695 0.961 . S
H1711 C1695 0.960 . S
C1712 C1713 1.391 . S
C1712 C1714 1.394 . S
C1712 H1728 0.931 . S
C1713 C1712 1.391 . S
C1713 C1717 1.376 . S
C1714 C1712 1.394 . S
C1714 C1715 1.369 . S
C1714 C1718 1.531 . S
C1715 C1714 1.369 . S
C1715 C1716 1.410 . S
C1715 C1723 1.503 . S
C1716 C1715 1.410 . S
C1716 C1717 1.392 . S
C1716 C1719 1.511 . S
C1717 C1713 1.376 . S
C1717 C1716 1.392 . S
C1717 H1729 0.929 . S
C1718 C1714 1.531 . S
C1718 H1730 0.960 . S
C1718 H1731 0.962 . S
C1718 H1732 0.960 . S
C1719 C1716 1.511 . S
C1719 H1733 0.961 . S
C1719 H1734 0.961 . S
C1719 H1735 0.961 . S
C1720 C1721 1.370 . S
C1720 C1722 1.363 . S
C1720 H1736 0.931 . S
C1721 C1720 1.370 . S
C1721 C1725 1.408 . S
C1722 C1720 1.363 . S
C1722 C1723 1.370 . S
C1722 C1726 1.524 . S
C1723 C1715 1.503 . S
C1723 C1722 1.370 . S
C1723 C1724 1.403 . S
C1724 C1723 1.403 . S
C1724 C1725 1.404 . S
C1724 C1727 1.539 . S
C1725 C1721 1.408 . S
C1725 C1724 1.404 . S
C1725 H1737 0.930 . S
C1726 C1722 1.524 . S
C1726 H1738 0.956 . S
C1726 H1739 0.961 . S
C1726 H1740 0.961 . S
C1727 C1724 1.539 . S
C1727 H1741 0.958 . S
C1727 H1742 0.961 . S
C1727 H1743 0.960 . S
H1728 C1712 0.931 . S
H1729 C1717 0.929 . S
H1730 C1718 0.960 . S
H1731 C1718 0.962 . S
H1732 C1718 0.960 . S
H1733 C1719 0.961 . S
H1734 C1719 0.961 . S
H1735 C1719 0.961 . S
H1736 C1720 0.931 . S
H1737 C1725 0.930 . S
H1738 C1726 0.956 . S
H1739 C1726 0.961 . S
H1740 C1726 0.961 . S
H1741 C1727 0.958 . S
H1742 C1727 0.961 . S
H1743 C1727 0.960 . S
C1744 C1745 1.391 . S
C1744 C1746 1.394 . S
C1744 H1760 0.931 . S
C1745 C1744 1.391 . S
C1745 C1749 1.376 . S
C1746 C1744 1.394 . S
C1746 C1747 1.369 . S
C1746 C1750 1.531 . S
C1747 C1746 1.369 . S
C1747 C1748 1.410 . S
C1747 C1755 1.503 . S
C1748 C1747 1.410 . S
C1748 C1749 1.392 . S
C1748 C1751 1.511 . S
C1749 C1745 1.376 . S
C1749 C1748 1.392 . S
C1749 H1761 0.929 . S
C1750 C1746 1.531 . S
C1750 H1762 0.960 . S
C1750 H1763 0.962 . S
C1750 H1764 0.960 . S
C1751 C1748 1.511 . S
C1751 H1765 0.961 . S
C1751 H1766 0.961 . S
C1751 H1767 0.961 . S
C1752 C1753 1.370 . S
C1752 C1754 1.363 . S
C1752 H1768 0.931 . S
C1753 C1752 1.370 . S
C1753 C1757 1.408 . S
C1754 C1752 1.363 . S
C1754 C1755 1.370 . S
C1754 C1758 1.524 . S
C1755 C1747 1.503 . S
C1755 C1754 1.370 . S
C1755 C1756 1.403 . S
C1756 C1755 1.403 . S
C1756 C1757 1.404 . S
C1756 C1759 1.539 . S
C1757 C1753 1.408 . S
C1757 C1756 1.404 . S
C1757 H1769 0.930 . S
C1758 C1754 1.524 . S
C1758 H1770 0.956 . S
C1758 H1771 0.961 . S
C1758 H1772 0.961 . S
C1759 C1756 1.539 . S
C1759 H1773 0.958 . S
C1759 H1774 0.961 . S
C1759 H1775 0.960 . S
H1760 C1744 0.931 . S
H1761 C1749 0.929 . S
H1762 C1750 0.960 . S
H1763 C1750 0.962 . S
H1764 C1750 0.960 . S
H1765 C1751 0.961 . S
H1766 C1751 0.961 . S
H1767 C1751 0.961 . S
H1768 C1752 0.931 . S
H1769 C1757 0.930 . S
H1770 C1758 0.956 . S
H1771 C1758 0.961 . S
H1772 C1758 0.961 . S
H1773 C1759 0.958 . S
H1774 C1759 0.961 . S
H1775 C1759 0.960 . S
C1776 C1777 1.391 . S
C1776 C1778 1.394 . S
C1776 H1792 0.931 . S
C1777 C1776 1.391 . S
C1777 C1781 1.376 . S
C1778 C1776 1.394 . S
C1778 C1779 1.369 . S
C1778 C1782 1.531 . S
C1779 C1778 1.369 . S
C1779 C1780 1.410 . S
C1779 C1787 1.503 . S
C1780 C1779 1.410 . S
C1780 C1781 1.392 . S
C1780 C1783 1.511 . S
C1781 C1777 1.376 . S
C1781 C1780 1.392 . S
C1781 H1793 0.929 . S
C1782 C1778 1.531 . S
C1782 H1794 0.960 . S
C1782 H1795 0.962 . S
C1782 H1796 0.960 . S
C1783 C1780 1.511 . S
C1783 H1797 0.961 . S
C1783 H1798 0.961 . S
C1783 H1799 0.961 . S
C1784 C1785 1.370 . S
C1784 C1786 1.363 . S
C1784 H1800 0.931 . S
C1785 C1784 1.370 . S
C1785 C1789 1.408 . S
C1786 C1784 1.363 . S
C1786 C1787 1.370 . S
C1786 C1790 1.524 . S
C1787 C1779 1.503 . S
C1787 C1786 1.370 . S
C1787 C1788 1.403 . S
C1788 C1787 1.403 . S
C1788 C1789 1.404 . S
C1788 C1791 1.539 . S
C1789 C1785 1.408 . S
C1789 C1788 1.404 . S
C1789 H1801 0.930 . S
C1790 C1786 1.524 . S
C1790 H1802 0.956 . S
C1790 H1803 0.961 . S
C1790 H1804 0.961 . S
C1791 C1788 1.539 . S
C1791 H1805 0.958 . S
C1791 H1806 0.961 . S
C1791 H1807 0.960 . S
H1792 C1776 0.931 . S
H1793 C1781 0.929 . S
H1794 C1782 0.960 . S
H1795 C1782 0.962 . S
H1796 C1782 0.960 . S
H1797 C1783 0.961 . S
H1798 C1783 0.961 . S
H1799 C1783 0.961 . S
H1800 C1784 0.931 . S
H1801 C1789 0.930 . S
H1802 C1790 0.956 . S
H1803 C1790 0.961 . S
H1804 C1790 0.961 . S
H1805 C1791 0.958 . S
H1806 C1791 0.961 . S
H1807 C1791 0.960 . S
C1808 C1809 1.391 . S
C1808 C1810 1.394 . S
C1808 H1824 0.931 . S
C1809 C1808 1.391 . S
C1809 C1813 1.376 . S
C1810 C1808 1.394 . S
C1810 C1811 1.369 . S
C1810 C1814 1.531 . S
C1811 C1810 1.369 . S
C1811 C1812 1.410 . S
C1811 C1819 1.503 . S
C1812 C1811 1.410 . S
C1812 C1813 1.392 . S
C1812 C1815 1.511 . S
C1813 C1809 1.376 . S
C1813 C1812 1.392 . S
C1813 H1825 0.929 . S
C1814 C1810 1.531 . S
C1814 H1826 0.960 . S
C1814 H1827 0.962 . S
C1814 H1828 0.960 . S
C1815 C1812 1.511 . S
C1815 H1829 0.961 . S
C1815 H1830 0.961 . S
C1815 H1831 0.961 . S
C1816 C1817 1.370 . S
C1816 C1818 1.363 . S
C1816 H1832 0.931 . S
C1817 C1816 1.370 . S
C1817 C1821 1.408 . S
C1818 C1816 1.363 . S
C1818 C1819 1.370 . S
C1818 C1822 1.524 . S
C1819 C1811 1.503 . S
C1819 C1818 1.370 . S
C1819 C1820 1.403 . S
C1820 C1819 1.403 . S
C1820 C1821 1.404 . S
C1820 C1823 1.539 . S
C1821 C1817 1.408 . S
C1821 C1820 1.404 . S
C1821 H1833 0.930 . S
C1822 C1818 1.524 . S
C1822 H1834 0.956 . S
C1822 H1835 0.961 . S
C1822 H1836 0.961 . S
C1823 C1820 1.539 . S
C1823 H1837 0.958 . S
C1823 H1838 0.961 . S
C1823 H1839 0.960 . S
H1824 C1808 0.931 . S
H1825 C1813 0.929 . S
H1826 C1814 0.960 . S
H1827 C1814 0.962 . S
H1828 C1814 0.960 . S
H1829 C1815 0.961 . S
H1830 C1815 0.961 . S
H1831 C1815 0.961 . S
H1832 C1816 0.931 . S
H1833 C1821 0.930 . S
H1834 C1822 0.956 . S
H1835 C1822 0.961 . S
H1836 C1822 0.961 . S
H1837 C1823 0.958 . S
H1838 C1823 0.961 . S
H1839 C1823 0.960 . S
C1840 C1841 1.391 . S
C1840 C1842 1.394 . S
C1840 H1856 0.931 . S
C1841 C1840 1.391 . S
C1841 C1845 1.376 . S
C1842 C1840 1.394 . S
C1842 C1843 1.369 . S
C1842 C1846 1.531 . S
C1843 C1842 1.369 . S
C1843 C1844 1.410 . S
C1843 C1851 1.503 . S
C1844 C1843 1.410 . S
C1844 C1845 1.392 . S
C1844 C1847 1.511 . S
C1845 C1841 1.376 . S
C1845 C1844 1.392 . S
C1845 H1857 0.929 . S
C1846 C1842 1.531 . S
C1846 H1858 0.960 . S
C1846 H1859 0.962 . S
C1846 H1860 0.960 . S
C1847 C1844 1.511 . S
C1847 H1861 0.961 . S
C1847 H1862 0.961 . S
C1847 H1863 0.961 . S
C1848 C1849 1.370 . S
C1848 C1850 1.363 . S
C1848 H1864 0.931 . S
C1849 C1848 1.370 . S
C1849 C1853 1.408 . S
C1850 C1848 1.363 . S
C1850 C1851 1.370 . S
C1850 C1854 1.524 . S
C1851 C1843 1.503 . S
C1851 C1850 1.370 . S
C1851 C1852 1.403 . S
C1852 C1851 1.403 . S
C1852 C1853 1.404 . S
C1852 C1855 1.539 . S
C1853 C1849 1.408 . S
C1853 C1852 1.404 . S
C1853 H1865 0.930 . S
C1854 C1850 1.524 . S
C1854 H1866 0.956 . S
C1854 H1867 0.961 . S
C1854 H1868 0.961 . S
C1855 C1852 1.539 . S
C1855 H1869 0.958 . S
C1855 H1870 0.961 . S
C1855 H1871 0.960 . S
H1856 C1840 0.931 . S
H1857 C1845 0.929 . S
H1858 C1846 0.960 . S
H1859 C1846 0.962 . S
H1860 C1846 0.960 . S
H1861 C1847 0.961 . S
H1862 C1847 0.961 . S
H1863 C1847 0.961 . S
H1864 C1848 0.931 . S
H1865 C1853 0.930 . S
H1866 C1854 0.956 . S
H1867 C1854 0.961 . S
H1868 C1854 0.961 . S
H1869 C1855 0.958 . S
H1870 C1855 0.961 . S
H1871 C1855 0.960 . S
C1872 C1873 1.391 . S
C1872 C1874 1.394 . S
C1872 H1888 0.931 . S
C1873 C1872 1.391 . S
C1873 C1877 1.376 . S
C1874 C1872 1.394 . S
C1874 C1875 1.369 . S
C1874 C1878 1.531 . S
C1875 C1874 1.369 . S
C1875 C1876 1.410 . S
C1875 C1883 1.503 . S
C1876 C1875 1.410 . S
C1876 C1877 1.392 . S
C1876 C1879 1.511 1_455 S
C1877 C1873 1.376 . S
C1877 C1876 1.392 . S
C1877 H1889 0.929 1_455 S
C1878 C1874 1.531 . S
C1878 H1890 0.960 . S
C1878 H1891 0.962 . S
C1878 H1892 0.960 . S
C1879 C1876 1.511 1_655 S
C1879 H1893 0.961 . S
C1879 H1894 0.961 . S
C1879 H1895 0.961 . S
C1880 C1881 1.370 . S
C1880 C1882 1.363 . S
C1880 H1896 0.931 . S
C1881 C1880 1.370 . S
C1881 C1885 1.408 . S
C1882 C1880 1.363 . S
C1882 C1883 1.370 . S
C1882 C1886 1.524 . S
C1883 C1875 1.503 . S
C1883 C1882 1.370 . S
C1883 C1884 1.403 . S
C1884 C1883 1.403 . S
C1884 C1885 1.404 . S
C1884 C1887 1.539 1_455 S
C1885 C1881 1.408 . S
C1885 C1884 1.404 . S
C1885 H1897 0.930 . S
C1886 C1882 1.524 . S
C1886 H1898 0.956 . S
C1886 H1899 0.961 . S
C1886 H1900 0.961 . S
C1887 C1884 1.539 1_655 S
C1887 H1901 0.958 1_655 S
C1887 H1902 0.961 . S
C1887 H1903 0.960 . S
H1888 C1872 0.931 . S
H1889 C1877 0.929 1_655 S
H1890 C1878 0.960 . S
H1891 C1878 0.962 . S
H1892 C1878 0.960 . S
H1893 C1879 0.961 . S
H1894 C1879 0.961 . S
H1895 C1879 0.961 . S
H1896 C1880 0.931 . S
H1897 C1885 0.930 . S
H1898 C1886 0.956 . S
H1899 C1886 0.961 . S
H1900 C1886 0.961 . S
H1901 C1887 0.958 1_455 S
H1902 C1887 0.961 . S
H1903 C1887 0.960 . S
C1904 C1905 1.391 . S
C1904 C1906 1.394 . S
C1904 H1920 0.931 . S
C1905 C1904 1.391 . S
C1905 C1909 1.376 . S
C1906 C1904 1.394 . S
C1906 C1907 1.369 . S
C1906 C1910 1.531 . S
C1907 C1906 1.369 . S
C1907 C1908 1.410 . S
C1907 C1915 1.503 . S
C1908 C1907 1.410 . S
C1908 C1909 1.392 . S
C1908 C1911 1.511 . S
C1909 C1905 1.376 . S
C1909 C1908 1.392 . S
C1909 H1921 0.929 . S
C1910 C1906 1.531 . S
C1910 H1922 0.960 . S
C1910 H1923 0.962 . S
C1910 H1924 0.960 . S
C1911 C1908 1.511 . S
C1911 H1925 0.961 . S
C1911 H1926 0.961 . S
C1911 H1927 0.961 . S
C1912 C1913 1.370 . S
C1912 C1914 1.363 . S
C1912 H1928 0.931 . S
C1913 C1912 1.370 . S
C1913 C1917 1.408 . S
C1914 C1912 1.363 . S
C1914 C1915 1.370 . S
C1914 C1918 1.524 . S
C1915 C1907 1.503 . S
C1915 C1914 1.370 . S
C1915 C1916 1.403 . S
C1916 C1915 1.403 . S
C1916 C1917 1.404 . S
C1916 C1919 1.539 . S
C1917 C1913 1.408 . S
C1917 C1916 1.404 . S
C1917 H1929 0.930 . S
C1918 C1914 1.524 . S
C1918 H1930 0.956 . S
C1918 H1931 0.961 . S
C1918 H1932 0.961 . S
C1919 C1916 1.539 . S
C1919 H1933 0.958 . S
C1919 H1934 0.961 . S
C1919 H1935 0.960 . S
H1920 C1904 0.931 . S
H1921 C1909 0.929 . S
H1922 C1910 0.960 . S
H1923 C1910 0.962 . S
H1924 C1910 0.960 . S
H1925 C1911 0.961 . S
H1926 C1911 0.961 . S
H1927 C1911 0.961 . S
H1928 C1912 0.931 . S
H1929 C1917 0.930 . S
H1930 C1918 0.956 . S
H1931 C1918 0.961 . S
H1932 C1918 0.961 . S
H1933 C1919 0.958 . S
H1934 C1919 0.961 . S
H1935 C1919 0.960 . S
C1936 C1937 1.391 . S
C1936 C1938 1.394 . S
C1936 H1952 0.931 . S
C1937 C1936 1.391 . S
C1937 C1941 1.376 . S
C1938 C1936 1.394 . S
C1938 C1939 1.369 . S
C1938 C1942 1.531 . S
C1939 C1938 1.369 . S
C1939 C1940 1.410 . S
C1939 C1947 1.503 . S
C1940 C1939 1.410 . S
C1940 C1941 1.392 . S
C1940 C1943 1.511 . S
C1941 C1937 1.376 . S
C1941 C1940 1.392 . S
C1941 H1953 0.929 . S
C1942 C1938 1.531 . S
C1942 H1954 0.960 . S
C1942 H1955 0.962 . S
C1942 H1956 0.960 . S
C1943 C1940 1.511 . S
C1943 H1957 0.961 . S
C1943 H1958 0.961 . S
C1943 H1959 0.961 . S
C1944 C1945 1.370 . S
C1944 C1946 1.363 1_554 S
C1944 H1960 0.931 . S
C1945 C1944 1.370 . S
C1945 C1949 1.408 1_554 S
C1946 C1944 1.363 1_556 S
C1946 C1947 1.370 . S
C1946 C1950 1.524 . S
C1947 C1939 1.503 . S
C1947 C1946 1.370 . S
C1947 C1948 1.403 . S
C1948 C1947 1.403 . S
C1948 C1949 1.404 . S
C1948 C1951 1.539 . S
C1949 C1945 1.408 1_556 S
C1949 C1948 1.404 . S
C1949 H1961 0.930 . S
C1950 C1946 1.524 . S
C1950 H1962 0.956 . S
C1950 H1963 0.961 . S
C1950 H1964 0.961 1_556 S
C1951 C1948 1.539 . S
C1951 H1965 0.958 . S
C1951 H1966 0.961 . S
C1951 H1967 0.960 . S
H1952 C1936 0.931 . S
H1953 C1941 0.929 . S
H1954 C1942 0.960 . S
H1955 C1942 0.962 . S
H1956 C1942 0.960 . S
H1957 C1943 0.961 . S
H1958 C1943 0.961 . S
H1959 C1943 0.961 . S
H1960 C1944 0.931 . S
H1961 C1949 0.930 . S
H1962 C1950 0.956 . S
H1963 C1950 0.961 . S
H1964 C1950 0.961 1_554 S
H1965 C1951 0.958 . S
H1966 C1951 0.961 . S
H1967 C1951 0.960 . S
C1968 C1969 1.391 . S
C1968 C1970 1.394 . S
C1968 H1984 0.931 . S
C1969 C1968 1.391 . S
C1969 C1973 1.376 . S
C1970 C1968 1.394 . S
C1970 C1971 1.369 . S
C1970 C1974 1.531 . S
C1971 C1970 1.369 . S
C1971 C1972 1.410 . S
C1971 C1979 1.503 . S
C1972 C1971 1.410 . S
C1972 C1973 1.392 . S
C1972 C1975 1.511 . S
C1973 C1969 1.376 . S
C1973 C1972 1.392 . S
C1973 H1985 0.929 . S
C1974 C1970 1.531 . S
C1974 H1986 0.960 . S
C1974 H1987 0.962 . S
C1974 H1988 0.960 . S
C1975 C1972 1.511 . S
C1975 H1989 0.961 . S
C1975 H1990 0.961 . S
C1975 H1991 0.961 . S
C1976 C1977 1.370 . S
C1976 C1978 1.363 . S
C1976 H1992 0.931 . S
C1977 C1976 1.370 . S
C1977 C1981 1.408 . S
C1978 C1976 1.363 . S
C1978 C1979 1.370 . S
C1978 C1982 1.524 . S
C1979 C1971 1.503 . S
C1979 C1978 1.370 . S
C1979 C1980 1.403 . S
C1980 C1979 1.403 . S
C1980 C1981 1.404 . S
C1980 C1983 1.539 . S
C1981 C1977 1.408 . S
C1981 C1980 1.404 . S
C1981 H1993 0.930 . S
C1982 C1978 1.524 . S
C1982 H1994 0.956 . S
C1982 H1995 0.961 . S
C1982 H1996 0.961 . S
C1983 C1980 1.539 . S
C1983 H1997 0.958 . S
C1983 H1998 0.961 . S
C1983 H1999 0.960 . S
H1984 C1968 0.931 . S
H1985 C1973 0.929 . S
H1986 C1974 0.960 . S
H1987 C1974 0.962 . S
H1988 C1974 0.960 . S
H1989 C1975 0.961 . S
H1990 C1975 0.961 . S
H1991 C1975 0.961 . S
H1992 C1976 0.931 . S
H1993 C1981 0.930 . S
H1994 C1982 0.956 . S
H1995 C1982 0.961 . S
H1996 C1982 0.961 . S
H1997 C1983 0.958 . S
H1998 C1983 0.961 . S
H1999 C1983 0.960 . S
C2000 C2001 1.391 . S
C2000 C2002 1.394 . S
C2000 H2016 0.931 . S
C2001 C2000 1.391 . S
C2001 C2005 1.376 . S
C2002 C2000 1.394 . S
C2002 C2003 1.369 . S
C2002 C2006 1.531 . S
C2003 C2002 1.369 . S
C2003 C2004 1.410 . S
C2003 C2011 1.503 . S
C2004 C2003 1.410 . S
C2004 C2005 1.392 . S
C2004 C2007 1.511 . S
C2005 C2001 1.376 . S
C2005 C2004 1.392 . S
C2005 H2017 0.929 . S
C2006 C2002 1.531 . S
C2006 H2018 0.960 . S
C2006 H2019 0.962 . S
C2006 H2020 0.960 . S
C2007 C2004 1.511 . S
C2007 H2021 0.961 . S
C2007 H2022 0.961 . S
C2007 H2023 0.961 . S
C2008 C2009 1.370 . S
C2008 C2010 1.363 . S
C2008 H2024 0.931 . S
C2009 C2008 1.370 . S
C2009 C2013 1.408 . S
C2010 C2008 1.363 . S
C2010 C2011 1.370 . S
C2010 C2014 1.524 . S
C2011 C2003 1.503 . S
C2011 C2010 1.370 . S
C2011 C2012 1.403 . S
C2012 C2011 1.403 . S
C2012 C2013 1.404 . S
C2012 C2015 1.539 . S
C2013 C2009 1.408 . S
C2013 C2012 1.404 . S
C2013 H2025 0.930 . S
C2014 C2010 1.524 . S
C2014 H2026 0.956 . S
C2014 H2027 0.961 . S
C2014 H2028 0.961 1_545 S
C2015 C2012 1.539 . S
C2015 H2029 0.958 . S
C2015 H2030 0.961 . S
C2015 H2031 0.960 . S
H2016 C2000 0.931 . S
H2017 C2005 0.929 . S
H2018 C2006 0.960 . S
H2019 C2006 0.962 . S
H2020 C2006 0.960 . S
H2021 C2007 0.961 . S
H2022 C2007 0.961 . S
H2023 C2007 0.961 . S
H2024 C2008 0.931 . S
H2025 C2013 0.930 . S
H2026 C2014 0.956 . S
H2027 C2014 0.961 . S
H2028 C2014 0.961 1_565 S
H2029 C2015 0.958 . S
H2030 C2015 0.961 . S
H2031 C2015 0.960 . S
C2032 C2033 1.391 . S
C2032 C2034 1.394 . S
C2032 H2048 0.931 . S
C2033 C2032 1.391 . S
C2033 C2037 1.376 . S
C2034 C2032 1.394 . S
C2034 C2035 1.369 . S
C2034 C2038 1.531 . S
C2035 C2034 1.369 . S
C2035 C2036 1.410 . S
C2035 C2043 1.503 . S
C2036 C2035 1.410 . S
C2036 C2037 1.392 . S
C2036 C2039 1.511 . S
C2037 C2033 1.376 . S
C2037 C2036 1.392 . S
C2037 H2049 0.929 . S
C2038 C2034 1.531 . S
C2038 H2050 0.960 . S
C2038 H2051 0.962 . S
C2038 H2052 0.960 . S
C2039 C2036 1.511 . S
C2039 H2053 0.961 . S
C2039 H2054 0.961 . S
C2039 H2055 0.961 . S
C2040 C2041 1.370 . S
C2040 C2042 1.363 . S
C2040 H2056 0.931 . S
C2041 C2040 1.370 . S
C2041 C2045 1.408 . S
C2042 C2040 1.363 . S
C2042 C2043 1.370 . S
C2042 C2046 1.524 . S
C2043 C2035 1.503 . S
C2043 C2042 1.370 . S
C2043 C2044 1.403 . S
C2044 C2043 1.403 . S
C2044 C2045 1.404 . S
C2044 C2047 1.539 . S
C2045 C2041 1.408 . S
C2045 C2044 1.404 . S
C2045 H2057 0.930 . S
C2046 C2042 1.524 . S
C2046 H2058 0.956 . S
C2046 H2059 0.961 . S
C2046 H2060 0.961 . S
C2047 C2044 1.539 . S
C2047 H2061 0.958 . S
C2047 H2062 0.961 . S
C2047 H2063 0.960 . S
H2048 C2032 0.931 . S
H2049 C2037 0.929 . S
H2050 C2038 0.960 . S
H2051 C2038 0.962 . S
H2052 C2038 0.960 . S
H2053 C2039 0.961 . S
H2054 C2039 0.961 . S
H2055 C2039 0.961 . S
H2056 C2040 0.931 . S
H2057 C2045 0.930 . S
H2058 C2046 0.956 . S
H2059 C2046 0.961 . S
H2060 C2046 0.961 . S
H2061 C2047 0.958 . S
H2062 C2047 0.961 . S
H2063 C2047 0.960 . S
C2064 C2065 1.391 1_565 S
C2064 C2066 1.394 . S
C2064 H2080 0.931 . S
C2065 C2064 1.391 1_545 S
C2065 C2069 1.376 . S
C2066 C2064 1.394 . S
C2066 C2067 1.369 1_565 S
C2066 C2070 1.531 . S
C2067 C2066 1.369 1_545 S
C2067 C2068 1.410 . S
C2067 C2075 1.503 . S
C2068 C2067 1.410 . S
C2068 C2069 1.392 . S
C2068 C2071 1.511 . S
C2069 C2065 1.376 . S
C2069 C2068 1.392 . S
C2069 H2081 0.929 . S
C2070 C2066 1.531 . S
C2070 H2082 0.960 . S
C2070 H2083 0.962 . S
C2070 H2084 0.960 . S
C2071 C2068 1.511 . S
C2071 H2085 0.961 . S
C2071 H2086 0.961 . S
C2071 H2087 0.961 . S
C2072 C2073 1.370 . S
C2072 C2074 1.363 . S
C2072 H2088 0.931 . S
C2073 C2072 1.370 . S
C2073 C2077 1.408 . S
C2074 C2072 1.363 . S
C2074 C2075 1.370 . S
C2074 C2078 1.524 . S
C2075 C2067 1.503 . S
C2075 C2074 1.370 . S
C2075 C2076 1.403 . S
C2076 C2075 1.403 . S
C2076 C2077 1.404 . S
C2076 C2079 1.539 . S
C2077 C2073 1.408 . S
C2077 C2076 1.404 . S
C2077 H2089 0.930 . S
C2078 C2074 1.524 . S
C2078 H2090 0.956 . S
C2078 H2091 0.961 . S
C2078 H2092 0.961 . S
C2079 C2076 1.539 . S
C2079 H2093 0.958 1_545 S
C2079 H2094 0.961 . S
C2079 H2095 0.960 . S
H2080 C2064 0.931 . S
H2081 C2069 0.929 . S
H2082 C2070 0.960 . S
H2083 C2070 0.962 . S
H2084 C2070 0.960 . S
H2085 C2071 0.961 . S
H2086 C2071 0.961 . S
H2087 C2071 0.961 . S
H2088 C2072 0.931 . S
H2089 C2077 0.930 . S
H2090 C2078 0.956 . S
H2091 C2078 0.961 . S
H2092 C2078 0.961 . S
H2093 C2079 0.958 1_565 S
H2094 C2079 0.961 . S
H2095 C2079 0.960 . S
C2096 C2097 1.391 . S
C2096 C2098 1.394 . S
C2096 H2112 0.931 . S
C2097 C2096 1.391 . S
C2097 C2101 1.376 . S
C2098 C2096 1.394 . S
C2098 C2099 1.369 . S
C2098 C2102 1.531 . S
C2099 C2098 1.369 . S
C2099 C2100 1.410 . S
C2099 C2107 1.503 . S
C2100 C2099 1.410 . S
C2100 C2101 1.392 . S
C2100 C2103 1.511 . S
C2101 C2097 1.376 . S
C2101 C2100 1.392 . S
C2101 H2113 0.929 . S
C2102 C2098 1.531 . S
C2102 H2114 0.960 . S
C2102 H2115 0.962 . S
C2102 H2116 0.960 . S
C2103 C2100 1.511 . S
C2103 H2117 0.961 . S
C2103 H2118 0.961 . S
C2103 H2119 0.961 . S
C2104 C2105 1.370 . S
C2104 C2106 1.363 . S
C2104 H2120 0.931 . S
C2105 C2104 1.370 . S
C2105 C2109 1.408 . S
C2106 C2104 1.363 . S
C2106 C2107 1.370 . S
C2106 C2110 1.524 . S
C2107 C2099 1.503 . S
C2107 C2106 1.370 . S
C2107 C2108 1.403 . S
C2108 C2107 1.403 . S
C2108 C2109 1.404 . S
C2108 C2111 1.539 . S
C2109 C2105 1.408 . S
C2109 C2108 1.404 . S
C2109 H2121 0.930 . S
C2110 C2106 1.524 . S
C2110 H2122 0.956 . S
C2110 H2123 0.961 . S
C2110 H2124 0.961 . S
C2111 C2108 1.539 . S
C2111 H2125 0.958 . S
C2111 H2126 0.961 . S
C2111 H2127 0.960 . S
H2112 C2096 0.931 . S
H2113 C2101 0.929 . S
H2114 C2102 0.960 . S
H2115 C2102 0.962 . S
H2116 C2102 0.960 . S
H2117 C2103 0.961 . S
H2118 C2103 0.961 . S
H2119 C2103 0.961 . S
H2120 C2104 0.931 . S
H2121 C2109 0.930 . S
H2122 C2110 0.956 . S
H2123 C2110 0.961 . S
H2124 C2110 0.961 . S
H2125 C2111 0.958 . S
H2126 C2111 0.961 . S
H2127 C2111 0.960 . S
C2128 C2129 1.391 . S
C2128 C2130 1.394 . S
C2128 H2144 0.931 . S
C2129 C2128 1.391 . S
C2129 C2133 1.376 . S
C2130 C2128 1.394 . S
C2130 C2131 1.369 . S
C2130 C2134 1.531 . S
C2131 C2130 1.369 . S
C2131 C2132 1.410 . S
C2131 C2139 1.503 . S
C2132 C2131 1.410 . S
C2132 C2133 1.392 . S
C2132 C2135 1.511 . S
C2133 C2129 1.376 . S
C2133 C2132 1.392 . S
C2133 H2145 0.929 . S
C2134 C2130 1.531 . S
C2134 H2146 0.960 . S
C2134 H2147 0.962 . S
C2134 H2148 0.960 . S
C2135 C2132 1.511 . S
C2135 H2149 0.961 . S
C2135 H2150 0.961 . S
C2135 H2151 0.961 . S
C2136 C2137 1.370 . S
C2136 C2138 1.363 . S
C2136 H2152 0.931 . S
C2137 C2136 1.370 . S
C2137 C2141 1.408 . S
C2138 C2136 1.363 . S
C2138 C2139 1.370 . S
C2138 C2142 1.524 . S
C2139 C2131 1.503 . S
C2139 C2138 1.370 . S
C2139 C2140 1.403 . S
C2140 C2139 1.403 . S
C2140 C2141 1.404 . S
C2140 C2143 1.539 . S
C2141 C2137 1.408 . S
C2141 C2140 1.404 . S
C2141 H2153 0.930 . S
C2142 C2138 1.524 . S
C2142 H2154 0.956 . S
C2142 H2155 0.961 . S
C2142 H2156 0.961 1_545 S
C2143 C2140 1.539 . S
C2143 H2157 0.958 . S
C2143 H2158 0.961 . S
C2143 H2159 0.960 . S
H2144 C2128 0.931 . S
H2145 C2133 0.929 . S
H2146 C2134 0.960 . S
H2147 C2134 0.962 . S
H2148 C2134 0.960 . S
H2149 C2135 0.961 . S
H2150 C2135 0.961 . S
H2151 C2135 0.961 . S
H2152 C2136 0.931 . S
H2153 C2141 0.930 . S
H2154 C2142 0.956 . S
H2155 C2142 0.961 . S
H2156 C2142 0.961 1_565 S
H2157 C2143 0.958 . S
H2158 C2143 0.961 . S
H2159 C2143 0.960 . S
C2160 C2161 1.391 . S
C2160 C2162 1.394 . S
C2160 H2176 0.931 . S
C2161 C2160 1.391 . S
C2161 C2165 1.376 . S
C2162 C2160 1.394 . S
C2162 C2163 1.369 . S
C2162 C2166 1.531 . S
C2163 C2162 1.369 . S
C2163 C2164 1.410 . S
C2163 C2171 1.503 . S
C2164 C2163 1.410 . S
C2164 C2165 1.392 . S
C2164 C2167 1.511 . S
C2165 C2161 1.376 . S
C2165 C2164 1.392 . S
C2165 H2177 0.929 . S
C2166 C2162 1.531 . S
C2166 H2178 0.960 . S
C2166 H2179 0.962 . S
C2166 H2180 0.960 . S
C2167 C2164 1.511 . S
C2167 H2181 0.961 . S
C2167 H2182 0.961 . S
C2167 H2183 0.961 . S
C2168 C2169 1.370 . S
C2168 C2170 1.363 . S
C2168 H2184 0.931 . S
C2169 C2168 1.370 . S
C2169 C2173 1.408 . S
C2170 C2168 1.363 . S
C2170 C2171 1.370 . S
C2170 C2174 1.524 . S
C2171 C2163 1.503 . S
C2171 C2170 1.370 . S
C2171 C2172 1.403 . S
C2172 C2171 1.403 . S
C2172 C2173 1.404 . S
C2172 C2175 1.539 . S
C2173 C2169 1.408 . S
C2173 C2172 1.404 . S
C2173 H2185 0.930 . S
C2174 C2170 1.524 . S
C2174 H2186 0.956 . S
C2174 H2187 0.961 . S
C2174 H2188 0.961 . S
C2175 C2172 1.539 . S
C2175 H2189 0.958 . S
C2175 H2190 0.961 . S
C2175 H2191 0.960 . S
H2176 C2160 0.931 . S
H2177 C2165 0.929 . S
H2178 C2166 0.960 . S
H2179 C2166 0.962 . S
H2180 C2166 0.960 . S
H2181 C2167 0.961 . S
H2182 C2167 0.961 . S
H2183 C2167 0.961 . S
H2184 C2168 0.931 . S
H2185 C2173 0.930 . S
H2186 C2174 0.956 . S
H2187 C2174 0.961 . S
H2188 C2174 0.961 . S
H2189 C2175 0.958 . S
H2190 C2175 0.961 . S
H2191 C2175 0.960 . S
C2192 C2193 1.391 . S
C2192 C2194 1.394 . S
C2192 H2208 0.931 . S
C2193 C2192 1.391 . S
C2193 C2197 1.376 . S
C2194 C2192 1.394 . S
C2194 C2195 1.389 . S
C2194 C2198 1.531 . S
C2195 C2194 1.389 . S
C2195 C2196 1.397 . S
C2195 C2203 1.494 1_545 S
C2196 C2195 1.397 . S
C2196 C2197 1.392 . S
C2196 C2199 1.531 . S
C2197 C2193 1.376 . S
C2197 C2196 1.392 . S
C2197 H2209 0.929 . S
C2198 C2194 1.531 . S
C2198 H2210 0.960 . S
C2198 H2211 0.962 1_545 S
C2198 H2212 0.960 . S
C2199 C2196 1.531 . S
C2199 H2213 0.929 1_545 S
C2199 H2214 0.934 1_545 S
C2199 H2215 1.003 . S
C2200 C2201 1.370 . S
C2200 C2202 1.363 . S
C2200 H2216 0.931 . S
C2201 C2200 1.370 . S
C2201 C2205 1.408 1_565 S
C2202 C2200 1.363 . S
C2202 C2203 1.370 . S
C2202 C2206 1.524 . S
C2203 C2195 1.494 1_565 S
C2203 C2202 1.370 . S
C2203 C2204 1.403 1_565 S
C2204 C2203 1.403 1_545 S
C2204 C2205 1.404 . S
C2204 C2207 1.539 . S
C2205 C2201 1.408 1_545 S
C2205 C2204 1.404 . S
C2205 H2217 0.930 . S
C2206 C2202 1.524 . S
C2206 H2218 0.956 . S
C2206 H2219 0.961 . S
C2206 H2220 0.961 . S
C2207 C2204 1.539 . S
C2207 H2221 0.958 . S
C2207 H2222 0.961 . S
C2207 H2223 0.960 . S
H2208 C2192 0.931 . S
H2209 C2197 0.929 . S
H2210 C2198 0.960 . S
H2211 C2198 0.962 1_565 S
H2212 C2198 0.960 . S
H2213 C2199 0.929 1_565 S
H2214 C2199 0.934 1_565 S
H2215 C2199 1.003 . S
H2216 C2200 0.931 . S
H2217 C2205 0.930 . S
H2218 C2206 0.956 . S
H2219 C2206 0.961 . S
H2220 C2206 0.961 . S
H2221 C2207 0.958 . S
H2222 C2207 0.961 . S
H2223 C2207 0.960 . S
C2224 C2225 1.391 . S
C2224 C2226 1.394 . S
C2224 H2240 0.931 . S
C2225 C2224 1.391 . S
C2225 C2229 1.376 . S
C2226 C2224 1.394 . S
C2226 C2227 1.369 . S
C2226 C2230 1.531 . S
C2227 C2226 1.369 . S
C2227 C2228 1.410 . S
C2227 C2235 1.503 . S
C2228 C2227 1.410 . S
C2228 C2229 1.392 . S
C2228 C2231 1.511 . S
C2229 C2225 1.376 . S
C2229 C2228 1.392 . S
C2229 H2241 0.929 . S
C2230 C2226 1.531 . S
C2230 H2242 0.960 . S
C2230 H2243 0.962 . S
C2230 H2244 0.960 . S
C2231 C2228 1.511 . S
C2231 H2245 0.961 . S
C2231 H2246 0.961 . S
C2231 H2247 0.961 . S
C2232 C2233 1.370 . S
C2232 C2234 1.363 . S
C2232 H2248 0.931 . S
C2233 C2232 1.370 . S
C2233 C2237 1.408 . S
C2234 C2232 1.363 . S
C2234 C2235 1.370 . S
C2234 C2238 1.524 . S
C2235 C2227 1.503 . S
C2235 C2234 1.370 . S
C2235 C2236 1.403 . S
C2236 C2235 1.403 . S
C2236 C2237 1.404 . S
C2236 C2239 1.539 . S
C2237 C2233 1.408 . S
C2237 C2236 1.404 . S
C2237 H2249 0.930 . S
C2238 C2234 1.524 . S
C2238 H2250 0.956 . S
C2238 H2251 0.961 . S
C2238 H2252 0.961 . S
C2239 C2236 1.539 . S
C2239 H2253 0.958 . S
C2239 H2254 0.961 . S
C2239 H2255 0.960 . S
H2240 C2224 0.931 . S
H2241 C2229 0.929 . S
H2242 C2230 0.960 . S
H2243 C2230 0.962 . S
H2244 C2230 0.960 . S
H2245 C2231 0.961 . S
H2246 C2231 0.961 . S
H2247 C2231 0.961 . S
H2248 C2232 0.931 . S
H2249 C2237 0.930 . S
H2250 C2238 0.956 . S
H2251 C2238 0.961 . S
H2252 C2238 0.961 . S
H2253 C2239 0.958 . S
H2254 C2239 0.961 . S
H2255 C2239 0.960 . S
C2256 C2257 1.391 . S
C2256 C2258 1.394 . S
C2256 H2272 0.931 . S
C2257 C2256 1.391 . S
C2257 C2261 1.376 . S
C2258 C2256 1.394 . S
C2258 C2259 1.369 . S
C2258 C2262 1.531 . S
C2259 C2258 1.369 . S
C2259 C2260 1.410 . S
C2259 C2267 1.503 . S
C2260 C2259 1.410 . S
C2260 C2261 1.392 . S
C2260 C2263 1.511 . S
C2261 C2257 1.376 . S
C2261 C2260 1.392 . S
C2261 H2273 0.929 . S
C2262 C2258 1.531 . S
C2262 H2274 0.960 . S
C2262 H2275 0.962 . S
C2262 H2276 0.960 . S
C2263 C2260 1.511 . S
C2263 H2277 0.961 . S
C2263 H2278 0.961 . S
C2263 H2279 0.961 . S
C2264 C2265 1.370 . S
C2264 C2266 1.363 . S
C2264 H2280 0.931 . S
C2265 C2264 1.370 . S
C2265 C2269 1.408 . S
C2266 C2264 1.363 . S
C2266 C2267 1.370 . S
C2266 C2270 1.524 . S
C2267 C2259 1.503 . S
C2267 C2266 1.370 . S
C2267 C2268 1.403 . S
C2268 C2267 1.403 . S
C2268 C2269 1.404 . S
C2268 C2271 1.539 . S
C2269 C2265 1.408 . S
C2269 C2268 1.404 . S
C2269 H2281 0.930 1_554 S
C2270 C2266 1.524 . S
C2270 H2282 0.956 . S
C2270 H2283 0.961 . S
C2270 H2284 0.961 . S
C2271 C2268 1.539 . S
C2271 H2285 0.958 1_554 S
C2271 H2286 0.961 1_554 S
C2271 H2287 0.960 . S
H2272 C2256 0.931 . S
H2273 C2261 0.929 . S
H2274 C2262 0.960 . S
H2275 C2262 0.962 . S
H2276 C2262 0.960 . S
H2277 C2263 0.961 . S
H2278 C2263 0.961 . S
H2279 C2263 0.961 . S
H2280 C2264 0.931 . S
H2281 C2269 0.930 1_556 S
H2282 C2270 0.956 . S
H2283 C2270 0.961 . S
H2284 C2270 0.961 . S
H2285 C2271 0.958 1_556 S
H2286 C2271 0.961 1_556 S
H2287 C2271 0.960 . S
C2288 C2289 1.391 . S
C2288 C2290 1.394 . S
C2288 H2304 0.931 . S
C2289 C2288 1.391 . S
C2289 C2293 1.376 . S
C2290 C2288 1.394 . S
C2290 C2291 1.369 . S
C2290 C2294 1.531 . S
C2291 C2290 1.369 . S
C2291 C2292 1.410 . S
C2291 C2299 1.503 . S
C2292 C2291 1.410 . S
C2292 C2293 1.392 . S
C2292 C2295 1.511 . S
C2293 C2289 1.376 . S
C2293 C2292 1.392 . S
C2293 H2305 0.929 . S
C2294 C2290 1.531 . S
C2294 H2306 0.960 . S
C2294 H2307 0.962 . S
C2294 H2308 0.960 . S
C2295 C2292 1.511 . S
C2295 H2309 0.961 . S
C2295 H2310 0.961 . S
C2295 H2311 0.961 . S
C2296 C2297 1.370 . S
C2296 C2298 1.363 . S
C2296 H2312 0.931 . S
C2297 C2296 1.370 . S
C2297 C2301 1.408 . S
C2298 C2296 1.363 . S
C2298 C2299 1.370 . S
C2298 C2302 1.524 . S
C2299 C2291 1.503 . S
C2299 C2298 1.370 . S
C2299 C2300 1.403 . S
C2300 C2299 1.403 . S
C2300 C2301 1.404 . S
C2300 C2303 1.539 . S
C2301 C2297 1.408 . S
C2301 C2300 1.404 . S
C2301 H2313 0.930 . S
C2302 C2298 1.524 . S
C2302 H2314 0.956 . S
C2302 H2315 0.961 . S
C2302 H2316 0.961 . S
C2303 C2300 1.539 . S
C2303 H2317 0.955 . S
C2303 H2318 0.961 . S
C2303 H2319 0.960 . S
H2304 C2288 0.931 . S
H2305 C2293 0.929 . S
H2306 C2294 0.960 . S
H2307 C2294 0.962 . S
H2308 C2294 0.960 . S
H2309 C2295 0.961 . S
H2310 C2295 0.961 . S
H2311 C2295 0.961 . S
H2312 C2296 0.931 . S
H2313 C2301 0.930 . S
H2314 C2302 0.956 . S
H2315 C2302 0.961 . S
H2316 C2302 0.961 . S
H2317 C2303 0.955 . S
H2318 C2303 0.961 . S
H2319 C2303 0.960 . S
C2320 C2321 1.391 . S
C2320 C2322 1.394 . S
C2320 H2336 0.931 . S
C2321 C2320 1.391 . S
C2321 C2325 1.376 . S
C2322 C2320 1.394 . S
C2322 C2323 1.369 . S
C2322 C2326 1.531 . S
C2323 C2322 1.369 . S
C2323 C2324 1.410 . S
C2323 C2331 1.503 . S
C2324 C2323 1.410 . S
C2324 C2325 1.392 . S
C2324 C2327 1.511 . S
C2325 C2321 1.376 . S
C2325 C2324 1.392 . S
C2325 H2337 0.929 . S
C2326 C2322 1.531 . S
C2326 H2338 0.960 . S
C2326 H2339 0.962 . S
C2326 H2340 0.960 . S
C2327 C2324 1.511 . S
C2327 H2341 0.961 . S
C2327 H2342 0.961 . S
C2327 H2343 0.961 . S
C2328 C2329 1.370 . S
C2328 C2330 1.363 . S
C2328 H2344 0.931 . S
C2329 C2328 1.370 . S
C2329 C2333 1.408 . S
C2330 C2328 1.363 . S
C2330 C2331 1.370 . S
C2330 C2334 1.524 . S
C2331 C2323 1.503 . S
C2331 C2330 1.370 . S
C2331 C2332 1.403 . S
C2332 C2331 1.403 . S
C2332 C2333 1.404 . S
C2332 C2335 1.539 . S
C2333 C2329 1.408 . S
C2333 C2332 1.404 . S
C2333 H2345 0.930 . S
C2334 C2330 1.524 . S
C2334 H2346 0.956 . S
C2334 H2347 0.961 . S
C2334 H2348 0.961 . S
C2335 C2332 1.539 . S
C2335 H2349 0.958 . S
C2335 H2350 0.961 . S
C2335 H2351 0.960 . S
H2336 C2320 0.931 . S
H2337 C2325 0.929 . S
H2338 C2326 0.960 . S
H2339 C2326 0.962 . S
H2340 C2326 0.960 . S
H2341 C2327 0.961 . S
H2342 C2327 0.961 . S
H2343 C2327 0.961 . S
H2344 C2328 0.931 . S
H2345 C2333 0.930 . S
H2346 C2334 0.956 . S
H2347 C2334 0.961 . S
H2348 C2334 0.961 . S
H2349 C2335 0.958 . S
H2350 C2335 0.961 . S
H2351 C2335 0.960 . S
C2352 C2353 1.391 . S
C2352 C2354 1.394 . S
C2352 H2368 0.931 . S
C2353 C2352 1.391 . S
C2353 C2357 1.376 . S
C2354 C2352 1.394 . S
C2354 C2355 1.369 . S
C2354 C2358 1.531 . S
C2355 C2354 1.369 . S
C2355 C2356 1.410 . S
C2355 C2363 1.503 . S
C2356 C2355 1.410 . S
C2356 C2357 1.392 . S
C2356 C2359 1.511 . S
C2357 C2353 1.376 . S
C2357 C2356 1.392 . S
C2357 H2369 0.929 . S
C2358 C2354 1.531 . S
C2358 H2370 0.960 . S
C2358 H2371 0.962 . S
C2358 H2372 0.960 . S
C2359 C2356 1.511 . S
C2359 H2373 0.961 . S
C2359 H2374 0.961 . S
C2359 H2375 0.961 . S
C2360 C2361 1.370 . S
C2360 C2362 1.363 . S
C2360 H2376 0.931 . S
C2361 C2360 1.370 . S
C2361 C2365 1.408 . S
C2362 C2360 1.363 . S
C2362 C2363 1.370 . S
C2362 C2366 1.524 . S
C2363 C2355 1.503 . S
C2363 C2362 1.370 . S
C2363 C2364 1.403 . S
C2364 C2363 1.403 . S
C2364 C2365 1.404 . S
C2364 C2367 1.539 . S
C2365 C2361 1.408 . S
C2365 C2364 1.404 . S
C2365 H2377 0.930 . S
C2366 C2362 1.524 . S
C2366 H2378 0.956 . S
C2366 H2379 0.961 . S
C2366 H2380 0.961 . S
C2367 C2364 1.539 . S
C2367 H2381 0.958 . S
C2367 H2382 0.961 . S
C2367 H2383 0.960 . S
H2368 C2352 0.931 . S
H2369 C2357 0.929 . S
H2370 C2358 0.960 . S
H2371 C2358 0.962 . S
H2372 C2358 0.960 . S
H2373 C2359 0.961 . S
H2374 C2359 0.961 . S
H2375 C2359 0.961 . S
H2376 C2360 0.931 . S
H2377 C2365 0.930 . S
H2378 C2366 0.956 . S
H2379 C2366 0.961 . S
H2380 C2366 0.961 . S
H2381 C2367 0.958 . S
H2382 C2367 0.961 . S
H2383 C2367 0.960 . S
C2384 C2385 1.391 . S
C2384 C2386 1.394 . S
C2384 H2400 0.931 . S
C2385 C2384 1.391 . S
C2385 C2389 1.376 1_545 S
C2386 C2384 1.394 . S
C2386 C2387 1.369 1_545 S
C2386 C2390 1.531 . S
C2387 C2386 1.369 1_565 S
C2387 C2388 1.410 . S
C2387 C2395 1.503 . S
C2388 C2387 1.410 . S
C2388 C2389 1.392 . S
C2388 C2391 1.511 . S
C2389 C2385 1.376 1_565 S
C2389 C2388 1.392 . S
C2389 H2401 0.929 . S
C2390 C2386 1.531 . S
C2390 H2402 0.960 . S
C2390 H2403 0.962 . S
C2390 H2404 0.960 . S
C2391 C2388 1.511 . S
C2391 H2405 0.961 . S
C2391 H2406 0.961 . S
C2391 H2407 0.961 . S
C2392 C2393 1.370 . S
C2392 C2394 1.363 . S
C2392 H2408 0.931 . S
C2393 C2392 1.370 . S
C2393 C2397 1.408 . S
C2394 C2392 1.363 . S
C2394 C2395 1.370 . S
C2394 C2398 1.524 . S
C2395 C2387 1.503 . S
C2395 C2394 1.370 . S
C2395 C2396 1.403 . S
C2396 C2395 1.403 . S
C2396 C2397 1.404 . S
C2396 C2399 1.539 . S
C2397 C2393 1.408 . S
C2397 C2396 1.404 . S
C2397 H2409 0.930 . S
C2398 C2394 1.524 . S
C2398 H2410 0.956 . S
C2398 H2411 0.961 . S
C2398 H2412 0.961 . S
C2399 C2396 1.539 . S
C2399 H2413 0.983 . S
C2399 H2414 0.961 . S
C2399 H2415 0.960 . S
H2400 C2384 0.931 . S
H2401 C2389 0.929 . S
H2402 C2390 0.960 . S
H2403 C2390 0.962 . S
H2404 C2390 0.960 . S
H2405 C2391 0.961 . S
H2406 C2391 0.961 . S
H2407 C2391 0.961 . S
H2408 C2392 0.931 . S
H2409 C2397 0.930 . S
H2410 C2398 0.956 . S
H2411 C2398 0.961 . S
H2412 C2398 0.961 . S
H2413 C2399 0.983 . S
H2414 C2399 0.961 . S
H2415 C2399 0.960 . S
C2416 C2417 1.391 . S
C2416 C2418 1.394 . S
C2416 H2432 0.931 . S
C2417 C2416 1.391 . S
C2417 C2421 1.376 . S
C2418 C2416 1.394 . S
C2418 C2419 1.369 . S
C2418 C2422 1.531 . S
C2419 C2418 1.369 . S
C2419 C2420 1.410 . S
C2419 C2427 1.503 . S
C2420 C2419 1.410 . S
C2420 C2421 1.392 . S
C2420 C2423 1.511 . S
C2421 C2417 1.376 . S
C2421 C2420 1.392 . S
C2421 H2433 0.929 . S
C2422 C2418 1.531 . S
C2422 H2434 0.960 . S
C2422 H2435 0.962 . S
C2422 H2436 0.960 . S
C2423 C2420 1.511 . S
C2423 H2437 0.961 . S
C2423 H2438 0.961 . S
C2423 H2439 0.961 . S
C2424 C2425 1.370 . S
C2424 C2426 1.363 . S
C2424 H2440 0.931 . S
C2425 C2424 1.370 . S
C2425 C2429 1.408 . S
C2426 C2424 1.363 . S
C2426 C2427 1.370 . S
C2426 C2430 1.524 . S
C2427 C2419 1.503 . S
C2427 C2426 1.370 . S
C2427 C2428 1.403 . S
C2428 C2427 1.403 . S
C2428 C2429 1.404 . S
C2428 C2431 1.539 . S
C2429 C2425 1.408 . S
C2429 C2428 1.404 . S
C2429 H2441 0.930 . S
C2430 C2426 1.524 . S
C2430 H2442 0.956 . S
C2430 H2443 0.961 . S
C2430 H2444 0.961 . S
C2431 C2428 1.539 . S
C2431 H2445 0.958 . S
C2431 H2446 0.961 . S
C2431 H2447 0.960 . S
H2432 C2416 0.931 . S
H2433 C2421 0.929 . S
H2434 C2422 0.960 . S
H2435 C2422 0.962 . S
H2436 C2422 0.960 . S
H2437 C2423 0.961 . S
H2438 C2423 0.961 . S
H2439 C2423 0.961 . S
H2440 C2424 0.931 . S
H2441 C2429 0.930 . S
H2442 C2430 0.956 . S
H2443 C2430 0.961 . S
H2444 C2430 0.961 . S
H2445 C2431 0.958 . S
H2446 C2431 0.961 . S
H2447 C2431 0.960 . S
C2448 C2449 1.391 . S
C2448 C2450 1.394 . S
C2448 H2464 0.931 . S
C2449 C2448 1.391 . S
C2449 C2453 1.376 . S
C2450 C2448 1.394 . S
C2450 C2451 1.369 . S
C2450 C2454 1.531 . S
C2451 C2450 1.369 . S
C2451 C2452 1.410 . S
C2451 C2459 1.503 . S
C2452 C2451 1.410 . S
C2452 C2453 1.392 . S
C2452 C2455 1.511 . S
C2453 C2449 1.376 . S
C2453 C2452 1.392 . S
C2453 H2465 0.929 . S
C2454 C2450 1.531 . S
C2454 H2466 0.960 . S
C2454 H2467 0.962 . S
C2454 H2468 0.960 . S
C2455 C2452 1.511 . S
C2455 H2469 0.961 . S
C2455 H2470 0.961 . S
C2455 H2471 0.961 . S
C2456 C2457 1.370 . S
C2456 C2458 1.363 . S
C2456 H2472 0.931 . S
C2457 C2456 1.370 . S
C2457 C2461 1.408 . S
C2458 C2456 1.363 . S
C2458 C2459 1.370 . S
C2458 C2462 1.524 . S
C2459 C2451 1.503 . S
C2459 C2458 1.370 . S
C2459 C2460 1.403 . S
C2460 C2459 1.403 . S
C2460 C2461 1.404 . S
C2460 C2463 1.539 . S
C2461 C2457 1.408 . S
C2461 C2460 1.404 . S
C2461 H2473 0.930 . S
C2462 C2458 1.524 . S
C2462 H2474 0.956 . S
C2462 H2475 0.961 . S
C2462 H2476 0.961 . S
C2463 C2460 1.539 . S
C2463 H2477 0.958 . S
C2463 H2478 0.961 . S
C2463 H2479 0.960 . S
H2464 C2448 0.931 . S
H2465 C2453 0.929 . S
H2466 C2454 0.960 . S
H2467 C2454 0.962 . S
H2468 C2454 0.960 . S
H2469 C2455 0.961 . S
H2470 C2455 0.961 . S
H2471 C2455 0.961 . S
H2472 C2456 0.931 . S
H2473 C2461 0.930 . S
H2474 C2462 0.956 . S
H2475 C2462 0.961 . S
H2476 C2462 0.961 . S
H2477 C2463 0.958 . S
H2478 C2463 0.961 . S
H2479 C2463 0.960 . S
C2480 C2481 1.391 . S
C2480 C2482 1.394 . S
C2480 H2496 0.931 . S
C2481 C2480 1.391 . S
C2481 C2485 1.376 . S
C2482 C2480 1.394 . S
C2482 C2483 1.369 . S
C2482 C2486 1.531 . S
C2483 C2482 1.369 . S
C2483 C2484 1.410 . S
C2483 C2491 1.503 . S
C2484 C2483 1.410 . S
C2484 C2485 1.392 . S
C2484 C2487 1.511 . S
C2485 C2481 1.376 . S
C2485 C2484 1.392 . S
C2485 H2497 0.929 . S
C2486 C2482 1.531 . S
C2486 H2498 0.960 . S
C2486 H2499 0.962 . S
C2486 H2500 0.960 . S
C2487 C2484 1.511 . S
C2487 H2501 0.961 . S
C2487 H2502 0.961 . S
C2487 H2503 0.961 . S
C2488 C2489 1.370 . S
C2488 C2490 1.363 . S
C2488 H2504 0.931 . S
C2489 C2488 1.370 . S
C2489 C2493 1.408 . S
C2490 C2488 1.363 . S
C2490 C2491 1.370 . S
C2490 C2494 1.524 . S
C2491 C2483 1.503 . S
C2491 C2490 1.370 . S
C2491 C2492 1.403 . S
C2492 C2491 1.403 . S
C2492 C2493 1.404 . S
C2492 C2495 1.539 . S
C2493 C2489 1.408 . S
C2493 C2492 1.404 . S
C2493 H2505 0.930 . S
C2494 C2490 1.524 . S
C2494 H2506 0.956 . S
C2494 H2507 0.961 . S
C2494 H2508 0.961 . S
C2495 C2492 1.539 . S
C2495 H2509 0.958 . S
C2495 H2510 0.961 . S
C2495 H2511 0.960 . S
H2496 C2480 0.931 . S
H2497 C2485 0.929 . S
H2498 C2486 0.960 . S
H2499 C2486 0.962 . S
H2500 C2486 0.960 . S
H2501 C2487 0.961 . S
H2502 C2487 0.961 . S
H2503 C2487 0.961 . S
H2504 C2488 0.931 . S
H2505 C2493 0.930 . S
H2506 C2494 0.956 . S
H2507 C2494 0.961 . S
H2508 C2494 0.961 . S
H2509 C2495 0.958 . S
H2510 C2495 0.961 . S
H2511 C2495 0.960 . S
C2512 C2513 1.391 . S
C2512 C2514 1.394 . S
C2512 H2528 0.931 . S
C2513 C2512 1.391 . S
C2513 C2517 1.376 . S
C2514 C2512 1.394 . S
C2514 C2515 1.369 . S
C2514 C2518 1.531 . S
C2515 C2514 1.369 . S
C2515 C2516 1.410 . S
C2515 C2523 1.503 . S
C2516 C2515 1.410 . S
C2516 C2517 1.392 . S
C2516 C2519 1.511 . S
C2517 C2513 1.376 . S
C2517 C2516 1.392 . S
C2517 H2529 0.929 . S
C2518 C2514 1.531 . S
C2518 H2530 0.960 . S
C2518 H2531 0.962 . S
C2518 H2532 0.960 . S
C2519 C2516 1.511 . S
C2519 H2533 0.961 . S
C2519 H2534 0.961 . S
C2519 H2535 0.961 . S
C2520 C2521 1.370 . S
C2520 C2522 1.363 . S
C2520 H2536 0.931 . S
C2521 C2520 1.370 . S
C2521 C2525 1.408 . S
C2522 C2520 1.363 . S
C2522 C2523 1.370 . S
C2522 C2526 1.524 . S
C2523 C2515 1.503 . S
C2523 C2522 1.370 . S
C2523 C2524 1.403 . S
C2524 C2523 1.403 . S
C2524 C2525 1.404 . S
C2524 C2527 1.539 . S
C2525 C2521 1.408 . S
C2525 C2524 1.404 . S
C2525 H2537 0.930 . S
C2526 C2522 1.524 . S
C2526 H2538 0.956 . S
C2526 H2539 0.961 . S
C2526 H2540 0.961 . S
C2527 C2524 1.539 . S
C2527 H2541 0.958 . S
C2527 H2542 0.961 . S
C2527 H2543 0.960 . S
H2528 C2512 0.931 . S
H2529 C2517 0.929 . S
H2530 C2518 0.960 . S
H2531 C2518 0.962 . S
H2532 C2518 0.960 . S
H2533 C2519 0.961 . S
H2534 C2519 0.961 . S
H2535 C2519 0.961 . S
H2536 C2520 0.931 . S
H2537 C2525 0.930 . S
H2538 C2526 0.956 . S
H2539 C2526 0.961 . S
H2540 C2526 0.961 . S
H2541 C2527 0.958 . S
H2542 C2527 0.961 . S
H2543 C2527 0.960 . S
C2544 C2545 1.391 . S
C2544 C2546 1.394 . S
C2544 H2560 0.931 . S
C2545 C2544 1.391 . S
C2545 C2549 1.376 . S
C2546 C2544 1.394 . S
C2546 C2547 1.369 . S
C2546 C2550 1.531 . S
C2547 C2546 1.369 . S
C2547 C2548 1.410 . S
C2547 C2555 1.503 . S
C2548 C2547 1.410 . S
C2548 C2549 1.392 . S
C2548 C2551 1.511 . S
C2549 C2545 1.376 . S
C2549 C2548 1.392 . S
C2549 H2561 0.929 . S
C2550 C2546 1.531 . S
C2550 H2562 0.960 . S
C2550 H2563 0.962 . S
C2550 H2564 0.960 . S
C2551 C2548 1.511 . S
C2551 H2565 0.961 . S
C2551 H2566 0.961 . S
C2551 H2567 0.961 . S
C2552 C2553 1.370 . S
C2552 C2554 1.363 . S
C2552 H2568 0.931 . S
C2553 C2552 1.370 . S
C2553 C2557 1.408 . S
C2554 C2552 1.363 . S
C2554 C2555 1.370 . S
C2554 C2558 1.524 . S
C2555 C2547 1.503 . S
C2555 C2554 1.370 . S
C2555 C2556 1.403 . S
C2556 C2555 1.403 . S
C2556 C2557 1.404 . S
C2556 C2559 1.539 . S
C2557 C2553 1.408 . S
C2557 C2556 1.404 . S
C2557 H2569 0.930 . S
C2558 C2554 1.524 . S
C2558 H2570 0.956 . S
C2558 H2571 0.961 . S
C2558 H2572 0.961 . S
C2559 C2556 1.539 . S
C2559 H2573 0.958 . S
C2559 H2574 0.961 . S
C2559 H2575 0.960 . S
H2560 C2544 0.931 . S
H2561 C2549 0.929 . S
H2562 C2550 0.960 . S
H2563 C2550 0.962 . S
H2564 C2550 0.960 . S
H2565 C2551 0.961 . S
H2566 C2551 0.961 . S
H2567 C2551 0.961 . S
H2568 C2552 0.931 . S
H2569 C2557 0.930 . S
H2570 C2558 0.956 . S
H2571 C2558 0.961 . S
H2572 C2558 0.961 . S
H2573 C2559 0.958 . S
H2574 C2559 0.961 . S
H2575 C2559 0.960 . S
C2576 C2577 1.391 1_655 S
C2576 C2578 1.394 . S
C2576 H2592 0.931 . S
C2577 C2576 1.391 1_455 S
C2577 C2581 1.376 . S
C2578 C2576 1.394 . S
C2578 C2579 1.369 1_655 S
C2578 C2582 1.531 . S
C2579 C2578 1.369 1_455 S
C2579 C2580 1.410 . S
C2579 C2587 1.503 . S
C2580 C2579 1.410 . S
C2580 C2581 1.392 . S
C2580 C2583 1.511 . S
C2581 C2577 1.376 . S
C2581 C2580 1.392 . S
C2581 H2593 0.929 1_554 S
C2582 C2578 1.531 . S
C2582 H2594 0.960 . S
C2582 H2595 0.962 . S
C2582 H2596 0.960 . S
C2583 C2580 1.511 . S
C2583 H2597 0.961 1_554 S
C2583 H2598 0.961 . S
C2583 H2599 0.961 . S
C2584 C2585 1.370 . S
C2584 C2586 1.363 . S
C2584 H2600 0.930 1_455 S
C2585 C2584 1.370 . S
C2585 C2589 1.408 . S
C2586 C2584 1.363 . S
C2586 C2587 1.370 . S
C2586 C2590 1.524 1_455 S
C2587 C2579 1.503 . S
C2587 C2586 1.370 . S
C2587 C2588 1.403 . S
C2588 C2587 1.403 . S
C2588 C2589 1.404 . S
C2588 C2591 1.539 . S
C2589 C2585 1.408 . S
C2589 C2588 1.404 . S
C2589 H2601 0.930 . S
C2590 C2586 1.524 1_655 S
C2590 H2602 0.956 . S
C2590 H2603 0.961 1_654 S
C2590 H2604 0.961 1_554 S
C2591 C2588 1.539 . S
C2591 H2605 0.958 . S
C2591 H2606 0.961 . S
C2591 H2607 0.960 . S
H2592 C2576 0.931 . S
H2593 C2581 0.929 1_556 S
H2594 C2582 0.960 . S
H2595 C2582 0.962 . S
H2596 C2582 0.960 . S
H2597 C2583 0.961 1_556 S
H2598 C2583 0.961 . S
H2599 C2583 0.961 . S
H2600 C2584 0.930 1_655 S
H2601 C2589 0.930 . S
H2602 C2590 0.956 . S
H2603 C2590 0.961 1_456 S
H2604 C2590 0.961 1_556 S
H2605 C2591 0.958 . S
H2606 C2591 0.961 . S
H2607 C2591 0.960 . S
C2608 C2609 1.391 . S
C2608 C2610 1.394 . S
C2608 H2624 0.931 . S
C2609 C2608 1.391 . S
C2609 C2613 1.376 . S
C2610 C2608 1.394 . S
C2610 C2611 1.369 . S
C2610 C2614 1.531 . S
C2611 C2610 1.369 . S
C2611 C2612 1.410 . S
C2611 C2619 1.503 . S
C2612 C2611 1.410 . S
C2612 C2613 1.392 . S
C2612 C2615 1.511 . S
C2613 C2609 1.376 . S
C2613 C2612 1.392 . S
C2613 H2625 0.929 1_655 S
C2614 C2610 1.531 . S
C2614 H2626 0.960 . S
C2614 H2627 0.962 . S
C2614 H2628 0.960 . S
C2615 C2612 1.511 . S
C2615 H2629 0.943 1_655 S
C2615 H2630 0.961 . S
C2615 H2631 0.961 . S
C2616 C2617 1.370 . S
C2616 C2618 1.363 . S
C2616 H2632 0.931 . S
C2617 C2616 1.370 . S
C2617 C2621 1.408 . S
C2618 C2616 1.363 . S
C2618 C2619 1.370 . S
C2618 C2622 1.524 . S
C2619 C2611 1.503 . S
C2619 C2618 1.370 . S
C2619 C2620 1.403 . S
C2620 C2619 1.403 . S
C2620 C2621 1.404 . S
C2620 C2623 1.539 . S
C2621 C2617 1.408 . S
C2621 C2620 1.404 . S
C2621 H2633 0.930 . S
C2622 C2618 1.524 . S
C2622 H2634 0.956 . S
C2622 H2635 0.961 . S
C2622 H2636 0.961 . S
C2623 C2620 1.539 . S
C2623 H2637 0.958 . S
C2623 H2638 0.961 . S
C2623 H2639 0.960 . S
H2624 C2608 0.931 . S
H2625 C2613 0.929 1_455 S
H2626 C2614 0.960 . S
H2627 C2614 0.962 . S
H2628 C2614 0.960 . S
H2629 C2615 0.943 1_455 S
H2630 C2615 0.961 . S
H2631 C2615 0.961 . S
H2632 C2616 0.931 . S
H2633 C2621 0.930 . S
H2634 C2622 0.956 . S
H2635 C2622 0.961 . S
H2636 C2622 0.961 . S
H2637 C2623 0.958 . S
H2638 C2623 0.961 . S
H2639 C2623 0.960 . S
C2640 C2641 1.391 . S
C2640 C2642 1.394 . S
C2640 H2656 0.931 . S
C2641 C2640 1.391 . S
C2641 C2645 1.376 . S
C2642 C2640 1.394 . S
C2642 C2643 1.369 . S
C2642 C2646 1.531 . S
C2643 C2642 1.369 . S
C2643 C2644 1.410 . S
C2643 C2651 1.503 . S
C2644 C2643 1.410 . S
C2644 C2645 1.392 . S
C2644 C2647 1.511 . S
C2645 C2641 1.376 . S
C2645 C2644 1.392 . S
C2645 H2657 0.929 . S
C2646 C2642 1.531 . S
C2646 H2658 0.960 . S
C2646 H2659 0.962 . S
C2646 H2660 0.960 . S
C2647 C2644 1.511 . S
C2647 H2661 0.961 . S
C2647 H2662 0.961 . S
C2647 H2663 0.961 . S
C2648 C2649 1.370 . S
C2648 C2650 1.363 . S
C2648 H2664 0.931 . S
C2649 C2648 1.370 . S
C2649 C2653 1.408 . S
C2650 C2648 1.363 . S
C2650 C2651 1.370 . S
C2650 C2654 1.524 . S
C2651 C2643 1.503 . S
C2651 C2650 1.370 . S
C2651 C2652 1.403 . S
C2652 C2651 1.403 . S
C2652 C2653 1.404 . S
C2652 C2655 1.539 . S
C2653 C2649 1.408 . S
C2653 C2652 1.404 . S
C2653 H2665 0.930 . S
C2654 C2650 1.524 . S
C2654 H2666 0.956 . S
C2654 H2667 0.961 . S
C2654 H2668 0.961 . S
C2655 C2652 1.539 . S
C2655 H2669 0.958 . S
C2655 H2670 0.961 . S
C2655 H2671 0.960 . S
H2656 C2640 0.931 . S
H2657 C2645 0.929 . S
H2658 C2646 0.960 . S
H2659 C2646 0.962 . S
H2660 C2646 0.960 . S
H2661 C2647 0.961 . S
H2662 C2647 0.961 . S
H2663 C2647 0.961 . S
H2664 C2648 0.931 . S
H2665 C2653 0.930 . S
H2666 C2654 0.956 . S
H2667 C2654 0.961 . S
H2668 C2654 0.961 . S
H2669 C2655 0.958 . S
H2670 C2655 0.961 . S
H2671 C2655 0.960 . S
C2672 C2673 1.391 . S
C2672 C2674 1.394 . S
C2672 H2688 0.931 . S
C2673 C2672 1.391 . S
C2673 C2677 1.376 . S
C2674 C2672 1.394 . S
C2674 C2675 1.369 . S
C2674 C2678 1.531 . S
C2675 C2674 1.369 . S
C2675 C2676 1.410 . S
C2675 C2683 1.503 . S
C2676 C2675 1.410 . S
C2676 C2677 1.392 . S
C2676 C2679 1.511 . S
C2677 C2673 1.376 . S
C2677 C2676 1.392 . S
C2677 H2689 0.929 . S
C2678 C2674 1.531 . S
C2678 H2690 0.960 . S
C2678 H2691 0.962 . S
C2678 H2692 0.960 . S
C2679 C2676 1.511 . S
C2679 H2693 0.961 . S
C2679 H2694 0.961 . S
C2679 H2695 0.961 . S
C2680 C2681 1.370 . S
C2680 C2682 1.363 . S
C2680 H2696 0.931 . S
C2681 C2680 1.370 . S
C2681 C2685 1.408 . S
C2682 C2680 1.363 . S
C2682 C2683 1.370 . S
C2682 C2686 1.524 . S
C2683 C2675 1.503 . S
C2683 C2682 1.370 . S
C2683 C2684 1.403 . S
C2684 C2683 1.403 . S
C2684 C2685 1.404 . S
C2684 C2687 1.539 . S
C2685 C2681 1.408 . S
C2685 C2684 1.404 . S
C2685 H2697 0.930 . S
C2686 C2682 1.524 . S
C2686 H2698 0.956 . S
C2686 H2699 0.961 . S
C2686 H2700 0.961 . S
C2687 C2684 1.539 . S
C2687 H2701 0.958 . S
C2687 H2702 0.961 . S
C2687 H2703 0.960 . S
H2688 C2672 0.931 . S
H2689 C2677 0.929 . S
H2690 C2678 0.960 . S
H2691 C2678 0.962 . S
H2692 C2678 0.960 . S
H2693 C2679 0.961 . S
H2694 C2679 0.961 . S
H2695 C2679 0.961 . S
H2696 C2680 0.931 . S
H2697 C2685 0.930 . S
H2698 C2686 0.956 . S
H2699 C2686 0.961 . S
H2700 C2686 0.961 . S
H2701 C2687 0.958 . S
H2702 C2687 0.961 . S
H2703 C2687 0.960 . S
C2704 C2705 1.391 . S
C2704 C2706 1.394 . S
C2704 H2720 0.931 . S
C2705 C2704 1.391 . S
C2705 C2709 1.376 . S
C2706 C2704 1.394 . S
C2706 C2707 1.369 . S
C2706 C2710 1.531 . S
C2707 C2706 1.369 . S
C2707 C2708 1.410 . S
C2707 C2715 1.503 . S
C2708 C2707 1.410 . S
C2708 C2709 1.392 . S
C2708 C2711 1.511 . S
C2709 C2705 1.376 . S
C2709 C2708 1.392 . S
C2709 H2721 0.929 . S
C2710 C2706 1.531 . S
C2710 H2722 0.960 . S
C2710 H2723 0.962 . S
C2710 H2724 0.960 . S
C2711 C2708 1.511 . S
C2711 H2725 0.961 1_455 S
C2711 H2726 0.961 1_455 S
C2711 H2727 0.961 . S
C2712 C2713 1.370 1_655 S
C2712 C2714 1.350 . S
C2712 H2728 0.931 . S
C2713 C2712 1.370 1_455 S
C2713 C2717 1.408 . S
C2714 C2712 1.350 . S
C2714 C2715 1.341 1_655 S
C2714 C2718 1.568 . S
C2715 C2707 1.503 . S
C2715 C2714 1.341 1_455 S
C2715 C2716 1.403 . S
C2716 C2715 1.403 . S
C2716 C2717 1.404 . S
C2716 C2719 1.539 . S
C2717 C2713 1.408 . S
C2717 C2716 1.404 . S
C2717 H2729 0.930 . S
C2718 C2714 1.568 . S
C2718 H2730 0.956 . S
C2718 H2731 0.961 . S
C2718 H2732 0.961 . S
C2719 C2716 1.539 . S
C2719 H2733 0.958 . S
C2719 H2734 0.961 . S
C2719 H2735 0.960 . S
H2720 C2704 0.931 . S
H2721 C2709 0.929 . S
H2722 C2710 0.960 . S
H2723 C2710 0.962 . S
H2724 C2710 0.960 . S
H2725 C2711 0.961 1_655 S
H2726 C2711 0.961 1_655 S
H2727 C2711 0.961 . S
H2728 C2712 0.931 . S
H2729 C2717 0.930 . S
H2730 C2718 0.956 . S
H2731 C2718 0.961 . S
H2732 C2718 0.961 . S
H2733 C2719 0.958 . S
H2734 C2719 0.961 . S
H2735 C2719 0.960 . S
C2736 C2737 1.391 . S
C2736 C2738 1.394 . S
C2736 H2752 0.931 . S
C2737 C2736 1.391 . S
C2737 C2741 1.376 . S
C2738 C2736 1.394 . S
C2738 C2739 1.369 . S
C2738 C2742 1.531 . S
C2739 C2738 1.369 . S
C2739 C2740 1.410 . S
C2739 C2747 1.503 . S
C2740 C2739 1.410 . S
C2740 C2741 1.392 . S
C2740 C2743 1.511 . S
C2741 C2737 1.376 . S
C2741 C2740 1.392 . S
C2741 H2753 0.929 . S
C2742 C2738 1.531 . S
C2742 H2754 0.960 . S
C2742 H2755 0.962 . S
C2742 H2756 0.960 . S
C2743 C2740 1.511 . S
C2743 H2757 0.961 . S
C2743 H2758 0.961 . S
C2743 H2759 0.961 . S
C2744 C2745 1.370 . S
C2744 C2746 1.363 . S
C2744 H2760 0.931 . S
C2745 C2744 1.370 . S
C2745 C2749 1.408 . S
C2746 C2744 1.363 . S
C2746 C2747 1.370 . S
C2746 C2750 1.524 . S
C2747 C2739 1.503 . S
C2747 C2746 1.370 . S
C2747 C2748 1.403 . S
C2748 C2747 1.403 . S
C2748 C2749 1.404 . S
C2748 C2751 1.539 . S
C2749 C2745 1.408 . S
C2749 C2748 1.404 . S
C2749 H2761 0.930 . S
C2750 C2746 1.524 . S
C2750 H2762 0.956 . S
C2750 H2763 0.961 . S
C2750 H2764 0.961 . S
C2751 C2748 1.539 . S
C2751 H2765 0.958 . S
C2751 H2766 0.961 . S
C2751 H2767 0.960 . S
H2752 C2736 0.931 . S
H2753 C2741 0.929 . S
H2754 C2742 0.960 . S
H2755 C2742 0.962 . S
H2756 C2742 0.960 . S
H2757 C2743 0.961 . S
H2758 C2743 0.961 . S
H2759 C2743 0.961 . S
H2760 C2744 0.931 . S
H2761 C2749 0.930 . S
H2762 C2750 0.956 . S
H2763 C2750 0.961 . S
H2764 C2750 0.961 . S
H2765 C2751 0.958 . S
H2766 C2751 0.961 . S
H2767 C2751 0.960 . S
C2768 C2769 1.391 . S
C2768 C2770 1.394 . S
C2768 H2784 0.931 . S
C2769 C2768 1.391 . S
C2769 C2773 1.376 . S
C2770 C2768 1.394 . S
C2770 C2771 1.369 . S
C2770 C2774 1.531 . S
C2771 C2770 1.369 . S
C2771 C2772 1.410 . S
C2771 C2779 1.503 . S
C2772 C2771 1.410 . S
C2772 C2773 1.392 . S
C2772 C2775 1.511 . S
C2773 C2769 1.376 . S
C2773 C2772 1.392 . S
C2773 H2785 0.929 . S
C2774 C2770 1.531 . S
C2774 H2786 0.960 . S
C2774 H2787 0.962 . S
C2774 H2788 0.960 . S
C2775 C2772 1.511 . S
C2775 H2789 0.961 . S
C2775 H2790 0.961 . S
C2775 H2791 0.961 . S
C2776 C2777 1.370 . S
C2776 C2778 1.363 . S
C2776 H2792 0.931 . S
C2777 C2776 1.370 . S
C2777 C2781 1.408 . S
C2778 C2776 1.363 . S
C2778 C2779 1.370 . S
C2778 C2782 1.524 . S
C2779 C2771 1.503 . S
C2779 C2778 1.370 . S
C2779 C2780 1.403 . S
C2780 C2779 1.403 . S
C2780 C2781 1.404 . S
C2780 C2783 1.539 . S
C2781 C2777 1.408 . S
C2781 C2780 1.404 . S
C2781 H2793 0.930 . S
C2782 C2778 1.524 . S
C2782 H2794 0.956 . S
C2782 H2795 0.961 . S
C2782 H2796 0.961 . S
C2783 C2780 1.539 . S
C2783 H2797 0.958 . S
C2783 H2798 0.961 . S
C2783 H2799 0.960 . S
H2784 C2768 0.931 . S
H2785 C2773 0.929 . S
H2786 C2774 0.960 . S
H2787 C2774 0.962 . S
H2788 C2774 0.960 . S
H2789 C2775 0.961 . S
H2790 C2775 0.961 . S
H2791 C2775 0.961 . S
H2792 C2776 0.931 . S
H2793 C2781 0.930 . S
H2794 C2782 0.956 . S
H2795 C2782 0.961 . S
H2796 C2782 0.961 . S
H2797 C2783 0.958 . S
H2798 C2783 0.961 . S
H2799 C2783 0.960 . S
C2800 C2801 1.391 . S
C2800 C2802 1.394 1_554 S
C2800 H2816 0.931 . S
C2801 C2800 1.391 . S
C2801 C2805 1.376 1_554 S
C2802 C2800 1.394 1_556 S
C2802 C2803 1.369 . S
C2802 C2806 1.531 1_556 S
C2803 C2802 1.369 . S
C2803 C2804 1.410 . S
C2803 C2811 1.503 . S
C2804 C2803 1.410 . S
C2804 C2805 1.392 . S
C2804 C2807 1.511 . S
C2805 C2801 1.376 1_556 S
C2805 C2804 1.392 . S
C2805 H2817 0.929 . S
C2806 C2802 1.531 1_554 S
C2806 H2818 0.960 1_554 S
C2806 H2819 0.962 . S
C2806 H2820 0.960 . S
C2807 C2804 1.511 . S
C2807 H2821 0.961 . S
C2807 H2822 0.961 . S
C2807 H2823 0.961 . S
C2808 C2809 1.370 . S
C2808 C2810 1.363 . S
C2808 H2824 0.931 . S
C2809 C2808 1.370 . S
C2809 C2813 1.408 . S
C2810 C2808 1.363 . S
C2810 C2811 1.370 . S
C2810 C2814 1.524 . S
C2811 C2803 1.503 . S
C2811 C2810 1.370 . S
C2811 C2812 1.403 . S
C2812 C2811 1.403 . S
C2812 C2813 1.404 . S
C2812 C2815 1.539 . S
C2813 C2809 1.408 . S
C2813 C2812 1.404 . S
C2813 H2825 0.930 . S
C2814 C2810 1.524 . S
C2814 H2826 0.937 1_556 S
C2814 H2827 0.961 . S
C2814 H2828 0.961 . S
C2815 C2812 1.539 . S
C2815 H2829 0.958 . S
C2815 H2830 0.961 . S
C2815 H2831 0.960 . S
H2816 C2800 0.931 . S
H2817 C2805 0.929 . S
H2818 C2806 0.960 1_556 S
H2819 C2806 0.962 . S
H2820 C2806 0.960 . S
H2821 C2807 0.961 . S
H2822 C2807 0.961 . S
H2823 C2807 0.961 . S
H2824 C2808 0.931 . S
H2825 C2813 0.930 . S
H2826 C2814 0.937 1_554 S
H2827 C2814 0.961 . S
H2828 C2814 0.961 . S
H2829 C2815 0.958 . S
H2830 C2815 0.961 . S
H2831 C2815 0.960 . S
C2832 C2833 1.391 . S
C2832 C2834 1.394 . S
C2832 H2848 0.931 . S
C2833 C2832 1.391 . S
C2833 C2837 1.376 . S
C2834 C2832 1.394 . S
C2834 C2835 1.369 . S
C2834 C2838 1.531 . S
C2835 C2834 1.369 . S
C2835 C2836 1.410 . S
C2835 C2843 1.503 . S
C2836 C2835 1.410 . S
C2836 C2837 1.392 . S
C2836 C2839 1.511 . S
C2837 C2833 1.376 . S
C2837 C2836 1.392 . S
C2837 H2849 0.929 . S
C2838 C2834 1.531 . S
C2838 H2850 0.960 . S
C2838 H2851 0.962 . S
C2838 H2852 0.960 . S
C2839 C2836 1.511 . S
C2839 H2853 0.961 . S
C2839 H2854 0.961 . S
C2839 H2855 0.961 . S
C2840 C2841 1.370 . S
C2840 C2842 1.363 . S
C2840 H2856 0.931 . S
C2841 C2840 1.370 . S
C2841 C2845 1.408 . S
C2842 C2840 1.363 . S
C2842 C2843 1.370 . S
C2842 C2846 1.524 . S
C2843 C2835 1.503 . S
C2843 C2842 1.370 . S
C2843 C2844 1.403 . S
C2844 C2843 1.403 . S
C2844 C2845 1.404 . S
C2844 C2847 1.539 . S
C2845 C2841 1.408 . S
C2845 C2844 1.404 . S
C2845 H2857 0.930 . S
C2846 C2842 1.524 . S
C2846 H2858 0.956 . S
C2846 H2859 0.961 . S
C2846 H2860 0.961 . S
C2847 C2844 1.539 . S
C2847 H2861 0.958 . S
C2847 H2862 0.961 . S
C2847 H2863 0.960 . S
H2848 C2832 0.931 . S
H2849 C2837 0.929 . S
H2850 C2838 0.960 . S
H2851 C2838 0.962 . S
H2852 C2838 0.960 . S
H2853 C2839 0.961 . S
H2854 C2839 0.961 . S
H2855 C2839 0.961 . S
H2856 C2840 0.931 . S
H2857 C2845 0.930 . S
H2858 C2846 0.956 . S
H2859 C2846 0.961 . S
H2860 C2846 0.961 . S
H2861 C2847 0.958 . S
H2862 C2847 0.961 . S
H2863 C2847 0.960 . S
C2864 C2865 1.391 . S
C2864 C2866 1.394 . S
C2864 H2880 0.931 . S
C2865 C2864 1.391 . S
C2865 C2869 1.376 . S
C2866 C2864 1.394 . S
C2866 C2867 1.369 . S
C2866 C2870 1.531 . S
C2867 C2866 1.369 . S
C2867 C2868 1.410 . S
C2867 C2875 1.503 . S
C2868 C2867 1.410 . S
C2868 C2869 1.392 . S
C2868 C2871 1.511 . S
C2869 C2865 1.376 . S
C2869 C2868 1.392 . S
C2869 H2881 0.929 . S
C2870 C2866 1.531 . S
C2870 H2882 0.960 . S
C2870 H2883 0.962 . S
C2870 H2884 0.960 . S
C2871 C2868 1.511 . S
C2871 H2885 0.961 . S
C2871 H2886 0.961 . S
C2871 H2887 0.961 . S
C2872 C2873 1.370 . S
C2872 C2874 1.363 . S
C2872 H2888 0.931 . S
C2873 C2872 1.370 . S
C2873 C2877 1.408 . S
C2874 C2872 1.363 . S
C2874 C2875 1.370 . S
C2874 C2878 1.524 . S
C2875 C2867 1.503 . S
C2875 C2874 1.370 . S
C2875 C2876 1.403 . S
C2876 C2875 1.403 . S
C2876 C2877 1.404 . S
C2876 C2879 1.539 . S
C2877 C2873 1.408 . S
C2877 C2876 1.404 . S
C2877 H2889 0.930 . S
C2878 C2874 1.524 . S
C2878 H2890 0.956 . S
C2878 H2891 0.961 . S
C2878 H2892 0.961 . S
C2879 C2876 1.539 . S
C2879 H2893 0.958 . S
C2879 H2894 0.961 . S
C2879 H2895 0.960 . S
H2880 C2864 0.931 . S
H2881 C2869 0.929 . S
H2882 C2870 0.960 . S
H2883 C2870 0.962 . S
H2884 C2870 0.960 . S
H2885 C2871 0.961 . S
H2886 C2871 0.961 . S
H2887 C2871 0.961 . S
H2888 C2872 0.931 . S
H2889 C2877 0.930 . S
H2890 C2878 0.956 . S
H2891 C2878 0.961 . S
H2892 C2878 0.961 . S
H2893 C2879 0.958 . S
H2894 C2879 0.961 . S
H2895 C2879 0.960 . S
C2896 C2897 1.391 . S
C2896 C2898 1.394 . S
C2896 H2912 0.931 . S
C2897 C2896 1.391 . S
C2897 C2901 1.376 . S
C2898 C2896 1.394 . S
C2898 C2899 1.369 . S
C2898 C2902 1.531 . S
C2899 C2898 1.369 . S
C2899 C2900 1.410 . S
C2899 C2907 1.503 . S
C2900 C2899 1.410 . S
C2900 C2901 1.392 . S
C2900 C2903 1.511 . S
C2901 C2897 1.376 . S
C2901 C2900 1.392 . S
C2901 H2913 0.929 . S
C2902 C2898 1.531 . S
C2902 H2914 0.960 . S
C2902 H2915 0.962 . S
C2902 H2916 0.960 . S
C2903 C2900 1.511 . S
C2903 H2917 0.961 . S
C2903 H2918 0.961 . S
C2903 H2919 0.961 . S
C2904 C2905 1.370 . S
C2904 C2906 1.363 . S
C2904 H2920 0.931 . S
C2905 C2904 1.370 . S
C2905 C2909 1.408 . S
C2906 C2904 1.363 . S
C2906 C2907 1.370 . S
C2906 C2910 1.524 . S
C2907 C2899 1.503 . S
C2907 C2906 1.370 . S
C2907 C2908 1.403 . S
C2908 C2907 1.403 . S
C2908 C2909 1.404 . S
C2908 C2911 1.539 . S
C2909 C2905 1.408 . S
C2909 C2908 1.404 . S
C2909 H2921 0.930 . S
C2910 C2906 1.524 . S
C2910 H2922 0.956 . S
C2910 H2923 0.961 . S
C2910 H2924 0.961 . S
C2911 C2908 1.539 . S
C2911 H2925 0.958 . S
C2911 H2926 0.961 . S
C2911 H2927 0.960 . S
H2912 C2896 0.931 . S
H2913 C2901 0.929 . S
H2914 C2902 0.960 . S
H2915 C2902 0.962 . S
H2916 C2902 0.960 . S
H2917 C2903 0.961 . S
H2918 C2903 0.961 . S
H2919 C2903 0.961 . S
H2920 C2904 0.931 . S
H2921 C2909 0.930 . S
H2922 C2910 0.956 . S
H2923 C2910 0.961 . S
H2924 C2910 0.961 . S
H2925 C2911 0.958 . S
H2926 C2911 0.961 . S
H2927 C2911 0.960 . S
C2928 C2929 1.391 . S
C2928 C2930 1.394 . S
C2928 H2944 0.931 . S
C2929 C2928 1.391 . S
C2929 C2933 1.376 . S
C2930 C2928 1.394 . S
C2930 C2931 1.369 . S
C2930 C2934 1.531 . S
C2931 C2930 1.369 . S
C2931 C2932 1.410 . S
C2931 C2939 1.503 . S
C2932 C2931 1.410 . S
C2932 C2933 1.392 . S
C2932 C2935 1.511 . S
C2933 C2929 1.376 . S
C2933 C2932 1.392 . S
C2933 H2945 0.929 . S
C2934 C2930 1.531 . S
C2934 H2946 0.960 . S
C2934 H2947 0.962 . S
C2934 H2948 0.960 . S
C2935 C2932 1.511 . S
C2935 H2949 0.961 . S
C2935 H2950 0.961 . S
C2935 H2951 0.961 . S
C2936 C2937 1.370 . S
C2936 C2938 1.363 . S
C2936 H2952 0.931 . S
C2937 C2936 1.370 . S
C2937 C2941 1.408 . S
C2938 C2936 1.363 . S
C2938 C2939 1.370 . S
C2938 C2942 1.524 . S
C2939 C2931 1.503 . S
C2939 C2938 1.370 . S
C2939 C2940 1.403 . S
C2940 C2939 1.403 . S
C2940 C2941 1.404 . S
C2940 C2943 1.539 . S
C2941 C2937 1.408 . S
C2941 C2940 1.404 . S
C2941 H2953 0.930 . S
C2942 C2938 1.524 . S
C2942 H2954 0.956 . S
C2942 H2955 0.961 . S
C2942 H2956 0.961 . S
C2943 C2940 1.539 . S
C2943 H2957 0.958 . S
C2943 H2958 0.961 . S
C2943 H2959 0.960 . S
H2944 C2928 0.931 . S
H2945 C2933 0.929 . S
H2946 C2934 0.960 . S
H2947 C2934 0.962 . S
H2948 C2934 0.960 . S
H2949 C2935 0.961 . S
H2950 C2935 0.961 . S
H2951 C2935 0.961 . S
H2952 C2936 0.931 . S
H2953 C2941 0.930 . S
H2954 C2942 0.956 . S
H2955 C2942 0.961 . S
H2956 C2942 0.961 . S
H2957 C2943 0.958 . S
H2958 C2943 0.961 . S
H2959 C2943 0.960 . S
C2960 C2961 1.391 . S
C2960 C2962 1.394 . S
C2960 H2976 0.931 . S
C2961 C2960 1.391 . S
C2961 C2965 1.376 . S
C2962 C2960 1.394 . S
C2962 C2963 1.369 . S
C2962 C2966 1.531 . S
C2963 C2962 1.369 . S
C2963 C2964 1.410 . S
C2963 C2971 1.503 . S
C2964 C2963 1.410 . S
C2964 C2965 1.392 . S
C2964 C2967 1.511 . S
C2965 C2961 1.376 . S
C2965 C2964 1.392 . S
C2965 H2977 0.929 . S
C2966 C2962 1.531 . S
C2966 H2978 0.960 . S
C2966 H2979 0.962 . S
C2966 H2980 0.960 . S
C2967 C2964 1.511 . S
C2967 H2981 0.961 . S
C2967 H2982 0.961 . S
C2967 H2983 0.961 . S
C2968 C2969 1.370 . S
C2968 C2970 1.363 . S
C2968 H2984 0.931 . S
C2969 C2968 1.370 . S
C2969 C2973 1.408 . S
C2970 C2968 1.363 . S
C2970 C2971 1.370 . S
C2970 C2974 1.524 . S
C2971 C2963 1.503 . S
C2971 C2970 1.370 . S
C2971 C2972 1.403 . S
C2972 C2971 1.403 . S
C2972 C2973 1.404 . S
C2972 C2975 1.539 . S
C2973 C2969 1.408 . S
C2973 C2972 1.404 . S
C2973 H2985 0.930 . S
C2974 C2970 1.524 . S
C2974 H2986 0.956 . S
C2974 H2987 0.961 . S
C2974 H2988 0.961 . S
C2975 C2972 1.539 . S
C2975 H2989 0.958 . S
C2975 H2990 0.961 . S
C2975 H2991 0.960 . S
H2976 C2960 0.931 . S
H2977 C2965 0.929 . S
H2978 C2966 0.960 . S
H2979 C2966 0.962 . S
H2980 C2966 0.960 . S
H2981 C2967 0.961 . S
H2982 C2967 0.961 . S
H2983 C2967 0.961 . S
H2984 C2968 0.931 . S
H2985 C2973 0.930 . S
H2986 C2974 0.956 . S
H2987 C2974 0.961 . S
H2988 C2974 0.961 . S
H2989 C2975 0.958 . S
H2990 C2975 0.961 . S
H2991 C2975 0.960 . S
C2992 C2993 1.391 . S
C2992 C2994 1.394 . S
C2992 H3008 0.931 . S
C2993 C2992 1.391 . S
C2993 C2997 1.376 . S
C2994 C2992 1.394 . S
C2994 C2995 1.369 . S
C2994 C2998 1.531 . S
C2995 C2994 1.369 . S
C2995 C2996 1.410 . S
C2995 C3003 1.503 . S
C2996 C2995 1.410 . S
C2996 C2997 1.392 . S
C2996 C2999 1.511 . S
C2997 C2993 1.376 . S
C2997 C2996 1.392 . S
C2997 H3009 0.929 . S
C2998 C2994 1.531 . S
C2998 H3010 0.960 . S
C2998 H3011 0.962 . S
C2998 H3012 0.960 . S
C2999 C2996 1.511 . S
C2999 H3013 0.961 . S
C2999 H3014 0.961 . S
C2999 H3015 0.961 . S
C3000 C3001 1.370 . S
C3000 C3002 1.363 . S
C3000 H3016 0.931 . S
C3001 C3000 1.370 . S
C3001 C3005 1.408 . S
C3002 C3000 1.363 . S
C3002 C3003 1.370 . S
C3002 C3006 1.524 . S
C3003 C2995 1.503 . S
C3003 C3002 1.370 . S
C3003 C3004 1.403 . S
C3004 C3003 1.403 . S
C3004 C3005 1.404 . S
C3004 C3007 1.539 . S
C3005 C3001 1.408 . S
C3005 C3004 1.404 . S
C3005 H3017 0.930 . S
C3006 C3002 1.524 . S
C3006 H3018 0.956 . S
C3006 H3019 0.961 . S
C3006 H3020 0.961 . S
C3007 C3004 1.539 . S
C3007 H3021 0.958 . S
C3007 H3022 0.961 . S
C3007 H3023 0.960 . S
H3008 C2992 0.931 . S
H3009 C2997 0.929 . S
H3010 C2998 0.960 . S
H3011 C2998 0.962 . S
H3012 C2998 0.960 . S
H3013 C2999 0.961 . S
H3014 C2999 0.961 . S
H3015 C2999 0.961 . S
H3016 C3000 0.931 . S
H3017 C3005 0.930 . S
H3018 C3006 0.956 . S
H3019 C3006 0.961 . S
H3020 C3006 0.961 . S
H3021 C3007 0.958 . S
H3022 C3007 0.961 . S
H3023 C3007 0.960 . S
C3024 C3025 1.391 . S
C3024 C3026 1.394 . S
C3024 H3040 0.931 . S
C3025 C3024 1.391 . S
C3025 C3029 1.376 . S
C3026 C3024 1.394 . S
C3026 C3027 1.369 . S
C3026 C3030 1.531 . S
C3027 C3026 1.369 . S
C3027 C3028 1.410 . S
C3027 C3035 1.503 . S
C3028 C3027 1.410 . S
C3028 C3029 1.392 . S
C3028 C3031 1.511 . S
C3029 C3025 1.376 . S
C3029 C3028 1.392 . S
C3029 H3041 0.929 . S
C3030 C3026 1.531 . S
C3030 H3042 0.960 . S
C3030 H3043 0.962 . S
C3030 H3044 0.960 . S
C3031 C3028 1.511 . S
C3031 H3045 0.961 . S
C3031 H3046 0.961 . S
C3031 H3047 0.961 . S
C3032 C3033 1.370 . S
C3032 C3034 1.363 . S
C3032 H3048 0.931 . S
C3033 C3032 1.370 . S
C3033 C3037 1.408 . S
C3034 C3032 1.363 . S
C3034 C3035 1.370 . S
C3034 C3038 1.524 . S
C3035 C3027 1.503 . S
C3035 C3034 1.370 . S
C3035 C3036 1.403 . S
C3036 C3035 1.403 . S
C3036 C3037 1.404 . S
C3036 C3039 1.539 . S
C3037 C3033 1.408 . S
C3037 C3036 1.404 . S
C3037 H3049 0.930 . S
C3038 C3034 1.524 . S
C3038 H3050 0.956 . S
C3038 H3051 0.961 . S
C3038 H3052 0.961 . S
C3039 C3036 1.539 . S
C3039 H3053 0.958 . S
C3039 H3054 0.961 . S
C3039 H3055 0.960 . S
H3040 C3024 0.931 . S
H3041 C3029 0.929 . S
H3042 C3030 0.960 . S
H3043 C3030 0.962 . S
H3044 C3030 0.960 . S
H3045 C3031 0.961 . S
H3046 C3031 0.961 . S
H3047 C3031 0.961 . S
H3048 C3032 0.931 . S
H3049 C3037 0.930 . S
H3050 C3038 0.956 . S
H3051 C3038 0.961 . S
H3052 C3038 0.961 . S
H3053 C3039 0.958 . S
H3054 C3039 0.961 . S
H3055 C3039 0.960 . S
C3056 C3057 1.391 . S
C3056 C3058 1.394 . S
C3056 H3072 0.931 . S
C3057 C3056 1.391 . S
C3057 C3061 1.376 . S
C3058 C3056 1.394 . S
C3058 C3059 1.369 . S
C3058 C3062 1.531 . S
C3059 C3058 1.369 . S
C3059 C3060 1.410 . S
C3059 C3067 1.503 . S
C3060 C3059 1.410 . S
C3060 C3061 1.392 . S
C3060 C3063 1.511 . S
C3061 C3057 1.376 . S
C3061 C3060 1.392 . S
C3061 H3073 0.929 . S
C3062 C3058 1.531 . S
C3062 H3074 0.960 . S
C3062 H3075 0.962 . S
C3062 H3076 0.960 . S
C3063 C3060 1.511 . S
C3063 H3077 0.961 . S
C3063 H3078 0.961 . S
C3063 H3079 0.961 . S
C3064 C3065 1.370 . S
C3064 C3066 1.363 . S
C3064 H3080 0.931 . S
C3065 C3064 1.370 . S
C3065 C3069 1.408 . S
C3066 C3064 1.363 . S
C3066 C3067 1.370 . S
C3066 C3070 1.524 . S
C3067 C3059 1.503 . S
C3067 C3066 1.370 . S
C3067 C3068 1.403 . S
C3068 C3067 1.403 . S
C3068 C3069 1.404 . S
C3068 C3071 1.539 . S
C3069 C3065 1.408 . S
C3069 C3068 1.404 . S
C3069 H3081 0.930 . S
C3070 C3066 1.524 . S
C3070 H3082 0.956 . S
C3070 H3083 0.961 . S
C3070 H3084 0.961 . S
C3071 C3068 1.539 . S
C3071 H3085 0.958 . S
C3071 H3086 0.961 . S
C3071 H3087 0.960 . S
H3072 C3056 0.931 . S
H3073 C3061 0.929 . S
H3074 C3062 0.960 . S
H3075 C3062 0.962 . S
H3076 C3062 0.960 . S
H3077 C3063 0.961 . S
H3078 C3063 0.961 . S
H3079 C3063 0.961 . S
H3080 C3064 0.931 . S
H3081 C3069 0.930 . S
H3082 C3070 0.956 . S
H3083 C3070 0.961 . S
H3084 C3070 0.961 . S
H3085 C3071 0.958 . S
H3086 C3071 0.961 . S
H3087 C3071 0.960 . S
C3088 C3089 1.391 . S
C3088 C3090 1.394 . S
C3088 H3104 0.931 1_565 S
C3089 C3088 1.391 . S
C3089 C3093 1.376 . S
C3090 C3088 1.394 . S
C3090 C3091 1.369 . S
C3090 C3094 1.531 . S
C3091 C3090 1.369 . S
C3091 C3092 1.410 . S
C3091 C3099 1.503 . S
C3092 C3091 1.410 . S
C3092 C3093 1.392 . S
C3092 C3095 1.511 . S
C3093 C3089 1.376 . S
C3093 C3092 1.392 . S
C3093 H3105 0.929 . S
C3094 C3090 1.531 . S
C3094 H3106 0.960 . S
C3094 H3107 0.962 . S
C3094 H3108 0.960 1_565 S
C3095 C3092 1.511 . S
C3095 H3109 0.961 . S
C3095 H3110 0.961 . S
C3095 H3111 0.961 . S
C3096 C3097 1.370 . S
C3096 C3098 1.363 . S
C3096 H3112 0.931 . S
C3097 C3096 1.370 . S
C3097 C3101 1.408 . S
C3098 C3096 1.363 . S
C3098 C3099 1.370 . S
C3098 C3102 1.524 . S
C3099 C3091 1.503 . S
C3099 C3098 1.370 . S
C3099 C3100 1.403 . S
C3100 C3099 1.403 . S
C3100 C3101 1.404 . S
C3100 C3103 1.539 . S
C3101 C3097 1.408 . S
C3101 C3100 1.404 . S
C3101 H3113 0.930 . S
C3102 C3098 1.524 . S
C3102 H3114 0.956 . S
C3102 H3115 0.961 . S
C3102 H3116 0.961 . S
C3103 C3100 1.539 . S
C3103 H3117 0.958 . S
C3103 H3118 0.961 . S
C3103 H3119 0.960 . S
H3104 C3088 0.931 1_545 S
H3105 C3093 0.929 . S
H3106 C3094 0.960 . S
H3107 C3094 0.962 . S
H3108 C3094 0.960 1_545 S
H3109 C3095 0.961 . S
H3110 C3095 0.961 . S
H3111 C3095 0.961 . S
H3112 C3096 0.931 . S
H3113 C3101 0.930 . S
H3114 C3102 0.956 . S
H3115 C3102 0.961 . S
H3116 C3102 0.961 . S
H3117 C3103 0.958 . S
H3118 C3103 0.961 . S
H3119 C3103 0.960 . S
C3120 C3121 1.391 . S
C3120 C3122 1.394 . S
C3120 H3136 0.931 . S
C3121 C3120 1.391 . S
C3121 C3125 1.376 . S
C3122 C3120 1.394 . S
C3122 C3123 1.369 . S
C3122 C3126 1.531 . S
C3123 C3122 1.369 . S
C3123 C3124 1.410 . S
C3123 C3131 1.503 . S
C3124 C3123 1.410 . S
C3124 C3125 1.392 . S
C3124 C3127 1.511 . S
C3125 C3121 1.376 . S
C3125 C3124 1.392 . S
C3125 H3137 0.929 1_554 S
C3126 C3122 1.531 . S
C3126 H3138 0.960 . S
C3126 H3139 0.962 1_565 S
C3126 H3140 0.960 . S
C3127 C3124 1.511 . S
C3127 H3141 0.961 1_554 S
C3127 H3142 0.961 . S
C3127 H3143 0.961 . S
C3128 C3129 1.370 . S
C3128 C3130 1.363 1_545 S
C3128 H3144 0.931 . S
C3129 C3128 1.370 . S
C3129 C3133 1.374 1_545 S
C3130 C3128 1.363 1_565 S
C3130 C3131 1.370 . S
C3130 C3134 1.524 1_554 S
C3131 C3123 1.503 . S
C3131 C3130 1.370 . S
C3131 C3132 1.403 . S
C3132 C3131 1.403 . S
C3132 C3133 1.424 . S
C3132 C3135 1.539 . S
C3133 C3129 1.374 1_565 S
C3133 C3132 1.424 . S
C3133 H3145 0.937 . S
C3134 C3130 1.524 1_556 S
C3134 H3146 0.943 1_566 S
C3134 H3147 0.961 . S
C3134 H3148 0.961 1_565 S
C3135 C3132 1.539 . S
C3135 H3149 0.958 . S
C3135 H3150 0.961 . S
C3135 H3151 0.960 . S
H3136 C3120 0.931 . S
H3137 C3125 0.929 1_556 S
H3138 C3126 0.960 . S
H3139 C3126 0.962 1_545 S
H3140 C3126 0.960 . S
H3141 C3127 0.961 1_556 S
H3142 C3127 0.961 . S
H3143 C3127 0.961 . S
H3144 C3128 0.931 . S
H3145 C3133 0.937 . S
H3146 C3134 0.943 1_544 S
H3147 C3134 0.961 . S
H3148 C3134 0.961 1_545 S
H3149 C3135 0.958 . S
H3150 C3135 0.961 . S
H3151 C3135 0.960 . S
C3152 C3153 1.391 . S
C3152 C3154 1.394 . S
C3152 H3168 0.931 . S
C3153 C3152 1.391 . S
C3153 C3157 1.376 . S
C3154 C3152 1.394 . S
C3154 C3155 1.369 . S
C3154 C3158 1.531 . S
C3155 C3154 1.369 . S
C3155 C3156 1.410 . S
C3155 C3163 1.503 . S
C3156 C3155 1.410 . S
C3156 C3157 1.392 . S
C3156 C3159 1.511 . S
C3157 C3153 1.376 . S
C3157 C3156 1.392 . S
C3157 H3169 0.929 . S
C3158 C3154 1.531 . S
C3158 H3170 0.960 . S
C3158 H3171 0.962 . S
C3158 H3172 0.960 . S
C3159 C3156 1.511 . S
C3159 H3173 0.961 . S
C3159 H3174 0.961 . S
C3159 H3175 0.961 . S
C3160 C3161 1.370 . S
C3160 C3162 1.363 . S
C3160 H3176 0.931 . S
C3161 C3160 1.370 . S
C3161 C3165 1.408 . S
C3162 C3160 1.363 . S
C3162 C3163 1.370 . S
C3162 C3166 1.524 . S
C3163 C3155 1.503 . S
C3163 C3162 1.370 . S
C3163 C3164 1.403 . S
C3164 C3163 1.403 . S
C3164 C3165 1.404 . S
C3164 C3167 1.539 . S
C3165 C3161 1.408 . S
C3165 C3164 1.404 . S
C3165 H3177 0.930 . S
C3166 C3162 1.524 . S
C3166 H3178 0.956 . S
C3166 H3179 0.961 . S
C3166 H3180 0.961 . S
C3167 C3164 1.539 . S
C3167 H3181 0.958 . S
C3167 H3182 0.961 . S
C3167 H3183 0.960 . S
H3168 C3152 0.931 . S
H3169 C3157 0.929 . S
H3170 C3158 0.960 . S
H3171 C3158 0.962 . S
H3172 C3158 0.960 . S
H3173 C3159 0.961 . S
H3174 C3159 0.961 . S
H3175 C3159 0.961 . S
H3176 C3160 0.931 . S
H3177 C3165 0.930 . S
H3178 C3166 0.956 . S
H3179 C3166 0.961 . S
H3180 C3166 0.961 . S
H3181 C3167 0.958 . S
H3182 C3167 0.961 . S
H3183 C3167 0.960 . S
C3184 C3185 1.391 . S
C3184 C3186 1.394 . S
C3184 H3200 0.931 . S
C3185 C3184 1.391 . S
C3185 C3189 1.376 . S
C3186 C3184 1.394 . S
C3186 C3187 1.369 . S
C3186 C3190 1.531 . S
C3187 C3186 1.369 . S
C3187 C3188 1.410 . S
C3187 C3195 1.503 . S
C3188 C3187 1.410 . S
C3188 C3189 1.392 . S
C3188 C3191 1.511 . S
C3189 C3185 1.376 . S
C3189 C3188 1.392 . S
C3189 H3201 0.929 . S
C3190 C3186 1.531 . S
C3190 H3202 0.960 . S
C3190 H3203 0.962 . S
C3190 H3204 0.960 . S
C3191 C3188 1.511 . S
C3191 H3205 0.961 . S
C3191 H3206 0.961 . S
C3191 H3207 0.961 . S
C3192 C3193 1.370 . S
C3192 C3194 1.363 . S
C3192 H3208 0.931 . S
C3193 C3192 1.370 . S
C3193 C3197 1.408 . S
C3194 C3192 1.363 . S
C3194 C3195 1.370 . S
C3194 C3198 1.524 . S
C3195 C3187 1.503 . S
C3195 C3194 1.370 . S
C3195 C3196 1.403 . S
C3196 C3195 1.403 . S
C3196 C3197 1.404 . S
C3196 C3199 1.539 . S
C3197 C3193 1.408 . S
C3197 C3196 1.404 . S
C3197 H3209 0.930 . S
C3198 C3194 1.524 . S
C3198 H3210 0.956 . S
C3198 H3211 0.961 . S
C3198 H3212 0.961 . S
C3199 C3196 1.539 . S
C3199 H3213 0.958 . S
C3199 H3214 0.961 . S
C3199 H3215 0.960 . S
H3200 C3184 0.931 . S
H3201 C3189 0.929 . S
H3202 C3190 0.960 . S
H3203 C3190 0.962 . S
H3204 C3190 0.960 . S
H3205 C3191 0.961 . S
H3206 C3191 0.961 . S
H3207 C3191 0.961 . S
H3208 C3192 0.931 . S
H3209 C3197 0.930 . S
H3210 C3198 0.956 . S
H3211 C3198 0.961 . S
H3212 C3198 0.961 . S
H3213 C3199 0.958 . S
H3214 C3199 0.961 . S
H3215 C3199 0.960 . S
C3216 C3217 1.391 . S
C3216 C3218 1.394 . S
C3216 H3232 0.931 . S
C3217 C3216 1.391 . S
C3217 C3221 1.376 . S
C3218 C3216 1.394 . S
C3218 C3219 1.369 . S
C3218 C3222 1.531 . S
C3219 C3218 1.369 . S
C3219 C3220 1.410 . S
C3219 C3227 1.503 . S
C3220 C3219 1.410 . S
C3220 C3221 1.392 . S
C3220 C3223 1.511 . S
C3221 C3217 1.376 . S
C3221 C3220 1.392 . S
C3221 H3233 0.929 . S
C3222 C3218 1.531 . S
C3222 H3234 0.960 . S
C3222 H3235 0.962 . S
C3222 H3236 0.960 . S
C3223 C3220 1.511 . S
C3223 H3237 0.961 . S
C3223 H3238 0.961 . S
C3223 H3239 0.961 . S
C3224 C3225 1.370 . S
C3224 C3226 1.363 . S
C3224 H3240 0.931 . S
C3225 C3224 1.370 . S
C3225 C3229 1.408 . S
C3226 C3224 1.363 . S
C3226 C3227 1.370 . S
C3226 C3230 1.524 . S
C3227 C3219 1.503 . S
C3227 C3226 1.370 . S
C3227 C3228 1.403 . S
C3228 C3227 1.403 . S
C3228 C3229 1.404 . S
C3228 C3231 1.539 . S
C3229 C3225 1.408 . S
C3229 C3228 1.404 . S
C3229 H3241 0.930 . S
C3230 C3226 1.524 . S
C3230 H3242 0.956 . S
C3230 H3243 0.961 . S
C3230 H3244 0.961 . S
C3231 C3228 1.539 . S
C3231 H3245 0.958 . S
C3231 H3246 0.961 . S
C3231 H3247 0.960 . S
H3232 C3216 0.931 . S
H3233 C3221 0.929 . S
H3234 C3222 0.960 . S
H3235 C3222 0.962 . S
H3236 C3222 0.960 . S
H3237 C3223 0.961 . S
H3238 C3223 0.961 . S
H3239 C3223 0.961 . S
H3240 C3224 0.931 . S
H3241 C3229 0.930 . S
H3242 C3230 0.956 . S
H3243 C3230 0.961 . S
H3244 C3230 0.961 . S
H3245 C3231 0.958 . S
H3246 C3231 0.961 . S
H3247 C3231 0.960 . S
C3248 C3249 1.391 . S
C3248 C3250 1.394 . S
C3248 H3264 0.931 . S
C3249 C3248 1.391 . S
C3249 C3253 1.376 . S
C3250 C3248 1.394 . S
C3250 C3251 1.369 . S
C3250 C3254 1.531 . S
C3251 C3250 1.369 . S
C3251 C3252 1.410 . S
C3251 C3259 1.503 . S
C3252 C3251 1.410 . S
C3252 C3253 1.392 . S
C3252 C3255 1.511 . S
C3253 C3249 1.376 . S
C3253 C3252 1.392 . S
C3253 H3265 0.929 . S
C3254 C3250 1.531 . S
C3254 H3266 0.960 . S
C3254 H3267 0.962 . S
C3254 H3268 0.960 . S
C3255 C3252 1.511 . S
C3255 H3269 0.961 . S
C3255 H3270 0.961 . S
C3255 H3271 0.961 . S
C3256 C3257 1.370 . S
C3256 C3258 1.363 . S
C3256 H3272 0.931 . S
C3257 C3256 1.370 . S
C3257 C3261 1.408 . S
C3258 C3256 1.363 . S
C3258 C3259 1.370 . S
C3258 C3262 1.524 . S
C3259 C3251 1.503 . S
C3259 C3258 1.370 . S
C3259 C3260 1.403 . S
C3260 C3259 1.403 . S
C3260 C3261 1.404 . S
C3260 C3263 1.539 . S
C3261 C3257 1.408 . S
C3261 C3260 1.404 . S
C3261 H3273 0.930 . S
C3262 C3258 1.524 . S
C3262 H3274 0.956 . S
C3262 H3275 0.961 . S
C3262 H3276 0.961 . S
C3263 C3260 1.539 . S
C3263 H3277 0.958 . S
C3263 H3278 0.961 . S
C3263 H3279 0.960 . S
H3264 C3248 0.931 . S
H3265 C3253 0.929 . S
H3266 C3254 0.960 . S
H3267 C3254 0.962 . S
H3268 C3254 0.960 . S
H3269 C3255 0.961 . S
H3270 C3255 0.961 . S
H3271 C3255 0.961 . S
H3272 C3256 0.931 . S
H3273 C3261 0.930 . S
H3274 C3262 0.956 . S
H3275 C3262 0.961 . S
H3276 C3262 0.961 . S
H3277 C3263 0.958 . S
H3278 C3263 0.961 . S
H3279 C3263 0.960 . S
C3280 C3281 1.391 . S
C3280 C3282 1.394 . S
C3280 H3296 0.931 . S
C3281 C3280 1.391 . S
C3281 C3285 1.376 . S
C3282 C3280 1.394 . S
C3282 C3283 1.369 . S
C3282 C3286 1.531 . S
C3283 C3282 1.369 . S
C3283 C3284 1.410 . S
C3283 C3291 1.503 . S
C3284 C3283 1.410 . S
C3284 C3285 1.392 . S
C3284 C3287 1.511 . S
C3285 C3281 1.376 . S
C3285 C3284 1.392 . S
C3285 H3297 0.929 . S
C3286 C3282 1.531 . S
C3286 H3298 0.960 . S
C3286 H3299 0.962 . S
C3286 H3300 0.960 . S
C3287 C3284 1.511 . S
C3287 H3301 0.961 . S
C3287 H3302 0.961 . S
C3287 H3303 0.961 . S
C3288 C3289 1.370 . S
C3288 C3290 1.363 . S
C3288 H3304 0.931 . S
C3289 C3288 1.370 . S
C3289 C3293 1.408 . S
C3290 C3288 1.363 . S
C3290 C3291 1.370 . S
C3290 C3294 1.524 . S
C3291 C3283 1.503 . S
C3291 C3290 1.370 . S
C3291 C3292 1.403 . S
C3292 C3291 1.403 . S
C3292 C3293 1.404 . S
C3292 C3295 1.539 . S
C3293 C3289 1.408 . S
C3293 C3292 1.404 . S
C3293 H3305 0.930 . S
C3294 C3290 1.524 . S
C3294 H3306 0.956 . S
C3294 H3307 0.961 . S
C3294 H3308 0.961 . S
C3295 C3292 1.539 . S
C3295 H3309 0.958 . S
C3295 H3310 0.961 . S
C3295 H3311 0.960 . S
H3296 C3280 0.931 . S
H3297 C3285 0.929 . S
H3298 C3286 0.960 . S
H3299 C3286 0.962 . S
H3300 C3286 0.960 . S
H3301 C3287 0.961 . S
H3302 C3287 0.961 . S
H3303 C3287 0.961 . S
H3304 C3288 0.931 . S
H3305 C3293 0.930 . S
H3306 C3294 0.956 . S
H3307 C3294 0.961 . S
H3308 C3294 0.961 . S
H3309 C3295 0.958 . S
H3310 C3295 0.961 . S
H3311 C3295 0.960 . S
C3312 C3313 1.391 . S
C3312 C3314 1.394 . S
C3312 H3328 0.931 . S
C3313 C3312 1.391 . S
C3313 C3317 1.376 . S
C3314 C3312 1.394 . S
C3314 C3315 1.369 . S
C3314 C3318 1.531 . S
C3315 C3314 1.369 . S
C3315 C3316 1.410 . S
C3315 C3323 1.503 . S
C3316 C3315 1.410 . S
C3316 C3317 1.392 . S
C3316 C3319 1.511 . S
C3317 C3313 1.376 . S
C3317 C3316 1.392 . S
C3317 H3329 0.929 . S
C3318 C3314 1.531 . S
C3318 H3330 0.960 . S
C3318 H3331 0.962 . S
C3318 H3332 0.960 . S
C3319 C3316 1.511 . S
C3319 H3333 0.961 . S
C3319 H3334 0.961 . S
C3319 H3335 0.961 . S
C3320 C3321 1.370 . S
C3320 C3322 1.363 . S
C3320 H3336 0.931 . S
C3321 C3320 1.370 . S
C3321 C3325 1.408 . S
C3322 C3320 1.363 . S
C3322 C3323 1.370 . S
C3322 C3326 1.524 . S
C3323 C3315 1.503 . S
C3323 C3322 1.370 . S
C3323 C3324 1.403 . S
C3324 C3323 1.403 . S
C3324 C3325 1.404 . S
C3324 C3327 1.539 . S
C3325 C3321 1.408 . S
C3325 C3324 1.404 . S
C3325 H3337 0.930 . S
C3326 C3322 1.524 . S
C3326 H3338 0.956 . S
C3326 H3339 0.961 . S
C3326 H3340 0.961 . S
C3327 C3324 1.539 . S
C3327 H3341 0.958 . S
C3327 H3342 0.961 . S
C3327 H3343 0.960 . S
H3328 C3312 0.931 . S
H3329 C3317 0.929 . S
H3330 C3318 0.960 . S
H3331 C3318 0.962 . S
H3332 C3318 0.960 . S
H3333 C3319 0.961 . S
H3334 C3319 0.961 . S
H3335 C3319 0.961 . S
H3336 C3320 0.931 . S
H3337 C3325 0.930 . S
H3338 C3326 0.956 . S
H3339 C3326 0.961 . S
H3340 C3326 0.961 . S
H3341 C3327 0.958 . S
H3342 C3327 0.961 . S
H3343 C3327 0.960 . S
C3344 C3345 1.391 . S
C3344 C3346 1.394 . S
C3344 H3360 0.931 . S
C3345 C3344 1.391 . S
C3345 C3349 1.376 . S
C3346 C3344 1.394 . S
C3346 C3347 1.369 . S
C3346 C3350 1.531 . S
C3347 C3346 1.369 . S
C3347 C3348 1.410 . S
C3347 C3355 1.503 . S
C3348 C3347 1.410 . S
C3348 C3349 1.392 . S
C3348 C3351 1.511 . S
C3349 C3345 1.376 . S
C3349 C3348 1.392 . S
C3349 H3361 0.929 . S
C3350 C3346 1.531 . S
C3350 H3362 0.960 . S
C3350 H3363 0.962 . S
C3350 H3364 0.960 . S
C3351 C3348 1.511 . S
C3351 H3365 0.961 . S
C3351 H3366 0.961 . S
C3351 H3367 0.961 . S
C3352 C3353 1.370 . S
C3352 C3354 1.363 . S
C3352 H3368 0.931 . S
C3353 C3352 1.370 . S
C3353 C3357 1.408 . S
C3354 C3352 1.363 . S
C3354 C3355 1.370 . S
C3354 C3358 1.524 . S
C3355 C3347 1.503 . S
C3355 C3354 1.370 . S
C3355 C3356 1.403 . S
C3356 C3355 1.403 . S
C3356 C3357 1.404 . S
C3356 C3359 1.539 . S
C3357 C3353 1.408 . S
C3357 C3356 1.404 . S
C3357 H3369 0.930 . S
C3358 C3354 1.524 . S
C3358 H3370 0.956 . S
C3358 H3371 0.961 . S
C3358 H3372 0.961 1_455 S
C3359 C3356 1.539 . S
C3359 H3373 0.958 . S
C3359 H3374 0.961 . S
C3359 H3375 0.960 . S
H3360 C3344 0.931 . S
H3361 C3349 0.929 . S
H3362 C3350 0.960 . S
H3363 C3350 0.962 . S
H3364 C3350 0.960 . S
H3365 C3351 0.961 . S
H3366 C3351 0.961 . S
H3367 C3351 0.961 . S
H3368 C3352 0.931 . S
H3369 C3357 0.930 . S
H3370 C3358 0.956 . S
H3371 C3358 0.961 . S
H3372 C3358 0.961 1_655 S
H3373 C3359 0.958 . S
H3374 C3359 0.961 . S
H3375 C3359 0.960 . S
C3376 C3377 1.391 . S
C3376 C3378 1.394 . S
C3376 H3392 0.931 . S
C3377 C3376 1.391 . S
C3377 C3381 1.376 . S
C3378 C3376 1.394 . S
C3378 C3379 1.369 . S
C3378 C3382 1.531 . S
C3379 C3378 1.369 . S
C3379 C3380 1.410 . S
C3379 C3387 1.503 . S
C3380 C3379 1.410 . S
C3380 C3381 1.392 . S
C3380 C3383 1.511 . S
C3381 C3377 1.376 . S
C3381 C3380 1.392 . S
C3381 H3393 0.929 . S
C3382 C3378 1.531 . S
C3382 H3394 0.960 . S
C3382 H3395 0.962 . S
C3382 H3396 0.960 . S
C3383 C3380 1.511 . S
C3383 H3397 0.961 . S
C3383 H3398 0.961 . S
C3383 H3399 0.961 . S
C3384 C3385 1.370 . S
C3384 C3386 1.363 . S
C3384 H3400 0.931 . S
C3385 C3384 1.370 . S
C3385 C3389 1.408 . S
C3386 C3384 1.363 . S
C3386 C3387 1.370 . S
C3386 C3390 1.524 . S
C3387 C3379 1.503 . S
C3387 C3386 1.370 . S
C3387 C3388 1.403 . S
C3388 C3387 1.403 . S
C3388 C3389 1.404 . S
C3388 C3391 1.539 . S
C3389 C3385 1.408 . S
C3389 C3388 1.404 . S
C3389 H3401 0.930 . S
C3390 C3386 1.524 . S
C3390 H3402 0.956 . S
C3390 H3403 0.961 . S
C3390 H3404 0.961 . S
C3391 C3388 1.539 . S
C3391 H3405 0.958 . S
C3391 H3406 0.961 . S
C3391 H3407 0.960 . S
H3392 C3376 0.931 . S
H3393 C3381 0.929 . S
H3394 C3382 0.960 . S
H3395 C3382 0.962 . S
H3396 C3382 0.960 . S
H3397 C3383 0.961 . S
H3398 C3383 0.961 . S
H3399 C3383 0.961 . S
H3400 C3384 0.931 . S
H3401 C3389 0.930 . S
H3402 C3390 0.956 . S
H3403 C3390 0.961 . S
H3404 C3390 0.961 . S
H3405 C3391 0.958 . S
H3406 C3391 0.961 . S
H3407 C3391 0.960 . S
C3408 C3409 1.391 . S
C3408 C3410 1.394 . S
C3408 H3424 0.931 . S
C3409 C3408 1.391 . S
C3409 C3413 1.376 . S
C3410 C3408 1.394 . S
C3410 C3411 1.369 . S
C3410 C3414 1.531 . S
C3411 C3410 1.369 . S
C3411 C3412 1.410 . S
C3411 C3419 1.503 . S
C3412 C3411 1.410 . S
C3412 C3413 1.392 . S
C3412 C3415 1.511 . S
C3413 C3409 1.376 . S
C3413 C3412 1.392 . S
C3413 H3425 0.929 . S
C3414 C3410 1.531 . S
C3414 H3426 0.960 . S
C3414 H3427 0.962 . S
C3414 H3428 0.960 . S
C3415 C3412 1.511 . S
C3415 H3429 0.961 . S
C3415 H3430 0.961 . S
C3415 H3431 0.961 . S
C3416 C3417 1.370 . S
C3416 C3418 1.363 . S
C3416 H3432 0.931 1_556 S
C3417 C3416 1.370 . S
C3417 C3421 1.408 . S
C3418 C3416 1.363 . S
C3418 C3419 1.370 . S
C3418 C3422 1.524 . S
C3419 C3411 1.503 . S
C3419 C3418 1.370 . S
C3419 C3420 1.403 . S
C3420 C3419 1.403 . S
C3420 C3421 1.404 . S
C3420 C3423 1.539 . S
C3421 C3417 1.408 . S
C3421 C3420 1.404 . S
C3421 H3433 0.930 . S
C3422 C3418 1.524 . S
C3422 H3434 0.956 . S
C3422 H3435 0.961 . S
C3422 H3436 0.961 1_556 S
C3423 C3420 1.539 . S
C3423 H3437 0.958 . S
C3423 H3438 0.961 . S
C3423 H3439 0.960 . S
H3424 C3408 0.931 . S
H3425 C3413 0.929 . S
H3426 C3414 0.960 . S
H3427 C3414 0.962 . S
H3428 C3414 0.960 . S
H3429 C3415 0.961 . S
H3430 C3415 0.961 . S
H3431 C3415 0.961 . S
H3432 C3416 0.931 1_554 S
H3433 C3421 0.930 . S
H3434 C3422 0.956 . S
H3435 C3422 0.961 . S
H3436 C3422 0.961 1_554 S
H3437 C3423 0.958 . S
H3438 C3423 0.961 . S
H3439 C3423 0.960 . S
C3440 C3441 1.391 . S
C3440 C3442 1.394 . S
C3440 H3456 0.931 . S
C3441 C3440 1.391 . S
C3441 C3445 1.376 . S
C3442 C3440 1.394 . S
C3442 C3443 1.369 . S
C3442 C3446 1.531 . S
C3443 C3442 1.369 . S
C3443 C3444 1.410 . S
C3443 C3451 1.503 . S
C3444 C3443 1.410 . S
C3444 C3445 1.392 . S
C3444 C3447 1.511 . S
C3445 C3441 1.376 . S
C3445 C3444 1.392 . S
C3445 H3457 0.929 . S
C3446 C3442 1.531 . S
C3446 H3458 0.960 . S
C3446 H3459 0.962 . S
C3446 H3460 0.960 . S
C3447 C3444 1.511 . S
C3447 H3461 0.961 . S
C3447 H3462 0.961 . S
C3447 H3463 0.961 . S
C3448 C3449 1.370 . S
C3448 C3450 1.363 . S
C3448 H3464 0.931 . S
C3449 C3448 1.370 . S
C3449 C3453 1.408 . S
C3450 C3448 1.363 . S
C3450 C3451 1.370 . S
C3450 C3454 1.524 . S
C3451 C3443 1.503 . S
C3451 C3450 1.370 . S
C3451 C3452 1.403 . S
C3452 C3451 1.403 . S
C3452 C3453 1.404 . S
C3452 C3455 1.539 . S
C3453 C3449 1.408 . S
C3453 C3452 1.404 . S
C3453 H3465 0.930 . S
C3454 C3450 1.524 . S
C3454 H3466 0.956 . S
C3454 H3467 0.961 . S
C3454 H3468 0.961 . S
C3455 C3452 1.539 . S
C3455 H3469 0.958 . S
C3455 H3470 0.961 . S
C3455 H3471 0.960 . S
H3456 C3440 0.931 . S
H3457 C3445 0.929 . S
H3458 C3446 0.960 . S
H3459 C3446 0.962 . S
H3460 C3446 0.960 . S
H3461 C3447 0.961 . S
H3462 C3447 0.961 . S
H3463 C3447 0.961 . S
H3464 C3448 0.931 . S
H3465 C3453 0.930 . S
H3466 C3454 0.956 . S
H3467 C3454 0.961 . S
H3468 C3454 0.961 . S
H3469 C3455 0.958 . S
H3470 C3455 0.961 . S
H3471 C3455 0.960 . S
C3472 C3473 1.391 . S
C3472 C3474 1.394 . S
C3472 H3488 0.931 . S
C3473 C3472 1.391 . S
C3473 C3477 1.376 . S
C3474 C3472 1.394 . S
C3474 C3475 1.369 . S
C3474 C3478 1.531 . S
C3475 C3474 1.369 . S
C3475 C3476 1.410 . S
C3475 C3483 1.503 . S
C3476 C3475 1.410 . S
C3476 C3477 1.392 . S
C3476 C3479 1.511 . S
C3477 C3473 1.376 . S
C3477 C3476 1.392 . S
C3477 H3489 0.929 . S
C3478 C3474 1.531 . S
C3478 H3490 0.960 . S
C3478 H3491 0.962 . S
C3478 H3492 0.960 . S
C3479 C3476 1.511 . S
C3479 H3493 0.961 . S
C3479 H3494 0.961 . S
C3479 H3495 0.961 1_455 S
C3480 C3481 1.370 . S
C3480 C3482 1.363 . S
C3480 H3496 0.931 . S
C3481 C3480 1.370 . S
C3481 C3485 1.408 . S
C3482 C3480 1.363 . S
C3482 C3483 1.370 . S
C3482 C3486 1.524 . S
C3483 C3475 1.503 . S
C3483 C3482 1.370 . S
C3483 C3484 1.403 . S
C3484 C3483 1.403 . S
C3484 C3485 1.404 . S
C3484 C3487 1.539 1_455 S
C3485 C3481 1.408 . S
C3485 C3484 1.404 . S
C3485 H3497 0.930 . S
C3486 C3482 1.524 . S
C3486 H3498 0.956 . S
C3486 H3499 0.961 . S
C3486 H3500 0.961 . S
C3487 C3484 1.539 1_655 S
C3487 H3501 0.958 1_655 S
C3487 H3502 0.961 . S
C3487 H3503 0.960 . S
H3488 C3472 0.931 . S
H3489 C3477 0.929 . S
H3490 C3478 0.960 . S
H3491 C3478 0.962 . S
H3492 C3478 0.960 . S
H3493 C3479 0.961 . S
H3494 C3479 0.961 . S
H3495 C3479 0.961 1_655 S
H3496 C3480 0.931 . S
H3497 C3485 0.930 . S
H3498 C3486 0.956 . S
H3499 C3486 0.961 . S
H3500 C3486 0.961 . S
H3501 C3487 0.958 1_455 S
H3502 C3487 0.961 . S
H3503 C3487 0.960 . S
C3504 C3505 1.391 . S
C3504 C3506 1.394 . S
C3504 H3520 0.931 . S
C3505 C3504 1.391 . S
C3505 C3509 1.376 . S
C3506 C3504 1.394 . S
C3506 C3507 1.369 . S
C3506 C3510 1.531 . S
C3507 C3506 1.369 . S
C3507 C3508 1.410 . S
C3507 C3515 1.503 . S
C3508 C3507 1.410 . S
C3508 C3509 1.392 . S
C3508 C3511 1.511 . S
C3509 C3505 1.376 . S
C3509 C3508 1.392 . S
C3509 H3521 0.929 . S
C3510 C3506 1.531 . S
C3510 H3522 0.960 . S
C3510 H3523 0.962 . S
C3510 H3524 0.960 . S
C3511 C3508 1.511 . S
C3511 H3525 0.961 . S
C3511 H3526 0.961 . S
C3511 H3527 0.961 . S
C3512 C3513 1.370 . S
C3512 C3514 1.363 . S
C3512 H3528 0.931 . S
C3513 C3512 1.370 . S
C3513 C3517 1.408 . S
C3514 C3512 1.363 . S
C3514 C3515 1.370 . S
C3514 C3518 1.524 . S
C3515 C3507 1.503 . S
C3515 C3514 1.370 . S
C3515 C3516 1.403 . S
C3516 C3515 1.403 . S
C3516 C3517 1.404 . S
C3516 C3519 1.539 . S
C3517 C3513 1.408 . S
C3517 C3516 1.404 . S
C3517 H3529 0.930 . S
C3518 C3514 1.524 . S
C3518 H3530 0.956 . S
C3518 H3531 0.961 . S
C3518 H3532 0.961 . S
C3519 C3516 1.539 . S
C3519 H3533 0.958 . S
C3519 H3534 0.961 . S
C3519 H3535 0.960 . S
H3520 C3504 0.931 . S
H3521 C3509 0.929 . S
H3522 C3510 0.960 . S
H3523 C3510 0.962 . S
H3524 C3510 0.960 . S
H3525 C3511 0.961 . S
H3526 C3511 0.961 . S
H3527 C3511 0.961 . S
H3528 C3512 0.931 . S
H3529 C3517 0.930 . S
H3530 C3518 0.956 . S
H3531 C3518 0.961 . S
H3532 C3518 0.961 . S
H3533 C3519 0.958 . S
H3534 C3519 0.961 . S
H3535 C3519 0.960 . S
C3536 C3537 1.391 . S
C3536 C3538 1.394 . S
C3536 H3552 0.931 . S
C3537 C3536 1.391 . S
C3537 C3541 1.376 . S
C3538 C3536 1.394 . S
C3538 C3539 1.369 . S
C3538 C3542 1.531 . S
C3539 C3538 1.369 . S
C3539 C3540 1.410 . S
C3539 C3547 1.503 . S
C3540 C3539 1.410 . S
C3540 C3541 1.392 . S
C3540 C3543 1.511 . S
C3541 C3537 1.376 . S
C3541 C3540 1.392 . S
C3541 H3553 0.929 . S
C3542 C3538 1.531 . S
C3542 H3554 0.960 . S
C3542 H3555 0.962 . S
C3542 H3556 0.960 . S
C3543 C3540 1.511 . S
C3543 H3557 0.961 . S
C3543 H3558 0.961 . S
C3543 H3559 0.961 . S
C3544 C3545 1.370 . S
C3544 C3546 1.363 . S
C3544 H3560 0.931 . S
C3545 C3544 1.370 . S
C3545 C3549 1.408 . S
C3546 C3544 1.363 . S
C3546 C3547 1.370 . S
C3546 C3550 1.524 . S
C3547 C3539 1.503 . S
C3547 C3546 1.370 . S
C3547 C3548 1.403 . S
C3548 C3547 1.403 . S
C3548 C3549 1.404 . S
C3548 C3551 1.539 . S
C3549 C3545 1.408 . S
C3549 C3548 1.404 . S
C3549 H3561 0.930 . S
C3550 C3546 1.524 . S
C3550 H3562 0.956 . S
C3550 H3563 0.961 . S
C3550 H3564 0.961 . S
C3551 C3548 1.539 . S
C3551 H3565 0.958 . S
C3551 H3566 0.961 . S
C3551 H3567 0.960 . S
H3552 C3536 0.931 . S
H3553 C3541 0.929 . S
H3554 C3542 0.960 . S
H3555 C3542 0.962 . S
H3556 C3542 0.960 . S
H3557 C3543 0.961 . S
H3558 C3543 0.961 . S
H3559 C3543 0.961 . S
H3560 C3544 0.931 . S
H3561 C3549 0.930 . S
H3562 C3550 0.956 . S
H3563 C3550 0.961 . S
H3564 C3550 0.961 . S
H3565 C3551 0.958 . S
H3566 C3551 0.961 . S
H3567 C3551 0.960 . S
C3568 C3569 1.391 . S
C3568 C3570 1.394 . S
C3568 H3584 0.931 . S
C3569 C3568 1.391 . S
C3569 C3573 1.376 . S
C3570 C3568 1.394 . S
C3570 C3571 1.369 . S
C3570 C3574 1.531 . S
C3571 C3570 1.369 . S
C3571 C3572 1.410 . S
C3571 C3579 1.503 . S
C3572 C3571 1.410 . S
C3572 C3573 1.392 . S
C3572 C3575 1.511 . S
C3573 C3569 1.376 . S
C3573 C3572 1.392 . S
C3573 H3585 0.929 . S
C3574 C3570 1.531 . S
C3574 H3586 0.960 . S
C3574 H3587 0.962 . S
C3574 H3588 0.960 . S
C3575 C3572 1.511 . S
C3575 H3589 0.961 . S
C3575 H3590 0.961 . S
C3575 H3591 0.961 . S
C3576 C3577 1.370 . S
C3576 C3578 1.363 . S
C3576 H3592 0.931 . S
C3577 C3576 1.370 . S
C3577 C3581 1.408 . S
C3578 C3576 1.363 . S
C3578 C3579 1.370 . S
C3578 C3582 1.524 . S
C3579 C3571 1.503 . S
C3579 C3578 1.370 . S
C3579 C3580 1.403 . S
C3580 C3579 1.403 . S
C3580 C3581 1.404 . S
C3580 C3583 1.539 . S
C3581 C3577 1.408 . S
C3581 C3580 1.404 . S
C3581 H3593 0.930 . S
C3582 C3578 1.524 . S
C3582 H3594 0.956 . S
C3582 H3595 0.961 . S
C3582 H3596 0.961 . S
C3583 C3580 1.539 . S
C3583 H3597 0.958 . S
C3583 H3598 0.961 . S
C3583 H3599 0.960 . S
H3584 C3568 0.931 . S
H3585 C3573 0.929 . S
H3586 C3574 0.960 . S
H3587 C3574 0.962 . S
H3588 C3574 0.960 . S
H3589 C3575 0.961 . S
H3590 C3575 0.961 . S
H3591 C3575 0.961 . S
H3592 C3576 0.931 . S
H3593 C3581 0.930 . S
H3594 C3582 0.956 . S
H3595 C3582 0.961 . S
H3596 C3582 0.961 . S
H3597 C3583 0.958 . S
H3598 C3583 0.961 . S
H3599 C3583 0.960 . S
C3600 C3601 1.391 . S
C3600 C3602 1.394 . S
C3600 H3616 0.931 . S
C3601 C3600 1.391 . S
C3601 C3605 1.376 . S
C3602 C3600 1.394 . S
C3602 C3603 1.369 . S
C3602 C3606 1.531 . S
C3603 C3602 1.369 . S
C3603 C3604 1.410 . S
C3603 C3611 1.503 . S
C3604 C3603 1.410 . S
C3604 C3605 1.392 . S
C3604 C3607 1.511 . S
C3605 C3601 1.376 . S
C3605 C3604 1.392 . S
C3605 H3617 0.929 . S
C3606 C3602 1.531 . S
C3606 H3618 0.960 . S
C3606 H3619 0.962 . S
C3606 H3620 0.960 . S
C3607 C3604 1.511 . S
C3607 H3621 0.961 . S
C3607 H3622 0.961 . S
C3607 H3623 0.961 . S
C3608 C3609 1.374 1_556 S
C3608 C3610 1.339 1_455 S
C3608 H3624 0.952 . S
C3609 C3608 1.374 1_554 S
C3609 C3613 1.401 1_455 S
C3610 C3608 1.339 1_655 S
C3610 C3611 1.370 . S
C3610 C3614 1.524 . S
C3611 C3603 1.503 . S
C3611 C3610 1.370 . S
C3611 C3612 1.403 . S
C3612 C3611 1.403 . S
C3612 C3613 1.404 1_556 S
C3612 C3615 1.539 . S
C3613 C3609 1.401 1_655 S
C3613 C3612 1.404 1_554 S
C3613 H3625 0.930 . S
C3614 C3610 1.524 . S
C3614 H3626 0.956 . S
C3614 H3627 0.961 . S
C3614 H3628 0.938 1_655 S
C3615 C3612 1.539 . S
C3615 H3629 0.958 . S
C3615 H3630 0.961 . S
C3615 H3631 0.960 . S
H3616 C3600 0.931 . S
H3617 C3605 0.929 . S
H3618 C3606 0.960 . S
H3619 C3606 0.962 . S
H3620 C3606 0.960 . S
H3621 C3607 0.961 . S
H3622 C3607 0.961 . S
H3623 C3607 0.961 . S
H3624 C3608 0.952 . S
H3625 C3613 0.930 . S
H3626 C3614 0.956 . S
H3627 C3614 0.961 . S
H3628 C3614 0.938 1_455 S
H3629 C3615 0.958 . S
H3630 C3615 0.961 . S
H3631 C3615 0.960 . S
C3632 C3633 1.391 . S
C3632 C3634 1.394 . S
C3632 H3648 0.931 . S
C3633 C3632 1.391 . S
C3633 C3637 1.376 . S
C3634 C3632 1.394 . S
C3634 C3635 1.369 . S
C3634 C3638 1.531 . S
C3635 C3634 1.369 . S
C3635 C3636 1.410 . S
C3635 C3643 1.503 . S
C3636 C3635 1.410 . S
C3636 C3637 1.392 . S
C3636 C3639 1.511 . S
C3637 C3633 1.376 . S
C3637 C3636 1.392 . S
C3637 H3649 0.929 . S
C3638 C3634 1.531 . S
C3638 H3650 0.960 . S
C3638 H3651 0.962 . S
C3638 H3652 0.960 . S
C3639 C3636 1.511 . S
C3639 H3653 0.961 . S
C3639 H3654 0.961 . S
C3639 H3655 0.961 . S
C3640 C3641 1.370 . S
C3640 C3642 1.363 . S
C3640 H3656 0.931 . S
C3641 C3640 1.370 . S
C3641 C3645 1.408 . S
C3642 C3640 1.363 . S
C3642 C3643 1.370 . S
C3642 C3646 1.524 . S
C3643 C3635 1.503 . S
C3643 C3642 1.370 . S
C3643 C3644 1.403 . S
C3644 C3643 1.403 . S
C3644 C3645 1.404 . S
C3644 C3647 1.539 . S
C3645 C3641 1.408 . S
C3645 C3644 1.404 . S
C3645 H3657 0.930 . S
C3646 C3642 1.524 . S
C3646 H3658 0.956 . S
C3646 H3659 0.961 . S
C3646 H3660 0.961 . S
C3647 C3644 1.539 . S
C3647 H3661 0.958 . S
C3647 H3662 0.961 . S
C3647 H3663 0.960 . S
H3648 C3632 0.931 . S
H3649 C3637 0.929 . S
H3650 C3638 0.960 . S
H3651 C3638 0.962 . S
H3652 C3638 0.960 . S
H3653 C3639 0.961 . S
H3654 C3639 0.961 . S
H3655 C3639 0.961 . S
H3656 C3640 0.931 . S
H3657 C3645 0.930 . S
H3658 C3646 0.956 . S
H3659 C3646 0.961 . S
H3660 C3646 0.961 . S
H3661 C3647 0.958 . S
H3662 C3647 0.961 . S
H3663 C3647 0.960 . S
C3664 C3665 1.391 . S
C3664 C3666 1.394 . S
C3664 H3680 0.931 . S
C3665 C3664 1.391 . S
C3665 C3669 1.376 . S
C3666 C3664 1.394 . S
C3666 C3667 1.369 . S
C3666 C3670 1.531 . S
C3667 C3666 1.369 . S
C3667 C3668 1.410 . S
C3667 C3675 1.503 . S
C3668 C3667 1.410 . S
C3668 C3669 1.392 . S
C3668 C3671 1.511 . S
C3669 C3665 1.376 . S
C3669 C3668 1.392 . S
C3669 H3681 0.929 . S
C3670 C3666 1.531 . S
C3670 H3682 0.960 . S
C3670 H3683 0.962 . S
C3670 H3684 0.960 . S
C3671 C3668 1.511 . S
C3671 H3685 0.961 . S
C3671 H3686 0.961 . S
C3671 H3687 0.961 . S
C3672 C3673 1.370 . S
C3672 C3674 1.363 . S
C3672 H3688 0.931 . S
C3673 C3672 1.370 . S
C3673 C3677 1.408 . S
C3674 C3672 1.363 . S
C3674 C3675 1.370 . S
C3674 C3678 1.524 . S
C3675 C3667 1.503 . S
C3675 C3674 1.370 . S
C3675 C3676 1.403 . S
C3676 C3675 1.403 . S
C3676 C3677 1.404 . S
C3676 C3679 1.539 . S
C3677 C3673 1.408 . S
C3677 C3676 1.404 . S
C3677 H3689 0.930 . S
C3678 C3674 1.524 . S
C3678 H3690 0.956 . S
C3678 H3691 0.961 . S
C3678 H3692 0.961 . S
C3679 C3676 1.539 . S
C3679 H3693 0.958 . S
C3679 H3694 0.961 . S
C3679 H3695 0.960 . S
H3680 C3664 0.931 . S
H3681 C3669 0.929 . S
H3682 C3670 0.960 . S
H3683 C3670 0.962 . S
H3684 C3670 0.960 . S
H3685 C3671 0.961 . S
H3686 C3671 0.961 . S
H3687 C3671 0.961 . S
H3688 C3672 0.931 . S
H3689 C3677 0.930 . S
H3690 C3678 0.956 . S
H3691 C3678 0.961 . S
H3692 C3678 0.961 . S
H3693 C3679 0.958 . S
H3694 C3679 0.961 . S
H3695 C3679 0.960 . S
C3696 C3697 1.391 . S
C3696 C3698 1.394 . S
C3696 H3712 0.931 . S
C3697 C3696 1.391 . S
C3697 C3701 1.376 . S
C3698 C3696 1.394 . S
C3698 C3699 1.369 . S
C3698 C3702 1.531 . S
C3699 C3698 1.369 . S
C3699 C3700 1.410 . S
C3699 C3707 1.503 . S
C3700 C3699 1.410 . S
C3700 C3701 1.392 . S
C3700 C3703 1.511 . S
C3701 C3697 1.376 . S
C3701 C3700 1.392 . S
C3701 H3713 0.929 . S
C3702 C3698 1.531 . S
C3702 H3714 0.960 . S
C3702 H3715 0.962 . S
C3702 H3716 0.960 . S
C3703 C3700 1.511 . S
C3703 H3717 0.961 . S
C3703 H3718 0.961 . S
C3703 H3719 0.961 . S
C3704 C3705 1.370 . S
C3704 C3706 1.363 . S
C3704 H3720 0.931 . S
C3705 C3704 1.370 . S
C3705 C3709 1.408 . S
C3706 C3704 1.363 . S
C3706 C3707 1.370 . S
C3706 C3710 1.524 . S
C3707 C3699 1.503 . S
C3707 C3706 1.370 . S
C3707 C3708 1.403 . S
C3708 C3707 1.403 . S
C3708 C3709 1.404 . S
C3708 C3711 1.539 . S
C3709 C3705 1.408 . S
C3709 C3708 1.404 . S
C3709 H3721 0.930 . S
C3710 C3706 1.524 . S
C3710 H3722 0.956 . S
C3710 H3723 0.961 . S
C3710 H3724 0.961 . S
C3711 C3708 1.539 . S
C3711 H3725 0.958 . S
C3711 H3726 0.961 . S
C3711 H3727 0.960 . S
H3712 C3696 0.931 . S
H3713 C3701 0.929 . S
H3714 C3702 0.960 . S
H3715 C3702 0.962 . S
H3716 C3702 0.960 . S
H3717 C3703 0.961 . S
H3718 C3703 0.961 . S
H3719 C3703 0.961 . S
H3720 C3704 0.931 . S
H3721 C3709 0.930 . S
H3722 C3710 0.956 . S
H3723 C3710 0.961 . S
H3724 C3710 0.961 . S
H3725 C3711 0.958 . S
H3726 C3711 0.961 . S
H3727 C3711 0.960 . S
C3728 C3729 1.391 . S
C3728 C3730 1.394 . S
C3728 H3744 0.931 . S
C3729 C3728 1.391 . S
C3729 C3733 1.376 . S
C3730 C3728 1.394 . S
C3730 C3731 1.369 . S
C3730 C3734 1.531 . S
C3731 C3730 1.369 . S
C3731 C3732 1.410 . S
C3731 C3739 1.503 . S
C3732 C3731 1.410 . S
C3732 C3733 1.392 . S
C3732 C3735 1.511 . S
C3733 C3729 1.376 . S
C3733 C3732 1.392 . S
C3733 H3745 0.929 . S
C3734 C3730 1.531 . S
C3734 H3746 0.960 . S
C3734 H3747 0.962 . S
C3734 H3748 0.960 . S
C3735 C3732 1.511 . S
C3735 H3749 0.961 . S
C3735 H3750 0.961 . S
C3735 H3751 0.961 . S
C3736 C3737 1.370 . S
C3736 C3738 1.363 . S
C3736 H3752 0.931 . S
C3737 C3736 1.370 . S
C3737 C3741 1.408 . S
C3738 C3736 1.363 . S
C3738 C3739 1.370 . S
C3738 C3742 1.524 . S
C3739 C3731 1.503 . S
C3739 C3738 1.370 . S
C3739 C3740 1.403 . S
C3740 C3739 1.403 . S
C3740 C3741 1.404 . S
C3740 C3743 1.539 . S
C3741 C3737 1.408 . S
C3741 C3740 1.404 . S
C3741 H3753 0.930 . S
C3742 C3738 1.524 . S
C3742 H3754 0.956 . S
C3742 H3755 0.961 . S
C3742 H3756 0.961 . S
C3743 C3740 1.539 . S
C3743 H3757 0.958 . S
C3743 H3758 0.961 . S
C3743 H3759 0.960 . S
H3744 C3728 0.931 . S
H3745 C3733 0.929 . S
H3746 C3734 0.960 . S
H3747 C3734 0.962 . S
H3748 C3734 0.960 . S
H3749 C3735 0.961 . S
H3750 C3735 0.961 . S
H3751 C3735 0.961 . S
H3752 C3736 0.931 . S
H3753 C3741 0.930 . S
H3754 C3742 0.956 . S
H3755 C3742 0.961 . S
H3756 C3742 0.961 . S
H3757 C3743 0.958 . S
H3758 C3743 0.961 . S
H3759 C3743 0.960 . S
C3760 C3761 1.391 . S
C3760 C3762 1.394 . S
C3760 H3776 0.931 . S
C3761 C3760 1.391 . S
C3761 C3765 1.376 . S
C3762 C3760 1.394 . S
C3762 C3763 1.369 . S
C3762 C3766 1.531 . S
C3763 C3762 1.369 . S
C3763 C3764 1.410 . S
C3763 C3771 1.503 . S
C3764 C3763 1.410 . S
C3764 C3765 1.392 . S
C3764 C3767 1.511 . S
C3765 C3761 1.376 . S
C3765 C3764 1.392 . S
C3765 H3777 0.929 . S
C3766 C3762 1.531 . S
C3766 H3778 0.960 . S
C3766 H3779 0.962 . S
C3766 H3780 0.960 . S
C3767 C3764 1.511 . S
C3767 H3781 0.961 . S
C3767 H3782 0.961 . S
C3767 H3783 0.961 . S
C3768 C3769 1.370 . S
C3768 C3770 1.363 . S
C3768 H3784 0.931 . S
C3769 C3768 1.370 . S
C3769 C3773 1.408 . S
C3770 C3768 1.363 . S
C3770 C3771 1.370 . S
C3770 C3774 1.524 . S
C3771 C3763 1.503 . S
C3771 C3770 1.370 . S
C3771 C3772 1.403 . S
C3772 C3771 1.403 . S
C3772 C3773 1.404 . S
C3772 C3775 1.539 . S
C3773 C3769 1.408 . S
C3773 C3772 1.404 . S
C3773 H3785 0.930 . S
C3774 C3770 1.524 . S
C3774 H3786 0.956 . S
C3774 H3787 0.961 . S
C3774 H3788 0.961 . S
C3775 C3772 1.539 . S
C3775 H3789 0.958 . S
C3775 H3790 0.961 . S
C3775 H3791 0.960 . S
H3776 C3760 0.931 . S
H3777 C3765 0.929 . S
H3778 C3766 0.960 . S
H3779 C3766 0.962 . S
H3780 C3766 0.960 . S
H3781 C3767 0.961 . S
H3782 C3767 0.961 . S
H3783 C3767 0.961 . S
H3784 C3768 0.931 . S
H3785 C3773 0.930 . S
H3786 C3774 0.956 . S
H3787 C3774 0.961 . S
H3788 C3774 0.961 . S
H3789 C3775 0.958 . S
H3790 C3775 0.961 . S
H3791 C3775 0.960 . S
C3792 C3793 1.391 . S
C3792 C3794 1.394 . S
C3792 H3808 0.931 . S
C3793 C3792 1.391 . S
C3793 C3797 1.376 . S
C3794 C3792 1.394 . S
C3794 C3795 1.369 . S
C3794 C3798 1.531 . S
C3795 C3794 1.369 . S
C3795 C3796 1.410 . S
C3795 C3803 1.503 . S
C3796 C3795 1.410 . S
C3796 C3797 1.392 . S
C3796 C3799 1.511 . S
C3797 C3793 1.376 . S
C3797 C3796 1.392 . S
C3797 H3809 0.929 . S
C3798 C3794 1.531 . S
C3798 H3810 0.960 . S
C3798 H3811 0.962 . S
C3798 H3812 0.960 . S
C3799 C3796 1.511 . S
C3799 H3813 0.961 . S
C3799 H3814 0.961 . S
C3799 H3815 0.961 . S
C3800 C3801 1.370 . S
C3800 C3802 1.363 . S
C3800 H3816 0.931 . S
C3801 C3800 1.370 . S
C3801 C3805 1.408 . S
C3802 C3800 1.363 . S
C3802 C3803 1.370 . S
C3802 C3806 1.524 . S
C3803 C3795 1.503 . S
C3803 C3802 1.370 . S
C3803 C3804 1.403 . S
C3804 C3803 1.403 . S
C3804 C3805 1.404 . S
C3804 C3807 1.539 . S
C3805 C3801 1.408 . S
C3805 C3804 1.404 . S
C3805 H3817 0.930 . S
C3806 C3802 1.524 . S
C3806 H3818 0.956 . S
C3806 H3819 0.961 . S
C3806 H3820 0.961 . S
C3807 C3804 1.539 . S
C3807 H3821 0.958 . S
C3807 H3822 0.961 . S
C3807 H3823 0.960 . S
H3808 C3792 0.931 . S
H3809 C3797 0.929 . S
H3810 C3798 0.960 . S
H3811 C3798 0.962 . S
H3812 C3798 0.960 . S
H3813 C3799 0.961 . S
H3814 C3799 0.961 . S
H3815 C3799 0.961 . S
H3816 C3800 0.931 . S
H3817 C3805 0.930 . S
H3818 C3806 0.956 . S
H3819 C3806 0.961 . S
H3820 C3806 0.961 . S
H3821 C3807 0.958 . S
H3822 C3807 0.961 . S
H3823 C3807 0.960 . S
C3824 C3825 1.391 . S
C3824 C3826 1.394 . S
C3824 H3840 0.931 . S
C3825 C3824 1.391 . S
C3825 C3829 1.376 . S
C3826 C3824 1.394 . S
C3826 C3827 1.369 . S
C3826 C3830 1.531 . S
C3827 C3826 1.369 . S
C3827 C3828 1.410 . S
C3827 C3835 1.503 . S
C3828 C3827 1.410 . S
C3828 C3829 1.392 . S
C3828 C3831 1.511 . S
C3829 C3825 1.376 . S
C3829 C3828 1.392 . S
C3829 H3841 0.929 . S
C3830 C3826 1.531 . S
C3830 H3842 0.960 . S
C3830 H3843 0.962 . S
C3830 H3844 0.960 . S
C3831 C3828 1.511 . S
C3831 H3845 0.961 . S
C3831 H3846 0.961 . S
C3831 H3847 0.961 . S
C3832 C3833 1.364 1_545 S
C3832 C3834 1.363 1_545 S
C3832 H3848 0.931 . S
C3833 C3832 1.364 1_565 S
C3833 C3837 1.423 . S
C3834 C3832 1.363 1_565 S
C3834 C3835 1.370 . S
C3834 C3838 1.524 . S
C3835 C3827 1.503 . S
C3835 C3834 1.370 . S
C3835 C3836 1.403 . S
C3836 C3835 1.403 . S
C3836 C3837 1.404 . S
C3836 C3839 1.539 . S
C3837 C3833 1.423 . S
C3837 C3836 1.404 . S
C3837 H3849 0.930 . S
C3838 C3834 1.524 . S
C3838 H3850 0.956 . S
C3838 H3851 0.961 . S
C3838 H3852 0.961 1_565 S
C3839 C3836 1.539 . S
C3839 H3853 0.958 . S
C3839 H3854 0.961 . S
C3839 H3855 0.960 . S
H3840 C3824 0.931 . S
H3841 C3829 0.929 . S
H3842 C3830 0.960 . S
H3843 C3830 0.962 . S
H3844 C3830 0.960 . S
H3845 C3831 0.961 . S
H3846 C3831 0.961 . S
H3847 C3831 0.961 . S
H3848 C3832 0.931 . S
H3849 C3837 0.930 . S
H3850 C3838 0.956 . S
H3851 C3838 0.961 . S
H3852 C3838 0.961 1_545 S
H3853 C3839 0.958 . S
H3854 C3839 0.961 . S
H3855 C3839 0.960 . S
C3856 C3857 1.391 . S
C3856 C3858 1.394 . S
C3856 H3872 0.931 . S
C3857 C3856 1.391 . S
C3857 C3861 1.376 . S
C3858 C3856 1.394 . S
C3858 C3859 1.369 . S
C3858 C3862 1.531 . S
C3859 C3858 1.369 . S
C3859 C3860 1.410 . S
C3859 C3867 1.503 . S
C3860 C3859 1.410 . S
C3860 C3861 1.392 . S
C3860 C3863 1.511 . S
C3861 C3857 1.376 . S
C3861 C3860 1.392 . S
C3861 H3873 0.929 . S
C3862 C3858 1.531 . S
C3862 H3874 0.960 . S
C3862 H3875 0.962 . S
C3862 H3876 0.960 . S
C3863 C3860 1.511 . S
C3863 H3877 0.961 . S
C3863 H3878 0.961 . S
C3863 H3879 0.961 . S
C3864 C3865 1.370 . S
C3864 C3866 1.363 . S
C3864 H3880 0.931 . S
C3865 C3864 1.370 . S
C3865 C3869 1.408 . S
C3866 C3864 1.363 . S
C3866 C3867 1.370 . S
C3866 C3870 1.524 . S
C3867 C3859 1.503 . S
C3867 C3866 1.370 . S
C3867 C3868 1.403 . S
C3868 C3867 1.403 . S
C3868 C3869 1.404 . S
C3868 C3871 1.539 . S
C3869 C3865 1.408 . S
C3869 C3868 1.404 . S
C3869 H3881 0.930 . S
C3870 C3866 1.524 . S
C3870 H3882 0.956 . S
C3870 H3883 0.961 . S
C3870 H3884 0.961 . S
C3871 C3868 1.539 . S
C3871 H3885 0.958 . S
C3871 H3886 0.961 . S
C3871 H3887 0.960 . S
H3872 C3856 0.931 . S
H3873 C3861 0.929 . S
H3874 C3862 0.960 . S
H3875 C3862 0.962 . S
H3876 C3862 0.960 . S
H3877 C3863 0.961 . S
H3878 C3863 0.961 . S
H3879 C3863 0.961 . S
H3880 C3864 0.931 . S
H3881 C3869 0.930 . S
H3882 C3870 0.956 . S
H3883 C3870 0.961 . S
H3884 C3870 0.961 . S
H3885 C3871 0.958 . S
H3886 C3871 0.961 . S
H3887 C3871 0.960 . S
C3888 C3889 1.391 . S
C3888 C3890 1.394 . S
C3888 H3904 0.931 . S
C3889 C3888 1.391 . S
C3889 C3893 1.376 . S
C3890 C3888 1.394 . S
C3890 C3891 1.369 . S
C3890 C3894 1.531 . S
C3891 C3890 1.369 . S
C3891 C3892 1.410 . S
C3891 C3899 1.503 . S
C3892 C3891 1.410 . S
C3892 C3893 1.392 . S
C3892 C3895 1.511 . S
C3893 C3889 1.376 . S
C3893 C3892 1.392 . S
C3893 H3905 0.929 . S
C3894 C3890 1.531 . S
C3894 H3906 0.960 . S
C3894 H3907 0.962 . S
C3894 H3908 0.960 . S
C3895 C3892 1.511 . S
C3895 H3909 0.961 . S
C3895 H3910 0.961 . S
C3895 H3911 0.961 . S
C3896 C3897 1.370 . S
C3896 C3898 1.363 . S
C3896 H3912 0.931 . S
C3897 C3896 1.370 . S
C3897 C3901 1.408 . S
C3898 C3896 1.363 . S
C3898 C3899 1.370 . S
C3898 C3902 1.524 . S
C3899 C3891 1.503 . S
C3899 C3898 1.370 . S
C3899 C3900 1.403 . S
C3900 C3899 1.403 . S
C3900 C3901 1.404 . S
C3900 C3903 1.539 . S
C3901 C3897 1.408 . S
C3901 C3900 1.404 . S
C3901 H3913 0.930 . S
C3902 C3898 1.524 . S
C3902 H3914 0.956 . S
C3902 H3915 0.961 . S
C3902 H3916 0.961 . S
C3903 C3900 1.539 . S
C3903 H3917 0.958 . S
C3903 H3918 0.961 . S
C3903 H3919 0.960 . S
H3904 C3888 0.931 . S
H3905 C3893 0.929 . S
H3906 C3894 0.960 . S
H3907 C3894 0.962 . S
H3908 C3894 0.960 . S
H3909 C3895 0.961 . S
H3910 C3895 0.961 . S
H3911 C3895 0.961 . S
H3912 C3896 0.931 . S
H3913 C3901 0.930 . S
H3914 C3902 0.956 . S
H3915 C3902 0.961 . S
H3916 C3902 0.961 . S
H3917 C3903 0.958 . S
H3918 C3903 0.961 . S
H3919 C3903 0.960 . S
C3920 C3921 1.391 . S
C3920 C3922 1.394 . S
C3920 H3936 0.931 . S
C3921 C3920 1.391 . S
C3921 C3925 1.376 . S
C3922 C3920 1.394 . S
C3922 C3923 1.369 . S
C3922 C3926 1.531 . S
C3923 C3922 1.369 . S
C3923 C3924 1.410 . S
C3923 C3931 1.503 . S
C3924 C3923 1.410 . S
C3924 C3925 1.392 . S
C3924 C3927 1.511 . S
C3925 C3921 1.376 . S
C3925 C3924 1.392 . S
C3925 H3937 0.929 . S
C3926 C3922 1.531 . S
C3926 H3938 0.960 . S
C3926 H3939 0.962 . S
C3926 H3940 0.960 . S
C3927 C3924 1.511 . S
C3927 H3941 0.961 . S
C3927 H3942 0.961 . S
C3927 H3943 0.961 . S
C3928 C3929 1.370 . S
C3928 C3930 1.363 . S
C3928 H3944 0.931 . S
C3929 C3928 1.370 . S
C3929 C3933 1.408 . S
C3930 C3928 1.363 . S
C3930 C3931 1.370 . S
C3930 C3934 1.524 . S
C3931 C3923 1.503 . S
C3931 C3930 1.370 . S
C3931 C3932 1.403 . S
C3932 C3931 1.403 . S
C3932 C3933 1.404 . S
C3932 C3935 1.539 . S
C3933 C3929 1.408 . S
C3933 C3932 1.404 . S
C3933 H3945 0.930 . S
C3934 C3930 1.524 . S
C3934 H3946 0.956 . S
C3934 H3947 0.961 . S
C3934 H3948 0.961 . S
C3935 C3932 1.539 . S
C3935 H3949 0.958 . S
C3935 H3950 0.961 . S
C3935 H3951 0.960 . S
H3936 C3920 0.931 . S
H3937 C3925 0.929 . S
H3938 C3926 0.960 . S
H3939 C3926 0.962 . S
H3940 C3926 0.960 . S
H3941 C3927 0.961 . S
H3942 C3927 0.961 . S
H3943 C3927 0.961 . S
H3944 C3928 0.931 . S
H3945 C3933 0.930 . S
H3946 C3934 0.956 . S
H3947 C3934 0.961 . S
H3948 C3934 0.961 . S
H3949 C3935 0.958 . S
H3950 C3935 0.961 . S
H3951 C3935 0.960 . S
C3952 C3953 1.391 . S
C3952 C3954 1.394 . S
C3952 H3968 0.931 . S
C3953 C3952 1.391 . S
C3953 C3957 1.376 . S
C3954 C3952 1.394 . S
C3954 C3955 1.369 . S
C3954 C3958 1.531 . S
C3955 C3954 1.369 . S
C3955 C3956 1.410 . S
C3955 C3963 1.503 . S
C3956 C3955 1.410 . S
C3956 C3957 1.392 . S
C3956 C3959 1.511 . S
C3957 C3953 1.376 . S
C3957 C3956 1.392 . S
C3957 H3969 0.929 . S
C3958 C3954 1.531 . S
C3958 H3970 0.960 . S
C3958 H3971 0.962 . S
C3958 H3972 0.960 . S
C3959 C3956 1.511 . S
C3959 H3973 0.961 . S
C3959 H3974 0.961 . S
C3959 H3975 0.961 . S
C3960 C3961 1.370 . S
C3960 C3962 1.363 . S
C3960 H3976 0.931 . S
C3961 C3960 1.370 . S
C3961 C3965 1.408 . S
C3962 C3960 1.363 . S
C3962 C3963 1.370 . S
C3962 C3966 1.524 . S
C3963 C3955 1.503 . S
C3963 C3962 1.370 . S
C3963 C3964 1.403 . S
C3964 C3963 1.403 . S
C3964 C3965 1.404 . S
C3964 C3967 1.504 1_554 S
C3965 C3961 1.408 . S
C3965 C3964 1.404 . S
C3965 H3977 0.930 . S
C3966 C3962 1.524 . S
C3966 H3978 0.956 . S
C3966 H3979 0.961 . S
C3966 H3980 0.961 . S
C3967 C3964 1.504 1_556 S
C3967 H3981 0.970 1_556 S
C3967 H3982 0.997 . S
C3967 H3983 0.960 . S
H3968 C3952 0.931 . S
H3969 C3957 0.929 . S
H3970 C3958 0.960 . S
H3971 C3958 0.962 . S
H3972 C3958 0.960 . S
H3973 C3959 0.961 . S
H3974 C3959 0.961 . S
H3975 C3959 0.961 . S
H3976 C3960 0.931 . S
H3977 C3965 0.930 . S
H3978 C3966 0.956 . S
H3979 C3966 0.961 . S
H3980 C3966 0.961 . S
H3981 C3967 0.970 1_554 S
H3982 C3967 0.997 . S
H3983 C3967 0.960 . S
C3984 C3985 1.391 . S
C3984 C3986 1.394 . S
C3984 H4000 0.931 . S
C3985 C3984 1.391 . S
C3985 C3989 1.376 . S
C3986 C3984 1.394 . S
C3986 C3987 1.369 . S
C3986 C3990 1.531 . S
C3987 C3986 1.369 . S
C3987 C3988 1.410 . S
C3987 C3995 1.503 . S
C3988 C3987 1.410 . S
C3988 C3989 1.392 . S
C3988 C3991 1.511 . S
C3989 C3985 1.376 . S
C3989 C3988 1.392 . S
C3989 H4001 0.929 . S
C3990 C3986 1.531 . S
C3990 H4002 0.960 . S
C3990 H4003 0.962 . S
C3990 H4004 0.960 . S
C3991 C3988 1.511 . S
C3991 H4005 0.961 . S
C3991 H4006 0.961 . S
C3991 H4007 0.961 . S
C3992 C3993 1.370 . S
C3992 C3994 1.363 . S
C3992 H4008 0.931 . S
C3993 C3992 1.370 . S
C3993 C3997 1.408 . S
C3994 C3992 1.363 . S
C3994 C3995 1.370 . S
C3994 C3998 1.524 . S
C3995 C3987 1.503 . S
C3995 C3994 1.370 . S
C3995 C3996 1.403 . S
C3996 C3995 1.403 . S
C3996 C3997 1.404 . S
C3996 C3999 1.539 . S
C3997 C3993 1.408 . S
C3997 C3996 1.404 . S
C3997 H4009 0.930 . S
C3998 C3994 1.524 . S
C3998 H4010 0.956 . S
C3998 H4011 0.961 . S
C3998 H4012 0.961 . S
C3999 C3996 1.539 . S
C3999 H4013 0.958 . S
C3999 H4014 0.961 . S
C3999 H4015 0.960 . S
H4000 C3984 0.931 . S
H4001 C3989 0.929 . S
H4002 C3990 0.960 . S
H4003 C3990 0.962 . S
H4004 C3990 0.960 . S
H4005 C3991 0.961 . S
H4006 C3991 0.961 . S
H4007 C3991 0.961 . S
H4008 C3992 0.931 . S
H4009 C3997 0.930 . S
H4010 C3998 0.956 . S
H4011 C3998 0.961 . S
H4012 C3998 0.961 . S
H4013 C3999 0.958 . S
H4014 C3999 0.961 . S
H4015 C3999 0.960 . S
C4016 C4017 1.391 . S
C4016 C4018 1.394 . S
C4016 H4032 0.931 . S
C4017 C4016 1.391 . S
C4017 C4021 1.376 . S
C4018 C4016 1.394 . S
C4018 C4019 1.369 . S
C4018 C4022 1.531 . S
C4019 C4018 1.369 . S
C4019 C4020 1.410 . S
C4019 C4027 1.503 . S
C4020 C4019 1.410 . S
C4020 C4021 1.392 . S
C4020 C4023 1.511 . S
C4021 C4017 1.376 . S
C4021 C4020 1.392 . S
C4021 H4033 0.929 . S
C4022 C4018 1.531 . S
C4022 H4034 0.960 . S
C4022 H4035 0.962 . S
C4022 H4036 0.960 . S
C4023 C4020 1.511 . S
C4023 H4037 0.961 . S
C4023 H4038 0.961 . S
C4023 H4039 0.961 . S
C4024 C4025 1.370 . S
C4024 C4026 1.363 . S
C4024 H4040 0.931 . S
C4025 C4024 1.370 . S
C4025 C4029 1.408 . S
C4026 C4024 1.363 . S
C4026 C4027 1.370 . S
C4026 C4030 1.524 . S
C4027 C4019 1.503 . S
C4027 C4026 1.370 . S
C4027 C4028 1.403 . S
C4028 C4027 1.403 . S
C4028 C4029 1.404 . S
C4028 C4031 1.539 . S
C4029 C4025 1.408 . S
C4029 C4028 1.404 . S
C4029 H4041 0.930 . S
C4030 C4026 1.524 . S
C4030 H4042 0.956 . S
C4030 H4043 0.961 . S
C4030 H4044 0.961 . S
C4031 C4028 1.539 . S
C4031 H4045 0.958 . S
C4031 H4046 0.961 . S
C4031 H4047 0.960 . S
H4032 C4016 0.931 . S
H4033 C4021 0.929 . S
H4034 C4022 0.960 . S
H4035 C4022 0.962 . S
H4036 C4022 0.960 . S
H4037 C4023 0.961 . S
H4038 C4023 0.961 . S
H4039 C4023 0.961 . S
H4040 C4024 0.931 . S
H4041 C4029 0.930 . S
H4042 C4030 0.956 . S
H4043 C4030 0.961 . S
H4044 C4030 0.961 . S
H4045 C4031 0.958 . S
H4046 C4031 0.961 . S
H4047 C4031 0.960 . S
C977 C106 2.453 . S
C985 C349 2.492 . S
C1009 C65 2.055 . S
C1017 C400 2.028 . S
C1041 C79 1.894 . S
C1049 C429 1.891 . S
C1081 C473 1.276 . S
C1073 C90 1.210 . S
C1105 C21 1.135 . S
C1113 C513 1.165 . S
C1145 C549 1.552 . S
C1137 C35 1.556 . S
C1177 C599 1.897 . S
C1169 C50 1.900 . S
C1201 C6 2.222 . S
C1209 C629 2.267 . S
C1241 C359 2.125 . S
C1233 C232 2.113 . S
C1265 C245 0.687 . S
C1273 C402 0.684 . S
C1305 C439 1.282 . S
C1297 C274 1.291 . S
C1337 C469 1.410 . S
C1329 C175 1.380 . S
C1361 C231 1.305 . S
C1369 C509 1.276 . S
C1401 C559 0.813 . S
C1393 C246 0.837 . S
C1433 C593 0.707 . S
C1425 C273 0.776 . S
C1465 C639 2.047 . S
C1457 C176 2.027 . S
C1497 C353 1.263 . S
C1489 C160 1.228 . S
C1521 C289 1.694 . S
C1529 C679 1.692 . S
C1561 C713 1.499 . S
C1553 C328 1.475 . S
C1593 C749 1.071 . S
C1585 C317 1.107 . S
C1617 C118 1.459 . S
C1625 C633 1.392 . S
C1649 C132 1.483 . S
C1657 C433 1.560 . S
C1681 C331 1.674 . S
C1689 C799 1.675 . S
C1721 C818 0.459 . S
C1713 C303 0.429 . S
C1753 C360 2.147 1_565 S
C1745 C63 2.162 . S
C1785 C829 2.485 . S
C1777 C107 2.424 . S
C1809 C92 1.724 . S
C1817 C440 1.774 . S
C1841 C78 1.758 . S
C1849 C802 1.720 . S
C1881 C522 1.613 . S
C1873 C8 1.639 . S
C1905 C51 1.788 . S
C1913 C720 1.804 . S
C1945 C578 2.267 1_565 S
C1937 C37 2.230 . S
C1977 C880 2.274 . S
C1969 C20 2.267 . S
C2009 C338 1.939 1_556 S
C2001 C147 1.945 . S
C2041 C833 0.763 . S
C2033 C316 0.746 . S
C2065 C119 1.180 . S
C2073 C418 1.277 . S
C2097 C288 1.552 . S
C2105 C800 1.576 . S
C2129 C148 1.625 . S
C2137 C520 1.637 . S
C2169 C698 0.939 . S
C2161 C315 0.954 . S
C2193 C120 1.013 . S
C2201 C602 0.973 . S
C2225 C287 1.950 . S
C2233 C858 1.937 . S
C2257 C188 1.059 . S
C2265 C362 1.083 . S
C2289 C177 1.998 . S
C2297 C658 2.027 . S
C2321 C258 1.503 . S
C2329 C562 1.510 . S
C2353 C247 1.117 . S
C2361 C760 1.095 . S
C2393 C882 1.290 . S
C2385 C272 1.282 . S
C2417 C216 1.365 . S
C2425 C442 1.408 . S
C2457 C458 1.961 . S
C2449 C261 1.942 . S
C2489 C399 0.500 . S
C2481 C205 0.465 . S
C2513 C76 2.084 . S
C2521 C909 2.108 . S
C2553 C840 2.107 . S
C2545 C93 2.121 . S
C2577 C105 1.511 1_554 S
C2585 C949 1.512 . S
C2609 C62 1.231 1_655 S
C2617 C793 1.304 . S
C2641 C49 1.157 . S
C2649 C673 1.140 . S
C2681 C709 1.935 . S
C2673 C9 1.960 . S
C2713 C759 1.816 . S
C2705 C22 1.817 . S
C2745 C869 2.655 . S
C2737 C36 2.644 . S
C2777 C919 2.057 . S
C2769 C260 2.032 . S
C2801 C189 0.669 . S
C2809 C842 0.542 . S
C2841 C959 1.207 . S
C2833 C204 1.192 . S
C2873 C789 1.227 . S
C2865 C217 1.248 . S
C2905 C669 1.456 1_556 S
C2897 C259 1.418 . S
C2929 C190 0.904 . S
C2937 C719 0.901 . S
C2969 C753 0.818 . S
C2961 C203 0.777 . S
C2993 C218 2.095 . S
C3001 C879 2.122 . S
C3033 C913 1.260 . S
C3025 C314 1.253 . S
C3057 C135 1.768 . S
C3065 C519 1.759 . S
C3097 C553 1.470 . S
C3089 C146 1.501 . S
C3129 C589 1.127 . S
C3121 C163 1.160 . S
C3161 C873 1.420 . S
C3153 C300 1.437 . S
C3185 C286 1.517 . S
C3193 C953 1.559 . S
C3225 C479 1.612 . S
C3217 C149 1.605 . S
C3257 C378 0.483 . S
C3249 C121 0.432 . S
C3281 C91 2.139 . S
C3289 C920 2.146 . S
C3321 C389 2.111 . S
C3313 C77 1.969 . S
C3345 C64 1.732 . S
C3353 C960 1.776 . S
C3377 C104 1.372 . S
C3385 C482 1.436 . S
C3409 C34 1.334 . S
C3417 C682 1.305 . S
C3449 C560 1.785 . S
C3441 C23 1.748 . S
C3473 C7 1.774 . S
C3481 C738 1.898 . S
C3505 C48 2.280 . S
C3513 C640 2.266 . S
C3545 C898 1.918 . S
C3537 C329 1.923 . S
C3569 C162 0.778 . S
C3577 C393 0.780 . S
C3609 C938 1.268 . S
C3601 C301 1.233 . S
C3633 C134 1.600 . S
C3641 C480 1.602 . S
C3665 C330 1.650 . S
C3673 C680 1.660 . S
C3705 C538 0.933 . S
C3697 C161 0.875 . S
C3729 C302 1.035 . S
C3737 C762 1.012 . S
C3769 C618 1.902 . S
C3761 C133 1.896 . S
C3801 C922 1.203 . S
C3793 C244 1.182 . S
C3833 C498 1.992 1_565 S
C3825 C219 1.967 . S
C3857 C230 1.348 . S
C3865 C722 1.322 . S
C3897 C600 1.080 . S
C3889 C191 1.081 . S
C3921 C202 1.448 . S
C3929 C642 1.405 . S
C3953 C174 1.536 . S
C3961 C962 1.578 . S
C3993 C778 1.927 . S
C3985 C233 1.906 . S
C4025 C839 0.483 . S
C4017 C275 0.500 . S
