# Generated by pormake.
# Topology ssa, (4,4)-cn, num edge types: 1
# Building blocks:
#     Node 0, Type 0, BuildingBlock: KOZSID_clean_sbu_0, # of connection points: 4
#     Node 1, Type 0, BuildingBlock: KOZSID_clean_sbu_0, # of connection points: 4
#     Node 2, Type 0, BuildingBlock: KOZSID_clean_sbu_0, # of connection points: 4
#     Node 3, Type 0, BuildingBlock: KOZSID_clean_sbu_0, # of connection points: 4
#     Node 4, Type 0, BuildingBlock: KOZSID_clean_sbu_0, # of connection points: 4
#     Node 5, Type 0, BuildingBlock: KOZSID_clean_sbu_0, # of connection points: 4
#     Node 6, Type 1, BuildingBlock: ESEHIV_clean_sbu_0, # of connection points: 4
#     Node 7, Type 1, BuildingBlock: ESEHIV_clean_sbu_0, # of connection points: 4
#     Node 8, Type 1, BuildingBlock: ESEHIV_clean_sbu_0, # of connection points: 4
#     Node 9, Type 1, BuildingBlock: ESEHIV_clean_sbu_0, # of connection points: 4
#     Node 10, Type 1, BuildingBlock: ESEHIV_clean_sbu_0, # of connection points: 4
#     Node 11, Type 1, BuildingBlock: ESEHIV_clean_sbu_0, # of connection points: 4
#     Edge 12, Type (0, 1), None
#     Edge 13, Type (0, 1), None
#     Edge 14, Type (0, 1), None
#     Edge 15, Type (0, 1), None
#     Edge 16, Type (0, 1), None
#     Edge 17, Type (0, 1), None
#     Edge 18, Type (0, 1), None
#     Edge 19, Type (0, 1), None
#     Edge 20, Type (0, 1), None
#     Edge 21, Type (0, 1), None
#     Edge 22, Type (0, 1), None
#     Edge 23, Type (0, 1), None
#     Edge 24, Type (0, 1), None
#     Edge 25, Type (0, 1), None
#     Edge 26, Type (0, 1), None
#     Edge 27, Type (0, 1), None
#     Edge 28, Type (0, 1), None
#     Edge 29, Type (0, 1), None
#     Edge 30, Type (0, 1), None
#     Edge 31, Type (0, 1), None
#     Edge 32, Type (0, 1), None
#     Edge 33, Type (0, 1), None
#     Edge 34, Type (0, 1), None
#     Edge 35, Type (0, 1), None
# Relax obj value: 0.059
# Max RMSD: 0.099
# Mean RMSD: 0.056
data_MOF--net-ssa--node1-KOZSID_clean_sbu_0--node2-ESEHIV_clean_sbu_0--edge1-none
_symmetry_space_group_name_H-M    P1
_symmetry_Int_Tables_number       1
_symmetry_cell_setting            triclinic
loop_
_symmetry_equiv_pos_as_xyz
'x, y, z'
_cell_length_a     27.085067
_cell_length_b     28.431068
_cell_length_c     20.499696
_cell_angle_alpha  84.983255
_cell_angle_beta   90.243773
_cell_angle_gamma 124.63671
loop_
_atom_site_label
_atom_site_type_symbol
_atom_site_fract_x
_atom_site_fract_y
_atom_site_fract_z
_atom_type_partial_charge
C0 C 0.90319 0.48658 0.03173 0.0
C1 C 0.84621 0.45703 0.06346 0.0
C2 C 0.85063 0.43945 0.1258 0.0
C3 C 0.90896 0.45678 0.12898 0.0
N4 N 0.94206 0.48336 0.07211 0.0
Co5 Co 1.02786 0.50919 0.05851 0.0
N6 N 1.02639 0.46586 0.14224 0.0
C7 C 0.98278 0.44243 0.19035 0.0
C8 C 0.99173 0.41581 0.2431 0.0
C9 C 0.04483 0.42319 0.22809 0.0
C10 C 0.06608 0.45405 0.16622 0.0
N11 N 0.11497 0.53745 0.04685 0.0
C12 C 0.15088 0.52695 0.0841 0.0
C13 C 0.21027 0.56241 0.0598 0.0
C14 C 0.21223 0.59701 1.00754 0.0
C15 C 0.15417 0.58082 1.00212 0.0
N16 N 1.02763 0.55007 0.97302 0.0
C17 C 0.07792 0.5903 0.93647 0.0
C18 C 0.06711 0.61243 0.88066 0.0
C19 C 1.00613 0.58511 0.88192 0.0
C20 C 0.98192 0.54672 0.93851 0.0
N21 N 0.055 0.57743 0.10418 0.0
C22 C 0.11822 0.68513 0.15259 0.0
C23 C 0.07489 0.67172 0.10639 0.0
C24 C 0.04321 0.6171 0.08308 0.0
C25 C 0.12451 0.6418 0.17832 0.0
C26 C 0.09313 0.5891 0.15367 0.0
N27 N 1.00233 0.44181 1.01288 0.0
C28 C 1.01025 0.40216 0.91777 0.0
C29 C 0.96025 0.34779 0.94126 0.0
C30 C 0.93342 0.3406 1.00278 0.0
C31 C 0.95494 0.38826 0.03766 0.0
C32 C 1.03108 0.44838 0.95467 0.0
H33 H 0.93187 0.3819 0.08356 0.0
H34 H 0.06912 0.48978 0.93478 0.0
H35 H 1.01125 0.60808 0.04624 0.0
H36 H 0.10322 0.5595 0.17295 0.0
C37 C 0.93112 0.44097 0.18136 0.0
C38 C 0.91766 0.51687 0.96356 0.0
C39 C 0.12971 0.48217 0.14077 0.0
C40 C 0.13403 0.60308 0.95385 0.0
H41 H 0.80454 0.44708 0.04402 0.0
H42 H 0.81462 0.41425 0.16335 0.0
H43 H 0.96314 0.39371 0.2874 0.0
H44 H 0.06661 0.40994 0.26141 0.0
H45 H 0.24845 0.56344 0.07763 0.0
H46 H 0.25139 0.62983 0.97676 0.0
H47 H 0.09976 0.64495 0.84344 0.0
H48 H 0.98331 0.59524 0.84638 0.0
H49 H 0.06742 0.70364 0.08668 0.0
H50 H 0.15491 0.64883 0.2167 0.0
H51 H 1.03151 0.40916 0.86993 0.0
H52 H 0.89377 0.29931 1.0217 0.0
C53 C 0.63996 0.03813 0.63253 0.0
C54 C 0.64533 1.01278 0.69042 0.0
C55 C 0.58899 0.96553 0.70936 0.0
C56 C 0.55254 0.96534 0.66253 0.0
N57 N 0.58259 1.00836 0.61359 0.0
Co58 Co 0.54714 0.02664 0.53812 0.0
N59 N 0.4636 0.95946 0.56757 0.0
C60 C 0.44728 0.92098 0.62076 0.0
C61 C 0.38759 0.87622 0.62438 0.0
C62 C 0.36474 0.88602 0.56931 0.0
C63 C 0.41194 0.9364 0.53559 0.0
N64 N 0.51147 0.04632 0.46433 0.0
C65 C 0.45416 1.01741 0.44561 0.0
C66 C 0.44739 0.04756 0.39375 0.0
C67 C 0.50286 0.09732 0.3787 0.0
C68 C 0.54024 0.09402 0.4214 0.0
N69 N 0.63068 0.09206 0.50646 0.0
C70 C 0.64661 0.12938 0.45219 0.0
C71 C 0.70724 0.17088 0.44422 0.0
C72 C 0.73131 0.15988 0.49713 0.0
C73 C 0.68376 0.1122 0.53434 0.0
N74 N 0.55432 0.97458 0.4834 0.0
C75 C 0.56933 0.9024 0.40833 0.0
C76 C 0.58147 0.95523 0.3805 0.0
C77 C 0.57295 0.98987 0.41811 0.0
C78 C 0.54826 0.88621 0.47414 0.0
C79 C 0.54099 0.92223 0.51019 0.0
N80 N 0.54001 0.07882 0.59335 0.0
C81 C 0.56361 0.17332 0.61337 0.0
C82 C 0.52502 0.15039 0.66979 0.0
C83 C 0.49595 0.09138 0.68815 0.0
C84 C 0.50463 0.05716 0.65061 0.0
C85 C 0.57017 0.13722 0.57615 0.0
H86 H 0.48123 1.01288 0.66863 0.0
H87 H 0.59918 0.15774 0.5329 0.0
H88 H 0.58317 0.02975 0.39405 0.0
H89 H 0.52597 0.90735 0.56045 0.0
C90 C 0.49008 0.92624 0.66365 0.0
C91 C 0.69023 0.09202 0.59933 0.0
C92 C 0.40609 0.95978 0.47235 0.0
C93 C 0.60293 0.12992 0.41633 0.0
H94 H 0.68569 0.0277 0.71666 0.0
H95 H 0.57587 0.93588 0.75312 0.0
H96 H 0.36403 0.83973 0.66133 0.0
H97 H 0.319 0.85873 0.55467 0.0
H98 H 0.40701 0.03406 0.36819 0.0
H99 H 0.51514 0.13015 0.33863 0.0
H100 H 0.73066 0.20695 0.40671 0.0
H101 H 0.77806 0.18571 0.50875 0.0
H102 H 0.59969 0.97092 0.33033 0.0
H103 H 0.54023 0.84702 0.49894 0.0
H104 H 0.58635 0.21839 0.59598 0.0
H105 H 0.46523 0.07111 0.73117 0.0
C106 C 0.67149 0.62493 0.95133 0.0
C107 C 0.69129 0.66666 0.89863 0.0
C108 C 0.64291 0.66733 0.88122 0.0
C109 C 0.59644 0.62595 0.92397 0.0
N110 N 0.61257 0.59973 0.96847 0.0
Co111 Co 0.55826 0.53289 0.03495 0.0
N112 N 0.4849 0.52541 1.00066 0.0
C113 C 0.48306 0.55819 0.95011 0.0
C114 C 0.42639 0.54443 0.93989 0.0
C115 C 0.38999 0.50085 0.98746 0.0
C116 C 0.42676 0.49067 1.02398 0.0
N117 N 0.50417 0.46607 0.10161 0.0
C118 C 0.44413 0.43709 0.11527 0.0
C119 C 0.4247 0.39578 0.16844 0.0
C120 C 0.47427 0.39896 0.18952 0.0
C121 C 0.52097 0.44199 0.14832 0.0
N122 N 0.63154 0.53991 0.06878 0.0
C123 C 0.63386 0.5083 0.12036 0.0
C124 C 0.69 0.51998 0.12833 0.0
C125 C 0.72536 0.5604 0.0777 0.0
C126 C 0.68849 0.5709 0.04194 0.0
N127 N 0.56517 0.58731 0.09825 0.0
C128 C 0.57678 0.66494 0.18787 0.0
C129 C 0.58646 0.62216 0.20635 0.0
C130 C 0.5798 0.58401 0.16192 0.0
C131 C 0.55947 0.66694 0.12384 0.0
C132 C 0.55437 0.62847 0.08028 0.0
N133 N 0.55137 0.47907 0.97151 0.0
C134 C 0.55354 0.39789 0.945 0.0
C135 C 0.54026 0.40353 0.87976 0.0
C136 C 0.53437 0.44869 0.86147 0.0
C137 C 0.54059 0.48567 0.90703 0.0
C138 C 0.55864 0.43563 0.98973 0.0
H139 H 0.53536 0.51884 0.88907 0.0
H140 H 0.56725 0.4282 0.03924 0.0
H141 H 0.58779 0.55272 0.18005 0.0
H142 H 0.54278 0.63385 0.03179 0.0
C143 C 0.53596 0.60463 0.91701 0.0
C144 C 0.70859 0.60726 0.9801 0.0
C145 C 0.40463 0.44996 0.08266 0.0
C146 C 0.58136 0.4633 0.15508 0.0
H147 H 0.73533 0.69224 0.87357 0.0
H148 H 0.64097 0.69241 0.8397 0.0
H149 H 0.41342 0.56504 0.90373 0.0
H150 H 0.34211 0.47996 0.99575 0.0
H151 H 0.37971 0.36744 0.19089 0.0
H152 H 0.47636 0.37421 0.23132 0.0
H153 H 0.7029 0.49925 0.16441 0.0
H154 H 0.77229 0.57841 0.06655 0.0
H155 H 0.60067 0.61889 0.25507 0.0
H156 H 0.55297 0.69998 0.10614 0.0
H157 H 0.55673 0.36268 0.96246 0.0
H158 H 0.52309 0.45457 0.812 0.0
C159 C 0.90012 0.41677 0.54236 0.0
C160 C 0.84326 0.38931 0.51703 0.0
C161 C 0.85026 0.41332 0.45437 0.0
C162 C 0.91022 0.45561 0.44469 0.0
N163 N 0.94212 0.46117 0.49767 0.0
Co164 Co 1.03072 0.52248 0.50061 0.0
N165 N 1.03561 0.56741 0.41632 0.0
C166 C 0.99156 0.5473 0.37382 0.0
C167 C 1.00476 0.58466 0.31942 0.0
C168 C 0.06118 0.63152 0.32718 0.0
C169 C 0.08022 0.62087 0.38656 0.0
N170 N 0.12041 0.58261 0.50138 0.0
C171 C 0.16074 0.6308 0.4592 0.0
C172 C 0.2192 0.65419 0.47709 0.0
C173 C 0.21603 0.61953 0.53015 0.0
C174 C 0.15601 0.57697 0.54246 0.0
N175 N 1.02436 0.47839 0.58689 0.0
C176 C 0.07266 0.488 0.61808 0.0
C177 C 0.05805 0.45336 0.67563 0.0
C178 C 0.99654 0.41894 0.68122 0.0
C179 C 0.97587 0.4343 0.62684 0.0
N180 N 0.04895 0.47661 0.45265 0.0
C181 C 0.09876 0.42472 0.39747 0.0
C182 C 0.05485 0.39503 0.44911 0.0
C183 C 1.02991 0.4217 0.47575 0.0
C184 C 0.11228 0.4778 0.37023 0.0
C185 C 0.08759 0.50285 0.39841 0.0
N186 N 1.01383 0.56886 0.54848 0.0
C187 C 1.02759 0.61867 0.64312 0.0
C188 C 0.98158 0.62484 0.62532 0.0
C189 C 0.95426 0.60547 0.56644 0.0
C190 C 0.97078 0.57724 0.52891 0.0
C191 C 0.04367 0.59141 0.60355 0.0
H192 H 0.94704 0.56045 0.48548 0.0
H193 H 0.07863 0.58664 0.61917 0.0
H194 H 0.99729 0.39878 0.51653 0.0
H195 H 0.10323 0.54515 0.37755 0.0
C196 C 0.93623 0.49557 0.38962 0.0
C197 C 0.91113 0.39869 0.60903 0.0
C198 C 0.14502 0.65686 0.40366 0.0
C199 C 0.13091 0.53253 0.59381 0.0
H200 H 0.80017 0.35622 0.54109 0.0
H201 H 0.8152 0.40292 0.42085 0.0
H202 H 0.97678 0.57856 0.27868 0.0
H203 H 0.08624 0.66789 0.2907 0.0
H204 H 0.26005 0.69229 0.45434 0.0
H205 H 0.25321 0.625 0.55691 0.0
H206 H 0.08853 0.45284 0.70951 0.0
H207 H 0.97054 0.38459 0.71968 0.0
H208 H 0.04191 0.35304 0.47029 0.0
H209 H 0.14361 0.50117 0.32809 0.0
H210 H 0.04916 0.63276 0.6888 0.0
H211 H 0.91766 0.60859 0.55192 0.0
C212 C 0.50118 1.00221 0.18946 0.0
C213 C 0.5106 1.01822 0.25308 0.0
C214 C 0.55701 0.07475 0.2489 0.0
C215 C 0.57418 0.09042 0.18399 0.0
N216 N 0.54411 0.0468 0.1461 0.0
Co217 Co 0.5663 0.05176 0.05085 0.0
N218 N 0.63355 0.13642 0.04508 0.0
C219 C 0.64926 0.16899 0.09561 0.0
C220 C 0.69109 0.22626 0.07884 0.0
C221 C 0.70411 0.23102 1.01367 0.0
C222 C 0.67116 0.17566 0.99393 0.0
N223 N 0.58754 0.05818 0.95413 0.0
C224 C 0.62819 0.10427 0.90953 0.0
C225 C 0.62132 0.08678 0.84695 0.0
C226 C 0.57637 0.02928 0.85204 0.0
C227 C 0.55782 1.01383 0.91706 0.0
N228 N 0.49977 0.96621 0.05828 0.0
C229 C 0.48623 0.933 1.00891 0.0
C230 C 0.4404 0.8764 0.02581 0.0
C231 C 0.4234 0.87303 0.08992 0.0
C232 C 0.4598 0.92794 0.10935 0.0
N233 N 0.50808 0.07035 0.02579 0.0
C234 C 0.44442 0.11138 0.96659 0.0
C235 C 0.43551 0.06089 0.94975 0.0
C236 C 0.46662 0.04053 0.98079 0.0
C237 C 0.48022 0.13756 1.01877 0.0
C238 C 0.51131 0.11606 0.04806 0.0
N239 N 0.62426 0.03222 0.07572 0.0
C240 C 0.65555 0.96815 0.06869 0.0
C241 C 0.67938 0.9801 0.13023 0.0
C242 C 0.68203 0.02364 0.16005 0.0
C243 C 0.65587 0.05019 0.1311 0.0
C244 C 0.62861 0.99485 0.04225 0.0
H245 H 0.65963 0.08326 0.15601 0.0
H246 H 0.6091 0.98236 0.99634 0.0
H247 H 0.45862 1.00227 0.96498 0.0
H248 H 0.53983 0.13856 0.08626 0.0
C249 C 0.62097 0.14513 0.15768 0.0
C250 C 0.45176 0.9432 0.17462 0.0
C251 C 0.67671 0.16381 0.92542 0.0
C252 C 0.51353 0.95782 0.94559 0.0
H253 H 0.48719 0.99152 0.29828 0.0
H254 H 0.57779 0.10127 0.28835 0.0
H255 H 0.70857 0.26082 0.10988 0.0
H256 H 0.73355 0.27158 0.98417 0.0
H257 H 0.6459 0.1123 0.80183 0.0
H258 H 0.55898 1.00187 0.8128 0.0
H259 H 0.42029 0.84186 0.99453 0.0
H260 H 0.38732 0.83464 0.1184 0.0
H261 H 0.40759 0.03938 0.90979 0.0
H262 H 0.48799 0.17693 0.03311 0.0
H263 H 0.65327 0.93501 0.04365 0.0
H264 H 0.70147 0.03494 0.20722 0.0
C265 C 0.59594 0.65247 0.53053 0.0
C266 C 0.58762 0.68867 0.56239 0.0
C267 C 0.54338 0.65481 0.61036 0.0
C268 C 0.52748 0.60016 0.6049 0.0
N269 N 0.55969 0.59717 0.5573 0.0
Co270 Co 0.54927 0.52612 0.53009 0.0
N271 N 0.47967 0.47557 0.59538 0.0
C272 C 0.45487 0.49235 0.63643 0.0
C273 C 0.40975 0.4482 0.67817 0.0
C274 C 0.4061 0.40042 0.66362 0.0
C275 C 0.44925 0.41833 0.6135 0.0
N276 N 0.53894 0.45513 0.50309 0.0
C277 C 0.50313 0.40003 0.53056 0.0
C278 C 0.512 0.36383 0.49955 0.0
C279 C 0.55603 0.39753 0.45124 0.0
C280 C 0.57135 0.45212 0.45576 0.0
N281 N 0.61875 0.57688 0.46461 0.0
C282 C 0.64318 0.56005 0.42311 0.0
C283 C 0.6875 0.60412 0.38055 0.0
C284 C 0.69107 0.65189 0.39512 0.0
C285 C 0.64873 0.63414 0.44609 0.0
N286 N 0.60649 0.53085 0.59886 0.0
C287 C 0.68689 0.53806 0.69741 0.0
C288 C 0.68999 0.52463 0.63386 0.0
C289 C 0.65008 0.52145 0.58598 0.0
C290 C 0.64157 0.54649 0.71021 0.0
C291 C 0.60225 0.54215 0.66164 0.0
N292 N 0.49183 0.52077 0.46134 0.0
C293 C 0.45346 0.49971 0.35174 0.0
C294 C 0.40731 0.50681 0.36491 0.0
C295 C 0.40576 0.5229 0.42737 0.0
C296 C 0.44784 0.52958 0.47419 0.0
C297 C 0.49491 0.50752 0.39923 0.0
H298 H 0.4429 0.54047 0.52123 0.0
H299 H 0.52837 0.50114 0.3849 0.0
H300 H 0.65618 0.51242 0.53827 0.0
H301 H 0.5692 0.54914 0.67585 0.0
C302 C 0.47905 0.5504 0.63938 0.0
C303 C 0.6356 0.67228 0.47211 0.0
C304 C 0.46344 0.38058 0.58891 0.0
C305 C 0.61938 0.50195 0.42073 0.0
H306 H 0.60989 0.73448 0.55052 0.0
H307 H 0.52344 0.66808 0.64339 0.0
H308 H 0.38445 0.45085 0.71667 0.0
H309 H 0.37648 0.35775 0.68873 0.0
H310 H 0.49021 0.31817 0.5122 0.0
H311 H 0.57624 0.38424 0.41863 0.0
H312 H 0.71238 0.60141 0.34161 0.0
H313 H 0.72019 0.69448 0.36962 0.0
H314 H 0.72506 0.51951 0.61987 0.0
H315 H 0.63732 0.55813 0.75779 0.0
H316 H 0.45653 0.48615 0.305 0.0
H317 H 0.37019 0.52727 0.44155 0.0
Cu318 Cu 0.26098 0.46644 0.23809 0.0
N319 N 0.28453 0.43418 0.18073 0.0
N320 N 0.34864 0.43181 0.11547 0.0
C321 C 0.33975 0.46444 0.15051 0.0
C322 C 0.29705 0.37877 0.1233 0.0
C323 C 0.25723 0.38036 0.1637 0.0
O324 O 0.3341 0.51126 0.29355 0.0
C325 C 0.16441 0.46514 0.17007 0.0
O326 O 0.13717 0.41058 0.19069 0.0
H327 H 0.37371 0.50919 0.15615 0.0
H328 H 0.2124 0.34458 0.18067 0.0
N329 N 0.20175 0.41491 0.3031 0.0
N330 N 0.13206 0.40385 0.3732 0.0
C331 C 0.18872 0.43904 0.34697 0.0
C332 C 0.15305 0.36016 0.30513 0.0
C333 C 0.1096 0.35334 0.34846 0.0
C334 C 0.35481 0.48319 0.32047 0.0
O335 O 0.3289 0.4297 0.30801 0.0
H336 H 0.21725 0.48475 0.35142 0.0
H337 H 0.14578 0.33038 0.27069 0.0
O338 O 0.22082 0.49922 0.18229 0.0
H339 H 0.28942 0.34149 0.10278 0.0
H340 H 0.06292 0.31716 0.35379 0.0
Cu341 Cu 0.81182 0.25219 0.76141 0.0
N342 N 0.79485 0.19909 0.70252 0.0
N343 N 0.74029 0.13106 0.63623 0.0
C344 C 0.74024 0.16416 0.67916 0.0
C345 C 0.79704 0.14553 0.63179 0.0
C346 C 0.83083 0.18769 0.67317 0.0
O347 O 0.73221 0.20691 0.82096 0.0
C348 C 0.86606 0.3456 0.64397 0.0
O349 O 0.82528 0.30394 0.61109 0.0
H350 H 0.70143 0.16399 0.69215 0.0
H351 H 0.87827 0.2091 0.68056 0.0
N352 N 0.86817 0.25907 0.81908 0.0
N353 N 0.93058 0.30367 0.89781 0.0
C354 C 0.90848 0.30978 0.84138 0.0
C355 C 0.86511 0.219 0.86256 0.0
C356 C 0.90342 0.2466 0.91185 0.0
C357 C 0.72809 0.20485 0.88435 0.0
O358 O 0.77711 0.24339 0.91161 0.0
H359 H 0.9147 0.34959 0.82208 0.0
H360 H 0.83218 0.17318 0.86283 0.0
O361 O 0.86271 0.33342 0.70708 0.0
H362 H 0.81291 0.12764 0.60019 0.0
H363 H 0.90681 0.22624 0.95717 0.0
Cu364 Cu 0.6071 0.80226 0.29777 0.0
N365 N 0.66269 0.86607 0.23981 0.0
N366 N 0.68944 0.94143 0.16754 0.0
C367 C 0.65792 0.91018 0.22364 0.0
C368 C 0.7152 0.91604 0.14682 0.0
C369 C 0.69899 0.86969 0.19191 0.0
O370 O 0.56235 0.82874 0.3444 0.0
C371 C 0.59705 0.71253 0.231 0.0
O372 O 0.64901 0.73332 0.25717 0.0
H373 H 0.62567 0.91494 0.24746 0.0
H374 H 0.70795 0.8377 0.18638 0.0
N375 N 0.6433 0.78342 0.36294 0.0
N376 N 0.65185 0.72459 0.43379 0.0
C377 C 0.61411 0.73202 0.39908 0.0
C378 C 0.70165 0.80985 0.376 0.0
C379 C 0.70703 0.77342 0.42011 0.0
C380 C 0.59389 0.87368 0.37574 0.0
O381 O 0.65195 0.89771 0.37748 0.0
H382 H 0.56658 0.69915 0.39668 0.0
H383 H 0.73791 0.85113 0.35244 0.0
O384 O 0.56808 0.73499 0.24242 0.0
H385 H 0.73962 0.92721 0.10003 0.0
H386 H 0.74827 0.78113 0.43858 0.0
Cu387 Cu 0.83402 0.56896 0.82066 0.0
N388 N 0.89418 0.62168 0.75801 0.0
N389 N 0.9554 0.64013 0.67246 0.0
C390 C 0.93001 0.60937 0.73071 0.0
C391 C 0.93488 0.6735 0.66215 0.0
C392 C 0.89728 0.66233 0.71552 0.0
O393 O 0.87671 0.53599 0.86986 0.0
C394 C 0.73676 0.5569 0.74505 0.0
O395 O 0.75786 0.60623 0.76819 0.0
H396 H 0.93058 0.5727 0.7485 0.0
H397 H 0.86944 0.67812 0.71942 0.0
N398 N 0.81688 0.6052 0.87976 0.0
N399 N 0.76046 0.61878 0.9438 0.0
C400 C 0.76362 0.58045 0.91325 0.0
C401 C 0.84874 0.66108 0.89031 0.0
C402 C 0.81389 0.66956 0.93013 0.0
C403 C 0.87683 0.52587 0.93257 0.0
O404 O 0.83764 0.52708 0.96849 0.0
H405 H 0.7267 0.53579 0.9124 0.0
H406 H 0.89303 0.69371 0.86828 0.0
O407 O 0.76071 0.52947 0.76342 0.0
H408 H 0.94235 0.70012 0.61709 0.0
H409 H 0.82603 0.70996 0.9462 0.0
Cu410 Cu 0.28811 0.8148 0.29305 0.0
N411 N 0.23052 0.80436 0.23404 0.0
N412 N 0.15732 0.74191 0.17323 0.0
C413 C 0.21233 0.76246 0.1952 0.0
C414 C 0.14163 0.77517 0.19562 0.0
C415 C 0.18718 0.81404 0.23327 0.0
O416 O 0.24093 0.73511 0.35132 0.0
C417 C 0.40041 0.91059 0.21793 0.0
O418 O 0.38666 0.93916 0.25175 0.0
H419 H 0.23582 0.74219 0.19068 0.0
H420 H 0.18467 0.84151 0.26426 0.0
N421 N 0.30585 0.86655 0.3549 0.0
N422 N 0.35684 0.92395 0.43266 0.0
C423 C 0.3554 0.88996 0.38988 0.0
C424 C 0.27446 0.88592 0.37736 0.0
C425 C 0.3063 0.92196 0.42511 0.0
C426 C 0.18466 0.71151 0.36965 0.0
O427 O 0.16247 0.74103 0.35177 0.0
H428 H 0.39038 0.88305 0.38319 0.0
H429 H 0.23151 0.87465 0.3607 0.0
O430 O 0.36514 0.85466 0.22888 0.0
H431 H 0.09766 0.76728 0.19217 0.0
H432 H 0.29383 0.94535 0.4516 0.0
Cu433 Cu 0.50162 0.26339 0.77199 0.0
N434 N 0.46258 0.27877 0.70743 0.0
N435 N 0.45023 0.33071 0.63007 0.0
C436 C 0.48964 0.32796 0.66732 0.0
C437 C 0.3962 0.28118 0.64646 0.0
C438 C 0.40398 0.24894 0.69448 0.0
O439 O 0.54579 0.33292 0.82295 0.0
C440 C 0.50523 0.18294 0.7027 0.0
O441 O 0.44712 0.15815 0.71133 0.0
H442 H 0.53681 0.36251 0.66806 0.0
H443 H 0.36923 0.20787 0.71992 0.0
N444 N 0.44811 0.20517 0.83605 0.0
N445 N 0.42928 0.14217 0.92171 0.0
C446 C 0.45656 0.16531 0.86169 0.0
C447 C 0.41359 0.20694 0.88164 0.0
C448 C 0.40238 0.16831 0.93509 0.0
C449 C 0.51877 0.35704 0.83496 0.0
O450 O 0.46727 0.33845 0.80864 0.0
H451 H 0.48897 0.15915 0.84101 0.0
H452 H 0.40315 0.23847 0.87967 0.0
O453 O 0.54102 0.23181 0.72552 0.0
H454 H 0.35409 0.27029 0.62701 0.0
H455 H 0.38095 0.16354 0.98199 0.0
loop_
_geom_bond_atom_site_label_1
_geom_bond_atom_site_label_2
_geom_bond_distance
_geom_bond_site_symmetry_2
_ccdc_geom_bond_type
C0 C1 1.443 1_556 S
C0 N4 1.376 1_556 S
C0 C38 1.389 . S
C1 C0 1.443 1_554 S
C1 C2 1.340 . S
C1 H41 0.951 1_554 S
C2 C1 1.340 . S
C2 C3 1.439 . S
C2 H42 0.950 . S
C3 C2 1.439 . S
C3 N4 1.374 . S
C3 C37 1.395 . S
N4 C0 1.376 1_554 S
N4 C3 1.374 . S
N4 Co5 2.008 1_655 S
Co5 N4 2.008 1_455 S
Co5 N6 1.999 1_455 S
Co5 N11 2.008 1_554 S
Co5 N16 1.995 1_554 S
Co5 N21 2.282 . S
Co5 N27 2.282 1_454 S
N6 Co5 1.999 1_655 S
N6 C7 1.388 . S
N6 C10 1.366 1_655 S
C7 N6 1.388 . S
C7 C8 1.446 . S
C7 C37 1.391 . S
C8 C7 1.446 . S
C8 C9 1.339 1_655 S
C8 H43 0.949 . S
C9 C8 1.339 1_455 S
C9 C10 1.439 . S
C9 H44 0.950 . S
C10 N6 1.366 1_455 S
C10 C9 1.439 . S
C10 C39 1.392 . S
N11 Co5 2.008 1_556 S
N11 C12 1.376 1_556 S
N11 C15 1.374 . S
C12 N11 1.376 1_554 S
C12 C13 1.443 . S
C12 C39 1.389 . S
C13 C12 1.443 . S
C13 C14 1.340 1_554 S
C13 H45 0.951 . S
C14 C13 1.340 1_556 S
C14 C15 1.439 . S
C14 H46 0.950 . S
C15 N11 1.374 . S
C15 C14 1.439 . S
C15 C40 1.395 . S
N16 Co5 1.995 1_556 S
N16 C17 1.376 . S
N16 C20 1.383 1_455 S
C17 N16 1.376 . S
C17 C18 1.446 . S
C17 C40 1.391 . S
C18 C17 1.446 . S
C18 C19 1.339 . S
C18 H47 0.949 . S
C19 C18 1.339 . S
C19 C20 1.439 1_455 S
C19 H48 0.950 1_455 S
C20 N16 1.383 1_655 S
C20 C19 1.439 1_655 S
C20 C38 1.392 . S
N21 Co5 2.282 . S
N21 C24 1.332 . S
N21 C26 1.332 . S
C22 C23 1.386 . S
C22 C25 1.388 . S
C23 C22 1.386 . S
C23 C24 1.382 . S
C23 H49 0.950 . S
C24 N21 1.332 . S
C24 C23 1.382 . S
C24 H35 0.952 . S
C25 C22 1.388 . S
C25 C26 1.382 . S
C25 H50 0.950 . S
C26 N21 1.332 . S
C26 C25 1.382 . S
C26 H36 0.948 . S
N27 Co5 2.282 1_656 S
N27 C31 1.332 . S
N27 C32 1.332 . S
C28 C29 1.388 . S
C28 C32 1.382 . S
C28 H51 0.950 . S
C29 C28 1.388 . S
C29 C30 1.386 . S
C30 C29 1.386 . S
C30 C31 1.382 . S
C30 H52 0.950 . S
C31 N27 1.332 . S
C31 C30 1.382 . S
C31 H33 0.952 1_556 S
C32 N27 1.332 . S
C32 C28 1.382 . S
C32 H34 0.948 1_655 S
H33 C31 0.952 1_554 S
H34 C32 0.948 1_455 S
H35 C24 0.952 . S
H36 C26 0.948 . S
C37 C3 1.395 . S
C37 C7 1.391 . S
C38 C0 1.389 . S
C38 C20 1.392 . S
C39 C10 1.392 . S
C39 C12 1.389 . S
C40 C15 1.395 . S
C40 C17 1.391 . S
H41 C1 0.951 1_556 S
H42 C2 0.950 . S
H43 C8 0.949 . S
H44 C9 0.950 . S
H45 C13 0.951 . S
H46 C14 0.950 . S
H47 C18 0.949 . S
H48 C19 0.950 1_655 S
H49 C23 0.950 . S
H50 C25 0.950 . S
H51 C28 0.950 . S
H52 C30 0.950 . S
C53 C54 1.443 . S
C53 N57 1.377 1_545 S
C53 C91 1.389 . S
C54 C53 1.443 . S
C54 C55 1.340 1_545 S
C54 H94 0.951 . S
C55 C54 1.340 1_565 S
C55 C56 1.439 . S
C55 H95 0.950 . S
C56 C55 1.439 . S
C56 N57 1.373 . S
C56 C90 1.395 . S
N57 C53 1.377 1_565 S
N57 C56 1.373 . S
N57 Co58 2.008 1_565 S
Co58 N57 2.008 1_545 S
Co58 N59 1.995 1_545 S
Co58 N64 2.008 . S
Co58 N69 1.995 . S
Co58 N74 2.282 1_545 S
Co58 N80 2.282 . S
N59 Co58 1.995 1_565 S
N59 C60 1.376 . S
N59 C63 1.383 . S
C60 N59 1.376 . S
C60 C61 1.446 . S
C60 C90 1.391 . S
C61 C60 1.446 . S
C61 C62 1.339 . S
C61 H96 0.949 . S
C62 C61 1.339 . S
C62 C63 1.439 . S
C62 H97 0.950 . S
C63 N59 1.383 . S
C63 C62 1.439 . S
C63 C92 1.392 . S
N64 Co58 2.008 . S
N64 C65 1.376 1_545 S
N64 C68 1.374 . S
C65 N64 1.376 1_565 S
C65 C66 1.438 1_565 S
C65 C92 1.389 . S
C66 C65 1.438 1_545 S
C66 C67 1.352 . S
C66 H98 0.946 1_545 S
C67 C66 1.352 . S
C67 C68 1.439 . S
C67 H99 0.950 . S
C68 N64 1.374 . S
C68 C67 1.439 . S
C68 C93 1.395 . S
N69 Co58 1.995 . S
N69 C70 1.376 . S
N69 C73 1.383 . S
C70 N69 1.376 . S
C70 C71 1.446 . S
C70 C93 1.391 . S
C71 C70 1.446 . S
C71 C72 1.339 . S
C71 H100 0.949 . S
C72 C71 1.339 . S
C72 C73 1.439 . S
C72 H101 0.950 . S
C73 N69 1.383 . S
C73 C72 1.439 . S
C73 C91 1.392 . S
N74 Co58 2.282 1_565 S
N74 C77 1.332 . S
N74 C79 1.332 . S
C75 C76 1.386 . S
C75 C78 1.388 . S
C76 C75 1.386 . S
C76 C77 1.382 . S
C76 H102 0.950 . S
C77 N74 1.332 . S
C77 C76 1.382 . S
C77 H88 0.952 1_565 S
C78 C75 1.388 . S
C78 C79 1.382 . S
C78 H103 0.950 . S
C79 N74 1.332 . S
C79 C78 1.382 . S
C79 H89 0.948 . S
N80 Co58 2.282 . S
N80 C84 1.332 . S
N80 C85 1.332 . S
C81 C82 1.388 . S
C81 C85 1.382 . S
C81 H104 0.950 . S
C82 C81 1.388 . S
C82 C83 1.386 . S
C83 C82 1.386 . S
C83 C84 1.382 . S
C83 H105 0.950 . S
C84 N80 1.332 . S
C84 C83 1.382 . S
C84 H86 0.952 1_545 S
C85 N80 1.332 . S
C85 C81 1.382 . S
C85 H87 0.948 . S
H86 C84 0.952 1_565 S
H87 C85 0.948 . S
H88 C77 0.952 1_545 S
H89 C79 0.948 . S
C90 C56 1.395 . S
C90 C60 1.391 . S
C91 C53 1.389 . S
C91 C73 1.392 . S
C92 C63 1.392 . S
C92 C65 1.389 . S
C93 C68 1.395 . S
C93 C70 1.391 . S
H94 C54 0.951 . S
H95 C55 0.950 . S
H96 C61 0.949 . S
H97 C62 0.950 . S
H98 C66 0.946 1_565 S
H99 C67 0.950 . S
H100 C71 0.949 . S
H101 C72 0.950 . S
H102 C76 0.950 . S
H103 C78 0.950 . S
H104 C81 0.950 . S
H105 C83 0.950 . S
C106 C107 1.443 . S
C106 N110 1.376 . S
C106 C144 1.389 . S
C107 C106 1.443 . S
C107 C108 1.340 . S
C107 H147 0.951 . S
C108 C107 1.340 . S
C108 C109 1.439 . S
C108 H148 0.950 . S
C109 C108 1.439 . S
C109 N110 1.374 . S
C109 C143 1.395 . S
N110 C106 1.376 . S
N110 C109 1.374 . S
N110 Co111 2.008 1_556 S
Co111 N110 2.008 1_554 S
Co111 N112 1.995 1_554 S
Co111 N117 2.008 . S
Co111 N122 1.995 . S
Co111 N127 2.282 . S
Co111 N133 2.282 1_554 S
N112 Co111 1.995 1_556 S
N112 C113 1.376 . S
N112 C116 1.383 1_556 S
C113 N112 1.376 . S
C113 C114 1.446 . S
C113 C143 1.391 . S
C114 C113 1.446 . S
C114 C115 1.339 1_556 S
C114 H149 0.949 . S
C115 C114 1.339 1_554 S
C115 C116 1.439 . S
C115 H150 0.950 . S
C116 N112 1.383 1_554 S
C116 C115 1.439 . S
C116 C145 1.392 . S
N117 Co111 2.008 . S
N117 C118 1.376 . S
N117 C121 1.374 . S
C118 N117 1.376 . S
C118 C119 1.443 . S
C118 C145 1.389 . S
C119 C118 1.443 . S
C119 C120 1.340 . S
C119 H151 0.951 . S
C120 C119 1.340 . S
C120 C121 1.439 . S
C120 H152 0.950 . S
C121 N117 1.374 . S
C121 C120 1.439 . S
C121 C146 1.395 . S
N122 Co111 1.995 . S
N122 C123 1.376 . S
N122 C126 1.383 1_554 S
C123 N122 1.376 . S
C123 C124 1.446 . S
C123 C146 1.391 . S
C124 C123 1.446 . S
C124 C125 1.339 . S
C124 H153 0.949 . S
C125 C124 1.339 . S
C125 C126 1.439 1_554 S
C125 H154 0.950 1_554 S
C126 N122 1.383 1_556 S
C126 C125 1.439 1_556 S
C126 C144 1.392 . S
N127 Co111 2.282 . S
N127 C130 1.332 . S
N127 C132 1.332 . S
C128 C129 1.386 . S
C128 C131 1.388 . S
C129 C128 1.386 . S
C129 C130 1.382 . S
C129 H155 0.950 . S
C130 N127 1.332 . S
C130 C129 1.382 . S
C130 H141 0.952 . S
C131 C128 1.388 . S
C131 C132 1.382 . S
C131 H156 0.950 . S
C132 N127 1.332 . S
C132 C131 1.382 . S
C132 H142 0.948 . S
N133 Co111 2.282 1_556 S
N133 C137 1.332 . S
N133 C138 1.332 . S
C134 C135 1.388 . S
C134 C138 1.382 . S
C134 H157 0.950 . S
C135 C134 1.388 . S
C135 C136 1.386 . S
C136 C135 1.386 . S
C136 C137 1.382 . S
C136 H158 0.950 . S
C137 N133 1.332 . S
C137 C136 1.382 . S
C137 H139 0.952 . S
C138 N133 1.332 . S
C138 C134 1.382 . S
C138 H140 0.948 1_556 S
H139 C137 0.952 . S
H140 C138 0.948 1_554 S
H141 C130 0.952 . S
H142 C132 0.948 . S
C143 C109 1.395 . S
C143 C113 1.391 . S
C144 C106 1.389 . S
C144 C126 1.392 . S
C145 C116 1.392 . S
C145 C118 1.389 . S
C146 C121 1.395 . S
C146 C123 1.391 . S
H147 C107 0.951 . S
H148 C108 0.950 . S
H149 C114 0.949 . S
H150 C115 0.950 . S
H151 C119 0.951 . S
H152 C120 0.950 . S
H153 C124 0.949 . S
H154 C125 0.950 1_556 S
H155 C129 0.950 . S
H156 C131 0.950 . S
H157 C134 0.950 . S
H158 C136 0.950 . S
C159 C160 1.443 . S
C159 N163 1.376 . S
C159 C197 1.389 . S
C160 C159 1.443 . S
C160 C161 1.340 . S
C160 H200 0.951 . S
C161 C160 1.340 . S
C161 C162 1.439 . S
C161 H201 0.950 . S
C162 C161 1.439 . S
C162 N163 1.374 . S
C162 C196 1.395 . S
N163 C159 1.376 . S
N163 C162 1.374 . S
N163 Co164 2.008 1_655 S
Co164 N163 2.008 1_455 S
Co164 N165 1.995 1_455 S
Co164 N170 2.008 . S
Co164 N175 1.995 . S
Co164 N180 2.282 . S
Co164 N186 2.282 1_455 S
N165 Co164 1.995 1_655 S
N165 C166 1.376 . S
N165 C169 1.383 1_655 S
C166 N165 1.376 . S
C166 C167 1.446 . S
C166 C196 1.391 . S
C167 C166 1.446 . S
C167 C168 1.339 1_655 S
C167 H202 0.949 . S
C168 C167 1.339 1_455 S
C168 C169 1.439 . S
C168 H203 0.950 . S
C169 N165 1.383 1_455 S
C169 C168 1.439 . S
C169 C198 1.392 . S
N170 Co164 2.008 . S
N170 C171 1.376 . S
N170 C174 1.374 . S
C171 N170 1.376 . S
C171 C172 1.443 . S
C171 C198 1.389 . S
C172 C171 1.443 . S
C172 C173 1.340 . S
C172 H204 0.951 . S
C173 C172 1.340 . S
C173 C174 1.439 . S
C173 H205 0.950 . S
C174 N170 1.374 . S
C174 C173 1.439 . S
C174 C199 1.395 . S
N175 Co164 1.995 . S
N175 C176 1.376 . S
N175 C179 1.383 1_455 S
C176 N175 1.376 . S
C176 C177 1.446 . S
C176 C199 1.391 . S
C177 C176 1.446 . S
C177 C178 1.339 1_455 S
C177 H206 0.949 . S
C178 C177 1.339 1_655 S
C178 C179 1.439 . S
C178 H207 0.950 . S
C179 N175 1.383 1_655 S
C179 C178 1.439 . S
C179 C197 1.392 . S
N180 Co164 2.282 . S
N180 C183 1.332 . S
N180 C185 1.332 . S
C181 C182 1.386 . S
C181 C184 1.388 . S
C182 C181 1.386 . S
C182 C183 1.382 . S
C182 H208 0.950 . S
C183 N180 1.332 . S
C183 C182 1.382 . S
C183 H194 0.952 . S
C184 C181 1.388 . S
C184 C185 1.382 . S
C184 H209 0.950 . S
C185 N180 1.332 . S
C185 C184 1.382 . S
C185 H195 0.948 . S
N186 Co164 2.282 1_655 S
N186 C190 1.332 . S
N186 C191 1.332 . S
C187 C188 1.388 . S
C187 C191 1.382 . S
C187 H210 0.950 . S
C188 C187 1.388 . S
C188 C189 1.386 . S
C189 C188 1.386 . S
C189 C190 1.382 . S
C189 H211 0.950 . S
C190 N186 1.332 . S
C190 C189 1.382 . S
C190 H192 0.952 . S
C191 N186 1.332 . S
C191 C187 1.382 . S
C191 H193 0.948 1_655 S
H192 C190 0.952 . S
H193 C191 0.948 1_455 S
H194 C183 0.952 . S
H195 C185 0.948 . S
C196 C162 1.395 . S
C196 C166 1.391 . S
C197 C159 1.389 . S
C197 C179 1.392 . S
C198 C169 1.392 . S
C198 C171 1.389 . S
C199 C174 1.395 . S
C199 C176 1.391 . S
H200 C160 0.951 . S
H201 C161 0.950 . S
H202 C167 0.949 . S
H203 C168 0.950 . S
H204 C172 0.951 . S
H205 C173 0.950 . S
H206 C177 0.949 . S
H207 C178 0.950 . S
H208 C182 0.950 . S
H209 C184 0.950 . S
H210 C187 0.950 . S
H211 C189 0.950 . S
C212 C213 1.443 . S
C212 N216 1.376 1_565 S
C212 C250 1.389 . S
C213 C212 1.443 . S
C213 C214 1.340 1_565 S
C213 H253 0.951 . S
C214 C213 1.340 1_545 S
C214 C215 1.439 . S
C214 H254 0.950 . S
C215 C214 1.439 . S
C215 N216 1.374 . S
C215 C249 1.395 . S
N216 C212 1.376 1_545 S
N216 C215 1.374 . S
N216 Co217 2.008 . S
Co217 N216 2.008 . S
Co217 N218 1.995 . S
Co217 N223 2.008 1_544 S
Co217 N228 1.995 1_545 S
Co217 N233 2.282 1_554 S
Co217 N239 2.282 1_545 S
N218 Co217 1.995 . S
N218 C219 1.376 . S
N218 C222 1.383 1_554 S
C219 N218 1.376 . S
C219 C220 1.446 . S
C219 C249 1.391 . S
C220 C219 1.446 . S
C220 C221 1.339 1_554 S
C220 H255 0.949 . S
C221 C220 1.339 1_556 S
C221 C222 1.439 . S
C221 H256 0.950 . S
C222 N218 1.383 1_556 S
C222 C221 1.439 . S
C222 C251 1.392 . S
N223 Co217 2.008 1_566 S
N223 C224 1.376 1_565 S
N223 C227 1.374 . S
C224 N223 1.376 1_545 S
C224 C225 1.443 . S
C224 C251 1.389 . S
C225 C224 1.443 . S
C225 C226 1.340 1_545 S
C225 H257 0.951 . S
C226 C225 1.340 1_565 S
C226 C227 1.439 . S
C226 H258 0.950 . S
C227 N223 1.374 . S
C227 C226 1.439 . S
C227 C252 1.395 . S
N228 Co217 1.995 1_565 S
N228 C229 1.376 1_554 S
N228 C232 1.383 . S
C229 N228 1.376 1_556 S
C229 C230 1.446 . S
C229 C252 1.391 . S
C230 C229 1.446 . S
C230 C231 1.339 1_556 S
C230 H259 0.949 . S
C231 C230 1.339 1_554 S
C231 C232 1.439 . S
C231 H260 0.950 . S
C232 N228 1.383 . S
C232 C231 1.439 . S
C232 C250 1.392 . S
N233 Co217 2.282 1_556 S
N233 C236 1.332 . S
N233 C238 1.332 . S
C234 C235 1.386 . S
C234 C237 1.388 . S
C235 C234 1.386 . S
C235 C236 1.382 . S
C235 H261 0.950 . S
C236 N233 1.332 . S
C236 C235 1.382 . S
C236 H247 0.952 1_545 S
C237 C234 1.388 . S
C237 C238 1.382 . S
C237 H262 0.950 . S
C238 N233 1.332 . S
C238 C237 1.382 . S
C238 H248 0.948 . S
N239 Co217 2.282 1_565 S
N239 C243 1.332 . S
N239 C244 1.332 . S
C240 C241 1.388 . S
C240 C244 1.382 . S
C240 H263 0.950 . S
C241 C240 1.388 . S
C241 C242 1.386 . S
C242 C241 1.386 . S
C242 C243 1.382 . S
C242 H264 0.950 . S
C243 N239 1.332 . S
C243 C242 1.382 . S
C243 H245 0.952 1_565 S
C244 N239 1.332 . S
C244 C240 1.382 . S
C244 H246 0.948 . S
H245 C243 0.952 1_545 S
H246 C244 0.948 . S
H247 C236 0.952 1_565 S
H248 C238 0.948 . S
C249 C215 1.395 . S
C249 C219 1.391 . S
C250 C212 1.389 . S
C250 C232 1.392 . S
C251 C222 1.392 . S
C251 C224 1.389 . S
C252 C227 1.395 . S
C252 C229 1.391 . S
H253 C213 0.951 . S
H254 C214 0.950 . S
H255 C220 0.949 . S
H256 C221 0.950 . S
H257 C225 0.951 . S
H258 C226 0.950 . S
H259 C230 0.949 . S
H260 C231 0.950 . S
H261 C235 0.950 . S
H262 C237 0.950 . S
H263 C240 0.950 . S
H264 C242 0.950 . S
C265 C266 1.443 . S
C265 N269 1.376 . S
C265 C303 1.389 . S
C266 C265 1.443 . S
C266 C267 1.340 . S
C266 H306 0.951 . S
C267 C266 1.340 . S
C267 C268 1.439 . S
C267 H307 0.950 . S
C268 C267 1.439 . S
C268 N269 1.374 . S
C268 C302 1.395 . S
N269 C265 1.376 . S
N269 C268 1.374 . S
N269 Co270 2.008 . S
Co270 N269 2.008 . S
Co270 N271 1.995 . S
Co270 N276 2.008 . S
Co270 N281 1.995 . S
Co270 N286 2.282 . S
Co270 N292 2.282 . S
N271 Co270 1.995 . S
N271 C272 1.376 . S
N271 C275 1.383 . S
C272 N271 1.376 . S
C272 C273 1.446 . S
C272 C302 1.391 . S
C273 C272 1.446 . S
C273 C274 1.339 . S
C273 H308 0.949 . S
C274 C273 1.339 . S
C274 C275 1.439 . S
C274 H309 0.950 . S
C275 N271 1.383 . S
C275 C274 1.439 . S
C275 C304 1.392 . S
N276 Co270 2.008 . S
N276 C277 1.376 . S
N276 C280 1.374 . S
C277 N276 1.376 . S
C277 C278 1.443 . S
C277 C304 1.389 . S
C278 C277 1.443 . S
C278 C279 1.340 . S
C278 H310 0.951 . S
C279 C278 1.340 . S
C279 C280 1.439 . S
C279 H311 0.950 . S
C280 N276 1.374 . S
C280 C279 1.439 . S
C280 C305 1.395 . S
N281 Co270 1.995 . S
N281 C282 1.376 . S
N281 C285 1.383 . S
C282 N281 1.376 . S
C282 C283 1.446 . S
C282 C305 1.391 . S
C283 C282 1.446 . S
C283 C284 1.339 . S
C283 H312 0.949 . S
C284 C283 1.339 . S
C284 C285 1.439 . S
C284 H313 0.950 . S
C285 N281 1.383 . S
C285 C284 1.439 . S
C285 C303 1.392 . S
N286 Co270 2.282 . S
N286 C289 1.332 . S
N286 C291 1.332 . S
C287 C288 1.386 . S
C287 C290 1.388 . S
C288 C287 1.386 . S
C288 C289 1.382 . S
C288 H314 0.950 . S
C289 N286 1.332 . S
C289 C288 1.382 . S
C289 H300 0.952 . S
C290 C287 1.388 . S
C290 C291 1.382 . S
C290 H315 0.950 . S
C291 N286 1.332 . S
C291 C290 1.382 . S
C291 H301 0.948 . S
N292 Co270 2.282 . S
N292 C296 1.332 . S
N292 C297 1.332 . S
C293 C294 1.388 . S
C293 C297 1.382 . S
C293 H316 0.950 . S
C294 C293 1.388 . S
C294 C295 1.386 . S
C295 C294 1.386 . S
C295 C296 1.382 . S
C295 H317 0.950 . S
C296 N292 1.332 . S
C296 C295 1.382 . S
C296 H298 0.952 . S
C297 N292 1.332 . S
C297 C293 1.382 . S
C297 H299 0.948 . S
H298 C296 0.952 . S
H299 C297 0.948 . S
H300 C289 0.952 . S
H301 C291 0.948 . S
C302 C268 1.395 . S
C302 C272 1.391 . S
C303 C265 1.389 . S
C303 C285 1.392 . S
C304 C275 1.392 . S
C304 C277 1.389 . S
C305 C280 1.395 . S
C305 C282 1.391 . S
H306 C266 0.951 . S
H307 C267 0.950 . S
H308 C273 0.949 . S
H309 C274 0.950 . S
H310 C278 0.951 . S
H311 C279 0.950 . S
H312 C283 0.949 . S
H313 C284 0.950 . S
H314 C288 0.950 . S
H315 C290 0.950 . S
H316 C293 0.950 . S
H317 C295 0.950 . S
Cu318 N319 1.999 . S
Cu318 O324 1.974 . S
Cu318 N329 1.985 . S
Cu318 O338 1.959 . S
N319 Cu318 1.999 . S
N319 C321 1.263 . S
N319 C323 1.389 . S
N320 C321 1.358 . S
N320 C322 1.400 . S
C321 N319 1.263 . S
C321 N320 1.358 . S
C321 H327 0.930 . S
C322 N320 1.400 . S
C322 C323 1.351 . S
C322 H339 0.930 . S
C323 N319 1.389 . S
C323 C322 1.351 . S
C323 H328 0.930 . S
O324 Cu318 1.974 . S
O324 C334 1.282 . S
C325 O326 1.261 . S
C325 O338 1.251 . S
O326 C325 1.261 . S
H327 C321 0.930 . S
H328 C323 0.930 . S
N329 Cu318 1.985 . S
N329 C331 1.335 . S
N329 C332 1.390 . S
N330 C331 1.345 . S
N330 C333 1.336 . S
C331 N329 1.335 . S
C331 N330 1.345 . S
C331 H336 0.930 . S
C332 N329 1.390 . S
C332 C333 1.346 . S
C332 H337 0.930 . S
C333 N330 1.336 . S
C333 C332 1.346 . S
C333 H340 0.929 . S
C334 O324 1.282 . S
C334 O335 1.216 . S
O335 C334 1.216 . S
H336 C331 0.930 . S
H337 C332 0.930 . S
O338 Cu318 1.959 . S
O338 C325 1.251 . S
H339 C322 0.930 . S
H340 C333 0.929 . S
Cu341 N342 1.999 . S
Cu341 O347 1.974 . S
Cu341 N352 1.985 . S
Cu341 O361 1.959 . S
N342 Cu341 1.999 . S
N342 C344 1.263 . S
N342 C346 1.389 . S
N343 C344 1.358 . S
N343 C345 1.400 . S
C344 N342 1.263 . S
C344 N343 1.358 . S
C344 H350 0.930 . S
C345 N343 1.400 . S
C345 C346 1.351 . S
C345 H362 0.930 . S
C346 N342 1.389 . S
C346 C345 1.351 . S
C346 H351 0.930 . S
O347 Cu341 1.974 . S
O347 C357 1.282 . S
C348 O349 1.261 . S
C348 O361 1.251 . S
O349 C348 1.261 . S
H350 C344 0.930 . S
H351 C346 0.930 . S
N352 Cu341 1.985 . S
N352 C354 1.335 . S
N352 C355 1.390 . S
N353 C354 1.345 . S
N353 C356 1.336 . S
C354 N352 1.335 . S
C354 N353 1.345 . S
C354 H359 0.930 . S
C355 N352 1.390 . S
C355 C356 1.346 . S
C355 H360 0.930 . S
C356 N353 1.336 . S
C356 C355 1.346 . S
C356 H363 0.929 . S
C357 O347 1.282 . S
C357 O358 1.216 . S
O358 C357 1.216 . S
H359 C354 0.930 . S
H360 C355 0.930 . S
O361 Cu341 1.959 . S
O361 C348 1.251 . S
H362 C345 0.930 . S
H363 C356 0.929 . S
Cu364 N365 1.999 . S
Cu364 O370 1.974 . S
Cu364 N375 1.985 . S
Cu364 O384 1.959 . S
N365 Cu364 1.999 . S
N365 C367 1.263 . S
N365 C369 1.389 . S
N366 C367 1.358 . S
N366 C368 1.400 . S
C367 N365 1.263 . S
C367 N366 1.358 . S
C367 H373 0.930 . S
C368 N366 1.400 . S
C368 C369 1.351 . S
C368 H385 0.930 . S
C369 N365 1.389 . S
C369 C368 1.351 . S
C369 H374 0.930 . S
O370 Cu364 1.974 . S
O370 C380 1.282 . S
C371 O372 1.261 . S
C371 O384 1.251 . S
O372 C371 1.261 . S
H373 C367 0.930 . S
H374 C369 0.930 . S
N375 Cu364 1.985 . S
N375 C377 1.335 . S
N375 C378 1.390 . S
N376 C377 1.345 . S
N376 C379 1.336 . S
C377 N375 1.335 . S
C377 N376 1.345 . S
C377 H382 0.930 . S
C378 N375 1.390 . S
C378 C379 1.346 . S
C378 H383 0.930 . S
C379 N376 1.336 . S
C379 C378 1.346 . S
C379 H386 0.929 . S
C380 O370 1.282 . S
C380 O381 1.216 . S
O381 C380 1.216 . S
H382 C377 0.930 . S
H383 C378 0.930 . S
O384 Cu364 1.959 . S
O384 C371 1.251 . S
H385 C368 0.930 . S
H386 C379 0.929 . S
Cu387 N388 1.999 . S
Cu387 O393 1.974 . S
Cu387 N398 1.985 . S
Cu387 O407 1.959 . S
N388 Cu387 1.999 . S
N388 C390 1.263 . S
N388 C392 1.389 . S
N389 C390 1.358 . S
N389 C391 1.400 . S
C390 N388 1.263 . S
C390 N389 1.358 . S
C390 H396 0.930 . S
C391 N389 1.400 . S
C391 C392 1.351 . S
C391 H408 0.930 . S
C392 N388 1.389 . S
C392 C391 1.351 . S
C392 H397 0.930 . S
O393 Cu387 1.974 . S
O393 C403 1.282 . S
C394 O395 1.261 . S
C394 O407 1.251 . S
O395 C394 1.261 . S
H396 C390 0.930 . S
H397 C392 0.930 . S
N398 Cu387 1.985 . S
N398 C400 1.335 . S
N398 C401 1.390 . S
N399 C400 1.345 . S
N399 C402 1.336 . S
C400 N398 1.335 . S
C400 N399 1.345 . S
C400 H405 0.930 . S
C401 N398 1.390 . S
C401 C402 1.346 . S
C401 H406 0.930 . S
C402 N399 1.336 . S
C402 C401 1.346 . S
C402 H409 0.929 1_556 S
C403 O393 1.282 . S
C403 O404 1.216 . S
O404 C403 1.216 . S
H405 C400 0.930 . S
H406 C401 0.930 . S
O407 Cu387 1.959 . S
O407 C394 1.251 . S
H408 C391 0.930 . S
H409 C402 0.929 1_554 S
Cu410 N411 1.999 . S
Cu410 O416 1.974 . S
Cu410 N421 1.985 . S
Cu410 O430 1.959 . S
N411 Cu410 1.999 . S
N411 C413 1.263 . S
N411 C415 1.389 . S
N412 C413 1.358 . S
N412 C414 1.400 . S
C413 N411 1.263 . S
C413 N412 1.358 . S
C413 H419 0.930 . S
C414 N412 1.400 . S
C414 C415 1.351 . S
C414 H431 0.930 . S
C415 N411 1.389 . S
C415 C414 1.351 . S
C415 H420 0.930 . S
O416 Cu410 1.974 . S
O416 C426 1.282 . S
C417 O418 1.261 . S
C417 O430 1.251 . S
O418 C417 1.261 . S
H419 C413 0.930 . S
H420 C415 0.930 . S
N421 Cu410 1.985 . S
N421 C423 1.335 . S
N421 C424 1.390 . S
N422 C423 1.345 . S
N422 C425 1.336 . S
C423 N421 1.335 . S
C423 N422 1.345 . S
C423 H428 0.930 . S
C424 N421 1.390 . S
C424 C425 1.346 . S
C424 H429 0.930 . S
C425 N422 1.336 . S
C425 C424 1.346 . S
C425 H432 0.929 . S
C426 O416 1.282 . S
C426 O427 1.216 . S
O427 C426 1.216 . S
H428 C423 0.930 . S
H429 C424 0.930 . S
O430 Cu410 1.959 . S
O430 C417 1.251 . S
H431 C414 0.930 . S
H432 C425 0.929 . S
Cu433 N434 1.999 . S
Cu433 O439 1.974 . S
Cu433 N444 1.985 . S
Cu433 O453 1.959 . S
N434 Cu433 1.999 . S
N434 C436 1.263 . S
N434 C438 1.389 . S
N435 C436 1.358 . S
N435 C437 1.400 . S
C436 N434 1.263 . S
C436 N435 1.358 . S
C436 H442 0.930 . S
C437 N435 1.400 . S
C437 C438 1.351 . S
C437 H454 0.930 . S
C438 N434 1.389 . S
C438 C437 1.351 . S
C438 H443 0.930 . S
O439 Cu433 1.974 . S
O439 C449 1.282 . S
C440 O441 1.261 . S
C440 O453 1.251 . S
O441 C440 1.261 . S
H442 C436 0.930 . S
H443 C438 0.930 . S
N444 Cu433 1.985 . S
N444 C446 1.335 . S
N444 C447 1.390 . S
N445 C446 1.345 . S
N445 C448 1.336 . S
C446 N444 1.335 . S
C446 N445 1.345 . S
C446 H451 0.930 . S
C447 N444 1.390 . S
C447 C448 1.346 . S
C447 H452 0.930 . S
C448 N445 1.336 . S
C448 C447 1.346 . S
C448 H455 0.929 . S
C449 O439 1.282 . S
C449 O450 1.216 . S
O450 C449 1.216 . S
H451 C446 0.930 . S
H452 C447 0.930 . S
O453 Cu433 1.959 . S
O453 C440 1.251 . S
H454 C437 0.930 . S
H455 C448 0.929 . S
C39 C325 2.899 . S
C91 N343 1.797 . S
C371 C128 2.427 . S
N389 C188 1.639 . S
C417 C250 2.667 . S
N435 C304 2.067 . S
C75 C380 2.611 . S
C144 N399 1.693 . S
C426 C198 2.812 . S
N445 C234 1.413 . S
C294 C334 2.349 . S
N353 C29 1.258 . S
C403 C38 2.538 . S
C92 N422 1.155 . S
C449 C135 2.058 . S
C181 N330 0.846 . S
C251 C357 2.325 . S
C303 N376 1.313 . S
C82 C440 2.249 . S
N320 C145 1.155 . S
C197 C348 2.492 . S
C241 N366 0.730 . S
C287 C394 2.061 . S
C22 N412 0.696 . S
