# Generated by pormake.
# Topology anh, (6,3)-cn, num edge types: 1
# Building blocks:
#     Node 0, Type 0, BuildingBlock: BETGAK_clean_sbu_0, # of connection points: 6
#     Node 1, Type 0, BuildingBlock: BETGAK_clean_sbu_0, # of connection points: 6
#     Node 2, Type 0, BuildingBlock: BETGAK_clean_sbu_0, # of connection points: 6
#     Node 3, Type 1, BuildingBlock: OLANEW_clean_sbu_2, # of connection points: 3
#     Node 4, Type 1, BuildingBlock: OLANEW_clean_sbu_2, # of connection points: 3
#     Node 5, Type 1, BuildingBlock: OLANEW_clean_sbu_2, # of connection points: 3
#     Node 6, Type 1, BuildingBlock: OLANEW_clean_sbu_2, # of connection points: 3
#     Node 7, Type 1, BuildingBlock: OLANEW_clean_sbu_2, # of connection points: 3
#     Node 8, Type 1, BuildingBlock: OLANEW_clean_sbu_2, # of connection points: 3
#     Edge 9, Type (0, 1), BuildingBlock: ZUJKAS_clean_linker_0, # of connection points: 2
#     Edge 10, Type (0, 1), BuildingBlock: ZUJKAS_clean_linker_0, # of connection points: 2
#     Edge 11, Type (0, 1), BuildingBlock: ZUJKAS_clean_linker_0, # of connection points: 2
#     Edge 12, Type (0, 1), BuildingBlock: ZUJKAS_clean_linker_0, # of connection points: 2
#     Edge 13, Type (0, 1), BuildingBlock: ZUJKAS_clean_linker_0, # of connection points: 2
#     Edge 14, Type (0, 1), BuildingBlock: ZUJKAS_clean_linker_0, # of connection points: 2
#     Edge 15, Type (0, 1), BuildingBlock: ZUJKAS_clean_linker_0, # of connection points: 2
#     Edge 16, Type (0, 1), BuildingBlock: ZUJKAS_clean_linker_0, # of connection points: 2
#     Edge 17, Type (0, 1), BuildingBlock: ZUJKAS_clean_linker_0, # of connection points: 2
#     Edge 18, Type (0, 1), BuildingBlock: ZUJKAS_clean_linker_0, # of connection points: 2
#     Edge 19, Type (0, 1), BuildingBlock: ZUJKAS_clean_linker_0, # of connection points: 2
#     Edge 20, Type (0, 1), BuildingBlock: ZUJKAS_clean_linker_0, # of connection points: 2
#     Edge 21, Type (0, 1), BuildingBlock: ZUJKAS_clean_linker_0, # of connection points: 2
#     Edge 22, Type (0, 1), BuildingBlock: ZUJKAS_clean_linker_0, # of connection points: 2
#     Edge 23, Type (0, 1), BuildingBlock: ZUJKAS_clean_linker_0, # of connection points: 2
#     Edge 24, Type (0, 1), BuildingBlock: ZUJKAS_clean_linker_0, # of connection points: 2
#     Edge 25, Type (0, 1), BuildingBlock: ZUJKAS_clean_linker_0, # of connection points: 2
#     Edge 26, Type (0, 1), BuildingBlock: ZUJKAS_clean_linker_0, # of connection points: 2
# Relax obj value: 0.114
# Max RMSD: 0.152
# Mean RMSD: 0.109
data_MOF--net-anh--node1-BETGAK_clean_sbu_0--node2-OLANEW_clean_sbu_2--edge1-ZUJKAS_clean_linker_0
_symmetry_space_group_name_H-M    P1
_symmetry_Int_Tables_number       1
_symmetry_cell_setting            triclinic
loop_
_symmetry_equiv_pos_as_xyz
'x, y, z'
_cell_length_a     45.685934
_cell_length_b     50.213793
_cell_length_c     64.952422
_cell_angle_alpha  92.341895
_cell_angle_beta   89.722543
_cell_angle_gamma 127.85282
loop_
_atom_site_label
_atom_site_type_symbol
_atom_site_fract_x
_atom_site_fract_y
_atom_site_fract_z
_atom_type_partial_charge
La0 La 0.05772 0.53026 0.14557 0.0
La1 La 0.02945 0.56728 0.1629 0.0
C2 C 0.08767 0.51175 0.1228 0.0
C3 C 0.125 0.52189 0.11954 0.0
C4 C 0.12887 0.49859 0.11027 0.0
C5 C 0.16401 0.50703 0.10792 0.0
C6 C 0.19595 0.53899 0.11485 0.0
C7 C 0.19196 0.5625 0.12389 0.0
C8 C 0.15673 0.554 0.12618 0.0
C9 C 0.05011 0.52864 0.18563 0.0
C10 C 0.11466 0.61016 0.15795 0.0
C11 C 0.99729 0.58507 0.1841 0.0
C12 C 0.95917 0.56722 0.19124 0.0
C13 C 0.94228 0.58283 0.19032 0.0
C14 C 0.9045 0.56459 0.19405 0.0
C15 C 0.88291 0.5303 0.19862 0.0
C16 C 0.90045 0.51529 0.20066 0.0
C17 C 0.93827 0.53362 0.19704 0.0
C18 C 0.03674 0.56754 0.12268 0.0
C19 C 0.97348 0.48743 0.15288 0.0
O20 O 0.07339 0.49908 0.14062 0.0
O21 O 0.08182 0.533 0.11737 0.0
O22 O 0.04615 0.50467 0.17436 0.0
O23 O 0.06129 0.55326 0.17475 0.0
O24 O 0.10888 0.58308 0.14879 0.0
O25 O 0.08765 0.6092 0.16634 0.0
O26 O 1.0009 0.58777 0.16414 0.0
O27 O 0.01667 0.57663 0.19207 0.0
O28 O 0.04298 0.59274 0.13372 0.0
O29 O 0.02503 0.54331 0.13399 0.0
O30 O 0.9809 0.51386 0.16384 0.0
O31 O 0.99879 0.48962 0.14141 0.0
H32 H 0.10462 0.47362 0.10515 0.0
H33 H 0.16606 0.48814 0.10122 0.0
H34 H 0.21603 0.58739 0.12923 0.0
H35 H 0.15424 0.57233 0.13328 0.0
H36 H 0.95801 0.60879 0.18595 0.0
H37 H 0.89196 0.57706 0.19274 0.0
H38 H 0.88463 0.48887 0.20396 0.0
H39 H 0.95075 0.52103 0.19793 0.0
La40 La 0.54135 0.01055 0.50298 0.0
La41 La 0.49719 0.03233 0.48792 0.0
C42 C 0.56552 0.98517 0.52277 0.0
C43 C 0.55912 0.95276 0.5232 0.0
C44 C 0.53113 0.92458 0.51093 0.0
C45 C 0.52685 0.89445 0.5109 0.0
C46 C 0.55066 0.89223 0.52304 0.0
C47 C 0.57822 0.92049 0.53552 0.0
C48 C 0.58239 0.95046 0.53558 0.0
C49 C 0.54229 0.01702 0.46284 0.0
C50 C 0.45518 0.95543 0.49076 0.0
C51 C 0.47443 0.06037 0.47001 0.0
C52 C 0.4822 0.09321 0.47385 0.0
C53 C 0.50414 0.11398 0.49102 0.0
C54 C 0.50983 0.14433 0.49546 0.0
C55 C 0.49376 0.1545 0.48279 0.0
C56 C 0.47255 0.13398 0.46529 0.0
C57 C 0.46674 0.1035 0.4609 0.0
C58 C 0.49706 0.0263 0.5281 0.0
C59 C 0.58398 0.08743 0.49884 0.0
O60 O 0.58044 1.00181 0.50607 0.0
O61 O 0.53844 0.9855 0.52897 0.0
O62 O 0.56924 0.02192 0.47342 0.0
O63 O 0.51513 0.00567 0.47426 0.0
O64 O 0.48384 0.96332 0.50206 0.0
O65 O 0.457 0.97848 0.48029 0.0
O66 O 0.4565 0.03904 0.48456 0.0
O67 O 0.50239 0.06144 0.46372 0.0
O68 O 0.46958 0.02051 0.51762 0.0
O69 O 0.52396 0.03777 0.51648 0.0
O70 O 0.55452 0.07934 0.48836 0.0
O71 O 0.58299 0.06466 0.50908 0.0
H72 H 0.513 0.92603 0.50121 0.0
H73 H 0.5055 0.8732 0.50104 0.0
H74 H 0.59657 0.91944 0.54532 0.0
H75 H 0.60409 0.97199 0.54516 0.0
H76 H 0.5164 0.10646 0.50116 0.0
H77 H 0.52675 0.15979 0.50887 0.0
H78 H 0.4596 0.14103 0.45533 0.0
H79 H 0.44969 0.0877 0.4476 0.0
La80 La 0.58458 0.55516 0.86495 0.0
La81 La 0.53063 0.48171 0.87235 0.0
C82 C 0.61666 0.6128 0.85103 0.0
C83 C 0.60506 0.63373 0.84699 0.0
C84 C 0.57893 0.63233 0.85939 0.0
C85 C 0.56719 0.65147 0.85498 0.0
C86 C 0.58119 0.67223 0.83801 0.0
C87 C 0.60736 0.67349 0.82563 0.0
C88 C 0.61918 0.6544 0.83011 0.0
C89 C 0.57632 0.53912 0.90367 0.0
C90 C 0.49793 0.52016 0.86988 0.0
C91 C 0.49892 0.42368 0.88555 0.0
C92 C 0.50479 0.39842 0.88105 0.0
C93 C 0.52913 0.40375 0.86555 0.0
C94 C 0.53315 0.37898 0.86021 0.0
C95 C 0.5129 0.34836 0.87028 0.0
C96 C 0.48922 0.34352 0.8862 0.0
C97 C 0.4852 0.36839 0.89153 0.0
C98 C 0.53831 0.49648 0.83332 0.0
C99 C 0.6181 0.51743 0.86846 0.0
O100 O 0.61865 0.60767 0.8704 0.0
O101 O 0.60059 0.58516 0.83932 0.0
O102 O 0.60797 0.56292 0.89613 0.0
O103 O 0.55121 0.52646 0.89007 0.0
O104 O 0.53001 0.54463 0.86185 0.0
O105 O 0.49384 0.49467 0.87849 0.0
O106 O 0.48637 0.42995 0.86994 0.0
O107 O 0.5262 0.45142 0.8955 0.0
O108 O 0.50776 0.47149 0.84105 0.0
O109 O 0.56376 0.51023 0.84688 0.0
O110 O 0.58484 0.49149 0.87445 0.0
O111 O 0.62384 0.54458 0.86144 0.0
H112 H 0.56745 0.61633 0.87245 0.0
H113 H 0.54735 0.65017 0.86497 0.0
H114 H 0.61826 0.68876 0.81225 0.0
H115 H 0.63907 0.65551 0.82025 0.0
H116 H 0.54435 0.42677 0.85721 0.0
H117 H 0.55118 0.38339 0.8477 0.0
H118 H 0.47361 0.32042 0.89445 0.0
H119 H 0.46639 0.36397 0.90358 0.0
O120 O 0.55897 0.10356 0.24296 0.0
Cd121 Cd 0.55701 0.114 0.20675 0.0
O122 O 0.53585 0.05194 0.23288 0.0
Cd123 Cd 0.50875 0.99814 0.23515 0.0
O124 O 0.46882 0.94448 0.22643 0.0
C125 C 0.43891 0.93587 0.21805 0.0
O126 O 0.4344 0.95908 0.21594 0.0
C127 C 0.54721 0.07416 0.24745 0.0
C128 C 0.62312 0.17345 0.19463 0.0
O129 O 0.59725 0.17352 0.20227 0.0
O130 O 0.61772 0.14521 0.19276 0.0
O131 O 0.54903 0.51227 0.60204 0.0
Cd132 Cd 0.53881 0.50808 0.56471 0.0
O133 O 0.52304 0.53668 0.60903 0.0
Cd134 Cd 0.51502 0.54524 0.57755 0.0
O135 O 0.51072 0.57803 0.55887 0.0
C136 C 0.54045 0.60617 0.55406 0.0
O137 O 0.57239 0.61305 0.55896 0.0
C138 C 0.5384 0.52407 0.61512 0.0
C139 C 0.53166 0.45235 0.54738 0.0
O140 O 0.56324 0.48172 0.54862 0.0
O141 O 0.50342 0.44942 0.5541 0.0
O142 O 0.10159 0.53222 0.90245 0.0
Cd143 Cd 0.12299 0.52488 0.86926 0.0
O144 O 0.05505 0.5307 0.89123 0.0
Cd145 Cd 1.00572 0.52977 0.89241 0.0
O146 O 0.95898 0.5321 0.88913 0.0
C147 C 0.92583 0.50745 0.89334 0.0
O148 O 0.91924 0.47995 0.90007 0.0
C149 C 0.07496 0.53345 0.90616 0.0
C150 C 0.18632 0.52732 0.87196 0.0
O151 O 0.18928 0.55399 0.86912 0.0
O152 O 0.15362 0.49964 0.87389 0.0
O153 O 0.04665 0.54229 0.41768 0.0
Cd154 Cd 0.05714 0.54693 0.45497 0.0
O155 O 0.99971 0.48792 0.41337 0.0
Cd156 Cd 0.9861 0.47241 0.44519 0.0
O157 O 0.94336 0.43047 0.46364 0.0
C158 C 0.91003 0.41793 0.45898 0.0
O159 O 0.90404 0.43201 0.44471 0.0
C160 C 0.02368 0.51655 0.40592 0.0
C161 C 0.12231 0.61158 0.46558 0.0
O162 O 0.12338 0.58784 0.45888 0.0
O163 O 0.09045 0.6047 0.46769 0.0
O164 O 0.44097 0.91554 0.74308 0.0
Cd165 Cd 0.42422 0.89513 0.7779 0.0
O166 O 0.46429 0.96603 0.75583 0.0
Cd167 Cd 0.48725 0.01923 0.75702 0.0
O168 O 0.50221 0.06795 0.76797 0.0
C169 C 0.49841 0.07136 0.78707 0.0
O170 O 0.48651 0.04603 0.79887 0.0
C171 C 0.45704 0.94652 0.74024 0.0
C172 C 0.45081 0.86 0.78804 0.0
O173 O 0.41914 0.8449 0.77894 0.0
O174 O 0.46989 0.89177 0.79238 0.0
O175 O 0.46298 0.34499 0.09608 0.0
Cd176 Cd 0.43965 0.31545 0.12816 0.0
O177 O 0.46437 0.38492 0.11195 0.0
Cd178 Cd 0.46772 0.43016 0.11632 0.0
O179 O 0.45993 0.46882 0.11882 0.0
C180 C 0.45362 0.47792 0.10254 0.0
O181 O 0.45358 0.46477 0.08462 0.0
C182 C 0.47029 0.37381 0.09578 0.0
C183 C 0.50024 0.33818 0.15364 0.0
O184 O 0.48505 0.31139 0.14196 0.0
O185 O 0.48599 0.35361 0.15371 0.0
H186 H 0.22364 0.52458 0.08263 0.0
H187 H 0.2806 0.52998 0.0825 0.0
H188 H 0.30924 0.57698 0.14372 0.0
H189 H 0.25178 0.57086 0.14423 0.0
H190 H 0.35936 0.58672 0.09014 0.0
H191 H 0.29804 0.48882 0.14885 0.0
H192 H 0.27047 0.4965 0.13439 0.0
H193 H 0.30086 0.52558 0.155 0.0
C194 C 0.24218 0.53628 0.09601 0.0
C195 C 0.23294 0.54681 0.11356 0.0
C196 C 0.27485 0.53963 0.09583 0.0
C197 C 0.2988 0.5535 0.11319 0.0
C198 C 0.29087 0.56594 0.13025 0.0
H199 H 0.45558 0.51301 0.13655 0.0
H200 H 0.4266 0.54073 0.14008 0.0
C201 C 0.25815 0.5626 0.13046 0.0
C202 C 0.32975 0.55155 0.11406 0.0
H203 H 0.35454 0.50679 0.13523 0.0
C204 C 0.35871 0.56963 0.10018 0.0
C205 C 0.3288 0.52933 0.12726 0.0
C206 C 0.29783 0.50872 0.14216 0.0
C207 C 0.38631 0.56535 0.09875 0.0
C208 C 0.38423 0.54178 0.1112 0.0
C209 C 0.35618 0.52491 0.12572 0.0
C210 C 0.40815 0.53135 0.10815 0.0
C211 C 0.41714 0.58588 0.08382 0.0
C212 C 0.40824 0.51759 0.08891 0.0
C213 C 0.42501 0.50195 0.08681 0.0
C214 C 0.44141 0.49922 0.10401 0.0
C215 C 0.44292 0.51448 0.12304 0.0
C216 C 0.42645 0.53041 0.12507 0.0
H217 H 0.42277 0.61044 0.08153 0.0
H218 H 0.44314 0.59078 0.08921 0.0
H219 H 0.40868 0.57187 0.06863 0.0
H220 H 0.39351 0.51718 0.07574 0.0
H221 H 0.42329 0.4904 0.07195 0.0
H222 H 0.65182 0.1135 0.51624 0.0
H223 H 0.70927 0.17142 0.51498 0.0
H224 H 0.65171 0.199 0.48063 0.0
H225 H 0.59424 0.14154 0.48201 0.0
H226 H 0.74547 0.20516 0.4798 0.0
H227 H 0.70698 0.27481 0.52514 0.0
H228 H 0.68092 0.2296 0.52573 0.0
H229 H 0.67391 0.24775 0.50484 0.0
C230 C 0.65126 0.132 0.50865 0.0
C231 C 0.61837 0.12284 0.49925 0.0
C232 C 0.68414 0.16507 0.50793 0.0
C233 C 0.68467 0.18967 0.49799 0.0
C234 C 0.6518 0.18067 0.4888 0.0
H235 H 0.83632 0.38584 0.45199 0.0
H236 H 0.78393 0.33124 0.46396 0.0
C237 C 0.61898 0.14767 0.48947 0.0
C238 C 0.71996 0.22413 0.49592 0.0
H239 H 0.75996 0.30782 0.50382 0.0
C240 C 0.74893 0.22763 0.48534 0.0
C241 C 0.72439 0.2534 0.50316 0.0
C242 C 0.69503 0.25128 0.51553 0.0
C243 C 0.78147 0.25959 0.48089 0.0
C244 C 0.78537 0.28885 0.48754 0.0
C245 C 0.7569 0.28537 0.49871 0.0
C246 C 0.81751 0.32308 0.48171 0.0
C247 C 0.8106 0.26171 0.46826 0.0
C248 C 0.85383 0.33706 0.48813 0.0
C249 C 0.88401 0.36839 0.48126 0.0
C250 C 0.87832 0.38629 0.46791 0.0
C251 C 0.84178 0.37271 0.46217 0.0
C252 C 0.81173 0.34148 0.46903 0.0
H253 H 0.80006 0.23687 0.46087 0.0
H254 H 0.82053 0.28017 0.45606 0.0
H255 H 0.83467 0.27039 0.47843 0.0
H256 H 0.85887 0.32354 0.49823 0.0
H257 H 0.91177 0.3782 0.48606 0.0
H258 H 0.62253 0.73673 0.82463 0.0
H259 H 0.60116 0.76946 0.81642 0.0
H260 H 0.49 0.68655 0.83257 0.0
H261 H 0.51079 0.65322 0.84032 0.0
H262 H 0.5419 0.74958 0.78686 0.0
H263 H 0.51571 0.77123 0.86724 0.0
H264 H 0.5451 0.75935 0.86131 0.0
H265 H 0.49559 0.72825 0.8595 0.0
C266 C 0.59346 0.72529 0.82627 0.0
C267 C 0.5684 0.69234 0.83319 0.0
C268 C 0.58138 0.74412 0.82169 0.0
C269 C 0.54415 0.7305 0.82413 0.0
C270 C 0.51899 0.69765 0.83093 0.0
H271 H 0.42003 0.79426 0.77754 0.0
H272 H 0.44367 0.7635 0.78613 0.0
C273 C 0.53098 0.67872 0.83541 0.0
C274 C 0.53145 0.75043 0.81914 0.0
H275 H 0.49637 0.78845 0.8405 0.0
C276 C 0.53202 0.75817 0.79856 0.0
C277 C 0.51893 0.76178 0.83452 0.0
C278 C 0.51897 0.75503 0.85693 0.0
C279 C 0.51968 0.77651 0.79288 0.0
C280 C 0.50634 0.78717 0.80819 0.0
C281 C 0.50642 0.77999 0.82882 0.0
C282 C 0.49211 0.80579 0.80303 0.0
C283 C 0.52124 0.78461 0.7706 0.0
C284 C 0.51132 0.83958 0.80997 0.0
C285 C 0.49797 0.85727 0.80506 0.0
C286 C 0.46495 0.84131 0.7933 0.0
C287 C 0.44558 0.8073 0.78658 0.0
C288 C 0.45908 0.78971 0.7914 0.0
H289 H 0.53899 0.78057 0.76152 0.0
H290 H 0.49282 0.768 0.76363 0.0
H291 H 0.53199 0.81119 0.76936 0.0
H292 H 0.5368 0.85231 0.81905 0.0
H293 H 0.51347 0.88341 0.81052 0.0
H294 H 0.83556 0.48016 0.22494 0.0
H295 H 0.76751 0.44186 0.2229 0.0
H296 H 0.76976 0.49518 0.17179 0.0
H297 H 0.83731 0.53272 0.17326 0.0
H298 H 0.71363 0.45541 0.22395 0.0
H299 H 0.71174 0.39532 0.14992 0.0
H300 H 0.75232 0.42058 0.16675 0.0
H301 H 0.74079 0.44058 0.14987 0.0
C302 C 0.82151 0.48374 0.21331 0.0
C303 C 0.84188 0.50943 0.19922 0.0
C304 C 0.78272 0.46199 0.21225 0.0
C305 C 0.76381 0.4655 0.19702 0.0
C306 C 0.78397 0.49189 0.1835 0.0
H307 H 0.54654 0.4005 0.17311 0.0
H308 H 0.60848 0.42714 0.18748 0.0
C309 C 0.82259 0.51356 0.18453 0.0
C310 C 0.72307 0.44099 0.19449 0.0
H311 H 0.65543 0.38591 0.1589 0.0
C312 C 0.70072 0.43979 0.20989 0.0
C313 C 0.70641 0.42016 0.17632 0.0
C314 C 0.729 0.41888 0.15985 0.0
C315 C 0.66203 0.41958 0.20704 0.0
C316 C 0.64563 0.40069 0.18818 0.0
C317 C 0.66796 0.40057 0.17331 0.0
C318 C 0.606 0.38284 0.18267 0.0
C319 C 0.63924 0.41893 0.22418 0.0
C320 C 0.5839 0.34905 0.17515 0.0
C321 C 0.54869 0.33394 0.16655 0.0
C322 C 0.53493 0.35234 0.16538 0.0
C323 C 0.55629 0.38559 0.17389 0.0
C324 C 0.59164 0.40079 0.18229 0.0
H325 H 0.6531 0.42413 0.23946 0.0
H326 H 0.63618 0.43892 0.22203 0.0
H327 H 0.61118 0.39419 0.22429 0.0
H328 H 0.59449 0.33477 0.17521 0.0
H329 H 0.53283 0.30823 0.16019 0.0
H330 H 0.40316 0.92427 0.45944 0.0
H331 H 0.34716 0.86558 0.45665 0.0
H332 H 0.37372 0.84808 0.51579 0.0
H333 H 0.4309 0.90629 0.51806 0.0
H334 H 0.34989 0.79691 0.49153 0.0
H335 H 0.25146 0.82528 0.48329 0.0
H336 H 0.28447 0.84333 0.46316 0.0
H337 H 0.29988 0.85775 0.4896 0.0
C338 C 0.39699 0.90791 0.47186 0.0
C339 C 0.42126 0.91992 0.48903 0.0
C340 C 0.36475 0.87439 0.47035 0.0
C341 C 0.35547 0.85249 0.48628 0.0
C342 C 0.38001 0.86444 0.50334 0.0
H343 H 0.13167 0.66134 0.4908 0.0
H344 H 0.18868 0.71883 0.49762 0.0
C345 C 0.4127 0.89774 0.50464 0.0
C346 C 0.32078 0.81693 0.48492 0.0
H347 H 0.22767 0.7684 0.47446 0.0
C348 C 0.32312 0.79074 0.488 0.0
C349 C 0.28556 0.80865 0.48078 0.0
C350 C 0.28012 0.83529 0.47926 0.0
C351 C 0.29155 0.75667 0.48659 0.0
C352 C 0.25676 0.74835 0.48103 0.0
C353 C 0.2543 0.77457 0.47843 0.0
C354 C 0.2226 0.71276 0.47771 0.0
C355 C 0.29591 0.73015 0.49158 0.0
C356 C 0.22241 0.69003 0.46422 0.0
C357 C 0.19007 0.65692 0.46074 0.0
C358 C 0.15689 0.64612 0.47013 0.0
C359 C 0.15685 0.66895 0.48336 0.0
C360 C 0.18943 0.70184 0.48722 0.0
H361 H 0.31985 0.74062 0.50236 0.0
H362 H 0.27062 0.70817 0.4986 0.0
H363 H 0.30131 0.72126 0.4772 0.0
H364 H 0.24711 0.69801 0.45607 0.0
H365 H 0.19082 0.64006 0.45021 0.0
H366 H 0.57445 0.35424 0.85873 0.0
H367 H 0.57662 0.30974 0.84422 0.0
H368 H 0.4589 0.23613 0.85228 0.0
H369 H 0.45616 0.28054 0.866 0.0
H370 H 0.55749 0.25076 0.86007 0.0
H371 H 0.47013 0.22296 0.79119 0.0
H372 H 0.48995 0.26012 0.80795 0.0
H373 H 0.44841 0.22007 0.81498 0.0
C374 C 0.54897 0.32861 0.85731 0.0
C375 C 0.51505 0.32102 0.86335 0.0
C376 C 0.55032 0.3032 0.84914 0.0
C377 C 0.5178 0.26978 0.8468 0.0
C378 C 0.48419 0.26189 0.85356 0.0
H379 H 0.48815 0.08422 0.82659 0.0
H380 H 0.49669 0.13442 0.84067 0.0
C381 C 0.48277 0.28727 0.86166 0.0
C382 C 0.51886 0.24317 0.83711 0.0
H383 H 0.48135 0.18347 0.79751 0.0
C384 C 0.54106 0.23617 0.84631 0.0
C385 C 0.49801 0.22467 0.81891 0.0
C386 C 0.47558 0.23252 0.80754 0.0
C387 C 0.54192 0.21031 0.83821 0.0
C388 C 0.51945 0.19058 0.82067 0.0
C389 C 0.49827 0.19838 0.81108 0.0
C390 C 0.51645 0.16102 0.81237 0.0
C391 C 0.56706 0.20452 0.84842 0.0
C392 C 0.52405 0.15898 0.79164 0.0
C393 C 0.51878 0.13009 0.78344 0.0
C394 C 0.50567 0.10265 0.79583 0.0
C395 C 0.49847 0.10495 0.81664 0.0
C396 C 0.50361 0.13377 0.82478 0.0
H397 H 0.59029 0.22761 0.85716 0.0
H398 H 0.55091 0.18424 0.85949 0.0
H399 H 0.57876 0.19662 0.83692 0.0
H400 H 0.53375 0.17966 0.78175 0.0
H401 H 0.52458 0.12912 0.76736 0.0
H402 H 0.6066 0.88686 0.52178 0.0
H403 H 0.60175 0.83577 0.52343 0.0
H404 H 0.48262 0.77546 0.52504 0.0
H405 H 0.48724 0.82663 0.52348 0.0
H406 H 0.57044 0.79192 0.55567 0.0
H407 H 0.49867 0.72449 0.48105 0.0
H408 H 0.52109 0.76887 0.48602 0.0
H409 H 0.47649 0.73767 0.49651 0.0
C410 C 0.57933 0.86273 0.52246 0.0
C411 C 0.54731 0.86083 0.52264 0.0
C412 C 0.57661 0.83355 0.52327 0.0
C413 C 0.54184 0.80181 0.52416 0.0
C414 C 0.5097 0.79964 0.52394 0.0
H415 H 0.47954 0.60361 0.54717 0.0
H416 H 0.4791 0.65038 0.53849 0.0
C417 C 0.5124 0.8289 0.52309 0.0
C418 C 0.53968 0.77147 0.52683 0.0
H419 H 0.50756 0.69487 0.50453 0.0
C420 C 0.55681 0.77076 0.54445 0.0
C421 C 0.52161 0.7438 0.51225 0.0
C422 C 0.50364 0.74368 0.49279 0.0
C423 C 0.5563 0.74312 0.54794 0.0
C424 C 0.53877 0.71567 0.53321 0.0
C425 C 0.52116 0.71608 0.51571 0.0
C426 C 0.53862 0.68643 0.53593 0.0
C427 C 0.57404 0.74331 0.56755 0.0
C428 C 0.5721 0.69094 0.53659 0.0
C429 C 0.57249 0.66436 0.54159 0.0
C430 C 0.53934 0.63269 0.54591 0.0
C431 C 0.50559 0.62772 0.54403 0.0
C432 C 0.50525 0.65439 0.53906 0.0
H433 H 0.57797 0.76192 0.5794 0.0
H434 H 0.55699 0.71794 0.5741 0.0
H435 H 0.6017 0.75025 0.56411 0.0
H436 H 0.59809 0.71534 0.53383 0.0
H437 H 0.59893 0.66899 0.5427 0.0
H438 H 0.69056 0.56577 0.85831 0.0
H439 H 0.74256 0.56383 0.86144 0.0
H440 H 0.66952 0.46426 0.88504 0.0
H441 H 0.61723 0.46572 0.88171 0.0
H442 H 0.77131 0.5572 0.89643 0.0
H443 H 0.72219 0.45081 0.84006 0.0
H444 H 0.70188 0.47233 0.84142 0.0
H445 H 0.68937 0.44098 0.85956 0.0
C446 C 0.6854 0.54329 0.864 0.0
C447 C 0.64955 0.51584 0.86967 0.0
C448 C 0.71525 0.54227 0.86582 0.0
C449 C 0.70997 0.51374 0.87321 0.0
C450 C 0.67423 0.48629 0.87889 0.0
H451 H 0.85244 0.45949 0.90149 0.0
H452 H 0.80131 0.46219 0.89668 0.0
C453 C 0.64434 0.48727 0.87708 0.0
C454 C 0.74208 0.51323 0.87567 0.0
H455 H 0.77452 0.46955 0.86119 0.0
C456 C 0.77212 0.53817 0.88861 0.0
C457 C 0.74317 0.48836 0.86552 0.0
C458 C 0.71261 0.46177 0.85071 0.0
C459 C 0.80273 0.53847 0.89206 0.0
C460 C 0.80375 0.51351 0.88198 0.0
C461 C 0.77378 0.48867 0.86895 0.0
C462 C 0.83532 0.51235 0.88497 0.0
C463 C 0.83319 0.56497 0.90693 0.0
C464 C 0.87159 0.53953 0.87982 0.0
C465 C 0.90103 0.53811 0.88262 0.0
C466 C 0.89481 0.50936 0.89049 0.0
C467 C 0.85838 0.48208 0.89545 0.0
C468 C 0.82901 0.48355 0.89267 0.0
H469 H 0.8238 0.57636 0.91734 0.0
H470 H 0.84334 0.55417 0.91649 0.0
H471 H 0.85681 0.58548 0.89812 0.0
H472 H 0.8771 0.56175 0.87344 0.0
H473 H 0.92863 0.55949 0.87849 0.0
H474 H 0.18024 0.61899 0.15771 0.0
H475 H 0.24281 0.67196 0.16467 0.0
H476 H 0.19738 0.72581 0.17122 0.0
H477 H 0.13509 0.67332 0.16424 0.0
H478 H 0.2665 0.75509 0.14483 0.0
H479 H 0.27406 0.72301 0.22488 0.0
H480 H 0.25903 0.69228 0.20386 0.0
H481 H 0.23005 0.70346 0.21172 0.0
C482 C 0.18369 0.6422 0.16027 0.0
C483 C 0.15278 0.64202 0.16041 0.0
C484 C 0.21936 0.67233 0.16438 0.0
C485 C 0.22448 0.70259 0.16854 0.0
C486 C 0.19385 0.70262 0.16806 0.0
H487 H 0.37135 0.90999 0.20117 0.0
H488 H 0.3236 0.85249 0.18782 0.0
C489 C 0.15831 0.6726 0.16413 0.0
C490 C 0.26138 0.73437 0.17417 0.0
H491 H 0.32048 0.77853 0.21548 0.0
C492 C 0.27874 0.76013 0.16014 0.0
C493 C 0.27724 0.74061 0.1941 0.0
C494 C 0.2593 0.71354 0.20964 0.0
C495 C 0.31091 0.79255 0.16582 0.0
C496 C 0.32538 0.7995 0.18623 0.0
C497 C 0.30919 0.77318 0.19989 0.0
C498 C 0.35499 0.83442 0.19421 0.0
C499 C 0.32867 0.81921 0.15001 0.0
C500 C 0.38803 0.8431 0.20294 0.0
C501 C 0.41538 0.87604 0.21083 0.0
C502 C 0.40997 0.90074 0.21022 0.0
C503 C 0.37658 0.89172 0.20174 0.0
C504 C 0.34933 0.85888 0.19393 0.0
H505 H 0.3226 0.8077 0.13411 0.0
H506 H 0.31723 0.83332 0.15119 0.0
H507 H 0.35921 0.8374 0.1525 0.0
H508 H 0.39272 0.82445 0.20352 0.0
H509 H 0.44077 0.88218 0.21732 0.0
H510 H 0.48832 0.17628 0.52077 0.0
H511 H 0.49518 0.22757 0.52992 0.0
H512 H 0.51637 0.25513 0.4665 0.0
H513 H 0.50916 0.20356 0.45719 0.0
H514 H 0.55433 0.2932 0.52654 0.0
H515 H 0.4353 0.26331 0.47983 0.0
H516 H 0.44207 0.23224 0.48456 0.0
H517 H 0.46825 0.26256 0.46521 0.0
C518 C 0.49459 0.19332 0.50877 0.0
C519 C 0.49816 0.18585 0.48824 0.0
C520 C 0.49837 0.22257 0.51401 0.0
C521 C 0.50577 0.24498 0.49886 0.0
C522 C 0.50978 0.23782 0.47837 0.0
H523 H 0.58498 0.45111 0.52913 0.0
H524 H 0.5794 0.40162 0.51636 0.0
C525 C 0.50575 0.2084 0.47308 0.0
C526 C 0.51002 0.2761 0.50474 0.0
H527 H 0.47455 0.31806 0.49612 0.0
C528 C 0.5369 0.29865 0.51988 0.0
C529 C 0.48695 0.28298 0.49622 0.0
C530 C 0.45627 0.25888 0.4807 0.0
C531 C 0.54138 0.32786 0.52674 0.0
C532 C 0.51893 0.33517 0.51787 0.0
C533 C 0.49199 0.3126 0.50275 0.0
C534 C 0.52201 0.36543 0.52464 0.0
C535 C 0.56939 0.35007 0.54386 0.0
C536 C 0.49123 0.36165 0.53284 0.0
C537 C 0.4942 0.38992 0.53993 0.0
C538 C 0.52805 0.42255 0.53895 0.0
C539 C 0.55861 0.42632 0.53028 0.0
C540 C 0.55553 0.39803 0.52308 0.0
H541 H 0.57701 0.33646 0.55258 0.0
H542 H 0.59501 0.37215 0.53716 0.0
H543 H 0.55859 0.35953 0.55483 0.0
H544 H 0.46504 0.33674 0.53411 0.0
H545 H 0.47011 0.38612 0.54647 0.0
H546 H 0.49766 0.57164 0.85728 0.0
H547 H 0.44657 0.57518 0.85863 0.0
H548 H 0.37626 0.4766 0.88382 0.0
H549 H 0.42736 0.47328 0.88309 0.0
H550 H 0.37883 0.53638 0.8399 0.0
H551 H 0.36127 0.52969 0.92438 0.0
H552 H 0.40102 0.53669 0.91237 0.0
H553 H 0.35794 0.49464 0.91322 0.0
C554 C 0.47143 0.55081 0.86326 0.0
C555 C 0.46685 0.52232 0.87029 0.0
C556 C 0.44217 0.55285 0.86399 0.0
C557 C 0.40767 0.52648 0.87174 0.0
C558 C 0.40284 0.49773 0.87834 0.0
H559 H 0.18946 0.47609 0.88049 0.0
H560 H 0.24387 0.47726 0.88037 0.0
C561 C 0.43211 0.49577 0.87776 0.0
C562 C 0.37642 0.5285 0.8724 0.0
H563 H 0.31262 0.52187 0.90433 0.0
C564 C 0.3646 0.53353 0.85403 0.0
C565 C 0.35779 0.52487 0.89084 0.0
C566 C 0.37037 0.52152 0.91135 0.0
C567 C 0.33413 0.53401 0.8535 0.0
C568 C 0.31508 0.52964 0.87185 0.0
C569 C 0.3271 0.52501 0.89025 0.0
C570 C 0.2823 0.52937 0.8722 0.0
C571 C 0.32189 0.53828 0.83319 0.0
C572 C 0.28588 0.55844 0.86797 0.0
C573 C 0.25485 0.55792 0.86814 0.0
C574 C 0.21953 0.52827 0.87251 0.0
C575 C 0.21617 0.49932 0.877 0.0
C576 C 0.24726 0.49994 0.87695 0.0
H577 H 0.33442 0.53431 0.8199 0.0
H578 H 0.29122 0.52035 0.83127 0.0
H579 H 0.33051 0.56429 0.83288 0.0
H580 H 0.31274 0.58159 0.86458 0.0
H581 H 0.25851 0.5807 0.86466 0.0
H582 H 0.91114 0.47545 0.16879 0.0
H583 H 0.85101 0.42082 0.1733 0.0
H584 H 0.89065 0.37051 0.14349 0.0
H585 H 0.95122 0.4251 0.13921 0.0
H586 H 0.80038 0.36779 0.14329 0.0
H587 H 0.85513 0.32772 0.20042 0.0
H588 H 0.88058 0.37106 0.19349 0.0
H589 H 0.87881 0.34104 0.17641 0.0
C590 C 0.90715 0.45281 0.16322 0.0
C591 C 0.93615 0.45462 0.15391 0.0
C592 C 0.8727 0.42162 0.16571 0.0
C593 C 0.86666 0.39168 0.15901 0.0
C594 C 0.89504 0.39337 0.14905 0.0
H595 H 0.6815 0.18094 0.17608 0.0
H596 H 0.73976 0.23339 0.16585 0.0
C597 C 0.92953 0.42459 0.14651 0.0
C598 C 0.8309 0.35869 0.16296 0.0
H599 H 0.792 0.2883 0.19056 0.0
C600 C 0.79846 0.35032 0.15358 0.0
C601 C 0.82864 0.33607 0.17639 0.0
C602 C 0.86254 0.34439 0.18743 0.0
C603 C 0.76369 0.31969 0.15718 0.0
C604 C 0.76135 0.29725 0.17086 0.0
C605 C 0.79389 0.30552 0.18006 0.0
C606 C 0.72539 0.26543 0.1763 0.0
C607 C 0.72991 0.31147 0.14608 0.0
C608 C 0.69814 0.2661 0.18573 0.0
C609 C 0.66478 0.23618 0.19153 0.0
C610 C 0.65823 0.20506 0.1882 0.0
C611 C 0.68567 0.20449 0.17884 0.0
C612 C 0.71897 0.23442 0.17298 0.0
H613 H 0.73747 0.32589 0.13192 0.0
H614 H 0.7099 0.28409 0.14177 0.0
H615 H 0.71588 0.31842 0.15639 0.0
H616 H 0.70289 0.28983 0.18892 0.0
H617 H 0.64432 0.23752 0.19883 0.0
H618 H 0.06545 0.61891 0.09651 0.0
H619 H 0.06915 0.61582 0.05885 0.0
H620 H 0.01728 0.50961 0.06041 0.0
H621 H 1.01326 0.51249 0.0979 0.0
H622 H 0.10576 0.59535 0.03607 0.0
H623 H 0.9553 0.51334 0.01633 0.0
H624 H 0.97405 0.53552 0.04113 0.0
H625 H 0.96782 0.49694 0.03552 0.0
C626 C 0.05468 0.59491 0.08876 0.0
C627 C 0.03905 0.56594 0.10006 0.0
C628 C 0.0568 0.59317 0.0673 0.0
C629 C 0.04295 0.56237 0.05683 0.0
C630 C 0.02745 0.53347 0.06814 0.0
H631 H 0.0916 0.51495 0.94011 0.0
H632 H 0.08339 0.52402 0.97621 0.0
C633 C 0.02544 0.53521 0.08956 0.0
C634 C 0.04612 0.56061 0.03417 0.0
H635 H 0.99537 0.52031 0.98961 0.0
C636 C 0.08164 0.57923 0.02588 0.0
C637 C 1.01458 0.53983 0.02089 0.0
C638 C 0.97575 0.52049 0.02885 0.0
C639 C 0.08649 0.57659 1.00474 0.0
C640 C 0.05501 0.55455 0.99163 0.0
C641 C 0.01944 0.53696 0.99976 0.0
C642 C 0.05868 0.54828 0.96964 0.0
C643 C 0.12529 0.59716 0.99661 0.0
C644 C 0.04674 0.55828 0.95396 0.0
C645 C 0.05148 0.55319 0.93322 0.0
C646 C 0.06773 0.53756 0.92787 0.0
C647 C 0.07904 0.52712 0.94369 0.0
C648 C 0.07445 0.53233 0.96434 0.0
H649 H 0.14553 0.61873 0.0074 0.0
H650 H 0.13393 0.58085 0.99458 0.0
H651 H 0.12642 0.60704 0.9814 0.0
H652 H 0.0346 0.57075 0.9578 0.0
H653 H 0.04365 0.56259 0.92152 0.0
H654 H 0.48624 0.00528 0.43886 0.0
H655 H 0.48687 0.01296 0.40182 0.0
H656 H 0.5984 0.04442 0.39934 0.0
H657 H 0.59824 0.03768 0.43648 0.0
H658 H 0.59117 0.08618 0.37926 0.0
H659 H 0.47789 0.95344 0.35422 0.0
H660 H 0.46425 0.96996 0.3737 0.0
H661 H 0.49924 0.96526 0.37966 0.0
C662 C 0.51082 0.01375 0.43038 0.0
C663 C 0.54219 0.02087 0.44048 0.0
C664 C 0.51104 0.01784 0.4092 0.0
C665 C 0.54244 0.02867 0.39774 0.0
C666 C 0.5738 0.03584 0.40786 0.0
H667 H 0.55284 0.02769 0.26348 0.0
H668 H 0.55177 0.01608 0.29986 0.0
C669 C 0.57367 0.03195 0.42905 0.0
C670 C 0.54327 0.03395 0.37537 0.0
H671 H 0.49837 0.99482 0.32926 0.0
C672 C 0.571 0.06615 0.36832 0.0
C673 C 0.51727 0.00767 0.36105 0.0
C674 C 0.48821 0.97205 0.36748 0.0
C675 C 0.57299 0.073 0.34742 0.0
C676 C 0.54598 0.04714 0.33325 0.0
C677 C 0.51877 0.01471 0.34019 0.0
C678 C 0.54543 0.05337 0.31119 0.0
C679 C 0.6043 0.10779 0.34069 0.0
C680 C 0.54155 0.07773 0.30548 0.0
C681 C 0.542 0.08428 0.28475 0.0
C682 C 0.54567 0.06617 0.26928 0.0
C683 C 0.54894 0.04139 0.27498 0.0
C684 C 0.54869 0.03496 0.29577 0.0
H685 H 0.62806 0.12118 0.35193 0.0
H686 H 0.61432 0.1065 0.32535 0.0
H687 H 0.59431 0.12301 0.33958 0.0
H688 H 0.5382 0.09173 0.31709 0.0
H689 H 0.53924 0.10342 0.28082 0.0
H690 H 0.48473 0.46766 0.80345 0.0
H691 H 0.49244 0.47501 0.76637 0.0
H692 H 0.61115 0.54546 0.77578 0.0
H693 H 0.60349 0.53848 0.81315 0.0
H694 H 0.58431 0.56718 0.7484 0.0
H695 H 0.52866 0.43566 0.72751 0.0
H696 H 0.49735 0.43765 0.74298 0.0
H697 H 0.54185 0.45326 0.75365 0.0
C698 C 0.51248 0.48471 0.79762 0.0
C699 C 0.54354 0.50234 0.8111 0.0
C700 C 0.51686 0.48871 0.77643 0.0
C701 C 0.5524 0.51016 0.76828 0.0
C702 C 0.5835 0.52852 0.78176 0.0
H703 H 0.57437 0.50332 0.63416 0.0
H704 H 0.58313 0.50257 0.67126 0.0
C705 C 0.57911 0.52458 0.80305 0.0
C706 C 0.55663 0.5137 0.7457 0.0
H707 H 0.53128 0.46765 0.70008 0.0
C708 C 0.57317 0.54552 0.73781 0.0
C709 C 0.54276 0.48556 0.73191 0.0
C710 C 0.52702 0.45118 0.73943 0.0
C711 C 0.57447 0.54962 0.71649 0.0
C712 C 0.55813 0.52099 0.70275 0.0
C713 C 0.54335 0.48951 0.71062 0.0
C714 C 0.55431 0.52275 0.68027 0.0
C715 C 0.59317 0.58455 0.70891 0.0
C716 C 0.53477 0.53388 0.67303 0.0
C717 C 0.52981 0.53442 0.65191 0.0
C718 C 0.54391 0.52344 0.63752 0.0
C719 C 0.5632 0.51198 0.6448 0.0
C720 C 0.56827 0.51158 0.66599 0.0
H721 H 0.61429 0.60432 0.7203 0.0
H722 H 0.60681 0.58787 0.694 0.0
H723 H 0.57209 0.58856 0.70664 0.0
H724 H 0.52282 0.54169 0.68374 0.0
H725 H 0.51458 0.54317 0.64688 0.0
H726 H 0.43973 1.00081 0.55409 0.0
H727 H 0.43967 0.99317 0.59107 0.0
H728 H 0.55503 0.03516 0.58946 0.0
H729 H 0.55521 0.04279 0.55236 0.0
H730 H 0.51068 0.9747 0.60984 0.0
H731 H 0.48698 0.06538 0.63852 0.0
H732 H 0.45397 0.03581 0.61887 0.0
H733 H 0.50209 0.06566 0.61273 0.0
C734 C 0.46514 0.00863 0.56166 0.0
C735 C 0.49747 0.02239 0.55043 0.0
C736 C 0.46513 0.00444 0.58279 0.0
C737 C 0.49751 0.01412 0.59305 0.0
C738 C 0.52984 0.02777 0.58183 0.0
H739 H 0.51168 0.01054 0.72759 0.0
H740 H 0.5248 0.02932 0.6922 0.0
C741 C 0.52989 0.03205 0.56068 0.0
C742 C 0.4969 0.00839 0.61529 0.0
H743 H 0.47659 0.02535 0.66236 0.0
C744 C 0.50365 0.98606 0.62137 0.0
C745 C 0.48826 0.02362 0.63033 0.0
C746 C 0.48277 0.04922 0.62485 0.0
C747 C 0.50034 0.97739 0.64197 0.0
C748 C 0.48954 0.99109 0.6568 0.0
C749 C 0.48446 0.0146 0.6509 0.0
C750 C 0.48162 0.98004 0.67825 0.0
C751 C 0.50814 0.95343 0.64768 0.0
C752 C 0.45267 0.94629 0.68211 0.0
C753 C 0.4448 0.93564 0.70227 0.0
C754 C 0.46547 0.95861 0.71903 0.0
C755 C 0.49444 0.99248 0.71513 0.0
C756 C 0.50228 0.00315 0.6949 0.0
H757 H 0.5259 0.95287 0.63621 0.0
H758 H 0.52199 0.96055 0.66312 0.0
H759 H 0.48156 0.92753 0.64814 0.0
H760 H 0.43597 0.92818 0.6695 0.0
H761 H 0.42226 0.90938 0.70474 0.0
H762 H 0.51714 0.51838 0.92663 0.0
H763 H 0.50323 0.49508 0.96072 0.0
H764 H 0.60487 0.50628 0.96096 0.0
H765 H 0.62013 0.53229 0.92748 0.0
H766 H 0.48781 0.44092 0.97132 0.0
H767 H 0.61276 0.54042 0.01764 0.0
H768 H 0.60435 0.54713 0.992 0.0
H769 H 0.62475 0.52624 0.99581 0.0
C770 C 0.53685 0.51654 0.93425 0.0
C771 C 0.56985 0.52741 0.92472 0.0
C772 C 0.52885 0.50308 0.95367 0.0
C773 C 0.55317 0.49923 0.96369 0.0
C774 C 0.58622 0.51001 0.95401 0.0
H775 H 0.46653 0.34921 0.05689 0.0
H776 H 0.48826 0.37972 0.02519 0.0
C777 C 0.59485 0.52464 0.93483 0.0
C778 C 0.54234 0.48177 0.98347 0.0
H779 H 0.57303 0.4863 0.03229 0.0
C780 C 0.50641 0.45114 0.9847 0.0
C781 C 0.56626 0.4951 1.00112 0.0
C782 C 0.60399 0.5292 1.00166 0.0
C783 C 0.49372 0.4336 1.00292 0.0
C784 C 0.51834 0.44587 0.02017 0.0
C785 C 0.55424 0.47656 0.01902 0.0
C786 C 0.50715 0.42765 0.03965 0.0
C787 C 0.45359 0.40274 1.00357 0.0
C788 C 0.51275 0.44479 0.05863 0.0
C789 C 0.50168 0.42764 0.07693 0.0
C790 C 0.48373 0.39275 0.07662 0.0
C791 C 0.47939 0.37591 0.05768 0.0
C792 C 0.49141 0.39326 0.03946 0.0
H793 H 0.43613 0.40373 0.99226 0.0
H794 H 0.45135 0.37988 0.99945 0.0
H795 H 0.44212 0.40011 0.01912 0.0
H796 H 0.52563 0.4715 0.05931 0.0
H797 H 0.50798 0.44203 0.09123 0.0
H798 H 0.07479 0.58237 0.21229 0.0
H799 H 0.07077 0.58217 0.24996 0.0
H800 H 1.01291 0.47455 0.24728 0.0
H801 H 0.01755 0.47478 0.20972 0.0
H802 H 1.0112 0.54936 0.27516 0.0
H803 H 0.09678 0.50735 0.28787 0.0
H804 H 0.09404 0.5215 0.26338 0.0
H805 H 0.05792 0.47911 0.27063 0.0
C806 C 0.06116 0.5587 0.21978 0.0
C807 C 0.04667 0.52861 0.20819 0.0
C808 C 0.05892 0.55861 0.24127 0.0
C809 C 0.04221 0.52846 0.25146 0.0
C810 C 0.02681 0.49825 0.23979 0.0
H811 H 0.98583 0.46556 0.37616 0.0
H812 H 0.99048 0.47019 0.33878 0.0
C813 C 0.02929 0.49837 0.21835 0.0
C814 C 0.04067 0.52848 0.27428 0.0
H815 H 0.06359 0.50619 0.31672 0.0
C816 C 0.02292 0.5402 0.28427 0.0
C817 C 0.0562 0.5167 0.28615 0.0
C818 C 0.07764 0.50578 0.27649 0.0
C819 C 0.01938 0.53952 0.30578 0.0
C820 C 0.03403 0.52691 0.3175 0.0
C821 C 0.05219 0.51563 0.30759 0.0
C822 C 0.03032 0.52465 0.3401 0.0
C823 C 0.99927 0.55151 0.31584 0.0
C824 C 0.0513 0.55382 0.35315 0.0
C825 C 0.04894 0.55131 0.37456 0.0
C826 C 0.02542 0.51954 0.38325 0.0
C827 C 1.00413 0.49042 0.37003 0.0
C828 C 1.00675 0.49297 0.34866 0.0
H829 H 0.98526 0.55633 0.30436 0.0
H830 H 0.97828 0.53253 0.32651 0.0
H831 H 0.01941 0.57529 0.32509 0.0
H832 H 0.06991 0.57847 0.34677 0.0
H833 H 0.06571 0.57422 0.38428 0.0
loop_
_geom_bond_atom_site_label_1
_geom_bond_atom_site_label_2
_geom_bond_distance
_geom_bond_site_symmetry_2
_ccdc_geom_bond_type
La0 C2 2.928 . S
La0 O20 2.521 . S
La0 O21 2.628 . S
La0 O22 2.554 . S
La0 O23 2.757 . S
La0 O24 2.470 . S
La0 O29 2.482 . S
La0 O31 2.503 1_455 S
La1 C11 2.928 . S
La1 O23 2.482 1_655 S
La1 O25 2.503 1_655 S
La1 O26 2.521 . S
La1 O27 2.628 . S
La1 O28 2.552 1_655 S
La1 O29 2.757 1_655 S
La1 O30 2.470 . S
C2 La0 2.928 . S
C2 C3 1.503 . S
C2 O20 1.261 . S
C2 O21 1.243 . S
C3 C2 1.503 . S
C3 C4 1.394 . S
C3 C8 1.373 . S
C4 C3 1.394 . S
C4 C5 1.380 . S
C4 H32 0.930 . S
C5 C4 1.380 . S
C5 C6 1.376 . S
C5 H33 0.930 . S
C6 C5 1.376 . S
C6 C7 1.370 . S
C7 C6 1.370 . S
C7 C8 1.396 . S
C7 H34 0.929 . S
C8 C3 1.373 . S
C8 C7 1.396 . S
C8 H35 0.929 . S
C9 O22 1.240 . S
C9 O23 1.289 . S
C10 O24 1.258 . S
C10 O25 1.256 . S
C11 La1 2.928 . S
C11 C12 1.503 . S
C11 O26 1.261 . S
C11 O27 1.243 . S
C12 C11 1.503 . S
C12 C13 1.394 . S
C12 C17 1.373 . S
C13 C12 1.394 . S
C13 C14 1.380 . S
C13 H36 0.930 . S
C14 C13 1.380 . S
C14 C15 1.376 . S
C14 H37 0.930 . S
C15 C14 1.376 . S
C15 C16 1.370 . S
C16 C15 1.370 . S
C16 C17 1.396 . S
C16 H38 0.929 . S
C17 C12 1.373 . S
C17 C16 1.396 . S
C17 H39 0.929 . S
C18 O28 1.246 . S
C18 O29 1.289 . S
C19 O30 1.258 . S
C19 O31 1.256 . S
O20 La0 2.521 . S
O20 C2 1.261 . S
O21 La0 2.628 . S
O21 C2 1.243 . S
O22 La0 2.554 . S
O22 C9 1.240 . S
O23 La0 2.757 . S
O23 La1 2.482 1_455 S
O23 C9 1.289 . S
O24 La0 2.470 . S
O24 C10 1.258 . S
O25 La1 2.503 1_455 S
O25 C10 1.256 . S
O26 La1 2.521 . S
O26 C11 1.261 . S
O27 La1 2.628 . S
O27 C11 1.243 . S
O28 La1 2.552 1_455 S
O28 C18 1.246 . S
O29 La0 2.482 . S
O29 La1 2.757 1_455 S
O29 C18 1.289 . S
O30 La1 2.470 . S
O30 C19 1.258 . S
O31 La0 2.503 1_655 S
O31 C19 1.256 . S
H32 C4 0.930 . S
H33 C5 0.930 . S
H34 C7 0.929 . S
H35 C8 0.929 . S
H36 C13 0.930 . S
H37 C14 0.930 . S
H38 C16 0.929 . S
H39 C17 0.929 . S
La40 C42 2.928 . S
La40 O60 2.521 . S
La40 O61 2.628 . S
La40 O62 2.554 . S
La40 O63 2.757 1_565 S
La40 O64 2.470 . S
La40 O69 2.482 1_565 S
La40 O71 2.503 1_565 S
La41 C51 2.928 . S
La41 O63 2.482 . S
La41 O65 2.503 1_545 S
La41 O66 2.521 . S
La41 O67 2.628 . S
La41 O68 2.554 . S
La41 O69 2.757 . S
La41 O70 2.470 . S
C42 La40 2.928 . S
C42 C43 1.503 . S
C42 O60 1.261 . S
C42 O61 1.243 . S
C43 C42 1.503 . S
C43 C44 1.394 . S
C43 C48 1.373 . S
C44 C43 1.394 . S
C44 C45 1.380 . S
C44 H72 0.930 . S
C45 C44 1.380 . S
C45 C46 1.376 . S
C45 H73 0.930 . S
C46 C45 1.376 . S
C46 C47 1.370 . S
C47 C46 1.370 . S
C47 C48 1.396 . S
C47 H74 0.929 . S
C48 C43 1.373 . S
C48 C47 1.396 . S
C48 H75 0.929 . S
C49 O62 1.240 1_545 S
C49 O63 1.289 . S
C50 O64 1.258 . S
C50 O65 1.256 . S
C51 La41 2.928 . S
C51 C52 1.503 . S
C51 O66 1.261 . S
C51 O67 1.243 . S
C52 C51 1.503 . S
C52 C53 1.394 . S
C52 C57 1.373 . S
C53 C52 1.394 . S
C53 C54 1.380 . S
C53 H76 0.930 . S
C54 C53 1.380 . S
C54 C55 1.376 . S
C54 H77 0.930 . S
C55 C54 1.376 . S
C55 C56 1.370 . S
C56 C55 1.370 . S
C56 C57 1.396 . S
C56 H78 0.929 . S
C57 C52 1.373 . S
C57 C56 1.396 . S
C57 H79 0.929 . S
C58 O68 1.240 . S
C58 O69 1.289 . S
C59 O70 1.258 . S
C59 O71 1.256 . S
O60 La40 2.521 . S
O60 C42 1.261 . S
O61 La40 2.628 . S
O61 C42 1.243 . S
O62 La40 2.554 . S
O62 C49 1.240 1_565 S
O63 La40 2.757 1_545 S
O63 La41 2.482 . S
O63 C49 1.289 . S
O64 La40 2.470 . S
O64 C50 1.258 . S
O65 La41 2.503 1_565 S
O65 C50 1.256 . S
O66 La41 2.521 . S
O66 C51 1.261 . S
O67 La41 2.628 . S
O67 C51 1.243 . S
O68 La41 2.554 . S
O68 C58 1.240 . S
O69 La40 2.482 1_545 S
O69 La41 2.757 . S
O69 C58 1.289 . S
O70 La41 2.470 . S
O70 C59 1.258 . S
O71 La40 2.503 1_545 S
O71 C59 1.256 . S
H72 C44 0.930 . S
H73 C45 0.930 . S
H74 C47 0.929 . S
H75 C48 0.929 . S
H76 C53 0.930 . S
H77 C54 0.930 . S
H78 C56 0.929 . S
H79 C57 0.929 . S
La80 C82 2.928 . S
La80 O100 2.521 . S
La80 O101 2.628 . S
La80 O102 2.554 . S
La80 O103 2.757 . S
La80 O104 2.470 . S
La80 O109 2.482 . S
La80 O111 2.503 . S
La81 C91 2.928 . S
La81 O103 2.482 . S
La81 O105 2.503 . S
La81 O106 2.521 . S
La81 O107 2.628 . S
La81 O108 2.554 . S
La81 O109 2.757 . S
La81 O110 2.470 . S
C82 La80 2.928 . S
C82 C83 1.503 . S
C82 O100 1.261 . S
C82 O101 1.243 . S
C83 C82 1.503 . S
C83 C84 1.394 . S
C83 C88 1.373 . S
C84 C83 1.394 . S
C84 C85 1.380 . S
C84 H112 0.930 . S
C85 C84 1.380 . S
C85 C86 1.376 . S
C85 H113 0.930 . S
C86 C85 1.376 . S
C86 C87 1.370 . S
C87 C86 1.370 . S
C87 C88 1.396 . S
C87 H114 0.929 . S
C88 C83 1.373 . S
C88 C87 1.396 . S
C88 H115 0.929 . S
C89 O102 1.240 . S
C89 O103 1.289 . S
C90 O104 1.258 . S
C90 O105 1.256 . S
C91 La81 2.928 . S
C91 C92 1.503 . S
C91 O106 1.261 . S
C91 O107 1.243 . S
C92 C91 1.503 . S
C92 C93 1.394 . S
C92 C97 1.373 . S
C93 C92 1.394 . S
C93 C94 1.380 . S
C93 H116 0.930 . S
C94 C93 1.380 . S
C94 C95 1.376 . S
C94 H117 0.930 . S
C95 C94 1.376 . S
C95 C96 1.370 . S
C96 C95 1.370 . S
C96 C97 1.396 . S
C96 H118 0.929 . S
C97 C92 1.373 . S
C97 C96 1.396 . S
C97 H119 0.929 . S
C98 O108 1.240 . S
C98 O109 1.289 . S
C99 O110 1.258 . S
C99 O111 1.256 . S
O100 La80 2.521 . S
O100 C82 1.261 . S
O101 La80 2.628 . S
O101 C82 1.243 . S
O102 La80 2.554 . S
O102 C89 1.240 . S
O103 La80 2.757 . S
O103 La81 2.482 . S
O103 C89 1.289 . S
O104 La80 2.470 . S
O104 C90 1.258 . S
O105 La81 2.503 . S
O105 C90 1.256 . S
O106 La81 2.521 . S
O106 C91 1.261 . S
O107 La81 2.628 . S
O107 C91 1.243 . S
O108 La81 2.554 . S
O108 C98 1.240 . S
O109 La80 2.482 . S
O109 La81 2.757 . S
O109 C98 1.289 . S
O110 La81 2.470 . S
O110 C99 1.258 . S
O111 La80 2.503 . S
O111 C99 1.256 . S
H112 C84 0.930 . S
H113 C85 0.930 . S
H114 C87 0.929 . S
H115 C88 0.929 . S
H116 C93 0.930 . S
H117 C94 0.930 . S
H118 C96 0.929 . S
H119 C97 0.929 . S
O120 Cd121 2.300 . S
O120 C127 1.275 . S
Cd121 O120 2.300 . S
Cd121 O129 2.381 . S
Cd121 O130 2.378 . S
O122 Cd123 2.385 . S
O122 C127 1.255 1_565 S
Cd123 O122 2.385 . S
Cd123 O124 2.317 . S
O124 Cd123 2.317 . S
O124 C125 1.232 . S
C125 O124 1.232 . S
C125 O126 1.218 . S
O126 C125 1.218 . S
C127 O120 1.275 . S
C127 O122 1.255 1_545 S
C128 O129 1.258 . S
C128 O130 1.256 . S
O129 Cd121 2.381 . S
O129 C128 1.258 . S
O130 Cd121 2.378 . S
O130 C128 1.256 . S
O131 Cd132 2.300 . S
O131 C138 1.275 . S
Cd132 O131 2.300 . S
Cd132 O140 2.381 . S
Cd132 O141 2.378 . S
O133 Cd134 2.385 . S
O133 C138 1.255 . S
Cd134 O133 2.385 . S
Cd134 O135 2.317 . S
O135 Cd134 2.317 . S
O135 C136 1.232 . S
C136 O135 1.232 . S
C136 O137 1.218 . S
O137 C136 1.218 . S
C138 O131 1.275 . S
C138 O133 1.255 . S
C139 O140 1.258 . S
C139 O141 1.256 . S
O140 Cd132 2.381 . S
O140 C139 1.258 . S
O141 Cd132 2.378 . S
O141 C139 1.256 . S
O142 Cd143 2.300 . S
O142 C149 1.275 . S
Cd143 O142 2.300 . S
Cd143 O151 2.381 . S
Cd143 O152 2.378 . S
O144 Cd145 2.385 1_455 S
O144 C149 1.255 . S
Cd145 O144 2.385 1_655 S
Cd145 O146 2.317 . S
O146 Cd145 2.317 . S
O146 C147 1.232 . S
C147 O146 1.232 . S
C147 O148 1.218 . S
O148 C147 1.218 . S
C149 O142 1.275 . S
C149 O144 1.255 . S
C150 O151 1.258 . S
C150 O152 1.256 . S
O151 Cd143 2.381 . S
O151 C150 1.258 . S
O152 Cd143 2.378 . S
O152 C150 1.256 . S
O153 Cd154 2.300 . S
O153 C160 1.275 1_455 S
Cd154 O153 2.300 . S
Cd154 O162 2.381 . S
Cd154 O163 2.378 . S
O155 Cd156 2.385 . S
O155 C160 1.255 . S
Cd156 O155 2.385 . S
Cd156 O157 2.317 . S
O157 Cd156 2.317 . S
O157 C158 1.232 . S
C158 O157 1.232 . S
C158 O159 1.218 . S
O159 C158 1.218 . S
C160 O153 1.275 1_655 S
C160 O155 1.255 . S
C161 O162 1.258 . S
C161 O163 1.256 . S
O162 Cd154 2.381 . S
O162 C161 1.258 . S
O163 Cd154 2.378 . S
O163 C161 1.256 . S
O164 Cd165 2.300 . S
O164 C171 1.275 1_565 S
Cd165 O164 2.300 . S
Cd165 O173 2.381 . S
Cd165 O174 2.378 . S
O166 Cd167 2.385 . S
O166 C171 1.255 . S
Cd167 O166 2.385 . S
Cd167 O168 2.317 . S
O168 Cd167 2.317 . S
O168 C169 1.232 . S
C169 O168 1.232 . S
C169 O170 1.218 . S
O170 C169 1.218 . S
C171 O164 1.275 1_545 S
C171 O166 1.255 . S
C172 O173 1.258 . S
C172 O174 1.256 . S
O173 Cd165 2.381 . S
O173 C172 1.258 . S
O174 Cd165 2.378 . S
O174 C172 1.256 . S
O175 Cd176 2.300 . S
O175 C182 1.275 . S
Cd176 O175 2.300 . S
Cd176 O184 2.381 . S
Cd176 O185 2.378 . S
O177 Cd178 2.385 . S
O177 C182 1.255 . S
Cd178 O177 2.385 . S
Cd178 O179 2.317 . S
O179 Cd178 2.317 . S
O179 C180 1.232 . S
C180 O179 1.232 . S
C180 O181 1.218 . S
O181 C180 1.218 . S
C182 O175 1.275 . S
C182 O177 1.255 . S
C183 O184 1.258 . S
C183 O185 1.256 . S
O184 Cd176 2.381 . S
O184 C183 1.258 . S
O185 Cd176 2.378 . S
O185 C183 1.256 . S
H186 C194 0.929 . S
H187 C196 0.930 . S
H188 C198 0.930 . S
H189 C201 0.929 . S
H190 C204 0.930 . S
H191 C206 0.960 . S
H192 C206 0.960 . S
H193 C206 0.960 . S
C194 H186 0.929 . S
C194 C195 1.377 . S
C194 C196 1.384 . S
C195 C194 1.377 . S
C195 C201 1.390 . S
C196 H187 0.930 . S
C196 C194 1.384 . S
C196 C197 1.372 . S
C197 C196 1.372 . S
C197 C198 1.400 . S
C197 C202 1.490 . S
C198 H188 0.930 . S
C198 C197 1.400 . S
C198 C201 1.386 . S
H199 C215 0.930 . S
H200 C216 0.931 . S
C201 H189 0.929 . S
C201 C195 1.390 . S
C201 C198 1.386 . S
C202 C197 1.490 . S
C202 C204 1.395 . S
C202 C205 1.403 . S
H203 C209 0.930 . S
C204 H190 0.930 . S
C204 C202 1.395 . S
C204 C207 1.403 . S
C205 C202 1.403 . S
C205 C206 1.524 . S
C205 C209 1.400 . S
C206 H191 0.960 . S
C206 H192 0.960 . S
C206 H193 0.960 . S
C206 C205 1.524 . S
C207 C204 1.403 . S
C207 C208 1.392 . S
C207 C211 1.495 . S
C208 C207 1.392 . S
C208 C209 1.385 . S
C208 C210 1.478 . S
C209 H203 0.930 . S
C209 C205 1.400 . S
C209 C208 1.385 . S
C210 C208 1.478 . S
C210 C212 1.381 . S
C210 C216 1.383 . S
C211 C207 1.495 . S
C211 H217 0.959 . S
C211 H218 0.961 . S
C211 H219 0.960 . S
C212 C210 1.381 . S
C212 C213 1.394 . S
C212 H220 0.930 . S
C213 C212 1.394 . S
C213 C214 1.383 . S
C213 H221 0.929 . S
C214 C213 1.383 . S
C214 C215 1.377 . S
C215 H199 0.930 . S
C215 C214 1.377 . S
C215 C216 1.379 . S
C216 H200 0.931 . S
C216 C210 1.383 . S
C216 C215 1.379 . S
H217 C211 0.959 . S
H218 C211 0.961 . S
H219 C211 0.960 . S
H220 C212 0.930 . S
H221 C213 0.929 . S
H222 C230 0.929 . S
H223 C232 0.930 . S
H224 C234 0.930 . S
H225 C237 0.929 . S
H226 C240 0.930 . S
H227 C242 0.960 . S
H228 C242 0.960 . S
H229 C242 0.960 . S
C230 H222 0.929 . S
C230 C231 1.377 . S
C230 C232 1.384 . S
C231 C230 1.377 . S
C231 C237 1.390 . S
C232 H223 0.930 . S
C232 C230 1.384 . S
C232 C233 1.372 . S
C233 C232 1.372 . S
C233 C234 1.400 . S
C233 C238 1.490 . S
C234 H224 0.930 . S
C234 C233 1.400 . S
C234 C237 1.386 . S
H235 C251 0.930 . S
H236 C252 0.931 . S
C237 H225 0.929 . S
C237 C231 1.390 . S
C237 C234 1.386 . S
C238 C233 1.490 . S
C238 C240 1.395 . S
C238 C241 1.403 . S
H239 C245 0.930 . S
C240 H226 0.930 . S
C240 C238 1.395 . S
C240 C243 1.403 . S
C241 C238 1.403 . S
C241 C242 1.524 . S
C241 C245 1.400 . S
C242 H227 0.960 . S
C242 H228 0.960 . S
C242 H229 0.960 . S
C242 C241 1.524 . S
C243 C240 1.403 . S
C243 C244 1.392 . S
C243 C247 1.495 . S
C244 C243 1.392 . S
C244 C245 1.385 . S
C244 C246 1.478 . S
C245 H239 0.930 . S
C245 C241 1.400 . S
C245 C244 1.385 . S
C246 C244 1.478 . S
C246 C248 1.381 . S
C246 C252 1.383 . S
C247 C243 1.495 . S
C247 H253 0.959 . S
C247 H254 0.961 . S
C247 H255 0.960 . S
C248 C246 1.381 . S
C248 C249 1.394 . S
C248 H256 0.930 . S
C249 C248 1.394 . S
C249 C250 1.383 . S
C249 H257 0.929 . S
C250 C249 1.383 . S
C250 C251 1.377 . S
C251 H235 0.930 . S
C251 C250 1.377 . S
C251 C252 1.379 . S
C252 H236 0.931 . S
C252 C246 1.383 . S
C252 C251 1.379 . S
H253 C247 0.959 . S
H254 C247 0.961 . S
H255 C247 0.960 . S
H256 C248 0.930 . S
H257 C249 0.929 . S
H258 C266 0.929 . S
H259 C268 0.930 . S
H260 C270 0.930 . S
H261 C273 0.929 . S
H262 C276 0.930 . S
H263 C278 0.960 . S
H264 C278 0.960 . S
H265 C278 0.960 . S
C266 H258 0.929 . S
C266 C267 1.377 . S
C266 C268 1.384 . S
C267 C266 1.377 . S
C267 C273 1.390 . S
C268 H259 0.930 . S
C268 C266 1.384 . S
C268 C269 1.372 . S
C269 C268 1.372 . S
C269 C270 1.400 . S
C269 C274 1.490 . S
C270 H260 0.930 . S
C270 C269 1.400 . S
C270 C273 1.386 . S
H271 C287 0.930 . S
H272 C288 0.931 . S
C273 H261 0.929 . S
C273 C267 1.390 . S
C273 C270 1.386 . S
C274 C269 1.490 . S
C274 C276 1.395 . S
C274 C277 1.403 . S
H275 C281 0.930 . S
C276 H262 0.930 . S
C276 C274 1.395 . S
C276 C279 1.403 . S
C277 C274 1.403 . S
C277 C278 1.524 . S
C277 C281 1.400 . S
C278 H263 0.960 . S
C278 H264 0.960 . S
C278 H265 0.960 . S
C278 C277 1.524 . S
C279 C276 1.403 . S
C279 C280 1.392 . S
C279 C283 1.495 . S
C280 C279 1.392 . S
C280 C281 1.385 . S
C280 C282 1.478 . S
C281 H275 0.930 . S
C281 C277 1.400 . S
C281 C280 1.385 . S
C282 C280 1.478 . S
C282 C284 1.381 . S
C282 C288 1.383 . S
C283 C279 1.495 . S
C283 H289 0.959 . S
C283 H290 0.961 . S
C283 H291 0.960 . S
C284 C282 1.381 . S
C284 C285 1.394 . S
C284 H292 0.930 . S
C285 C284 1.394 . S
C285 C286 1.383 . S
C285 H293 0.929 . S
C286 C285 1.383 . S
C286 C287 1.377 . S
C287 H271 0.930 . S
C287 C286 1.377 . S
C287 C288 1.379 . S
C288 H272 0.931 . S
C288 C282 1.383 . S
C288 C287 1.379 . S
H289 C283 0.959 . S
H290 C283 0.961 . S
H291 C283 0.960 . S
H292 C284 0.930 . S
H293 C285 0.929 . S
H294 C302 0.929 . S
H295 C304 0.930 . S
H296 C306 0.930 . S
H297 C309 0.929 . S
H298 C312 0.930 . S
H299 C314 0.960 . S
H300 C314 0.960 . S
H301 C314 0.960 . S
C302 H294 0.929 . S
C302 C303 1.377 . S
C302 C304 1.384 . S
C303 C302 1.377 . S
C303 C309 1.390 . S
C304 H295 0.930 . S
C304 C302 1.384 . S
C304 C305 1.372 . S
C305 C304 1.372 . S
C305 C306 1.400 . S
C305 C310 1.490 . S
C306 H296 0.930 . S
C306 C305 1.400 . S
C306 C309 1.386 . S
H307 C323 0.930 . S
H308 C324 0.931 . S
C309 H297 0.929 . S
C309 C303 1.390 . S
C309 C306 1.386 . S
C310 C305 1.490 . S
C310 C312 1.395 . S
C310 C313 1.403 . S
H311 C317 0.930 . S
C312 H298 0.930 . S
C312 C310 1.395 . S
C312 C315 1.403 . S
C313 C310 1.403 . S
C313 C314 1.524 . S
C313 C317 1.400 . S
C314 H299 0.960 . S
C314 H300 0.960 . S
C314 H301 0.960 . S
C314 C313 1.524 . S
C315 C312 1.403 . S
C315 C316 1.392 . S
C315 C319 1.495 . S
C316 C315 1.392 . S
C316 C317 1.385 . S
C316 C318 1.478 . S
C317 H311 0.930 . S
C317 C313 1.400 . S
C317 C316 1.385 . S
C318 C316 1.478 . S
C318 C320 1.381 . S
C318 C324 1.383 . S
C319 C315 1.495 . S
C319 H325 0.959 . S
C319 H326 0.961 . S
C319 H327 0.960 . S
C320 C318 1.381 . S
C320 C321 1.394 . S
C320 H328 0.930 . S
C321 C320 1.394 . S
C321 C322 1.383 . S
C321 H329 0.929 . S
C322 C321 1.383 . S
C322 C323 1.377 . S
C323 H307 0.930 . S
C323 C322 1.377 . S
C323 C324 1.379 . S
C324 H308 0.931 . S
C324 C318 1.383 . S
C324 C323 1.379 . S
H325 C319 0.959 . S
H326 C319 0.961 . S
H327 C319 0.960 . S
H328 C320 0.930 . S
H329 C321 0.929 . S
H330 C338 0.929 . S
H331 C340 0.930 . S
H332 C342 0.930 . S
H333 C345 0.929 . S
H334 C348 0.930 . S
H335 C350 0.960 . S
H336 C350 0.960 . S
H337 C350 0.960 . S
C338 H330 0.929 . S
C338 C339 1.377 . S
C338 C340 1.384 . S
C339 C338 1.377 . S
C339 C345 1.390 . S
C340 H331 0.930 . S
C340 C338 1.384 . S
C340 C341 1.372 . S
C341 C340 1.372 . S
C341 C342 1.400 . S
C341 C346 1.490 . S
C342 H332 0.930 . S
C342 C341 1.400 . S
C342 C345 1.386 . S
H343 C359 0.930 . S
H344 C360 0.931 . S
C345 H333 0.929 . S
C345 C339 1.390 . S
C345 C342 1.386 . S
C346 C341 1.490 . S
C346 C348 1.395 . S
C346 C349 1.403 . S
H347 C353 0.930 . S
C348 H334 0.930 . S
C348 C346 1.395 . S
C348 C351 1.403 . S
C349 C346 1.403 . S
C349 C350 1.524 . S
C349 C353 1.400 . S
C350 H335 0.960 . S
C350 H336 0.960 . S
C350 H337 0.960 . S
C350 C349 1.524 . S
C351 C348 1.403 . S
C351 C352 1.392 . S
C351 C355 1.495 . S
C352 C351 1.392 . S
C352 C353 1.385 . S
C352 C354 1.478 . S
C353 H347 0.930 . S
C353 C349 1.400 . S
C353 C352 1.385 . S
C354 C352 1.478 . S
C354 C356 1.381 . S
C354 C360 1.383 . S
C355 C351 1.495 . S
C355 H361 0.959 . S
C355 H362 0.961 . S
C355 H363 0.960 . S
C356 C354 1.381 . S
C356 C357 1.394 . S
C356 H364 0.930 . S
C357 C356 1.394 . S
C357 C358 1.383 . S
C357 H365 0.929 . S
C358 C357 1.383 . S
C358 C359 1.377 . S
C359 H343 0.930 . S
C359 C358 1.377 . S
C359 C360 1.379 . S
C360 H344 0.931 . S
C360 C354 1.383 . S
C360 C359 1.379 . S
H361 C355 0.959 . S
H362 C355 0.961 . S
H363 C355 0.960 . S
H364 C356 0.930 . S
H365 C357 0.929 . S
H366 C374 0.929 . S
H367 C376 0.930 . S
H368 C378 0.930 . S
H369 C381 0.929 . S
H370 C384 0.930 . S
H371 C386 0.960 . S
H372 C386 0.960 . S
H373 C386 0.960 . S
C374 H366 0.929 . S
C374 C375 1.377 . S
C374 C376 1.384 . S
C375 C374 1.377 . S
C375 C381 1.390 . S
C376 H367 0.930 . S
C376 C374 1.384 . S
C376 C377 1.372 . S
C377 C376 1.372 . S
C377 C378 1.400 . S
C377 C382 1.490 . S
C378 H368 0.930 . S
C378 C377 1.400 . S
C378 C381 1.386 . S
H379 C395 0.930 . S
H380 C396 0.931 . S
C381 H369 0.929 . S
C381 C375 1.390 . S
C381 C378 1.386 . S
C382 C377 1.490 . S
C382 C384 1.395 . S
C382 C385 1.403 . S
H383 C389 0.930 . S
C384 H370 0.930 . S
C384 C382 1.395 . S
C384 C387 1.403 . S
C385 C382 1.403 . S
C385 C386 1.524 . S
C385 C389 1.400 . S
C386 H371 0.960 . S
C386 H372 0.960 . S
C386 H373 0.960 . S
C386 C385 1.524 . S
C387 C384 1.403 . S
C387 C388 1.392 . S
C387 C391 1.495 . S
C388 C387 1.392 . S
C388 C389 1.385 . S
C388 C390 1.478 . S
C389 H383 0.930 . S
C389 C385 1.400 . S
C389 C388 1.385 . S
C390 C388 1.478 . S
C390 C392 1.381 . S
C390 C396 1.383 . S
C391 C387 1.495 . S
C391 H397 0.959 . S
C391 H398 0.961 . S
C391 H399 0.960 . S
C392 C390 1.381 . S
C392 C393 1.394 . S
C392 H400 0.930 . S
C393 C392 1.394 . S
C393 C394 1.383 . S
C393 H401 0.929 . S
C394 C393 1.383 . S
C394 C395 1.377 . S
C395 H379 0.930 . S
C395 C394 1.377 . S
C395 C396 1.379 . S
C396 H380 0.931 . S
C396 C390 1.383 . S
C396 C395 1.379 . S
H397 C391 0.959 . S
H398 C391 0.961 . S
H399 C391 0.960 . S
H400 C392 0.930 . S
H401 C393 0.929 . S
H402 C410 0.929 . S
H403 C412 0.930 . S
H404 C414 0.930 . S
H405 C417 0.929 . S
H406 C420 0.930 . S
H407 C422 0.960 . S
H408 C422 0.960 . S
H409 C422 0.960 . S
C410 H402 0.929 . S
C410 C411 1.377 . S
C410 C412 1.384 . S
C411 C410 1.377 . S
C411 C417 1.390 . S
C412 H403 0.930 . S
C412 C410 1.384 . S
C412 C413 1.372 . S
C413 C412 1.372 . S
C413 C414 1.400 . S
C413 C418 1.490 . S
C414 H404 0.930 . S
C414 C413 1.400 . S
C414 C417 1.386 . S
H415 C431 0.930 . S
H416 C432 0.931 . S
C417 H405 0.929 . S
C417 C411 1.390 . S
C417 C414 1.386 . S
C418 C413 1.490 . S
C418 C420 1.395 . S
C418 C421 1.403 . S
H419 C425 0.930 . S
C420 H406 0.930 . S
C420 C418 1.395 . S
C420 C423 1.403 . S
C421 C418 1.403 . S
C421 C422 1.524 . S
C421 C425 1.400 . S
C422 H407 0.960 . S
C422 H408 0.960 . S
C422 H409 0.960 . S
C422 C421 1.524 . S
C423 C420 1.403 . S
C423 C424 1.392 . S
C423 C427 1.495 . S
C424 C423 1.392 . S
C424 C425 1.385 . S
C424 C426 1.478 . S
C425 H419 0.930 . S
C425 C421 1.400 . S
C425 C424 1.385 . S
C426 C424 1.478 . S
C426 C428 1.381 . S
C426 C432 1.383 . S
C427 C423 1.495 . S
C427 H433 0.959 . S
C427 H434 0.961 . S
C427 H435 0.960 . S
C428 C426 1.381 . S
C428 C429 1.394 . S
C428 H436 0.930 . S
C429 C428 1.394 . S
C429 C430 1.383 . S
C429 H437 0.929 . S
C430 C429 1.383 . S
C430 C431 1.377 . S
C431 H415 0.930 . S
C431 C430 1.377 . S
C431 C432 1.379 . S
C432 H416 0.931 . S
C432 C426 1.383 . S
C432 C431 1.379 . S
H433 C427 0.959 . S
H434 C427 0.961 . S
H435 C427 0.960 . S
H436 C428 0.930 . S
H437 C429 0.929 . S
H438 C446 0.929 . S
H439 C448 0.930 . S
H440 C450 0.930 . S
H441 C453 0.929 . S
H442 C456 0.930 . S
H443 C458 0.960 . S
H444 C458 0.960 . S
H445 C458 0.960 . S
C446 H438 0.929 . S
C446 C447 1.377 . S
C446 C448 1.384 . S
C447 C446 1.377 . S
C447 C453 1.390 . S
C448 H439 0.930 . S
C448 C446 1.384 . S
C448 C449 1.372 . S
C449 C448 1.372 . S
C449 C450 1.400 . S
C449 C454 1.490 . S
C450 H440 0.930 . S
C450 C449 1.400 . S
C450 C453 1.386 . S
H451 C467 0.930 . S
H452 C468 0.931 . S
C453 H441 0.929 . S
C453 C447 1.390 . S
C453 C450 1.386 . S
C454 C449 1.490 . S
C454 C456 1.395 . S
C454 C457 1.403 . S
H455 C461 0.930 . S
C456 H442 0.930 . S
C456 C454 1.395 . S
C456 C459 1.403 . S
C457 C454 1.403 . S
C457 C458 1.524 . S
C457 C461 1.400 . S
C458 H443 0.960 . S
C458 H444 0.960 . S
C458 H445 0.960 . S
C458 C457 1.524 . S
C459 C456 1.403 . S
C459 C460 1.392 . S
C459 C463 1.495 . S
C460 C459 1.392 . S
C460 C461 1.385 . S
C460 C462 1.478 . S
C461 H455 0.930 . S
C461 C457 1.400 . S
C461 C460 1.385 . S
C462 C460 1.478 . S
C462 C464 1.381 . S
C462 C468 1.383 . S
C463 C459 1.495 . S
C463 H469 0.959 . S
C463 H470 0.961 . S
C463 H471 0.960 . S
C464 C462 1.381 . S
C464 C465 1.394 . S
C464 H472 0.930 . S
C465 C464 1.394 . S
C465 C466 1.383 . S
C465 H473 0.929 . S
C466 C465 1.383 . S
C466 C467 1.377 . S
C467 H451 0.930 . S
C467 C466 1.377 . S
C467 C468 1.379 . S
C468 H452 0.931 . S
C468 C462 1.383 . S
C468 C467 1.379 . S
H469 C463 0.959 . S
H470 C463 0.961 . S
H471 C463 0.960 . S
H472 C464 0.930 . S
H473 C465 0.929 . S
H474 C482 0.929 . S
H475 C484 0.930 . S
H476 C486 0.930 . S
H477 C489 0.929 . S
H478 C492 0.930 . S
H479 C494 0.960 . S
H480 C494 0.960 . S
H481 C494 0.960 . S
C482 H474 0.929 . S
C482 C483 1.377 . S
C482 C484 1.384 . S
C483 C482 1.377 . S
C483 C489 1.390 . S
C484 H475 0.930 . S
C484 C482 1.384 . S
C484 C485 1.372 . S
C485 C484 1.372 . S
C485 C486 1.400 . S
C485 C490 1.490 . S
C486 H476 0.930 . S
C486 C485 1.400 . S
C486 C489 1.386 . S
H487 C503 0.930 . S
H488 C504 0.931 . S
C489 H477 0.929 . S
C489 C483 1.390 . S
C489 C486 1.386 . S
C490 C485 1.490 . S
C490 C492 1.395 . S
C490 C493 1.403 . S
H491 C497 0.930 . S
C492 H478 0.930 . S
C492 C490 1.395 . S
C492 C495 1.403 . S
C493 C490 1.403 . S
C493 C494 1.524 . S
C493 C497 1.400 . S
C494 H479 0.960 . S
C494 H480 0.960 . S
C494 H481 0.960 . S
C494 C493 1.524 . S
C495 C492 1.403 . S
C495 C496 1.392 . S
C495 C499 1.495 . S
C496 C495 1.392 . S
C496 C497 1.385 . S
C496 C498 1.478 . S
C497 H491 0.930 . S
C497 C493 1.400 . S
C497 C496 1.385 . S
C498 C496 1.478 . S
C498 C500 1.381 . S
C498 C504 1.383 . S
C499 C495 1.495 . S
C499 H505 0.959 . S
C499 H506 0.961 . S
C499 H507 0.960 . S
C500 C498 1.381 . S
C500 C501 1.394 . S
C500 H508 0.930 . S
C501 C500 1.394 . S
C501 C502 1.383 . S
C501 H509 0.929 . S
C502 C501 1.383 . S
C502 C503 1.377 . S
C503 H487 0.930 . S
C503 C502 1.377 . S
C503 C504 1.379 . S
C504 H488 0.931 . S
C504 C498 1.383 . S
C504 C503 1.379 . S
H505 C499 0.959 . S
H506 C499 0.961 . S
H507 C499 0.960 . S
H508 C500 0.930 . S
H509 C501 0.929 . S
H510 C518 0.929 . S
H511 C520 0.930 . S
H512 C522 0.930 . S
H513 C525 0.929 . S
H514 C528 0.930 . S
H515 C530 0.960 . S
H516 C530 0.960 . S
H517 C530 0.960 . S
C518 H510 0.929 . S
C518 C519 1.377 . S
C518 C520 1.384 . S
C519 C518 1.377 . S
C519 C525 1.390 . S
C520 H511 0.930 . S
C520 C518 1.384 . S
C520 C521 1.372 . S
C521 C520 1.372 . S
C521 C522 1.400 . S
C521 C526 1.490 . S
C522 H512 0.930 . S
C522 C521 1.400 . S
C522 C525 1.386 . S
H523 C539 0.930 . S
H524 C540 0.931 . S
C525 H513 0.929 . S
C525 C519 1.390 . S
C525 C522 1.386 . S
C526 C521 1.490 . S
C526 C528 1.395 . S
C526 C529 1.403 . S
H527 C533 0.930 . S
C528 H514 0.930 . S
C528 C526 1.395 . S
C528 C531 1.403 . S
C529 C526 1.403 . S
C529 C530 1.524 . S
C529 C533 1.400 . S
C530 H515 0.960 . S
C530 H516 0.960 . S
C530 H517 0.960 . S
C530 C529 1.524 . S
C531 C528 1.403 . S
C531 C532 1.392 . S
C531 C535 1.495 . S
C532 C531 1.392 . S
C532 C533 1.385 . S
C532 C534 1.478 . S
C533 H527 0.930 . S
C533 C529 1.400 . S
C533 C532 1.385 . S
C534 C532 1.478 . S
C534 C536 1.381 . S
C534 C540 1.383 . S
C535 C531 1.495 . S
C535 H541 0.959 . S
C535 H542 0.961 . S
C535 H543 0.960 . S
C536 C534 1.381 . S
C536 C537 1.394 . S
C536 H544 0.930 . S
C537 C536 1.394 . S
C537 C538 1.383 . S
C537 H545 0.929 . S
C538 C537 1.383 . S
C538 C539 1.377 . S
C539 H523 0.930 . S
C539 C538 1.377 . S
C539 C540 1.379 . S
C540 H524 0.931 . S
C540 C534 1.383 . S
C540 C539 1.379 . S
H541 C535 0.959 . S
H542 C535 0.961 . S
H543 C535 0.960 . S
H544 C536 0.930 . S
H545 C537 0.929 . S
H546 C554 0.929 . S
H547 C556 0.930 . S
H548 C558 0.930 . S
H549 C561 0.929 . S
H550 C564 0.930 . S
H551 C566 0.960 . S
H552 C566 0.960 . S
H553 C566 0.960 . S
C554 H546 0.929 . S
C554 C555 1.377 . S
C554 C556 1.384 . S
C555 C554 1.377 . S
C555 C561 1.390 . S
C556 H547 0.930 . S
C556 C554 1.384 . S
C556 C557 1.372 . S
C557 C556 1.372 . S
C557 C558 1.400 . S
C557 C562 1.490 . S
C558 H548 0.930 . S
C558 C557 1.400 . S
C558 C561 1.386 . S
H559 C575 0.930 . S
H560 C576 0.931 . S
C561 H549 0.929 . S
C561 C555 1.390 . S
C561 C558 1.386 . S
C562 C557 1.490 . S
C562 C564 1.395 . S
C562 C565 1.403 . S
H563 C569 0.930 . S
C564 H550 0.930 . S
C564 C562 1.395 . S
C564 C567 1.403 . S
C565 C562 1.403 . S
C565 C566 1.524 . S
C565 C569 1.400 . S
C566 H551 0.960 . S
C566 H552 0.960 . S
C566 H553 0.960 . S
C566 C565 1.524 . S
C567 C564 1.403 . S
C567 C568 1.392 . S
C567 C571 1.495 . S
C568 C567 1.392 . S
C568 C569 1.385 . S
C568 C570 1.478 . S
C569 H563 0.930 . S
C569 C565 1.400 . S
C569 C568 1.385 . S
C570 C568 1.478 . S
C570 C572 1.381 . S
C570 C576 1.383 . S
C571 C567 1.495 . S
C571 H577 0.959 . S
C571 H578 0.961 . S
C571 H579 0.960 . S
C572 C570 1.381 . S
C572 C573 1.394 . S
C572 H580 0.930 . S
C573 C572 1.394 . S
C573 C574 1.383 . S
C573 H581 0.929 . S
C574 C573 1.383 . S
C574 C575 1.377 . S
C575 H559 0.930 . S
C575 C574 1.377 . S
C575 C576 1.379 . S
C576 H560 0.931 . S
C576 C570 1.383 . S
C576 C575 1.379 . S
H577 C571 0.959 . S
H578 C571 0.961 . S
H579 C571 0.960 . S
H580 C572 0.930 . S
H581 C573 0.929 . S
H582 C590 0.929 . S
H583 C592 0.930 . S
H584 C594 0.930 . S
H585 C597 0.929 . S
H586 C600 0.930 . S
H587 C602 0.960 . S
H588 C602 0.960 . S
H589 C602 0.960 . S
C590 H582 0.929 . S
C590 C591 1.377 . S
C590 C592 1.384 . S
C591 C590 1.377 . S
C591 C597 1.390 . S
C592 H583 0.930 . S
C592 C590 1.384 . S
C592 C593 1.372 . S
C593 C592 1.372 . S
C593 C594 1.400 . S
C593 C598 1.490 . S
C594 H584 0.930 . S
C594 C593 1.400 . S
C594 C597 1.386 . S
H595 C611 0.930 . S
H596 C612 0.931 . S
C597 H585 0.929 . S
C597 C591 1.390 . S
C597 C594 1.386 . S
C598 C593 1.490 . S
C598 C600 1.395 . S
C598 C601 1.403 . S
H599 C605 0.930 . S
C600 H586 0.930 . S
C600 C598 1.395 . S
C600 C603 1.403 . S
C601 C598 1.403 . S
C601 C602 1.524 . S
C601 C605 1.400 . S
C602 H587 0.960 . S
C602 H588 0.960 . S
C602 H589 0.960 . S
C602 C601 1.524 . S
C603 C600 1.403 . S
C603 C604 1.392 . S
C603 C607 1.495 . S
C604 C603 1.392 . S
C604 C605 1.385 . S
C604 C606 1.478 . S
C605 H599 0.930 . S
C605 C601 1.400 . S
C605 C604 1.385 . S
C606 C604 1.478 . S
C606 C608 1.381 . S
C606 C612 1.383 . S
C607 C603 1.495 . S
C607 H613 0.959 . S
C607 H614 0.961 . S
C607 H615 0.960 . S
C608 C606 1.381 . S
C608 C609 1.394 . S
C608 H616 0.930 . S
C609 C608 1.394 . S
C609 C610 1.383 . S
C609 H617 0.929 . S
C610 C609 1.383 . S
C610 C611 1.377 . S
C611 H595 0.930 . S
C611 C610 1.377 . S
C611 C612 1.379 . S
C612 H596 0.931 . S
C612 C606 1.383 . S
C612 C611 1.379 . S
H613 C607 0.959 . S
H614 C607 0.961 . S
H615 C607 0.960 . S
H616 C608 0.930 . S
H617 C609 0.929 . S
H618 C626 0.902 1_655 S
H619 C628 0.930 1_655 S
H620 C630 0.930 . S
H621 C633 0.929 . S
H622 C636 0.930 . S
H623 C638 0.960 . S
H624 C638 0.960 1_655 S
H625 C638 0.960 . S
C626 H618 0.902 1_455 S
C626 C627 1.406 . S
C626 C628 1.383 . S
C627 C626 1.406 . S
C627 C633 1.390 . S
C628 H619 0.930 1_455 S
C628 C626 1.383 . S
C628 C629 1.372 . S
C629 C628 1.372 . S
C629 C630 1.400 . S
C629 C634 1.490 . S
C630 H620 0.930 . S
C630 C629 1.400 . S
C630 C633 1.386 . S
H631 C647 0.930 . S
H632 C648 0.931 . S
C633 H621 0.929 . S
C633 C627 1.390 . S
C633 C630 1.386 . S
C634 C629 1.490 . S
C634 C636 1.395 . S
C634 C637 1.403 . S
H635 C641 0.930 1_556 S
C636 H622 0.930 . S
C636 C634 1.395 . S
C636 C639 1.403 . S
C637 C634 1.403 . S
C637 C638 1.524 . S
C637 C641 1.400 . S
C638 H623 0.960 . S
C638 H624 0.960 1_455 S
C638 H625 0.960 . S
C638 C637 1.524 . S
C639 C636 1.403 . S
C639 C640 1.392 1_554 S
C639 C643 1.495 . S
C640 C639 1.392 1_556 S
C640 C641 1.385 1_556 S
C640 C642 1.478 . S
C641 H635 0.930 1_554 S
C641 C637 1.400 . S
C641 C640 1.385 1_554 S
C642 C640 1.478 . S
C642 C644 1.381 . S
C642 C648 1.383 . S
C643 C639 1.495 . S
C643 H649 0.959 . S
C643 H650 0.961 1_554 S
C643 H651 0.960 1_554 S
C644 C642 1.381 . S
C644 C645 1.394 . S
C644 H652 0.930 1_455 S
C645 C644 1.394 . S
C645 C646 1.383 . S
C645 H653 0.929 1_455 S
C646 C645 1.383 . S
C646 C647 1.377 . S
C647 H631 0.930 . S
C647 C646 1.377 . S
C647 C648 1.379 . S
C648 H632 0.931 . S
C648 C642 1.383 . S
C648 C647 1.379 . S
H649 C643 0.959 . S
H650 C643 0.961 1_556 S
H651 C643 0.960 1_556 S
H652 C644 0.930 1_655 S
H653 C645 0.929 1_655 S
H654 C662 0.929 . S
H655 C664 0.930 . S
H656 C666 0.930 . S
H657 C669 0.929 . S
H658 C672 0.930 . S
H659 C674 0.960 . S
H660 C674 0.960 . S
H661 C674 0.960 . S
C662 H654 0.929 . S
C662 C663 1.377 . S
C662 C664 1.384 . S
C663 C662 1.377 . S
C663 C669 1.390 . S
C664 H655 0.930 . S
C664 C662 1.384 . S
C664 C665 1.372 . S
C665 C664 1.372 . S
C665 C666 1.400 . S
C665 C670 1.490 . S
C666 H656 0.930 . S
C666 C665 1.400 . S
C666 C669 1.386 . S
H667 C683 0.930 . S
H668 C684 0.931 . S
C669 H657 0.929 . S
C669 C663 1.390 . S
C669 C666 1.386 . S
C670 C665 1.490 . S
C670 C672 1.395 . S
C670 C673 1.403 1_545 S
H671 C677 0.930 . S
C672 H658 0.930 . S
C672 C670 1.395 . S
C672 C675 1.403 . S
C673 C670 1.403 1_565 S
C673 C674 1.524 . S
C673 C677 1.400 . S
C674 H659 0.960 . S
C674 H660 0.960 . S
C674 H661 0.960 . S
C674 C673 1.524 . S
C675 C672 1.403 . S
C675 C676 1.392 . S
C675 C679 1.495 . S
C676 C675 1.392 . S
C676 C677 1.385 1_545 S
C676 C678 1.478 . S
C677 H671 0.930 . S
C677 C673 1.400 . S
C677 C676 1.385 1_565 S
C678 C676 1.478 . S
C678 C680 1.381 . S
C678 C684 1.383 . S
C679 C675 1.495 . S
C679 H685 0.959 . S
C679 H686 0.961 . S
C679 H687 0.960 . S
C680 C678 1.381 . S
C680 C681 1.394 . S
C680 H688 0.930 . S
C681 C680 1.394 . S
C681 C682 1.383 . S
C681 H689 0.929 . S
C682 C681 1.383 . S
C682 C683 1.377 . S
C683 H667 0.930 . S
C683 C682 1.377 . S
C683 C684 1.379 . S
C684 H668 0.931 . S
C684 C678 1.383 . S
C684 C683 1.379 . S
H685 C679 0.959 . S
H686 C679 0.961 . S
H687 C679 0.960 . S
H688 C680 0.930 . S
H689 C681 0.929 . S
H690 C698 0.929 . S
H691 C700 0.930 . S
H692 C702 0.930 . S
H693 C705 0.929 . S
H694 C708 0.930 . S
H695 C710 0.960 . S
H696 C710 0.960 . S
H697 C710 0.960 . S
C698 H690 0.929 . S
C698 C699 1.377 . S
C698 C700 1.384 . S
C699 C698 1.377 . S
C699 C705 1.390 . S
C700 H691 0.930 . S
C700 C698 1.384 . S
C700 C701 1.372 . S
C701 C700 1.372 . S
C701 C702 1.400 . S
C701 C706 1.490 . S
C702 H692 0.930 . S
C702 C701 1.400 . S
C702 C705 1.386 . S
H703 C719 0.930 . S
H704 C720 0.931 . S
C705 H693 0.929 . S
C705 C699 1.390 . S
C705 C702 1.386 . S
C706 C701 1.490 . S
C706 C708 1.395 . S
C706 C709 1.403 . S
H707 C713 0.930 . S
C708 H694 0.930 . S
C708 C706 1.395 . S
C708 C711 1.403 . S
C709 C706 1.403 . S
C709 C710 1.524 . S
C709 C713 1.400 . S
C710 H695 0.960 . S
C710 H696 0.960 . S
C710 H697 0.960 . S
C710 C709 1.524 . S
C711 C708 1.403 . S
C711 C712 1.392 . S
C711 C715 1.495 . S
C712 C711 1.392 . S
C712 C713 1.385 . S
C712 C714 1.478 . S
C713 H707 0.930 . S
C713 C709 1.400 . S
C713 C712 1.385 . S
C714 C712 1.478 . S
C714 C716 1.381 . S
C714 C720 1.383 . S
C715 C711 1.495 . S
C715 H721 0.959 . S
C715 H722 0.961 . S
C715 H723 0.960 . S
C716 C714 1.381 . S
C716 C717 1.394 . S
C716 H724 0.930 . S
C717 C716 1.394 . S
C717 C718 1.383 . S
C717 H725 0.929 . S
C718 C717 1.383 . S
C718 C719 1.377 . S
C719 H703 0.930 . S
C719 C718 1.377 . S
C719 C720 1.379 . S
C720 H704 0.931 . S
C720 C714 1.383 . S
C720 C719 1.379 . S
H721 C715 0.959 . S
H722 C715 0.961 . S
H723 C715 0.960 . S
H724 C716 0.930 . S
H725 C717 0.929 . S
H726 C734 0.929 . S
H727 C736 0.930 . S
H728 C738 0.930 . S
H729 C741 0.929 . S
H730 C744 0.930 . S
H731 C746 0.960 . S
H732 C746 0.960 . S
H733 C746 0.960 . S
C734 H726 0.929 . S
C734 C735 1.377 . S
C734 C736 1.384 . S
C735 C734 1.377 . S
C735 C741 1.390 . S
C736 H727 0.930 . S
C736 C734 1.384 . S
C736 C737 1.372 . S
C737 C736 1.372 . S
C737 C738 1.400 . S
C737 C742 1.490 . S
C738 H728 0.930 . S
C738 C737 1.400 . S
C738 C741 1.386 . S
H739 C755 0.926 1_565 S
H740 C756 0.931 . S
C741 H729 0.929 . S
C741 C735 1.390 . S
C741 C738 1.386 . S
C742 C737 1.490 . S
C742 C744 1.395 1_545 S
C742 C745 1.403 . S
H743 C749 0.930 . S
C744 H730 0.930 . S
C744 C742 1.395 1_565 S
C744 C747 1.403 . S
C745 C742 1.403 . S
C745 C746 1.524 . S
C745 C749 1.400 . S
C746 H731 0.960 . S
C746 H732 0.960 . S
C746 H733 0.960 . S
C746 C745 1.524 . S
C747 C744 1.403 . S
C747 C748 1.392 1_565 S
C747 C751 1.495 . S
C748 C747 1.392 1_545 S
C748 C749 1.385 . S
C748 C750 1.478 . S
C749 H743 0.930 . S
C749 C745 1.400 . S
C749 C748 1.385 . S
C750 C748 1.478 . S
C750 C752 1.381 . S
C750 C756 1.383 1_545 S
C751 C747 1.495 . S
C751 H757 0.959 . S
C751 H758 0.961 . S
C751 H759 0.960 . S
C752 C750 1.381 . S
C752 C753 1.394 . S
C752 H760 0.930 . S
C753 C752 1.394 . S
C753 C754 1.383 . S
C753 H761 0.929 . S
C754 C753 1.383 . S
C754 C755 1.380 . S
C755 H739 0.926 1_545 S
C755 C754 1.380 . S
C755 C756 1.380 1_545 S
C756 H740 0.931 . S
C756 C750 1.383 1_565 S
C756 C755 1.380 1_565 S
H757 C751 0.959 . S
H758 C751 0.961 . S
H759 C751 0.960 . S
H760 C752 0.930 . S
H761 C753 0.929 . S
H762 C770 0.929 . S
H763 C772 0.930 . S
H764 C774 0.930 . S
H765 C777 0.929 . S
H766 C780 0.930 . S
H767 C782 0.960 . S
H768 C782 0.960 . S
H769 C782 0.960 . S
C770 H762 0.929 . S
C770 C771 1.377 . S
C770 C772 1.384 . S
C771 C770 1.377 . S
C771 C777 1.390 . S
C772 H763 0.930 . S
C772 C770 1.384 . S
C772 C773 1.372 . S
C773 C772 1.372 . S
C773 C774 1.400 . S
C773 C778 1.490 . S
C774 H764 0.930 . S
C774 C773 1.400 . S
C774 C777 1.386 . S
H775 C791 0.930 . S
H776 C792 0.931 . S
C777 H765 0.929 . S
C777 C771 1.390 . S
C777 C774 1.386 . S
C778 C773 1.490 . S
C778 C780 1.395 . S
C778 C781 1.403 . S
H779 C785 0.930 1_554 S
C780 H766 0.930 . S
C780 C778 1.395 . S
C780 C783 1.403 . S
C781 C778 1.403 . S
C781 C782 1.524 . S
C781 C785 1.400 . S
C782 H767 0.960 . S
C782 H768 0.960 . S
C782 H769 0.960 . S
C782 C781 1.524 . S
C783 C780 1.403 . S
C783 C784 1.392 1_556 S
C783 C787 1.495 . S
C784 C783 1.392 1_554 S
C784 C785 1.385 1_554 S
C784 C786 1.478 . S
C785 H779 0.930 1_556 S
C785 C781 1.400 . S
C785 C784 1.385 1_556 S
C786 C784 1.478 . S
C786 C788 1.381 . S
C786 C792 1.383 . S
C787 C783 1.495 . S
C787 H793 0.959 . S
C787 H794 0.961 1_556 S
C787 H795 0.960 1_556 S
C788 C786 1.381 . S
C788 C789 1.394 . S
C788 H796 0.930 . S
C789 C788 1.394 . S
C789 C790 1.383 . S
C789 H797 0.929 . S
C790 C789 1.383 . S
C790 C791 1.377 . S
C791 H775 0.930 . S
C791 C790 1.377 . S
C791 C792 1.379 . S
C792 H776 0.931 . S
C792 C786 1.383 . S
C792 C791 1.379 . S
H793 C787 0.959 . S
H794 C787 0.961 1_554 S
H795 C787 0.960 1_554 S
H796 C788 0.930 . S
H797 C789 0.929 . S
H798 C806 0.929 . S
H799 C808 0.930 . S
H800 C810 0.930 . S
H801 C813 0.929 . S
H802 C816 0.930 . S
H803 C818 0.960 . S
H804 C818 0.960 . S
H805 C818 0.960 . S
C806 H798 0.929 . S
C806 C807 1.377 . S
C806 C808 1.384 . S
C807 C806 1.377 . S
C807 C813 1.390 1_455 S
C808 H799 0.930 . S
C808 C806 1.384 . S
C808 C809 1.372 . S
C809 C808 1.372 . S
C809 C810 1.400 1_455 S
C809 C814 1.490 . S
C810 H800 0.930 . S
C810 C809 1.400 1_655 S
C810 C813 1.386 . S
H811 C827 0.930 . S
H812 C828 0.931 . S
C813 H801 0.929 . S
C813 C807 1.390 1_655 S
C813 C810 1.386 . S
C814 C809 1.490 . S
C814 C816 1.395 1_455 S
C814 C817 1.403 . S
H815 C821 0.930 . S
C816 H802 0.930 . S
C816 C814 1.395 1_655 S
C816 C819 1.403 . S
C817 C814 1.403 . S
C817 C818 1.524 . S
C817 C821 1.400 . S
C818 H803 0.960 . S
C818 H804 0.960 . S
C818 H805 0.960 . S
C818 C817 1.524 . S
C819 C816 1.403 . S
C819 C820 1.392 . S
C819 C823 1.495 . S
C820 C819 1.392 . S
C820 C821 1.385 1_655 S
C820 C822 1.478 . S
C821 H815 0.930 . S
C821 C817 1.400 . S
C821 C820 1.385 1_455 S
C822 C820 1.478 . S
C822 C824 1.381 1_655 S
C822 C828 1.383 . S
C823 C819 1.495 . S
C823 H829 0.959 . S
C823 H830 0.961 . S
C823 H831 0.960 . S
C824 C822 1.381 1_455 S
C824 C825 1.394 . S
C824 H832 0.930 . S
C825 C824 1.394 . S
C825 C826 1.383 1_455 S
C825 H833 0.929 . S
C826 C825 1.383 1_655 S
C826 C827 1.377 . S
C827 H811 0.930 . S
C827 C826 1.377 . S
C827 C828 1.379 . S
C828 H812 0.931 . S
C828 C822 1.383 . S
C828 C827 1.379 . S
H829 C823 0.959 . S
H830 C823 0.961 . S
H831 C823 0.960 . S
H832 C824 0.930 . S
H833 C825 0.929 . S
C195 C6 0.530 . S
C214 C180 0.687 . S
C231 C59 2.053 . S
C250 C158 1.806 . S
C267 C86 0.969 . S
C286 C172 0.944 . S
C303 C15 0.278 . S
C322 C183 0.306 . S
C358 C161 1.745 . S
C339 C50 1.771 . S
C394 C169 1.175 . S
C375 C95 1.402 . S
C411 C46 1.349 . S
C430 C136 1.119 . S
C447 C99 3.298 . S
C466 C147 2.974 . S
C483 C10 2.123 . S
C502 C125 1.860 . S
C538 C139 0.976 . S
C519 C55 1.007 . S
C574 C150 2.770 . S
C555 C90 2.812 . S
C591 C19 1.706 . S
C610 C128 1.684 . S
C646 C149 1.658 . S
C627 C18 1.638 . S
C663 C49 1.409 . S
C682 C127 1.403 . S
C699 C98 1.495 . S
C718 C138 1.504 . S
C754 C171 1.455 . S
C735 C58 1.454 . S
C790 C182 1.251 . S
C771 C89 1.243 . S
C807 C9 1.417 . S
C826 C160 1.381 . S
