# Generated by pormake.
# Topology rtl, (3,6)-cn, num edge types: 1
# Building blocks:
#     Node 0, Type 0, BuildingBlock: WUSLED_clean_sbu_0, # of connection points: 3
#     Node 1, Type 0, BuildingBlock: WUSLED_clean_sbu_0, # of connection points: 3
#     Node 2, Type 0, BuildingBlock: WUSLED_clean_sbu_0, # of connection points: 3
#     Node 3, Type 0, BuildingBlock: WUSLED_clean_sbu_0, # of connection points: 3
#     Node 4, Type 1, BuildingBlock: FUNLAD_clean_sbu_0, # of connection points: 6
#     Node 5, Type 1, BuildingBlock: FUNLAD_clean_sbu_0, # of connection points: 6
#     Edge 6, Type (0, 1), BuildingBlock: FUNLAD_clean_linker_0, # of connection points: 2
#     Edge 7, Type (0, 1), BuildingBlock: FUNLAD_clean_linker_0, # of connection points: 2
#     Edge 8, Type (0, 1), BuildingBlock: FUNLAD_clean_linker_0, # of connection points: 2
#     Edge 9, Type (0, 1), BuildingBlock: FUNLAD_clean_linker_0, # of connection points: 2
#     Edge 10, Type (0, 1), BuildingBlock: FUNLAD_clean_linker_0, # of connection points: 2
#     Edge 11, Type (0, 1), BuildingBlock: FUNLAD_clean_linker_0, # of connection points: 2
#     Edge 12, Type (0, 1), BuildingBlock: FUNLAD_clean_linker_0, # of connection points: 2
#     Edge 13, Type (0, 1), BuildingBlock: FUNLAD_clean_linker_0, # of connection points: 2
#     Edge 14, Type (0, 1), BuildingBlock: FUNLAD_clean_linker_0, # of connection points: 2
#     Edge 15, Type (0, 1), BuildingBlock: FUNLAD_clean_linker_0, # of connection points: 2
#     Edge 16, Type (0, 1), BuildingBlock: FUNLAD_clean_linker_0, # of connection points: 2
#     Edge 17, Type (0, 1), BuildingBlock: FUNLAD_clean_linker_0, # of connection points: 2
# Relax obj value: 0.026
# Max RMSD: 0.082
# Mean RMSD: 0.070
data_MOF--net-rtl--node1-WUSLED_clean_sbu_0--node2-FUNLAD_clean_sbu_0--edge1-FUNLAD_clean_linker_0
_symmetry_space_group_name_H-M    P1
_symmetry_Int_Tables_number       1
_symmetry_cell_setting            triclinic
loop_
_symmetry_equiv_pos_as_xyz
'x, y, z'
_cell_length_a     57.213024
_cell_length_b     47.811054
_cell_length_c     33.816419
_cell_angle_alpha  90.329053
_cell_angle_beta   91.037273
_cell_angle_gamma 91.486916
loop_
_atom_site_label
_atom_site_type_symbol
_atom_site_fract_x
_atom_site_fract_y
_atom_site_fract_z
_atom_type_partial_charge
C0 C 0.14139 0.8065 0.13275 0.0
C1 C 0.12503 0.82697 0.12365 0.0
C2 C 0.11609 0.83203 0.1935 0.0
C3 C 0.11249 0.83961 0.15372 0.0
C4 C 0.13238 0.81128 0.20234 0.0
C5 C 0.14492 0.79864 0.1722 0.0
U6 U 0.15599 0.80098 0.02441 0.0
O7 O 0.18964 0.79859 0.99452 0.0
O8 O 0.16343 0.76451 0.98685 0.0
C9 C 0.18493 0.7734 0.98018 0.0
C10 C 0.15506 0.79377 0.10126 0.0
C11 C 0.20341 0.75265 0.98518 0.0
C12 C 0.23763 0.73502 0.0198 0.0
C13 C 0.21923 0.75376 0.01746 0.0
C14 C 0.22415 0.71325 0.95842 0.0
C15 C 0.24052 0.71474 0.99001 0.0
C16 C 0.20587 0.73205 0.95602 0.0
C17 C 0.12187 0.84891 0.95373 0.0
C18 C 0.12183 0.847 0.88184 0.0
C19 C 0.1049 0.88631 0.91542 0.0
C20 C 0.11052 0.87447 0.9519 0.0
C21 C 0.11051 0.87278 0.87992 0.0
C22 C 0.12756 0.83519 0.91851 0.0
C23 C 0.12753 0.83723 0.99278 0.0
O24 O 0.14298 0.77787 0.07602 0.0
O25 O 0.16999 0.81089 0.084 0.0
O26 O 0.14829 0.8442 0.00749 0.0
O27 O 0.12173 0.81075 0.99813 0.0
H28 H 0.12215 0.83336 0.09329 0.0
H29 H 0.10034 0.85575 0.14587 0.0
H30 H 0.13537 0.80468 0.23255 0.0
H31 H 0.15745 0.78283 0.17971 0.0
H32 H 0.24997 0.73697 0.04439 0.0
H33 H 0.21766 0.76943 0.04045 0.0
H34 H 0.22549 0.69759 0.93537 0.0
H35 H 0.19379 0.73073 0.93098 0.0
H36 H 0.12657 0.83618 0.85504 0.0
H37 H 0.09588 0.90596 0.91503 0.0
H38 H 0.10595 0.88531 0.9788 0.0
H39 H 0.13644 0.81545 0.91938 0.0
C40 C 0.64406 0.71651 0.64489 0.0
C41 C 0.62691 0.69531 0.63917 0.0
C42 C 0.62332 0.69031 0.71044 0.0
C43 C 0.61663 0.68231 0.67165 0.0
C44 C 0.6402 0.712 0.71591 0.0
C45 C 0.6505 0.72497 0.68335 0.0
U46 U 0.65123 0.7221 0.53415 0.0
O47 O 0.65955 0.75831 0.49658 0.0
O48 O 0.68295 0.72266 0.49854 0.0
C49 C 0.67978 0.74834 0.4863 0.0
C50 C 0.65597 0.72889 0.61091 0.0
C51 C 0.70002 0.76745 0.49213 0.0
C52 C 0.72814 0.79162 0.53567 0.0
C53 C 0.70822 0.77439 0.53037 0.0
C54 C 0.7316 0.79547 0.46454 0.0
C55 C 0.74016 0.8022 0.5028 0.0
C56 C 0.71169 0.77819 0.45929 0.0
C57 C 0.61171 0.67826 0.46507 0.0
C58 C 0.62172 0.66375 0.39863 0.0
C59 C 0.58123 0.66277 0.41846 0.0
C60 C 0.58805 0.67281 0.45594 0.0
C61 C 0.59801 0.65779 0.38945 0.0
C62 C 0.62849 0.67403 0.43598 0.0
C63 C 0.61863 0.68796 0.50507 0.0
O64 O 0.66831 0.71129 0.59047 0.0
O65 O 0.64321 0.7452 0.58856 0.0
O66 O 0.61499 0.71447 0.51273 0.0
O67 O 0.63904 0.67957 0.51821 0.0
H68 H 0.62182 0.68847 0.60957 0.0
H69 H 0.60395 0.66544 0.66635 0.0
H70 H 0.64551 0.71891 0.74535 0.0
H71 H 0.66371 0.74134 0.68821 0.0
H72 H 0.73411 0.79671 0.56549 0.0
H73 H 0.69932 0.76626 0.55605 0.0
H74 H 0.7406 0.80301 0.43864 0.0
H75 H 0.7056 0.77292 0.42959 0.0
H76 H 0.63517 0.65988 0.3773 0.0
H77 H 0.56279 0.65895 0.41224 0.0
H78 H 0.57484 0.67618 0.4779 0.0
H79 H 0.64688 0.6783 0.44228 0.0
C80 C 0.87891 0.21186 0.12666 0.0
C81 C 0.89551 0.19192 0.11716 0.0
C82 C 0.90582 0.18679 0.18699 0.0
C83 C 0.90882 0.17947 0.14704 0.0
C84 C 0.88934 0.20708 0.19622 0.0
C85 C 0.87599 0.21947 0.1663 0.0
U86 U 0.86361 0.22111 0.01793 0.0
O87 O 0.82962 0.22209 0.98674 0.0
O88 O 0.85367 0.25857 0.98447 0.0
C89 C 0.83275 0.24817 0.97544 0.0
C90 C 0.86442 0.2245 0.09548 0.0
C91 C 0.81301 0.2669 0.98149 0.0
C92 C 0.77907 0.28144 0.01801 0.0
C93 C 0.79867 0.26464 0.01465 0.0
C94 C 0.7884 0.30354 0.9558 0.0
C95 C 0.77349 0.30084 0.9883 0.0
C96 C 0.80789 0.28671 0.95243 0.0
C97 C 0.90032 0.18139 0.94256 0.0
C98 C 0.88951 0.17029 0.87424 0.0
C99 C 0.9294 0.16447 0.8974 0.0
C100 C 0.92332 0.17387 0.93495 0.0
C101 C 0.91254 0.16231 0.86665 0.0
C102 C 0.88347 0.17985 0.91185 0.0
C103 C 0.89428 0.18982 0.983 0.0
O104 O 0.87538 0.2426 0.07279 0.0
O105 O 0.85068 0.20685 0.07545 0.0
O106 O 0.87417 0.18006 0.99602 0.0
O107 O 0.89844 0.21623 0.99231 0.0
H108 H 0.89807 0.18589 0.08663 0.0
H109 H 0.92156 0.16421 0.13883 0.0
H110 H 0.88638 0.21297 0.22666 0.0
H111 H 0.86323 0.23481 0.17415 0.0
H112 H 0.76792 0.27864 0.04329 0.0
H113 H 0.80234 0.24952 0.03753 0.0
H114 H 0.78495 0.3186 0.93276 0.0
H115 H 0.81881 0.28889 0.92672 0.0
H116 H 0.87619 0.16918 0.85109 0.0
H117 H 0.9472 0.15819 0.89274 0.0
H118 H 0.93654 0.17486 0.9583 0.0
H119 H 0.86562 0.18573 0.91706 0.0
C120 C 0.39325 0.28568 0.39549 0.0
C121 C 0.41169 0.30519 0.40167 0.0
C122 C 0.41604 0.31009 0.33055 0.0
C123 C 0.42298 0.31731 0.3695 0.0
C124 C 0.39789 0.28996 0.3246 0.0
C125 C 0.38656 0.27789 0.35687 0.0
U126 U 0.38552 0.28163 0.50583 0.0
O127 O 0.35403 0.28482 0.54156 0.0
O128 O 0.37467 0.2468 0.54422 0.0
C129 C 0.35527 0.25896 0.55421 0.0
C130 C 0.3803 0.27457 0.42923 0.0
C131 C 0.33376 0.24198 0.54839 0.0
C132 C 0.30414 0.22064 0.50476 0.0
C133 C 0.32519 0.23577 0.51014 0.0
C134 C 0.30021 0.21746 0.57587 0.0
C135 C 0.29132 0.21147 0.53758 0.0
C136 C 0.32125 0.23264 0.58119 0.0
C137 C 0.42839 0.32268 0.57273 0.0
C138 C 0.42114 0.32992 0.6425 0.0
C139 C 0.45724 0.34744 0.61412 0.0
C140 C 0.45008 0.33666 0.57724 0.0
C141 C 0.44273 0.34447 0.64707 0.0
C142 C 0.41405 0.31906 0.60561 0.0
C143 C 0.42053 0.31292 0.53338 0.0
O144 O 0.39177 0.25714 0.45187 0.0
O145 O 0.36917 0.29348 0.44937 0.0
O146 O 0.40062 0.32309 0.52085 0.0
O147 O 0.42213 0.28593 0.52675 0.0
H148 H 0.41699 0.31151 0.4314 0.0
H149 H 0.43663 0.333 0.3752 0.0
H150 H 0.39234 0.28365 0.29502 0.0
H151 H 0.37236 0.26281 0.35166 0.0
H152 H 0.29793 0.21605 0.47492 0.0
H153 H 0.33471 0.24284 0.48448 0.0
H154 H 0.29064 0.21096 0.60173 0.0
H155 H 0.32761 0.23739 0.61092 0.0
H156 H 0.40972 0.32702 0.66742 0.0
H157 H 0.47383 0.3588 0.61658 0.0
H158 H 0.46131 0.33967 0.55207 0.0
H159 H 0.39725 0.30818 0.60259 0.0
C160 C 0.03191 0.97792 0.45816 0.0
N161 N 0.05956 0.04907 0.51675 0.0
C162 C 0.0799 0.035 0.51923 0.0
C163 C 0.10127 0.04954 0.52269 0.0
C164 C 0.10181 0.0789 0.52352 0.0
C165 C 0.0806 0.09295 0.52008 0.0
C166 C 0.05954 0.07753 0.51683 0.0
Zn167 Zn 0.02895 0.02608 0.51491 0.0
C168 C 0.99486 0.04545 0.45494 0.0
N169 N 0.96639 0.97564 0.51279 0.0
C170 C 0.9667 0.9472 0.51305 0.0
C171 C 0.94589 0.98941 0.51071 0.0
C172 C 0.92462 0.97453 0.50831 0.0
C173 C 0.92438 0.94517 0.50815 0.0
C174 C 0.94578 0.93146 0.51084 0.0
Zn175 Zn 0.99691 0.99875 0.51447 0.0
O176 O 0.04293 0.99945 0.47162 0.0
C177 C 0.03066 0.97915 0.57437 0.0
O178 O 0.01157 0.97209 0.47088 0.0
H179 H 0.94602 0.01203 0.5107 0.0
H180 H 0.07956 0.01237 0.51897 0.0
H181 H 0.98321 0.93669 0.51462 0.0
O182 O 0.04217 0.99998 0.56082 0.0
O183 O 0.01042 0.9733 0.56007 0.0
H184 H 0.04316 0.08828 0.51495 0.0
O185 O 0.98288 0.02569 0.55831 0.0
O186 O 0.01465 0.05235 0.55839 0.0
O187 O 0.98376 0.02444 0.46881 0.0
O188 O 0.01511 0.05183 0.46899 0.0
C189 C 0.99444 0.04687 0.57178 0.0
H190 H 0.11723 0.03789 0.52466 0.0
H191 H 0.08025 0.11558 0.5209 0.0
H192 H 0.90852 0.98593 0.50683 0.0
H193 H 0.94638 0.90884 0.51043 0.0
C194 C 0.49112 0.47651 0.95588 0.0
N195 N 0.55448 0.47477 0.02095 0.0
C196 C 0.55323 0.44636 0.01825 0.0
C197 C 0.5736 0.43082 0.01849 0.0
C198 C 0.59559 0.44457 0.02141 0.0
C199 C 0.59633 0.47395 0.02425 0.0
C200 C 0.57551 0.48867 0.02399 0.0
Zn201 Zn 0.524 0.49676 0.02017 0.0
C202 C 0.52678 0.5466 0.96807 0.0
N203 N 0.46004 0.54196 0.01829 0.0
C204 C 0.43898 0.52831 0.01374 0.0
C205 C 0.46141 0.57025 0.02303 0.0
C206 C 0.44112 0.58589 0.02365 0.0
C207 C 0.41911 0.57238 0.01923 0.0
C208 C 0.41823 0.54317 0.01402 0.0
Zn209 Zn 0.49048 0.51992 0.0189 0.0
O210 O 0.51118 0.47252 0.97136 0.0
C211 C 0.48755 0.47002 0.07068 0.0
O212 O 0.47842 0.49548 0.9699 0.0
H213 H 0.47829 0.58076 0.02645 0.0
H214 H 0.53637 0.43566 0.01592 0.0
H215 H 0.43825 0.50581 0.01014 0.0
O216 O 0.50855 0.46766 0.05968 0.0
O217 O 0.47564 0.49029 0.05795 0.0
H218 H 0.57616 0.51126 0.02606 0.0
O219 O 0.50307 0.54368 0.06812 0.0
O220 O 0.53618 0.52147 0.06907 0.0
O221 O 0.50593 0.54918 0.97971 0.0
O222 O 0.53869 0.52623 0.98052 0.0
C223 C 0.52316 0.53994 0.08356 0.0
H224 H 0.57207 0.40822 0.01685 0.0
H225 H 0.61284 0.48552 0.02605 0.0
H226 H 0.44268 0.60839 0.02718 0.0
H227 H 0.40166 0.53184 0.0109 0.0
C228 C 0.26284 0.17301 0.55565 0.0
C229 C 0.26858 0.19614 0.53194 0.0
C230 C 0.24126 0.15891 0.55087 0.0
C231 C 0.2248 0.16783 0.52245 0.0
C232 C 0.23076 0.19061 0.49829 0.0
C233 C 0.25235 0.20467 0.50304 0.0
C234 C 0.20156 0.15361 0.51638 0.0
C235 C 0.19092 0.13808 0.54427 0.0
C236 C 0.16785 0.12355 0.5381 0.0
C237 C 0.16255 0.10001 0.56119 0.0
C238 C 0.14115 0.08559 0.55643 0.0
C239 C 0.12439 0.09459 0.52874 0.0
H240 H 0.154 0.15143 0.49329 0.0
C241 C 0.12942 0.11852 0.50618 0.0
C242 C 0.15093 0.13288 0.51078 0.0
H243 H 0.11684 0.12595 0.48462 0.0
H244 H 0.27518 0.16554 0.57758 0.0
H245 H 0.23785 0.1408 0.56909 0.0
H246 H 0.21854 0.1978 0.47596 0.0
H247 H 0.25616 0.22256 0.4845 0.0
H248 H 0.19291 0.15644 0.4879 0.0
H249 H 0.1995 0.13522 0.57277 0.0
H250 H 0.17512 0.09257 0.58279 0.0
H251 H 0.13763 0.06752 0.57477 0.0
C252 C 0.26908 0.68459 0.02701 0.0
C253 C 0.26086 0.6958 0.99112 0.0
C254 C 0.28836 0.6671 0.02784 0.0
C255 C 0.29995 0.66048 0.99272 0.0
C256 C 0.29153 0.67137 0.95689 0.0
C257 C 0.27236 0.68891 0.95608 0.0
C258 C 0.32048 0.64189 0.99191 0.0
C259 C 0.33501 0.63805 0.02317 0.0
C260 C 0.35622 0.62061 0.02153 0.0
C261 C 0.37473 0.62625 0.04847 0.0
C262 C 0.39505 0.61063 0.04774 0.0
C263 C 0.39729 0.58871 0.02027 0.0
H264 H 0.34415 0.59273 0.97393 0.0
C265 C 0.37856 0.58262 0.99383 0.0
C266 C 0.35825 0.59835 0.99444 0.0
H267 H 0.3797 0.5659 0.97226 0.0
H268 H 0.2604 0.68899 0.05446 0.0
H269 H 0.2938 0.65847 0.05593 0.0
H270 H 0.30001 0.66658 0.92936 0.0
H271 H 0.26679 0.69742 0.92794 0.0
H272 H 0.3245 0.63248 0.96363 0.0
H273 H 0.33224 0.6495 0.05044 0.0
H274 H 0.37357 0.64302 0.06999 0.0
H275 H 0.40895 0.61558 0.069 0.0
C276 C 0.76599 0.8432 0.48453 0.0
C277 C 0.76185 0.81963 0.50829 0.0
C278 C 0.78676 0.85906 0.48881 0.0
C279 C 0.80398 0.85151 0.51679 0.0
C280 C 0.79955 0.82837 0.54115 0.0
C281 C 0.77878 0.81254 0.53689 0.0
C282 C 0.82656 0.86735 0.52193 0.0
C283 C 0.83615 0.88332 0.49346 0.0
C284 C 0.85889 0.8988 0.49835 0.0
C285 C 0.86318 0.92235 0.47472 0.0
C286 C 0.88437 0.9374 0.47798 0.0
C287 C 0.90191 0.92904 0.5047 0.0
H288 H 0.87428 0.87166 0.54266 0.0
C289 C 0.89782 0.90519 0.52793 0.0
C290 C 0.87655 0.8902 0.52481 0.0
H291 H 0.91099 0.89825 0.54882 0.0
H292 H 0.75305 0.84957 0.46284 0.0
H293 H 0.78898 0.87735 0.47048 0.0
H294 H 0.81239 0.8222 0.56315 0.0
H295 H 0.77621 0.79438 0.55546 0.0
H296 H 0.83574 0.86515 0.55007 0.0
H297 H 0.82702 0.88561 0.46532 0.0
H298 H 0.85002 0.92924 0.45376 0.0
H299 H 0.88714 0.9554 0.45918 0.0
C300 C 0.74431 0.32872 0.02631 0.0
C301 C 0.75184 0.31752 0.99028 0.0
C302 C 0.72383 0.34415 0.02784 0.0
C303 C 0.71041 0.34884 0.99323 0.0
C304 C 0.7179 0.33742 0.95741 0.0
C305 C 0.7383 0.32204 0.95589 0.0
C306 C 0.68818 0.36456 0.99297 0.0
C307 C 0.68155 0.3818 0.02225 0.0
C308 C 0.65932 0.39755 0.02108 0.0
C309 C 0.65734 0.42115 0.04564 0.0
C310 C 0.63679 0.43642 0.0457 0.0
C311 C 0.61756 0.42837 0.02133 0.0
H312 H 0.6403 0.37078 0.97853 0.0
C313 C 0.61943 0.40457 0.99705 0.0
C314 C 0.63995 0.38927 0.99704 0.0
H315 H 0.60506 0.3978 0.97771 0.0
H316 H 0.75433 0.32573 0.05336 0.0
H317 H 0.71852 0.35189 0.05631 0.0
H318 H 0.70788 0.34034 0.93032 0.0
H319 H 0.74324 0.31327 0.92775 0.0
H320 H 0.67733 0.36256 0.96642 0.0
H321 H 0.69319 0.38569 0.04745 0.0
H322 H 0.6718 0.42788 0.06484 0.0
H323 H 0.63589 0.45432 0.06532 0.0
C324 C 0.11477 0.85383 0.26132 0.0
C325 C 0.10327 0.8462 0.22561 0.0
C326 C 0.10302 0.86806 0.29092 0.0
C327 C 0.07946 0.87523 0.28542 0.0
C328 C 0.0678 0.86689 0.25023 0.0
C329 C 0.07956 0.85269 0.2206 0.0
C330 C 0.0665 0.89112 0.31571 0.0
C331 C 0.07716 0.90871 0.34208 0.0
C332 C 0.06465 0.926 0.37136 0.0
C333 C 0.07651 0.94943 0.38799 0.0
C334 C 0.0658 0.96624 0.41589 0.0
C335 C 0.04294 0.95995 0.42823 0.0
H336 H 0.03222 0.90124 0.37264 0.0
C337 C 0.03105 0.93635 0.41195 0.0
C338 C 0.04178 0.91951 0.38385 0.0
H339 H 0.01348 0.9308 0.42104 0.0
H340 H 0.13304 0.84926 0.26619 0.0
H341 H 0.11249 0.87321 0.31808 0.0
H342 H 0.04958 0.87176 0.24535 0.0
H343 H 0.07003 0.84668 0.19378 0.0
H344 H 0.04754 0.88957 0.3143 0.0
H345 H 0.09598 0.91199 0.34089 0.0
H346 H 0.09416 0.95488 0.37923 0.0
H347 H 0.07556 0.98416 0.42789 0.0
C348 C 0.58959 0.66702 0.7451 0.0
C349 C 0.61334 0.67533 0.74493 0.0
C350 C 0.58052 0.65157 0.77653 0.0
C351 C 0.595 0.64427 0.8088 0.0
C352 C 0.61866 0.65282 0.80873 0.0
C353 C 0.62773 0.66822 0.77727 0.0
C354 C 0.58653 0.62645 0.8418 0.0
C355 C 0.56379 0.62283 0.85079 0.0
C356 C 0.55531 0.60374 0.88236 0.0
C357 C 0.53293 0.60755 0.89754 0.0
C358 C 0.52381 0.5893 0.92582 0.0
C359 C 0.53684 0.56665 0.93942 0.0
H360 H 0.58539 0.57673 0.88433 0.0
C361 C 0.55929 0.56284 0.92441 0.0
C362 C 0.56839 0.58107 0.89607 0.0
H363 H 0.56971 0.54545 0.934 0.0
H364 H 0.57799 0.67229 0.72075 0.0
H365 H 0.56235 0.64484 0.77469 0.0
H366 H 0.63029 0.64727 0.83292 0.0
H367 H 0.64619 0.67386 0.77782 0.0
H368 H 0.59976 0.61646 0.85982 0.0
H369 H 0.5507 0.63479 0.83519 0.0
H370 H 0.52238 0.62466 0.88732 0.0
H371 H 0.50643 0.59281 0.9367 0.0
C372 C 0.92311 0.14391 0.21733 0.0
C373 C 0.91941 0.17286 0.21895 0.0
C374 C 0.93525 0.1306 0.24783 0.0
C375 C 0.94391 0.1459 0.28091 0.0
C376 C 0.94077 0.17493 0.28201 0.0
C377 C 0.92854 0.18824 0.25155 0.0
C378 C 0.95641 0.13229 0.31444 0.0
C379 C 0.95224 0.10541 0.32461 0.0
C380 C 0.96358 0.09133 0.35886 0.0
C381 C 0.95244 0.06741 0.37433 0.0
C382 C 0.96251 0.05287 0.4057 0.0
C383 C 0.9842 0.06168 0.42229 0.0
H384 H 0.99476 0.11823 0.36378 0.0
C385 C 0.9955 0.0856 0.40685 0.0
C386 C 0.98531 0.1003 0.37543 0.0
H387 H 0.01229 0.09285 0.4188 0.0
H388 H 0.91627 0.13139 0.19274 0.0
H389 H 0.93792 0.10835 0.24516 0.0
H390 H 0.9475 0.18731 0.30684 0.0
H391 H 0.92636 0.21064 0.25343 0.0
H392 H 0.96816 0.14535 0.33261 0.0
H393 H 0.93884 0.09332 0.30843 0.0
H394 H 0.93579 0.05989 0.3621 0.0
H395 H 0.9533 0.03451 0.4167 0.0
C396 C 0.43346 0.37221 0.70768 0.0
C397 C 0.44973 0.35746 0.68562 0.0
C398 C 0.44024 0.38574 0.74295 0.0
C399 C 0.4635 0.38461 0.75721 0.0
C400 C 0.47965 0.36959 0.73525 0.0
C401 C 0.47288 0.35616 0.69991 0.0
C402 C 0.472 0.3997 0.79359 0.0
C403 C 0.45794 0.41063 0.82097 0.0
C404 C 0.46689 0.42692 0.85589 0.0
C405 C 0.45242 0.44678 0.87291 0.0
C406 C 0.46025 0.4629 0.90536 0.0
C407 C 0.4827 0.45926 0.92178 0.0
H408 H 0.50059 0.40712 0.86151 0.0
C409 C 0.49701 0.43893 0.90534 0.0
C410 C 0.4892 0.42288 0.87282 0.0
H411 H 0.51431 0.43538 0.91758 0.0
H412 H 0.41559 0.37404 0.69705 0.0
H413 H 0.42723 0.3976 0.75798 0.0
H414 H 0.49768 0.36837 0.74534 0.0
H415 H 0.48578 0.34476 0.68374 0.0
H416 H 0.49082 0.40225 0.79739 0.0
H417 H 0.43912 0.40865 0.81741 0.0
H418 H 0.43507 0.45014 0.86073 0.0
H419 H 0.44871 0.47823 0.91748 0.0
C420 C 0.57294 0.62512 0.34725 0.0
C421 C 0.59089 0.64573 0.35022 0.0
C422 C 0.56657 0.61324 0.31067 0.0
C423 C 0.57807 0.62164 0.27613 0.0
C424 C 0.59613 0.64199 0.27903 0.0
C425 C 0.60235 0.6541 0.31558 0.0
C426 C 0.57224 0.60863 0.23711 0.0
C427 C 0.55053 0.59919 0.22729 0.0
C428 C 0.54448 0.58525 0.18901 0.0
C429 C 0.5215 0.58664 0.17416 0.0
C430 C 0.51476 0.57251 0.13938 0.0
C431 C 0.5308 0.55621 0.11904 0.0
H432 H 0.5784 0.56715 0.17951 0.0
C433 C 0.55387 0.55486 0.13378 0.0
C434 C 0.56068 0.56928 0.16839 0.0
H435 H 0.56661 0.54239 0.11887 0.0
H436 H 0.56412 0.61761 0.37335 0.0
H437 H 0.55309 0.59694 0.30976 0.0
H438 H 0.60534 0.6487 0.25287 0.0
H439 H 0.61608 0.67013 0.31661 0.0
H440 H 0.58602 0.60784 0.21548 0.0
H441 H 0.53632 0.60262 0.24751 0.0
H442 H 0.50865 0.59862 0.18964 0.0
H443 H 0.49682 0.5739 0.12893 0.0
C444 C 0.94033 0.15868 0.81017 0.0
C445 C 0.91892 0.15096 0.8273 0.0
C446 C 0.94698 0.14681 0.77431 0.0
C447 C 0.93245 0.12663 0.75484 0.0
C448 C 0.91073 0.11964 0.77139 0.0
C449 C 0.90405 0.13159 0.80719 0.0
C450 C 0.93915 0.11235 0.71747 0.0
C451 C 0.96138 0.11082 0.70502 0.0
C452 C 0.96845 0.0952 0.66903 0.0
C453 C 0.99033 0.10166 0.65273 0.0
C454 C 0.99848 0.08647 0.62058 0.0
C455 C 0.985 0.06419 0.60406 0.0
H456 H 0.9381 0.06688 0.66426 0.0
C457 C 0.96296 0.05788 0.61996 0.0
C458 C 0.95477 0.07314 0.65212 0.0
H459 H 0.95219 0.04073 0.6081 0.0
H460 H 0.95196 0.17402 0.82446 0.0
H461 H 0.96344 0.15376 0.76208 0.0
H462 H 0.89905 0.10437 0.75702 0.0
H463 H 0.8875 0.12504 0.81966 0.0
H464 H 0.92516 0.10201 0.70042 0.0
H465 H 0.9754 0.12117 0.72196 0.0
H466 H 1.00133 0.1184 0.66519 0.0
H467 H 0.01556 0.0919 0.60917 0.0
C468 C 0.41325 0.33299 0.26405 0.0
C469 C 0.42701 0.32451 0.29647 0.0
C470 C 0.42322 0.34833 0.23331 0.0
C471 C 0.44719 0.35582 0.23451 0.0
C472 C 0.46109 0.34638 0.26611 0.0
C473 C 0.45113 0.33099 0.29681 0.0
C474 C 0.45831 0.3735 0.20366 0.0
C475 C 0.44635 0.39156 0.18103 0.0
C476 C 0.45742 0.41095 0.15216 0.0
C477 C 0.44488 0.43423 0.1395 0.0
C478 C 0.45459 0.45331 0.11293 0.0
C479 C 0.47712 0.44952 0.09827 0.0
H480 H 0.48981 0.38872 0.1446 0.0
C481 C 0.48956 0.42597 0.11031 0.0
C482 C 0.47979 0.4068 0.13678 0.0
H483 H 0.50684 0.42225 0.09916 0.0
H484 H 0.39461 0.32843 0.26286 0.0
H485 H 0.41201 0.35426 0.20883 0.0
H486 H 0.47965 0.35145 0.26753 0.0
H487 H 0.46231 0.3243 0.32095 0.0
H488 H 0.47721 0.37297 0.20187 0.0
H489 H 0.42774 0.39371 0.18546 0.0
H490 H 0.42755 0.43787 0.15053 0.0
H491 H 0.44448 0.47116 0.10414 0.0
C492 C 0.09485 0.86957 0.80986 0.0
C493 C 0.1045 0.88575 0.84126 0.0
C494 C 0.08816 0.8822 0.77426 0.0
C495 C 0.09096 0.91134 0.76937 0.0
C496 C 0.10128 0.92726 0.80035 0.0
C497 C 0.10788 0.91469 0.83588 0.0
C498 C 0.08364 0.92603 0.7326 0.0
C499 C 0.06718 0.91595 0.70682 0.0
C500 C 0.05867 0.93191 0.67188 0.0
C501 C 0.03636 0.92533 0.65585 0.0
C502 C 0.02735 0.94041 0.62395 0.0
C503 C 0.04054 0.96236 0.60712 0.0
H504 H 0.08975 0.95848 0.66461 0.0
C505 C 0.06314 0.96845 0.62236 0.0
C506 C 0.07216 0.95335 0.65423 0.0
H507 H 0.0739 0.98499 0.60977 0.0
H508 H 0.09204 0.84722 0.81306 0.0
H509 H 0.08094 0.869 0.75076 0.0
H510 H 0.10397 0.94966 0.79732 0.0
H511 H 0.11567 0.92769 0.85918 0.0
H512 H 0.09099 0.94693 0.72837 0.0
H513 H 0.05831 0.89613 0.71285 0.0
H514 H 0.02566 0.90876 0.66851 0.0
H515 H 0.00993 0.93504 0.6128 0.0
loop_
_geom_bond_atom_site_label_1
_geom_bond_atom_site_label_2
_geom_bond_distance
_geom_bond_site_symmetry_2
_ccdc_geom_bond_type
C0 C1 1.264 . S
C0 C5 1.479 . S
C0 C10 1.465 . S
C1 C0 1.264 . S
C1 C3 1.339 . S
C1 H28 0.931 . S
C2 C3 1.395 . S
C2 C4 1.320 . S
C3 C1 1.339 . S
C3 C2 1.395 . S
C3 H29 0.929 . S
C4 C2 1.320 . S
C4 C5 1.405 . S
C4 H30 0.930 . S
C5 C0 1.479 . S
C5 C4 1.405 . S
C5 H31 0.931 . S
U6 O7 2.454 . S
U6 O8 2.458 1_554 S
U6 C9 2.984 . S
U6 C10 2.847 . S
U6 C23 2.882 1_554 S
U6 O24 2.441 . S
U6 O25 2.420 . S
U6 O26 2.455 1_554 S
U6 O27 2.449 1_554 S
O7 U6 2.454 . S
O7 C9 1.353 . S
O8 U6 2.458 1_556 S
O8 C9 1.286 1_556 S
C9 U6 2.984 . S
C9 O7 1.353 . S
C9 O8 1.286 1_554 S
C9 C11 1.363 . S
C10 C0 1.465 . S
C10 U6 2.847 . S
C10 O24 1.249 . S
C10 O25 1.202 . S
C11 C9 1.363 . S
C11 C13 1.408 . S
C11 C16 1.342 1_554 S
C12 C13 1.310 . S
C12 C15 1.461 . S
C12 H32 0.932 . S
C13 C11 1.408 . S
C13 C12 1.310 . S
C13 H33 0.930 . S
C14 C15 1.474 1_556 S
C14 C16 1.285 . S
C14 H34 0.929 . S
C15 C12 1.461 . S
C15 C14 1.474 1_554 S
C16 C11 1.342 1_556 S
C16 C14 1.285 . S
C16 H35 0.930 . S
C17 C20 1.424 . S
C17 C22 1.245 . S
C17 C23 1.428 . S
C18 C21 1.260 . S
C18 C22 1.477 . S
C18 H36 0.932 . S
C19 C20 1.384 . S
C19 C21 1.479 . S
C19 H37 0.929 . S
C20 C17 1.424 . S
C20 C19 1.384 . S
C20 H38 0.928 . S
C21 C18 1.260 . S
C21 C19 1.479 . S
C22 C17 1.245 . S
C22 C18 1.477 . S
C22 H39 0.932 . S
C23 U6 2.882 1_556 S
C23 C17 1.428 . S
C23 O26 1.301 . S
C23 O27 1.282 . S
O24 U6 2.441 . S
O24 C10 1.249 . S
O25 U6 2.420 . S
O25 C10 1.202 . S
O26 U6 2.455 1_556 S
O26 C23 1.301 . S
O27 U6 2.449 1_556 S
O27 C23 1.282 . S
H28 C1 0.931 . S
H29 C3 0.929 . S
H30 C4 0.930 . S
H31 C5 0.931 . S
H32 C12 0.932 . S
H33 C13 0.930 . S
H34 C14 0.929 . S
H35 C16 0.930 . S
H36 C18 0.932 . S
H37 C19 0.929 . S
H38 C20 0.928 . S
H39 C22 0.932 . S
C40 C41 1.264 . S
C40 C45 1.479 . S
C40 C50 1.465 . S
C41 C40 1.264 . S
C41 C43 1.339 . S
C41 H68 0.931 . S
C42 C43 1.395 . S
C42 C44 1.320 . S
C43 C41 1.339 . S
C43 C42 1.395 . S
C43 H69 0.929 . S
C44 C42 1.320 . S
C44 C45 1.405 . S
C44 H70 0.930 . S
C45 C40 1.479 . S
C45 C44 1.405 . S
C45 H71 0.931 . S
U46 O47 2.454 . S
U46 O48 2.458 . S
U46 C49 2.984 . S
U46 C50 2.847 . S
U46 C63 2.882 . S
U46 O64 2.441 . S
U46 O65 2.420 . S
U46 O66 2.455 . S
U46 O67 2.449 . S
O47 U46 2.454 . S
O47 C49 1.353 . S
O48 U46 2.458 . S
O48 C49 1.286 . S
C49 U46 2.984 . S
C49 O47 1.353 . S
C49 O48 1.286 . S
C49 C51 1.363 . S
C50 C40 1.465 . S
C50 U46 2.847 . S
C50 O64 1.249 . S
C50 O65 1.202 . S
C51 C49 1.363 . S
C51 C53 1.408 . S
C51 C56 1.342 . S
C52 C53 1.310 . S
C52 C55 1.461 . S
C52 H72 0.932 . S
C53 C51 1.408 . S
C53 C52 1.310 . S
C53 H73 0.930 . S
C54 C55 1.474 . S
C54 C56 1.285 . S
C54 H74 0.929 . S
C55 C52 1.461 . S
C55 C54 1.474 . S
C56 C51 1.342 . S
C56 C54 1.285 . S
C56 H75 0.930 . S
C57 C60 1.424 . S
C57 C62 1.245 . S
C57 C63 1.428 . S
C58 C61 1.260 . S
C58 C62 1.477 . S
C58 H76 0.932 . S
C59 C60 1.384 . S
C59 C61 1.479 . S
C59 H77 0.929 . S
C60 C57 1.424 . S
C60 C59 1.384 . S
C60 H78 0.928 . S
C61 C58 1.260 . S
C61 C59 1.479 . S
C62 C57 1.245 . S
C62 C58 1.477 . S
C62 H79 0.932 . S
C63 U46 2.882 . S
C63 C57 1.428 . S
C63 O66 1.301 . S
C63 O67 1.282 . S
O64 U46 2.441 . S
O64 C50 1.249 . S
O65 U46 2.420 . S
O65 C50 1.202 . S
O66 U46 2.455 . S
O66 C63 1.301 . S
O67 U46 2.449 . S
O67 C63 1.282 . S
H68 C41 0.931 . S
H69 C43 0.929 . S
H70 C44 0.930 . S
H71 C45 0.931 . S
H72 C52 0.932 . S
H73 C53 0.930 . S
H74 C54 0.929 . S
H75 C56 0.930 . S
H76 C58 0.932 . S
H77 C59 0.929 . S
H78 C60 0.928 . S
H79 C62 0.932 . S
C80 C81 1.264 . S
C80 C85 1.479 . S
C80 C90 1.465 . S
C81 C80 1.264 . S
C81 C83 1.339 . S
C81 H108 0.931 . S
C82 C83 1.395 . S
C82 C84 1.320 . S
C83 C81 1.339 . S
C83 C82 1.395 . S
C83 H109 0.929 . S
C84 C82 1.320 . S
C84 C85 1.405 . S
C84 H110 0.930 . S
C85 C80 1.479 . S
C85 C84 1.405 . S
C85 H111 0.931 . S
U86 O87 2.454 . S
U86 O88 2.458 1_554 S
U86 C89 2.984 . S
U86 C90 2.847 . S
U86 C103 2.882 1_554 S
U86 O104 2.441 . S
U86 O105 2.420 . S
U86 O106 2.455 1_554 S
U86 O107 2.449 1_554 S
O87 U86 2.454 . S
O87 C89 1.353 . S
O88 U86 2.458 1_556 S
O88 C89 1.286 1_556 S
C89 U86 2.984 . S
C89 O87 1.353 . S
C89 O88 1.286 1_554 S
C89 C91 1.363 . S
C90 C80 1.465 . S
C90 U86 2.847 . S
C90 O104 1.249 . S
C90 O105 1.202 . S
C91 C89 1.363 . S
C91 C93 1.408 . S
C91 C96 1.342 1_554 S
C92 C93 1.310 . S
C92 C95 1.461 . S
C92 H112 0.932 . S
C93 C91 1.408 . S
C93 C92 1.310 . S
C93 H113 0.930 . S
C94 C95 1.474 1_556 S
C94 C96 1.285 . S
C94 H114 0.929 . S
C95 C92 1.461 . S
C95 C94 1.474 1_554 S
C96 C91 1.342 1_556 S
C96 C94 1.285 . S
C96 H115 0.930 . S
C97 C100 1.424 . S
C97 C102 1.245 . S
C97 C103 1.428 . S
C98 C101 1.260 . S
C98 C102 1.477 . S
C98 H116 0.932 . S
C99 C100 1.384 . S
C99 C101 1.479 . S
C99 H117 0.929 . S
C100 C97 1.424 . S
C100 C99 1.384 . S
C100 H118 0.928 . S
C101 C98 1.260 . S
C101 C99 1.479 . S
C102 C97 1.245 . S
C102 C98 1.477 . S
C102 H119 0.932 . S
C103 U86 2.882 1_556 S
C103 C97 1.428 . S
C103 O106 1.301 . S
C103 O107 1.282 . S
O104 U86 2.441 . S
O104 C90 1.249 . S
O105 U86 2.420 . S
O105 C90 1.202 . S
O106 U86 2.455 1_556 S
O106 C103 1.301 . S
O107 U86 2.449 1_556 S
O107 C103 1.282 . S
H108 C81 0.931 . S
H109 C83 0.929 . S
H110 C84 0.930 . S
H111 C85 0.931 . S
H112 C92 0.932 . S
H113 C93 0.930 . S
H114 C94 0.929 . S
H115 C96 0.930 . S
H116 C98 0.932 . S
H117 C99 0.929 . S
H118 C100 0.928 . S
H119 C102 0.932 . S
C120 C121 1.264 . S
C120 C125 1.479 . S
C120 C130 1.465 . S
C121 C120 1.264 . S
C121 C123 1.339 . S
C121 H148 0.931 . S
C122 C123 1.395 . S
C122 C124 1.320 . S
C123 C121 1.339 . S
C123 C122 1.395 . S
C123 H149 0.929 . S
C124 C122 1.320 . S
C124 C125 1.405 . S
C124 H150 0.930 . S
C125 C120 1.479 . S
C125 C124 1.405 . S
C125 H151 0.931 . S
U126 O127 2.454 . S
U126 O128 2.458 . S
U126 C129 2.984 . S
U126 C130 2.847 . S
U126 C143 2.882 . S
U126 O144 2.441 . S
U126 O145 2.420 . S
U126 O146 2.455 . S
U126 O147 2.449 . S
O127 U126 2.454 . S
O127 C129 1.353 . S
O128 U126 2.458 . S
O128 C129 1.286 . S
C129 U126 2.984 . S
C129 O127 1.353 . S
C129 O128 1.286 . S
C129 C131 1.363 . S
C130 C120 1.465 . S
C130 U126 2.847 . S
C130 O144 1.249 . S
C130 O145 1.202 . S
C131 C129 1.363 . S
C131 C133 1.408 . S
C131 C136 1.342 . S
C132 C133 1.310 . S
C132 C135 1.461 . S
C132 H152 0.932 . S
C133 C131 1.408 . S
C133 C132 1.310 . S
C133 H153 0.930 . S
C134 C135 1.474 . S
C134 C136 1.285 . S
C134 H154 0.929 . S
C135 C132 1.461 . S
C135 C134 1.474 . S
C136 C131 1.342 . S
C136 C134 1.285 . S
C136 H155 0.930 . S
C137 C140 1.424 . S
C137 C142 1.245 . S
C137 C143 1.428 . S
C138 C141 1.260 . S
C138 C142 1.477 . S
C138 H156 0.932 . S
C139 C140 1.384 . S
C139 C141 1.479 . S
C139 H157 0.929 . S
C140 C137 1.424 . S
C140 C139 1.384 . S
C140 H158 0.928 . S
C141 C138 1.260 . S
C141 C139 1.479 . S
C142 C137 1.245 . S
C142 C138 1.477 . S
C142 H159 0.932 . S
C143 U126 2.882 . S
C143 C137 1.428 . S
C143 O146 1.301 . S
C143 O147 1.282 . S
O144 U126 2.441 . S
O144 C130 1.249 . S
O145 U126 2.420 . S
O145 C130 1.202 . S
O146 U126 2.455 . S
O146 C143 1.301 . S
O147 U126 2.449 . S
O147 C143 1.282 . S
H148 C121 0.931 . S
H149 C123 0.929 . S
H150 C124 0.930 . S
H151 C125 0.931 . S
H152 C132 0.932 . S
H153 C133 0.930 . S
H154 C134 0.929 . S
H155 C136 0.930 . S
H156 C138 0.932 . S
H157 C139 0.929 . S
H158 C140 0.928 . S
H159 C142 0.932 . S
C160 O176 1.251 . S
C160 O178 1.283 . S
N161 C162 1.333 . S
N161 C166 1.307 . S
N161 Zn167 2.020 . S
C162 N161 1.333 . S
C162 C163 1.379 . S
C162 H180 0.952 . S
C163 C162 1.379 . S
C163 C164 1.390 . S
C163 H190 0.949 . S
C164 C163 1.390 . S
C164 C165 1.357 . S
C165 C164 1.357 . S
C165 C166 1.370 . S
C165 H191 0.950 . S
C166 N161 1.307 . S
C166 C165 1.370 . S
C166 H184 0.948 . S
Zn167 N161 2.020 . S
Zn167 O176 2.039 1_545 S
Zn167 O182 2.034 1_545 S
Zn167 O186 2.025 . S
Zn167 O188 2.024 . S
C168 O187 1.246 . S
C168 O188 1.249 1_655 S
N169 C170 1.307 . S
N169 C171 1.333 . S
N169 Zn175 2.020 . S
C170 N169 1.307 . S
C170 C174 1.370 . S
C170 H181 0.948 . S
C171 N169 1.333 . S
C171 C172 1.379 . S
C171 H179 0.920 1_565 S
C172 C171 1.379 . S
C172 C173 1.390 . S
C172 H192 0.949 . S
C173 C172 1.390 . S
C173 C174 1.357 . S
C174 C170 1.370 . S
C174 C173 1.357 . S
C174 H193 0.950 . S
Zn175 N169 2.020 . S
Zn175 O178 2.010 1_655 S
Zn175 O183 2.018 1_655 S
Zn175 O185 2.039 1_565 S
Zn175 O187 2.034 1_565 S
O176 C160 1.251 . S
O176 Zn167 2.039 1_565 S
C177 O182 1.246 . S
C177 O183 1.262 . S
O178 C160 1.283 . S
O178 Zn175 2.010 1_455 S
H179 C171 0.920 1_545 S
H180 C162 0.952 . S
H181 C170 0.948 . S
O182 Zn167 2.034 1_565 S
O182 C177 1.246 . S
O183 Zn175 2.018 1_455 S
O183 C177 1.262 . S
H184 C166 0.948 . S
O185 Zn175 2.039 1_545 S
O185 C189 1.251 . S
O186 Zn167 2.025 . S
O186 C189 1.254 1_455 S
O187 C168 1.246 . S
O187 Zn175 2.034 1_545 S
O188 Zn167 2.024 . S
O188 C168 1.249 1_455 S
C189 O185 1.251 . S
C189 O186 1.254 1_655 S
H190 C163 0.949 . S
H191 C165 0.950 . S
H192 C172 0.949 . S
H193 C174 0.950 . S
C194 O210 1.251 . S
C194 O212 1.254 . S
N195 C196 1.341 . S
N195 C200 1.307 . S
N195 Zn201 2.020 . S
C196 N195 1.341 . S
C196 C197 1.379 1_554 S
C196 H214 0.944 1_554 S
C197 C196 1.379 1_556 S
C197 C198 1.389 1_556 S
C197 H224 0.950 . S
C198 C197 1.389 1_554 S
C198 C199 1.357 . S
C199 C198 1.357 . S
C199 C200 1.370 . S
C199 H225 0.950 . S
C200 N195 1.307 . S
C200 C199 1.370 . S
C200 H218 0.948 . S
Zn201 N195 2.020 . S
Zn201 O210 2.039 1_554 S
Zn201 O216 2.034 . S
Zn201 O220 2.025 . S
Zn201 O222 2.024 1_554 S
C202 O221 1.246 . S
C202 O222 1.249 . S
N203 C204 1.307 . S
N203 C205 1.333 . S
N203 Zn209 2.020 . S
C204 N203 1.307 . S
C204 C208 1.370 . S
C204 H215 0.948 1_554 S
C205 N203 1.333 . S
C205 C206 1.379 . S
C205 H213 0.952 . S
C206 C205 1.379 . S
C206 C207 1.390 . S
C206 H226 0.949 . S
C207 C206 1.390 . S
C207 C208 1.357 . S
C208 C204 1.370 . S
C208 C207 1.357 . S
C208 H227 0.950 1_554 S
Zn209 N203 2.020 . S
Zn209 O212 2.025 1_554 S
Zn209 O217 2.024 . S
Zn209 O219 2.039 . S
Zn209 O221 2.034 1_554 S
O210 C194 1.251 . S
O210 Zn201 2.039 1_556 S
C211 O216 1.246 . S
C211 O217 1.249 . S
O212 C194 1.254 . S
O212 Zn209 2.025 1_556 S
H213 C205 0.952 . S
H214 C196 0.944 1_556 S
H215 C204 0.948 1_556 S
O216 Zn201 2.034 . S
O216 C211 1.246 . S
O217 Zn209 2.024 . S
O217 C211 1.249 . S
H218 C200 0.948 . S
O219 Zn209 2.039 . S
O219 C223 1.251 . S
O220 Zn201 2.025 . S
O220 C223 1.254 . S
O221 C202 1.246 . S
O221 Zn209 2.034 1_556 S
O222 Zn201 2.024 1_556 S
O222 C202 1.249 . S
C223 O219 1.251 . S
C223 O220 1.254 . S
H224 C197 0.950 . S
H225 C199 0.950 . S
H226 C206 0.949 . S
H227 C208 0.950 1_556 S
C228 C229 1.386 . S
C228 C230 1.383 . S
C228 H244 0.951 . S
C229 C228 1.386 . S
C229 C233 1.383 . S
C230 C228 1.383 . S
C230 C231 1.402 . S
C230 H245 0.951 . S
C231 C230 1.402 . S
C231 C232 1.375 . S
C231 C234 1.481 . S
C232 C231 1.375 . S
C232 C233 1.367 . S
C232 H246 0.951 . S
C233 C229 1.383 . S
C233 C232 1.367 . S
C233 H247 0.950 . S
C234 C231 1.481 . S
C234 C235 1.297 . S
C234 H248 0.950 . S
C235 C234 1.297 . S
C235 C236 1.479 . S
C235 H249 0.950 . S
C236 C235 1.479 . S
C236 C237 1.375 . S
C236 C242 1.404 . S
C237 C236 1.375 . S
C237 C238 1.369 . S
C237 H250 0.950 . S
C238 C237 1.369 . S
C238 C239 1.392 . S
C238 H251 0.951 . S
C239 C238 1.392 . S
C239 C241 1.384 . S
H240 C242 0.949 . S
C241 C239 1.384 . S
C241 C242 1.385 . S
C241 H243 0.950 . S
C242 C236 1.404 . S
C242 H240 0.949 . S
C242 C241 1.385 . S
H243 C241 0.950 . S
H244 C228 0.951 . S
H245 C230 0.951 . S
H246 C232 0.951 . S
H247 C233 0.950 . S
H248 C234 0.950 . S
H249 C235 0.950 . S
H250 C237 0.950 . S
H251 C238 0.951 . S
C252 C253 1.386 . S
C252 C254 1.383 . S
C252 H268 0.951 . S
C253 C252 1.386 . S
C253 C257 1.383 1_554 S
C254 C252 1.383 . S
C254 C255 1.405 . S
C254 H269 0.951 . S
C255 C254 1.405 . S
C255 C256 1.372 1_554 S
C255 C258 1.480 1_554 S
C256 C255 1.372 1_556 S
C256 C257 1.367 . S
C256 H270 0.951 . S
C257 C253 1.383 1_556 S
C257 C256 1.367 . S
C257 H271 0.950 . S
C258 C255 1.480 1_556 S
C258 C259 1.297 1_556 S
C258 H272 0.950 . S
C259 C258 1.297 1_554 S
C259 C260 1.479 . S
C259 H273 0.950 . S
C260 C259 1.479 . S
C260 C261 1.375 . S
C260 C266 1.404 1_554 S
C261 C260 1.375 . S
C261 C262 1.369 . S
C261 H274 0.950 . S
C262 C261 1.369 . S
C262 C263 1.392 . S
C262 H275 0.951 . S
C263 C262 1.392 . S
C263 C265 1.384 1_554 S
H264 C266 0.949 . S
C265 C263 1.384 1_556 S
C265 C266 1.385 . S
C265 H267 0.950 . S
C266 C260 1.404 1_556 S
C266 H264 0.949 . S
C266 C265 1.385 . S
H267 C265 0.950 . S
H268 C252 0.951 . S
H269 C254 0.951 . S
H270 C256 0.951 . S
H271 C257 0.950 . S
H272 C258 0.950 . S
H273 C259 0.950 . S
H274 C261 0.950 . S
H275 C262 0.951 . S
C276 C277 1.386 . S
C276 C278 1.383 . S
C276 H292 0.951 . S
C277 C276 1.386 . S
C277 C281 1.383 . S
C278 C276 1.383 . S
C278 C279 1.402 . S
C278 H293 0.951 . S
C279 C278 1.402 . S
C279 C280 1.375 . S
C279 C282 1.481 . S
C280 C279 1.375 . S
C280 C281 1.367 . S
C280 H294 0.951 . S
C281 C277 1.383 . S
C281 C280 1.367 . S
C281 H295 0.950 . S
C282 C279 1.481 . S
C282 C283 1.297 . S
C282 H296 0.950 . S
C283 C282 1.297 . S
C283 C284 1.479 . S
C283 H297 0.950 . S
C284 C283 1.479 . S
C284 C285 1.375 . S
C284 C290 1.404 . S
C285 C284 1.375 . S
C285 C286 1.369 . S
C285 H298 0.950 . S
C286 C285 1.369 . S
C286 C287 1.392 . S
C286 H299 0.951 . S
C287 C286 1.392 . S
C287 C289 1.384 . S
H288 C290 0.949 . S
C289 C287 1.384 . S
C289 C290 1.385 . S
C289 H291 0.950 . S
C290 C284 1.404 . S
C290 H288 0.949 . S
C290 C289 1.385 . S
H291 C289 0.950 . S
H292 C276 0.951 . S
H293 C278 0.951 . S
H294 C280 0.951 . S
H295 C281 0.950 . S
H296 C282 0.950 . S
H297 C283 0.950 . S
H298 C285 0.950 . S
H299 C286 0.951 . S
C300 C301 1.386 . S
C300 C302 1.383 . S
C300 H316 0.951 . S
C301 C300 1.386 . S
C301 C305 1.383 1_554 S
C302 C300 1.383 . S
C302 C303 1.402 1_554 S
C302 H317 0.951 . S
C303 C302 1.402 1_556 S
C303 C304 1.375 . S
C303 C306 1.481 . S
C304 C303 1.375 . S
C304 C305 1.367 . S
C304 H318 0.951 . S
C305 C301 1.383 1_556 S
C305 C304 1.367 . S
C305 H319 0.950 . S
C306 C303 1.481 . S
C306 C307 1.297 1_556 S
C306 H320 0.950 . S
C307 C306 1.297 1_554 S
C307 C308 1.479 . S
C307 H321 0.950 . S
C308 C307 1.479 . S
C308 C309 1.375 . S
C308 C314 1.404 1_554 S
C309 C308 1.375 . S
C309 C310 1.369 . S
C309 H322 0.950 . S
C310 C309 1.369 . S
C310 C311 1.392 . S
C310 H323 0.951 . S
C311 C310 1.392 . S
C311 C313 1.384 1_554 S
H312 C314 0.949 . S
C313 C311 1.384 1_556 S
C313 C314 1.385 . S
C313 H315 0.950 . S
C314 C308 1.404 1_556 S
C314 H312 0.949 . S
C314 C313 1.385 . S
H315 C313 0.950 . S
H316 C300 0.951 . S
H317 C302 0.951 . S
H318 C304 0.951 . S
H319 C305 0.950 . S
H320 C306 0.950 . S
H321 C307 0.950 . S
H322 C309 0.950 . S
H323 C310 0.951 . S
C324 C325 1.386 . S
C324 C326 1.383 . S
C324 H340 0.951 . S
C325 C324 1.386 . S
C325 C329 1.383 . S
C326 C324 1.383 . S
C326 C327 1.402 . S
C326 H341 0.951 . S
C327 C326 1.402 . S
C327 C328 1.375 . S
C327 C330 1.481 . S
C328 C327 1.375 . S
C328 C329 1.367 . S
C328 H342 0.951 . S
C329 C325 1.383 . S
C329 C328 1.367 . S
C329 H343 0.950 . S
C330 C327 1.481 . S
C330 C331 1.297 . S
C330 H344 0.950 . S
C331 C330 1.297 . S
C331 C332 1.479 . S
C331 H345 0.950 . S
C332 C331 1.479 . S
C332 C333 1.375 . S
C332 C338 1.404 . S
C333 C332 1.375 . S
C333 C334 1.369 . S
C333 H346 0.950 . S
C334 C333 1.369 . S
C334 C335 1.392 . S
C334 H347 0.951 . S
C335 C334 1.392 . S
C335 C337 1.384 . S
H336 C338 0.949 . S
C337 C335 1.384 . S
C337 C338 1.385 . S
C337 H339 0.950 . S
C338 C332 1.404 . S
C338 H336 0.949 . S
C338 C337 1.385 . S
H339 C337 0.950 . S
H340 C324 0.951 . S
H341 C326 0.951 . S
H342 C328 0.951 . S
H343 C329 0.950 . S
H344 C330 0.950 . S
H345 C331 0.950 . S
H346 C333 0.950 . S
H347 C334 0.951 . S
C348 C349 1.386 . S
C348 C350 1.383 . S
C348 H364 0.951 . S
C349 C348 1.386 . S
C349 C353 1.383 . S
C350 C348 1.383 . S
C350 C351 1.402 . S
C350 H365 0.951 . S
C351 C350 1.402 . S
C351 C352 1.375 . S
C351 C354 1.481 . S
C352 C351 1.375 . S
C352 C353 1.367 . S
C352 H366 0.951 . S
C353 C349 1.383 . S
C353 C352 1.367 . S
C353 H367 0.950 . S
C354 C351 1.481 . S
C354 C355 1.297 . S
C354 H368 0.950 . S
C355 C354 1.297 . S
C355 C356 1.479 . S
C355 H369 0.950 . S
C356 C355 1.479 . S
C356 C357 1.375 . S
C356 C362 1.404 . S
C357 C356 1.375 . S
C357 C358 1.369 . S
C357 H370 0.950 . S
C358 C357 1.369 . S
C358 C359 1.392 . S
C358 H371 0.951 . S
C359 C358 1.392 . S
C359 C361 1.384 . S
H360 C362 0.949 . S
C361 C359 1.384 . S
C361 C362 1.385 . S
C361 H363 0.950 . S
C362 C356 1.404 . S
C362 H360 0.949 . S
C362 C361 1.385 . S
H363 C361 0.950 . S
H364 C348 0.951 . S
H365 C350 0.951 . S
H366 C352 0.951 . S
H367 C353 0.950 . S
H368 C354 0.950 . S
H369 C355 0.950 . S
H370 C357 0.950 . S
H371 C358 0.951 . S
C372 C373 1.386 . S
C372 C374 1.383 . S
C372 H388 0.951 . S
C373 C372 1.386 . S
C373 C377 1.383 . S
C374 C372 1.383 . S
C374 C375 1.402 . S
C374 H389 0.951 . S
C375 C374 1.402 . S
C375 C376 1.375 . S
C375 C378 1.481 . S
C376 C375 1.375 . S
C376 C377 1.367 . S
C376 H390 0.951 . S
C377 C373 1.383 . S
C377 C376 1.367 . S
C377 H391 0.950 . S
C378 C375 1.481 . S
C378 C379 1.297 . S
C378 H392 0.950 . S
C379 C378 1.297 . S
C379 C380 1.479 . S
C379 H393 0.950 . S
C380 C379 1.479 . S
C380 C381 1.375 . S
C380 C386 1.404 . S
C381 C380 1.375 . S
C381 C382 1.369 . S
C381 H394 0.950 . S
C382 C381 1.369 . S
C382 C383 1.392 . S
C382 H395 0.951 . S
C383 C382 1.392 . S
C383 C385 1.384 . S
H384 C386 0.949 1_455 S
C385 C383 1.384 . S
C385 C386 1.385 . S
C385 H387 0.950 1_655 S
C386 C380 1.404 . S
C386 H384 0.949 1_655 S
C386 C385 1.385 . S
H387 C385 0.950 1_455 S
H388 C372 0.951 . S
H389 C374 0.951 . S
H390 C376 0.951 . S
H391 C377 0.950 . S
H392 C378 0.950 . S
H393 C379 0.950 . S
H394 C381 0.950 . S
H395 C382 0.951 . S
C396 C397 1.386 . S
C396 C398 1.383 . S
C396 H412 0.951 . S
C397 C396 1.386 . S
C397 C401 1.383 . S
C398 C396 1.383 . S
C398 C399 1.402 . S
C398 H413 0.951 . S
C399 C398 1.402 . S
C399 C400 1.375 . S
C399 C402 1.481 . S
C400 C399 1.375 . S
C400 C401 1.367 . S
C400 H414 0.951 . S
C401 C397 1.383 . S
C401 C400 1.367 . S
C401 H415 0.950 . S
C402 C399 1.481 . S
C402 C403 1.297 . S
C402 H416 0.950 . S
C403 C402 1.297 . S
C403 C404 1.479 . S
C403 H417 0.950 . S
C404 C403 1.479 . S
C404 C405 1.375 . S
C404 C410 1.404 . S
C405 C404 1.375 . S
C405 C406 1.369 . S
C405 H418 0.950 . S
C406 C405 1.369 . S
C406 C407 1.392 . S
C406 H419 0.951 . S
C407 C406 1.392 . S
C407 C409 1.384 . S
H408 C410 0.949 . S
C409 C407 1.384 . S
C409 C410 1.385 . S
C409 H411 0.950 . S
C410 C404 1.404 . S
C410 H408 0.949 . S
C410 C409 1.385 . S
H411 C409 0.950 . S
H412 C396 0.951 . S
H413 C398 0.951 . S
H414 C400 0.951 . S
H415 C401 0.950 . S
H416 C402 0.950 . S
H417 C403 0.950 . S
H418 C405 0.950 . S
H419 C406 0.951 . S
C420 C421 1.386 . S
C420 C422 1.383 . S
C420 H436 0.951 . S
C421 C420 1.386 . S
C421 C425 1.383 . S
C422 C420 1.383 . S
C422 C423 1.402 . S
C422 H437 0.951 . S
C423 C422 1.402 . S
C423 C424 1.375 . S
C423 C426 1.481 . S
C424 C423 1.375 . S
C424 C425 1.367 . S
C424 H438 0.951 . S
C425 C421 1.383 . S
C425 C424 1.367 . S
C425 H439 0.950 . S
C426 C423 1.481 . S
C426 C427 1.297 . S
C426 H440 0.950 . S
C427 C426 1.297 . S
C427 C428 1.479 . S
C427 H441 0.950 . S
C428 C427 1.479 . S
C428 C429 1.375 . S
C428 C434 1.404 . S
C429 C428 1.375 . S
C429 C430 1.369 . S
C429 H442 0.950 . S
C430 C429 1.369 . S
C430 C431 1.392 . S
C430 H443 0.951 . S
C431 C430 1.392 . S
C431 C433 1.384 . S
H432 C434 0.949 . S
C433 C431 1.384 . S
C433 C434 1.385 . S
C433 H435 0.950 . S
C434 C428 1.404 . S
C434 H432 0.949 . S
C434 C433 1.385 . S
H435 C433 0.950 . S
H436 C420 0.951 . S
H437 C422 0.951 . S
H438 C424 0.951 . S
H439 C425 0.950 . S
H440 C426 0.950 . S
H441 C427 0.950 . S
H442 C429 0.950 . S
H443 C430 0.951 . S
C444 C445 1.386 . S
C444 C446 1.383 . S
C444 H460 0.951 . S
C445 C444 1.386 . S
C445 C449 1.383 . S
C446 C444 1.383 . S
C446 C447 1.402 . S
C446 H461 0.951 . S
C447 C446 1.402 . S
C447 C448 1.375 . S
C447 C450 1.481 . S
C448 C447 1.375 . S
C448 C449 1.367 . S
C448 H462 0.951 . S
C449 C445 1.383 . S
C449 C448 1.367 . S
C449 H463 0.950 . S
C450 C447 1.481 . S
C450 C451 1.297 . S
C450 H464 0.950 . S
C451 C450 1.297 . S
C451 C452 1.479 . S
C451 H465 0.950 . S
C452 C451 1.479 . S
C452 C453 1.375 . S
C452 C458 1.404 . S
C453 C452 1.375 . S
C453 C454 1.369 . S
C453 H466 0.950 1_655 S
C454 C453 1.369 . S
C454 C455 1.394 . S
C454 H467 0.948 1_655 S
C455 C454 1.394 . S
C455 C457 1.384 . S
H456 C458 0.949 . S
C457 C455 1.384 . S
C457 C458 1.385 . S
C457 H459 0.950 . S
C458 C452 1.404 . S
C458 H456 0.949 . S
C458 C457 1.385 . S
H459 C457 0.950 . S
H460 C444 0.951 . S
H461 C446 0.951 . S
H462 C448 0.951 . S
H463 C449 0.950 . S
H464 C450 0.950 . S
H465 C451 0.950 . S
H466 C453 0.950 1_455 S
H467 C454 0.948 1_455 S
C468 C469 1.386 . S
C468 C470 1.383 . S
C468 H484 0.951 . S
C469 C468 1.386 . S
C469 C473 1.383 . S
C470 C468 1.383 . S
C470 C471 1.402 . S
C470 H485 0.951 . S
C471 C470 1.402 . S
C471 C472 1.375 . S
C471 C474 1.481 . S
C472 C471 1.375 . S
C472 C473 1.367 . S
C472 H486 0.951 . S
C473 C469 1.383 . S
C473 C472 1.367 . S
C473 H487 0.950 . S
C474 C471 1.481 . S
C474 C475 1.297 . S
C474 H488 0.950 . S
C475 C474 1.297 . S
C475 C476 1.479 . S
C475 H489 0.950 . S
C476 C475 1.479 . S
C476 C477 1.375 . S
C476 C482 1.404 . S
C477 C476 1.375 . S
C477 C478 1.369 . S
C477 H490 0.950 . S
C478 C477 1.369 . S
C478 C479 1.392 . S
C478 H491 0.951 . S
C479 C478 1.392 . S
C479 C481 1.384 . S
H480 C482 0.949 . S
C481 C479 1.384 . S
C481 C482 1.385 . S
C481 H483 0.950 . S
C482 C476 1.404 . S
C482 H480 0.949 . S
C482 C481 1.385 . S
H483 C481 0.950 . S
H484 C468 0.951 . S
H485 C470 0.951 . S
H486 C472 0.951 . S
H487 C473 0.950 . S
H488 C474 0.950 . S
H489 C475 0.950 . S
H490 C477 0.950 . S
H491 C478 0.951 . S
C492 C493 1.386 . S
C492 C494 1.383 . S
C492 H508 0.951 . S
C493 C492 1.386 . S
C493 C497 1.383 . S
C494 C492 1.383 . S
C494 C495 1.402 . S
C494 H509 0.951 . S
C495 C494 1.402 . S
C495 C496 1.375 . S
C495 C498 1.481 . S
C496 C495 1.375 . S
C496 C497 1.367 . S
C496 H510 0.951 . S
C497 C493 1.383 . S
C497 C496 1.367 . S
C497 H511 0.950 . S
C498 C495 1.481 . S
C498 C499 1.297 . S
C498 H512 0.950 . S
C499 C498 1.297 . S
C499 C500 1.479 . S
C499 H513 0.950 . S
C500 C499 1.479 . S
C500 C501 1.375 . S
C500 C506 1.404 . S
C501 C500 1.375 . S
C501 C502 1.369 . S
C501 H514 0.950 . S
C502 C501 1.369 . S
C502 C503 1.392 . S
C502 H515 0.951 . S
C503 C502 1.392 . S
C503 C505 1.384 . S
H504 C506 0.949 . S
C505 C503 1.384 . S
C505 C506 1.385 . S
C505 H507 0.950 . S
C506 C500 1.404 . S
C506 H504 0.949 . S
C506 C505 1.385 . S
H507 C505 0.950 . S
H508 C492 0.951 . S
H509 C494 0.951 . S
H510 C496 0.951 . S
H511 C497 0.950 . S
H512 C498 0.950 . S
H513 C499 0.950 . S
H514 C501 0.950 . S
H515 C502 0.951 . S
C239 C164 1.669 . S
C229 C135 1.627 . S
C253 C15 1.576 . S
C263 C207 1.556 . S
C277 C55 1.646 . S
C287 C173 1.670 . S
C301 C95 1.581 . S
C311 C198 1.558 . S
C335 C160 1.630 . S
C325 C2 1.550 . S
C359 C202 1.746 . S
C349 C42 1.733 . S
C373 C82 1.578 . S
C383 C168 1.611 . S
C397 C141 1.664 . S
C407 C194 1.732 . S
C431 C223 1.743 . S
C421 C61 1.765 . S
C455 C189 1.665 . S
C445 C101 1.561 . S
C479 C211 1.773 . S
C469 C122 1.670 . S
C493 C21 1.570 . S
C503 C177 1.642 . S
