# Generated by pormake.
# Topology nia, (6,6)-cn, num edge types: 1
# Building blocks:
#     Node 0, Type 0, BuildingBlock: KUMBOL_clean_sbu_0, # of connection points: 6
#     Node 1, Type 0, BuildingBlock: KUMBOL_clean_sbu_0, # of connection points: 6
#     Node 2, Type 1, BuildingBlock: MIDCAF_clean_sbu_0, # of connection points: 6
#     Node 3, Type 1, BuildingBlock: MIDCAF_clean_sbu_0, # of connection points: 6
#     Edge 4, Type (0, 1), BuildingBlock: OJICUG_clean_linker_0, # of connection points: 2
#     Edge 5, Type (0, 1), BuildingBlock: OJICUG_clean_linker_0, # of connection points: 2
#     Edge 6, Type (0, 1), BuildingBlock: OJICUG_clean_linker_0, # of connection points: 2
#     Edge 7, Type (0, 1), BuildingBlock: OJICUG_clean_linker_0, # of connection points: 2
#     Edge 8, Type (0, 1), BuildingBlock: OJICUG_clean_linker_0, # of connection points: 2
#     Edge 9, Type (0, 1), BuildingBlock: OJICUG_clean_linker_0, # of connection points: 2
#     Edge 10, Type (0, 1), BuildingBlock: OJICUG_clean_linker_0, # of connection points: 2
#     Edge 11, Type (0, 1), BuildingBlock: OJICUG_clean_linker_0, # of connection points: 2
#     Edge 12, Type (0, 1), BuildingBlock: OJICUG_clean_linker_0, # of connection points: 2
#     Edge 13, Type (0, 1), BuildingBlock: OJICUG_clean_linker_0, # of connection points: 2
#     Edge 14, Type (0, 1), BuildingBlock: OJICUG_clean_linker_0, # of connection points: 2
#     Edge 15, Type (0, 1), BuildingBlock: OJICUG_clean_linker_0, # of connection points: 2
# Relax obj value: 0.176
# Max RMSD: 0.299
# Mean RMSD: 0.210
data_MOF--net-nia--node1-KUMBOL_clean_sbu_0--node2-MIDCAF_clean_sbu_0--edge1-OJICUG_clean_linker_0
_symmetry_space_group_name_H-M    P1
_symmetry_Int_Tables_number       1
_symmetry_cell_setting            triclinic
loop_
_symmetry_equiv_pos_as_xyz
'x, y, z'
_cell_length_a     22.33058
_cell_length_b     22.506542
_cell_length_c     23.146373
_cell_angle_alpha  89.69642
_cell_angle_beta   90.198957
_cell_angle_gamma 142.29675
loop_
_atom_site_label
_atom_site_type_symbol
_atom_site_fract_x
_atom_site_fract_y
_atom_site_fract_z
_atom_type_partial_charge
Gd0 Gd 0.96584 0.00662 0.98216 0.0
Gd1 Gd 0.0235 0.96537 0.11618 0.0
C2 C 0.76586 0.69435 0.21778 0.0
C3 C 0.71826 0.74165 0.27639 0.0
C4 C 0.89219 0.86918 0.23037 0.0
C5 C 0.85432 0.7909 0.20184 0.0
C6 C 0.8221 0.85025 0.27637 0.0
C7 C 0.69811 0.67139 0.25123 0.0
C8 C 0.74495 0.621 0.1967 0.0
C9 C 0.81325 0.64575 0.16198 0.0
N10 N 0.91038 0.8108 0.16005 0.0
C11 C 0.8969 0.74213 0.14422 0.0
H12 H 0.9465 0.75984 0.11433 0.0
C13 C 0.06262 0.04662 0.24263 0.0
N14 N -0.0118 0.95791 0.21399 0.0
C15 C 0.04982 0.08216 0.28594 0.0
C16 C 0.89783 0.98858 0.33123 0.0
H17 H 0.13522 0.10239 0.22464 0.0
H18 H 0.6254 0.59611 0.25741 0.0
H19 H 0.18825 0.25531 0.99213 0.0
H20 H 0.67754 0.54548 0.20819 0.0
H21 H 0.79963 0.59033 0.14699 0.0
H22 H 0.77851 0.81054 0.28102 0.0
H23 H 0.84264 0.80351 0.91135 0.0
H24 H 0.3643 0.27623 0.89199 0.0
H25 H 0.34879 0.34855 0.95793 0.0
H26 H 0.1828 0.01137 0.74241 0.0
H27 H 0.1244 0.15879 0.29109 0.0
H28 H 0.8755 0.00327 0.36455 0.0
H29 H 0.29902 0.13745 0.82803 0.0
H30 H 0.87653 0.74139 0.83656 0.0
N31 N 0.10755 0.14357 0.9297 0.0
C32 C 0.29218 0.23645 0.90189 0.0
C33 C 0.28355 0.27957 0.93791 0.0
C34 C 0.21032 0.14784 0.87443 0.0
C35 C 0.11522 0.12202 0.87877 0.0
C36 C 0.19141 0.22871 0.95528 0.0
N37 N 0.94537 0.95818 0.88147 0.0
C38 C 0.01721 0.04442 0.83323 0.0
C39 C 0.91959 0.8146 0.83075 0.0
C40 C -0.01481 0.86831 0.767 0.0
C41 C 0.90027 0.85661 0.88067 0.0
C42 C 0.05268 0.98314 0.74672 0.0
H43 H -0.00937 0.83247 0.74165 0.0
O44 O 0.82648 0.93546 0.95902 0.0
O45 O 0.92255 0.95164 0.07367 0.0
O46 O 0.91901 0.83445 0.05892 0.0
O47 O -0.0145 0.92075 0.97448 0.0
O48 O 0.81392 0.86127 1.01374 0.0
O49 O 0.95461 0.09332 0.96182 0.0
O50 O 0.15628 0.04405 0.16154 0.0
O51 O 0.07091 0.02671 1.02718 0.0
O52 O 0.0417 0.12675 0.04883 0.0
O53 O 0.03026 0.06797 0.13817 0.0
O54 O 0.1674 0.11917 0.09428 0.0
O55 O 0.09576 0.93898 0.09434 0.0
C56 C 0.8309 0.87344 0.0688 0.0
C57 C 0.16452 0.03845 0.76293 0.0
C58 C 0.2311 0.10821 0.82377 0.0
C59 C 0.86066 0.01589 0.95046 0.0
C60 C 0.81958 0.01598 0.89947 0.0
C61 C 0.79181 0.96218 0.85027 0.0
C62 C 0.79567 0.05855 0.90239 0.0
C63 C 0.74452 0.04738 0.85655 0.0
C64 C 0.74115 0.95014 0.80544 0.0
C65 C 0.71817 -0.00756 0.80824 0.0
C66 C 0.93652 0.84122 1.00406 0.0
C67 C 0.16003 0.10681 1.03913 0.0
C68 C 0.16409 0.00155 0.13235 0.0
C69 C 0.24338 0.02191 0.14147 0.0
C70 C 0.3372 0.11681 0.15442 0.0
C71 C 0.22301 0.94507 0.14492 0.0
C72 C 0.29732 0.96396 0.16092 0.0
C73 C 0.41112 0.13547 0.17036 0.0
C74 C 0.39152 0.05944 0.17346 0.0
C75 C 0.0522 0.13243 0.10624 0.0
H76 H 0.80676 0.92686 0.84702 0.0
H77 H 0.8142 0.09745 0.94108 0.0
H78 H 0.72002 0.90811 0.76792 0.0
H79 H 0.68164 0.98374 0.77151 0.0
H80 H 0.35274 0.17619 0.15321 0.0
H81 H 0.14959 0.87106 0.1367 0.0
H82 H 0.48333 0.2087 0.18081 0.0
H83 H 0.44937 0.07473 0.18658 0.0
Gd84 Gd -0.0012 0.98395 0.48238 0.0
Gd85 Gd 0.95336 0.03531 0.61719 0.0
C86 C 0.22896 0.29764 0.71687 0.0
C87 C 0.25789 0.23559 0.77897 0.0
C88 C 0.08823 0.12046 0.72964 0.0
C89 C 0.13653 0.20364 0.69996 0.0
C90 C 0.14961 0.13112 0.77911 0.0
C91 C 0.28912 0.31158 0.7523 0.0
C92 C 0.26246 0.37828 0.69468 0.0
C93 C 0.20264 0.36417 0.65824 0.0
N94 N 0.08805 0.19301 0.65655 0.0
C95 C 0.11452 0.27045 0.64014 0.0
H96 H 0.07019 0.2615 0.61069 0.0
C97 C 0.91077 0.94742 0.74138 0.0
N98 N -0.00921 0.03538 0.71259 0.0
C99 C 0.91436 0.90571 0.78685 0.0
C100 C 0.05964 0.98902 0.83667 0.0
H101 H 0.83922 0.89723 0.72245 0.0
H102 H 0.36462 0.38395 0.75885 0.0
H103 H 0.7773 0.73787 0.49771 0.0
H104 H 0.33316 0.45162 0.70692 0.0
H105 H 0.2254 0.4254 0.64285 0.0
H106 H 0.19365 0.16849 0.78391 0.0
H107 H 0.11173 0.18468 0.40601 0.0
H108 H 0.5962 0.69773 0.38592 0.0
H109 H 0.61668 0.63685 0.46017 0.0
H110 H 0.77474 0.95593 0.23122 0.0
H111 H 0.83726 0.83136 0.79153 0.0
H112 H 0.07564 0.96991 0.87212 0.0
H113 H 0.65556 0.82601 0.31478 0.0
H114 H 0.06519 0.23302 0.32901 0.0
N115 N 0.85747 0.84523 0.43147 0.0
C116 C 0.66926 0.74084 0.39739 0.0
C117 C 0.68092 0.70471 0.43852 0.0
C118 C 0.7497 0.82723 0.36783 0.0
C119 C 0.85035 0.86231 0.37785 0.0
C120 C 0.774 0.76101 0.45842 0.0
N121 N 0.01703 0.03131 0.38144 0.0
C122 C 0.95216 0.94497 0.33409 0.0
C123 C 0.02895 0.16248 0.3242 0.0
C124 C 0.96805 0.10606 0.25953 0.0
C125 C 0.05297 0.12765 0.37743 0.0
C126 C 0.91051 -0.00513 0.24161 0.0
H127 H 0.95733 0.13638 0.23244 0.0
O128 O 0.13614 0.05236 0.45678 0.0
O129 O 0.0459 0.04029 0.57325 0.0
O130 O 0.05436 0.15984 0.55471 0.0
O131 O 0.97765 0.06848 0.4736 0.0
O132 O 0.15305 0.12838 0.51175 0.0
O133 O 0.00781 0.89509 0.46597 0.0
O134 O 0.83877 0.98434 0.66918 0.0
O135 O 0.89826 0.96869 0.52937 0.0
O136 O 0.92262 0.86393 0.5496 0.0
O137 O 0.9217 0.91417 0.63785 0.0
O138 O 0.79837 0.88866 0.59622 0.0
O139 O 0.90647 0.08981 0.60161 0.0
C140 C 0.13717 0.11693 0.56691 0.0
C141 C 0.79445 0.93092 0.25314 0.0
C142 C 0.72586 0.85953 0.31297 0.0
C143 C 0.10069 0.97078 0.45158 0.0
C144 C 0.13508 0.96413 0.40011 0.0
C145 C 0.15239 0.00833 0.34821 0.0
C146 C 0.16158 0.92396 0.40389 0.0
C147 C 0.20484 0.92833 0.35595 0.0
C148 C 0.19272 0.01109 0.30094 0.0
C149 C 0.21826 0.97138 0.30457 0.0
C150 C 0.0287 0.14939 0.50156 0.0
C151 C 0.8077 0.89314 0.54087 0.0
C152 C 0.85593 0.05067 0.64931 0.0
C153 C 0.88567 0.11775 0.69251 0.0
C154 C 0.94018 0.14414 0.74161 0.0
C155 C 0.85955 0.15621 0.68458 0.0
C156 C 0.88063 0.21494 0.72722 0.0
C157 C 0.96784 0.20823 0.78203 0.0
C158 C 0.93744 0.243 0.77533 0.0
C159 C 0.90392 0.85272 0.60614 0.0
H160 H 0.13815 0.04415 0.34465 0.0
H161 H 0.15168 0.8927 0.44445 0.0
H162 H 0.20652 0.04647 0.2616 0.0
H163 H 0.24889 0.97465 0.26683 0.0
H164 H 0.95964 0.11392 0.74978 0.0
H165 H 0.81977 0.13739 0.64585 0.0
H166 H 0.00927 0.22759 0.81983 0.0
H167 H 0.95443 0.28771 0.80913 0.0
Zn168 Zn 0.35518 0.66113 0.18972 0.0
Zn169 Zn 0.30305 0.64479 0.38984 0.0
Zn170 Zn 0.36097 0.664 0.29296 0.0
C171 C 0.48893 0.73999 0.40368 0.0
C172 C 0.18266 0.46568 0.36997 0.0
O173 O 0.3154 0.71531 0.25374 0.0
O174 O 0.27268 0.66034 0.1641 0.0
C175 C 0.53583 0.77306 0.19825 0.0
O176 O 0.49191 0.74917 0.34832 0.0
O177 O 0.41002 0.68743 0.43041 0.0
O178 O 0.17339 0.50676 0.39624 0.0
O179 O 0.24998 0.51303 0.3309 0.0
O180 O 0.49167 0.77328 0.16457 0.0
O181 O 0.49863 0.73338 0.24884 0.0
O182 O 0.25575 0.50884 0.26633 0.0
O183 O 0.29369 0.53758 0.17363 0.0
C184 C 0.24633 0.47899 0.21536 0.0
O185 O 0.329 0.7411 0.31102 0.0
O186 O 0.30117 0.72735 0.40466 0.0
C187 C 0.27795 0.70127 0.20448 0.0
C188 C 0.31044 0.75926 0.35619 0.0
Zn189 Zn 0.666 0.34809 0.89677 0.0
Zn190 Zn 0.59855 0.31034 0.69046 0.0
Zn191 Zn 0.59772 0.32384 0.79963 0.0
C192 C 0.71151 0.50227 0.71642 0.0
C193 C 0.42281 0.20986 0.70107 0.0
O194 O 0.63047 0.24709 0.81942 0.0
O195 O 0.67177 0.26799 0.91099 0.0
C196 C 0.77611 0.52343 0.87234 0.0
O197 O 0.69484 0.47488 0.76967 0.0
O198 O 0.6739 0.44278 0.67625 0.0
O199 O 0.46172 0.20298 0.66812 0.0
O200 O 0.46428 0.25476 0.7498 0.0
O201 O 0.79414 0.48729 0.89363 0.0
O202 O 0.70315 0.47274 0.83723 0.0
O203 O 0.47505 0.23862 0.86204 0.0
O204 O 0.56252 0.30658 0.94202 0.0
C205 C 0.48117 0.24974 0.9172 0.0
O206 O 0.66574 0.29559 0.76511 0.0
O207 O 0.6712 0.29849 0.66906 0.0
C208 C 0.6541 0.23109 0.86281 0.0
C209 C 0.69392 0.29414 0.71703 0.0
C210 C 0.33698 0.89219 0.13478 0.0
C211 C 0.27786 0.885 0.16578 0.0
H212 H 0.38163 0.83737 0.12327 0.0
C213 C 0.20867 0.80861 0.20546 0.0
H214 H 0.38974 0.95002 0.10353 0.0
C215 C 0.20514 0.74493 0.21757 0.0
C216 C 0.26935 0.75691 0.18903 0.0
H217 H 0.16222 0.80218 0.22956 0.0
H218 H 0.15527 0.68908 0.25026 0.0
C219 C 0.33224 0.82807 0.14605 0.0
C220 C 0.28684 0.23203 0.63087 0.0
C221 C 0.2063 0.13987 0.60599 0.0
H222 H 0.41523 0.32446 0.68446 0.0
C223 C 0.19718 0.07103 0.61354 0.0
H224 H 0.2991 0.2884 0.62242 0.0
C225 C 0.2668 0.09376 0.6454 0.0
C226 C 0.34256 0.18261 0.67494 0.0
H227 H 0.13818 0.00076 0.59278 0.0
H228 H 0.26041 0.0408 0.64796 0.0
C229 C 0.35304 0.25245 0.66631 0.0
C230 C 0.06626 0.25277 0.1267 0.0
C231 C 0.09542 0.21705 0.13771 0.0
H232 H 0.08831 0.36213 0.14643 0.0
C233 C 0.16548 0.26124 0.18116 0.0
H234 H 0.01241 0.2201 0.09362 0.0
C235 C 0.2065 0.3402 0.21266 0.0
C236 C 0.17913 0.37743 0.20078 0.0
H237 H 0.19163 0.23718 0.18925 0.0
H238 H 0.26469 0.37648 0.24313 0.0
C239 C 0.10772 0.33216 0.15802 0.0
C240 C 0.88303 0.32653 0.74497 0.0
C241 C 0.83525 0.23845 0.72347 0.0
H242 H 0.87303 0.41236 0.76057 0.0
C243 C 0.74086 0.16995 0.69968 0.0
H244 H 0.95587 0.38094 0.76316 0.0
C245 C 0.69636 0.19007 0.69599 0.0
C246 C 0.74369 0.27688 0.71824 0.0
H247 H 0.69982 0.09949 0.68511 0.0
H248 H 0.62351 0.13637 0.67775 0.0
C249 C 0.83655 0.34501 0.74311 0.0
C250 C 0.75779 0.91063 0.10536 0.0
C251 C 0.76107 0.85079 0.10731 0.0
H252 H 0.68324 0.93166 0.13119 0.0
C253 C 0.68962 0.76476 0.14015 0.0
H254 H 0.80954 0.97571 0.07887 0.0
C255 C 0.62018 0.74211 0.1732 0.0
C256 C 0.61801 0.80303 0.1719 0.0
H257 H 0.6861 0.71404 0.13912 0.0
H258 H 0.56548 0.67485 0.19762 0.0
C259 C 0.68532 0.88534 0.13541 0.0
C260 C 0.79411 0.72405 0.68342 0.0
C261 C 0.85969 0.76632 0.6371 0.0
H262 H 0.69905 0.60999 0.74731 0.0
C263 C 0.88303 0.72611 0.62201 0.0
H264 H 0.77214 0.75131 0.69498 0.0
C265 C 0.84074 0.64496 0.65191 0.0
C266 C 0.77427 0.60197 0.69774 0.0
H267 H 0.93326 0.7568 0.58681 0.0
H268 H 0.8571 0.6131 0.63763 0.0
C269 C 0.75258 0.64341 0.71381 0.0
C270 C 0.17887 0.80107 0.38714 0.0
C271 C 0.2356 0.88813 0.35777 0.0
H272 H 0.1575 0.6925 0.40834 0.0
C273 C 0.31893 0.93332 0.32699 0.0
H274 H 0.11399 0.76329 0.41075 0.0
C275 C 0.34282 0.8912 0.32442 0.0
C276 C 0.28473 0.80344 0.3532 0.0
H277 H 0.36594 0.00148 0.30456 0.0
H278 H 0.40702 0.92767 0.30056 0.0
C279 C 0.20335 0.75984 0.3851 0.0
C280 C 0.33805 0.22543 1.02711 0.0
C281 C 0.24081 0.13536 1.01266 0.0
H282 H 0.48954 0.33255 1.0069 0.0
C283 C 0.22378 0.07397 0.97503 0.0
H284 H 0.3539 0.27224 0.05834 0.0
C285 C 0.30192 0.10867 0.94519 0.0
C286 C 0.398 0.20447 0.95347 0.0
H287 H 0.15036 0.00148 0.96615 0.0
H288 H 0.28684 0.06224 0.91411 0.0
C289 C 0.41574 0.2598 0.99765 0.0
C290 C 0.16672 0.31915 0.46577 0.0
C291 C 0.06526 0.23173 0.47165 0.0
H292 H 0.28249 0.45796 0.42392 0.0
C293 C 0.00143 0.22091 0.44316 0.0
H294 H 0.21715 0.329 0.4876 0.0
C295 C 0.03901 0.2963 0.40838 0.0
C296 C 0.14035 0.38025 0.39873 0.0
H297 H 0.92299 0.15461 0.44771 0.0
H298 H -0.01082 0.28841 0.38818 0.0
C299 C 0.20382 0.39149 0.42826 0.0
C300 C 0.6356 0.05041 0.82956 0.0
C301 C 0.71976 0.09348 0.85774 0.0
H302 H 0.54944 0.06011 0.80749 0.0
C303 C 0.78199 0.18314 0.88517 0.0
H304 H 0.58434 0.9807 0.80857 0.0
C305 C 0.7608 0.22747 0.88497 0.0
C306 C 0.67727 0.18469 0.85681 0.0
H307 H 0.84836 0.22038 0.90626 0.0
H308 H 0.81061 0.29627 0.907 0.0
C309 C 0.61506 0.09574 0.82876 0.0
C310 C 0.74636 0.91696 0.46363 0.0
C311 C 0.72836 0.85889 0.50603 0.0
H312 H 0.6854 0.92512 0.39675 0.0
C313 C 0.63062 0.76856 0.51947 0.0
H314 H 0.81944 -0.01003 0.45549 0.0
C315 C 0.55403 0.73178 0.48634 0.0
C316 C 0.57284 0.78485 0.43921 0.0
H317 H 0.61359 0.72412 0.55397 0.0
H318 H 0.47995 0.65963 0.49625 0.0
C319 C 0.66932 0.88005 0.43015 0.0
C320 C 0.79571 0.67125 0.96941 0.0
C321 C 0.89746 0.75774 0.97471 0.0
H322 H 0.67808 0.53248 0.92821 0.0
C323 C 0.95987 0.76681 0.94638 0.0
H324 H 0.74648 0.66285 0.99128 0.0
C325 C 0.92066 0.69083 0.912 0.0
C326 C 0.81907 0.60787 0.90268 0.0
H327 H 0.03852 0.83256 0.95043 0.0
H328 H 0.96954 0.69782 0.89145 0.0
C329 C 0.75688 0.59805 0.93237 0.0
loop_
_geom_bond_atom_site_label_1
_geom_bond_atom_site_label_2
_geom_bond_distance
_geom_bond_site_symmetry_2
_ccdc_geom_bond_type
Gd0 N31 2.661 1_655 S
Gd0 N37 2.601 . S
Gd0 O44 2.545 1_545 S
Gd0 O45 2.606 1_546 S
Gd0 O47 2.429 1_545 S
Gd0 O48 2.545 1_545 S
Gd0 O49 2.412 . S
Gd0 O51 2.362 1_655 S
Gd0 O52 2.324 1_656 S
Gd0 C59 2.828 . S
Gd1 N10 2.661 1_455 S
Gd1 N14 2.601 . S
Gd1 O45 2.362 1_455 S
Gd1 O46 2.324 1_454 S
Gd1 O50 2.545 1_565 S
Gd1 O51 2.606 1_564 S
Gd1 O53 2.429 1_565 S
Gd1 O54 2.545 1_565 S
Gd1 O55 2.412 . S
Gd1 C68 2.828 . S
C2 C5 1.417 . S
C2 C7 1.431 . S
C2 C8 1.412 . S
C3 C6 1.437 . S
C3 C7 1.317 . S
C3 H22 0.929 . S
C4 C5 1.426 . S
C4 C6 1.413 . S
C4 N14 1.359 1_655 S
C5 C2 1.417 . S
C5 C4 1.426 . S
C5 N10 1.350 . S
C6 C3 1.437 . S
C6 C4 1.413 . S
C6 C16 1.391 1_655 S
C7 C2 1.431 . S
C7 C3 1.317 . S
C7 H18 0.930 . S
C8 C2 1.412 . S
C8 C9 1.355 . S
C8 H20 0.930 . S
C9 C8 1.355 . S
C9 C11 1.402 . S
C9 H21 0.930 . S
N10 Gd1 2.661 1_655 S
N10 C5 1.350 . S
N10 C11 1.307 . S
C11 C9 1.402 . S
C11 N10 1.307 . S
C11 H12 0.930 . S
H12 C11 0.930 . S
C13 N14 1.334 1_545 S
C13 C15 1.394 . S
C13 H17 0.930 . S
N14 Gd1 2.601 . S
N14 C4 1.359 1_455 S
N14 C13 1.334 1_565 S
C15 C13 1.394 . S
C15 C16 1.359 1_545 S
C15 H27 0.930 . S
C16 C6 1.391 1_455 S
C16 C15 1.359 1_565 S
C16 H28 0.929 . S
H17 C13 0.930 . S
H18 C7 0.930 . S
H19 C36 0.930 . S
H20 C8 0.930 . S
H21 C9 0.930 . S
H22 C3 0.929 . S
H23 C41 0.930 . S
H24 C32 0.930 . S
H25 C33 0.930 . S
H26 C57 0.929 . S
H27 C15 0.930 . S
H28 C16 0.929 . S
H29 C58 0.930 . S
H30 C39 0.930 . S
N31 Gd0 2.661 1_455 S
N31 C35 1.350 . S
N31 C36 1.307 . S
C32 H24 0.930 . S
C32 C33 1.355 . S
C32 C34 1.412 . S
C33 H25 0.930 . S
C33 C32 1.355 . S
C33 C36 1.402 . S
C34 C32 1.412 . S
C34 C35 1.417 . S
C34 C58 1.431 . S
C35 N31 1.350 . S
C35 C34 1.417 . S
C35 C38 1.426 . S
C36 H19 0.930 . S
C36 N31 1.307 . S
C36 C33 1.402 . S
N37 Gd0 2.601 . S
N37 C38 1.359 1_655 S
N37 C41 1.334 1_545 S
C38 C35 1.426 . S
C38 N37 1.359 1_455 S
C38 C42 1.413 . S
C39 H30 0.930 . S
C39 C40 1.359 1_565 S
C39 C41 1.394 . S
C40 C39 1.359 1_545 S
C40 C42 1.391 1_655 S
C40 H43 0.929 . S
C41 H23 0.930 . S
C41 N37 1.334 1_565 S
C41 C39 1.394 . S
C42 C38 1.413 . S
C42 C40 1.391 1_455 S
C42 C57 1.437 . S
H43 C40 0.929 . S
O44 Gd0 2.545 1_565 S
O44 C59 1.258 1_565 S
O45 Gd0 2.606 1_564 S
O45 Gd1 2.362 1_655 S
O45 C56 1.284 . S
O46 Gd1 2.324 1_656 S
O46 C66 1.254 . S
O47 Gd0 2.429 1_565 S
O47 C66 1.268 . S
O48 Gd0 2.545 1_565 S
O48 C56 1.250 1_556 S
O49 Gd0 2.412 . S
O49 C59 1.252 . S
O50 Gd1 2.545 1_545 S
O50 C68 1.258 1_545 S
O51 Gd0 2.362 1_455 S
O51 Gd1 2.606 1_546 S
O51 C67 1.284 . S
O52 Gd0 2.324 1_454 S
O52 C75 1.254 . S
O53 Gd1 2.429 1_545 S
O53 C75 1.268 . S
O54 Gd1 2.545 1_545 S
O54 C67 1.250 1_554 S
O55 Gd1 2.412 . S
O55 C68 1.252 . S
C56 O45 1.284 . S
C56 O48 1.250 1_554 S
C57 H26 0.929 . S
C57 C42 1.437 . S
C57 C58 1.317 . S
C58 H29 0.930 . S
C58 C34 1.431 . S
C58 C57 1.317 . S
C59 Gd0 2.828 . S
C59 O44 1.258 1_545 S
C59 O49 1.252 . S
C59 C60 1.497 . S
C60 C59 1.497 . S
C60 C61 1.395 . S
C60 C62 1.380 . S
C61 C60 1.395 . S
C61 C64 1.398 . S
C61 H76 0.930 . S
C62 C60 1.380 . S
C62 C63 1.391 . S
C62 H77 0.930 . S
C63 C62 1.391 . S
C63 C65 1.387 . S
C64 C61 1.398 . S
C64 C65 1.380 . S
C64 H78 0.930 . S
C65 C63 1.387 . S
C65 C64 1.380 . S
C65 H79 0.930 . S
C66 O46 1.254 . S
C66 O47 1.268 . S
C67 O51 1.284 . S
C67 O54 1.250 1_556 S
C68 Gd1 2.828 . S
C68 O50 1.258 1_565 S
C68 O55 1.252 . S
C68 C69 1.497 . S
C69 C68 1.497 . S
C69 C70 1.395 . S
C69 C71 1.380 . S
C70 C69 1.395 . S
C70 C73 1.398 . S
C70 H80 0.930 . S
C71 C69 1.380 . S
C71 C72 1.391 . S
C71 H81 0.930 . S
C72 C71 1.391 . S
C72 C74 1.387 . S
C73 C70 1.398 . S
C73 C74 1.380 . S
C73 H82 0.930 . S
C74 C72 1.387 . S
C74 C73 1.380 . S
C74 H83 0.930 . S
C75 O52 1.254 . S
C75 O53 1.268 . S
H76 C61 0.930 . S
H77 C62 0.930 . S
H78 C64 0.930 . S
H79 C65 0.930 . S
H80 C70 0.930 . S
H81 C71 0.930 . S
H82 C73 0.930 . S
H83 C74 0.930 . S
Gd84 N115 2.661 1_455 S
Gd84 N121 2.601 1_565 S
Gd84 O128 2.545 1_565 S
Gd84 O129 2.606 1_565 S
Gd84 O131 2.429 1_565 S
Gd84 O132 2.545 1_565 S
Gd84 O133 2.412 . S
Gd84 O135 2.362 1_455 S
Gd84 O136 2.324 1_455 S
Gd84 C143 2.828 . S
Gd85 N94 2.661 1_655 S
Gd85 N98 2.601 1_655 S
Gd85 O129 2.362 1_655 S
Gd85 O130 2.324 1_655 S
Gd85 O134 2.545 . S
Gd85 O135 2.606 1_545 S
Gd85 O137 2.429 1_545 S
Gd85 O138 2.545 1_545 S
Gd85 O139 2.412 . S
Gd85 C152 2.828 . S
C86 C89 1.417 . S
C86 C91 1.431 . S
C86 C92 1.412 . S
C87 C90 1.437 . S
C87 C91 1.317 . S
C87 H106 0.929 . S
C88 C89 1.426 . S
C88 C90 1.413 . S
C88 N98 1.359 . S
C89 C86 1.417 . S
C89 C88 1.426 . S
C89 N94 1.350 . S
C90 C87 1.437 . S
C90 C88 1.413 . S
C90 C100 1.391 . S
C91 C86 1.431 . S
C91 C87 1.317 . S
C91 H102 0.930 . S
C92 C86 1.412 . S
C92 C93 1.355 . S
C92 H104 0.930 . S
C93 C92 1.355 . S
C93 C95 1.402 . S
C93 H105 0.930 . S
N94 Gd85 2.661 1_455 S
N94 C89 1.350 . S
N94 C95 1.307 . S
C95 C93 1.402 . S
C95 N94 1.307 . S
C95 H96 0.930 . S
H96 C95 0.930 . S
C97 N98 1.334 1_665 S
C97 C99 1.394 . S
C97 H101 0.930 . S
N98 Gd85 2.601 1_455 S
N98 C88 1.359 . S
N98 C97 1.334 1_445 S
C99 C97 1.394 . S
C99 C100 1.359 1_665 S
C99 H111 0.930 . S
C100 C90 1.391 . S
C100 C99 1.359 1_445 S
C100 H112 0.929 . S
H101 C97 0.930 . S
H102 C91 0.930 . S
H103 C120 0.930 . S
H104 C92 0.930 . S
H105 C93 0.930 . S
H106 C87 0.929 . S
H107 C125 0.930 . S
H108 C116 0.930 . S
H109 C117 0.930 . S
H110 C141 0.929 . S
H111 C99 0.930 . S
H112 C100 0.929 . S
H113 C142 0.930 . S
H114 C123 0.930 . S
N115 Gd84 2.661 1_655 S
N115 C119 1.350 . S
N115 C120 1.307 . S
C116 H108 0.930 . S
C116 C117 1.355 . S
C116 C118 1.412 . S
C117 H109 0.930 . S
C117 C116 1.355 . S
C117 C120 1.402 . S
C118 C116 1.412 . S
C118 C119 1.417 . S
C118 C142 1.431 . S
C119 N115 1.350 . S
C119 C118 1.417 . S
C119 C122 1.426 . S
C120 H103 0.930 . S
C120 N115 1.307 . S
C120 C117 1.402 . S
N121 Gd84 2.601 1_545 S
N121 C122 1.359 1_445 S
N121 C125 1.334 . S
C122 C119 1.426 . S
C122 N121 1.359 1_665 S
C122 C126 1.413 . S
C123 H114 0.930 . S
C123 C124 1.359 . S
C123 C125 1.394 . S
C124 C123 1.359 . S
C124 C126 1.391 1_445 S
C124 H127 0.929 . S
C125 H107 0.930 . S
C125 N121 1.334 . S
C125 C123 1.394 . S
C126 C122 1.413 . S
C126 C124 1.391 1_665 S
C126 C141 1.437 . S
H127 C124 0.929 . S
O128 Gd84 2.545 1_545 S
O128 C143 1.258 1_545 S
O129 Gd84 2.606 1_545 S
O129 Gd85 2.362 1_455 S
O129 C140 1.284 . S
O130 Gd85 2.324 1_455 S
O130 C150 1.254 . S
O131 Gd84 2.429 1_545 S
O131 C150 1.268 . S
O132 Gd84 2.545 1_545 S
O132 C140 1.250 . S
O133 Gd84 2.412 . S
O133 C143 1.252 . S
O134 Gd85 2.545 . S
O134 C152 1.258 . S
O135 Gd84 2.362 1_655 S
O135 Gd85 2.606 1_565 S
O135 C151 1.284 . S
O136 Gd84 2.324 1_655 S
O136 C159 1.254 . S
O137 Gd85 2.429 1_565 S
O137 C159 1.268 . S
O138 Gd85 2.545 1_565 S
O138 C151 1.250 . S
O139 Gd85 2.412 . S
O139 C152 1.252 . S
C140 O129 1.284 . S
C140 O132 1.250 . S
C141 H110 0.929 . S
C141 C126 1.437 . S
C141 C142 1.317 . S
C142 H113 0.930 . S
C142 C118 1.431 . S
C142 C141 1.317 . S
C143 Gd84 2.828 . S
C143 O128 1.258 1_565 S
C143 O133 1.252 . S
C143 C144 1.497 . S
C144 C143 1.497 . S
C144 C145 1.395 . S
C144 C146 1.380 . S
C145 C144 1.395 . S
C145 C148 1.398 . S
C145 H160 0.930 1_565 S
C146 C144 1.380 . S
C146 C147 1.391 . S
C146 H161 0.930 . S
C147 C146 1.391 . S
C147 C149 1.387 . S
C148 C145 1.398 . S
C148 C149 1.380 . S
C148 H162 0.930 . S
C149 C147 1.387 . S
C149 C148 1.380 . S
C149 H163 0.930 . S
C150 O130 1.254 . S
C150 O131 1.268 . S
C151 O135 1.284 . S
C151 O138 1.250 . S
C152 Gd85 2.828 . S
C152 O134 1.258 . S
C152 O139 1.252 . S
C152 C153 1.497 . S
C153 C152 1.497 . S
C153 C154 1.395 . S
C153 C155 1.380 . S
C154 C153 1.395 . S
C154 C157 1.398 . S
C154 H164 0.930 . S
C155 C153 1.380 . S
C155 C156 1.391 . S
C155 H165 0.930 . S
C156 C155 1.391 . S
C156 C158 1.387 . S
C157 C154 1.398 . S
C157 C158 1.380 . S
C157 H166 0.930 . S
C158 C156 1.387 . S
C158 C157 1.380 . S
C158 H167 0.930 . S
C159 O136 1.254 . S
C159 O137 1.268 . S
H160 C145 0.930 1_545 S
H161 C146 0.930 . S
H162 C148 0.930 . S
H163 C149 0.930 . S
H164 C154 0.930 . S
H165 C155 0.930 . S
H166 C157 0.930 . S
H167 C158 0.930 . S
Zn168 O174 1.920 . S
Zn168 O180 1.898 . S
Zn168 O183 1.905 . S
Zn169 O177 1.905 . S
Zn169 O178 1.898 . S
Zn169 O186 1.920 . S
Zn170 O173 2.080 . S
Zn170 O176 2.114 . S
Zn170 O179 2.120 . S
Zn170 O181 2.120 . S
Zn170 O182 2.114 . S
Zn170 O185 2.080 . S
C171 O176 1.166 . S
C171 O177 1.182 . S
C172 O178 1.167 . S
C172 O179 1.299 . S
O173 Zn170 2.080 . S
O173 C187 1.305 . S
O174 Zn168 1.920 . S
O174 C187 1.234 . S
C175 O180 1.167 . S
C175 O181 1.299 . S
O176 Zn170 2.114 . S
O176 C171 1.166 . S
O177 Zn169 1.905 . S
O177 C171 1.182 . S
O178 Zn169 1.898 . S
O178 C172 1.167 . S
O179 Zn170 2.120 . S
O179 C172 1.299 . S
O180 Zn168 1.898 . S
O180 C175 1.167 . S
O181 Zn170 2.120 . S
O181 C175 1.299 . S
O182 Zn170 2.114 . S
O182 C184 1.166 . S
O183 Zn168 1.905 . S
O183 C184 1.182 . S
C184 O182 1.166 . S
C184 O183 1.182 . S
O185 Zn170 2.080 . S
O185 C188 1.305 . S
O186 Zn169 1.920 . S
O186 C188 1.234 . S
C187 O173 1.305 . S
C187 O174 1.234 . S
C188 O185 1.305 . S
C188 O186 1.234 . S
Zn189 O195 1.920 . S
Zn189 O201 1.898 . S
Zn189 O204 1.905 . S
Zn190 O198 1.905 . S
Zn190 O199 1.898 . S
Zn190 O207 1.920 . S
Zn191 O194 2.080 . S
Zn191 O197 2.114 . S
Zn191 O200 2.120 . S
Zn191 O202 2.120 . S
Zn191 O203 2.114 . S
Zn191 O206 2.080 . S
C192 O197 1.166 . S
C192 O198 1.182 . S
C193 O199 1.167 . S
C193 O200 1.299 . S
O194 Zn191 2.080 . S
O194 C208 1.305 . S
O195 Zn189 1.920 . S
O195 C208 1.234 . S
C196 O201 1.167 . S
C196 O202 1.299 . S
O197 Zn191 2.114 . S
O197 C192 1.166 . S
O198 Zn190 1.905 . S
O198 C192 1.182 . S
O199 Zn190 1.898 . S
O199 C193 1.167 . S
O200 Zn191 2.120 . S
O200 C193 1.299 . S
O201 Zn189 1.898 . S
O201 C196 1.167 . S
O202 Zn191 2.120 . S
O202 C196 1.299 . S
O203 Zn191 2.114 . S
O203 C205 1.166 . S
O204 Zn189 1.905 . S
O204 C205 1.182 . S
C205 O203 1.166 . S
C205 O204 1.182 . S
O206 Zn191 2.080 . S
O206 C209 1.305 . S
O207 Zn190 1.920 . S
O207 C209 1.234 . S
C208 O194 1.305 . S
C208 O195 1.234 . S
C209 O206 1.305 . S
C209 O207 1.234 . S
C210 C211 1.387 . S
C210 H214 0.950 . S
C210 C219 1.390 . S
C211 C210 1.387 . S
C211 C213 1.387 . S
H212 C219 0.950 . S
C213 C211 1.387 . S
C213 C215 1.390 . S
C213 H217 0.950 . S
H214 C210 0.950 . S
C215 C213 1.390 . S
C215 C216 1.387 . S
C215 H218 0.950 . S
C216 C215 1.387 . S
C216 C219 1.387 . S
H217 C213 0.950 . S
H218 C215 0.950 . S
C219 C210 1.390 . S
C219 H212 0.950 . S
C219 C216 1.387 . S
C220 C221 1.387 . S
C220 H224 0.950 . S
C220 C229 1.390 . S
C221 C220 1.387 . S
C221 C223 1.387 . S
H222 C229 0.950 . S
C223 C221 1.387 . S
C223 C225 1.390 . S
C223 H227 0.950 1_545 S
H224 C220 0.950 . S
C225 C223 1.390 . S
C225 C226 1.387 . S
C225 H228 0.950 . S
C226 C225 1.387 . S
C226 C229 1.387 . S
H227 C223 0.950 1_565 S
H228 C225 0.950 . S
C229 C220 1.390 . S
C229 H222 0.950 . S
C229 C226 1.387 . S
C230 C231 1.387 . S
C230 H234 0.950 . S
C230 C239 1.390 . S
C231 C230 1.387 . S
C231 C233 1.387 . S
H232 C239 0.950 . S
C233 C231 1.387 . S
C233 C235 1.390 . S
C233 H237 0.950 . S
H234 C230 0.950 . S
C235 C233 1.390 . S
C235 C236 1.387 . S
C235 H238 0.950 . S
C236 C235 1.387 . S
C236 C239 1.387 . S
H237 C233 0.950 . S
H238 C235 0.950 . S
C239 C230 1.390 . S
C239 H232 0.950 . S
C239 C236 1.387 . S
C240 C241 1.387 . S
C240 H244 0.950 . S
C240 C249 1.390 . S
C241 C240 1.387 . S
C241 C243 1.387 . S
H242 C249 0.950 . S
C243 C241 1.387 . S
C243 C245 1.390 . S
C243 H247 0.950 . S
H244 C240 0.950 . S
C245 C243 1.390 . S
C245 C246 1.387 . S
C245 H248 0.950 . S
C246 C245 1.387 . S
C246 C249 1.387 . S
H247 C243 0.950 . S
H248 C245 0.950 . S
C249 C240 1.390 . S
C249 H242 0.950 . S
C249 C246 1.387 . S
C250 C251 1.387 . S
C250 H254 0.950 1_565 S
C250 C259 1.390 . S
C251 C250 1.387 . S
C251 C253 1.387 . S
H252 C259 0.950 1_545 S
C253 C251 1.387 . S
C253 C255 1.390 . S
C253 H257 0.950 . S
H254 C250 0.950 1_545 S
C255 C253 1.390 . S
C255 C256 1.387 . S
C255 H258 0.950 . S
C256 C255 1.387 . S
C256 C259 1.387 . S
H257 C253 0.950 . S
H258 C255 0.950 . S
C259 C250 1.390 . S
C259 H252 0.950 1_565 S
C259 C256 1.387 . S
C260 C261 1.387 . S
C260 H264 0.950 . S
C260 C269 1.390 . S
C261 C260 1.387 . S
C261 C263 1.387 . S
H262 C269 0.950 . S
C263 C261 1.387 . S
C263 C265 1.390 . S
C263 H267 0.950 . S
H264 C260 0.950 . S
C265 C263 1.390 . S
C265 C266 1.387 . S
C265 H268 0.950 . S
C266 C265 1.387 . S
C266 C269 1.387 . S
H267 C263 0.950 . S
H268 C265 0.950 . S
C269 C260 1.390 . S
C269 H262 0.950 . S
C269 C266 1.387 . S
C270 C271 1.387 . S
C270 H274 0.950 . S
C270 C279 1.390 . S
C271 C270 1.387 . S
C271 C273 1.387 . S
H272 C279 0.950 . S
C273 C271 1.387 . S
C273 C275 1.390 . S
C273 H277 0.950 . S
H274 C270 0.950 . S
C275 C273 1.390 . S
C275 C276 1.387 . S
C275 H278 0.950 . S
C276 C275 1.387 . S
C276 C279 1.387 . S
H277 C273 0.950 . S
H278 C275 0.950 . S
C279 C270 1.390 . S
C279 H272 0.950 . S
C279 C276 1.387 . S
C280 C281 1.387 . S
C280 H284 0.950 . S
C280 C289 1.390 . S
C281 C280 1.387 . S
C281 C283 1.387 . S
H282 C289 0.950 . S
C283 C281 1.387 . S
C283 C285 1.390 . S
C283 H287 0.950 . S
H284 C280 0.950 . S
C285 C283 1.390 . S
C285 C286 1.387 . S
C285 H288 0.950 . S
C286 C285 1.387 . S
C286 C289 1.387 . S
H287 C283 0.950 . S
H288 C285 0.950 . S
C289 C280 1.390 . S
C289 H282 0.950 . S
C289 C286 1.387 . S
C290 C291 1.387 . S
C290 H294 0.950 . S
C290 C299 1.390 . S
C291 C290 1.387 . S
C291 C293 1.387 . S
H292 C299 0.950 . S
C293 C291 1.387 . S
C293 C295 1.390 . S
C293 H297 0.950 . S
H294 C290 0.950 . S
C295 C293 1.390 . S
C295 C296 1.387 . S
C295 H298 0.950 . S
C296 C295 1.387 . S
C296 C299 1.387 . S
H297 C293 0.950 . S
H298 C295 0.950 . S
C299 C290 1.390 . S
C299 H292 0.950 . S
C299 C296 1.387 . S
C300 C301 1.387 . S
C300 H304 0.950 . S
C300 C309 1.390 . S
C301 C300 1.387 . S
C301 C303 1.387 . S
H302 C309 0.950 . S
C303 C301 1.387 . S
C303 C305 1.390 . S
C303 H307 0.950 . S
H304 C300 0.950 . S
C305 C303 1.390 . S
C305 C306 1.387 . S
C305 H308 0.950 . S
C306 C305 1.387 . S
C306 C309 1.387 . S
H307 C303 0.950 . S
H308 C305 0.950 . S
C309 C300 1.390 . S
C309 H302 0.950 . S
C309 C306 1.387 . S
C310 C311 1.387 . S
C310 H314 0.950 1_565 S
C310 C319 1.390 . S
C311 C310 1.387 . S
C311 C313 1.387 . S
H312 C319 0.950 . S
C313 C311 1.387 . S
C313 C315 1.390 . S
C313 H317 0.950 . S
H314 C310 0.950 1_545 S
C315 C313 1.390 . S
C315 C316 1.387 . S
C315 H318 0.950 . S
C316 C315 1.387 . S
C316 C319 1.387 . S
H317 C313 0.950 . S
H318 C315 0.950 . S
C319 C310 1.390 . S
C319 H312 0.950 . S
C319 C316 1.387 . S
C320 C321 1.387 . S
C320 H324 0.950 . S
C320 C329 1.390 . S
C321 C320 1.387 . S
C321 C323 1.387 . S
H322 C329 0.950 . S
C323 C321 1.387 . S
C323 C325 1.390 . S
C323 H327 0.950 . S
H324 C320 0.950 . S
C325 C323 1.390 . S
C325 C326 1.387 . S
C325 H328 0.950 . S
C326 C325 1.387 . S
C326 C329 1.387 . S
H327 C323 0.950 . S
H328 C325 0.950 . S
C329 C320 1.390 . S
C329 H322 0.950 . S
C329 C326 1.387 . S
C211 C72 1.187 . S
C216 C187 1.290 . S
C221 C140 1.613 . S
C226 C193 1.462 . S
C231 C75 1.576 . S
C236 C184 1.491 . S
C241 C156 1.186 . S
C246 C209 1.290 . S
C251 C56 1.616 . S
C256 C175 1.459 . S
C266 C192 1.486 . S
C261 C159 1.577 . S
C271 C147 1.152 . S
C276 C188 1.300 . S
C286 C205 1.498 . S
C281 C67 1.634 . S
C296 C172 1.431 . S
C291 C150 1.628 . S
C306 C208 1.295 . S
C301 C63 1.145 . S
C316 C171 1.502 . S
C311 C151 1.633 . S
C326 C196 1.431 . S
C321 C66 1.628 . S
