# Generated by pormake.
# Topology fgl, (4,4)-cn, num edge types: 1
# Building blocks:
#     Node 0, Type 0, BuildingBlock: ESEHIV_clean_sbu_0, # of connection points: 4
#     Node 1, Type 0, BuildingBlock: ESEHIV_clean_sbu_0, # of connection points: 4
#     Node 2, Type 0, BuildingBlock: ESEHIV_clean_sbu_0, # of connection points: 4
#     Node 3, Type 0, BuildingBlock: ESEHIV_clean_sbu_0, # of connection points: 4
#     Node 4, Type 0, BuildingBlock: ESEHIV_clean_sbu_0, # of connection points: 4
#     Node 5, Type 0, BuildingBlock: ESEHIV_clean_sbu_0, # of connection points: 4
#     Node 6, Type 0, BuildingBlock: ESEHIV_clean_sbu_0, # of connection points: 4
#     Node 7, Type 0, BuildingBlock: ESEHIV_clean_sbu_0, # of connection points: 4
#     Node 8, Type 0, BuildingBlock: ESEHIV_clean_sbu_0, # of connection points: 4
#     Node 9, Type 0, BuildingBlock: ESEHIV_clean_sbu_0, # of connection points: 4
#     Node 10, Type 0, BuildingBlock: ESEHIV_clean_sbu_0, # of connection points: 4
#     Node 11, Type 0, BuildingBlock: ESEHIV_clean_sbu_0, # of connection points: 4
#     Node 12, Type 0, BuildingBlock: ESEHIV_clean_sbu_0, # of connection points: 4
#     Node 13, Type 0, BuildingBlock: ESEHIV_clean_sbu_0, # of connection points: 4
#     Node 14, Type 0, BuildingBlock: ESEHIV_clean_sbu_0, # of connection points: 4
#     Node 15, Type 0, BuildingBlock: ESEHIV_clean_sbu_0, # of connection points: 4
#     Node 16, Type 0, BuildingBlock: ESEHIV_clean_sbu_0, # of connection points: 4
#     Node 17, Type 0, BuildingBlock: ESEHIV_clean_sbu_0, # of connection points: 4
#     Node 18, Type 1, BuildingBlock: TATPOV_clean_sbu_0, # of connection points: 4
#     Node 19, Type 1, BuildingBlock: TATPOV_clean_sbu_0, # of connection points: 4
#     Node 20, Type 1, BuildingBlock: TATPOV_clean_sbu_0, # of connection points: 4
#     Node 21, Type 1, BuildingBlock: TATPOV_clean_sbu_0, # of connection points: 4
#     Node 22, Type 1, BuildingBlock: TATPOV_clean_sbu_0, # of connection points: 4
#     Node 23, Type 1, BuildingBlock: TATPOV_clean_sbu_0, # of connection points: 4
#     Node 24, Type 1, BuildingBlock: TATPOV_clean_sbu_0, # of connection points: 4
#     Node 25, Type 1, BuildingBlock: TATPOV_clean_sbu_0, # of connection points: 4
#     Node 26, Type 1, BuildingBlock: TATPOV_clean_sbu_0, # of connection points: 4
#     Node 27, Type 1, BuildingBlock: TATPOV_clean_sbu_0, # of connection points: 4
#     Node 28, Type 1, BuildingBlock: TATPOV_clean_sbu_0, # of connection points: 4
#     Node 29, Type 1, BuildingBlock: TATPOV_clean_sbu_0, # of connection points: 4
#     Node 30, Type 1, BuildingBlock: TATPOV_clean_sbu_0, # of connection points: 4
#     Node 31, Type 1, BuildingBlock: TATPOV_clean_sbu_0, # of connection points: 4
#     Node 32, Type 1, BuildingBlock: TATPOV_clean_sbu_0, # of connection points: 4
#     Node 33, Type 1, BuildingBlock: TATPOV_clean_sbu_0, # of connection points: 4
#     Node 34, Type 1, BuildingBlock: TATPOV_clean_sbu_0, # of connection points: 4
#     Node 35, Type 1, BuildingBlock: TATPOV_clean_sbu_0, # of connection points: 4
#     Edge 36, Type (0, 1), BuildingBlock: CIFDUS_clean_linker_0, # of connection points: 2
#     Edge 37, Type (0, 1), BuildingBlock: CIFDUS_clean_linker_0, # of connection points: 2
#     Edge 38, Type (0, 1), BuildingBlock: CIFDUS_clean_linker_0, # of connection points: 2
#     Edge 39, Type (0, 1), BuildingBlock: CIFDUS_clean_linker_0, # of connection points: 2
#     Edge 40, Type (0, 1), BuildingBlock: CIFDUS_clean_linker_0, # of connection points: 2
#     Edge 41, Type (0, 1), BuildingBlock: CIFDUS_clean_linker_0, # of connection points: 2
#     Edge 42, Type (0, 1), BuildingBlock: CIFDUS_clean_linker_0, # of connection points: 2
#     Edge 43, Type (0, 1), BuildingBlock: CIFDUS_clean_linker_0, # of connection points: 2
#     Edge 44, Type (0, 1), BuildingBlock: CIFDUS_clean_linker_0, # of connection points: 2
#     Edge 45, Type (0, 1), BuildingBlock: CIFDUS_clean_linker_0, # of connection points: 2
#     Edge 46, Type (0, 1), BuildingBlock: CIFDUS_clean_linker_0, # of connection points: 2
#     Edge 47, Type (0, 1), BuildingBlock: CIFDUS_clean_linker_0, # of connection points: 2
#     Edge 48, Type (0, 1), BuildingBlock: CIFDUS_clean_linker_0, # of connection points: 2
#     Edge 49, Type (0, 1), BuildingBlock: CIFDUS_clean_linker_0, # of connection points: 2
#     Edge 50, Type (0, 1), BuildingBlock: CIFDUS_clean_linker_0, # of connection points: 2
#     Edge 51, Type (0, 1), BuildingBlock: CIFDUS_clean_linker_0, # of connection points: 2
#     Edge 52, Type (0, 1), BuildingBlock: CIFDUS_clean_linker_0, # of connection points: 2
#     Edge 53, Type (0, 1), BuildingBlock: CIFDUS_clean_linker_0, # of connection points: 2
#     Edge 54, Type (0, 1), BuildingBlock: CIFDUS_clean_linker_0, # of connection points: 2
#     Edge 55, Type (0, 1), BuildingBlock: CIFDUS_clean_linker_0, # of connection points: 2
#     Edge 56, Type (0, 1), BuildingBlock: CIFDUS_clean_linker_0, # of connection points: 2
#     Edge 57, Type (0, 1), BuildingBlock: CIFDUS_clean_linker_0, # of connection points: 2
#     Edge 58, Type (0, 1), BuildingBlock: CIFDUS_clean_linker_0, # of connection points: 2
#     Edge 59, Type (0, 1), BuildingBlock: CIFDUS_clean_linker_0, # of connection points: 2
#     Edge 60, Type (0, 1), BuildingBlock: CIFDUS_clean_linker_0, # of connection points: 2
#     Edge 61, Type (0, 1), BuildingBlock: CIFDUS_clean_linker_0, # of connection points: 2
#     Edge 62, Type (0, 1), BuildingBlock: CIFDUS_clean_linker_0, # of connection points: 2
#     Edge 63, Type (0, 1), BuildingBlock: CIFDUS_clean_linker_0, # of connection points: 2
#     Edge 64, Type (0, 1), BuildingBlock: CIFDUS_clean_linker_0, # of connection points: 2
#     Edge 65, Type (0, 1), BuildingBlock: CIFDUS_clean_linker_0, # of connection points: 2
#     Edge 66, Type (0, 1), BuildingBlock: CIFDUS_clean_linker_0, # of connection points: 2
#     Edge 67, Type (0, 1), BuildingBlock: CIFDUS_clean_linker_0, # of connection points: 2
#     Edge 68, Type (0, 1), BuildingBlock: CIFDUS_clean_linker_0, # of connection points: 2
#     Edge 69, Type (0, 1), BuildingBlock: CIFDUS_clean_linker_0, # of connection points: 2
#     Edge 70, Type (0, 1), BuildingBlock: CIFDUS_clean_linker_0, # of connection points: 2
#     Edge 71, Type (0, 1), BuildingBlock: CIFDUS_clean_linker_0, # of connection points: 2
#     Edge 72, Type (0, 1), BuildingBlock: CIFDUS_clean_linker_0, # of connection points: 2
#     Edge 73, Type (0, 1), BuildingBlock: CIFDUS_clean_linker_0, # of connection points: 2
#     Edge 74, Type (0, 1), BuildingBlock: CIFDUS_clean_linker_0, # of connection points: 2
#     Edge 75, Type (0, 1), BuildingBlock: CIFDUS_clean_linker_0, # of connection points: 2
#     Edge 76, Type (0, 1), BuildingBlock: CIFDUS_clean_linker_0, # of connection points: 2
#     Edge 77, Type (0, 1), BuildingBlock: CIFDUS_clean_linker_0, # of connection points: 2
#     Edge 78, Type (0, 1), BuildingBlock: CIFDUS_clean_linker_0, # of connection points: 2
#     Edge 79, Type (0, 1), BuildingBlock: CIFDUS_clean_linker_0, # of connection points: 2
#     Edge 80, Type (0, 1), BuildingBlock: CIFDUS_clean_linker_0, # of connection points: 2
#     Edge 81, Type (0, 1), BuildingBlock: CIFDUS_clean_linker_0, # of connection points: 2
#     Edge 82, Type (0, 1), BuildingBlock: CIFDUS_clean_linker_0, # of connection points: 2
#     Edge 83, Type (0, 1), BuildingBlock: CIFDUS_clean_linker_0, # of connection points: 2
#     Edge 84, Type (0, 1), BuildingBlock: CIFDUS_clean_linker_0, # of connection points: 2
#     Edge 85, Type (0, 1), BuildingBlock: CIFDUS_clean_linker_0, # of connection points: 2
#     Edge 86, Type (0, 1), BuildingBlock: CIFDUS_clean_linker_0, # of connection points: 2
#     Edge 87, Type (0, 1), BuildingBlock: CIFDUS_clean_linker_0, # of connection points: 2
#     Edge 88, Type (0, 1), BuildingBlock: CIFDUS_clean_linker_0, # of connection points: 2
#     Edge 89, Type (0, 1), BuildingBlock: CIFDUS_clean_linker_0, # of connection points: 2
#     Edge 90, Type (0, 1), BuildingBlock: CIFDUS_clean_linker_0, # of connection points: 2
#     Edge 91, Type (0, 1), BuildingBlock: CIFDUS_clean_linker_0, # of connection points: 2
#     Edge 92, Type (0, 1), BuildingBlock: CIFDUS_clean_linker_0, # of connection points: 2
#     Edge 93, Type (0, 1), BuildingBlock: CIFDUS_clean_linker_0, # of connection points: 2
#     Edge 94, Type (0, 1), BuildingBlock: CIFDUS_clean_linker_0, # of connection points: 2
#     Edge 95, Type (0, 1), BuildingBlock: CIFDUS_clean_linker_0, # of connection points: 2
#     Edge 96, Type (0, 1), BuildingBlock: CIFDUS_clean_linker_0, # of connection points: 2
#     Edge 97, Type (0, 1), BuildingBlock: CIFDUS_clean_linker_0, # of connection points: 2
#     Edge 98, Type (0, 1), BuildingBlock: CIFDUS_clean_linker_0, # of connection points: 2
#     Edge 99, Type (0, 1), BuildingBlock: CIFDUS_clean_linker_0, # of connection points: 2
#     Edge 100, Type (0, 1), BuildingBlock: CIFDUS_clean_linker_0, # of connection points: 2
#     Edge 101, Type (0, 1), BuildingBlock: CIFDUS_clean_linker_0, # of connection points: 2
#     Edge 102, Type (0, 1), BuildingBlock: CIFDUS_clean_linker_0, # of connection points: 2
#     Edge 103, Type (0, 1), BuildingBlock: CIFDUS_clean_linker_0, # of connection points: 2
#     Edge 104, Type (0, 1), BuildingBlock: CIFDUS_clean_linker_0, # of connection points: 2
#     Edge 105, Type (0, 1), BuildingBlock: CIFDUS_clean_linker_0, # of connection points: 2
#     Edge 106, Type (0, 1), BuildingBlock: CIFDUS_clean_linker_0, # of connection points: 2
#     Edge 107, Type (0, 1), BuildingBlock: CIFDUS_clean_linker_0, # of connection points: 2
# Relax obj value: 0.035
# Max RMSD: 0.139
# Mean RMSD: 0.102
data_MOF--net-fgl--node1-ESEHIV_clean_sbu_0--node2-TATPOV_clean_sbu_0--edge1-CIFDUS_clean_linker_0
_symmetry_space_group_name_H-M    P1
_symmetry_Int_Tables_number       1
_symmetry_cell_setting            triclinic
loop_
_symmetry_equiv_pos_as_xyz
'x, y, z'
_cell_length_a     64.979157
_cell_length_b     67.494466
_cell_length_c     45.710641
_cell_angle_alpha  90.085998
_cell_angle_beta   90.634911
_cell_angle_gamma 119.94314
loop_
_atom_site_label
_atom_site_type_symbol
_atom_site_fract_x
_atom_site_fract_y
_atom_site_fract_z
_atom_type_partial_charge
Cu0 Cu 0.99406 0.52511 0.01841 0.0
N1 N 0.97663 0.52592 0.05035 0.0
N2 N 0.97021 0.54261 0.08883 0.0
C3 C 0.98122 0.54574 0.06304 0.0
C4 C 0.95828 0.51978 0.09288 0.0
C5 C 0.96229 0.50949 0.06902 0.0
O6 O 0.00698 0.55455 0.99968 0.0
C7 C 0.0107 0.49825 0.04101 0.0
O8 O 0.98842 0.4828 0.03584 0.0
H9 H 0.99371 0.56234 0.0544 0.0
H10 H 0.9562 0.49147 0.06628 0.0
N11 N 0.9771 0.50307 0.98933 0.0
N12 N 0.97227 0.48016 0.95141 0.0
C13 C 0.987 0.49357 0.97287 0.0
C14 C 0.95525 0.49544 0.97769 0.0
C15 C 0.95223 0.48125 0.95413 0.0
C16 C 0.9913 0.55973 0.99241 0.0
O17 O 0.96885 0.54502 0.99731 0.0
H18 H 1.0049 0.49671 0.97628 0.0
H19 H 0.94255 0.50008 0.98545 0.0
O20 O 0.01796 0.51904 0.03475 0.0
H21 H 0.94788 0.51123 0.11191 0.0
H22 H 0.93651 0.47221 0.94039 0.0
Cu23 Cu 0.51448 0.54973 0.00974 0.0
N24 N 0.51835 0.56228 0.9701 0.0
N25 N 0.53226 0.57594 0.92562 0.0
C26 C 0.53514 0.56625 0.9501 0.0
C27 C 0.51283 0.57782 0.93041 0.0
C28 C 0.50435 0.56943 0.9578 0.0
O29 O 0.53526 0.58221 0.0267 0.0
C30 C 0.4905 0.49847 0.99952 0.0
O31 O 0.50426 0.49769 0.02021 0.0
H32 H 0.54918 0.56226 0.95345 0.0
H33 H 0.48924 0.56891 0.96826 0.0
N34 N 0.51016 0.53747 0.04962 0.0
N35 N 0.49365 0.51988 0.09159 0.0
C36 C 0.48967 0.52435 0.06385 0.0
C37 C 0.52763 0.54151 0.06891 0.0
C38 C 0.51753 0.53071 0.09476 0.0
C39 C 0.55649 0.59627 0.01905 0.0
O40 O 0.56699 0.58986 0.99993 0.0
H41 H 0.47226 0.51837 0.05415 0.0
H42 H 0.5464 0.55166 0.06446 0.0
O43 O 0.49232 0.5176 0.99244 0.0
H44 H 0.50565 0.58537 0.91552 0.0
H45 H 0.52706 0.53052 0.11423 0.0
Cu46 Cu 0.51841 0.02848 0.04095 0.0
N47 N 0.50913 0.03033 1.00296 0.0
N48 N 0.49974 0.04167 0.96173 0.0
C49 C 0.50546 0.04634 0.99038 0.0
C50 C 0.49982 0.02205 0.95627 0.0
C51 C 0.50565 0.01515 0.98172 0.0
O52 O 0.4914 1.00322 0.06032 0.0
C53 C 0.56216 0.03992 0.01965 0.0
O54 O 0.5582 0.0553 1.00729 0.0
H55 H 0.507 0.06102 1.00198 0.0
H56 H 0.50722 1.00006 0.9847 0.0
N57 N 0.52778 0.05519 0.06264 0.0
N58 N 0.55126 0.08176 0.09539 0.0
C59 C 0.55003 0.06822 0.07299 0.0
C60 C 0.51433 0.06098 0.07878 0.0
C61 C 0.52879 0.0773 0.09919 0.0
C62 C 0.47172 1.00273 0.05636 0.0
O63 O 0.47106 0.01837 0.04002 0.0
H64 H 0.5645 0.06548 0.06718 0.0
H65 H 0.49514 0.05221 0.07809 0.0
O66 O 0.54643 0.02529 0.0366 0.0
H67 H 0.49528 0.01294 0.93556 0.0
H68 H 0.52293 0.08362 0.11719 0.0
Cu69 Cu 0.52458 0.04967 0.51019 0.0
N70 N 0.55505 0.06728 0.49536 0.0
N71 N 0.58517 0.08179 0.46413 0.0
C72 C 0.56149 0.06839 0.46728 0.0
C73 C 0.59389 0.08993 0.49113 0.0
C74 C 0.57524 0.08096 0.51037 0.0
O75 O 0.5109 0.01705 0.50114 0.0
C76 C 0.48185 0.04964 0.49344 0.0
O77 O 0.47157 0.02823 0.50188 0.0
H78 H 0.54915 0.05885 0.4497 0.0
H79 H 0.57642 0.08381 0.53376 0.0
N80 N 0.5255 0.05203 0.55076 0.0
N81 N 0.51375 0.05288 0.59621 0.0
C82 C 0.51014 0.05473 0.56744 0.0
C83 C 0.5393 0.04832 0.56951 0.0
C84 C 0.53213 0.0489 0.59762 0.0
C85 C 0.51826 1.00281 0.50514 0.0
O86 O 0.5033 0.98104 0.50022 0.0
H87 H 0.49588 0.05687 0.55855 0.0
H88 H 0.5531 0.04474 0.56311 0.0
O89 O 0.50446 0.06163 0.49481 0.0
H90 H 0.61249 0.10077 0.49672 0.0
H91 H 0.53965 0.04626 0.61747 0.0
Cu92 Cu 0.01517 0.54349 0.52294 0.0
N93 N 0.03198 0.53357 0.54674 0.0
N94 N 0.03455 0.51157 0.58188 0.0
C95 C 0.02118 0.51953 0.56936 0.0
C96 C 0.055 0.52145 0.56671 0.0
C97 C 0.05333 0.53494 0.54492 0.0
O98 O 0.98445 0.51555 0.52057 0.0
C99 C 0.0341 0.58849 0.54081 0.0
O100 O 0.05204 0.59015 0.52587 0.0
H101 H 1.00337 0.51476 0.57593 0.0
H102 H 0.06632 0.54428 0.52833 0.0
N103 N 0.02709 0.55315 0.48499 0.0
N104 N 0.03268 0.56993 0.44105 0.0
C105 C 0.02247 0.56672 0.46758 0.0
C106 C 0.04058 0.54746 0.46892 0.0
C107 C 0.04411 0.55779 0.44195 0.0
C108 C 0.97597 0.50487 0.49654 0.0
O109 O 0.98135 0.51656 0.47214 0.0
H110 H 0.01183 0.5741 0.47438 0.0
H111 H 0.04706 0.53628 0.47611 0.0
O112 O 0.01528 0.56904 0.54279 0.0
H113 H 0.06965 0.51834 0.57016 0.0
H114 H 0.05395 0.55604 0.42416 0.0
Cu115 Cu 0.54559 0.54673 0.51123 0.0
N116 N 0.57184 0.56823 0.49057 0.0
N117 N 0.60907 0.59194 0.47692 0.0
C118 C 0.59491 0.57481 0.49491 0.0
C119 C 0.59428 0.59578 0.46001 0.0
C120 C 0.57132 0.58107 0.46844 0.0
O121 O 0.55323 0.52687 0.5346 0.0
C122 C 0.51718 0.50989 0.47222 0.0
O123 O 0.52827 0.5 0.48395 0.0
H124 H 0.60128 0.56796 0.51188 0.0
H125 H 0.55538 0.5804 0.4599 0.0
N126 N 0.53305 0.56008 0.53568 0.0
N127 N 0.51239 0.56239 0.57286 0.0
C128 C 0.52045 0.54982 0.55957 0.0
C129 C 0.53292 0.57991 0.53348 0.0
C130 C 0.51986 0.58126 0.55636 0.0
C131 C 0.56098 0.5283 0.56087 0.0
O132 O 0.56259 0.51092 0.57102 0.0
H133 H 0.51626 0.53284 0.56625 0.0
H134 H 0.54104 0.5921 0.51603 0.0
O135 O 0.52163 0.52937 0.48164 0.0
H136 H 0.59976 0.60937 0.44419 0.0
H137 H 0.51552 0.59459 0.56001 0.0
Cu138 Cu 0.66073 0.87046 0.3195 0.0
N139 N 0.63372 0.87267 0.31204 0.0
N140 N 0.61509 0.89168 0.29927 0.0
C141 C 0.63404 0.88899 0.29493 0.0
C142 C 0.60224 0.87638 0.31999 0.0
C143 C 0.61382 0.86471 0.3279 0.0
O144 O 0.67898 0.89475 0.3486 0.0
C145 C 0.66469 0.86231 0.25937 0.0
O146 O 0.64186 0.8553 0.25902 0.0
H147 H 0.64923 0.90038 0.28198 0.0
H148 H 0.60928 0.85301 0.34596 0.0
N149 N 0.65412 0.84279 0.33592 0.0
N150 N 0.66254 0.81752 0.35576 0.0
C151 C 0.67133 0.83819 0.34338 0.0
C152 C 0.63356 0.82421 0.34344 0.0
C153 C 0.63877 0.80862 0.35608 0.0
C154 C 0.67161 0.89119 0.37499 0.0
O155 O 0.65373 0.87101 0.38161 0.0
H156 H 0.69007 0.85018 0.34064 0.0
H157 H 0.61611 0.82217 0.34027 0.0
O158 O 0.67678 0.87142 0.2828 0.0
H159 H 0.58661 0.87495 0.33022 0.0
H160 H 0.62616 0.79212 0.3649 0.0
Cu161 Cu 0.17484 0.88492 0.3662 0.0
N162 N 0.14715 0.86466 0.34546 0.0
N163 N 0.11843 0.83136 0.32748 0.0
C164 C 0.13656 0.84168 0.34687 0.0
C165 C 0.11746 0.84837 0.31331 0.0
C166 C 0.13507 0.86895 0.32468 0.0
O167 O 0.17211 0.8698 0.40388 0.0
C168 C 0.20265 0.90255 0.31798 0.0
O169 O 0.18572 0.90752 0.31375 0.0
H170 H 0.14268 0.83271 0.36091 0.0
H171 H 0.13916 0.88581 0.31768 0.0
N172 N 0.17704 0.91332 0.37357 0.0
N173 N 0.19356 0.9503 0.38571 0.0
C174 C 0.19741 0.93283 0.37984 0.0
C175 C 0.15975 0.91874 0.37516 0.0
C176 C 0.16988 0.94152 0.38303 0.0
C177 C 0.15442 0.86707 0.41894 0.0
O178 O 0.14118 0.87515 0.40856 0.0
H179 H 0.21462 0.93399 0.38114 0.0
H180 H 0.14105 0.90686 0.37154 0.0
O181 O 0.20199 0.89166 0.34115 0.0
H182 H 0.10516 0.84604 0.29568 0.0
H183 H 0.1606 0.95084 0.38688 0.0
Cu184 Cu 0.20008 0.41796 0.38255 0.0
N185 N 0.20134 0.442 0.36149 0.0
N186 N 0.19151 0.45763 0.32497 0.0
C187 C 0.19246 0.43918 0.33423 0.0
C188 C 0.20028 0.47281 0.34735 0.0
C189 C 0.20652 0.46313 0.36991 0.0
O190 O 0.16637 0.39528 0.38381 0.0
C191 C 0.23893 0.42214 0.35161 0.0
O192 O 0.24535 0.44389 0.35359 0.0
H193 H 0.18491 0.42308 0.32243 0.0
H194 H 0.213 0.47044 0.39141 0.0
N195 N 0.21307 0.42724 0.41984 0.0
N196 N 0.23515 0.43045 0.45916 0.0
C197 C 0.22842 0.42174 0.43193 0.0
C198 C 0.20976 0.43985 0.4401 0.0
C199 C 0.22339 0.44182 0.46453 0.0
C200 C 0.15388 0.38876 0.40686 0.0
O201 O 0.16446 0.39435 0.43262 0.0
H202 H 0.23434 0.4113 0.42092 0.0
H203 H 0.19821 0.44698 0.43735 0.0
O204 O 0.21908 0.40732 0.36226 0.0
H205 H 0.20097 0.48916 0.34792 0.0
H206 H 0.22487 0.45121 0.48439 0.0
Cu207 Cu 0.19745 0.39298 0.87635 0.0
N208 N 0.22087 0.41687 0.85496 0.0
N209 N 0.24745 0.4358 0.82033 0.0
C210 C 0.23234 0.41512 0.83166 0.0
C211 C 0.24535 0.4511 0.83727 0.0
C212 C 0.22894 0.43935 0.8586 0.0
O213 O 0.20695 0.36965 0.88006 0.0
C214 C 0.14718 0.3676 0.86289 0.0
O215 O 0.14597 0.3535 0.88348 0.0
H216 H 0.22911 0.39894 0.82272 0.0
H217 H 0.22305 0.44665 0.87537 0.0
N218 N 0.19735 0.40422 0.91356 0.0
N219 N 0.18523 0.40887 0.95728 0.0
C220 C 0.17852 0.39946 0.93026 0.0
C221 C 0.21661 0.41716 0.93039 0.0
C222 C 0.20923 0.42009 0.95733 0.0
C223 C 0.20643 0.35996 0.90426 0.0
O224 O 0.19526 0.36242 0.9265 0.0
H225 H 0.16032 0.38902 0.92284 0.0
H226 H 0.23473 0.42335 0.92378 0.0
O227 O 0.16737 0.38426 0.85619 0.0
H228 H 0.25498 0.46945 0.83448 0.0
H229 H 0.22069 0.42904 0.97583 0.0
Cu230 Cu 0.66717 0.86502 0.80698 0.0
N231 N 0.64186 0.83591 0.7985 0.0
N232 N 0.62496 0.79881 0.78703 0.0
C233 C 0.64458 0.81961 0.7852 0.0
C234 C 0.60916 0.80214 0.80205 0.0
C235 C 0.61964 0.82513 0.80905 0.0
O236 O 0.68708 0.85915 0.83506 0.0
C237 C 0.68415 0.90074 0.7633 0.0
O238 O 0.6853 0.91384 0.78524 0.0
H239 H 0.6613 0.8227 0.77633 0.0
H240 H 0.61218 0.83313 0.82247 0.0
N241 N 0.65709 0.88253 0.8273 0.0
N242 N 0.66165 0.91124 0.85582 0.0
C243 C 0.66968 0.8969 0.84928 0.0
C244 C 0.6403 0.88781 0.81981 0.0
C245 C 0.64325 0.90578 0.83732 0.0
C246 C 0.67654 0.85032 0.85917 0.0
O247 O 0.65484 0.84662 0.86243 0.0
H248 H 0.68572 0.89819 0.85854 0.0
H249 H 0.62811 0.88038 0.80146 0.0
O250 O 0.67972 0.88032 0.76866 0.0
H251 H 0.59168 0.78883 0.8084 0.0
H252 H 0.63349 0.91487 0.83565 0.0
Cu253 Cu 0.20243 0.89814 0.8595 0.0
N254 N 0.18507 0.89272 0.82464 0.0
N255 N 0.16342 0.87241 0.78591 0.0
C256 C 0.17229 0.87179 0.8125 0.0
C257 C 0.17092 0.89472 0.78109 0.0
C258 C 0.18428 0.90724 0.8051 0.0
O259 O 0.18725 0.8697 0.88094 0.0
C260 C 0.24518 0.91405 0.82696 0.0
O261 O 0.23162 0.90796 0.80337 0.0
H262 H 0.17043 0.85649 0.82257 0.0
H263 H 0.19346 0.92563 0.80762 0.0
N264 N 0.20269 0.92066 0.88344 0.0
N265 N 0.21172 0.9427 0.9234 0.0
C266 C 0.21134 0.92441 0.91099 0.0
C267 C 0.19731 0.93715 0.87803 0.0
C268 C 0.20301 0.95091 0.9027 0.0
C269 C 0.16911 0.86555 0.89587 0.0
O270 O 0.16242 0.88095 0.89705 0.0
H271 H 0.21839 0.91452 0.92117 0.0
H272 H 0.1905 0.93948 0.85742 0.0
O273 O 0.23564 0.90891 0.85203 0.0
H274 H 0.16723 0.90153 0.76158 0.0
H275 H 0.20146 0.96608 0.90496 0.0
Cu276 Cu 0.38726 0.24424 0.67853 0.0
N277 N 0.40119 0.27271 0.66073 0.0
N278 N 0.4062 0.3059 0.64431 0.0
C279 C 0.39121 0.28586 0.6571 0.0
C280 C 0.4264 0.30534 0.63983 0.0
C281 C 0.4233 0.28489 0.65017 0.0
O282 O 0.36841 0.24615 0.71073 0.0
C283 C 0.37995 0.22138 0.6244 0.0
O284 O 0.4008 0.23931 0.61946 0.0
H285 H 0.37326 0.28073 0.66356 0.0
H286 H 0.43628 0.27931 0.65015 0.0
N287 N 0.41113 0.23995 0.69436 0.0
N288 N 0.42754 0.22142 0.71549 0.0
C289 C 0.40964 0.21959 0.69841 0.0
C290 C 0.43081 0.25529 0.70896 0.0
C291 C 0.44096 0.24384 0.72221 0.0
C292 C 0.37051 0.24215 0.73764 0.0
O293 O 0.38279 0.23216 0.74456 0.0
H294 H 0.39456 0.20353 0.69128 0.0
H295 H 0.43639 0.27322 0.7115 0.0
O296 O 0.37001 0.22004 0.64891 0.0
H297 H 0.4424 0.3189 0.63026 0.0
H298 H 0.45617 0.25117 0.73694 0.0
Cu299 Cu 0.84811 0.19286 0.67502 0.0
N300 N 0.87395 0.20142 0.6499 0.0
N301 N 0.90104 0.2237 0.61715 0.0
C302 C 0.88598 0.22241 0.638 0.0
C303 C 0.89825 0.20256 0.61524 0.0
C304 C 0.88153 0.18881 0.6356 0.0
O305 O 0.85023 0.22185 0.68642 0.0
C306 C 0.8162 0.14956 0.65478 0.0
O307 O 0.83244 0.1461 0.66719 0.0
H308 H 0.88265 0.23619 0.64306 0.0
H309 H 0.87463 0.17071 0.63871 0.0
N310 N 0.84872 0.1791 0.71048 0.0
N311 N 0.8334 0.15977 0.75176 0.0
C312 C 0.82891 0.16673 0.72609 0.0
C313 C 0.86653 0.18 0.72688 0.0
C314 C 0.85709 0.16816 0.75256 0.0
C315 C 0.86983 0.23506 0.69969 0.0
O316 O 0.88497 0.22786 0.70439 0.0
H317 H 0.81147 0.16328 0.71894 0.0
H318 H 0.88505 0.18889 0.72087 0.0
O319 O 0.81924 0.1698 0.65452 0.0
H320 H 0.90722 0.19734 0.59986 0.0
H321 H 0.8668 0.16577 0.77029 0.0
Cu322 Cu 0.87588 0.75228 0.69813 0.0
N323 N 0.874 0.7769 0.68285 0.0
N324 N 0.86639 0.79638 0.64924 0.0
C325 C 0.86674 0.77704 0.65529 0.0
C326 C 0.87365 0.80898 0.67408 0.0
C327 C 0.8786 0.79698 0.69479 0.0
O328 O 0.84338 0.72637 0.6985 0.0
C329 C 0.91583 0.76489 0.6644 0.0
O330 O 0.91989 0.78522 0.67255 0.0
H331 H 0.86097 0.76274 0.64028 0.0
H332 H 0.88484 0.80247 0.71693 0.0
N333 N 0.88969 0.75823 0.7354 0.0
N334 N 0.91038 0.75583 0.77321 0.0
C335 C 0.90331 0.74977 0.74517 0.0
C336 C 0.88805 0.77015 0.75801 0.0
C337 C 0.90078 0.76866 0.78143 0.0
C338 C 0.83014 0.72118 0.72089 0.0
O339 O 0.83922 0.73206 0.74569 0.0
H340 H 0.9074 0.73884 0.73206 0.0
H341 H 0.87782 0.77878 0.75779 0.0
O342 O 0.89684 0.74728 0.67275 0.0
H343 H 0.87497 0.82548 0.67715 0.0
H344 H 0.9028 0.77642 0.80279 0.0
Cu345 Cu 0.85722 0.72875 0.17779 0.0
N346 N 0.88421 0.74669 0.15557 0.0
N347 N 0.91194 0.75857 0.12113 0.0
C348 C 0.89215 0.74062 0.13198 0.0
C349 C 0.91653 0.77653 0.1385 0.0
C350 C 0.89945 0.76914 0.15973 0.0
O351 O 0.84555 0.69591 0.17429 0.0
C352 C 0.83091 0.74543 0.14307 0.0
O353 O 0.84997 0.75687 0.1272 0.0
H354 H 0.88342 0.72351 0.12278 0.0
H355 H 0.89806 0.77943 0.17692 0.0
N356 N 0.86287 0.73758 0.2171 0.0
N357 N 0.8561 0.7449 0.26268 0.0
C358 C 0.84671 0.73705 0.23572 0.0
C359 C 0.88327 0.74613 0.23261 0.0
C360 C 0.87915 0.7506 0.26073 0.0
C361 C 0.85058 0.68129 0.18496 0.0
O362 O 0.83606 0.65963 0.17862 0.0
H363 H 0.82853 0.73141 0.22928 0.0
H364 H 0.90001 0.74911 0.22403 0.0
O365 O 0.83116 0.73329 0.16434 0.0
H366 H 0.93131 0.79374 0.13617 0.0
H367 H 0.89217 0.75739 0.27833 0.0
Cu368 Cu 0.37339 0.21479 0.17428 0.0
N369 N 0.38865 0.1994 0.16103 0.0
N370 N 0.39365 0.16977 0.15044 0.0
C371 C 0.37813 0.17654 0.15824 0.0
C372 C 0.41479 0.18924 0.14818 0.0
C373 C 0.41167 0.20749 0.1549 0.0
O374 O 0.35783 0.19861 0.21073 0.0
C375 C 0.35214 0.23351 0.13528 0.0
O376 O 0.358 0.24916 0.15577 0.0
H377 H 0.35941 0.16514 0.16196 0.0
H378 H 0.42534 0.22529 0.15594 0.0
N379 N 0.39546 0.24496 0.18403 0.0
N380 N 0.40829 0.27934 0.20428 0.0
C381 C 0.3932 0.25664 0.20639 0.0
C382 C 0.4127 0.26074 0.1672 0.0
C383 C 0.42071 0.28202 0.1797 0.0
C384 C 0.37212 0.198 0.22986 0.0
O385 O 0.39491 0.20893 0.22409 0.0
H386 H 0.3792 0.24884 0.22231 0.0
H387 H 0.41777 0.25725 0.1462 0.0
O388 O 0.35453 0.21613 0.14065 0.0
H389 H 0.43144 0.19021 0.14276 0.0
H390 H 0.43372 0.29823 0.1706 0.0
Cu391 Cu 0.86704 0.2176 0.19038 0.0
N392 N 0.8592 0.21636 0.15088 0.0
N393 N 0.845 0.20136 0.10659 0.0
C394 C 0.8475 0.19707 0.13487 0.0
C395 C 0.85549 0.22438 0.10492 0.0
C396 C 0.86426 0.23358 0.1323 0.0
O397 O 0.84747 0.18711 0.20599 0.0
C398 C 0.91555 0.23493 0.17497 0.0
O399 O 0.9075 0.22711 0.1485 0.0
H400 H 0.84078 0.18022 0.14404 0.0
H401 H 0.87388 0.25153 0.13821 0.0
N402 N 0.861 0.23821 0.21006 0.0
N403 N 0.8663 0.26398 0.24421 0.0
C404 C 0.87191 0.24828 0.23535 0.0
C405 C 0.8481 0.24802 0.20231 0.0
C406 C 0.85149 0.26415 0.2234 0.0
C407 C 0.83711 0.18286 0.23056 0.0
O408 O 0.84212 0.19971 0.24887 0.0
H409 H 0.88456 0.24478 0.24644 0.0
H410 H 0.83768 0.24427 0.18235 0.0
O411 O 0.90092 0.22984 0.19576 0.0
H412 H 0.85706 0.23395 0.08529 0.0
H413 H 0.84409 0.27539 0.22319 0.0
Zn414 Zn 1.00219 0.68044 0.22252 0.0
Zn415 Zn 0.99429 0.65948 0.27026 0.0
O416 O 0.99319 0.63636 0.23805 0.0
O417 O 0.99769 0.65481 0.19698 0.0
O418 O 0.99284 0.64245 0.3085 0.0
O419 O 0.03435 0.70579 0.23214 0.0
O420 O 0.02531 0.69193 0.27653 0.0
C421 C 0.99396 0.63687 0.21008 0.0
C422 C 0.95995 0.67513 0.24856 0.0
O423 O 0.96375 0.66286 0.26681 0.0
O424 O 0.9747 0.68546 0.2285 0.0
C425 C 0.00977 0.63836 0.31337 0.0
O426 O 0.0269 0.64546 0.29419 0.0
C427 C 0.0392 0.70777 0.25918 0.0
Zn428 Zn 0.38058 0.39469 0.32444 0.0
Zn429 Zn 0.40344 0.42871 0.28658 0.0
O430 O 0.42449 0.44094 0.32425 0.0
O431 O 0.406 0.41213 0.35464 0.0
O432 O 0.42187 0.45314 0.2559 0.0
O433 O 0.38396 0.37237 0.29946 0.0
O434 O 0.40322 0.40031 0.26831 0.0
C435 C 0.4231 0.43187 0.3492 0.0
C436 C 0.35209 0.41388 0.30553 0.0
O437 O 0.37062 0.42709 0.29093 0.0
O438 O 0.3518 0.39829 0.32118 0.0
C439 C 0.41714 0.44945 0.22861 0.0
O440 O 0.39889 0.42988 0.2201 0.0
C441 C 0.39523 0.37956 0.27588 0.0
Zn442 Zn 0.66584 0.05351 0.20726 0.0
Zn443 Zn 0.65223 0.05718 0.26112 0.0
O444 O 0.6338 0.06777 0.23487 0.0
O445 O 0.64722 0.06771 0.19088 0.0
O446 O 0.63933 0.05739 0.30083 0.0
O447 O 0.65101 0.01929 0.2113 0.0
O448 O 0.64248 0.0233 0.25657 0.0
C449 C 0.6343 0.07174 0.2076 0.0
C450 C 0.70485 0.08347 0.24543 0.0
O451 O 0.68847 0.07951 0.26359 0.0
O452 O 0.69965 0.07381 0.22053 0.0
C453 C 0.64486 0.07499 0.31644 0.0
O454 O 0.66121 0.09518 0.3073 0.0
C455 C 0.64255 0.01065 0.2359 0.0
Zn456 Zn 0.99256 0.37112 0.80904 0.0
Zn457 Zn 0.01085 0.40083 0.76687 0.0
O458 O 0.98163 0.3722 0.74741 0.0
O459 O 0.96402 0.34983 0.78484 0.0
O460 O 0.02439 0.42413 0.73324 0.0
O461 O 0.99072 0.39374 0.8354 0.0
O462 O 1.0017 0.41766 0.79848 0.0
C463 C 0.96429 0.35402 0.75785 0.0
C464 C 0.03967 0.38091 0.79775 0.0
O465 O 0.03893 0.3954 0.78029 0.0
O466 O 0.02125 0.36729 0.81165 0.0
C467 C 0.01036 0.42699 0.71631 0.0
O468 O 0.9874 0.41481 0.72083 0.0
C469 C 0.9948 0.41267 0.82491 0.0
Zn470 Zn 0.65492 0.67103 0.69138 0.0
Zn471 Zn 0.63887 0.65186 0.74136 0.0
O472 O 0.63511 0.68099 0.74194 0.0
O473 O 0.65086 0.69773 0.70038 0.0
O474 O 0.62213 0.63573 0.779 0.0
O475 O 0.63044 0.645 0.668 0.0
O476 O 0.61908 0.62668 0.70966 0.0
C477 C 0.64123 0.69763 0.7243 0.0
C478 C 0.69051 0.66754 0.72476 0.0
O479 O 0.67454 0.65987 0.74444 0.0
O480 O 0.68598 0.67268 0.69982 0.0
C481 C 0.63134 0.63558 0.80368 0.0
O482 O 0.65458 0.64657 0.80667 0.0
C483 C 0.61737 0.62683 0.68179 0.0
Zn484 Zn 0.39785 0.07202 0.81838 0.0
Zn485 Zn 0.41529 0.06059 0.77162 0.0
O486 O 0.41478 0.08937 0.75872 0.0
O487 O 0.4011 0.09932 0.79653 0.0
O488 O 0.4309 0.05488 0.73741 0.0
O489 O 0.42508 0.0759 0.84338 0.0
O490 O 0.43798 0.06491 0.80584 0.0
C491 C 0.40912 0.10294 0.77081 0.0
C492 C 0.36676 0.02617 0.79438 0.0
O493 O 0.38271 0.03162 0.77515 0.0
O494 O 0.36917 0.04021 0.81442 0.0
C495 C 0.44065 0.04262 0.7393 0.0
O496 O 0.43949 0.03222 0.76401 0.0
C497 C 0.43993 0.07113 0.83255 0.0
Zn498 Zn 0.68466 0.0156 0.51916 0.0
Zn499 Zn 0.67651 0.99208 0.56717 0.0
O500 O 0.68034 0.97226 0.53343 0.0
O501 O 0.68939 0.99388 0.49433 0.0
O502 O 0.67421 0.97504 0.60648 0.0
O503 O 0.7122 0.044 0.53499 0.0
O504 O 0.70554 0.02528 0.57632 0.0
C505 C 0.68558 0.97547 0.50619 0.0
C506 C 0.63855 1.00283 0.54204 0.0
O507 O 0.64462 0.99338 0.56211 0.0
O508 O 0.65257 0.01293 0.52121 0.0
C509 C 0.67915 0.95911 0.61097 0.0
O510 O 0.68538 0.95103 0.5887 0.0
C511 C 0.71726 0.04373 0.5617 0.0
Zn512 Zn 0.05576 0.73406 0.64879 0.0
Zn513 Zn 0.07046 0.75936 0.60129 0.0
O514 O 0.09281 0.78024 0.63476 0.0
O515 O 0.08078 0.75901 0.67417 0.0
O516 O 0.08561 0.77879 0.56494 0.0
O517 O 0.05903 0.70858 0.63196 0.0
O518 O 0.06935 0.72851 0.59128 0.0
C519 C 0.0945 0.77796 0.66225 0.0
C520 C 0.02027 0.74295 0.62333 0.0
O521 O 0.0365 0.75521 0.60517 0.0
O522 O 0.02423 0.73219 0.64321 0.0
C523 C 0.08835 0.79878 0.56328 0.0
O524 O 0.08035 0.80608 0.58458 0.0
C525 C 0.0644 0.71028 0.60523 0.0
Zn526 Zn 0.36923 0.43474 0.58756 0.0
Zn527 Zn 0.34877 0.43263 0.63729 0.0
O528 O 0.32353 0.42868 0.60608 0.0
O529 O 0.33999 0.42741 0.56487 0.0
O530 O 0.33165 0.42866 0.67515 0.0
O531 O 0.37641 0.41026 0.59844 0.0
O532 O 0.35762 0.40698 0.63944 0.0
C533 C 0.32268 0.4266 0.57828 0.0
C534 C 0.39263 0.47686 0.62008 0.0
O535 O 0.37733 0.4657 0.63956 0.0
O536 O 0.3926 0.46749 0.59611 0.0
C537 C 0.32415 0.44208 0.68253 0.0
O538 O 0.32805 0.45912 0.66525 0.0
C539 C 0.36881 0.40052 0.62272 0.0
Zn540 Zn 0.67528 0.75231 0.11381 0.0
Zn541 Zn 0.68762 0.77632 0.067 0.0
O542 O 0.65965 0.74323 0.05566 0.0
O543 O 0.64577 0.72554 0.09729 0.0
O544 O 0.69044 0.79495 0.02942 0.0
O545 O 0.67449 0.77542 0.14009 0.0
O546 O 0.68186 0.79561 0.09983 0.0
C547 C 0.64465 0.72552 0.06966 0.0
C548 C 0.72221 0.76336 0.09451 0.0
O549 O 0.7192 0.77528 0.07486 0.0
O550 O 0.70569 0.75182 0.11224 0.0
C551 C 0.70017 0.7973 1.00451 0.0
O552 O 0.71244 0.78703 0.99947 0.0
C553 C 0.67785 0.79337 0.12738 0.0
Zn554 Zn 0.33633 1.00378 0.08456 0.0
Zn555 Zn 0.31303 0.98434 0.12868 0.0
O556 O 0.32646 0.01911 0.13798 0.0
O557 O 0.35266 0.03467 0.10308 0.0
O558 O 0.29131 0.96815 0.16329 0.0
O559 O 0.30902 0.99601 0.05813 0.0
O560 O 0.28877 0.97186 0.0929 0.0
C561 C 0.34327 0.03685 0.12602 0.0
C562 C 0.35279 0.976 0.10788 0.0
O563 O 0.33997 0.97568 0.1291 0.0
O564 O 0.35218 0.98501 0.08392 0.0
C565 C 0.29402 0.95844 0.18577 0.0
O566 O 0.3138 0.95785 0.18928 0.0
C567 C 0.28972 0.97968 0.06716 0.0
Zn568 Zn 0.05374 0.402 0.17673 0.0
Zn569 Zn 0.07753 0.39395 0.13395 0.0
O570 O 0.06641 0.4142 0.11446 0.0
O571 O 0.04836 0.42241 0.14899 0.0
O572 O 0.09695 0.39128 0.10198 0.0
O573 O 0.08335 0.41658 0.20173 0.0
O574 O 0.10195 0.40883 0.16751 0.0
C575 C 0.05561 0.42448 0.12297 0.0
C576 C 0.03365 0.35378 0.1598 0.0
O577 O 0.0505 0.36144 0.1415 0.0
O578 O 0.03149 0.36736 0.17706 0.0
C579 C 0.08795 0.37866 0.07946 0.0
O580 O 0.06479 0.36542 0.07737 0.0
C581 C 0.10196 0.41723 0.1925 0.0
Zn582 Zn 0.36216 0.34941 0.89202 0.0
Zn583 Zn 0.35008 0.3239 0.93691 0.0
O584 O 0.35495 0.30434 0.90347 0.0
O585 O 0.36638 0.32815 0.86637 0.0
O586 O 0.34413 0.30584 0.97598 0.0
O587 O 0.38945 0.37706 0.90976 0.0
O588 O 0.37996 0.35603 0.94933 0.0
C589 C 0.36104 0.30881 0.87659 0.0
C590 C 0.31484 0.33637 0.9072 0.0
O591 O 0.31893 0.32617 0.92823 0.0
O592 O 0.33093 0.3477 0.88895 0.0
C593 C 0.34502 0.28763 0.98108 0.0
O594 O 0.34896 0.27732 0.95927 0.0
C595 C 0.3931 0.37511 0.93652 0.0
Zn596 Zn 0.72809 0.05126 0.99251 0.0
Zn597 Zn 0.73815 0.08037 0.94828 0.0
O598 O 0.76286 0.09703 0.98132 0.0
O599 O 0.75721 0.07253 0.01618 0.0
O600 O 0.75408 0.10255 0.91471 0.0
O601 O 0.72636 0.0262 0.96709 0.0
O602 O 0.73162 0.04951 0.9308 0.0
C603 C 0.76877 0.09253 1.00602 0.0
C604 C 0.69235 0.0653 0.97901 0.0
O605 O 0.7062 0.07765 0.95874 0.0
O606 O 0.69814 0.05361 0.99533 0.0
C607 C 0.75071 0.09705 0.8877 0.0
O608 O 0.7337 0.07652 0.88006 0.0
C609 C 0.72718 0.02994 0.9399 0.0
Zn610 Zn 0.01805 0.7129 0.89983 0.0
Zn611 Zn 1.00074 0.72155 0.94938 0.0
O612 O 0.98071 0.72462 0.91682 0.0
O613 O 0.99392 0.71735 0.87639 0.0
O614 O 0.98569 0.72478 0.98619 0.0
O615 O 0.01103 0.68223 0.91492 0.0
O616 O 0.997 0.68975 0.9545 0.0
C617 C 0.98007 0.72265 0.88907 0.0
C618 C 0.0525 0.75275 0.93283 0.0
O619 O 0.03528 0.74808 0.94989 0.0
O620 O 0.04951 0.74026 0.91067 0.0
C621 C 0.98196 0.74129 0.99087 0.0
O622 O 0.98912 0.75779 0.97161 0.0
C623 C 1.00182 0.67651 0.93993 0.0
Zn624 Zn 0.33913 0.08451 0.48295 0.0
Zn625 Zn 0.3582 0.10936 0.43639 0.0
O626 O 0.3252 0.08123 0.42371 0.0
O627 O 0.3075 0.06386 0.46424 0.0
O628 O 0.36803 0.12891 0.39841 0.0
O629 O 0.34353 0.11052 0.50825 0.0
O630 O 0.35936 0.1321 0.46966 0.0
C631 C 0.30715 0.06542 0.43672 0.0
C632 C 0.38153 0.0837 0.46336 0.0
O633 O 0.38306 0.09829 0.44433 0.0
O634 O 0.36446 0.07542 0.48116 0.0
C635 C 0.35299 0.13105 0.3823 0.0
O636 O 0.33066 0.12075 0.39023 0.0
C637 C 0.35312 0.13001 0.49654 0.0
Zn638 Zn 0.98744 0.37408 0.396 0.0
Zn639 Zn 0.96961 0.34654 0.44107 0.0
O640 O 0.96511 0.374 0.45438 0.0
O641 O 0.98155 0.39675 0.41672 0.0
O642 O 0.95494 0.32152 0.47186 0.0
O643 O 0.96221 0.353 0.36827 0.0
O644 O 0.94817 0.32906 0.40508 0.0
C645 C 0.97099 0.39267 0.44094 0.0
C646 C 0.02117 0.3636 0.42049 0.0
O647 O 1.00465 0.35318 0.43904 0.0
O648 O 0.01808 0.37383 0.3992 0.0
C649 C 0.95968 0.32277 0.49912 0.0
O650 O 0.97526 0.34256 0.51071 0.0
C651 C 0.94696 0.33388 0.37835 0.0
Zn652 Zn 0.74155 0.7471 0.49705 0.0
Zn653 Zn 0.76463 0.75101 0.44915 0.0
O654 O 0.74517 0.76671 0.4381 0.0
O655 O 0.72307 0.75964 0.47712 0.0
O656 O 0.78291 0.7529 0.4126 0.0
O657 O 0.77095 0.7677 0.51958 0.0
O658 O 0.79081 0.76644 0.48163 0.0
C659 C 0.72844 0.76749 0.45151 0.0
C660 C 0.72961 0.70385 0.47399 0.0
O661 O 0.74243 0.71635 0.45327 0.0
O662 O 0.72787 0.71301 0.49731 0.0
C663 C 0.77144 0.74139 0.39011 0.0
O664 O 0.74813 0.7295 0.39103 0.0
C665 C 0.79047 0.77265 0.50794 0.0
H666 H 0.01725 0.46351 0.02577 0.0
H667 H 0.03705 0.51665 0.09049 0.0
H668 H 0.05414 0.49884 0.12175 0.0
H669 H 0.05883 0.46547 0.13278 0.0
H670 H 0.04118 0.41371 0.0665 0.0
H671 H 0.0279 0.43368 0.03341 0.0
C672 C 0.02588 0.47144 0.04641 0.0
C673 C 0.02593 0.49117 0.0561 0.0
C674 C 0.03565 0.46117 0.06401 0.0
C675 C 0.0371 0.50151 0.08269 0.0
C676 C 0.0466 0.49121 0.10062 0.0
C677 C 0.05232 0.45879 0.11094 0.0
C678 C 0.05049 0.43803 0.10211 0.0
C679 C 0.04523 0.47062 0.09189 0.0
C680 C 0.04254 0.42964 0.07367 0.0
C681 C 0.03493 0.441 0.05483 0.0
H682 H 0.59211 0.63457 0.99418 0.0
H683 H 0.54958 0.61094 0.0718 0.0
H684 H 0.57201 0.64924 0.09347 0.0
H685 H 0.60514 0.68889 0.09148 0.0
H686 H 0.64671 0.71308 0.01314 0.0
H687 H 0.62297 0.67529 0.99046 0.0
C688 C 0.58773 0.63783 0.01582 0.0
C689 C 0.56938 0.61982 0.03152 0.0
C690 C 0.60046 0.66004 0.02795 0.0
C691 C 0.56364 0.62444 0.0593 0.0
C692 C 0.57649 0.64635 0.07171 0.0
C693 C 0.60884 0.68601 0.06929 0.0
C694 C 0.62784 0.70385 0.05414 0.0
C695 C 0.59511 0.66422 0.05638 0.0
C696 C 0.63219 0.69978 0.0253 0.0
C697 C 0.61872 0.67808 0.01239 0.0
H698 H 0.45697 1.00212 0.1116 0.0
H699 H 0.43599 0.96649 0.02888 0.0
H700 H 0.39422 0.94883 0.04209 0.0
H701 H 0.36467 0.95241 0.07094 0.0
H702 H 0.38534 0.98992 0.15235 0.0
H703 H 0.42599 0.99734 0.14666 0.0
C704 C 0.44323 0.98951 0.09727 0.0
C705 C 0.44938 0.98541 0.06942 0.0
C706 C 0.41915 0.98016 0.10461 0.0
C707 C 0.43155 0.96957 0.05057 0.0
C708 C 0.40767 0.95973 0.05799 0.0
C709 C 0.37784 0.9612 0.08813 0.0
C710 C 0.3722 0.97085 0.11181 0.0
C711 C 0.4013 0.96612 0.08407 0.0
C712 C 0.38928 0.98225 0.13399 0.0
C713 C 0.41264 0.98682 0.13046 0.0
H714 H 0.43386 0.0278 0.48657 0.0
H715 H 0.49622 0.09438 0.47898 0.0
H716 H 0.47117 0.11088 0.46626 0.0
H717 H 0.43078 0.10665 0.46016 0.0
H718 H 0.36927 0.03969 0.46979 0.0
H719 H 0.39462 0.02323 0.47837 0.0
C720 C 0.4421 0.04592 0.48199 0.0
C721 C 0.46698 0.05976 0.48394 0.0
C722 C 0.4276 0.05531 0.47494 0.0
C723 C 0.47714 0.08323 0.47774 0.0
C724 C 0.46279 0.09271 0.47047 0.0
C725 C 0.42303 0.08843 0.46361 0.0
C726 C 0.39809 0.07443 0.46429 0.0
C727 C 0.43789 0.07897 0.46932 0.0
C728 C 0.38835 0.05088 0.46924 0.0
C729 C 0.40285 0.04141 0.47424 0.0
H730 H 0.95501 0.47614 0.45055 0.0
H731 H 0.98047 0.47811 0.53861 0.0
H732 H 0.9781 0.44121 0.53085 0.0
H733 H 0.97508 0.41138 0.49593 0.0
H734 H 0.95105 0.41118 0.40755 0.0
H735 H 0.94631 0.44392 0.41859 0.0
C736 C 0.95949 0.46825 0.4683 0.0
C737 C 0.96828 0.48013 0.49489 0.0
C738 C 0.95865 0.44731 0.46346 0.0
C739 C 0.97375 0.46948 0.51779 0.0
C740 C 0.9726 0.44839 0.51329 0.0
C741 C 0.96822 0.4182 0.47946 0.0
C742 C 0.96372 0.4091 0.45088 0.0
C743 C 0.96604 0.43758 0.48577 0.0
C744 C 0.95493 0.41811 0.42961 0.0
C745 C 0.95222 0.43686 0.43587 0.0
H746 H 0.64022 0.61388 0.43421 0.0
H747 H 0.6342 0.60442 0.52761 0.0
H748 H 0.67438 0.63641 0.53468 0.0
H749 H 0.70772 0.67121 0.51495 0.0
H750 H 0.71358 0.68157 0.42161 0.0
H751 H 0.67738 0.64486 0.41379 0.0
C752 C 0.648 0.61858 0.456 0.0
C753 C 0.6342 0.6071 0.48033 0.0
C754 C 0.671 0.63727 0.45993 0.0
C755 C 0.64448 0.61298 0.5085 0.0
C756 C 0.6674 0.63141 0.51259 0.0
C757 C 0.70143 0.66512 0.49286 0.0
C758 C 0.71295 0.67928 0.46896 0.0
C759 C 0.68035 0.64429 0.48856 0.0
C760 C 0.70492 0.67104 0.44042 0.0
C761 C 0.68407 0.65015 0.43593 0.0
H762 H 0.96826 0.58264 1.00248 0.0
H763 H 0.02875 0.58764 0.9578 0.0
H764 H 0.03713 0.62439 0.93689 0.0
H765 H 0.02632 0.65438 0.93052 0.0
H766 H 0.96723 0.65006 0.97809 0.0
H767 H 0.95908 0.61351 0.99875 0.0
C768 C 0.98328 0.59179 0.98813 0.0
C769 C 0.99772 0.58247 0.98127 0.0
C770 C 0.9881 0.61286 0.97672 0.0
C771 C 0.01742 0.59461 0.96325 0.0
C772 C 0.02212 0.61549 0.95126 0.0
C773 C 0.01162 0.64535 0.94533 0.0
C774 C 0.99717 0.65464 0.95254 0.0
C775 C 0.00741 0.62465 0.95764 0.0
C776 C 0.9785 0.64312 0.9722 0.0
C777 C 0.97384 0.62227 0.98398 0.0
H778 H 0.471 0.45406 0.01821 0.0
H779 H 0.46962 0.4949 0.94642 0.0
H780 H 0.44016 0.46048 0.92079 0.0
H781 H 0.41452 0.41909 0.91864 0.0
H782 H 0.41354 0.37749 0.99075 0.0
H783 H 0.44413 0.41184 0.01634 0.0
C784 C 0.46431 0.45538 0.99689 0.0
C785 C 0.47266 0.47713 0.98424 0.0
C786 C 0.44691 0.43539 0.98235 0.0
C787 C 0.46355 0.4785 0.95676 0.0
C788 C 0.44669 0.45878 0.94202 0.0
C789 C 0.42102 0.4174 0.93991 0.0
C790 C 0.41179 0.3956 0.9526 0.0
C791 C 0.43822 0.43718 0.9546 0.0
C792 C 0.4203 0.39397 0.98039 0.0
C793 C 0.43782 0.41364 0.99502 0.0
H794 H 0.59678 0.06807 0.98287 0.0
H795 H 0.57957 0.01463 0.04594 0.0
H796 H 0.61856 0.01814 0.03902 0.0
H797 H 0.65742 0.03661 0.01545 0.0
H798 H 0.67439 0.08984 0.95208 0.0
H799 H 0.63538 0.08622 0.95894 0.0
C800 C 0.60147 0.05712 0.99514 0.0
C801 C 0.58525 0.04111 0.01497 0.0
C802 C 0.62385 0.05928 0.99109 0.0
C803 C 0.59167 0.02705 0.03053 0.0
C804 C 0.61398 0.0291 0.02662 0.0
C805 C 0.65269 0.04752 1.00315 0.0
C806 C 0.66893 0.06358 0.98333 0.0
C807 C 0.63022 0.04522 1.00705 0.0
C808 C 0.66232 0.0774 0.96749 0.0
C809 C 0.64001 0.0753 0.97139 0.0
H810 H 0.53434 0.98876 0.55143 0.0
H811 H 0.55678 0.02799 0.47251 0.0
H812 H 0.59672 0.03382 0.47899 0.0
H813 H 0.62379 0.02409 0.50389 0.0
H814 H 0.60098 0.98115 0.58024 0.0
H815 H 0.56256 0.97988 0.5778 0.0
C816 C 0.54829 0.99919 0.53626 0.0
C817 C 0.54318 0.00958 0.51263 0.0
C818 C 0.57088 1.00104 0.53922 0.0
C819 C 0.56094 0.02189 0.49225 0.0
C820 C 0.58355 0.02446 0.49548 0.0
C821 C 0.61056 0.01449 0.52022 0.0
C822 C 0.61537 1.00253 0.54213 0.0
C823 C 0.58855 0.0137 0.51851 0.0
C824 C 0.59785 0.99039 0.56305 0.0
C825 C 0.57585 0.9897 0.56166 0.0
H826 H 0.06401 0.63281 0.5269 0.0
H827 H 0.00926 0.59032 0.58755 0.0
H828 H 0.0147 0.62441 0.61337 0.0
H829 H 0.0352 0.6661 0.61895 0.0
H830 H 0.08799 0.70891 0.55653 0.0
H831 H 0.08324 0.67479 0.5311 0.0
C832 C 0.05326 0.63102 0.54577 0.0
C833 C 0.03635 0.60906 0.55545 0.0
C834 C 0.05624 0.6507 0.5602 0.0
C835 C 0.02233 0.60701 0.57965 0.0
C836 C 0.02551 0.62649 0.59448 0.0
C837 C 0.04583 0.66799 0.59991 0.0
C838 C 0.06222 0.68999 0.58987 0.0
C839 C 0.0425 0.64838 0.58504 0.0
C840 C 0.07541 0.69216 0.56476 0.0
C841 C 0.07266 0.67267 0.55024 0.0
H842 H 0.47277 0.56537 0.57493 0.0
H843 H 0.51273 0.53979 0.62098 0.0
H844 H 0.47758 0.51372 0.64867 0.0
H845 H 0.434 0.4913 0.64852 0.0
H846 H 0.39366 0.51451 0.59863 0.0
H847 H 0.43018 0.54888 0.58453 0.0
C848 C 0.47397 0.55484 0.592 0.0
C849 C 0.49499 0.55398 0.59553 0.0
C850 C 0.4534 0.53922 0.60684 0.0
C851 C 0.49647 0.54029 0.61764 0.0
C852 C 0.47637 0.52533 0.63332 0.0
C853 C 0.43327 0.50459 0.63598 0.0
C854 C 0.4114 0.5006 0.6246 0.0
C855 C 0.45441 0.52355 0.62656 0.0
C856 C 0.41043 0.51751 0.60782 0.0
C857 C 0.43133 0.53695 0.59938 0.0
H858 H 0.65435 0.79536 0.4065 0.0
H859 H 0.70184 0.81969 0.33355 0.0
H860 H 0.72691 0.80634 0.35664 0.0
H861 H 0.73556 0.78829 0.39827 0.0
H862 H 0.68845 0.76568 0.47211 0.0
H863 H 0.66315 0.77788 0.44812 0.0
C864 C 0.67002 0.79741 0.39558 0.0
C865 C 0.67622 0.80826 0.36839 0.0
C866 C 0.68455 0.79022 0.40928 0.0
C867 C 0.69683 0.81135 0.35458 0.0
C868 C 0.71113 0.80376 0.36777 0.0
C869 C 0.71981 0.78611 0.40912 0.0
C870 C 0.71401 0.7761 0.43696 0.0
C871 C 0.70527 0.79333 0.39528 0.0
C872 C 0.69349 0.77342 0.45073 0.0
C873 C 0.67888 0.7803 0.437 0.0
H874 H 0.2363 0.97838 0.36263 0.0
H875 H 0.1895 0.97242 0.43224 0.0
H876 H 0.22014 0.0089 0.45319 0.0
H877 H 0.26133 0.04086 0.45377 0.0
H878 H 0.30768 0.04828 0.38271 0.0
H879 H 0.27611 0.01319 0.35986 0.0
C880 C 0.23287 0.98529 0.38222 0.0
C881 C 0.21086 0.97275 0.39612 0.0
C882 C 0.25045 0.00651 0.39377 0.0
C883 C 0.20633 0.98187 0.42124 0.0
C884 C 0.22386 1.00265 0.43323 0.0
C885 C 0.26437 0.035 0.43301 0.0
C886 C 0.28686 0.04705 0.42006 0.0
C887 C 0.24612 0.01492 0.41997 0.0
C888 C 0.2905 0.03938 0.39304 0.0
C889 C 0.27251 0.0192 0.38011 0.0
H890 H 0.12174 0.37551 0.45117 0.0
H891 H 0.12729 0.38118 0.3571 0.0
H892 H 0.08623 0.3725 0.35324 0.0
H893 H 0.05015 0.36715 0.37658 0.0
H894 H 0.04357 0.36075 0.47031 0.0
H895 H 0.0836 0.36575 0.47429 0.0
C896 C 0.11387 0.37448 0.42979 0.0
C897 C 0.1278 0.37931 0.4045 0.0
C898 C 0.09015 0.36963 0.42767 0.0
C899 C 0.11715 0.37769 0.37697 0.0
C900 C 0.09365 0.37284 0.37471 0.0
C901 C 0.05741 0.3667 0.3979 0.0
C902 C 0.04411 0.36399 0.42317 0.0
C903 C 0.08024 0.36945 0.39994 0.0
C904 C 0.05352 0.36294 0.45056 0.0
C905 C 0.07642 0.36586 0.45282 0.0
H906 H 0.14287 0.39648 0.82417 0.0
H907 H 0.10146 0.33421 0.87249 0.0
H908 H 0.06493 0.33227 0.85503 0.0
H909 H 0.04465 0.34919 0.82867 0.0
H910 H 0.08528 0.4117 0.78067 0.0
H911 H 0.12211 0.41242 0.79513 0.0
C912 C 0.12586 0.38235 0.83067 0.0
C913 C 0.12505 0.36556 0.84983 0.0
C914 C 0.10473 0.38141 0.82069 0.0
C915 C 0.10276 0.34742 0.85792 0.0
C916 C 0.08179 0.3463 0.84796 0.0
C917 C 0.06151 0.36296 0.82112 0.0
C918 C 0.06208 0.38048 0.80371 0.0
C919 C 0.08256 0.36337 0.82974 0.0
C920 C 0.08421 0.398 0.79405 0.0
C921 C 0.10531 0.39845 0.80244 0.0
H922 H 0.64405 0.79181 0.73946 0.0
H923 H 0.60183 0.75794 0.81464 0.0
H924 H 0.60239 0.72293 0.80171 0.0
H925 H 0.61702 0.7027 0.77013 0.0
H926 H 0.65902 0.73756 0.69475 0.0
H927 H 0.65654 0.77131 0.70677 0.0
C928 C 0.63492 0.77672 0.75294 0.0
C929 C 0.62308 0.77749 0.77801 0.0
C930 C 0.63544 0.75683 0.74544 0.0
C931 C 0.61094 0.75771 0.79508 0.0
C932 C 0.61143 0.73776 0.78781 0.0
C933 C 0.62552 0.71764 0.75631 0.0
C934 C 0.63831 0.71752 0.73167 0.0
C935 C 0.62394 0.73722 0.76323 0.0
C936 C 0.64907 0.73704 0.71388 0.0
C937 C 0.64771 0.75646 0.72071 0.0
H938 H 0.27097 0.93307 0.77768 0.0
H939 H 0.27665 0.93486 0.87205 0.0
H940 H 0.31544 0.96922 0.86986 0.0
H941 H 0.34556 1.00112 0.84175 0.0
H942 H 0.34127 0.99948 0.74755 0.0
H943 H 0.30406 0.96266 0.74904 0.0
C944 C 0.28088 0.94071 0.79774 0.0
C945 C 0.27065 0.93157 0.825 0.0
C946 C 0.30322 0.9607 0.79639 0.0
C947 C 0.28391 0.94158 0.85076 0.0
C948 C 0.30608 0.96135 0.84958 0.0
C949 C 0.33651 0.9926 0.82154 0.0
C950 C 0.34572 1.00308 0.79461 0.0
C951 C 0.31548 0.97146 0.82261 0.0
C952 C 0.33429 0.99172 0.76853 0.0
C953 C 0.31306 0.97073 0.76941 0.0
H954 H 0.62697 0.91121 0.24667 0.0
H955 H 0.59947 0.91574 0.33021 0.0
H956 H 0.6035 0.95253 0.31674 0.0
H957 H 0.61933 0.98539 0.28349 0.0
H958 H 0.64748 0.98092 0.20013 0.0
H959 H 0.6387 0.94219 0.21122 0.0
C960 C 0.62156 0.92016 0.26169 0.0
C961 C 0.61316 0.91092 0.28942 0.0
C962 C 0.62434 0.94145 0.25399 0.0
C963 C 0.60585 0.92243 0.30864 0.0
C964 C 0.60839 0.94359 0.30106 0.0
C965 C 0.62331 0.97586 0.26761 0.0
C966 C 0.6344 0.98621 0.24122 0.0
C967 C 0.61832 0.95358 0.27416 0.0
C968 C 0.63911 0.97347 0.22071 0.0
C969 C 0.63414 0.95131 0.22704 0.0
H970 H 0.11575 0.81142 0.27617 0.0
H971 H 0.09091 0.79768 0.36458 0.0
H972 H 0.06536 0.75685 0.35249 0.0
H973 H 0.04783 0.72574 0.31508 0.0
H974 H 0.07495 0.74026 0.22718 0.0
H975 H 0.1022 0.77981 0.24079 0.0
C976 C 0.10479 0.79935 0.29269 0.0
C977 C 0.10473 0.80733 0.32098 0.0
C978 C 0.09067 0.77603 0.28567 0.0
C979 C 0.09094 0.79171 0.34259 0.0
C980 C 0.07641 0.76846 0.33565 0.0
C981 C 0.06009 0.73742 0.29913 0.0
C982 C 0.05902 0.73001 0.27002 0.0
C983 C 0.07583 0.76044 0.30707 0.0
C984 C 0.07511 0.74547 0.24965 0.0
C985 C 0.09069 0.76819 0.25734 0.0
H986 H 0.27895 0.44857 0.32071 0.0
H987 H 0.23727 0.38096 0.35662 0.0
H988 H 0.26787 0.37184 0.3429 0.0
H989 H 0.30786 0.38423 0.32486 0.0
H990 H 0.34981 0.45186 0.28915 0.0
H991 H 0.31749 0.45969 0.29828 0.0
C992 C 0.27643 0.43175 0.32529 0.0
C993 C 0.25593 0.41556 0.34 0.0
C994 C 0.29417 0.42666 0.31747 0.0
C995 C 0.25285 0.39376 0.34541 0.0
C996 C 0.2704 0.38856 0.33766 0.0
C997 C 0.30989 0.40062 0.31875 0.0
C998 C 0.33139 0.41755 0.30665 0.0
C999 C 0.29135 0.40506 0.32431 0.0
C1000 C 0.33351 0.43855 0.29851 0.0
C1001 C 0.31507 0.44308 0.3039 0.0
H1002 H 0.23166 0.35149 0.86377 0.0
H1003 H 0.21693 0.34633 0.95608 0.0
H1004 H 0.24751 0.33607 0.96546 0.0
H1005 H 0.28185 0.33275 0.94793 0.0
H1006 H 0.29589 0.33829 0.85536 0.0
H1007 H 0.26231 0.34385 0.84581 0.0
C1008 C 0.23484 0.34777 0.8859 0.0
C1009 C 0.22211 0.34996 0.90912 0.0
C1010 C 0.25263 0.34207 0.89125 0.0
C1011 C 0.22646 0.34489 0.93766 0.0
C1012 C 0.24408 0.3391 0.94313 0.0
C1013 C 0.2772 0.33468 0.92568 0.0
C1014 C 0.29166 0.33542 0.90251 0.0
C1015 C 0.25778 0.33823 0.92018 0.0
C1016 C 0.28536 0.338 0.87374 0.0
C1017 C 0.2661 0.3412 0.86816 0.0
H1018 H 0.6763 0.9547 0.8417 0.0
H1019 H 0.67471 0.91138 0.9116 0.0
H1020 H 0.69704 0.94484 0.94362 0.0
H1021 H 0.71583 0.9862 0.95185 0.0
H1022 H 0.71875 0.02983 0.88111 0.0
H1023 H 0.6977 0.99659 0.84895 0.0
C1024 C 0.68068 0.95274 0.86407 0.0
C1025 C 0.67353 0.93079 0.87474 0.0
C1026 C 0.69407 0.97207 0.88191 0.0
C1027 C 0.67985 0.92823 0.90334 0.0
C1028 C 0.69268 0.9473 0.92146 0.0
C1029 C 0.71219 0.98852 0.92929 0.0
C1030 C 0.71874 0.01051 0.91904 0.0
C1031 C 0.69984 0.9693 0.91098 0.0
C1032 C 0.71396 0.01314 0.88965 0.0
C1033 C 0.70171 0.9941 0.87127 0.0
H1034 H 0.13513 0.85407 0.93638 0.0
H1035 H 0.16699 0.82537 0.88068 0.0
H1036 H 0.13473 0.78686 0.89126 0.0
H1037 H 0.09459 0.76225 0.90978 0.0
H1038 H 0.062 0.79107 0.96404 0.0
H1039 H 0.09771 0.82869 0.961 0.0
C1040 C 0.13524 0.83935 0.927 0.0
C1041 C 0.15311 0.84252 0.90733 0.0
C1042 C 0.11642 0.81736 0.93269 0.0
C1043 C 0.15334 0.82335 0.89575 0.0
C1044 C 0.13481 0.80135 0.90164 0.0
C1045 C 0.09545 0.77669 0.92137 0.0
C1046 C 0.07553 0.77403 0.93658 0.0
C1047 C 0.11579 0.79827 0.91905 0.0
C1048 C 0.07705 0.79273 0.95201 0.0
C1049 C 0.0974 0.81426 0.95012 0.0
H1050 H 0.41836 0.18224 0.6895 0.0
H1051 H 0.43796 0.21846 0.77194 0.0
H1052 H 0.43398 0.18461 0.79653 0.0
H1053 H 0.42257 0.14409 0.79495 0.0
H1054 H 0.4049 0.1081 0.71228 0.0
H1055 H 0.41029 0.14243 0.68722 0.0
C1056 C 0.42199 0.18266 0.71278 0.0
C1057 C 0.42838 0.20266 0.72897 0.0
C1058 C 0.4197 0.16317 0.72667 0.0
C1059 C 0.43327 0.20329 0.75905 0.0
C1060 C 0.43077 0.1839 0.77313 0.0
C1061 C 0.41988 0.1438 0.77145 0.0
C1062 C 0.41297 0.12362 0.75545 0.0
C1063 C 0.42358 0.16365 0.75723 0.0
C1064 C 0.41008 0.12349 0.72497 0.0
C1065 C 0.41316 0.14307 0.71069 0.0
H1066 H 0.90321 0.27231 0.67255 0.0
H1067 H 0.85606 0.25074 0.74586 0.0
H1068 H 0.88041 0.28819 0.76934 0.0
H1069 H 0.91902 0.32378 0.77289 0.0
H1070 H 0.96685 0.34494 0.70003 0.0
H1071 H 0.93824 0.31107 0.67218 0.0
C1072 C 0.89772 0.27625 0.69303 0.0
C1073 C 0.87776 0.259 0.70737 0.0
C1074 C 0.91229 0.2975 0.70674 0.0
C1075 C 0.87104 0.26397 0.73419 0.0
C1076 C 0.88521 0.28524 0.7478 0.0
C1077 C 0.92297 0.32122 0.75067 0.0
C1078 C 0.94523 0.33659 0.73873 0.0
C1079 C 0.9065 0.30165 0.73493 0.0
C1080 C 0.94993 0.3333 0.70976 0.0
C1081 C 0.93361 0.31387 0.6939 0.0
H1082 H 0.79712 0.70705 0.7641 0.0
H1083 H 0.80422 0.70107 0.67113 0.0
H1084 H 0.76114 0.68134 0.66502 0.0
H1085 H 0.72204 0.66994 0.68496 0.0
H1086 H 0.71434 0.6763 0.77755 0.0
H1087 H 0.75708 0.69137 0.785 0.0
C1088 C 0.78926 0.70114 0.74254 0.0
C1089 C 0.80401 0.70588 0.71803 0.0
C1090 C 0.76438 0.69 0.7391 0.0
C1091 C 0.79342 0.69784 0.69035 0.0
C1092 C 0.76874 0.6866 0.6868 0.0
C1093 C 0.72963 0.67432 0.70688 0.0
C1094 C 0.71508 0.67232 0.73064 0.0
C1095 C 0.75415 0.68324 0.71086 0.0
C1096 C 0.72513 0.6777 0.75891 0.0
C1097 C 0.7496 0.68648 0.76312 0.0
H1098 H 0.82378 0.77071 0.10095 0.0
H1099 H 0.78841 0.72235 0.1703 0.0
H1100 H 0.75223 0.72352 0.16054 0.0
H1101 H 0.73065 0.73814 0.13337 0.0
H1102 H 0.76451 0.7869 0.06417 0.0
H1103 H 0.80125 0.78556 0.07278 0.0
C1104 C 0.80814 0.76041 0.11389 0.0
C1105 C 0.80897 0.74645 0.13641 0.0
C1106 C 0.78713 0.7612 0.10821 0.0
C1107 C 0.78847 0.73326 0.15291 0.0
C1108 C 0.76768 0.7339 0.14734 0.0
C1109 C 0.74597 0.74857 0.11997 0.0
C1110 C 0.7447 0.76267 0.09811 0.0
C1111 C 0.76684 0.74781 0.12517 0.0
C1112 C 0.76489 0.77588 0.08111 0.0
C1113 C 0.78591 0.77513 0.0861 0.0
H1114 H 0.35885 0.13112 0.17473 0.0
H1115 H 0.41708 0.15625 0.11443 0.0
H1116 H 0.4076 0.11721 0.10357 0.0
H1117 H 0.38158 0.07615 0.10884 0.0
H1118 H 0.32249 0.05025 0.16791 0.0
H1119 H 0.33356 0.08949 0.1817 0.0
C1120 C 0.36939 0.12806 0.15912 0.0
C1121 C 0.38857 0.14666 0.14524 0.0
C1122 C 0.36369 0.10547 0.15276 0.0
C1123 C 0.40237 0.14235 0.12558 0.0
C1124 C 0.39687 0.12 0.11923 0.0
C1125 C 0.37113 0.07899 0.12489 0.0
C1126 C 0.35108 0.06025 0.13713 0.0
C1127 C 0.37741 0.10146 0.13239 0.0
C1128 C 0.33798 0.06434 0.15813 0.0
C1129 C 0.34424 0.08678 0.1659 0.0
H1130 H 0.95081 0.25355 0.13465 0.0
H1131 H 0.93542 0.26029 0.22462 0.0
H1132 H 0.97188 0.29707 0.22848 0.0
H1133 H 0.00533 0.32948 0.20458 0.0
H1134 H 0.02121 0.32297 0.11489 0.0
H1135 H 0.98748 0.28395 0.11274 0.0
C1136 C 0.95566 0.26282 0.15529 0.0
C1137 C 0.94012 0.25427 0.17912 0.0
C1138 C 0.97659 0.2842 0.15731 0.0
C1139 C 0.94688 0.26646 0.2058 0.0
C1140 C 0.96769 0.28762 0.20802 0.0
C1141 C 1.00157 0.31941 0.18467 0.0
C1142 C 0.01549 0.32921 0.1598 0.0
C1143 C 0.9822 0.29702 0.18361 0.0
C1144 C 0.01069 0.31585 0.13431 0.0
C1145 C 0.99135 0.29356 0.13304 0.0
H1146 H 0.37796 0.31793 0.67296 0.0
H1147 H 0.42423 0.3348 0.59893 0.0
H1148 H 0.41671 0.36568 0.58595 0.0
H1149 H 0.39694 0.38761 0.59531 0.0
H1150 H 0.35082 0.3715 0.66947 0.0
H1151 H 0.35822 0.34042 0.68267 0.0
C1152 C 0.38622 0.32827 0.65388 0.0
C1153 C 0.40162 0.32407 0.63689 0.0
C1154 C 0.38186 0.34607 0.64659 0.0
C1155 C 0.41253 0.33785 0.61251 0.0
C1156 C 0.40814 0.35542 0.605 0.0
C1157 C 0.38843 0.37731 0.61437 0.0
C1158 C 0.37326 0.38183 0.63131 0.0
C1159 C 0.39285 0.35966 0.62187 0.0
C1160 C 0.36257 0.36839 0.65605 0.0
C1161 C 0.36677 0.35061 0.66358 0.0
H1162 H 0.79682 0.14371 0.60009 0.0
H1163 H 0.78846 0.10998 0.6826 0.0
H1164 H 0.7568 0.0741 0.66169 0.0
H1165 H 0.73294 0.05161 0.61898 0.0
H1166 H 0.74321 0.08517 0.53568 0.0
H1167 H 0.77254 0.12136 0.55759 0.0
C1168 C 0.78764 0.12859 0.61354 0.0
C1169 C 0.79463 0.12949 0.64288 0.0
C1170 C 0.77004 0.10775 0.60105 0.0
C1171 C 0.78313 0.10967 0.65997 0.0
C1172 C 0.76516 0.08912 0.64798 0.0
C1173 C 0.74162 0.06681 0.60562 0.0
C1174 C 0.73581 0.06544 0.57565 0.0
C1175 C 0.75875 0.0878 0.61835 0.0
C1176 C 0.74728 0.08549 0.55878 0.0
C1177 C 0.76407 0.10635 0.5713 0.0
H1178 H 0.92012 0.72698 0.65714 0.0
H1179 H 0.95399 0.79876 0.63659 0.0
H1180 H 0.98821 0.79757 0.61733 0.0
H1181 H 0.01085 0.77735 0.61237 0.0
H1182 H 0.97778 0.70624 0.63584 0.0
H1183 H 0.94097 0.70581 0.64721 0.0
C1184 C 0.93478 0.74224 0.64793 0.0
C1185 C 0.93459 0.76296 0.64868 0.0
C1186 C 0.95472 0.74159 0.63746 0.0
C1187 C 0.95378 0.78261 0.63665 0.0
C1188 C 0.97341 0.78197 0.6256 0.0
C1189 C 0.99534 0.76165 0.61916 0.0
C1190 C 0.99701 0.7419 0.62336 0.0
C1191 C 0.97443 0.76174 0.62673 0.0
C1192 C 0.97691 0.7217 0.63257 0.0
C1193 C 0.95588 0.72146 0.63923 0.0
H1194 H 0.85596 0.65502 0.22566 0.0
H1195 H 0.89434 0.72008 0.18293 0.0
H1196 H 0.93161 0.72553 0.20332 0.0
H1197 H 0.95368 0.70896 0.22673 0.0
H1198 H 0.91579 0.64298 0.26779 0.0
H1199 H 0.87792 0.64078 0.25513 0.0
C1200 C 0.87244 0.67064 0.22132 0.0
C1201 C 0.8723 0.68721 0.20259 0.0
C1202 C 0.89392 0.67328 0.23263 0.0
C1203 C 0.89379 0.70728 0.19736 0.0
C1204 C 0.9152 0.71024 0.20886 0.0
C1205 C 0.93714 0.69428 0.23347 0.0
C1206 C 0.93755 0.67599 0.24784 0.0
C1207 C 0.91553 0.69295 0.22555 0.0
C1208 C 0.916 0.65727 0.25676 0.0
C1209 C 0.89434 0.65594 0.24926 0.0
H1210 H 0.41698 0.321 0.18644 0.0
H1211 H 0.39779 0.27677 0.26139 0.0
H1212 H 0.39209 0.30411 0.29008 0.0
H1213 H 0.39095 0.33952 0.29332 0.0
H1214 H 0.41067 0.38462 0.21917 0.0
H1215 H 0.41796 0.35798 0.19064 0.0
C1216 C 0.41198 0.31755 0.20919 0.0
C1217 C 0.40767 0.2968 0.22175 0.0
C1218 C 0.40861 0.33335 0.22554 0.0
C1219 C 0.4009 0.29247 0.25116 0.0
C1220 C 0.39766 0.30809 0.26756 0.0
C1221 C 0.39678 0.34357 0.27088 0.0
C1222 C 0.39998 0.3639 0.25826 0.0
C1223 C 0.40109 0.32837 0.25483 0.0
C1224 C 0.40794 0.36901 0.22933 0.0
C1225 C 0.41213 0.35381 0.21305 0.0
H1226 H 0.80326 0.17114 0.27208 0.0
H1227 H 0.82308 0.14367 0.19918 0.0
H1228 H 0.78441 0.10889 0.20013 0.0
H1229 H 0.74351 0.0888 0.217 0.0
H1230 H 0.72258 0.11667 0.28825 0.0
H1231 H 0.76333 0.14867 0.29287 0.0
C1232 C 0.79933 0.15735 0.2568 0.0
C1233 C 0.81594 0.16016 0.2353 0.0
C1234 C 0.77678 0.1376 0.25693 0.0
C1235 C 0.81056 0.14207 0.21575 0.0
C1236 C 0.78841 0.12219 0.2162 0.0
C1237 C 0.74788 0.10172 0.23382 0.0
C1238 C 0.72995 0.10059 0.2519 0.0
C1239 C 0.77112 0.12019 0.23593 0.0
C1240 C 0.73602 0.11722 0.27392 0.0
C1241 C 0.75929 0.13557 0.27647 0.0
H1242 H 0.96844 0.47904 0.8925 0.0
H1243 H 0.98714 0.45104 0.96593 0.0
H1244 H 0.99628 0.42799 0.93296 0.0
H1245 H 0.99865 0.41562 0.88359 0.0
H1246 H 0.98268 0.44491 0.80905 0.0
H1247 H 0.97313 0.46799 0.84189 0.0
C1248 C 0.97437 0.46774 0.90105 0.0
C1249 C 0.97687 0.46639 0.93149 0.0
C1250 C 0.98028 0.45503 0.8818 0.0
C1251 C 0.98503 0.45214 0.94255 0.0
C1252 C 0.99028 0.43905 0.92374 0.0
C1253 C 0.99315 0.42711 0.87447 0.0
C1254 C 0.99118 0.42843 0.84395 0.0
C1255 C 0.98797 0.44036 0.89338 0.0
C1256 C 0.98439 0.44365 0.83248 0.0
C1257 C 0.97879 0.45671 0.85126 0.0
H1258 H 0.57995 0.59383 0.92386 0.0
H1259 H 0.51828 0.57649 0.86999 0.0
H1260 H 0.54338 0.5928 0.82734 0.0
H1261 H 0.58292 0.6133 0.80557 0.0
H1262 H 0.64496 0.63141 0.85927 0.0
H1263 H 0.61975 0.61342 0.90149 0.0
C1264 C 0.57202 0.59334 0.90269 0.0
C1265 C 0.54723 0.584 0.90019 0.0
C1266 C 0.58667 0.60303 0.87819 0.0
C1267 C 0.53729 0.5838 0.87263 0.0
C1268 C 0.55165 0.59308 0.84819 0.0
C1269 C 0.59098 0.61325 0.82645 0.0
C1270 C 0.61589 0.62381 0.82912 0.0
C1271 C 0.57638 0.60301 0.85076 0.0
C1272 C 0.62589 0.6235 0.85646 0.0
C1273 C 0.61146 0.61319 0.88069 0.0
H1274 H 0.50475 0.04368 0.90339 0.0
H1275 H 0.4785 0.06627 0.97484 0.0
H1276 H 0.46062 0.08095 0.94021 0.0
H1277 H 0.44776 0.08231 0.89018 0.0
H1278 H 0.47184 0.05744 0.81869 0.0
H1279 H 0.49541 0.04883 0.85283 0.0
C1280 C 0.49521 0.05192 0.91135 0.0
C1281 C 0.49254 0.05348 0.9416 0.0
C1282 C 0.48445 0.05974 0.89133 0.0
C1283 C 0.48079 0.06483 0.95167 0.0
C1284 C 0.47041 0.07308 0.93187 0.0
C1285 C 0.45844 0.07533 0.88194 0.0
C1286 C 0.45767 0.0701 0.852 0.0
C1287 C 0.47143 0.06987 0.90172 0.0
C1288 C 0.4719 0.0614 0.84167 0.0
C1289 C 0.48531 0.05638 0.86119 0.0
H1290 H 0.50547 0.03048 0.6474 0.0
H1291 H 0.49015 0.07636 0.5986 0.0
H1292 H 0.46546 0.07662 0.63829 0.0
H1293 H 0.44857 0.06416 0.68696 0.0
H1294 H 0.46416 0.01854 0.73615 0.0
H1295 H 0.48848 0.01792 0.69621 0.0
C1296 C 0.49695 0.04072 0.64558 0.0
C1297 C 0.4997 0.05341 0.62006 0.0
C1298 C 0.48276 0.04078 0.6685 0.0
C1299 C 0.48814 0.06626 0.61786 0.0
C1300 C 0.47408 0.06648 0.64059 0.0
C1301 C 0.45719 0.05399 0.68895 0.0
C1302 C 0.45451 0.04141 0.71455 0.0
C1303 C 0.47125 0.05379 0.66598 0.0
C1304 C 0.46588 0.02837 0.7167 0.0
C1305 C 0.47985 0.02804 0.69389 0.0
H1306 H 0.06241 0.50482 0.6211 0.0
H1307 H 0.9895 0.47883 0.59381 0.0
H1308 H 0.97601 0.45085 0.63263 0.0
H1309 H 0.98431 0.43376 0.67482 0.0
H1310 H 0.05674 0.45831 0.70275 0.0
H1311 H 0.07087 0.48647 0.66326 0.0
C1312 C 0.0436 0.49294 0.62354 0.0
C1313 C 0.02707 0.49439 0.60458 0.0
C1314 C 0.03578 0.47652 0.64614 0.0
C1315 C 1.00272 0.47874 0.60827 0.0
C1316 C 0.99492 0.4625 0.63046 0.0
C1317 C 1.00323 0.44522 0.67237 0.0
C1318 C 0.01938 0.44388 0.69195 0.0
C1319 C 0.01121 0.46132 0.64965 0.0
C1320 C 0.04383 0.45889 0.68811 0.0
C1321 C 0.05194 0.47505 0.66549 0.0
H1322 H 0.56268 0.52974 0.62049 0.0
H1323 H 0.57713 0.57291 0.54551 0.0
H1324 H 0.59308 0.60643 0.57644 0.0
H1325 H 0.60608 0.62405 0.6244 0.0
H1326 H 0.59405 0.58213 0.70056 0.0
H1327 H 0.57365 0.5476 0.66987 0.0
C1328 C 0.56917 0.54648 0.61092 0.0
C1329 C 0.56862 0.54864 0.58023 0.0
C1330 C 0.5788 0.56596 0.62927 0.0
C1331 C 0.57718 0.57049 0.56854 0.0
C1332 C 0.58636 0.58981 0.58645 0.0
C1333 C 0.59884 0.60738 0.63448 0.0
C1334 C 0.60187 0.60572 0.66472 0.0
C1335 C 0.58771 0.58779 0.61675 0.0
C1336 C 0.59203 0.58392 0.67733 0.0
C1337 C 0.5805 0.56418 0.65974 0.0
H1338 H 0.9723 0.54369 0.1483 0.0
H1339 H 0.97369 0.58226 0.07246 0.0
H1340 H 0.98154 0.61472 0.10345 0.0
H1341 H 0.98902 0.63257 0.15133 0.0
H1342 H 0.98763 0.59515 0.22844 0.0
H1343 H 0.97883 0.56183 0.19777 0.0
C1344 C 0.97401 0.55911 0.13873 0.0
C1345 C 0.97254 0.56061 0.10806 0.0
C1346 C 0.97876 0.57796 0.15682 0.0
C1347 C 0.97503 0.58079 0.0959 0.0
C1348 C 0.9795 0.59935 0.11361 0.0
C1349 C 0.9869 0.61721 0.16163 0.0
C1350 C 0.98918 0.61651 0.19223 0.0
C1351 C 0.98169 0.59823 0.144 0.0
C1352 C 0.9861 0.59625 0.20496 0.0
C1353 C 0.981 0.57717 0.18741 0.0
H1354 H 0.49821 0.52479 0.15037 0.0
H1355 H 0.44992 0.48332 0.08146 0.0
H1356 H 0.42146 0.4584 0.11781 0.0
H1357 H 0.41102 0.44737 0.16922 0.0
H1358 H 0.45943 0.48895 0.23814 0.0
H1359 H 0.48705 0.51473 0.2018 0.0
C1360 C 0.4815 0.51026 0.14329 0.0
C1361 C 0.47632 0.5059 0.11314 0.0
C1362 C 0.46522 0.49596 0.16436 0.0
C1363 C 0.45433 0.48723 0.10444 0.0
C1364 C 0.43809 0.47288 0.12525 0.0
C1365 C 0.42754 0.46214 0.17635 0.0
C1366 C 0.43311 0.46607 0.20649 0.0
C1367 C 0.44343 0.47694 0.15528 0.0
C1368 C 0.4546 0.48541 0.21519 0.0
C1369 C 0.47048 0.50017 0.19438 0.0
H1370 H 0.54783 0.07554 0.1536 0.0
H1371 H 0.59763 0.10708 0.08386 0.0
H1372 H 0.6298 0.1101 0.11523 0.0
H1373 H 0.64142 0.09633 0.15841 0.0
H1374 H 0.59146 0.06369 0.22791 0.0
H1375 H 0.56168 0.06876 0.20098 0.0
C1376 C 0.56592 0.08399 0.14578 0.0
C1377 C 0.57043 0.09086 0.11642 0.0
C1378 C 0.58409 0.08487 0.16364 0.0
C1379 C 0.59388 0.10161 0.1064 0.0
C1380 C 0.61216 0.10308 0.1242 0.0
C1381 C 0.62416 0.09076 0.1679 0.0
C1382 C 0.61838 0.07917 0.19469 0.0
C1383 C 0.60714 0.09354 0.15221 0.0
C1384 C 0.5962 0.07247 0.20713 0.0
C1385 C 0.57915 0.07528 0.1917 0.0
H1386 H 0.57604 0.04959 0.42362 0.0
H1387 H 0.6249 0.11976 0.44698 0.0
H1388 H 0.64819 0.12404 0.40318 0.0
H1389 H 0.65429 0.10769 0.35798 0.0
H1390 H 0.60563 0.03692 0.33603 0.0
H1391 H 0.58264 0.03302 0.37951 0.0
C1392 C 0.59164 0.06587 0.41891 0.0
C1393 C 0.59862 0.08442 0.43821 0.0
C1394 C 0.60502 0.06805 0.39403 0.0
C1395 C 0.61923 0.10527 0.43234 0.0
C1396 C 0.63248 0.10771 0.40733 0.0
C1397 C 0.63868 0.09142 0.36274 0.0
C1398 C 0.63169 0.07268 0.34366 0.0
C1399 C 0.62553 0.0892 0.38799 0.0
C1400 C 0.61148 0.05165 0.35029 0.0
C1401 C 0.59824 0.04939 0.37514 0.0
H1402 H 0.99849 0.58106 0.42874 0.0
H1403 H 0.06504 0.58956 0.39821 0.0
H1404 H 0.06365 0.61126 0.35654 0.0
H1405 H 0.04374 0.62771 0.32826 0.0
H1406 H 0.97732 0.61991 0.35792 0.0
H1407 H 0.97863 0.59837 0.40038 0.0
C1408 C 0.0128 0.58781 0.41314 0.0
C1409 C 0.0318 0.5834 0.41677 0.0
C1410 C 0.01194 0.60047 0.38894 0.0
C1411 C 0.05 0.59221 0.39596 0.0
C1412 C 0.0493 0.6048 0.37209 0.0
C1413 C 0.02949 0.62137 0.34397 0.0
C1414 C 0.01042 0.62551 0.3397 0.0
C1415 C 0.03034 0.60895 0.36826 0.0
C1416 C 0.99222 0.61706 0.3605 0.0
C1417 C 0.99297 0.6047 0.38483 0.0
H1418 H 0.49477 0.46517 0.45619 0.0
H1419 H 0.50179 0.5301 0.4326 0.0
H1420 H 0.47451 0.51213 0.39113 0.0
H1421 H 0.44793 0.47757 0.36189 0.0
H1422 H 0.43912 0.41245 0.38811 0.0
H1423 H 0.46791 0.43084 0.4279 0.0
C1424 C 0.49037 0.47539 0.44194 0.0
C1425 C 0.50031 0.49891 0.44746 0.0
C1426 C 0.47437 0.4649 0.41847 0.0
C1427 C 0.49427 0.5119 0.42893 0.0
C1428 C 0.47874 0.50166 0.40512 0.0
C1429 C 0.45253 0.46753 0.37621 0.0
C1430 C 0.44154 0.44375 0.37205 0.0
C1431 C 0.46862 0.47814 0.39969 0.0
C1432 C 0.44733 0.43081 0.39097 0.0
C1433 C 0.46378 0.44129 0.41373 0.0
H1434 H 0.65041 0.85507 0.20211 0.0
H1435 H 0.70031 0.85201 0.26235 0.0
H1436 H 0.71023 0.83191 0.22555 0.0
H1437 H 0.70104 0.81104 0.17851 0.0
H1438 H 0.65277 0.81545 0.11708 0.0
H1439 H 0.64601 0.83935 0.15186 0.0
C1440 C 0.66385 0.85045 0.20694 0.0
C1441 C 0.67447 0.85492 0.23509 0.0
C1442 C 0.66954 0.83892 0.18554 0.0
C1443 C 0.69195 0.84894 0.24091 0.0
C1444 C 0.69748 0.83724 0.21992 0.0
C1445 C 0.68942 0.81766 0.17254 0.0
C1446 C 0.67727 0.81139 0.14538 0.0
C1447 C 0.68585 0.83153 0.19252 0.0
C1448 C 0.66238 0.82014 0.13777 0.0
C1449 C 0.65841 0.83366 0.15776 0.0
H1450 H 0.20413 0.92197 0.26598 0.0
H1451 H 0.24461 0.90118 0.32034 0.0
H1452 H 0.27649 0.91637 0.28408 0.0
H1453 H 0.29312 0.93655 0.23711 0.0
H1454 H 0.25141 0.95695 0.18421 0.0
H1455 H 0.21984 0.94094 0.21988 0.0
C1456 C 0.21987 0.92065 0.27008 0.0
C1457 C 0.22193 0.91047 0.29603 0.0
C1458 C 0.23801 0.92947 0.24935 0.0
C1459 C 0.24249 0.90889 0.30061 0.0
C1460 C 0.26075 0.91764 0.27988 0.0
C1461 C 0.27711 0.93746 0.23337 0.0
C1462 C 0.27482 0.94809 0.20787 0.0
C1463 C 0.25877 0.92813 0.2542 0.0
C1464 C 0.25385 0.949 0.2035 0.0
C1465 C 0.23569 0.93981 0.22393 0.0
H1466 H 0.19016 0.43942 0.2725 0.0
H1467 H 0.16273 0.47577 0.32107 0.0
H1468 H 0.13355 0.46822 0.28217 0.0
H1469 H 0.11252 0.44677 0.23785 0.0
H1470 H 0.13947 0.4097 0.18958 0.0
H1471 H 0.17221 0.42201 0.22489 0.0
C1472 C 0.17803 0.446 0.27421 0.0
C1473 C 0.17834 0.45786 0.29966 0.0
C1474 C 0.16101 0.44113 0.25212 0.0
C1475 C 0.16288 0.46668 0.30161 0.0
C1476 C 0.14602 0.46214 0.27954 0.0
C1477 C 0.12569 0.44156 0.2349 0.0
C1478 C 0.12335 0.42699 0.2115 0.0
C1479 C 0.14438 0.44864 0.25527 0.0
C1480 C 0.14079 0.42077 0.20757 0.0
C1481 C 0.15948 0.42776 0.22776 0.0
H1482 H 0.13988 0.37508 0.9654 0.0
H1483 H 0.19647 0.43701 1.00436 0.0
H1484 H 0.17169 0.43236 0.04625 0.0
H1485 H 0.1339 0.41118 0.07155 0.0
H1486 H 0.07648 0.35028 0.03185 0.0
H1487 H 0.10164 0.35422 0.99033 0.0
C1488 C 0.14676 0.38774 0.98281 0.0
C1489 C 0.17014 0.40636 0.9816 0.0
C1490 C 0.13228 0.38513 1.00677 0.0
C1491 C 0.17874 0.42233 1.00478 0.0
C1492 C 0.16452 0.41976 0.02874 0.0
C1493 C 0.12689 0.39866 0.05392 0.0
C1494 C 0.10337 0.3804 0.05487 0.0
C1495 C 0.1413 0.40122 0.02997 0.0
C1496 C 0.09453 0.36449 0.03167 0.0
C1497 C 0.1089 0.36675 1.00791 0.0
H1498 H 0.66492 0.84656 0.91611 0.0
H1499 H 0.71148 0.83811 0.85743 0.0
H1500 H 0.7237 0.82167 0.89747 0.0
H1501 H 0.71878 0.80717 0.94872 0.0
H1502 H 0.6719 0.81649 1.00622 0.0
H1503 H 0.66222 0.83498 0.9671 0.0
C1504 C 0.67792 0.84131 0.912 0.0
C1505 C 0.68712 0.84346 0.88361 0.0
C1506 C 0.68465 0.83179 0.93498 0.0
C1507 C 0.70417 0.83679 0.87899 0.0
C1508 C 0.711 0.82721 0.90189 0.0
C1509 C 0.70657 0.81339 0.95277 0.0
C1510 C 0.69597 0.81014 0.98061 0.0
C1511 C 0.70101 0.82421 0.92992 0.0
C1512 C 0.68032 0.81854 0.98525 0.0
C1513 C 0.67471 0.82916 0.96279 0.0
H1514 H 0.21184 0.92084 0.9726 0.0
H1515 H 0.23701 0.98781 0.93615 0.0
H1516 H 0.26142 0.0054 0.97989 0.0
H1517 H 0.27932 1.00146 0.02536 0.0
H1518 H 0.25463 0.93475 0.06239 0.0
H1519 H 0.22606 0.91724 0.02172 0.0
C1520 C 0.22248 0.93929 0.97447 0.0
C1521 C 0.22288 0.95301 0.95101 0.0
C1522 C 0.23662 0.94926 0.99963 0.0
C1523 C 0.23634 0.9769 0.95388 0.0
C1524 C 0.25044 0.98694 0.9788 0.0
C1525 C 0.26739 0.9831 0.02478 0.0
C1526 C 0.26925 0.96934 0.04656 0.0
C1527 C 0.25126 0.97326 1.00134 0.0
C1528 C 0.2535 0.94566 0.04586 0.0
C1529 C 0.23732 0.93566 0.02249 0.0
H1530 H 0.66335 0.887 0.43359 0.0
H1531 H 0.69925 0.9375 0.36682 0.0
H1532 H 0.70849 0.96804 0.40244 0.0
H1533 H 0.70313 0.98018 0.4512 0.0
H1534 H 0.66701 0.92975 0.51797 0.0
H1535 H 0.66135 0.89942 0.48374 0.0
C1536 C 0.67345 0.9047 0.42683 0.0
C1537 C 0.6804 0.90988 0.39735 0.0
C1538 C 0.67854 0.92218 0.44743 0.0
C1539 C 0.69367 0.93295 0.38923 0.0
C1540 C 0.69885 0.95043 0.40961 0.0
C1541 C 0.69424 0.96258 0.45847 0.0
C1542 C 0.68528 0.9573 0.48718 0.0
C1543 C 0.69088 0.94522 0.43857 0.0
C1544 C 0.67407 0.93438 0.49613 0.0
C1545 C 0.67072 0.917 0.47646 0.0
H1546 H 0.12865 0.87108 0.4617 0.0
H1547 H 0.16296 0.83291 0.4379 0.0
H1548 H 0.14537 0.80802 0.48045 0.0
H1549 H 0.11833 0.79604 0.52327 0.0
H1550 H 0.08535 0.83572 0.54635 0.0
H1551 H 0.10412 0.86088 0.5051 0.0
C1552 C 0.13248 0.85743 0.46588 0.0
C1553 C 0.14703 0.85381 0.44655 0.0
C1554 C 0.12227 0.84326 0.49014 0.0
C1555 C 0.15197 0.83618 0.45253 0.0
C1556 C 0.14173 0.82183 0.47672 0.0
C1557 C 0.11525 0.81018 0.5192 0.0
C1558 C 0.10021 0.81381 0.53784 0.0
C1559 C 0.1265 0.82497 0.49545 0.0
C1560 C 0.09672 0.83243 0.53245 0.0
C1561 C 0.10749 0.84688 0.50883 0.0
H1562 H 0.23698 0.43119 0.51836 0.0
H1563 H 0.27184 0.4256 0.44149 0.0
H1564 H 0.30053 0.42188 0.47196 0.0
H1565 H 0.31668 0.42162 0.51978 0.0
H1566 H 0.28383 0.42878 0.5976 0.0
H1567 H 0.25325 0.43032 0.56737 0.0
C1568 C 0.25094 0.42929 0.50836 0.0
C1569 C 0.25215 0.42856 0.47766 0.0
C1570 C 0.26767 0.42736 0.52611 0.0
C1571 C 0.2702 0.42582 0.465 0.0
C1572 C 0.28673 0.42381 0.48241 0.0
C1573 C 0.30278 0.42337 0.5303 0.0
C1574 C 0.30262 0.42518 0.56092 0.0
C1575 C 0.28569 0.42466 0.51291 0.0
C1576 C 0.28436 0.42733 0.57405 0.0
C1577 C 0.26696 0.42833 0.55677 0.0
H1578 H 0.26584 0.41064 0.79948 0.0
H1579 H 0.26177 0.47157 0.7835 0.0
H1580 H 0.28568 0.47922 0.73975 0.0
H1581 H 0.30698 0.46814 0.70535 0.0
H1582 H 0.31079 0.40699 0.72113 0.0
H1583 H 0.28757 0.3998 0.76543 0.0
C1584 C 0.27003 0.4255 0.78632 0.0
C1585 C 0.26195 0.44046 0.79478 0.0
C1586 C 0.28371 0.42974 0.76108 0.0
C1587 C 0.26795 0.45989 0.77773 0.0
C1588 C 0.28152 0.46421 0.75258 0.0
C1589 C 0.30278 0.45326 0.71848 0.0
C1590 C 0.31059 0.43811 0.70983 0.0
C1591 C 0.28941 0.4492 0.74398 0.0
C1592 C 0.30502 0.41894 0.72722 0.0
C1593 C 0.29171 0.41479 0.75258 0.0
H1594 H 0.68043 0.93751 0.74609 0.0
H1595 H 0.68849 0.88239 0.71116 0.0
H1596 H 0.68766 0.89547 0.66131 0.0
H1597 H 0.68426 0.92252 0.62745 0.0
H1598 H 0.6745 0.97647 0.66316 0.0
H1599 H 0.67623 0.96377 0.71267 0.0
C1600 C 0.68221 0.92837 0.72766 0.0
C1601 C 0.68479 0.90902 0.73265 0.0
C1602 C 0.68122 0.93573 0.69902 0.0
C1603 C 0.68664 0.89735 0.70821 0.0
C1604 C 0.6861 0.90483 0.67962 0.0
C1605 C 0.68245 0.93151 0.64603 0.0
C1606 C 0.67925 0.95056 0.64128 0.0
C1607 C 0.6833 0.92396 0.67471 0.0
C1608 C 0.67689 0.9618 0.66586 0.0
C1609 C 0.67796 0.95456 0.6943 0.0
H1610 H 0.16205 0.87226 0.72658 0.0
H1611 H 0.13372 0.82886 0.80194 0.0
H1612 H 0.11132 0.7957 0.77019 0.0
H1613 H 0.09903 0.77902 0.72139 0.0
H1614 H 0.12605 0.82191 0.64536 0.0
H1615 H 0.14977 0.85519 0.67698 0.0
C1616 C 0.15082 0.85558 0.73602 0.0
C1617 C 0.14965 0.8531 0.76667 0.0
C1618 C 0.13786 0.83644 0.71752 0.0
C1619 C 0.13524 0.83126 0.77849 0.0
C1620 C 0.12233 0.81226 0.76033 0.0
C1621 C 0.11023 0.79558 0.7116 0.0
C1622 C 0.11072 0.79787 0.68096 0.0
C1623 C 0.12351 0.81464 0.72986 0.0
C1624 C 0.12535 0.81957 0.66884 0.0
C1625 C 0.13884 0.83865 0.68693 0.0
H1626 H 0.39288 0.22287 0.56761 0.0
H1627 H 0.34408 0.17707 0.63163 0.0
H1628 H 0.33055 0.14515 0.59695 0.0
H1629 H 0.33458 0.12983 0.5498 0.0
H1630 H 0.38314 0.17562 0.48555 0.0
H1631 H 0.39459 0.20801 0.51892 0.0
C1632 C 0.37913 0.20594 0.57396 0.0
C1633 C 0.36966 0.2024 0.6024 0.0
C1634 C 0.37146 0.18766 0.55388 0.0
C1635 C 0.35169 0.18036 0.61 0.0
C1636 C 0.34402 0.16207 0.59017 0.0
C1637 C 0.34755 0.14691 0.54291 0.0
C1638 C 0.35814 0.15018 0.51516 0.0
C1639 C 0.35408 0.16544 0.56226 0.0
C1640 C 0.37469 0.17252 0.50666 0.0
C1641 C 0.38132 0.19106 0.52583 0.0
H1642 H 0.9044 0.22511 0.55839 0.0
H1643 H 0.9288 0.26674 0.63637 0.0
H1644 H 0.94979 0.30131 0.60686 0.0
H1645 H 0.95987 0.31984 0.55872 0.0
H1646 H 0.93361 0.27834 0.48044 0.0
H1647 H 0.91475 0.24376 0.50996 0.0
C1648 C 0.91466 0.24175 0.56876 0.0
C1649 C 0.91524 0.24346 0.59945 0.0
C1650 C 0.92615 0.26161 0.55156 0.0
C1651 C 0.92815 0.26513 0.61276 0.0
C1652 C 0.9401 0.28485 0.59589 0.0
C1653 C 0.95008 0.30324 0.54809 0.0
C1654 C 0.94818 0.30179 0.51735 0.0
C1655 C 0.93897 0.28335 0.56524 0.0
C1656 C 0.93531 0.28006 0.50404 0.0
C1657 C 0.92455 0.26021 0.52092 0.0
H1658 H 0.87071 0.78481 0.59439 0.0
H1659 H 0.83988 0.81688 0.6455 0.0
H1660 H 0.81624 0.81618 0.60316 0.0
H1661 H 0.79944 0.80029 0.55475 0.0
H1662 H 0.82921 0.76707 0.50383 0.0
H1663 H 0.85855 0.77475 0.54269 0.0
C1664 C 0.85909 0.79199 0.596 0.0
C1665 C 0.85662 0.80046 0.62308 0.0
C1666 C 0.84529 0.79115 0.57171 0.0
C1667 C 0.842 0.81022 0.62489 0.0
C1668 C 0.82836 0.80966 0.60075 0.0
C1669 C 0.81275 0.79524 0.55188 0.0
C1670 C 0.81194 0.78277 0.52679 0.0
C1671 C 0.82913 0.79926 0.5745 0.0
C1672 C 0.82946 0.77664 0.52301 0.0
C1673 C 0.84607 0.78083 0.54535 0.0
H1674 H 0.80873 0.72272 0.27222 0.0
H1675 H 0.87624 0.77196 0.31073 0.0
H1676 H 0.8561 0.77527 0.35351 0.0
H1677 H 0.81923 0.76423 0.3802 0.0
H1678 H 0.7518 0.71584 0.34069 0.0
H1679 H 0.77204 0.7126 0.29794 0.0
C1680 C 0.81913 0.73441 0.2897 0.0
C1681 C 0.84409 0.74701 0.28799 0.0
C1682 C 0.80741 0.73649 0.31416 0.0
C1683 C 0.85709 0.76174 0.31138 0.0
C1684 C 0.84555 0.76379 0.33588 0.0
C1685 C 0.80895 0.75303 0.3622 0.0
C1686 C 0.784 0.74029 0.36376 0.0
C1687 C 0.82071 0.75122 0.33754 0.0
C1688 C 0.771 0.72589 0.34017 0.0
C1689 C 0.78257 0.72397 0.31567 0.0
H1690 H 0.39962 0.19277 0.27091 0.0
H1691 H 0.32663 0.17293 0.25174 0.0
H1692 H 0.31442 0.15074 0.2971 0.0
H1693 H 0.32457 0.1367 0.34212 0.0
H1694 H 0.39776 0.15652 0.36013 0.0
H1695 H 0.4097 0.17894 0.31528 0.0
C1696 C 0.38098 0.18368 0.27653 0.0
C1697 C 0.36409 0.18467 0.2577 0.0
C1698 C 0.37412 0.17087 0.30252 0.0
C1699 C 0.34006 0.1726 0.26564 0.0
C1700 C 0.33308 0.15987 0.29163 0.0
C1701 C 0.34316 0.14593 0.33631 0.0
C1702 C 0.36023 0.14482 0.35476 0.0
C1703 C 0.34995 0.15882 0.31024 0.0
C1704 C 0.3842 0.15694 0.34659 0.0
C1705 C 0.39106 0.16982 0.32086 0.0
H1706 H 0.87559 0.25281 0.29687 0.0
H1707 H 0.88106 0.30908 0.24648 0.0
H1708 H 0.90545 0.33592 0.28526 0.0
H1709 H 0.9286 0.3435 0.33084 0.0
H1710 H 0.92292 0.28723 0.38171 0.0
H1711 H 0.89508 0.26007 0.34538 0.0
C1712 C 0.88192 0.27094 0.29467 0.0
C1713 C 0.87686 0.27909 0.26885 0.0
C1714 C 0.89603 0.28617 0.3169 0.0
C1715 C 0.88471 0.3025 0.26625 0.0
C1716 C 0.8988 0.31781 0.28827 0.0
C1717 C 0.92112 0.32527 0.33408 0.0
C1718 C 0.92807 0.31732 0.35858 0.0
C1719 C 0.90513 0.30987 0.31326 0.0
C1720 C 0.91789 0.2937 0.36291 0.0
C1721 C 0.90206 0.27822 0.34212 0.0
H1722 H 0.37391 0.23871 0.79724 0.0
H1723 H 0.35099 0.26958 0.73125 0.0
H1724 H 0.3448 0.29157 0.76889 0.0
H1725 H 0.34914 0.30464 0.81957 0.0
H1726 H 0.37132 0.27417 0.88661 0.0
H1727 H 0.37437 0.24926 0.84956 0.0
C1728 C 0.36722 0.24999 0.79111 0.0
C1729 C 0.36314 0.25256 0.76122 0.0
C1730 C 0.36379 0.26282 0.81302 0.0
C1731 C 0.35435 0.2672 0.75387 0.0
C1732 C 0.3509 0.27991 0.77543 0.0
C1733 C 0.35453 0.29245 0.8262 0.0
C1734 C 0.3604 0.29153 0.85577 0.0
C1735 C 0.35612 0.27828 0.8049 0.0
C1736 C 0.36682 0.27529 0.86402 0.0
C1737 C 0.36864 0.26114 0.84278 0.0
H1738 H 0.83741 0.16592 0.81028 0.0
H1739 H 0.79023 0.12333 0.74139 0.0
H1740 H 0.75996 0.1005 0.77727 0.0
H1741 H 0.74707 0.09234 0.82833 0.0
H1742 H 0.79352 0.13593 0.89739 0.0
H1743 H 0.82367 0.15877 0.86152 0.0
C1744 C 0.82054 0.15153 0.80329 0.0
C1745 C 0.81608 0.14616 0.77332 0.0
C1746 C 0.803 0.13879 0.82406 0.0
C1747 C 0.794 0.12776 0.76436 0.0
C1748 C 0.77671 0.11473 0.78486 0.0
C1749 C 0.76371 0.10693 0.83555 0.0
C1750 C 0.76797 0.1123 0.86559 0.0
C1751 C 0.78099 0.12008 0.81478 0.0
C1752 C 0.78965 0.13138 0.87445 0.0
C1753 C 0.80701 0.14441 0.85394 0.0
H1754 H 0.90968 0.75103 0.83188 0.0
H1755 H 0.94335 0.74592 0.75364 0.0
H1756 H 0.96696 0.73401 0.78253 0.0
H1757 H 0.97864 0.72575 0.82993 0.0
H1758 H 0.94598 0.73181 0.90864 0.0
H1759 H 0.92144 0.74271 0.87962 0.0
C1760 C 0.92233 0.74752 0.8212 0.0
C1761 C 0.92466 0.74934 0.7906 0.0
C1762 C 0.93599 0.74078 0.838 0.0
C1763 C 0.94092 0.74437 0.77707 0.0
C1764 C 0.95453 0.73765 0.7936 0.0
C1765 C 0.96606 0.7293 0.84079 0.0
C1766 C 0.96416 0.72793 0.87143 0.0
C1767 C 0.95221 0.7358 0.82405 0.0
C1768 C 0.94782 0.73272 0.88508 0.0
C1769 C 0.93381 0.73901 0.86851 0.0
H1770 H 0.91941 0.72468 0.10317 0.0
H1771 H 0.93488 0.79308 0.08305 0.0
H1772 H 0.95825 0.79396 0.04104 0.0
H1773 H 0.97412 0.77521 0.00983 0.0
H1774 H 0.95938 0.70701 0.03052 0.0
H1775 H 0.93595 0.70612 0.07238 0.0
C1776 C 0.92776 0.73967 0.08942 0.0
C1777 C 0.92538 0.75876 0.09615 0.0
C1778 C 0.94138 0.74013 0.06544 0.0
C1779 C 0.93662 0.77825 0.07846 0.0
C1780 C 0.94992 0.77874 0.05438 0.0
C1781 C 0.96583 0.76016 0.02351 0.0
C1782 C 0.96851 0.74121 0.01694 0.0
C1783 C 0.95244 0.75979 0.04768 0.0
C1784 C 0.95769 0.72188 0.03504 0.0
C1785 C 0.9442 0.72132 0.05897 0.0
H1786 H 0.34638 0.26911 0.11715 0.0
H1787 H 0.34691 0.20936 0.08448 0.0
H1788 H 0.34384 0.22026 0.03427 0.0
H1789 H 0.3436 0.24814 0.99927 0.0
H1790 H 0.34308 0.30782 0.03232 0.0
H1791 H 0.34351 0.29554 0.08244 0.0
C1792 C 0.34553 0.25825 0.09913 0.0
C1793 C 0.34695 0.23837 0.10488 0.0
C1794 C 0.34398 0.26476 0.07018 0.0
C1795 C 0.34579 0.22466 0.08099 0.0
C1796 C 0.34417 0.23099 0.05215 0.0
C1797 C 0.34341 0.25842 0.01739 0.0
C1798 C 0.34345 0.27905 0.01172 0.0
C1799 C 0.34367 0.25122 0.04641 0.0
C1800 C 0.34308 0.29195 0.03573 0.0
C1801 C 0.34337 0.28493 0.06453 0.0
H1802 H 0.83712 0.1581 0.10461 0.0
H1803 H 0.82613 0.20692 0.05602 0.0
H1804 H 0.80393 0.17802 0.01854 0.0
H1805 H 0.78475 0.13805 1.00169 0.0
H1806 H 0.79332 0.08868 0.05238 0.0
H1807 H 0.81929 0.11866 0.08698 0.0
C1808 C 0.82978 0.16248 0.08599 0.0
C1809 C 0.83314 0.1847 0.08348 0.0
C1810 C 0.81654 0.14562 0.06485 0.0
C1811 C 0.82399 0.19007 0.0586 0.0
C1812 C 0.81115 0.17348 0.03717 0.0
C1813 C 0.79263 0.13392 0.02002 0.0
C1814 C 0.78709 0.11115 0.02446 0.0
C1815 C 0.80697 0.15111 0.04033 0.0
C1816 C 0.79725 0.10605 0.04851 0.0
C1817 C 0.81204 0.12317 0.06836 0.0
loop_
_geom_bond_atom_site_label_1
_geom_bond_atom_site_label_2
_geom_bond_distance
_geom_bond_site_symmetry_2
_ccdc_geom_bond_type
Cu0 N1 1.999 . S
Cu0 O6 1.974 1_554 S
Cu0 N11 1.985 1_554 S
Cu0 O20 1.959 . S
N1 Cu0 1.999 . S
N1 C3 1.263 . S
N1 C5 1.389 . S
N2 C3 1.358 . S
N2 C4 1.400 . S
C3 N1 1.263 . S
C3 N2 1.358 . S
C3 H9 0.930 . S
C4 N2 1.400 . S
C4 C5 1.351 . S
C4 H21 0.930 . S
C5 N1 1.389 . S
C5 C4 1.351 . S
C5 H10 0.930 . S
O6 Cu0 1.974 1_556 S
O6 C16 1.282 . S
C7 O8 1.261 . S
C7 O20 1.251 . S
O8 C7 1.261 . S
H9 C3 0.930 . S
H10 C5 0.930 . S
N11 Cu0 1.985 1_556 S
N11 C13 1.335 . S
N11 C14 1.390 . S
N12 C13 1.345 . S
N12 C15 1.336 . S
C13 N11 1.335 . S
C13 N12 1.345 . S
C13 H18 0.930 . S
C14 N11 1.390 . S
C14 C15 1.346 . S
C14 H19 0.930 . S
C15 N12 1.336 . S
C15 C14 1.346 . S
C15 H22 0.929 . S
C16 O6 1.282 . S
C16 O17 1.216 1_455 S
O17 C16 1.216 1_655 S
H18 C13 0.930 . S
H19 C14 0.930 . S
O20 Cu0 1.959 . S
O20 C7 1.251 . S
H21 C4 0.930 . S
H22 C15 0.929 . S
Cu23 N24 1.999 1_554 S
Cu23 O29 1.974 . S
Cu23 N34 1.985 . S
Cu23 O43 1.959 1_554 S
N24 Cu23 1.999 1_556 S
N24 C26 1.263 . S
N24 C28 1.389 . S
N25 C26 1.358 . S
N25 C27 1.400 . S
C26 N24 1.263 . S
C26 N25 1.358 . S
C26 H32 0.930 . S
C27 N25 1.400 . S
C27 C28 1.351 . S
C27 H44 0.930 . S
C28 N24 1.389 . S
C28 C27 1.351 . S
C28 H33 0.930 . S
O29 Cu23 1.974 . S
O29 C39 1.282 . S
C30 O31 1.261 . S
C30 O43 1.251 . S
O31 C30 1.261 . S
H32 C26 0.930 . S
H33 C28 0.930 . S
N34 Cu23 1.985 . S
N34 C36 1.335 . S
N34 C37 1.390 . S
N35 C36 1.345 . S
N35 C38 1.336 . S
C36 N34 1.335 . S
C36 N35 1.345 . S
C36 H41 0.930 . S
C37 N34 1.390 . S
C37 C38 1.346 . S
C37 H42 0.930 . S
C38 N35 1.336 . S
C38 C37 1.346 . S
C38 H45 0.929 . S
C39 O29 1.282 . S
C39 O40 1.216 . S
O40 C39 1.216 . S
H41 C36 0.930 . S
H42 C37 0.930 . S
O43 Cu23 1.959 1_556 S
O43 C30 1.251 . S
H44 C27 0.930 . S
H45 C38 0.929 . S
Cu46 N47 1.999 1_554 S
Cu46 O52 1.974 . S
Cu46 N57 1.985 . S
Cu46 O66 1.959 . S
N47 Cu46 1.999 1_556 S
N47 C49 1.263 . S
N47 C51 1.389 . S
N48 C49 1.358 . S
N48 C50 1.400 . S
C49 N47 1.263 . S
C49 N48 1.358 . S
C49 H55 0.930 . S
C50 N48 1.400 . S
C50 C51 1.351 . S
C50 H67 0.930 . S
C51 N47 1.389 . S
C51 C50 1.351 . S
C51 H56 0.930 . S
O52 Cu46 1.974 . S
O52 C62 1.282 . S
C53 O54 1.259 1_556 S
C53 O66 1.251 1_556 S
O54 C53 1.259 1_554 S
H55 C49 0.930 . S
H56 C51 0.930 . S
N57 Cu46 1.985 . S
N57 C59 1.335 . S
N57 C60 1.390 . S
N58 C59 1.345 . S
N58 C61 1.336 . S
C59 N57 1.335 . S
C59 N58 1.345 . S
C59 H64 0.930 . S
C60 N57 1.390 . S
C60 C61 1.346 . S
C60 H65 0.930 . S
C61 N58 1.336 . S
C61 C60 1.346 . S
C61 H68 0.929 . S
C62 O52 1.282 . S
C62 O63 1.216 . S
O63 C62 1.216 . S
H64 C59 0.930 . S
H65 C60 0.930 . S
O66 Cu46 1.959 . S
O66 C53 1.251 1_554 S
H67 C50 0.930 . S
H68 C61 0.929 . S
Cu69 N70 1.999 . S
Cu69 O75 1.974 . S
Cu69 N80 1.985 . S
Cu69 O89 1.959 . S
N70 Cu69 1.999 . S
N70 C72 1.263 . S
N70 C74 1.389 . S
N71 C72 1.358 . S
N71 C73 1.400 . S
C72 N70 1.263 . S
C72 N71 1.358 . S
C72 H78 0.930 . S
C73 N71 1.400 . S
C73 C74 1.351 . S
C73 H90 0.930 . S
C74 N70 1.389 . S
C74 C73 1.351 . S
C74 H79 0.930 . S
O75 Cu69 1.974 . S
O75 C85 1.282 . S
C76 O77 1.261 . S
C76 O89 1.251 . S
O77 C76 1.261 . S
H78 C72 0.930 . S
H79 C74 0.930 . S
N80 Cu69 1.985 . S
N80 C82 1.335 . S
N80 C83 1.390 . S
N81 C82 1.345 . S
N81 C84 1.336 . S
C82 N80 1.335 . S
C82 N81 1.345 . S
C82 H87 0.930 . S
C83 N80 1.390 . S
C83 C84 1.346 . S
C83 H88 0.930 . S
C84 N81 1.336 . S
C84 C83 1.346 . S
C84 H91 0.929 . S
C85 O75 1.282 . S
C85 O86 1.216 1_545 S
O86 C85 1.216 1_565 S
H87 C82 0.930 . S
H88 C83 0.930 . S
O89 Cu69 1.959 . S
O89 C76 1.251 . S
H90 C73 0.930 . S
H91 C84 0.929 . S
Cu92 N93 1.999 . S
Cu92 O98 1.974 . S
Cu92 N103 1.985 . S
Cu92 O112 1.959 . S
N93 Cu92 1.999 . S
N93 C95 1.263 . S
N93 C97 1.389 . S
N94 C95 1.358 . S
N94 C96 1.400 . S
C95 N93 1.263 . S
C95 N94 1.358 . S
C95 H101 0.930 . S
C96 N94 1.400 . S
C96 C97 1.351 . S
C96 H113 0.930 . S
C97 N93 1.389 . S
C97 C96 1.351 . S
C97 H102 0.930 . S
O98 Cu92 1.974 . S
O98 C108 1.282 . S
C99 O100 1.261 . S
C99 O112 1.251 . S
O100 C99 1.261 . S
H101 C95 0.930 . S
H102 C97 0.930 . S
N103 Cu92 1.985 . S
N103 C105 1.335 . S
N103 C106 1.390 . S
N104 C105 1.345 . S
N104 C107 1.336 . S
C105 N103 1.335 . S
C105 N104 1.345 . S
C105 H110 0.930 . S
C106 N103 1.390 . S
C106 C107 1.346 . S
C106 H111 0.930 . S
C107 N104 1.336 . S
C107 C106 1.346 . S
C107 H114 0.929 . S
C108 O98 1.282 . S
C108 O109 1.216 . S
O109 C108 1.216 . S
H110 C105 0.930 . S
H111 C106 0.930 . S
O112 Cu92 1.959 . S
O112 C99 1.251 . S
H113 C96 0.930 . S
H114 C107 0.929 . S
Cu115 N116 1.999 . S
Cu115 O121 1.974 . S
Cu115 N126 1.985 . S
Cu115 O135 1.959 . S
N116 Cu115 1.999 . S
N116 C118 1.263 . S
N116 C120 1.389 . S
N117 C118 1.358 . S
N117 C119 1.400 . S
C118 N116 1.263 . S
C118 N117 1.358 . S
C118 H124 0.930 . S
C119 N117 1.400 . S
C119 C120 1.351 . S
C119 H136 0.930 . S
C120 N116 1.389 . S
C120 C119 1.351 . S
C120 H125 0.930 . S
O121 Cu115 1.974 . S
O121 C131 1.282 . S
C122 O123 1.261 . S
C122 O135 1.251 . S
O123 C122 1.261 . S
H124 C118 0.930 . S
H125 C120 0.930 . S
N126 Cu115 1.985 . S
N126 C128 1.335 . S
N126 C129 1.390 . S
N127 C128 1.345 . S
N127 C130 1.336 . S
C128 N126 1.335 . S
C128 N127 1.345 . S
C128 H133 0.930 . S
C129 N126 1.390 . S
C129 C130 1.346 . S
C129 H134 0.930 . S
C130 N127 1.336 . S
C130 C129 1.346 . S
C130 H137 0.929 . S
C131 O121 1.282 . S
C131 O132 1.216 . S
O132 C131 1.216 . S
H133 C128 0.930 . S
H134 C129 0.930 . S
O135 Cu115 1.959 . S
O135 C122 1.251 . S
H136 C119 0.930 . S
H137 C130 0.929 . S
Cu138 N139 1.999 . S
Cu138 O144 1.974 . S
Cu138 N149 1.985 . S
Cu138 O158 1.959 . S
N139 Cu138 1.999 . S
N139 C141 1.263 . S
N139 C143 1.389 . S
N140 C141 1.358 . S
N140 C142 1.400 . S
C141 N139 1.263 . S
C141 N140 1.358 . S
C141 H147 0.930 . S
C142 N140 1.400 . S
C142 C143 1.351 . S
C142 H159 0.930 . S
C143 N139 1.389 . S
C143 C142 1.351 . S
C143 H148 0.930 . S
O144 Cu138 1.974 . S
O144 C154 1.282 . S
C145 O146 1.261 . S
C145 O158 1.251 . S
O146 C145 1.261 . S
H147 C141 0.930 . S
H148 C143 0.930 . S
N149 Cu138 1.985 . S
N149 C151 1.335 . S
N149 C152 1.390 . S
N150 C151 1.345 . S
N150 C153 1.336 . S
C151 N149 1.335 . S
C151 N150 1.345 . S
C151 H156 0.930 . S
C152 N149 1.390 . S
C152 C153 1.346 . S
C152 H157 0.930 . S
C153 N150 1.336 . S
C153 C152 1.346 . S
C153 H160 0.929 . S
C154 O144 1.282 . S
C154 O155 1.216 . S
O155 C154 1.216 . S
H156 C151 0.930 . S
H157 C152 0.930 . S
O158 Cu138 1.959 . S
O158 C145 1.251 . S
H159 C142 0.930 . S
H160 C153 0.929 . S
Cu161 N162 1.999 . S
Cu161 O167 1.974 . S
Cu161 N172 1.985 . S
Cu161 O181 1.959 . S
N162 Cu161 1.999 . S
N162 C164 1.263 . S
N162 C166 1.389 . S
N163 C164 1.358 . S
N163 C165 1.400 . S
C164 N162 1.263 . S
C164 N163 1.358 . S
C164 H170 0.930 . S
C165 N163 1.400 . S
C165 C166 1.351 . S
C165 H182 0.930 . S
C166 N162 1.389 . S
C166 C165 1.351 . S
C166 H171 0.930 . S
O167 Cu161 1.974 . S
O167 C177 1.282 . S
C168 O169 1.261 . S
C168 O181 1.251 . S
O169 C168 1.261 . S
H170 C164 0.930 . S
H171 C166 0.930 . S
N172 Cu161 1.985 . S
N172 C174 1.335 . S
N172 C175 1.390 . S
N173 C174 1.345 . S
N173 C176 1.336 . S
C174 N172 1.335 . S
C174 N173 1.345 . S
C174 H179 0.930 . S
C175 N172 1.390 . S
C175 C176 1.346 . S
C175 H180 0.930 . S
C176 N173 1.336 . S
C176 C175 1.346 . S
C176 H183 0.929 . S
C177 O167 1.282 . S
C177 O178 1.216 . S
O178 C177 1.216 . S
H179 C174 0.930 . S
H180 C175 0.930 . S
O181 Cu161 1.959 . S
O181 C168 1.251 . S
H182 C165 0.930 . S
H183 C176 0.929 . S
Cu184 N185 1.999 . S
Cu184 O190 1.974 . S
Cu184 N195 1.985 . S
Cu184 O204 1.959 . S
N185 Cu184 1.999 . S
N185 C187 1.263 . S
N185 C189 1.389 . S
N186 C187 1.358 . S
N186 C188 1.400 . S
C187 N185 1.263 . S
C187 N186 1.358 . S
C187 H193 0.930 . S
C188 N186 1.400 . S
C188 C189 1.351 . S
C188 H205 0.930 . S
C189 N185 1.389 . S
C189 C188 1.351 . S
C189 H194 0.930 . S
O190 Cu184 1.974 . S
O190 C200 1.282 . S
C191 O192 1.261 . S
C191 O204 1.251 . S
O192 C191 1.261 . S
H193 C187 0.930 . S
H194 C189 0.930 . S
N195 Cu184 1.985 . S
N195 C197 1.335 . S
N195 C198 1.390 . S
N196 C197 1.345 . S
N196 C199 1.336 . S
C197 N195 1.335 . S
C197 N196 1.345 . S
C197 H202 0.930 . S
C198 N195 1.390 . S
C198 C199 1.346 . S
C198 H203 0.930 . S
C199 N196 1.336 . S
C199 C198 1.346 . S
C199 H206 0.929 . S
C200 O190 1.282 . S
C200 O201 1.216 . S
O201 C200 1.216 . S
H202 C197 0.930 . S
H203 C198 0.930 . S
O204 Cu184 1.959 . S
O204 C191 1.251 . S
H205 C188 0.930 . S
H206 C199 0.929 . S
Cu207 N208 1.999 . S
Cu207 O213 1.974 . S
Cu207 N218 1.985 . S
Cu207 O227 1.959 . S
N208 Cu207 1.999 . S
N208 C210 1.263 . S
N208 C212 1.389 . S
N209 C210 1.358 . S
N209 C211 1.400 . S
C210 N208 1.263 . S
C210 N209 1.358 . S
C210 H216 0.930 . S
C211 N209 1.400 . S
C211 C212 1.351 . S
C211 H228 0.930 . S
C212 N208 1.389 . S
C212 C211 1.351 . S
C212 H217 0.930 . S
O213 Cu207 1.974 . S
O213 C223 1.282 . S
C214 O215 1.261 . S
C214 O227 1.251 . S
O215 C214 1.261 . S
H216 C210 0.930 . S
H217 C212 0.930 . S
N218 Cu207 1.985 . S
N218 C220 1.335 . S
N218 C221 1.390 . S
N219 C220 1.345 . S
N219 C222 1.336 . S
C220 N218 1.335 . S
C220 N219 1.345 . S
C220 H225 0.930 . S
C221 N218 1.390 . S
C221 C222 1.346 . S
C221 H226 0.930 . S
C222 N219 1.336 . S
C222 C221 1.346 . S
C222 H229 0.929 . S
C223 O213 1.282 . S
C223 O224 1.216 . S
O224 C223 1.216 . S
H225 C220 0.930 . S
H226 C221 0.930 . S
O227 Cu207 1.959 . S
O227 C214 1.251 . S
H228 C211 0.930 . S
H229 C222 0.929 . S
Cu230 N231 1.999 . S
Cu230 O236 1.974 . S
Cu230 N241 1.985 . S
Cu230 O250 1.959 . S
N231 Cu230 1.999 . S
N231 C233 1.263 . S
N231 C235 1.389 . S
N232 C233 1.358 . S
N232 C234 1.400 . S
C233 N231 1.263 . S
C233 N232 1.358 . S
C233 H239 0.930 . S
C234 N232 1.400 . S
C234 C235 1.351 . S
C234 H251 0.930 . S
C235 N231 1.389 . S
C235 C234 1.351 . S
C235 H240 0.930 . S
O236 Cu230 1.974 . S
O236 C246 1.282 . S
C237 O238 1.261 . S
C237 O250 1.251 . S
O238 C237 1.261 . S
H239 C233 0.930 . S
H240 C235 0.930 . S
N241 Cu230 1.985 . S
N241 C243 1.335 . S
N241 C244 1.390 . S
N242 C243 1.345 . S
N242 C245 1.336 . S
C243 N241 1.335 . S
C243 N242 1.345 . S
C243 H248 0.930 . S
C244 N241 1.390 . S
C244 C245 1.346 . S
C244 H249 0.930 . S
C245 N242 1.336 . S
C245 C244 1.346 . S
C245 H252 0.929 . S
C246 O236 1.282 . S
C246 O247 1.216 . S
O247 C246 1.216 . S
H248 C243 0.930 . S
H249 C244 0.930 . S
O250 Cu230 1.959 . S
O250 C237 1.251 . S
H251 C234 0.930 . S
H252 C245 0.929 . S
Cu253 N254 1.999 . S
Cu253 O259 1.974 . S
Cu253 N264 1.985 . S
Cu253 O273 1.959 . S
N254 Cu253 1.999 . S
N254 C256 1.263 . S
N254 C258 1.389 . S
N255 C256 1.358 . S
N255 C257 1.400 . S
C256 N254 1.263 . S
C256 N255 1.358 . S
C256 H262 0.930 . S
C257 N255 1.400 . S
C257 C258 1.351 . S
C257 H274 0.930 . S
C258 N254 1.389 . S
C258 C257 1.351 . S
C258 H263 0.930 . S
O259 Cu253 1.974 . S
O259 C269 1.282 . S
C260 O261 1.261 . S
C260 O273 1.251 . S
O261 C260 1.261 . S
H262 C256 0.930 . S
H263 C258 0.930 . S
N264 Cu253 1.985 . S
N264 C266 1.335 . S
N264 C267 1.390 . S
N265 C266 1.345 . S
N265 C268 1.336 . S
C266 N264 1.335 . S
C266 N265 1.345 . S
C266 H271 0.930 . S
C267 N264 1.390 . S
C267 C268 1.346 . S
C267 H272 0.930 . S
C268 N265 1.336 . S
C268 C267 1.346 . S
C268 H275 0.929 . S
C269 O259 1.282 . S
C269 O270 1.216 . S
O270 C269 1.216 . S
H271 C266 0.930 . S
H272 C267 0.930 . S
O273 Cu253 1.959 . S
O273 C260 1.251 . S
H274 C257 0.930 . S
H275 C268 0.929 . S
Cu276 N277 1.999 . S
Cu276 O282 1.974 . S
Cu276 N287 1.985 . S
Cu276 O296 1.959 . S
N277 Cu276 1.999 . S
N277 C279 1.263 . S
N277 C281 1.389 . S
N278 C279 1.358 . S
N278 C280 1.400 . S
C279 N277 1.263 . S
C279 N278 1.358 . S
C279 H285 0.930 . S
C280 N278 1.400 . S
C280 C281 1.351 . S
C280 H297 0.930 . S
C281 N277 1.389 . S
C281 C280 1.351 . S
C281 H286 0.930 . S
O282 Cu276 1.974 . S
O282 C292 1.282 . S
C283 O284 1.261 . S
C283 O296 1.251 . S
O284 C283 1.261 . S
H285 C279 0.930 . S
H286 C281 0.930 . S
N287 Cu276 1.985 . S
N287 C289 1.335 . S
N287 C290 1.390 . S
N288 C289 1.345 . S
N288 C291 1.336 . S
C289 N287 1.335 . S
C289 N288 1.345 . S
C289 H294 0.930 . S
C290 N287 1.390 . S
C290 C291 1.346 . S
C290 H295 0.930 . S
C291 N288 1.336 . S
C291 C290 1.346 . S
C291 H298 0.929 . S
C292 O282 1.282 . S
C292 O293 1.216 . S
O293 C292 1.216 . S
H294 C289 0.930 . S
H295 C290 0.930 . S
O296 Cu276 1.959 . S
O296 C283 1.251 . S
H297 C280 0.930 . S
H298 C291 0.929 . S
Cu299 N300 1.999 . S
Cu299 O305 1.974 . S
Cu299 N310 1.985 . S
Cu299 O319 1.959 . S
N300 Cu299 1.999 . S
N300 C302 1.263 . S
N300 C304 1.389 . S
N301 C302 1.358 . S
N301 C303 1.400 . S
C302 N300 1.263 . S
C302 N301 1.358 . S
C302 H308 0.930 . S
C303 N301 1.400 . S
C303 C304 1.351 . S
C303 H320 0.930 . S
C304 N300 1.389 . S
C304 C303 1.351 . S
C304 H309 0.930 . S
O305 Cu299 1.974 . S
O305 C315 1.282 . S
C306 O307 1.261 . S
C306 O319 1.251 . S
O307 C306 1.261 . S
H308 C302 0.930 . S
H309 C304 0.930 . S
N310 Cu299 1.985 . S
N310 C312 1.335 . S
N310 C313 1.390 . S
N311 C312 1.345 . S
N311 C314 1.336 . S
C312 N310 1.335 . S
C312 N311 1.345 . S
C312 H317 0.930 . S
C313 N310 1.390 . S
C313 C314 1.346 . S
C313 H318 0.930 . S
C314 N311 1.336 . S
C314 C313 1.346 . S
C314 H321 0.929 . S
C315 O305 1.282 . S
C315 O316 1.216 . S
O316 C315 1.216 . S
H317 C312 0.930 . S
H318 C313 0.930 . S
O319 Cu299 1.959 . S
O319 C306 1.251 . S
H320 C303 0.930 . S
H321 C314 0.929 . S
Cu322 N323 1.999 . S
Cu322 O328 1.974 . S
Cu322 N333 1.985 . S
Cu322 O342 1.959 . S
N323 Cu322 1.999 . S
N323 C325 1.263 . S
N323 C327 1.389 . S
N324 C325 1.358 . S
N324 C326 1.400 . S
C325 N323 1.263 . S
C325 N324 1.358 . S
C325 H331 0.930 . S
C326 N324 1.400 . S
C326 C327 1.351 . S
C326 H343 0.930 . S
C327 N323 1.389 . S
C327 C326 1.351 . S
C327 H332 0.930 . S
O328 Cu322 1.974 . S
O328 C338 1.282 . S
C329 O330 1.261 . S
C329 O342 1.251 . S
O330 C329 1.261 . S
H331 C325 0.930 . S
H332 C327 0.930 . S
N333 Cu322 1.985 . S
N333 C335 1.335 . S
N333 C336 1.390 . S
N334 C335 1.345 . S
N334 C337 1.336 . S
C335 N333 1.335 . S
C335 N334 1.345 . S
C335 H340 0.930 . S
C336 N333 1.390 . S
C336 C337 1.346 . S
C336 H341 0.930 . S
C337 N334 1.336 . S
C337 C336 1.346 . S
C337 H344 0.929 . S
C338 O328 1.282 . S
C338 O339 1.216 . S
O339 C338 1.216 . S
H340 C335 0.930 . S
H341 C336 0.930 . S
O342 Cu322 1.959 . S
O342 C329 1.251 . S
H343 C326 0.930 . S
H344 C337 0.929 . S
Cu345 N346 1.999 . S
Cu345 O351 1.974 . S
Cu345 N356 1.985 . S
Cu345 O365 1.959 . S
N346 Cu345 1.999 . S
N346 C348 1.263 . S
N346 C350 1.389 . S
N347 C348 1.358 . S
N347 C349 1.400 . S
C348 N346 1.263 . S
C348 N347 1.358 . S
C348 H354 0.930 . S
C349 N347 1.400 . S
C349 C350 1.351 . S
C349 H366 0.930 . S
C350 N346 1.389 . S
C350 C349 1.351 . S
C350 H355 0.930 . S
O351 Cu345 1.974 . S
O351 C361 1.282 . S
C352 O353 1.261 . S
C352 O365 1.251 . S
O353 C352 1.261 . S
H354 C348 0.930 . S
H355 C350 0.930 . S
N356 Cu345 1.985 . S
N356 C358 1.335 . S
N356 C359 1.390 . S
N357 C358 1.345 . S
N357 C360 1.336 . S
C358 N356 1.335 . S
C358 N357 1.345 . S
C358 H363 0.930 . S
C359 N356 1.390 . S
C359 C360 1.346 . S
C359 H364 0.930 . S
C360 N357 1.336 . S
C360 C359 1.346 . S
C360 H367 0.929 . S
C361 O351 1.282 . S
C361 O362 1.216 . S
O362 C361 1.216 . S
H363 C358 0.930 . S
H364 C359 0.930 . S
O365 Cu345 1.959 . S
O365 C352 1.251 . S
H366 C349 0.930 . S
H367 C360 0.929 . S
Cu368 N369 1.999 . S
Cu368 O374 1.974 . S
Cu368 N379 1.985 . S
Cu368 O388 1.959 . S
N369 Cu368 1.999 . S
N369 C371 1.263 . S
N369 C373 1.389 . S
N370 C371 1.358 . S
N370 C372 1.400 . S
C371 N369 1.263 . S
C371 N370 1.358 . S
C371 H377 0.930 . S
C372 N370 1.400 . S
C372 C373 1.351 . S
C372 H389 0.930 . S
C373 N369 1.389 . S
C373 C372 1.351 . S
C373 H378 0.930 . S
O374 Cu368 1.974 . S
O374 C384 1.282 . S
C375 O376 1.261 . S
C375 O388 1.251 . S
O376 C375 1.261 . S
H377 C371 0.930 . S
H378 C373 0.930 . S
N379 Cu368 1.985 . S
N379 C381 1.335 . S
N379 C382 1.390 . S
N380 C381 1.345 . S
N380 C383 1.336 . S
C381 N379 1.335 . S
C381 N380 1.345 . S
C381 H386 0.930 . S
C382 N379 1.390 . S
C382 C383 1.346 . S
C382 H387 0.930 . S
C383 N380 1.336 . S
C383 C382 1.346 . S
C383 H390 0.929 . S
C384 O374 1.282 . S
C384 O385 1.216 . S
O385 C384 1.216 . S
H386 C381 0.930 . S
H387 C382 0.930 . S
O388 Cu368 1.959 . S
O388 C375 1.251 . S
H389 C372 0.930 . S
H390 C383 0.929 . S
Cu391 N392 1.999 . S
Cu391 O397 1.974 . S
Cu391 N402 1.985 . S
Cu391 O411 1.959 . S
N392 Cu391 1.999 . S
N392 C394 1.263 . S
N392 C396 1.389 . S
N393 C394 1.358 . S
N393 C395 1.400 . S
C394 N392 1.263 . S
C394 N393 1.358 . S
C394 H400 0.930 . S
C395 N393 1.400 . S
C395 C396 1.351 . S
C395 H412 0.930 . S
C396 N392 1.389 . S
C396 C395 1.351 . S
C396 H401 0.930 . S
O397 Cu391 1.974 . S
O397 C407 1.282 . S
C398 O399 1.261 . S
C398 O411 1.251 . S
O399 C398 1.261 . S
H400 C394 0.930 . S
H401 C396 0.930 . S
N402 Cu391 1.985 . S
N402 C404 1.335 . S
N402 C405 1.390 . S
N403 C404 1.345 . S
N403 C406 1.336 . S
C404 N402 1.335 . S
C404 N403 1.345 . S
C404 H409 0.930 . S
C405 N402 1.390 . S
C405 C406 1.346 . S
C405 H410 0.930 . S
C406 N403 1.336 . S
C406 C405 1.346 . S
C406 H413 0.929 . S
C407 O397 1.282 . S
C407 O408 1.216 . S
O408 C407 1.216 . S
H409 C404 0.930 . S
H410 C405 0.930 . S
O411 Cu391 1.959 . S
O411 C398 1.251 . S
H412 C395 0.930 . S
H413 C406 0.929 . S
Zn414 O417 2.031 . S
Zn414 O419 2.049 . S
Zn414 O424 2.067 1_455 S
Zn415 O416 1.962 . S
Zn415 O418 1.986 . S
Zn415 O420 1.996 . S
Zn415 O423 1.943 1_455 S
O416 Zn415 1.962 . S
O416 C421 1.254 . S
O417 Zn414 2.031 . S
O417 C421 1.269 . S
O418 Zn415 1.986 . S
O418 C425 1.262 . S
O419 Zn414 2.049 . S
O419 C427 1.260 . S
O420 Zn415 1.996 . S
O420 C427 1.257 . S
C421 O416 1.254 . S
C421 O417 1.269 . S
C422 O423 1.249 . S
C422 O424 1.270 . S
O423 Zn415 1.943 1_655 S
O423 C422 1.249 . S
O424 Zn414 2.067 1_655 S
O424 C422 1.270 . S
C425 O418 1.262 . S
C425 O426 1.232 1_455 S
O426 C425 1.232 1_655 S
C427 O419 1.260 . S
C427 O420 1.257 . S
Zn428 O431 2.031 . S
Zn428 O433 2.049 . S
Zn428 O438 2.067 . S
Zn429 O430 1.962 . S
Zn429 O432 1.986 . S
Zn429 O434 1.996 . S
Zn429 O437 1.943 . S
O430 Zn429 1.962 . S
O430 C435 1.254 . S
O431 Zn428 2.031 . S
O431 C435 1.269 . S
O432 Zn429 1.986 . S
O432 C439 1.262 . S
O433 Zn428 2.049 . S
O433 C441 1.260 . S
O434 Zn429 1.996 . S
O434 C441 1.257 . S
C435 O430 1.254 . S
C435 O431 1.269 . S
C436 O437 1.249 . S
C436 O438 1.270 . S
O437 Zn429 1.943 . S
O437 C436 1.249 . S
O438 Zn428 2.067 . S
O438 C436 1.270 . S
C439 O432 1.262 . S
C439 O440 1.232 . S
O440 C439 1.232 . S
C441 O433 1.260 . S
C441 O434 1.257 . S
Zn442 O445 2.031 . S
Zn442 O447 2.049 . S
Zn442 O452 2.067 . S
Zn443 O444 1.962 . S
Zn443 O446 1.986 . S
Zn443 O448 1.996 . S
Zn443 O451 1.943 . S
O444 Zn443 1.962 . S
O444 C449 1.254 . S
O445 Zn442 2.031 . S
O445 C449 1.269 . S
O446 Zn443 1.986 . S
O446 C453 1.262 . S
O447 Zn442 2.049 . S
O447 C455 1.260 . S
O448 Zn443 1.996 . S
O448 C455 1.257 . S
C449 O444 1.254 . S
C449 O445 1.269 . S
C450 O451 1.249 . S
C450 O452 1.270 . S
O451 Zn443 1.943 . S
O451 C450 1.249 . S
O452 Zn442 2.067 . S
O452 C450 1.270 . S
C453 O446 1.262 . S
C453 O454 1.232 . S
O454 C453 1.232 . S
C455 O447 1.260 . S
C455 O448 1.257 . S
Zn456 O459 2.031 1_455 S
Zn456 O461 2.049 . S
Zn456 O466 2.067 . S
Zn457 O458 1.962 1_455 S
Zn457 O460 1.986 . S
Zn457 O462 1.996 . S
Zn457 O465 1.943 . S
O458 Zn457 1.962 1_655 S
O458 C463 1.254 . S
O459 Zn456 2.031 1_655 S
O459 C463 1.269 . S
O460 Zn457 1.986 . S
O460 C467 1.262 . S
O461 Zn456 2.049 . S
O461 C469 1.260 . S
O462 Zn457 1.996 . S
O462 C469 1.257 . S
C463 O458 1.254 . S
C463 O459 1.269 . S
C464 O465 1.249 . S
C464 O466 1.270 . S
O465 Zn457 1.943 . S
O465 C464 1.249 . S
O466 Zn456 2.067 . S
O466 C464 1.270 . S
C467 O460 1.262 . S
C467 O468 1.232 . S
O468 C467 1.232 . S
C469 O461 1.260 . S
C469 O462 1.257 . S
Zn470 O473 2.031 . S
Zn470 O475 2.049 . S
Zn470 O480 2.067 . S
Zn471 O472 1.962 . S
Zn471 O474 1.986 . S
Zn471 O476 1.996 . S
Zn471 O479 1.943 . S
O472 Zn471 1.962 . S
O472 C477 1.254 . S
O473 Zn470 2.031 . S
O473 C477 1.269 . S
O474 Zn471 1.986 . S
O474 C481 1.262 . S
O475 Zn470 2.049 . S
O475 C483 1.260 . S
O476 Zn471 1.996 . S
O476 C483 1.257 . S
C477 O472 1.254 . S
C477 O473 1.269 . S
C478 O479 1.249 . S
C478 O480 1.270 . S
O479 Zn471 1.943 . S
O479 C478 1.249 . S
O480 Zn470 2.067 . S
O480 C478 1.270 . S
C481 O474 1.262 . S
C481 O482 1.232 . S
O482 C481 1.232 . S
C483 O475 1.260 . S
C483 O476 1.257 . S
Zn484 O487 2.031 . S
Zn484 O489 2.049 . S
Zn484 O494 2.067 . S
Zn485 O486 1.962 . S
Zn485 O488 1.986 . S
Zn485 O490 1.996 . S
Zn485 O493 1.943 . S
O486 Zn485 1.962 . S
O486 C491 1.254 . S
O487 Zn484 2.031 . S
O487 C491 1.269 . S
O488 Zn485 1.986 . S
O488 C495 1.262 . S
O489 Zn484 2.049 . S
O489 C497 1.260 . S
O490 Zn485 1.996 . S
O490 C497 1.257 . S
C491 O486 1.254 . S
C491 O487 1.269 . S
C492 O493 1.247 . S
C492 O494 1.276 . S
O493 Zn485 1.943 . S
O493 C492 1.247 . S
O494 Zn484 2.067 . S
O494 C492 1.276 . S
C495 O488 1.262 . S
C495 O496 1.232 . S
O496 C495 1.232 . S
C497 O489 1.260 . S
C497 O490 1.257 . S
Zn498 O501 2.031 1_545 S
Zn498 O503 2.049 . S
Zn498 O508 2.067 . S
Zn499 O500 1.962 . S
Zn499 O502 1.986 . S
Zn499 O504 1.996 1_565 S
Zn499 O507 1.943 . S
O500 Zn499 1.962 . S
O500 C505 1.254 . S
O501 Zn498 2.031 1_565 S
O501 C505 1.269 . S
O502 Zn499 1.986 . S
O502 C509 1.262 . S
O503 Zn498 2.049 . S
O503 C511 1.260 . S
O504 Zn499 1.996 1_545 S
O504 C511 1.257 . S
C505 O500 1.254 . S
C505 O501 1.269 . S
C506 O507 1.249 1_545 S
C506 O508 1.270 . S
O507 Zn499 1.943 . S
O507 C506 1.249 1_565 S
O508 Zn498 2.067 . S
O508 C506 1.270 . S
C509 O502 1.262 . S
C509 O510 1.232 . S
O510 C509 1.232 . S
C511 O503 1.260 . S
C511 O504 1.257 . S
Zn512 O515 2.031 . S
Zn512 O517 2.049 . S
Zn512 O522 2.067 . S
Zn513 O514 1.962 . S
Zn513 O516 1.986 . S
Zn513 O518 1.996 . S
Zn513 O521 1.943 . S
O514 Zn513 1.962 . S
O514 C519 1.254 . S
O515 Zn512 2.031 . S
O515 C519 1.269 . S
O516 Zn513 1.986 . S
O516 C523 1.262 . S
O517 Zn512 2.049 . S
O517 C525 1.260 . S
O518 Zn513 1.996 . S
O518 C525 1.257 . S
C519 O514 1.254 . S
C519 O515 1.269 . S
C520 O521 1.249 . S
C520 O522 1.270 . S
O521 Zn513 1.943 . S
O521 C520 1.249 . S
O522 Zn512 2.067 . S
O522 C520 1.270 . S
C523 O516 1.262 . S
C523 O524 1.232 . S
O524 C523 1.232 . S
C525 O517 1.260 . S
C525 O518 1.257 . S
Zn526 O529 2.031 . S
Zn526 O531 2.049 . S
Zn526 O536 2.067 . S
Zn527 O528 1.962 . S
Zn527 O530 1.986 . S
Zn527 O532 1.996 . S
Zn527 O535 1.943 . S
O528 Zn527 1.962 . S
O528 C533 1.254 . S
O529 Zn526 2.031 . S
O529 C533 1.269 . S
O530 Zn527 1.986 . S
O530 C537 1.262 . S
O531 Zn526 2.049 . S
O531 C539 1.260 . S
O532 Zn527 1.996 . S
O532 C539 1.257 . S
C533 O528 1.254 . S
C533 O529 1.269 . S
C534 O535 1.249 . S
C534 O536 1.270 . S
O535 Zn527 1.943 . S
O535 C534 1.249 . S
O536 Zn526 2.067 . S
O536 C534 1.270 . S
C537 O530 1.262 . S
C537 O538 1.232 . S
O538 C537 1.232 . S
C539 O531 1.260 . S
C539 O532 1.257 . S
Zn540 O543 2.031 . S
Zn540 O545 2.049 . S
Zn540 O550 2.067 . S
Zn541 O542 1.962 . S
Zn541 O544 1.986 . S
Zn541 O546 1.996 . S
Zn541 O549 1.943 . S
O542 Zn541 1.962 . S
O542 C547 1.254 . S
O543 Zn540 2.031 . S
O543 C547 1.269 . S
O544 Zn541 1.986 . S
O544 C551 1.262 . S
O545 Zn540 2.049 . S
O545 C553 1.260 . S
O546 Zn541 1.996 . S
O546 C553 1.257 . S
C547 O542 1.254 . S
C547 O543 1.269 . S
C548 O549 1.249 . S
C548 O550 1.270 . S
O549 Zn541 1.943 . S
O549 C548 1.249 . S
O550 Zn540 2.067 . S
O550 C548 1.270 . S
C551 O544 1.262 . S
C551 O552 1.232 . S
O552 C551 1.232 . S
C553 O545 1.260 . S
C553 O546 1.257 . S
Zn554 O557 2.031 . S
Zn554 O559 2.049 1_545 S
Zn554 O564 2.067 . S
Zn555 O556 1.962 1_565 S
Zn555 O558 1.986 . S
Zn555 O560 1.996 . S
Zn555 O563 1.943 . S
O556 Zn555 1.962 1_545 S
O556 C561 1.254 . S
O557 Zn554 2.031 . S
O557 C561 1.269 . S
O558 Zn555 1.986 . S
O558 C565 1.262 . S
O559 Zn554 2.049 1_565 S
O559 C567 1.260 . S
O560 Zn555 1.996 . S
O560 C567 1.257 . S
C561 O556 1.254 . S
C561 O557 1.269 . S
C562 O563 1.249 1_545 S
C562 O564 1.270 . S
O563 Zn555 1.943 . S
O563 C562 1.249 1_565 S
O564 Zn554 2.067 . S
O564 C562 1.270 . S
C565 O558 1.262 . S
C565 O566 1.232 . S
O566 C565 1.232 . S
C567 O559 1.260 . S
C567 O560 1.257 . S
Zn568 O571 2.031 . S
Zn568 O573 2.049 . S
Zn568 O578 2.067 . S
Zn569 O570 1.962 . S
Zn569 O572 1.986 . S
Zn569 O574 1.996 . S
Zn569 O577 1.943 . S
O570 Zn569 1.962 . S
O570 C575 1.254 . S
O571 Zn568 2.031 . S
O571 C575 1.269 . S
O572 Zn569 1.986 . S
O572 C579 1.262 . S
O573 Zn568 2.049 . S
O573 C581 1.260 . S
O574 Zn569 1.996 . S
O574 C581 1.257 . S
C575 O570 1.254 . S
C575 O571 1.269 . S
C576 O577 1.249 . S
C576 O578 1.270 . S
O577 Zn569 1.943 . S
O577 C576 1.249 . S
O578 Zn568 2.067 . S
O578 C576 1.270 . S
C579 O572 1.262 . S
C579 O580 1.232 . S
O580 C579 1.232 . S
C581 O573 1.260 . S
C581 O574 1.257 . S
Zn582 O585 2.031 . S
Zn582 O587 2.049 . S
Zn582 O592 2.067 . S
Zn583 O584 1.962 . S
Zn583 O586 1.986 . S
Zn583 O588 1.996 . S
Zn583 O591 1.943 . S
O584 Zn583 1.962 . S
O584 C589 1.254 . S
O585 Zn582 2.031 . S
O585 C589 1.269 . S
O586 Zn583 1.986 . S
O586 C593 1.262 . S
O587 Zn582 2.049 . S
O587 C595 1.260 . S
O588 Zn583 1.996 . S
O588 C595 1.257 . S
C589 O584 1.254 . S
C589 O585 1.269 . S
C590 O591 1.249 . S
C590 O592 1.270 . S
O591 Zn583 1.943 . S
O591 C590 1.249 . S
O592 Zn582 2.067 . S
O592 C590 1.270 . S
C593 O586 1.262 . S
C593 O594 1.232 . S
O594 C593 1.232 . S
C595 O587 1.260 . S
C595 O588 1.257 . S
Zn596 O599 2.031 . S
Zn596 O601 2.049 . S
Zn596 O606 2.067 . S
Zn597 O598 1.962 . S
Zn597 O600 1.986 . S
Zn597 O602 1.996 . S
Zn597 O605 1.943 . S
O598 Zn597 1.962 . S
O598 C603 1.254 . S
O599 Zn596 2.031 . S
O599 C603 1.269 . S
O600 Zn597 1.986 . S
O600 C607 1.262 . S
O601 Zn596 2.049 . S
O601 C609 1.260 . S
O602 Zn597 1.996 . S
O602 C609 1.257 . S
C603 O598 1.254 . S
C603 O599 1.269 . S
C604 O605 1.249 . S
C604 O606 1.270 . S
O605 Zn597 1.943 . S
O605 C604 1.249 . S
O606 Zn596 2.067 . S
O606 C604 1.270 . S
C607 O600 1.262 . S
C607 O608 1.232 . S
O608 C607 1.232 . S
C609 O601 1.260 . S
C609 O602 1.257 . S
Zn610 O613 1.985 1_455 S
Zn610 O615 2.081 . S
Zn610 O620 2.081 . S
Zn611 O612 1.962 . S
Zn611 O614 1.986 . S
Zn611 O616 1.996 . S
Zn611 O619 1.943 1_655 S
O612 Zn611 1.962 . S
O612 C617 1.254 . S
O613 Zn610 1.985 1_655 S
O613 C617 1.269 . S
O614 Zn611 1.986 . S
O614 C621 1.262 . S
O615 Zn610 2.081 . S
O615 C623 1.260 1_455 S
O616 Zn611 1.996 . S
O616 C623 1.257 . S
C617 O612 1.254 . S
C617 O613 1.269 . S
C618 O619 1.249 . S
C618 O620 1.270 . S
O619 Zn611 1.943 1_455 S
O619 C618 1.249 . S
O620 Zn610 2.081 . S
O620 C618 1.270 . S
C621 O614 1.262 . S
C621 O622 1.232 . S
O622 C621 1.232 . S
C623 O615 1.260 1_655 S
C623 O616 1.257 . S
Zn624 O627 2.031 . S
Zn624 O629 2.049 . S
Zn624 O634 2.067 . S
Zn625 O626 1.962 . S
Zn625 O628 1.986 . S
Zn625 O630 1.996 . S
Zn625 O633 1.943 . S
O626 Zn625 1.962 . S
O626 C631 1.254 . S
O627 Zn624 2.031 . S
O627 C631 1.269 . S
O628 Zn625 1.986 . S
O628 C635 1.262 . S
O629 Zn624 2.049 . S
O629 C637 1.260 . S
O630 Zn625 1.996 . S
O630 C637 1.257 . S
C631 O626 1.254 . S
C631 O627 1.269 . S
C632 O633 1.249 . S
C632 O634 1.270 . S
O633 Zn625 1.943 . S
O633 C632 1.249 . S
O634 Zn624 2.067 . S
O634 C632 1.270 . S
C635 O628 1.262 . S
C635 O636 1.232 . S
O636 C635 1.232 . S
C637 O629 1.260 . S
C637 O630 1.257 . S
Zn638 O641 2.031 1_655 S
Zn638 O643 2.049 . S
Zn638 O648 2.067 1_655 S
Zn639 O640 1.962 . S
Zn639 O642 1.986 . S
Zn639 O644 1.996 . S
Zn639 O647 1.936 1_655 S
O640 Zn639 1.962 . S
O640 C645 1.254 . S
O641 Zn638 2.031 1_455 S
O641 C645 1.269 1_455 S
O642 Zn639 1.986 . S
O642 C649 1.262 . S
O643 Zn638 2.049 . S
O643 C651 1.260 . S
O644 Zn639 1.996 . S
O644 C651 1.257 . S
C645 O640 1.254 . S
C645 O641 1.269 1_655 S
C646 O647 1.253 . S
C646 O648 1.270 . S
O647 Zn639 1.936 1_455 S
O647 C646 1.253 . S
O648 Zn638 2.067 1_455 S
O648 C646 1.270 . S
C649 O642 1.262 . S
C649 O650 1.232 . S
O650 C649 1.232 . S
C651 O643 1.260 . S
C651 O644 1.257 . S
Zn652 O655 2.031 . S
Zn652 O657 2.049 . S
Zn652 O662 2.067 . S
Zn653 O654 1.962 . S
Zn653 O656 1.986 . S
Zn653 O658 1.996 . S
Zn653 O661 1.943 . S
O654 Zn653 1.962 . S
O654 C659 1.254 . S
O655 Zn652 2.031 . S
O655 C659 1.269 . S
O656 Zn653 1.986 . S
O656 C663 1.262 . S
O657 Zn652 2.049 . S
O657 C665 1.260 . S
O658 Zn653 1.996 . S
O658 C665 1.257 . S
C659 O654 1.254 . S
C659 O655 1.269 . S
C660 O661 1.249 . S
C660 O662 1.270 . S
O661 Zn653 1.943 . S
O661 C660 1.249 . S
O662 Zn652 2.067 . S
O662 C660 1.270 . S
C663 O656 1.262 . S
C663 O664 1.232 . S
O664 C663 1.232 . S
C665 O657 1.260 . S
C665 O658 1.257 . S
H666 C672 0.976 . S
H667 C675 0.930 . S
H668 C676 0.930 . S
H669 C677 0.930 . S
H670 C680 0.930 . S
H671 C681 0.930 1_655 S
C672 H666 0.976 . S
C672 C673 1.355 . S
C672 C674 1.415 . S
C673 C672 1.355 . S
C673 C675 1.419 . S
C674 C672 1.415 . S
C674 C679 1.425 . S
C674 C681 1.409 . S
C675 H667 0.930 . S
C675 C673 1.419 . S
C675 C676 1.362 . S
C676 H668 0.930 . S
C676 C675 1.362 . S
C676 C679 1.409 . S
C677 H669 0.930 . S
C677 C678 1.355 . S
C677 C679 1.415 . S
C678 C677 1.355 . S
C678 C680 1.419 . S
C679 C674 1.425 . S
C679 C676 1.409 . S
C679 C677 1.415 . S
C680 H670 0.930 . S
C680 C678 1.419 . S
C680 C681 1.362 . S
C681 H671 0.930 1_455 S
C681 C674 1.409 . S
C681 C680 1.362 . S
H682 C688 0.930 . S
H683 C691 0.930 . S
H684 C692 0.930 . S
H685 C693 0.930 . S
H686 C696 0.930 . S
H687 C697 0.930 . S
C688 H682 0.930 . S
C688 C689 1.355 . S
C688 C690 1.415 . S
C689 C688 1.355 . S
C689 C691 1.419 . S
C690 C688 1.415 . S
C690 C695 1.425 . S
C690 C697 1.409 . S
C691 H683 0.930 . S
C691 C689 1.419 . S
C691 C692 1.362 . S
C692 H684 0.930 . S
C692 C691 1.362 . S
C692 C695 1.409 . S
C693 H685 0.930 . S
C693 C694 1.355 . S
C693 C695 1.415 . S
C694 C693 1.355 . S
C694 C696 1.419 . S
C695 C690 1.425 . S
C695 C692 1.409 . S
C695 C693 1.415 . S
C696 H686 0.930 . S
C696 C694 1.419 . S
C696 C697 1.362 . S
C697 H687 0.930 . S
C697 C690 1.409 . S
C697 C696 1.362 . S
H698 C704 0.930 . S
H699 C707 0.930 . S
H700 C708 0.930 . S
H701 C709 0.932 1_565 S
H702 C712 0.930 . S
H703 C713 0.930 . S
C704 H698 0.930 . S
C704 C705 1.355 . S
C704 C706 1.415 . S
C705 C704 1.355 . S
C705 C707 1.419 . S
C706 C704 1.415 . S
C706 C711 1.425 . S
C706 C713 1.409 . S
C707 H699 0.930 . S
C707 C705 1.419 . S
C707 C708 1.362 1_545 S
C708 H700 0.930 . S
C708 C707 1.362 1_565 S
C708 C711 1.409 1_565 S
C709 H701 0.932 1_545 S
C709 C710 1.351 . S
C709 C711 1.416 . S
C710 C709 1.351 . S
C710 C712 1.419 . S
C711 C706 1.425 . S
C711 C708 1.409 1_545 S
C711 C709 1.416 . S
C712 H702 0.930 . S
C712 C710 1.419 . S
C712 C713 1.362 . S
C713 H703 0.930 . S
C713 C706 1.409 . S
C713 C712 1.362 . S
H714 C720 0.930 . S
H715 C723 0.930 . S
H716 C724 0.930 . S
H717 C725 0.930 . S
H718 C728 0.930 . S
H719 C729 0.930 . S
C720 H714 0.930 . S
C720 C721 1.355 . S
C720 C722 1.415 . S
C721 C720 1.355 . S
C721 C723 1.419 . S
C722 C720 1.415 . S
C722 C727 1.425 . S
C722 C729 1.409 . S
C723 H715 0.930 . S
C723 C721 1.419 . S
C723 C724 1.362 . S
C724 H716 0.930 . S
C724 C723 1.362 . S
C724 C727 1.409 . S
C725 H717 0.930 . S
C725 C726 1.355 . S
C725 C727 1.415 . S
C726 C725 1.355 . S
C726 C728 1.419 . S
C727 C722 1.425 . S
C727 C724 1.409 . S
C727 C725 1.415 . S
C728 H718 0.930 . S
C728 C726 1.419 . S
C728 C729 1.362 . S
C729 H719 0.930 . S
C729 C722 1.409 . S
C729 C728 1.362 . S
H730 C736 0.930 . S
H731 C739 0.930 . S
H732 C740 0.930 . S
H733 C741 0.930 . S
H734 C744 0.932 . S
H735 C745 0.930 . S
C736 H730 0.930 . S
C736 C737 1.355 . S
C736 C738 1.415 . S
C737 C736 1.355 . S
C737 C739 1.419 . S
C738 C736 1.415 . S
C738 C743 1.425 . S
C738 C745 1.409 . S
C739 H731 0.930 . S
C739 C737 1.419 . S
C739 C740 1.362 . S
C740 H732 0.930 . S
C740 C739 1.362 . S
C740 C743 1.409 . S
C741 H733 0.930 . S
C741 C742 1.355 . S
C741 C743 1.415 . S
C742 C741 1.355 . S
C742 C744 1.416 1_455 S
C743 C738 1.425 . S
C743 C740 1.409 . S
C743 C741 1.415 . S
C744 H734 0.932 . S
C744 C742 1.416 1_655 S
C744 C745 1.364 1_655 S
C745 H735 0.930 . S
C745 C738 1.409 . S
C745 C744 1.364 1_455 S
H746 C752 0.930 . S
H747 C755 0.930 . S
H748 C756 0.930 . S
H749 C757 0.930 . S
H750 C760 0.930 . S
H751 C761 0.930 . S
C752 H746 0.930 . S
C752 C753 1.355 . S
C752 C754 1.415 . S
C753 C752 1.355 . S
C753 C755 1.419 . S
C754 C752 1.415 . S
C754 C759 1.425 . S
C754 C761 1.409 . S
C755 H747 0.930 . S
C755 C753 1.419 . S
C755 C756 1.362 . S
C756 H748 0.930 . S
C756 C755 1.362 . S
C756 C759 1.409 . S
C757 H749 0.930 . S
C757 C758 1.355 . S
C757 C759 1.415 . S
C758 C757 1.355 . S
C758 C760 1.419 . S
C759 C754 1.425 . S
C759 C756 1.409 . S
C759 C757 1.415 . S
C760 H750 0.930 . S
C760 C758 1.419 . S
C760 C761 1.362 . S
C761 H751 0.930 . S
C761 C754 1.409 . S
C761 C760 1.362 . S
H762 C768 0.930 . S
H763 C771 0.930 . S
H764 C772 0.930 . S
H765 C773 0.930 . S
H766 C776 0.930 . S
H767 C777 0.930 . S
C768 H762 0.930 . S
C768 C769 1.355 1_655 S
C768 C770 1.415 . S
C769 C768 1.355 1_455 S
C769 C771 1.419 . S
C770 C768 1.415 . S
C770 C775 1.425 1_655 S
C770 C777 1.409 . S
C771 H763 0.930 . S
C771 C769 1.419 . S
C771 C772 1.362 . S
C772 H764 0.930 . S
C772 C771 1.362 . S
C772 C775 1.409 . S
C773 H765 0.930 . S
C773 C774 1.355 1_455 S
C773 C775 1.415 . S
C774 C773 1.355 1_655 S
C774 C776 1.419 . S
C775 C770 1.425 1_455 S
C775 C772 1.409 . S
C775 C773 1.415 . S
C776 H766 0.930 . S
C776 C774 1.419 . S
C776 C777 1.362 . S
C777 H767 0.930 . S
C777 C770 1.409 . S
C777 C776 1.362 . S
H778 C784 0.930 . S
H779 C787 0.930 . S
H780 C788 0.930 . S
H781 C789 0.930 . S
H782 C792 0.930 . S
H783 C793 0.930 . S
C784 H778 0.930 . S
C784 C785 1.355 . S
C784 C786 1.415 . S
C785 C784 1.355 . S
C785 C787 1.419 . S
C786 C784 1.415 . S
C786 C791 1.425 . S
C786 C793 1.409 . S
C787 H779 0.930 . S
C787 C785 1.419 . S
C787 C788 1.362 . S
C788 H780 0.930 . S
C788 C787 1.362 . S
C788 C791 1.409 . S
C789 H781 0.930 . S
C789 C790 1.355 . S
C789 C791 1.415 . S
C790 C789 1.355 . S
C790 C792 1.419 . S
C791 C786 1.425 . S
C791 C788 1.409 . S
C791 C789 1.415 . S
C792 H782 0.930 . S
C792 C790 1.419 . S
C792 C793 1.362 . S
C793 H783 0.930 . S
C793 C786 1.409 . S
C793 C792 1.362 . S
H794 C800 0.930 . S
H795 C803 0.930 . S
H796 C804 0.930 . S
H797 C805 0.930 . S
H798 C808 0.930 . S
H799 C809 0.930 . S
C800 H794 0.930 . S
C800 C801 1.355 . S
C800 C802 1.415 . S
C801 C800 1.355 . S
C801 C803 1.419 . S
C802 C800 1.415 . S
C802 C807 1.425 . S
C802 C809 1.409 . S
C803 H795 0.930 . S
C803 C801 1.419 . S
C803 C804 1.362 . S
C804 H796 0.930 . S
C804 C803 1.362 . S
C804 C807 1.409 . S
C805 H797 0.930 . S
C805 C806 1.355 . S
C805 C807 1.415 . S
C806 C805 1.355 . S
C806 C808 1.419 . S
C807 C802 1.425 . S
C807 C804 1.409 . S
C807 C805 1.415 . S
C808 H798 0.930 . S
C808 C806 1.419 . S
C808 C809 1.362 . S
C809 H799 0.930 . S
C809 C802 1.409 . S
C809 C808 1.362 . S
H810 C816 0.930 . S
H811 C819 0.930 . S
H812 C820 0.930 . S
H813 C821 0.930 . S
H814 C824 0.930 . S
H815 C825 0.930 . S
C816 H810 0.930 . S
C816 C817 1.355 1_565 S
C816 C818 1.415 . S
C817 C816 1.355 1_545 S
C817 C819 1.419 . S
C818 C816 1.415 . S
C818 C823 1.425 1_565 S
C818 C825 1.409 . S
C819 H811 0.930 . S
C819 C817 1.419 . S
C819 C820 1.362 . S
C820 H812 0.930 . S
C820 C819 1.362 . S
C820 C823 1.409 . S
C821 H813 0.930 . S
C821 C822 1.355 1_545 S
C821 C823 1.415 . S
C822 C821 1.355 1_565 S
C822 C824 1.419 . S
C823 C818 1.425 1_545 S
C823 C820 1.409 . S
C823 C821 1.415 . S
C824 H814 0.930 . S
C824 C822 1.419 . S
C824 C825 1.362 . S
C825 H815 0.930 . S
C825 C818 1.409 . S
C825 C824 1.362 . S
H826 C832 0.930 . S
H827 C835 0.930 . S
H828 C836 0.930 . S
H829 C837 0.930 . S
H830 C840 0.930 . S
H831 C841 0.930 . S
C832 H826 0.930 . S
C832 C833 1.355 . S
C832 C834 1.415 . S
C833 C832 1.355 . S
C833 C835 1.419 . S
C834 C832 1.415 . S
C834 C839 1.425 . S
C834 C841 1.409 . S
C835 H827 0.930 . S
C835 C833 1.419 . S
C835 C836 1.362 . S
C836 H828 0.930 . S
C836 C835 1.362 . S
C836 C839 1.409 . S
C837 H829 0.930 . S
C837 C838 1.355 . S
C837 C839 1.415 . S
C838 C837 1.355 . S
C838 C840 1.419 . S
C839 C834 1.425 . S
C839 C836 1.409 . S
C839 C837 1.415 . S
C840 H830 0.930 . S
C840 C838 1.419 . S
C840 C841 1.362 . S
C841 H831 0.930 . S
C841 C834 1.409 . S
C841 C840 1.362 . S
H842 C848 0.930 . S
H843 C851 0.930 . S
H844 C852 0.930 . S
H845 C853 0.930 . S
H846 C856 0.930 . S
H847 C857 0.930 . S
C848 H842 0.930 . S
C848 C849 1.355 . S
C848 C850 1.415 . S
C849 C848 1.355 . S
C849 C851 1.419 . S
C850 C848 1.415 . S
C850 C855 1.425 . S
C850 C857 1.409 . S
C851 H843 0.930 . S
C851 C849 1.419 . S
C851 C852 1.362 . S
C852 H844 0.930 . S
C852 C851 1.362 . S
C852 C855 1.409 . S
C853 H845 0.930 . S
C853 C854 1.355 . S
C853 C855 1.415 . S
C854 C853 1.355 . S
C854 C856 1.419 . S
C855 C850 1.425 . S
C855 C852 1.409 . S
C855 C853 1.415 . S
C856 H846 0.930 . S
C856 C854 1.419 . S
C856 C857 1.362 . S
C857 H847 0.930 . S
C857 C850 1.409 . S
C857 C856 1.362 . S
H858 C864 0.930 . S
H859 C867 0.930 . S
H860 C868 0.930 . S
H861 C869 0.930 . S
H862 C872 0.930 . S
H863 C873 0.930 . S
C864 H858 0.930 . S
C864 C865 1.355 . S
C864 C866 1.415 . S
C865 C864 1.355 . S
C865 C867 1.419 . S
C866 C864 1.415 . S
C866 C871 1.425 . S
C866 C873 1.409 . S
C867 H859 0.930 . S
C867 C865 1.419 . S
C867 C868 1.362 . S
C868 H860 0.930 . S
C868 C867 1.362 . S
C868 C871 1.409 . S
C869 H861 0.930 . S
C869 C870 1.355 . S
C869 C871 1.415 . S
C870 C869 1.355 . S
C870 C872 1.419 . S
C871 C866 1.425 . S
C871 C868 1.409 . S
C871 C869 1.415 . S
C872 H862 0.930 . S
C872 C870 1.419 . S
C872 C873 1.362 . S
C873 H863 0.930 . S
C873 C866 1.409 . S
C873 C872 1.362 . S
H874 C880 0.930 . S
H875 C883 0.930 . S
H876 C884 0.930 . S
H877 C885 0.930 . S
H878 C888 0.930 . S
H879 C889 0.930 . S
C880 H874 0.930 . S
C880 C881 1.355 . S
C880 C882 1.415 1_565 S
C881 C880 1.355 . S
C881 C883 1.419 . S
C882 C880 1.415 1_545 S
C882 C887 1.425 . S
C882 C889 1.409 . S
C883 H875 0.930 . S
C883 C881 1.419 . S
C883 C884 1.362 . S
C884 H876 0.930 . S
C884 C883 1.362 . S
C884 C887 1.409 1_565 S
C885 H877 0.930 . S
C885 C886 1.355 . S
C885 C887 1.415 . S
C886 C885 1.355 . S
C886 C888 1.419 . S
C887 C882 1.425 . S
C887 C884 1.409 1_545 S
C887 C885 1.415 . S
C888 H878 0.930 . S
C888 C886 1.419 . S
C888 C889 1.362 . S
C889 H879 0.930 . S
C889 C882 1.409 . S
C889 C888 1.362 . S
H890 C896 0.930 . S
H891 C899 0.930 . S
H892 C900 0.930 . S
H893 C901 0.930 . S
H894 C904 0.930 . S
H895 C905 0.930 . S
C896 H890 0.930 . S
C896 C897 1.355 . S
C896 C898 1.415 . S
C897 C896 1.355 . S
C897 C899 1.419 . S
C898 C896 1.415 . S
C898 C903 1.425 . S
C898 C905 1.409 . S
C899 H891 0.930 . S
C899 C897 1.419 . S
C899 C900 1.362 . S
C900 H892 0.930 . S
C900 C899 1.362 . S
C900 C903 1.409 . S
C901 H893 0.930 . S
C901 C902 1.355 . S
C901 C903 1.415 . S
C902 C901 1.355 . S
C902 C904 1.419 . S
C903 C898 1.425 . S
C903 C900 1.409 . S
C903 C901 1.415 . S
C904 H894 0.930 . S
C904 C902 1.419 . S
C904 C905 1.362 . S
C905 H895 0.930 . S
C905 C898 1.409 . S
C905 C904 1.362 . S
H906 C912 0.930 . S
H907 C915 0.930 . S
H908 C916 0.930 . S
H909 C917 0.930 . S
H910 C920 0.930 . S
H911 C921 0.930 . S
C912 H906 0.930 . S
C912 C913 1.355 . S
C912 C914 1.415 . S
C913 C912 1.355 . S
C913 C915 1.419 . S
C914 C912 1.415 . S
C914 C919 1.425 . S
C914 C921 1.409 . S
C915 H907 0.930 . S
C915 C913 1.419 . S
C915 C916 1.362 . S
C916 H908 0.930 . S
C916 C915 1.362 . S
C916 C919 1.409 . S
C917 H909 0.930 . S
C917 C918 1.355 . S
C917 C919 1.415 . S
C918 C917 1.355 . S
C918 C920 1.419 . S
C919 C914 1.425 . S
C919 C916 1.409 . S
C919 C917 1.415 . S
C920 H910 0.930 . S
C920 C918 1.419 . S
C920 C921 1.362 . S
C921 H911 0.930 . S
C921 C914 1.409 . S
C921 C920 1.362 . S
H922 C928 0.930 . S
H923 C931 0.930 . S
H924 C932 0.930 . S
H925 C933 0.930 . S
H926 C936 0.930 . S
H927 C937 0.930 . S
C928 H922 0.930 . S
C928 C929 1.355 . S
C928 C930 1.415 . S
C929 C928 1.355 . S
C929 C931 1.419 . S
C930 C928 1.415 . S
C930 C935 1.425 . S
C930 C937 1.409 . S
C931 H923 0.930 . S
C931 C929 1.419 . S
C931 C932 1.362 . S
C932 H924 0.930 . S
C932 C931 1.362 . S
C932 C935 1.409 . S
C933 H925 0.930 . S
C933 C934 1.355 . S
C933 C935 1.415 . S
C934 C933 1.355 . S
C934 C936 1.419 . S
C935 C930 1.425 . S
C935 C932 1.409 . S
C935 C933 1.415 . S
C936 H926 0.930 . S
C936 C934 1.419 . S
C936 C937 1.362 . S
C937 H927 0.930 . S
C937 C930 1.409 . S
C937 C936 1.362 . S
H938 C944 0.930 . S
H939 C947 0.930 . S
H940 C948 0.930 . S
H941 C949 0.930 . S
H942 C952 0.961 . S
H943 C953 0.930 . S
C944 H938 0.930 . S
C944 C945 1.355 . S
C944 C946 1.415 . S
C945 C944 1.355 . S
C945 C947 1.419 . S
C946 C944 1.415 . S
C946 C951 1.425 . S
C946 C953 1.409 . S
C947 H939 0.930 . S
C947 C945 1.419 . S
C947 C948 1.362 . S
C948 H940 0.930 . S
C948 C947 1.362 . S
C948 C951 1.409 . S
C949 H941 0.930 . S
C949 C950 1.355 . S
C949 C951 1.415 . S
C950 C949 1.355 . S
C950 C952 1.419 . S
C951 C946 1.425 . S
C951 C948 1.409 . S
C951 C949 1.415 . S
C952 H942 0.961 . S
C952 C950 1.419 . S
C952 C953 1.362 . S
C953 H943 0.930 . S
C953 C946 1.409 . S
C953 C952 1.362 . S
H954 C960 0.930 . S
H955 C963 0.930 . S
H956 C964 0.930 . S
H957 C965 0.930 . S
H958 C968 0.930 . S
H959 C969 0.930 . S
C960 H954 0.930 . S
C960 C961 1.355 . S
C960 C962 1.415 . S
C961 C960 1.355 . S
C961 C963 1.419 . S
C962 C960 1.415 . S
C962 C967 1.425 . S
C962 C969 1.409 1_565 S
C963 H955 0.930 . S
C963 C961 1.419 . S
C963 C964 1.362 . S
C964 H956 0.930 . S
C964 C963 1.362 . S
C964 C967 1.409 . S
C965 H957 0.930 . S
C965 C966 1.355 1_565 S
C965 C967 1.415 . S
C966 C965 1.355 1_545 S
C966 C968 1.419 . S
C967 C962 1.425 . S
C967 C964 1.409 . S
C967 C965 1.415 . S
C968 H958 0.930 . S
C968 C966 1.419 . S
C968 C969 1.362 . S
C969 H959 0.930 . S
C969 C962 1.409 1_545 S
C969 C968 1.362 . S
H970 C976 0.930 . S
H971 C979 0.930 . S
H972 C980 0.930 . S
H973 C981 0.930 . S
H974 C984 0.930 . S
H975 C985 0.930 . S
C976 H970 0.930 . S
C976 C977 1.355 . S
C976 C978 1.415 . S
C977 C976 1.355 . S
C977 C979 1.419 . S
C978 C976 1.415 . S
C978 C983 1.425 . S
C978 C985 1.409 . S
C979 H971 0.930 . S
C979 C977 1.419 . S
C979 C980 1.362 . S
C980 H972 0.930 . S
C980 C979 1.362 . S
C980 C983 1.409 . S
C981 H973 0.930 . S
C981 C982 1.355 . S
C981 C983 1.415 . S
C982 C981 1.355 . S
C982 C984 1.419 . S
C983 C978 1.425 . S
C983 C980 1.409 . S
C983 C981 1.415 . S
C984 H974 0.930 . S
C984 C982 1.419 . S
C984 C985 1.362 . S
C985 H975 0.930 . S
C985 C978 1.409 . S
C985 C984 1.362 . S
H986 C992 0.930 . S
H987 C995 0.930 . S
H988 C996 0.930 . S
H989 C997 0.930 . S
H990 C1000 0.930 . S
H991 C1001 0.930 . S
C992 H986 0.930 . S
C992 C993 1.355 . S
C992 C994 1.415 . S
C993 C992 1.355 . S
C993 C995 1.419 . S
C994 C992 1.415 . S
C994 C999 1.425 . S
C994 C1001 1.409 . S
C995 H987 0.930 . S
C995 C993 1.419 . S
C995 C996 1.362 . S
C996 H988 0.930 . S
C996 C995 1.362 . S
C996 C999 1.409 . S
C997 H989 0.930 . S
C997 C998 1.355 . S
C997 C999 1.415 . S
C998 C997 1.355 . S
C998 C1000 1.419 . S
C999 C994 1.425 . S
C999 C996 1.409 . S
C999 C997 1.415 . S
C1000 H990 0.930 . S
C1000 C998 1.419 . S
C1000 C1001 1.362 . S
C1001 H991 0.930 . S
C1001 C994 1.409 . S
C1001 C1000 1.362 . S
H1002 C1008 0.930 . S
H1003 C1011 0.930 . S
H1004 C1012 0.930 . S
H1005 C1013 0.930 . S
H1006 C1016 0.930 . S
H1007 C1017 0.930 . S
C1008 H1002 0.930 . S
C1008 C1009 1.355 . S
C1008 C1010 1.415 . S
C1009 C1008 1.355 . S
C1009 C1011 1.419 . S
C1010 C1008 1.415 . S
C1010 C1015 1.425 . S
C1010 C1017 1.409 . S
C1011 H1003 0.930 . S
C1011 C1009 1.419 . S
C1011 C1012 1.362 . S
C1012 H1004 0.930 . S
C1012 C1011 1.362 . S
C1012 C1015 1.409 . S
C1013 H1005 0.930 . S
C1013 C1014 1.355 . S
C1013 C1015 1.415 . S
C1014 C1013 1.355 . S
C1014 C1016 1.419 . S
C1015 C1010 1.425 . S
C1015 C1012 1.409 . S
C1015 C1013 1.415 . S
C1016 H1006 0.930 . S
C1016 C1014 1.419 . S
C1016 C1017 1.362 . S
C1017 H1007 0.930 . S
C1017 C1010 1.409 . S
C1017 C1016 1.362 . S
H1018 C1024 0.930 . S
H1019 C1027 0.930 . S
H1020 C1028 0.930 . S
H1021 C1029 0.930 . S
H1022 C1032 0.930 . S
H1023 C1033 0.930 1_565 S
C1024 H1018 0.930 . S
C1024 C1025 1.355 . S
C1024 C1026 1.415 . S
C1025 C1024 1.355 . S
C1025 C1027 1.419 . S
C1026 C1024 1.415 . S
C1026 C1031 1.425 1_565 S
C1026 C1033 1.409 1_565 S
C1027 H1019 0.930 . S
C1027 C1025 1.419 . S
C1027 C1028 1.362 1_565 S
C1028 H1020 0.930 . S
C1028 C1027 1.362 1_545 S
C1028 C1031 1.409 . S
C1029 H1021 0.930 . S
C1029 C1030 1.355 . S
C1029 C1031 1.415 . S
C1030 C1029 1.355 . S
C1030 C1032 1.419 . S
C1031 C1026 1.425 1_545 S
C1031 C1028 1.409 . S
C1031 C1029 1.415 . S
C1032 H1022 0.930 . S
C1032 C1030 1.419 . S
C1032 C1033 1.362 . S
C1033 H1023 0.930 1_545 S
C1033 C1026 1.409 1_545 S
C1033 C1032 1.362 . S
H1034 C1040 0.930 . S
H1035 C1043 0.930 . S
H1036 C1044 0.930 . S
H1037 C1045 0.930 . S
H1038 C1048 0.930 . S
H1039 C1049 0.930 . S
C1040 H1034 0.930 . S
C1040 C1041 1.355 . S
C1040 C1042 1.415 . S
C1041 C1040 1.355 . S
C1041 C1043 1.419 . S
C1042 C1040 1.415 . S
C1042 C1047 1.425 . S
C1042 C1049 1.409 . S
C1043 H1035 0.930 . S
C1043 C1041 1.419 . S
C1043 C1044 1.362 . S
C1044 H1036 0.930 . S
C1044 C1043 1.362 . S
C1044 C1047 1.409 . S
C1045 H1037 0.930 . S
C1045 C1046 1.355 . S
C1045 C1047 1.415 . S
C1046 C1045 1.355 . S
C1046 C1048 1.419 . S
C1047 C1042 1.425 . S
C1047 C1044 1.409 . S
C1047 C1045 1.415 . S
C1048 H1038 0.930 . S
C1048 C1046 1.419 . S
C1048 C1049 1.362 . S
C1049 H1039 0.930 . S
C1049 C1042 1.409 . S
C1049 C1048 1.362 . S
H1050 C1056 0.930 . S
H1051 C1059 0.930 . S
H1052 C1060 0.930 . S
H1053 C1061 0.930 . S
H1054 C1064 0.930 . S
H1055 C1065 0.930 . S
C1056 H1050 0.930 . S
C1056 C1057 1.355 . S
C1056 C1058 1.415 . S
C1057 C1056 1.355 . S
C1057 C1059 1.419 . S
C1058 C1056 1.415 . S
C1058 C1063 1.425 . S
C1058 C1065 1.409 . S
C1059 H1051 0.930 . S
C1059 C1057 1.419 . S
C1059 C1060 1.362 . S
C1060 H1052 0.930 . S
C1060 C1059 1.362 . S
C1060 C1063 1.409 . S
C1061 H1053 0.930 . S
C1061 C1062 1.355 . S
C1061 C1063 1.415 . S
C1062 C1061 1.355 . S
C1062 C1064 1.419 . S
C1063 C1058 1.425 . S
C1063 C1060 1.409 . S
C1063 C1061 1.415 . S
C1064 H1054 0.930 . S
C1064 C1062 1.419 . S
C1064 C1065 1.362 . S
C1065 H1055 0.930 . S
C1065 C1058 1.409 . S
C1065 C1064 1.362 . S
H1066 C1072 0.930 . S
H1067 C1075 0.930 . S
H1068 C1076 0.930 . S
H1069 C1077 0.930 . S
H1070 C1080 0.930 . S
H1071 C1081 0.930 . S
C1072 H1066 0.930 . S
C1072 C1073 1.355 . S
C1072 C1074 1.415 . S
C1073 C1072 1.355 . S
C1073 C1075 1.419 . S
C1074 C1072 1.415 . S
C1074 C1079 1.425 . S
C1074 C1081 1.409 . S
C1075 H1067 0.930 . S
C1075 C1073 1.419 . S
C1075 C1076 1.362 . S
C1076 H1068 0.930 . S
C1076 C1075 1.362 . S
C1076 C1079 1.409 . S
C1077 H1069 0.930 . S
C1077 C1078 1.355 . S
C1077 C1079 1.415 . S
C1078 C1077 1.355 . S
C1078 C1080 1.419 . S
C1079 C1074 1.425 . S
C1079 C1076 1.409 . S
C1079 C1077 1.415 . S
C1080 H1070 0.930 . S
C1080 C1078 1.419 . S
C1080 C1081 1.362 . S
C1081 H1071 0.930 . S
C1081 C1074 1.409 . S
C1081 C1080 1.362 . S
H1082 C1088 0.930 . S
H1083 C1091 0.930 . S
H1084 C1092 0.930 . S
H1085 C1093 0.930 . S
H1086 C1096 0.930 . S
H1087 C1097 0.930 . S
C1088 H1082 0.930 . S
C1088 C1089 1.355 . S
C1088 C1090 1.415 . S
C1089 C1088 1.355 . S
C1089 C1091 1.419 . S
C1090 C1088 1.415 . S
C1090 C1095 1.425 . S
C1090 C1097 1.409 . S
C1091 H1083 0.930 . S
C1091 C1089 1.419 . S
C1091 C1092 1.362 . S
C1092 H1084 0.930 . S
C1092 C1091 1.362 . S
C1092 C1095 1.409 . S
C1093 H1085 0.930 . S
C1093 C1094 1.355 . S
C1093 C1095 1.415 . S
C1094 C1093 1.355 . S
C1094 C1096 1.419 . S
C1095 C1090 1.425 . S
C1095 C1092 1.409 . S
C1095 C1093 1.415 . S
C1096 H1086 0.930 . S
C1096 C1094 1.419 . S
C1096 C1097 1.362 . S
C1097 H1087 0.930 . S
C1097 C1090 1.409 . S
C1097 C1096 1.362 . S
H1098 C1104 0.930 . S
H1099 C1107 0.930 . S
H1100 C1108 0.930 . S
H1101 C1109 0.930 . S
H1102 C1112 0.930 . S
H1103 C1113 0.930 . S
C1104 H1098 0.930 . S
C1104 C1105 1.355 . S
C1104 C1106 1.415 . S
C1105 C1104 1.355 . S
C1105 C1107 1.419 . S
C1106 C1104 1.415 . S
C1106 C1111 1.425 . S
C1106 C1113 1.409 . S
C1107 H1099 0.930 . S
C1107 C1105 1.419 . S
C1107 C1108 1.362 . S
C1108 H1100 0.930 . S
C1108 C1107 1.362 . S
C1108 C1111 1.409 . S
C1109 H1101 0.930 . S
C1109 C1110 1.355 . S
C1109 C1111 1.415 . S
C1110 C1109 1.355 . S
C1110 C1112 1.419 . S
C1111 C1106 1.425 . S
C1111 C1108 1.409 . S
C1111 C1109 1.415 . S
C1112 H1102 0.930 . S
C1112 C1110 1.419 . S
C1112 C1113 1.362 . S
C1113 H1103 0.930 . S
C1113 C1106 1.409 . S
C1113 C1112 1.362 . S
H1114 C1120 0.930 . S
H1115 C1123 0.930 . S
H1116 C1124 0.930 . S
H1117 C1125 0.930 . S
H1118 C1128 0.930 . S
H1119 C1129 0.930 . S
C1120 H1114 0.930 . S
C1120 C1121 1.355 . S
C1120 C1122 1.415 . S
C1121 C1120 1.355 . S
C1121 C1123 1.419 . S
C1122 C1120 1.415 . S
C1122 C1127 1.425 . S
C1122 C1129 1.409 . S
C1123 H1115 0.930 . S
C1123 C1121 1.419 . S
C1123 C1124 1.362 . S
C1124 H1116 0.930 . S
C1124 C1123 1.362 . S
C1124 C1127 1.409 . S
C1125 H1117 0.930 . S
C1125 C1126 1.355 . S
C1125 C1127 1.415 . S
C1126 C1125 1.355 . S
C1126 C1128 1.419 . S
C1127 C1122 1.425 . S
C1127 C1124 1.409 . S
C1127 C1125 1.415 . S
C1128 H1118 0.930 . S
C1128 C1126 1.419 . S
C1128 C1129 1.362 . S
C1129 H1119 0.930 . S
C1129 C1122 1.409 . S
C1129 C1128 1.362 . S
H1130 C1136 0.930 . S
H1131 C1139 0.930 . S
H1132 C1140 0.930 . S
H1133 C1141 0.930 . S
H1134 C1144 0.930 . S
H1135 C1145 0.930 . S
C1136 H1130 0.930 . S
C1136 C1137 1.355 . S
C1136 C1138 1.415 . S
C1137 C1136 1.355 . S
C1137 C1139 1.419 . S
C1138 C1136 1.415 . S
C1138 C1143 1.425 . S
C1138 C1145 1.409 . S
C1139 H1131 0.930 . S
C1139 C1137 1.419 . S
C1139 C1140 1.362 . S
C1140 H1132 0.930 . S
C1140 C1139 1.362 . S
C1140 C1143 1.409 . S
C1141 H1133 0.930 . S
C1141 C1142 1.355 . S
C1141 C1143 1.415 . S
C1142 C1141 1.355 . S
C1142 C1144 1.419 . S
C1143 C1138 1.425 . S
C1143 C1140 1.409 . S
C1143 C1141 1.415 . S
C1144 H1134 0.930 . S
C1144 C1142 1.419 . S
C1144 C1145 1.362 . S
C1145 H1135 0.930 . S
C1145 C1138 1.409 . S
C1145 C1144 1.362 . S
H1146 C1152 0.930 . S
H1147 C1155 0.930 . S
H1148 C1156 0.930 . S
H1149 C1157 0.930 . S
H1150 C1160 0.930 . S
H1151 C1161 0.930 . S
C1152 H1146 0.930 . S
C1152 C1153 1.355 . S
C1152 C1154 1.415 . S
C1153 C1152 1.355 . S
C1153 C1155 1.419 . S
C1154 C1152 1.415 . S
C1154 C1159 1.425 . S
C1154 C1161 1.409 . S
C1155 H1147 0.930 . S
C1155 C1153 1.419 . S
C1155 C1156 1.362 . S
C1156 H1148 0.930 . S
C1156 C1155 1.362 . S
C1156 C1159 1.409 . S
C1157 H1149 0.930 . S
C1157 C1158 1.355 . S
C1157 C1159 1.415 . S
C1158 C1157 1.355 . S
C1158 C1160 1.419 . S
C1159 C1154 1.425 . S
C1159 C1156 1.409 . S
C1159 C1157 1.415 . S
C1160 H1150 0.930 . S
C1160 C1158 1.419 . S
C1160 C1161 1.362 . S
C1161 H1151 0.930 . S
C1161 C1154 1.409 . S
C1161 C1160 1.362 . S
H1162 C1168 0.930 . S
H1163 C1171 0.930 . S
H1164 C1172 0.930 . S
H1165 C1173 0.930 . S
H1166 C1176 0.930 . S
H1167 C1177 0.930 . S
C1168 H1162 0.930 . S
C1168 C1169 1.355 . S
C1168 C1170 1.415 . S
C1169 C1168 1.355 . S
C1169 C1171 1.419 . S
C1170 C1168 1.415 . S
C1170 C1175 1.425 . S
C1170 C1177 1.409 . S
C1171 H1163 0.930 . S
C1171 C1169 1.419 . S
C1171 C1172 1.362 . S
C1172 H1164 0.930 . S
C1172 C1171 1.362 . S
C1172 C1175 1.409 . S
C1173 H1165 0.930 . S
C1173 C1174 1.355 . S
C1173 C1175 1.415 . S
C1174 C1173 1.355 . S
C1174 C1176 1.419 . S
C1175 C1170 1.425 . S
C1175 C1172 1.409 . S
C1175 C1173 1.415 . S
C1176 H1166 0.930 . S
C1176 C1174 1.419 . S
C1176 C1177 1.362 . S
C1177 H1167 0.930 . S
C1177 C1170 1.409 . S
C1177 C1176 1.362 . S
H1178 C1184 0.930 . S
H1179 C1187 0.930 . S
H1180 C1188 0.930 . S
H1181 C1189 0.929 . S
H1182 C1192 0.927 1_455 S
H1183 C1193 0.930 . S
C1184 H1178 0.930 . S
C1184 C1185 1.355 . S
C1184 C1186 1.415 . S
C1185 C1184 1.355 . S
C1185 C1187 1.419 . S
C1186 C1184 1.415 . S
C1186 C1191 1.425 . S
C1186 C1193 1.409 . S
C1187 H1179 0.930 . S
C1187 C1185 1.419 . S
C1187 C1188 1.362 . S
C1188 H1180 0.930 . S
C1188 C1187 1.362 . S
C1188 C1191 1.409 . S
C1189 H1181 0.929 . S
C1189 C1190 1.355 1_655 S
C1189 C1191 1.415 . S
C1190 C1189 1.355 1_455 S
C1190 C1192 1.419 1_455 S
C1191 C1186 1.425 . S
C1191 C1188 1.409 . S
C1191 C1189 1.415 . S
C1192 H1182 0.927 1_655 S
C1192 C1190 1.419 1_655 S
C1192 C1193 1.362 . S
C1193 H1183 0.930 . S
C1193 C1186 1.409 . S
C1193 C1192 1.362 . S
H1194 C1200 0.930 . S
H1195 C1203 0.930 . S
H1196 C1204 0.930 . S
H1197 C1205 0.930 . S
H1198 C1208 0.930 . S
H1199 C1209 0.930 . S
C1200 H1194 0.930 . S
C1200 C1201 1.355 . S
C1200 C1202 1.415 . S
C1201 C1200 1.355 . S
C1201 C1203 1.419 . S
C1202 C1200 1.415 . S
C1202 C1207 1.425 . S
C1202 C1209 1.409 . S
C1203 H1195 0.930 . S
C1203 C1201 1.419 . S
C1203 C1204 1.362 . S
C1204 H1196 0.930 . S
C1204 C1203 1.362 . S
C1204 C1207 1.409 . S
C1205 H1197 0.930 . S
C1205 C1206 1.355 . S
C1205 C1207 1.415 . S
C1206 C1205 1.355 . S
C1206 C1208 1.419 . S
C1207 C1202 1.425 . S
C1207 C1204 1.409 . S
C1207 C1205 1.415 . S
C1208 H1198 0.930 . S
C1208 C1206 1.419 . S
C1208 C1209 1.362 . S
C1209 H1199 0.930 . S
C1209 C1202 1.409 . S
C1209 C1208 1.362 . S
H1210 C1216 0.930 . S
H1211 C1219 0.930 . S
H1212 C1220 0.930 . S
H1213 C1221 0.930 . S
H1214 C1224 0.930 . S
H1215 C1225 0.930 . S
C1216 H1210 0.930 . S
C1216 C1217 1.355 . S
C1216 C1218 1.415 . S
C1217 C1216 1.355 . S
C1217 C1219 1.419 . S
C1218 C1216 1.415 . S
C1218 C1223 1.425 . S
C1218 C1225 1.409 . S
C1219 H1211 0.930 . S
C1219 C1217 1.419 . S
C1219 C1220 1.362 . S
C1220 H1212 0.930 . S
C1220 C1219 1.362 . S
C1220 C1223 1.409 . S
C1221 H1213 0.930 . S
C1221 C1222 1.355 . S
C1221 C1223 1.415 . S
C1222 C1221 1.355 . S
C1222 C1224 1.419 . S
C1223 C1218 1.425 . S
C1223 C1220 1.409 . S
C1223 C1221 1.415 . S
C1224 H1214 0.930 . S
C1224 C1222 1.419 . S
C1224 C1225 1.362 . S
C1225 H1215 0.930 . S
C1225 C1218 1.409 . S
C1225 C1224 1.362 . S
H1226 C1232 0.930 . S
H1227 C1235 0.930 . S
H1228 C1236 0.930 . S
H1229 C1237 0.930 . S
H1230 C1240 0.930 . S
H1231 C1241 0.930 . S
C1232 H1226 0.930 . S
C1232 C1233 1.355 . S
C1232 C1234 1.415 . S
C1233 C1232 1.355 . S
C1233 C1235 1.419 . S
C1234 C1232 1.415 . S
C1234 C1239 1.425 . S
C1234 C1241 1.409 . S
C1235 H1227 0.930 . S
C1235 C1233 1.419 . S
C1235 C1236 1.362 . S
C1236 H1228 0.930 . S
C1236 C1235 1.362 . S
C1236 C1239 1.409 . S
C1237 H1229 0.930 . S
C1237 C1238 1.355 . S
C1237 C1239 1.415 . S
C1238 C1237 1.355 . S
C1238 C1240 1.419 . S
C1239 C1234 1.425 . S
C1239 C1236 1.409 . S
C1239 C1237 1.415 . S
C1240 H1230 0.930 . S
C1240 C1238 1.419 . S
C1240 C1241 1.362 . S
C1241 H1231 0.930 . S
C1241 C1234 1.409 . S
C1241 C1240 1.362 . S
H1242 C1248 0.930 . S
H1243 C1251 0.930 . S
H1244 C1252 0.930 . S
H1245 C1253 0.930 . S
H1246 C1256 0.946 . S
H1247 C1257 0.986 . S
C1248 H1242 0.930 . S
C1248 C1249 1.355 . S
C1248 C1250 1.415 . S
C1249 C1248 1.355 . S
C1249 C1251 1.419 . S
C1250 C1248 1.415 . S
C1250 C1255 1.425 . S
C1250 C1257 1.377 1_455 S
C1251 H1243 0.930 . S
C1251 C1249 1.419 . S
C1251 C1252 1.362 . S
C1252 H1244 0.930 . S
C1252 C1251 1.362 . S
C1252 C1255 1.409 . S
C1253 H1245 0.930 . S
C1253 C1254 1.355 . S
C1253 C1255 1.415 . S
C1254 C1253 1.355 . S
C1254 C1256 1.392 1_455 S
C1255 C1250 1.425 . S
C1255 C1252 1.409 . S
C1255 C1253 1.415 . S
C1256 H1246 0.946 . S
C1256 C1254 1.392 1_655 S
C1256 C1257 1.351 . S
C1257 H1247 0.986 . S
C1257 C1250 1.377 1_655 S
C1257 C1256 1.351 . S
H1258 C1264 0.930 . S
H1259 C1267 0.930 . S
H1260 C1268 0.930 . S
H1261 C1269 0.930 . S
H1262 C1272 0.930 . S
H1263 C1273 0.930 . S
C1264 H1258 0.930 . S
C1264 C1265 1.355 . S
C1264 C1266 1.415 . S
C1265 C1264 1.355 . S
C1265 C1267 1.419 . S
C1266 C1264 1.415 . S
C1266 C1271 1.425 . S
C1266 C1273 1.409 . S
C1267 H1259 0.930 . S
C1267 C1265 1.419 . S
C1267 C1268 1.362 . S
C1268 H1260 0.930 . S
C1268 C1267 1.362 . S
C1268 C1271 1.409 . S
C1269 H1261 0.930 . S
C1269 C1270 1.355 . S
C1269 C1271 1.415 . S
C1270 C1269 1.355 . S
C1270 C1272 1.419 . S
C1271 C1266 1.425 . S
C1271 C1268 1.409 . S
C1271 C1269 1.415 . S
C1272 H1262 0.930 . S
C1272 C1270 1.419 . S
C1272 C1273 1.362 . S
C1273 H1263 0.930 . S
C1273 C1266 1.409 . S
C1273 C1272 1.362 . S
H1274 C1280 0.930 . S
H1275 C1283 0.930 . S
H1276 C1284 0.930 . S
H1277 C1285 0.930 . S
H1278 C1288 0.930 . S
H1279 C1289 0.930 . S
C1280 H1274 0.930 . S
C1280 C1281 1.355 . S
C1280 C1282 1.415 . S
C1281 C1280 1.355 . S
C1281 C1283 1.419 . S
C1282 C1280 1.415 . S
C1282 C1287 1.425 . S
C1282 C1289 1.409 . S
C1283 H1275 0.930 . S
C1283 C1281 1.419 . S
C1283 C1284 1.362 . S
C1284 H1276 0.930 . S
C1284 C1283 1.362 . S
C1284 C1287 1.409 . S
C1285 H1277 0.930 . S
C1285 C1286 1.355 . S
C1285 C1287 1.415 . S
C1286 C1285 1.355 . S
C1286 C1288 1.419 . S
C1287 C1282 1.425 . S
C1287 C1284 1.409 . S
C1287 C1285 1.415 . S
C1288 H1278 0.930 . S
C1288 C1286 1.419 . S
C1288 C1289 1.362 . S
C1289 H1279 0.930 . S
C1289 C1282 1.409 . S
C1289 C1288 1.362 . S
H1290 C1296 0.932 . S
H1291 C1299 0.930 . S
H1292 C1300 0.930 . S
H1293 C1301 0.930 . S
H1294 C1304 0.930 . S
H1295 C1305 0.930 . S
C1296 H1290 0.932 . S
C1296 C1297 1.355 . S
C1296 C1298 1.415 . S
C1297 C1296 1.355 . S
C1297 C1299 1.419 . S
C1298 C1296 1.415 . S
C1298 C1303 1.425 . S
C1298 C1305 1.409 1_545 S
C1299 H1291 0.930 . S
C1299 C1297 1.419 . S
C1299 C1300 1.362 . S
C1300 H1292 0.930 . S
C1300 C1299 1.362 . S
C1300 C1303 1.409 . S
C1301 H1293 0.930 . S
C1301 C1302 1.355 . S
C1301 C1303 1.415 . S
C1302 C1301 1.355 . S
C1302 C1304 1.419 1_545 S
C1303 C1298 1.425 . S
C1303 C1300 1.409 . S
C1303 C1301 1.415 . S
C1304 H1294 0.930 . S
C1304 C1302 1.419 1_565 S
C1304 C1305 1.362 . S
C1305 H1295 0.930 . S
C1305 C1298 1.409 1_565 S
C1305 C1304 1.362 . S
H1306 C1312 0.930 . S
H1307 C1315 0.930 . S
H1308 C1316 0.930 . S
H1309 C1317 0.930 . S
H1310 C1320 0.930 . S
H1311 C1321 0.930 . S
C1312 H1306 0.930 . S
C1312 C1313 1.355 . S
C1312 C1314 1.415 . S
C1313 C1312 1.355 . S
C1313 C1315 1.419 . S
C1314 C1312 1.415 . S
C1314 C1319 1.425 . S
C1314 C1321 1.409 . S
C1315 H1307 0.930 . S
C1315 C1313 1.419 . S
C1315 C1316 1.362 . S
C1316 H1308 0.930 . S
C1316 C1315 1.362 . S
C1316 C1319 1.409 . S
C1317 H1309 0.930 . S
C1317 C1318 1.355 . S
C1317 C1319 1.415 . S
C1318 C1317 1.355 . S
C1318 C1320 1.419 . S
C1319 C1314 1.425 . S
C1319 C1316 1.409 . S
C1319 C1317 1.415 . S
C1320 H1310 0.930 . S
C1320 C1318 1.419 . S
C1320 C1321 1.362 . S
C1321 H1311 0.930 . S
C1321 C1314 1.409 . S
C1321 C1320 1.362 . S
H1322 C1328 0.930 . S
H1323 C1331 0.930 . S
H1324 C1332 0.930 . S
H1325 C1333 0.930 . S
H1326 C1336 0.930 . S
H1327 C1337 0.930 . S
C1328 H1322 0.930 . S
C1328 C1329 1.355 . S
C1328 C1330 1.415 . S
C1329 C1328 1.355 . S
C1329 C1331 1.419 . S
C1330 C1328 1.415 . S
C1330 C1335 1.425 . S
C1330 C1337 1.409 . S
C1331 H1323 0.930 . S
C1331 C1329 1.419 . S
C1331 C1332 1.362 . S
C1332 H1324 0.930 . S
C1332 C1331 1.362 . S
C1332 C1335 1.409 . S
C1333 H1325 0.930 . S
C1333 C1334 1.355 . S
C1333 C1335 1.415 . S
C1334 C1333 1.355 . S
C1334 C1336 1.419 . S
C1335 C1330 1.425 . S
C1335 C1332 1.409 . S
C1335 C1333 1.415 . S
C1336 H1326 0.930 . S
C1336 C1334 1.419 . S
C1336 C1337 1.362 . S
C1337 H1327 0.930 . S
C1337 C1330 1.409 . S
C1337 C1336 1.362 . S
H1338 C1344 0.899 1_655 S
H1339 C1347 0.930 . S
H1340 C1348 0.930 . S
H1341 C1349 0.930 . S
H1342 C1352 0.930 . S
H1343 C1353 0.930 . S
C1344 H1338 0.899 1_455 S
C1344 C1345 1.355 . S
C1344 C1346 1.415 . S
C1345 C1344 1.355 . S
C1345 C1347 1.419 . S
C1346 C1344 1.415 . S
C1346 C1351 1.425 . S
C1346 C1353 1.409 1_455 S
C1347 H1339 0.930 . S
C1347 C1345 1.419 . S
C1347 C1348 1.362 . S
C1348 H1340 0.930 . S
C1348 C1347 1.362 . S
C1348 C1351 1.409 . S
C1349 H1341 0.930 . S
C1349 C1350 1.355 . S
C1349 C1351 1.415 . S
C1350 C1349 1.355 . S
C1350 C1352 1.419 1_455 S
C1351 C1346 1.425 . S
C1351 C1348 1.409 . S
C1351 C1349 1.415 . S
C1352 H1342 0.930 . S
C1352 C1350 1.419 1_655 S
C1352 C1353 1.362 . S
C1353 H1343 0.930 . S
C1353 C1346 1.409 1_655 S
C1353 C1352 1.362 . S
H1354 C1360 0.930 . S
H1355 C1363 0.930 . S
H1356 C1364 0.930 . S
H1357 C1365 0.930 . S
H1358 C1368 0.930 . S
H1359 C1369 0.930 . S
C1360 H1354 0.930 . S
C1360 C1361 1.355 . S
C1360 C1362 1.415 . S
C1361 C1360 1.355 . S
C1361 C1363 1.419 . S
C1362 C1360 1.415 . S
C1362 C1367 1.425 . S
C1362 C1369 1.409 . S
C1363 H1355 0.930 . S
C1363 C1361 1.419 . S
C1363 C1364 1.362 . S
C1364 H1356 0.930 . S
C1364 C1363 1.362 . S
C1364 C1367 1.409 . S
C1365 H1357 0.930 . S
C1365 C1366 1.355 . S
C1365 C1367 1.415 . S
C1366 C1365 1.355 . S
C1366 C1368 1.419 . S
C1367 C1362 1.425 . S
C1367 C1364 1.409 . S
C1367 C1365 1.415 . S
C1368 H1358 0.930 . S
C1368 C1366 1.419 . S
C1368 C1369 1.362 . S
C1369 H1359 0.930 . S
C1369 C1362 1.409 . S
C1369 C1368 1.362 . S
H1370 C1376 0.930 . S
H1371 C1379 0.930 . S
H1372 C1380 0.930 . S
H1373 C1381 0.930 . S
H1374 C1384 0.930 . S
H1375 C1385 0.930 . S
C1376 H1370 0.930 . S
C1376 C1377 1.355 . S
C1376 C1378 1.415 . S
C1377 C1376 1.355 . S
C1377 C1379 1.419 . S
C1378 C1376 1.415 . S
C1378 C1383 1.425 . S
C1378 C1385 1.409 . S
C1379 H1371 0.930 . S
C1379 C1377 1.419 . S
C1379 C1380 1.362 . S
C1380 H1372 0.930 . S
C1380 C1379 1.362 . S
C1380 C1383 1.409 . S
C1381 H1373 0.930 . S
C1381 C1382 1.355 . S
C1381 C1383 1.415 . S
C1382 C1381 1.355 . S
C1382 C1384 1.419 . S
C1383 C1378 1.425 . S
C1383 C1380 1.409 . S
C1383 C1381 1.415 . S
C1384 H1374 0.930 . S
C1384 C1382 1.419 . S
C1384 C1385 1.362 . S
C1385 H1375 0.930 . S
C1385 C1378 1.409 . S
C1385 C1384 1.362 . S
H1386 C1392 0.930 . S
H1387 C1395 0.930 . S
H1388 C1396 0.930 . S
H1389 C1397 0.930 . S
H1390 C1400 0.930 . S
H1391 C1401 0.930 . S
C1392 H1386 0.930 . S
C1392 C1393 1.355 . S
C1392 C1394 1.415 . S
C1393 C1392 1.355 . S
C1393 C1395 1.419 . S
C1394 C1392 1.415 . S
C1394 C1399 1.425 . S
C1394 C1401 1.409 . S
C1395 H1387 0.930 . S
C1395 C1393 1.419 . S
C1395 C1396 1.362 . S
C1396 H1388 0.930 . S
C1396 C1395 1.362 . S
C1396 C1399 1.409 . S
C1397 H1389 0.930 . S
C1397 C1398 1.355 . S
C1397 C1399 1.415 . S
C1398 C1397 1.355 . S
C1398 C1400 1.419 . S
C1399 C1394 1.425 . S
C1399 C1396 1.409 . S
C1399 C1397 1.415 . S
C1400 H1390 0.930 . S
C1400 C1398 1.419 . S
C1400 C1401 1.362 . S
C1401 H1391 0.930 . S
C1401 C1394 1.409 . S
C1401 C1400 1.362 . S
H1402 C1408 0.930 . S
H1403 C1411 0.930 . S
H1404 C1412 0.930 . S
H1405 C1413 0.930 . S
H1406 C1416 0.930 . S
H1407 C1417 0.930 . S
C1408 H1402 0.930 . S
C1408 C1409 1.355 . S
C1408 C1410 1.415 . S
C1409 C1408 1.355 . S
C1409 C1411 1.419 . S
C1410 C1408 1.415 . S
C1410 C1415 1.425 . S
C1410 C1417 1.409 . S
C1411 H1403 0.930 . S
C1411 C1409 1.419 . S
C1411 C1412 1.362 . S
C1412 H1404 0.930 . S
C1412 C1411 1.362 . S
C1412 C1415 1.409 . S
C1413 H1405 0.930 . S
C1413 C1414 1.355 . S
C1413 C1415 1.415 . S
C1414 C1413 1.355 . S
C1414 C1416 1.419 . S
C1415 C1410 1.425 . S
C1415 C1412 1.409 . S
C1415 C1413 1.415 . S
C1416 H1406 0.930 . S
C1416 C1414 1.419 . S
C1416 C1417 1.362 . S
C1417 H1407 0.930 . S
C1417 C1410 1.409 . S
C1417 C1416 1.362 . S
H1418 C1424 0.930 . S
H1419 C1427 0.930 . S
H1420 C1428 0.930 . S
H1421 C1429 0.930 . S
H1422 C1432 0.930 . S
H1423 C1433 0.930 . S
C1424 H1418 0.930 . S
C1424 C1425 1.355 . S
C1424 C1426 1.415 . S
C1425 C1424 1.355 . S
C1425 C1427 1.419 . S
C1426 C1424 1.415 . S
C1426 C1431 1.425 . S
C1426 C1433 1.409 . S
C1427 H1419 0.930 . S
C1427 C1425 1.419 . S
C1427 C1428 1.362 . S
C1428 H1420 0.930 . S
C1428 C1427 1.362 . S
C1428 C1431 1.409 . S
C1429 H1421 0.930 . S
C1429 C1430 1.355 . S
C1429 C1431 1.415 . S
C1430 C1429 1.355 . S
C1430 C1432 1.419 . S
C1431 C1426 1.425 . S
C1431 C1428 1.409 . S
C1431 C1429 1.415 . S
C1432 H1422 0.930 . S
C1432 C1430 1.419 . S
C1432 C1433 1.362 . S
C1433 H1423 0.930 . S
C1433 C1426 1.409 . S
C1433 C1432 1.362 . S
H1434 C1440 0.930 . S
H1435 C1443 0.930 . S
H1436 C1444 0.930 . S
H1437 C1445 0.930 . S
H1438 C1448 0.930 . S
H1439 C1449 0.930 . S
C1440 H1434 0.930 . S
C1440 C1441 1.355 . S
C1440 C1442 1.415 . S
C1441 C1440 1.355 . S
C1441 C1443 1.419 . S
C1442 C1440 1.415 . S
C1442 C1447 1.425 . S
C1442 C1449 1.409 . S
C1443 H1435 0.930 . S
C1443 C1441 1.419 . S
C1443 C1444 1.362 . S
C1444 H1436 0.930 . S
C1444 C1443 1.362 . S
C1444 C1447 1.409 . S
C1445 H1437 0.930 . S
C1445 C1446 1.355 . S
C1445 C1447 1.415 . S
C1446 C1445 1.355 . S
C1446 C1448 1.419 . S
C1447 C1442 1.425 . S
C1447 C1444 1.409 . S
C1447 C1445 1.415 . S
C1448 H1438 0.930 . S
C1448 C1446 1.419 . S
C1448 C1449 1.362 . S
C1449 H1439 0.930 . S
C1449 C1442 1.409 . S
C1449 C1448 1.362 . S
H1450 C1456 0.930 . S
H1451 C1459 0.930 . S
H1452 C1460 0.930 . S
H1453 C1461 0.930 . S
H1454 C1464 0.930 . S
H1455 C1465 0.930 . S
C1456 H1450 0.930 . S
C1456 C1457 1.355 . S
C1456 C1458 1.415 . S
C1457 C1456 1.355 . S
C1457 C1459 1.419 . S
C1458 C1456 1.415 . S
C1458 C1463 1.425 . S
C1458 C1465 1.409 . S
C1459 H1451 0.930 . S
C1459 C1457 1.419 . S
C1459 C1460 1.362 . S
C1460 H1452 0.930 . S
C1460 C1459 1.362 . S
C1460 C1463 1.409 . S
C1461 H1453 0.930 . S
C1461 C1462 1.355 . S
C1461 C1463 1.415 . S
C1462 C1461 1.355 . S
C1462 C1464 1.419 . S
C1463 C1458 1.425 . S
C1463 C1460 1.409 . S
C1463 C1461 1.415 . S
C1464 H1454 0.930 . S
C1464 C1462 1.419 . S
C1464 C1465 1.362 . S
C1465 H1455 0.930 . S
C1465 C1458 1.409 . S
C1465 C1464 1.362 . S
H1466 C1472 0.930 . S
H1467 C1475 0.930 . S
H1468 C1476 0.930 . S
H1469 C1477 0.930 . S
H1470 C1480 0.930 . S
H1471 C1481 0.930 . S
C1472 H1466 0.930 . S
C1472 C1473 1.355 . S
C1472 C1474 1.415 . S
C1473 C1472 1.355 . S
C1473 C1475 1.419 . S
C1474 C1472 1.415 . S
C1474 C1479 1.425 . S
C1474 C1481 1.409 . S
C1475 H1467 0.930 . S
C1475 C1473 1.419 . S
C1475 C1476 1.362 . S
C1476 H1468 0.930 . S
C1476 C1475 1.362 . S
C1476 C1479 1.409 . S
C1477 H1469 0.930 . S
C1477 C1478 1.355 . S
C1477 C1479 1.415 . S
C1478 C1477 1.355 . S
C1478 C1480 1.419 . S
C1479 C1474 1.425 . S
C1479 C1476 1.409 . S
C1479 C1477 1.415 . S
C1480 H1470 0.930 . S
C1480 C1478 1.419 . S
C1480 C1481 1.362 . S
C1481 H1471 0.930 . S
C1481 C1474 1.409 . S
C1481 C1480 1.362 . S
H1482 C1488 0.930 . S
H1483 C1491 0.930 . S
H1484 C1492 0.930 . S
H1485 C1493 0.930 . S
H1486 C1496 0.930 . S
H1487 C1497 0.930 . S
C1488 H1482 0.930 . S
C1488 C1489 1.355 . S
C1488 C1490 1.415 . S
C1489 C1488 1.355 . S
C1489 C1491 1.419 . S
C1490 C1488 1.415 . S
C1490 C1495 1.425 . S
C1490 C1497 1.409 . S
C1491 H1483 0.930 . S
C1491 C1489 1.419 . S
C1491 C1492 1.362 . S
C1492 H1484 0.930 . S
C1492 C1491 1.362 . S
C1492 C1495 1.409 . S
C1493 H1485 0.930 . S
C1493 C1494 1.355 . S
C1493 C1495 1.415 1_554 S
C1494 C1493 1.355 . S
C1494 C1496 1.419 . S
C1495 C1490 1.425 . S
C1495 C1492 1.409 . S
C1495 C1493 1.415 1_556 S
C1496 H1486 0.930 . S
C1496 C1494 1.419 . S
C1496 C1497 1.362 1_554 S
C1497 H1487 0.930 . S
C1497 C1490 1.409 . S
C1497 C1496 1.362 1_556 S
H1498 C1504 0.930 . S
H1499 C1507 0.930 . S
H1500 C1508 0.930 . S
H1501 C1509 0.930 . S
H1502 C1512 0.930 . S
H1503 C1513 0.934 . S
C1504 H1498 0.930 . S
C1504 C1505 1.355 . S
C1504 C1506 1.415 . S
C1505 C1504 1.355 . S
C1505 C1507 1.419 . S
C1506 C1504 1.415 . S
C1506 C1511 1.425 . S
C1506 C1513 1.409 . S
C1507 H1499 0.930 . S
C1507 C1505 1.419 . S
C1507 C1508 1.362 . S
C1508 H1500 0.930 . S
C1508 C1507 1.362 . S
C1508 C1511 1.409 . S
C1509 H1501 0.930 . S
C1509 C1510 1.355 1_556 S
C1509 C1511 1.415 . S
C1510 C1509 1.355 1_554 S
C1510 C1512 1.419 . S
C1511 C1506 1.425 . S
C1511 C1508 1.409 . S
C1511 C1509 1.415 . S
C1512 H1502 0.930 . S
C1512 C1510 1.419 . S
C1512 C1513 1.362 1_554 S
C1513 H1503 0.934 . S
C1513 C1506 1.409 . S
C1513 C1512 1.362 1_556 S
H1514 C1520 0.930 . S
H1515 C1523 0.930 . S
H1516 C1524 0.930 1_554 S
H1517 C1525 0.930 . S
H1518 C1528 0.930 . S
H1519 C1529 0.930 . S
C1520 H1514 0.930 . S
C1520 C1521 1.355 . S
C1520 C1522 1.415 . S
C1521 C1520 1.355 . S
C1521 C1523 1.419 . S
C1522 C1520 1.415 . S
C1522 C1527 1.425 1_556 S
C1522 C1529 1.409 . S
C1523 H1515 0.930 . S
C1523 C1521 1.419 . S
C1523 C1524 1.362 . S
C1524 H1516 0.930 1_556 S
C1524 C1523 1.362 . S
C1524 C1527 1.409 1_556 S
C1525 H1517 0.930 . S
C1525 C1526 1.355 . S
C1525 C1527 1.415 . S
C1526 C1525 1.355 . S
C1526 C1528 1.419 . S
C1527 C1522 1.425 1_554 S
C1527 C1524 1.409 1_554 S
C1527 C1525 1.415 . S
C1528 H1518 0.930 . S
C1528 C1526 1.419 . S
C1528 C1529 1.362 1_554 S
C1529 H1519 0.930 . S
C1529 C1522 1.409 . S
C1529 C1528 1.362 1_556 S
H1530 C1536 0.930 . S
H1531 C1539 0.930 . S
H1532 C1540 0.930 . S
H1533 C1541 0.930 . S
H1534 C1544 0.930 . S
H1535 C1545 0.930 . S
C1536 H1530 0.930 . S
C1536 C1537 1.355 . S
C1536 C1538 1.415 . S
C1537 C1536 1.355 . S
C1537 C1539 1.419 . S
C1538 C1536 1.415 . S
C1538 C1543 1.425 . S
C1538 C1545 1.409 . S
C1539 H1531 0.930 . S
C1539 C1537 1.419 . S
C1539 C1540 1.362 . S
C1540 H1532 0.930 . S
C1540 C1539 1.362 . S
C1540 C1543 1.409 . S
C1541 H1533 0.930 . S
C1541 C1542 1.355 . S
C1541 C1543 1.415 . S
C1542 C1541 1.355 . S
C1542 C1544 1.419 . S
C1543 C1538 1.425 . S
C1543 C1540 1.409 . S
C1543 C1541 1.415 . S
C1544 H1534 0.930 . S
C1544 C1542 1.419 . S
C1544 C1545 1.362 . S
C1545 H1535 0.930 . S
C1545 C1538 1.409 . S
C1545 C1544 1.362 . S
H1546 C1552 0.930 . S
H1547 C1555 0.930 . S
H1548 C1556 0.930 . S
H1549 C1557 0.930 . S
H1550 C1560 0.930 . S
H1551 C1561 0.930 . S
C1552 H1546 0.930 . S
C1552 C1553 1.355 . S
C1552 C1554 1.415 . S
C1553 C1552 1.355 . S
C1553 C1555 1.419 . S
C1554 C1552 1.415 . S
C1554 C1559 1.425 . S
C1554 C1561 1.409 . S
C1555 H1547 0.930 . S
C1555 C1553 1.419 . S
C1555 C1556 1.362 . S
C1556 H1548 0.930 . S
C1556 C1555 1.362 . S
C1556 C1559 1.409 . S
C1557 H1549 0.930 . S
C1557 C1558 1.355 . S
C1557 C1559 1.415 . S
C1558 C1557 1.355 . S
C1558 C1560 1.419 . S
C1559 C1554 1.425 . S
C1559 C1556 1.409 . S
C1559 C1557 1.415 . S
C1560 H1550 0.930 . S
C1560 C1558 1.419 . S
C1560 C1561 1.362 . S
C1561 H1551 0.930 . S
C1561 C1554 1.409 . S
C1561 C1560 1.362 . S
H1562 C1568 0.930 . S
H1563 C1571 0.930 . S
H1564 C1572 0.930 . S
H1565 C1573 0.930 . S
H1566 C1576 0.930 . S
H1567 C1577 0.930 . S
C1568 H1562 0.930 . S
C1568 C1569 1.355 . S
C1568 C1570 1.415 . S
C1569 C1568 1.355 . S
C1569 C1571 1.419 . S
C1570 C1568 1.415 . S
C1570 C1575 1.425 . S
C1570 C1577 1.409 . S
C1571 H1563 0.930 . S
C1571 C1569 1.419 . S
C1571 C1572 1.362 . S
C1572 H1564 0.930 . S
C1572 C1571 1.362 . S
C1572 C1575 1.409 . S
C1573 H1565 0.930 . S
C1573 C1574 1.355 . S
C1573 C1575 1.415 . S
C1574 C1573 1.355 . S
C1574 C1576 1.419 . S
C1575 C1570 1.425 . S
C1575 C1572 1.409 . S
C1575 C1573 1.415 . S
C1576 H1566 0.930 . S
C1576 C1574 1.419 . S
C1576 C1577 1.362 . S
C1577 H1567 0.930 . S
C1577 C1570 1.409 . S
C1577 C1576 1.362 . S
H1578 C1584 0.930 . S
H1579 C1587 0.930 . S
H1580 C1588 0.930 . S
H1581 C1589 0.930 . S
H1582 C1592 0.930 . S
H1583 C1593 0.930 . S
C1584 H1578 0.930 . S
C1584 C1585 1.355 . S
C1584 C1586 1.415 . S
C1585 C1584 1.355 . S
C1585 C1587 1.419 . S
C1586 C1584 1.415 . S
C1586 C1591 1.425 . S
C1586 C1593 1.409 . S
C1587 H1579 0.930 . S
C1587 C1585 1.419 . S
C1587 C1588 1.362 . S
C1588 H1580 0.930 . S
C1588 C1587 1.362 . S
C1588 C1591 1.409 . S
C1589 H1581 0.930 . S
C1589 C1590 1.355 . S
C1589 C1591 1.415 . S
C1590 C1589 1.355 . S
C1590 C1592 1.419 . S
C1591 C1586 1.425 . S
C1591 C1588 1.409 . S
C1591 C1589 1.415 . S
C1592 H1582 0.930 . S
C1592 C1590 1.419 . S
C1592 C1593 1.362 . S
C1593 H1583 0.930 . S
C1593 C1586 1.409 . S
C1593 C1592 1.362 . S
H1594 C1600 0.930 . S
H1595 C1603 0.930 . S
H1596 C1604 0.930 . S
H1597 C1605 0.930 . S
H1598 C1608 0.930 . S
H1599 C1609 0.930 . S
C1600 H1594 0.930 . S
C1600 C1601 1.355 . S
C1600 C1602 1.415 . S
C1601 C1600 1.355 . S
C1601 C1603 1.419 . S
C1602 C1600 1.415 . S
C1602 C1607 1.425 . S
C1602 C1609 1.409 . S
C1603 H1595 0.930 . S
C1603 C1601 1.419 . S
C1603 C1604 1.362 . S
C1604 H1596 0.930 . S
C1604 C1603 1.362 . S
C1604 C1607 1.409 . S
C1605 H1597 0.930 . S
C1605 C1606 1.355 . S
C1605 C1607 1.415 . S
C1606 C1605 1.355 . S
C1606 C1608 1.419 . S
C1607 C1602 1.425 . S
C1607 C1604 1.409 . S
C1607 C1605 1.415 . S
C1608 H1598 0.930 . S
C1608 C1606 1.419 . S
C1608 C1609 1.362 . S
C1609 H1599 0.930 . S
C1609 C1602 1.409 . S
C1609 C1608 1.362 . S
H1610 C1616 0.930 . S
H1611 C1619 0.930 . S
H1612 C1620 0.930 . S
H1613 C1621 0.930 . S
H1614 C1624 0.930 . S
H1615 C1625 0.930 . S
C1616 H1610 0.930 . S
C1616 C1617 1.355 . S
C1616 C1618 1.415 . S
C1617 C1616 1.355 . S
C1617 C1619 1.419 . S
C1618 C1616 1.415 . S
C1618 C1623 1.425 . S
C1618 C1625 1.409 . S
C1619 H1611 0.930 . S
C1619 C1617 1.419 . S
C1619 C1620 1.362 . S
C1620 H1612 0.930 . S
C1620 C1619 1.362 . S
C1620 C1623 1.409 . S
C1621 H1613 0.930 . S
C1621 C1622 1.355 . S
C1621 C1623 1.415 . S
C1622 C1621 1.355 . S
C1622 C1624 1.419 . S
C1623 C1618 1.425 . S
C1623 C1620 1.409 . S
C1623 C1621 1.415 . S
C1624 H1614 0.930 . S
C1624 C1622 1.419 . S
C1624 C1625 1.362 . S
C1625 H1615 0.930 . S
C1625 C1618 1.409 . S
C1625 C1624 1.362 . S
H1626 C1632 0.930 . S
H1627 C1635 0.930 . S
H1628 C1636 0.930 . S
H1629 C1637 0.930 . S
H1630 C1640 0.930 . S
H1631 C1641 0.930 . S
C1632 H1626 0.930 . S
C1632 C1633 1.355 . S
C1632 C1634 1.415 . S
C1633 C1632 1.355 . S
C1633 C1635 1.419 . S
C1634 C1632 1.415 . S
C1634 C1639 1.425 . S
C1634 C1641 1.409 . S
C1635 H1627 0.930 . S
C1635 C1633 1.419 . S
C1635 C1636 1.362 . S
C1636 H1628 0.930 . S
C1636 C1635 1.362 . S
C1636 C1639 1.409 . S
C1637 H1629 0.930 . S
C1637 C1638 1.355 . S
C1637 C1639 1.415 . S
C1638 C1637 1.355 . S
C1638 C1640 1.419 . S
C1639 C1634 1.425 . S
C1639 C1636 1.409 . S
C1639 C1637 1.415 . S
C1640 H1630 0.930 . S
C1640 C1638 1.419 . S
C1640 C1641 1.362 . S
C1641 H1631 0.930 . S
C1641 C1634 1.409 . S
C1641 C1640 1.362 . S
H1642 C1648 0.930 . S
H1643 C1651 0.930 . S
H1644 C1652 0.930 . S
H1645 C1653 0.930 . S
H1646 C1656 0.930 . S
H1647 C1657 0.930 . S
C1648 H1642 0.930 . S
C1648 C1649 1.355 . S
C1648 C1650 1.415 . S
C1649 C1648 1.355 . S
C1649 C1651 1.419 . S
C1650 C1648 1.415 . S
C1650 C1655 1.425 . S
C1650 C1657 1.409 . S
C1651 H1643 0.930 . S
C1651 C1649 1.419 . S
C1651 C1652 1.362 . S
C1652 H1644 0.930 . S
C1652 C1651 1.362 . S
C1652 C1655 1.409 . S
C1653 H1645 0.930 . S
C1653 C1654 1.355 . S
C1653 C1655 1.415 . S
C1654 C1653 1.355 . S
C1654 C1656 1.419 . S
C1655 C1650 1.425 . S
C1655 C1652 1.409 . S
C1655 C1653 1.415 . S
C1656 H1646 0.930 . S
C1656 C1654 1.419 . S
C1656 C1657 1.362 . S
C1657 H1647 0.930 . S
C1657 C1650 1.409 . S
C1657 C1656 1.362 . S
H1658 C1664 0.930 . S
H1659 C1667 0.930 . S
H1660 C1668 0.930 . S
H1661 C1669 0.930 . S
H1662 C1672 0.930 . S
H1663 C1673 0.930 . S
C1664 H1658 0.930 . S
C1664 C1665 1.355 . S
C1664 C1666 1.415 . S
C1665 C1664 1.355 . S
C1665 C1667 1.419 . S
C1666 C1664 1.415 . S
C1666 C1671 1.425 . S
C1666 C1673 1.409 . S
C1667 H1659 0.930 . S
C1667 C1665 1.419 . S
C1667 C1668 1.362 . S
C1668 H1660 0.930 . S
C1668 C1667 1.362 . S
C1668 C1671 1.409 . S
C1669 H1661 0.930 . S
C1669 C1670 1.355 . S
C1669 C1671 1.415 . S
C1670 C1669 1.355 . S
C1670 C1672 1.419 . S
C1671 C1666 1.425 . S
C1671 C1668 1.409 . S
C1671 C1669 1.415 . S
C1672 H1662 0.930 . S
C1672 C1670 1.419 . S
C1672 C1673 1.362 . S
C1673 H1663 0.930 . S
C1673 C1666 1.409 . S
C1673 C1672 1.362 . S
H1674 C1680 0.930 . S
H1675 C1683 0.930 . S
H1676 C1684 0.930 . S
H1677 C1685 0.930 . S
H1678 C1688 0.930 . S
H1679 C1689 0.930 . S
C1680 H1674 0.930 . S
C1680 C1681 1.355 . S
C1680 C1682 1.415 . S
C1681 C1680 1.355 . S
C1681 C1683 1.419 . S
C1682 C1680 1.415 . S
C1682 C1687 1.425 . S
C1682 C1689 1.409 . S
C1683 H1675 0.930 . S
C1683 C1681 1.419 . S
C1683 C1684 1.362 . S
C1684 H1676 0.930 . S
C1684 C1683 1.362 . S
C1684 C1687 1.409 . S
C1685 H1677 0.930 . S
C1685 C1686 1.355 . S
C1685 C1687 1.415 . S
C1686 C1685 1.355 . S
C1686 C1688 1.419 . S
C1687 C1682 1.425 . S
C1687 C1684 1.409 . S
C1687 C1685 1.415 . S
C1688 H1678 0.930 . S
C1688 C1686 1.419 . S
C1688 C1689 1.362 . S
C1689 H1679 0.930 . S
C1689 C1682 1.409 . S
C1689 C1688 1.362 . S
H1690 C1696 0.930 . S
H1691 C1699 0.930 . S
H1692 C1700 0.930 . S
H1693 C1701 0.930 . S
H1694 C1704 0.930 . S
H1695 C1705 0.930 . S
C1696 H1690 0.930 . S
C1696 C1697 1.355 . S
C1696 C1698 1.415 . S
C1697 C1696 1.355 . S
C1697 C1699 1.419 . S
C1698 C1696 1.415 . S
C1698 C1703 1.425 . S
C1698 C1705 1.409 . S
C1699 H1691 0.930 . S
C1699 C1697 1.419 . S
C1699 C1700 1.362 . S
C1700 H1692 0.930 . S
C1700 C1699 1.362 . S
C1700 C1703 1.409 . S
C1701 H1693 0.930 . S
C1701 C1702 1.355 . S
C1701 C1703 1.415 . S
C1702 C1701 1.355 . S
C1702 C1704 1.419 . S
C1703 C1698 1.425 . S
C1703 C1700 1.409 . S
C1703 C1701 1.415 . S
C1704 H1694 0.930 . S
C1704 C1702 1.419 . S
C1704 C1705 1.362 . S
C1705 H1695 0.930 . S
C1705 C1698 1.409 . S
C1705 C1704 1.362 . S
H1706 C1712 0.930 . S
H1707 C1715 0.930 . S
H1708 C1716 0.930 . S
H1709 C1717 0.930 . S
H1710 C1720 0.930 . S
H1711 C1721 0.930 . S
C1712 H1706 0.930 . S
C1712 C1713 1.355 . S
C1712 C1714 1.415 . S
C1713 C1712 1.355 . S
C1713 C1715 1.419 . S
C1714 C1712 1.415 . S
C1714 C1719 1.425 . S
C1714 C1721 1.409 . S
C1715 H1707 0.930 . S
C1715 C1713 1.419 . S
C1715 C1716 1.362 . S
C1716 H1708 0.930 . S
C1716 C1715 1.362 . S
C1716 C1719 1.409 . S
C1717 H1709 0.930 . S
C1717 C1718 1.355 . S
C1717 C1719 1.415 . S
C1718 C1717 1.355 . S
C1718 C1720 1.419 . S
C1719 C1714 1.425 . S
C1719 C1716 1.409 . S
C1719 C1717 1.415 . S
C1720 H1710 0.930 . S
C1720 C1718 1.419 . S
C1720 C1721 1.362 . S
C1721 H1711 0.930 . S
C1721 C1714 1.409 . S
C1721 C1720 1.362 . S
H1722 C1728 0.930 . S
H1723 C1731 0.930 . S
H1724 C1732 0.930 . S
H1725 C1733 0.930 . S
H1726 C1736 0.930 . S
H1727 C1737 0.930 . S
C1728 H1722 0.930 . S
C1728 C1729 1.355 . S
C1728 C1730 1.415 . S
C1729 C1728 1.355 . S
C1729 C1731 1.419 . S
C1730 C1728 1.415 . S
C1730 C1735 1.425 . S
C1730 C1737 1.409 . S
C1731 H1723 0.930 . S
C1731 C1729 1.419 . S
C1731 C1732 1.362 . S
C1732 H1724 0.930 . S
C1732 C1731 1.362 . S
C1732 C1735 1.409 . S
C1733 H1725 0.930 . S
C1733 C1734 1.355 . S
C1733 C1735 1.415 . S
C1734 C1733 1.355 . S
C1734 C1736 1.419 . S
C1735 C1730 1.425 . S
C1735 C1732 1.409 . S
C1735 C1733 1.415 . S
C1736 H1726 0.930 . S
C1736 C1734 1.419 . S
C1736 C1737 1.362 . S
C1737 H1727 0.930 . S
C1737 C1730 1.409 . S
C1737 C1736 1.362 . S
H1738 C1744 0.930 . S
H1739 C1747 0.930 . S
H1740 C1748 0.930 . S
H1741 C1749 0.930 . S
H1742 C1752 0.930 . S
H1743 C1753 0.930 . S
C1744 H1738 0.930 . S
C1744 C1745 1.355 . S
C1744 C1746 1.415 . S
C1745 C1744 1.355 . S
C1745 C1747 1.419 . S
C1746 C1744 1.415 . S
C1746 C1751 1.425 . S
C1746 C1753 1.409 . S
C1747 H1739 0.930 . S
C1747 C1745 1.419 . S
C1747 C1748 1.362 . S
C1748 H1740 0.930 . S
C1748 C1747 1.362 . S
C1748 C1751 1.409 . S
C1749 H1741 0.930 . S
C1749 C1750 1.355 . S
C1749 C1751 1.415 . S
C1750 C1749 1.355 . S
C1750 C1752 1.419 . S
C1751 C1746 1.425 . S
C1751 C1748 1.409 . S
C1751 C1749 1.415 . S
C1752 H1742 0.930 . S
C1752 C1750 1.419 . S
C1752 C1753 1.362 . S
C1753 H1743 0.930 . S
C1753 C1746 1.409 . S
C1753 C1752 1.362 . S
H1754 C1760 0.930 . S
H1755 C1763 0.930 . S
H1756 C1764 0.930 . S
H1757 C1765 0.930 . S
H1758 C1768 0.930 . S
H1759 C1769 0.930 . S
C1760 H1754 0.930 . S
C1760 C1761 1.355 . S
C1760 C1762 1.415 . S
C1761 C1760 1.355 . S
C1761 C1763 1.419 . S
C1762 C1760 1.415 . S
C1762 C1767 1.425 . S
C1762 C1769 1.409 . S
C1763 H1755 0.930 . S
C1763 C1761 1.419 . S
C1763 C1764 1.362 . S
C1764 H1756 0.930 . S
C1764 C1763 1.362 . S
C1764 C1767 1.409 . S
C1765 H1757 0.930 . S
C1765 C1766 1.355 . S
C1765 C1767 1.415 . S
C1766 C1765 1.355 . S
C1766 C1768 1.419 . S
C1767 C1762 1.425 . S
C1767 C1764 1.409 . S
C1767 C1765 1.415 . S
C1768 H1758 0.930 . S
C1768 C1766 1.419 . S
C1768 C1769 1.362 . S
C1769 H1759 0.930 . S
C1769 C1762 1.409 . S
C1769 C1768 1.362 . S
H1770 C1776 0.930 . S
H1771 C1779 0.930 . S
H1772 C1780 0.930 . S
H1773 C1781 0.930 . S
H1774 C1784 0.930 . S
H1775 C1785 0.930 . S
C1776 H1770 0.930 . S
C1776 C1777 1.355 . S
C1776 C1778 1.415 . S
C1777 C1776 1.355 . S
C1777 C1779 1.419 . S
C1778 C1776 1.415 . S
C1778 C1783 1.425 . S
C1778 C1785 1.409 . S
C1779 H1771 0.930 . S
C1779 C1777 1.419 . S
C1779 C1780 1.362 . S
C1780 H1772 0.930 . S
C1780 C1779 1.362 . S
C1780 C1783 1.409 . S
C1781 H1773 0.930 . S
C1781 C1782 1.355 . S
C1781 C1783 1.415 1_556 S
C1782 C1781 1.355 . S
C1782 C1784 1.419 1_556 S
C1783 C1778 1.425 . S
C1783 C1780 1.409 . S
C1783 C1781 1.415 1_554 S
C1784 H1774 0.930 . S
C1784 C1782 1.419 1_554 S
C1784 C1785 1.362 . S
C1785 H1775 0.930 . S
C1785 C1778 1.409 . S
C1785 C1784 1.362 . S
H1786 C1792 0.930 . S
H1787 C1795 0.930 . S
H1788 C1796 0.930 . S
H1789 C1797 0.930 . S
H1790 C1800 0.930 . S
H1791 C1801 0.930 . S
C1792 H1786 0.930 . S
C1792 C1793 1.355 . S
C1792 C1794 1.415 . S
C1793 C1792 1.355 . S
C1793 C1795 1.419 . S
C1794 C1792 1.415 . S
C1794 C1799 1.425 . S
C1794 C1801 1.409 . S
C1795 H1787 0.930 . S
C1795 C1793 1.419 . S
C1795 C1796 1.362 . S
C1796 H1788 0.930 . S
C1796 C1795 1.362 . S
C1796 C1799 1.409 . S
C1797 H1789 0.930 . S
C1797 C1798 1.355 . S
C1797 C1799 1.415 . S
C1798 C1797 1.355 . S
C1798 C1800 1.419 . S
C1799 C1794 1.425 . S
C1799 C1796 1.409 . S
C1799 C1797 1.415 . S
C1800 H1790 0.930 . S
C1800 C1798 1.419 . S
C1800 C1801 1.362 . S
C1801 H1791 0.930 . S
C1801 C1794 1.409 . S
C1801 C1800 1.362 . S
H1802 C1808 0.930 . S
H1803 C1811 0.930 . S
H1804 C1812 0.930 . S
H1805 C1813 0.902 1_556 S
H1806 C1816 0.930 . S
H1807 C1817 0.930 . S
C1808 H1802 0.930 . S
C1808 C1809 1.355 . S
C1808 C1810 1.415 . S
C1809 C1808 1.355 . S
C1809 C1811 1.419 . S
C1810 C1808 1.415 . S
C1810 C1815 1.425 . S
C1810 C1817 1.409 . S
C1811 H1803 0.930 . S
C1811 C1809 1.419 . S
C1811 C1812 1.362 . S
C1812 H1804 0.930 . S
C1812 C1811 1.362 . S
C1812 C1815 1.409 . S
C1813 H1805 0.902 1_554 S
C1813 C1814 1.355 . S
C1813 C1815 1.442 . S
C1814 C1813 1.355 . S
C1814 C1816 1.428 . S
C1815 C1810 1.425 . S
C1815 C1812 1.409 . S
C1815 C1813 1.442 . S
C1816 H1806 0.930 . S
C1816 C1814 1.428 . S
C1816 C1817 1.362 . S
C1817 H1807 0.930 . S
C1817 C1810 1.409 . S
C1817 C1816 1.362 . S
C673 C7 1.438 . S
C678 C575 1.445 . S
C694 C547 1.740 . S
C689 C39 1.712 . S
C710 C562 1.521 . S
C705 C62 1.591 . S
C721 C76 1.854 . S
C726 C632 1.782 . S
C737 C108 1.427 . S
C742 C645 1.409 1_455 S
C753 N117 1.347 . S
C758 C660 1.295 . S
C774 C623 1.286 . S
C769 C16 1.335 . S
C785 C30 1.731 . S
C790 C595 1.673 . S
C806 C604 1.434 . S
C801 C53 1.459 . S
C817 C85 1.824 . S
C822 C506 1.767 1_565 S
C838 C525 1.490 . S
C833 C99 1.601 . S
C849 N127 1.247 . S
C854 C534 1.337 . S
C865 N150 1.101 . S
C870 C659 1.154 . S
C886 C631 1.498 . S
C881 N173 1.433 . S
C902 C646 1.322 . S
C897 C200 1.401 . S
C913 C214 1.677 . S
C918 C464 1.632 . S
C929 N232 1.474 . S
C934 C477 1.490 . S
C945 C260 1.514 . S
C950 C492 1.486 1_565 S
C966 C455 1.083 . S
C961 N140 1.136 . S
C977 N163 1.244 . S
C982 C427 1.184 . S
C998 C436 1.463 . S
C993 C191 1.532 . S
C1014 C590 1.825 . S
C1009 C223 1.894 . S
C1030 C609 1.385 . S
C1025 N242 1.376 . S
C1046 C618 1.519 . S
C1041 C269 1.525 . S
C1057 N288 1.236 . S
C1062 C491 1.272 . S
C1073 C315 1.447 . S
C1078 C463 1.469 . S
C1089 C338 1.650 . S
C1094 C478 1.628 . S
C1105 C352 1.865 . S
C1110 C548 1.819 . S
C1126 C561 1.540 . S
C1121 N370 1.495 . S
C1142 C576 1.536 1_655 S
C1137 C398 1.559 . S
C1158 C539 1.100 . S
C1153 N278 1.026 . S
C1169 C306 1.629 . S
C1174 C511 1.530 . S
C1185 C329 1.568 . S
C1190 C520 1.493 . S
C1206 C422 1.553 . S
C1201 C361 1.567 . S
C1217 N380 1.366 . S
C1222 C441 1.401 . S
C1238 C450 1.430 . S
C1233 C407 1.459 . S
C1254 C469 1.326 . S
C1249 N12 1.355 . S
C1265 N25 1.467 . S
C1270 C481 1.476 . S
C1286 C497 1.220 . S
C1281 N48 1.241 . S
C1302 C495 1.307 . S
C1297 N81 1.297 . S
C1318 C467 1.429 . S
C1313 N94 1.458 . S
C1334 C483 1.463 . S
C1329 C131 1.527 . S
C1350 C421 1.339 . S
C1345 N2 1.299 . S
C1361 N35 1.368 . S
C1366 C439 1.376 . S
C1377 N58 1.193 . S
C1382 C449 1.191 . S
C1398 C453 1.222 . S
C1393 N71 1.152 . S
C1414 C425 1.331 . S
C1409 N104 1.295 . S
C1430 C435 1.531 . S
C1425 C122 1.540 . S
C1441 C145 1.936 . S
C1446 C553 1.843 . S
C1457 C168 1.594 . S
C1462 C565 1.557 . S
C1473 N186 1.365 . S
C1478 C581 1.343 . S
C1494 C579 1.296 . S
C1489 N219 1.284 . S
C1510 C551 1.711 . S
C1505 C246 1.734 . S
C1526 C567 1.298 . S
C1521 N265 1.386 . S
C1542 C505 1.837 . S
C1537 C154 1.835 . S
C1553 C177 1.664 . S
C1558 C523 1.663 . S
C1569 N196 1.212 . S
C1574 C533 1.212 . S
C1585 N209 1.055 . S
C1590 C537 1.148 . S
C1601 C237 1.762 . S
C1606 C509 1.759 . S
C1622 C519 1.422 . S
C1617 N255 1.398 . S
C1633 C283 1.726 . S
C1638 C637 1.647 . S
C1649 N301 1.377 . S
C1654 C649 1.362 . S
C1665 N324 1.230 . S
C1670 C665 1.213 . S
C1686 C663 1.106 . S
C1681 N357 1.073 . S
C1702 C635 1.675 . S
C1697 C384 1.719 . S
C1713 N403 1.233 . S
C1718 C651 1.171 . S
C1729 C292 1.827 . S
C1734 C589 1.817 . S
C1750 C607 1.228 . S
C1745 N311 1.261 . S
C1761 N334 1.289 . S
C1766 C617 1.297 . S
C1777 N347 1.203 . S
C1782 C621 1.277 . S
C1798 C593 1.814 1_554 S
C1793 C375 1.814 . S
C1809 N393 1.272 . S
C1814 C603 1.335 1_554 S
