# Generated by pormake.
# Topology csq, (4,8)-cn, num edge types: 1
# Building blocks:
#     Node 0, Type 0, BuildingBlock: MUDLON_clean_sbu_0, # of connection points: 4
#     Node 1, Type 0, BuildingBlock: MUDLON_clean_sbu_0, # of connection points: 4
#     Node 2, Type 0, BuildingBlock: MUDLON_clean_sbu_0, # of connection points: 4
#     Node 3, Type 0, BuildingBlock: MUDLON_clean_sbu_0, # of connection points: 4
#     Node 4, Type 0, BuildingBlock: MUDLON_clean_sbu_0, # of connection points: 4
#     Node 5, Type 0, BuildingBlock: MUDLON_clean_sbu_0, # of connection points: 4
#     Node 6, Type 1, BuildingBlock: TAGTUT_clean_sbu_1, # of connection points: 8
#     Node 7, Type 1, BuildingBlock: TAGTUT_clean_sbu_1, # of connection points: 8
#     Node 8, Type 1, BuildingBlock: TAGTUT_clean_sbu_1, # of connection points: 8
#     Edge 9, Type (0, 1), BuildingBlock: TEMPAE_clean_linker_10, # of connection points: 2
#     Edge 10, Type (0, 1), BuildingBlock: TEMPAE_clean_linker_10, # of connection points: 2
#     Edge 11, Type (0, 1), BuildingBlock: TEMPAE_clean_linker_10, # of connection points: 2
#     Edge 12, Type (0, 1), BuildingBlock: TEMPAE_clean_linker_10, # of connection points: 2
#     Edge 13, Type (0, 1), BuildingBlock: TEMPAE_clean_linker_10, # of connection points: 2
#     Edge 14, Type (0, 1), BuildingBlock: TEMPAE_clean_linker_10, # of connection points: 2
#     Edge 15, Type (0, 1), BuildingBlock: TEMPAE_clean_linker_10, # of connection points: 2
#     Edge 16, Type (0, 1), BuildingBlock: TEMPAE_clean_linker_10, # of connection points: 2
#     Edge 17, Type (0, 1), BuildingBlock: TEMPAE_clean_linker_10, # of connection points: 2
#     Edge 18, Type (0, 1), BuildingBlock: TEMPAE_clean_linker_10, # of connection points: 2
#     Edge 19, Type (0, 1), BuildingBlock: TEMPAE_clean_linker_10, # of connection points: 2
#     Edge 20, Type (0, 1), BuildingBlock: TEMPAE_clean_linker_10, # of connection points: 2
#     Edge 21, Type (0, 1), BuildingBlock: TEMPAE_clean_linker_10, # of connection points: 2
#     Edge 22, Type (0, 1), BuildingBlock: TEMPAE_clean_linker_10, # of connection points: 2
#     Edge 23, Type (0, 1), BuildingBlock: TEMPAE_clean_linker_10, # of connection points: 2
#     Edge 24, Type (0, 1), BuildingBlock: TEMPAE_clean_linker_10, # of connection points: 2
#     Edge 25, Type (0, 1), BuildingBlock: TEMPAE_clean_linker_10, # of connection points: 2
#     Edge 26, Type (0, 1), BuildingBlock: TEMPAE_clean_linker_10, # of connection points: 2
#     Edge 27, Type (0, 1), BuildingBlock: TEMPAE_clean_linker_10, # of connection points: 2
#     Edge 28, Type (0, 1), BuildingBlock: TEMPAE_clean_linker_10, # of connection points: 2
#     Edge 29, Type (0, 1), BuildingBlock: TEMPAE_clean_linker_10, # of connection points: 2
#     Edge 30, Type (0, 1), BuildingBlock: TEMPAE_clean_linker_10, # of connection points: 2
#     Edge 31, Type (0, 1), BuildingBlock: TEMPAE_clean_linker_10, # of connection points: 2
#     Edge 32, Type (0, 1), BuildingBlock: TEMPAE_clean_linker_10, # of connection points: 2
# Relax obj value: 0.063
# Max RMSD: 0.136
# Mean RMSD: 0.099
data_MOF--net-csq--node1-MUDLON_clean_sbu_0--node2-TAGTUT_clean_sbu_1--edge1-TEMPAE_clean_linker_10
_symmetry_space_group_name_H-M    P1
_symmetry_Int_Tables_number       1
_symmetry_cell_setting            triclinic
loop_
_symmetry_equiv_pos_as_xyz
'x, y, z'
_cell_length_a     50.215288
_cell_length_b     49.939762
_cell_length_c     20.668393
_cell_angle_alpha  92.652242
_cell_angle_beta   92.038395
_cell_angle_gamma 120.00307
loop_
_atom_site_label
_atom_site_type_symbol
_atom_site_fract_x
_atom_site_fract_y
_atom_site_fract_z
_atom_type_partial_charge
Mg0 Mg 0.25423 0.49312 0.18663 0.0
C1 C 0.21738 0.46626 0.05409 0.0
O2 O 0.24221 0.46611 0.03677 0.0
C3 C 0.28374 0.45781 0.23897 0.0
O4 O 0.29791 0.46579 0.18496 0.0
C5 C 0.24106 0.51303 0.3179 0.0
O6 O 0.25603 0.49927 0.33743 0.0
O7 O 0.24047 0.51784 0.2578 0.0
O8 O 0.21549 0.47297 0.1133 0.0
O9 O 0.29696 0.51601 0.13417 0.0
C10 C 0.29966 0.52723 0.07896 0.0
O11 O 0.27781 0.53197 0.05559 0.0
O12 O 0.26081 0.46165 0.24648 0.0
Mg13 Mg 0.76064 0.27321 0.14859 0.0
C14 C 0.78322 0.32707 0.06276 0.0
O15 O 0.76578 0.30521 0.01766 0.0
C16 C 0.71216 0.22871 0.22751 0.0
O17 O 0.71497 0.21102 0.18242 0.0
C18 C 0.8072 0.28268 0.25296 0.0
O19 O 0.78256 0.27413 0.2855 0.0
O20 O 0.80387 0.2792 0.19125 0.0
O21 O 0.78059 0.32081 0.12197 0.0
O22 O 0.73856 0.24096 0.06227 0.0
C23 C 0.71544 0.24133 0.03582 0.0
O24 O 0.70733 0.26055 0.06148 0.0
O25 O 0.72788 0.258 0.2248 0.0
Mg26 Mg 0.53028 0.77479 0.07345 0.0
C27 C 0.55585 0.82194 0.18964 0.0
O28 O 0.57985 0.82006 0.17248 0.0
C29 C 0.55672 0.74279 0.99544 0.0
O30 O 0.57695 0.75781 0.04477 0.0
C31 C 0.54705 0.83789 0.01774 0.0
O32 O 0.56995 0.8469 0.06169 0.0
O33 O 0.52745 0.80913 0.0076 0.0
O34 O 0.5297 0.80376 0.16049 0.0
O35 O 0.53269 0.74026 0.13778 0.0
C36 C 0.50957 0.7193 0.16368 0.0
O37 O 0.48323 0.71895 0.15962 0.0
O38 O 0.53357 0.74657 0.98839 0.0
Mg39 Mg 0.76722 0.53117 0.06117 0.0
C40 C 0.76362 0.56354 0.94397 0.0
O41 O 0.78452 0.5569 0.92537 0.0
C42 C 0.83191 0.56852 0.13555 0.0
O43 O 0.84309 0.57431 0.07808 0.0
C44 C 0.72683 0.50178 0.17489 0.0
O45 O 0.75314 0.50633 0.20091 0.0
O46 O 0.72505 0.50626 0.11487 0.0
O47 O 0.75597 0.55978 1.0024 0.0
O48 O 0.78288 0.50906 0.98775 0.0
C49 C 0.80605 0.50536 0.9971 0.0
O50 O 0.8173 0.50795 0.05689 0.0
O51 O 0.8029 0.55435 0.1396 0.0
Mg52 Mg 0.26137 0.747 0.13787 0.0
C53 C 0.21367 0.71812 0.03663 0.0
O54 O 0.2384 0.71869 0.01651 0.0
C55 C 0.28999 0.77119 0.27424 0.0
O56 O 0.29313 0.74665 0.26751 0.0
C57 C 0.25544 0.68313 0.17508 0.0
O58 O 0.26732 0.66495 0.17654 0.0
O59 O 0.26955 0.7082 0.14653 0.0
O60 O 0.21489 0.72912 0.09414 0.0
O61 O 0.29124 0.77792 0.06675 0.0
C62 C 0.30384 0.77039 0.02252 0.0
O63 O 0.30105 0.74275 0.02006 0.0
O64 O 0.27506 0.77585 0.22933 0.0
Mg65 Mg 0.43667 0.21945 0.17207 0.0
C66 C 0.43943 0.25776 0.2864 0.0
O67 O 0.46451 0.25606 0.29641 0.0
C68 C 0.40067 0.17762 0.05612 0.0
O69 O 0.41616 0.20385 0.0286 0.0
C70 C 0.48174 0.28305 0.12311 0.0
O71 O 0.49535 0.28945 0.18172 0.0
O72 O 0.46028 0.25558 0.10593 0.0
O73 O 0.42061 0.24182 0.23862 0.0
O74 O 0.46112 0.20018 0.22365 0.0
C75 C 0.44816 0.18657 0.27358 0.0
O76 O 0.4241 0.18791 0.29226 0.0
O77 O 0.4009 0.17844 0.1176 0.0
C78 C 0.9705 0.44919 0.82315 0.0
C79 C 0.06378 0.48398 0.76048 0.0
C80 C 0.05249 0.58439 0.69964 0.0
Mg81 Mg 0.99831 0.45005 0.69034 0.0
O82 O 0.99977 0.48805 0.69117 0.0
Mg83 Mg 0.02023 0.51865 0.76847 0.0
Mg84 Mg 0.01445 0.51608 0.61921 0.0
O85 O 0.02959 0.54433 0.54786 0.0
Mg86 Mg 0.03282 0.58327 0.54852 0.0
Mg87 Mg 0.01085 0.5144 0.46949 0.0
C88 C 0.97667 0.44776 0.53923 0.0
C89 C 0.06295 0.50295 0.53794 0.0
O90 O 0.989 0.47863 0.832 0.0
O91 O 0.96929 0.43353 0.77094 0.0
O92 O 0.05894 0.5059 0.77966 0.0
O93 O 0.04408 0.46089 0.72285 0.0
O94 O 0.9806 0.43475 0.58829 0.0
O95 O 0.9838 0.47646 0.54281 0.0
C96 C 0.96609 0.5283 0.70344 0.0
O97 O 0.97316 0.52406 0.64588 0.0
O98 O 0.98146 0.52861 0.75431 0.0
O99 O 0.04472 0.55535 0.40912 0.0
O100 O 0.06351 0.60022 0.47073 0.0
O101 O 0.97356 0.52854 0.45471 0.0
C102 C 0.06327 0.58482 0.41904 0.0
O103 O 0.98794 0.57355 0.51131 0.0
O104 O 0.0495 0.59839 0.65141 0.0
C105 C 0.96882 0.55071 0.47231 0.0
O106 O 0.04488 0.55564 0.69398 0.0
O107 O 0.05557 0.50769 0.59466 0.0
O108 O 0.04831 0.50298 0.48627 0.0
C109 C 0.43141 0.02243 0.81567 0.0
C110 C 0.41954 0.93753 0.73031 0.0
C111 C 0.54138 0.99205 0.73321 0.0
Mg112 Mg 0.43204 -0.00125 0.67427 0.0
O113 O 0.47428 0.0181 0.70228 0.0
Mg114 Mg 0.48545 0.00314 0.7815 0.0
Mg115 Mg 0.50221 0.01411 0.64166 0.0
O116 O 0.52964 0.00985 0.58042 0.0
Mg117 Mg 0.57163 0.02602 0.60436 0.0
Mg118 Mg 0.51848 0.02428 0.50062 0.0
C119 C 0.46324 0.03523 0.54757 0.0
C120 C 0.45852 0.9587 0.5291 0.0
O121 O 0.45396 0.01843 0.83365 0.0
O122 O 0.42007 0.01705 0.75678 0.0
O123 O 0.44473 0.95429 0.76444 0.0
O124 O 0.40981 0.94911 0.68802 0.0
O125 O 0.43909 0.02082 0.58014 0.0
O126 O 0.48912 0.03753 0.56551 0.0
C127 C 0.54532 0.06884 0.75532 0.0
O128 O 0.54184 0.06076 0.69413 0.0
O129 O 0.52646 0.05115 0.79496 0.0
O130 O 0.54697 0.0059 0.44681 0.0
O131 O 0.57878 0.00312 0.5224 0.0
O132 O 0.56141 0.07303 0.51621 0.0
C133 C 0.56682 0.99799 0.46412 0.0
O134 O 0.59607 0.0754 0.59034 0.0
O135 O 0.56478 0.00504 0.69829 0.0
C136 C 0.58725 0.08828 0.54937 0.0
O137 O 0.5158 0.99094 0.71754 0.0
O138 O 0.46269 0.96723 0.59009 0.0
O139 O 0.47654 0.97632 0.48823 0.0
C140 C 0.53682 0.56783 0.41919 0.0
C141 C 0.58106 0.51724 0.48042 0.0
C142 C 0.46679 0.43677 0.5629 0.0
Mg143 Mg 0.56411 0.56203 0.55202 0.0
O144 O 0.52251 0.53116 0.55379 0.0
Mg145 Mg 0.5054 0.49764 0.48145 0.0
Mg146 Mg 0.50972 0.50591 0.6305 0.0
O147 O 0.49726 0.48079 0.70769 0.0
Mg148 Mg 0.4563 0.44935 0.7129 0.0
Mg149 Mg 0.51551 0.51407 0.78045 0.0
C150 C 0.55124 0.57596 0.69872 0.0
C151 C 0.57241 0.51585 0.70688 0.0
O152 O 0.51838 0.53822 0.41314 0.0
O153 O 0.55572 0.58146 0.46903 0.0
O154 O 0.55221 0.50038 0.46445 0.0
O155 O 0.59137 0.54158 0.51919 0.0
O156 O 0.56812 0.58426 0.64968 0.0
O157 O 0.52698 0.54905 0.69913 0.0
C158 C 0.44743 0.49539 0.5511 0.0
O159 O 0.46065 0.49928 0.60799 0.0
O160 O 0.46025 0.49477 0.49924 0.0
O161 O 0.5037 0.4736 0.84907 0.0
O162 O 0.46766 0.42976 0.79214 0.0
O163 O 0.46925 0.51187 0.79989 0.0
C164 C 0.48663 0.44383 0.84167 0.0
O165 O 0.42945 0.46976 0.74926 0.0
O166 O 0.45063 0.42887 0.61306 0.0
C167 C 0.44027 0.49481 0.78594 0.0
O168 O 0.49237 0.46261 0.56264 0.0
O169 O 0.55854 0.51242 0.65115 0.0
O170 O 0.56037 0.51644 0.75993 0.0
C171 C 0.21441 0.50255 0.42204 0.0
C172 C 0.22007 0.51652 0.36262 0.0
C173 C 0.1912 0.50099 0.46061 0.0
C174 C 0.17336 0.51417 0.44017 0.0
C175 C 0.18031 0.53011 0.38249 0.0
C176 C 0.20329 0.5308 0.34409 0.0
C177 C 0.18458 0.48361 0.52131 0.0
C178 C 0.16244 0.54516 0.35941 0.0
C179 C 0.08958 0.47943 0.48037 0.0
C180 C 0.09107 0.50108 0.52818 0.0
C181 C 0.11632 0.48262 0.45392 0.0
C182 C 0.14544 0.50846 0.47491 0.0
C183 C 0.14729 0.52941 0.5261 0.0
C184 C 0.12005 0.52538 0.55241 0.0
C185 C 0.11311 0.45933 0.40046 0.0
C186 C 0.17774 0.55737 0.54969 0.0
H187 H 0.22714 0.4914 0.4372 0.0
H188 H 0.20748 0.54177 0.2986 0.0
H189 H 0.18313 0.49758 0.56287 0.0
H190 H 0.16193 0.4619 0.51385 0.0
H191 H 0.20244 0.47747 0.53427 0.0
H192 H 0.17422 0.56121 0.32125 0.0
H193 H 0.13923 0.52699 0.33907 0.0
H194 H 0.15925 0.55827 0.40027 0.0
H195 H 0.06718 0.46088 0.46088 0.0
H196 H 0.12127 0.54263 0.58811 0.0
H197 H 0.12931 0.45084 0.41104 0.0
H198 H 0.11908 0.47061 0.354 0.0
H199 H 0.08933 0.4391 0.39391 0.0
H200 H 0.19554 0.55074 0.55845 0.0
H201 H 0.17596 0.56904 0.59505 0.0
H202 H 0.18577 0.57425 0.51174 0.0
C203 C 0.69868 0.23132 0.34318 0.0
C204 C 0.69366 0.2143 0.28352 0.0
C205 C 0.68342 0.21656 0.39805 0.0
C206 C 0.66259 0.18413 0.39287 0.0
C207 C 0.65675 0.16717 0.33211 0.0
C208 C 0.67239 0.1824 0.27851 0.0
C209 C 0.69004 0.23546 0.46176 0.0
C210 C 0.63429 0.13267 0.32381 0.0
C211 C 0.64048 0.12859 0.52578 0.0
C212 C 0.60928 0.11952 0.52914 0.0
C213 C 0.65939 0.15218 0.48632 0.0
C214 C 0.64684 0.16723 0.4502 0.0
C215 C 0.6166 0.16098 0.46059 0.0
C216 C 0.5981 0.13702 0.49957 0.0
C217 C 0.69168 0.15846 0.47772 0.0
C218 C 0.60244 0.17706 0.42518 0.0
H219 H 0.71522 0.25596 0.34754 0.0
H220 H 0.6682 0.1691 0.23255 0.0
H221 H 0.66821 0.23163 0.48133 0.0
H222 H 0.70128 0.22785 0.49786 0.0
H223 H 0.7053 0.26067 0.45691 0.0
H224 H 0.63206 0.12297 0.27315 0.0
H225 H 0.64192 0.1204 0.35642 0.0
H226 H 0.61118 0.12771 0.33755 0.0
H227 H 0.64936 0.11527 0.54868 0.0
H228 H 0.57416 0.13054 0.50316 0.0
H229 H 0.70797 0.18365 0.47604 0.0
H230 H 0.69202 0.14682 0.43092 0.0
H231 H 0.69994 0.14957 0.51738 0.0
H232 H 0.61994 0.201 0.41516 0.0
H233 H 0.58457 0.17808 0.45361 0.0
H234 H 0.59126 0.16384 0.37803 0.0
C235 C 0.53291 0.68565 0.17179 0.0
C236 C 0.51194 0.69426 0.19367 0.0
C237 C 0.53593 0.66225 0.20016 0.0
C238 C 0.51819 0.64778 0.25292 0.0
C239 C 0.49641 0.65587 0.27411 0.0
C240 C 0.49326 0.67877 0.24358 0.0
C241 C 0.55876 0.6537 0.17491 0.0
C242 C 0.47745 0.64136 0.33096 0.0
C243 C 0.51229 0.57501 0.31793 0.0
C244 C 0.53432 0.58771 0.37088 0.0
C245 C 0.50747 0.59427 0.2773 0.0
C246 C 0.52478 0.62686 0.29061 0.0
C247 C 0.54777 0.63977 0.34241 0.0
C248 C 0.55243 0.62011 0.3814 0.0
C249 C 0.48323 0.57973 0.22148 0.0
C250 C 0.56663 0.67441 0.35855 0.0
H251 H 0.54695 0.69717 0.1322 0.0
H252 H 0.47694 0.68533 0.26028 0.0
H253 H 0.57862 0.66204 0.21112 0.0
H254 H 0.54802 0.62814 0.16756 0.0
H255 H 0.5676 0.66399 0.12834 0.0
H256 H 0.4603 0.64884 0.33896 0.0
H257 H 0.4651 0.61572 0.32326 0.0
H258 H 0.4929 0.6479 0.37573 0.0
H259 H 0.49824 0.55005 0.30918 0.0
H260 H 0.56965 0.63032 0.42183 0.0
H261 H 0.49276 0.59097 0.17621 0.0
H262 H 0.46366 0.58334 0.23161 0.0
H263 H 0.47425 0.55443 0.21319 0.0
H264 H 0.57874 0.68621 0.3157 0.0
H265 H 0.58405 0.68074 0.39972 0.0
H266 H 0.55119 0.68348 0.37139 0.0
C267 C 0.839 0.56243 0.25351 0.0
C268 C 0.85187 0.57171 0.19359 0.0
C269 C 0.85604 0.56005 0.30601 0.0
C270 C 0.88677 0.56724 0.29863 0.0
C271 C 0.90046 0.57833 0.2396 0.0
C272 C 0.88286 0.58043 0.1878 0.0
C273 C 0.84063 0.54831 0.36818 0.0
C274 C 0.93331 0.58657 0.23003 0.0
C275 C 0.94266 0.58038 0.44176 0.0
C276 C 0.94342 0.5526 0.43762 0.0
C277 C 0.92328 0.58502 0.39874 0.0
C278 C 0.90405 0.56127 0.35069 0.0
C279 C 0.90304 0.53239 0.34938 0.0
C280 C 0.92272 0.52841 0.3928 0.0
C281 C 0.92485 0.61605 0.40212 0.0
C282 C 0.88247 0.50625 0.2996 0.0
H283 H 0.81512 0.55579 0.25875 0.0
H284 H 0.89305 0.58767 0.14187 0.0
H285 H 0.83735 0.52491 0.37432 0.0
H286 H 0.85539 0.56366 0.41063 0.0
H287 H 0.81779 0.54677 0.36853 0.0
H288 H 0.94125 0.59695 0.18314 0.0
H289 H 0.949 0.60319 0.27008 0.0
H290 H 0.93525 0.56542 0.23119 0.0
H291 H 0.95845 0.59925 0.47622 0.0
H292 H 0.92288 0.50676 0.38944 0.0
H293 H 0.90136 0.61295 0.40032 0.0
H294 H 0.9363 0.62873 0.35949 0.0
H295 H 0.93796 0.63061 0.4469 0.0
H296 H 0.85848 0.50175 0.29946 0.0
H297 H 0.88235 0.48443 0.30867 0.0
H298 H 0.89054 0.51292 0.25047 0.0
C299 C 0.31103 0.82501 0.32644 0.0
C300 C 0.30868 0.79581 0.32658 0.0
C301 C 0.33298 0.85011 0.36812 0.0
C302 C 0.35306 0.84593 0.41099 0.0
C303 C 0.3492 0.81598 0.41476 0.0
C304 C 0.32707 0.7913 0.37259 0.0
C305 C 0.33609 0.88159 0.36299 0.0
C306 C 0.36994 0.8104 0.45995 0.0
C307 C 0.43342 0.91589 0.44141 0.0
C308 C 0.43223 0.92821 0.50301 0.0
C309 C 0.40811 0.88879 0.41201 0.0
C310 C 0.38061 0.87348 0.44462 0.0
C311 C 0.37947 0.88512 0.50769 0.0
C312 C 0.40538 0.91228 0.5362 0.0
C313 C 0.41064 0.87697 0.34518 0.0
C314 C 0.35064 0.86946 0.5442 0.0
H315 H 0.29682 0.82874 0.29148 0.0
H316 H 0.32527 0.76878 0.37367 0.0
H317 H 0.33776 0.89263 0.41194 0.0
H318 H 0.35762 0.89688 0.33958 0.0
H319 H 0.31639 0.88027 0.33387 0.0
H320 H 0.36113 0.78529 0.46423 0.0
H321 H 0.39326 0.82081 0.44131 0.0
H322 H 0.37245 0.82168 0.50905 0.0
H323 H 0.45417 0.92771 0.41547 0.0
H324 H 0.40416 0.92155 0.58336 0.0
H325 H 0.39385 0.87773 0.31005 0.0
H326 H 0.40492 0.85245 0.34552 0.0
H327 H 0.43408 0.8908 0.32764 0.0
H328 H 0.33188 0.87114 0.5182 0.0
H329 H 0.35418 0.88005 0.59451 0.0
H330 H 0.34275 0.84445 0.54632 0.0
C331 C 0.45104 0.29293 0.38495 0.0
C332 C 0.43654 0.28209 0.32269 0.0
C333 C 0.45239 0.31889 0.41708 0.0
C334 C 0.43942 0.33471 0.38547 0.0
C335 C 0.42404 0.32342 0.32314 0.0
C336 C 0.42254 0.29696 0.29258 0.0
C337 C 0.46845 0.32987 0.48422 0.0
C338 C 0.41043 0.34001 0.28763 0.0
C339 C 0.42788 0.38642 0.50529 0.0
C340 C 0.45659 0.41379 0.50655 0.0
C341 C 0.42073 0.36106 0.46182 0.0
C342 C 0.4427 0.36332 0.41822 0.0
C343 C 0.4702 0.39201 0.41424 0.0
C344 C 0.4769 0.41698 0.45873 0.0
C345 C 0.39103 0.33097 0.46719 0.0
C346 C 0.49388 0.39554 0.36716 0.0
H347 H 0.46184 0.28138 0.40813 0.0
H348 H 0.41174 0.28886 0.24386 0.0
H349 H 0.48903 0.35329 0.48328 0.0
H350 H 0.45286 0.33171 0.51858 0.0
H351 H 0.47597 0.31405 0.50308 0.0
H352 H 0.39651 0.32649 0.24261 0.0
H353 H 0.3957 0.3448 0.31932 0.0
H354 H 0.4293 0.36271 0.27432 0.0
H355 H 0.4117 0.384 0.5411 0.0
H356 H 0.49894 0.43818 0.45873 0.0
H357 H 0.3961 0.31467 0.49223 0.0
H358 H 0.38001 0.31986 0.41847 0.0
H359 H 0.37436 0.33441 0.49521 0.0
H360 H 0.50662 0.38424 0.38526 0.0
H361 H 0.51081 0.4203 0.36148 0.0
H362 H 0.48262 0.38403 0.3188 0.0
C363 C 0.55718 0.89183 0.01031 0.0
C364 C 0.54369 0.86128 0.9828 0.0
C365 C 0.55518 0.91473 0.97725 0.0
C366 C 0.54001 0.90704 0.91452 0.0
C367 C 0.52551 0.876 0.88736 0.0
C368 C 0.52727 0.85338 0.92218 0.0
C369 C 0.57003 0.9473 0.00871 0.0
C370 C 0.50917 0.86693 0.82046 0.0
C371 C 0.51859 0.95994 0.82801 0.0
C372 C 0.54294 0.9742 0.78721 0.0
C373 C 0.51783 0.93891 0.87189 0.0
C374 C 0.54184 0.93182 0.87448 0.0
C375 C 0.56709 0.94716 0.83554 0.0
C376 C 0.56748 0.96835 0.793 0.0
C377 C 0.49117 0.92404 0.91474 0.0
C378 C 0.593 0.93999 0.83621 0.0
H379 H 0.56937 0.89789 0.05785 0.0
H380 H 0.51667 0.82975 0.90099 0.0
H381 H 0.59037 0.96293 0.98238 0.0
H382 H 0.55369 0.95612 0.00581 0.0
H383 H 0.57767 0.94863 0.06047 0.0
H384 H 0.49726 0.84151 0.80819 0.0
H385 H 0.49196 0.87463 0.81676 0.0
H386 H 0.52613 0.8787 0.78377 0.0
H387 H 0.4997 0.96452 0.82454 0.0
H388 H 0.58645 0.97916 0.76186 0.0
H389 H 0.49937 0.93376 0.96557 0.0
H390 H 0.48193 0.89869 0.91423 0.0
H391 H 0.47214 0.92821 0.89988 0.0
H392 H 0.60342 0.9435 0.8863 0.0
H393 H 0.61143 0.95466 0.80445 0.0
H394 H 0.58376 0.9153 0.81953 0.0
C395 C 0.7423 0.55619 0.82907 0.0
C396 C 0.74292 0.56587 0.89434 0.0
C397 C 0.71793 0.55055 0.78451 0.0
C398 C 0.69388 0.55508 0.80556 0.0
C399 C 0.69608 0.56786 0.86957 0.0
C400 C 0.72046 0.57291 0.9133 0.0
C401 C 0.71661 0.53714 0.71672 0.0
C402 C 0.67132 0.57382 0.89357 0.0
C403 C 0.62849 0.55026 0.69766 0.0
C404 C 0.6041 0.52162 0.71281 0.0
C405 C 0.65868 0.56085 0.7237 0.0
C406 C 0.6643 0.54214 0.76521 0.0
C407 C 0.64007 0.51193 0.77516 0.0
C408 C 0.61018 0.50222 0.74946 0.0
C409 C 0.68377 0.59312 0.71172 0.0
C410 C 0.64508 0.49086 0.81781 0.0
H411 H 0.75961 0.5508 0.81369 0.0
H412 H 0.72097 0.58077 0.96336 0.0
H413 H 0.69981 0.51188 0.71323 0.0
H414 H 0.70867 0.54772 0.68034 0.0
H415 H 0.73938 0.54055 0.7041 0.0
H416 H 0.67842 0.58756 0.94118 0.0
H417 H 0.66548 0.58635 0.85796 0.0
H418 H 0.65009 0.55136 0.89907 0.0
H419 H 0.62357 0.56549 0.67034 0.0
H420 H 0.59112 0.48024 0.76171 0.0
H421 H 0.70599 0.59392 0.70534 0.0
H422 H 0.68719 0.60911 0.75438 0.0
H423 H 0.6777 0.60175 0.66821 0.0
H424 H 0.66584 0.4899 0.80473 0.0
H425 H 0.62499 0.4669 0.8139 0.0
H426 H 0.64898 0.50017 0.86922 0.0
C427 C 0.15594 0.69162 0.01786 0.0
C428 C 0.18504 0.70225 0.99388 0.0
C429 C 0.12894 0.67234 0.97804 0.0
C430 C 0.13141 0.66426 0.91276 0.0
C431 C 0.16078 0.67676 0.8875 0.0
C432 C 0.18712 0.69548 0.92834 0.0
C433 C 0.09805 0.65945 0.00673 0.0
C434 C 0.16458 0.66933 0.81782 0.0
C435 C 0.07781 0.59101 0.81035 0.0
C436 C 0.06657 0.60256 0.76251 0.0
C437 C 0.09644 0.61017 0.86431 0.0
C438 C 0.104 0.64159 0.87042 0.0
C439 C 0.09006 0.65241 0.82604 0.0
C440 C 0.07158 0.63278 0.77241 0.0
C441 C 0.11056 0.59758 0.91096 0.0
C442 C 0.09708 0.68559 0.83151 0.0
H443 H 0.15428 0.69727 0.06822 0.0
H444 H 0.20956 0.70419 0.90904 0.0
H445 H 0.0809 0.66007 0.97241 0.0
H446 H 0.08938 0.63485 0.01627 0.0
H447 H 0.09959 0.67237 0.05326 0.0
H448 H 0.18899 0.68215 0.80519 0.0
H449 H 0.15595 0.64412 0.80938 0.0
H450 H 0.15082 0.67516 0.78423 0.0
H451 H 0.07388 0.56764 0.8036 0.0
H452 H 0.06243 0.64174 0.73646 0.0
H453 H 0.11033 0.6056 0.96178 0.0
H454 H 0.13496 0.60632 0.90046 0.0
H455 H 0.09829 0.57183 0.90665 0.0
H456 H 0.09751 0.6935 0.88278 0.0
H457 H 0.07995 0.68862 0.80206 0.0
H458 H 0.12021 0.70077 0.81389 0.0
C459 C 0.38229 0.12077 0.05154 0.0
C460 C 0.39283 0.14815 0.01948 0.0
C461 C 0.38275 0.09504 0.02249 0.0
C462 C 0.39428 0.09698 0.96039 0.0
C463 C 0.40232 0.12348 0.92563 0.0
C464 C 0.40118 0.14862 0.95537 0.0
C465 C 0.37306 0.06681 0.0603 0.0
C466 C 0.41461 0.12642 0.85905 0.0
C467 C 0.4396 0.0583 0.91193 0.0
C468 C 0.41969 0.03659 0.86251 0.0
C469 C 0.43078 0.07688 0.94749 0.0
C470 C 0.40117 0.07311 0.93393 0.0
C471 C 0.37998 0.04916 0.88847 0.0
C472 C 0.38963 0.0314 0.85265 0.0
C473 C 0.45405 0.10219 0.99574 0.0
C474 C 0.34785 0.04368 0.87445 0.0
H475 H 0.37545 0.12003 0.10088 0.0
H476 H 0.40901 0.16951 0.92991 0.0
H477 H 0.36032 0.04518 0.0281 0.0
H478 H 0.39386 0.06747 0.08239 0.0
H479 H 0.35835 0.06597 0.09996 0.0
H480 H 0.41793 0.14764 0.8369 0.0
H481 H 0.43712 0.12723 0.86269 0.0
H482 H 0.39868 0.10596 0.82602 0.0
H483 H 0.46283 0.06235 0.91966 0.0
H484 H 0.374 0.01424 0.81508 0.0
H485 H 0.44375 0.10135 0.04272 0.0
H486 H 0.46103 0.12515 0.97721 0.0
H487 H 0.47504 0.1004 0.00456 0.0
H488 H 0.33737 0.04473 0.92017 0.0
H489 H 0.3326 0.02088 0.84737 0.0
H490 H 0.34893 0.0621 0.84478 0.0
C491 C 0.32325 0.53545 0.97076 0.0
C492 C 0.32334 0.52817 0.03565 0.0
C493 C 0.3425 0.53228 0.92675 0.0
C494 C 0.36239 0.52146 0.94771 0.0
C495 C 0.36346 0.51521 0.01371 0.0
C496 C 0.34404 0.51866 0.05673 0.0
C497 C 0.34103 0.53985 0.85732 0.0
C498 C 0.38451 0.50396 0.03854 0.0
C499 C 0.38818 0.48019 0.82621 0.0
C500 C 0.41902 0.50282 0.81968 0.0
C501 C 0.36935 0.4862 0.86638 0.0
C502 C 0.38139 0.5157 0.90045 0.0
C503 C 0.41199 0.53913 0.89133 0.0
C504 C 0.43043 0.53236 0.85165 0.0
C505 C 0.33688 0.46052 0.87443 0.0
C506 C 0.42587 0.57106 0.92561 0.0
H507 H 0.30745 0.54282 0.95364 0.0
H508 H 0.34446 0.51299 0.1066 0.0
H509 H 0.36443 0.55686 0.8435 0.0
H510 H 0.33258 0.5186 0.82441 0.0
H511 H 0.32558 0.5495 0.8493 0.0
H512 H 0.38316 0.50073 0.09138 0.0
H513 H 0.37837 0.48155 0.01214 0.0
H514 H 0.40872 0.52077 0.02919 0.0
H515 H 0.37909 0.45726 0.80218 0.0
H516 H 0.45413 0.55014 0.84685 0.0
H517 H 0.32026 0.46846 0.86357 0.0
H518 H 0.33462 0.45426 0.92557 0.0
H519 H 0.33041 0.4394 0.84236 0.0
H520 H 0.40896 0.57918 0.92636 0.0
H521 H 0.44656 0.5883 0.90226 0.0
H522 H 0.43287 0.57025 0.97668 0.0
C523 C 0.81288 0.36784 0.98755 0.0
C524 C 0.81243 0.35307 0.04372 0.0
C525 C 0.84078 0.38712 0.96001 0.0
C526 C 0.86861 0.39034 0.98746 0.0
C527 C 0.8684 0.37668 0.04612 0.0
C528 C 0.84035 0.35884 0.07442 0.0
C529 C 0.84032 0.40283 0.89968 0.0
C530 C 0.89727 0.37945 0.07807 0.0
C531 C 0.9261 0.40156 0.86217 0.0
C532 C 0.94713 0.43352 0.87121 0.0
C533 C 0.90117 0.38713 0.90141 0.0
C534 C 0.8969 0.40504 0.95066 0.0
C535 C 0.91897 0.43687 0.96268 0.0
C536 C 0.9438 0.45078 0.92277 0.0
C537 C 0.87902 0.35272 0.88937 0.0
C538 C 0.91609 0.45621 0.01718 0.0
H539 H 0.79129 0.36342 0.9639 0.0
H540 H 0.84008 0.3473 0.1178 0.0
H541 H 0.85809 0.42779 0.90584 0.0
H542 H 0.84596 0.39241 0.85758 0.0
H543 H 0.81752 0.40071 0.8884 0.0
H544 H 0.89177 0.35865 0.10459 0.0
H545 H 0.91455 0.38246 0.04286 0.0
H546 H 0.90791 0.39986 0.11392 0.0
H547 H 0.92859 0.38786 0.82319 0.0
H548 H 0.96004 0.47542 0.93082 0.0
H549 H 0.85602 0.3486 0.87196 0.0
H550 H 0.87621 0.3412 0.93535 0.0
H551 H 0.88689 0.34166 0.85278 0.0
H552 H 0.89284 0.45373 0.01367 0.0
H553 H 0.93382 0.48113 0.01725 0.0
H554 H 0.9187 0.44776 0.06435 0.0
C555 C 0.85057 0.50233 0.95296 0.0
C556 C 0.82404 0.50458 0.94145 0.0
C557 C 0.87054 0.50615 0.90359 0.0
C558 C 0.86388 0.51203 0.8403 0.0
C559 C 0.83657 0.51323 0.82758 0.0
C560 C 0.817 0.50945 0.87811 0.0
C561 C 0.89928 0.50462 0.91985 0.0
C562 C 0.82863 0.51968 0.7612 0.0
C563 C 0.93728 0.5522 0.75036 0.0
C564 C 0.93663 0.52711 0.71547 0.0
C565 C 0.91229 0.54816 0.78609 0.0
C566 C 0.88638 0.51805 0.78901 0.0
C567 C 0.88467 0.49309 0.74977 0.0
C568 C 0.90971 0.49799 0.71314 0.0
C569 C 0.91507 0.57563 0.82597 0.0
C570 C 0.85792 0.46054 0.7516 0.0
H571 H 0.85632 0.49848 1.00138 0.0
H572 H 0.79668 0.51134 0.86836 0.0
H573 H 0.89767 0.48397 0.89333 0.0
H574 H 0.91997 0.52532 0.90443 0.0
H575 H 0.90278 0.50333 0.97266 0.0
H576 H 0.80576 0.51812 0.75792 0.0
H577 H 0.8464 0.54327 0.74967 0.0
H578 H 0.82865 0.50307 0.72368 0.0
H579 H 0.95834 0.57455 0.75379 0.0
H580 H 0.90946 0.4783 0.68803 0.0
H581 H 0.92017 0.57394 0.87782 0.0
H582 H 0.89307 0.57583 0.82225 0.0
H583 H 0.93379 0.59793 0.81048 0.0
H584 H 0.86056 0.4508 0.79693 0.0
H585 H 0.85689 0.44517 0.70978 0.0
H586 H 0.83573 0.46033 0.75173 0.0
C587 C 0.32101 0.77985 0.90918 0.0
C588 C 0.31918 0.79161 0.97087 0.0
C589 C 0.33466 0.79962 0.85918 0.0
C590 C 0.34753 0.83201 0.87166 0.0
C591 C 0.34577 0.84397 0.93395 0.0
C592 C 0.33128 0.82361 0.98246 0.0
C593 C 0.33564 0.78593 0.79327 0.0
C594 C 0.3598 0.8784 0.94987 0.0
C595 C 0.41396 0.89148 0.78329 0.0
C596 C 0.39997 0.9054 0.74918 0.0
C597 C 0.39675 0.86597 0.81953 0.0
C598 C 0.36462 0.85385 0.82151 0.0
C599 C 0.34987 0.86561 0.78148 0.0
C600 C 0.36777 0.89138 0.74578 0.0
C601 C 0.41367 0.85421 0.86061 0.0
C602 C 0.31552 0.85264 0.7804 0.0
H603 H 0.31133 0.75507 0.89962 0.0
H604 H 0.32994 0.83282 0.02999 0.0
H605 H 0.32596 0.79413 0.75499 0.0
H606 H 0.3599 0.79385 0.78287 0.0
H607 H 0.32259 0.76017 0.78991 0.0
H608 H 0.3562 0.88395 1.00034 0.0
H609 H 0.38495 0.89033 0.94369 0.0
H610 H 0.34964 0.88798 0.91593 0.0
H611 H 0.43885 0.90193 0.78548 0.0
H612 H 0.35676 0.90194 0.7195 0.0
H613 H 0.40004 0.82873 0.86307 0.0
H614 H 0.41789 0.86504 0.91083 0.0
H615 H 0.43626 0.86024 0.84161 0.0
H616 H 0.30309 0.82693 0.77815 0.0
H617 H 0.30696 0.86008 0.73853 0.0
H618 H 0.30982 0.86088 0.82576 0.0
C619 C 0.51463 0.33549 0.08159 0.0
C620 C 0.48584 0.30858 0.08343 0.0
C621 C 0.51797 0.36013 0.04552 0.0
C622 C 0.49167 0.35817 0.01286 0.0
C623 C 0.46243 0.33136 0.01646 0.0
C624 C 0.45998 0.30673 0.05066 0.0
C625 C 0.54966 0.38788 0.04112 0.0
C626 C 0.43364 0.32861 0.98399 0.0
C627 C 0.49076 0.42913 0.9547 0.0
C628 C 0.49111 0.4244 0.88751 0.0
C629 C 0.49198 0.40831 0.99687 0.0
C630 C 0.49458 0.38293 0.97105 0.0
C631 C 0.49683 0.37937 0.90349 0.0
C632 C 0.49455 0.39982 0.86256 0.0
C633 C 0.48877 0.41248 0.06839 0.0
C634 C 0.50047 0.35323 0.87399 0.0
H635 H 0.53458 0.33701 0.10735 0.0
H636 H 0.43754 0.28623 0.05323 0.0
H637 H 0.55573 0.39 0.98976 0.0
H638 H 0.54992 0.40945 0.05773 0.0
H639 H 0.56764 0.3862 0.07057 0.0
H640 H 0.4124 0.30746 0.9962 0.0
H641 H 0.43172 0.3492 0.99873 0.0
H642 H 0.43491 0.32785 0.93052 0.0
H643 H 0.48808 0.44816 0.97385 0.0
H644 H 0.49526 0.39646 0.81055 0.0
H645 H 0.50719 0.41155 0.09766 0.0
H646 H 0.46639 0.3932 0.08186 0.0
H647 H 0.48972 0.43477 0.08159 0.0
H648 H 0.5192 0.35191 0.90115 0.0
H649 H 0.50571 0.35597 0.82214 0.0
H650 H 0.47888 0.33083 0.87728 0.0
C651 C 0.20376 0.47339 0.94087 0.0
C652 C 0.19495 0.46537 0.00403 0.0
C653 C 0.18442 0.47696 0.89546 0.0
C654 C 0.15533 0.4718 0.91317 0.0
C655 C 0.14585 0.46252 0.97606 0.0
C656 C 0.16588 0.45972 0.02087 0.0
C657 C 0.1956 0.48734 0.82935 0.0
C658 C 0.11475 0.45614 0.99652 0.0
C659 C 0.11328 0.50804 0.83065 0.0
C660 C 0.09054 0.48286 0.79058 0.0
C661 C 0.13554 0.50525 0.86834 0.0
C662 C 0.13482 0.47648 0.86667 0.0
C663 C 0.11295 0.45152 0.82386 0.0
C664 C 0.09129 0.45508 0.78601 0.0
C665 C 0.15891 0.53269 0.91224 0.0
C666 C 0.11119 0.42039 0.82089 0.0
H667 H 0.22636 0.47822 0.9277 0.0
H668 H 0.15894 0.45352 0.06954 0.0
H669 H 0.17868 0.47083 0.79069 0.0
H670 H 0.19767 0.51025 0.82312 0.0
H671 H 0.21833 0.48932 0.82225 0.0
H672 H 0.1102 0.44757 0.04585 0.0
H673 H 0.11342 0.47765 0.99617 0.0
H674 H 0.09623 0.43865 0.96156 0.0
H675 H 0.11308 0.52966 0.83434 0.0
H676 H 0.07386 0.43541 0.75538 0.0
H677 H 0.18247 0.53681 0.90553 0.0
H678 H 0.15417 0.52776 0.96367 0.0
H679 H 0.15844 0.5542 0.90308 0.0
H680 H 0.13418 0.42316 0.81347 0.0
H681 H 0.0946 0.40415 0.78136 0.0
H682 H 0.10389 0.40979 0.86775 0.0
C683 C 0.69639 0.19194 0.96551 0.0
C684 C 0.69683 0.21993 0.97901 0.0
C685 C 0.67501 0.16952 0.91823 0.0
C686 C 0.6539 0.17544 0.88323 0.0
C687 C 0.65621 0.20479 0.89279 0.0
C688 C 0.67742 0.22654 0.94089 0.0
C689 C 0.67333 0.13853 0.9097 0.0
C690 C 0.6346 0.21237 0.85593 0.0
C691 C 0.59848 0.11577 0.74929 0.0
C692 C 0.57246 0.09815 0.78396 0.0
C693 C 0.62523 0.1414 0.78028 0.0
C694 C 0.62589 0.14933 0.8474 0.0
C695 C 0.59933 0.13215 0.88181 0.0
C696 C 0.57308 0.1071 0.84973 0.0
C697 C 0.65291 0.15944 0.74165 0.0
C698 C 0.59875 0.13976 0.95326 0.0
H699 H 0.71144 0.18677 0.99451 0.0
H700 H 0.67803 0.24839 0.95018 0.0
H701 H 0.65268 0.12085 0.9324 0.0
H702 H 0.6709 0.13097 0.85746 0.0
H703 H 0.69402 0.13916 0.93254 0.0
H704 H 0.64285 0.23762 0.86006 0.0
H705 H 0.63182 0.20445 0.80382 0.0
H706 H 0.61152 0.20005 0.87563 0.0
H707 H 0.59826 0.10915 0.69858 0.0
H708 H 0.55308 0.09401 0.87714 0.0
H709 H 0.67179 0.15548 0.75857 0.0
H710 H 0.66156 0.18467 0.74942 0.0
H711 H 0.64764 0.15253 0.68881 0.0
H712 H 0.61708 0.13817 0.98138 0.0
H713 H 0.57627 0.12395 0.97295 0.0
H714 H 0.60342 0.16388 0.96141 0.0
C715 C 0.53994 0.70554 0.89732 0.0
C716 C 0.55903 0.71917 0.95427 0.0
C717 C 0.54094 0.68197 0.85982 0.0
C718 C 0.56131 0.67163 0.88021 0.0
C719 C 0.58061 0.68527 0.93769 0.0
C720 C 0.57937 0.70902 0.97387 0.0
C721 C 0.52008 0.66801 0.79852 0.0
C722 C 0.6023 0.67454 0.96133 0.0
C723 C 0.53945 0.59204 0.80561 0.0
C724 C 0.55785 0.59962 0.75236 0.0
C725 C 0.54159 0.61523 0.85007 0.0
C726 C 0.56243 0.64671 0.84062 0.0
C727 C 0.5825 0.6544 0.78964 0.0
C728 C 0.58011 0.63075 0.74635 0.0
C729 C 0.52032 0.60614 0.9049 0.0
C730 C 0.60509 0.68774 0.77813 0.0
H731 H 0.52414 0.71324 0.88209 0.0
H732 H 0.59394 0.71919 0.01832 0.0
H733 H 0.53403 0.67057 0.75632 0.0
H734 H 0.50434 0.64283 0.80219 0.0
H735 H 0.50597 0.67903 0.78889 0.0
H736 H 0.61569 0.68749 0.00726 0.0
H737 H 0.58908 0.64949 0.96943 0.0
H738 H 0.61867 0.67746 0.92394 0.0
H739 H 0.5224 0.5681 0.81115 0.0
H740 H 0.59461 0.63693 0.70569 0.0
H741 H 0.50328 0.61376 0.89648 0.0
H742 H 0.53351 0.6179 0.95166 0.0
H743 H 0.50768 0.5807 0.9094 0.0
H744 H 0.59226 0.69931 0.76225 0.0
H745 H 0.62107 0.6897 0.74041 0.0
H746 H 0.61889 0.70052 0.8237 0.0
C747 C 0.45859 0.16698 0.37373 0.0
C748 C 0.45676 0.16605 0.30592 0.0
C749 C 0.46172 0.14452 0.40606 0.0
C750 C 0.46172 0.11979 0.36954 0.0
C751 C 0.46062 0.11918 0.30083 0.0
C752 C 0.45858 0.14266 0.26975 0.0
C753 C 0.46406 0.14676 0.47937 0.0
C754 C 0.46023 0.09307 0.26025 0.0
C755 C 0.48969 0.07528 0.4679 0.0
C756 C 0.46218 0.05267 0.49208 0.0
C757 C 0.48977 0.09605 0.4243 0.0
C758 C 0.46164 0.09418 0.40405 0.0
C759 C 0.43357 0.0698 0.42391 0.0
C760 C 0.43417 0.04947 0.46803 0.0
C761 C 0.52032 0.12153 0.40479 0.0
C762 C 0.40296 0.06628 0.40159 0.0
H763 H 0.45703 0.18505 0.40151 0.0
H764 H 0.45658 0.14169 0.21717 0.0
H765 H 0.4433 0.12699 0.4973 0.0
H766 H 0.48438 0.14538 0.49756 0.0
H767 H 0.46615 0.16867 0.50038 0.0
H768 H 0.46048 0.09659 0.20753 0.0
H769 H 0.48041 0.09077 0.275 0.0
H770 H 0.43924 0.07086 0.26858 0.0
H771 H 0.51152 0.07808 0.4859 0.0
H772 H 0.41273 0.03186 0.48561 0.0
H773 H 0.52841 0.14208 0.43964 0.0
H774 H 0.51857 0.12864 0.35554 0.0
H775 H 0.53793 0.11427 0.40601 0.0
H776 H 0.40052 0.0852 0.42562 0.0
H777 H 0.38325 0.04374 0.41337 0.0
H778 H 0.40172 0.0682 0.34842 0.0
C779 C 0.32753 0.45397 0.2896 0.0
C780 C 0.29966 0.4536 0.29636 0.0
C781 C 0.34681 0.45749 0.34407 0.0
C782 C 0.33803 0.46065 0.40716 0.0
C783 C 0.30878 0.45768 0.41459 0.0
C784 C 0.28988 0.45408 0.35909 0.0
C785 C 0.3776 0.46 0.33371 0.0
C786 C 0.29832 0.46041 0.48086 0.0
C787 C 0.3921 0.45728 0.53465 0.0
C788 C 0.41546 0.48848 0.54159 0.0
C789 C 0.36484 0.44788 0.49597 0.0
C790 C 0.36109 0.47031 0.46365 0.0
C791 C 0.38308 0.5022 0.47705 0.0
C792 C 0.41016 0.51087 0.51555 0.0
C793 C 0.34198 0.4137 0.48373 0.0
C794 C 0.37991 0.52699 0.44445 0.0
H795 H 0.33519 0.45324 0.24151 0.0
H796 H 0.2682 0.45339 0.36505 0.0
H797 H 0.39641 0.48395 0.34846 0.0
H798 H 0.38096 0.4441 0.36427 0.0
H799 H 0.37983 0.45444 0.28222 0.0
H800 H 0.27325 0.45225 0.47923 0.0
H801 H 0.30344 0.44695 0.51536 0.0
H802 H 0.31106 0.48505 0.50015 0.0
H803 H 0.39657 0.43987 0.55347 0.0
H804 H 0.42854 0.53491 0.51974 0.0
H805 H 0.34625 0.40507 0.43703 0.0
H806 H 0.31799 0.40925 0.47994 0.0
H807 H 0.34422 0.40022 0.52272 0.0
H808 H 0.38494 0.52652 0.39267 0.0
H809 H 0.39607 0.55051 0.46759 0.0
H810 H 0.35603 0.52268 0.4459 0.0
C811 C 0.84006 0.30931 0.35449 0.0
C812 C 0.83791 0.30378 0.28682 0.0
C813 C 0.86667 0.33378 0.3872 0.0
C814 C 0.89222 0.35297 0.35172 0.0
C815 C 0.89118 0.34613 0.28407 0.0
C816 C 0.86388 0.32179 0.25218 0.0
C817 C 0.8668 0.33997 0.45954 0.0
C818 C 0.91818 0.36534 0.2446 0.0
C819 C 0.94036 0.43239 0.44055 0.0
C820 C 0.96084 0.4276 0.47936 0.0
C821 C 0.91935 0.40909 0.39426 0.0
C822 C 0.91922 0.38066 0.38628 0.0
C823 C 0.94219 0.37726 0.42019 0.0
C824 C 0.96254 0.40065 0.46677 0.0
C825 C 0.8956 0.41387 0.35804 0.0
C826 C 0.94373 0.34792 0.41106 0.0
H827 H 0.82028 0.29542 0.38188 0.0
H828 H 0.86253 0.31779 0.19986 0.0
H829 H 0.88658 0.3399 0.48499 0.0
H830 H 0.86957 0.36327 0.46995 0.0
H831 H 0.84526 0.32253 0.48012 0.0
H832 H 0.91684 0.38568 0.22952 0.0
H833 H 0.9405 0.37405 0.27295 0.0
H834 H 0.9179 0.35179 0.20016 0.0
H835 H 0.93906 0.45325 0.44981 0.0
H836 H 0.97878 0.3971 0.49579 0.0
H837 H 0.87262 0.39878 0.37643 0.0
H838 H 0.89412 0.40715 0.30556 0.0
H839 H 0.90091 0.43832 0.36394 0.0
H840 H 0.92454 0.32909 0.43509 0.0
H841 H 0.96581 0.35094 0.4322 0.0
H842 H 0.94107 0.34037 0.35872 0.0
C843 C 0.58825 0.8771 0.23174 0.0
C844 C 0.56032 0.84896 0.23072 0.0
C845 C 0.59206 0.90392 0.26547 0.0
C846 C 0.56763 0.90227 0.30038 0.0
C847 C 0.53953 0.87376 0.30035 0.0
C848 C 0.53606 0.8475 0.26469 0.0
C849 C 0.62201 0.93408 0.26298 0.0
C850 C 0.51318 0.87098 0.33821 0.0
C851 C 0.58429 0.95987 0.44291 0.0
C852 C 0.57221 0.97768 0.41853 0.0
C853 C 0.58383 0.93587 0.40425 0.0
C854 C 0.57171 0.92999 0.33908 0.0
C855 C 0.56161 0.94931 0.31261 0.0
C856 C 0.56165 0.97277 0.35292 0.0
C857 C 0.59448 0.91554 0.43448 0.0
C858 C 0.54941 0.94427 0.24263 0.0
H859 H 0.60684 0.87842 0.20437 0.0
H860 H 0.51443 0.82576 0.2636 0.0
H861 H 0.61743 0.95187 0.24369 0.0
H862 H 0.63316 0.94288 0.3126 0.0
H863 H 0.63841 0.9316 0.23207 0.0
H864 H 0.4931 0.84701 0.33408 0.0
H865 H 0.52095 0.878 0.39028 0.0
H866 H 0.50552 0.88685 0.32055 0.0
H867 H 0.59246 0.96337 0.49354 0.0
H868 H 0.55247 0.98654 0.33357 0.0
H869 H 0.61157 0.91382 0.40471 0.0
H870 H 0.57455 0.89173 0.43604 0.0
H871 H 0.60498 0.92435 0.48466 0.0
H872 H 0.56522 0.94166 0.21013 0.0
H873 H 0.54635 0.96366 0.22737 0.0
H874 H 0.52678 0.92253 0.23586 0.0
C875 C 0.68007 0.50585 0.19984 0.0
C876 C 0.70198 0.49751 0.2183 0.0
C877 C 0.65982 0.50676 0.24441 0.0
C878 C 0.66102 0.49864 0.30895 0.0
C879 C 0.68201 0.48867 0.32679 0.0
C880 C 0.70234 0.4885 0.28164 0.0
C881 C 0.63805 0.51776 0.22316 0.0
C882 C 0.6837 0.4791 0.39433 0.0
C883 C 0.6336 0.53426 0.44001 0.0
C884 C 0.60292 0.51076 0.44478 0.0
C885 C 0.65284 0.53038 0.39708 0.0
C886 C 0.64145 0.50211 0.35841 0.0
C887 C 0.61104 0.47771 0.36557 0.0
C888 C 0.59215 0.48239 0.40811 0.0
C889 C 0.68498 0.55712 0.391 0.0
C890 C 0.59805 0.44694 0.32671 0.0
H891 H 0.67969 0.5131 0.15137 0.0
H892 H 0.71907 0.48194 0.29654 0.0
H893 H 0.61404 0.50036 0.23245 0.0
H894 H 0.64395 0.53956 0.25195 0.0
H895 H 0.63901 0.52209 0.17082 0.0
H896 H 0.69913 0.46922 0.39887 0.0
H897 H 0.69241 0.49949 0.42988 0.0
H898 H 0.66039 0.46166 0.40773 0.0
H899 H 0.6422 0.55635 0.4675 0.0
H900 H 0.56855 0.46399 0.41133 0.0
H901 H 0.68711 0.56489 0.34103 0.0
H902 H 0.70216 0.54966 0.39928 0.0
H903 H 0.69082 0.57718 0.42592 0.0
H904 H 0.59572 0.45009 0.27445 0.0
H905 H 0.57508 0.42946 0.3419 0.0
H906 H 0.61398 0.43771 0.33195 0.0
C907 C 0.20004 0.66906 0.17472 0.0
C908 C 0.22698 0.6742 0.20878 0.0
C909 C 0.17167 0.6557 0.20391 0.0
C910 C 0.17031 0.64733 0.26885 0.0
C911 C 0.19763 0.65265 0.30342 0.0
C912 C 0.22554 0.66592 0.2729 0.0
C913 C 0.14331 0.65033 0.16454 0.0
C914 C 0.19711 0.64301 0.37178 0.0
C915 C 0.10536 0.63349 0.37681 0.0
C916 C 0.08775 0.60095 0.37321 0.0
C917 C 0.13131 0.64894 0.34034 0.0
C918 C 0.14035 0.63153 0.30027 0.0
C919 C 0.12183 0.59876 0.29393 0.0
C920 C 0.09567 0.5839 0.33002 0.0
C921 C 0.14959 0.68392 0.34602 0.0
C922 C 0.12978 0.57932 0.24944 0.0
H923 H 0.20076 0.67378 0.12412 0.0
H924 H 0.24623 0.66913 0.29872 0.0
H925 H 0.1454 0.64698 0.11188 0.0
H926 H 0.12199 0.6299 0.17856 0.0
H927 H 0.14065 0.67097 0.17265 0.0
H928 H 0.22033 0.64887 0.39211 0.0
H929 H 0.18801 0.65451 0.404 0.0
H930 H 0.18145 0.61761 0.37234 0.0
H931 H 0.09926 0.64694 0.40929 0.0
H932 H 0.08219 0.5588 0.32636 0.0
H933 H 0.15286 0.69279 0.29695 0.0
H934 H 0.17281 0.69197 0.36961 0.0
H935 H 0.13817 0.69416 0.37481 0.0
H936 H 0.12501 0.58232 0.19827 0.0
H937 H 0.11617 0.55426 0.25765 0.0
H938 H 0.15466 0.58698 0.25589 0.0
loop_
_geom_bond_atom_site_label_1
_geom_bond_atom_site_label_2
_geom_bond_distance
_geom_bond_site_symmetry_2
_ccdc_geom_bond_type
Mg0 O7 2.141 . S
Mg0 O8 2.048 . S
Mg0 O9 2.048 . S
Mg0 O12 2.141 . S
C1 O2 1.313 . S
C1 O8 1.195 . S
O2 C1 1.313 . S
C3 O4 1.245 . S
C3 O12 1.289 . S
O4 C3 1.245 . S
C5 O6 1.245 . S
C5 O7 1.289 . S
O6 C5 1.245 . S
O7 Mg0 2.141 . S
O7 C5 1.289 . S
O8 Mg0 2.048 . S
O8 C1 1.195 . S
O9 Mg0 2.048 . S
O9 C10 1.195 . S
C10 O9 1.195 . S
C10 O11 1.313 . S
O11 C10 1.313 . S
O12 Mg0 2.141 . S
O12 C3 1.289 . S
Mg13 O20 2.141 . S
Mg13 O21 2.048 . S
Mg13 O22 2.048 . S
Mg13 O25 2.141 . S
C14 O15 1.313 . S
C14 O21 1.195 . S
O15 C14 1.313 . S
C16 O17 1.245 . S
C16 O25 1.289 . S
O17 C16 1.245 . S
C18 O19 1.245 . S
C18 O20 1.289 . S
O19 C18 1.245 . S
O20 Mg13 2.141 . S
O20 C18 1.289 . S
O21 Mg13 2.048 . S
O21 C14 1.195 . S
O22 Mg13 2.048 . S
O22 C23 1.195 . S
C23 O22 1.195 . S
C23 O24 1.313 . S
O24 C23 1.313 . S
O25 Mg13 2.141 . S
O25 C16 1.289 . S
Mg26 O33 2.141 1_554 S
Mg26 O34 2.048 . S
Mg26 O35 2.048 . S
Mg26 O38 2.141 1_554 S
C27 O28 1.313 . S
C27 O34 1.195 . S
O28 C27 1.313 . S
C29 O30 1.245 . S
C29 O38 1.289 . S
O30 C29 1.245 . S
C31 O32 1.245 . S
C31 O33 1.289 . S
O32 C31 1.245 . S
O33 Mg26 2.141 1_556 S
O33 C31 1.289 . S
O34 Mg26 2.048 . S
O34 C27 1.195 . S
O35 Mg26 2.048 . S
O35 C36 1.195 . S
C36 O35 1.195 . S
C36 O37 1.313 . S
O37 C36 1.313 . S
O38 Mg26 2.141 1_556 S
O38 C29 1.289 . S
Mg39 O46 2.141 . S
Mg39 O47 2.048 . S
Mg39 O48 2.048 . S
Mg39 O51 2.141 . S
C40 O41 1.313 . S
C40 O47 1.195 1_556 S
O41 C40 1.313 . S
C42 O43 1.245 . S
C42 O51 1.289 . S
O43 C42 1.245 . S
C44 O45 1.245 . S
C44 O46 1.289 . S
O45 C44 1.245 . S
O46 Mg39 2.141 . S
O46 C44 1.289 . S
O47 Mg39 2.048 . S
O47 C40 1.195 1_554 S
O48 Mg39 2.048 . S
O48 C49 1.195 1_554 S
C49 O48 1.195 1_556 S
C49 O50 1.313 . S
O50 C49 1.313 . S
O51 Mg39 2.141 . S
O51 C42 1.289 . S
Mg52 O59 2.141 . S
Mg52 O60 2.048 . S
Mg52 O61 2.048 . S
Mg52 O64 2.141 . S
C53 O54 1.313 1_554 S
C53 O60 1.195 . S
O54 C53 1.313 1_556 S
C55 O56 1.245 . S
C55 O64 1.289 . S
O56 C55 1.245 . S
C57 O58 1.245 . S
C57 O59 1.289 . S
O58 C57 1.245 . S
O59 Mg52 2.141 . S
O59 C57 1.289 . S
O60 Mg52 2.048 . S
O60 C53 1.195 . S
O61 Mg52 2.048 . S
O61 C62 1.195 . S
C62 O61 1.195 . S
C62 O63 1.313 . S
O63 C62 1.313 . S
O64 Mg52 2.141 . S
O64 C55 1.289 . S
Mg65 O72 2.141 . S
Mg65 O73 2.048 . S
Mg65 O74 2.048 . S
Mg65 O77 2.141 . S
C66 O67 1.313 . S
C66 O73 1.195 . S
O67 C66 1.313 . S
C68 O69 1.245 . S
C68 O77 1.289 . S
O69 C68 1.245 . S
C70 O71 1.245 . S
C70 O72 1.289 . S
O71 C70 1.245 . S
O72 Mg65 2.141 . S
O72 C70 1.289 . S
O73 Mg65 2.048 . S
O73 C66 1.195 . S
O74 Mg65 2.048 . S
O74 C75 1.195 . S
C75 O74 1.195 . S
C75 O76 1.313 . S
O76 C75 1.313 . S
O77 Mg65 2.141 . S
O77 C68 1.289 . S
C78 O90 1.241 . S
C78 O91 1.280 . S
C79 O92 1.277 . S
C79 O93 1.245 . S
C80 O104 1.247 . S
C80 O106 1.289 . S
Mg81 O82 1.926 . S
Mg81 O91 1.984 . S
Mg81 O93 1.988 1_655 S
Mg81 O94 2.061 . S
O82 Mg81 1.926 . S
O82 Mg83 1.986 1_655 S
O82 Mg84 1.917 1_655 S
Mg83 O82 1.986 1_455 S
Mg83 O90 2.042 1_455 S
Mg83 O92 2.041 . S
Mg83 O98 2.038 1_455 S
Mg83 O106 2.238 . S
Mg84 O82 1.917 1_455 S
Mg84 O85 1.917 . S
Mg84 O95 2.106 1_455 S
Mg84 O97 2.079 1_455 S
Mg84 O106 2.106 . S
Mg84 O107 2.079 . S
O85 Mg84 1.917 . S
O85 Mg86 1.926 . S
O85 Mg87 1.986 . S
Mg86 O85 1.926 . S
Mg86 O100 1.984 . S
Mg86 O103 1.988 1_455 S
Mg86 O104 2.061 . S
Mg87 O85 1.986 . S
Mg87 O95 2.238 1_455 S
Mg87 O99 2.042 . S
Mg87 O101 2.041 1_455 S
Mg87 O108 2.038 . S
C88 O94 1.247 . S
C88 O95 1.289 . S
C89 O107 1.245 . S
C89 O108 1.274 . S
O90 C78 1.241 . S
O90 Mg83 2.042 1_655 S
O91 C78 1.280 . S
O91 Mg81 1.984 . S
O92 C79 1.277 . S
O92 Mg83 2.041 . S
O93 C79 1.245 . S
O93 Mg81 1.988 1_455 S
O94 Mg81 2.061 . S
O94 C88 1.247 . S
O95 Mg84 2.106 1_655 S
O95 Mg87 2.238 1_655 S
O95 C88 1.289 . S
C96 O97 1.245 . S
C96 O98 1.274 . S
O97 Mg84 2.079 1_655 S
O97 C96 1.245 . S
O98 Mg83 2.038 1_655 S
O98 C96 1.274 . S
O99 Mg87 2.042 . S
O99 C102 1.241 . S
O100 Mg86 1.984 . S
O100 C102 1.280 . S
O101 Mg87 2.041 1_655 S
O101 C105 1.277 . S
C102 O99 1.241 . S
C102 O100 1.280 . S
O103 Mg86 1.988 1_655 S
O103 C105 1.245 . S
O104 C80 1.247 . S
O104 Mg86 2.061 . S
C105 O101 1.277 . S
C105 O103 1.245 . S
O106 C80 1.289 . S
O106 Mg83 2.238 . S
O106 Mg84 2.106 . S
O107 Mg84 2.079 . S
O107 C89 1.245 . S
O108 Mg87 2.038 . S
O108 C89 1.274 . S
C109 O121 1.241 . S
C109 O122 1.280 . S
C110 O123 1.277 . S
C110 O124 1.245 . S
C111 O135 1.247 . S
C111 O137 1.289 . S
Mg112 O113 1.926 . S
Mg112 O122 1.984 . S
Mg112 O124 1.988 1_545 S
Mg112 O125 2.061 . S
O113 Mg112 1.926 . S
O113 Mg114 1.986 . S
O113 Mg115 1.917 . S
Mg114 O113 1.986 . S
Mg114 O121 2.042 . S
Mg114 O123 2.041 1_545 S
Mg114 O129 2.038 . S
Mg114 O137 2.238 1_545 S
Mg115 O113 1.917 . S
Mg115 O116 1.909 1_545 S
Mg115 O126 2.106 . S
Mg115 O128 2.079 . S
Mg115 O137 2.106 1_545 S
Mg115 O138 2.079 1_545 S
O116 Mg115 1.909 1_565 S
O116 Mg117 1.935 . S
O116 Mg118 1.979 1_565 S
Mg117 O116 1.935 . S
Mg117 O131 1.984 . S
Mg117 O134 1.988 1_565 S
Mg117 O135 2.061 . S
Mg118 O116 1.979 1_545 S
Mg118 O126 2.238 . S
Mg118 O130 2.042 1_545 S
Mg118 O132 2.041 . S
Mg118 O139 2.038 1_545 S
C119 O125 1.247 . S
C119 O126 1.289 . S
C120 O138 1.245 . S
C120 O139 1.274 . S
O121 C109 1.241 . S
O121 Mg114 2.042 . S
O122 C109 1.280 . S
O122 Mg112 1.984 . S
O123 C110 1.277 . S
O123 Mg114 2.041 1_565 S
O124 C110 1.245 . S
O124 Mg112 1.988 1_565 S
O125 Mg112 2.061 . S
O125 C119 1.247 . S
O126 Mg115 2.106 . S
O126 Mg118 2.238 . S
O126 C119 1.289 . S
C127 O128 1.245 . S
C127 O129 1.274 . S
O128 Mg115 2.079 . S
O128 C127 1.245 . S
O129 Mg114 2.038 . S
O129 C127 1.274 . S
O130 Mg118 2.042 1_565 S
O130 C133 1.241 . S
O131 Mg117 1.984 . S
O131 C133 1.280 . S
O132 Mg118 2.041 . S
O132 C136 1.277 . S
C133 O130 1.241 . S
C133 O131 1.280 . S
O134 Mg117 1.988 1_545 S
O134 C136 1.245 . S
O135 C111 1.247 . S
O135 Mg117 2.061 . S
C136 O132 1.277 . S
C136 O134 1.245 . S
O137 C111 1.289 . S
O137 Mg114 2.238 1_565 S
O137 Mg115 2.106 1_565 S
O138 Mg115 2.079 1_565 S
O138 C120 1.245 . S
O139 Mg118 2.038 1_565 S
O139 C120 1.274 . S
C140 O152 1.241 . S
C140 O153 1.280 . S
C141 O154 1.277 . S
C141 O155 1.245 . S
C142 O166 1.247 . S
C142 O168 1.289 . S
Mg143 O144 1.926 . S
Mg143 O153 1.984 . S
Mg143 O155 1.988 . S
Mg143 O156 2.061 . S
O144 Mg143 1.926 . S
O144 Mg145 1.986 . S
O144 Mg146 1.917 . S
Mg145 O144 1.986 . S
Mg145 O152 2.042 . S
Mg145 O154 2.041 . S
Mg145 O160 2.038 . S
Mg145 O168 2.238 . S
Mg146 O144 1.917 . S
Mg146 O147 1.917 . S
Mg146 O157 2.106 . S
Mg146 O159 2.079 . S
Mg146 O168 2.106 . S
Mg146 O169 2.079 . S
O147 Mg146 1.917 . S
O147 Mg148 1.926 . S
O147 Mg149 1.986 . S
Mg148 O147 1.926 . S
Mg148 O162 1.984 . S
Mg148 O165 1.988 . S
Mg148 O166 2.061 . S
Mg149 O147 1.986 . S
Mg149 O157 2.238 . S
Mg149 O161 2.042 . S
Mg149 O163 2.041 . S
Mg149 O170 2.038 . S
C150 O156 1.247 . S
C150 O157 1.289 . S
C151 O169 1.245 . S
C151 O170 1.274 . S
O152 C140 1.241 . S
O152 Mg145 2.042 . S
O153 C140 1.280 . S
O153 Mg143 1.984 . S
O154 C141 1.277 . S
O154 Mg145 2.041 . S
O155 C141 1.245 . S
O155 Mg143 1.988 . S
O156 Mg143 2.061 . S
O156 C150 1.247 . S
O157 Mg146 2.106 . S
O157 Mg149 2.238 . S
O157 C150 1.289 . S
C158 O159 1.245 . S
C158 O160 1.274 . S
O159 Mg146 2.079 . S
O159 C158 1.245 . S
O160 Mg145 2.038 . S
O160 C158 1.274 . S
O161 Mg149 2.042 . S
O161 C164 1.241 . S
O162 Mg148 1.984 . S
O162 C164 1.280 . S
O163 Mg149 2.041 . S
O163 C167 1.277 . S
C164 O161 1.241 . S
C164 O162 1.280 . S
O165 Mg148 1.988 . S
O165 C167 1.245 . S
O166 C142 1.247 . S
O166 Mg148 2.061 . S
C167 O163 1.277 . S
C167 O165 1.245 . S
O168 C142 1.289 . S
O168 Mg145 2.238 . S
O168 Mg146 2.106 . S
O169 Mg146 2.079 . S
O169 C151 1.245 . S
O170 Mg149 2.038 . S
O170 C151 1.274 . S
C171 C172 1.391 . S
C171 C173 1.394 . S
C171 H187 0.931 . S
C172 C171 1.391 . S
C172 C176 1.376 . S
C173 C171 1.394 . S
C173 C174 1.369 . S
C173 C177 1.531 . S
C174 C173 1.369 . S
C174 C175 1.410 . S
C174 C182 1.503 . S
C175 C174 1.410 . S
C175 C176 1.392 . S
C175 C178 1.511 . S
C176 C172 1.376 . S
C176 C175 1.392 . S
C176 H188 0.929 . S
C177 C173 1.531 . S
C177 H189 0.960 . S
C177 H190 0.962 . S
C177 H191 0.960 . S
C178 C175 1.511 . S
C178 H192 0.961 . S
C178 H193 0.961 . S
C178 H194 0.961 . S
C179 C180 1.370 . S
C179 C181 1.363 . S
C179 H195 0.931 . S
C180 C179 1.370 . S
C180 C184 1.408 . S
C181 C179 1.363 . S
C181 C182 1.370 . S
C181 C185 1.524 . S
C182 C174 1.503 . S
C182 C181 1.370 . S
C182 C183 1.403 . S
C183 C182 1.403 . S
C183 C184 1.404 . S
C183 C186 1.539 . S
C184 C180 1.408 . S
C184 C183 1.404 . S
C184 H196 0.930 . S
C185 C181 1.524 . S
C185 H197 0.956 . S
C185 H198 0.961 . S
C185 H199 0.961 . S
C186 C183 1.539 . S
C186 H200 0.958 . S
C186 H201 0.961 . S
C186 H202 0.960 . S
H187 C171 0.931 . S
H188 C176 0.929 . S
H189 C177 0.960 . S
H190 C177 0.962 . S
H191 C177 0.960 . S
H192 C178 0.961 . S
H193 C178 0.961 . S
H194 C178 0.961 . S
H195 C179 0.931 . S
H196 C184 0.930 . S
H197 C185 0.956 . S
H198 C185 0.961 . S
H199 C185 0.961 . S
H200 C186 0.958 . S
H201 C186 0.961 . S
H202 C186 0.960 . S
C203 C204 1.391 . S
C203 C205 1.394 . S
C203 H219 0.931 . S
C204 C203 1.391 . S
C204 C208 1.376 . S
C205 C203 1.394 . S
C205 C206 1.369 . S
C205 C209 1.531 . S
C206 C205 1.369 . S
C206 C207 1.410 . S
C206 C214 1.503 . S
C207 C206 1.410 . S
C207 C208 1.392 . S
C207 C210 1.511 . S
C208 C204 1.376 . S
C208 C207 1.392 . S
C208 H220 0.929 . S
C209 C205 1.531 . S
C209 H221 0.960 . S
C209 H222 0.962 . S
C209 H223 0.960 . S
C210 C207 1.511 . S
C210 H224 0.961 . S
C210 H225 0.961 . S
C210 H226 0.961 . S
C211 C212 1.370 . S
C211 C213 1.363 . S
C211 H227 0.931 . S
C212 C211 1.370 . S
C212 C216 1.408 . S
C213 C211 1.363 . S
C213 C214 1.370 . S
C213 C217 1.524 . S
C214 C206 1.503 . S
C214 C213 1.370 . S
C214 C215 1.403 . S
C215 C214 1.403 . S
C215 C216 1.404 . S
C215 C218 1.539 . S
C216 C212 1.408 . S
C216 C215 1.404 . S
C216 H228 0.930 . S
C217 C213 1.524 . S
C217 H229 0.956 . S
C217 H230 0.961 . S
C217 H231 0.961 . S
C218 C215 1.539 . S
C218 H232 0.958 . S
C218 H233 0.961 . S
C218 H234 0.960 . S
H219 C203 0.931 . S
H220 C208 0.929 . S
H221 C209 0.960 . S
H222 C209 0.962 . S
H223 C209 0.960 . S
H224 C210 0.961 . S
H225 C210 0.961 . S
H226 C210 0.961 . S
H227 C211 0.931 . S
H228 C216 0.930 . S
H229 C217 0.956 . S
H230 C217 0.961 . S
H231 C217 0.961 . S
H232 C218 0.958 . S
H233 C218 0.961 . S
H234 C218 0.960 . S
C235 C236 1.391 . S
C235 C237 1.394 . S
C235 H251 0.931 . S
C236 C235 1.391 . S
C236 C240 1.376 . S
C237 C235 1.394 . S
C237 C238 1.369 . S
C237 C241 1.531 . S
C238 C237 1.369 . S
C238 C239 1.410 . S
C238 C246 1.503 . S
C239 C238 1.410 . S
C239 C240 1.392 . S
C239 C242 1.511 . S
C240 C236 1.376 . S
C240 C239 1.392 . S
C240 H252 0.929 . S
C241 C237 1.531 . S
C241 H253 0.960 . S
C241 H254 0.962 . S
C241 H255 0.960 . S
C242 C239 1.511 . S
C242 H256 0.961 . S
C242 H257 0.961 . S
C242 H258 0.961 . S
C243 C244 1.370 . S
C243 C245 1.363 . S
C243 H259 0.931 . S
C244 C243 1.370 . S
C244 C248 1.408 . S
C245 C243 1.363 . S
C245 C246 1.370 . S
C245 C249 1.524 . S
C246 C238 1.503 . S
C246 C245 1.370 . S
C246 C247 1.403 . S
C247 C246 1.403 . S
C247 C248 1.404 . S
C247 C250 1.539 . S
C248 C244 1.408 . S
C248 C247 1.404 . S
C248 H260 0.930 . S
C249 C245 1.524 . S
C249 H261 0.956 . S
C249 H262 0.961 . S
C249 H263 0.961 . S
C250 C247 1.539 . S
C250 H264 0.958 . S
C250 H265 0.961 . S
C250 H266 0.960 . S
H251 C235 0.931 . S
H252 C240 0.929 . S
H253 C241 0.960 . S
H254 C241 0.962 . S
H255 C241 0.960 . S
H256 C242 0.961 . S
H257 C242 0.961 . S
H258 C242 0.961 . S
H259 C243 0.931 . S
H260 C248 0.930 . S
H261 C249 0.956 . S
H262 C249 0.961 . S
H263 C249 0.961 . S
H264 C250 0.958 . S
H265 C250 0.961 . S
H266 C250 0.960 . S
C267 C268 1.391 . S
C267 C269 1.394 . S
C267 H283 0.931 . S
C268 C267 1.391 . S
C268 C272 1.376 . S
C269 C267 1.394 . S
C269 C270 1.369 . S
C269 C273 1.531 . S
C270 C269 1.369 . S
C270 C271 1.410 . S
C270 C278 1.503 . S
C271 C270 1.410 . S
C271 C272 1.392 . S
C271 C274 1.511 . S
C272 C268 1.376 . S
C272 C271 1.392 . S
C272 H284 0.929 . S
C273 C269 1.531 . S
C273 H285 0.960 . S
C273 H286 0.962 . S
C273 H287 0.960 . S
C274 C271 1.511 . S
C274 H288 0.961 . S
C274 H289 0.961 . S
C274 H290 0.961 . S
C275 C276 1.370 . S
C275 C277 1.363 . S
C275 H291 0.931 . S
C276 C275 1.370 . S
C276 C280 1.408 . S
C277 C275 1.363 . S
C277 C278 1.370 . S
C277 C281 1.524 . S
C278 C270 1.503 . S
C278 C277 1.370 . S
C278 C279 1.403 . S
C279 C278 1.403 . S
C279 C280 1.404 . S
C279 C282 1.539 . S
C280 C276 1.408 . S
C280 C279 1.404 . S
C280 H292 0.930 . S
C281 C277 1.524 . S
C281 H293 0.956 . S
C281 H294 0.961 . S
C281 H295 0.961 . S
C282 C279 1.539 . S
C282 H296 0.958 . S
C282 H297 0.961 . S
C282 H298 0.960 . S
H283 C267 0.931 . S
H284 C272 0.929 . S
H285 C273 0.960 . S
H286 C273 0.962 . S
H287 C273 0.960 . S
H288 C274 0.961 . S
H289 C274 0.961 . S
H290 C274 0.961 . S
H291 C275 0.931 . S
H292 C280 0.930 . S
H293 C281 0.956 . S
H294 C281 0.961 . S
H295 C281 0.961 . S
H296 C282 0.958 . S
H297 C282 0.961 . S
H298 C282 0.960 . S
C299 C300 1.391 . S
C299 C301 1.394 . S
C299 H315 0.931 . S
C300 C299 1.391 . S
C300 C304 1.376 . S
C301 C299 1.394 . S
C301 C302 1.369 . S
C301 C305 1.531 . S
C302 C301 1.369 . S
C302 C303 1.410 . S
C302 C310 1.503 . S
C303 C302 1.410 . S
C303 C304 1.392 . S
C303 C306 1.511 . S
C304 C300 1.376 . S
C304 C303 1.392 . S
C304 H316 0.929 . S
C305 C301 1.531 . S
C305 H317 0.960 . S
C305 H318 0.962 . S
C305 H319 0.960 . S
C306 C303 1.511 . S
C306 H320 0.961 . S
C306 H321 0.961 . S
C306 H322 0.961 . S
C307 C308 1.370 . S
C307 C309 1.363 . S
C307 H323 0.931 . S
C308 C307 1.370 . S
C308 C312 1.408 . S
C309 C307 1.363 . S
C309 C310 1.370 . S
C309 C313 1.524 . S
C310 C302 1.503 . S
C310 C309 1.370 . S
C310 C311 1.403 . S
C311 C310 1.403 . S
C311 C312 1.404 . S
C311 C314 1.539 . S
C312 C308 1.408 . S
C312 C311 1.404 . S
C312 H324 0.930 . S
C313 C309 1.524 . S
C313 H325 0.956 . S
C313 H326 0.961 . S
C313 H327 0.961 . S
C314 C311 1.539 . S
C314 H328 0.958 . S
C314 H329 0.961 . S
C314 H330 0.960 . S
H315 C299 0.931 . S
H316 C304 0.929 . S
H317 C305 0.960 . S
H318 C305 0.962 . S
H319 C305 0.960 . S
H320 C306 0.961 . S
H321 C306 0.961 . S
H322 C306 0.961 . S
H323 C307 0.931 . S
H324 C312 0.930 . S
H325 C313 0.956 . S
H326 C313 0.961 . S
H327 C313 0.961 . S
H328 C314 0.958 . S
H329 C314 0.961 . S
H330 C314 0.960 . S
C331 C332 1.391 . S
C331 C333 1.394 . S
C331 H347 0.931 . S
C332 C331 1.391 . S
C332 C336 1.376 . S
C333 C331 1.394 . S
C333 C334 1.369 . S
C333 C337 1.531 . S
C334 C333 1.369 . S
C334 C335 1.410 . S
C334 C342 1.503 . S
C335 C334 1.410 . S
C335 C336 1.392 . S
C335 C338 1.511 . S
C336 C332 1.376 . S
C336 C335 1.392 . S
C336 H348 0.929 . S
C337 C333 1.531 . S
C337 H349 0.960 . S
C337 H350 0.962 . S
C337 H351 0.960 . S
C338 C335 1.511 . S
C338 H352 0.961 . S
C338 H353 0.961 . S
C338 H354 0.961 . S
C339 C340 1.370 . S
C339 C341 1.363 . S
C339 H355 0.931 . S
C340 C339 1.370 . S
C340 C344 1.408 . S
C341 C339 1.363 . S
C341 C342 1.370 . S
C341 C345 1.524 . S
C342 C334 1.503 . S
C342 C341 1.370 . S
C342 C343 1.403 . S
C343 C342 1.403 . S
C343 C344 1.404 . S
C343 C346 1.539 . S
C344 C340 1.408 . S
C344 C343 1.404 . S
C344 H356 0.930 . S
C345 C341 1.524 . S
C345 H357 0.956 . S
C345 H358 0.961 . S
C345 H359 0.961 . S
C346 C343 1.539 . S
C346 H360 0.958 . S
C346 H361 0.961 . S
C346 H362 0.960 . S
H347 C331 0.931 . S
H348 C336 0.929 . S
H349 C337 0.960 . S
H350 C337 0.962 . S
H351 C337 0.960 . S
H352 C338 0.961 . S
H353 C338 0.961 . S
H354 C338 0.961 . S
H355 C339 0.931 . S
H356 C344 0.930 . S
H357 C345 0.956 . S
H358 C345 0.961 . S
H359 C345 0.961 . S
H360 C346 0.958 . S
H361 C346 0.961 . S
H362 C346 0.960 . S
C363 C364 1.391 . S
C363 C365 1.394 . S
C363 H379 0.931 . S
C364 C363 1.391 . S
C364 C368 1.376 . S
C365 C363 1.394 . S
C365 C366 1.369 . S
C365 C369 1.531 . S
C366 C365 1.369 . S
C366 C367 1.410 . S
C366 C374 1.503 . S
C367 C366 1.410 . S
C367 C368 1.392 . S
C367 C370 1.511 . S
C368 C364 1.376 . S
C368 C367 1.392 . S
C368 H380 0.929 . S
C369 C365 1.531 . S
C369 H381 0.960 . S
C369 H382 0.962 . S
C369 H383 0.960 . S
C370 C367 1.511 . S
C370 H384 0.961 . S
C370 H385 0.961 . S
C370 H386 0.961 . S
C371 C372 1.370 . S
C371 C373 1.363 . S
C371 H387 0.931 . S
C372 C371 1.370 . S
C372 C376 1.408 . S
C373 C371 1.363 . S
C373 C374 1.370 . S
C373 C377 1.524 . S
C374 C366 1.503 . S
C374 C373 1.370 . S
C374 C375 1.403 . S
C375 C374 1.403 . S
C375 C376 1.404 . S
C375 C378 1.539 . S
C376 C372 1.408 . S
C376 C375 1.404 . S
C376 H388 0.930 . S
C377 C373 1.524 . S
C377 H389 0.956 . S
C377 H390 0.961 . S
C377 H391 0.961 . S
C378 C375 1.539 . S
C378 H392 0.958 . S
C378 H393 0.961 . S
C378 H394 0.960 . S
H379 C363 0.931 . S
H380 C368 0.929 . S
H381 C369 0.960 . S
H382 C369 0.962 . S
H383 C369 0.960 . S
H384 C370 0.961 . S
H385 C370 0.961 . S
H386 C370 0.961 . S
H387 C371 0.931 . S
H388 C376 0.930 . S
H389 C377 0.956 . S
H390 C377 0.961 . S
H391 C377 0.961 . S
H392 C378 0.958 . S
H393 C378 0.961 . S
H394 C378 0.960 . S
C395 C396 1.391 . S
C395 C397 1.394 . S
C395 H411 0.931 . S
C396 C395 1.391 . S
C396 C400 1.376 . S
C397 C395 1.394 . S
C397 C398 1.369 . S
C397 C401 1.531 . S
C398 C397 1.369 . S
C398 C399 1.410 . S
C398 C406 1.503 . S
C399 C398 1.410 . S
C399 C400 1.392 . S
C399 C402 1.511 . S
C400 C396 1.376 . S
C400 C399 1.392 . S
C400 H412 0.929 . S
C401 C397 1.531 . S
C401 H413 0.960 . S
C401 H414 0.962 . S
C401 H415 0.960 . S
C402 C399 1.511 . S
C402 H416 0.961 . S
C402 H417 0.961 . S
C402 H418 0.961 . S
C403 C404 1.370 . S
C403 C405 1.363 . S
C403 H419 0.931 . S
C404 C403 1.370 . S
C404 C408 1.408 . S
C405 C403 1.363 . S
C405 C406 1.370 . S
C405 C409 1.524 . S
C406 C398 1.503 . S
C406 C405 1.370 . S
C406 C407 1.403 . S
C407 C406 1.403 . S
C407 C408 1.404 . S
C407 C410 1.539 . S
C408 C404 1.408 . S
C408 C407 1.404 . S
C408 H420 0.930 . S
C409 C405 1.524 . S
C409 H421 0.956 . S
C409 H422 0.961 . S
C409 H423 0.961 . S
C410 C407 1.539 . S
C410 H424 0.958 . S
C410 H425 0.961 . S
C410 H426 0.960 . S
H411 C395 0.931 . S
H412 C400 0.929 . S
H413 C401 0.960 . S
H414 C401 0.962 . S
H415 C401 0.960 . S
H416 C402 0.961 . S
H417 C402 0.961 . S
H418 C402 0.961 . S
H419 C403 0.931 . S
H420 C408 0.930 . S
H421 C409 0.956 . S
H422 C409 0.961 . S
H423 C409 0.961 . S
H424 C410 0.958 . S
H425 C410 0.961 . S
H426 C410 0.960 . S
C427 C428 1.391 . S
C427 C429 1.394 . S
C427 H443 0.931 . S
C428 C427 1.391 . S
C428 C432 1.376 . S
C429 C427 1.394 . S
C429 C430 1.369 . S
C429 C433 1.531 . S
C430 C429 1.369 . S
C430 C431 1.410 . S
C430 C438 1.503 . S
C431 C430 1.410 . S
C431 C432 1.392 . S
C431 C434 1.511 . S
C432 C428 1.376 . S
C432 C431 1.392 . S
C432 H444 0.929 . S
C433 C429 1.531 . S
C433 H445 0.960 . S
C433 H446 0.962 . S
C433 H447 0.960 . S
C434 C431 1.511 . S
C434 H448 0.961 . S
C434 H449 0.961 . S
C434 H450 0.961 . S
C435 C436 1.370 . S
C435 C437 1.363 . S
C435 H451 0.931 . S
C436 C435 1.370 . S
C436 C440 1.408 . S
C437 C435 1.363 . S
C437 C438 1.370 . S
C437 C441 1.524 . S
C438 C430 1.503 . S
C438 C437 1.370 . S
C438 C439 1.403 . S
C439 C438 1.403 . S
C439 C440 1.404 . S
C439 C442 1.539 . S
C440 C436 1.408 . S
C440 C439 1.404 . S
C440 H452 0.930 . S
C441 C437 1.524 . S
C441 H453 0.956 . S
C441 H454 0.961 . S
C441 H455 0.961 . S
C442 C439 1.539 . S
C442 H456 0.958 . S
C442 H457 0.961 . S
C442 H458 0.960 . S
H443 C427 0.931 . S
H444 C432 0.929 . S
H445 C433 0.960 . S
H446 C433 0.962 . S
H447 C433 0.960 . S
H448 C434 0.961 . S
H449 C434 0.961 . S
H450 C434 0.961 . S
H451 C435 0.931 . S
H452 C440 0.930 . S
H453 C441 0.956 . S
H454 C441 0.961 . S
H455 C441 0.961 . S
H456 C442 0.958 . S
H457 C442 0.961 . S
H458 C442 0.960 . S
C459 C460 1.391 . S
C459 C461 1.394 . S
C459 H475 0.931 . S
C460 C459 1.391 . S
C460 C464 1.376 . S
C461 C459 1.394 . S
C461 C462 1.369 1_554 S
C461 C465 1.531 . S
C462 C461 1.369 1_556 S
C462 C463 1.410 . S
C462 C470 1.503 . S
C463 C462 1.410 . S
C463 C464 1.392 1_556 S
C463 C466 1.511 . S
C464 C460 1.376 . S
C464 C463 1.392 1_554 S
C464 H476 0.929 . S
C465 C461 1.531 . S
C465 H477 0.969 . S
C465 H478 0.962 . S
C465 H479 0.960 . S
C466 C463 1.511 . S
C466 H480 0.961 . S
C466 H481 0.961 . S
C466 H482 0.961 . S
C467 C468 1.370 . S
C467 C469 1.363 . S
C467 H483 0.931 . S
C468 C467 1.370 . S
C468 C472 1.408 . S
C469 C467 1.363 . S
C469 C470 1.370 . S
C469 C473 1.524 1_556 S
C470 C462 1.503 . S
C470 C469 1.370 . S
C470 C471 1.403 . S
C471 C470 1.403 . S
C471 C472 1.404 . S
C471 C474 1.539 . S
C472 C468 1.408 . S
C472 C471 1.404 . S
C472 H484 0.930 . S
C473 C469 1.524 1_554 S
C473 H485 0.956 . S
C473 H486 0.961 . S
C473 H487 0.961 . S
C474 C471 1.539 . S
C474 H488 0.958 . S
C474 H489 0.961 . S
C474 H490 0.960 . S
H475 C459 0.931 . S
H476 C464 0.929 . S
H477 C465 0.969 . S
H478 C465 0.962 . S
H479 C465 0.960 . S
H480 C466 0.961 . S
H481 C466 0.961 . S
H482 C466 0.961 . S
H483 C467 0.931 . S
H484 C472 0.930 . S
H485 C473 0.956 . S
H486 C473 0.961 . S
H487 C473 0.961 . S
H488 C474 0.958 . S
H489 C474 0.961 . S
H490 C474 0.960 . S
C491 C492 1.391 1_556 S
C491 C493 1.394 . S
C491 H507 0.931 . S
C492 C491 1.391 1_554 S
C492 C496 1.376 . S
C493 C491 1.394 . S
C493 C494 1.369 . S
C493 C497 1.531 . S
C494 C493 1.369 . S
C494 C495 1.410 . S
C494 C502 1.503 . S
C495 C494 1.410 . S
C495 C496 1.392 1_556 S
C495 C498 1.511 1_556 S
C496 C492 1.376 . S
C496 C495 1.392 1_554 S
C496 H508 0.929 . S
C497 C493 1.531 . S
C497 H509 0.960 . S
C497 H510 0.962 . S
C497 H511 0.960 . S
C498 C495 1.511 1_554 S
C498 H512 0.961 . S
C498 H513 0.961 1_554 S
C498 H514 0.961 . S
C499 C500 1.370 . S
C499 C501 1.363 . S
C499 H515 0.931 . S
C500 C499 1.370 . S
C500 C504 1.408 . S
C501 C499 1.363 . S
C501 C502 1.370 . S
C501 C505 1.524 . S
C502 C494 1.503 . S
C502 C501 1.370 . S
C502 C503 1.403 . S
C503 C502 1.403 . S
C503 C504 1.404 . S
C503 C506 1.539 . S
C504 C500 1.408 . S
C504 C503 1.404 . S
C504 H516 0.930 . S
C505 C501 1.524 . S
C505 H517 0.956 . S
C505 H518 0.961 . S
C505 H519 0.961 . S
C506 C503 1.539 . S
C506 H520 0.958 . S
C506 H521 0.961 . S
C506 H522 0.960 . S
H507 C491 0.931 . S
H508 C496 0.929 . S
H509 C497 0.960 . S
H510 C497 0.962 . S
H511 C497 0.960 . S
H512 C498 0.961 . S
H513 C498 0.961 1_556 S
H514 C498 0.961 . S
H515 C499 0.931 . S
H516 C504 0.930 . S
H517 C505 0.956 . S
H518 C505 0.961 . S
H519 C505 0.961 . S
H520 C506 0.958 . S
H521 C506 0.961 . S
H522 C506 0.960 . S
C523 C524 1.391 1_556 S
C523 C525 1.394 . S
C523 H539 0.931 . S
C524 C523 1.391 1_554 S
C524 C528 1.376 . S
C525 C523 1.394 . S
C525 C526 1.369 . S
C525 C529 1.531 . S
C526 C525 1.369 . S
C526 C527 1.410 1_556 S
C526 C534 1.503 . S
C527 C526 1.410 1_554 S
C527 C528 1.392 . S
C527 C530 1.511 . S
C528 C524 1.376 . S
C528 C527 1.392 . S
C528 H540 0.929 . S
C529 C525 1.531 . S
C529 H541 0.960 . S
C529 H542 0.962 . S
C529 H543 0.960 . S
C530 C527 1.511 . S
C530 H544 0.961 . S
C530 H545 0.961 1_554 S
C530 H546 0.961 . S
C531 C532 1.370 . S
C531 C533 1.363 . S
C531 H547 0.931 . S
C532 C531 1.370 . S
C532 C536 1.408 . S
C533 C531 1.363 . S
C533 C534 1.370 . S
C533 C537 1.524 . S
C534 C526 1.503 . S
C534 C533 1.370 . S
C534 C535 1.403 . S
C535 C534 1.403 . S
C535 C536 1.404 . S
C535 C538 1.539 . S
C536 C532 1.408 . S
C536 C535 1.404 . S
C536 H548 0.930 . S
C537 C533 1.524 . S
C537 H549 0.956 . S
C537 H550 0.961 . S
C537 H551 0.961 . S
C538 C535 1.539 . S
C538 H552 0.958 . S
C538 H553 0.961 . S
C538 H554 0.960 . S
H539 C523 0.931 . S
H540 C528 0.929 . S
H541 C529 0.960 . S
H542 C529 0.962 . S
H543 C529 0.960 . S
H544 C530 0.961 . S
H545 C530 0.961 1_556 S
H546 C530 0.961 . S
H547 C531 0.931 . S
H548 C536 0.930 . S
H549 C537 0.956 . S
H550 C537 0.961 . S
H551 C537 0.961 . S
H552 C538 0.958 . S
H553 C538 0.961 . S
H554 C538 0.960 . S
C555 C556 1.391 . S
C555 C557 1.394 . S
C555 H571 0.931 . S
C556 C555 1.391 . S
C556 C560 1.376 . S
C557 C555 1.394 . S
C557 C558 1.369 . S
C557 C561 1.531 . S
C558 C557 1.369 . S
C558 C559 1.410 . S
C558 C566 1.503 . S
C559 C558 1.410 . S
C559 C560 1.392 . S
C559 C562 1.511 . S
C560 C556 1.376 . S
C560 C559 1.392 . S
C560 H572 0.929 . S
C561 C557 1.531 . S
C561 H573 0.960 . S
C561 H574 0.962 . S
C561 H575 0.960 . S
C562 C559 1.511 . S
C562 H576 0.961 . S
C562 H577 0.961 . S
C562 H578 0.961 . S
C563 C564 1.370 . S
C563 C565 1.363 . S
C563 H579 0.931 . S
C564 C563 1.370 . S
C564 C568 1.408 . S
C565 C563 1.363 . S
C565 C566 1.370 . S
C565 C569 1.524 . S
C566 C558 1.503 . S
C566 C565 1.370 . S
C566 C567 1.403 . S
C567 C566 1.403 . S
C567 C568 1.404 . S
C567 C570 1.539 . S
C568 C564 1.408 . S
C568 C567 1.404 . S
C568 H580 0.930 . S
C569 C565 1.524 . S
C569 H581 0.956 . S
C569 H582 0.961 . S
C569 H583 0.961 . S
C570 C567 1.539 . S
C570 H584 0.958 . S
C570 H585 0.961 . S
C570 H586 0.960 . S
H571 C555 0.931 . S
H572 C560 0.929 . S
H573 C561 0.960 . S
H574 C561 0.962 . S
H575 C561 0.960 . S
H576 C562 0.961 . S
H577 C562 0.961 . S
H578 C562 0.961 . S
H579 C563 0.931 . S
H580 C568 0.930 . S
H581 C569 0.956 . S
H582 C569 0.961 . S
H583 C569 0.961 . S
H584 C570 0.958 . S
H585 C570 0.961 . S
H586 C570 0.960 . S
C587 C588 1.391 . S
C587 C589 1.394 . S
C587 H603 0.931 . S
C588 C587 1.391 . S
C588 C592 1.376 . S
C589 C587 1.394 . S
C589 C590 1.369 . S
C589 C593 1.531 . S
C590 C589 1.369 . S
C590 C591 1.410 . S
C590 C598 1.503 . S
C591 C590 1.410 . S
C591 C592 1.392 . S
C591 C594 1.511 . S
C592 C588 1.376 . S
C592 C591 1.392 . S
C592 H604 0.929 . S
C593 C589 1.531 . S
C593 H605 0.960 . S
C593 H606 0.962 . S
C593 H607 0.960 . S
C594 C591 1.511 . S
C594 H608 0.961 . S
C594 H609 0.961 . S
C594 H610 0.961 . S
C595 C596 1.370 . S
C595 C597 1.363 . S
C595 H611 0.931 . S
C596 C595 1.370 . S
C596 C600 1.408 . S
C597 C595 1.363 . S
C597 C598 1.370 . S
C597 C601 1.524 . S
C598 C590 1.503 . S
C598 C597 1.370 . S
C598 C599 1.403 . S
C599 C598 1.403 . S
C599 C600 1.404 . S
C599 C602 1.539 . S
C600 C596 1.408 . S
C600 C599 1.404 . S
C600 H612 0.930 . S
C601 C597 1.524 . S
C601 H613 0.956 . S
C601 H614 0.961 . S
C601 H615 0.961 . S
C602 C599 1.539 . S
C602 H616 0.958 . S
C602 H617 0.961 . S
C602 H618 0.960 . S
H603 C587 0.931 . S
H604 C592 0.929 . S
H605 C593 0.960 . S
H606 C593 0.962 . S
H607 C593 0.960 . S
H608 C594 0.961 . S
H609 C594 0.961 . S
H610 C594 0.961 . S
H611 C595 0.931 . S
H612 C600 0.930 . S
H613 C601 0.956 . S
H614 C601 0.961 . S
H615 C601 0.961 . S
H616 C602 0.958 . S
H617 C602 0.961 . S
H618 C602 0.960 . S
C619 C620 1.391 . S
C619 C621 1.394 1_554 S
C619 H635 0.931 . S
C620 C619 1.391 . S
C620 C624 1.376 . S
C621 C619 1.394 1_556 S
C621 C622 1.369 . S
C621 C625 1.531 . S
C622 C621 1.369 . S
C622 C623 1.410 1_556 S
C622 C630 1.503 . S
C623 C622 1.410 1_554 S
C623 C624 1.392 . S
C623 C626 1.511 1_554 S
C624 C620 1.376 . S
C624 C623 1.392 . S
C624 H636 0.929 . S
C625 C621 1.531 . S
C625 H637 0.960 . S
C625 H638 0.962 . S
C625 H639 0.960 . S
C626 C623 1.511 1_556 S
C626 H640 0.961 1_556 S
C626 H641 0.961 . S
C626 H642 0.961 . S
C627 C628 1.370 . S
C627 C629 1.363 . S
C627 H643 0.931 . S
C628 C627 1.370 . S
C628 C632 1.408 . S
C629 C627 1.363 . S
C629 C630 1.370 . S
C629 C633 1.524 1_556 S
C630 C622 1.503 . S
C630 C629 1.370 . S
C630 C631 1.403 . S
C631 C630 1.403 . S
C631 C632 1.404 . S
C631 C634 1.539 . S
C632 C628 1.408 . S
C632 C631 1.404 . S
C632 H644 0.930 . S
C633 C629 1.524 1_554 S
C633 H645 0.956 . S
C633 H646 0.961 . S
C633 H647 0.961 . S
C634 C631 1.539 . S
C634 H648 0.958 . S
C634 H649 0.961 . S
C634 H650 0.960 . S
H635 C619 0.931 . S
H636 C624 0.929 . S
H637 C625 0.960 . S
H638 C625 0.962 . S
H639 C625 0.960 . S
H640 C626 0.961 1_554 S
H641 C626 0.961 . S
H642 C626 0.961 . S
H643 C627 0.931 . S
H644 C632 0.930 . S
H645 C633 0.956 . S
H646 C633 0.961 . S
H647 C633 0.961 . S
H648 C634 0.958 . S
H649 C634 0.961 . S
H650 C634 0.960 . S
C651 C652 1.391 1_556 S
C651 C653 1.394 . S
C651 H667 0.931 . S
C652 C651 1.391 1_554 S
C652 C656 1.376 . S
C653 C651 1.394 . S
C653 C654 1.369 . S
C653 C657 1.531 . S
C654 C653 1.369 . S
C654 C655 1.410 1_556 S
C654 C662 1.503 . S
C655 C654 1.410 1_554 S
C655 C656 1.392 . S
C655 C658 1.511 . S
C656 C652 1.376 . S
C656 C655 1.392 . S
C656 H668 0.929 . S
C657 C653 1.531 . S
C657 H669 0.960 . S
C657 H670 0.962 . S
C657 H671 0.960 . S
C658 C655 1.511 . S
C658 H672 0.961 . S
C658 H673 0.961 1_554 S
C658 H674 0.961 . S
C659 C660 1.370 . S
C659 C661 1.363 . S
C659 H675 0.931 . S
C660 C659 1.370 . S
C660 C664 1.408 . S
C661 C659 1.363 . S
C661 C662 1.370 . S
C661 C665 1.524 . S
C662 C654 1.503 . S
C662 C661 1.370 . S
C662 C663 1.403 . S
C663 C662 1.403 . S
C663 C664 1.404 . S
C663 C666 1.539 . S
C664 C660 1.408 . S
C664 C663 1.404 . S
C664 H676 0.930 . S
C665 C661 1.524 . S
C665 H677 0.956 . S
C665 H678 0.961 . S
C665 H679 0.961 . S
C666 C663 1.539 . S
C666 H680 0.958 . S
C666 H681 0.961 . S
C666 H682 0.960 . S
H667 C651 0.931 . S
H668 C656 0.929 . S
H669 C657 0.960 . S
H670 C657 0.962 . S
H671 C657 0.960 . S
H672 C658 0.961 . S
H673 C658 0.961 1_556 S
H674 C658 0.961 . S
H675 C659 0.931 . S
H676 C664 0.930 . S
H677 C665 0.956 . S
H678 C665 0.961 . S
H679 C665 0.961 . S
H680 C666 0.958 . S
H681 C666 0.961 . S
H682 C666 0.960 . S
C683 C684 1.391 . S
C683 C685 1.394 . S
C683 H699 0.931 . S
C684 C683 1.391 . S
C684 C688 1.376 . S
C685 C683 1.394 . S
C685 C686 1.369 . S
C685 C689 1.531 . S
C686 C685 1.369 . S
C686 C687 1.410 . S
C686 C694 1.503 . S
C687 C686 1.410 . S
C687 C688 1.392 . S
C687 C690 1.511 . S
C688 C684 1.376 . S
C688 C687 1.392 . S
C688 H700 0.929 1_556 S
C689 C685 1.531 . S
C689 H701 0.960 . S
C689 H702 0.962 . S
C689 H703 0.960 . S
C690 C687 1.511 . S
C690 H704 0.961 . S
C690 H705 0.961 . S
C690 H706 0.961 . S
C691 C692 1.370 . S
C691 C693 1.363 . S
C691 H707 0.931 . S
C692 C691 1.370 . S
C692 C696 1.408 . S
C693 C691 1.363 . S
C693 C694 1.370 . S
C693 C697 1.524 . S
C694 C686 1.503 . S
C694 C693 1.370 . S
C694 C695 1.403 . S
C695 C694 1.403 . S
C695 C696 1.404 . S
C695 C698 1.539 . S
C696 C692 1.408 . S
C696 C695 1.404 . S
C696 H708 0.930 . S
C697 C693 1.524 . S
C697 H709 0.956 . S
C697 H710 0.961 . S
C697 H711 0.961 . S
C698 C695 1.539 . S
C698 H712 0.958 . S
C698 H713 0.961 . S
C698 H714 0.960 . S
H699 C683 0.931 . S
H700 C688 0.929 1_554 S
H701 C689 0.960 . S
H702 C689 0.962 . S
H703 C689 0.960 . S
H704 C690 0.961 . S
H705 C690 0.961 . S
H706 C690 0.961 . S
H707 C691 0.931 . S
H708 C696 0.930 . S
H709 C697 0.956 . S
H710 C697 0.961 . S
H711 C697 0.961 . S
H712 C698 0.958 . S
H713 C698 0.961 . S
H714 C698 0.960 . S
C715 C716 1.391 . S
C715 C717 1.394 . S
C715 H731 0.931 . S
C716 C715 1.391 . S
C716 C720 1.376 . S
C717 C715 1.394 . S
C717 C718 1.369 . S
C717 C721 1.531 . S
C718 C717 1.369 . S
C718 C719 1.410 . S
C718 C726 1.503 . S
C719 C718 1.410 . S
C719 C720 1.392 . S
C719 C722 1.511 . S
C720 C716 1.376 . S
C720 C719 1.392 . S
C720 H732 0.929 . S
C721 C717 1.531 . S
C721 H733 0.960 . S
C721 H734 0.962 . S
C721 H735 0.960 . S
C722 C719 1.511 . S
C722 H736 0.961 . S
C722 H737 0.961 . S
C722 H738 0.961 . S
C723 C724 1.370 . S
C723 C725 1.363 . S
C723 H739 0.931 . S
C724 C723 1.370 . S
C724 C728 1.408 . S
C725 C723 1.363 . S
C725 C726 1.370 . S
C725 C729 1.524 . S
C726 C718 1.503 . S
C726 C725 1.370 . S
C726 C727 1.403 . S
C727 C726 1.403 . S
C727 C728 1.404 . S
C727 C730 1.539 . S
C728 C724 1.408 . S
C728 C727 1.404 . S
C728 H740 0.930 . S
C729 C725 1.524 . S
C729 H741 0.956 . S
C729 H742 0.961 . S
C729 H743 0.961 . S
C730 C727 1.539 . S
C730 H744 0.958 . S
C730 H745 0.961 . S
C730 H746 0.960 . S
H731 C715 0.931 . S
H732 C720 0.929 . S
H733 C721 0.960 . S
H734 C721 0.962 . S
H735 C721 0.960 . S
H736 C722 0.961 . S
H737 C722 0.961 . S
H738 C722 0.961 . S
H739 C723 0.931 . S
H740 C728 0.930 . S
H741 C729 0.956 . S
H742 C729 0.961 . S
H743 C729 0.961 . S
H744 C730 0.958 . S
H745 C730 0.961 . S
H746 C730 0.960 . S
C747 C748 1.391 . S
C747 C749 1.394 . S
C747 H763 0.931 . S
C748 C747 1.391 . S
C748 C752 1.376 . S
C749 C747 1.394 . S
C749 C750 1.369 . S
C749 C753 1.531 . S
C750 C749 1.369 . S
C750 C751 1.410 . S
C750 C758 1.503 . S
C751 C750 1.410 . S
C751 C752 1.392 . S
C751 C754 1.511 . S
C752 C748 1.376 . S
C752 C751 1.392 . S
C752 H764 0.929 . S
C753 C749 1.531 . S
C753 H765 0.960 . S
C753 H766 0.962 . S
C753 H767 0.960 . S
C754 C751 1.511 . S
C754 H768 0.961 . S
C754 H769 0.961 . S
C754 H770 0.961 . S
C755 C756 1.370 . S
C755 C757 1.363 . S
C755 H771 0.931 . S
C756 C755 1.370 . S
C756 C760 1.408 . S
C757 C755 1.363 . S
C757 C758 1.370 . S
C757 C761 1.524 . S
C758 C750 1.503 . S
C758 C757 1.370 . S
C758 C759 1.403 . S
C759 C758 1.403 . S
C759 C760 1.404 . S
C759 C762 1.539 . S
C760 C756 1.408 . S
C760 C759 1.404 . S
C760 H772 0.930 . S
C761 C757 1.524 . S
C761 H773 0.956 . S
C761 H774 0.961 . S
C761 H775 0.961 . S
C762 C759 1.539 . S
C762 H776 0.958 . S
C762 H777 0.961 . S
C762 H778 0.960 . S
H763 C747 0.931 . S
H764 C752 0.929 . S
H765 C753 0.960 . S
H766 C753 0.962 . S
H767 C753 0.960 . S
H768 C754 0.961 . S
H769 C754 0.961 . S
H770 C754 0.961 . S
H771 C755 0.931 . S
H772 C760 0.930 . S
H773 C761 0.956 . S
H774 C761 0.961 . S
H775 C761 0.961 . S
H776 C762 0.958 . S
H777 C762 0.961 . S
H778 C762 0.960 . S
C779 C780 1.391 . S
C779 C781 1.394 . S
C779 H795 0.931 . S
C780 C779 1.391 . S
C780 C784 1.376 . S
C781 C779 1.394 . S
C781 C782 1.369 . S
C781 C785 1.531 . S
C782 C781 1.369 . S
C782 C783 1.410 . S
C782 C790 1.503 . S
C783 C782 1.410 . S
C783 C784 1.392 . S
C783 C786 1.511 . S
C784 C780 1.376 . S
C784 C783 1.392 . S
C784 H796 0.929 . S
C785 C781 1.531 . S
C785 H797 0.960 . S
C785 H798 0.962 . S
C785 H799 0.960 . S
C786 C783 1.511 . S
C786 H800 0.961 . S
C786 H801 0.961 . S
C786 H802 0.961 . S
C787 C788 1.370 . S
C787 C789 1.363 . S
C787 H803 0.931 . S
C788 C787 1.370 . S
C788 C792 1.408 . S
C789 C787 1.363 . S
C789 C790 1.370 . S
C789 C793 1.524 . S
C790 C782 1.503 . S
C790 C789 1.370 . S
C790 C791 1.403 . S
C791 C790 1.403 . S
C791 C792 1.404 . S
C791 C794 1.539 . S
C792 C788 1.408 . S
C792 C791 1.404 . S
C792 H804 0.930 . S
C793 C789 1.524 . S
C793 H805 0.956 . S
C793 H806 0.961 . S
C793 H807 0.961 . S
C794 C791 1.539 . S
C794 H808 0.958 . S
C794 H809 0.961 . S
C794 H810 0.960 . S
H795 C779 0.931 . S
H796 C784 0.929 . S
H797 C785 0.960 . S
H798 C785 0.962 . S
H799 C785 0.960 . S
H800 C786 0.961 . S
H801 C786 0.961 . S
H802 C786 0.961 . S
H803 C787 0.931 . S
H804 C792 0.930 . S
H805 C793 0.956 . S
H806 C793 0.961 . S
H807 C793 0.961 . S
H808 C794 0.958 . S
H809 C794 0.961 . S
H810 C794 0.960 . S
C811 C812 1.391 . S
C811 C813 1.394 . S
C811 H827 0.931 . S
C812 C811 1.391 . S
C812 C816 1.376 . S
C813 C811 1.394 . S
C813 C814 1.369 . S
C813 C817 1.531 . S
C814 C813 1.369 . S
C814 C815 1.410 . S
C814 C822 1.503 . S
C815 C814 1.410 . S
C815 C816 1.392 . S
C815 C818 1.511 . S
C816 C812 1.376 . S
C816 C815 1.392 . S
C816 H828 0.929 . S
C817 C813 1.531 . S
C817 H829 0.960 . S
C817 H830 0.962 . S
C817 H831 0.960 . S
C818 C815 1.511 . S
C818 H832 0.961 . S
C818 H833 0.961 . S
C818 H834 0.961 . S
C819 C820 1.370 . S
C819 C821 1.363 . S
C819 H835 0.931 . S
C820 C819 1.370 . S
C820 C824 1.408 . S
C821 C819 1.363 . S
C821 C822 1.370 . S
C821 C825 1.524 . S
C822 C814 1.503 . S
C822 C821 1.370 . S
C822 C823 1.403 . S
C823 C822 1.403 . S
C823 C824 1.404 . S
C823 C826 1.539 . S
C824 C820 1.408 . S
C824 C823 1.404 . S
C824 H836 0.930 . S
C825 C821 1.524 . S
C825 H837 0.956 . S
C825 H838 0.961 . S
C825 H839 0.961 . S
C826 C823 1.539 . S
C826 H840 0.958 . S
C826 H841 0.961 . S
C826 H842 0.960 . S
H827 C811 0.931 . S
H828 C816 0.929 . S
H829 C817 0.960 . S
H830 C817 0.962 . S
H831 C817 0.960 . S
H832 C818 0.961 . S
H833 C818 0.961 . S
H834 C818 0.961 . S
H835 C819 0.931 . S
H836 C824 0.930 . S
H837 C825 0.956 . S
H838 C825 0.961 . S
H839 C825 0.961 . S
H840 C826 0.958 . S
H841 C826 0.961 . S
H842 C826 0.960 . S
C843 C844 1.391 . S
C843 C845 1.394 . S
C843 H859 0.931 . S
C844 C843 1.391 . S
C844 C848 1.376 . S
C845 C843 1.394 . S
C845 C846 1.369 . S
C845 C849 1.531 . S
C846 C845 1.369 . S
C846 C847 1.410 . S
C846 C854 1.503 . S
C847 C846 1.410 . S
C847 C848 1.392 . S
C847 C850 1.511 . S
C848 C844 1.376 . S
C848 C847 1.392 . S
C848 H860 0.929 . S
C849 C845 1.531 . S
C849 H861 0.960 . S
C849 H862 0.962 . S
C849 H863 0.960 . S
C850 C847 1.511 . S
C850 H864 0.961 . S
C850 H865 0.961 . S
C850 H866 0.961 . S
C851 C852 1.370 . S
C851 C853 1.363 . S
C851 H867 0.931 . S
C852 C851 1.370 . S
C852 C856 1.408 . S
C853 C851 1.363 . S
C853 C854 1.370 . S
C853 C857 1.524 . S
C854 C846 1.503 . S
C854 C853 1.370 . S
C854 C855 1.403 . S
C855 C854 1.403 . S
C855 C856 1.404 . S
C855 C858 1.539 . S
C856 C852 1.408 . S
C856 C855 1.404 . S
C856 H868 0.930 . S
C857 C853 1.524 . S
C857 H869 0.956 . S
C857 H870 0.961 . S
C857 H871 0.961 . S
C858 C855 1.539 . S
C858 H872 0.958 . S
C858 H873 0.961 . S
C858 H874 0.960 . S
H859 C843 0.931 . S
H860 C848 0.929 . S
H861 C849 0.960 . S
H862 C849 0.962 . S
H863 C849 0.960 . S
H864 C850 0.961 . S
H865 C850 0.961 . S
H866 C850 0.961 . S
H867 C851 0.931 . S
H868 C856 0.930 . S
H869 C857 0.956 . S
H870 C857 0.961 . S
H871 C857 0.961 . S
H872 C858 0.958 . S
H873 C858 0.961 . S
H874 C858 0.960 . S
C875 C876 1.391 . S
C875 C877 1.394 . S
C875 H891 0.931 . S
C876 C875 1.391 . S
C876 C880 1.376 . S
C877 C875 1.394 . S
C877 C878 1.369 . S
C877 C881 1.531 . S
C878 C877 1.369 . S
C878 C879 1.410 . S
C878 C886 1.503 . S
C879 C878 1.410 . S
C879 C880 1.392 . S
C879 C882 1.511 . S
C880 C876 1.376 . S
C880 C879 1.392 . S
C880 H892 0.929 . S
C881 C877 1.531 . S
C881 H893 0.960 . S
C881 H894 0.962 . S
C881 H895 0.960 . S
C882 C879 1.511 . S
C882 H896 0.961 . S
C882 H897 0.961 . S
C882 H898 0.961 . S
C883 C884 1.370 . S
C883 C885 1.363 . S
C883 H899 0.931 . S
C884 C883 1.370 . S
C884 C888 1.408 . S
C885 C883 1.363 . S
C885 C886 1.370 . S
C885 C889 1.524 . S
C886 C878 1.503 . S
C886 C885 1.370 . S
C886 C887 1.403 . S
C887 C886 1.403 . S
C887 C888 1.404 . S
C887 C890 1.539 . S
C888 C884 1.408 . S
C888 C887 1.404 . S
C888 H900 0.930 . S
C889 C885 1.524 . S
C889 H901 0.956 . S
C889 H902 0.961 . S
C889 H903 0.961 . S
C890 C887 1.539 . S
C890 H904 0.958 . S
C890 H905 0.961 . S
C890 H906 0.960 . S
H891 C875 0.931 . S
H892 C880 0.929 . S
H893 C881 0.960 . S
H894 C881 0.962 . S
H895 C881 0.960 . S
H896 C882 0.961 . S
H897 C882 0.961 . S
H898 C882 0.961 . S
H899 C883 0.931 . S
H900 C888 0.930 . S
H901 C889 0.956 . S
H902 C889 0.961 . S
H903 C889 0.961 . S
H904 C890 0.958 . S
H905 C890 0.961 . S
H906 C890 0.960 . S
C907 C908 1.391 . S
C907 C909 1.394 . S
C907 H923 0.931 . S
C908 C907 1.391 . S
C908 C912 1.376 . S
C909 C907 1.394 . S
C909 C910 1.369 . S
C909 C913 1.531 . S
C910 C909 1.369 . S
C910 C911 1.410 . S
C910 C918 1.503 . S
C911 C910 1.410 . S
C911 C912 1.392 . S
C911 C914 1.511 . S
C912 C908 1.376 . S
C912 C911 1.392 . S
C912 H924 0.929 . S
C913 C909 1.531 . S
C913 H925 0.960 . S
C913 H926 0.962 . S
C913 H927 0.960 . S
C914 C911 1.511 . S
C914 H928 0.961 . S
C914 H929 0.961 . S
C914 H930 0.961 . S
C915 C916 1.370 . S
C915 C917 1.363 . S
C915 H931 0.931 . S
C916 C915 1.370 . S
C916 C920 1.408 . S
C917 C915 1.363 . S
C917 C918 1.370 . S
C917 C921 1.524 . S
C918 C910 1.503 . S
C918 C917 1.370 . S
C918 C919 1.403 . S
C919 C918 1.403 . S
C919 C920 1.404 . S
C919 C922 1.539 . S
C920 C916 1.408 . S
C920 C919 1.404 . S
C920 H932 0.930 . S
C921 C917 1.524 . S
C921 H933 0.956 . S
C921 H934 0.961 . S
C921 H935 0.961 . S
C922 C919 1.539 . S
C922 H936 0.958 . S
C922 H937 0.961 . S
C922 H938 0.960 . S
H923 C907 0.931 . S
H924 C912 0.929 . S
H925 C913 0.960 . S
H926 C913 0.962 . S
H927 C913 0.960 . S
H928 C914 0.961 . S
H929 C914 0.961 . S
H930 C914 0.961 . S
H931 C915 0.931 . S
H932 C920 0.930 . S
H933 C921 0.956 . S
H934 C921 0.961 . S
H935 C921 0.961 . S
H936 C922 0.958 . S
H937 C922 0.961 . S
H938 C922 0.960 . S
C172 C5 1.751 . S
C180 C89 1.671 . S
C204 C16 1.468 . S
C212 C136 1.480 . S
C244 C140 1.709 . S
C236 C36 1.776 . S
C276 C105 1.421 . S
C268 C42 1.406 . S
C300 C55 1.665 . S
C308 C120 1.617 . S
C340 C142 0.997 . S
C332 C66 0.961 . S
C372 C111 1.303 . S
C364 C31 1.359 . S
C396 C40 1.347 . S
C404 C151 1.332 . S
C436 C80 1.309 . S
C428 C53 1.363 1_556 S
C460 C68 1.355 . S
C468 C109 1.311 . S
C492 C10 1.880 . S
C500 C167 1.831 . S
C532 C78 1.453 . S
C524 C14 1.440 . S
C564 C96 1.752 . S
C556 C49 1.769 . S
C596 C110 1.542 . S
C588 C62 1.571 1_556 S
C628 C164 1.654 . S
C620 C70 1.687 . S
C660 C79 1.464 . S
C652 C1 1.517 . S
C692 C127 1.664 . S
C684 C23 1.726 1_556 S
C716 C29 0.926 . S
C724 C150 0.888 . S
C756 C119 1.362 . S
C748 C75 1.428 . S
C788 C158 1.267 . S
C780 C3 1.319 . S
C820 C88 1.235 . S
C812 C18 1.296 . S
C852 C133 1.383 . S
C844 C27 1.424 . S
C876 C44 1.772 . S
C884 C141 1.760 . S
C908 C57 1.359 . S
C916 C102 1.386 . S
