# Generated by pormake.
# Topology gar, (4,6)-cn, num edge types: 1
# Building blocks:
#     Node 0, Type 0, BuildingBlock: TATPOV_clean_sbu_0, # of connection points: 4
#     Node 1, Type 0, BuildingBlock: TATPOV_clean_sbu_0, # of connection points: 4
#     Node 2, Type 0, BuildingBlock: TATPOV_clean_sbu_0, # of connection points: 4
#     Node 3, Type 0, BuildingBlock: TATPOV_clean_sbu_0, # of connection points: 4
#     Node 4, Type 0, BuildingBlock: TATPOV_clean_sbu_0, # of connection points: 4
#     Node 5, Type 0, BuildingBlock: TATPOV_clean_sbu_0, # of connection points: 4
#     Node 6, Type 0, BuildingBlock: TATPOV_clean_sbu_0, # of connection points: 4
#     Node 7, Type 0, BuildingBlock: TATPOV_clean_sbu_0, # of connection points: 4
#     Node 8, Type 0, BuildingBlock: TATPOV_clean_sbu_0, # of connection points: 4
#     Node 9, Type 0, BuildingBlock: TATPOV_clean_sbu_0, # of connection points: 4
#     Node 10, Type 0, BuildingBlock: TATPOV_clean_sbu_0, # of connection points: 4
#     Node 11, Type 0, BuildingBlock: TATPOV_clean_sbu_0, # of connection points: 4
#     Node 12, Type 0, BuildingBlock: TATPOV_clean_sbu_0, # of connection points: 4
#     Node 13, Type 0, BuildingBlock: TATPOV_clean_sbu_0, # of connection points: 4
#     Node 14, Type 0, BuildingBlock: TATPOV_clean_sbu_0, # of connection points: 4
#     Node 15, Type 0, BuildingBlock: TATPOV_clean_sbu_0, # of connection points: 4
#     Node 16, Type 0, BuildingBlock: TATPOV_clean_sbu_0, # of connection points: 4
#     Node 17, Type 0, BuildingBlock: TATPOV_clean_sbu_0, # of connection points: 4
#     Node 18, Type 0, BuildingBlock: TATPOV_clean_sbu_0, # of connection points: 4
#     Node 19, Type 0, BuildingBlock: TATPOV_clean_sbu_0, # of connection points: 4
#     Node 20, Type 0, BuildingBlock: TATPOV_clean_sbu_0, # of connection points: 4
#     Node 21, Type 0, BuildingBlock: TATPOV_clean_sbu_0, # of connection points: 4
#     Node 22, Type 0, BuildingBlock: TATPOV_clean_sbu_0, # of connection points: 4
#     Node 23, Type 0, BuildingBlock: TATPOV_clean_sbu_0, # of connection points: 4
#     Node 24, Type 1, BuildingBlock: HISSIN_clean_sbu_0, # of connection points: 6
#     Node 25, Type 1, BuildingBlock: HISSIN_clean_sbu_0, # of connection points: 6
#     Node 26, Type 1, BuildingBlock: HISSIN_clean_sbu_0, # of connection points: 6
#     Node 27, Type 1, BuildingBlock: HISSIN_clean_sbu_0, # of connection points: 6
#     Node 28, Type 1, BuildingBlock: HISSIN_clean_sbu_0, # of connection points: 6
#     Node 29, Type 1, BuildingBlock: HISSIN_clean_sbu_0, # of connection points: 6
#     Node 30, Type 1, BuildingBlock: HISSIN_clean_sbu_0, # of connection points: 6
#     Node 31, Type 1, BuildingBlock: HISSIN_clean_sbu_0, # of connection points: 6
#     Node 32, Type 1, BuildingBlock: HISSIN_clean_sbu_0, # of connection points: 6
#     Node 33, Type 1, BuildingBlock: HISSIN_clean_sbu_0, # of connection points: 6
#     Node 34, Type 1, BuildingBlock: HISSIN_clean_sbu_0, # of connection points: 6
#     Node 35, Type 1, BuildingBlock: HISSIN_clean_sbu_0, # of connection points: 6
#     Node 36, Type 1, BuildingBlock: HISSIN_clean_sbu_0, # of connection points: 6
#     Node 37, Type 1, BuildingBlock: HISSIN_clean_sbu_0, # of connection points: 6
#     Node 38, Type 1, BuildingBlock: HISSIN_clean_sbu_0, # of connection points: 6
#     Node 39, Type 1, BuildingBlock: HISSIN_clean_sbu_0, # of connection points: 6
#     Edge 40, Type (0, 1), BuildingBlock: TEMPAE_clean_linker_10, # of connection points: 2
#     Edge 41, Type (0, 1), BuildingBlock: TEMPAE_clean_linker_10, # of connection points: 2
#     Edge 42, Type (0, 1), BuildingBlock: TEMPAE_clean_linker_10, # of connection points: 2
#     Edge 43, Type (0, 1), BuildingBlock: TEMPAE_clean_linker_10, # of connection points: 2
#     Edge 44, Type (0, 1), BuildingBlock: TEMPAE_clean_linker_10, # of connection points: 2
#     Edge 45, Type (0, 1), BuildingBlock: TEMPAE_clean_linker_10, # of connection points: 2
#     Edge 46, Type (0, 1), BuildingBlock: TEMPAE_clean_linker_10, # of connection points: 2
#     Edge 47, Type (0, 1), BuildingBlock: TEMPAE_clean_linker_10, # of connection points: 2
#     Edge 48, Type (0, 1), BuildingBlock: TEMPAE_clean_linker_10, # of connection points: 2
#     Edge 49, Type (0, 1), BuildingBlock: TEMPAE_clean_linker_10, # of connection points: 2
#     Edge 50, Type (0, 1), BuildingBlock: TEMPAE_clean_linker_10, # of connection points: 2
#     Edge 51, Type (0, 1), BuildingBlock: TEMPAE_clean_linker_10, # of connection points: 2
#     Edge 52, Type (0, 1), BuildingBlock: TEMPAE_clean_linker_10, # of connection points: 2
#     Edge 53, Type (0, 1), BuildingBlock: TEMPAE_clean_linker_10, # of connection points: 2
#     Edge 54, Type (0, 1), BuildingBlock: TEMPAE_clean_linker_10, # of connection points: 2
#     Edge 55, Type (0, 1), BuildingBlock: TEMPAE_clean_linker_10, # of connection points: 2
#     Edge 56, Type (0, 1), BuildingBlock: TEMPAE_clean_linker_10, # of connection points: 2
#     Edge 57, Type (0, 1), BuildingBlock: TEMPAE_clean_linker_10, # of connection points: 2
#     Edge 58, Type (0, 1), BuildingBlock: TEMPAE_clean_linker_10, # of connection points: 2
#     Edge 59, Type (0, 1), BuildingBlock: TEMPAE_clean_linker_10, # of connection points: 2
#     Edge 60, Type (0, 1), BuildingBlock: TEMPAE_clean_linker_10, # of connection points: 2
#     Edge 61, Type (0, 1), BuildingBlock: TEMPAE_clean_linker_10, # of connection points: 2
#     Edge 62, Type (0, 1), BuildingBlock: TEMPAE_clean_linker_10, # of connection points: 2
#     Edge 63, Type (0, 1), BuildingBlock: TEMPAE_clean_linker_10, # of connection points: 2
#     Edge 64, Type (0, 1), BuildingBlock: TEMPAE_clean_linker_10, # of connection points: 2
#     Edge 65, Type (0, 1), BuildingBlock: TEMPAE_clean_linker_10, # of connection points: 2
#     Edge 66, Type (0, 1), BuildingBlock: TEMPAE_clean_linker_10, # of connection points: 2
#     Edge 67, Type (0, 1), BuildingBlock: TEMPAE_clean_linker_10, # of connection points: 2
#     Edge 68, Type (0, 1), BuildingBlock: TEMPAE_clean_linker_10, # of connection points: 2
#     Edge 69, Type (0, 1), BuildingBlock: TEMPAE_clean_linker_10, # of connection points: 2
#     Edge 70, Type (0, 1), BuildingBlock: TEMPAE_clean_linker_10, # of connection points: 2
#     Edge 71, Type (0, 1), BuildingBlock: TEMPAE_clean_linker_10, # of connection points: 2
#     Edge 72, Type (0, 1), BuildingBlock: TEMPAE_clean_linker_10, # of connection points: 2
#     Edge 73, Type (0, 1), BuildingBlock: TEMPAE_clean_linker_10, # of connection points: 2
#     Edge 74, Type (0, 1), BuildingBlock: TEMPAE_clean_linker_10, # of connection points: 2
#     Edge 75, Type (0, 1), BuildingBlock: TEMPAE_clean_linker_10, # of connection points: 2
#     Edge 76, Type (0, 1), BuildingBlock: TEMPAE_clean_linker_10, # of connection points: 2
#     Edge 77, Type (0, 1), BuildingBlock: TEMPAE_clean_linker_10, # of connection points: 2
#     Edge 78, Type (0, 1), BuildingBlock: TEMPAE_clean_linker_10, # of connection points: 2
#     Edge 79, Type (0, 1), BuildingBlock: TEMPAE_clean_linker_10, # of connection points: 2
#     Edge 80, Type (0, 1), BuildingBlock: TEMPAE_clean_linker_10, # of connection points: 2
#     Edge 81, Type (0, 1), BuildingBlock: TEMPAE_clean_linker_10, # of connection points: 2
#     Edge 82, Type (0, 1), BuildingBlock: TEMPAE_clean_linker_10, # of connection points: 2
#     Edge 83, Type (0, 1), BuildingBlock: TEMPAE_clean_linker_10, # of connection points: 2
#     Edge 84, Type (0, 1), BuildingBlock: TEMPAE_clean_linker_10, # of connection points: 2
#     Edge 85, Type (0, 1), BuildingBlock: TEMPAE_clean_linker_10, # of connection points: 2
#     Edge 86, Type (0, 1), BuildingBlock: TEMPAE_clean_linker_10, # of connection points: 2
#     Edge 87, Type (0, 1), BuildingBlock: TEMPAE_clean_linker_10, # of connection points: 2
#     Edge 88, Type (0, 1), BuildingBlock: TEMPAE_clean_linker_10, # of connection points: 2
#     Edge 89, Type (0, 1), BuildingBlock: TEMPAE_clean_linker_10, # of connection points: 2
#     Edge 90, Type (0, 1), BuildingBlock: TEMPAE_clean_linker_10, # of connection points: 2
#     Edge 91, Type (0, 1), BuildingBlock: TEMPAE_clean_linker_10, # of connection points: 2
#     Edge 92, Type (0, 1), BuildingBlock: TEMPAE_clean_linker_10, # of connection points: 2
#     Edge 93, Type (0, 1), BuildingBlock: TEMPAE_clean_linker_10, # of connection points: 2
#     Edge 94, Type (0, 1), BuildingBlock: TEMPAE_clean_linker_10, # of connection points: 2
#     Edge 95, Type (0, 1), BuildingBlock: TEMPAE_clean_linker_10, # of connection points: 2
#     Edge 96, Type (0, 1), BuildingBlock: TEMPAE_clean_linker_10, # of connection points: 2
#     Edge 97, Type (0, 1), BuildingBlock: TEMPAE_clean_linker_10, # of connection points: 2
#     Edge 98, Type (0, 1), BuildingBlock: TEMPAE_clean_linker_10, # of connection points: 2
#     Edge 99, Type (0, 1), BuildingBlock: TEMPAE_clean_linker_10, # of connection points: 2
#     Edge 100, Type (0, 1), BuildingBlock: TEMPAE_clean_linker_10, # of connection points: 2
#     Edge 101, Type (0, 1), BuildingBlock: TEMPAE_clean_linker_10, # of connection points: 2
#     Edge 102, Type (0, 1), BuildingBlock: TEMPAE_clean_linker_10, # of connection points: 2
#     Edge 103, Type (0, 1), BuildingBlock: TEMPAE_clean_linker_10, # of connection points: 2
#     Edge 104, Type (0, 1), BuildingBlock: TEMPAE_clean_linker_10, # of connection points: 2
#     Edge 105, Type (0, 1), BuildingBlock: TEMPAE_clean_linker_10, # of connection points: 2
#     Edge 106, Type (0, 1), BuildingBlock: TEMPAE_clean_linker_10, # of connection points: 2
#     Edge 107, Type (0, 1), BuildingBlock: TEMPAE_clean_linker_10, # of connection points: 2
#     Edge 108, Type (0, 1), BuildingBlock: TEMPAE_clean_linker_10, # of connection points: 2
#     Edge 109, Type (0, 1), BuildingBlock: TEMPAE_clean_linker_10, # of connection points: 2
#     Edge 110, Type (0, 1), BuildingBlock: TEMPAE_clean_linker_10, # of connection points: 2
#     Edge 111, Type (0, 1), BuildingBlock: TEMPAE_clean_linker_10, # of connection points: 2
#     Edge 112, Type (0, 1), BuildingBlock: TEMPAE_clean_linker_10, # of connection points: 2
#     Edge 113, Type (0, 1), BuildingBlock: TEMPAE_clean_linker_10, # of connection points: 2
#     Edge 114, Type (0, 1), BuildingBlock: TEMPAE_clean_linker_10, # of connection points: 2
#     Edge 115, Type (0, 1), BuildingBlock: TEMPAE_clean_linker_10, # of connection points: 2
#     Edge 116, Type (0, 1), BuildingBlock: TEMPAE_clean_linker_10, # of connection points: 2
#     Edge 117, Type (0, 1), BuildingBlock: TEMPAE_clean_linker_10, # of connection points: 2
#     Edge 118, Type (0, 1), BuildingBlock: TEMPAE_clean_linker_10, # of connection points: 2
#     Edge 119, Type (0, 1), BuildingBlock: TEMPAE_clean_linker_10, # of connection points: 2
#     Edge 120, Type (0, 1), BuildingBlock: TEMPAE_clean_linker_10, # of connection points: 2
#     Edge 121, Type (0, 1), BuildingBlock: TEMPAE_clean_linker_10, # of connection points: 2
#     Edge 122, Type (0, 1), BuildingBlock: TEMPAE_clean_linker_10, # of connection points: 2
#     Edge 123, Type (0, 1), BuildingBlock: TEMPAE_clean_linker_10, # of connection points: 2
#     Edge 124, Type (0, 1), BuildingBlock: TEMPAE_clean_linker_10, # of connection points: 2
#     Edge 125, Type (0, 1), BuildingBlock: TEMPAE_clean_linker_10, # of connection points: 2
#     Edge 126, Type (0, 1), BuildingBlock: TEMPAE_clean_linker_10, # of connection points: 2
#     Edge 127, Type (0, 1), BuildingBlock: TEMPAE_clean_linker_10, # of connection points: 2
#     Edge 128, Type (0, 1), BuildingBlock: TEMPAE_clean_linker_10, # of connection points: 2
#     Edge 129, Type (0, 1), BuildingBlock: TEMPAE_clean_linker_10, # of connection points: 2
#     Edge 130, Type (0, 1), BuildingBlock: TEMPAE_clean_linker_10, # of connection points: 2
#     Edge 131, Type (0, 1), BuildingBlock: TEMPAE_clean_linker_10, # of connection points: 2
#     Edge 132, Type (0, 1), BuildingBlock: TEMPAE_clean_linker_10, # of connection points: 2
#     Edge 133, Type (0, 1), BuildingBlock: TEMPAE_clean_linker_10, # of connection points: 2
#     Edge 134, Type (0, 1), BuildingBlock: TEMPAE_clean_linker_10, # of connection points: 2
#     Edge 135, Type (0, 1), BuildingBlock: TEMPAE_clean_linker_10, # of connection points: 2
# Relax obj value: 0.195
# Max RMSD: 0.293
# Mean RMSD: 0.163
data_MOF--net-gar--node1-TATPOV_clean_sbu_0--node2-HISSIN_clean_sbu_0--edge1-TEMPAE_clean_linker_10
_symmetry_space_group_name_H-M    P1
_symmetry_Int_Tables_number       1
_symmetry_cell_setting            triclinic
loop_
_symmetry_equiv_pos_as_xyz
'x, y, z'
_cell_length_a     60.647159
_cell_length_b     60.405787
_cell_length_c     59.518368
_cell_angle_alpha  100.127
_cell_angle_beta   92.951374
_cell_angle_gamma 101.98328
loop_
_atom_site_label
_atom_site_type_symbol
_atom_site_fract_x
_atom_site_fract_y
_atom_site_fract_z
_atom_type_partial_charge
Zn0 Zn 0.08753 0.32961 0.43593 0.0
Zn1 Zn 0.11474 0.31882 0.40886 0.0
O2 O 0.12332 0.35339 0.42295 0.0
O3 O 0.11435 0.34998 0.45685 0.0
O4 O 0.13878 0.31352 0.3891 0.0
O5 O 0.07762 0.29765 0.43925 0.0
O6 O 0.11026 0.29264 0.42726 0.0
C7 C 0.12249 0.36293 0.44352 0.0
C8 C 0.07252 0.32544 0.38882 0.0
O9 O 0.08738 0.31342 0.38609 0.0
O10 O 0.07178 0.3377 0.40821 0.0
C11 C 0.14563 0.3277 0.37624 0.0
O12 O 0.13769 0.34649 0.37746 0.0
C13 C 0.09182 0.28517 0.43552 0.0
Zn14 Zn 0.98546 0.71496 0.64723 0.0
Zn15 Zn 0.99476 0.7526 0.62986 0.0
O16 O 0.96869 0.75864 0.64787 0.0
O17 O 0.96834 0.73169 0.66865 0.0
O18 O 0.00575 0.77966 0.61578 0.0
O19 O 0.01857 0.71872 0.65651 0.0
O20 O 0.02278 0.75398 0.64983 0.0
C21 C 0.9621 0.74941 0.66466 0.0
C22 C 0.97943 0.70471 0.60048 0.0
O23 O 0.98984 0.72567 0.60368 0.0
O24 O 0.9706 0.69665 0.6169 0.0
C25 C 0.99452 0.7905 0.60491 0.0
O26 O 0.97233 0.78413 0.60213 0.0
C27 C 0.03066 0.73875 0.65773 0.0
Zn28 Zn 0.59017 0.82921 0.93668 0.0
Zn29 Zn 0.61467 0.81917 0.90462 0.0
O30 O 0.62311 0.85413 0.91704 0.0
O31 O 0.609 0.86032 0.95006 0.0
O32 O 0.63585 0.81334 0.88126 0.0
O33 O 0.59183 0.8023 0.95069 0.0
O34 O 0.61207 0.79255 0.92252 0.0
C35 C 0.62045 0.86798 0.93487 0.0
C36 C 0.56762 0.81827 0.89005 0.0
O37 O 0.58622 0.81355 0.88451 0.0
O38 O 0.56519 0.82584 0.91086 0.0
C39 C 0.64333 0.82835 0.86942 0.0
O40 O 0.63918 0.84907 0.87424 0.0
C41 C 0.60204 0.78811 0.94 0.0
Zn42 Zn 0.48254 0.21409 0.14723 0.0
Zn43 Zn 0.49159 0.2541 0.13163 0.0
O44 O 0.46444 0.25638 0.14975 0.0
O45 O 0.45785 0.22421 0.1636 0.0
O46 O 0.49883 0.28256 0.11832 0.0
O47 O 0.51449 0.22408 0.16306 0.0
O48 O 0.51948 0.2578 0.15252 0.0
C49 C 0.45336 0.24335 0.16182 0.0
C50 C 0.48367 0.20649 0.09983 0.0
O51 O 0.49037 0.22828 0.10432 0.0
O52 O 0.47653 0.19573 0.11533 0.0
C53 C 0.51585 0.28396 0.10664 0.0
O54 O 0.52651 0.26695 0.10384 0.0
C55 C 0.52656 0.244 0.16338 0.0
Zn56 Zn 0.12595 0.76631 0.09256 0.0
Zn57 Zn 0.08754 0.76524 0.11468 0.0
O58 O 0.09227 0.79507 0.10538 0.0
O59 O 0.11401 0.7895 0.07724 0.0
O60 O 0.05886 0.76205 0.12937 0.0
O61 O 0.11214 0.73179 0.08672 0.0
O62 O 0.07852 0.73935 0.08884 0.0
C63 C 0.10162 0.80125 0.08829 0.0
C64 C 0.13182 0.77312 0.14085 0.0
O65 O 0.11098 0.76353 0.13856 0.0
O66 O 0.14181 0.77902 0.12396 0.0
C67 C 0.05683 0.75878 0.14969 0.0
O68 O 0.07482 0.75931 0.16319 0.0
C69 C 0.09082 0.72503 0.08457 0.0
Zn70 Zn 0.47809 0.80012 0.42389 0.0
Zn71 Zn 0.51288 0.79704 0.39761 0.0
O72 O 0.52355 0.82806 0.41652 0.0
O73 O 0.50159 0.82527 0.44469 0.0
O74 O 0.54045 0.7934 0.38373 0.0
O75 O 0.47574 0.76801 0.4308 0.0
O76 O 0.50804 0.77245 0.4152 0.0
C77 C 0.51899 0.8353 0.43659 0.0
C78 C 0.4722 0.80211 0.37456 0.0
O79 O 0.49026 0.79502 0.37245 0.0
O80 O 0.46473 0.80659 0.394 0.0
C81 C 0.5461 0.80238 0.36666 0.0
O82 O 0.53209 0.81198 0.3562 0.0
C83 C 0.49402 0.76177 0.42672 0.0
Zn84 Zn 0.63186 0.26561 0.58253 0.0
Zn85 Zn 0.58993 0.26121 0.61009 0.0
O86 O 0.59715 0.2946 0.61193 0.0
O87 O 0.61891 0.29458 0.58287 0.0
O88 O 0.55895 0.25348 0.62077 0.0
O89 O 0.61591 0.23376 0.56406 0.0
O90 O 0.58956 0.24962 0.57732 0.0
C91 C 0.60717 0.30444 0.59692 0.0
C92 C 0.63453 0.25606 0.63026 0.0
O93 O 0.61315 0.2531 0.63028 0.0
O94 O 0.64483 0.26248 0.61363 0.0
C95 C 0.55656 0.25127 0.64139 0.0
O96 O 0.57453 0.25225 0.65514 0.0
C97 C 0.59624 0.23143 0.57064 0.0
Zn98 Zn 0.97637 0.30742 0.93529 0.0
Zn99 Zn 0.01622 0.30046 0.89981 0.0
O100 O 0.03519 0.33219 0.91405 0.0
O101 O 0.00558 0.32648 0.93234 0.0
O102 O 0.03643 0.28706 0.87899 0.0
O103 O 0.9832 0.28069 0.94692 0.0
O104 O 0.01072 0.28102 0.92362 0.0
C105 C 0.02442 0.33883 0.93048 0.0
C106 C 0.96655 0.2999 0.88529 0.0
O107 O 0.98717 0.30012 0.88192 0.0
O108 O 0.95923 0.30143 0.90499 0.0
C109 C 0.0444 0.30053 0.86591 0.0
O110 O 0.03526 0.31815 0.86433 0.0
C111 C 1.00017 0.27343 0.93959 0.0
Zn112 Zn 0.45181 0.97971 0.30441 0.0
Zn113 Zn 0.43051 0.02064 0.28848 0.0
O114 O 0.4348 0.03201 0.32223 0.0
O115 O 0.42926 0.99561 0.32095 0.0
O116 O 0.41723 0.04278 0.27412 0.0
O117 O 0.46107 0.98441 0.27257 0.0
O118 O 0.46096 0.02131 0.27778 0.0
C119 C 0.43691 0.01567 0.33212 0.0
C120 C 0.41121 0.96788 0.2721 0.0
O121 O 0.41013 0.98906 0.27693 0.0
O122 O 0.42856 0.96095 0.27858 0.0
C123 C 0.40349 0.05281 0.28497 0.0
O124 O 0.3987 0.04846 0.30524 0.0
C125 C 0.46483 1.00337 0.26559 0.0
Zn126 Zn 0.25108 0.22404 0.49959 0.0
Zn127 Zn 0.28332 0.20022 0.4998 0.0
O128 O 0.28796 0.21494 0.47069 0.0
O129 O 0.26333 0.23712 0.47226 0.0
O130 O 0.30973 0.18493 0.50221 0.0
O131 O 0.26037 0.23905 0.53324 0.0
O132 O 0.28847 0.22114 0.53184 0.0
C133 C 0.27878 0.22921 0.46219 0.0
C134 C 0.23345 0.17483 0.49353 0.0
O135 O 0.25429 0.17428 0.49664 0.0
O136 O 0.22784 0.19383 0.49307 0.0
C137 C 0.30814 0.16349 0.50136 0.0
O138 O 0.28814 0.14939 0.49704 0.0
C139 C 0.27759 0.23465 0.54298 0.0
Zn140 Zn 0.14695 0.04052 0.76637 0.0
Zn141 Zn 0.17562 0.01319 0.76399 0.0
O142 O 0.15652 0.01278 0.79771 0.0
O143 O 0.13232 0.03503 0.79554 0.0
O144 O 0.19658 0.98309 0.76067 0.0
O145 O 0.12901 0.02936 0.73529 0.0
O146 O 0.15499 0.00905 0.72856 0.0
C147 C 0.14057 0.02223 0.80678 0.0
C148 C 0.19287 0.06899 0.76721 0.0
O149 O 0.19859 0.04921 0.76672 0.0
O150 O 0.17202 0.06925 0.76756 0.0
C151 C 0.19487 0.96449 0.76984 0.0
O152 O 0.17895 0.96138 0.78385 0.0
C153 C 0.13788 0.01664 0.7209 0.0
Zn154 Zn 0.30947 0.92839 0.00219 0.0
Zn155 Zn 0.28358 0.94959 -0.00067 0.0
O156 O 0.27721 0.92231 0.96871 0.0
O157 O 0.31202 0.91753 0.97003 0.0
O158 O 0.25606 0.96686 0.00317 0.0
O159 O 0.2937 0.90512 0.019 0.0
O160 O 0.2844 0.93798 0.03091 0.0
C161 C 0.29261 0.91291 0.95944 0.0
C162 C 0.33435 0.97115 0.00954 0.0
O163 O 0.31593 0.97255 -0.00136 0.0
O164 O 0.33441 0.95369 0.01845 0.0
C165 C 0.23849 0.96488 0.98935 0.0
O166 O 0.23719 0.95205 0.96887 0.0
C167 C 0.28688 0.91838 0.03453 0.0
Zn168 Zn 0.34723 0.34594 0.02833 0.0
Zn169 Zn 0.31649 0.37074 0.02808 0.0
O170 O 0.31247 0.35062 0.99534 0.0
O171 O 0.33752 0.32909 0.99555 0.0
O172 O 0.28977 0.38598 0.02575 0.0
O173 O 0.33677 0.33418 0.0567 0.0
O174 O 0.3109 0.35491 0.05692 0.0
C175 C 0.3221 0.33548 0.98485 0.0
C176 C 0.36669 0.39489 0.0333 0.0
O177 O 0.34605 0.39675 0.0321 0.0
O178 O 0.37118 0.37521 0.03249 0.0
C179 C 0.29053 0.40475 0.01859 0.0
O180 O 0.30999 0.41623 0.01367 0.0
C181 C 0.3206 0.34133 0.06603 0.0
Zn182 Zn 0.78919 0.1387 0.03866 0.0
Zn183 Zn 0.81848 0.12196 0.03275 0.0
O184 O 0.81756 0.14092 0.00618 0.0
O185 O 0.78096 0.13837 0.0062 0.0
O186 O 0.84907 0.10887 0.02961 0.0
O187 O 0.8036 0.16899 0.05708 0.0
O188 O 0.82303 0.14461 0.06633 0.0
C189 C 0.79901 0.14358 0.99685 0.0
C190 C 0.76913 0.09783 0.03809 0.0
O191 O 0.7862 0.09669 0.02625 0.0
O192 O 0.77102 0.11516 0.05394 0.0
C193 C 0.85406 0.09321 0.01436 0.0
O194 O 0.83823 0.08164 0.9982 0.0
C195 C 0.81704 0.16401 0.07122 0.0
Zn196 Zn 0.15025 0.57901 0.2285 0.0
Zn197 Zn 0.17658 0.55024 0.23352 0.0
O198 O 0.16074 0.55598 0.26162 0.0
O199 O 0.13078 0.56894 0.25288 0.0
O200 O 0.19223 0.52661 0.23989 0.0
O201 O 0.14407 0.56366 0.19551 0.0
O202 O 0.15838 0.53515 0.20397 0.0
C203 C 0.1427 0.56206 0.26711 0.0
C204 C 0.1986 0.59823 0.24043 0.0
O205 O 0.20122 0.57793 0.23357 0.0
O206 O 0.17896 0.60235 0.24056 0.0
C207 C 0.20978 0.53177 0.25387 0.0
O208 O 0.21824 0.55338 0.26353 0.0
C209 C 0.14788 0.54371 0.19001 0.0
Zn210 Zn 0.84249 0.84547 0.52847 0.0
Zn211 Zn 0.81434 0.87345 0.52901 0.0
O212 O 0.80915 0.85308 0.49597 0.0
O213 O 0.83146 0.82872 0.496 0.0
O214 O 0.78871 0.89053 0.52823 0.0
O215 O 0.83109 0.83351 0.55673 0.0
O216 O 0.80961 0.8589 0.55874 0.0
C217 C 0.81722 0.83669 0.48532 0.0
C218 C 0.86451 0.89448 0.53179 0.0
O219 O 0.84442 0.8979 0.53168 0.0
O220 O 0.86772 0.87429 0.53124 0.0
C221 C 0.78706 0.90365 0.51396 0.0
O222 O 0.80304 0.90727 0.50008 0.0
C223 C 0.817 0.8434 0.56707 0.0
Zn224 Zn 0.95931 0.03021 0.25928 0.0
Zn225 Zn 0.93052 0.05718 0.26118 0.0
O226 O 0.9504 0.06138 0.29699 0.0
O227 O 0.9767 0.04136 0.29067 0.0
O228 O 0.9112 0.0883 0.26121 0.0
O229 O 0.97454 0.03524 0.23029 0.0
O230 O 0.94992 0.05688 0.22766 0.0
C231 C 0.96744 0.05384 0.30492 0.0
C232 C 0.91316 1.00161 0.25811 0.0
O233 O 0.90724 0.02129 0.25852 0.0
O234 O 0.93406 1.00158 0.25782 0.0
C235 C 0.90516 0.10363 0.27697 0.0
O236 O 0.90971 0.10194 0.29834 0.0
C237 C 0.96606 0.04767 0.21877 0.0
Zn238 Zn 0.29329 0.64262 0.53427 0.0
Zn239 Zn 0.31923 0.62228 0.53293 0.0
O240 O 0.32247 0.64076 0.50569 0.0
O241 O 0.28621 0.63945 0.50096 0.0
O242 O 0.3477 0.6057 0.53168 0.0
O243 O 0.31028 0.67257 0.55188 0.0
O244 O 0.32319 0.64605 0.56574 0.0
C245 C 0.30548 0.64345 0.49364 0.0
C246 C 0.26848 0.60418 0.53797 0.0
O247 O 0.28535 0.59916 0.52734 0.0
O248 O 0.27141 0.62389 0.55044 0.0
C249 C 0.35711 0.59977 0.51332 0.0
O250 O 0.34774 0.60231 0.49381 0.0
C251 C 0.31966 0.66663 0.56857 0.0
Zn252 Zn 0.45848 0.53014 0.7616 0.0
Zn253 Zn 0.4305 0.55775 0.76272 0.0
O254 O 0.45021 0.56169 0.79846 0.0
O255 O 0.47661 0.54171 0.79264 0.0
O256 O 0.41269 0.59001 0.76305 0.0
O257 O 0.47269 0.53346 0.73184 0.0
O258 O 0.4502 0.55722 0.72941 0.0
C259 C 0.46722 0.55429 0.80663 0.0
C260 C 0.4123 0.50226 0.76054 0.0
O261 O 0.40667 0.52196 0.76003 0.0
O262 O 0.43317 0.502 0.76111 0.0
C263 C 0.39848 0.59967 0.77533 0.0
O264 O 0.39086 0.58959 0.79211 0.0
C265 C 0.46535 0.54661 0.72035 0.0
Zn266 Zn 0.64953 0.07218 0.73799 0.0
Zn267 Zn 0.6766 0.04551 0.73241 0.0
O268 O 0.66575 0.04801 0.76397 0.0
O269 O 0.63198 0.05485 0.75928 0.0
O270 O 0.69367 0.02135 0.73194 0.0
O271 O 0.63865 0.06415 0.70536 0.0
O272 O 0.65421 0.03418 0.70481 0.0
C273 C 0.64709 0.05013 0.77179 0.0
C274 C 0.69749 0.09308 0.74405 0.0
O275 O 0.69941 0.07434 0.73168 0.0
O276 O 0.67841 0.09554 0.75049 0.0
C277 C 0.71219 0.02625 0.74445 0.0
O278 O 0.72008 0.04746 0.75561 0.0
C279 C 0.64134 0.04472 0.69557 0.0
Zn280 Zn 0.7528 0.72695 -0.00088 0.0
Zn281 Zn 0.78347 0.70164 0.00019 0.0
O282 O 0.78985 0.71575 0.97088 0.0
O283 O 0.76802 0.74082 0.97329 0.0
O284 O 0.80637 0.68232 0.00324 0.0
O285 O 0.76125 0.74048 0.03326 0.0
O286 O 0.78968 0.72301 0.03209 0.0
C287 C 0.78267 0.73162 0.96308 0.0
C288 C 0.73294 0.67847 0.99279 0.0
O289 O 0.75348 0.6775 0.99711 0.0
O290 O 0.72807 0.69755 0.99106 0.0
C291 C 0.82689 0.68746 -0.00112 0.0
O292 O 0.83402 0.70597 0.99024 0.0
C293 C 0.77849 0.73626 0.04315 0.0
Zn294 Zn 0.95248 0.4845 0.80539 0.0
Zn295 Zn 0.93388 0.52382 0.78936 0.0
O296 O 0.94219 0.53477 0.82223 0.0
O297 O 0.9308 0.49919 0.82529 0.0
O298 O 0.92028 0.54738 0.77795 0.0
O299 O 0.95712 0.48432 0.7712 0.0
O300 O 0.96142 0.52172 0.77366 0.0
C301 C 0.93927 0.51975 0.83473 0.0
C302 C 0.91157 0.4726 0.77526 0.0
O303 O 0.9108 0.49371 0.78114 0.0
O304 O 0.93 0.466 0.77826 0.0
C305 C 0.89922 0.54562 0.77943 0.0
O306 O 0.8879 0.52895 0.78857 0.0
C307 C 0.96264 0.50219 0.76254 0.0
Zn308 Zn 0.80947 0.42788 0.49801 0.0
Zn309 Zn 0.78378 0.45093 0.49807 0.0
O310 O 0.7767 0.42537 0.46651 0.0
O311 O 0.81028 0.41702 0.46537 0.0
O312 O 0.75604 0.46751 0.50325 0.0
O313 O 0.79422 0.40498 0.51549 0.0
O314 O 0.78505 0.43773 0.52848 0.0
C315 C 0.79083 0.41518 0.45576 0.0
C316 C 0.83446 0.47172 0.50757 0.0
O317 O 0.81576 0.47439 0.49835 0.0
O318 O 0.83506 0.45283 0.51359 0.0
C319 C 0.73945 0.4676 0.489 0.0
O320 O 0.73964 0.45793 0.46746 0.0
C321 C 0.78769 0.41799 0.53147 0.0
Zn322 Zn 0.64958 0.54553 0.27148 0.0
Zn323 Zn 0.67472 0.51371 0.26544 0.0
O324 O 0.6562 0.51382 0.29945 0.0
O325 O 0.63504 0.53952 0.30084 0.0
O326 O 0.69272 0.48113 0.26106 0.0
O327 O 0.63216 0.5364 0.23975 0.0
O328 O 0.653 0.51091 0.23099 0.0
C329 C 0.64191 0.5246 0.31018 0.0
C330 C 0.69605 0.56994 0.27076 0.0
O331 O 0.69928 0.54887 0.26753 0.0
O332 O 0.67629 0.5729 0.27394 0.0
C333 C 0.7075 0.47431 0.27386 0.0
O334 O 0.71516 0.4881 0.29357 0.0
C335 C 0.63788 0.52171 0.22449 0.0
Eu336 Eu 0.06509 0.06235 0.01825 0.0
Eu337 Eu 0.03832 0.01092 0.00609 0.0
C338 C 0.06718 0.03369 0.96555 0.0
C339 C 0.08392 0.12564 0.02208 0.0
C340 C 0.0867 0.12888 -0.00052 0.0
C341 C 0.06516 0.15751 0.02857 0.0
C342 C 0.07808 0.1458 0.9913 0.0
C343 C 0.07389 0.14066 0.03681 0.0
C344 C 0.06665 0.1597 0.0056 0.0
C345 C 0.08816 0.10479 0.0292 0.0
O346 O 0.07314 0.00522 0.0166 0.0
O347 O 0.09233 0.0429 0.02483 0.0
C348 C 0.09227 0.0208 0.02176 0.0
O349 O 0.04711 0.05759 0.05136 0.0
O350 O 0.02952 0.97767 0.98258 0.0
O351 O 0.01022 0.98401 0.0114 0.0
O352 O 0.03567 0.01851 0.04542 0.0
C353 C 0.03721 0.03888 0.05883 0.0
O354 O 0.03074 0.068 0.0056 0.0
O355 O 0.01078 0.03107 0.00345 0.0
O356 O 0.05488 0.01551 0.97216 0.0
O357 O 0.07356 0.09544 0.04195 0.0
O358 O 0.09309 0.08946 0.0132 0.0
O359 O 0.07083 0.05397 0.9796 0.0
C360 C 0.02013 0.94811 0.00345 0.0
C361 C 0.01819 0.94584 0.02643 0.0
C362 C 0.04041 0.91732 0.99805 0.0
C363 C 0.02813 0.93014 0.03534 0.0
C364 C 0.03045 0.93304 0.98909 0.0
C365 C 0.03998 0.9164 0.0214 0.0
C366 C 0.01523 0.96846 0.9957 0.0
C367 C 0.01128 0.05295 0.00371 0.0
H368 H 0.09454 0.11769 0.98774 0.0
H369 H 0.05632 0.16807 0.03986 0.0
H370 H 0.0798 0.14759 0.97364 0.0
H371 H 0.07163 0.13853 0.0543 0.0
H372 H 0.01014 0.95705 0.03792 0.0
H373 H 0.04943 0.90673 0.98701 0.0
H374 H 0.02715 0.92923 0.0533 0.0
H375 H 0.03209 0.93442 0.97132 0.0
Eu376 Eu 0.30046 0.79284 0.2478 0.0
Eu377 Eu 0.28518 0.7963 0.30162 0.0
C378 C 0.25053 0.79249 0.25928 0.0
C379 C 0.31522 0.81138 0.19214 0.0
C380 C 0.2976 0.82286 0.18998 0.0
C381 C 0.33648 0.83398 0.16725 0.0
C382 C 0.29918 0.8394 0.17618 0.0
C383 C 0.33475 0.81718 0.18089 0.0
C384 C 0.3186 0.84516 0.1646 0.0
C385 C 0.31402 0.79446 0.20721 0.0
O386 O 0.29256 0.76121 0.29083 0.0
O387 O 0.28567 0.7569 0.25173 0.0
C388 C 0.2884 0.74833 0.27022 0.0
O389 O 0.32755 0.78337 0.26773 0.0
O390 O 0.25943 0.78502 0.32386 0.0
O391 O 0.2909 0.80839 0.33869 0.0
O392 O 0.32312 0.80364 0.30317 0.0
C393 C 0.33529 0.79372 0.28857 0.0
O394 O 0.31149 0.82868 0.26742 0.0
O395 O 0.28432 0.83084 0.29258 0.0
O396 O 0.25444 0.7834 0.27697 0.0
O397 O 0.32751 0.80136 0.22603 0.0
O398 O 0.29384 0.78354 0.21062 0.0
O399 O 0.26678 0.80219 0.24823 0.0
C400 C 0.2762 0.77774 0.35696 0.0
C401 C 0.29231 0.76446 0.35163 0.0
C402 C 0.26528 0.75688 0.38738 0.0
C403 C 0.29513 0.74775 0.36424 0.0
C404 C 0.26246 0.77369 0.37468 0.0
C405 C 0.28186 0.74398 0.38241 0.0
C406 C 0.27267 0.79422 0.34253 0.0
C407 C 0.29855 0.84019 0.27925 0.0
H408 H 0.28253 0.819 0.19886 0.0
H409 H 0.35177 0.8382 0.1588 0.0
H410 H 0.28491 0.84732 0.17423 0.0
H411 H 0.34871 0.80878 0.18275 0.0
H412 H 0.3027 0.76697 0.33762 0.0
H413 H 0.25487 0.7543 0.40136 0.0
H414 H 0.30774 0.73778 0.35979 0.0
H415 H 0.24961 0.78348 0.37865 0.0
Eu416 Eu 0.56842 0.02988 0.50235 0.0
Eu417 Eu 0.51542 0.03305 0.51846 0.0
C418 C 0.55315 0.02044 0.54976 0.0
C419 C 0.62262 0.0069 0.49287 0.0
C420 C 0.62684 1.0008 0.51415 0.0
C421 C 0.64908 0.98449 0.47679 0.0
C422 C 0.64245 0.98709 0.51683 0.0
C423 C 0.6336 0.99832 0.47416 0.0
C424 C 0.65401 0.97904 0.49826 0.0
C425 C 0.60759 0.0228 0.48997 0.0
O426 O 0.53491 0.06861 0.51915 0.0
O427 O 0.57095 0.06333 0.52692 0.0
C428 C 0.55584 0.07615 0.52812 0.0
O429 O 0.55495 0.04936 0.47842 0.0
O430 O 0.49531 0.04465 0.54547 0.0
O431 O 0.47858 0.02611 0.51237 0.0
O432 O 0.51672 0.03556 0.4814 0.0
C433 C 0.53355 0.04522 0.47069 0.0
O434 O 0.54025 1.00112 0.48484 0.0
O435 O 0.51733 0.99604 0.51316 0.0
O436 O 0.53903 0.03402 0.54882 0.0
O437 O 0.58854 0.01405 0.47728 0.0
O438 O 0.60524 0.03749 0.50811 0.0
O439 O 0.56234 0.0119 0.53181 0.0
C440 C 0.46262 0.05522 0.53263 0.0
C441 C 0.47072 0.0756 0.52457 0.0
C442 C 0.42817 0.06794 0.54147 0.0
C443 C 0.45745 0.09196 0.52467 0.0
C444 C 0.44145 0.05162 0.54136 0.0
C445 C 0.43588 0.08815 0.53285 0.0
C446 C 0.4763 0.03787 0.53243 0.0
C447 C 0.52827 0.98755 0.49663 0.0
H448 H 0.61835 0.00691 0.52881 0.0
H449 H 0.65779 0.97876 0.46218 0.0
H450 H 0.64559 0.98291 0.5335 0.0
H451 H 0.63056 1.00275 0.45758 0.0
H452 H 0.48722 0.07874 0.51805 0.0
H453 H 0.41153 0.06436 0.54761 0.0
H454 H 0.46394 0.10747 0.51817 0.0
H455 H 0.43508 0.03604 0.54781 0.0
Eu456 Eu 0.28059 0.29195 0.76217 0.0
Eu457 Eu 0.32805 0.2775 0.7655 0.0
C458 C 0.28199 0.23787 0.76545 0.0
C459 C 0.22512 0.30531 0.77775 0.0
C460 C 0.21467 0.28723 0.7882 0.0
C461 C 0.20715 0.33154 0.80212 0.0
C462 C 0.2002 0.2912 0.80512 0.0
C463 C 0.22147 0.32753 0.78504 0.0
C464 C 0.19601 0.31329 0.81194 0.0
C465 C 0.2408 0.30162 0.76022 0.0
O466 O 0.32144 0.2722 0.72729 0.0
O467 O 0.28778 0.2839 0.7251 0.0
C468 C 0.30435 0.27614 0.71544 0.0
O469 O 0.30463 0.32713 0.76401 0.0
O470 O 0.34874 0.25189 0.76129 0.0
O471 O 0.36367 0.28678 0.77872 0.0
O472 O 0.33822 0.31577 0.76046 0.0
C473 C 0.32655 0.33226 0.76192 0.0
O474 O 0.29155 0.30358 0.79968 0.0
O475 O 0.31726 0.28104 0.80175 0.0
O476 O 0.30267 0.24235 0.75897 0.0
O477 O 0.2596 0.31715 0.76289 0.0
O478 O 0.24402 0.28079 0.75428 0.0
O479 O 0.27193 0.25527 0.77136 0.0
C480 C 0.38596 0.26672 0.75492 0.0
C481 C 0.39087 0.28307 0.74075 0.0
C482 C 0.41374 0.24708 0.73784 0.0
C483 C 0.40731 0.28152 0.72533 0.0
C484 C 0.39749 0.24878 0.75341 0.0
C485 C 0.41873 0.2634 0.72363 0.0
C486 C 0.36734 0.26675 0.76961 0.0
C487 C 0.30481 0.29461 0.81163 0.0
H488 H 0.21739 0.26995 0.78313 0.0
H489 H 0.2043 0.34876 0.8072 0.0
H490 H 0.19152 0.27673 0.81213 0.0
H491 H 0.22962 0.34179 0.77744 0.0
H492 H 0.38176 0.29678 0.74134 0.0
H493 H 0.42253 0.23311 0.73701 0.0
H494 H 0.41082 0.29422 0.71445 0.0
H495 H 0.39365 0.23586 0.76402 0.0
Eu496 Eu 0.04326 0.05545 0.52563 0.0
Eu497 Eu 0.05711 0.0101 0.50055 0.0
C498 C 0.0924 0.05898 0.50546 0.0
C499 C 0.0323 0.11147 0.52532 0.0
C500 C 0.04782 0.11138 0.50865 0.0
C501 C 0.02133 0.14426 0.51348 0.0
C502 C 0.05044 0.12776 0.49482 0.0
C503 C 0.01878 0.12774 0.52752 0.0
C504 C 0.03737 0.14449 0.49715 0.0
C505 C 0.02961 0.09313 0.53867 0.0
O506 O 0.06594 0.0115 0.5397 0.0
O507 O 0.06099 0.04683 0.55705 0.0
C508 C 0.06793 0.02772 0.55844 0.0
O509 O 0.01816 0.02644 0.53536 0.0
O510 O 0.08285 0.98958 0.49637 0.0
O511 O 0.0488 0.97498 0.48076 0.0
O512 O 0.01941 1.00057 0.50309 0.0
C513 C 0.00891 0.00765 0.52068 0.0
O514 O 0.03305 0.05336 0.48666 0.0
O515 O 0.04403 0.02138 0.46823 0.0
O516 O 0.0859 0.03777 0.49397 0.0
O517 O 0.01592 0.07399 0.52843 0.0
O518 O 0.0486 0.08963 0.54711 0.0
O519 O 0.07951 0.06832 0.51953 0.0
C520 C 0.06639 0.95237 0.50062 0.0
C521 C 0.05293 0.9529 0.51908 0.0
C522 C 0.07727 0.91833 0.50972 0.0
C523 C 0.0514 0.93619 0.53258 0.0
C524 C 0.07879 0.9352 0.49611 0.0
C525 C 0.06342 0.91862 0.52801 0.0
C526 C 0.06809 0.97076 0.48734 0.0
C527 C 0.03451 0.03909 0.46732 0.0
H528 H 0.05811 0.09863 0.50636 0.0
H529 H 0.01089 0.15689 0.51545 0.0
H530 H 0.06322 0.12767 0.48276 0.0
H531 H 0.00634 0.12765 0.53995 0.0
H532 H 0.0434 0.9662 0.52298 0.0
H533 H 0.08683 0.90506 0.50592 0.0
H534 H 0.04023 0.93669 0.54621 0.0
H535 H 0.08956 0.93484 0.48214 0.0
Eu536 Eu 0.32925 0.80439 0.76645 0.0
Eu537 Eu 0.28231 0.77123 0.76684 0.0
C538 C 0.30241 0.80757 0.81089 0.0
C539 C 0.392 0.82543 0.77573 0.0
C540 C 0.3954 0.81392 0.79372 0.0
C541 C 0.43131 0.82803 0.76818 0.0
C542 C 0.41653 0.81001 0.79924 0.0
C543 C 0.41001 0.83228 0.76281 0.0
C544 C 0.43475 0.81697 0.78658 0.0
C545 C 0.36972 0.83041 0.77095 0.0
O546 O 0.27113 0.80511 0.76097 0.0
O547 O 0.30534 0.82844 0.75788 0.0
C548 C 0.28296 0.82566 0.75851 0.0
O549 O 0.32439 0.78256 0.73111 0.0
O550 O 0.25079 0.76529 0.78309 0.0
O551 O 0.25736 0.73883 0.75642 0.0
O552 O 0.2866 0.76642 0.7288 0.0
C553 C 0.30597 0.76934 0.71957 0.0
O554 O 0.33954 0.77117 0.77631 0.0
O555 O 0.30596 0.74524 0.76608 0.0
O556 O 0.29481 0.78532 0.80428 0.0
O557 O 0.35887 0.82089 0.75091 0.0
O558 O 0.35663 0.82906 0.78757 0.0
O559 O 0.31286 0.8191 0.79662 0.0
C560 C 0.2216 0.74746 0.75514 0.0
C561 C 0.2232 0.75386 0.73361 0.0
C562 C 0.1823 0.74983 0.7537 0.0
C563 C 0.20446 0.75804 0.72212 0.0
C564 C 0.20111 0.7455 0.76519 0.0
C565 C 0.18394 0.75615 0.73212 0.0
C566 C 0.24215 0.7465 0.76831 0.0
C567 C 0.3281 0.74916 0.77144 0.0
H568 H 0.38183 0.80825 0.80396 0.0
H569 H 0.44508 0.83352 0.7581 0.0
H570 H 0.41867 0.80209 0.81394 0.0
H571 H 0.40765 0.84104 0.74877 0.0
H572 H 0.2391 0.75617 0.72587 0.0
H573 H 0.16645 0.74805 0.76155 0.0
H574 H 0.20605 0.76304 0.70556 0.0
H575 H 0.19982 0.74113 0.78204 0.0
Eu576 Eu 0.5532 0.02759 0.03511 0.0
Eu577 Eu 0.5479 0.04374 0.98705 0.0
C578 C 0.54785 0.07785 0.03238 0.0
C579 C 0.53397 0.01089 0.08716 0.0
C580 C 0.51802 0.02448 0.08511 0.0
C581 C 0.51084 0.99084 0.11224 0.0
C582 C 0.49893 0.02175 0.09713 0.0
C583 C 0.53008 0.99372 0.10033 0.0
C584 C 0.49542 0.00516 0.11102 0.0
C585 C 0.55302 0.01305 0.07325 0.0
O586 O 0.58586 0.04571 0.99273 0.0
O587 O 0.58857 0.04737 0.03168 0.0
C588 C 0.59818 0.04946 0.01256 0.0
O589 O 0.56618 1.00344 0.00907 0.0
O590 O 0.54152 0.06938 0.96746 0.0
O591 O 0.54475 0.0358 0.94992 0.0
O592 O 0.54172 0.00524 0.97977 0.0
C593 C 0.55574 0.99483 0.98877 0.0
O594 O 0.51574 0.01471 0.02291 0.0
O595 O 0.51269 0.03936 0.99847 0.0
O596 O 0.55876 0.07547 0.0141 0.0
O597 O 0.54889 0.99909 0.05339 0.0
O598 O 0.56271 0.03418 0.07182 0.0
O599 O 0.54006 0.05995 0.04151 0.0
C600 C 0.5624 0.06775 0.9352 0.0
C601 C 0.57233 0.05362 0.91942 0.0
C602 C 0.59085 0.10113 0.93072 0.0
C603 C 0.59172 0.06295 0.9101 0.0
C604 C 0.57148 0.09168 0.94042 0.0
C605 C 0.60137 0.08666 0.91603 0.0
C606 C 0.54463 0.05698 0.94812 0.0
C607 C 0.50327 0.0247 0.01087 0.0
H608 H 0.52043 0.03735 0.07435 0.0
H609 H 0.50859 0.97826 0.12333 0.0
H610 H 0.48732 0.03307 0.09624 0.0
H611 H 0.54196 0.98273 0.10152 0.0
H612 H 0.56555 0.03518 0.91481 0.0
H613 H 0.59773 0.11955 0.93483 0.0
H614 H 0.59908 0.05159 0.89802 0.0
H615 H 0.56399 0.103 0.9524 0.0
Eu616 Eu 0.30115 0.30545 0.27456 0.0
Eu617 Eu 0.28531 0.25074 0.24782 0.0
C618 C 0.29384 0.29326 0.21922 0.0
C619 C 0.29746 0.36644 0.29395 0.0
C620 C 0.28194 0.36355 0.27484 0.0
C621 C 0.29251 0.40515 0.30654 0.0
C622 C 0.27184 0.38147 0.27149 0.0
C623 C 0.30264 0.38715 0.30989 0.0
C624 C 0.27719 0.40244 0.28721 0.0
C625 C 0.30738 0.34734 0.2975 0.0
O626 O 0.3231 0.25886 0.25092 0.0
O627 O 0.33426 0.29535 0.27339 0.0
C628 C 0.3386 0.27638 0.26208 0.0
O629 O 0.29719 0.28447 0.30237 0.0
O630 O 0.2857 0.2254 0.21696 0.0
O631 O 0.26677 0.21507 0.2446 0.0
O632 O 0.29598 0.24737 0.28392 0.0
C633 C 0.29754 0.26292 0.30278 0.0
O634 O 0.26574 0.29767 0.25788 0.0
O635 O 0.25531 0.26116 0.26333 0.0
O636 O 0.28257 0.27235 0.22042 0.0
O637 O 0.29298 0.32997 0.30236 0.0
O638 O 0.32045 0.34097 0.282 0.0
O639 O 0.30445 0.30796 0.23746 0.0
C640 C 0.28927 0.19096 0.22737 0.0
C641 C 0.30784 0.1964 0.24393 0.0
C642 C 0.29878 0.15431 0.2131 0.0
C643 C 0.32172 0.18093 0.24518 0.0
C644 C 0.28485 0.16994 0.21182 0.0
C645 C 0.31734 0.15971 0.22983 0.0
C646 C 0.27576 0.20818 0.2259 0.0
C647 C 0.2504 0.28108 0.2627 0.0
H648 H 0.27763 0.34741 0.26259 0.0
H649 H 0.29691 0.42128 0.31878 0.0
H650 H 0.25981 0.37893 0.25666 0.0
H651 H 0.31446 0.38937 0.32482 0.0
H652 H 0.31163 0.21268 0.25593 0.0
H653 H 0.29513 0.13809 0.201 0.0
H654 H 0.33563 0.18543 0.2585 0.0
H655 H 0.27077 0.1657 0.19871 0.0
Eu656 Eu 0.54339 0.55801 0.02709 0.0
Eu657 Eu 0.55795 0.51241 0.0029 0.0
C658 C 0.59271 0.5618 0.00687 0.0
C659 C 0.53195 0.61393 0.02585 0.0
C660 C 0.54745 0.61381 0.00917 0.0
C661 C 0.52125 0.64695 0.01405 0.0
C662 C 0.55029 0.63033 0.99546 0.0
C663 C 0.51854 0.63033 0.02803 0.0
C664 C 0.5374 0.64724 0.9978 0.0
C665 C 0.52936 0.59568 0.03941 0.0
O666 O 0.56451 0.51338 0.04226 0.0
O667 O 0.56244 0.55012 0.05834 0.0
C668 C 0.56782 0.53039 0.06044 0.0
O669 O 0.51812 0.529 0.03663 0.0
O670 O 0.58302 0.49108 0.00144 0.0
O671 O 0.55073 0.47816 0.98132 0.0
O672 O 0.52023 0.50272 0.00495 0.0
C673 C 0.50919 0.51001 0.02203 0.0
O674 O 0.53231 0.55449 0.98819 0.0
O675 O 0.54607 0.52413 0.97025 0.0
O676 O 0.58766 0.53979 0.99765 0.0
O677 O 0.51587 0.57637 0.0293 0.0
O678 O 0.54834 0.5924 0.04814 0.0
O679 O 0.57876 0.57168 0.019 0.0
C680 C 0.56466 0.45314 0.00145 0.0
C681 C 0.54615 0.44988 0.01468 0.0
C682 C 0.57676 0.42098 0.01378 0.0
C683 C 0.54271 0.43208 0.02696 0.0
C684 C 0.58007 0.43873 0.00119 0.0
C685 C 0.55792 0.41747 0.02655 0.0
C686 C 0.56877 0.47296 0.98993 0.0
C687 C 0.53519 0.54083 0.969 0.0
H688 H 0.55762 0.60099 0.00682 0.0
H689 H 0.51087 0.65963 0.01606 0.0
H690 H 0.56318 0.63021 0.98353 0.0
H691 H 0.5061 0.63029 0.04045 0.0
H692 H 0.53441 0.46125 0.0157 0.0
H693 H 0.58865 0.40981 0.0133 0.0
H694 H 0.52823 0.4298 0.03694 0.0
H695 H 0.59469 0.44134 0.99146 0.0
Eu696 Eu 0.82894 0.30394 0.26776 0.0
Eu697 Eu 0.78134 0.27021 0.26387 0.0
C698 C 0.80206 0.30359 0.31255 0.0
C699 C 0.89142 0.32951 0.27791 0.0
C700 C 0.90003 0.33748 0.30094 0.0
C701 C 0.92452 0.3134 0.27067 0.0
C702 C 0.92018 0.3328 0.30891 0.0
C703 C 0.90408 0.31782 0.26269 0.0
C704 C 0.93238 0.3204 0.29396 0.0
C705 C 0.8685 0.33184 0.27075 0.0
O706 O 0.76953 0.30441 0.2617 0.0
O707 O 0.80401 0.32765 0.25976 0.0
C708 C 0.78162 0.32512 0.26028 0.0
O709 O 0.8264 0.27902 0.23442 0.0
O710 O 0.75016 0.25613 0.27823 0.0
O711 O 0.75695 0.24048 0.24454 0.0
O712 O 0.78842 0.27174 0.22719 0.0
C713 C 0.8083 0.27022 0.22026 0.0
O714 O 0.84062 0.27019 0.27304 0.0
O715 O 0.80584 0.24564 0.26915 0.0
O716 O 0.78418 0.29107 0.29959 0.0
O717 O 0.8585 0.31912 0.25146 0.0
O718 O 0.8548 0.33225 0.28686 0.0
O719 O 0.82207 0.3064 0.30483 0.0
C720 C 0.72061 0.24698 0.24911 0.0
C721 C 0.72069 0.2567 0.2293 0.0
C722 C 0.68157 0.2496 0.2523 0.0
C723 C 0.70129 0.26242 0.22085 0.0
C724 C 0.70101 0.24364 0.26069 0.0
C725 C 0.68161 0.25883 0.23222 0.0
C726 C 0.74165 0.24274 0.25881 0.0
C727 C 0.82833 0.24881 0.27152 0.0
H728 H 0.89084 0.3468 0.31304 0.0
H729 H 0.93387 0.304 0.25883 0.0
H730 H 0.92622 0.33884 0.32685 0.0
H731 H 0.89795 0.3116 0.2448 0.0
H732 H 0.73579 0.26009 0.22038 0.0
H733 H 0.66639 0.24654 0.26117 0.0
H734 H 0.70164 0.26964 0.20541 0.0
H735 H 0.70083 0.23662 0.27625 0.0
Eu736 Eu 0.05418 0.53245 0.5354 0.0
Eu737 Eu 0.04688 0.5401 0.48272 0.0
C738 C 0.04965 0.58197 0.5251 0.0
C739 C 0.03483 0.52017 0.58924 0.0
C740 C 0.01889 0.53391 0.58774 0.0
C741 C 0.01036 0.4973 0.61121 0.0
C742 C 0.99911 0.5298 0.59863 0.0
C743 C 0.03028 0.50163 0.60065 0.0
C744 C 0.9949 0.5116 0.61059 0.0
C745 C 0.05417 0.52266 0.57573 0.0
O746 O 0.08549 0.54958 0.49108 0.0
O747 O 0.09023 0.54275 0.52782 0.0
C748 C 0.09855 0.54854 0.5092 0.0
O749 O 0.06574 0.50545 0.51231 0.0
O750 O 0.03448 0.55601 0.45598 0.0
O751 O 0.05092 0.52743 0.44706 0.0
O752 O 0.03961 0.5023 0.48284 0.0
C753 C 0.05413 0.49373 0.49354 0.0
O754 O 0.01593 0.52305 0.52676 0.0
O755 O 0.01103 0.53398 0.49209 0.0
O756 O 0.04668 0.5747 0.50293 0.0
O757 O 0.05143 0.50693 0.55715 0.0
O758 O 0.06241 0.54344 0.57226 0.0
O759 O 0.0544 0.56958 0.53981 0.0
C760 C 0.0612 0.55847 0.42889 0.0
C761 C 0.07137 0.54702 0.41125 0.0
C762 C 0.08957 0.59366 0.43001 0.0
C763 C 0.09088 0.55852 0.4036 0.0
C764 C 0.07017 0.58198 0.43805 0.0
C765 C 0.10035 0.58175 0.41323 0.0
C766 C 0.04436 0.54466 0.44037 0.0
C767 C 1.00282 0.52662 0.51004 0.0
H768 H 0.02175 0.54783 0.57823 0.0
H769 H 0.0076 0.48355 0.62094 0.0
H770 H 0.9875 0.54121 0.59841 0.0
H771 H 0.04212 0.49051 0.60131 0.0
H772 H 0.06481 0.52889 0.40413 0.0
H773 H 0.09634 0.61174 0.43709 0.0
H774 H 0.09856 0.54922 0.39003 0.0
H775 H 0.06272 0.59116 0.4519 0.0
Eu776 Eu 0.78054 0.7929 0.26214 0.0
Eu777 Eu 0.82744 0.77985 0.2662 0.0
C778 C 0.7812 0.73892 0.26624 0.0
C779 C 0.7253 0.80673 0.27552 0.0
C780 C 0.7268 0.79665 0.29488 0.0
C781 C 0.69339 0.8213 0.28917 0.0
C782 C 0.7117 0.799 0.31146 0.0
C783 C 0.70861 0.81904 0.27267 0.0
C784 C 0.69494 0.81142 0.30875 0.0
C785 C 0.74272 0.80652 0.25978 0.0
O786 O 0.81646 0.76764 0.22838 0.0
O787 O 0.79114 0.79042 0.22621 0.0
C788 C 0.80346 0.77683 0.21622 0.0
O789 O 0.80667 0.82775 0.27088 0.0
O790 O 0.84773 0.75417 0.26704 0.0
O791 O 0.86405 0.79034 0.27384 0.0
O792 O 0.8355 0.81505 0.2542 0.0
C793 C 0.82616 0.83252 0.26195 0.0
O794 O 0.78435 0.78897 0.29904 0.0
O795 O 0.82279 0.79737 0.30207 0.0
O796 O 0.8033 0.74639 0.27153 0.0
O797 O 0.76202 0.82012 0.26816 0.0
O798 O 0.7449 0.78625 0.24959 0.0
O799 O 0.76924 0.75339 0.26035 0.0
C800 C 0.88267 0.76434 0.25306 0.0
C801 C 0.88052 0.77035 0.23147 0.0
C802 C 0.91425 0.74756 0.24202 0.0
C803 C 0.89545 0.76531 0.21531 0.0
C804 C 0.89936 0.7527 0.2582 0.0
C805 C 0.91255 0.75403 0.22055 0.0
C806 C 0.86683 0.76925 0.26981 0.0
C807 C 0.80369 0.79542 0.31167 0.0
H808 H 0.73988 0.7873 0.29734 0.0
H809 H 0.68023 0.8305 0.28647 0.0
H810 H 0.71318 0.79125 0.3264 0.0
H811 H 0.70751 0.82708 0.25786 0.0
H812 H 0.86738 0.77903 0.22718 0.0
H813 H 0.92752 0.73915 0.24655 0.0
H814 H 0.89377 0.77035 0.19883 0.0
H815 H 0.90097 0.74775 0.27475 0.0
Eu816 Eu 0.79986 0.29495 0.7473 0.0
Eu817 Eu 0.78451 0.29547 0.80053 0.0
C818 C 0.75024 0.2949 0.75847 0.0
C819 C 0.81453 0.31482 0.69194 0.0
C820 C 0.79482 0.32096 0.68423 0.0
C821 C 0.83691 0.34275 0.67258 0.0
C822 C 0.79611 0.33768 0.67073 0.0
C823 C 0.83559 0.32579 0.68599 0.0
C824 C 0.81714 0.3489 0.66486 0.0
C825 C 0.81347 0.29781 0.70695 0.0
O826 O 0.79012 0.26015 0.78736 0.0
O827 O 0.78228 0.25899 0.74886 0.0
C828 C 0.78441 0.24876 0.76629 0.0
O829 O 0.82581 0.28194 0.76531 0.0
O830 O 0.75858 0.2829 0.82203 0.0
O831 O 0.79001 0.30591 0.83775 0.0
O832 O 0.82232 0.3002 0.80191 0.0
C833 C 0.83363 0.28997 0.78661 0.0
O834 O 0.81179 0.33005 0.76856 0.0
O835 O 0.78488 0.33109 0.79419 0.0
O836 O 0.75397 0.28454 0.77533 0.0
O837 O 0.82689 0.30457 0.72585 0.0
O838 O 0.79339 0.28646 0.71013 0.0
O839 O 0.76694 0.30612 0.74898 0.0
C840 C 0.77458 0.27473 0.85515 0.0
C841 C 0.79227 0.26308 0.85186 0.0
C842 C 0.76103 0.25178 0.88327 0.0
C843 C 0.79465 0.2463 0.86459 0.0
C844 C 0.75881 0.26883 0.87071 0.0
C845 C 0.77913 0.24064 0.88045 0.0
C846 C 0.77161 0.29158 0.84095 0.0
C847 C 0.79946 0.34124 0.78171 0.0
H848 H 0.77834 0.31287 0.68859 0.0
H849 H 0.85336 0.35111 0.66838 0.0
H850 H 0.78048 0.34153 0.66456 0.0
H851 H 0.85103 0.32137 0.69188 0.0
H852 H 0.80426 0.26697 0.83945 0.0
H853 H 0.74898 0.24766 0.89556 0.0
H854 H 0.80864 0.23778 0.86215 0.0
H855 H 0.74482 0.27736 0.87308 0.0
Eu856 Eu 0.80529 0.80859 0.77616 0.0
Eu857 Eu 0.78668 0.75528 0.7498 0.0
C858 C 0.79457 0.79693 0.72173 0.0
C859 C 0.80414 0.86871 0.79628 0.0
C860 C 0.78409 0.86271 0.78163 0.0
C861 C 0.80025 0.9082 0.80473 0.0
C862 C 0.77256 0.87948 0.77798 0.0
C863 C 0.81201 0.89134 0.80822 0.0
C864 C 0.78085 0.90233 0.78913 0.0
C865 C 0.81682 0.85106 0.79775 0.0
O866 O 0.82352 0.75993 0.76091 0.0
O867 O 0.83435 0.79817 0.75994 0.0
C868 C 0.83892 0.77787 0.75859 0.0
O869 O 0.81395 0.78667 0.80099 0.0
O870 O 0.78763 0.7281 0.72067 0.0
O871 O 0.76719 0.7202 0.74809 0.0
O872 O 0.78435 0.75619 0.78792 0.0
C873 C 0.79956 0.76837 0.80444 0.0
O874 O 0.76879 0.79799 0.78106 0.0
O875 O 0.75569 0.77005 0.74914 0.0
O876 O 0.79734 0.77609 0.72254 0.0
O877 O 0.8065 0.83429 0.80708 0.0
O878 O 0.82488 0.84362 0.77865 0.0
O879 O 0.79155 0.81086 0.74044 0.0
C880 C 0.78905 0.69426 0.73358 0.0
C881 C 0.80741 0.70009 0.75039 0.0
C882 C 0.79655 0.65611 0.72292 0.0
C883 C 0.82035 0.6842 0.75339 0.0
C884 C 0.78371 0.67226 0.71972 0.0
C885 C 0.81493 0.66194 0.73991 0.0
C886 C 0.77658 0.71188 0.73022 0.0
C887 C 0.75224 0.78503 0.76659 0.0
H888 H 0.77779 0.84517 0.77243 0.0
H889 H 0.80681 0.92591 0.81331 0.0
H890 H 0.75757 0.87478 0.76593 0.0
H891 H 0.82744 0.89604 0.81963 0.0
H892 H 0.81179 0.71701 0.76122 0.0
H893 H 0.7919 0.639 0.71239 0.0
H894 H 0.83464 0.68939 0.7663 0.0
H895 H 0.76966 0.6676 0.70655 0.0
Eu896 Eu 0.56526 0.56206 0.52148 0.0
Eu897 Eu 0.53822 0.51074 0.50704 0.0
C898 C 0.56772 0.53433 0.46831 0.0
C899 C 0.58143 0.62233 0.51873 0.0
C900 C 0.56586 0.61465 0.49931 0.0
C901 C 0.58136 0.66176 0.5165 0.0
C902 C 0.55766 0.6303 0.48883 0.0
C903 C 0.58952 0.64588 0.52718 0.0
C904 C 0.56501 0.65394 0.49754 0.0
C905 C 0.5865 0.60508 0.53101 0.0
O906 O 0.57311 0.50633 0.51998 0.0
O907 O 0.59339 0.54338 0.52503 0.0
C908 C 0.59269 0.52136 0.5234 0.0
O909 O 0.55494 0.55419 0.55687 0.0
O910 O 0.52987 0.47733 0.48355 0.0
O911 O 0.51287 0.48224 0.51429 0.0
O912 O 0.52743 0.52202 0.54355 0.0
C913 C 0.53694 0.53909 0.56063 0.0
O914 O 0.52892 0.56611 0.51458 0.0
O915 O 0.51172 0.52951 0.49643 0.0
O916 O 0.55826 0.51535 0.47541 0.0
O917 O 0.56997 0.59653 0.54219 0.0
O918 O 0.59445 0.58908 0.51865 0.0
O919 O 0.56809 0.55451 0.48175 0.0
C920 C 0.52774 0.44978 0.50661 0.0
C921 C 0.54391 0.45706 0.5256 0.0
C922 C 0.53173 0.41053 0.50495 0.0
C923 C 0.55396 0.44143 0.53415 0.0
C924 C 0.52188 0.4265 0.49598 0.0
C925 C 0.54752 0.41799 0.52437 0.0
C926 C 0.51824 0.46733 0.49816 0.0
C927 C 0.51067 0.55096 0.50457 0.0
H928 H 0.55919 0.59643 0.49287 0.0
H929 H 0.58729 0.68001 0.52335 0.0
H930 H 0.54471 0.62381 0.4746 0.0
H931 H 0.60142 0.65189 0.54232 0.0
H932 H 0.5485 0.4749 0.53423 0.0
H933 H 0.5266 0.39241 0.4972 0.0
H934 H 0.56642 0.44763 0.54884 0.0
H935 H 0.50959 0.42073 0.48114 0.0
Eu936 Eu 0.07425 0.52752 0.00177 0.0
Eu937 Eu 0.01862 0.53665 0.02526 0.0
C938 C 0.0564 0.5148 0.05117 0.0
C939 C 0.12098 0.49591 0.98271 0.0
C940 C 0.11764 0.4797 0.99717 0.0
C941 C 0.15715 0.4865 0.97463 0.0
C942 C 0.134 0.46696 0.00033 0.0
C943 C 0.14082 0.4992 0.97149 0.0
C944 C 0.15397 0.47024 0.9891 0.0
C945 C 0.10413 0.50961 0.97912 0.0
O946 O 0.05468 0.54851 0.02635 0.0
O947 O 0.08821 0.56408 0.02155 0.0
C948 C 0.07014 0.56704 0.03112 0.0
O949 O 0.05778 0.54794 0.98023 0.0
O950 O 0.01004 0.56657 0.04588 0.0
O951 O 0.98504 0.53387 0.03723 0.0
O952 O 0.01985 0.54542 0.9899 0.0
C953 C 0.03655 0.54991 0.97654 0.0
O954 O 0.03802 0.50993 0.99037 0.0
O955 O 0.01104 0.4988 0.01296 0.0
O956 O 0.03847 0.52432 0.05172 0.0
O957 O 0.08285 0.49927 0.97831 0.0
O958 O 0.1084 0.53072 0.99076 0.0
O959 O 0.07012 0.51341 0.03448 0.0
C960 C 0.97159 0.56824 0.04262 0.0
C961 C 0.96579 0.57127 0.02043 0.0
C962 C 0.94401 0.58965 0.05728 0.0
C963 C 0.94909 0.58341 0.01668 0.0
C964 C 0.96061 0.57742 0.06098 0.0
C965 C 0.9381 0.59279 0.03509 0.0
C966 C 0.98917 0.55575 0.04699 0.0
C967 C 0.02636 0.49369 -0.00045 0.0
H968 H 0.10242 0.47692 0.00603 0.0
H969 H 0.1725 0.48975 0.96606 0.0
H970 H 0.13097 0.45447 0.01146 0.0
H971 H 0.14374 0.51173 0.96037 0.0
H972 H 0.97423 0.56436 0.00608 0.0
H973 H 0.93568 0.59651 0.07173 0.0
H974 H 0.94504 0.58581 -0.00055 0.0
H975 H 0.96492 0.57517 0.07821 0.0
C976 C 0.03042 0.25324 0.94605 0.0
C977 C 0.0086 0.2564 0.94989 0.0
C978 C 0.03892 0.23683 0.95526 0.0
C979 C 0.02521 0.22351 0.96864 0.0
C980 C 1.00323 0.22668 0.97274 0.0
C981 C 0.99516 0.24335 0.96335 0.0
C982 C 0.06253 0.23381 0.95067 0.0
C983 C 0.98833 0.21249 0.98695 0.0
C984 C 0.04239 0.16877 0.97519 0.0
C985 C 0.05547 0.17585 0.99634 0.0
C986 C 0.03178 0.18404 0.96614 0.0
C987 C 0.03431 0.20664 0.97877 0.0
C988 C 0.04708 0.21375 0.0003 0.0
C989 C 0.05765 0.19819 0.00883 0.0
C990 C 0.01843 0.1763 0.9429 0.0
C991 C 0.05016 0.23796 0.01391 0.0
H992 H 0.04097 0.26366 0.93591 0.0
H993 H 0.97831 0.24596 0.9663 0.0
H994 H 0.07328 0.23711 0.96708 0.0
H995 H 0.0619 0.2158 0.94211 0.0
H996 H 0.07079 0.24558 0.93967 0.0
H997 H 0.97149 0.21693 0.98809 0.0
H998 H 0.98581 0.19389 0.97944 0.0
H999 H 0.99669 0.21519 0.00454 0.0
H1000 H 0.04046 0.1513 0.96576 0.0
H1001 H 0.06797 0.20361 0.02508 0.0
H1002 H 0.02674 0.18638 0.93057 0.0
H1003 H 1.00115 0.17961 0.94395 0.0
H1004 H 0.017 0.15769 0.93598 0.0
H1005 H 0.05987 0.25043 0.00444 0.0
H1006 H 0.05931 0.24014 0.03109 0.0
H1007 H 0.03347 0.24245 0.01616 0.0
C1008 C 0.16465 0.79422 0.16778 0.0
C1009 C 0.1443 0.77773 0.16336 0.0
C1010 C 0.17788 0.79752 0.18837 0.0
C1011 C 0.17051 0.78373 0.20462 0.0
C1012 C 0.14906 0.76851 0.20113 0.0
C1013 C 0.13608 0.76563 0.18034 0.0
C1014 C 0.20067 0.81419 0.19171 0.0
C1015 C 0.14069 0.75394 0.21842 0.0
C1016 C 0.22217 0.76973 0.22928 0.0
C1017 C 0.22782 0.78728 0.24852 0.0
C1018 C 0.20187 0.76667 0.21599 0.0
C1019 C 0.18734 0.78184 0.22227 0.0
C1020 C 0.1921 0.7982 0.243 0.0
C1021 C 0.21264 0.80084 0.25602 0.0
C1022 C 0.19728 0.74893 0.19398 0.0
C1023 C 0.17671 0.81432 0.25024 0.0
H1024 H 0.17061 0.80405 0.15485 0.0
H1025 H 0.12008 0.75311 0.17698 0.0
H1026 H 0.20326 0.82528 0.209 0.0
H1027 H 0.2143 0.80441 0.19031 0.0
H1028 H 0.2025 0.82547 0.17874 0.0
H1029 H 0.12212 0.74693 0.21551 0.0
H1030 H 0.14918 0.73922 0.21704 0.0
H1031 H 0.14487 0.76404 0.23614 0.0
H1032 H 0.23422 0.75926 0.22397 0.0
H1033 H 0.21738 0.81429 0.27119 0.0
H1034 H 0.19955 0.7578 0.17915 0.0
H1035 H 0.1796 0.73878 0.1921 0.0
H1036 H 0.20888 0.73685 0.19317 0.0
H1037 H 0.18035 0.82908 0.24122 0.0
H1038 H 0.17942 0.82126 0.26898 0.0
H1039 H 0.15866 0.80556 0.24568 0.0
C1040 C 0.53788 0.85944 0.47312 0.0
C1041 C 0.53265 0.85678 0.44951 0.0
C1042 C 0.54643 0.8814 0.48626 0.0
C1043 C 0.54803 0.90058 0.47548 0.0
C1044 C 0.54615 0.89758 0.45127 0.0
C1045 C 0.53863 0.8754 0.43843 0.0
C1046 C 0.55114 0.88429 0.51184 0.0
C1047 C 0.54879 0.9178 0.43908 0.0
C1048 C 0.51636 0.94584 0.49495 0.0
C1049 C 0.53364 0.96529 0.49654 0.0
C1050 C 0.52125 0.92402 0.49052 0.0
C1051 C 0.54408 0.92215 0.48841 0.0
C1052 C 0.56183 0.94197 0.49332 0.0
C1053 C 0.55632 0.96348 0.49691 0.0
C1054 C 0.50171 0.90321 0.48542 0.0
C1055 C 0.58645 0.94089 0.4929 0.0
H1056 H 0.53418 0.84462 0.48138 0.0
H1057 H 0.53515 0.87297 0.41999 0.0
H1058 H 0.56518 0.89944 0.5185 0.0
H1059 H 0.53585 0.88719 0.52032 0.0
H1060 H 0.55557 0.86864 0.51654 0.0
H1061 H 0.54866 0.91238 0.42023 0.0
H1062 H 0.53471 0.92674 0.44251 0.0
H1063 H 0.56489 0.93038 0.44551 0.0
H1064 H 0.49894 0.94766 0.49528 0.0
H1065 H 0.56976 0.97884 0.49911 0.0
H1066 H 0.50442 0.89026 0.49573 0.0
H1067 H 0.50048 0.895 0.46705 0.0
H1068 H 0.48526 0.90777 0.48913 0.0
H1069 H 0.59612 0.95165 0.50884 0.0
H1070 H 0.59357 0.9484 0.47838 0.0
H1071 H 0.5892 0.92312 0.49141 0.0
C1072 C 0.53124 0.24633 0.67271 0.0
C1073 C 0.53431 0.25064 0.65058 0.0
C1074 C 0.51099 0.24787 0.68256 0.0
C1075 C 0.49347 0.254 0.67 0.0
C1076 C 0.4962 0.25779 0.64743 0.0
C1077 C 0.51658 0.25595 0.63792 0.0
C1078 C 0.50856 0.24351 0.70664 0.0
C1079 C 0.47789 0.26449 0.63363 0.0
C1080 C 0.43643 0.2406 0.69344 0.0
C1081 C 0.43633 0.26173 0.70758 0.0
C1082 C 0.45438 0.23815 0.68 0.0
C1083 C 0.4727 0.25722 0.68102 0.0
C1084 C 0.47207 0.2789 0.69437 0.0
C1085 C 0.4538 0.2809 0.70747 0.0
C1086 C 0.45427 0.21488 0.66562 0.0
C1087 C 0.49129 0.29964 0.6959 0.0
H1088 H 0.54483 0.24212 0.68253 0.0
H1089 H 0.51887 0.2594 0.62083 0.0
H1090 H 0.5063 0.25935 0.71804 0.0
H1091 H 0.49328 0.2298 0.70686 0.0
H1092 H 0.52351 0.23822 0.71381 0.0
H1093 H 0.48227 0.26585 0.61596 0.0
H1094 H 0.4617 0.25165 0.6326 0.0
H1095 H 0.47501 0.28135 0.64227 0.0
H1096 H 0.42267 0.22587 0.69328 0.0
H1097 H 0.45371 0.29722 0.71848 0.0
H1098 H 0.46735 0.20731 0.67324 0.0
H1099 H 0.45854 0.21666 0.64803 0.0
H1100 H 0.4376 0.2027 0.66448 0.0
H1101 H 0.50637 0.297 0.70557 0.0
H1102 H 0.48694 0.31576 0.70472 0.0
H1103 H 0.49607 0.30187 0.67857 0.0
C1104 C 0.99518 0.82258 0.58333 0.0
C1105 C 0.00687 0.80973 0.59504 0.0
C1106 C 0.00697 0.84053 0.5736 0.0
C1107 C 0.03096 0.84559 0.57555 0.0
C1108 C 0.04285 0.8328 0.58748 0.0
C1109 C 0.03066 0.81507 0.59716 0.0
C1110 C 0.99376 0.85399 0.56106 0.0
C1111 C 0.06842 0.83777 0.58995 0.0
C1112 C 0.05569 0.87679 0.52985 0.0
C1113 C 0.05973 0.8998 0.54126 0.0
C1114 C 0.04767 0.85876 0.54129 0.0
C1115 C 0.04342 0.86398 0.56457 0.0
C1116 C 0.04914 0.88704 0.57664 0.0
C1117 C 0.05738 0.9047 0.56484 0.0
C1118 C 0.04229 0.83426 0.52806 0.0
C1119 C 0.04509 0.89324 0.60156 0.0
H1120 H 0.97684 0.81858 0.58171 0.0
H1121 H 0.03986 0.80524 0.60624 0.0
H1122 H 0.99877 0.8726 0.56887 0.0
H1123 H 0.99774 0.85219 0.54293 0.0
H1124 H 0.97519 0.84813 0.5614 0.0
H1125 H 0.07504 0.82533 0.59865 0.0
H1126 H 0.07503 0.83719 0.57287 0.0
H1127 H 0.0752 0.8554 0.60002 0.0
H1128 H 0.05742 0.87288 0.51163 0.0
H1129 H 0.06099 0.92247 0.57384 0.0
H1130 H 0.02367 0.82764 0.52564 0.0
H1131 H 0.04952 0.82294 0.53775 0.0
H1132 H 0.04893 0.83293 0.51093 0.0
H1133 H 0.02661 0.8904 0.60316 0.0
H1134 H 0.05297 0.91153 0.6091 0.0
H1135 H 0.05186 0.88202 0.61175 0.0
C1136 C 0.53058 0.82554 0.87719 0.0
C1137 C 0.54946 0.81634 0.87197 0.0
C1138 C 0.51381 0.82505 0.86001 0.0
C1139 C 0.51592 0.81492 0.83712 0.0
C1140 C 0.53493 0.80562 0.83166 0.0
C1141 C 0.55153 0.80641 0.84921 0.0
C1142 C 0.49372 0.83521 0.86644 0.0
C1143 C 0.53768 0.79482 0.80737 0.0
C1144 C 0.45932 0.79436 0.8029 0.0
C1145 C 0.4574 0.81403 0.79414 0.0
C1146 C 0.47896 0.79382 0.8159 0.0
C1147 C 0.49741 0.81304 0.81931 0.0
C1148 C 0.4966 0.83176 0.8082 0.0
C1149 C 0.47641 0.83219 0.7959 0.0
C1150 C 0.47912 0.77365 0.82771 0.0
C1151 C 0.51632 0.85222 0.81093 0.0
H1152 H 0.52901 0.83338 0.8947 0.0
H1153 H 0.56615 0.7993 0.84507 0.0
H1154 H 0.49189 0.84839 0.85606 0.0
H1155 H 0.47799 0.82149 0.86271 0.0
H1156 H 0.49523 0.84338 0.88486 0.0
H1157 H 0.55416 0.78964 0.8058 0.0
H1158 H 0.52388 0.77934 0.80135 0.0
H1159 H 0.53637 0.80707 0.79575 0.0
H1160 H 0.44485 0.77997 0.80094 0.0
H1161 H 0.47507 0.84742 0.78912 0.0
H1162 H 0.47921 0.77941 0.84649 0.0
H1163 H 0.49465 0.76701 0.8247 0.0
H1164 H 0.46412 0.75931 0.82181 0.0
H1165 H 0.51746 0.86281 0.82836 0.0
H1166 H 0.51448 0.86329 0.7982 0.0
H1167 H 0.53248 0.84647 0.80908 0.0
C1168 C 0.51678 0.19589 0.08391 0.0
C1169 C 0.49331 0.19364 0.08132 0.0
C1170 C 0.52666 0.1784 0.07326 0.0
C1171 C 0.51277 0.15901 0.05863 0.0
C1172 C 0.48947 0.15815 0.05367 0.0
C1173 C 0.47977 0.17525 0.06577 0.0
C1174 C 0.55127 0.1794 0.08 0.0
C1175 C 0.47444 0.1381 0.03738 0.0
C1176 C 0.54304 0.11641 0.02628 0.0
C1177 C 0.54053 0.09947 0.03992 0.0
C1178 C 0.53369 0.13578 0.03189 0.0
C1179 C 0.52188 0.13827 0.05169 0.0
C1180 C 0.51964 0.12143 0.06574 0.0
C1181 C 0.529 0.10219 0.05964 0.0
C1182 C 0.53613 0.15338 0.01651 0.0
C1183 C 0.50767 0.12382 0.08741 0.0
H1184 H 0.52705 0.20997 0.09647 0.0
H1185 H 0.46157 0.17353 0.06413 0.0
H1186 H 0.55239 0.16662 0.09109 0.0
H1187 H 0.56028 0.17485 0.0647 0.0
H1188 H 0.56019 0.19671 0.08959 0.0
H1189 H 0.45804 0.14206 0.03223 0.0
H1190 H 0.48298 0.13332 0.02177 0.0
H1191 H 0.47091 0.12288 0.04578 0.0
H1192 H 0.55177 0.11426 0.01087 0.0
H1193 H 0.52705 0.08914 0.07022 0.0
H1194 H 0.5454 0.17045 0.02622 0.0
H1195 H 0.51915 0.15536 0.01048 0.0
H1196 H 0.5453 0.14854 0.00136 0.0
H1197 H 0.51756 0.13865 0.10019 0.0
H1198 H 0.50555 0.10812 0.09511 0.0
H1199 H 0.4907 0.12731 0.08396 0.0
C1200 C 0.17241 0.33867 0.34761 0.0
C1201 C 0.16062 0.32182 0.35866 0.0
C1202 C 0.18656 0.33287 0.3307 0.0
C1203 C 0.18845 0.30967 0.3246 0.0
C1204 C 0.17629 0.29257 0.33545 0.0
C1205 C 0.16265 0.2989 0.35251 0.0
C1206 C 0.19986 0.35154 0.31975 0.0
C1207 C 0.17797 0.26764 0.32932 0.0
C1208 C 0.21229 0.28853 0.26936 0.0
C1209 C 0.23402 0.28802 0.27779 0.0
C1210 C 0.19716 0.29601 0.28445 0.0
C1211 C 0.2044 0.30334 0.30812 0.0
C1212 C 0.22659 0.30316 0.31644 0.0
C1213 C 0.24107 0.29525 0.30111 0.0
C1214 C 0.17342 0.29571 0.27525 0.0
C1215 C 0.23497 0.31101 0.34153 0.0
H1216 H 0.17086 0.35641 0.35243 0.0
H1217 H 0.15337 0.28579 0.36089 0.0
H1218 H 0.21827 0.35276 0.32327 0.0
H1219 H 0.19595 0.34718 0.30087 0.0
H1220 H 0.19617 0.36868 0.32616 0.0
H1221 H 0.16623 0.25627 0.33837 0.0
H1222 H 0.17413 0.26128 0.31058 0.0
H1223 H 0.19549 0.26609 0.33383 0.0
H1224 H 0.20717 0.283 0.25117 0.0
H1225 H 0.25802 0.29479 0.30735 0.0
H1226 H 0.16999 0.31323 0.27954 0.0
H1227 H 0.16101 0.28418 0.28347 0.0
H1228 H 0.17058 0.28971 0.25637 0.0
H1229 H 0.23263 0.32872 0.34773 0.0
H1230 H 0.25315 0.31089 0.34484 0.0
H1231 H 0.22499 0.29958 0.3518 0.0
C1232 C 0.99858 0.04835 0.19241 0.0
C1233 C 0.97589 0.05022 0.1953 0.0
C1234 C 0.00827 0.04744 0.17087 0.0
C1235 C 0.9953 0.04784 0.15033 0.0
C1236 C 0.97241 0.05007 0.153 0.0
C1237 C 0.96316 0.05134 0.17504 0.0
C1238 C 0.03268 0.04569 0.17013 0.0
C1239 C 0.95731 0.05048 0.13226 0.0
C1240 C 0.02726 0.06274 0.09655 0.0
C1241 C 0.02687 0.04107 0.08249 0.0
C1242 C 0.01709 0.06517 0.11795 0.0
C1243 C 0.00567 0.04556 0.12649 0.0
C1244 C 0.00522 0.02365 0.11237 0.0
C1245 C 0.01554 0.02171 0.09103 0.0
C1246 C 0.0187 0.08905 0.13159 0.0
C1247 C 0.99369 1.00191 0.11987 0.0
H1248 H 0.00906 0.04734 0.20734 0.0
H1249 H 0.94561 0.05233 0.17614 0.0
H1250 H 0.03374 0.02927 0.15894 0.0
H1251 H 0.04227 0.05993 0.16263 0.0
H1252 H 0.04101 0.04641 0.18739 0.0
H1253 H 0.94031 0.05295 0.1367 0.0
H1254 H 0.96523 0.06455 0.12357 0.0
H1255 H 0.95527 0.03403 0.11981 0.0
H1256 H 0.03557 0.07814 0.09077 0.0
H1257 H 0.01461 0.00473 0.08091 0.0
H1258 H 0.02791 0.09085 0.14864 0.0
H1259 H 1.0015 0.09187 0.13456 0.0
H1260 H 0.02757 0.10269 0.12286 0.0
H1261 H 1.00229 1.00059 0.13634 0.0
H1262 H 0.99381 0.98619 0.10703 0.0
H1263 H 0.9759 1.00249 0.12287 0.0
C1264 C 0.30852 0.6488 0.45321 0.0
C1265 C 0.30809 0.65808 0.47637 0.0
C1266 C 0.305 0.66165 0.4363 0.0
C1267 C 0.30048 0.68389 0.44292 0.0
C1268 C 0.30058 0.69339 0.46641 0.0
C1269 C 0.30456 0.6804 0.48283 0.0
C1270 C 0.30514 0.65112 0.41139 0.0
C1271 C 0.29538 0.71681 0.47421 0.0
C1272 C 0.30871 0.7283 0.40482 0.0
C1273 C 0.28637 0.72752 0.39684 0.0
C1274 C 0.31358 0.71353 0.41911 0.0
C1275 C 0.29566 0.69752 0.42554 0.0
C1276 C 0.27304 0.69627 0.41713 0.0
C1277 C 0.26864 0.71139 0.4029 0.0
C1278 C 0.33783 0.71566 0.42803 0.0
C1279 C 0.2535 0.67933 0.42358 0.0
H1280 H 0.31057 0.63124 0.4483 0.0
H1281 H 0.30362 0.6872 0.5008 0.0
H1282 H 0.28783 0.64774 0.40267 0.0
H1283 H 0.31633 0.66328 0.40267 0.0
H1284 H 0.31093 0.63465 0.40919 0.0
H1285 H 0.29692 0.72198 0.49318 0.0
H1286 H 0.30696 0.73011 0.46717 0.0
H1287 H 0.27787 0.71661 0.46763 0.0
H1288 H 0.32241 0.74098 0.40039 0.0
H1289 H 0.25138 0.71063 0.39652 0.0
H1290 H 0.34231 0.69856 0.42474 0.0
H1291 H 0.33992 0.72192 0.44686 0.0
H1292 H 0.34993 0.7278 0.42007 0.0
H1293 H 0.25584 0.66149 0.41819 0.0
H1294 H 0.23694 0.68054 0.41557 0.0
H1295 H 0.253 0.68244 0.44247 0.0
C1296 C 0.63745 0.02738 0.65466 0.0
C1297 C 0.62749 0.03342 0.67476 0.0
C1298 C 0.62411 0.02057 0.63379 0.0
C1299 C 0.60057 0.01948 0.63371 0.0
C1300 C 0.59032 0.02331 0.65438 0.0
C1301 C 0.60409 0.03064 0.67481 0.0
C1302 C 0.63547 0.01709 0.61184 0.0
C1303 C 0.5652 0.02205 0.65477 0.0
C1304 C 0.5738 0.0405 0.58607 0.0
C1305 C 0.5634 0.01968 0.5718 0.0
C1306 C 0.58631 0.04058 0.60627 0.0
C1307 C 0.58759 0.01924 0.61236 0.0
C1308 C 0.57642 0.99813 0.59828 0.0
C1309 C 0.56473 0.9986 0.57764 0.0
C1310 C 0.59852 0.06346 0.62075 0.0
C1311 C 0.57701 0.97526 0.60495 0.0
H1312 H 0.6557 0.02967 0.65509 0.0
H1313 H 0.59672 0.03518 0.69075 0.0
H1314 H 0.62586 1.00166 0.59964 0.0
H1315 H 0.63586 0.03221 0.60351 0.0
H1316 H 0.65314 0.01518 0.61498 0.0
H1317 H 0.55952 0.02095 0.67207 0.0
H1318 H 0.56121 0.03777 0.64986 0.0
H1319 H 0.55538 0.00694 0.64227 0.0
H1320 H 0.57295 0.05667 0.5809 0.0
H1321 H 0.55662 0.98265 0.56611 0.0
H1322 H 0.61692 0.06405 0.62302 0.0
H1323 H 0.59231 0.06552 0.63803 0.0
H1324 H 0.59613 0.07835 0.61301 0.0
H1325 H 0.59452 0.9725 0.60498 0.0
H1326 H 0.56569 0.96061 0.59303 0.0
H1327 H 0.57187 0.97523 0.62257 0.0
C1328 C 0.29694 0.32824 0.94804 0.0
C1329 C 0.31753 0.32766 0.95958 0.0
C1330 C 0.29335 0.32236 0.92393 0.0
C1331 C 0.31103 0.31652 0.911 0.0
C1332 C 0.3319 0.31616 0.92261 0.0
C1333 C 0.33474 0.32133 0.94668 0.0
C1334 C 0.27065 0.32239 0.9123 0.0
C1335 C 0.35152 0.31095 0.90958 0.0
C1336 C 0.30114 0.28251 0.84959 0.0
C1337 C 0.30576 0.30011 0.83691 0.0
C1338 C 0.3017 0.28767 0.87365 0.0
C1339 C 0.30801 0.31095 0.88535 0.0
C1340 C 0.31279 0.32877 0.87248 0.0
C1341 C 0.3111 0.32313 0.84839 0.0
C1342 C 0.29564 0.26822 0.88659 0.0
C1343 C 0.32028 0.35376 0.88414 0.0
H1344 H 0.28361 0.33322 0.95789 0.0
H1345 H 0.35086 0.32127 0.9554 0.0
H1346 H 0.27266 0.33536 0.90106 0.0
H1347 H 0.2635 0.30532 0.90121 0.0
H1348 H 0.25835 0.32632 0.92479 0.0
H1349 H 0.36687 0.31209 0.92112 0.0
H1350 H 0.34678 0.29338 0.89891 0.0
H1351 H 0.35581 0.32325 0.8978 0.0
H1352 H 0.2967 0.26471 0.84063 0.0
H1353 H 0.31465 0.33673 0.8385 0.0
H1354 H 0.28255 0.27157 0.89831 0.0
H1355 H 0.31073 0.26711 0.89732 0.0
H1356 H 0.28919 0.25131 0.87494 0.0
H1357 H 0.30667 0.35913 0.89403 0.0
H1358 H 0.32461 0.36538 0.87172 0.0
H1359 H 0.33532 0.35606 0.89647 0.0
C1360 C 0.99998 0.05996 0.33639 0.0
C1361 C 0.97649 0.05718 0.33047 0.0
C1362 C 0.00926 0.0585 0.35859 0.0
C1363 C 0.99505 0.05326 0.37618 0.0
C1364 C 0.97128 0.05073 0.37049 0.0
C1365 C 0.96244 0.05284 0.34818 0.0
C1366 C 0.03458 0.06202 0.36296 0.0
C1367 C 0.95491 0.04477 0.38783 0.0
C1368 C 0.01894 0.02493 0.42444 0.0
C1369 C 0.02466 0.0429 0.44394 0.0
C1370 C 0.00911 0.02791 0.40298 0.0
C1371 C 0.00499 0.04968 0.39983 0.0
C1372 C 0.0111 0.06801 0.41936 0.0
C1373 C 0.02038 0.0644 0.44082 0.0
C1374 C 1.00293 0.00742 0.38352 0.0
C1375 C 0.00827 0.09185 0.4175 0.0
H1376 H 0.01137 0.06285 0.32324 0.0
H1377 H 0.9443 0.04982 0.34425 0.0
H1378 H 0.04077 0.07449 0.3792 0.0
H1379 H 0.03897 0.04548 0.36486 0.0
H1380 H 0.04364 0.06843 0.34883 0.0
H1381 H 0.93714 0.04395 0.38154 0.0
H1382 H 0.95607 0.02781 0.39199 0.0
H1383 H 0.95943 0.05772 0.40398 0.0
H1384 H 0.02178 0.00812 0.42602 0.0
H1385 H 0.02463 0.07874 0.45521 0.0
H1386 H 0.01305 0.01077 0.36899 0.0
H1387 H 0.98483 0.00464 0.37723 0.0
H1388 H 0.00589 0.99138 0.38863 0.0
H1389 H 0.01944 0.09856 0.40489 0.0
H1390 H 0.01251 0.1041 0.43417 0.0
H1391 H 0.99061 0.09125 0.41111 0.0
C1392 C 0.31811 0.70466 0.59229 0.0
C1393 C 0.32188 0.6823 0.59141 0.0
C1394 C 0.31549 0.71867 0.61301 0.0
C1395 C 0.31716 0.71054 0.63377 0.0
C1396 C 0.32201 0.68843 0.63327 0.0
C1397 C 0.32418 0.6745 0.61209 0.0
C1398 C 0.31019 0.74196 0.61253 0.0
C1399 C 0.3243 0.67925 0.65507 0.0
C1400 C 0.32951 0.75672 0.68828 0.0
C1401 C 0.3081 0.75541 0.69668 0.0
C1402 C 0.33271 0.74197 0.66822 0.0
C1403 C 0.31405 0.72546 0.65586 0.0
C1404 C 0.29229 0.72423 0.66397 0.0
C1405 C 0.28959 0.73911 0.68429 0.0
C1406 C 0.35618 0.74397 0.6603 0.0
C1407 C 0.27183 0.7072 0.65115 0.0
H1408 H 0.31632 0.71103 0.57652 0.0
H1409 H 0.32685 0.65725 0.61168 0.0
H1410 H 0.29368 0.74267 0.61951 0.0
H1411 H 0.32322 0.75574 0.62356 0.0
H1412 H 0.3094 0.74577 0.59495 0.0
H1413 H 0.32929 0.66236 0.65203 0.0
H1414 H 0.33711 0.69172 0.66767 0.0
H1415 H 0.30797 0.67717 0.6629 0.0
H1416 H 0.34405 0.76904 0.69766 0.0
H1417 H 0.27301 0.73774 0.69061 0.0
H1418 H 0.35641 0.74878 0.64315 0.0
H1419 H 0.36106 0.72707 0.65858 0.0
H1420 H 0.36911 0.75704 0.67229 0.0
H1421 H 0.26895 0.71095 0.63377 0.0
H1422 H 0.25626 0.70773 0.66009 0.0
H1423 H 0.27478 0.68945 0.64891 0.0
C1424 C 0.66499 0.0755 0.80746 0.0
C1425 C 0.6472 0.05757 0.79631 0.0
C1426 C 0.66347 0.08722 0.82949 0.0
C1427 C 0.64421 0.07995 0.84082 0.0
C1428 C 0.62648 0.06127 0.82982 0.0
C1429 C 0.62803 0.05057 0.80736 0.0
C1430 C 0.68211 0.10769 0.84023 0.0
C1431 C 0.60567 0.05287 0.84153 0.0
C1432 C 0.63856 0.08427 0.90279 0.0
C1433 C 0.62076 0.0958 0.90419 0.0
C1434 C 0.64925 0.08147 0.88262 0.0
C1435 C 0.64232 0.0913 0.86436 0.0
C1436 C 0.6282 0.10727 0.86794 0.0
C1437 C 0.61734 0.10931 0.8881 0.0
C1438 C 0.66445 0.06449 0.87943 0.0
C1439 C 0.62139 0.11895 0.84911 0.0
H1440 H 0.67948 0.08136 0.79837 0.0
H1441 H 0.61417 0.03709 0.79827 0.0
H1442 H 0.67502 0.12201 0.84917 0.0
H1443 H 0.69293 0.10263 0.85314 0.0
H1444 H 0.69302 0.11418 0.82729 0.0
H1445 H 0.59391 0.03772 0.83072 0.0
H1446 H 0.6107 0.04798 0.85784 0.0
H1447 H 0.59637 0.06684 0.84573 0.0
H1448 H 0.64138 0.07428 0.91571 0.0
H1449 H 0.60381 0.11859 0.88953 0.0
H1450 H 0.67866 0.07034 0.86936 0.0
H1451 H 0.65452 0.04763 0.86981 0.0
H1452 H 0.67145 0.06183 0.89613 0.0
H1453 H 0.63551 0.12323 0.83838 0.0
H1454 H 0.61584 0.13497 0.85624 0.0
H1455 H 0.60699 0.10714 0.83787 0.0
C1456 C 0.33183 0.33336 0.10429 0.0
C1457 C 0.3146 0.33517 0.08849 0.0
C1458 C 0.32707 0.32737 0.1256 0.0
C1459 C 0.30436 0.32229 0.13118 0.0
C1460 C 0.28682 0.32408 0.11527 0.0
C1461 C 0.29218 0.33088 0.09428 0.0
C1462 C 0.34642 0.32635 0.14213 0.0
C1463 C 0.26237 0.31847 0.12029 0.0
C1464 C 0.29365 0.28424 0.17629 0.0
C1465 C 0.29465 0.30052 0.19649 0.0
C1466 C 0.29615 0.29101 0.15489 0.0
C1467 C 0.29924 0.31463 0.15344 0.0
C1468 C 0.2993 0.33105 0.17369 0.0
C1469 C 0.2973 0.32385 0.19495 0.0
C1470 C 0.29633 0.27292 0.13392 0.0
C1471 C 0.30215 0.35634 0.17302 0.0
H1472 H 0.34924 0.33695 0.10009 0.0
H1473 H 0.27879 0.3322 0.08214 0.0
H1474 H 0.34609 0.33781 0.15881 0.0
H1475 H 0.34459 0.30857 0.14541 0.0
H1476 H 0.36317 0.3316 0.13559 0.0
H1477 H 0.25069 0.32035 0.10609 0.0
H1478 H 0.25773 0.30051 0.12323 0.0
H1479 H 0.25987 0.32997 0.13621 0.0
H1480 H 0.29175 0.2662 0.1773 0.0
H1481 H 0.29787 0.33656 0.21042 0.0
H1482 H 0.31333 0.27588 0.12745 0.0
H1483 H 0.28401 0.2742 0.12004 0.0
H1484 H 0.29219 0.25516 0.13754 0.0
H1485 H 0.31938 0.36321 0.16837 0.0
H1486 H 0.2997 0.3666 0.18975 0.0
H1487 H 0.2899 0.35881 0.15968 0.0
C1488 C 0.21575 0.98361 0.01944 0.0
C1489 C 0.21868 0.97547 0.99636 0.0
C1490 C 0.19611 0.9917 0.02584 0.0
C1491 C 0.17879 0.99194 0.00885 0.0
C1492 C 0.18208 0.98443 0.98553 0.0
C1493 C 0.20167 0.97623 0.97966 0.0
C1494 C 0.19366 0.99948 0.05091 0.0
C1495 C 0.1647 0.98488 0.96661 0.0
C1496 C 0.11641 0.99061 0.02071 0.0
C1497 C 0.11484 0.01367 0.02163 0.0
C1498 C 0.13722 0.9836 0.01779 0.0
C1499 C 0.15717 0.99978 0.01513 0.0
C1500 C 0.1558 0.02318 0.01669 0.0
C1501 C 0.13493 0.02979 0.02007 0.0
C1502 C 0.13769 0.9586 0.01687 0.0
C1503 C 0.17624 0.04121 0.01381 0.0
H1504 H 0.22856 0.98312 0.03262 0.0
H1505 H 0.20357 0.97024 0.96176 0.0
H1506 H 0.18992 0.01692 0.05397 0.0
H1507 H 0.17917 0.9876 0.05619 0.0
H1508 H 0.20913 0.99987 0.06195 0.0
H1509 H 0.16988 0.97909 0.94931 0.0
H1510 H 0.14827 0.97357 0.96858 0.0
H1511 H 0.1619 1.00261 0.96776 0.0
H1512 H 0.10125 0.97787 0.02187 0.0
H1513 H 0.13422 0.04764 0.02054 0.0
H1514 H 0.15161 0.95715 0.029 0.0
H1515 H 0.14108 0.95082 -0.00057 0.0
H1516 H 0.12149 0.94849 0.02114 0.0
H1517 H 0.19076 0.04095 0.02581 0.0
H1518 H 0.17293 0.05886 0.01685 0.0
H1519 H 0.18137 0.0373 0.99618 0.0
C1520 C 0.7171 0.6405 0.00372 0.0
C1521 C 0.71447 0.65781 0.99154 0.0
C1522 C 0.69866 0.62255 0.00532 0.0
C1523 C 0.67725 0.62165 0.99403 0.0
C1524 C 0.67494 0.63828 0.98052 0.0
C1525 C 0.69349 0.65629 0.97966 0.0
C1526 C 0.70178 0.60539 0.02019 0.0
C1527 C 0.65254 0.63772 0.96787 0.0
C1528 C 0.62852 0.56892 0.98702 0.0
C1529 C 0.61502 0.57625 0.00404 0.0
C1530 C 0.64923 0.58319 0.9839 0.0
C1531 C 0.65668 0.60513 0.99832 0.0
C1532 C 0.64353 0.61216 0.01609 0.0
C1533 C 0.62285 0.59776 0.0186 0.0
C1534 C 0.66275 0.57512 0.96475 0.0
C1535 C 0.65104 0.63519 0.03217 0.0
H1536 H 0.73328 0.64165 0.01302 0.0
H1537 H 0.69143 0.66951 0.97004 0.0
H1538 H 0.69206 0.60789 0.03538 0.0
H1539 H 0.69506 0.58752 0.01069 0.0
H1540 H 0.71983 0.60726 0.02623 0.0
H1541 H 0.65412 0.65032 0.95619 0.0
H1542 H 0.64533 0.62022 0.95768 0.0
H1543 H 0.64032 0.64178 0.98037 0.0
H1544 H 0.62266 0.55229 0.97576 0.0
H1545 H 0.61276 0.60345 0.03205 0.0
H1546 H 0.68052 0.57657 0.97139 0.0
H1547 H 0.66315 0.58632 0.9518 0.0
H1548 H 0.65553 0.55699 0.95613 0.0
H1549 H 0.66853 0.63719 0.03995 0.0
H1550 H 0.63976 0.63732 0.04615 0.0
H1551 H 0.6512 0.64931 0.02247 0.0
C1552 C 0.73637 0.44953 0.28246 0.0
C1553 C 0.71731 0.45155 0.26848 0.0
C1554 C 0.74599 0.42937 0.28017 0.0
C1555 C 0.73699 0.40909 0.26327 0.0
C1556 C 0.71779 0.41081 0.24881 0.0
C1557 C 0.70841 0.43145 0.25148 0.0
C1558 C 0.76602 0.42979 0.29646 0.0
C1559 C 0.70679 0.39049 0.2304 0.0
C1560 C 0.77745 0.36459 0.24836 0.0
C1561 C 0.76971 0.34621 0.26005 0.0
C1562 C 0.76667 0.38396 0.2484 0.0
C1563 C 0.74765 0.38671 0.26123 0.0
C1564 C 0.73996 0.36832 0.27326 0.0
C1565 C 0.75047 0.34869 0.27218 0.0
C1566 C 0.77578 0.40168 0.23436 0.0
C1567 C 0.72061 0.36957 0.28796 0.0
H1568 H 0.74413 0.46412 0.29581 0.0
H1569 H 0.69376 0.43157 0.24033 0.0
H1570 H 0.76187 0.41553 0.30609 0.0
H1571 H 0.78061 0.42698 0.2867 0.0
H1572 H 0.77126 0.44634 0.30891 0.0
H1573 H 0.69391 0.3947 0.21888 0.0
H1574 H 0.71977 0.38432 0.22001 0.0
H1575 H 0.69843 0.3761 0.23845 0.0
H1576 H 0.79199 0.36372 0.23868 0.0
H1577 H 0.74384 0.33538 0.28165 0.0
H1578 H 0.78305 0.41848 0.24584 0.0
H1579 H 0.76182 0.40427 0.22298 0.0
H1580 H 0.78906 0.39662 0.22367 0.0
H1581 H 0.72489 0.38563 0.30117 0.0
H1582 H 0.7165 0.3546 0.29667 0.0
H1583 H 0.70531 0.37028 0.2773 0.0
C1584 C 0.86736 0.50455 0.52356 0.0
C1585 C 0.85681 0.48645 0.50571 0.0
C1586 C 0.89098 0.51363 0.52515 0.0
C1587 C 0.9044 0.50376 0.50902 0.0
C1588 C 0.89358 0.48582 0.49072 0.0
C1589 C 0.87001 0.47765 0.48918 0.0
C1590 C 0.90167 0.53309 0.54464 0.0
C1591 C 0.90705 0.47412 0.47357 0.0
C1592 C 0.96426 0.53255 0.49856 0.0
C1593 C 0.97776 0.5219 0.51119 0.0
C1594 C 0.94052 0.52778 0.49875 0.0
C1595 C 0.92977 0.51143 0.51137 0.0
C1596 C 0.94334 0.50093 0.52452 0.0
C1597 C 0.96713 0.50658 0.52457 0.0
C1598 C 0.92687 0.5399 0.48504 0.0
C1599 C 0.93273 0.48313 0.53796 0.0
H1600 H 0.85738 0.51081 0.53686 0.0
H1601 H 0.86201 0.46307 0.47585 0.0
H1602 H 0.91181 0.52661 0.55702 0.0
H1603 H 0.91335 0.54678 0.53817 0.0
H1604 H 0.8888 0.54079 0.55391 0.0
H1605 H 0.89607 0.46061 0.46019 0.0
H1606 H 0.91752 0.48695 0.46503 0.0
H1607 H 0.91878 0.46599 0.48257 0.0
H1608 H 0.97226 0.54473 0.48846 0.0
H1609 H 0.97737 0.49835 0.5345 0.0
H1610 H 0.91499 0.54755 0.49591 0.0
H1611 H 0.91654 0.52728 0.47057 0.0
H1612 H 0.93776 0.55374 0.478 0.0
H1613 H 0.92338 0.49108 0.55153 0.0
H1614 H 0.94551 0.47556 0.54617 0.0
H1615 H 0.92033 0.46901 0.52655 0.0
C1616 C 0.382 0.08389 0.28848 0.0
C1617 C 0.39261 0.06874 0.2747 0.0
C1618 C 0.37098 0.0987 0.27897 0.0
C1619 C 0.37031 0.09808 0.25505 0.0
C1620 C 0.38121 0.083 0.24105 0.0
C1621 C 0.39242 0.06859 0.2511 0.0
C1622 C 0.35981 0.11482 0.29449 0.0
C1623 C 0.38069 0.08183 0.21547 0.0
C1624 C 0.32118 0.11992 0.23253 0.0
C1625 C 0.33145 0.14292 0.23245 0.0
C1626 C 0.33393 0.10469 0.23863 0.0
C1627 C 0.35747 0.11274 0.24481 0.0
C1628 C 0.36816 0.13554 0.24341 0.0
C1629 C 0.355 0.15038 0.23718 0.0
C1630 C 0.322 0.08042 0.23986 0.0
C1631 C 0.39324 0.14468 0.24982 0.0
H1632 H 0.38232 0.08419 0.30676 0.0
H1633 H 0.4006 0.05684 0.24039 0.0
H1634 H 0.36652 0.13289 0.29264 0.0
H1635 H 0.34132 0.11071 0.2895 0.0
H1636 H 0.36255 0.11368 0.31282 0.0
H1637 H 0.38984 0.06898 0.207 0.0
H1638 H 0.36291 0.07722 0.20774 0.0
H1639 H 0.38845 0.09897 0.21177 0.0
H1640 H 0.30297 0.11415 0.22905 0.0
H1641 H 0.36303 0.16809 0.23677 0.0
H1642 H 0.32203 0.0784 0.25803 0.0
H1643 H 0.33103 0.06778 0.23086 0.0
H1644 H 0.30417 0.07615 0.23222 0.0
H1645 H 0.397 0.14603 0.26852 0.0
H1646 H 0.3993 0.16197 0.24552 0.0
H1647 H 0.40298 0.13267 0.24095 0.0
C1648 C 0.34884 0.17008 0.51629 0.0
C1649 C 0.32848 0.15474 0.50673 0.0
C1650 C 0.36799 0.16193 0.52226 0.0
C1651 C 0.36679 0.13791 0.51832 0.0
C1652 C 0.34633 0.12237 0.50862 0.0
C1653 C 0.3274 0.13097 0.50305 0.0
C1654 C 0.38944 0.17899 0.53281 0.0
C1655 C 0.34443 0.09661 0.50407 0.0
C1656 C 0.41834 0.11223 0.51024 0.0
C1657 C 0.42064 0.10413 0.53072 0.0
C1658 C 0.40169 0.1245 0.5065 0.0
C1659 C 0.38697 0.12875 0.52367 0.0
C1660 C 0.39016 0.12195 0.54497 0.0
C1661 C 0.40697 0.10967 0.54823 0.0
C1662 C 0.39891 0.13157 0.4836 0.0
C1663 C 0.3751 0.1266 0.56387 0.0
H1664 H 0.34976 0.18849 0.5194 0.0
H1665 H 0.31176 0.11902 0.4957 0.0
H1666 H 0.39455 0.17546 0.54977 0.0
H1667 H 0.40344 0.17707 0.52185 0.0
H1668 H 0.38748 0.19711 0.53509 0.0
H1669 H 0.32732 0.08686 0.49641 0.0
H1670 H 0.35706 0.09208 0.49224 0.0
H1671 H 0.34823 0.09089 0.52028 0.0
H1672 H 0.42875 0.1079 0.49657 0.0
H1673 H 0.409 0.10384 0.56428 0.0
H1674 H 0.39761 0.14986 0.48597 0.0
H1675 H 0.38297 0.12099 0.47391 0.0
H1676 H 0.41319 0.12927 0.47311 0.0
H1677 H 0.37441 0.14508 0.56736 0.0
H1678 H 0.38098 0.12191 0.58002 0.0
H1679 H 0.35758 0.11652 0.5584 0.0
C1680 C 0.71629 0.60016 0.24888 0.0
C1681 C 0.7139 0.5919 0.26963 0.0
C1682 C 0.7276 0.62333 0.24801 0.0
C1683 C 0.73696 0.63963 0.2684 0.0
C1684 C 0.73491 0.63125 0.28938 0.0
C1685 C 0.72336 0.60804 0.28974 0.0
C1686 C 0.72876 0.63061 0.22507 0.0
C1687 C 0.74415 0.64721 0.3118 0.0
C1688 C 0.78229 0.69614 0.26607 0.0
C1689 C 0.76974 0.71354 0.26686 0.0
C1690 C 0.77203 0.67252 0.26626 0.0
C1691 C 0.74831 0.66526 0.26786 0.0
C1692 C 0.73557 0.6828 0.26895 0.0
C1693 C 0.74618 0.70621 0.26815 0.0
C1694 C 0.78676 0.65514 0.26455 0.0
C1695 C 0.71047 0.67686 0.27107 0.0
H1696 H 0.70829 0.58871 0.23317 0.0
H1697 H 0.72095 0.60275 0.30609 0.0
H1698 H 0.71888 0.64407 0.22448 0.0
H1699 H 0.74653 0.6383 0.22261 0.0
H1700 H 0.72199 0.61598 0.21063 0.0
H1701 H 0.74271 0.63811 0.32652 0.0
H1702 H 0.76221 0.65536 0.31114 0.0
H1703 H 0.7348 0.66126 0.31483 0.0
H1704 H 0.80037 0.70091 0.26492 0.0
H1705 H 0.7359 0.71896 0.26888 0.0
H1706 H 0.7805 0.64123 0.24937 0.0
H1707 H 0.7858 0.64698 0.27988 0.0
H1708 H 0.80476 0.66302 0.26308 0.0
H1709 H 0.70184 0.66433 0.25565 0.0
H1710 H 0.70293 0.69227 0.273 0.0
H1711 H 0.70707 0.66849 0.28609 0.0
C1712 C 0.89022 0.43198 0.76784 0.0
C1713 C 0.89016 0.45538 0.76985 0.0
C1714 C 0.87031 0.416 0.76911 0.0
C1715 C 0.84997 0.42375 0.77225 0.0
C1716 C 0.84944 0.44699 0.77238 0.0
C1717 C 0.8696 0.46258 0.77095 0.0
C1718 C 0.87141 0.39113 0.7686 0.0
C1719 C 0.82798 0.45566 0.77566 0.0
C1720 C 0.80246 0.37222 0.76033 0.0
C1721 C 0.80296 0.36572 0.78174 0.0
C1722 C 0.81593 0.39297 0.75729 0.0
C1723 C 0.82968 0.40738 0.77633 0.0
C1724 C 0.82731 0.40253 0.79866 0.0
C1725 C 0.81386 0.38142 0.80112 0.0
C1726 C 0.81819 0.39743 0.73323 0.0
C1727 C 0.84152 0.4178 0.8194 0.0
H1728 H 0.90603 0.42631 0.76675 0.0
H1729 H 0.86943 0.48066 0.77223 0.0
H1730 H 0.86793 0.38661 0.78554 0.0
H1731 H 0.85834 0.37947 0.75568 0.0
H1732 H 0.88824 0.38777 0.76453 0.0
H1733 H 0.83002 0.47381 0.77332 0.0
H1734 H 0.81388 0.44469 0.76345 0.0
H1735 H 0.82302 0.45465 0.7932 0.0
H1736 H 0.79389 0.35977 0.74542 0.0
H1737 H 0.81422 0.37611 0.8176 0.0
H1738 H 0.83353 0.39209 0.72683 0.0
H1739 H 0.82017 0.41602 0.73283 0.0
H1740 H 0.80335 0.38748 0.72129 0.0
H1741 H 0.85865 0.41398 0.82008 0.0
H1742 H 0.83402 0.41474 0.83553 0.0
H1743 H 0.8435 0.43628 0.81849 0.0
C1744 C 0.11059 0.83334 0.06703 0.0
C1745 C 0.09635 0.82128 0.08064 0.0
C1746 C 0.10452 0.85162 0.05862 0.0
C1747 C 0.0836 0.85726 0.06364 0.0
C1748 C 0.06966 0.84572 0.07818 0.0
C1749 C 0.07634 0.82793 0.08668 0.0
C1750 C 0.11991 0.8642 0.0436 0.0
C1751 C 0.04702 0.85111 0.0836 0.0
C1752 C 0.06647 0.91065 0.05192 0.0
C1753 C 0.05252 0.90172 0.03145 0.0
C1754 C 0.07773 0.89656 0.06221 0.0
C1755 C 0.0748 0.87321 0.05164 0.0
C1756 C 0.06133 0.86431 0.0306 0.0
C1757 C 0.05032 0.87878 0.0207 0.0
C1758 C 0.09197 0.90635 0.08475 0.0
C1759 C 0.05762 0.83925 0.01916 0.0
H1760 H 0.12625 0.82832 0.06277 0.0
H1761 H 0.06531 0.81853 0.09725 0.0
H1762 H 0.1118 0.86021 0.02579 0.0
H1763 H 0.12271 0.88311 0.04962 0.0
H1764 H 0.13658 0.8593 0.04337 0.0
H1765 H 0.03924 0.84178 0.09674 0.0
H1766 H 0.04886 0.86986 0.08983 0.0
H1767 H 0.03521 0.84612 0.06778 0.0
H1768 H 0.06839 0.92859 0.05996 0.0
H1769 H 0.03939 0.87198 0.00493 0.0
H1770 H 0.10886 0.90205 0.08392 0.0
H1771 H 0.08378 0.8985 0.09858 0.0
H1772 H 0.09426 0.92536 0.08952 0.0
H1773 H 0.07409 0.83426 0.01698 0.0
H1774 H 0.04786 0.83554 0.00211 0.0
H1775 H 0.04824 0.82821 0.03017 0.0
C1776 C 0.95168 0.28285 0.84525 0.0
C1777 C 0.95035 0.29749 0.86587 0.0
C1778 C 0.93449 0.2785 0.82749 0.0
C1779 C 0.91617 0.28944 0.83072 0.0
C1780 C 0.91539 0.30507 0.85125 0.0
C1781 C 0.93253 0.30876 0.8687 0.0
C1782 C 0.93543 0.26159 0.80584 0.0
C1783 C 0.89611 0.31729 0.85516 0.0
C1784 C 0.87491 0.30006 0.78814 0.0
C1785 C 0.85534 0.28631 0.79379 0.0
C1786 C 0.89597 0.29919 0.79801 0.0
C1787 C 0.89689 0.28407 0.81348 0.0
C1788 C 0.87724 0.26816 0.81689 0.0
C1789 C 0.8564 0.26976 0.80715 0.0
C1790 C 0.91663 0.31653 0.79432 0.0
C1791 C 0.87778 0.2516 0.83308 0.0
H1792 H 0.96558 0.27409 0.84342 0.0
H1793 H 0.93186 0.32024 0.88475 0.0
H1794 H 0.92143 0.24618 0.80439 0.0
H1795 H 0.93306 0.26937 0.79059 0.0
H1796 H 0.95172 0.25589 0.80548 0.0
H1797 H 0.8989 0.32972 0.87173 0.0
H1798 H 0.89392 0.3268 0.84117 0.0
H1799 H 0.88007 0.3045 0.85512 0.0
H1800 H 0.8736 0.31257 0.77737 0.0
H1801 H 0.84091 0.2589 0.81086 0.0
H1802 H 0.93183 0.30901 0.79372 0.0
H1803 H 0.91995 0.33143 0.80886 0.0
H1804 H 0.91417 0.32305 0.77825 0.0
H1805 H 0.89296 0.24409 0.83147 0.0
H1806 H 0.8624 0.23739 0.82994 0.0
H1807 H 0.87859 0.26102 0.85099 0.0
C1808 C 0.60169 0.19887 0.58892 0.0
C1809 C 0.5871 0.21108 0.58011 0.0
C1810 C 0.59345 0.17614 0.59129 0.0
C1811 C 0.57067 0.16572 0.58355 0.0
C1812 C 0.55516 0.17962 0.5803 0.0
C1813 C 0.56368 0.20251 0.57838 0.0
C1814 C 0.60988 0.16216 0.59764 0.0
C1815 C 0.53025 0.1693 0.57449 0.0
C1816 C 0.5684 0.11786 0.53308 0.0
C1817 C 0.56115 0.09861 0.54269 0.0
C1818 C 0.57107 0.13985 0.54625 0.0
C1819 C 0.56622 0.14232 0.56962 0.0
C1820 C 0.5585 0.12264 0.57924 0.0
C1821 C 0.55609 0.10083 0.56552 0.0
C1822 C 0.57902 0.16029 0.53493 0.0
C1823 C 0.55287 0.12417 0.60379 0.0
H1824 H 0.61972 0.20626 0.59194 0.0
H1825 H 0.55229 0.21262 0.57294 0.0
H1826 H 0.60165 0.14884 0.60706 0.0
H1827 H 0.61561 0.15328 0.58178 0.0
H1828 H 0.62499 0.17331 0.60839 0.0
H1829 H 0.52006 0.18239 0.57947 0.0
H1830 H 0.5269 0.16293 0.5557 0.0
H1831 H 0.52469 0.15452 0.58317 0.0
H1832 H 0.57163 0.11565 0.51514 0.0
H1833 H 0.54984 0.08552 0.57248 0.0
H1834 H 0.59526 0.17093 0.54384 0.0
H1835 H 0.56636 0.1712 0.5358 0.0
H1836 H 0.58167 0.15502 0.5166 0.0
H1837 H 0.56698 0.12042 0.61407 0.0
H1838 H 0.53745 0.11091 0.60492 0.0
H1839 H 0.55016 0.14135 0.61159 0.0
C1840 C 0.58663 0.8104 0.37964 0.0
C1841 C 0.56958 0.80536 0.36152 0.0
C1842 C 0.60934 0.81328 0.37537 0.0
C1843 C 0.6148 0.81048 0.35245 0.0
C1844 C 0.59759 0.80543 0.33408 0.0
C1845 C 0.57504 0.80327 0.33891 0.0
C1846 C 0.62739 0.81926 0.39527 0.0
C1847 C 0.60297 0.8019 0.30936 0.0
C1848 C 0.67069 0.83319 0.33185 0.0
C1849 C 0.67785 0.81261 0.32522 0.0
C1850 C 0.65097 0.83326 0.34291 0.0
C1851 C 0.63843 0.81225 0.34731 0.0
C1852 C 0.64699 0.79201 0.34304 0.0
C1853 C 0.66671 0.79242 0.33191 0.0
C1854 C 0.64244 0.85525 0.34774 0.0
C1855 C 0.63412 0.76937 0.34792 0.0
H1856 H 0.5822 0.81239 0.3972 0.0
H1857 H 0.56166 0.79936 0.32506 0.0
H1858 H 0.63772 0.80602 0.39398 0.0
H1859 H 0.63902 0.83593 0.39474 0.0
H1860 H 0.62013 0.82062 0.41209 0.0
H1861 H 0.58755 0.79802 0.29719 0.0
H1862 H 0.61459 0.81755 0.30611 0.0
H1863 H 0.61173 0.78742 0.30575 0.0
H1864 H 0.67976 0.84892 0.32714 0.0
H1865 H 0.67233 0.77651 0.32683 0.0
H1866 H 0.63565 0.85744 0.36474 0.0
H1867 H 0.62843 0.85441 0.33465 0.0
H1868 H 0.65595 0.87065 0.3472 0.0
H1869 H 0.62746 0.77183 0.36497 0.0
H1870 H 0.64485 0.75648 0.34731 0.0
H1871 H 0.61943 0.76227 0.3349 0.0
C1872 C 0.10025 0.25034 0.44817 0.0
C1873 C 0.08513 0.26131 0.43843 0.0
C1874 C 0.09222 0.22892 0.45431 0.0
C1875 C 0.06877 0.21861 0.45031 0.0
C1876 C 0.05397 0.22878 0.43854 0.0
C1877 C 0.06237 0.25011 0.43282 0.0
C1878 C 0.10844 0.21818 0.46656 0.0
C1879 C 0.02892 0.21829 0.43378 0.0
C1880 C 0.04753 0.15842 0.46112 0.0
C1881 C 0.04224 0.16316 0.48392 0.0
C1882 C 0.05613 0.17632 0.44976 0.0
C1883 C 0.05911 0.19934 0.46145 0.0
C1884 C 0.05257 0.20423 0.48395 0.0
C1885 C 0.0443 0.18603 0.49498 0.0
C1886 C 0.06269 0.17063 0.42563 0.0
C1887 C 0.05496 0.2287 0.49667 0.0
H1888 H 0.11789 0.25907 0.45223 0.0
H1889 H 0.05084 0.25853 0.42474 0.0
H1890 H 0.10499 0.21951 0.48483 0.0
H1891 H 0.10597 0.19959 0.45902 0.0
H1892 H 0.12638 0.22678 0.4658 0.0
H1893 H 0.0208 0.22591 0.42076 0.0
H1894 H 0.02574 0.19938 0.42774 0.0
H1895 H 0.02061 0.22146 0.44985 0.0
H1896 H 0.04556 0.1407 0.45239 0.0
H1897 H 0.04047 0.18977 0.51265 0.0
H1898 H 0.08127 0.17646 0.42551 0.0
H1899 H 0.05461 0.17993 0.41421 0.0
H1900 H 0.0578 0.15186 0.41842 0.0
H1901 H 0.07305 0.23778 0.49898 0.0
H1902 H 0.04837 0.22946 0.5138 0.0
H1903 H 0.0457 0.23824 0.48656 0.0
C1904 C 0.56451 0.27071 0.172 0.0
C1905 C 0.54934 0.25094 0.17557 0.0
C1906 C 0.58684 0.27642 0.18199 0.0
C1907 C 0.59396 0.26199 0.19579 0.0
C1908 C 0.57845 0.24264 0.20031 0.0
C1909 C 0.55628 0.23732 0.19008 0.0
C1910 C 0.603 0.29718 0.17687 0.0
C1911 C 0.58555 0.22691 0.21508 0.0
C1912 C 0.65311 0.25251 0.19925 0.0
C1913 C 0.66064 0.2629 0.22201 0.0
C1914 C 0.63186 0.2535 0.18989 0.0
C1915 C 0.61806 0.26537 0.20367 0.0
C1916 C 0.62634 0.27746 0.22608 0.0
C1917 C 0.64757 0.27584 0.23516 0.0
C1918 C 0.62354 0.24031 0.16592 0.0
C1919 C 0.61225 0.29088 0.24088 0.0
H1920 H 0.55918 0.28134 0.1608 0.0
H1921 H 0.54453 0.22218 0.19307 0.0
H1922 H 0.61319 0.30741 0.19273 0.0
H1923 H 0.61497 0.29138 0.16487 0.0
H1924 H 0.59401 0.30854 0.16892 0.0
H1925 H 0.57106 0.21339 0.21795 0.0
H1926 H 0.59834 0.21833 0.20678 0.0
H1927 H 0.59352 0.23705 0.23198 0.0
H1928 H 0.66333 0.24248 0.18918 0.0
H1929 H 0.65374 0.28418 0.25266 0.0
H1930 H 0.61618 0.25119 0.15577 0.0
H1931 H 0.60997 0.2251 0.16681 0.0
H1932 H 0.63726 0.23418 0.1567 0.0
H1933 H 0.6044 0.30164 0.23098 0.0
H1934 H 0.62243 0.3022 0.25627 0.0
H1935 H 0.59833 0.27871 0.24663 0.0
C1936 C 0.6314 0.91 0.95012 0.0
C1937 C 0.62033 0.8917 0.9329 0.0
C1938 C 0.62367 0.93055 0.95407 0.0
C1939 C 0.60359 0.93181 0.94154 0.0
C1940 C 0.59404 0.91437 0.92243 0.0
C1941 C 0.60301 0.89468 0.91795 0.0
C1942 C 0.63513 0.94952 0.97369 0.0
C1943 C 0.57222 0.9146 0.9091 0.0
C1944 C 0.56371 0.95612 0.98046 0.0
C1945 C 0.56459 0.97742 0.9742 0.0
C1946 C 0.57571 0.94077 0.9692 0.0
C1947 C 0.5896 0.94748 0.95199 0.0
C1948 C 0.59026 0.96899 0.94545 0.0
C1949 C 0.5774 0.98366 0.95651 0.0
C1950 C 0.57406 0.91768 0.97628 0.0
C1951 C 0.60545 0.97704 0.92783 0.0
H1952 H 0.64474 0.90757 0.96165 0.0
H1953 H 0.59429 0.88025 0.9048 0.0
H1954 H 0.63418 0.96672 0.97007 0.0
H1955 H 0.62651 0.94726 0.98939 0.0
H1956 H 0.65318 0.94904 0.97719 0.0
H1957 H 0.56927 0.90215 0.89254 0.0
H1958 H 0.55786 0.90976 0.91942 0.0
H1959 H 0.57209 0.93202 0.90567 0.0
H1960 H 0.55403 0.95173 0.9945 0.0
H1961 H 0.57842 1.0006 0.95232 0.0
H1962 H 0.59059 0.91694 0.98465 0.0
H1963 H 0.56988 0.90356 0.96102 0.0
H1964 H 0.561 0.91445 0.98846 0.0
H1965 H 0.6234 0.97929 0.93437 0.0
H1966 H 0.60294 0.99367 0.92377 0.0
H1967 H 0.6024 0.96395 0.91176 0.0
C1968 C 0.95003 0.75769 0.70317 0.0
C1969 C 0.94725 0.75899 0.68 0.0
C1970 C 0.93394 0.76282 0.71781 0.0
C1971 C 0.91472 0.76919 0.70882 0.0
C1972 C 0.9125 0.77195 0.68574 0.0
C1973 C 0.92911 0.76694 0.67147 0.0
C1974 C 0.93678 0.75999 0.74246 0.0
C1975 C 0.89199 0.77871 0.67582 0.0
C1976 C 0.86137 0.75317 0.73709 0.0
C1977 C 0.86013 0.77465 0.74964 0.0
C1978 C 0.87924 0.75114 0.72364 0.0
C1979 C 0.89616 0.77105 0.7232 0.0
C1980 C 0.89564 0.7925 0.73682 0.0
C1981 C 0.87756 0.79403 0.75004 0.0
C1982 C 0.87952 0.72798 0.70919 0.0
C1983 C 0.9137 0.81389 0.73675 0.0
H1984 H 0.96441 0.75181 0.70963 0.0
H1985 H 0.92719 0.76783 0.65345 0.0
H1986 H 0.93435 0.77553 0.75423 0.0
H1987 H 0.92371 0.74516 0.74529 0.0
H1988 H 0.95372 0.75692 0.74713 0.0
H1989 H 0.89381 0.78185 0.65809 0.0
H1990 H 0.87677 0.76476 0.67549 0.0
H1991 H 0.88896 0.79449 0.68671 0.0
H1992 H 0.84774 0.73825 0.73664 0.0
H1993 H 0.87654 0.81063 0.75989 0.0
H1994 H 0.89554 0.72284 0.71338 0.0
H1995 H 0.87872 0.72915 0.69078 0.0
H1996 H 0.86511 0.71421 0.71178 0.0
H1997 H 0.93061 0.81097 0.74166 0.0
H1998 H 0.91088 0.82918 0.74869 0.0
H1999 H 0.91405 0.8178 0.71923 0.0
C2000 C 0.10742 0.01981 0.83235 0.0
C2001 C 0.13057 0.01951 0.83012 0.0
C2002 C 0.09746 0.02108 0.85378 0.0
C2003 C 0.11058 0.02275 0.87484 0.0
C2004 C 0.13396 0.0221 0.87283 0.0
C2005 C 0.14349 0.02041 0.85093 0.0
C2006 C 0.07261 0.02115 0.85382 0.0
C2007 C 0.14924 0.02384 0.89412 0.0
C2008 C 0.08856 0.05008 0.93272 0.0
C2009 C 0.0779 0.03097 0.94207 0.0
C2010 C 0.09909 0.04769 0.91151 0.0
C2011 C 0.09986 0.02558 0.89851 0.0
C2012 C 0.08933 0.00625 0.90798 0.0
C2013 C 0.07862 0.0091 0.92905 0.0
C2014 C 0.10943 0.06916 0.90287 0.0
C2015 C 0.08929 0.98218 0.89572 0.0
H2016 H 0.09681 0.01938 0.81699 0.0
H2017 H 0.16138 0.02078 0.85032 0.0
H2018 H 0.06391 0.00747 0.86256 0.0
H2019 H 0.07046 0.03789 0.86354 0.0
H2020 H 0.06417 0.01839 0.83623 0.0
H2021 H 0.16672 0.02266 0.89022 0.0
H2022 H 0.14994 0.04048 0.90584 0.0
H2023 H 0.14229 0.00989 0.90338 0.0
H2024 H 0.08861 0.06721 0.94202 0.0
H2025 H 0.07094 0.9939 0.93552 0.0
H2026 H 0.10085 0.06891 0.88587 0.0
H2027 H 0.12755 0.06967 0.90052 0.0
H2028 H 0.1081 0.08514 0.91472 0.0
H2029 H 0.07931 0.97858 0.87882 0.0
H2030 H 0.08198 0.96889 0.90562 0.0
H2031 H 0.1068 0.98063 0.89245 0.0
C2032 C 0.78136 0.39025 0.55768 0.0
C2033 C 0.7898 0.41272 0.55447 0.0
C2034 C 0.78785 0.38316 0.5777 0.0
C2035 C 0.80374 0.39876 0.59449 0.0
C2036 C 0.81209 0.42161 0.59146 0.0
C2037 C 0.80471 0.42845 0.57156 0.0
C2038 C 0.77836 0.35869 0.58044 0.0
C2039 C 0.82992 0.4383 0.60841 0.0
C2040 C 0.80285 0.38082 0.65191 0.0
C2041 C 0.81785 0.36592 0.64964 0.0
C2042 C 0.79918 0.39301 0.63467 0.0
C2043 C 0.81139 0.39082 0.61511 0.0
C2044 C 0.82857 0.37806 0.61406 0.0
C2045 C 0.83141 0.36545 0.63125 0.0
C2046 C 0.78073 0.40643 0.63644 0.0
C2047 C 0.84268 0.37613 0.59393 0.0
H2048 H 0.77028 0.378 0.54413 0.0
H2049 H 0.81189 0.44557 0.56857 0.0
H2050 H 0.79208 0.34904 0.57995 0.0
H2051 H 0.77136 0.35858 0.5973 0.0
H2052 H 0.76482 0.3494 0.56673 0.0
H2053 H 0.83301 0.45603 0.6047 0.0
H2054 H 0.825 0.43888 0.62615 0.0
H2055 H 0.84604 0.43236 0.60772 0.0
H2056 H 0.79294 0.38188 0.66655 0.0
H2057 H 0.84319 0.35413 0.62944 0.0
H2058 H 0.76624 0.39723 0.62375 0.0
H2059 H 0.78679 0.42375 0.63234 0.0
H2060 H 0.77456 0.4085 0.65377 0.0
H2061 H 0.83293 0.36292 0.57956 0.0
H2062 H 0.85861 0.37086 0.59835 0.0
H2063 H 0.84698 0.3927 0.58784 0.0
C2064 C 0.4572 0.00389 0.36326 0.0
C2065 C 0.45677 0.01918 0.34824 0.0
C2066 C 0.47542 0.00762 0.37975 0.0
C2067 C 0.49339 0.02706 0.38095 0.0
C2068 C 0.49429 0.04081 0.36403 0.0
C2069 C 0.47569 0.03693 0.34795 0.0
C2070 C 0.4743 0.99216 0.39723 0.0
C2071 C 0.51391 0.06084 0.36423 0.0
C2072 C 0.50914 0.05548 0.44223 0.0
C2073 C 0.52804 0.04687 0.4472 0.0
C2074 C 0.4987 0.05049 0.42003 0.0
C2075 C 0.50739 0.03631 0.40271 0.0
C2076 C 0.52765 0.02918 0.40728 0.0
C2077 C 0.53794 0.03475 0.42971 0.0
C2078 C 0.47712 0.05853 0.41568 0.0
C2079 C 0.53724 0.01385 0.38932 0.0
H2080 H 0.4428 0.9897 0.36281 0.0
H2081 H 0.4758 0.04806 0.3355 0.0
H2082 H 0.491 0.98808 0.40067 0.0
H2083 H 0.46967 1.00121 0.4136 0.0
H2084 H 0.4615 0.97576 0.39152 0.0
H2085 H 0.51433 0.06661 0.3475 0.0
H2086 H 0.51233 0.07552 0.3777 0.0
H2087 H 0.53021 0.05618 0.36833 0.0
H2088 H 0.50161 0.06468 0.45605 0.0
H2089 H 0.55239 0.02776 0.43391 0.0
H2090 H 0.46256 0.04347 0.41192 0.0
H2091 H 0.47802 0.06704 0.40059 0.0
H2092 H 0.47374 0.07082 0.43063 0.0
H2093 H 0.52938 0.99556 0.38942 0.0
H2094 H 0.55581 0.01623 0.39303 0.0
H2095 H 0.5337 0.01712 0.37187 0.0
C2096 C 0.80563 0.75352 0.07822 0.0
C2097 C 0.78351 0.7438 0.06828 0.0
C2098 C 0.8103 0.75977 0.10223 0.0
C2099 C 0.79261 0.75513 0.1166 0.0
C2100 C 0.77034 0.7448 0.10651 0.0
C2101 C 0.766 0.73974 0.08253 0.0
C2102 C 0.83409 0.7715 0.11222 0.0
C2103 C 0.75111 0.73871 0.12105 0.0
C2104 C 0.80681 0.75128 0.17891 0.0
C2105 C 0.80231 0.77184 0.19076 0.0
C2106 C 0.80399 0.74569 0.15478 0.0
C2107 C 0.79713 0.76135 0.14215 0.0
C2108 C 0.79341 0.78252 0.15407 0.0
C2109 C 0.79574 0.78735 0.17817 0.0
C2110 C 0.80755 0.72267 0.14283 0.0
C2111 C 0.78664 0.79997 0.14136 0.0
H2112 H 0.81918 0.75656 0.06719 0.0
H2113 H 0.74895 0.7318 0.07484 0.0
H2114 H 0.83401 0.78793 0.12395 0.0
H2115 H 0.84102 0.76044 0.12249 0.0
H2116 H 0.84559 0.77522 0.09876 0.0
H2117 H 0.73509 0.72952 0.11055 0.0
H2118 H 0.75557 0.72762 0.1328 0.0
H2119 H 0.74814 0.75458 0.13182 0.0
H2120 H 0.81176 0.73915 0.18853 0.0
H2121 H 0.79242 0.80338 0.18718 0.0
H2122 H 0.82071 0.72521 0.1307 0.0
H2123 H 0.79167 0.71259 0.13266 0.0
H2124 H 0.81277 0.7124 0.15508 0.0
H2125 H 0.79875 0.80391 0.12849 0.0
H2126 H 0.78606 0.81631 0.15304 0.0
H2127 H 0.76969 0.79276 0.13194 0.0
C2128 C 0.14176 0.01495 0.67696 0.0
C2129 C 0.12822 0.01299 0.69548 0.0
C2130 C 0.13264 0.01646 0.65454 0.0
C2131 C 0.10908 0.01576 0.64963 0.0
C2132 C 0.09532 0.01296 0.66808 0.0
C2133 C 0.10489 0.01195 0.69029 0.0
C2134 C 0.14854 0.01979 0.6362 0.0
C2135 C 0.07022 0.01154 0.66456 0.0
C2136 C 0.08635 0.04324 0.60017 0.0
C2137 C 0.07841 0.02445 0.58173 0.0
C2138 C 0.09657 0.04075 0.62163 0.0
C2139 C 0.09891 0.01874 0.62586 0.0
C2140 C 0.09064 0.99964 0.6074 0.0
C2141 C 0.08098 1.00271 0.58588 0.0
C2142 C 0.10503 0.06199 0.63992 0.0
C2143 C 0.09176 0.97564 0.61042 0.0
H2144 H 0.15981 0.01649 0.68024 0.0
H2145 H 0.09389 0.01079 0.70401 0.0
H2146 H 0.14251 0.00632 0.62064 0.0
H2147 H 0.14878 0.03672 0.63125 0.0
H2148 H 0.16609 0.01917 0.64193 0.0
H2149 H 0.06133 0.00747 0.67969 0.0
H2150 H 0.06721 0.02821 0.66121 0.0
H2151 H 0.06262 0.99813 0.64936 0.0
H2152 H 0.08487 0.06026 0.59777 0.0
H2153 H 0.07508 0.98779 0.5723 0.0
H2154 H 0.12311 0.06341 0.64548 0.0
H2155 H 0.09544 0.06062 0.65517 0.0
H2156 H 0.10331 0.07802 0.63395 0.0
H2157 H 0.10969 0.97455 0.61331 0.0
H2158 H 0.08364 0.96236 0.59529 0.0
H2159 H 0.08329 0.97163 0.62577 0.0
C2160 C 0.78375 0.40375 0.41299 0.0
C2161 C 0.78454 0.39754 0.43455 0.0
C2162 C 0.78519 0.38779 0.39299 0.0
C2163 C 0.7879 0.36532 0.39473 0.0
C2164 C 0.78777 0.35882 0.41644 0.0
C2165 C 0.786 0.37494 0.43597 0.0
C2166 C 0.78506 0.39535 0.37014 0.0
C2167 C 0.79101 0.33531 0.41931 0.0
C2168 C 0.77697 0.31733 0.34173 0.0
C2169 C 0.79888 0.31748 0.33503 0.0
C2170 C 0.77318 0.3328 0.36099 0.0
C2171 C 0.79172 0.34881 0.37413 0.0
C2172 C 0.81397 0.34861 0.36792 0.0
C2173 C 0.81727 0.33304 0.34844 0.0
C2174 C 0.74923 0.33234 0.36702 0.0
C2175 C 0.83429 0.36512 0.38162 0.0
H2176 H 0.78341 0.42141 0.41192 0.0
H2177 H 0.78729 0.37033 0.45273 0.0
H2178 H 0.80191 0.39603 0.36353 0.0
H2179 H 0.77251 0.38268 0.35745 0.0
H2180 H 0.78101 0.41261 0.37135 0.0
H2181 H 0.78922 0.33248 0.43713 0.0
H2182 H 0.77856 0.32158 0.40753 0.0
H2183 H 0.80813 0.3334 0.41478 0.0
H2184 H 0.76256 0.30556 0.33151 0.0
H2185 H 0.83426 0.33348 0.34343 0.0
H2186 H 0.74517 0.34937 0.36665 0.0
H2187 H 0.74751 0.32909 0.38469 0.0
H2188 H 0.73661 0.31888 0.35508 0.0
H2189 H 0.8332 0.38312 0.38105 0.0
H2190 H 0.85049 0.36222 0.37508 0.0
H2191 H 0.83455 0.36332 0.39986 0.0
C2192 C 0.47985 0.99424 0.22811 0.0
C2193 C 0.46356 1.00215 0.24098 0.0
C2194 C 0.47871 0.99367 0.20451 0.0
C2195 C 0.46041 1.00051 0.19381 0.0
C2196 C 0.44305 0.00689 0.20663 0.0
C2197 C 0.44501 0.00793 0.23026 0.0
C2198 C 0.49762 0.9868 0.19126 0.0
C2199 C 0.42286 0.01324 0.19555 0.0
C2200 C 0.48187 0.02601 0.14462 0.0
C2201 C 0.47889 0.00593 0.12798 0.0
C2202 C 0.47351 0.02513 0.16588 0.0
C2203 C 0.46137 0.00376 0.16996 0.0
C2204 C 0.45508 0.98446 0.15184 0.0
C2205 C 0.46437 0.98563 0.13096 0.0
C2206 C 0.48079 0.04607 0.18486 0.0
C2207 C 0.44103 0.9618 0.1553 0.0
H2208 H 0.4938 0.9893 0.23664 0.0
H2209 H 0.43198 0.0132 0.2404 0.0
H2210 H 0.49067 0.97213 0.17697 0.0
H2211 H 0.50632 1.0014 0.18365 0.0
H2212 H 0.51038 0.98172 0.2022 0.0
H2213 H 0.40944 0.01467 0.20741 0.0
H2214 H 0.4282 0.03002 0.19008 0.0
H2215 H 0.41558 1.0002 0.17998 0.0
H2216 H 0.49315 0.04169 0.14213 0.0
H2217 H 0.46191 0.97024 0.11778 0.0
H2218 H 0.49452 0.04337 0.19645 0.0
H2219 H 0.46662 0.0488 0.19525 0.0
H2220 H 0.48725 0.06198 0.1781 0.0
H2221 H 0.45232 0.95152 0.16169 0.0
H2222 H 0.4318 0.95162 0.13889 0.0
H2223 H 0.42865 0.96441 0.16805 0.0
C2224 C 0.78727 0.75937 0.93589 0.0
C2225 C 0.78967 0.73811 0.94101 0.0
C2226 C 0.79107 0.76475 0.91414 0.0
C2227 C 0.79699 0.74832 0.89676 0.0
C2228 C 0.80023 0.72715 0.90205 0.0
C2229 C 0.79674 0.72239 0.92414 0.0
C2230 C 0.78786 0.78772 0.90951 0.0
C2231 C 0.80646 0.70911 0.88408 0.0
C2232 C 0.77928 0.75067 0.83483 0.0
C2233 C 0.79939 0.76235 0.82768 0.0
C2234 C 0.77834 0.74601 0.85716 0.0
C2235 C 0.79812 0.75266 0.87271 0.0
C2236 C 0.81863 0.76401 0.8654 0.0
C2237 C 0.81894 0.76898 0.84311 0.0
C2238 C 0.75599 0.73433 0.86426 0.0
C2239 C 0.84018 0.77117 0.88122 0.0
H2240 H 0.78198 0.77171 0.94884 0.0
H2241 H 0.79853 0.70588 0.92784 0.0
H2242 H 0.80279 0.79642 0.9019 0.0
H2243 H 0.77295 0.78499 0.89692 0.0
H2244 H 0.78523 0.79937 0.92531 0.0
H2245 H 0.80985 0.69422 0.89123 0.0
H2246 H 0.79244 0.70267 0.87023 0.0
H2247 H 0.82166 0.71673 0.87614 0.0
H2248 H 0.76402 0.74571 0.82314 0.0
H2249 H 0.83457 0.77796 0.8377 0.0
H2250 H 0.75107 0.74567 0.87903 0.0
H2251 H 0.75763 0.71816 0.86992 0.0
H2252 H 0.74218 0.73017 0.85017 0.0
H2253 H 0.83819 0.78424 0.89615 0.0
H2254 H 0.85498 0.77854 0.87254 0.0
H2255 H 0.84373 0.75615 0.88797 0.0
C2256 C 0.88119 0.06817 -0.0003 0.0
C2257 C 0.87766 0.08822 0.01385 0.0
C2258 C 0.90299 0.06324 0.99797 0.0
C2259 C 0.92235 0.07874 0.01048 0.0
C2260 C 0.91896 0.09905 0.02483 0.0
C2261 C 0.89685 0.10346 0.02642 0.0
C2262 C 0.90524 0.04124 0.98266 0.0
C2263 C 0.93881 0.11622 0.03854 0.0
C2264 C 0.97448 0.05326 0.0215 0.0
C2265 C 0.9891 0.06064 0.00534 0.0
C2266 C 0.95338 0.05963 0.02382 0.0
C2267 C 0.94582 0.0732 0.00909 0.0
C2268 C 0.96049 0.08064 0.99259 0.0
C2269 C 0.982 0.07469 0.99122 0.0
C2270 C 0.93908 0.05166 0.04212 0.0
C2271 C 0.95322 0.09452 0.976 0.0
H2272 H 0.86675 0.05609 0.98986 0.0
H2273 H 0.89466 0.11909 0.0373 0.0
H2274 H 0.91732 0.04523 0.96979 0.0
H2275 H 0.91219 0.03023 0.993 0.0
H2276 H 0.8888 0.03121 0.97354 0.0
H2277 H 0.93363 0.13116 0.04888 0.0
H2278 H 0.94755 0.1077 0.05023 0.0
H2279 H 0.95125 0.12268 0.02688 0.0
H2280 H 0.97977 0.04262 0.03272 0.0
H2281 H 0.99297 0.08045 0.9786 0.0
H2282 H 0.92293 0.04003 0.03406 0.0
H2283 H 0.93476 0.06666 0.0532 0.0
H2284 H 0.94777 0.04238 0.05308 0.0
H2285 H 0.93745 0.08451 0.96557 0.0
H2286 H 0.96636 0.09914 0.96428 0.0
H2287 H 0.94937 0.11057 0.98552 0.0
C2288 C 0.38252 0.4366 0.031 0.0
C2289 C 0.38589 0.41503 0.03426 0.0
C2290 C 0.40107 0.45472 0.02977 0.0
C2291 C 0.42342 0.45111 0.03176 0.0
C2292 C 0.42685 0.4296 0.03568 0.0
C2293 C 0.40816 0.41197 0.03696 0.0
C2294 C 0.39673 0.47741 0.02554 0.0
C2295 C 0.45032 0.42488 0.03784 0.0
C2296 C 0.47327 0.4822 0.00508 0.0
C2297 C 0.48618 0.49678 0.02432 0.0
C2298 C 0.45192 0.46858 0.00698 0.0
C2299 C 0.44345 0.4691 0.02876 0.0
C2300 C 0.45598 0.48454 0.0481 0.0
C2301 C 0.47712 0.49836 0.04561 0.0
C2302 C 0.43896 0.45276 0.98582 0.0
C2303 C 0.44765 0.48554 0.07163 0.0
H2304 H 0.36543 0.43914 0.02881 0.0
H2305 H 0.41109 0.39548 0.03959 0.0
H2306 H 0.40772 0.49197 0.03779 0.0
H2307 H 0.40097 0.47962 0.00804 0.0
H2308 H 0.37877 0.47844 0.02708 0.0
H2309 H 0.45017 0.40758 0.04189 0.0
H2310 H 0.45822 0.42592 0.02154 0.0
H2311 H 0.46123 0.43809 0.05147 0.0
H2312 H 0.47996 0.48123 0.98848 0.0
H2313 H 0.48697 0.50971 0.06051 0.0
H2314 H 0.421 0.45419 0.98476 0.0
H2315 H 0.43916 0.43462 0.98677 0.0
H2316 H 0.44631 0.45663 0.96986 0.0
H2317 H 0.42978 0.48724 0.07107 0.0
H2318 H 0.45804 0.50012 0.08439 0.0
H2319 H 0.44825 0.46923 0.07754 0.0
C2320 C 0.39794 0.63829 0.75848 0.0
C2321 C 0.38944 0.62205 0.77233 0.0
C2322 C 0.38923 0.65895 0.75762 0.0
C2323 C 0.3712 0.66462 0.77083 0.0
C2324 C 0.36259 0.6482 0.78459 0.0
C2325 C 0.37152 0.62791 0.78515 0.0
C2326 C 0.3996 0.67498 0.74243 0.0
C2327 C 0.34364 0.6521 0.79918 0.0
C2328 C 0.35971 0.7286 0.78543 0.0
C2329 C 0.33992 0.72801 0.77123 0.0
C2330 C 0.36981 0.70877 0.78546 0.0
C2331 C 0.36105 0.68699 0.77031 0.0
C2332 C 0.3415 0.6866 0.75548 0.0
C2333 C 0.33127 0.70636 0.7564 0.0
C2334 C 0.38995 0.71113 0.80228 0.0
C2335 C 0.33122 0.66502 0.73822 0.0
H2336 H 0.41168 0.63507 0.74836 0.0
H2337 H 0.36412 0.61635 0.79609 0.0
H2338 H 0.38619 0.67811 0.73075 0.0
H2339 H 0.40807 0.69188 0.7531 0.0
H2340 H 0.41222 0.66807 0.73203 0.0
H2341 H 0.33885 0.63848 0.80948 0.0
H2342 H 0.34873 0.66906 0.81099 0.0
H2343 H 0.32849 0.65253 0.78815 0.0
H2344 H 0.36715 0.74459 0.79715 0.0
H2345 H 0.31635 0.70484 0.74492 0.0
H2346 H 0.40466 0.70787 0.79292 0.0
H2347 H 0.38619 0.69799 0.81327 0.0
H2348 H 0.39473 0.72849 0.81343 0.0
H2349 H 0.34439 0.65963 0.72759 0.0
H2350 H 0.31723 0.66741 0.72672 0.0
H2351 H 0.32455 0.65077 0.7472 0.0
C2352 C 0.22758 0.5996 0.54466 0.0
C2353 C 0.24431 0.59099 0.53244 0.0
C2354 C 0.2044 0.59161 0.53773 0.0
C2355 C 0.1971 0.57356 0.51855 0.0
C2356 C 0.21367 0.56397 0.50654 0.0
C2357 C 0.23708 0.57299 0.5134 0.0
C2358 C 0.18767 0.60292 0.55086 0.0
C2359 C 0.20662 0.54441 0.48626 0.0
C2360 C 0.1364 0.54282 0.5228 0.0
C2361 C 0.12375 0.55311 0.50887 0.0
C2362 C 0.16021 0.54795 0.52458 0.0
C2363 C 0.17204 0.56418 0.51246 0.0
C2364 C 0.15939 0.57381 0.49742 0.0
C2365 C 0.13542 0.568 0.49564 0.0
C2366 C 0.17271 0.53688 0.5405 0.0
C2367 C 0.17104 0.59141 0.48432 0.0
H2368 H 0.23262 0.6135 0.5594 0.0
H2369 H 0.24964 0.56637 0.50355 0.0
H2370 H 0.17663 0.60904 0.53897 0.0
H2371 H 0.17659 0.59022 0.55905 0.0
H2372 H 0.19613 0.61783 0.5644 0.0
H2373 H 0.22135 0.53834 0.47909 0.0
H2374 H 0.19501 0.52972 0.49135 0.0
H2375 H 0.19718 0.54998 0.4726 0.0
H2376 H 0.12763 0.53087 0.53273 0.0
H2377 H 0.12587 0.57594 0.48471 0.0
H2378 H 0.18044 0.5499 0.55594 0.0
H2379 H 0.18662 0.53041 0.53202 0.0
H2380 H 0.16136 0.52234 0.54614 0.0
H2381 H 0.1766 0.60832 0.49615 0.0
H2382 H 0.1596 0.59352 0.47004 0.0
H2383 H 0.18633 0.58658 0.47727 0.0
C2384 C 0.70966 0.98507 0.74565 0.0
C2385 C 0.7227 0.00765 0.74915 0.0
C2386 C 0.71863 0.96742 0.75214 0.0
C2387 C 0.74127 0.97253 0.76184 0.0
C2388 C 0.75475 0.99512 0.76476 0.0
C2389 C 0.74518 0.01256 0.75855 0.0
C2390 C 0.70375 0.9435 0.74915 0.0
C2391 C 0.77916 1.00086 0.77461 0.0
C2392 C 0.7603 0.93371 0.79838 0.0
C2393 C 0.77054 0.92022 0.78246 0.0
C2394 C 0.75016 0.95061 0.79174 0.0
C2395 C 0.75095 0.95418 0.76888 0.0
C2396 C 0.76133 0.94051 0.75279 0.0
C2397 C 0.77089 0.92347 0.75979 0.0
C2398 C 0.73863 0.96461 0.80907 0.0
C2399 C 0.76258 0.94406 0.72834 0.0
H2400 H 0.69216 0.98132 0.73857 0.0
H2401 H 0.75523 0.03004 0.76114 0.0
H2402 H 0.71158 0.93081 0.73846 0.0
H2403 H 0.70205 0.93835 0.76609 0.0
H2404 H 0.68655 0.94243 0.74102 0.0
H2405 H 0.78748 0.01917 0.77509 0.0
H2406 H 0.78017 0.99741 0.79229 0.0
H2407 H 0.7888 0.98969 0.76426 0.0
H2408 H 0.75999 0.93079 0.81584 0.0
H2409 H 0.77896 0.91285 0.74765 0.0
H2410 H 0.72086 0.96327 0.80247 0.0
H2411 H 0.74731 0.98307 0.8119 0.0
H2412 H 0.73861 0.95887 0.82581 0.0
H2413 H 0.74531 0.94191 0.71995 0.0
H2414 H 0.77122 0.9318 0.71802 0.0
H2415 H 0.77185 0.9619 0.72814 0.0
C2416 C 0.74728 0.90583 0.52249 0.0
C2417 C 0.76694 0.91398 0.51225 0.0
C2418 C 0.72795 0.91507 0.52036 0.0
C2419 C 0.72836 0.93315 0.50801 0.0
C2420 C 0.74819 0.94149 0.49772 0.0
C2421 C 0.76714 0.93172 0.49983 0.0
C2422 C 0.70704 0.9054 0.53125 0.0
C2423 C 0.74946 0.96089 0.48459 0.0
C2424 C 0.67389 0.94698 0.48509 0.0
C2425 C 0.67206 0.96614 0.50148 0.0
C2426 C 0.69174 0.93566 0.48729 0.0
C2427 C 0.70833 0.9438 0.50624 0.0
C2428 C 0.70631 0.96284 0.52307 0.0
C2429 C 0.6882 0.9737 0.52053 0.0
C2430 C 0.69306 0.91523 0.46913 0.0
C2431 C 0.72367 0.97219 0.54346 0.0
H2432 H 0.74687 0.89198 0.53193 0.0
H2433 H 0.78222 0.93815 0.49186 0.0
H2434 H 0.70257 0.9192 0.54391 0.0
H2435 H 0.6925 0.89885 0.51799 0.0
H2436 H 0.70933 0.89115 0.54004 0.0
H2437 H 0.76612 0.96546 0.47765 0.0
H2438 H 0.73603 0.95599 0.47013 0.0
H2439 H 0.74646 0.97644 0.49592 0.0
H2440 H 0.66134 0.94086 0.47046 0.0
H2441 H 0.6871 0.98865 0.53314 0.0
H2442 H 0.69419 0.9002 0.47714 0.0
H2443 H 0.70861 0.91933 0.46024 0.0
H2444 H 0.67819 0.91024 0.45615 0.0
H2445 H 0.72518 0.95835 0.55308 0.0
H2446 H 0.71934 0.9867 0.55535 0.0
H2447 H 0.7405 0.97831 0.5375 0.0
C2448 C 0.40487 0.46353 0.77358 0.0
C2449 C 0.39629 0.47896 0.76191 0.0
C2450 C 0.39291 0.44055 0.77357 0.0
C2451 C 0.37128 0.43143 0.76124 0.0
C2452 C 0.36212 0.44691 0.74966 0.0
C2453 C 0.37447 0.47022 0.75023 0.0
C2454 C 0.40378 0.42583 0.78677 0.0
C2455 C 0.33935 0.43862 0.73608 0.0
C2456 C 0.3537 0.3636 0.74561 0.0
C2457 C 0.33811 0.35753 0.76152 0.0
C2458 C 0.36357 0.38714 0.74463 0.0
C2459 C 0.35883 0.40589 0.76055 0.0
C2460 C 0.34335 0.39975 0.77687 0.0
C2461 C 0.33298 0.37613 0.7768 0.0
C2462 C 0.37912 0.39197 0.72629 0.0
C2463 C 0.33811 0.41823 0.79502 0.0
H2464 H 0.42153 0.46944 0.78283 0.0
H2465 H 0.36733 0.48125 0.74079 0.0
H2466 H 0.39205 0.41871 0.79873 0.0
H2467 H 0.40734 0.41101 0.77476 0.0
H2468 H 0.4199 0.4356 0.79675 0.0
H2469 H 0.33468 0.45196 0.72724 0.0
H2470 H 0.33939 0.42299 0.7231 0.0
H2471 H 0.32614 0.43367 0.7476 0.0
H2472 H 0.35783 0.34984 0.7334 0.0
H2473 H 0.32113 0.37217 0.78931 0.0
H2474 H 0.39658 0.39972 0.73424 0.0
H2475 H 0.37372 0.40463 0.71698 0.0
H2476 H 0.37942 0.37611 0.71373 0.0
H2477 H 0.35388 0.42757 0.80583 0.0
H2478 H 0.32551 0.41109 0.80625 0.0
H2479 H 0.33153 0.43105 0.78694 0.0
C2480 C 0.21416 0.63724 0.26295 0.0
C2481 C 0.21805 0.61684 0.25023 0.0
C2482 C 0.23196 0.6561 0.27082 0.0
C2483 C 0.25414 0.65442 0.26567 0.0
C2484 C 0.25855 0.633 0.25556 0.0
C2485 C 0.24029 0.61431 0.24769 0.0
C2486 C 0.22658 0.6785 0.28238 0.0
C2487 C 0.28226 0.63035 0.25135 0.0
C2488 C 0.27661 0.70918 0.24671 0.0
C2489 C 0.28544 0.72331 0.26779 0.0
C2490 C 0.26887 0.68555 0.24507 0.0
C2491 C 0.27042 0.67596 0.26501 0.0
C2492 C 0.28239 0.68959 0.28547 0.0
C2493 C 0.28957 0.71337 0.28675 0.0
C2494 C 0.25618 0.67161 0.22282 0.0
C2495 C 0.28557 0.67974 0.3067 0.0
H2496 H 0.19704 0.63886 0.26602 0.0
H2497 H 0.2434 0.59815 0.23875 0.0
H2498 H 0.238 0.68603 0.29823 0.0
H2499 H 0.22919 0.69111 0.27074 0.0
H2500 H 0.20883 0.67617 0.28698 0.0
H2501 H 0.28367 0.61213 0.25 0.0
H2502 H 0.28675 0.63578 0.23501 0.0
H2503 H 0.29472 0.64136 0.26526 0.0
H2504 H 0.27397 0.71673 0.23183 0.0
H2505 H 0.29721 0.7242 0.30292 0.0
H2506 H 0.23778 0.66736 0.22492 0.0
H2507 H 0.26168 0.65517 0.21803 0.0
H2508 H 0.25868 0.68111 0.20844 0.0
H2509 H 0.27234 0.68311 0.31823 0.0
H2510 H 0.30224 0.68832 0.31628 0.0
H2511 H 0.28443 0.66087 0.3026 0.0
C2512 C 0.48691 0.72645 0.44402 0.0
C2513 C 0.5018 0.74517 0.43836 0.0
C2514 C 0.49545 0.71051 0.45444 0.0
C2515 C 0.51914 0.71402 0.45946 0.0
C2516 C 0.53406 0.73333 0.45439 0.0
C2517 C 0.52517 0.74865 0.44387 0.0
C2518 C 0.47935 0.68977 0.4596 0.0
C2519 C 0.55946 0.73766 0.45966 0.0
C2520 C 0.54603 0.68682 0.50238 0.0
C2521 C 0.55393 0.66991 0.48783 0.0
C2522 C 0.53359 0.70073 0.49335 0.0
C2523 C 0.52889 0.6973 0.46935 0.0
C2524 C 0.53657 0.68007 0.45459 0.0
C2525 C 0.54929 0.66671 0.46405 0.0
C2526 C 0.52613 0.71955 0.50937 0.0
C2527 C 0.53203 0.67629 0.42883 0.0
H2528 H 0.46886 0.72401 0.4398 0.0
H2529 H 0.53668 0.76352 0.43999 0.0
H2530 H 0.48334 0.67375 0.45012 0.0
H2531 H 0.48147 0.68934 0.47813 0.0
H2532 H 0.4614 0.68974 0.4548 0.0
H2533 H 0.5685 0.75409 0.45525 0.0
H2534 H 0.5637 0.73821 0.47813 0.0
H2535 H 0.56602 0.72338 0.44988 0.0
H2536 H 0.5493 0.68894 0.5208 0.0
H2537 H 0.5556 0.6537 0.45285 0.0
H2538 H 0.50779 0.7185 0.5057 0.0
H2539 H 0.53527 0.73665 0.50662 0.0
H2540 H 0.5295 0.71862 0.52767 0.0
H2541 H 0.51383 0.67495 0.42396 0.0
H2542 H 0.53695 0.66047 0.42005 0.0
H2543 H 0.54174 0.69125 0.42244 0.0
C2544 C 0.63826 0.25704 0.67224 0.0
C2545 C 0.64794 0.25547 0.65126 0.0
C2546 C 0.65191 0.26183 0.69291 0.0
C2547 C 0.67555 0.26478 0.69233 0.0
C2548 C 0.68517 0.2612 0.6712 0.0
C2549 C 0.67119 0.25661 0.65084 0.0
C2550 C 0.6413 0.26512 0.7153 0.0
C2551 C 0.71037 0.26348 0.67007 0.0
C2552 C 0.71988 0.30439 0.73529 0.0
C2553 C 0.72795 0.2885 0.74598 0.0
C2554 C 0.70088 0.29709 0.7194 0.0
C2555 C 0.69071 0.27326 0.7135 0.0
C2556 C 0.69797 0.2574 0.72543 0.0
C2557 C 0.7163 0.26542 0.74206 0.0
C2558 C 0.69293 0.31456 0.70756 0.0
C2559 C 0.68747 0.23186 0.71991 0.0
H2560 H 0.62023 0.25597 0.67261 0.0
H2561 H 0.67865 0.255 0.63463 0.0
H2562 H 0.64617 0.25346 0.72618 0.0
H2563 H 0.64771 0.28306 0.7248 0.0
H2564 H 0.62253 0.26167 0.71276 0.0
H2565 H 0.71477 0.25794 0.65238 0.0
H2566 H 0.71928 0.28173 0.67626 0.0
H2567 H 0.71683 0.253 0.68137 0.0
H2568 H 0.72896 0.32229 0.73867 0.0
H2569 H 0.72269 0.25321 0.75053 0.0
H2570 H 0.67418 0.31135 0.70597 0.0
H2571 H 0.69854 0.31301 0.69001 0.0
H2572 H 0.69987 0.3325 0.71691 0.0
H2573 H 0.67267 0.22833 0.72997 0.0
H2574 H 0.69959 0.22157 0.72464 0.0
H2575 H 0.68153 0.22571 0.70149 0.0
C2576 C 0.01705 0.36613 0.96296 0.0
C2577 C 0.03209 0.36024 0.94701 0.0
C2578 C 0.02105 0.3879 0.97638 0.0
C2579 C 0.04103 0.40383 0.97425 0.0
C2580 C 0.05795 0.39696 0.96092 0.0
C2581 C 0.05304 0.37511 0.94676 0.0
C2582 C 1.0024 0.39458 0.99024 0.0
C2583 C 0.08021 0.41339 0.96019 0.0
C2584 C 0.02682 0.46019 0.97067 0.0
C2585 C 0.03005 0.47072 0.99366 0.0
C2586 C 0.03155 0.43863 0.96389 0.0
C2587 C 0.04086 0.42821 0.98056 0.0
C2588 C 0.04553 0.43957 0.00369 0.0
C2589 C 0.03935 0.46063 0.01017 0.0
C2590 C 0.02518 0.4265 0.9392 0.0
C2591 C 0.0561 0.42923 0.02171 0.0
H2592 H 1.0011 0.35435 0.9638 0.0
H2593 H 0.06501 0.37014 0.93501 0.0
H2594 H 0.00922 0.40309 0.00796 0.0
H2595 H 0.99485 0.40697 0.98237 0.0
H2596 H 0.98865 0.37948 0.99113 0.0
H2597 H 0.09322 0.40411 0.95345 0.0
H2598 H 0.07784 0.42567 0.94891 0.0
H2599 H 0.08651 0.42363 0.97756 0.0
H2600 H 0.01998 0.46861 0.95812 0.0
H2601 H 0.0421 0.46926 0.02794 0.0
H2602 H 0.01221 0.41037 0.93842 0.0
H2603 H 0.04014 0.42171 0.9314 0.0
H2604 H 0.01824 0.43733 0.9286 0.0
H2605 H 0.04268 0.42067 0.03126 0.0
H2606 H 0.06775 0.44287 0.03433 0.0
H2607 H 0.06567 0.41638 0.0142 0.0
C2608 C 0.01507 0.74607 0.14186 0.0
C2609 C 0.0342 0.75414 0.15775 0.0
C2610 C 0.99328 0.74267 0.14917 0.0
C2611 C 0.99074 0.74793 0.17284 0.0
C2612 C 0.01003 0.75531 0.18898 0.0
C2613 C 0.03161 0.75814 0.18121 0.0
C2614 C 0.97307 0.73434 0.13155 0.0
C2615 C 0.00787 0.76121 0.2144 0.0
C2616 C 0.94078 0.7695 0.19533 0.0
C2617 C 0.92988 0.75083 0.20459 0.0
C2618 C 0.9599 0.76821 0.18347 0.0
C2619 C 0.96812 0.74772 0.18087 0.0
C2620 C 0.95613 0.72821 0.18858 0.0
C2621 C 0.93711 0.73004 0.20051 0.0
C2622 C 0.97227 0.78934 0.17535 0.0
C2623 C 0.9642 0.70593 0.18551 0.0
H2624 H 0.0171 0.74258 0.12368 0.0
H2625 H 0.04642 0.76428 0.19346 0.0
H2626 H 0.96028 0.72074 0.13692 0.0
H2627 H 0.96489 0.74886 0.12996 0.0
H2628 H 0.97792 0.7274 0.11441 0.0
H2629 H 0.02453 0.76553 0.22469 0.0
H2630 H 0.99981 0.7762 0.21807 0.0
H2631 H 0.99685 0.74655 0.22012 0.0
H2632 H 0.93524 0.78563 0.19859 0.0
H2633 H 0.92836 0.71549 0.20738 0.0
H2634 H 0.97608 0.7848 0.15731 0.0
H2635 H 0.98865 0.7965 0.18592 0.0
H2636 H 0.96238 0.803 0.1766 0.0
H2637 H 0.9683 0.70097 0.16762 0.0
H2638 H 0.95139 0.69158 0.18971 0.0
H2639 H 0.97994 0.70831 0.19687 0.0
C2640 C 0.51789 0.32527 0.1048 0.0
C2641 C 0.52363 0.30427 0.09626 0.0
C2642 C 0.52509 0.34461 0.09484 0.0
C2643 C 0.53784 0.34264 0.07561 0.0
C2644 C 0.54391 0.32155 0.06711 0.0
C2645 C 0.53692 0.30266 0.07772 0.0
C2646 C 0.51874 0.36701 0.10463 0.0
C2647 C 0.55717 0.31874 0.04639 0.0
C2648 C 0.53264 0.38219 0.03393 0.0
C2649 C 0.55338 0.39813 0.03885 0.0
C2650 C 0.52745 0.364 0.04576 0.0
C2651 C 0.54328 0.36202 0.0632 0.0
C2652 C 0.56426 0.37821 0.06838 0.0
C2653 C 0.56918 0.39605 0.05591 0.0
C2654 C 0.50508 0.34684 0.03949 0.0
C2655 C 0.58126 0.37688 0.08725 0.0
H2656 H 0.50786 0.32661 0.11934 0.0
H2657 H 0.54135 0.28642 0.07108 0.0
H2658 H 0.53409 0.3812 0.10844 0.0
H2659 H 0.50731 0.37152 0.09185 0.0
H2660 H 0.51011 0.36608 0.12056 0.0
H2661 H 0.5609 0.30131 0.04224 0.0
H2662 H 0.54747 0.32171 0.03129 0.0
H2663 H 0.57339 0.33176 0.04932 0.0
H2664 H 0.52053 0.38391 0.02064 0.0
H2665 H 0.58511 0.40865 0.05981 0.0
H2666 H 0.49511 0.34675 0.05459 0.0
H2667 H 0.50804 0.32922 0.03425 0.0
H2668 H 0.49482 0.35074 0.02529 0.0
H2669 H 0.57366 0.37862 0.10386 0.0
H2670 H 0.59696 0.39055 0.0888 0.0
H2671 H 0.58585 0.35982 0.08409 0.0
C2672 C 0.04813 0.30335 0.35374 0.0
C2673 C 0.05463 0.32348 0.37052 0.0
C2674 C 0.02888 0.29997 0.33837 0.0
C2675 C 0.01626 0.31732 0.33971 0.0
C2676 C 0.02346 0.33814 0.35592 0.0
C2677 C 0.04251 0.34089 0.37123 0.0
C2678 C 0.02141 0.27743 0.32156 0.0
C2679 C 0.01049 0.35712 0.35777 0.0
C2680 C 0.97369 0.32194 0.29321 0.0
C2681 C 0.95346 0.31533 0.30302 0.0
C2682 C 0.99443 0.32114 0.30422 0.0
C2683 C 0.99469 0.31344 0.32533 0.0
C2684 C 0.97412 0.30498 0.33429 0.0
C2685 C 0.95369 0.3061 0.32301 0.0
C2686 C 0.01608 0.33025 0.29422 0.0
C2687 C 0.97371 0.29637 0.35664 0.0
H2688 H 0.05739 0.28977 0.35336 0.0
H2689 H 0.04761 0.35651 0.38416 0.0
H2690 H 0.00545 0.26747 0.32643 0.0
H2691 H 0.01787 0.28056 0.30406 0.0
H2692 H 0.03429 0.26673 0.32112 0.0
H2693 H 0.01931 0.37285 0.37016 0.0
H2694 H 0.00789 0.36183 0.3408 0.0
H2695 H 0.99352 0.35098 0.36344 0.0
H2696 H 0.97343 0.32908 0.27774 0.0
H2697 H 0.93792 0.30066 0.33034 0.0
H2698 H 0.02784 0.31846 0.29453 0.0
H2699 H 0.02467 0.34719 0.30478 0.0
H2700 H 0.01294 0.33255 0.27631 0.0
H2701 H 0.98504 0.28416 0.35695 0.0
H2702 H 0.95639 0.28765 0.35963 0.0
H2703 H 0.98002 0.31112 0.37105 0.0
C2704 C 0.01098 0.68704 0.59236 0.0
C2705 C 0.98931 0.68902 0.58507 0.0
C2706 C 0.02085 0.67027 0.58059 0.0
C2707 C 0.00884 0.65562 0.56072 0.0
C2708 C 0.98715 0.65796 0.5528 0.0
C2709 C 0.97734 0.67466 0.56542 0.0
C2710 C 0.04348 0.66744 0.59021 0.0
C2711 C 0.97402 0.6421 0.53178 0.0
C2712 C 0.04456 0.62175 0.52509 0.0
C2713 C 0.04071 0.60175 0.53435 0.0
C2714 C 0.03369 0.6395 0.53313 0.0
C2715 C 0.01823 0.63639 0.54994 0.0
C2716 C 0.01379 0.61578 0.55862 0.0
C2717 C 0.02544 0.59887 0.55096 0.0
C2718 C 0.03909 0.66173 0.52422 0.0
C2719 C 0.99746 0.61173 0.57661 0.0
H2720 H 0.0198 0.69803 0.60803 0.0
H2721 H 0.9604 0.6762 0.56029 0.0
H2722 H 0.04138 0.65057 0.59575 0.0
H2723 H 0.05558 0.66756 0.57686 0.0
H2724 H 0.05101 0.68122 0.60519 0.0
H2725 H 0.95814 0.64726 0.52699 0.0
H2726 H 0.98458 0.64196 0.51709 0.0
H2727 H 0.96967 0.62421 0.53494 0.0
H2728 H 0.05614 0.62355 0.51191 0.0
H2729 H 0.022 0.58295 0.55752 0.0
H2730 H 0.04741 0.67606 0.53838 0.0
H2731 H 0.02325 0.66598 0.51786 0.0
H2732 H 0.05047 0.66087 0.5102 0.0
H2733 H 0.00576 0.62109 0.59367 0.0
H2734 H 0.99222 0.59314 0.5774 0.0
H2735 H 0.98204 0.61824 0.57331 0.0
C2736 C 0.64689 0.79967 0.83552 0.0
C2737 C 0.6547 0.82163 0.84909 0.0
C2738 C 0.65847 0.792 0.81707 0.0
C2739 C 0.6787 0.80637 0.81276 0.0
C2740 C 0.68595 0.82911 0.82563 0.0
C2741 C 0.67355 0.83663 0.84354 0.0
C2742 C 0.64994 0.76793 0.80328 0.0
C2743 C 0.70779 0.84474 0.82184 0.0
C2744 C 0.72705 0.77895 0.79625 0.0
C2745 C 0.72977 0.7838 0.77434 0.0
C2746 C 0.7098 0.7854 0.8086 0.0
C2747 C 0.69447 0.79622 0.79831 0.0
C2748 C 0.69574 0.79894 0.77521 0.0
C2749 C 0.71378 0.79295 0.76345 0.0
C2750 C 0.70943 0.78262 0.83337 0.0
C2751 C 0.6791 0.80965 0.76356 0.0
H2752 H 0.63192 0.78833 0.83962 0.0
H2753 H 0.67936 0.85368 0.85405 0.0
H2754 H 0.65161 0.7677 0.78476 0.0
H2755 H 0.66026 0.75633 0.80877 0.0
H2756 H 0.63197 0.76089 0.80567 0.0
H2757 H 0.70973 0.86261 0.83156 0.0
H2758 H 0.72233 0.83785 0.82745 0.0
H2759 H 0.70869 0.84531 0.80339 0.0
H2760 H 0.73973 0.772 0.80453 0.0
H2761 H 0.71627 0.79691 0.74656 0.0
H2762 H 0.69245 0.77337 0.83658 0.0
H2763 H 0.71312 0.79987 0.84472 0.0
H2764 H 0.7221 0.77303 0.83833 0.0
H2765 H 0.66157 0.80248 0.76723 0.0
H2766 H 0.67997 0.80682 0.7447 0.0
H2767 H 0.68286 0.8285 0.77028 0.0
C2768 C 0.4877 0.53159 0.68742 0.0
C2769 C 0.47475 0.54769 0.69639 0.0
C2770 C 0.49737 0.53116 0.66594 0.0
C2771 C 0.49476 0.54735 0.65183 0.0
C2772 C 0.48179 0.56382 0.6606 0.0
C2773 C 0.472 0.56375 0.68231 0.0
C2774 C 0.51058 0.51301 0.65832 0.0
C2775 C 0.47821 0.58172 0.64694 0.0
C2776 C 0.53785 0.55611 0.60449 0.0
C2777 C 0.52637 0.54158 0.58413 0.0
C2778 C 0.52791 0.55843 0.62605 0.0
C2779 C 0.50533 0.54644 0.62813 0.0
C2780 C 0.49353 0.53218 0.6075 0.0
C2781 C 0.50402 0.52981 0.58632 0.0
C2782 C 0.54189 0.57367 0.64688 0.0
C2783 C 0.46953 0.51912 0.60775 0.0
H2784 H 0.49034 0.51879 0.69732 0.0
H2785 H 0.46235 0.57649 0.68829 0.0
H2786 H 0.50273 0.50222 0.64165 0.0
H2787 H 0.52811 0.52136 0.65569 0.0
H2788 H 0.51137 0.50158 0.67092 0.0
H2789 H 0.46866 0.59389 0.65594 0.0
H2790 H 0.4948 0.59167 0.64342 0.0
H2791 H 0.46881 0.57313 0.63013 0.0
H2792 H 0.55496 0.56559 0.60373 0.0
H2793 H 0.49437 0.51871 0.57119 0.0
H2794 H 0.54453 0.56315 0.6599 0.0
H2795 H 0.53274 0.58675 0.65475 0.0
H2796 H 0.55867 0.58264 0.64276 0.0
H2797 H 0.46918 0.50616 0.6189 0.0
H2798 H 0.46181 0.51011 0.59034 0.0
H2799 H 0.45898 0.53108 0.61505 0.0
C2800 C 0.80862 0.15221 0.95821 0.0
C2801 C 0.7983 0.15687 0.97846 0.0
C2802 C 0.80564 0.16403 0.94025 0.0
C2803 C 0.79258 0.18114 0.94309 0.0
C2804 C 0.78255 0.18608 0.96376 0.0
C2805 C 0.78537 0.17375 0.98104 0.0
C2806 C 0.81608 0.15804 0.91816 0.0
C2807 C 0.7689 0.20449 0.96774 0.0
C2808 C 0.80254 0.23004 0.91037 0.0
C2809 C 0.78294 0.22443 0.89524 0.0
C2810 C 0.80623 0.21566 0.92555 0.0
C2811 C 0.79016 0.19489 0.92512 0.0
C2812 C 0.77064 0.18875 0.90926 0.0
C2813 C 0.7671 0.20382 0.89464 0.0
C2814 C 0.82676 0.22329 0.94281 0.0
C2815 C 0.7533 0.16658 0.90813 0.0
H2816 H 0.81835 0.13894 0.95618 0.0
H2817 H 0.77747 0.17741 0.99681 0.0
H2818 H 0.80264 0.15232 0.90369 0.0
H2819 H 0.82781 0.17352 0.91467 0.0
H2820 H 0.82553 0.14419 0.91855 0.0
H2821 H 0.76278 0.20658 0.98511 0.0
H2822 H 0.7793 0.2213 0.96564 0.0
H2823 H 0.75401 0.20012 0.95488 0.0
H2824 H 0.81462 0.24614 0.91083 0.0
H2825 H 0.752 0.19955 0.88275 0.0
H2826 H 0.83653 0.20959 0.94185 0.0
H2827 H 0.82126 0.22631 0.96039 0.0
H2828 H 0.83813 0.23939 0.94015 0.0
H2829 H 0.76167 0.15176 0.90593 0.0
H2830 H 0.73986 0.16365 0.89384 0.0
H2831 H 0.74519 0.16692 0.92444 0.0
C2832 C 0.14251 0.53726 0.14823 0.0
C2833 C 0.13753 0.52954 0.16847 0.0
C2834 C 0.12856 0.52744 0.12812 0.0
C2835 C 0.10896 0.51022 0.12895 0.0
C2836 C 0.10523 0.50086 0.1489 0.0
C2837 C 0.11987 0.51062 0.16862 0.0
C2838 C 0.13329 0.53753 0.1069 0.0
C2839 C 0.08439 0.48267 0.15027 0.0
C2840 C 0.06236 0.52241 0.09311 0.0
C2841 C 0.06407 0.50848 0.0722 0.0
C2842 C 0.07571 0.52173 0.1126 0.0
C2843 C 0.0904 0.5062 0.11097 0.0
C2844 C 0.08995 0.49007 0.09061 0.0
C2845 C 0.07697 0.49168 0.07119 0.0
C2846 C 0.07617 0.53963 0.13398 0.0
C2847 C 0.105 0.47295 0.0886 0.0
H2848 H 0.1564 0.55191 0.1485 0.0
H2849 H 0.11625 0.50494 0.18462 0.0
H2850 H 0.13048 0.52375 0.09139 0.0
H2851 H 0.12155 0.54901 0.1047 0.0
H2852 H 0.15092 0.54781 0.10805 0.0
H2853 H 0.08648 0.47382 0.16485 0.0
H2854 H 0.06974 0.49092 0.15279 0.0
H2855 H 0.0803 0.46964 0.13415 0.0
H2856 H 0.05248 0.53553 0.09375 0.0
H2857 H 0.07823 0.48099 0.05489 0.0
H2858 H 0.09215 0.55296 0.13593 0.0
H2859 H 0.07566 0.53171 0.14945 0.0
H2860 H 0.06179 0.54836 0.13328 0.0
H2861 H 0.12239 0.48175 0.08602 0.0
H2862 H 0.09888 0.45852 0.07381 0.0
H2863 H 0.10598 0.46581 0.10447 0.0
C2864 C 0.79662 0.8372 0.44744 0.0
C2865 C 0.81232 0.82885 0.45995 0.0
C2866 C 0.7938 0.83174 0.42326 0.0
C2867 C 0.8071 0.8177 0.4112 0.0
C2868 C 0.82266 0.80892 0.42376 0.0
C2869 C 0.82499 0.81447 0.44785 0.0
C2870 C 0.777 0.84146 0.41059 0.0
C2871 C 0.83733 0.79406 0.41171 0.0
C2872 C 0.78892 0.78785 0.34885 0.0
C2873 C 0.80402 0.80141 0.33699 0.0
C2874 C 0.78966 0.79296 0.37295 0.0
C2875 C 0.80529 0.81262 0.38547 0.0
C2876 C 0.82002 0.82681 0.37341 0.0
C2877 C 0.8195 0.82079 0.3494 0.0
C2878 C 0.77413 0.77697 0.38508 0.0
C2879 C 0.83644 0.84833 0.38589 0.0
H2880 H 0.78681 0.84839 0.45652 0.0
H2881 H 0.83733 0.80804 0.45719 0.0
H2882 H 0.78592 0.85268 0.39949 0.0
H2883 H 0.76461 0.82729 0.39925 0.0
H2884 H 0.76762 0.85168 0.42242 0.0
H2885 H 0.84798 0.78784 0.42391 0.0
H2886 H 0.82661 0.77892 0.39993 0.0
H2887 H 0.84861 0.80401 0.40115 0.0
H2888 H 0.77698 0.77281 0.33929 0.0
H2889 H 0.83098 0.83148 0.34024 0.0
H2890 H 0.76367 0.7867 0.39596 0.0
H2891 H 0.78433 0.76955 0.39658 0.0
H2892 H 0.76272 0.76261 0.37291 0.0
H2893 H 0.82723 0.85972 0.39656 0.0
H2894 H 0.84586 0.85816 0.37395 0.0
H2895 H 0.84881 0.8437 0.39761 0.0
C2896 C 0.49905 0.56533 0.83959 0.0
C2897 C 0.47568 0.55762 0.83227 0.0
C2898 C 0.50858 0.56391 0.86173 0.0
C2899 C 0.49496 0.55351 0.87758 0.0
C2900 C 0.4713 0.54572 0.87034 0.0
C2901 C 0.4621 0.54796 0.84827 0.0
C2902 C 0.53364 0.57308 0.86787 0.0
C2903 C 0.45567 0.53395 0.88563 0.0
C2904 C 0.52421 0.52794 0.92493 0.0
C2905 C 0.52536 0.54426 0.94545 0.0
C2906 C 0.51446 0.53061 0.90329 0.0
C2907 C 0.50547 0.55031 0.90113 0.0
C2908 C 0.5069 0.567 0.92171 0.0
C2909 C 0.51645 0.56375 0.94319 0.0
C2910 C 0.51366 0.51201 0.88255 0.0
C2911 C 0.49844 0.58866 0.92107 0.0
H2912 H 0.51021 0.57215 0.8276 0.0
H2913 H 0.44428 0.54091 0.84303 0.0
H2914 H 0.53683 0.58436 0.8851 0.0
H2915 H 0.54203 0.55853 0.86857 0.0
H2916 H 0.5416 0.58303 0.85525 0.0
H2917 H 0.43775 0.52928 0.87825 0.0
H2918 H 0.46092 0.51803 0.88843 0.0
H2919 H 0.45688 0.54532 0.90266 0.0
H2920 H 0.53075 0.5127 0.92577 0.0
H2921 H 0.51704 0.57681 0.95837 0.0
H2922 H 0.52353 0.51929 0.86934 0.0
H2923 H 0.49593 0.5053 0.87489 0.0
H2924 H 0.52056 0.49742 0.88674 0.0
H2925 H 0.50768 0.59829 0.9089 0.0
H2926 H 0.50065 0.60016 0.93817 0.0
H2927 H 0.48024 0.58418 0.91476 0.0
C2928 C 0.82465 0.20326 0.09515 0.0
C2929 C 0.82187 0.17942 0.09406 0.0
C2930 C 0.82298 0.2182 0.11562 0.0
C2931 C 0.81819 0.20915 0.13564 0.0
C2932 C 0.81625 0.18518 0.13492 0.0
C2933 C 0.81822 0.17059 0.11414 0.0
C2934 C 0.8254 0.24359 0.11553 0.0
C2935 C 0.81099 0.17479 0.15583 0.0
C2936 C 0.83183 0.25131 0.19277 0.0
C2937 C 0.81055 0.2557 0.19781 0.0
C2938 C 0.83442 0.23604 0.17287 0.0
C2939 C 0.81534 0.22488 0.15726 0.0
C2940 C 0.79382 0.22943 0.162 0.0
C2941 C 0.79166 0.24469 0.18224 0.0
C2942 C 0.85764 0.23174 0.1686 0.0
C2943 C 0.77306 0.21815 0.14568 0.0
H2944 H 0.82712 0.21012 0.07958 0.0
H2945 H 0.81539 0.15213 0.11326 0.0
H2946 H 0.80923 0.24867 0.11933 0.0
H2947 H 0.83854 0.25397 0.12912 0.0
H2948 H 0.83003 0.24804 0.0988 0.0
H2949 H 0.81103 0.15612 0.15282 0.0
H2950 H 0.82352 0.18385 0.1705 0.0
H2951 H 0.79409 0.17701 0.16082 0.0
H2952 H 0.84658 0.25951 0.20466 0.0
H2953 H 0.77514 0.24781 0.18597 0.0
H2954 H 0.86271 0.23684 0.15227 0.0
H2955 H 0.85731 0.21308 0.16686 0.0
H2956 H 0.87072 0.24143 0.18261 0.0
H2957 H 0.77522 0.22352 0.12889 0.0
H2958 H 0.75744 0.22271 0.15223 0.0
H2959 H 0.77083 0.19913 0.14262 0.0
C2960 C 0.15909 0.58737 0.3032 0.0
C2961 C 0.14139 0.56979 0.29133 0.0
C2962 C 0.15897 0.5957 0.32654 0.0
C2963 C 0.14089 0.58582 0.33809 0.0
C2964 C 0.12306 0.56775 0.32612 0.0
C2965 C 0.12341 0.56009 0.30259 0.0
C2966 C 0.17801 0.61508 0.33872 0.0
C2967 C 0.10379 0.55628 0.33816 0.0
C2968 C 0.13772 0.5826 0.39926 0.0
C2969 C 0.1197 0.59357 0.40304 0.0
C2970 C 0.14778 0.58248 0.3787 0.0
C2971 C 0.13998 0.59442 0.36262 0.0
C2972 C 0.12585 0.60992 0.3691 0.0
C2973 C 0.11576 0.60935 0.3896 0.0
C2974 C 0.16318 0.56608 0.37262 0.0
C2975 C 0.11788 0.62357 0.35262 0.0
H2976 H 0.17294 0.59478 0.29406 0.0
H2977 H 0.10997 0.54638 0.29312 0.0
H2978 H 0.17111 0.62994 0.34665 0.0
H2979 H 0.18678 0.60943 0.35277 0.0
H2980 H 0.19065 0.62101 0.32697 0.0
H2981 H 0.09116 0.54287 0.32618 0.0
H2982 H 0.1106 0.54801 0.35138 0.0
H2983 H 0.095 0.56926 0.34693 0.0
H2984 H 0.14104 0.57088 0.41025 0.0
H2985 H 0.1021 0.61823 0.39297 0.0
H2986 H 0.17565 0.5723 0.3609 0.0
H2987 H 0.15281 0.54909 0.36379 0.0
H2988 H 0.17238 0.56345 0.38823 0.0
H2989 H 0.13152 0.62984 0.34206 0.0
H2990 H 0.11188 0.63855 0.36183 0.0
H2991 H 0.10355 0.61231 0.34086 0.0
C2992 C 0.8192 0.85376 0.60991 0.0
C2993 C 0.81062 0.83794 0.58961 0.0
C2994 C 0.81589 0.84779 0.63158 0.0
C2995 C 0.80311 0.82566 0.63311 0.0
C2996 C 0.79369 0.80995 0.61255 0.0
C2997 C 0.79794 0.81611 0.5911 0.0
C2998 C 0.82694 0.86484 0.65283 0.0
C2999 C 0.7794 0.78647 0.61319 0.0
C3000 C 0.81372 0.79955 0.68575 0.0
C3001 C 0.79674 0.80501 0.6995 0.0
C3002 C 0.81618 0.8065 0.66445 0.0
C3003 C 0.80074 0.8185 0.65606 0.0
C3004 C 0.78328 0.82371 0.66974 0.0
C3005 C 0.78179 0.81736 0.69149 0.0
C3006 C 0.83553 0.80115 0.65103 0.0
C3007 C 0.76593 0.83568 0.66124 0.0
H3008 H 0.82936 0.8705 0.60879 0.0
H3009 H 0.79143 0.80379 0.57544 0.0
H3010 H 0.81404 0.86844 0.66467 0.0
H3011 H 0.83909 0.85736 0.66206 0.0
H3012 H 0.83614 0.88139 0.64883 0.0
H3013 H 0.77183 0.777 0.59588 0.0
H3014 H 0.78987 0.77599 0.62052 0.0
H3015 H 0.76558 0.78819 0.62445 0.0
H3016 H 0.82543 0.79013 0.6919 0.0
H3017 H 0.7685 0.82141 0.70191 0.0
H3018 H 0.84609 0.81733 0.64759 0.0
H3019 H 0.82888 0.78996 0.63421 0.0
H3020 H 0.84648 0.79237 0.66023 0.0
H3021 H 0.77426 0.85337 0.65948 0.0
H3022 H 0.75237 0.83682 0.67297 0.0
H3023 H 0.75806 0.82633 0.64401 0.0
C3024 C 0.71471 0.48164 0.51962 0.0
C3025 C 0.71915 0.47703 0.49647 0.0
C3026 C 0.69472 0.48884 0.52622 0.0
C3027 C 0.67859 0.49179 0.50939 0.0
C3028 C 0.68331 0.48771 0.48609 0.0
C3029 C 0.70324 0.48032 0.47998 0.0
C3030 C 0.69066 0.49289 0.55125 0.0
C3031 C 0.66719 0.49109 0.46744 0.0
C3032 C 0.61571 0.49007 0.51921 0.0
C3033 C 0.61489 0.51354 0.52303 0.0
C3034 C 0.63634 0.48283 0.51577 0.0
C3035 C 0.6569 0.4993 0.51586 0.0
C3036 C 0.65628 0.52301 0.52052 0.0
C3037 C 0.63553 0.52977 0.52409 0.0
C3038 C 0.63598 0.4574 0.51129 0.0
C3039 C 0.67746 0.54138 0.52085 0.0
H3040 H 0.72665 0.47912 0.53261 0.0
H3041 H 0.70631 0.47703 0.46205 0.0
H3042 H 0.68739 0.51036 0.55666 0.0
H3043 H 0.67537 0.48031 0.55401 0.0
H3044 H 0.70522 0.49115 0.5624 0.0
H3045 H 0.67328 0.48751 0.45017 0.0
H3046 H 0.65034 0.47957 0.46734 0.0
H3047 H 0.66483 0.50907 0.47082 0.0
H3048 H 0.6001 0.47724 0.51825 0.0
H3049 H 0.63545 0.54797 0.52696 0.0
H3050 H 0.64899 0.45376 0.52306 0.0
H3051 H 0.64023 0.45199 0.49353 0.0
H3052 H 0.6192 0.44681 0.51348 0.0
H3053 H 0.69106 0.53908 0.53282 0.0
H3054 H 0.67457 0.55906 0.52602 0.0
H3055 H 0.68366 0.53975 0.50354 0.0
C3056 C 0.21829 0.13587 0.50294 0.0
C3057 C 0.21534 0.15379 0.49177 0.0
C3058 C 0.19987 0.11775 0.50433 0.0
C3059 C 0.1782 0.11743 0.49395 0.0
C3060 C 0.17559 0.13469 0.48137 0.0
C3061 C 0.19411 0.15271 0.4806 0.0
C3062 C 0.20333 0.09978 0.51805 0.0
C3063 C 0.1529 0.13489 0.46977 0.0
C3064 C 0.12813 0.0659 0.48543 0.0
C3065 C 0.11512 0.07293 0.50306 0.0
C3066 C 0.14927 0.07967 0.48278 0.0
C3067 C 0.15765 0.10085 0.49823 0.0
C3068 C 0.14504 0.10747 0.51664 0.0
C3069 C 0.12394 0.09355 0.51873 0.0
C3070 C 0.16223 0.07201 0.46297 0.0
C3071 C 0.15345 0.12973 0.53373 0.0
H3072 H 0.23466 0.13667 0.51166 0.0
H3073 H 0.1918 0.16639 0.47171 0.0
H3074 H 0.19449 0.102 0.53389 0.0
H3075 H 0.19588 0.08222 0.50815 0.0
H3076 H 0.22152 0.10102 0.52299 0.0
H3077 H 0.1542 0.14809 0.45877 0.0
H3078 H 0.14527 0.11775 0.45906 0.0
H3079 H 0.14117 0.13857 0.48294 0.0
H3080 H 0.12157 0.04992 0.47335 0.0
H3081 H 0.11427 0.099 0.53267 0.0
H3082 H 0.18006 0.07296 0.46904 0.0
H3083 H 0.1625 0.08378 0.45056 0.0
H3084 H 0.1546 0.05414 0.45386 0.0
H3085 H 0.17105 0.13091 0.54075 0.0
H3086 H 0.14268 0.13135 0.54821 0.0
H3087 H 0.15366 0.14458 0.52504 0.0
C3088 C 0.20736 0.92847 0.78043 0.0
C3089 C 0.2097 0.94544 0.76625 0.0
C3090 C 0.21925 0.90995 0.77836 0.0
C3091 C 0.23463 0.90676 0.7613 0.0
C3092 C 0.2372 0.92368 0.74671 0.0
C3093 C 0.22514 0.94241 0.74933 0.0
C3094 C 0.21524 0.89355 0.79488 0.0
C3095 C 0.25255 0.92171 0.72773 0.0
C3096 C 0.28096 0.86943 0.76941 0.0
C3097 C 0.27096 0.84655 0.75793 0.0
C3098 C 0.26972 0.88853 0.77056 0.0
C3099 C 0.24765 0.88608 0.75917 0.0
C3100 C 0.23773 0.8631 0.74699 0.0
C3101 C 0.24893 0.84406 0.74702 0.0
C3102 C 0.28143 0.91152 0.78484 0.0
C3103 C 0.21484 0.85834 0.73379 0.0
H3104 H 0.19587 0.92957 0.79371 0.0
H3105 H 0.22763 0.9545 0.73776 0.0
H3106 H 0.20745 0.87592 0.78537 0.0
H3107 H 0.2316 0.89281 0.80365 0.0
H3108 H 0.20395 0.89859 0.80805 0.0
H3109 H 0.25327 0.93573 0.71778 0.0
H3110 H 0.26993 0.9222 0.73491 0.0
H3111 H 0.24652 0.90485 0.71592 0.0
H3112 H 0.2976 0.87239 0.77842 0.0
H3113 H 0.24031 0.82701 0.73803 0.0
H3114 H 0.27065 0.91684 0.7984 0.0
H3115 H 0.28389 0.92487 0.77401 0.0
H3116 H 0.29815 0.91111 0.79309 0.0
H3117 H 0.20151 0.85732 0.74587 0.0
H3118 H 0.21146 0.84179 0.72125 0.0
H3119 H 0.21348 0.87246 0.72448 0.0
C3120 C 0.37065 0.97256 0.99255 0.0
C3121 C 0.35702 0.98445 0.0062 0.0
C3122 C 0.39419 0.98079 0.99363 0.0
C3123 C 0.4046 1.00175 0.00854 0.0
C3124 C 0.39076 0.01455 0.02151 0.0
C3125 C 0.36714 0.00557 0.02045 0.0
C3126 C 0.40805 0.96629 0.97972 0.0
C3127 C 0.40105 0.03719 0.03726 0.0
C3128 C 0.46728 0.00718 0.0269 0.0
C3129 C 0.47807 0.01965 0.01121 0.0
C3130 C 0.44347 1.00215 0.02694 0.0
C3131 C 0.42997 0.00961 0.01081 0.0
C3132 C 0.44083 0.02271 0.99537 0.0
C3133 C 0.46461 0.02758 0.99578 0.0
C3134 C 0.43275 0.98826 0.04384 0.0
C3135 C 0.42727 0.03103 0.97788 0.0
H3136 H 0.36297 0.9559 0.98199 0.0
H3137 H 0.35681 0.01447 0.03155 0.0
H3138 H 0.41875 0.97664 0.96904 0.0
H3139 H 0.41958 0.96048 0.9914 0.0
H3140 H 0.39733 0.95083 0.96832 0.0
H3141 H 0.38796 0.04599 0.04462 0.0
H3142 H 0.41189 0.03421 0.05151 0.0
H3143 H 0.41204 0.04883 0.02788 0.0
H3144 H 0.47742 1.00122 0.03911 0.0
H3145 H 0.47264 0.03734 0.98363 0.0
H3146 H 0.42305 0.97119 0.03451 0.0
H3147 H 0.42063 0.99703 0.05318 0.0
H3148 H 0.44551 0.98552 0.05655 0.0
H3149 H 0.41746 0.01603 0.96524 0.0
H3150 H 0.43818 0.04276 0.96851 0.0
H3151 H 0.41493 0.04018 0.98632 0.0
C3152 C 0.86398 0.55739 0.76824 0.0
C3153 C 0.88765 0.56228 0.7714 0.0
C3154 C 0.8526 0.57336 0.76145 0.0
C3155 C 0.86524 0.59479 0.75803 0.0
C3156 C 0.88917 0.59968 0.76079 0.0
C3157 C 0.90014 0.58323 0.76731 0.0
C3158 C 0.82704 0.56753 0.75846 0.0
C3159 C 0.90314 0.62252 0.7576 0.0
C3160 C 0.83451 0.63009 0.72604 0.0
C3161 C 0.82813 0.64485 0.74425 0.0
C3162 C 0.84701 0.61389 0.73023 0.0
C3163 C 0.85326 0.61261 0.75312 0.0
C3164 C 0.84717 0.62769 0.77153 0.0
C3165 C 0.83452 0.64349 0.76687 0.0
C3166 C 0.85327 0.59798 0.71024 0.0
C3167 C 0.85366 0.62688 0.79619 0.0
H3168 H 0.8543 0.5411 0.77118 0.0
H3169 H 0.91847 0.58705 0.76978 0.0
H3170 H 0.82036 0.57964 0.77117 0.0
H3171 H 0.82099 0.56953 0.74117 0.0
H3172 H 0.81981 0.54965 0.76066 0.0
H3173 H 0.9216 0.62317 0.75937 0.0
H3174 H 0.89851 0.62592 0.74046 0.0
H3175 H 0.89952 0.63664 0.77053 0.0
H3176 H 0.82987 0.6313 0.70855 0.0
H3177 H 0.82933 0.6546 0.78101 0.0
H3178 H 0.84545 0.57982 0.71091 0.0
H3179 H 0.87187 0.59962 0.71129 0.0
H3180 H 0.84767 0.60164 0.69347 0.0
H3181 H 0.84538 0.60996 0.80006 0.0
H3182 H 0.84869 0.6407 0.80845 0.0
H3183 H 0.87222 0.62863 0.79907 0.0
C3184 C 0.8639 0.67544 0.99593 0.0
C3185 C 0.8428 0.6734 0.00488 0.0
C3186 C 0.87913 0.66228 0.00168 0.0
C3187 C 0.87324 0.64694 0.01696 0.0
C3188 C 0.85212 0.64508 0.02635 0.0
C3189 C 0.83708 0.6582 0.02006 0.0
C3190 C 0.90148 0.66462 0.99124 0.0
C3191 C 0.84541 0.62926 0.04305 0.0
C3192 C 0.90373 0.59772 0.0131 0.0
C3193 C 0.92077 0.60613 0.03121 0.0
C3194 C 0.88774 0.61056 0.0087 0.0
C3195 C 0.889 0.63244 0.02261 0.0
C3196 C 0.90585 0.64078 0.04127 0.0
C3197 C 0.92153 0.62749 0.04537 0.0
C3198 C 0.86974 0.60089 0.98891 0.0
C3199 C 0.90775 0.66401 0.05652 0.0
H3200 H 0.86842 0.68716 0.98421 0.0
H3201 H 0.82091 0.65674 0.02728 0.0
H3202 H 0.91565 0.66984 0.00497 0.0
H3203 H 0.90277 0.64773 0.98114 0.0
H3204 H 0.90362 0.6775 0.97985 0.0
H3205 H 0.8285 0.63006 0.04905 0.0
H3206 H 0.84515 0.6112 0.03491 0.0
H3207 H 0.85808 0.63392 0.05818 0.0
H3208 H 0.9029 0.58104 0.00236 0.0
H3209 H 0.93479 0.63411 0.05931 0.0
H3210 H 0.87186 0.61217 0.97598 0.0
H3211 H 0.8527 0.60056 0.99496 0.0
H3212 H 0.87042 0.58315 0.98045 0.0
H3213 H 0.91307 0.67783 0.04659 0.0
H3214 H 0.92023 0.66691 0.07165 0.0
H3215 H 0.89108 0.6657 0.06261 0.0
C3216 C 0.23138 0.10005 0.77606 0.0
C3217 C 0.20886 0.09231 0.76594 0.0
C3218 C 0.24421 0.12314 0.77653 0.0
C3219 C 0.23484 0.13939 0.76636 0.0
C3220 C 0.21243 0.13129 0.75557 0.0
C3221 C 0.19999 0.10851 0.75571 0.0
C3222 C 0.26771 0.13039 0.78864 0.0
C3223 C 0.20128 0.14684 0.74379 0.0
C3224 C 0.25552 0.20695 0.78292 0.0
C3225 C 0.27007 0.21271 0.76601 0.0
C3226 C 0.245 0.18355 0.78382 0.0
C3227 C 0.24795 0.16468 0.76689 0.0
C3228 C 0.26234 0.1705 0.74958 0.0
C3229 C 0.27341 0.19394 0.74967 0.0
C3230 C 0.23065 0.17903 0.80315 0.0
C3231 C 0.26569 0.15189 0.73044 0.0
H3232 H 0.23879 0.08839 0.78436 0.0
H3233 H 0.18281 0.10335 0.74763 0.0
H3234 H 0.28001 0.13694 0.77689 0.0
H3235 H 0.2683 0.14475 0.8033 0.0
H3236 H 0.27313 0.11602 0.79513 0.0
H3237 H 0.18434 0.13788 0.73505 0.0
H3238 H 0.19929 0.16193 0.75648 0.0
H3239 H 0.21212 0.15351 0.73092 0.0
H3240 H 0.25269 0.22081 0.79591 0.0
H3241 H 0.28436 0.19763 0.73635 0.0
H3242 H 0.23612 0.16583 0.81162 0.0
H3243 H 0.21272 0.17207 0.7963 0.0
H3244 H 0.23164 0.19487 0.81622 0.0
H3245 H 0.27347 0.13923 0.73755 0.0
H3246 H 0.27664 0.15891 0.71779 0.0
H3247 H 0.24906 0.14241 0.72136 0.0
C3248 C 0.36978 0.9577 0.26112 0.0
C3249 C 0.39031 0.95065 0.26329 0.0
C3250 C 0.34916 0.94206 0.2606 0.0
C3251 C 0.34931 0.91902 0.26198 0.0
C3252 C 0.36978 0.91122 0.26102 0.0
C3253 C 0.39013 0.9272 0.26157 0.0
C3254 C 0.32749 0.95062 0.26082 0.0
C3255 C 0.37051 0.88648 0.26173 0.0
C3256 C 0.31259 0.88134 0.29501 0.0
C3257 C 0.30133 0.86412 0.27693 0.0
C3258 C 0.32639 0.90138 0.29041 0.0
C3259 C 0.32887 0.90361 0.26727 0.0
C3260 C 0.31484 0.88777 0.24932 0.0
C3261 C 0.30086 0.86824 0.25449 0.0
C3262 C 0.34081 0.91832 0.31004 0.0
C3263 C 0.31707 0.88923 0.22444 0.0
H3264 H 0.36981 0.97576 0.26181 0.0
H3265 H 0.40594 0.92158 0.26261 0.0
H3266 H 0.3141 0.93858 0.24853 0.0
H3267 H 0.32139 0.95141 0.27815 0.0
H3268 H 0.32988 0.96807 0.2565 0.0
H3269 H 0.38732 0.88277 0.25818 0.0
H3270 H 0.36681 0.88289 0.27897 0.0
H3271 H 0.35746 0.87446 0.24905 0.0
H3272 H 0.31299 0.87791 0.31229 0.0
H3273 H 0.29207 0.85465 0.24056 0.0
H3274 H 0.34222 0.93629 0.30745 0.0
H3275 H 0.35814 0.915 0.3109 0.0
H3276 H 0.33385 0.91668 0.32672 0.0
H3277 H 0.30066 0.88161 0.21402 0.0
H3278 H 0.32952 0.87916 0.21779 0.0
H3279 H 0.32301 0.90721 0.222 0.0
C3280 C 0.6147 0.34352 0.58793 0.0
C3281 C 0.59936 0.32389 0.59105 0.0
C3282 C 0.60701 0.36032 0.57826 0.0
C3283 C 0.58378 0.35644 0.5707 0.0
C3284 C 0.56825 0.3367 0.57421 0.0
C3285 C 0.57624 0.3208 0.58483 0.0
C3286 C 0.62371 0.38178 0.57554 0.0
C3287 C 0.54346 0.33175 0.5657 0.0
C3288 C 0.55659 0.40422 0.55963 0.0
C3289 C 0.55644 0.40167 0.53576 0.0
C3290 C 0.56628 0.39011 0.57135 0.0
C3291 C 0.57551 0.37275 0.55874 0.0
C3292 C 0.57524 0.36985 0.53459 0.0
C3293 C 0.56568 0.38451 0.52329 0.0
C3294 C 0.56634 0.39355 0.59714 0.0
C3295 C 0.58471 0.35109 0.52076 0.0
H3296 H 0.6326 0.34547 0.59267 0.0
H3297 H 0.56463 0.30515 0.58689 0.0
H3298 H 0.62531 0.38188 0.55707 0.0
H3299 H 0.61755 0.39736 0.5828 0.0
H3300 H 0.64074 0.38298 0.58411 0.0
H3301 H 0.53366 0.31572 0.57027 0.0
H3302 H 0.53581 0.34629 0.57293 0.0
H3303 H 0.54171 0.32992 0.54677 0.0
H3304 H 0.54909 0.41734 0.56918 0.0
H3305 H 0.56566 0.38277 0.50485 0.0
H3306 H 0.58368 0.39509 0.60511 0.0
H3307 H 0.55532 0.37835 0.60198 0.0
H3308 H 0.56021 0.40915 0.60445 0.0
H3309 H 0.60265 0.35273 0.52694 0.0
H3310 H 0.58374 0.35162 0.50218 0.0
H3311 H 0.57523 0.33396 0.52307 0.0
C3312 C 0.4495 0.82342 0.35492 0.0
C3313 C 0.45955 0.80457 0.35421 0.0
C3314 C 0.43358 0.82364 0.33733 0.0
C3315 C 0.42712 0.804 0.31962 0.0
C3316 C 0.43969 0.78663 0.31713 0.0
C3317 C 0.45612 0.78722 0.33463 0.0
C3318 C 0.42126 0.84311 0.33963 0.0
C3319 C 0.4335 0.76575 0.29806 0.0
C3320 C 0.36406 0.7872 0.31532 0.0
C3321 C 0.35861 0.79467 0.29539 0.0
C3322 C 0.38657 0.78847 0.32235 0.0
C3323 C 0.40373 0.79833 0.30942 0.0
C3324 C 0.39813 0.8051 0.28874 0.0
C3325 C 0.37536 0.80291 0.28177 0.0
C3326 C 0.39192 0.78027 0.34418 0.0
C3327 C 0.41592 0.81595 0.27474 0.0
H3328 H 0.45307 0.83726 0.36983 0.0
H3329 H 0.46457 0.77299 0.33403 0.0
H3330 H 0.41702 0.84702 0.32262 0.0
H3331 H 0.40519 0.83796 0.34741 0.0
H3332 H 0.43149 0.859 0.3508 0.0
H3333 H 0.44809 0.75748 0.29493 0.0
H3334 H 0.41955 0.75294 0.30295 0.0
H3335 H 0.42753 0.77031 0.2819 0.0
H3336 H 0.3507 0.78041 0.32535 0.0
H3337 H 0.37067 0.80852 0.2662 0.0
H3338 H 0.39997 0.79528 0.35776 0.0
H3339 H 0.40398 0.76874 0.34138 0.0
H3340 H 0.37653 0.7708 0.35056 0.0
H3341 H 0.42051 0.83484 0.28126 0.0
H3342 H 0.40943 0.81303 0.25641 0.0
H3343 H 0.43154 0.80925 0.27596 0.0
C3344 C 0.09256 0.68621 0.09069 0.0
C3345 C 0.08031 0.70072 0.08239 0.0
C3346 C 0.08304 0.66282 0.08839 0.0
C3347 C 0.0613 0.65397 0.07658 0.0
C3348 C 0.04755 0.669 0.07172 0.0
C3349 C 0.05736 0.69247 0.07448 0.0
C3350 C 0.09723 0.64727 0.09613 0.0
C3351 C 0.02339 0.66008 0.0615 0.0
C3352 C 0.07117 0.60771 0.03102 0.0
C3353 C 0.06583 0.58889 0.04176 0.0
C3354 C 0.06692 0.62883 0.04107 0.0
C3355 C 0.05746 0.63086 0.06249 0.0
C3356 C 0.05026 0.61126 0.07231 0.0
C3357 C 0.05503 0.59042 0.06196 0.0
C3358 C 0.07416 0.64927 0.02957 0.0
C3359 C 0.03861 0.61219 0.09414 0.0
H3360 H 0.10975 0.69299 0.09849 0.0
H3361 H 0.04741 0.70409 0.06948 0.0
H3362 H 0.08711 0.63509 0.1056 0.0
H3363 H 0.10273 0.63698 0.08096 0.0
H3364 H 0.11253 0.65717 0.10741 0.0
H3365 H 0.01307 0.67304 0.06655 0.0
H3366 H 0.02296 0.65664 0.04253 0.0
H3367 H 0.01562 0.64377 0.06695 0.0
H3368 H 0.07889 0.60595 0.01495 0.0
H3369 H 0.05056 0.57538 0.06982 0.0
H3370 H 0.08832 0.66201 0.04026 0.0
H3371 H 0.05995 0.65793 0.0276 0.0
H3372 H 0.07986 0.64424 0.01234 0.0
H3373 H 0.05007 0.60949 0.10806 0.0
H3374 H 0.02334 0.59789 0.09177 0.0
H3375 H 0.03341 0.62873 0.09958 0.0
C3376 C 0.084 0.32125 0.87469 0.0
C3377 C 0.06813 0.30254 0.86186 0.0
C3378 C 0.10698 0.32407 0.87149 0.0
C3379 C 0.11394 0.30806 0.85462 0.0
C3380 C 0.09802 0.28851 0.84232 0.0
C3381 C 0.07513 0.28582 0.84632 0.0
C3382 C 0.12358 0.34469 0.88538 0.0
C3383 C 0.10498 0.27117 0.82411 0.0
C3384 C 0.1612 0.32752 0.81945 0.0
C3385 C 0.17758 0.31633 0.82655 0.0
C3386 C 0.14089 0.3262 0.82962 0.0
C3387 C 0.137 0.31342 0.84733 0.0
C3388 C 0.15428 0.30387 0.85603 0.0
C3389 C 0.17447 0.30536 0.8454 0.0
C3390 C 0.12287 0.33679 0.82 0.0
C3391 C 0.15089 0.29082 0.87546 0.0
H3392 H 0.07836 0.33375 0.88719 0.0
H3393 H 0.06267 0.27116 0.83684 0.0
H3394 H 0.13878 0.33949 0.89201 0.0
H3395 H 0.12933 0.35734 0.8743 0.0
H3396 H 0.11597 0.3534 0.90007 0.0
H3397 H 0.09085 0.25616 0.81726 0.0
H3398 H 0.11093 0.27957 0.8097 0.0
H3399 H 0.11928 0.26482 0.83112 0.0
H3400 H 0.16348 0.33586 0.80477 0.0
H3401 H 0.18737 0.29705 0.85113 0.0
H3402 H 0.11597 0.34728 0.83397 0.0
H3403 H 0.10865 0.32288 0.81095 0.0
H3404 H 0.12941 0.34792 0.80773 0.0
H3405 H 0.14314 0.30033 0.88948 0.0
H3406 H 0.16706 0.28774 0.88253 0.0
H3407 H 0.13911 0.27388 0.86921 0.0
C3408 C 0.60706 0.75295 0.9546 0.0
C3409 C 0.59423 0.76415 0.94217 0.0
C3410 C 0.59697 0.73171 0.96018 0.0
C3411 C 0.57362 0.72216 0.95354 0.0
C3412 C 0.56118 0.73288 0.93971 0.0
C3413 C 0.57175 0.75371 0.93407 0.0
C3414 C 0.61083 0.72021 0.97437 0.0
C3415 C 0.53621 0.72365 0.93263 0.0
C3416 C 0.54908 0.66172 0.96232 0.0
C3417 C 0.54265 0.66614 0.98474 0.0
C3418 C 0.55885 0.6798 0.95164 0.0
C3419 C 0.5616 0.70276 0.96345 0.0
C3420 C 0.55333 0.70736 0.9852 0.0
C3421 C 0.54415 0.68897 0.9957 0.0
C3422 C 0.56723 0.67431 0.92828 0.0
C3423 C 0.55511 0.73173 0.99787 0.0
H3424 H 0.62445 0.76122 0.96081 0.0
H3425 H 0.56198 0.76266 0.92444 0.0
H3426 H 0.60514 0.72147 0.99188 0.0
H3427 H 0.60827 0.70161 0.96678 0.0
H3428 H 0.62919 0.72825 0.97576 0.0
H3429 H 0.53029 0.73132 0.91841 0.0
H3430 H 0.53216 0.70464 0.92722 0.0
H3431 H 0.52652 0.72795 0.94749 0.0
H3432 H 0.54734 0.64407 0.95347 0.0
H3433 H 0.53931 0.69258 0.01302 0.0
H3434 H 0.58597 0.67972 0.92974 0.0
H3435 H 0.56059 0.68407 0.91636 0.0
H3436 H 0.56225 0.65563 0.92069 0.0
H3437 H 0.57318 0.74026 0.0028 0.0
H3438 H 0.54604 0.73231 0.01364 0.0
H3439 H 0.54806 0.7419 0.98663 0.0
C3440 C 0.06075 0.73159 0.68346 0.0
C3441 C 0.05398 0.74462 0.66826 0.0
C3442 C 0.08295 0.737 0.69358 0.0
C3443 C 0.09866 0.75563 0.688 0.0
C3444 C 0.09189 0.76901 0.67283 0.0
C3445 C 0.06948 0.76338 0.66318 0.0
C3446 C 0.08967 0.72256 0.70998 0.0
C3447 C 0.10839 0.7888 0.6664 0.0
C3448 C 0.1502 0.77331 0.73017 0.0
C3449 C 0.16389 0.75941 0.71944 0.0
C3450 C 0.12948 0.77392 0.71917 0.0
C3451 C 0.12243 0.76002 0.69724 0.0
C3452 C 0.137 0.74735 0.68569 0.0
C3453 C 0.15769 0.74724 0.69698 0.0
C3454 C 0.11446 0.78804 0.73168 0.0
C3455 C 0.12998 0.73233 0.66226 0.0
H3456 H 0.04867 0.71725 0.68755 0.0
H3457 H 0.06421 0.77341 0.6513 0.0
H3458 H 0.10296 0.71386 0.70303 0.0
H3459 H 0.09689 0.73373 0.72667 0.0
H3460 H 0.07514 0.7092 0.71305 0.0
H3461 H 0.09993 0.79862 0.65583 0.0
H3462 H 0.11732 0.8008 0.68201 0.0
H3463 H 0.12143 0.78212 0.65654 0.0
H3464 H 0.15537 0.78305 0.74741 0.0
H3465 H 0.1684 0.73652 0.68877 0.0
H3466 H 0.10052 0.7764 0.73803 0.0
H3467 H 0.10666 0.79727 0.72 0.0
H3468 H 0.12393 0.80083 0.74656 0.0
H3469 H 0.11696 0.71691 0.6638 0.0
H3470 H 0.14446 0.72643 0.65435 0.0
H3471 H 0.12234 0.74169 0.65059 0.0
C3472 C 0.09169 0.38305 0.44428 0.0
C3473 C 0.11506 0.38464 0.44604 0.0
C3474 C 0.08272 0.40249 0.44648 0.0
C3475 C 0.09756 0.42426 0.45272 0.0
C3476 C 0.12135 0.42632 0.45392 0.0
C3477 C 0.12997 0.40621 0.45005 0.0
C3478 C 0.05723 0.39944 0.44467 0.0
C3479 C 0.13746 0.4495 0.46097 0.0
C3480 C 0.06624 0.47228 0.45894 0.0
C3481 C 0.06233 0.47425 0.48208 0.0
C3482 C 0.07913 0.45701 0.44924 0.0
C3483 C 0.08779 0.44344 0.46309 0.0
C3484 C 0.08353 0.44527 0.48643 0.0
C3485 C 0.07079 0.46071 0.49562 0.0
C3486 C 0.08332 0.45523 0.42428 0.0
C3487 C 0.09194 0.43056 0.5016 0.0
H3488 H 0.08016 0.3665 0.44223 0.0
H3489 H 0.14808 0.40732 0.45132 0.0
H3490 H 0.05141 0.40185 0.46213 0.0
H3491 H 0.05187 0.41236 0.43577 0.0
H3492 H 0.04854 0.38196 0.43528 0.0
H3493 H 0.15501 0.44868 0.45702 0.0
H3494 H 0.13187 0.46249 0.4523 0.0
H3495 H 0.13759 0.45555 0.4797 0.0
H3496 H 0.06012 0.48336 0.44877 0.0
H3497 H 0.06786 0.46265 0.51363 0.0
H3498 H 0.07505 0.43778 0.41462 0.0
H3499 H 0.10172 0.45764 0.42241 0.0
H3500 H 0.07673 0.4682 0.41638 0.0
H3501 H 0.08327 0.41222 0.49556 0.0
H3502 H 0.08877 0.43566 0.51981 0.0
H3503 H 0.11036 0.43178 0.50071 0.0
C3504 C 0.41555 0.24677 0.17308 0.0
C3505 C 0.43896 0.25246 0.17794 0.0
C3506 C 0.40161 0.25266 0.19008 0.0
C3507 C 0.41162 0.26401 0.21229 0.0
C3508 C 0.43536 0.26987 0.2171 0.0
C3509 C 0.44884 0.2641 0.19967 0.0
C3510 C 0.37624 0.24641 0.18441 0.0
C3511 C 0.4464 0.28151 0.24074 0.0
C3512 C 0.37296 0.29431 0.24684 0.0
C3513 C 0.36171 0.27643 0.2569 0.0
C3514 C 0.39041 0.291 0.23313 0.0
C3515 C 0.39707 0.26968 0.23041 0.0
C3516 C 0.38758 0.2527 0.2429 0.0
C3517 C 0.36959 0.25616 0.2558 0.0
C3518 C 0.39975 0.30914 0.21948 0.0
C3519 C 0.39477 0.23 0.24081 0.0
H3520 H 0.40824 0.23732 0.15622 0.0
H3521 H 0.46711 0.26789 0.20322 0.0
H3522 H 0.36823 0.23461 0.19546 0.0
H3523 H 0.36928 0.26215 0.18789 0.0
H3524 H 0.37133 0.23789 0.16621 0.0
H3525 H 0.46516 0.2847 0.24159 0.0
H3526 H 0.44146 0.29821 0.24601 0.0
H3527 H 0.44041 0.27063 0.25337 0.0
H3528 H 0.36641 0.3098 0.24746 0.0
H3529 H 0.36058 0.24237 0.26355 0.0
H3530 H 0.39353 0.30277 0.20113 0.0
H3531 H 0.41849 0.31258 0.22064 0.0
H3532 H 0.3945 0.32561 0.22535 0.0
H3533 H 0.3877 0.21891 0.22404 0.0
H3534 H 0.38867 0.22062 0.25456 0.0
H3535 H 0.41348 0.23271 0.24151 0.0
C3536 C 0.61204 0.50809 0.33641 0.0
C3537 C 0.63351 0.5218 0.3341 0.0
C3538 C 0.60158 0.50937 0.35772 0.0
C3539 C 0.61212 0.52521 0.3781 0.0
C3540 C 0.63387 0.53896 0.37587 0.0
C3541 C 0.64393 0.53728 0.35438 0.0
C3542 C 0.57857 0.49418 0.35812 0.0
C3543 C 0.64649 0.5561 0.39631 0.0
C3544 C 0.57698 0.54671 0.42902 0.0
C3545 C 0.57898 0.53241 0.44516 0.0
C3546 C 0.58693 0.54422 0.40743 0.0
C3547 C 0.60049 0.52764 0.40132 0.0
C3548 C 0.60296 0.51356 0.41787 0.0
C3549 C 0.59202 0.51573 0.43882 0.0
C3550 C 0.58257 0.55933 0.39084 0.0
C3551 C 0.6175 0.49609 0.41358 0.0
H3552 H 0.6029 0.49669 0.32118 0.0
H3553 H 0.65992 0.54886 0.3533 0.0
H3554 H 0.57877 0.48432 0.37216 0.0
H3555 H 0.56599 0.50504 0.36158 0.0
H3556 H 0.57292 0.48182 0.34168 0.0
H3557 H 0.66357 0.56477 0.39262 0.0
H3558 H 0.63672 0.56944 0.4017 0.0
H3559 H 0.64833 0.54732 0.41097 0.0
H3560 H 0.56704 0.55963 0.43298 0.0
H3561 H 0.5942 0.50448 0.45068 0.0
H3562 H 0.57493 0.54845 0.37412 0.0
H3563 H 0.59878 0.57024 0.38769 0.0
H3564 H 0.57107 0.57068 0.39719 0.0
H3565 H 0.60984 0.48253 0.39853 0.0
H3566 H 0.61953 0.48775 0.42855 0.0
H3567 H 0.63452 0.50447 0.40951 0.0
C3568 C 0.27699 0.89386 0.06325 0.0
C3569 C 0.28964 0.91399 0.05779 0.0
C3570 C 0.28367 0.88575 0.08262 0.0
C3571 C 0.30396 0.89764 0.09621 0.0
C3572 C 0.31653 0.9183 0.091 0.0
C3573 C 0.309 0.92642 0.07196 0.0
C3574 C 0.26964 0.86379 0.08781 0.0
C3575 C 0.33882 0.9308 0.10432 0.0
C3576 C 0.30931 0.88069 0.15401 0.0
C3577 C 0.31926 0.86164 0.14872 0.0
C3578 C 0.30546 0.8936 0.13742 0.0
C3579 C 0.31225 0.88765 0.1152 0.0
C3580 C 0.3245 0.87005 0.1105 0.0
C3581 C 0.32763 0.85704 0.12725 0.0
C3582 C 0.29255 0.91239 0.14315 0.0
C3583 C 0.33289 0.8638 0.08728 0.0
H3584 H 0.26245 0.88394 0.0518 0.0
H3585 H 0.31927 0.94148 0.06706 0.0
H3586 H 0.27919 0.8499 0.08481 0.0
H3587 H 0.26612 0.8663 0.10609 0.0
H3588 H 0.25329 0.85793 0.07695 0.0
H3589 H 0.345 0.94805 0.09999 0.0
H3590 H 0.33738 0.93293 0.12303 0.0
H3591 H 0.35172 0.92043 0.1003 0.0
H3592 H 0.30351 0.88485 0.17083 0.0
H3593 H 0.33543 0.84243 0.12298 0.0
H3594 H 0.27543 0.90674 0.13378 0.0
H3595 H 0.30114 0.92832 0.13756 0.0
H3596 H 0.29065 0.91656 0.16179 0.0
H3597 H 0.3185 0.85355 0.07498 0.0
H3598 H 0.34593 0.85338 0.0879 0.0
H3599 H 0.34016 0.8795 0.08057 0.0
C3600 C 0.95068 0.51268 0.87259 0.0
C3601 C 0.95613 0.52302 0.85382 0.0
C3602 C 0.96713 0.51498 0.89059 0.0
C3603 C 0.98923 0.5278 0.88933 0.0
C3604 C 0.99528 0.53626 0.8694 0.0
C3605 C 0.97848 0.534 0.85186 0.0
C3606 C 0.96064 0.50474 0.91134 0.0
C3607 C 0.01914 0.54866 0.86712 0.0
C3608 C 0.0146 0.56194 0.94681 0.0
C3609 C 0.02922 0.54855 0.95277 0.0
C3610 C 1.00254 0.55607 0.92525 0.0
C3611 C 0.00465 0.53584 0.91015 0.0
C3612 C 0.02022 0.52284 0.91576 0.0
C3613 C 0.03268 0.52966 0.93704 0.0
C3614 C 0.9864 0.57057 0.91924 0.0
C3615 C 0.02228 0.50067 0.90053 0.0
H3616 H 0.93351 0.50328 0.87335 0.0
H3617 H 0.98288 0.54074 0.83655 0.0
H3618 H 0.97344 0.49539 0.91643 0.0
H3619 H 0.96015 0.51878 0.92597 0.0
H3620 H 0.94379 0.49266 0.90819 0.0
H3621 H 0.02167 0.55102 0.84926 0.0
H3622 H 0.0229 0.56587 0.87851 0.0
H3623 H 0.03152 0.539 0.87255 0.0
H3624 H 0.01184 0.57624 0.95933 0.0
H3625 H 0.04359 0.51892 0.94217 0.0
H3626 H 0.96871 0.56058 0.91829 0.0
H3627 H 0.98928 0.57507 0.90218 0.0
H3628 H 0.98829 0.58675 0.93207 0.0
H3629 H 0.00951 0.48619 0.90452 0.0
H3630 H 0.03925 0.49695 0.90363 0.0
H3631 H 0.01919 0.50104 0.88208 0.0
C3632 C 0.26563 0.24095 0.58256 0.0
C3633 C 0.28312 0.24247 0.56803 0.0
C3634 C 0.2703 0.24603 0.60651 0.0
C3635 C 0.29302 0.25382 0.61623 0.0
C3636 C 0.31077 0.25584 0.6016 0.0
C3637 C 0.30563 0.24962 0.57766 0.0
C3638 C 0.2509 0.24259 0.62139 0.0
C3639 C 0.33516 0.26469 0.61123 0.0
C3640 C 0.29872 0.28733 0.6775 0.0
C3641 C 0.30326 0.27106 0.69016 0.0
C3642 C 0.29657 0.28233 0.65341 0.0
C3643 C 0.29797 0.26017 0.64171 0.0
C3644 C 0.30267 0.2437 0.65451 0.0
C3645 C 0.30569 0.24953 0.6786 0.0
C3646 C 0.29245 0.30068 0.64047 0.0
C3647 C 0.30336 0.21957 0.6429 0.0
H3648 H 0.24823 0.2349 0.57517 0.0
H3649 H 0.31918 0.25062 0.56643 0.0
H3650 H 0.25381 0.23105 0.6333 0.0
H3651 H 0.24989 0.25933 0.63199 0.0
H3652 H 0.23437 0.23502 0.61115 0.0
H3653 H 0.34687 0.26629 0.59757 0.0
H3654 H 0.33722 0.28182 0.62254 0.0
H3655 H 0.34018 0.25291 0.62188 0.0
H3656 H 0.297 0.30404 0.6865 0.0
H3657 H 0.30896 0.23688 0.68846 0.0
H3658 H 0.27522 0.29547 0.63138 0.0
H3659 H 0.30467 0.30267 0.62731 0.0
H3660 H 0.29405 0.31765 0.65197 0.0
H3661 H 0.2862 0.21043 0.63493 0.0
H3662 H 0.30905 0.20948 0.65509 0.0
H3663 H 0.3148 0.21999 0.62897 0.0
C3664 C 0.63209 0.50531 0.1796 0.0
C3665 C 0.62736 0.51972 0.19942 0.0
C3666 C 0.6226 0.50546 0.15682 0.0
C3667 C 0.60794 0.52053 0.15288 0.0
C3668 C 0.60304 0.53482 0.17282 0.0
C3669 C 0.61248 0.53419 0.19517 0.0
C3670 C 0.62855 0.48955 0.13675 0.0
C3671 C 0.5877 0.55121 0.17061 0.0
C3672 C 0.59903 0.54132 0.09442 0.0
C3673 C 0.57817 0.52732 0.08381 0.0
C3674 C 0.60911 0.53863 0.11588 0.0
C3675 C 0.59808 0.522 0.12838 0.0
C3676 C 0.57682 0.50799 0.11782 0.0
C3677 C 0.56755 0.51043 0.09586 0.0
C3678 C 0.63185 0.55382 0.12527 0.0
C3679 C 0.56349 0.49047 0.12997 0.0
H3680 H 0.64338 0.49395 0.18179 0.0
H3681 H 0.60823 0.54567 0.2096 0.0
H3682 H 0.6129 0.47868 0.12678 0.0
H3683 H 0.63783 0.49987 0.1251 0.0
H3684 H 0.63916 0.47815 0.14217 0.0
H3685 H 0.58481 0.56084 0.1875 0.0
H3686 H 0.59517 0.56383 0.16011 0.0
H3687 H 0.57109 0.54155 0.16163 0.0
H3688 H 0.60782 0.55435 0.08566 0.0
H3689 H 0.55149 0.49938 0.08835 0.0
H3690 H 0.64381 0.54307 0.12911 0.0
H3691 H 0.63018 0.56519 0.1416 0.0
H3692 H 0.63921 0.56476 0.11315 0.0
H3693 H 0.57327 0.47727 0.13217 0.0
H3694 H 0.54683 0.48169 0.12047 0.0
H3695 H 0.5606 0.49894 0.14734 0.0
C3696 C 0.3047 0.88089 0.93445 0.0
C3697 C 0.28875 0.89483 0.93809 0.0
C3698 C 0.30369 0.8648 0.91422 0.0
C3699 C 0.28613 0.86212 0.89679 0.0
C3700 C 0.26917 0.87515 0.90063 0.0
C3701 C 0.27064 0.89139 0.92131 0.0
C3702 C 0.32233 0.85164 0.91106 0.0
C3703 C 0.25 0.87253 0.88253 0.0
C3704 C 0.30538 0.84492 0.83788 0.0
C3705 C 0.29737 0.82084 0.83293 0.0
C3706 C 0.3007 0.85852 0.85791 0.0
C3707 C 0.28766 0.84799 0.87378 0.0
C3708 C 0.27906 0.82374 0.86879 0.0
C3709 C 0.28401 0.81043 0.84841 0.0
C3710 C 0.31062 0.88418 0.86251 0.0
C3711 C 0.26517 0.8118 0.88528 0.0
H3712 H 0.31857 0.88283 0.94739 0.0
H3713 H 0.25811 0.90181 0.92397 0.0
H3714 H 0.31509 0.83292 0.90538 0.0
H3715 H 0.33276 0.85745 0.89752 0.0
H3716 H 0.33365 0.85419 0.92702 0.0
H3717 H 0.23688 0.8818 0.88895 0.0
H3718 H 0.25669 0.87943 0.86755 0.0
H3719 H 0.24198 0.85402 0.87642 0.0
H3720 H 0.31559 0.85334 0.82609 0.0
H3721 H 0.27752 0.79192 0.84469 0.0
H3722 H 0.32358 0.88875 0.8774 0.0
H3723 H 0.29729 0.89388 0.8669 0.0
H3724 H 0.31869 0.88998 0.84759 0.0
H3725 H 0.27614 0.81218 0.9009 0.0
H3726 H 0.25725 0.79354 0.87768 0.0
H3727 H 0.2517 0.82097 0.89072 0.0
C3728 C 0.97552 0.48911 0.72479 0.0
C3729 C 0.96051 0.49918 0.73781 0.0
C3730 C 0.9744 0.48832 0.70114 0.0
C3731 C 0.95754 0.4974 0.69075 0.0
C3732 C 0.94088 0.50523 0.70367 0.0
C3733 C 0.94279 0.50637 0.72727 0.0
C3734 C 0.99239 0.47967 0.68771 0.0
C3735 C 0.92212 0.51396 0.69288 0.0
C3736 C 0.98231 0.52884 0.64624 0.0
C3737 C 0.97808 0.51089 0.62721 0.0
C3738 C 0.97415 0.52516 0.66699 0.0
C3739 C 0.96054 0.50336 0.66809 0.0
C3740 C 0.9533 0.48648 0.64797 0.0
C3741 C 0.96268 0.49025 0.62763 0.0
C3742 C 0.98272 0.54346 0.68821 0.0
C3743 C 0.9377 0.4636 0.64834 0.0
H3744 H 0.98877 0.48306 0.73324 0.0
H3745 H 0.93071 0.51337 0.73761 0.0
H3746 H 0.98449 0.46674 0.67231 0.0
H3747 H 1.00338 0.49422 0.68178 0.0
H3748 H 1.00319 0.47171 0.69808 0.0
H3749 H 0.90823 0.51502 0.70422 0.0
H3750 H 0.92892 0.53144 0.68946 0.0
H3751 H 0.91505 0.50259 0.67623 0.0
H3752 H 0.99442 0.54468 0.64571 0.0
H3753 H 0.95948 0.47647 0.61269 0.0
H3754 H 0.99416 0.53713 0.69952 0.0
H3755 H 0.96848 0.54721 0.69807 0.0
H3756 H 0.99221 0.55983 0.68407 0.0
H3757 H 0.94789 0.45112 0.6519 0.0
H3758 H 0.92779 0.45643 0.63146 0.0
H3759 H 0.92582 0.46513 0.66181 0.0
C3760 C 0.30306 0.22884 0.42887 0.0
C3761 C 0.28445 0.235 0.43947 0.0
C3762 C 0.30738 0.23289 0.40669 0.0
C3763 C 0.29254 0.24294 0.39459 0.0
C3764 C 0.27392 0.24943 0.40533 0.0
C3765 C 0.27023 0.24556 0.42759 0.0
C3766 C 0.3278 0.22635 0.39618 0.0
C3767 C 0.25756 0.2601 0.39312 0.0
C3768 C 0.30926 0.27306 0.3449 0.0
C3769 C 0.29876 0.25639 0.32574 0.0
C3770 C 0.3084 0.2685 0.36724 0.0
C3771 C 0.29631 0.24684 0.37073 0.0
C3772 C 0.28629 0.22965 0.3514 0.0
C3773 C 0.28785 0.23453 0.32912 0.0
C3774 C 0.31975 0.28721 0.38718 0.0
C3775 C 0.27297 0.20646 0.35434 0.0
H3776 H 0.31421 0.22076 0.43787 0.0
H3777 H 0.25574 0.25031 0.43546 0.0
H3778 H 0.3224 0.21357 0.38001 0.0
H3779 H 0.33889 0.24175 0.39176 0.0
H3780 H 0.33785 0.21894 0.40786 0.0
H3781 H 0.24379 0.26397 0.40373 0.0
H3782 H 0.26668 0.27634 0.38849 0.0
H3783 H 0.24984 0.24825 0.37693 0.0
H3784 H 0.3179 0.28996 0.34244 0.0
H3785 H 0.27956 0.22163 0.31446 0.0
H3786 H 0.33051 0.28033 0.39864 0.0
H3787 H 0.30672 0.29341 0.39745 0.0
H3788 H 0.33039 0.30216 0.38149 0.0
H3789 H 0.28341 0.19831 0.36484 0.0
H3790 H 0.26712 0.19457 0.33767 0.0
H3791 H 0.25795 0.20874 0.36364 0.0
C3792 C 0.39349 0.59349 0.53316 0.0
C3793 C 0.379 0.59116 0.5132 0.0
C3794 C 0.41473 0.58687 0.53225 0.0
C3795 C 0.42197 0.57752 0.51091 0.0
C3796 C 0.40715 0.57471 0.49086 0.0
C3797 C 0.38619 0.58153 0.49223 0.0
C3798 C 0.4296 0.59019 0.5542 0.0
C3799 C 0.41357 0.56466 0.4677 0.0
C3800 C 0.48585 0.58039 0.5045 0.0
C3801 C 0.48789 0.55764 0.50477 0.0
C3802 C 0.46472 0.58698 0.50629 0.0
C3803 C 0.44491 0.57079 0.50933 0.0
C3804 C 0.44701 0.54788 0.50998 0.0
C3805 C 0.46817 0.54158 0.50738 0.0
C3806 C 0.46357 0.61139 0.5048 0.0
C3807 C 0.42689 0.53 0.5138 0.0
H3808 H 0.38846 0.60093 0.54949 0.0
H3809 H 0.37539 0.57941 0.47658 0.0
H3810 H 0.43395 0.57364 0.55622 0.0
H3811 H 0.44572 0.60263 0.55353 0.0
H3812 H 0.42139 0.59669 0.5695 0.0
H3813 H 0.40033 0.5635 0.45367 0.0
H3814 H 0.42964 0.57543 0.46397 0.0
H3815 H 0.4165 0.54714 0.46774 0.0
H3816 H 0.50083 0.59308 0.50269 0.0
H3817 H 0.46943 0.52409 0.50818 0.0
H3818 H 0.45767 0.61979 0.52076 0.0
H3819 H 0.4511 0.61131 0.49045 0.0
H3820 H 0.48022 0.6219 0.50208 0.0
H3821 H 0.42016 0.536 0.53023 0.0
H3822 H 0.4312 0.51308 0.51429 0.0
H3823 H 0.41313 0.52755 0.49998 0.0
C3824 C 0.90419 0.90787 0.5226 0.0
C3825 C 0.88432 0.91342 0.53078 0.0
C3826 C 0.92321 0.92504 0.52096 0.0
C3827 C 0.92266 0.94853 0.52802 0.0
C3828 C 0.90261 0.95438 0.53609 0.0
C3829 C 0.88358 0.93674 0.53722 0.0
C3830 C 0.94398 0.91796 0.51171 0.0
C3831 C 0.90131 0.97924 0.54356 0.0
C3832 C 0.98117 0.98773 0.54418 0.0
C3833 C 0.9861 0.9946 0.52341 0.0
C3834 C 0.96015 0.97347 0.54623 0.0
C3835 C 0.94344 0.96662 0.5273 0.0
C3836 C 0.94792 0.97489 0.50676 0.0
C3837 C 0.9694 0.98836 0.50491 0.0
C3838 C 0.95631 0.96467 0.56824 0.0
C3839 C 0.93047 0.96869 0.48636 0.0
H3840 H 0.90484 0.88995 0.51714 0.0
H3841 H 0.86826 0.94119 0.54339 0.0
H3842 H 0.9482 0.92559 0.4964 0.0
H3843 H 0.9587 0.92461 0.52475 0.0
H3844 H 0.94162 0.89895 0.50682 0.0
H3845 H 0.88446 0.98098 0.54915 0.0
H3846 H 0.9144 0.98774 0.55792 0.0
H3847 H 0.9049 0.98863 0.52926 0.0
H3848 H 0.99416 0.99259 0.55845 0.0
H3849 H 0.97317 0.99398 0.48892 0.0
H3850 H 0.95506 0.94577 0.56502 0.0
H3851 H 0.9401 0.96775 0.57451 0.0
H3852 H 0.97022 0.97295 0.58191 0.0
H3853 H 0.92974 0.95076 0.47748 0.0
H3854 H 0.93463 0.9803 0.47389 0.0
H3855 H 0.91339 0.96952 0.4918 0.0
C3856 C 0.89149 0.13317 0.25303 0.0
C3857 C 0.89309 0.12394 0.27332 0.0
C3858 C 0.88146 0.15295 0.25174 0.0
C3859 C 0.87222 0.16473 0.271 0.0
C3860 C 0.8736 0.15524 0.29126 0.0
C3861 C 0.88372 0.13575 0.29213 0.0
C3862 C 0.88099 0.16148 0.22948 0.0
C3863 C 0.86433 0.16588 0.31256 0.0
C3864 C 0.86342 0.22952 0.27672 0.0
C3865 C 0.83981 0.22743 0.2716 0.0
C3866 C 0.8739 0.20993 0.27639 0.0
C3867 C 0.86116 0.18651 0.27035 0.0
C3868 C 0.83739 0.18431 0.26489 0.0
C3869 C 0.82731 0.20417 0.26567 0.0
C3870 C 0.899 0.21445 0.28274 0.0
C3871 C 0.82227 0.1606 0.25804 0.0
H3872 H 0.89844 0.12522 0.23808 0.0
H3873 H 0.88428 0.12969 0.30818 0.0
H3874 H 0.86335 0.16167 0.22368 0.0
H3875 H 0.89099 0.17948 0.23208 0.0
H3876 H 0.88796 0.15067 0.21577 0.0
H3877 H 0.86651 0.15705 0.32713 0.0
H3878 H 0.87295 0.18433 0.31778 0.0
H3879 H 0.84603 0.16516 0.30896 0.0
H3880 H 0.87397 0.24676 0.28126 0.0
H3881 H 0.80925 0.20131 0.26132 0.0
H3882 H 0.90727 0.20608 0.26842 0.0
H3883 H 0.90227 0.20671 0.29783 0.0
H3884 H 0.90696 0.23315 0.28684 0.0
H3885 H 0.82845 0.15081 0.243 0.0
H3886 H 0.8044 0.16118 0.25367 0.0
H3887 H 0.82289 0.15097 0.27221 0.0
C3888 C 0.73477 0.06431 0.02743 0.0
C3889 C 0.7454 0.08735 0.02794 0.0
C3890 C 0.71098 0.05662 0.02229 0.0
C3891 C 0.69751 0.07239 0.01793 0.0
C3892 C 0.70849 0.09535 0.01735 0.0
C3893 C 0.7321 0.10241 0.02224 0.0
C3894 C 0.70008 0.03189 0.02261 0.0
C3895 C 0.69522 0.11305 0.01317 0.0
C3896 C 0.63501 0.05299 0.99364 0.0
C3897 C 0.62357 0.05553 0.01359 0.0
C3898 C 0.65894 0.05791 0.99473 0.0
C3899 C 0.67196 0.06578 0.01626 0.0
C3900 C 0.66047 0.06864 0.03638 0.0
C3901 C 0.6366 0.06336 0.03482 0.0
C3902 C 0.67031 0.05476 0.97279 0.0
C3903 C 0.67342 0.07766 0.05968 0.0
H3904 H 0.7448 0.05262 0.03206 0.0
H3905 H 0.74013 0.12033 0.02279 0.0
H3906 H 0.68997 0.03114 0.03759 0.0
H3907 H 0.68829 0.02433 0.00698 0.0
H3908 H 0.71279 0.02118 0.02368 0.0
H3909 H 0.70634 0.12917 0.0102 0.0
H3910 H 0.68251 0.1061 0.99818 0.0
H3911 H 0.68591 0.11743 0.0283 0.0
H3912 H 0.62525 0.04691 0.97712 0.0
H3913 H 0.62812 0.06558 0.05038 0.0
H3914 H 0.68166 0.04262 0.97352 0.0
H3915 H 0.68099 0.07144 0.97072 0.0
H3916 H 0.65791 0.04806 0.95746 0.0
H3917 H 0.68502 0.06637 0.06297 0.0
H3918 H 0.66208 0.07868 0.07372 0.0
H3919 H 0.684 0.09513 0.06017 0.0
C3920 C 0.24231 0.5178 0.26878 0.0
C3921 C 0.21972 0.51327 0.25982 0.0
C3922 C 0.25191 0.49991 0.27384 0.0
C3923 C 0.23836 0.47728 0.27016 0.0
C3924 C 0.21542 0.47273 0.26154 0.0
C3925 C 0.20639 0.49082 0.2563 0.0
C3926 C 0.27658 0.50509 0.28271 0.0
C3927 C 0.20048 0.44877 0.25768 0.0
C3928 C 0.26728 0.42745 0.26127 0.0
C3929 C 0.26721 0.42162 0.28301 0.0
C3930 C 0.25792 0.44565 0.25686 0.0
C3931 C 0.24836 0.45816 0.27468 0.0
C3932 C 0.2481 0.45228 0.29664 0.0
C3933 C 0.25766 0.43401 0.30059 0.0
C3934 C 0.2583 0.45149 0.23319 0.0
C3935 C 0.23765 0.46518 0.31584 0.0
H3936 H 0.25257 0.53518 0.27138 0.0
H3937 H 0.18881 0.4874 0.24958 0.0
H3938 H 0.27834 0.49968 0.29946 0.0
H3939 H 0.28593 0.49508 0.27068 0.0
H3940 H 0.28467 0.52369 0.28484 0.0
H3941 H 0.18283 0.44835 0.25131 0.0
H3942 H 0.20745 0.43685 0.24505 0.0
H3943 H 0.20013 0.44209 0.2739 0.0
H3944 H 0.2749 0.41791 0.24779 0.0
H3945 H 0.25742 0.4292 0.31731 0.0
H3946 H 0.26764 0.46956 0.23425 0.0
H3947 H 0.2408 0.45015 0.22581 0.0
H3948 H 0.2664 0.43994 0.22128 0.0
H3949 H 0.24654 0.48361 0.31971 0.0
H3950 H 0.23842 0.45804 0.33176 0.0
H3951 H 0.21968 0.46451 0.31052 0.0
C3952 C 0.27055 0.43612 0.01359 0.0
C3953 C 0.26949 0.41291 0.01455 0.0
C3954 C 0.25083 0.44406 0.00935 0.0
C3955 C 0.22954 0.42832 0.00546 0.0
C3956 C 0.22836 0.40478 0.00612 0.0
C3957 C 0.24833 0.39741 0.01091 0.0
C3958 C 0.25278 0.46935 0.00908 0.0
C3959 C 0.20607 0.38736 0.00148 0.0
C3960 C 0.1784 0.45491 0.01518 0.0
C3961 C 0.17186 0.45742 0.99298 0.0
C3962 C 0.19661 0.44468 0.01937 0.0
C3963 C 0.20858 0.43671 0.00091 0.0
C3964 C 0.20143 0.43826 0.97832 0.0
C3965 C 0.18322 0.44866 0.97464 0.0
C3966 C 0.20364 0.44329 0.04369 0.0
C3967 C 0.21344 0.42961 0.9581 0.0
H3968 H 0.28683 0.44818 0.0164 0.0
H3969 H 0.24741 0.37937 0.01132 0.0
H3970 H 0.24614 0.47152 0.99208 0.0
H3971 H 0.24237 0.47669 0.02199 0.0
H3972 H 0.27053 0.47942 0.01281 0.0
H3973 H 0.20803 0.36971 0.00265 0.0
H3974 H 0.19411 0.39241 0.01387 0.0
H3975 H 0.19828 0.38699 0.98409 0.0
H3976 H 0.16982 0.46176 0.02945 0.0
H3977 H 0.17799 0.45016 0.95738 0.0
H3978 H 0.2207 0.45448 0.04914 0.0
H3979 H 0.20477 0.42541 0.0448 0.0
H3980 H 0.19166 0.44878 0.05589 0.0
H3981 H 0.23076 0.4405 0.95926 0.0
H3982 H 0.20441 0.42995 0.94149 0.0
H3983 H 0.21519 0.41172 0.95827 0.0
C3984 C 0.87433 0.97075 0.25089 0.0
C3985 C 0.8974 0.97811 0.25937 0.0
C3986 C 0.86159 0.94767 0.25068 0.0
C3987 C 0.87162 0.93105 0.2595 0.0
C3988 C 0.89463 0.93873 0.26858 0.0
C3989 C 0.90692 0.96149 0.26823 0.0
C3990 C 0.83734 0.94091 0.24053 0.0
C3991 C 0.90657 0.92271 0.27876 0.0
C3992 C 0.83534 0.87638 0.27814 0.0
C3993 C 0.83751 0.85772 0.26099 0.0
C3994 C 0.84596 0.89985 0.2778 0.0
C3995 C 0.85863 0.9058 0.25934 0.0
C3996 C 0.86027 0.88704 0.2416 0.0
C3997 C 0.85026 0.86362 0.24285 0.0
C3998 C 0.84405 0.91835 0.29775 0.0
C3999 C 0.87268 0.89172 0.22104 0.0
H4000 H 0.86634 0.98276 0.24377 0.0
H4001 H 0.92452 0.9663 0.27509 0.0
H4002 H 0.83486 0.92523 0.22695 0.0
H4003 H 0.82603 0.9366 0.25394 0.0
H4004 H 0.83213 0.95487 0.2331 0.0
H4005 H 0.92401 0.93137 0.28636 0.0
H4006 H 0.89683 0.91583 0.29226 0.0
H4007 H 0.90758 0.90779 0.26533 0.0
H4008 H 0.82574 0.87257 0.29238 0.0
H4009 H 0.85208 0.84984 0.2292 0.0
H4010 H 0.83613 0.93144 0.29164 0.0
H4011 H 0.8612 0.92733 0.3059 0.0
H4012 H 0.8339 0.9113 0.31092 0.0
H4013 H 0.86627 0.90496 0.21346 0.0
H4014 H 0.87078 0.87595 0.20765 0.0
H4015 H 0.89095 0.89869 0.22637 0.0
C4016 C 0.73593 0.11412 0.73824 0.0
C4017 C 0.71716 0.11214 0.75105 0.0
C4018 C 0.75265 0.13451 0.74242 0.0
C4019 C 0.75024 0.15289 0.75976 0.0
C4020 C 0.73283 0.14976 0.77455 0.0
C4021 C 0.71642 0.12928 0.76998 0.0
C4022 C 0.77104 0.13748 0.72638 0.0
C4023 C 0.7298 0.16895 0.79336 0.0
C4024 C 0.78914 0.21153 0.77558 0.0
C4025 C 0.77816 0.22377 0.76243 0.0
C4026 C 0.78134 0.18773 0.77355 0.0
C4027 C 0.76172 0.17653 0.75874 0.0
C4028 C 0.75122 0.18884 0.74475 0.0
C4029 C 0.75987 0.21233 0.74658 0.0
C4030 C 0.79331 0.17487 0.78804 0.0
C4031 C 0.72976 0.17824 0.7291 0.0
H4032 H 0.73668 0.10056 0.72389 0.0
H4033 H 0.70227 0.12728 0.78044 0.0
H4034 H 0.76623 0.14717 0.71339 0.0
H4035 H 0.78731 0.14756 0.7358 0.0
H4036 H 0.77355 0.12061 0.71728 0.0
H4037 H 0.71808 0.16244 0.80567 0.0
H4038 H 0.74622 0.17815 0.80297 0.0
H4039 H 0.72266 0.18167 0.7856 0.0
H4040 H 0.80353 0.22061 0.78765 0.0
H4041 H 0.75134 0.222 0.73659 0.0
H4042 H 0.79535 0.15837 0.77768 0.0
H4043 H 0.78303 0.17061 0.80221 0.0
H4044 H 0.81024 0.1852 0.79561 0.0
H4045 H 0.73131 0.1839 0.71237 0.0
H4046 H 0.71548 0.1847 0.73687 0.0
H4047 H 0.72529 0.15918 0.72581 0.0
loop_
_geom_bond_atom_site_label_1
_geom_bond_atom_site_label_2
_geom_bond_distance
_geom_bond_site_symmetry_2
_ccdc_geom_bond_type
Zn0 O3 2.031 . S
Zn0 O5 2.049 . S
Zn0 O10 2.067 . S
Zn1 O2 1.962 . S
Zn1 O4 1.986 . S
Zn1 O6 1.996 . S
Zn1 O9 1.943 . S
O2 Zn1 1.962 . S
O2 C7 1.254 . S
O3 Zn0 2.031 . S
O3 C7 1.269 . S
O4 Zn1 1.986 . S
O4 C11 1.262 . S
O5 Zn0 2.049 . S
O5 C13 1.260 . S
O6 Zn1 1.996 . S
O6 C13 1.257 . S
C7 O2 1.254 . S
C7 O3 1.269 . S
C8 O9 1.249 . S
C8 O10 1.270 . S
O9 Zn1 1.943 . S
O9 C8 1.249 . S
O10 Zn0 2.067 . S
O10 C8 1.270 . S
C11 O4 1.262 . S
C11 O12 1.232 . S
O12 C11 1.232 . S
C13 O5 1.260 . S
C13 O6 1.257 . S
Zn14 O17 2.031 1_455 S
Zn14 O19 2.049 . S
Zn14 O24 2.067 . S
Zn15 O16 1.958 1_455 S
Zn15 O18 1.987 . S
Zn15 O20 1.999 . S
Zn15 O23 1.944 1_455 S
O16 Zn15 1.958 1_655 S
O16 C21 1.254 . S
O17 Zn14 2.031 1_655 S
O17 C21 1.269 . S
O18 Zn15 1.987 . S
O18 C25 1.262 . S
O19 Zn14 2.049 . S
O19 C27 1.260 . S
O20 Zn15 1.999 . S
O20 C27 1.257 . S
C21 O16 1.254 . S
C21 O17 1.269 . S
C22 O23 1.249 . S
C22 O24 1.270 1_655 S
O23 Zn15 1.944 1_655 S
O23 C22 1.249 . S
O24 Zn14 2.067 . S
O24 C22 1.270 1_455 S
C25 O18 1.262 . S
C25 O26 1.232 1_455 S
O26 C25 1.232 1_655 S
C27 O19 1.260 . S
C27 O20 1.257 . S
Zn28 O31 2.031 . S
Zn28 O33 2.049 . S
Zn28 O38 2.067 . S
Zn29 O30 1.962 . S
Zn29 O32 1.986 . S
Zn29 O34 1.996 . S
Zn29 O37 1.943 . S
O30 Zn29 1.962 . S
O30 C35 1.254 . S
O31 Zn28 2.031 . S
O31 C35 1.269 . S
O32 Zn29 1.986 . S
O32 C39 1.262 . S
O33 Zn28 2.049 . S
O33 C41 1.260 . S
O34 Zn29 1.996 . S
O34 C41 1.257 . S
C35 O30 1.254 . S
C35 O31 1.269 . S
C36 O37 1.249 . S
C36 O38 1.270 . S
O37 Zn29 1.943 . S
O37 C36 1.249 . S
O38 Zn28 2.067 . S
O38 C36 1.270 . S
C39 O32 1.262 . S
C39 O40 1.232 . S
O40 C39 1.232 . S
C41 O33 1.260 . S
C41 O34 1.257 . S
Zn42 O45 2.031 . S
Zn42 O47 2.049 . S
Zn42 O52 2.067 . S
Zn43 O44 1.962 . S
Zn43 O46 1.986 . S
Zn43 O48 1.996 . S
Zn43 O51 1.943 . S
O44 Zn43 1.962 . S
O44 C49 1.254 . S
O45 Zn42 2.031 . S
O45 C49 1.269 . S
O46 Zn43 1.986 . S
O46 C53 1.262 . S
O47 Zn42 2.049 . S
O47 C55 1.260 . S
O48 Zn43 1.996 . S
O48 C55 1.257 . S
C49 O44 1.254 . S
C49 O45 1.269 . S
C50 O51 1.249 . S
C50 O52 1.270 . S
O51 Zn43 1.943 . S
O51 C50 1.249 . S
O52 Zn42 2.067 . S
O52 C50 1.270 . S
C53 O46 1.262 . S
C53 O54 1.232 . S
O54 C53 1.232 . S
C55 O47 1.260 . S
C55 O48 1.257 . S
Zn56 O59 2.031 . S
Zn56 O61 2.049 . S
Zn56 O66 2.067 . S
Zn57 O58 1.962 . S
Zn57 O60 1.986 . S
Zn57 O62 1.996 . S
Zn57 O65 1.943 . S
O58 Zn57 1.962 . S
O58 C63 1.254 . S
O59 Zn56 2.031 . S
O59 C63 1.269 . S
O60 Zn57 1.986 . S
O60 C67 1.262 . S
O61 Zn56 2.049 . S
O61 C69 1.260 . S
O62 Zn57 1.996 . S
O62 C69 1.257 . S
C63 O58 1.254 . S
C63 O59 1.269 . S
C64 O65 1.249 . S
C64 O66 1.270 . S
O65 Zn57 1.943 . S
O65 C64 1.249 . S
O66 Zn56 2.067 . S
O66 C64 1.270 . S
C67 O60 1.262 . S
C67 O68 1.232 . S
O68 C67 1.232 . S
C69 O61 1.260 . S
C69 O62 1.257 . S
Zn70 O73 2.031 . S
Zn70 O75 2.049 . S
Zn70 O80 2.067 . S
Zn71 O72 1.962 . S
Zn71 O74 1.986 . S
Zn71 O76 1.996 . S
Zn71 O79 1.943 . S
O72 Zn71 1.962 . S
O72 C77 1.254 . S
O73 Zn70 2.031 . S
O73 C77 1.269 . S
O74 Zn71 1.986 . S
O74 C81 1.262 . S
O75 Zn70 2.049 . S
O75 C83 1.260 . S
O76 Zn71 1.996 . S
O76 C83 1.257 . S
C77 O72 1.254 . S
C77 O73 1.269 . S
C78 O79 1.249 . S
C78 O80 1.270 . S
O79 Zn71 1.943 . S
O79 C78 1.249 . S
O80 Zn70 2.067 . S
O80 C78 1.270 . S
C81 O74 1.262 . S
C81 O82 1.232 . S
O82 C81 1.232 . S
C83 O75 1.260 . S
C83 O76 1.257 . S
Zn84 O87 2.031 . S
Zn84 O89 2.049 . S
Zn84 O94 2.067 . S
Zn85 O86 1.962 . S
Zn85 O88 1.986 . S
Zn85 O90 1.996 . S
Zn85 O93 1.943 . S
O86 Zn85 1.962 . S
O86 C91 1.254 . S
O87 Zn84 2.031 . S
O87 C91 1.269 . S
O88 Zn85 1.986 . S
O88 C95 1.262 . S
O89 Zn84 2.049 . S
O89 C97 1.260 . S
O90 Zn85 1.996 . S
O90 C97 1.257 . S
C91 O86 1.254 . S
C91 O87 1.269 . S
C92 O93 1.249 . S
C92 O94 1.270 . S
O93 Zn85 1.943 . S
O93 C92 1.249 . S
O94 Zn84 2.067 . S
O94 C92 1.270 . S
C95 O88 1.262 . S
C95 O96 1.232 . S
O96 C95 1.232 . S
C97 O89 1.260 . S
C97 O90 1.257 . S
Zn98 O101 2.031 . S
Zn98 O103 2.049 . S
Zn98 O108 2.067 . S
Zn99 O100 1.962 . S
Zn99 O102 1.986 . S
Zn99 O104 1.996 . S
Zn99 O107 1.943 1_455 S
O100 Zn99 1.962 . S
O100 C105 1.254 . S
O101 Zn98 2.031 . S
O101 C105 1.269 1_655 S
O102 Zn99 1.986 . S
O102 C109 1.262 . S
O103 Zn98 2.049 . S
O103 C111 1.260 1_655 S
O104 Zn99 1.996 . S
O104 C111 1.257 . S
C105 O100 1.254 . S
C105 O101 1.269 1_455 S
C106 O107 1.249 . S
C106 O108 1.270 . S
O107 Zn99 1.943 1_655 S
O107 C106 1.249 . S
O108 Zn98 2.067 . S
O108 C106 1.270 . S
C109 O102 1.262 . S
C109 O110 1.232 . S
O110 C109 1.232 . S
C111 O103 1.260 1_455 S
C111 O104 1.257 . S
Zn112 O115 2.031 . S
Zn112 O117 2.049 . S
Zn112 O122 2.067 . S
Zn113 O114 1.962 . S
Zn113 O116 1.986 . S
Zn113 O118 1.996 . S
Zn113 O121 1.943 1_545 S
O114 Zn113 1.962 . S
O114 C119 1.254 . S
O115 Zn112 2.031 . S
O115 C119 1.269 1_565 S
O116 Zn113 1.986 . S
O116 C123 1.262 . S
O117 Zn112 2.049 . S
O117 C125 1.260 . S
O118 Zn113 1.996 . S
O118 C125 1.257 1_545 S
C119 O114 1.254 . S
C119 O115 1.269 1_545 S
C120 O121 1.249 . S
C120 O122 1.270 . S
O121 Zn113 1.943 1_565 S
O121 C120 1.249 . S
O122 Zn112 2.067 . S
O122 C120 1.270 . S
C123 O116 1.262 . S
C123 O124 1.232 . S
O124 C123 1.232 . S
C125 O117 1.260 . S
C125 O118 1.257 1_565 S
Zn126 O129 2.031 . S
Zn126 O131 2.049 . S
Zn126 O136 2.067 . S
Zn127 O128 1.962 . S
Zn127 O130 1.986 . S
Zn127 O132 1.996 . S
Zn127 O135 1.943 . S
O128 Zn127 1.962 . S
O128 C133 1.254 . S
O129 Zn126 2.031 . S
O129 C133 1.269 . S
O130 Zn127 1.986 . S
O130 C137 1.262 . S
O131 Zn126 2.049 . S
O131 C139 1.260 . S
O132 Zn127 1.996 . S
O132 C139 1.257 . S
C133 O128 1.254 . S
C133 O129 1.269 . S
C134 O135 1.249 . S
C134 O136 1.270 . S
O135 Zn127 1.943 . S
O135 C134 1.249 . S
O136 Zn126 2.067 . S
O136 C134 1.270 . S
C137 O130 1.262 . S
C137 O138 1.232 . S
O138 C137 1.232 . S
C139 O131 1.260 . S
C139 O132 1.257 . S
Zn140 O143 2.031 . S
Zn140 O145 2.049 . S
Zn140 O150 2.067 . S
Zn141 O142 1.962 . S
Zn141 O144 1.986 . S
Zn141 O146 2.008 . S
Zn141 O149 1.943 1_565 S
O142 Zn141 1.962 . S
O142 C147 1.254 1_565 S
O143 Zn140 2.031 . S
O143 C147 1.269 . S
O144 Zn141 1.986 . S
O144 C151 1.262 . S
O145 Zn140 2.049 . S
O145 C153 1.260 . S
O146 Zn141 2.008 . S
O146 C153 1.237 1_565 S
C147 O142 1.254 1_545 S
C147 O143 1.269 . S
C148 O149 1.249 . S
C148 O150 1.270 . S
O149 Zn141 1.943 1_545 S
O149 C148 1.249 . S
O150 Zn140 2.067 . S
O150 C148 1.270 . S
C151 O144 1.262 . S
C151 O152 1.232 . S
O152 C151 1.232 . S
C153 O145 1.260 . S
C153 O146 1.237 1_545 S
Zn154 O157 2.031 1_554 S
Zn154 O159 2.049 . S
Zn154 O164 2.067 . S
Zn155 O156 1.962 1_554 S
Zn155 O158 1.986 . S
Zn155 O160 1.996 . S
Zn155 O163 1.943 . S
O156 Zn155 1.962 1_556 S
O156 C161 1.254 . S
O157 Zn154 2.031 1_556 S
O157 C161 1.269 . S
O158 Zn155 1.986 . S
O158 C165 1.262 . S
O159 Zn154 2.049 . S
O159 C167 1.260 . S
O160 Zn155 1.996 . S
O160 C167 1.257 . S
C161 O156 1.254 . S
C161 O157 1.269 . S
C162 O163 1.249 . S
C162 O164 1.270 . S
O163 Zn155 1.943 . S
O163 C162 1.249 . S
O164 Zn154 2.067 . S
O164 C162 1.270 . S
C165 O158 1.262 . S
C165 O166 1.232 1_554 S
O166 C165 1.232 1_556 S
C167 O159 1.260 . S
C167 O160 1.257 . S
Zn168 O171 2.031 1_554 S
Zn168 O173 2.049 . S
Zn168 O178 2.067 . S
Zn169 O170 1.962 1_554 S
Zn169 O172 1.986 . S
Zn169 O174 1.996 . S
Zn169 O177 1.943 . S
O170 Zn169 1.962 1_556 S
O170 C175 1.254 . S
O171 Zn168 2.031 1_556 S
O171 C175 1.269 . S
O172 Zn169 1.986 . S
O172 C179 1.262 . S
O173 Zn168 2.049 . S
O173 C181 1.260 . S
O174 Zn169 1.996 . S
O174 C181 1.257 . S
C175 O170 1.254 . S
C175 O171 1.269 . S
C176 O177 1.249 . S
C176 O178 1.270 . S
O177 Zn169 1.943 . S
O177 C176 1.249 . S
O178 Zn168 2.067 . S
O178 C176 1.270 . S
C179 O172 1.262 . S
C179 O180 1.232 . S
O180 C179 1.232 . S
C181 O173 1.260 . S
C181 O174 1.257 . S
Zn182 O185 2.031 1_554 S
Zn182 O187 2.049 . S
Zn182 O192 2.067 . S
Zn183 O184 1.941 1_554 S
Zn183 O186 1.986 . S
Zn183 O188 1.996 . S
Zn183 O191 1.943 . S
O184 Zn183 1.941 1_556 S
O184 C189 1.264 . S
O185 Zn182 2.031 1_556 S
O185 C189 1.269 . S
O186 Zn183 1.986 . S
O186 C193 1.262 . S
O187 Zn182 2.049 . S
O187 C195 1.260 . S
O188 Zn183 1.996 . S
O188 C195 1.257 . S
C189 O184 1.264 . S
C189 O185 1.269 . S
C190 O191 1.249 . S
C190 O192 1.270 . S
O191 Zn183 1.943 . S
O191 C190 1.249 . S
O192 Zn182 2.067 . S
O192 C190 1.270 . S
C193 O186 1.262 . S
C193 O194 1.232 . S
O194 C193 1.232 . S
C195 O187 1.260 . S
C195 O188 1.257 . S
Zn196 O199 2.031 . S
Zn196 O201 2.049 . S
Zn196 O206 2.067 . S
Zn197 O198 1.962 . S
Zn197 O200 1.986 . S
Zn197 O202 1.996 . S
Zn197 O205 1.943 . S
O198 Zn197 1.962 . S
O198 C203 1.254 . S
O199 Zn196 2.031 . S
O199 C203 1.269 . S
O200 Zn197 1.986 . S
O200 C207 1.262 . S
O201 Zn196 2.049 . S
O201 C209 1.260 . S
O202 Zn197 1.996 . S
O202 C209 1.257 . S
C203 O198 1.254 . S
C203 O199 1.269 . S
C204 O205 1.249 . S
C204 O206 1.270 . S
O205 Zn197 1.943 . S
O205 C204 1.249 . S
O206 Zn196 2.067 . S
O206 C204 1.270 . S
C207 O200 1.262 . S
C207 O208 1.232 . S
O208 C207 1.232 . S
C209 O201 1.260 . S
C209 O202 1.257 . S
Zn210 O213 2.031 . S
Zn210 O215 2.049 . S
Zn210 O220 2.067 . S
Zn211 O212 1.962 . S
Zn211 O214 1.986 . S
Zn211 O216 1.996 . S
Zn211 O219 1.943 . S
O212 Zn211 1.962 . S
O212 C217 1.254 . S
O213 Zn210 2.031 . S
O213 C217 1.269 . S
O214 Zn211 1.986 . S
O214 C221 1.262 . S
O215 Zn210 2.049 . S
O215 C223 1.260 . S
O216 Zn211 1.996 . S
O216 C223 1.257 . S
C217 O212 1.254 . S
C217 O213 1.269 . S
C218 O219 1.249 . S
C218 O220 1.270 . S
O219 Zn211 1.943 . S
O219 C218 1.249 . S
O220 Zn210 2.067 . S
O220 C218 1.270 . S
C221 O214 1.262 . S
C221 O222 1.232 . S
O222 C221 1.232 . S
C223 O215 1.260 . S
C223 O216 1.257 . S
Zn224 O227 2.031 . S
Zn224 O229 2.049 . S
Zn224 O234 2.067 . S
Zn225 O226 1.962 . S
Zn225 O228 1.986 . S
Zn225 O230 1.996 . S
Zn225 O233 1.943 . S
O226 Zn225 1.962 . S
O226 C231 1.254 . S
O227 Zn224 2.031 . S
O227 C231 1.269 . S
O228 Zn225 1.986 . S
O228 C235 1.262 . S
O229 Zn224 2.049 . S
O229 C237 1.260 . S
O230 Zn225 1.996 . S
O230 C237 1.257 . S
C231 O226 1.254 . S
C231 O227 1.269 . S
C232 O233 1.249 . S
C232 O234 1.270 . S
O233 Zn225 1.943 . S
O233 C232 1.249 . S
O234 Zn224 2.067 . S
O234 C232 1.270 . S
C235 O228 1.262 . S
C235 O236 1.232 . S
O236 C235 1.232 . S
C237 O229 1.260 . S
C237 O230 1.257 . S
Zn238 O241 2.031 . S
Zn238 O243 2.049 . S
Zn238 O248 2.067 . S
Zn239 O240 1.962 . S
Zn239 O242 1.986 . S
Zn239 O244 1.996 . S
Zn239 O247 1.943 . S
O240 Zn239 1.962 . S
O240 C245 1.254 . S
O241 Zn238 2.031 . S
O241 C245 1.269 . S
O242 Zn239 1.986 . S
O242 C249 1.262 . S
O243 Zn238 2.049 . S
O243 C251 1.260 . S
O244 Zn239 1.996 . S
O244 C251 1.257 . S
C245 O240 1.254 . S
C245 O241 1.269 . S
C246 O247 1.249 . S
C246 O248 1.270 . S
O247 Zn239 1.943 . S
O247 C246 1.249 . S
O248 Zn238 2.067 . S
O248 C246 1.270 . S
C249 O242 1.262 . S
C249 O250 1.232 . S
O250 C249 1.232 . S
C251 O243 1.260 . S
C251 O244 1.257 . S
Zn252 O255 2.031 . S
Zn252 O257 2.049 . S
Zn252 O262 2.067 . S
Zn253 O254 1.962 . S
Zn253 O256 1.986 . S
Zn253 O258 1.996 . S
Zn253 O261 1.943 . S
O254 Zn253 1.962 . S
O254 C259 1.254 . S
O255 Zn252 2.031 . S
O255 C259 1.269 . S
O256 Zn253 1.986 . S
O256 C263 1.262 . S
O257 Zn252 2.049 . S
O257 C265 1.260 . S
O258 Zn253 1.996 . S
O258 C265 1.257 . S
C259 O254 1.254 . S
C259 O255 1.269 . S
C260 O261 1.249 . S
C260 O262 1.270 . S
O261 Zn253 1.943 . S
O261 C260 1.249 . S
O262 Zn252 2.067 . S
O262 C260 1.270 . S
C263 O256 1.262 . S
C263 O264 1.232 . S
O264 C263 1.232 . S
C265 O257 1.260 . S
C265 O258 1.257 . S
Zn266 O269 2.031 . S
Zn266 O271 2.049 . S
Zn266 O276 2.067 . S
Zn267 O268 1.962 . S
Zn267 O270 1.986 . S
Zn267 O272 1.996 . S
Zn267 O275 1.943 . S
O268 Zn267 1.962 . S
O268 C273 1.254 . S
O269 Zn266 2.031 . S
O269 C273 1.269 . S
O270 Zn267 1.986 . S
O270 C277 1.262 . S
O271 Zn266 2.049 . S
O271 C279 1.260 . S
O272 Zn267 1.996 . S
O272 C279 1.257 . S
C273 O268 1.254 . S
C273 O269 1.269 . S
C274 O275 1.249 . S
C274 O276 1.270 . S
O275 Zn267 1.943 . S
O275 C274 1.249 . S
O276 Zn266 2.067 . S
O276 C274 1.270 . S
C277 O270 1.262 . S
C277 O278 1.232 . S
O278 C277 1.232 . S
C279 O271 1.260 . S
C279 O272 1.257 . S
Zn280 O283 2.031 1_554 S
Zn280 O285 2.049 . S
Zn280 O290 2.067 . S
Zn281 O282 1.962 1_554 S
Zn281 O284 1.986 . S
Zn281 O286 1.996 . S
Zn281 O289 1.943 . S
O282 Zn281 1.962 1_556 S
O282 C287 1.254 . S
O283 Zn280 2.031 1_556 S
O283 C287 1.269 . S
O284 Zn281 1.986 . S
O284 C291 1.262 . S
O285 Zn280 2.049 . S
O285 C293 1.260 . S
O286 Zn281 1.996 . S
O286 C293 1.257 . S
C287 O282 1.254 . S
C287 O283 1.269 . S
C288 O289 1.249 . S
C288 O290 1.270 . S
O289 Zn281 1.943 . S
O289 C288 1.249 . S
O290 Zn280 2.067 . S
O290 C288 1.270 . S
C291 O284 1.262 . S
C291 O292 1.232 1_554 S
O292 C291 1.232 1_556 S
C293 O285 1.260 . S
C293 O286 1.257 . S
Zn294 O297 2.031 . S
Zn294 O299 2.049 . S
Zn294 O304 2.067 . S
Zn295 O296 1.962 . S
Zn295 O298 1.986 . S
Zn295 O300 1.996 . S
Zn295 O303 1.943 . S
O296 Zn295 1.962 . S
O296 C301 1.254 . S
O297 Zn294 2.031 . S
O297 C301 1.269 . S
O298 Zn295 1.986 . S
O298 C305 1.262 . S
O299 Zn294 2.049 . S
O299 C307 1.260 . S
O300 Zn295 1.996 . S
O300 C307 1.257 . S
C301 O296 1.254 . S
C301 O297 1.269 . S
C302 O303 1.249 . S
C302 O304 1.270 . S
O303 Zn295 1.943 . S
O303 C302 1.249 . S
O304 Zn294 2.067 . S
O304 C302 1.270 . S
C305 O298 1.262 . S
C305 O306 1.232 . S
O306 C305 1.232 . S
C307 O299 1.260 . S
C307 O300 1.257 . S
Zn308 O311 2.031 . S
Zn308 O313 2.049 . S
Zn308 O318 2.067 . S
Zn309 O310 1.962 . S
Zn309 O312 1.986 . S
Zn309 O314 1.996 . S
Zn309 O317 1.943 . S
O310 Zn309 1.962 . S
O310 C315 1.254 . S
O311 Zn308 2.031 . S
O311 C315 1.269 . S
O312 Zn309 1.986 . S
O312 C319 1.262 . S
O313 Zn308 2.049 . S
O313 C321 1.260 . S
O314 Zn309 1.996 . S
O314 C321 1.257 . S
C315 O310 1.254 . S
C315 O311 1.269 . S
C316 O317 1.249 . S
C316 O318 1.270 . S
O317 Zn309 1.943 . S
O317 C316 1.249 . S
O318 Zn308 2.067 . S
O318 C316 1.270 . S
C319 O312 1.262 . S
C319 O320 1.232 . S
O320 C319 1.232 . S
C321 O313 1.260 . S
C321 O314 1.257 . S
Zn322 O325 2.031 . S
Zn322 O327 2.049 . S
Zn322 O332 2.067 . S
Zn323 O324 1.962 . S
Zn323 O326 1.986 . S
Zn323 O328 1.996 . S
Zn323 O331 1.943 . S
O324 Zn323 1.962 . S
O324 C329 1.254 . S
O325 Zn322 2.031 . S
O325 C329 1.269 . S
O326 Zn323 1.986 . S
O326 C333 1.262 . S
O327 Zn322 2.049 . S
O327 C335 1.260 . S
O328 Zn323 1.996 . S
O328 C335 1.257 . S
C329 O324 1.254 . S
C329 O325 1.269 . S
C330 O331 1.249 . S
C330 O332 1.270 . S
O331 Zn323 1.943 . S
O331 C330 1.249 . S
O332 Zn322 2.067 . S
O332 C330 1.270 . S
C333 O326 1.262 . S
C333 O334 1.232 . S
O334 C333 1.232 . S
C335 O327 1.260 . S
C335 O328 1.257 . S
Eu336 C345 2.828 . S
Eu336 O347 2.392 . S
Eu336 O349 2.418 . S
Eu336 O354 2.373 . S
Eu336 O357 2.488 . S
Eu336 O358 2.471 1_554 S
Eu336 O359 2.349 1_554 S
Eu337 O346 2.369 . S
Eu337 O350 2.451 1_545 S
Eu337 O351 2.442 1_545 S
Eu337 O352 2.371 . S
Eu337 O355 2.430 . S
Eu337 O356 2.422 1_554 S
Eu337 C366 2.791 1_545 S
C338 O356 1.244 . S
C338 O359 1.265 . S
C339 C340 1.379 1_554 S
C339 C343 1.373 . S
C339 C345 1.505 . S
C340 C339 1.379 1_556 S
C340 C342 1.369 . S
C340 H368 0.930 . S
C341 C343 1.383 . S
C341 C344 1.382 1_554 S
C341 H369 0.930 . S
C342 C340 1.369 . S
C342 C344 1.392 . S
C342 H370 0.930 . S
C343 C339 1.373 . S
C343 C341 1.383 . S
C343 H371 0.931 . S
C344 C341 1.382 1_556 S
C344 C342 1.392 . S
C345 Eu336 2.828 . S
C345 C339 1.505 . S
C345 O357 1.249 . S
C345 O358 1.244 1_554 S
O346 Eu337 2.369 . S
O346 C348 1.258 . S
O347 Eu336 2.392 . S
O347 C348 1.242 . S
C348 O346 1.258 . S
C348 O347 1.242 . S
O349 Eu336 2.418 . S
O349 C353 1.244 . S
O350 Eu337 2.451 1_565 S
O350 C366 1.249 . S
O351 Eu337 2.442 1_565 S
O351 C366 1.244 . S
O352 Eu337 2.371 . S
O352 C353 1.265 . S
C353 O349 1.244 . S
C353 O352 1.265 . S
O354 Eu336 2.373 . S
O354 C367 1.258 . S
O355 Eu337 2.430 . S
O355 C367 1.243 . S
O356 Eu337 2.422 1_556 S
O356 C338 1.244 . S
O357 Eu336 2.488 . S
O357 C345 1.249 . S
O358 Eu336 2.471 1_556 S
O358 C345 1.244 1_556 S
O359 Eu336 2.349 1_556 S
O359 C338 1.265 . S
C360 C361 1.379 . S
C360 C364 1.373 . S
C360 C366 1.505 . S
C361 C360 1.379 . S
C361 C363 1.369 . S
C361 H372 0.930 . S
C362 C364 1.383 . S
C362 C365 1.382 . S
C362 H373 0.930 . S
C363 C361 1.369 . S
C363 C365 1.392 . S
C363 H374 0.930 . S
C364 C360 1.373 . S
C364 C362 1.383 . S
C364 H375 0.931 1_554 S
C365 C362 1.382 . S
C365 C363 1.392 . S
C366 Eu337 2.791 1_565 S
C366 O350 1.249 . S
C366 O351 1.244 . S
C366 C360 1.505 . S
C367 O354 1.258 . S
C367 O355 1.243 . S
H368 C340 0.930 . S
H369 C341 0.930 . S
H370 C342 0.930 . S
H371 C343 0.931 . S
H372 C361 0.930 . S
H373 C362 0.930 . S
H374 C363 0.930 . S
H375 C364 0.931 1_556 S
Eu376 C385 2.828 . S
Eu376 O387 2.392 . S
Eu376 O389 2.418 . S
Eu376 O394 2.373 . S
Eu376 O397 2.488 . S
Eu376 O398 2.471 . S
Eu376 O399 2.349 . S
Eu377 O386 2.373 . S
Eu377 O390 2.488 . S
Eu377 O391 2.471 . S
Eu377 O392 2.349 . S
Eu377 O395 2.392 . S
Eu377 O396 2.418 . S
Eu377 C406 2.828 . S
C378 O396 1.244 . S
C378 O399 1.265 . S
C379 C380 1.379 . S
C379 C383 1.373 . S
C379 C385 1.505 . S
C380 C379 1.379 . S
C380 C382 1.369 . S
C380 H408 0.930 . S
C381 C383 1.383 . S
C381 C384 1.382 . S
C381 H409 0.930 . S
C382 C380 1.369 . S
C382 C384 1.392 . S
C382 H410 0.930 . S
C383 C379 1.373 . S
C383 C381 1.383 . S
C383 H411 0.931 . S
C384 C381 1.382 . S
C384 C382 1.392 . S
C385 Eu376 2.828 . S
C385 C379 1.505 . S
C385 O397 1.249 . S
C385 O398 1.244 . S
O386 Eu377 2.373 . S
O386 C388 1.258 . S
O387 Eu376 2.392 . S
O387 C388 1.242 . S
C388 O386 1.258 . S
C388 O387 1.242 . S
O389 Eu376 2.418 . S
O389 C393 1.244 . S
O390 Eu377 2.488 . S
O390 C406 1.249 . S
O391 Eu377 2.471 . S
O391 C406 1.244 . S
O392 Eu377 2.349 . S
O392 C393 1.265 . S
C393 O389 1.244 . S
C393 O392 1.265 . S
O394 Eu376 2.373 . S
O394 C407 1.258 . S
O395 Eu377 2.392 . S
O395 C407 1.242 . S
O396 Eu377 2.418 . S
O396 C378 1.244 . S
O397 Eu376 2.488 . S
O397 C385 1.249 . S
O398 Eu376 2.471 . S
O398 C385 1.244 . S
O399 Eu376 2.349 . S
O399 C378 1.265 . S
C400 C401 1.379 . S
C400 C404 1.373 . S
C400 C406 1.505 . S
C401 C400 1.379 . S
C401 C403 1.369 . S
C401 H412 0.930 . S
C402 C404 1.383 . S
C402 C405 1.382 . S
C402 H413 0.930 . S
C403 C401 1.369 . S
C403 C405 1.392 . S
C403 H414 0.930 . S
C404 C400 1.373 . S
C404 C402 1.383 . S
C404 H415 0.931 . S
C405 C402 1.382 . S
C405 C403 1.392 . S
C406 Eu377 2.828 . S
C406 O390 1.249 . S
C406 O391 1.244 . S
C406 C400 1.505 . S
C407 O394 1.258 . S
C407 O395 1.242 . S
H408 C380 0.930 . S
H409 C381 0.930 . S
H410 C382 0.930 . S
H411 C383 0.931 . S
H412 C401 0.930 . S
H413 C402 0.930 . S
H414 C403 0.930 . S
H415 C404 0.931 . S
Eu416 C425 2.828 . S
Eu416 O427 2.392 . S
Eu416 O429 2.418 . S
Eu416 O434 2.373 1_545 S
Eu416 O437 2.488 . S
Eu416 O438 2.471 . S
Eu416 O439 2.349 . S
Eu417 O426 2.373 . S
Eu417 O430 2.488 . S
Eu417 O431 2.471 . S
Eu417 O432 2.349 . S
Eu417 O435 2.392 1_545 S
Eu417 O436 2.418 . S
Eu417 C446 2.828 . S
C418 O436 1.244 . S
C418 O439 1.265 . S
C419 C420 1.379 . S
C419 C423 1.373 . S
C419 C425 1.505 1_565 S
C420 C419 1.379 . S
C420 C422 1.369 . S
C420 H448 0.930 . S
C421 C423 1.383 . S
C421 C424 1.382 . S
C421 H449 0.930 . S
C422 C420 1.369 . S
C422 C424 1.392 . S
C422 H450 0.930 . S
C423 C419 1.373 . S
C423 C421 1.383 . S
C423 H451 0.931 . S
C424 C421 1.382 . S
C424 C422 1.392 . S
C425 Eu416 2.828 . S
C425 C419 1.505 1_545 S
C425 O437 1.249 . S
C425 O438 1.244 . S
O426 Eu417 2.373 . S
O426 C428 1.258 . S
O427 Eu416 2.392 . S
O427 C428 1.242 . S
C428 O426 1.258 . S
C428 O427 1.242 . S
O429 Eu416 2.418 . S
O429 C433 1.244 . S
O430 Eu417 2.488 . S
O430 C446 1.249 . S
O431 Eu417 2.471 . S
O431 C446 1.244 . S
O432 Eu417 2.349 . S
O432 C433 1.265 . S
C433 O429 1.244 . S
C433 O432 1.265 . S
O434 Eu416 2.373 1_565 S
O434 C447 1.258 . S
O435 Eu417 2.392 1_565 S
O435 C447 1.242 . S
O436 Eu417 2.418 . S
O436 C418 1.244 . S
O437 Eu416 2.488 . S
O437 C425 1.249 . S
O438 Eu416 2.471 . S
O438 C425 1.244 . S
O439 Eu416 2.349 . S
O439 C418 1.265 . S
C440 C441 1.379 . S
C440 C444 1.373 . S
C440 C446 1.505 . S
C441 C440 1.379 . S
C441 C443 1.369 . S
C441 H452 0.930 . S
C442 C444 1.383 . S
C442 C445 1.382 . S
C442 H453 0.930 . S
C443 C441 1.369 . S
C443 C445 1.392 . S
C443 H454 0.930 . S
C444 C440 1.373 . S
C444 C442 1.383 . S
C444 H455 0.931 . S
C445 C442 1.382 . S
C445 C443 1.392 . S
C446 Eu417 2.828 . S
C446 O430 1.249 . S
C446 O431 1.244 . S
C446 C440 1.505 . S
C447 O434 1.258 . S
C447 O435 1.242 . S
H448 C420 0.930 . S
H449 C421 0.930 . S
H450 C422 0.930 . S
H451 C423 0.931 . S
H452 C441 0.930 . S
H453 C442 0.930 . S
H454 C443 0.930 . S
H455 C444 0.931 . S
Eu456 C465 2.828 . S
Eu456 O467 2.392 . S
Eu456 O469 2.418 . S
Eu456 O474 2.373 . S
Eu456 O477 2.488 . S
Eu456 O478 2.471 . S
Eu456 O479 2.349 . S
Eu457 O466 2.373 . S
Eu457 O470 2.488 . S
Eu457 O471 2.471 . S
Eu457 O472 2.349 . S
Eu457 O475 2.392 . S
Eu457 O476 2.418 . S
Eu457 C486 2.828 . S
C458 O476 1.244 . S
C458 O479 1.265 . S
C459 C460 1.379 . S
C459 C463 1.373 . S
C459 C465 1.505 . S
C460 C459 1.379 . S
C460 C462 1.369 . S
C460 H488 0.930 . S
C461 C463 1.383 . S
C461 C464 1.382 . S
C461 H489 0.930 . S
C462 C460 1.369 . S
C462 C464 1.392 . S
C462 H490 0.930 . S
C463 C459 1.373 . S
C463 C461 1.383 . S
C463 H491 0.931 . S
C464 C461 1.382 . S
C464 C462 1.392 . S
C465 Eu456 2.828 . S
C465 C459 1.505 . S
C465 O477 1.249 . S
C465 O478 1.244 . S
O466 Eu457 2.373 . S
O466 C468 1.258 . S
O467 Eu456 2.392 . S
O467 C468 1.242 . S
C468 O466 1.258 . S
C468 O467 1.242 . S
O469 Eu456 2.418 . S
O469 C473 1.244 . S
O470 Eu457 2.488 . S
O470 C486 1.249 . S
O471 Eu457 2.471 . S
O471 C486 1.244 . S
O472 Eu457 2.349 . S
O472 C473 1.265 . S
C473 O469 1.244 . S
C473 O472 1.265 . S
O474 Eu456 2.373 . S
O474 C487 1.258 . S
O475 Eu457 2.392 . S
O475 C487 1.242 . S
O476 Eu457 2.418 . S
O476 C458 1.244 . S
O477 Eu456 2.488 . S
O477 C465 1.249 . S
O478 Eu456 2.471 . S
O478 C465 1.244 . S
O479 Eu456 2.349 . S
O479 C458 1.265 . S
C480 C481 1.379 . S
C480 C484 1.373 . S
C480 C486 1.505 . S
C481 C480 1.379 . S
C481 C483 1.369 . S
C481 H492 0.930 . S
C482 C484 1.383 . S
C482 C485 1.382 . S
C482 H493 0.930 . S
C483 C481 1.369 . S
C483 C485 1.392 . S
C483 H494 0.930 . S
C484 C480 1.373 . S
C484 C482 1.383 . S
C484 H495 0.931 . S
C485 C482 1.382 . S
C485 C483 1.392 . S
C486 Eu457 2.828 . S
C486 O470 1.249 . S
C486 O471 1.244 . S
C486 C480 1.505 . S
C487 O474 1.258 . S
C487 O475 1.242 . S
H488 C460 0.930 . S
H489 C461 0.930 . S
H490 C462 0.930 . S
H491 C463 0.931 . S
H492 C481 0.930 . S
H493 C482 0.930 . S
H494 C483 0.930 . S
H495 C484 0.931 . S
Eu496 C505 2.828 . S
Eu496 O507 2.392 . S
Eu496 O509 2.418 . S
Eu496 O514 2.373 . S
Eu496 O517 2.488 . S
Eu496 O518 2.471 . S
Eu496 O519 2.349 . S
Eu497 O506 2.376 . S
Eu497 O510 2.465 1_545 S
Eu497 O511 2.449 1_545 S
Eu497 O512 2.361 . S
Eu497 O515 2.411 . S
Eu497 O516 2.428 . S
Eu497 C526 2.803 1_545 S
C498 O516 1.244 . S
C498 O519 1.265 . S
C499 C500 1.379 . S
C499 C503 1.373 . S
C499 C505 1.505 . S
C500 C499 1.379 . S
C500 C502 1.369 . S
C500 H528 0.930 . S
C501 C503 1.383 . S
C501 C504 1.382 . S
C501 H529 0.930 . S
C502 C500 1.369 . S
C502 C504 1.392 . S
C502 H530 0.930 . S
C503 C499 1.373 . S
C503 C501 1.383 . S
C503 H531 0.931 . S
C504 C501 1.382 . S
C504 C502 1.392 . S
C505 Eu496 2.828 . S
C505 C499 1.505 . S
C505 O517 1.249 . S
C505 O518 1.244 . S
O506 Eu497 2.376 . S
O506 C508 1.258 . S
O507 Eu496 2.392 . S
O507 C508 1.242 . S
C508 O506 1.258 . S
C508 O507 1.242 . S
O509 Eu496 2.418 . S
O509 C513 1.244 . S
O510 Eu497 2.465 1_565 S
O510 C526 1.249 . S
O511 Eu497 2.449 1_565 S
O511 C526 1.244 . S
O512 Eu497 2.361 . S
O512 C513 1.265 . S
C513 O509 1.244 . S
C513 O512 1.265 . S
O514 Eu496 2.373 . S
O514 C527 1.258 . S
O515 Eu497 2.411 . S
O515 C527 1.242 . S
O516 Eu497 2.428 . S
O516 C498 1.244 . S
O517 Eu496 2.488 . S
O517 C505 1.249 . S
O518 Eu496 2.471 . S
O518 C505 1.244 . S
O519 Eu496 2.349 . S
O519 C498 1.265 . S
C520 C521 1.379 . S
C520 C524 1.373 . S
C520 C526 1.505 . S
C521 C520 1.379 . S
C521 C523 1.369 . S
C521 H532 0.930 . S
C522 C524 1.383 . S
C522 C525 1.382 . S
C522 H533 0.930 . S
C523 C521 1.369 . S
C523 C525 1.392 . S
C523 H534 0.930 . S
C524 C520 1.373 . S
C524 C522 1.383 . S
C524 H535 0.931 . S
C525 C522 1.382 . S
C525 C523 1.392 . S
C526 Eu497 2.803 1_565 S
C526 O510 1.249 . S
C526 O511 1.244 . S
C526 C520 1.505 . S
C527 O514 1.258 . S
C527 O515 1.242 . S
H528 C500 0.930 . S
H529 C501 0.930 . S
H530 C502 0.930 . S
H531 C503 0.931 . S
H532 C521 0.930 . S
H533 C522 0.930 . S
H534 C523 0.930 . S
H535 C524 0.931 . S
Eu536 C545 2.828 . S
Eu536 O547 2.392 . S
Eu536 O549 2.418 . S
Eu536 O554 2.373 . S
Eu536 O557 2.488 . S
Eu536 O558 2.471 . S
Eu536 O559 2.349 . S
Eu537 O546 2.373 . S
Eu537 O550 2.488 . S
Eu537 O551 2.471 . S
Eu537 O552 2.349 . S
Eu537 O555 2.392 . S
Eu537 O556 2.418 . S
Eu537 C566 2.828 . S
C538 O556 1.244 . S
C538 O559 1.265 . S
C539 C540 1.379 . S
C539 C543 1.373 . S
C539 C545 1.505 . S
C540 C539 1.379 . S
C540 C542 1.369 . S
C540 H568 0.930 . S
C541 C543 1.383 . S
C541 C544 1.382 . S
C541 H569 0.930 . S
C542 C540 1.369 . S
C542 C544 1.392 . S
C542 H570 0.930 . S
C543 C539 1.373 . S
C543 C541 1.383 . S
C543 H571 0.931 . S
C544 C541 1.382 . S
C544 C542 1.392 . S
C545 Eu536 2.828 . S
C545 C539 1.505 . S
C545 O557 1.249 . S
C545 O558 1.244 . S
O546 Eu537 2.373 . S
O546 C548 1.258 . S
O547 Eu536 2.392 . S
O547 C548 1.242 . S
C548 O546 1.258 . S
C548 O547 1.242 . S
O549 Eu536 2.418 . S
O549 C553 1.244 . S
O550 Eu537 2.488 . S
O550 C566 1.249 . S
O551 Eu537 2.471 . S
O551 C566 1.244 . S
O552 Eu537 2.349 . S
O552 C553 1.265 . S
C553 O549 1.244 . S
C553 O552 1.265 . S
O554 Eu536 2.373 . S
O554 C567 1.258 . S
O555 Eu537 2.392 . S
O555 C567 1.242 . S
O556 Eu537 2.418 . S
O556 C538 1.244 . S
O557 Eu536 2.488 . S
O557 C545 1.249 . S
O558 Eu536 2.471 . S
O558 C545 1.244 . S
O559 Eu536 2.349 . S
O559 C538 1.265 . S
C560 C561 1.379 . S
C560 C564 1.373 . S
C560 C566 1.505 . S
C561 C560 1.379 . S
C561 C563 1.369 . S
C561 H572 0.930 . S
C562 C564 1.383 . S
C562 C565 1.382 . S
C562 H573 0.930 . S
C563 C561 1.369 . S
C563 C565 1.392 . S
C563 H574 0.930 . S
C564 C560 1.373 . S
C564 C562 1.383 . S
C564 H575 0.931 . S
C565 C562 1.382 . S
C565 C563 1.392 . S
C566 Eu537 2.828 . S
C566 O550 1.249 . S
C566 O551 1.244 . S
C566 C560 1.505 . S
C567 O554 1.258 . S
C567 O555 1.242 . S
H568 C540 0.930 . S
H569 C541 0.930 . S
H570 C542 0.930 . S
H571 C543 0.931 . S
H572 C561 0.930 . S
H573 C562 0.930 . S
H574 C563 0.930 . S
H575 C564 0.931 . S
Eu576 C585 2.828 . S
Eu576 O587 2.392 . S
Eu576 O589 2.418 1_545 S
Eu576 O594 2.373 . S
Eu576 O597 2.488 . S
Eu576 O598 2.471 . S
Eu576 O599 2.349 . S
Eu577 O586 2.373 . S
Eu577 O590 2.488 . S
Eu577 O591 2.471 . S
Eu577 O592 2.349 . S
Eu577 O595 2.392 . S
Eu577 O596 2.418 1_556 S
Eu577 C606 2.828 . S
C578 O596 1.244 . S
C578 O599 1.265 . S
C579 C580 1.379 . S
C579 C583 1.373 1_545 S
C579 C585 1.505 . S
C580 C579 1.379 . S
C580 C582 1.369 . S
C580 H608 0.930 . S
C581 C583 1.383 . S
C581 C584 1.382 1_565 S
C581 H609 0.930 . S
C582 C580 1.369 . S
C582 C584 1.392 . S
C582 H610 0.930 . S
C583 C579 1.373 1_565 S
C583 C581 1.383 . S
C583 H611 0.931 . S
C584 C581 1.382 1_545 S
C584 C582 1.392 . S
C585 Eu576 2.828 . S
C585 C579 1.505 . S
C585 O597 1.249 . S
C585 O598 1.244 . S
O586 Eu577 2.373 . S
O586 C588 1.258 1_556 S
O587 Eu576 2.392 . S
O587 C588 1.242 . S
C588 O586 1.258 1_554 S
C588 O587 1.242 . S
O589 Eu576 2.418 1_565 S
O589 C593 1.198 1_554 S
O590 Eu577 2.488 . S
O590 C606 1.249 . S
O591 Eu577 2.471 . S
O591 C606 1.244 . S
O592 Eu577 2.349 . S
O592 C593 1.284 1_545 S
C593 O589 1.198 1_556 S
C593 O592 1.284 1_565 S
O594 Eu576 2.373 . S
O594 C607 1.258 . S
O595 Eu577 2.392 . S
O595 C607 1.242 1_556 S
O596 Eu577 2.418 1_554 S
O596 C578 1.244 . S
O597 Eu576 2.488 . S
O597 C585 1.249 . S
O598 Eu576 2.471 . S
O598 C585 1.244 . S
O599 Eu576 2.349 . S
O599 C578 1.265 . S
C600 C601 1.379 . S
C600 C604 1.373 . S
C600 C606 1.505 . S
C601 C600 1.379 . S
C601 C603 1.369 . S
C601 H612 0.930 . S
C602 C604 1.383 . S
C602 C605 1.382 . S
C602 H613 0.930 . S
C603 C601 1.369 . S
C603 C605 1.392 . S
C603 H614 0.930 . S
C604 C600 1.373 . S
C604 C602 1.383 . S
C604 H615 0.931 . S
C605 C602 1.382 . S
C605 C603 1.392 . S
C606 Eu577 2.828 . S
C606 O590 1.249 . S
C606 O591 1.244 . S
C606 C600 1.505 . S
C607 O594 1.258 . S
C607 O595 1.242 1_554 S
H608 C580 0.930 . S
H609 C581 0.930 . S
H610 C582 0.930 . S
H611 C583 0.931 . S
H612 C601 0.930 . S
H613 C602 0.930 . S
H614 C603 0.930 . S
H615 C604 0.931 . S
Eu616 C625 2.828 . S
Eu616 O627 2.392 . S
Eu616 O629 2.418 . S
Eu616 O634 2.373 . S
Eu616 O637 2.488 . S
Eu616 O638 2.471 . S
Eu616 O639 2.349 . S
Eu617 O626 2.373 . S
Eu617 O630 2.488 . S
Eu617 O631 2.471 . S
Eu617 O632 2.349 . S
Eu617 O635 2.392 . S
Eu617 O636 2.418 . S
Eu617 C646 2.828 . S
C618 O636 1.244 . S
C618 O639 1.265 . S
C619 C620 1.379 . S
C619 C623 1.373 . S
C619 C625 1.505 . S
C620 C619 1.379 . S
C620 C622 1.369 . S
C620 H648 0.930 . S
C621 C623 1.383 . S
C621 C624 1.382 . S
C621 H649 0.930 . S
C622 C620 1.369 . S
C622 C624 1.392 . S
C622 H650 0.930 . S
C623 C619 1.373 . S
C623 C621 1.383 . S
C623 H651 0.931 . S
C624 C621 1.382 . S
C624 C622 1.392 . S
C625 Eu616 2.828 . S
C625 C619 1.505 . S
C625 O637 1.249 . S
C625 O638 1.244 . S
O626 Eu617 2.373 . S
O626 C628 1.258 . S
O627 Eu616 2.392 . S
O627 C628 1.242 . S
C628 O626 1.258 . S
C628 O627 1.242 . S
O629 Eu616 2.418 . S
O629 C633 1.244 . S
O630 Eu617 2.488 . S
O630 C646 1.249 . S
O631 Eu617 2.471 . S
O631 C646 1.244 . S
O632 Eu617 2.349 . S
O632 C633 1.265 . S
C633 O629 1.244 . S
C633 O632 1.265 . S
O634 Eu616 2.373 . S
O634 C647 1.258 . S
O635 Eu617 2.392 . S
O635 C647 1.242 . S
O636 Eu617 2.418 . S
O636 C618 1.244 . S
O637 Eu616 2.488 . S
O637 C625 1.249 . S
O638 Eu616 2.471 . S
O638 C625 1.244 . S
O639 Eu616 2.349 . S
O639 C618 1.265 . S
C640 C641 1.379 . S
C640 C644 1.373 . S
C640 C646 1.505 . S
C641 C640 1.379 . S
C641 C643 1.369 . S
C641 H652 0.930 . S
C642 C644 1.383 . S
C642 C645 1.382 . S
C642 H653 0.930 . S
C643 C641 1.369 . S
C643 C645 1.392 . S
C643 H654 0.930 . S
C644 C640 1.373 . S
C644 C642 1.383 . S
C644 H655 0.931 . S
C645 C642 1.382 . S
C645 C643 1.392 . S
C646 Eu617 2.828 . S
C646 O630 1.249 . S
C646 O631 1.244 . S
C646 C640 1.505 . S
C647 O634 1.258 . S
C647 O635 1.242 . S
H648 C620 0.930 . S
H649 C621 0.930 . S
H650 C622 0.930 . S
H651 C623 0.931 . S
H652 C641 0.930 . S
H653 C642 0.930 . S
H654 C643 0.930 . S
H655 C644 0.931 . S
Eu656 C665 2.828 . S
Eu656 O667 2.392 . S
Eu656 O669 2.418 . S
Eu656 O674 2.373 1_554 S
Eu656 O677 2.488 . S
Eu656 O678 2.471 . S
Eu656 O679 2.349 . S
Eu657 O666 2.373 1_556 S
Eu657 O670 2.488 1_556 S
Eu657 O671 2.471 1_556 S
Eu657 O672 2.349 1_556 S
Eu657 O675 2.392 . S
Eu657 O676 2.418 1_556 S
Eu657 C686 2.828 1_556 S
C658 O676 1.244 . S
C658 O679 1.265 . S
C659 C660 1.379 . S
C659 C663 1.373 . S
C659 C665 1.505 1_556 S
C660 C659 1.379 . S
C660 C662 1.369 . S
C660 H688 0.930 . S
C661 C663 1.383 . S
C661 C664 1.382 . S
C661 H689 0.930 . S
C662 C660 1.369 . S
C662 C664 1.392 . S
C662 H690 0.930 . S
C663 C659 1.373 . S
C663 C661 1.383 . S
C663 H691 0.931 1_556 S
C664 C661 1.382 . S
C664 C662 1.392 . S
C665 Eu656 2.828 . S
C665 C659 1.505 1_554 S
C665 O677 1.249 . S
C665 O678 1.244 . S
O666 Eu657 2.373 1_554 S
O666 C668 1.258 . S
O667 Eu656 2.392 . S
O667 C668 1.242 . S
C668 O666 1.258 . S
C668 O667 1.242 . S
O669 Eu656 2.418 . S
O669 C673 1.244 . S
O670 Eu657 2.488 1_554 S
O670 C686 1.249 . S
O671 Eu657 2.471 1_554 S
O671 C686 1.244 . S
O672 Eu657 2.349 1_554 S
O672 C673 1.265 . S
C673 O669 1.244 . S
C673 O672 1.265 . S
O674 Eu656 2.373 1_556 S
O674 C687 1.258 . S
O675 Eu657 2.392 . S
O675 C687 1.242 . S
O676 Eu657 2.418 1_554 S
O676 C658 1.244 . S
O677 Eu656 2.488 . S
O677 C665 1.249 . S
O678 Eu656 2.471 . S
O678 C665 1.244 . S
O679 Eu656 2.349 . S
O679 C658 1.265 . S
C680 C681 1.379 . S
C680 C684 1.373 . S
C680 C686 1.505 . S
C681 C680 1.379 . S
C681 C683 1.369 . S
C681 H692 0.930 . S
C682 C684 1.383 . S
C682 C685 1.382 . S
C682 H693 0.930 . S
C683 C681 1.369 . S
C683 C685 1.392 . S
C683 H694 0.930 . S
C684 C680 1.373 . S
C684 C682 1.383 . S
C684 H695 0.931 . S
C685 C682 1.382 . S
C685 C683 1.392 . S
C686 Eu657 2.828 1_554 S
C686 O670 1.249 . S
C686 O671 1.244 . S
C686 C680 1.505 . S
C687 O674 1.258 . S
C687 O675 1.242 . S
H688 C660 0.930 . S
H689 C661 0.930 . S
H690 C662 0.930 . S
H691 C663 0.931 1_554 S
H692 C681 0.930 . S
H693 C682 0.930 . S
H694 C683 0.930 . S
H695 C684 0.931 . S
Eu696 C705 2.828 . S
Eu696 O707 2.392 . S
Eu696 O709 2.418 . S
Eu696 O714 2.373 . S
Eu696 O717 2.488 . S
Eu696 O718 2.471 . S
Eu696 O719 2.349 . S
Eu697 O706 2.373 . S
Eu697 O710 2.488 . S
Eu697 O711 2.471 . S
Eu697 O712 2.349 . S
Eu697 O715 2.392 . S
Eu697 O716 2.418 . S
Eu697 C726 2.828 . S
C698 O716 1.244 . S
C698 O719 1.265 . S
C699 C700 1.379 . S
C699 C703 1.373 . S
C699 C705 1.505 . S
C700 C699 1.379 . S
C700 C702 1.369 . S
C700 H728 0.930 . S
C701 C703 1.383 . S
C701 C704 1.382 . S
C701 H729 0.930 . S
C702 C700 1.369 . S
C702 C704 1.392 . S
C702 H730 0.930 . S
C703 C699 1.373 . S
C703 C701 1.383 . S
C703 H731 0.931 . S
C704 C701 1.382 . S
C704 C702 1.392 . S
C705 Eu696 2.828 . S
C705 C699 1.505 . S
C705 O717 1.249 . S
C705 O718 1.244 . S
O706 Eu697 2.373 . S
O706 C708 1.258 . S
O707 Eu696 2.392 . S
O707 C708 1.242 . S
C708 O706 1.258 . S
C708 O707 1.242 . S
O709 Eu696 2.418 . S
O709 C713 1.244 . S
O710 Eu697 2.488 . S
O710 C726 1.249 . S
O711 Eu697 2.471 . S
O711 C726 1.244 . S
O712 Eu697 2.349 . S
O712 C713 1.265 . S
C713 O709 1.244 . S
C713 O712 1.265 . S
O714 Eu696 2.373 . S
O714 C727 1.258 . S
O715 Eu697 2.392 . S
O715 C727 1.242 . S
O716 Eu697 2.418 . S
O716 C698 1.244 . S
O717 Eu696 2.488 . S
O717 C705 1.249 . S
O718 Eu696 2.471 . S
O718 C705 1.244 . S
O719 Eu696 2.349 . S
O719 C698 1.265 . S
C720 C721 1.379 . S
C720 C724 1.373 . S
C720 C726 1.505 . S
C721 C720 1.379 . S
C721 C723 1.369 . S
C721 H732 0.930 . S
C722 C724 1.383 . S
C722 C725 1.382 . S
C722 H733 0.930 . S
C723 C721 1.369 . S
C723 C725 1.392 . S
C723 H734 0.930 . S
C724 C720 1.373 . S
C724 C722 1.383 . S
C724 H735 0.931 . S
C725 C722 1.382 . S
C725 C723 1.392 . S
C726 Eu697 2.828 . S
C726 O710 1.249 . S
C726 O711 1.244 . S
C726 C720 1.505 . S
C727 O714 1.258 . S
C727 O715 1.242 . S
H728 C700 0.930 . S
H729 C701 0.930 . S
H730 C702 0.930 . S
H731 C703 0.931 . S
H732 C721 0.930 . S
H733 C722 0.930 . S
H734 C723 0.930 . S
H735 C724 0.931 . S
Eu736 C745 2.828 . S
Eu736 O747 2.392 . S
Eu736 O749 2.418 . S
Eu736 O754 2.373 . S
Eu736 O757 2.488 . S
Eu736 O758 2.471 . S
Eu736 O759 2.349 . S
Eu737 O746 2.373 . S
Eu737 O750 2.488 . S
Eu737 O751 2.471 . S
Eu737 O752 2.349 . S
Eu737 O755 2.392 . S
Eu737 O756 2.418 . S
Eu737 C766 2.828 . S
C738 O756 1.244 . S
C738 O759 1.265 . S
C739 C740 1.379 1_455 S
C739 C743 1.373 . S
C739 C745 1.505 . S
C740 C739 1.379 1_655 S
C740 C742 1.369 . S
C740 H768 0.930 . S
C741 C743 1.383 1_655 S
C741 C744 1.382 . S
C741 H769 0.930 . S
C742 C740 1.369 . S
C742 C744 1.392 . S
C742 H770 0.930 . S
C743 C739 1.373 . S
C743 C741 1.383 1_455 S
C743 H771 0.931 . S
C744 C741 1.382 . S
C744 C742 1.392 . S
C745 Eu736 2.828 . S
C745 C739 1.505 . S
C745 O757 1.249 . S
C745 O758 1.244 . S
O746 Eu737 2.373 . S
O746 C748 1.258 . S
O747 Eu736 2.392 . S
O747 C748 1.242 . S
C748 O746 1.258 . S
C748 O747 1.242 . S
O749 Eu736 2.418 . S
O749 C753 1.244 . S
O750 Eu737 2.488 . S
O750 C766 1.249 . S
O751 Eu737 2.471 . S
O751 C766 1.244 . S
O752 Eu737 2.349 . S
O752 C753 1.265 . S
C753 O749 1.244 . S
C753 O752 1.265 . S
O754 Eu736 2.373 . S
O754 C767 1.258 1_455 S
O755 Eu737 2.392 . S
O755 C767 1.242 1_455 S
O756 Eu737 2.418 . S
O756 C738 1.244 . S
O757 Eu736 2.488 . S
O757 C745 1.249 . S
O758 Eu736 2.471 . S
O758 C745 1.244 . S
O759 Eu736 2.349 . S
O759 C738 1.265 . S
C760 C761 1.379 . S
C760 C764 1.373 . S
C760 C766 1.505 . S
C761 C760 1.379 . S
C761 C763 1.369 . S
C761 H772 0.930 . S
C762 C764 1.383 . S
C762 C765 1.382 . S
C762 H773 0.930 . S
C763 C761 1.369 . S
C763 C765 1.392 . S
C763 H774 0.930 . S
C764 C760 1.373 . S
C764 C762 1.383 . S
C764 H775 0.931 . S
C765 C762 1.382 . S
C765 C763 1.392 . S
C766 Eu737 2.828 . S
C766 O750 1.249 . S
C766 O751 1.244 . S
C766 C760 1.505 . S
C767 O754 1.258 1_655 S
C767 O755 1.242 1_655 S
H768 C740 0.930 . S
H769 C741 0.930 . S
H770 C742 0.930 . S
H771 C743 0.931 . S
H772 C761 0.930 . S
H773 C762 0.930 . S
H774 C763 0.930 . S
H775 C764 0.931 . S
Eu776 C785 2.828 . S
Eu776 O787 2.392 . S
Eu776 O789 2.418 . S
Eu776 O794 2.373 . S
Eu776 O797 2.488 . S
Eu776 O798 2.471 . S
Eu776 O799 2.349 . S
Eu777 O786 2.373 . S
Eu777 O790 2.488 . S
Eu777 O791 2.471 . S
Eu777 O792 2.349 . S
Eu777 O795 2.392 . S
Eu777 O796 2.418 . S
Eu777 C806 2.828 . S
C778 O796 1.244 . S
C778 O799 1.265 . S
C779 C780 1.379 . S
C779 C783 1.373 . S
C779 C785 1.505 . S
C780 C779 1.379 . S
C780 C782 1.369 . S
C780 H808 0.930 . S
C781 C783 1.383 . S
C781 C784 1.382 . S
C781 H809 0.930 . S
C782 C780 1.369 . S
C782 C784 1.392 . S
C782 H810 0.930 . S
C783 C779 1.373 . S
C783 C781 1.383 . S
C783 H811 0.931 . S
C784 C781 1.382 . S
C784 C782 1.392 . S
C785 Eu776 2.828 . S
C785 C779 1.505 . S
C785 O797 1.249 . S
C785 O798 1.244 . S
O786 Eu777 2.373 . S
O786 C788 1.258 . S
O787 Eu776 2.392 . S
O787 C788 1.242 . S
C788 O786 1.258 . S
C788 O787 1.242 . S
O789 Eu776 2.418 . S
O789 C793 1.244 . S
O790 Eu777 2.488 . S
O790 C806 1.249 . S
O791 Eu777 2.471 . S
O791 C806 1.244 . S
O792 Eu777 2.349 . S
O792 C793 1.265 . S
C793 O789 1.244 . S
C793 O792 1.265 . S
O794 Eu776 2.373 . S
O794 C807 1.258 . S
O795 Eu777 2.392 . S
O795 C807 1.242 . S
O796 Eu777 2.418 . S
O796 C778 1.244 . S
O797 Eu776 2.488 . S
O797 C785 1.249 . S
O798 Eu776 2.471 . S
O798 C785 1.244 . S
O799 Eu776 2.349 . S
O799 C778 1.265 . S
C800 C801 1.379 . S
C800 C804 1.373 . S
C800 C806 1.505 . S
C801 C800 1.379 . S
C801 C803 1.369 . S
C801 H812 0.930 . S
C802 C804 1.383 . S
C802 C805 1.382 . S
C802 H813 0.930 . S
C803 C801 1.369 . S
C803 C805 1.392 . S
C803 H814 0.930 . S
C804 C800 1.373 . S
C804 C802 1.383 . S
C804 H815 0.931 . S
C805 C802 1.382 . S
C805 C803 1.392 . S
C806 Eu777 2.828 . S
C806 O790 1.249 . S
C806 O791 1.244 . S
C806 C800 1.505 . S
C807 O794 1.258 . S
C807 O795 1.242 . S
H808 C780 0.930 . S
H809 C781 0.930 . S
H810 C782 0.930 . S
H811 C783 0.931 . S
H812 C801 0.930 . S
H813 C802 0.930 . S
H814 C803 0.930 . S
H815 C804 0.931 . S
Eu816 C825 2.828 . S
Eu816 O827 2.392 . S
Eu816 O829 2.418 . S
Eu816 O834 2.373 . S
Eu816 O837 2.488 . S
Eu816 O838 2.471 . S
Eu816 O839 2.349 . S
Eu817 O826 2.373 . S
Eu817 O830 2.488 . S
Eu817 O831 2.471 . S
Eu817 O832 2.349 . S
Eu817 O835 2.392 . S
Eu817 O836 2.418 . S
Eu817 C846 2.828 . S
C818 O836 1.244 . S
C818 O839 1.265 . S
C819 C820 1.379 . S
C819 C823 1.373 . S
C819 C825 1.505 . S
C820 C819 1.379 . S
C820 C822 1.369 . S
C820 H848 0.930 . S
C821 C823 1.383 . S
C821 C824 1.382 . S
C821 H849 0.930 . S
C822 C820 1.369 . S
C822 C824 1.392 . S
C822 H850 0.930 . S
C823 C819 1.373 . S
C823 C821 1.383 . S
C823 H851 0.931 . S
C824 C821 1.382 . S
C824 C822 1.392 . S
C825 Eu816 2.828 . S
C825 C819 1.505 . S
C825 O837 1.249 . S
C825 O838 1.244 . S
O826 Eu817 2.373 . S
O826 C828 1.258 . S
O827 Eu816 2.392 . S
O827 C828 1.242 . S
C828 O826 1.258 . S
C828 O827 1.242 . S
O829 Eu816 2.418 . S
O829 C833 1.244 . S
O830 Eu817 2.488 . S
O830 C846 1.249 . S
O831 Eu817 2.471 . S
O831 C846 1.244 . S
O832 Eu817 2.349 . S
O832 C833 1.265 . S
C833 O829 1.244 . S
C833 O832 1.265 . S
O834 Eu816 2.373 . S
O834 C847 1.258 . S
O835 Eu817 2.392 . S
O835 C847 1.242 . S
O836 Eu817 2.418 . S
O836 C818 1.244 . S
O837 Eu816 2.488 . S
O837 C825 1.249 . S
O838 Eu816 2.471 . S
O838 C825 1.244 . S
O839 Eu816 2.349 . S
O839 C818 1.265 . S
C840 C841 1.379 . S
C840 C844 1.373 . S
C840 C846 1.505 . S
C841 C840 1.379 . S
C841 C843 1.369 . S
C841 H852 0.930 . S
C842 C844 1.383 . S
C842 C845 1.382 . S
C842 H853 0.930 . S
C843 C841 1.369 . S
C843 C845 1.392 . S
C843 H854 0.930 . S
C844 C840 1.373 . S
C844 C842 1.383 . S
C844 H855 0.931 . S
C845 C842 1.382 . S
C845 C843 1.392 . S
C846 Eu817 2.828 . S
C846 O830 1.249 . S
C846 O831 1.244 . S
C846 C840 1.505 . S
C847 O834 1.258 . S
C847 O835 1.242 . S
H848 C820 0.930 . S
H849 C821 0.930 . S
H850 C822 0.930 . S
H851 C823 0.931 . S
H852 C841 0.930 . S
H853 C842 0.930 . S
H854 C843 0.930 . S
H855 C844 0.931 . S
Eu856 C865 2.828 . S
Eu856 O867 2.392 . S
Eu856 O869 2.418 . S
Eu856 O874 2.373 . S
Eu856 O877 2.488 . S
Eu856 O878 2.471 . S
Eu856 O879 2.349 . S
Eu857 O866 2.373 . S
Eu857 O870 2.488 . S
Eu857 O871 2.471 . S
Eu857 O872 2.349 . S
Eu857 O875 2.392 . S
Eu857 O876 2.418 . S
Eu857 C886 2.828 . S
C858 O876 1.244 . S
C858 O879 1.265 . S
C859 C860 1.379 . S
C859 C863 1.373 . S
C859 C865 1.505 . S
C860 C859 1.379 . S
C860 C862 1.369 . S
C860 H888 0.930 . S
C861 C863 1.383 . S
C861 C864 1.382 . S
C861 H889 0.930 . S
C862 C860 1.369 . S
C862 C864 1.392 . S
C862 H890 0.930 . S
C863 C859 1.373 . S
C863 C861 1.383 . S
C863 H891 0.931 . S
C864 C861 1.382 . S
C864 C862 1.392 . S
C865 Eu856 2.828 . S
C865 C859 1.505 . S
C865 O877 1.249 . S
C865 O878 1.244 . S
O866 Eu857 2.373 . S
O866 C868 1.258 . S
O867 Eu856 2.392 . S
O867 C868 1.242 . S
C868 O866 1.258 . S
C868 O867 1.242 . S
O869 Eu856 2.418 . S
O869 C873 1.244 . S
O870 Eu857 2.488 . S
O870 C886 1.249 . S
O871 Eu857 2.471 . S
O871 C886 1.244 . S
O872 Eu857 2.349 . S
O872 C873 1.265 . S
C873 O869 1.244 . S
C873 O872 1.265 . S
O874 Eu856 2.373 . S
O874 C887 1.258 . S
O875 Eu857 2.392 . S
O875 C887 1.242 . S
O876 Eu857 2.418 . S
O876 C858 1.244 . S
O877 Eu856 2.488 . S
O877 C865 1.249 . S
O878 Eu856 2.471 . S
O878 C865 1.244 . S
O879 Eu856 2.349 . S
O879 C858 1.265 . S
C880 C881 1.379 . S
C880 C884 1.373 . S
C880 C886 1.505 . S
C881 C880 1.379 . S
C881 C883 1.369 . S
C881 H892 0.930 . S
C882 C884 1.383 . S
C882 C885 1.382 . S
C882 H893 0.930 . S
C883 C881 1.369 . S
C883 C885 1.392 . S
C883 H894 0.930 . S
C884 C880 1.373 . S
C884 C882 1.383 . S
C884 H895 0.931 . S
C885 C882 1.382 . S
C885 C883 1.392 . S
C886 Eu857 2.828 . S
C886 O870 1.249 . S
C886 O871 1.244 . S
C886 C880 1.505 . S
C887 O874 1.258 . S
C887 O875 1.242 . S
H888 C860 0.930 . S
H889 C861 0.930 . S
H890 C862 0.930 . S
H891 C863 0.931 . S
H892 C881 0.930 . S
H893 C882 0.930 . S
H894 C883 0.930 . S
H895 C884 0.931 . S
Eu896 C905 2.828 . S
Eu896 O907 2.392 . S
Eu896 O909 2.418 . S
Eu896 O914 2.373 . S
Eu896 O917 2.488 . S
Eu896 O918 2.471 . S
Eu896 O919 2.349 . S
Eu897 O906 2.373 . S
Eu897 O910 2.488 . S
Eu897 O911 2.471 . S
Eu897 O912 2.349 . S
Eu897 O915 2.392 . S
Eu897 O916 2.418 . S
Eu897 C926 2.828 . S
C898 O916 1.244 . S
C898 O919 1.265 . S
C899 C900 1.379 . S
C899 C903 1.373 . S
C899 C905 1.505 . S
C900 C899 1.379 . S
C900 C902 1.369 . S
C900 H928 0.930 . S
C901 C903 1.383 . S
C901 C904 1.382 . S
C901 H929 0.930 . S
C902 C900 1.369 . S
C902 C904 1.392 . S
C902 H930 0.930 . S
C903 C899 1.373 . S
C903 C901 1.383 . S
C903 H931 0.931 . S
C904 C901 1.382 . S
C904 C902 1.392 . S
C905 Eu896 2.828 . S
C905 C899 1.505 . S
C905 O917 1.249 . S
C905 O918 1.244 . S
O906 Eu897 2.373 . S
O906 C908 1.258 . S
O907 Eu896 2.392 . S
O907 C908 1.242 . S
C908 O906 1.258 . S
C908 O907 1.242 . S
O909 Eu896 2.418 . S
O909 C913 1.244 . S
O910 Eu897 2.488 . S
O910 C926 1.249 . S
O911 Eu897 2.471 . S
O911 C926 1.244 . S
O912 Eu897 2.349 . S
O912 C913 1.265 . S
C913 O909 1.244 . S
C913 O912 1.265 . S
O914 Eu896 2.373 . S
O914 C927 1.258 . S
O915 Eu897 2.392 . S
O915 C927 1.242 . S
O916 Eu897 2.418 . S
O916 C898 1.244 . S
O917 Eu896 2.488 . S
O917 C905 1.249 . S
O918 Eu896 2.471 . S
O918 C905 1.244 . S
O919 Eu896 2.349 . S
O919 C898 1.265 . S
C920 C921 1.379 . S
C920 C924 1.373 . S
C920 C926 1.505 . S
C921 C920 1.379 . S
C921 C923 1.369 . S
C921 H932 0.930 . S
C922 C924 1.383 . S
C922 C925 1.382 . S
C922 H933 0.930 . S
C923 C921 1.369 . S
C923 C925 1.392 . S
C923 H934 0.930 . S
C924 C920 1.373 . S
C924 C922 1.383 . S
C924 H935 0.931 . S
C925 C922 1.382 . S
C925 C923 1.392 . S
C926 Eu897 2.828 . S
C926 O910 1.249 . S
C926 O911 1.244 . S
C926 C920 1.505 . S
C927 O914 1.258 . S
C927 O915 1.242 . S
H928 C900 0.930 . S
H929 C901 0.930 . S
H930 C902 0.930 . S
H931 C903 0.931 . S
H932 C921 0.930 . S
H933 C922 0.930 . S
H934 C923 0.930 . S
H935 C924 0.931 . S
Eu936 C945 2.828 1_554 S
Eu936 O947 2.392 . S
Eu936 O949 2.418 1_554 S
Eu936 O954 2.373 1_554 S
Eu936 O957 2.488 1_554 S
Eu936 O958 2.471 . S
Eu936 O959 2.349 . S
Eu937 O946 2.373 . S
Eu937 O950 2.488 1_455 S
Eu937 O951 2.471 1_455 S
Eu937 O952 2.349 1_554 S
Eu937 O955 2.392 . S
Eu937 O956 2.418 . S
Eu937 C966 2.828 1_455 S
C938 O956 1.244 . S
C938 O959 1.265 . S
C939 C940 1.379 1_556 S
C939 C943 1.373 . S
C939 C945 1.505 . S
C940 C939 1.379 1_554 S
C940 C942 1.369 . S
C940 H968 0.930 . S
C941 C943 1.383 . S
C941 C944 1.382 . S
C941 H969 0.930 . S
C942 C940 1.369 . S
C942 C944 1.392 1_554 S
C942 H970 0.930 . S
C943 C939 1.373 . S
C943 C941 1.383 . S
C943 H971 0.931 . S
C944 C941 1.382 . S
C944 C942 1.392 1_556 S
C945 Eu936 2.828 1_556 S
C945 C939 1.505 . S
C945 O957 1.249 . S
C945 O958 1.244 1_556 S
O946 Eu937 2.373 . S
O946 C948 1.258 . S
O947 Eu936 2.392 . S
O947 C948 1.242 . S
C948 O946 1.258 . S
C948 O947 1.242 . S
O949 Eu936 2.418 1_556 S
O949 C953 1.244 . S
O950 Eu937 2.488 1_655 S
O950 C966 1.249 . S
O951 Eu937 2.471 1_655 S
O951 C966 1.244 . S
O952 Eu937 2.349 1_556 S
O952 C953 1.265 . S
C953 O949 1.244 . S
C953 O952 1.265 . S
O954 Eu936 2.373 1_556 S
O954 C967 1.258 1_556 S
O955 Eu937 2.392 . S
O955 C967 1.242 . S
O956 Eu937 2.418 . S
O956 C938 1.244 . S
O957 Eu936 2.488 1_556 S
O957 C945 1.249 . S
O958 Eu936 2.471 . S
O958 C945 1.244 1_554 S
O959 Eu936 2.349 . S
O959 C938 1.265 . S
C960 C961 1.379 . S
C960 C964 1.373 . S
C960 C966 1.505 . S
C961 C960 1.379 . S
C961 C963 1.369 . S
C961 H972 0.930 . S
C962 C964 1.383 . S
C962 C965 1.382 . S
C962 H973 0.930 . S
C963 C961 1.369 . S
C963 C965 1.392 . S
C963 H974 0.930 . S
C964 C960 1.373 . S
C964 C962 1.383 . S
C964 H975 0.931 . S
C965 C962 1.382 . S
C965 C963 1.392 . S
C966 Eu937 2.828 1_655 S
C966 O950 1.249 . S
C966 O951 1.244 . S
C966 C960 1.505 . S
C967 O954 1.258 1_554 S
C967 O955 1.242 . S
H968 C940 0.930 . S
H969 C941 0.930 . S
H970 C942 0.930 . S
H971 C943 0.931 . S
H972 C961 0.930 . S
H973 C962 0.930 . S
H974 C963 0.930 . S
H975 C964 0.931 . S
C976 C977 1.391 . S
C976 C978 1.394 . S
C976 H992 0.931 . S
C977 C976 1.391 . S
C977 C981 1.376 1_455 S
C978 C976 1.394 . S
C978 C979 1.369 . S
C978 C982 1.531 . S
C979 C978 1.369 . S
C979 C980 1.419 . S
C979 C987 1.503 . S
C980 C979 1.419 . S
C980 C981 1.389 1_455 S
C980 C983 1.505 1_455 S
C981 C977 1.376 1_655 S
C981 C980 1.389 1_655 S
C981 H993 0.929 . S
C982 C978 1.531 . S
C982 H994 0.960 . S
C982 H995 0.962 . S
C982 H996 0.960 . S
C983 C980 1.505 1_655 S
C983 H997 0.961 . S
C983 H998 0.961 . S
C983 H999 0.961 . S
C984 C985 1.370 . S
C984 C986 1.363 . S
C984 H1000 0.931 . S
C985 C984 1.370 . S
C985 C989 1.408 1_556 S
C986 C984 1.363 . S
C986 C987 1.370 . S
C986 C990 1.524 . S
C987 C979 1.503 . S
C987 C986 1.370 . S
C987 C988 1.403 . S
C988 C987 1.403 . S
C988 C989 1.404 1_556 S
C988 C991 1.539 1_556 S
C989 C985 1.408 1_554 S
C989 C988 1.404 1_554 S
C989 H1001 0.930 . S
C990 C986 1.524 . S
C990 H1002 0.956 . S
C990 H1003 0.961 . S
C990 H1004 0.961 . S
C991 C988 1.539 1_554 S
C991 H1005 0.958 . S
C991 H1006 0.961 . S
C991 H1007 0.960 . S
H992 C976 0.931 . S
H993 C981 0.929 . S
H994 C982 0.960 . S
H995 C982 0.962 . S
H996 C982 0.960 . S
H997 C983 0.961 . S
H998 C983 0.961 . S
H999 C983 0.961 . S
H1000 C984 0.931 . S
H1001 C989 0.930 . S
H1002 C990 0.956 . S
H1003 C990 0.961 . S
H1004 C990 0.961 . S
H1005 C991 0.958 . S
H1006 C991 0.961 . S
H1007 C991 0.960 . S
C1008 C1009 1.391 . S
C1008 C1010 1.394 . S
C1008 H1024 0.931 . S
C1009 C1008 1.391 . S
C1009 C1013 1.376 . S
C1010 C1008 1.394 . S
C1010 C1011 1.369 . S
C1010 C1014 1.531 . S
C1011 C1010 1.369 . S
C1011 C1012 1.410 . S
C1011 C1019 1.503 . S
C1012 C1011 1.410 . S
C1012 C1013 1.392 . S
C1012 C1015 1.511 . S
C1013 C1009 1.376 . S
C1013 C1012 1.392 . S
C1013 H1025 0.929 . S
C1014 C1010 1.531 . S
C1014 H1026 0.960 . S
C1014 H1027 0.962 . S
C1014 H1028 0.960 . S
C1015 C1012 1.511 . S
C1015 H1029 0.961 . S
C1015 H1030 0.961 . S
C1015 H1031 0.961 . S
C1016 C1017 1.370 . S
C1016 C1018 1.363 . S
C1016 H1032 0.931 . S
C1017 C1016 1.370 . S
C1017 C1021 1.408 . S
C1018 C1016 1.363 . S
C1018 C1019 1.370 . S
C1018 C1022 1.524 . S
C1019 C1011 1.503 . S
C1019 C1018 1.370 . S
C1019 C1020 1.403 . S
C1020 C1019 1.403 . S
C1020 C1021 1.404 . S
C1020 C1023 1.539 . S
C1021 C1017 1.408 . S
C1021 C1020 1.404 . S
C1021 H1033 0.930 . S
C1022 C1018 1.524 . S
C1022 H1034 0.956 . S
C1022 H1035 0.961 . S
C1022 H1036 0.961 . S
C1023 C1020 1.539 . S
C1023 H1037 0.958 . S
C1023 H1038 0.961 . S
C1023 H1039 0.960 . S
H1024 C1008 0.931 . S
H1025 C1013 0.929 . S
H1026 C1014 0.960 . S
H1027 C1014 0.962 . S
H1028 C1014 0.960 . S
H1029 C1015 0.961 . S
H1030 C1015 0.961 . S
H1031 C1015 0.961 . S
H1032 C1016 0.931 . S
H1033 C1021 0.930 . S
H1034 C1022 0.956 . S
H1035 C1022 0.961 . S
H1036 C1022 0.961 . S
H1037 C1023 0.958 . S
H1038 C1023 0.961 . S
H1039 C1023 0.960 . S
C1040 C1041 1.391 . S
C1040 C1042 1.394 . S
C1040 H1056 0.931 . S
C1041 C1040 1.391 . S
C1041 C1045 1.376 . S
C1042 C1040 1.394 . S
C1042 C1043 1.369 . S
C1042 C1046 1.531 . S
C1043 C1042 1.369 . S
C1043 C1044 1.410 . S
C1043 C1051 1.503 . S
C1044 C1043 1.410 . S
C1044 C1045 1.392 . S
C1044 C1047 1.511 . S
C1045 C1041 1.376 . S
C1045 C1044 1.392 . S
C1045 H1057 0.929 . S
C1046 C1042 1.531 . S
C1046 H1058 0.960 . S
C1046 H1059 0.962 . S
C1046 H1060 0.960 . S
C1047 C1044 1.511 . S
C1047 H1061 0.961 . S
C1047 H1062 0.961 . S
C1047 H1063 0.961 . S
C1048 C1049 1.370 . S
C1048 C1050 1.363 . S
C1048 H1064 0.931 . S
C1049 C1048 1.370 . S
C1049 C1053 1.408 . S
C1050 C1048 1.363 . S
C1050 C1051 1.370 . S
C1050 C1054 1.524 . S
C1051 C1043 1.503 . S
C1051 C1050 1.370 . S
C1051 C1052 1.403 . S
C1052 C1051 1.403 . S
C1052 C1053 1.404 . S
C1052 C1055 1.539 . S
C1053 C1049 1.408 . S
C1053 C1052 1.404 . S
C1053 H1065 0.930 . S
C1054 C1050 1.524 . S
C1054 H1066 0.956 . S
C1054 H1067 0.961 . S
C1054 H1068 0.961 . S
C1055 C1052 1.539 . S
C1055 H1069 0.958 . S
C1055 H1070 0.961 . S
C1055 H1071 0.960 . S
H1056 C1040 0.931 . S
H1057 C1045 0.929 . S
H1058 C1046 0.960 . S
H1059 C1046 0.962 . S
H1060 C1046 0.960 . S
H1061 C1047 0.961 . S
H1062 C1047 0.961 . S
H1063 C1047 0.961 . S
H1064 C1048 0.931 . S
H1065 C1053 0.930 . S
H1066 C1054 0.956 . S
H1067 C1054 0.961 . S
H1068 C1054 0.961 . S
H1069 C1055 0.958 . S
H1070 C1055 0.961 . S
H1071 C1055 0.960 . S
C1072 C1073 1.391 . S
C1072 C1074 1.394 . S
C1072 H1088 0.931 . S
C1073 C1072 1.391 . S
C1073 C1077 1.376 . S
C1074 C1072 1.394 . S
C1074 C1075 1.369 . S
C1074 C1078 1.531 . S
C1075 C1074 1.369 . S
C1075 C1076 1.410 . S
C1075 C1083 1.503 . S
C1076 C1075 1.410 . S
C1076 C1077 1.392 . S
C1076 C1079 1.511 . S
C1077 C1073 1.376 . S
C1077 C1076 1.392 . S
C1077 H1089 0.929 . S
C1078 C1074 1.531 . S
C1078 H1090 0.960 . S
C1078 H1091 0.962 . S
C1078 H1092 0.960 . S
C1079 C1076 1.511 . S
C1079 H1093 0.961 . S
C1079 H1094 0.961 . S
C1079 H1095 0.961 . S
C1080 C1081 1.370 . S
C1080 C1082 1.363 . S
C1080 H1096 0.931 . S
C1081 C1080 1.370 . S
C1081 C1085 1.408 . S
C1082 C1080 1.363 . S
C1082 C1083 1.370 . S
C1082 C1086 1.524 . S
C1083 C1075 1.503 . S
C1083 C1082 1.370 . S
C1083 C1084 1.403 . S
C1084 C1083 1.403 . S
C1084 C1085 1.404 . S
C1084 C1087 1.539 . S
C1085 C1081 1.408 . S
C1085 C1084 1.404 . S
C1085 H1097 0.930 . S
C1086 C1082 1.524 . S
C1086 H1098 0.956 . S
C1086 H1099 0.961 . S
C1086 H1100 0.961 . S
C1087 C1084 1.539 . S
C1087 H1101 0.958 . S
C1087 H1102 0.961 . S
C1087 H1103 0.960 . S
H1088 C1072 0.931 . S
H1089 C1077 0.929 . S
H1090 C1078 0.960 . S
H1091 C1078 0.962 . S
H1092 C1078 0.960 . S
H1093 C1079 0.961 . S
H1094 C1079 0.961 . S
H1095 C1079 0.961 . S
H1096 C1080 0.931 . S
H1097 C1085 0.930 . S
H1098 C1086 0.956 . S
H1099 C1086 0.961 . S
H1100 C1086 0.961 . S
H1101 C1087 0.958 . S
H1102 C1087 0.961 . S
H1103 C1087 0.960 . S
C1104 C1105 1.391 1_655 S
C1104 C1106 1.394 1_655 S
C1104 H1120 0.931 . S
C1105 C1104 1.391 1_455 S
C1105 C1109 1.376 . S
C1106 C1104 1.394 1_455 S
C1106 C1107 1.369 . S
C1106 C1110 1.531 1_455 S
C1107 C1106 1.369 . S
C1107 C1108 1.410 . S
C1107 C1115 1.503 . S
C1108 C1107 1.410 . S
C1108 C1109 1.392 . S
C1108 C1111 1.511 . S
C1109 C1105 1.376 . S
C1109 C1108 1.392 . S
C1109 H1121 0.929 . S
C1110 C1106 1.531 1_655 S
C1110 H1122 0.953 1_655 S
C1110 H1123 0.962 . S
C1110 H1124 0.960 . S
C1111 C1108 1.511 . S
C1111 H1125 0.961 . S
C1111 H1126 0.961 . S
C1111 H1127 0.961 . S
C1112 C1113 1.370 . S
C1112 C1114 1.363 . S
C1112 H1128 0.931 . S
C1113 C1112 1.370 . S
C1113 C1117 1.408 . S
C1114 C1112 1.363 . S
C1114 C1115 1.370 . S
C1114 C1118 1.524 . S
C1115 C1107 1.503 . S
C1115 C1114 1.370 . S
C1115 C1116 1.403 . S
C1116 C1115 1.403 . S
C1116 C1117 1.404 . S
C1116 C1119 1.539 . S
C1117 C1113 1.408 . S
C1117 C1116 1.404 . S
C1117 H1129 0.930 . S
C1118 C1114 1.524 . S
C1118 H1130 0.956 . S
C1118 H1131 0.961 . S
C1118 H1132 0.961 . S
C1119 C1116 1.539 . S
C1119 H1133 0.958 . S
C1119 H1134 0.961 . S
C1119 H1135 0.960 . S
H1120 C1104 0.931 . S
H1121 C1109 0.929 . S
H1122 C1110 0.953 1_455 S
H1123 C1110 0.962 . S
H1124 C1110 0.960 . S
H1125 C1111 0.961 . S
H1126 C1111 0.961 . S
H1127 C1111 0.961 . S
H1128 C1112 0.931 . S
H1129 C1117 0.930 . S
H1130 C1118 0.956 . S
H1131 C1118 0.961 . S
H1132 C1118 0.961 . S
H1133 C1119 0.958 . S
H1134 C1119 0.961 . S
H1135 C1119 0.960 . S
C1136 C1137 1.391 . S
C1136 C1138 1.394 . S
C1136 H1152 0.931 . S
C1137 C1136 1.391 . S
C1137 C1141 1.376 . S
C1138 C1136 1.394 . S
C1138 C1139 1.369 . S
C1138 C1142 1.531 . S
C1139 C1138 1.369 . S
C1139 C1140 1.410 . S
C1139 C1147 1.503 . S
C1140 C1139 1.410 . S
C1140 C1141 1.392 . S
C1140 C1143 1.511 . S
C1141 C1137 1.376 . S
C1141 C1140 1.392 . S
C1141 H1153 0.929 . S
C1142 C1138 1.531 . S
C1142 H1154 0.960 . S
C1142 H1155 0.962 . S
C1142 H1156 0.960 . S
C1143 C1140 1.511 . S
C1143 H1157 0.961 . S
C1143 H1158 0.961 . S
C1143 H1159 0.961 . S
C1144 C1145 1.370 . S
C1144 C1146 1.363 . S
C1144 H1160 0.931 . S
C1145 C1144 1.370 . S
C1145 C1149 1.408 . S
C1146 C1144 1.363 . S
C1146 C1147 1.370 . S
C1146 C1150 1.524 . S
C1147 C1139 1.503 . S
C1147 C1146 1.370 . S
C1147 C1148 1.403 . S
C1148 C1147 1.403 . S
C1148 C1149 1.404 . S
C1148 C1151 1.539 . S
C1149 C1145 1.408 . S
C1149 C1148 1.404 . S
C1149 H1161 0.930 . S
C1150 C1146 1.524 . S
C1150 H1162 0.956 . S
C1150 H1163 0.961 . S
C1150 H1164 0.961 . S
C1151 C1148 1.539 . S
C1151 H1165 0.958 . S
C1151 H1166 0.961 . S
C1151 H1167 0.960 . S
H1152 C1136 0.931 . S
H1153 C1141 0.929 . S
H1154 C1142 0.960 . S
H1155 C1142 0.962 . S
H1156 C1142 0.960 . S
H1157 C1143 0.961 . S
H1158 C1143 0.961 . S
H1159 C1143 0.961 . S
H1160 C1144 0.931 . S
H1161 C1149 0.930 . S
H1162 C1150 0.956 . S
H1163 C1150 0.961 . S
H1164 C1150 0.961 . S
H1165 C1151 0.958 . S
H1166 C1151 0.961 . S
H1167 C1151 0.960 . S
C1168 C1169 1.391 . S
C1168 C1170 1.394 . S
C1168 H1184 0.931 . S
C1169 C1168 1.391 . S
C1169 C1173 1.376 . S
C1170 C1168 1.394 . S
C1170 C1171 1.369 . S
C1170 C1174 1.531 . S
C1171 C1170 1.369 . S
C1171 C1172 1.410 . S
C1171 C1179 1.503 . S
C1172 C1171 1.410 . S
C1172 C1173 1.392 . S
C1172 C1175 1.511 . S
C1173 C1169 1.376 . S
C1173 C1172 1.392 . S
C1173 H1185 0.929 . S
C1174 C1170 1.531 . S
C1174 H1186 0.960 . S
C1174 H1187 0.962 . S
C1174 H1188 0.960 . S
C1175 C1172 1.511 . S
C1175 H1189 0.961 . S
C1175 H1190 0.961 . S
C1175 H1191 0.961 . S
C1176 C1177 1.370 . S
C1176 C1178 1.363 . S
C1176 H1192 0.931 . S
C1177 C1176 1.370 . S
C1177 C1181 1.408 . S
C1178 C1176 1.363 . S
C1178 C1179 1.370 . S
C1178 C1182 1.524 . S
C1179 C1171 1.503 . S
C1179 C1178 1.370 . S
C1179 C1180 1.403 . S
C1180 C1179 1.403 . S
C1180 C1181 1.404 . S
C1180 C1183 1.539 . S
C1181 C1177 1.408 . S
C1181 C1180 1.404 . S
C1181 H1193 0.930 . S
C1182 C1178 1.524 . S
C1182 H1194 0.956 . S
C1182 H1195 0.961 . S
C1182 H1196 0.961 . S
C1183 C1180 1.539 . S
C1183 H1197 0.958 . S
C1183 H1198 0.961 . S
C1183 H1199 0.960 . S
H1184 C1168 0.931 . S
H1185 C1173 0.929 . S
H1186 C1174 0.960 . S
H1187 C1174 0.962 . S
H1188 C1174 0.960 . S
H1189 C1175 0.961 . S
H1190 C1175 0.961 . S
H1191 C1175 0.961 . S
H1192 C1176 0.931 . S
H1193 C1181 0.930 . S
H1194 C1182 0.956 . S
H1195 C1182 0.961 . S
H1196 C1182 0.961 . S
H1197 C1183 0.958 . S
H1198 C1183 0.961 . S
H1199 C1183 0.960 . S
C1200 C1201 1.391 . S
C1200 C1202 1.394 . S
C1200 H1216 0.931 . S
C1201 C1200 1.391 . S
C1201 C1205 1.376 . S
C1202 C1200 1.394 . S
C1202 C1203 1.369 . S
C1202 C1206 1.531 . S
C1203 C1202 1.369 . S
C1203 C1204 1.410 . S
C1203 C1211 1.503 . S
C1204 C1203 1.410 . S
C1204 C1205 1.392 . S
C1204 C1207 1.511 . S
C1205 C1201 1.376 . S
C1205 C1204 1.392 . S
C1205 H1217 0.929 . S
C1206 C1202 1.531 . S
C1206 H1218 0.960 . S
C1206 H1219 0.962 . S
C1206 H1220 0.960 . S
C1207 C1204 1.511 . S
C1207 H1221 0.961 . S
C1207 H1222 0.961 . S
C1207 H1223 0.961 . S
C1208 C1209 1.370 . S
C1208 C1210 1.363 . S
C1208 H1224 0.931 . S
C1209 C1208 1.370 . S
C1209 C1213 1.408 . S
C1210 C1208 1.363 . S
C1210 C1211 1.370 . S
C1210 C1214 1.524 . S
C1211 C1203 1.503 . S
C1211 C1210 1.370 . S
C1211 C1212 1.403 . S
C1212 C1211 1.403 . S
C1212 C1213 1.404 . S
C1212 C1215 1.539 . S
C1213 C1209 1.408 . S
C1213 C1212 1.404 . S
C1213 H1225 0.930 . S
C1214 C1210 1.524 . S
C1214 H1226 0.956 . S
C1214 H1227 0.961 . S
C1214 H1228 0.961 . S
C1215 C1212 1.539 . S
C1215 H1229 0.958 . S
C1215 H1230 0.961 . S
C1215 H1231 0.960 . S
H1216 C1200 0.931 . S
H1217 C1205 0.929 . S
H1218 C1206 0.960 . S
H1219 C1206 0.962 . S
H1220 C1206 0.960 . S
H1221 C1207 0.961 . S
H1222 C1207 0.961 . S
H1223 C1207 0.961 . S
H1224 C1208 0.931 . S
H1225 C1213 0.930 . S
H1226 C1214 0.956 . S
H1227 C1214 0.961 . S
H1228 C1214 0.961 . S
H1229 C1215 0.958 . S
H1230 C1215 0.961 . S
H1231 C1215 0.960 . S
C1232 C1233 1.379 1_455 S
C1232 C1234 1.400 . S
C1232 H1248 0.937 . S
C1233 C1232 1.379 1_655 S
C1233 C1237 1.376 . S
C1234 C1232 1.400 . S
C1234 C1235 1.369 1_455 S
C1234 C1238 1.531 . S
C1235 C1234 1.369 1_655 S
C1235 C1236 1.410 . S
C1235 C1243 1.503 1_655 S
C1236 C1235 1.410 . S
C1236 C1237 1.392 . S
C1236 C1239 1.511 . S
C1237 C1233 1.376 . S
C1237 C1236 1.392 . S
C1237 H1249 0.929 . S
C1238 C1234 1.531 . S
C1238 H1250 0.960 . S
C1238 H1251 0.962 . S
C1238 H1252 0.960 . S
C1239 C1236 1.511 . S
C1239 H1253 0.961 . S
C1239 H1254 0.961 . S
C1239 H1255 0.961 . S
C1240 C1241 1.370 . S
C1240 C1242 1.363 . S
C1240 H1256 0.931 . S
C1241 C1240 1.370 . S
C1241 C1245 1.408 . S
C1242 C1240 1.363 . S
C1242 C1243 1.370 . S
C1242 C1246 1.524 . S
C1243 C1235 1.503 1_455 S
C1243 C1242 1.370 . S
C1243 C1244 1.403 . S
C1244 C1243 1.403 . S
C1244 C1245 1.404 . S
C1244 C1247 1.537 1_445 S
C1245 C1241 1.408 . S
C1245 C1244 1.404 . S
C1245 H1257 0.930 . S
C1246 C1242 1.524 . S
C1246 H1258 0.956 . S
C1246 H1259 0.983 . S
C1246 H1260 0.961 . S
C1247 C1244 1.537 1_665 S
C1247 H1261 0.960 1_655 S
C1247 H1262 0.963 . S
C1247 H1263 0.959 1_565 S
H1248 C1232 0.937 . S
H1249 C1237 0.929 . S
H1250 C1238 0.960 . S
H1251 C1238 0.962 . S
H1252 C1238 0.960 . S
H1253 C1239 0.961 . S
H1254 C1239 0.961 . S
H1255 C1239 0.961 . S
H1256 C1240 0.931 . S
H1257 C1245 0.930 . S
H1258 C1246 0.956 . S
H1259 C1246 0.983 . S
H1260 C1246 0.961 . S
H1261 C1247 0.960 1_455 S
H1262 C1247 0.963 . S
H1263 C1247 0.959 1_545 S
C1264 C1265 1.391 . S
C1264 C1266 1.394 . S
C1264 H1280 0.931 . S
C1265 C1264 1.391 . S
C1265 C1269 1.376 . S
C1266 C1264 1.394 . S
C1266 C1267 1.369 . S
C1266 C1270 1.531 . S
C1267 C1266 1.369 . S
C1267 C1268 1.410 . S
C1267 C1275 1.503 . S
C1268 C1267 1.410 . S
C1268 C1269 1.392 . S
C1268 C1271 1.511 . S
C1269 C1265 1.376 . S
C1269 C1268 1.392 . S
C1269 H1281 0.929 . S
C1270 C1266 1.531 . S
C1270 H1282 0.960 . S
C1270 H1283 0.962 . S
C1270 H1284 0.960 . S
C1271 C1268 1.511 . S
C1271 H1285 0.961 . S
C1271 H1286 0.961 . S
C1271 H1287 0.961 . S
C1272 C1273 1.370 . S
C1272 C1274 1.363 . S
C1272 H1288 0.931 . S
C1273 C1272 1.370 . S
C1273 C1277 1.408 . S
C1274 C1272 1.363 . S
C1274 C1275 1.370 . S
C1274 C1278 1.524 . S
C1275 C1267 1.503 . S
C1275 C1274 1.370 . S
C1275 C1276 1.403 . S
C1276 C1275 1.403 . S
C1276 C1277 1.404 . S
C1276 C1279 1.539 . S
C1277 C1273 1.408 . S
C1277 C1276 1.404 . S
C1277 H1289 0.930 . S
C1278 C1274 1.524 . S
C1278 H1290 0.956 . S
C1278 H1291 0.961 . S
C1278 H1292 0.961 . S
C1279 C1276 1.539 . S
C1279 H1293 0.958 . S
C1279 H1294 0.961 . S
C1279 H1295 0.960 . S
H1280 C1264 0.931 . S
H1281 C1269 0.929 . S
H1282 C1270 0.960 . S
H1283 C1270 0.962 . S
H1284 C1270 0.960 . S
H1285 C1271 0.961 . S
H1286 C1271 0.961 . S
H1287 C1271 0.961 . S
H1288 C1272 0.931 . S
H1289 C1277 0.930 . S
H1290 C1278 0.956 . S
H1291 C1278 0.961 . S
H1292 C1278 0.961 . S
H1293 C1279 0.958 . S
H1294 C1279 0.961 . S
H1295 C1279 0.960 . S
C1296 C1297 1.391 . S
C1296 C1298 1.394 . S
C1296 H1312 0.931 . S
C1297 C1296 1.391 . S
C1297 C1301 1.376 . S
C1298 C1296 1.394 . S
C1298 C1299 1.369 . S
C1298 C1302 1.531 . S
C1299 C1298 1.369 . S
C1299 C1300 1.410 . S
C1299 C1307 1.503 . S
C1300 C1299 1.410 . S
C1300 C1301 1.392 . S
C1300 C1303 1.511 . S
C1301 C1297 1.376 . S
C1301 C1300 1.392 . S
C1301 H1313 0.929 . S
C1302 C1298 1.531 . S
C1302 H1314 0.960 . S
C1302 H1315 0.962 . S
C1302 H1316 0.960 . S
C1303 C1300 1.511 . S
C1303 H1317 0.961 . S
C1303 H1318 0.961 . S
C1303 H1319 0.961 . S
C1304 C1305 1.370 . S
C1304 C1306 1.363 . S
C1304 H1320 0.931 . S
C1305 C1304 1.370 . S
C1305 C1309 1.408 . S
C1306 C1304 1.363 . S
C1306 C1307 1.370 . S
C1306 C1310 1.524 . S
C1307 C1299 1.503 . S
C1307 C1306 1.370 . S
C1307 C1308 1.403 . S
C1308 C1307 1.403 . S
C1308 C1309 1.404 . S
C1308 C1311 1.539 1_545 S
C1309 C1305 1.408 . S
C1309 C1308 1.404 . S
C1309 H1321 0.930 1_545 S
C1310 C1306 1.524 . S
C1310 H1322 0.956 . S
C1310 H1323 0.961 . S
C1310 H1324 0.961 . S
C1311 C1308 1.539 1_565 S
C1311 H1325 0.958 . S
C1311 H1326 0.961 . S
C1311 H1327 0.960 . S
H1312 C1296 0.931 . S
H1313 C1301 0.929 . S
H1314 C1302 0.960 . S
H1315 C1302 0.962 . S
H1316 C1302 0.960 . S
H1317 C1303 0.961 . S
H1318 C1303 0.961 . S
H1319 C1303 0.961 . S
H1320 C1304 0.931 . S
H1321 C1309 0.930 1_565 S
H1322 C1310 0.956 . S
H1323 C1310 0.961 . S
H1324 C1310 0.961 . S
H1325 C1311 0.958 . S
H1326 C1311 0.961 . S
H1327 C1311 0.960 . S
C1328 C1329 1.391 . S
C1328 C1330 1.394 . S
C1328 H1344 0.931 . S
C1329 C1328 1.391 . S
C1329 C1333 1.376 . S
C1330 C1328 1.394 . S
C1330 C1331 1.369 . S
C1330 C1334 1.531 . S
C1331 C1330 1.369 . S
C1331 C1332 1.410 . S
C1331 C1339 1.503 . S
C1332 C1331 1.410 . S
C1332 C1333 1.392 . S
C1332 C1335 1.511 . S
C1333 C1329 1.376 . S
C1333 C1332 1.392 . S
C1333 H1345 0.929 . S
C1334 C1330 1.531 . S
C1334 H1346 0.960 . S
C1334 H1347 0.962 . S
C1334 H1348 0.960 . S
C1335 C1332 1.511 . S
C1335 H1349 0.961 . S
C1335 H1350 0.961 . S
C1335 H1351 0.961 . S
C1336 C1337 1.370 . S
C1336 C1338 1.363 . S
C1336 H1352 0.931 . S
C1337 C1336 1.370 . S
C1337 C1341 1.408 . S
C1338 C1336 1.363 . S
C1338 C1339 1.370 . S
C1338 C1342 1.524 . S
C1339 C1331 1.503 . S
C1339 C1338 1.370 . S
C1339 C1340 1.403 . S
C1340 C1339 1.403 . S
C1340 C1341 1.404 . S
C1340 C1343 1.539 . S
C1341 C1337 1.408 . S
C1341 C1340 1.404 . S
C1341 H1353 0.930 . S
C1342 C1338 1.524 . S
C1342 H1354 0.956 . S
C1342 H1355 0.961 . S
C1342 H1356 0.961 . S
C1343 C1340 1.539 . S
C1343 H1357 0.958 . S
C1343 H1358 0.961 . S
C1343 H1359 0.960 . S
H1344 C1328 0.931 . S
H1345 C1333 0.929 . S
H1346 C1334 0.960 . S
H1347 C1334 0.962 . S
H1348 C1334 0.960 . S
H1349 C1335 0.961 . S
H1350 C1335 0.961 . S
H1351 C1335 0.961 . S
H1352 C1336 0.931 . S
H1353 C1341 0.930 . S
H1354 C1342 0.956 . S
H1355 C1342 0.961 . S
H1356 C1342 0.961 . S
H1357 C1343 0.958 . S
H1358 C1343 0.961 . S
H1359 C1343 0.960 . S
C1360 C1361 1.414 . S
C1360 C1362 1.385 1_655 S
C1360 H1376 0.917 1_655 S
C1361 C1360 1.414 . S
C1361 C1365 1.376 . S
C1362 C1360 1.385 1_455 S
C1362 C1363 1.369 1_455 S
C1362 C1366 1.531 . S
C1363 C1362 1.369 1_655 S
C1363 C1364 1.410 . S
C1363 C1371 1.503 1_655 S
C1364 C1363 1.410 . S
C1364 C1365 1.392 . S
C1364 C1367 1.511 . S
C1365 C1361 1.376 . S
C1365 C1364 1.392 . S
C1365 H1377 0.929 . S
C1366 C1362 1.531 . S
C1366 H1378 0.960 . S
C1366 H1379 0.962 . S
C1366 H1380 0.960 . S
C1367 C1364 1.511 . S
C1367 H1381 0.961 . S
C1367 H1382 0.961 . S
C1367 H1383 0.961 . S
C1368 C1369 1.370 . S
C1368 C1370 1.363 . S
C1368 H1384 0.931 . S
C1369 C1368 1.370 . S
C1369 C1373 1.408 . S
C1370 C1368 1.363 . S
C1370 C1371 1.370 . S
C1370 C1374 1.524 1_455 S
C1371 C1363 1.503 1_455 S
C1371 C1370 1.370 . S
C1371 C1372 1.403 . S
C1372 C1371 1.403 . S
C1372 C1373 1.404 . S
C1372 C1375 1.539 . S
C1373 C1369 1.408 . S
C1373 C1372 1.404 . S
C1373 H1385 0.930 . S
C1374 C1370 1.524 1_655 S
C1374 H1386 0.956 1_655 S
C1374 H1387 0.961 . S
C1374 H1388 0.961 1_545 S
C1375 C1372 1.539 . S
C1375 H1389 0.958 . S
C1375 H1390 0.961 . S
C1375 H1391 0.960 1_455 S
H1376 C1360 0.917 1_455 S
H1377 C1365 0.929 . S
H1378 C1366 0.960 . S
H1379 C1366 0.962 . S
H1380 C1366 0.960 . S
H1381 C1367 0.961 . S
H1382 C1367 0.961 . S
H1383 C1367 0.961 . S
H1384 C1368 0.931 . S
H1385 C1373 0.930 . S
H1386 C1374 0.956 1_455 S
H1387 C1374 0.961 . S
H1388 C1374 0.961 1_565 S
H1389 C1375 0.958 . S
H1390 C1375 0.961 . S
H1391 C1375 0.960 1_655 S
C1392 C1393 1.391 . S
C1392 C1394 1.394 . S
C1392 H1408 0.931 . S
C1393 C1392 1.391 . S
C1393 C1397 1.376 . S
C1394 C1392 1.394 . S
C1394 C1395 1.369 . S
C1394 C1398 1.531 . S
C1395 C1394 1.369 . S
C1395 C1396 1.410 . S
C1395 C1403 1.503 . S
C1396 C1395 1.410 . S
C1396 C1397 1.392 . S
C1396 C1399 1.511 . S
C1397 C1393 1.376 . S
C1397 C1396 1.392 . S
C1397 H1409 0.929 . S
C1398 C1394 1.531 . S
C1398 H1410 0.960 . S
C1398 H1411 0.962 . S
C1398 H1412 0.960 . S
C1399 C1396 1.511 . S
C1399 H1413 0.961 . S
C1399 H1414 0.961 . S
C1399 H1415 0.961 . S
C1400 C1401 1.370 . S
C1400 C1402 1.363 . S
C1400 H1416 0.931 . S
C1401 C1400 1.370 . S
C1401 C1405 1.408 . S
C1402 C1400 1.363 . S
C1402 C1403 1.370 . S
C1402 C1406 1.524 . S
C1403 C1395 1.503 . S
C1403 C1402 1.370 . S
C1403 C1404 1.403 . S
C1404 C1403 1.403 . S
C1404 C1405 1.404 . S
C1404 C1407 1.539 . S
C1405 C1401 1.408 . S
C1405 C1404 1.404 . S
C1405 H1417 0.930 . S
C1406 C1402 1.524 . S
C1406 H1418 0.956 . S
C1406 H1419 0.961 . S
C1406 H1420 0.961 . S
C1407 C1404 1.539 . S
C1407 H1421 0.958 . S
C1407 H1422 0.961 . S
C1407 H1423 0.960 . S
H1408 C1392 0.931 . S
H1409 C1397 0.929 . S
H1410 C1398 0.960 . S
H1411 C1398 0.962 . S
H1412 C1398 0.960 . S
H1413 C1399 0.961 . S
H1414 C1399 0.961 . S
H1415 C1399 0.961 . S
H1416 C1400 0.931 . S
H1417 C1405 0.930 . S
H1418 C1406 0.956 . S
H1419 C1406 0.961 . S
H1420 C1406 0.961 . S
H1421 C1407 0.958 . S
H1422 C1407 0.961 . S
H1423 C1407 0.960 . S
C1424 C1425 1.391 . S
C1424 C1426 1.394 . S
C1424 H1440 0.931 . S
C1425 C1424 1.391 . S
C1425 C1429 1.376 . S
C1426 C1424 1.394 . S
C1426 C1427 1.369 . S
C1426 C1430 1.531 . S
C1427 C1426 1.369 . S
C1427 C1428 1.410 . S
C1427 C1435 1.503 . S
C1428 C1427 1.410 . S
C1428 C1429 1.392 . S
C1428 C1431 1.511 . S
C1429 C1425 1.376 . S
C1429 C1428 1.392 . S
C1429 H1441 0.929 . S
C1430 C1426 1.531 . S
C1430 H1442 0.960 . S
C1430 H1443 0.962 . S
C1430 H1444 0.960 . S
C1431 C1428 1.511 . S
C1431 H1445 0.961 . S
C1431 H1446 0.961 . S
C1431 H1447 0.961 . S
C1432 C1433 1.370 . S
C1432 C1434 1.363 . S
C1432 H1448 0.931 . S
C1433 C1432 1.370 . S
C1433 C1437 1.408 . S
C1434 C1432 1.363 . S
C1434 C1435 1.370 . S
C1434 C1438 1.524 . S
C1435 C1427 1.503 . S
C1435 C1434 1.370 . S
C1435 C1436 1.403 . S
C1436 C1435 1.403 . S
C1436 C1437 1.404 . S
C1436 C1439 1.539 . S
C1437 C1433 1.408 . S
C1437 C1436 1.404 . S
C1437 H1449 0.930 . S
C1438 C1434 1.524 . S
C1438 H1450 0.956 . S
C1438 H1451 0.961 . S
C1438 H1452 0.961 . S
C1439 C1436 1.539 . S
C1439 H1453 0.958 . S
C1439 H1454 0.961 . S
C1439 H1455 0.960 . S
H1440 C1424 0.931 . S
H1441 C1429 0.929 . S
H1442 C1430 0.960 . S
H1443 C1430 0.962 . S
H1444 C1430 0.960 . S
H1445 C1431 0.961 . S
H1446 C1431 0.961 . S
H1447 C1431 0.961 . S
H1448 C1432 0.931 . S
H1449 C1437 0.930 . S
H1450 C1438 0.956 . S
H1451 C1438 0.961 . S
H1452 C1438 0.961 . S
H1453 C1439 0.958 . S
H1454 C1439 0.961 . S
H1455 C1439 0.960 . S
C1456 C1457 1.391 . S
C1456 C1458 1.394 . S
C1456 H1472 0.931 . S
C1457 C1456 1.391 . S
C1457 C1461 1.376 . S
C1458 C1456 1.394 . S
C1458 C1459 1.369 . S
C1458 C1462 1.531 . S
C1459 C1458 1.369 . S
C1459 C1460 1.410 . S
C1459 C1467 1.503 . S
C1460 C1459 1.410 . S
C1460 C1461 1.392 . S
C1460 C1463 1.511 . S
C1461 C1457 1.376 . S
C1461 C1460 1.392 . S
C1461 H1473 0.929 . S
C1462 C1458 1.531 . S
C1462 H1474 0.960 . S
C1462 H1475 0.962 . S
C1462 H1476 0.960 . S
C1463 C1460 1.511 . S
C1463 H1477 0.961 . S
C1463 H1478 0.961 . S
C1463 H1479 0.961 . S
C1464 C1465 1.370 . S
C1464 C1466 1.363 . S
C1464 H1480 0.931 . S
C1465 C1464 1.370 . S
C1465 C1469 1.408 . S
C1466 C1464 1.363 . S
C1466 C1467 1.370 . S
C1466 C1470 1.524 . S
C1467 C1459 1.503 . S
C1467 C1466 1.370 . S
C1467 C1468 1.403 . S
C1468 C1467 1.403 . S
C1468 C1469 1.404 . S
C1468 C1471 1.539 . S
C1469 C1465 1.408 . S
C1469 C1468 1.404 . S
C1469 H1481 0.930 . S
C1470 C1466 1.524 . S
C1470 H1482 0.956 . S
C1470 H1483 0.961 . S
C1470 H1484 0.961 . S
C1471 C1468 1.539 . S
C1471 H1485 0.958 . S
C1471 H1486 0.961 . S
C1471 H1487 0.960 . S
H1472 C1456 0.931 . S
H1473 C1461 0.929 . S
H1474 C1462 0.960 . S
H1475 C1462 0.962 . S
H1476 C1462 0.960 . S
H1477 C1463 0.961 . S
H1478 C1463 0.961 . S
H1479 C1463 0.961 . S
H1480 C1464 0.931 . S
H1481 C1469 0.930 . S
H1482 C1470 0.956 . S
H1483 C1470 0.961 . S
H1484 C1470 0.961 . S
H1485 C1471 0.958 . S
H1486 C1471 0.961 . S
H1487 C1471 0.960 . S
C1488 C1489 1.391 . S
C1488 C1490 1.394 . S
C1488 H1504 0.931 . S
C1489 C1488 1.391 . S
C1489 C1493 1.376 1_554 S
C1490 C1488 1.394 . S
C1490 C1491 1.369 . S
C1490 C1494 1.531 1_565 S
C1491 C1490 1.369 . S
C1491 C1492 1.410 1_554 S
C1491 C1499 1.503 1_565 S
C1492 C1491 1.410 1_556 S
C1492 C1493 1.392 . S
C1492 C1495 1.511 . S
C1493 C1489 1.376 1_556 S
C1493 C1492 1.392 . S
C1493 H1505 0.929 . S
C1494 C1490 1.531 1_545 S
C1494 H1506 0.960 . S
C1494 H1507 0.962 1_545 S
C1494 H1508 0.960 . S
C1495 C1492 1.511 . S
C1495 H1509 0.961 . S
C1495 H1510 0.961 . S
C1495 H1511 0.961 . S
C1496 C1497 1.370 1_565 S
C1496 C1498 1.363 . S
C1496 H1512 0.931 . S
C1497 C1496 1.370 1_545 S
C1497 C1501 1.408 . S
C1498 C1496 1.363 . S
C1498 C1499 1.370 1_565 S
C1498 C1502 1.524 . S
C1499 C1491 1.503 1_545 S
C1499 C1498 1.370 1_545 S
C1499 C1500 1.403 . S
C1500 C1499 1.403 . S
C1500 C1501 1.404 . S
C1500 C1503 1.539 . S
C1501 C1497 1.408 . S
C1501 C1500 1.404 . S
C1501 H1513 0.930 . S
C1502 C1498 1.524 . S
C1502 H1514 0.956 . S
C1502 H1515 0.961 . S
C1502 H1516 0.961 . S
C1503 C1500 1.539 . S
C1503 H1517 0.958 . S
C1503 H1518 0.961 . S
C1503 H1519 0.960 . S
H1504 C1488 0.931 . S
H1505 C1493 0.929 . S
H1506 C1494 0.960 . S
H1507 C1494 0.962 1_565 S
H1508 C1494 0.960 . S
H1509 C1495 0.961 . S
H1510 C1495 0.961 . S
H1511 C1495 0.961 . S
H1512 C1496 0.931 . S
H1513 C1501 0.930 . S
H1514 C1502 0.956 . S
H1515 C1502 0.961 . S
H1516 C1502 0.961 . S
H1517 C1503 0.958 . S
H1518 C1503 0.961 . S
H1519 C1503 0.960 . S
C1520 C1521 1.391 . S
C1520 C1522 1.394 . S
C1520 H1536 0.931 . S
C1521 C1520 1.391 . S
C1521 C1525 1.376 1_554 S
C1522 C1520 1.394 . S
C1522 C1523 1.369 . S
C1522 C1526 1.531 . S
C1523 C1522 1.369 . S
C1523 C1524 1.410 1_554 S
C1523 C1531 1.503 . S
C1524 C1523 1.410 1_556 S
C1524 C1525 1.392 . S
C1524 C1527 1.511 . S
C1525 C1521 1.376 1_556 S
C1525 C1524 1.392 . S
C1525 H1537 0.929 . S
C1526 C1522 1.531 . S
C1526 H1538 0.960 . S
C1526 H1539 0.962 . S
C1526 H1540 0.960 . S
C1527 C1524 1.511 . S
C1527 H1541 0.961 . S
C1527 H1542 0.961 . S
C1527 H1543 0.961 . S
C1528 C1529 1.370 1_556 S
C1528 C1530 1.363 . S
C1528 H1544 0.931 . S
C1529 C1528 1.370 1_554 S
C1529 C1533 1.408 . S
C1530 C1528 1.363 . S
C1530 C1531 1.370 1_556 S
C1530 C1534 1.524 . S
C1531 C1523 1.503 . S
C1531 C1530 1.370 1_554 S
C1531 C1532 1.403 . S
C1532 C1531 1.403 . S
C1532 C1533 1.404 . S
C1532 C1535 1.539 . S
C1533 C1529 1.408 . S
C1533 C1532 1.404 . S
C1533 H1545 0.930 . S
C1534 C1530 1.524 . S
C1534 H1546 0.956 . S
C1534 H1547 0.961 . S
C1534 H1548 0.961 . S
C1535 C1532 1.539 . S
C1535 H1549 0.958 . S
C1535 H1550 0.961 . S
C1535 H1551 0.960 . S
H1536 C1520 0.931 . S
H1537 C1525 0.929 . S
H1538 C1526 0.960 . S
H1539 C1526 0.962 . S
H1540 C1526 0.960 . S
H1541 C1527 0.961 . S
H1542 C1527 0.961 . S
H1543 C1527 0.961 . S
H1544 C1528 0.931 . S
H1545 C1533 0.930 . S
H1546 C1534 0.956 . S
H1547 C1534 0.961 . S
H1548 C1534 0.961 . S
H1549 C1535 0.958 . S
H1550 C1535 0.961 . S
H1551 C1535 0.960 . S
C1552 C1553 1.391 . S
C1552 C1554 1.394 . S
C1552 H1568 0.931 . S
C1553 C1552 1.391 . S
C1553 C1557 1.376 . S
C1554 C1552 1.394 . S
C1554 C1555 1.369 . S
C1554 C1558 1.531 . S
C1555 C1554 1.369 . S
C1555 C1556 1.410 . S
C1555 C1563 1.503 . S
C1556 C1555 1.410 . S
C1556 C1557 1.392 . S
C1556 C1559 1.511 . S
C1557 C1553 1.376 . S
C1557 C1556 1.392 . S
C1557 H1569 0.929 . S
C1558 C1554 1.531 . S
C1558 H1570 0.960 . S
C1558 H1571 0.962 . S
C1558 H1572 0.960 . S
C1559 C1556 1.511 . S
C1559 H1573 0.961 . S
C1559 H1574 0.961 . S
C1559 H1575 0.961 . S
C1560 C1561 1.370 . S
C1560 C1562 1.363 . S
C1560 H1576 0.931 . S
C1561 C1560 1.370 . S
C1561 C1565 1.408 . S
C1562 C1560 1.363 . S
C1562 C1563 1.370 . S
C1562 C1566 1.524 . S
C1563 C1555 1.503 . S
C1563 C1562 1.370 . S
C1563 C1564 1.403 . S
C1564 C1563 1.403 . S
C1564 C1565 1.404 . S
C1564 C1567 1.539 . S
C1565 C1561 1.408 . S
C1565 C1564 1.404 . S
C1565 H1577 0.930 . S
C1566 C1562 1.524 . S
C1566 H1578 0.956 . S
C1566 H1579 0.961 . S
C1566 H1580 0.961 . S
C1567 C1564 1.539 . S
C1567 H1581 0.958 . S
C1567 H1582 0.961 . S
C1567 H1583 0.960 . S
H1568 C1552 0.931 . S
H1569 C1557 0.929 . S
H1570 C1558 0.960 . S
H1571 C1558 0.962 . S
H1572 C1558 0.960 . S
H1573 C1559 0.961 . S
H1574 C1559 0.961 . S
H1575 C1559 0.961 . S
H1576 C1560 0.931 . S
H1577 C1565 0.930 . S
H1578 C1566 0.956 . S
H1579 C1566 0.961 . S
H1580 C1566 0.961 . S
H1581 C1567 0.958 . S
H1582 C1567 0.961 . S
H1583 C1567 0.960 . S
C1584 C1585 1.391 . S
C1584 C1586 1.394 . S
C1584 H1600 0.931 . S
C1585 C1584 1.391 . S
C1585 C1589 1.376 . S
C1586 C1584 1.394 . S
C1586 C1587 1.369 . S
C1586 C1590 1.531 . S
C1587 C1586 1.369 . S
C1587 C1588 1.410 . S
C1587 C1595 1.503 . S
C1588 C1587 1.410 . S
C1588 C1589 1.392 . S
C1588 C1591 1.511 . S
C1589 C1585 1.376 . S
C1589 C1588 1.392 . S
C1589 H1601 0.929 . S
C1590 C1586 1.531 . S
C1590 H1602 0.960 . S
C1590 H1603 0.962 . S
C1590 H1604 0.960 . S
C1591 C1588 1.511 . S
C1591 H1605 0.961 . S
C1591 H1606 0.961 . S
C1591 H1607 0.961 . S
C1592 C1593 1.370 . S
C1592 C1594 1.363 . S
C1592 H1608 0.931 . S
C1593 C1592 1.370 . S
C1593 C1597 1.408 . S
C1594 C1592 1.363 . S
C1594 C1595 1.370 . S
C1594 C1598 1.524 . S
C1595 C1587 1.503 . S
C1595 C1594 1.370 . S
C1595 C1596 1.403 . S
C1596 C1595 1.403 . S
C1596 C1597 1.404 . S
C1596 C1599 1.539 . S
C1597 C1593 1.408 . S
C1597 C1596 1.404 . S
C1597 H1609 0.930 . S
C1598 C1594 1.524 . S
C1598 H1610 0.956 . S
C1598 H1611 0.961 . S
C1598 H1612 0.961 . S
C1599 C1596 1.539 . S
C1599 H1613 0.958 . S
C1599 H1614 0.961 . S
C1599 H1615 0.960 . S
H1600 C1584 0.931 . S
H1601 C1589 0.929 . S
H1602 C1590 0.960 . S
H1603 C1590 0.962 . S
H1604 C1590 0.960 . S
H1605 C1591 0.961 . S
H1606 C1591 0.961 . S
H1607 C1591 0.961 . S
H1608 C1592 0.931 . S
H1609 C1597 0.930 . S
H1610 C1598 0.956 . S
H1611 C1598 0.961 . S
H1612 C1598 0.961 . S
H1613 C1599 0.958 . S
H1614 C1599 0.961 . S
H1615 C1599 0.960 . S
C1616 C1617 1.391 . S
C1616 C1618 1.394 . S
C1616 H1632 0.931 . S
C1617 C1616 1.391 . S
C1617 C1621 1.376 . S
C1618 C1616 1.394 . S
C1618 C1619 1.369 . S
C1618 C1622 1.531 . S
C1619 C1618 1.369 . S
C1619 C1620 1.410 . S
C1619 C1627 1.503 . S
C1620 C1619 1.410 . S
C1620 C1621 1.392 . S
C1620 C1623 1.511 . S
C1621 C1617 1.376 . S
C1621 C1620 1.392 . S
C1621 H1633 0.929 . S
C1622 C1618 1.531 . S
C1622 H1634 0.960 . S
C1622 H1635 0.962 . S
C1622 H1636 0.960 . S
C1623 C1620 1.511 . S
C1623 H1637 0.961 . S
C1623 H1638 0.961 . S
C1623 H1639 0.961 . S
C1624 C1625 1.370 . S
C1624 C1626 1.363 . S
C1624 H1640 0.931 . S
C1625 C1624 1.370 . S
C1625 C1629 1.408 . S
C1626 C1624 1.363 . S
C1626 C1627 1.370 . S
C1626 C1630 1.524 . S
C1627 C1619 1.503 . S
C1627 C1626 1.370 . S
C1627 C1628 1.403 . S
C1628 C1627 1.403 . S
C1628 C1629 1.404 . S
C1628 C1631 1.539 . S
C1629 C1625 1.408 . S
C1629 C1628 1.404 . S
C1629 H1641 0.930 . S
C1630 C1626 1.524 . S
C1630 H1642 0.956 . S
C1630 H1643 0.961 . S
C1630 H1644 0.961 . S
C1631 C1628 1.539 . S
C1631 H1645 0.958 . S
C1631 H1646 0.961 . S
C1631 H1647 0.960 . S
H1632 C1616 0.931 . S
H1633 C1621 0.929 . S
H1634 C1622 0.960 . S
H1635 C1622 0.962 . S
H1636 C1622 0.960 . S
H1637 C1623 0.961 . S
H1638 C1623 0.961 . S
H1639 C1623 0.961 . S
H1640 C1624 0.931 . S
H1641 C1629 0.930 . S
H1642 C1630 0.956 . S
H1643 C1630 0.961 . S
H1644 C1630 0.961 . S
H1645 C1631 0.958 . S
H1646 C1631 0.961 . S
H1647 C1631 0.960 . S
C1648 C1649 1.391 . S
C1648 C1650 1.394 . S
C1648 H1664 0.931 . S
C1649 C1648 1.391 . S
C1649 C1653 1.376 . S
C1650 C1648 1.394 . S
C1650 C1651 1.369 . S
C1650 C1654 1.531 . S
C1651 C1650 1.369 . S
C1651 C1652 1.410 . S
C1651 C1659 1.503 . S
C1652 C1651 1.410 . S
C1652 C1653 1.392 . S
C1652 C1655 1.511 . S
C1653 C1649 1.376 . S
C1653 C1652 1.392 . S
C1653 H1665 0.929 . S
C1654 C1650 1.531 . S
C1654 H1666 0.960 . S
C1654 H1667 0.962 . S
C1654 H1668 0.960 . S
C1655 C1652 1.511 . S
C1655 H1669 0.961 . S
C1655 H1670 0.961 . S
C1655 H1671 0.961 . S
C1656 C1657 1.370 . S
C1656 C1658 1.363 . S
C1656 H1672 0.931 . S
C1657 C1656 1.370 . S
C1657 C1661 1.408 . S
C1658 C1656 1.363 . S
C1658 C1659 1.370 . S
C1658 C1662 1.524 . S
C1659 C1651 1.503 . S
C1659 C1658 1.370 . S
C1659 C1660 1.403 . S
C1660 C1659 1.403 . S
C1660 C1661 1.404 . S
C1660 C1663 1.539 . S
C1661 C1657 1.408 . S
C1661 C1660 1.404 . S
C1661 H1673 0.930 . S
C1662 C1658 1.524 . S
C1662 H1674 0.956 . S
C1662 H1675 0.961 . S
C1662 H1676 0.961 . S
C1663 C1660 1.539 . S
C1663 H1677 0.958 . S
C1663 H1678 0.961 . S
C1663 H1679 0.960 . S
H1664 C1648 0.931 . S
H1665 C1653 0.929 . S
H1666 C1654 0.960 . S
H1667 C1654 0.962 . S
H1668 C1654 0.960 . S
H1669 C1655 0.961 . S
H1670 C1655 0.961 . S
H1671 C1655 0.961 . S
H1672 C1656 0.931 . S
H1673 C1661 0.930 . S
H1674 C1662 0.956 . S
H1675 C1662 0.961 . S
H1676 C1662 0.961 . S
H1677 C1663 0.958 . S
H1678 C1663 0.961 . S
H1679 C1663 0.960 . S
C1680 C1681 1.391 . S
C1680 C1682 1.394 . S
C1680 H1696 0.931 . S
C1681 C1680 1.391 . S
C1681 C1685 1.376 . S
C1682 C1680 1.394 . S
C1682 C1683 1.369 . S
C1682 C1686 1.531 . S
C1683 C1682 1.369 . S
C1683 C1684 1.410 . S
C1683 C1691 1.503 . S
C1684 C1683 1.410 . S
C1684 C1685 1.392 . S
C1684 C1687 1.511 . S
C1685 C1681 1.376 . S
C1685 C1684 1.392 . S
C1685 H1697 0.929 . S
C1686 C1682 1.531 . S
C1686 H1698 0.960 . S
C1686 H1699 0.962 . S
C1686 H1700 0.960 . S
C1687 C1684 1.511 . S
C1687 H1701 0.961 . S
C1687 H1702 0.961 . S
C1687 H1703 0.961 . S
C1688 C1689 1.370 . S
C1688 C1690 1.363 . S
C1688 H1704 0.931 . S
C1689 C1688 1.370 . S
C1689 C1693 1.408 . S
C1690 C1688 1.363 . S
C1690 C1691 1.370 . S
C1690 C1694 1.524 . S
C1691 C1683 1.503 . S
C1691 C1690 1.370 . S
C1691 C1692 1.403 . S
C1692 C1691 1.403 . S
C1692 C1693 1.404 . S
C1692 C1695 1.539 . S
C1693 C1689 1.408 . S
C1693 C1692 1.404 . S
C1693 H1705 0.930 . S
C1694 C1690 1.524 . S
C1694 H1706 0.956 . S
C1694 H1707 0.961 . S
C1694 H1708 0.961 . S
C1695 C1692 1.539 . S
C1695 H1709 0.958 . S
C1695 H1710 0.961 . S
C1695 H1711 0.960 . S
H1696 C1680 0.931 . S
H1697 C1685 0.929 . S
H1698 C1686 0.960 . S
H1699 C1686 0.962 . S
H1700 C1686 0.960 . S
H1701 C1687 0.961 . S
H1702 C1687 0.961 . S
H1703 C1687 0.961 . S
H1704 C1688 0.931 . S
H1705 C1693 0.930 . S
H1706 C1694 0.956 . S
H1707 C1694 0.961 . S
H1708 C1694 0.961 . S
H1709 C1695 0.958 . S
H1710 C1695 0.961 . S
H1711 C1695 0.960 . S
C1712 C1713 1.391 . S
C1712 C1714 1.394 . S
C1712 H1728 0.931 . S
C1713 C1712 1.391 . S
C1713 C1717 1.376 . S
C1714 C1712 1.394 . S
C1714 C1715 1.369 . S
C1714 C1718 1.531 . S
C1715 C1714 1.369 . S
C1715 C1716 1.410 . S
C1715 C1723 1.503 . S
C1716 C1715 1.410 . S
C1716 C1717 1.392 . S
C1716 C1719 1.511 . S
C1717 C1713 1.376 . S
C1717 C1716 1.392 . S
C1717 H1729 0.929 . S
C1718 C1714 1.531 . S
C1718 H1730 0.960 . S
C1718 H1731 0.962 . S
C1718 H1732 0.960 . S
C1719 C1716 1.511 . S
C1719 H1733 0.961 . S
C1719 H1734 0.961 . S
C1719 H1735 0.961 . S
C1720 C1721 1.370 . S
C1720 C1722 1.363 . S
C1720 H1736 0.931 . S
C1721 C1720 1.370 . S
C1721 C1725 1.408 . S
C1722 C1720 1.363 . S
C1722 C1723 1.370 . S
C1722 C1726 1.524 . S
C1723 C1715 1.503 . S
C1723 C1722 1.370 . S
C1723 C1724 1.403 . S
C1724 C1723 1.403 . S
C1724 C1725 1.404 . S
C1724 C1727 1.539 . S
C1725 C1721 1.408 . S
C1725 C1724 1.404 . S
C1725 H1737 0.930 . S
C1726 C1722 1.524 . S
C1726 H1738 0.956 . S
C1726 H1739 0.961 . S
C1726 H1740 0.961 . S
C1727 C1724 1.539 . S
C1727 H1741 0.958 . S
C1727 H1742 0.961 . S
C1727 H1743 0.960 . S
H1728 C1712 0.931 . S
H1729 C1717 0.929 . S
H1730 C1718 0.960 . S
H1731 C1718 0.962 . S
H1732 C1718 0.960 . S
H1733 C1719 0.961 . S
H1734 C1719 0.961 . S
H1735 C1719 0.961 . S
H1736 C1720 0.931 . S
H1737 C1725 0.930 . S
H1738 C1726 0.956 . S
H1739 C1726 0.961 . S
H1740 C1726 0.961 . S
H1741 C1727 0.958 . S
H1742 C1727 0.961 . S
H1743 C1727 0.960 . S
C1744 C1745 1.391 . S
C1744 C1746 1.394 . S
C1744 H1760 0.931 . S
C1745 C1744 1.391 . S
C1745 C1749 1.376 . S
C1746 C1744 1.394 . S
C1746 C1747 1.369 . S
C1746 C1750 1.531 . S
C1747 C1746 1.369 . S
C1747 C1748 1.410 . S
C1747 C1755 1.503 . S
C1748 C1747 1.410 . S
C1748 C1749 1.392 . S
C1748 C1751 1.511 . S
C1749 C1745 1.376 . S
C1749 C1748 1.392 . S
C1749 H1761 0.929 . S
C1750 C1746 1.531 . S
C1750 H1762 0.960 . S
C1750 H1763 0.962 . S
C1750 H1764 0.960 . S
C1751 C1748 1.511 . S
C1751 H1765 0.961 . S
C1751 H1766 0.961 . S
C1751 H1767 0.961 . S
C1752 C1753 1.370 . S
C1752 C1754 1.363 . S
C1752 H1768 0.931 . S
C1753 C1752 1.370 . S
C1753 C1757 1.408 . S
C1754 C1752 1.363 . S
C1754 C1755 1.370 . S
C1754 C1758 1.524 . S
C1755 C1747 1.503 . S
C1755 C1754 1.370 . S
C1755 C1756 1.403 . S
C1756 C1755 1.403 . S
C1756 C1757 1.404 . S
C1756 C1759 1.539 . S
C1757 C1753 1.408 . S
C1757 C1756 1.404 . S
C1757 H1769 0.930 . S
C1758 C1754 1.524 . S
C1758 H1770 0.956 . S
C1758 H1771 0.961 . S
C1758 H1772 0.961 . S
C1759 C1756 1.539 . S
C1759 H1773 0.958 . S
C1759 H1774 0.961 . S
C1759 H1775 0.960 . S
H1760 C1744 0.931 . S
H1761 C1749 0.929 . S
H1762 C1750 0.960 . S
H1763 C1750 0.962 . S
H1764 C1750 0.960 . S
H1765 C1751 0.961 . S
H1766 C1751 0.961 . S
H1767 C1751 0.961 . S
H1768 C1752 0.931 . S
H1769 C1757 0.930 . S
H1770 C1758 0.956 . S
H1771 C1758 0.961 . S
H1772 C1758 0.961 . S
H1773 C1759 0.958 . S
H1774 C1759 0.961 . S
H1775 C1759 0.960 . S
C1776 C1777 1.391 . S
C1776 C1778 1.394 . S
C1776 H1792 0.931 . S
C1777 C1776 1.391 . S
C1777 C1781 1.376 . S
C1778 C1776 1.394 . S
C1778 C1779 1.369 . S
C1778 C1782 1.531 . S
C1779 C1778 1.369 . S
C1779 C1780 1.410 . S
C1779 C1787 1.503 . S
C1780 C1779 1.410 . S
C1780 C1781 1.392 . S
C1780 C1783 1.511 . S
C1781 C1777 1.376 . S
C1781 C1780 1.392 . S
C1781 H1793 0.929 . S
C1782 C1778 1.531 . S
C1782 H1794 0.960 . S
C1782 H1795 0.962 . S
C1782 H1796 0.960 . S
C1783 C1780 1.511 . S
C1783 H1797 0.961 . S
C1783 H1798 0.961 . S
C1783 H1799 0.961 . S
C1784 C1785 1.370 . S
C1784 C1786 1.363 . S
C1784 H1800 0.931 . S
C1785 C1784 1.370 . S
C1785 C1789 1.408 . S
C1786 C1784 1.363 . S
C1786 C1787 1.370 . S
C1786 C1790 1.524 . S
C1787 C1779 1.503 . S
C1787 C1786 1.370 . S
C1787 C1788 1.403 . S
C1788 C1787 1.403 . S
C1788 C1789 1.404 . S
C1788 C1791 1.539 . S
C1789 C1785 1.408 . S
C1789 C1788 1.404 . S
C1789 H1801 0.930 . S
C1790 C1786 1.524 . S
C1790 H1802 0.956 . S
C1790 H1803 0.961 . S
C1790 H1804 0.961 . S
C1791 C1788 1.539 . S
C1791 H1805 0.958 . S
C1791 H1806 0.961 . S
C1791 H1807 0.960 . S
H1792 C1776 0.931 . S
H1793 C1781 0.929 . S
H1794 C1782 0.960 . S
H1795 C1782 0.962 . S
H1796 C1782 0.960 . S
H1797 C1783 0.961 . S
H1798 C1783 0.961 . S
H1799 C1783 0.961 . S
H1800 C1784 0.931 . S
H1801 C1789 0.930 . S
H1802 C1790 0.956 . S
H1803 C1790 0.961 . S
H1804 C1790 0.961 . S
H1805 C1791 0.958 . S
H1806 C1791 0.961 . S
H1807 C1791 0.960 . S
C1808 C1809 1.391 . S
C1808 C1810 1.394 . S
C1808 H1824 0.931 . S
C1809 C1808 1.391 . S
C1809 C1813 1.376 . S
C1810 C1808 1.394 . S
C1810 C1811 1.369 . S
C1810 C1814 1.531 . S
C1811 C1810 1.369 . S
C1811 C1812 1.410 . S
C1811 C1819 1.503 . S
C1812 C1811 1.410 . S
C1812 C1813 1.392 . S
C1812 C1815 1.511 . S
C1813 C1809 1.376 . S
C1813 C1812 1.392 . S
C1813 H1825 0.929 . S
C1814 C1810 1.531 . S
C1814 H1826 0.960 . S
C1814 H1827 0.962 . S
C1814 H1828 0.960 . S
C1815 C1812 1.511 . S
C1815 H1829 0.961 . S
C1815 H1830 0.961 . S
C1815 H1831 0.961 . S
C1816 C1817 1.370 . S
C1816 C1818 1.363 . S
C1816 H1832 0.931 . S
C1817 C1816 1.370 . S
C1817 C1821 1.408 . S
C1818 C1816 1.363 . S
C1818 C1819 1.370 . S
C1818 C1822 1.524 . S
C1819 C1811 1.503 . S
C1819 C1818 1.370 . S
C1819 C1820 1.403 . S
C1820 C1819 1.403 . S
C1820 C1821 1.404 . S
C1820 C1823 1.539 . S
C1821 C1817 1.408 . S
C1821 C1820 1.404 . S
C1821 H1833 0.930 . S
C1822 C1818 1.524 . S
C1822 H1834 0.956 . S
C1822 H1835 0.961 . S
C1822 H1836 0.961 . S
C1823 C1820 1.539 . S
C1823 H1837 0.958 . S
C1823 H1838 0.961 . S
C1823 H1839 0.960 . S
H1824 C1808 0.931 . S
H1825 C1813 0.929 . S
H1826 C1814 0.960 . S
H1827 C1814 0.962 . S
H1828 C1814 0.960 . S
H1829 C1815 0.961 . S
H1830 C1815 0.961 . S
H1831 C1815 0.961 . S
H1832 C1816 0.931 . S
H1833 C1821 0.930 . S
H1834 C1822 0.956 . S
H1835 C1822 0.961 . S
H1836 C1822 0.961 . S
H1837 C1823 0.958 . S
H1838 C1823 0.961 . S
H1839 C1823 0.960 . S
C1840 C1841 1.391 . S
C1840 C1842 1.394 . S
C1840 H1856 0.931 . S
C1841 C1840 1.391 . S
C1841 C1845 1.376 . S
C1842 C1840 1.394 . S
C1842 C1843 1.369 . S
C1842 C1846 1.531 . S
C1843 C1842 1.369 . S
C1843 C1844 1.410 . S
C1843 C1851 1.503 . S
C1844 C1843 1.410 . S
C1844 C1845 1.392 . S
C1844 C1847 1.511 . S
C1845 C1841 1.376 . S
C1845 C1844 1.392 . S
C1845 H1857 0.929 . S
C1846 C1842 1.531 . S
C1846 H1858 0.960 . S
C1846 H1859 0.962 . S
C1846 H1860 0.960 . S
C1847 C1844 1.511 . S
C1847 H1861 0.961 . S
C1847 H1862 0.961 . S
C1847 H1863 0.961 . S
C1848 C1849 1.370 . S
C1848 C1850 1.363 . S
C1848 H1864 0.931 . S
C1849 C1848 1.370 . S
C1849 C1853 1.408 . S
C1850 C1848 1.363 . S
C1850 C1851 1.370 . S
C1850 C1854 1.524 . S
C1851 C1843 1.503 . S
C1851 C1850 1.370 . S
C1851 C1852 1.403 . S
C1852 C1851 1.403 . S
C1852 C1853 1.404 . S
C1852 C1855 1.539 . S
C1853 C1849 1.408 . S
C1853 C1852 1.404 . S
C1853 H1865 0.930 . S
C1854 C1850 1.524 . S
C1854 H1866 0.956 . S
C1854 H1867 0.961 . S
C1854 H1868 0.961 . S
C1855 C1852 1.539 . S
C1855 H1869 0.958 . S
C1855 H1870 0.961 . S
C1855 H1871 0.960 . S
H1856 C1840 0.931 . S
H1857 C1845 0.929 . S
H1858 C1846 0.960 . S
H1859 C1846 0.962 . S
H1860 C1846 0.960 . S
H1861 C1847 0.961 . S
H1862 C1847 0.961 . S
H1863 C1847 0.961 . S
H1864 C1848 0.931 . S
H1865 C1853 0.930 . S
H1866 C1854 0.956 . S
H1867 C1854 0.961 . S
H1868 C1854 0.961 . S
H1869 C1855 0.958 . S
H1870 C1855 0.961 . S
H1871 C1855 0.960 . S
C1872 C1873 1.391 . S
C1872 C1874 1.394 . S
C1872 H1888 0.931 . S
C1873 C1872 1.391 . S
C1873 C1877 1.376 . S
C1874 C1872 1.394 . S
C1874 C1875 1.369 . S
C1874 C1878 1.531 . S
C1875 C1874 1.369 . S
C1875 C1876 1.410 . S
C1875 C1883 1.503 . S
C1876 C1875 1.410 . S
C1876 C1877 1.392 . S
C1876 C1879 1.511 . S
C1877 C1873 1.376 . S
C1877 C1876 1.392 . S
C1877 H1889 0.929 . S
C1878 C1874 1.531 . S
C1878 H1890 0.960 . S
C1878 H1891 0.962 . S
C1878 H1892 0.960 . S
C1879 C1876 1.511 . S
C1879 H1893 0.961 . S
C1879 H1894 0.961 . S
C1879 H1895 0.961 . S
C1880 C1881 1.370 . S
C1880 C1882 1.363 . S
C1880 H1896 0.931 . S
C1881 C1880 1.370 . S
C1881 C1885 1.408 . S
C1882 C1880 1.363 . S
C1882 C1883 1.370 . S
C1882 C1886 1.524 . S
C1883 C1875 1.503 . S
C1883 C1882 1.370 . S
C1883 C1884 1.403 . S
C1884 C1883 1.403 . S
C1884 C1885 1.404 . S
C1884 C1887 1.539 . S
C1885 C1881 1.408 . S
C1885 C1884 1.404 . S
C1885 H1897 0.930 . S
C1886 C1882 1.524 . S
C1886 H1898 0.956 . S
C1886 H1899 0.961 . S
C1886 H1900 0.961 . S
C1887 C1884 1.539 . S
C1887 H1901 0.958 . S
C1887 H1902 0.961 . S
C1887 H1903 0.960 . S
H1888 C1872 0.931 . S
H1889 C1877 0.929 . S
H1890 C1878 0.960 . S
H1891 C1878 0.962 . S
H1892 C1878 0.960 . S
H1893 C1879 0.961 . S
H1894 C1879 0.961 . S
H1895 C1879 0.961 . S
H1896 C1880 0.931 . S
H1897 C1885 0.930 . S
H1898 C1886 0.956 . S
H1899 C1886 0.961 . S
H1900 C1886 0.961 . S
H1901 C1887 0.958 . S
H1902 C1887 0.961 . S
H1903 C1887 0.960 . S
C1904 C1905 1.391 . S
C1904 C1906 1.394 . S
C1904 H1920 0.931 . S
C1905 C1904 1.391 . S
C1905 C1909 1.376 . S
C1906 C1904 1.394 . S
C1906 C1907 1.369 . S
C1906 C1910 1.531 . S
C1907 C1906 1.369 . S
C1907 C1908 1.410 . S
C1907 C1915 1.503 . S
C1908 C1907 1.410 . S
C1908 C1909 1.392 . S
C1908 C1911 1.511 . S
C1909 C1905 1.376 . S
C1909 C1908 1.392 . S
C1909 H1921 0.929 . S
C1910 C1906 1.531 . S
C1910 H1922 0.960 . S
C1910 H1923 0.962 . S
C1910 H1924 0.960 . S
C1911 C1908 1.511 . S
C1911 H1925 0.961 . S
C1911 H1926 0.961 . S
C1911 H1927 0.961 . S
C1912 C1913 1.370 . S
C1912 C1914 1.363 . S
C1912 H1928 0.931 . S
C1913 C1912 1.370 . S
C1913 C1917 1.408 . S
C1914 C1912 1.363 . S
C1914 C1915 1.370 . S
C1914 C1918 1.524 . S
C1915 C1907 1.503 . S
C1915 C1914 1.370 . S
C1915 C1916 1.403 . S
C1916 C1915 1.403 . S
C1916 C1917 1.404 . S
C1916 C1919 1.539 . S
C1917 C1913 1.408 . S
C1917 C1916 1.404 . S
C1917 H1929 0.930 . S
C1918 C1914 1.524 . S
C1918 H1930 0.956 . S
C1918 H1931 0.961 . S
C1918 H1932 0.961 . S
C1919 C1916 1.539 . S
C1919 H1933 0.958 . S
C1919 H1934 0.961 . S
C1919 H1935 0.960 . S
H1920 C1904 0.931 . S
H1921 C1909 0.929 . S
H1922 C1910 0.960 . S
H1923 C1910 0.962 . S
H1924 C1910 0.960 . S
H1925 C1911 0.961 . S
H1926 C1911 0.961 . S
H1927 C1911 0.961 . S
H1928 C1912 0.931 . S
H1929 C1917 0.930 . S
H1930 C1918 0.956 . S
H1931 C1918 0.961 . S
H1932 C1918 0.961 . S
H1933 C1919 0.958 . S
H1934 C1919 0.961 . S
H1935 C1919 0.960 . S
C1936 C1937 1.391 . S
C1936 C1938 1.394 . S
C1936 H1952 0.931 . S
C1937 C1936 1.391 . S
C1937 C1941 1.376 . S
C1938 C1936 1.394 . S
C1938 C1939 1.369 . S
C1938 C1942 1.531 . S
C1939 C1938 1.369 . S
C1939 C1940 1.410 . S
C1939 C1947 1.503 . S
C1940 C1939 1.410 . S
C1940 C1941 1.392 . S
C1940 C1943 1.511 . S
C1941 C1937 1.376 . S
C1941 C1940 1.392 . S
C1941 H1953 0.929 . S
C1942 C1938 1.531 . S
C1942 H1954 0.960 . S
C1942 H1955 0.962 . S
C1942 H1956 0.960 . S
C1943 C1940 1.511 . S
C1943 H1957 0.961 . S
C1943 H1958 0.961 . S
C1943 H1959 0.961 . S
C1944 C1945 1.370 . S
C1944 C1946 1.363 . S
C1944 H1960 0.931 1_556 S
C1945 C1944 1.370 . S
C1945 C1949 1.408 . S
C1946 C1944 1.363 . S
C1946 C1947 1.370 . S
C1946 C1950 1.524 . S
C1947 C1939 1.503 . S
C1947 C1946 1.370 . S
C1947 C1948 1.403 . S
C1948 C1947 1.403 . S
C1948 C1949 1.404 . S
C1948 C1951 1.539 . S
C1949 C1945 1.408 . S
C1949 C1948 1.404 . S
C1949 H1961 0.930 . S
C1950 C1946 1.524 . S
C1950 H1962 0.956 . S
C1950 H1963 0.961 . S
C1950 H1964 0.961 1_556 S
C1951 C1948 1.539 . S
C1951 H1965 0.958 . S
C1951 H1966 0.961 . S
C1951 H1967 0.960 . S
H1952 C1936 0.931 . S
H1953 C1941 0.929 . S
H1954 C1942 0.960 . S
H1955 C1942 0.962 . S
H1956 C1942 0.960 . S
H1957 C1943 0.961 . S
H1958 C1943 0.961 . S
H1959 C1943 0.961 . S
H1960 C1944 0.931 1_554 S
H1961 C1949 0.930 . S
H1962 C1950 0.956 . S
H1963 C1950 0.961 . S
H1964 C1950 0.961 1_554 S
H1965 C1951 0.958 . S
H1966 C1951 0.961 . S
H1967 C1951 0.960 . S
C1968 C1969 1.391 . S
C1968 C1970 1.394 . S
C1968 H1984 0.931 . S
C1969 C1968 1.391 . S
C1969 C1973 1.376 . S
C1970 C1968 1.394 . S
C1970 C1971 1.369 . S
C1970 C1974 1.531 . S
C1971 C1970 1.369 . S
C1971 C1972 1.410 . S
C1971 C1979 1.503 . S
C1972 C1971 1.410 . S
C1972 C1973 1.392 . S
C1972 C1975 1.511 . S
C1973 C1969 1.376 . S
C1973 C1972 1.392 . S
C1973 H1985 0.929 . S
C1974 C1970 1.531 . S
C1974 H1986 0.960 . S
C1974 H1987 0.962 . S
C1974 H1988 0.960 . S
C1975 C1972 1.511 . S
C1975 H1989 0.961 . S
C1975 H1990 0.961 . S
C1975 H1991 0.961 . S
C1976 C1977 1.370 . S
C1976 C1978 1.363 . S
C1976 H1992 0.931 . S
C1977 C1976 1.370 . S
C1977 C1981 1.408 . S
C1978 C1976 1.363 . S
C1978 C1979 1.370 . S
C1978 C1982 1.524 . S
C1979 C1971 1.503 . S
C1979 C1978 1.370 . S
C1979 C1980 1.403 . S
C1980 C1979 1.403 . S
C1980 C1981 1.404 . S
C1980 C1983 1.539 . S
C1981 C1977 1.408 . S
C1981 C1980 1.404 . S
C1981 H1993 0.930 . S
C1982 C1978 1.524 . S
C1982 H1994 0.956 . S
C1982 H1995 0.961 . S
C1982 H1996 0.961 . S
C1983 C1980 1.539 . S
C1983 H1997 0.958 . S
C1983 H1998 0.961 . S
C1983 H1999 0.960 . S
H1984 C1968 0.931 . S
H1985 C1973 0.929 . S
H1986 C1974 0.960 . S
H1987 C1974 0.962 . S
H1988 C1974 0.960 . S
H1989 C1975 0.961 . S
H1990 C1975 0.961 . S
H1991 C1975 0.961 . S
H1992 C1976 0.931 . S
H1993 C1981 0.930 . S
H1994 C1982 0.956 . S
H1995 C1982 0.961 . S
H1996 C1982 0.961 . S
H1997 C1983 0.958 . S
H1998 C1983 0.961 . S
H1999 C1983 0.960 . S
C2000 C2001 1.391 . S
C2000 C2002 1.394 . S
C2000 H2016 0.931 . S
C2001 C2000 1.391 . S
C2001 C2005 1.376 . S
C2002 C2000 1.394 . S
C2002 C2003 1.369 . S
C2002 C2006 1.531 . S
C2003 C2002 1.369 . S
C2003 C2004 1.410 . S
C2003 C2011 1.503 . S
C2004 C2003 1.410 . S
C2004 C2005 1.392 . S
C2004 C2007 1.511 . S
C2005 C2001 1.376 . S
C2005 C2004 1.392 . S
C2005 H2017 0.929 . S
C2006 C2002 1.531 . S
C2006 H2018 0.960 1_545 S
C2006 H2019 0.962 . S
C2006 H2020 0.960 1_545 S
C2007 C2004 1.511 . S
C2007 H2021 0.961 . S
C2007 H2022 0.961 . S
C2007 H2023 0.961 . S
C2008 C2009 1.370 . S
C2008 C2010 1.363 . S
C2008 H2024 0.931 . S
C2009 C2008 1.370 . S
C2009 C2013 1.419 . S
C2010 C2008 1.363 . S
C2010 C2011 1.370 . S
C2010 C2014 1.524 . S
C2011 C2003 1.503 . S
C2011 C2010 1.370 . S
C2011 C2012 1.403 1_545 S
C2012 C2011 1.403 1_565 S
C2012 C2013 1.403 1_565 S
C2012 C2015 1.539 . S
C2013 C2009 1.419 . S
C2013 C2012 1.403 1_545 S
C2013 H2025 0.920 1_545 S
C2014 C2010 1.524 . S
C2014 H2026 0.956 . S
C2014 H2027 0.961 . S
C2014 H2028 0.961 . S
C2015 C2012 1.539 . S
C2015 H2029 0.958 . S
C2015 H2030 0.961 . S
C2015 H2031 0.960 . S
H2016 C2000 0.931 . S
H2017 C2005 0.929 . S
H2018 C2006 0.960 1_565 S
H2019 C2006 0.962 . S
H2020 C2006 0.960 1_565 S
H2021 C2007 0.961 . S
H2022 C2007 0.961 . S
H2023 C2007 0.961 . S
H2024 C2008 0.931 . S
H2025 C2013 0.920 1_565 S
H2026 C2014 0.956 . S
H2027 C2014 0.961 . S
H2028 C2014 0.961 . S
H2029 C2015 0.958 . S
H2030 C2015 0.961 . S
H2031 C2015 0.960 . S
C2032 C2033 1.391 . S
C2032 C2034 1.394 . S
C2032 H2048 0.931 . S
C2033 C2032 1.391 . S
C2033 C2037 1.376 . S
C2034 C2032 1.394 . S
C2034 C2035 1.369 . S
C2034 C2038 1.531 . S
C2035 C2034 1.369 . S
C2035 C2036 1.410 . S
C2035 C2043 1.503 . S
C2036 C2035 1.410 . S
C2036 C2037 1.392 . S
C2036 C2039 1.511 . S
C2037 C2033 1.376 . S
C2037 C2036 1.392 . S
C2037 H2049 0.929 . S
C2038 C2034 1.531 . S
C2038 H2050 0.960 . S
C2038 H2051 0.962 . S
C2038 H2052 0.960 . S
C2039 C2036 1.511 . S
C2039 H2053 0.961 . S
C2039 H2054 0.961 . S
C2039 H2055 0.961 . S
C2040 C2041 1.370 . S
C2040 C2042 1.363 . S
C2040 H2056 0.931 . S
C2041 C2040 1.370 . S
C2041 C2045 1.408 . S
C2042 C2040 1.363 . S
C2042 C2043 1.370 . S
C2042 C2046 1.524 . S
C2043 C2035 1.503 . S
C2043 C2042 1.370 . S
C2043 C2044 1.403 . S
C2044 C2043 1.403 . S
C2044 C2045 1.404 . S
C2044 C2047 1.539 . S
C2045 C2041 1.408 . S
C2045 C2044 1.404 . S
C2045 H2057 0.930 . S
C2046 C2042 1.524 . S
C2046 H2058 0.956 . S
C2046 H2059 0.961 . S
C2046 H2060 0.961 . S
C2047 C2044 1.539 . S
C2047 H2061 0.958 . S
C2047 H2062 0.961 . S
C2047 H2063 0.960 . S
H2048 C2032 0.931 . S
H2049 C2037 0.929 . S
H2050 C2038 0.960 . S
H2051 C2038 0.962 . S
H2052 C2038 0.960 . S
H2053 C2039 0.961 . S
H2054 C2039 0.961 . S
H2055 C2039 0.961 . S
H2056 C2040 0.931 . S
H2057 C2045 0.930 . S
H2058 C2046 0.956 . S
H2059 C2046 0.961 . S
H2060 C2046 0.961 . S
H2061 C2047 0.958 . S
H2062 C2047 0.961 . S
H2063 C2047 0.960 . S
C2064 C2065 1.391 1_565 S
C2064 C2066 1.394 . S
C2064 H2080 0.931 . S
C2065 C2064 1.391 1_545 S
C2065 C2069 1.376 . S
C2066 C2064 1.394 . S
C2066 C2067 1.369 1_565 S
C2066 C2070 1.531 . S
C2067 C2066 1.369 1_545 S
C2067 C2068 1.410 . S
C2067 C2075 1.503 . S
C2068 C2067 1.410 . S
C2068 C2069 1.392 . S
C2068 C2071 1.511 . S
C2069 C2065 1.376 . S
C2069 C2068 1.392 . S
C2069 H2081 0.929 . S
C2070 C2066 1.531 . S
C2070 H2082 0.960 . S
C2070 H2083 0.962 . S
C2070 H2084 0.960 . S
C2071 C2068 1.511 . S
C2071 H2085 0.961 . S
C2071 H2086 0.961 . S
C2071 H2087 0.961 . S
C2072 C2073 1.370 . S
C2072 C2074 1.363 . S
C2072 H2088 0.931 . S
C2073 C2072 1.370 . S
C2073 C2077 1.408 . S
C2074 C2072 1.363 . S
C2074 C2075 1.370 . S
C2074 C2078 1.524 . S
C2075 C2067 1.503 . S
C2075 C2074 1.370 . S
C2075 C2076 1.403 . S
C2076 C2075 1.403 . S
C2076 C2077 1.404 . S
C2076 C2079 1.539 1_545 S
C2077 C2073 1.408 . S
C2077 C2076 1.404 . S
C2077 H2089 0.930 . S
C2078 C2074 1.524 . S
C2078 H2090 0.956 . S
C2078 H2091 0.961 . S
C2078 H2092 0.961 . S
C2079 C2076 1.539 1_565 S
C2079 H2093 0.958 . S
C2079 H2094 0.961 . S
C2079 H2095 0.960 . S
H2080 C2064 0.931 . S
H2081 C2069 0.929 . S
H2082 C2070 0.960 . S
H2083 C2070 0.962 . S
H2084 C2070 0.960 . S
H2085 C2071 0.961 . S
H2086 C2071 0.961 . S
H2087 C2071 0.961 . S
H2088 C2072 0.931 . S
H2089 C2077 0.930 . S
H2090 C2078 0.956 . S
H2091 C2078 0.961 . S
H2092 C2078 0.961 . S
H2093 C2079 0.958 . S
H2094 C2079 0.961 . S
H2095 C2079 0.960 . S
C2096 C2097 1.391 . S
C2096 C2098 1.394 . S
C2096 H2112 0.931 . S
C2097 C2096 1.391 . S
C2097 C2101 1.376 . S
C2098 C2096 1.394 . S
C2098 C2099 1.369 . S
C2098 C2102 1.531 . S
C2099 C2098 1.369 . S
C2099 C2100 1.410 . S
C2099 C2107 1.503 . S
C2100 C2099 1.410 . S
C2100 C2101 1.392 . S
C2100 C2103 1.511 . S
C2101 C2097 1.376 . S
C2101 C2100 1.392 . S
C2101 H2113 0.929 . S
C2102 C2098 1.531 . S
C2102 H2114 0.960 . S
C2102 H2115 0.962 . S
C2102 H2116 0.960 . S
C2103 C2100 1.511 . S
C2103 H2117 0.961 . S
C2103 H2118 0.961 . S
C2103 H2119 0.961 . S
C2104 C2105 1.370 . S
C2104 C2106 1.363 . S
C2104 H2120 0.931 . S
C2105 C2104 1.370 . S
C2105 C2109 1.408 . S
C2106 C2104 1.363 . S
C2106 C2107 1.370 . S
C2106 C2110 1.524 . S
C2107 C2099 1.503 . S
C2107 C2106 1.370 . S
C2107 C2108 1.403 . S
C2108 C2107 1.403 . S
C2108 C2109 1.404 . S
C2108 C2111 1.539 . S
C2109 C2105 1.408 . S
C2109 C2108 1.404 . S
C2109 H2121 0.930 . S
C2110 C2106 1.524 . S
C2110 H2122 0.956 . S
C2110 H2123 0.961 . S
C2110 H2124 0.961 . S
C2111 C2108 1.539 . S
C2111 H2125 0.958 . S
C2111 H2126 0.961 . S
C2111 H2127 0.960 . S
H2112 C2096 0.931 . S
H2113 C2101 0.929 . S
H2114 C2102 0.960 . S
H2115 C2102 0.962 . S
H2116 C2102 0.960 . S
H2117 C2103 0.961 . S
H2118 C2103 0.961 . S
H2119 C2103 0.961 . S
H2120 C2104 0.931 . S
H2121 C2109 0.930 . S
H2122 C2110 0.956 . S
H2123 C2110 0.961 . S
H2124 C2110 0.961 . S
H2125 C2111 0.958 . S
H2126 C2111 0.961 . S
H2127 C2111 0.960 . S
C2128 C2129 1.396 . S
C2128 C2130 1.394 . S
C2128 H2144 0.931 . S
C2129 C2128 1.396 . S
C2129 C2133 1.392 1_545 S
C2130 C2128 1.394 . S
C2130 C2131 1.369 . S
C2130 C2134 1.531 . S
C2131 C2130 1.369 . S
C2131 C2132 1.410 . S
C2131 C2139 1.503 . S
C2132 C2131 1.410 . S
C2132 C2133 1.381 1_545 S
C2132 C2135 1.511 . S
C2133 C2129 1.392 1_565 S
C2133 C2132 1.381 1_565 S
C2133 H2145 0.934 . S
C2134 C2130 1.531 . S
C2134 H2146 0.960 . S
C2134 H2147 0.962 . S
C2134 H2148 0.960 . S
C2135 C2132 1.511 . S
C2135 H2149 0.960 . S
C2135 H2150 0.960 . S
C2135 H2151 0.962 1_545 S
C2136 C2137 1.370 . S
C2136 C2138 1.363 . S
C2136 H2152 0.931 . S
C2137 C2136 1.370 . S
C2137 C2141 1.361 1_545 S
C2138 C2136 1.363 . S
C2138 C2139 1.370 . S
C2138 C2142 1.524 . S
C2139 C2131 1.503 . S
C2139 C2138 1.370 . S
C2139 C2140 1.403 1_545 S
C2140 C2139 1.403 1_565 S
C2140 C2141 1.428 . S
C2140 C2143 1.539 . S
C2141 C2137 1.361 1_565 S
C2141 C2140 1.428 . S
C2141 H2153 0.954 . S
C2142 C2138 1.524 . S
C2142 H2154 0.956 . S
C2142 H2155 0.961 . S
C2142 H2156 0.961 . S
C2143 C2140 1.539 . S
C2143 H2157 0.958 . S
C2143 H2158 0.961 . S
C2143 H2159 0.960 . S
H2144 C2128 0.931 . S
H2145 C2133 0.934 . S
H2146 C2134 0.960 . S
H2147 C2134 0.962 . S
H2148 C2134 0.960 . S
H2149 C2135 0.960 . S
H2150 C2135 0.960 . S
H2151 C2135 0.962 1_565 S
H2152 C2136 0.931 . S
H2153 C2141 0.954 . S
H2154 C2142 0.956 . S
H2155 C2142 0.961 . S
H2156 C2142 0.961 . S
H2157 C2143 0.958 . S
H2158 C2143 0.961 . S
H2159 C2143 0.960 . S
C2160 C2161 1.391 . S
C2160 C2162 1.394 . S
C2160 H2176 0.931 . S
C2161 C2160 1.391 . S
C2161 C2165 1.376 . S
C2162 C2160 1.394 . S
C2162 C2163 1.369 . S
C2162 C2166 1.531 . S
C2163 C2162 1.369 . S
C2163 C2164 1.410 . S
C2163 C2171 1.503 . S
C2164 C2163 1.410 . S
C2164 C2165 1.392 . S
C2164 C2167 1.511 . S
C2165 C2161 1.376 . S
C2165 C2164 1.392 . S
C2165 H2177 0.929 . S
C2166 C2162 1.531 . S
C2166 H2178 0.960 . S
C2166 H2179 0.962 . S
C2166 H2180 0.960 . S
C2167 C2164 1.511 . S
C2167 H2181 0.961 . S
C2167 H2182 0.961 . S
C2167 H2183 0.961 . S
C2168 C2169 1.370 . S
C2168 C2170 1.363 . S
C2168 H2184 0.931 . S
C2169 C2168 1.370 . S
C2169 C2173 1.408 . S
C2170 C2168 1.363 . S
C2170 C2171 1.370 . S
C2170 C2174 1.524 . S
C2171 C2163 1.503 . S
C2171 C2170 1.370 . S
C2171 C2172 1.403 . S
C2172 C2171 1.403 . S
C2172 C2173 1.404 . S
C2172 C2175 1.539 . S
C2173 C2169 1.408 . S
C2173 C2172 1.404 . S
C2173 H2185 0.930 . S
C2174 C2170 1.524 . S
C2174 H2186 0.956 . S
C2174 H2187 0.961 . S
C2174 H2188 0.961 . S
C2175 C2172 1.539 . S
C2175 H2189 0.958 . S
C2175 H2190 0.961 . S
C2175 H2191 0.960 . S
H2176 C2160 0.931 . S
H2177 C2165 0.929 . S
H2178 C2166 0.960 . S
H2179 C2166 0.962 . S
H2180 C2166 0.960 . S
H2181 C2167 0.961 . S
H2182 C2167 0.961 . S
H2183 C2167 0.961 . S
H2184 C2168 0.931 . S
H2185 C2173 0.930 . S
H2186 C2174 0.956 . S
H2187 C2174 0.961 . S
H2188 C2174 0.961 . S
H2189 C2175 0.958 . S
H2190 C2175 0.961 . S
H2191 C2175 0.960 . S
C2192 C2193 1.391 . S
C2192 C2194 1.394 . S
C2192 H2208 0.931 . S
C2193 C2192 1.391 . S
C2193 C2197 1.376 1_565 S
C2194 C2192 1.394 . S
C2194 C2195 1.369 . S
C2194 C2198 1.531 . S
C2195 C2194 1.369 . S
C2195 C2196 1.410 1_565 S
C2195 C2203 1.503 . S
C2196 C2195 1.410 1_545 S
C2196 C2197 1.392 . S
C2196 C2199 1.511 . S
C2197 C2193 1.376 1_545 S
C2197 C2196 1.392 . S
C2197 H2209 0.929 . S
C2198 C2194 1.531 . S
C2198 H2210 0.960 . S
C2198 H2211 0.962 . S
C2198 H2212 0.960 . S
C2199 C2196 1.511 . S
C2199 H2213 0.961 . S
C2199 H2214 0.961 . S
C2199 H2215 0.938 1_545 S
C2200 C2201 1.370 . S
C2200 C2202 1.363 . S
C2200 H2216 0.931 . S
C2201 C2200 1.370 . S
C2201 C2205 1.408 1_545 S
C2202 C2200 1.363 . S
C2202 C2203 1.370 1_545 S
C2202 C2206 1.524 . S
C2203 C2195 1.503 . S
C2203 C2202 1.370 1_565 S
C2203 C2204 1.403 . S
C2204 C2203 1.403 . S
C2204 C2205 1.404 . S
C2204 C2207 1.539 . S
C2205 C2201 1.408 1_565 S
C2205 C2204 1.404 . S
C2205 H2217 0.930 . S
C2206 C2202 1.524 . S
C2206 H2218 0.956 . S
C2206 H2219 0.961 . S
C2206 H2220 0.961 . S
C2207 C2204 1.539 . S
C2207 H2221 0.958 . S
C2207 H2222 0.961 . S
C2207 H2223 0.960 . S
H2208 C2192 0.931 . S
H2209 C2197 0.929 . S
H2210 C2198 0.960 . S
H2211 C2198 0.962 . S
H2212 C2198 0.960 . S
H2213 C2199 0.961 . S
H2214 C2199 0.961 . S
H2215 C2199 0.938 1_565 S
H2216 C2200 0.931 . S
H2217 C2205 0.930 . S
H2218 C2206 0.956 . S
H2219 C2206 0.961 . S
H2220 C2206 0.961 . S
H2221 C2207 0.958 . S
H2222 C2207 0.961 . S
H2223 C2207 0.960 . S
C2224 C2225 1.391 . S
C2224 C2226 1.394 . S
C2224 H2240 0.931 . S
C2225 C2224 1.391 . S
C2225 C2229 1.376 . S
C2226 C2224 1.394 . S
C2226 C2227 1.369 . S
C2226 C2230 1.531 . S
C2227 C2226 1.369 . S
C2227 C2228 1.410 . S
C2227 C2235 1.503 . S
C2228 C2227 1.410 . S
C2228 C2229 1.392 . S
C2228 C2231 1.511 . S
C2229 C2225 1.376 . S
C2229 C2228 1.392 . S
C2229 H2241 0.929 . S
C2230 C2226 1.531 . S
C2230 H2242 0.960 . S
C2230 H2243 0.962 . S
C2230 H2244 0.960 . S
C2231 C2228 1.511 . S
C2231 H2245 0.961 . S
C2231 H2246 0.961 . S
C2231 H2247 0.961 . S
C2232 C2233 1.370 . S
C2232 C2234 1.363 . S
C2232 H2248 0.931 . S
C2233 C2232 1.370 . S
C2233 C2237 1.408 . S
C2234 C2232 1.363 . S
C2234 C2235 1.370 . S
C2234 C2238 1.524 . S
C2235 C2227 1.503 . S
C2235 C2234 1.370 . S
C2235 C2236 1.403 . S
C2236 C2235 1.403 . S
C2236 C2237 1.404 . S
C2236 C2239 1.539 . S
C2237 C2233 1.408 . S
C2237 C2236 1.404 . S
C2237 H2249 0.930 . S
C2238 C2234 1.524 . S
C2238 H2250 0.956 . S
C2238 H2251 0.961 . S
C2238 H2252 0.961 . S
C2239 C2236 1.539 . S
C2239 H2253 0.958 . S
C2239 H2254 0.961 . S
C2239 H2255 0.960 . S
H2240 C2224 0.931 . S
H2241 C2229 0.929 . S
H2242 C2230 0.960 . S
H2243 C2230 0.962 . S
H2244 C2230 0.960 . S
H2245 C2231 0.961 . S
H2246 C2231 0.961 . S
H2247 C2231 0.961 . S
H2248 C2232 0.931 . S
H2249 C2237 0.930 . S
H2250 C2238 0.956 . S
H2251 C2238 0.961 . S
H2252 C2238 0.961 . S
H2253 C2239 0.958 . S
H2254 C2239 0.961 . S
H2255 C2239 0.960 . S
C2256 C2257 1.391 . S
C2256 C2258 1.394 . S
C2256 H2272 0.935 . S
C2257 C2256 1.391 . S
C2257 C2261 1.376 . S
C2258 C2256 1.394 . S
C2258 C2259 1.369 . S
C2258 C2262 1.531 1_554 S
C2259 C2258 1.369 . S
C2259 C2260 1.410 . S
C2259 C2267 1.503 . S
C2260 C2259 1.410 . S
C2260 C2261 1.392 . S
C2260 C2263 1.511 . S
C2261 C2257 1.376 . S
C2261 C2260 1.392 . S
C2261 H2273 0.929 . S
C2262 C2258 1.531 1_556 S
C2262 H2274 0.960 . S
C2262 H2275 0.940 1_556 S
C2262 H2276 0.960 . S
C2263 C2260 1.511 . S
C2263 H2277 0.961 . S
C2263 H2278 0.961 . S
C2263 H2279 0.961 . S
C2264 C2265 1.370 . S
C2264 C2266 1.363 . S
C2264 H2280 0.931 . S
C2265 C2264 1.370 . S
C2265 C2269 1.408 1_554 S
C2266 C2264 1.363 . S
C2266 C2267 1.370 . S
C2266 C2270 1.524 . S
C2267 C2259 1.503 . S
C2267 C2266 1.370 . S
C2267 C2268 1.403 1_554 S
C2268 C2267 1.403 1_556 S
C2268 C2269 1.404 . S
C2268 C2271 1.539 . S
C2269 C2265 1.408 1_556 S
C2269 C2268 1.404 . S
C2269 H2281 0.930 . S
C2270 C2266 1.524 . S
C2270 H2282 0.956 . S
C2270 H2283 0.961 . S
C2270 H2284 0.961 . S
C2271 C2268 1.539 . S
C2271 H2285 0.958 . S
C2271 H2286 0.961 . S
C2271 H2287 0.960 . S
H2272 C2256 0.935 . S
H2273 C2261 0.929 . S
H2274 C2262 0.960 . S
H2275 C2262 0.940 1_554 S
H2276 C2262 0.960 . S
H2277 C2263 0.961 . S
H2278 C2263 0.961 . S
H2279 C2263 0.961 . S
H2280 C2264 0.931 . S
H2281 C2269 0.930 . S
H2282 C2270 0.956 . S
H2283 C2270 0.961 . S
H2284 C2270 0.961 . S
H2285 C2271 0.958 . S
H2286 C2271 0.961 . S
H2287 C2271 0.960 . S
C2288 C2289 1.391 . S
C2288 C2290 1.394 . S
C2288 H2304 0.931 . S
C2289 C2288 1.391 . S
C2289 C2293 1.376 . S
C2290 C2288 1.394 . S
C2290 C2291 1.369 . S
C2290 C2294 1.531 . S
C2291 C2290 1.369 . S
C2291 C2292 1.410 . S
C2291 C2299 1.503 . S
C2292 C2291 1.410 . S
C2292 C2293 1.392 . S
C2292 C2295 1.511 . S
C2293 C2289 1.376 . S
C2293 C2292 1.392 . S
C2293 H2305 0.929 . S
C2294 C2290 1.531 . S
C2294 H2306 0.960 . S
C2294 H2307 0.962 . S
C2294 H2308 0.960 . S
C2295 C2292 1.511 . S
C2295 H2309 0.961 . S
C2295 H2310 0.961 . S
C2295 H2311 0.961 . S
C2296 C2297 1.370 1_556 S
C2296 C2298 1.363 1_556 S
C2296 H2312 0.931 . S
C2297 C2296 1.370 1_554 S
C2297 C2301 1.408 . S
C2298 C2296 1.363 1_554 S
C2298 C2299 1.370 . S
C2298 C2302 1.524 1_554 S
C2299 C2291 1.503 . S
C2299 C2298 1.370 . S
C2299 C2300 1.403 . S
C2300 C2299 1.403 . S
C2300 C2301 1.404 . S
C2300 C2303 1.539 . S
C2301 C2297 1.408 . S
C2301 C2300 1.404 . S
C2301 H2313 0.930 . S
C2302 C2298 1.524 1_556 S
C2302 H2314 0.956 . S
C2302 H2315 0.961 . S
C2302 H2316 0.961 . S
C2303 C2300 1.539 . S
C2303 H2317 0.958 . S
C2303 H2318 0.961 . S
C2303 H2319 0.960 . S
H2304 C2288 0.931 . S
H2305 C2293 0.929 . S
H2306 C2294 0.960 . S
H2307 C2294 0.962 . S
H2308 C2294 0.960 . S
H2309 C2295 0.961 . S
H2310 C2295 0.961 . S
H2311 C2295 0.961 . S
H2312 C2296 0.931 . S
H2313 C2301 0.930 . S
H2314 C2302 0.956 . S
H2315 C2302 0.961 . S
H2316 C2302 0.961 . S
H2317 C2303 0.958 . S
H2318 C2303 0.961 . S
H2319 C2303 0.960 . S
C2320 C2321 1.391 . S
C2320 C2322 1.394 . S
C2320 H2336 0.931 . S
C2321 C2320 1.391 . S
C2321 C2325 1.376 . S
C2322 C2320 1.394 . S
C2322 C2323 1.369 . S
C2322 C2326 1.531 . S
C2323 C2322 1.369 . S
C2323 C2324 1.410 . S
C2323 C2331 1.503 . S
C2324 C2323 1.410 . S
C2324 C2325 1.392 . S
C2324 C2327 1.511 . S
C2325 C2321 1.376 . S
C2325 C2324 1.392 . S
C2325 H2337 0.929 . S
C2326 C2322 1.531 . S
C2326 H2338 0.960 . S
C2326 H2339 0.962 . S
C2326 H2340 0.960 . S
C2327 C2324 1.511 . S
C2327 H2341 0.961 . S
C2327 H2342 0.961 . S
C2327 H2343 0.961 . S
C2328 C2329 1.370 . S
C2328 C2330 1.363 . S
C2328 H2344 0.931 . S
C2329 C2328 1.370 . S
C2329 C2333 1.408 . S
C2330 C2328 1.363 . S
C2330 C2331 1.370 . S
C2330 C2334 1.524 . S
C2331 C2323 1.503 . S
C2331 C2330 1.370 . S
C2331 C2332 1.403 . S
C2332 C2331 1.403 . S
C2332 C2333 1.404 . S
C2332 C2335 1.539 . S
C2333 C2329 1.408 . S
C2333 C2332 1.404 . S
C2333 H2345 0.930 . S
C2334 C2330 1.524 . S
C2334 H2346 0.956 . S
C2334 H2347 0.961 . S
C2334 H2348 0.961 . S
C2335 C2332 1.539 . S
C2335 H2349 0.958 . S
C2335 H2350 0.961 . S
C2335 H2351 0.960 . S
H2336 C2320 0.931 . S
H2337 C2325 0.929 . S
H2338 C2326 0.960 . S
H2339 C2326 0.962 . S
H2340 C2326 0.960 . S
H2341 C2327 0.961 . S
H2342 C2327 0.961 . S
H2343 C2327 0.961 . S
H2344 C2328 0.931 . S
H2345 C2333 0.930 . S
H2346 C2334 0.956 . S
H2347 C2334 0.961 . S
H2348 C2334 0.961 . S
H2349 C2335 0.958 . S
H2350 C2335 0.961 . S
H2351 C2335 0.960 . S
C2352 C2353 1.391 . S
C2352 C2354 1.394 . S
C2352 H2368 0.931 . S
C2353 C2352 1.391 . S
C2353 C2357 1.376 . S
C2354 C2352 1.394 . S
C2354 C2355 1.369 . S
C2354 C2358 1.531 . S
C2355 C2354 1.369 . S
C2355 C2356 1.410 . S
C2355 C2363 1.503 . S
C2356 C2355 1.410 . S
C2356 C2357 1.392 . S
C2356 C2359 1.511 . S
C2357 C2353 1.376 . S
C2357 C2356 1.392 . S
C2357 H2369 0.929 . S
C2358 C2354 1.531 . S
C2358 H2370 0.960 . S
C2358 H2371 0.962 . S
C2358 H2372 0.960 . S
C2359 C2356 1.511 . S
C2359 H2373 0.961 . S
C2359 H2374 0.961 . S
C2359 H2375 0.961 . S
C2360 C2361 1.370 . S
C2360 C2362 1.363 . S
C2360 H2376 0.931 . S
C2361 C2360 1.370 . S
C2361 C2365 1.408 . S
C2362 C2360 1.363 . S
C2362 C2363 1.370 . S
C2362 C2366 1.524 . S
C2363 C2355 1.503 . S
C2363 C2362 1.370 . S
C2363 C2364 1.403 . S
C2364 C2363 1.403 . S
C2364 C2365 1.404 . S
C2364 C2367 1.539 . S
C2365 C2361 1.408 . S
C2365 C2364 1.404 . S
C2365 H2377 0.930 . S
C2366 C2362 1.524 . S
C2366 H2378 0.956 . S
C2366 H2379 0.961 . S
C2366 H2380 0.961 . S
C2367 C2364 1.539 . S
C2367 H2381 0.958 . S
C2367 H2382 0.961 . S
C2367 H2383 0.960 . S
H2368 C2352 0.931 . S
H2369 C2357 0.929 . S
H2370 C2358 0.960 . S
H2371 C2358 0.962 . S
H2372 C2358 0.960 . S
H2373 C2359 0.961 . S
H2374 C2359 0.961 . S
H2375 C2359 0.961 . S
H2376 C2360 0.931 . S
H2377 C2365 0.930 . S
H2378 C2366 0.956 . S
H2379 C2366 0.961 . S
H2380 C2366 0.961 . S
H2381 C2367 0.958 . S
H2382 C2367 0.961 . S
H2383 C2367 0.960 . S
C2384 C2385 1.391 1_565 S
C2384 C2386 1.394 . S
C2384 H2400 0.931 . S
C2385 C2384 1.391 1_545 S
C2385 C2389 1.376 . S
C2386 C2384 1.394 . S
C2386 C2387 1.369 . S
C2386 C2390 1.531 . S
C2387 C2386 1.369 . S
C2387 C2388 1.410 . S
C2387 C2395 1.503 . S
C2388 C2387 1.410 . S
C2388 C2389 1.392 1_565 S
C2388 C2391 1.511 1_565 S
C2389 C2385 1.376 . S
C2389 C2388 1.392 1_545 S
C2389 H2401 0.929 . S
C2390 C2386 1.531 . S
C2390 H2402 0.960 . S
C2390 H2403 0.962 . S
C2390 H2404 0.960 . S
C2391 C2388 1.511 1_545 S
C2391 H2405 0.961 . S
C2391 H2406 0.961 1_545 S
C2391 H2407 0.961 1_545 S
C2392 C2393 1.370 . S
C2392 C2394 1.363 . S
C2392 H2408 0.931 . S
C2393 C2392 1.370 . S
C2393 C2397 1.408 . S
C2394 C2392 1.363 . S
C2394 C2395 1.370 . S
C2394 C2398 1.524 . S
C2395 C2387 1.503 . S
C2395 C2394 1.370 . S
C2395 C2396 1.403 . S
C2396 C2395 1.403 . S
C2396 C2397 1.404 . S
C2396 C2399 1.539 . S
C2397 C2393 1.408 . S
C2397 C2396 1.404 . S
C2397 H2409 0.930 . S
C2398 C2394 1.524 . S
C2398 H2410 0.956 . S
C2398 H2411 0.961 . S
C2398 H2412 0.961 . S
C2399 C2396 1.539 . S
C2399 H2413 0.958 . S
C2399 H2414 0.961 . S
C2399 H2415 0.960 . S
H2400 C2384 0.931 . S
H2401 C2389 0.929 . S
H2402 C2390 0.960 . S
H2403 C2390 0.962 . S
H2404 C2390 0.960 . S
H2405 C2391 0.961 . S
H2406 C2391 0.961 1_565 S
H2407 C2391 0.961 1_565 S
H2408 C2392 0.931 . S
H2409 C2397 0.930 . S
H2410 C2398 0.956 . S
H2411 C2398 0.961 . S
H2412 C2398 0.961 . S
H2413 C2399 0.958 . S
H2414 C2399 0.961 . S
H2415 C2399 0.960 . S
C2416 C2417 1.391 . S
C2416 C2418 1.394 . S
C2416 H2432 0.931 . S
C2417 C2416 1.391 . S
C2417 C2421 1.376 . S
C2418 C2416 1.394 . S
C2418 C2419 1.369 . S
C2418 C2422 1.531 . S
C2419 C2418 1.369 . S
C2419 C2420 1.410 . S
C2419 C2427 1.503 . S
C2420 C2419 1.410 . S
C2420 C2421 1.392 . S
C2420 C2423 1.511 . S
C2421 C2417 1.376 . S
C2421 C2420 1.392 . S
C2421 H2433 0.929 . S
C2422 C2418 1.531 . S
C2422 H2434 0.960 . S
C2422 H2435 0.962 . S
C2422 H2436 0.960 . S
C2423 C2420 1.511 . S
C2423 H2437 0.961 . S
C2423 H2438 0.961 . S
C2423 H2439 0.961 . S
C2424 C2425 1.370 . S
C2424 C2426 1.363 . S
C2424 H2440 0.931 . S
C2425 C2424 1.370 . S
C2425 C2429 1.408 . S
C2426 C2424 1.363 . S
C2426 C2427 1.370 . S
C2426 C2430 1.524 . S
C2427 C2419 1.503 . S
C2427 C2426 1.370 . S
C2427 C2428 1.403 . S
C2428 C2427 1.403 . S
C2428 C2429 1.404 . S
C2428 C2431 1.539 . S
C2429 C2425 1.408 . S
C2429 C2428 1.404 . S
C2429 H2441 0.930 . S
C2430 C2426 1.524 . S
C2430 H2442 0.956 . S
C2430 H2443 0.961 . S
C2430 H2444 0.961 . S
C2431 C2428 1.539 . S
C2431 H2445 0.958 . S
C2431 H2446 0.961 . S
C2431 H2447 0.960 . S
H2432 C2416 0.931 . S
H2433 C2421 0.929 . S
H2434 C2422 0.960 . S
H2435 C2422 0.962 . S
H2436 C2422 0.960 . S
H2437 C2423 0.961 . S
H2438 C2423 0.961 . S
H2439 C2423 0.961 . S
H2440 C2424 0.931 . S
H2441 C2429 0.930 . S
H2442 C2430 0.956 . S
H2443 C2430 0.961 . S
H2444 C2430 0.961 . S
H2445 C2431 0.958 . S
H2446 C2431 0.961 . S
H2447 C2431 0.960 . S
C2448 C2449 1.391 . S
C2448 C2450 1.394 . S
C2448 H2464 0.931 . S
C2449 C2448 1.391 . S
C2449 C2453 1.376 . S
C2450 C2448 1.394 . S
C2450 C2451 1.369 . S
C2450 C2454 1.531 . S
C2451 C2450 1.369 . S
C2451 C2452 1.410 . S
C2451 C2459 1.503 . S
C2452 C2451 1.410 . S
C2452 C2453 1.392 . S
C2452 C2455 1.511 . S
C2453 C2449 1.376 . S
C2453 C2452 1.392 . S
C2453 H2465 0.929 . S
C2454 C2450 1.531 . S
C2454 H2466 0.960 . S
C2454 H2467 0.962 . S
C2454 H2468 0.960 . S
C2455 C2452 1.511 . S
C2455 H2469 0.961 . S
C2455 H2470 0.961 . S
C2455 H2471 0.961 . S
C2456 C2457 1.370 . S
C2456 C2458 1.363 . S
C2456 H2472 0.931 . S
C2457 C2456 1.370 . S
C2457 C2461 1.408 . S
C2458 C2456 1.363 . S
C2458 C2459 1.370 . S
C2458 C2462 1.524 . S
C2459 C2451 1.503 . S
C2459 C2458 1.370 . S
C2459 C2460 1.403 . S
C2460 C2459 1.403 . S
C2460 C2461 1.404 . S
C2460 C2463 1.539 . S
C2461 C2457 1.408 . S
C2461 C2460 1.404 . S
C2461 H2473 0.930 . S
C2462 C2458 1.524 . S
C2462 H2474 0.956 . S
C2462 H2475 0.961 . S
C2462 H2476 0.961 . S
C2463 C2460 1.539 . S
C2463 H2477 0.958 . S
C2463 H2478 0.961 . S
C2463 H2479 0.960 . S
H2464 C2448 0.931 . S
H2465 C2453 0.929 . S
H2466 C2454 0.960 . S
H2467 C2454 0.962 . S
H2468 C2454 0.960 . S
H2469 C2455 0.961 . S
H2470 C2455 0.961 . S
H2471 C2455 0.961 . S
H2472 C2456 0.931 . S
H2473 C2461 0.930 . S
H2474 C2462 0.956 . S
H2475 C2462 0.961 . S
H2476 C2462 0.961 . S
H2477 C2463 0.958 . S
H2478 C2463 0.961 . S
H2479 C2463 0.960 . S
C2480 C2481 1.391 . S
C2480 C2482 1.394 . S
C2480 H2496 0.931 . S
C2481 C2480 1.391 . S
C2481 C2485 1.376 . S
C2482 C2480 1.394 . S
C2482 C2483 1.369 . S
C2482 C2486 1.531 . S
C2483 C2482 1.369 . S
C2483 C2484 1.410 . S
C2483 C2491 1.503 . S
C2484 C2483 1.410 . S
C2484 C2485 1.392 . S
C2484 C2487 1.511 . S
C2485 C2481 1.376 . S
C2485 C2484 1.392 . S
C2485 H2497 0.929 . S
C2486 C2482 1.531 . S
C2486 H2498 0.960 . S
C2486 H2499 0.962 . S
C2486 H2500 0.960 . S
C2487 C2484 1.511 . S
C2487 H2501 0.961 . S
C2487 H2502 0.961 . S
C2487 H2503 0.961 . S
C2488 C2489 1.370 . S
C2488 C2490 1.363 . S
C2488 H2504 0.931 . S
C2489 C2488 1.370 . S
C2489 C2493 1.408 . S
C2490 C2488 1.363 . S
C2490 C2491 1.370 . S
C2490 C2494 1.524 . S
C2491 C2483 1.503 . S
C2491 C2490 1.370 . S
C2491 C2492 1.403 . S
C2492 C2491 1.403 . S
C2492 C2493 1.404 . S
C2492 C2495 1.539 . S
C2493 C2489 1.408 . S
C2493 C2492 1.404 . S
C2493 H2505 0.930 . S
C2494 C2490 1.524 . S
C2494 H2506 0.956 . S
C2494 H2507 0.961 . S
C2494 H2508 0.961 . S
C2495 C2492 1.539 . S
C2495 H2509 0.958 . S
C2495 H2510 0.961 . S
C2495 H2511 0.960 . S
H2496 C2480 0.931 . S
H2497 C2485 0.929 . S
H2498 C2486 0.960 . S
H2499 C2486 0.962 . S
H2500 C2486 0.960 . S
H2501 C2487 0.961 . S
H2502 C2487 0.961 . S
H2503 C2487 0.961 . S
H2504 C2488 0.931 . S
H2505 C2493 0.930 . S
H2506 C2494 0.956 . S
H2507 C2494 0.961 . S
H2508 C2494 0.961 . S
H2509 C2495 0.958 . S
H2510 C2495 0.961 . S
H2511 C2495 0.960 . S
C2512 C2513 1.391 . S
C2512 C2514 1.394 . S
C2512 H2528 0.931 . S
C2513 C2512 1.391 . S
C2513 C2517 1.376 . S
C2514 C2512 1.394 . S
C2514 C2515 1.369 . S
C2514 C2518 1.531 . S
C2515 C2514 1.369 . S
C2515 C2516 1.410 . S
C2515 C2523 1.503 . S
C2516 C2515 1.410 . S
C2516 C2517 1.392 . S
C2516 C2519 1.511 . S
C2517 C2513 1.376 . S
C2517 C2516 1.392 . S
C2517 H2529 0.929 . S
C2518 C2514 1.531 . S
C2518 H2530 0.960 . S
C2518 H2531 0.962 . S
C2518 H2532 0.960 . S
C2519 C2516 1.511 . S
C2519 H2533 0.961 . S
C2519 H2534 0.961 . S
C2519 H2535 0.961 . S
C2520 C2521 1.370 . S
C2520 C2522 1.363 . S
C2520 H2536 0.931 . S
C2521 C2520 1.370 . S
C2521 C2525 1.408 . S
C2522 C2520 1.363 . S
C2522 C2523 1.370 . S
C2522 C2526 1.524 . S
C2523 C2515 1.503 . S
C2523 C2522 1.370 . S
C2523 C2524 1.403 . S
C2524 C2523 1.403 . S
C2524 C2525 1.404 . S
C2524 C2527 1.539 . S
C2525 C2521 1.408 . S
C2525 C2524 1.404 . S
C2525 H2537 0.930 . S
C2526 C2522 1.524 . S
C2526 H2538 0.956 . S
C2526 H2539 0.961 . S
C2526 H2540 0.961 . S
C2527 C2524 1.539 . S
C2527 H2541 0.958 . S
C2527 H2542 0.961 . S
C2527 H2543 0.960 . S
H2528 C2512 0.931 . S
H2529 C2517 0.929 . S
H2530 C2518 0.960 . S
H2531 C2518 0.962 . S
H2532 C2518 0.960 . S
H2533 C2519 0.961 . S
H2534 C2519 0.961 . S
H2535 C2519 0.961 . S
H2536 C2520 0.931 . S
H2537 C2525 0.930 . S
H2538 C2526 0.956 . S
H2539 C2526 0.961 . S
H2540 C2526 0.961 . S
H2541 C2527 0.958 . S
H2542 C2527 0.961 . S
H2543 C2527 0.960 . S
C2544 C2545 1.391 . S
C2544 C2546 1.394 . S
C2544 H2560 0.931 . S
C2545 C2544 1.391 . S
C2545 C2549 1.376 . S
C2546 C2544 1.394 . S
C2546 C2547 1.369 . S
C2546 C2550 1.531 . S
C2547 C2546 1.369 . S
C2547 C2548 1.410 . S
C2547 C2555 1.503 . S
C2548 C2547 1.410 . S
C2548 C2549 1.392 . S
C2548 C2551 1.511 . S
C2549 C2545 1.376 . S
C2549 C2548 1.392 . S
C2549 H2561 0.929 . S
C2550 C2546 1.531 . S
C2550 H2562 0.960 . S
C2550 H2563 0.962 . S
C2550 H2564 0.960 . S
C2551 C2548 1.511 . S
C2551 H2565 0.961 . S
C2551 H2566 0.961 . S
C2551 H2567 0.961 . S
C2552 C2553 1.370 . S
C2552 C2554 1.363 . S
C2552 H2568 0.931 . S
C2553 C2552 1.370 . S
C2553 C2557 1.408 . S
C2554 C2552 1.363 . S
C2554 C2555 1.370 . S
C2554 C2558 1.524 . S
C2555 C2547 1.503 . S
C2555 C2554 1.370 . S
C2555 C2556 1.403 . S
C2556 C2555 1.403 . S
C2556 C2557 1.404 . S
C2556 C2559 1.539 . S
C2557 C2553 1.408 . S
C2557 C2556 1.404 . S
C2557 H2569 0.930 . S
C2558 C2554 1.524 . S
C2558 H2570 0.956 . S
C2558 H2571 0.961 . S
C2558 H2572 0.961 . S
C2559 C2556 1.539 . S
C2559 H2573 0.958 . S
C2559 H2574 0.961 . S
C2559 H2575 0.960 . S
H2560 C2544 0.931 . S
H2561 C2549 0.929 . S
H2562 C2550 0.960 . S
H2563 C2550 0.962 . S
H2564 C2550 0.960 . S
H2565 C2551 0.961 . S
H2566 C2551 0.961 . S
H2567 C2551 0.961 . S
H2568 C2552 0.931 . S
H2569 C2557 0.930 . S
H2570 C2558 0.956 . S
H2571 C2558 0.961 . S
H2572 C2558 0.961 . S
H2573 C2559 0.958 . S
H2574 C2559 0.961 . S
H2575 C2559 0.960 . S
C2576 C2577 1.415 . S
C2576 C2578 1.392 . S
C2576 H2592 0.909 1_455 S
C2577 C2576 1.415 . S
C2577 C2581 1.376 . S
C2578 C2576 1.392 . S
C2578 C2579 1.369 . S
C2578 C2582 1.531 1_455 S
C2579 C2578 1.369 . S
C2579 C2580 1.410 . S
C2579 C2587 1.503 . S
C2580 C2579 1.410 . S
C2580 C2581 1.392 . S
C2580 C2583 1.511 . S
C2581 C2577 1.376 . S
C2581 C2580 1.392 . S
C2581 H2593 0.929 . S
C2582 C2578 1.531 1_655 S
C2582 H2594 0.960 . S
C2582 H2595 0.962 . S
C2582 H2596 0.960 . S
C2583 C2580 1.511 . S
C2583 H2597 0.961 . S
C2583 H2598 0.961 . S
C2583 H2599 0.961 . S
C2584 C2585 1.370 1_556 S
C2584 C2586 1.363 . S
C2584 H2600 0.931 . S
C2585 C2584 1.370 1_554 S
C2585 C2589 1.408 . S
C2586 C2584 1.363 . S
C2586 C2587 1.370 . S
C2586 C2590 1.524 . S
C2587 C2579 1.503 . S
C2587 C2586 1.370 . S
C2587 C2588 1.403 1_556 S
C2588 C2587 1.403 1_554 S
C2588 C2589 1.404 . S
C2588 C2591 1.539 . S
C2589 C2585 1.408 . S
C2589 C2588 1.404 . S
C2589 H2601 0.930 . S
C2590 C2586 1.524 . S
C2590 H2602 0.956 1_455 S
C2590 H2603 0.961 . S
C2590 H2604 0.961 . S
C2591 C2588 1.539 . S
C2591 H2605 0.958 . S
C2591 H2606 0.961 . S
C2591 H2607 0.960 . S
H2592 C2576 0.909 1_655 S
H2593 C2581 0.929 . S
H2594 C2582 0.960 . S
H2595 C2582 0.962 . S
H2596 C2582 0.960 . S
H2597 C2583 0.961 . S
H2598 C2583 0.961 . S
H2599 C2583 0.961 . S
H2600 C2584 0.931 . S
H2601 C2589 0.930 . S
H2602 C2590 0.956 1_655 S
H2603 C2590 0.961 . S
H2604 C2590 0.961 . S
H2605 C2591 0.958 . S
H2606 C2591 0.961 . S
H2607 C2591 0.960 . S
C2608 C2609 1.391 . S
C2608 C2610 1.394 1_455 S
C2608 H2624 0.931 . S
C2609 C2608 1.391 . S
C2609 C2613 1.376 . S
C2610 C2608 1.394 1_655 S
C2610 C2611 1.369 . S
C2610 C2614 1.531 . S
C2611 C2610 1.369 . S
C2611 C2612 1.410 1_655 S
C2611 C2619 1.503 . S
C2612 C2611 1.410 1_455 S
C2612 C2613 1.392 . S
C2612 C2615 1.511 . S
C2613 C2609 1.376 . S
C2613 C2612 1.392 . S
C2613 H2625 0.929 . S
C2614 C2610 1.531 . S
C2614 H2626 0.960 . S
C2614 H2627 0.962 . S
C2614 H2628 0.960 . S
C2615 C2612 1.511 . S
C2615 H2629 0.961 . S
C2615 H2630 0.961 1_455 S
C2615 H2631 0.961 . S
C2616 C2617 1.370 . S
C2616 C2618 1.363 . S
C2616 H2632 0.931 . S
C2617 C2616 1.370 . S
C2617 C2621 1.408 . S
C2618 C2616 1.363 . S
C2618 C2619 1.370 . S
C2618 C2622 1.524 . S
C2619 C2611 1.503 . S
C2619 C2618 1.370 . S
C2619 C2620 1.403 . S
C2620 C2619 1.403 . S
C2620 C2621 1.404 . S
C2620 C2623 1.539 . S
C2621 C2617 1.408 . S
C2621 C2620 1.404 . S
C2621 H2633 0.930 . S
C2622 C2618 1.524 . S
C2622 H2634 0.956 . S
C2622 H2635 0.961 . S
C2622 H2636 0.961 . S
C2623 C2620 1.539 . S
C2623 H2637 0.958 . S
C2623 H2638 0.961 . S
C2623 H2639 0.960 . S
H2624 C2608 0.931 . S
H2625 C2613 0.929 . S
H2626 C2614 0.960 . S
H2627 C2614 0.962 . S
H2628 C2614 0.960 . S
H2629 C2615 0.961 . S
H2630 C2615 0.961 1_655 S
H2631 C2615 0.961 . S
H2632 C2616 0.931 . S
H2633 C2621 0.930 . S
H2634 C2622 0.956 . S
H2635 C2622 0.961 . S
H2636 C2622 0.961 . S
H2637 C2623 0.958 . S
H2638 C2623 0.961 . S
H2639 C2623 0.960 . S
C2640 C2641 1.391 . S
C2640 C2642 1.394 . S
C2640 H2656 0.931 . S
C2641 C2640 1.391 . S
C2641 C2645 1.376 . S
C2642 C2640 1.394 . S
C2642 C2643 1.369 . S
C2642 C2646 1.531 . S
C2643 C2642 1.369 . S
C2643 C2644 1.410 . S
C2643 C2651 1.503 . S
C2644 C2643 1.410 . S
C2644 C2645 1.392 . S
C2644 C2647 1.511 . S
C2645 C2641 1.376 . S
C2645 C2644 1.392 . S
C2645 H2657 0.929 . S
C2646 C2642 1.531 . S
C2646 H2658 0.960 . S
C2646 H2659 0.962 . S
C2646 H2660 0.960 . S
C2647 C2644 1.511 . S
C2647 H2661 0.961 . S
C2647 H2662 0.961 . S
C2647 H2663 0.961 . S
C2648 C2649 1.370 . S
C2648 C2650 1.363 . S
C2648 H2664 0.931 . S
C2649 C2648 1.370 . S
C2649 C2653 1.408 . S
C2650 C2648 1.363 . S
C2650 C2651 1.370 . S
C2650 C2654 1.524 . S
C2651 C2643 1.503 . S
C2651 C2650 1.370 . S
C2651 C2652 1.403 . S
C2652 C2651 1.403 . S
C2652 C2653 1.404 . S
C2652 C2655 1.539 . S
C2653 C2649 1.408 . S
C2653 C2652 1.404 . S
C2653 H2665 0.930 . S
C2654 C2650 1.524 . S
C2654 H2666 0.956 . S
C2654 H2667 0.961 . S
C2654 H2668 0.961 . S
C2655 C2652 1.539 . S
C2655 H2669 0.958 . S
C2655 H2670 0.961 . S
C2655 H2671 0.960 . S
H2656 C2640 0.931 . S
H2657 C2645 0.929 . S
H2658 C2646 0.960 . S
H2659 C2646 0.962 . S
H2660 C2646 0.960 . S
H2661 C2647 0.961 . S
H2662 C2647 0.961 . S
H2663 C2647 0.961 . S
H2664 C2648 0.931 . S
H2665 C2653 0.930 . S
H2666 C2654 0.956 . S
H2667 C2654 0.961 . S
H2668 C2654 0.961 . S
H2669 C2655 0.958 . S
H2670 C2655 0.961 . S
H2671 C2655 0.960 . S
C2672 C2673 1.391 . S
C2672 C2674 1.394 . S
C2672 H2688 0.931 . S
C2673 C2672 1.391 . S
C2673 C2677 1.376 . S
C2674 C2672 1.394 . S
C2674 C2675 1.369 . S
C2674 C2678 1.531 . S
C2675 C2674 1.369 . S
C2675 C2676 1.410 . S
C2675 C2683 1.503 1_455 S
C2676 C2675 1.410 . S
C2676 C2677 1.392 . S
C2676 C2679 1.511 . S
C2677 C2673 1.376 . S
C2677 C2676 1.392 . S
C2677 H2689 0.929 . S
C2678 C2674 1.531 . S
C2678 H2690 0.960 1_455 S
C2678 H2691 0.962 . S
C2678 H2692 0.960 . S
C2679 C2676 1.511 . S
C2679 H2693 0.961 . S
C2679 H2694 0.961 . S
C2679 H2695 0.961 . S
C2680 C2681 1.370 . S
C2680 C2682 1.363 . S
C2680 H2696 0.931 . S
C2681 C2680 1.370 . S
C2681 C2685 1.408 . S
C2682 C2680 1.363 . S
C2682 C2683 1.370 . S
C2682 C2686 1.524 1_655 S
C2683 C2675 1.503 1_655 S
C2683 C2682 1.370 . S
C2683 C2684 1.403 . S
C2684 C2683 1.403 . S
C2684 C2685 1.404 . S
C2684 C2687 1.539 . S
C2685 C2681 1.408 . S
C2685 C2684 1.404 . S
C2685 H2697 0.930 . S
C2686 C2682 1.524 1_455 S
C2686 H2698 0.956 . S
C2686 H2699 0.961 . S
C2686 H2700 0.961 . S
C2687 C2684 1.539 . S
C2687 H2701 0.958 . S
C2687 H2702 0.961 . S
C2687 H2703 0.960 . S
H2688 C2672 0.931 . S
H2689 C2677 0.929 . S
H2690 C2678 0.960 1_655 S
H2691 C2678 0.962 . S
H2692 C2678 0.960 . S
H2693 C2679 0.961 . S
H2694 C2679 0.961 . S
H2695 C2679 0.961 . S
H2696 C2680 0.931 . S
H2697 C2685 0.930 . S
H2698 C2686 0.956 . S
H2699 C2686 0.961 . S
H2700 C2686 0.961 . S
H2701 C2687 0.958 . S
H2702 C2687 0.961 . S
H2703 C2687 0.960 . S
C2704 C2705 1.391 1_455 S
C2704 C2706 1.394 . S
C2704 H2720 0.931 . S
C2705 C2704 1.391 1_655 S
C2705 C2709 1.376 . S
C2706 C2704 1.394 . S
C2706 C2707 1.369 . S
C2706 C2710 1.531 . S
C2707 C2706 1.369 . S
C2707 C2708 1.410 1_455 S
C2707 C2715 1.503 . S
C2708 C2707 1.410 1_655 S
C2708 C2709 1.392 . S
C2708 C2711 1.511 . S
C2709 C2705 1.376 . S
C2709 C2708 1.392 . S
C2709 H2721 0.929 . S
C2710 C2706 1.531 . S
C2710 H2722 0.960 . S
C2710 H2723 0.962 . S
C2710 H2724 0.960 . S
C2711 C2708 1.511 . S
C2711 H2725 0.961 . S
C2711 H2726 0.961 . S
C2711 H2727 0.961 . S
C2712 C2713 1.370 . S
C2712 C2714 1.363 . S
C2712 H2728 0.931 . S
C2713 C2712 1.370 . S
C2713 C2717 1.408 . S
C2714 C2712 1.363 . S
C2714 C2715 1.370 . S
C2714 C2718 1.524 . S
C2715 C2707 1.503 . S
C2715 C2714 1.370 . S
C2715 C2716 1.403 . S
C2716 C2715 1.403 . S
C2716 C2717 1.404 . S
C2716 C2719 1.539 1_455 S
C2717 C2713 1.408 . S
C2717 C2716 1.404 . S
C2717 H2729 0.930 . S
C2718 C2714 1.524 . S
C2718 H2730 0.956 . S
C2718 H2731 0.961 . S
C2718 H2732 0.961 . S
C2719 C2716 1.539 1_655 S
C2719 H2733 0.958 . S
C2719 H2734 0.961 . S
C2719 H2735 0.960 . S
H2720 C2704 0.931 . S
H2721 C2709 0.929 . S
H2722 C2710 0.960 . S
H2723 C2710 0.962 . S
H2724 C2710 0.960 . S
H2725 C2711 0.961 . S
H2726 C2711 0.961 . S
H2727 C2711 0.961 . S
H2728 C2712 0.931 . S
H2729 C2717 0.930 . S
H2730 C2718 0.956 . S
H2731 C2718 0.961 . S
H2732 C2718 0.961 . S
H2733 C2719 0.958 . S
H2734 C2719 0.961 . S
H2735 C2719 0.960 . S
C2736 C2737 1.391 . S
C2736 C2738 1.394 . S
C2736 H2752 0.931 . S
C2737 C2736 1.391 . S
C2737 C2741 1.376 . S
C2738 C2736 1.394 . S
C2738 C2739 1.369 . S
C2738 C2742 1.531 . S
C2739 C2738 1.369 . S
C2739 C2740 1.410 . S
C2739 C2747 1.503 . S
C2740 C2739 1.410 . S
C2740 C2741 1.392 . S
C2740 C2743 1.511 . S
C2741 C2737 1.376 . S
C2741 C2740 1.392 . S
C2741 H2753 0.929 . S
C2742 C2738 1.531 . S
C2742 H2754 0.960 . S
C2742 H2755 0.962 . S
C2742 H2756 0.960 . S
C2743 C2740 1.511 . S
C2743 H2757 0.961 . S
C2743 H2758 0.961 . S
C2743 H2759 0.961 . S
C2744 C2745 1.370 . S
C2744 C2746 1.363 . S
C2744 H2760 0.931 . S
C2745 C2744 1.370 . S
C2745 C2749 1.408 . S
C2746 C2744 1.363 . S
C2746 C2747 1.370 . S
C2746 C2750 1.524 . S
C2747 C2739 1.503 . S
C2747 C2746 1.370 . S
C2747 C2748 1.403 . S
C2748 C2747 1.403 . S
C2748 C2749 1.404 . S
C2748 C2751 1.539 . S
C2749 C2745 1.408 . S
C2749 C2748 1.404 . S
C2749 H2761 0.930 . S
C2750 C2746 1.524 . S
C2750 H2762 0.956 . S
C2750 H2763 0.961 . S
C2750 H2764 0.961 . S
C2751 C2748 1.539 . S
C2751 H2765 0.958 . S
C2751 H2766 0.961 . S
C2751 H2767 0.960 . S
H2752 C2736 0.931 . S
H2753 C2741 0.929 . S
H2754 C2742 0.960 . S
H2755 C2742 0.962 . S
H2756 C2742 0.960 . S
H2757 C2743 0.961 . S
H2758 C2743 0.961 . S
H2759 C2743 0.961 . S
H2760 C2744 0.931 . S
H2761 C2749 0.930 . S
H2762 C2750 0.956 . S
H2763 C2750 0.961 . S
H2764 C2750 0.961 . S
H2765 C2751 0.958 . S
H2766 C2751 0.961 . S
H2767 C2751 0.960 . S
C2768 C2769 1.391 . S
C2768 C2770 1.394 . S
C2768 H2784 0.931 . S
C2769 C2768 1.391 . S
C2769 C2773 1.376 . S
C2770 C2768 1.394 . S
C2770 C2771 1.369 . S
C2770 C2774 1.531 . S
C2771 C2770 1.369 . S
C2771 C2772 1.410 . S
C2771 C2779 1.503 . S
C2772 C2771 1.410 . S
C2772 C2773 1.392 . S
C2772 C2775 1.511 . S
C2773 C2769 1.376 . S
C2773 C2772 1.392 . S
C2773 H2785 0.929 . S
C2774 C2770 1.531 . S
C2774 H2786 0.960 . S
C2774 H2787 0.962 . S
C2774 H2788 0.960 . S
C2775 C2772 1.511 . S
C2775 H2789 0.961 . S
C2775 H2790 0.961 . S
C2775 H2791 0.961 . S
C2776 C2777 1.370 . S
C2776 C2778 1.363 . S
C2776 H2792 0.931 . S
C2777 C2776 1.370 . S
C2777 C2781 1.408 . S
C2778 C2776 1.363 . S
C2778 C2779 1.370 . S
C2778 C2782 1.524 . S
C2779 C2771 1.503 . S
C2779 C2778 1.370 . S
C2779 C2780 1.403 . S
C2780 C2779 1.403 . S
C2780 C2781 1.404 . S
C2780 C2783 1.539 . S
C2781 C2777 1.408 . S
C2781 C2780 1.404 . S
C2781 H2793 0.930 . S
C2782 C2778 1.524 . S
C2782 H2794 0.956 . S
C2782 H2795 0.961 . S
C2782 H2796 0.961 . S
C2783 C2780 1.539 . S
C2783 H2797 0.958 . S
C2783 H2798 0.961 . S
C2783 H2799 0.960 . S
H2784 C2768 0.931 . S
H2785 C2773 0.929 . S
H2786 C2774 0.960 . S
H2787 C2774 0.962 . S
H2788 C2774 0.960 . S
H2789 C2775 0.961 . S
H2790 C2775 0.961 . S
H2791 C2775 0.961 . S
H2792 C2776 0.931 . S
H2793 C2781 0.930 . S
H2794 C2782 0.956 . S
H2795 C2782 0.961 . S
H2796 C2782 0.961 . S
H2797 C2783 0.958 . S
H2798 C2783 0.961 . S
H2799 C2783 0.960 . S
C2800 C2801 1.391 . S
C2800 C2802 1.394 . S
C2800 H2816 0.931 . S
C2801 C2800 1.391 . S
C2801 C2805 1.376 . S
C2802 C2800 1.394 . S
C2802 C2803 1.369 . S
C2802 C2806 1.531 . S
C2803 C2802 1.369 . S
C2803 C2804 1.410 . S
C2803 C2811 1.503 . S
C2804 C2803 1.410 . S
C2804 C2805 1.392 . S
C2804 C2807 1.511 . S
C2805 C2801 1.376 . S
C2805 C2804 1.392 . S
C2805 H2817 0.929 . S
C2806 C2802 1.531 . S
C2806 H2818 0.960 . S
C2806 H2819 0.962 . S
C2806 H2820 0.960 . S
C2807 C2804 1.511 . S
C2807 H2821 0.961 . S
C2807 H2822 0.961 . S
C2807 H2823 0.961 . S
C2808 C2809 1.370 . S
C2808 C2810 1.363 . S
C2808 H2824 0.931 . S
C2809 C2808 1.370 . S
C2809 C2813 1.408 . S
C2810 C2808 1.363 . S
C2810 C2811 1.370 . S
C2810 C2814 1.524 . S
C2811 C2803 1.503 . S
C2811 C2810 1.370 . S
C2811 C2812 1.403 . S
C2812 C2811 1.403 . S
C2812 C2813 1.404 . S
C2812 C2815 1.539 . S
C2813 C2809 1.408 . S
C2813 C2812 1.404 . S
C2813 H2825 0.930 . S
C2814 C2810 1.524 . S
C2814 H2826 0.956 . S
C2814 H2827 0.961 . S
C2814 H2828 0.961 . S
C2815 C2812 1.539 . S
C2815 H2829 0.958 . S
C2815 H2830 0.961 . S
C2815 H2831 0.960 . S
H2816 C2800 0.931 . S
H2817 C2805 0.929 . S
H2818 C2806 0.960 . S
H2819 C2806 0.962 . S
H2820 C2806 0.960 . S
H2821 C2807 0.961 . S
H2822 C2807 0.961 . S
H2823 C2807 0.961 . S
H2824 C2808 0.931 . S
H2825 C2813 0.930 . S
H2826 C2814 0.956 . S
H2827 C2814 0.961 . S
H2828 C2814 0.961 . S
H2829 C2815 0.958 . S
H2830 C2815 0.961 . S
H2831 C2815 0.960 . S
C2832 C2833 1.391 . S
C2832 C2834 1.394 . S
C2832 H2848 0.931 . S
C2833 C2832 1.391 . S
C2833 C2837 1.376 . S
C2834 C2832 1.394 . S
C2834 C2835 1.369 . S
C2834 C2838 1.531 . S
C2835 C2834 1.369 . S
C2835 C2836 1.410 . S
C2835 C2843 1.503 . S
C2836 C2835 1.410 . S
C2836 C2837 1.392 . S
C2836 C2839 1.511 . S
C2837 C2833 1.376 . S
C2837 C2836 1.392 . S
C2837 H2849 0.929 . S
C2838 C2834 1.531 . S
C2838 H2850 0.960 . S
C2838 H2851 0.962 . S
C2838 H2852 0.960 . S
C2839 C2836 1.511 . S
C2839 H2853 0.961 . S
C2839 H2854 0.961 . S
C2839 H2855 0.961 . S
C2840 C2841 1.370 . S
C2840 C2842 1.363 . S
C2840 H2856 0.931 . S
C2841 C2840 1.370 . S
C2841 C2845 1.408 . S
C2842 C2840 1.363 . S
C2842 C2843 1.370 . S
C2842 C2846 1.524 . S
C2843 C2835 1.503 . S
C2843 C2842 1.370 . S
C2843 C2844 1.403 . S
C2844 C2843 1.403 . S
C2844 C2845 1.404 . S
C2844 C2847 1.539 . S
C2845 C2841 1.408 . S
C2845 C2844 1.404 . S
C2845 H2857 0.930 . S
C2846 C2842 1.524 . S
C2846 H2858 0.956 . S
C2846 H2859 0.961 . S
C2846 H2860 0.961 . S
C2847 C2844 1.539 . S
C2847 H2861 0.958 . S
C2847 H2862 0.961 . S
C2847 H2863 0.960 . S
H2848 C2832 0.931 . S
H2849 C2837 0.929 . S
H2850 C2838 0.960 . S
H2851 C2838 0.962 . S
H2852 C2838 0.960 . S
H2853 C2839 0.961 . S
H2854 C2839 0.961 . S
H2855 C2839 0.961 . S
H2856 C2840 0.931 . S
H2857 C2845 0.930 . S
H2858 C2846 0.956 . S
H2859 C2846 0.961 . S
H2860 C2846 0.961 . S
H2861 C2847 0.958 . S
H2862 C2847 0.961 . S
H2863 C2847 0.960 . S
C2864 C2865 1.391 . S
C2864 C2866 1.394 . S
C2864 H2880 0.931 . S
C2865 C2864 1.391 . S
C2865 C2869 1.376 . S
C2866 C2864 1.394 . S
C2866 C2867 1.369 . S
C2866 C2870 1.531 . S
C2867 C2866 1.369 . S
C2867 C2868 1.410 . S
C2867 C2875 1.503 . S
C2868 C2867 1.410 . S
C2868 C2869 1.392 . S
C2868 C2871 1.511 . S
C2869 C2865 1.376 . S
C2869 C2868 1.392 . S
C2869 H2881 0.929 . S
C2870 C2866 1.531 . S
C2870 H2882 0.960 . S
C2870 H2883 0.962 . S
C2870 H2884 0.960 . S
C2871 C2868 1.511 . S
C2871 H2885 0.961 . S
C2871 H2886 0.961 . S
C2871 H2887 0.961 . S
C2872 C2873 1.370 . S
C2872 C2874 1.363 . S
C2872 H2888 0.931 . S
C2873 C2872 1.370 . S
C2873 C2877 1.408 . S
C2874 C2872 1.363 . S
C2874 C2875 1.370 . S
C2874 C2878 1.524 . S
C2875 C2867 1.503 . S
C2875 C2874 1.370 . S
C2875 C2876 1.403 . S
C2876 C2875 1.403 . S
C2876 C2877 1.404 . S
C2876 C2879 1.539 . S
C2877 C2873 1.408 . S
C2877 C2876 1.404 . S
C2877 H2889 0.930 . S
C2878 C2874 1.524 . S
C2878 H2890 0.956 . S
C2878 H2891 0.961 . S
C2878 H2892 0.961 . S
C2879 C2876 1.539 . S
C2879 H2893 0.958 . S
C2879 H2894 0.961 . S
C2879 H2895 0.960 . S
H2880 C2864 0.931 . S
H2881 C2869 0.929 . S
H2882 C2870 0.960 . S
H2883 C2870 0.962 . S
H2884 C2870 0.960 . S
H2885 C2871 0.961 . S
H2886 C2871 0.961 . S
H2887 C2871 0.961 . S
H2888 C2872 0.931 . S
H2889 C2877 0.930 . S
H2890 C2878 0.956 . S
H2891 C2878 0.961 . S
H2892 C2878 0.961 . S
H2893 C2879 0.958 . S
H2894 C2879 0.961 . S
H2895 C2879 0.960 . S
C2896 C2897 1.391 . S
C2896 C2898 1.394 . S
C2896 H2912 0.931 . S
C2897 C2896 1.391 . S
C2897 C2901 1.376 . S
C2898 C2896 1.394 . S
C2898 C2899 1.369 . S
C2898 C2902 1.531 . S
C2899 C2898 1.369 . S
C2899 C2900 1.410 . S
C2899 C2907 1.503 . S
C2900 C2899 1.410 . S
C2900 C2901 1.392 . S
C2900 C2903 1.511 . S
C2901 C2897 1.376 . S
C2901 C2900 1.392 . S
C2901 H2913 0.929 . S
C2902 C2898 1.531 . S
C2902 H2914 0.960 . S
C2902 H2915 0.962 . S
C2902 H2916 0.960 . S
C2903 C2900 1.511 . S
C2903 H2917 0.961 . S
C2903 H2918 0.961 . S
C2903 H2919 0.961 . S
C2904 C2905 1.370 . S
C2904 C2906 1.363 . S
C2904 H2920 0.931 . S
C2905 C2904 1.370 . S
C2905 C2909 1.408 . S
C2906 C2904 1.363 . S
C2906 C2907 1.370 . S
C2906 C2910 1.524 . S
C2907 C2899 1.503 . S
C2907 C2906 1.370 . S
C2907 C2908 1.403 . S
C2908 C2907 1.403 . S
C2908 C2909 1.404 . S
C2908 C2911 1.539 . S
C2909 C2905 1.408 . S
C2909 C2908 1.404 . S
C2909 H2921 0.930 . S
C2910 C2906 1.524 . S
C2910 H2922 0.956 . S
C2910 H2923 0.961 . S
C2910 H2924 0.961 . S
C2911 C2908 1.539 . S
C2911 H2925 0.958 . S
C2911 H2926 0.961 . S
C2911 H2927 0.960 . S
H2912 C2896 0.931 . S
H2913 C2901 0.929 . S
H2914 C2902 0.960 . S
H2915 C2902 0.962 . S
H2916 C2902 0.960 . S
H2917 C2903 0.961 . S
H2918 C2903 0.961 . S
H2919 C2903 0.961 . S
H2920 C2904 0.931 . S
H2921 C2909 0.930 . S
H2922 C2910 0.956 . S
H2923 C2910 0.961 . S
H2924 C2910 0.961 . S
H2925 C2911 0.958 . S
H2926 C2911 0.961 . S
H2927 C2911 0.960 . S
C2928 C2929 1.391 . S
C2928 C2930 1.394 . S
C2928 H2944 0.931 . S
C2929 C2928 1.391 . S
C2929 C2933 1.376 . S
C2930 C2928 1.394 . S
C2930 C2931 1.369 . S
C2930 C2934 1.531 . S
C2931 C2930 1.369 . S
C2931 C2932 1.410 . S
C2931 C2939 1.503 . S
C2932 C2931 1.410 . S
C2932 C2933 1.392 . S
C2932 C2935 1.511 . S
C2933 C2929 1.376 . S
C2933 C2932 1.392 . S
C2933 H2945 0.929 . S
C2934 C2930 1.531 . S
C2934 H2946 0.960 . S
C2934 H2947 0.962 . S
C2934 H2948 0.960 . S
C2935 C2932 1.511 . S
C2935 H2949 0.961 . S
C2935 H2950 0.961 . S
C2935 H2951 0.961 . S
C2936 C2937 1.370 . S
C2936 C2938 1.363 . S
C2936 H2952 0.931 . S
C2937 C2936 1.370 . S
C2937 C2941 1.408 . S
C2938 C2936 1.363 . S
C2938 C2939 1.370 . S
C2938 C2942 1.524 . S
C2939 C2931 1.503 . S
C2939 C2938 1.370 . S
C2939 C2940 1.403 . S
C2940 C2939 1.403 . S
C2940 C2941 1.404 . S
C2940 C2943 1.539 . S
C2941 C2937 1.408 . S
C2941 C2940 1.404 . S
C2941 H2953 0.930 . S
C2942 C2938 1.524 . S
C2942 H2954 0.956 . S
C2942 H2955 0.961 . S
C2942 H2956 0.961 . S
C2943 C2940 1.539 . S
C2943 H2957 0.958 . S
C2943 H2958 0.961 . S
C2943 H2959 0.960 . S
H2944 C2928 0.931 . S
H2945 C2933 0.929 . S
H2946 C2934 0.960 . S
H2947 C2934 0.962 . S
H2948 C2934 0.960 . S
H2949 C2935 0.961 . S
H2950 C2935 0.961 . S
H2951 C2935 0.961 . S
H2952 C2936 0.931 . S
H2953 C2941 0.930 . S
H2954 C2942 0.956 . S
H2955 C2942 0.961 . S
H2956 C2942 0.961 . S
H2957 C2943 0.958 . S
H2958 C2943 0.961 . S
H2959 C2943 0.960 . S
C2960 C2961 1.391 . S
C2960 C2962 1.394 . S
C2960 H2976 0.931 . S
C2961 C2960 1.391 . S
C2961 C2965 1.376 . S
C2962 C2960 1.394 . S
C2962 C2963 1.369 . S
C2962 C2966 1.531 . S
C2963 C2962 1.369 . S
C2963 C2964 1.410 . S
C2963 C2971 1.503 . S
C2964 C2963 1.410 . S
C2964 C2965 1.392 . S
C2964 C2967 1.511 . S
C2965 C2961 1.376 . S
C2965 C2964 1.392 . S
C2965 H2977 0.929 . S
C2966 C2962 1.531 . S
C2966 H2978 0.960 . S
C2966 H2979 0.962 . S
C2966 H2980 0.960 . S
C2967 C2964 1.511 . S
C2967 H2981 0.961 . S
C2967 H2982 0.961 . S
C2967 H2983 0.961 . S
C2968 C2969 1.370 . S
C2968 C2970 1.363 . S
C2968 H2984 0.931 . S
C2969 C2968 1.370 . S
C2969 C2973 1.408 . S
C2970 C2968 1.363 . S
C2970 C2971 1.370 . S
C2970 C2974 1.524 . S
C2971 C2963 1.503 . S
C2971 C2970 1.370 . S
C2971 C2972 1.403 . S
C2972 C2971 1.403 . S
C2972 C2973 1.404 . S
C2972 C2975 1.539 . S
C2973 C2969 1.408 . S
C2973 C2972 1.404 . S
C2973 H2985 0.930 . S
C2974 C2970 1.524 . S
C2974 H2986 0.956 . S
C2974 H2987 0.961 . S
C2974 H2988 0.961 . S
C2975 C2972 1.539 . S
C2975 H2989 0.958 . S
C2975 H2990 0.961 . S
C2975 H2991 0.960 . S
H2976 C2960 0.931 . S
H2977 C2965 0.929 . S
H2978 C2966 0.960 . S
H2979 C2966 0.962 . S
H2980 C2966 0.960 . S
H2981 C2967 0.961 . S
H2982 C2967 0.961 . S
H2983 C2967 0.961 . S
H2984 C2968 0.931 . S
H2985 C2973 0.930 . S
H2986 C2974 0.956 . S
H2987 C2974 0.961 . S
H2988 C2974 0.961 . S
H2989 C2975 0.958 . S
H2990 C2975 0.961 . S
H2991 C2975 0.960 . S
C2992 C2993 1.391 . S
C2992 C2994 1.394 . S
C2992 H3008 0.931 . S
C2993 C2992 1.391 . S
C2993 C2997 1.376 . S
C2994 C2992 1.394 . S
C2994 C2995 1.369 . S
C2994 C2998 1.531 . S
C2995 C2994 1.369 . S
C2995 C2996 1.410 . S
C2995 C3003 1.503 . S
C2996 C2995 1.410 . S
C2996 C2997 1.392 . S
C2996 C2999 1.511 . S
C2997 C2993 1.376 . S
C2997 C2996 1.392 . S
C2997 H3009 0.929 . S
C2998 C2994 1.531 . S
C2998 H3010 0.960 . S
C2998 H3011 0.962 . S
C2998 H3012 0.960 . S
C2999 C2996 1.511 . S
C2999 H3013 0.961 . S
C2999 H3014 0.961 . S
C2999 H3015 0.961 . S
C3000 C3001 1.370 . S
C3000 C3002 1.363 . S
C3000 H3016 0.931 . S
C3001 C3000 1.370 . S
C3001 C3005 1.408 . S
C3002 C3000 1.363 . S
C3002 C3003 1.370 . S
C3002 C3006 1.524 . S
C3003 C2995 1.503 . S
C3003 C3002 1.370 . S
C3003 C3004 1.403 . S
C3004 C3003 1.403 . S
C3004 C3005 1.404 . S
C3004 C3007 1.539 . S
C3005 C3001 1.408 . S
C3005 C3004 1.404 . S
C3005 H3017 0.930 . S
C3006 C3002 1.524 . S
C3006 H3018 0.956 . S
C3006 H3019 0.961 . S
C3006 H3020 0.961 . S
C3007 C3004 1.539 . S
C3007 H3021 0.958 . S
C3007 H3022 0.961 . S
C3007 H3023 0.960 . S
H3008 C2992 0.931 . S
H3009 C2997 0.929 . S
H3010 C2998 0.960 . S
H3011 C2998 0.962 . S
H3012 C2998 0.960 . S
H3013 C2999 0.961 . S
H3014 C2999 0.961 . S
H3015 C2999 0.961 . S
H3016 C3000 0.931 . S
H3017 C3005 0.930 . S
H3018 C3006 0.956 . S
H3019 C3006 0.961 . S
H3020 C3006 0.961 . S
H3021 C3007 0.958 . S
H3022 C3007 0.961 . S
H3023 C3007 0.960 . S
C3024 C3025 1.391 . S
C3024 C3026 1.394 . S
C3024 H3040 0.931 . S
C3025 C3024 1.391 . S
C3025 C3029 1.376 . S
C3026 C3024 1.394 . S
C3026 C3027 1.369 . S
C3026 C3030 1.531 . S
C3027 C3026 1.369 . S
C3027 C3028 1.410 . S
C3027 C3035 1.503 . S
C3028 C3027 1.410 . S
C3028 C3029 1.392 . S
C3028 C3031 1.511 . S
C3029 C3025 1.376 . S
C3029 C3028 1.392 . S
C3029 H3041 0.929 . S
C3030 C3026 1.531 . S
C3030 H3042 0.960 . S
C3030 H3043 0.962 . S
C3030 H3044 0.960 . S
C3031 C3028 1.511 . S
C3031 H3045 0.961 . S
C3031 H3046 0.961 . S
C3031 H3047 0.961 . S
C3032 C3033 1.370 . S
C3032 C3034 1.363 . S
C3032 H3048 0.931 . S
C3033 C3032 1.370 . S
C3033 C3037 1.408 . S
C3034 C3032 1.363 . S
C3034 C3035 1.370 . S
C3034 C3038 1.524 . S
C3035 C3027 1.503 . S
C3035 C3034 1.370 . S
C3035 C3036 1.403 . S
C3036 C3035 1.403 . S
C3036 C3037 1.404 . S
C3036 C3039 1.539 . S
C3037 C3033 1.408 . S
C3037 C3036 1.404 . S
C3037 H3049 0.930 . S
C3038 C3034 1.524 . S
C3038 H3050 0.956 . S
C3038 H3051 0.961 . S
C3038 H3052 0.961 . S
C3039 C3036 1.539 . S
C3039 H3053 0.958 . S
C3039 H3054 0.961 . S
C3039 H3055 0.960 . S
H3040 C3024 0.931 . S
H3041 C3029 0.929 . S
H3042 C3030 0.960 . S
H3043 C3030 0.962 . S
H3044 C3030 0.960 . S
H3045 C3031 0.961 . S
H3046 C3031 0.961 . S
H3047 C3031 0.961 . S
H3048 C3032 0.931 . S
H3049 C3037 0.930 . S
H3050 C3038 0.956 . S
H3051 C3038 0.961 . S
H3052 C3038 0.961 . S
H3053 C3039 0.958 . S
H3054 C3039 0.961 . S
H3055 C3039 0.960 . S
C3056 C3057 1.391 . S
C3056 C3058 1.394 . S
C3056 H3072 0.931 . S
C3057 C3056 1.391 . S
C3057 C3061 1.376 . S
C3058 C3056 1.394 . S
C3058 C3059 1.369 . S
C3058 C3062 1.531 . S
C3059 C3058 1.369 . S
C3059 C3060 1.410 . S
C3059 C3067 1.503 . S
C3060 C3059 1.410 . S
C3060 C3061 1.392 . S
C3060 C3063 1.511 . S
C3061 C3057 1.376 . S
C3061 C3060 1.392 . S
C3061 H3073 0.929 . S
C3062 C3058 1.531 . S
C3062 H3074 0.960 . S
C3062 H3075 0.962 . S
C3062 H3076 0.960 . S
C3063 C3060 1.511 . S
C3063 H3077 0.961 . S
C3063 H3078 0.961 . S
C3063 H3079 0.961 . S
C3064 C3065 1.370 . S
C3064 C3066 1.363 . S
C3064 H3080 0.931 . S
C3065 C3064 1.370 . S
C3065 C3069 1.408 . S
C3066 C3064 1.363 . S
C3066 C3067 1.370 . S
C3066 C3070 1.524 . S
C3067 C3059 1.503 . S
C3067 C3066 1.370 . S
C3067 C3068 1.403 . S
C3068 C3067 1.403 . S
C3068 C3069 1.404 . S
C3068 C3071 1.539 . S
C3069 C3065 1.408 . S
C3069 C3068 1.404 . S
C3069 H3081 0.930 . S
C3070 C3066 1.524 . S
C3070 H3082 0.956 . S
C3070 H3083 0.961 . S
C3070 H3084 0.961 . S
C3071 C3068 1.539 . S
C3071 H3085 0.958 . S
C3071 H3086 0.961 . S
C3071 H3087 0.960 . S
H3072 C3056 0.931 . S
H3073 C3061 0.929 . S
H3074 C3062 0.960 . S
H3075 C3062 0.962 . S
H3076 C3062 0.960 . S
H3077 C3063 0.961 . S
H3078 C3063 0.961 . S
H3079 C3063 0.961 . S
H3080 C3064 0.931 . S
H3081 C3069 0.930 . S
H3082 C3070 0.956 . S
H3083 C3070 0.961 . S
H3084 C3070 0.961 . S
H3085 C3071 0.958 . S
H3086 C3071 0.961 . S
H3087 C3071 0.960 . S
C3088 C3089 1.391 . S
C3088 C3090 1.394 . S
C3088 H3104 0.931 . S
C3089 C3088 1.391 . S
C3089 C3093 1.376 . S
C3090 C3088 1.394 . S
C3090 C3091 1.369 . S
C3090 C3094 1.531 . S
C3091 C3090 1.369 . S
C3091 C3092 1.410 . S
C3091 C3099 1.503 . S
C3092 C3091 1.410 . S
C3092 C3093 1.392 . S
C3092 C3095 1.511 . S
C3093 C3089 1.376 . S
C3093 C3092 1.392 . S
C3093 H3105 0.929 . S
C3094 C3090 1.531 . S
C3094 H3106 0.960 . S
C3094 H3107 0.962 . S
C3094 H3108 0.960 . S
C3095 C3092 1.511 . S
C3095 H3109 0.961 . S
C3095 H3110 0.961 . S
C3095 H3111 0.961 . S
C3096 C3097 1.370 . S
C3096 C3098 1.363 . S
C3096 H3112 0.931 . S
C3097 C3096 1.370 . S
C3097 C3101 1.408 . S
C3098 C3096 1.363 . S
C3098 C3099 1.370 . S
C3098 C3102 1.524 . S
C3099 C3091 1.503 . S
C3099 C3098 1.370 . S
C3099 C3100 1.403 . S
C3100 C3099 1.403 . S
C3100 C3101 1.404 . S
C3100 C3103 1.539 . S
C3101 C3097 1.408 . S
C3101 C3100 1.404 . S
C3101 H3113 0.930 . S
C3102 C3098 1.524 . S
C3102 H3114 0.956 . S
C3102 H3115 0.961 . S
C3102 H3116 0.961 . S
C3103 C3100 1.539 . S
C3103 H3117 0.958 . S
C3103 H3118 0.961 . S
C3103 H3119 0.960 . S
H3104 C3088 0.931 . S
H3105 C3093 0.929 . S
H3106 C3094 0.960 . S
H3107 C3094 0.962 . S
H3108 C3094 0.960 . S
H3109 C3095 0.961 . S
H3110 C3095 0.961 . S
H3111 C3095 0.961 . S
H3112 C3096 0.931 . S
H3113 C3101 0.930 . S
H3114 C3102 0.956 . S
H3115 C3102 0.961 . S
H3116 C3102 0.961 . S
H3117 C3103 0.958 . S
H3118 C3103 0.961 . S
H3119 C3103 0.960 . S
C3120 C3121 1.391 1_556 S
C3120 C3122 1.394 . S
C3120 H3136 0.931 . S
C3121 C3120 1.391 1_554 S
C3121 C3125 1.376 . S
C3122 C3120 1.394 . S
C3122 C3123 1.369 1_556 S
C3122 C3126 1.531 . S
C3123 C3122 1.369 1_554 S
C3123 C3124 1.410 1_565 S
C3123 C3131 1.503 . S
C3124 C3123 1.410 1_545 S
C3124 C3125 1.392 1_545 S
C3124 C3127 1.511 . S
C3125 C3121 1.376 . S
C3125 C3124 1.392 1_565 S
C3125 H3137 0.929 1_565 S
C3126 C3122 1.531 . S
C3126 H3138 0.960 . S
C3126 H3139 0.962 . S
C3126 H3140 0.960 . S
C3127 C3124 1.511 . S
C3127 H3141 0.961 . S
C3127 H3142 0.961 . S
C3127 H3143 0.961 . S
C3128 C3129 1.370 1_565 S
C3128 C3130 1.363 . S
C3128 H3144 0.931 . S
C3129 C3128 1.370 1_545 S
C3129 C3133 1.408 1_554 S
C3130 C3128 1.363 . S
C3130 C3131 1.370 . S
C3130 C3134 1.524 . S
C3131 C3123 1.503 . S
C3131 C3130 1.370 . S
C3131 C3132 1.403 1_564 S
C3132 C3131 1.403 1_546 S
C3132 C3133 1.404 . S
C3132 C3135 1.539 . S
C3133 C3129 1.408 1_556 S
C3133 C3132 1.404 . S
C3133 H3145 0.930 . S
C3134 C3130 1.524 . S
C3134 H3146 0.956 . S
C3134 H3147 0.961 . S
C3134 H3148 0.961 . S
C3135 C3132 1.539 . S
C3135 H3149 0.958 . S
C3135 H3150 0.961 . S
C3135 H3151 0.960 . S
H3136 C3120 0.931 . S
H3137 C3125 0.929 1_545 S
H3138 C3126 0.960 . S
H3139 C3126 0.962 . S
H3140 C3126 0.960 . S
H3141 C3127 0.961 . S
H3142 C3127 0.961 . S
H3143 C3127 0.961 . S
H3144 C3128 0.931 . S
H3145 C3133 0.930 . S
H3146 C3134 0.956 . S
H3147 C3134 0.961 . S
H3148 C3134 0.961 . S
H3149 C3135 0.958 . S
H3150 C3135 0.961 . S
H3151 C3135 0.960 . S
C3152 C3153 1.391 . S
C3152 C3154 1.394 . S
C3152 H3168 0.931 . S
C3153 C3152 1.391 . S
C3153 C3157 1.376 . S
C3154 C3152 1.394 . S
C3154 C3155 1.369 . S
C3154 C3158 1.531 . S
C3155 C3154 1.369 . S
C3155 C3156 1.410 . S
C3155 C3163 1.503 . S
C3156 C3155 1.410 . S
C3156 C3157 1.392 . S
C3156 C3159 1.511 . S
C3157 C3153 1.376 . S
C3157 C3156 1.392 . S
C3157 H3169 0.929 . S
C3158 C3154 1.531 . S
C3158 H3170 0.960 . S
C3158 H3171 0.962 . S
C3158 H3172 0.960 . S
C3159 C3156 1.511 . S
C3159 H3173 0.961 . S
C3159 H3174 0.961 . S
C3159 H3175 0.961 . S
C3160 C3161 1.370 . S
C3160 C3162 1.363 . S
C3160 H3176 0.931 . S
C3161 C3160 1.370 . S
C3161 C3165 1.408 . S
C3162 C3160 1.363 . S
C3162 C3163 1.370 . S
C3162 C3166 1.524 . S
C3163 C3155 1.503 . S
C3163 C3162 1.370 . S
C3163 C3164 1.403 . S
C3164 C3163 1.403 . S
C3164 C3165 1.404 . S
C3164 C3167 1.539 . S
C3165 C3161 1.408 . S
C3165 C3164 1.404 . S
C3165 H3177 0.930 . S
C3166 C3162 1.524 . S
C3166 H3178 0.956 . S
C3166 H3179 0.961 . S
C3166 H3180 0.961 . S
C3167 C3164 1.539 . S
C3167 H3181 0.958 . S
C3167 H3182 0.961 . S
C3167 H3183 0.960 . S
H3168 C3152 0.931 . S
H3169 C3157 0.929 . S
H3170 C3158 0.960 . S
H3171 C3158 0.962 . S
H3172 C3158 0.960 . S
H3173 C3159 0.961 . S
H3174 C3159 0.961 . S
H3175 C3159 0.961 . S
H3176 C3160 0.931 . S
H3177 C3165 0.930 . S
H3178 C3166 0.956 . S
H3179 C3166 0.961 . S
H3180 C3166 0.961 . S
H3181 C3167 0.958 . S
H3182 C3167 0.961 . S
H3183 C3167 0.960 . S
C3184 C3185 1.391 . S
C3184 C3186 1.394 . S
C3184 H3200 0.931 1_554 S
C3185 C3184 1.391 . S
C3185 C3189 1.376 . S
C3186 C3184 1.394 . S
C3186 C3187 1.369 . S
C3186 C3190 1.531 . S
C3187 C3186 1.369 . S
C3187 C3188 1.410 . S
C3187 C3195 1.503 . S
C3188 C3187 1.410 . S
C3188 C3189 1.392 . S
C3188 C3191 1.511 . S
C3189 C3185 1.376 . S
C3189 C3188 1.392 . S
C3189 H3201 0.929 . S
C3190 C3186 1.531 . S
C3190 H3202 0.960 . S
C3190 H3203 0.962 1_554 S
C3190 H3204 0.960 1_554 S
C3191 C3188 1.511 . S
C3191 H3205 0.961 . S
C3191 H3206 0.961 . S
C3191 H3207 0.961 . S
C3192 C3193 1.370 . S
C3192 C3194 1.363 . S
C3192 H3208 0.931 . S
C3193 C3192 1.370 . S
C3193 C3197 1.408 . S
C3194 C3192 1.363 . S
C3194 C3195 1.370 . S
C3194 C3198 1.524 . S
C3195 C3187 1.503 . S
C3195 C3194 1.370 . S
C3195 C3196 1.403 . S
C3196 C3195 1.403 . S
C3196 C3197 1.404 . S
C3196 C3199 1.539 . S
C3197 C3193 1.408 . S
C3197 C3196 1.404 . S
C3197 H3209 0.930 . S
C3198 C3194 1.524 . S
C3198 H3210 0.956 1_554 S
C3198 H3211 0.961 . S
C3198 H3212 0.961 1_554 S
C3199 C3196 1.539 . S
C3199 H3213 0.958 . S
C3199 H3214 0.961 . S
C3199 H3215 0.960 . S
H3200 C3184 0.931 1_556 S
H3201 C3189 0.929 . S
H3202 C3190 0.960 . S
H3203 C3190 0.962 1_556 S
H3204 C3190 0.960 1_556 S
H3205 C3191 0.961 . S
H3206 C3191 0.961 . S
H3207 C3191 0.961 . S
H3208 C3192 0.931 . S
H3209 C3197 0.930 . S
H3210 C3198 0.956 1_556 S
H3211 C3198 0.961 . S
H3212 C3198 0.961 1_556 S
H3213 C3199 0.958 . S
H3214 C3199 0.961 . S
H3215 C3199 0.960 . S
C3216 C3217 1.391 . S
C3216 C3218 1.394 . S
C3216 H3232 0.931 . S
C3217 C3216 1.391 . S
C3217 C3221 1.376 . S
C3218 C3216 1.394 . S
C3218 C3219 1.369 . S
C3218 C3222 1.531 . S
C3219 C3218 1.369 . S
C3219 C3220 1.410 . S
C3219 C3227 1.503 . S
C3220 C3219 1.410 . S
C3220 C3221 1.392 . S
C3220 C3223 1.511 . S
C3221 C3217 1.376 . S
C3221 C3220 1.392 . S
C3221 H3233 0.929 . S
C3222 C3218 1.531 . S
C3222 H3234 0.960 . S
C3222 H3235 0.962 . S
C3222 H3236 0.960 . S
C3223 C3220 1.511 . S
C3223 H3237 0.961 . S
C3223 H3238 0.961 . S
C3223 H3239 0.961 . S
C3224 C3225 1.370 . S
C3224 C3226 1.363 . S
C3224 H3240 0.931 . S
C3225 C3224 1.370 . S
C3225 C3229 1.408 . S
C3226 C3224 1.363 . S
C3226 C3227 1.370 . S
C3226 C3230 1.524 . S
C3227 C3219 1.503 . S
C3227 C3226 1.370 . S
C3227 C3228 1.403 . S
C3228 C3227 1.403 . S
C3228 C3229 1.404 . S
C3228 C3231 1.539 . S
C3229 C3225 1.408 . S
C3229 C3228 1.404 . S
C3229 H3241 0.930 . S
C3230 C3226 1.524 . S
C3230 H3242 0.956 . S
C3230 H3243 0.961 . S
C3230 H3244 0.961 . S
C3231 C3228 1.539 . S
C3231 H3245 0.958 . S
C3231 H3246 0.961 . S
C3231 H3247 0.960 . S
H3232 C3216 0.931 . S
H3233 C3221 0.929 . S
H3234 C3222 0.960 . S
H3235 C3222 0.962 . S
H3236 C3222 0.960 . S
H3237 C3223 0.961 . S
H3238 C3223 0.961 . S
H3239 C3223 0.961 . S
H3240 C3224 0.931 . S
H3241 C3229 0.930 . S
H3242 C3230 0.956 . S
H3243 C3230 0.961 . S
H3244 C3230 0.961 . S
H3245 C3231 0.958 . S
H3246 C3231 0.961 . S
H3247 C3231 0.960 . S
C3248 C3249 1.391 . S
C3248 C3250 1.394 . S
C3248 H3264 0.931 . S
C3249 C3248 1.391 . S
C3249 C3253 1.376 . S
C3250 C3248 1.394 . S
C3250 C3251 1.369 . S
C3250 C3254 1.531 . S
C3251 C3250 1.369 . S
C3251 C3252 1.410 . S
C3251 C3259 1.503 . S
C3252 C3251 1.410 . S
C3252 C3253 1.392 . S
C3252 C3255 1.511 . S
C3253 C3249 1.376 . S
C3253 C3252 1.392 . S
C3253 H3265 0.929 . S
C3254 C3250 1.531 . S
C3254 H3266 0.960 . S
C3254 H3267 0.962 . S
C3254 H3268 0.960 . S
C3255 C3252 1.511 . S
C3255 H3269 0.961 . S
C3255 H3270 0.961 . S
C3255 H3271 0.961 . S
C3256 C3257 1.370 . S
C3256 C3258 1.363 . S
C3256 H3272 0.931 . S
C3257 C3256 1.370 . S
C3257 C3261 1.408 . S
C3258 C3256 1.363 . S
C3258 C3259 1.370 . S
C3258 C3262 1.524 . S
C3259 C3251 1.503 . S
C3259 C3258 1.370 . S
C3259 C3260 1.403 . S
C3260 C3259 1.403 . S
C3260 C3261 1.404 . S
C3260 C3263 1.539 . S
C3261 C3257 1.408 . S
C3261 C3260 1.404 . S
C3261 H3273 0.930 . S
C3262 C3258 1.524 . S
C3262 H3274 0.956 . S
C3262 H3275 0.961 . S
C3262 H3276 0.961 . S
C3263 C3260 1.539 . S
C3263 H3277 0.958 . S
C3263 H3278 0.961 . S
C3263 H3279 0.960 . S
H3264 C3248 0.931 . S
H3265 C3253 0.929 . S
H3266 C3254 0.960 . S
H3267 C3254 0.962 . S
H3268 C3254 0.960 . S
H3269 C3255 0.961 . S
H3270 C3255 0.961 . S
H3271 C3255 0.961 . S
H3272 C3256 0.931 . S
H3273 C3261 0.930 . S
H3274 C3262 0.956 . S
H3275 C3262 0.961 . S
H3276 C3262 0.961 . S
H3277 C3263 0.958 . S
H3278 C3263 0.961 . S
H3279 C3263 0.960 . S
C3280 C3281 1.391 . S
C3280 C3282 1.394 . S
C3280 H3296 0.931 . S
C3281 C3280 1.391 . S
C3281 C3285 1.376 . S
C3282 C3280 1.394 . S
C3282 C3283 1.369 . S
C3282 C3286 1.531 . S
C3283 C3282 1.369 . S
C3283 C3284 1.410 . S
C3283 C3291 1.503 . S
C3284 C3283 1.410 . S
C3284 C3285 1.392 . S
C3284 C3287 1.511 . S
C3285 C3281 1.376 . S
C3285 C3284 1.392 . S
C3285 H3297 0.929 . S
C3286 C3282 1.531 . S
C3286 H3298 0.960 . S
C3286 H3299 0.962 . S
C3286 H3300 0.960 . S
C3287 C3284 1.511 . S
C3287 H3301 0.961 . S
C3287 H3302 0.961 . S
C3287 H3303 0.961 . S
C3288 C3289 1.370 . S
C3288 C3290 1.363 . S
C3288 H3304 0.931 . S
C3289 C3288 1.370 . S
C3289 C3293 1.408 . S
C3290 C3288 1.363 . S
C3290 C3291 1.370 . S
C3290 C3294 1.524 . S
C3291 C3283 1.503 . S
C3291 C3290 1.370 . S
C3291 C3292 1.403 . S
C3292 C3291 1.403 . S
C3292 C3293 1.404 . S
C3292 C3295 1.539 . S
C3293 C3289 1.408 . S
C3293 C3292 1.404 . S
C3293 H3305 0.930 . S
C3294 C3290 1.524 . S
C3294 H3306 0.956 . S
C3294 H3307 0.961 . S
C3294 H3308 0.961 . S
C3295 C3292 1.539 . S
C3295 H3309 0.958 . S
C3295 H3310 0.961 . S
C3295 H3311 0.960 . S
H3296 C3280 0.931 . S
H3297 C3285 0.929 . S
H3298 C3286 0.960 . S
H3299 C3286 0.962 . S
H3300 C3286 0.960 . S
H3301 C3287 0.961 . S
H3302 C3287 0.961 . S
H3303 C3287 0.961 . S
H3304 C3288 0.931 . S
H3305 C3293 0.930 . S
H3306 C3294 0.956 . S
H3307 C3294 0.961 . S
H3308 C3294 0.961 . S
H3309 C3295 0.958 . S
H3310 C3295 0.961 . S
H3311 C3295 0.960 . S
C3312 C3313 1.391 . S
C3312 C3314 1.394 . S
C3312 H3328 0.931 . S
C3313 C3312 1.391 . S
C3313 C3317 1.376 . S
C3314 C3312 1.394 . S
C3314 C3315 1.369 . S
C3314 C3318 1.531 . S
C3315 C3314 1.369 . S
C3315 C3316 1.410 . S
C3315 C3323 1.503 . S
C3316 C3315 1.410 . S
C3316 C3317 1.392 . S
C3316 C3319 1.511 . S
C3317 C3313 1.376 . S
C3317 C3316 1.392 . S
C3317 H3329 0.929 . S
C3318 C3314 1.531 . S
C3318 H3330 0.960 . S
C3318 H3331 0.962 . S
C3318 H3332 0.960 . S
C3319 C3316 1.511 . S
C3319 H3333 0.961 . S
C3319 H3334 0.961 . S
C3319 H3335 0.961 . S
C3320 C3321 1.370 . S
C3320 C3322 1.363 . S
C3320 H3336 0.931 . S
C3321 C3320 1.370 . S
C3321 C3325 1.408 . S
C3322 C3320 1.363 . S
C3322 C3323 1.370 . S
C3322 C3326 1.524 . S
C3323 C3315 1.503 . S
C3323 C3322 1.370 . S
C3323 C3324 1.403 . S
C3324 C3323 1.403 . S
C3324 C3325 1.404 . S
C3324 C3327 1.539 . S
C3325 C3321 1.408 . S
C3325 C3324 1.404 . S
C3325 H3337 0.930 . S
C3326 C3322 1.524 . S
C3326 H3338 0.956 . S
C3326 H3339 0.961 . S
C3326 H3340 0.961 . S
C3327 C3324 1.539 . S
C3327 H3341 0.958 . S
C3327 H3342 0.961 . S
C3327 H3343 0.960 . S
H3328 C3312 0.931 . S
H3329 C3317 0.929 . S
H3330 C3318 0.960 . S
H3331 C3318 0.962 . S
H3332 C3318 0.960 . S
H3333 C3319 0.961 . S
H3334 C3319 0.961 . S
H3335 C3319 0.961 . S
H3336 C3320 0.931 . S
H3337 C3325 0.930 . S
H3338 C3326 0.956 . S
H3339 C3326 0.961 . S
H3340 C3326 0.961 . S
H3341 C3327 0.958 . S
H3342 C3327 0.961 . S
H3343 C3327 0.960 . S
C3344 C3345 1.391 . S
C3344 C3346 1.394 . S
C3344 H3360 0.931 . S
C3345 C3344 1.391 . S
C3345 C3349 1.376 . S
C3346 C3344 1.394 . S
C3346 C3347 1.369 . S
C3346 C3350 1.531 . S
C3347 C3346 1.369 . S
C3347 C3348 1.410 . S
C3347 C3355 1.503 . S
C3348 C3347 1.410 . S
C3348 C3349 1.392 . S
C3348 C3351 1.511 . S
C3349 C3345 1.376 . S
C3349 C3348 1.392 . S
C3349 H3361 0.929 . S
C3350 C3346 1.531 . S
C3350 H3362 0.960 . S
C3350 H3363 0.962 . S
C3350 H3364 0.960 . S
C3351 C3348 1.511 . S
C3351 H3365 0.961 . S
C3351 H3366 0.961 . S
C3351 H3367 0.961 . S
C3352 C3353 1.370 . S
C3352 C3354 1.363 . S
C3352 H3368 0.931 . S
C3353 C3352 1.370 . S
C3353 C3357 1.408 . S
C3354 C3352 1.363 . S
C3354 C3355 1.370 . S
C3354 C3358 1.524 . S
C3355 C3347 1.503 . S
C3355 C3354 1.370 . S
C3355 C3356 1.403 . S
C3356 C3355 1.403 . S
C3356 C3357 1.404 . S
C3356 C3359 1.539 . S
C3357 C3353 1.408 . S
C3357 C3356 1.404 . S
C3357 H3369 0.930 . S
C3358 C3354 1.524 . S
C3358 H3370 0.956 . S
C3358 H3371 0.961 . S
C3358 H3372 0.961 . S
C3359 C3356 1.539 . S
C3359 H3373 0.958 . S
C3359 H3374 0.961 . S
C3359 H3375 0.960 . S
H3360 C3344 0.931 . S
H3361 C3349 0.929 . S
H3362 C3350 0.960 . S
H3363 C3350 0.962 . S
H3364 C3350 0.960 . S
H3365 C3351 0.961 . S
H3366 C3351 0.961 . S
H3367 C3351 0.961 . S
H3368 C3352 0.931 . S
H3369 C3357 0.930 . S
H3370 C3358 0.956 . S
H3371 C3358 0.961 . S
H3372 C3358 0.961 . S
H3373 C3359 0.958 . S
H3374 C3359 0.961 . S
H3375 C3359 0.960 . S
C3376 C3377 1.391 . S
C3376 C3378 1.394 . S
C3376 H3392 0.931 . S
C3377 C3376 1.391 . S
C3377 C3381 1.376 . S
C3378 C3376 1.394 . S
C3378 C3379 1.369 . S
C3378 C3382 1.531 . S
C3379 C3378 1.369 . S
C3379 C3380 1.410 . S
C3379 C3387 1.503 . S
C3380 C3379 1.410 . S
C3380 C3381 1.392 . S
C3380 C3383 1.511 . S
C3381 C3377 1.376 . S
C3381 C3380 1.392 . S
C3381 H3393 0.929 . S
C3382 C3378 1.531 . S
C3382 H3394 0.960 . S
C3382 H3395 0.962 . S
C3382 H3396 0.960 . S
C3383 C3380 1.511 . S
C3383 H3397 0.961 . S
C3383 H3398 0.961 . S
C3383 H3399 0.961 . S
C3384 C3385 1.370 . S
C3384 C3386 1.363 . S
C3384 H3400 0.931 . S
C3385 C3384 1.370 . S
C3385 C3389 1.408 . S
C3386 C3384 1.363 . S
C3386 C3387 1.370 . S
C3386 C3390 1.524 . S
C3387 C3379 1.503 . S
C3387 C3386 1.370 . S
C3387 C3388 1.403 . S
C3388 C3387 1.403 . S
C3388 C3389 1.404 . S
C3388 C3391 1.539 . S
C3389 C3385 1.408 . S
C3389 C3388 1.404 . S
C3389 H3401 0.930 . S
C3390 C3386 1.524 . S
C3390 H3402 0.956 . S
C3390 H3403 0.961 . S
C3390 H3404 0.961 . S
C3391 C3388 1.539 . S
C3391 H3405 0.958 . S
C3391 H3406 0.961 . S
C3391 H3407 0.960 . S
H3392 C3376 0.931 . S
H3393 C3381 0.929 . S
H3394 C3382 0.960 . S
H3395 C3382 0.962 . S
H3396 C3382 0.960 . S
H3397 C3383 0.961 . S
H3398 C3383 0.961 . S
H3399 C3383 0.961 . S
H3400 C3384 0.931 . S
H3401 C3389 0.930 . S
H3402 C3390 0.956 . S
H3403 C3390 0.961 . S
H3404 C3390 0.961 . S
H3405 C3391 0.958 . S
H3406 C3391 0.961 . S
H3407 C3391 0.960 . S
C3408 C3409 1.391 . S
C3408 C3410 1.394 . S
C3408 H3424 0.931 . S
C3409 C3408 1.391 . S
C3409 C3413 1.376 . S
C3410 C3408 1.394 . S
C3410 C3411 1.369 . S
C3410 C3414 1.531 . S
C3411 C3410 1.369 . S
C3411 C3412 1.410 . S
C3411 C3419 1.503 . S
C3412 C3411 1.410 . S
C3412 C3413 1.392 . S
C3412 C3415 1.511 . S
C3413 C3409 1.376 . S
C3413 C3412 1.392 . S
C3413 H3425 0.929 . S
C3414 C3410 1.531 . S
C3414 H3426 0.960 . S
C3414 H3427 0.962 . S
C3414 H3428 0.960 . S
C3415 C3412 1.511 . S
C3415 H3429 0.961 . S
C3415 H3430 0.961 . S
C3415 H3431 0.961 . S
C3416 C3417 1.370 . S
C3416 C3418 1.363 . S
C3416 H3432 0.931 . S
C3417 C3416 1.370 . S
C3417 C3421 1.408 . S
C3418 C3416 1.363 . S
C3418 C3419 1.370 . S
C3418 C3422 1.524 . S
C3419 C3411 1.503 . S
C3419 C3418 1.370 . S
C3419 C3420 1.403 . S
C3420 C3419 1.403 . S
C3420 C3421 1.404 . S
C3420 C3423 1.539 . S
C3421 C3417 1.408 . S
C3421 C3420 1.404 . S
C3421 H3433 0.930 . S
C3422 C3418 1.524 . S
C3422 H3434 0.956 . S
C3422 H3435 0.961 . S
C3422 H3436 0.961 . S
C3423 C3420 1.539 . S
C3423 H3437 0.958 1_556 S
C3423 H3438 0.946 1_556 S
C3423 H3439 0.960 . S
H3424 C3408 0.931 . S
H3425 C3413 0.929 . S
H3426 C3414 0.960 . S
H3427 C3414 0.962 . S
H3428 C3414 0.960 . S
H3429 C3415 0.961 . S
H3430 C3415 0.961 . S
H3431 C3415 0.961 . S
H3432 C3416 0.931 . S
H3433 C3421 0.930 . S
H3434 C3422 0.956 . S
H3435 C3422 0.961 . S
H3436 C3422 0.961 . S
H3437 C3423 0.958 1_554 S
H3438 C3423 0.946 1_554 S
H3439 C3423 0.960 . S
C3440 C3441 1.391 . S
C3440 C3442 1.394 . S
C3440 H3456 0.931 . S
C3441 C3440 1.391 . S
C3441 C3445 1.376 . S
C3442 C3440 1.394 . S
C3442 C3443 1.369 . S
C3442 C3446 1.531 . S
C3443 C3442 1.369 . S
C3443 C3444 1.410 . S
C3443 C3451 1.503 . S
C3444 C3443 1.410 . S
C3444 C3445 1.392 . S
C3444 C3447 1.511 . S
C3445 C3441 1.376 . S
C3445 C3444 1.392 . S
C3445 H3457 0.929 . S
C3446 C3442 1.531 . S
C3446 H3458 0.960 . S
C3446 H3459 0.962 . S
C3446 H3460 0.960 . S
C3447 C3444 1.511 . S
C3447 H3461 0.961 . S
C3447 H3462 0.961 . S
C3447 H3463 0.961 . S
C3448 C3449 1.370 . S
C3448 C3450 1.363 . S
C3448 H3464 0.931 . S
C3449 C3448 1.370 . S
C3449 C3453 1.408 . S
C3450 C3448 1.363 . S
C3450 C3451 1.370 . S
C3450 C3454 1.524 . S
C3451 C3443 1.503 . S
C3451 C3450 1.370 . S
C3451 C3452 1.403 . S
C3452 C3451 1.403 . S
C3452 C3453 1.404 . S
C3452 C3455 1.539 . S
C3453 C3449 1.408 . S
C3453 C3452 1.404 . S
C3453 H3465 0.930 . S
C3454 C3450 1.524 . S
C3454 H3466 0.956 . S
C3454 H3467 0.961 . S
C3454 H3468 0.961 . S
C3455 C3452 1.539 . S
C3455 H3469 0.958 . S
C3455 H3470 0.961 . S
C3455 H3471 0.960 . S
H3456 C3440 0.931 . S
H3457 C3445 0.929 . S
H3458 C3446 0.960 . S
H3459 C3446 0.962 . S
H3460 C3446 0.960 . S
H3461 C3447 0.961 . S
H3462 C3447 0.961 . S
H3463 C3447 0.961 . S
H3464 C3448 0.931 . S
H3465 C3453 0.930 . S
H3466 C3454 0.956 . S
H3467 C3454 0.961 . S
H3468 C3454 0.961 . S
H3469 C3455 0.958 . S
H3470 C3455 0.961 . S
H3471 C3455 0.960 . S
C3472 C3473 1.391 . S
C3472 C3474 1.394 . S
C3472 H3488 0.931 . S
C3473 C3472 1.391 . S
C3473 C3477 1.376 . S
C3474 C3472 1.394 . S
C3474 C3475 1.369 . S
C3474 C3478 1.531 . S
C3475 C3474 1.369 . S
C3475 C3476 1.410 . S
C3475 C3483 1.503 . S
C3476 C3475 1.410 . S
C3476 C3477 1.392 . S
C3476 C3479 1.511 . S
C3477 C3473 1.376 . S
C3477 C3476 1.392 . S
C3477 H3489 0.929 . S
C3478 C3474 1.531 . S
C3478 H3490 0.960 . S
C3478 H3491 0.962 . S
C3478 H3492 0.960 . S
C3479 C3476 1.511 . S
C3479 H3493 0.961 . S
C3479 H3494 0.961 . S
C3479 H3495 0.961 . S
C3480 C3481 1.370 . S
C3480 C3482 1.363 . S
C3480 H3496 0.931 . S
C3481 C3480 1.370 . S
C3481 C3485 1.408 . S
C3482 C3480 1.363 . S
C3482 C3483 1.370 . S
C3482 C3486 1.524 . S
C3483 C3475 1.503 . S
C3483 C3482 1.370 . S
C3483 C3484 1.403 . S
C3484 C3483 1.403 . S
C3484 C3485 1.404 . S
C3484 C3487 1.539 . S
C3485 C3481 1.408 . S
C3485 C3484 1.404 . S
C3485 H3497 0.930 . S
C3486 C3482 1.524 . S
C3486 H3498 0.956 . S
C3486 H3499 0.961 . S
C3486 H3500 0.961 . S
C3487 C3484 1.539 . S
C3487 H3501 0.958 . S
C3487 H3502 0.961 . S
C3487 H3503 0.960 . S
H3488 C3472 0.931 . S
H3489 C3477 0.929 . S
H3490 C3478 0.960 . S
H3491 C3478 0.962 . S
H3492 C3478 0.960 . S
H3493 C3479 0.961 . S
H3494 C3479 0.961 . S
H3495 C3479 0.961 . S
H3496 C3480 0.931 . S
H3497 C3485 0.930 . S
H3498 C3486 0.956 . S
H3499 C3486 0.961 . S
H3500 C3486 0.961 . S
H3501 C3487 0.958 . S
H3502 C3487 0.961 . S
H3503 C3487 0.960 . S
C3504 C3505 1.391 . S
C3504 C3506 1.394 . S
C3504 H3520 0.931 . S
C3505 C3504 1.391 . S
C3505 C3509 1.376 . S
C3506 C3504 1.394 . S
C3506 C3507 1.369 . S
C3506 C3510 1.531 . S
C3507 C3506 1.369 . S
C3507 C3508 1.410 . S
C3507 C3515 1.503 . S
C3508 C3507 1.410 . S
C3508 C3509 1.392 . S
C3508 C3511 1.511 . S
C3509 C3505 1.376 . S
C3509 C3508 1.392 . S
C3509 H3521 0.929 . S
C3510 C3506 1.531 . S
C3510 H3522 0.960 . S
C3510 H3523 0.962 . S
C3510 H3524 0.960 . S
C3511 C3508 1.511 . S
C3511 H3525 0.961 . S
C3511 H3526 0.961 . S
C3511 H3527 0.961 . S
C3512 C3513 1.370 . S
C3512 C3514 1.363 . S
C3512 H3528 0.931 . S
C3513 C3512 1.370 . S
C3513 C3517 1.408 . S
C3514 C3512 1.363 . S
C3514 C3515 1.370 . S
C3514 C3518 1.524 . S
C3515 C3507 1.503 . S
C3515 C3514 1.370 . S
C3515 C3516 1.403 . S
C3516 C3515 1.403 . S
C3516 C3517 1.404 . S
C3516 C3519 1.539 . S
C3517 C3513 1.408 . S
C3517 C3516 1.404 . S
C3517 H3529 0.930 . S
C3518 C3514 1.524 . S
C3518 H3530 0.956 . S
C3518 H3531 0.961 . S
C3518 H3532 0.961 . S
C3519 C3516 1.539 . S
C3519 H3533 0.958 . S
C3519 H3534 0.961 . S
C3519 H3535 0.960 . S
H3520 C3504 0.931 . S
H3521 C3509 0.929 . S
H3522 C3510 0.960 . S
H3523 C3510 0.962 . S
H3524 C3510 0.960 . S
H3525 C3511 0.961 . S
H3526 C3511 0.961 . S
H3527 C3511 0.961 . S
H3528 C3512 0.931 . S
H3529 C3517 0.930 . S
H3530 C3518 0.956 . S
H3531 C3518 0.961 . S
H3532 C3518 0.961 . S
H3533 C3519 0.958 . S
H3534 C3519 0.961 . S
H3535 C3519 0.960 . S
C3536 C3537 1.391 . S
C3536 C3538 1.394 . S
C3536 H3552 0.931 . S
C3537 C3536 1.391 . S
C3537 C3541 1.376 . S
C3538 C3536 1.394 . S
C3538 C3539 1.369 . S
C3538 C3542 1.531 . S
C3539 C3538 1.369 . S
C3539 C3540 1.410 . S
C3539 C3547 1.503 . S
C3540 C3539 1.410 . S
C3540 C3541 1.392 . S
C3540 C3543 1.511 . S
C3541 C3537 1.376 . S
C3541 C3540 1.392 . S
C3541 H3553 0.929 . S
C3542 C3538 1.531 . S
C3542 H3554 0.960 . S
C3542 H3555 0.962 . S
C3542 H3556 0.960 . S
C3543 C3540 1.511 . S
C3543 H3557 0.961 . S
C3543 H3558 0.961 . S
C3543 H3559 0.961 . S
C3544 C3545 1.370 . S
C3544 C3546 1.363 . S
C3544 H3560 0.931 . S
C3545 C3544 1.370 . S
C3545 C3549 1.408 . S
C3546 C3544 1.363 . S
C3546 C3547 1.370 . S
C3546 C3550 1.524 . S
C3547 C3539 1.503 . S
C3547 C3546 1.370 . S
C3547 C3548 1.403 . S
C3548 C3547 1.403 . S
C3548 C3549 1.404 . S
C3548 C3551 1.539 . S
C3549 C3545 1.408 . S
C3549 C3548 1.404 . S
C3549 H3561 0.930 . S
C3550 C3546 1.524 . S
C3550 H3562 0.956 . S
C3550 H3563 0.961 . S
C3550 H3564 0.961 . S
C3551 C3548 1.539 . S
C3551 H3565 0.958 . S
C3551 H3566 0.961 . S
C3551 H3567 0.960 . S
H3552 C3536 0.931 . S
H3553 C3541 0.929 . S
H3554 C3542 0.960 . S
H3555 C3542 0.962 . S
H3556 C3542 0.960 . S
H3557 C3543 0.961 . S
H3558 C3543 0.961 . S
H3559 C3543 0.961 . S
H3560 C3544 0.931 . S
H3561 C3549 0.930 . S
H3562 C3550 0.956 . S
H3563 C3550 0.961 . S
H3564 C3550 0.961 . S
H3565 C3551 0.958 . S
H3566 C3551 0.961 . S
H3567 C3551 0.960 . S
C3568 C3569 1.391 . S
C3568 C3570 1.394 . S
C3568 H3584 0.931 . S
C3569 C3568 1.391 . S
C3569 C3573 1.376 . S
C3570 C3568 1.394 . S
C3570 C3571 1.369 . S
C3570 C3574 1.531 . S
C3571 C3570 1.369 . S
C3571 C3572 1.410 . S
C3571 C3579 1.503 . S
C3572 C3571 1.410 . S
C3572 C3573 1.392 . S
C3572 C3575 1.511 . S
C3573 C3569 1.376 . S
C3573 C3572 1.392 . S
C3573 H3585 0.929 . S
C3574 C3570 1.531 . S
C3574 H3586 0.960 . S
C3574 H3587 0.962 . S
C3574 H3588 0.960 . S
C3575 C3572 1.511 . S
C3575 H3589 0.961 . S
C3575 H3590 0.961 . S
C3575 H3591 0.961 . S
C3576 C3577 1.370 . S
C3576 C3578 1.363 . S
C3576 H3592 0.931 . S
C3577 C3576 1.370 . S
C3577 C3581 1.408 . S
C3578 C3576 1.363 . S
C3578 C3579 1.370 . S
C3578 C3582 1.524 . S
C3579 C3571 1.503 . S
C3579 C3578 1.370 . S
C3579 C3580 1.403 . S
C3580 C3579 1.403 . S
C3580 C3581 1.404 . S
C3580 C3583 1.539 . S
C3581 C3577 1.408 . S
C3581 C3580 1.404 . S
C3581 H3593 0.930 . S
C3582 C3578 1.524 . S
C3582 H3594 0.956 . S
C3582 H3595 0.961 . S
C3582 H3596 0.961 . S
C3583 C3580 1.539 . S
C3583 H3597 0.958 . S
C3583 H3598 0.961 . S
C3583 H3599 0.960 . S
H3584 C3568 0.931 . S
H3585 C3573 0.929 . S
H3586 C3574 0.960 . S
H3587 C3574 0.962 . S
H3588 C3574 0.960 . S
H3589 C3575 0.961 . S
H3590 C3575 0.961 . S
H3591 C3575 0.961 . S
H3592 C3576 0.931 . S
H3593 C3581 0.930 . S
H3594 C3582 0.956 . S
H3595 C3582 0.961 . S
H3596 C3582 0.961 . S
H3597 C3583 0.958 . S
H3598 C3583 0.961 . S
H3599 C3583 0.960 . S
C3600 C3601 1.391 . S
C3600 C3602 1.394 . S
C3600 H3616 0.931 . S
C3601 C3600 1.391 . S
C3601 C3605 1.376 . S
C3602 C3600 1.394 . S
C3602 C3603 1.369 . S
C3602 C3606 1.531 . S
C3603 C3602 1.369 . S
C3603 C3604 1.410 . S
C3603 C3611 1.503 . S
C3604 C3603 1.410 . S
C3604 C3605 1.392 . S
C3604 C3607 1.511 1_655 S
C3605 C3601 1.376 . S
C3605 C3604 1.392 . S
C3605 H3617 0.929 . S
C3606 C3602 1.531 . S
C3606 H3618 0.960 . S
C3606 H3619 0.962 . S
C3606 H3620 0.960 . S
C3607 C3604 1.511 1_455 S
C3607 H3621 0.961 . S
C3607 H3622 0.961 . S
C3607 H3623 0.961 . S
C3608 C3609 1.370 . S
C3608 C3610 1.363 1_455 S
C3608 H3624 0.931 . S
C3609 C3608 1.370 . S
C3609 C3613 1.408 . S
C3610 C3608 1.363 1_655 S
C3610 C3611 1.370 . S
C3610 C3614 1.524 . S
C3611 C3603 1.503 . S
C3611 C3610 1.370 . S
C3611 C3612 1.403 1_655 S
C3612 C3611 1.403 1_455 S
C3612 C3613 1.404 . S
C3612 C3615 1.539 . S
C3613 C3609 1.408 . S
C3613 C3612 1.404 . S
C3613 H3625 0.930 . S
C3614 C3610 1.524 . S
C3614 H3626 0.956 . S
C3614 H3627 0.961 . S
C3614 H3628 0.961 . S
C3615 C3612 1.539 . S
C3615 H3629 0.958 1_455 S
C3615 H3630 0.961 . S
C3615 H3631 0.960 . S
H3616 C3600 0.931 . S
H3617 C3605 0.929 . S
H3618 C3606 0.960 . S
H3619 C3606 0.962 . S
H3620 C3606 0.960 . S
H3621 C3607 0.961 . S
H3622 C3607 0.961 . S
H3623 C3607 0.961 . S
H3624 C3608 0.931 . S
H3625 C3613 0.930 . S
H3626 C3614 0.956 . S
H3627 C3614 0.961 . S
H3628 C3614 0.961 . S
H3629 C3615 0.958 1_655 S
H3630 C3615 0.961 . S
H3631 C3615 0.960 . S
C3632 C3633 1.391 . S
C3632 C3634 1.394 . S
C3632 H3648 0.931 . S
C3633 C3632 1.391 . S
C3633 C3637 1.376 . S
C3634 C3632 1.394 . S
C3634 C3635 1.369 . S
C3634 C3638 1.531 . S
C3635 C3634 1.369 . S
C3635 C3636 1.410 . S
C3635 C3643 1.503 . S
C3636 C3635 1.410 . S
C3636 C3637 1.392 . S
C3636 C3639 1.511 . S
C3637 C3633 1.376 . S
C3637 C3636 1.392 . S
C3637 H3649 0.929 . S
C3638 C3634 1.531 . S
C3638 H3650 0.960 . S
C3638 H3651 0.962 . S
C3638 H3652 0.960 . S
C3639 C3636 1.511 . S
C3639 H3653 0.961 . S
C3639 H3654 0.961 . S
C3639 H3655 0.961 . S
C3640 C3641 1.370 . S
C3640 C3642 1.363 . S
C3640 H3656 0.931 . S
C3641 C3640 1.370 . S
C3641 C3645 1.408 . S
C3642 C3640 1.363 . S
C3642 C3643 1.370 . S
C3642 C3646 1.524 . S
C3643 C3635 1.503 . S
C3643 C3642 1.370 . S
C3643 C3644 1.403 . S
C3644 C3643 1.403 . S
C3644 C3645 1.404 . S
C3644 C3647 1.539 . S
C3645 C3641 1.408 . S
C3645 C3644 1.404 . S
C3645 H3657 0.930 . S
C3646 C3642 1.524 . S
C3646 H3658 0.956 . S
C3646 H3659 0.961 . S
C3646 H3660 0.961 . S
C3647 C3644 1.539 . S
C3647 H3661 0.958 . S
C3647 H3662 0.961 . S
C3647 H3663 0.960 . S
H3648 C3632 0.931 . S
H3649 C3637 0.929 . S
H3650 C3638 0.960 . S
H3651 C3638 0.962 . S
H3652 C3638 0.960 . S
H3653 C3639 0.961 . S
H3654 C3639 0.961 . S
H3655 C3639 0.961 . S
H3656 C3640 0.931 . S
H3657 C3645 0.930 . S
H3658 C3646 0.956 . S
H3659 C3646 0.961 . S
H3660 C3646 0.961 . S
H3661 C3647 0.958 . S
H3662 C3647 0.961 . S
H3663 C3647 0.960 . S
C3664 C3665 1.391 . S
C3664 C3666 1.394 . S
C3664 H3680 0.931 . S
C3665 C3664 1.391 . S
C3665 C3669 1.376 . S
C3666 C3664 1.394 . S
C3666 C3667 1.369 . S
C3666 C3670 1.531 . S
C3667 C3666 1.369 . S
C3667 C3668 1.410 . S
C3667 C3675 1.503 . S
C3668 C3667 1.410 . S
C3668 C3669 1.392 . S
C3668 C3671 1.511 . S
C3669 C3665 1.376 . S
C3669 C3668 1.392 . S
C3669 H3681 0.929 . S
C3670 C3666 1.531 . S
C3670 H3682 0.960 . S
C3670 H3683 0.962 . S
C3670 H3684 0.960 . S
C3671 C3668 1.511 . S
C3671 H3685 0.961 . S
C3671 H3686 0.961 . S
C3671 H3687 0.961 . S
C3672 C3673 1.370 . S
C3672 C3674 1.363 . S
C3672 H3688 0.931 . S
C3673 C3672 1.370 . S
C3673 C3677 1.408 . S
C3674 C3672 1.363 . S
C3674 C3675 1.370 . S
C3674 C3678 1.524 . S
C3675 C3667 1.503 . S
C3675 C3674 1.370 . S
C3675 C3676 1.403 . S
C3676 C3675 1.403 . S
C3676 C3677 1.404 . S
C3676 C3679 1.539 . S
C3677 C3673 1.408 . S
C3677 C3676 1.404 . S
C3677 H3689 0.930 . S
C3678 C3674 1.524 . S
C3678 H3690 0.956 . S
C3678 H3691 0.961 . S
C3678 H3692 0.961 . S
C3679 C3676 1.539 . S
C3679 H3693 0.958 . S
C3679 H3694 0.961 . S
C3679 H3695 0.960 . S
H3680 C3664 0.931 . S
H3681 C3669 0.929 . S
H3682 C3670 0.960 . S
H3683 C3670 0.962 . S
H3684 C3670 0.960 . S
H3685 C3671 0.961 . S
H3686 C3671 0.961 . S
H3687 C3671 0.961 . S
H3688 C3672 0.931 . S
H3689 C3677 0.930 . S
H3690 C3678 0.956 . S
H3691 C3678 0.961 . S
H3692 C3678 0.961 . S
H3693 C3679 0.958 . S
H3694 C3679 0.961 . S
H3695 C3679 0.960 . S
C3696 C3697 1.391 . S
C3696 C3698 1.394 . S
C3696 H3712 0.931 . S
C3697 C3696 1.391 . S
C3697 C3701 1.376 . S
C3698 C3696 1.394 . S
C3698 C3699 1.369 . S
C3698 C3702 1.531 . S
C3699 C3698 1.369 . S
C3699 C3700 1.410 . S
C3699 C3707 1.503 . S
C3700 C3699 1.410 . S
C3700 C3701 1.392 . S
C3700 C3703 1.511 . S
C3701 C3697 1.376 . S
C3701 C3700 1.392 . S
C3701 H3713 0.929 . S
C3702 C3698 1.531 . S
C3702 H3714 0.960 . S
C3702 H3715 0.962 . S
C3702 H3716 0.960 . S
C3703 C3700 1.511 . S
C3703 H3717 0.961 . S
C3703 H3718 0.961 . S
C3703 H3719 0.961 . S
C3704 C3705 1.370 . S
C3704 C3706 1.363 . S
C3704 H3720 0.931 . S
C3705 C3704 1.370 . S
C3705 C3709 1.408 . S
C3706 C3704 1.363 . S
C3706 C3707 1.370 . S
C3706 C3710 1.524 . S
C3707 C3699 1.503 . S
C3707 C3706 1.370 . S
C3707 C3708 1.403 . S
C3708 C3707 1.403 . S
C3708 C3709 1.404 . S
C3708 C3711 1.539 . S
C3709 C3705 1.408 . S
C3709 C3708 1.404 . S
C3709 H3721 0.930 . S
C3710 C3706 1.524 . S
C3710 H3722 0.956 . S
C3710 H3723 0.961 . S
C3710 H3724 0.961 . S
C3711 C3708 1.539 . S
C3711 H3725 0.958 . S
C3711 H3726 0.961 . S
C3711 H3727 0.960 . S
H3712 C3696 0.931 . S
H3713 C3701 0.929 . S
H3714 C3702 0.960 . S
H3715 C3702 0.962 . S
H3716 C3702 0.960 . S
H3717 C3703 0.961 . S
H3718 C3703 0.961 . S
H3719 C3703 0.961 . S
H3720 C3704 0.931 . S
H3721 C3709 0.930 . S
H3722 C3710 0.956 . S
H3723 C3710 0.961 . S
H3724 C3710 0.961 . S
H3725 C3711 0.958 . S
H3726 C3711 0.961 . S
H3727 C3711 0.960 . S
C3728 C3729 1.391 . S
C3728 C3730 1.394 . S
C3728 H3744 0.931 . S
C3729 C3728 1.391 . S
C3729 C3733 1.376 . S
C3730 C3728 1.394 . S
C3730 C3731 1.369 . S
C3730 C3734 1.531 . S
C3731 C3730 1.369 . S
C3731 C3732 1.410 . S
C3731 C3739 1.503 . S
C3732 C3731 1.410 . S
C3732 C3733 1.392 . S
C3732 C3735 1.511 . S
C3733 C3729 1.376 . S
C3733 C3732 1.392 . S
C3733 H3745 0.929 . S
C3734 C3730 1.531 . S
C3734 H3746 0.960 . S
C3734 H3747 0.962 . S
C3734 H3748 0.960 . S
C3735 C3732 1.511 . S
C3735 H3749 0.961 . S
C3735 H3750 0.961 . S
C3735 H3751 0.961 . S
C3736 C3737 1.370 . S
C3736 C3738 1.363 . S
C3736 H3752 0.928 . S
C3737 C3736 1.370 . S
C3737 C3741 1.408 . S
C3738 C3736 1.363 . S
C3738 C3739 1.370 . S
C3738 C3742 1.524 . S
C3739 C3731 1.503 . S
C3739 C3738 1.370 . S
C3739 C3740 1.403 . S
C3740 C3739 1.403 . S
C3740 C3741 1.404 . S
C3740 C3743 1.539 . S
C3741 C3737 1.408 . S
C3741 C3740 1.404 . S
C3741 H3753 0.930 . S
C3742 C3738 1.524 . S
C3742 H3754 0.956 1_655 S
C3742 H3755 0.961 . S
C3742 H3756 0.961 1_655 S
C3743 C3740 1.539 . S
C3743 H3757 0.958 . S
C3743 H3758 0.961 . S
C3743 H3759 0.960 . S
H3744 C3728 0.931 . S
H3745 C3733 0.929 . S
H3746 C3734 0.960 . S
H3747 C3734 0.962 . S
H3748 C3734 0.960 . S
H3749 C3735 0.961 . S
H3750 C3735 0.961 . S
H3751 C3735 0.961 . S
H3752 C3736 0.928 . S
H3753 C3741 0.930 . S
H3754 C3742 0.956 1_455 S
H3755 C3742 0.961 . S
H3756 C3742 0.961 1_455 S
H3757 C3743 0.958 . S
H3758 C3743 0.961 . S
H3759 C3743 0.960 . S
C3760 C3761 1.391 . S
C3760 C3762 1.394 . S
C3760 H3776 0.931 . S
C3761 C3760 1.391 . S
C3761 C3765 1.376 . S
C3762 C3760 1.394 . S
C3762 C3763 1.369 . S
C3762 C3766 1.531 . S
C3763 C3762 1.369 . S
C3763 C3764 1.410 . S
C3763 C3771 1.503 . S
C3764 C3763 1.410 . S
C3764 C3765 1.392 . S
C3764 C3767 1.511 . S
C3765 C3761 1.376 . S
C3765 C3764 1.392 . S
C3765 H3777 0.929 . S
C3766 C3762 1.531 . S
C3766 H3778 0.960 . S
C3766 H3779 0.962 . S
C3766 H3780 0.960 . S
C3767 C3764 1.511 . S
C3767 H3781 0.961 . S
C3767 H3782 0.961 . S
C3767 H3783 0.961 . S
C3768 C3769 1.370 . S
C3768 C3770 1.363 . S
C3768 H3784 0.931 . S
C3769 C3768 1.370 . S
C3769 C3773 1.408 . S
C3770 C3768 1.363 . S
C3770 C3771 1.370 . S
C3770 C3774 1.524 . S
C3771 C3763 1.503 . S
C3771 C3770 1.370 . S
C3771 C3772 1.403 . S
C3772 C3771 1.403 . S
C3772 C3773 1.404 . S
C3772 C3775 1.539 . S
C3773 C3769 1.408 . S
C3773 C3772 1.404 . S
C3773 H3785 0.930 . S
C3774 C3770 1.524 . S
C3774 H3786 0.956 . S
C3774 H3787 0.961 . S
C3774 H3788 0.961 . S
C3775 C3772 1.539 . S
C3775 H3789 0.958 . S
C3775 H3790 0.961 . S
C3775 H3791 0.960 . S
H3776 C3760 0.931 . S
H3777 C3765 0.929 . S
H3778 C3766 0.960 . S
H3779 C3766 0.962 . S
H3780 C3766 0.960 . S
H3781 C3767 0.961 . S
H3782 C3767 0.961 . S
H3783 C3767 0.961 . S
H3784 C3768 0.931 . S
H3785 C3773 0.930 . S
H3786 C3774 0.956 . S
H3787 C3774 0.961 . S
H3788 C3774 0.961 . S
H3789 C3775 0.958 . S
H3790 C3775 0.961 . S
H3791 C3775 0.960 . S
C3792 C3793 1.391 . S
C3792 C3794 1.394 . S
C3792 H3808 0.931 . S
C3793 C3792 1.391 . S
C3793 C3797 1.376 . S
C3794 C3792 1.394 . S
C3794 C3795 1.369 . S
C3794 C3798 1.531 . S
C3795 C3794 1.369 . S
C3795 C3796 1.410 . S
C3795 C3803 1.503 . S
C3796 C3795 1.410 . S
C3796 C3797 1.392 . S
C3796 C3799 1.511 . S
C3797 C3793 1.376 . S
C3797 C3796 1.392 . S
C3797 H3809 0.929 . S
C3798 C3794 1.531 . S
C3798 H3810 0.960 . S
C3798 H3811 0.962 . S
C3798 H3812 0.960 . S
C3799 C3796 1.511 . S
C3799 H3813 0.961 . S
C3799 H3814 0.961 . S
C3799 H3815 0.961 . S
C3800 C3801 1.370 . S
C3800 C3802 1.363 . S
C3800 H3816 0.931 . S
C3801 C3800 1.370 . S
C3801 C3805 1.408 . S
C3802 C3800 1.363 . S
C3802 C3803 1.370 . S
C3802 C3806 1.524 . S
C3803 C3795 1.503 . S
C3803 C3802 1.370 . S
C3803 C3804 1.403 . S
C3804 C3803 1.403 . S
C3804 C3805 1.404 . S
C3804 C3807 1.539 . S
C3805 C3801 1.408 . S
C3805 C3804 1.404 . S
C3805 H3817 0.930 . S
C3806 C3802 1.524 . S
C3806 H3818 0.956 . S
C3806 H3819 0.961 . S
C3806 H3820 0.961 . S
C3807 C3804 1.539 . S
C3807 H3821 0.958 . S
C3807 H3822 0.961 . S
C3807 H3823 0.960 . S
H3808 C3792 0.931 . S
H3809 C3797 0.929 . S
H3810 C3798 0.960 . S
H3811 C3798 0.962 . S
H3812 C3798 0.960 . S
H3813 C3799 0.961 . S
H3814 C3799 0.961 . S
H3815 C3799 0.961 . S
H3816 C3800 0.931 . S
H3817 C3805 0.930 . S
H3818 C3806 0.956 . S
H3819 C3806 0.961 . S
H3820 C3806 0.961 . S
H3821 C3807 0.958 . S
H3822 C3807 0.961 . S
H3823 C3807 0.960 . S
C3824 C3825 1.391 . S
C3824 C3826 1.394 . S
C3824 H3840 0.931 . S
C3825 C3824 1.391 . S
C3825 C3829 1.376 . S
C3826 C3824 1.394 . S
C3826 C3827 1.369 . S
C3826 C3830 1.531 . S
C3827 C3826 1.369 . S
C3827 C3828 1.410 . S
C3827 C3835 1.503 . S
C3828 C3827 1.410 . S
C3828 C3829 1.392 . S
C3828 C3831 1.511 . S
C3829 C3825 1.376 . S
C3829 C3828 1.392 . S
C3829 H3841 0.929 . S
C3830 C3826 1.531 . S
C3830 H3842 0.960 . S
C3830 H3843 0.962 . S
C3830 H3844 0.960 . S
C3831 C3828 1.511 . S
C3831 H3845 0.961 . S
C3831 H3846 0.961 . S
C3831 H3847 0.961 . S
C3832 C3833 1.370 . S
C3832 C3834 1.363 . S
C3832 H3848 0.931 . S
C3833 C3832 1.370 . S
C3833 C3837 1.408 . S
C3834 C3832 1.363 . S
C3834 C3835 1.370 . S
C3834 C3838 1.524 . S
C3835 C3827 1.503 . S
C3835 C3834 1.370 . S
C3835 C3836 1.403 . S
C3836 C3835 1.403 . S
C3836 C3837 1.404 . S
C3836 C3839 1.539 . S
C3837 C3833 1.408 . S
C3837 C3836 1.404 . S
C3837 H3849 0.930 . S
C3838 C3834 1.524 . S
C3838 H3850 0.956 . S
C3838 H3851 0.961 . S
C3838 H3852 0.961 . S
C3839 C3836 1.539 . S
C3839 H3853 0.958 . S
C3839 H3854 0.961 . S
C3839 H3855 0.960 . S
H3840 C3824 0.931 . S
H3841 C3829 0.929 . S
H3842 C3830 0.960 . S
H3843 C3830 0.962 . S
H3844 C3830 0.960 . S
H3845 C3831 0.961 . S
H3846 C3831 0.961 . S
H3847 C3831 0.961 . S
H3848 C3832 0.931 . S
H3849 C3837 0.930 . S
H3850 C3838 0.956 . S
H3851 C3838 0.961 . S
H3852 C3838 0.961 . S
H3853 C3839 0.958 . S
H3854 C3839 0.961 . S
H3855 C3839 0.960 . S
C3856 C3857 1.391 . S
C3856 C3858 1.394 . S
C3856 H3872 0.931 . S
C3857 C3856 1.391 . S
C3857 C3861 1.376 . S
C3858 C3856 1.394 . S
C3858 C3859 1.369 . S
C3858 C3862 1.531 . S
C3859 C3858 1.369 . S
C3859 C3860 1.410 . S
C3859 C3867 1.503 . S
C3860 C3859 1.410 . S
C3860 C3861 1.392 . S
C3860 C3863 1.511 . S
C3861 C3857 1.376 . S
C3861 C3860 1.392 . S
C3861 H3873 0.929 . S
C3862 C3858 1.531 . S
C3862 H3874 0.960 . S
C3862 H3875 0.962 . S
C3862 H3876 0.960 . S
C3863 C3860 1.511 . S
C3863 H3877 0.961 . S
C3863 H3878 0.961 . S
C3863 H3879 0.961 . S
C3864 C3865 1.370 . S
C3864 C3866 1.363 . S
C3864 H3880 0.931 . S
C3865 C3864 1.370 . S
C3865 C3869 1.408 . S
C3866 C3864 1.363 . S
C3866 C3867 1.370 . S
C3866 C3870 1.524 . S
C3867 C3859 1.503 . S
C3867 C3866 1.370 . S
C3867 C3868 1.403 . S
C3868 C3867 1.403 . S
C3868 C3869 1.404 . S
C3868 C3871 1.539 . S
C3869 C3865 1.408 . S
C3869 C3868 1.404 . S
C3869 H3881 0.930 . S
C3870 C3866 1.524 . S
C3870 H3882 0.956 . S
C3870 H3883 0.961 . S
C3870 H3884 0.961 . S
C3871 C3868 1.539 . S
C3871 H3885 0.958 . S
C3871 H3886 0.961 . S
C3871 H3887 0.960 . S
H3872 C3856 0.931 . S
H3873 C3861 0.929 . S
H3874 C3862 0.960 . S
H3875 C3862 0.962 . S
H3876 C3862 0.960 . S
H3877 C3863 0.961 . S
H3878 C3863 0.961 . S
H3879 C3863 0.961 . S
H3880 C3864 0.931 . S
H3881 C3869 0.930 . S
H3882 C3870 0.956 . S
H3883 C3870 0.961 . S
H3884 C3870 0.961 . S
H3885 C3871 0.958 . S
H3886 C3871 0.961 . S
H3887 C3871 0.960 . S
C3888 C3889 1.391 . S
C3888 C3890 1.394 . S
C3888 H3904 0.931 . S
C3889 C3888 1.391 . S
C3889 C3893 1.376 . S
C3890 C3888 1.394 . S
C3890 C3891 1.369 . S
C3890 C3894 1.531 . S
C3891 C3890 1.369 . S
C3891 C3892 1.410 . S
C3891 C3899 1.503 . S
C3892 C3891 1.410 . S
C3892 C3893 1.392 . S
C3892 C3895 1.511 . S
C3893 C3889 1.376 . S
C3893 C3892 1.392 . S
C3893 H3905 0.929 . S
C3894 C3890 1.531 . S
C3894 H3906 0.960 . S
C3894 H3907 0.962 . S
C3894 H3908 0.960 . S
C3895 C3892 1.511 . S
C3895 H3909 0.961 . S
C3895 H3910 0.961 . S
C3895 H3911 0.961 . S
C3896 C3897 1.370 1_556 S
C3896 C3898 1.363 . S
C3896 H3912 0.931 . S
C3897 C3896 1.370 1_554 S
C3897 C3901 1.408 . S
C3898 C3896 1.363 . S
C3898 C3899 1.370 1_556 S
C3898 C3902 1.524 . S
C3899 C3891 1.503 . S
C3899 C3898 1.370 1_554 S
C3899 C3900 1.403 . S
C3900 C3899 1.403 . S
C3900 C3901 1.404 . S
C3900 C3903 1.539 . S
C3901 C3897 1.408 . S
C3901 C3900 1.404 . S
C3901 H3913 0.930 . S
C3902 C3898 1.524 . S
C3902 H3914 0.956 . S
C3902 H3915 0.961 . S
C3902 H3916 0.961 . S
C3903 C3900 1.539 . S
C3903 H3917 0.958 . S
C3903 H3918 0.961 . S
C3903 H3919 0.960 . S
H3904 C3888 0.931 . S
H3905 C3893 0.929 . S
H3906 C3894 0.960 . S
H3907 C3894 0.962 . S
H3908 C3894 0.960 . S
H3909 C3895 0.961 . S
H3910 C3895 0.961 . S
H3911 C3895 0.961 . S
H3912 C3896 0.931 . S
H3913 C3901 0.930 . S
H3914 C3902 0.956 . S
H3915 C3902 0.961 . S
H3916 C3902 0.961 . S
H3917 C3903 0.958 . S
H3918 C3903 0.961 . S
H3919 C3903 0.960 . S
C3920 C3921 1.391 . S
C3920 C3922 1.394 . S
C3920 H3936 0.931 . S
C3921 C3920 1.391 . S
C3921 C3925 1.376 . S
C3922 C3920 1.394 . S
C3922 C3923 1.369 . S
C3922 C3926 1.531 . S
C3923 C3922 1.369 . S
C3923 C3924 1.410 . S
C3923 C3931 1.503 . S
C3924 C3923 1.410 . S
C3924 C3925 1.392 . S
C3924 C3927 1.511 . S
C3925 C3921 1.376 . S
C3925 C3924 1.392 . S
C3925 H3937 0.929 . S
C3926 C3922 1.531 . S
C3926 H3938 0.960 . S
C3926 H3939 0.962 . S
C3926 H3940 0.960 . S
C3927 C3924 1.511 . S
C3927 H3941 0.961 . S
C3927 H3942 0.961 . S
C3927 H3943 0.961 . S
C3928 C3929 1.370 . S
C3928 C3930 1.363 . S
C3928 H3944 0.931 . S
C3929 C3928 1.370 . S
C3929 C3933 1.408 . S
C3930 C3928 1.363 . S
C3930 C3931 1.370 . S
C3930 C3934 1.524 . S
C3931 C3923 1.503 . S
C3931 C3930 1.370 . S
C3931 C3932 1.403 . S
C3932 C3931 1.403 . S
C3932 C3933 1.404 . S
C3932 C3935 1.539 . S
C3933 C3929 1.408 . S
C3933 C3932 1.404 . S
C3933 H3945 0.930 . S
C3934 C3930 1.524 . S
C3934 H3946 0.956 . S
C3934 H3947 0.961 . S
C3934 H3948 0.961 . S
C3935 C3932 1.539 . S
C3935 H3949 0.958 . S
C3935 H3950 0.961 . S
C3935 H3951 0.960 . S
H3936 C3920 0.931 . S
H3937 C3925 0.929 . S
H3938 C3926 0.960 . S
H3939 C3926 0.962 . S
H3940 C3926 0.960 . S
H3941 C3927 0.961 . S
H3942 C3927 0.961 . S
H3943 C3927 0.961 . S
H3944 C3928 0.931 . S
H3945 C3933 0.930 . S
H3946 C3934 0.956 . S
H3947 C3934 0.961 . S
H3948 C3934 0.961 . S
H3949 C3935 0.958 . S
H3950 C3935 0.961 . S
H3951 C3935 0.960 . S
C3952 C3953 1.391 . S
C3952 C3954 1.394 . S
C3952 H3968 0.931 . S
C3953 C3952 1.391 . S
C3953 C3957 1.376 . S
C3954 C3952 1.394 . S
C3954 C3955 1.369 . S
C3954 C3958 1.531 . S
C3955 C3954 1.369 . S
C3955 C3956 1.415 1_554 S
C3955 C3963 1.503 1_554 S
C3956 C3955 1.415 1_556 S
C3956 C3957 1.373 1_556 S
C3956 C3959 1.526 . S
C3957 C3953 1.376 . S
C3957 C3956 1.373 1_554 S
C3957 H3969 0.929 . S
C3958 C3954 1.531 . S
C3958 H3970 0.960 . S
C3958 H3971 0.962 . S
C3958 H3972 0.960 . S
C3959 C3956 1.526 . S
C3959 H3973 0.961 . S
C3959 H3974 0.961 . S
C3959 H3975 0.961 . S
C3960 C3961 1.370 1_554 S
C3960 C3962 1.363 . S
C3960 H3976 0.931 . S
C3961 C3960 1.370 1_556 S
C3961 C3965 1.408 . S
C3962 C3960 1.363 . S
C3962 C3963 1.370 1_554 S
C3962 C3966 1.524 . S
C3963 C3955 1.503 1_556 S
C3963 C3962 1.370 1_556 S
C3963 C3964 1.403 . S
C3964 C3963 1.403 . S
C3964 C3965 1.404 . S
C3964 C3967 1.539 . S
C3965 C3961 1.408 . S
C3965 C3964 1.404 . S
C3965 H3977 0.930 . S
C3966 C3962 1.524 . S
C3966 H3978 0.956 . S
C3966 H3979 0.961 . S
C3966 H3980 0.961 . S
C3967 C3964 1.539 . S
C3967 H3981 0.958 . S
C3967 H3982 0.961 . S
C3967 H3983 0.960 . S
H3968 C3952 0.931 . S
H3969 C3957 0.929 . S
H3970 C3958 0.960 . S
H3971 C3958 0.962 . S
H3972 C3958 0.960 . S
H3973 C3959 0.961 . S
H3974 C3959 0.961 . S
H3975 C3959 0.961 . S
H3976 C3960 0.931 . S
H3977 C3965 0.930 . S
H3978 C3966 0.956 . S
H3979 C3966 0.961 . S
H3980 C3966 0.961 . S
H3981 C3967 0.958 . S
H3982 C3967 0.961 . S
H3983 C3967 0.960 . S
C3984 C3985 1.391 . S
C3984 C3986 1.394 . S
C3984 H4000 0.931 . S
C3985 C3984 1.391 . S
C3985 C3989 1.376 . S
C3986 C3984 1.394 . S
C3986 C3987 1.369 . S
C3986 C3990 1.531 . S
C3987 C3986 1.369 . S
C3987 C3988 1.410 . S
C3987 C3995 1.503 . S
C3988 C3987 1.410 . S
C3988 C3989 1.392 . S
C3988 C3991 1.511 . S
C3989 C3985 1.376 . S
C3989 C3988 1.392 . S
C3989 H4001 0.929 . S
C3990 C3986 1.531 . S
C3990 H4002 0.960 . S
C3990 H4003 0.962 . S
C3990 H4004 0.960 . S
C3991 C3988 1.511 . S
C3991 H4005 0.961 . S
C3991 H4006 0.961 . S
C3991 H4007 0.961 . S
C3992 C3993 1.370 . S
C3992 C3994 1.363 . S
C3992 H4008 0.931 . S
C3993 C3992 1.370 . S
C3993 C3997 1.408 . S
C3994 C3992 1.363 . S
C3994 C3995 1.370 . S
C3994 C3998 1.524 . S
C3995 C3987 1.503 . S
C3995 C3994 1.370 . S
C3995 C3996 1.403 . S
C3996 C3995 1.403 . S
C3996 C3997 1.404 . S
C3996 C3999 1.539 . S
C3997 C3993 1.408 . S
C3997 C3996 1.404 . S
C3997 H4009 0.930 . S
C3998 C3994 1.524 . S
C3998 H4010 0.956 . S
C3998 H4011 0.961 . S
C3998 H4012 0.961 . S
C3999 C3996 1.539 . S
C3999 H4013 0.958 . S
C3999 H4014 0.961 . S
C3999 H4015 0.960 . S
H4000 C3984 0.931 . S
H4001 C3989 0.929 . S
H4002 C3990 0.960 . S
H4003 C3990 0.962 . S
H4004 C3990 0.960 . S
H4005 C3991 0.961 . S
H4006 C3991 0.961 . S
H4007 C3991 0.961 . S
H4008 C3992 0.931 . S
H4009 C3997 0.930 . S
H4010 C3998 0.956 . S
H4011 C3998 0.961 . S
H4012 C3998 0.961 . S
H4013 C3999 0.958 . S
H4014 C3999 0.961 . S
H4015 C3999 0.960 . S
C4016 C4017 1.391 . S
C4016 C4018 1.394 . S
C4016 H4032 0.931 . S
C4017 C4016 1.391 . S
C4017 C4021 1.376 . S
C4018 C4016 1.394 . S
C4018 C4019 1.369 . S
C4018 C4022 1.531 . S
C4019 C4018 1.369 . S
C4019 C4020 1.410 . S
C4019 C4027 1.503 . S
C4020 C4019 1.410 . S
C4020 C4021 1.392 . S
C4020 C4023 1.511 . S
C4021 C4017 1.376 . S
C4021 C4020 1.392 . S
C4021 H4033 0.929 . S
C4022 C4018 1.531 . S
C4022 H4034 0.960 . S
C4022 H4035 0.962 . S
C4022 H4036 0.960 . S
C4023 C4020 1.511 . S
C4023 H4037 0.961 . S
C4023 H4038 0.961 . S
C4023 H4039 0.961 . S
C4024 C4025 1.370 . S
C4024 C4026 1.363 . S
C4024 H4040 0.931 . S
C4025 C4024 1.370 . S
C4025 C4029 1.408 . S
C4026 C4024 1.363 . S
C4026 C4027 1.370 . S
C4026 C4030 1.524 . S
C4027 C4019 1.503 . S
C4027 C4026 1.370 . S
C4027 C4028 1.403 . S
C4028 C4027 1.403 . S
C4028 C4029 1.404 . S
C4028 C4031 1.539 . S
C4029 C4025 1.408 . S
C4029 C4028 1.404 . S
C4029 H4041 0.930 . S
C4030 C4026 1.524 . S
C4030 H4042 0.956 . S
C4030 H4043 0.961 . S
C4030 H4044 0.961 . S
C4031 C4028 1.539 . S
C4031 H4045 0.958 . S
C4031 H4046 0.961 . S
C4031 H4047 0.960 . S
H4032 C4016 0.931 . S
H4033 C4021 0.929 . S
H4034 C4022 0.960 . S
H4035 C4022 0.962 . S
H4036 C4022 0.960 . S
H4037 C4023 0.961 . S
H4038 C4023 0.961 . S
H4039 C4023 0.961 . S
H4040 C4024 0.931 . S
H4041 C4029 0.930 . S
H4042 C4030 0.956 . S
H4043 C4030 0.961 . S
H4044 C4030 0.961 . S
H4045 C4031 0.958 . S
H4046 C4031 0.961 . S
H4047 C4031 0.960 . S
C977 C111 0.970 . S
C985 C344 1.037 . S
C1009 C64 1.432 . S
C1017 C378 1.435 . S
C1041 C77 0.501 . S
C1049 C447 0.509 . S
C1081 C485 0.726 . S
C1073 C95 0.720 . S
C1105 C25 1.243 . S
C1113 C525 1.223 . S
C1145 C544 0.336 . S
C1137 C36 0.513 . S
C1177 C578 1.257 . S
C1169 C50 1.162 . S
C1201 C11 1.636 . S
C1209 C647 1.588 . S
C1241 C353 2.422 . S
C1233 C237 2.309 . S
C1265 C245 1.003 . S
C1273 C405 1.043 . S
C1305 C418 1.263 . S
C1297 C279 1.216 . S
C1337 C487 1.341 . S
C1329 C175 1.322 . S
C1361 C231 1.807 . S
C1369 C527 1.816 . S
C1401 C553 1.787 . S
C1393 C251 1.620 . S
C1433 C605 0.344 . S
C1425 C273 0.262 . S
C1465 C618 2.187 . S
C1457 C181 2.155 . S
C1497 C348 2.334 . S
C1489 C165 2.356 . S
C1521 C288 1.893 . S
C1529 C658 1.981 . S
C1561 C708 2.641 . S
C1553 C333 2.642 . S
C1593 C767 1.534 . S
C1585 C316 1.404 . S
C1617 C123 1.389 . S
C1625 C645 1.357 . S
C1649 C137 1.330 . S
C1657 C445 1.323 . S
C1681 C330 2.368 . S
C1689 C778 2.458 . S
C1721 C847 0.822 . S
C1713 C302 0.845 . S
C1753 C365 1.126 . S
C1745 C63 1.098 . S
C1785 C833 1.450 . S
C1777 C106 1.397 . S
C1809 C97 0.704 . S
C1817 C428 0.607 . S
C1841 C81 0.817 . S
C1849 C784 0.826 . S
C1881 C504 1.327 . S
C1873 C13 1.190 . S
C1905 C55 0.507 . S
C1913 C725 0.335 . S
C1945 C593 1.311 . S
C1937 C35 1.272 . S
C1977 C868 1.770 . S
C1969 C21 1.758 . S
C2009 C338 2.503 . S
C2001 C147 2.537 . S
C2041 C824 0.975 . S
C2033 C321 0.813 . S
C2065 C119 1.327 . S
C2073 C433 1.322 . S
C2097 C293 1.408 . S
C2105 C788 1.477 . S
C2129 C153 1.859 . S
C2137 C508 2.012 . S
C2169 C698 1.821 . S
C2161 C315 1.821 . S
C2193 C125 0.372 . S
C2201 C584 0.413 . S
C2225 C287 2.302 . S
C2233 C873 2.287 . S
C2257 C193 2.409 . S
C2265 C367 2.439 1_655 S
C2289 C176 1.985 . S
C2297 C673 2.005 . S
C2321 C263 2.637 . S
C2329 C567 2.616 . S
C2353 C246 1.599 . S
C2361 C748 1.739 . S
C2393 C864 1.380 . S
C2385 C277 1.410 . S
C2417 C221 1.348 . S
C2425 C424 1.320 . S
C2457 C473 2.522 . S
C2449 C260 2.508 . S
C2489 C388 0.960 . S
C2481 C204 0.977 . S
C2513 C83 1.046 . S
C2521 C904 1.024 . S
C2553 C818 1.432 . S
C2545 C92 1.387 . S
C2577 C105 0.474 . S
C2585 C967 0.528 . S
C2609 C67 0.776 . S
C2617 C805 0.727 . S
C2641 C53 1.235 . S
C2649 C685 1.235 . S
C2681 C704 0.335 . S
C2673 C8 0.332 . S
C2713 C738 1.255 . S
C2705 C22 1.172 . S
C2745 C887 1.607 . S
C2737 C39 1.632 . S
C2777 C913 2.417 . S
C2769 C265 2.333 . S
C2801 C189 1.015 . S
C2809 C845 1.041 . S
C2841 C938 1.267 . S
C2833 C209 1.237 . S
C2873 C807 1.340 . S
C2865 C217 1.321 . S
C2905 C687 1.815 . S
C2897 C259 1.806 . S
C2929 C195 1.606 . S
C2937 C713 1.789 . S
C2969 C765 0.342 . S
C2961 C203 0.262 . S
C2993 C223 2.157 . S
C3001 C858 2.186 . S
C3033 C908 2.335 . S
C3025 C319 2.357 . S
C3057 C134 1.892 . S
C3065 C498 1.981 . S
C3097 C548 2.648 . S
C3089 C151 2.652 . S
C3129 C607 1.529 . S
C3121 C162 1.471 . S
C3161 C885 1.339 . S
C3153 C305 1.413 . S
C3185 C291 1.332 . S
C3193 C965 1.324 . S
C3225 C458 2.452 . S
C3217 C148 2.372 . S
C3257 C407 0.814 . S
C3249 C120 0.792 . S
C3281 C91 1.111 . S
C3289 C925 1.127 . S
C3321 C393 1.439 . S
C3313 C78 1.445 . S
C3345 C69 0.713 . S
C3353 C948 0.611 . S
C3377 C109 0.800 . S
C3385 C464 0.833 . S
C3409 C41 1.187 . S
C3417 C664 1.329 . S
C3449 C565 0.308 . S
C3441 C27 0.489 . S
C3473 C7 1.252 . S
C3481 C753 1.267 . S
C3505 C49 1.774 . S
C3513 C628 1.771 . S
C3545 C898 2.504 . S
C3537 C329 2.538 . S
C3569 C167 0.816 . S
C3577 C384 0.969 . S
C3609 C953 1.323 . S
C3601 C301 1.329 . S
C3633 C139 1.442 . S
C3641 C468 1.482 . S
C3665 C335 1.831 . S
C3673 C668 2.015 . S
C3705 C538 1.808 . S
C3697 C161 1.823 . S
C3729 C307 0.390 . S
C3737 C744 0.415 . S
C3769 C633 2.285 . S
C3761 C133 2.306 . S
C3801 C927 2.432 . S
C3793 C249 2.435 . S
C3833 C513 2.007 1_665 S
C3825 C218 2.000 . S
C3857 C235 2.636 . S
C3865 C727 2.619 . S
C3897 C588 1.736 . S
C3889 C190 1.577 . S
C3921 C207 1.332 . S
C3929 C624 1.407 . S
C3953 C179 1.290 . S
C3961 C944 1.342 . S
C3993 C793 2.528 . S
C3985 C232 2.483 1_565 S
C4025 C828 0.942 . S
C4017 C274 0.895 . S
