# Generated by pormake.
# Topology gar, (4,6)-cn, num edge types: 1
# Building blocks:
#     Node 0, Type 0, BuildingBlock: UXUYUI_clean_sbu_0, # of connection points: 4
#     Node 1, Type 0, BuildingBlock: UXUYUI_clean_sbu_0, # of connection points: 4
#     Node 2, Type 0, BuildingBlock: UXUYUI_clean_sbu_0, # of connection points: 4
#     Node 3, Type 0, BuildingBlock: UXUYUI_clean_sbu_0, # of connection points: 4
#     Node 4, Type 0, BuildingBlock: UXUYUI_clean_sbu_0, # of connection points: 4
#     Node 5, Type 0, BuildingBlock: UXUYUI_clean_sbu_0, # of connection points: 4
#     Node 6, Type 0, BuildingBlock: UXUYUI_clean_sbu_0, # of connection points: 4
#     Node 7, Type 0, BuildingBlock: UXUYUI_clean_sbu_0, # of connection points: 4
#     Node 8, Type 0, BuildingBlock: UXUYUI_clean_sbu_0, # of connection points: 4
#     Node 9, Type 0, BuildingBlock: UXUYUI_clean_sbu_0, # of connection points: 4
#     Node 10, Type 0, BuildingBlock: UXUYUI_clean_sbu_0, # of connection points: 4
#     Node 11, Type 0, BuildingBlock: UXUYUI_clean_sbu_0, # of connection points: 4
#     Node 12, Type 0, BuildingBlock: UXUYUI_clean_sbu_0, # of connection points: 4
#     Node 13, Type 0, BuildingBlock: UXUYUI_clean_sbu_0, # of connection points: 4
#     Node 14, Type 0, BuildingBlock: UXUYUI_clean_sbu_0, # of connection points: 4
#     Node 15, Type 0, BuildingBlock: UXUYUI_clean_sbu_0, # of connection points: 4
#     Node 16, Type 0, BuildingBlock: UXUYUI_clean_sbu_0, # of connection points: 4
#     Node 17, Type 0, BuildingBlock: UXUYUI_clean_sbu_0, # of connection points: 4
#     Node 18, Type 0, BuildingBlock: UXUYUI_clean_sbu_0, # of connection points: 4
#     Node 19, Type 0, BuildingBlock: UXUYUI_clean_sbu_0, # of connection points: 4
#     Node 20, Type 0, BuildingBlock: UXUYUI_clean_sbu_0, # of connection points: 4
#     Node 21, Type 0, BuildingBlock: UXUYUI_clean_sbu_0, # of connection points: 4
#     Node 22, Type 0, BuildingBlock: UXUYUI_clean_sbu_0, # of connection points: 4
#     Node 23, Type 0, BuildingBlock: UXUYUI_clean_sbu_0, # of connection points: 4
#     Node 24, Type 1, BuildingBlock: CUWYAW_clean_sbu_0, # of connection points: 6
#     Node 25, Type 1, BuildingBlock: CUWYAW_clean_sbu_0, # of connection points: 6
#     Node 26, Type 1, BuildingBlock: CUWYAW_clean_sbu_0, # of connection points: 6
#     Node 27, Type 1, BuildingBlock: CUWYAW_clean_sbu_0, # of connection points: 6
#     Node 28, Type 1, BuildingBlock: CUWYAW_clean_sbu_0, # of connection points: 6
#     Node 29, Type 1, BuildingBlock: CUWYAW_clean_sbu_0, # of connection points: 6
#     Node 30, Type 1, BuildingBlock: CUWYAW_clean_sbu_0, # of connection points: 6
#     Node 31, Type 1, BuildingBlock: CUWYAW_clean_sbu_0, # of connection points: 6
#     Node 32, Type 1, BuildingBlock: CUWYAW_clean_sbu_0, # of connection points: 6
#     Node 33, Type 1, BuildingBlock: CUWYAW_clean_sbu_0, # of connection points: 6
#     Node 34, Type 1, BuildingBlock: CUWYAW_clean_sbu_0, # of connection points: 6
#     Node 35, Type 1, BuildingBlock: CUWYAW_clean_sbu_0, # of connection points: 6
#     Node 36, Type 1, BuildingBlock: CUWYAW_clean_sbu_0, # of connection points: 6
#     Node 37, Type 1, BuildingBlock: CUWYAW_clean_sbu_0, # of connection points: 6
#     Node 38, Type 1, BuildingBlock: CUWYAW_clean_sbu_0, # of connection points: 6
#     Node 39, Type 1, BuildingBlock: CUWYAW_clean_sbu_0, # of connection points: 6
#     Edge 40, Type (0, 1), None
#     Edge 41, Type (0, 1), None
#     Edge 42, Type (0, 1), None
#     Edge 43, Type (0, 1), None
#     Edge 44, Type (0, 1), None
#     Edge 45, Type (0, 1), None
#     Edge 46, Type (0, 1), None
#     Edge 47, Type (0, 1), None
#     Edge 48, Type (0, 1), None
#     Edge 49, Type (0, 1), None
#     Edge 50, Type (0, 1), None
#     Edge 51, Type (0, 1), None
#     Edge 52, Type (0, 1), None
#     Edge 53, Type (0, 1), None
#     Edge 54, Type (0, 1), None
#     Edge 55, Type (0, 1), None
#     Edge 56, Type (0, 1), None
#     Edge 57, Type (0, 1), None
#     Edge 58, Type (0, 1), None
#     Edge 59, Type (0, 1), None
#     Edge 60, Type (0, 1), None
#     Edge 61, Type (0, 1), None
#     Edge 62, Type (0, 1), None
#     Edge 63, Type (0, 1), None
#     Edge 64, Type (0, 1), None
#     Edge 65, Type (0, 1), None
#     Edge 66, Type (0, 1), None
#     Edge 67, Type (0, 1), None
#     Edge 68, Type (0, 1), None
#     Edge 69, Type (0, 1), None
#     Edge 70, Type (0, 1), None
#     Edge 71, Type (0, 1), None
#     Edge 72, Type (0, 1), None
#     Edge 73, Type (0, 1), None
#     Edge 74, Type (0, 1), None
#     Edge 75, Type (0, 1), None
#     Edge 76, Type (0, 1), None
#     Edge 77, Type (0, 1), None
#     Edge 78, Type (0, 1), None
#     Edge 79, Type (0, 1), None
#     Edge 80, Type (0, 1), None
#     Edge 81, Type (0, 1), None
#     Edge 82, Type (0, 1), None
#     Edge 83, Type (0, 1), None
#     Edge 84, Type (0, 1), None
#     Edge 85, Type (0, 1), None
#     Edge 86, Type (0, 1), None
#     Edge 87, Type (0, 1), None
#     Edge 88, Type (0, 1), None
#     Edge 89, Type (0, 1), None
#     Edge 90, Type (0, 1), None
#     Edge 91, Type (0, 1), None
#     Edge 92, Type (0, 1), None
#     Edge 93, Type (0, 1), None
#     Edge 94, Type (0, 1), None
#     Edge 95, Type (0, 1), None
#     Edge 96, Type (0, 1), None
#     Edge 97, Type (0, 1), None
#     Edge 98, Type (0, 1), None
#     Edge 99, Type (0, 1), None
#     Edge 100, Type (0, 1), None
#     Edge 101, Type (0, 1), None
#     Edge 102, Type (0, 1), None
#     Edge 103, Type (0, 1), None
#     Edge 104, Type (0, 1), None
#     Edge 105, Type (0, 1), None
#     Edge 106, Type (0, 1), None
#     Edge 107, Type (0, 1), None
#     Edge 108, Type (0, 1), None
#     Edge 109, Type (0, 1), None
#     Edge 110, Type (0, 1), None
#     Edge 111, Type (0, 1), None
#     Edge 112, Type (0, 1), None
#     Edge 113, Type (0, 1), None
#     Edge 114, Type (0, 1), None
#     Edge 115, Type (0, 1), None
#     Edge 116, Type (0, 1), None
#     Edge 117, Type (0, 1), None
#     Edge 118, Type (0, 1), None
#     Edge 119, Type (0, 1), None
#     Edge 120, Type (0, 1), None
#     Edge 121, Type (0, 1), None
#     Edge 122, Type (0, 1), None
#     Edge 123, Type (0, 1), None
#     Edge 124, Type (0, 1), None
#     Edge 125, Type (0, 1), None
#     Edge 126, Type (0, 1), None
#     Edge 127, Type (0, 1), None
#     Edge 128, Type (0, 1), None
#     Edge 129, Type (0, 1), None
#     Edge 130, Type (0, 1), None
#     Edge 131, Type (0, 1), None
#     Edge 132, Type (0, 1), None
#     Edge 133, Type (0, 1), None
#     Edge 134, Type (0, 1), None
#     Edge 135, Type (0, 1), None
# Relax obj value: 0.331
# Max RMSD: 0.360
# Mean RMSD: 0.200
data_MOF--net-gar--node1-UXUYUI_clean_sbu_0--node2-CUWYAW_clean_sbu_0--edge1-none
_symmetry_space_group_name_H-M    P1
_symmetry_Int_Tables_number       1
_symmetry_cell_setting            triclinic
loop_
_symmetry_equiv_pos_as_xyz
'x, y, z'
_cell_length_a     47.49521
_cell_length_b     38.932696
_cell_length_c     39.081531
_cell_angle_alpha  101.2386
_cell_angle_beta   96.887825
_cell_angle_gamma 99.601248
loop_
_atom_site_label
_atom_site_type_symbol
_atom_site_fract_x
_atom_site_fract_y
_atom_site_fract_z
_atom_type_partial_charge
Li0 Li 0.08131 0.33504 0.5108 0.0
Li1 Li 0.12508 0.37697 0.54414 0.0
Li2 Li 0.12984 0.32336 0.50181 0.0
Li3 Li 0.11286 0.32144 0.55921 0.0
C4 C 0.10162 0.36782 0.45912 0.0
N5 N 0.07841 0.37609 0.39358 0.0
C6 C 0.09543 0.40065 0.45491 0.0
C7 C 0.09603 0.3391 0.42994 0.0
C8 C 0.08371 0.40439 0.42162 0.0
C9 C 0.08432 0.34381 0.39702 0.0
C10 C 0.07342 0.35744 0.58802 0.0
C11 C 0.07034 0.35866 0.64953 0.0
N12 N 0.04102 0.35277 0.64192 0.0
C13 C 0.04322 0.35186 0.58102 0.0
C14 C 0.08707 0.36121 0.62274 0.0
C15 C 0.02726 0.34935 0.60852 0.0
C16 C 1.02261 0.30026 0.4879 0.0
N17 N 0.04249 0.33044 0.49018 0.0
C18 C 1.00602 0.35972 0.46902 0.0
C19 C 0.03467 0.36 0.4816 0.0
C20 C 0.98477 0.32937 0.46706 0.0
C21 C 0.99339 0.29915 0.47638 0.0
H22 H 0.02924 0.27757 0.49628 0.0
H23 H 0.05047 0.38434 0.48596 0.0
C24 C 0.14284 0.45141 0.54521 0.0
N25 N 0.13685 0.42652 0.56468 0.0
C26 C 0.13945 0.48645 0.55781 0.0
C27 C 0.12531 0.46954 0.61051 0.0
C28 C 0.13036 0.43558 0.59775 0.0
C29 C 0.1284 0.49474 0.58957 0.0
H30 H 0.14766 0.44343 0.51879 0.0
H31 H 0.12635 0.41555 0.61286 0.0
C32 C 0.08673 0.25699 0.49359 0.0
N33 N 0.06809 0.18705 0.45654 0.0
C34 C 0.09195 0.22888 0.50934 0.0
C35 C 0.07178 0.24948 0.45909 0.0
C36 C 0.08245 0.19372 0.49014 0.0
C37 C 0.06259 0.21397 0.44079 0.0
C38 C 0.17587 0.36792 0.56541 0.0
C39 C 0.19472 0.38007 0.54359 0.0
C40 C 0.18173 0.3821 0.60179 0.0
C41 C 0.21919 0.40642 0.5586 0.0
C42 C 0.20641 0.40844 0.61578 0.0
N43 N 0.22447 0.41995 0.59407 0.0
C44 C 0.16175 0.32159 0.44532 0.0
C45 C 0.15048 0.26621 0.46205 0.0
C46 C 0.17345 0.3056 0.41663 0.0
N47 N 0.15 0.30163 0.46684 0.0
C48 C 0.1618 0.24905 0.43356 0.0
C49 C 0.17308 0.26866 0.41 0.0
H50 H 0.16132 0.3498 0.44991 0.0
H51 H 0.14153 0.25103 0.47986 0.0
C52 C 0.08268 0.27873 0.59298 0.0
N53 N 0.11019 0.29583 0.5944 0.0
C54 C 0.07615 0.25802 0.61693 0.0
C55 C 0.12671 0.27215 0.64326 0.0
C56 C 0.13218 0.29356 0.61902 0.0
C57 C 0.09837 0.25378 0.64199 0.0
H58 H 0.06588 0.28081 0.57263 0.0
H59 H 0.15392 0.30741 0.61912 0.0
O60 O 0.11271 0.364 0.49186 0.0
O61 O 0.08935 0.35948 0.56109 0.0
O62 O 0.09586 0.29159 0.51212 0.0
O63 O 0.15174 0.34234 0.55118 0.0
H64 H 0.09864 0.42245 0.47764 0.0
H65 H 0.10063 0.31344 0.43257 0.0
H66 H 0.07857 0.42965 0.41814 0.0
H67 H 0.07991 0.3218 0.37421 0.0
H68 H 0.08068 0.36105 0.67633 0.0
H69 H 0.03209 0.34973 0.55475 0.0
H70 H 0.11032 0.36484 0.6289 0.0
H71 H 1.00389 0.3448 0.60331 0.0
H72 H 1.00056 0.38365 0.46222 0.0
H73 H 0.97778 0.27504 0.475 0.0
H74 H 0.14249 0.50561 0.54125 0.0
H75 H 0.11719 0.47526 0.63534 0.0
H76 H 0.10334 0.23413 0.53606 0.0
H77 H 0.06691 0.27076 0.44672 0.0
H78 H 0.08646 0.17173 0.50198 0.0
H79 H 0.05095 0.20781 0.41411 0.0
H80 H 0.19044 0.36933 0.51537 0.0
H81 H 0.16724 0.37306 0.61898 0.0
H82 H 0.23396 0.41614 0.54204 0.0
H83 H 0.21119 0.41977 0.64388 0.0
H84 H 0.18268 0.32208 0.39985 0.0
H85 H 0.16109 0.22059 0.42964 0.0
H86 H 0.05421 0.24332 0.61397 0.0
H87 H 0.14444 0.26868 0.66162 0.0
Li88 Li 1.01156 0.74315 0.60989 0.0
Li89 Li 0.0395 0.72302 0.65647 0.0
Li90 Li 0.99518 0.68597 0.61661 0.0
Li91 Li 0.99119 0.73469 0.66133 0.0
C92 C 0.0516 0.71103 0.58083 0.0
N93 N 0.08819 0.72663 0.53341 0.0
C94 C 0.0816 0.71916 0.59134 0.0
C95 C 0.04037 0.71015 0.54577 0.0
C96 C 0.09967 0.7273 0.56716 0.0
C97 C 0.05917 0.71819 0.5223 0.0
C98 C 1.02231 0.80293 0.66621 0.0
C99 C 0.03726 0.8647 0.69681 0.0
N100 N 1.01304 0.87221 0.67993 0.0
C101 C 0.99753 0.81131 0.64919 0.0
C102 C 0.0423 0.82983 0.6903 0.0
C103 C 0.99323 0.84646 0.6565 0.0
C104 C 0.99923 0.77397 0.55004 0.0
N105 N 1.01821 0.77295 0.57859 0.0
C106 C 0.05464 0.81485 0.56422 0.0
C107 C 0.04539 0.79275 0.58602 0.0
C108 C 0.03552 0.81712 0.53483 0.0
C109 C 1.00748 0.79642 0.52764 0.0
H110 H 0.97778 0.75773 0.5449 0.0
H111 H 0.05991 0.79105 0.6089 0.0
C112 C 0.08349 0.69276 0.68525 0.0
N113 N 0.07645 0.7239 0.6799 0.0
C114 C 0.11206 0.69156 0.69731 0.0
C115 C 0.12529 0.75467 0.69876 0.0
C116 C 0.0964 0.75473 0.68707 0.0
C117 C 0.13355 0.72257 0.70312 0.0
H118 H 0.06707 0.66861 0.67878 0.0
H119 H 0.09011 0.77891 0.68194 0.0
C120 C 0.94679 0.69848 0.59371 0.0
N121 N 0.8984 0.64935 0.55761 0.0
C122 C 0.92544 0.68515 0.61201 0.0
C123 C 0.94346 0.68698 0.55702 0.0
C124 C 0.90116 0.66029 0.5933 0.0
C125 C 0.91887 0.66208 0.53926 0.0
C126 C 0.9978 0.68459 0.69883 0.0
C127 C 0.96908 0.66898 0.69888 0.0
C128 C 1.01763 0.69279 0.7301 0.0
C129 C 0.96058 0.66231 0.73036 0.0
C130 C 1.00828 0.68577 0.76105 0.0
N131 N 0.98018 0.67082 0.76055 0.0
C132 C 0.99236 0.63263 0.55906 0.0
C133 C 0.97884 0.61189 0.60903 0.0
C134 C 1.00117 0.60095 0.54613 0.0
N135 N 0.98364 0.63839 0.5912 0.0
C136 C 0.98584 0.57895 0.59604 0.0
C137 C 0.99929 0.57459 0.56578 0.0
H138 H 0.99566 0.65402 0.54544 0.0
H139 H 0.97277 0.61744 0.63501 0.0
C140 C 0.94638 0.7653 0.69204 0.0
N141 N 0.97297 0.75695 0.69769 0.0
C142 C 0.93601 0.78552 0.71968 0.0
C143 C 0.98082 0.78868 0.75788 0.0
C144 C 0.99034 0.76871 0.72956 0.0
C145 C 0.95334 0.79732 0.75314 0.0
H146 H 0.93357 0.75705 0.66599 0.0
H147 H 1.012 0.76337 0.73269 0.0
O148 O 0.03353 0.70395 0.60468 0.0
O149 O 0.027 0.76862 0.65967 0.0
O150 O 0.97075 0.72278 0.61159 0.0
O151 O 1.00664 0.69123 0.66825 0.0
H152 H 0.09103 0.71907 0.61777 0.0
H153 H 1.01734 0.70495 0.53695 0.0
H154 H 0.12287 0.73403 0.57522 0.0
H155 H 0.05064 0.71817 0.49536 0.0
H156 H 0.05259 0.88579 0.71529 0.0
H157 H 0.98169 0.79097 0.6306 0.0
H158 H 0.0615 0.82385 0.7039 0.0
H159 H 0.97415 0.85327 0.64357 0.0
H160 H 0.07613 0.8313 0.57132 0.0
H161 H 0.99206 0.79828 0.50561 0.0
H162 H 0.1174 0.66626 0.70038 0.0
H163 H 0.14104 0.77932 0.70362 0.0
H164 H 0.92755 0.69391 0.64034 0.0
H165 H 0.95984 0.69681 0.54244 0.0
H166 H 0.88449 0.64971 0.60715 0.0
H167 H 0.91609 0.6528 0.51089 0.0
H168 H 0.95352 0.66204 0.67488 0.0
H169 H 0.03995 0.70482 0.7306 0.0
H170 H 0.9384 0.65036 0.73079 0.0
H171 H 1.02338 0.69221 0.78543 0.0
H172 H 1.01102 0.59804 0.52238 0.0
H173 H 0.98376 0.55874 0.61158 0.0
H174 H 0.91463 0.79161 0.71502 0.0
H175 H 0.99502 0.79782 0.78304 0.0
Li176 Li 0.58195 0.83236 0.99746 0.0
Li177 Li 0.62272 0.87536 0.03598 0.0
Li178 Li 0.6317 0.8248 0.99532 0.0
Li179 Li 0.60997 0.81925 0.04825 0.0
C180 C 0.6037 0.8892 0.96754 0.0
N181 N 0.57664 0.93273 0.93226 0.0
C182 C 0.58569 0.90984 0.98417 0.0
C183 C 0.60837 0.89132 0.9333 0.0
C184 C 0.57195 0.93132 0.96564 0.0
C185 C 0.59461 0.91359 0.91597 0.0
C186 C 0.56653 0.85587 0.07142 0.0
C187 C 0.55569 0.85531 0.13022 0.0
N188 N 0.52759 0.85569 0.11881 0.0
C189 C 0.53771 0.85752 0.06073 0.0
C190 C 0.5757 0.85563 0.10679 0.0
C191 C 0.51828 0.85679 0.08484 0.0
C192 C 0.52376 0.80037 0.98415 0.0
N193 N 0.54358 0.82294 0.97255 0.0
C194 C 0.50643 0.83972 0.93658 0.0
C195 C 0.53551 0.84031 0.94723 0.0
C196 C 0.48523 0.81926 0.95054 0.0
C197 C 0.49429 0.79794 0.9733 0.0
H198 H 0.53083 0.78598 1.00356 0.0
H199 H 0.55141 0.85586 0.93616 0.0
C200 C 0.643 0.95099 0.04435 0.0
N201 N 0.63334 0.92391 0.05987 0.0
C202 C 0.64045 0.98578 0.0593 0.0
C203 C 0.61996 0.96402 0.1066 0.0
C204 C 0.62412 0.93023 0.09166 0.0
C205 C 0.62681 0.99172 0.08933 0.0
H206 H 0.65032 0.9452 0.01906 0.0
H207 H 0.61783 0.90846 0.10402 0.0
C208 C 0.58758 0.7644 0.96885 0.0
N209 N 0.56763 0.7143 0.90642 0.0
C210 C 0.57878 0.72845 0.96941 0.0
C211 C 0.58607 0.77491 0.93655 0.0
C212 C 0.56877 0.70351 0.93754 0.0
C213 C 0.57598 0.74916 0.90527 0.0
C214 C 0.67348 0.86839 0.06057 0.0
C215 C 0.69258 0.88101 0.03924 0.0
C216 C 0.67864 0.88267 0.09694 0.0
C217 C 0.71659 0.90789 0.0547 0.0
C218 C 0.70289 0.90954 0.11139 0.0
N219 N 0.7212 0.92149 0.09016 0.0
C220 C 0.6638 0.82272 0.93927 0.0
C221 C 0.65599 0.76961 0.96081 0.0
C222 C 0.67528 0.80562 0.91096 0.0
N223 N 0.65399 0.80436 0.96301 0.0
C224 C 0.6669 0.75126 0.93262 0.0
C225 C 0.67624 0.76909 0.90678 0.0
H226 H 0.66194 0.85037 0.94179 0.0
H227 H 0.64775 0.75565 0.98002 0.0
C228 C 0.5781 0.77403 0.07853 0.0
N229 N 0.60522 0.79338 0.08275 0.0
C230 C 0.5707 0.75346 0.10238 0.0
C231 C 0.61954 0.77283 0.13452 0.0
C232 C 0.62586 0.79384 0.11022 0.0
C233 C 0.59169 0.75208 0.13037 0.0
H234 H 0.56233 0.77451 0.05632 0.0
H235 H 0.64723 0.80978 0.11272 0.0
O236 O 0.61427 0.86427 0.98288 0.0
O237 O 0.58551 0.85531 0.04745 0.0
O238 O 0.59732 0.78908 0.99991 0.0
O239 O 0.64975 0.84231 0.04585 0.0
H240 H 0.58125 0.90802 1.01034 0.0
H241 H 0.62171 0.87498 0.91982 0.0
H242 H 0.55736 0.94664 0.97755 0.0
H243 H 0.59779 0.91523 0.88935 0.0
H244 H 0.56251 0.85466 0.15747 0.0
H245 H 0.53042 0.85992 0.03421 0.0
H246 H 0.598 0.85539 0.11616 0.0
H247 H 0.49581 0.85726 0.07658 0.0
H248 H 0.501 0.85658 0.91884 0.0
H249 H 0.47894 0.78046 0.98365 0.0
H250 H 0.64639 1.00695 0.04567 0.0
H251 H 0.60992 0.96795 0.13017 0.0
H252 H 0.5797 0.71995 0.99423 0.0
H253 H 0.59267 0.80263 0.93558 0.0
H254 H 0.56191 0.67558 0.93754 0.0
H255 H 0.57478 0.75688 0.88008 0.0
H256 H 0.68882 0.87026 1.01103 0.0
H257 H 0.66392 0.87337 0.11377 0.0
H258 H 0.73155 0.91797 0.03852 0.0
H259 H 0.70711 0.92096 0.13948 0.0
H260 H 0.68306 0.82084 0.89241 0.0
H261 H 0.66704 0.72316 0.93053 0.0
H262 H 0.54925 0.73696 0.09751 0.0
H263 H 0.63636 0.77168 0.15535 0.0
Li264 Li 0.51134 0.2656 0.12445 0.0
Li265 Li 0.55157 0.2555 0.16567 0.0
Li266 Li 0.5141 0.20682 0.13266 0.0
Li267 Li 0.50465 0.25025 0.18086 0.0
C268 C 0.56241 0.2561 0.09831 0.0
N269 N 0.60428 0.29244 0.06784 0.0
C270 C 0.5687 0.29348 0.10613 0.0
C271 C 0.57788 0.2373 0.0754 0.0
C272 C 0.58975 0.31131 0.09027 0.0
C273 C 0.59889 0.25613 0.06024 0.0
C274 C 0.52514 0.3189 0.20114 0.0
C275 C 0.53732 0.34917 0.26261 0.0
N276 N 0.51452 0.36584 0.25891 0.0
C277 C 0.50168 0.33619 0.19808 0.0
C278 C 0.54309 0.3255 0.23373 0.0
C279 C 0.49678 0.35995 0.22749 0.0
C280 C 0.503 0.27107 0.05479 0.0
N281 N 0.50145 0.2885 0.08803 0.0
C282 C 0.50155 0.34311 0.06964 0.0
C283 C 0.49929 0.32335 0.0955 0.0
C284 C 0.50727 0.327 0.03643 0.0
C285 C 0.50623 0.29009 0.0283 0.0
H286 H 0.50503 0.24334 0.04992 0.0
H287 H 0.49884 0.33674 0.12218 0.0
C288 C 0.60275 0.23611 0.16224 0.0
N289 N 0.59265 0.26441 0.17884 0.0
C290 C 0.63172 0.23462 0.16895 0.0
C291 C 0.64038 0.29205 0.20912 0.0
C292 C 0.61085 0.29277 0.20127 0.0
C293 C 0.65093 0.26208 0.19331 0.0
H294 H 0.58797 0.21409 0.14421 0.0
H295 H 0.60258 0.31553 0.21351 0.0
C296 C 0.45796 0.20313 0.11997 0.0
N297 N 0.41341 0.14554 0.09149 0.0
C298 C 0.44484 0.18325 0.14195 0.0
C299 C 0.44839 0.19388 0.08356 0.0
C300 C 0.42236 0.15417 0.12702 0.0
C301 C 0.42584 0.16463 0.06966 0.0
C302 C 0.55181 0.20508 0.20244 0.0
C303 C 0.55999 0.17263 0.18993 0.0
C304 C 0.56647 0.2271 0.23442 0.0
C305 C 0.58254 0.16267 0.20976 0.0
C306 C 0.58903 0.21632 0.25331 0.0
N307 N 0.59649 0.18455 0.24074 0.0
C308 C 0.5186 0.15488 0.07589 0.0
C309 C 0.49596 0.13088 0.11929 0.0
C310 C 0.52136 0.12109 0.05865 0.0
N311 N 0.50752 0.15925 0.10656 0.0
C312 C 0.49728 0.09634 0.10209 0.0
C313 C 0.51162 0.0916 0.07257 0.0
H314 H 0.52681 0.17788 0.0659 0.0
H315 H 0.48743 0.13521 0.1439 0.0
C316 C 0.45804 0.27021 0.21025 0.0
N317 N 0.48344 0.25969 0.21817 0.0
C318 C 0.4451 0.28703 0.23718 0.0
C319 C 0.48348 0.27918 0.2799 0.0
C320 C 0.49566 0.26245 0.25209 0.0
C321 C 0.4585 0.29294 0.27243 0.0
H322 H 0.449 0.26786 0.18295 0.0
H323 H 0.51583 0.25384 0.25755 0.0
O324 O 0.54191 0.23786 0.11364 0.0
O325 O 0.52996 0.29485 0.17281 0.0
O326 O 0.4801 0.2315 0.13404 0.0
O327 O 0.5296 0.21519 0.18352 0.0
H328 H 0.55749 0.30873 0.12415 0.0
H329 H 0.57402 0.20845 0.06966 0.0
H330 H 0.59456 0.34019 0.09584 0.0
H331 H 0.61098 0.24187 0.0425 0.0
H332 H 0.55086 0.35411 0.28805 0.0
H333 H 0.48668 0.33038 0.17373 0.0
H334 H 0.56089 0.31188 0.237 0.0
H335 H 0.47856 0.37321 0.22549 0.0
H336 H 0.50273 0.37168 0.07716 0.0
H337 H 0.51097 0.27701 1.00314 0.0
H338 H 0.63901 0.21181 0.15559 0.0
H339 H 0.65449 0.31407 0.22803 0.0
H340 H 0.45209 0.19006 0.1702 0.0
H341 H 0.45832 0.20909 0.06623 0.0
H342 H 0.41206 0.13843 0.14368 0.0
H343 H 0.41822 0.15711 0.04151 0.0
H344 H 0.54917 0.15533 0.16513 0.0
H345 H 0.56098 0.25261 0.24424 0.0
H346 H 0.58889 0.13748 0.2006 0.0
H347 H 0.60066 0.23326 0.27794 0.0
H348 H 0.53231 0.11827 0.03578 0.0
H349 H 0.48946 0.07407 0.11352 0.0
H350 H 0.42534 0.29635 0.23042 0.0
H351 H 0.49432 0.28297 0.30675 0.0
Li352 Li 0.11281 0.84507 0.17045 0.0
Li353 Li 0.14692 0.81905 0.21495 0.0
Li354 Li 0.10861 0.77653 0.16462 0.0
Li355 Li 0.09197 0.8142 0.21586 0.0
C356 C 0.15475 0.82115 0.13269 0.0
N357 N 0.17725 0.83944 0.07532 0.0
C358 C 0.17725 0.85059 0.13763 0.0
C359 C 0.14387 0.80075 0.09866 0.0
C360 C 0.18819 0.85952 0.10824 0.0
C361 C 0.15555 0.81044 0.06997 0.0
C362 C 0.1139 0.88095 0.24997 0.0
C363 C 0.11266 0.90465 0.31143 0.0
N364 N 0.09231 0.92324 0.30182 0.0
C365 C 0.09311 0.90042 0.24068 0.0
C366 C 0.12387 0.88313 0.28559 0.0
C367 C 0.08241 0.9216 0.26729 0.0
C368 C 0.07784 0.88561 0.13224 0.0
N369 N 0.10593 0.88565 0.14506 0.0
C370 C 0.12014 0.94168 0.12706 0.0
C371 C 0.127 0.9133 0.14254 0.0
C372 C 0.09125 0.942 0.11346 0.0
C373 C 0.07017 0.91297 0.11616 0.0
H374 H 0.0609 0.8647 0.13521 0.0
H375 H 0.14922 0.91401 0.15325 0.0
C376 C 0.1945 0.78557 0.23995 0.0
N377 N 0.18638 0.81796 0.24207 0.0
C378 C 0.22092 0.78223 0.25888 0.0
C379 C 0.23115 0.84564 0.2816 0.0
C380 C 0.20442 0.84778 0.26253 0.0
C381 C 0.23994 0.8125 0.28022 0.0
H382 H 0.18024 0.76189 0.22376 0.0
H383 H 0.19806 0.87342 0.26435 0.0
C384 C 0.0567 0.79257 0.13616 0.0
N385 N 1.01386 0.7637 0.07849 0.0
C386 C 0.02911 0.77708 0.14094 0.0
C387 C 0.06247 0.7935 0.10209 0.0
C388 C 1.00776 0.76258 0.11143 0.0
C389 C 0.04053 0.77875 0.07327 0.0
C390 C 0.11959 0.75807 0.24113 0.0
C391 C 0.11198 0.72082 0.23225 0.0
C392 C 0.13147 0.77546 0.2759 0.0
C393 C 0.11622 0.70155 0.25846 0.0
C394 C 0.13541 0.75524 0.30133 0.0
N395 N 0.12775 0.71901 0.29216 0.0
C396 C 0.12136 0.71032 0.12476 0.0
C397 C 0.07306 0.70806 0.13475 0.0
C398 C 0.11547 0.67323 0.11035 0.0
N399 N 0.10025 0.727 0.13684 0.0
C400 C 0.06621 0.67126 0.12035 0.0
C401 C 0.08759 0.65296 0.10839 0.0
H402 H 0.14309 0.72549 0.12751 0.0
H403 H 0.05687 0.72114 0.14587 0.0
C404 C 0.03708 0.82878 0.23199 0.0
N405 N 0.05897 0.81272 0.24265 0.0
C406 C 1.01113 0.825 0.24613 0.0
C407 C 0.03065 0.789 0.28295 0.0
C408 C 0.05617 0.79333 0.26798 0.0
C409 C 1.00732 0.80447 0.27177 0.0
H410 H 0.03934 0.84369 0.2115 0.0
H411 H 0.07332 0.78014 0.27591 0.0
O412 O 0.14328 0.81251 0.16102 0.0
O413 O 0.124 0.85932 0.22427 0.0
O414 O 0.07798 0.80669 0.1647 0.0
O415 O 0.11625 0.77736 0.21569 0.0
H416 H 0.18595 0.86657 0.16386 0.0
H417 H 0.12659 0.7777 0.09445 0.0
H418 H 0.20545 0.88232 0.11163 0.0
H419 H 0.14734 0.79496 0.04346 0.0
H420 H 0.12011 0.90654 0.33912 0.0
H421 H 0.08509 0.89888 0.2132 0.0
H422 H 0.14009 0.86838 0.29319 0.0
H423 H 0.06618 0.93666 0.2605 0.0
H424 H 0.13734 0.96343 0.12619 0.0
H425 H 0.04755 0.91181 0.10684 0.0
H426 H 0.22621 0.75601 0.25704 0.0
H427 H 0.24478 0.86991 0.29764 0.0
H428 H 1.02433 0.77588 0.1671 0.0
H429 H 0.08359 0.80577 0.098 0.0
H430 H 0.98635 0.75037 0.11472 0.0
H431 H 0.04469 0.77932 0.04675 0.0
H432 H 0.10298 0.70692 0.20541 0.0
H433 H 0.13768 0.80424 0.28311 0.0
H434 H 0.11043 0.67271 0.25198 0.0
H435 H 0.1446 0.76834 0.32834 0.0
H436 H 0.13278 0.66049 0.10175 0.0
H437 H 0.04446 0.65711 0.11989 0.0
H438 H 0.99414 0.83787 0.23677 0.0
H439 H 0.02888 0.7725 0.30221 0.0
Li440 Li 0.52192 0.79645 0.49179 0.0
Li441 Li 0.48306 0.75496 0.44292 0.0
Li442 Li 0.51769 0.72763 0.4886 0.0
Li443 Li 0.53782 0.75777 0.44334 0.0
C444 C 0.48297 0.77541 0.53021 0.0
N445 N 0.47761 0.81156 0.59653 0.0
C446 C 0.46045 0.79398 0.53446 0.0
C447 C 0.50259 0.77488 0.55965 0.0
C448 C 0.4582 0.81226 0.56823 0.0
C449 C 0.49952 0.79332 0.59297 0.0
C450 C 0.52128 0.81115 0.41457 0.0
C451 C 0.51635 0.81278 0.35283 0.0
N452 N 0.53702 0.84309 0.36071 0.0
C453 C 0.54235 0.84241 0.42212 0.0
C454 C 0.50806 0.79625 0.37972 0.0
C455 C 0.55006 0.85811 0.39449 0.0
C456 C 0.55839 0.86364 0.5284 0.0
N457 N 0.53028 0.84651 0.51851 0.0
C458 C 0.5147 0.90232 0.53586 0.0
C459 C 0.50857 0.86528 0.52179 0.0
C460 C 0.54355 0.92079 0.54584 0.0
C461 C 0.5655 0.90068 0.54221 0.0
H462 H 0.57545 0.84888 0.52399 0.0
H463 H 0.48644 0.85189 0.512 0.0
C464 C 0.42614 0.72679 0.39374 0.0
N465 N 0.44373 0.75628 0.41539 0.0
C466 C 0.39983 0.72928 0.37392 0.0
C467 C 0.40941 0.79233 0.39853 0.0
C468 C 0.43553 0.78867 0.41801 0.0
C469 C 0.39095 0.76242 0.37579 0.0
H470 H 0.43258 0.70116 0.39142 0.0
H471 H 0.44952 0.81211 0.43501 0.0
C472 C 0.5786 0.76026 0.50562 0.0
N473 N 0.63207 0.74598 0.52774 0.0
C474 C 0.58814 0.73128 0.48663 0.0
C475 C 0.59618 0.78181 0.53604 0.0
C476 C 0.61527 0.72457 0.49816 0.0
C477 C 0.62315 0.77418 0.54677 0.0
C478 C 0.51063 0.68899 0.40742 0.0
C479 C 0.52744 0.66402 0.41392 0.0
C480 C 0.49851 0.68816 0.3728 0.0
C481 C 0.53238 0.63903 0.38549 0.0
C482 C 0.50386 0.66267 0.34511 0.0
N483 N 0.52059 0.63889 0.35197 0.0
C484 C 0.50694 0.65378 0.50427 0.0
C485 C 0.54608 0.6936 0.54223 0.0
C486 C 0.51313 0.62539 0.52004 0.0
N487 N 0.52355 0.68739 0.51504 0.0
C488 C 0.55336 0.66587 0.55813 0.0
C489 C 0.53707 0.63081 0.54706 0.0
H490 H 0.48917 0.64854 0.48268 0.0
H491 H 0.55911 0.72008 0.5514 0.0
C492 C 0.59236 0.79076 0.43302 0.0
N493 N 0.57139 0.7617 0.41735 0.0
C494 C 0.61866 0.7971 0.42026 0.0
C495 C 0.60188 0.74364 0.37477 0.0
C496 C 0.57575 0.73823 0.38856 0.0
C497 C 0.62397 0.77352 0.39059 0.0
H498 H 0.58887 0.80894 0.45612 0.0
H499 H 0.55922 0.71512 0.37627 0.0
O500 O 0.48691 0.75942 0.49725 0.0
O501 O 0.51363 0.79517 0.44117 0.0
O502 O 0.55205 0.76723 0.49481 0.0
O503 O 0.50553 0.71364 0.43487 0.0
H504 H 0.44541 0.79508 0.51177 0.0
H505 H 0.52035 0.76095 0.55669 0.0
H506 H 0.44137 0.82751 0.5719 0.0
H507 H 0.51475 0.79346 0.61593 0.0
H508 H 0.50634 0.80152 0.32571 0.0
H509 H 0.55273 0.8543 0.449 0.0
H510 H 0.49159 0.77218 0.37352 0.0
H511 H 0.56642 0.88223 0.39989 0.0
H512 H 0.49698 0.91651 0.53753 0.0
H513 H 0.58809 0.91352 0.54912 0.0
H514 H 0.38662 0.70526 0.35688 0.0
H515 H 0.404 0.81852 0.40092 0.0
H516 H 0.57481 0.7143 0.46312 0.0
H517 H 0.58891 0.80387 0.55152 0.0
H518 H 0.62295 0.70232 0.4836 0.0
H519 H 0.63696 0.79061 0.57029 0.0
H520 H 0.53653 0.66385 0.44061 0.0
H521 H 0.48515 0.70703 0.36739 0.0
H522 H 0.54551 0.6197 0.39009 0.0
H523 H 0.49474 0.6618 0.31815 0.0
H524 H 0.49979 0.59904 0.51019 0.0
H525 H 0.57194 0.6719 0.57881 0.0
H526 H 0.63489 0.82011 0.43413 0.0
H527 H 0.60455 0.72472 0.35169 0.0
Li528 Li 0.61206 0.34482 0.67003 0.0
Li529 Li 0.64601 0.3182 0.71428 0.0
Li530 Li 0.60772 0.27629 0.66443 0.0
Li531 Li 0.5911 0.31405 0.71599 0.0
C532 C 0.65284 0.31825 0.63066 0.0
N533 N 0.67402 0.33075 0.57049 0.0
C534 C 0.67727 0.34473 0.63332 0.0
C535 C 0.63926 0.29798 0.59745 0.0
C536 C 0.68757 0.35069 0.60256 0.0
C537 C 0.65029 0.30472 0.56732 0.0
C538 C 0.61384 0.3811 0.74966 0.0
C539 C 0.61331 0.40568 0.81112 0.0
N540 N 0.59331 0.42473 0.80152 0.0
C541 C 0.59341 0.40104 0.74038 0.0
C542 C 0.62399 0.38349 0.78527 0.0
C543 C 0.58324 0.42289 0.767 0.0
C544 C 0.57711 0.38537 0.63195 0.0
N545 N 0.60522 0.38531 0.64456 0.0
C546 C 0.61946 0.44108 0.62612 0.0
C547 C 0.62633 0.41273 0.64165 0.0
C548 C 0.59054 0.4415 0.61272 0.0
C549 C 0.56943 0.41264 0.61573 0.0
H550 H 0.56017 0.36459 0.63518 0.0
H551 H 0.64859 0.41323 0.65204 0.0
C552 C 0.69457 0.28481 0.73752 0.0
N553 N 0.6856 0.31682 0.74126 0.0
C554 C 0.72105 0.28149 0.75642 0.0
C555 C 0.72961 0.34419 0.78237 0.0
C556 C 0.70286 0.3463 0.7633 0.0
C557 C 0.73924 0.31142 0.77942 0.0
H558 H 0.68096 0.26138 0.72006 0.0
H559 H 0.69586 0.37163 0.76643 0.0
C560 C 0.55472 0.29179 0.63773 0.0
N561 N 0.50949 0.26145 0.58314 0.0
C562 C 0.5281 0.27573 0.64483 0.0
C563 C 0.55828 0.29259 0.60289 0.0
C564 C 0.50552 0.26048 0.61685 0.0
C565 C 0.53516 0.27708 0.57566 0.0
C566 C 0.62127 0.2576 0.74007 0.0
C567 C 0.61886 0.22065 0.72985 0.0
C568 C 0.63081 0.27485 0.77544 0.0
C569 C 0.62585 0.20147 0.75531 0.0
C570 C 0.6377 0.25474 0.80009 0.0
N571 N 0.63506 0.21877 0.7896 0.0
C572 C 0.62005 0.21036 0.62357 0.0
C573 C 0.57233 0.20755 0.636 0.0
C574 C 0.61425 0.17327 0.60933 0.0
N575 N 0.59918 0.22678 0.63675 0.0
C576 C 0.56555 0.17072 0.62176 0.0
C577 C 0.58671 0.15272 0.60865 0.0
H578 H 0.64156 0.22576 0.62534 0.0
H579 H 0.55643 0.22043 0.64804 0.0
C580 C 0.53673 0.32996 0.73437 0.0
N581 N 0.55815 0.31235 0.74306 0.0
C582 C 0.51088 0.32573 0.74874 0.0
C583 C 0.52952 0.28599 0.78166 0.0
C584 C 0.55494 0.29082 0.76651 0.0
C585 C 0.50667 0.30311 0.77253 0.0
H586 H 0.53921 0.3464 0.71517 0.0
H587 H 0.57163 0.27626 0.77268 0.0
O588 O 0.64235 0.31211 0.66044 0.0
O589 O 0.62343 0.35885 0.72397 0.0
O590 O 0.57716 0.30673 0.66475 0.0
O591 O 0.61495 0.27689 0.71543 0.0
H592 H 0.6881 0.36056 0.65887 0.0
H593 H 0.62048 0.27716 0.59496 0.0
H594 H 0.70644 0.37101 0.60421 0.0
H595 H 0.64003 0.28925 0.54143 0.0
H596 H 0.62091 0.40775 0.8388 0.0
H597 H 0.58526 0.39935 0.71291 0.0
H598 H 0.63994 0.36837 0.79286 0.0
H599 H 0.56729 0.43831 0.76021 0.0
H600 H 0.63668 0.46268 0.62497 0.0
H601 H 0.5468 0.41158 0.60658 0.0
H602 H 0.72701 0.25554 0.75325 0.0
H603 H 0.74256 0.3682 0.7997 0.0
H604 H 0.52502 0.27462 0.67159 0.0
H605 H 0.57859 0.30537 0.597 0.0
H606 H 0.48485 0.2478 0.62194 0.0
H607 H 0.53762 0.27753 0.54857 0.0
H608 H 0.61168 0.2069 0.70256 0.0
H609 H 0.63294 0.30345 0.78369 0.0
H610 H 0.62397 0.17284 0.74778 0.0
H611 H 0.64514 0.26773 0.82755 0.0
H612 H 0.63137 0.16074 0.5998 0.0
H613 H 0.5441 0.15632 0.62234 0.0
H614 H 0.49425 0.33986 0.74096 0.0
H615 H 0.52742 0.26783 0.79935 0.0
Li616 Li 1.02113 0.29628 0.99346 0.0
Li617 Li 0.98279 0.25603 0.94476 0.0
Li618 Li 1.0174 0.22746 0.98921 0.0
Li619 Li 0.03756 0.25876 0.94235 0.0
C620 C 0.97868 0.27142 0.03049 0.0
N621 N 0.96397 0.29817 0.09534 0.0
C622 C 0.95975 0.29532 0.03327 0.0
C623 C 0.9894 0.26021 0.06048 0.0
C624 C 0.95307 0.30913 0.06642 0.0
C625 C 0.98167 0.27399 0.09304 0.0
C626 C 1.01012 0.31549 0.91767 0.0
C627 C 0.99438 0.31818 0.85742 0.0
N628 N 1.00224 0.35438 0.86646 0.0
C629 C 1.01806 0.35272 0.92638 0.0
C630 C 0.99822 0.29804 0.88294 0.0
C631 C 1.0139 0.37191 0.9001 0.0
C632 C 0.05775 0.36355 0.03339 0.0
N633 N 0.02983 0.3466 0.02089 0.0
C634 C 1.01433 0.40296 0.03507 0.0
C635 C 1.00828 0.36582 0.02147 0.0
C636 C 0.04304 0.42111 0.04741 0.0
C637 C 0.0648 0.40063 0.04677 0.0
H638 H 0.07498 0.34883 0.0315 0.0
H639 H 0.98648 0.35281 1.00952 0.0
C640 C 0.92679 0.22829 0.89422 0.0
N641 N 0.94333 0.25745 0.9175 0.0
C642 C 0.90042 0.23049 0.87436 0.0
C643 C 0.9078 0.29263 0.90219 0.0
C644 C 0.93399 0.28925 0.92174 0.0
C645 C 0.89042 0.26304 0.87778 0.0
H646 H 0.93415 0.20317 0.8906 0.0
H647 H 0.94715 0.31247 0.94002 0.0
C648 C 0.07554 0.27895 0.01894 0.0
N649 N 0.12352 0.30512 0.07068 0.0
C650 C 0.10244 0.29095 1.00976 0.0
C651 C 0.07303 0.28041 0.05444 0.0
C652 C 0.12644 0.30404 0.0363 0.0
C653 C 0.09755 0.29369 0.0802 0.0
C654 C 1.0128 0.19065 0.90884 0.0
C655 C 0.0312 0.16806 0.91751 0.0
C656 C 1.00238 0.1888 0.87342 0.0
C657 C 0.03919 0.14423 0.89048 0.0
C658 C 1.01083 0.16457 0.84715 0.0
N659 N 0.02894 0.14301 0.85615 0.0
C660 C 1.00385 0.15938 0.01709 0.0
C661 C 0.05307 0.18663 0.02636 0.0
C662 C 1.01081 0.13108 0.03257 0.0
N663 N 1.02491 0.18676 0.01403 0.0
C664 C 0.06083 0.15932 0.04247 0.0
C665 C 0.03973 0.13059 0.04577 0.0
H666 H 0.98154 0.15896 1.00697 0.0
H667 H 0.06997 0.20745 0.02311 0.0
C668 C 0.07597 0.28571 0.89635 0.0
N669 N 0.07014 0.25986 0.91492 0.0
C670 C 0.10151 0.29015 0.8815 0.0
C671 C 0.11491 0.24119 0.90461 0.0
C672 C 0.08904 0.2376 0.91896 0.0
C673 C 0.12178 0.26805 0.8858 0.0
H674 H 0.06141 0.30396 0.8941 0.0
H675 H 0.08472 0.21792 0.93469 0.0
O676 O 0.98648 0.2587 0.99855 0.0
O677 O 1.01372 0.29625 0.94309 0.0
O678 O 0.05176 0.26613 0.99333 0.0
O679 O 1.00512 0.21451 0.93495 0.0
H680 H 0.95053 0.3034 1.01011 0.0
H681 H 1.00347 0.24097 0.05862 0.0
H682 H 0.93911 0.32844 0.06913 0.0
H683 H 0.98982 0.26559 0.11648 0.0
H684 H 0.98514 0.30503 0.83044 0.0
H685 H 0.02744 0.36666 0.95309 0.0
H686 H 0.99193 0.26927 0.87582 0.0
H687 H 1.01996 0.40074 0.90644 0.0
H688 H 0.99678 0.41748 0.03437 0.0
H689 H 0.0873 0.41323 0.05571 0.0
H690 H 0.88809 0.20673 0.85602 0.0
H691 H 0.90144 0.31838 0.9059 0.0
H692 H 0.10475 0.29051 0.98251 0.0
H693 H 0.0524 0.2714 0.06202 0.0
H694 H 0.14738 0.31343 0.02958 0.0
H695 H 0.09591 0.29495 0.10777 0.0
H696 H 0.03946 0.16917 0.94482 0.0
H697 H 0.98787 0.20582 0.86629 0.0
H698 H 0.05358 0.12675 0.89678 0.0
H699 H 1.00298 0.16289 0.8196 0.0
H700 H 0.99366 0.10951 0.03381 0.0
H701 H 0.08348 0.16035 0.05151 0.0
H702 H 0.1058 0.31173 0.86791 0.0
H703 H 0.12954 0.22329 0.90864 0.0
Li704 Li 0.46811 0.05877 0.36209 0.0
Li705 Li 0.42376 0.01765 0.31756 0.0
Li706 Li 0.46392 0.05211 0.28507 0.0
Li707 Li 0.42415 0.09027 0.32235 0.0
C708 C 0.46712 0.98188 0.31703 0.0
N709 N 0.46405 0.90954 0.31206 0.0
C710 C 0.47358 0.96889 0.34737 0.0
C711 C 0.45889 0.95808 0.28421 0.0
C712 C 0.47199 0.93223 0.34429 0.0
C713 C 0.45751 0.9216 0.28224 0.0
C714 C 0.40127 0.04961 0.37814 0.0
C715 C 0.3514 0.04832 0.38541 0.0
N716 N 0.35567 0.0333 0.41377 0.0
C717 C 0.40516 0.03419 0.40736 0.0
C718 C 0.37419 0.05678 0.36707 0.0
C719 C 0.38184 0.02611 0.42501 0.0
C720 C 0.48706 0.06252 0.4456 0.0
N721 N 0.49583 0.05816 0.41279 0.0
C722 C 0.54107 0.04637 0.4421 0.0
C723 C 0.52286 0.05023 0.41154 0.0
C724 C 0.53253 0.04993 0.47611 0.0
C725 C 0.50462 0.05833 0.47692 0.0
H726 H 0.4661 0.06918 0.44809 0.0
H727 H 0.53059 0.04627 0.3864 0.0
C728 C 0.38179 0.94178 0.28682 0.0
N729 N 0.39786 0.96501 0.31651 0.0
C730 C 0.36647 0.90691 0.28778 0.0
C731 C 0.38364 0.91896 0.3496 0.0
C732 C 0.39895 0.95316 0.34743 0.0
C733 C 0.36683 0.89447 0.31962 0.0
H734 H 0.3809 0.94981 0.26182 0.0
H735 H 0.4123 0.96998 0.37097 0.0
C736 C 0.49029 0.12543 0.32348 0.0
N737 N 0.52998 0.18005 0.31066 0.0
C738 C 0.48103 0.14959 0.30459 0.0
C739 C 0.51971 0.12898 0.33585 0.0
C740 C 0.50144 0.17706 0.29842 0.0
C741 C 0.53945 0.1568 0.32908 0.0
C742 C 0.3973 0.02702 0.25192 0.0
C743 C 0.40419 1.00662 0.22161 0.0
C744 C 0.36833 0.0262 0.25571 0.0
C745 C 0.3819 0.98588 0.1954 0.0
C746 C 0.34666 1.0051 0.22892 0.0
N747 N 0.35384 0.98556 0.19957 0.0
C748 C 0.49014 0.0185 0.216 0.0
C749 C 0.50424 0.08048 0.22998 0.0
C750 C 0.5055 1.01616 0.18606 0.0
N751 N 0.48922 0.05039 0.23827 0.0
C752 C 0.51992 0.07918 0.20025 0.0
C753 C 0.52125 0.04665 0.17691 0.0
H754 H 0.47877 0.99399 0.22098 0.0
H755 H 0.50428 0.1063 0.24634 0.0
C756 C 0.41098 0.17221 0.33865 0.0
N757 N 0.39872 0.13687 0.32351 0.0
C758 C 0.39515 0.20124 0.33952 0.0
C759 C 0.35334 0.15935 0.30937 0.0
C760 C 0.36988 0.13109 0.30891 0.0
C761 C 0.36532 0.19602 0.32483 0.0
H762 H 0.43352 0.17866 0.35053 0.0
H763 H 0.35892 0.1041 0.29654 0.0
O764 O 0.46751 1.01751 0.31967 0.0
O765 O 0.4239 0.05846 0.36083 0.0
O766 O 0.47068 0.09786 0.32894 0.0
O767 O 0.41886 0.04743 0.27783 0.0
H768 H 0.47943 0.98686 0.37306 0.0
H769 H 0.45305 0.96761 0.26065 0.0
H770 H 0.47689 0.92179 0.36755 0.0
H771 H 0.45105 0.90285 0.25703 0.0
H772 H 0.33033 0.05375 0.37712 0.0
H773 H 0.42584 0.02802 0.416 0.0
H774 H 0.37086 0.06887 0.34462 0.0
H775 H 0.38455 1.01405 0.44759 0.0
H776 H 0.56207 0.0401 0.43876 0.0
H777 H 0.49628 0.06199 0.5017 0.0
H778 H 0.3542 0.88988 0.26352 0.0
H779 H 0.38541 0.91159 0.37498 0.0
H780 H 0.45833 0.14695 0.29458 0.0
H781 H 0.5272 0.11033 0.35033 0.0
H782 H 0.49459 0.1959 0.28377 0.0
H783 H 0.5623 0.15987 0.3384 0.0
H784 H 0.42651 1.00686 0.21835 0.0
H785 H 0.36264 0.04149 0.27918 0.0
H786 H 0.38691 0.97001 0.17177 0.0
H787 H 0.32413 1.00421 0.23148 0.0
H788 H 0.5049 0.98997 0.16997 0.0
H789 H 0.53089 0.10403 0.19555 0.0
H790 H 0.40658 0.22805 0.35204 0.0
H791 H 0.33081 0.15209 0.2974 0.0
Li792 Li 0.2783 0.20558 0.59139 0.0
Li793 Li 0.29461 0.15487 0.55203 0.0
Li794 Li 0.27446 0.20235 0.52257 0.0
Li795 Li 0.23978 0.15594 0.55103 0.0
C796 C 0.33248 0.23304 0.57769 0.0
N797 N 0.3786 0.28469 0.61586 0.0
C798 C 0.35856 0.22352 0.58912 0.0
C799 C 0.32985 0.26881 0.5859 0.0
C800 C 0.38163 0.25003 0.6083 0.0
C801 C 0.3534 0.29454 0.60517 0.0
C802 C 0.25952 0.12906 0.60789 0.0
C803 C 0.24044 0.06805 0.60938 0.0
N804 N 0.23564 0.07912 0.64302 0.0
C805 C 0.25444 0.13984 0.64248 0.0
C806 C 0.25252 0.0929 0.59118 0.0
C807 C 0.24235 0.11417 0.6598 0.0
C808 C 0.26621 0.24581 0.6584 0.0
N809 N 0.28668 0.23223 0.64128 0.0
C810 C 0.3185 0.24315 0.69671 0.0
C811 C 0.31247 0.23084 0.65989 0.0
C812 C 0.2976 0.25642 0.71536 0.0
C813 C 0.27123 0.25805 0.69548 0.0
H814 H 0.24542 0.24565 0.64356 0.0
H815 H 0.32802 0.21855 0.64639 0.0
C816 C 0.34797 0.13282 0.53241 0.0
N817 N 0.32685 0.12738 0.55271 0.0
C818 C 0.37303 0.11803 0.53654 0.0
C819 C 0.35427 0.09134 0.58176 0.0
C820 C 0.32972 0.10684 0.57699 0.0
C821 C 0.37678 0.0971 0.56178 0.0
H822 H 0.34603 0.14995 0.5139 0.0
H823 H 0.31345 0.10344 0.59376 0.0
C824 C 0.22696 0.23391 0.55879 0.0
N825 N 0.19064 0.28263 0.56311 0.0
C826 C 0.1972 0.22236 0.54756 0.0
C827 C 0.23824 0.27024 0.57223 0.0
C828 C 0.1792 0.2474 0.55003 0.0
C829 C 0.21952 0.29447 0.57414 0.0
C830 C 0.26993 0.12002 0.48662 0.0
C831 C 0.29126 0.12742 0.46593 0.0
C832 C 0.25697 0.08464 0.48488 0.0
C833 C 0.29941 0.09919 0.44391 0.0
C834 C 0.2657 0.05714 0.4625 0.0
N835 N 0.28658 0.06492 0.44268 0.0
C836 C 0.29435 0.26417 0.4907 0.0
C837 C 0.2732 0.21272 0.44687 0.0
C838 C 0.30245 0.28282 0.46462 0.0
N839 N 0.28036 0.2293 0.48198 0.0
C840 C 0.28091 0.23059 0.4198 0.0
C841 C 0.29618 0.26623 0.42834 0.0
H842 H 0.30014 0.27759 0.51818 0.0
H843 H 0.2623 0.18503 0.43961 0.0
C844 C 0.18844 0.13467 0.58462 0.0
N845 N 0.19909 0.12916 0.55333 0.0
C846 C 0.16095 0.11599 0.58807 0.0
C847 C 0.15476 0.08702 0.5268 0.0
C848 C 0.18246 0.1058 0.52461 0.0
C849 C 0.14347 0.0915 0.55892 0.0
H850 H 0.20137 0.15356 0.60731 0.0
H851 H 0.19067 0.10149 0.49979 0.0
O852 O 0.30944 0.2074 0.55939 0.0
O853 O 0.27066 0.15387 0.59017 0.0
O854 O 0.24482 0.20965 0.55677 0.0
O855 O 0.26219 0.14727 0.50896 0.0
H856 H 0.36093 0.19597 0.5836 0.0
H857 H 0.30971 0.27659 0.57796 0.0
H858 H 0.40192 0.24301 0.6173 0.0
H859 H 0.35159 0.32231 0.61176 0.0
H860 H 0.23486 0.03998 0.59675 0.0
H861 H 0.25959 0.16771 0.65578 0.0
H862 H 0.25632 0.08416 0.5644 0.0
H863 H 0.23824 0.12217 0.68655 0.0
H864 H 0.33905 0.24091 0.71054 0.0
H865 H 0.25432 0.26786 0.70846 0.0
H866 H 0.38944 0.12326 0.52023 0.0
H867 H 0.35603 0.07606 0.60201 0.0
H868 H 0.1881 0.19434 0.53703 0.0
H869 H 0.26115 0.27963 0.58127 0.0
H870 H 0.15616 0.23882 0.54155 0.0
H871 H 0.22793 0.32268 0.58448 0.0
H872 H 0.30169 0.15468 0.46725 0.0
H873 H 0.24037 0.07849 0.50067 0.0
H874 H 0.31603 0.10451 0.42792 0.0
H875 H 0.25589 0.02961 0.46092 0.0
H876 H 0.31432 0.31009 0.47306 0.0
H877 H 0.27615 0.21608 0.39255 0.0
H878 H 0.15349 0.12072 0.61339 0.0
H879 H 0.14241 0.06861 0.50335 0.0
Li880 Li 0.21327 0.06085 0.84776 0.0
Li881 Li 0.16935 0.02135 0.87985 0.0
Li882 Li 0.20814 0.98314 0.83966 0.0
Li883 Li 0.16816 1.01651 0.80602 0.0
C884 C 0.2378 0.03098 0.91172 0.0
N885 N 0.28352 0.03803 0.96504 0.0
C886 C 0.23291 0.03305 0.94653 0.0
C887 C 0.26589 0.03256 0.90396 0.0
C888 C 0.25634 0.0367 0.97314 0.0
C889 C 0.28872 0.03602 0.9313 0.0
C890 C 0.15107 0.08229 0.85273 0.0
C891 C 0.10353 0.09616 0.84303 0.0
N892 N 0.1135 0.12875 0.86505 0.0
C893 C 0.1608 0.11577 0.87549 0.0
C894 C 0.12218 0.07222 0.83655 0.0
C895 C 0.14149 0.13894 0.88128 0.0
C896 C 0.23042 0.14203 0.84134 0.0
N897 N 0.24123 0.11257 0.8474 0.0
C898 C 0.28948 0.14767 0.84803 0.0
C899 C 0.27069 0.11575 0.85075 0.0
C900 C 0.27913 0.17852 0.84182 0.0
C901 C 0.24866 0.17478 0.83877 0.0
H902 H 0.20727 0.14039 0.83772 0.0
H903 H 0.28005 0.09314 0.85501 0.0
C904 C 0.12939 0.99138 0.93431 0.0
N905 N 0.14434 0.02242 0.92778 0.0
C906 C 0.1134 0.99059 0.96364 0.0
C907 C 0.12725 0.05348 0.98153 0.0
C908 C 0.14305 0.05323 0.95174 0.0
C909 C 0.11152 0.0218 0.98875 0.0
H910 H 0.12953 0.96633 0.9166 0.0
H911 H 0.15431 0.0785 0.94814 0.0
C912 C 0.21349 1.01729 0.7705 0.0
N913 N 0.2126 1.01386 0.69913 0.0
C914 C 0.21221 0.98458 0.74746 0.0
C915 C 0.2143 0.04827 0.75732 0.0
C916 C 0.21185 0.98341 0.71144 0.0
C917 C 0.21379 0.04596 0.72113 0.0
C918 C 0.13861 0.95189 0.81905 0.0
C919 C 0.14122 0.92381 0.79203 0.0
C920 C 0.11134 0.95539 0.82759 0.0
C921 C 0.11638 0.89945 0.77405 0.0
C922 C 0.08703 0.93046 0.809 0.0
N923 N 0.09004 0.90324 0.78287 0.0
C924 C 0.25248 0.93326 0.86522 0.0
C925 C 0.2276 0.9078 0.80848 0.0
C926 C 0.26775 0.90378 0.8641 0.0
N927 N 0.23237 0.93584 0.83762 0.0
C928 C 0.24234 0.87784 0.80644 0.0
C929 C 0.26332 0.87455 0.83435 0.0
H930 H 0.25708 0.95418 0.88896 0.0
H931 H 0.21206 0.90808 0.78599 0.0
C932 C 0.13903 0.04987 0.74769 0.0
N933 N 0.14334 1.0175 0.75419 0.0
C934 C 0.12487 0.05357 0.71436 0.0
C935 C 0.11918 0.99089 0.69275 0.0
C936 C 0.13345 0.98825 0.72663 0.0
C937 C 0.11441 0.02401 0.68542 0.0
H938 H 0.14695 0.07362 0.76838 0.0
H939 H 0.13682 0.96235 0.73038 0.0
O940 O 0.21514 0.02685 0.88521 0.0
O941 O 0.16952 0.05902 0.84722 0.0
O942 O 0.21234 0.01877 0.80551 0.0
O943 O 0.16256 0.97633 0.83659 0.0
H944 H 0.21125 0.03181 0.95291 0.0
H945 H 0.26994 0.0308 0.87705 0.0
H946 H 0.25292 0.03852 1.0002 0.0
H947 H 0.31057 0.03708 0.92569 0.0
H948 H 0.08112 0.0888 0.83063 0.0
H949 H 0.183 0.12368 0.88868 0.0
H950 H 0.11425 0.04618 0.81921 0.0
H951 H 0.14874 0.16497 0.89877 0.0
H952 H 0.31247 0.1479 0.85058 0.0
H953 H 0.23873 0.19676 0.83371 0.0
H954 H 0.10228 0.9649 0.96645 0.0
H955 H 0.12737 0.07887 0.99885 0.0
H956 H 0.21118 0.96032 0.75725 0.0
H957 H 0.21484 0.07371 0.7748 0.0
H958 H 0.21079 0.95826 0.69325 0.0
H959 H 0.21411 0.06965 0.71052 0.0
H960 H 0.16217 0.92102 0.78491 0.0
H961 H 0.109 0.9772 0.84828 0.0
H962 H 0.11802 0.87758 0.75303 0.0
H963 H 0.06577 0.93279 0.81532 0.0
H964 H 0.28309 0.90402 0.88699 0.0
H965 H 0.23713 0.85708 0.78252 0.0
H966 H 0.12232 0.07999 0.71136 0.0
H967 H 0.11198 0.96679 0.67229 0.0
Li968 Li 0.25848 0.91557 0.04519 0.0
Li969 Li 0.26139 0.86183 0.0664 0.0
Li970 Li 0.3038 0.89808 0.05022 0.0
Li971 Li 0.26601 0.86186 1.00519 0.0
C972 C 0.28304 0.94315 0.11224 0.0
N973 N 0.28305 1.00782 0.1567 0.0
C974 C 0.26378 0.94538 0.13662 0.0
C975 C 0.30237 0.97385 0.11065 0.0
C976 C 0.26406 0.97831 0.15878 0.0
C977 C 0.30207 1.00627 0.13333 0.0
C978 C 0.20855 0.85812 1.00358 0.0
C979 C 0.1695 0.8133 0.96743 0.0
N980 N 0.16122 0.83824 0.95051 0.0
C981 C 0.19974 0.88331 0.98578 0.0
C982 C 0.19338 0.82282 0.99433 0.0
C983 C 0.17571 0.87274 0.95906 0.0
C984 C 0.2509 0.98827 0.05129 0.0
N985 N 0.23946 0.95457 0.05379 0.0
C986 C 0.20284 0.9752 0.08412 0.0
C987 C 0.2155 0.94752 0.06893 0.0
C988 C 0.21482 1.01039 0.08331 0.0
C989 C 0.23861 1.01693 0.06585 0.0
H990 H 0.27024 0.99311 0.03956 0.0
H991 H 0.20713 0.92048 0.07068 0.0
C992 C 0.25352 0.83871 0.12914 0.0
N993 N 0.24956 0.82909 0.09339 0.0
C994 C 0.25442 0.81272 0.1489 0.0
C995 C 0.24575 0.76753 0.09458 0.0
C996 C 0.24401 0.79431 0.07586 0.0
C997 C 0.25248 0.77705 0.13145 0.0
H998 H 0.25884 0.86658 0.14224 0.0
H999 H 0.24166 0.78781 0.04734 0.0
C1000 C 0.3057 0.92787 0.99362 0.0
N1001 N 0.35044 0.95885 0.96356 0.0
C1002 C 0.31278 0.90941 0.96239 0.0
C1003 C 0.32116 0.9623 1.00925 0.0
C1004 C 0.33552 0.92547 0.94769 0.0
C1005 C 0.34378 0.97743 0.99375 0.0
C1006 C 0.30795 0.82998 0.06078 0.0
C1007 C 0.32192 0.84897 0.09439 0.0
C1008 C 0.31124 0.79476 0.04896 0.0
C1009 C 0.3394 0.83281 0.11508 0.0
C1010 C 0.32909 0.77966 0.07034 0.0
N1011 N 0.3427 0.79884 0.10267 0.0
C1012 C 0.3642 0.93113 0.08192 0.0
C1013 C 0.3533 0.88699 0.02864 0.0
C1014 C 0.39386 0.93361 0.08105 0.0
N1015 N 0.34471 0.90831 0.05555 0.0
C1016 C 0.3824 0.88837 0.02692 0.0
C1017 C 0.40334 0.9119 0.05313 0.0
H1018 H 0.35692 0.94711 0.10368 0.0
H1019 H 0.33732 0.86853 1.00845 0.0
C1020 C 0.24207 0.82912 0.93134 0.0
N1021 N 0.26145 0.83022 0.96031 0.0
C1022 C 0.24277 0.80609 0.89925 0.0
C1023 C 0.28255 0.78524 0.92783 0.0
C1024 C 0.28145 0.80895 0.95891 0.0
C1025 C 0.26369 0.78439 0.89732 0.0
H1026 H 0.22689 0.84693 0.93268 0.0
H1027 H 0.29752 0.81144 0.98153 0.0
O1028 O 0.28284 0.91121 0.08989 0.0
O1029 O 0.23177 0.8679 0.03012 0.0
O1030 O 0.28345 0.91257 1.00842 0.0
O1031 O 0.29101 0.84547 0.0396 0.0
H1032 H 0.24853 0.92211 0.1382 0.0
H1033 H 0.31719 0.97281 0.09179 0.0
H1034 H 0.24912 0.9804 0.17757 0.0
H1035 H 0.31687 0.03022 0.13223 0.0
H1036 H 0.15752 0.78608 0.96002 0.0
H1037 H 0.21142 0.91065 0.99226 0.0
H1038 H 0.19995 0.80302 1.00787 0.0
H1039 H 0.16865 0.89193 0.94503 0.0
H1040 H 0.18416 0.96928 0.09692 0.0
H1041 H 0.24815 0.04389 0.06474 0.0
H1042 H 0.26025 0.82105 0.17736 0.0
H1043 H 0.24466 0.74037 0.08043 0.0
H1044 H 0.30094 0.88295 0.94959 0.0
H1045 H 0.31589 0.97718 0.03315 0.0
H1046 H 0.34124 0.91145 0.92359 0.0
H1047 H 0.356 1.00398 1.00571 0.0
H1048 H 0.31959 0.87599 0.10455 0.0
H1049 H 0.30001 0.77898 0.02364 0.0
H1050 H 0.35041 0.84734 0.141 0.0
H1051 H 0.3319 0.75253 0.06135 0.0
H1052 H 0.40904 0.95262 0.10176 0.0
H1053 H 0.38821 0.87089 1.00521 0.0
H1054 H 0.22807 0.80651 0.87597 0.0
H1055 H 0.2988 0.76875 0.92734 0.0
Li1056 Li 0.33621 0.41326 0.10784 0.0
Li1057 Li 0.3549 0.3689 0.13933 0.0
Li1058 Li 0.39145 0.41393 0.10991 0.0
Li1059 Li 0.35187 0.36324 0.07003 0.0
C1060 C 0.36499 0.4542 0.17292 0.0
N1061 N 0.35914 0.51657 0.2168 0.0
C1062 C 0.34838 0.45286 0.20002 0.0
C1063 C 0.37894 0.4872 0.16843 0.0
C1064 C 0.34556 0.48471 0.22181 0.0
C1065 C 0.37567 0.51845 0.19086 0.0
C1066 C 0.29491 0.35058 0.11047 0.0
C1067 C 0.24908 0.31002 0.10168 0.0
N1068 N 0.24239 0.32952 0.13139 0.0
C1069 C 0.28761 0.37019 0.14091 0.0
C1070 C 0.27554 0.32023 0.09067 0.0
C1071 C 0.26095 0.35914 0.15105 0.0
C1072 C 0.28078 0.42147 0.07768 0.0
N1073 N 0.30311 0.43946 0.1036 0.0
C1074 C 0.27586 0.48605 0.11849 0.0
C1075 C 0.30094 0.47139 0.12394 0.0
C1076 C 0.25243 0.46797 0.09175 0.0
C1077 C 0.25544 0.43501 0.07146 0.0
H1078 H 0.2825 0.39613 0.06168 0.0
H1079 H 0.31856 0.48575 0.14444 0.0
C1080 C 0.35853 0.35771 0.21548 0.0
N1081 N 0.34759 0.34316 0.18054 0.0
C1082 C 0.35023 0.34049 0.24283 0.0
C1083 C 0.31993 0.29324 0.19842 0.0
C1084 C 0.32878 0.31107 0.17211 0.0
C1085 C 0.33021 0.30777 0.23468 0.0
H1086 H 0.37322 0.3833 0.22252 0.0
H1087 H 0.31983 0.29941 0.14473 0.0
C1088 C 0.35456 0.43917 0.05202 0.0
N1089 N 0.34011 0.4892 0.01526 0.0
C1090 C 0.33173 0.42944 0.02375 0.0
C1091 C 0.37014 0.47427 0.06151 0.0
C1092 C 0.32471 0.45515 1.00554 0.0
C1093 C 0.36249 0.49919 0.0426 0.0
C1094 C 0.39472 0.32886 0.09349 0.0
C1095 C 0.41786 0.32978 0.07449 0.0
C1096 C 0.38062 0.29622 0.09867 0.0
C1097 C 0.42607 0.29781 0.06028 0.0
C1098 C 0.38981 0.26493 0.08455 0.0
N1099 N 0.41208 0.26635 0.06568 0.0
C1100 C 0.4508 0.45916 0.13716 0.0
C1101 C 0.4411 0.43858 0.0753 0.0
C1102 C 0.47868 0.47741 0.13488 0.0
N1103 N 0.43226 0.44019 0.1076 0.0
C1104 C 0.46887 0.45655 0.07186 0.0
C1105 C 0.48829 0.47669 0.10191 0.0
H1106 H 0.44396 0.46045 0.16273 0.0
H1107 H 0.42647 0.42345 0.05184 0.0
C1108 C 0.31629 0.32534 1.00322 0.0
N1109 N 0.34413 0.33591 0.0202 0.0
C1110 C 0.31013 0.31279 0.96628 0.0
C1111 C 0.36126 0.32108 0.96451 0.0
C1112 C 0.36645 0.3339 1.00142 0.0
C1113 C 0.33275 0.31093 0.94612 0.0
H1114 H 0.29874 0.3284 0.01808 0.0
H1115 H 0.38841 0.34394 0.01473 0.0
O1116 O 0.36802 0.42338 0.15125 0.0
O1117 O 0.32097 0.36093 0.1002 0.0
O1118 O 0.36169 0.41447 0.07029 0.0
O1119 O 0.38583 0.35969 0.10691 0.0
H1120 H 0.33786 0.42752 0.20428 0.0
H1121 H 0.39213 0.48863 0.14783 0.0
H1122 H 0.33264 0.48411 0.24276 0.0
H1123 H 0.38625 0.54419 0.1876 0.0
H1124 H 0.23387 0.28655 0.08664 0.0
H1125 H 0.30233 0.39378 0.15639 0.0
H1126 H 0.28096 0.30458 0.06718 0.0
H1127 H 0.25501 0.37412 0.17453 0.0
H1128 H 0.27515 0.51167 0.13481 0.0
H1129 H 0.23819 0.41926 0.05101 0.0
H1130 H 0.35877 0.35328 0.27012 0.0
H1131 H 0.30442 0.26828 0.1902 0.0
H1132 H 0.31946 0.40237 0.01608 0.0
H1133 H 0.388 0.48215 0.08318 0.0
H1134 H 0.30702 0.44803 0.98368 0.0
H1135 H 0.37434 0.52647 0.04965 0.0
H1136 H 0.42906 0.35485 0.07031 0.0
H1137 H 0.36272 0.29509 0.11337 0.0
H1138 H 0.44346 0.29797 0.0448 0.0
H1139 H 0.37914 0.23948 0.08842 0.0
H1140 H 0.49254 0.49243 0.15901 0.0
H1141 H 0.47492 0.45495 0.04583 0.0
H1142 H 0.28777 0.30553 0.95357 0.0
H1143 H 0.37951 0.32062 0.95038 0.0
Li1144 Li 0.87549 0.22855 0.16226 0.0
Li1145 Li 0.88114 0.17938 0.11913 0.0
Li1146 Li 0.87542 0.23447 0.10181 0.0
Li1147 Li 0.83466 0.19318 0.11779 0.0
C1148 C 0.93017 0.24548 0.15932 0.0
N1149 N 0.97481 0.28429 0.21149 0.0
C1150 C 0.94901 0.22801 0.17653 0.0
C1151 C 0.9342 0.28269 0.16836 0.0
C1152 C 0.9714 0.2481 0.20292 0.0
C1153 C 0.95685 0.30184 0.19488 0.0
C1154 C 0.86051 0.14993 0.17043 0.0
C1155 C 0.8425 0.09159 0.18032 0.0
N1156 N 0.86919 0.09121 0.19713 0.0
C1157 C 0.88765 0.14917 0.18824 0.0
C1158 C 0.83765 0.12106 0.16667 0.0
C1159 C 0.89166 0.11915 0.20139 0.0
C1160 C 0.86979 0.28736 0.21085 0.0
N1161 N 0.88132 0.25739 0.20831 0.0
C1162 C 0.88683 0.26344 0.27067 0.0
C1163 C 0.89078 0.24586 0.23742 0.0
C1164 C 0.87187 0.29188 0.27333 0.0
C1165 C 0.86413 0.30463 0.24325 0.0
H1166 H 0.86313 0.29651 0.18737 0.0
H1167 H 0.89975 0.22191 0.23469 0.0
C1168 C 0.92555 0.14585 0.09695 0.0
N1169 N 0.89895 0.13925 0.10652 0.0
C1170 C 0.93754 0.11769 0.08101 0.0
C1171 C 0.89517 0.07629 0.08645 0.0
C1172 C 0.88372 0.10531 0.10167 0.0
C1173 C 0.92207 0.08252 0.0752 0.0
H1174 H 0.9368 0.1731 0.10014 0.0
H1175 H 0.86204 0.10076 0.10779 0.0
C1176 C 0.82249 0.25785 0.12296 0.0
N1177 N 0.77139 0.27908 0.10299 0.0
C1178 C 0.81377 0.25839 0.08761 0.0
C1179 C 0.80493 0.26761 0.14803 0.0
C1180 C 0.788 0.26944 0.07811 0.0
C1181 C 0.77923 0.27832 0.13743 0.0
C1182 C 0.85414 0.15504 0.05214 0.0
C1183 C 0.87619 0.15312 0.03154 0.0
C1184 C 0.83173 0.12551 0.04771 0.0
C1185 C 0.87553 0.12155 1.00698 0.0
C1186 C 0.83179 0.09449 0.02276 0.0
N1187 N 0.85352 0.09316 1.00311 0.0
C1188 C 0.88567 0.25974 0.0411 0.0
C1189 C 0.88075 0.30266 0.09116 0.0
C1190 C 0.88185 0.28351 0.01939 0.0
N1191 N 0.88364 0.26922 0.07584 0.0
C1192 C 0.87627 0.32704 0.07034 0.0
C1193 C 0.87515 0.31663 0.03375 0.0
H1194 H 0.88751 0.2328 0.02969 0.0
H1195 H 0.87871 0.30902 0.11884 0.0
C1196 C 0.78488 0.17977 0.14435 0.0
N1197 N 0.79442 0.17969 0.113 0.0
C1198 C 0.75551 0.17514 0.14595 0.0
C1199 C 0.74614 0.17033 0.08278 0.0
C1200 C 0.77592 0.17516 0.08241 0.0
C1201 C 0.73566 0.17045 0.11497 0.0
H1202 H 0.80029 0.18467 0.16834 0.0
H1203 H 0.78432 0.17623 0.05802 0.0
O1204 O 0.90808 0.22628 0.13349 0.0
O1205 O 0.85621 0.17878 0.15682 0.0
O1206 O 0.84726 0.24604 0.13269 0.0
O1207 O 0.85454 0.18554 0.07667 0.0
H1208 H 0.94646 0.19926 0.16948 0.0
H1209 H 0.91989 0.29662 0.1552 0.0
H1210 H 0.9861 0.23493 0.21653 0.0
H1211 H 0.96014 0.33064 0.20227 0.0
H1212 H 0.82507 0.06895 0.1774 0.0
H1213 H 0.90551 0.17127 0.19141 0.0
H1214 H 0.81649 0.12122 0.15297 0.0
H1215 H 0.9126 0.11804 0.21498 0.0
H1216 H 0.8934 0.25317 0.29358 0.0
H1217 H 0.85296 0.32685 0.24459 0.0
H1218 H 0.95852 0.12335 0.07291 0.0
H1219 H 0.88265 0.04946 0.08213 0.0
H1220 H 0.8264 0.24968 0.06753 0.0
H1221 H 0.81082 0.26639 0.1753 0.0
H1222 H 0.78106 0.27003 0.05086 0.0
H1223 H 0.76544 0.28587 0.15653 0.0
H1224 H 0.89397 0.17545 0.03501 0.0
H1225 H 0.81466 0.12635 0.06366 0.0
H1226 H 0.89261 0.11957 0.99113 0.0
H1227 H 0.81461 0.07142 0.01912 0.0
H1228 H 0.88074 0.27438 0.99115 0.0
H1229 H 0.87091 0.35223 0.0821 0.0
H1230 H 0.74855 0.17586 0.17137 0.0
H1231 H 0.73156 0.16644 0.05823 0.0
Li1232 Li 0.20761 0.55881 0.33902 0.0
Li1233 Li 0.16683 0.5248 0.37151 0.0
Li1234 Li 0.20582 0.48678 0.3347 0.0
Li1235 Li 0.1631 0.51665 0.29395 0.0
C1236 C 0.23227 0.55187 0.40497 0.0
N1237 N 0.27365 0.59868 0.45618 0.0
C1238 C 0.22397 0.57339 0.43351 0.0
C1239 C 0.26159 0.55407 0.40246 0.0
C1240 C 0.24523 0.59684 0.4592 0.0
C1241 C 0.28219 0.57797 0.4286 0.0
C1242 C 0.16425 0.59443 0.33804 0.0
C1243 C 0.16194 0.64375 0.30953 0.0
N1244 N 0.16806 0.66668 0.3417 0.0
C1245 C 0.17064 0.61847 0.37081 0.0
C1246 C 0.15996 0.60712 0.30712 0.0
C1247 C 0.17239 0.6549 0.37211 0.0
C1248 C 0.23766 0.61927 0.3078 0.0
N1249 N 0.23365 0.61081 0.33959 0.0
C1250 C 0.26024 0.67154 0.36816 0.0
C1251 C 0.24488 0.6369 0.36954 0.0
C1252 C 0.26472 0.6809 0.33563 0.0
C1253 C 0.25291 0.65341 0.30531 0.0
H1254 H 0.22868 0.59955 0.28371 0.0
H1255 H 0.24168 0.63137 0.395 0.0
C1256 C 0.13564 0.49885 0.43376 0.0
N1257 N 0.14174 0.52726 0.41779 0.0
C1258 C 0.12024 0.50026 0.46359 0.0
C1259 C 0.11688 0.56004 0.46233 0.0
C1260 C 0.13219 0.55762 0.43236 0.0
C1261 C 0.11003 0.53103 0.47909 0.0
H1262 H 0.1429 0.47447 0.42378 0.0
H1263 H 0.13639 0.58077 0.42099 0.0
C1264 C 0.22861 0.51749 0.27593 0.0
N1265 N 0.27224 0.51478 0.2352 0.0
C1266 C 0.22232 0.49953 0.24045 0.0
C1267 C 0.2571 0.53382 0.29078 0.0
C1268 C 0.24468 0.49851 0.22027 0.0
C1269 C 0.27884 0.53225 0.26972 0.0
C1270 C 0.14506 0.44609 0.32926 0.0
C1271 C 0.15359 0.43008 0.35681 0.0
C1272 C 0.12223 0.42785 0.30258 0.0
C1273 C 0.13907 0.39589 0.3572 0.0
C1274 C 0.1082 0.39372 0.30396 0.0
N1275 N 0.11688 0.37857 0.33097 0.0
C1276 C 0.25944 0.4458 0.34872 0.0
C1277 C 0.21759 0.40457 0.32156 0.0
C1278 C 0.27551 0.41727 0.34952 0.0
N1279 N 0.23045 0.44004 0.33485 0.0
C1280 C 0.23297 0.3753 0.32187 0.0
C1281 C 0.26289 0.38044 0.33602 0.0
H1282 H 0.2708 0.47297 0.35953 0.0
H1283 H 0.19491 0.39822 0.31029 0.0
C1284 C 0.14701 0.52426 0.21381 0.0
N1285 N 0.13581 0.51724 0.24334 0.0
C1286 C 0.12919 0.52721 0.1822 0.0
C1287 C 0.08798 0.5164 0.2105 0.0
C1288 C 0.10635 0.51332 0.24127 0.0
C1289 C 0.09874 0.52359 0.17964 0.0
H1290 H 0.17017 0.52844 0.21453 0.0
H1291 H 0.09665 0.50833 0.26395 0.0
O1292 O 0.21171 0.52942 0.37919 0.0
O1293 O 0.16373 0.55888 0.33612 0.0
O1294 O 0.20712 0.51831 0.29627 0.0
O1295 O 0.15951 0.47917 0.32808 0.0
H1296 H 0.20133 0.5721 0.43571 0.0
H1297 H 0.26834 0.53772 0.38042 0.0
H1298 H 0.23914 0.61369 0.48143 0.0
H1299 H 0.30496 0.58011 0.42692 0.0
H1300 H 0.1588 0.65397 0.28581 0.0
H1301 H 0.17478 0.60916 0.39492 0.0
H1302 H 0.15546 0.58893 0.28152 0.0
H1303 H 0.17744 0.67383 0.39728 0.0
H1304 H 0.26851 0.69096 0.39267 0.0
H1305 H 0.25524 0.65822 0.27933 0.0
H1306 H 0.11706 0.47731 0.47517 0.0
H1307 H 0.1103 0.58495 0.47224 0.0
H1308 H 0.20045 0.48621 0.22873 0.0
H1309 H 0.26233 0.54765 0.31826 0.0
H1310 H 0.24016 0.48464 0.1928 0.0
H1311 H 0.30098 0.54486 0.28083 0.0
H1312 H 0.17141 0.44383 0.37749 0.0
H1313 H 0.11548 0.4399 0.28102 0.0
H1314 H 0.14545 0.38311 0.37832 0.0
H1315 H 0.09048 0.37923 0.28351 0.0
H1316 H 0.2982 0.42444 0.36084 0.0
H1317 H 0.2211 0.34837 0.31079 0.0
H1318 H 0.13945 0.53309 0.16017 0.0
H1319 H 0.06499 0.51337 0.21119 0.0
Li1320 Li 0.83588 0.91467 0.6078 0.0
Li1321 Li 0.85515 0.87054 0.63858 0.0
Li1322 Li 0.89108 0.91698 0.61007 0.0
Li1323 Li 0.85218 0.86523 0.56918 0.0
C1324 C 0.86255 0.95461 0.67329 0.0
N1325 N 0.85277 1.01425 0.71795 0.0
C1326 C 0.84271 0.95096 0.69665 0.0
C1327 C 0.87765 0.98851 0.67288 0.0
C1328 C 0.83799 0.98146 0.71894 0.0
C1329 C 0.87235 0.01837 0.69563 0.0
C1330 C 0.79638 0.84581 0.60782 0.0
C1331 C 0.75734 0.79498 0.59796 0.0
N1332 N 0.74624 0.8117 0.62567 0.0
C1333 C 0.78459 0.86253 0.63614 0.0
C1334 C 0.78268 0.8118 0.58851 0.0
C1335 C 0.75922 0.84484 0.64477 0.0
C1336 C 0.77908 0.92081 0.58039 0.0
N1337 N 0.80251 0.94027 0.60391 0.0
C1338 C 0.77651 0.98851 0.61636 0.0
C1339 C 0.80156 0.97381 0.62172 0.0
C1340 C 0.75194 0.96886 0.59215 0.0
C1341 C 0.75376 0.93436 0.57429 0.0
H1342 H 0.78001 0.89443 0.56598 0.0
H1343 H 0.82022 0.98952 0.63991 0.0
C1344 C 0.85602 0.86016 0.71423 0.0
N1345 N 0.84832 0.84389 0.67911 0.0
C1346 C 0.84791 0.84243 0.74124 0.0
C1347 C 0.82457 0.79108 0.69626 0.0
C1348 C 0.83313 0.80954 0.67023 0.0
C1349 C 0.83158 0.80731 0.73261 0.0
H1350 H 0.86776 0.88749 0.72157 0.0
H1351 H 0.82673 0.7965 0.64264 0.0
C1352 C 0.85306 0.94324 0.55475 0.0
N1353 N 0.83566 0.99657 0.52503 0.0
C1354 C 0.83005 0.93484 0.52677 0.0
C1355 C 0.8673 0.9787 0.56757 0.0
C1356 C 0.82154 0.9622 0.51212 0.0
C1357 C 0.85817 1.0053 0.55218 0.0
C1358 C 0.90017 0.83594 0.59508 0.0
C1359 C 0.92472 0.84287 0.57925 0.0
C1360 C 0.89057 0.80164 0.60019 0.0
C1361 C 0.93919 0.81524 0.56845 0.0
C1362 C 0.90573 0.77471 0.58915 0.0
N1363 N 0.92951 0.78201 0.57361 0.0
C1364 C 0.95141 0.95943 0.63768 0.0
C1365 C 0.93955 0.94503 0.5756 0.0
C1366 C 0.97939 0.97738 0.63539 0.0
N1367 N 0.93177 0.94366 0.60803 0.0
C1368 C 0.96742 0.9626 0.57215 0.0
C1369 C 0.98799 0.97945 0.60231 0.0
H1370 H 0.94542 0.9583 0.66334 0.0
H1371 H 0.92405 0.93239 0.55207 0.0
C1372 C 0.81675 0.83036 0.50206 0.0
N1373 N 0.84449 0.83807 0.51934 0.0
C1374 C 0.81057 0.81825 0.46508 0.0
C1375 C 0.86144 0.82092 0.46389 0.0
C1376 C 0.86669 0.83329 0.5009 0.0
C1377 C 0.83309 0.81388 0.44516 0.0
H1378 H 0.7994 0.83535 0.51677 0.0
H1379 H 0.88869 0.84065 0.51459 0.0
O1380 O 0.86758 0.92512 0.65135 0.0
O1381 O 0.82144 0.86242 0.59928 0.0
O1382 O 0.8613 0.91699 0.56999 0.0
O1383 O 0.88604 0.86285 0.60631 0.0
H1384 H 0.83115 0.92487 0.69765 0.0
H1385 H 0.89328 0.99171 0.65518 0.0
H1386 H 0.82265 0.97906 0.73709 0.0
H1387 H 0.88379 0.0448 0.69552 0.0
H1388 H 0.74652 0.76861 0.58332 0.0
H1389 H 0.79488 0.88891 0.65121 0.0
H1390 H 0.79165 0.79846 0.56661 0.0
H1391 H 0.74985 0.85745 0.66664 0.0
H1392 H 0.77673 1.01537 0.63057 0.0
H1393 H 0.73563 0.91755 0.55578 0.0
H1394 H 0.85326 0.8567 0.76855 0.0
H1395 H 0.81183 0.76426 0.68774 0.0
H1396 H 0.81871 0.90753 0.5167 0.0
H1397 H 0.88515 0.98559 0.58923 0.0
H1398 H 0.80368 0.95613 0.49055 0.0
H1399 H 0.86895 0.03288 0.56186 0.0
H1400 H 0.93251 0.8693 0.57527 0.0
H1401 H 0.87167 0.79593 0.6126 0.0
H1402 H 0.95813 0.82034 0.55605 0.0
H1403 H 0.89859 0.74804 0.59294 0.0
H1404 H 0.99419 0.98986 0.6596 0.0
H1405 H 0.97262 0.96339 0.54605 0.0
H1406 H 0.78835 0.81332 0.45217 0.0
H1407 H 0.87963 0.81824 0.44999 0.0
Li1408 Li 0.96167 0.05192 0.35577 0.0
Li1409 Li 0.91697 1.00836 0.31247 0.0
Li1410 Li 0.95981 0.0479 0.2809 0.0
Li1411 Li 0.91913 0.08412 0.31884 0.0
C1412 C 0.98404 0.99354 0.31711 0.0
N1413 N 0.03087 0.96041 0.32424 0.0
C1414 C 0.98152 0.96208 0.32963 0.0
C1415 C 1.0104 1.00819 0.30826 0.0
C1416 C 1.00545 0.94574 0.33307 0.0
C1417 C 0.03382 0.99102 0.31203 0.0
C1418 C 0.90279 0.04126 0.38063 0.0
C1419 C 0.86682 0.05078 0.41818 0.0
N1420 N 0.87243 0.02302 0.43256 0.0
C1421 C 0.90819 1.01282 0.39571 0.0
C1422 C 0.88193 0.0604 0.39183 0.0
C1423 C 0.89261 1.004 0.42195 0.0
C1424 C 0.9992 0.08142 0.43393 0.0
N1425 N 0.98643 0.05156 0.40805 0.0
C1426 C 1.00285 1.01594 0.44963 0.0
C1427 C 0.98826 0.01917 0.41637 0.0
C1428 C 1.01613 0.04606 0.47689 0.0
C1429 C 1.01378 0.07928 0.46788 0.0
H1430 H 0.99809 0.10749 0.42871 0.0
H1431 H 0.978 0.99502 0.3973 0.0
C1432 C 0.89732 0.92422 0.30698 0.0
N1433 N 0.88877 0.95682 0.31254 0.0
C1434 C 0.87924 0.89171 0.3104 0.0
C1435 C 0.84287 0.92514 0.3242 0.0
C1436 C 0.86158 0.95688 0.32104 0.0
C1437 C 0.85111 0.89125 0.31926 0.0
H1438 H 0.91845 0.92287 0.29985 0.0
H1439 H 0.85411 0.98191 0.32589 0.0
C1440 C 0.98737 0.12037 0.32816 0.0
N1441 N 0.0321 0.17752 0.33411 0.0
C1442 C 0.98197 0.151 0.31708 0.0
C1443 C 1.01544 0.11873 0.34228 0.0
C1444 C 1.00491 0.17963 0.32029 0.0
C1445 C 0.03778 0.14794 0.34508 0.0
C1446 C 0.89152 0.02865 0.24683 0.0
C1447 C 0.89688 1.01575 0.21277 0.0
C1448 C 0.86311 0.02828 0.25299 0.0
C1449 C 0.87358 1.00263 0.18528 0.0
C1450 C 0.8404 1.01486 0.2248 0.0
N1451 N 0.84607 1.00243 0.19182 0.0
C1452 C 0.98669 0.0179 0.20917 0.0
C1453 C 1.00024 0.07969 0.22756 0.0
C1454 C 1.0026 0.01822 0.17954 0.0
N1455 N 0.98526 0.04838 0.2335 0.0
C1456 C 1.01633 0.08106 0.19837 0.0
C1457 C 1.01829 0.05018 0.17285 0.0
H1458 H 0.97541 0.99245 0.21232 0.0
H1459 H 1.00003 0.10451 0.24561 0.0
C1460 C 0.89813 0.15789 0.35083 0.0
N1461 N 0.89422 0.13057 0.32123 0.0
C1462 C 0.88284 0.18735 0.35307 0.0
C1463 C 0.85882 0.16246 0.29453 0.0
C1464 C 0.87442 0.13327 0.29339 0.0
C1465 C 0.86232 0.19094 0.32479 0.0
H1466 H 0.91337 0.15732 0.37354 0.0
H1467 H 0.87028 0.11257 0.26955 0.0
O1468 O 0.96084 1.00979 0.31289 0.0
O1469 O 0.91764 0.05002 0.3547 0.0
O1470 O 0.96525 0.09209 0.32522 0.0
O1471 O 0.91399 0.04133 0.27412 0.0
H1472 H 0.96145 0.95069 0.33713 0.0
H1473 H 1.0127 0.03255 0.29852 0.0
H1474 H 1.00382 0.92142 0.34282 0.0
H1475 H 0.05432 1.00201 0.30521 0.0
H1476 H 0.85062 0.06535 0.42717 0.0
H1477 H 0.92407 0.99753 0.38699 0.0
H1478 H 0.87747 0.08242 0.38027 0.0
H1479 H 0.89651 0.982 0.43382 0.0
H1480 H 1.00339 0.98942 0.45399 0.0
H1481 H 1.02334 0.10383 0.48695 0.0
H1482 H 0.88729 0.86706 0.30574 0.0
H1483 H 0.8217 0.92744 0.33093 0.0
H1484 H 0.96031 0.15259 0.30609 0.0
H1485 H 1.01988 0.09516 0.35102 0.0
H1486 H 1.0011 0.20353 0.3118 0.0
H1487 H 0.05963 0.14713 0.35603 0.0
H1488 H 0.9188 1.01591 0.20765 0.0
H1489 H 0.85868 0.03818 0.27927 0.0
H1490 H 0.87738 0.99264 0.15874 0.0
H1491 H 0.81828 1.01439 0.22913 0.0
H1492 H 1.00256 0.99305 0.1619 0.0
H1493 H 0.02744 0.10691 0.19598 0.0
H1494 H 0.88735 0.20757 0.37738 0.0
H1495 H 0.84385 0.16245 0.27135 0.0
Li1496 Li 0.36239 0.71856 0.65117 0.0
Li1497 Li 0.37089 0.67203 0.60617 0.0
Li1498 Li 0.37018 0.72869 0.59416 0.0
Li1499 Li 0.32496 0.69015 0.60134 0.0
C1500 C 0.42029 0.74521 0.64535 0.0
N1501 N 0.46495 0.80091 0.67943 0.0
C1502 C 0.44897 0.74088 0.64633 0.0
C1503 C 0.41433 0.77779 0.66189 0.0
C1504 C 0.47124 0.7693 0.66381 0.0
C1505 C 0.4372 0.80571 0.67877 0.0
C1506 C 0.35011 0.65098 0.66418 0.0
C1507 C 0.33808 0.61256 0.70392 0.0
N1508 N 0.36668 0.61642 0.71633 0.0
C1509 C 0.37941 0.65463 0.67742 0.0
C1510 C 0.32926 0.62984 0.67756 0.0
C1511 C 0.38734 0.63691 0.70377 0.0
C1512 C 0.3405 0.75802 0.70212 0.0
N1513 N 0.36338 0.74154 0.6986 0.0
C1514 C 0.38091 0.76132 0.76035 0.0
C1515 C 0.38373 0.74302 0.72673 0.0
C1516 C 0.35717 0.77826 0.76436 0.0
C1517 C 0.33731 0.77721 0.73469 0.0
H1518 H 0.32438 0.75603 0.67962 0.0
H1519 H 0.4018 0.72979 0.72315 0.0
C1520 C 0.41339 0.63975 0.57925 0.0
N1521 N 0.3893 0.63254 0.59413 0.0
C1522 C 0.42665 0.61221 0.56485 0.0
C1523 C 0.39079 0.57031 0.58272 0.0
C1524 C 0.37789 0.59872 0.59636 0.0
C1525 C 0.41516 0.57693 0.56613 0.0
H1526 H 0.42168 0.66687 0.57749 0.0
H1527 H 0.35837 0.59367 0.60775 0.0
C1528 C 0.32347 0.76135 0.60374 0.0
N1529 N 0.2907 0.80093 0.56984 0.0
C1530 C 0.31194 0.74928 0.56787 0.0
C1531 C 0.31856 0.79384 0.62218 0.0
C1532 C 0.29541 0.76961 0.55126 0.0
C1533 C 0.30191 0.8134 0.60461 0.0
C1534 C 0.3454 0.64982 0.54041 0.0
C1535 C 0.36369 0.64479 0.51515 0.0
C1536 C 0.3245 0.62109 0.54329 0.0
C1537 C 0.36084 0.61102 0.49329 0.0
C1538 C 0.32231 0.58775 0.52091 0.0
N1539 N 0.34041 0.58343 0.49662 0.0
C1540 C 0.38565 0.75601 0.53664 0.0
C1541 C 0.3832 0.79942 0.58743 0.0
C1542 C 0.38391 0.78084 0.51563 0.0
N1543 N 0.38356 0.76522 0.57138 0.0
C1544 C 0.38107 0.825 0.56739 0.0
C1545 C 0.37948 0.81501 0.53071 0.0
H1546 H 0.38548 0.72857 0.52457 0.0
H1547 H 0.38089 0.80597 0.61491 0.0
C1548 C 0.2758 0.69195 0.62615 0.0
N1549 N 0.28412 0.68069 0.59455 0.0
C1550 C 0.24676 0.68987 0.6289 0.0
C1551 C 0.23485 0.66379 0.5663 0.0
C1552 C 0.26451 0.6671 0.56462 0.0
C1553 C 0.22565 0.67512 0.59896 0.0
H1554 H 0.29197 0.70278 0.64936 0.0
H1555 H 0.27179 0.65881 0.53967 0.0
O1556 O 0.39837 0.7169 0.62982 0.0
O1557 O 0.34162 0.66791 0.63829 0.0
O1558 O 0.33943 0.74165 0.62089 0.0
O1559 O 0.34852 0.68228 0.5631 0.0
H1560 H 0.45395 0.71566 0.63402 0.0
H1561 H 0.3923 0.78144 0.66206 0.0
H1562 H 0.49353 0.76622 0.66497 0.0
H1563 H 0.43286 0.8311 0.69159 0.0
H1564 H 0.3222 0.59607 0.71454 0.0
H1565 H 0.39592 0.67081 0.6675 0.0
H1566 H 0.3065 0.62681 0.66763 0.0
H1567 H 0.40991 0.63939 0.71422 0.0
H1568 H 0.39663 0.76151 0.78292 0.0
H1569 H 0.31909 0.79047 0.73673 0.0
H1570 H 0.44574 0.61845 0.55284 0.0
H1571 H 0.38141 0.54342 0.58426 0.0
H1572 H 0.31551 0.72443 0.5529 0.0
H1573 H 0.32766 0.80403 0.64976 0.0
H1574 H 0.28632 0.7605 0.52358 0.0
H1575 H 0.29793 0.83852 0.61861 0.0
H1576 H 0.38029 0.66649 0.51285 0.0
H1577 H 0.31052 0.6243 0.5631 0.0
H1578 H 0.375 0.60668 0.47382 0.0
H1579 H 0.30634 0.56526 0.52299 0.0
H1580 H 0.38242 0.77194 0.4873 0.0
H1581 H 0.37752 0.851 0.57981 0.0
H1582 H 0.24107 0.69969 0.65445 0.0
H1583 H 0.21941 0.65188 0.54252 0.0
Li1584 Li 0.41627 0.50469 0.81218 0.0
Li1585 Li 0.4615 0.54884 0.85528 0.0
Li1586 Li 0.41868 0.5806 0.8187 0.0
Li1587 Li 0.45924 0.54557 0.78057 0.0
C1588 C 0.40239 0.53773 0.8803 0.0
N1589 N 0.37145 0.51935 0.93171 0.0
C1590 C 0.40819 0.50992 0.89616 0.0
C1591 C 0.38084 0.55616 0.89046 0.0
C1592 C 0.39231 0.50103 0.92213 0.0
C1593 C 0.36545 0.54648 0.91656 0.0
C1594 C 0.48344 0.49027 0.81606 0.0
C1595 C 0.53305 0.48716 0.81055 0.0
N1596 N 0.52992 0.45646 0.82261 0.0
C1597 C 0.48073 0.45872 0.82843 0.0
C1598 C 0.5098 0.50466 0.80706 0.0
C1599 C 0.50448 0.44203 0.83156 0.0
C1600 C 0.39659 0.42059 0.80703 0.0
N1601 N 0.38824 0.4533 0.81288 0.0
C1602 C 0.34265 0.42209 0.82574 0.0
C1603 C 0.36132 0.45365 0.82214 0.0
C1604 C 0.3507 0.38809 0.82051 0.0
C1605 C 0.37856 0.38825 0.81088 0.0
H1606 H 0.41751 0.41902 0.79933 0.0
H1607 H 0.35403 0.47878 0.82724 0.0
C1608 C 0.49923 0.57836 0.93319 0.0
N1609 N 0.48659 0.54846 0.90731 0.0
C1610 C 0.51406 0.57632 0.96703 0.0
C1611 C 0.50365 0.51299 0.94867 0.0
C1612 C 0.48882 0.51612 0.91551 0.0
C1613 C 0.51681 0.54317 0.97592 0.0
H1614 H 0.49781 0.60439 0.92807 0.0
H1615 H 0.47868 0.49193 0.89643 0.0
C1616 C 0.39303 0.53414 0.74501 0.0
N1617 N 0.35219 0.52688 0.68615 0.0
C1618 C 0.40156 0.54216 0.71399 0.0
C1619 C 0.36377 0.52252 0.74618 0.0
C1620 C 0.38058 0.53822 0.68446 0.0
C1621 C 0.34344 0.51908 0.71613 0.0
C1622 C 0.48676 0.61724 0.82621 0.0
C1623 C 0.48093 0.64771 0.81515 0.0
C1624 C 0.51524 0.61512 0.83805 0.0
C1625 C 0.50384 0.67571 0.81609 0.0
C1626 C 0.53754 0.64368 0.83854 0.0
N1627 N 0.53143 0.67311 0.82764 0.0
C1628 C 0.40175 0.65808 0.84652 0.0
C1629 C 0.36737 0.62364 0.79959 0.0
C1630 C 0.38587 0.68702 0.84913 0.0
N1631 N 0.39286 0.62618 0.82191 0.0
C1632 C 0.35112 0.65223 0.80099 0.0
C1633 C 0.3597 0.68538 0.82618 0.0
H1634 H 0.42153 0.66168 0.86484 0.0
H1635 H 0.35907 0.59909 0.78007 0.0
C1636 C 0.48585 0.51622 0.70807 0.0
N1637 N 0.48474 0.54643 0.73296 0.0
C1638 C 0.50177 0.51686 0.67843 0.0
C1639 C 0.51613 0.57951 0.69837 0.0
C1640 C 0.50005 0.57782 0.72754 0.0
C1641 C 0.51779 0.5489 0.67227 0.0
H1642 H 0.47432 0.4907 0.71074 0.0
H1643 H 0.50011 0.60247 0.74601 0.0
O1644 O 0.41743 0.54646 0.85451 0.0
O1645 O 0.46042 0.50688 0.81218 0.0
O1646 O 0.4133 0.53748 0.77402 0.0
O1647 O 0.46472 0.5894 0.8251 0.0
H1648 H 0.42459 0.49515 0.88822 0.0
H1649 H 0.37604 0.57766 0.87827 0.0
H1650 H 0.39651 0.47951 0.93459 0.0
H1651 H 0.3487 0.5605 0.92473 0.0
H1652 H 0.55357 0.49797 0.80363 0.0
H1653 H 0.46066 0.44754 0.83606 0.0
H1654 H 0.51225 0.52907 0.79741 0.0
H1655 H 0.50271 0.41764 0.84119 0.0
H1656 H 0.32168 0.42459 0.83305 0.0
H1657 H 0.38642 0.36347 0.80594 0.0
H1658 H 0.52346 0.60091 0.98613 0.0
H1659 H 0.50447 0.4865 0.95297 0.0
H1660 H 0.42415 0.55129 0.71274 0.0
H1661 H 0.35688 0.51627 0.77006 0.0
H1662 H 0.38683 0.54435 0.66027 0.0
H1663 H 0.32069 0.51018 0.71663 0.0
H1664 H 0.45896 0.64963 0.80585 0.0
H1665 H 0.52003 0.59164 0.84669 0.0
H1666 H 0.49969 0.69948 0.80759 0.0
H1667 H 0.55971 0.64245 0.84762 0.0
H1668 H 0.39448 0.71104 0.86931 0.0
H1669 H 0.33148 0.64795 0.78225 0.0
H1670 H 0.50145 0.49186 0.66035 0.0
H1671 H 0.5275 0.60541 0.69646 0.0
Li1672 Li 0.66851 0.02418 0.87196 0.0
Li1673 Li 0.70872 0.05765 0.83862 0.0
Li1674 Li 0.66395 1.0158 0.7939 0.0
Li1675 Li 0.70699 0.98574 0.83416 0.0
C1676 C 0.66602 0.09367 0.8383 0.0
N1677 N 0.6715 0.16612 0.84199 0.0
C1678 C 0.6722 0.11764 0.87111 0.0
C1679 C 0.66274 0.10652 0.80737 0.0
C1680 C 0.67476 0.15417 0.87242 0.0
C1681 C 0.66564 0.14325 0.80979 0.0
C1682 C 0.73414 0.0502 0.90464 0.0
C1683 C 0.78427 0.07412 0.929 0.0
N1684 N 0.77605 0.09497 0.95672 0.0
C1685 C 0.72616 0.07189 0.93333 0.0
C1686 C 0.7634 0.05128 0.90237 0.0
C1687 C 0.74768 0.09432 0.95943 0.0
C1688 C 0.63989 1.0006 0.93708 0.0
N1689 N 0.64424 0.02773 0.91912 0.0
C1690 C 0.61877 0.06092 0.96266 0.0
C1691 C 0.63355 0.05767 0.93223 0.0
C1692 C 0.61352 0.03316 0.98134 0.0
C1693 C 0.62498 1.00278 0.96739 0.0
H1694 H 0.64814 0.97666 0.92827 0.0
H1695 H 0.63634 0.07982 0.91926 0.0
C1696 C 0.73823 0.11827 0.80737 0.0
N1697 N 0.73458 0.10954 0.83914 0.0
C1698 C 0.75318 0.15257 0.80498 0.0
C1699 C 0.76092 0.17027 0.86789 0.0
C1700 C 0.74588 0.13547 0.86918 0.0
C1701 C 0.76499 0.17991 0.8354 0.0
H1702 H 0.72914 0.09866 0.78324 0.0
H1703 H 0.74295 0.12968 0.89461 0.0
C1704 C 0.64787 0.94442 0.82915 0.0
N1705 N 0.62436 0.87455 0.829 0.0
C1706 C 0.65824 0.92845 0.85589 0.0
C1707 C 0.62548 0.925 0.80242 0.0
C1708 C 0.64623 0.89298 0.85518 0.0
C1709 C 0.61376 0.88973 0.80293 0.0
C1710 C 0.72936 1.01756 0.77532 0.0
C1711 C 0.72312 1.00106 0.73942 0.0
C1712 C 0.75779 0.03383 0.7905 0.0
C1713 C 0.74546 1.0015 0.71916 0.0
C1714 C 0.77951 0.03377 0.76933 0.0
N1715 N 0.77294 0.01776 0.7344 0.0
C1716 C 0.64749 0.02447 0.71398 0.0
C1717 C 0.60682 1.01193 0.741 0.0
C1718 C 0.62957 0.02741 0.6824 0.0
N1719 N 0.63635 1.01664 0.7433 0.0
C1720 C 0.58835 1.01502 0.71027 0.0
C1721 C 0.59905 0.02298 0.67961 0.0
H1722 H 0.67066 0.02933 0.71485 0.0
H1723 H 0.59711 1.00629 0.76347 0.0
C1724 C 0.76049 0.94436 0.8483 0.0
N1725 N 0.73167 0.93877 0.83375 0.0
C1726 C 0.7766 0.91581 0.84877 0.0
C1727 C 0.73442 0.87408 0.81944 0.0
C1728 C 0.71903 0.9034 0.81939 0.0
C1729 C 0.76418 0.87907 0.83427 0.0
H1730 H 0.77172 0.97142 0.85993 0.0
H1731 H 0.69652 0.89713 0.80742 0.0
O1732 O 0.66496 0.05803 0.83637 0.0
O1733 O 0.71332 0.02841 0.87869 0.0
O1734 O 0.66055 0.9784 0.8284 0.0
O1735 O 0.70786 1.01712 0.79568 0.0
H1736 H 0.67565 0.10821 0.89525 0.0
H1737 H 0.65849 0.08837 0.78175 0.0
H1738 H 0.67967 0.17305 0.89762 0.0
H1739 H 0.66349 0.15358 0.78606 0.0
H1740 H 0.80701 0.07529 0.9276 0.0
H1741 H 0.70358 0.07145 0.93536 0.0
H1742 H 0.7699 0.03484 0.88021 0.0
H1743 H 0.74185 0.11127 0.9818 0.0
H1744 H 0.61114 0.0854 0.97125 0.0
H1745 H 0.62307 0.98062 0.98036 0.0
H1746 H 0.75524 0.15763 0.77903 0.0
H1747 H 0.76924 0.18959 0.89245 0.0
H1748 H 0.67578 0.9431 0.87656 0.0
H1749 H 0.61737 0.93699 0.78143 0.0
H1750 H 0.65437 0.88008 0.87536 0.0
H1751 H 0.59639 0.87434 0.78245 0.0
H1752 H 0.70132 0.98771 0.72744 0.0
H1753 H 0.76299 0.04652 0.8183 0.0
H1754 H 0.74098 0.98878 0.69136 0.0
H1755 H 0.8016 0.0464 0.78068 0.0
H1756 H 0.63984 0.03392 0.66058 0.0
H1757 H 0.56532 1.01135 0.71081 0.0
H1758 H 0.79915 0.92289 0.86066 0.0
H1759 H 0.72271 0.84725 0.80753 0.0
Li1760 Li 0.77714 0.70595 0.08949 0.0
Li1761 Li 0.79464 0.65573 0.05188 0.0
Li1762 Li 0.7748 0.70266 0.02087 0.0
Li1763 Li 0.73938 0.65569 0.05004 0.0
C1764 C 0.83054 0.73576 0.07695 0.0
N1765 N 0.87362 0.79124 0.11543 0.0
C1766 C 0.85797 0.72943 0.08781 0.0
C1767 C 0.82496 0.77025 0.08587 0.0
C1768 C 0.87949 0.75786 0.10717 0.0
C1769 C 0.84703 0.79795 0.10529 0.0
C1770 C 0.76075 0.62998 0.10806 0.0
C1771 C 0.74315 0.56895 0.11082 0.0
N1772 N 0.74075 0.58005 0.14539 0.0
C1773 C 0.75806 0.6408 0.14358 0.0
C1774 C 0.75323 0.59379 0.0915 0.0
C1775 C 0.74796 0.61514 0.16201 0.0
C1776 C 0.7659 0.74825 0.15707 0.0
N1777 N 0.78569 0.7333 0.13972 0.0
C1778 C 0.8178 0.74386 0.19503 0.0
C1779 C 0.81133 0.73112 0.15821 0.0
C1780 C 0.79754 0.75852 0.21386 0.0
C1781 C 0.77138 0.76099 0.1941 0.0
H1782 H 0.74528 0.749 0.14259 0.0
H1783 H 0.82641 0.71792 0.14462 0.0
C1784 C 0.84876 0.63564 0.03379 0.0
N1785 N 0.82718 0.62887 0.05314 0.0
C1786 C 0.87388 0.62097 0.0378 0.0
C1787 C 0.85428 0.59178 0.08101 0.0
C1788 C 0.82967 0.60719 0.0764 0.0
C1789 C 0.87721 0.5988 0.06195 0.0
H1790 H 0.84702 0.65355 0.01602 0.0
H1791 H 0.81302 0.60268 0.09243 0.0
C1792 C 0.7295 0.73655 0.06401 0.0
N1793 N 0.69987 0.79053 0.08444 0.0
C1794 C 0.7055 0.73018 0.08097 0.0
C1795 C 0.73823 0.77026 0.05703 0.0
C1796 C 0.69091 0.75785 0.09126 0.0
C1797 C 0.723 0.79724 0.06764 0.0
C1798 C 0.77072 0.62001 0.98629 0.0
C1799 C 0.79231 0.6275 0.96597 0.0
C1800 C 0.75776 0.58461 0.98445 0.0
C1801 C 0.80075 0.5993 0.94423 0.0
C1802 C 0.76679 0.55716 0.96236 0.0
N1803 N 0.78793 0.56501 0.94291 0.0
C1804 C 0.79729 0.76346 0.98859 0.0
C1805 C 0.77438 0.71281 0.94474 0.0
C1806 C 0.80582 0.78189 0.96248 0.0
N1807 N 0.782 0.72914 0.97988 0.0
C1808 C 0.78261 0.73045 0.91765 0.0
C1809 C 0.79883 0.76564 0.92614 0.0
H1810 H 0.80372 0.77662 0.01609 0.0
H1811 H 0.76264 0.68548 0.93742 0.0
C1812 C 0.68898 0.63016 0.084 0.0
N1813 N 0.6988 0.62734 0.05215 0.0
C1814 C 0.66169 0.61077 0.08729 0.0
C1815 C 0.65419 0.58579 0.025 0.0
C1816 C 0.68162 0.6055 0.02288 0.0
C1817 C 0.64363 0.58789 0.05756 0.0
H1818 H 0.70237 0.64753 0.1073 0.0
H1819 H 0.68917 0.60307 0.99764 0.0
O1820 O 0.80898 0.70817 0.05866 0.0
O1821 O 0.77006 0.65478 0.08937 0.0
O1822 O 0.74365 0.70953 0.05304 0.0
O1823 O 0.76268 0.64722 1.00833 0.0
H1824 H 0.86258 0.70285 0.0816 0.0
H1825 H 0.80368 0.77544 0.07838 0.0
H1826 H 0.90082 0.75335 0.11575 0.0
H1827 H 0.84298 0.82476 0.11245 0.0
H1828 H 0.73722 0.54085 0.09834 0.0
H1829 H 0.76357 0.6687 0.15678 0.0
H1830 H 0.75512 0.58503 0.064 0.0
H1831 H 0.74581 0.62316 0.18952 0.0
H1832 H 0.83818 0.74093 0.20873 0.0
H1833 H 0.75494 0.7719 0.20716 0.0
H1834 H 0.89063 0.62719 0.02221 0.0
H1835 H 0.85571 0.5755 0.10044 0.0
H1836 H 0.69829 0.70421 0.0863 0.0
H1837 H 0.75644 0.77546 0.04335 0.0
H1838 H 0.67246 0.75325 0.10466 0.0
H1839 H 0.72951 0.82347 0.06244 0.0
H1840 H 0.80268 0.65478 0.96731 0.0
H1841 H 0.74092 0.57841 0.99991 0.0
H1842 H 0.81756 0.60468 0.92851 0.0
H1843 H 0.757 0.52961 0.9607 0.0
H1844 H 0.81851 0.80874 0.97095 0.0
H1845 H 0.77743 0.71607 0.89039 0.0
H1846 H 0.65492 0.61357 0.11302 0.0
H1847 H 0.6414 0.56865 1.0011 0.0
Li1848 Li 0.92362 0.51678 0.81914 0.0
Li1849 Li 0.96872 0.55922 0.86233 0.0
Li1850 Li 0.92666 0.59083 0.82386 0.0
Li1851 Li 0.96587 0.55329 0.78646 0.0
C1852 C 0.90091 0.55194 0.8779 0.0
N1853 N 0.85268 0.53951 0.91022 0.0
C1854 C 0.90306 0.54048 0.90968 0.0
C1855 C 0.87421 0.5569 0.86247 0.0
C1856 C 0.87843 0.53437 0.92563 0.0
C1857 C 0.85008 0.55052 0.87923 0.0
C1858 C 0.9755 0.48662 0.82542 0.0
C1859 C 0.99677 0.43554 0.80618 0.0
N1860 N 0.99159 0.42405 0.83596 0.0
C1861 C 0.97051 0.47441 0.8559 0.0
C1862 C 0.98882 0.46716 0.80037 0.0
C1863 C 0.97875 0.44266 0.86072 0.0
C1864 C 0.88481 0.43973 0.78805 0.0
N1865 N 0.89776 0.46458 0.81827 0.0
C1866 C 0.8799 0.42058 0.8519 0.0
C1867 C 0.89534 0.45473 0.84984 0.0
C1868 C 0.86636 0.39435 0.82133 0.0
C1869 C 0.86929 0.40499 0.78899 0.0
H1870 H 0.88657 0.44645 0.76269 0.0
H1871 H 0.90583 0.4732 0.87407 0.0
C1872 C 0.9881 0.56356 0.94566 0.0
N1873 N 0.99648 0.558 0.91266 0.0
C1874 C 1.00558 0.55928 0.97697 0.0
C1875 C 0.04114 0.54464 0.94167 0.0
C1876 C 1.02298 0.54859 0.91111 0.0
C1877 C 0.03302 0.54953 0.97593 0.0
H1878 H 0.96755 0.57136 0.94832 0.0
H1879 H 0.03035 0.54362 0.88579 0.0
C1880 C 0.9002 0.54761 0.75245 0.0
N1881 N 0.85912 0.55023 0.69723 0.0
C1882 C 0.9081 0.56569 0.72643 0.0
C1883 C 0.87147 0.53083 0.75045 0.0
C1884 C 0.88698 0.56672 0.6987 0.0
C1885 C 0.851 0.53244 0.72227 0.0
C1886 C 0.9989 0.62169 0.83656 0.0
C1887 C 1.0007 0.65788 0.85105 0.0
C1888 C 1.0239 0.60907 0.82934 0.0
C1889 C 0.02761 0.68096 0.85812 0.0
C1890 C 0.05039 0.63301 0.83663 0.0
N1891 N 0.05168 0.66815 0.85077 0.0
C1892 C 0.9122 0.6718 0.84022 0.0
C1893 C 0.87256 0.63071 0.80657 0.0
C1894 C 0.89623 0.70055 0.84027 0.0
N1895 N 0.90079 0.63665 0.82352 0.0
C1896 C 0.85581 0.6587 0.80631 0.0
C1897 C 0.86703 0.6952 0.82328 0.0
H1898 H 0.93411 0.67834 0.85413 0.0
H1899 H 0.86232 0.6038 0.79287 0.0
C1900 C 0.98968 0.51807 0.71651 0.0
N1901 N 0.98985 0.55025 0.73891 0.0
C1902 C 1.0046 0.515 0.68621 0.0
C1903 C 1.02011 0.57797 0.69996 0.0
C1904 C 1.00509 0.57994 0.73023 0.0
C1905 C 1.0206 0.54506 0.67665 0.0
H1906 H 0.97774 0.49395 0.72172 0.0
H1907 H 1.00583 0.6059 0.74678 0.0
O1908 O 0.92475 0.55866 0.86197 0.0
O1909 O 0.96745 0.51758 0.82031 0.0
O1910 O 0.92047 0.5468 0.78003 0.0
O1911 O 0.97285 0.59853 0.82939 0.0
H1912 H 0.92338 0.53582 0.92163 0.0
H1913 H 0.87217 0.56554 0.83775 0.0
H1914 H 0.87978 0.52545 0.95022 0.0
H1915 H 0.8293 0.55434 0.86762 0.0
H1916 H 1.00709 0.42016 0.78702 0.0
H1917 H 0.96036 0.48933 0.87562 0.0
H1918 H 0.99302 0.47641 0.77679 0.0
H1919 H 0.97494 0.43283 0.88415 0.0
H1920 H 0.87889 0.41471 0.87774 0.0
H1921 H 0.85957 0.38657 0.76429 0.0
H1922 H 0.9976 0.564 1.00195 0.0
H1923 H 0.06177 0.53726 0.93815 0.0
H1924 H 0.93029 0.57885 0.72774 0.0
H1925 H 0.86508 0.51682 0.77051 0.0
H1926 H 0.89274 0.58067 0.67839 0.0
H1927 H 0.82867 0.5196 0.72033 0.0
H1928 H 0.98158 0.66803 0.85687 0.0
H1929 H 1.02281 0.58107 0.81812 0.0
H1930 H 0.02935 0.70906 0.86933 0.0
H1931 H 0.06991 0.62364 0.83108 0.0
H1932 H 0.90701 0.72724 0.85412 0.0
H1933 H 0.83378 0.6514 0.79253 0.0
H1934 H 1.00333 0.48864 0.67008 0.0
H1935 H 0.03144 0.6026 0.69497 0.0
Li1936 Li 0.7622 0.35193 0.56132 0.0
Li1937 Li 0.75848 0.40734 0.54274 0.0
Li1938 Li 0.76676 0.35518 0.50117 0.0
Li1939 Li 0.8045 0.3897 0.54729 0.0
C1940 C 0.70959 0.34737 0.49943 0.0
N1941 N 0.66323 0.32261 0.44535 0.0
C1942 C 0.69839 0.37117 0.48162 0.0
C1943 C 0.69722 0.31102 0.48983 0.0
C1944 C 0.67492 0.35811 0.45434 0.0
C1945 C 0.6738 0.29901 0.46238 0.0
C1946 C 0.78376 0.43346 0.60911 0.0
C1947 C 0.80454 0.4961 0.63047 0.0
N1948 N 0.78457 0.49897 0.65253 0.0
C1949 C 0.7636 0.437 0.63223 0.0
C1950 C 0.8045 0.46322 0.60839 0.0
C1951 C 0.7643 0.47034 0.65388 0.0
C1952 C 0.75217 0.32881 0.62321 0.0
N1953 N 0.75042 0.3186 0.58771 0.0
C1954 C 0.74949 0.25793 0.59082 0.0
C1955 C 0.74731 0.2838 0.57107 0.0
C1956 C 0.75418 0.26834 0.62773 0.0
C1957 C 0.75345 0.30368 0.64391 0.0
H1958 H 0.75546 0.35678 0.63565 0.0
H1959 H 0.74661 0.27685 0.54275 0.0
C1960 C 0.75055 0.48018 0.55298 0.0
N1961 N 0.73868 0.44575 0.55248 0.0
C1962 C 0.73754 0.50796 0.56798 0.0
C1963 C 0.70016 0.46404 0.58067 0.0
C1964 C 0.71359 0.43727 0.56505 0.0
C1965 C 0.71251 0.4999 0.58295 0.0
H1966 H 0.77071 0.48623 0.54326 0.0
H1967 H 0.70477 0.40969 0.56438 0.0
C1968 C 0.8097 0.32178 0.55534 0.0
N1969 N 0.84488 0.29148 0.59781 0.0
C1970 C 0.82188 0.34003 0.58989 0.0
C1971 C 0.81509 0.28758 0.5429 0.0
C1972 C 0.83962 0.32439 0.61081 0.0
C1973 C 0.83302 0.2729 0.56462 0.0
C1974 C 0.80554 0.4238 0.49229 0.0
C1975 C 0.81257 0.40766 0.46004 0.0
C1976 C 0.82006 0.45832 0.50919 0.0
C1977 C 0.83418 0.42621 0.44547 0.0
C1978 C 0.84157 0.47596 0.4938 0.0
N1979 N 0.84812 0.45968 0.46251 0.0
C1980 C 0.74498 0.3313 0.42547 0.0
C1981 C 0.77779 0.30092 0.45198 0.0
C1982 C 0.74593 0.31089 0.39201 0.0
N1983 N 0.76119 0.32624 0.45456 0.0
C1984 C 0.77935 0.28005 0.41942 0.0
C1985 C 0.76409 0.28571 0.38887 0.0
H1986 H 0.73255 0.35226 0.42794 0.0
H1987 H 0.79116 0.29821 0.475 0.0
C1988 C 0.86459 0.41857 0.58356 0.0
N1989 N 0.84565 0.40084 0.55397 0.0
C1990 C 0.89445 0.42155 0.58359 0.0
C1991 C 0.88428 0.38778 0.5233 0.0
C1992 C 0.85499 0.38485 0.52459 0.0
C1993 C 0.90455 0.40617 0.55289 0.0
H1994 H 0.85666 0.42972 0.60723 0.0
H1995 H 0.83947 0.36932 0.50214 0.0
O1996 O 0.73241 0.3596 0.52633 0.0
O1997 O 0.78276 0.40134 0.58668 0.0
O1998 O 0.7922 0.33671 0.5341 0.0
O1999 O 0.78414 0.40619 0.50675 0.0
H2000 H 0.70783 0.39937 0.4886 0.0
H2001 H 0.70562 0.2923 0.50345 0.0
H2002 H 0.66607 0.37619 0.44024 0.0
H2003 H 0.664 0.27094 0.45463 0.0
H2004 H 0.82033 0.51938 0.62987 0.0
H2005 H 0.74726 0.41446 0.6331 0.0
H2006 H 0.82016 0.46111 0.59063 0.0
H2007 H 0.74863 0.4735 0.67161 0.0
H2008 H 0.75042 0.23104 0.57767 0.0
H2009 H 0.75761 0.31275 0.6724 0.0
H2010 H 0.74749 0.53538 0.56913 0.0
H2011 H 0.68052 0.45682 0.59133 0.0
H2012 H 0.81797 0.36611 0.60072 0.0
H2013 H 0.80538 0.27206 0.51693 0.0
H2014 H 0.84923 0.33845 0.63742 0.0
H2015 H 0.83736 0.24658 0.55515 0.0
H2016 H 0.80156 0.38106 0.44639 0.0
H2017 H 0.81492 0.4714 0.53397 0.0
H2018 H 0.83977 0.41407 0.42052 0.0
H2019 H 0.85301 0.50264 0.5067 0.0
H2020 H 0.73414 0.31637 0.36884 0.0
H2021 H 0.79365 0.26102 0.418 0.0
H2022 H 0.90939 0.43607 0.60706 0.0
H2023 H 0.89099 0.37555 0.49933 0.0
Li2024 Li 0.67002 0.52386 0.37989 0.0
Li2025 Li 0.71416 0.56486 0.34813 0.0
Li2026 Li 0.66974 0.51951 0.30666 0.0
Li2027 Li 0.71004 0.48767 0.34029 0.0
C2028 C 0.64938 0.58247 0.34917 0.0
N2029 N 0.60716 0.62344 0.35322 0.0
C2030 C 0.6564 0.61819 0.36736 0.0
C2031 C 0.62085 0.56744 0.33341 0.0
C2032 C 0.63475 0.6385 0.36901 0.0
C2033 C 0.59983 0.58864 0.33563 0.0
C2034 C 0.73765 0.53086 0.41229 0.0
C2035 C 0.78805 0.53458 0.43382 0.0
N2036 N 0.78095 0.52811 0.46499 0.0
C2037 C 0.73081 0.52417 0.44446 0.0
C2038 C 0.76646 0.53613 0.40684 0.0
C2039 C 0.75304 0.52298 0.47081 0.0
C2040 C 0.62959 0.4929 0.43373 0.0
N2041 N 0.6445 0.52416 0.42759 0.0
C2042 C 0.62677 0.55449 0.48124 0.0
C2043 C 0.64285 0.55471 0.4517 0.0
C2044 C 0.6111 0.52257 0.48809 0.0
C2045 C 0.61334 0.49163 0.46282 0.0
H2046 H 0.62996 0.46801 0.41588 0.0
H2047 H 0.65404 0.58017 0.44844 0.0
C2048 C 0.73098 0.64555 0.34026 0.0
N2049 N 0.74186 0.61662 0.34777 0.0
C2050 C 0.74922 0.6782 0.33752 0.0
C2051 C 0.79017 0.65206 0.34954 0.0
C2052 C 0.77137 0.62023 0.35239 0.0
C2053 C 0.77975 0.68236 0.34189 0.0
H2054 H 0.7078 0.64348 0.33545 0.0
H2055 H 0.78079 0.598 0.35773 0.0
C2056 C 0.64256 0.45368 0.31577 0.0
N2057 N 0.59826 0.40428 0.27127 0.0
C2058 C 0.64882 0.42653 0.29047 0.0
C2059 C 0.61381 0.45573 0.31856 0.0
C2060 C 0.6261 0.40173 0.26824 0.0
C2061 C 0.59169 0.43049 0.29576 0.0
C2062 C 0.71444 0.52256 0.2711 0.0
C2063 C 0.71238 0.49024 0.24707 0.0
C2064 C 0.71521 0.5541 0.25891 0.0
C2065 C 0.71127 0.49002 0.21114 0.0
C2066 C 0.71391 0.55275 0.22276 0.0
N2067 N 0.712 0.52101 0.19982 0.0
C2068 C 0.63975 0.55133 0.24761 0.0
C2069 C 0.63553 0.48981 0.22731 0.0
C2070 C 0.62546 0.55422 0.21404 0.0
N2071 N 0.64478 0.51941 0.25461 0.0
C2072 C 0.62117 0.49163 0.19321 0.0
C2073 C 0.61564 0.52426 0.18537 0.0
H2074 H 0.64719 0.57537 0.26806 0.0
H2075 H 0.63954 0.46427 0.23141 0.0
C2076 C 0.75282 0.43707 0.36769 0.0
N2077 N 0.73566 0.44187 0.33849 0.0
C2078 C 0.76896 0.4084 0.36655 0.0
C2079 C 0.75049 0.38796 0.30557 0.0
C2080 C 0.73476 0.41696 0.30771 0.0
C2081 C 0.76853 0.38246 0.33512 0.0
H2082 H 0.75428 0.45549 0.39272 0.0
H2083 H 0.72163 0.41902 0.28392 0.0
O2084 O 0.67015 0.56198 0.34766 0.0
O2085 O 0.71614 0.53125 0.38589 0.0
O2086 O 0.6645 0.47894 0.33679 0.0
O2087 O 0.71392 0.52313 0.30609 0.0
H2088 H 0.67827 0.63 0.38033 0.0
H2089 H 0.61504 0.53973 0.31951 0.0
H2090 H 0.63985 0.66619 0.38297 0.0
H2091 H 0.57767 0.57742 0.32343 0.0
H2092 H 0.81044 0.53842 0.42995 0.0
H2093 H 0.70857 0.51986 0.44897 0.0
H2094 H 0.77201 0.54095 0.3819 0.0
H2095 H 0.74807 0.51797 0.49585 0.0
H2096 H 0.62664 0.57972 0.49868 0.0
H2097 H 0.60231 0.46578 0.4653 0.0
H2098 H 0.73928 0.69971 0.33115 0.0
H2099 H 0.81322 0.65264 0.3531 0.0
H2100 H 0.67098 0.42486 0.28782 0.0
H2101 H 0.60866 0.47675 0.33793 0.0
H2102 H 0.6306 0.38062 0.24845 0.0
H2103 H 0.56931 0.43178 0.29747 0.0
H2104 H 0.7112 0.46554 0.25602 0.0
H2105 H 0.71625 0.57925 0.2771 0.0
H2106 H 0.70958 0.46517 0.19222 0.0
H2107 H 0.71413 0.57688 0.21294 0.0
H2108 H 0.62229 0.58032 0.21063 0.0
H2109 H 0.61449 0.46729 0.17297 0.0
H2110 H 0.78169 0.40657 0.39073 0.0
H2111 H 0.74836 0.36967 0.28028 0.0
C2112 C 0.13466 0.08604 0.13881 0.0
Eu2113 Eu 0.08403 0.0563 0.10204 0.0
C2114 C 0.16243 0.07908 0.12875 0.0
C2115 C 0.17971 0.06343 0.15049 0.0
C2116 C 0.19905 0.04346 0.13632 0.0
C2117 C 0.20169 0.0395 0.10043 0.0
C2118 C 0.18713 0.05869 0.0798 0.0
C2119 C 0.16747 0.07826 0.09381 0.0
C2120 C 0.03667 0.05234 0.14117 0.0
C2121 C 0.08249 0.97288 0.0988 0.0
C2122 C 0.99459 0.99034 0.02287 0.0
Eu2123 Eu 0.04573 1.01703 0.05938 0.0
C2124 C 0.96842 1.00484 0.0299 0.0
C2125 C 0.95965 0.02916 1.01054 0.0
C2126 C 0.94294 0.05317 0.02434 0.0
C2127 C 0.93423 0.05272 0.05732 0.0
C2128 C 0.9399 0.02572 0.07464 0.0
C2129 C 0.95693 1.00195 0.06108 0.0
C2130 C 0.09314 0.02016 0.0205 0.0
C2131 C 0.04833 0.0999 0.06089 0.0
O2132 O 0.11989 0.10237 0.11916 0.0
O2133 O 0.11839 0.05842 0.14519 0.0
O2134 O 0.05427 0.08094 0.13917 0.0
O2135 O 0.0434 0.02668 0.11936 0.0
O2136 O 0.10034 1.00353 0.1024 0.0
O2137 O 0.05597 0.97113 0.08381 0.0
O2138 O 1.0062 0.97589 0.04701 0.0
O2139 O 1.01414 1.01163 1.01224 0.0
O2140 O 0.07531 0.99171 0.02256 0.0
O2141 O 0.08656 0.04615 0.04213 0.0
O2142 O 0.03002 0.07018 0.05943 0.0
O2143 O 0.07503 0.10071 0.07444 0.0
H2144 H 0.17604 0.06341 0.17733 0.0
H2145 H 0.21023 0.0288 0.1526 0.0
H2146 H 0.1888 0.05574 0.052 0.0
H2147 H 0.15429 0.08973 0.07622 0.0
H2148 H 0.96797 0.03192 0.98637 0.0
H2149 H 0.93828 0.07348 1.01029 0.0
H2150 H 0.93311 0.02476 0.1 0.0
H2151 H 0.96305 0.98342 0.07664 0.0
C2152 C 0.30283 0.82947 0.42043 0.0
Eu2153 Eu 0.30957 0.804 0.3559 0.0
C2154 C 0.3251 0.84047 0.45161 0.0
C2155 C 0.31726 0.84326 0.48519 0.0
C2156 C 0.33729 0.84088 0.51334 0.0
C2157 C 0.3649 0.83459 0.50765 0.0
C2158 C 0.37383 0.83699 0.47516 0.0
C2159 C 0.35396 0.84001 0.44721 0.0
C2160 C 0.26811 0.81017 0.30186 0.0
C2161 C 0.28145 0.71801 0.33272 0.0
C2162 C 0.32775 0.74733 0.23392 0.0
Eu2163 Eu 0.3219 0.77156 0.2991 0.0
C2164 C 0.305 0.74005 0.20335 0.0
C2165 C 0.31214 0.73931 0.1696 0.0
C2166 C 0.29225 0.7455 0.14329 0.0
C2167 C 0.26565 0.75366 0.15111 0.0
C2168 C 0.25717 0.74953 0.18338 0.0
C2169 C 0.27674 0.74248 0.20936 0.0
C2170 C 0.36322 0.76506 0.3533 0.0
C2171 C 0.34997 0.85734 0.32238 0.0
O2172 O 0.30523 0.84882 0.39694 0.0
O2173 O 0.2982 0.79543 0.40631 0.0
O2174 O 0.28218 0.83578 0.32718 0.0
O2175 O 0.27726 0.78193 0.30491 0.0
O2176 O 0.29217 0.74483 0.36034 0.0
O2177 O 0.28634 0.72453 0.30193 0.0
O2178 O 0.32379 0.72696 0.2563 0.0
O2179 O 0.33504 0.78097 0.24964 0.0
O2180 O 0.34957 0.73973 0.32743 0.0
O2181 O 0.35412 0.79335 0.35028 0.0
O2182 O 0.33816 0.83106 0.29467 0.0
O2183 O 0.34605 0.85014 0.35322 0.0
H2184 H 0.29507 0.84366 0.48891 0.0
H2185 H 0.32993 0.83937 0.53825 0.0
H2186 H 0.39505 0.83249 0.47032 0.0
H2187 H 0.36027 0.838 0.42128 0.0
H2188 H 0.33386 0.73751 0.16461 0.0
H2189 H 0.29908 0.7484 0.11842 0.0
H2190 H 0.23675 0.75568 0.18977 0.0
H2191 H 0.27093 0.74295 0.23536 0.0
C2192 C 0.48207 0.04219 0.59766 0.0
Eu2193 Eu 0.53617 0.0372 0.59224 0.0
C2194 C 0.45569 0.05554 0.5849 0.0
C2195 C 0.42818 0.03546 0.58491 0.0
C2196 C 0.40285 0.04852 0.57676 0.0
C2197 C 0.40405 0.08223 0.56816 0.0
C2198 C 0.43169 0.10194 0.56711 0.0
C2199 C 0.45713 0.08888 0.57552 0.0
C2200 C 0.57771 0.02767 0.64742 0.0
C2201 C 0.58008 0.1128 0.59644 0.0
C2202 C 0.64938 0.03079 0.55936 0.0
Eu2203 Eu 0.5952 0.03604 0.56377 0.0
C2204 C 0.67413 1.01313 0.56941 0.0
C2205 C 0.68333 0.98911 0.54326 0.0
C2206 C 0.70817 0.97489 0.55071 0.0
C2207 C 0.72495 0.98411 0.58471 0.0
C2208 C 0.71562 1.00808 0.61105 0.0
C2209 C 0.69069 0.0224 0.60352 0.0
C2210 C 0.55378 0.04567 0.50859 0.0
C2211 C 0.55083 0.96071 0.55797 0.0
O2212 O 0.48944 1.01524 0.57739 0.0
O2213 O 0.5046 0.06543 0.61588 0.0
O2214 O 0.55063 0.02883 0.64863 0.0
O2215 O 0.58094 0.03107 0.61591 0.0
O2216 O 0.55331 0.09589 0.59548 0.0
O2217 O 0.60086 0.09534 0.58816 0.0
O2218 O 0.64171 0.05448 0.58334 0.0
O2219 O 0.62717 1.01166 0.53654 0.0
O2220 O 0.58074 0.04385 0.50727 0.0
O2221 O 0.55035 0.04235 0.5401 0.0
O2222 O 0.57797 0.9772 0.56055 0.0
O2223 O 0.53008 0.97866 0.56499 0.0
H2224 H 0.42625 1.00975 0.59208 0.0
H2225 H 0.38222 0.0321 0.57739 0.0
H2226 H 0.4338 0.12808 0.56094 0.0
H2227 H 0.47794 0.1052 0.5754 0.0
H2228 H 0.67165 0.98188 0.51652 0.0
H2229 H 0.71458 0.95731 0.52926 0.0
H2230 H 0.72754 1.01584 0.63764 0.0
H2231 H 0.68466 0.04114 0.62437 0.0
C2232 C 0.39794 0.26527 0.82571 0.0
Eu2233 Eu 0.34362 0.26956 0.82975 0.0
C2234 C 0.42514 0.27875 0.8126 0.0
C2235 C 0.45191 0.28283 0.83419 0.0
C2236 C 0.47812 0.29144 0.82155 0.0
C2237 C 0.47848 0.29635 0.78679 0.0
C2238 C 0.45156 0.29334 0.76549 0.0
C2239 C 0.42527 0.28454 0.77815 0.0
C2240 C 0.30084 0.21204 0.83762 0.0
C2241 C 0.30315 0.26677 0.7551 0.0
C2242 C 0.23179 0.30204 0.83468 0.0
Eu2243 Eu 0.28606 0.29704 0.8318 0.0
C2244 C 0.20399 0.2898 0.84692 0.0
C2245 C 0.17798 0.29274 0.82746 0.0
C2246 C 0.15148 0.28497 0.83961 0.0
C2247 C 0.15008 0.27392 0.87174 0.0
C2248 C 0.17618 0.26993 0.89075 0.0
C2249 C 0.2028 0.27791 0.87857 0.0
C2250 C 0.32887 0.35449 0.82409 0.0
C2251 C 0.32669 0.3004 0.90636 0.0
O2252 O 0.38989 0.28573 0.85203 0.0
O2253 O 0.3759 0.24617 0.80263 0.0
O2254 O 0.32798 0.21188 0.83616 0.0
O2255 O 0.29781 0.2438 0.83525 0.0
O2256 O 0.32932 0.26765 0.77169 0.0
O2257 O 0.28193 0.27381 0.77277 0.0
O2258 O 0.23996 0.28086 0.809 0.0
O2259 O 0.25364 0.32082 0.85824 0.0
O2260 O 0.30194 0.35502 0.82651 0.0
O2261 O 0.33183 0.32269 0.82633 0.0
O2262 O 0.30018 0.29821 0.88994 0.0
O2263 O 0.348 0.29442 0.88843 0.0
H2264 H 0.45259 0.27844 0.86079 0.0
H2265 H 0.49817 0.29403 0.8391 0.0
H2266 H 0.4507 0.29655 0.73851 0.0
H2267 H 0.40507 0.28144 0.76069 0.0
H2268 H 0.1782 0.3019 0.803 0.0
H2269 H 0.13205 0.28784 0.82378 0.0
H2270 H 0.17623 0.26179 0.91571 0.0
H2271 H 0.22249 0.27551 0.89427 0.0
C2272 C 0.08762 0.95137 0.53411 0.0
Eu2273 Eu 0.07329 1.01068 0.56389 0.0
C2274 C 0.07116 0.91553 0.5191 0.0
C2275 C 0.08592 0.88761 0.51068 0.0
C2276 C 0.07211 0.85273 0.50908 0.0
C2277 C 0.04382 0.84613 0.51686 0.0
C2278 C 0.0277 0.87336 0.51921 0.0
C2279 C 0.04145 0.90818 0.5205 0.0
C2280 C 0.1142 0.06979 0.56107 0.0
C2281 C 0.09874 0.02832 0.64907 0.0
C2282 C 0.04516 0.11956 0.6296 0.0
Eu2283 Eu 0.05838 0.06026 0.59823 0.0
C2284 C 0.06314 0.15356 0.64846 0.0
C2285 C 0.05022 0.18115 0.66391 0.0
C2286 C 0.06516 0.21633 0.67029 0.0
C2287 C 0.09228 0.22361 0.65932 0.0
C2288 C 0.10723 0.19565 0.65092 0.0
C2289 C 0.09253 0.1605 0.64527 0.0
C2290 C 1.01743 1.00088 0.60042 0.0
C2291 C 0.03226 0.04211 0.51311 0.0
O2292 O 0.08222 0.97574 0.51728 0.0
O2293 O 0.08852 0.96179 0.56804 0.0
O2294 O 0.0996 0.04612 0.53453 0.0
O2295 O 0.1047 0.06363 0.58877 0.0
O2296 O 0.08872 1.00163 0.62108 0.0
O2297 O 0.09366 0.05939 0.64423 0.0
O2298 O 0.04687 0.09287 0.64454 0.0
O2299 O 0.04642 0.11138 0.59591 0.0
O2300 O 0.03227 0.02398 0.62725 0.0
O2301 O 0.02691 1.00769 0.57294 0.0
O2302 O 0.04192 0.06886 0.54116 0.0
O2303 O 0.0379 1.0112 0.51785 0.0
H2304 H 0.10882 0.89307 0.5092 0.0
H2305 H 0.08473 0.83186 0.50682 0.0
H2306 H 1.00586 0.86885 0.52519 0.0
H2307 H 0.02981 0.92972 0.52677 0.0
H2308 H 0.02771 0.17592 0.66731 0.0
H2309 H 0.05359 0.23768 0.67775 0.0
H2310 H 0.12835 0.20049 0.64293 0.0
H2311 H 0.10294 0.1391 0.63415 0.0
C2312 C 0.25462 0.72207 0.7428 0.0
Eu2313 Eu 0.28807 0.75831 0.80029 0.0
C2314 C 0.22354 0.71963 0.73034 0.0
C2315 C 0.20227 0.69925 0.74428 0.0
C2316 C 0.1731 0.70015 0.73544 0.0
C2317 C 0.1645 0.72118 0.71223 0.0
C2318 C 0.18567 0.7405 0.69728 0.0
C2319 C 0.21487 0.73982 0.70632 0.0
C2320 C 0.26857 0.76475 0.86313 0.0
C2321 C 0.27971 0.84162 0.83251 0.0
C2322 C 0.36574 0.83178 0.92023 0.0
Eu2323 Eu 0.33208 0.7992 0.86223 0.0
C2324 C 0.39649 0.83053 0.92911 0.0
C2325 C 0.41519 0.83502 0.90441 0.0
C2326 C 0.44349 0.83004 0.91079 0.0
C2327 C 0.45425 0.82163 0.94262 0.0
C2328 C 0.43536 0.81693 0.96728 0.0
C2329 C 0.40656 0.82037 0.96008 0.0
C2330 C 0.35132 0.79409 0.79935 0.0
C2331 C 0.34222 0.71731 0.82867 0.0
O2332 O 0.2716 0.75277 0.74456 0.0
O2333 O 0.26082 0.70852 0.77028 0.0
O2334 O 0.2527 0.76427 0.83372 0.0
O2335 O 0.29298 0.75863 0.85728 0.0
O2336 O 0.27301 0.81367 0.80469 0.0
O2337 O 0.30038 0.84049 0.85889 0.0
O2338 O 0.34787 0.80156 0.91753 0.0
O2339 O 0.35933 0.84788 0.89465 0.0
O2340 O 0.36746 0.7943 0.82845 0.0
O2341 O 0.32683 0.79949 0.80544 0.0
O2342 O 0.34897 0.74517 0.85638 0.0
O2343 O 0.3207 0.71786 0.80305 0.0
H2344 H 0.20813 0.68327 0.76279 0.0
H2345 H 0.15736 0.68498 0.74745 0.0
H2346 H 0.17969 0.75611 0.67846 0.0
H2347 H 0.23071 0.75554 0.69489 0.0
H2348 H 0.40782 0.84149 0.87956 0.0
H2349 H 0.45672 0.83251 0.89038 0.0
H2350 H 0.44269 0.81089 0.99233 0.0
H2351 H 0.39213 0.81482 0.97862 0.0
C2352 C 0.61281 0.14065 0.11672 0.0
Eu2353 Eu 0.58483 0.0763 0.09253 0.0
C2354 C 0.64437 0.15158 0.11868 0.0
C2355 C 0.66334 0.1374 0.14003 0.0
C2356 C 0.6928 0.14374 0.13877 0.0
C2357 C 0.70425 0.1648 0.11649 0.0
C2358 C 0.68549 0.1799 0.0958 0.0
C2359 C 0.65574 0.1732 0.09678 0.0
C2360 C 0.6156 0.02447 0.09918 0.0
C2361 C 0.59718 0.03622 0.0147 0.0
C2362 C 0.52377 0.93941 0.04153 0.0
Eu2363 Eu 0.55076 1.00457 0.0659 0.0
C2364 C 0.49404 0.92423 0.04514 0.0
C2365 C 0.4732 0.91214 0.0147 0.0
C2366 C 0.44387 0.9077 0.01732 0.0
C2367 C 0.43464 0.91405 0.05059 0.0
C2368 C 0.45566 0.92337 0.08114 0.0
C2369 C 0.48504 0.9289 0.07845 0.0
C2370 C 0.52075 0.05773 0.06016 0.0
C2371 C 0.53799 0.04412 0.14377 0.0
O2372 O 0.59782 0.13056 0.08488 0.0
O2373 O 0.60469 0.11941 0.13734 0.0
O2374 O 0.6258 0.05387 0.09068 0.0
O2375 O 0.59019 0.02441 0.10525 0.0
O2376 O 0.59789 0.06787 0.03585 0.0
O2377 O 0.5827 1.00735 0.0235 0.0
O2378 O 0.54304 0.94883 0.07036 0.0
O2379 O 0.52523 0.96362 0.02249 0.0
O2380 O 0.51038 0.02851 0.06906 0.0
O2381 O 0.54576 0.05659 0.05326 0.0
O2382 O 0.53643 1.01267 0.12178 0.0
O2383 O 0.55339 0.07306 0.13581 0.0
H2384 H 0.65544 0.12039 0.15708 0.0
H2385 H 0.70651 0.13126 0.15467 0.0
H2386 H 0.69375 0.19674 0.07879 0.0
H2387 H 0.64157 0.18444 0.08008 0.0
H2388 H 0.47961 0.90878 0.98873 0.0
H2389 H 0.42864 0.90111 0.99301 0.0
H2390 H 0.44954 0.92743 0.10721 0.0
H2391 H 0.50062 0.93836 0.10249 0.0
C2392 C 0.39011 0.35397 0.36774 0.0
Eu2393 Eu 0.33915 0.31401 0.35405 0.0
C2394 C 0.41474 0.34607 0.34988 0.0
C2395 C 0.42836 0.31808 0.35674 0.0
C2396 C 0.44394 0.30189 0.33239 0.0
C2397 C 0.44645 0.31366 0.30099 0.0
C2398 C 0.43573 0.3442 0.29611 0.0
C2399 C 0.42009 0.36036 0.32043 0.0
C2400 C 0.3088 0.28546 0.40146 0.0
C2401 C 0.34715 0.22743 0.32605 0.0
C2402 C 0.23698 0.2212 0.30071 0.0
Eu2403 Eu 0.28766 0.26154 0.31016 0.0
C2404 C 0.21476 0.22571 0.324 0.0
C2405 C 0.19641 0.24997 0.31987 0.0
C2406 C 0.1817 0.26251 0.3471 0.0
C2407 C 0.18501 0.25114 0.37912 0.0
C2408 C 0.20112 0.22431 0.38188 0.0
C2409 C 0.21555 0.21144 0.35443 0.0
C2410 C 0.31763 0.28936 0.26222 0.0
C2411 C 0.28053 0.34874 0.33612 0.0
O2412 O 0.36854 0.36103 0.34782 0.0
O2413 O 0.38124 0.33201 0.38735 0.0
O2414 O 0.33084 0.31171 0.41013 0.0
O2415 O 0.30236 0.27831 0.36789 0.0
O2416 O 0.35942 0.26163 0.34119 0.0
O2417 O 0.31899 0.22052 0.31225 0.0
O2418 O 0.2604 0.212 0.31442 0.0
O2419 O 0.24296 0.24654 0.28356 0.0
O2420 O 0.29522 0.26345 0.25398 0.0
O2421 O 0.32449 0.29715 0.29586 0.0
O2422 O 0.26801 0.3145 0.32157 0.0
O2423 O 0.30852 0.35545 0.35045 0.0
H2424 H 0.42502 0.30662 0.37941 0.0
H2425 H 0.45222 0.27863 0.33702 0.0
H2426 H 0.43826 0.35457 0.27263 0.0
H2427 H 0.41022 0.38219 0.31467 0.0
H2428 H 0.19481 0.26105 0.2965 0.0
H2429 H 0.16859 0.28217 0.34353 0.0
H2430 H 0.20403 0.21469 0.40601 0.0
H2431 H 0.22891 0.19207 0.35811 0.0
C2432 C 0.58391 0.44488 0.03479 0.0
Eu2433 Eu 0.57334 0.50683 0.06334 0.0
C2434 C 0.5635 0.41167 0.0186 0.0
C2435 C 0.57262 0.37916 0.01702 0.0
C2436 C 0.55242 0.34832 0.01564 0.0
C2437 C 0.52322 0.35032 0.01688 0.0
C2438 C 0.51366 0.38155 1.01228 0.0
C2439 C 0.53383 0.41227 0.01331 0.0
C2440 C 0.61465 0.56526 0.05964 0.0
C2441 C 0.59974 0.52759 0.1488 0.0
C2442 C 0.54376 0.61673 0.12711 0.0
Eu2443 Eu 0.55845 0.55772 0.09722 0.0
C2444 C 0.55991 0.65237 0.14377 0.0
C2445 C 0.54487 0.67936 0.15498 0.0
C2446 C 0.55795 0.71487 0.15823 0.0
C2447 C 0.5856 0.72296 0.14894 0.0
C2448 C 0.60237 0.69641 0.14446 0.0
C2449 C 0.58941 0.66097 0.14165 0.0
C2450 C 0.51764 0.49834 0.09988 0.0
C2451 C 0.53308 0.53936 1.01213 0.0
O2452 O 0.58341 0.47072 0.01825 0.0
O2453 O 0.58387 0.45557 0.06852 0.0
O2454 O 0.60079 0.54048 0.03345 0.0
O2455 O 0.60471 0.5601 0.08745 0.0
O2456 O 0.59042 0.50041 0.12107 0.0
O2457 O 0.59378 0.5582 0.14358 0.0
O2458 O 0.54814 0.59172 0.14351 0.0
O2459 O 0.5442 0.60725 0.09333 0.0
O2460 O 0.53244 0.52167 0.12656 0.0
O2461 O 0.52711 0.50503 0.07238 0.0
O2462 O 0.54288 0.56624 0.03997 0.0
O2463 O 0.53844 0.5084 0.01707 0.0
H2464 H 0.59545 0.37835 0.02103 0.0
H2465 H 0.56033 0.3245 0.01917 0.0
H2466 H 0.49127 0.3836 0.01314 0.0
H2467 H 0.52644 0.43726 0.01445 0.0
H2468 H 0.52218 0.67292 0.15727 0.0
H2469 H 0.54489 0.73519 0.16237 0.0
H2470 H 0.62383 0.70202 0.13755 0.0
H2471 H 0.60134 0.64013 0.1335 0.0
C2472 C 0.76764 0.24338 0.2337 0.0
Eu2473 Eu 0.79695 0.27017 0.29598 0.0
C2474 C 0.73852 0.24804 0.21961 0.0
C2475 C 0.71518 0.21923 0.2137 0.0
C2476 C 0.68696 0.22409 0.20555 0.0
C2477 C 0.68127 0.25785 0.20261 0.0
C2478 C 0.70462 0.28669 0.20803 0.0
C2479 C 0.73299 0.28187 0.21654 0.0
C2480 C 0.77104 0.26964 0.3544 0.0
C2481 C 0.78569 0.35029 0.33286 0.0
C2482 C 0.86459 0.33324 0.42549 0.0
Eu2483 Eu 0.83515 0.30453 0.36375 0.0
C2484 C 0.89537 0.33363 0.43744 0.0
C2485 C 0.91695 0.34997 0.42088 0.0
C2486 C 0.94576 0.34802 0.43015 0.0
C2487 C 0.95384 0.33004 0.45648 0.0
C2488 C 0.9323 0.31381 0.47322 0.0
C2489 C 0.90328 0.3153 0.46353 0.0
C2490 C 0.86213 0.30566 0.30661 0.0
C2491 C 0.84564 0.22362 0.32702 0.0
O2492 O 0.78858 0.27153 0.24023 0.0
O2493 O 0.76834 0.2255 0.25884 0.0
O2494 O 0.75836 0.27396 0.32483 0.0
O2495 O 0.79578 0.26353 0.35073 0.0
O2496 O 0.78205 0.3254 0.30292 0.0
O2497 O 0.80359 0.34624 0.36067 0.0
O2498 O 0.84731 0.30196 0.41876 0.0
O2499 O 0.8594 0.35168 0.40156 0.0
O2500 O 0.87434 0.30198 0.33662 0.0
O2501 O 0.83692 0.31111 0.30887 0.0
O2502 O 0.85001 0.24914 0.35667 0.0
O2503 O 0.82737 0.22734 0.29938 0.0
H2504 H 0.71866 0.19309 0.21668 0.0
H2505 H 0.6695 0.20138 0.2024 0.0
H2506 H 0.70101 0.31293 0.20569 0.0
H2507 H 0.75047 0.30484 0.22146 0.0
H2508 H 0.91166 0.36379 0.40019 0.0
H2509 H 0.96168 0.36028 0.41626 0.0
H2510 H 0.93784 0.30031 0.49409 0.0
H2511 H 0.88703 0.30235 0.47655 0.0
C2512 C 0.1045 0.64029 0.60992 0.0
Eu2513 Eu 0.08007 0.57379 0.58892 0.0
C2514 C 0.13513 0.65553 0.60912 0.0
C2515 C 0.15653 0.65476 0.63691 0.0
C2516 C 0.18566 0.66155 0.63362 0.0
C2517 C 0.19445 0.67008 0.60267 0.0
C2518 C 0.17318 0.67264 0.57545 0.0
C2519 C 0.14381 0.66523 0.57856 0.0
C2520 C 0.1153 0.52637 0.5977 0.0
C2521 C 0.09361 0.53332 0.51234 0.0
C2522 C 0.02666 0.43327 0.54602 0.0
Eu2523 Eu 0.05084 0.49961 0.56662 0.0
C2524 C 0.99552 0.41973 0.54588 0.0
C2525 C 0.97511 0.4215 0.51739 0.0
C2526 C 0.94578 0.41657 0.5197 0.0
C2527 C 0.93586 0.40983 0.55064 0.0
C2528 C 0.95597 0.40678 0.57882 0.0
C2529 C 0.98553 0.41163 0.57643 0.0
C2530 C 1.01461 0.54511 0.55789 0.0
C2531 C 0.03682 0.54188 0.64313 0.0
O2532 O 0.08768 0.62786 0.57933 0.0
O2533 O 0.10057 0.61884 0.63161 0.0
O2534 O 0.12276 0.55495 0.58634 0.0
O2535 O 0.09005 0.52462 0.60475 0.0
O2536 O 0.09239 0.56493 0.53214 0.0
O2537 O 0.08145 0.50408 0.52276 0.0
O2538 O 0.04283 0.44588 0.57705 0.0
O2539 O 0.03211 0.4538 0.52381 0.0
O2540 O 1.00752 0.51566 0.56778 0.0
O2541 O 0.04014 0.5487 0.55124 0.0
O2542 O 0.0372 0.50999 0.62302 0.0
O2543 O 0.04986 0.57079 0.63305 0.0
H2544 H 0.15083 0.64685 0.66064 0.0
H2545 H 0.20114 0.65854 0.655 0.0
H2546 H 0.17912 0.67969 0.55146 0.0
H2547 H 0.12791 0.66565 0.55642 0.0
H2548 H 0.9818 0.42877 0.49383 0.0
H2549 H 0.93099 0.41958 0.49762 0.0
H2550 H 0.94893 0.40112 0.60283 0.0
H2551 H 1.00063 0.41074 0.59916 0.0
C2552 C 0.89849 0.76862 0.32512 0.0
Eu2553 Eu 0.84411 0.77269 0.32866 0.0
C2554 C 0.92564 0.78155 0.31169 0.0
C2555 C 0.95233 0.7877 0.334 0.0
C2556 C 0.97859 0.79584 0.32135 0.0
C2557 C 0.97906 0.79815 0.28586 0.0
C2558 C 0.95219 0.79304 0.26377 0.0
C2559 C 0.92586 0.78474 0.27645 0.0
C2560 C 0.80146 0.71563 0.33732 0.0
C2561 C 0.80338 0.76938 0.25365 0.0
C2562 C 0.73213 0.80467 0.33391 0.0
Eu2563 Eu 0.78644 0.80023 0.33054 0.0
C2564 C 0.70557 0.79543 0.34999 0.0
C2565 C 0.69248 0.82318 0.36534 0.0
C2566 C 0.66629 0.816 0.37823 0.0
C2567 C 0.65214 0.78067 0.37638 0.0
C2568 C 0.66533 0.75274 0.36102 0.0
C2569 C 0.69163 0.76001 0.34793 0.0
C2570 C 0.82925 0.85749 0.3225 0.0
C2571 C 0.82712 0.8037 0.40535 0.0
O2572 O 0.89033 0.78989 0.35073 0.0
O2573 O 0.87653 0.7487 0.30245 0.0
O2574 O 0.82857 0.71529 0.3358 0.0
O2575 O 0.79847 0.7473 0.33457 0.0
O2576 O 0.82936 0.76926 0.27022 0.0
O2577 O 0.78247 0.77781 0.27133 0.0
O2578 O 0.74014 0.77991 0.31143 0.0
O2579 O 0.75417 0.82768 0.35356 0.0
O2580 O 0.80225 0.85795 0.32456 0.0
O2581 O 0.83223 0.8257 0.32489 0.0
O2582 O 0.80079 0.80244 0.38889 0.0
O2583 O 0.84831 0.79692 0.38748 0.0
H2584 H 0.95293 0.78531 0.36123 0.0
H2585 H 0.9986 0.80011 0.33947 0.0
H2586 H 0.95143 0.79422 0.23623 0.0
H2587 H 0.90572 0.77998 0.25844 0.0
H2588 H 0.7023 0.85072 0.36675 0.0
H2589 H 0.65684 0.8384 0.38898 0.0
H2590 H 0.65547 0.72518 0.35929 0.0
H2591 H 0.70088 0.73789 0.33596 0.0
C2592 C 0.79946 0.32786 0.91994 0.0
Eu2593 Eu 0.80831 0.30329 0.85603 0.0
C2594 C 0.8205 0.33885 0.95229 0.0
C2595 C 0.81118 0.33876 0.98484 0.0
C2596 C 0.83065 0.33683 0.01373 0.0
C2597 C 0.85939 0.33433 1.0099 0.0
C2598 C 0.8694 0.339 0.97849 0.0
C2599 C 0.84999 0.34131 0.94976 0.0
C2600 C 0.76743 0.30918 0.80119 0.0
C2601 C 0.78136 0.21721 0.83266 0.0
C2602 C 0.82943 0.24711 0.73564 0.0
Eu2603 Eu 0.82188 0.27139 0.80015 0.0
C2604 C 0.80735 0.23781 0.70423 0.0
C2605 C 0.8154 0.23665 0.67086 0.0
C2606 C 0.79563 0.24069 0.6432 0.0
C2607 C 0.76813 0.247 0.64925 0.0
C2608 C 0.75898 0.24329 0.68131 0.0
C2609 C 0.77852 0.23849 0.70868 0.0
C2610 C 0.86264 0.26538 0.85519 0.0
C2611 C 0.84945 0.35721 0.82384 0.0
O2612 O 0.80279 0.34757 0.89688 0.0
O2613 O 0.79547 0.29395 0.90558 0.0
O2614 O 0.78117 0.33479 0.82671 0.0
O2615 O 0.77675 0.28103 0.80434 0.0
O2616 O 0.79178 0.24396 0.86037 0.0
O2617 O 0.78631 0.22401 0.80201 0.0
O2618 O 0.826 0.22705 0.75838 0.0
O2619 O 0.83494 0.28094 0.75073 0.0
O2620 O 0.84935 0.23996 0.8292 0.0
O2621 O 0.85334 0.29353 0.852 0.0
O2622 O 0.83864 0.33073 0.79601 0.0
O2623 O 0.84451 0.3502 0.85446 0.0
H2624 H 0.78845 0.33663 0.98702 0.0
H2625 H 0.82235 0.33286 0.03761 0.0
H2626 H 0.89143 0.33706 0.97504 0.0
H2627 H 0.85742 0.34129 0.92463 0.0
H2628 H 0.83758 0.23621 0.66709 0.0
H2629 H 0.80308 0.24345 0.6186 0.0
H2630 H 0.7379 0.24811 0.68641 0.0
H2631 H 0.77204 0.23934 0.73441 0.0
C2632 C 0.89175 0.8534 0.86046 0.0
Eu2633 Eu 0.8411 0.8132 0.85096 0.0
C2634 C 0.9141 0.84735 0.83776 0.0
C2635 C 0.93161 0.82247 0.84312 0.0
C2636 C 0.94555 0.80753 0.81614 0.0
C2637 C 0.9424 0.81729 0.78334 0.0
C2638 C 0.92734 0.8447 0.77918 0.0
C2639 C 0.91364 0.85995 0.80635 0.0
C2640 C 0.81139 0.7847 0.89899 0.0
C2641 C 0.8488 0.72643 0.82389 0.0
C2642 C 0.7387 0.71912 0.7977 0.0
Eu2643 Eu 0.78914 0.76014 0.80763 0.0
C2644 C 0.71629 0.7231 0.82072 0.0
C2645 C 0.69715 0.74625 0.81572 0.0
C2646 C 0.68277 0.75953 0.84299 0.0
C2647 C 0.68735 0.75014 0.87591 0.0
C2648 C 0.70396 0.72394 0.87947 0.0
C2649 C 0.71789 0.71015 0.85191 0.0
C2650 C 0.81893 0.78833 0.75966 0.0
C2651 C 0.78192 0.84738 0.83403 0.0
O2652 O 0.86855 0.86211 0.84553 0.0
O2653 O 0.88538 0.82922 0.87882 0.0
O2654 O 0.83356 0.81094 0.90737 0.0
O2655 O 0.80464 0.77743 0.86539 0.0
O2656 O 0.86108 0.76066 0.83874 0.0
O2657 O 0.82066 0.71938 0.80998 0.0
O2658 O 0.76223 0.71028 0.81159 0.0
O2659 O 0.74452 0.74473 0.78084 0.0
O2660 O 0.79663 0.76228 0.75123 0.0
O2661 O 0.82559 0.79568 0.79324 0.0
O2662 O 0.7694 0.81309 0.81954 0.0
O2663 O 0.81001 0.85424 0.84801 0.0
H2664 H 0.93277 0.81242 0.86712 0.0
H2665 H 0.9572 0.78661 0.8202 0.0
H2666 H 0.92527 0.85342 0.75447 0.0
H2667 H 0.90102 0.87981 0.80176 0.0
H2668 H 0.69483 0.75612 0.79167 0.0
H2669 H 0.66908 0.77841 0.83872 0.0
H2670 H 0.70776 0.71565 0.90422 0.0
H2671 H 0.73165 0.69134 0.85612 0.0
C2672 C 0.63475 0.58402 0.63677 0.0
Eu2673 Eu 0.58337 0.55612 0.60136 0.0
C2674 C 0.66155 0.57177 0.62851 0.0
C2675 C 0.67305 0.54938 0.64826 0.0
C2676 C 0.69131 0.52757 0.63435 0.0
C2677 C 0.69879 0.52827 0.60077 0.0
C2678 C 0.69005 0.55347 0.58278 0.0
C2679 C 0.67148 0.57502 0.59648 0.0
C2680 C 0.53618 0.5515 0.64058 0.0
C2681 C 0.58177 0.47233 0.59794 0.0
C2682 C 0.49364 0.48845 0.52199 0.0
Eu2683 Eu 0.54486 0.51615 0.55813 0.0
C2684 C 0.46701 0.50219 0.52829 0.0
C2685 C 0.45639 0.52321 0.50625 0.0
C2686 C 0.43796 0.54599 0.51765 0.0
C2687 C 0.42943 0.54774 0.55105 0.0
C2688 C 0.43749 0.524 0.57146 0.0
C2689 C 0.4562 0.50148 0.56025 0.0
C2690 C 0.59248 0.52038 0.51963 0.0
C2691 C 0.54613 0.60006 0.56169 0.0
O2692 O 0.62188 0.59872 0.61375 0.0
O2693 O 0.61633 0.56098 0.64702 0.0
O2694 O 0.55395 0.58024 0.63917 0.0
O2695 O 0.5428 0.52601 0.6183 0.0
O2696 O 0.59943 0.50324 0.60227 0.0
O2697 O 0.55543 0.47016 0.58214 0.0
O2698 O 0.50551 0.4748 0.5466 0.0
O2699 O 0.51291 0.50985 0.51108 0.0
O2700 O 0.57487 0.4916 0.52141 0.0
O2701 O 0.58545 0.54604 0.54127 0.0
O2702 O 0.52892 0.56867 0.55588 0.0
O2703 O 0.57212 0.60284 0.57887 0.0
H2704 H 0.66591 0.54638 0.67301 0.0
H2705 H 0.69823 0.50863 0.6489 0.0
H2706 H 0.69566 0.55452 0.55689 0.0
H2707 H 0.66314 0.59204 0.58054 0.0
H2708 H 0.46425 0.52428 0.48149 0.0
H2709 H 0.43161 0.56365 0.50116 0.0
H2710 H 0.43114 0.52479 0.59728 0.0
H2711 H 0.46386 0.48562 0.57795 0.0
C2712 C 0.98229 0.54349 0.09736 0.0
Eu2713 Eu 0.03628 0.53795 0.0921 0.0
C2714 C 0.95603 0.55702 0.0846 0.0
C2715 C 0.92846 0.5364 0.08324 0.0
C2716 C 0.90316 0.54956 0.07521 0.0
C2717 C 0.90447 0.58391 0.06814 0.0
C2718 C 0.93218 0.60419 0.06842 0.0
C2719 C 0.95758 0.59102 0.0767 0.0
C2720 C 0.07754 0.5283 0.14742 0.0
C2721 C 0.08076 0.61302 0.09614 0.0
C2722 C 0.14961 0.52987 0.0595 0.0
Eu2723 Eu 0.09552 0.53581 0.06388 0.0
C2724 C 0.17444 0.5122 0.06928 0.0
C2725 C 0.18497 0.49055 0.04247 0.0
C2726 C 0.20986 0.4764 0.04981 0.0
C2727 C 0.22538 0.48323 0.08439 0.0
C2728 C 0.2147 0.50482 0.11138 0.0
C2729 C 0.18973 0.51915 0.10395 0.0
C2730 C 0.05424 0.54539 1.00846 0.0
C2731 C 0.05052 0.46106 0.05885 0.0
O2732 O 0.98951 0.51639 0.07712 0.0
O2733 O 1.00489 0.56658 0.11561 0.0
O2734 O 0.05053 0.52984 0.14862 0.0
O2735 O 0.08085 0.53143 0.11588 0.0
O2736 O 0.05384 0.59642 0.09487 0.0
O2737 O 0.10147 0.59525 0.0882 0.0
O2738 O 0.14208 0.55365 0.08354 0.0
O2739 O 0.12731 0.51084 0.03675 0.0
O2740 O 0.08115 0.54319 1.00714 0.0
O2741 O 0.05084 0.54241 0.04005 0.0
O2742 O 0.07778 0.47724 0.06159 0.0
O2743 O 0.02985 0.4793 0.06522 0.0
H2744 H 0.92644 0.51017 0.08927 0.0
H2745 H 0.88248 0.53271 0.07476 0.0
H2746 H 0.93436 0.63083 0.06345 0.0
H2747 H 0.97843 0.60777 0.07767 0.0
H2748 H 0.17427 0.48518 0.01536 0.0
H2749 H 0.21732 0.46078 0.02788 0.0
H2750 H 0.22555 0.51069 0.13842 0.0
H2751 H 0.18265 0.53605 0.12535 0.0
loop_
_geom_bond_atom_site_label_1
_geom_bond_atom_site_label_2
_geom_bond_distance
_geom_bond_site_symmetry_2
_ccdc_geom_bond_type
Li0 N17 1.990 . S
Li0 O60 1.956 . S
Li0 O61 1.970 . S
Li0 O62 1.961 . S
Li1 N25 1.990 . S
Li1 O60 1.970 . S
Li1 O61 1.956 . S
Li1 O63 1.961 . S
Li2 N47 1.990 . S
Li2 O60 1.961 . S
Li2 O62 1.956 . S
Li2 O63 1.970 . S
Li3 N53 1.990 . S
Li3 O61 1.961 . S
Li3 O62 1.970 . S
Li3 O63 1.956 . S
C4 C6 1.348 . S
C4 C7 1.356 . S
C4 O60 1.325 . S
N5 C8 1.314 . S
N5 C9 1.279 . S
C6 C4 1.348 . S
C6 C8 1.353 . S
C6 H64 0.929 . S
C7 C4 1.356 . S
C7 C9 1.358 . S
C7 H65 0.930 . S
C8 N5 1.314 . S
C8 C6 1.353 . S
C8 H66 0.930 . S
C9 N5 1.279 . S
C9 C7 1.358 . S
C9 H67 0.930 . S
C10 C13 1.320 1_455 S
C10 C14 1.356 . S
C10 O61 1.325 . S
C11 N12 1.279 1_455 S
C11 C14 1.358 . S
C11 H68 0.930 . S
N12 C11 1.279 1_655 S
N12 C15 1.314 . S
C13 C10 1.320 1_655 S
C13 C15 1.378 . S
C13 H69 0.933 . S
C14 C10 1.356 . S
C14 C11 1.358 . S
C14 H70 0.930 . S
C15 N12 1.314 . S
C15 C13 1.378 . S
C15 H71 0.930 . S
C16 N17 1.314 1_655 S
C16 C21 1.353 . S
C16 H22 0.930 . S
N17 Li0 1.990 . S
N17 C16 1.314 1_455 S
N17 C19 1.268 1_455 S
C18 C19 1.380 . S
C18 C20 1.356 . S
C18 H72 0.930 . S
C19 N17 1.268 1_655 S
C19 C18 1.380 . S
C19 H23 0.919 1_655 S
C20 C18 1.356 . S
C20 C21 1.348 . S
C21 C16 1.353 . S
C21 C20 1.348 . S
C21 H73 0.929 . S
H22 C16 0.930 . S
H23 C19 0.919 1_455 S
C24 N25 1.314 . S
C24 C26 1.353 . S
C24 H30 0.930 . S
N25 Li1 1.990 . S
N25 C24 1.314 . S
N25 C28 1.279 . S
C26 C24 1.353 . S
C26 C29 1.348 . S
C26 H74 0.929 . S
C27 C28 1.358 . S
C27 C29 1.356 . S
C27 H75 0.930 . S
C28 N25 1.279 . S
C28 C27 1.358 . S
C28 H31 0.930 . S
C29 C26 1.348 . S
C29 C27 1.356 . S
H30 C24 0.930 . S
H31 C28 0.930 . S
C32 C34 1.348 . S
C32 C35 1.356 . S
C32 O62 1.325 . S
N33 C36 1.314 . S
N33 C37 1.279 . S
C34 C32 1.348 . S
C34 C36 1.353 . S
C34 H76 0.929 . S
C35 C32 1.356 . S
C35 C37 1.358 . S
C35 H77 0.930 . S
C36 N33 1.314 . S
C36 C34 1.353 . S
C36 H78 0.930 . S
C37 N33 1.279 . S
C37 C35 1.358 . S
C37 H79 0.930 . S
C38 C39 1.348 . S
C38 C40 1.356 . S
C38 O63 1.325 . S
C39 C38 1.348 . S
C39 C41 1.353 . S
C39 H80 0.929 . S
C40 C38 1.356 . S
C40 C42 1.358 . S
C40 H81 0.930 . S
C41 C39 1.353 . S
C41 N43 1.314 . S
C41 H82 0.930 . S
C42 C40 1.358 . S
C42 N43 1.279 . S
C42 H83 0.930 . S
N43 C41 1.314 . S
N43 C42 1.279 . S
C44 C46 1.353 . S
C44 N47 1.314 . S
C44 H50 0.930 . S
C45 N47 1.279 . S
C45 C48 1.358 . S
C45 H51 0.930 . S
C46 C44 1.353 . S
C46 C49 1.348 . S
C46 H84 0.929 . S
N47 Li2 1.990 . S
N47 C44 1.314 . S
N47 C45 1.279 . S
C48 C45 1.358 . S
C48 C49 1.356 . S
C48 H85 0.930 . S
C49 C46 1.348 . S
C49 C48 1.356 . S
H50 C44 0.930 . S
H51 C45 0.930 . S
C52 N53 1.314 . S
C52 C54 1.353 . S
C52 H58 0.930 . S
N53 Li3 1.990 . S
N53 C52 1.314 . S
N53 C56 1.279 . S
C54 C52 1.353 . S
C54 C57 1.348 . S
C54 H86 0.929 . S
C55 C56 1.358 . S
C55 C57 1.356 . S
C55 H87 0.930 . S
C56 N53 1.279 . S
C56 C55 1.358 . S
C56 H59 0.930 . S
C57 C54 1.348 . S
C57 C55 1.356 . S
H58 C52 0.930 . S
H59 C56 0.930 . S
O60 Li0 1.956 . S
O60 Li1 1.970 . S
O60 Li2 1.961 . S
O60 C4 1.325 . S
O61 Li0 1.970 . S
O61 Li1 1.956 . S
O61 Li3 1.961 . S
O61 C10 1.325 . S
O62 Li0 1.961 . S
O62 Li2 1.956 . S
O62 Li3 1.970 . S
O62 C32 1.325 . S
O63 Li1 1.961 . S
O63 Li2 1.970 . S
O63 Li3 1.956 . S
O63 C38 1.325 . S
H64 C6 0.929 . S
H65 C7 0.930 . S
H66 C8 0.930 . S
H67 C9 0.930 . S
H68 C11 0.930 . S
H69 C13 0.933 . S
H70 C14 0.930 . S
H71 C15 0.930 . S
H72 C18 0.930 . S
H73 C21 0.929 . S
H74 C26 0.929 . S
H75 C27 0.930 . S
H76 C34 0.929 . S
H77 C35 0.930 . S
H78 C36 0.930 . S
H79 C37 0.930 . S
H80 C39 0.929 . S
H81 C40 0.930 . S
H82 C41 0.930 . S
H83 C42 0.930 . S
H84 C46 0.929 . S
H85 C48 0.930 . S
H86 C54 0.929 . S
H87 C55 0.930 . S
Li88 N105 1.990 . S
Li88 O148 1.956 . S
Li88 O149 1.970 . S
Li88 O150 1.961 1_455 S
Li89 N113 1.990 . S
Li89 O148 1.970 . S
Li89 O149 1.956 . S
Li89 O151 1.961 . S
Li90 N135 1.990 . S
Li90 O148 1.961 1_655 S
Li90 O150 1.956 . S
Li90 O151 1.970 1_655 S
Li91 N141 1.990 . S
Li91 O149 1.961 1_655 S
Li91 O150 1.970 . S
Li91 O151 1.956 1_655 S
C92 C94 1.348 . S
C92 C95 1.356 . S
C92 O148 1.325 . S
N93 C96 1.314 . S
N93 C97 1.279 . S
C94 C92 1.348 . S
C94 C96 1.353 . S
C94 H152 0.929 . S
C95 C92 1.356 . S
C95 C97 1.358 . S
C95 H153 0.930 . S
C96 N93 1.314 . S
C96 C94 1.353 . S
C96 H154 0.930 . S
C97 N93 1.279 . S
C97 C95 1.358 . S
C97 H155 0.930 . S
C98 C101 1.348 . S
C98 C102 1.356 . S
C98 O149 1.325 . S
C99 N100 1.279 . S
C99 C102 1.358 . S
C99 H156 0.930 . S
N100 C99 1.279 . S
N100 C103 1.314 . S
C101 C98 1.348 . S
C101 C103 1.353 . S
C101 H157 0.929 . S
C102 C98 1.356 . S
C102 C99 1.358 . S
C102 H158 0.930 . S
C103 N100 1.314 . S
C103 C101 1.353 . S
C103 H159 0.930 . S
C104 N105 1.314 1_655 S
C104 C109 1.353 . S
C104 H110 0.930 . S
N105 Li88 1.990 . S
N105 C104 1.314 1_455 S
N105 C107 1.279 . S
C106 C107 1.358 . S
C106 C108 1.356 . S
C106 H160 0.930 . S
C107 N105 1.279 . S
C107 C106 1.358 . S
C107 H111 0.930 . S
C108 C106 1.356 . S
C108 C109 1.348 1_455 S
C109 C104 1.353 . S
C109 C108 1.348 1_655 S
C109 H161 0.929 . S
H110 C104 0.930 . S
H111 C107 0.930 . S
C112 N113 1.314 . S
C112 C114 1.353 . S
C112 H118 0.930 . S
N113 Li89 1.990 . S
N113 C112 1.314 . S
N113 C116 1.279 . S
C114 C112 1.353 . S
C114 C117 1.348 . S
C114 H162 0.929 . S
C115 C116 1.358 . S
C115 C117 1.356 . S
C115 H163 0.930 . S
C116 N113 1.279 . S
C116 C115 1.358 . S
C116 H119 0.930 . S
C117 C114 1.348 . S
C117 C115 1.356 . S
H118 C112 0.930 . S
H119 C116 0.930 . S
C120 C122 1.348 . S
C120 C123 1.356 . S
C120 O150 1.325 . S
N121 C124 1.314 . S
N121 C125 1.279 . S
C122 C120 1.348 . S
C122 C124 1.353 . S
C122 H164 0.929 . S
C123 C120 1.356 . S
C123 C125 1.358 . S
C123 H165 0.930 . S
C124 N121 1.314 . S
C124 C122 1.353 . S
C124 H166 0.930 . S
C125 N121 1.279 . S
C125 C123 1.358 . S
C125 H167 0.930 . S
C126 C127 1.348 1_455 S
C126 C128 1.356 . S
C126 O151 1.325 . S
C127 C126 1.348 1_655 S
C127 C129 1.353 . S
C127 H168 0.929 . S
C128 C126 1.356 . S
C128 C130 1.358 . S
C128 H169 0.930 . S
C129 C127 1.353 . S
C129 N131 1.314 . S
C129 H170 0.930 . S
C130 C128 1.358 . S
C130 N131 1.279 1_455 S
C130 H171 0.930 . S
N131 C129 1.314 . S
N131 C130 1.279 1_655 S
C132 C134 1.353 . S
C132 N135 1.314 1_455 S
C132 H138 0.930 . S
C133 N135 1.279 . S
C133 C136 1.358 . S
C133 H139 0.930 . S
C134 C132 1.353 . S
C134 C137 1.348 1_455 S
C134 H172 0.929 . S
N135 Li90 1.990 . S
N135 C132 1.314 1_655 S
N135 C133 1.279 . S
C136 C133 1.358 . S
C136 C137 1.356 . S
C136 H173 0.930 . S
C137 C134 1.348 1_655 S
C137 C136 1.356 . S
H138 C132 0.930 . S
H139 C133 0.930 . S
C140 N141 1.314 . S
C140 C142 1.353 . S
C140 H146 0.930 . S
N141 Li91 1.990 . S
N141 C140 1.314 . S
N141 C144 1.279 . S
C142 C140 1.353 . S
C142 C145 1.348 . S
C142 H174 0.929 . S
C143 C144 1.358 . S
C143 C145 1.356 . S
C143 H175 0.930 . S
C144 N141 1.279 . S
C144 C143 1.358 . S
C144 H147 0.930 . S
C145 C142 1.348 . S
C145 C143 1.356 . S
H146 C140 0.930 . S
H147 C144 0.930 . S
O148 Li88 1.956 . S
O148 Li89 1.970 . S
O148 Li90 1.961 1_455 S
O148 C92 1.325 . S
O149 Li88 1.970 . S
O149 Li89 1.956 . S
O149 Li91 1.961 1_455 S
O149 C98 1.325 . S
O150 Li88 1.961 1_655 S
O150 Li90 1.956 . S
O150 Li91 1.970 . S
O150 C120 1.325 . S
O151 Li89 1.961 . S
O151 Li90 1.970 1_455 S
O151 Li91 1.956 1_455 S
O151 C126 1.325 . S
H152 C94 0.929 . S
H153 C95 0.930 . S
H154 C96 0.930 . S
H155 C97 0.930 . S
H156 C99 0.930 . S
H157 C101 0.929 . S
H158 C102 0.930 . S
H159 C103 0.930 . S
H160 C106 0.930 . S
H161 C109 0.929 . S
H162 C114 0.929 . S
H163 C115 0.930 . S
H164 C122 0.929 . S
H165 C123 0.930 . S
H166 C124 0.930 . S
H167 C125 0.930 . S
H168 C127 0.929 . S
H169 C128 0.930 . S
H170 C129 0.930 . S
H171 C130 0.930 . S
H172 C134 0.929 . S
H173 C136 0.930 . S
H174 C142 0.929 . S
H175 C143 0.930 . S
Li176 N193 1.990 . S
Li176 O236 1.956 . S
Li176 O237 1.970 1_556 S
Li176 O238 1.961 . S
Li177 N201 1.990 . S
Li177 O236 1.970 1_554 S
Li177 O237 1.956 . S
Li177 O239 1.961 . S
Li178 N223 1.990 . S
Li178 O236 1.961 . S
Li178 O238 1.956 . S
Li178 O239 1.970 1_556 S
Li179 N229 1.990 . S
Li179 O237 1.961 . S
Li179 O238 1.970 1_554 S
Li179 O239 1.956 . S
C180 C182 1.348 . S
C180 C183 1.356 . S
C180 O236 1.325 . S
N181 C184 1.314 . S
N181 C185 1.279 . S
C182 C180 1.348 . S
C182 C184 1.353 . S
C182 H240 0.929 . S
C183 C180 1.356 . S
C183 C185 1.358 . S
C183 H241 0.930 . S
C184 N181 1.314 . S
C184 C182 1.353 . S
C184 H242 0.928 1_565 S
C185 N181 1.279 . S
C185 C183 1.358 . S
C185 H243 0.930 . S
C186 C189 1.348 . S
C186 C190 1.356 . S
C186 O237 1.325 . S
C187 N188 1.279 . S
C187 C190 1.358 . S
C187 H244 0.930 . S
N188 C187 1.279 . S
N188 C191 1.314 . S
C189 C186 1.348 . S
C189 C191 1.353 . S
C189 H245 0.929 . S
C190 C186 1.356 . S
C190 C187 1.358 . S
C190 H246 0.930 . S
C191 N188 1.314 . S
C191 C189 1.353 . S
C191 H247 0.930 . S
C192 N193 1.314 . S
C192 C197 1.353 . S
C192 H198 0.930 . S
N193 Li176 1.990 . S
N193 C192 1.314 . S
N193 C195 1.279 . S
C194 C195 1.358 . S
C194 C196 1.356 . S
C194 H248 0.930 . S
C195 N193 1.279 . S
C195 C194 1.358 . S
C195 H199 0.930 . S
C196 C194 1.356 . S
C196 C197 1.348 . S
C197 C192 1.353 . S
C197 C196 1.348 . S
C197 H249 0.929 . S
H198 C192 0.930 . S
H199 C195 0.930 . S
C200 N201 1.314 . S
C200 C202 1.353 1_565 S
C200 H206 0.930 . S
N201 Li177 1.990 . S
N201 C200 1.314 . S
N201 C204 1.279 . S
C202 C200 1.353 1_545 S
C202 C205 1.348 . S
C202 H250 0.929 . S
C203 C204 1.358 . S
C203 C205 1.356 1_565 S
C203 H251 0.930 . S
C204 N201 1.279 . S
C204 C203 1.358 . S
C204 H207 0.930 . S
C205 C202 1.348 . S
C205 C203 1.356 1_545 S
H206 C200 0.930 . S
H207 C204 0.930 . S
C208 C210 1.348 . S
C208 C211 1.356 . S
C208 O238 1.325 . S
N209 C212 1.314 . S
N209 C213 1.279 . S
C210 C208 1.348 . S
C210 C212 1.353 . S
C210 H252 0.929 . S
C211 C208 1.356 . S
C211 C213 1.358 . S
C211 H253 0.930 . S
C212 N209 1.314 . S
C212 C210 1.353 . S
C212 H254 0.930 . S
C213 N209 1.279 . S
C213 C211 1.358 . S
C213 H255 0.930 . S
C214 C215 1.348 . S
C214 C216 1.356 . S
C214 O239 1.325 . S
C215 C214 1.348 . S
C215 C217 1.353 . S
C215 H256 0.929 . S
C216 C214 1.356 . S
C216 C218 1.358 . S
C216 H257 0.930 . S
C217 C215 1.353 . S
C217 N219 1.314 . S
C217 H258 0.930 . S
C218 C216 1.358 . S
C218 N219 1.279 . S
C218 H259 0.930 . S
N219 C217 1.314 . S
N219 C218 1.279 . S
C220 C222 1.353 . S
C220 N223 1.314 . S
C220 H226 0.930 . S
C221 N223 1.279 . S
C221 C224 1.358 . S
C221 H227 0.930 . S
C222 C220 1.353 . S
C222 C225 1.348 . S
C222 H260 0.929 . S
N223 Li178 1.990 . S
N223 C220 1.314 . S
N223 C221 1.279 . S
C224 C221 1.358 . S
C224 C225 1.356 . S
C224 H261 0.930 . S
C225 C222 1.348 . S
C225 C224 1.356 . S
H226 C220 0.930 . S
H227 C221 0.930 . S
C228 N229 1.314 . S
C228 C230 1.353 . S
C228 H234 0.930 . S
N229 Li179 1.990 . S
N229 C228 1.314 . S
N229 C232 1.279 . S
C230 C228 1.353 . S
C230 C233 1.348 . S
C230 H262 0.929 . S
C231 C232 1.358 . S
C231 C233 1.356 . S
C231 H263 0.930 . S
C232 N229 1.279 . S
C232 C231 1.358 . S
C232 H235 0.930 . S
C233 C230 1.348 . S
C233 C231 1.356 . S
H234 C228 0.930 . S
H235 C232 0.930 . S
O236 Li176 1.956 . S
O236 Li177 1.970 1_556 S
O236 Li178 1.961 . S
O236 C180 1.325 . S
O237 Li176 1.970 1_554 S
O237 Li177 1.956 . S
O237 Li179 1.961 . S
O237 C186 1.325 . S
O238 Li176 1.961 . S
O238 Li178 1.956 . S
O238 Li179 1.970 1_556 S
O238 C208 1.325 . S
O239 Li177 1.961 . S
O239 Li178 1.970 1_554 S
O239 Li179 1.956 . S
O239 C214 1.325 . S
H240 C182 0.929 . S
H241 C183 0.930 . S
H242 C184 0.928 1_545 S
H243 C185 0.930 . S
H244 C187 0.930 . S
H245 C189 0.929 . S
H246 C190 0.930 . S
H247 C191 0.930 . S
H248 C194 0.930 . S
H249 C197 0.929 . S
H250 C202 0.929 . S
H251 C203 0.930 . S
H252 C210 0.929 . S
H253 C211 0.930 . S
H254 C212 0.930 . S
H255 C213 0.930 . S
H256 C215 0.929 . S
H257 C216 0.930 . S
H258 C217 0.930 . S
H259 C218 0.930 . S
H260 C222 0.929 . S
H261 C224 0.930 . S
H262 C230 0.929 . S
H263 C231 0.930 . S
Li264 N281 1.990 . S
Li264 O324 1.956 . S
Li264 O325 1.970 . S
Li264 O326 1.961 . S
Li265 N289 1.990 . S
Li265 O324 1.970 . S
Li265 O325 1.956 . S
Li265 O327 1.961 . S
Li266 N311 1.990 . S
Li266 O324 1.961 . S
Li266 O326 1.956 . S
Li266 O327 1.970 . S
Li267 N317 1.990 . S
Li267 O325 1.961 . S
Li267 O326 1.970 . S
Li267 O327 1.956 . S
C268 C270 1.348 . S
C268 C271 1.356 . S
C268 O324 1.325 . S
N269 C272 1.314 . S
N269 C273 1.279 . S
C270 C268 1.348 . S
C270 C272 1.353 . S
C270 H328 0.929 . S
C271 C268 1.356 . S
C271 C273 1.358 . S
C271 H329 0.930 . S
C272 N269 1.314 . S
C272 C270 1.353 . S
C272 H330 0.930 . S
C273 N269 1.279 . S
C273 C271 1.358 . S
C273 H331 0.930 1_554 S
C274 C277 1.348 . S
C274 C278 1.356 . S
C274 O325 1.325 . S
C275 N276 1.279 . S
C275 C278 1.358 . S
C275 H332 0.930 . S
N276 C275 1.279 . S
N276 C279 1.314 . S
C277 C274 1.348 . S
C277 C279 1.353 . S
C277 H333 0.929 . S
C278 C274 1.356 . S
C278 C275 1.358 . S
C278 H334 0.930 . S
C279 N276 1.314 . S
C279 C277 1.353 . S
C279 H335 0.930 . S
C280 N281 1.314 . S
C280 C285 1.353 . S
C280 H286 0.930 . S
N281 Li264 1.990 . S
N281 C280 1.314 . S
N281 C283 1.279 . S
C282 C283 1.358 . S
C282 C284 1.356 . S
C282 H336 0.930 . S
C283 N281 1.279 . S
C283 C282 1.358 . S
C283 H287 0.930 . S
C284 C282 1.356 . S
C284 C285 1.348 . S
C285 C280 1.353 . S
C285 C284 1.348 . S
C285 H337 0.929 . S
H286 C280 0.930 . S
H287 C283 0.930 . S
C288 N289 1.314 . S
C288 C290 1.353 . S
C288 H294 0.930 . S
N289 Li265 1.990 . S
N289 C288 1.314 . S
N289 C292 1.279 . S
C290 C288 1.353 . S
C290 C293 1.348 . S
C290 H338 0.929 . S
C291 C292 1.358 . S
C291 C293 1.356 . S
C291 H339 0.930 . S
C292 N289 1.279 . S
C292 C291 1.358 . S
C292 H295 0.930 . S
C293 C290 1.348 . S
C293 C291 1.356 . S
H294 C288 0.930 . S
H295 C292 0.930 . S
C296 C298 1.348 . S
C296 C299 1.356 . S
C296 O326 1.325 . S
N297 C300 1.314 . S
N297 C301 1.279 . S
C298 C296 1.348 . S
C298 C300 1.353 . S
C298 H340 0.929 . S
C299 C296 1.356 . S
C299 C301 1.358 . S
C299 H341 0.930 . S
C300 N297 1.314 . S
C300 C298 1.353 . S
C300 H342 0.930 . S
C301 N297 1.279 . S
C301 C299 1.358 . S
C301 H343 0.930 1_554 S
C302 C303 1.348 . S
C302 C304 1.356 . S
C302 O327 1.325 . S
C303 C302 1.348 . S
C303 C305 1.353 . S
C303 H344 0.929 . S
C304 C302 1.356 . S
C304 C306 1.358 . S
C304 H345 0.930 . S
C305 C303 1.353 . S
C305 N307 1.314 . S
C305 H346 0.930 . S
C306 C304 1.358 . S
C306 N307 1.279 . S
C306 H347 0.930 . S
N307 C305 1.314 . S
N307 C306 1.279 . S
C308 C310 1.353 . S
C308 N311 1.314 . S
C308 H314 0.930 . S
C309 N311 1.279 . S
C309 C312 1.358 . S
C309 H315 0.930 . S
C310 C308 1.353 . S
C310 C313 1.348 . S
C310 H348 0.929 . S
N311 Li266 1.990 . S
N311 C308 1.314 . S
N311 C309 1.279 . S
C312 C309 1.358 . S
C312 C313 1.356 . S
C312 H349 0.930 1_554 S
C313 C310 1.348 . S
C313 C312 1.356 . S
H314 C308 0.930 . S
H315 C309 0.930 . S
C316 N317 1.314 . S
C316 C318 1.353 . S
C316 H322 0.930 . S
N317 Li267 1.990 . S
N317 C316 1.314 . S
N317 C320 1.279 . S
C318 C316 1.353 . S
C318 C321 1.348 . S
C318 H350 0.929 . S
C319 C320 1.358 . S
C319 C321 1.356 . S
C319 H351 0.930 . S
C320 N317 1.279 . S
C320 C319 1.358 . S
C320 H323 0.930 . S
C321 C318 1.348 . S
C321 C319 1.356 . S
H322 C316 0.930 . S
H323 C320 0.930 . S
O324 Li264 1.956 . S
O324 Li265 1.970 . S
O324 Li266 1.961 . S
O324 C268 1.325 . S
O325 Li264 1.970 . S
O325 Li265 1.956 . S
O325 Li267 1.961 . S
O325 C274 1.325 . S
O326 Li264 1.961 . S
O326 Li266 1.956 . S
O326 Li267 1.970 . S
O326 C296 1.325 . S
O327 Li265 1.961 . S
O327 Li266 1.970 . S
O327 Li267 1.956 . S
O327 C302 1.325 . S
H328 C270 0.929 . S
H329 C271 0.930 . S
H330 C272 0.930 . S
H331 C273 0.930 1_556 S
H332 C275 0.930 . S
H333 C277 0.929 . S
H334 C278 0.930 . S
H335 C279 0.930 . S
H336 C282 0.930 . S
H337 C285 0.929 . S
H338 C290 0.929 . S
H339 C291 0.930 . S
H340 C298 0.929 . S
H341 C299 0.930 . S
H342 C300 0.930 . S
H343 C301 0.930 1_556 S
H344 C303 0.929 . S
H345 C304 0.930 . S
H346 C305 0.930 . S
H347 C306 0.930 . S
H348 C310 0.929 . S
H349 C312 0.930 1_556 S
H350 C318 0.929 . S
H351 C319 0.930 . S
Li352 N369 1.990 . S
Li352 O412 1.956 . S
Li352 O413 1.970 . S
Li352 O414 1.961 . S
Li353 N377 1.990 . S
Li353 O412 1.970 . S
Li353 O413 1.956 . S
Li353 O415 1.961 . S
Li354 N399 1.990 . S
Li354 O412 1.961 . S
Li354 O414 1.956 . S
Li354 O415 1.970 . S
Li355 N405 1.990 . S
Li355 O413 1.961 . S
Li355 O414 1.970 . S
Li355 O415 1.956 . S
C356 C358 1.348 . S
C356 C359 1.356 . S
C356 O412 1.325 . S
N357 C360 1.314 . S
N357 C361 1.279 . S
C358 C356 1.348 . S
C358 C360 1.353 . S
C358 H416 0.929 . S
C359 C356 1.356 . S
C359 C361 1.358 . S
C359 H417 0.930 . S
C360 N357 1.314 . S
C360 C358 1.353 . S
C360 H418 0.930 . S
C361 N357 1.279 . S
C361 C359 1.358 . S
C361 H419 0.930 . S
C362 C365 1.348 . S
C362 C366 1.356 . S
C362 O413 1.325 . S
C363 N364 1.279 . S
C363 C366 1.358 . S
C363 H420 0.930 . S
N364 C363 1.279 . S
N364 C367 1.314 . S
C365 C362 1.348 . S
C365 C367 1.353 . S
C365 H421 0.929 . S
C366 C362 1.356 . S
C366 C363 1.358 . S
C366 H422 0.930 . S
C367 N364 1.314 . S
C367 C365 1.353 . S
C367 H423 0.930 . S
C368 N369 1.314 . S
C368 C373 1.353 . S
C368 H374 0.930 . S
N369 Li352 1.990 . S
N369 C368 1.314 . S
N369 C371 1.279 . S
C370 C371 1.358 . S
C370 C372 1.356 . S
C370 H424 0.930 . S
C371 N369 1.279 . S
C371 C370 1.358 . S
C371 H375 0.930 . S
C372 C370 1.356 . S
C372 C373 1.348 . S
C373 C368 1.353 . S
C373 C372 1.348 . S
C373 H425 0.929 . S
H374 C368 0.930 . S
H375 C371 0.930 . S
C376 N377 1.314 . S
C376 C378 1.353 . S
C376 H382 0.930 . S
N377 Li353 1.990 . S
N377 C376 1.314 . S
N377 C380 1.279 . S
C378 C376 1.353 . S
C378 C381 1.348 . S
C378 H426 0.929 . S
C379 C380 1.358 . S
C379 C381 1.356 . S
C379 H427 0.930 . S
C380 N377 1.279 . S
C380 C379 1.358 . S
C380 H383 0.930 . S
C381 C378 1.348 . S
C381 C379 1.356 . S
H382 C376 0.930 . S
H383 C380 0.930 . S
C384 C386 1.348 1_455 S
C384 C387 1.356 . S
C384 O414 1.325 . S
N385 C388 1.314 . S
N385 C389 1.279 . S
C386 C384 1.348 1_655 S
C386 C388 1.353 . S
C386 H428 0.929 . S
C387 C384 1.356 . S
C387 C389 1.358 1_455 S
C387 H429 0.930 . S
C388 N385 1.314 . S
C388 C386 1.353 . S
C388 H430 0.930 . S
C389 N385 1.279 . S
C389 C387 1.358 1_655 S
C389 H431 0.930 . S
C390 C391 1.348 . S
C390 C392 1.356 . S
C390 O415 1.325 . S
C391 C390 1.348 . S
C391 C393 1.353 . S
C391 H432 0.929 . S
C392 C390 1.356 . S
C392 C394 1.358 . S
C392 H433 0.930 . S
C393 C391 1.353 . S
C393 N395 1.314 . S
C393 H434 0.930 . S
C394 C392 1.358 . S
C394 N395 1.279 . S
C394 H435 0.930 . S
N395 C393 1.314 . S
N395 C394 1.279 . S
C396 C398 1.353 . S
C396 N399 1.314 . S
C396 H402 0.930 . S
C397 N399 1.279 . S
C397 C400 1.358 . S
C397 H403 0.930 . S
C398 C396 1.353 . S
C398 C401 1.348 . S
C398 H436 0.929 . S
N399 Li354 1.990 . S
N399 C396 1.314 . S
N399 C397 1.279 . S
C400 C397 1.358 . S
C400 C401 1.356 . S
C400 H437 0.930 . S
C401 C398 1.348 . S
C401 C400 1.356 . S
H402 C396 0.930 . S
H403 C397 0.930 . S
C404 N405 1.314 . S
C404 C406 1.353 1_455 S
C404 H410 0.930 . S
N405 Li355 1.990 . S
N405 C404 1.314 . S
N405 C408 1.279 . S
C406 C404 1.353 1_655 S
C406 C409 1.348 . S
C406 H438 0.929 . S
C407 C408 1.358 1_655 S
C407 C409 1.356 . S
C407 H439 0.930 . S
C408 N405 1.279 . S
C408 C407 1.358 1_455 S
C408 H411 0.930 . S
C409 C406 1.348 . S
C409 C407 1.356 . S
H410 C404 0.930 . S
H411 C408 0.930 . S
O412 Li352 1.956 . S
O412 Li353 1.970 . S
O412 Li354 1.961 . S
O412 C356 1.325 . S
O413 Li352 1.970 . S
O413 Li353 1.956 . S
O413 Li355 1.961 . S
O413 C362 1.325 . S
O414 Li352 1.961 . S
O414 Li354 1.956 . S
O414 Li355 1.970 . S
O414 C384 1.325 . S
O415 Li353 1.961 . S
O415 Li354 1.970 . S
O415 Li355 1.956 . S
O415 C390 1.325 . S
H416 C358 0.929 . S
H417 C359 0.930 . S
H418 C360 0.930 . S
H419 C361 0.930 . S
H420 C363 0.930 . S
H421 C365 0.929 . S
H422 C366 0.930 . S
H423 C367 0.930 . S
H424 C370 0.930 . S
H425 C373 0.929 . S
H426 C378 0.929 . S
H427 C379 0.930 . S
H428 C386 0.929 . S
H429 C387 0.930 . S
H430 C388 0.930 . S
H431 C389 0.930 . S
H432 C391 0.929 . S
H433 C392 0.930 . S
H434 C393 0.930 . S
H435 C394 0.930 . S
H436 C398 0.929 . S
H437 C400 0.930 . S
H438 C406 0.929 . S
H439 C407 0.930 . S
Li440 N457 1.990 . S
Li440 O500 1.956 . S
Li440 O501 1.970 . S
Li440 O502 1.961 . S
Li441 N465 1.990 . S
Li441 O500 1.970 . S
Li441 O501 1.956 . S
Li441 O503 1.961 . S
Li442 N487 1.990 . S
Li442 O500 1.961 . S
Li442 O502 1.956 . S
Li442 O503 1.970 . S
Li443 N493 1.990 . S
Li443 O501 1.961 . S
Li443 O502 1.970 . S
Li443 O503 1.956 . S
C444 C446 1.348 . S
C444 C447 1.356 . S
C444 O500 1.325 . S
N445 C448 1.314 . S
N445 C449 1.279 . S
C446 C444 1.348 . S
C446 C448 1.353 . S
C446 H504 0.929 . S
C447 C444 1.356 . S
C447 C449 1.358 . S
C447 H505 0.930 . S
C448 N445 1.314 . S
C448 C446 1.353 . S
C448 H506 0.930 . S
C449 N445 1.279 . S
C449 C447 1.358 . S
C449 H507 0.930 . S
C450 C453 1.348 . S
C450 C454 1.356 . S
C450 O501 1.325 . S
C451 N452 1.279 . S
C451 C454 1.358 . S
C451 H508 0.930 . S
N452 C451 1.279 . S
N452 C455 1.314 . S
C453 C450 1.348 . S
C453 C455 1.353 . S
C453 H509 0.929 . S
C454 C450 1.356 . S
C454 C451 1.358 . S
C454 H510 0.930 . S
C455 N452 1.314 . S
C455 C453 1.353 . S
C455 H511 0.930 . S
C456 N457 1.314 . S
C456 C461 1.353 . S
C456 H462 0.930 . S
N457 Li440 1.990 . S
N457 C456 1.314 . S
N457 C459 1.279 . S
C458 C459 1.358 . S
C458 C460 1.356 . S
C458 H512 0.930 . S
C459 N457 1.279 . S
C459 C458 1.358 . S
C459 H463 0.930 . S
C460 C458 1.356 . S
C460 C461 1.348 . S
C461 C456 1.353 . S
C461 C460 1.348 . S
C461 H513 0.929 . S
H462 C456 0.930 . S
H463 C459 0.930 . S
C464 N465 1.314 . S
C464 C466 1.353 . S
C464 H470 0.930 . S
N465 Li441 1.990 . S
N465 C464 1.314 . S
N465 C468 1.279 . S
C466 C464 1.353 . S
C466 C469 1.348 . S
C466 H514 0.929 . S
C467 C468 1.358 . S
C467 C469 1.356 . S
C467 H515 0.930 . S
C468 N465 1.279 . S
C468 C467 1.358 . S
C468 H471 0.930 . S
C469 C466 1.348 . S
C469 C467 1.356 . S
H470 C464 0.930 . S
H471 C468 0.930 . S
C472 C474 1.348 . S
C472 C475 1.356 . S
C472 O502 1.325 . S
N473 C476 1.314 . S
N473 C477 1.279 . S
C474 C472 1.348 . S
C474 C476 1.353 . S
C474 H516 0.929 . S
C475 C472 1.356 . S
C475 C477 1.358 . S
C475 H517 0.930 . S
C476 N473 1.314 . S
C476 C474 1.353 . S
C476 H518 0.930 . S
C477 N473 1.279 . S
C477 C475 1.358 . S
C477 H519 0.930 . S
C478 C479 1.348 . S
C478 C480 1.356 . S
C478 O503 1.325 . S
C479 C478 1.348 . S
C479 C481 1.353 . S
C479 H520 0.929 . S
C480 C478 1.356 . S
C480 C482 1.358 . S
C480 H521 0.930 . S
C481 C479 1.353 . S
C481 N483 1.314 . S
C481 H522 0.930 . S
C482 C480 1.358 . S
C482 N483 1.279 . S
C482 H523 0.930 . S
N483 C481 1.314 . S
N483 C482 1.279 . S
C484 C486 1.353 . S
C484 N487 1.314 . S
C484 H490 0.930 . S
C485 N487 1.279 . S
C485 C488 1.358 . S
C485 H491 0.930 . S
C486 C484 1.353 . S
C486 C489 1.348 . S
C486 H524 0.929 . S
N487 Li442 1.990 . S
N487 C484 1.314 . S
N487 C485 1.279 . S
C488 C485 1.358 . S
C488 C489 1.356 . S
C488 H525 0.930 . S
C489 C486 1.348 . S
C489 C488 1.356 . S
H490 C484 0.930 . S
H491 C485 0.930 . S
C492 N493 1.314 . S
C492 C494 1.353 . S
C492 H498 0.930 . S
N493 Li443 1.990 . S
N493 C492 1.314 . S
N493 C496 1.279 . S
C494 C492 1.353 . S
C494 C497 1.348 . S
C494 H526 0.929 . S
C495 C496 1.358 . S
C495 C497 1.356 . S
C495 H527 0.930 . S
C496 N493 1.279 . S
C496 C495 1.358 . S
C496 H499 0.930 . S
C497 C494 1.348 . S
C497 C495 1.356 . S
H498 C492 0.930 . S
H499 C496 0.930 . S
O500 Li440 1.956 . S
O500 Li441 1.970 . S
O500 Li442 1.961 . S
O500 C444 1.325 . S
O501 Li440 1.970 . S
O501 Li441 1.956 . S
O501 Li443 1.961 . S
O501 C450 1.325 . S
O502 Li440 1.961 . S
O502 Li442 1.956 . S
O502 Li443 1.970 . S
O502 C472 1.325 . S
O503 Li441 1.961 . S
O503 Li442 1.970 . S
O503 Li443 1.956 . S
O503 C478 1.325 . S
H504 C446 0.929 . S
H505 C447 0.930 . S
H506 C448 0.930 . S
H507 C449 0.930 . S
H508 C451 0.930 . S
H509 C453 0.929 . S
H510 C454 0.930 . S
H511 C455 0.930 . S
H512 C458 0.930 . S
H513 C461 0.929 . S
H514 C466 0.929 . S
H515 C467 0.930 . S
H516 C474 0.929 . S
H517 C475 0.930 . S
H518 C476 0.930 . S
H519 C477 0.930 . S
H520 C479 0.929 . S
H521 C480 0.930 . S
H522 C481 0.930 . S
H523 C482 0.930 . S
H524 C486 0.929 . S
H525 C488 0.930 . S
H526 C494 0.929 . S
H527 C495 0.930 . S
Li528 N545 1.990 . S
Li528 O588 1.956 . S
Li528 O589 1.970 . S
Li528 O590 1.961 . S
Li529 N553 1.990 . S
Li529 O588 1.970 . S
Li529 O589 1.956 . S
Li529 O591 1.961 . S
Li530 N575 1.990 . S
Li530 O588 1.961 . S
Li530 O590 1.956 . S
Li530 O591 1.970 . S
Li531 N581 1.990 . S
Li531 O589 1.961 . S
Li531 O590 1.970 . S
Li531 O591 1.956 . S
C532 C534 1.348 . S
C532 C535 1.356 . S
C532 O588 1.325 . S
N533 C536 1.314 . S
N533 C537 1.279 . S
C534 C532 1.348 . S
C534 C536 1.353 . S
C534 H592 0.929 . S
C535 C532 1.356 . S
C535 C537 1.358 . S
C535 H593 0.930 . S
C536 N533 1.314 . S
C536 C534 1.353 . S
C536 H594 0.930 . S
C537 N533 1.279 . S
C537 C535 1.358 . S
C537 H595 0.930 . S
C538 C541 1.348 . S
C538 C542 1.356 . S
C538 O589 1.325 . S
C539 N540 1.279 . S
C539 C542 1.358 . S
C539 H596 0.930 . S
N540 C539 1.279 . S
N540 C543 1.314 . S
C541 C538 1.348 . S
C541 C543 1.353 . S
C541 H597 0.929 . S
C542 C538 1.356 . S
C542 C539 1.358 . S
C542 H598 0.930 . S
C543 N540 1.314 . S
C543 C541 1.353 . S
C543 H599 0.930 . S
C544 N545 1.314 . S
C544 C549 1.353 . S
C544 H550 0.930 . S
N545 Li528 1.990 . S
N545 C544 1.314 . S
N545 C547 1.279 . S
C546 C547 1.358 . S
C546 C548 1.356 . S
C546 H600 0.930 . S
C547 N545 1.279 . S
C547 C546 1.358 . S
C547 H551 0.930 . S
C548 C546 1.356 . S
C548 C549 1.348 . S
C549 C544 1.353 . S
C549 C548 1.348 . S
C549 H601 0.929 . S
H550 C544 0.930 . S
H551 C547 0.930 . S
C552 N553 1.314 . S
C552 C554 1.353 . S
C552 H558 0.930 . S
N553 Li529 1.990 . S
N553 C552 1.314 . S
N553 C556 1.279 . S
C554 C552 1.353 . S
C554 C557 1.348 . S
C554 H602 0.929 . S
C555 C556 1.358 . S
C555 C557 1.356 . S
C555 H603 0.930 . S
C556 N553 1.279 . S
C556 C555 1.358 . S
C556 H559 0.930 . S
C557 C554 1.348 . S
C557 C555 1.356 . S
H558 C552 0.930 . S
H559 C556 0.930 . S
C560 C562 1.348 . S
C560 C563 1.356 . S
C560 O590 1.325 . S
N561 C564 1.314 . S
N561 C565 1.279 . S
C562 C560 1.348 . S
C562 C564 1.353 . S
C562 H604 0.929 . S
C563 C560 1.356 . S
C563 C565 1.358 . S
C563 H605 0.930 . S
C564 N561 1.314 . S
C564 C562 1.353 . S
C564 H606 0.930 . S
C565 N561 1.279 . S
C565 C563 1.358 . S
C565 H607 0.930 . S
C566 C567 1.348 . S
C566 C568 1.356 . S
C566 O591 1.325 . S
C567 C566 1.348 . S
C567 C569 1.353 . S
C567 H608 0.929 . S
C568 C566 1.356 . S
C568 C570 1.358 . S
C568 H609 0.930 . S
C569 C567 1.353 . S
C569 N571 1.314 . S
C569 H610 0.930 . S
C570 C568 1.358 . S
C570 N571 1.279 . S
C570 H611 0.930 . S
N571 C569 1.314 . S
N571 C570 1.279 . S
C572 C574 1.353 . S
C572 N575 1.314 . S
C572 H578 0.930 . S
C573 N575 1.279 . S
C573 C576 1.358 . S
C573 H579 0.930 . S
C574 C572 1.353 . S
C574 C577 1.348 . S
C574 H612 0.929 . S
N575 Li530 1.990 . S
N575 C572 1.314 . S
N575 C573 1.279 . S
C576 C573 1.358 . S
C576 C577 1.356 . S
C576 H613 0.930 . S
C577 C574 1.348 . S
C577 C576 1.356 . S
H578 C572 0.930 . S
H579 C573 0.930 . S
C580 N581 1.314 . S
C580 C582 1.353 . S
C580 H586 0.930 . S
N581 Li531 1.990 . S
N581 C580 1.314 . S
N581 C584 1.279 . S
C582 C580 1.353 . S
C582 C585 1.348 . S
C582 H614 0.929 . S
C583 C584 1.358 . S
C583 C585 1.356 . S
C583 H615 0.930 . S
C584 N581 1.279 . S
C584 C583 1.358 . S
C584 H587 0.930 . S
C585 C582 1.348 . S
C585 C583 1.356 . S
H586 C580 0.930 . S
H587 C584 0.930 . S
O588 Li528 1.956 . S
O588 Li529 1.970 . S
O588 Li530 1.961 . S
O588 C532 1.325 . S
O589 Li528 1.970 . S
O589 Li529 1.956 . S
O589 Li531 1.961 . S
O589 C538 1.325 . S
O590 Li528 1.961 . S
O590 Li530 1.956 . S
O590 Li531 1.970 . S
O590 C560 1.325 . S
O591 Li529 1.961 . S
O591 Li530 1.970 . S
O591 Li531 1.956 . S
O591 C566 1.325 . S
H592 C534 0.929 . S
H593 C535 0.930 . S
H594 C536 0.930 . S
H595 C537 0.930 . S
H596 C539 0.930 . S
H597 C541 0.929 . S
H598 C542 0.930 . S
H599 C543 0.930 . S
H600 C546 0.930 . S
H601 C549 0.929 . S
H602 C554 0.929 . S
H603 C555 0.930 . S
H604 C562 0.929 . S
H605 C563 0.930 . S
H606 C564 0.930 . S
H607 C565 0.930 . S
H608 C567 0.929 . S
H609 C568 0.930 . S
H610 C569 0.930 . S
H611 C570 0.930 . S
H612 C574 0.929 . S
H613 C576 0.930 . S
H614 C582 0.929 . S
H615 C583 0.930 . S
Li616 N633 1.990 1_556 S
Li616 O676 1.956 1_455 S
Li616 O677 1.970 . S
Li616 O678 1.961 . S
Li617 N641 1.990 . S
Li617 O676 1.970 . S
Li617 O677 1.956 1_655 S
Li617 O679 1.961 . S
Li618 N663 1.990 1_556 S
Li618 O676 1.961 1_455 S
Li618 O678 1.956 . S
Li618 O679 1.970 1_455 S
Li619 N669 1.990 . S
Li619 O677 1.961 . S
Li619 O678 1.970 . S
Li619 O679 1.956 1_455 S
C620 C622 1.348 1_554 S
C620 C623 1.356 . S
C620 O676 1.325 1_554 S
N621 C624 1.314 . S
N621 C625 1.279 . S
C622 C620 1.348 1_556 S
C622 C624 1.353 1_556 S
C622 H680 0.929 . S
C623 C620 1.356 . S
C623 C625 1.358 . S
C623 H681 0.930 . S
C624 N621 1.314 . S
C624 C622 1.353 1_554 S
C624 H682 0.930 . S
C625 N621 1.279 . S
C625 C623 1.358 . S
C625 H683 0.930 . S
C626 C629 1.359 . S
C626 C630 1.356 . S
C626 O677 1.325 . S
C627 N628 1.279 . S
C627 C630 1.358 . S
C627 H684 0.930 . S
N628 C627 1.279 . S
N628 C631 1.325 . S
C629 C626 1.359 . S
C629 C631 1.353 . S
C629 H685 0.920 1_455 S
C630 C626 1.356 . S
C630 C627 1.358 . S
C630 H686 0.930 . S
C631 N628 1.325 . S
C631 C629 1.353 . S
C631 H687 0.916 1_455 S
C632 N633 1.314 . S
C632 C637 1.353 . S
C632 H638 0.930 . S
N633 Li616 1.990 1_554 S
N633 C632 1.314 . S
N633 C635 1.279 1_455 S
C634 C635 1.356 . S
C634 C636 1.341 1_655 S
C634 H688 0.948 . S
C635 N633 1.279 1_655 S
C635 C634 1.356 . S
C635 H639 0.930 . S
C636 C634 1.341 1_455 S
C636 C637 1.348 . S
C637 C632 1.353 . S
C637 C636 1.348 . S
C637 H689 0.929 . S
H638 C632 0.930 . S
H639 C635 0.930 . S
C640 N641 1.314 . S
C640 C642 1.353 . S
C640 H646 0.930 . S
N641 Li617 1.990 . S
N641 C640 1.314 . S
N641 C644 1.279 . S
C642 C640 1.353 . S
C642 C645 1.348 . S
C642 H690 0.929 . S
C643 C644 1.358 . S
C643 C645 1.356 . S
C643 H691 0.930 . S
C644 N641 1.279 . S
C644 C643 1.358 . S
C644 H647 0.930 . S
C645 C642 1.348 . S
C645 C643 1.356 . S
H646 C640 0.930 . S
H647 C644 0.930 . S
C648 C650 1.348 . S
C648 C651 1.356 . S
C648 O678 1.325 1_554 S
N649 C652 1.314 . S
N649 C653 1.279 . S
C650 C648 1.348 . S
C650 C652 1.353 . S
C650 H692 0.929 1_554 S
C651 C648 1.356 . S
C651 C653 1.358 . S
C651 H693 0.930 . S
C652 N649 1.314 . S
C652 C650 1.353 . S
C652 H694 0.930 . S
C653 N649 1.279 . S
C653 C651 1.358 . S
C653 H695 0.930 . S
C654 C655 1.348 . S
C654 C656 1.356 . S
C654 O679 1.325 . S
C655 C654 1.348 . S
C655 C657 1.353 . S
C655 H696 0.929 1_655 S
C656 C654 1.356 . S
C656 C658 1.358 . S
C656 H697 0.930 . S
C657 C655 1.353 . S
C657 N659 1.314 . S
C657 H698 0.941 . S
C658 C656 1.358 . S
C658 N659 1.279 . S
C658 H699 0.930 . S
N659 C657 1.314 . S
N659 C658 1.279 . S
C660 C662 1.353 . S
C660 N663 1.314 1_655 S
C660 H666 0.930 . S
C661 N663 1.279 . S
C661 C664 1.358 . S
C661 H667 0.930 . S
C662 C660 1.353 . S
C662 C665 1.318 1_655 S
C662 H700 0.929 . S
N663 Li618 1.990 1_554 S
N663 C660 1.314 1_455 S
N663 C661 1.279 . S
C664 C661 1.358 . S
C664 C665 1.384 . S
C664 H701 0.930 . S
C665 C662 1.318 1_455 S
C665 C664 1.384 . S
H666 C660 0.930 . S
H667 C661 0.930 . S
C668 N669 1.314 . S
C668 C670 1.353 . S
C668 H674 0.930 . S
N669 Li619 1.990 . S
N669 C668 1.314 . S
N669 C672 1.279 . S
C670 C668 1.353 . S
C670 C673 1.348 . S
C670 H702 0.929 . S
C671 C672 1.358 . S
C671 C673 1.356 . S
C671 H703 0.930 . S
C672 N669 1.279 . S
C672 C671 1.358 . S
C672 H675 0.930 . S
C673 C670 1.348 . S
C673 C671 1.356 . S
H674 C668 0.930 . S
H675 C672 0.930 . S
O676 Li616 1.956 1_655 S
O676 Li617 1.970 . S
O676 Li618 1.961 1_655 S
O676 C620 1.325 1_556 S
O677 Li616 1.970 . S
O677 Li617 1.956 1_455 S
O677 Li619 1.961 . S
O677 C626 1.325 . S
O678 Li616 1.961 . S
O678 Li618 1.956 . S
O678 Li619 1.970 . S
O678 C648 1.325 1_556 S
O679 Li617 1.961 . S
O679 Li618 1.970 1_655 S
O679 Li619 1.956 1_655 S
O679 C654 1.325 . S
H680 C622 0.929 . S
H681 C623 0.930 . S
H682 C624 0.930 . S
H683 C625 0.930 . S
H684 C627 0.930 . S
H685 C629 0.920 1_655 S
H686 C630 0.930 . S
H687 C631 0.916 1_655 S
H688 C634 0.948 . S
H689 C637 0.929 . S
H690 C642 0.929 . S
H691 C643 0.930 . S
H692 C650 0.929 1_556 S
H693 C651 0.930 . S
H694 C652 0.930 . S
H695 C653 0.930 . S
H696 C655 0.929 1_455 S
H697 C656 0.930 . S
H698 C657 0.941 . S
H699 C658 0.930 . S
H700 C662 0.929 . S
H701 C664 0.930 . S
H702 C670 0.929 . S
H703 C671 0.930 . S
Li704 N721 1.990 . S
Li704 O764 1.956 1_545 S
Li704 O765 1.970 . S
Li704 O766 1.961 . S
Li705 N729 1.990 . S
Li705 O764 1.970 . S
Li705 O765 1.956 1_565 S
Li705 O767 1.961 1_565 S
Li706 N751 1.990 . S
Li706 O764 1.961 1_545 S
Li706 O766 1.956 . S
Li706 O767 1.970 . S
Li707 N757 1.990 . S
Li707 O765 1.961 . S
Li707 O766 1.970 . S
Li707 O767 1.956 . S
C708 C710 1.348 . S
C708 C711 1.356 . S
C708 O764 1.325 . S
N709 C712 1.314 . S
N709 C713 1.279 . S
C710 C708 1.348 . S
C710 C712 1.353 . S
C710 H768 0.929 . S
C711 C708 1.356 . S
C711 C713 1.358 . S
C711 H769 0.930 . S
C712 N709 1.314 . S
C712 C710 1.353 . S
C712 H770 0.930 . S
C713 N709 1.279 . S
C713 C711 1.358 . S
C713 H771 0.930 . S
C714 C717 1.348 . S
C714 C718 1.356 . S
C714 O765 1.325 . S
C715 N716 1.279 . S
C715 C718 1.358 . S
C715 H772 0.930 . S
N716 C715 1.279 . S
N716 C719 1.314 . S
C717 C714 1.348 . S
C717 C719 1.353 . S
C717 H773 0.929 . S
C718 C714 1.356 . S
C718 C715 1.358 . S
C718 H774 0.930 . S
C719 N716 1.314 . S
C719 C717 1.353 . S
C719 H775 0.930 . S
C720 N721 1.314 . S
C720 C725 1.353 . S
C720 H726 0.930 . S
N721 Li704 1.990 . S
N721 C720 1.314 . S
N721 C723 1.279 . S
C722 C723 1.358 . S
C722 C724 1.356 . S
C722 H776 0.930 . S
C723 N721 1.279 . S
C723 C722 1.358 . S
C723 H727 0.930 1_545 S
C724 C722 1.356 . S
C724 C725 1.348 . S
C725 C720 1.353 . S
C725 C724 1.348 . S
C725 H777 0.929 . S
H726 C720 0.930 . S
H727 C723 0.930 1_565 S
C728 N729 1.314 . S
C728 C730 1.353 . S
C728 H734 0.930 . S
N729 Li705 1.990 . S
N729 C728 1.314 . S
N729 C732 1.279 . S
C730 C728 1.353 . S
C730 C733 1.348 . S
C730 H778 0.929 . S
C731 C732 1.358 . S
C731 C733 1.356 . S
C731 H779 0.930 . S
C732 N729 1.279 . S
C732 C731 1.358 . S
C732 H735 0.930 . S
C733 C730 1.348 . S
C733 C731 1.356 . S
H734 C728 0.930 . S
H735 C732 0.930 . S
C736 C738 1.348 . S
C736 C739 1.356 . S
C736 O766 1.325 . S
N737 C740 1.314 . S
N737 C741 1.279 . S
C738 C736 1.348 . S
C738 C740 1.353 . S
C738 H780 0.929 . S
C739 C736 1.356 . S
C739 C741 1.358 . S
C739 H781 0.930 . S
C740 N737 1.314 . S
C740 C738 1.353 . S
C740 H782 0.930 . S
C741 N737 1.279 . S
C741 C739 1.358 . S
C741 H783 0.930 . S
C742 C743 1.348 . S
C742 C744 1.356 . S
C742 O767 1.325 . S
C743 C742 1.348 . S
C743 C745 1.353 . S
C743 H784 0.929 . S
C744 C742 1.356 . S
C744 C746 1.355 . S
C744 H785 0.930 . S
C745 C743 1.353 . S
C745 N747 1.314 . S
C745 H786 0.930 . S
C746 C744 1.355 . S
C746 N747 1.285 . S
C746 H787 0.928 1_545 S
N747 C745 1.314 . S
N747 C746 1.285 . S
C748 C750 1.353 . S
C748 N751 1.314 1_565 S
C748 H754 0.930 . S
C749 N751 1.279 . S
C749 C752 1.358 . S
C749 H755 0.930 . S
C750 C748 1.353 . S
C750 C753 1.348 1_565 S
C750 H788 0.929 . S
N751 Li706 1.990 . S
N751 C748 1.314 1_545 S
N751 C749 1.279 . S
C752 C749 1.358 . S
C752 C753 1.356 . S
C752 H789 0.930 . S
C753 C750 1.348 1_545 S
C753 C752 1.356 . S
H754 C748 0.930 . S
H755 C749 0.930 . S
C756 N757 1.314 . S
C756 C758 1.353 . S
C756 H762 0.930 . S
N757 Li707 1.990 . S
N757 C756 1.314 . S
N757 C760 1.279 . S
C758 C756 1.353 . S
C758 C761 1.348 . S
C758 H790 0.929 . S
C759 C760 1.358 . S
C759 C761 1.356 . S
C759 H791 0.930 . S
C760 N757 1.279 . S
C760 C759 1.358 . S
C760 H763 0.930 . S
C761 C758 1.348 . S
C761 C759 1.356 . S
H762 C756 0.930 . S
H763 C760 0.930 . S
O764 Li704 1.956 1_565 S
O764 Li705 1.970 . S
O764 Li706 1.961 1_565 S
O764 C708 1.325 . S
O765 Li704 1.970 . S
O765 Li705 1.956 1_545 S
O765 Li707 1.961 . S
O765 C714 1.325 . S
O766 Li704 1.961 . S
O766 Li706 1.956 . S
O766 Li707 1.970 . S
O766 C736 1.325 . S
O767 Li705 1.961 1_545 S
O767 Li706 1.970 . S
O767 Li707 1.956 . S
O767 C742 1.325 . S
H768 C710 0.929 . S
H769 C711 0.930 . S
H770 C712 0.930 . S
H771 C713 0.930 . S
H772 C715 0.930 . S
H773 C717 0.929 . S
H774 C718 0.930 . S
H775 C719 0.930 . S
H776 C722 0.930 . S
H777 C725 0.929 . S
H778 C730 0.929 . S
H779 C731 0.930 . S
H780 C738 0.929 . S
H781 C739 0.930 . S
H782 C740 0.930 . S
H783 C741 0.930 . S
H784 C743 0.929 . S
H785 C744 0.930 . S
H786 C745 0.930 . S
H787 C746 0.928 1_565 S
H788 C750 0.929 . S
H789 C752 0.930 . S
H790 C758 0.929 . S
H791 C759 0.930 . S
Li792 N809 1.990 . S
Li792 O852 1.956 . S
Li792 O853 1.970 . S
Li792 O854 1.961 . S
Li793 N817 1.990 . S
Li793 O852 1.970 . S
Li793 O853 1.956 . S
Li793 O855 1.961 . S
Li794 N839 1.990 . S
Li794 O852 1.961 . S
Li794 O854 1.956 . S
Li794 O855 1.970 . S
Li795 N845 1.990 . S
Li795 O853 1.961 . S
Li795 O854 1.970 . S
Li795 O855 1.956 . S
C796 C798 1.348 . S
C796 C799 1.356 . S
C796 O852 1.325 . S
N797 C800 1.314 . S
N797 C801 1.279 . S
C798 C796 1.348 . S
C798 C800 1.353 . S
C798 H856 0.929 . S
C799 C796 1.356 . S
C799 C801 1.358 . S
C799 H857 0.930 . S
C800 N797 1.314 . S
C800 C798 1.353 . S
C800 H858 0.930 . S
C801 N797 1.279 . S
C801 C799 1.358 . S
C801 H859 0.930 . S
C802 C805 1.348 . S
C802 C806 1.356 . S
C802 O853 1.325 . S
C803 N804 1.279 . S
C803 C806 1.358 . S
C803 H860 0.930 . S
N804 C803 1.279 . S
N804 C807 1.314 . S
C805 C802 1.348 . S
C805 C807 1.353 . S
C805 H861 0.929 . S
C806 C802 1.356 . S
C806 C803 1.358 . S
C806 H862 0.930 . S
C807 N804 1.314 . S
C807 C805 1.353 . S
C807 H863 0.930 . S
C808 N809 1.314 . S
C808 C813 1.353 . S
C808 H814 0.930 . S
N809 Li792 1.990 . S
N809 C808 1.314 . S
N809 C811 1.279 . S
C810 C811 1.358 . S
C810 C812 1.356 . S
C810 H864 0.930 . S
C811 N809 1.279 . S
C811 C810 1.358 . S
C811 H815 0.930 . S
C812 C810 1.356 . S
C812 C813 1.348 . S
C813 C808 1.353 . S
C813 C812 1.348 . S
C813 H865 0.929 . S
H814 C808 0.930 . S
H815 C811 0.930 . S
C816 N817 1.314 . S
C816 C818 1.353 . S
C816 H822 0.930 . S
N817 Li793 1.990 . S
N817 C816 1.314 . S
N817 C820 1.279 . S
C818 C816 1.353 . S
C818 C821 1.348 . S
C818 H866 0.929 . S
C819 C820 1.358 . S
C819 C821 1.356 . S
C819 H867 0.930 . S
C820 N817 1.279 . S
C820 C819 1.358 . S
C820 H823 0.930 . S
C821 C818 1.348 . S
C821 C819 1.356 . S
H822 C816 0.930 . S
H823 C820 0.930 . S
C824 C826 1.348 . S
C824 C827 1.356 . S
C824 O854 1.325 . S
N825 C828 1.314 . S
N825 C829 1.279 . S
C826 C824 1.348 . S
C826 C828 1.353 . S
C826 H868 0.929 . S
C827 C824 1.356 . S
C827 C829 1.358 . S
C827 H869 0.930 . S
C828 N825 1.314 . S
C828 C826 1.353 . S
C828 H870 0.930 . S
C829 N825 1.279 . S
C829 C827 1.358 . S
C829 H871 0.930 . S
C830 C831 1.348 . S
C830 C832 1.356 . S
C830 O855 1.325 . S
C831 C830 1.348 . S
C831 C833 1.353 . S
C831 H872 0.929 . S
C832 C830 1.356 . S
C832 C834 1.358 . S
C832 H873 0.930 . S
C833 C831 1.353 . S
C833 N835 1.314 . S
C833 H874 0.930 . S
C834 C832 1.358 . S
C834 N835 1.279 . S
C834 H875 0.930 . S
N835 C833 1.314 . S
N835 C834 1.279 . S
C836 C838 1.353 . S
C836 N839 1.314 . S
C836 H842 0.930 . S
C837 N839 1.279 . S
C837 C840 1.358 . S
C837 H843 0.930 . S
C838 C836 1.353 . S
C838 C841 1.348 . S
C838 H876 0.929 . S
N839 Li794 1.990 . S
N839 C836 1.314 . S
N839 C837 1.279 . S
C840 C837 1.358 . S
C840 C841 1.356 . S
C840 H877 0.930 . S
C841 C838 1.348 . S
C841 C840 1.356 . S
H842 C836 0.930 . S
H843 C837 0.930 . S
C844 N845 1.314 . S
C844 C846 1.353 . S
C844 H850 0.930 . S
N845 Li795 1.990 . S
N845 C844 1.314 . S
N845 C848 1.279 . S
C846 C844 1.353 . S
C846 C849 1.348 . S
C846 H878 0.929 . S
C847 C848 1.358 . S
C847 C849 1.356 . S
C847 H879 0.930 . S
C848 N845 1.279 . S
C848 C847 1.358 . S
C848 H851 0.930 . S
C849 C846 1.348 . S
C849 C847 1.356 . S
H850 C844 0.930 . S
H851 C848 0.930 . S
O852 Li792 1.956 . S
O852 Li793 1.970 . S
O852 Li794 1.961 . S
O852 C796 1.325 . S
O853 Li792 1.970 . S
O853 Li793 1.956 . S
O853 Li795 1.961 . S
O853 C802 1.325 . S
O854 Li792 1.961 . S
O854 Li794 1.956 . S
O854 Li795 1.970 . S
O854 C824 1.325 . S
O855 Li793 1.961 . S
O855 Li794 1.970 . S
O855 Li795 1.956 . S
O855 C830 1.325 . S
H856 C798 0.929 . S
H857 C799 0.930 . S
H858 C800 0.930 . S
H859 C801 0.930 . S
H860 C803 0.930 . S
H861 C805 0.929 . S
H862 C806 0.930 . S
H863 C807 0.930 . S
H864 C810 0.930 . S
H865 C813 0.929 . S
H866 C818 0.929 . S
H867 C819 0.930 . S
H868 C826 0.929 . S
H869 C827 0.930 . S
H870 C828 0.930 . S
H871 C829 0.930 . S
H872 C831 0.929 . S
H873 C832 0.930 . S
H874 C833 0.930 . S
H875 C834 0.930 . S
H876 C838 0.929 . S
H877 C840 0.930 . S
H878 C846 0.929 . S
H879 C847 0.930 . S
Li880 N897 1.990 . S
Li880 O940 1.956 . S
Li880 O941 1.970 . S
Li880 O942 1.960 1_545 S
Li881 N905 1.990 . S
Li881 O940 1.970 . S
Li881 O941 1.956 . S
Li881 O943 1.961 1_545 S
Li882 N927 1.990 . S
Li882 O940 1.961 1_565 S
Li882 O942 1.957 . S
Li882 O943 1.970 . S
Li883 N933 1.990 . S
Li883 O941 1.961 1_565 S
Li883 O942 1.970 . S
Li883 O943 1.956 . S
C884 C886 1.348 . S
C884 C887 1.356 . S
C884 O940 1.325 . S
N885 C888 1.314 . S
N885 C889 1.279 . S
C886 C884 1.348 . S
C886 C888 1.353 . S
C886 H944 0.929 . S
C887 C884 1.356 . S
C887 C889 1.358 . S
C887 H945 0.930 . S
C888 N885 1.314 . S
C888 C886 1.353 . S
C888 H946 0.930 . S
C889 N885 1.279 . S
C889 C887 1.358 . S
C889 H947 0.930 . S
C890 C893 1.348 . S
C890 C894 1.356 . S
C890 O941 1.325 . S
C891 N892 1.279 . S
C891 C894 1.358 . S
C891 H948 0.930 . S
N892 C891 1.279 . S
N892 C895 1.314 . S
C893 C890 1.348 . S
C893 C895 1.353 . S
C893 H949 0.929 . S
C894 C890 1.356 . S
C894 C891 1.358 . S
C894 H950 0.930 . S
C895 N892 1.314 . S
C895 C893 1.353 . S
C895 H951 0.930 . S
C896 N897 1.314 . S
C896 C901 1.353 . S
C896 H902 0.930 . S
N897 Li880 1.990 . S
N897 C896 1.314 . S
N897 C899 1.279 . S
C898 C899 1.358 . S
C898 C900 1.356 . S
C898 H952 0.930 . S
C899 N897 1.279 . S
C899 C898 1.358 . S
C899 H903 0.930 . S
C900 C898 1.356 . S
C900 C901 1.348 . S
C901 C896 1.353 . S
C901 C900 1.348 . S
C901 H953 0.929 . S
H902 C896 0.930 . S
H903 C899 0.930 . S
C904 N905 1.314 1_565 S
C904 C906 1.353 . S
C904 H910 0.930 . S
N905 Li881 1.990 . S
N905 C904 1.314 1_545 S
N905 C908 1.279 . S
C906 C904 1.353 . S
C906 C909 1.348 1_565 S
C906 H954 0.929 . S
C907 C908 1.358 . S
C907 C909 1.356 . S
C907 H955 0.930 . S
C908 N905 1.279 . S
C908 C907 1.358 . S
C908 H911 0.930 . S
C909 C906 1.348 1_545 S
C909 C907 1.356 . S
H910 C904 0.930 . S
H911 C908 0.930 . S
C912 C914 1.348 . S
C912 C915 1.356 1_565 S
C912 O942 1.325 . S
N913 C916 1.314 . S
N913 C917 1.279 1_565 S
C914 C912 1.348 . S
C914 C916 1.353 . S
C914 H956 0.929 . S
C915 C912 1.356 1_545 S
C915 C917 1.358 . S
C915 H957 0.930 . S
C916 N913 1.314 . S
C916 C914 1.353 . S
C916 H958 0.930 . S
C917 N913 1.279 1_545 S
C917 C915 1.358 . S
C917 H959 0.930 . S
C918 C919 1.348 . S
C918 C920 1.356 . S
C918 O943 1.325 . S
C919 C918 1.348 . S
C919 C921 1.353 . S
C919 H960 0.929 . S
C920 C918 1.356 . S
C920 C922 1.358 . S
C920 H961 0.930 . S
C921 C919 1.353 . S
C921 N923 1.314 . S
C921 H962 0.930 . S
C922 C920 1.358 . S
C922 N923 1.279 . S
C922 H963 0.930 . S
N923 C921 1.314 . S
N923 C922 1.279 . S
C924 C926 1.353 . S
C924 N927 1.314 . S
C924 H930 0.930 . S
C925 N927 1.279 . S
C925 C928 1.358 . S
C925 H931 0.930 . S
C926 C924 1.353 . S
C926 C929 1.348 . S
C926 H964 0.929 . S
N927 Li882 1.990 . S
N927 C924 1.314 . S
N927 C925 1.279 . S
C928 C925 1.358 . S
C928 C929 1.356 . S
C928 H965 0.930 . S
C929 C926 1.348 . S
C929 C928 1.356 . S
H930 C924 0.930 . S
H931 C925 0.930 . S
C932 N933 1.314 1_545 S
C932 C934 1.353 . S
C932 H938 0.930 . S
N933 Li883 1.990 . S
N933 C932 1.314 1_565 S
N933 C936 1.279 . S
C934 C932 1.353 . S
C934 C937 1.348 1_545 S
C934 H966 0.929 . S
C935 C936 1.358 . S
C935 C937 1.356 . S
C935 H967 0.930 . S
C936 N933 1.279 . S
C936 C935 1.358 . S
C936 H939 0.930 . S
C937 C934 1.348 1_565 S
C937 C935 1.356 . S
H938 C932 0.930 . S
H939 C936 0.930 . S
O940 Li880 1.956 . S
O940 Li881 1.970 . S
O940 Li882 1.961 1_545 S
O940 C884 1.325 . S
O941 Li880 1.970 . S
O941 Li881 1.956 . S
O941 Li883 1.961 1_545 S
O941 C890 1.325 . S
O942 Li880 1.960 1_565 S
O942 Li882 1.957 . S
O942 Li883 1.970 . S
O942 C912 1.325 . S
O943 Li881 1.961 1_565 S
O943 Li882 1.970 . S
O943 Li883 1.956 . S
O943 C918 1.325 . S
H944 C886 0.929 . S
H945 C887 0.930 . S
H946 C888 0.930 . S
H947 C889 0.930 . S
H948 C891 0.930 . S
H949 C893 0.929 . S
H950 C894 0.930 . S
H951 C895 0.930 . S
H952 C898 0.930 . S
H953 C901 0.929 . S
H954 C906 0.929 . S
H955 C907 0.930 . S
H956 C914 0.929 . S
H957 C915 0.930 . S
H958 C916 0.930 . S
H959 C917 0.930 . S
H960 C919 0.929 . S
H961 C920 0.930 . S
H962 C921 0.930 . S
H963 C922 0.930 . S
H964 C926 0.929 . S
H965 C928 0.930 . S
H966 C934 0.929 . S
H967 C935 0.930 . S
Li968 N985 1.990 . S
Li968 O1028 1.956 . S
Li968 O1029 1.970 1_554 S
Li968 O1030 1.961 1_554 S
Li969 N993 1.990 . S
Li969 O1028 1.970 . S
Li969 O1029 1.956 1_554 S
Li969 O1031 1.963 1_554 S
Li970 N1015 1.990 . S
Li970 O1028 1.961 . S
Li970 O1030 1.956 1_554 S
Li970 O1031 1.970 1_554 S
Li971 N1021 1.990 . S
Li971 O1029 1.961 . S
Li971 O1030 1.970 . S
Li971 O1031 1.955 . S
C972 C974 1.348 . S
C972 C975 1.356 . S
C972 O1028 1.325 . S
N973 C976 1.314 . S
N973 C977 1.279 . S
C974 C972 1.348 . S
C974 C976 1.353 . S
C974 H1032 0.929 . S
C975 C972 1.356 . S
C975 C977 1.358 . S
C975 H1033 0.930 . S
C976 N973 1.314 . S
C976 C974 1.353 . S
C976 H1034 0.930 . S
C977 N973 1.279 . S
C977 C975 1.358 . S
C977 H1035 0.930 . S
C978 C981 1.348 . S
C978 C982 1.356 . S
C978 O1029 1.325 . S
C979 N980 1.279 . S
C979 C982 1.358 . S
C979 H1036 0.930 . S
N980 C979 1.279 . S
N980 C983 1.314 . S
C981 C978 1.348 . S
C981 C983 1.353 . S
C981 H1037 0.929 1_556 S
C982 C978 1.356 . S
C982 C979 1.358 . S
C982 H1038 0.930 . S
C983 N980 1.314 . S
C983 C981 1.353 . S
C983 H1039 0.930 . S
C984 N985 1.314 1_556 S
C984 C989 1.353 . S
C984 H990 0.930 . S
N985 Li968 1.990 . S
N985 C984 1.314 1_554 S
N985 C987 1.279 . S
C986 C987 1.358 . S
C986 C988 1.356 . S
C986 H1040 0.930 . S
C987 N985 1.279 . S
C987 C986 1.358 . S
C987 H991 0.930 . S
C988 C986 1.356 . S
C988 C989 1.348 1_554 S
C989 C984 1.353 . S
C989 C988 1.348 1_556 S
C989 H1041 0.929 . S
H990 C984 0.930 . S
H991 C987 0.930 . S
C992 N993 1.314 . S
C992 C994 1.353 . S
C992 H998 0.930 . S
N993 Li969 1.990 . S
N993 C992 1.314 . S
N993 C996 1.279 . S
C994 C992 1.353 . S
C994 C997 1.348 . S
C994 H1042 0.929 . S
C995 C996 1.358 . S
C995 C997 1.356 . S
C995 H1043 0.930 . S
C996 N993 1.279 . S
C996 C995 1.358 . S
C996 H999 0.930 . S
C997 C994 1.348 . S
C997 C995 1.356 . S
H998 C992 0.930 . S
H999 C996 0.930 . S
C1000 C1002 1.348 . S
C1000 C1003 1.356 . S
C1000 O1030 1.325 . S
N1001 C1004 1.314 . S
N1001 C1005 1.279 . S
C1002 C1000 1.348 . S
C1002 C1004 1.353 . S
C1002 H1044 0.929 . S
C1003 C1000 1.356 . S
C1003 C1005 1.358 . S
C1003 H1045 0.930 . S
C1004 N1001 1.314 . S
C1004 C1002 1.353 . S
C1004 H1046 0.930 . S
C1005 N1001 1.279 . S
C1005 C1003 1.358 . S
C1005 H1047 0.930 . S
C1006 C1007 1.348 . S
C1006 C1008 1.356 . S
C1006 O1031 1.325 . S
C1007 C1006 1.348 . S
C1007 C1009 1.353 . S
C1007 H1048 0.929 . S
C1008 C1006 1.356 . S
C1008 C1010 1.358 . S
C1008 H1049 0.926 1_556 S
C1009 C1007 1.353 . S
C1009 N1011 1.314 . S
C1009 H1050 0.930 . S
C1010 C1008 1.358 . S
C1010 N1011 1.279 . S
C1010 H1051 0.930 . S
N1011 C1009 1.314 . S
N1011 C1010 1.279 . S
C1012 C1014 1.353 . S
C1012 N1015 1.314 . S
C1012 H1018 0.930 . S
C1013 N1015 1.279 1_556 S
C1013 C1016 1.358 . S
C1013 H1019 0.930 . S
C1014 C1012 1.353 . S
C1014 C1017 1.348 . S
C1014 H1052 0.929 . S
N1015 Li970 1.990 . S
N1015 C1012 1.314 . S
N1015 C1013 1.279 1_554 S
C1016 C1013 1.358 . S
C1016 C1017 1.356 1_556 S
C1016 H1053 0.930 . S
C1017 C1014 1.348 . S
C1017 C1016 1.356 1_554 S
H1018 C1012 0.930 . S
H1019 C1013 0.930 . S
C1020 N1021 1.314 . S
C1020 C1022 1.353 . S
C1020 H1026 0.930 . S
N1021 Li971 1.990 . S
N1021 C1020 1.314 . S
N1021 C1024 1.279 . S
C1022 C1020 1.353 . S
C1022 C1025 1.348 . S
C1022 H1054 0.929 . S
C1023 C1024 1.358 . S
C1023 C1025 1.356 . S
C1023 H1055 0.930 . S
C1024 N1021 1.279 . S
C1024 C1023 1.358 . S
C1024 H1027 0.930 . S
C1025 C1022 1.348 . S
C1025 C1023 1.356 . S
H1026 C1020 0.930 . S
H1027 C1024 0.930 . S
O1028 Li968 1.956 . S
O1028 Li969 1.970 . S
O1028 Li970 1.961 . S
O1028 C972 1.325 . S
O1029 Li968 1.970 1_556 S
O1029 Li969 1.956 1_556 S
O1029 Li971 1.961 . S
O1029 C978 1.325 . S
O1030 Li968 1.961 1_556 S
O1030 Li970 1.956 1_556 S
O1030 Li971 1.970 . S
O1030 C1000 1.325 . S
O1031 Li969 1.963 1_556 S
O1031 Li970 1.970 1_556 S
O1031 Li971 1.955 . S
O1031 C1006 1.325 . S
H1032 C974 0.929 . S
H1033 C975 0.930 . S
H1034 C976 0.930 . S
H1035 C977 0.930 . S
H1036 C979 0.930 . S
H1037 C981 0.929 1_554 S
H1038 C982 0.930 . S
H1039 C983 0.930 . S
H1040 C986 0.930 . S
H1041 C989 0.929 . S
H1042 C994 0.929 . S
H1043 C995 0.930 . S
H1044 C1002 0.929 . S
H1045 C1003 0.930 . S
H1046 C1004 0.930 . S
H1047 C1005 0.930 . S
H1048 C1007 0.929 . S
H1049 C1008 0.926 1_554 S
H1050 C1009 0.930 . S
H1051 C1010 0.930 . S
H1052 C1014 0.929 . S
H1053 C1016 0.930 . S
H1054 C1022 0.929 . S
H1055 C1023 0.930 . S
Li1056 N1073 1.990 . S
Li1056 O1116 1.956 . S
Li1056 O1117 1.970 . S
Li1056 O1118 1.961 . S
Li1057 N1081 1.990 . S
Li1057 O1116 1.970 . S
Li1057 O1117 1.956 . S
Li1057 O1119 1.961 . S
Li1058 N1103 1.990 . S
Li1058 O1116 1.961 . S
Li1058 O1118 1.956 . S
Li1058 O1119 1.970 . S
Li1059 N1109 1.990 . S
Li1059 O1117 1.961 . S
Li1059 O1118 1.970 . S
Li1059 O1119 1.956 . S
C1060 C1062 1.348 . S
C1060 C1063 1.356 . S
C1060 O1116 1.325 . S
N1061 C1064 1.314 . S
N1061 C1065 1.279 . S
C1062 C1060 1.348 . S
C1062 C1064 1.353 . S
C1062 H1120 0.929 . S
C1063 C1060 1.356 . S
C1063 C1065 1.358 . S
C1063 H1121 0.930 . S
C1064 N1061 1.314 . S
C1064 C1062 1.353 . S
C1064 H1122 0.930 . S
C1065 N1061 1.279 . S
C1065 C1063 1.358 . S
C1065 H1123 0.930 . S
C1066 C1069 1.348 . S
C1066 C1070 1.356 . S
C1066 O1117 1.325 . S
C1067 N1068 1.279 . S
C1067 C1070 1.358 . S
C1067 H1124 0.930 . S
N1068 C1067 1.279 . S
N1068 C1071 1.314 . S
C1069 C1066 1.348 . S
C1069 C1071 1.353 . S
C1069 H1125 0.929 . S
C1070 C1066 1.356 . S
C1070 C1067 1.358 . S
C1070 H1126 0.930 . S
C1071 N1068 1.314 . S
C1071 C1069 1.353 . S
C1071 H1127 0.930 . S
C1072 N1073 1.314 . S
C1072 C1077 1.353 . S
C1072 H1078 0.930 . S
N1073 Li1056 1.990 . S
N1073 C1072 1.314 . S
N1073 C1075 1.279 . S
C1074 C1075 1.358 . S
C1074 C1076 1.356 . S
C1074 H1128 0.930 . S
C1075 N1073 1.279 . S
C1075 C1074 1.358 . S
C1075 H1079 0.930 . S
C1076 C1074 1.356 . S
C1076 C1077 1.348 . S
C1077 C1072 1.353 . S
C1077 C1076 1.348 . S
C1077 H1129 0.929 . S
H1078 C1072 0.930 . S
H1079 C1075 0.930 . S
C1080 N1081 1.314 . S
C1080 C1082 1.353 . S
C1080 H1086 0.930 . S
N1081 Li1057 1.990 . S
N1081 C1080 1.314 . S
N1081 C1084 1.279 . S
C1082 C1080 1.353 . S
C1082 C1085 1.348 . S
C1082 H1130 0.929 . S
C1083 C1084 1.358 . S
C1083 C1085 1.356 . S
C1083 H1131 0.930 . S
C1084 N1081 1.279 . S
C1084 C1083 1.358 . S
C1084 H1087 0.930 . S
C1085 C1082 1.348 . S
C1085 C1083 1.356 . S
H1086 C1080 0.930 . S
H1087 C1084 0.930 . S
C1088 C1090 1.348 1_554 S
C1088 C1091 1.356 . S
C1088 O1118 1.325 . S
N1089 C1092 1.314 . S
N1089 C1093 1.279 1_556 S
C1090 C1088 1.348 1_556 S
C1090 C1092 1.353 . S
C1090 H1132 0.929 . S
C1091 C1088 1.356 . S
C1091 C1093 1.358 . S
C1091 H1133 0.930 . S
C1092 N1089 1.314 . S
C1092 C1090 1.353 . S
C1092 H1134 0.930 . S
C1093 N1089 1.279 1_554 S
C1093 C1091 1.358 . S
C1093 H1135 0.930 . S
C1094 C1095 1.348 . S
C1094 C1096 1.356 . S
C1094 O1119 1.325 . S
C1095 C1094 1.348 . S
C1095 C1097 1.353 . S
C1095 H1136 0.929 . S
C1096 C1094 1.356 . S
C1096 C1098 1.358 . S
C1096 H1137 0.930 . S
C1097 C1095 1.353 . S
C1097 N1099 1.314 . S
C1097 H1138 0.930 . S
C1098 C1096 1.358 . S
C1098 N1099 1.279 . S
C1098 H1139 0.930 . S
N1099 C1097 1.314 . S
N1099 C1098 1.279 . S
C1100 C1102 1.353 . S
C1100 N1103 1.314 . S
C1100 H1106 0.930 . S
C1101 N1103 1.279 . S
C1101 C1104 1.358 . S
C1101 H1107 0.930 . S
C1102 C1100 1.353 . S
C1102 C1105 1.348 . S
C1102 H1140 0.929 . S
N1103 Li1058 1.990 . S
N1103 C1100 1.314 . S
N1103 C1101 1.279 . S
C1104 C1101 1.358 . S
C1104 C1105 1.356 . S
C1104 H1141 0.930 . S
C1105 C1102 1.348 . S
C1105 C1104 1.356 . S
H1106 C1100 0.930 . S
H1107 C1101 0.930 . S
C1108 N1109 1.314 1_556 S
C1108 C1110 1.353 . S
C1108 H1114 0.930 . S
N1109 Li1059 1.990 . S
N1109 C1108 1.314 1_554 S
N1109 C1112 1.279 1_554 S
C1110 C1108 1.353 . S
C1110 C1113 1.348 . S
C1110 H1142 0.929 . S
C1111 C1112 1.358 . S
C1111 C1113 1.356 . S
C1111 H1143 0.930 . S
C1112 N1109 1.279 1_556 S
C1112 C1111 1.358 . S
C1112 H1115 0.930 1_556 S
C1113 C1110 1.348 . S
C1113 C1111 1.356 . S
H1114 C1108 0.930 . S
H1115 C1112 0.930 1_554 S
O1116 Li1056 1.956 . S
O1116 Li1057 1.970 . S
O1116 Li1058 1.961 . S
O1116 C1060 1.325 . S
O1117 Li1056 1.970 . S
O1117 Li1057 1.956 . S
O1117 Li1059 1.961 . S
O1117 C1066 1.325 . S
O1118 Li1056 1.961 . S
O1118 Li1058 1.956 . S
O1118 Li1059 1.970 . S
O1118 C1088 1.325 . S
O1119 Li1057 1.961 . S
O1119 Li1058 1.970 . S
O1119 Li1059 1.956 . S
O1119 C1094 1.325 . S
H1120 C1062 0.929 . S
H1121 C1063 0.930 . S
H1122 C1064 0.930 . S
H1123 C1065 0.930 . S
H1124 C1067 0.930 . S
H1125 C1069 0.929 . S
H1126 C1070 0.930 . S
H1127 C1071 0.930 . S
H1128 C1074 0.930 . S
H1129 C1077 0.929 . S
H1130 C1082 0.929 . S
H1131 C1083 0.930 . S
H1132 C1090 0.929 . S
H1133 C1091 0.930 . S
H1134 C1092 0.930 . S
H1135 C1093 0.930 . S
H1136 C1095 0.929 . S
H1137 C1096 0.930 . S
H1138 C1097 0.930 . S
H1139 C1098 0.930 . S
H1140 C1102 0.929 . S
H1141 C1104 0.930 . S
H1142 C1110 0.929 . S
H1143 C1111 0.930 . S
Li1144 N1161 1.990 . S
Li1144 O1204 1.956 . S
Li1144 O1205 1.970 . S
Li1144 O1206 1.961 . S
Li1145 N1169 1.990 . S
Li1145 O1204 1.970 . S
Li1145 O1205 1.956 . S
Li1145 O1207 1.961 . S
Li1146 N1191 1.990 . S
Li1146 O1204 1.961 . S
Li1146 O1206 1.956 . S
Li1146 O1207 1.970 . S
Li1147 N1197 1.990 . S
Li1147 O1205 1.961 . S
Li1147 O1206 1.970 . S
Li1147 O1207 1.956 . S
C1148 C1150 1.348 . S
C1148 C1151 1.356 . S
C1148 O1204 1.325 . S
N1149 C1152 1.314 . S
N1149 C1153 1.279 . S
C1150 C1148 1.348 . S
C1150 C1152 1.353 . S
C1150 H1208 0.929 . S
C1151 C1148 1.356 . S
C1151 C1153 1.358 . S
C1151 H1209 0.930 . S
C1152 N1149 1.314 . S
C1152 C1150 1.353 . S
C1152 H1210 0.930 . S
C1153 N1149 1.279 . S
C1153 C1151 1.358 . S
C1153 H1211 0.930 . S
C1154 C1157 1.348 . S
C1154 C1158 1.356 . S
C1154 O1205 1.325 . S
C1155 N1156 1.279 . S
C1155 C1158 1.358 . S
C1155 H1212 0.930 . S
N1156 C1155 1.279 . S
N1156 C1159 1.314 . S
C1157 C1154 1.348 . S
C1157 C1159 1.353 . S
C1157 H1213 0.929 . S
C1158 C1154 1.356 . S
C1158 C1155 1.358 . S
C1158 H1214 0.930 . S
C1159 N1156 1.314 . S
C1159 C1157 1.353 . S
C1159 H1215 0.930 . S
C1160 N1161 1.314 . S
C1160 C1165 1.353 . S
C1160 H1166 0.930 . S
N1161 Li1144 1.990 . S
N1161 C1160 1.314 . S
N1161 C1163 1.279 . S
C1162 C1163 1.358 . S
C1162 C1164 1.356 . S
C1162 H1216 0.930 . S
C1163 N1161 1.279 . S
C1163 C1162 1.358 . S
C1163 H1167 0.930 . S
C1164 C1162 1.356 . S
C1164 C1165 1.348 . S
C1165 C1160 1.353 . S
C1165 C1164 1.348 . S
C1165 H1217 0.929 . S
H1166 C1160 0.930 . S
H1167 C1163 0.930 . S
C1168 N1169 1.314 . S
C1168 C1170 1.353 . S
C1168 H1174 0.930 . S
N1169 Li1145 1.990 . S
N1169 C1168 1.314 . S
N1169 C1172 1.279 . S
C1170 C1168 1.353 . S
C1170 C1173 1.348 . S
C1170 H1218 0.929 . S
C1171 C1172 1.358 . S
C1171 C1173 1.356 . S
C1171 H1219 0.930 . S
C1172 N1169 1.279 . S
C1172 C1171 1.358 . S
C1172 H1175 0.930 . S
C1173 C1170 1.348 . S
C1173 C1171 1.356 . S
H1174 C1168 0.930 . S
H1175 C1172 0.930 . S
C1176 C1178 1.348 . S
C1176 C1179 1.356 . S
C1176 O1206 1.325 . S
N1177 C1180 1.314 . S
N1177 C1181 1.279 . S
C1178 C1176 1.348 . S
C1178 C1180 1.353 . S
C1178 H1220 0.929 . S
C1179 C1176 1.356 . S
C1179 C1181 1.358 . S
C1179 H1221 0.930 . S
C1180 N1177 1.314 . S
C1180 C1178 1.353 . S
C1180 H1222 0.930 . S
C1181 N1177 1.279 . S
C1181 C1179 1.358 . S
C1181 H1223 0.930 . S
C1182 C1183 1.348 . S
C1182 C1184 1.356 . S
C1182 O1207 1.325 . S
C1183 C1182 1.348 . S
C1183 C1185 1.353 . S
C1183 H1224 0.929 . S
C1184 C1182 1.356 . S
C1184 C1186 1.358 . S
C1184 H1225 0.930 . S
C1185 C1183 1.353 . S
C1185 N1187 1.314 . S
C1185 H1226 0.947 . S
C1186 C1184 1.358 . S
C1186 N1187 1.279 . S
C1186 H1227 0.930 . S
N1187 C1185 1.314 . S
N1187 C1186 1.279 . S
C1188 C1190 1.353 . S
C1188 N1191 1.314 . S
C1188 H1194 0.930 . S
C1189 N1191 1.279 . S
C1189 C1192 1.358 . S
C1189 H1195 0.930 . S
C1190 C1188 1.353 . S
C1190 C1193 1.348 . S
C1190 H1228 0.929 . S
N1191 Li1146 1.990 . S
N1191 C1188 1.314 . S
N1191 C1189 1.279 . S
C1192 C1189 1.358 . S
C1192 C1193 1.356 . S
C1192 H1229 0.930 . S
C1193 C1190 1.348 . S
C1193 C1192 1.356 . S
H1194 C1188 0.930 . S
H1195 C1189 0.930 . S
C1196 N1197 1.314 . S
C1196 C1198 1.353 . S
C1196 H1202 0.930 . S
N1197 Li1147 1.990 . S
N1197 C1196 1.314 . S
N1197 C1200 1.279 . S
C1198 C1196 1.353 . S
C1198 C1201 1.348 . S
C1198 H1230 0.929 . S
C1199 C1200 1.358 . S
C1199 C1201 1.356 . S
C1199 H1231 0.930 . S
C1200 N1197 1.279 . S
C1200 C1199 1.358 . S
C1200 H1203 0.930 . S
C1201 C1198 1.348 . S
C1201 C1199 1.356 . S
H1202 C1196 0.930 . S
H1203 C1200 0.930 . S
O1204 Li1144 1.956 . S
O1204 Li1145 1.970 . S
O1204 Li1146 1.961 . S
O1204 C1148 1.325 . S
O1205 Li1144 1.970 . S
O1205 Li1145 1.956 . S
O1205 Li1147 1.961 . S
O1205 C1154 1.325 . S
O1206 Li1144 1.961 . S
O1206 Li1146 1.956 . S
O1206 Li1147 1.970 . S
O1206 C1176 1.325 . S
O1207 Li1145 1.961 . S
O1207 Li1146 1.970 . S
O1207 Li1147 1.956 . S
O1207 C1182 1.325 . S
H1208 C1150 0.929 . S
H1209 C1151 0.930 . S
H1210 C1152 0.930 . S
H1211 C1153 0.930 . S
H1212 C1155 0.930 . S
H1213 C1157 0.929 . S
H1214 C1158 0.930 . S
H1215 C1159 0.930 . S
H1216 C1162 0.930 . S
H1217 C1165 0.929 . S
H1218 C1170 0.929 . S
H1219 C1171 0.930 . S
H1220 C1178 0.929 . S
H1221 C1179 0.930 . S
H1222 C1180 0.930 . S
H1223 C1181 0.930 . S
H1224 C1183 0.929 . S
H1225 C1184 0.930 . S
H1226 C1185 0.947 . S
H1227 C1186 0.930 . S
H1228 C1190 0.929 . S
H1229 C1192 0.930 . S
H1230 C1198 0.929 . S
H1231 C1199 0.930 . S
Li1232 N1249 1.990 . S
Li1232 O1292 1.956 . S
Li1232 O1293 1.970 . S
Li1232 O1294 1.961 . S
Li1233 N1257 1.990 . S
Li1233 O1292 1.970 . S
Li1233 O1293 1.956 . S
Li1233 O1295 1.961 . S
Li1234 N1279 1.990 . S
Li1234 O1292 1.961 . S
Li1234 O1294 1.956 . S
Li1234 O1295 1.970 . S
Li1235 N1285 1.990 . S
Li1235 O1293 1.961 . S
Li1235 O1294 1.970 . S
Li1235 O1295 1.956 . S
C1236 C1238 1.348 . S
C1236 C1239 1.356 . S
C1236 O1292 1.325 . S
N1237 C1240 1.314 . S
N1237 C1241 1.279 . S
C1238 C1236 1.348 . S
C1238 C1240 1.353 . S
C1238 H1296 0.929 . S
C1239 C1236 1.356 . S
C1239 C1241 1.358 . S
C1239 H1297 0.930 . S
C1240 N1237 1.314 . S
C1240 C1238 1.353 . S
C1240 H1298 0.930 . S
C1241 N1237 1.279 . S
C1241 C1239 1.358 . S
C1241 H1299 0.930 . S
C1242 C1245 1.348 . S
C1242 C1246 1.356 . S
C1242 O1293 1.325 . S
C1243 N1244 1.279 . S
C1243 C1246 1.358 . S
C1243 H1300 0.930 . S
N1244 C1243 1.279 . S
N1244 C1247 1.314 . S
C1245 C1242 1.348 . S
C1245 C1247 1.353 . S
C1245 H1301 0.929 . S
C1246 C1242 1.356 . S
C1246 C1243 1.358 . S
C1246 H1302 0.930 . S
C1247 N1244 1.314 . S
C1247 C1245 1.353 . S
C1247 H1303 0.930 . S
C1248 N1249 1.314 . S
C1248 C1253 1.353 . S
C1248 H1254 0.930 . S
N1249 Li1232 1.990 . S
N1249 C1248 1.314 . S
N1249 C1251 1.279 . S
C1250 C1251 1.358 . S
C1250 C1252 1.356 . S
C1250 H1304 0.930 . S
C1251 N1249 1.279 . S
C1251 C1250 1.358 . S
C1251 H1255 0.930 . S
C1252 C1250 1.356 . S
C1252 C1253 1.348 . S
C1253 C1248 1.353 . S
C1253 C1252 1.348 . S
C1253 H1305 0.929 . S
H1254 C1248 0.930 . S
H1255 C1251 0.930 . S
C1256 N1257 1.314 . S
C1256 C1258 1.353 . S
C1256 H1262 0.930 . S
N1257 Li1233 1.990 . S
N1257 C1256 1.314 . S
N1257 C1260 1.279 . S
C1258 C1256 1.353 . S
C1258 C1261 1.348 . S
C1258 H1306 0.929 . S
C1259 C1260 1.358 . S
C1259 C1261 1.356 . S
C1259 H1307 0.930 . S
C1260 N1257 1.279 . S
C1260 C1259 1.358 . S
C1260 H1263 0.930 . S
C1261 C1258 1.348 . S
C1261 C1259 1.356 . S
H1262 C1256 0.930 . S
H1263 C1260 0.930 . S
C1264 C1266 1.348 . S
C1264 C1267 1.356 . S
C1264 O1294 1.325 . S
N1265 C1268 1.314 . S
N1265 C1269 1.279 . S
C1266 C1264 1.348 . S
C1266 C1268 1.353 . S
C1266 H1308 0.929 . S
C1267 C1264 1.356 . S
C1267 C1269 1.358 . S
C1267 H1309 0.930 . S
C1268 N1265 1.314 . S
C1268 C1266 1.353 . S
C1268 H1310 0.930 . S
C1269 N1265 1.279 . S
C1269 C1267 1.358 . S
C1269 H1311 0.930 . S
C1270 C1271 1.348 . S
C1270 C1272 1.356 . S
C1270 O1295 1.325 . S
C1271 C1270 1.348 . S
C1271 C1273 1.353 . S
C1271 H1312 0.929 . S
C1272 C1270 1.356 . S
C1272 C1274 1.358 . S
C1272 H1313 0.930 . S
C1273 C1271 1.353 . S
C1273 N1275 1.314 . S
C1273 H1314 0.930 . S
C1274 C1272 1.358 . S
C1274 N1275 1.279 . S
C1274 H1315 0.930 . S
N1275 C1273 1.314 . S
N1275 C1274 1.279 . S
C1276 C1278 1.353 . S
C1276 N1279 1.314 . S
C1276 H1282 0.930 . S
C1277 N1279 1.279 . S
C1277 C1280 1.358 . S
C1277 H1283 0.930 . S
C1278 C1276 1.353 . S
C1278 C1281 1.348 . S
C1278 H1316 0.929 . S
N1279 Li1234 1.990 . S
N1279 C1276 1.314 . S
N1279 C1277 1.279 . S
C1280 C1277 1.358 . S
C1280 C1281 1.356 . S
C1280 H1317 0.930 . S
C1281 C1278 1.348 . S
C1281 C1280 1.356 . S
H1282 C1276 0.930 . S
H1283 C1277 0.930 . S
C1284 N1285 1.314 . S
C1284 C1286 1.353 . S
C1284 H1290 0.930 . S
N1285 Li1235 1.990 . S
N1285 C1284 1.314 . S
N1285 C1288 1.279 . S
C1286 C1284 1.353 . S
C1286 C1289 1.348 . S
C1286 H1318 0.929 . S
C1287 C1288 1.358 . S
C1287 C1289 1.356 . S
C1287 H1319 0.930 . S
C1288 N1285 1.279 . S
C1288 C1287 1.358 . S
C1288 H1291 0.930 . S
C1289 C1286 1.348 . S
C1289 C1287 1.356 . S
H1290 C1284 0.930 . S
H1291 C1288 0.930 . S
O1292 Li1232 1.956 . S
O1292 Li1233 1.970 . S
O1292 Li1234 1.961 . S
O1292 C1236 1.325 . S
O1293 Li1232 1.970 . S
O1293 Li1233 1.956 . S
O1293 Li1235 1.961 . S
O1293 C1242 1.325 . S
O1294 Li1232 1.961 . S
O1294 Li1234 1.956 . S
O1294 Li1235 1.970 . S
O1294 C1264 1.325 . S
O1295 Li1233 1.961 . S
O1295 Li1234 1.970 . S
O1295 Li1235 1.956 . S
O1295 C1270 1.325 . S
H1296 C1238 0.929 . S
H1297 C1239 0.930 . S
H1298 C1240 0.930 . S
H1299 C1241 0.930 . S
H1300 C1243 0.930 . S
H1301 C1245 0.929 . S
H1302 C1246 0.930 . S
H1303 C1247 0.930 . S
H1304 C1250 0.930 . S
H1305 C1253 0.929 . S
H1306 C1258 0.929 . S
H1307 C1259 0.930 . S
H1308 C1266 0.929 . S
H1309 C1267 0.930 . S
H1310 C1268 0.930 . S
H1311 C1269 0.930 . S
H1312 C1271 0.929 . S
H1313 C1272 0.930 . S
H1314 C1273 0.930 . S
H1315 C1274 0.930 . S
H1316 C1278 0.929 . S
H1317 C1280 0.930 . S
H1318 C1286 0.929 . S
H1319 C1287 0.930 . S
Li1320 N1337 1.990 . S
Li1320 O1380 1.956 . S
Li1320 O1381 1.970 . S
Li1320 O1382 1.961 . S
Li1321 N1345 1.990 . S
Li1321 O1380 1.970 . S
Li1321 O1381 1.956 . S
Li1321 O1383 1.961 . S
Li1322 N1367 1.990 . S
Li1322 O1380 1.961 . S
Li1322 O1382 1.956 . S
Li1322 O1383 1.970 . S
Li1323 N1373 1.990 . S
Li1323 O1381 1.961 . S
Li1323 O1382 1.970 . S
Li1323 O1383 1.956 . S
C1324 C1326 1.348 . S
C1324 C1327 1.356 . S
C1324 O1380 1.325 . S
N1325 C1328 1.314 . S
N1325 C1329 1.279 . S
C1326 C1324 1.348 . S
C1326 C1328 1.353 . S
C1326 H1384 0.929 . S
C1327 C1324 1.356 . S
C1327 C1329 1.358 . S
C1327 H1385 0.930 . S
C1328 N1325 1.314 . S
C1328 C1326 1.353 . S
C1328 H1386 0.930 . S
C1329 N1325 1.279 . S
C1329 C1327 1.358 . S
C1329 H1387 0.930 1_565 S
C1330 C1333 1.348 . S
C1330 C1334 1.356 . S
C1330 O1381 1.325 . S
C1331 N1332 1.279 . S
C1331 C1334 1.358 . S
C1331 H1388 0.930 . S
N1332 C1331 1.279 . S
N1332 C1335 1.314 . S
C1333 C1330 1.348 . S
C1333 C1335 1.353 . S
C1333 H1389 0.929 . S
C1334 C1330 1.356 . S
C1334 C1331 1.358 . S
C1334 H1390 0.930 . S
C1335 N1332 1.314 . S
C1335 C1333 1.353 . S
C1335 H1391 0.930 . S
C1336 N1337 1.314 . S
C1336 C1341 1.353 . S
C1336 H1342 0.930 . S
N1337 Li1320 1.990 . S
N1337 C1336 1.314 . S
N1337 C1339 1.279 . S
C1338 C1339 1.358 . S
C1338 C1340 1.356 . S
C1338 H1392 0.930 . S
C1339 N1337 1.279 . S
C1339 C1338 1.358 . S
C1339 H1343 0.930 . S
C1340 C1338 1.356 . S
C1340 C1341 1.348 . S
C1341 C1336 1.353 . S
C1341 C1340 1.348 . S
C1341 H1393 0.929 . S
H1342 C1336 0.930 . S
H1343 C1339 0.930 . S
C1344 N1345 1.314 . S
C1344 C1346 1.353 . S
C1344 H1350 0.930 . S
N1345 Li1321 1.990 . S
N1345 C1344 1.314 . S
N1345 C1348 1.279 . S
C1346 C1344 1.353 . S
C1346 C1349 1.348 . S
C1346 H1394 0.929 . S
C1347 C1348 1.358 . S
C1347 C1349 1.356 . S
C1347 H1395 0.930 . S
C1348 N1345 1.279 . S
C1348 C1347 1.358 . S
C1348 H1351 0.930 . S
C1349 C1346 1.348 . S
C1349 C1347 1.356 . S
H1350 C1344 0.930 . S
H1351 C1348 0.930 . S
C1352 C1354 1.348 . S
C1352 C1355 1.356 . S
C1352 O1382 1.325 . S
N1353 C1356 1.314 . S
N1353 C1357 1.279 . S
C1354 C1352 1.348 . S
C1354 C1356 1.353 . S
C1354 H1396 0.929 . S
C1355 C1352 1.356 . S
C1355 C1357 1.358 . S
C1355 H1397 0.930 . S
C1356 N1353 1.314 . S
C1356 C1354 1.353 . S
C1356 H1398 0.930 . S
C1357 N1353 1.279 . S
C1357 C1355 1.358 . S
C1357 H1399 0.930 . S
C1358 C1359 1.348 . S
C1358 C1360 1.356 . S
C1358 O1383 1.325 . S
C1359 C1358 1.348 . S
C1359 C1361 1.353 . S
C1359 H1400 0.929 . S
C1360 C1358 1.356 . S
C1360 C1362 1.358 . S
C1360 H1401 0.930 . S
C1361 C1359 1.353 . S
C1361 N1363 1.314 . S
C1361 H1402 0.930 . S
C1362 C1360 1.358 . S
C1362 N1363 1.279 . S
C1362 H1403 0.930 . S
N1363 C1361 1.314 . S
N1363 C1362 1.279 . S
C1364 C1366 1.353 . S
C1364 N1367 1.314 . S
C1364 H1370 0.930 . S
C1365 N1367 1.279 . S
C1365 C1368 1.358 . S
C1365 H1371 0.930 . S
C1366 C1364 1.353 . S
C1366 C1369 1.348 . S
C1366 H1404 0.929 . S
N1367 Li1322 1.990 . S
N1367 C1364 1.314 . S
N1367 C1365 1.279 . S
C1368 C1365 1.358 . S
C1368 C1369 1.356 . S
C1368 H1405 0.930 . S
C1369 C1366 1.348 . S
C1369 C1368 1.356 . S
H1370 C1364 0.930 . S
H1371 C1365 0.930 . S
C1372 N1373 1.314 . S
C1372 C1374 1.353 . S
C1372 H1378 0.930 . S
N1373 Li1323 1.990 . S
N1373 C1372 1.314 . S
N1373 C1376 1.279 . S
C1374 C1372 1.353 . S
C1374 C1377 1.348 . S
C1374 H1406 0.929 . S
C1375 C1376 1.358 . S
C1375 C1377 1.356 . S
C1375 H1407 0.930 . S
C1376 N1373 1.279 . S
C1376 C1375 1.358 . S
C1376 H1379 0.930 . S
C1377 C1374 1.348 . S
C1377 C1375 1.356 . S
H1378 C1372 0.930 . S
H1379 C1376 0.930 . S
O1380 Li1320 1.956 . S
O1380 Li1321 1.970 . S
O1380 Li1322 1.961 . S
O1380 C1324 1.325 . S
O1381 Li1320 1.970 . S
O1381 Li1321 1.956 . S
O1381 Li1323 1.961 . S
O1381 C1330 1.325 . S
O1382 Li1320 1.961 . S
O1382 Li1322 1.956 . S
O1382 Li1323 1.970 . S
O1382 C1352 1.325 . S
O1383 Li1321 1.961 . S
O1383 Li1322 1.970 . S
O1383 Li1323 1.956 . S
O1383 C1358 1.325 . S
H1384 C1326 0.929 . S
H1385 C1327 0.930 . S
H1386 C1328 0.930 . S
H1387 C1329 0.930 1_545 S
H1388 C1331 0.930 . S
H1389 C1333 0.929 . S
H1390 C1334 0.930 . S
H1391 C1335 0.930 . S
H1392 C1338 0.930 . S
H1393 C1341 0.929 . S
H1394 C1346 0.929 . S
H1395 C1347 0.930 . S
H1396 C1354 0.929 . S
H1397 C1355 0.930 . S
H1398 C1356 0.930 . S
H1399 C1357 0.930 . S
H1400 C1359 0.929 . S
H1401 C1360 0.930 . S
H1402 C1361 0.930 . S
H1403 C1362 0.930 . S
H1404 C1366 0.929 . S
H1405 C1368 0.930 . S
H1406 C1374 0.929 . S
H1407 C1375 0.930 . S
Li1408 N1425 1.990 . S
Li1408 O1468 1.956 . S
Li1408 O1469 1.970 . S
Li1408 O1470 1.961 . S
Li1409 N1433 1.990 1_545 S
Li1409 O1468 1.970 . S
Li1409 O1469 1.956 . S
Li1409 O1471 1.961 . S
Li1410 N1455 1.990 . S
Li1410 O1468 1.961 . S
Li1410 O1470 1.956 . S
Li1410 O1471 1.970 . S
Li1411 N1461 1.990 . S
Li1411 O1469 1.961 . S
Li1411 O1470 1.970 . S
Li1411 O1471 1.956 . S
C1412 C1414 1.348 . S
C1412 C1415 1.356 . S
C1412 O1468 1.325 1_565 S
N1413 C1416 1.314 . S
N1413 C1417 1.279 . S
C1414 C1412 1.348 . S
C1414 C1416 1.353 . S
C1414 H1472 0.929 . S
C1415 C1412 1.356 . S
C1415 C1417 1.358 . S
C1415 H1473 0.930 1_565 S
C1416 N1413 1.314 . S
C1416 C1414 1.353 . S
C1416 H1474 0.930 . S
C1417 N1413 1.279 . S
C1417 C1415 1.358 . S
C1417 H1475 0.930 1_655 S
C1418 C1421 1.348 . S
C1418 C1422 1.356 . S
C1418 O1469 1.325 . S
C1419 N1420 1.279 . S
C1419 C1422 1.358 . S
C1419 H1476 0.930 . S
N1420 C1419 1.279 . S
N1420 C1423 1.314 . S
C1421 C1418 1.348 . S
C1421 C1423 1.353 . S
C1421 H1477 0.929 . S
C1422 C1418 1.356 . S
C1422 C1419 1.358 . S
C1422 H1478 0.930 . S
C1423 N1420 1.314 . S
C1423 C1421 1.353 . S
C1423 H1479 0.930 . S
C1424 N1425 1.314 . S
C1424 C1429 1.353 . S
C1424 H1430 0.930 . S
N1425 Li1408 1.990 . S
N1425 C1424 1.314 . S
N1425 C1427 1.279 . S
C1426 C1427 1.353 1_455 S
C1426 C1428 1.356 . S
C1426 H1480 0.936 . S
C1427 N1425 1.279 . S
C1427 C1426 1.353 1_655 S
C1427 H1431 0.930 . S
C1428 C1426 1.356 . S
C1428 C1429 1.348 1_455 S
C1429 C1424 1.353 . S
C1429 C1428 1.348 1_655 S
C1429 H1481 0.930 1_655 S
H1430 C1424 0.930 . S
H1431 C1427 0.930 . S
C1432 N1433 1.314 . S
C1432 C1434 1.353 . S
C1432 H1438 0.930 . S
N1433 Li1409 1.990 1_565 S
N1433 C1432 1.314 . S
N1433 C1436 1.279 . S
C1434 C1432 1.353 . S
C1434 C1437 1.348 . S
C1434 H1482 0.929 . S
C1435 C1436 1.358 . S
C1435 C1437 1.356 . S
C1435 H1483 0.930 . S
C1436 N1433 1.279 . S
C1436 C1435 1.358 . S
C1436 H1439 0.930 . S
C1437 C1434 1.348 . S
C1437 C1435 1.356 . S
H1438 C1432 0.930 . S
H1439 C1436 0.930 . S
C1440 C1442 1.348 . S
C1440 C1443 1.356 . S
C1440 O1470 1.325 . S
N1441 C1444 1.314 1_455 S
N1441 C1445 1.279 . S
C1442 C1440 1.348 . S
C1442 C1444 1.353 . S
C1442 H1484 0.929 . S
C1443 C1440 1.356 . S
C1443 C1445 1.358 1_655 S
C1443 H1485 0.930 . S
C1444 N1441 1.314 1_655 S
C1444 C1442 1.353 . S
C1444 H1486 0.930 . S
C1445 N1441 1.279 . S
C1445 C1443 1.358 1_455 S
C1445 H1487 0.930 . S
C1446 C1447 1.348 . S
C1446 C1448 1.356 . S
C1446 O1471 1.325 . S
C1447 C1446 1.348 . S
C1447 C1449 1.353 . S
C1447 H1488 0.929 . S
C1448 C1446 1.356 . S
C1448 C1450 1.358 . S
C1448 H1489 0.930 . S
C1449 C1447 1.353 . S
C1449 N1451 1.314 . S
C1449 H1490 0.930 . S
C1450 C1448 1.358 . S
C1450 N1451 1.279 . S
C1450 H1491 0.930 . S
N1451 C1449 1.314 . S
N1451 C1450 1.279 . S
C1452 C1454 1.353 . S
C1452 N1455 1.314 . S
C1452 H1458 0.930 1_545 S
C1453 N1455 1.279 . S
C1453 C1456 1.358 . S
C1453 H1459 0.930 . S
C1454 C1452 1.353 . S
C1454 C1457 1.348 . S
C1454 H1492 0.929 1_545 S
N1455 Li1410 1.990 . S
N1455 C1452 1.314 . S
N1455 C1453 1.279 . S
C1456 C1453 1.358 . S
C1456 C1457 1.356 . S
C1456 H1493 0.930 1_655 S
C1457 C1454 1.348 . S
C1457 C1456 1.356 . S
H1458 C1452 0.930 1_565 S
H1459 C1453 0.930 . S
C1460 N1461 1.314 . S
C1460 C1462 1.353 . S
C1460 H1466 0.930 . S
N1461 Li1411 1.990 . S
N1461 C1460 1.314 . S
N1461 C1464 1.279 . S
C1462 C1460 1.353 . S
C1462 C1465 1.348 . S
C1462 H1494 0.929 . S
C1463 C1464 1.358 . S
C1463 C1465 1.356 . S
C1463 H1495 0.930 . S
C1464 N1461 1.279 . S
C1464 C1463 1.358 . S
C1464 H1467 0.930 . S
C1465 C1462 1.348 . S
C1465 C1463 1.356 . S
H1466 C1460 0.930 . S
H1467 C1464 0.930 . S
O1468 Li1408 1.956 . S
O1468 Li1409 1.970 . S
O1468 Li1410 1.961 . S
O1468 C1412 1.325 1_545 S
O1469 Li1408 1.970 . S
O1469 Li1409 1.956 . S
O1469 Li1411 1.961 . S
O1469 C1418 1.325 . S
O1470 Li1408 1.961 . S
O1470 Li1410 1.956 . S
O1470 Li1411 1.970 . S
O1470 C1440 1.325 . S
O1471 Li1409 1.961 . S
O1471 Li1410 1.970 . S
O1471 Li1411 1.956 . S
O1471 C1446 1.325 . S
H1472 C1414 0.929 . S
H1473 C1415 0.930 1_545 S
H1474 C1416 0.930 . S
H1475 C1417 0.930 1_455 S
H1476 C1419 0.930 . S
H1477 C1421 0.929 . S
H1478 C1422 0.930 . S
H1479 C1423 0.930 . S
H1480 C1426 0.936 . S
H1481 C1429 0.930 1_455 S
H1482 C1434 0.929 . S
H1483 C1435 0.930 . S
H1484 C1442 0.929 . S
H1485 C1443 0.930 . S
H1486 C1444 0.930 . S
H1487 C1445 0.930 . S
H1488 C1447 0.929 . S
H1489 C1448 0.930 . S
H1490 C1449 0.930 . S
H1491 C1450 0.930 . S
H1492 C1454 0.929 1_565 S
H1493 C1456 0.930 1_455 S
H1494 C1462 0.929 . S
H1495 C1463 0.930 . S
Li1496 N1513 1.990 . S
Li1496 O1556 1.956 . S
Li1496 O1557 1.970 . S
Li1496 O1558 1.961 . S
Li1497 N1521 1.990 . S
Li1497 O1556 1.970 . S
Li1497 O1557 1.956 . S
Li1497 O1559 1.961 . S
Li1498 N1543 1.990 . S
Li1498 O1556 1.961 . S
Li1498 O1558 1.956 . S
Li1498 O1559 1.970 . S
Li1499 N1549 1.990 . S
Li1499 O1557 1.961 . S
Li1499 O1558 1.970 . S
Li1499 O1559 1.956 . S
C1500 C1502 1.348 . S
C1500 C1503 1.356 . S
C1500 O1556 1.325 . S
N1501 C1504 1.314 . S
N1501 C1505 1.279 . S
C1502 C1500 1.348 . S
C1502 C1504 1.353 . S
C1502 H1560 0.929 . S
C1503 C1500 1.356 . S
C1503 C1505 1.358 . S
C1503 H1561 0.930 . S
C1504 N1501 1.314 . S
C1504 C1502 1.353 . S
C1504 H1562 0.930 . S
C1505 N1501 1.279 . S
C1505 C1503 1.358 . S
C1505 H1563 0.930 . S
C1506 C1509 1.348 . S
C1506 C1510 1.356 . S
C1506 O1557 1.325 . S
C1507 N1508 1.279 . S
C1507 C1510 1.358 . S
C1507 H1564 0.930 . S
N1508 C1507 1.279 . S
N1508 C1511 1.314 . S
C1509 C1506 1.348 . S
C1509 C1511 1.353 . S
C1509 H1565 0.929 . S
C1510 C1506 1.356 . S
C1510 C1507 1.358 . S
C1510 H1566 0.930 . S
C1511 N1508 1.314 . S
C1511 C1509 1.353 . S
C1511 H1567 0.930 . S
C1512 N1513 1.314 . S
C1512 C1517 1.353 . S
C1512 H1518 0.930 . S
N1513 Li1496 1.990 . S
N1513 C1512 1.314 . S
N1513 C1515 1.279 . S
C1514 C1515 1.358 . S
C1514 C1516 1.356 . S
C1514 H1568 0.930 . S
C1515 N1513 1.279 . S
C1515 C1514 1.358 . S
C1515 H1519 0.930 . S
C1516 C1514 1.356 . S
C1516 C1517 1.348 . S
C1517 C1512 1.353 . S
C1517 C1516 1.348 . S
C1517 H1569 0.929 . S
H1518 C1512 0.930 . S
H1519 C1515 0.930 . S
C1520 N1521 1.314 . S
C1520 C1522 1.353 . S
C1520 H1526 0.930 . S
N1521 Li1497 1.990 . S
N1521 C1520 1.314 . S
N1521 C1524 1.279 . S
C1522 C1520 1.353 . S
C1522 C1525 1.348 . S
C1522 H1570 0.929 . S
C1523 C1524 1.358 . S
C1523 C1525 1.356 . S
C1523 H1571 0.930 . S
C1524 N1521 1.279 . S
C1524 C1523 1.358 . S
C1524 H1527 0.930 . S
C1525 C1522 1.348 . S
C1525 C1523 1.356 . S
H1526 C1520 0.930 . S
H1527 C1524 0.930 . S
C1528 C1530 1.348 . S
C1528 C1531 1.356 . S
C1528 O1558 1.325 . S
N1529 C1532 1.314 . S
N1529 C1533 1.279 . S
C1530 C1528 1.348 . S
C1530 C1532 1.353 . S
C1530 H1572 0.929 . S
C1531 C1528 1.356 . S
C1531 C1533 1.358 . S
C1531 H1573 0.930 . S
C1532 N1529 1.314 . S
C1532 C1530 1.353 . S
C1532 H1574 0.930 . S
C1533 N1529 1.279 . S
C1533 C1531 1.358 . S
C1533 H1575 0.930 . S
C1534 C1535 1.348 . S
C1534 C1536 1.356 . S
C1534 O1559 1.325 . S
C1535 C1534 1.348 . S
C1535 C1537 1.353 . S
C1535 H1576 0.929 . S
C1536 C1534 1.356 . S
C1536 C1538 1.358 . S
C1536 H1577 0.930 . S
C1537 C1535 1.353 . S
C1537 N1539 1.314 . S
C1537 H1578 0.930 . S
C1538 C1536 1.358 . S
C1538 N1539 1.279 . S
C1538 H1579 0.930 . S
N1539 C1537 1.314 . S
N1539 C1538 1.279 . S
C1540 C1542 1.353 . S
C1540 N1543 1.314 . S
C1540 H1546 0.930 . S
C1541 N1543 1.279 . S
C1541 C1544 1.358 . S
C1541 H1547 0.930 . S
C1542 C1540 1.353 . S
C1542 C1545 1.348 . S
C1542 H1580 0.929 . S
N1543 Li1498 1.990 . S
N1543 C1540 1.314 . S
N1543 C1541 1.279 . S
C1544 C1541 1.358 . S
C1544 C1545 1.356 . S
C1544 H1581 0.930 . S
C1545 C1542 1.348 . S
C1545 C1544 1.356 . S
H1546 C1540 0.930 . S
H1547 C1541 0.930 . S
C1548 N1549 1.314 . S
C1548 C1550 1.353 . S
C1548 H1554 0.930 . S
N1549 Li1499 1.990 . S
N1549 C1548 1.314 . S
N1549 C1552 1.279 . S
C1550 C1548 1.353 . S
C1550 C1553 1.348 . S
C1550 H1582 0.929 . S
C1551 C1552 1.358 . S
C1551 C1553 1.356 . S
C1551 H1583 0.930 . S
C1552 N1549 1.279 . S
C1552 C1551 1.358 . S
C1552 H1555 0.930 . S
C1553 C1550 1.348 . S
C1553 C1551 1.356 . S
H1554 C1548 0.930 . S
H1555 C1552 0.930 . S
O1556 Li1496 1.956 . S
O1556 Li1497 1.970 . S
O1556 Li1498 1.961 . S
O1556 C1500 1.325 . S
O1557 Li1496 1.970 . S
O1557 Li1497 1.956 . S
O1557 Li1499 1.961 . S
O1557 C1506 1.325 . S
O1558 Li1496 1.961 . S
O1558 Li1498 1.956 . S
O1558 Li1499 1.970 . S
O1558 C1528 1.325 . S
O1559 Li1497 1.961 . S
O1559 Li1498 1.970 . S
O1559 Li1499 1.956 . S
O1559 C1534 1.325 . S
H1560 C1502 0.929 . S
H1561 C1503 0.930 . S
H1562 C1504 0.930 . S
H1563 C1505 0.930 . S
H1564 C1507 0.930 . S
H1565 C1509 0.929 . S
H1566 C1510 0.930 . S
H1567 C1511 0.930 . S
H1568 C1514 0.930 . S
H1569 C1517 0.929 . S
H1570 C1522 0.929 . S
H1571 C1523 0.930 . S
H1572 C1530 0.929 . S
H1573 C1531 0.930 . S
H1574 C1532 0.930 . S
H1575 C1533 0.930 . S
H1576 C1535 0.929 . S
H1577 C1536 0.930 . S
H1578 C1537 0.930 . S
H1579 C1538 0.930 . S
H1580 C1542 0.929 . S
H1581 C1544 0.930 . S
H1582 C1550 0.929 . S
H1583 C1551 0.930 . S
Li1584 N1601 1.990 . S
Li1584 O1644 1.956 . S
Li1584 O1645 1.970 . S
Li1584 O1646 1.961 . S
Li1585 N1609 1.990 . S
Li1585 O1644 1.970 . S
Li1585 O1645 1.956 . S
Li1585 O1647 1.961 . S
Li1586 N1631 1.990 . S
Li1586 O1644 1.961 . S
Li1586 O1646 1.956 . S
Li1586 O1647 1.970 . S
Li1587 N1637 1.990 . S
Li1587 O1645 1.961 . S
Li1587 O1646 1.970 . S
Li1587 O1647 1.956 . S
C1588 C1590 1.348 . S
C1588 C1591 1.356 . S
C1588 O1644 1.325 . S
N1589 C1592 1.314 . S
N1589 C1593 1.279 . S
C1590 C1588 1.348 . S
C1590 C1592 1.353 . S
C1590 H1648 0.929 . S
C1591 C1588 1.356 . S
C1591 C1593 1.358 . S
C1591 H1649 0.930 . S
C1592 N1589 1.314 . S
C1592 C1590 1.353 . S
C1592 H1650 0.930 . S
C1593 N1589 1.279 . S
C1593 C1591 1.358 . S
C1593 H1651 0.930 . S
C1594 C1597 1.348 . S
C1594 C1598 1.356 . S
C1594 O1645 1.325 . S
C1595 N1596 1.279 . S
C1595 C1598 1.358 . S
C1595 H1652 0.930 . S
N1596 C1595 1.279 . S
N1596 C1599 1.314 . S
C1597 C1594 1.348 . S
C1597 C1599 1.353 . S
C1597 H1653 0.929 . S
C1598 C1594 1.356 . S
C1598 C1595 1.358 . S
C1598 H1654 0.930 . S
C1599 N1596 1.314 . S
C1599 C1597 1.353 . S
C1599 H1655 0.930 . S
C1600 N1601 1.314 . S
C1600 C1605 1.353 . S
C1600 H1606 0.930 . S
N1601 Li1584 1.990 . S
N1601 C1600 1.314 . S
N1601 C1603 1.279 . S
C1602 C1603 1.358 . S
C1602 C1604 1.356 . S
C1602 H1656 0.930 . S
C1603 N1601 1.279 . S
C1603 C1602 1.358 . S
C1603 H1607 0.930 . S
C1604 C1602 1.356 . S
C1604 C1605 1.348 . S
C1605 C1600 1.353 . S
C1605 C1604 1.348 . S
C1605 H1657 0.929 . S
H1606 C1600 0.930 . S
H1607 C1603 0.930 . S
C1608 N1609 1.314 . S
C1608 C1610 1.353 . S
C1608 H1614 0.930 . S
N1609 Li1585 1.990 . S
N1609 C1608 1.314 . S
N1609 C1612 1.279 . S
C1610 C1608 1.353 . S
C1610 C1613 1.348 . S
C1610 H1658 0.929 . S
C1611 C1612 1.358 . S
C1611 C1613 1.356 . S
C1611 H1659 0.930 . S
C1612 N1609 1.279 . S
C1612 C1611 1.358 . S
C1612 H1615 0.930 . S
C1613 C1610 1.348 . S
C1613 C1611 1.356 . S
H1614 C1608 0.930 . S
H1615 C1612 0.930 . S
C1616 C1618 1.348 . S
C1616 C1619 1.356 . S
C1616 O1646 1.325 . S
N1617 C1620 1.314 . S
N1617 C1621 1.279 . S
C1618 C1616 1.348 . S
C1618 C1620 1.353 . S
C1618 H1660 0.929 . S
C1619 C1616 1.356 . S
C1619 C1621 1.358 . S
C1619 H1661 0.930 . S
C1620 N1617 1.314 . S
C1620 C1618 1.353 . S
C1620 H1662 0.930 . S
C1621 N1617 1.279 . S
C1621 C1619 1.358 . S
C1621 H1663 0.930 . S
C1622 C1623 1.348 . S
C1622 C1624 1.356 . S
C1622 O1647 1.325 . S
C1623 C1622 1.348 . S
C1623 C1625 1.353 . S
C1623 H1664 0.929 . S
C1624 C1622 1.356 . S
C1624 C1626 1.358 . S
C1624 H1665 0.930 . S
C1625 C1623 1.353 . S
C1625 N1627 1.314 . S
C1625 H1666 0.930 . S
C1626 C1624 1.358 . S
C1626 N1627 1.279 . S
C1626 H1667 0.930 . S
N1627 C1625 1.314 . S
N1627 C1626 1.279 . S
C1628 C1630 1.353 . S
C1628 N1631 1.314 . S
C1628 H1634 0.930 . S
C1629 N1631 1.279 . S
C1629 C1632 1.358 . S
C1629 H1635 0.930 . S
C1630 C1628 1.353 . S
C1630 C1633 1.348 . S
C1630 H1668 0.929 . S
N1631 Li1586 1.990 . S
N1631 C1628 1.314 . S
N1631 C1629 1.279 . S
C1632 C1629 1.358 . S
C1632 C1633 1.356 . S
C1632 H1669 0.930 . S
C1633 C1630 1.348 . S
C1633 C1632 1.356 . S
H1634 C1628 0.930 . S
H1635 C1629 0.930 . S
C1636 N1637 1.314 . S
C1636 C1638 1.353 . S
C1636 H1642 0.930 . S
N1637 Li1587 1.990 . S
N1637 C1636 1.314 . S
N1637 C1640 1.279 . S
C1638 C1636 1.353 . S
C1638 C1641 1.348 . S
C1638 H1670 0.929 . S
C1639 C1640 1.358 . S
C1639 C1641 1.356 . S
C1639 H1671 0.930 . S
C1640 N1637 1.279 . S
C1640 C1639 1.358 . S
C1640 H1643 0.930 . S
C1641 C1638 1.348 . S
C1641 C1639 1.356 . S
H1642 C1636 0.930 . S
H1643 C1640 0.930 . S
O1644 Li1584 1.956 . S
O1644 Li1585 1.970 . S
O1644 Li1586 1.961 . S
O1644 C1588 1.325 . S
O1645 Li1584 1.970 . S
O1645 Li1585 1.956 . S
O1645 Li1587 1.961 . S
O1645 C1594 1.325 . S
O1646 Li1584 1.961 . S
O1646 Li1586 1.956 . S
O1646 Li1587 1.970 . S
O1646 C1616 1.325 . S
O1647 Li1585 1.961 . S
O1647 Li1586 1.970 . S
O1647 Li1587 1.956 . S
O1647 C1622 1.325 . S
H1648 C1590 0.929 . S
H1649 C1591 0.930 . S
H1650 C1592 0.930 . S
H1651 C1593 0.930 . S
H1652 C1595 0.930 . S
H1653 C1597 0.929 . S
H1654 C1598 0.930 . S
H1655 C1599 0.930 . S
H1656 C1602 0.930 . S
H1657 C1605 0.929 . S
H1658 C1610 0.929 . S
H1659 C1611 0.930 . S
H1660 C1618 0.929 . S
H1661 C1619 0.930 . S
H1662 C1620 0.930 . S
H1663 C1621 0.930 . S
H1664 C1623 0.929 . S
H1665 C1624 0.930 . S
H1666 C1625 0.930 . S
H1667 C1626 0.930 . S
H1668 C1630 0.929 . S
H1669 C1632 0.930 . S
H1670 C1638 0.929 . S
H1671 C1639 0.930 . S
Li1672 N1689 1.990 . S
Li1672 O1732 1.956 . S
Li1672 O1733 1.970 . S
Li1672 O1734 1.961 1_545 S
Li1673 N1697 1.990 . S
Li1673 O1732 1.970 . S
Li1673 O1733 1.956 . S
Li1673 O1735 1.961 . S
Li1674 N1719 1.990 1_545 S
Li1674 O1732 1.961 . S
Li1674 O1734 1.956 1_545 S
Li1674 O1735 1.970 . S
Li1675 N1725 1.990 . S
Li1675 O1733 1.961 1_565 S
Li1675 O1734 1.970 . S
Li1675 O1735 1.956 1_565 S
C1676 C1678 1.348 . S
C1676 C1679 1.356 . S
C1676 O1732 1.325 . S
N1677 C1680 1.314 . S
N1677 C1681 1.279 . S
C1678 C1676 1.348 . S
C1678 C1680 1.353 . S
C1678 H1736 0.929 . S
C1679 C1676 1.356 . S
C1679 C1681 1.358 . S
C1679 H1737 0.930 . S
C1680 N1677 1.314 . S
C1680 C1678 1.353 . S
C1680 H1738 0.930 . S
C1681 N1677 1.279 . S
C1681 C1679 1.358 . S
C1681 H1739 0.930 . S
C1682 C1685 1.348 . S
C1682 C1686 1.356 . S
C1682 O1733 1.325 . S
C1683 N1684 1.279 . S
C1683 C1686 1.358 . S
C1683 H1740 0.930 . S
N1684 C1683 1.279 . S
N1684 C1687 1.314 . S
C1685 C1682 1.348 . S
C1685 C1687 1.353 . S
C1685 H1741 0.929 . S
C1686 C1682 1.356 . S
C1686 C1683 1.358 . S
C1686 H1742 0.930 . S
C1687 N1684 1.314 . S
C1687 C1685 1.353 . S
C1687 H1743 0.930 . S
C1688 N1689 1.314 1_565 S
C1688 C1693 1.353 . S
C1688 H1694 0.930 . S
N1689 Li1672 1.990 . S
N1689 C1688 1.314 1_545 S
N1689 C1691 1.279 . S
C1690 C1691 1.358 . S
C1690 C1692 1.356 . S
C1690 H1744 0.930 . S
C1691 N1689 1.279 . S
C1691 C1690 1.358 . S
C1691 H1695 0.930 . S
C1692 C1690 1.356 . S
C1692 C1693 1.348 1_545 S
C1693 C1688 1.353 . S
C1693 C1692 1.348 1_565 S
C1693 H1745 0.929 . S
H1694 C1688 0.930 . S
H1695 C1691 0.930 . S
C1696 N1697 1.314 . S
C1696 C1698 1.353 . S
C1696 H1702 0.930 . S
N1697 Li1673 1.990 . S
N1697 C1696 1.314 . S
N1697 C1700 1.279 . S
C1698 C1696 1.353 . S
C1698 C1701 1.348 . S
C1698 H1746 0.929 . S
C1699 C1700 1.358 . S
C1699 C1701 1.356 . S
C1699 H1747 0.930 . S
C1700 N1697 1.279 . S
C1700 C1699 1.358 . S
C1700 H1703 0.930 . S
C1701 C1698 1.348 . S
C1701 C1699 1.356 . S
H1702 C1696 0.930 . S
H1703 C1700 0.930 . S
C1704 C1706 1.348 . S
C1704 C1707 1.356 . S
C1704 O1734 1.325 . S
N1705 C1708 1.314 . S
N1705 C1709 1.279 . S
C1706 C1704 1.348 . S
C1706 C1708 1.353 . S
C1706 H1748 0.929 . S
C1707 C1704 1.356 . S
C1707 C1709 1.358 . S
C1707 H1749 0.930 . S
C1708 N1705 1.314 . S
C1708 C1706 1.353 . S
C1708 H1750 0.930 . S
C1709 N1705 1.279 . S
C1709 C1707 1.358 . S
C1709 H1751 0.930 . S
C1710 C1711 1.348 1_545 S
C1710 C1712 1.356 . S
C1710 O1735 1.325 . S
C1711 C1710 1.348 1_565 S
C1711 C1713 1.353 . S
C1711 H1752 0.929 . S
C1712 C1710 1.356 . S
C1712 C1714 1.358 . S
C1712 H1753 0.930 . S
C1713 C1711 1.353 . S
C1713 N1715 1.314 1_565 S
C1713 H1754 0.930 . S
C1714 C1712 1.358 . S
C1714 N1715 1.279 . S
C1714 H1755 0.930 . S
N1715 C1713 1.314 1_545 S
N1715 C1714 1.279 . S
C1716 C1718 1.353 . S
C1716 N1719 1.314 1_545 S
C1716 H1722 0.930 . S
C1717 N1719 1.279 . S
C1717 C1720 1.358 . S
C1717 H1723 0.930 . S
C1718 C1716 1.353 . S
C1718 C1721 1.348 1_545 S
C1718 H1756 0.929 . S
N1719 Li1674 1.990 1_565 S
N1719 C1716 1.314 1_565 S
N1719 C1717 1.279 . S
C1720 C1717 1.358 . S
C1720 C1721 1.356 . S
C1720 H1757 0.930 . S
C1721 C1718 1.348 1_565 S
C1721 C1720 1.356 . S
H1722 C1716 0.930 . S
H1723 C1717 0.930 . S
C1724 N1725 1.314 . S
C1724 C1726 1.353 . S
C1724 H1730 0.930 . S
N1725 Li1675 1.990 . S
N1725 C1724 1.314 . S
N1725 C1728 1.279 . S
C1726 C1724 1.353 . S
C1726 C1729 1.348 . S
C1726 H1758 0.929 . S
C1727 C1728 1.358 . S
C1727 C1729 1.356 . S
C1727 H1759 0.930 . S
C1728 N1725 1.279 . S
C1728 C1727 1.358 . S
C1728 H1731 0.930 . S
C1729 C1726 1.348 . S
C1729 C1727 1.356 . S
H1730 C1724 0.930 . S
H1731 C1728 0.930 . S
O1732 Li1672 1.956 . S
O1732 Li1673 1.970 . S
O1732 Li1674 1.961 . S
O1732 C1676 1.325 . S
O1733 Li1672 1.970 . S
O1733 Li1673 1.956 . S
O1733 Li1675 1.961 1_545 S
O1733 C1682 1.325 . S
O1734 Li1672 1.961 1_565 S
O1734 Li1674 1.956 1_565 S
O1734 Li1675 1.970 . S
O1734 C1704 1.325 . S
O1735 Li1673 1.961 . S
O1735 Li1674 1.970 . S
O1735 Li1675 1.956 1_545 S
O1735 C1710 1.325 . S
H1736 C1678 0.929 . S
H1737 C1679 0.930 . S
H1738 C1680 0.930 . S
H1739 C1681 0.930 . S
H1740 C1683 0.930 . S
H1741 C1685 0.929 . S
H1742 C1686 0.930 . S
H1743 C1687 0.930 . S
H1744 C1690 0.930 . S
H1745 C1693 0.929 . S
H1746 C1698 0.929 . S
H1747 C1699 0.930 . S
H1748 C1706 0.929 . S
H1749 C1707 0.930 . S
H1750 C1708 0.930 . S
H1751 C1709 0.930 . S
H1752 C1711 0.929 . S
H1753 C1712 0.930 . S
H1754 C1713 0.930 . S
H1755 C1714 0.930 . S
H1756 C1718 0.929 . S
H1757 C1720 0.930 . S
H1758 C1726 0.929 . S
H1759 C1727 0.930 . S
Li1760 N1777 1.990 . S
Li1760 O1820 1.956 . S
Li1760 O1821 1.970 . S
Li1760 O1822 1.961 . S
Li1761 N1785 1.990 . S
Li1761 O1820 1.970 . S
Li1761 O1821 1.956 . S
Li1761 O1823 1.961 . S
Li1762 N1807 1.990 1_554 S
Li1762 O1820 1.961 . S
Li1762 O1822 1.956 . S
Li1762 O1823 1.970 . S
Li1763 N1813 1.990 . S
Li1763 O1821 1.961 . S
Li1763 O1822 1.970 . S
Li1763 O1823 1.956 . S
C1764 C1766 1.348 . S
C1764 C1767 1.356 . S
C1764 O1820 1.325 . S
N1765 C1768 1.314 . S
N1765 C1769 1.279 . S
C1766 C1764 1.348 . S
C1766 C1768 1.353 . S
C1766 H1824 0.929 . S
C1767 C1764 1.356 . S
C1767 C1769 1.358 . S
C1767 H1825 0.930 . S
C1768 N1765 1.314 . S
C1768 C1766 1.353 . S
C1768 H1826 0.930 . S
C1769 N1765 1.279 . S
C1769 C1767 1.358 . S
C1769 H1827 0.930 . S
C1770 C1773 1.348 . S
C1770 C1774 1.356 . S
C1770 O1821 1.325 . S
C1771 N1772 1.279 . S
C1771 C1774 1.358 . S
C1771 H1828 0.930 . S
N1772 C1771 1.279 . S
N1772 C1775 1.314 . S
C1773 C1770 1.348 . S
C1773 C1775 1.353 . S
C1773 H1829 0.929 . S
C1774 C1770 1.356 . S
C1774 C1771 1.358 . S
C1774 H1830 0.930 . S
C1775 N1772 1.314 . S
C1775 C1773 1.353 . S
C1775 H1831 0.930 . S
C1776 N1777 1.314 . S
C1776 C1781 1.353 . S
C1776 H1782 0.930 . S
N1777 Li1760 1.990 . S
N1777 C1776 1.314 . S
N1777 C1779 1.279 . S
C1778 C1779 1.358 . S
C1778 C1780 1.356 . S
C1778 H1832 0.930 . S
C1779 N1777 1.279 . S
C1779 C1778 1.358 . S
C1779 H1783 0.930 . S
C1780 C1778 1.356 . S
C1780 C1781 1.348 . S
C1781 C1776 1.353 . S
C1781 C1780 1.348 . S
C1781 H1833 0.929 . S
H1782 C1776 0.930 . S
H1783 C1779 0.930 . S
C1784 N1785 1.314 . S
C1784 C1786 1.353 . S
C1784 H1790 0.930 . S
N1785 Li1761 1.990 . S
N1785 C1784 1.314 . S
N1785 C1788 1.279 . S
C1786 C1784 1.353 . S
C1786 C1789 1.348 . S
C1786 H1834 0.929 1_554 S
C1787 C1788 1.358 . S
C1787 C1789 1.356 . S
C1787 H1835 0.930 . S
C1788 N1785 1.279 . S
C1788 C1787 1.358 . S
C1788 H1791 0.930 . S
C1789 C1786 1.348 . S
C1789 C1787 1.356 . S
H1790 C1784 0.930 . S
H1791 C1788 0.930 . S
C1792 C1794 1.348 . S
C1792 C1795 1.356 . S
C1792 O1822 1.325 . S
N1793 C1796 1.314 . S
N1793 C1797 1.279 . S
C1794 C1792 1.348 . S
C1794 C1796 1.353 . S
C1794 H1836 0.929 . S
C1795 C1792 1.356 . S
C1795 C1797 1.358 . S
C1795 H1837 0.930 . S
C1796 N1793 1.314 . S
C1796 C1794 1.353 . S
C1796 H1838 0.930 . S
C1797 N1793 1.279 . S
C1797 C1795 1.358 . S
C1797 H1839 0.930 . S
C1798 C1799 1.348 . S
C1798 C1800 1.356 . S
C1798 O1823 1.325 1_556 S
C1799 C1798 1.348 . S
C1799 C1801 1.353 . S
C1799 H1840 0.929 . S
C1800 C1798 1.356 . S
C1800 C1802 1.358 . S
C1800 H1841 0.930 . S
C1801 C1799 1.353 . S
C1801 N1803 1.314 . S
C1801 H1842 0.930 . S
C1802 C1800 1.358 . S
C1802 N1803 1.279 . S
C1802 H1843 0.930 . S
N1803 C1801 1.314 . S
N1803 C1802 1.279 . S
C1804 C1806 1.353 . S
C1804 N1807 1.314 . S
C1804 H1810 0.930 . S
C1805 N1807 1.279 . S
C1805 C1808 1.358 . S
C1805 H1811 0.930 . S
C1806 C1804 1.353 . S
C1806 C1809 1.348 . S
C1806 H1844 0.929 . S
N1807 Li1762 1.990 1_556 S
N1807 C1804 1.314 . S
N1807 C1805 1.279 . S
C1808 C1805 1.358 . S
C1808 C1809 1.356 . S
C1808 H1845 0.930 . S
C1809 C1806 1.348 . S
C1809 C1808 1.356 . S
H1810 C1804 0.930 . S
H1811 C1805 0.930 . S
C1812 N1813 1.314 . S
C1812 C1814 1.353 . S
C1812 H1818 0.930 . S
N1813 Li1763 1.990 . S
N1813 C1812 1.314 . S
N1813 C1816 1.279 . S
C1814 C1812 1.353 . S
C1814 C1817 1.348 . S
C1814 H1846 0.929 . S
C1815 C1816 1.358 1_556 S
C1815 C1817 1.356 1_556 S
C1815 H1847 0.930 . S
C1816 N1813 1.279 . S
C1816 C1815 1.358 1_554 S
C1816 H1819 0.930 1_554 S
C1817 C1814 1.348 . S
C1817 C1815 1.356 1_554 S
H1818 C1812 0.930 . S
H1819 C1816 0.930 1_556 S
O1820 Li1760 1.956 . S
O1820 Li1761 1.970 . S
O1820 Li1762 1.961 . S
O1820 C1764 1.325 . S
O1821 Li1760 1.970 . S
O1821 Li1761 1.956 . S
O1821 Li1763 1.961 . S
O1821 C1770 1.325 . S
O1822 Li1760 1.961 . S
O1822 Li1762 1.956 . S
O1822 Li1763 1.970 . S
O1822 C1792 1.325 . S
O1823 Li1761 1.961 . S
O1823 Li1762 1.970 . S
O1823 Li1763 1.956 . S
O1823 C1798 1.325 1_554 S
H1824 C1766 0.929 . S
H1825 C1767 0.930 . S
H1826 C1768 0.930 . S
H1827 C1769 0.930 . S
H1828 C1771 0.930 . S
H1829 C1773 0.929 . S
H1830 C1774 0.930 . S
H1831 C1775 0.930 . S
H1832 C1778 0.930 . S
H1833 C1781 0.929 . S
H1834 C1786 0.929 1_556 S
H1835 C1787 0.930 . S
H1836 C1794 0.929 . S
H1837 C1795 0.930 . S
H1838 C1796 0.930 . S
H1839 C1797 0.930 . S
H1840 C1799 0.929 . S
H1841 C1800 0.930 . S
H1842 C1801 0.930 . S
H1843 C1802 0.930 . S
H1844 C1806 0.929 . S
H1845 C1808 0.930 . S
H1846 C1814 0.929 . S
H1847 C1815 0.930 . S
Li1848 N1865 1.990 . S
Li1848 O1908 1.956 . S
Li1848 O1909 1.970 . S
Li1848 O1910 1.961 . S
Li1849 N1873 1.990 . S
Li1849 O1908 1.970 . S
Li1849 O1909 1.956 . S
Li1849 O1911 1.961 . S
Li1850 N1895 1.990 . S
Li1850 O1908 1.961 . S
Li1850 O1910 1.956 . S
Li1850 O1911 1.970 . S
Li1851 N1901 1.990 . S
Li1851 O1909 1.961 . S
Li1851 O1910 1.970 . S
Li1851 O1911 1.956 . S
C1852 C1854 1.348 . S
C1852 C1855 1.356 . S
C1852 O1908 1.325 . S
N1853 C1856 1.314 . S
N1853 C1857 1.279 . S
C1854 C1852 1.348 . S
C1854 C1856 1.353 . S
C1854 H1912 0.929 . S
C1855 C1852 1.356 . S
C1855 C1857 1.358 . S
C1855 H1913 0.930 . S
C1856 N1853 1.314 . S
C1856 C1854 1.353 . S
C1856 H1914 0.930 . S
C1857 N1853 1.279 . S
C1857 C1855 1.358 . S
C1857 H1915 0.930 . S
C1858 C1861 1.348 . S
C1858 C1862 1.356 . S
C1858 O1909 1.325 . S
C1859 N1860 1.279 . S
C1859 C1862 1.358 . S
C1859 H1916 0.930 1_655 S
N1860 C1859 1.279 . S
N1860 C1863 1.314 . S
C1861 C1858 1.348 . S
C1861 C1863 1.353 . S
C1861 H1917 0.929 . S
C1862 C1858 1.356 . S
C1862 C1859 1.358 . S
C1862 H1918 0.930 . S
C1863 N1860 1.314 . S
C1863 C1861 1.353 . S
C1863 H1919 0.930 . S
C1864 N1865 1.314 . S
C1864 C1869 1.353 . S
C1864 H1870 0.930 . S
N1865 Li1848 1.990 . S
N1865 C1864 1.314 . S
N1865 C1867 1.279 . S
C1866 C1867 1.358 . S
C1866 C1868 1.356 . S
C1866 H1920 0.930 . S
C1867 N1865 1.279 . S
C1867 C1866 1.358 . S
C1867 H1871 0.930 . S
C1868 C1866 1.356 . S
C1868 C1869 1.348 . S
C1869 C1864 1.353 . S
C1869 C1868 1.348 . S
C1869 H1921 0.929 . S
H1870 C1864 0.930 . S
H1871 C1867 0.930 . S
C1872 N1873 1.314 . S
C1872 C1874 1.353 . S
C1872 H1878 0.930 . S
N1873 Li1849 1.990 . S
N1873 C1872 1.314 . S
N1873 C1876 1.279 . S
C1874 C1872 1.353 . S
C1874 C1877 1.348 1_655 S
C1874 H1922 0.929 . S
C1875 C1876 1.358 . S
C1875 C1877 1.356 1_655 S
C1875 H1923 0.930 1_655 S
C1876 N1873 1.279 . S
C1876 C1875 1.358 . S
C1876 H1879 0.930 . S
C1877 C1874 1.348 1_455 S
C1877 C1875 1.356 1_455 S
H1878 C1872 0.930 . S
H1879 C1876 0.930 . S
C1880 C1882 1.348 . S
C1880 C1883 1.356 . S
C1880 O1910 1.325 . S
N1881 C1884 1.314 . S
N1881 C1885 1.279 . S
C1882 C1880 1.348 . S
C1882 C1884 1.353 . S
C1882 H1924 0.929 . S
C1883 C1880 1.356 . S
C1883 C1885 1.358 . S
C1883 H1925 0.930 . S
C1884 N1881 1.314 . S
C1884 C1882 1.353 . S
C1884 H1926 0.930 . S
C1885 N1881 1.279 . S
C1885 C1883 1.358 . S
C1885 H1927 0.930 . S
C1886 C1887 1.348 . S
C1886 C1888 1.356 . S
C1886 O1911 1.325 . S
C1887 C1886 1.348 . S
C1887 C1889 1.353 . S
C1887 H1928 0.929 . S
C1888 C1886 1.356 . S
C1888 C1890 1.358 1_655 S
C1888 H1929 0.930 . S
C1889 C1887 1.353 . S
C1889 N1891 1.347 . S
C1889 H1930 0.930 . S
C1890 C1888 1.358 1_455 S
C1890 N1891 1.267 1_455 S
C1890 H1931 0.930 . S
N1891 C1889 1.347 . S
N1891 C1890 1.267 1_655 S
C1892 C1894 1.353 . S
C1892 N1895 1.314 . S
C1892 H1898 0.930 . S
C1893 N1895 1.279 . S
C1893 C1896 1.358 . S
C1893 H1899 0.930 . S
C1894 C1892 1.353 . S
C1894 C1897 1.348 . S
C1894 H1932 0.929 . S
N1895 Li1850 1.990 . S
N1895 C1892 1.314 . S
N1895 C1893 1.279 . S
C1896 C1893 1.358 . S
C1896 C1897 1.356 . S
C1896 H1933 0.930 . S
C1897 C1894 1.348 . S
C1897 C1896 1.356 . S
H1898 C1892 0.930 . S
H1899 C1893 0.930 . S
C1900 N1901 1.314 . S
C1900 C1902 1.353 . S
C1900 H1906 0.930 . S
N1901 Li1851 1.990 . S
N1901 C1900 1.314 . S
N1901 C1904 1.279 . S
C1902 C1900 1.353 . S
C1902 C1905 1.348 . S
C1902 H1934 0.929 . S
C1903 C1904 1.358 . S
C1903 C1905 1.356 . S
C1903 H1935 0.930 . S
C1904 N1901 1.279 . S
C1904 C1903 1.358 . S
C1904 H1907 0.930 . S
C1905 C1902 1.348 . S
C1905 C1903 1.356 . S
H1906 C1900 0.930 . S
H1907 C1904 0.930 . S
O1908 Li1848 1.956 . S
O1908 Li1849 1.970 . S
O1908 Li1850 1.961 . S
O1908 C1852 1.325 . S
O1909 Li1848 1.970 . S
O1909 Li1849 1.956 . S
O1909 Li1851 1.961 . S
O1909 C1858 1.325 . S
O1910 Li1848 1.961 . S
O1910 Li1850 1.956 . S
O1910 Li1851 1.970 . S
O1910 C1880 1.325 . S
O1911 Li1849 1.961 . S
O1911 Li1850 1.970 . S
O1911 Li1851 1.956 . S
O1911 C1886 1.325 . S
H1912 C1854 0.929 . S
H1913 C1855 0.930 . S
H1914 C1856 0.930 . S
H1915 C1857 0.930 . S
H1916 C1859 0.930 1_455 S
H1917 C1861 0.929 . S
H1918 C1862 0.930 . S
H1919 C1863 0.930 . S
H1920 C1866 0.930 . S
H1921 C1869 0.929 . S
H1922 C1874 0.929 . S
H1923 C1875 0.930 1_455 S
H1924 C1882 0.929 . S
H1925 C1883 0.930 . S
H1926 C1884 0.930 . S
H1927 C1885 0.930 . S
H1928 C1887 0.929 . S
H1929 C1888 0.930 . S
H1930 C1889 0.930 . S
H1931 C1890 0.930 . S
H1932 C1894 0.929 . S
H1933 C1896 0.930 . S
H1934 C1902 0.929 . S
H1935 C1903 0.930 . S
Li1936 N1953 1.990 . S
Li1936 O1996 1.956 . S
Li1936 O1997 1.970 . S
Li1936 O1998 1.961 . S
Li1937 N1961 1.990 . S
Li1937 O1996 1.970 . S
Li1937 O1997 1.956 . S
Li1937 O1999 1.961 . S
Li1938 N1983 1.990 . S
Li1938 O1996 1.961 . S
Li1938 O1998 1.956 . S
Li1938 O1999 1.970 . S
Li1939 N1989 1.990 . S
Li1939 O1997 1.961 . S
Li1939 O1998 1.970 . S
Li1939 O1999 1.956 . S
C1940 C1942 1.348 . S
C1940 C1943 1.356 . S
C1940 O1996 1.325 . S
N1941 C1944 1.314 . S
N1941 C1945 1.279 . S
C1942 C1940 1.348 . S
C1942 C1944 1.353 . S
C1942 H2000 0.929 . S
C1943 C1940 1.356 . S
C1943 C1945 1.358 . S
C1943 H2001 0.930 . S
C1944 N1941 1.314 . S
C1944 C1942 1.353 . S
C1944 H2002 0.930 . S
C1945 N1941 1.279 . S
C1945 C1943 1.358 . S
C1945 H2003 0.930 . S
C1946 C1949 1.348 . S
C1946 C1950 1.356 . S
C1946 O1997 1.325 . S
C1947 N1948 1.279 . S
C1947 C1950 1.358 . S
C1947 H2004 0.930 . S
N1948 C1947 1.279 . S
N1948 C1951 1.314 . S
C1949 C1946 1.348 . S
C1949 C1951 1.353 . S
C1949 H2005 0.929 . S
C1950 C1946 1.356 . S
C1950 C1947 1.358 . S
C1950 H2006 0.930 . S
C1951 N1948 1.314 . S
C1951 C1949 1.353 . S
C1951 H2007 0.930 . S
C1952 N1953 1.314 . S
C1952 C1957 1.353 . S
C1952 H1958 0.930 . S
N1953 Li1936 1.990 . S
N1953 C1952 1.314 . S
N1953 C1955 1.279 . S
C1954 C1955 1.358 . S
C1954 C1956 1.356 . S
C1954 H2008 0.930 . S
C1955 N1953 1.279 . S
C1955 C1954 1.358 . S
C1955 H1959 0.930 . S
C1956 C1954 1.356 . S
C1956 C1957 1.348 . S
C1957 C1952 1.353 . S
C1957 C1956 1.348 . S
C1957 H2009 0.929 . S
H1958 C1952 0.930 . S
H1959 C1955 0.930 . S
C1960 N1961 1.314 . S
C1960 C1962 1.353 . S
C1960 H1966 0.930 . S
N1961 Li1937 1.990 . S
N1961 C1960 1.314 . S
N1961 C1964 1.279 . S
C1962 C1960 1.353 . S
C1962 C1965 1.348 . S
C1962 H2010 0.929 . S
C1963 C1964 1.358 . S
C1963 C1965 1.356 . S
C1963 H2011 0.930 . S
C1964 N1961 1.279 . S
C1964 C1963 1.358 . S
C1964 H1967 0.930 . S
C1965 C1962 1.348 . S
C1965 C1963 1.356 . S
H1966 C1960 0.930 . S
H1967 C1964 0.930 . S
C1968 C1970 1.348 . S
C1968 C1971 1.356 . S
C1968 O1998 1.325 . S
N1969 C1972 1.314 . S
N1969 C1973 1.279 . S
C1970 C1968 1.348 . S
C1970 C1972 1.353 . S
C1970 H2012 0.929 . S
C1971 C1968 1.356 . S
C1971 C1973 1.358 . S
C1971 H2013 0.930 . S
C1972 N1969 1.314 . S
C1972 C1970 1.353 . S
C1972 H2014 0.930 . S
C1973 N1969 1.279 . S
C1973 C1971 1.358 . S
C1973 H2015 0.930 . S
C1974 C1975 1.348 . S
C1974 C1976 1.356 . S
C1974 O1999 1.325 . S
C1975 C1974 1.348 . S
C1975 C1977 1.353 . S
C1975 H2016 0.929 . S
C1976 C1974 1.356 . S
C1976 C1978 1.358 . S
C1976 H2017 0.930 . S
C1977 C1975 1.353 . S
C1977 N1979 1.314 . S
C1977 H2018 0.930 . S
C1978 C1976 1.358 . S
C1978 N1979 1.279 . S
C1978 H2019 0.930 . S
N1979 C1977 1.314 . S
N1979 C1978 1.279 . S
C1980 C1982 1.353 . S
C1980 N1983 1.314 . S
C1980 H1986 0.930 . S
C1981 N1983 1.279 . S
C1981 C1984 1.358 . S
C1981 H1987 0.930 . S
C1982 C1980 1.353 . S
C1982 C1985 1.348 . S
C1982 H2020 0.929 . S
N1983 Li1938 1.990 . S
N1983 C1980 1.314 . S
N1983 C1981 1.279 . S
C1984 C1981 1.358 . S
C1984 C1985 1.356 . S
C1984 H2021 0.930 . S
C1985 C1982 1.348 . S
C1985 C1984 1.356 . S
H1986 C1980 0.930 . S
H1987 C1981 0.930 . S
C1988 N1989 1.314 . S
C1988 C1990 1.353 . S
C1988 H1994 0.930 . S
N1989 Li1939 1.990 . S
N1989 C1988 1.314 . S
N1989 C1992 1.279 . S
C1990 C1988 1.353 . S
C1990 C1993 1.348 . S
C1990 H2022 0.929 . S
C1991 C1992 1.358 . S
C1991 C1993 1.356 . S
C1991 H2023 0.930 . S
C1992 N1989 1.279 . S
C1992 C1991 1.358 . S
C1992 H1995 0.930 . S
C1993 C1990 1.348 . S
C1993 C1991 1.356 . S
H1994 C1988 0.930 . S
H1995 C1992 0.930 . S
O1996 Li1936 1.956 . S
O1996 Li1937 1.970 . S
O1996 Li1938 1.961 . S
O1996 C1940 1.325 . S
O1997 Li1936 1.970 . S
O1997 Li1937 1.956 . S
O1997 Li1939 1.961 . S
O1997 C1946 1.325 . S
O1998 Li1936 1.961 . S
O1998 Li1938 1.956 . S
O1998 Li1939 1.970 . S
O1998 C1968 1.325 . S
O1999 Li1937 1.961 . S
O1999 Li1938 1.970 . S
O1999 Li1939 1.956 . S
O1999 C1974 1.325 . S
H2000 C1942 0.929 . S
H2001 C1943 0.930 . S
H2002 C1944 0.930 . S
H2003 C1945 0.930 . S
H2004 C1947 0.930 . S
H2005 C1949 0.929 . S
H2006 C1950 0.930 . S
H2007 C1951 0.930 . S
H2008 C1954 0.930 . S
H2009 C1957 0.929 . S
H2010 C1962 0.929 . S
H2011 C1963 0.930 . S
H2012 C1970 0.929 . S
H2013 C1971 0.930 . S
H2014 C1972 0.930 . S
H2015 C1973 0.930 . S
H2016 C1975 0.929 . S
H2017 C1976 0.930 . S
H2018 C1977 0.930 . S
H2019 C1978 0.930 . S
H2020 C1982 0.929 . S
H2021 C1984 0.930 . S
H2022 C1990 0.929 . S
H2023 C1991 0.930 . S
Li2024 N2041 1.990 . S
Li2024 O2084 1.956 . S
Li2024 O2085 1.970 . S
Li2024 O2086 1.961 . S
Li2025 N2049 1.990 . S
Li2025 O2084 1.970 . S
Li2025 O2085 1.956 . S
Li2025 O2087 1.961 . S
Li2026 N2071 1.990 . S
Li2026 O2084 1.961 . S
Li2026 O2086 1.956 . S
Li2026 O2087 1.970 . S
Li2027 N2077 1.990 . S
Li2027 O2085 1.961 . S
Li2027 O2086 1.970 . S
Li2027 O2087 1.956 . S
C2028 C2030 1.348 . S
C2028 C2031 1.356 . S
C2028 O2084 1.325 . S
N2029 C2032 1.314 . S
N2029 C2033 1.279 . S
C2030 C2028 1.348 . S
C2030 C2032 1.353 . S
C2030 H2088 0.929 . S
C2031 C2028 1.356 . S
C2031 C2033 1.358 . S
C2031 H2089 0.930 . S
C2032 N2029 1.314 . S
C2032 C2030 1.353 . S
C2032 H2090 0.930 . S
C2033 N2029 1.279 . S
C2033 C2031 1.358 . S
C2033 H2091 0.930 . S
C2034 C2037 1.348 . S
C2034 C2038 1.356 . S
C2034 O2085 1.325 . S
C2035 N2036 1.279 . S
C2035 C2038 1.358 . S
C2035 H2092 0.930 . S
N2036 C2035 1.279 . S
N2036 C2039 1.314 . S
C2037 C2034 1.348 . S
C2037 C2039 1.353 . S
C2037 H2093 0.929 . S
C2038 C2034 1.356 . S
C2038 C2035 1.358 . S
C2038 H2094 0.930 . S
C2039 N2036 1.314 . S
C2039 C2037 1.353 . S
C2039 H2095 0.930 . S
C2040 N2041 1.314 . S
C2040 C2045 1.353 . S
C2040 H2046 0.930 . S
N2041 Li2024 1.990 . S
N2041 C2040 1.314 . S
N2041 C2043 1.279 . S
C2042 C2043 1.358 . S
C2042 C2044 1.356 . S
C2042 H2096 0.930 . S
C2043 N2041 1.279 . S
C2043 C2042 1.358 . S
C2043 H2047 0.930 . S
C2044 C2042 1.356 . S
C2044 C2045 1.348 . S
C2045 C2040 1.353 . S
C2045 C2044 1.348 . S
C2045 H2097 0.929 . S
H2046 C2040 0.930 . S
H2047 C2043 0.930 . S
C2048 N2049 1.314 . S
C2048 C2050 1.353 . S
C2048 H2054 0.930 . S
N2049 Li2025 1.990 . S
N2049 C2048 1.314 . S
N2049 C2052 1.279 . S
C2050 C2048 1.353 . S
C2050 C2053 1.348 . S
C2050 H2098 0.929 . S
C2051 C2052 1.358 . S
C2051 C2053 1.356 . S
C2051 H2099 0.930 . S
C2052 N2049 1.279 . S
C2052 C2051 1.358 . S
C2052 H2055 0.930 . S
C2053 C2050 1.348 . S
C2053 C2051 1.356 . S
H2054 C2048 0.930 . S
H2055 C2052 0.930 . S
C2056 C2058 1.348 . S
C2056 C2059 1.356 . S
C2056 O2086 1.325 . S
N2057 C2060 1.314 . S
N2057 C2061 1.279 . S
C2058 C2056 1.348 . S
C2058 C2060 1.353 . S
C2058 H2100 0.929 . S
C2059 C2056 1.356 . S
C2059 C2061 1.358 . S
C2059 H2101 0.930 . S
C2060 N2057 1.314 . S
C2060 C2058 1.353 . S
C2060 H2102 0.930 . S
C2061 N2057 1.279 . S
C2061 C2059 1.358 . S
C2061 H2103 0.930 . S
C2062 C2063 1.348 . S
C2062 C2064 1.356 . S
C2062 O2087 1.325 . S
C2063 C2062 1.348 . S
C2063 C2065 1.353 . S
C2063 H2104 0.929 . S
C2064 C2062 1.356 . S
C2064 C2066 1.358 . S
C2064 H2105 0.930 . S
C2065 C2063 1.353 . S
C2065 N2067 1.314 . S
C2065 H2106 0.930 . S
C2066 C2064 1.358 . S
C2066 N2067 1.279 . S
C2066 H2107 0.930 . S
N2067 C2065 1.314 . S
N2067 C2066 1.279 . S
C2068 C2070 1.353 . S
C2068 N2071 1.314 . S
C2068 H2074 0.930 . S
C2069 N2071 1.279 . S
C2069 C2072 1.358 . S
C2069 H2075 0.930 . S
C2070 C2068 1.353 . S
C2070 C2073 1.348 . S
C2070 H2108 0.929 . S
N2071 Li2026 1.990 . S
N2071 C2068 1.314 . S
N2071 C2069 1.279 . S
C2072 C2069 1.358 . S
C2072 C2073 1.356 . S
C2072 H2109 0.930 . S
C2073 C2070 1.348 . S
C2073 C2072 1.356 . S
H2074 C2068 0.930 . S
H2075 C2069 0.930 . S
C2076 N2077 1.314 . S
C2076 C2078 1.353 . S
C2076 H2082 0.930 . S
N2077 Li2027 1.990 . S
N2077 C2076 1.314 . S
N2077 C2080 1.279 . S
C2078 C2076 1.353 . S
C2078 C2081 1.348 . S
C2078 H2110 0.929 . S
C2079 C2080 1.358 . S
C2079 C2081 1.356 . S
C2079 H2111 0.930 . S
C2080 N2077 1.279 . S
C2080 C2079 1.358 . S
C2080 H2083 0.930 . S
C2081 C2078 1.348 . S
C2081 C2079 1.356 . S
H2082 C2076 0.930 . S
H2083 C2080 0.930 . S
O2084 Li2024 1.956 . S
O2084 Li2025 1.970 . S
O2084 Li2026 1.961 . S
O2084 C2028 1.325 . S
O2085 Li2024 1.970 . S
O2085 Li2025 1.956 . S
O2085 Li2027 1.961 . S
O2085 C2034 1.325 . S
O2086 Li2024 1.961 . S
O2086 Li2026 1.956 . S
O2086 Li2027 1.970 . S
O2086 C2056 1.325 . S
O2087 Li2025 1.961 . S
O2087 Li2026 1.970 . S
O2087 Li2027 1.956 . S
O2087 C2062 1.325 . S
H2088 C2030 0.929 . S
H2089 C2031 0.930 . S
H2090 C2032 0.930 . S
H2091 C2033 0.930 . S
H2092 C2035 0.930 . S
H2093 C2037 0.929 . S
H2094 C2038 0.930 . S
H2095 C2039 0.930 . S
H2096 C2042 0.930 . S
H2097 C2045 0.929 . S
H2098 C2050 0.929 . S
H2099 C2051 0.930 . S
H2100 C2058 0.929 . S
H2101 C2059 0.930 . S
H2102 C2060 0.930 . S
H2103 C2061 0.930 . S
H2104 C2063 0.929 . S
H2105 C2064 0.930 . S
H2106 C2065 0.930 . S
H2107 C2066 0.930 . S
H2108 C2070 0.929 . S
H2109 C2072 0.930 . S
H2110 C2078 0.929 . S
H2111 C2079 0.930 . S
C2112 Eu2113 2.835 1_565 S
C2112 C2114 1.500 . S
C2112 O2132 1.257 . S
C2112 O2133 1.260 1_565 S
Eu2113 C2112 2.835 1_545 S
Eu2113 O2132 2.473 1_545 S
Eu2113 O2133 2.480 . S
Eu2113 O2134 2.430 . S
Eu2113 O2135 2.670 . S
Eu2113 O2136 2.394 1_545 S
Eu2113 O2141 2.355 . S
Eu2113 O2143 2.374 . S
C2114 C2112 1.500 . S
C2114 C2115 1.377 . S
C2114 C2119 1.377 . S
C2115 C2114 1.377 . S
C2115 C2116 1.395 . S
C2115 H2144 0.931 . S
C2116 C2115 1.395 . S
C2116 C2117 1.383 . S
C2116 H2145 0.931 . S
C2117 C2116 1.383 . S
C2117 C2118 1.394 . S
C2118 C2117 1.394 . S
C2118 C2119 1.378 . S
C2118 H2146 0.931 . S
C2119 C2114 1.377 . S
C2119 C2118 1.378 . S
C2119 H2147 0.931 . S
C2120 O2134 1.259 . S
C2120 O2135 1.270 . S
C2121 O2136 1.251 . S
C2121 O2137 1.251 . S
C2122 Eu2123 2.836 1_655 S
C2122 C2124 1.500 . S
C2122 O2138 1.257 . S
C2122 O2139 1.260 . S
Eu2123 C2122 2.836 1_455 S
Eu2123 O2135 2.355 . S
Eu2123 O2137 2.373 1_545 S
Eu2123 O2138 2.474 1_455 S
Eu2123 O2139 2.481 1_455 S
Eu2123 O2140 2.429 1_544 S
Eu2123 O2141 2.669 . S
Eu2123 O2142 2.394 . S
C2124 C2122 1.500 . S
C2124 C2125 1.377 . S
C2124 C2129 1.377 . S
C2125 C2124 1.377 . S
C2125 C2126 1.395 1_554 S
C2125 H2148 0.931 1_554 S
C2126 C2125 1.395 1_556 S
C2126 C2127 1.381 1_556 S
C2126 H2149 0.934 . S
C2127 C2126 1.381 1_554 S
C2127 C2128 1.394 . S
C2128 C2127 1.394 . S
C2128 C2129 1.378 . S
C2128 H2150 0.931 . S
C2129 C2124 1.377 . S
C2129 C2128 1.378 . S
C2129 H2151 0.931 . S
C2130 O2140 1.261 1_544 S
C2130 O2141 1.270 . S
C2131 O2142 1.251 . S
C2131 O2143 1.251 . S
O2132 C2112 1.257 . S
O2132 Eu2113 2.473 1_565 S
O2133 C2112 1.260 1_545 S
O2133 Eu2113 2.480 . S
O2134 Eu2113 2.430 . S
O2134 C2120 1.259 . S
O2135 Eu2113 2.670 . S
O2135 C2120 1.270 . S
O2135 Eu2123 2.355 . S
O2136 Eu2113 2.394 1_565 S
O2136 C2121 1.251 . S
O2137 C2121 1.251 . S
O2137 Eu2123 2.373 1_565 S
O2138 C2122 1.257 . S
O2138 Eu2123 2.474 1_655 S
O2139 C2122 1.260 . S
O2139 Eu2123 2.481 1_655 S
O2140 Eu2123 2.429 1_566 S
O2140 C2130 1.261 1_566 S
O2141 Eu2113 2.355 . S
O2141 Eu2123 2.669 . S
O2141 C2130 1.270 . S
O2142 Eu2123 2.394 . S
O2142 C2131 1.251 . S
O2143 Eu2113 2.374 . S
O2143 C2131 1.251 . S
H2144 C2115 0.931 . S
H2145 C2116 0.931 . S
H2146 C2118 0.931 . S
H2147 C2119 0.931 . S
H2148 C2125 0.931 1_556 S
H2149 C2126 0.934 . S
H2150 C2128 0.931 . S
H2151 C2129 0.931 . S
C2152 Eu2153 2.835 . S
C2152 C2154 1.500 . S
C2152 O2172 1.257 . S
C2152 O2173 1.260 . S
Eu2153 C2152 2.835 . S
Eu2153 O2172 2.473 . S
Eu2153 O2173 2.480 . S
Eu2153 O2174 2.430 . S
Eu2153 O2175 2.670 . S
Eu2153 O2176 2.394 . S
Eu2153 O2181 2.355 . S
Eu2153 O2183 2.374 . S
C2154 C2152 1.500 . S
C2154 C2155 1.377 . S
C2154 C2159 1.377 . S
C2155 C2154 1.377 . S
C2155 C2156 1.395 . S
C2155 H2184 0.931 . S
C2156 C2155 1.395 . S
C2156 C2157 1.383 . S
C2156 H2185 0.931 . S
C2157 C2156 1.383 . S
C2157 C2158 1.394 . S
C2158 C2157 1.394 . S
C2158 C2159 1.378 . S
C2158 H2186 0.931 . S
C2159 C2154 1.377 . S
C2159 C2158 1.378 . S
C2159 H2187 0.931 . S
C2160 O2174 1.259 . S
C2160 O2175 1.270 . S
C2161 O2176 1.251 . S
C2161 O2177 1.251 . S
C2162 Eu2163 2.835 . S
C2162 C2164 1.500 . S
C2162 O2178 1.257 . S
C2162 O2179 1.260 . S
Eu2163 C2162 2.835 . S
Eu2163 O2175 2.355 . S
Eu2163 O2177 2.374 . S
Eu2163 O2178 2.473 . S
Eu2163 O2179 2.480 . S
Eu2163 O2180 2.430 . S
Eu2163 O2181 2.670 . S
Eu2163 O2182 2.394 . S
C2164 C2162 1.500 . S
C2164 C2165 1.377 . S
C2164 C2169 1.377 . S
C2165 C2164 1.377 . S
C2165 C2166 1.395 . S
C2165 H2188 0.931 . S
C2166 C2165 1.395 . S
C2166 C2167 1.383 . S
C2166 H2189 0.931 . S
C2167 C2166 1.383 . S
C2167 C2168 1.394 . S
C2168 C2167 1.394 . S
C2168 C2169 1.378 . S
C2168 H2190 0.931 . S
C2169 C2164 1.377 . S
C2169 C2168 1.378 . S
C2169 H2191 0.931 . S
C2170 O2180 1.259 . S
C2170 O2181 1.270 . S
C2171 O2182 1.251 . S
C2171 O2183 1.251 . S
O2172 C2152 1.257 . S
O2172 Eu2153 2.473 . S
O2173 C2152 1.260 . S
O2173 Eu2153 2.480 . S
O2174 Eu2153 2.430 . S
O2174 C2160 1.259 . S
O2175 Eu2153 2.670 . S
O2175 C2160 1.270 . S
O2175 Eu2163 2.355 . S
O2176 Eu2153 2.394 . S
O2176 C2161 1.251 . S
O2177 C2161 1.251 . S
O2177 Eu2163 2.374 . S
O2178 C2162 1.257 . S
O2178 Eu2163 2.473 . S
O2179 C2162 1.260 . S
O2179 Eu2163 2.480 . S
O2180 Eu2163 2.430 . S
O2180 C2170 1.259 . S
O2181 Eu2153 2.355 . S
O2181 Eu2163 2.670 . S
O2181 C2170 1.270 . S
O2182 Eu2163 2.394 . S
O2182 C2171 1.251 . S
O2183 Eu2153 2.374 . S
O2183 C2171 1.251 . S
H2184 C2155 0.931 . S
H2185 C2156 0.931 . S
H2186 C2158 0.931 . S
H2187 C2159 0.931 . S
H2188 C2165 0.931 . S
H2189 C2166 0.931 . S
H2190 C2168 0.931 . S
H2191 C2169 0.931 . S
C2192 Eu2193 2.835 . S
C2192 C2194 1.500 . S
C2192 O2212 1.257 . S
C2192 O2213 1.260 . S
Eu2193 C2192 2.835 . S
Eu2193 O2212 2.473 . S
Eu2193 O2213 2.480 . S
Eu2193 O2214 2.430 . S
Eu2193 O2215 2.670 . S
Eu2193 O2216 2.394 . S
Eu2193 O2221 2.355 . S
Eu2193 O2223 2.374 1_545 S
C2194 C2192 1.500 . S
C2194 C2195 1.377 . S
C2194 C2199 1.377 . S
C2195 C2194 1.377 . S
C2195 C2196 1.395 . S
C2195 H2224 0.931 . S
C2196 C2195 1.395 . S
C2196 C2197 1.383 . S
C2196 H2225 0.931 . S
C2197 C2196 1.383 . S
C2197 C2198 1.394 . S
C2198 C2197 1.394 . S
C2198 C2199 1.378 . S
C2198 H2226 0.931 . S
C2199 C2194 1.377 . S
C2199 C2198 1.378 . S
C2199 H2227 0.931 . S
C2200 O2214 1.259 . S
C2200 O2215 1.270 . S
C2201 O2216 1.251 . S
C2201 O2217 1.251 . S
C2202 Eu2203 2.835 1_565 S
C2202 C2204 1.500 . S
C2202 O2218 1.257 . S
C2202 O2219 1.269 . S
Eu2203 C2202 2.835 1_545 S
Eu2203 O2215 2.355 . S
Eu2203 O2217 2.374 . S
Eu2203 O2218 2.473 1_545 S
Eu2203 O2219 2.473 1_545 S
Eu2203 O2220 2.430 . S
Eu2203 O2221 2.670 . S
Eu2203 O2222 2.394 1_545 S
C2204 C2202 1.500 . S
C2204 C2205 1.377 . S
C2204 C2209 1.377 . S
C2205 C2204 1.377 . S
C2205 C2206 1.395 . S
C2205 H2228 0.931 . S
C2206 C2205 1.395 . S
C2206 C2207 1.383 . S
C2206 H2229 0.931 . S
C2207 C2206 1.383 . S
C2207 C2208 1.394 . S
C2208 C2207 1.394 . S
C2208 C2209 1.378 . S
C2208 H2230 0.931 . S
C2209 C2204 1.377 . S
C2209 C2208 1.378 . S
C2209 H2231 0.931 . S
C2210 O2220 1.259 . S
C2210 O2221 1.270 . S
C2211 O2222 1.251 . S
C2211 O2223 1.251 . S
O2212 C2192 1.257 . S
O2212 Eu2193 2.473 . S
O2213 C2192 1.260 . S
O2213 Eu2193 2.480 . S
O2214 Eu2193 2.430 . S
O2214 C2200 1.259 . S
O2215 Eu2193 2.670 . S
O2215 C2200 1.270 . S
O2215 Eu2203 2.355 . S
O2216 Eu2193 2.394 . S
O2216 C2201 1.251 . S
O2217 C2201 1.251 . S
O2217 Eu2203 2.374 . S
O2218 C2202 1.257 . S
O2218 Eu2203 2.473 1_565 S
O2219 C2202 1.269 . S
O2219 Eu2203 2.473 1_565 S
O2220 Eu2203 2.430 . S
O2220 C2210 1.259 . S
O2221 Eu2193 2.355 . S
O2221 Eu2203 2.670 . S
O2221 C2210 1.270 . S
O2222 Eu2203 2.394 1_565 S
O2222 C2211 1.251 . S
O2223 Eu2193 2.374 1_565 S
O2223 C2211 1.251 . S
H2224 C2195 0.931 . S
H2225 C2196 0.931 . S
H2226 C2198 0.931 . S
H2227 C2199 0.931 . S
H2228 C2205 0.931 . S
H2229 C2206 0.931 . S
H2230 C2208 0.931 . S
H2231 C2209 0.931 . S
C2232 Eu2233 2.835 . S
C2232 C2234 1.500 . S
C2232 O2252 1.257 . S
C2232 O2253 1.260 . S
Eu2233 C2232 2.835 . S
Eu2233 O2252 2.473 . S
Eu2233 O2253 2.480 . S
Eu2233 O2254 2.430 . S
Eu2233 O2255 2.670 . S
Eu2233 O2256 2.394 . S
Eu2233 O2261 2.355 . S
Eu2233 O2263 2.374 . S
C2234 C2232 1.500 . S
C2234 C2235 1.377 . S
C2234 C2239 1.377 . S
C2235 C2234 1.377 . S
C2235 C2236 1.395 . S
C2235 H2264 0.931 . S
C2236 C2235 1.395 . S
C2236 C2237 1.383 . S
C2236 H2265 0.931 . S
C2237 C2236 1.383 . S
C2237 C2238 1.394 . S
C2238 C2237 1.394 . S
C2238 C2239 1.378 . S
C2238 H2266 0.931 . S
C2239 C2234 1.377 . S
C2239 C2238 1.378 . S
C2239 H2267 0.931 . S
C2240 O2254 1.259 . S
C2240 O2255 1.270 . S
C2241 O2256 1.251 . S
C2241 O2257 1.251 . S
C2242 Eu2243 2.835 . S
C2242 C2244 1.500 . S
C2242 O2258 1.257 . S
C2242 O2259 1.260 . S
Eu2243 C2242 2.835 . S
Eu2243 O2255 2.355 . S
Eu2243 O2257 2.374 . S
Eu2243 O2258 2.473 . S
Eu2243 O2259 2.480 . S
Eu2243 O2260 2.430 . S
Eu2243 O2261 2.670 . S
Eu2243 O2262 2.394 . S
C2244 C2242 1.500 . S
C2244 C2245 1.377 . S
C2244 C2249 1.377 . S
C2245 C2244 1.377 . S
C2245 C2246 1.395 . S
C2245 H2268 0.931 . S
C2246 C2245 1.395 . S
C2246 C2247 1.383 . S
C2246 H2269 0.931 . S
C2247 C2246 1.383 . S
C2247 C2248 1.394 . S
C2248 C2247 1.394 . S
C2248 C2249 1.378 . S
C2248 H2270 0.931 . S
C2249 C2244 1.377 . S
C2249 C2248 1.378 . S
C2249 H2271 0.931 . S
C2250 O2260 1.259 . S
C2250 O2261 1.270 . S
C2251 O2262 1.251 . S
C2251 O2263 1.251 . S
O2252 C2232 1.257 . S
O2252 Eu2233 2.473 . S
O2253 C2232 1.260 . S
O2253 Eu2233 2.480 . S
O2254 Eu2233 2.430 . S
O2254 C2240 1.259 . S
O2255 Eu2233 2.670 . S
O2255 C2240 1.270 . S
O2255 Eu2243 2.355 . S
O2256 Eu2233 2.394 . S
O2256 C2241 1.251 . S
O2257 C2241 1.251 . S
O2257 Eu2243 2.374 . S
O2258 C2242 1.257 . S
O2258 Eu2243 2.473 . S
O2259 C2242 1.260 . S
O2259 Eu2243 2.480 . S
O2260 Eu2243 2.430 . S
O2260 C2250 1.259 . S
O2261 Eu2233 2.355 . S
O2261 Eu2243 2.670 . S
O2261 C2250 1.270 . S
O2262 Eu2243 2.394 . S
O2262 C2251 1.251 . S
O2263 Eu2233 2.374 . S
O2263 C2251 1.251 . S
H2264 C2235 0.931 . S
H2265 C2236 0.931 . S
H2266 C2238 0.931 . S
H2267 C2239 0.931 . S
H2268 C2245 0.931 . S
H2269 C2246 0.931 . S
H2270 C2248 0.931 . S
H2271 C2249 0.931 . S
C2272 Eu2273 2.835 . S
C2272 C2274 1.500 . S
C2272 O2292 1.257 . S
C2272 O2293 1.260 . S
Eu2273 C2272 2.835 . S
Eu2273 O2292 2.473 . S
Eu2273 O2293 2.480 . S
Eu2273 O2294 2.421 1_565 S
Eu2273 O2295 2.670 1_565 S
Eu2273 O2296 2.394 . S
Eu2273 O2301 2.355 . S
Eu2273 O2303 2.374 . S
C2274 C2272 1.500 . S
C2274 C2275 1.377 . S
C2274 C2279 1.377 . S
C2275 C2274 1.377 . S
C2275 C2276 1.395 . S
C2275 H2304 0.931 . S
C2276 C2275 1.395 . S
C2276 C2277 1.383 . S
C2276 H2305 0.931 . S
C2277 C2276 1.383 . S
C2277 C2278 1.394 . S
C2278 C2277 1.394 . S
C2278 C2279 1.378 . S
C2278 H2306 0.931 . S
C2279 C2274 1.377 . S
C2279 C2278 1.378 . S
C2279 H2307 0.931 . S
C2280 O2294 1.287 . S
C2280 O2295 1.270 . S
C2281 O2296 1.251 1_545 S
C2281 O2297 1.251 . S
C2282 Eu2283 2.835 . S
C2282 C2284 1.500 . S
C2282 O2298 1.257 . S
C2282 O2299 1.260 . S
Eu2283 C2282 2.835 . S
Eu2283 O2295 2.355 . S
Eu2283 O2297 2.374 . S
Eu2283 O2298 2.473 . S
Eu2283 O2299 2.480 . S
Eu2283 O2300 2.430 1_455 S
Eu2283 O2301 2.670 1_545 S
Eu2283 O2302 2.394 . S
C2284 C2282 1.500 . S
C2284 C2285 1.377 . S
C2284 C2289 1.377 . S
C2285 C2284 1.377 . S
C2285 C2286 1.395 . S
C2285 H2308 0.931 1_455 S
C2286 C2285 1.395 . S
C2286 C2287 1.383 . S
C2286 H2309 0.931 1_455 S
C2287 C2286 1.383 . S
C2287 C2288 1.394 . S
C2288 C2287 1.394 . S
C2288 C2289 1.378 . S
C2288 H2310 0.931 . S
C2289 C2284 1.377 . S
C2289 C2288 1.378 . S
C2289 H2311 0.931 . S
C2290 O2300 1.259 . S
C2290 O2301 1.270 1_645 S
C2291 O2302 1.251 . S
C2291 O2303 1.251 1_545 S
O2292 C2272 1.257 . S
O2292 Eu2273 2.473 . S
O2293 C2272 1.260 . S
O2293 Eu2273 2.480 . S
O2294 Eu2273 2.421 1_545 S
O2294 C2280 1.287 . S
O2295 Eu2273 2.670 1_545 S
O2295 C2280 1.270 . S
O2295 Eu2283 2.355 . S
O2296 Eu2273 2.394 . S
O2296 C2281 1.251 1_565 S
O2297 C2281 1.251 . S
O2297 Eu2283 2.374 . S
O2298 C2282 1.257 . S
O2298 Eu2283 2.473 . S
O2299 C2282 1.260 . S
O2299 Eu2283 2.480 . S
O2300 Eu2283 2.430 1_655 S
O2300 C2290 1.259 . S
O2301 Eu2273 2.355 . S
O2301 Eu2283 2.670 1_565 S
O2301 C2290 1.270 1_465 S
O2302 Eu2283 2.394 . S
O2302 C2291 1.251 . S
O2303 Eu2273 2.374 . S
O2303 C2291 1.251 1_565 S
H2304 C2275 0.931 . S
H2305 C2276 0.931 . S
H2306 C2278 0.931 . S
H2307 C2279 0.931 . S
H2308 C2285 0.931 1_655 S
H2309 C2286 0.931 1_655 S
H2310 C2288 0.931 . S
H2311 C2289 0.931 . S
C2312 Eu2313 2.835 . S
C2312 C2314 1.500 . S
C2312 O2332 1.257 . S
C2312 O2333 1.260 . S
Eu2313 C2312 2.835 . S
Eu2313 O2332 2.473 . S
Eu2313 O2333 2.480 . S
Eu2313 O2334 2.430 . S
Eu2313 O2335 2.670 . S
Eu2313 O2336 2.394 . S
Eu2313 O2341 2.355 . S
Eu2313 O2343 2.374 . S
C2314 C2312 1.500 . S
C2314 C2315 1.377 . S
C2314 C2319 1.377 . S
C2315 C2314 1.377 . S
C2315 C2316 1.395 . S
C2315 H2344 0.931 . S
C2316 C2315 1.395 . S
C2316 C2317 1.383 . S
C2316 H2345 0.931 . S
C2317 C2316 1.383 . S
C2317 C2318 1.394 . S
C2318 C2317 1.394 . S
C2318 C2319 1.378 . S
C2318 H2346 0.931 . S
C2319 C2314 1.377 . S
C2319 C2318 1.378 . S
C2319 H2347 0.931 . S
C2320 O2334 1.259 . S
C2320 O2335 1.270 . S
C2321 O2336 1.251 . S
C2321 O2337 1.251 . S
C2322 Eu2323 2.835 . S
C2322 C2324 1.500 . S
C2322 O2338 1.257 . S
C2322 O2339 1.260 . S
Eu2323 C2322 2.835 . S
Eu2323 O2335 2.355 . S
Eu2323 O2337 2.374 . S
Eu2323 O2338 2.473 . S
Eu2323 O2339 2.480 . S
Eu2323 O2340 2.430 . S
Eu2323 O2341 2.670 . S
Eu2323 O2342 2.394 . S
C2324 C2322 1.500 . S
C2324 C2325 1.377 . S
C2324 C2329 1.377 . S
C2325 C2324 1.377 . S
C2325 C2326 1.395 . S
C2325 H2348 0.931 . S
C2326 C2325 1.395 . S
C2326 C2327 1.383 . S
C2326 H2349 0.931 . S
C2327 C2326 1.383 . S
C2327 C2328 1.394 . S
C2328 C2327 1.394 . S
C2328 C2329 1.378 . S
C2328 H2350 0.931 . S
C2329 C2324 1.377 . S
C2329 C2328 1.378 . S
C2329 H2351 0.931 . S
C2330 O2340 1.259 . S
C2330 O2341 1.270 . S
C2331 O2342 1.251 . S
C2331 O2343 1.251 . S
O2332 C2312 1.257 . S
O2332 Eu2313 2.473 . S
O2333 C2312 1.260 . S
O2333 Eu2313 2.480 . S
O2334 Eu2313 2.430 . S
O2334 C2320 1.259 . S
O2335 Eu2313 2.670 . S
O2335 C2320 1.270 . S
O2335 Eu2323 2.355 . S
O2336 Eu2313 2.394 . S
O2336 C2321 1.251 . S
O2337 C2321 1.251 . S
O2337 Eu2323 2.374 . S
O2338 C2322 1.257 . S
O2338 Eu2323 2.473 . S
O2339 C2322 1.260 . S
O2339 Eu2323 2.480 . S
O2340 Eu2323 2.430 . S
O2340 C2330 1.259 . S
O2341 Eu2313 2.355 . S
O2341 Eu2323 2.670 . S
O2341 C2330 1.270 . S
O2342 Eu2323 2.394 . S
O2342 C2331 1.251 . S
O2343 Eu2313 2.374 . S
O2343 C2331 1.251 . S
H2344 C2315 0.931 . S
H2345 C2316 0.931 . S
H2346 C2318 0.931 . S
H2347 C2319 0.931 . S
H2348 C2325 0.931 . S
H2349 C2326 0.931 . S
H2350 C2328 0.931 . S
H2351 C2329 0.931 . S
C2352 Eu2353 2.835 . S
C2352 C2354 1.500 . S
C2352 O2372 1.257 . S
C2352 O2373 1.260 . S
Eu2353 C2352 2.835 . S
Eu2353 O2372 2.473 . S
Eu2353 O2373 2.480 . S
Eu2353 O2374 2.430 1_545 S
Eu2353 O2375 2.670 1_545 S
Eu2353 O2376 2.394 . S
Eu2353 O2381 2.355 . S
Eu2353 O2383 2.374 . S
C2354 C2352 1.500 . S
C2354 C2355 1.377 . S
C2354 C2359 1.377 . S
C2355 C2354 1.377 . S
C2355 C2356 1.395 . S
C2355 H2384 0.931 . S
C2356 C2355 1.395 . S
C2356 C2357 1.383 . S
C2356 H2385 0.931 . S
C2357 C2356 1.383 . S
C2357 C2358 1.394 . S
C2358 C2357 1.394 . S
C2358 C2359 1.378 . S
C2358 H2386 0.931 . S
C2359 C2354 1.377 . S
C2359 C2358 1.378 . S
C2359 H2387 0.931 . S
C2360 O2374 1.259 . S
C2360 O2375 1.270 . S
C2361 O2376 1.251 . S
C2361 O2377 1.251 . S
C2362 Eu2363 2.835 1_565 S
C2362 C2364 1.500 . S
C2362 O2378 1.257 . S
C2362 O2379 1.260 . S
Eu2363 C2362 2.835 1_545 S
Eu2363 O2375 2.355 1_545 S
Eu2363 O2377 2.374 . S
Eu2363 O2378 2.473 1_545 S
Eu2363 O2379 2.480 1_545 S
Eu2363 O2380 2.430 . S
Eu2363 O2381 2.670 . S
Eu2363 O2382 2.394 . S
C2364 C2362 1.500 . S
C2364 C2365 1.377 . S
C2364 C2369 1.377 . S
C2365 C2364 1.377 . S
C2365 C2366 1.395 . S
C2365 H2388 0.931 . S
C2366 C2365 1.395 . S
C2366 C2367 1.383 . S
C2366 H2389 0.931 . S
C2367 C2366 1.383 . S
C2367 C2368 1.394 . S
C2368 C2367 1.394 . S
C2368 C2369 1.378 . S
C2368 H2390 0.931 . S
C2369 C2364 1.377 . S
C2369 C2368 1.378 . S
C2369 H2391 0.931 . S
C2370 O2380 1.259 . S
C2370 O2381 1.270 . S
C2371 O2382 1.251 . S
C2371 O2383 1.251 . S
O2372 C2352 1.257 . S
O2372 Eu2353 2.473 . S
O2373 C2352 1.260 . S
O2373 Eu2353 2.480 . S
O2374 Eu2353 2.430 1_565 S
O2374 C2360 1.259 . S
O2375 Eu2353 2.670 1_565 S
O2375 C2360 1.270 . S
O2375 Eu2363 2.355 1_565 S
O2376 Eu2353 2.394 . S
O2376 C2361 1.251 . S
O2377 C2361 1.251 . S
O2377 Eu2363 2.374 . S
O2378 C2362 1.257 . S
O2378 Eu2363 2.473 1_565 S
O2379 C2362 1.260 . S
O2379 Eu2363 2.480 1_565 S
O2380 Eu2363 2.430 . S
O2380 C2370 1.259 . S
O2381 Eu2353 2.355 . S
O2381 Eu2363 2.670 . S
O2381 C2370 1.270 . S
O2382 Eu2363 2.394 . S
O2382 C2371 1.251 . S
O2383 Eu2353 2.374 . S
O2383 C2371 1.251 . S
H2384 C2355 0.931 . S
H2385 C2356 0.931 . S
H2386 C2358 0.931 . S
H2387 C2359 0.931 . S
H2388 C2365 0.931 . S
H2389 C2366 0.931 . S
H2390 C2368 0.931 . S
H2391 C2369 0.931 . S
C2392 Eu2393 2.835 . S
C2392 C2394 1.500 . S
C2392 O2412 1.257 . S
C2392 O2413 1.260 . S
Eu2393 C2392 2.835 . S
Eu2393 O2412 2.473 . S
Eu2393 O2413 2.480 . S
Eu2393 O2414 2.430 . S
Eu2393 O2415 2.670 . S
Eu2393 O2416 2.394 . S
Eu2393 O2421 2.355 . S
Eu2393 O2423 2.374 . S
C2394 C2392 1.500 . S
C2394 C2395 1.377 . S
C2394 C2399 1.377 . S
C2395 C2394 1.377 . S
C2395 C2396 1.395 . S
C2395 H2424 0.931 . S
C2396 C2395 1.395 . S
C2396 C2397 1.383 . S
C2396 H2425 0.931 . S
C2397 C2396 1.383 . S
C2397 C2398 1.394 . S
C2398 C2397 1.394 . S
C2398 C2399 1.378 . S
C2398 H2426 0.931 . S
C2399 C2394 1.377 . S
C2399 C2398 1.378 . S
C2399 H2427 0.931 . S
C2400 O2414 1.259 . S
C2400 O2415 1.270 . S
C2401 O2416 1.251 . S
C2401 O2417 1.251 . S
C2402 Eu2403 2.835 . S
C2402 C2404 1.500 . S
C2402 O2418 1.257 . S
C2402 O2419 1.260 . S
Eu2403 C2402 2.835 . S
Eu2403 O2415 2.355 . S
Eu2403 O2417 2.374 . S
Eu2403 O2418 2.473 . S
Eu2403 O2419 2.480 . S
Eu2403 O2420 2.430 . S
Eu2403 O2421 2.670 . S
Eu2403 O2422 2.394 . S
C2404 C2402 1.500 . S
C2404 C2405 1.377 . S
C2404 C2409 1.377 . S
C2405 C2404 1.377 . S
C2405 C2406 1.395 . S
C2405 H2428 0.931 . S
C2406 C2405 1.395 . S
C2406 C2407 1.383 . S
C2406 H2429 0.931 . S
C2407 C2406 1.383 . S
C2407 C2408 1.394 . S
C2408 C2407 1.394 . S
C2408 C2409 1.378 . S
C2408 H2430 0.931 . S
C2409 C2404 1.377 . S
C2409 C2408 1.378 . S
C2409 H2431 0.931 . S
C2410 O2420 1.259 . S
C2410 O2421 1.270 . S
C2411 O2422 1.251 . S
C2411 O2423 1.251 . S
O2412 C2392 1.257 . S
O2412 Eu2393 2.473 . S
O2413 C2392 1.260 . S
O2413 Eu2393 2.480 . S
O2414 Eu2393 2.430 . S
O2414 C2400 1.259 . S
O2415 Eu2393 2.670 . S
O2415 C2400 1.270 . S
O2415 Eu2403 2.355 . S
O2416 Eu2393 2.394 . S
O2416 C2401 1.251 . S
O2417 C2401 1.251 . S
O2417 Eu2403 2.374 . S
O2418 C2402 1.257 . S
O2418 Eu2403 2.473 . S
O2419 C2402 1.260 . S
O2419 Eu2403 2.480 . S
O2420 Eu2403 2.430 . S
O2420 C2410 1.259 . S
O2421 Eu2393 2.355 . S
O2421 Eu2403 2.670 . S
O2421 C2410 1.270 . S
O2422 Eu2403 2.394 . S
O2422 C2411 1.251 . S
O2423 Eu2393 2.374 . S
O2423 C2411 1.251 . S
H2424 C2395 0.931 . S
H2425 C2396 0.931 . S
H2426 C2398 0.931 . S
H2427 C2399 0.931 . S
H2428 C2405 0.931 . S
H2429 C2406 0.931 . S
H2430 C2408 0.931 . S
H2431 C2409 0.931 . S
C2432 Eu2433 2.835 . S
C2432 C2434 1.500 . S
C2432 O2452 1.257 . S
C2432 O2453 1.260 . S
Eu2433 C2432 2.835 . S
Eu2433 O2452 2.473 . S
Eu2433 O2453 2.480 . S
Eu2433 O2454 2.430 . S
Eu2433 O2455 2.670 . S
Eu2433 O2456 2.394 . S
Eu2433 O2461 2.355 . S
Eu2433 O2463 2.374 . S
C2434 C2432 1.500 . S
C2434 C2435 1.377 . S
C2434 C2439 1.377 . S
C2435 C2434 1.377 . S
C2435 C2436 1.395 . S
C2435 H2464 0.931 . S
C2436 C2435 1.395 . S
C2436 C2437 1.383 . S
C2436 H2465 0.931 . S
C2437 C2436 1.383 . S
C2437 C2438 1.394 . S
C2438 C2437 1.394 . S
C2438 C2439 1.378 . S
C2438 H2466 0.931 . S
C2439 C2434 1.377 . S
C2439 C2438 1.378 . S
C2439 H2467 0.931 . S
C2440 O2454 1.259 . S
C2440 O2455 1.270 . S
C2441 O2456 1.251 . S
C2441 O2457 1.251 . S
C2442 Eu2443 2.835 . S
C2442 C2444 1.500 . S
C2442 O2458 1.257 . S
C2442 O2459 1.260 . S
Eu2443 C2442 2.835 . S
Eu2443 O2455 2.355 . S
Eu2443 O2457 2.374 . S
Eu2443 O2458 2.473 . S
Eu2443 O2459 2.480 . S
Eu2443 O2460 2.430 . S
Eu2443 O2461 2.670 . S
Eu2443 O2462 2.394 . S
C2444 C2442 1.500 . S
C2444 C2445 1.377 . S
C2444 C2449 1.377 . S
C2445 C2444 1.377 . S
C2445 C2446 1.395 . S
C2445 H2468 0.931 . S
C2446 C2445 1.395 . S
C2446 C2447 1.383 . S
C2446 H2469 0.931 . S
C2447 C2446 1.383 . S
C2447 C2448 1.394 . S
C2448 C2447 1.394 . S
C2448 C2449 1.378 . S
C2448 H2470 0.931 . S
C2449 C2444 1.377 . S
C2449 C2448 1.378 . S
C2449 H2471 0.931 . S
C2450 O2460 1.259 . S
C2450 O2461 1.270 . S
C2451 O2462 1.251 . S
C2451 O2463 1.251 . S
O2452 C2432 1.257 . S
O2452 Eu2433 2.473 . S
O2453 C2432 1.260 . S
O2453 Eu2433 2.480 . S
O2454 Eu2433 2.430 . S
O2454 C2440 1.259 . S
O2455 Eu2433 2.670 . S
O2455 C2440 1.270 . S
O2455 Eu2443 2.355 . S
O2456 Eu2433 2.394 . S
O2456 C2441 1.251 . S
O2457 C2441 1.251 . S
O2457 Eu2443 2.374 . S
O2458 C2442 1.257 . S
O2458 Eu2443 2.473 . S
O2459 C2442 1.260 . S
O2459 Eu2443 2.480 . S
O2460 Eu2443 2.430 . S
O2460 C2450 1.259 . S
O2461 Eu2433 2.355 . S
O2461 Eu2443 2.670 . S
O2461 C2450 1.270 . S
O2462 Eu2443 2.394 . S
O2462 C2451 1.251 . S
O2463 Eu2433 2.374 . S
O2463 C2451 1.251 . S
H2464 C2435 0.931 . S
H2465 C2436 0.931 . S
H2466 C2438 0.931 . S
H2467 C2439 0.931 . S
H2468 C2445 0.931 . S
H2469 C2446 0.931 . S
H2470 C2448 0.931 . S
H2471 C2449 0.931 . S
C2472 Eu2473 2.835 . S
C2472 C2474 1.500 . S
C2472 O2492 1.257 . S
C2472 O2493 1.260 . S
Eu2473 C2472 2.835 . S
Eu2473 O2492 2.473 . S
Eu2473 O2493 2.480 . S
Eu2473 O2494 2.430 . S
Eu2473 O2495 2.670 . S
Eu2473 O2496 2.394 . S
Eu2473 O2501 2.355 . S
Eu2473 O2503 2.374 . S
C2474 C2472 1.500 . S
C2474 C2475 1.377 . S
C2474 C2479 1.377 . S
C2475 C2474 1.377 . S
C2475 C2476 1.395 . S
C2475 H2504 0.931 . S
C2476 C2475 1.395 . S
C2476 C2477 1.383 . S
C2476 H2505 0.931 . S
C2477 C2476 1.383 . S
C2477 C2478 1.394 . S
C2478 C2477 1.394 . S
C2478 C2479 1.378 . S
C2478 H2506 0.931 . S
C2479 C2474 1.377 . S
C2479 C2478 1.378 . S
C2479 H2507 0.931 . S
C2480 O2494 1.259 . S
C2480 O2495 1.270 . S
C2481 O2496 1.251 . S
C2481 O2497 1.251 . S
C2482 Eu2483 2.835 . S
C2482 C2484 1.500 . S
C2482 O2498 1.257 . S
C2482 O2499 1.260 . S
Eu2483 C2482 2.835 . S
Eu2483 O2495 2.355 . S
Eu2483 O2497 2.374 . S
Eu2483 O2498 2.473 . S
Eu2483 O2499 2.480 . S
Eu2483 O2500 2.430 . S
Eu2483 O2501 2.670 . S
Eu2483 O2502 2.394 . S
C2484 C2482 1.500 . S
C2484 C2485 1.377 . S
C2484 C2489 1.377 . S
C2485 C2484 1.377 . S
C2485 C2486 1.395 . S
C2485 H2508 0.931 . S
C2486 C2485 1.395 . S
C2486 C2487 1.383 . S
C2486 H2509 0.931 . S
C2487 C2486 1.383 . S
C2487 C2488 1.394 . S
C2488 C2487 1.394 . S
C2488 C2489 1.378 . S
C2488 H2510 0.931 . S
C2489 C2484 1.377 . S
C2489 C2488 1.378 . S
C2489 H2511 0.931 . S
C2490 O2500 1.259 . S
C2490 O2501 1.270 . S
C2491 O2502 1.251 . S
C2491 O2503 1.251 . S
O2492 C2472 1.257 . S
O2492 Eu2473 2.473 . S
O2493 C2472 1.260 . S
O2493 Eu2473 2.480 . S
O2494 Eu2473 2.430 . S
O2494 C2480 1.259 . S
O2495 Eu2473 2.670 . S
O2495 C2480 1.270 . S
O2495 Eu2483 2.355 . S
O2496 Eu2473 2.394 . S
O2496 C2481 1.251 . S
O2497 C2481 1.251 . S
O2497 Eu2483 2.374 . S
O2498 C2482 1.257 . S
O2498 Eu2483 2.473 . S
O2499 C2482 1.260 . S
O2499 Eu2483 2.480 . S
O2500 Eu2483 2.430 . S
O2500 C2490 1.259 . S
O2501 Eu2473 2.355 . S
O2501 Eu2483 2.670 . S
O2501 C2490 1.270 . S
O2502 Eu2483 2.394 . S
O2502 C2491 1.251 . S
O2503 Eu2473 2.374 . S
O2503 C2491 1.251 . S
H2504 C2475 0.931 . S
H2505 C2476 0.931 . S
H2506 C2478 0.931 . S
H2507 C2479 0.931 . S
H2508 C2485 0.931 . S
H2509 C2486 0.931 . S
H2510 C2488 0.931 . S
H2511 C2489 0.931 . S
C2512 Eu2513 2.835 . S
C2512 C2514 1.500 . S
C2512 O2532 1.257 . S
C2512 O2533 1.260 . S
Eu2513 C2512 2.835 . S
Eu2513 O2532 2.473 . S
Eu2513 O2533 2.480 . S
Eu2513 O2534 2.430 . S
Eu2513 O2535 2.670 . S
Eu2513 O2536 2.394 . S
Eu2513 O2541 2.355 . S
Eu2513 O2543 2.374 . S
C2514 C2512 1.500 . S
C2514 C2515 1.377 . S
C2514 C2519 1.377 . S
C2515 C2514 1.377 . S
C2515 C2516 1.395 . S
C2515 H2544 0.931 . S
C2516 C2515 1.395 . S
C2516 C2517 1.383 . S
C2516 H2545 0.931 . S
C2517 C2516 1.383 . S
C2517 C2518 1.394 . S
C2518 C2517 1.394 . S
C2518 C2519 1.378 . S
C2518 H2546 0.931 . S
C2519 C2514 1.377 . S
C2519 C2518 1.378 . S
C2519 H2547 0.931 . S
C2520 O2534 1.259 . S
C2520 O2535 1.270 . S
C2521 O2536 1.251 . S
C2521 O2537 1.251 . S
C2522 Eu2523 2.835 1_655 S
C2522 C2524 1.500 . S
C2522 O2538 1.257 . S
C2522 O2539 1.260 . S
Eu2523 C2522 2.835 1_455 S
Eu2523 O2535 2.355 . S
Eu2523 O2537 2.374 . S
Eu2523 O2538 2.473 1_455 S
Eu2523 O2539 2.480 1_455 S
Eu2523 O2540 2.430 1_455 S
Eu2523 O2541 2.670 . S
Eu2523 O2542 2.394 1_455 S
C2524 C2522 1.500 . S
C2524 C2525 1.377 . S
C2524 C2529 1.377 . S
C2525 C2524 1.377 . S
C2525 C2526 1.395 . S
C2525 H2548 0.931 . S
C2526 C2525 1.395 . S
C2526 C2527 1.383 . S
C2526 H2549 0.931 . S
C2527 C2526 1.383 . S
C2527 C2528 1.394 . S
C2528 C2527 1.394 . S
C2528 C2529 1.378 . S
C2528 H2550 0.931 . S
C2529 C2524 1.377 . S
C2529 C2528 1.378 . S
C2529 H2551 0.931 . S
C2530 O2540 1.259 1_455 S
C2530 O2541 1.270 . S
C2531 O2542 1.251 1_455 S
C2531 O2543 1.251 . S
O2532 C2512 1.257 . S
O2532 Eu2513 2.473 . S
O2533 C2512 1.260 . S
O2533 Eu2513 2.480 . S
O2534 Eu2513 2.430 . S
O2534 C2520 1.259 . S
O2535 Eu2513 2.670 . S
O2535 C2520 1.270 . S
O2535 Eu2523 2.355 . S
O2536 Eu2513 2.394 . S
O2536 C2521 1.251 . S
O2537 C2521 1.251 . S
O2537 Eu2523 2.374 . S
O2538 C2522 1.257 . S
O2538 Eu2523 2.473 1_655 S
O2539 C2522 1.260 . S
O2539 Eu2523 2.480 1_655 S
O2540 Eu2523 2.430 1_655 S
O2540 C2530 1.259 1_655 S
O2541 Eu2513 2.355 . S
O2541 Eu2523 2.670 . S
O2541 C2530 1.270 . S
O2542 Eu2523 2.394 1_655 S
O2542 C2531 1.251 1_655 S
O2543 Eu2513 2.374 . S
O2543 C2531 1.251 . S
H2544 C2515 0.931 . S
H2545 C2516 0.931 . S
H2546 C2518 0.931 . S
H2547 C2519 0.931 . S
H2548 C2525 0.931 . S
H2549 C2526 0.931 . S
H2550 C2528 0.931 . S
H2551 C2529 0.931 . S
C2552 Eu2553 2.835 . S
C2552 C2554 1.500 . S
C2552 O2572 1.257 . S
C2552 O2573 1.260 . S
Eu2553 C2552 2.835 . S
Eu2553 O2572 2.473 . S
Eu2553 O2573 2.480 . S
Eu2553 O2574 2.430 . S
Eu2553 O2575 2.670 . S
Eu2553 O2576 2.394 . S
Eu2553 O2581 2.355 . S
Eu2553 O2583 2.374 . S
C2554 C2552 1.500 . S
C2554 C2555 1.377 . S
C2554 C2559 1.377 . S
C2555 C2554 1.377 . S
C2555 C2556 1.395 . S
C2555 H2584 0.931 . S
C2556 C2555 1.395 . S
C2556 C2557 1.383 . S
C2556 H2585 0.931 . S
C2557 C2556 1.383 . S
C2557 C2558 1.394 . S
C2558 C2557 1.394 . S
C2558 C2559 1.378 . S
C2558 H2586 0.931 . S
C2559 C2554 1.377 . S
C2559 C2558 1.378 . S
C2559 H2587 0.931 . S
C2560 O2574 1.259 . S
C2560 O2575 1.270 . S
C2561 O2576 1.251 . S
C2561 O2577 1.251 . S
C2562 Eu2563 2.835 . S
C2562 C2564 1.500 . S
C2562 O2578 1.257 . S
C2562 O2579 1.260 . S
Eu2563 C2562 2.835 . S
Eu2563 O2575 2.355 . S
Eu2563 O2577 2.374 . S
Eu2563 O2578 2.473 . S
Eu2563 O2579 2.480 . S
Eu2563 O2580 2.430 . S
Eu2563 O2581 2.670 . S
Eu2563 O2582 2.394 . S
C2564 C2562 1.500 . S
C2564 C2565 1.377 . S
C2564 C2569 1.377 . S
C2565 C2564 1.377 . S
C2565 C2566 1.395 . S
C2565 H2588 0.931 . S
C2566 C2565 1.395 . S
C2566 C2567 1.383 . S
C2566 H2589 0.931 . S
C2567 C2566 1.383 . S
C2567 C2568 1.394 . S
C2568 C2567 1.394 . S
C2568 C2569 1.378 . S
C2568 H2590 0.931 . S
C2569 C2564 1.377 . S
C2569 C2568 1.378 . S
C2569 H2591 0.931 . S
C2570 O2580 1.259 . S
C2570 O2581 1.270 . S
C2571 O2582 1.251 . S
C2571 O2583 1.251 . S
O2572 C2552 1.257 . S
O2572 Eu2553 2.473 . S
O2573 C2552 1.260 . S
O2573 Eu2553 2.480 . S
O2574 Eu2553 2.430 . S
O2574 C2560 1.259 . S
O2575 Eu2553 2.670 . S
O2575 C2560 1.270 . S
O2575 Eu2563 2.355 . S
O2576 Eu2553 2.394 . S
O2576 C2561 1.251 . S
O2577 C2561 1.251 . S
O2577 Eu2563 2.374 . S
O2578 C2562 1.257 . S
O2578 Eu2563 2.473 . S
O2579 C2562 1.260 . S
O2579 Eu2563 2.480 . S
O2580 Eu2563 2.430 . S
O2580 C2570 1.259 . S
O2581 Eu2553 2.355 . S
O2581 Eu2563 2.670 . S
O2581 C2570 1.270 . S
O2582 Eu2563 2.394 . S
O2582 C2571 1.251 . S
O2583 Eu2553 2.374 . S
O2583 C2571 1.251 . S
H2584 C2555 0.931 . S
H2585 C2556 0.931 . S
H2586 C2558 0.931 . S
H2587 C2559 0.931 . S
H2588 C2565 0.931 . S
H2589 C2566 0.931 . S
H2590 C2568 0.931 . S
H2591 C2569 0.931 . S
C2592 Eu2593 2.835 . S
C2592 C2594 1.500 . S
C2592 O2612 1.257 . S
C2592 O2613 1.260 . S
Eu2593 C2592 2.835 . S
Eu2593 O2612 2.473 . S
Eu2593 O2613 2.480 . S
Eu2593 O2614 2.430 . S
Eu2593 O2615 2.670 . S
Eu2593 O2616 2.394 . S
Eu2593 O2621 2.355 . S
Eu2593 O2623 2.374 . S
C2594 C2592 1.500 . S
C2594 C2595 1.377 . S
C2594 C2599 1.377 . S
C2595 C2594 1.377 . S
C2595 C2596 1.395 1_556 S
C2595 H2624 0.931 . S
C2596 C2595 1.395 1_554 S
C2596 C2597 1.383 . S
C2596 H2625 0.931 . S
C2597 C2596 1.383 . S
C2597 C2598 1.394 . S
C2598 C2597 1.394 . S
C2598 C2599 1.378 1_554 S
C2598 H2626 0.931 . S
C2599 C2594 1.377 . S
C2599 C2598 1.378 1_556 S
C2599 H2627 0.931 . S
C2600 O2614 1.259 . S
C2600 O2615 1.270 . S
C2601 O2616 1.251 . S
C2601 O2617 1.251 . S
C2602 Eu2603 2.835 . S
C2602 C2604 1.500 . S
C2602 O2618 1.257 . S
C2602 O2619 1.260 . S
Eu2603 C2602 2.835 . S
Eu2603 O2615 2.355 . S
Eu2603 O2617 2.374 . S
Eu2603 O2618 2.473 . S
Eu2603 O2619 2.480 . S
Eu2603 O2620 2.430 . S
Eu2603 O2621 2.670 . S
Eu2603 O2622 2.394 . S
C2604 C2602 1.500 . S
C2604 C2605 1.377 . S
C2604 C2609 1.377 . S
C2605 C2604 1.377 . S
C2605 C2606 1.395 . S
C2605 H2628 0.931 . S
C2606 C2605 1.395 . S
C2606 C2607 1.383 . S
C2606 H2629 0.931 . S
C2607 C2606 1.383 . S
C2607 C2608 1.394 . S
C2608 C2607 1.394 . S
C2608 C2609 1.378 . S
C2608 H2630 0.931 . S
C2609 C2604 1.377 . S
C2609 C2608 1.378 . S
C2609 H2631 0.931 . S
C2610 O2620 1.259 . S
C2610 O2621 1.270 . S
C2611 O2622 1.251 . S
C2611 O2623 1.251 . S
O2612 C2592 1.257 . S
O2612 Eu2593 2.473 . S
O2613 C2592 1.260 . S
O2613 Eu2593 2.480 . S
O2614 Eu2593 2.430 . S
O2614 C2600 1.259 . S
O2615 Eu2593 2.670 . S
O2615 C2600 1.270 . S
O2615 Eu2603 2.355 . S
O2616 Eu2593 2.394 . S
O2616 C2601 1.251 . S
O2617 C2601 1.251 . S
O2617 Eu2603 2.374 . S
O2618 C2602 1.257 . S
O2618 Eu2603 2.473 . S
O2619 C2602 1.260 . S
O2619 Eu2603 2.480 . S
O2620 Eu2603 2.430 . S
O2620 C2610 1.259 . S
O2621 Eu2593 2.355 . S
O2621 Eu2603 2.670 . S
O2621 C2610 1.270 . S
O2622 Eu2603 2.394 . S
O2622 C2611 1.251 . S
O2623 Eu2593 2.374 . S
O2623 C2611 1.251 . S
H2624 C2595 0.931 . S
H2625 C2596 0.931 . S
H2626 C2598 0.931 . S
H2627 C2599 0.931 . S
H2628 C2605 0.931 . S
H2629 C2606 0.931 . S
H2630 C2608 0.931 . S
H2631 C2609 0.931 . S
C2632 Eu2633 2.835 . S
C2632 C2634 1.500 . S
C2632 O2652 1.257 . S
C2632 O2653 1.260 . S
Eu2633 C2632 2.835 . S
Eu2633 O2652 2.473 . S
Eu2633 O2653 2.480 . S
Eu2633 O2654 2.430 . S
Eu2633 O2655 2.670 . S
Eu2633 O2656 2.394 . S
Eu2633 O2661 2.355 . S
Eu2633 O2663 2.374 . S
C2634 C2632 1.500 . S
C2634 C2635 1.377 . S
C2634 C2639 1.377 . S
C2635 C2634 1.377 . S
C2635 C2636 1.395 . S
C2635 H2664 0.931 . S
C2636 C2635 1.395 . S
C2636 C2637 1.383 . S
C2636 H2665 0.931 . S
C2637 C2636 1.383 . S
C2637 C2638 1.394 . S
C2638 C2637 1.394 . S
C2638 C2639 1.378 . S
C2638 H2666 0.931 . S
C2639 C2634 1.377 . S
C2639 C2638 1.378 . S
C2639 H2667 0.931 . S
C2640 O2654 1.259 . S
C2640 O2655 1.270 . S
C2641 O2656 1.251 . S
C2641 O2657 1.251 . S
C2642 Eu2643 2.835 . S
C2642 C2644 1.500 . S
C2642 O2658 1.257 . S
C2642 O2659 1.260 . S
Eu2643 C2642 2.835 . S
Eu2643 O2655 2.355 . S
Eu2643 O2657 2.374 . S
Eu2643 O2658 2.473 . S
Eu2643 O2659 2.480 . S
Eu2643 O2660 2.430 . S
Eu2643 O2661 2.670 . S
Eu2643 O2662 2.394 . S
C2644 C2642 1.500 . S
C2644 C2645 1.377 . S
C2644 C2649 1.377 . S
C2645 C2644 1.377 . S
C2645 C2646 1.395 . S
C2645 H2668 0.931 . S
C2646 C2645 1.395 . S
C2646 C2647 1.383 . S
C2646 H2669 0.931 . S
C2647 C2646 1.383 . S
C2647 C2648 1.394 . S
C2648 C2647 1.394 . S
C2648 C2649 1.378 . S
C2648 H2670 0.931 . S
C2649 C2644 1.377 . S
C2649 C2648 1.378 . S
C2649 H2671 0.931 . S
C2650 O2660 1.259 . S
C2650 O2661 1.270 . S
C2651 O2662 1.251 . S
C2651 O2663 1.251 . S
O2652 C2632 1.257 . S
O2652 Eu2633 2.473 . S
O2653 C2632 1.260 . S
O2653 Eu2633 2.480 . S
O2654 Eu2633 2.430 . S
O2654 C2640 1.259 . S
O2655 Eu2633 2.670 . S
O2655 C2640 1.270 . S
O2655 Eu2643 2.355 . S
O2656 Eu2633 2.394 . S
O2656 C2641 1.251 . S
O2657 C2641 1.251 . S
O2657 Eu2643 2.374 . S
O2658 C2642 1.257 . S
O2658 Eu2643 2.473 . S
O2659 C2642 1.260 . S
O2659 Eu2643 2.480 . S
O2660 Eu2643 2.430 . S
O2660 C2650 1.259 . S
O2661 Eu2633 2.355 . S
O2661 Eu2643 2.670 . S
O2661 C2650 1.270 . S
O2662 Eu2643 2.394 . S
O2662 C2651 1.251 . S
O2663 Eu2633 2.374 . S
O2663 C2651 1.251 . S
H2664 C2635 0.931 . S
H2665 C2636 0.931 . S
H2666 C2638 0.931 . S
H2667 C2639 0.931 . S
H2668 C2645 0.931 . S
H2669 C2646 0.931 . S
H2670 C2648 0.931 . S
H2671 C2649 0.931 . S
C2672 Eu2673 2.835 . S
C2672 C2674 1.500 . S
C2672 O2692 1.257 . S
C2672 O2693 1.260 . S
Eu2673 C2672 2.835 . S
Eu2673 O2692 2.473 . S
Eu2673 O2693 2.480 . S
Eu2673 O2694 2.430 . S
Eu2673 O2695 2.670 . S
Eu2673 O2696 2.394 . S
Eu2673 O2701 2.355 . S
Eu2673 O2703 2.374 . S
C2674 C2672 1.500 . S
C2674 C2675 1.377 . S
C2674 C2679 1.377 . S
C2675 C2674 1.377 . S
C2675 C2676 1.395 . S
C2675 H2704 0.931 . S
C2676 C2675 1.395 . S
C2676 C2677 1.383 . S
C2676 H2705 0.931 . S
C2677 C2676 1.383 . S
C2677 C2678 1.394 . S
C2678 C2677 1.394 . S
C2678 C2679 1.378 . S
C2678 H2706 0.931 . S
C2679 C2674 1.377 . S
C2679 C2678 1.378 . S
C2679 H2707 0.931 . S
C2680 O2694 1.259 . S
C2680 O2695 1.270 . S
C2681 O2696 1.251 . S
C2681 O2697 1.251 . S
C2682 Eu2683 2.835 . S
C2682 C2684 1.500 . S
C2682 O2698 1.257 . S
C2682 O2699 1.260 . S
Eu2683 C2682 2.835 . S
Eu2683 O2695 2.355 . S
Eu2683 O2697 2.374 . S
Eu2683 O2698 2.473 . S
Eu2683 O2699 2.480 . S
Eu2683 O2700 2.430 . S
Eu2683 O2701 2.670 . S
Eu2683 O2702 2.394 . S
C2684 C2682 1.500 . S
C2684 C2685 1.377 . S
C2684 C2689 1.377 . S
C2685 C2684 1.377 . S
C2685 C2686 1.395 . S
C2685 H2708 0.931 . S
C2686 C2685 1.395 . S
C2686 C2687 1.383 . S
C2686 H2709 0.931 . S
C2687 C2686 1.383 . S
C2687 C2688 1.394 . S
C2688 C2687 1.394 . S
C2688 C2689 1.378 . S
C2688 H2710 0.931 . S
C2689 C2684 1.377 . S
C2689 C2688 1.378 . S
C2689 H2711 0.931 . S
C2690 O2700 1.259 . S
C2690 O2701 1.270 . S
C2691 O2702 1.251 . S
C2691 O2703 1.251 . S
O2692 C2672 1.257 . S
O2692 Eu2673 2.473 . S
O2693 C2672 1.260 . S
O2693 Eu2673 2.480 . S
O2694 Eu2673 2.430 . S
O2694 C2680 1.259 . S
O2695 Eu2673 2.670 . S
O2695 C2680 1.270 . S
O2695 Eu2683 2.355 . S
O2696 Eu2673 2.394 . S
O2696 C2681 1.251 . S
O2697 C2681 1.251 . S
O2697 Eu2683 2.374 . S
O2698 C2682 1.257 . S
O2698 Eu2683 2.473 . S
O2699 C2682 1.260 . S
O2699 Eu2683 2.480 . S
O2700 Eu2683 2.430 . S
O2700 C2690 1.259 . S
O2701 Eu2673 2.355 . S
O2701 Eu2683 2.670 . S
O2701 C2690 1.270 . S
O2702 Eu2683 2.394 . S
O2702 C2691 1.251 . S
O2703 Eu2673 2.374 . S
O2703 C2691 1.251 . S
H2704 C2675 0.931 . S
H2705 C2676 0.931 . S
H2706 C2678 0.931 . S
H2707 C2679 0.931 . S
H2708 C2685 0.931 . S
H2709 C2686 0.931 . S
H2710 C2688 0.931 . S
H2711 C2689 0.931 . S
C2712 Eu2713 2.835 1_655 S
C2712 C2714 1.500 . S
C2712 O2732 1.257 . S
C2712 O2733 1.260 . S
Eu2713 C2712 2.835 1_455 S
Eu2713 O2732 2.473 1_455 S
Eu2713 O2733 2.480 1_455 S
Eu2713 O2734 2.430 . S
Eu2713 O2735 2.670 . S
Eu2713 O2736 2.394 . S
Eu2713 O2741 2.355 . S
Eu2713 O2743 2.374 . S
C2714 C2712 1.500 . S
C2714 C2715 1.377 . S
C2714 C2719 1.377 . S
C2715 C2714 1.377 . S
C2715 C2716 1.395 . S
C2715 H2744 0.931 . S
C2716 C2715 1.395 . S
C2716 C2717 1.383 . S
C2716 H2745 0.931 . S
C2717 C2716 1.383 . S
C2717 C2718 1.394 . S
C2718 C2717 1.394 . S
C2718 C2719 1.378 . S
C2718 H2746 0.931 . S
C2719 C2714 1.377 . S
C2719 C2718 1.378 . S
C2719 H2747 0.931 . S
C2720 O2734 1.259 . S
C2720 O2735 1.270 . S
C2721 O2736 1.251 . S
C2721 O2737 1.251 . S
C2722 Eu2723 2.835 . S
C2722 C2724 1.500 . S
C2722 O2738 1.257 . S
C2722 O2739 1.260 . S
Eu2723 C2722 2.835 . S
Eu2723 O2735 2.355 . S
Eu2723 O2737 2.374 . S
Eu2723 O2738 2.473 . S
Eu2723 O2739 2.480 . S
Eu2723 O2740 2.430 1_554 S
Eu2723 O2741 2.670 . S
Eu2723 O2742 2.394 . S
C2724 C2722 1.500 . S
C2724 C2725 1.377 . S
C2724 C2729 1.377 . S
C2725 C2724 1.377 . S
C2725 C2726 1.395 . S
C2725 H2748 0.931 1_554 S
C2726 C2725 1.395 . S
C2726 C2727 1.383 . S
C2726 H2749 0.931 1_554 S
C2727 C2726 1.383 . S
C2727 C2728 1.394 . S
C2728 C2727 1.394 . S
C2728 C2729 1.378 . S
C2728 H2750 0.931 . S
C2729 C2724 1.377 . S
C2729 C2728 1.378 . S
C2729 H2751 0.931 . S
C2730 O2740 1.259 1_554 S
C2730 O2741 1.270 . S
C2731 O2742 1.251 . S
C2731 O2743 1.251 . S
O2732 C2712 1.257 . S
O2732 Eu2713 2.473 1_655 S
O2733 C2712 1.260 . S
O2733 Eu2713 2.480 1_655 S
O2734 Eu2713 2.430 . S
O2734 C2720 1.259 . S
O2735 Eu2713 2.670 . S
O2735 C2720 1.270 . S
O2735 Eu2723 2.355 . S
O2736 Eu2713 2.394 . S
O2736 C2721 1.251 . S
O2737 C2721 1.251 . S
O2737 Eu2723 2.374 . S
O2738 C2722 1.257 . S
O2738 Eu2723 2.473 . S
O2739 C2722 1.260 . S
O2739 Eu2723 2.480 . S
O2740 Eu2723 2.430 1_556 S
O2740 C2730 1.259 1_556 S
O2741 Eu2713 2.355 . S
O2741 Eu2723 2.670 . S
O2741 C2730 1.270 . S
O2742 Eu2723 2.394 . S
O2742 C2731 1.251 . S
O2743 Eu2713 2.374 . S
O2743 C2731 1.251 . S
H2744 C2715 0.931 . S
H2745 C2716 0.931 . S
H2746 C2718 0.931 . S
H2747 C2719 0.931 . S
H2748 C2725 0.931 1_556 S
H2749 C2726 0.931 1_556 S
H2750 C2728 0.931 . S
H2751 C2729 0.931 . S
C665 C2131 3.302 . S
C381 C2160 3.113 . S
C460 C2211 2.300 . S
C2237 C585 2.900 . S
C108 C2277 3.335 . S
C2327 C196 1.680 . S
C2370 C313 3.308 . S
C49 C2407 4.174 . S
C2120 C1457 3.408 1_455 S
C1545 C2157 3.992 . S
C2200 C1721 3.375 1_545 S
C2251 C1113 2.468 . S
C1428 C2291 2.917 . S
C2330 C1516 3.591 . S
C2361 C1692 2.626 1_554 S
C2410 C1085 3.161 . S
C2117 C988 4.459 . S
C1817 C2440 3.132 . S
C2481 C2081 3.294 . S
C2527 C1993 0.729 . S
C761 C2401 3.642 . S
C821 C2197 3.018 . S
C2053 C2560 2.987 . S
C2611 C1868 2.739 . S
C2121 C372 3.275 . S
C2610 C645 3.070 . S
C577 C2201 2.240 . S
C497 C2567 2.824 . S
C2287 C57 3.266 . S
C293 C2477 1.190 . S
C2360 C205 2.519 1_565 S
C2637 C145 4.225 . S
C2130 C909 3.422 1_554 S
C2607 C1956 4.080 . S
C724 C2210 3.356 . S
C1780 C2561 2.514 . S
C937 C2281 2.950 1_565 S
C2480 C1985 3.562 . S
C753 C2371 2.584 . S
C1809 C2640 3.196 . S
C1173 C2127 4.862 . S
C1105 C2450 3.163 . S
C1633 C2331 3.263 . S
C1553 C2517 0.816 . S
C2651 C1729 3.605 . S
C1340 C2207 2.884 . S
C2250 C1604 2.974 . S
C2161 C1252 2.740 . S
C489 C2691 3.225 . S
C2600 C557 3.104 . S
C636 C2731 2.230 . S
C409 C2557 2.820 . S
C284 C2437 3.341 . S
C2487 C20 1.046 . S
C2530 C137 3.319 1_455 S
C2647 C225 3.734 . S
C2680 C1641 3.408 . S
C1193 C2597 4.087 . S
C2720 C1289 3.428 . S
C2571 C1377 2.432 . S
C2451 C1613 2.875 1_554 S
C1164 C2490 3.379 . S
C2521 C1261 2.534 . S
C1349 C2650 3.117 . S
C2677 C1965 4.858 . S
C849 C2280 3.181 . S
C2321 C929 3.290 . S
C2367 C1017 0.464 . S
C2641 C1897 3.613 . S
C1789 C2717 2.913 . S
C2240 C900 3.004 . S
C2171 C733 2.822 . S
C548 C2681 3.295 . S
C2170 C469 3.087 . S
C401 C2721 2.236 . S
C673 C2247 2.782 . S
C233 C2447 2.771 . S
C2317 C117 0.956 . S
C29 C2520 3.349 . S
C321 C2397 4.148 . S
C2690 C2044 3.446 . S
C997 C2167 4.024 . S
C2730 C1877 3.418 1_554 S
C812 C2241 2.495 . S
C2073 C2441 2.982 . S
C2320 C1025 2.925 . S
C1905 C2531 2.524 1_655 S
C2400 C841 3.173 . S
C2687 C1525 4.904 . S
C2290 C1369 3.098 1_545 S
C1465 C2491 3.258 . S
C2357 C1201 0.768 . S
C1281 C2411 3.621 . S
C1076 C2727 2.892 . S
C2570 C1437 2.979 . S
C2601 C1701 2.774 . S
