# Generated by pormake.
# Topology pyr, (3,6)-cn, num edge types: 1
# Building blocks:
#     Node 0, Type 0, BuildingBlock: OLANEW_clean_sbu_2, # of connection points: 3
#     Node 1, Type 0, BuildingBlock: OLANEW_clean_sbu_2, # of connection points: 3
#     Node 2, Type 0, BuildingBlock: OLANEW_clean_sbu_2, # of connection points: 3
#     Node 3, Type 0, BuildingBlock: OLANEW_clean_sbu_2, # of connection points: 3
#     Node 4, Type 0, BuildingBlock: OLANEW_clean_sbu_2, # of connection points: 3
#     Node 5, Type 0, BuildingBlock: OLANEW_clean_sbu_2, # of connection points: 3
#     Node 6, Type 0, BuildingBlock: OLANEW_clean_sbu_2, # of connection points: 3
#     Node 7, Type 0, BuildingBlock: OLANEW_clean_sbu_2, # of connection points: 3
#     Node 8, Type 1, BuildingBlock: FUNLAD_clean_sbu_0, # of connection points: 6
#     Node 9, Type 1, BuildingBlock: FUNLAD_clean_sbu_0, # of connection points: 6
#     Node 10, Type 1, BuildingBlock: FUNLAD_clean_sbu_0, # of connection points: 6
#     Node 11, Type 1, BuildingBlock: FUNLAD_clean_sbu_0, # of connection points: 6
#     Edge 12, Type (0, 1), BuildingBlock: KIFKEQ_clean_linker_1, # of connection points: 2
#     Edge 13, Type (0, 1), BuildingBlock: KIFKEQ_clean_linker_1, # of connection points: 2
#     Edge 14, Type (0, 1), BuildingBlock: KIFKEQ_clean_linker_1, # of connection points: 2
#     Edge 15, Type (0, 1), BuildingBlock: KIFKEQ_clean_linker_1, # of connection points: 2
#     Edge 16, Type (0, 1), BuildingBlock: KIFKEQ_clean_linker_1, # of connection points: 2
#     Edge 17, Type (0, 1), BuildingBlock: KIFKEQ_clean_linker_1, # of connection points: 2
#     Edge 18, Type (0, 1), BuildingBlock: KIFKEQ_clean_linker_1, # of connection points: 2
#     Edge 19, Type (0, 1), BuildingBlock: KIFKEQ_clean_linker_1, # of connection points: 2
#     Edge 20, Type (0, 1), BuildingBlock: KIFKEQ_clean_linker_1, # of connection points: 2
#     Edge 21, Type (0, 1), BuildingBlock: KIFKEQ_clean_linker_1, # of connection points: 2
#     Edge 22, Type (0, 1), BuildingBlock: KIFKEQ_clean_linker_1, # of connection points: 2
#     Edge 23, Type (0, 1), BuildingBlock: KIFKEQ_clean_linker_1, # of connection points: 2
#     Edge 24, Type (0, 1), BuildingBlock: KIFKEQ_clean_linker_1, # of connection points: 2
#     Edge 25, Type (0, 1), BuildingBlock: KIFKEQ_clean_linker_1, # of connection points: 2
#     Edge 26, Type (0, 1), BuildingBlock: KIFKEQ_clean_linker_1, # of connection points: 2
#     Edge 27, Type (0, 1), BuildingBlock: KIFKEQ_clean_linker_1, # of connection points: 2
#     Edge 28, Type (0, 1), BuildingBlock: KIFKEQ_clean_linker_1, # of connection points: 2
#     Edge 29, Type (0, 1), BuildingBlock: KIFKEQ_clean_linker_1, # of connection points: 2
#     Edge 30, Type (0, 1), BuildingBlock: KIFKEQ_clean_linker_1, # of connection points: 2
#     Edge 31, Type (0, 1), BuildingBlock: KIFKEQ_clean_linker_1, # of connection points: 2
#     Edge 32, Type (0, 1), BuildingBlock: KIFKEQ_clean_linker_1, # of connection points: 2
#     Edge 33, Type (0, 1), BuildingBlock: KIFKEQ_clean_linker_1, # of connection points: 2
#     Edge 34, Type (0, 1), BuildingBlock: KIFKEQ_clean_linker_1, # of connection points: 2
#     Edge 35, Type (0, 1), BuildingBlock: KIFKEQ_clean_linker_1, # of connection points: 2
# Relax obj value: 0.142
# Max RMSD: 0.169
# Mean RMSD: 0.117
data_MOF--net-pry--node1-OLANEW_clean_sbu_2--node2-FUNLAD_clean_sbu_0--edge1-KIFKEQ_clean_linker_1
_symmetry_space_group_name_H-M    P1
_symmetry_Int_Tables_number       1
_symmetry_cell_setting            triclinic
loop_
_symmetry_equiv_pos_as_xyz
'x, y, z'
_cell_length_a     38.581254
_cell_length_b     41.378895
_cell_length_c     41.380154
_cell_angle_alpha  93.68179
_cell_angle_beta   89.22901
_cell_angle_gamma 90.616582
loop_
_atom_site_label
_atom_site_type_symbol
_atom_site_fract_x
_atom_site_fract_y
_atom_site_fract_z
_atom_type_partial_charge
O0 O 0.22641 0.18868 0.17821 0.0
Cd1 Cd 0.1784 0.22464 0.19788 0.0
O2 O 0.2285 0.15312 0.2163 0.0
Cd3 Cd 0.18637 0.16218 0.25252 0.0
O4 O 0.15782 0.14883 0.29692 0.0
C5 C 0.16457 0.12144 0.30773 0.0
O6 O 0.18745 0.10293 0.29196 0.0
C7 C 0.24021 0.1642 0.19013 0.0
C8 C 0.15615 0.27288 0.15718 0.0
O9 O 0.18349 0.27693 0.17429 0.0
O10 O 0.13985 0.24581 0.1584 0.0
O11 O 0.43367 0.89481 0.77925 0.0
Cd12 Cd 0.4189 0.87369 0.72388 0.0
O13 O 0.3962 0.9346 0.77799 0.0
Cd14 Cd 0.36937 0.91977 0.73297 0.0
O15 O 0.32508 0.92244 0.70046 0.0
C16 C 0.32033 0.94892 0.68723 0.0
O17 O 0.34313 0.9725 0.69212 0.0
C18 C 0.42022 0.92054 0.79235 0.0
C19 C 0.44592 0.81358 0.7006 0.0
O20 O 0.4646 0.8394 0.70108 0.0
O21 O 0.41495 0.81586 0.71208 0.0
O22 O 0.70608 0.53043 0.99528 0.0
Cd23 Cd 0.64275 0.53271 0.99614 0.0
O24 O 0.69976 0.48189 0.97227 0.0
Cd25 Cd 0.71041 0.43169 0.95627 0.0
O26 O 0.69157 0.38176 0.95463 0.0
C27 C 0.70357 0.36242 0.9742 0.0
O28 O 0.72906 0.37232 0.99324 0.0
C29 C 0.71972 0.50418 0.98398 0.0
C30 C 0.61467 0.51893 0.93512 0.0
O31 O 0.62287 0.49606 0.95295 0.0
O32 O 0.61973 0.54823 0.94617 0.0
O33 O 0.93956 0.63533 0.47723 0.0
Cd34 Cd 0.9135 0.58176 0.4684 0.0
O35 O 0.96662 0.62878 0.52272 0.0
Cd36 Cd 0.93503 0.58541 0.52735 0.0
O37 O 0.88028 0.57222 0.52871 0.0
C38 C 0.86609 0.55399 0.54869 0.0
O39 O 0.88538 0.54 0.56957 0.0
C40 C 0.96024 0.64597 0.49916 0.0
C41 C 0.9253 0.56565 0.40302 0.0
O42 O 0.94663 0.55738 0.42442 0.0
O43 O 0.89748 0.58009 0.41275 0.0
O44 O 0.92356 0.87015 0.84144 0.0
Cd45 Cd 0.90005 0.84382 0.88973 0.0
O46 O 0.88539 0.90963 0.84669 0.0
Cd47 Cd 0.85527 0.89671 0.88971 0.0
O48 O 0.81227 0.90563 0.92486 0.0
C49 C 0.79109 0.92734 0.91767 0.0
O50 O 0.79635 0.94175 0.89061 0.0
C51 C 0.91095 0.89614 0.83157 0.0
C52 C 0.93207 0.78883 0.91323 0.0
O53 O 0.9101 0.78608 0.8902 0.0
O54 O 0.94015 0.81754 0.9243 0.0
O55 O 0.66253 0.12456 0.36755 0.0
Cd56 Cd 0.68316 0.14436 0.42157 0.0
O57 O 0.62764 0.16596 0.36279 0.0
Cd58 Cd 0.63612 0.19558 0.40812 0.0
O59 O 0.62508 0.23921 0.43995 0.0
C60 C 0.59839 0.25507 0.43297 0.0
O61 O 0.57959 0.24415 0.40828 0.0
C62 C 0.6403 0.1392 0.35141 0.0
C63 C 0.74386 0.11653 0.44427 0.0
O64 O 0.71404 0.10341 0.44856 0.0
O65 O 0.74516 0.1422 0.42849 0.0
O66 O 0.52433 0.65527 0.11255 0.0
Cd67 Cd 0.54286 0.60109 0.12384 0.0
O68 O 0.47059 0.64227 0.12416 0.0
Cd69 Cd 0.41451 0.6494 0.12729 0.0
O70 O 0.35909 0.63948 0.12137 0.0
C71 C 0.34563 0.642 0.09379 0.0
O72 O 0.36513 0.652 0.07006 0.0
C73 C 0.49276 0.66331 0.11605 0.0
C74 C 0.53984 0.59495 0.19044 0.0
O75 O 0.56682 0.60673 0.17691 0.0
O76 O 0.51446 0.58556 0.17237 0.0
O77 O 0.11327 0.55197 0.64219 0.0
Cd78 Cd 0.13095 0.55488 0.58573 0.0
O79 O 0.12827 0.50124 0.63429 0.0
Cd80 Cd 0.13129 0.45152 0.64844 0.0
O81 O 0.12547 0.40014 0.65542 0.0
C82 C 0.09762 0.38926 0.6676 0.0
O83 O 0.07308 0.40964 0.67708 0.0
C84 C 0.11718 0.52434 0.65323 0.0
C85 C 0.20249 0.54708 0.58101 0.0
O86 O 0.18204 0.52244 0.57999 0.0
O87 O 0.18905 0.57533 0.58366 0.0
C88 C 0.05468 0.03964 0.51222 0.0
N89 N 0.03617 0.0878 0.603 0.0
C90 C 0.0681 0.10116 0.5986 0.0
C91 C 0.07504 0.13293 0.60981 0.0
C92 C 0.04878 0.1515 0.6254 0.0
C93 C 0.0163 0.13687 0.63062 0.0
C94 C 0.0105 0.10473 0.61911 0.0
Zn95 Zn 0.02827 0.04245 0.58191 0.0
C96 C 0.96077 0.03611 0.54765 0.0
N97 N 0.0161 0.94863 0.53542 0.0
C98 C 0.04334 0.93348 0.51995 0.0
C99 C 0.98544 0.93295 0.53992 0.0
C100 C 0.9817 0.90036 0.52977 0.0
C101 C 0.00988 0.88371 0.51505 0.0
C102 C 0.04082 0.90078 0.50961 0.0
Zn103 Zn 0.02254 0.99396 0.55648 0.0
O104 O 0.051 0.05828 0.53768 0.0
C105 C 0.0902 1.0009 0.59026 0.0
O106 O 0.04486 0.01025 0.51287 0.0
H107 H 0.96426 0.94541 0.55255 0.0
H108 H 0.08813 0.08742 0.58562 0.0
H109 H 0.06747 0.94646 0.51662 0.0
O110 O 0.07765 0.02861 0.59793 0.0
O111 O 0.07262 0.98083 0.5725 0.0
H112 H 0.98529 0.09361 0.62227 0.0
O113 O 1.00064 0.97788 0.60051 0.0
O114 O 0.00561 0.02583 0.62586 0.0
O115 O 0.97242 0.00784 0.54048 0.0
O116 O 0.97879 0.05587 0.56544 0.0
C117 C 0.99684 0.99606 0.62626 0.0
H118 H 0.10065 0.143 0.60582 0.0
H119 H 0.99529 0.15042 0.64238 0.0
H120 H 0.95753 0.88796 0.53475 0.0
H121 H 0.063 0.88881 0.49807 0.0
C122 C 0.58531 0.00755 0.05224 0.0
N123 N 0.5475 0.10103 0.0481 0.0
C124 C 0.57983 0.1101 0.05808 0.0
C125 C 0.59467 0.13897 0.04902 0.0
C126 C 0.5763 0.15883 0.02923 0.0
C127 C 0.54313 0.14884 0.01876 0.0
C128 C 0.52903 0.11968 0.02871 0.0
Zn129 Zn 0.52951 0.05778 0.06333 0.0
C130 C 0.49636 0.01568 0.01224 0.0
N131 N 0.49893 0.96654 0.09742 0.0
C132 C 0.52061 0.94862 0.11459 0.0
C133 C 0.46791 0.95435 0.08678 0.0
C134 C 0.45858 0.92232 0.09161 0.0
C135 C 0.48117 0.90285 0.10796 0.0
C136 C 0.51206 0.91659 0.12037 0.0
Zn137 Zn 0.51523 0.01046 0.0827 0.0
O138 O 0.57727 0.03669 0.04834 0.0
C139 C 0.54942 0.05187 0.1337 0.0
O140 O 0.56396 0.98968 0.0668 0.0
H141 H 0.451 0.96905 0.07329 0.0
H142 H 0.5944 0.0948 0.07306 0.0
H143 H 0.54526 0.95869 0.12257 0.0
O144 O 0.54965 0.07049 0.11042 0.0
O145 O 0.5361 0.0237 0.12936 0.0
H146 H 0.50342 0.11194 0.02095 0.0
O147 O 0.46649 0.03211 0.09787 0.0
O148 O 0.48133 0.07847 0.07834 0.0
O149 O 0.4953 0.9976 0.03593 0.0
O150 O 0.5092 0.04408 0.01643 0.0
C151 C 0.45923 0.06139 0.09294 0.0
H152 H 0.62055 0.14547 0.05712 0.0
H153 H 0.52816 0.16359 1.00348 0.0
H154 H 0.43443 0.91259 0.08189 0.0
H155 H 0.53031 0.90221 0.13282 0.0
C156 C 0.54179 0.47392 0.5435 0.0
N157 N 0.54028 0.51547 0.63932 0.0
C158 C 0.52 0.49211 0.65192 0.0
C159 C 0.52377 0.48469 0.68425 0.0
C160 C 0.54913 0.50104 0.70319 0.0
C161 C 0.56973 0.52477 0.68954 0.0
C162 C 0.56457 0.53192 0.65759 0.0
Zn163 Zn 0.53543 0.52856 0.59275 0.0
C164 C 0.60489 0.54483 0.56437 0.0
N165 N 0.52839 0.55991 0.49684 0.0
C166 C 0.50702 0.54268 0.4761 0.0
C167 C 0.54872 0.58442 0.48661 0.0
C168 C 0.54888 0.59171 0.45412 0.0
C169 C 0.52761 0.57384 0.43209 0.0
C170 C 0.50606 0.54943 0.44352 0.0
Zn171 Zn 0.53212 0.54637 0.54328 0.0
O172 O 0.54092 0.47955 0.5741 0.0
C173 C 0.46264 0.53012 0.5708 0.0
O174 O 0.53837 0.49736 0.52538 0.0
H175 H 0.56543 0.59786 0.50352 0.0
H176 H 0.50075 0.47942 0.63702 0.0
H177 H 0.49134 0.52308 0.48463 0.0
O178 O 0.48029 0.52289 0.59504 0.0
O179 O 0.47818 0.53999 0.54599 0.0
H180 H 0.57988 0.55094 0.64753 0.0
O181 O 0.52548 0.5952 0.56207 0.0
O182 O 0.53007 0.57781 0.61081 0.0
O183 O 0.58647 0.55258 0.54095 0.0
O184 O 0.59015 0.5343 0.58926 0.0
C185 C 0.52554 0.60101 0.59264 0.0
H186 H 0.50733 0.46636 0.69428 0.0
H187 H 0.58913 0.5382 0.70373 0.0
H188 H 0.56567 0.6109 0.44623 0.0
H189 H 0.48957 0.53488 0.4272 0.0
C190 C 0.0193 0.58647 0.01174 0.0
N191 N 0.01499 0.5437 0.10206 0.0
C192 C 0.02213 0.57182 0.11969 0.0
C193 C 0.0117 0.5757 0.15224 0.0
C194 C 0.99397 0.55031 0.16659 0.0
C195 C 0.98625 0.52201 0.14748 0.0
C196 C 0.99707 0.51918 0.11526 0.0
Zn197 Zn 0.03241 0.53468 0.05559 0.0
C198 C 0.97617 0.50163 0.0158 0.0
N199 N 0.06657 0.50948 0.9591 0.0
C200 C 0.08583 0.53319 0.94599 0.0
C201 C 0.05513 0.48325 0.94057 0.0
C202 C 0.06145 0.4811 0.90711 0.0
C203 C 0.07969 0.50619 0.89279 0.0
C204 C 0.09293 0.53189 0.91289 0.0
Zn205 Zn 0.05005 0.51844 1.0059 0.0
O206 O 0.01543 0.58126 0.0416 0.0
C207 C 0.10565 0.55264 0.04636 0.0
O208 O 0.03288 0.56458 0.99283 0.0
H209 H 0.03969 0.46477 0.95145 0.0
H210 H 0.03651 0.59094 0.10872 0.0
H211 H 0.09435 0.55406 0.96094 0.0
O212 O 0.08148 0.55466 0.06753 0.0
O213 O 0.09963 0.53857 0.01873 0.0
H214 H 0.99161 0.497 0.10092 0.0
O215 O 0.0674 0.47221 0.01955 0.0
O216 O 0.04972 0.48804 0.06858 0.0
O217 O 0.99965 0.49893 0.99396 0.0
O218 O 0.98356 0.51507 0.04329 0.0
C219 C 0.06357 0.46657 0.04929 0.0
H220 H 0.0183 0.59788 0.16623 0.0
H221 H 0.9721 0.50209 0.1574 0.0
H222 H 0.05067 0.46089 0.89249 0.0
H223 H 0.10774 0.55142 0.903 0.0
H224 H 0.17322 0.06372 0.33486 0.0
H225 H 0.11733 0.15354 0.34856 0.0
H226 H 0.14646 0.04481 0.38376 0.0
H227 H 0.08992 0.13425 0.39757 0.0
H228 H 0.07724 0.10142 0.5022 0.0
H229 H 0.10277 0.12165 0.45298 0.0
H230 H 0.09161 0.02657 0.40457 0.0
H231 H 0.06668 0.00625 0.45384 0.0
C232 C 0.15506 0.07945 0.34821 0.0
C233 C 0.14747 0.11021 0.33762 0.0
C234 C 0.13949 0.06846 0.37626 0.0
C235 C 0.11583 0.08786 0.39468 0.0
C236 C 0.10825 0.11873 0.3842 0.0
C237 C 0.12382 0.12974 0.35597 0.0
C238 C 0.08023 0.08481 0.48106 0.0
C239 C 0.06999 0.05212 0.48212 0.0
C240 C 0.09468 0.09649 0.45271 0.0
C241 C 0.09939 0.07579 0.42469 0.0
C242 C 0.0889 0.04316 0.42575 0.0
C243 C 0.07441 0.03151 0.45403 0.0
H244 H 0.46458 0.89423 0.83487 0.0
H245 H 0.40315 0.97912 0.82226 0.0
H246 H 0.4833 0.91781 0.88759 0.0
H247 H 0.42171 1.00243 0.87479 0.0
H248 H 0.49152 0.04744 0.95608 0.0
H249 H 0.47423 0.0246 0.90261 0.0
H250 H 0.45731 0.93145 0.94186 0.0
H251 H 0.47459 0.95406 0.99504 0.0
C252 C 0.4551 0.91788 0.84326 0.0
C253 C 0.43228 0.93467 0.82428 0.0
C254 C 0.4657 0.93134 0.87355 0.0
C255 C 0.45399 0.96203 0.88542 0.0
C256 C 0.43151 0.97893 0.86626 0.0
C257 C 0.4207 0.9654 0.83618 0.0
C258 C 0.48397 0.02214 0.95331 0.0
C259 C 0.48443 1.00265 0.97991 0.0
C260 C 0.474 0.00905 0.92269 0.0
C261 C 0.46457 0.97613 0.91792 0.0
C262 C 0.4649 0.95675 0.94456 0.0
C263 C 0.47455 0.96985 0.97515 0.0
H264 H 0.61861 0.46228 0.89758 0.0
H265 H 0.57868 0.55953 0.89893 0.0
H266 H 0.59838 0.45191 0.84197 0.0
H267 H 0.55804 0.5489 0.84369 0.0
H268 H 0.50253 0.51081 0.75259 0.0
H269 H 0.5144 0.51086 0.81076 0.0
H270 H 0.61856 0.4784 0.78878 0.0
H271 H 0.60683 0.47898 0.73082 0.0
C272 C 0.60511 0.48125 0.88617 0.0
C273 C 0.6004 0.51179 0.90247 0.0
C274 C 0.5936 0.47531 0.85442 0.0
C275 C 0.57655 0.49956 0.83871 0.0
C276 C 0.57076 0.52968 0.85542 0.0
C277 C 0.58283 0.53583 0.8869 0.0
C278 C 0.52759 0.5029 0.76035 0.0
C279 C 0.5538 0.49483 0.73752 0.0
C280 C 0.53445 0.50313 0.79347 0.0
C281 C 0.5674 0.49472 0.80413 0.0
C282 C 0.59287 0.48471 0.78118 0.0
C283 C 0.58622 0.48508 0.74813 0.0
H284 H 0.88779 0.58456 0.35205 0.0
H285 H 0.98239 0.53647 0.3751 0.0
H286 H 0.90433 0.58069 0.29482 0.0
H287 H 0.9991 0.53309 0.31803 0.0
H288 H 1.00045 0.50379 0.20976 0.0
H289 H 0.98229 0.50609 0.26641 0.0
H290 H 0.94838 0.60453 0.25935 0.0
H291 H 0.96561 0.60185 0.20214 0.0
C292 C 0.91198 0.57297 0.3449 0.0
C293 C 0.93377 0.56079 0.36811 0.0
C294 C 0.9216 0.57104 0.31216 0.0
C295 C 0.95312 0.55679 0.30195 0.0
C296 C 0.97451 0.54396 0.32509 0.0
C297 C 0.96495 0.54596 0.35782 0.0
C298 C 0.98887 0.52585 0.22022 0.0
C299 C 0.98423 0.55258 0.20144 0.0
C300 C 0.97878 0.52727 0.25276 0.0
C301 C 0.96383 0.55545 0.26733 0.0
C302 C 0.95944 0.58233 0.24867 0.0
C303 C 0.96966 0.58094 0.21605 0.0
H304 H 0.27243 0.17817 0.13268 0.0
H305 H 0.27846 0.11451 0.21114 0.0
H306 H 0.3237 0.15265 0.10739 0.0
H307 H 0.32995 0.08979 0.18649 0.0
H308 H 0.40435 0.03108 0.12161 0.0
H309 H 0.35056 0.05507 0.14275 0.0
H310 H 0.38504 0.14861 0.11346 0.0
H311 H 0.43835 0.12441 0.09148 0.0
C312 C 0.28464 0.15879 0.14458 0.0
C313 C 0.27111 0.14847 0.17399 0.0
C314 C 0.31424 0.14424 0.13016 0.0
C315 C 0.33116 0.11902 0.14479 0.0
C316 C 0.31744 0.10867 0.1741 0.0
C317 C 0.28788 0.12309 0.18842 0.0
C318 C 0.4004 0.05674 0.11952 0.0
C319 C 0.42583 0.07577 0.1049 0.0
C320 C 0.36957 0.07059 0.13185 0.0
C321 C 0.36332 0.10393 0.13008 0.0
C322 C 0.38858 0.12283 0.11497 0.0
C323 C 0.41935 0.10894 0.10251 0.0
H324 H 0.26426 0.90807 0.67792 0.0
H325 H 0.30345 1.00245 0.65579 0.0
H326 H 0.20933 0.91972 0.65257 0.0
H327 H 0.24897 0.01378 0.63003 0.0
H328 H 0.1342 0.03915 0.62732 0.0
H329 H 0.19026 0.02516 0.64825 0.0
H330 H 0.18106 0.92922 0.60126 0.0
H331 H 0.12435 0.94309 0.58064 0.0
C332 C 0.26135 0.93111 0.66729 0.0
C333 C 0.28818 0.95443 0.66915 0.0
C334 C 0.2299 0.93774 0.65264 0.0
C335 C 0.22459 0.96783 0.63955 0.0
C336 C 0.25191 0.99062 0.64042 0.0
C337 C 0.28327 0.98402 0.65505 0.0
C338 C 0.14408 0.01507 0.62134 0.0
C339 C 0.12473 0.99225 0.60228 0.0
C340 C 0.17641 0.00711 0.63319 0.0
C341 C 0.19031 0.97611 0.62631 0.0
C342 C 0.17099 0.95323 0.60723 0.0
C343 C 0.13858 0.96124 0.59527 0.0
H344 H 0.76241 0.53537 0.02728 0.0
H345 H 0.76274 0.46314 0.94716 0.0
H346 H 0.82437 0.52874 0.03335 0.0
H347 H 0.82526 0.45597 0.95372 0.0
H348 H 0.94403 0.49251 0.95691 0.0
H349 H 0.88135 0.48863 0.94785 0.0
H350 H 0.86353 0.48652 0.05094 0.0
H351 H 0.92556 0.49079 0.05999 0.0
C352 C 0.77569 0.51789 0.01104 0.0
C353 C 0.7575 0.49942 0.98706 0.0
C354 C 0.8112 0.51388 0.01471 0.0
C355 C 0.82962 0.49145 0.99434 0.0
C356 C 0.81168 0.4733 0.96989 0.0
C357 C 0.77585 0.47714 0.96638 0.0
C358 C 0.92671 0.49043 0.97751 0.0
C359 C 0.93965 0.49248 0.00919 0.0
C360 C 0.89085 0.48821 0.97233 0.0
C361 C 0.86753 0.48796 0.99876 0.0
C362 C 0.8808 0.48745 0.03015 0.0
C363 C 0.91638 0.48976 0.03531 0.0
H364 H 0.81931 0.58826 0.51636 0.0
H365 H 0.82635 0.51341 0.5841 0.0
H366 H 0.75659 0.58626 0.52059 0.0
H367 H 0.76318 0.51046 0.5874 0.0
H368 H 0.65148 0.539 0.61277 0.0
H369 H 0.71454 0.54045 0.60857 0.0
H370 H 0.70756 0.55423 0.50617 0.0
H371 H 0.64464 0.55406 0.51069 0.0
C372 C 0.80745 0.57102 0.53186 0.0
C373 C 0.82786 0.551 0.54994 0.0
C374 C 0.77137 0.56976 0.53416 0.0
C375 C 0.75471 0.54819 0.55432 0.0
C376 C 0.77513 0.52775 0.57203 0.0
C377 C 0.81134 0.52924 0.56996 0.0
C378 C 0.66347 0.5425 0.5894 0.0
C379 C 0.6431 0.54658 0.56209 0.0
C380 C 0.69963 0.54304 0.58693 0.0
C381 C 0.71622 0.54737 0.55701 0.0
C382 C 0.69573 0.55138 0.52971 0.0
C383 C 0.65961 0.55118 0.53226 0.0
H384 H 0.09018 0.28068 0.13568 0.0
H385 H 0.19197 0.32503 0.13543 0.0
H386 H 0.06731 0.32605 0.10756 0.0
H387 H 0.16916 0.36995 0.10646 0.0
H388 H 0.11575 0.42683 0.02528 0.0
H389 H 0.13862 0.3787 0.04922 0.0
H390 H 0.06194 0.38896 0.1259 0.0
H391 H 0.03977 0.43742 0.10267 0.0
C392 C 0.10779 0.29986 0.12924 0.0
C393 C 0.14292 0.29922 0.13788 0.0
C394 C 0.09463 0.32589 0.11325 0.0
C395 C 0.11644 0.35154 0.10479 0.0
C396 C 0.15179 0.35043 0.11248 0.0
C397 C 0.16479 0.32477 0.12917 0.0
C398 C 0.10363 0.41865 0.0471 0.0
C399 C 0.07593 0.43596 0.06205 0.0
C400 C 0.11685 0.39123 0.06089 0.0
C401 C 0.10204 0.38006 0.08942 0.0
C402 C 0.07375 0.39686 0.10382 0.0
C403 C 0.06113 0.42467 0.09053 0.0
H404 H 0.72392 0.31467 0.01209 0.0
H405 H 0.64372 0.33891 0.94613 0.0
H406 H 0.69246 0.2653 0.02346 0.0
H407 H 0.61175 0.28986 0.95819 0.0
H408 H 0.57963 0.18265 0.96893 0.0
H409 H 0.61125 0.23089 0.95304 0.0
H410 H 0.64022 0.25254 0.05268 0.0
H411 H 0.60921 0.20436 0.06827 0.0
C412 C 0.69965 0.3094 0.99989 0.0
C413 C 0.68622 0.33086 0.97841 0.0
C414 C 0.68146 0.28121 0.0066 0.0
C415 C 0.64929 0.27389 0.99213 0.0
C416 C 0.6365 0.2947 0.96964 0.0
C417 C 0.65481 0.32287 0.96281 0.0
C418 C 0.59245 0.19801 0.9874 0.0
C419 C 0.59228 0.18962 0.01977 0.0
C420 C 0.6106 0.22557 0.97833 0.0
C421 C 0.62875 0.24528 1.00151 0.0
C422 C 0.62737 0.23742 0.03405 0.0
C423 C 0.60944 0.20992 0.04304 0.0
H424 H 0.99693 0.6812 0.54583 0.0
H425 H 0.95589 0.6858 0.44953 0.0
H426 H 0.01349 0.73835 0.5459 0.0
H427 H 0.97285 0.74255 0.44952 0.0
H428 H 0.95666 0.8496 0.48605 0.0
H429 H 0.94977 0.79096 0.47945 0.0
H430 H 0.05091 0.77916 0.52045 0.0
H431 H 0.05745 0.838 0.52778 0.0
C432 C 0.99202 0.69421 0.52449 0.0
C433 C 0.97465 0.6791 0.49789 0.0
C434 C 1.00163 0.72689 0.52447 0.0
C435 C 0.99407 0.74497 0.49784 0.0
C436 C 0.97843 0.72936 0.4706 0.0
C437 C 0.96883 0.69681 0.47061 0.0
C438 C 0.9775 0.83447 0.49343 0.0
C439 C 0.0075 0.84832 0.50753 0.0
C440 C 0.97372 0.80091 0.4894 0.0
C441 C 0.99982 0.78049 0.49948 0.0
C442 C 0.03029 0.79433 0.5127 0.0
C443 C 0.03416 0.82796 0.51657 0.0
H444 H 0.40815 0.76194 0.67562 0.0
H445 H 0.51347 0.79493 0.69161 0.0
H446 H 0.42971 0.71172 0.64832 0.0
H447 H 0.53493 0.74409 0.66514 0.0
H448 H 0.54396 0.62717 0.65236 0.0
H449 H 0.52636 0.6794 0.67851 0.0
H450 H 0.47006 0.70029 0.59309 0.0
H451 H 0.48848 0.64855 0.56646 0.0
C452 C 0.43588 0.75833 0.67361 0.0
C453 C 0.45912 0.7824 0.6858 0.0
C454 C 0.44818 0.7297 0.65782 0.0
C455 C 0.48394 0.72417 0.65455 0.0
C456 C 0.50723 0.74782 0.66737 0.0
C457 C 0.49494 0.77686 0.68247 0.0
C458 C 0.52825 0.64312 0.63899 0.0
C459 C 0.51768 0.6338 0.60731 0.0
C460 C 0.51824 0.67297 0.65395 0.0
C461 C 0.49674 0.6937 0.63784 0.0
C462 C 0.48654 0.68463 0.60605 0.0
C463 C 0.49726 0.65515 0.59077 0.0
H464 H 0.89372 0.95422 0.80846 0.0
H465 H 0.96024 0.872 0.78763 0.0
H466 H 0.91461 0.97824 0.75968 0.0
H467 H 0.98156 0.89641 0.73869 0.0
H468 H 0.9807 0.93267 0.63545 0.0
H469 H 0.9615 0.90891 0.68509 0.0
H470 H 0.96529 1.00332 0.73587 0.0
H471 H 0.98422 0.02724 0.686 0.0
C472 C 0.91299 0.94126 0.79359 0.0
C473 C 0.92519 0.91102 0.80213 0.0
C474 C 0.92516 0.95523 0.7656 0.0
C475 C 0.94983 0.93938 0.74509 0.0
C476 C 0.96227 0.90921 0.75368 0.0
C477 C 0.95021 0.89527 0.78189 0.0
C478 C 0.97735 0.94847 0.65714 0.0
C479 C 0.98395 0.98199 0.65657 0.0
C480 C 0.96661 0.93472 0.68576 0.0
C481 C 0.96192 0.95407 0.71467 0.0
C482 C 0.96829 0.98765 0.71405 0.0
C483 C 0.97924 1.0014 0.68543 0.0
H484 H 0.65471 0.07941 0.32105 0.0
H485 H 0.59861 0.16754 0.30885 0.0
H486 H 0.63397 0.05722 0.26836 0.0
H487 H 0.57787 0.14537 0.25682 0.0
H488 H 0.5771 0.11147 0.15058 0.0
H489 H 0.60057 0.13123 0.2025 0.0
H490 H 0.57923 0.03844 0.24103 0.0
H491 H 0.55589 0.01837 0.18866 0.0
C492 C 0.63804 0.09407 0.30719 0.0
C493 C 0.62845 0.12533 0.31926 0.0
C494 C 0.62598 0.08127 0.2771 0.0
C495 C 0.60435 0.09956 0.25827 0.0
C496 C 0.59488 0.13077 0.2704 0.0
C497 C 0.60667 0.14343 0.30042 0.0
C498 C 0.5774 0.09516 0.17003 0.0
C499 C 0.56436 0.06335 0.16542 0.0
C500 C 0.59077 0.10658 0.19991 0.0
C501 C 0.5916 0.08652 0.22606 0.0
C502 C 0.5792 0.05447 0.22134 0.0
C503 C 0.56562 0.04303 0.19138 0.0
H504 H 0.49243 0.56143 0.22511 0.0
H505 H 0.58275 0.62357 0.23596 0.0
H506 H 0.48948 0.55744 0.28354 0.0
H507 H 0.57901 0.62079 0.29449 0.0
H508 H 0.5852 0.57982 0.39408 0.0
H509 H 0.58802 0.58534 0.33587 0.0
H510 H 0.47602 0.58658 0.33303 0.0
H511 H 0.47343 0.57993 0.39118 0.0
C512 C 0.5115 0.57444 0.24003 0.0
C513 C 0.53791 0.59268 0.22593 0.0
C514 C 0.50967 0.57238 0.27358 0.0
C515 C 0.53397 0.58884 0.29387 0.0
C516 C 0.5602 0.60732 0.27967 0.0
C517 C 0.56227 0.60906 0.24609 0.0
C518 C 0.56123 0.58162 0.38101 0.0
C519 C 0.5291 0.57944 0.3971 0.0
C520 C 0.5628 0.58485 0.34763 0.0
C521 C 0.53224 0.58634 0.3296 0.0
C522 C 0.50008 0.58485 0.34594 0.0
C523 C 0.49854 0.58123 0.37928 0.0
H524 H 0.15153 0.48638 0.69331 0.0
H525 H 0.06566 0.55207 0.69064 0.0
H526 H 0.13986 0.47969 0.75049 0.0
H527 H 0.05365 0.5453 0.74794 0.0
H528 H 0.0727 0.55842 0.85663 0.0
H529 H 0.08016 0.56101 0.79857 0.0
H530 H 0.09955 0.45813 0.78932 0.0
H531 H 0.09367 0.45583 0.84805 0.0
C532 C 0.12953 0.49866 0.70477 0.0
C533 C 0.10906 0.51925 0.68745 0.0
C534 C 0.12291 0.49494 0.73759 0.0
C535 C 0.09577 0.51188 0.75381 0.0
C536 C 0.07503 0.5322 0.73628 0.0
C537 C 0.08179 0.53602 0.70348 0.0
C538 C 0.07894 0.53637 0.84232 0.0
C539 C 0.08309 0.50699 0.85706 0.0
C540 C 0.08266 0.53777 0.8089 0.0
C541 C 0.09037 0.50977 0.78924 0.0
C542 C 0.09395 0.48021 0.80384 0.0
C543 C 0.09029 0.47882 0.83743 0.0
H544 H 0.7709 0.90293 0.97566 0.0
H545 H 0.74391 0.9742 0.90864 0.0
H546 H 0.72267 0.92119 0.01135 0.0
H547 H 0.69606 0.99196 0.94376 0.0
H548 H 0.63825 0.04177 0.02633 0.0
H549 H 0.68874 0.02114 0.9964 0.0
H550 H 0.65743 0.92325 0.01395 0.0
H551 H 0.60662 0.94406 0.04459 0.0
C552 C 0.75469 0.92237 0.96849 0.0
C553 C 0.76147 0.93721 0.93935 0.0
C554 C 0.727 0.93273 0.98886 0.0
C555 C 0.70573 0.9583 0.98061 0.0
C556 C 0.7123 0.97267 0.95124 0.0
C557 C 0.73971 0.9623 0.93094 0.0
C558 C 0.64217 0.01583 0.02416 0.0
C559 C 0.61811 0.99456 0.03761 0.0
C560 C 0.6711 1.00398 0.0068 0.0
C561 C 0.67685 0.9705 1.00225 0.0
C562 C 0.65378 0.94918 0.01703 0.0
C563 C 0.62465 0.9611 0.03453 0.0
H564 H 0.7506 0.05999 0.47472 0.0
H565 H 0.80911 0.14315 0.4458 0.0
H566 H 0.80222 0.03979 0.50017 0.0
H567 H 0.86061 0.1229 0.4711 0.0
H568 H 0.9332 0.09688 0.55182 0.0
H569 H 0.88086 0.11521 0.52653 0.0
H570 H 0.86098 0.01797 0.48646 0.0
H571 H 0.91342 0.99948 0.51191 0.0
C572 C 0.7745 0.07387 0.4736 0.0
C573 C 0.77564 0.10324 0.45824 0.0
C574 C 0.80412 0.06222 0.4881 0.0
C575 C 0.83552 0.07981 0.48787 0.0
C576 C 0.83674 0.10897 0.47214 0.0
C577 C 0.80723 0.12047 0.45742 0.0
C578 C 0.91761 0.0793 0.5378 0.0
C579 C 0.92763 0.04668 0.53389 0.0
C580 C 0.8877 0.0899 0.52308 0.0
C581 C 0.86683 0.06813 0.50424 0.0
C582 C 0.87636 0.03534 0.50094 0.0
C583 C 0.90649 0.02477 0.51546 0.0
H584 H 0.30013 0.61475 0.13578 0.0
H585 H 0.309 0.64524 0.03804 0.0
H586 H 0.2419 0.59396 0.12449 0.0
H587 H 0.25048 0.62516 0.02701 0.0
H588 H 0.16341 0.55086 0.00731 0.0
H589 H 0.22054 0.57379 0.01937 0.0
H590 H 0.18336 0.61006 0.11364 0.0
H591 H 0.12639 0.58644 0.10189 0.0
C592 C 0.28952 0.61735 0.11199 0.0
C593 C 0.30931 0.63152 0.08776 0.0
C594 C 0.25605 0.60556 0.10556 0.0
C595 C 0.24155 0.60772 0.07478 0.0
C596 C 0.26107 0.62258 0.0508 0.0
C597 C 0.29456 0.6343 0.05721 0.0
C598 C 0.16741 0.5637 0.03063 0.0
C599 C 0.14034 0.56673 0.05366 0.0
C600 C 0.20012 0.57707 0.03746 0.0
C601 C 0.20655 0.59387 0.06746 0.0
C602 C 0.17943 0.59695 0.09046 0.0
C603 C 0.14671 0.58353 0.08365 0.0
H604 H 0.23942 0.49205 0.58868 0.0
H605 H 0.2515 0.5932 0.57021 0.0
H606 H 0.30251 0.48591 0.58653 0.0
H607 H 0.31429 0.5869 0.56783 0.0
H608 H 0.41899 0.55283 0.52666 0.0
H609 H 0.3561 0.55542 0.52937 0.0
H610 H 0.35599 0.50827 0.61944 0.0
H611 H 0.41948 0.50579 0.61699 0.0
C612 C 0.25551 0.51291 0.58408 0.0
C613 C 0.24052 0.54309 0.57949 0.0
C614 C 0.29155 0.50941 0.58306 0.0
C615 C 0.31316 0.5359 0.57692 0.0
C616 C 0.29816 0.56602 0.57232 0.0
C617 C 0.26224 0.56963 0.57379 0.0
C618 C 0.40569 0.54278 0.547 0.0
C619 C 0.42429 0.52923 0.57173 0.0
C620 C 0.36965 0.54444 0.54858 0.0
C621 C 0.35127 0.5323 0.57472 0.0
C622 C 0.36962 0.51774 0.59897 0.0
C623 C 0.40589 0.51642 0.59761 0.0
H624 H 0.97194 0.78624 0.96751 0.0
H625 H 0.92422 0.72521 0.89171 0.0
H626 H 0.99333 0.73816 0.99206 0.0
H627 H 0.9454 0.6773 0.91627 0.0
H628 H 0.01996 0.6012 0.94841 0.0
H629 H 1.00009 0.6501 0.92524 0.0
H630 H 0.97194 0.69042 0.02068 0.0
H631 H 0.99215 0.64114 0.04416 0.0
C632 C 0.96613 0.7626 0.95598 0.0
C633 C 0.94645 0.75968 0.9275 0.0
C634 C 0.97816 0.73501 0.97023 0.0
C635 C 0.97113 0.70378 0.9562 0.0
C636 C 0.95168 0.70093 0.92759 0.0
C637 C 0.93941 0.72846 0.91351 0.0
C638 C 0.0096 0.62043 0.96462 0.0
C639 C 0.00761 0.61706 0.99826 0.0
C640 C 0.99799 0.64849 0.95122 0.0
C641 C 0.98419 0.67422 0.97099 0.0
C642 C 0.98264 0.67117 1.00472 0.0
C643 C 0.99407 0.64286 0.01819 0.0
H644 H 0.44562 0.7 0.15136 0.0
H645 H 0.51894 0.7029 0.07185 0.0
H646 H 0.43603 0.75832 0.14903 0.0
H647 H 0.50898 0.76089 0.0692 0.0
H648 H 0.46303 0.86018 0.0582 0.0
H649 H 0.45894 0.80117 0.0585 0.0
H650 H 0.48047 0.80705 0.16081 0.0
H651 H 0.48489 0.86617 0.16049 0.0
C652 C 0.45886 0.71292 0.1328 0.0
C653 C 0.48281 0.69701 0.1116 0.0
C654 C 0.45363 0.74625 0.13169 0.0
C655 C 0.47175 0.76397 0.10892 0.0
C656 C 0.49445 0.7477 0.08677 0.0
C657 C 0.50021 0.71461 0.08834 0.0
C658 C 0.46615 0.8489 0.08089 0.0
C659 C 0.47434 0.86767 0.10933 0.0
C660 C 0.46399 0.8152 0.08099 0.0
C661 C 0.4694 0.79968 0.10965 0.0
C662 C 0.47589 0.8185 0.13846 0.0
C663 C 0.47865 0.85222 0.13824 0.0
H664 H 0.14343 0.34119 0.65067 0.0
H665 H 0.03807 0.35733 0.68429 0.0
H666 H 0.13164 0.28328 0.64414 0.0
H667 H 0.02619 0.29919 0.67724 0.0
H668 H 0.02839 0.18687 0.6809 0.0
H669 H 0.04085 0.24417 0.69548 0.0
H670 H 0.0957 0.25162 0.60454 0.0
H671 H 0.08309 0.19506 0.58991 0.0
C672 C 0.11783 0.33238 0.65694 0.0
C673 C 0.09154 0.35392 0.66756 0.0
C674 C 0.11105 0.2992 0.65307 0.0
C675 C 0.07784 0.28679 0.65969 0.0
C676 C 0.05205 0.30807 0.67202 0.0
C677 C 0.05884 0.34137 0.67591 0.0
C678 C 0.04292 0.20088 0.66401 0.0
C679 C 0.05517 0.18632 0.63445 0.0
C680 C 0.0501 0.23359 0.67238 0.0
C681 C 0.06972 0.25219 0.65137 0.0
C682 C 0.08133 0.23771 0.62163 0.0
C683 C 0.07408 0.20525 0.61325 0.0
H684 H 0.54405 0.29431 0.422 0.0
H685 H 0.63117 0.28575 0.48532 0.0
H686 H 0.52913 0.34578 0.45009 0.0
H687 H 0.61634 0.3378 0.51333 0.0
H688 H 0.55867 0.41915 0.57392 0.0
H689 H 0.57161 0.3654 0.54873 0.0
H690 H 0.55322 0.40048 0.45446 0.0
H691 H 0.53998 0.45377 0.47945 0.0
C692 C 0.56006 0.30336 0.44196 0.0
C693 C 0.58895 0.28589 0.45126 0.0
C694 C 0.55156 0.33303 0.45799 0.0
C695 C 0.57166 0.34609 0.48383 0.0
C696 C 0.60015 0.32832 0.49367 0.0
C697 C 0.60876 0.29857 0.4775 0.0
C698 C 0.55716 0.41529 0.54784 0.0
C699 C 0.54818 0.4408 0.52874 0.0
C700 C 0.56483 0.38456 0.53339 0.0
C701 C 0.56341 0.37858 0.49957 0.0
C702 C 0.55412 0.40406 0.4806 0.0
C703 C 0.54667 0.43472 0.49496 0.0
loop_
_geom_bond_atom_site_label_1
_geom_bond_atom_site_label_2
_geom_bond_distance
_geom_bond_site_symmetry_2
_ccdc_geom_bond_type
O0 Cd1 2.300 . S
O0 C7 1.275 . S
Cd1 O0 2.300 . S
Cd1 O9 2.381 . S
Cd1 O10 2.378 . S
O2 Cd3 2.385 . S
O2 C7 1.255 . S
Cd3 O2 2.385 . S
Cd3 O4 2.317 . S
O4 Cd3 2.317 . S
O4 C5 1.232 . S
C5 O4 1.232 . S
C5 O6 1.218 . S
O6 C5 1.218 . S
C7 O0 1.275 . S
C7 O2 1.255 . S
C8 O9 1.258 . S
C8 O10 1.256 . S
O9 Cd1 2.381 . S
O9 C8 1.258 . S
O10 Cd1 2.378 . S
O10 C8 1.256 . S
O11 Cd12 2.300 . S
O11 C18 1.275 . S
Cd12 O11 2.300 . S
Cd12 O20 2.381 . S
Cd12 O21 2.378 . S
O13 Cd14 2.385 . S
O13 C18 1.255 . S
Cd14 O13 2.385 . S
Cd14 O15 2.317 . S
O15 Cd14 2.317 . S
O15 C16 1.232 . S
C16 O15 1.232 . S
C16 O17 1.218 . S
O17 C16 1.218 . S
C18 O11 1.275 . S
C18 O13 1.255 . S
C19 O20 1.258 . S
C19 O21 1.256 . S
O20 Cd12 2.381 . S
O20 C19 1.258 . S
O21 Cd12 2.378 . S
O21 C19 1.256 . S
O22 Cd23 2.300 . S
O22 C29 1.275 . S
Cd23 O22 2.300 . S
Cd23 O31 2.381 . S
Cd23 O32 2.378 . S
O24 Cd25 2.385 . S
O24 C29 1.255 . S
Cd25 O24 2.385 . S
Cd25 O26 2.317 . S
O26 Cd25 2.317 . S
O26 C27 1.232 . S
C27 O26 1.232 . S
C27 O28 1.218 1_556 S
O28 C27 1.218 1_554 S
C29 O22 1.275 . S
C29 O24 1.255 . S
C30 O31 1.258 . S
C30 O32 1.256 . S
O31 Cd23 2.381 . S
O31 C30 1.258 . S
O32 Cd23 2.378 . S
O32 C30 1.256 . S
O33 Cd34 2.300 . S
O33 C40 1.275 . S
Cd34 O33 2.300 . S
Cd34 O42 2.381 . S
Cd34 O43 2.378 . S
O35 Cd36 2.385 . S
O35 C40 1.255 . S
Cd36 O35 2.385 . S
Cd36 O37 2.317 . S
O37 Cd36 2.317 . S
O37 C38 1.232 . S
C38 O37 1.232 . S
C38 O39 1.218 . S
O39 C38 1.218 . S
C40 O33 1.275 . S
C40 O35 1.255 . S
C41 O42 1.258 . S
C41 O43 1.256 . S
O42 Cd34 2.381 . S
O42 C41 1.258 . S
O43 Cd34 2.378 . S
O43 C41 1.256 . S
O44 Cd45 2.300 . S
O44 C51 1.275 . S
Cd45 O44 2.300 . S
Cd45 O53 2.381 . S
Cd45 O54 2.378 . S
O46 Cd47 2.385 . S
O46 C51 1.255 . S
Cd47 O46 2.385 . S
Cd47 O48 2.317 . S
O48 Cd47 2.317 . S
O48 C49 1.232 . S
C49 O48 1.232 . S
C49 O50 1.218 . S
O50 C49 1.218 . S
C51 O44 1.275 . S
C51 O46 1.255 . S
C52 O53 1.258 . S
C52 O54 1.256 . S
O53 Cd45 2.381 . S
O53 C52 1.258 . S
O54 Cd45 2.378 . S
O54 C52 1.256 . S
O55 Cd56 2.300 . S
O55 C62 1.275 . S
Cd56 O55 2.300 . S
Cd56 O64 2.381 . S
Cd56 O65 2.378 . S
O57 Cd58 2.385 . S
O57 C62 1.255 . S
Cd58 O57 2.385 . S
Cd58 O59 2.317 . S
O59 Cd58 2.317 . S
O59 C60 1.232 . S
C60 O59 1.232 . S
C60 O61 1.218 . S
O61 C60 1.218 . S
C62 O55 1.275 . S
C62 O57 1.255 . S
C63 O64 1.258 . S
C63 O65 1.256 . S
O64 Cd56 2.381 . S
O64 C63 1.258 . S
O65 Cd56 2.378 . S
O65 C63 1.256 . S
O66 Cd67 2.300 . S
O66 C73 1.275 . S
Cd67 O66 2.300 . S
Cd67 O75 2.381 . S
Cd67 O76 2.378 . S
O68 Cd69 2.385 . S
O68 C73 1.255 . S
Cd69 O68 2.385 . S
Cd69 O70 2.317 . S
O70 Cd69 2.317 . S
O70 C71 1.232 . S
C71 O70 1.232 . S
C71 O72 1.218 . S
O72 C71 1.218 . S
C73 O66 1.275 . S
C73 O68 1.255 . S
C74 O75 1.258 . S
C74 O76 1.256 . S
O75 Cd67 2.381 . S
O75 C74 1.258 . S
O76 Cd67 2.378 . S
O76 C74 1.256 . S
O77 Cd78 2.300 . S
O77 C84 1.275 . S
Cd78 O77 2.300 . S
Cd78 O86 2.381 . S
Cd78 O87 2.378 . S
O79 Cd80 2.385 . S
O79 C84 1.255 . S
Cd80 O79 2.385 . S
Cd80 O81 2.317 . S
O81 Cd80 2.317 . S
O81 C82 1.232 . S
C82 O81 1.232 . S
C82 O83 1.218 . S
O83 C82 1.218 . S
C84 O77 1.275 . S
C84 O79 1.255 . S
C85 O86 1.258 . S
C85 O87 1.256 . S
O86 Cd78 2.381 . S
O86 C85 1.258 . S
O87 Cd78 2.378 . S
O87 C85 1.256 . S
C88 O104 1.251 . S
C88 O106 1.254 . S
N89 C90 1.333 . S
N89 C94 1.307 . S
N89 Zn95 2.020 . S
C90 N89 1.333 . S
C90 C91 1.379 . S
C90 H108 0.952 . S
C91 C90 1.379 . S
C91 C92 1.390 . S
C91 H118 0.949 . S
C92 C91 1.390 . S
C92 C93 1.357 . S
C93 C92 1.357 . S
C93 C94 1.370 . S
C93 H119 0.950 . S
C94 N89 1.307 . S
C94 C93 1.370 . S
C94 H112 0.948 . S
Zn95 N89 2.020 . S
Zn95 O104 2.039 . S
Zn95 O110 2.034 . S
Zn95 O114 2.025 . S
Zn95 O116 2.024 1_455 S
C96 O115 1.246 . S
C96 O116 1.249 . S
N97 C98 1.307 1_655 S
N97 C99 1.333 . S
N97 Zn103 2.020 1_655 S
C98 N97 1.307 1_455 S
C98 C102 1.370 1_455 S
C98 H109 0.948 . S
C99 N97 1.333 . S
C99 C100 1.379 . S
C99 H107 0.952 . S
C100 C99 1.379 . S
C100 C101 1.390 . S
C100 H120 0.949 . S
C101 C100 1.390 . S
C101 C102 1.357 . S
C102 C98 1.370 1_655 S
C102 C101 1.357 . S
C102 H121 0.950 1_655 S
Zn103 N97 2.020 1_455 S
Zn103 O106 2.025 1_565 S
Zn103 O111 2.024 . S
Zn103 O113 2.039 1_455 S
Zn103 O115 2.034 1_465 S
O104 C88 1.251 . S
O104 Zn95 2.039 . S
C105 O110 1.246 1_565 S
C105 O111 1.249 . S
O106 C88 1.254 . S
O106 Zn103 2.025 1_545 S
H107 C99 0.952 . S
H108 C90 0.952 . S
H109 C98 0.948 . S
O110 Zn95 2.034 . S
O110 C105 1.246 1_545 S
O111 Zn103 2.024 . S
O111 C105 1.249 . S
H112 C94 0.948 . S
O113 Zn103 2.039 1_655 S
O113 C117 1.251 1_565 S
O114 Zn95 2.025 . S
O114 C117 1.254 1_455 S
O115 C96 1.246 . S
O115 Zn103 2.034 1_645 S
O116 Zn95 2.024 1_655 S
O116 C96 1.249 . S
C117 O113 1.251 1_545 S
C117 O114 1.254 1_655 S
H118 C91 0.949 . S
H119 C93 0.950 . S
H120 C100 0.949 . S
H121 C102 0.950 1_455 S
C122 O138 1.251 . S
C122 O140 1.254 1_545 S
N123 C124 1.333 . S
N123 C128 1.307 . S
N123 Zn129 2.020 . S
C124 N123 1.333 . S
C124 C125 1.379 . S
C124 H142 0.952 . S
C125 C124 1.379 . S
C125 C126 1.390 . S
C125 H152 0.949 . S
C126 C125 1.390 . S
C126 C127 1.357 . S
C127 C126 1.357 . S
C127 C128 1.370 . S
C127 H153 0.950 . S
C128 N123 1.307 . S
C128 C127 1.370 . S
C128 H146 0.948 . S
Zn129 N123 2.020 . S
Zn129 O138 2.039 . S
Zn129 O144 2.034 . S
Zn129 O148 2.025 . S
Zn129 O150 2.024 . S
C130 O149 1.246 1_545 S
C130 O150 1.249 . S
N131 C132 1.307 . S
N131 C133 1.333 . S
N131 Zn137 2.020 . S
C132 N131 1.307 . S
C132 C136 1.370 . S
C132 H143 0.948 . S
C133 N131 1.333 . S
C133 C134 1.379 . S
C133 H141 0.952 . S
C134 C133 1.379 . S
C134 C135 1.390 . S
C134 H154 0.949 . S
C135 C134 1.390 . S
C135 C136 1.357 . S
C136 C132 1.370 . S
C136 C135 1.357 . S
C136 H155 0.950 . S
Zn137 N131 2.020 . S
Zn137 O140 2.025 . S
Zn137 O145 2.024 1_565 S
Zn137 O147 2.039 1_565 S
Zn137 O149 2.034 . S
O138 C122 1.251 . S
O138 Zn129 2.039 . S
C139 O144 1.246 . S
C139 O145 1.249 . S
O140 C122 1.254 1_565 S
O140 Zn137 2.025 . S
H141 C133 0.952 . S
H142 C124 0.952 . S
H143 C132 0.948 . S
O144 Zn129 2.034 . S
O144 C139 1.246 . S
O145 Zn137 2.024 1_545 S
O145 C139 1.249 . S
H146 C128 0.948 . S
O147 Zn137 2.039 1_545 S
O147 C151 1.251 . S
O148 Zn129 2.025 . S
O148 C151 1.254 . S
O149 C130 1.246 1_565 S
O149 Zn137 2.034 . S
O150 Zn129 2.024 . S
O150 C130 1.249 . S
C151 O147 1.251 . S
C151 O148 1.254 . S
H152 C125 0.949 . S
H153 C127 0.950 . S
H154 C134 0.949 . S
H155 C136 0.950 . S
C156 O172 1.251 . S
C156 O174 1.254 . S
N157 C158 1.333 . S
N157 C162 1.307 . S
N157 Zn163 2.020 . S
C158 N157 1.333 . S
C158 C159 1.379 . S
C158 H176 0.952 . S
C159 C158 1.379 . S
C159 C160 1.390 . S
C159 H186 0.949 . S
C160 C159 1.390 . S
C160 C161 1.357 . S
C161 C160 1.357 . S
C161 C162 1.370 . S
C161 H187 0.950 . S
C162 N157 1.307 . S
C162 C161 1.370 . S
C162 H180 0.948 . S
Zn163 N157 2.020 . S
Zn163 O172 2.039 . S
Zn163 O178 2.034 . S
Zn163 O182 2.025 . S
Zn163 O184 2.024 . S
C164 O183 1.246 . S
C164 O184 1.249 . S
N165 C166 1.307 . S
N165 C167 1.333 . S
N165 Zn171 2.020 . S
C166 N165 1.307 . S
C166 C170 1.370 . S
C166 H177 0.948 . S
C167 N165 1.333 . S
C167 C168 1.379 . S
C167 H175 0.952 . S
C168 C167 1.379 . S
C168 C169 1.390 . S
C168 H188 0.949 . S
C169 C168 1.390 . S
C169 C170 1.357 . S
C170 C166 1.370 . S
C170 C169 1.357 . S
C170 H189 0.950 . S
Zn171 N165 2.020 . S
Zn171 O174 2.025 . S
Zn171 O179 2.024 . S
Zn171 O181 2.039 . S
Zn171 O183 2.034 . S
O172 C156 1.251 . S
O172 Zn163 2.039 . S
C173 O178 1.246 . S
C173 O179 1.249 . S
O174 C156 1.254 . S
O174 Zn171 2.025 . S
H175 C167 0.952 . S
H176 C158 0.952 . S
H177 C166 0.948 . S
O178 Zn163 2.034 . S
O178 C173 1.246 . S
O179 Zn171 2.024 . S
O179 C173 1.249 . S
H180 C162 0.948 . S
O181 Zn171 2.039 . S
O181 C185 1.251 . S
O182 Zn163 2.025 . S
O182 C185 1.254 . S
O183 C164 1.246 . S
O183 Zn171 2.034 . S
O184 Zn163 2.024 . S
O184 C164 1.249 . S
C185 O181 1.251 . S
C185 O182 1.254 . S
H186 C159 0.949 . S
H187 C161 0.950 . S
H188 C168 0.949 . S
H189 C170 0.950 . S
C190 O206 1.251 . S
C190 O208 1.254 1_554 S
N191 C192 1.333 . S
N191 C196 1.307 1_455 S
N191 Zn197 2.020 . S
C192 N191 1.333 . S
C192 C193 1.379 1_455 S
C192 H210 0.952 . S
C193 C192 1.379 1_655 S
C193 C194 1.390 . S
C193 H220 0.949 . S
C194 C193 1.390 . S
C194 C195 1.357 . S
C195 C194 1.357 . S
C195 C196 1.370 . S
C195 H221 0.950 . S
C196 N191 1.307 1_655 S
C196 C195 1.370 . S
C196 H214 0.948 . S
Zn197 N191 2.020 . S
Zn197 O206 2.039 . S
Zn197 O212 2.034 . S
Zn197 O216 2.025 . S
Zn197 O218 2.024 1_455 S
C198 O217 1.246 1_554 S
C198 O218 1.249 . S
N199 C200 1.307 . S
N199 C201 1.333 . S
N199 Zn205 2.020 . S
C200 N199 1.307 . S
C200 C204 1.370 . S
C200 H211 0.948 . S
C201 N199 1.333 . S
C201 C202 1.379 . S
C201 H209 0.952 . S
C202 C201 1.379 . S
C202 C203 1.390 . S
C202 H222 0.949 . S
C203 C202 1.390 . S
C203 C204 1.357 . S
C204 C200 1.370 . S
C204 C203 1.357 . S
C204 H223 0.950 . S
Zn205 N199 2.020 . S
Zn205 O208 2.025 . S
Zn205 O213 2.024 1_556 S
Zn205 O215 2.039 1_556 S
Zn205 O217 2.034 1_455 S
O206 C190 1.251 . S
O206 Zn197 2.039 . S
C207 O212 1.246 . S
C207 O213 1.249 . S
O208 C190 1.254 1_556 S
O208 Zn205 2.025 . S
H209 C201 0.952 . S
H210 C192 0.952 . S
H211 C200 0.948 . S
O212 Zn197 2.034 . S
O212 C207 1.246 . S
O213 Zn205 2.024 1_554 S
O213 C207 1.249 . S
H214 C196 0.948 . S
O215 Zn205 2.039 1_554 S
O215 C219 1.251 . S
O216 Zn197 2.025 . S
O216 C219 1.254 . S
O217 C198 1.246 1_556 S
O217 Zn205 2.034 1_655 S
O218 Zn197 2.024 1_655 S
O218 C198 1.249 . S
C219 O215 1.251 . S
C219 O216 1.254 . S
H220 C193 0.949 . S
H221 C195 0.950 . S
H222 C202 0.949 . S
H223 C204 0.950 . S
H224 C232 0.950 . S
H225 C237 0.950 . S
H226 C234 0.950 . S
H227 C236 0.950 . S
H228 C238 0.950 . S
H229 C240 0.950 . S
H230 C242 0.950 . S
H231 C243 0.950 . S
C232 H224 0.950 . S
C232 C233 1.386 . S
C232 C234 1.391 . S
C233 C232 1.386 . S
C233 C237 1.393 . S
C234 H226 0.950 . S
C234 C232 1.391 . S
C234 C235 1.400 . S
C235 C234 1.400 . S
C235 C236 1.398 . S
C235 C241 1.491 . S
C236 H227 0.950 . S
C236 C235 1.398 . S
C236 C237 1.391 . S
C237 H225 0.950 . S
C237 C233 1.393 . S
C237 C236 1.391 . S
C238 H228 0.950 . S
C238 C239 1.386 . S
C238 C240 1.391 . S
C239 C238 1.386 . S
C239 C243 1.393 . S
C240 H229 0.950 . S
C240 C238 1.391 . S
C240 C241 1.400 . S
C241 C235 1.491 . S
C241 C240 1.400 . S
C241 C242 1.398 . S
C242 H230 0.950 . S
C242 C241 1.398 . S
C242 C243 1.391 . S
C243 H231 0.950 . S
C243 C239 1.393 . S
C243 C242 1.391 . S
H244 C252 0.950 . S
H245 C257 0.950 1_545 S
H246 C254 0.950 . S
H247 C256 0.950 1_545 S
H248 C258 0.950 . S
H249 C260 0.950 . S
H250 C262 0.950 . S
H251 C263 0.950 . S
C252 H244 0.950 . S
C252 C253 1.386 . S
C252 C254 1.391 . S
C253 C252 1.386 . S
C253 C257 1.393 . S
C254 H246 0.950 . S
C254 C252 1.391 . S
C254 C255 1.400 . S
C255 C254 1.400 . S
C255 C256 1.398 . S
C255 C261 1.491 . S
C256 H247 0.950 1_565 S
C256 C255 1.398 . S
C256 C257 1.391 . S
C257 H245 0.950 1_565 S
C257 C253 1.393 . S
C257 C256 1.391 . S
C258 H248 0.950 . S
C258 C259 1.386 1_545 S
C258 C260 1.391 . S
C259 C258 1.386 1_565 S
C259 C263 1.393 . S
C260 H249 0.950 . S
C260 C258 1.391 . S
C260 C261 1.400 1_545 S
C261 C255 1.491 . S
C261 C260 1.400 1_565 S
C261 C262 1.398 . S
C262 H250 0.950 . S
C262 C261 1.398 . S
C262 C263 1.391 . S
C263 H251 0.950 . S
C263 C259 1.393 . S
C263 C262 1.391 . S
H264 C272 0.950 . S
H265 C277 0.950 . S
H266 C274 0.950 . S
H267 C276 0.950 . S
H268 C278 0.950 . S
H269 C280 0.950 . S
H270 C282 0.950 . S
H271 C283 0.950 . S
C272 H264 0.950 . S
C272 C273 1.386 . S
C272 C274 1.391 . S
C273 C272 1.386 . S
C273 C277 1.393 . S
C274 H266 0.950 . S
C274 C272 1.391 . S
C274 C275 1.400 . S
C275 C274 1.400 . S
C275 C276 1.398 . S
C275 C281 1.491 . S
C276 H267 0.950 . S
C276 C275 1.398 . S
C276 C277 1.391 . S
C277 H265 0.950 . S
C277 C273 1.393 . S
C277 C276 1.391 . S
C278 H268 0.950 . S
C278 C279 1.386 . S
C278 C280 1.391 . S
C279 C278 1.386 . S
C279 C283 1.393 . S
C280 H269 0.950 . S
C280 C278 1.391 . S
C280 C281 1.400 . S
C281 C275 1.491 . S
C281 C280 1.400 . S
C281 C282 1.398 . S
C282 H270 0.950 . S
C282 C281 1.398 . S
C282 C283 1.391 . S
C283 H271 0.950 . S
C283 C279 1.393 . S
C283 C282 1.391 . S
H284 C292 0.950 . S
H285 C297 0.950 . S
H286 C294 0.950 . S
H287 C296 0.950 1_455 S
H288 C298 0.950 . S
H289 C300 0.950 1_455 S
H290 C302 0.950 . S
H291 C303 0.950 . S
C292 H284 0.950 . S
C292 C293 1.386 . S
C292 C294 1.391 . S
C293 C292 1.386 . S
C293 C297 1.393 . S
C294 H286 0.950 . S
C294 C292 1.391 . S
C294 C295 1.400 . S
C295 C294 1.400 . S
C295 C296 1.398 . S
C295 C301 1.491 . S
C296 H287 0.950 1_655 S
C296 C295 1.398 . S
C296 C297 1.391 . S
C297 H285 0.950 . S
C297 C293 1.393 . S
C297 C296 1.391 . S
C298 H288 0.950 . S
C298 C299 1.386 1_455 S
C298 C300 1.391 1_455 S
C299 C298 1.386 1_655 S
C299 C303 1.393 . S
C300 H289 0.950 1_655 S
C300 C298 1.391 1_655 S
C300 C301 1.400 . S
C301 C295 1.491 . S
C301 C300 1.400 . S
C301 C302 1.398 . S
C302 H290 0.950 . S
C302 C301 1.398 . S
C302 C303 1.391 . S
C303 H291 0.950 . S
C303 C299 1.393 . S
C303 C302 1.391 . S
H304 C312 0.950 . S
H305 C317 0.950 . S
H306 C314 0.950 . S
H307 C316 0.950 . S
H308 C318 0.950 . S
H309 C320 0.950 . S
H310 C322 0.950 . S
H311 C323 0.950 . S
C312 H304 0.950 . S
C312 C313 1.386 . S
C312 C314 1.391 . S
C313 C312 1.386 . S
C313 C317 1.393 . S
C314 H306 0.950 . S
C314 C312 1.391 . S
C314 C315 1.400 . S
C315 C314 1.400 . S
C315 C316 1.398 . S
C315 C321 1.491 . S
C316 H307 0.950 . S
C316 C315 1.398 . S
C316 C317 1.391 . S
C317 H305 0.950 . S
C317 C313 1.393 . S
C317 C316 1.391 . S
C318 H308 0.950 . S
C318 C319 1.386 . S
C318 C320 1.391 . S
C319 C318 1.386 . S
C319 C323 1.393 . S
C320 H309 0.950 . S
C320 C318 1.391 . S
C320 C321 1.400 . S
C321 C315 1.491 . S
C321 C320 1.400 . S
C321 C322 1.398 . S
C322 H310 0.950 . S
C322 C321 1.398 . S
C322 C323 1.391 . S
C323 H311 0.950 . S
C323 C319 1.393 . S
C323 C322 1.391 . S
H324 C332 0.950 . S
H325 C337 0.950 . S
H326 C334 0.950 . S
H327 C336 0.950 . S
H328 C338 0.950 1_545 S
H329 C340 0.950 . S
H330 C342 0.950 . S
H331 C343 0.950 . S
C332 H324 0.950 . S
C332 C333 1.386 . S
C332 C334 1.391 . S
C333 C332 1.386 . S
C333 C337 1.393 . S
C334 H326 0.950 . S
C334 C332 1.391 . S
C334 C335 1.400 . S
C335 C334 1.400 . S
C335 C336 1.398 . S
C335 C341 1.491 . S
C336 H327 0.950 . S
C336 C335 1.398 . S
C336 C337 1.391 . S
C337 H325 0.950 . S
C337 C333 1.393 . S
C337 C336 1.391 . S
C338 H328 0.950 1_565 S
C338 C339 1.386 . S
C338 C340 1.391 . S
C339 C338 1.386 . S
C339 C343 1.393 . S
C340 H329 0.950 . S
C340 C338 1.391 . S
C340 C341 1.400 . S
C341 C335 1.491 . S
C341 C340 1.400 . S
C341 C342 1.398 . S
C342 H330 0.950 . S
C342 C341 1.398 . S
C342 C343 1.391 . S
C343 H331 0.950 . S
C343 C339 1.393 . S
C343 C342 1.391 . S
H344 C352 0.950 . S
H345 C357 0.950 . S
H346 C354 0.950 . S
H347 C356 0.950 . S
H348 C358 0.950 . S
H349 C360 0.950 . S
H350 C362 0.950 . S
H351 C363 0.950 . S
C352 H344 0.950 . S
C352 C353 1.386 1_554 S
C352 C354 1.391 . S
C353 C352 1.386 1_556 S
C353 C357 1.393 . S
C354 H346 0.950 . S
C354 C352 1.391 . S
C354 C355 1.400 1_554 S
C355 C354 1.400 1_556 S
C355 C356 1.398 . S
C355 C361 1.491 . S
C356 H347 0.950 . S
C356 C355 1.398 . S
C356 C357 1.391 . S
C357 H345 0.950 . S
C357 C353 1.393 . S
C357 C356 1.391 . S
C358 H348 0.950 . S
C358 C359 1.386 . S
C358 C360 1.391 . S
C359 C358 1.386 . S
C359 C363 1.393 1_556 S
C360 H349 0.950 . S
C360 C358 1.391 . S
C360 C361 1.400 . S
C361 C355 1.491 . S
C361 C360 1.400 . S
C361 C362 1.398 1_556 S
C362 H350 0.950 . S
C362 C361 1.398 1_554 S
C362 C363 1.391 . S
C363 H351 0.950 . S
C363 C359 1.393 1_554 S
C363 C362 1.391 . S
H364 C372 0.950 . S
H365 C377 0.950 . S
H366 C374 0.950 . S
H367 C376 0.950 . S
H368 C378 0.950 . S
H369 C380 0.950 . S
H370 C382 0.950 . S
H371 C383 0.950 . S
C372 H364 0.950 . S
C372 C373 1.386 . S
C372 C374 1.391 . S
C373 C372 1.386 . S
C373 C377 1.393 . S
C374 H366 0.950 . S
C374 C372 1.391 . S
C374 C375 1.400 . S
C375 C374 1.400 . S
C375 C376 1.398 . S
C375 C381 1.491 . S
C376 H367 0.950 . S
C376 C375 1.398 . S
C376 C377 1.391 . S
C377 H365 0.950 . S
C377 C373 1.393 . S
C377 C376 1.391 . S
C378 H368 0.950 . S
C378 C379 1.386 . S
C378 C380 1.391 . S
C379 C378 1.386 . S
C379 C383 1.393 . S
C380 H369 0.950 . S
C380 C378 1.391 . S
C380 C381 1.400 . S
C381 C375 1.491 . S
C381 C380 1.400 . S
C381 C382 1.398 . S
C382 H370 0.950 . S
C382 C381 1.398 . S
C382 C383 1.391 . S
C383 H371 0.950 . S
C383 C379 1.393 . S
C383 C382 1.391 . S
H384 C392 0.950 . S
H385 C397 0.950 . S
H386 C394 0.950 . S
H387 C396 0.950 . S
H388 C398 0.950 . S
H389 C400 0.950 . S
H390 C402 0.950 . S
H391 C403 0.950 . S
C392 H384 0.950 . S
C392 C393 1.386 . S
C392 C394 1.391 . S
C393 C392 1.386 . S
C393 C397 1.393 . S
C394 H386 0.950 . S
C394 C392 1.391 . S
C394 C395 1.400 . S
C395 C394 1.400 . S
C395 C396 1.398 . S
C395 C401 1.491 . S
C396 H387 0.950 . S
C396 C395 1.398 . S
C396 C397 1.391 . S
C397 H385 0.950 . S
C397 C393 1.393 . S
C397 C396 1.391 . S
C398 H388 0.950 . S
C398 C399 1.386 . S
C398 C400 1.391 . S
C399 C398 1.386 . S
C399 C403 1.393 . S
C400 H389 0.950 . S
C400 C398 1.391 . S
C400 C401 1.400 . S
C401 C395 1.491 . S
C401 C400 1.400 . S
C401 C402 1.398 . S
C402 H390 0.950 . S
C402 C401 1.398 . S
C402 C403 1.391 . S
C403 H391 0.950 . S
C403 C399 1.393 . S
C403 C402 1.391 . S
H404 C412 0.950 . S
H405 C417 0.950 . S
H406 C414 0.950 . S
H407 C416 0.950 . S
H408 C418 0.950 . S
H409 C420 0.950 . S
H410 C422 0.950 . S
H411 C423 0.950 . S
C412 H404 0.950 . S
C412 C413 1.386 . S
C412 C414 1.391 . S
C413 C412 1.386 . S
C413 C417 1.393 1_554 S
C414 H406 0.950 . S
C414 C412 1.391 . S
C414 C415 1.400 . S
C415 C414 1.400 . S
C415 C416 1.398 1_554 S
C415 C421 1.491 . S
C416 H407 0.950 . S
C416 C415 1.398 1_556 S
C416 C417 1.391 . S
C417 H405 0.950 . S
C417 C413 1.393 1_556 S
C417 C416 1.391 . S
C418 H408 0.950 . S
C418 C419 1.386 1_556 S
C418 C420 1.391 . S
C419 C418 1.386 1_554 S
C419 C423 1.393 . S
C420 H409 0.950 . S
C420 C418 1.391 . S
C420 C421 1.400 1_556 S
C421 C415 1.491 . S
C421 C420 1.400 1_554 S
C421 C422 1.398 . S
C422 H410 0.950 . S
C422 C421 1.398 . S
C422 C423 1.391 . S
C423 H411 0.950 . S
C423 C419 1.393 . S
C423 C422 1.391 . S
H424 C432 0.950 . S
H425 C437 0.950 . S
H426 C434 0.950 . S
H427 C436 0.950 . S
H428 C438 0.950 . S
H429 C440 0.950 . S
H430 C442 0.950 . S
H431 C443 0.950 1_455 S
C432 H424 0.950 . S
C432 C433 1.386 . S
C432 C434 1.391 . S
C433 C432 1.386 . S
C433 C437 1.393 . S
C434 H426 0.950 . S
C434 C432 1.391 . S
C434 C435 1.400 . S
C435 C434 1.400 . S
C435 C436 1.398 . S
C435 C441 1.491 . S
C436 H427 0.950 . S
C436 C435 1.398 . S
C436 C437 1.391 . S
C437 H425 0.950 . S
C437 C433 1.393 . S
C437 C436 1.391 . S
C438 H428 0.950 . S
C438 C439 1.386 . S
C438 C440 1.391 . S
C439 C438 1.386 . S
C439 C443 1.393 . S
C440 H429 0.950 . S
C440 C438 1.391 . S
C440 C441 1.400 . S
C441 C435 1.491 . S
C441 C440 1.400 . S
C441 C442 1.398 . S
C442 H430 0.950 . S
C442 C441 1.398 . S
C442 C443 1.391 . S
C443 H431 0.950 1_655 S
C443 C439 1.393 . S
C443 C442 1.391 . S
H444 C452 0.950 . S
H445 C457 0.950 . S
H446 C454 0.950 . S
H447 C456 0.950 . S
H448 C458 0.950 . S
H449 C460 0.950 . S
H450 C462 0.950 . S
H451 C463 0.950 . S
C452 H444 0.950 . S
C452 C453 1.386 . S
C452 C454 1.391 . S
C453 C452 1.386 . S
C453 C457 1.393 . S
C454 H446 0.950 . S
C454 C452 1.391 . S
C454 C455 1.400 . S
C455 C454 1.400 . S
C455 C456 1.398 . S
C455 C461 1.491 . S
C456 H447 0.950 . S
C456 C455 1.398 . S
C456 C457 1.391 . S
C457 H445 0.950 . S
C457 C453 1.393 . S
C457 C456 1.391 . S
C458 H448 0.950 . S
C458 C459 1.386 . S
C458 C460 1.391 . S
C459 C458 1.386 . S
C459 C463 1.393 . S
C460 H449 0.950 . S
C460 C458 1.391 . S
C460 C461 1.400 . S
C461 C455 1.491 . S
C461 C460 1.400 . S
C461 C462 1.398 . S
C462 H450 0.950 . S
C462 C461 1.398 . S
C462 C463 1.391 . S
C463 H451 0.950 . S
C463 C459 1.393 . S
C463 C462 1.391 . S
H464 C472 0.950 . S
H465 C477 0.950 . S
H466 C474 0.950 . S
H467 C476 0.950 . S
H468 C478 0.950 . S
H469 C480 0.950 . S
H470 C482 0.950 1_545 S
H471 C483 0.950 1_455 S
C472 H464 0.950 . S
C472 C473 1.386 . S
C472 C474 1.391 . S
C473 C472 1.386 . S
C473 C477 1.393 . S
C474 H466 0.950 . S
C474 C472 1.391 . S
C474 C475 1.400 . S
C475 C474 1.400 . S
C475 C476 1.398 . S
C475 C481 1.491 . S
C476 H467 0.950 . S
C476 C475 1.398 . S
C476 C477 1.391 . S
C477 H465 0.950 . S
C477 C473 1.393 . S
C477 C476 1.391 . S
C478 H468 0.950 . S
C478 C479 1.386 . S
C478 C480 1.391 . S
C479 C478 1.386 . S
C479 C483 1.393 1_565 S
C480 H469 0.950 . S
C480 C478 1.391 . S
C480 C481 1.400 . S
C481 C475 1.491 . S
C481 C480 1.400 . S
C481 C482 1.398 . S
C482 H470 0.950 1_565 S
C482 C481 1.398 . S
C482 C483 1.391 1_565 S
C483 H471 0.950 1_655 S
C483 C479 1.393 1_545 S
C483 C482 1.391 1_545 S
H484 C492 0.950 . S
H485 C497 0.950 . S
H486 C494 0.950 . S
H487 C496 0.950 . S
H488 C498 0.950 . S
H489 C500 0.950 . S
H490 C502 0.950 . S
H491 C503 0.950 . S
C492 H484 0.950 . S
C492 C493 1.386 . S
C492 C494 1.391 . S
C493 C492 1.386 . S
C493 C497 1.393 . S
C494 H486 0.950 . S
C494 C492 1.391 . S
C494 C495 1.400 . S
C495 C494 1.400 . S
C495 C496 1.398 . S
C495 C501 1.491 . S
C496 H487 0.950 . S
C496 C495 1.398 . S
C496 C497 1.391 . S
C497 H485 0.950 . S
C497 C493 1.393 . S
C497 C496 1.391 . S
C498 H488 0.950 . S
C498 C499 1.386 . S
C498 C500 1.391 . S
C499 C498 1.386 . S
C499 C503 1.393 . S
C500 H489 0.950 . S
C500 C498 1.391 . S
C500 C501 1.400 . S
C501 C495 1.491 . S
C501 C500 1.400 . S
C501 C502 1.398 . S
C502 H490 0.950 . S
C502 C501 1.398 . S
C502 C503 1.391 . S
C503 H491 0.950 . S
C503 C499 1.393 . S
C503 C502 1.391 . S
H504 C512 0.950 . S
H505 C517 0.950 . S
H506 C514 0.950 . S
H507 C516 0.950 . S
H508 C518 0.950 . S
H509 C520 0.950 . S
H510 C522 0.950 . S
H511 C523 0.950 . S
C512 H504 0.950 . S
C512 C513 1.386 . S
C512 C514 1.391 . S
C513 C512 1.386 . S
C513 C517 1.393 . S
C514 H506 0.950 . S
C514 C512 1.391 . S
C514 C515 1.400 . S
C515 C514 1.400 . S
C515 C516 1.398 . S
C515 C521 1.491 . S
C516 H507 0.950 . S
C516 C515 1.398 . S
C516 C517 1.391 . S
C517 H505 0.950 . S
C517 C513 1.393 . S
C517 C516 1.391 . S
C518 H508 0.950 . S
C518 C519 1.386 . S
C518 C520 1.391 . S
C519 C518 1.386 . S
C519 C523 1.393 . S
C520 H509 0.950 . S
C520 C518 1.391 . S
C520 C521 1.400 . S
C521 C515 1.491 . S
C521 C520 1.400 . S
C521 C522 1.398 . S
C522 H510 0.950 . S
C522 C521 1.398 . S
C522 C523 1.391 . S
C523 H511 0.950 . S
C523 C519 1.393 . S
C523 C522 1.391 . S
H524 C532 0.950 . S
H525 C537 0.950 . S
H526 C534 0.950 . S
H527 C536 0.950 . S
H528 C538 0.950 . S
H529 C540 0.950 . S
H530 C542 0.950 . S
H531 C543 0.950 . S
C532 H524 0.950 . S
C532 C533 1.386 . S
C532 C534 1.391 . S
C533 C532 1.386 . S
C533 C537 1.393 . S
C534 H526 0.950 . S
C534 C532 1.391 . S
C534 C535 1.400 . S
C535 C534 1.400 . S
C535 C536 1.398 . S
C535 C541 1.491 . S
C536 H527 0.950 . S
C536 C535 1.398 . S
C536 C537 1.391 . S
C537 H525 0.950 . S
C537 C533 1.393 . S
C537 C536 1.391 . S
C538 H528 0.950 . S
C538 C539 1.386 . S
C538 C540 1.391 . S
C539 C538 1.386 . S
C539 C543 1.393 . S
C540 H529 0.950 . S
C540 C538 1.391 . S
C540 C541 1.400 . S
C541 C535 1.491 . S
C541 C540 1.400 . S
C541 C542 1.398 . S
C542 H530 0.950 . S
C542 C541 1.398 . S
C542 C543 1.391 . S
C543 H531 0.950 . S
C543 C539 1.393 . S
C543 C542 1.391 . S
H544 C552 0.939 1_554 S
H545 C557 0.950 . S
H546 C554 0.950 . S
H547 C556 0.950 . S
H548 C558 0.950 . S
H549 C560 0.950 . S
H550 C562 0.950 . S
H551 C563 0.950 . S
C552 H544 0.939 1_556 S
C552 C553 1.402 . S
C552 C554 1.386 1_556 S
C553 C552 1.402 . S
C553 C557 1.393 . S
C554 H546 0.950 . S
C554 C552 1.386 1_554 S
C554 C555 1.400 1_554 S
C555 C554 1.400 1_556 S
C555 C556 1.398 . S
C555 C561 1.491 1_556 S
C556 H547 0.950 . S
C556 C555 1.398 . S
C556 C557 1.391 . S
C557 H545 0.950 . S
C557 C553 1.393 . S
C557 C556 1.391 . S
C558 H548 0.950 . S
C558 C559 1.386 1_556 S
C558 C560 1.391 . S
C559 C558 1.386 1_554 S
C559 C563 1.393 . S
C560 H549 0.950 . S
C560 C558 1.391 . S
C560 C561 1.400 1_556 S
C561 C555 1.491 1_554 S
C561 C560 1.400 1_554 S
C561 C562 1.398 . S
C562 H550 0.950 . S
C562 C561 1.398 . S
C562 C563 1.391 . S
C563 H551 0.950 . S
C563 C559 1.393 . S
C563 C562 1.391 . S
H564 C572 0.950 . S
H565 C577 0.950 . S
H566 C574 0.950 . S
H567 C576 0.950 . S
H568 C578 0.950 . S
H569 C580 0.950 . S
H570 C582 0.950 . S
H571 C583 0.950 . S
C572 H564 0.950 . S
C572 C573 1.386 . S
C572 C574 1.391 . S
C573 C572 1.386 . S
C573 C577 1.393 . S
C574 H566 0.950 . S
C574 C572 1.391 . S
C574 C575 1.400 . S
C575 C574 1.400 . S
C575 C576 1.398 . S
C575 C581 1.491 . S
C576 H567 0.950 . S
C576 C575 1.398 . S
C576 C577 1.391 . S
C577 H565 0.950 . S
C577 C573 1.393 . S
C577 C576 1.391 . S
C578 H568 0.950 . S
C578 C579 1.386 . S
C578 C580 1.391 . S
C579 C578 1.386 . S
C579 C583 1.393 . S
C580 H569 0.950 . S
C580 C578 1.391 . S
C580 C581 1.400 . S
C581 C575 1.491 . S
C581 C580 1.400 . S
C581 C582 1.398 . S
C582 H570 0.950 . S
C582 C581 1.398 . S
C582 C583 1.391 . S
C583 H571 0.950 . S
C583 C579 1.393 . S
C583 C582 1.391 . S
H584 C592 0.950 . S
H585 C597 0.950 . S
H586 C594 0.950 . S
H587 C596 0.950 . S
H588 C598 0.950 . S
H589 C600 0.950 . S
H590 C602 0.950 . S
H591 C603 0.950 . S
C592 H584 0.950 . S
C592 C593 1.386 . S
C592 C594 1.391 . S
C593 C592 1.386 . S
C593 C597 1.393 . S
C594 H586 0.950 . S
C594 C592 1.391 . S
C594 C595 1.400 . S
C595 C594 1.400 . S
C595 C596 1.398 . S
C595 C601 1.491 . S
C596 H587 0.950 . S
C596 C595 1.398 . S
C596 C597 1.391 . S
C597 H585 0.950 . S
C597 C593 1.393 . S
C597 C596 1.391 . S
C598 H588 0.950 . S
C598 C599 1.386 . S
C598 C600 1.391 . S
C599 C598 1.386 . S
C599 C603 1.393 . S
C600 H589 0.950 . S
C600 C598 1.391 . S
C600 C601 1.400 . S
C601 C595 1.491 . S
C601 C600 1.400 . S
C601 C602 1.398 . S
C602 H590 0.950 . S
C602 C601 1.398 . S
C602 C603 1.391 . S
C603 H591 0.950 . S
C603 C599 1.393 . S
C603 C602 1.391 . S
H604 C612 0.950 . S
H605 C617 0.950 . S
H606 C614 0.950 . S
H607 C616 0.950 . S
H608 C618 0.950 . S
H609 C620 0.950 . S
H610 C622 0.950 . S
H611 C623 0.950 . S
C612 H604 0.950 . S
C612 C613 1.386 . S
C612 C614 1.391 . S
C613 C612 1.386 . S
C613 C617 1.393 . S
C614 H606 0.950 . S
C614 C612 1.391 . S
C614 C615 1.400 . S
C615 C614 1.400 . S
C615 C616 1.398 . S
C615 C621 1.491 . S
C616 H607 0.950 . S
C616 C615 1.398 . S
C616 C617 1.391 . S
C617 H605 0.950 . S
C617 C613 1.393 . S
C617 C616 1.391 . S
C618 H608 0.950 . S
C618 C619 1.386 . S
C618 C620 1.391 . S
C619 C618 1.386 . S
C619 C623 1.393 . S
C620 H609 0.950 . S
C620 C618 1.391 . S
C620 C621 1.400 . S
C621 C615 1.491 . S
C621 C620 1.400 . S
C621 C622 1.398 . S
C622 H610 0.950 . S
C622 C621 1.398 . S
C622 C623 1.391 . S
C623 H611 0.950 . S
C623 C619 1.393 . S
C623 C622 1.391 . S
H624 C632 0.950 . S
H625 C637 0.950 . S
H626 C634 0.950 1_454 S
H627 C636 0.950 . S
H628 C638 0.950 . S
H629 C640 0.950 . S
H630 C642 0.950 . S
H631 C643 0.950 . S
C632 H624 0.950 . S
C632 C633 1.386 . S
C632 C634 1.391 . S
C633 C632 1.386 . S
C633 C637 1.393 . S
C634 H626 0.950 1_656 S
C634 C632 1.391 . S
C634 C635 1.400 . S
C635 C634 1.400 . S
C635 C636 1.398 . S
C635 C641 1.491 . S
C636 H627 0.950 . S
C636 C635 1.398 . S
C636 C637 1.391 . S
C637 H625 0.950 . S
C637 C633 1.393 . S
C637 C636 1.391 . S
C638 H628 0.950 . S
C638 C639 1.386 1_655 S
C638 C640 1.391 . S
C639 C638 1.386 1_455 S
C639 C643 1.393 1_556 S
C640 H629 0.950 . S
C640 C638 1.391 . S
C640 C641 1.400 . S
C641 C635 1.491 . S
C641 C640 1.400 . S
C641 C642 1.398 1_656 S
C642 H630 0.950 . S
C642 C641 1.398 1_454 S
C642 C643 1.391 . S
C643 H631 0.950 . S
C643 C639 1.393 1_554 S
C643 C642 1.391 . S
H644 C652 0.950 . S
H645 C657 0.950 . S
H646 C654 0.950 . S
H647 C656 0.950 . S
H648 C658 0.950 . S
H649 C660 0.950 . S
H650 C662 0.950 . S
H651 C663 0.950 . S
C652 H644 0.950 . S
C652 C653 1.386 . S
C652 C654 1.391 . S
C653 C652 1.386 . S
C653 C657 1.393 . S
C654 H646 0.950 . S
C654 C652 1.391 . S
C654 C655 1.400 . S
C655 C654 1.400 . S
C655 C656 1.398 . S
C655 C661 1.491 . S
C656 H647 0.950 . S
C656 C655 1.398 . S
C656 C657 1.391 . S
C657 H645 0.950 . S
C657 C653 1.393 . S
C657 C656 1.391 . S
C658 H648 0.950 . S
C658 C659 1.386 . S
C658 C660 1.391 . S
C659 C658 1.386 . S
C659 C663 1.393 . S
C660 H649 0.950 . S
C660 C658 1.391 . S
C660 C661 1.400 . S
C661 C655 1.491 . S
C661 C660 1.400 . S
C661 C662 1.398 . S
C662 H650 0.950 . S
C662 C661 1.398 . S
C662 C663 1.391 . S
C663 H651 0.950 . S
C663 C659 1.393 . S
C663 C662 1.391 . S
H664 C672 0.950 . S
H665 C677 0.950 . S
H666 C674 0.950 . S
H667 C676 0.950 . S
H668 C678 0.950 . S
H669 C680 0.950 . S
H670 C682 0.950 . S
H671 C683 0.950 . S
C672 H664 0.950 . S
C672 C673 1.386 . S
C672 C674 1.391 . S
C673 C672 1.386 . S
C673 C677 1.393 . S
C674 H666 0.950 . S
C674 C672 1.391 . S
C674 C675 1.400 . S
C675 C674 1.400 . S
C675 C676 1.398 . S
C675 C681 1.491 . S
C676 H667 0.950 . S
C676 C675 1.398 . S
C676 C677 1.391 . S
C677 H665 0.950 . S
C677 C673 1.393 . S
C677 C676 1.391 . S
C678 H668 0.950 . S
C678 C679 1.386 . S
C678 C680 1.391 . S
C679 C678 1.386 . S
C679 C683 1.393 . S
C680 H669 0.950 . S
C680 C678 1.391 . S
C680 C681 1.400 . S
C681 C675 1.491 . S
C681 C680 1.400 . S
C681 C682 1.398 . S
C682 H670 0.950 . S
C682 C681 1.398 . S
C682 C683 1.391 . S
C683 H671 0.950 . S
C683 C679 1.393 . S
C683 C682 1.391 . S
H684 C692 0.950 . S
H685 C697 0.950 . S
H686 C694 0.950 . S
H687 C696 0.950 . S
H688 C698 0.950 . S
H689 C700 0.950 . S
H690 C702 0.950 . S
H691 C703 0.950 . S
C692 H684 0.950 . S
C692 C693 1.386 . S
C692 C694 1.391 . S
C693 C692 1.386 . S
C693 C697 1.393 . S
C694 H686 0.950 . S
C694 C692 1.391 . S
C694 C695 1.400 . S
C695 C694 1.400 . S
C695 C696 1.398 . S
C695 C701 1.491 . S
C696 H687 0.950 . S
C696 C695 1.398 . S
C696 C697 1.391 . S
C697 H685 0.950 . S
C697 C693 1.393 . S
C697 C696 1.391 . S
C698 H688 0.950 . S
C698 C699 1.386 . S
C698 C700 1.391 . S
C699 C698 1.386 . S
C699 C703 1.393 . S
C700 H689 0.950 . S
C700 C698 1.391 . S
C700 C701 1.400 . S
C701 C695 1.491 . S
C701 C700 1.400 . S
C701 C702 1.398 . S
C702 H690 0.950 . S
C702 C701 1.398 . S
C702 C703 1.391 . S
C703 H691 0.950 . S
C703 C699 1.393 . S
C703 C702 1.391 . S
C233 C5 2.502 . S
C239 C88 2.650 . S
C253 C18 2.263 . S
C259 C130 2.397 1_566 S
C279 C160 0.804 . S
C273 C30 0.783 . S
C293 C41 0.815 . S
C299 C194 0.807 . S
C319 C151 2.120 . S
C313 C7 2.065 . S
C339 C105 2.136 . S
C333 C16 1.808 . S
C359 C198 1.378 1_556 S
C353 C29 1.253 . S
C379 C164 0.909 . S
C373 C38 0.874 . S
C393 C8 2.283 . S
C399 C219 2.277 . S
C419 C126 1.272 . S
C413 C27 1.076 1_554 S
C433 C40 1.041 . S
C439 C101 1.079 . S
C453 C19 1.768 . S
C459 C185 1.800 . S
C479 C117 2.431 1_565 S
C473 C51 2.369 . S
C493 C62 2.353 . S
C499 C139 2.470 . S
C513 C74 0.902 . S
C519 C169 0.903 . S
C533 C84 0.901 . S
C539 C203 0.940 . S
C553 C49 2.074 . S
C559 C122 2.220 1_565 S
C579 C96 1.839 . S
C573 C63 1.784 . S
C599 C207 1.315 . S
C593 C71 1.034 . S
C619 C173 1.020 . S
C613 C85 0.998 . S
C633 C52 2.256 . S
C639 C190 2.255 1_556 S
C659 C135 1.338 . S
C653 C73 1.222 . S
C679 C92 0.990 . S
C673 C82 0.797 . S
C693 C60 1.996 . S
C699 C156 2.335 . S
