# Generated by pormake.
# Topology anh, (6,3)-cn, num edge types: 1
# Building blocks:
#     Node 0, Type 0, BuildingBlock: INOVEN_clean_sbu_0, # of connection points: 6
#     Node 1, Type 0, BuildingBlock: INOVEN_clean_sbu_0, # of connection points: 6
#     Node 2, Type 0, BuildingBlock: INOVEN_clean_sbu_0, # of connection points: 6
#     Node 3, Type 1, BuildingBlock: WUSLED_clean_sbu_0, # of connection points: 3
#     Node 4, Type 1, BuildingBlock: WUSLED_clean_sbu_0, # of connection points: 3
#     Node 5, Type 1, BuildingBlock: WUSLED_clean_sbu_0, # of connection points: 3
#     Node 6, Type 1, BuildingBlock: WUSLED_clean_sbu_0, # of connection points: 3
#     Node 7, Type 1, BuildingBlock: WUSLED_clean_sbu_0, # of connection points: 3
#     Node 8, Type 1, BuildingBlock: WUSLED_clean_sbu_0, # of connection points: 3
#     Edge 9, Type (0, 1), BuildingBlock: KIFKEQ_clean_linker_1, # of connection points: 2
#     Edge 10, Type (0, 1), BuildingBlock: KIFKEQ_clean_linker_1, # of connection points: 2
#     Edge 11, Type (0, 1), BuildingBlock: KIFKEQ_clean_linker_1, # of connection points: 2
#     Edge 12, Type (0, 1), BuildingBlock: KIFKEQ_clean_linker_1, # of connection points: 2
#     Edge 13, Type (0, 1), BuildingBlock: KIFKEQ_clean_linker_1, # of connection points: 2
#     Edge 14, Type (0, 1), BuildingBlock: KIFKEQ_clean_linker_1, # of connection points: 2
#     Edge 15, Type (0, 1), BuildingBlock: KIFKEQ_clean_linker_1, # of connection points: 2
#     Edge 16, Type (0, 1), BuildingBlock: KIFKEQ_clean_linker_1, # of connection points: 2
#     Edge 17, Type (0, 1), BuildingBlock: KIFKEQ_clean_linker_1, # of connection points: 2
#     Edge 18, Type (0, 1), BuildingBlock: KIFKEQ_clean_linker_1, # of connection points: 2
#     Edge 19, Type (0, 1), BuildingBlock: KIFKEQ_clean_linker_1, # of connection points: 2
#     Edge 20, Type (0, 1), BuildingBlock: KIFKEQ_clean_linker_1, # of connection points: 2
#     Edge 21, Type (0, 1), BuildingBlock: KIFKEQ_clean_linker_1, # of connection points: 2
#     Edge 22, Type (0, 1), BuildingBlock: KIFKEQ_clean_linker_1, # of connection points: 2
#     Edge 23, Type (0, 1), BuildingBlock: KIFKEQ_clean_linker_1, # of connection points: 2
#     Edge 24, Type (0, 1), BuildingBlock: KIFKEQ_clean_linker_1, # of connection points: 2
#     Edge 25, Type (0, 1), BuildingBlock: KIFKEQ_clean_linker_1, # of connection points: 2
#     Edge 26, Type (0, 1), BuildingBlock: KIFKEQ_clean_linker_1, # of connection points: 2
# Relax obj value: 0.165
# Max RMSD: 0.205
# Mean RMSD: 0.150
data_MOF--net-anh--node1-INOVEN_clean_sbu_0--node2-WUSLED_clean_sbu_0--edge1-KIFKEQ_clean_linker_1
_symmetry_space_group_name_H-M    P1
_symmetry_Int_Tables_number       1
_symmetry_cell_setting            triclinic
loop_
_symmetry_equiv_pos_as_xyz
'x, y, z'
_cell_length_a     39.838846
_cell_length_b     46.16468
_cell_length_c     69.808739
_cell_angle_alpha  92.737488
_cell_angle_beta   89.853534
_cell_angle_gamma 127.1975
loop_
_atom_site_label
_atom_site_type_symbol
_atom_site_fract_x
_atom_site_fract_y
_atom_site_fract_z
_atom_type_partial_charge
Gd0 Gd 0.11295 0.53006 0.17099 0.0
Gd1 Gd 1.06504 0.5591 0.17829 0.0
C2 C 0.16592 0.61694 0.18052 0.0
C3 C 0.16403 0.51647 0.15953 0.0
C4 C 0.20992 0.53627 0.15985 0.0
C5 C 0.2264 0.51991 0.16793 0.0
C6 C 0.23755 0.57146 0.15314 0.0
C7 C 0.29754 0.573 0.16217 0.0
C8 C 0.28114 0.58958 0.15413 0.0
C9 C 0.26975 0.53813 0.16916 0.0
C10 C 0.08892 0.52542 0.20763 0.0
C11 C 1.01423 0.47319 0.17211 0.0
C12 C 1.02228 0.57994 0.19162 0.0
C13 C 0.9761 0.55876 0.19114 0.0
C14 C 0.95247 0.53661 0.17474 0.0
C15 C 0.95527 0.55482 0.20817 0.0
C16 C 0.8883 0.50479 0.19283 0.0
C17 C 0.91168 0.52808 0.20902 0.0
C18 C 0.90905 0.51006 0.17556 0.0
C19 C 1.06568 0.54123 0.14067 0.0
O20 O 0.16708 0.58893 0.17835 0.0
O21 O 0.12997 0.61262 0.18004 0.0
O22 O 0.14729 0.50871 0.17635 0.0
O23 O 0.14782 0.52701 0.14807 0.0
O24 O 0.08745 0.49993 0.19803 0.0
O25 O 0.10322 0.55222 0.19744 0.0
O26 O 1.01656 0.49932 0.18213 0.0
O27 O 1.04714 0.48028 0.1628 0.0
O28 O 1.04095 0.59011 0.17513 0.0
O29 O 1.03605 0.56638 0.20231 0.0
O30 O 1.0328 0.53465 0.14899 0.0
O31 O 0.09648 0.55738 0.15252 0.0
H32 H 0.20561 0.49288 0.17326 0.0
H33 H 0.22554 0.58486 0.1471 0.0
H34 H 0.30201 0.61638 0.14857 0.0
H35 H 0.28148 0.52437 0.17503 0.0
H36 H 0.96773 0.53861 0.16148 0.0
H37 H 0.97304 0.5711 0.22109 0.0
H38 H 0.89663 0.52465 0.22254 0.0
H39 H 0.89182 0.4932 0.1627 0.0
Gd40 Gd 0.59976 1.00971 0.4932 0.0
Gd41 Gd 0.5492 0.0366 0.48595 0.0
C42 C 0.49912 0.95156 0.48303 0.0
C43 C 0.62974 0.97798 0.50681 0.0
C44 C 0.61893 0.94154 0.50922 0.0
C45 C 0.64546 0.9337 0.50165 0.0
C46 C 0.58443 0.9154 0.51993 0.0
C47 C 0.60429 0.87478 0.51594 0.0
C48 C 0.57726 0.88239 0.52328 0.0
C49 C 0.63818 0.90069 0.5049 0.0
C50 C 0.59642 0.02178 0.45597 0.0
C51 C 0.65164 0.09472 0.49086 0.0
C52 C 0.52002 0.07128 0.47637 0.0
C53 C 0.52693 0.10499 0.48389 0.0
C54 C 0.54299 0.1191 0.50267 0.0
C55 C 0.51748 0.12333 0.4723 0.0
C56 C 0.53893 0.16906 0.49838 0.0
C57 C 0.52351 0.15512 0.47944 0.0
C58 C 0.54876 0.15071 0.50987 0.0
C59 C 0.55657 0.02684 0.5233 0.0
O60 O 0.53186 0.95822 0.49273 0.0
O61 O 0.50107 0.97832 0.47563 0.0
O62 O 0.636 0.98899 0.48936 0.0
O63 O 0.61 0.98746 0.51716 0.0
O64 O 0.62906 0.02766 0.46451 0.0
O65 O 0.56591 1.00763 0.46714 0.0
O66 O 0.61623 0.0872 0.48386 0.0
O67 O 0.65246 0.06935 0.49827 0.0
O68 O 0.50061 0.04411 0.48764 0.0
O69 O 0.55208 0.07538 0.46816 0.0
O70 O 0.52261 0.0193 0.51545 0.0
O71 O 0.58535 0.04071 0.51138 0.0
H72 H 0.67249 0.95351 0.49351 0.0
H73 H 0.56334 0.9206 0.52595 0.0
H74 H 0.55061 0.86285 0.53167 0.0
H75 H 0.65993 0.89598 0.49924 0.0
H76 H 0.55092 0.10556 0.5118 0.0
H77 H 0.50518 0.11293 0.45775 0.0
H78 H 0.51532 0.1684 0.47026 0.0
H79 H 0.56128 0.16097 0.5244 0.0
Gd80 Gd 0.64008 0.576 0.85852 0.0
Gd81 Gd 0.5814 0.48926 0.86121 0.0
C82 C 0.53641 0.5296 0.86273 0.0
C83 C 0.67439 0.64187 0.84916 0.0
C84 C 0.66282 0.66478 0.84241 0.0
C85 C 0.62892 0.66296 0.85001 0.0
C86 C 0.68781 0.69048 0.82888 0.0
C87 C 0.64686 0.71384 0.83138 0.0
C88 C 0.67991 0.71467 0.82339 0.0
C89 C 0.62104 0.68725 0.84456 0.0
C90 C 0.63254 0.55041 0.89328 0.0
C91 C 0.68599 0.53718 0.86037 0.0
C92 C 0.54614 0.4244 0.87226 0.0
C93 C 0.5467 0.39416 0.86494 0.0
C94 C 0.56085 0.39437 0.84648 0.0
C95 C 0.53451 0.36554 0.87658 0.0
C96 C 0.55009 0.33731 0.85123 0.0
C97 C 0.53624 0.33738 0.86981 0.0
C98 C 0.56238 0.3662 0.83966 0.0
C99 C 0.59681 0.50798 0.8239 0.0
O100 O 0.57306 0.56001 0.85784 0.0
O101 O 0.53294 0.49984 0.86649 0.0
O102 O 0.66491 0.63146 0.86676 0.0
O103 O 0.66849 0.61649 0.83702 0.0
O104 O 0.66669 0.58074 0.88798 0.0
O105 O 0.60367 0.53681 0.88055 0.0
O106 O 0.64863 0.50667 0.86435 0.0
O107 O 0.69005 0.56669 0.85539 0.0
O108 O 0.52678 0.43265 0.86118 0.0
O109 O 0.58213 0.45317 0.87964 0.0
O110 O 0.57281 0.47469 0.82898 0.0
O111 O 0.61028 0.52827 0.83894 0.0
H112 H 0.60908 0.64333 0.86047 0.0
H113 H 0.71403 0.69231 0.82278 0.0
H114 H 0.69993 0.73419 0.81293 0.0
H115 H 0.59551 0.68589 0.85114 0.0
H116 H 0.57103 0.41648 0.83736 0.0
H117 H 0.52377 0.36502 0.89092 0.0
H118 H 0.52628 0.31545 0.87903 0.0
H119 H 0.57387 0.36738 0.82543 0.0
C120 C 0.68457 0.14167 0.19308 0.0
C121 C 0.71932 0.15849 0.206 0.0
C122 C 0.75509 0.21501 0.18939 0.0
C123 C 0.7543 0.19484 0.20415 0.0
C124 C 0.71972 0.19814 0.17679 0.0
C125 C 0.68492 0.1619 0.17863 0.0
U126 U 0.60327 0.05019 0.2169 0.0
O127 O 0.58254 0.9961 0.20554 0.0
O128 O 0.53713 1.00842 0.20748 0.0
C129 C 0.54348 0.98427 0.20252 0.0
C130 C 0.64894 0.10258 0.19329 0.0
C131 C 0.50939 0.9456 0.20545 0.0
C132 C 0.46838 0.88333 0.19185 0.0
C133 C 0.5037 0.91971 0.19173 0.0
C134 C 0.44447 0.89757 0.22013 0.0
C135 C 0.43781 0.87171 0.20585 0.0
C136 C 0.47989 0.93427 0.21989 0.0
C137 C 0.60619 0.04818 0.27303 0.0
C138 C 0.56004 0.02765 0.3003 0.0
C139 C 0.6278 0.03937 0.30344 0.0
C140 C 0.63564 0.04867 0.28433 0.0
C141 C 0.59027 0.02943 0.31182 0.0
C142 C 0.56792 0.03698 0.28112 0.0
C143 C 0.61892 0.06437 0.25409 0.0
O144 O 0.65778 0.08081 0.19842 0.0
O145 O 0.61357 0.09425 0.20022 0.0
O146 O 0.59291 0.06769 0.2447 0.0
O147 O 0.63812 0.05524 0.24288 0.0
H148 H 0.71974 0.14341 0.2173 0.0
H149 H 0.78076 0.20712 0.21425 0.0
H150 H 0.71937 0.21259 0.16512 0.0
H151 H 0.65857 0.14935 0.16842 0.0
H152 H 0.46425 0.8647 0.18038 0.0
H153 H 0.52579 0.92796 0.18031 0.0
H154 H 0.42201 0.88961 0.23132 0.0
H155 H 0.48357 0.95383 0.23061 0.0
H156 H 0.53059 0.01971 0.30622 0.0
H157 H 0.65216 0.04167 0.31188 0.0
H158 H 0.66571 0.05781 0.27862 0.0
H159 H 0.54463 0.03653 0.27286 0.0
C160 C 0.58857 0.59515 0.55533 0.0
C161 C 0.58366 0.61404 0.57001 0.0
C162 C 0.58831 0.65439 0.54695 0.0
C163 C 0.58342 0.6433 0.56586 0.0
C164 C 0.59337 0.63532 0.53232 0.0
C165 C 0.59346 0.606 0.53649 0.0
U166 U 0.59678 0.54008 0.5912 0.0
O167 O 0.56121 0.48098 0.5932 0.0
O168 O 0.62977 0.5152 0.58995 0.0
C169 C 0.59457 0.48192 0.5906 0.0
C170 C 0.58902 0.56439 0.55954 0.0
C171 C 0.5897 0.4536 0.57716 0.0
C172 C 0.54574 0.3978 0.55669 0.0
C173 C 0.55127 0.42709 0.56723 0.0
C174 C 0.61731 0.42152 0.56521 0.0
C175 C 0.57847 0.39432 0.55581 0.0
C176 C 0.62276 0.45069 0.57581 0.0
C177 C 0.61098 0.5707 0.6446 0.0
C178 C 0.63183 0.54968 0.66996 0.0
C179 C 0.60048 0.57999 0.67799 0.0
C180 C 0.59724 0.58399 0.6585 0.0
C181 C 0.6177 0.56267 0.684 0.0
C182 C 0.62835 0.55353 0.65044 0.0
C183 C 0.60633 0.57466 0.62417 0.0
O184 O 0.62526 0.57343 0.56614 0.0
O185 O 0.55665 0.53848 0.56893 0.0
O186 O 0.5693 0.54921 0.616 0.0
O187 O 0.63796 0.58353 0.61333 0.0
H188 H 0.57991 0.6061 0.58468 0.0
H189 H 0.57893 0.65696 0.57746 0.0
H190 H 0.59791 0.64339 0.51766 0.0
H191 H 0.59755 0.59188 0.52498 0.0
H192 H 0.5156 0.37759 0.54943 0.0
H193 H 0.52503 0.42836 0.56799 0.0
H194 H 0.64303 0.41952 0.56505 0.0
H195 H 0.65251 0.47039 0.58351 0.0
H196 H 0.64571 0.53659 0.67403 0.0
H197 H 0.58856 0.58975 0.6883 0.0
H198 H 0.58355 0.59716 0.65425 0.0
H199 H 0.63909 0.543 0.63992 0.0
C200 C 1.01783 0.53911 0.8849 0.0
C201 C 0.97612 0.50745 0.88676 0.0
C202 C 0.94627 0.54034 0.88113 0.0
C203 C 0.94115 0.50809 0.88503 0.0
C204 C 0.98813 0.57213 0.87968 0.0
C205 C 1.02305 0.57149 0.88147 0.0
U206 U 0.11462 0.53623 0.89892 0.0
O207 O 0.13076 0.50365 0.8828 0.0
O208 O 0.17438 0.56298 0.88348 0.0
C209 C 0.16803 0.53231 0.87806 0.0
C210 C 1.05462 0.53741 0.88307 0.0
C211 C 0.20486 0.53069 0.87912 0.0
C212 C 0.23882 0.50369 0.86665 0.0
C213 C 0.20366 0.50406 0.8677 0.0
C214 C 0.27794 0.5565 0.88869 0.0
C215 C 0.277 0.53002 0.87701 0.0
C216 C 0.24266 0.5569 0.88968 0.0
C217 C 0.11237 0.54203 0.95627 0.0
C218 C 0.13721 0.56595 0.98923 0.0
C219 C 1.06325 0.51726 0.98251 0.0
C220 C 0.07117 0.51765 0.96282 0.0
C221 C 0.09648 0.54076 0.99599 0.0
C222 C 0.14497 0.56661 0.96966 0.0
C223 C 0.12422 0.53936 0.93646 0.0
O224 O 0.09314 0.5668 0.88739 0.0
O225 O 1.04946 0.50738 0.88702 0.0
O226 O 0.09914 0.50865 0.92603 0.0
O227 O 0.14377 0.56845 0.92637 0.0
H228 H 0.97021 0.48167 0.88892 0.0
H229 H 0.90987 0.48275 0.88604 0.0
H230 H 0.99416 0.59777 0.877 0.0
H231 H 1.0543 0.59637 0.87954 0.0
H232 H 0.2362 0.48312 0.85717 0.0
H233 H 0.17556 0.48378 0.85909 0.0
H234 H 0.30601 0.57709 0.89719 0.0
H235 H 0.24524 0.57809 0.89856 0.0
H236 H 0.16338 0.58474 0.99917 0.0
H237 H 1.03153 0.49749 0.98728 0.0
H238 H 1.04545 0.49811 0.95287 0.0
H239 H 0.17707 0.58544 0.96505 0.0
C240 C 0.98474 0.42431 0.47093 0.0
C241 C 0.9454 0.41016 0.46229 0.0
C242 C 0.91543 0.35019 0.47387 0.0
C243 C 0.91114 0.37353 0.46376 0.0
C244 C 0.95514 0.36426 0.48207 0.0
C245 C 0.98931 0.40092 0.48067 0.0
U246 U 0.0687 0.51488 0.44755 0.0
O247 O 0.08916 0.56975 0.45706 0.0
O248 O 0.13405 0.55681 0.45792 0.0
C249 C 0.12784 0.58151 0.46122 0.0
C250 C 1.02035 0.46365 0.47132 0.0
C251 C 0.16268 0.61984 0.45791 0.0
C252 C 0.19961 0.68313 0.46915 0.0
C253 C 0.16363 0.64693 0.4685 0.0
C254 C 0.23372 0.66639 0.44755 0.0
C255 C 0.23547 0.6931 0.45915 0.0
C256 C 0.19765 0.6299 0.44704 0.0
C257 C 0.07084 0.51087 0.39117 0.0
C258 C 0.08059 0.54808 0.36496 0.0
C259 C 0.08576 0.49879 0.35924 0.0
C260 C 0.07809 0.49083 0.3785 0.0
C261 C 0.08647 0.52714 0.35209 0.0
C262 C 0.07276 0.53999 0.38433 0.0
C263 C 1.05636 0.49751 0.41052 0.0
O264 O 1.05685 0.47224 0.46595 0.0
O265 O 1.01246 0.48546 0.46508 0.0
O266 O 1.03701 0.50838 0.42015 0.0
O267 O 0.0813 0.49488 0.42132 0.0
H268 H 0.94072 0.42749 0.45475 0.0
H269 H 0.88096 0.36383 0.45747 0.0
H270 H 0.95982 0.34701 0.48969 0.0
H271 H 1.01925 0.41118 0.48753 0.0
H272 H 0.19986 0.7032 0.47799 0.0
H273 H 0.1372 0.6398 0.47711 0.0
H274 H 0.26098 0.67337 0.43972 0.0
H275 H 0.19784 0.60948 0.43885 0.0
H276 H 0.0814 0.57037 0.36001 0.0
H277 H 0.08929 0.48155 0.34979 0.0
H278 H 0.07614 0.46791 0.38335 0.0
H279 H 0.06711 0.55583 0.39378 0.0
C280 C 0.60032 0.96061 0.79303 0.0
C281 C 0.60717 0.94358 0.77802 0.0
C282 C 0.60801 0.9051 0.80053 0.0
C283 C 0.61106 0.91615 0.78173 0.0
C284 C 0.6009 0.92221 0.81549 0.0
C285 C 0.59714 0.94969 0.81176 0.0
U286 U 0.59229 0.01752 0.75824 0.0
O287 O 0.55274 0.03603 0.7583 0.0
O288 O 0.62167 0.0762 0.75938 0.0
C289 C 0.58523 0.07072 0.76011 0.0
C290 C 0.59645 0.98969 0.78933 0.0
C291 C 0.58226 0.09454 0.77396 0.0
C292 C 0.53982 0.10646 0.79292 0.0
C293 C 0.5438 0.08222 0.78227 0.0
C294 C 0.61292 0.15567 0.78771 0.0
C295 C 0.57411 0.14365 0.79547 0.0
C296 C 0.61687 0.13147 0.77702 0.0
C297 C 0.59329 0.99727 0.70424 0.0
C298 C 0.59144 0.03129 0.67927 0.0
C299 C 0.58897 0.97855 0.67066 0.0
C300 C 0.59105 0.97355 0.6901 0.0
C301 C 0.58912 1.00748 0.66497 0.0
C302 C 0.59349 0.02621 0.69875 0.0
C303 C 0.59495 0.99101 0.72458 0.0
O304 O 0.62955 0.01878 0.78195 0.0
O305 O 0.56069 0.97878 0.78103 0.0
O306 O 0.55995 0.97717 0.73381 0.0
O307 O 0.62881 0.01738 0.73458 0.0
H308 H 0.60951 0.95153 0.76343 0.0
H309 H 0.61599 0.90331 0.76983 0.0
H310 H 0.59893 0.91478 0.83015 0.0
H311 H 0.59191 0.96256 0.82354 0.0
H312 H 0.50961 0.09615 0.79889 0.0
H313 H 0.51631 0.05407 0.78009 0.0
H314 H 0.63986 0.18416 0.78915 0.0
H315 H 0.64671 0.14202 0.77053 0.0
H316 H 0.59207 0.05406 0.67542 0.0
H317 H 0.5865 0.95933 0.66011 0.0
H318 H 0.59065 0.95095 0.69409 0.0
H319 H 0.59521 0.04481 0.70952 0.0
C320 C 0.54545 0.39312 0.15067 0.0
C321 C 0.54936 0.36802 0.141 0.0
C322 C 0.59097 0.37237 0.16807 0.0
C323 C 0.57142 0.35724 0.14978 0.0
C324 C 0.5825 0.39414 0.17842 0.0
C325 C 0.55984 0.40431 0.16978 0.0
U326 U 0.54361 0.43265 0.10454 0.0
O327 O 0.57161 0.48966 0.09991 0.0
O328 O 0.50367 0.44743 0.09454 0.0
C329 C 0.53503 0.4825 0.09588 0.0
C330 C 0.5359 0.41414 0.1401 0.0
C331 C 0.52685 0.50536 0.1068 0.0
C332 C 0.52016 0.5289 0.13719 0.0
C333 C 0.52883 0.50753 0.12692 0.0
C334 C 0.50828 0.54655 0.10727 0.0
C335 C 0.50915 0.54822 0.12747 0.0
C336 C 0.51712 0.5253 0.09704 0.0
C337 C 0.57432 0.41791 0.05734 0.0
C338 C 0.58243 0.45816 0.03359 0.0
C339 C 0.59411 0.41343 0.02502 0.0
C340 C 0.58471 0.4014 0.04373 0.0
C341 C 0.5936 0.4423 0.01992 0.0
C342 C 0.57282 0.44604 0.05207 0.0
C343 C 0.56572 0.40712 0.07722 0.0
O344 O 0.56971 0.44412 0.13382 0.0
O345 O 0.50439 0.39616 0.12735 0.0
O346 O 0.52627 0.39044 0.08194 0.0
O347 O 0.59284 0.43315 0.0899 0.0
H348 H 0.53842 0.35908 0.12618 0.0
H349 H 0.57615 0.33953 0.14158 0.0
H350 H 0.59695 0.4066 0.19246 0.0
H351 H 0.5572 0.42383 0.17741 0.0
H352 H 0.52138 0.52983 0.15272 0.0
H353 H 0.5366 0.49239 0.13465 0.0
H354 H 0.49913 0.56049 0.09934 0.0
H355 H 0.51561 0.52391 0.08149 0.0
H356 H 0.58096 0.47994 0.02995 0.0
H357 H 0.6026 0.40076 0.0147 0.0
H358 H 0.58591 0.37959 0.04759 0.0
H359 H 0.56452 0.45889 0.06236 0.0
H360 H 0.3488 0.58111 0.19122 0.0
H361 H 0.34787 0.60109 0.13153 0.0
H362 H 0.4157 0.59057 0.18747 0.0
H363 H 0.41395 0.60975 0.12759 0.0
H364 H 0.52535 0.6137 0.12077 0.0
H365 H 0.48754 0.63631 0.13369 0.0
H366 H 0.42059 0.54634 0.17082 0.0
H367 H 0.45791 0.52397 0.15801 0.0
C368 C 0.36364 0.58863 0.17745 0.0
C369 C 0.34289 0.5896 0.16154 0.0
C370 C 0.40182 0.59398 0.17529 0.0
C371 C 0.41956 0.59996 0.15713 0.0
C372 C 0.40128 0.60528 0.1418 0.0
C373 C 0.36325 0.60021 0.14402 0.0
C374 C 0.50313 0.59925 0.13198 0.0
C375 C 0.49403 0.56667 0.13811 0.0
C376 C 0.48165 0.61227 0.13941 0.0
C377 C 0.45072 0.59293 0.15311 0.0
C378 C 0.44457 0.56226 0.16047 0.0
C379 C 0.46596 0.54928 0.15305 0.0
H380 H 0.66073 0.15206 0.4753 0.0
H381 H 0.73195 0.12251 0.50331 0.0
H382 H 0.72524 0.21276 0.47139 0.0
H383 H 0.79695 0.18372 0.49922 0.0
H384 H 0.89466 0.31072 0.50585 0.0
H385 H 0.83221 0.24873 0.51038 0.0
H386 H 0.78916 0.24071 0.4523 0.0
H387 H 0.85183 0.30238 0.44761 0.0
C388 C 0.69013 0.15847 0.48068 0.0
C389 C 0.69109 0.13225 0.48958 0.0
C390 C 0.72721 0.19329 0.4783 0.0
C391 C 0.76627 0.20295 0.48481 0.0
C392 C 0.76728 0.1771 0.49411 0.0
C393 C 0.73007 0.14203 0.49641 0.0
C394 C 0.87227 0.29557 0.49392 0.0
C395 C 0.8783 0.31172 0.47637 0.0
C396 C 0.83641 0.26004 0.49655 0.0
C397 C 0.8056 0.23991 0.48175 0.0
C398 C 0.81197 0.25576 0.4641 0.0
C399 C 0.84789 0.29116 0.46143 0.0
H400 H 0.70699 0.78644 0.82593 0.0
H401 H 0.57198 0.70386 0.8258 0.0
H402 H 0.69684 0.83151 0.81809 0.0
H403 H 0.56187 0.74922 0.81809 0.0
H404 H 0.56253 0.84957 0.82495 0.0
H405 H 0.57151 0.80338 0.83221 0.0
H406 H 0.6721 0.84814 0.7921 0.0
H407 H 0.66405 0.895 0.78531 0.0
C408 C 0.67508 0.77772 0.82401 0.0
C409 C 0.64032 0.74131 0.82643 0.0
C410 C 0.66927 0.80367 0.81953 0.0
C411 C 0.62853 0.79406 0.8174 0.0
C412 C 0.59371 0.75771 0.81986 0.0
C413 C 0.59953 0.73168 0.82429 0.0
C414 C 0.58677 0.84973 0.81777 0.0
C415 C 0.61264 0.87615 0.80457 0.0
C416 C 0.5916 0.82296 0.82178 0.0
C417 C 0.62256 0.82198 0.81276 0.0
C418 C 0.64824 0.84827 0.79948 0.0
C419 C 0.6433 0.87493 0.79541 0.0
H420 H 0.82869 0.50671 0.21101 0.0
H421 H 0.84427 0.43522 0.17686 0.0
H422 H 0.75249 0.46061 0.20872 0.0
H423 H 0.7678 0.38937 0.17424 0.0
H424 H 0.64854 0.3741 0.14563 0.0
H425 H 0.7181 0.39511 0.15565 0.0
H426 H 0.68782 0.39606 0.21496 0.0
H427 H 0.61654 0.3731 0.20502 0.0
C428 C 0.81593 0.48083 0.20342 0.0
C429 C 0.84246 0.47496 0.19375 0.0
C430 C 0.77224 0.45431 0.20219 0.0
C431 C 0.75426 0.42147 0.19122 0.0
C432 C 0.78087 0.41457 0.18265 0.0
C433 C 0.82456 0.44098 0.18399 0.0
C434 C 0.65546 0.3768 0.16087 0.0
C435 C 0.62693 0.37278 0.17448 0.0
C436 C 0.69577 0.38911 0.16662 0.0
C437 C 0.70864 0.39802 0.18606 0.0
C438 C 0.67883 0.39004 0.19984 0.0
C439 C 0.63811 0.37706 0.1941 0.0
H440 H 0.43446 0.92587 0.45694 0.0
H441 H 0.47792 0.89088 0.50038 0.0
H442 H 0.37204 0.86295 0.45053 0.0
H443 H 0.41531 0.82801 0.49398 0.0
H444 H 0.27243 0.73143 0.4931 0.0
H445 H 0.3369 0.79352 0.49845 0.0
H446 H 0.35328 0.80185 0.43729 0.0
H447 H 0.2884 0.73933 0.43192 0.0
C448 C 0.43068 0.9048 0.46515 0.0
C449 C 0.46109 0.91343 0.47925 0.0
C450 C 0.39509 0.86873 0.46135 0.0
C451 C 0.38882 0.84059 0.47173 0.0
C452 C 0.41918 0.8492 0.48583 0.0
C453 C 0.45507 0.88518 0.48946 0.0
C454 C 0.28973 0.74655 0.48079 0.0
C455 C 0.27526 0.73067 0.46208 0.0
C456 C 0.32682 0.78196 0.48386 0.0
C457 C 0.35011 0.80253 0.4683 0.0
C458 C 0.33578 0.78668 0.44955 0.0
C459 C 0.29887 0.75092 0.44648 0.0
H460 H 0.5265 0.30253 0.81547 0.0
H461 H 0.57799 0.30442 0.87028 0.0
H462 H 0.53163 0.25517 0.80297 0.0
H463 H 0.58211 0.25625 0.8579 0.0
H464 H 0.62907 0.20166 0.82078 0.0
H465 H 0.62225 0.24736 0.83475 0.0
H466 H 0.50013 0.19113 0.80627 0.0
H467 H 0.50745 0.14614 0.79188 0.0
C468 C 0.53891 0.29282 0.82487 0.0
C469 C 0.55194 0.30741 0.84387 0.0
C470 C 0.54143 0.26535 0.81776 0.0
C471 C 0.55722 0.25178 0.82942 0.0
C472 C 0.57011 0.26625 0.84847 0.0
C473 C 0.56734 0.29361 0.85562 0.0
C474 C 0.60078 0.19907 0.81749 0.0
C475 C 0.56886 0.17019 0.80516 0.0
C476 C 0.59669 0.2251 0.82565 0.0
C477 C 0.5607 0.22305 0.82159 0.0
C478 C 0.52849 0.19382 0.80953 0.0
C479 C 0.53248 0.16773 0.80146 0.0
H480 H 0.61077 0.83019 0.49152 0.0
H481 H 0.58465 0.84224 0.55023 0.0
H482 H 0.60555 0.77658 0.49913 0.0
H483 H 0.57835 0.78804 0.55773 0.0
H484 H 0.62391 0.71866 0.56835 0.0
H485 H 0.62493 0.77022 0.56092 0.0
H486 H 0.55463 0.71337 0.50796 0.0
H487 H 0.55311 0.66154 0.51546 0.0
C488 C 0.60373 0.82131 0.50604 0.0
C489 C 0.59826 0.84062 0.52027 0.0
C490 C 0.60035 0.79036 0.51036 0.0
C491 C 0.59164 0.77802 0.52906 0.0
C492 C 0.58555 0.79701 0.54323 0.0
C493 C 0.58868 0.82785 0.53888 0.0
C494 C 0.60815 0.71687 0.55524 0.0
C495 C 0.58846 0.68581 0.54252 0.0
C496 C 0.60878 0.74651 0.55097 0.0
C497 C 0.58988 0.74598 0.53383 0.0
C498 C 0.57001 0.7149 0.52115 0.0
C499 C 0.56923 0.68519 0.52545 0.0
H500 H 0.68969 0.48133 0.86884 0.0
H501 H 0.77094 0.59517 0.85716 0.0
H502 H 0.7509 0.48238 0.87347 0.0
H503 H 0.83268 0.59659 0.86229 0.0
H504 H 0.9369 0.58136 0.85686 0.0
H505 H 0.87624 0.58107 0.85163 0.0
H506 H 0.80783 0.49968 0.89327 0.0
H507 H 0.86837 0.49984 0.89839 0.0
C508 C 0.72063 0.50679 0.86726 0.0
C509 C 0.72467 0.53816 0.86253 0.0
C510 C 0.75622 0.50748 0.87012 0.0
C511 C 0.79772 0.53964 0.86847 0.0
C512 C 0.80175 0.57101 0.86354 0.0
C513 C 0.76602 0.57028 0.86064 0.0
C514 C 0.9092 0.56358 0.86512 0.0
C515 C 0.90841 0.54061 0.87812 0.0
C516 C 0.87395 0.56341 0.86208 0.0
C517 C 0.83613 0.54027 0.8719 0.0
C518 C 0.83549 0.51748 0.885 0.0
C519 C 0.87069 0.5176 0.888 0.0
H520 H 0.24198 0.63494 0.1925 0.0
H521 H 0.18029 0.6826 0.17812 0.0
H522 H 0.30674 0.69526 0.20071 0.0
H523 H 0.24567 0.74317 0.18533 0.0
H524 H 0.35721 0.847 0.21422 0.0
H525 H 0.29223 0.78543 0.20955 0.0
H526 H 0.36315 0.74839 0.18826 0.0
H527 H 0.42819 0.80914 0.19446 0.0
C528 C 0.24238 0.65837 0.19087 0.0
C529 C 0.2059 0.65391 0.18466 0.0
C530 C 0.27971 0.69312 0.1955 0.0
C531 C 0.28181 0.72445 0.19375 0.0
C532 C 0.24528 0.71986 0.18731 0.0
C533 C 0.20776 0.68505 0.18298 0.0
C534 C 0.35913 0.82559 0.20901 0.0
C535 C 0.39823 0.83338 0.20462 0.0
C536 C 0.32161 0.79023 0.20597 0.0
C537 C 0.32201 0.7617 0.19823 0.0
C538 C 0.36125 0.76934 0.19437 0.0
C539 C 0.39875 0.80452 0.19768 0.0
H540 H 0.57188 0.23268 0.48075 0.0
H541 H 0.51802 0.1807 0.53377 0.0
H542 H 0.58028 0.28697 0.49368 0.0
H543 H 0.52725 0.23515 0.54683 0.0
H544 H 0.50907 0.32308 0.55695 0.0
H545 H 0.49882 0.26908 0.54236 0.0
H546 H 0.62248 0.337 0.51855 0.0
H547 H 0.63235 0.39119 0.53277 0.0
C548 C 0.56172 0.23279 0.49514 0.0
C549 C 0.54429 0.20231 0.50622 0.0
C550 C 0.56689 0.26403 0.50262 0.0
C551 C 0.5544 0.26544 0.52129 0.0
C552 C 0.5368 0.23488 0.53232 0.0
C553 C 0.53193 0.20379 0.52491 0.0
C554 C 0.53385 0.32659 0.54837 0.0
C555 C 0.57154 0.36154 0.54603 0.0
C556 C 0.52817 0.29556 0.54019 0.0
C557 C 0.55991 0.29864 0.52936 0.0
C558 C 0.59727 0.33363 0.52669 0.0
C559 C 0.60307 0.36468 0.53498 0.0
H560 H 0.52825 0.58317 0.85419 0.0
H561 H 0.45722 0.47589 0.8759 0.0
H562 H 0.46736 0.58325 0.85749 0.0
H563 H 0.39665 0.47628 0.87982 0.0
H564 H 0.2798 0.47149 0.87031 0.0
H565 H 0.3404 0.47153 0.86635 0.0
H566 H 0.42353 0.58831 0.87694 0.0
H567 H 0.36275 0.58849 0.8798 0.0
C568 C 0.49974 0.55954 0.85977 0.0
C569 C 0.49828 0.52948 0.86469 0.0
C570 C 0.46447 0.55967 0.86184 0.0
C571 C 0.42609 0.5298 0.86901 0.0
C572 C 0.42479 0.49974 0.87394 0.0
C573 C 0.46 0.49956 0.87178 0.0
C574 C 0.31084 0.49742 0.87158 0.0
C575 C 0.31536 0.53001 0.87534 0.0
C576 C 0.34615 0.49737 0.86956 0.0
C577 C 0.38789 0.52991 0.87128 0.0
C578 C 0.39245 0.56251 0.87518 0.0
C579 C 0.35709 0.56256 0.87715 0.0
H580 H 1.00051 0.40979 0.15863 0.0
H581 H 0.93944 0.45065 0.18742 0.0
H582 H 0.93756 0.34741 0.16218 0.0
H583 H 0.87727 0.38866 0.19132 0.0
H584 H 0.75742 0.2732 0.18002 0.0
H585 H 0.81898 0.33472 0.17416 0.0
H586 H 0.90022 0.30514 0.18735 0.0
H587 H 0.83847 0.24313 0.19246 0.0
C588 C 0.97364 0.40551 0.16561 0.0
C589 C 0.97516 0.43526 0.17279 0.0
C590 C 0.93768 0.36974 0.1678 0.0
C591 C 0.90238 0.36293 0.17716 0.0
C592 C 0.90363 0.39277 0.18389 0.0
C593 C 0.9395 0.42842 0.18174 0.0
C594 C 0.78838 0.2797 0.18152 0.0
C595 C 0.7929 0.25312 0.1867 0.0
C596 C 0.82376 0.31512 0.17833 0.0
C597 C 0.86466 0.32497 0.18024 0.0
C598 C 0.86921 0.29843 0.1855 0.0
C599 C 0.8338 0.26298 0.18871 0.0
H600 H 1.0019 0.5058 0.11334 0.0
H601 H 0.13717 0.57099 0.12026 0.0
H602 H 1.00753 0.50316 0.07855 0.0
H603 H 0.14329 0.57 0.08557 0.0
H604 H 0.14282 0.53809 0.02353 0.0
H605 H 0.13399 0.53555 0.05803 0.0
H606 H 1.0266 0.53612 0.05093 0.0
H607 H 1.03472 0.53715 0.01619 0.0
C608 C 1.03288 0.51967 0.10739 0.0
C609 C 0.06907 0.53857 0.11955 0.0
C610 C 1.03621 0.51846 0.08739 0.0
C611 C 0.07591 0.53644 0.07898 0.0
C612 C 0.11206 0.55518 0.09131 0.0
C613 C 0.10865 0.556 0.11129 0.0
C614 C 0.11733 0.53771 0.02935 0.0
C615 C 0.08969 0.53813 0.01709 0.0
C616 C 0.11233 0.53643 0.04922 0.0
C617 C 0.07982 0.53605 0.05756 0.0
C618 C 1.05173 0.53592 0.0452 0.0
C619 C 1.05643 0.53668 0.02522 0.0
H620 H 0.52881 1.0056 0.4345 0.0
H621 H 0.65577 0.03919 0.42995 0.0
H622 H 0.52278 1.00429 0.39941 0.0
H623 H 0.64982 0.0379 0.39518 0.0
H624 H 0.61139 0.99436 0.33358 0.0
H625 H 0.61 0.99121 0.36835 0.0
H626 H 0.55424 0.04737 0.37248 0.0
H627 H 0.55621 0.05113 0.33766 0.0
C628 C 0.55539 0.01278 0.42601 0.0
C629 C 0.59267 0.02231 0.43494 0.0
C630 C 0.55199 1.0121 0.40596 0.0
C631 C 0.58566 0.02058 0.3945 0.0
C632 C 0.62303 0.03055 0.40355 0.0
C633 C 0.62654 0.03154 0.4235 0.0
C634 C 0.59879 1.00605 0.34186 0.0
C635 C 0.58437 0.02338 0.33277 0.0
C636 C 0.59798 1.00421 0.3618 0.0
C637 C 0.5825 0.01945 0.37319 0.0
C638 C 0.56616 0.03521 0.36409 0.0
C639 C 0.56719 0.03725 0.34411 0.0
H640 H 0.549 0.46462 0.79312 0.0
H641 H 0.65758 0.57419 0.80922 0.0
H642 H 0.55675 0.47945 0.75973 0.0
H643 H 0.66595 0.58935 0.77549 0.0
H644 H 0.63613 0.60942 0.71518 0.0
H645 H 0.63303 0.59777 0.74911 0.0
H646 H 0.60187 0.49214 0.73371 0.0
H647 H 0.60274 0.50291 0.69994 0.0
C648 C 0.57466 0.492 0.78949 0.0
C649 C 0.60241 0.51845 0.80381 0.0
C650 C 0.57931 0.50045 0.77029 0.0
C651 C 0.61217 0.53554 0.76483 0.0
C652 C 0.63998 0.56216 0.77921 0.0
C653 C 0.63516 0.55363 0.79854 0.0
C654 C 0.62836 0.5836 0.71903 0.0
C655 C 0.61932 0.55699 0.70474 0.0
C656 C 0.62712 0.57713 0.73851 0.0
C657 C 0.61683 0.54388 0.74419 0.0
C658 C 0.60916 0.5178 0.7299 0.0
C659 C 0.61024 0.5242 0.71046 0.0
H660 H 0.49698 0.99885 0.55045 0.0
H661 H 0.62889 0.04947 0.54271 0.0
H662 H 0.50586 0.99512 0.58458 0.0
H663 H 0.63816 0.0465 0.57699 0.0
H664 H 0.62776 0.99898 0.63501 0.0
H665 H 0.62006 1.00357 0.60092 0.0
H666 H 0.53767 0.03293 0.61376 0.0
H667 H 0.54388 0.02676 0.64779 0.0
C668 C 0.52794 1.00931 0.55609 0.0
C669 C 0.56223 0.02444 0.54394 0.0
C670 C 0.53312 1.00742 0.57569 0.0
C671 C 0.57278 0.02066 0.58361 0.0
C672 C 0.60708 0.03567 0.57137 0.0
C673 C 0.60185 0.03753 0.55175 0.0
C674 C 0.60773 1.00615 0.63057 0.0
C675 C 0.58624 0.01228 0.6442 0.0
C676 C 0.60372 1.00921 0.611 0.0
C677 C 0.57814 0.01852 0.60452 0.0
C678 C 0.55718 0.02522 0.61818 0.0
C679 C 0.56117 0.02214 0.63775 0.0
H680 H 0.69555 0.57143 0.91903 0.0
H681 H 0.56223 0.48944 0.90709 0.0
H682 H 0.69001 0.54293 0.94866 0.0
H683 H 0.55647 0.46111 0.93683 0.0
H684 H 0.56518 0.4035 0.98523 0.0
H685 H 0.57755 0.42793 0.95341 0.0
H686 H 0.65812 0.53739 0.97943 0.0
H687 H 0.64658 0.51304 1.01093 0.0
C688 C 0.66509 0.54729 0.92276 0.0
C689 C 0.62927 0.53271 0.9109 0.0
C690 C 0.6619 0.53098 0.9397 0.0
C691 C 0.6228 0.49981 0.94509 0.0
C692 C 0.58714 0.4848 0.93294 0.0
C693 C 0.59034 0.50116 0.91602 0.0
C694 C 0.58616 0.43273 0.98402 0.0
C695 C 0.60466 0.45642 1.0005 0.0
C696 C 0.59293 0.44671 0.96588 0.0
C697 C 0.6186 0.48458 0.96394 0.0
C698 C 0.63849 0.50811 0.98039 0.0
C699 C 0.63158 0.49418 0.99846 0.0
H700 H 0.09595 0.57842 0.23098 0.0
H701 H 0.07727 0.47611 0.23196 0.0
H702 H 0.09702 0.5824 0.26622 0.0
H703 H 0.07897 0.48036 0.26694 0.0
H704 H 0.13685 0.52257 0.32732 0.0
H705 H 0.13662 0.5235 0.29246 0.0
H706 H 1.04672 0.5467 0.29416 0.0
H707 H 1.0457 0.5446 0.32912 0.0
C708 C 0.09178 0.55671 0.23872 0.0
C709 C 0.08665 0.52701 0.22875 0.0
C710 C 0.0924 0.559 0.25884 0.0
C711 C 0.08858 0.5319 0.26929 0.0
C712 C 0.08265 0.50192 0.25926 0.0
C713 C 0.08142 0.49939 0.23923 0.0
C714 C 0.1169 0.52779 0.32033 0.0
C715 C 0.09081 0.53296 0.3311 0.0
C716 C 0.11688 0.5284 0.30035 0.0
C717 C 0.09123 0.53469 0.2906 0.0
C718 C 0.06687 0.54186 0.30132 0.0
C719 C 0.06648 0.54083 0.32137 0.0
loop_
_geom_bond_atom_site_label_1
_geom_bond_atom_site_label_2
_geom_bond_distance
_geom_bond_site_symmetry_2
_ccdc_geom_bond_type
Gd0 C3 2.818 . S
Gd0 O20 2.377 . S
Gd0 O22 2.448 . S
Gd0 O23 2.506 . S
Gd0 O24 2.435 . S
Gd0 O25 2.717 . S
Gd0 O27 2.395 1_455 S
Gd0 O31 2.327 . S
Gd1 C12 2.818 . S
Gd1 O21 2.395 1_655 S
Gd1 O25 2.327 1_655 S
Gd1 O26 2.377 . S
Gd1 O28 2.448 . S
Gd1 O29 2.506 . S
Gd1 O30 2.435 1_655 S
Gd1 O31 2.717 1_655 S
C2 O20 1.240 . S
C2 O21 1.240 . S
C3 Gd0 2.818 . S
C3 C4 1.510 . S
C3 O22 1.249 . S
C3 O23 1.252 . S
C4 C3 1.510 . S
C4 C5 1.404 . S
C4 C6 1.352 . S
C5 C4 1.404 . S
C5 C9 1.389 . S
C5 H32 0.930 . S
C6 C4 1.352 . S
C6 C8 1.374 . S
C6 H33 0.931 . S
C7 C8 1.359 . S
C7 C9 1.364 . S
C8 C6 1.374 . S
C8 C7 1.359 . S
C8 H34 0.931 . S
C9 C5 1.389 . S
C9 C7 1.364 . S
C9 H35 0.931 . S
C10 O24 1.256 . S
C10 O25 1.257 . S
C11 O26 1.240 . S
C11 O27 1.240 . S
C12 Gd1 2.818 . S
C12 C13 1.510 . S
C12 O28 1.249 . S
C12 O29 1.252 . S
C13 C12 1.510 . S
C13 C14 1.404 . S
C13 C15 1.352 . S
C14 C13 1.404 . S
C14 C18 1.389 . S
C14 H36 0.930 . S
C15 C13 1.352 . S
C15 C17 1.374 . S
C15 H37 0.931 . S
C16 C17 1.359 . S
C16 C18 1.364 . S
C17 C15 1.374 . S
C17 C16 1.359 . S
C17 H38 0.931 . S
C18 C14 1.389 . S
C18 C16 1.364 . S
C18 H39 0.931 . S
C19 O30 1.256 . S
C19 O31 1.257 . S
O20 Gd0 2.377 . S
O20 C2 1.240 . S
O21 Gd1 2.395 1_455 S
O21 C2 1.240 . S
O22 Gd0 2.448 . S
O22 C3 1.249 . S
O23 Gd0 2.506 . S
O23 C3 1.252 . S
O24 Gd0 2.435 . S
O24 C10 1.256 . S
O25 Gd0 2.717 . S
O25 Gd1 2.327 1_455 S
O25 C10 1.257 . S
O26 Gd1 2.377 . S
O26 C11 1.240 . S
O27 Gd0 2.395 1_655 S
O27 C11 1.240 . S
O28 Gd1 2.448 . S
O28 C12 1.249 . S
O29 Gd1 2.506 . S
O29 C12 1.252 . S
O30 Gd1 2.435 1_455 S
O30 C19 1.256 . S
O31 Gd0 2.327 . S
O31 Gd1 2.717 1_455 S
O31 C19 1.257 . S
H32 C5 0.930 . S
H33 C6 0.931 . S
H34 C8 0.931 . S
H35 C9 0.931 . S
H36 C14 0.930 . S
H37 C15 0.931 . S
H38 C17 0.931 . S
H39 C18 0.931 . S
Gd40 C43 2.818 . S
Gd40 O60 2.377 . S
Gd40 O62 2.448 . S
Gd40 O63 2.506 . S
Gd40 O64 2.435 . S
Gd40 O65 2.717 1_565 S
Gd40 O67 2.395 1_565 S
Gd40 O71 2.327 1_565 S
Gd41 C52 2.818 . S
Gd41 O61 2.395 1_545 S
Gd41 O65 2.327 . S
Gd41 O66 2.377 . S
Gd41 O68 2.448 . S
Gd41 O69 2.506 . S
Gd41 O70 2.435 . S
Gd41 O71 2.717 . S
C42 O60 1.240 . S
C42 O61 1.240 . S
C43 Gd40 2.818 . S
C43 C44 1.510 . S
C43 O62 1.249 . S
C43 O63 1.252 . S
C44 C43 1.510 . S
C44 C45 1.404 . S
C44 C46 1.352 . S
C45 C44 1.404 . S
C45 C49 1.389 . S
C45 H72 0.930 . S
C46 C44 1.352 . S
C46 C48 1.374 . S
C46 H73 0.931 . S
C47 C48 1.359 . S
C47 C49 1.364 . S
C48 C46 1.374 . S
C48 C47 1.359 . S
C48 H74 0.931 . S
C49 C45 1.389 . S
C49 C47 1.364 . S
C49 H75 0.931 . S
C50 O64 1.256 1_545 S
C50 O65 1.257 . S
C51 O66 1.240 . S
C51 O67 1.240 . S
C52 Gd41 2.818 . S
C52 C53 1.510 . S
C52 O68 1.249 . S
C52 O69 1.252 . S
C53 C52 1.510 . S
C53 C54 1.404 . S
C53 C55 1.352 . S
C54 C53 1.404 . S
C54 C58 1.389 . S
C54 H76 0.930 . S
C55 C53 1.352 . S
C55 C57 1.374 . S
C55 H77 0.931 . S
C56 C57 1.359 . S
C56 C58 1.364 . S
C57 C55 1.374 . S
C57 C56 1.359 . S
C57 H78 0.931 . S
C58 C54 1.389 . S
C58 C56 1.364 . S
C58 H79 0.931 . S
C59 O70 1.256 . S
C59 O71 1.257 . S
O60 Gd40 2.377 . S
O60 C42 1.240 . S
O61 Gd41 2.395 1_565 S
O61 C42 1.240 . S
O62 Gd40 2.448 . S
O62 C43 1.249 . S
O63 Gd40 2.506 . S
O63 C43 1.252 . S
O64 Gd40 2.435 . S
O64 C50 1.256 1_565 S
O65 Gd40 2.717 1_545 S
O65 Gd41 2.327 . S
O65 C50 1.257 . S
O66 Gd41 2.377 . S
O66 C51 1.240 . S
O67 Gd40 2.395 1_545 S
O67 C51 1.240 . S
O68 Gd41 2.448 . S
O68 C52 1.249 . S
O69 Gd41 2.506 . S
O69 C52 1.252 . S
O70 Gd41 2.435 . S
O70 C59 1.256 . S
O71 Gd40 2.327 1_545 S
O71 Gd41 2.717 . S
O71 C59 1.257 . S
H72 C45 0.930 . S
H73 C46 0.931 . S
H74 C48 0.931 . S
H75 C49 0.931 . S
H76 C54 0.930 . S
H77 C55 0.931 . S
H78 C57 0.931 . S
H79 C58 0.931 . S
Gd80 C83 2.818 . S
Gd80 O100 2.377 . S
Gd80 O102 2.448 . S
Gd80 O103 2.506 . S
Gd80 O104 2.435 . S
Gd80 O105 2.717 . S
Gd80 O107 2.395 . S
Gd80 O111 2.327 . S
Gd81 C92 2.818 . S
Gd81 O101 2.395 . S
Gd81 O105 2.327 . S
Gd81 O106 2.377 . S
Gd81 O108 2.448 . S
Gd81 O109 2.506 . S
Gd81 O110 2.435 . S
Gd81 O111 2.717 . S
C82 O100 1.240 . S
C82 O101 1.240 . S
C83 Gd80 2.818 . S
C83 C84 1.510 . S
C83 O102 1.249 . S
C83 O103 1.252 . S
C84 C83 1.510 . S
C84 C85 1.404 . S
C84 C86 1.352 . S
C85 C84 1.404 . S
C85 C89 1.389 . S
C85 H112 0.930 . S
C86 C84 1.352 . S
C86 C88 1.374 . S
C86 H113 0.931 . S
C87 C88 1.359 . S
C87 C89 1.364 . S
C88 C86 1.374 . S
C88 C87 1.359 . S
C88 H114 0.931 . S
C89 C85 1.389 . S
C89 C87 1.364 . S
C89 H115 0.931 . S
C90 O104 1.256 . S
C90 O105 1.257 . S
C91 O106 1.240 . S
C91 O107 1.240 . S
C92 Gd81 2.818 . S
C92 C93 1.510 . S
C92 O108 1.249 . S
C92 O109 1.252 . S
C93 C92 1.510 . S
C93 C94 1.404 . S
C93 C95 1.352 . S
C94 C93 1.404 . S
C94 C98 1.389 . S
C94 H116 0.930 . S
C95 C93 1.352 . S
C95 C97 1.374 . S
C95 H117 0.931 . S
C96 C97 1.359 . S
C96 C98 1.364 . S
C97 C95 1.374 . S
C97 C96 1.359 . S
C97 H118 0.931 . S
C98 C94 1.389 . S
C98 C96 1.364 . S
C98 H119 0.931 . S
C99 O110 1.256 . S
C99 O111 1.257 . S
O100 Gd80 2.377 . S
O100 C82 1.240 . S
O101 Gd81 2.395 . S
O101 C82 1.240 . S
O102 Gd80 2.448 . S
O102 C83 1.249 . S
O103 Gd80 2.506 . S
O103 C83 1.252 . S
O104 Gd80 2.435 . S
O104 C90 1.256 . S
O105 Gd80 2.717 . S
O105 Gd81 2.327 . S
O105 C90 1.257 . S
O106 Gd81 2.377 . S
O106 C91 1.240 . S
O107 Gd80 2.395 . S
O107 C91 1.240 . S
O108 Gd81 2.448 . S
O108 C92 1.249 . S
O109 Gd81 2.506 . S
O109 C92 1.252 . S
O110 Gd81 2.435 . S
O110 C99 1.256 . S
O111 Gd80 2.327 . S
O111 Gd81 2.717 . S
O111 C99 1.257 . S
H112 C85 0.930 . S
H113 C86 0.931 . S
H114 C88 0.931 . S
H115 C89 0.931 . S
H116 C94 0.930 . S
H117 C95 0.931 . S
H118 C97 0.931 . S
H119 C98 0.931 . S
C120 C121 1.264 . S
C120 C125 1.479 . S
C120 C130 1.465 . S
C121 C120 1.264 . S
C121 C123 1.339 . S
C121 H148 0.931 . S
C122 C123 1.395 . S
C122 C124 1.320 . S
C123 C121 1.339 . S
C123 C122 1.395 . S
C123 H149 0.929 . S
C124 C122 1.320 . S
C124 C125 1.405 . S
C124 H150 0.930 . S
C125 C120 1.479 . S
C125 C124 1.405 . S
C125 H151 0.931 . S
U126 O127 2.454 1_545 S
U126 O128 2.458 1_545 S
U126 C129 2.984 1_545 S
U126 C130 2.847 . S
U126 C143 2.882 . S
U126 O144 2.441 . S
U126 O145 2.420 . S
U126 O146 2.456 1_545 S
U126 O147 2.449 . S
O127 U126 2.454 1_565 S
O127 C129 1.353 . S
O128 U126 2.458 1_565 S
O128 C129 1.286 . S
C129 U126 2.984 1_565 S
C129 O127 1.353 . S
C129 O128 1.286 . S
C129 C131 1.363 . S
C130 C120 1.465 . S
C130 U126 2.847 . S
C130 O144 1.249 . S
C130 O145 1.202 . S
C131 C129 1.363 . S
C131 C133 1.408 . S
C131 C136 1.342 . S
C132 C133 1.310 . S
C132 C135 1.461 . S
C132 H152 0.932 . S
C133 C131 1.408 . S
C133 C132 1.310 . S
C133 H153 0.930 . S
C134 C135 1.474 . S
C134 C136 1.285 . S
C134 H154 0.929 . S
C135 C132 1.461 . S
C135 C134 1.474 . S
C136 C131 1.342 . S
C136 C134 1.285 . S
C136 H155 0.930 . S
C137 C140 1.424 . S
C137 C142 1.258 . S
C137 C143 1.428 . S
C138 C141 1.260 . S
C138 C142 1.476 . S
C138 H156 0.932 1_545 S
C139 C140 1.384 . S
C139 C141 1.479 . S
C139 H157 0.929 . S
C140 C137 1.424 . S
C140 C139 1.384 . S
C140 H158 0.928 . S
C141 C138 1.260 . S
C141 C139 1.479 . S
C142 C137 1.258 . S
C142 C138 1.476 . S
C142 H159 0.921 1_545 S
C143 U126 2.882 . S
C143 C137 1.428 . S
C143 O146 1.303 1_545 S
C143 O147 1.282 . S
O144 U126 2.441 . S
O144 C130 1.249 . S
O145 U126 2.420 . S
O145 C130 1.202 . S
O146 U126 2.456 1_565 S
O146 C143 1.303 1_565 S
O147 U126 2.449 . S
O147 C143 1.282 . S
H148 C121 0.931 . S
H149 C123 0.929 . S
H150 C124 0.930 . S
H151 C125 0.931 . S
H152 C132 0.932 . S
H153 C133 0.930 . S
H154 C134 0.929 . S
H155 C136 0.930 . S
H156 C138 0.932 1_565 S
H157 C139 0.929 . S
H158 C140 0.928 . S
H159 C142 0.921 1_565 S
C160 C161 1.264 . S
C160 C165 1.479 . S
C160 C170 1.465 . S
C161 C160 1.264 . S
C161 C163 1.339 . S
C161 H188 0.931 . S
C162 C163 1.395 . S
C162 C164 1.320 . S
C163 C161 1.339 . S
C163 C162 1.395 . S
C163 H189 0.929 . S
C164 C162 1.320 . S
C164 C165 1.405 . S
C164 H190 0.930 . S
C165 C160 1.479 . S
C165 C164 1.405 . S
C165 H191 0.931 . S
U166 O167 2.454 . S
U166 O168 2.458 . S
U166 C169 2.984 . S
U166 C170 2.847 . S
U166 C183 2.882 . S
U166 O184 2.441 . S
U166 O185 2.420 . S
U166 O186 2.455 . S
U166 O187 2.449 . S
O167 U166 2.454 . S
O167 C169 1.353 . S
O168 U166 2.458 . S
O168 C169 1.286 . S
C169 U166 2.984 . S
C169 O167 1.353 . S
C169 O168 1.286 . S
C169 C171 1.363 . S
C170 C160 1.465 . S
C170 U166 2.847 . S
C170 O184 1.249 . S
C170 O185 1.202 . S
C171 C169 1.363 . S
C171 C173 1.408 . S
C171 C176 1.342 . S
C172 C173 1.310 . S
C172 C175 1.461 . S
C172 H192 0.932 . S
C173 C171 1.408 . S
C173 C172 1.310 . S
C173 H193 0.930 . S
C174 C175 1.474 . S
C174 C176 1.285 . S
C174 H194 0.929 . S
C175 C172 1.461 . S
C175 C174 1.474 . S
C176 C171 1.342 . S
C176 C174 1.285 . S
C176 H195 0.930 . S
C177 C180 1.424 . S
C177 C182 1.245 . S
C177 C183 1.428 . S
C178 C181 1.260 . S
C178 C182 1.477 . S
C178 H196 0.932 . S
C179 C180 1.384 . S
C179 C181 1.479 . S
C179 H197 0.929 . S
C180 C177 1.424 . S
C180 C179 1.384 . S
C180 H198 0.928 . S
C181 C178 1.260 . S
C181 C179 1.479 . S
C182 C177 1.245 . S
C182 C178 1.477 . S
C182 H199 0.932 . S
C183 U166 2.882 . S
C183 C177 1.428 . S
C183 O186 1.301 . S
C183 O187 1.282 . S
O184 U166 2.441 . S
O184 C170 1.249 . S
O185 U166 2.420 . S
O185 C170 1.202 . S
O186 U166 2.455 . S
O186 C183 1.301 . S
O187 U166 2.449 . S
O187 C183 1.282 . S
H188 C161 0.931 . S
H189 C163 0.929 . S
H190 C164 0.930 . S
H191 C165 0.931 . S
H192 C172 0.932 . S
H193 C173 0.930 . S
H194 C174 0.929 . S
H195 C176 0.930 . S
H196 C178 0.932 . S
H197 C179 0.929 . S
H198 C180 0.928 . S
H199 C182 0.932 . S
C200 C201 1.264 . S
C200 C205 1.479 . S
C200 C210 1.465 . S
C201 C200 1.264 . S
C201 C203 1.339 . S
C201 H228 0.931 . S
C202 C203 1.395 . S
C202 C204 1.320 . S
C203 C201 1.339 . S
C203 C202 1.395 . S
C203 H229 0.929 . S
C204 C202 1.320 . S
C204 C205 1.405 . S
C204 H230 0.930 . S
C205 C200 1.479 . S
C205 C204 1.405 . S
C205 H231 0.931 . S
U206 O207 2.454 . S
U206 O208 2.458 . S
U206 C209 2.984 . S
U206 C210 2.847 1_455 S
U206 C223 2.882 . S
U206 O224 2.441 . S
U206 O225 2.420 1_455 S
U206 O226 2.455 . S
U206 O227 2.449 . S
O207 U206 2.454 . S
O207 C209 1.353 . S
O208 U206 2.458 . S
O208 C209 1.286 . S
C209 U206 2.984 . S
C209 O207 1.353 . S
C209 O208 1.286 . S
C209 C211 1.363 . S
C210 C200 1.465 . S
C210 U206 2.847 1_655 S
C210 O224 1.249 1_655 S
C210 O225 1.202 . S
C211 C209 1.363 . S
C211 C213 1.408 . S
C211 C216 1.342 . S
C212 C213 1.310 . S
C212 C215 1.461 . S
C212 H232 0.932 . S
C213 C211 1.408 . S
C213 C212 1.310 . S
C213 H233 0.930 . S
C214 C215 1.474 . S
C214 C216 1.285 . S
C214 H234 0.929 . S
C215 C212 1.461 . S
C215 C214 1.474 . S
C216 C211 1.342 . S
C216 C214 1.285 . S
C216 H235 0.930 . S
C217 C220 1.424 . S
C217 C222 1.245 . S
C217 C223 1.428 . S
C218 C221 1.260 . S
C218 C222 1.477 . S
C218 H236 0.932 . S
C219 C220 1.384 . S
C219 C221 1.479 . S
C219 H237 0.929 1_455 S
C220 C217 1.424 . S
C220 C219 1.384 . S
C220 H238 0.928 . S
C221 C218 1.260 . S
C221 C219 1.479 . S
C222 C217 1.245 . S
C222 C218 1.477 . S
C222 H239 0.932 . S
C223 U206 2.882 . S
C223 C217 1.428 . S
C223 O226 1.301 . S
C223 O227 1.282 . S
O224 U206 2.441 . S
O224 C210 1.249 1_455 S
O225 U206 2.420 1_655 S
O225 C210 1.202 . S
O226 U206 2.455 . S
O226 C223 1.301 . S
O227 U206 2.449 . S
O227 C223 1.282 . S
H228 C201 0.931 . S
H229 C203 0.929 . S
H230 C204 0.930 . S
H231 C205 0.931 . S
H232 C212 0.932 . S
H233 C213 0.930 . S
H234 C214 0.929 . S
H235 C216 0.930 . S
H236 C218 0.932 . S
H237 C219 0.929 1_655 S
H238 C220 0.928 . S
H239 C222 0.932 . S
C240 C241 1.264 . S
C240 C245 1.479 . S
C240 C250 1.465 . S
C241 C240 1.264 . S
C241 C243 1.339 . S
C241 H268 0.931 . S
C242 C243 1.395 . S
C242 C244 1.320 . S
C243 C241 1.339 . S
C243 C242 1.395 . S
C243 H269 0.929 . S
C244 C242 1.320 . S
C244 C245 1.405 . S
C244 H270 0.930 . S
C245 C240 1.479 . S
C245 C244 1.405 . S
C245 H271 0.931 . S
U246 O247 2.454 1_655 S
U246 O248 2.458 1_655 S
U246 C249 2.984 1_655 S
U246 C250 2.847 . S
U246 C263 2.882 . S
U246 O264 2.441 . S
U246 O265 2.420 . S
U246 O266 2.455 1_655 S
U246 O267 2.449 . S
O247 U246 2.454 1_455 S
O247 C249 1.353 . S
O248 U246 2.458 1_455 S
O248 C249 1.286 . S
C249 U246 2.984 1_455 S
C249 O247 1.353 . S
C249 O248 1.286 . S
C249 C251 1.363 . S
C250 C240 1.465 . S
C250 U246 2.847 . S
C250 O264 1.249 . S
C250 O265 1.202 . S
C251 C249 1.363 . S
C251 C253 1.408 . S
C251 C256 1.342 . S
C252 C253 1.310 . S
C252 C255 1.461 . S
C252 H272 0.932 . S
C253 C251 1.408 . S
C253 C252 1.310 . S
C253 H273 0.930 . S
C254 C255 1.474 . S
C254 C256 1.285 . S
C254 H274 0.929 . S
C255 C252 1.461 . S
C255 C254 1.474 . S
C256 C251 1.342 . S
C256 C254 1.285 . S
C256 H275 0.930 . S
C257 C260 1.424 . S
C257 C262 1.245 1_655 S
C257 C263 1.428 . S
C258 C261 1.260 1_455 S
C258 C262 1.477 . S
C258 H276 0.932 . S
C259 C260 1.384 . S
C259 C261 1.479 . S
C259 H277 0.929 . S
C260 C257 1.424 . S
C260 C259 1.384 . S
C260 H278 0.928 . S
C261 C258 1.260 1_655 S
C261 C259 1.479 . S
C262 C257 1.245 1_455 S
C262 C258 1.477 . S
C262 H279 0.932 . S
C263 U246 2.882 . S
C263 C257 1.428 . S
C263 O266 1.301 1_655 S
C263 O267 1.282 . S
O264 U246 2.441 . S
O264 C250 1.249 . S
O265 U246 2.420 . S
O265 C250 1.202 . S
O266 U246 2.455 1_455 S
O266 C263 1.301 1_455 S
O267 U246 2.449 . S
O267 C263 1.282 . S
H268 C241 0.931 . S
H269 C243 0.929 . S
H270 C244 0.930 . S
H271 C245 0.931 . S
H272 C252 0.932 . S
H273 C253 0.930 . S
H274 C254 0.929 . S
H275 C256 0.930 . S
H276 C258 0.932 . S
H277 C259 0.929 . S
H278 C260 0.928 . S
H279 C262 0.932 . S
C280 C281 1.264 . S
C280 C285 1.479 . S
C280 C290 1.465 . S
C281 C280 1.264 . S
C281 C283 1.339 . S
C281 H308 0.931 . S
C282 C283 1.395 . S
C282 C284 1.320 . S
C283 C281 1.339 . S
C283 C282 1.395 . S
C283 H309 0.929 . S
C284 C282 1.320 . S
C284 C285 1.405 . S
C284 H310 0.930 . S
C285 C280 1.479 . S
C285 C284 1.405 . S
C285 H311 0.931 . S
U286 O287 2.454 1_565 S
U286 O288 2.458 1_565 S
U286 C289 2.984 1_565 S
U286 C290 2.847 . S
U286 C303 2.882 . S
U286 O304 2.441 . S
U286 O305 2.420 . S
U286 O306 2.455 1_565 S
U286 O307 2.449 . S
O287 U286 2.454 1_545 S
O287 C289 1.353 . S
O288 U286 2.458 1_545 S
O288 C289 1.286 . S
C289 U286 2.984 1_545 S
C289 O287 1.353 . S
C289 O288 1.286 . S
C289 C291 1.363 . S
C290 C280 1.465 . S
C290 U286 2.847 . S
C290 O304 1.249 . S
C290 O305 1.202 . S
C291 C289 1.363 . S
C291 C293 1.408 . S
C291 C296 1.342 . S
C292 C293 1.310 . S
C292 C295 1.461 . S
C292 H312 0.932 . S
C293 C291 1.408 . S
C293 C292 1.310 . S
C293 H313 0.930 . S
C294 C295 1.474 . S
C294 C296 1.285 . S
C294 H314 0.929 . S
C295 C292 1.461 . S
C295 C294 1.474 . S
C296 C291 1.342 . S
C296 C294 1.285 . S
C296 H315 0.930 . S
C297 C300 1.424 . S
C297 C302 1.245 1_565 S
C297 C303 1.428 . S
C298 C301 1.260 1_545 S
C298 C302 1.477 . S
C298 H316 0.932 . S
C299 C300 1.384 . S
C299 C301 1.479 . S
C299 H317 0.929 . S
C300 C297 1.424 . S
C300 C299 1.384 . S
C300 H318 0.928 . S
C301 C298 1.260 1_565 S
C301 C299 1.479 . S
C302 C297 1.245 1_545 S
C302 C298 1.477 . S
C302 H319 0.932 . S
C303 U286 2.882 . S
C303 C297 1.428 . S
C303 O306 1.301 1_565 S
C303 O307 1.282 . S
O304 U286 2.441 . S
O304 C290 1.249 . S
O305 U286 2.420 . S
O305 C290 1.202 . S
O306 U286 2.455 1_545 S
O306 C303 1.301 1_545 S
O307 U286 2.449 . S
O307 C303 1.282 . S
H308 C281 0.931 . S
H309 C283 0.929 . S
H310 C284 0.930 . S
H311 C285 0.931 . S
H312 C292 0.932 . S
H313 C293 0.930 . S
H314 C294 0.929 . S
H315 C296 0.930 . S
H316 C298 0.932 . S
H317 C299 0.929 . S
H318 C300 0.928 . S
H319 C302 0.932 . S
C320 C321 1.264 . S
C320 C325 1.479 . S
C320 C330 1.465 . S
C321 C320 1.264 . S
C321 C323 1.339 . S
C321 H348 0.931 . S
C322 C323 1.395 . S
C322 C324 1.320 . S
C323 C321 1.339 . S
C323 C322 1.395 . S
C323 H349 0.929 . S
C324 C322 1.320 . S
C324 C325 1.405 . S
C324 H350 0.930 . S
C325 C320 1.479 . S
C325 C324 1.405 . S
C325 H351 0.931 . S
U326 O327 2.454 . S
U326 O328 2.458 . S
U326 C329 2.984 . S
U326 C330 2.847 . S
U326 C343 2.882 . S
U326 O344 2.441 . S
U326 O345 2.420 . S
U326 O346 2.455 . S
U326 O347 2.449 . S
O327 U326 2.454 . S
O327 C329 1.353 . S
O328 U326 2.458 . S
O328 C329 1.286 . S
C329 U326 2.984 . S
C329 O327 1.353 . S
C329 O328 1.286 . S
C329 C331 1.363 . S
C330 C320 1.465 . S
C330 U326 2.847 . S
C330 O344 1.249 . S
C330 O345 1.202 . S
C331 C329 1.363 . S
C331 C333 1.408 . S
C331 C336 1.342 . S
C332 C333 1.310 . S
C332 C335 1.461 . S
C332 H352 0.932 . S
C333 C331 1.408 . S
C333 C332 1.310 . S
C333 H353 0.930 . S
C334 C335 1.474 . S
C334 C336 1.285 . S
C334 H354 0.929 . S
C335 C332 1.461 . S
C335 C334 1.474 . S
C336 C331 1.342 . S
C336 C334 1.285 . S
C336 H355 0.930 . S
C337 C340 1.424 . S
C337 C342 1.245 . S
C337 C343 1.428 . S
C338 C341 1.260 1_554 S
C338 C342 1.477 . S
C338 H356 0.953 . S
C339 C340 1.384 . S
C339 C341 1.479 1_554 S
C339 H357 0.929 . S
C340 C337 1.424 . S
C340 C339 1.384 . S
C340 H358 0.928 . S
C341 C338 1.260 1_556 S
C341 C339 1.479 1_556 S
C342 C337 1.245 . S
C342 C338 1.477 . S
C342 H359 0.932 . S
C343 U326 2.882 . S
C343 C337 1.428 . S
C343 O346 1.301 . S
C343 O347 1.282 . S
O344 U326 2.441 . S
O344 C330 1.249 . S
O345 U326 2.420 . S
O345 C330 1.202 . S
O346 U326 2.455 . S
O346 C343 1.301 . S
O347 U326 2.449 . S
O347 C343 1.282 . S
H348 C321 0.931 . S
H349 C323 0.929 . S
H350 C324 0.930 . S
H351 C325 0.931 . S
H352 C332 0.932 . S
H353 C333 0.930 . S
H354 C334 0.929 . S
H355 C336 0.930 . S
H356 C338 0.953 . S
H357 C339 0.929 . S
H358 C340 0.928 . S
H359 C342 0.932 . S
H360 C368 0.950 . S
H361 C373 0.950 . S
H362 C370 0.950 . S
H363 C372 0.950 . S
H364 C374 0.950 . S
H365 C376 0.950 . S
H366 C378 0.950 . S
H367 C379 0.950 . S
C368 H360 0.950 . S
C368 C369 1.386 . S
C368 C370 1.391 . S
C369 C368 1.386 . S
C369 C373 1.393 . S
C370 H362 0.950 . S
C370 C368 1.391 . S
C370 C371 1.400 . S
C371 C370 1.400 . S
C371 C372 1.398 . S
C371 C377 1.491 . S
C372 H363 0.950 . S
C372 C371 1.398 . S
C372 C373 1.391 . S
C373 H361 0.950 . S
C373 C369 1.393 . S
C373 C372 1.391 . S
C374 H364 0.950 . S
C374 C375 1.386 . S
C374 C376 1.391 . S
C375 C374 1.386 . S
C375 C379 1.393 . S
C376 H365 0.950 . S
C376 C374 1.391 . S
C376 C377 1.400 . S
C377 C371 1.491 . S
C377 C376 1.400 . S
C377 C378 1.398 . S
C378 H366 0.950 . S
C378 C377 1.398 . S
C378 C379 1.391 . S
C379 H367 0.950 . S
C379 C375 1.393 . S
C379 C378 1.391 . S
H380 C388 0.950 . S
H381 C393 0.950 . S
H382 C390 0.950 . S
H383 C392 0.950 . S
H384 C394 0.950 . S
H385 C396 0.950 . S
H386 C398 0.950 . S
H387 C399 0.950 . S
C388 H380 0.950 . S
C388 C389 1.386 . S
C388 C390 1.391 . S
C389 C388 1.386 . S
C389 C393 1.393 . S
C390 H382 0.950 . S
C390 C388 1.391 . S
C390 C391 1.400 . S
C391 C390 1.400 . S
C391 C392 1.398 . S
C391 C397 1.491 . S
C392 H383 0.950 . S
C392 C391 1.398 . S
C392 C393 1.391 . S
C393 H381 0.950 . S
C393 C389 1.393 . S
C393 C392 1.391 . S
C394 H384 0.950 . S
C394 C395 1.386 . S
C394 C396 1.391 . S
C395 C394 1.386 . S
C395 C399 1.393 . S
C396 H385 0.950 . S
C396 C394 1.391 . S
C396 C397 1.400 . S
C397 C391 1.491 . S
C397 C396 1.400 . S
C397 C398 1.398 . S
C398 H386 0.950 . S
C398 C397 1.398 . S
C398 C399 1.391 . S
C399 H387 0.950 . S
C399 C395 1.393 . S
C399 C398 1.391 . S
H400 C408 0.950 . S
H401 C413 0.950 . S
H402 C410 0.950 . S
H403 C412 0.950 . S
H404 C414 0.950 . S
H405 C416 0.950 . S
H406 C418 0.950 . S
H407 C419 0.950 . S
C408 H400 0.950 . S
C408 C409 1.386 . S
C408 C410 1.391 . S
C409 C408 1.386 . S
C409 C413 1.393 . S
C410 H402 0.950 . S
C410 C408 1.391 . S
C410 C411 1.400 . S
C411 C410 1.400 . S
C411 C412 1.398 . S
C411 C417 1.491 . S
C412 H403 0.950 . S
C412 C411 1.398 . S
C412 C413 1.391 . S
C413 H401 0.950 . S
C413 C409 1.393 . S
C413 C412 1.391 . S
C414 H404 0.950 . S
C414 C415 1.386 . S
C414 C416 1.391 . S
C415 C414 1.386 . S
C415 C419 1.393 . S
C416 H405 0.950 . S
C416 C414 1.391 . S
C416 C417 1.400 . S
C417 C411 1.491 . S
C417 C416 1.400 . S
C417 C418 1.398 . S
C418 H406 0.950 . S
C418 C417 1.398 . S
C418 C419 1.391 . S
C419 H407 0.950 . S
C419 C415 1.393 . S
C419 C418 1.391 . S
H420 C428 0.950 . S
H421 C433 0.950 . S
H422 C430 0.950 . S
H423 C432 0.950 . S
H424 C434 0.950 . S
H425 C436 0.950 . S
H426 C438 0.950 . S
H427 C439 0.950 . S
C428 H420 0.950 . S
C428 C429 1.386 . S
C428 C430 1.391 . S
C429 C428 1.386 . S
C429 C433 1.393 . S
C430 H422 0.950 . S
C430 C428 1.391 . S
C430 C431 1.400 . S
C431 C430 1.400 . S
C431 C432 1.398 . S
C431 C437 1.491 . S
C432 H423 0.950 . S
C432 C431 1.398 . S
C432 C433 1.391 . S
C433 H421 0.950 . S
C433 C429 1.393 . S
C433 C432 1.391 . S
C434 H424 0.950 . S
C434 C435 1.386 . S
C434 C436 1.391 . S
C435 C434 1.386 . S
C435 C439 1.393 . S
C436 H425 0.950 . S
C436 C434 1.391 . S
C436 C437 1.400 . S
C437 C431 1.491 . S
C437 C436 1.400 . S
C437 C438 1.398 . S
C438 H426 0.950 . S
C438 C437 1.398 . S
C438 C439 1.391 . S
C439 H427 0.950 . S
C439 C435 1.393 . S
C439 C438 1.391 . S
H440 C448 0.950 . S
H441 C453 0.950 . S
H442 C450 0.950 . S
H443 C452 0.950 . S
H444 C454 0.950 . S
H445 C456 0.950 . S
H446 C458 0.950 . S
H447 C459 0.950 . S
C448 H440 0.950 . S
C448 C449 1.386 . S
C448 C450 1.391 . S
C449 C448 1.386 . S
C449 C453 1.393 . S
C450 H442 0.950 . S
C450 C448 1.391 . S
C450 C451 1.400 . S
C451 C450 1.400 . S
C451 C452 1.398 . S
C451 C457 1.491 . S
C452 H443 0.950 . S
C452 C451 1.398 . S
C452 C453 1.391 . S
C453 H441 0.950 . S
C453 C449 1.393 . S
C453 C452 1.391 . S
C454 H444 0.950 . S
C454 C455 1.386 . S
C454 C456 1.391 . S
C455 C454 1.386 . S
C455 C459 1.393 . S
C456 H445 0.950 . S
C456 C454 1.391 . S
C456 C457 1.400 . S
C457 C451 1.491 . S
C457 C456 1.400 . S
C457 C458 1.398 . S
C458 H446 0.950 . S
C458 C457 1.398 . S
C458 C459 1.391 . S
C459 H447 0.950 . S
C459 C455 1.393 . S
C459 C458 1.391 . S
H460 C468 0.950 . S
H461 C473 0.950 . S
H462 C470 0.950 . S
H463 C472 0.950 . S
H464 C474 0.950 . S
H465 C476 0.950 . S
H466 C478 0.950 . S
H467 C479 0.950 . S
C468 H460 0.950 . S
C468 C469 1.386 . S
C468 C470 1.391 . S
C469 C468 1.386 . S
C469 C473 1.393 . S
C470 H462 0.950 . S
C470 C468 1.391 . S
C470 C471 1.400 . S
C471 C470 1.400 . S
C471 C472 1.398 . S
C471 C477 1.491 . S
C472 H463 0.950 . S
C472 C471 1.398 . S
C472 C473 1.391 . S
C473 H461 0.950 . S
C473 C469 1.393 . S
C473 C472 1.391 . S
C474 H464 0.950 . S
C474 C475 1.386 . S
C474 C476 1.391 . S
C475 C474 1.386 . S
C475 C479 1.393 . S
C476 H465 0.950 . S
C476 C474 1.391 . S
C476 C477 1.400 . S
C477 C471 1.491 . S
C477 C476 1.400 . S
C477 C478 1.398 . S
C478 H466 0.950 . S
C478 C477 1.398 . S
C478 C479 1.391 . S
C479 H467 0.950 . S
C479 C475 1.393 . S
C479 C478 1.391 . S
H480 C488 0.950 . S
H481 C493 0.950 . S
H482 C490 0.950 . S
H483 C492 0.950 . S
H484 C494 0.950 . S
H485 C496 0.950 . S
H486 C498 0.950 . S
H487 C499 0.950 . S
C488 H480 0.950 . S
C488 C489 1.386 . S
C488 C490 1.391 . S
C489 C488 1.386 . S
C489 C493 1.393 . S
C490 H482 0.950 . S
C490 C488 1.391 . S
C490 C491 1.400 . S
C491 C490 1.400 . S
C491 C492 1.398 . S
C491 C497 1.491 . S
C492 H483 0.950 . S
C492 C491 1.398 . S
C492 C493 1.391 . S
C493 H481 0.950 . S
C493 C489 1.393 . S
C493 C492 1.391 . S
C494 H484 0.950 . S
C494 C495 1.386 . S
C494 C496 1.391 . S
C495 C494 1.386 . S
C495 C499 1.393 . S
C496 H485 0.950 . S
C496 C494 1.391 . S
C496 C497 1.400 . S
C497 C491 1.491 . S
C497 C496 1.400 . S
C497 C498 1.398 . S
C498 H486 0.950 . S
C498 C497 1.398 . S
C498 C499 1.391 . S
C499 H487 0.950 . S
C499 C495 1.393 . S
C499 C498 1.391 . S
H500 C508 0.950 . S
H501 C513 0.950 . S
H502 C510 0.950 . S
H503 C512 0.950 . S
H504 C514 0.950 . S
H505 C516 0.950 . S
H506 C518 0.950 . S
H507 C519 0.950 . S
C508 H500 0.950 . S
C508 C509 1.386 . S
C508 C510 1.391 . S
C509 C508 1.386 . S
C509 C513 1.393 . S
C510 H502 0.950 . S
C510 C508 1.391 . S
C510 C511 1.400 . S
C511 C510 1.400 . S
C511 C512 1.398 . S
C511 C517 1.491 . S
C512 H503 0.950 . S
C512 C511 1.398 . S
C512 C513 1.391 . S
C513 H501 0.950 . S
C513 C509 1.393 . S
C513 C512 1.391 . S
C514 H504 0.950 . S
C514 C515 1.386 . S
C514 C516 1.391 . S
C515 C514 1.386 . S
C515 C519 1.393 . S
C516 H505 0.950 . S
C516 C514 1.391 . S
C516 C517 1.400 . S
C517 C511 1.491 . S
C517 C516 1.400 . S
C517 C518 1.398 . S
C518 H506 0.950 . S
C518 C517 1.398 . S
C518 C519 1.391 . S
C519 H507 0.950 . S
C519 C515 1.393 . S
C519 C518 1.391 . S
H520 C528 0.950 . S
H521 C533 0.950 . S
H522 C530 0.950 . S
H523 C532 0.950 . S
H524 C534 0.950 . S
H525 C536 0.950 . S
H526 C538 0.950 . S
H527 C539 0.950 . S
C528 H520 0.950 . S
C528 C529 1.386 . S
C528 C530 1.391 . S
C529 C528 1.386 . S
C529 C533 1.393 . S
C530 H522 0.950 . S
C530 C528 1.391 . S
C530 C531 1.400 . S
C531 C530 1.400 . S
C531 C532 1.398 . S
C531 C537 1.491 . S
C532 H523 0.950 . S
C532 C531 1.398 . S
C532 C533 1.391 . S
C533 H521 0.950 . S
C533 C529 1.393 . S
C533 C532 1.391 . S
C534 H524 0.950 . S
C534 C535 1.386 . S
C534 C536 1.391 . S
C535 C534 1.386 . S
C535 C539 1.393 . S
C536 H525 0.950 . S
C536 C534 1.391 . S
C536 C537 1.400 . S
C537 C531 1.491 . S
C537 C536 1.400 . S
C537 C538 1.398 . S
C538 H526 0.950 . S
C538 C537 1.398 . S
C538 C539 1.391 . S
C539 H527 0.950 . S
C539 C535 1.393 . S
C539 C538 1.391 . S
H540 C548 0.950 . S
H541 C553 0.950 . S
H542 C550 0.950 . S
H543 C552 0.950 . S
H544 C554 0.950 . S
H545 C556 0.950 . S
H546 C558 0.950 . S
H547 C559 0.950 . S
C548 H540 0.950 . S
C548 C549 1.386 . S
C548 C550 1.391 . S
C549 C548 1.386 . S
C549 C553 1.393 . S
C550 H542 0.950 . S
C550 C548 1.391 . S
C550 C551 1.400 . S
C551 C550 1.400 . S
C551 C552 1.398 . S
C551 C557 1.491 . S
C552 H543 0.950 . S
C552 C551 1.398 . S
C552 C553 1.391 . S
C553 H541 0.950 . S
C553 C549 1.393 . S
C553 C552 1.391 . S
C554 H544 0.950 . S
C554 C555 1.386 . S
C554 C556 1.391 . S
C555 C554 1.386 . S
C555 C559 1.393 . S
C556 H545 0.950 . S
C556 C554 1.391 . S
C556 C557 1.400 . S
C557 C551 1.491 . S
C557 C556 1.400 . S
C557 C558 1.398 . S
C558 H546 0.950 . S
C558 C557 1.398 . S
C558 C559 1.391 . S
C559 H547 0.950 . S
C559 C555 1.393 . S
C559 C558 1.391 . S
H560 C568 0.950 . S
H561 C573 0.950 . S
H562 C570 0.950 . S
H563 C572 0.950 . S
H564 C574 0.950 . S
H565 C576 0.950 . S
H566 C578 0.950 . S
H567 C579 0.950 . S
C568 H560 0.950 . S
C568 C569 1.386 . S
C568 C570 1.391 . S
C569 C568 1.386 . S
C569 C573 1.393 . S
C570 H562 0.950 . S
C570 C568 1.391 . S
C570 C571 1.400 . S
C571 C570 1.400 . S
C571 C572 1.398 . S
C571 C577 1.491 . S
C572 H563 0.950 . S
C572 C571 1.398 . S
C572 C573 1.391 . S
C573 H561 0.950 . S
C573 C569 1.393 . S
C573 C572 1.391 . S
C574 H564 0.950 . S
C574 C575 1.386 . S
C574 C576 1.391 . S
C575 C574 1.386 . S
C575 C579 1.393 . S
C576 H565 0.950 . S
C576 C574 1.391 . S
C576 C577 1.400 . S
C577 C571 1.491 . S
C577 C576 1.400 . S
C577 C578 1.398 . S
C578 H566 0.950 . S
C578 C577 1.398 . S
C578 C579 1.391 . S
C579 H567 0.950 . S
C579 C575 1.393 . S
C579 C578 1.391 . S
H580 C588 0.950 . S
H581 C593 0.950 . S
H582 C590 0.950 . S
H583 C592 0.950 . S
H584 C594 0.950 . S
H585 C596 0.950 . S
H586 C598 0.950 . S
H587 C599 0.950 . S
C588 H580 0.950 . S
C588 C589 1.386 . S
C588 C590 1.391 . S
C589 C588 1.386 . S
C589 C593 1.393 . S
C590 H582 0.950 . S
C590 C588 1.391 . S
C590 C591 1.400 . S
C591 C590 1.400 . S
C591 C592 1.398 . S
C591 C597 1.491 . S
C592 H583 0.950 . S
C592 C591 1.398 . S
C592 C593 1.391 . S
C593 H581 0.950 . S
C593 C589 1.393 . S
C593 C592 1.391 . S
C594 H584 0.950 . S
C594 C595 1.386 . S
C594 C596 1.391 . S
C595 C594 1.386 . S
C595 C599 1.393 . S
C596 H585 0.950 . S
C596 C594 1.391 . S
C596 C597 1.400 . S
C597 C591 1.491 . S
C597 C596 1.400 . S
C597 C598 1.398 . S
C598 H586 0.950 . S
C598 C597 1.398 . S
C598 C599 1.391 . S
C599 H587 0.950 . S
C599 C595 1.393 . S
C599 C598 1.391 . S
H600 C608 0.950 1_655 S
H601 C613 0.950 . S
H602 C610 0.950 1_655 S
H603 C612 0.950 . S
H604 C614 0.950 . S
H605 C616 0.950 . S
H606 C618 0.950 1_655 S
H607 C619 0.950 . S
C608 H600 0.950 1_455 S
C608 C609 1.386 . S
C608 C610 1.391 . S
C609 C608 1.386 . S
C609 C613 1.393 . S
C610 H602 0.950 1_455 S
C610 C608 1.391 . S
C610 C611 1.400 . S
C611 C610 1.400 . S
C611 C612 1.398 . S
C611 C617 1.491 . S
C612 H603 0.950 . S
C612 C611 1.398 . S
C612 C613 1.391 . S
C613 H601 0.950 . S
C613 C609 1.393 . S
C613 C612 1.391 . S
C614 H604 0.950 . S
C614 C615 1.386 . S
C614 C616 1.391 . S
C615 C614 1.386 . S
C615 C619 1.393 . S
C616 H605 0.950 . S
C616 C614 1.391 . S
C616 C617 1.400 . S
C617 C611 1.491 . S
C617 C616 1.400 . S
C617 C618 1.398 . S
C618 H606 0.950 1_455 S
C618 C617 1.398 . S
C618 C619 1.391 . S
C619 H607 0.950 . S
C619 C615 1.393 . S
C619 C618 1.391 . S
H620 C628 0.950 . S
H621 C633 0.950 . S
H622 C630 0.950 . S
H623 C632 0.950 . S
H624 C634 0.950 . S
H625 C636 0.950 . S
H626 C638 0.950 . S
H627 C639 0.950 . S
C628 H620 0.950 . S
C628 C629 1.386 . S
C628 C630 1.391 . S
C629 C628 1.386 . S
C629 C633 1.393 . S
C630 H622 0.950 . S
C630 C628 1.391 . S
C630 C631 1.400 . S
C631 C630 1.400 . S
C631 C632 1.398 . S
C631 C637 1.491 . S
C632 H623 0.950 . S
C632 C631 1.398 . S
C632 C633 1.391 . S
C633 H621 0.950 . S
C633 C629 1.393 . S
C633 C632 1.391 . S
C634 H624 0.950 . S
C634 C635 1.386 . S
C634 C636 1.391 . S
C635 C634 1.386 . S
C635 C639 1.393 . S
C636 H625 0.950 . S
C636 C634 1.391 . S
C636 C637 1.400 . S
C637 C631 1.491 . S
C637 C636 1.400 . S
C637 C638 1.398 . S
C638 H626 0.950 . S
C638 C637 1.398 . S
C638 C639 1.391 . S
C639 H627 0.950 . S
C639 C635 1.393 . S
C639 C638 1.391 . S
H640 C648 0.950 . S
H641 C653 0.950 . S
H642 C650 0.950 . S
H643 C652 0.950 . S
H644 C654 0.950 . S
H645 C656 0.950 . S
H646 C658 0.950 . S
H647 C659 0.950 . S
C648 H640 0.950 . S
C648 C649 1.386 . S
C648 C650 1.391 . S
C649 C648 1.386 . S
C649 C653 1.393 . S
C650 H642 0.950 . S
C650 C648 1.391 . S
C650 C651 1.400 . S
C651 C650 1.400 . S
C651 C652 1.398 . S
C651 C657 1.491 . S
C652 H643 0.950 . S
C652 C651 1.398 . S
C652 C653 1.391 . S
C653 H641 0.950 . S
C653 C649 1.393 . S
C653 C652 1.391 . S
C654 H644 0.950 . S
C654 C655 1.386 . S
C654 C656 1.391 . S
C655 C654 1.386 . S
C655 C659 1.393 . S
C656 H645 0.950 . S
C656 C654 1.391 . S
C656 C657 1.400 . S
C657 C651 1.491 . S
C657 C656 1.400 . S
C657 C658 1.398 . S
C658 H646 0.950 . S
C658 C657 1.398 . S
C658 C659 1.391 . S
C659 H647 0.950 . S
C659 C655 1.393 . S
C659 C658 1.391 . S
H660 C668 0.950 . S
H661 C673 0.950 . S
H662 C670 0.950 . S
H663 C672 0.950 . S
H664 C674 0.950 . S
H665 C676 0.950 . S
H666 C678 0.950 . S
H667 C679 0.950 . S
C668 H660 0.950 . S
C668 C669 1.386 . S
C668 C670 1.391 . S
C669 C668 1.386 . S
C669 C673 1.393 1_545 S
C670 H662 0.950 . S
C670 C668 1.391 . S
C670 C671 1.423 . S
C671 C670 1.423 . S
C671 C672 1.378 1_545 S
C671 C677 1.486 1_545 S
C672 H663 0.950 . S
C672 C671 1.378 1_565 S
C672 C673 1.391 . S
C673 H661 0.950 . S
C673 C669 1.393 1_565 S
C673 C672 1.391 . S
C674 H664 0.950 . S
C674 C675 1.386 . S
C674 C676 1.391 . S
C675 C674 1.386 . S
C675 C679 1.393 1_565 S
C676 H665 0.950 . S
C676 C674 1.391 . S
C676 C677 1.424 . S
C677 C671 1.486 1_565 S
C677 C676 1.424 . S
C677 C678 1.377 1_565 S
C678 H666 0.950 . S
C678 C677 1.377 1_545 S
C678 C679 1.391 . S
C679 H667 0.950 . S
C679 C675 1.393 1_545 S
C679 C678 1.391 . S
H680 C688 0.950 . S
H681 C693 0.950 . S
H682 C690 0.950 . S
H683 C692 0.950 . S
H684 C694 0.950 . S
H685 C696 0.950 . S
H686 C698 0.950 . S
H687 C699 0.950 . S
C688 H680 0.950 . S
C688 C689 1.386 . S
C688 C690 1.391 . S
C689 C688 1.386 . S
C689 C693 1.393 . S
C690 H682 0.950 . S
C690 C688 1.391 . S
C690 C691 1.400 . S
C691 C690 1.400 . S
C691 C692 1.398 . S
C691 C697 1.491 . S
C692 H683 0.950 . S
C692 C691 1.398 . S
C692 C693 1.391 . S
C693 H681 0.950 . S
C693 C689 1.393 . S
C693 C692 1.391 . S
C694 H684 0.950 . S
C694 C695 1.386 . S
C694 C696 1.391 . S
C695 C694 1.386 . S
C695 C699 1.393 . S
C696 H685 0.950 . S
C696 C694 1.391 . S
C696 C697 1.400 . S
C697 C691 1.491 . S
C697 C696 1.400 . S
C697 C698 1.398 . S
C698 H686 0.950 . S
C698 C697 1.398 . S
C698 C699 1.391 . S
C699 H687 0.950 . S
C699 C695 1.393 . S
C699 C698 1.391 . S
H700 C708 0.950 . S
H701 C713 0.950 . S
H702 C710 0.950 . S
H703 C712 0.950 . S
H704 C714 0.950 . S
H705 C716 0.950 . S
H706 C718 0.950 . S
H707 C719 0.950 . S
C708 H700 0.950 . S
C708 C709 1.386 . S
C708 C710 1.391 . S
C709 C708 1.386 . S
C709 C713 1.393 1_455 S
C710 H702 0.950 . S
C710 C708 1.391 . S
C710 C711 1.400 . S
C711 C710 1.400 . S
C711 C712 1.398 1_455 S
C711 C717 1.491 . S
C712 H703 0.950 . S
C712 C711 1.398 1_655 S
C712 C713 1.391 . S
C713 H701 0.950 . S
C713 C709 1.393 1_655 S
C713 C712 1.391 . S
C714 H704 0.950 . S
C714 C715 1.386 . S
C714 C716 1.391 . S
C715 C714 1.386 . S
C715 C719 1.393 1_655 S
C716 H705 0.950 . S
C716 C714 1.391 . S
C716 C717 1.400 1_655 S
C717 C711 1.491 . S
C717 C716 1.400 1_455 S
C717 C718 1.398 . S
C718 H706 0.950 . S
C718 C717 1.398 . S
C718 C719 1.391 . S
C719 H707 0.950 . S
C719 C715 1.393 1_455 S
C719 C718 1.391 . S
C369 C7 0.617 . S
C375 C335 0.629 . S
C389 C51 1.958 . S
C395 C242 1.930 . S
C409 C87 1.195 . S
C415 C282 1.218 . S
C429 C16 0.325 . S
C435 C322 0.277 . S
C455 C255 2.097 . S
C449 C42 2.161 . S
C475 C295 1.362 . S
C469 C96 1.367 . S
C489 C47 1.177 . S
C495 C162 1.172 . S
C509 C91 3.173 . S
C515 C202 3.124 . S
C529 C2 2.189 . S
C535 C135 2.121 . S
C555 C175 1.328 . S
C549 C56 1.344 . S
C575 C215 2.993 . S
C569 C82 3.055 . S
C589 C11 1.951 . S
C595 C122 1.928 . S
C615 C221 1.745 1_554 S
C609 C19 1.699 . S
C629 C50 1.355 . S
C635 C141 1.386 . S
C649 C99 1.474 . S
C655 C181 1.516 . S
C675 C301 1.500 . S
C669 C59 1.463 . S
C695 C341 1.145 . S
C689 C90 1.129 . S
C709 C10 1.361 . S
C715 C261 1.383 . S
