# Generated by pormake.
# Topology fgl, (4,4)-cn, num edge types: 1
# Building blocks:
#     Node 0, Type 0, BuildingBlock: ESEHIV_clean_sbu_0, # of connection points: 4
#     Node 1, Type 0, BuildingBlock: ESEHIV_clean_sbu_0, # of connection points: 4
#     Node 2, Type 0, BuildingBlock: ESEHIV_clean_sbu_0, # of connection points: 4
#     Node 3, Type 0, BuildingBlock: ESEHIV_clean_sbu_0, # of connection points: 4
#     Node 4, Type 0, BuildingBlock: ESEHIV_clean_sbu_0, # of connection points: 4
#     Node 5, Type 0, BuildingBlock: ESEHIV_clean_sbu_0, # of connection points: 4
#     Node 6, Type 0, BuildingBlock: ESEHIV_clean_sbu_0, # of connection points: 4
#     Node 7, Type 0, BuildingBlock: ESEHIV_clean_sbu_0, # of connection points: 4
#     Node 8, Type 0, BuildingBlock: ESEHIV_clean_sbu_0, # of connection points: 4
#     Node 9, Type 0, BuildingBlock: ESEHIV_clean_sbu_0, # of connection points: 4
#     Node 10, Type 0, BuildingBlock: ESEHIV_clean_sbu_0, # of connection points: 4
#     Node 11, Type 0, BuildingBlock: ESEHIV_clean_sbu_0, # of connection points: 4
#     Node 12, Type 0, BuildingBlock: ESEHIV_clean_sbu_0, # of connection points: 4
#     Node 13, Type 0, BuildingBlock: ESEHIV_clean_sbu_0, # of connection points: 4
#     Node 14, Type 0, BuildingBlock: ESEHIV_clean_sbu_0, # of connection points: 4
#     Node 15, Type 0, BuildingBlock: ESEHIV_clean_sbu_0, # of connection points: 4
#     Node 16, Type 0, BuildingBlock: ESEHIV_clean_sbu_0, # of connection points: 4
#     Node 17, Type 0, BuildingBlock: ESEHIV_clean_sbu_0, # of connection points: 4
#     Node 18, Type 1, BuildingBlock: TATPOV_clean_sbu_0, # of connection points: 4
#     Node 19, Type 1, BuildingBlock: TATPOV_clean_sbu_0, # of connection points: 4
#     Node 20, Type 1, BuildingBlock: TATPOV_clean_sbu_0, # of connection points: 4
#     Node 21, Type 1, BuildingBlock: TATPOV_clean_sbu_0, # of connection points: 4
#     Node 22, Type 1, BuildingBlock: TATPOV_clean_sbu_0, # of connection points: 4
#     Node 23, Type 1, BuildingBlock: TATPOV_clean_sbu_0, # of connection points: 4
#     Node 24, Type 1, BuildingBlock: TATPOV_clean_sbu_0, # of connection points: 4
#     Node 25, Type 1, BuildingBlock: TATPOV_clean_sbu_0, # of connection points: 4
#     Node 26, Type 1, BuildingBlock: TATPOV_clean_sbu_0, # of connection points: 4
#     Node 27, Type 1, BuildingBlock: TATPOV_clean_sbu_0, # of connection points: 4
#     Node 28, Type 1, BuildingBlock: TATPOV_clean_sbu_0, # of connection points: 4
#     Node 29, Type 1, BuildingBlock: TATPOV_clean_sbu_0, # of connection points: 4
#     Node 30, Type 1, BuildingBlock: TATPOV_clean_sbu_0, # of connection points: 4
#     Node 31, Type 1, BuildingBlock: TATPOV_clean_sbu_0, # of connection points: 4
#     Node 32, Type 1, BuildingBlock: TATPOV_clean_sbu_0, # of connection points: 4
#     Node 33, Type 1, BuildingBlock: TATPOV_clean_sbu_0, # of connection points: 4
#     Node 34, Type 1, BuildingBlock: TATPOV_clean_sbu_0, # of connection points: 4
#     Node 35, Type 1, BuildingBlock: TATPOV_clean_sbu_0, # of connection points: 4
#     Edge 36, Type (0, 1), BuildingBlock: AJUNOK_clean_linker_0, # of connection points: 2
#     Edge 37, Type (0, 1), BuildingBlock: AJUNOK_clean_linker_0, # of connection points: 2
#     Edge 38, Type (0, 1), BuildingBlock: AJUNOK_clean_linker_0, # of connection points: 2
#     Edge 39, Type (0, 1), BuildingBlock: AJUNOK_clean_linker_0, # of connection points: 2
#     Edge 40, Type (0, 1), BuildingBlock: AJUNOK_clean_linker_0, # of connection points: 2
#     Edge 41, Type (0, 1), BuildingBlock: AJUNOK_clean_linker_0, # of connection points: 2
#     Edge 42, Type (0, 1), BuildingBlock: AJUNOK_clean_linker_0, # of connection points: 2
#     Edge 43, Type (0, 1), BuildingBlock: AJUNOK_clean_linker_0, # of connection points: 2
#     Edge 44, Type (0, 1), BuildingBlock: AJUNOK_clean_linker_0, # of connection points: 2
#     Edge 45, Type (0, 1), BuildingBlock: AJUNOK_clean_linker_0, # of connection points: 2
#     Edge 46, Type (0, 1), BuildingBlock: AJUNOK_clean_linker_0, # of connection points: 2
#     Edge 47, Type (0, 1), BuildingBlock: AJUNOK_clean_linker_0, # of connection points: 2
#     Edge 48, Type (0, 1), BuildingBlock: AJUNOK_clean_linker_0, # of connection points: 2
#     Edge 49, Type (0, 1), BuildingBlock: AJUNOK_clean_linker_0, # of connection points: 2
#     Edge 50, Type (0, 1), BuildingBlock: AJUNOK_clean_linker_0, # of connection points: 2
#     Edge 51, Type (0, 1), BuildingBlock: AJUNOK_clean_linker_0, # of connection points: 2
#     Edge 52, Type (0, 1), BuildingBlock: AJUNOK_clean_linker_0, # of connection points: 2
#     Edge 53, Type (0, 1), BuildingBlock: AJUNOK_clean_linker_0, # of connection points: 2
#     Edge 54, Type (0, 1), BuildingBlock: AJUNOK_clean_linker_0, # of connection points: 2
#     Edge 55, Type (0, 1), BuildingBlock: AJUNOK_clean_linker_0, # of connection points: 2
#     Edge 56, Type (0, 1), BuildingBlock: AJUNOK_clean_linker_0, # of connection points: 2
#     Edge 57, Type (0, 1), BuildingBlock: AJUNOK_clean_linker_0, # of connection points: 2
#     Edge 58, Type (0, 1), BuildingBlock: AJUNOK_clean_linker_0, # of connection points: 2
#     Edge 59, Type (0, 1), BuildingBlock: AJUNOK_clean_linker_0, # of connection points: 2
#     Edge 60, Type (0, 1), BuildingBlock: AJUNOK_clean_linker_0, # of connection points: 2
#     Edge 61, Type (0, 1), BuildingBlock: AJUNOK_clean_linker_0, # of connection points: 2
#     Edge 62, Type (0, 1), BuildingBlock: AJUNOK_clean_linker_0, # of connection points: 2
#     Edge 63, Type (0, 1), BuildingBlock: AJUNOK_clean_linker_0, # of connection points: 2
#     Edge 64, Type (0, 1), BuildingBlock: AJUNOK_clean_linker_0, # of connection points: 2
#     Edge 65, Type (0, 1), BuildingBlock: AJUNOK_clean_linker_0, # of connection points: 2
#     Edge 66, Type (0, 1), BuildingBlock: AJUNOK_clean_linker_0, # of connection points: 2
#     Edge 67, Type (0, 1), BuildingBlock: AJUNOK_clean_linker_0, # of connection points: 2
#     Edge 68, Type (0, 1), BuildingBlock: AJUNOK_clean_linker_0, # of connection points: 2
#     Edge 69, Type (0, 1), BuildingBlock: AJUNOK_clean_linker_0, # of connection points: 2
#     Edge 70, Type (0, 1), BuildingBlock: AJUNOK_clean_linker_0, # of connection points: 2
#     Edge 71, Type (0, 1), BuildingBlock: AJUNOK_clean_linker_0, # of connection points: 2
#     Edge 72, Type (0, 1), BuildingBlock: AJUNOK_clean_linker_0, # of connection points: 2
#     Edge 73, Type (0, 1), BuildingBlock: AJUNOK_clean_linker_0, # of connection points: 2
#     Edge 74, Type (0, 1), BuildingBlock: AJUNOK_clean_linker_0, # of connection points: 2
#     Edge 75, Type (0, 1), BuildingBlock: AJUNOK_clean_linker_0, # of connection points: 2
#     Edge 76, Type (0, 1), BuildingBlock: AJUNOK_clean_linker_0, # of connection points: 2
#     Edge 77, Type (0, 1), BuildingBlock: AJUNOK_clean_linker_0, # of connection points: 2
#     Edge 78, Type (0, 1), BuildingBlock: AJUNOK_clean_linker_0, # of connection points: 2
#     Edge 79, Type (0, 1), BuildingBlock: AJUNOK_clean_linker_0, # of connection points: 2
#     Edge 80, Type (0, 1), BuildingBlock: AJUNOK_clean_linker_0, # of connection points: 2
#     Edge 81, Type (0, 1), BuildingBlock: AJUNOK_clean_linker_0, # of connection points: 2
#     Edge 82, Type (0, 1), BuildingBlock: AJUNOK_clean_linker_0, # of connection points: 2
#     Edge 83, Type (0, 1), BuildingBlock: AJUNOK_clean_linker_0, # of connection points: 2
#     Edge 84, Type (0, 1), BuildingBlock: AJUNOK_clean_linker_0, # of connection points: 2
#     Edge 85, Type (0, 1), BuildingBlock: AJUNOK_clean_linker_0, # of connection points: 2
#     Edge 86, Type (0, 1), BuildingBlock: AJUNOK_clean_linker_0, # of connection points: 2
#     Edge 87, Type (0, 1), BuildingBlock: AJUNOK_clean_linker_0, # of connection points: 2
#     Edge 88, Type (0, 1), BuildingBlock: AJUNOK_clean_linker_0, # of connection points: 2
#     Edge 89, Type (0, 1), BuildingBlock: AJUNOK_clean_linker_0, # of connection points: 2
#     Edge 90, Type (0, 1), BuildingBlock: AJUNOK_clean_linker_0, # of connection points: 2
#     Edge 91, Type (0, 1), BuildingBlock: AJUNOK_clean_linker_0, # of connection points: 2
#     Edge 92, Type (0, 1), BuildingBlock: AJUNOK_clean_linker_0, # of connection points: 2
#     Edge 93, Type (0, 1), BuildingBlock: AJUNOK_clean_linker_0, # of connection points: 2
#     Edge 94, Type (0, 1), BuildingBlock: AJUNOK_clean_linker_0, # of connection points: 2
#     Edge 95, Type (0, 1), BuildingBlock: AJUNOK_clean_linker_0, # of connection points: 2
#     Edge 96, Type (0, 1), BuildingBlock: AJUNOK_clean_linker_0, # of connection points: 2
#     Edge 97, Type (0, 1), BuildingBlock: AJUNOK_clean_linker_0, # of connection points: 2
#     Edge 98, Type (0, 1), BuildingBlock: AJUNOK_clean_linker_0, # of connection points: 2
#     Edge 99, Type (0, 1), BuildingBlock: AJUNOK_clean_linker_0, # of connection points: 2
#     Edge 100, Type (0, 1), BuildingBlock: AJUNOK_clean_linker_0, # of connection points: 2
#     Edge 101, Type (0, 1), BuildingBlock: AJUNOK_clean_linker_0, # of connection points: 2
#     Edge 102, Type (0, 1), BuildingBlock: AJUNOK_clean_linker_0, # of connection points: 2
#     Edge 103, Type (0, 1), BuildingBlock: AJUNOK_clean_linker_0, # of connection points: 2
#     Edge 104, Type (0, 1), BuildingBlock: AJUNOK_clean_linker_0, # of connection points: 2
#     Edge 105, Type (0, 1), BuildingBlock: AJUNOK_clean_linker_0, # of connection points: 2
#     Edge 106, Type (0, 1), BuildingBlock: AJUNOK_clean_linker_0, # of connection points: 2
#     Edge 107, Type (0, 1), BuildingBlock: AJUNOK_clean_linker_0, # of connection points: 2
# Relax obj value: 0.040
# Max RMSD: 0.144
# Mean RMSD: 0.103
data_MOF--net-fgl--node1-ESEHIV_clean_sbu_0--node2-TATPOV_clean_sbu_0--edge1-AJUNOK_clean_linker_0
_symmetry_space_group_name_H-M    P1
_symmetry_Int_Tables_number       1
_symmetry_cell_setting            triclinic
loop_
_symmetry_equiv_pos_as_xyz
'x, y, z'
_cell_length_a     55.342918
_cell_length_b     57.486378
_cell_length_c     38.482807
_cell_angle_alpha  90.170288
_cell_angle_beta   90.586702
_cell_angle_gamma 119.86923
loop_
_atom_site_label
_atom_site_type_symbol
_atom_site_fract_x
_atom_site_fract_y
_atom_site_fract_z
_atom_type_partial_charge
Cu0 Cu 0.99795 0.53988 0.02127 0.0
N1 N 0.98204 0.53939 0.0641 0.0
N2 N 0.98446 0.55693 0.11703 0.0
C3 C 0.99131 0.56193 0.08326 0.0
C4 C 0.97 0.5299 0.11929 0.0
C5 C 0.96875 0.51913 0.08659 0.0
O6 O 0.01198 0.5757 1.00368 0.0
C7 C 0.02046 0.5069 0.03374 0.0
O8 O 0.99671 0.48865 0.01996 0.0
H9 H 0.00475 0.58173 0.07304 0.0
H10 H 0.9611 0.49821 0.08043 0.0
N11 N 0.97404 0.5154 0.98755 0.0
N12 N 0.96228 0.48673 0.94265 0.0
C13 C 0.98292 0.50862 0.95876 0.0
C14 C 0.94665 0.49763 0.98936 0.0
C15 C 0.93936 0.47984 0.96177 0.0
C16 C 0.99393 0.58322 1.00146 0.0
O17 O 0.96792 0.56598 1.00897 0.0
H18 H 0.00471 0.51777 0.95208 0.0
H19 H 0.93344 0.49647 1.01059 0.0
O20 O 0.02665 0.5314 0.03373 0.0
H21 H 0.96291 0.51873 0.14316 0.0
H22 H 0.91919 0.46216 0.95743 0.0
Cu23 Cu 0.51542 0.5516 0.01984 0.0
N24 N 0.52169 0.56707 0.97293 0.0
N25 N 0.54248 0.58603 0.9229 0.0
C26 C 0.54168 0.57073 0.95005 0.0
C27 C 0.52184 0.59158 0.92861 0.0
C28 C 0.50915 0.57995 0.95944 0.0
O29 O 0.53956 0.58948 0.04137 0.0
C30 C 0.4861 0.49126 1.00757 0.0
O31 O 0.50329 0.49062 0.03084 0.0
H32 H 0.55636 0.56371 0.95421 0.0
H33 H 0.49264 0.58165 0.97187 0.0
N34 N 0.50977 0.53681 0.06688 0.0
N35 N 0.4911 0.51743 0.11747 0.0
C36 C 0.48614 0.52402 0.08543 0.0
C37 C 0.53021 0.53852 0.08776 0.0
C38 C 0.51878 0.52652 0.11884 0.0
C39 C 0.56456 0.60683 0.03367 0.0
O40 O 0.57761 0.60093 1.00999 0.0
H41 H 0.46582 0.51923 0.07542 0.0
H42 H 0.55195 0.54796 0.08081 0.0
O43 O 0.4886 0.51388 0.99903 0.0
H44 H 0.51663 0.60365 0.91199 0.0
H45 H 0.53006 0.52488 0.14097 0.0
Cu46 Cu 0.51565 0.02162 0.03321 0.0
N47 N 0.5029 0.0189 0.98754 0.0
N48 N 0.48592 0.02395 0.9371 0.0
C49 C 0.48982 0.03033 0.97138 0.0
C50 C 0.49726 0.00824 0.93168 0.0
C51 C 0.50737 0.00495 0.9628 0.0
O52 O 0.48486 0.9969 0.06306 0.0
C53 C 0.56695 0.03623 1.00716 0.0
O54 O 0.56031 0.05289 0.99233 0.0
H55 H 0.48332 0.04297 0.98444 0.0
H56 H 0.51802 0.99371 0.96705 0.0
N57 N 0.52711 0.05487 0.05411 0.0
N58 N 0.55206 0.08175 0.09841 0.0
C59 C 0.55217 0.06808 0.07 0.0
C60 C 0.51057 0.06117 0.07257 0.0
C61 C 0.52589 0.07761 0.10011 0.0
C62 C 0.46067 0.98023 0.05109 0.0
O63 O 0.45801 0.97377 0.01796 0.0
H64 H 0.56862 0.06358 0.0651 0.0
H65 H 0.48813 0.05108 0.06976 0.0
O66 O 0.54985 0.01925 0.02885 0.0
H67 H 0.499 1.00034 0.90687 0.0
H68 H 0.51756 0.08309 0.12199 0.0
Cu69 Cu 0.50951 0.04162 0.52383 0.0
N70 N 0.51343 0.0288 0.4807 0.0
N71 N 0.53376 0.03051 0.43006 0.0
C72 C 0.53143 0.04472 0.45648 0.0
C73 C 0.51673 0.00454 0.43815 0.0
C74 C 0.50418 1.00353 0.46943 0.0
O75 O 0.54047 0.04377 0.55244 0.0
C76 C 0.49154 0.07354 0.49075 0.0
O77 O 0.48032 0.05224 0.47041 0.0
H78 H 0.54382 0.06631 0.45927 0.0
H79 H 0.49042 0.98566 0.48366 0.0
N80 N 0.47584 0.01989 0.5465 0.0
N81 N 0.44241 0.01119 0.58492 0.0
C82 C 0.46522 0.03029 0.56906 0.0
C83 C 0.45886 0.9931 0.5479 0.0
C84 C 0.43836 0.98766 0.57204 0.0
C85 C 0.5383 0.02173 0.5633 0.0
O86 O 0.51479 0.9994 0.55748 0.0
H87 H 0.47484 0.05152 0.57492 0.0
H88 H 0.46169 0.97848 0.5335 0.0
O89 O 0.50781 0.07467 0.51548 0.0
H90 H 0.51413 0.98752 0.423 0.0
H91 H 0.42209 0.96804 0.57995 0.0
Cu92 Cu 0.03084 0.55784 0.54446 0.0
N93 N 0.05246 0.55371 0.57992 0.0
N94 N 0.05998 0.53213 0.62387 0.0
C95 C 0.04082 0.5343 0.60414 0.0
C96 C 0.08479 0.55113 0.61149 0.0
C97 C 0.08013 0.5644 0.5845 0.0
O98 O 0.00295 0.52087 0.53299 0.0
C99 C 0.04006 0.60708 0.56199 0.0
O100 O 0.06524 0.61067 0.55825 0.0
H101 H 0.0186 0.52078 0.6055 0.0
H102 H 0.09578 0.57988 0.56849 0.0
N103 N 0.04714 0.57297 0.5015 0.0
N104 N 0.04771 0.59312 0.45132 0.0
C105 C 0.03182 0.57579 0.47603 0.0
C106 C 0.07386 0.58881 0.49221 0.0
C107 C 0.07425 0.60129 0.46126 0.0
C108 C 0.01498 0.50737 0.5261 0.0
O109 O 0.04232 0.51979 0.52544 0.0
H110 H 0.00941 0.56699 0.47716 0.0
H111 H 0.09177 0.59268 0.508 0.0
O112 O 0.01936 0.58315 0.56062 0.0
H113 H 0.10496 0.55478 0.62069 0.0
H114 H 0.09262 0.61599 0.44786 0.0
Cu115 Cu 0.52165 0.57243 0.52078 0.0
N116 N 0.53828 0.60505 0.49749 0.0
N117 N 0.57149 0.64155 0.47162 0.0
C118 C 0.56508 0.61849 0.48788 0.0
C119 C 0.54767 0.64262 0.47075 0.0
C120 C 0.52715 0.61999 0.48675 0.0
O121 O 0.5448 0.57595 0.56065 0.0
C122 C 0.50646 0.5444 0.45758 0.0
O123 O 0.50693 0.56643 0.4476 0.0
H124 H 0.57986 0.61187 0.49358 0.0
H125 H 0.50568 0.6148 0.49035 0.0
N126 N 0.48863 0.56501 0.54148 0.0
N127 N 0.45502 0.54022 0.57864 0.0
C128 C 0.4711 0.54018 0.55266 0.0
C129 C 0.4831 0.58147 0.56051 0.0
C130 C 0.46192 0.56608 0.58321 0.0
C131 C 0.56851 0.57763 0.56184 0.0
O132 O 0.57909 0.57413 0.53323 0.0
H133 H 0.47185 0.52268 0.54376 0.0
H134 H 0.49547 0.60313 0.56048 0.0
O135 O 0.51338 0.54286 0.48884 0.0
H136 H 0.54523 0.65856 0.45948 0.0
H137 H 0.45389 0.57346 0.60336 0.0
Cu138 Cu 0.70098 0.89524 0.35461 0.0
N139 N 0.70804 0.92561 0.3297 0.0
N140 N 0.69963 0.95445 0.30095 0.0
C141 C 0.68887 0.93258 0.32122 0.0
C142 C 0.72657 0.96155 0.29649 0.0
C143 C 0.73177 0.94378 0.31448 0.0
O144 O 0.68127 0.89733 0.39693 0.0
C145 C 0.69558 0.86791 0.29145 0.0
O146 O 0.7193 0.89021 0.28726 0.0
H147 H 0.66726 0.92131 0.32884 0.0
H148 H 0.75124 0.94366 0.31557 0.0
N149 N 0.73462 0.89801 0.36887 0.0
N150 N 0.76286 0.88463 0.39155 0.0
C151 C 0.73838 0.87705 0.37515 0.0
C152 C 0.75771 0.91973 0.38129 0.0
C153 C 0.77519 0.91148 0.3955 0.0
C154 C 0.69035 0.89922 0.42832 0.0
O155 O 0.71018 0.89351 0.43443 0.0
H156 H 0.72243 0.85638 0.37055 0.0
H157 H 0.76069 0.9398 0.38221 0.0
O158 O 0.68294 0.86465 0.32047 0.0
H159 H 0.74135 0.97831 0.28119 0.0
H160 H 0.79463 0.92395 0.4093 0.0
Cu161 Cu 0.19709 0.89073 0.37315 0.0
N162 N 0.19343 0.85723 0.36085 0.0
N163 N 0.17087 0.8151 0.33954 0.0
C164 C 0.16889 0.83403 0.35804 0.0
C165 C 0.19793 0.82665 0.33064 0.0
C166 C 0.21185 0.8525 0.34414 0.0
O167 O 0.16851 0.88313 0.4086 0.0
C168 C 0.20058 0.90165 0.29993 0.0
O169 O 0.18714 0.8755 0.29588 0.0
H170 H 0.14931 0.83174 0.3662 0.0
H171 H 0.23319 0.86759 0.33909 0.0
N172 N 0.23015 0.91338 0.39763 0.0
N173 N 0.26239 0.95236 0.42233 0.0
C174 C 0.24429 0.94044 0.39536 0.0
C175 C 0.23967 0.90779 0.4268 0.0
C176 C 0.25955 0.9316 0.44189 0.0
C177 C 0.14215 0.86746 0.40792 0.0
O178 O 0.12905 0.85952 0.37783 0.0
H179 H 0.24031 0.95095 0.3749 0.0
H180 H 0.23125 0.88796 0.43772 0.0
O181 O 0.20148 0.91137 0.3302 0.0
H182 H 0.20657 0.81774 0.31356 0.0
H183 H 0.26974 0.93337 0.46668 0.0
Cu184 Cu 0.20473 0.41789 0.37284 0.0
N185 N 0.20516 0.44426 0.34461 0.0
N186 N 0.18581 0.46193 0.31047 0.0
C187 C 0.18175 0.44448 0.33603 0.0
C188 C 0.21309 0.47347 0.30284 0.0
C189 C 0.22505 0.46257 0.32404 0.0
O190 O 0.16541 0.39009 0.3746 0.0
C191 C 0.25632 0.42418 0.3546 0.0
O192 O 0.26442 0.44828 0.36705 0.0
H193 H 0.16153 0.43007 0.34585 0.0
H194 H 0.24613 0.46632 0.3223 0.0
N195 N 0.21617 0.43181 0.41721 0.0
N196 N 0.23599 0.43765 0.46933 0.0
C197 C 0.23298 0.42698 0.43739 0.0
C198 C 0.2079 0.44581 0.43713 0.0
C199 C 0.22007 0.44932 0.46971 0.0
C200 C 0.15223 0.38032 0.40271 0.0
O201 O 0.16648 0.38332 0.4315 0.0
H202 H 0.242 0.41495 0.42922 0.0
H203 H 0.19341 0.45222 0.42886 0.0
O204 O 0.23042 0.40666 0.35484 0.0
H205 H 0.22314 0.48719 0.28165 0.0
H206 H 0.21733 0.45936 0.49188 0.0
Cu207 Cu 0.18606 0.38553 0.89811 0.0
N208 N 0.21455 0.41267 0.87286 0.0
N209 N 0.24561 0.43064 0.83064 0.0
C210 C 0.22508 0.40789 0.84426 0.0
C211 C 0.24791 0.4507 0.85121 0.0
C212 C 0.22879 0.43948 0.8776 0.0
O213 O 0.19815 0.35839 0.90222 0.0
C214 C 0.14681 0.39494 0.86345 0.0
O215 O 0.16681 0.41966 0.86939 0.0
H216 H 0.21741 0.38803 0.83332 0.0
H217 H 0.22536 0.45008 0.89851 0.0
N218 N 0.18419 0.39836 0.94186 0.0
N219 N 0.16617 0.4036 0.99091 0.0
C220 C 0.16071 0.392 0.9591 0.0
C221 C 0.2053 0.41455 0.96334 0.0
C222 C 0.19426 0.41769 0.99375 0.0
C223 C 0.2064 0.35277 0.93061 0.0
O224 O 0.20101 0.36056 0.96017 0.0
H225 H 0.14002 0.37906 0.94847 0.0
H226 H 0.22715 0.42282 0.95762 0.0
O227 O 0.15059 0.37568 0.87338 0.0
H228 H 0.26246 0.47182 0.84756 0.0
H229 H 0.20606 0.42874 0.01653 0.0
Cu230 Cu 0.69709 0.88583 0.85401 0.0
N231 N 0.70632 0.8646 0.82727 0.0
N232 N 0.69994 0.82891 0.79701 0.0
C233 C 0.68879 0.8386 0.81975 0.0
C234 C 0.72532 0.84967 0.78951 0.0
C235 C 0.72925 0.87178 0.80838 0.0
O236 O 0.67906 0.86425 0.89717 0.0
C237 C 0.67193 0.91551 0.81707 0.0
O238 O 0.6712 0.92662 0.84663 0.0
H239 H 0.6679 0.82732 0.82986 0.0
H240 H 0.74712 0.89179 0.80764 0.0
N241 N 0.72952 0.91621 0.87028 0.0
N242 N 0.7532 0.95774 0.89326 0.0
C243 C 0.73469 0.94165 0.86859 0.0
C244 C 0.74642 0.91637 0.89571 0.0
C245 C 0.76079 0.94168 0.91002 0.0
C246 C 0.68999 0.85087 0.91023 0.0
O247 O 0.71056 0.85097 0.89345 0.0
H248 H 0.72329 0.94762 0.85146 0.0
H249 H 0.74612 0.89879 0.90599 0.0
O250 O 0.67886 0.8973 0.81754 0.0
H251 H 0.73979 0.84894 0.77144 0.0
H252 H 0.77311 0.94656 0.93366 0.0
Cu253 Cu 0.17821 0.8921 0.85572 0.0
N254 N 0.17925 0.87124 0.81863 0.0
N255 N 0.16862 0.85005 0.7671 0.0
C256 C 0.16411 0.86579 0.78905 0.0
C257 C 0.18787 0.84584 0.78321 0.0
C258 C 0.19458 0.85915 0.81494 0.0
O259 O 0.14457 0.89547 0.85582 0.0
C260 C 0.21835 0.93647 0.81769 0.0
O261 O 0.20271 0.92423 0.79035 0.0
H262 H 0.14913 0.87238 0.7844 0.0
H263 H 0.2089 0.85929 0.83439 0.0
N264 N 0.18522 0.88354 0.90028 0.0
N265 N 0.20244 0.89314 0.95477 0.0
C266 C 0.2014 0.9029 0.92328 0.0
C267 C 0.17557 0.86039 0.91773 0.0
C268 C 0.18614 0.86625 0.9514 0.0
C269 C 0.11969 0.88282 0.86759 0.0
O270 O 0.10437 0.89428 0.86401 0.0
H271 H 0.21225 0.92398 0.91685 0.0
H272 H 0.16154 0.84069 0.90718 0.0
O273 O 0.20994 0.92703 0.84778 0.0
H274 H 0.19532 0.83282 0.77375 0.0
H275 H 0.18145 0.85182 0.97187 0.0
Cu276 Cu 0.33372 0.21908 0.69474 0.0
N277 N 0.30216 0.22222 0.68873 0.0
N278 N 0.28051 0.24533 0.67763 0.0
C279 C 0.30349 0.24612 0.69085 0.0
C280 C 0.26375 0.21972 0.66709 0.0
C281 C 0.27718 0.20541 0.67408 0.0
O282 O 0.35471 0.24428 0.73333 0.0
C283 C 0.36798 0.21604 0.64116 0.0
O284 O 0.38236 0.2137 0.6669 0.0
H285 H 0.32229 0.26443 0.69827 0.0
H286 H 0.27022 0.18498 0.66617 0.0
N287 N 0.32525 0.18493 0.70756 0.0
N288 N 0.33793 0.15477 0.72004 0.0
C289 C 0.34354 0.18017 0.72473 0.0
C290 C 0.30714 0.1616 0.69185 0.0
C291 C 0.31476 0.14278 0.69987 0.0
C292 C 0.34319 0.23795 0.76323 0.0
O293 O 0.32023 0.21469 0.76612 0.0
H294 H 0.36229 0.19576 0.73721 0.0
H295 H 0.29129 0.15906 0.67319 0.0
O296 O 0.34957 0.22254 0.64808 0.0
H297 H 0.24432 0.21247 0.65281 0.0
H298 H 0.30489 0.12233 0.69022 0.0
Cu299 Cu 0.8535 0.19801 0.68226 0.0
N300 N 0.88083 0.2063 0.64838 0.0
N301 N 0.90726 0.2335 0.6058 0.0
C302 C 0.88219 0.22175 0.62135 0.0
C303 C 0.92201 0.2241 0.623 0.0
C304 C 0.90574 0.20747 0.64944 0.0
O305 O 0.85923 0.2338 0.69399 0.0
C306 C 0.81617 0.14635 0.66103 0.0
O307 O 0.83802 0.1445 0.67039 0.0
H308 H 0.86556 0.22579 0.61501 0.0
H309 H 0.91262 0.1992 0.66992 0.0
N310 N 0.85667 0.18437 0.72528 0.0
N311 N 0.84052 0.16667 0.77748 0.0
C312 C 0.83974 0.18202 0.75163 0.0
C313 C 0.86908 0.17033 0.7351 0.0
C314 C 0.85901 0.15926 0.76735 0.0
C315 C 0.88446 0.24938 0.70409 0.0
O316 O 0.90116 0.23943 0.70737 0.0
H317 H 0.82555 0.18985 0.75069 0.0
H318 H 0.88294 0.16687 0.71907 0.0
O319 O 0.81788 0.16942 0.66265 0.0
H320 H 0.94376 0.2306 0.61877 0.0
H321 H 0.86415 0.14609 0.78167 0.0
Cu322 Cu 0.85297 0.68931 0.68036 0.0
N323 N 0.828 0.66855 0.64564 0.0
N324 N 0.80064 0.66593 0.60096 0.0
C325 C 0.80942 0.67516 0.6335 0.0
C326 C 0.81412 0.65263 0.59231 0.0
C327 C 0.83108 0.6543 0.62002 0.0
O328 O 0.83315 0.70225 0.70858 0.0
C329 C 0.90273 0.73977 0.66697 0.0
O330 O 0.89878 0.74823 0.69699 0.0
H331 H 0.80569 0.68986 0.6463 0.0
H332 H 0.84687 0.64845 0.61982 0.0
N333 N 0.86521 0.67121 0.70907 0.0
N334 N 0.88854 0.66745 0.75408 0.0
C335 C 0.88659 0.68424 0.73154 0.0
C336 C 0.8534 0.64505 0.7173 0.0
C337 C 0.86779 0.64269 0.74544 0.0
C338 C 0.81433 0.68516 0.72832 0.0
O339 O 0.81187 0.66134 0.73111 0.0
H340 H 0.89956 0.70586 0.7326 0.0
H341 H 0.8348 0.62911 0.70503 0.0
O342 O 0.88505 0.71646 0.6561 0.0
H343 H 0.81377 0.64451 0.56677 0.0
H344 H 0.86312 0.62442 0.75887 0.0
Cu345 Cu 0.86603 0.73896 0.18094 0.0
N346 N 0.89448 0.76018 0.15016 0.0
N347 N 0.92576 0.76923 0.10841 0.0
C348 C 0.90301 0.75005 0.12448 0.0
C349 C 0.93161 0.79244 0.12441 0.0
C350 C 0.91233 0.78678 0.15027 0.0
O351 O 0.87567 0.71118 0.19414 0.0
C352 C 0.82721 0.7486 0.14662 0.0
O353 O 0.84959 0.77244 0.14588 0.0
H354 H 0.89339 0.72883 0.11871 0.0
H355 H 0.91175 0.80094 0.16834 0.0
N356 N 0.8658 0.75725 0.22087 0.0
N357 N 0.84678 0.76379 0.26807 0.0
C358 C 0.84207 0.75046 0.23773 0.0
C359 C 0.88647 0.77572 0.24116 0.0
C360 C 0.87471 0.77963 0.27063 0.0
C361 C 0.88438 0.70934 0.22447 0.0
O362 O 0.87947 0.72074 0.25097 0.0
H363 H 0.82179 0.73478 0.22883 0.0
H364 H 0.90845 0.78461 0.23581 0.0
O365 O 0.82958 0.72907 0.15891 0.0
H366 H 0.94869 0.8121 0.11809 0.0
H367 H 0.88581 0.79251 0.29258 0.0
Cu368 Cu 0.3677 0.21551 0.19629 0.0
N369 N 0.37962 0.19264 0.17796 0.0
N370 N 0.37773 0.15446 0.16104 0.0
C371 C 0.36317 0.16725 0.16626 0.0
C372 C 0.40442 0.17261 0.16893 0.0
C373 C 0.40548 0.19601 0.17971 0.0
O374 O 0.35294 0.20114 0.24337 0.0
C375 C 0.36195 0.23543 0.13208 0.0
O376 O 0.38553 0.23541 0.1289 0.0
H377 H 0.34084 0.15808 0.16264 0.0
H378 H 0.42362 0.21373 0.18983 0.0
N379 N 0.39752 0.24924 0.20802 0.0
N380 N 0.41642 0.29048 0.23091 0.0
C381 C 0.39452 0.26534 0.23082 0.0
C382 C 0.42245 0.26467 0.19322 0.0
C383 C 0.43421 0.29023 0.20739 0.0
C384 C 0.34066 0.17647 0.2524 0.0
O385 O 0.32946 0.15781 0.22824 0.0
H386 H 0.37564 0.2592 0.24527 0.0
H387 H 0.43081 0.25833 0.17229 0.0
O388 O 0.34767 0.22471 0.15958 0.0
H389 H 0.4217 0.16879 0.16847 0.0
H390 H 0.45383 0.30742 0.20013 0.0
Cu391 Cu 0.85426 0.24401 0.20356 0.0
N392 N 0.83978 0.2396 0.15863 0.0
N393 N 0.82367 0.21766 0.10821 0.0
C394 C 0.82881 0.21586 0.14209 0.0
C395 C 0.83091 0.24357 0.10337 0.0
C396 C 0.84112 0.2572 0.13463 0.0
O397 O 0.83058 0.21095 0.22794 0.0
C398 C 0.90847 0.26299 0.17613 0.0
O399 O 0.89641 0.25781 0.14533 0.0
H400 H 0.82531 0.19767 0.15474 0.0
H401 H 0.85015 0.27853 0.13901 0.0
N402 N 0.8549 0.27156 0.22921 0.0
N403 N 0.86906 0.29939 0.27484 0.0
C404 C 0.8656 0.27629 0.26152 0.0
C405 C 0.85113 0.29232 0.22138 0.0
C406 C 0.86007 0.30972 0.24963 0.0
C407 C 0.80841 0.2082 0.2416 0.0
O408 O 0.8036 0.22837 0.2405 0.0
H409 H 0.87335 0.26424 0.27356 0.0
H410 H 0.84427 0.29551 0.19635 0.0
O411 O 0.89337 0.25399 0.20295 0.0
H412 H 0.83004 0.25222 0.07876 0.0
H413 H 0.86161 0.32924 0.25065 0.0
Zn414 Zn 0.03262 0.69821 0.22393 0.0
Zn415 Zn 0.01525 0.67155 0.28279 0.0
O416 O 0.01234 0.6435 0.24582 0.0
O417 O 0.03181 0.66702 0.19902 0.0
O418 O 0.01317 0.65309 0.32981 0.0
O419 O 0.06884 0.7284 0.24336 0.0
O420 O 0.05401 0.70636 0.29208 0.0
C421 C 0.01998 0.64468 0.21438 0.0
C422 C 0.97788 0.68985 0.24694 0.0
O423 O 0.98166 0.67884 0.27392 0.0
O424 O 0.99652 0.69954 0.22388 0.0
C425 C 0.00914 0.6293 0.33312 0.0
O426 O 1.00075 0.61317 0.30595 0.0
C427 C 0.07258 0.72642 0.27544 0.0
Zn428 Zn 0.39275 0.39862 0.35616 0.0
Zn429 Zn 0.40948 0.42961 0.29844 0.0
O430 O 0.43623 0.45402 0.33699 0.0
O431 O 0.42346 0.42952 0.3842 0.0
O432 O 0.42641 0.45101 0.25443 0.0
O433 O 0.39993 0.37079 0.33367 0.0
O434 O 0.4119 0.39575 0.287 0.0
C435 C 0.43936 0.45155 0.3694 0.0
C436 C 0.35067 0.40979 0.32631 0.0
O437 O 0.36963 0.4239 0.30452 0.0
O438 O 0.35525 0.39682 0.34958 0.0
C439 C 0.41879 0.46346 0.23375 0.0
O440 O 0.39586 0.46411 0.24007 0.0
C441 C 0.40817 0.37471 0.30256 0.0
Zn442 Zn 0.66976 0.0637 0.20692 0.0
Zn443 Zn 0.64841 0.06733 0.26485 0.0
O444 O 0.62462 0.07273 0.22676 0.0
O445 O 0.64586 0.07347 0.17845 0.0
O446 O 0.62657 0.06192 0.30932 0.0
O447 O 0.66219 0.02617 0.21251 0.0
O448 O 0.65219 0.03324 0.26509 0.0
C449 C 0.62739 0.07618 0.194 0.0
C450 C 0.70879 0.10674 0.2521 0.0
O451 O 0.6875 0.10093 0.27061 0.0
O452 O 0.70637 0.09312 0.22507 0.0
C453 C 0.61017 0.07106 0.3147 0.0
O454 O 0.60844 0.0869 0.2915 0.0
C455 C 0.657 0.019 0.24384 0.0
Zn456 Zn 0.98445 0.37242 0.83142 0.0
Zn457 Zn 0.00547 0.40772 0.78087 0.0
O458 O 0.97221 0.3727 0.7574 0.0
O459 O 0.95285 0.34569 0.80161 0.0
O460 O 0.01779 0.43669 0.74232 0.0
O461 O 0.97754 0.39665 0.86211 0.0
O462 O 0.99343 0.42574 0.81959 0.0
C463 C 0.95295 0.35047 0.76955 0.0
C464 C 0.04159 0.38698 0.81777 0.0
O465 O 0.03994 0.4031 0.79607 0.0
O466 O 0.02043 0.37141 0.83532 0.0
C467 C 0.04025 0.44881 0.72502 0.0
O468 O 0.05976 0.44249 0.73028 0.0
C469 C 0.983 0.41912 0.8499 0.0
Zn470 Zn 0.67384 0.69456 0.69906 0.0
Zn471 Zn 0.65147 0.66682 0.75155 0.0
O472 O 0.65496 0.7046 0.75663 0.0
O473 O 0.66449 0.72333 0.70536 0.0
O474 O 0.62874 0.64848 0.7952 0.0
O475 O 0.65428 0.66528 0.6649 0.0
O476 O 0.62932 0.64141 0.709 0.0
C477 C 0.65937 0.72421 0.73708 0.0
C478 C 0.71288 0.68804 0.74073 0.0
O479 O 0.69104 0.67126 0.75694 0.0
O480 O 0.71085 0.70172 0.7164 0.0
C481 C 0.61741 0.62419 0.80518 0.0
O482 O 0.62058 0.60679 0.7864 0.0
C483 C 0.63475 0.64361 0.67651 0.0
Zn484 Zn 0.38387 0.06714 0.8333 0.0
Zn485 Zn 0.39101 0.04659 0.77536 0.0
O486 O 0.39225 0.08176 0.76097 0.0
O487 O 0.38996 0.1002 0.81002 0.0
O488 O 0.40148 0.0335 0.73181 0.0
O489 O 0.41427 0.06645 0.85977 0.0
O490 O 0.41835 0.04675 0.81282 0.0
C491 C 0.39133 0.10066 0.77725 0.0
C492 C 0.33505 0.01795 0.8098 0.0
O493 O 0.35058 0.0189 0.78499 0.0
O494 O 0.34469 0.03562 0.8337 0.0
C495 C 0.39351 0.03557 0.70141 0.0
O496 O 0.3769 0.0456 0.69774 0.0
C497 C 0.42553 0.05506 0.84407 0.0
Zn498 Zn 0.68415 0.01461 0.55634 0.0
Zn499 Zn 0.67371 0.9867 0.6114 0.0
O500 O 0.67576 0.9627 0.56834 0.0
O501 O 0.68272 0.98778 0.52229 0.0
O502 O 0.66979 0.96377 0.65699 0.0
O503 O 0.71931 0.04631 0.57253 0.0
O504 O 0.70966 0.02508 0.62244 0.0
C505 C 0.67853 0.96591 0.53517 0.0
C506 C 0.63409 0.00741 0.58583 0.0
O507 O 0.63834 0.99272 0.60745 0.0
O508 O 0.651 0.01876 0.56147 0.0
C509 C 0.6669 0.96996 0.68816 0.0
O510 O 0.66511 0.99171 0.69276 0.0
C511 C 0.7245 0.04627 0.60456 0.0
Zn512 Zn 0.04317 0.74187 0.64339 0.0
Zn513 Zn 0.06053 0.76751 0.58807 0.0
O514 O 0.09134 0.78981 0.62651 0.0
O515 O 0.07809 0.76177 0.67037 0.0
O516 O 0.07579 0.78828 0.54165 0.0
O517 O 0.03147 0.7057 0.62465 0.0
O518 O 0.0532 0.72796 0.57798 0.0
C519 C 0.09539 0.78393 0.65729 0.0
C520 C 0.00956 0.7635 0.62501 0.0
O521 O 0.02364 0.76876 0.59709 0.0
O522 O 0.01515 0.75303 0.65036 0.0
C523 C 0.09435 0.81308 0.53987 0.0
O524 O 0.10487 0.82658 0.56895 0.0
C525 C 0.04038 0.70578 0.59457 0.0
Zn526 Zn 0.33277 0.39468 0.59395 0.0
Zn527 Zn 0.30917 0.40463 0.64469 0.0
O528 O 0.28726 0.40997 0.60564 0.0
O529 O 0.31186 0.40693 0.56308 0.0
O530 O 0.2946 0.41026 0.68938 0.0
O531 O 0.31667 0.35583 0.60402 0.0
O532 O 0.3008 0.36547 0.65077 0.0
C533 C 0.29335 0.41202 0.57355 0.0
C534 C 0.37159 0.44034 0.62914 0.0
O535 O 0.34918 0.4363 0.64338 0.0
O536 O 0.37129 0.42259 0.60934 0.0
C537 C 0.29581 0.43178 0.69988 0.0
O538 O 0.30621 0.45281 0.67957 0.0
C539 C 0.30364 0.34858 0.63227 0.0
Zn540 Zn 0.66795 0.73743 0.16169 0.0
Zn541 Zn 0.68151 0.76906 0.10711 0.0
O542 O 0.64749 0.73088 0.09276 0.0
O543 O 0.63363 0.70663 0.14009 0.0
O544 O 0.68622 0.79081 0.06049 0.0
O545 O 0.66584 0.7637 0.19448 0.0
O546 O 0.6781 0.79154 0.15049 0.0
C547 C 0.63089 0.70881 0.1078 0.0
C548 C 0.72224 0.75037 0.13472 0.0
O549 O 0.71741 0.76474 0.11326 0.0
O550 O 0.70427 0.73699 0.15748 0.0
C551 C 0.67439 0.80419 0.05094 0.0
O552 O 0.65834 0.80736 0.0731 0.0
C553 C 0.67208 0.78658 0.18292 0.0
Zn554 Zn 0.33328 0.00542 0.06962 0.0
Zn555 Zn 0.3134 0.98265 0.12852 0.0
O556 O 0.32579 0.02385 0.13647 0.0
O557 O 0.34551 0.04218 0.08694 0.0
O558 O 0.29091 0.96258 0.17237 0.0
O559 O 0.2979 0.98514 0.0424 0.0
O560 O 0.2832 0.96091 0.08974 0.0
C561 C 0.33904 0.0447 0.11754 0.0
C562 C 0.36376 0.98109 0.09724 0.0
O563 O 0.34814 0.97655 0.12371 0.0
O564 O 0.36049 0.99205 0.07054 0.0
C565 C 0.27912 0.97097 0.19347 0.0
O566 O 0.28329 0.99541 0.18997 0.0
C567 C 0.27952 0.96473 0.05789 0.0
Zn568 Zn 0.03707 0.42205 0.20038 0.0
Zn569 Zn 0.06501 0.40928 0.15231 0.0
O570 O 0.05664 0.43528 0.12679 0.0
O571 O 0.03586 0.44771 0.16504 0.0
O572 O 0.09028 0.4056 0.11839 0.0
O573 O 0.06977 0.43645 0.23359 0.0
O574 O 0.09116 0.42588 0.19399 0.0
C575 C 0.04591 0.44955 0.13508 0.0
C576 C 0.01066 0.36473 0.18074 0.0
O577 O 0.03098 0.37193 0.16004 0.0
O578 O 0.00894 0.38197 0.19962 0.0
C579 C 0.08353 0.39042 0.09179 0.0
O580 O 0.05717 0.37291 0.08569 0.0
C581 C 0.09113 0.43581 0.22359 0.0
Zn582 Zn 0.35662 0.35521 0.90053 0.0
Zn583 Zn 0.35065 0.32708 0.95401 0.0
O584 O 0.35519 0.30636 0.90927 0.0
O585 O 0.36578 0.33496 0.86649 0.0
O586 O 0.35163 0.30483 0.99798 0.0
O587 O 0.38672 0.38992 0.91914 0.0
O588 O 0.38487 0.36703 0.96554 0.0
C589 C 0.36187 0.31265 0.87727 0.0
C590 C 0.30219 0.33596 0.92783 0.0
O591 O 0.31162 0.32689 0.95179 0.0
O592 O 0.31743 0.34795 0.90221 0.0
C593 C 0.33317 0.28786 0.01861 0.0
O594 O 0.307 0.28122 1.01352 0.0
C595 C 0.39568 0.38945 0.94927 0.0
Zn596 Zn 0.73543 0.06759 1.01386 0.0
Zn597 Zn 0.73914 0.0937 0.953 0.0
O598 O 0.76289 0.12378 0.98864 0.0
O599 O 0.7626 0.10275 0.03656 0.0
O600 O 0.75126 0.11124 0.90505 0.0
O601 O 0.74938 0.0443 0.99273 0.0
O602 O 0.74793 0.06359 0.94414 0.0
C603 C 0.77065 0.12434 0.02006 0.0
C604 C 0.68246 0.06309 0.98722 0.0
O605 O 0.69695 0.07789 0.96209 0.0
O606 O 0.69404 0.05644 1.01082 0.0
C607 C 0.77258 0.13438 0.90077 0.0
O608 O 0.78416 0.15013 0.92789 0.0
C609 C 0.75209 0.04658 0.96015 0.0
Zn610 Zn 0.0234 0.7178 0.89281 0.0
Zn611 Zn 0.99452 0.72678 0.93719 0.0
O612 O 0.96723 0.71174 0.89461 0.0
O613 O 0.99334 0.70573 0.85683 0.0
O614 O 0.9731 0.73413 0.97467 0.0
O615 O 0.02726 0.69125 0.92088 0.0
O616 O 1.00144 0.69724 0.95901 0.0
C617 C 0.97058 0.70455 0.86441 0.0
C618 C 0.05112 0.77236 0.91027 0.0
O619 O 0.02932 0.7649 0.92846 0.0
O620 O 0.05374 0.75509 0.89299 0.0
C621 C 0.98615 0.74915 1.00063 0.0
O622 O 0.01328 0.75933 1.00272 0.0
C623 C 0.01479 0.68549 0.94953 0.0
Zn624 Zn 0.36612 0.10357 0.51485 0.0
Zn625 Zn 0.37136 0.12506 0.45544 0.0
O626 O 0.33906 0.08444 0.44832 0.0
O627 O 0.33814 0.06652 0.49904 0.0
O628 O 0.37108 0.14338 0.40776 0.0
O629 O 0.35606 0.12679 0.54253 0.0
O630 O 0.36872 0.15067 0.49469 0.0
C631 C 0.32982 0.06378 0.4678 0.0
C632 C 0.41957 0.11881 0.48737 0.0
O633 O 0.40917 0.12392 0.4604 0.0
O634 O 0.40591 0.11198 0.51526 0.0
C635 C 0.34839 0.13565 0.3904 0.0
O636 O 0.32527 0.11588 0.40283 0.0
C637 C 0.36169 0.1481 0.52679 0.0
Zn638 Zn 0.00725 0.39186 0.40158 0.0
Zn639 Zn 0.9856 0.35421 0.44856 0.0
O640 O 0.98716 0.38729 0.474 0.0
O641 O 0.00421 0.41785 0.43294 0.0
O642 O 0.96978 0.32376 0.48448 0.0
O643 O 0.97575 0.37223 0.369 0.0
O644 O 0.95582 0.34063 0.4082 0.0
C645 C 0.99413 0.41073 0.46292 0.0
C646 C 0.04376 0.37213 0.41501 0.0
O647 O 0.02431 0.35766 0.43609 0.0
O648 O 0.04175 0.38932 0.39669 0.0
C649 C 0.94983 0.31978 0.50436 0.0
O650 O 0.93893 0.33541 0.50118 0.0
C651 C 0.95514 0.35045 0.37864 0.0
Zn652 Zn 0.73564 0.75452 0.50217 0.0
Zn653 Zn 0.74733 0.73728 0.44441 0.0
O654 O 0.76084 0.77758 0.44059 0.0
O655 O 0.75757 0.7939 0.49069 0.0
O656 O 0.76557 0.73261 0.40168 0.0
O657 O 0.75049 0.73544 0.53181 0.0
O658 O 0.76141 0.72236 0.48362 0.0
C659 C 0.76452 0.7975 0.45912 0.0
C660 C 0.68722 0.71733 0.45896 0.0
O661 O 0.70462 0.71498 0.43982 0.0
O662 O 0.69566 0.73315 0.48497 0.0
C663 C 0.76413 0.7424 0.37263 0.0
O664 O 0.74737 0.75231 0.36933 0.0
C665 C 0.76023 0.72236 0.51669 0.0
C666 C 0.03723 0.47549 0.04847 0.0
C667 C 0.03429 0.49753 0.05804 0.0
C668 C 0.04254 0.46094 0.0735 0.0
C669 C 0.04423 0.46749 0.10903 0.0
H670 H 0.03392 0.4686 0.02169 0.0
H671 H 0.04363 0.44349 0.0651 0.0
S672 S 0.04042 0.52498 0.14701 0.0
N673 N 0.0357 0.52666 0.10486 0.0
N674 N 0.04502 0.49892 0.15218 0.0
C675 C 0.04286 0.49042 0.1187 0.0
C676 C 0.0381 0.50559 0.09308 0.0
C677 C 0.60244 0.65539 0.03621 0.0
C678 C 0.57929 0.63355 0.05172 0.0
C679 C 0.61788 0.68029 0.05351 0.0
C680 C 0.61116 0.68431 0.08737 0.0
H681 H 0.60902 0.65314 1.01061 0.0
H682 H 0.63604 0.69606 0.04087 0.0
S683 S 0.55148 0.63434 0.13886 0.0
N684 N 0.5495 0.61834 0.1023 0.0
N685 N 0.57872 0.66471 0.13496 0.0
C686 C 0.58749 0.66296 0.1027 0.0
C687 C 0.57153 0.63775 0.08488 0.0
C688 C 0.43678 0.99208 0.09784 0.0
C689 C 0.43518 0.97457 0.07093 0.0
C690 C 0.41272 0.99199 0.10988 0.0
C691 C 0.38619 0.97414 0.09587 0.0
H692 H 0.45688 0.00752 0.10761 0.0
H693 H 0.41522 0.00753 0.12798 0.0
S694 S 0.36989 0.9212 0.02976 0.0
N695 N 0.40412 0.9364 0.03442 0.0
N696 N 0.35935 0.93653 0.05691 0.0
C697 C 0.38406 0.95494 0.07155 0.0
C698 C 0.40841 0.95502 0.05921 0.0
C699 C 0.46692 0.09307 0.45705 0.0
C700 C 0.4803 0.09236 0.48819 0.0
C701 C 0.44958 0.10451 0.45578 0.0
C702 C 0.44466 0.1155 0.48573 0.0
H703 H 0.4684 0.08314 0.43386 0.0
H704 H 0.43812 0.10259 0.43194 0.0
S705 S 0.47852 0.12318 0.57221 0.0
N706 N 0.49039 0.10716 0.54843 0.0
N707 N 0.45784 0.12848 0.54623 0.0
C708 C 0.46003 0.11725 0.51615 0.0
C709 C 0.47785 0.10578 0.51735 0.0
C710 C 0.00826 0.46181 0.53314 0.0
C711 C 1.00002 0.4787 0.51673 0.0
C712 C 0.00355 0.43783 0.51732 0.0
C713 C 0.99102 0.43044 0.48424 0.0
H714 H 0.02052 0.46832 0.55699 0.0
H715 H 0.01211 0.42648 0.52946 0.0
S716 S 0.9621 0.46569 0.43285 0.0
N717 N 0.97572 0.48468 0.4679 0.0
N718 N 0.96724 0.43992 0.43766 0.0
C719 C 0.98042 0.44589 0.46913 0.0
C720 C 0.9848 0.46999 0.48555 0.0
C721 C 0.61763 0.65403 0.448 0.0
C722 C 0.59905 0.66172 0.46152 0.0
C723 C 0.64602 0.67271 0.44414 0.0
C724 C 0.65683 0.69965 0.45417 0.0
H725 H 0.61032 0.63316 0.44181 0.0
H726 H 0.65984 0.66561 0.43563 0.0
S727 S 0.61647 0.73066 0.48695 0.0
N728 N 0.59313 0.69861 0.48183 0.0
N729 N 0.64636 0.73371 0.47452 0.0
C730 C 0.63813 0.70795 0.46529 0.0
C731 C 0.60925 0.68899 0.46898 0.0
C732 C 0.9825 0.62 0.99755 0.0
C733 C 1.00166 0.611 0.99204 0.0
C734 C 0.98791 0.64526 0.98627 0.0
C735 C 0.01255 0.66232 0.96871 0.0
H736 H 0.96274 0.60716 1.00985 0.0
H737 H 0.97193 0.65071 0.98948 0.0
S738 S 0.07115 0.64993 0.95185 0.0
N739 N 0.04756 0.6224 0.97109 0.0
N740 N 0.05763 0.66981 0.94956 0.0
C741 C 0.03267 0.65432 0.96498 0.0
C742 C 0.02725 0.62867 0.97672 0.0
C743 C 0.45692 0.4404 1.00639 0.0
C744 C 0.46302 0.46547 0.99244 0.0
C745 C 0.43497 0.41593 0.99297 0.0
C746 C 0.4183 0.41539 0.96474 0.0
H747 H 0.46911 0.43958 0.02805 0.0
H748 H 0.43132 0.39732 1.00454 0.0
S749 S 0.42494 0.4754 0.91921 0.0
N750 N 0.44993 0.48792 0.94903 0.0
N751 N 0.40917 0.44258 0.92396 0.0
C752 C 0.4241 0.44039 0.95077 0.0
C753 C 0.44625 0.46517 0.96452 0.0
C754 C 0.60964 0.03413 0.02563 0.0
C755 C 0.59494 0.03968 1.00014 0.0
C756 C 0.63767 0.04123 0.02082 0.0
C757 C 0.65215 0.05414 0.9903 0.0
H758 H 0.59984 0.02527 0.05003 0.0
H759 H 0.64825 0.03718 0.04175 0.0
S760 S 0.62174 0.07012 0.91389 0.0
N761 N 0.59609 0.05667 0.94196 0.0
N762 N 0.64849 0.07002 0.93309 0.0
C763 C 0.63717 0.05864 0.96401 0.0
C764 C 0.60869 0.05141 0.96889 0.0
C765 C 0.59001 0.04004 0.56814 0.0
C766 C 0.5629 0.01993 0.57627 0.0
C767 C 0.61294 0.03621 0.5735 0.0
C768 C 0.60995 0.01221 0.58755 0.0
H769 H 0.59345 0.05828 0.55562 0.0
H770 H 0.63318 0.05192 0.56518 0.0
S771 S 0.544 0.95487 0.61823 0.0
N772 N 0.53478 0.97619 0.60292 0.0
N773 N 0.57803 0.96927 0.61293 0.0
C774 C 0.58333 0.99281 0.59836 0.0
C775 C 0.55982 0.99658 0.59267 0.0
C776 C 0.01761 0.63149 0.58852 0.0
C777 C 0.0369 0.63113 0.56555 0.0
C778 C 0.018 0.6556 0.59627 0.0
C779 C 0.03742 0.68017 0.58097 0.0
H780 H 0.00317 0.61341 0.60203 0.0
H781 H 0.00354 0.6551 0.61543 0.0
S782 S 0.08947 0.68884 0.51487 0.0
N783 N 0.0739 0.65665 0.52454 0.0
N784 N 0.07439 0.70173 0.53888 0.0
C785 C 0.05539 0.67957 0.55597 0.0
C786 C 0.05522 0.65512 0.54839 0.0
C787 C 0.41048 0.51374 0.60872 0.0
C788 C 0.43661 0.51752 0.59926 0.0
C789 C 0.39016 0.48928 0.62254 0.0
C790 C 0.39538 0.46784 0.62702 0.0
H791 H 0.40504 0.52902 0.60305 0.0
H792 H 0.36951 0.48639 0.6267 0.0
S793 S 0.46283 0.47022 0.61478 0.0
N794 N 0.46855 0.49998 0.60227 0.0
N795 N 0.42993 0.4536 0.62675 0.0
C796 C 0.42234 0.47242 0.62109 0.0
C797 C 0.44309 0.49738 0.60753 0.0
C798 C 0.76801 0.84473 0.38885 0.0
C799 C 0.77027 0.86658 0.40787 0.0
C800 C 0.76892 0.82356 0.40547 0.0
C801 C 0.77143 0.82315 0.44195 0.0
H802 H 0.76408 0.84342 0.36108 0.0
H803 H 0.7656 0.80654 0.38973 0.0
S804 S 0.78145 0.87748 0.50298 0.0
N805 N 0.77796 0.8881 0.46443 0.0
N806 N 0.77938 0.84817 0.49605 0.0
C807 C 0.77583 0.84595 0.46096 0.0
C808 C 0.77527 0.86769 0.44384 0.0
C809 C 0.30237 0.98926 0.45416 0.0
C810 C 0.27953 0.98082 0.43106 0.0
C811 C 0.31821 0.01598 0.46546 0.0
C812 C 0.31259 0.03598 0.45369 0.0
H813 H 0.30819 0.97508 0.46391 0.0
H814 H 0.3353 0.02106 0.48355 0.0
S815 S 0.25591 0.02573 0.39262 0.0
N816 N 0.25221 0.99554 0.39688 0.0
N817 N 0.28319 0.046 0.41697 0.0
C818 C 0.29056 0.02838 0.42974 0.0
C819 C 0.2738 1.00083 0.4187 0.0
C820 C 0.10969 0.37861 0.37658 0.0
C821 C 0.12222 0.37265 0.40459 0.0
C822 C 0.08389 0.37735 0.38001 0.0
C823 C 0.06906 0.36953 0.41133 0.0
H824 H 0.12047 0.38567 0.35222 0.0
H825 H 0.07585 0.38331 0.35806 0.0
S826 S 0.09041 0.34787 0.49095 0.0
N827 N 0.11624 0.35586 0.46375 0.0
N828 N 0.0674 0.353 0.46977 0.0
C829 C 0.08018 0.36147 0.43869 0.0
C830 C 0.10679 0.36312 0.43541 0.0
C831 C 0.11935 0.41218 0.83077 0.0
C832 C 0.11998 0.39069 0.84774 0.0
C833 C 0.0942 0.41041 0.8194 0.0
C834 C 0.0684 0.38717 0.82488 0.0
H835 H 0.13848 0.43094 0.82694 0.0
H836 H 0.09494 0.42785 0.80765 0.0
S837 S 0.05844 0.32415 0.86486 0.0
N838 N 0.09247 0.34464 0.86689 0.0
N839 N 0.0453 0.34123 0.84597 0.0
C840 C 0.06881 0.36505 0.84033 0.0
C841 C 0.09449 0.36679 0.85158 0.0
C842 C 0.68847 0.79897 0.7464 0.0
C843 C 0.68678 0.80239 0.78218 0.0
C844 C 0.6774 0.77335 0.73166 0.0
C845 C 0.66467 0.75012 0.7523 0.0
H846 H 0.69885 0.8163 0.72978 0.0
H847 H 0.68017 0.77195 0.70406 0.0
S848 S 0.65335 0.74859 0.84744 0.0
N849 N 0.66997 0.78081 0.83781 0.0
N850 N 0.64937 0.73243 0.81036 0.0
C851 C 0.66168 0.75331 0.78803 0.0
C852 C 0.67273 0.77951 0.80293 0.0
C853 C 0.26197 0.97402 0.84295 0.0
C854 C 0.24741 0.95833 0.81377 0.0
C855 C 0.29027 0.99305 0.84132 0.0
C856 C 0.30529 0.99705 0.81052 0.0
H857 H 0.25151 0.97142 0.86748 0.0
H858 H 0.30047 0.00453 0.86463 0.0
S859 S 0.27683 0.96137 0.72648 0.0
N860 N 0.25 0.94823 0.75288 0.0
N861 N 0.30336 0.98408 0.74984 0.0
C862 C 0.29098 0.98167 0.78097 0.0
C863 C 0.26199 0.96237 0.78256 0.0
C864 C 0.68981 0.97519 0.2511 0.0
C865 C 0.68535 0.96718 0.28594 0.0
C866 C 0.67843 0.99004 0.2368 0.0
C867 C 0.66259 0.9979 0.25707 0.0
H868 H 0.70278 0.97047 0.23505 0.0
H869 H 0.68353 0.99668 0.21022 0.0
S870 S 0.64302 0.97983 0.3491 0.0
N871 N 0.66244 0.9663 0.33977 0.0
N872 N 0.6412 0.99454 0.31317 0.0
C873 C 0.65673 0.9887 0.2915 0.0
C874 C 0.66809 0.97328 0.3059 0.0
C875 C 0.14587 0.78622 0.28879 0.0
C876 C 0.14757 0.79116 0.32478 0.0
C877 C 0.12175 0.76507 0.27331 0.0
C878 C 0.09843 0.74765 0.29321 0.0
H879 H 0.16288 0.7995 0.27227 0.0
H880 H 0.12132 0.76257 0.24536 0.0
S881 S 0.09333 0.75104 0.38908 0.0
N882 N 0.1245 0.77641 0.38018 0.0
N883 N 0.07943 0.73627 0.35144 0.0
C884 C 0.10034 0.75182 0.3295 0.0
C885 C 0.12478 0.77367 0.34514 0.0
C886 C 0.30203 0.43842 0.32665 0.0
C887 C 0.27782 0.41801 0.3422 0.0
C888 C 0.32476 0.43487 0.31914 0.0
C889 C 0.32446 0.41097 0.32771 0.0
H890 H 0.30377 0.45767 0.32114 0.0
H891 H 0.34331 0.45157 0.30847 0.0
S892 S 0.26521 0.35053 0.3662 0.0
N893 N 0.25408 0.37232 0.36346 0.0
N894 N 0.29703 0.36577 0.35032 0.0
C895 C 0.29986 0.38992 0.34181 0.0
C896 C 0.27647 0.39339 0.34878 0.0
C897 C 0.23999 0.34293 0.89889 0.0
C898 C 0.22704 0.34298 0.93014 0.0
C899 C 0.26309 0.33897 0.89852 0.0
C900 C 0.27446 0.33471 0.92932 0.0
H901 H 0.23321 0.34739 0.87455 0.0
H902 H 0.27281 0.34034 0.87374 0.0
S903 S 0.24618 0.3293 0.0177 0.0
N904 N 0.22572 0.33555 0.9926 0.0
N905 N 0.26912 0.3282 0.99163 0.0
C906 C 0.26058 0.33279 0.96048 0.0
C907 C 0.23698 0.33694 0.96095 0.0
C908 C 0.73671 0.99067 0.89708 0.0
C909 C 0.75662 0.98304 0.90593 0.0
C910 C 0.7365 0.01225 0.91356 0.0
C911 C 0.75576 0.0268 0.94007 0.0
H912 H 0.72009 0.97926 0.87859 0.0
H913 H 0.7201 0.01662 0.90683 0.0
S914 S 0.81569 0.01954 0.96844 0.0
N915 N 0.79941 0.99566 0.93888 0.0
N916 N 0.79738 0.03497 0.97164 0.0
C917 C 0.77681 0.02082 0.94788 0.0
C918 C 0.77768 0.99931 0.93031 0.0
C919 C 0.08469 0.8485 0.90771 0.0
C920 C 0.10657 0.85577 0.88394 0.0
C921 C 0.06773 0.82173 0.9182 0.0
C922 C 0.07209 0.80118 0.9054 0.0
H923 H 0.07976 0.86342 0.91708 0.0
H924 H 0.05032 0.81699 0.935 0.0
S925 S 0.12729 0.80959 0.84427 0.0
N926 N 0.13128 0.83981 0.84892 0.0
N927 N 0.10154 0.79044 0.87007 0.0
C928 C 0.09506 0.80852 0.88364 0.0
C929 C 0.1117 0.83554 0.8725 0.0
C930 C 0.36723 0.15063 0.76493 0.0
C931 C 0.35513 0.14408 0.73159 0.0
C932 C 0.38182 0.13856 0.77822 0.0
C933 C 0.38472 0.11935 0.75866 0.0
H934 H 0.36411 0.16413 0.78155 0.0
H935 H 0.38921 0.14303 0.80492 0.0
S936 S 0.36288 0.10068 0.66648 0.0
N937 N 0.35141 0.12135 0.67679 0.0
N938 N 0.37863 0.09821 0.7018 0.0
C939 C 0.37523 0.11482 0.72388 0.0
C940 C 0.36028 0.12715 0.71039 0.0
C941 C 0.88807 0.28528 0.74391 0.0
C942 C 0.89622 0.27807 0.71319 0.0
C943 C 0.90567 0.31003 0.76052 0.0
C944 C 0.93188 0.32858 0.74678 0.0
H945 H 0.86933 0.27077 0.75694 0.0
H946 H 0.89951 0.31391 0.78554 0.0
S947 S 0.96104 0.32028 0.66446 0.0
N948 N 0.93101 0.29214 0.66815 0.0
N949 N 0.96344 0.33894 0.69849 0.0
C950 C 0.93893 0.32259 0.71433 0.0
C951 C 0.92127 0.29721 0.69783 0.0
C952 C 0.78882 0.7107 0.72735 0.0
C953 C 0.79125 0.68915 0.74029 0.0
C954 C 0.76394 0.71119 0.73041 0.0
C955 C 0.74043 0.69013 0.74644 0.0
H956 H 0.80551 0.72642 0.71261 0.0
H957 H 0.76267 0.72749 0.71811 0.0
S958 S 0.73815 0.63225 0.79166 0.0
N959 N 0.76975 0.64865 0.77532 0.0
N960 N 0.72275 0.64947 0.78049 0.0
C961 C 0.74355 0.66999 0.76282 0.0
C962 C 0.76902 0.66952 0.75984 0.0
C963 C 0.77571 0.72854 0.15736 0.0
C964 C 0.79957 0.74653 0.13902 0.0
C965 C 0.75089 0.72972 0.15511 0.0
C966 C 0.74859 0.74879 0.13419 0.0
H967 H 0.77654 0.71423 0.17488 0.0
H968 H 0.73348 0.71577 0.17063 0.0
S969 S 0.80446 0.79897 0.07847 0.0
N970 N 0.81883 0.78301 0.09747 0.0
N971 N 0.7723 0.78497 0.09306 0.0
C972 C 0.77197 0.7661 0.11453 0.0
C973 C 0.79734 0.76504 0.11703 0.0
C974 C 0.38118 0.12066 0.12545 0.0
C975 C 0.36727 0.12686 0.15089 0.0
C976 C 0.37182 0.09407 0.11528 0.0
C977 C 0.3484 0.07237 0.13061 0.0
H978 H 0.3993 0.13661 0.11299 0.0
H979 H 0.38325 0.09053 0.09524 0.0
S980 S 0.30555 0.07788 0.20012 0.0
N981 N 0.32942 0.10927 0.1922 0.0
N982 N 0.31199 0.05907 0.17348 0.0
C983 C 0.3346 0.07825 0.15673 0.0
C984 C 0.34393 0.10552 0.16669 0.0
C985 C 0.95427 0.2959 0.15018 0.0
C986 C 0.93764 0.28554 0.1799 0.0
C987 C 0.97902 0.32081 0.15111 0.0
C988 C 0.98782 0.33646 0.18168 0.0
H989 H 0.9474 0.28536 0.12549 0.0
H990 H 0.99034 0.32859 0.1272 0.0
S991 S 0.95466 0.31676 0.26804 0.0
N992 N 0.93409 0.29155 0.24202 0.0
N993 N 0.98013 0.33845 0.24341 0.0
C994 C 0.97263 0.32549 0.21217 0.0
C995 C 0.9477 0.29998 0.2114 0.0
C996 C 0.28676 0.2898 0.69081 0.0
C997 C 0.2797 0.2688 0.66687 0.0
C998 C 0.29281 0.31533 0.67965 0.0
C999 C 0.29272 0.32076 0.64407 0.0
H1000 H 0.28892 0.28672 0.71816 0.0
H1001 H 0.29926 0.33125 0.6988 0.0
S1002 S 0.27334 0.27193 0.57129 0.0
N1003 N 0.27101 0.25452 0.6064 0.0
N1004 N 0.2827 0.3025 0.58521 0.0
C1005 C 0.28423 0.29952 0.62005 0.0
C1006 C 0.27761 0.27349 0.63151 0.0
C1007 C 0.78572 0.09626 0.66113 0.0
C1008 C 0.79074 0.12144 0.64888 0.0
C1009 C 0.76374 0.07197 0.64777 0.0
C1010 C 0.74631 0.07187 0.62093 0.0
H1011 H 0.79916 0.09526 0.68101 0.0
H1012 H 0.76102 0.0532 0.65765 0.0
S1013 S 0.74922 0.13218 0.58135 0.0
N1014 N 0.77523 0.14457 0.6099 0.0
N1015 N 0.73443 0.09923 0.58414 0.0
C1016 C 0.75058 0.09692 0.60919 0.0
C1017 C 0.7726 0.1216 0.62332 0.0
C1018 C 0.95421 0.77023 0.67076 0.0
C1019 C 0.9305 0.75351 0.65043 0.0
C1020 C 0.98085 0.77642 0.65998 0.0
C1021 C 0.98477 0.76655 0.62828 0.0
H1022 H 0.95208 0.77642 0.69662 0.0
H1023 H 0.9982 0.78698 0.678 0.0
S1024 S 0.93039 0.72733 0.56203 0.0
N1025 N 0.91325 0.73124 0.59433 0.0
N1026 N 0.96353 0.74311 0.57424 0.0
C1027 C 0.96181 0.75281 0.60578 0.0
C1028 C 0.93456 0.74622 0.61686 0.0
C1029 C 0.9132 0.69651 0.26302 0.0
C1030 C 0.90509 0.69986 0.22923 0.0
C1031 C 0.93588 0.69211 0.26875 0.0
C1032 C 0.95178 0.6913 0.24096 0.0
H1033 H 0.90248 0.69814 0.28547 0.0
H1034 H 0.94168 0.69049 0.29521 0.0
S1035 S 0.93792 0.69638 0.14716 0.0
N1036 N 0.91386 0.69997 0.16748 0.0
N1037 N 0.9562 0.69201 0.17798 0.0
C1038 C 0.94308 0.69337 0.20696 0.0
C1039 C 0.91986 0.69753 0.20115 0.0
C1040 C 0.40802 0.3097 0.28348 0.0
C1041 C 0.41772 0.31297 0.24926 0.0
C1042 C 0.40572 0.33 0.30069 0.0
C1043 C 0.41274 0.35439 0.28422 0.0
H1044 H 0.4017 0.29101 0.29686 0.0
H1045 H 0.39772 0.32619 0.32686 0.0
S1046 S 0.43978 0.37306 0.19457 0.0
N1047 N 0.43488 0.34249 0.19954 0.0
N1048 N 0.43073 0.38085 0.23169 0.0
C1049 C 0.42316 0.35817 0.25015 0.0
C1050 C 0.42565 0.33745 0.23273 0.0
C1051 C 0.7615 0.17955 0.26741 0.0
C1052 C 0.78569 0.18158 0.25254 0.0
C1053 C 0.73706 0.15469 0.27053 0.0
C1054 C 0.73597 0.13108 0.25874 0.0
H1055 H 0.76083 0.19742 0.27474 0.0
H1056 H 0.71838 0.15429 0.2796 0.0
S1057 S 0.795 0.12467 0.22494 0.0
N1058 N 0.80813 0.1572 0.23128 0.0
N1059 N 0.76219 0.11055 0.2371 0.0
C1060 C 0.76075 0.13249 0.24727 0.0
C1061 C 0.78565 0.15775 0.24421 0.0
C1062 C 0.95276 0.44234 0.92149 0.0
C1063 C 0.96587 0.47025 0.9171 0.0
C1064 C 0.95818 0.42617 0.89928 0.0
C1065 C 0.97676 0.4371 0.87136 0.0
H1066 H 0.93893 0.43298 0.9431 0.0
H1067 H 0.94787 0.40485 0.90438 0.0
S1068 S 0.01508 0.509 0.84718 0.0
N1069 N 0.9973 0.50813 0.88186 0.0
N1070 N 0.00735 0.4777 0.83971 0.0
C1071 C 0.98933 0.46493 0.8659 0.0
C1072 C 0.98399 0.48149 0.88889 0.0
C1073 C 0.56949 0.57919 0.87689 0.0
C1074 C 0.5624 0.59619 0.89499 0.0
C1075 C 0.58749 0.58846 0.84825 0.0
C1076 C 0.59947 0.61523 0.8368 0.0
H1077 H 0.56044 0.55839 0.88437 0.0
H1078 H 0.59177 0.57436 0.83479 0.0
S1079 S 0.58969 0.6685 0.87807 0.0
N1080 N 0.57024 0.64147 0.90116 0.0
N1081 N 0.604 0.659 0.84785 0.0
C1082 C 0.59323 0.63264 0.85565 0.0
C1083 C 0.57473 0.62311 0.88454 0.0
C1084 C 0.47415 0.05737 0.91514 0.0
C1085 C 0.47269 0.03235 0.9116 0.0
C1086 C 0.46002 0.06525 0.89191 0.0
C1087 C 0.4442 0.04855 0.86402 0.0
H1088 H 0.48599 0.07082 0.93631 0.0
H1089 H 0.46093 0.0843 0.89632 0.0
S1090 S 0.43343 0.98102 0.84318 0.0
N1091 N 0.45376 0.99076 0.8781 0.0
N1092 N 0.42809 0.0061 0.83376 0.0
C1093 C 0.44335 0.02393 0.85935 0.0
C1094 C 0.45735 0.01568 0.88334 0.0
C1095 C 0.42466 1.00289 0.64482 0.0
C1096 C 0.4278 0.01552 0.61265 0.0
C1097 C 0.4133 0.00929 0.67334 0.0
C1098 C 0.4041 0.0281 0.67043 0.0
H1099 H 0.43199 0.98873 0.64824 0.0
H1100 H 0.41188 0.99955 0.69789 0.0
S1101 S 0.40641 0.0654 0.59068 0.0
N1102 N 0.42019 0.0469 0.57896 0.0
N1103 N 0.39809 0.05847 0.63196 0.0
C1104 C 0.40631 0.04013 0.63788 0.0
C1105 C 0.41839 0.03399 0.60916 0.0
C1106 C 0.07319 0.50153 0.65351 0.0
C1107 C 0.0549 0.51181 0.64976 0.0
C1108 C 0.06823 0.48128 0.67767 0.0
C1109 C 0.04474 0.47027 0.69935 0.0
H1110 H 0.0913 0.50886 0.63719 0.0
H1111 H 0.08297 0.47411 0.67912 0.0
S1112 S 0.99129 0.49142 0.70167 0.0
N1113 N 0.01301 0.51028 0.67129 0.0
N1114 N 0.0035 0.4722 0.71613 0.0
C1115 C 0.02643 0.48061 0.69616 0.0
C1116 C 0.03154 0.50129 0.67157 0.0
C1117 C 0.57313 0.59104 0.62469 0.0
C1118 C 0.58576 0.58908 0.5939 0.0
C1119 C 0.58912 0.60703 0.65294 0.0
C1120 C 0.61827 0.62178 0.65123 0.0
H1121 H 0.55065 0.58132 0.62632 0.0
H1122 H 0.57854 0.60932 0.67511 0.0
S1123 S 0.66182 0.62001 0.57966 0.0
N1124 N 0.62945 0.60051 0.5658 0.0
N1125 N 0.65935 0.6306 0.61866 0.0
C1126 C 0.6312 0.61818 0.622 0.0
C1127 C 0.615 0.60177 0.59341 0.0
C1128 C 0.02042 0.60046 0.14172 0.0
C1129 C 0.99444 0.57679 0.14471 0.0
C1130 C 0.02917 0.62166 0.16559 0.0
C1131 C 0.01259 0.62002 0.19393 0.0
H1132 H 0.03394 0.60297 0.12023 0.0
H1133 H 0.04878 0.63984 0.1612 0.0
S1134 S 0.94381 0.56177 0.21542 0.0
N1135 N 0.95288 0.55248 0.17946 0.0
N1136 N 0.96969 0.59214 0.22498 0.0
C1137 C 0.98737 0.59588 0.19861 0.0
C1138 C 0.97823 0.57431 0.1739 0.0
C1139 C 0.47573 0.48562 0.16622 0.0
C1140 C 0.47158 0.50317 0.14483 0.0
C1141 C 0.45839 0.47279 0.19442 0.0
C1142 C 0.43604 0.4769 0.20269 0.0
H1143 H 0.49262 0.48176 0.16113 0.0
H1144 H 0.46275 0.45959 0.20996 0.0
S1145 S 0.41628 0.52116 0.1549 0.0
N1146 N 0.44353 0.52415 0.13385 0.0
N1147 N 0.41066 0.49987 0.18668 0.0
C1148 C 0.43135 0.49413 0.18117 0.0
C1149 C 0.44913 0.50726 0.15231 0.0
C1150 C 0.56238 0.07473 0.15875 0.0
C1151 C 0.57158 0.08775 0.12663 0.0
C1152 C 0.58096 0.07258 0.18195 0.0
C1153 C 0.60915 0.0831 0.17343 0.0
H1154 H 0.54038 0.06417 0.16461 0.0
H1155 H 0.5728 0.06093 0.20535 0.0
S1156 S 0.64423 0.12347 0.09568 0.0
N1157 N 0.61113 0.11468 0.09012 0.0
N1158 N 0.64606 0.11057 0.13323 0.0
C1159 C 0.61895 0.09833 0.14297 0.0
C1160 C 0.60016 0.10073 0.11975 0.0
C1161 C 0.56773 0.02844 0.39075 0.0
C1162 C 0.55271 0.04097 0.40132 0.0
C1163 C 0.58675 0.0387 0.36337 0.0
C1164 C 0.59121 0.0617 0.34507 0.0
H1165 H 0.56502 0.01074 0.40406 0.0
H1166 H 0.59768 0.0282 0.35617 0.0
S1167 S 0.55652 0.10163 0.36245 0.0
N1168 N 0.54331 0.0774 0.39137 0.0
N1169 N 0.5788 0.09667 0.33985 0.0
C1170 C 0.57622 0.07439 0.35545 0.0
C1171 C 0.55708 0.06405 0.38358 0.0
C1172 C 0.01573 0.5845 0.4013 0.0
C1173 C 0.03796 0.60273 0.42269 0.0
C1174 C 0.0061 0.59333 0.37304 0.0
C1175 C 0.01775 0.62083 0.36553 0.0
H1176 H 0.00616 0.56318 0.40601 0.0
H1177 H 0.98949 0.57841 0.35674 0.0
S1178 S 0.0753 0.67686 0.41528 0.0
N1179 N 0.07067 0.6496 0.43535 0.0
N1180 N 0.05229 0.6663 0.38297 0.0
C1181 C 0.03943 0.63933 0.38753 0.0
C1182 C 0.04961 0.63026 0.41584 0.0
C1183 C 0.47923 0.49462 0.44798 0.0
C1184 C 0.49364 0.5206 0.43417 0.0
C1185 C 0.46267 0.47226 0.4266 0.0
C1186 C 0.46003 0.47497 0.39053 0.0
H1187 H 0.47951 0.49164 0.47573 0.0
H1188 H 0.45107 0.45284 0.43877 0.0
S1189 S 0.49704 0.53843 0.34101 0.0
N1190 N 0.50666 0.54751 0.38182 0.0
N1191 N 0.47585 0.50567 0.34165 0.0
C1192 C 0.4759 0.5007 0.37616 0.0
C1193 C 0.49259 0.52344 0.39796 0.0
C1194 C 0.67075 0.81956 0.26965 0.0
C1195 C 0.68559 0.84718 0.2627 0.0
C1196 C 0.66548 0.80028 0.24336 0.0
C1197 C 0.67453 0.8076 0.20868 0.0
H1198 H 0.66432 0.81276 0.29593 0.0
H1199 H 0.6549 0.77936 0.2507 0.0
S1200 S 0.71121 0.87735 0.17586 0.0
N1201 N 0.70704 0.88079 0.21762 0.0
N1202 N 0.69705 0.84478 0.16874 0.0
C1203 C 0.68794 0.83512 0.20104 0.0
C1204 C 0.69349 0.85476 0.22783 0.0
C1205 C 0.23376 0.9473 0.2748 0.0
C1206 C 0.21916 0.9191 0.27145 0.0
C1207 C 0.25304 0.9638 0.24965 0.0
C1208 C 0.25912 0.95291 0.22029 0.0
H1209 H 0.23044 0.95677 0.2972 0.0
H1210 H 0.26355 0.98534 0.25352 0.0
S1211 S 0.22638 0.88045 0.19834 0.0
N1212 N 0.21192 0.88118 0.23531 0.0
N1213 N 0.24831 0.91207 0.18897 0.0
C1214 C 0.24465 0.92482 0.2165 0.0
C1215 C 0.22467 0.90801 0.24173 0.0
C1216 C 0.16523 0.45924 0.25273 0.0
C1217 C 0.16389 0.46083 0.28902 0.0
C1218 C 0.14175 0.45196 0.23173 0.0
C1219 C 0.11613 0.44619 0.24624 0.0
H1220 H 0.18402 0.46196 0.24062 0.0
H1221 H 0.14353 0.45006 0.20398 0.0
S1222 S 0.10282 0.45053 0.33975 0.0
N1223 N 0.13589 0.45855 0.33843 0.0
N1224 N 0.09149 0.4447 0.29904 0.0
C1225 C 0.115 0.44937 0.28235 0.0
C1226 C 0.13895 0.45673 0.30371 0.0
C1227 C 0.12047 0.37642 0.01884 0.0
C1228 C 0.14602 0.40062 0.0166 0.0
C1229 C 0.10042 0.3732 0.04329 0.0
C1230 C 0.10523 0.39396 0.06665 0.0
H1231 H 0.11601 0.35973 1.00175 0.0
H1232 H 0.0811 0.35422 0.04402 0.0
S1233 S 0.16783 0.46201 0.06981 0.0
N1234 N 0.17423 0.44622 0.03851 0.0
N1235 N 0.13702 0.44004 0.08498 0.0
C1236 C 0.13064 0.41832 0.06459 0.0
C1237 C 0.15091 0.42167 0.03947 0.0
C1238 C 0.67268 0.84571 0.9728 0.0
C1239 C 0.68255 0.8369 0.94498 0.0
C1240 C 0.67004 0.83504 1.0067 0.0
C1241 C 0.67736 0.81521 1.01454 0.0
H1242 H 0.66784 0.86158 0.96871 0.0
H1243 H 0.6627 0.84285 0.02715 0.0
S1244 S 0.70123 0.78303 0.95013 0.0
N1245 N 0.69731 0.80522 0.92733 0.0
N1246 N 0.69286 0.78591 0.99031 0.0
C1247 C 0.68636 0.80568 0.98664 0.0
C1248 C 0.68877 0.81627 0.95222 0.0
C1249 C 0.22365 0.93574 0.98814 0.0
C1250 C 0.21799 0.90904 0.9848 0.0
C1251 C 0.24225 0.95317 1.01347 0.0
C1252 C 0.25545 0.94451 0.03725 0.0
H1253 H 0.21436 0.94361 0.97024 0.0
H1254 H 0.24713 0.97391 1.01367 0.0
S1255 S 0.24657 0.87632 0.04203 0.0
N1256 N 0.2264 0.87457 1.00901 0.0
N1257 N 0.26053 0.90723 0.05756 0.0
C1258 C 0.24866 0.91749 0.03598 0.0
C1259 C 0.23008 0.89975 1.0096 0.0
C1260 C 0.69392 0.91478 0.49103 0.0
C1261 C 0.68263 0.91223 0.45704 0.0
C1262 C 0.69102 0.93059 0.51718 0.0
C1263 C 0.67694 0.94483 0.51046 0.0
H1264 H 0.70611 0.90531 0.49726 0.0
H1265 H 0.70122 0.93284 0.54214 0.0
S1266 S 0.6402 0.94238 0.42793 0.0
N1267 N 0.65421 0.92344 0.41989 0.0
N1268 N 0.64908 0.9531 0.46841 0.0
C1269 C 0.66419 0.94122 0.47736 0.0
C1270 C 0.66689 0.92497 0.45091 0.0
C1271 C 0.14083 0.86531 0.47338 0.0
C1272 C 0.12774 0.85438 0.44109 0.0
C1273 C 0.12962 0.85202 0.50483 0.0
C1274 C 0.10491 0.82688 0.50569 0.0
H1275 H 0.16026 0.88421 0.47443 0.0
H1276 H 0.14089 0.8614 0.52868 0.0
S1277 S 0.0617 0.78966 0.4287 0.0
N1278 N 0.08792 0.81697 0.41225 0.0
N1279 N 0.06715 0.792 0.47116 0.0
C1280 C 0.09128 0.81586 0.47369 0.0
C1281 C 0.10255 0.82958 0.44157 0.0
C1282 C 0.23989 0.42564 0.5297 0.0
C1283 C 0.25188 0.43514 0.49711 0.0
C1284 C 0.2537 0.41878 0.55495 0.0
C1285 C 0.27979 0.42117 0.54811 0.0
H1286 H 0.21924 0.42232 0.53499 0.0
H1287 H 0.24345 0.41066 0.57938 0.0
S1288 S 0.32142 0.44916 0.46823 0.0
N1289 N 0.2922 0.44948 0.4606 0.0
N1290 N 0.31832 0.43672 0.50759 0.0
C1291 C 0.29256 0.43218 0.51619 0.0
C1292 C 0.27854 0.43915 0.49079 0.0
C1293 C 0.26578 0.45219 0.77474 0.0
C1294 C 0.26082 0.43257 0.79972 0.0
C1295 C 0.27777 0.45228 0.74272 0.0
C1296 C 0.28513 0.43271 0.7347 0.0
H1297 H 0.25937 0.46689 0.77948 0.0
H1298 H 0.28047 0.46725 0.72377 0.0
S1299 S 0.28021 0.37958 0.79389 0.0
N1300 N 0.26697 0.39509 0.81612 0.0
N1301 N 0.2892 0.39492 0.7561 0.0
C1302 C 0.28149 0.41381 0.76032 0.0
C1303 C 0.26941 0.41383 0.79279 0.0
C1304 C 0.66213 0.94794 0.78351 0.0
C1305 C 0.66835 0.92693 0.78305 0.0
C1306 C 0.66123 0.961 0.7529 0.0
C1307 C 0.66647 0.95393 0.71974 0.0
H1308 H 0.65838 0.95489 0.80798 0.0
H1309 H 0.65669 0.9772 0.75553 0.0
S1310 S 0.68292 0.89961 0.70315 0.0
N1311 N 0.6792 0.89919 0.74572 0.0
N1312 N 0.67742 0.9236 0.68853 0.0
C1313 C 0.67209 0.93251 0.71862 0.0
C1314 C 0.67305 0.91913 0.74999 0.0
C1315 C 0.12278 0.82638 0.73797 0.0
C1316 C 0.15161 0.83601 0.73716 0.0
C1317 C 0.10522 0.8108 0.71078 0.0
C1318 C 0.11573 0.8044 0.68143 0.0
H1319 H 0.11347 0.8299 0.76053 0.0
H1320 H 0.08298 0.80288 0.71327 0.0
S1321 S 0.18974 0.8261 0.66515 0.0
N1322 N 0.19016 0.8392 0.70362 0.0
N1323 N 0.15676 0.8097 0.65214 0.0
C1324 C 0.14456 0.81465 0.67941 0.0
C1325 C 0.16259 0.83044 0.70744 0.0
C1326 C 0.34291 0.18861 0.58776 0.0
C1327 C 0.3681 0.20424 0.60644 0.0
C1328 C 0.34125 0.172 0.55962 0.0
C1329 C 0.36485 0.17101 0.54836 0.0
H1330 H 0.32387 0.18757 0.59657 0.0
H1331 H 0.32104 0.15868 0.54793 0.0
S1332 S 0.43611 0.20966 0.58613 0.0
N1333 N 0.41745 0.2187 0.60996 0.0
N1334 N 0.41437 0.18822 0.55677 0.0
C1335 C 0.39041 0.18782 0.56531 0.0
C1336 C 0.39203 0.20427 0.59432 0.0
C1337 C 0.93684 0.25738 0.55526 0.0
C1338 C 0.91767 0.25509 0.58071 0.0
C1339 C 0.94718 0.27826 0.53077 0.0
C1340 C 0.93894 0.29788 0.5308 0.0
H1341 H 0.94362 0.24269 0.55403 0.0
H1342 H 0.96163 0.2789 0.51152 0.0
S1343 S 0.89144 0.30267 0.5944 0.0
N1344 N 0.89244 0.27554 0.60581 0.0
N1345 N 0.91166 0.31441 0.56022 0.0
C1346 C 0.92025 0.29612 0.55667 0.0
C1347 C 0.90968 0.27487 0.58145 0.0
C1348 C 0.79777 0.68503 0.54454 0.0
C1349 C 0.78739 0.67615 0.57806 0.0
C1350 C 0.78854 0.69956 0.52451 0.0
C1351 C 0.76886 0.70598 0.53747 0.0
H1352 H 0.81409 0.68187 0.53436 0.0
H1353 H 0.79761 0.7066 0.49921 0.0
S1354 S 0.73241 0.68394 0.62177 0.0
N1355 N 0.75418 0.67215 0.62166 0.0
N1356 N 0.73717 0.69981 0.58457 0.0
C1357 C 0.75733 0.69602 0.57027 0.0
C1358 C 0.76649 0.68101 0.59038 0.0
C1359 C 0.83097 0.75545 0.32883 0.0
C1360 C 0.82619 0.75907 0.29387 0.0
C1361 C 0.8104 0.74914 0.35389 0.0
C1362 C 0.78445 0.74671 0.34501 0.0
H1363 H 0.85058 0.75704 0.33671 0.0
H1364 H 0.81512 0.74671 0.38056 0.0
S1365 S 0.7619 0.75459 0.25675 0.0
N1366 N 0.79378 0.75976 0.25147 0.0
N1367 N 0.75526 0.74843 0.29852 0.0
C1368 C 0.77952 0.75043 0.31007 0.0
C1369 C 0.80033 0.75645 0.28452 0.0
C1370 C 0.32232 0.14237 0.30033 0.0
C1371 C 0.34216 0.16821 0.28914 0.0
C1372 C 0.3246 0.13247 0.33293 0.0
C1373 C 0.3472 0.14757 0.35595 0.0
H1374 H 0.30486 0.12943 0.28353 0.0
H1375 H 0.3086 0.11241 0.33978 0.0
S1376 S 0.40505 0.21661 0.33966 0.0
N1377 N 0.38521 0.209 0.30435 0.0
N1378 N 0.38978 0.19017 0.36513 0.0
C1379 C 0.36722 0.17354 0.34528 0.0
C1380 C 0.3646 0.18389 0.31217 0.0
C1381 C 0.90763 0.33995 0.30145 0.0
C1382 C 0.88674 0.31304 0.30433 0.0
C1383 C 0.92905 0.35188 0.32627 0.0
C1384 C 0.93047 0.33743 0.35508 0.0
H1385 H 0.90845 0.35139 0.27876 0.0
H1386 H 0.94514 0.37246 0.32208 0.0
S1387 S 0.87828 0.26738 0.37695 0.0
N1388 N 0.86678 0.27305 0.33996 0.0
N1389 N 0.9073 0.29546 0.38674 0.0
C1390 C 0.90863 0.31101 0.35949 0.0
C1391 C 0.88674 0.29884 0.33408 0.0
C1392 C 0.33983 0.24785 0.8264 0.0
C1393 C 0.35256 0.25701 0.79372 0.0
C1394 C 0.34451 0.26561 0.85434 0.0
C1395 C 0.36202 0.29344 0.85088 0.0
H1396 H 0.32516 0.22676 0.83015 0.0
H1397 H 0.33303 0.25759 0.87807 0.0
S1398 S 0.40352 0.32765 0.77276 0.0
N1399 N 0.38578 0.29571 0.76115 0.0
N1400 N 0.39463 0.32901 0.81323 0.0
C1401 C 0.37635 0.30268 0.81916 0.0
C1402 C 0.37165 0.28456 0.79078 0.0
C1403 C 0.82078 0.17697 0.82865 0.0
C1404 C 0.82286 0.15805 0.80756 0.0
C1405 C 0.80381 0.16906 0.85817 0.0
C1406 C 0.78755 0.14182 0.86711 0.0
H1407 H 0.83292 0.19811 0.82267 0.0
H1408 H 0.80361 0.18444 0.8743 0.0
S1409 S 0.78438 0.0843 0.81887 0.0
N1410 N 0.80661 0.1109 0.79678 0.0
N1411 N 0.77416 0.09584 0.85159 0.0
C1412 C 0.78878 0.12263 0.84546 0.0
C1413 C 0.80659 0.13078 0.8159 0.0
C1414 C 0.93679 0.69175 0.77535 0.0
C1415 C 0.90837 0.67539 0.78218 0.0
C1416 C 0.95659 0.70119 0.80231 0.0
C1417 C 0.94862 0.69521 0.83722 0.0
H1418 H 0.94369 0.69713 0.74885 0.0
H1419 H 0.97836 0.7135 0.79573 0.0
S1420 S 0.87641 0.65389 0.86871 0.0
N1421 N 0.8729 0.65383 0.82599 0.0
N1422 N 0.91019 0.67217 0.87717 0.0
C1423 C 0.92013 0.67921 0.84448 0.0
C1424 C 0.89997 0.66909 0.8168 0.0
C1425 C 0.92711 0.74612 0.05467 0.0
C1426 C 0.94121 0.76509 0.08134 0.0
C1427 C 0.94171 0.74129 0.02855 0.0
C1428 C 0.97108 0.75499 0.02827 0.0
H1429 H 0.90455 0.73503 0.05388 0.0
H1430 H 0.92982 0.72651 1.00861 0.0
S1431 S 0.01785 0.80592 0.09345 0.0
N1432 N 0.98613 0.79707 0.10653 0.0
N1433 N 0.01366 0.78822 0.05777 0.0
C1434 C 0.98541 0.77394 0.05505 0.0
C1435 C 0.97049 0.77895 0.08145 0.0
C1436 C 0.32667 0.24297 0.09711 0.0
C1437 C 0.35439 0.24967 0.1046 0.0
C1438 C 0.32007 0.25539 0.06959 0.0
C1439 C 0.34085 0.27529 0.0483 0.0
H1440 H 0.30986 0.2276 0.11207 0.0
H1441 H 0.29834 0.24907 0.0648 0.0
S1442 S 0.41699 0.30211 0.0592 0.0
N1443 N 0.40297 0.27911 0.08956 0.0
N1444 N 0.39061 0.302 0.03869 0.0
C1445 C 0.36866 0.28265 0.0563 0.0
C1446 C 0.37536 0.27002 0.0841 0.0
C1447 C 0.79417 0.19369 0.05699 0.0
C1448 C 0.81358 0.19627 0.08279 0.0
C1449 C 0.78143 0.17097 0.03509 0.0
C1450 C 0.78757 0.15009 0.03859 0.0
H1451 H 0.78785 0.20868 0.05486 0.0
H1452 H 0.76559 0.16907 0.01666 0.0
S1453 S 0.84081 0.14963 0.09727 0.0
N1454 N 0.84149 0.178 0.10661 0.0
N1455 N 0.81673 0.13496 0.06657 0.0
C1456 C 0.80821 0.15328 0.06268 0.0
C1457 C 0.82144 0.17647 0.0845 0.0
loop_
_geom_bond_atom_site_label_1
_geom_bond_atom_site_label_2
_geom_bond_distance
_geom_bond_site_symmetry_2
_ccdc_geom_bond_type
Cu0 N1 1.999 . S
Cu0 O6 1.974 1_554 S
Cu0 N11 1.985 1_554 S
Cu0 O20 1.959 . S
N1 Cu0 1.999 . S
N1 C3 1.263 . S
N1 C5 1.389 . S
N2 C3 1.358 . S
N2 C4 1.400 . S
C3 N1 1.263 . S
C3 N2 1.358 . S
C3 H9 0.930 . S
C4 N2 1.400 . S
C4 C5 1.351 . S
C4 H21 0.930 . S
C5 N1 1.389 . S
C5 C4 1.351 . S
C5 H10 0.930 . S
O6 Cu0 1.974 1_556 S
O6 C16 1.282 . S
C7 O8 1.261 . S
C7 O20 1.251 . S
O8 C7 1.261 . S
H9 C3 0.930 . S
H10 C5 0.930 . S
N11 Cu0 1.985 1_556 S
N11 C13 1.335 . S
N11 C14 1.390 . S
N12 C13 1.345 . S
N12 C15 1.336 . S
C13 N11 1.335 . S
C13 N12 1.345 . S
C13 H18 0.930 . S
C14 N11 1.390 . S
C14 C15 1.346 . S
C14 H19 0.930 . S
C15 N12 1.336 . S
C15 C14 1.346 . S
C15 H22 0.929 . S
C16 O6 1.282 . S
C16 O17 1.216 1_455 S
O17 C16 1.216 1_655 S
H18 C13 0.930 . S
H19 C14 0.930 . S
O20 Cu0 1.959 . S
O20 C7 1.251 . S
H21 C4 0.930 . S
H22 C15 0.929 . S
Cu23 N24 1.999 1_554 S
Cu23 O29 1.974 . S
Cu23 N34 1.985 . S
Cu23 O43 1.959 1_554 S
N24 Cu23 1.999 1_556 S
N24 C26 1.263 . S
N24 C28 1.389 . S
N25 C26 1.358 . S
N25 C27 1.400 . S
C26 N24 1.263 . S
C26 N25 1.358 . S
C26 H32 0.930 . S
C27 N25 1.400 . S
C27 C28 1.351 . S
C27 H44 0.930 . S
C28 N24 1.389 . S
C28 C27 1.351 . S
C28 H33 0.930 . S
O29 Cu23 1.974 . S
O29 C39 1.282 . S
C30 O31 1.261 . S
C30 O43 1.251 . S
O31 C30 1.261 . S
H32 C26 0.930 . S
H33 C28 0.930 . S
N34 Cu23 1.985 . S
N34 C36 1.335 . S
N34 C37 1.390 . S
N35 C36 1.345 . S
N35 C38 1.336 . S
C36 N34 1.335 . S
C36 N35 1.345 . S
C36 H41 0.930 . S
C37 N34 1.390 . S
C37 C38 1.346 . S
C37 H42 0.930 . S
C38 N35 1.336 . S
C38 C37 1.346 . S
C38 H45 0.929 . S
C39 O29 1.282 . S
C39 O40 1.216 . S
O40 C39 1.216 . S
H41 C36 0.930 . S
H42 C37 0.930 . S
O43 Cu23 1.959 1_556 S
O43 C30 1.251 . S
H44 C27 0.930 . S
H45 C38 0.929 . S
Cu46 N47 1.999 1_554 S
Cu46 O52 1.974 . S
Cu46 N57 1.985 . S
Cu46 O66 1.959 . S
N47 Cu46 1.999 1_556 S
N47 C49 1.263 . S
N47 C51 1.389 . S
N48 C49 1.358 . S
N48 C50 1.400 . S
C49 N47 1.263 . S
C49 N48 1.358 . S
C49 H55 0.930 . S
C50 N48 1.400 . S
C50 C51 1.351 . S
C50 H67 0.930 . S
C51 N47 1.389 . S
C51 C50 1.351 . S
C51 H56 0.930 . S
O52 Cu46 1.974 . S
O52 C62 1.282 . S
C53 O54 1.262 . S
C53 O66 1.251 1_556 S
O54 C53 1.262 . S
H55 C49 0.930 . S
H56 C51 0.930 . S
N57 Cu46 1.985 . S
N57 C59 1.335 . S
N57 C60 1.390 . S
N58 C59 1.345 . S
N58 C61 1.336 . S
C59 N57 1.335 . S
C59 N58 1.345 . S
C59 H64 0.930 . S
C60 N57 1.390 . S
C60 C61 1.346 . S
C60 H65 0.930 . S
C61 N58 1.336 . S
C61 C60 1.346 . S
C61 H68 0.929 . S
C62 O52 1.282 . S
C62 O63 1.216 . S
O63 C62 1.216 . S
H64 C59 0.930 . S
H65 C60 0.930 . S
O66 Cu46 1.959 . S
O66 C53 1.251 1_554 S
H67 C50 0.930 . S
H68 C61 0.929 . S
Cu69 N70 1.999 . S
Cu69 O75 1.974 . S
Cu69 N80 1.985 . S
Cu69 O89 1.959 . S
N70 Cu69 1.999 . S
N70 C72 1.263 . S
N70 C74 1.389 . S
N71 C72 1.358 . S
N71 C73 1.400 . S
C72 N70 1.263 . S
C72 N71 1.358 . S
C72 H78 0.930 . S
C73 N71 1.400 . S
C73 C74 1.351 . S
C73 H90 0.930 . S
C74 N70 1.389 . S
C74 C73 1.351 . S
C74 H79 0.930 . S
O75 Cu69 1.974 . S
O75 C85 1.282 . S
C76 O77 1.261 . S
C76 O89 1.251 . S
O77 C76 1.261 . S
H78 C72 0.930 . S
H79 C74 0.930 . S
N80 Cu69 1.985 . S
N80 C82 1.335 . S
N80 C83 1.390 . S
N81 C82 1.345 . S
N81 C84 1.336 . S
C82 N80 1.335 . S
C82 N81 1.345 . S
C82 H87 0.930 . S
C83 N80 1.390 . S
C83 C84 1.346 . S
C83 H88 0.930 . S
C84 N81 1.336 . S
C84 C83 1.346 . S
C84 H91 0.937 . S
C85 O75 1.282 . S
C85 O86 1.216 1_545 S
O86 C85 1.216 1_565 S
H87 C82 0.930 . S
H88 C83 0.930 . S
O89 Cu69 1.959 . S
O89 C76 1.251 . S
H90 C73 0.930 . S
H91 C84 0.937 . S
Cu92 N93 1.999 . S
Cu92 O98 1.974 . S
Cu92 N103 1.985 . S
Cu92 O112 1.959 . S
N93 Cu92 1.999 . S
N93 C95 1.263 . S
N93 C97 1.389 . S
N94 C95 1.358 . S
N94 C96 1.400 . S
C95 N93 1.263 . S
C95 N94 1.358 . S
C95 H101 0.930 . S
C96 N94 1.400 . S
C96 C97 1.351 . S
C96 H113 0.930 . S
C97 N93 1.389 . S
C97 C96 1.351 . S
C97 H102 0.930 . S
O98 Cu92 1.974 . S
O98 C108 1.282 . S
C99 O100 1.261 . S
C99 O112 1.251 . S
O100 C99 1.261 . S
H101 C95 0.930 . S
H102 C97 0.930 . S
N103 Cu92 1.985 . S
N103 C105 1.335 . S
N103 C106 1.390 . S
N104 C105 1.345 . S
N104 C107 1.336 . S
C105 N103 1.335 . S
C105 N104 1.345 . S
C105 H110 0.930 . S
C106 N103 1.390 . S
C106 C107 1.346 . S
C106 H111 0.930 . S
C107 N104 1.336 . S
C107 C106 1.346 . S
C107 H114 0.929 . S
C108 O98 1.282 . S
C108 O109 1.216 . S
O109 C108 1.216 . S
H110 C105 0.930 . S
H111 C106 0.930 . S
O112 Cu92 1.959 . S
O112 C99 1.251 . S
H113 C96 0.930 . S
H114 C107 0.929 . S
Cu115 N116 1.999 . S
Cu115 O121 1.974 . S
Cu115 N126 1.985 . S
Cu115 O135 1.959 . S
N116 Cu115 1.999 . S
N116 C118 1.263 . S
N116 C120 1.389 . S
N117 C118 1.358 . S
N117 C119 1.400 . S
C118 N116 1.263 . S
C118 N117 1.358 . S
C118 H124 0.930 . S
C119 N117 1.400 . S
C119 C120 1.351 . S
C119 H136 0.930 . S
C120 N116 1.389 . S
C120 C119 1.351 . S
C120 H125 0.930 . S
O121 Cu115 1.974 . S
O121 C131 1.282 . S
C122 O123 1.261 . S
C122 O135 1.251 . S
O123 C122 1.261 . S
H124 C118 0.930 . S
H125 C120 0.930 . S
N126 Cu115 1.985 . S
N126 C128 1.335 . S
N126 C129 1.390 . S
N127 C128 1.345 . S
N127 C130 1.336 . S
C128 N126 1.335 . S
C128 N127 1.345 . S
C128 H133 0.930 . S
C129 N126 1.390 . S
C129 C130 1.346 . S
C129 H134 0.930 . S
C130 N127 1.336 . S
C130 C129 1.346 . S
C130 H137 0.929 . S
C131 O121 1.282 . S
C131 O132 1.216 . S
O132 C131 1.216 . S
H133 C128 0.930 . S
H134 C129 0.930 . S
O135 Cu115 1.959 . S
O135 C122 1.251 . S
H136 C119 0.930 . S
H137 C130 0.929 . S
Cu138 N139 1.999 . S
Cu138 O144 1.974 . S
Cu138 N149 1.985 . S
Cu138 O158 1.959 . S
N139 Cu138 1.999 . S
N139 C141 1.263 . S
N139 C143 1.389 . S
N140 C141 1.358 . S
N140 C142 1.400 . S
C141 N139 1.263 . S
C141 N140 1.358 . S
C141 H147 0.930 . S
C142 N140 1.400 . S
C142 C143 1.351 . S
C142 H159 0.930 . S
C143 N139 1.389 . S
C143 C142 1.351 . S
C143 H148 0.930 . S
O144 Cu138 1.974 . S
O144 C154 1.282 . S
C145 O146 1.261 . S
C145 O158 1.251 . S
O146 C145 1.261 . S
H147 C141 0.930 . S
H148 C143 0.930 . S
N149 Cu138 1.985 . S
N149 C151 1.335 . S
N149 C152 1.390 . S
N150 C151 1.345 . S
N150 C153 1.336 . S
C151 N149 1.335 . S
C151 N150 1.345 . S
C151 H156 0.930 . S
C152 N149 1.390 . S
C152 C153 1.346 . S
C152 H157 0.930 . S
C153 N150 1.336 . S
C153 C152 1.346 . S
C153 H160 0.929 . S
C154 O144 1.282 . S
C154 O155 1.216 . S
O155 C154 1.216 . S
H156 C151 0.930 . S
H157 C152 0.930 . S
O158 Cu138 1.959 . S
O158 C145 1.251 . S
H159 C142 0.930 . S
H160 C153 0.929 . S
Cu161 N162 1.999 . S
Cu161 O167 1.974 . S
Cu161 N172 1.985 . S
Cu161 O181 1.959 . S
N162 Cu161 1.999 . S
N162 C164 1.263 . S
N162 C166 1.389 . S
N163 C164 1.358 . S
N163 C165 1.400 . S
C164 N162 1.263 . S
C164 N163 1.358 . S
C164 H170 0.930 . S
C165 N163 1.400 . S
C165 C166 1.351 . S
C165 H182 0.930 . S
C166 N162 1.389 . S
C166 C165 1.351 . S
C166 H171 0.930 . S
O167 Cu161 1.974 . S
O167 C177 1.282 . S
C168 O169 1.261 . S
C168 O181 1.251 . S
O169 C168 1.261 . S
H170 C164 0.930 . S
H171 C166 0.930 . S
N172 Cu161 1.985 . S
N172 C174 1.335 . S
N172 C175 1.390 . S
N173 C174 1.345 . S
N173 C176 1.336 . S
C174 N172 1.335 . S
C174 N173 1.345 . S
C174 H179 0.930 . S
C175 N172 1.390 . S
C175 C176 1.346 . S
C175 H180 0.930 . S
C176 N173 1.336 . S
C176 C175 1.346 . S
C176 H183 0.929 . S
C177 O167 1.282 . S
C177 O178 1.216 . S
O178 C177 1.216 . S
H179 C174 0.930 . S
H180 C175 0.930 . S
O181 Cu161 1.959 . S
O181 C168 1.251 . S
H182 C165 0.930 . S
H183 C176 0.929 . S
Cu184 N185 1.999 . S
Cu184 O190 1.974 . S
Cu184 N195 1.985 . S
Cu184 O204 1.959 . S
N185 Cu184 1.999 . S
N185 C187 1.263 . S
N185 C189 1.389 . S
N186 C187 1.358 . S
N186 C188 1.400 . S
C187 N185 1.263 . S
C187 N186 1.358 . S
C187 H193 0.930 . S
C188 N186 1.400 . S
C188 C189 1.351 . S
C188 H205 0.930 . S
C189 N185 1.389 . S
C189 C188 1.351 . S
C189 H194 0.930 . S
O190 Cu184 1.974 . S
O190 C200 1.282 . S
C191 O192 1.261 . S
C191 O204 1.251 . S
O192 C191 1.261 . S
H193 C187 0.930 . S
H194 C189 0.930 . S
N195 Cu184 1.985 . S
N195 C197 1.335 . S
N195 C198 1.390 . S
N196 C197 1.345 . S
N196 C199 1.336 . S
C197 N195 1.335 . S
C197 N196 1.345 . S
C197 H202 0.930 . S
C198 N195 1.390 . S
C198 C199 1.346 . S
C198 H203 0.930 . S
C199 N196 1.336 . S
C199 C198 1.346 . S
C199 H206 0.929 . S
C200 O190 1.282 . S
C200 O201 1.216 . S
O201 C200 1.216 . S
H202 C197 0.930 . S
H203 C198 0.930 . S
O204 Cu184 1.959 . S
O204 C191 1.251 . S
H205 C188 0.930 . S
H206 C199 0.929 . S
Cu207 N208 1.999 . S
Cu207 O213 1.974 . S
Cu207 N218 1.985 . S
Cu207 O227 1.959 . S
N208 Cu207 1.999 . S
N208 C210 1.263 . S
N208 C212 1.389 . S
N209 C210 1.358 . S
N209 C211 1.400 . S
C210 N208 1.263 . S
C210 N209 1.358 . S
C210 H216 0.930 . S
C211 N209 1.400 . S
C211 C212 1.351 . S
C211 H228 0.930 . S
C212 N208 1.389 . S
C212 C211 1.351 . S
C212 H217 0.930 . S
O213 Cu207 1.974 . S
O213 C223 1.282 . S
C214 O215 1.261 . S
C214 O227 1.251 . S
O215 C214 1.261 . S
H216 C210 0.930 . S
H217 C212 0.930 . S
N218 Cu207 1.985 . S
N218 C220 1.335 . S
N218 C221 1.390 . S
N219 C220 1.345 . S
N219 C222 1.336 . S
C220 N218 1.335 . S
C220 N219 1.345 . S
C220 H225 0.930 . S
C221 N218 1.390 . S
C221 C222 1.346 . S
C221 H226 0.930 . S
C222 N219 1.336 . S
C222 C221 1.346 . S
C222 H229 0.929 . S
C223 O213 1.282 . S
C223 O224 1.216 . S
O224 C223 1.216 . S
H225 C220 0.930 . S
H226 C221 0.930 . S
O227 Cu207 1.959 . S
O227 C214 1.251 . S
H228 C211 0.930 . S
H229 C222 0.929 . S
Cu230 N231 1.999 . S
Cu230 O236 1.974 . S
Cu230 N241 1.985 . S
Cu230 O250 1.959 . S
N231 Cu230 1.999 . S
N231 C233 1.263 . S
N231 C235 1.389 . S
N232 C233 1.358 . S
N232 C234 1.400 . S
C233 N231 1.263 . S
C233 N232 1.358 . S
C233 H239 0.930 . S
C234 N232 1.400 . S
C234 C235 1.351 . S
C234 H251 0.930 . S
C235 N231 1.389 . S
C235 C234 1.351 . S
C235 H240 0.930 . S
O236 Cu230 1.974 . S
O236 C246 1.282 . S
C237 O238 1.261 . S
C237 O250 1.251 . S
O238 C237 1.261 . S
H239 C233 0.930 . S
H240 C235 0.930 . S
N241 Cu230 1.985 . S
N241 C243 1.335 . S
N241 C244 1.390 . S
N242 C243 1.345 . S
N242 C245 1.336 . S
C243 N241 1.335 . S
C243 N242 1.345 . S
C243 H248 0.930 . S
C244 N241 1.390 . S
C244 C245 1.346 . S
C244 H249 0.930 . S
C245 N242 1.336 . S
C245 C244 1.346 . S
C245 H252 0.929 . S
C246 O236 1.282 . S
C246 O247 1.216 . S
O247 C246 1.216 . S
H248 C243 0.930 . S
H249 C244 0.930 . S
O250 Cu230 1.959 . S
O250 C237 1.251 . S
H251 C234 0.930 . S
H252 C245 0.929 . S
Cu253 N254 1.999 . S
Cu253 O259 1.974 . S
Cu253 N264 1.985 . S
Cu253 O273 1.959 . S
N254 Cu253 1.999 . S
N254 C256 1.263 . S
N254 C258 1.389 . S
N255 C256 1.358 . S
N255 C257 1.400 . S
C256 N254 1.263 . S
C256 N255 1.358 . S
C256 H262 0.930 . S
C257 N255 1.400 . S
C257 C258 1.351 . S
C257 H274 0.930 . S
C258 N254 1.389 . S
C258 C257 1.351 . S
C258 H263 0.930 . S
O259 Cu253 1.974 . S
O259 C269 1.282 . S
C260 O261 1.261 . S
C260 O273 1.251 . S
O261 C260 1.261 . S
H262 C256 0.930 . S
H263 C258 0.930 . S
N264 Cu253 1.985 . S
N264 C266 1.335 . S
N264 C267 1.390 . S
N265 C266 1.345 . S
N265 C268 1.336 . S
C266 N264 1.335 . S
C266 N265 1.345 . S
C266 H271 0.930 . S
C267 N264 1.390 . S
C267 C268 1.346 . S
C267 H272 0.930 . S
C268 N265 1.336 . S
C268 C267 1.346 . S
C268 H275 0.929 . S
C269 O259 1.282 . S
C269 O270 1.216 . S
O270 C269 1.216 . S
H271 C266 0.930 . S
H272 C267 0.930 . S
O273 Cu253 1.959 . S
O273 C260 1.251 . S
H274 C257 0.930 . S
H275 C268 0.929 . S
Cu276 N277 1.999 . S
Cu276 O282 1.974 . S
Cu276 N287 1.985 . S
Cu276 O296 1.959 . S
N277 Cu276 1.999 . S
N277 C279 1.263 . S
N277 C281 1.389 . S
N278 C279 1.358 . S
N278 C280 1.400 . S
C279 N277 1.263 . S
C279 N278 1.358 . S
C279 H285 0.930 . S
C280 N278 1.400 . S
C280 C281 1.351 . S
C280 H297 0.930 . S
C281 N277 1.389 . S
C281 C280 1.351 . S
C281 H286 0.930 . S
O282 Cu276 1.974 . S
O282 C292 1.282 . S
C283 O284 1.261 . S
C283 O296 1.251 . S
O284 C283 1.261 . S
H285 C279 0.930 . S
H286 C281 0.930 . S
N287 Cu276 1.985 . S
N287 C289 1.335 . S
N287 C290 1.390 . S
N288 C289 1.345 . S
N288 C291 1.336 . S
C289 N287 1.335 . S
C289 N288 1.345 . S
C289 H294 0.930 . S
C290 N287 1.390 . S
C290 C291 1.346 . S
C290 H295 0.930 . S
C291 N288 1.336 . S
C291 C290 1.346 . S
C291 H298 0.929 . S
C292 O282 1.282 . S
C292 O293 1.216 . S
O293 C292 1.216 . S
H294 C289 0.930 . S
H295 C290 0.930 . S
O296 Cu276 1.959 . S
O296 C283 1.251 . S
H297 C280 0.930 . S
H298 C291 0.929 . S
Cu299 N300 1.999 . S
Cu299 O305 1.974 . S
Cu299 N310 1.985 . S
Cu299 O319 1.959 . S
N300 Cu299 1.999 . S
N300 C302 1.263 . S
N300 C304 1.389 . S
N301 C302 1.358 . S
N301 C303 1.400 . S
C302 N300 1.263 . S
C302 N301 1.358 . S
C302 H308 0.930 . S
C303 N301 1.400 . S
C303 C304 1.351 . S
C303 H320 0.930 . S
C304 N300 1.389 . S
C304 C303 1.351 . S
C304 H309 0.930 . S
O305 Cu299 1.974 . S
O305 C315 1.282 . S
C306 O307 1.261 . S
C306 O319 1.251 . S
O307 C306 1.261 . S
H308 C302 0.930 . S
H309 C304 0.930 . S
N310 Cu299 1.985 . S
N310 C312 1.335 . S
N310 C313 1.390 . S
N311 C312 1.345 . S
N311 C314 1.336 . S
C312 N310 1.335 . S
C312 N311 1.345 . S
C312 H317 0.930 . S
C313 N310 1.390 . S
C313 C314 1.346 . S
C313 H318 0.930 . S
C314 N311 1.336 . S
C314 C313 1.346 . S
C314 H321 0.929 . S
C315 O305 1.282 . S
C315 O316 1.216 . S
O316 C315 1.216 . S
H317 C312 0.930 . S
H318 C313 0.930 . S
O319 Cu299 1.959 . S
O319 C306 1.251 . S
H320 C303 0.930 . S
H321 C314 0.929 . S
Cu322 N323 1.999 . S
Cu322 O328 1.974 . S
Cu322 N333 1.985 . S
Cu322 O342 1.959 . S
N323 Cu322 1.999 . S
N323 C325 1.263 . S
N323 C327 1.389 . S
N324 C325 1.358 . S
N324 C326 1.400 . S
C325 N323 1.263 . S
C325 N324 1.358 . S
C325 H331 0.930 . S
C326 N324 1.400 . S
C326 C327 1.351 . S
C326 H343 0.930 . S
C327 N323 1.389 . S
C327 C326 1.351 . S
C327 H332 0.930 . S
O328 Cu322 1.974 . S
O328 C338 1.282 . S
C329 O330 1.261 . S
C329 O342 1.251 . S
O330 C329 1.261 . S
H331 C325 0.930 . S
H332 C327 0.930 . S
N333 Cu322 1.985 . S
N333 C335 1.335 . S
N333 C336 1.390 . S
N334 C335 1.345 . S
N334 C337 1.336 . S
C335 N333 1.335 . S
C335 N334 1.345 . S
C335 H340 0.930 . S
C336 N333 1.390 . S
C336 C337 1.346 . S
C336 H341 0.930 . S
C337 N334 1.336 . S
C337 C336 1.346 . S
C337 H344 0.929 . S
C338 O328 1.282 . S
C338 O339 1.216 . S
O339 C338 1.216 . S
H340 C335 0.930 . S
H341 C336 0.930 . S
O342 Cu322 1.959 . S
O342 C329 1.251 . S
H343 C326 0.930 . S
H344 C337 0.929 . S
Cu345 N346 1.999 . S
Cu345 O351 1.974 . S
Cu345 N356 1.985 . S
Cu345 O365 1.959 . S
N346 Cu345 1.999 . S
N346 C348 1.263 . S
N346 C350 1.389 . S
N347 C348 1.358 . S
N347 C349 1.400 . S
C348 N346 1.263 . S
C348 N347 1.358 . S
C348 H354 0.930 . S
C349 N347 1.400 . S
C349 C350 1.351 . S
C349 H366 0.930 . S
C350 N346 1.389 . S
C350 C349 1.351 . S
C350 H355 0.930 . S
O351 Cu345 1.974 . S
O351 C361 1.282 . S
C352 O353 1.261 . S
C352 O365 1.251 . S
O353 C352 1.261 . S
H354 C348 0.930 . S
H355 C350 0.930 . S
N356 Cu345 1.985 . S
N356 C358 1.335 . S
N356 C359 1.390 . S
N357 C358 1.345 . S
N357 C360 1.336 . S
C358 N356 1.335 . S
C358 N357 1.345 . S
C358 H363 0.930 . S
C359 N356 1.390 . S
C359 C360 1.346 . S
C359 H364 0.930 . S
C360 N357 1.336 . S
C360 C359 1.346 . S
C360 H367 0.929 . S
C361 O351 1.282 . S
C361 O362 1.216 . S
O362 C361 1.216 . S
H363 C358 0.930 . S
H364 C359 0.930 . S
O365 Cu345 1.959 . S
O365 C352 1.251 . S
H366 C349 0.930 . S
H367 C360 0.929 . S
Cu368 N369 1.999 . S
Cu368 O374 1.974 . S
Cu368 N379 1.985 . S
Cu368 O388 1.959 . S
N369 Cu368 1.999 . S
N369 C371 1.263 . S
N369 C373 1.389 . S
N370 C371 1.358 . S
N370 C372 1.400 . S
C371 N369 1.263 . S
C371 N370 1.358 . S
C371 H377 0.930 . S
C372 N370 1.400 . S
C372 C373 1.351 . S
C372 H389 0.930 . S
C373 N369 1.389 . S
C373 C372 1.351 . S
C373 H378 0.930 . S
O374 Cu368 1.974 . S
O374 C384 1.282 . S
C375 O376 1.261 . S
C375 O388 1.251 . S
O376 C375 1.261 . S
H377 C371 0.930 . S
H378 C373 0.930 . S
N379 Cu368 1.985 . S
N379 C381 1.335 . S
N379 C382 1.390 . S
N380 C381 1.345 . S
N380 C383 1.336 . S
C381 N379 1.335 . S
C381 N380 1.345 . S
C381 H386 0.930 . S
C382 N379 1.390 . S
C382 C383 1.346 . S
C382 H387 0.930 . S
C383 N380 1.336 . S
C383 C382 1.346 . S
C383 H390 0.929 . S
C384 O374 1.282 . S
C384 O385 1.216 . S
O385 C384 1.216 . S
H386 C381 0.930 . S
H387 C382 0.930 . S
O388 Cu368 1.959 . S
O388 C375 1.251 . S
H389 C372 0.930 . S
H390 C383 0.929 . S
Cu391 N392 1.999 . S
Cu391 O397 1.974 . S
Cu391 N402 1.985 . S
Cu391 O411 1.959 . S
N392 Cu391 1.999 . S
N392 C394 1.263 . S
N392 C396 1.389 . S
N393 C394 1.358 . S
N393 C395 1.400 . S
C394 N392 1.263 . S
C394 N393 1.358 . S
C394 H400 0.930 . S
C395 N393 1.400 . S
C395 C396 1.351 . S
C395 H412 0.930 . S
C396 N392 1.389 . S
C396 C395 1.351 . S
C396 H401 0.930 . S
O397 Cu391 1.974 . S
O397 C407 1.282 . S
C398 O399 1.261 . S
C398 O411 1.251 . S
O399 C398 1.261 . S
H400 C394 0.930 . S
H401 C396 0.930 . S
N402 Cu391 1.985 . S
N402 C404 1.335 . S
N402 C405 1.390 . S
N403 C404 1.345 . S
N403 C406 1.336 . S
C404 N402 1.335 . S
C404 N403 1.345 . S
C404 H409 0.930 . S
C405 N402 1.390 . S
C405 C406 1.346 . S
C405 H410 0.930 . S
C406 N403 1.336 . S
C406 C405 1.346 . S
C406 H413 0.929 . S
C407 O397 1.282 . S
C407 O408 1.216 . S
O408 C407 1.216 . S
H409 C404 0.930 . S
H410 C405 0.930 . S
O411 Cu391 1.959 . S
O411 C398 1.251 . S
H412 C395 0.930 . S
H413 C406 0.929 . S
Zn414 O417 2.031 . S
Zn414 O419 2.049 . S
Zn414 O424 2.067 1_455 S
Zn415 O416 1.962 . S
Zn415 O418 1.986 . S
Zn415 O420 1.996 . S
Zn415 O423 1.943 1_455 S
O416 Zn415 1.962 . S
O416 C421 1.254 . S
O417 Zn414 2.031 . S
O417 C421 1.269 . S
O418 Zn415 1.986 . S
O418 C425 1.262 . S
O419 Zn414 2.049 . S
O419 C427 1.260 . S
O420 Zn415 1.996 . S
O420 C427 1.257 . S
C421 O416 1.254 . S
C421 O417 1.269 . S
C422 O423 1.249 . S
C422 O424 1.270 . S
O423 Zn415 1.943 1_655 S
O423 C422 1.249 . S
O424 Zn414 2.067 1_655 S
O424 C422 1.270 . S
C425 O418 1.262 . S
C425 O426 1.232 1_455 S
O426 C425 1.232 1_655 S
C427 O419 1.260 . S
C427 O420 1.257 . S
Zn428 O431 2.031 . S
Zn428 O433 2.049 . S
Zn428 O438 2.067 . S
Zn429 O430 1.962 . S
Zn429 O432 1.986 . S
Zn429 O434 1.996 . S
Zn429 O437 1.943 . S
O430 Zn429 1.962 . S
O430 C435 1.254 . S
O431 Zn428 2.031 . S
O431 C435 1.269 . S
O432 Zn429 1.986 . S
O432 C439 1.262 . S
O433 Zn428 2.049 . S
O433 C441 1.260 . S
O434 Zn429 1.996 . S
O434 C441 1.257 . S
C435 O430 1.254 . S
C435 O431 1.269 . S
C436 O437 1.249 . S
C436 O438 1.270 . S
O437 Zn429 1.943 . S
O437 C436 1.249 . S
O438 Zn428 2.067 . S
O438 C436 1.270 . S
C439 O432 1.262 . S
C439 O440 1.232 . S
O440 C439 1.232 . S
C441 O433 1.260 . S
C441 O434 1.257 . S
Zn442 O445 2.031 . S
Zn442 O447 2.049 . S
Zn442 O452 2.067 . S
Zn443 O444 1.962 . S
Zn443 O446 1.986 . S
Zn443 O448 1.996 . S
Zn443 O451 1.943 . S
O444 Zn443 1.962 . S
O444 C449 1.254 . S
O445 Zn442 2.031 . S
O445 C449 1.269 . S
O446 Zn443 1.986 . S
O446 C453 1.262 . S
O447 Zn442 2.049 . S
O447 C455 1.260 . S
O448 Zn443 1.996 . S
O448 C455 1.257 . S
C449 O444 1.254 . S
C449 O445 1.269 . S
C450 O451 1.249 . S
C450 O452 1.270 . S
O451 Zn443 1.943 . S
O451 C450 1.249 . S
O452 Zn442 2.067 . S
O452 C450 1.270 . S
C453 O446 1.262 . S
C453 O454 1.232 . S
O454 C453 1.232 . S
C455 O447 1.260 . S
C455 O448 1.257 . S
Zn456 O459 2.031 1_455 S
Zn456 O461 2.049 . S
Zn456 O466 2.067 . S
Zn457 O458 1.962 1_455 S
Zn457 O460 1.986 . S
Zn457 O462 1.996 . S
Zn457 O465 1.943 . S
O458 Zn457 1.962 1_655 S
O458 C463 1.254 . S
O459 Zn456 2.031 1_655 S
O459 C463 1.269 . S
O460 Zn457 1.986 . S
O460 C467 1.262 . S
O461 Zn456 2.049 . S
O461 C469 1.260 . S
O462 Zn457 1.996 . S
O462 C469 1.257 . S
C463 O458 1.254 . S
C463 O459 1.269 . S
C464 O465 1.249 . S
C464 O466 1.270 . S
O465 Zn457 1.943 . S
O465 C464 1.249 . S
O466 Zn456 2.067 . S
O466 C464 1.270 . S
C467 O460 1.262 . S
C467 O468 1.232 . S
O468 C467 1.232 . S
C469 O461 1.260 . S
C469 O462 1.257 . S
Zn470 O473 2.031 . S
Zn470 O475 2.049 . S
Zn470 O480 2.067 . S
Zn471 O472 1.962 . S
Zn471 O474 1.986 . S
Zn471 O476 1.996 . S
Zn471 O479 1.943 . S
O472 Zn471 1.962 . S
O472 C477 1.254 . S
O473 Zn470 2.031 . S
O473 C477 1.269 . S
O474 Zn471 1.986 . S
O474 C481 1.262 . S
O475 Zn470 2.049 . S
O475 C483 1.260 . S
O476 Zn471 1.996 . S
O476 C483 1.257 . S
C477 O472 1.254 . S
C477 O473 1.269 . S
C478 O479 1.249 . S
C478 O480 1.270 . S
O479 Zn471 1.943 . S
O479 C478 1.249 . S
O480 Zn470 2.067 . S
O480 C478 1.270 . S
C481 O474 1.262 . S
C481 O482 1.232 . S
O482 C481 1.232 . S
C483 O475 1.260 . S
C483 O476 1.257 . S
Zn484 O487 2.031 . S
Zn484 O489 2.049 . S
Zn484 O494 2.067 . S
Zn485 O486 1.962 . S
Zn485 O488 1.986 . S
Zn485 O490 1.996 . S
Zn485 O493 1.945 1_545 S
O486 Zn485 1.962 . S
O486 C491 1.254 . S
O487 Zn484 2.031 . S
O487 C491 1.269 . S
O488 Zn485 1.986 . S
O488 C495 1.262 . S
O489 Zn484 2.049 . S
O489 C497 1.260 . S
O490 Zn485 1.996 . S
O490 C497 1.257 . S
C491 O486 1.254 . S
C491 O487 1.269 . S
C492 O493 1.249 . S
C492 O494 1.270 1_565 S
O493 Zn485 1.945 1_565 S
O493 C492 1.249 . S
O494 Zn484 2.067 . S
O494 C492 1.270 1_545 S
C495 O488 1.262 . S
C495 O496 1.232 . S
O496 C495 1.232 . S
C497 O489 1.260 . S
C497 O490 1.257 . S
Zn498 O501 2.031 1_545 S
Zn498 O503 2.049 . S
Zn498 O508 2.067 . S
Zn499 O500 1.962 . S
Zn499 O502 1.986 . S
Zn499 O504 1.996 1_565 S
Zn499 O507 1.943 . S
O500 Zn499 1.962 . S
O500 C505 1.254 . S
O501 Zn498 2.031 1_565 S
O501 C505 1.269 . S
O502 Zn499 1.986 . S
O502 C509 1.262 . S
O503 Zn498 2.049 . S
O503 C511 1.260 . S
O504 Zn499 1.996 1_545 S
O504 C511 1.257 . S
C505 O500 1.254 . S
C505 O501 1.269 . S
C506 O507 1.249 1_545 S
C506 O508 1.270 . S
O507 Zn499 1.943 . S
O507 C506 1.249 1_565 S
O508 Zn498 2.067 . S
O508 C506 1.270 . S
C509 O502 1.262 . S
C509 O510 1.232 . S
O510 C509 1.232 . S
C511 O503 1.260 . S
C511 O504 1.257 . S
Zn512 O515 2.031 . S
Zn512 O517 2.049 . S
Zn512 O522 2.067 . S
Zn513 O514 1.962 . S
Zn513 O516 1.986 . S
Zn513 O518 1.996 . S
Zn513 O521 1.943 . S
O514 Zn513 1.962 . S
O514 C519 1.254 . S
O515 Zn512 2.031 . S
O515 C519 1.269 . S
O516 Zn513 1.986 . S
O516 C523 1.262 . S
O517 Zn512 2.049 . S
O517 C525 1.260 . S
O518 Zn513 1.996 . S
O518 C525 1.257 . S
C519 O514 1.254 . S
C519 O515 1.269 . S
C520 O521 1.249 . S
C520 O522 1.270 . S
O521 Zn513 1.943 . S
O521 C520 1.249 . S
O522 Zn512 2.067 . S
O522 C520 1.270 . S
C523 O516 1.262 . S
C523 O524 1.232 . S
O524 C523 1.232 . S
C525 O517 1.260 . S
C525 O518 1.257 . S
Zn526 O529 2.031 . S
Zn526 O531 2.049 . S
Zn526 O536 2.067 . S
Zn527 O528 1.962 . S
Zn527 O530 1.986 . S
Zn527 O532 1.996 . S
Zn527 O535 1.943 . S
O528 Zn527 1.962 . S
O528 C533 1.254 . S
O529 Zn526 2.031 . S
O529 C533 1.269 . S
O530 Zn527 1.986 . S
O530 C537 1.262 . S
O531 Zn526 2.049 . S
O531 C539 1.260 . S
O532 Zn527 1.996 . S
O532 C539 1.257 . S
C533 O528 1.254 . S
C533 O529 1.269 . S
C534 O535 1.249 . S
C534 O536 1.270 . S
O535 Zn527 1.943 . S
O535 C534 1.249 . S
O536 Zn526 2.067 . S
O536 C534 1.270 . S
C537 O530 1.262 . S
C537 O538 1.232 . S
O538 C537 1.232 . S
C539 O531 1.260 . S
C539 O532 1.257 . S
Zn540 O543 2.031 . S
Zn540 O545 2.049 . S
Zn540 O550 2.067 . S
Zn541 O542 1.962 . S
Zn541 O544 1.986 . S
Zn541 O546 1.996 . S
Zn541 O549 1.943 . S
O542 Zn541 1.962 . S
O542 C547 1.254 . S
O543 Zn540 2.031 . S
O543 C547 1.269 . S
O544 Zn541 1.986 . S
O544 C551 1.262 . S
O545 Zn540 2.049 . S
O545 C553 1.260 . S
O546 Zn541 1.996 . S
O546 C553 1.257 . S
C547 O542 1.254 . S
C547 O543 1.269 . S
C548 O549 1.249 . S
C548 O550 1.270 . S
O549 Zn541 1.943 . S
O549 C548 1.249 . S
O550 Zn540 2.067 . S
O550 C548 1.270 . S
C551 O544 1.262 . S
C551 O552 1.232 . S
O552 C551 1.232 . S
C553 O545 1.260 . S
C553 O546 1.257 . S
Zn554 O557 2.031 . S
Zn554 O559 2.049 1_545 S
Zn554 O564 2.067 . S
Zn555 O556 1.962 1_565 S
Zn555 O558 1.986 . S
Zn555 O560 1.996 . S
Zn555 O563 1.943 . S
O556 Zn555 1.962 1_545 S
O556 C561 1.254 . S
O557 Zn554 2.031 . S
O557 C561 1.269 . S
O558 Zn555 1.986 . S
O558 C565 1.262 . S
O559 Zn554 2.049 1_565 S
O559 C567 1.260 . S
O560 Zn555 1.996 . S
O560 C567 1.257 . S
C561 O556 1.254 . S
C561 O557 1.269 . S
C562 O563 1.249 1_545 S
C562 O564 1.270 . S
O563 Zn555 1.943 . S
O563 C562 1.249 1_565 S
O564 Zn554 2.067 . S
O564 C562 1.270 . S
C565 O558 1.262 . S
C565 O566 1.232 . S
O566 C565 1.232 . S
C567 O559 1.260 . S
C567 O560 1.257 . S
Zn568 O571 2.031 . S
Zn568 O573 2.049 . S
Zn568 O578 2.067 . S
Zn569 O570 1.962 . S
Zn569 O572 1.986 . S
Zn569 O574 1.996 . S
Zn569 O577 1.943 . S
O570 Zn569 1.962 . S
O570 C575 1.254 . S
O571 Zn568 2.031 . S
O571 C575 1.269 . S
O572 Zn569 1.986 . S
O572 C579 1.262 . S
O573 Zn568 2.049 . S
O573 C581 1.260 . S
O574 Zn569 1.996 . S
O574 C581 1.257 . S
C575 O570 1.254 . S
C575 O571 1.269 . S
C576 O577 1.264 . S
C576 O578 1.269 . S
O577 Zn569 1.943 . S
O577 C576 1.264 . S
O578 Zn568 2.067 . S
O578 C576 1.269 . S
C579 O572 1.262 . S
C579 O580 1.232 . S
O580 C579 1.232 . S
C581 O573 1.260 . S
C581 O574 1.257 . S
Zn582 O585 2.031 . S
Zn582 O587 2.049 . S
Zn582 O592 2.067 . S
Zn583 O584 1.962 . S
Zn583 O586 1.986 . S
Zn583 O588 1.996 . S
Zn583 O591 1.943 . S
O584 Zn583 1.962 . S
O584 C589 1.254 . S
O585 Zn582 2.031 . S
O585 C589 1.269 . S
O586 Zn583 1.986 . S
O586 C593 1.257 1_556 S
O587 Zn582 2.049 . S
O587 C595 1.260 . S
O588 Zn583 1.996 . S
O588 C595 1.257 . S
C589 O584 1.254 . S
C589 O585 1.269 . S
C590 O591 1.249 . S
C590 O592 1.270 . S
O591 Zn583 1.943 . S
O591 C590 1.249 . S
O592 Zn582 2.067 . S
O592 C590 1.270 . S
C593 O586 1.257 1_554 S
C593 O594 1.210 1_554 S
O594 C593 1.210 1_556 S
C595 O587 1.260 . S
C595 O588 1.257 . S
Zn596 O599 2.031 . S
Zn596 O601 2.049 . S
Zn596 O606 2.067 . S
Zn597 O598 1.962 . S
Zn597 O600 1.986 . S
Zn597 O602 1.996 . S
Zn597 O605 1.943 . S
O598 Zn597 1.962 . S
O598 C603 1.254 . S
O599 Zn596 2.031 . S
O599 C603 1.269 . S
O600 Zn597 1.986 . S
O600 C607 1.262 . S
O601 Zn596 2.049 . S
O601 C609 1.260 . S
O602 Zn597 1.996 . S
O602 C609 1.257 . S
C603 O598 1.254 . S
C603 O599 1.269 . S
C604 O605 1.249 . S
C604 O606 1.270 . S
O605 Zn597 1.943 . S
O605 C604 1.249 . S
O606 Zn596 2.067 . S
O606 C604 1.270 . S
C607 O600 1.262 . S
C607 O608 1.232 . S
O608 C607 1.232 . S
C609 O601 1.260 . S
C609 O602 1.257 . S
Zn610 O613 2.031 1_455 S
Zn610 O615 2.049 . S
Zn610 O620 2.067 . S
Zn611 O612 1.962 . S
Zn611 O614 1.986 . S
Zn611 O616 1.996 . S
Zn611 O619 1.943 1_655 S
O612 Zn611 1.962 . S
O612 C617 1.254 . S
O613 Zn610 2.031 1_655 S
O613 C617 1.269 . S
O614 Zn611 1.986 . S
O614 C621 1.262 . S
O615 Zn610 2.049 . S
O615 C623 1.260 . S
O616 Zn611 1.996 . S
O616 C623 1.257 1_655 S
C617 O612 1.254 . S
C617 O613 1.269 . S
C618 O619 1.249 . S
C618 O620 1.270 . S
O619 Zn611 1.943 1_455 S
O619 C618 1.249 . S
O620 Zn610 2.067 . S
O620 C618 1.270 . S
C621 O614 1.262 . S
C621 O622 1.232 . S
O622 C621 1.232 . S
C623 O615 1.260 . S
C623 O616 1.257 1_455 S
Zn624 O627 2.031 . S
Zn624 O629 2.049 . S
Zn624 O634 2.067 . S
Zn625 O626 1.962 . S
Zn625 O628 1.986 . S
Zn625 O630 1.996 . S
Zn625 O633 1.943 . S
O626 Zn625 1.962 . S
O626 C631 1.254 . S
O627 Zn624 2.031 . S
O627 C631 1.269 . S
O628 Zn625 1.986 . S
O628 C635 1.262 . S
O629 Zn624 2.049 . S
O629 C637 1.260 . S
O630 Zn625 1.996 . S
O630 C637 1.257 . S
C631 O626 1.254 . S
C631 O627 1.269 . S
C632 O633 1.249 . S
C632 O634 1.270 . S
O633 Zn625 1.943 . S
O633 C632 1.249 . S
O634 Zn624 2.067 . S
O634 C632 1.270 . S
C635 O628 1.262 . S
C635 O636 1.232 . S
O636 C635 1.232 . S
C637 O629 1.260 . S
C637 O630 1.257 . S
Zn638 O641 2.031 1_655 S
Zn638 O643 2.049 . S
Zn638 O648 2.067 1_655 S
Zn639 O640 1.962 . S
Zn639 O642 1.986 . S
Zn639 O644 1.996 . S
Zn639 O647 1.943 1_655 S
O640 Zn639 1.962 . S
O640 C645 1.254 . S
O641 Zn638 2.031 1_455 S
O641 C645 1.269 1_455 S
O642 Zn639 1.986 . S
O642 C649 1.262 . S
O643 Zn638 2.049 . S
O643 C651 1.260 . S
O644 Zn639 1.996 . S
O644 C651 1.257 . S
C645 O640 1.254 . S
C645 O641 1.269 1_655 S
C646 O647 1.249 . S
C646 O648 1.270 . S
O647 Zn639 1.943 1_455 S
O647 C646 1.249 . S
O648 Zn638 2.067 1_455 S
O648 C646 1.270 . S
C649 O642 1.262 . S
C649 O650 1.232 . S
O650 C649 1.232 . S
C651 O643 1.260 . S
C651 O644 1.257 . S
Zn652 O655 2.031 . S
Zn652 O657 2.049 . S
Zn652 O662 2.067 . S
Zn653 O654 1.962 . S
Zn653 O656 1.986 . S
Zn653 O658 1.996 . S
Zn653 O661 1.943 . S
O654 Zn653 1.962 . S
O654 C659 1.254 . S
O655 Zn652 2.031 . S
O655 C659 1.269 . S
O656 Zn653 1.986 . S
O656 C663 1.262 . S
O657 Zn652 2.049 . S
O657 C665 1.260 . S
O658 Zn653 1.996 . S
O658 C665 1.257 . S
C659 O654 1.254 . S
C659 O655 1.269 . S
C660 O661 1.249 . S
C660 O662 1.270 . S
O661 Zn653 1.943 . S
O661 C660 1.249 . S
O662 Zn652 2.067 . S
O662 C660 1.270 . S
C663 O656 1.262 . S
C663 O664 1.232 . S
O664 C663 1.232 . S
C665 O657 1.260 . S
C665 O658 1.257 . S
C666 C667 1.369 . S
C666 C668 1.419 . S
C666 H670 0.930 1_455 S
C667 C666 1.369 . S
C667 C676 1.429 . S
C668 C666 1.419 . S
C668 C669 1.363 . S
C668 H671 0.929 1_455 S
C669 C668 1.363 . S
C669 C675 1.428 . S
H670 C666 0.930 1_655 S
H671 C668 0.929 1_655 S
S672 N673 1.613 . S
S672 N674 1.610 . S
N673 S672 1.613 . S
N673 C676 1.350 . S
N674 S672 1.610 . S
N674 C675 1.351 . S
C675 C669 1.428 . S
C675 N674 1.351 . S
C675 C676 1.434 . S
C676 C667 1.429 . S
C676 N673 1.350 . S
C676 C675 1.434 . S
C677 C678 1.369 . S
C677 C679 1.419 . S
C677 H681 0.915 1_554 S
C678 C677 1.369 . S
C678 C687 1.429 . S
C679 C677 1.419 . S
C679 C680 1.363 . S
C679 H682 0.929 . S
C680 C679 1.363 . S
C680 C686 1.428 . S
H681 C677 0.915 1_556 S
H682 C679 0.929 . S
S683 N684 1.613 . S
S683 N685 1.610 . S
N684 S683 1.613 . S
N684 C687 1.350 . S
N685 S683 1.610 . S
N685 C686 1.351 . S
C686 C680 1.428 . S
C686 N685 1.351 . S
C686 C687 1.434 . S
C687 C678 1.429 . S
C687 N684 1.350 . S
C687 C686 1.434 . S
C688 C689 1.369 . S
C688 C690 1.419 . S
C688 H692 0.930 . S
C689 C688 1.369 . S
C689 C698 1.429 . S
C690 C688 1.419 . S
C690 C691 1.363 . S
C690 H693 0.926 1_545 S
C691 C690 1.363 . S
C691 C697 1.428 . S
H692 C688 0.930 . S
H693 C690 0.926 1_565 S
S694 N695 1.613 . S
S694 N696 1.610 . S
N695 S694 1.613 . S
N695 C698 1.350 . S
N696 S694 1.610 . S
N696 C697 1.351 . S
C697 C691 1.428 . S
C697 N696 1.351 . S
C697 C698 1.434 . S
C698 C689 1.429 . S
C698 N695 1.350 . S
C698 C697 1.434 . S
C699 C700 1.369 . S
C699 C701 1.419 . S
C699 H703 0.930 . S
C700 C699 1.369 . S
C700 C709 1.429 . S
C701 C699 1.419 . S
C701 C702 1.363 . S
C701 H704 0.929 . S
C702 C701 1.363 . S
C702 C708 1.428 . S
H703 C699 0.930 . S
H704 C701 0.929 . S
S705 N706 1.613 . S
S705 N707 1.610 . S
N706 S705 1.613 . S
N706 C709 1.350 . S
N707 S705 1.610 . S
N707 C708 1.351 . S
C708 C702 1.428 . S
C708 N707 1.351 . S
C708 C709 1.434 . S
C709 C700 1.429 . S
C709 N706 1.350 . S
C709 C708 1.434 . S
C710 C711 1.369 . S
C710 C712 1.419 . S
C710 H714 0.930 . S
C711 C710 1.369 . S
C711 C720 1.429 . S
C712 C710 1.419 . S
C712 C713 1.363 . S
C712 H715 0.929 . S
C713 C712 1.363 . S
C713 C719 1.428 1_455 S
H714 C710 0.930 . S
H715 C712 0.929 . S
S716 N717 1.613 . S
S716 N718 1.610 . S
N717 S716 1.613 . S
N717 C720 1.350 1_655 S
N718 S716 1.610 . S
N718 C719 1.351 . S
C719 C713 1.428 1_655 S
C719 N718 1.351 . S
C719 C720 1.434 1_655 S
C720 C711 1.429 . S
C720 N717 1.350 1_455 S
C720 C719 1.434 1_455 S
C721 C722 1.369 . S
C721 C723 1.419 . S
C721 H725 0.930 . S
C722 C721 1.369 . S
C722 C731 1.429 . S
C723 C721 1.419 . S
C723 C724 1.363 . S
C723 H726 0.929 . S
C724 C723 1.363 . S
C724 C730 1.428 . S
H725 C721 0.930 . S
H726 C723 0.929 . S
S727 N728 1.613 . S
S727 N729 1.610 . S
N728 S727 1.613 . S
N728 C731 1.350 . S
N729 S727 1.610 . S
N729 C730 1.351 . S
C730 C724 1.428 . S
C730 N729 1.351 . S
C730 C731 1.434 . S
C731 C722 1.429 . S
C731 N728 1.350 . S
C731 C730 1.434 . S
C732 C733 1.369 1_655 S
C732 C734 1.419 . S
C732 H736 0.930 . S
C733 C732 1.369 1_455 S
C733 C742 1.429 . S
C734 C732 1.419 . S
C734 C735 1.363 1_655 S
C734 H737 0.929 . S
C735 C734 1.363 1_455 S
C735 C741 1.428 . S
H736 C732 0.930 . S
H737 C734 0.929 . S
S738 N739 1.613 . S
S738 N740 1.610 . S
N739 S738 1.613 . S
N739 C742 1.350 . S
N740 S738 1.610 . S
N740 C741 1.351 . S
C741 C735 1.428 . S
C741 N740 1.351 . S
C741 C742 1.434 . S
C742 C733 1.429 . S
C742 N739 1.350 . S
C742 C741 1.434 . S
C743 C744 1.369 1_554 S
C743 C745 1.419 1_554 S
C743 H747 0.930 . S
C744 C743 1.369 1_556 S
C744 C753 1.429 . S
C745 C743 1.419 1_556 S
C745 C746 1.363 . S
C745 H748 0.929 1_556 S
C746 C745 1.363 . S
C746 C752 1.428 . S
H747 C743 0.930 . S
H748 C745 0.929 1_554 S
S749 N750 1.613 . S
S749 N751 1.610 . S
N750 S749 1.613 . S
N750 C753 1.350 . S
N751 S749 1.610 . S
N751 C752 1.351 . S
C752 C746 1.428 . S
C752 N751 1.351 . S
C752 C753 1.434 . S
C753 C744 1.429 . S
C753 N750 1.350 . S
C753 C752 1.434 . S
C754 C755 1.369 . S
C754 C756 1.419 . S
C754 H758 0.930 . S
C755 C754 1.369 . S
C755 C764 1.429 1_556 S
C756 C754 1.419 . S
C756 C757 1.363 . S
C756 H759 0.929 . S
C757 C756 1.363 . S
C757 C763 1.428 . S
H758 C754 0.930 . S
H759 C756 0.929 . S
S760 N761 1.613 . S
S760 N762 1.610 . S
N761 S760 1.613 . S
N761 C764 1.350 . S
N762 S760 1.610 . S
N762 C763 1.351 1_554 S
C763 C757 1.428 . S
C763 N762 1.351 1_556 S
C763 C764 1.434 1_556 S
C764 C755 1.429 1_554 S
C764 N761 1.350 . S
C764 C763 1.434 1_554 S
C765 C766 1.369 . S
C765 C767 1.419 . S
C765 H769 0.930 . S
C766 C765 1.369 . S
C766 C775 1.423 1_545 S
C767 C765 1.419 . S
C767 C768 1.363 . S
C767 H770 0.929 . S
C768 C767 1.363 . S
C768 C774 1.428 1_545 S
H769 C765 0.930 . S
H770 C767 0.929 . S
S771 N772 1.613 . S
S771 N773 1.610 . S
N772 S771 1.613 . S
N772 C775 1.346 . S
N773 S771 1.610 . S
N773 C774 1.351 . S
C774 C768 1.428 1_565 S
C774 N773 1.351 . S
C774 C775 1.445 . S
C775 C766 1.423 1_565 S
C775 N772 1.346 . S
C775 C774 1.445 . S
C776 C777 1.369 . S
C776 C778 1.419 . S
C776 H780 0.930 . S
C777 C776 1.369 . S
C777 C786 1.429 . S
C778 C776 1.419 . S
C778 C779 1.363 . S
C778 H781 0.929 . S
C779 C778 1.363 . S
C779 C785 1.428 . S
H780 C776 0.930 . S
H781 C778 0.929 . S
S782 N783 1.613 . S
S782 N784 1.610 . S
N783 S782 1.613 . S
N783 C786 1.350 . S
N784 S782 1.610 . S
N784 C785 1.351 . S
C785 C779 1.428 . S
C785 N784 1.351 . S
C785 C786 1.434 . S
C786 C777 1.429 . S
C786 N783 1.350 . S
C786 C785 1.434 . S
C787 C788 1.369 . S
C787 C789 1.419 . S
C787 H791 0.930 . S
C788 C787 1.369 . S
C788 C797 1.429 . S
C789 C787 1.419 . S
C789 C790 1.363 . S
C789 H792 0.929 . S
C790 C789 1.363 . S
C790 C796 1.428 . S
H791 C787 0.930 . S
H792 C789 0.929 . S
S793 N794 1.613 . S
S793 N795 1.610 . S
N794 S793 1.613 . S
N794 C797 1.350 . S
N795 S793 1.610 . S
N795 C796 1.351 . S
C796 C790 1.428 . S
C796 N795 1.351 . S
C796 C797 1.434 . S
C797 C788 1.429 . S
C797 N794 1.350 . S
C797 C796 1.434 . S
C798 C799 1.369 . S
C798 C800 1.419 . S
C798 H802 0.930 . S
C799 C798 1.369 . S
C799 C808 1.429 . S
C800 C798 1.419 . S
C800 C801 1.363 . S
C800 H803 0.929 . S
C801 C800 1.363 . S
C801 C807 1.428 . S
H802 C798 0.930 . S
H803 C800 0.929 . S
S804 N805 1.613 . S
S804 N806 1.610 . S
N805 S804 1.613 . S
N805 C808 1.350 . S
N806 S804 1.610 . S
N806 C807 1.351 . S
C807 C801 1.428 . S
C807 N806 1.351 . S
C807 C808 1.434 . S
C808 C799 1.429 . S
C808 N805 1.350 . S
C808 C807 1.434 . S
C809 C810 1.369 . S
C809 C811 1.419 1_565 S
C809 H813 0.930 . S
C810 C809 1.369 . S
C810 C819 1.429 1_565 S
C811 C809 1.419 1_545 S
C811 C812 1.363 . S
C811 H814 0.929 . S
C812 C811 1.363 . S
C812 C818 1.428 . S
H813 C809 0.930 . S
H814 C811 0.929 . S
S815 N816 1.613 . S
S815 N817 1.610 . S
N816 S815 1.613 . S
N816 C819 1.350 . S
N817 S815 1.610 . S
N817 C818 1.351 . S
C818 C812 1.428 . S
C818 N817 1.351 . S
C818 C819 1.434 . S
C819 C810 1.429 1_545 S
C819 N816 1.350 . S
C819 C818 1.434 . S
C820 C821 1.369 . S
C820 C822 1.419 . S
C820 H824 0.930 . S
C821 C820 1.369 . S
C821 C830 1.429 . S
C822 C820 1.419 . S
C822 C823 1.363 . S
C822 H825 0.929 . S
C823 C822 1.363 . S
C823 C829 1.428 . S
H824 C820 0.930 . S
H825 C822 0.929 . S
S826 N827 1.613 . S
S826 N828 1.610 . S
N827 S826 1.613 . S
N827 C830 1.350 . S
N828 S826 1.610 . S
N828 C829 1.351 . S
C829 C823 1.428 . S
C829 N828 1.351 . S
C829 C830 1.434 . S
C830 C821 1.429 . S
C830 N827 1.350 . S
C830 C829 1.434 . S
C831 C832 1.369 . S
C831 C833 1.419 . S
C831 H835 0.930 . S
C832 C831 1.369 . S
C832 C841 1.429 . S
C833 C831 1.419 . S
C833 C834 1.363 . S
C833 H836 0.929 . S
C834 C833 1.363 . S
C834 C840 1.428 . S
H835 C831 0.930 . S
H836 C833 0.929 . S
S837 N838 1.613 . S
S837 N839 1.610 . S
N838 S837 1.613 . S
N838 C841 1.350 . S
N839 S837 1.610 . S
N839 C840 1.351 . S
C840 C834 1.428 . S
C840 N839 1.351 . S
C840 C841 1.434 . S
C841 C832 1.429 . S
C841 N838 1.350 . S
C841 C840 1.434 . S
C842 C843 1.369 . S
C842 C844 1.419 . S
C842 H846 0.930 . S
C843 C842 1.369 . S
C843 C852 1.429 . S
C844 C842 1.419 . S
C844 C845 1.363 . S
C844 H847 0.929 . S
C845 C844 1.363 . S
C845 C851 1.428 . S
H846 C842 0.930 . S
H847 C844 0.929 . S
S848 N849 1.613 . S
S848 N850 1.610 . S
N849 S848 1.613 . S
N849 C852 1.350 . S
N850 S848 1.610 . S
N850 C851 1.351 . S
C851 C845 1.428 . S
C851 N850 1.351 . S
C851 C852 1.434 . S
C852 C843 1.429 . S
C852 N849 1.350 . S
C852 C851 1.434 . S
C853 C854 1.369 . S
C853 C855 1.419 . S
C853 H857 0.930 . S
C854 C853 1.369 . S
C854 C863 1.429 . S
C855 C853 1.419 . S
C855 C856 1.363 . S
C855 H858 0.929 . S
C856 C855 1.363 . S
C856 C862 1.428 . S
H857 C853 0.930 . S
H858 C855 0.929 . S
S859 N860 1.613 . S
S859 N861 1.610 . S
N860 S859 1.613 . S
N860 C863 1.350 . S
N861 S859 1.610 . S
N861 C862 1.351 . S
C862 C856 1.428 . S
C862 N861 1.351 . S
C862 C863 1.434 . S
C863 C854 1.429 . S
C863 N860 1.350 . S
C863 C862 1.434 . S
C864 C865 1.369 . S
C864 C866 1.419 1_565 S
C864 H868 0.945 1_565 S
C865 C864 1.369 . S
C865 C874 1.429 . S
C866 C864 1.419 1_545 S
C866 C867 1.363 . S
C866 H869 0.929 . S
C867 C866 1.363 . S
C867 C873 1.428 1_545 S
H868 C864 0.945 1_545 S
H869 C866 0.929 . S
S870 N871 1.613 . S
S870 N872 1.610 . S
N871 S870 1.613 . S
N871 C874 1.350 . S
N872 S870 1.610 . S
N872 C873 1.351 . S
C873 C867 1.428 1_565 S
C873 N872 1.351 . S
C873 C874 1.434 . S
C874 C865 1.429 . S
C874 N871 1.350 . S
C874 C873 1.434 . S
C875 C876 1.369 . S
C875 C877 1.419 . S
C875 H879 0.930 . S
C876 C875 1.369 . S
C876 C885 1.429 . S
C877 C875 1.419 . S
C877 C878 1.363 . S
C877 H880 0.929 . S
C878 C877 1.363 . S
C878 C884 1.428 . S
H879 C875 0.930 . S
H880 C877 0.929 . S
S881 N882 1.613 . S
S881 N883 1.610 . S
N882 S881 1.613 . S
N882 C885 1.350 . S
N883 S881 1.610 . S
N883 C884 1.351 . S
C884 C878 1.428 . S
C884 N883 1.351 . S
C884 C885 1.434 . S
C885 C876 1.429 . S
C885 N882 1.350 . S
C885 C884 1.434 . S
C886 C887 1.369 . S
C886 C888 1.419 . S
C886 H890 0.930 . S
C887 C886 1.369 . S
C887 C896 1.429 . S
C888 C886 1.419 . S
C888 C889 1.363 . S
C888 H891 0.929 . S
C889 C888 1.363 . S
C889 C895 1.428 . S
H890 C886 0.930 . S
H891 C888 0.929 . S
S892 N893 1.613 . S
S892 N894 1.610 . S
N893 S892 1.613 . S
N893 C896 1.350 . S
N894 S892 1.610 . S
N894 C895 1.351 . S
C895 C889 1.428 . S
C895 N894 1.351 . S
C895 C896 1.434 . S
C896 C887 1.429 . S
C896 N893 1.350 . S
C896 C895 1.434 . S
C897 C898 1.369 . S
C897 C899 1.419 . S
C897 H901 0.930 . S
C898 C897 1.369 . S
C898 C907 1.429 . S
C899 C897 1.419 . S
C899 C900 1.363 . S
C899 H902 0.929 . S
C900 C899 1.363 . S
C900 C906 1.428 . S
H901 C897 0.930 . S
H902 C899 0.929 . S
S903 N904 1.613 . S
S903 N905 1.610 . S
N904 S903 1.613 . S
N904 C907 1.350 . S
N905 S903 1.610 . S
N905 C906 1.351 . S
C906 C900 1.428 . S
C906 N905 1.351 . S
C906 C907 1.434 . S
C907 C898 1.429 . S
C907 N904 1.350 . S
C907 C906 1.434 . S
C908 C909 1.369 . S
C908 C910 1.419 1_565 S
C908 H912 0.930 . S
C909 C908 1.369 . S
C909 C918 1.429 1_565 S
C910 C908 1.419 1_545 S
C910 C911 1.363 . S
C910 H913 0.918 . S
C911 C910 1.363 . S
C911 C917 1.428 . S
H912 C908 0.930 . S
H913 C910 0.918 . S
S914 N915 1.613 . S
S914 N916 1.610 . S
N915 S914 1.613 . S
N915 C918 1.350 . S
N916 S914 1.610 . S
N916 C917 1.351 . S
C917 C911 1.428 . S
C917 N916 1.351 . S
C917 C918 1.434 . S
C918 C909 1.429 1_545 S
C918 N915 1.350 . S
C918 C917 1.434 . S
C919 C920 1.369 . S
C919 C921 1.419 . S
C919 H923 0.930 . S
C920 C919 1.369 . S
C920 C929 1.429 . S
C921 C919 1.419 . S
C921 C922 1.363 . S
C921 H924 0.929 . S
C922 C921 1.363 . S
C922 C928 1.428 . S
H923 C919 0.930 . S
H924 C921 0.929 . S
S925 N926 1.613 . S
S925 N927 1.610 . S
N926 S925 1.613 . S
N926 C929 1.350 . S
N927 S925 1.610 . S
N927 C928 1.351 . S
C928 C922 1.428 . S
C928 N927 1.351 . S
C928 C929 1.434 . S
C929 C920 1.429 . S
C929 N926 1.350 . S
C929 C928 1.434 . S
C930 C931 1.369 . S
C930 C932 1.419 . S
C930 H934 0.930 . S
C931 C930 1.369 . S
C931 C940 1.429 . S
C932 C930 1.419 . S
C932 C933 1.363 . S
C932 H935 0.929 . S
C933 C932 1.363 . S
C933 C939 1.428 . S
H934 C930 0.930 . S
H935 C932 0.929 . S
S936 N937 1.613 . S
S936 N938 1.610 . S
N937 S936 1.613 . S
N937 C940 1.350 . S
N938 S936 1.610 . S
N938 C939 1.351 . S
C939 C933 1.428 . S
C939 N938 1.351 . S
C939 C940 1.434 . S
C940 C931 1.429 . S
C940 N937 1.350 . S
C940 C939 1.434 . S
C941 C942 1.369 . S
C941 C943 1.419 . S
C941 H945 0.930 . S
C942 C941 1.369 . S
C942 C951 1.429 . S
C943 C941 1.419 . S
C943 C944 1.363 . S
C943 H946 0.929 . S
C944 C943 1.363 . S
C944 C950 1.428 . S
H945 C941 0.930 . S
H946 C943 0.929 . S
S947 N948 1.613 . S
S947 N949 1.610 . S
N948 S947 1.613 . S
N948 C951 1.350 . S
N949 S947 1.610 . S
N949 C950 1.351 . S
C950 C944 1.428 . S
C950 N949 1.351 . S
C950 C951 1.434 . S
C951 C942 1.429 . S
C951 N948 1.350 . S
C951 C950 1.434 . S
C952 C953 1.369 . S
C952 C954 1.419 . S
C952 H956 0.930 . S
C953 C952 1.369 . S
C953 C962 1.429 . S
C954 C952 1.419 . S
C954 C955 1.363 . S
C954 H957 0.929 . S
C955 C954 1.363 . S
C955 C961 1.428 . S
H956 C952 0.930 . S
H957 C954 0.929 . S
S958 N959 1.613 . S
S958 N960 1.610 . S
N959 S958 1.613 . S
N959 C962 1.350 . S
N960 S958 1.610 . S
N960 C961 1.351 . S
C961 C955 1.428 . S
C961 N960 1.351 . S
C961 C962 1.434 . S
C962 C953 1.429 . S
C962 N959 1.350 . S
C962 C961 1.434 . S
C963 C964 1.369 . S
C963 C965 1.419 . S
C963 H967 0.930 . S
C964 C963 1.369 . S
C964 C973 1.429 . S
C965 C963 1.419 . S
C965 C966 1.363 . S
C965 H968 0.929 . S
C966 C965 1.363 . S
C966 C972 1.428 . S
H967 C963 0.930 . S
H968 C965 0.929 . S
S969 N970 1.613 . S
S969 N971 1.610 . S
N970 S969 1.613 . S
N970 C973 1.350 . S
N971 S969 1.610 . S
N971 C972 1.351 . S
C972 C966 1.428 . S
C972 N971 1.351 . S
C972 C973 1.434 . S
C973 C964 1.429 . S
C973 N970 1.350 . S
C973 C972 1.434 . S
C974 C975 1.369 . S
C974 C976 1.419 . S
C974 H978 0.930 . S
C975 C974 1.369 . S
C975 C984 1.429 . S
C976 C974 1.419 . S
C976 C977 1.363 . S
C976 H979 0.929 . S
C977 C976 1.363 . S
C977 C983 1.428 . S
H978 C974 0.930 . S
H979 C976 0.929 . S
S980 N981 1.613 . S
S980 N982 1.610 . S
N981 S980 1.613 . S
N981 C984 1.350 . S
N982 S980 1.610 . S
N982 C983 1.351 . S
C983 C977 1.428 . S
C983 N982 1.351 . S
C983 C984 1.434 . S
C984 C975 1.429 . S
C984 N981 1.350 . S
C984 C983 1.434 . S
C985 C986 1.369 . S
C985 C987 1.419 . S
C985 H989 0.930 . S
C986 C985 1.369 . S
C986 C995 1.429 . S
C987 C985 1.419 . S
C987 C988 1.363 . S
C987 H990 0.929 . S
C988 C987 1.363 . S
C988 C994 1.428 . S
H989 C985 0.930 . S
H990 C987 0.929 . S
S991 N992 1.613 . S
S991 N993 1.610 . S
N992 S991 1.613 . S
N992 C995 1.350 . S
N993 S991 1.610 . S
N993 C994 1.351 . S
C994 C988 1.428 . S
C994 N993 1.351 . S
C994 C995 1.434 . S
C995 C986 1.429 . S
C995 N992 1.350 . S
C995 C994 1.434 . S
C996 C997 1.369 . S
C996 C998 1.419 . S
C996 H1000 0.930 . S
C997 C996 1.369 . S
C997 C1006 1.429 . S
C998 C996 1.419 . S
C998 C999 1.363 . S
C998 H1001 0.929 . S
C999 C998 1.363 . S
C999 C1005 1.428 . S
H1000 C996 0.930 . S
H1001 C998 0.929 . S
S1002 N1003 1.613 . S
S1002 N1004 1.610 . S
N1003 S1002 1.613 . S
N1003 C1006 1.350 . S
N1004 S1002 1.610 . S
N1004 C1005 1.351 . S
C1005 C999 1.428 . S
C1005 N1004 1.351 . S
C1005 C1006 1.434 . S
C1006 C997 1.429 . S
C1006 N1003 1.350 . S
C1006 C1005 1.434 . S
C1007 C1008 1.369 . S
C1007 C1009 1.419 . S
C1007 H1011 0.930 . S
C1008 C1007 1.369 . S
C1008 C1017 1.429 . S
C1009 C1007 1.419 . S
C1009 C1010 1.363 . S
C1009 H1012 0.929 . S
C1010 C1009 1.363 . S
C1010 C1016 1.428 . S
H1011 C1007 0.930 . S
H1012 C1009 0.929 . S
S1013 N1014 1.613 . S
S1013 N1015 1.610 . S
N1014 S1013 1.613 . S
N1014 C1017 1.350 . S
N1015 S1013 1.610 . S
N1015 C1016 1.351 . S
C1016 C1010 1.428 . S
C1016 N1015 1.351 . S
C1016 C1017 1.434 . S
C1017 C1008 1.429 . S
C1017 N1014 1.350 . S
C1017 C1016 1.434 . S
C1018 C1019 1.369 . S
C1018 C1020 1.419 . S
C1018 H1022 0.930 . S
C1019 C1018 1.369 . S
C1019 C1028 1.429 . S
C1020 C1018 1.419 . S
C1020 C1021 1.363 . S
C1020 H1023 0.929 1_655 S
C1021 C1020 1.363 . S
C1021 C1027 1.428 . S
H1022 C1018 0.930 . S
H1023 C1020 0.929 1_455 S
S1024 N1025 1.613 . S
S1024 N1026 1.610 . S
N1025 S1024 1.613 . S
N1025 C1028 1.350 . S
N1026 S1024 1.610 . S
N1026 C1027 1.351 . S
C1027 C1021 1.428 . S
C1027 N1026 1.351 . S
C1027 C1028 1.434 . S
C1028 C1019 1.429 . S
C1028 N1025 1.350 . S
C1028 C1027 1.434 . S
C1029 C1030 1.369 . S
C1029 C1031 1.419 . S
C1029 H1033 0.930 . S
C1030 C1029 1.369 . S
C1030 C1039 1.429 . S
C1031 C1029 1.419 . S
C1031 C1032 1.363 . S
C1031 H1034 0.929 . S
C1032 C1031 1.363 . S
C1032 C1038 1.428 . S
H1033 C1029 0.930 . S
H1034 C1031 0.929 . S
S1035 N1036 1.613 . S
S1035 N1037 1.610 . S
N1036 S1035 1.613 . S
N1036 C1039 1.350 . S
N1037 S1035 1.610 . S
N1037 C1038 1.351 . S
C1038 C1032 1.428 . S
C1038 N1037 1.351 . S
C1038 C1039 1.434 . S
C1039 C1030 1.429 . S
C1039 N1036 1.350 . S
C1039 C1038 1.434 . S
C1040 C1041 1.369 . S
C1040 C1042 1.419 . S
C1040 H1044 0.930 . S
C1041 C1040 1.369 . S
C1041 C1050 1.429 . S
C1042 C1040 1.419 . S
C1042 C1043 1.363 . S
C1042 H1045 0.929 . S
C1043 C1042 1.363 . S
C1043 C1049 1.428 . S
H1044 C1040 0.930 . S
H1045 C1042 0.929 . S
S1046 N1047 1.613 . S
S1046 N1048 1.610 . S
N1047 S1046 1.613 . S
N1047 C1050 1.350 . S
N1048 S1046 1.610 . S
N1048 C1049 1.351 . S
C1049 C1043 1.428 . S
C1049 N1048 1.351 . S
C1049 C1050 1.434 . S
C1050 C1041 1.429 . S
C1050 N1047 1.350 . S
C1050 C1049 1.434 . S
C1051 C1052 1.369 . S
C1051 C1053 1.419 . S
C1051 H1055 0.930 . S
C1052 C1051 1.369 . S
C1052 C1061 1.429 . S
C1053 C1051 1.419 . S
C1053 C1054 1.363 . S
C1053 H1056 0.929 . S
C1054 C1053 1.363 . S
C1054 C1060 1.428 . S
H1055 C1051 0.930 . S
H1056 C1053 0.929 . S
S1057 N1058 1.613 . S
S1057 N1059 1.610 . S
N1058 S1057 1.613 . S
N1058 C1061 1.350 . S
N1059 S1057 1.610 . S
N1059 C1060 1.351 . S
C1060 C1054 1.428 . S
C1060 N1059 1.351 . S
C1060 C1061 1.434 . S
C1061 C1052 1.429 . S
C1061 N1058 1.350 . S
C1061 C1060 1.434 . S
C1062 C1063 1.369 . S
C1062 C1064 1.419 . S
C1062 H1066 0.930 . S
C1063 C1062 1.369 . S
C1063 C1072 1.429 . S
C1064 C1062 1.419 . S
C1064 C1065 1.363 . S
C1064 H1067 0.929 . S
C1065 C1064 1.363 . S
C1065 C1071 1.428 . S
H1066 C1062 0.930 . S
H1067 C1064 0.929 . S
S1068 N1069 1.613 . S
S1068 N1070 1.610 . S
N1069 S1068 1.613 . S
N1069 C1072 1.350 . S
N1070 S1068 1.610 . S
N1070 C1071 1.351 . S
C1071 C1065 1.428 . S
C1071 N1070 1.351 . S
C1071 C1072 1.434 . S
C1072 C1063 1.429 . S
C1072 N1069 1.350 . S
C1072 C1071 1.434 . S
C1073 C1074 1.369 . S
C1073 C1075 1.419 . S
C1073 H1077 0.930 . S
C1074 C1073 1.369 . S
C1074 C1083 1.429 . S
C1075 C1073 1.419 . S
C1075 C1076 1.363 . S
C1075 H1078 0.929 . S
C1076 C1075 1.363 . S
C1076 C1082 1.428 . S
H1077 C1073 0.930 . S
H1078 C1075 0.929 . S
S1079 N1080 1.613 . S
S1079 N1081 1.610 . S
N1080 S1079 1.613 . S
N1080 C1083 1.350 . S
N1081 S1079 1.610 . S
N1081 C1082 1.351 . S
C1082 C1076 1.428 . S
C1082 N1081 1.351 . S
C1082 C1083 1.434 . S
C1083 C1074 1.429 . S
C1083 N1080 1.350 . S
C1083 C1082 1.434 . S
C1084 C1085 1.369 . S
C1084 C1086 1.419 . S
C1084 H1088 0.930 . S
C1085 C1084 1.369 . S
C1085 C1094 1.429 . S
C1086 C1084 1.419 . S
C1086 C1087 1.363 . S
C1086 H1089 0.929 . S
C1087 C1086 1.363 . S
C1087 C1093 1.428 . S
H1088 C1084 0.930 . S
H1089 C1086 0.929 . S
S1090 N1091 1.613 . S
S1090 N1092 1.610 . S
N1091 S1090 1.613 . S
N1091 C1094 1.350 1_565 S
N1092 S1090 1.610 . S
N1092 C1093 1.351 1_565 S
C1093 C1087 1.428 . S
C1093 N1092 1.351 1_545 S
C1093 C1094 1.434 . S
C1094 C1085 1.429 . S
C1094 N1091 1.350 1_545 S
C1094 C1093 1.434 . S
C1095 C1096 1.369 . S
C1095 C1097 1.419 . S
C1095 H1099 0.930 . S
C1096 C1095 1.369 . S
C1096 C1105 1.429 . S
C1097 C1095 1.419 . S
C1097 C1098 1.363 . S
C1097 H1100 0.929 1_545 S
C1098 C1097 1.363 . S
C1098 C1104 1.428 . S
H1099 C1095 0.930 . S
H1100 C1097 0.929 1_565 S
S1101 N1102 1.613 . S
S1101 N1103 1.610 . S
N1102 S1101 1.613 . S
N1102 C1105 1.350 . S
N1103 S1101 1.610 . S
N1103 C1104 1.351 . S
C1104 C1098 1.428 . S
C1104 N1103 1.351 . S
C1104 C1105 1.434 . S
C1105 C1096 1.429 . S
C1105 N1102 1.350 . S
C1105 C1104 1.434 . S
C1106 C1107 1.369 . S
C1106 C1108 1.419 . S
C1106 H1110 0.930 . S
C1107 C1106 1.369 . S
C1107 C1116 1.429 . S
C1108 C1106 1.419 . S
C1108 C1109 1.363 . S
C1108 H1111 0.929 . S
C1109 C1108 1.363 . S
C1109 C1115 1.428 . S
H1110 C1106 0.930 . S
H1111 C1108 0.929 . S
S1112 N1113 1.613 . S
S1112 N1114 1.610 . S
N1113 S1112 1.613 . S
N1113 C1116 1.350 1_655 S
N1114 S1112 1.610 . S
N1114 C1115 1.351 1_655 S
C1115 C1109 1.428 . S
C1115 N1114 1.351 1_455 S
C1115 C1116 1.434 . S
C1116 C1107 1.429 . S
C1116 N1113 1.350 1_455 S
C1116 C1115 1.434 . S
C1117 C1118 1.369 . S
C1117 C1119 1.419 . S
C1117 H1121 0.930 . S
C1118 C1117 1.369 . S
C1118 C1127 1.429 . S
C1119 C1117 1.419 . S
C1119 C1120 1.363 . S
C1119 H1122 0.929 . S
C1120 C1119 1.363 . S
C1120 C1126 1.428 . S
H1121 C1117 0.930 . S
H1122 C1119 0.929 . S
S1123 N1124 1.613 . S
S1123 N1125 1.610 . S
N1124 S1123 1.613 . S
N1124 C1127 1.350 . S
N1125 S1123 1.610 . S
N1125 C1126 1.351 . S
C1126 C1120 1.428 . S
C1126 N1125 1.351 . S
C1126 C1127 1.434 . S
C1127 C1118 1.429 . S
C1127 N1124 1.350 . S
C1127 C1126 1.434 . S
C1128 C1129 1.369 . S
C1128 C1130 1.419 . S
C1128 H1132 0.930 . S
C1129 C1128 1.369 . S
C1129 C1138 1.429 . S
C1130 C1128 1.419 . S
C1130 C1131 1.363 . S
C1130 H1133 0.929 . S
C1131 C1130 1.363 . S
C1131 C1137 1.428 . S
H1132 C1128 0.930 . S
H1133 C1130 0.929 . S
S1134 N1135 1.613 . S
S1134 N1136 1.610 . S
N1135 S1134 1.613 . S
N1135 C1138 1.350 1_655 S
N1136 S1134 1.610 . S
N1136 C1137 1.351 1_655 S
C1137 C1131 1.428 . S
C1137 N1136 1.351 1_455 S
C1137 C1138 1.434 . S
C1138 C1129 1.429 . S
C1138 N1135 1.350 1_455 S
C1138 C1137 1.434 . S
C1139 C1140 1.369 . S
C1139 C1141 1.419 . S
C1139 H1143 0.930 . S
C1140 C1139 1.369 . S
C1140 C1149 1.429 . S
C1141 C1139 1.419 . S
C1141 C1142 1.363 . S
C1141 H1144 0.929 . S
C1142 C1141 1.363 . S
C1142 C1148 1.428 . S
H1143 C1139 0.930 . S
H1144 C1141 0.929 . S
S1145 N1146 1.613 . S
S1145 N1147 1.610 . S
N1146 S1145 1.613 . S
N1146 C1149 1.350 . S
N1147 S1145 1.610 . S
N1147 C1148 1.351 . S
C1148 C1142 1.428 . S
C1148 N1147 1.351 . S
C1148 C1149 1.434 . S
C1149 C1140 1.429 . S
C1149 N1146 1.350 . S
C1149 C1148 1.434 . S
C1150 C1151 1.369 . S
C1150 C1152 1.419 . S
C1150 H1154 0.930 . S
C1151 C1150 1.369 . S
C1151 C1160 1.429 . S
C1152 C1150 1.419 . S
C1152 C1153 1.363 . S
C1152 H1155 0.929 . S
C1153 C1152 1.363 . S
C1153 C1159 1.428 . S
H1154 C1150 0.930 . S
H1155 C1152 0.929 . S
S1156 N1157 1.613 . S
S1156 N1158 1.610 . S
N1157 S1156 1.613 . S
N1157 C1160 1.350 . S
N1158 S1156 1.610 . S
N1158 C1159 1.351 . S
C1159 C1153 1.428 . S
C1159 N1158 1.351 . S
C1159 C1160 1.434 . S
C1160 C1151 1.429 . S
C1160 N1157 1.350 . S
C1160 C1159 1.434 . S
C1161 C1162 1.369 . S
C1161 C1163 1.419 . S
C1161 H1165 0.930 . S
C1162 C1161 1.369 . S
C1162 C1171 1.429 . S
C1163 C1161 1.419 . S
C1163 C1164 1.363 . S
C1163 H1166 0.929 . S
C1164 C1163 1.363 . S
C1164 C1170 1.428 . S
H1165 C1161 0.930 . S
H1166 C1163 0.929 . S
S1167 N1168 1.613 . S
S1167 N1169 1.610 . S
N1168 S1167 1.613 . S
N1168 C1171 1.350 . S
N1169 S1167 1.610 . S
N1169 C1170 1.351 . S
C1170 C1164 1.428 . S
C1170 N1169 1.351 . S
C1170 C1171 1.434 . S
C1171 C1162 1.429 . S
C1171 N1168 1.350 . S
C1171 C1170 1.434 . S
C1172 C1173 1.369 . S
C1172 C1174 1.419 1_455 S
C1172 H1176 0.930 1_455 S
C1173 C1172 1.369 . S
C1173 C1182 1.429 . S
C1174 C1172 1.419 1_655 S
C1174 C1175 1.363 1_655 S
C1174 H1177 0.929 . S
C1175 C1174 1.363 1_455 S
C1175 C1181 1.428 . S
H1176 C1172 0.930 1_655 S
H1177 C1174 0.929 . S
S1178 N1179 1.613 . S
S1178 N1180 1.610 . S
N1179 S1178 1.613 . S
N1179 C1182 1.350 . S
N1180 S1178 1.610 . S
N1180 C1181 1.351 . S
C1181 C1175 1.428 . S
C1181 N1180 1.351 . S
C1181 C1182 1.434 . S
C1182 C1173 1.429 . S
C1182 N1179 1.350 . S
C1182 C1181 1.434 . S
C1183 C1184 1.369 . S
C1183 C1185 1.419 . S
C1183 H1187 0.930 . S
C1184 C1183 1.369 . S
C1184 C1193 1.429 . S
C1185 C1183 1.419 . S
C1185 C1186 1.363 . S
C1185 H1188 0.929 . S
C1186 C1185 1.363 . S
C1186 C1192 1.428 . S
H1187 C1183 0.930 . S
H1188 C1185 0.929 . S
S1189 N1190 1.613 . S
S1189 N1191 1.610 . S
N1190 S1189 1.613 . S
N1190 C1193 1.350 . S
N1191 S1189 1.610 . S
N1191 C1192 1.351 . S
C1192 C1186 1.428 . S
C1192 N1191 1.351 . S
C1192 C1193 1.434 . S
C1193 C1184 1.429 . S
C1193 N1190 1.350 . S
C1193 C1192 1.434 . S
C1194 C1195 1.369 . S
C1194 C1196 1.419 . S
C1194 H1198 0.930 . S
C1195 C1194 1.369 . S
C1195 C1204 1.429 . S
C1196 C1194 1.419 . S
C1196 C1197 1.363 . S
C1196 H1199 0.929 . S
C1197 C1196 1.363 . S
C1197 C1203 1.428 . S
H1198 C1194 0.930 . S
H1199 C1196 0.929 . S
S1200 N1201 1.613 . S
S1200 N1202 1.610 . S
N1201 S1200 1.613 . S
N1201 C1204 1.350 . S
N1202 S1200 1.610 . S
N1202 C1203 1.351 . S
C1203 C1197 1.428 . S
C1203 N1202 1.351 . S
C1203 C1204 1.434 . S
C1204 C1195 1.429 . S
C1204 N1201 1.350 . S
C1204 C1203 1.434 . S
C1205 C1206 1.369 . S
C1205 C1207 1.419 . S
C1205 H1209 0.930 . S
C1206 C1205 1.369 . S
C1206 C1215 1.429 . S
C1207 C1205 1.419 . S
C1207 C1208 1.363 . S
C1207 H1210 0.929 . S
C1208 C1207 1.363 . S
C1208 C1214 1.428 . S
H1209 C1205 0.930 . S
H1210 C1207 0.929 . S
S1211 N1212 1.613 . S
S1211 N1213 1.610 . S
N1212 S1211 1.613 . S
N1212 C1215 1.350 . S
N1213 S1211 1.610 . S
N1213 C1214 1.351 . S
C1214 C1208 1.428 . S
C1214 N1213 1.351 . S
C1214 C1215 1.434 . S
C1215 C1206 1.429 . S
C1215 N1212 1.350 . S
C1215 C1214 1.434 . S
C1216 C1217 1.369 . S
C1216 C1218 1.419 . S
C1216 H1220 0.930 . S
C1217 C1216 1.369 . S
C1217 C1226 1.429 . S
C1218 C1216 1.419 . S
C1218 C1219 1.363 . S
C1218 H1221 0.929 . S
C1219 C1218 1.363 . S
C1219 C1225 1.428 . S
H1220 C1216 0.930 . S
H1221 C1218 0.929 . S
S1222 N1223 1.613 . S
S1222 N1224 1.610 . S
N1223 S1222 1.613 . S
N1223 C1226 1.350 . S
N1224 S1222 1.610 . S
N1224 C1225 1.351 . S
C1225 C1219 1.428 . S
C1225 N1224 1.351 . S
C1225 C1226 1.434 . S
C1226 C1217 1.429 . S
C1226 N1223 1.350 . S
C1226 C1225 1.434 . S
C1227 C1228 1.369 . S
C1227 C1229 1.419 . S
C1227 H1231 0.930 . S
C1228 C1227 1.369 . S
C1228 C1237 1.429 . S
C1229 C1227 1.419 . S
C1229 C1230 1.363 1_556 S
C1229 H1232 0.929 . S
C1230 C1229 1.363 1_554 S
C1230 C1236 1.428 . S
H1231 C1227 0.930 . S
H1232 C1229 0.929 . S
S1233 N1234 1.609 1_554 S
S1233 N1235 1.610 . S
N1234 S1233 1.609 1_556 S
N1234 C1237 1.351 . S
N1235 S1233 1.610 . S
N1235 C1236 1.351 . S
C1236 C1230 1.428 . S
C1236 N1235 1.351 . S
C1236 C1237 1.434 1_554 S
C1237 C1228 1.429 . S
C1237 N1234 1.351 . S
C1237 C1236 1.434 1_556 S
C1238 C1239 1.369 . S
C1238 C1240 1.419 . S
C1238 H1242 0.930 . S
C1239 C1238 1.369 . S
C1239 C1248 1.429 . S
C1240 C1238 1.419 . S
C1240 C1241 1.363 . S
C1240 H1243 0.929 . S
C1241 C1240 1.363 . S
C1241 C1247 1.428 . S
H1242 C1238 0.930 . S
H1243 C1240 0.929 . S
S1244 N1245 1.613 . S
S1244 N1246 1.610 . S
N1245 S1244 1.613 . S
N1245 C1248 1.350 . S
N1246 S1244 1.610 . S
N1246 C1247 1.351 . S
C1247 C1241 1.428 . S
C1247 N1246 1.351 . S
C1247 C1248 1.434 . S
C1248 C1239 1.429 . S
C1248 N1245 1.350 . S
C1248 C1247 1.434 . S
C1249 C1250 1.369 . S
C1249 C1251 1.419 1_556 S
C1249 H1253 0.930 . S
C1250 C1249 1.369 . S
C1250 C1259 1.429 . S
C1251 C1249 1.419 1_554 S
C1251 C1252 1.363 . S
C1251 H1254 0.929 . S
C1252 C1251 1.363 . S
C1252 C1258 1.428 . S
H1253 C1249 0.930 . S
H1254 C1251 0.929 . S
S1255 N1256 1.613 1_554 S
S1255 N1257 1.610 . S
N1256 S1255 1.613 1_556 S
N1256 C1259 1.350 . S
N1257 S1255 1.610 . S
N1257 C1258 1.351 . S
C1258 C1252 1.428 . S
C1258 N1257 1.351 . S
C1258 C1259 1.434 1_554 S
C1259 C1250 1.429 . S
C1259 N1256 1.350 . S
C1259 C1258 1.434 1_556 S
C1260 C1261 1.369 . S
C1260 C1262 1.419 . S
C1260 H1264 0.930 . S
C1261 C1260 1.369 . S
C1261 C1270 1.429 . S
C1262 C1260 1.419 . S
C1262 C1263 1.363 . S
C1262 H1265 0.929 . S
C1263 C1262 1.363 . S
C1263 C1269 1.428 . S
H1264 C1260 0.930 . S
H1265 C1262 0.929 . S
S1266 N1267 1.613 1_545 S
S1266 N1268 1.610 . S
N1267 S1266 1.613 1_565 S
N1267 C1270 1.350 . S
N1268 S1266 1.610 . S
N1268 C1269 1.351 1_545 S
C1269 C1263 1.428 . S
C1269 N1268 1.351 1_565 S
C1269 C1270 1.434 . S
C1270 C1261 1.429 . S
C1270 N1267 1.350 . S
C1270 C1269 1.434 . S
C1271 C1272 1.369 . S
C1271 C1273 1.419 . S
C1271 H1275 0.930 . S
C1272 C1271 1.369 . S
C1272 C1281 1.429 . S
C1273 C1271 1.419 . S
C1273 C1274 1.363 . S
C1273 H1276 0.929 . S
C1274 C1273 1.363 . S
C1274 C1280 1.428 . S
H1275 C1271 0.930 . S
H1276 C1273 0.929 . S
S1277 N1278 1.613 . S
S1277 N1279 1.610 . S
N1278 S1277 1.613 . S
N1278 C1281 1.350 . S
N1279 S1277 1.610 . S
N1279 C1280 1.351 . S
C1280 C1274 1.428 . S
C1280 N1279 1.351 . S
C1280 C1281 1.434 . S
C1281 C1272 1.429 . S
C1281 N1278 1.350 . S
C1281 C1280 1.434 . S
C1282 C1283 1.369 . S
C1282 C1284 1.419 . S
C1282 H1286 0.930 . S
C1283 C1282 1.369 . S
C1283 C1292 1.429 . S
C1284 C1282 1.419 . S
C1284 C1285 1.363 . S
C1284 H1287 0.929 . S
C1285 C1284 1.363 . S
C1285 C1291 1.428 . S
H1286 C1282 0.930 . S
H1287 C1284 0.929 . S
S1288 N1289 1.613 . S
S1288 N1290 1.610 . S
N1289 S1288 1.613 . S
N1289 C1292 1.350 . S
N1290 S1288 1.610 . S
N1290 C1291 1.351 . S
C1291 C1285 1.428 . S
C1291 N1290 1.351 . S
C1291 C1292 1.434 . S
C1292 C1283 1.429 . S
C1292 N1289 1.350 . S
C1292 C1291 1.434 . S
C1293 C1294 1.369 . S
C1293 C1295 1.419 . S
C1293 H1297 0.930 . S
C1294 C1293 1.369 . S
C1294 C1303 1.429 . S
C1295 C1293 1.419 . S
C1295 C1296 1.363 . S
C1295 H1298 0.929 . S
C1296 C1295 1.363 . S
C1296 C1302 1.428 . S
H1297 C1293 0.930 . S
H1298 C1295 0.929 . S
S1299 N1300 1.613 . S
S1299 N1301 1.610 . S
N1300 S1299 1.613 . S
N1300 C1303 1.350 . S
N1301 S1299 1.610 . S
N1301 C1302 1.351 . S
C1302 C1296 1.428 . S
C1302 N1301 1.351 . S
C1302 C1303 1.434 . S
C1303 C1294 1.429 . S
C1303 N1300 1.350 . S
C1303 C1302 1.434 . S
C1304 C1305 1.369 . S
C1304 C1306 1.419 . S
C1304 H1308 0.930 . S
C1305 C1304 1.369 . S
C1305 C1314 1.429 . S
C1306 C1304 1.419 . S
C1306 C1307 1.363 . S
C1306 H1309 0.929 . S
C1307 C1306 1.363 . S
C1307 C1313 1.428 . S
H1308 C1304 0.930 . S
H1309 C1306 0.929 . S
S1310 N1311 1.613 . S
S1310 N1312 1.610 . S
N1311 S1310 1.613 . S
N1311 C1314 1.350 . S
N1312 S1310 1.610 . S
N1312 C1313 1.351 . S
C1313 C1307 1.428 . S
C1313 N1312 1.351 . S
C1313 C1314 1.434 . S
C1314 C1305 1.429 . S
C1314 N1311 1.350 . S
C1314 C1313 1.434 . S
C1315 C1316 1.369 . S
C1315 C1317 1.419 . S
C1315 H1319 0.930 . S
C1316 C1315 1.369 . S
C1316 C1325 1.429 . S
C1317 C1315 1.419 . S
C1317 C1318 1.363 . S
C1317 H1320 0.929 . S
C1318 C1317 1.363 . S
C1318 C1324 1.428 . S
H1319 C1315 0.930 . S
H1320 C1317 0.929 . S
S1321 N1322 1.613 . S
S1321 N1323 1.610 . S
N1322 S1321 1.613 . S
N1322 C1325 1.350 . S
N1323 S1321 1.610 . S
N1323 C1324 1.351 . S
C1324 C1318 1.428 . S
C1324 N1323 1.351 . S
C1324 C1325 1.434 . S
C1325 C1316 1.429 . S
C1325 N1322 1.350 . S
C1325 C1324 1.434 . S
C1326 C1327 1.369 . S
C1326 C1328 1.419 . S
C1326 H1330 0.930 . S
C1327 C1326 1.369 . S
C1327 C1336 1.429 . S
C1328 C1326 1.419 . S
C1328 C1329 1.363 . S
C1328 H1331 0.929 . S
C1329 C1328 1.363 . S
C1329 C1335 1.428 . S
H1330 C1326 0.930 . S
H1331 C1328 0.929 . S
S1332 N1333 1.613 . S
S1332 N1334 1.610 . S
N1333 S1332 1.613 . S
N1333 C1336 1.350 . S
N1334 S1332 1.610 . S
N1334 C1335 1.351 . S
C1335 C1329 1.428 . S
C1335 N1334 1.351 . S
C1335 C1336 1.434 . S
C1336 C1327 1.429 . S
C1336 N1333 1.350 . S
C1336 C1335 1.434 . S
C1337 C1338 1.369 . S
C1337 C1339 1.419 . S
C1337 H1341 0.930 . S
C1338 C1337 1.369 . S
C1338 C1347 1.429 . S
C1339 C1337 1.419 . S
C1339 C1340 1.363 . S
C1339 H1342 0.929 . S
C1340 C1339 1.363 . S
C1340 C1346 1.428 . S
H1341 C1337 0.930 . S
H1342 C1339 0.929 . S
S1343 N1344 1.613 . S
S1343 N1345 1.610 . S
N1344 S1343 1.613 . S
N1344 C1347 1.350 . S
N1345 S1343 1.610 . S
N1345 C1346 1.351 . S
C1346 C1340 1.428 . S
C1346 N1345 1.351 . S
C1346 C1347 1.434 . S
C1347 C1338 1.429 . S
C1347 N1344 1.350 . S
C1347 C1346 1.434 . S
C1348 C1349 1.369 . S
C1348 C1350 1.419 . S
C1348 H1352 0.930 . S
C1349 C1348 1.369 . S
C1349 C1358 1.429 . S
C1350 C1348 1.419 . S
C1350 C1351 1.363 . S
C1350 H1353 0.929 . S
C1351 C1350 1.363 . S
C1351 C1357 1.428 . S
H1352 C1348 0.930 . S
H1353 C1350 0.929 . S
S1354 N1355 1.613 . S
S1354 N1356 1.610 . S
N1355 S1354 1.613 . S
N1355 C1358 1.350 . S
N1356 S1354 1.610 . S
N1356 C1357 1.351 . S
C1357 C1351 1.428 . S
C1357 N1356 1.351 . S
C1357 C1358 1.434 . S
C1358 C1349 1.429 . S
C1358 N1355 1.350 . S
C1358 C1357 1.434 . S
C1359 C1360 1.369 . S
C1359 C1361 1.419 . S
C1359 H1363 0.930 . S
C1360 C1359 1.369 . S
C1360 C1369 1.429 . S
C1361 C1359 1.419 . S
C1361 C1362 1.363 . S
C1361 H1364 0.929 . S
C1362 C1361 1.363 . S
C1362 C1368 1.428 . S
H1363 C1359 0.930 . S
H1364 C1361 0.929 . S
S1365 N1366 1.613 . S
S1365 N1367 1.610 . S
N1366 S1365 1.613 . S
N1366 C1369 1.350 . S
N1367 S1365 1.610 . S
N1367 C1368 1.351 . S
C1368 C1362 1.428 . S
C1368 N1367 1.351 . S
C1368 C1369 1.434 . S
C1369 C1360 1.429 . S
C1369 N1366 1.350 . S
C1369 C1368 1.434 . S
C1370 C1371 1.369 . S
C1370 C1372 1.419 . S
C1370 H1374 0.930 . S
C1371 C1370 1.369 . S
C1371 C1380 1.429 . S
C1372 C1370 1.419 . S
C1372 C1373 1.363 . S
C1372 H1375 0.929 . S
C1373 C1372 1.363 . S
C1373 C1379 1.428 . S
H1374 C1370 0.930 . S
H1375 C1372 0.929 . S
S1376 N1377 1.613 . S
S1376 N1378 1.610 . S
N1377 S1376 1.613 . S
N1377 C1380 1.350 . S
N1378 S1376 1.610 . S
N1378 C1379 1.351 . S
C1379 C1373 1.428 . S
C1379 N1378 1.351 . S
C1379 C1380 1.434 . S
C1380 C1371 1.429 . S
C1380 N1377 1.350 . S
C1380 C1379 1.434 . S
C1381 C1382 1.369 . S
C1381 C1383 1.419 . S
C1381 H1385 0.930 . S
C1382 C1381 1.369 . S
C1382 C1391 1.429 . S
C1383 C1381 1.419 . S
C1383 C1384 1.363 . S
C1383 H1386 0.929 . S
C1384 C1383 1.363 . S
C1384 C1390 1.428 . S
H1385 C1381 0.930 . S
H1386 C1383 0.929 . S
S1387 N1388 1.613 . S
S1387 N1389 1.610 . S
N1388 S1387 1.613 . S
N1388 C1391 1.350 . S
N1389 S1387 1.610 . S
N1389 C1390 1.351 . S
C1390 C1384 1.428 . S
C1390 N1389 1.351 . S
C1390 C1391 1.434 . S
C1391 C1382 1.429 . S
C1391 N1388 1.350 . S
C1391 C1390 1.434 . S
C1392 C1393 1.369 . S
C1392 C1394 1.419 . S
C1392 H1396 0.930 . S
C1393 C1392 1.369 . S
C1393 C1402 1.429 . S
C1394 C1392 1.419 . S
C1394 C1395 1.363 . S
C1394 H1397 0.929 . S
C1395 C1394 1.363 . S
C1395 C1401 1.428 . S
H1396 C1392 0.930 . S
H1397 C1394 0.929 . S
S1398 N1399 1.613 . S
S1398 N1400 1.610 . S
N1399 S1398 1.613 . S
N1399 C1402 1.350 . S
N1400 S1398 1.610 . S
N1400 C1401 1.351 . S
C1401 C1395 1.428 . S
C1401 N1400 1.351 . S
C1401 C1402 1.434 . S
C1402 C1393 1.429 . S
C1402 N1399 1.350 . S
C1402 C1401 1.434 . S
C1403 C1404 1.369 . S
C1403 C1405 1.419 . S
C1403 H1407 0.930 . S
C1404 C1403 1.369 . S
C1404 C1413 1.429 . S
C1405 C1403 1.419 . S
C1405 C1406 1.363 . S
C1405 H1408 0.929 . S
C1406 C1405 1.363 . S
C1406 C1412 1.428 . S
H1407 C1403 0.930 . S
H1408 C1405 0.929 . S
S1409 N1410 1.613 . S
S1409 N1411 1.610 . S
N1410 S1409 1.613 . S
N1410 C1413 1.350 . S
N1411 S1409 1.610 . S
N1411 C1412 1.351 . S
C1412 C1406 1.428 . S
C1412 N1411 1.351 . S
C1412 C1413 1.434 . S
C1413 C1404 1.429 . S
C1413 N1410 1.350 . S
C1413 C1412 1.434 . S
C1414 C1415 1.369 . S
C1414 C1416 1.419 . S
C1414 H1418 0.930 . S
C1415 C1414 1.369 . S
C1415 C1424 1.429 . S
C1416 C1414 1.419 . S
C1416 C1417 1.363 . S
C1416 H1419 0.929 . S
C1417 C1416 1.363 . S
C1417 C1423 1.428 . S
H1418 C1414 0.930 . S
H1419 C1416 0.929 . S
S1420 N1421 1.613 . S
S1420 N1422 1.610 . S
N1421 S1420 1.613 . S
N1421 C1424 1.350 . S
N1422 S1420 1.610 . S
N1422 C1423 1.351 . S
C1423 C1417 1.428 . S
C1423 N1422 1.351 . S
C1423 C1424 1.434 . S
C1424 C1415 1.429 . S
C1424 N1421 1.350 . S
C1424 C1423 1.434 . S
C1425 C1426 1.369 . S
C1425 C1427 1.419 . S
C1425 H1429 0.930 . S
C1426 C1425 1.369 . S
C1426 C1435 1.429 . S
C1427 C1425 1.419 . S
C1427 C1428 1.363 . S
C1427 H1430 0.929 . S
C1428 C1427 1.363 . S
C1428 C1434 1.428 . S
H1429 C1425 0.930 . S
H1430 C1427 0.929 . S
S1431 N1432 1.613 . S
S1431 N1433 1.610 . S
N1432 S1431 1.613 . S
N1432 C1435 1.350 . S
N1433 S1431 1.610 . S
N1433 C1434 1.351 . S
C1434 C1428 1.428 . S
C1434 N1433 1.351 . S
C1434 C1435 1.434 . S
C1435 C1426 1.429 . S
C1435 N1432 1.350 . S
C1435 C1434 1.434 . S
C1436 C1437 1.369 . S
C1436 C1438 1.419 . S
C1436 H1440 0.930 . S
C1437 C1436 1.369 . S
C1437 C1446 1.429 . S
C1438 C1436 1.419 . S
C1438 C1439 1.363 . S
C1438 H1441 0.929 . S
C1439 C1438 1.363 . S
C1439 C1445 1.428 . S
H1440 C1436 0.930 . S
H1441 C1438 0.929 . S
S1442 N1443 1.613 . S
S1442 N1444 1.610 . S
N1443 S1442 1.613 . S
N1443 C1446 1.350 . S
N1444 S1442 1.610 . S
N1444 C1445 1.351 . S
C1445 C1439 1.428 . S
C1445 N1444 1.351 . S
C1445 C1446 1.434 . S
C1446 C1437 1.429 . S
C1446 N1443 1.350 . S
C1446 C1445 1.434 . S
C1447 C1448 1.369 . S
C1447 C1449 1.419 . S
C1447 H1451 0.930 . S
C1448 C1447 1.369 . S
C1448 C1457 1.429 . S
C1449 C1447 1.419 . S
C1449 C1450 1.363 . S
C1449 H1452 0.929 . S
C1450 C1449 1.363 . S
C1450 C1456 1.428 . S
H1451 C1447 0.930 . S
H1452 C1449 0.929 . S
S1453 N1454 1.613 . S
S1453 N1455 1.610 . S
N1454 S1453 1.613 . S
N1454 C1457 1.350 . S
N1455 S1453 1.610 . S
N1455 C1456 1.351 . S
C1456 C1450 1.428 . S
C1456 N1455 1.351 . S
C1456 C1457 1.434 . S
C1457 C1448 1.429 . S
C1457 N1454 1.350 . S
C1457 C1456 1.434 . S
C667 C7 1.459 . S
C669 C575 1.463 . S
C680 C547 1.759 . S
C678 C39 1.747 . S
C691 C562 1.514 . S
C689 C62 1.601 . S
C700 C76 1.879 . S
C702 C632 1.828 . S
C711 C108 1.435 . S
C713 C645 1.434 1_455 S
C722 N117 1.386 . S
C724 C660 1.341 . S
C735 C623 1.331 . S
C733 C16 1.364 . S
C744 C30 1.752 . S
C746 C595 1.672 . S
C757 C604 1.425 . S
C755 C53 1.478 . S
C766 C85 1.837 . S
C768 C506 1.781 . S
C779 C525 1.538 . S
C777 C99 1.607 . S
C788 N127 1.300 . S
C790 C534 1.353 . S
C799 N150 1.135 . S
C801 C659 1.175 . S
C812 C631 1.509 . S
C810 N173 1.473 . S
C823 C646 1.373 . S
C821 C200 1.419 . S
C832 C214 1.669 . S
C834 C464 1.613 . S
C843 N232 1.498 . S
C845 C477 1.520 . S
C854 C260 1.535 . S
C856 C492 1.488 . S
C867 C455 1.157 . S
C865 N140 1.174 . S
C876 N163 1.241 . S
C878 C427 1.233 . S
C889 C436 1.500 . S
C887 C191 1.555 . S
C900 C590 1.862 . S
C898 C223 1.908 . S
C911 C609 1.432 . S
C909 N242 1.380 . S
C922 C618 1.540 . S
C920 C269 1.554 . S
C931 N288 1.274 . S
C933 C491 1.301 . S
C942 C315 1.463 . S
C944 C463 1.484 . S
C953 C338 1.669 . S
C955 C478 1.616 . S
C964 C352 1.889 . S
C966 C548 1.852 . S
C977 C561 1.546 . S
C975 N370 1.535 . S
C988 C576 1.525 1_655 S
C986 C398 1.584 . S
C999 C539 1.132 . S
C997 N278 1.105 . S
C1008 C306 1.657 . S
C1010 C511 1.577 . S
C1019 C329 1.589 . S
C1021 C520 1.540 1_655 S
C1032 C422 1.534 . S
C1030 C361 1.578 . S
C1041 N380 1.405 . S
C1043 C441 1.444 . S
C1054 C450 1.462 . S
C1052 C407 1.484 . S
C1065 C469 1.344 . S
C1063 N12 1.347 . S
C1074 N25 1.525 . S
C1076 C481 1.485 . S
C1087 C497 1.195 . S
C1085 N48 1.237 . S
C1098 C495 1.305 . S
C1096 N81 1.320 . S
C1109 C467 1.470 . S
C1107 N94 1.461 . S
C1120 C483 1.452 . S
C1118 C131 1.522 . S
C1131 C421 1.349 . S
C1129 N2 1.340 . S
C1140 N35 1.371 . S
C1142 C439 1.412 . S
C1151 N58 1.190 . S
C1153 C449 1.210 . S
C1164 C453 1.270 . S
C1162 N71 1.219 . S
C1175 C425 1.362 . S
C1173 N104 1.365 . S
C1186 C435 1.560 . S
C1184 C122 1.559 . S
C1195 C145 1.972 . S
C1197 C553 1.893 . S
C1206 C168 1.648 . S
C1208 C565 1.613 . S
C1217 N186 1.374 . S
C1219 C581 1.333 . S
C1230 C579 1.298 . S
C1228 N219 1.295 . S
C1241 C551 1.724 1_556 S
C1239 C246 1.743 . S
C1252 C567 1.362 . S
C1250 N265 1.423 . S
C1263 C505 1.848 . S
C1261 C154 1.861 . S
C1272 C177 1.687 . S
C1274 C523 1.677 . S
C1283 N196 1.201 . S
C1285 C533 1.219 . S
C1294 N209 1.118 . S
C1296 C537 1.182 . S
C1305 C237 1.791 . S
C1307 C509 1.784 . S
C1318 C519 1.427 . S
C1316 N255 1.365 . S
C1327 C283 1.741 . S
C1329 C637 1.633 . S
C1338 N301 1.399 . S
C1340 C649 1.384 . S
C1349 N324 1.247 . S
C1351 C665 1.201 . S
C1362 C663 1.120 . S
C1360 N357 1.117 . S
C1373 C635 1.700 . S
C1371 C384 1.750 . S
C1382 N403 1.279 . S
C1384 C651 1.234 . S
C1393 C292 1.830 . S
C1395 C589 1.831 . S
C1406 C607 1.275 . S
C1404 N311 1.266 . S
C1415 N334 1.277 . S
C1417 C617 1.311 . S
C1426 N347 1.265 . S
C1428 C621 1.307 1_554 S
C1439 C593 1.862 . S
C1437 C375 1.841 . S
C1448 N393 1.311 . S
C1450 C603 1.374 1_554 S
