# Generated by pormake.
# Topology rtl, (3,6)-cn, num edge types: 1
# Building blocks:
#     Node 0, Type 0, BuildingBlock: WUSLED_clean_sbu_0, # of connection points: 3
#     Node 1, Type 0, BuildingBlock: WUSLED_clean_sbu_0, # of connection points: 3
#     Node 2, Type 0, BuildingBlock: WUSLED_clean_sbu_0, # of connection points: 3
#     Node 3, Type 0, BuildingBlock: WUSLED_clean_sbu_0, # of connection points: 3
#     Node 4, Type 1, BuildingBlock: FUNLAD_clean_sbu_0, # of connection points: 6
#     Node 5, Type 1, BuildingBlock: FUNLAD_clean_sbu_0, # of connection points: 6
#     Edge 6, Type (0, 1), BuildingBlock: MIFKUJ_clean_linker_0, # of connection points: 2
#     Edge 7, Type (0, 1), BuildingBlock: MIFKUJ_clean_linker_0, # of connection points: 2
#     Edge 8, Type (0, 1), BuildingBlock: MIFKUJ_clean_linker_0, # of connection points: 2
#     Edge 9, Type (0, 1), BuildingBlock: MIFKUJ_clean_linker_0, # of connection points: 2
#     Edge 10, Type (0, 1), BuildingBlock: MIFKUJ_clean_linker_0, # of connection points: 2
#     Edge 11, Type (0, 1), BuildingBlock: MIFKUJ_clean_linker_0, # of connection points: 2
#     Edge 12, Type (0, 1), BuildingBlock: MIFKUJ_clean_linker_0, # of connection points: 2
#     Edge 13, Type (0, 1), BuildingBlock: MIFKUJ_clean_linker_0, # of connection points: 2
#     Edge 14, Type (0, 1), BuildingBlock: MIFKUJ_clean_linker_0, # of connection points: 2
#     Edge 15, Type (0, 1), BuildingBlock: MIFKUJ_clean_linker_0, # of connection points: 2
#     Edge 16, Type (0, 1), BuildingBlock: MIFKUJ_clean_linker_0, # of connection points: 2
#     Edge 17, Type (0, 1), BuildingBlock: MIFKUJ_clean_linker_0, # of connection points: 2
# Relax obj value: 0.026
# Max RMSD: 0.079
# Mean RMSD: 0.068
data_MOF--net-rtl--node1-WUSLED_clean_sbu_0--node2-FUNLAD_clean_sbu_0--edge1-MIFKUJ_clean_linker_0
_symmetry_space_group_name_H-M    P1
_symmetry_Int_Tables_number       1
_symmetry_cell_setting            triclinic
loop_
_symmetry_equiv_pos_as_xyz
'x, y, z'
_cell_length_a     62.497176
_cell_length_b     52.016687
_cell_length_c     37.056429
_cell_angle_alpha  90.299758
_cell_angle_beta   91.159705
_cell_angle_gamma 90.388997
loop_
_atom_site_label
_atom_site_type_symbol
_atom_site_fract_x
_atom_site_fract_y
_atom_site_fract_z
_atom_type_partial_charge
C0 C 0.14843 0.80653 0.12507 0.0
C1 C 0.13749 0.82963 0.11886 0.0
C2 C 0.12666 0.83098 0.18159 0.0
C3 C 0.12681 0.84181 0.1469 0.0
C4 C 0.13724 0.80753 0.1875 0.0
C5 C 0.1481 0.79546 0.15947 0.0
U6 U 0.15739 0.79633 0.02526 0.0
O7 O 0.18702 0.79505 0.99431 0.0
O8 O 0.16534 0.76167 0.99411 0.0
C9 C 0.18393 0.77101 0.98431 0.0
C10 C 0.16024 0.79403 0.0959 0.0
C11 C 0.20244 0.75402 0.98939 0.0
C12 C 0.22575 0.72793 0.02742 0.0
C13 C 0.20777 0.74368 0.02328 0.0
C14 C 0.23319 0.73281 0.9639 0.0
C15 C 0.23874 0.72244 0.99778 0.0
C16 C 0.21522 0.74843 0.95978 0.0
C17 C 0.12048 0.83261 0.95926 0.0
C18 C 0.12618 0.8356 0.89472 0.0
C19 C 0.09412 0.85338 0.92048 0.0
C20 C 0.10098 0.84541 0.95472 0.0
C21 C 0.10668 0.84871 0.89007 0.0
C22 C 0.133 0.82755 0.92906 0.0
C23 C 0.1276 0.82526 0.99578 0.0
O24 O 0.14919 0.77732 0.07625 0.0
O25 O 0.17203 0.80954 0.07651 0.0
O26 O 0.1465 0.83407 0.00621 0.0
O27 O 0.12441 0.80109 0.00443 0.0
H28 H 0.13735 0.83834 0.09235 0.0
H29 H 0.11855 0.85965 0.1414 0.0
H30 H 0.13752 0.79882 0.21399 0.0
H31 H 0.15638 0.7776 0.16471 0.0
H32 H 0.22969 0.72043 0.05393 0.0
H33 H 0.19811 0.74793 0.0465 0.0
H34 H 0.24264 0.72866 0.94041 0.0
H35 H 0.21131 0.75623 0.93342 0.0
H36 H 0.13611 0.83148 0.87182 0.0
H37 H 0.0792 0.86376 0.91797 0.0
H38 H 0.09116 0.84953 0.97778 0.0
H39 H 0.14809 0.81758 0.93211 0.0
C40 C 0.64461 0.7087 0.62959 0.0
C41 C 0.6264 0.69352 0.6221 0.0
C42 C 0.62294 0.68421 0.68611 0.0
C43 C 0.61565 0.6814 0.6501 0.0
C44 C 0.64109 0.6997 0.69343 0.0
C45 C 0.65183 0.71182 0.66537 0.0
U46 U 0.65247 0.718 0.52955 0.0
O47 O 0.66105 0.75226 0.49825 0.0
O48 O 0.68171 0.71831 0.49758 0.0
C49 C 0.67924 0.74238 0.48784 0.0
C50 C 0.65645 0.72058 0.60009 0.0
C51 C 0.69823 0.75892 0.49285 0.0
C52 C 0.72446 0.78084 0.53154 0.0
C53 C 0.70599 0.76562 0.52745 0.0
C54 C 0.72742 0.78288 0.46651 0.0
C55 C 0.73548 0.78949 0.50109 0.0
C56 C 0.70897 0.76774 0.46248 0.0
C57 C 0.61428 0.68273 0.46389 0.0
C58 C 0.62135 0.67539 0.40042 0.0
C59 C 0.58621 0.6661 0.4238 0.0
C60 C 0.59318 0.67417 0.45812 0.0
C61 C 0.60027 0.66635 0.39464 0.0
C62 C 0.62827 0.68361 0.43475 0.0
C63 C 0.62154 0.68987 0.50059 0.0
O64 O 0.66725 0.7044 0.58023 0.0
O65 O 0.64574 0.73753 0.58087 0.0
O66 O 0.61913 0.71413 0.5096 0.0
O67 O 0.64014 0.68049 0.51093 0.0
H68 H 0.62061 0.69091 0.59455 0.0
H69 H 0.60157 0.66992 0.64355 0.0
H70 H 0.64729 0.70202 0.72076 0.0
H71 H 0.66594 0.72337 0.67157 0.0
H72 H 0.73035 0.78539 0.55853 0.0
H73 H 0.69788 0.75888 0.55121 0.0
H74 H 0.73531 0.78955 0.44251 0.0
H75 H 0.70314 0.76279 0.43557 0.0
H76 H 0.63247 0.67609 0.37841 0.0
H77 H 0.56996 0.65899 0.42033 0.0
H78 H 0.58218 0.67335 0.48032 0.0
H79 H 0.6446 0.69035 0.43866 0.0
C80 C 0.8687 0.2031 0.11839 0.0
C81 C 0.87957 0.18001 0.11227 0.0
C82 C 0.8904 0.17822 0.17569 0.0
C83 C 0.89023 0.16761 0.1407 0.0
C84 C 0.87986 0.20165 0.18154 0.0
C85 C 0.86904 0.21393 0.15311 0.0
U86 U 0.85939 0.21392 0.01824 0.0
O87 O 0.82955 0.2163 0.98598 0.0
O88 O 0.85189 0.24903 0.98776 0.0
C89 C 0.83294 0.24041 0.97718 0.0
C90 C 0.85696 0.21589 0.08879 0.0
C91 C 0.81493 0.25784 0.98328 0.0
C92 C 0.79192 0.28153 0.0236 0.0
C93 C 0.8094 0.26534 0.01829 0.0
C94 C 0.78539 0.28289 0.95897 0.0
C95 C 0.77966 0.29048 0.99398 0.0
C96 C 0.80286 0.26673 0.95371 0.0
C97 C 0.8958 0.17702 0.9536 0.0
C98 C 0.89057 0.17427 0.88851 0.0
C99 C 0.92213 0.15573 0.9168 0.0
C100 C 0.91512 0.16379 0.95055 0.0
C101 C 0.9099 0.16075 0.88536 0.0
C102 C 0.88359 0.1824 0.92239 0.0
C103 C 0.88861 0.18448 0.98965 0.0
O104 O 0.86816 0.23244 0.07014 0.0
O105 O 0.84489 0.20067 0.0684 0.0
O106 O 0.86954 0.1761 0.99848 0.0
O107 O 0.89219 0.20854 0.9991 0.0
H108 H 0.8797 0.17148 0.08553 0.0
H109 H 0.89845 0.14979 0.13526 0.0
H110 H 0.87959 0.21019 0.20825 0.0
H111 H 0.86079 0.23179 0.15829 0.0
H112 H 0.78811 0.2872 0.05087 0.0
H113 H 0.81858 0.25861 0.04146 0.0
H114 H 0.77613 0.28904 0.93559 0.0
H115 H 0.80684 0.261 0.92652 0.0
H116 H 0.88089 0.17866 0.86479 0.0
H117 H 0.9369 0.14505 0.91546 0.0
H118 H 0.92471 0.15941 0.97441 0.0
H119 H 0.86864 0.1927 0.92427 0.0
C120 C 0.37053 0.30175 0.40728 0.0
C121 C 0.39118 0.31213 0.41216 0.0
C122 C 0.39141 0.32536 0.3492 0.0
C123 C 0.40157 0.32373 0.38333 0.0
C124 C 0.37074 0.31481 0.34445 0.0
C125 C 0.36042 0.30308 0.37326 0.0
U126 U 0.36352 0.29421 0.50815 0.0
O127 O 0.3344 0.29419 0.5405 0.0
O128 O 0.35531 0.26046 0.54073 0.0
C129 C 0.33706 0.2703 0.55093 0.0
C130 C 0.35909 0.29049 0.43775 0.0
C131 C 0.31817 0.25352 0.54653 0.0
C132 C 0.29393 0.22757 0.5091 0.0
C133 C 0.31222 0.24314 0.51273 0.0
C134 C 0.2874 0.23269 0.57297 0.0
C135 C 0.28124 0.22228 0.53918 0.0
C136 C 0.3057 0.24815 0.57657 0.0
C137 C 0.40196 0.331 0.57182 0.0
C138 C 0.39767 0.33277 0.63683 0.0
C139 C 0.42737 0.35498 0.60941 0.0
C140 C 0.4204 0.3463 0.57541 0.0
C141 C 0.41598 0.34856 0.64051 0.0
C142 C 0.39069 0.32408 0.60271 0.0
C143 C 0.39443 0.32313 0.53559 0.0
O144 O 0.36996 0.27389 0.45735 0.0
O145 O 0.34842 0.30701 0.45725 0.0
O146 O 0.37564 0.33212 0.52559 0.0
O147 O 0.39692 0.29874 0.52737 0.0
H148 H 0.39916 0.31153 0.43838 0.0
H149 H 0.41736 0.33197 0.38797 0.0
H150 H 0.36257 0.31556 0.31843 0.0
H151 H 0.34445 0.29524 0.36905 0.0
H152 H 0.2895 0.22006 0.48266 0.0
H153 H 0.32164 0.24723 0.48918 0.0
H154 H 0.27817 0.22872 0.59675 0.0
H155 H 0.31009 0.25599 0.60286 0.0
H156 H 0.38845 0.32763 0.66019 0.0
H157 H 0.44174 0.36672 0.61133 0.0
H158 H 0.42932 0.35172 0.55182 0.0
H159 H 0.37637 0.31228 0.60035 0.0
C160 C 0.02618 0.97394 0.46499 0.0
N161 N 0.05058 0.03955 0.5183 0.0
C162 C 0.06987 0.02756 0.51871 0.0
C163 C 0.08885 0.04188 0.5191 0.0
C164 C 0.08808 0.06888 0.51891 0.0
C165 C 0.06791 0.08074 0.51834 0.0
C166 C 0.0493 0.06566 0.5181 0.0
Zn167 Zn 0.02321 0.01755 0.51792 0.0
C168 C 0.99086 0.03532 0.46393 0.0
N169 N 0.96687 0.97032 0.51668 0.0
C170 C 0.96821 0.94421 0.51667 0.0
C171 C 0.94756 0.98226 0.51685 0.0
C172 C 0.92862 0.96788 0.51728 0.0
C173 C 0.9295 0.94091 0.51726 0.0
C174 C 0.94964 0.92908 0.51682 0.0
Zn175 Zn 0.99422 0.99234 0.51705 0.0
O176 O 0.03575 0.99413 0.47643 0.0
C177 C 0.0264 0.97451 0.57117 0.0
O178 O 0.0082 0.96777 0.47804 0.0
H179 H 0.94682 0.00302 0.51668 0.0
H180 H 0.07055 0.00679 0.51888 0.0
H181 H 0.98371 0.9351 0.51671 0.0
O182 O 0.03693 0.99309 0.55793 0.0
O183 O 0.00753 0.96983 0.55932 0.0
H184 H 0.03382 0.07482 0.51769 0.0
O185 O 0.98083 0.01733 0.55616 0.0
O186 O 0.01024 0.04061 0.55941 0.0
O187 O 0.98133 0.01521 0.47479 0.0
O188 O 0.00888 0.0416 0.47804 0.0
C189 C 0.99137 0.03603 0.57002 0.0
H190 H 0.10398 0.03186 0.52008 0.0
H191 H 0.06649 0.10146 0.5177 0.0
H192 H 0.91342 0.97778 0.51717 0.0
H193 H 0.95104 0.90834 0.51715 0.0
C194 C 0.49239 0.47306 0.96458 0.0
N195 N 0.55139 0.47205 0.02119 0.0
C196 C 0.55032 0.44594 0.023 0.0
C197 C 0.56902 0.43133 0.02319 0.0
C198 C 0.58901 0.44366 0.02108 0.0
C199 C 0.58965 0.47061 0.0193 0.0
C200 C 0.57059 0.48449 0.01959 0.0
Zn201 Zn 0.52367 0.49308 0.01999 0.0
C202 C 0.52601 0.53647 0.96744 0.0
N203 N 0.46597 0.53725 0.01665 0.0
C204 C 0.44667 0.52499 0.01471 0.0
C205 C 0.46727 0.56336 0.01802 0.0
C206 C 0.4487 0.57818 0.01746 0.0
C207 C 0.42852 0.56609 0.0154 0.0
C208 C 0.42769 0.53908 0.01404 0.0
Zn209 Zn 0.49363 0.51614 0.0179 0.0
O210 O 0.51078 0.4689 0.97857 0.0
C211 C 0.49112 0.47284 0.07033 0.0
O212 O 0.48149 0.49192 0.9759 0.0
H213 H 0.48275 0.57275 0.01967 0.0
H214 H 0.53492 0.4364 0.02402 0.0
H215 H 0.44597 0.50422 0.01361 0.0
O216 O 0.5101 0.469 0.05988 0.0
O217 O 0.48044 0.49131 0.05692 0.0
H218 H 0.57113 0.50526 0.01839 0.0
O219 O 0.50637 0.53988 0.06003 0.0
O220 O 0.53607 0.51759 0.06136 0.0
O221 O 0.50727 0.54062 0.97877 0.0
O222 O 0.53658 0.51764 0.98009 0.0
C223 C 0.52497 0.53603 0.0734 0.0
H224 H 0.56781 0.41056 0.02425 0.0
H225 H 0.60475 0.48087 0.01802 0.0
H226 H 0.45016 0.59891 0.01909 0.0
H227 H 0.41254 0.5289 0.01197 0.0
H228 H 0.27554 0.17748 0.50068 0.0
H229 H 0.24319 0.15077 0.49578 0.0
H230 H 0.2101 0.20401 0.56433 0.0
H231 H 0.24234 0.2307 0.56938 0.0
H232 H 0.20286 0.1557 0.58463 0.0
H233 H 0.20119 0.20184 0.47198 0.0
H234 H 0.21568 0.21664 0.41421 0.0
H235 H 0.2213 0.13839 0.37833 0.0
H236 H 0.2071 0.12312 0.43611 0.0
H237 H 0.09627 0.11388 0.55575 0.0
H238 H 0.1293 0.13919 0.55737 0.0
H239 H 0.15877 0.08421 0.48675 0.0
H240 H 0.12545 0.05936 0.48366 0.0
H241 H 0.16877 0.13165 0.46707 0.0
H242 H 0.16999 0.08516 0.57807 0.0
H243 H 0.15601 0.06955 0.63578 0.0
H244 H 0.15204 0.14719 0.67488 0.0
H245 H 0.16572 0.1633 0.61719 0.0
C246 C 0.2613 0.18362 0.51441 0.0
C247 C 0.26152 0.20621 0.53545 0.0
C248 C 0.24282 0.16832 0.51161 0.0
C249 C 0.22414 0.17548 0.52946 0.0
C250 C 0.22433 0.19804 0.55042 0.0
C251 C 0.2428 0.21325 0.55335 0.0
C252 C 0.20443 0.15936 0.52688 0.0
C253 C 0.19526 0.15072 0.55893 0.0
C254 C 0.19486 0.15216 0.49332 0.0
C255 C 0.20328 0.16134 0.45851 0.0
C256 C 0.20566 0.18779 0.45188 0.0
C257 C 0.2138 0.19626 0.41911 0.0
C258 C 0.21946 0.17846 0.39265 0.0
C259 C 0.21694 0.15215 0.39887 0.0
C260 C 0.20883 0.14358 0.4316 0.0
C261 C 0.10966 0.1073 0.54017 0.0
C262 C 0.10817 0.08449 0.51967 0.0
C263 C 0.12865 0.12166 0.54146 0.0
C264 C 0.14666 0.1134 0.52265 0.0
C265 C 0.14513 0.0909 0.50167 0.0
C266 C 0.12611 0.07657 0.50022 0.0
C267 C 0.16706 0.12827 0.52486 0.0
C268 C 0.17639 0.1366 0.49277 0.0
C269 C 0.17686 0.13507 0.55839 0.0
C270 C 0.1687 0.12544 0.59317 0.0
C271 C 0.16599 0.09892 0.59887 0.0
C272 C 0.15814 0.08998 0.6316 0.0
C273 C 0.15309 0.10737 0.65895 0.0
C274 C 0.15593 0.13374 0.65366 0.0
C275 C 0.16375 0.14279 0.62096 0.0
H276 H 0.14701 0.10041 0.68427 0.0
H277 H 0.22576 0.18506 0.36731 0.0
H278 H 0.27818 0.73035 0.96906 0.0
H279 H 0.30955 0.70276 0.97355 0.0
H280 H 0.27474 0.65004 0.04044 0.0
H281 H 0.24319 0.67768 0.03609 0.0
H282 H 0.31499 0.65722 0.06616 0.0
H283 H 0.28246 0.63644 0.95163 0.0
H284 H 0.26686 0.64539 0.89138 0.0
H285 H 0.32645 0.6785 0.85853 0.0
H286 H 0.34233 0.67008 0.91878 0.0
H287 H 0.39063 0.55597 0.04903 0.0
H288 H 0.35784 0.58134 0.04709 0.0
H289 H 0.38848 0.63694 0.97894 0.0
H290 H 0.42102 0.61121 0.97959 0.0
H291 H 0.34908 0.62635 0.95435 0.0
H292 H 0.38118 0.64817 0.06987 0.0
H293 H 0.39659 0.6391 0.13022 0.0
H294 H 0.33759 0.60351 0.16116 0.0
H295 H 0.32192 0.61207 0.1008 0.0
C296 C 0.27713 0.71281 0.98456 0.0
C297 C 0.25809 0.70609 1.00192 0.0
C298 C 0.2951 0.69706 0.98714 0.0
C299 C 0.29441 0.67408 0.00683 0.0
C300 C 0.27563 0.66764 0.02502 0.0
C301 C 0.25763 0.68348 0.02257 0.0
C302 C 0.31326 0.65678 0.00806 0.0
C303 C 0.32226 0.65015 0.04173 0.0
C304 C 0.32298 0.64788 0.97618 0.0
C305 C 0.31352 0.65283 0.93983 0.0
C306 C 0.29219 0.6458 0.93164 0.0
C307 C 0.28331 0.65075 0.89748 0.0
C308 C 0.29564 0.66256 0.87117 0.0
C309 C 0.31691 0.66938 0.87895 0.0
C310 C 0.32587 0.6645 0.91309 0.0
C311 C 0.39035 0.57347 0.03334 0.0
C312 C 0.40853 0.58156 0.01454 0.0
C313 C 0.37164 0.58811 0.03258 0.0
C314 C 0.37076 0.61124 0.01324 0.0
C315 C 0.38879 0.61923 0.99417 0.0
C316 C 0.40747 0.60459 0.99485 0.0
C317 C 0.351 0.62705 0.01244 0.0
C318 C 0.34179 0.63336 0.9788 0.0
C319 C 0.34109 0.63558 0.04435 0.0
C320 C 0.35046 0.63053 0.0807 0.0
C321 C 0.37155 0.63824 0.08945 0.0
C322 C 0.38032 0.63322 0.12368 0.0
C323 C 0.3681 0.62068 0.14947 0.0
C324 C 0.34705 0.61319 0.14113 0.0
C325 C 0.33821 0.61814 0.10693 0.0
H326 H 0.37492 0.61681 0.17596 0.0
H327 H 0.28874 0.66638 0.84474 0.0
H328 H 0.74399 0.82919 0.54846 0.0
H329 H 0.77687 0.85489 0.55431 0.0
H330 H 0.80482 0.811 0.46838 0.0
H331 H 0.7723 0.78482 0.46306 0.0
H332 H 0.83288 0.81806 0.52397 0.0
H333 H 0.78471 0.87086 0.45336 0.0
H334 H 0.75116 0.89419 0.44097 0.0
H335 H 0.76205 0.9406 0.53583 0.0
H336 H 0.79555 0.9173 0.54904 0.0
H337 H 0.91966 0.89811 0.47695 0.0
H338 H 0.88668 0.87259 0.47722 0.0
H339 H 0.86124 0.92268 0.55878 0.0
H340 H 0.89412 0.94849 0.55824 0.0
H341 H 0.83159 0.91278 0.50925 0.0
H342 H 0.88014 0.86177 0.57922 0.0
H343 H 0.91364 0.83865 0.59275 0.0
H344 H 0.90199 0.78895 0.50148 0.0
H345 H 0.86855 0.81201 0.48709 0.0
C346 C 0.75721 0.82487 0.53104 0.0
C347 C 0.75547 0.80504 0.50515 0.0
C348 C 0.77593 0.83971 0.53421 0.0
C349 C 0.79322 0.83505 0.5115 0.0
C350 C 0.79165 0.815 0.48609 0.0
C351 C 0.77297 0.8002 0.48287 0.0
C352 C 0.813 0.85102 0.51402 0.0
C353 C 0.83264 0.83874 0.52038 0.0
C354 C 0.81261 0.87809 0.51039 0.0
C355 C 0.79251 0.89215 0.5024 0.0
C356 C 0.77986 0.8859 0.47173 0.0
C357 C 0.76087 0.89914 0.46453 0.0
C358 C 0.75445 0.91881 0.48766 0.0
C359 C 0.76703 0.92533 0.51797 0.0
C360 C 0.78603 0.91213 0.52532 0.0
C361 C 0.90711 0.90355 0.49516 0.0
C362 C 0.90953 0.92525 0.51766 0.0
C363 C 0.88826 0.88894 0.49532 0.0
C364 C 0.87156 0.89547 0.51841 0.0
C365 C 0.87388 0.91724 0.54074 0.0
C366 C 0.89267 0.932 0.54037 0.0
C367 C 0.85156 0.8798 0.51882 0.0
C368 C 0.83186 0.89212 0.51305 0.0
C369 C 0.85188 0.85277 0.52322 0.0
C370 C 0.87193 0.83877 0.5319 0.0
C371 C 0.8848 0.84603 0.56188 0.0
C372 C 0.90377 0.83291 0.56973 0.0
C373 C 0.90997 0.81238 0.54794 0.0
C374 C 0.89718 0.80487 0.51831 0.0
C375 C 0.8782 0.81794 0.51032 0.0
H376 H 0.92466 0.80226 0.55405 0.0
H377 H 0.73974 0.92904 0.48203 0.0
H378 H 0.74935 0.28701 0.04634 0.0
H379 H 0.7178 0.31389 0.0539 0.0
H380 H 0.73524 0.35839 0.96099 0.0
H381 H 0.76722 0.3322 0.95401 0.0
H382 H 0.72171 0.38906 0.0145 0.0
H383 H 0.69644 0.31154 0.95511 0.0
H384 H 0.69155 0.26467 0.9483 0.0
H385 H 0.6584 0.26204 0.04861 0.0
H386 H 0.66335 0.30887 0.05625 0.0
H387 H 0.62278 0.44976 0.97614 0.0
H388 H 0.65554 0.42443 0.97415 0.0
H389 H 0.63349 0.37819 0.06253 0.0
H390 H 0.60043 0.40314 0.06398 0.0
H391 H 0.64968 0.34837 0.01392 0.0
H392 H 0.67366 0.42577 0.07298 0.0
H393 H 0.67864 0.47257 0.08069 0.0
H394 H 0.7143 0.47556 0.98295 0.0
H395 H 0.70929 0.42882 0.97439 0.0
C396 C 0.74665 0.30273 0.02779 0.0
C397 C 0.76079 0.30732 0.99942 0.0
C398 C 0.72847 0.31793 0.03194 0.0
C399 C 0.72396 0.33794 0.00769 0.0
C400 C 0.73832 0.34299 0.97992 0.0
C401 C 0.7565 0.32783 0.97577 0.0
C402 C 0.70413 0.35337 0.01083 0.0
C403 C 0.70593 0.38021 0.01399 0.0
C404 C 0.68357 0.34178 0.01111 0.0
C405 C 0.68045 0.31366 0.00641 0.0
C406 C 0.68824 0.30094 0.97584 0.0
C407 C 0.68544 0.27438 0.97181 0.0
C408 C 0.67472 0.26037 0.99805 0.0
C409 C 0.66673 0.27291 0.02833 0.0
C410 C 0.66951 0.29946 0.03251 0.0
C411 C 0.62501 0.43432 0.99534 0.0
C412 C 0.60907 0.4285 0.02031 0.0
C413 C 0.64377 0.41988 0.99425 0.0
C414 C 0.64721 0.39961 0.01859 0.0
C415 C 0.63126 0.39372 0.04348 0.0
C416 C 0.61236 0.40797 0.04428 0.0
C417 C 0.66718 0.38417 0.01749 0.0
C418 C 0.66542 0.35729 0.01466 0.0
C419 C 0.68779 0.39573 0.0177 0.0
C420 C 0.69093 0.42382 0.02289 0.0
C421 C 0.68244 0.43644 0.053 0.0
C422 C 0.68528 0.46295 0.05754 0.0
C423 C 0.69673 0.47704 0.03228 0.0
C424 C 0.70541 0.46463 1.00247 0.0
C425 C 0.70259 0.43812 0.99779 0.0
H426 H 0.69891 0.49756 0.03584 0.0
H427 H 0.67257 0.23982 0.99489 0.0
H428 H 0.10012 0.81037 0.23203 0.0
H429 H 0.08253 0.83287 0.28154 0.0
H430 H 0.1113 0.90431 0.24836 0.0
H431 H 0.12901 0.88196 0.19909 0.0
H432 H 0.11496 0.89586 0.32246 0.0
H433 H 0.0602 0.89279 0.22827 0.0
H434 H 0.03636 0.87108 0.1837 0.0
H435 H 0.00786 0.8272 0.26823 0.0
H436 H 0.03176 0.84842 0.31327 0.0
H437 H 0.05756 0.98798 0.41895 0.0
H438 H 0.07383 0.96199 0.37209 0.0
H439 H 0.0338 0.89756 0.40055 0.0
H440 H 0.01672 0.924 0.44655 0.0
H441 H 0.03592 0.89938 0.33123 0.0
H442 H 0.08868 0.90224 0.426 0.0
H443 H 0.1125 0.92238 0.47201 0.0
H444 H 0.14516 0.96376 0.38938 0.0
H445 H 0.12133 0.94413 0.34289 0.0
C446 C 0.10275 0.83085 0.23542 0.0
C447 C 0.11588 0.84443 0.21161 0.0
C448 C 0.0926 0.84369 0.26355 0.0
C449 C 0.09551 0.87028 0.26847 0.0
C450 C 0.10881 0.8838 0.24499 0.0
C451 C 0.11878 0.87104 0.21671 0.0
C452 C 0.08486 0.88414 0.29818 0.0
C453 C 0.09767 0.89686 0.32424 0.0
C454 C 0.06233 0.88467 0.30113 0.0
C455 C 0.04793 0.87199 0.27408 0.0
C456 C 0.04898 0.87835 0.23732 0.0
C457 C 0.03543 0.86617 0.21198 0.0
C458 C 0.02065 0.84772 0.22311 0.0
C459 C 0.01935 0.84147 0.25963 0.0
C460 C 0.03288 0.85358 0.28508 0.0
C461 C 0.05223 0.96827 0.41528 0.0
C462 C 0.03595 0.95799 0.43661 0.0
C463 C 0.06164 0.95334 0.38857 0.0
C464 C 0.05543 0.92757 0.38323 0.0
C465 C 0.03896 0.91734 0.40421 0.0
C466 C 0.02924 0.93245 0.43055 0.0
C467 C 0.06601 0.91149 0.35547 0.0
C468 C 0.05321 0.89828 0.32976 0.0
C469 C 0.08859 0.91019 0.35312 0.0
C470 C 0.1031 0.92186 0.38098 0.0
C471 C 0.10086 0.91575 0.41765 0.0
C472 C 0.11437 0.92707 0.44382 0.0
C473 C 0.13031 0.94438 0.43363 0.0
C474 C 0.1328 0.95036 0.39723 0.0
C475 C 0.11931 0.93912 0.37096 0.0
H476 H 0.14075 0.95313 0.45393 0.0
H477 H 0.01017 0.83831 0.20346 0.0
H478 H 0.60705 0.63502 0.68584 0.0
H479 H 0.58925 0.61255 0.73467 0.0
H480 H 0.5963 0.6798 0.80257 0.0
H481 H 0.61403 0.70252 0.75369 0.0
H482 H 0.60698 0.63751 0.83901 0.0
H483 H 0.54794 0.66413 0.76485 0.0
H484 H 0.52683 0.66905 0.7084 0.0
H485 H 0.52152 0.587 0.69785 0.0
H486 H 0.54287 0.58158 0.75399 0.0
H487 H 0.50775 0.57817 0.93452 0.0
H488 H 0.52328 0.60572 0.88845 0.0
H489 H 0.58068 0.56012 0.89076 0.0
H490 H 0.56543 0.53271 0.93714 0.0
H491 H 0.53591 0.59565 0.82156 0.0
H492 H 0.62366 0.59845 0.87561 0.0
H493 H 0.64332 0.59653 0.93393 0.0
H494 H 0.58847 0.62575 0.98827 0.0
H495 H 0.56859 0.6282 0.93024 0.0
C496 C 0.60459 0.64517 0.71099 0.0
C497 C 0.6119 0.67063 0.71578 0.0
C498 C 0.59444 0.63226 0.73893 0.0
C499 C 0.59125 0.64457 0.77218 0.0
C500 C 0.59862 0.66991 0.77715 0.0
C501 C 0.60881 0.68284 0.74922 0.0
C502 C 0.58054 0.63079 0.80191 0.0
C503 C 0.59143 0.6284 0.83521 0.0
C504 C 0.56006 0.61928 0.7972 0.0
C505 C 0.54716 0.62246 0.76347 0.0
C506 C 0.54241 0.64713 0.75035 0.0
C507 C 0.53038 0.65001 0.71843 0.0
C508 C 0.52288 0.62835 0.69951 0.0
C509 C 0.52736 0.60376 0.71252 0.0
C510 C 0.5394 0.60077 0.74441 0.0
C511 C 0.52371 0.57404 0.92532 0.0
C512 C 0.53538 0.55327 0.93962 0.0
C513 C 0.53253 0.58977 0.8989 0.0
C514 C 0.55321 0.58514 0.88638 0.0
C515 C 0.56482 0.56431 0.9004 0.0
C516 C 0.55604 0.54859 0.92684 0.0
C517 C 0.56258 0.6019 0.85838 0.0
C518 C 0.55144 0.60483 0.82539 0.0
C519 C 0.58265 0.6143 0.8636 0.0
C520 C 0.59458 0.61327 0.89859 0.0
C521 C 0.61583 0.60458 0.89998 0.0
C522 C 0.62701 0.60338 0.93299 0.0
C523 C 0.61713 0.61094 0.96479 0.0
C524 C 0.59607 0.61981 0.96364 0.0
C525 C 0.58484 0.62108 0.9307 0.0
H526 H 0.6258 0.60997 0.99032 0.0
H527 H 0.51356 0.63062 0.6748 0.0
H528 H 0.91689 0.19854 0.22851 0.0
H529 H 0.93442 0.1758 0.27869 0.0
H530 H 0.9058 0.1045 0.24157 0.0
H531 H 0.88813 0.12711 0.19161 0.0
H532 H 0.902 0.1125 0.31554 0.0
H533 H 0.95698 0.11623 0.22564 0.0
H534 H 0.98086 0.13824 0.18336 0.0
H535 H 0.00899 0.1819 0.27103 0.0
H536 H 0.98506 0.16039 0.31377 0.0
H537 H 0.9596 0.02086 0.41554 0.0
H538 H 0.94328 0.04659 0.36769 0.0
H539 H 0.9829 0.11142 0.39967 0.0
H540 H 1.00005 0.08526 0.44665 0.0
H541 H 0.98101 0.10944 0.33037 0.0
H542 H 0.92788 0.10618 0.42095 0.0
H543 H 0.90396 0.08585 0.46474 0.0
H544 H 0.87188 0.04426 0.37887 0.0
H545 H 0.89581 0.06407 0.3346 0.0
C546 C 0.91428 0.17804 0.23117 0.0
C547 C 0.90119 0.16459 0.20607 0.0
C548 C 0.9244 0.16506 0.25969 0.0
C549 C 0.92151 0.13844 0.2637 0.0
C550 C 0.90827 0.12504 0.23891 0.0
C551 C 0.89832 0.13794 0.21025 0.0
C552 C 0.93212 0.12446 0.29384 0.0
C553 C 0.91928 0.11158 0.31864 0.0
C554 C 0.95464 0.12405 0.2985 0.0
C555 C 0.96907 0.1369 0.27283 0.0
C556 C 0.96813 0.13068 0.23585 0.0
C557 C 0.9817 0.14304 0.21182 0.0
C558 C 0.99639 0.16152 0.22449 0.0
C559 C 0.99758 0.16762 0.26124 0.0
C560 C 0.98403 0.15534 0.28539 0.0
C561 C 0.96483 0.04061 0.41242 0.0
C562 C 0.98102 0.05109 0.43501 0.0
C563 C 0.95538 0.05538 0.38515 0.0
C564 C 0.96147 0.08119 0.38048 0.0
C565 C 0.97784 0.09161 0.40277 0.0
C566 C 0.9876 0.07666 0.42967 0.0
C567 C 0.9509 0.09711 0.35207 0.0
C568 C 0.96373 0.11043 0.32757 0.0
C569 C 0.92832 0.09825 0.34798 0.0
C570 C 0.91376 0.08646 0.37449 0.0
C571 C 0.91581 0.09258 0.41143 0.0
C572 C 0.90224 0.08116 0.43633 0.0
C573 C 0.88644 0.06373 0.4246 0.0
C574 C 0.88414 0.05774 0.38792 0.0
C575 C 0.89769 0.06908 0.3629 0.0
H576 H 0.87595 0.05491 0.44392 0.0
H577 H 0.00688 0.17106 0.20584 0.0
H578 H 0.43025 0.39706 0.65689 0.0
H579 H 0.44318 0.41361 0.71512 0.0
H580 H 0.43042 0.34015 0.76396 0.0
H581 H 0.41751 0.32332 0.70548 0.0
H582 H 0.41813 0.37928 0.80726 0.0
H583 H 0.48089 0.35611 0.74458 0.0
H584 H 0.50557 0.35458 0.69355 0.0
H585 H 0.51374 0.43654 0.6993 0.0
H586 H 0.48885 0.43861 0.75005 0.0
H587 H 0.51173 0.43165 0.93356 0.0
H588 H 0.4985 0.40556 0.88267 0.0
H589 H 0.44117 0.45121 0.87676 0.0
H590 H 0.45412 0.47715 0.92792 0.0
H591 H 0.4904 0.41928 0.81548 0.0
H592 H 0.39937 0.4145 0.84601 0.0
H593 H 0.37623 0.41265 0.8991 0.0
H594 H 0.42747 0.37964 0.96193 0.0
H595 H 0.4508 0.3809 0.90909 0.0
C596 C 0.43034 0.38432 0.67992 0.0
C597 C 0.42307 0.35876 0.67642 0.0
C598 C 0.43767 0.39385 0.71324 0.0
C599 C 0.43806 0.37801 0.74379 0.0
C600 C 0.43029 0.35269 0.74071 0.0
C601 C 0.42289 0.34312 0.7073 0.0
C602 C 0.44694 0.38797 0.77866 0.0
C603 C 0.43395 0.38796 0.80914 0.0
C604 C 0.4678 0.39867 0.78138 0.0
C605 C 0.48287 0.39753 0.75096 0.0
C606 C 0.48783 0.37383 0.7348 0.0
C607 C 0.50187 0.37286 0.70594 0.0
C608 C 0.51118 0.39546 0.69314 0.0
C609 C 0.5065 0.41906 0.70923 0.0
C610 C 0.49245 0.42014 0.73807 0.0
C611 C 0.49622 0.43602 0.92163 0.0
C612 C 0.484 0.45653 0.93478 0.0
C613 C 0.4887 0.42111 0.8925 0.0
C614 C 0.46878 0.42629 0.87605 0.0
C615 C 0.45644 0.44658 0.88936 0.0
C616 C 0.46393 0.46149 0.91851 0.0
C617 C 0.46135 0.41138 0.84382 0.0
C618 C 0.47463 0.41045 0.81377 0.0
C619 C 0.44097 0.39932 0.84184 0.0
C620 C 0.42689 0.39802 0.87361 0.0
C621 C 0.40567 0.40671 0.87108 0.0
C622 C 0.39252 0.40578 0.90116 0.0
C623 C 0.4004 0.3961 0.93389 0.0
C624 C 0.42141 0.38721 0.93659 0.0
C625 C 0.43461 0.38806 0.90659 0.0
H626 H 0.39021 0.39544 0.95715 0.0
H627 H 0.52205 0.39467 0.6708 0.0
H628 H 0.62203 0.63459 0.3495 0.0
H629 H 0.60949 0.61596 0.29216 0.0
H630 H 0.54983 0.65655 0.30127 0.0
H631 H 0.56226 0.67508 0.35888 0.0
H632 H 0.54245 0.60823 0.28353 0.0
H633 H 0.58825 0.67459 0.23982 0.0
H634 H 0.6216 0.69984 0.23511 0.0
H635 H 0.65477 0.63259 0.19951 0.0
H636 H 0.62168 0.60684 0.20448 0.0
H637 H 0.50482 0.57571 0.10725 0.0
H638 H 0.51798 0.601 0.15898 0.0
H639 H 0.57701 0.55851 0.15959 0.0
H640 H 0.56409 0.53327 0.10763 0.0
H641 H 0.58396 0.60995 0.17083 0.0
H642 H 0.53838 0.54346 0.21788 0.0
H643 H 0.50487 0.51846 0.22217 0.0
H644 H 0.47108 0.5869 0.25119 0.0
H645 H 0.50436 0.61237 0.24657 0.0
C646 C 0.60638 0.63987 0.33901 0.0
C647 C 0.59314 0.65633 0.35871 0.0
C648 C 0.59922 0.62921 0.3062 0.0
C649 C 0.57879 0.63505 0.29216 0.0
C650 C 0.56564 0.65173 0.31157 0.0
C651 C 0.57275 0.66227 0.3445 0.0
C652 C 0.57076 0.62278 0.25814 0.0
C653 C 0.55136 0.60902 0.25874 0.0
C654 C 0.58259 0.62329 0.22593 0.0
C655 C 0.60251 0.63874 0.22283 0.0
C656 C 0.60269 0.66514 0.23125 0.0
C657 C 0.62154 0.67955 0.22849 0.0
C658 C 0.6403 0.66781 0.2171 0.0
C659 C 0.64023 0.64165 0.20836 0.0
C660 C 0.62143 0.62714 0.21111 0.0
C661 C 0.52066 0.57182 0.11823 0.0
C662 C 0.53334 0.55232 0.10347 0.0
C663 C 0.52813 0.58627 0.14786 0.0
C664 C 0.54837 0.58142 0.1634 0.0
C665 C 0.56133 0.56253 0.14804 0.0
C666 C 0.55388 0.54806 0.11843 0.0
C667 C 0.55575 0.59542 0.19641 0.0
C668 C 0.57502 0.6094 0.19561 0.0
C669 C 0.54379 0.59519 0.22843 0.0
C670 C 0.52381 0.57986 0.23152 0.0
C671 C 0.52377 0.55321 0.22492 0.0
C672 C 0.50483 0.53895 0.22745 0.0
C673 C 0.48585 0.55109 0.23685 0.0
C674 C 0.48579 0.57752 0.24385 0.0
C675 C 0.50469 0.59187 0.24131 0.0
H676 H 0.47119 0.54002 0.23879 0.0
H677 H 0.65488 0.67901 0.21498 0.0
H678 H 0.95055 0.16134 0.85905 0.0
H679 H 0.96286 0.14277 0.80252 0.0
H680 H 0.89808 0.12043 0.77407 0.0
H681 H 0.88571 0.13832 0.83115 0.0
H682 H 0.92549 0.08139 0.76444 0.0
H683 H 0.92276 0.17049 0.73159 0.0
H684 H 0.93062 0.2168 0.73849 0.0
H685 H 0.99795 0.20186 0.73272 0.0
H686 H 0.99052 0.15541 0.72627 0.0
H687 H 0.9494 0.03863 0.58883 0.0
H688 H 0.9342 0.06275 0.63881 0.0
H689 H 0.997 0.09212 0.6679 0.0
H690 H 0.01215 0.06883 0.61704 0.0
H691 H 0.9691 0.12858 0.67574 0.0
H692 H 0.97283 0.04025 0.71279 0.0
H693 H 0.9661 0.9936 0.7074 0.0
H694 H 0.89832 0.00661 0.70749 0.0
H695 H 0.90466 0.05339 0.7124 0.0
C696 C 0.9389 0.15248 0.84077 0.0
C697 C 0.91714 0.15126 0.84969 0.0
C698 C 0.94594 0.14209 0.80828 0.0
C699 C 0.93137 0.13039 0.78388 0.0
C700 C 0.9096 0.12944 0.79244 0.0
C701 C 0.90253 0.13986 0.82495 0.0
C702 C 0.93902 0.11807 0.75028 0.0
C703 C 0.9347 0.09182 0.74471 0.0
C704 C 0.95158 0.13148 0.72508 0.0
C705 C 0.95608 0.15944 0.72874 0.0
C706 C 0.93925 0.17705 0.73205 0.0
C707 C 0.94363 0.20334 0.73584 0.0
C708 C 0.96477 0.21226 0.73612 0.0
C709 C 0.98158 0.19492 0.73252 0.0
C710 C 0.97729 0.16862 0.72876 0.0
C711 C 0.95995 0.05034 0.60575 0.0
C712 C 0.98201 0.05166 0.59916 0.0
C713 C 0.95126 0.06404 0.63444 0.0
C714 C 0.9645 0.07886 0.65767 0.0
C715 C 0.98644 0.08077 0.65048 0.0
C716 C 0.9951 0.0674 0.62143 0.0
C717 C 0.95563 0.09185 0.68993 0.0
C718 C 0.95975 0.11818 0.69532 0.0
C719 C 0.94306 0.07846 0.71522 0.0
C720 C 0.93922 0.05033 0.7126 0.0
C721 C 0.95649 0.03317 0.71143 0.0
C722 C 0.95275 0.00671 0.70849 0.0
C723 C 0.9318 0.99715 0.70701 0.0
C724 C 0.91454 0.01404 0.70859 0.0
C725 C 0.9182 0.04053 0.71148 0.0
H726 H 0.92893 0.97666 0.70472 0.0
H727 H 0.96812 0.23261 0.73906 0.0
H728 H 0.43313 0.3213 0.32874 0.0
H729 H 0.45086 0.34412 0.27997 0.0
H730 H 0.39169 0.38237 0.25282 0.0
H731 H 0.37385 0.35941 0.30126 0.0
H732 H 0.41088 0.36765 0.19325 0.0
H733 H 0.43251 0.41255 0.30202 0.0
H734 H 0.44804 0.41676 0.3635 0.0
H735 H 0.50823 0.38889 0.32612 0.0
H736 H 0.49297 0.38418 0.26448 0.0
H737 H 0.45005 0.47347 0.09423 0.0
H738 H 0.43419 0.44611 0.14003 0.0
H739 H 0.49431 0.40695 0.15488 0.0
H740 H 0.51041 0.43436 0.10907 0.0
H741 H 0.47606 0.42006 0.21933 0.0
H742 H 0.45458 0.37775 0.10931 0.0
H743 H 0.43895 0.37512 0.04776 0.0
H744 H 0.37821 0.39934 0.08748 0.0
H745 H 0.39357 0.40251 0.14922 0.0
C746 C 0.42393 0.33464 0.31243 0.0
C747 C 0.4021 0.33862 0.31894 0.0
C748 C 0.43407 0.34767 0.28457 0.0
C749 C 0.42269 0.36524 0.26299 0.0
C750 C 0.40081 0.36889 0.26905 0.0
C751 C 0.39062 0.35572 0.29672 0.0
C752 C 0.43356 0.3801 0.2344 0.0
C753 C 0.425 0.37931 0.19906 0.0
C754 C 0.45231 0.39487 0.24171 0.0
C755 C 0.46152 0.39775 0.27873 0.0
C756 C 0.44901 0.40713 0.30697 0.0
C757 C 0.45777 0.40964 0.34183 0.0
C758 C 0.47909 0.40302 0.34873 0.0
C759 C 0.49171 0.39396 0.32075 0.0
C760 C 0.48302 0.39138 0.28584 0.0
C761 C 0.45993 0.45902 0.10716 0.0
C762 C 0.4815 0.45607 0.09793 0.0
C763 C 0.4508 0.44332 0.13324 0.0
C764 C 0.46301 0.42433 0.1506 0.0
C765 C 0.4846 0.42146 0.14173 0.0
C766 C 0.49374 0.43709 0.11548 0.0
C767 C 0.45326 0.40775 0.17838 0.0
C768 C 0.46202 0.40824 0.21352 0.0
C769 C 0.43467 0.39281 0.17091 0.0
C770 C 0.42529 0.39058 0.13387 0.0
C771 C 0.43793 0.38269 0.1049 0.0
C772 C 0.42911 0.38108 0.06997 0.0
C773 C 0.40761 0.38712 0.0637 0.0
C774 C 0.39487 0.3947 0.09237 0.0
C775 C 0.40362 0.39638 0.12735 0.0
H776 H 0.40083 0.38588 0.03663 0.0
H777 H 0.48585 0.40498 0.37574 0.0
H778 H 0.13107 0.87187 0.83874 0.0
H779 H 0.11895 0.8902 0.78126 0.0
H780 H 0.05426 0.86623 0.8027 0.0
H781 H 0.06635 0.84722 0.85974 0.0
H782 H 0.06427 0.85831 0.73214 0.0
H783 H 0.07007 0.92739 0.81934 0.0
H784 H 0.08872 0.95437 0.86516 0.0
H785 H 0.13533 0.97645 0.78738 0.0
H786 H 0.1171 0.94931 0.74121 0.0
H787 H 0.00587 0.94051 0.61483 0.0
H788 H 0.02097 0.91676 0.66586 0.0
H789 H 0.08327 0.94918 0.64534 0.0
H790 H 0.06809 0.9737 0.59499 0.0
H791 H 0.07617 0.9517 0.71381 0.0
H792 H 0.06956 0.88462 0.6253 0.0
H793 H 0.05114 0.85763 0.57926 0.0
H794 H 0.00673 0.83148 0.65821 0.0
H795 H 0.0247 0.85858 0.70465 0.0
C796 C 0.11433 0.8701 0.83096 0.0
C797 C 0.09965 0.85824 0.85397 0.0
C798 C 0.1074 0.88078 0.79823 0.0
C799 C 0.08565 0.8799 0.78793 0.0
C800 C 0.0711 0.86723 0.81017 0.0
C801 C 0.07801 0.85657 0.84291 0.0
C802 C 0.07788 0.89309 0.75477 0.0
C803 C 0.0667 0.87877 0.7282 0.0
C804 C 0.08148 0.91967 0.74928 0.0
C805 C 0.09236 0.93612 0.77695 0.0
C806 C 0.08439 0.93785 0.81209 0.0
C807 C 0.09487 0.9532 0.83811 0.0
C808 C 0.11323 0.96706 0.82921 0.0
C809 C 0.12112 0.96567 0.79424 0.0
C810 C 0.11072 0.95033 0.76814 0.0
C811 C 0.02282 0.94244 0.621 0.0
C812 C 0.03578 0.95899 0.60084 0.0
C813 C 0.03148 0.92873 0.65011 0.0
C814 C 0.05336 0.93085 0.65923 0.0
C815 C 0.06636 0.94718 0.63886 0.0
C816 C 0.05766 0.96116 0.61002 0.0
C817 C 0.06248 0.91696 0.69095 0.0
C818 C 0.07388 0.93118 0.71741 0.0
C819 C 0.05914 0.89028 0.6962 0.0
C820 C 0.04838 0.8738 0.66839 0.0
C821 C 0.05578 0.87325 0.6328 0.0
C822 C 0.04543 0.85791 0.60663 0.0
C823 C 0.02775 0.84289 0.61578 0.0
C824 C 0.02042 0.84313 0.65115 0.0
C825 C 0.03069 0.85846 0.67742 0.0
H826 H 0.01975 0.83104 0.59548 0.0
H827 H 0.12132 0.97893 0.84939 0.0
loop_
_geom_bond_atom_site_label_1
_geom_bond_atom_site_label_2
_geom_bond_distance
_geom_bond_site_symmetry_2
_ccdc_geom_bond_type
C0 C1 1.264 . S
C0 C5 1.479 . S
C0 C10 1.465 . S
C1 C0 1.264 . S
C1 C3 1.339 . S
C1 H28 0.931 . S
C2 C3 1.395 . S
C2 C4 1.320 . S
C3 C1 1.339 . S
C3 C2 1.395 . S
C3 H29 0.929 . S
C4 C2 1.320 . S
C4 C5 1.405 . S
C4 H30 0.930 . S
C5 C0 1.479 . S
C5 C4 1.405 . S
C5 H31 0.931 . S
U6 O7 2.454 . S
U6 O8 2.458 1_554 S
U6 C9 2.984 . S
U6 C10 2.847 . S
U6 C23 2.882 1_554 S
U6 O24 2.441 . S
U6 O25 2.420 . S
U6 O26 2.455 1_554 S
U6 O27 2.449 1_554 S
O7 U6 2.454 . S
O7 C9 1.353 . S
O8 U6 2.458 1_556 S
O8 C9 1.286 1_556 S
C9 U6 2.984 . S
C9 O7 1.353 . S
C9 O8 1.286 1_554 S
C9 C11 1.363 . S
C10 C0 1.465 . S
C10 U6 2.847 . S
C10 O24 1.249 . S
C10 O25 1.202 . S
C11 C9 1.363 . S
C11 C13 1.408 . S
C11 C16 1.342 1_554 S
C12 C13 1.310 . S
C12 C15 1.461 . S
C12 H32 0.932 . S
C13 C11 1.408 . S
C13 C12 1.310 . S
C13 H33 0.930 . S
C14 C15 1.474 1_556 S
C14 C16 1.285 . S
C14 H34 0.929 . S
C15 C12 1.461 . S
C15 C14 1.474 1_554 S
C16 C11 1.342 1_556 S
C16 C14 1.285 . S
C16 H35 0.930 . S
C17 C20 1.424 . S
C17 C22 1.245 . S
C17 C23 1.428 . S
C18 C21 1.260 . S
C18 C22 1.477 . S
C18 H36 0.932 . S
C19 C20 1.384 . S
C19 C21 1.479 . S
C19 H37 0.929 . S
C20 C17 1.424 . S
C20 C19 1.384 . S
C20 H38 0.928 . S
C21 C18 1.260 . S
C21 C19 1.479 . S
C22 C17 1.245 . S
C22 C18 1.477 . S
C22 H39 0.932 . S
C23 U6 2.882 1_556 S
C23 C17 1.428 . S
C23 O26 1.301 . S
C23 O27 1.282 . S
O24 U6 2.441 . S
O24 C10 1.249 . S
O25 U6 2.420 . S
O25 C10 1.202 . S
O26 U6 2.455 1_556 S
O26 C23 1.301 . S
O27 U6 2.449 1_556 S
O27 C23 1.282 . S
H28 C1 0.931 . S
H29 C3 0.929 . S
H30 C4 0.930 . S
H31 C5 0.931 . S
H32 C12 0.932 . S
H33 C13 0.930 . S
H34 C14 0.929 . S
H35 C16 0.930 . S
H36 C18 0.932 . S
H37 C19 0.929 . S
H38 C20 0.928 . S
H39 C22 0.932 . S
C40 C41 1.264 . S
C40 C45 1.479 . S
C40 C50 1.465 . S
C41 C40 1.264 . S
C41 C43 1.339 . S
C41 H68 0.931 . S
C42 C43 1.395 . S
C42 C44 1.320 . S
C43 C41 1.339 . S
C43 C42 1.395 . S
C43 H69 0.929 . S
C44 C42 1.320 . S
C44 C45 1.405 . S
C44 H70 0.930 . S
C45 C40 1.479 . S
C45 C44 1.405 . S
C45 H71 0.931 . S
U46 O47 2.454 . S
U46 O48 2.458 . S
U46 C49 2.984 . S
U46 C50 2.847 . S
U46 C63 2.882 . S
U46 O64 2.441 . S
U46 O65 2.420 . S
U46 O66 2.455 . S
U46 O67 2.449 . S
O47 U46 2.454 . S
O47 C49 1.353 . S
O48 U46 2.458 . S
O48 C49 1.286 . S
C49 U46 2.984 . S
C49 O47 1.353 . S
C49 O48 1.286 . S
C49 C51 1.363 . S
C50 C40 1.465 . S
C50 U46 2.847 . S
C50 O64 1.249 . S
C50 O65 1.202 . S
C51 C49 1.363 . S
C51 C53 1.408 . S
C51 C56 1.342 . S
C52 C53 1.310 . S
C52 C55 1.461 . S
C52 H72 0.932 . S
C53 C51 1.408 . S
C53 C52 1.310 . S
C53 H73 0.930 . S
C54 C55 1.474 . S
C54 C56 1.285 . S
C54 H74 0.929 . S
C55 C52 1.461 . S
C55 C54 1.474 . S
C56 C51 1.342 . S
C56 C54 1.285 . S
C56 H75 0.930 . S
C57 C60 1.424 . S
C57 C62 1.245 . S
C57 C63 1.428 . S
C58 C61 1.260 . S
C58 C62 1.477 . S
C58 H76 0.932 . S
C59 C60 1.384 . S
C59 C61 1.479 . S
C59 H77 0.929 . S
C60 C57 1.424 . S
C60 C59 1.384 . S
C60 H78 0.928 . S
C61 C58 1.260 . S
C61 C59 1.479 . S
C62 C57 1.245 . S
C62 C58 1.477 . S
C62 H79 0.932 . S
C63 U46 2.882 . S
C63 C57 1.428 . S
C63 O66 1.301 . S
C63 O67 1.282 . S
O64 U46 2.441 . S
O64 C50 1.249 . S
O65 U46 2.420 . S
O65 C50 1.202 . S
O66 U46 2.455 . S
O66 C63 1.301 . S
O67 U46 2.449 . S
O67 C63 1.282 . S
H68 C41 0.931 . S
H69 C43 0.929 . S
H70 C44 0.930 . S
H71 C45 0.931 . S
H72 C52 0.932 . S
H73 C53 0.930 . S
H74 C54 0.929 . S
H75 C56 0.930 . S
H76 C58 0.932 . S
H77 C59 0.929 . S
H78 C60 0.928 . S
H79 C62 0.932 . S
C80 C81 1.264 . S
C80 C85 1.479 . S
C80 C90 1.465 . S
C81 C80 1.264 . S
C81 C83 1.339 . S
C81 H108 0.931 . S
C82 C83 1.395 . S
C82 C84 1.320 . S
C83 C81 1.339 . S
C83 C82 1.395 . S
C83 H109 0.929 . S
C84 C82 1.320 . S
C84 C85 1.405 . S
C84 H110 0.930 . S
C85 C80 1.479 . S
C85 C84 1.405 . S
C85 H111 0.931 . S
U86 O87 2.454 . S
U86 O88 2.458 1_554 S
U86 C89 2.984 . S
U86 C90 2.847 . S
U86 C103 2.882 1_554 S
U86 O104 2.441 . S
U86 O105 2.420 . S
U86 O106 2.455 1_554 S
U86 O107 2.449 1_554 S
O87 U86 2.454 . S
O87 C89 1.353 . S
O88 U86 2.458 1_556 S
O88 C89 1.286 1_556 S
C89 U86 2.984 . S
C89 O87 1.353 . S
C89 O88 1.286 1_554 S
C89 C91 1.363 . S
C90 C80 1.465 . S
C90 U86 2.847 . S
C90 O104 1.249 . S
C90 O105 1.202 . S
C91 C89 1.363 . S
C91 C93 1.408 . S
C91 C96 1.342 1_554 S
C92 C93 1.310 . S
C92 C95 1.461 . S
C92 H112 0.932 . S
C93 C91 1.408 . S
C93 C92 1.310 . S
C93 H113 0.930 . S
C94 C95 1.474 1_556 S
C94 C96 1.285 . S
C94 H114 0.929 . S
C95 C92 1.461 . S
C95 C94 1.474 1_554 S
C96 C91 1.342 1_556 S
C96 C94 1.285 . S
C96 H115 0.930 . S
C97 C100 1.424 . S
C97 C102 1.245 . S
C97 C103 1.428 . S
C98 C101 1.260 . S
C98 C102 1.477 . S
C98 H116 0.932 . S
C99 C100 1.384 . S
C99 C101 1.479 . S
C99 H117 0.929 . S
C100 C97 1.424 . S
C100 C99 1.384 . S
C100 H118 0.928 . S
C101 C98 1.260 . S
C101 C99 1.479 . S
C102 C97 1.245 . S
C102 C98 1.477 . S
C102 H119 0.932 . S
C103 U86 2.882 1_556 S
C103 C97 1.428 . S
C103 O106 1.301 . S
C103 O107 1.282 . S
O104 U86 2.441 . S
O104 C90 1.249 . S
O105 U86 2.420 . S
O105 C90 1.202 . S
O106 U86 2.455 1_556 S
O106 C103 1.301 . S
O107 U86 2.449 1_556 S
O107 C103 1.282 . S
H108 C81 0.931 . S
H109 C83 0.929 . S
H110 C84 0.930 . S
H111 C85 0.931 . S
H112 C92 0.932 . S
H113 C93 0.930 . S
H114 C94 0.929 . S
H115 C96 0.930 . S
H116 C98 0.932 . S
H117 C99 0.929 . S
H118 C100 0.928 . S
H119 C102 0.932 . S
C120 C121 1.264 . S
C120 C125 1.479 . S
C120 C130 1.465 . S
C121 C120 1.264 . S
C121 C123 1.339 . S
C121 H148 0.931 . S
C122 C123 1.395 . S
C122 C124 1.320 . S
C123 C121 1.339 . S
C123 C122 1.395 . S
C123 H149 0.929 . S
C124 C122 1.320 . S
C124 C125 1.405 . S
C124 H150 0.930 . S
C125 C120 1.479 . S
C125 C124 1.405 . S
C125 H151 0.931 . S
U126 O127 2.454 . S
U126 O128 2.458 . S
U126 C129 2.984 . S
U126 C130 2.847 . S
U126 C143 2.882 . S
U126 O144 2.441 . S
U126 O145 2.420 . S
U126 O146 2.455 . S
U126 O147 2.449 . S
O127 U126 2.454 . S
O127 C129 1.353 . S
O128 U126 2.458 . S
O128 C129 1.286 . S
C129 U126 2.984 . S
C129 O127 1.353 . S
C129 O128 1.286 . S
C129 C131 1.363 . S
C130 C120 1.465 . S
C130 U126 2.847 . S
C130 O144 1.249 . S
C130 O145 1.202 . S
C131 C129 1.363 . S
C131 C133 1.408 . S
C131 C136 1.342 . S
C132 C133 1.310 . S
C132 C135 1.461 . S
C132 H152 0.932 . S
C133 C131 1.408 . S
C133 C132 1.310 . S
C133 H153 0.930 . S
C134 C135 1.474 . S
C134 C136 1.285 . S
C134 H154 0.929 . S
C135 C132 1.461 . S
C135 C134 1.474 . S
C136 C131 1.342 . S
C136 C134 1.285 . S
C136 H155 0.930 . S
C137 C140 1.424 . S
C137 C142 1.245 . S
C137 C143 1.428 . S
C138 C141 1.260 . S
C138 C142 1.477 . S
C138 H156 0.932 . S
C139 C140 1.384 . S
C139 C141 1.479 . S
C139 H157 0.929 . S
C140 C137 1.424 . S
C140 C139 1.384 . S
C140 H158 0.928 . S
C141 C138 1.260 . S
C141 C139 1.479 . S
C142 C137 1.245 . S
C142 C138 1.477 . S
C142 H159 0.932 . S
C143 U126 2.882 . S
C143 C137 1.428 . S
C143 O146 1.301 . S
C143 O147 1.282 . S
O144 U126 2.441 . S
O144 C130 1.249 . S
O145 U126 2.420 . S
O145 C130 1.202 . S
O146 U126 2.455 . S
O146 C143 1.301 . S
O147 U126 2.449 . S
O147 C143 1.282 . S
H148 C121 0.931 . S
H149 C123 0.929 . S
H150 C124 0.930 . S
H151 C125 0.931 . S
H152 C132 0.932 . S
H153 C133 0.930 . S
H154 C134 0.929 . S
H155 C136 0.930 . S
H156 C138 0.932 . S
H157 C139 0.929 . S
H158 C140 0.928 . S
H159 C142 0.932 . S
C160 O176 1.251 . S
C160 O178 1.280 . S
N161 C162 1.333 . S
N161 C166 1.307 . S
N161 Zn167 2.020 . S
C162 N161 1.333 . S
C162 C163 1.379 . S
C162 H180 0.952 . S
C163 C162 1.379 . S
C163 C164 1.390 . S
C163 H190 0.949 . S
C164 C163 1.390 . S
C164 C165 1.357 . S
C165 C164 1.357 . S
C165 C166 1.370 . S
C165 H191 0.950 . S
C166 N161 1.307 . S
C166 C165 1.370 . S
C166 H184 0.948 . S
Zn167 N161 2.020 . S
Zn167 O176 2.039 1_545 S
Zn167 O182 2.034 1_545 S
Zn167 O186 2.025 . S
Zn167 O188 2.024 . S
C168 O187 1.246 . S
C168 O188 1.249 1_655 S
N169 C170 1.307 . S
N169 C171 1.333 . S
N169 Zn175 2.020 . S
C170 N169 1.307 . S
C170 C174 1.370 . S
C170 H181 0.948 . S
C171 N169 1.333 . S
C171 C172 1.379 . S
C171 H179 0.987 . S
C172 C171 1.379 . S
C172 C173 1.390 . S
C172 H192 0.949 . S
C173 C172 1.390 . S
C173 C174 1.357 . S
C174 C170 1.370 . S
C174 C173 1.357 . S
C174 H193 0.950 . S
Zn175 N169 2.020 . S
Zn175 O178 2.011 1_655 S
Zn175 O183 2.019 1_655 S
Zn175 O185 2.039 1_565 S
Zn175 O187 2.034 1_565 S
O176 C160 1.251 . S
O176 Zn167 2.039 1_565 S
C177 O182 1.246 . S
C177 O183 1.260 . S
O178 C160 1.280 . S
O178 Zn175 2.011 1_455 S
H179 C171 0.987 . S
H180 C162 0.952 . S
H181 C170 0.948 . S
O182 Zn167 2.034 1_565 S
O182 C177 1.246 . S
O183 Zn175 2.019 1_455 S
O183 C177 1.260 . S
H184 C166 0.948 . S
O185 Zn175 2.039 1_545 S
O185 C189 1.251 . S
O186 Zn167 2.025 . S
O186 C189 1.254 1_455 S
O187 C168 1.246 . S
O187 Zn175 2.034 1_545 S
O188 Zn167 2.024 . S
O188 C168 1.249 1_455 S
C189 O185 1.251 . S
C189 O186 1.254 1_655 S
H190 C163 0.949 . S
H191 C165 0.950 . S
H192 C172 0.949 . S
H193 C174 0.950 . S
C194 O210 1.251 . S
C194 O212 1.254 . S
N195 C196 1.333 . S
N195 C200 1.307 . S
N195 Zn201 2.020 . S
C196 N195 1.333 . S
C196 C197 1.379 . S
C196 H214 0.952 1_554 S
C197 C196 1.379 . S
C197 C198 1.390 . S
C197 H224 0.949 1_554 S
C198 C197 1.390 . S
C198 C199 1.357 . S
C199 C198 1.357 . S
C199 C200 1.370 . S
C199 H225 0.950 . S
C200 N195 1.307 . S
C200 C199 1.370 . S
C200 H218 0.948 . S
Zn201 N195 2.020 . S
Zn201 O210 2.039 1_554 S
Zn201 O216 2.034 . S
Zn201 O220 2.025 . S
Zn201 O222 2.024 1_554 S
C202 O221 1.246 . S
C202 O222 1.249 . S
N203 C204 1.307 . S
N203 C205 1.333 . S
N203 Zn209 2.020 . S
C204 N203 1.307 . S
C204 C208 1.370 . S
C204 H215 0.948 1_554 S
C205 N203 1.333 . S
C205 C206 1.379 . S
C205 H213 0.952 . S
C206 C205 1.379 . S
C206 C207 1.390 . S
C206 H226 0.949 . S
C207 C206 1.390 . S
C207 C208 1.357 . S
C208 C204 1.370 . S
C208 C207 1.357 . S
C208 H227 0.945 1_554 S
Zn209 N203 2.020 . S
Zn209 O212 2.025 1_554 S
Zn209 O217 2.024 . S
Zn209 O219 2.039 . S
Zn209 O221 2.034 1_554 S
O210 C194 1.251 . S
O210 Zn201 2.039 1_556 S
C211 O216 1.246 . S
C211 O217 1.249 . S
O212 C194 1.254 . S
O212 Zn209 2.025 1_556 S
H213 C205 0.952 . S
H214 C196 0.952 1_556 S
H215 C204 0.948 1_556 S
O216 Zn201 2.034 . S
O216 C211 1.246 . S
O217 Zn209 2.024 . S
O217 C211 1.249 . S
H218 C200 0.948 . S
O219 Zn209 2.039 . S
O219 C223 1.251 . S
O220 Zn201 2.025 . S
O220 C223 1.254 . S
O221 C202 1.246 . S
O221 Zn209 2.034 1_556 S
O222 Zn201 2.024 1_556 S
O222 C202 1.249 . S
C223 O219 1.251 . S
C223 O220 1.254 . S
H224 C197 0.949 1_556 S
H225 C199 0.950 . S
H226 C206 0.949 . S
H227 C208 0.945 1_556 S
H228 C246 0.951 . S
H229 C248 0.951 . S
H230 C250 0.950 . S
H231 C251 0.950 . S
H232 C253 0.950 . S
H233 C256 0.950 . S
H234 C257 0.950 . S
H235 C259 0.950 . S
H236 C260 0.950 . S
H237 C261 0.951 . S
H238 C263 0.951 . S
H239 C265 0.950 . S
H240 C266 0.950 . S
H241 C268 0.950 . S
H242 C271 0.950 . S
H243 C272 0.950 . S
H244 C274 0.950 . S
H245 C275 0.950 . S
C246 H228 0.951 . S
C246 C247 1.366 . S
C246 C248 1.388 . S
C247 C246 1.366 . S
C247 C251 1.385 . S
C248 H229 0.951 . S
C248 C246 1.388 . S
C248 C249 1.366 . S
C249 C248 1.366 . S
C249 C250 1.414 . S
C249 C252 1.499 . S
C250 H230 0.950 . S
C250 C249 1.414 . S
C250 C251 1.374 . S
C251 H231 0.950 . S
C251 C247 1.385 . S
C251 C250 1.374 . S
C252 C249 1.499 . S
C252 C253 1.373 . S
C252 C254 1.389 . S
C253 H232 0.950 . S
C253 C252 1.373 . S
C253 C269 1.377 . S
C254 C252 1.389 . S
C254 C255 1.524 . S
C254 C268 1.377 . S
C255 C254 1.524 . S
C255 C256 1.397 . S
C255 C260 1.363 . S
C256 H233 0.950 . S
C256 C255 1.397 . S
C256 C257 1.334 . S
C257 H234 0.950 . S
C257 C256 1.334 . S
C257 C258 1.287 . S
C258 C257 1.287 . S
C258 C259 1.524 . S
C258 H277 0.913 . S
C259 H235 0.950 . S
C259 C258 1.524 . S
C259 C260 1.415 . S
C260 H236 0.950 . S
C260 C255 1.363 . S
C260 C259 1.415 . S
C261 H237 0.951 . S
C261 C262 1.366 . S
C261 C263 1.388 . S
C262 C261 1.366 . S
C262 C266 1.385 . S
C263 H238 0.951 . S
C263 C261 1.388 . S
C263 C264 1.366 . S
C264 C263 1.366 . S
C264 C265 1.414 . S
C264 C267 1.499 . S
C265 H239 0.950 . S
C265 C264 1.414 . S
C265 C266 1.374 . S
C266 H240 0.950 . S
C266 C262 1.385 . S
C266 C265 1.374 . S
C267 C264 1.499 . S
C267 C268 1.373 . S
C267 C269 1.389 . S
C268 H241 0.950 . S
C268 C254 1.377 . S
C268 C267 1.373 . S
C269 C253 1.377 . S
C269 C267 1.389 . S
C269 C270 1.524 . S
C270 C269 1.524 . S
C270 C271 1.397 . S
C270 C275 1.363 . S
C271 H242 0.950 . S
C271 C270 1.397 . S
C271 C272 1.334 . S
C272 H243 0.950 . S
C272 C271 1.334 . S
C272 C273 1.287 . S
C273 C272 1.287 . S
C273 C274 1.524 . S
C273 H276 0.999 . S
C274 H244 0.950 . S
C274 C273 1.524 . S
C274 C275 1.415 . S
C275 H245 0.950 . S
C275 C270 1.363 . S
C275 C274 1.415 . S
H276 C273 0.999 . S
H277 C258 0.913 . S
H278 C296 0.951 . S
H279 C298 0.951 1_556 S
H280 C300 0.950 . S
H281 C301 0.950 . S
H282 C303 0.950 . S
H283 C306 0.950 . S
H284 C307 0.950 . S
H285 C309 0.950 . S
H286 C310 0.950 . S
H287 C311 0.951 . S
H288 C313 0.951 . S
H289 C315 0.956 . S
H290 C316 0.954 . S
H291 C318 0.950 . S
H292 C321 0.950 . S
H293 C322 0.950 . S
H294 C324 0.950 . S
H295 C325 0.950 . S
C296 H278 0.951 . S
C296 C297 1.366 . S
C296 C298 1.388 . S
C297 C296 1.366 . S
C297 C301 1.385 . S
C298 H279 0.951 1_554 S
C298 C296 1.388 . S
C298 C299 1.366 . S
C299 C298 1.366 . S
C299 C300 1.414 . S
C299 C302 1.499 . S
C300 H280 0.950 . S
C300 C299 1.414 . S
C300 C301 1.374 . S
C301 H281 0.950 . S
C301 C297 1.385 . S
C301 C300 1.374 . S
C302 C299 1.499 . S
C302 C303 1.373 . S
C302 C304 1.389 1_554 S
C303 H282 0.950 . S
C303 C302 1.373 . S
C303 C319 1.377 . S
C304 C302 1.389 1_556 S
C304 C305 1.524 . S
C304 C318 1.377 . S
C305 C304 1.524 . S
C305 C306 1.397 . S
C305 C310 1.363 . S
C306 H283 0.950 . S
C306 C305 1.397 . S
C306 C307 1.334 . S
C307 H284 0.950 . S
C307 C306 1.334 . S
C307 C308 1.287 . S
C308 C307 1.287 . S
C308 C309 1.524 . S
C308 H327 0.913 . S
C309 H285 0.950 . S
C309 C308 1.524 . S
C309 C310 1.415 . S
C310 H286 0.950 . S
C310 C305 1.363 . S
C310 C309 1.415 . S
C311 H287 0.951 . S
C311 C312 1.366 . S
C311 C313 1.388 . S
C312 C311 1.366 . S
C312 C316 1.385 . S
C313 H288 0.951 . S
C313 C311 1.388 . S
C313 C314 1.366 . S
C314 C313 1.366 . S
C314 C315 1.414 . S
C314 C317 1.499 . S
C315 H289 0.956 . S
C315 C314 1.414 . S
C315 C316 1.374 . S
C316 H290 0.954 . S
C316 C312 1.385 . S
C316 C315 1.374 . S
C317 C314 1.499 . S
C317 C318 1.373 1_554 S
C317 C319 1.389 . S
C318 H291 0.950 . S
C318 C304 1.377 . S
C318 C317 1.373 1_556 S
C319 C303 1.377 . S
C319 C317 1.389 . S
C319 C320 1.524 . S
C320 C319 1.524 . S
C320 C321 1.397 . S
C320 C325 1.363 . S
C321 H292 0.950 . S
C321 C320 1.397 . S
C321 C322 1.334 . S
C322 H293 0.950 . S
C322 C321 1.334 . S
C322 C323 1.287 . S
C323 C322 1.287 . S
C323 C324 1.524 . S
C323 H326 0.999 . S
C324 H294 0.950 . S
C324 C323 1.524 . S
C324 C325 1.415 . S
C325 H295 0.950 . S
C325 C320 1.363 . S
C325 C324 1.415 . S
H326 C323 0.999 . S
H327 C308 0.913 . S
H328 C346 0.951 . S
H329 C348 0.951 . S
H330 C350 0.950 . S
H331 C351 0.950 . S
H332 C353 0.950 . S
H333 C356 0.950 . S
H334 C357 0.950 . S
H335 C359 0.950 . S
H336 C360 0.950 . S
H337 C361 0.951 . S
H338 C363 0.951 . S
H339 C365 0.950 . S
H340 C366 0.950 . S
H341 C368 0.950 . S
H342 C371 0.950 . S
H343 C372 0.950 . S
H344 C374 0.950 . S
H345 C375 0.950 . S
C346 H328 0.951 . S
C346 C347 1.366 . S
C346 C348 1.388 . S
C347 C346 1.366 . S
C347 C351 1.385 . S
C348 H329 0.951 . S
C348 C346 1.388 . S
C348 C349 1.366 . S
C349 C348 1.366 . S
C349 C350 1.414 . S
C349 C352 1.499 . S
C350 H330 0.950 . S
C350 C349 1.414 . S
C350 C351 1.374 . S
C351 H331 0.950 . S
C351 C347 1.385 . S
C351 C350 1.374 . S
C352 C349 1.499 . S
C352 C353 1.373 . S
C352 C354 1.389 . S
C353 H332 0.950 . S
C353 C352 1.373 . S
C353 C369 1.377 . S
C354 C352 1.389 . S
C354 C355 1.524 . S
C354 C368 1.377 . S
C355 C354 1.524 . S
C355 C356 1.397 . S
C355 C360 1.363 . S
C356 H333 0.950 . S
C356 C355 1.397 . S
C356 C357 1.334 . S
C357 H334 0.950 . S
C357 C356 1.334 . S
C357 C358 1.287 . S
C358 C357 1.287 . S
C358 C359 1.524 . S
C358 H377 0.913 . S
C359 H335 0.950 . S
C359 C358 1.524 . S
C359 C360 1.415 . S
C360 H336 0.950 . S
C360 C355 1.363 . S
C360 C359 1.415 . S
C361 H337 0.951 . S
C361 C362 1.366 . S
C361 C363 1.388 . S
C362 C361 1.366 . S
C362 C366 1.385 . S
C363 H338 0.951 . S
C363 C361 1.388 . S
C363 C364 1.366 . S
C364 C363 1.366 . S
C364 C365 1.414 . S
C364 C367 1.499 . S
C365 H339 0.950 . S
C365 C364 1.414 . S
C365 C366 1.374 . S
C366 H340 0.950 . S
C366 C362 1.385 . S
C366 C365 1.374 . S
C367 C364 1.499 . S
C367 C368 1.373 . S
C367 C369 1.389 . S
C368 H341 0.950 . S
C368 C354 1.377 . S
C368 C367 1.373 . S
C369 C353 1.377 . S
C369 C367 1.389 . S
C369 C370 1.524 . S
C370 C369 1.524 . S
C370 C371 1.397 . S
C370 C375 1.363 . S
C371 H342 0.950 . S
C371 C370 1.397 . S
C371 C372 1.334 . S
C372 H343 0.950 . S
C372 C371 1.334 . S
C372 C373 1.287 . S
C373 C372 1.287 . S
C373 C374 1.524 . S
C373 H376 0.999 . S
C374 H344 0.950 . S
C374 C373 1.524 . S
C374 C375 1.415 . S
C375 H345 0.950 . S
C375 C370 1.363 . S
C375 C374 1.415 . S
H376 C373 0.999 . S
H377 C358 0.913 . S
H378 C396 0.951 . S
H379 C398 0.951 . S
H380 C400 0.950 . S
H381 C401 0.950 . S
H382 C403 0.950 . S
H383 C406 0.950 1_556 S
H384 C407 0.950 . S
H385 C409 0.950 . S
H386 C410 0.950 . S
H387 C411 0.951 . S
H388 C413 0.951 . S
H389 C415 0.950 . S
H390 C416 0.950 . S
H391 C418 0.950 . S
H392 C421 0.950 . S
H393 C422 0.950 1_554 S
H394 C424 0.950 . S
H395 C425 0.950 . S
C396 H378 0.951 . S
C396 C397 1.366 . S
C396 C398 1.388 . S
C397 C396 1.366 . S
C397 C401 1.385 1_554 S
C398 H379 0.951 . S
C398 C396 1.388 . S
C398 C399 1.366 . S
C399 C398 1.366 . S
C399 C400 1.414 1_554 S
C399 C402 1.499 . S
C400 H380 0.950 . S
C400 C399 1.414 1_556 S
C400 C401 1.374 . S
C401 H381 0.950 . S
C401 C397 1.385 1_556 S
C401 C400 1.374 . S
C402 C399 1.499 . S
C402 C403 1.373 1_554 S
C402 C404 1.389 . S
C403 H382 0.950 . S
C403 C402 1.373 1_556 S
C403 C419 1.377 . S
C404 C402 1.389 . S
C404 C405 1.524 . S
C404 C418 1.377 . S
C405 C404 1.524 . S
C405 C406 1.397 . S
C405 C410 1.363 . S
C406 H383 0.950 1_554 S
C406 C405 1.397 . S
C406 C407 1.334 . S
C407 H384 0.950 . S
C407 C406 1.334 . S
C407 C408 1.287 . S
C408 C407 1.287 . S
C408 C409 1.524 . S
C408 H427 0.913 . S
C409 H385 0.950 . S
C409 C408 1.524 . S
C409 C410 1.415 . S
C410 H386 0.950 . S
C410 C405 1.363 . S
C410 C409 1.415 . S
C411 H387 0.951 . S
C411 C412 1.366 1_556 S
C411 C413 1.388 . S
C412 C411 1.366 1_554 S
C412 C416 1.385 . S
C413 H388 0.951 . S
C413 C411 1.388 . S
C413 C414 1.366 1_556 S
C414 C413 1.366 1_554 S
C414 C415 1.414 . S
C414 C417 1.499 . S
C415 H389 0.950 . S
C415 C414 1.414 . S
C415 C416 1.374 . S
C416 H390 0.950 . S
C416 C412 1.385 . S
C416 C415 1.374 . S
C417 C414 1.499 . S
C417 C418 1.373 . S
C417 C419 1.389 1_554 S
C418 H391 0.950 . S
C418 C404 1.377 . S
C418 C417 1.373 . S
C419 C403 1.377 . S
C419 C417 1.389 1_556 S
C419 C420 1.524 . S
C420 C419 1.524 . S
C420 C421 1.397 1_556 S
C420 C425 1.363 . S
C421 H392 0.950 . S
C421 C420 1.397 1_554 S
C421 C422 1.334 1_554 S
C422 H393 0.950 1_556 S
C422 C421 1.334 1_556 S
C422 C423 1.287 . S
C423 C422 1.287 . S
C423 C424 1.524 . S
C423 H426 0.999 . S
C424 H394 0.950 . S
C424 C423 1.524 . S
C424 C425 1.415 . S
C425 H395 0.950 . S
C425 C420 1.363 . S
C425 C424 1.415 . S
H426 C423 0.999 . S
H427 C408 0.913 . S
H428 C446 0.951 . S
H429 C448 0.951 . S
H430 C450 0.950 . S
H431 C451 0.950 . S
H432 C453 0.950 . S
H433 C456 0.950 . S
H434 C457 0.950 . S
H435 C459 0.962 . S
H436 C460 0.950 . S
H437 C461 0.951 . S
H438 C463 0.951 . S
H439 C465 0.950 . S
H440 C466 0.950 . S
H441 C468 0.950 . S
H442 C471 0.950 . S
H443 C472 0.950 . S
H444 C474 0.950 . S
H445 C475 0.950 . S
C446 H428 0.951 . S
C446 C447 1.366 . S
C446 C448 1.388 . S
C447 C446 1.366 . S
C447 C451 1.385 . S
C448 H429 0.951 . S
C448 C446 1.388 . S
C448 C449 1.366 . S
C449 C448 1.366 . S
C449 C450 1.414 . S
C449 C452 1.499 . S
C450 H430 0.950 . S
C450 C449 1.414 . S
C450 C451 1.374 . S
C451 H431 0.950 . S
C451 C447 1.385 . S
C451 C450 1.374 . S
C452 C449 1.499 . S
C452 C453 1.373 . S
C452 C454 1.389 . S
C453 H432 0.950 . S
C453 C452 1.373 . S
C453 C469 1.377 . S
C454 C452 1.389 . S
C454 C455 1.524 . S
C454 C468 1.377 . S
C455 C454 1.524 . S
C455 C456 1.397 . S
C455 C460 1.363 . S
C456 H433 0.950 . S
C456 C455 1.397 . S
C456 C457 1.334 1_455 S
C457 H434 0.950 . S
C457 C456 1.334 1_655 S
C457 C458 1.287 . S
C458 C457 1.287 . S
C458 C459 1.540 . S
C458 H477 0.913 . S
C459 H435 0.962 . S
C459 C458 1.540 . S
C459 C460 1.386 1_655 S
C460 H436 0.950 . S
C460 C455 1.363 . S
C460 C459 1.386 1_455 S
C461 H437 0.951 . S
C461 C462 1.366 . S
C461 C463 1.388 . S
C462 C461 1.366 . S
C462 C466 1.385 . S
C463 H438 0.951 . S
C463 C461 1.388 . S
C463 C464 1.366 . S
C464 C463 1.366 . S
C464 C465 1.414 . S
C464 C467 1.499 . S
C465 H439 0.950 . S
C465 C464 1.414 . S
C465 C466 1.374 . S
C466 H440 0.950 . S
C466 C462 1.385 . S
C466 C465 1.374 . S
C467 C464 1.499 . S
C467 C468 1.373 . S
C467 C469 1.389 . S
C468 H441 0.950 . S
C468 C454 1.377 . S
C468 C467 1.373 . S
C469 C453 1.377 . S
C469 C467 1.389 . S
C469 C470 1.524 . S
C470 C469 1.524 . S
C470 C471 1.397 . S
C470 C475 1.363 . S
C471 H442 0.950 . S
C471 C470 1.397 . S
C471 C472 1.334 . S
C472 H443 0.950 . S
C472 C471 1.334 . S
C472 C473 1.287 . S
C473 C472 1.287 . S
C473 C474 1.524 . S
C473 H476 0.999 . S
C474 H444 0.950 . S
C474 C473 1.524 . S
C474 C475 1.415 . S
C475 H445 0.950 . S
C475 C470 1.363 . S
C475 C474 1.415 . S
H476 C473 0.999 . S
H477 C458 0.913 . S
H478 C496 0.951 . S
H479 C498 0.951 . S
H480 C500 0.950 . S
H481 C501 0.950 . S
H482 C503 0.950 . S
H483 C506 0.950 . S
H484 C507 0.950 . S
H485 C509 0.950 . S
H486 C510 0.950 . S
H487 C511 0.951 . S
H488 C513 0.951 . S
H489 C515 0.950 . S
H490 C516 0.950 . S
H491 C518 0.950 . S
H492 C521 0.950 . S
H493 C522 0.950 . S
H494 C524 0.950 . S
H495 C525 0.950 . S
C496 H478 0.951 . S
C496 C497 1.366 . S
C496 C498 1.388 . S
C497 C496 1.366 . S
C497 C501 1.385 . S
C498 H479 0.951 . S
C498 C496 1.388 . S
C498 C499 1.366 . S
C499 C498 1.366 . S
C499 C500 1.414 . S
C499 C502 1.499 . S
C500 H480 0.950 . S
C500 C499 1.414 . S
C500 C501 1.374 . S
C501 H481 0.950 . S
C501 C497 1.385 . S
C501 C500 1.374 . S
C502 C499 1.499 . S
C502 C503 1.373 . S
C502 C504 1.389 . S
C503 H482 0.950 . S
C503 C502 1.373 . S
C503 C519 1.377 . S
C504 C502 1.389 . S
C504 C505 1.524 . S
C504 C518 1.377 . S
C505 C504 1.524 . S
C505 C506 1.397 . S
C505 C510 1.363 . S
C506 H483 0.950 . S
C506 C505 1.397 . S
C506 C507 1.334 . S
C507 H484 0.950 . S
C507 C506 1.334 . S
C507 C508 1.287 . S
C508 C507 1.287 . S
C508 C509 1.524 . S
C508 H527 0.913 . S
C509 H485 0.950 . S
C509 C508 1.524 . S
C509 C510 1.415 . S
C510 H486 0.950 . S
C510 C505 1.363 . S
C510 C509 1.415 . S
C511 H487 0.951 . S
C511 C512 1.366 . S
C511 C513 1.388 . S
C512 C511 1.366 . S
C512 C516 1.385 . S
C513 H488 0.951 . S
C513 C511 1.388 . S
C513 C514 1.366 . S
C514 C513 1.366 . S
C514 C515 1.414 . S
C514 C517 1.499 . S
C515 H489 0.950 . S
C515 C514 1.414 . S
C515 C516 1.374 . S
C516 H490 0.950 . S
C516 C512 1.385 . S
C516 C515 1.374 . S
C517 C514 1.499 . S
C517 C518 1.373 . S
C517 C519 1.389 . S
C518 H491 0.950 . S
C518 C504 1.377 . S
C518 C517 1.373 . S
C519 C503 1.377 . S
C519 C517 1.389 . S
C519 C520 1.524 . S
C520 C519 1.524 . S
C520 C521 1.397 . S
C520 C525 1.363 . S
C521 H492 0.950 . S
C521 C520 1.397 . S
C521 C522 1.334 . S
C522 H493 0.950 . S
C522 C521 1.334 . S
C522 C523 1.287 . S
C523 C522 1.287 . S
C523 C524 1.524 . S
C523 H526 0.999 . S
C524 H494 0.950 . S
C524 C523 1.524 . S
C524 C525 1.415 . S
C525 H495 0.950 . S
C525 C520 1.363 . S
C525 C524 1.415 . S
H526 C523 0.999 . S
H527 C508 0.913 . S
H528 C546 0.951 . S
H529 C548 0.951 . S
H530 C550 0.950 . S
H531 C551 0.950 . S
H532 C553 0.950 . S
H533 C556 0.952 . S
H534 C557 0.950 . S
H535 C559 0.950 . S
H536 C560 0.950 . S
H537 C561 0.951 . S
H538 C563 0.951 . S
H539 C565 0.950 . S
H540 C566 0.950 . S
H541 C568 0.950 . S
H542 C571 0.950 . S
H543 C572 0.950 . S
H544 C574 0.950 . S
H545 C575 0.950 . S
C546 H528 0.951 . S
C546 C547 1.366 . S
C546 C548 1.388 . S
C547 C546 1.366 . S
C547 C551 1.385 . S
C548 H529 0.951 . S
C548 C546 1.388 . S
C548 C549 1.366 . S
C549 C548 1.366 . S
C549 C550 1.414 . S
C549 C552 1.499 . S
C550 H530 0.950 . S
C550 C549 1.414 . S
C550 C551 1.374 . S
C551 H531 0.950 . S
C551 C547 1.385 . S
C551 C550 1.374 . S
C552 C549 1.499 . S
C552 C553 1.373 . S
C552 C554 1.389 . S
C553 H532 0.950 . S
C553 C552 1.373 . S
C553 C569 1.377 . S
C554 C552 1.389 . S
C554 C555 1.524 . S
C554 C568 1.377 . S
C555 C554 1.524 . S
C555 C556 1.407 . S
C555 C560 1.363 . S
C556 H533 0.952 . S
C556 C555 1.407 . S
C556 C557 1.322 1_655 S
C557 H534 0.950 . S
C557 C556 1.322 1_455 S
C557 C558 1.287 . S
C558 C557 1.287 . S
C558 C559 1.524 . S
C558 H577 0.913 . S
C559 H535 0.950 . S
C559 C558 1.524 . S
C559 C560 1.415 1_455 S
C560 H536 0.950 . S
C560 C555 1.363 . S
C560 C559 1.415 1_655 S
C561 H537 0.951 . S
C561 C562 1.366 . S
C561 C563 1.388 . S
C562 C561 1.366 . S
C562 C566 1.385 . S
C563 H538 0.951 . S
C563 C561 1.388 . S
C563 C564 1.366 . S
C564 C563 1.366 . S
C564 C565 1.414 . S
C564 C567 1.499 . S
C565 H539 0.950 . S
C565 C564 1.414 . S
C565 C566 1.374 . S
C566 H540 0.950 . S
C566 C562 1.385 . S
C566 C565 1.374 . S
C567 C564 1.499 . S
C567 C568 1.373 . S
C567 C569 1.389 . S
C568 H541 0.950 . S
C568 C554 1.377 . S
C568 C567 1.373 . S
C569 C553 1.377 . S
C569 C567 1.389 . S
C569 C570 1.524 . S
C570 C569 1.524 . S
C570 C571 1.397 . S
C570 C575 1.363 . S
C571 H542 0.950 . S
C571 C570 1.397 . S
C571 C572 1.334 . S
C572 H543 0.950 . S
C572 C571 1.334 . S
C572 C573 1.287 . S
C573 C572 1.287 . S
C573 C574 1.524 . S
C573 H576 0.999 . S
C574 H544 0.950 . S
C574 C573 1.524 . S
C574 C575 1.415 . S
C575 H545 0.950 . S
C575 C570 1.363 . S
C575 C574 1.415 . S
H576 C573 0.999 . S
H577 C558 0.913 . S
H578 C596 0.951 . S
H579 C598 0.951 . S
H580 C600 0.950 . S
H581 C601 0.950 . S
H582 C603 0.950 . S
H583 C606 0.950 . S
H584 C607 0.950 . S
H585 C609 0.950 . S
H586 C610 0.950 . S
H587 C611 0.951 . S
H588 C613 0.951 . S
H589 C615 0.950 . S
H590 C616 0.950 . S
H591 C618 0.950 . S
H592 C621 0.950 . S
H593 C622 0.950 . S
H594 C624 0.950 . S
H595 C625 0.950 . S
C596 H578 0.951 . S
C596 C597 1.366 . S
C596 C598 1.388 . S
C597 C596 1.366 . S
C597 C601 1.385 . S
C598 H579 0.951 . S
C598 C596 1.388 . S
C598 C599 1.366 . S
C599 C598 1.366 . S
C599 C600 1.414 . S
C599 C602 1.499 . S
C600 H580 0.950 . S
C600 C599 1.414 . S
C600 C601 1.374 . S
C601 H581 0.950 . S
C601 C597 1.385 . S
C601 C600 1.374 . S
C602 C599 1.499 . S
C602 C603 1.373 . S
C602 C604 1.389 . S
C603 H582 0.950 . S
C603 C602 1.373 . S
C603 C619 1.377 . S
C604 C602 1.389 . S
C604 C605 1.524 . S
C604 C618 1.377 . S
C605 C604 1.524 . S
C605 C606 1.397 . S
C605 C610 1.363 . S
C606 H583 0.950 . S
C606 C605 1.397 . S
C606 C607 1.334 . S
C607 H584 0.950 . S
C607 C606 1.334 . S
C607 C608 1.287 . S
C608 C607 1.287 . S
C608 C609 1.524 . S
C608 H627 0.913 . S
C609 H585 0.950 . S
C609 C608 1.524 . S
C609 C610 1.415 . S
C610 H586 0.950 . S
C610 C605 1.363 . S
C610 C609 1.415 . S
C611 H587 0.951 . S
C611 C612 1.366 . S
C611 C613 1.388 . S
C612 C611 1.366 . S
C612 C616 1.385 . S
C613 H588 0.951 . S
C613 C611 1.388 . S
C613 C614 1.366 . S
C614 C613 1.366 . S
C614 C615 1.414 . S
C614 C617 1.499 . S
C615 H589 0.950 . S
C615 C614 1.414 . S
C615 C616 1.374 . S
C616 H590 0.950 . S
C616 C612 1.385 . S
C616 C615 1.374 . S
C617 C614 1.499 . S
C617 C618 1.373 . S
C617 C619 1.389 . S
C618 H591 0.950 . S
C618 C604 1.377 . S
C618 C617 1.373 . S
C619 C603 1.377 . S
C619 C617 1.389 . S
C619 C620 1.524 . S
C620 C619 1.524 . S
C620 C621 1.397 . S
C620 C625 1.363 . S
C621 H592 0.950 . S
C621 C620 1.397 . S
C621 C622 1.334 . S
C622 H593 0.950 . S
C622 C621 1.334 . S
C622 C623 1.287 . S
C623 C622 1.287 . S
C623 C624 1.524 . S
C623 H626 0.999 . S
C624 H594 0.950 . S
C624 C623 1.524 . S
C624 C625 1.415 . S
C625 H595 0.950 . S
C625 C620 1.363 . S
C625 C624 1.415 . S
H626 C623 0.999 . S
H627 C608 0.913 . S
H628 C646 0.951 . S
H629 C648 0.951 . S
H630 C650 0.950 . S
H631 C651 0.950 . S
H632 C653 0.950 . S
H633 C656 0.950 . S
H634 C657 0.950 . S
H635 C659 0.950 . S
H636 C660 0.950 . S
H637 C661 0.951 . S
H638 C663 0.951 . S
H639 C665 0.950 . S
H640 C666 0.950 . S
H641 C668 0.950 . S
H642 C671 0.950 . S
H643 C672 0.950 . S
H644 C674 0.950 . S
H645 C675 0.950 . S
C646 H628 0.951 . S
C646 C647 1.366 . S
C646 C648 1.388 . S
C647 C646 1.366 . S
C647 C651 1.385 . S
C648 H629 0.951 . S
C648 C646 1.388 . S
C648 C649 1.366 . S
C649 C648 1.366 . S
C649 C650 1.414 . S
C649 C652 1.499 . S
C650 H630 0.950 . S
C650 C649 1.414 . S
C650 C651 1.374 . S
C651 H631 0.950 . S
C651 C647 1.385 . S
C651 C650 1.374 . S
C652 C649 1.499 . S
C652 C653 1.373 . S
C652 C654 1.389 . S
C653 H632 0.950 . S
C653 C652 1.373 . S
C653 C669 1.377 . S
C654 C652 1.389 . S
C654 C655 1.524 . S
C654 C668 1.377 . S
C655 C654 1.524 . S
C655 C656 1.397 . S
C655 C660 1.363 . S
C656 H633 0.950 . S
C656 C655 1.397 . S
C656 C657 1.334 . S
C657 H634 0.950 . S
C657 C656 1.334 . S
C657 C658 1.287 . S
C658 C657 1.287 . S
C658 C659 1.524 . S
C658 H677 0.913 . S
C659 H635 0.950 . S
C659 C658 1.524 . S
C659 C660 1.415 . S
C660 H636 0.950 . S
C660 C655 1.363 . S
C660 C659 1.415 . S
C661 H637 0.951 . S
C661 C662 1.366 . S
C661 C663 1.388 . S
C662 C661 1.366 . S
C662 C666 1.385 . S
C663 H638 0.951 . S
C663 C661 1.388 . S
C663 C664 1.366 . S
C664 C663 1.366 . S
C664 C665 1.414 . S
C664 C667 1.499 . S
C665 H639 0.950 . S
C665 C664 1.414 . S
C665 C666 1.374 . S
C666 H640 0.950 . S
C666 C662 1.385 . S
C666 C665 1.374 . S
C667 C664 1.499 . S
C667 C668 1.373 . S
C667 C669 1.389 . S
C668 H641 0.950 . S
C668 C654 1.377 . S
C668 C667 1.373 . S
C669 C653 1.377 . S
C669 C667 1.389 . S
C669 C670 1.524 . S
C670 C669 1.524 . S
C670 C671 1.397 . S
C670 C675 1.363 . S
C671 H642 0.950 . S
C671 C670 1.397 . S
C671 C672 1.334 . S
C672 H643 0.950 . S
C672 C671 1.334 . S
C672 C673 1.287 . S
C673 C672 1.287 . S
C673 C674 1.524 . S
C673 H676 0.999 . S
C674 H644 0.950 . S
C674 C673 1.524 . S
C674 C675 1.415 . S
C675 H645 0.950 . S
C675 C670 1.363 . S
C675 C674 1.415 . S
H676 C673 0.999 . S
H677 C658 0.913 . S
H678 C696 0.951 . S
H679 C698 0.951 . S
H680 C700 0.950 . S
H681 C701 0.950 . S
H682 C703 0.950 . S
H683 C706 0.950 . S
H684 C707 0.950 . S
H685 C709 0.950 . S
H686 C710 0.950 . S
H687 C711 0.951 . S
H688 C713 0.951 . S
H689 C715 0.950 . S
H690 C716 0.950 1_455 S
H691 C718 0.950 . S
H692 C721 0.950 . S
H693 C722 0.950 . S
H694 C724 0.950 . S
H695 C725 0.950 . S
C696 H678 0.951 . S
C696 C697 1.366 . S
C696 C698 1.388 . S
C697 C696 1.366 . S
C697 C701 1.385 . S
C698 H679 0.951 . S
C698 C696 1.388 . S
C698 C699 1.366 . S
C699 C698 1.366 . S
C699 C700 1.414 . S
C699 C702 1.499 . S
C700 H680 0.950 . S
C700 C699 1.414 . S
C700 C701 1.374 . S
C701 H681 0.950 . S
C701 C697 1.385 . S
C701 C700 1.374 . S
C702 C699 1.499 . S
C702 C703 1.373 . S
C702 C704 1.389 . S
C703 H682 0.950 . S
C703 C702 1.373 . S
C703 C719 1.377 . S
C704 C702 1.389 . S
C704 C705 1.524 . S
C704 C718 1.377 . S
C705 C704 1.524 . S
C705 C706 1.397 . S
C705 C710 1.363 1_655 S
C706 H683 0.950 . S
C706 C705 1.397 . S
C706 C707 1.334 1_655 S
C707 H684 0.950 . S
C707 C706 1.334 1_455 S
C707 C708 1.287 . S
C708 C707 1.287 . S
C708 C709 1.524 . S
C708 H727 0.913 . S
C709 H685 0.950 . S
C709 C708 1.524 . S
C709 C710 1.415 . S
C710 H686 0.950 . S
C710 C705 1.363 1_455 S
C710 C709 1.415 . S
C711 H687 0.951 . S
C711 C712 1.366 . S
C711 C713 1.388 . S
C712 C711 1.366 . S
C712 C716 1.385 . S
C713 H688 0.951 . S
C713 C711 1.388 . S
C713 C714 1.366 . S
C714 C713 1.366 . S
C714 C715 1.414 . S
C714 C717 1.499 . S
C715 H689 0.950 . S
C715 C714 1.414 . S
C715 C716 1.374 . S
C716 H690 0.950 1_655 S
C716 C712 1.385 . S
C716 C715 1.374 . S
C717 C714 1.499 . S
C717 C718 1.373 . S
C717 C719 1.389 . S
C718 H691 0.950 . S
C718 C704 1.377 . S
C718 C717 1.373 . S
C719 C703 1.377 . S
C719 C717 1.389 . S
C719 C720 1.524 . S
C720 C719 1.524 . S
C720 C721 1.397 . S
C720 C725 1.363 . S
C721 H692 0.950 . S
C721 C720 1.397 . S
C721 C722 1.334 . S
C722 H693 0.950 . S
C722 C721 1.334 . S
C722 C723 1.287 . S
C723 C722 1.287 . S
C723 C724 1.524 . S
C723 H726 0.999 . S
C724 H694 0.950 . S
C724 C723 1.524 . S
C724 C725 1.415 . S
C725 H695 0.950 . S
C725 C720 1.363 . S
C725 C724 1.415 . S
H726 C723 0.999 . S
H727 C708 0.913 . S
H728 C746 0.951 . S
H729 C748 0.951 . S
H730 C750 0.950 . S
H731 C751 0.950 . S
H732 C753 0.950 . S
H733 C756 0.950 . S
H734 C757 0.950 . S
H735 C759 0.950 . S
H736 C760 0.950 . S
H737 C761 0.951 . S
H738 C763 0.951 . S
H739 C765 0.950 . S
H740 C766 0.950 . S
H741 C768 0.950 . S
H742 C771 0.950 . S
H743 C772 0.950 . S
H744 C774 0.950 . S
H745 C775 0.950 . S
C746 H728 0.951 . S
C746 C747 1.366 . S
C746 C748 1.388 . S
C747 C746 1.366 . S
C747 C751 1.385 . S
C748 H729 0.951 . S
C748 C746 1.388 . S
C748 C749 1.366 . S
C749 C748 1.366 . S
C749 C750 1.414 . S
C749 C752 1.499 . S
C750 H730 0.950 . S
C750 C749 1.414 . S
C750 C751 1.374 . S
C751 H731 0.950 . S
C751 C747 1.385 . S
C751 C750 1.374 . S
C752 C749 1.499 . S
C752 C753 1.373 . S
C752 C754 1.389 . S
C753 H732 0.950 . S
C753 C752 1.373 . S
C753 C769 1.377 . S
C754 C752 1.389 . S
C754 C755 1.524 . S
C754 C768 1.377 . S
C755 C754 1.524 . S
C755 C756 1.397 . S
C755 C760 1.363 . S
C756 H733 0.950 . S
C756 C755 1.397 . S
C756 C757 1.334 . S
C757 H734 0.950 . S
C757 C756 1.334 . S
C757 C758 1.287 . S
C758 C757 1.287 . S
C758 C759 1.524 . S
C758 H777 0.913 . S
C759 H735 0.950 . S
C759 C758 1.524 . S
C759 C760 1.415 . S
C760 H736 0.950 . S
C760 C755 1.363 . S
C760 C759 1.415 . S
C761 H737 0.951 . S
C761 C762 1.366 . S
C761 C763 1.388 . S
C762 C761 1.366 . S
C762 C766 1.385 . S
C763 H738 0.951 . S
C763 C761 1.388 . S
C763 C764 1.366 . S
C764 C763 1.366 . S
C764 C765 1.414 . S
C764 C767 1.499 . S
C765 H739 0.950 . S
C765 C764 1.414 . S
C765 C766 1.374 . S
C766 H740 0.950 . S
C766 C762 1.385 . S
C766 C765 1.374 . S
C767 C764 1.499 . S
C767 C768 1.373 . S
C767 C769 1.389 . S
C768 H741 0.950 . S
C768 C754 1.377 . S
C768 C767 1.373 . S
C769 C753 1.377 . S
C769 C767 1.389 . S
C769 C770 1.524 . S
C770 C769 1.524 . S
C770 C771 1.397 . S
C770 C775 1.363 . S
C771 H742 0.950 . S
C771 C770 1.397 . S
C771 C772 1.334 . S
C772 H743 0.950 . S
C772 C771 1.334 . S
C772 C773 1.287 . S
C773 C772 1.287 . S
C773 C774 1.524 . S
C773 H776 0.999 . S
C774 H744 0.950 . S
C774 C773 1.524 . S
C774 C775 1.415 . S
C775 H745 0.950 . S
C775 C770 1.363 . S
C775 C774 1.415 . S
H776 C773 0.999 . S
H777 C758 0.913 . S
H778 C796 0.951 . S
H779 C798 0.951 . S
H780 C800 0.950 . S
H781 C801 0.950 . S
H782 C803 0.950 . S
H783 C806 0.950 . S
H784 C807 0.950 . S
H785 C809 0.950 . S
H786 C810 0.950 . S
H787 C811 0.951 1_655 S
H788 C813 0.951 . S
H789 C815 0.950 . S
H790 C816 0.950 . S
H791 C818 0.950 . S
H792 C821 0.950 . S
H793 C822 0.950 . S
H794 C824 0.950 . S
H795 C825 0.950 . S
C796 H778 0.951 . S
C796 C797 1.366 . S
C796 C798 1.388 . S
C797 C796 1.366 . S
C797 C801 1.385 . S
C798 H779 0.951 . S
C798 C796 1.388 . S
C798 C799 1.366 . S
C799 C798 1.366 . S
C799 C800 1.414 . S
C799 C802 1.499 . S
C800 H780 0.950 . S
C800 C799 1.414 . S
C800 C801 1.374 . S
C801 H781 0.950 . S
C801 C797 1.385 . S
C801 C800 1.374 . S
C802 C799 1.499 . S
C802 C803 1.373 . S
C802 C804 1.389 . S
C803 H782 0.950 . S
C803 C802 1.373 . S
C803 C819 1.377 . S
C804 C802 1.389 . S
C804 C805 1.524 . S
C804 C818 1.377 . S
C805 C804 1.524 . S
C805 C806 1.397 . S
C805 C810 1.363 . S
C806 H783 0.950 . S
C806 C805 1.397 . S
C806 C807 1.334 . S
C807 H784 0.950 . S
C807 C806 1.334 . S
C807 C808 1.287 . S
C808 C807 1.287 . S
C808 C809 1.524 . S
C808 H827 0.913 . S
C809 H785 0.950 . S
C809 C808 1.524 . S
C809 C810 1.415 . S
C810 H786 0.950 . S
C810 C805 1.363 . S
C810 C809 1.415 . S
C811 H787 0.951 1_455 S
C811 C812 1.366 . S
C811 C813 1.388 . S
C812 C811 1.366 . S
C812 C816 1.385 . S
C813 H788 0.951 . S
C813 C811 1.388 . S
C813 C814 1.366 . S
C814 C813 1.366 . S
C814 C815 1.414 . S
C814 C817 1.499 . S
C815 H789 0.950 . S
C815 C814 1.414 . S
C815 C816 1.374 . S
C816 H790 0.950 . S
C816 C812 1.385 . S
C816 C815 1.374 . S
C817 C814 1.499 . S
C817 C818 1.373 . S
C817 C819 1.389 . S
C818 H791 0.950 . S
C818 C804 1.377 . S
C818 C817 1.373 . S
C819 C803 1.377 . S
C819 C817 1.389 . S
C819 C820 1.524 . S
C820 C819 1.524 . S
C820 C821 1.397 . S
C820 C825 1.363 1_455 S
C821 H792 0.950 . S
C821 C820 1.397 . S
C821 C822 1.334 1_455 S
C822 H793 0.950 . S
C822 C821 1.334 1_655 S
C822 C823 1.287 . S
C823 C822 1.287 . S
C823 C824 1.524 . S
C823 H826 0.999 . S
C824 H794 0.950 . S
C824 C823 1.524 . S
C824 C825 1.415 . S
C825 H795 0.950 . S
C825 C820 1.363 1_655 S
C825 C824 1.415 . S
H826 C823 0.999 . S
H827 C808 0.913 . S
C262 C164 1.676 . S
C247 C135 1.648 . S
C297 C15 1.567 . S
C312 C207 1.580 . S
C347 C55 1.654 . S
C362 C173 1.675 . S
C397 C95 1.569 . S
C412 C198 1.582 . S
C462 C160 1.618 . S
C447 C2 1.557 . S
C512 C202 1.736 . S
C497 C42 1.734 . S
C547 C82 1.550 . S
C562 C168 1.607 . S
C597 C141 1.637 . S
C612 C194 1.730 . S
C662 C223 1.756 . S
C647 C61 1.747 . S
C712 C189 1.664 . S
C697 C101 1.589 . S
C762 C211 1.762 . S
C747 C122 1.680 . S
C797 C21 1.585 . S
C812 C177 1.652 . S
