# Generated by pormake.
# Topology gar, (4,6)-cn, num edge types: 1
# Building blocks:
#     Node 0, Type 0, BuildingBlock: GALJAG_clean_sbu_0, # of connection points: 4
#     Node 1, Type 0, BuildingBlock: GALJAG_clean_sbu_0, # of connection points: 4
#     Node 2, Type 0, BuildingBlock: GALJAG_clean_sbu_0, # of connection points: 4
#     Node 3, Type 0, BuildingBlock: GALJAG_clean_sbu_0, # of connection points: 4
#     Node 4, Type 0, BuildingBlock: GALJAG_clean_sbu_0, # of connection points: 4
#     Node 5, Type 0, BuildingBlock: GALJAG_clean_sbu_0, # of connection points: 4
#     Node 6, Type 0, BuildingBlock: GALJAG_clean_sbu_0, # of connection points: 4
#     Node 7, Type 0, BuildingBlock: GALJAG_clean_sbu_0, # of connection points: 4
#     Node 8, Type 0, BuildingBlock: GALJAG_clean_sbu_0, # of connection points: 4
#     Node 9, Type 0, BuildingBlock: GALJAG_clean_sbu_0, # of connection points: 4
#     Node 10, Type 0, BuildingBlock: GALJAG_clean_sbu_0, # of connection points: 4
#     Node 11, Type 0, BuildingBlock: GALJAG_clean_sbu_0, # of connection points: 4
#     Node 12, Type 0, BuildingBlock: GALJAG_clean_sbu_0, # of connection points: 4
#     Node 13, Type 0, BuildingBlock: GALJAG_clean_sbu_0, # of connection points: 4
#     Node 14, Type 0, BuildingBlock: GALJAG_clean_sbu_0, # of connection points: 4
#     Node 15, Type 0, BuildingBlock: GALJAG_clean_sbu_0, # of connection points: 4
#     Node 16, Type 0, BuildingBlock: GALJAG_clean_sbu_0, # of connection points: 4
#     Node 17, Type 0, BuildingBlock: GALJAG_clean_sbu_0, # of connection points: 4
#     Node 18, Type 0, BuildingBlock: GALJAG_clean_sbu_0, # of connection points: 4
#     Node 19, Type 0, BuildingBlock: GALJAG_clean_sbu_0, # of connection points: 4
#     Node 20, Type 0, BuildingBlock: GALJAG_clean_sbu_0, # of connection points: 4
#     Node 21, Type 0, BuildingBlock: GALJAG_clean_sbu_0, # of connection points: 4
#     Node 22, Type 0, BuildingBlock: GALJAG_clean_sbu_0, # of connection points: 4
#     Node 23, Type 0, BuildingBlock: GALJAG_clean_sbu_0, # of connection points: 4
#     Node 24, Type 1, BuildingBlock: KUMBUR_clean_sbu_0, # of connection points: 6
#     Node 25, Type 1, BuildingBlock: KUMBUR_clean_sbu_0, # of connection points: 6
#     Node 26, Type 1, BuildingBlock: KUMBUR_clean_sbu_0, # of connection points: 6
#     Node 27, Type 1, BuildingBlock: KUMBUR_clean_sbu_0, # of connection points: 6
#     Node 28, Type 1, BuildingBlock: KUMBUR_clean_sbu_0, # of connection points: 6
#     Node 29, Type 1, BuildingBlock: KUMBUR_clean_sbu_0, # of connection points: 6
#     Node 30, Type 1, BuildingBlock: KUMBUR_clean_sbu_0, # of connection points: 6
#     Node 31, Type 1, BuildingBlock: KUMBUR_clean_sbu_0, # of connection points: 6
#     Node 32, Type 1, BuildingBlock: KUMBUR_clean_sbu_0, # of connection points: 6
#     Node 33, Type 1, BuildingBlock: KUMBUR_clean_sbu_0, # of connection points: 6
#     Node 34, Type 1, BuildingBlock: KUMBUR_clean_sbu_0, # of connection points: 6
#     Node 35, Type 1, BuildingBlock: KUMBUR_clean_sbu_0, # of connection points: 6
#     Node 36, Type 1, BuildingBlock: KUMBUR_clean_sbu_0, # of connection points: 6
#     Node 37, Type 1, BuildingBlock: KUMBUR_clean_sbu_0, # of connection points: 6
#     Node 38, Type 1, BuildingBlock: KUMBUR_clean_sbu_0, # of connection points: 6
#     Node 39, Type 1, BuildingBlock: KUMBUR_clean_sbu_0, # of connection points: 6
#     Edge 40, Type (0, 1), BuildingBlock: MIFKUJ_clean_linker_0, # of connection points: 2
#     Edge 41, Type (0, 1), BuildingBlock: MIFKUJ_clean_linker_0, # of connection points: 2
#     Edge 42, Type (0, 1), BuildingBlock: MIFKUJ_clean_linker_0, # of connection points: 2
#     Edge 43, Type (0, 1), BuildingBlock: MIFKUJ_clean_linker_0, # of connection points: 2
#     Edge 44, Type (0, 1), BuildingBlock: MIFKUJ_clean_linker_0, # of connection points: 2
#     Edge 45, Type (0, 1), BuildingBlock: MIFKUJ_clean_linker_0, # of connection points: 2
#     Edge 46, Type (0, 1), BuildingBlock: MIFKUJ_clean_linker_0, # of connection points: 2
#     Edge 47, Type (0, 1), BuildingBlock: MIFKUJ_clean_linker_0, # of connection points: 2
#     Edge 48, Type (0, 1), BuildingBlock: MIFKUJ_clean_linker_0, # of connection points: 2
#     Edge 49, Type (0, 1), BuildingBlock: MIFKUJ_clean_linker_0, # of connection points: 2
#     Edge 50, Type (0, 1), BuildingBlock: MIFKUJ_clean_linker_0, # of connection points: 2
#     Edge 51, Type (0, 1), BuildingBlock: MIFKUJ_clean_linker_0, # of connection points: 2
#     Edge 52, Type (0, 1), BuildingBlock: MIFKUJ_clean_linker_0, # of connection points: 2
#     Edge 53, Type (0, 1), BuildingBlock: MIFKUJ_clean_linker_0, # of connection points: 2
#     Edge 54, Type (0, 1), BuildingBlock: MIFKUJ_clean_linker_0, # of connection points: 2
#     Edge 55, Type (0, 1), BuildingBlock: MIFKUJ_clean_linker_0, # of connection points: 2
#     Edge 56, Type (0, 1), BuildingBlock: MIFKUJ_clean_linker_0, # of connection points: 2
#     Edge 57, Type (0, 1), BuildingBlock: MIFKUJ_clean_linker_0, # of connection points: 2
#     Edge 58, Type (0, 1), BuildingBlock: MIFKUJ_clean_linker_0, # of connection points: 2
#     Edge 59, Type (0, 1), BuildingBlock: MIFKUJ_clean_linker_0, # of connection points: 2
#     Edge 60, Type (0, 1), BuildingBlock: MIFKUJ_clean_linker_0, # of connection points: 2
#     Edge 61, Type (0, 1), BuildingBlock: MIFKUJ_clean_linker_0, # of connection points: 2
#     Edge 62, Type (0, 1), BuildingBlock: MIFKUJ_clean_linker_0, # of connection points: 2
#     Edge 63, Type (0, 1), BuildingBlock: MIFKUJ_clean_linker_0, # of connection points: 2
#     Edge 64, Type (0, 1), BuildingBlock: MIFKUJ_clean_linker_0, # of connection points: 2
#     Edge 65, Type (0, 1), BuildingBlock: MIFKUJ_clean_linker_0, # of connection points: 2
#     Edge 66, Type (0, 1), BuildingBlock: MIFKUJ_clean_linker_0, # of connection points: 2
#     Edge 67, Type (0, 1), BuildingBlock: MIFKUJ_clean_linker_0, # of connection points: 2
#     Edge 68, Type (0, 1), BuildingBlock: MIFKUJ_clean_linker_0, # of connection points: 2
#     Edge 69, Type (0, 1), BuildingBlock: MIFKUJ_clean_linker_0, # of connection points: 2
#     Edge 70, Type (0, 1), BuildingBlock: MIFKUJ_clean_linker_0, # of connection points: 2
#     Edge 71, Type (0, 1), BuildingBlock: MIFKUJ_clean_linker_0, # of connection points: 2
#     Edge 72, Type (0, 1), BuildingBlock: MIFKUJ_clean_linker_0, # of connection points: 2
#     Edge 73, Type (0, 1), BuildingBlock: MIFKUJ_clean_linker_0, # of connection points: 2
#     Edge 74, Type (0, 1), BuildingBlock: MIFKUJ_clean_linker_0, # of connection points: 2
#     Edge 75, Type (0, 1), BuildingBlock: MIFKUJ_clean_linker_0, # of connection points: 2
#     Edge 76, Type (0, 1), BuildingBlock: MIFKUJ_clean_linker_0, # of connection points: 2
#     Edge 77, Type (0, 1), BuildingBlock: MIFKUJ_clean_linker_0, # of connection points: 2
#     Edge 78, Type (0, 1), BuildingBlock: MIFKUJ_clean_linker_0, # of connection points: 2
#     Edge 79, Type (0, 1), BuildingBlock: MIFKUJ_clean_linker_0, # of connection points: 2
#     Edge 80, Type (0, 1), BuildingBlock: MIFKUJ_clean_linker_0, # of connection points: 2
#     Edge 81, Type (0, 1), BuildingBlock: MIFKUJ_clean_linker_0, # of connection points: 2
#     Edge 82, Type (0, 1), BuildingBlock: MIFKUJ_clean_linker_0, # of connection points: 2
#     Edge 83, Type (0, 1), BuildingBlock: MIFKUJ_clean_linker_0, # of connection points: 2
#     Edge 84, Type (0, 1), BuildingBlock: MIFKUJ_clean_linker_0, # of connection points: 2
#     Edge 85, Type (0, 1), BuildingBlock: MIFKUJ_clean_linker_0, # of connection points: 2
#     Edge 86, Type (0, 1), BuildingBlock: MIFKUJ_clean_linker_0, # of connection points: 2
#     Edge 87, Type (0, 1), BuildingBlock: MIFKUJ_clean_linker_0, # of connection points: 2
#     Edge 88, Type (0, 1), BuildingBlock: MIFKUJ_clean_linker_0, # of connection points: 2
#     Edge 89, Type (0, 1), BuildingBlock: MIFKUJ_clean_linker_0, # of connection points: 2
#     Edge 90, Type (0, 1), BuildingBlock: MIFKUJ_clean_linker_0, # of connection points: 2
#     Edge 91, Type (0, 1), BuildingBlock: MIFKUJ_clean_linker_0, # of connection points: 2
#     Edge 92, Type (0, 1), BuildingBlock: MIFKUJ_clean_linker_0, # of connection points: 2
#     Edge 93, Type (0, 1), BuildingBlock: MIFKUJ_clean_linker_0, # of connection points: 2
#     Edge 94, Type (0, 1), BuildingBlock: MIFKUJ_clean_linker_0, # of connection points: 2
#     Edge 95, Type (0, 1), BuildingBlock: MIFKUJ_clean_linker_0, # of connection points: 2
#     Edge 96, Type (0, 1), BuildingBlock: MIFKUJ_clean_linker_0, # of connection points: 2
#     Edge 97, Type (0, 1), BuildingBlock: MIFKUJ_clean_linker_0, # of connection points: 2
#     Edge 98, Type (0, 1), BuildingBlock: MIFKUJ_clean_linker_0, # of connection points: 2
#     Edge 99, Type (0, 1), BuildingBlock: MIFKUJ_clean_linker_0, # of connection points: 2
#     Edge 100, Type (0, 1), BuildingBlock: MIFKUJ_clean_linker_0, # of connection points: 2
#     Edge 101, Type (0, 1), BuildingBlock: MIFKUJ_clean_linker_0, # of connection points: 2
#     Edge 102, Type (0, 1), BuildingBlock: MIFKUJ_clean_linker_0, # of connection points: 2
#     Edge 103, Type (0, 1), BuildingBlock: MIFKUJ_clean_linker_0, # of connection points: 2
#     Edge 104, Type (0, 1), BuildingBlock: MIFKUJ_clean_linker_0, # of connection points: 2
#     Edge 105, Type (0, 1), BuildingBlock: MIFKUJ_clean_linker_0, # of connection points: 2
#     Edge 106, Type (0, 1), BuildingBlock: MIFKUJ_clean_linker_0, # of connection points: 2
#     Edge 107, Type (0, 1), BuildingBlock: MIFKUJ_clean_linker_0, # of connection points: 2
#     Edge 108, Type (0, 1), BuildingBlock: MIFKUJ_clean_linker_0, # of connection points: 2
#     Edge 109, Type (0, 1), BuildingBlock: MIFKUJ_clean_linker_0, # of connection points: 2
#     Edge 110, Type (0, 1), BuildingBlock: MIFKUJ_clean_linker_0, # of connection points: 2
#     Edge 111, Type (0, 1), BuildingBlock: MIFKUJ_clean_linker_0, # of connection points: 2
#     Edge 112, Type (0, 1), BuildingBlock: MIFKUJ_clean_linker_0, # of connection points: 2
#     Edge 113, Type (0, 1), BuildingBlock: MIFKUJ_clean_linker_0, # of connection points: 2
#     Edge 114, Type (0, 1), BuildingBlock: MIFKUJ_clean_linker_0, # of connection points: 2
#     Edge 115, Type (0, 1), BuildingBlock: MIFKUJ_clean_linker_0, # of connection points: 2
#     Edge 116, Type (0, 1), BuildingBlock: MIFKUJ_clean_linker_0, # of connection points: 2
#     Edge 117, Type (0, 1), BuildingBlock: MIFKUJ_clean_linker_0, # of connection points: 2
#     Edge 118, Type (0, 1), BuildingBlock: MIFKUJ_clean_linker_0, # of connection points: 2
#     Edge 119, Type (0, 1), BuildingBlock: MIFKUJ_clean_linker_0, # of connection points: 2
#     Edge 120, Type (0, 1), BuildingBlock: MIFKUJ_clean_linker_0, # of connection points: 2
#     Edge 121, Type (0, 1), BuildingBlock: MIFKUJ_clean_linker_0, # of connection points: 2
#     Edge 122, Type (0, 1), BuildingBlock: MIFKUJ_clean_linker_0, # of connection points: 2
#     Edge 123, Type (0, 1), BuildingBlock: MIFKUJ_clean_linker_0, # of connection points: 2
#     Edge 124, Type (0, 1), BuildingBlock: MIFKUJ_clean_linker_0, # of connection points: 2
#     Edge 125, Type (0, 1), BuildingBlock: MIFKUJ_clean_linker_0, # of connection points: 2
#     Edge 126, Type (0, 1), BuildingBlock: MIFKUJ_clean_linker_0, # of connection points: 2
#     Edge 127, Type (0, 1), BuildingBlock: MIFKUJ_clean_linker_0, # of connection points: 2
#     Edge 128, Type (0, 1), BuildingBlock: MIFKUJ_clean_linker_0, # of connection points: 2
#     Edge 129, Type (0, 1), BuildingBlock: MIFKUJ_clean_linker_0, # of connection points: 2
#     Edge 130, Type (0, 1), BuildingBlock: MIFKUJ_clean_linker_0, # of connection points: 2
#     Edge 131, Type (0, 1), BuildingBlock: MIFKUJ_clean_linker_0, # of connection points: 2
#     Edge 132, Type (0, 1), BuildingBlock: MIFKUJ_clean_linker_0, # of connection points: 2
#     Edge 133, Type (0, 1), BuildingBlock: MIFKUJ_clean_linker_0, # of connection points: 2
#     Edge 134, Type (0, 1), BuildingBlock: MIFKUJ_clean_linker_0, # of connection points: 2
#     Edge 135, Type (0, 1), BuildingBlock: MIFKUJ_clean_linker_0, # of connection points: 2
# Relax obj value: 0.129
# Max RMSD: 0.309
# Mean RMSD: 0.166
data_MOF--net-gar--node1-GALJAG_clean_sbu_0--node2-KUMBUR_clean_sbu_0--edge1-MIFKUJ_clean_linker_0
_symmetry_space_group_name_H-M    P1
_symmetry_Int_Tables_number       1
_symmetry_cell_setting            triclinic
loop_
_symmetry_equiv_pos_as_xyz
'x, y, z'
_cell_length_a     77.260096
_cell_length_b     72.515718
_cell_length_c     72.576277
_cell_angle_alpha  99.608488
_cell_angle_beta   92.999249
_cell_angle_gamma 101.74647
loop_
_atom_site_label
_atom_site_type_symbol
_atom_site_fract_x
_atom_site_fract_y
_atom_site_fract_z
_atom_type_partial_charge
In0 In 0.09737 0.31891 0.39346 0.0
O1 O 0.10821 0.31867 0.36532 0.0
O2 O 0.1261 0.32012 0.38933 0.0
C3 C 0.06595 0.31996 0.37643 0.0
C4 C 0.09446 0.28764 0.4093 0.0
C5 C 0.10584 0.35266 0.41653 0.0
O6 O 0.07156 0.30468 0.37489 0.0
O7 O 0.07617 0.3343 0.38621 0.0
O8 O 0.09703 0.33786 0.42144 0.0
O9 O 0.11175 0.34987 0.40067 0.0
C10 C 0.12389 0.31955 0.37186 0.0
O11 O 0.09063 0.30291 0.41734 0.0
O12 O 0.09997 0.2882 0.39334 0.0
In13 In 0.00483 0.76692 0.66473 0.0
O14 O 0.00608 0.77749 0.63759 0.0
O15 O 0.00841 0.79856 0.66241 0.0
C16 C 0.99827 0.73045 0.64916 0.0
C17 C 0.03846 0.76876 0.67691 0.0
C18 C 0.97462 0.7659 0.68057 0.0
O19 O 0.9981 0.7437 0.63994 0.0
O20 O 1.00122 0.73545 0.66676 0.0
O21 O 0.98939 0.77277 0.69014 0.0
O22 O 0.97536 0.76064 0.66326 0.0
C23 C 0.00847 0.79493 0.64476 0.0
O24 O 0.02725 0.77256 0.68828 0.0
O25 O 0.03267 0.76469 0.65991 0.0
In26 In 0.60007 0.81917 0.89201 0.0
O27 O 0.61062 0.81514 0.86403 0.0
O28 O 0.62938 0.82418 0.88836 0.0
C29 C 0.56674 0.81598 0.87803 0.0
C30 C 0.5983 0.78865 0.9087 0.0
C31 C 0.60716 0.85654 0.90595 0.0
O32 O 0.57881 0.81254 0.86776 0.0
O33 O 0.57122 0.81959 0.89542 0.0
O34 O 0.61032 0.84465 0.91594 0.0
O35 O 0.60108 0.84943 0.88932 0.0
C36 C 0.62665 0.8204 0.87066 0.0
O37 O 0.59459 0.80402 0.91666 0.0
O38 O 0.60331 0.78875 0.89248 0.0
In39 In 0.50576 0.26662 0.16428 0.0
O40 O 0.49617 0.24165 0.14087 0.0
O41 O 0.50136 0.23589 0.16841 0.0
C42 C 0.51181 0.29464 0.14458 0.0
C43 C 0.4757 0.26925 0.17943 0.0
C44 C 0.53904 0.26737 0.17609 0.0
O45 O 0.50447 0.27766 0.13717 0.0
O46 O 0.51614 0.29759 0.16202 0.0
O47 O 0.52926 0.27574 0.18658 0.0
O48 O 0.53201 0.25915 0.15995 0.0
C49 C 0.49625 0.2294 0.15134 0.0
O50 O 0.48955 0.26942 0.18965 0.0
O51 O 0.47771 0.26919 0.16236 0.0
In52 In 0.08036 0.80917 0.11605 0.0
O53 O 0.07009 0.78427 0.08989 0.0
O54 O 0.08488 0.7782 0.11249 0.0
C55 C 0.07926 0.84036 0.09754 0.0
C56 C 0.05091 0.80464 0.13595 0.0
C57 C 0.1118 0.81525 0.13894 0.0
O58 O 0.09256 0.83269 0.09799 0.0
O59 O 0.06668 0.83185 0.10537 0.0
O60 O 0.09778 0.81962 0.14486 0.0
O61 O 0.11021 0.80864 0.12155 0.0
C62 C 0.07631 0.77171 0.0967 0.0
O63 O 0.06397 0.81869 0.1405 0.0
O64 O 0.05298 0.79268 0.12198 0.0
In65 In 0.51628 0.7673 0.42582 0.0
O66 O 0.53348 0.76925 0.40004 0.0
O67 O 0.54693 0.77081 0.42651 0.0
C68 C 0.48326 0.76725 0.40657 0.0
C69 C 0.51667 0.73565 0.44324 0.0
C70 C 0.52223 0.80269 0.44833 0.0
O71 O 0.49387 0.75724 0.39978 0.0
O72 O 0.48908 0.77659 0.42264 0.0
O73 O 0.51179 0.78818 0.45196 0.0
O74 O 0.53005 0.79936 0.43368 0.0
C75 C 0.54829 0.77069 0.40923 0.0
O76 O 0.5145 0.75151 0.45181 0.0
O77 O 0.51747 0.73527 0.42588 0.0
In78 In 0.58133 0.30912 0.61684 0.0
O79 O 0.58873 0.28409 0.59537 0.0
O80 O 0.56424 0.2785 0.60671 0.0
C81 C 0.58153 0.34182 0.6009 0.0
C82 C 0.55092 0.3081 0.63458 0.0
C83 C 0.6119 0.3124 0.64058 0.0
O84 O 0.58589 0.327 0.59232 0.0
O85 O 0.57752 0.3403 0.61726 0.0
O86 O 0.59642 0.30547 0.64429 0.0
O87 O 0.61211 0.31821 0.62512 0.0
C88 C 0.57481 0.27179 0.59634 0.0
O89 O 0.5661 0.31071 0.64337 0.0
O90 O 0.55117 0.3064 0.61696 0.0
In91 In 0.01739 0.26709 0.92507 0.0
O92 O 0.02437 0.25375 0.95075 0.0
O93 O 0.01286 0.23417 0.92633 0.0
C94 C 0.0203 0.30362 0.94466 0.0
C95 C 0.04908 0.2693 0.90817 0.0
C96 C 0.98382 0.26442 0.90665 0.0
O97 O 0.01496 0.28887 0.95165 0.0
O98 O 0.02445 0.29997 0.92806 0.0
O99 O 0.99756 0.2632 0.89815 0.0
O100 O 0.9867 0.26577 0.92417 0.0
C101 C 0.01968 0.23638 0.94302 0.0
O102 O 0.03402 0.26474 0.89889 0.0
O103 O 0.04813 0.27283 0.92564 0.0
In104 In 0.42281 0.04453 0.29911 0.0
O105 O 0.44433 0.04937 0.27944 0.0
O106 O 0.41747 0.03757 0.26798 0.0
C107 C 0.43964 0.04559 0.33188 0.0
C108 C 0.40722 0.07383 0.30383 0.0
C109 C 0.40285 0.01006 0.29599 0.0
O110 O 0.44716 0.04273 0.31693 0.0
O111 O 0.42468 0.0497 0.33015 0.0
O112 O 0.39657 0.02434 0.29386 0.0
O113 O 0.41951 0.01301 0.29887 0.0
C114 C 0.43348 0.04281 0.26501 0.0
O115 O 0.40054 0.05782 0.30778 0.0
O116 O 0.42262 0.07554 0.29822 0.0
In117 In 0.29438 0.18995 0.5084 0.0
O118 O 0.29253 0.21674 0.53086 0.0
O119 O 0.30254 0.19442 0.53986 0.0
C120 C 0.29526 0.20323 0.47504 0.0
C121 C 0.32304 0.17357 0.50963 0.0
C122 C 0.26113 0.16697 0.50447 0.0
O123 O 0.30008 0.21438 0.49067 0.0
O124 O 0.29029 0.1859 0.47645 0.0
O125 O 0.27488 0.16079 0.50068 0.0
O126 O 0.26408 0.18479 0.51051 0.0
C127 C 0.29858 0.21044 0.54455 0.0
O128 O 0.30805 0.16625 0.51435 0.0
O129 O 0.32369 0.18919 0.50385 0.0
In130 In 0.16917 0.01059 0.77202 0.0
O131 O 0.14997 0.02165 0.75068 0.0
O132 O 0.15616 0.99586 0.73993 0.0
C133 C 0.15198 0.01188 0.80724 0.0
C134 C 0.18872 0.97936 0.76959 0.0
C135 C 0.19084 0.04829 0.77568 0.0
O136 O 0.14408 1.00409 0.79113 0.0
O137 O 0.16824 0.01838 0.80566 0.0
O138 O 0.19707 0.03327 0.77401 0.0
O139 O 0.17422 0.04434 0.77585 0.0
C140 C 0.14835 0.00878 0.73628 0.0
O141 O 0.19207 0.99351 0.76114 0.0
O142 O 0.17557 0.98068 0.77916 0.0
In143 In 0.31254 0.92332 0.01769 0.0
O144 O 0.31655 0.90007 0.03325 0.0
O145 O 0.2991 0.91776 0.0438 0.0
C146 C 0.31516 0.90778 0.98251 0.0
C147 C 0.28741 0.94259 0.01514 0.0
C148 C 0.34486 0.94347 0.03038 0.0
O149 O 0.30593 0.89866 0.99326 0.0
O150 O 0.32244 0.92489 0.98936 0.0
O151 O 0.33178 0.95123 0.02889 0.0
O152 O 0.3415 0.9255 0.02557 0.0
C153 C 0.30702 0.90466 0.04604 0.0
O154 O 0.3031 0.95048 0.02175 0.0
O155 O 0.28439 0.92469 0.00928 0.0
In156 In 0.3075 0.39359 0.03627 0.0
O157 O 0.29602 0.36645 0.04779 0.0
O158 O 0.31005 0.39052 0.06744 0.0
C159 C 0.30643 0.3742 1.00061 0.0
C160 C 0.27789 0.40905 0.03802 0.0
C161 C 0.34203 0.41409 0.03852 0.0
O162 O 0.30819 0.36652 0.01479 0.0
O163 O 0.30543 0.39155 0.00445 0.0
O164 O 0.32878 0.42047 0.0336 0.0
O165 O 0.33788 0.39776 0.04298 0.0
C166 C 0.3012 0.37345 0.06475 0.0
O167 O 0.29259 0.41777 0.04693 0.0
O168 O 0.2784 0.39313 0.02828 0.0
In169 In 0.78533 0.14107 0.02519 0.0
O170 O 0.79929 0.11606 0.02101 0.0
O171 O 0.81309 0.14287 0.03702 0.0
C172 C 0.75067 0.12617 0.02178 0.0
C173 C 0.7849 0.16489 0.057 0.0
C174 C 0.7892 0.15359 0.99283 0.0
O175 O 0.76177 0.11646 0.02588 0.0
O176 O 0.75723 0.14296 0.01962 0.0
O177 O 0.79641 0.16354 0.00828 0.0
O178 O 0.78096 0.13688 0.99358 0.0
C179 C 0.8134 0.12581 0.03036 0.0
O180 O 0.78868 0.17054 0.04187 0.0
O181 O 0.78132 0.14695 0.05614 0.0
In182 In 0.19159 0.54122 0.241 0.0
O183 O 0.21269 0.52432 0.23644 0.0
O184 O 0.18621 0.50984 0.24012 0.0
C185 C 0.20937 0.57674 0.24911 0.0
C186 C 0.1781 0.54106 0.20689 0.0
C187 C 0.17574 0.5395 0.27224 0.0
O188 O 0.21732 0.56303 0.24803 0.0
O189 O 0.19274 0.57228 0.24589 0.0
O190 O 0.16723 0.53427 0.25621 0.0
O191 O 0.19234 0.54514 0.2724 0.0
C192 C 0.202 0.50883 0.2373 0.0
O193 O 0.17028 0.54552 0.22126 0.0
O194 O 0.19254 0.53605 0.20961 0.0
In195 In 0.80691 0.89222 0.53478 0.0
O196 O 0.80209 0.86515 0.54801 0.0
O197 O 0.80443 0.89181 0.56626 0.0
C198 C 0.80553 0.8719 0.49933 0.0
C199 C 0.77681 0.90702 0.53548 0.0
C200 C 0.84148 0.91319 0.53773 0.0
O201 O 0.80556 0.86417 0.51366 0.0
O202 O 0.8061 0.88964 0.50289 0.0
O203 O 0.82841 0.91818 0.53041 0.0
O204 O 0.83717 0.89803 0.54434 0.0
C205 C 0.80158 0.87376 0.56454 0.0
O206 O 0.79209 0.91715 0.54118 0.0
O207 O 0.77677 0.8897 0.52939 0.0
In208 In 0.93188 0.06819 0.27506 0.0
O209 O 0.95546 0.08109 0.25716 0.0
O210 O 0.93848 0.05547 0.24406 0.0
C211 C 0.95293 0.06952 0.30999 0.0
C212 C 0.91386 0.1012 0.2748 0.0
C213 C 0.91181 0.02903 0.27158 0.0
O214 O 0.95898 0.06912 0.29405 0.0
O215 O 0.93691 0.07112 0.30875 0.0
O216 O 0.90493 0.04274 0.26807 0.0
O217 O 0.92821 0.03494 0.27615 0.0
C218 C 0.95187 0.06831 0.24241 0.0
O219 O 0.91265 0.09048 0.28709 0.0
O220 O 0.92372 0.09532 0.26275 0.0
In221 In 0.2827 0.63935 0.52476 0.0
O222 O 0.2982 0.61661 0.52874 0.0
O223 O 0.31085 0.64163 0.51879 0.0
C224 C 0.24867 0.62309 0.52332 0.0
C225 C 0.28842 0.6599 0.5589 0.0
C226 C 0.27861 0.65638 0.49589 0.0
O227 O 0.25964 0.6133 0.517 0.0
O228 O 0.25517 0.64033 0.53038 0.0
O229 O 0.28149 0.66521 0.51261 0.0
O230 O 0.27845 0.63866 0.49347 0.0
C231 C 0.31227 0.6263 0.52406 0.0
O232 O 0.29349 0.66679 0.54479 0.0
O233 O 0.28091 0.6424 0.55595 0.0
In234 In 0.43176 0.56835 0.77546 0.0
O235 O 0.40658 0.58335 0.76852 0.0
O236 O 0.4283 0.60178 0.78374 0.0
C237 C 0.41094 0.52974 0.77341 0.0
C238 C 0.45232 0.56829 0.74286 0.0
C239 C 0.4528 0.56693 0.80961 0.0
O240 O 0.41459 0.54249 0.78807 0.0
O241 O 0.41673 0.53654 0.75935 0.0
O242 O 0.45945 0.57159 0.79496 0.0
O243 O 0.43607 0.56391 0.80735 0.0
C244 C 0.41294 0.60071 0.77605 0.0
O245 O 0.45565 0.58112 0.75754 0.0
O246 O 0.43914 0.55534 0.74469 0.0
In247 In 0.69222 0.03956 0.74492 0.0
O248 O 0.71278 0.02211 0.73815 0.0
O249 O 0.68686 0.00789 0.74321 0.0
C250 C 0.71152 0.07457 0.74878 0.0
C251 C 0.67274 0.03645 0.71342 0.0
C252 C 0.6776 0.04304 0.77714 0.0
O253 O 0.71711 0.06183 0.75576 0.0
O254 O 0.69675 0.06925 0.73926 0.0
O255 O 0.66865 0.03925 0.76145 0.0
O256 O 0.69407 0.04431 0.77663 0.0
C257 C 0.70222 0.00657 0.73898 0.0
O258 O 0.66677 0.03938 0.72926 0.0
O259 O 0.68879 0.03507 0.71345 0.0
In260 In 0.79302 0.6901 0.00835 0.0
O261 O 0.8057 0.66453 0.00982 0.0
O262 O 0.82307 0.69075 0.00819 0.0
C263 C 0.759 0.66887 0.00341 0.0
C264 C 0.79668 0.70837 0.04536 0.0
C265 C 0.7942 0.70359 0.97496 0.0
O266 O 0.77223 0.66228 0.99835 0.0
O267 O 0.76275 0.68637 0.01108 0.0
O268 O 0.79689 0.71484 0.99068 0.0
O269 O 0.7909 0.68618 0.97632 0.0
C270 C 0.82146 0.67329 0.00922 0.0
O271 O 0.79854 0.71757 0.03193 0.0
O272 O 0.79279 0.69044 0.04004 0.0
In273 In 0.92388 0.54679 0.8003 0.0
O274 O 0.90105 0.55916 0.809 0.0
O275 O 0.92297 0.57766 0.79984 0.0
C276 C 0.90315 0.51257 0.79775 0.0
C277 C 0.93477 0.54582 0.76623 0.0
C278 C 0.94188 0.54838 0.83272 0.0
O279 O 0.89717 0.5269 0.79512 0.0
O280 O 0.91968 0.51547 0.80142 0.0
O281 O 0.94558 0.53928 0.81759 0.0
O282 O 0.93054 0.55838 0.83108 0.0
C283 C 0.90741 0.57538 0.80515 0.0
O284 O 0.94569 0.55143 0.78067 0.0
O285 O 0.91873 0.54118 0.76915 0.0
In286 In 0.81424 0.42477 0.5173 0.0
O287 O 0.81123 0.4002 0.53317 0.0
O288 O 0.8149 0.4289 0.5484 0.0
C289 C 0.81468 0.40727 0.4823 0.0
C290 C 0.78647 0.44063 0.51546 0.0
C291 C 0.84789 0.44185 0.52588 0.0
O292 O 0.80822 0.39821 0.4947 0.0
O293 O 0.82022 0.42505 0.48756 0.0
O294 O 0.83569 0.45113 0.52746 0.0
O295 O 0.84299 0.42412 0.5197 0.0
C296 C 0.8133 0.41135 0.54892 0.0
O297 O 0.80154 0.44889 0.51178 0.0
O298 O 0.78537 0.42431 0.51976 0.0
In299 In 0.66924 0.51117 0.27264 0.0
O300 O 0.69527 0.49783 0.27768 0.0
O301 O 0.67298 0.47822 0.26413 0.0
C302 C 0.69085 0.54878 0.2753 0.0
C303 C 0.64941 0.50859 0.23638 0.0
C304 C 0.6509 0.51255 0.30736 0.0
O305 O 0.69612 0.53542 0.28169 0.0
O306 O 0.6753 0.5431 0.26744 0.0
O307 O 0.65768 0.52675 0.30021 0.0
O308 O 0.65266 0.49731 0.29691 0.0
C309 C 0.68906 0.48034 0.27045 0.0
O310 O 0.64338 0.51201 0.25225 0.0
O311 O 0.66479 0.50527 0.23855 0.0
Tb312 Tb 0.03581 0.03725 0.01967 0.0
C313 C 0.09289 0.09846 0.06457 0.0
C314 C 0.09932 0.12067 0.04308 0.0
C315 C 0.10556 0.13217 0.07664 0.0
C316 C 0.09285 0.102 0.04648 0.0
C317 C 0.09964 0.11343 0.07987 0.0
C318 C 0.10538 0.13578 0.05827 0.0
C319 C 0.09645 0.08992 0.10013 0.0
N320 N 0.08761 0.08007 0.06707 0.0
C321 C 0.09025 0.07551 0.08447 0.0
C322 C 0.101 0.109 0.09785 0.0
Tb323 Tb 0.07904 0.05734 0.04028 0.0
N324 N 0.0875 0.08693 0.03215 0.0
C325 C 0.08893 0.08954 0.01398 0.0
C326 C 0.10009 0.12348 0.02451 0.0
C327 C 0.09497 0.1078 0.0099 0.0
H328 H 0.08719 0.06072 0.08624 0.0
H329 H 0.09573 0.10975 0.99548 0.0
H330 H 0.11041 0.15021 0.05594 0.0
H331 H 0.09802 0.08628 0.1139 0.0
H332 H 0.08505 0.0777 0.00244 0.0
H333 H 0.9979 0.99616 0.06686 0.0
H334 H 0.10496 0.13759 0.02131 0.0
H335 H 0.02842 0.02246 0.97278 0.0
H336 H 0.00862 0.02482 0.05399 0.0
H337 H 0.02426 0.99236 0.95037 0.0
H338 H 0.11077 0.14387 0.08821 0.0
H339 H 1.00137 0.96462 0.05047 0.0
H340 H 0.00873 0.94524 0.02126 0.0
H341 H 0.10613 0.1201 0.10996 0.0
H342 H 0.01587 0.94412 0.98856 0.0
N343 N 0.02166 0.01085 0.03194 0.0
C344 C 0.01177 0.01163 0.04721 0.0
C345 C 0.00698 0.97742 0.04511 0.0
C346 C 0.01457 0.97626 0.02804 0.0
C347 C 0.00501 0.99517 0.05439 0.0
C348 C 0.02165 0.99341 0.02165 0.0
H349 H 0.02093 0.96164 0.9617 0.0
N350 N 0.02961 0.00956 0.99713 0.0
C351 C 0.02506 0.99221 0.96528 0.0
C352 C 0.02581 0.99275 0.00341 0.0
C353 C 0.02757 0.00934 0.97818 0.0
C354 C 0.02328 0.97494 0.97173 0.0
C355 C 0.02284 0.97498 0.99095 0.0
O356 O 0.02344 0.04734 0.99794 0.0
O357 O 0.05764 0.0621 0.02269 0.0
O358 O 0.06114 0.06579 0.06243 0.0
O359 O 0.03508 0.04388 0.05098 0.0
O360 O 0.03393 0.06671 0.03074 0.0
O361 O 0.0091 0.03874 0.0211 0.0
O362 O 0.09723 0.04231 0.04987 0.0
O363 O 0.05985 0.03037 0.03046 0.0
O364 O 0.05373 0.03604 0.99577 0.0
O365 O 0.08242 0.04625 0.01013 0.0
O366 O 0.07222 0.03477 0.05691 0.0
O367 O 0.10534 0.06344 0.03285 0.0
C368 C 0.04946 0.07537 0.02791 0.0
C369 C 0.99167 0.04278 0.99473 0.0
C370 C 0.96197 0.04943 0.99379 0.0
C371 C 0.97765 0.04855 0.00391 0.0
C372 C 0.96018 0.04336 0.97417 0.0
C373 C 0.98977 0.03688 0.97521 0.0
C374 C 0.97392 0.03692 0.96503 0.0
C375 C 0.04488 0.05653 0.06496 0.0
C376 C 0.00866 0.04603 0.00594 0.0
C377 C 0.01787 0.95787 0.99784 0.0
C378 C 0.01378 0.95852 0.01644 0.0
C379 C 0.06125 0.02236 0.04472 0.0
C380 C 0.12743 0.05707 0.0531 0.0
C381 C 0.1399 0.0461 0.0484 0.0
C382 C 0.15609 0.04942 0.05934 0.0
C383 C 0.1598 0.06432 0.07506 0.0
C384 C 0.13143 0.07229 0.06841 0.0
C385 C 0.14754 0.0758 0.07943 0.0
C386 C 0.07133 0.03927 0.99467 0.0
C387 C 0.11024 0.05127 0.04204 0.0
H388 H 0.9793 0.05298 0.01904 0.0
H389 H 0.94844 0.04411 0.96578 0.0
H390 H 1.00056 0.03271 0.96781 0.0
H391 H 0.97249 0.03252 0.94993 0.0
H392 H 0.13688 0.0349 0.03604 0.0
H393 H 0.17205 0.06705 0.08399 0.0
H394 H 0.12229 0.08144 0.07185 0.0
H395 H 0.1505 0.08736 0.09144 0.0
Tb396 Tb 0.29797 0.78944 0.2669 0.0
C397 C 0.27788 0.85408 0.32 0.0
C398 C 0.30543 0.87269 0.33689 0.0
C399 C 0.28042 0.88772 0.3338 0.0
C400 C 0.29516 0.8551 0.32681 0.0
C401 C 0.27026 0.87037 0.32376 0.0
C402 C 0.29798 0.88889 0.34032 0.0
C403 C 0.24235 0.85089 0.30938 0.0
N404 N 0.26832 0.83706 0.31036 0.0
C405 C 0.25034 0.83519 0.30624 0.0
C406 C 0.25241 0.86866 0.31795 0.0
Tb407 Tb 0.28179 0.81107 0.30927 0.0
N408 N 0.30199 0.83908 0.32334 0.0
C409 C 0.31962 0.84054 0.32877 0.0
C410 C 0.323 0.87365 0.34317 0.0
C411 C 0.33015 0.85756 0.3389 0.0
H412 H 0.24176 0.82145 0.30053 0.0
H413 H 0.344 0.85835 0.34299 0.0
H414 H 0.30568 0.9024 0.34808 0.0
H415 H 0.2283 0.84914 0.30556 0.0
H416 H 0.32648 0.82938 0.32451 0.0
H417 H 0.24008 0.73269 0.23908 0.0
H418 H 0.33127 0.88687 0.35086 0.0
H419 H 0.34107 0.78828 0.27224 0.0
H420 H 0.25489 0.76327 0.25802 0.0
H421 H 0.35991 0.76567 0.26236 0.0
H422 H 0.27475 0.90028 0.33679 0.0
H423 H 0.25751 0.70963 0.22547 0.0
H424 H 0.28698 0.7009 0.22249 0.0
H425 H 0.24611 0.88078 0.32067 0.0
H426 H 0.31934 0.70937 0.22978 0.0
N427 N 0.28132 0.75923 0.25412 0.0
C428 C 0.26312 0.75415 0.25156 0.0
C429 C 0.26429 0.72339 0.23354 0.0
C430 C 0.28273 0.72797 0.23714 0.0
C431 C 0.25444 0.73641 0.24109 0.0
C432 C 0.29097 0.74615 0.24769 0.0
H433 H 0.34648 0.73316 0.24499 0.0
N434 N 0.31659 0.76827 0.26246 0.0
C435 C 0.34563 0.76117 0.25959 0.0
C436 C 0.30914 0.75075 0.25216 0.0
C437 C 0.33478 0.77387 0.26539 0.0
C438 C 0.33802 0.74288 0.24976 0.0
C439 C 0.31962 0.73754 0.24568 0.0
O440 O 0.32039 0.80456 0.25662 0.0
O441 O 0.30006 0.8142 0.28882 0.0
O442 O 0.26481 0.81264 0.28334 0.0
O443 O 0.27179 0.79282 0.25727 0.0
O444 O 0.29867 0.81832 0.2616 0.0
O445 O 0.29728 0.78761 0.23763 0.0
O446 O 0.25598 0.79978 0.31536 0.0
O447 O 0.27973 0.78616 0.28795 0.0
O448 O 0.31572 0.78708 0.29151 0.0
O449 O 0.30608 0.80185 0.31952 0.0
O450 O 0.2799 0.78271 0.31591 0.0
O451 O 0.27633 0.81567 0.33747 0.0
C452 C 0.29978 0.82648 0.27872 0.0
C453 C 0.32324 0.80156 0.2237 0.0
C454 C 0.33146 0.81994 0.19934 0.0
C455 C 0.32098 0.81596 0.21388 0.0
C456 C 0.34426 0.80909 0.19457 0.0
C457 C 0.33591 0.79069 0.21895 0.0
C458 C 0.34639 0.79446 0.2043 0.0
C459 C 0.26163 0.80385 0.26537 0.0
C460 C 0.31277 0.79946 0.23952 0.0
C461 C 0.31149 0.71962 0.23493 0.0
C462 C 0.29309 0.71483 0.2307 0.0
C463 C 0.27919 0.77425 0.29879 0.0
C464 C 0.25069 0.79598 0.3463 0.0
C465 C 0.25941 0.78537 0.35661 0.0
C466 C 0.2506 0.77634 0.37012 0.0
C467 C 0.23301 0.7776 0.37303 0.0
C468 C 0.23306 0.79703 0.34913 0.0
C469 C 0.22424 0.78782 0.36243 0.0
C470 C 0.31746 0.79273 0.3102 0.0
C471 C 0.25965 0.80698 0.33318 0.0
H472 H 0.31136 0.82453 0.21803 0.0
H473 H 0.35247 0.81179 0.18325 0.0
H474 H 0.33777 0.77951 0.22655 0.0
H475 H 0.35624 0.78613 0.20056 0.0
H476 H 0.27303 0.7845 0.35447 0.0
H477 H 0.22605 0.77053 0.38338 0.0
H478 H 0.22619 0.80521 0.34119 0.0
H479 H 0.21067 0.78872 0.36463 0.0
Tb480 Tb 0.56308 0.03514 0.52348 0.0
C481 C 0.498 0.99816 0.55884 0.0
C482 C 0.48048 0.97432 0.53394 0.0
C483 C 0.4794 0.96949 0.56622 0.0
C484 C 0.49303 0.99168 0.54002 0.0
C485 C 0.49091 0.98743 0.57225 0.0
C486 C 0.47415 0.96296 0.54707 0.0
C487 C 0.50525 0.01403 0.59648 0.0
N488 N 0.50874 0.01575 0.56407 0.0
C489 C 0.51172 0.0242 0.58261 0.0
C490 C 0.49502 0.99543 0.59129 0.0
Tb491 Tb 0.51951 0.03107 0.54052 0.0
N492 N 0.49927 1.00325 0.52788 0.0
C493 C 0.49219 0.99896 0.50959 0.0
C494 C 0.47397 0.96943 0.51504 0.0
C495 C 0.4795 0.98207 0.50294 0.0
H496 H 0.51955 0.03861 0.58671 0.0
H497 H 0.47417 0.97871 0.48839 0.0
H498 H 0.46469 0.94946 0.54263 0.0
H499 H 0.50808 0.02058 0.61114 0.0
H500 H 0.49625 0.00833 0.49982 0.0
H501 H 0.60031 0.09642 0.57301 0.0
H502 H 0.46421 0.95632 0.50982 0.0
H503 H 0.56428 0.02244 0.47759 0.0
H504 H 0.58065 0.06464 0.56359 0.0
H505 H 0.57836 0.03626 0.45189 0.0
H506 H 0.47395 0.96091 0.57628 0.0
H507 H 0.6145 0.11346 0.54917 0.0
H508 H 0.61923 0.11379 0.51523 0.0
H509 H 0.48986 0.98765 0.60204 0.0
H510 H 0.61308 0.09758 0.4822 0.0
N511 N 0.58227 0.06406 0.5342 0.0
C512 C 0.58638 0.07189 0.55282 0.0
C513 C 0.60563 0.09957 0.54483 0.0
C514 C 0.60214 0.09109 0.52589 0.0
C515 C 0.59771 0.08992 0.55833 0.0
C516 C 0.59025 0.07313 0.52099 0.0
H517 H 0.59789 0.06863 0.45844 0.0
N518 N 0.57504 0.04704 0.49854 0.0
C519 C 0.58064 0.0444 0.46605 0.0
C520 C 0.58647 0.06433 0.50249 0.0
C521 C 0.57262 0.03664 0.48069 0.0
C522 C 0.59165 0.06267 0.46979 0.0
C523 C 0.59489 0.07278 0.48825 0.0
O524 O 0.57376 0.0113 0.51305 0.0
O525 O 0.53834 0.01638 0.52704 0.0
O526 O 0.53444 0.01615 0.55689 0.0
O527 O 0.56247 0.03348 0.55321 0.0
O528 O 0.54906 0.01008 0.50284 0.0
O529 O 0.58663 0.03122 0.53726 0.0
O530 O 0.50742 0.05174 0.55562 0.0
O531 O 0.54377 0.0506 0.53622 0.0
O532 O 0.54843 0.04796 0.50445 0.0
O533 O 0.51975 0.03454 0.51127 0.0
O534 O 0.53369 0.05549 0.56132 0.0
O535 O 0.49766 0.03848 0.52729 0.0
C536 C 0.53605 1.00396 0.51217 0.0
C537 C 0.60471 0.01412 0.51832 0.0
C538 C 0.63121 1.00006 0.51724 0.0
C539 C 0.61497 1.00193 0.52486 0.0
C540 C 0.63658 0.01 0.50273 0.0
C541 C 0.61081 0.02406 0.50412 0.0
C542 C 0.62648 0.02187 0.49628 0.0
C543 C 0.55163 0.02167 0.5616 0.0
C544 C 0.58731 0.01577 0.52551 0.0
C545 C 0.60657 0.09077 0.49295 0.0
C546 C 0.61012 0.09996 0.51175 0.0
C547 C 0.54538 0.06299 0.55117 0.0
C548 C 0.47708 0.04972 0.54682 0.0
C549 C 0.46784 0.06333 0.54189 0.0
C550 C 0.45034 0.06309 0.54677 0.0
C551 C 0.44229 0.04882 0.55652 0.0
C552 C 0.46875 0.03574 0.55655 0.0
C553 C 0.45144 0.03532 0.56135 0.0
C554 C 0.53094 0.04391 0.50106 0.0
C555 C 0.49546 0.05053 0.54192 0.0
H556 H 0.61049 0.99422 0.5359 0.0
H557 H 0.64873 0.00862 0.49635 0.0
H558 H 0.60342 0.03344 0.49889 0.0
H559 H 0.63087 0.02947 0.48515 0.0
H560 H 0.47442 0.07427 0.53457 0.0
H561 H 0.42879 0.0479 0.56023 0.0
H562 H 0.4756 0.02519 0.56048 0.0
H563 H 0.44507 0.02446 0.56885 0.0
Tb564 Tb 0.28257 0.29134 0.77574 0.0
C565 C 0.34249 0.2622 0.80715 0.0
C566 C 0.35424 0.28699 0.83403 0.0
C567 C 0.35732 0.25434 0.83427 0.0
C568 C 0.34501 0.28094 0.81605 0.0
C569 C 0.34909 0.24875 0.81589 0.0
C570 C 0.35999 0.27348 0.84328 0.0
C571 C 0.34197 0.22641 0.78655 0.0
N572 N 0.33526 0.25769 0.78912 0.0
C573 C 0.33597 0.24041 0.77841 0.0
C574 C 0.34825 0.23047 0.80549 0.0
Tb575 Tb 0.32616 0.28172 0.77671 0.0
N576 N 0.33987 0.29359 0.80632 0.0
C577 C 0.34447 0.31278 0.81343 0.0
C578 C 0.35825 0.30655 0.84168 0.0
C579 C 0.35348 0.31952 0.83125 0.0
H580 H 0.33146 0.23726 0.76366 0.0
H581 H 0.35683 0.33472 0.83687 0.0
H582 H 0.36719 0.27781 0.85702 0.0
H583 H 0.34193 0.21258 0.77816 0.0
H584 H 0.34102 0.32297 0.80554 0.0
H585 H 0.25072 0.23198 0.71925 0.0
H586 H 0.3656 0.31189 0.85525 0.0
H587 H 0.27935 0.33768 0.78157 0.0
H588 H 0.2651 0.24559 0.74987 0.0
H589 H 0.27078 0.35956 0.76229 0.0
H590 H 0.36242 0.24422 0.84127 0.0
H591 H 0.24357 0.25255 0.69747 0.0
H592 H 0.24306 0.2852 0.69155 0.0
H593 H 0.35318 0.21973 0.81169 0.0
H594 H 0.24882 0.31986 0.70302 0.0
N595 N 0.26761 0.27522 0.74694 0.0
C596 C 0.26259 0.25562 0.74132 0.0
C597 C 0.25014 0.25903 0.71128 0.0
C598 C 0.25423 0.27884 0.71716 0.0
C599 C 0.25416 0.2474 0.7235 0.0
C600 C 0.26297 0.28665 0.73529 0.0
H601 H 0.25903 0.34758 0.72923 0.0
N602 N 0.27433 0.31333 0.75925 0.0
C603 C 0.2698 0.34468 0.75614 0.0
C604 C 0.26655 0.30625 0.74158 0.0
C605 C 0.27489 0.33213 0.76695 0.0
C606 C 0.26316 0.33786 0.73754 0.0
C607 C 0.26104 0.3184 0.73016 0.0
O608 O 0.27102 0.30766 0.79671 0.0
O609 O 0.3077 0.29502 0.79269 0.0
O610 O 0.30798 0.25519 0.78327 0.0
O611 O 0.2796 0.26055 0.77708 0.0
O612 O 0.2849 0.28292 0.80298 0.0
O613 O 0.25552 0.28153 0.78028 0.0
O614 O 0.34007 0.27492 0.75286 0.0
O615 O 0.30374 0.28462 0.75826 0.0
O616 O 0.30197 0.31986 0.77786 0.0
O617 O 0.32942 0.31228 0.77299 0.0
O618 O 0.31375 0.26011 0.75342 0.0
O619 O 0.35283 0.296 0.77589 0.0
C620 C 0.30161 0.28889 0.80694 0.0
C621 C 0.23918 0.30245 0.7983 0.0
C622 C 0.21063 0.30065 0.81306 0.0
C623 C 0.22601 0.29316 0.80891 0.0
C624 C 0.20912 0.31767 0.80685 0.0
C625 C 0.23676 0.31921 0.79234 0.0
C626 C 0.22197 0.32676 0.79665 0.0
C627 C 0.29024 0.2491 0.78089 0.0
C628 C 0.25582 0.29533 0.79444 0.0
C629 C 0.25295 0.31071 0.71199 0.0
C630 C 0.24961 0.29098 0.70549 0.0
C631 C 0.30301 0.26911 0.74651 0.0
C632 C 0.37142 0.27937 0.75759 0.0
C633 C 0.38326 0.28458 0.74404 0.0
C634 C 0.39915 0.27761 0.74256 0.0
C635 C 0.4023 0.26462 0.75411 0.0
C636 C 0.37577 0.26738 0.76954 0.0
C637 C 0.39081 0.25972 0.76752 0.0
C638 C 0.31912 0.32502 0.77491 0.0
C639 C 0.35482 0.2867 0.75956 0.0
H640 H 0.22764 0.2802 0.8137 0.0
H641 H 0.19788 0.32411 0.80997 0.0
H642 H 0.24638 0.32672 0.78449 0.0
H643 H 0.22045 0.33985 0.79206 0.0
H644 H 0.38038 0.29438 0.73515 0.0
H645 H 0.41387 0.25835 0.75298 0.0
H646 H 0.36769 0.26402 0.78064 0.0
H647 H 0.39374 0.25012 0.7766 0.0
Tb648 Tb 0.05016 0.05489 0.52408 0.0
C649 C 0.07127 0.99592 0.46991 0.0
C650 C 0.04546 0.98764 0.44731 0.0
C651 C 0.07409 0.98324 0.43726 0.0
C652 C 0.0534 0.99482 0.46575 0.0
C653 C 0.08173 0.98961 0.45582 0.0
C654 C 0.05599 0.9823 0.433 0.0
C655 C 0.10582 0.99404 0.47985 0.0
N656 N 0.07808 1.00183 0.48805 0.0
C657 C 0.09486 1.00001 0.49334 0.0
C658 C 0.09932 0.98911 0.46096 0.0
Tb659 Tb 0.05875 0.01038 0.50911 0.0
N660 N 0.04358 0.99958 0.48003 0.0
C661 C 0.0255 0.99642 0.47699 0.0
C662 C 0.02709 0.98541 0.44395 0.0
C663 C 0.01704 0.98962 0.45891 0.0
H664 H 0.09989 1.00361 0.50796 0.0
H665 H 1.00277 0.98755 0.45654 0.0
H666 H 0.05016 0.97686 0.41873 0.0
H667 H 0.11923 0.99313 0.48404 0.0
H668 H 0.01756 0.99941 0.48841 0.0
H669 H 0.10891 0.08447 0.57387 0.0
H670 H 0.02048 0.97998 0.42998 0.0
H671 H 0.00681 0.05535 0.52955 0.0
H672 H 0.09354 0.06704 0.54458 0.0
H673 H 0.98903 0.06463 0.55474 0.0
H674 H 0.08194 0.97847 0.4262 0.0
H675 H 0.09243 0.09627 0.59983 0.0
H676 H 0.06354 0.09903 0.61219 0.0
H677 H 0.10778 0.98431 0.45056 0.0
H678 H 0.03108 0.09266 0.60739 0.0
N679 N 0.06717 0.06857 0.55232 0.0
C680 C 0.08543 0.07213 0.555 0.0
C681 C 0.08525 0.08863 0.58663 0.0
C682 C 0.06678 0.08514 0.58413 0.0
C683 C 0.09458 0.08203 0.57202 0.0
C684 C 0.05796 0.07499 0.56664 0.0
H685 H 1.00334 0.07953 0.58636 0.0
N686 N 0.03146 0.06198 0.54695 0.0
C687 C 1.0032 0.06626 0.55768 0.0
C688 C 0.03961 0.07122 0.56401 0.0
C689 C 0.01348 0.06051 0.54347 0.0
C690 C 0.01132 0.07474 0.57545 0.0
C691 C 0.02973 0.07774 0.5787 0.0
O692 O 0.03284 0.06966 0.51264 0.0
O693 O 0.04423 0.03097 0.50016 0.0
O694 O 0.08089 0.03049 0.49993 0.0
O695 O 0.07738 0.05928 0.51689 0.0
O696 O 0.05444 0.05714 0.49471 0.0
O697 O 0.05951 0.08446 0.52447 0.0
O698 O 0.06833 0.99132 0.52371 0.0
O699 O 0.0582 0.03075 0.5354 0.0
O700 O 0.02474 0.03375 0.52146 0.0
O701 O 0.03403 0.00583 0.52291 0.0
O702 O 0.0807 0.02059 0.53101 0.0
O703 O 0.04464 0.98156 0.50496 0.0
C704 C 0.04761 0.04 0.48639 0.0
C705 C 0.03919 0.10385 0.51717 0.0
C706 C 0.04244 0.13471 0.50681 0.0
C707 C 0.04877 0.11812 0.50848 0.0
C708 C 0.02651 0.13693 0.51468 0.0
C709 C 0.02349 0.10644 0.52501 0.0
C710 C 0.01729 0.12302 0.52388 0.0
C711 C 0.08669 0.04905 0.50641 0.0
C712 C 0.04483 0.08558 0.51544 0.0
C713 C 0.03848 0.08759 0.59604 0.0
C714 C 0.05696 0.09131 0.59874 0.0
C715 C 0.07319 0.02982 0.54389 0.0
C716 C 0.0601 0.95821 0.51246 0.0
C717 C 0.05403 0.94511 0.524 0.0
C718 C 0.06017 0.92807 0.52312 0.0
C719 C 0.07207 0.924 0.50973 0.0
C720 C 0.07161 0.95381 0.49892 0.0
C721 C 0.07753 0.9367 0.49756 0.0
C722 C 0.02162 0.01588 0.52422 0.0
C723 C 0.05551 0.97697 0.51672 0.0
H724 H 0.06097 0.11594 0.50264 0.0
H725 H 0.02078 0.14911 0.51331 0.0
H726 H 0.01582 0.09552 0.53156 0.0
H727 H 0.00502 0.12487 0.52971 0.0
H728 H 0.04468 0.94855 0.53396 0.0
H729 H 0.07743 0.91123 0.50881 0.0
H730 H 0.07617 0.96357 0.48963 0.0
H731 H 0.08666 0.93345 0.4873 0.0
Tb732 Tb 0.32934 0.81047 0.76084 0.0
C733 C 0.28153 0.75546 0.79774 0.0
C734 C 0.28856 0.72507 0.78481 0.0
C735 C 0.27707 0.72929 0.81533 0.0
C736 C 0.28774 0.7441 0.78341 0.0
C737 C 0.27545 0.74785 0.81351 0.0
C738 C 0.28371 0.71796 0.80105 0.0
C739 C 0.26388 0.77613 0.82306 0.0
N740 N 0.27965 0.77315 0.79532 0.0
C741 C 0.26998 0.78302 0.80719 0.0
C742 C 0.26693 0.75864 0.82643 0.0
Tb743 Tb 0.28913 0.78224 0.76799 0.0
N744 N 0.29151 0.75105 0.76748 0.0
C745 C 0.29488 0.73905 0.75199 0.0
C746 C 0.29357 0.71346 0.76957 0.0
C747 C 0.29663 0.72048 0.75309 0.0
H748 H 0.26759 0.79664 0.80474 0.0
H749 H 0.30058 0.71168 0.74128 0.0
H750 H 0.28436 0.70344 0.80237 0.0
H751 H 0.25679 0.7843 0.83266 0.0
H752 H 0.297 0.74369 0.7388 0.0
H753 H 0.31935 0.87767 0.79871 0.0
H754 H 0.29467 0.69891 0.77021 0.0
H755 H 0.3455 0.79982 0.71985 0.0
H756 H 0.32106 0.84375 0.79464 0.0
H757 H 0.35256 0.81525 0.69241 0.0
H758 H 0.2726 0.7233 0.82741 0.0
H759 H 0.32375 0.89499 0.77217 0.0
H760 H 0.33137 0.89484 0.73891 0.0
H761 H 0.262 0.75323 0.83864 0.0
H762 H 0.34028 0.87781 0.70991 0.0
N763 N 0.3264 0.84164 0.76597 0.0
C764 C 0.32314 0.85108 0.78295 0.0
C765 C 0.32453 0.88005 0.77027 0.0
C766 C 0.32844 0.8705 0.75311 0.0
C767 C 0.32208 0.87034 0.78531 0.0
C768 C 0.32933 0.85106 0.7514 0.0
H769 H 0.34824 0.84814 0.69245 0.0
N770 N 0.33566 0.823 0.73436 0.0
C771 C 0.34716 0.82267 0.7042 0.0
C772 C 0.33418 0.84145 0.73506 0.0
C773 C 0.34295 0.81387 0.71962 0.0
C774 C 0.34473 0.84126 0.70429 0.0
C775 C 0.3385 0.85103 0.71999 0.0
O776 O 0.3548 0.80485 0.75938 0.0
O777 O 0.31792 0.78236 0.7683 0.0
O778 O 0.30048 0.7969 0.79608 0.0
O779 O 0.32903 0.81115 0.79057 0.0
O780 O 0.33536 0.78269 0.74834 0.0
O781 O 0.35095 0.83022 0.77716 0.0
O782 O 0.26372 0.78798 0.76938 0.0
O783 O 0.30245 0.81266 0.76889 0.0
O784 O 0.31292 0.80355 0.73442 0.0
O785 O 0.29603 0.7753 0.73968 0.0
O786 O 0.27848 0.80338 0.75466 0.0
O787 O 0.26805 0.76257 0.75124 0.0
C788 C 0.32686 0.77149 0.7585 0.0
C789 C 0.37983 0.83005 0.76712 0.0
C790 C 0.41177 0.83641 0.77591 0.0
C791 C 0.39407 0.83208 0.78053 0.0
C792 C 0.41467 0.8398 0.75758 0.0
C793 C 0.38308 0.83431 0.74936 0.0
C794 C 0.40045 0.83926 0.74466 0.0
C795 C 0.31681 0.80647 0.80186 0.0
C796 C 0.36232 0.82019 0.77121 0.0
C797 C 0.33708 0.87022 0.72137 0.0
C798 C 0.33203 0.87992 0.73788 0.0
C799 C 0.29039 0.81867 0.75985 0.0
C800 C 0.23893 0.76272 0.76035 0.0
C801 C 0.22446 0.76648 0.75038 0.0
C802 C 0.20709 0.75869 0.75386 0.0
C803 C 0.20433 0.74701 0.76753 0.0
C804 C 0.23611 0.75084 0.77375 0.0
C805 C 0.2188 0.74304 0.77734 0.0
C806 C 0.30182 0.78714 0.72851 0.0
C807 C 0.25657 0.7727 0.7571 0.0
H808 H 0.391 0.82951 0.79436 0.0
H809 H 0.4278 0.84244 0.75279 0.0
H810 H 0.37233 0.83323 0.73894 0.0
H811 H 0.40291 0.84199 0.73072 0.0
H812 H 0.22674 0.77593 0.74022 0.0
H813 H 0.19101 0.74077 0.77044 0.0
H814 H 0.24715 0.74772 0.7815 0.0
H815 H 0.2166 0.73397 0.78779 0.0
Tb816 Tb 0.54285 0.0454 0.02775 0.0
C817 C 0.49443 0.06024 0.96545 0.0
C818 C 0.47985 0.02858 0.94879 0.0
C819 C 0.46604 0.05549 0.94706 0.0
C820 C 0.49437 0.04095 0.96023 0.0
C821 C 0.48028 0.06771 0.95871 0.0
C822 C 0.46589 0.03602 0.94202 0.0
C823 C 0.49623 0.09929 0.97334 0.0
N824 N 0.50864 0.0718 0.97637 0.0
C825 C 0.51006 0.09136 0.97932 0.0
C826 C 0.48118 0.0874 0.96314 0.0
Tb827 Tb 0.53209 0.05742 0.9817 0.0
N828 N 0.50845 0.0343 0.96633 0.0
C829 C 0.50808 0.01506 0.96246 0.0
C830 C 0.47978 0.00907 0.94436 0.0
C831 C 0.49384 1.00226 0.95147 0.0
H832 H 0.522 0.10103 0.98635 0.0
H833 H 0.49367 0.98708 0.94865 0.0
H834 H 0.45505 0.02688 0.93262 0.0
H835 H 0.49741 0.11465 0.97621 0.0
H836 H 0.51809 0.00906 0.96854 0.0
H837 H 0.57804 0.10527 0.0812 0.0
H838 H 0.4688 0.99911 0.93577 0.0
H839 H 0.5476 0.99955 0.02296 0.0
H840 H 0.55224 0.08607 0.06096 0.0
H841 H 0.57058 0.98246 0.03061 0.0
H842 H 0.45521 0.06103 0.94158 0.0
H843 H 0.60525 0.09272 0.08434 0.0
H844 H 0.62043 0.06549 0.0771 0.0
H845 H 0.47062 0.09363 0.95816 0.0
H846 H 0.61823 0.03161 0.0636 0.0
N847 N 0.56545 0.06409 0.04933 0.0
C848 C 0.56439 0.08093 0.06068 0.0
C849 C 0.59422 0.08464 0.07451 0.0
C850 C 0.59454 0.06644 0.06476 0.0
C851 C 0.5789 0.09173 0.07279 0.0
C852 C 0.57963 0.05623 0.05243 0.0
H853 H 0.59945 1.00041 0.04694 0.0
N854 N 0.56334 0.02746 0.03424 0.0
C855 C 0.57311 0.9979 0.03446 0.0
C856 C 0.57846 0.03722 0.04478 0.0
C857 C 0.56009 0.00775 0.0302 0.0
C858 C 0.58938 0.00808 0.04361 0.0
C859 C 0.59207 0.0279 0.04932 0.0
O860 O 0.52748 0.02075 0.03512 0.0
O861 O 0.52485 0.03966 0.00213 0.0
O862 O 0.52364 0.0762 0.00459 0.0
O863 O 0.54375 0.07598 0.02938 0.0
O864 O 0.5147 0.04552 0.02755 0.0
O865 O 0.53152 0.04869 0.05332 0.0
O866 O 0.54279 0.08182 0.97073 0.0
O867 O 0.55047 0.05934 0.0053 0.0
O868 O 0.55233 0.02667 0.00531 0.0
O869 O 0.5438 0.03246 0.97544 0.0
O870 O 0.56042 0.07186 0.98419 0.0
O871 O 0.53563 0.05271 0.95307 0.0
C872 C 0.51088 0.04071 0.00982 0.0
C873 C 0.52531 0.02166 0.06788 0.0
C874 C 0.51539 0.0197 0.09883 0.0
C875 C 0.51606 0.0281 0.0828 0.0
C876 C 0.5245 0.00499 0.10006 0.0
C877 C 0.53405 0.00666 0.06906 0.0
C878 C 0.53378 0.99852 0.08519 0.0
C879 C 0.53181 0.08351 0.02138 0.0
C880 C 0.52451 0.03037 0.05111 0.0
C881 C 0.60753 0.03845 0.06027 0.0
C882 C 0.60878 0.05773 0.06795 0.0
C883 C 0.56448 0.06807 1.0002 0.0
C884 C 0.54709 0.07929 0.93788 0.0
C885 C 0.55664 0.06943 0.92557 0.0
C886 C 0.56362 0.07739 0.91072 0.0
C887 C 0.56047 0.09512 0.90771 0.0
C888 C 0.54417 0.0972 0.93528 0.0
C889 C 0.55071 0.10499 0.92001 0.0
C890 C 0.55135 0.02313 0.98667 0.0
C891 C 0.54153 0.07121 0.9541 0.0
H892 H 0.50917 0.0396 0.08184 0.0
H893 H 0.52404 0.99817 0.11227 0.0
H894 H 0.54082 1.00098 0.05757 0.0
H895 H 0.54052 0.98694 0.08605 0.0
H896 H 0.55924 0.05581 0.92795 0.0
H897 H 0.56601 0.10155 0.89628 0.0
H898 H 0.53695 0.10509 0.94501 0.0
H899 H 0.54853 0.1188 0.91793 0.0
Tb900 Tb 0.29671 0.2913 0.26621 0.0
C901 C 0.23126 0.23534 0.23285 0.0
C902 C 0.21439 0.22958 0.25927 0.0
C903 C 0.19891 0.22599 0.22856 0.0
C904 C 0.23091 0.23448 0.25172 0.0
C905 C 0.21524 0.23021 0.22095 0.0
C906 C 0.19849 0.22583 0.24772 0.0
C907 C 0.23247 0.23009 0.19435 0.0
N908 N 0.24725 0.23911 0.22575 0.0
C909 C 0.24787 0.23495 0.20661 0.0
C910 C 0.21605 0.22814 0.20156 0.0
Tb911 Tb 0.2721 0.24399 0.24665 0.0
N912 N 0.24661 0.23731 0.26242 0.0
C913 C 0.24617 0.23471 0.28077 0.0
C914 C 0.2142 0.22784 0.27808 0.0
C915 C 0.23016 0.23025 0.2888 0.0
H916 H 0.26038 0.23559 0.20051 0.0
H917 H 0.23017 0.22865 0.30337 0.0
H918 H 0.18578 0.22206 0.25334 0.0
H919 H 0.23333 0.22749 0.17933 0.0
H920 H 0.25776 0.23627 0.29003 0.0
H921 H 0.33649 0.30183 0.20711 0.0
H922 H 0.20182 0.22419 0.28435 0.0
H923 H 0.30927 0.30199 0.31177 0.0
H924 H 0.30953 0.29188 0.22122 0.0
H925 H 0.33659 0.3108 0.33264 0.0
H926 H 0.18656 0.22215 0.21964 0.0
H927 H 0.36523 0.31126 0.22622 0.0
H928 H 0.38217 0.31598 0.25725 0.0
H929 H 0.20408 0.22401 0.19202 0.0
H930 H 0.38233 0.31707 0.2912 0.0
N931 N 0.32157 0.29613 0.24938 0.0
C932 C 0.32136 0.29644 0.23048 0.0
C933 C 0.35316 0.3069 0.2328 0.0
C934 C 0.35362 0.30635 0.25191 0.0
C935 C 0.33698 0.30181 0.22204 0.0
C936 C 0.33748 0.30078 0.25994 0.0
H937 H 0.36556 0.3149 0.31933 0.0
N938 N 0.3219 0.29662 0.28658 0.0
C939 C 0.33719 0.30738 0.31762 0.0
C940 C 0.33765 0.30081 0.27903 0.0
C941 C 0.3216 0.30157 0.30566 0.0
C942 C 0.35346 0.3098 0.31005 0.0
C943 C 0.35386 0.3072 0.29059 0.0
O944 O 0.29051 0.3105 0.28876 0.0
O945 O 0.27224 0.27017 0.26525 0.0
O946 O 0.2713 0.26377 0.22581 0.0
O947 O 0.28626 0.29496 0.23925 0.0
O948 O 0.27027 0.29733 0.26274 0.0
O949 O 0.30669 0.3206 0.2672 0.0
O950 O 0.27976 0.22745 0.22309 0.0
O951 O 0.29671 0.26492 0.24772 0.0
O952 O 0.29635 0.27281 0.28799 0.0
O953 O 0.28215 0.24115 0.27478 0.0
O954 O 0.29815 0.23788 0.25186 0.0
O955 O 0.26371 0.21403 0.24311 0.0
C956 C 0.26129 0.28043 0.26313 0.0
C957 C 0.29722 0.34409 0.28882 0.0
C958 C 0.28185 0.36915 0.28446 0.0
C959 C 0.285 0.35084 0.27831 0.0
C960 C 0.2916 0.38087 0.30062 0.0
C961 C 0.30684 0.35584 0.30493 0.0
C962 C 0.30413 0.37424 0.31073 0.0
C963 C 0.27688 0.28235 0.22518 0.0
C964 C 0.30063 0.32504 0.28343 0.0
C965 C 0.36985 0.31216 0.28253 0.0
C966 C 0.36974 0.31168 0.26323 0.0
C967 C 0.30735 0.25448 0.25071 0.0
C968 C 0.27499 0.19348 0.21947 0.0
C969 C 0.28531 0.18471 0.23017 0.0
C970 C 0.28939 0.16725 0.22226 0.0
C971 C 0.28303 0.15863 0.20369 0.0
C972 C 0.26858 0.18471 0.20097 0.0
C973 C 0.27257 0.16733 0.19314 0.0
C974 C 0.29073 0.25438 0.28912 0.0
C975 C 0.27044 0.21167 0.22694 0.0
H976 H 0.27749 0.34165 0.26592 0.0
H977 H 0.28948 0.39514 0.30544 0.0
H978 H 0.31647 0.35073 0.31304 0.0
H979 H 0.31158 0.38329 0.32317 0.0
H980 H 0.29034 0.19154 0.24444 0.0
H981 H 0.28602 0.14511 0.19747 0.0
H982 H 0.26046 0.19134 0.19259 0.0
H983 H 0.26757 0.16061 0.17887 0.0
Tb984 Tb 0.55026 0.55302 0.02623 0.0
C985 C 0.57373 0.49429 0.96947 0.0
C986 C 0.54815 0.48165 0.94689 0.0
C987 C 0.57761 0.48014 0.93752 0.0
C988 C 0.55565 0.49093 0.96509 0.0
C989 C 0.5849 0.48858 0.95586 0.0
C990 C 0.55925 0.47667 0.93305 0.0
C991 C 0.60937 0.49802 0.97996 0.0
N992 N 0.58023 0.50201 0.98744 0.0
C993 C 0.59773 0.50323 0.99301 0.0
C994 C 0.60297 0.49085 0.96126 0.0
Tb995 Tb 0.56008 0.50946 0.00803 0.0
N996 N 0.54534 0.49552 0.97898 0.0
C997 C 0.52721 0.49006 0.97566 0.0
C998 C 0.52968 0.47691 0.94335 0.0
C999 C 0.51919 0.48086 0.95788 0.0
H1000 H 0.60278 0.50866 0.00748 0.0
H1001 H 0.50486 0.47686 0.95543 0.0
H1002 H 0.55372 0.46964 0.919 0.0
H1003 H 0.62325 0.49943 0.98437 0.0
H1004 H 0.51857 0.49283 0.98644 0.0
H1005 H 0.60479 0.58229 0.08055 0.0
H1006 H 0.52341 0.46971 0.92961 0.0
H1007 H 0.50812 0.55605 0.02515 0.0
H1008 H 0.59119 0.5646 0.05025 0.0
H1009 H 0.488 0.56911 0.04643 0.0
H1010 H 0.58598 0.47573 0.92685 0.0
H1011 H 0.58655 0.59551 0.10414 0.0
H1012 H 0.55669 0.6006 0.11268 0.0
H1013 H 0.61197 0.48662 0.95122 0.0
H1014 H 0.52485 0.59669 0.10359 0.0
N1015 N 0.56461 0.56724 0.05551 0.0
C1016 C 0.58262 0.57023 0.05983 0.0
C1017 C 0.58029 0.58766 0.09061 0.0
C1018 C 0.56203 0.58498 0.08619 0.0
C1019 C 0.59062 0.58029 0.07733 0.0
C1020 C 0.55453 0.57463 0.06834 0.0
H1021 H 0.49914 0.58496 0.07896 0.0
N1022 N 0.53031 0.56325 0.0457 0.0
C1023 C 0.50165 0.57002 0.05142 0.0
C1024 C 0.53671 0.57238 0.06331 0.0
C1025 C 0.51311 0.56255 0.03942 0.0
C1026 C 0.50797 0.57892 0.06977 0.0
C1027 C 0.52576 0.58047 0.07585 0.0
O1028 O 0.53987 0.57126 0.01118 0.0
O1029 O 0.55074 0.53356 0.9997 0.0
O1030 O 0.57947 0.53089 0.99714 0.0
O1031 O 0.57814 0.55632 0.02024 0.0
O1032 O 0.52851 0.54368 0.00352 0.0
O1033 O 0.56644 0.57981 0.02454 0.0
O1034 O 0.57256 0.49129 0.02094 0.0
O1035 O 0.55883 0.52826 0.035 0.0
O1036 O 0.52933 0.5326 0.03588 0.0
O1037 O 0.53244 0.50499 0.01603 0.0
O1038 O 0.58137 0.51884 0.03101 0.0
O1039 O 0.5456 0.48148 0.00843 0.0
C1040 C 0.53575 0.53368 0.99111 0.0
C1041 C 0.55201 0.60421 0.01815 0.0
C1042 C 0.55361 0.63435 0.00708 0.0
C1043 C 0.55704 0.61588 0.00493 0.0
C1044 C 0.54526 0.64111 0.02282 0.0
C1045 C 0.54376 0.61113 0.0338 0.0
C1046 C 0.54046 0.62956 0.03612 0.0
C1047 C 0.58629 0.54832 0.00658 0.0
C1048 C 0.55431 0.58446 0.01426 0.0
C1049 C 0.53304 0.59039 0.09377 0.0
C1050 C 0.55116 0.59264 0.09893 0.0
C1051 C 0.57356 0.52752 0.04395 0.0
C1052 C 0.56223 0.45802 0.0126 0.0
C1053 C 0.55609 0.44484 0.02408 0.0
C1054 C 0.56131 0.42729 0.02207 0.0
C1055 C 0.57248 0.42275 0.00817 0.0
C1056 C 0.57318 0.45333 0.99851 0.0
C1057 C 0.5782 0.43566 0.99627 0.0
C1058 C 0.5234 0.51448 0.02782 0.0
C1059 C 0.55876 0.47723 0.01756 0.0
H1060 H 0.56314 0.61035 0.99266 0.0
H1061 H 0.54261 0.65538 0.02491 0.0
H1062 H 0.53968 0.60227 0.04403 0.0
H1063 H 0.53403 0.63486 0.04818 0.0
H1064 H 0.5479 0.44862 0.03521 0.0
H1065 H 0.57672 0.40926 0.00651 0.0
H1066 H 0.57816 0.4634 0.98961 0.0
H1067 H 0.5868 0.43212 0.98554 0.0
Tb1068 Tb 0.8282 0.31089 0.25904 0.0
C1069 C 0.78162 0.25432 0.29926 0.0
C1070 C 0.78577 0.22354 0.28373 0.0
C1071 C 0.77619 0.22702 0.31522 0.0
C1072 C 0.78625 0.24314 0.28387 0.0
C1073 C 0.77616 0.24634 0.31499 0.0
C1074 C 0.78105 0.21564 0.29962 0.0
C1075 C 0.76958 0.27665 0.32836 0.0
N1076 N 0.78151 0.27281 0.29836 0.0
C1077 C 0.77508 0.28388 0.31242 0.0
C1078 C 0.77029 0.25785 0.32975 0.0
Tb1079 Tb 0.79008 0.28338 0.27151 0.0
N1080 N 0.79031 0.25122 0.26867 0.0
C1081 C 0.79307 0.23995 0.25239 0.0
C1082 C 0.78953 0.21233 0.26745 0.0
C1083 C 0.79301 0.22056 0.25165 0.0
H1084 H 0.77443 0.29843 0.31158 0.0
H1085 H 0.79562 0.21196 0.23884 0.0
H1086 H 0.78067 0.20065 0.2998 0.0
H1087 H 0.76478 0.28559 0.33955 0.0
H1088 H 0.79575 0.24565 0.23983 0.0
H1089 H 0.82556 0.38275 0.29325 0.0
H1090 H 0.78936 0.19726 0.2668 0.0
H1091 H 0.84071 0.29515 0.21743 0.0
H1092 H 0.82402 0.34865 0.29152 0.0
H1093 H 0.84944 0.30822 0.18912 0.0
H1094 H 0.77213 0.22064 0.32721 0.0
H1095 H 0.83126 0.39759 0.26531 0.0
H1096 H 0.83837 0.39412 0.23181 0.0
H1097 H 0.76592 0.25224 0.34205 0.0
H1098 H 0.84493 0.37385 0.20347 0.0
N1099 N 0.82819 0.3431 0.26234 0.0
C1100 C 0.82639 0.35444 0.27895 0.0
C1101 C 0.83043 0.38236 0.26431 0.0
C1102 C 0.83303 0.37101 0.24758 0.0
C1103 C 0.82727 0.37405 0.28011 0.0
C1104 C 0.83181 0.35121 0.24704 0.0
H1105 H 0.84924 0.34186 0.18752 0.0
N1106 N 0.83499 0.32113 0.23154 0.0
C1107 C 0.84541 0.31719 0.2008 0.0
C1108 C 0.83538 0.33985 0.2311 0.0
C1109 C 0.84045 0.30987 0.21687 0.0
C1110 C 0.84523 0.33621 0.19992 0.0
C1111 C 0.84042 0.34789 0.21527 0.0
O1112 O 0.85364 0.306 0.25478 0.0
O1113 O 0.81837 0.28349 0.26864 0.0
O1114 O 0.8077 0.29067 0.29718 0.0
O1115 O 0.82605 0.31695 0.28907 0.0
O1116 O 0.83353 0.28248 0.24702 0.0
O1117 O 0.84951 0.32716 0.27796 0.0
O1118 O 0.76449 0.28892 0.27335 0.0
O1119 O 0.80011 0.31097 0.2628 0.0
O1120 O 0.80958 0.30511 0.23427 0.0
O1121 O 0.79416 0.27732 0.24185 0.0
O1122 O 0.78513 0.31159 0.28452 0.0
O1123 O 0.76977 0.26767 0.25118 0.0
C1124 C 0.82625 0.27192 0.25834 0.0
C1125 C 0.87807 0.33099 0.26711 0.0
C1126 C 0.90929 0.34104 0.27823 0.0
C1127 C 0.89205 0.33146 0.28022 0.0
C1128 C 0.91233 0.35095 0.26323 0.0
C1129 C 0.88115 0.34066 0.25201 0.0
C1130 C 0.89825 0.35078 0.25021 0.0
C1131 C 0.82005 0.30656 0.30156 0.0
C1132 C 0.86098 0.31894 0.26919 0.0
C1133 C 0.84112 0.36743 0.21551 0.0
C1134 C 0.8374 0.37897 0.23164 0.0
C1135 C 0.79277 0.32254 0.27376 0.0
C1136 C 0.74029 0.26477 0.25882 0.0
C1137 C 0.72684 0.26651 0.246 0.0
C1138 C 0.70962 0.25573 0.24574 0.0
C1139 C 0.70585 0.2432 0.25851 0.0
C1140 C 0.73651 0.25239 0.27169 0.0
C1141 C 0.71927 0.24164 0.27151 0.0
C1142 C 0.79803 0.28874 0.22965 0.0
C1143 C 0.75795 0.2764 0.2584 0.0
H1144 H 0.88954 0.32385 0.29182 0.0
H1145 H 0.92561 0.35828 0.26127 0.0
H1146 H 0.87053 0.34018 0.24155 0.0
H1147 H 0.90068 0.35814 0.23849 0.0
H1148 H 0.72976 0.27629 0.23621 0.0
H1149 H 0.69249 0.235 0.2587 0.0
H1150 H 0.74677 0.2511 0.28181 0.0
H1151 H 0.71627 0.23217 0.28151 0.0
Tb1152 Tb 0.04358 0.54152 0.52723 0.0
C1153 C 0.99795 0.56676 0.46803 0.0
C1154 C 0.98177 0.53696 0.4492 0.0
C1155 C 0.96821 0.56461 0.45388 0.0
C1156 C 0.997 0.54782 0.46061 0.0
C1157 C 0.98383 0.5756 0.46428 0.0
C1158 C 0.96718 0.54528 0.44637 0.0
C1159 C 1.00241 0.60587 0.47943 0.0
N1160 N 0.01327 0.57688 0.47784 0.0
C1161 C 0.01607 0.59644 0.48262 0.0
C1162 C 0.98609 0.59535 0.4705 0.0
Tb1163 Tb 0.03448 0.56009 0.48394 0.0
N1164 N 0.01147 0.54044 0.46358 0.0
C1165 C 0.01198 0.52258 0.45395 0.0
C1166 C 0.98192 0.51835 0.44038 0.0
C1167 C 0.99725 0.5113 0.44243 0.0
H1168 H 0.02864 0.6046 0.4897 0.0
H1169 H 0.99771 0.49709 0.43526 0.0
H1170 H 0.95528 0.53709 0.43786 0.0
H1171 H 0.00447 0.62122 0.48388 0.0
H1172 H 0.02346 0.51647 0.45497 0.0
H1173 H 0.08049 0.60781 0.57109 0.0
H1174 H 0.97051 0.50954 0.4315 0.0
H1175 H 0.05073 0.49761 0.52483 0.0
H1176 H 0.05451 0.58673 0.55295 0.0
H1177 H 0.07575 0.48242 0.53125 0.0
H1178 H 0.9571 0.57106 0.45106 0.0
H1179 H 0.10822 0.59645 0.57538 0.0
H1180 H 0.12419 0.56944 0.57033 0.0
H1181 H 0.97555 0.60268 0.46795 0.0
H1182 H 0.12304 0.53519 0.5592 0.0
N1183 N 0.06684 0.56273 0.54614 0.0
C1184 C 0.0662 0.58103 0.55444 0.0
C1185 C 0.09669 0.58687 0.56733 0.0
C1186 C 0.09708 0.56796 0.55977 0.0
C1187 C 0.08107 0.5933 0.56495 0.0
C1188 C 0.08169 0.55608 0.54937 0.0
H1189 H 0.10488 0.50251 0.54498 0.0
N1190 N 0.06581 0.52606 0.53382 0.0
C1191 C 0.07756 0.49784 0.53435 0.0
C1192 C 0.08118 0.53705 0.54287 0.0
C1193 C 0.06345 0.50649 0.53071 0.0
C1194 C 0.09398 0.50922 0.54208 0.0
C1195 C 0.09583 0.52906 0.54689 0.0
O1196 O 0.02828 0.51955 0.53825 0.0
O1197 O 0.02591 0.54283 0.50399 0.0
O1198 O 0.0191 0.57217 0.50483 0.0
O1199 O 0.0321 0.56681 0.53293 0.0
O1200 O 0.02165 0.51784 0.51359 0.0
O1201 O 0.03449 0.54857 0.55389 0.0
O1202 O 0.04888 0.58257 0.47255 0.0
O1203 O 0.05235 0.55888 0.50697 0.0
O1204 O 0.05564 0.52576 0.5055 0.0
O1205 O 0.04455 0.53369 0.4777 0.0
O1206 O 0.05464 0.58468 0.49886 0.0
O1207 O 0.04659 0.5529 0.45944 0.0
C1208 C 0.0159 0.52666 0.50138 0.0
C1209 C 0.0286 0.52318 0.57107 0.0
C1210 C 0.01703 0.51991 0.6011 0.0
C1211 C 0.01875 0.52914 0.5856 0.0
C1212 C 0.02594 0.50498 0.60224 0.0
C1213 C 0.03758 0.50838 0.57241 0.0
C1214 C 0.03632 0.49943 0.58803 0.0
C1215 C 0.02221 0.57537 0.52321 0.0
C1216 C 0.02687 0.53077 0.55378 0.0
C1217 C 0.11153 0.54099 0.55628 0.0
C1218 C 0.11217 0.56046 0.56267 0.0
C1219 C 0.06152 0.57556 0.51001 0.0
C1220 C 0.04969 0.57562 0.43987 0.0
C1221 C 0.06189 0.57156 0.42731 0.0
C1222 C 0.06061 0.57593 0.40945 0.0
C1223 C 0.04682 0.58428 0.40385 0.0
C1224 C 0.03582 0.58405 0.43454 0.0
C1225 C 0.03444 0.58838 0.41648 0.0
C1226 C 0.05276 0.5233 0.4871 0.0
C1227 C 0.05229 0.57083 0.4583 0.0
H1228 H 0.01199 0.54069 0.5845 0.0
H1229 H 0.02462 0.49734 0.61387 0.0
H1230 H 0.04506 0.50332 0.56122 0.0
H1231 H 0.04302 0.48782 0.5889 0.0
H1232 H 0.07255 0.56497 0.43148 0.0
H1233 H 0.0458 0.58777 0.38995 0.0
H1234 H 0.0262 0.58729 0.4442 0.0
H1235 H 0.02383 0.59496 0.41233 0.0
Tb1236 Tb 0.78245 0.79282 0.27386 0.0
C1237 C 0.841 0.76132 0.30833 0.0
C1238 C 0.85323 0.78635 0.33482 0.0
C1239 C 0.85403 0.75335 0.3364 0.0
C1240 C 0.8444 0.78029 0.31662 0.0
C1241 C 0.84637 0.74767 0.3178 0.0
C1242 C 0.85743 0.7727 0.34493 0.0
C1243 C 0.83868 0.72462 0.28895 0.0
N1244 N 0.83399 0.75658 0.29024 0.0
C1245 C 0.83364 0.73873 0.28016 0.0
C1246 C 0.84474 0.729 0.30797 0.0
Tb1247 Tb 0.82534 0.78033 0.27702 0.0
N1248 N 0.84058 0.79298 0.30612 0.0
C1249 C 0.84694 0.81221 0.31249 0.0
C1250 C 0.85843 0.80598 0.34189 0.0
C1251 C 0.85565 0.81895 0.33048 0.0
H1252 H 0.82888 0.7352 0.26547 0.0
H1253 H 0.8601 0.8342 0.33556 0.0
H1254 H 0.864 0.77705 0.35901 0.0
H1255 H 0.83787 0.71038 0.28105 0.0
H1256 H 0.84489 0.82268 0.30421 0.0
H1257 H 0.74991 0.73799 0.21499 0.0
H1258 H 0.86523 0.81124 0.35579 0.0
H1259 H 0.77871 0.83792 0.28486 0.0
H1260 H 0.76481 0.74996 0.24636 0.0
H1261 H 0.76922 0.86226 0.26888 0.0
H1262 H 0.85804 0.74305 0.34403 0.0
H1263 H 0.74377 0.76057 0.19477 0.0
H1264 H 0.74374 0.79448 0.19153 0.0
H1265 H 0.84876 0.7181 0.31471 0.0
H1266 H 0.74885 0.82848 0.2063 0.0
N1267 N 0.76782 0.77962 0.24462 0.0
C1268 C 0.76225 0.7603 0.23815 0.0
C1269 C 0.7504 0.76605 0.20873 0.0
C1270 C 0.7549 0.78571 0.21583 0.0
C1271 C 0.75375 0.75328 0.22012 0.0
C1272 C 0.76355 0.79208 0.23409 0.0
H1273 H 0.75795 0.85382 0.23532 0.0
N1274 N 0.77354 0.81619 0.26037 0.0
C1275 C 0.7685 0.84795 0.26119 0.0
C1276 C 0.76646 0.81109 0.24231 0.0
C1277 C 0.77387 0.83416 0.27018 0.0
C1278 C 0.76221 0.84316 0.24223 0.0
C1279 C 0.76077 0.82442 0.23264 0.0
O1280 O 0.76925 0.80178 0.29758 0.0
O1281 O 0.80418 0.78921 0.29201 0.0
O1282 O 0.80658 0.75583 0.2855 0.0
O1283 O 0.77924 0.7618 0.2759 0.0
O1284 O 0.79447 0.81367 0.29856 0.0
O1285 O 0.75607 0.77834 0.27691 0.0
O1286 O 0.83908 0.76966 0.25456 0.0
O1287 O 0.80374 0.78391 0.25841 0.0
O1288 O 0.80141 0.81809 0.26661 0.0
O1289 O 0.82891 0.81167 0.27512 0.0
O1290 O 0.81346 0.75947 0.25231 0.0
O1291 O 0.85078 0.79585 0.27294 0.0
C1292 C 0.80563 0.80432 0.30412 0.0
C1293 C 0.73764 0.79539 0.29608 0.0
C1294 C 0.70945 0.79494 0.31147 0.0
C1295 C 0.72514 0.78764 0.30828 0.0
C1296 C 0.70717 0.81045 0.30297 0.0
C1297 C 0.73414 0.81032 0.28751 0.0
C1298 C 0.71928 0.81795 0.29115 0.0
C1299 C 0.78897 0.75022 0.28166 0.0
C1300 C 0.75471 0.78888 0.29289 0.0
C1301 C 0.75313 0.81842 0.21405 0.0
C1302 C 0.75023 0.79907 0.20564 0.0
C1303 C 0.80257 0.76877 0.24621 0.0
C1304 C 0.87047 0.77804 0.25778 0.0
C1305 C 0.88146 0.78208 0.24324 0.0
C1306 C 0.89759 0.77566 0.2419 0.0
C1307 C 0.90248 0.76536 0.25537 0.0
C1308 C 0.87601 0.76806 0.27114 0.0
C1309 C 0.89185 0.76173 0.26988 0.0
C1310 C 0.81912 0.8236 0.27008 0.0
C1311 C 0.85298 0.78355 0.25851 0.0
H1312 H 0.72747 0.77594 0.3149 0.0
H1313 H 0.69574 0.81678 0.30533 0.0
H1314 H 0.74298 0.81625 0.27799 0.0
H1315 H 0.71704 0.82974 0.28463 0.0
H1316 H 0.87734 0.78984 0.23286 0.0
H1317 H 0.91478 0.76036 0.25486 0.0
H1318 H 0.86806 0.76507 0.28253 0.0
H1319 H 0.89593 0.75394 0.28023 0.0
Tb1320 Tb 0.80236 0.29044 0.76528 0.0
C1321 C 0.77786 0.3505 0.81635 0.0
C1322 C 0.8037 0.37068 0.83522 0.0
C1323 C 0.77902 0.38452 0.82698 0.0
C1324 C 0.79463 0.35251 0.82515 0.0
C1325 C 0.7696 0.36638 0.81794 0.0
C1326 C 0.79606 0.38668 0.83556 0.0
C1327 C 0.74212 0.34483 0.80515 0.0
N1328 N 0.76891 0.33271 0.80799 0.0
C1329 C 0.75076 0.32962 0.80423 0.0
C1330 C 0.75171 0.3634 0.81156 0.0
Tb1331 Tb 0.78402 0.30812 0.80805 0.0
N1332 N 0.80163 0.33664 0.82479 0.0
C1333 C 0.81723 0.33825 0.83566 0.0
C1334 C 0.82 0.37226 0.8452 0.0
C1335 C 0.82667 0.35594 0.84557 0.0
H1336 H 0.74273 0.3153 0.80016 0.0
H1337 H 0.83907 0.35691 0.85372 0.0
H1338 H 0.80297 0.40068 0.84304 0.0
H1339 H 0.72798 0.34213 0.80133 0.0
H1340 H 0.82295 0.32632 0.83739 0.0
H1341 H 0.74032 0.24624 0.72727 0.0
H1342 H 0.82733 0.38591 0.85304 0.0
H1343 H 0.84165 0.27867 0.7708 0.0
H1344 H 0.75807 0.27435 0.74623 0.0
H1345 H 0.85427 0.25033 0.76667 0.0
H1346 H 0.77294 0.39684 0.82812 0.0
H1347 H 0.75203 0.21705 0.71942 0.0
H1348 H 0.77689 0.20057 0.72189 0.0
H1349 H 0.74492 0.37517 0.81265 0.0
H1350 H 0.80701 0.20092 0.73453 0.0
N1351 N 0.7816 0.26322 0.74986 0.0
C1352 C 0.76445 0.26269 0.74318 0.0
C1353 C 0.76035 0.22978 0.72795 0.0
C1354 C 0.77752 0.22988 0.73487 0.0
C1355 C 0.75376 0.24621 0.73229 0.0
C1356 C 0.78787 0.24684 0.74608 0.0
H1357 H 0.83559 0.21904 0.75188 0.0
N1358 N 0.81478 0.26369 0.76305 0.0
C1359 C 0.84019 0.24895 0.76334 0.0
C1360 C 0.80482 0.24701 0.75318 0.0
C1361 C 0.8327 0.26503 0.76648 0.0
C1362 C 0.82966 0.23141 0.75488 0.0
C1363 C 0.81197 0.23041 0.74896 0.0
O1364 O 0.82798 0.3018 0.75862 0.0
O1365 O 0.80344 0.31366 0.78862 0.0
O1366 O 0.76676 0.30872 0.78225 0.0
O1367 O 0.78007 0.30128 0.75445 0.0
O1368 O 0.80443 0.32009 0.76187 0.0
O1369 O 0.80719 0.28677 0.73686 0.0
O1370 O 0.7588 0.29426 0.81445 0.0
O1371 O 0.78338 0.28464 0.78518 0.0
O1372 O 0.82082 0.29026 0.79023 0.0
O1373 O 0.80864 0.30018 0.81811 0.0
O1374 O 0.78385 0.27923 0.81242 0.0
O1375 O 0.77911 0.31116 0.83643 0.0
C1376 C 0.80452 0.32692 0.7794 0.0
C1377 C 0.83164 0.30822 0.72816 0.0
C1378 C 0.82967 0.32906 0.7057 0.0
C1379 C 0.82151 0.31784 0.71807 0.0
C1380 C 0.84779 0.33058 0.70336 0.0
C1381 C 0.84975 0.3098 0.7257 0.0
C1382 C 0.85778 0.32094 0.71332 0.0
C1383 C 0.76721 0.3072 0.76369 0.0
C1384 C 0.8238 0.29566 0.7407 0.0
C1385 C 0.80168 0.21367 0.73796 0.0
C1386 C 0.78459 0.21351 0.73071 0.0
C1387 C 0.78356 0.27197 0.79498 0.0
C1388 C 0.75208 0.29479 0.84665 0.0
C1389 C 0.75707 0.28185 0.85711 0.0
C1390 C 0.74671 0.27595 0.87132 0.0
C1391 C 0.73147 0.2833 0.87495 0.0
C1392 C 0.7368 0.30187 0.85034 0.0
C1393 C 0.72657 0.29617 0.86447 0.0
C1394 C 0.8215 0.29401 0.80896 0.0
C1395 C 0.76272 0.30171 0.83217 0.0
H1396 H 0.80747 0.31657 0.71973 0.0
H1397 H 0.85413 0.33908 0.69366 0.0
H1398 H 0.85766 0.30229 0.7333 0.0
H1399 H 0.87173 0.32208 0.71143 0.0
H1400 H 0.76882 0.27629 0.85404 0.0
H1401 H 0.72345 0.27926 0.88603 0.0
H1402 H 0.73289 0.31198 0.84238 0.0
H1403 H 0.71487 0.30182 0.86738 0.0
Tb1404 Tb 0.79553 0.78852 0.76649 0.0
C1405 C 0.72873 0.73339 0.73378 0.0
C1406 C 0.71325 0.72396 0.76003 0.0
C1407 C 0.69675 0.7204 0.72989 0.0
C1408 C 0.72915 0.73127 0.75237 0.0
C1409 C 0.71243 0.72786 0.72234 0.0
C1410 C 0.69721 0.71822 0.7486 0.0
C1411 C 0.72844 0.73404 0.69579 0.0
N1412 N 0.74431 0.73961 0.72658 0.0
C1413 C 0.74423 0.7386 0.70742 0.0
C1414 C 0.71242 0.72884 0.70331 0.0
Tb1415 Tb 0.76985 0.74211 0.74605 0.0
N1416 N 0.74506 0.73606 0.76287 0.0
C1417 C 0.74528 0.73559 0.78175 0.0
C1418 C 0.71388 0.72236 0.77891 0.0
C1419 C 0.72989 0.72866 0.7899 0.0
H1420 H 0.75637 0.74054 0.7006 0.0
H1421 H 0.73043 0.72829 0.80477 0.0
H1422 H 0.68512 0.71177 0.75401 0.0
H1423 H 0.72874 0.73374 0.68085 0.0
H1424 H 0.75686 0.74136 0.79127 0.0
H1425 H 0.83303 0.78952 0.70434 0.0
H1426 H 0.70205 0.71667 0.78525 0.0
H1427 H 0.81072 0.79601 0.81157 0.0
H1428 H 0.80776 0.77875 0.72103 0.0
H1429 H 0.83848 0.81042 0.8309 0.0
H1430 H 0.68426 0.71575 0.72121 0.0
H1431 H 0.86091 0.80894 0.72165 0.0
H1432 H 0.87836 0.82309 0.75252 0.0
H1433 H 0.70021 0.72466 0.69414 0.0
H1434 H 0.88019 0.82753 0.78694 0.0
N1435 N 0.8195 0.79366 0.74826 0.0
C1436 C 0.81899 0.78832 0.72912 0.0
C1437 C 0.84947 0.8047 0.72922 0.0
C1438 C 0.85056 0.8088 0.74876 0.0
C1439 C 0.83374 0.79391 0.71941 0.0
C1440 C 0.83531 0.80266 0.75796 0.0
H1441 H 0.86566 0.8222 0.81615 0.0
N1442 N 0.82195 0.797 0.78533 0.0
C1443 C 0.83828 0.80848 0.81577 0.0
C1444 C 0.83658 0.80433 0.77717 0.0
C1445 C 0.82256 0.79978 0.80456 0.0
C1446 C 0.85352 0.81524 0.80742 0.0
C1447 C 0.8528 0.81335 0.78792 0.0
O1448 O 0.78803 0.80279 0.79144 0.0
O1449 O 0.77051 0.76805 0.76482 0.0
O1450 O 0.77167 0.76281 0.7259 0.0
O1451 O 0.78654 0.794 0.73959 0.0
O1452 O 0.76956 0.79516 0.76114 0.0
O1453 O 0.80237 0.81854 0.77187 0.0
O1454 O 0.77502 0.72611 0.72082 0.0
O1455 O 0.79514 0.76176 0.74847 0.0
O1456 O 0.79725 0.76868 0.78659 0.0
O1457 O 0.77984 0.73806 0.77393 0.0
O1458 O 0.79506 0.73374 0.75013 0.0
O1459 O 0.76052 0.71231 0.74148 0.0
C1460 C 0.76006 0.7786 0.76188 0.0
C1461 C 0.7865 0.83533 0.79371 0.0
C1462 C 0.77164 0.86005 0.78686 0.0
C1463 C 0.77846 0.84388 0.78062 0.0
C1464 C 0.77266 0.86758 0.80609 0.0
C1465 C 0.78743 0.84289 0.81294 0.0
C1466 C 0.7805 0.85894 0.81909 0.0
C1467 C 0.77722 0.78141 0.72542 0.0
C1468 C 0.79535 0.81957 0.78793 0.0
C1469 C 0.8677 0.82044 0.77892 0.0
C1470 C 0.86662 0.81806 0.75935 0.0
C1471 C 0.80507 0.75037 0.75081 0.0
C1472 C 0.77241 0.69268 0.71812 0.0
C1473 C 0.78394 0.68578 0.72939 0.0
C1474 C 0.78825 0.66809 0.72298 0.0
C1475 C 0.78123 0.65751 0.70523 0.0
C1476 C 0.76562 0.68215 0.70029 0.0
C1477 C 0.77005 0.66463 0.69386 0.0
C1478 C 0.79031 0.75051 0.78776 0.0
C1479 C 0.76622 0.71012 0.72477 0.0
H1480 H 0.7778 0.83825 0.76573 0.0
H1481 H 0.76748 0.88017 0.81097 0.0
H1482 H 0.79382 0.83656 0.82318 0.0
H1483 H 0.7814 0.86482 0.83392 0.0
H1484 H 0.78913 0.69382 0.74323 0.0
H1485 H 0.7845 0.64381 0.70016 0.0
H1486 H 0.75664 0.68736 0.69146 0.0
H1487 H 0.76469 0.65649 0.68015 0.0
Tb1488 Tb 0.5378 0.53694 0.51802 0.0
C1489 C 0.59366 0.59891 0.56521 0.0
C1490 C 0.60385 0.61999 0.54365 0.0
C1491 C 0.60553 0.63289 0.5769 0.0
C1492 C 0.59603 0.60163 0.54712 0.0
C1493 C 0.59901 0.61438 0.5804 0.0
C1494 C 0.60793 0.63569 0.55852 0.0
C1495 C 0.59401 0.59176 0.60146 0.0
N1496 N 0.58797 0.58074 0.56808 0.0
C1497 C 0.58913 0.57688 0.58597 0.0
C1498 C 0.59867 0.61064 0.59867 0.0
Tb1499 Tb 0.57987 0.55704 0.54177 0.0
N1500 N 0.59249 0.58598 0.53324 0.0
C1501 C 0.59813 0.58776 0.51583 0.0
C1502 C 0.6084 0.62188 0.5256 0.0
C1503 C 0.60597 0.6056 0.51178 0.0
H1504 H 0.58552 0.56229 0.58827 0.0
H1505 H 0.61002 0.60674 0.49788 0.0
H1506 H 0.61376 0.64989 0.55607 0.0
H1507 H 0.5943 0.58863 0.61552 0.0
H1508 H 0.59663 0.57579 0.50455 0.0
H1509 H 0.50233 0.4926 0.56418 0.0
H1510 H 0.61453 0.63567 0.52241 0.0
H1511 H 0.53475 0.52995 0.47162 0.0
H1512 H 0.5215 0.52016 0.55729 0.0
H1513 H 0.52204 0.50421 0.4449 0.0
H1514 H 0.60952 0.64497 0.58836 0.0
H1515 H 0.49055 0.46453 0.53937 0.0
H1516 H 0.48787 0.44949 0.50567 0.0
H1517 H 0.60271 0.62213 0.61068 0.0
H1518 H 0.49352 0.4524 0.4732 0.0
N1519 N 0.52164 0.50975 0.52762 0.0
C1520 C 0.51675 0.50903 0.54556 0.0
C1521 C 0.49914 0.47705 0.53593 0.0
C1522 C 0.50349 0.47773 0.51762 0.0
C1523 C 0.50564 0.49287 0.5499 0.0
C1524 C 0.51473 0.49447 0.51382 0.0
H1525 H 0.50603 0.47276 0.45045 0.0
N1526 N 0.52735 0.5129 0.49243 0.0
C1527 C 0.52093 0.50161 0.45909 0.0
C1528 C 0.51789 0.49603 0.49564 0.0
C1529 C 0.5282 0.51612 0.47432 0.0
C1530 C 0.51195 0.48389 0.46227 0.0
C1531 C 0.50998 0.48104 0.48068 0.0
O1532 O 0.5213 0.54749 0.50034 0.0
O1533 O 0.55694 0.56359 0.52837 0.0
O1534 O 0.56133 0.56651 0.56232 0.0
O1535 O 0.53506 0.54638 0.5488 0.0
O1536 O 0.547 0.55864 0.50107 0.0
O1537 O 0.51569 0.54613 0.52889 0.0
O1538 O 0.59715 0.54608 0.5581 0.0
O1539 O 0.56116 0.52996 0.53061 0.0
O1540 O 0.5566 0.52707 0.4979 0.0
O1541 O 0.58308 0.54744 0.51092 0.0
O1542 O 0.57147 0.53375 0.55731 0.0
O1543 O 0.60481 0.55493 0.5323 0.0
C1544 C 0.55683 0.57132 0.51389 0.0
C1545 C 0.49148 0.54318 0.50697 0.0
C1546 C 0.4617 0.54843 0.5094 0.0
C1547 C 0.4799 0.55419 0.51462 0.0
C1548 C 0.45504 0.53144 0.49642 0.0
C1549 C 0.48485 0.52632 0.49383 0.0
C1550 C 0.46664 0.52047 0.48862 0.0
C1551 C 0.54453 0.55824 0.56359 0.0
C1552 C 0.51034 0.54999 0.51297 0.0
C1553 C 0.49961 0.46407 0.48448 0.0
C1554 C 0.49636 0.46242 0.50294 0.0
C1555 C 0.56177 0.52105 0.54431 0.0
C1556 C 0.62766 0.55621 0.55563 0.0
C1557 C 0.64036 0.54546 0.5511 0.0
C1558 C 0.65768 0.5515 0.55967 0.0
C1559 C 0.66227 0.56843 0.57309 0.0
C1560 C 0.63233 0.57337 0.56873 0.0
C1561 C 0.6496 0.5794 0.57749 0.0
C1562 C 0.5734 0.53532 0.49633 0.0
C1563 C 0.60962 0.54837 0.54689 0.0
H1564 H 0.48508 0.56727 0.52471 0.0
H1565 H 0.44097 0.52691 0.49207 0.0
H1566 H 0.49362 0.51777 0.48751 0.0
H1567 H 0.46153 0.50751 0.47845 0.0
H1568 H 0.63666 0.53213 0.54105 0.0
H1569 H 0.67563 0.57328 0.57988 0.0
H1570 H 0.62276 0.582 0.57231 0.0
H1571 H 0.65317 0.59257 0.58769 0.0
Tb1572 Tb 0.06389 0.53258 0.02694 0.0
C1573 C 0.99835 0.50108 0.0575 0.0
C1574 C 0.9859 0.47528 0.03158 0.0
C1575 C 0.98053 0.47134 0.06354 0.0
C1576 C 0.99618 0.49383 0.03848 0.0
C1577 C 0.99004 0.49019 0.0702 0.0
C1578 C 0.9785 0.46388 0.04426 0.0
C1579 C 0.9992 0.51814 0.09467 0.0
N1580 N 0.00755 0.51938 0.06338 0.0
C1581 C 0.00708 0.52843 0.08149 0.0
C1582 C 0.99093 0.49883 0.08908 0.0
Tb1583 Tb 0.02049 0.53446 0.04054 0.0
N1584 N 1.00341 0.50532 0.02667 0.0
C1585 C 0.9999 0.49956 0.00769 0.0
C1586 C 0.98304 0.46894 0.01215 0.0
C1587 C 0.98982 0.48127 1.00016 0.0
H1588 H 0.01349 0.54337 0.08582 0.0
H1589 H 0.98735 0.47669 0.98511 0.0
H1590 H 0.97075 0.4495 0.03925 0.0
H1591 H 0.99945 0.52512 0.10911 0.0
H1592 H 0.00487 0.50895 0.99829 0.0
H1593 H 0.11023 0.58482 0.07879 0.0
H1594 H 0.97527 0.45477 0.00629 0.0
H1595 H 0.06608 0.52813 0.97975 0.0
H1596 H 0.09187 0.55326 0.0659 0.0
H1597 H 0.0728 0.54969 0.95722 0.0
H1598 H 0.97425 0.46263 0.07311 0.0
H1599 H 0.11409 0.61049 0.05989 0.0
H1600 H 0.10897 0.62028 0.02886 0.0
H1601 H 0.98473 0.49093 0.09929 0.0
H1602 H 0.09842 0.61066 0.99538 0.0
N1603 N 0.08351 0.56091 0.04007 0.0
C1604 C 0.09257 0.5643 0.05751 0.0
C1605 C 0.1056 0.59665 0.05418 0.0
C1606 C 0.09764 0.59267 0.03582 0.0
C1607 C 0.10344 0.58221 0.06488 0.0
C1608 C 0.08682 0.57434 0.029 0.0
H1609 H 0.0852 0.58421 0.9684 0.0
N1610 N 0.07271 0.55042 0.00402 0.0
C1611 C 0.07495 0.5554 0.97212 0.0
C1612 C 0.081 0.56893 0.01027 0.0
C1613 C 0.07099 0.54324 0.98509 0.0
C1614 C 0.08188 0.57486 0.97848 0.0
C1615 C 0.08567 0.58172 0.99774 0.0
O1616 O 0.07405 0.51325 0.00771 0.0
O1617 O 0.03666 0.51612 0.0261 0.0
O1618 O 0.03402 0.52488 0.06277 0.0
O1619 O 0.06355 0.53536 0.05727 0.0
O1620 O 0.0568 0.50496 0.03581 0.0
O1621 O 0.08736 0.52426 0.03531 0.0
O1622 O 0.00772 0.55606 0.05229 0.0
O1623 O 0.04598 0.55161 0.03587 0.0
O1624 O 0.04468 0.52668 0.00228 0.0
O1625 O 0.02489 0.54426 0.01424 0.0
O1626 O 0.03498 0.5598 0.06014 0.0
O1627 O 0.99691 0.53746 0.02635 0.0
C1628 C 0.04002 0.50127 0.03146 0.0
C1629 C 0.10447 0.51111 0.01209 0.0
C1630 C 0.13082 0.49708 0.0124 0.0
C1631 C 0.11512 0.5003 0.0202 0.0
C1632 C 0.13579 0.50485 0.99652 0.0
C1633 C 0.10981 0.5188 0.99627 0.0
C1634 C 0.12539 0.51566 0.98857 0.0
C1635 C 0.05106 0.52932 0.06791 0.0
C1636 C 0.08724 0.51281 0.01945 0.0
C1637 C 0.09497 0.60055 0.00474 0.0
C1638 C 0.10099 0.60602 0.02378 0.0
C1639 C 0.048 0.56484 0.0503 0.0
C1640 C 0.97682 0.55098 0.04516 0.0
C1641 C 0.96705 0.56404 0.04004 0.0
C1642 C 0.95015 0.56438 0.04643 0.0
C1643 C 0.94348 0.55174 0.05842 0.0
C1644 C 0.96953 0.53811 0.05655 0.0
C1645 C 0.95306 0.53866 0.0633 0.0
C1646 C 0.03256 0.53672 1.00004 0.0
C1647 C 0.99479 0.55153 0.03907 0.0
H1648 H 0.11104 0.49413 0.03231 0.0
H1649 H 0.14775 0.50247 0.99022 0.0
H1650 H 0.10185 0.52701 0.98972 0.0
H1651 H 0.12934 0.52151 0.97628 0.0
H1652 H 0.97254 0.57372 0.03091 0.0
H1653 H 0.93083 0.55195 0.06412 0.0
H1654 H 0.97651 0.5277 0.06033 0.0
H1655 H 0.94769 0.52889 0.07238 0.0
H1656 H 0.0409 0.2388 0.97529 0.0
H1657 H 0.04783 0.21287 0.99015 0.0
H1658 H 0.0133 0.1713 0.94747 0.0
H1659 H 0.00659 0.19726 0.93225 0.0
H1660 H 0.00884 0.16426 0.98542 0.0
H1661 H 0.05712 0.17818 0.94565 0.0
H1662 H 0.0821 0.19975 0.9351 0.0
H1663 H 0.1085 0.21291 0.99075 0.0
H1664 H 0.08355 0.19162 1.00168 0.0
H1665 H 0.04736 0.07931 0.99099 0.0
H1666 H 0.04401 0.10783 0.97814 0.0
H1667 H 0.05074 0.14096 0.03408 0.0
H1668 H 0.05342 0.1122 0.04701 0.0
H1669 H 0.07003 0.15312 0.99087 0.0
H1670 H 0.02207 0.15158 0.03293 0.0
H1671 H 0.99713 0.13568 0.04853 0.0
H1672 H 0.97201 0.10422 0.99515 0.0
H1673 H 0.99687 0.12006 0.97923 0.0
C1674 C 0.0347 0.22415 0.96903 0.0
C1675 C 0.02312 0.22027 0.95248 0.0
C1676 C 0.03877 0.20925 0.97756 0.0
C1677 C 0.03124 0.18992 0.96998 0.0
C1678 C 0.01937 0.186 0.95368 0.0
C1679 C 0.01553 0.20091 0.94494 0.0
C1680 C 0.03572 0.17389 0.97903 0.0
C1681 C 0.02222 0.1618 0.98635 0.0
C1682 C 0.0533 0.17088 0.98119 0.0
C1683 C 0.0684 0.18341 0.97451 0.0
C1684 C 0.0682 0.18576 0.95566 0.0
C1685 C 0.08236 0.19793 0.94961 0.0
C1686 C 0.09687 0.20772 0.96226 0.0
C1687 C 0.09726 0.20532 0.98097 0.0
C1688 C 0.08312 0.19319 0.98709 0.0
C1689 C 0.04842 0.09274 1.00055 0.0
C1690 C 0.05087 0.09347 0.02005 0.0
C1691 C 0.04644 0.10908 0.99317 0.0
C1692 C 0.04691 0.12667 0.00506 0.0
C1693 C 0.05009 0.12761 0.02453 0.0
C1694 C 0.05177 0.11117 0.03193 0.0
C1695 C 0.04311 0.14354 0.99705 0.0
C1696 C 0.05668 0.15563 0.98983 0.0
C1697 C 0.0258 0.14717 0.99568 0.0
C1698 C 0.01138 0.13672 0.00498 0.0
C1699 C 0.01134 0.14105 0.02457 0.0
C1700 C 0.9972 0.13216 0.03345 0.0
C1701 C 0.98301 0.11899 0.02283 0.0
C1702 C 0.98304 0.11445 0.00333 0.0
C1703 C 0.99713 0.1234 0.99437 0.0
H1704 H 0.9719 0.11257 0.02975 0.0
H1705 H 0.10781 0.21714 0.95755 0.0
H1706 H 0.12495 0.84015 0.17217 0.0
H1707 H 0.15134 0.84056 0.19302 0.0
H1708 H 0.16176 0.79219 0.15557 0.0
H1709 H 0.13598 0.79231 0.13431 0.0
H1710 H 0.15926 0.79088 0.1987 0.0
H1711 H 0.18902 0.82395 0.15369 0.0
H1712 H 0.19613 0.84878 0.13422 0.0
H1713 H 0.20878 0.89227 0.18379 0.0
H1714 H 0.2014 0.86769 0.20358 0.0
H1715 H 0.24336 0.7793 0.23438 0.0
H1716 H 0.21876 0.78321 0.21396 0.0
H1717 H 0.22036 0.83877 0.24703 0.0
H1718 H 0.24511 0.83485 0.26778 0.0
H1719 H 0.21674 0.83797 0.20685 0.0
H1720 H 0.18763 0.8041 0.25178 0.0
H1721 H 0.18156 0.77862 0.27069 0.0
H1722 H 0.16847 0.73609 0.2204 0.0
H1723 H 0.1747 0.76132 0.20118 0.0
C1724 C 0.13298 0.82974 0.16827 0.0
C1725 C 0.12828 0.81623 0.15146 0.0
C1726 C 0.14813 0.83001 0.1802 0.0
C1727 C 0.15872 0.81644 0.17596 0.0
C1728 C 0.15398 0.80291 0.15922 0.0
C1729 C 0.1392 0.80302 0.14701 0.0
C1730 C 0.17402 0.81561 0.18943 0.0
C1731 C 0.17186 0.80111 0.20031 0.0
C1732 C 0.19049 0.82909 0.19195 0.0
C1733 C 0.19428 0.844 0.18012 0.0
C1734 C 0.19296 0.83883 0.16045 0.0
C1735 C 0.19714 0.85286 0.14935 0.0
C1736 C 0.20281 0.87211 0.15776 0.0
C1737 C 0.20431 0.87736 0.17729 0.0
C1738 C 0.20011 0.86339 0.18846 0.0
C1739 C 0.23847 0.79233 0.23756 0.0
C1740 C 0.24615 0.80653 0.25321 0.0
C1741 C 0.2243 0.79456 0.22573 0.0
C1742 C 0.21741 0.81123 0.22885 0.0
C1743 C 0.22525 0.82569 0.24423 0.0
C1744 C 0.23931 0.82331 0.25631 0.0
C1745 C 0.20196 0.81321 0.21613 0.0
C1746 C 0.20409 0.82786 0.20536 0.0
C1747 C 0.18545 0.7998 0.21358 0.0
C1748 C 0.1818 0.78458 0.22506 0.0
C1749 C 0.18362 0.7893 0.24476 0.0
C1750 C 0.18011 0.77491 0.25553 0.0
C1751 C 0.17468 0.75574 0.24676 0.0
C1752 C 0.17271 0.75094 0.22718 0.0
C1753 C 0.17621 0.76528 0.21634 0.0
H1754 H 0.17195 0.74462 0.25512 0.0
H1755 H 0.20611 0.88294 0.14915 0.0
H1756 H 0.49581 0.81887 0.46275 0.0
H1757 H 0.49785 0.85236 0.47769 0.0
H1758 H 0.55438 0.86425 0.47399 0.0
H1759 H 0.55226 0.83098 0.45815 0.0
H1760 H 0.53665 0.88051 0.51214 0.0
H1761 H 0.5395 0.87747 0.44411 0.0
H1762 H 0.52783 0.86437 0.41123 0.0
H1763 H 0.47811 0.87977 0.42246 0.0
H1764 H 0.48936 0.89254 0.45555 0.0
H1765 H 0.55376 0.98331 0.5312 0.0
H1766 H 0.55242 0.94914 0.5237 0.0
H1767 H 0.50573 0.94256 0.48553 0.0
H1768 H 0.51068 0.97709 0.48925 0.0
H1769 H 0.51939 0.92154 0.46943 0.0
H1770 H 0.51397 0.9251 0.53684 0.0
H1771 H 0.52328 0.93664 0.57058 0.0
H1772 H 0.57285 0.91944 0.56329 0.0
H1773 H 0.56393 0.90799 0.52953 0.0
C1774 C 0.5087 0.82856 0.46537 0.0
C1775 C 0.52388 0.82233 0.45927 0.0
C1776 C 0.50985 0.84768 0.47393 0.0
C1777 C 0.52628 0.86082 0.47707 0.0
C1778 C 0.54159 0.85437 0.47181 0.0
C1779 C 0.54036 0.8354 0.46268 0.0
C1780 C 0.52717 0.88159 0.4841 0.0
C1781 C 0.53285 0.88964 0.50294 0.0
C1782 C 0.52187 0.89335 0.47223 0.0
C1783 C 0.51517 0.88566 0.45235 0.0
C1784 C 0.52599 0.8778 0.43963 0.0
C1785 C 0.51947 0.87048 0.42095 0.0
C1786 C 0.50221 0.87116 0.41477 0.0
C1787 C 0.49145 0.87919 0.42727 0.0
C1788 C 0.49789 0.88644 0.44599 0.0
C1789 C 0.54299 0.97442 0.52151 0.0
C1790 C 0.53147 0.98296 0.51179 0.0
C1791 C 0.54201 0.95457 0.51735 0.0
C1792 C 0.52856 0.94236 0.50435 0.0
C1793 C 0.51644 0.95107 0.49551 0.0
C1794 C 0.5186 0.97102 0.49832 0.0
C1795 C 0.52803 0.92114 0.49824 0.0
C1796 C 0.52268 0.91279 0.47925 0.0
C1797 C 0.53309 0.90906 0.51028 0.0
C1798 C 0.53832 0.91582 0.53063 0.0
C1799 C 0.52687 0.92383 0.54244 0.0
C1800 C 0.53209 0.93036 0.56156 0.0
C1801 C 0.54866 0.92881 0.56906 0.0
C1802 C 0.56003 0.92066 0.55747 0.0
C1803 C 0.5549 0.91413 0.53835 0.0
H1804 H 0.55268 0.93389 0.58386 0.0
H1805 H 0.4972 0.86554 0.40029 0.0
H1806 H 0.54639 0.30531 0.67127 0.0
H1807 H 0.51861 0.30053 0.68637 0.0
H1808 H 0.48941 0.30165 0.63445 0.0
H1809 H 0.51722 0.3063 0.6192 0.0
H1810 H 0.47722 0.32235 0.66495 0.0
H1811 H 0.48722 0.25994 0.64706 0.0
H1812 H 0.50398 0.23422 0.64358 0.0
H1813 H 0.51167 0.24024 0.70349 0.0
H1814 H 0.49517 0.2662 0.70734 0.0
H1815 H 0.39501 0.28299 0.70556 0.0
H1816 H 0.41855 0.28924 0.68427 0.0
H1817 H 0.45816 0.29207 0.72931 0.0
H1818 H 0.4351 0.28649 0.75052 0.0
H1819 H 0.46209 0.26697 0.69743 0.0
H1820 H 0.45288 0.3318 0.71395 0.0
H1821 H 0.43571 0.35713 0.71569 0.0
H1822 H 0.42497 0.34493 0.65574 0.0
H1823 H 0.44189 0.31934 0.65367 0.0
C1824 C 0.53408 0.30464 0.66307 0.0
C1825 C 0.53408 0.30617 0.64401 0.0
C1826 C 0.51816 0.30182 0.67171 0.0
C1827 C 0.5018 0.30056 0.66156 0.0
C1828 C 0.50179 0.30256 0.64262 0.0
C1829 C 0.51773 0.30518 0.63391 0.0
C1830 C 0.48482 0.2968 0.67078 0.0
C1831 C 0.47375 0.31007 0.67179 0.0
C1832 C 0.48013 0.28075 0.67968 0.0
C1833 C 0.49009 0.26515 0.67749 0.0
C1834 C 0.49262 0.2559 0.6595 0.0
C1835 C 0.50204 0.24125 0.65746 0.0
C1836 C 0.50892 0.23563 0.6733 0.0
C1837 C 0.50635 0.24462 0.69123 0.0
C1838 C 0.49694 0.25929 0.69335 0.0
C1839 C 0.40875 0.28531 0.71099 0.0
C1840 C 0.41304 0.28384 0.72974 0.0
C1841 C 0.42222 0.2888 0.69877 0.0
C1842 C 0.44021 0.29089 0.70508 0.0
C1843 C 0.44445 0.29024 0.72395 0.0
C1844 C 0.43114 0.28696 0.73609 0.0
C1845 C 0.45481 0.29289 0.69223 0.0
C1846 C 0.46543 0.27917 0.69045 0.0
C1847 C 0.45887 0.30835 0.6824 0.0
C1848 C 0.44843 0.32347 0.68369 0.0
C1849 C 0.44667 0.33435 0.70116 0.0
C1850 C 0.43703 0.3488 0.7022 0.0
C1851 C 0.42919 0.35258 0.68584 0.0
C1852 C 0.431 0.34194 0.6684 0.0
C1853 C 0.44062 0.32747 0.66729 0.0
H1854 H 0.42177 0.3638 0.68667 0.0
H1855 H 0.51622 0.22428 0.67169 0.0
H1856 H 0.0035 0.83169 0.65164 0.0
H1857 H 0.01127 0.85598 0.63167 0.0
H1858 H 0.03143 0.81551 0.59263 0.0
H1859 H 0.02327 0.79122 0.612 0.0
H1860 H 0.05478 0.85422 0.6061 0.0
H1861 H 0.99695 0.82022 0.57696 0.0
H1862 H 0.96515 0.80634 0.57775 0.0
H1863 H 0.95607 0.8621 0.59925 0.0
H1864 H 0.98792 0.87628 0.5988 0.0
H1865 H 0.05491 0.88871 0.51739 0.0
H1866 H 0.04563 0.86771 0.53978 0.0
H1867 H 0.04185 0.91649 0.58107 0.0
H1868 H 0.05261 0.93781 0.55967 0.0
H1869 H 0.00978 0.87538 0.56802 0.0
H1870 H 0.06955 0.9088 0.59703 0.0
H1871 H 0.10168 0.92055 0.59586 0.0
H1872 H 0.10712 0.86344 0.5739 0.0
H1873 H 0.07491 0.85145 0.57458 0.0
C1874 C 0.00952 0.82807 0.63876 0.0
C1875 C 0.01273 0.80969 0.63323 0.0
C1876 C 0.01392 0.84184 0.62743 0.0
C1877 C 0.0219 0.83737 0.61082 0.0
C1878 C 0.02527 0.8191 0.60545 0.0
C1879 C 0.02052 0.80528 0.61646 0.0
C1880 C 0.0269 0.85168 0.59887 0.0
C1881 C 0.04497 0.8589 0.5978 0.0
C1882 C 0.01401 0.85761 0.58812 0.0
C1883 C 0.99482 0.84927 0.58803 0.0
C1884 C 0.98819 0.8295 0.58198 0.0
C1885 C 0.97016 0.82158 0.58234 0.0
C1886 C 0.9586 0.83332 0.5886 0.0
C1887 C 0.96505 0.85302 0.59443 0.0
C1888 C 0.98308 0.86101 0.5941 0.0
C1889 C 0.05244 0.89508 0.53131 0.0
C1890 C 0.05445 0.91505 0.53655 0.0
C1891 C 0.04691 0.88302 0.54397 0.0
C1892 C 0.043 0.89067 0.5619 0.0
C1893 C 0.04472 0.91042 0.56717 0.0
C1894 C 0.05072 0.92254 0.55477 0.0
C1895 C 0.0377 0.87804 0.57538 0.0
C1896 C 0.01957 0.87097 0.57659 0.0
C1897 C 0.05054 0.87211 0.5862 0.0
C1898 C 0.06981 0.87932 0.5855 0.0
C1899 C 0.07755 0.89882 0.59164 0.0
C1900 C 0.09579 0.90551 0.59115 0.0
C1901 C 0.10643 0.89277 0.58471 0.0
C1902 C 0.09885 0.87331 0.5788 0.0
C1903 C 0.08061 0.86656 0.57921 0.0
H1904 H 0.12055 0.89796 0.58439 0.0
H1905 H 0.94465 0.82716 0.58889 0.0
H1906 H 0.55829 0.82036 0.8425 0.0
H1907 H 0.5312 0.82853 0.8305 0.0
H1908 H 0.51014 0.82692 0.88422 0.0
H1909 H 0.53742 0.8191 0.89652 0.0
H1910 H 0.48895 0.80319 0.85012 0.0
H1911 H 0.52141 0.86793 0.87449 0.0
H1912 H 0.54721 0.895 0.87766 0.0
H1913 H 0.54109 0.89446 0.81842 0.0
H1914 H 0.51551 0.86719 0.81481 0.0
H1915 H 0.41132 0.81918 0.80765 0.0
H1916 H 0.43557 0.82009 0.82999 0.0
H1917 H 0.47191 0.85082 0.7967 0.0
H1918 H 0.4474 0.85366 0.77644 0.0
H1919 H 0.48445 0.86298 0.82748 0.0
H1920 H 0.46196 0.79673 0.79876 0.0
H1921 H 0.44194 0.76488 0.78966 0.0
H1922 H 0.43455 0.76283 0.84757 0.0
H1923 H 0.45438 0.79475 0.85699 0.0
C1924 C 0.54784 0.82161 0.85172 0.0
C1925 C 0.54977 0.81886 0.87035 0.0
C1926 C 0.53255 0.82656 0.84494 0.0
C1927 C 0.51896 0.82863 0.85664 0.0
C1928 C 0.52069 0.82562 0.87515 0.0
C1929 C 0.53613 0.82096 0.88205 0.0
C1930 C 0.5022 0.8319 0.84877 0.0
C1931 C 0.48771 0.81635 0.84541 0.0
C1932 C 0.50116 0.84885 0.84208 0.0
C1933 C 0.51655 0.86539 0.84437 0.0
C1934 C 0.52565 0.87346 0.86211 0.0
C1935 C 0.54023 0.88888 0.86399 0.0
C1936 C 0.54579 0.89643 0.84825 0.0
C1937 C 0.53678 0.88861 0.8306 0.0
C1938 C 0.52222 0.87318 0.82864 0.0
C1939 C 0.42422 0.82692 0.80521 0.0
C1940 C 0.42692 0.8364 0.78975 0.0
C1941 C 0.43836 0.82683 0.81793 0.0
C1942 C 0.45582 0.83494 0.81489 0.0
C1943 C 0.45863 0.84438 0.79955 0.0
C1944 C 0.44441 0.84555 0.7875 0.0
C1945 C 0.47121 0.83366 0.82747 0.0
C1946 C 0.48541 0.84973 0.83211 0.0
C1947 C 0.47248 0.81667 0.83427 0.0
C1948 C 0.4594 0.79825 0.82854 0.0
C1949 C 0.45582 0.78962 0.80952 0.0
C1950 C 0.44459 0.77152 0.80432 0.0
C1951 C 0.43697 0.76185 0.81802 0.0
C1952 C 0.44043 0.77034 0.83696 0.0
C1953 C 0.45164 0.78845 0.84224 0.0
H1954 H 0.42843 0.74776 0.81397 0.0
H1955 H 0.55707 0.90836 0.84974 0.0
H1956 H 0.46743 0.20505 0.13179 0.0
H1957 H 0.468 0.17488 0.11074 0.0
H1958 H 0.52306 0.18091 0.12975 0.0
H1959 H 0.52219 0.21025 0.1515 0.0
H1960 H 0.50397 0.18256 0.08587 0.0
H1961 H 0.51291 0.15036 0.13972 0.0
H1962 H 0.50223 0.13992 0.16847 0.0
H1963 H 0.45481 0.10529 0.13691 0.0
H1964 H 0.46485 0.11636 0.10808 0.0
H1965 H 0.55086 0.11476 0.04498 0.0
H1966 H 0.53888 0.13666 0.0679 0.0
H1967 H 0.48557 0.106 0.04753 0.0
H1968 H 0.49747 0.08444 0.02429 0.0
H1969 H 0.49757 0.11397 0.09048 0.0
H1970 H 0.491 0.14186 0.0356 0.0
H1971 H 0.50178 0.15241 0.00689 0.0
H1972 H 0.54438 0.19421 0.03986 0.0
H1973 H 0.53408 0.18359 0.06877 0.0
C1974 C 0.47929 0.19925 0.13208 0.0
C1975 C 0.49468 0.20945 0.14325 0.0
C1976 C 0.47963 0.1822 0.12013 0.0
C1977 C 0.49548 0.17573 0.1191 0.0
C1978 C 0.5106 0.1855 0.13094 0.0
C1979 C 0.51009 0.20214 0.14329 0.0
C1980 C 0.49742 0.16122 0.10332 0.0
C1981 C 0.50248 0.16753 0.08677 0.0
C1982 C 0.49514 0.14174 0.10468 0.0
C1983 C 0.4894 0.13463 0.12185 0.0
C1984 C 0.50001 0.14092 0.13898 0.0
C1985 C 0.49407 0.1349 0.1553 0.0
C1986 C 0.47774 0.12213 0.15457 0.0
C1987 C 0.46737 0.11532 0.13749 0.0
C1988 C 0.47315 0.12155 0.12117 0.0
C1989 C 0.53661 0.11295 0.04531 0.0
C1990 C 0.52498 0.09813 0.03307 0.0
C1991 C 0.52983 0.12526 0.05836 0.0
C1992 C 0.51144 0.12258 0.05934 0.0
C1993 C 0.4998 0.108 0.04691 0.0
C1994 C 0.50657 0.09595 0.03359 0.0
C1995 C 0.50455 0.13545 0.07326 0.0
C1996 C 0.4986 0.1289 0.08942 0.0
C1997 C 0.50603 0.15477 0.07159 0.0
C1998 C 0.51183 0.16184 0.05435 0.0
C1999 C 0.50273 0.15323 0.03673 0.0
C2000 C 0.50875 0.15922 0.02042 0.0
C2001 C 0.52377 0.17396 0.02155 0.0
C2002 C 0.53275 0.18279 0.03901 0.0
C2003 C 0.52681 0.1768 0.05537 0.0
H2004 H 0.52844 0.17855 0.0089 0.0
H2005 H 0.47324 0.11733 0.16718 0.0
H2006 H 0.12273 0.3193 0.3343 0.0
H2007 H 0.14526 0.31182 0.31353 0.0
H2008 H 0.17951 0.30886 0.36141 0.0
H2009 H 0.1573 0.31671 0.38225 0.0
H2010 H 0.19746 0.32591 0.33599 0.0
H2011 H 0.15318 0.26886 0.33693 0.0
H2012 H 0.12236 0.25021 0.33361 0.0
H2013 H 0.11723 0.25549 0.27562 0.0
H2014 H 0.14797 0.27447 0.27869 0.0
H2015 H 0.25644 0.27595 0.2984 0.0
H2016 H 0.23001 0.27863 0.31474 0.0
H2017 H 0.20279 0.28516 0.26353 0.0
H2018 H 0.22926 0.28177 0.24689 0.0
H2019 H 0.18003 0.26584 0.28865 0.0
H2020 H 0.22285 0.32436 0.28847 0.0
H2021 H 0.25269 0.34439 0.29178 0.0
H2022 H 0.26016 0.33668 0.34885 0.0
H2023 H 0.22997 0.31625 0.34574 0.0
C2024 C 0.1352 0.31734 0.34038 0.0
C2025 C 0.13824 0.31819 0.35976 0.0
C2026 C 0.14795 0.31302 0.32854 0.0
C2027 C 0.16371 0.30933 0.33602 0.0
C2028 C 0.16728 0.3115 0.35547 0.0
C2029 C 0.15461 0.31595 0.36731 0.0
C2030 C 0.17619 0.30224 0.32363 0.0
C2031 C 0.19367 0.31269 0.32579 0.0
C2032 C 0.17104 0.28517 0.31013 0.0
C2033 C 0.15281 0.2732 0.30807 0.0
C2034 C 0.14545 0.2661 0.32349 0.0
C2035 C 0.128 0.25549 0.32166 0.0
C2036 C 0.11783 0.2517 0.30442 0.0
C2037 C 0.12513 0.25845 0.28896 0.0
C2038 C 0.14257 0.26913 0.29073 0.0
C2039 C 0.24455 0.27719 0.29052 0.0
C2040 C 0.24453 0.27837 0.27147 0.0
C2041 C 0.22953 0.2787 0.2998 0.0
C2042 C 0.21464 0.28222 0.29029 0.0
C2043 C 0.2142 0.2823 0.27096 0.0
C2044 C 0.22925 0.28056 0.26157 0.0
C2045 C 0.20127 0.28945 0.30128 0.0
C2046 C 0.18369 0.27905 0.29886 0.0
C2047 C 0.20624 0.30654 0.3147 0.0
C2048 C 0.2243 0.31872 0.31681 0.0
C2049 C 0.2309 0.32684 0.30169 0.0
C2050 C 0.24791 0.33831 0.30356 0.0
C2051 C 0.2585 0.34188 0.32052 0.0
C2052 C 0.25198 0.33392 0.3357 0.0
C2053 C 0.23489 0.32241 0.33391 0.0
H2054 H 0.27168 0.35084 0.32195 0.0
H2055 H 0.1043 0.24351 0.30304 0.0
H2056 H 0.96048 0.03775 0.21845 0.0
H2057 H 0.97709 0.03766 0.19035 0.0
H2058 H 0.98293 0.09866 0.1965 0.0
H2059 H 0.9672 0.09892 0.22529 0.0
H2060 H 0.9722 0.07689 0.15635 0.0
H2061 H 0.01756 0.08739 0.20492 0.0
H2062 H 0.03393 0.08276 0.23323 0.0
H2063 H 0.03872 0.02726 0.20514 0.0
H2064 H 0.02203 0.0314 0.17672 0.0
H2065 H 0.03657 0.08941 0.08588 0.0
H2066 H 0.0218 0.0928 0.11527 0.0
H2067 H 0.02067 0.03375 0.11787 0.0
H2068 H 0.03471 0.03019 0.08816 0.0
H2069 H 0.02969 0.05663 0.15423 0.0
H2070 H 0.98343 0.04847 0.10461 0.0
H2071 H 0.9689 0.05651 0.07686 0.0
H2072 H 0.96799 0.11204 0.10805 0.0
H2073 H 0.98283 0.10446 0.13591 0.0
C2074 C 0.96532 0.05124 0.21398 0.0
C2075 C 0.96227 0.06835 0.22467 0.0
C2076 C 0.97495 0.05118 0.19766 0.0
C2077 C 0.98152 0.06812 0.19061 0.0
C2078 C 0.97821 0.08521 0.2011 0.0
C2079 C 0.96915 0.08536 0.21784 0.0
C2080 C 0.99188 0.06789 0.17272 0.0
C2081 C 0.98486 0.07264 0.15613 0.0
C2082 C 0.00859 0.06241 0.17164 0.0
C2083 C 0.01825 0.05956 0.18878 0.0
C2084 C 0.02184 0.07405 0.20486 0.0
C2085 C 0.03124 0.07156 0.22091 0.0
C2086 C 0.03729 0.05468 0.22102 0.0
C2087 C 0.03396 0.04029 0.20505 0.0
C2088 C 0.02452 0.0427 0.18897 0.0
C2089 C 0.03332 0.07712 0.09271 0.0
C2090 C 0.03716 0.05949 0.08425 0.0
C2091 C 0.02467 0.07904 0.10972 0.0
C2092 C 0.01973 0.06357 0.11945 0.0
C2093 C 0.02407 0.04613 0.1112 0.0
C2094 C 0.03223 0.04407 0.09396 0.0
C2095 C 0.00986 0.06527 0.13771 0.0
C2096 C 0.01699 0.0608 0.15441 0.0
C2097 C 0.99343 0.07142 0.13898 0.0
C2098 C 0.98444 0.07598 0.12229 0.0
C2099 C 0.98029 0.06246 0.10551 0.0
C2100 C 0.97197 0.06693 0.08976 0.0
C2101 C 0.96757 0.08479 0.09067 0.0
C2102 C 0.97144 0.09822 0.10735 0.0
C2103 C 0.97981 0.09385 0.12313 0.0
H2104 H 0.96112 0.08822 0.07846 0.0
H2105 H 0.04462 0.0528 0.23344 0.0
H2106 H 0.27818 0.64361 0.45822 0.0
H2107 H 0.27368 0.66159 0.43315 0.0
H2108 H 0.26629 0.7089 0.47449 0.0
H2109 H 0.2708 0.69126 0.49938 0.0
H2110 H 0.24237 0.70092 0.44277 0.0
H2111 H 0.30529 0.71187 0.46098 0.0
H2112 H 0.33234 0.69997 0.4672 0.0
H2113 H 0.32786 0.6712 0.40986 0.0
H2114 H 0.3006 0.68276 0.40339 0.0
H2115 H 0.258 0.78362 0.40768 0.0
H2116 H 0.26643 0.76155 0.42682 0.0
H2117 H 0.27051 0.72194 0.37665 0.0
H2118 H 0.26263 0.74437 0.35738 0.0
H2119 H 0.295 0.7221 0.40888 0.0
H2120 H 0.23229 0.71782 0.39159 0.0
H2121 H 0.20608 0.73209 0.38901 0.0
H2122 H 0.211 0.75078 0.44876 0.0
H2123 H 0.23747 0.73697 0.45165 0.0
C2124 C 0.27545 0.65778 0.46184 0.0
C2125 C 0.27509 0.66624 0.48062 0.0
C2126 C 0.27285 0.66794 0.4476 0.0
C2127 C 0.26974 0.68648 0.45215 0.0
C2128 C 0.26862 0.69455 0.47082 0.0
C2129 C 0.27138 0.68454 0.48498 0.0
C2130 C 0.26908 0.69838 0.43782 0.0
C2131 C 0.25379 0.70548 0.43525 0.0
C2132 C 0.28408 0.70423 0.42818 0.0
C2133 C 0.3009 0.69806 0.43172 0.0
C2134 C 0.31008 0.70299 0.44971 0.0
C2135 C 0.32543 0.69629 0.45329 0.0
C2136 C 0.3318 0.68481 0.43894 0.0
C2137 C 0.3229 0.6801 0.42096 0.0
C2138 C 0.30751 0.68674 0.41731 0.0
C2139 C 0.26132 0.77049 0.40083 0.0
C2140 C 0.25949 0.76537 0.38124 0.0
C2141 C 0.26616 0.75799 0.41169 0.0
C2142 C 0.26873 0.74009 0.403 0.0
C2143 C 0.26858 0.73575 0.38344 0.0
C2144 C 0.264 0.74844 0.37253 0.0
C2145 C 0.26834 0.72489 0.41407 0.0
C2146 C 0.28341 0.71718 0.41602 0.0
C2147 C 0.25322 0.71875 0.4235 0.0
C2148 C 0.23692 0.72645 0.42181 0.0
C2149 C 0.22782 0.72504 0.40417 0.0
C2150 C 0.21293 0.73306 0.40265 0.0
C2151 C 0.20689 0.74235 0.41871 0.0
C2152 C 0.2157 0.74359 0.43633 0.0
C2153 C 0.23064 0.73566 0.43792 0.0
H2154 H 0.19538 0.74858 0.4175 0.0
H2155 H 0.34365 0.67958 0.44175 0.0
H2156 H 0.6405 0.04504 0.71035 0.0
H2157 H 0.61975 0.03734 0.68236 0.0
H2158 H 0.6584 0.01447 0.64998 0.0
H2159 H 0.67948 0.02235 0.67805 0.0
H2160 H 0.64015 0.03874 0.6332 0.0
H2161 H 0.62694 0.98336 0.66315 0.0
H2162 H 0.62053 0.96711 0.69007 0.0
H2163 H 0.57408 0.99058 0.69742 0.0
H2164 H 0.58034 0.00716 0.67069 0.0
H2165 H 0.57501 0.99921 0.55844 0.0
H2166 H 0.59591 0.9967 0.58387 0.0
H2167 H 0.56796 0.0278 0.62389 0.0
H2168 H 0.54722 0.03065 0.59836 0.0
H2169 H 0.58202 0.99473 0.63473 0.0
H2170 H 0.60151 0.05876 0.61886 0.0
H2171 H 0.60885 0.08241 0.59822 0.0
H2172 H 0.64092 0.04782 0.56814 0.0
H2173 H 0.63413 0.02421 0.58914 0.0
C2174 C 0.64461 0.03847 0.69725 0.0
C2175 C 0.66136 0.03394 0.69625 0.0
C2176 C 0.63277 0.03404 0.68139 0.0
C2177 C 0.63754 0.02486 0.66451 0.0
C2178 C 0.65459 0.02128 0.66314 0.0
C2179 C 0.66653 0.02583 0.67905 0.0
C2180 C 0.6245 0.01915 0.64832 0.0
C2181 C 0.62766 0.02863 0.63319 0.0
C2182 C 0.60802 0.00664 0.64899 0.0
C2183 C 0.60414 0.99652 0.66494 0.0
C2184 C 0.61541 0.98512 0.67057 0.0
C2185 C 0.6118 0.97585 0.68579 0.0
C2186 C 0.59691 0.97782 0.69545 0.0
C2187 C 0.58559 0.98905 0.6899 0.0
C2188 C 0.58915 0.99835 0.6747 0.0
C2189 C 0.57294 1.00475 0.57277 0.0
C2190 C 0.55955 0.01484 0.57675 0.0
C2191 C 0.58486 1.00343 0.58715 0.0
C2192 C 0.58332 0.01219 0.60546 0.0
C2193 C 0.56905 0.02087 0.60969 0.0
C2194 C 0.55715 0.02229 0.59525 0.0
C2195 C 0.59776 0.01428 0.61974 0.0
C2196 C 0.59479 1.00422 0.63446 0.0
C2197 C 0.61424 0.02667 0.61904 0.0
C2198 C 0.61709 0.03965 0.60529 0.0
C2199 C 0.60991 0.0561 0.60766 0.0
C2200 C 0.61409 0.06955 0.59599 0.0
C2201 C 0.62524 0.06656 0.58173 0.0
C2202 C 0.63223 0.05008 0.57914 0.0
C2203 C 0.6283 0.0367 0.59098 0.0
H2204 H 0.62858 0.07707 0.57278 0.0
H2205 H 0.59413 0.97063 0.70723 0.0
H2206 H 0.30638 0.38919 0.96858 0.0
H2207 H 0.30546 0.3726 0.9363 0.0
H2208 H 0.30284 0.31909 0.95574 0.0
H2209 H 0.30432 0.33585 0.98825 0.0
H2210 H 0.32498 0.32093 0.9309 0.0
H2211 H 0.2661 0.32922 0.93134 0.0
H2212 H 0.2411 0.3453 0.9366 0.0
H2213 H 0.26022 0.38289 0.89877 0.0
H2214 H 0.28543 0.36714 0.8934 0.0
H2215 H 0.30481 0.26931 0.83513 0.0
H2216 H 0.30682 0.28191 0.86885 0.0
H2217 H 0.31264 0.33922 0.85727 0.0
H2218 H 0.31005 0.32645 0.82354 0.0
H2219 H 0.2867 0.33206 0.87871 0.0
H2220 H 0.35088 0.32615 0.88819 0.0
H2221 H 0.37511 0.30843 0.88679 0.0
H2222 H 0.34162 0.26187 0.90599 0.0
H2223 H 0.31752 0.27968 0.90827 0.0
C2224 C 0.30554 0.37387 0.966 0.0
C2225 C 0.30548 0.36385 0.981 0.0
C2226 C 0.30485 0.36434 0.94747 0.0
C2227 C 0.30379 0.34447 0.94343 0.0
C2228 C 0.30362 0.3344 0.95842 0.0
C2229 C 0.30447 0.34399 0.97701 0.0
C2230 C 0.30391 0.33456 0.92366 0.0
C2231 C 0.31638 0.32318 0.91955 0.0
C2232 C 0.29274 0.33733 0.9087 0.0
C2233 C 0.27776 0.3471 0.9121 0.0
C2234 C 0.26507 0.34103 0.92427 0.0
C2235 C 0.25084 0.35006 0.92724 0.0
C2236 C 0.2491 0.36514 0.91806 0.0
C2237 C 0.26159 0.37121 0.90588 0.0
C2238 C 0.27584 0.36222 0.90284 0.0
C2239 C 0.30719 0.28466 0.8399 0.0
C2240 C 0.30783 0.29697 0.82681 0.0
C2241 C 0.30838 0.29189 0.8592 0.0
C2242 C 0.3101 0.31161 0.86579 0.0
C2243 C 0.31142 0.32398 0.85265 0.0
C2244 C 0.31014 0.31673 0.83337 0.0
C2245 C 0.30829 0.31913 0.88592 0.0
C2246 C 0.2953 0.3299 0.89009 0.0
C2247 C 0.31859 0.31534 0.90099 0.0
C2248 C 0.33239 0.30404 0.89807 0.0
C2249 C 0.34868 0.31205 0.89192 0.0
C2250 C 0.36242 0.30209 0.89117 0.0
C2251 C 0.35984 0.28398 0.89613 0.0
C2252 C 0.34358 0.27585 0.90206 0.0
C2253 C 0.32994 0.28593 0.90323 0.0
H2254 H 0.37047 0.27626 0.89542 0.0
H2255 H 0.23806 0.37209 0.92035 0.0
H2256 H 0.98644 0.06067 0.31513 0.0
H2257 H 1.00182 0.05469 0.34334 0.0
H2258 H 0.95831 0.06554 0.37507 0.0
H2259 H 0.94294 0.07156 0.34682 0.0
H2260 H 0.98717 0.08003 0.39817 0.0
H2261 H 0.96869 0.01782 0.35887 0.0
H2262 H 0.96673 0.99391 0.32994 0.0
H2263 H 0.02351 1.00187 0.33401 0.0
H2264 H 0.02581 0.02602 0.36285 0.0
H2265 H 0.01246 0.04322 0.47973 0.0
H2266 H 0.99697 0.04722 0.45061 0.0
H2267 H 0.04196 0.03811 0.42062 0.0
H2268 H 0.05752 0.03446 0.44987 0.0
H2269 H 0.01296 0.02261 0.39641 0.0
H2270 H 0.03245 0.08316 0.43497 0.0
H2271 H 0.03613 0.10754 0.46366 0.0
H2272 H 0.98001 0.10472 0.46021 0.0
H2273 H 0.97584 0.07967 0.43181 0.0
C2274 C 0.98004 0.0619 0.32807 0.0
C2275 C 0.96314 0.06676 0.32812 0.0
C2276 C 0.98893 0.05824 0.34449 0.0
C2277 C 0.98151 0.05919 0.36207 0.0
C2278 C 0.96479 0.06448 0.36218 0.0
C2279 C 0.95583 0.06798 0.34572 0.0
C2280 C 0.99094 0.05476 0.38003 0.0
C2281 C 0.99246 0.06722 0.39761 0.0
C2282 C 0.99878 0.03848 0.38013 0.0
C2283 C 0.99743 0.02386 0.36291 0.0
C2284 C 0.98076 0.01455 0.35353 0.0
C2285 C 0.97959 1.00095 0.33716 0.0
C2286 C 0.99499 0.99641 0.33011 0.0
C2287 C 0.01159 0.00542 0.33947 0.0
C2288 C 0.01284 0.01906 0.35584 0.0
C2289 C 0.01897 0.04153 0.46689 0.0
C2290 C 0.0363 0.03787 0.46755 0.0
C2291 C 0.01007 0.04413 0.44999 0.0
C2292 C 0.01798 0.0433 0.43269 0.0
C2293 C 0.03508 0.03893 0.43325 0.0
C2294 C 0.04408 0.03665 0.45022 0.0
C2295 C 0.00889 0.04771 0.41457 0.0
C2296 C 0.00753 0.03532 0.39698 0.0
C2297 C 1.00142 0.0642 0.41439 0.0
C2298 C 0.0038 0.07934 0.43137 0.0
C2299 C 0.02084 0.08757 0.44042 0.0
C2300 C 0.02303 0.10154 0.45663 0.0
C2301 C 0.00833 0.10772 0.46375 0.0
C2302 C 0.99139 0.09989 0.45469 0.0
C2303 C 0.98909 0.08575 0.43855 0.0
H2304 H 0.01007 0.11861 0.47626 0.0
H2305 H 0.99405 0.98588 0.31743 0.0
H2306 H 0.25965 0.67186 0.57028 0.0
H2307 H 0.25834 0.69589 0.59809 0.0
H2308 H 0.31392 0.70001 0.6136 0.0
H2309 H 0.3153 0.67631 0.58554 0.0
H2310 H 0.28945 0.69313 0.64171 0.0
H2311 H 0.30408 0.73295 0.59503 0.0
H2312 H 0.29904 0.74415 0.56537 0.0
H2313 H 0.25039 0.7583 0.58292 0.0
H2314 H 0.25495 0.74678 0.61255 0.0
H2315 H 0.32499 0.77142 0.70882 0.0
H2316 H 0.31829 0.75011 0.67846 0.0
H2317 H 0.26551 0.76122 0.67467 0.0
H2318 H 0.27246 0.78306 0.7052 0.0
H2319 H 0.28199 0.75932 0.64049 0.0
H2320 H 0.26613 0.71845 0.68593 0.0
H2321 H 0.26739 0.70108 0.71232 0.0
H2322 H 0.31673 0.68763 0.69629 0.0
H2323 H 0.31573 0.70486 0.66982 0.0
C2324 C 0.27147 0.67787 0.57984 0.0
C2325 C 0.28752 0.67237 0.57632 0.0
C2326 C 0.27075 0.69161 0.59542 0.0
C2327 C 0.28608 0.69968 0.60753 0.0
C2328 C 0.30205 0.69388 0.60416 0.0
C2329 C 0.30283 0.68038 0.58839 0.0
C2330 C 0.28538 0.71345 0.62439 0.0
C2331 C 0.28795 0.70767 0.64151 0.0
C2332 C 0.28252 0.73197 0.62379 0.0
C2333 C 0.2797 0.73868 0.60588 0.0
C2334 C 0.29217 0.73817 0.59246 0.0
C2335 C 0.28943 0.74464 0.57567 0.0
C2336 C 0.27436 0.75185 0.57222 0.0
C2337 C 0.26202 0.75264 0.58557 0.0
C2338 C 0.26467 0.74612 0.60236 0.0
C2339 C 0.31233 0.7701 0.70103 0.0
C2340 C 0.29941 0.77923 0.70873 0.0
C2341 C 0.30836 0.75761 0.68399 0.0
C2342 C 0.29133 0.75395 0.67471 0.0
C2343 C 0.27867 0.76392 0.68184 0.0
C2344 C 0.28268 0.77645 0.69901 0.0
C2345 C 0.28689 0.73921 0.65784 0.0
C2346 C 0.28322 0.74471 0.64071 0.0
C2347 C 0.28867 0.7203 0.65832 0.0
C2348 C 0.29087 0.71296 0.67596 0.0
C2349 C 0.27742 0.71213 0.68829 0.0
C2350 C 0.27799 0.70212 0.70312 0.0
C2351 C 0.29198 0.69299 0.70575 0.0
C2352 C 0.3058 0.69449 0.69407 0.0
C2353 C 0.30524 0.70438 0.67918 0.0
H2354 H 0.29215 0.68478 0.71689 0.0
H2355 H 0.27229 0.7569 0.55923 0.0
H2356 H 0.64368 0.04612 0.78043 0.0
H2357 H 0.62971 0.05324 0.80917 0.0
H2358 H 0.67877 0.05623 0.84199 0.0
H2359 H 0.6931 0.04914 0.81294 0.0
H2360 H 0.64717 0.03123 0.851 0.0
H2361 H 0.66709 0.09655 0.84436 0.0
H2362 H 0.67256 0.12403 0.82788 0.0
H2363 H 0.61668 0.11545 0.81262 0.0
H2364 H 0.61087 0.08779 0.82874 0.0
H2365 H 0.59271 0.06642 0.92366 0.0
H2366 H 0.61539 0.05562 0.90493 0.0
H2367 H 0.58341 0.05539 0.85427 0.0
H2368 H 0.5609 0.06665 0.87297 0.0
H2369 H 0.61453 0.08366 0.86235 0.0
H2370 H 0.59633 0.01367 0.85557 0.0
H2371 H 0.58943 0.98215 0.86534 0.0
H2372 H 0.63795 0.99703 0.90136 0.0
H2373 H 0.64537 0.02841 0.89132 0.0
C2374 C 0.65155 0.04832 0.79373 0.0
C2375 C 0.66939 0.04697 0.79458 0.0
C2376 C 0.64361 0.05259 0.81009 0.0
C2377 C 0.6534 0.05555 0.8275 0.0
C2378 C 0.67121 0.05418 0.82852 0.0
C2379 C 0.67927 0.05005 0.81204 0.0
C2380 C 0.64408 0.05833 0.84436 0.0
C2381 C 0.6404 0.04298 0.85402 0.0
C2382 C 0.63509 0.07348 0.84771 0.0
C2383 C 0.63857 0.09006 0.83781 0.0
C2384 C 0.65598 0.10044 0.83739 0.0
C2385 C 0.65913 0.11607 0.82812 0.0
C2386 C 0.64498 0.12149 0.81922 0.0
C2387 C 0.62763 0.11127 0.81955 0.0
C2388 C 0.6244 0.09564 0.82879 0.0
C2389 C 0.59038 0.06353 0.9085 0.0
C2390 C 0.57549 0.06783 0.89954 0.0
C2391 C 0.60317 0.05713 0.89789 0.0
C2392 C 0.601 0.05489 0.87835 0.0
C2393 C 0.58517 0.0571 0.86942 0.0
C2394 C 0.57253 0.06378 0.88 0.0
C2395 C 0.6166 0.0558 0.86777 0.0
C2396 C 0.62165 0.07215 0.85976 0.0
C2397 C 0.62642 0.04135 0.86552 0.0
C2398 C 0.62124 0.02344 0.87296 0.0
C2399 C 0.6054 0.01028 0.86575 0.0
C2400 C 0.60153 0.99236 0.87113 0.0
C2401 C 0.61323 0.98761 0.88399 0.0
C2402 C 0.62889 1.00074 0.89143 0.0
C2403 C 0.63299 0.01854 0.88581 0.0
H2404 H 0.61015 0.97377 0.88823 0.0
H2405 H 0.64745 0.1336 0.81207 0.0
H2406 H 0.27364 0.34305 0.06462 0.0
H2407 H 0.26589 0.3255 0.09024 0.0
H2408 H 0.31101 0.36151 0.12523 0.0
H2409 H 0.31847 0.37956 0.09988 0.0
H2410 H 0.30722 0.32 0.12343 0.0
H2411 H 0.27546 0.37034 0.13598 0.0
H2412 H 0.25448 0.3907 0.13044 0.0
H2413 H 0.21144 0.34133 0.11956 0.0
H2414 H 0.23224 0.3206 0.12476 0.0
H2415 H 0.2896 0.31858 0.21888 0.0
H2416 H 0.28992 0.33018 0.18942 0.0
H2417 H 0.25907 0.27563 0.16093 0.0
H2418 H 0.25915 0.26352 0.19032 0.0
H2419 H 0.25311 0.32227 0.15697 0.0
H2420 H 0.28726 0.27175 0.14494 0.0
H2421 H 0.30903 0.25448 0.15594 0.0
H2422 H 0.34834 0.30705 0.16916 0.0
H2423 H 0.32664 0.32469 0.15858 0.0
C2424 C 0.28191 0.34724 0.07778 0.0
C2425 C 0.29671 0.36266 0.08021 0.0
C2426 C 0.27742 0.33724 0.09243 0.0
C2427 C 0.28787 0.34217 0.10966 0.0
C2428 C 0.30276 0.35744 0.11205 0.0
C2429 C 0.307 0.36776 0.09757 0.0
C2430 C 0.28348 0.33128 0.12511 0.0
C2431 C 0.29531 0.32042 0.13063 0.0
C2432 C 0.26788 0.33163 0.13449 0.0
C2433 C 0.25548 0.34387 0.13038 0.0
C2434 C 0.26158 0.36376 0.13204 0.0
C2435 C 0.24971 0.37539 0.12908 0.0
C2436 C 0.23165 0.3673 0.12455 0.0
C2437 C 0.22544 0.34756 0.12298 0.0
C2438 C 0.23728 0.33586 0.12592 0.0
C2439 C 0.2827 0.30887 0.20651 0.0
C2440 C 0.27454 0.28975 0.20727 0.0
C2441 C 0.28292 0.31567 0.1896 0.0
C2442 C 0.27471 0.30374 0.17297 0.0
C2443 C 0.26565 0.28504 0.17363 0.0
C2444 C 0.2657 0.27809 0.19058 0.0
C2445 C 0.27668 0.31088 0.15499 0.0
C2446 C 0.26462 0.3213 0.14922 0.0
C2447 C 0.29206 0.31019 0.1454 0.0
C2448 C 0.30528 0.29956 0.15118 0.0
C2449 C 0.3005 0.27965 0.15035 0.0
C2450 C 0.31283 0.26979 0.15649 0.0
C2451 C 0.33004 0.27967 0.16331 0.0
C2452 C 0.33499 0.29942 0.1639 0.0
C2453 C 0.32268 0.30935 0.15784 0.0
H2454 H 0.33957 0.27204 0.1681 0.0
H2455 H 0.22247 0.37635 0.12234 0.0
H2456 H 0.254 0.93174 0.99737 0.0
H2457 H 0.22975 0.94879 0.00267 0.0
H2458 H 0.26494 0.99367 0.04199 0.0
H2459 H 0.2892 0.97719 0.03649 0.0
H2460 H 0.2294 0.97415 0.05397 0.0
H2461 H 0.25907 0.00873 0.00819 0.0
H2462 H 0.27253 0.00801 0.97808 0.0
H2463 H 0.22264 0.9772 0.94868 0.0
H2464 H 0.20895 0.97755 0.97873 0.0
H2465 H 0.19238 0.06019 0.06163 0.0
H2466 H 0.21319 0.04002 0.05143 0.0
H2467 H 0.16956 0.99165 0.03339 0.0
H2468 H 0.14876 0.01102 0.04489 0.0
H2469 H 0.20733 0.01058 0.00894 0.0
H2470 H 0.179 0.97358 0.05704 0.0
H2471 H 0.16793 0.97356 0.08832 0.0
H2472 H 0.21747 0.00932 0.11397 0.0
H2473 H 0.22873 0.0097 0.08275 0.0
C2474 C 0.25653 0.94536 0.00693 0.0
C2475 C 0.27334 0.95324 0.01652 0.0
C2476 C 0.24276 0.95496 0.00997 0.0
C2477 C 0.24577 0.97223 0.0228 0.0
C2478 C 0.26256 0.98024 0.03213 0.0
C2479 C 0.27635 0.9709 0.02886 0.0
C2480 C 0.23139 0.98213 0.02672 0.0
C2481 C 0.22444 0.98199 0.04411 0.0
C2482 C 0.22521 0.9923 0.01378 0.0
C2483 C 0.23301 0.99314 0.99565 0.0
C2484 C 0.25097 1.00183 0.99529 0.0
C2485 C 0.25865 1.00146 0.97826 0.0
C2486 C 0.24845 0.99255 0.96147 0.0
C2487 C 0.23052 0.98411 0.9617 0.0
C2488 C 0.22278 0.98443 0.97872 0.0
C2489 C 0.18722 0.04519 0.05583 0.0
C2490 C 0.16889 0.03727 0.05401 0.0
C2491 C 0.19908 0.03383 0.04975 0.0
C2492 C 0.19271 0.01456 0.04158 0.0
C2493 C 0.17455 0.00659 0.03962 0.0
C2494 C 0.16273 0.01775 0.04609 0.0
C2495 C 0.20522 1.00245 0.03617 0.0
C2496 C 0.21197 1.00235 0.0186 0.0
C2497 C 0.2113 0.99203 0.04895 0.0
C2498 C 0.20456 0.99192 0.06763 0.0
C2499 C 0.18743 0.98162 0.06935 0.0
C2500 C 0.18113 0.98151 0.08705 0.0
C2501 C 0.19194 0.99154 0.10312 0.0
C2502 C 0.20909 1.00164 0.10151 0.0
C2503 C 0.21542 1.00181 0.08382 0.0
H2504 H 0.18706 0.99142 0.11681 0.0
H2505 H 0.25443 0.9922 0.9483 0.0
H2506 H 0.7316 0.67188 0.02544 0.0
H2507 H 0.70241 0.64983 0.02257 0.0
H2508 H 0.71585 0.61668 0.97248 0.0
H2509 H 0.74529 0.63818 0.97574 0.0
H2510 H 0.67774 0.62724 0.97358 0.0
H2511 H 0.71902 0.59597 1.00187 0.0
H2512 H 0.74353 0.59532 0.02474 0.0
H2513 H 0.71234 0.60969 0.07011 0.0
H2514 H 0.68776 0.61081 0.04747 0.0
H2515 H 0.60751 0.54102 0.97742 0.0
H2516 H 0.63687 0.56019 0.97312 0.0
H2517 H 0.63478 0.59938 0.02413 0.0
H2518 H 0.60571 0.58119 0.02814 0.0
H2519 H 0.66813 0.58325 0.01942 0.0
H2520 H 0.62806 0.61664 0.99218 0.0
H2521 H 0.60405 0.62026 0.97024 0.0
H2522 H 0.63288 0.60352 0.92354 0.0
H2523 H 0.65694 0.59945 0.94524 0.0
C2524 C 0.72825 0.66 0.01373 0.0
C2525 C 0.74075 0.65672 1.00085 0.0
C2526 C 0.71159 0.64741 0.01209 0.0
C2527 C 0.70692 0.63161 0.99728 0.0
C2528 C 0.71912 0.62878 0.98398 0.0
C2529 C 0.73596 0.64103 0.98591 0.0
C2530 C 0.68979 0.61743 0.99644 0.0
C2531 C 0.67572 0.61736 0.98335 0.0
C2532 C 0.68705 0.60471 0.00934 0.0
C2533 C 0.70164 0.6037 0.02299 0.0
C2534 C 0.71746 0.59918 0.01673 0.0
C2535 C 0.73135 0.5987 0.02965 0.0
C2536 C 0.72952 0.60252 0.04887 0.0
C2537 C 0.71375 0.60677 0.05521 0.0
C2538 C 0.69983 0.60733 0.04234 0.0
C2539 C 0.61331 0.55372 0.98769 0.0
C2540 C 0.60414 0.55932 0.00324 0.0
C2541 C 0.63008 0.5647 0.98519 0.0
C2542 C 0.63807 0.58123 0.99837 0.0
C2543 C 0.62898 0.58667 0.01384 0.0
C2544 C 0.61223 0.57609 0.0161 0.0
C2545 C 0.65596 0.593 0.99654 0.0
C2546 C 0.6702 0.59278 0.00932 0.0
C2547 C 0.65879 0.60549 0.98339 0.0
C2548 C 0.64412 0.60734 0.97032 0.0
C2549 C 0.62913 0.61338 0.97723 0.0
C2550 C 0.61555 0.61562 0.96484 0.0
C2551 C 0.61689 0.61202 0.9455 0.0
C2552 C 0.63182 0.60621 0.93852 0.0
C2553 C 0.64542 0.60392 0.95086 0.0
H2554 H 0.60639 0.61383 0.93594 0.0
H2555 H 0.74029 0.60214 0.05886 0.0
H2556 H 0.72197 0.48011 0.28887 0.0
H2557 H 0.73842 0.45458 0.28837 0.0
H2558 H 0.69772 0.41661 0.24909 0.0
H2559 H 0.68074 0.44205 0.25049 0.0
H2560 H 0.70865 0.39331 0.26541 0.0
H2561 H 0.74654 0.44072 0.24026 0.0
H2562 H 0.76314 0.47321 0.23872 0.0
H2563 H 0.79405 0.47487 0.29014 0.0
H2564 H 0.7775 0.44243 0.29207 0.0
H2565 H 0.77077 0.32717 0.24261 0.0
H2566 H 0.75321 0.35195 0.24062 0.0
H2567 H 0.77621 0.38173 0.29537 0.0
H2568 H 0.79273 0.35654 0.29781 0.0
H2569 H 0.77431 0.40848 0.2688 0.0
H2570 H 0.73503 0.35787 0.29079 0.0
H2571 H 0.71563 0.32639 0.29094 0.0
H2572 H 0.68629 0.33027 0.24035 0.0
H2573 H 0.70572 0.36167 0.23971 0.0
C2574 C 0.71638 0.46641 0.27999 0.0
C2575 C 0.69967 0.46387 0.26965 0.0
C2576 C 0.72613 0.45145 0.27949 0.0
C2577 C 0.72022 0.43288 0.26818 0.0
C2578 C 0.70334 0.43029 0.258 0.0
C2579 C 0.69342 0.4452 0.25875 0.0
C2580 C 0.73133 0.41655 0.26719 0.0
C2581 C 0.723 0.39691 0.26583 0.0
C2582 C 0.75035 0.42002 0.26772 0.0
C2583 C 0.7607 0.43923 0.26639 0.0
C2584 C 0.75687 0.44804 0.25125 0.0
C2585 C 0.76625 0.46644 0.25032 0.0
C2586 C 0.77961 0.47612 0.26435 0.0
C2587 C 0.78369 0.46736 0.27929 0.0
C2588 C 0.77433 0.44895 0.2803 0.0
C2589 C 0.77253 0.33918 0.25412 0.0
C2590 C 0.78427 0.33972 0.27009 0.0
C2591 C 0.7621 0.35352 0.25308 0.0
C2592 C 0.76295 0.36953 0.26778 0.0
C2593 C 0.7749 0.37013 0.28351 0.0
C2594 C 0.78474 0.35553 0.28482 0.0
C2595 C 0.75161 0.38535 0.26717 0.0
C2596 C 0.75994 0.40492 0.26823 0.0
C2597 C 0.73257 0.38166 0.26572 0.0
C2598 C 0.72198 0.36205 0.26511 0.0
C2599 C 0.72469 0.35185 0.27948 0.0
C2600 C 0.71361 0.33407 0.27971 0.0
C2601 C 0.69969 0.32641 0.26572 0.0
C2602 C 0.69705 0.33628 0.25121 0.0
C2603 C 0.70811 0.35405 0.2509 0.0
H2604 H 0.69085 0.3129 0.26624 0.0
H2605 H 0.78683 0.4904 0.26363 0.0
H2606 H 0.86259 0.47791 0.54448 0.0
H2607 H 0.89236 0.49601 0.54122 0.0
H2608 H 0.90416 0.44523 0.50862 0.0
H2609 H 0.87504 0.42701 0.51266 0.0
H2610 H 0.93279 0.46694 0.52788 0.0
H2611 H 0.88325 0.47706 0.48729 0.0
H2612 H 0.85461 0.4869 0.48428 0.0
H2613 H 0.87791 0.5421 0.51742 0.0
H2614 H 0.90665 0.53251 0.52068 0.0
H2615 H 0.99706 0.49498 0.47862 0.0
H2616 H 0.96475 0.48458 0.47548 0.0
H2617 H 0.9606 0.53814 0.50918 0.0
H2618 H 0.99238 0.54918 0.51071 0.0
H2619 H 0.92789 0.5179 0.49099 0.0
H2620 H 0.97335 0.50559 0.53777 0.0
H2621 H 1.00096 0.49531 0.54557 0.0
H2622 H 0.98542 0.44549 0.50229 0.0
H2623 H 0.95712 0.45482 0.49511 0.0
C2624 C 0.87182 0.47058 0.53715 0.0
C2625 C 0.86655 0.45134 0.52833 0.0
C2626 C 0.88869 0.48088 0.53525 0.0
C2627 C 0.9 0.47204 0.52406 0.0
C2628 C 0.89543 0.45231 0.5171 0.0
C2629 C 0.8788 0.44194 0.51937 0.0
C2630 C 0.9155 0.48338 0.51737 0.0
C2631 C 0.93167 0.47798 0.51973 0.0
C2632 C 0.91401 0.49801 0.50705 0.0
C2633 C 0.89705 0.50411 0.50418 0.0
C2634 C 0.88226 0.49133 0.49382 0.0
C2635 C 0.86601 0.49684 0.49212 0.0
C2636 C 0.86444 0.51512 0.50064 0.0
C2637 C 0.87915 0.52797 0.5108 0.0
C2638 C 0.89543 0.52253 0.51253 0.0
C2639 C 0.98911 0.5049 0.48432 0.0
C2640 C 0.99714 0.5228 0.49489 0.0
C2641 C 0.97072 0.49907 0.48244 0.0
C2642 C 0.96059 0.5103 0.4929 0.0
C2643 C 0.96829 0.52921 0.5012 0.0
C2644 C 0.9866 0.53545 0.50221 0.0
C2645 C 0.94487 0.50066 0.50074 0.0
C2646 C 0.92886 0.50669 0.49895 0.0
C2647 C 0.94638 0.48655 0.51169 0.0
C2648 C 0.96333 0.48097 0.5158 0.0
C2649 C 0.97587 0.49246 0.52994 0.0
C2650 C 0.99161 0.4868 0.53426 0.0
C2651 C 0.99515 0.47001 0.52418 0.0
C2652 C 0.98273 0.45856 0.51002 0.0
C2653 C 0.96674 0.46388 0.50599 0.0
H2654 H 0.00744 0.46578 0.52746 0.0
H2655 H 0.85184 0.51934 0.49937 0.0
H2656 H 0.37571 0.0745 0.31818 0.0
H2657 H 0.3532 0.09053 0.30736 0.0
H2658 H 0.39035 0.11832 0.27291 0.0
H2659 H 0.4129 0.10231 0.28355 0.0
H2660 H 0.37177 0.1418 0.29471 0.0
H2661 H 0.36126 0.0798 0.25356 0.0
H2662 H 0.35347 0.04453 0.24544 0.0
H2663 H 0.30342 0.04403 0.26862 0.0
H2664 H 0.31101 0.07928 0.27714 0.0
H2665 H 0.31961 0.15601 0.21273 0.0
H2666 H 0.33887 0.14218 0.23193 0.0
H2667 H 0.3026 0.14297 0.27508 0.0
H2668 H 0.28366 0.15762 0.25631 0.0
H2669 H 0.31784 0.10548 0.25436 0.0
H2670 H 0.32855 0.17095 0.28697 0.0
H2671 H 0.33842 0.20584 0.29419 0.0
H2672 H 0.39226 0.20087 0.28795 0.0
H2673 H 0.38247 0.16611 0.27798 0.0
C2674 C 0.37918 0.08441 0.30864 0.0
C2675 C 0.39596 0.08728 0.30165 0.0
C2676 C 0.36627 0.09326 0.30232 0.0
C2677 C 0.37015 0.10512 0.28911 0.0
C2678 C 0.38723 0.10899 0.28304 0.0
C2679 C 0.40014 0.10012 0.28932 0.0
C2680 C 0.35663 0.11412 0.28186 0.0
C2681 C 0.36007 0.13408 0.28557 0.0
C2682 C 0.34109 0.10349 0.27087 0.0
C2683 C 0.33685 0.08221 0.2663 0.0
C2684 C 0.34872 0.07218 0.25721 0.0
C2685 C 0.3443 0.05218 0.25245 0.0
C2686 C 0.328 0.04204 0.25659 0.0
C2687 C 0.31607 0.05189 0.26548 0.0
C2688 C 0.32043 0.07187 0.27029 0.0
C2689 C 0.31588 0.15337 0.22639 0.0
C2690 C 0.30045 0.15814 0.23332 0.0
C2691 C 0.32688 0.14565 0.23733 0.0
C2692 C 0.3224 0.14245 0.25513 0.0
C2693 C 0.30647 0.14611 0.26161 0.0
C2694 C 0.29572 0.15436 0.25094 0.0
C2695 C 0.33361 0.13351 0.2661 0.0
C2696 C 0.32958 0.11344 0.26333 0.0
C2697 C 0.34904 0.14417 0.27749 0.0
C2698 C 0.35451 0.16553 0.28114 0.0
C2699 C 0.3423 0.17714 0.28591 0.0
C2700 C 0.34796 0.19706 0.29059 0.0
C2701 C 0.36595 0.2056 0.29146 0.0
C2702 C 0.37829 0.19427 0.28726 0.0
C2703 C 0.37261 0.17446 0.28167 0.0
H2704 H 0.37034 0.22097 0.29551 0.0
H2705 H 0.32458 0.02658 0.25284 0.0
H2706 H 0.32852 0.15058 0.53423 0.0
H2707 H 0.35402 0.13597 0.53835 0.0
H2708 H 0.37814 0.16156 0.49384 0.0
H2709 H 0.35277 0.17692 0.49008 0.0
H2710 H 0.37476 0.11748 0.49364 0.0
H2711 H 0.39849 0.18032 0.52895 0.0
H2712 H 0.39826 0.20938 0.55197 0.0
H2713 H 0.39175 0.17614 0.59584 0.0
H2714 H 0.39164 0.14681 0.57301 0.0
H2715 H 0.44988 0.07818 0.51429 0.0
H2716 H 0.43219 0.10051 0.50592 0.0
H2717 H 0.40999 0.10238 0.55935 0.0
H2718 H 0.4282 0.08094 0.56813 0.0
H2719 H 0.41593 0.13651 0.55164 0.0
H2720 H 0.38759 0.07372 0.51659 0.0
H2721 H 0.38616 0.04374 0.49418 0.0
H2722 H 0.40002 0.0759 0.4505 0.0
H2723 H 0.40167 0.10609 0.47273 0.0
C2724 C 0.33926 0.15314 0.52532 0.0
C2725 C 0.33864 0.16485 0.5118 0.0
C2726 C 0.35383 0.14483 0.52773 0.0
C2727 C 0.36796 0.14769 0.51642 0.0
C2728 C 0.36736 0.15921 0.50273 0.0
C2729 C 0.35292 0.16798 0.50063 0.0
C2730 C 0.38307 0.13825 0.51899 0.0
C2731 C 0.38407 0.12187 0.50608 0.0
C2732 C 0.39492 0.14374 0.53544 0.0
C2733 C 0.39487 0.16132 0.54922 0.0
C2734 C 0.3968 0.17916 0.54347 0.0
C2735 C 0.39678 0.1957 0.55649 0.0
C2736 C 0.39494 0.1946 0.57535 0.0
C2737 C 0.39315 0.17697 0.58122 0.0
C2738 C 0.39314 0.16038 0.56825 0.0
C2739 C 0.44144 0.08358 0.52438 0.0
C2740 C 0.44036 0.07751 0.54183 0.0
C2741 C 0.43116 0.09621 0.51948 0.0
C2742 C 0.41944 0.10294 0.53184 0.0
C2743 C 0.41881 0.09738 0.54948 0.0
C2744 C 0.42913 0.0849 0.55441 0.0
C2745 C 0.40744 0.11535 0.52649 0.0
C2746 C 0.40693 0.13227 0.53896 0.0
C2747 C 0.39592 0.11024 0.5097 0.0
C2748 C 0.39495 0.09214 0.49635 0.0
C2749 C 0.39045 0.07439 0.50224 0.0
C2750 C 0.38957 0.05737 0.48956 0.0
C2751 C 0.39305 0.05792 0.47094 0.0
C2752 C 0.39736 0.0755 0.46493 0.0
C2753 C 0.39825 0.09256 0.47756 0.0
H2754 H 0.39236 0.04473 0.46115 0.0
H2755 H 0.39494 0.20743 0.58542 0.0
H2756 H 0.6806 0.57928 0.26286 0.0
H2757 H 0.69686 0.61239 0.26532 0.0
H2758 H 0.74181 0.59927 0.29396 0.0
H2759 H 0.72527 0.56598 0.29183 0.0
H2760 H 0.73928 0.63457 0.30981 0.0
H2761 H 0.73876 0.6054 0.24487 0.0
H2762 H 0.72434 0.58756 0.21412 0.0
H2763 H 0.69413 0.63062 0.21054 0.0
H2764 H 0.7082 0.64859 0.24139 0.0
H2765 H 0.80123 0.72118 0.29653 0.0
H2766 H 0.78547 0.68809 0.29685 0.0
H2767 H 0.73863 0.69887 0.26968 0.0
H2768 H 0.75407 0.73177 0.26966 0.0
H2769 H 0.74256 0.66458 0.2532 0.0
H2770 H 0.74146 0.6939 0.316 0.0
H2771 H 0.75206 0.71171 0.34789 0.0
H2772 H 0.78175 0.66945 0.35677 0.0
H2773 H 0.77158 0.65153 0.32476 0.0
C2774 C 0.69398 0.58328 0.26966 0.0
C2775 C 0.70147 0.56944 0.27695 0.0
C2776 C 0.70345 0.60248 0.271 0.0
C2777 C 0.72104 0.60891 0.27951 0.0
C2778 C 0.72843 0.59518 0.28717 0.0
C2779 C 0.7189 0.57589 0.28587 0.0
C2780 C 0.73156 0.62964 0.28021 0.0
C2781 C 0.74025 0.64088 0.29728 0.0
C2782 C 0.73258 0.6388 0.26423 0.0
C2783 C 0.72445 0.62826 0.24549 0.0
C2784 C 0.729 0.61103 0.23755 0.0
C2785 C 0.72088 0.60089 0.22011 0.0
C2786 C 0.7083 0.60793 0.2104 0.0
C2787 C 0.70387 0.62517 0.21808 0.0
C2788 C 0.71192 0.63535 0.23553 0.0
C2789 C 0.78759 0.71661 0.29058 0.0
C2790 C 0.7793 0.72966 0.28281 0.0
C2791 C 0.77841 0.69747 0.29086 0.0
C2792 C 0.76055 0.69034 0.28322 0.0
C2793 C 0.75231 0.70342 0.27559 0.0
C2794 C 0.76133 0.72255 0.27559 0.0
C2795 C 0.75053 0.66948 0.28276 0.0
C2796 C 0.74184 0.65823 0.26572 0.0
C2797 C 0.74929 0.66047 0.29883 0.0
C2798 C 0.75601 0.67154 0.31782 0.0
C2799 C 0.75049 0.68855 0.32462 0.0
C2800 C 0.75636 0.69864 0.34276 0.0
C2801 C 0.76764 0.69177 0.35432 0.0
C2802 C 0.77307 0.6748 0.34776 0.0
C2803 C 0.76727 0.66468 0.32961 0.0
H2804 H 0.77211 0.69956 0.36838 0.0
H2805 H 0.70201 0.60005 0.19692 0.0
H2806 H 0.86879 0.50127 0.78377 0.0
H2807 H 0.84902 0.47043 0.78414 0.0
H2808 H 0.89163 0.45196 0.81177 0.0
H2809 H 0.91159 0.48257 0.81107 0.0
H2810 H 0.87457 0.4264 0.78141 0.0
H2811 H 0.85946 0.46519 0.83662 0.0
H2812 H 0.85045 0.49394 0.8529 0.0
H2813 H 0.80166 0.47929 0.81733 0.0
H2814 H 0.81048 0.45056 0.80067 0.0
H2815 H 0.83388 0.34281 0.80189 0.0
H2816 H 0.84669 0.37697 0.81117 0.0
H2817 H 0.80242 0.38982 0.78065 0.0
H2818 H 0.78899 0.35538 0.77231 0.0
H2819 H 0.81843 0.41894 0.81266 0.0
H2820 H 0.83404 0.38171 0.75644 0.0
H2821 H 0.84268 0.35302 0.73987 0.0
H2822 H 0.89074 0.3656 0.77635 0.0
H2823 H 0.88217 0.39427 0.7935 0.0
C2824 C 0.87388 0.49059 0.78991 0.0
C2825 C 0.89157 0.49408 0.7974 0.0
C2826 C 0.8626 0.47316 0.79022 0.0
C2827 C 0.86894 0.45932 0.79828 0.0
C2828 C 0.88664 0.46271 0.80563 0.0
C2829 C 0.89797 0.48005 0.80515 0.0
C2830 C 0.85735 0.44079 0.79816 0.0
C2831 C 0.86242 0.42474 0.78843 0.0
C2832 C 0.8413 0.43897 0.80685 0.0
C2833 C 0.83567 0.45579 0.81734 0.0
C2834 C 0.84682 0.46813 0.83224 0.0
C2835 C 0.84176 0.48442 0.84153 0.0
C2836 C 0.8255 0.48846 0.83614 0.0
C2837 C 0.81424 0.47614 0.8215 0.0
C2838 C 0.81925 0.45983 0.81216 0.0
C2839 C 0.82658 0.35304 0.79795 0.0
C2840 C 0.81043 0.34696 0.78691 0.0
C2841 C 0.83381 0.37239 0.80322 0.0
C2842 C 0.82544 0.38564 0.79644 0.0
C2843 C 0.80883 0.37964 0.78611 0.0
C2844 C 0.80138 0.36016 0.78115 0.0
C2845 C 0.83597 0.40466 0.79633 0.0
C2846 C 0.83062 0.42072 0.80574 0.0
C2847 C 0.85179 0.40666 0.7872 0.0
C2848 C 0.85744 0.39007 0.77627 0.0
C2849 C 0.84645 0.37836 0.76092 0.0
C2850 C 0.85133 0.36207 0.75144 0.0
C2851 C 0.86727 0.35746 0.757 0.0
C2852 C 0.87841 0.3692 0.77204 0.0
C2853 C 0.87356 0.38549 0.78165 0.0
H2854 H 0.87103 0.34481 0.74969 0.0
H2855 H 0.82163 0.50111 0.84331 0.0
H2856 H 0.05071 0.8571 0.09426 0.0
H2857 H 0.0488 0.88661 0.083 0.0
H2858 H 0.1038 0.89489 0.07187 0.0
H2859 H 0.10577 0.86507 0.08324 0.0
H2860 H 0.09662 0.92942 0.0873 0.0
H2861 H 0.07107 0.88104 0.03566 0.0
H2862 H 0.05182 0.85107 0.01847 0.0
H2863 H 0.00556 0.87229 0.03366 0.0
H2864 H 0.02455 0.90231 0.05118 0.0
H2865 H 0.08094 0.99872 0.02598 0.0
H2866 H 0.08548 0.9678 0.03305 0.0
H2867 H 0.04591 0.96847 0.0726 0.0
H2868 H 0.04243 0.99992 0.06661 0.0
H2869 H 0.04773 0.92939 0.04015 0.0
H2870 H 0.07604 0.97737 0.09504 0.0
H2871 H 0.0968 0.00745 0.10961 0.0
H2872 H 0.14 0.98657 0.08489 0.0
H2873 H 0.1194 0.95644 0.06989 0.0
C2874 C 0.06245 0.86503 0.08931 0.0
C2875 C 0.07837 0.85833 0.08962 0.0
C2876 C 0.06132 0.88207 0.08279 0.0
C2877 C 0.07607 0.89329 0.07629 0.0
C2878 C 0.09211 0.88676 0.07672 0.0
C2879 C 0.09321 0.86952 0.08315 0.0
C2880 C 0.07445 0.91157 0.0691 0.0
C2881 C 0.08602 0.92923 0.07683 0.0
C2882 C 0.06074 0.91187 0.05531 0.0
C2883 C 0.04924 0.89384 0.04489 0.0
C2884 C 0.05679 0.87925 0.03548 0.0
C2885 C 0.04593 0.86227 0.02565 0.0
C2886 C 0.02748 0.85976 0.02502 0.0
C2887 C 0.01986 0.87425 0.03418 0.0
C2888 C 0.03066 0.89126 0.04406 0.0
C2889 C 0.07277 0.99196 0.03571 0.0
C2890 C 0.06057 1.00148 0.04497 0.0
C2891 C 0.07556 0.97434 0.03996 0.0
C2892 C 0.06604 0.96552 0.0534 0.0
C2893 C 0.05344 0.97472 0.06215 0.0
C2894 C 0.05119 0.99264 0.05844 0.0
C2895 C 0.06948 0.94712 0.05879 0.0
C2896 C 0.05831 0.92947 0.05061 0.0
C2897 C 0.08369 0.94683 0.07193 0.0
C2898 C 0.09612 0.96481 0.08106 0.0
C2899 C 0.08992 0.97929 0.09249 0.0
C2900 C 0.10167 0.99632 0.1009 0.0
C2901 C 0.11971 0.99894 0.09813 0.0
C2902 C 0.12603 0.98451 0.087 0.0
C2903 C 0.11431 0.96746 0.07854 0.0
H2904 H 0.12879 0.01213 0.10465 0.0
H2905 H 0.01909 0.8466 0.01738 0.0
H2906 H 0.97414 0.26165 0.86884 0.0
H2907 H 0.94637 0.26566 0.85373 0.0
H2908 H 0.92554 0.27483 0.90763 0.0
H2909 H 0.95321 0.27036 0.92274 0.0
H2910 H 0.89891 0.25544 0.88332 0.0
H2911 H 0.94197 0.31304 0.88302 0.0
H2912 H 0.97049 0.33249 0.87692 0.0
H2913 H 0.95964 0.30966 0.81797 0.0
H2914 H 0.93112 0.28993 0.82375 0.0
H2915 H 0.8259 0.29142 0.84675 0.0
H2916 H 0.85201 0.28676 0.86457 0.0
H2917 H 0.87979 0.28431 0.81453 0.0
H2918 H 0.85488 0.29158 0.79773 0.0
H2919 H 0.90263 0.30086 0.83897 0.0
H2920 H 0.8589 0.2423 0.83997 0.0
H2921 H 0.82999 0.22438 0.84697 0.0
H2922 H 0.84153 0.24998 0.90525 0.0
H2923 H 0.87045 0.26816 0.89856 0.0
C2924 C 0.96364 0.26439 0.87753 0.0
C2925 C 0.96619 0.26569 0.89714 0.0
C2926 C 0.94765 0.26685 0.86883 0.0
C2927 C 0.93358 0.27099 0.87937 0.0
C2928 C 0.93593 0.27174 0.89893 0.0
C2929 C 0.95192 0.2692 0.90763 0.0
C2930 C 0.9168 0.27499 0.8701 0.0
C2931 C 0.8998 0.26549 0.87372 0.0
C2932 C 0.91745 0.288 0.85738 0.0
C2933 C 0.93451 0.2999 0.85384 0.0
C2934 C 0.94572 0.3121 0.86877 0.0
C2935 C 0.96187 0.32318 0.86537 0.0
C2936 C 0.96689 0.32227 0.84708 0.0
C2937 C 0.95574 0.31033 0.83214 0.0
C2938 C 0.93958 0.29922 0.83546 0.0
C2939 C 0.83757 0.28991 0.83949 0.0
C2940 C 0.8376 0.29102 0.82024 0.0
C2941 C 0.8526 0.2869 0.84974 0.0
C2942 C 0.86815 0.28433 0.84104 0.0
C2943 C 0.86821 0.28585 0.82192 0.0
C2944 C 0.85347 0.28947 0.81193 0.0
C2945 C 0.88458 0.28082 0.85158 0.0
C2946 C 0.90161 0.29058 0.84834 0.0
C2947 C 0.88388 0.26806 0.86465 0.0
C2948 C 0.86677 0.25668 0.86874 0.0
C2949 C 0.85526 0.2441 0.85427 0.0
C2950 C 0.83887 0.23392 0.85818 0.0
C2951 C 0.83391 0.23608 0.87654 0.0
C2952 C 0.84538 0.24833 0.89104 0.0
C2953 C 0.86178 0.25855 0.8872 0.0
H2954 H 0.82119 0.22824 0.87952 0.0
H2955 H 0.97941 0.33086 0.84447 0.0
H2956 H 0.54476 0.24429 0.59627 0.0
H2957 H 0.53976 0.20978 0.58511 0.0
H2958 H 0.5921 0.21677 0.56583 0.0
H2959 H 0.5971 0.25163 0.57677 0.0
H2960 H 0.56692 0.18838 0.54104 0.0
H2961 H 0.58343 0.20357 0.6094 0.0
H2962 H 0.57861 0.21756 0.64165 0.0
H2963 H 0.52558 0.1833 0.63487 0.0
H2964 H 0.53004 0.16924 0.60256 0.0
H2965 H 0.56199 0.08668 0.5272 0.0
H2966 H 0.57038 0.12141 0.53327 0.0
H2967 H 0.53678 0.12232 0.57918 0.0
H2968 H 0.53384 0.08848 0.5768 0.0
H2969 H 0.55572 0.14915 0.59049 0.0
H2970 H 0.53336 0.13581 0.52379 0.0
H2971 H 0.53341 0.12173 0.49039 0.0
H2972 H 0.5877 0.15097 0.49072 0.0
H2973 H 0.58802 0.16503 0.52417 0.0
C2974 C 0.5552 0.2386 0.58947 0.0
C2975 C 0.57142 0.2509 0.5876 0.0
C2976 C 0.55232 0.21872 0.58312 0.0
C2977 C 0.56564 0.21037 0.57487 0.0
C2978 C 0.58158 0.22269 0.57219 0.0
C2979 C 0.58446 0.24269 0.5785 0.0
C2980 C 0.56329 0.18885 0.57025 0.0
C2981 C 0.56435 0.17966 0.55179 0.0
C2982 C 0.55946 0.17722 0.58399 0.0
C2983 C 0.55706 0.18544 0.60357 0.0
C2984 C 0.57075 0.19907 0.61479 0.0
C2985 C 0.56807 0.207 0.63307 0.0
C2986 C 0.55179 0.20134 0.64029 0.0
C2987 C 0.53818 0.18767 0.62927 0.0
C2988 C 0.54079 0.17969 0.611 0.0
C2989 C 0.55772 0.09442 0.53948 0.0
C2990 C 0.54873 0.08447 0.55243 0.0
C2991 C 0.56157 0.11466 0.5424 0.0
C2992 C 0.55429 0.12565 0.55683 0.0
C2993 C 0.54363 0.11522 0.56848 0.0
C2994 C 0.54158 0.09536 0.56685 0.0
C2995 C 0.55775 0.14761 0.56061 0.0
C2996 C 0.55744 0.15721 0.5792 0.0
C2997 C 0.56112 0.15939 0.54666 0.0
C2998 C 0.56074 0.15133 0.52648 0.0
C2999 C 0.54528 0.13923 0.51671 0.0
C3000 C 0.54526 0.13124 0.49779 0.0
C3001 C 0.56054 0.13545 0.48844 0.0
C3002 C 0.57587 0.14771 0.49798 0.0
C3003 C 0.57598 0.1557 0.51691 0.0
H3004 H 0.5605 0.12921 0.4738 0.0
H3005 H 0.54973 0.20753 0.65442 0.0
H3006 H 0.58109 0.77079 0.42626 0.0
H3007 H 0.60947 0.77196 0.41247 0.0
H3008 H 0.58414 0.77494 0.35901 0.0
H3009 H 0.55561 0.77315 0.37269 0.0
H3010 H 0.6052 0.75146 0.3531 0.0
H3011 H 0.61455 0.81514 0.39313 0.0
H3012 H 0.61699 0.83681 0.42368 0.0
H3013 H 0.65765 0.81133 0.44481 0.0
H3014 H 0.6553 0.78938 0.41447 0.0
H3015 H 0.67419 0.78412 0.30016 0.0
H3016 H 0.6492 0.77779 0.31876 0.0
H3017 H 0.68505 0.78118 0.36737 0.0
H3018 H 0.71053 0.78858 0.34858 0.0
H3019 H 0.66075 0.79811 0.37928 0.0
H3020 H 0.65484 0.73691 0.34319 0.0
H3021 H 0.6535 0.71146 0.31566 0.0
H3022 H 0.60793 0.7267 0.29088 0.0
H3023 H 0.60912 0.7524 0.31816 0.0
C3024 C 0.58152 0.77178 0.41156 0.0
C3025 C 0.56586 0.77194 0.40068 0.0
C3026 C 0.59794 0.7726 0.40364 0.0
C3027 C 0.59941 0.77392 0.38458 0.0
C3028 C 0.5837 0.77401 0.37372 0.0
C3029 C 0.56726 0.77303 0.3816 0.0
C3030 C 0.61691 0.77459 0.37564 0.0
C3031 C 0.61723 0.76194 0.35874 0.0
C3032 C 0.63324 0.78723 0.38341 0.0
C3033 C 0.63463 0.80052 0.40158 0.0
C3034 C 0.62393 0.8141 0.40433 0.0
C3035 C 0.62531 0.82643 0.4216 0.0
C3036 C 0.63744 0.82542 0.43619 0.0
C3037 C 0.64825 0.81209 0.43352 0.0
C3038 C 0.6469 0.79971 0.41628 0.0
C3039 C 0.67688 0.7832 0.31474 0.0
C3040 C 0.69458 0.7868 0.32267 0.0
C3041 C 0.66239 0.77942 0.32549 0.0
C3042 C 0.66479 0.77862 0.34469 0.0
C3043 C 0.68251 0.78162 0.35265 0.0
C3044 C 0.69719 0.78559 0.3418 0.0
C3045 C 0.64876 0.77562 0.35617 0.0
C3046 C 0.64873 0.78767 0.37357 0.0
C3047 C 0.63281 0.76193 0.34927 0.0
C3048 C 0.63217 0.7467 0.33267 0.0
C3049 C 0.64463 0.73495 0.3318 0.0
C3050 C 0.64387 0.72045 0.31625 0.0
C3051 C 0.63066 0.71749 0.30151 0.0
C3052 C 0.61817 0.72902 0.3023 0.0
C3053 C 0.61886 0.74354 0.31782 0.0
H3054 H 0.63009 0.70625 0.2895 0.0
H3055 H 0.63849 0.83499 0.44954 0.0
H3056 H 0.10591 0.25476 0.39719 0.0
H3057 H 0.10213 0.22615 0.41176 0.0
H3058 H 0.07364 0.25295 0.45441 0.0
H3059 H 0.07781 0.28156 0.44032 0.0
H3060 H 0.0983 0.23769 0.46935 0.0
H3061 H 0.0524 0.21751 0.41595 0.0
H3062 H 0.04355 0.21121 0.38193 0.0
H3063 H 0.07745 0.171 0.37294 0.0
H3064 H 0.08659 0.17718 0.40692 0.0
H3065 H 0.04412 0.17353 0.5129 0.0
H3066 H 0.05731 0.19661 0.49433 0.0
H3067 H 0.07706 0.15288 0.45909 0.0
H3068 H 0.06271 0.12919 0.47669 0.0
H3069 H 0.06435 0.17351 0.43793 0.0
H3070 H 0.10596 0.18965 0.49228 0.0
H3071 H 0.11644 0.19734 0.52595 0.0
H3072 H 0.09236 0.24618 0.5329 0.0
H3073 H 0.08165 0.23871 0.49934 0.0
C3074 C 0.09887 0.25448 0.4097 0.0
C3075 C 0.09222 0.27035 0.41774 0.0
C3076 C 0.09666 0.23813 0.41793 0.0
C3077 C 0.08755 0.23743 0.43411 0.0
C3078 C 0.08081 0.25325 0.44198 0.0
C3079 C 0.08318 0.26958 0.43393 0.0
C3080 C 0.08513 0.22056 0.44342 0.0
C3081 C 0.09083 0.22364 0.46252 0.0
C3082 C 0.07621 0.20205 0.43422 0.0
C3083 C 0.07025 0.19789 0.41392 0.0
C3084 C 0.05797 0.20734 0.4067 0.0
C3085 C 0.05291 0.2038 0.38744 0.0
C3086 C 0.05996 0.19074 0.37528 0.0
C3087 C 0.072 0.18111 0.38238 0.0
C3088 C 0.0771 0.1846 0.40164 0.0
C3089 C 0.051 0.16858 0.50107 0.0
C3090 C 0.05195 0.14922 0.49629 0.0
C3091 C 0.05889 0.18198 0.49064 0.0
C3092 C 0.0685 0.1766 0.47549 0.0
C3093 C 0.06979 0.15741 0.47077 0.0
C3094 C 0.06163 0.14387 0.48104 0.0
C3095 C 0.07647 0.19101 0.4643 0.0
C3096 C 0.07208 0.18741 0.44478 0.0
C3097 C 0.08668 0.20915 0.47309 0.0
C3098 C 0.09296 0.21356 0.49332 0.0
C3099 C 0.10282 0.20195 0.50103 0.0
C3100 C 0.10882 0.2063 0.52008 0.0
C3101 C 0.10505 0.22223 0.53156 0.0
C3102 C 0.09529 0.23386 0.524 0.0
C3103 C 0.08929 0.22961 0.50496 0.0
H3104 H 0.10971 0.22557 0.5463 0.0
H3105 H 0.05606 0.18805 0.36037 0.0
H3106 H 0.56182 0.29189 0.20388 0.0
H3107 H 0.59289 0.29098 0.2122 0.0
H3108 H 0.58801 0.24025 0.17 0.0
H3109 H 0.55728 0.24125 0.16141 0.0
H3110 H 0.60321 0.23936 0.20787 0.0
H3111 H 0.60843 0.27698 0.15836 0.0
H3112 H 0.60201 0.30377 0.14421 0.0
H3113 H 0.62939 0.34388 0.19228 0.0
H3114 H 0.63573 0.31727 0.20684 0.0
H3115 H 0.68927 0.22927 0.21784 0.0
H3116 H 0.66281 0.23291 0.19985 0.0
H3117 H 0.67113 0.29181 0.22801 0.0
H3118 H 0.6985 0.2885 0.24457 0.0
H3119 H 0.65394 0.28866 0.19555 0.0
H3120 H 0.64673 0.25381 0.24657 0.0
H3121 H 0.65178 0.22858 0.26388 0.0
H3122 H 0.62656 0.18532 0.21705 0.0
H3123 H 0.62163 0.21034 0.19935 0.0
C3124 C 0.56743 0.28056 0.19647 0.0
C3125 C 0.55731 0.26671 0.18198 0.0
C3126 C 0.58509 0.2801 0.20114 0.0
C3127 C 0.59261 0.26563 0.19155 0.0
C3128 C 0.58237 0.25155 0.17743 0.0
C3129 C 0.56489 0.25219 0.17255 0.0
C3130 C 0.61115 0.26492 0.19633 0.0
C3131 C 0.61434 0.24994 0.20495 0.0
C3132 C 0.62547 0.27908 0.19288 0.0
C3133 C 0.62246 0.29513 0.18374 0.0
C3134 C 0.61304 0.29151 0.16593 0.0
C3135 C 0.60941 0.30666 0.15784 0.0
C3136 C 0.61526 0.32552 0.16735 0.0
C3137 C 0.62486 0.32927 0.18493 0.0
C3138 C 0.6285 0.31415 0.19309 0.0
C3139 C 0.6856 0.24307 0.21976 0.0
C3140 C 0.69536 0.25848 0.23295 0.0
C3141 C 0.67055 0.24517 0.20953 0.0
C3142 C 0.66458 0.26239 0.2132 0.0
C3143 C 0.6753 0.2783 0.22514 0.0
C3144 C 0.69075 0.27638 0.23478 0.0
C3145 C 0.64612 0.26291 0.20705 0.0
C3146 C 0.64287 0.27791 0.19829 0.0
C3147 C 0.6316 0.24899 0.21075 0.0
C3148 C 0.63393 0.23392 0.2216 0.0
C3149 C 0.64228 0.23891 0.23997 0.0
C3150 C 0.64515 0.22465 0.24983 0.0
C3151 C 0.63952 0.20536 0.24156 0.0
C3152 C 0.63093 0.20027 0.22343 0.0
C3153 C 0.62809 0.21448 0.21348 0.0
H3154 H 0.64178 0.19434 0.2492 0.0
H3155 H 0.61239 0.33723 0.1611 0.0
H3156 H 0.62118 0.87725 0.94049 0.0
H3157 H 0.616 0.90865 0.95444 0.0
H3158 H 0.5875 0.91139 0.90247 0.0
H3159 H 0.5936 0.88102 0.88828 0.0
H3160 H 0.60158 0.94502 0.91726 0.0
H3161 H 0.56623 0.89236 0.93839 0.0
H3162 H 0.55956 0.86304 0.95205 0.0
H3163 H 0.58742 0.89382 0.00446 0.0
H3164 H 0.59446 0.92331 0.99102 0.0
H3165 H 0.54025 0.99891 0.95318 0.0
H3166 H 0.55143 0.97071 0.94058 0.0
H3167 H 0.59135 0.98373 0.98743 0.0
H3168 H 0.58011 0.01181 1.00026 0.0
H3169 H 0.57204 0.94308 0.9763 0.0
H3170 H 0.6066 0.99679 0.94784 0.0
H3171 H 0.60323 0.02417 0.93276 0.0
H3172 H 0.56471 0.98665 0.89104 0.0
H3173 H 0.56826 0.95904 0.90557 0.0
C3174 C 0.6143 0.8849 0.93197 0.0
C3175 C 0.60753 0.87665 0.91348 0.0
C3176 C 0.61125 0.90272 0.93993 0.0
C3177 C 0.60093 0.91204 0.92963 0.0
C3178 C 0.59545 0.90446 0.91071 0.0
C3179 C 0.59889 0.887 0.90264 0.0
C3180 C 0.59409 0.92845 0.93889 0.0
C3181 C 0.59523 0.94454 0.9302 0.0
C3182 C 0.58523 0.92766 0.95546 0.0
C3183 C 0.58108 0.90997 0.96363 0.0
C3184 C 0.57106 0.89284 0.95279 0.0
C3185 C 0.56719 0.8762 0.96049 0.0
C3186 C 0.57312 0.87655 0.97909 0.0
C3187 C 0.58288 0.89357 0.99004 0.0
C3188 C 0.58681 0.91025 0.98239 0.0
C3189 C 0.55126 0.9957 0.96092 0.0
C3190 C 0.55894 0.00719 0.97805 0.0
C3191 C 0.55762 0.9796 0.9537 0.0
C3192 C 0.57209 0.97523 0.96322 0.0
C3193 C 0.57997 0.98681 0.98013 0.0
C3194 C 0.57351 1.00277 0.98743 0.0
C3195 C 0.5799 0.9594 0.95481 0.0
C3196 C 0.57881 0.94351 0.9636 0.0
C3197 C 0.58792 0.95987 0.93785 0.0
C3198 C 0.58786 0.97589 0.92762 0.0
C3199 C 0.59772 0.99438 0.93521 0.0
C3200 C 0.5957 0.00993 0.92683 0.0
C3201 C 0.58373 0.00715 0.91099 0.0
C3202 C 0.57398 0.98878 0.90331 0.0
C3203 C 0.57617 0.97314 0.91144 0.0
H3204 H 0.58205 0.01921 0.90461 0.0
H3205 H 0.5701 0.86366 0.98504 0.0
H3206 H 0.94408 0.74195 0.66483 0.0
H3207 H 0.91534 0.7373 0.67768 0.0
H3208 H 0.93799 0.7785 0.72744 0.0
H3209 H 0.96714 0.78274 0.71487 0.0
H3210 H 0.91487 0.74665 0.73488 0.0
H3211 H 0.91637 0.79074 0.68969 0.0
H3212 H 0.91975 0.79805 0.65789 0.0
H3213 H 0.87668 0.75069 0.63541 0.0
H3214 H 0.87324 0.74291 0.66701 0.0
H3215 H 0.83663 0.76531 0.77142 0.0
H3216 H 0.86603 0.76881 0.75954 0.0
H3217 H 0.84173 0.73837 0.70491 0.0
H3218 H 0.81246 0.73735 0.71628 0.0
H3219 H 0.86584 0.76414 0.69936 0.0
H3220 H 0.86259 0.71755 0.73896 0.0
H3221 H 0.85727 0.70511 0.76825 0.0
H3222 H 0.90084 0.74845 0.79752 0.0
H3223 H 0.90621 0.76141 0.76849 0.0
C3224 C 0.94294 0.75001 0.67853 0.0
C3225 C 0.95765 0.76299 0.68879 0.0
C3226 C 0.92656 0.74729 0.68583 0.0
C3227 C 0.92458 0.75788 0.70326 0.0
C3228 C 0.93937 0.77033 0.71387 0.0
C3229 C 0.9559 0.77282 0.70669 0.0
C3230 C 0.90693 0.75664 0.71009 0.0
C3231 C 0.90414 0.75062 0.72726 0.0
C3232 C 0.89283 0.761 0.69959 0.0
C3233 C 0.89463 0.76618 0.68071 0.0
C3234 C 0.90766 0.78186 0.67796 0.0
C3235 C 0.90959 0.78607 0.65996 0.0
C3236 C 0.89845 0.77482 0.64464 0.0
C3237 C 0.88531 0.75939 0.64729 0.0
C3238 C 0.88336 0.75508 0.66523 0.0
C3239 C 0.83775 0.75996 0.75679 0.0
C3240 C 0.82263 0.75184 0.74447 0.0
C3241 C 0.85444 0.76156 0.75009 0.0
C3242 C 0.85608 0.75361 0.73138 0.0
C3243 C 0.8408 0.7448 0.71932 0.0
C3244 C 0.82416 0.74405 0.72581 0.0
C3245 C 0.87366 0.75417 0.7243 0.0
C3246 C 0.87647 0.76007 0.70704 0.0
C3247 C 0.88749 0.74877 0.73427 0.0
C3248 C 0.88474 0.74053 0.75157 0.0
C3249 C 0.87102 0.72445 0.75165 0.0
C3250 C 0.86798 0.71733 0.76821 0.0
C3251 C 0.8787 0.72599 0.78473 0.0
C3252 C 0.89254 0.74176 0.78471 0.0
C3253 C 0.8956 0.749 0.7682 0.0
H3254 H 0.8763 0.72048 0.79755 0.0
H3255 H 0.89999 0.77809 0.63072 0.0
H3256 H 0.16773 0.02603 0.84394 0.0
H3257 H 0.15453 0.02984 0.87398 0.0
H3258 H 0.10262 0.00624 0.84526 0.0
H3259 H 0.11592 1.00249 0.81505 0.0
H3260 H 0.09758 0.0327 0.8724 0.0
H3261 H 0.12809 0.98229 0.87623 0.0
H3262 H 0.15322 0.96603 0.87566 0.0
H3263 H 0.18201 0.0098 0.92025 0.0
H3264 H 0.15714 0.02645 0.92093 0.0
H3265 H 0.05436 0.02567 0.95787 0.0
H3266 H 0.06683 0.01982 0.92782 0.0
H3267 H 0.11953 0.03959 0.95563 0.0
H3268 H 0.10693 0.04452 0.986 0.0
H3269 H 0.12375 0.01448 0.92866 0.0
H3270 H 0.09357 0.06542 0.92429 0.0
H3271 H 0.06787 0.08081 0.92594 0.0
H3272 H 0.0383 0.03577 0.88294 0.0
H3273 H 0.06377 0.01998 0.88119 0.0
C3274 C 0.15347 0.02147 0.8438 0.0
C3275 C 0.14324 0.01376 0.82634 0.0
C3276 C 0.14575 0.02359 0.8614 0.0
C3277 C 0.12718 0.01818 0.86288 0.0
C3278 C 0.11689 0.01067 0.84537 0.0
C3279 C 0.12465 0.0084 0.82773 0.0
C3280 C 0.11871 0.02054 0.88228 0.0
C3281 C 0.10336 0.0284 0.8845 0.0
C3282 C 0.12578 0.01555 0.899 0.0
C3283 C 0.14084 0.00574 0.89847 0.0
C3284 C 0.13985 0.98854 0.88579 0.0
C3285 C 0.15403 0.97923 0.88547 0.0
C3286 C 0.16922 0.98691 0.89786 0.0
C3287 C 0.17025 1.00389 0.91063 0.0
C3288 C 0.15611 0.01327 0.91099 0.0
C3289 C 0.06861 0.02871 0.95792 0.0
C3290 C 0.07925 0.03563 0.97522 0.0
C3291 C 0.07596 0.02557 0.94021 0.0
C3292 C 0.09456 0.02957 0.93837 0.0
C3293 C 0.10523 0.03626 0.95572 0.0
C3294 C 0.09785 0.03922 0.97348 0.0
C3295 C 0.10274 0.02682 0.91884 0.0
C3296 C 0.11801 0.01885 0.91658 0.0
C3297 C 0.09564 0.03175 0.90211 0.0
C3298 C 0.08052 0.04146 0.9027 0.0
C3299 C 0.08157 0.05879 0.9152 0.0
C3300 C 0.06704 0.06757 0.91617 0.0
C3301 C 0.05145 0.05925 0.90458 0.0
C3302 C 0.05038 0.04219 0.89192 0.0
C3303 C 0.06487 0.03333 0.89091 0.0
H3304 H 0.0402 0.06605 0.90538 0.0
H3305 H 0.18018 0.97967 0.89761 0.0
H3306 H 0.81139 0.37475 0.55429 0.0
H3307 H 0.81253 0.36392 0.58443 0.0
H3308 H 0.81972 0.42225 0.61365 0.0
H3309 H 0.81878 0.43323 0.58368 0.0
H3310 H 0.84073 0.39903 0.62961 0.0
H3311 H 0.7801 0.39857 0.60862 0.0
H3312 H 0.75637 0.39073 0.58269 0.0
H3313 H 0.75678 0.33098 0.57767 0.0
H3314 H 0.78074 0.33851 0.6034 0.0
H3315 H 0.82739 0.3663 0.71277 0.0
H3316 H 0.81911 0.38428 0.68916 0.0
H3317 H 0.80273 0.33147 0.64907 0.0
H3318 H 0.81038 0.31357 0.67285 0.0
H3319 H 0.78456 0.35664 0.64074 0.0
H3320 H 0.84637 0.35574 0.65636 0.0
H3321 H 0.87417 0.36179 0.67689 0.0
H3322 H 0.8743 0.42184 0.68864 0.0
H3323 H 0.84644 0.41612 0.66822 0.0
C3324 C 0.81329 0.38523 0.56714 0.0
C3325 C 0.81458 0.40472 0.56676 0.0
C3326 C 0.81405 0.37908 0.58426 0.0
C3327 C 0.81596 0.39235 0.60107 0.0
C3328 C 0.81819 0.4119 0.60073 0.0
C3329 C 0.81745 0.41806 0.58364 0.0
C3330 C 0.81385 0.3856 0.6189 0.0
C3331 C 0.82838 0.39012 0.63234 0.0
C3332 C 0.79774 0.37384 0.62206 0.0
C3333 C 0.78213 0.36909 0.60798 0.0
C3334 C 0.77502 0.38374 0.60208 0.0
C3335 C 0.7616 0.37937 0.58737 0.0
C3336 C 0.75505 0.36036 0.57856 0.0
C3337 C 0.76182 0.34568 0.58456 0.0
C3338 C 0.77529 0.34999 0.59924 0.0
C3339 C 0.8212 0.35858 0.69917 0.0
C3340 C 0.81952 0.33872 0.69437 0.0
C3341 C 0.81659 0.3688 0.68571 0.0
C3342 C 0.8108 0.35921 0.66728 0.0
C3343 C 0.80724 0.33912 0.66319 0.0
C3344 C 0.81161 0.32891 0.67672 0.0
C3345 C 0.81159 0.36983 0.65161 0.0
C3346 C 0.79678 0.36604 0.63843 0.0
C3347 C 0.8276 0.38206 0.64854 0.0
C3348 C 0.84419 0.38546 0.66103 0.0
C3349 C 0.85224 0.3702 0.66346 0.0
C3350 C 0.86802 0.37357 0.67505 0.0
C3351 C 0.87592 0.39216 0.68418 0.0
C3352 C 0.86811 0.40744 0.68165 0.0
C3353 C 0.85234 0.40414 0.67006 0.0
H3354 H 0.88813 0.39473 0.69313 0.0
H3355 H 0.74475 0.35702 0.56708 0.0
H3356 H 0.47189 0.03812 0.34065 0.0
H3357 H 0.48245 0.03147 0.3707 0.0
H3358 H 0.43211 0.03582 0.39226 0.0
H3359 H 0.42158 0.04277 0.36251 0.0
H3360 H 0.4599 0.06129 0.41181 0.0
H3361 H 0.44374 0.99472 0.39115 0.0
H3362 H 0.44029 0.96402 0.36934 0.0
H3363 H 0.49692 0.97099 0.37113 0.0
H3364 H 0.50075 1.00188 0.39278 0.0
H3365 H 0.50048 0.05581 0.49904 0.0
H3366 H 0.4809 0.0515 0.47089 0.0
H3367 H 0.5229 0.03881 0.43712 0.0
H3368 H 0.54196 0.04094 0.46567 0.0
H3369 H 0.49317 0.01293 0.42621 0.0
H3370 H 0.50801 0.08308 0.44078 0.0
H3371 H 0.51103 0.11393 0.46234 0.0
H3372 H 0.45584 0.09941 0.47159 0.0
H3373 H 0.45249 0.06851 0.44997 0.0
C3374 C 0.4631 0.03754 0.35179 0.0
C3375 C 0.44621 0.04151 0.34959 0.0
C3376 C 0.46897 0.03338 0.36873 0.0
C3377 C 0.4579 0.03299 0.38344 0.0
C3378 C 0.4407 0.03596 0.38091 0.0
C3379 C 0.43488 0.04025 0.36407 0.0
C3380 C 0.46563 0.03352 0.40231 0.0
C3381 C 0.46681 0.05049 0.41519 0.0
C3382 C 0.47469 0.01947 0.40638 0.0
C3383 C 0.47253 1.00072 0.39356 0.0
C3384 C 0.45548 0.98978 0.38682 0.0
C3385 C 0.45345 0.97232 0.3745 0.0
C3386 C 0.46838 0.96557 0.36883 0.0
C3387 C 0.48536 0.97624 0.37555 0.0
C3388 C 0.48747 0.99371 0.38789 0.0
C3389 C 0.50563 0.05234 0.48561 0.0
C3390 C 0.52259 0.04834 0.48444 0.0
C3391 C 0.49446 0.05002 0.46953 0.0
C3392 C 0.50051 0.04489 0.45198 0.0
C3393 C 0.51804 0.04264 0.45066 0.0
C3394 C 0.52906 0.04427 0.46691 0.0
C3395 C 0.48824 0.04119 0.43509 0.0
C3396 C 0.48605 0.02355 0.42285 0.0
C3397 C 0.47819 0.05463 0.43148 0.0
C3398 C 0.48003 0.07351 0.44386 0.0
C3399 C 0.49653 0.08651 0.4474 0.0
C3400 C 0.4983 0.10398 0.45964 0.0
C3401 C 0.48366 0.1086 0.46839 0.0
C3402 C 0.46717 0.09582 0.46479 0.0
C3403 C 0.4653 0.07837 0.45248 0.0
H3404 H 0.48509 0.12209 0.47794 0.0
H3405 H 0.46678 0.95207 0.35925 0.0
H3406 H 0.78853 0.69072 0.07514 0.0
H3407 H 0.7909 0.70477 0.10842 0.0
H3408 H 0.81215 0.7605 0.0958 0.0
H3409 H 0.80962 0.74642 0.06212 0.0
H3410 H 0.82982 0.75177 0.12993 0.0
H3411 H 0.7717 0.75313 0.10407 0.0
H3412 H 0.7432 0.73912 0.08511 0.0
H3413 H 0.73134 0.69653 0.11989 0.0
H3414 H 0.75992 0.71013 0.1389 0.0
H3415 H 0.80951 0.79613 0.22331 0.0
H3416 H 0.81037 0.78968 0.18882 0.0
H3417 H 0.79071 0.72948 0.18795 0.0
H3418 H 0.79052 0.73574 0.22207 0.0
H3419 H 0.77317 0.74488 0.15994 0.0
H3420 H 0.83111 0.74241 0.18529 0.0
H3421 H 0.86048 0.75405 0.20306 0.0
H3422 H 0.87364 0.79727 0.16923 0.0
H3423 H 0.84416 0.78619 0.15151 0.0
C3424 C 0.79376 0.70597 0.07934 0.0
C3425 C 0.79869 0.71742 0.06578 0.0
C3426 C 0.79516 0.71401 0.09849 0.0
C3427 C 0.80165 0.73376 0.1048 0.0
C3428 C 0.80713 0.74523 0.0914 0.0
C3429 C 0.80554 0.73717 0.07209 0.0
C3430 C 0.80143 0.74226 0.12519 0.0
C3431 C 0.81742 0.75068 0.13643 0.0
C3432 C 0.78533 0.74053 0.13391 0.0
C3433 C 0.76798 0.73257 0.12282 0.0
C3434 C 0.76305 0.74071 0.10761 0.0
C3435 C 0.74689 0.73285 0.09686 0.0
C3436 C 0.73548 0.71692 0.10128 0.0
C3437 C 0.7402 0.70887 0.11649 0.0
C3438 C 0.75636 0.71666 0.12727 0.0
C3439 C 0.80496 0.78162 0.21565 0.0
C3440 C 0.79947 0.76649 0.22538 0.0
C3441 C 0.80569 0.77789 0.19597 0.0
C3442 C 0.8007 0.75902 0.18568 0.0
C3443 C 0.79464 0.74413 0.19543 0.0
C3444 C 0.79438 0.74776 0.21496 0.0
C3445 C 0.80154 0.75438 0.16481 0.0
C3446 C 0.7856 0.74646 0.15345 0.0
C3447 C 0.81773 0.75654 0.15613 0.0
C3448 C 0.83522 0.76369 0.16728 0.0
C3449 C 0.8401 0.75464 0.18186 0.0
C3450 C 0.85682 0.76107 0.19187 0.0
C3451 C 0.86889 0.77643 0.18732 0.0
C3452 C 0.86424 0.78542 0.17279 0.0
C3453 C 0.84752 0.77908 0.16277 0.0
H3454 H 0.88187 0.78131 0.19499 0.0
H3455 H 0.72298 0.71084 0.09293 0.0
H3456 H 0.14225 0.98223 0.702 0.0
H3457 H 0.12826 0.98431 0.67146 0.0
H3458 H 0.11941 0.03991 0.69455 0.0
H3459 H 0.13279 0.03743 0.72525 0.0
H3460 H 0.09275 0.02596 0.67073 0.0
H3461 H 0.15509 0.02509 0.65936 0.0
H3462 H 0.18108 0.01006 0.6581 0.0
H3463 H 0.14992 0.9599 0.62214 0.0
H3464 H 0.12377 0.97457 0.62332 0.0
H3465 H 0.06359 0.04612 0.58037 0.0
H3466 H 0.07619 0.04481 0.61134 0.0
H3467 H 0.10247 1.00089 0.58652 0.0
H3468 H 0.09317 0.00569 0.55583 0.0
H3469 H 0.12065 0.00885 0.6124 0.0
H3470 H 0.05875 1.00369 0.6232 0.0
H3471 H 0.03005 0.01372 0.62368 0.0
H3472 H 0.05495 0.06696 0.65941 0.0
H3473 H 0.0838 0.05731 0.65901 0.0
C3474 C 0.13735 0.99497 0.70075 0.0
C3475 C 0.13904 0.00964 0.7168 0.0
C3476 C 0.12936 0.99634 0.68281 0.0
C3477 C 0.12279 0.01264 0.67954 0.0
C3478 C 0.12417 0.02708 0.69575 0.0
C3479 C 0.13203 0.02565 0.71369 0.0
C3480 C 0.1146 0.01479 0.65977 0.0
C3481 C 0.09907 0.02227 0.65805 0.0
C3482 C 0.12169 0.00949 0.6423 0.0
C3483 C 0.13748 1.00087 0.64155 0.0
C3484 C 0.1538 0.01084 0.65124 0.0
C3485 C 0.16855 1.00238 0.65054 0.0
C3486 C 0.16714 0.98403 0.64008 0.0
C3487 C 0.151 0.9741 0.63025 0.0
C3488 C 0.13623 0.98249 0.63091 0.0
C3489 C 0.07266 0.03684 0.58128 0.0
C3490 C 0.07768 0.02696 0.56455 0.0
C3491 C 0.07953 0.03527 0.59968 0.0
C3492 C 0.09059 0.02224 0.60285 0.0
C3493 C 0.09462 0.01156 0.58595 0.0
C3494 C 0.08882 0.01416 0.56771 0.0
C3495 C 0.09829 0.01972 0.62289 0.0
C3496 C 0.11392 0.01233 0.62479 0.0
C3497 C 0.09073 0.02419 0.64038 0.0
C3498 C 0.07342 0.02987 0.64091 0.0
C3499 C 0.05807 0.01754 0.63114 0.0
C3500 C 0.0418 0.02316 0.63138 0.0
C3501 C 0.0407 0.04099 0.64152 0.0
C3502 C 0.05584 0.05318 0.65153 0.0
C3503 C 0.07214 0.04764 0.65131 0.0
H3504 H 0.0281 0.04534 0.64165 0.0
H3505 H 0.17857 0.97751 0.63957 0.0
H3506 H 0.83292 0.42336 0.45598 0.0
H3507 H 0.83924 0.40707 0.42567 0.0
H3508 H 0.80864 0.35358 0.43613 0.0
H3509 H 0.80262 0.36971 0.46673 0.0
H3510 H 0.84012 0.34967 0.42277 0.0
H3511 H 0.79152 0.37962 0.40826 0.0
H3512 H 0.77706 0.40697 0.40831 0.0
H3513 H 0.81838 0.43394 0.37812 0.0
H3514 H 0.83325 0.40686 0.37816 0.0
H3515 H 0.80826 0.29357 0.33309 0.0
H3516 H 0.81332 0.31212 0.36501 0.0
H3517 H 0.85037 0.35683 0.34644 0.0
H3518 H 0.84547 0.33866 0.31472 0.0
H3519 H 0.82079 0.36831 0.36353 0.0
H3520 H 0.86732 0.33656 0.3745 0.0
H3521 H 0.8807 0.3083 0.37286 0.0
H3522 H 0.84285 0.28443 0.40845 0.0
H3523 H 0.82905 0.31243 0.41006 0.0
C3524 C 0.82743 0.40815 0.45175 0.0
C3525 C 0.8172 0.39773 0.46356 0.0
C3526 C 0.8311 0.3989 0.4345 0.0
C3527 C 0.82434 0.37921 0.42878 0.0
C3528 C 0.81402 0.36881 0.44047 0.0
C3529 C 0.81048 0.37802 0.45781 0.0
C3530 C 0.82772 0.36937 0.41041 0.0
C3531 C 0.83584 0.35367 0.4098 0.0
C3532 C 0.82265 0.37513 0.39362 0.0
C3533 C 0.81362 0.39133 0.39343 0.0
C3534 C 0.7976 0.39145 0.40177 0.0
C3535 C 0.78932 0.4069 0.40176 0.0
C3536 C 0.79684 0.42221 0.39328 0.0
C3537 C 0.81261 0.42208 0.38473 0.0
C3538 C 0.82096 0.40669 0.38473 0.0
C3539 C 0.81761 0.30721 0.33584 0.0
C3540 C 0.82586 0.31499 0.32127 0.0
C3541 C 0.82059 0.3177 0.35405 0.0
C3542 C 0.83199 0.33586 0.35777 0.0
C3543 C 0.84137 0.3429 0.34362 0.0
C3544 C 0.83848 0.33245 0.32551 0.0
C3545 C 0.83264 0.3483 0.37596 0.0
C3546 C 0.82536 0.36455 0.37652 0.0
C3547 C 0.83846 0.34308 0.39265 0.0
C3548 C 0.8471 0.32655 0.39234 0.0
C3549 C 0.86181 0.32525 0.38192 0.0
C3550 C 0.86947 0.30928 0.38099 0.0
C3551 C 0.86262 0.29457 0.39053 0.0
C3552 C 0.84815 0.29585 0.40108 0.0
C3553 C 0.84042 0.31179 0.40204 0.0
H3554 H 0.86853 0.28219 0.38975 0.0
H3555 H 0.79041 0.43416 0.3933 0.0
H3556 H 0.41225 0.03754 0.23276 0.0
H3557 H 0.4215 0.03605 0.2009 0.0
H3558 H 0.47584 0.04199 0.22268 0.0
H3559 H 0.46676 0.04403 0.25453 0.0
H3560 H 0.47253 0.06722 0.20053 0.0
H3561 H 0.45077 0.99906 0.19934 0.0
H3562 H 0.42837 0.9699 0.20085 0.0
H3563 H 0.39581 0.98095 0.15591 0.0
H3564 H 0.41797 0.01029 0.15426 0.0
H3565 H 0.52488 0.02783 0.13639 0.0
H3566 H 0.50644 0.03644 0.1614 0.0
H3567 H 0.46341 0.0344 0.12019 0.0
H3568 H 0.48171 0.02542 0.09505 0.0
H3569 H 0.45399 0.01267 0.14743 0.0
H3570 H 0.4847 0.07593 0.14439 0.0
H3571 H 0.51061 0.10184 0.14353 0.0
H3572 H 0.5299 0.09802 0.19902 0.0
H3573 H 0.50472 0.07135 0.19984 0.0
C3574 C 0.42616 0.03848 0.23067 0.0
C3575 C 0.43891 0.0412 0.24598 0.0
C3576 C 0.43136 0.03752 0.21252 0.0
C3577 C 0.4493 0.039 0.20958 0.0
C3578 C 0.46193 0.04105 0.22482 0.0
C3579 C 0.45678 0.04226 0.24294 0.0
C3580 C 0.4554 0.03953 0.19084 0.0
C3581 C 0.4686 0.05528 0.18888 0.0
C3582 C 0.44944 0.02434 0.17551 0.0
C3583 C 0.43588 0.00704 0.1769 0.0
C3584 C 0.43872 0.99541 0.18995 0.0
C3585 C 0.42611 0.97881 0.19078 0.0
C3586 C 0.41064 0.97363 0.17855 0.0
C3587 C 0.40777 0.98502 0.16543 0.0
C3588 C 0.42035 1.00163 0.16454 0.0
C3589 C 0.51152 0.02929 0.13269 0.0
C3590 C 0.50466 0.02591 0.11388 0.0
C3591 C 0.5011 0.03442 0.14692 0.0
C3592 C 0.48371 0.03628 0.14251 0.0
C3593 C 0.47688 0.0332 0.12375 0.0
C3594 C 0.48734 0.02813 0.10949 0.0
C3595 C 0.4723 0.03961 0.15772 0.0
C3596 C 0.45775 0.02482 0.15889 0.0
C3597 C 0.47748 0.05539 0.17264 0.0
C3598 C 0.49275 0.0715 0.17212 0.0
C3599 C 0.49457 0.0804 0.15632 0.0
C3600 C 0.50918 0.09522 0.15583 0.0
C3601 C 0.52184 0.10165 0.17124 0.0
C3602 C 0.52006 0.09309 0.1871 0.0
C3603 C 0.50566 0.07803 0.18754 0.0
H3604 H 0.53304 0.11327 0.1709 0.0
H3605 H 0.40091 0.96075 0.17918 0.0
H3606 H 0.80678 0.73962 0.96653 0.0
H3607 H 0.80849 0.74843 0.93528 0.0
H3608 H 0.78436 0.69009 0.90979 0.0
H3609 H 0.78332 0.6812 0.94069 0.0
H3610 H 0.80877 0.70153 0.88963 0.0
H3611 H 0.76188 0.73026 0.91547 0.0
H3612 H 0.74891 0.7512 0.93866 0.0
H3613 H 0.78719 0.80022 0.92999 0.0
H3614 H 0.80052 0.77952 0.9069 0.0
H3615 H 0.77317 0.71806 0.80043 0.0
H3616 H 0.77566 0.71102 0.83229 0.0
H3617 H 0.81677 0.7619 0.84921 0.0
H3618 H 0.81543 0.76801 0.81731 0.0
H3619 H 0.78548 0.75633 0.87373 0.0
H3620 H 0.83179 0.72812 0.84764 0.0
H3621 H 0.84418 0.70771 0.82341 0.0
H3622 H 0.80651 0.65822 0.83207 0.0
H3623 H 0.7937 0.67842 0.85617 0.0
C3624 C 0.8018 0.72871 0.95424 0.0
C3625 C 0.79484 0.7097 0.95622 0.0
C3626 C 0.8027 0.73377 0.9363 0.0
C3627 C 0.79634 0.72002 0.91989 0.0
C3628 C 0.78944 0.70106 0.922 0.0
C3629 C 0.78876 0.69599 0.9398 0.0
C3630 C 0.79676 0.72504 0.90051 0.0
C3631 C 0.80346 0.71341 0.88625 0.0
C3632 C 0.79034 0.74085 0.89581 0.0
C3633 C 0.7823 0.75331 0.90962 0.0
C3634 C 0.76759 0.74549 0.91861 0.0
C3635 C 0.76017 0.75732 0.93172 0.0
C3636 C 0.76725 0.77702 0.93584 0.0
C3637 C 0.78174 0.78495 0.92681 0.0
C3638 C 0.78922 0.77318 0.9137 0.0
C3639 C 0.78285 0.72774 0.81084 0.0
C3640 C 0.79343 0.74437 0.80629 0.0
C3641 C 0.78418 0.72372 0.82914 0.0
C3642 C 0.79602 0.73626 0.84338 0.0
C3643 C 0.80713 0.7523 0.83869 0.0
C3644 C 0.80613 0.756 0.82035 0.0
C3645 C 0.79704 0.73256 0.86307 0.0
C3646 C 0.79073 0.74447 0.87728 0.0
C3647 C 0.8038 0.71707 0.86775 0.0
C3648 C 0.81167 0.7048 0.85357 0.0
C3649 C 0.82605 0.7129 0.84427 0.0
C3650 C 0.83317 0.70138 0.83059 0.0
C3651 C 0.82611 0.68168 0.82618 0.0
C3652 C 0.81195 0.67348 0.8355 0.0
C3653 C 0.80477 0.68496 0.84918 0.0
H3654 H 0.83163 0.67277 0.8156 0.0
H3655 H 0.76149 0.78615 0.946 0.0
H3656 H 0.82109 0.09397 0.01012 0.0
H3657 H 0.84898 0.08328 0.01231 0.0
H3658 H 0.86988 0.13044 0.05784 0.0
H3659 H 0.84215 0.14161 0.05527 0.0
H3660 H 0.8936 0.12598 0.03211 0.0
H3661 H 0.85803 0.08639 0.06769 0.0
H3662 H 0.82967 0.06631 0.07328 0.0
H3663 H 0.83286 0.02498 0.02448 0.0
H3664 H 0.86108 0.04496 0.01839 0.0
H3665 H 0.96647 0.07842 0.02456 0.0
H3666 H 0.94374 0.09282 0.03967 0.0
H3667 H 0.90341 0.05412 1.00022 0.0
H3668 H 0.92587 0.03896 0.98564 0.0
H3669 H 0.89279 0.05783 0.03454 0.0
H3670 H 0.92212 0.10145 0.99478 0.0
H3671 H 0.94652 0.12446 0.98503 0.0
H3672 H 0.95352 0.15919 0.04002 0.0
H3673 H 0.92915 0.13638 0.05009 0.0
C3674 C 0.83155 0.1019 0.02072 0.0
C3675 C 0.82951 0.11846 0.03262 0.0
C3676 C 0.84744 0.09581 0.02199 0.0
C3677 C 0.8613 0.10591 0.03549 0.0
C3678 C 0.85927 0.12245 0.04743 0.0
C3679 C 0.84344 0.12871 0.04599 0.0
C3680 C 0.878 0.09918 0.0366 0.0
C3681 C 0.89364 0.11124 0.03318 0.0
C3682 C 0.87791 0.08002 0.03813 0.0
C3683 C 0.86174 0.06715 0.04264 0.0
C3684 C 0.85274 0.07296 0.05821 0.0
C3685 C 0.83665 0.06163 0.06142 0.0
C3686 C 0.82948 0.04436 0.04926 0.0
C3687 C 0.83846 0.03833 0.03393 0.0
C3688 C 0.85454 0.04962 0.03062 0.0
C3689 C 0.95275 0.07273 0.01922 0.0
C3690 C 0.94808 0.05765 0.00361 0.0
C3691 C 0.93981 0.08114 0.02782 0.0
C3692 C 0.92197 0.07475 0.02087 0.0
C3693 C 0.91717 0.05934 0.00575 0.0
C3694 C 0.93006 0.05084 0.99725 0.0
C3695 C 0.9081 0.08426 0.02871 0.0
C3696 C 0.89302 0.07277 0.03415 0.0
C3697 C 0.90873 0.10398 0.02901 0.0
C3698 C 0.92404 0.11704 0.02327 0.0
C3699 C 0.92903 0.11386 0.00485 0.0
C3700 C 0.94275 0.12694 0.99923 0.0
C3701 C 0.95158 0.14326 0.0119 0.0
C3702 C 0.9467 0.14653 0.03023 0.0
C3703 C 0.93293 0.13354 0.0359 0.0
H3704 H 0.96223 0.15334 0.00752 0.0
H3705 H 0.81696 0.03567 0.0517 0.0
H3706 H 0.37233 0.40747 0.05535 0.0
H3707 H 0.40323 0.42386 0.054 0.0
H3708 H 0.3855 0.45993 0.0188 0.0
H3709 H 0.35455 0.44386 0.02044 0.0
H3710 H 0.415 0.44496 0.00568 0.0
H3711 H 0.3981 0.47799 0.06295 0.0
H3712 H 0.38666 0.48053 0.09415 0.0
H3713 H 0.42835 0.45604 0.11459 0.0
H3714 H 0.43988 0.45306 0.0834 0.0
H3715 H 0.4923 0.52051 0.01335 0.0
H3716 H 0.46205 0.50236 0.01518 0.0
H3717 H 0.48301 0.46765 0.04973 0.0
H3718 H 0.51335 0.48549 0.0474 0.0
H3719 H 0.45251 0.48048 0.0633 0.0
H3720 H 0.47061 0.44848 0.00788 0.0
H3721 H 0.48282 0.44484 0.97712 0.0
H3722 H 0.4398 0.46507 0.95324 0.0
H3723 H 0.42754 0.4693 0.98401 0.0
C3724 C 0.37499 0.41896 0.0474 0.0
C3725 C 0.36087 0.42441 0.03813 0.0
C3726 C 0.39271 0.42834 0.04662 0.0
C3727 C 0.39684 0.44323 0.03631 0.0
C3728 C 0.38277 0.44851 0.02684 0.0
C3729 C 0.36503 0.43937 0.0279 0.0
C3730 C 0.41574 0.45347 0.03563 0.0
C3731 C 0.4231 0.45294 0.01826 0.0
C3732 C 0.42667 0.46338 0.05206 0.0
C3733 C 0.41972 0.46509 0.07078 0.0
C3734 C 0.40472 0.47296 0.07404 0.0
C3735 C 0.39824 0.47451 0.09173 0.0
C3736 C 0.40674 0.46839 0.10632 0.0
C3737 C 0.42176 0.46073 0.10326 0.0
C3738 C 0.42828 0.45911 0.08558 0.0
C3739 C 0.49039 0.50917 0.02154 0.0
C3740 C 0.50512 0.50461 0.03052 0.0
C3741 C 0.47312 0.49869 0.02246 0.0
C3742 C 0.47014 0.48357 0.0326 0.0
C3743 C 0.48488 0.47926 0.04188 0.0
C3744 C 0.50221 0.48948 0.0406 0.0
C3745 C 0.45167 0.47224 0.03333 0.0
C3746 C 0.44442 0.47251 0.05071 0.0
C3747 C 0.44094 0.4619 0.01693 0.0
C3748 C 0.44829 0.45949 0.99837 0.0
C3749 C 0.46387 0.45241 0.99615 0.0
C3750 C 0.47078 0.45019 0.97869 0.0
C3751 C 0.46213 0.45478 0.96325 0.0
C3752 C 0.44652 0.46157 0.96524 0.0
C3753 C 0.43959 0.4639 0.98269 0.0
H3754 H 0.46748 0.45302 0.94974 0.0
H3755 H 0.40171 0.46963 0.12002 0.0
H3756 H 0.37884 0.60202 0.76039 0.0
H3757 H 0.36444 0.62909 0.75935 0.0
H3758 H 0.41082 0.66774 0.78926 0.0
H3759 H 0.42507 0.64046 0.79067 0.0
H3760 H 0.38561 0.68445 0.80059 0.0
H3761 H 0.39421 0.66122 0.73629 0.0
H3762 H 0.39147 0.63713 0.70734 0.0
H3763 H 0.33465 0.62616 0.70666 0.0
H3764 H 0.33708 0.65007 0.7357 0.0
H3765 H 0.34503 0.74927 0.73547 0.0
H3766 H 0.35861 0.72255 0.73998 0.0
H3767 H 0.34004 0.7248 0.79497 0.0
H3768 H 0.32704 0.75234 0.79067 0.0
H3769 H 0.352 0.68826 0.7419 0.0
H3770 H 0.35345 0.70106 0.81886 0.0
H3771 H 0.35818 0.72703 0.8466 0.0
H3772 H 0.39817 0.76117 0.82019 0.0
H3773 H 0.39348 0.73547 0.79221 0.0
C3774 C 0.38619 0.6162 0.7668 0.0
C3775 C 0.40357 0.61823 0.77556 0.0
C3776 C 0.3778 0.63218 0.76605 0.0
C3777 C 0.38615 0.6516 0.77381 0.0
C3778 C 0.40344 0.65356 0.7829 0.0
C3779 C 0.41182 0.63755 0.78368 0.0
C3780 C 0.37715 0.66939 0.77231 0.0
C3781 C 0.37824 0.6849 0.78761 0.0
C3782 C 0.36731 0.67148 0.7557 0.0
C3783 C 0.36584 0.65727 0.73822 0.0
C3784 C 0.38115 0.6536 0.72999 0.0
C3785 C 0.37964 0.63999 0.71357 0.0
C3786 C 0.3629 0.63008 0.70519 0.0
C3787 C 0.34761 0.63382 0.71318 0.0
C3788 C 0.34904 0.64741 0.7296 0.0
C3789 C 0.34373 0.74427 0.74869 0.0
C3790 C 0.33436 0.75361 0.76246 0.0
C3791 C 0.35168 0.72852 0.75131 0.0
C3792 C 0.35117 0.72073 0.76805 0.0
C3793 C 0.3417 0.73003 0.78196 0.0
C3794 C 0.33374 0.74599 0.77934 0.0
C3795 C 0.36007 0.70306 0.77024 0.0
C3796 C 0.35916 0.68768 0.75495 0.0
C3797 C 0.37008 0.70114 0.7868 0.0
C3798 C 0.37306 0.71646 0.80351 0.0
C3799 C 0.3633 0.71409 0.81905 0.0
C3800 C 0.36591 0.72878 0.83475 0.0
C3801 C 0.3785 0.74572 0.83516 0.0
C3802 C 0.38843 0.74805 0.81983 0.0
C3803 C 0.38572 0.73349 0.80401 0.0
H3804 H 0.38055 0.75705 0.84734 0.0
H3805 H 0.36176 0.61953 0.69249 0.0
H3806 H 0.22437 0.64343 0.53435 0.0
H3807 H 0.19255 0.63217 0.53317 0.0
H3808 H 0.19749 0.57508 0.50914 0.0
H3809 H 0.22986 0.58643 0.50996 0.0
H3810 H 0.17018 0.58808 0.49135 0.0
H3811 H 0.19135 0.58452 0.55357 0.0
H3812 H 0.20887 0.59668 0.58412 0.0
H3813 H 0.17947 0.64092 0.59587 0.0
H3814 H 0.16206 0.62934 0.5652 0.0
H3815 H 0.08263 0.55023 0.5034 0.0
H3816 H 0.11455 0.55625 0.50877 0.0
H3817 H 0.11619 0.61601 0.52944 0.0
H3818 H 0.08354 0.60974 0.52471 0.0
H3819 H 0.14005 0.59821 0.54991 0.0
H3820 H 0.12277 0.60597 0.4871 0.0
H3821 H 0.10439 0.59505 0.45688 0.0
H3822 H 0.12551 0.54431 0.44715 0.0
H3823 H 0.14416 0.55498 0.47717 0.0
C3824 C 0.21878 0.62843 0.52884 0.0
C3825 C 0.22954 0.61568 0.52241 0.0
C3826 C 0.20061 0.62206 0.52823 0.0
C3827 C 0.19289 0.60279 0.52145 0.0
C3828 C 0.20343 0.59 0.5146 0.0
C3829 C 0.22179 0.59643 0.51512 0.0
C3830 C 0.17367 0.59641 0.52149 0.0
C3831 C 0.16359 0.58991 0.50417 0.0
C3832 C 0.16525 0.59939 0.53827 0.0
C3833 C 0.17545 0.6061 0.55698 0.0
C3834 C 0.18869 0.59692 0.56259 0.0
C3835 C 0.19861 0.60372 0.57994 0.0
C3836 C 0.19531 0.61958 0.59191 0.0
C3837 C 0.18203 0.62864 0.58658 0.0
C3838 C 0.17213 0.62196 0.56921 0.0
C3839 C 0.08961 0.56452 0.5096 0.0
C3840 C 0.08068 0.57944 0.51422 0.0
C3841 C 0.10787 0.56795 0.51254 0.0
C3842 C 0.1175 0.58651 0.51944 0.0
C3843 C 0.10874 0.60155 0.52423 0.0
C3844 C 0.09028 0.59804 0.52141 0.0
C3845 C 0.13678 0.59032 0.51984 0.0
C3846 C 0.14676 0.59624 0.53719 0.0
C3847 C 0.14513 0.58708 0.5031 0.0
C3848 C 0.13483 0.58125 0.48442 0.0
C3849 C 0.12357 0.59252 0.47846 0.0
C3850 C 0.11315 0.5864 0.46132 0.0
C3851 C 0.11394 0.56908 0.44998 0.0
C3852 C 0.12516 0.55786 0.45576 0.0
C3853 C 0.13569 0.56396 0.47282 0.0
H3854 H 0.10583 0.5643 0.43676 0.0
H3855 H 0.20301 0.62483 0.60534 0.0
H3856 H 0.73564 1.00068 0.73686 0.0
H3857 H 0.74474 0.97032 0.73645 0.0
H3858 H 0.68988 0.941 0.73409 0.0
H3859 H 0.68068 0.97141 0.73487 0.0
H3860 H 0.71147 0.93654 0.76394 0.0
H3861 H 0.71259 0.93127 0.69683 0.0
H3862 H 0.72073 0.94656 0.66968 0.0
H3863 H 0.77591 0.95675 0.68902 0.0
H3864 H 0.76809 0.94169 0.71641 0.0
H3865 H 0.73721 0.85259 0.77359 0.0
H3866 H 0.72289 0.87264 0.75635 0.0
H3867 H 0.77399 0.90927 0.75382 0.0
H3868 H 0.78828 0.88911 0.77097 0.0
H3869 H 0.75111 0.90683 0.72225 0.0
H3870 H 0.75346 0.92061 0.78861 0.0
H3871 H 0.74978 0.916 0.82116 0.0
H3872 H 0.69328 0.89905 0.80841 0.0
H3873 H 0.69666 0.90321 0.7756 0.0
C3874 C 0.72553 0.98769 0.73586 0.0
C3875 C 0.70754 0.98825 0.73612 0.0
C3876 C 0.73071 0.9704 0.7355 0.0
C3877 C 0.7179 0.95354 0.73505 0.0
C3878 C 0.69985 0.95395 0.73433 0.0
C3879 C 0.69468 0.97126 0.73486 0.0
C3880 C 0.72356 0.93608 0.73787 0.0
C3881 C 0.71958 0.92951 0.75452 0.0
C3882 C 0.73492 0.92789 0.72597 0.0
C3883 C 0.73976 0.93522 0.7086 0.0
C3884 C 0.72647 0.93662 0.6952 0.0
C3885 C 0.73102 0.94532 0.67981 0.0
C3886 C 0.74883 0.95258 0.67761 0.0
C3887 C 0.76213 0.95102 0.69071 0.0
C3888 C 0.75765 0.94233 0.70612 0.0
C3889 C 0.74533 0.86458 0.76876 0.0
C3890 C 0.76369 0.86954 0.77346 0.0
C3891 C 0.73722 0.87595 0.75895 0.0
C3892 C 0.74743 0.89242 0.75398 0.0
C3893 C 0.76597 0.8965 0.75744 0.0
C3894 C 0.77408 0.88513 0.76727 0.0
C3895 C 0.73867 0.90697 0.74821 0.0
C3896 C 0.7423 0.91321 0.73123 0.0
C3897 C 0.72745 0.91548 0.76017 0.0
C3898 C 0.72535 0.91181 0.77954 0.0
C3899 C 0.74028 0.91551 0.79263 0.0
C3900 C 0.73824 0.91308 0.81114 0.0
C3901 C 0.72132 0.9072 0.81682 0.0
C3902 C 0.70639 0.90355 0.80395 0.0
C3903 C 0.70836 0.9059 0.78538 0.0
H3904 H 0.7198 0.90566 0.83124 0.0
H3905 H 0.75232 0.95945 0.66577 0.0
H3906 H 0.74236 0.88677 0.53126 0.0
H3907 H 0.71514 0.89911 0.53176 0.0
H3908 H 0.74641 0.95686 0.54032 0.0
H3909 H 0.77366 0.94454 0.54072 0.0
H3910 H 0.72045 0.9565 0.56129 0.0
H3911 H 0.72284 0.92832 0.49538 0.0
H3912 H 0.72357 0.90143 0.46983 0.0
H3913 H 0.67465 0.86979 0.48472 0.0
H3914 H 0.67375 0.89641 0.51049 0.0
H3915 H 0.66627 0.01205 0.52847 0.0
H3916 H 0.68771 0.99295 0.53453 0.0
H3917 H 0.64557 0.94248 0.52743 0.0
H3918 H 0.62386 0.9618 0.52083 0.0
H3919 H 0.67309 0.93447 0.50876 0.0
H3920 H 0.66766 0.96212 0.57108 0.0
H3921 H 0.6654 0.98758 0.5974 0.0
H3922 H 0.71802 0.01784 0.59116 0.0
H3923 H 0.72051 0.99269 0.56462 0.0
C3924 C 0.74344 0.90211 0.53326 0.0
C3925 C 0.76024 0.91465 0.53584 0.0
C3926 C 0.7278 0.90918 0.53342 0.0
C3927 C 0.7285 0.929 0.53567 0.0
C3928 C 0.74533 0.94152 0.53849 0.0
C3929 C 0.76097 0.93446 0.53867 0.0
C3930 C 0.7119 0.93686 0.53519 0.0
C3931 C 0.71023 0.95176 0.54967 0.0
C3932 C 0.69787 0.93011 0.52063 0.0
C3933 C 0.69833 0.91428 0.50496 0.0
C3934 C 0.71229 0.91559 0.49325 0.0
C3935 C 0.71273 0.9004 0.47873 0.0
C3936 C 0.69919 0.8839 0.47569 0.0
C3937 C 0.68514 0.88257 0.48711 0.0
C3938 C 0.68466 0.89771 0.50166 0.0
C3939 C 0.66147 0.99694 0.52848 0.0
C3940 C 0.64332 0.98851 0.52421 0.0
C3941 C 0.67379 0.98598 0.53203 0.0
C3942 C 0.6684 0.96619 0.53164 0.0
C3943 C 0.65015 0.95771 0.52786 0.0
C3944 C 0.63771 0.96879 0.52431 0.0
C3945 C 0.68216 0.95468 0.53439 0.0
C3946 C 0.68325 0.93907 0.52045 0.0
C3947 C 0.69552 0.96051 0.54961 0.0
C3948 C 0.69424 0.97555 0.56579 0.0
C3949 C 0.67873 0.97425 0.57526 0.0
C3950 C 0.6774 0.98862 0.59022 0.0
C3951 C 0.69155 1.00433 0.59594 0.0
C3952 C 0.70707 0.00566 0.58673 0.0
C3953 C 0.70846 0.99132 0.57174 0.0
H3954 H 0.69049 0.01545 0.60751 0.0
H3955 H 0.69956 0.87215 0.46445 0.0
H3956 H 0.39676 0.50002 0.74295 0.0
H3957 H 0.38205 0.46649 0.74279 0.0
H3958 H 0.38918 0.47667 0.80307 0.0
H3959 H 0.4036 0.51027 0.80325 0.0
H3960 H 0.39553 0.44062 0.78933 0.0
H3961 H 0.3474 0.47173 0.77799 0.0
H3962 H 0.3317 0.49112 0.76101 0.0
H3963 H 0.32874 0.45049 0.70998 0.0
H3964 H 0.34462 0.43098 0.72663 0.0
H3965 H 0.33743 0.35376 0.80408 0.0
H3966 H 0.35283 0.3867 0.8034 0.0
H3967 H 0.33644 0.37846 0.74447 0.0
H3968 H 0.32096 0.34534 0.74524 0.0
H3969 H 0.33558 0.41336 0.75662 0.0
H3970 H 0.38205 0.38176 0.76531 0.0
H3971 H 0.4 0.36217 0.77911 0.0
H3972 H 0.40889 0.40239 0.83105 0.0
H3973 H 0.39075 0.4221 0.81766 0.0
C3974 C 0.39516 0.4953 0.75626 0.0
C3975 C 0.40147 0.50856 0.77312 0.0
C3976 C 0.38659 0.4758 0.75618 0.0
C3977 C 0.38402 0.46826 0.77294 0.0
C3978 C 0.39067 0.48143 0.78977 0.0
C3979 C 0.39896 0.501 0.78986 0.0
C3980 C 0.37429 0.4471 0.77298 0.0
C3981 C 0.38229 0.4349 0.7824 0.0
C3982 C 0.35716 0.43854 0.76344 0.0
C3983 C 0.34729 0.44999 0.75351 0.0
C3984 C 0.34345 0.46698 0.76313 0.0
C3985 C 0.33453 0.47799 0.75357 0.0
C3986 C 0.32925 0.47206 0.73442 0.0
C3987 C 0.33284 0.45507 0.72481 0.0
C3988 C 0.34178 0.44402 0.7343 0.0
C3989 C 0.33709 0.35877 0.79087 0.0
C3990 C 0.32775 0.34626 0.7747 0.0
C3991 C 0.34614 0.37795 0.79044 0.0
C3992 C 0.3465 0.38587 0.77378 0.0
C3993 C 0.3368 0.37343 0.75769 0.0
C3994 C 0.32779 0.35418 0.75811 0.0
C3995 C 0.35667 0.40681 0.77324 0.0
C3996 C 0.34878 0.41899 0.76368 0.0
C3997 C 0.3741 0.41518 0.78229 0.0
C3998 C 0.38482 0.40329 0.79055 0.0
C3999 C 0.38767 0.38633 0.77975 0.0
C4000 C 0.39791 0.37522 0.78748 0.0
C4001 C 0.40553 0.38099 0.80597 0.0
C4002 C 0.40294 0.39791 0.81675 0.0
C4003 C 0.39267 0.40906 0.80909 0.0
H4004 H 0.41348 0.37239 0.81192 0.0
H4005 H 0.32236 0.48061 0.72703 0.0
H4006 H 0.1946 0.60684 0.26033 0.0
H4007 H 0.20941 0.6405 0.26673 0.0
H4008 H 0.25929 0.62517 0.25436 0.0
H4009 H 0.24456 0.59118 0.24838 0.0
H4010 H 0.26123 0.65164 0.28662 0.0
H4011 H 0.23556 0.64092 0.22242 0.0
H4012 H 0.211 0.63001 0.19738 0.0
H4013 H 0.18305 0.67062 0.22502 0.0
H4014 H 0.20722 0.68148 0.25045 0.0
H4015 H 0.30095 0.74959 0.29194 0.0
H4016 H 0.29145 0.71501 0.28027 0.0
H4017 H 0.23668 0.71921 0.28439 0.0
H4018 H 0.24621 0.75385 0.29484 0.0
H4019 H 0.24011 0.69787 0.25247 0.0
H4020 H 0.25909 0.70448 0.31736 0.0
H4021 H 0.28048 0.71667 0.34523 0.0
H4022 H 0.31671 0.6844 0.32002 0.0
H4023 H 0.29574 0.67249 0.29166 0.0
C4024 C 0.20873 0.61065 0.25898 0.0
C4025 C 0.21854 0.59665 0.25371 0.0
C4026 C 0.21709 0.62979 0.26253 0.0
C4027 C 0.23523 0.63506 0.26047 0.0
C4028 C 0.24518 0.62112 0.25573 0.0
C4029 C 0.23684 0.60188 0.25239 0.0
C4030 C 0.24383 0.65523 0.26388 0.0
C4031 C 0.25702 0.66176 0.27885 0.0
C4032 C 0.23761 0.66822 0.25406 0.0
C4033 C 0.22323 0.66196 0.23844 0.0
C4034 C 0.22414 0.64746 0.22324 0.0
C4035 C 0.21027 0.64127 0.20896 0.0
C4036 C 0.19547 0.6496 0.20962 0.0
C4037 C 0.19452 0.66417 0.22452 0.0
C4038 C 0.20831 0.67035 0.23887 0.0
C4039 C 0.28694 0.74297 0.29012 0.0
C4040 C 0.27412 0.75389 0.2934 0.0
C4041 C 0.28155 0.72341 0.28362 0.0
C4042 C 0.2634 0.71483 0.28136 0.0
C4043 C 0.25071 0.72579 0.28573 0.0
C4044 C 0.25609 0.74534 0.29181 0.0
C4045 C 0.25749 0.69426 0.27518 0.0
C4046 C 0.24477 0.68769 0.25978 0.0
C4047 C 0.26364 0.68127 0.28497 0.0
C4048 C 0.27594 0.68775 0.30231 0.0
C4049 C 0.27165 0.70005 0.31771 0.0
C4050 C 0.2837 0.70693 0.33359 0.0
C4051 C 0.29994 0.70131 0.33442 0.0
C4052 C 0.30413 0.68876 0.31935 0.0
C4053 C 0.29219 0.68197 0.30335 0.0
H4054 H 0.30925 0.70667 0.34674 0.0
H4055 H 0.18474 0.64478 0.19856 0.0
H4056 H 0.50347 0.72456 0.47552 0.0
H4057 H 0.50948 0.69846 0.4908 0.0
H4058 H 0.54533 0.68584 0.44913 0.0
H4059 H 0.538 0.71061 0.4331 0.0
H4060 H 0.53036 0.65482 0.45401 0.0
H4061 H 0.55514 0.71132 0.50285 0.0
H4062 H 0.55305 0.73988 0.52578 0.0
H4063 H 0.51312 0.70556 0.5521 0.0
H4064 H 0.51486 0.67686 0.52924 0.0
H4065 H 0.57255 0.59235 0.48946 0.0
H4066 H 0.56809 0.62296 0.48309 0.0
H4067 H 0.53188 0.62521 0.52625 0.0
H4068 H 0.5389 0.59583 0.53476 0.0
H4069 H 0.54368 0.66038 0.52251 0.0
H4070 H 0.5189 0.60469 0.47583 0.0
H4071 H 0.52103 0.57496 0.45473 0.0
H4072 H 0.55925 0.60724 0.42486 0.0
H4073 H 0.5575 0.63712 0.44594 0.0
C4074 C 0.51253 0.71609 0.46958 0.0
C4075 C 0.52008 0.71966 0.45289 0.0
C4076 C 0.51624 0.70122 0.47854 0.0
C4077 C 0.52828 0.68997 0.47161 0.0
C4078 C 0.53591 0.69387 0.45501 0.0
C4079 C 0.53171 0.70819 0.44574 0.0
C4080 C 0.5326 0.6737 0.48073 0.0
C4081 C 0.53356 0.65642 0.469 0.0
C4082 C 0.53592 0.67473 0.50046 0.0
C4083 C 0.53502 0.692 0.51422 0.0
C4084 C 0.54587 0.7099 0.51348 0.0
C4085 C 0.54475 0.7261 0.52647 0.0
C4086 C 0.53293 0.72454 0.54035 0.0
C4087 C 0.52225 0.70676 0.54132 0.0
C4088 C 0.52331 0.69052 0.52837 0.0
C4089 C 0.56456 0.59994 0.49846 0.0
C4090 C 0.55683 0.59192 0.51322 0.0
C4091 C 0.56145 0.61729 0.49436 0.0
C4092 C 0.54884 0.62628 0.50341 0.0
C4093 C 0.54153 0.61874 0.51875 0.0
C4094 C 0.54562 0.60188 0.52371 0.0
C4095 C 0.54235 0.64219 0.49559 0.0
C4096 C 0.54067 0.65908 0.50753 0.0
C4097 C 0.5381 0.64084 0.47603 0.0
C4098 C 0.53807 0.62311 0.46246 0.0
C4099 C 0.52765 0.60544 0.46467 0.0
C4100 C 0.52886 0.58857 0.45278 0.0
C4101 C 0.54027 0.58922 0.43847 0.0
C4102 C 0.55039 0.60677 0.43593 0.0
C4103 C 0.54927 0.62368 0.44781 0.0
H4104 H 0.54128 0.57612 0.42935 0.0
H4105 H 0.53208 0.7371 0.55038 0.0
H4106 H 0.64697 0.32804 0.63645 0.0
H4107 H 0.67352 0.32889 0.65695 0.0
H4108 H 0.64078 0.2986 0.69339 0.0
H4109 H 0.61427 0.29826 0.67325 0.0
H4110 H 0.66433 0.32488 0.71436 0.0
H4111 H 0.66925 0.27815 0.65946 0.0
H4112 H 0.67184 0.267 0.62589 0.0
H4113 H 0.71898 0.31076 0.62787 0.0
H4114 H 0.71654 0.32231 0.66138 0.0
H4115 H 0.73164 0.29832 0.76927 0.0
H4116 H 0.70617 0.30056 0.749 0.0
H4117 H 0.74165 0.32521 0.7113 0.0
H4118 H 0.76709 0.32206 0.73122 0.0
H4119 H 0.71724 0.30348 0.69057 0.0
H4120 H 0.71409 0.35033 0.7441 0.0
H4121 H 0.71224 0.36406 0.77721 0.0
H4122 H 0.66295 0.32413 0.77762 0.0
H4123 H 0.66467 0.30991 0.74463 0.0
C4124 C 0.64541 0.32157 0.64884 0.0
C4125 C 0.62833 0.31309 0.6531 0.0
C4126 C 0.66071 0.32191 0.66057 0.0
C4127 C 0.65949 0.31354 0.67682 0.0
C4128 C 0.64238 0.30519 0.68107 0.0
C4129 C 0.62711 0.30496 0.66944 0.0
C4130 C 0.67577 0.31374 0.68965 0.0
C4131 C 0.67579 0.31992 0.70912 0.0
C4132 C 0.69126 0.30811 0.68306 0.0
C4133 C 0.6926 0.30121 0.66288 0.0
C4134 C 0.68008 0.28548 0.6527 0.0
C4135 C 0.68154 0.27908 0.63369 0.0
C4136 C 0.69554 0.2882 0.62474 0.0
C4137 C 0.70812 0.30372 0.6348 0.0
C4138 C 0.70671 0.3102 0.65379 0.0
C4139 C 0.73406 0.30464 0.7569 0.0
C4140 C 0.75157 0.31035 0.75219 0.0
C4141 C 0.71936 0.30594 0.74517 0.0
C4142 C 0.7216 0.31346 0.72848 0.0
C4143 C 0.73919 0.31933 0.72392 0.0
C4144 C 0.75386 0.31764 0.73545 0.0
C4145 C 0.7058 0.31443 0.71545 0.0
C4146 C 0.70585 0.30848 0.69592 0.0
C4147 C 0.6905 0.32064 0.72195 0.0
C4148 C 0.68963 0.3289 0.74193 0.0
C4149 C 0.70296 0.34434 0.7513 0.0
C4150 C 0.70191 0.35223 0.77005 0.0
C4151 C 0.68752 0.34494 0.77953 0.0
C4152 C 0.67413 0.32973 0.77028 0.0
C4153 C 0.67514 0.32174 0.75156 0.0
H4154 H 0.68671 0.3511 0.79402 0.0
H4155 H 0.69665 0.2832 0.61003 0.0
H4156 H 0.01309 0.31553 0.98099 0.0
H4157 H 0.01427 0.34837 0.99713 0.0
H4158 H 0.03016 0.36961 0.94713 0.0
H4159 H 0.02944 0.33698 0.9312 0.0
H4160 H 0.04924 0.39186 0.97563 0.0
H4161 H 0.98644 0.36503 0.96263 0.0
H4162 H 0.95832 0.34217 0.9639 0.0
H4163 H 0.96366 0.35665 0.02406 0.0
H4164 H 0.99196 0.3794 0.02316 0.0
H4165 H 0.03445 0.48533 0.99438 0.0
H4166 H 0.02865 0.45107 0.98091 0.0
H4167 H 0.0229 0.43733 0.03612 0.0
H4168 H 0.0289 0.47169 0.04962 0.0
H4169 H 0.99872 0.41114 0.00745 0.0
H4170 H 0.06089 0.43854 0.02035 0.0
H4171 H 0.08857 0.46205 0.01913 0.0
H4172 H 0.08418 0.4465 0.95908 0.0
H4173 H 0.05628 0.42309 0.95991 0.0
C4174 C 0.01686 0.32722 0.97346 0.0
C4175 C 0.02116 0.32356 0.95476 0.0
C4176 C 0.01742 0.34604 0.98268 0.0
C4177 C 0.02208 0.36167 0.97336 0.0
C4178 C 0.02652 0.35796 0.95474 0.0
C4179 C 0.02606 0.33921 0.94559 0.0
C4180 C 0.02268 0.38191 0.98287 0.0
C4181 C 0.03805 0.39601 0.98235 0.0
C4182 C 0.00838 0.38751 0.99227 0.0
C4183 C 0.99143 0.37375 0.99283 0.0
C4184 C 0.9817 0.36321 0.97614 0.0
C4185 C 0.96572 0.35029 0.97679 0.0
C4186 C 0.95924 0.34791 0.99405 0.0
C4187 C 0.96871 0.35847 0.0107 0.0
C4188 C 0.98472 0.37138 0.01013 0.0
C4189 C 0.03129 0.47498 0.00354 0.0
C4190 C 0.03166 0.48116 0.023 0.0
C4191 C 0.02816 0.45539 0.99587 0.0
C4192 C 0.02548 0.44153 0.00749 0.0
C4193 C 0.02486 0.44767 0.02683 0.0
C4194 C 0.02821 0.4673 0.03453 0.0
C4195 C 0.02503 0.42095 0.99967 0.0
C4196 C 0.00983 0.40686 1.00067 0.0
C4197 C 0.03947 0.41531 0.9907 0.0
C4198 C 0.05637 0.42922 0.99018 0.0
C4199 C 0.06573 0.44025 0.00687 0.0
C4200 C 0.08148 0.45355 0.00625 0.0
C4201 C 0.08808 0.45585 0.98903 0.0
C4202 C 0.07901 0.44475 0.9724 0.0
C4203 C 0.06324 0.43146 0.97294 0.0
H4204 H 0.10024 0.46618 0.98854 0.0
H4205 H 0.94685 0.33793 0.99453 0.0
H4206 H 0.03725 0.83304 0.15595 0.0
H4207 H 0.00906 0.82999 0.17025 0.0
H4208 H 0.99849 0.76867 0.15212 0.0
H4209 H 0.02611 0.77193 0.13666 0.0
H4210 H 0.9688 0.77848 0.14926 0.0
H4211 H 0.01548 0.7945 0.20014 0.0
H4212 H 0.04316 0.81451 0.21734 0.0
H4213 H 0.01872 0.86305 0.22605 0.0
H4214 H 0.99095 0.84336 0.20873 0.0
H4215 H 0.9113 0.74999 0.21823 0.0
H4216 H 0.93493 0.75663 0.19754 0.0
H4217 H 0.93588 0.81701 0.21155 0.0
H4218 H 0.91206 0.81033 0.2323 0.0
H4219 H 0.96915 0.80998 0.21546 0.0
H4220 H 0.92098 0.79223 0.16783 0.0
H4221 H 0.89366 0.7721 0.15012 0.0
H4222 H 0.92072 0.72631 0.13524 0.0
H4223 H 0.94817 0.74605 0.15309 0.0
C4224 C 0.02895 0.81891 0.1551 0.0
C4225 C 0.03411 0.80271 0.14544 0.0
C4226 C 0.01278 0.81712 0.16336 0.0
C4227 C 1.00162 0.799 0.16288 0.0
C4228 C 0.00671 0.78284 0.15291 0.0
C4229 C 0.02264 0.78469 0.14418 0.0
C4230 C 0.98499 0.79678 0.17308 0.0
C4231 C 0.96899 0.78521 0.16381 0.0
C4232 C 0.98482 0.8059 0.19196 0.0
C4233 C 1.00121 0.8175 0.20308 0.0
C4234 C 0.01602 0.80944 0.20575 0.0
C4235 C 0.03173 0.82073 0.21548 0.0
C4236 C 0.03271 0.84005 0.22275 0.0
C4237 C 0.01794 0.84809 0.22041 0.0
C4238 C 1.00221 0.83687 0.21067 0.0
C4239 C 0.91631 0.76467 0.21664 0.0
C4240 C 0.90976 0.77963 0.22694 0.0
C4241 C 0.92983 0.76846 0.20474 0.0
C4242 C 0.93731 0.78736 0.20287 0.0
C4243 C 0.9304 0.80231 0.21269 0.0
C4244 C 0.91666 0.79847 0.22445 0.0
C4245 C 0.95309 0.79145 0.19175 0.0
C4246 C 0.96894 0.80333 0.20088 0.0
C4247 C 0.95311 0.7825 0.17281 0.0
C4248 C 0.93663 0.77059 0.16196 0.0
C4249 C 0.92109 0.77781 0.16092 0.0
C4250 C 0.90557 0.76648 0.15083 0.0
C4251 C 0.90544 0.74793 0.14161 0.0
C4252 C 0.92084 0.74068 0.14241 0.0
C4253 C 0.93639 0.75195 0.1525 0.0
H4254 H 0.89341 0.73918 0.1338 0.0
H4255 H 0.0449 0.84878 0.23022 0.0
H4256 H 0.54185 0.32189 0.14734 0.0
H4257 H 0.54918 0.3455 0.127 0.0
H4258 H 0.49706 0.32533 0.09712 0.0
H4259 H 0.49037 0.30063 0.11654 0.0
H4260 H 0.51946 0.33045 0.07343 0.0
H4261 H 0.51003 0.36949 0.13045 0.0
H4262 H 0.51429 0.38028 0.16476 0.0
H4263 H 0.56997 0.40116 0.16142 0.0
H4264 H 0.56609 0.39027 0.12709 0.0
H4265 H 0.52753 0.41081 0.02712 0.0
H4266 H 0.5178 0.3898 0.04957 0.0
H4267 H 0.57238 0.39454 0.06957 0.0
H4268 H 0.58216 0.41523 0.04681 0.0
H4269 H 0.54713 0.39864 0.09866 0.0
H4270 H 0.55566 0.35749 0.04149 0.0
H4271 H 0.55089 0.34481 0.0075 0.0
H4272 H 0.49493 0.32733 0.01181 0.0
H4273 H 0.49933 0.34026 0.04581 0.0
C4274 C 0.53198 0.32269 0.1365 0.0
C4275 C 0.51556 0.30972 0.13344 0.0
C4276 C 0.53609 0.33621 0.12497 0.0
C4277 C 0.52351 0.33752 0.11082 0.0
C4278 C 0.50696 0.32463 0.10798 0.0
C4279 C 0.50311 0.31063 0.11907 0.0
C4280 C 0.52788 0.35182 0.09848 0.0
C4281 C 0.52516 0.34543 0.079 0.0
C4282 C 0.53559 0.37132 0.10572 0.0
C4283 C 0.53777 0.37904 0.12619 0.0
C4284 C 0.52318 0.37644 0.13702 0.0
C4285 C 0.52553 0.38253 0.15648 0.0
C4286 C 0.54239 0.39139 0.16526 0.0
C4287 C 0.55691 0.39432 0.15459 0.0
C4288 C 0.55463 0.38824 0.13512 0.0
C4289 C 0.53739 0.40724 0.03628 0.0
C4290 C 0.55555 0.41425 0.03515 0.0
C4291 C 0.53185 0.39541 0.04911 0.0
C4292 C 0.54441 0.39071 0.06115 0.0
C4293 C 0.56255 0.3981 0.06037 0.0
C4294 C 0.56811 0.40966 0.04729 0.0
C4295 C 0.53865 0.37715 0.07378 0.0
C4296 C 0.54115 0.3837 0.09323 0.0
C4297 C 0.53046 0.35784 0.06656 0.0
C4298 C 0.5278 0.35009 0.04613 0.0
C4299 C 0.54231 0.35115 0.03515 0.0
C4300 C 0.53968 0.34388 0.01589 0.0
C4301 C 0.52261 0.33533 0.00749 0.0
C4302 C 0.50814 0.334 0.01834 0.0
C4303 C 0.51069 0.34131 0.03759 0.0
H4304 H 0.52061 0.32968 0.99258 0.0
H4305 H 0.5442 0.396 0.18034 0.0
H4306 H 0.05398 0.35232 0.37537 0.0
H4307 H 0.0256 0.35512 0.36131 0.0
H4308 H 0.01048 0.2936 0.34468 0.0
H4309 H 0.03936 0.29075 0.35821 0.0
H4310 H 1.00303 0.31026 0.3171 0.0
H4311 H 0.99326 0.31877 0.38225 0.0
H4312 H 1.00066 0.33298 0.41575 0.0
H4313 H 0.99759 0.38832 0.40384 0.0
H4314 H 0.99045 0.37452 0.37022 0.0
H4315 H 0.9149 0.30865 0.28932 0.0
H4316 H 0.93955 0.30522 0.3099 0.0
H4317 H 0.96179 0.36579 0.31662 0.0
H4318 H 0.9368 0.36946 0.29617 0.0
H4319 H 0.96407 0.34862 0.35074 0.0
H4320 H 0.97681 0.34032 0.28563 0.0
H4321 H 0.96955 0.3262 0.2521 0.0
H4322 H 0.96715 0.26999 0.26468 0.0
H4323 H 0.97408 0.28377 0.29838 0.0
C4324 C 0.04461 0.33937 0.36873 0.0
C4325 C 0.04878 0.3213 0.36785 0.0
C4326 C 0.02834 0.34099 0.36087 0.0
C4327 C 0.01581 0.32455 0.35236 0.0
C4328 C 0.01997 0.30645 0.35137 0.0
C4329 C 0.0364 0.30483 0.35904 0.0
C4330 C 0.99877 0.32642 0.34359 0.0
C4331 C 0.99436 0.31832 0.32459 0.0
C4332 C 0.98771 0.33737 0.3533 0.0
C4333 C 0.99142 0.34561 0.37365 0.0
C4334 C 0.99422 0.33398 0.38675 0.0
C4335 C 0.99838 0.34197 0.40577 0.0
C4336 C 0.99963 0.36155 0.41192 0.0
C4337 C 0.99663 0.37316 0.39907 0.0
C4338 C 0.99249 0.36525 0.38002 0.0
C4339 C 0.92485 0.32133 0.29546 0.0
C4340 C 0.92404 0.33934 0.29113 0.0
C4341 C 0.93887 0.31933 0.3072 0.0
C4342 C 0.95237 0.33526 0.31467 0.0
C4343 C 0.95135 0.3534 0.31099 0.0
C4344 C 0.93728 0.35542 0.29915 0.0
C4345 C 0.96853 0.33244 0.3244 0.0
C4346 C 0.97273 0.34039 0.34346 0.0
C4347 C 0.97943 0.32131 0.31483 0.0
C4348 C 0.97576 0.31305 0.29453 0.0
C4349 C 0.97461 0.32494 0.28126 0.0
C4350 C 0.97056 0.317 0.26223 0.0
C4351 C 0.96784 0.2972 0.25627 0.0
C4352 C 0.96924 0.28532 0.26933 0.0
C4353 C 0.97322 0.29318 0.28839 0.0
H4354 H 0.96469 0.29108 0.24153 0.0
H4355 H 1.00289 0.36772 0.42664 0.0
H4356 H 0.97841 0.69617 0.65443 0.0
H4357 H 0.97667 0.66492 0.63379 0.0
H4358 H 0.01735 0.69176 0.60223 0.0
H4359 H 0.0188 0.72253 0.62226 0.0
H4360 H 0.98618 0.67322 0.58081 0.0
H4361 H 0.02753 0.66572 0.6294 0.0
H4362 H 0.03841 0.66239 0.66092 0.0
H4363 H 0.99793 0.61146 0.65808 0.0
H4364 H 0.9865 0.61478 0.62667 0.0
H4365 H 0.03174 0.61331 0.52659 0.0
H4366 H 0.0212 0.6368 0.54892 0.0
H4367 H 0.9837 0.59114 0.56587 0.0
H4368 H 0.99505 0.56758 0.54418 0.0
H4369 H 0.00429 0.61492 0.59491 0.0
H4370 H 0.97055 0.62187 0.53915 0.0
H4371 H 0.96889 0.62631 0.5062 0.0
H4372 H 0.00453 0.68125 0.5216 0.0
H4373 H 0.00682 0.67695 0.55453 0.0
C4374 C 0.98709 0.69509 0.64323 0.0
C4375 C 0.99851 0.71143 0.63947 0.0
C4376 C 0.98609 0.67745 0.63156 0.0
C4377 C 0.99668 0.67637 0.61645 0.0
C4378 C 0.00889 0.69254 0.61367 0.0
C4379 C 0.00972 0.70999 0.62505 0.0
C4380 C 0.99455 0.65898 0.60244 0.0
C4381 C 0.98987 0.66029 0.58383 0.0
C4382 C 0.99939 0.64234 0.60667 0.0
C4383 C 0.00583 0.6408 0.62587 0.0
C4384 C 0.02068 0.65406 0.63564 0.0
C4385 C 0.02701 0.65211 0.65346 0.0
C4386 C 0.01878 0.63681 0.66156 0.0
C4387 C 0.00421 0.6234 0.65185 0.0
C4388 C 0.99776 0.62533 0.63406 0.0
C4389 C 0.02095 0.6085 0.5348 0.0
C4390 C 0.01387 0.58903 0.53383 0.0
C4391 C 0.01493 0.62178 0.54743 0.0
C4392 C 1.00146 0.61557 0.55866 0.0
C4393 C 0.99398 0.59604 0.55711 0.0
C4394 C 1.00032 0.58273 0.54478 0.0
C4395 C 0.99647 0.62943 0.57325 0.0
C4396 C 0.99975 0.62742 0.59193 0.0
C4397 C 0.99124 0.6459 0.56903 0.0
C4398 C 0.98878 0.64909 0.5494 0.0
C4399 C 0.97799 0.63493 0.53554 0.0
C4400 C 0.977 0.63739 0.51684 0.0
C4401 C 0.98657 0.65406 0.51182 0.0
C4402 C 0.99709 0.66836 0.52551 0.0
C4403 C 0.99821 0.66592 0.54421 0.0
H4404 H 0.98584 0.6559 0.49732 0.0
H4405 H 0.02375 0.63528 0.67532 0.0
H4406 H 0.66124 0.82033 0.87968 0.0
H4407 H 0.68369 0.81677 0.85761 0.0
H4408 H 0.64682 0.82035 0.81219 0.0
H4409 H 0.62422 0.82337 0.83407 0.0
H4410 H 0.65755 0.78763 0.80668 0.0
H4411 H 0.68497 0.85363 0.82467 0.0
H4412 H 0.69801 0.8839 0.84615 0.0
H4413 H 0.73978 0.85911 0.86588 0.0
H4414 H 0.72658 0.82839 0.84512 0.0
H4415 H 0.72843 0.77937 0.74426 0.0
H4416 H 0.70206 0.7851 0.76005 0.0
H4417 H 0.72822 0.78152 0.81298 0.0
H4418 H 0.75453 0.77663 0.79747 0.0
H4419 H 0.72164 0.81719 0.81016 0.0
H4420 H 0.68726 0.75034 0.80287 0.0
H4421 H 0.67107 0.71844 0.78623 0.0
H4422 H 0.64402 0.74467 0.74808 0.0
H4423 H 0.65942 0.77673 0.76508 0.0
C4424 C 0.65812 0.82079 0.86505 0.0
C4425 C 0.64101 0.82162 0.85837 0.0
C4426 C 0.67096 0.81895 0.85252 0.0
C4427 C 0.6668 0.81829 0.83333 0.0
C4428 C 0.65016 0.82078 0.82696 0.0
C4429 C 0.63729 0.82235 0.83942 0.0
C4430 C 0.67848 0.81155 0.8197 0.0
C4431 C 0.6715 0.79438 0.80712 0.0
C4432 C 0.6967 0.82012 0.82074 0.0
C4433 C 0.70466 0.8386 0.83337 0.0
C4434 C 0.69681 0.85452 0.83374 0.0
C4435 C 0.70424 0.87178 0.84581 0.0
C4436 C 0.71975 0.87346 0.85733 0.0
C4437 C 0.72778 0.85781 0.85693 0.0
C4438 C 0.72029 0.84044 0.84505 0.0
C4439 C 0.72814 0.77921 0.75914 0.0
C4440 C 0.74313 0.77735 0.76977 0.0
C4441 C 0.71315 0.78226 0.76807 0.0
C4442 C 0.71336 0.78367 0.78759 0.0
C4443 C 0.72788 0.78031 0.79787 0.0
C4444 C 0.74283 0.77754 0.78905 0.0
C4445 C 0.70077 0.79298 0.79787 0.0
C4446 C 0.70761 0.81073 0.80961 0.0
C4447 C 0.68251 0.78488 0.7963 0.0
C4448 C 0.67468 0.76582 0.78498 0.0
C4449 C 0.67801 0.74926 0.7908 0.0
C4450 C 0.66881 0.73119 0.78147 0.0
C4451 C 0.65667 0.72954 0.76601 0.0
C4452 C 0.65351 0.74597 0.75998 0.0
C4453 C 0.66234 0.76408 0.76955 0.0
H4454 H 0.64968 0.71552 0.75872 0.0
H4455 H 0.72554 0.88689 0.86658 0.0
H4456 H 0.45365 0.53827 0.71353 0.0
H4457 H 0.46976 0.53839 0.68512 0.0
H4458 H 0.49018 0.59901 0.70165 0.0
H4459 H 0.47466 0.59879 0.73054 0.0
H4460 H 0.47746 0.58694 0.66046 0.0
H4461 H 0.51836 0.57368 0.70481 0.0
H4462 H 0.52876 0.55718 0.72889 0.0
H4463 H 0.51746 0.50419 0.6894 0.0
H4464 H 0.50671 0.52033 0.66514 0.0
H4465 H 0.53662 0.59133 0.585 0.0
H4466 H 0.52264 0.59502 0.61474 0.0
H4467 H 0.51904 0.53521 0.61593 0.0
H4468 H 0.53382 0.53192 0.58696 0.0
H4469 H 0.5237 0.54904 0.64941 0.0
H4470 H 0.48103 0.56276 0.60521 0.0
H4471 H 0.47042 0.57999 0.58183 0.0
H4472 H 0.48513 0.63287 0.62137 0.0
H4473 H 0.49598 0.61598 0.64492 0.0
C4474 C 0.46161 0.55171 0.71132 0.0
C4475 C 0.4626 0.56849 0.72494 0.0
C4476 C 0.47095 0.55178 0.69478 0.0
C4477 C 0.48148 0.56872 0.69051 0.0
C4478 C 0.48229 0.58558 0.70398 0.0
C4479 C 0.47334 0.58542 0.72081 0.0
C4480 C 0.4917 0.56862 0.67245 0.0
C4481 C 0.48769 0.57875 0.65826 0.0
C4482 C 0.50515 0.55797 0.66871 0.0
C4483 C 0.51152 0.54816 0.68322 0.0
C4484 C 0.5179 0.55846 0.70131 0.0
C4485 C 0.5239 0.54919 0.71499 0.0
C4486 C 0.52371 0.52963 0.7107 0.0
C4487 C 0.51756 0.51933 0.69271 0.0
C4488 C 0.51152 0.52853 0.67899 0.0
C4489 C 0.53284 0.57888 0.59151 0.0
C4490 C 0.53612 0.5611 0.58264 0.0
C4491 C 0.52447 0.58094 0.60875 0.0
C4492 C 0.51878 0.56531 0.6182 0.0
C4493 C 0.52268 0.54775 0.60954 0.0
C4494 C 0.53105 0.54573 0.59241 0.0
C4495 C 0.50923 0.56698 0.63689 0.0
C4496 C 0.5134 0.55715 0.65137 0.0
C4497 C 0.49593 0.57797 0.64086 0.0
C4498 C 0.48949 0.58814 0.62673 0.0
C4499 C 0.48209 0.57808 0.60886 0.0
C4500 C 0.47602 0.58779 0.5956 0.0
C4501 C 0.47715 0.60752 0.60009 0.0
C4502 C 0.4843 0.61759 0.61789 0.0
C4503 C 0.4904 0.60796 0.63121 0.0
H4504 H 0.47244 0.61501 0.5898 0.0
H4505 H 0.52837 0.52248 0.7213 0.0
H4506 H 0.75964 0.14672 0.96924 0.0
H4507 H 0.75288 0.16643 0.94691 0.0
H4508 H 0.80652 0.20021 0.95742 0.0
H4509 H 0.81284 0.18132 0.98098 0.0
H4510 H 0.78445 0.22244 0.95937 0.0
H4511 H 0.7885 0.16551 0.91517 0.0
H4512 H 0.78023 0.13072 0.90312 0.0
H4513 H 0.72587 0.13432 0.89296 0.0
H4514 H 0.73375 0.16906 0.90527 0.0
H4515 H 0.7798 0.27541 0.88628 0.0
H4516 H 0.78775 0.25285 0.90513 0.0
H4517 H 0.73288 0.22312 0.90037 0.0
H4518 H 0.72486 0.24542 0.88136 0.0
H4519 H 0.75535 0.1985 0.89482 0.0
H4520 H 0.74923 0.25286 0.93867 0.0
H4521 H 0.75439 0.2868 0.95376 0.0
H4522 H 0.80935 0.28743 0.96697 0.0
H4523 H 0.80462 0.25358 0.95155 0.0
C4524 C 0.77012 0.158 0.96634 0.0
C4525 C 0.78684 0.16243 0.97649 0.0
C4526 C 0.76625 0.16927 0.95359 0.0
C4527 C 0.77929 0.18459 0.95021 0.0
C4528 C 0.79629 0.18842 0.95977 0.0
C4529 C 0.79996 0.17756 0.97303 0.0
C4530 C 0.77487 0.19752 0.93781 0.0
C4531 C 0.77848 0.21724 0.94509 0.0
C4532 C 0.76624 0.1906 0.91954 0.0
C4533 C 0.76172 0.16989 0.91121 0.0
C4534 C 0.77479 0.15888 0.91037 0.0
C4535 C 0.77016 0.13916 0.90353 0.0
C4536 C 0.75254 0.13032 0.8973 0.0
C4537 C 0.73952 0.14119 0.89779 0.0
C4538 C 0.74406 0.1609 0.90467 0.0
C4539 C 0.76947 0.26394 0.8891 0.0
C4540 C 0.75171 0.26217 0.88239 0.0
C4541 C 0.77401 0.25117 0.89994 0.0
C4542 C 0.76086 0.23646 0.90419 0.0
C4543 C 0.74319 0.23443 0.89722 0.0
C4544 C 0.73863 0.24726 0.88652 0.0
C4545 C 0.76545 0.22337 0.91622 0.0
C4546 C 0.76167 0.20367 0.90897 0.0
C4547 C 0.77367 0.23025 0.93464 0.0
C4548 C 0.77662 0.25073 0.94366 0.0
C4549 C 0.76248 0.26029 0.94454 0.0
C4550 C 0.76531 0.27951 0.9532 0.0
C4551 C 0.7822 0.28929 0.96125 0.0
C4552 C 0.79629 0.27986 0.96066 0.0
C4553 C 0.79354 0.26066 0.95194 0.0
H4554 H 0.78436 0.30415 0.96799 0.0
H4555 H 0.74897 0.11504 0.89207 0.0
H4556 H 0.1724 0.51018 0.17945 0.0
H4557 H 0.1488 0.50299 0.1539 0.0
H4558 H 0.14116 0.56097 0.16745 0.0
H4559 H 0.16395 0.56769 0.19374 0.0
H4560 H 0.11246 0.53611 0.17138 0.0
H4561 H 0.15465 0.54251 0.12491 0.0
H4562 H 0.18071 0.53574 0.10904 0.0
H4563 H 0.15515 0.47626 0.09387 0.0
H4564 H 0.129 0.48264 0.10991 0.0
H4565 H 0.06688 0.55639 0.09655 0.0
H4566 H 0.08575 0.55127 0.12234 0.0
H4567 H 0.069 0.49001 0.10409 0.0
H4568 H 0.04975 0.49527 0.07825 0.0
H4569 H 0.10641 0.50676 0.10393 0.0
H4570 H 0.06082 0.50532 0.1462 0.0
H4571 H 0.03524 0.5168 0.15908 0.0
H4572 H 0.06845 0.57237 0.17965 0.0
H4573 H 0.09419 0.56133 0.16669 0.0
C4574 C 0.16613 0.52153 0.17636 0.0
C4575 C 0.16953 0.53933 0.18837 0.0
C4576 C 0.15271 0.51744 0.16185 0.0
C4577 C 0.14315 0.53139 0.15913 0.0
C4578 C 0.14829 0.55 0.16965 0.0
C4579 C 0.1613 0.55387 0.18448 0.0
C4580 C 0.1261 0.52591 0.14778 0.0
C4581 C 0.11114 0.52973 0.15661 0.0
C4582 C 0.12439 0.5168 0.12882 0.0
C4583 C 0.13994 0.51301 0.1188 0.0
C4584 C 0.15462 0.52796 0.1183 0.0
C4585 C 0.16941 0.5242 0.10926 0.0
C4586 C 0.16961 0.50557 0.10051 0.0
C4587 C 0.15498 0.49068 0.10069 0.0
C4588 C 0.14016 0.49436 0.10974 0.0
C4589 C 0.0666 0.5419 0.09872 0.0
C4590 C 0.057 0.52618 0.08593 0.0
C4591 C 0.07733 0.53895 0.1133 0.0
C4592 C 0.07858 0.52026 0.11496 0.0
C4593 C 0.06794 0.50445 0.10295 0.0
C4594 C 0.05695 0.50744 0.08844 0.0
C4595 C 0.09313 0.51797 0.12733 0.0
C4596 C 0.10768 0.51252 0.11885 0.0
C4597 C 0.09463 0.52609 0.1465 0.0
C4598 C 0.07949 0.53242 0.15557 0.0
C4599 C 0.0627 0.51996 0.15356 0.0
C4600 C 0.04815 0.52641 0.16083 0.0
C4601 C 0.05022 0.54529 0.17021 0.0
C4602 C 0.06688 0.55773 0.17245 0.0
C4603 C 0.08147 0.55135 0.16521 0.0
H4604 H 0.03892 0.55029 0.17573 0.0
H4605 H 0.18108 0.50267 0.09354 0.0
H4606 H 0.7978 0.83293 0.48669 0.0
H4607 H 0.79667 0.81597 0.45424 0.0
H4608 H 0.81177 0.87017 0.43588 0.0
H4609 H 0.81221 0.88702 0.46795 0.0
H4610 H 0.78597 0.8481 0.41291 0.0
H4611 H 0.84132 0.83756 0.44259 0.0
H4612 H 0.85737 0.82474 0.46611 0.0
H4613 H 0.82546 0.7684 0.44589 0.0
H4614 H 0.80913 0.78094 0.42237 0.0
H4615 H 0.81824 0.83732 0.32785 0.0
H4616 H 0.81863 0.8432 0.36192 0.0
H4617 H 0.80107 0.78259 0.36084 0.0
H4618 H 0.80156 0.77656 0.32639 0.0
H4619 H 0.82283 0.8008 0.39351 0.0
H4620 H 0.77051 0.8087 0.36157 0.0
H4621 H 0.75314 0.81967 0.33772 0.0
H4622 H 0.77613 0.87822 0.36232 0.0
H4623 H 0.79384 0.86761 0.38616 0.0
C4624 C 0.80088 0.84117 0.47569 0.0
C4625 C 0.80509 0.86132 0.47988 0.0
C4626 C 0.80032 0.83146 0.45714 0.0
C4627 C 0.80433 0.84173 0.44251 0.0
C4628 C 0.80856 0.86185 0.44681 0.0
C4629 C 0.80886 0.87151 0.46521 0.0
C4630 C 0.80399 0.83195 0.42261 0.0
C4631 C 0.79413 0.83785 0.40874 0.0
C4632 C 0.81381 0.81773 0.41702 0.0
C4633 C 0.82394 0.81021 0.43085 0.0
C4634 C 0.83771 0.82245 0.44321 0.0
C4635 C 0.84685 0.81524 0.45654 0.0
C4636 C 0.84241 0.79577 0.45752 0.0
C4637 C 0.82888 0.78347 0.44512 0.0
C4638 C 0.8197 0.79062 0.43178 0.0
C4639 C 0.81504 0.82519 0.33493 0.0
C4640 C 0.80995 0.80652 0.32455 0.0
C4641 C 0.81514 0.82856 0.35439 0.0
C4642 C 0.80936 0.81341 0.36393 0.0
C4643 C 0.80546 0.79452 0.35377 0.0
C4644 C 0.80578 0.79107 0.33413 0.0
C4645 C 0.80571 0.81795 0.38397 0.0
C4646 C 0.81455 0.81091 0.39776 0.0
C4647 C 0.79463 0.83085 0.38959 0.0
C4648 C 0.78356 0.83735 0.37564 0.0
C4649 C 0.7719 0.82392 0.36187 0.0
C4650 C 0.762 0.83007 0.34834 0.0
C4651 C 0.76354 0.84963 0.3485 0.0
C4652 C 0.77494 0.86307 0.36223 0.0
C4653 C 0.78488 0.857 0.37578 0.0
H4654 H 0.7559 0.85436 0.33798 0.0
H4655 H 0.84948 0.79022 0.46787 0.0
H4656 H 0.48773 0.5841 0.82581 0.0
H4657 H 0.50311 0.58008 0.85484 0.0
H4658 H 0.45756 0.53788 0.86317 0.0
H4659 H 0.44178 0.54333 0.83518 0.0
H4660 H 0.46795 0.55114 0.89473 0.0
H4661 H 0.50888 0.53442 0.848 0.0
H4662 H 0.52908 0.54156 0.82362 0.0
H4663 H 0.55959 0.59055 0.86169 0.0
H4664 H 0.53949 0.58378 0.88621 0.0
H4665 H 0.50512 0.51559 0.96885 0.0
H4666 H 0.49429 0.51958 0.93806 0.0
H4667 H 0.54184 0.56192 0.93617 0.0
H4668 H 0.55378 0.5557 0.96626 0.0
H4669 H 0.53198 0.55108 0.90213 0.0
H4670 H 0.49351 0.56921 0.9482 0.0
H4671 H 0.47462 0.5642 0.97409 0.0
H4672 H 0.44018 0.51608 0.93841 0.0
H4673 H 0.45897 0.5207 0.91237 0.0
C4674 C 0.48091 0.57392 0.83377 0.0
C4675 C 0.4632 0.56411 0.82756 0.0
C4676 C 0.48999 0.57129 0.85062 0.0
C4677 C 0.48223 0.55805 0.86195 0.0
C4678 C 0.4645 0.54827 0.85551 0.0
C4679 C 0.45527 0.55136 0.83908 0.0
C4680 C 0.49181 0.55456 0.88043 0.0
C4681 C 0.48191 0.5508 0.89584 0.0
C4682 C 0.51041 0.55487 0.8835 0.0
C4683 C 0.5226 0.55868 0.86886 0.0
C4684 C 0.51988 0.54672 0.85114 0.0
C4685 C 0.5313 0.55071 0.8373 0.0
C4686 C 0.54558 0.56652 0.84109 0.0
C4687 C 0.54851 0.57832 0.85876 0.0
C4688 C 0.53713 0.57441 0.87263 0.0
C4689 C 0.51379 0.52511 0.96162 0.0
C4690 C 0.53092 0.5344 0.97023 0.0
C4691 C 0.50716 0.52807 0.9439 0.0
C4692 C 0.51645 0.54195 0.9342 0.0
C4693 C 0.53381 0.55118 0.94268 0.0
C4694 C 0.54086 0.54747 0.96015 0.0
C4695 C 0.50788 0.54692 0.91595 0.0
C4696 C 0.51796 0.55115 0.90078 0.0
C4697 C 0.48948 0.5474 0.91313 0.0
C4698 C 0.47767 0.54524 0.9284 0.0
C4699 C 0.48187 0.55761 0.94588 0.0
C4700 C 0.47121 0.5548 0.96059 0.0
C4701 C 0.45623 0.53981 0.9579 0.0
C4702 C 0.45179 0.52768 0.94046 0.0
C4703 C 0.46241 0.53041 0.92571 0.0
H4704 H 0.44805 0.5376 0.96933 0.0
H4705 H 0.55438 0.56961 0.83035 0.0
H4706 H 0.77586 0.15692 0.0912 0.0
H4707 H 0.77573 0.18031 0.11986 0.0
H4708 H 0.79355 0.22648 0.09009 0.0
H4709 H 0.79381 0.20345 0.06165 0.0
H4710 H 0.81275 0.22926 0.1251 0.0
H4711 H 0.75036 0.21297 0.09704 0.0
H4712 H 0.72183 0.19001 0.08701 0.0
H4713 H 0.71944 0.17656 0.14236 0.0
H4714 H 0.74805 0.1992 0.15264 0.0
H4715 H 0.80675 0.304 0.19806 0.0
H4716 H 0.80159 0.28603 0.16577 0.0
H4717 H 0.76955 0.2381 0.18515 0.0
H4718 H 0.77418 0.25573 0.21659 0.0
H4719 H 0.75719 0.23766 0.15338 0.0
H4720 H 0.81572 0.24505 0.18279 0.0
H4721 H 0.84586 0.26084 0.1971 0.0
H4722 H 0.8581 0.28248 0.14665 0.0
H4723 H 0.82789 0.26713 0.13216 0.0
C4724 C 0.77974 0.17207 0.09085 0.0
C4725 C 0.7848 0.17846 0.0743 0.0
C4726 C 0.77962 0.18533 0.10712 0.0
C4727 C 0.78451 0.20498 0.10684 0.0
C4728 C 0.78972 0.21131 0.09041 0.0
C4729 C 0.78982 0.19816 0.07422 0.0
C4730 C 0.78442 0.21926 0.12362 0.0
C4731 C 0.80063 0.23133 0.13126 0.0
C4732 C 0.76863 0.22121 0.13189 0.0
C4733 C 0.7514 0.20768 0.12555 0.0
C4734 C 0.74381 0.20501 0.10702 0.0
C4735 C 0.72762 0.19207 0.1013 0.0
C4736 C 0.71885 0.18181 0.11403 0.0
C4737 C 0.72624 0.18449 0.13251 0.0
C4738 C 0.74243 0.19738 0.13828 0.0
C4739 C 0.79847 0.28972 0.19529 0.0
C4740 C 0.79173 0.28085 0.20997 0.0
C4741 C 0.79547 0.27953 0.17689 0.0
C4742 C 0.7857 0.26051 0.17323 0.0
C4743 C 0.7773 0.25267 0.18762 0.0
C4744 C 0.78014 0.2628 0.20576 0.0
C4745 C 0.78562 0.24771 0.15522 0.0
C4746 C 0.76937 0.23588 0.1472 0.0
C4747 C 0.80156 0.24512 0.14741 0.0
C4748 C 0.81943 0.25519 0.15648 0.0
C4749 C 0.82474 0.2534 0.17483 0.0
C4750 C 0.84188 0.26219 0.18295 0.0
C4751 C 0.85391 0.27257 0.17275 0.0
C4752 C 0.84878 0.27439 0.15451 0.0
C4753 C 0.83163 0.2657 0.14636 0.0
H4754 H 0.86719 0.27931 0.17904 0.0
H4755 H 0.70631 0.17182 0.10958 0.0
H4756 H 0.14168 0.52317 0.27606 0.0
H4757 H 0.12538 0.52925 0.30353 0.0
H4758 H 0.17297 0.56536 0.33432 0.0
H4759 H 0.18952 0.55903 0.30692 0.0
H4760 H 0.15246 0.54246 0.35583 0.0
H4761 H 0.14501 0.58722 0.31618 0.0
H4762 H 0.13832 0.59879 0.28708 0.0
H4763 H 0.08568 0.56366 0.28081 0.0
H4764 H 0.09211 0.55174 0.30976 0.0
H4765 H 0.09472 0.59477 0.41294 0.0
H4766 H 0.11861 0.58576 0.39474 0.0
H4767 H 0.08104 0.53762 0.36208 0.0
H4768 H 0.05713 0.54666 0.38023 0.0
H4769 H 0.10003 0.57009 0.34441 0.0
H4770 H 0.10871 0.52394 0.3836 0.0
H4771 H 0.11672 0.51134 0.41168 0.0
H4772 H 0.16756 0.55025 0.41941 0.0
H4773 H 0.15982 0.56315 0.39144 0.0
C4774 C 0.14872 0.53215 0.28878 0.0
C4775 C 0.16674 0.54079 0.28943 0.0
C4776 C 0.13942 0.53564 0.30438 0.0
C4777 C 0.14799 0.54805 0.32065 0.0
C4778 C 0.16622 0.55583 0.32175 0.0
C4779 C 0.1756 0.55219 0.30616 0.0
C4780 C 0.1375 0.55355 0.33602 0.0
C4781 C 0.14115 0.54882 0.35355 0.0
C4782 C 0.12282 0.56178 0.33279 0.0
C4783 C 0.11911 0.56847 0.31505 0.0
C4784 C 0.13208 0.58181 0.30848 0.0
C4785 C 0.12831 0.58847 0.29204 0.0
C4786 C 0.1116 0.58193 0.28208 0.0
C4787 C 0.09862 0.56871 0.28853 0.0
C4788 C 0.10232 0.56201 0.30495 0.0
C4789 C 0.09168 0.58235 0.40175 0.0
C4790 C 0.07421 0.57175 0.39727 0.0
C4791 C 0.1053 0.57697 0.3918 0.0
C4792 C 0.1015 0.56087 0.37747 0.0
C4793 C 0.08411 0.54993 0.37337 0.0
C4794 C 0.07048 0.55533 0.3833 0.0
C4795 C 0.11445 0.55817 0.36394 0.0
C4796 C 0.11141 0.56385 0.3468 0.0
C4797 C 0.1297 0.55102 0.3677 0.0
C4798 C 0.13357 0.54469 0.38557 0.0
C4799 C 0.12145 0.53008 0.3915 0.0
C4800 C 0.12601 0.52275 0.40729 0.0
C4801 C 0.14267 0.52992 0.41724 0.0
C4802 C 0.15469 0.54465 0.41163 0.0
C4803 C 0.15022 0.55197 0.39582 0.0
H4804 H 0.14623 0.52413 0.42937 0.0
H4805 H 0.1087 0.58715 0.26939 0.0
H4806 H 0.79395 0.83499 0.56381 0.0
H4807 H 0.78657 0.81807 0.58984 0.0
H4808 H 0.79151 0.87217 0.62716 0.0
H4809 H 0.79912 0.88913 0.60123 0.0
H4810 H 0.80812 0.85045 0.64329 0.0
H4811 H 0.75056 0.84129 0.61178 0.0
H4812 H 0.72705 0.8318 0.58559 0.0
H4813 H 0.73279 0.77349 0.57947 0.0
H4814 H 0.75652 0.78267 0.60547 0.0
H4815 H 0.77238 0.81662 0.7213 0.0
H4816 H 0.7733 0.83048 0.6928 0.0
H4817 H 0.77884 0.77678 0.66052 0.0
H4818 H 0.77795 0.76278 0.68915 0.0
H4819 H 0.75591 0.79722 0.64153 0.0
H4820 H 0.8195 0.81068 0.66727 0.0
H4821 H 0.84277 0.821 0.69376 0.0
H4822 H 0.82255 0.87135 0.71189 0.0
H4823 H 0.79966 0.86171 0.68498 0.0
C4824 C 0.79347 0.84329 0.57757 0.0
C4825 C 0.79725 0.86345 0.58043 0.0
C4826 C 0.78908 0.83357 0.59245 0.0
C4827 C 0.78827 0.84376 0.61055 0.0
C4828 C 0.79202 0.8639 0.61339 0.0
C4829 C 0.7964 0.87362 0.59853 0.0
C4830 C 0.78447 0.83356 0.62674 0.0
C4831 C 0.79653 0.839 0.64285 0.0
C4832 C 0.76956 0.81827 0.6263 0.0
C4833 C 0.75549 0.81272 0.61044 0.0
C4834 C 0.74696 0.82648 0.60472 0.0
C4835 C 0.73355 0.82115 0.58994 0.0
C4836 C 0.72847 0.80207 0.58083 0.0
C4837 C 0.73677 0.78827 0.58651 0.0
C4838 C 0.75019 0.79353 0.60128 0.0
C4839 C 0.77349 0.80763 0.70809 0.0
C4840 C 0.77494 0.78852 0.70752 0.0
C4841 C 0.77407 0.8156 0.69179 0.0
C4842 C 0.77636 0.80478 0.67449 0.0
C4843 C 0.77699 0.78541 0.67366 0.0
C4844 C 0.77632 0.77736 0.69004 0.0
C4845 C 0.77952 0.81428 0.65783 0.0
C4846 C 0.76743 0.80868 0.64174 0.0
C4847 C 0.79425 0.82957 0.65822 0.0
C4848 C 0.80792 0.83547 0.67427 0.0
C4849 C 0.82007 0.82395 0.67693 0.0
C4850 C 0.83318 0.82968 0.69198 0.0
C4851 C 0.83401 0.84668 0.70465 0.0
C4852 C 0.82188 0.85816 0.7021 0.0
C4853 C 0.80896 0.85268 0.68685 0.0
H4854 H 0.84409 0.85101 0.71637 0.0
H4855 H 0.71808 0.79796 0.56941 0.0
H4856 H 0.77081 0.44748 0.54695 0.0
H4857 H 0.74789 0.46591 0.55248 0.0
H4858 H 0.74669 0.47399 0.49478 0.0
H4859 H 0.77089 0.45677 0.48976 0.0
H4860 H 0.74526 0.50554 0.51685 0.0
H4861 H 0.71411 0.44029 0.5111 0.0
H4862 H 0.71084 0.40778 0.51833 0.0
H4863 H 0.70617 0.42957 0.57618 0.0
H4864 H 0.7097 0.46227 0.56937 0.0
H4865 H 0.66559 0.53925 0.52449 0.0
H4866 H 0.68589 0.51827 0.51502 0.0
H4867 H 0.69889 0.51615 0.57308 0.0
H4868 H 0.67847 0.5372 0.58266 0.0
H4869 H 0.69215 0.47977 0.54792 0.0
H4870 H 0.72608 0.54451 0.5543 0.0
H4871 H 0.73208 0.57756 0.54822 0.0
H4872 H 0.73269 0.55643 0.4894 0.0
H4873 H 0.72632 0.5232 0.49509 0.0
C4874 C 0.7655 0.45312 0.53548 0.0
C4875 C 0.77211 0.45061 0.51789 0.0
C4876 C 0.7524 0.46352 0.53858 0.0
C4877 C 0.7452 0.47071 0.52385 0.0
C4878 C 0.75198 0.46832 0.50623 0.0
C4879 C 0.76562 0.45848 0.50333 0.0
C4880 C 0.7309 0.48117 0.52718 0.0
C4881 C 0.73344 0.49974 0.52323 0.0
C4882 C 0.7157 0.47364 0.53587 0.0
C4883 C 0.71217 0.45376 0.53971 0.0
C4884 C 0.71231 0.43814 0.52535 0.0
C4885 C 0.71048 0.41969 0.52939 0.0
C4886 C 0.7083 0.41661 0.5477 0.0
C4887 C 0.70782 0.43197 0.56199 0.0
C4888 C 0.70969 0.45047 0.55804 0.0
C4889 C 0.67283 0.53431 0.5352 0.0
C4890 C 0.67071 0.53988 0.55428 0.0
C4891 C 0.68431 0.52234 0.52979 0.0
C4892 C 0.69378 0.51578 0.5434 0.0
C4893 C 0.69157 0.52112 0.56246 0.0
C4894 C 0.68016 0.53327 0.56791 0.0
C4895 C 0.70669 0.50411 0.53771 0.0
C4896 C 0.70382 0.48534 0.5412 0.0
C4897 C 0.72157 0.51139 0.52853 0.0
C4898 C 0.72548 0.53136 0.52509 0.0
C4899 C 0.72729 0.5469 0.54004 0.0
C4900 C 0.73079 0.56567 0.53667 0.0
C4901 C 0.7327 0.56909 0.51843 0.0
C4902 C 0.73116 0.55375 0.50352 0.0
C4903 C 0.72759 0.53495 0.50681 0.0
H4904 H 0.73544 0.58364 0.51585 0.0
H4905 H 0.70699 0.40233 0.55082 0.0
H4906 H 0.22971 0.17652 0.5136 0.0
H4907 H 0.2003 0.15523 0.5107 0.0
H4908 H 0.22229 0.10744 0.48688 0.0
H4909 H 0.25173 0.12869 0.48963 0.0
H4910 H 0.18898 0.10669 0.46886 0.0
H4911 H 0.21543 0.11372 0.53215 0.0
H4912 H 0.23021 0.13266 0.56233 0.0
H4913 H 0.18546 0.15886 0.57076 0.0
H4914 H 0.17054 0.14028 0.54048 0.0
H4915 H 0.11357 0.03546 0.48763 0.0
H4916 H 0.1434 0.05383 0.48432 0.0
H4917 H 0.12952 0.10531 0.5125 0.0
H4918 H 0.10029 0.0874 0.51602 0.0
H4919 H 0.16004 0.10209 0.52781 0.0
H4920 H 0.13352 0.09715 0.46573 0.0
H4921 H 0.11856 0.08135 0.43462 0.0
H4922 H 0.16213 0.05403 0.42289 0.0
H4923 H 0.17723 0.0694 0.45411 0.0
C4924 C 0.22828 0.1615 0.50766 0.0
C4925 C 0.24312 0.15428 0.50205 0.0
C4926 C 0.21144 0.14933 0.50599 0.0
C4927 C 0.20906 0.12964 0.49875 0.0
C4928 C 0.22375 0.12254 0.49252 0.0
C4929 C 0.24061 0.1347 0.49423 0.0
C4930 C 0.19152 0.11636 0.49876 0.0
C4931 C 0.18274 0.10543 0.48176 0.0
C4932 C 0.18319 0.11496 0.51553 0.0
C4933 C 0.19192 0.12569 0.53401 0.0
C4934 C 0.20877 0.12357 0.54042 0.0
C4935 C 0.21718 0.13425 0.55753 0.0
C4936 C 0.20879 0.14698 0.56844 0.0
C4937 C 0.19195 0.149 0.56229 0.0
C4938 C 0.1835 0.13838 0.54517 0.0
C4939 C 0.11685 0.05065 0.49308 0.0
C4940 C 0.10444 0.05969 0.50242 0.0
C4941 C 0.13392 0.06121 0.49109 0.0
C4942 C 0.13885 0.08102 0.49832 0.0
C4943 C 0.12624 0.09006 0.507 0.0
C4944 C 0.10937 0.07965 0.50897 0.0
C4945 C 0.15721 0.09251 0.49784 0.0
C4946 C 0.16625 0.10312 0.51485 0.0
C4947 C 0.16558 0.09377 0.48102 0.0
C4948 C 0.15637 0.08417 0.46241 0.0
C4949 C 0.1398 0.08756 0.45664 0.0
C4950 C 0.13132 0.07873 0.43895 0.0
C4951 C 0.13935 0.06662 0.42681 0.0
C4952 C 0.15589 0.06335 0.43233 0.0
C4953 C 0.16441 0.0721 0.45003 0.0
H4954 H 0.13278 0.05984 0.4131 0.0
H4955 H 0.21533 0.15526 0.58168 0.0
H4956 H 0.19257 0.95449 0.79496 0.0
H4957 H 0.20986 0.92926 0.7937 0.0
H4958 H 0.22621 0.93981 0.74006 0.0
H4959 H 0.20962 0.96568 0.74172 0.0
H4960 H 0.21602 0.89718 0.74203 0.0
H4961 H 0.256 0.95406 0.77474 0.0
H4962 H 0.26461 0.98284 0.79944 0.0
H4963 H 0.25771 0.94775 0.8418 0.0
H4964 H 0.24876 0.91874 0.81731 0.0
H4965 H 0.28071 0.8378 0.73238 0.0
H4966 H 0.26481 0.86391 0.73392 0.0
H4967 H 0.2667 0.86935 0.79396 0.0
H4968 H 0.28294 0.84313 0.79228 0.0
H4969 H 0.26678 0.90378 0.78906 0.0
H4970 H 0.22683 0.8472 0.75821 0.0
H4971 H 0.21517 0.81776 0.73491 0.0
H4972 H 0.21885 0.8506 0.69067 0.0
H4973 H 0.23079 0.88022 0.71368 0.0
C4974 C 0.19982 0.95163 0.78281 0.0
C4975 C 0.19933 0.96283 0.76851 0.0
C4976 C 0.20991 0.93688 0.78207 0.0
C4977 C 0.21981 0.93183 0.76671 0.0
C4978 C 0.21899 0.94273 0.75222 0.0
C4979 C 0.20934 0.95788 0.75322 0.0
C4980 C 0.23118 0.9159 0.76608 0.0
C4981 C 0.22727 0.89895 0.75222 0.0
C4982 C 0.24579 0.91697 0.77947 0.0
C4983 C 0.25155 0.93426 0.79421 0.0
C4984 C 0.2562 0.95249 0.78933 0.0
C4985 C 0.26116 0.96884 0.80328 0.0
C4986 C 0.26167 0.96713 0.82218 0.0
C4987 C 0.25729 0.94905 0.82715 0.0
C4988 C 0.25229 0.93264 0.81324 0.0
C4989 C 0.27824 0.84477 0.74608 0.0
C4990 C 0.28413 0.83818 0.76219 0.0
C4991 C 0.26858 0.85982 0.74697 0.0
C4992 C 0.26358 0.86921 0.76406 0.0
C4993 C 0.26988 0.86298 0.78033 0.0
C4994 C 0.27957 0.84781 0.77941 0.0
C4995 C 0.25185 0.88495 0.76479 0.0
C4996 C 0.25562 0.9019 0.77874 0.0
C4997 C 0.23688 0.8837 0.75161 0.0
C4998 C 0.22993 0.86592 0.73767 0.0
C4999 C 0.22532 0.84813 0.7435 0.0
C5000 C 0.21863 0.83141 0.73034 0.0
C5001 C 0.21633 0.8323 0.71131 0.0
C5002 C 0.22069 0.84993 0.70541 0.0
C5003 C 0.22742 0.86669 0.7185 0.0
H5004 H 0.21112 0.81935 0.70116 0.0
H5005 H 0.26549 0.97981 0.83298 0.0
H5006 H 0.37505 0.92986 0.02984 0.0
H5007 H 0.40439 0.94806 0.02602 0.0
H5008 H 0.385 1.00035 0.03448 0.0
H5009 H 0.35549 0.98221 0.03821 0.0
H5010 H 0.39769 0.99177 0.99967 0.0
H5011 H 0.41604 0.9958 0.06435 0.0
H5012 H 0.4209 0.98459 0.09405 0.0
H5013 H 0.45467 0.94942 0.06832 0.0
H5014 H 0.44975 0.96011 0.03834 0.0
H5015 H 0.48183 0.05532 0.00547 0.0
H5016 H 0.45132 0.03685 0.00268 0.0
H5017 H 0.47046 0.98437 0.99502 0.0
H5018 H 0.50094 1.0029 0.99859 0.0
H5019 H 0.4576 0.99343 0.02878 0.0
H5020 H 0.43622 0.98546 0.96354 0.0
H5021 H 0.43201 0.99637 0.93353 0.0
H5022 H 0.40631 0.03946 0.96057 0.0
H5023 H 0.40994 0.0284 0.99066 0.0
C5024 C 0.37719 0.94531 0.03156 0.0
C5025 C 0.36303 0.95466 0.0339 0.0
C5026 C 0.39393 0.95566 0.02941 0.0
C5027 C 0.39661 0.97541 0.02977 0.0
C5028 C 0.38297 0.98505 0.03404 0.0
C5029 C 0.36621 0.9747 0.03621 0.0
C5030 C 0.41269 0.98525 0.02284 0.0
C5031 C 0.41083 0.99243 0.00618 0.0
C5032 C 0.42966 0.98539 0.03104 0.0
C5033 C 0.43235 0.97862 0.049 0.0
C5034 C 0.42432 0.98548 0.06493 0.0
C5035 C 0.42712 0.97926 0.08184 0.0
C5036 C 0.43804 0.96626 0.08305 0.0
C5037 C 0.44619 0.95946 0.06735 0.0
C5038 C 0.44339 0.9656 0.05039 0.0
C5039 C 0.47935 0.03984 0.00241 0.0
C5040 C 0.49337 0.03033 0.00214 0.0
C5041 C 0.46201 0.02931 1.00052 0.0
C5042 C 0.45882 0.00933 0.99874 0.0
C5043 C 0.47281 0.9998 0.99627 0.0
C5044 C 0.49011 0.01033 0.99838 0.0
C5045 C 0.4426 0.99952 0.00543 0.0
C5046 C 0.44445 0.99256 0.02218 0.0
C5047 C 0.4257 0.9995 0.99729 0.0
C5048 C 0.42334 0.00612 0.97929 0.0
C5049 C 0.42963 0.99723 0.96305 0.0
C5050 C 0.42725 1.00336 0.94602 0.0
C5051 C 0.41891 0.01862 0.94515 0.0
C5052 C 0.41273 0.02762 0.96127 0.0
C5053 C 0.41479 0.02131 0.97827 0.0
H5054 H 0.41728 0.0235 0.93199 0.0
H5055 H 0.44023 0.96149 0.09617 0.0
H5056 H 0.91591 0.60961 0.79331 0.0
H5057 H 0.89464 0.62732 0.78264 0.0
H5058 H 0.85174 0.58807 0.80049 0.0
H5059 H 0.87277 0.57063 0.81161 0.0
H5060 H 0.85015 0.59332 0.76002 0.0
H5061 H 0.85704 0.62678 0.82443 0.0
H5062 H 0.87675 0.64318 0.85275 0.0
H5063 H 0.90151 0.68627 0.82272 0.0
H5064 H 0.88203 0.66995 0.79413 0.0
H5065 H 0.78002 0.63505 0.73633 0.0
H5066 H 0.79992 0.62117 0.75457 0.0
H5067 H 0.84259 0.66978 0.75369 0.0
H5068 H 0.82237 0.68413 0.73629 0.0
H5069 H 0.84447 0.65937 0.78627 0.0
H5070 H 0.83712 0.627 0.72209 0.0
H5071 H 0.82068 0.60888 0.69237 0.0
H5072 H 0.79931 0.56243 0.72001 0.0
H5073 H 0.8154 0.58041 0.74999 0.0
C5074 C 0.90203 0.60516 0.79549 0.0
C5075 C 0.89593 0.58876 0.80316 0.0
C5076 C 0.88994 0.61514 0.78927 0.0
C5077 C 0.87176 0.60868 0.79063 0.0
C5078 C 0.86577 0.59303 0.79926 0.0
C5079 C 0.87782 0.58324 0.80572 0.0
C5080 C 0.85887 0.61773 0.7822 0.0
C5081 C 0.84858 0.60763 0.76583 0.0
C5082 C 0.85744 0.63647 0.78971 0.0
C5083 C 0.86811 0.64718 0.80719 0.0
C5084 C 0.86665 0.6398 0.82391 0.0
C5085 C 0.8778 0.64905 0.83998 0.0
C5086 C 0.89038 0.66576 0.83954 0.0
C5087 C 0.89173 0.67335 0.82305 0.0
C5088 C 0.8806 0.66414 0.80692 0.0
C5089 C 0.79361 0.64277 0.74025 0.0
C5090 C 0.79987 0.66045 0.73488 0.0
C5091 C 0.80495 0.63487 0.75057 0.0
C5092 C 0.8228 0.64428 0.75507 0.0
C5093 C 0.82886 0.66231 0.75029 0.0
C5094 C 0.8174 0.67043 0.74033 0.0
C5095 C 0.83533 0.63491 0.764 0.0
C5096 C 0.84573 0.64497 0.78046 0.0
C5097 C 0.83694 0.61607 0.75641 0.0
C5098 C 0.82731 0.60517 0.73835 0.0
C5099 C 0.82881 0.613 0.72187 0.0
C5100 C 0.81956 0.60274 0.70497 0.0
C5101 C 0.80891 0.58454 0.70432 0.0
C5102 C 0.80753 0.57655 0.72055 0.0
C5103 C 0.81671 0.58677 0.7375 0.0
H5104 H 0.80177 0.57663 0.69122 0.0
H5105 H 0.89909 0.67283 0.85197 0.0
H5106 H 0.85706 0.68882 0.00886 0.0
H5107 H 0.882 0.67309 0.01303 0.0
H5108 H 0.84503 0.62069 0.01622 0.0
H5109 H 0.82025 0.63619 0.01212 0.0
H5110 H 0.87024 0.63173 0.04587 0.0
H5111 H 0.86776 0.62528 0.97826 0.0
H5112 H 0.86932 0.63641 0.94797 0.0
H5113 H 0.92262 0.66814 0.96494 0.0
H5114 H 0.92129 0.65744 0.99546 0.0
H5115 H 0.91426 0.55669 0.03774 0.0
H5116 H 0.89585 0.57853 0.03056 0.0
H5117 H 0.94246 0.62361 0.03371 0.0
H5118 H 0.96116 0.60188 0.04158 0.0
H5119 H 0.91646 0.62126 0.00274 0.0
H5120 H 0.91998 0.6263 0.0691 0.0
H5121 H 0.9191 0.61484 0.09922 0.0
H5122 H 0.86442 0.58656 0.08488 0.0
H5123 H 0.86505 0.59759 0.05451 0.0
C5124 C 0.85429 0.6739 0.01027 0.0
C5125 C 0.83668 0.66379 0.01033 0.0
C5126 C 0.86854 0.66491 0.01256 0.0
C5127 C 0.86539 0.64571 0.01496 0.0
C5128 C 0.8478 0.63553 0.01447 0.0
C5129 C 0.83363 0.64443 0.01213 0.0
C5130 C 0.88015 0.63639 0.01947 0.0
C5131 C 0.88026 0.62936 0.03635 0.0
C5132 C 0.89371 0.63398 0.00744 0.0
C5133 C 0.89431 0.64081 0.98928 0.0
C5134 C 0.87972 0.63486 0.97565 0.0
C5135 C 0.88059 0.64103 0.95841 0.0
C5136 C 0.89603 0.65305 0.95456 0.0
C5137 C 0.91065 0.65889 0.96795 0.0
C5138 C 0.90984 0.65278 0.98523 0.0
C5139 C 0.92069 0.57128 0.0371 0.0
C5140 C 0.93923 0.57756 0.04059 0.0
C5141 C 0.91011 0.58372 0.03283 0.0
C5142 C 0.91775 0.60275 0.03182 0.0
C5143 C 0.9363 0.60897 0.03446 0.0
C5144 C 0.94696 0.5965 0.03891 0.0
C5145 C 0.90604 0.61608 0.02877 0.0
C5146 C 0.90656 0.62391 0.01232 0.0
C5147 C 0.89306 0.61939 0.04122 0.0
C5148 C 0.89262 0.61265 0.05945 0.0
C5149 C 0.90782 0.61749 0.07228 0.0
C5150 C 0.90735 0.6111 0.08942 0.0
C5151 C 0.89172 0.59995 0.09395 0.0
C5152 C 0.87652 0.59518 0.08135 0.0
C5153 C 0.87692 0.60152 0.06417 0.0
H5154 H 0.89139 0.59503 0.10723 0.0
H5155 H 0.89669 0.65777 0.94119 0.0
H5156 H 0.22747 0.0617 0.77548 0.0
H5157 H 0.24424 0.09467 0.77699 0.0
H5158 H 0.19566 0.11501 0.78052 0.0
H5159 H 0.17893 0.08209 0.77864 0.0
H5160 H 0.21369 0.13544 0.7603 0.0
H5161 H 0.22991 0.12235 0.81954 0.0
H5162 H 0.24044 0.10429 0.84213 0.0
H5163 H 0.29088 0.11039 0.81899 0.0
H5164 H 0.28057 0.12833 0.79609 0.0
H5165 H 0.25505 0.23493 0.78557 0.0
H5166 H 0.23925 0.20233 0.78599 0.0
H5167 H 0.28778 0.1825 0.77906 0.0
H5168 H 0.30385 0.21551 0.77922 0.0
H5169 H 0.26966 0.16185 0.80119 0.0
H5170 H 0.25035 0.17697 0.74155 0.0
H5171 H 0.23747 0.19639 0.72197 0.0
H5172 H 0.18972 0.18803 0.7501 0.0
H5173 H 0.20239 0.16872 0.76998 0.0
C5174 C 0.2203 0.07315 0.77664 0.0
C5175 C 0.20165 0.0688 0.777 0.0
C5176 C 0.23001 0.09229 0.77764 0.0
C5177 C 0.22158 0.10806 0.77916 0.0
C5178 C 0.2029 0.10361 0.77936 0.0
C5179 C 0.19321 0.08452 0.77836 0.0
C5180 C 0.232 0.12893 0.78036 0.0
C5181 C 0.22583 0.1411 0.76944 0.0
C5182 C 0.24803 0.13707 0.79215 0.0
C5183 C 0.25441 0.12651 0.80598 0.0
C5184 C 0.24322 0.11975 0.8192 0.0
C5185 C 0.24915 0.10955 0.83207 0.0
C5186 C 0.2663 0.10615 0.83196 0.0
C5187 C 0.27759 0.11302 0.81903 0.0
C5188 C 0.27172 0.12323 0.80612 0.0
C5189 C 0.26257 0.22378 0.78416 0.0
C5190 C 0.28105 0.22846 0.78228 0.0
C5191 C 0.25331 0.20476 0.78423 0.0
C5192 C 0.26186 0.18914 0.78199 0.0
C5193 C 0.28045 0.19382 0.78067 0.0
C5194 C 0.2898 0.21299 0.7808 0.0
C5195 C 0.25148 0.16826 0.78091 0.0
C5196 C 0.25761 0.15611 0.79192 0.0
C5197 C 0.23511 0.16029 0.76958 0.0
C5198 C 0.22737 0.17152 0.75733 0.0
C5199 C 0.23713 0.17932 0.74358 0.0
C5200 C 0.22986 0.19032 0.73244 0.0
C5201 C 0.21281 0.19349 0.73481 0.0
C5202 C 0.20293 0.18558 0.74828 0.0
C5203 C 0.21014 0.17459 0.75947 0.0
H5204 H 0.20723 0.20204 0.7262 0.0
H5205 H 0.27087 0.09823 0.84193 0.0
H5206 H 0.36704 1.00202 0.29347 0.0
H5207 H 0.34763 0.97166 0.29585 0.0
H5208 H 0.39331 0.94689 0.30288 0.0
H5209 H 0.41296 0.97731 0.30058 0.0
H5210 H 0.36767 0.92765 0.27343 0.0
H5211 H 0.37263 0.95399 0.33866 0.0
H5212 H 0.37192 0.97849 0.3664 0.0
H5213 H 0.31636 0.9742 0.3525 0.0
H5214 H 0.3168 0.94986 0.32447 0.0
H5215 H 0.33328 0.84052 0.29177 0.0
H5216 H 0.34785 0.87422 0.30079 0.0
H5217 H 0.29894 0.89046 0.2858 0.0
H5218 H 0.284 0.85632 0.27749 0.0
H5219 H 0.32411 0.91485 0.32024 0.0
H5220 H 0.32139 0.88789 0.2529 0.0
H5221 H 0.32407 0.8614 0.22777 0.0
H5222 H 0.3781 0.86597 0.24863 0.0
H5223 H 0.3757 0.89237 0.27395 0.0
C5224 C 0.37294 0.99011 0.29556 0.0
C5225 C 0.39139 0.99176 0.29668 0.0
C5226 C 0.36189 0.97297 0.29715 0.0
C5227 C 0.36924 0.95746 0.29982 0.0
C5228 C 0.38764 0.95902 0.30102 0.0
C5229 C 0.39873 0.97621 0.29954 0.0
C5230 C 0.35758 0.93896 0.29909 0.0
C5231 C 0.3582 0.92481 0.2837 0.0
C5232 C 0.34516 0.93572 0.31241 0.0
C5233 C 0.3448 0.95026 0.32932 0.0
C5234 C 0.36029 0.9584 0.3414 0.0
C5235 C 0.35993 0.97224 0.35721 0.0
C5236 C 0.34412 0.97795 0.36118 0.0
C5237 C 0.32861 0.96978 0.34939 0.0
C5238 C 0.3289 0.95595 0.33354 0.0
C5239 C 0.32561 0.85137 0.29094 0.0
C5240 C 0.30765 0.84637 0.28455 0.0
C5241 C 0.3338 0.87041 0.29619 0.0
C5242 C 0.32427 0.88447 0.29403 0.0
C5243 C 0.3062 0.87955 0.28778 0.0
C5244 C 0.29787 0.86032 0.2828 0.0
C5245 C 0.3343 0.90373 0.29463 0.0
C5246 C 0.33337 0.91796 0.30988 0.0
C5247 C 0.34664 0.90713 0.28127 0.0
C5248 C 0.34835 0.89206 0.26532 0.0
C5249 C 0.33383 0.88324 0.2521 0.0
C5250 C 0.3353 0.86822 0.23785 0.0
C5251 C 0.35124 0.86198 0.23668 0.0
C5252 C 0.36578 0.87084 0.24958 0.0
C5253 C 0.36439 0.88586 0.26384 0.0
H5254 H 0.3524 0.85028 0.22581 0.0
H5255 H 0.34386 0.98867 0.37342 0.0
H5256 H 0.60512 0.3615 0.57969 0.0
H5257 H 0.60328 0.39099 0.56758 0.0
H5258 H 0.55288 0.39071 0.59032 0.0
H5259 H 0.55515 0.36197 0.60326 0.0
H5260 H 0.55647 0.39681 0.54866 0.0
H5261 H 0.58093 0.42005 0.61318 0.0
H5262 H 0.60269 0.42409 0.64039 0.0
H5263 H 0.64427 0.4492 0.60941 0.0
H5264 H 0.62279 0.44493 0.58184 0.0
H5265 H 0.53704 0.48625 0.54097 0.0
H5266 H 0.54142 0.45658 0.54843 0.0
H5267 H 0.59803 0.47794 0.55273 0.0
H5268 H 0.59323 0.50879 0.54671 0.0
H5269 H 0.59322 0.46004 0.57883 0.0
H5270 H 0.57 0.43876 0.51478 0.0
H5271 H 0.5489 0.436 0.48723 0.0
H5272 H 0.50667 0.40735 0.51523 0.0
H5273 H 0.52747 0.41013 0.54303 0.0
C5274 C 0.59363 0.3677 0.58208 0.0
C5275 C 0.58029 0.35926 0.5925 0.0
C5276 C 0.5926 0.38464 0.57516 0.0
C5277 C 0.5779 0.39328 0.57793 0.0
C5278 C 0.56437 0.38452 0.58791 0.0
C5279 C 0.56571 0.36803 0.59537 0.0
C5280 C 0.57664 0.41147 0.57071 0.0
C5281 C 0.56445 0.41065 0.55533 0.0
C5282 C 0.58733 0.42963 0.5789 0.0
C5283 C 0.6003 0.43183 0.59532 0.0
C5284 C 0.59475 0.42613 0.61204 0.0
C5285 C 0.60703 0.42853 0.62757 0.0
C5286 C 0.62487 0.43681 0.6266 0.0
C5287 C 0.63046 0.44272 0.61011 0.0
C5288 C 0.61825 0.44029 0.59453 0.0
C5289 C 0.55036 0.48501 0.54321 0.0
C5290 C 0.5645 0.50065 0.54316 0.0
C5291 C 0.55302 0.46744 0.54737 0.0
C5292 C 0.57016 0.46427 0.551 0.0
C5293 C 0.58454 0.47955 0.55012 0.0
C5294 C 0.58175 0.49735 0.54639 0.0
C5295 C 0.57291 0.44561 0.55667 0.0
C5296 C 0.58536 0.44627 0.57184 0.0
C5297 C 0.56266 0.42723 0.54804 0.0
C5298 C 0.55028 0.42476 0.53103 0.0
C5299 C 0.55621 0.43188 0.51506 0.0
C5300 C 0.5443 0.43033 0.49941 0.0
C5301 C 0.52645 0.42155 0.4995 0.0
C5302 C 0.5205 0.41416 0.51519 0.0
C5303 C 0.53235 0.41567 0.53088 0.0
H5304 H 0.51723 0.42046 0.48742 0.0
H5305 H 0.63434 0.43872 0.63865 0.0
H5306 H 0.46153 0.79198 0.41785 0.0
H5307 H 0.43389 0.79556 0.40243 0.0
H5308 H 0.43656 0.74916 0.35778 0.0
H5309 H 0.46484 0.74615 0.37295 0.0
H5310 H 0.42496 0.77276 0.34187 0.0
H5311 H 0.40476 0.74861 0.39669 0.0
H5312 H 0.40277 0.74746 0.43032 0.0
H5313 H 0.39056 0.80328 0.43965 0.0
H5314 H 0.39266 0.80484 0.40613 0.0
H5315 H 0.33692 0.765 0.30019 0.0
H5316 H 0.36384 0.76005 0.31587 0.0
H5317 H 0.36181 0.80616 0.36105 0.0
H5318 H 0.33443 0.81066 0.3456 0.0
H5319 H 0.37301 0.7823 0.37653 0.0
H5320 H 0.39351 0.80668 0.32189 0.0
H5321 H 0.39497 0.80769 0.28818 0.0
H5322 H 0.40649 0.75156 0.27855 0.0
H5323 H 0.40489 0.75012 0.31215 0.0
C5324 C 0.45628 0.78241 0.40477 0.0
C5325 C 0.46571 0.76869 0.39683 0.0
C5326 C 0.44013 0.78436 0.39592 0.0
C5327 C 0.43236 0.77241 0.37885 0.0
C5328 C 0.44184 0.75868 0.37087 0.0
C5329 C 0.45816 0.75688 0.37964 0.0
C5330 C 0.41493 0.77467 0.36906 0.0
C5331 C 0.41357 0.77452 0.34956 0.0
C5332 C 0.39979 0.77762 0.37869 0.0
C5333 C 0.39908 0.77692 0.39894 0.0
C5334 C 0.40184 0.76071 0.40595 0.0
C5335 C 0.40064 0.75997 0.42499 0.0
C5336 C 0.39659 0.77531 0.43712 0.0
C5337 C 0.39373 0.79142 0.43025 0.0
C5338 C 0.39492 0.79224 0.41124 0.0
C5339 C 0.34229 0.77441 0.31328 0.0
C5340 C 0.33348 0.7888 0.32101 0.0
C5341 C 0.35794 0.77155 0.32238 0.0
C5342 C 0.36578 0.78312 0.33962 0.0
C5343 C 0.35659 0.79703 0.34774 0.0
C5344 C 0.34075 0.79971 0.33873 0.0
C5345 C 0.38307 0.78045 0.34936 0.0
C5346 C 0.3844 0.78053 0.36885 0.0
C5347 C 0.39819 0.77747 0.33973 0.0
C5348 C 0.39888 0.77822 0.3195 0.0
C5349 C 0.3962 0.79449 0.31255 0.0
C5350 C 0.39708 0.79515 0.29347 0.0
C5351 C 0.40077 0.77968 0.28122 0.0
C5352 C 0.4036 0.76352 0.28804 0.0
C5353 C 0.40271 0.76278 0.3071 0.0
H5354 H 0.40146 0.78023 0.26646 0.0
H5355 H 0.39563 0.77468 0.45184 0.0
H5356 H 0.09746 0.74651 0.10116 0.0
H5357 H 0.09183 0.71197 0.0892 0.0
H5358 H 0.0418 0.71421 0.06157 0.0
H5359 H 0.04774 0.74913 0.07298 0.0
H5360 H 0.04006 0.68292 0.08336 0.0
H5361 H 0.06922 0.7062 0.03421 0.0
H5362 H 0.09163 0.72528 0.01805 0.0
H5363 H 0.13169 0.69899 0.03912 0.0
H5364 H 0.10956 0.67998 0.05573 0.0
H5365 H 0.03671 0.58567 0.02557 0.0
H5366 H 0.04018 0.62075 0.0303 0.0
H5367 H 0.0748 0.62671 0.08038 0.0
H5368 H 0.0702 0.5917 0.07646 0.0
H5369 H 0.08109 0.65357 0.04341 0.0
H5370 H 0.04788 0.63309 0.09646 0.0
H5371 H 0.02249 0.61288 0.1078 0.0
H5372 H 0.98636 0.63383 0.07383 0.0
H5373 H 0.01162 0.65371 0.06182 0.0
C5374 C 0.08534 0.73976 0.09232 0.0
C5375 C 0.07317 0.75079 0.08794 0.0
C5376 C 0.0821 0.71989 0.0855 0.0
C5377 C 0.06634 0.71022 0.07445 0.0
C5378 C 0.05406 0.72116 0.07006 0.0
C5379 C 0.05754 0.74122 0.07648 0.0
C5380 C 0.06293 0.68875 0.0678 0.0
C5381 C 0.04899 0.6766 0.07451 0.0
C5382 C 0.07426 0.68014 0.05597 0.0
C5383 C 0.08777 0.69187 0.04646 0.0
C5384 C 0.08286 0.70469 0.03565 0.0
C5385 C 0.0955 0.71544 0.02634 0.0
C5386 C 0.11309 0.7134 0.02762 0.0
C5387 C 0.11807 0.70059 0.0382 0.0
C5388 C 0.10548 0.68982 0.04757 0.0
C5389 C 0.04546 0.5945 0.0373 0.0
C5390 C 0.05373 0.58584 0.05028 0.0
C5391 C 0.04728 0.61459 0.04011 0.0
C5392 C 0.05764 0.62654 0.05583 0.0
C5393 C 0.0666 0.61793 0.06824 0.0
C5394 C 0.06422 0.59787 0.06582 0.0
C5395 C 0.05882 0.64788 0.0597 0.0
C5396 C 0.07224 0.65997 0.05233 0.0
C5397 C 0.04678 0.65639 0.07058 0.0
C5398 C 0.03165 0.64452 0.07789 0.0
C5399 C 0.03455 0.63309 0.0911 0.0
C5400 C 0.02017 0.62175 0.09772 0.0
C5401 C 1.00282 0.62197 0.09145 0.0
C5402 C 0.99981 0.63358 0.07859 0.0
C5403 C 0.01415 0.64485 0.07185 0.0
H5404 H 0.99171 0.61322 0.09662 0.0
H5405 H 0.12285 0.7217 0.02036 0.0
H5406 H 0.05598 0.27169 0.87165 0.0
H5407 H 0.08441 0.27415 0.85787 0.0
H5408 H 0.11027 0.27116 0.91109 0.0
H5409 H 0.08194 0.2698 0.92511 0.0
H5410 H 0.13261 0.29377 0.89705 0.0
H5411 H 0.10035 0.23178 0.87107 0.0
H5412 H 0.07451 0.20698 0.85589 0.0
H5413 H 0.07683 0.23189 0.80615 0.0
H5414 H 0.10257 0.257 0.82112 0.0
H5415 H 0.21149 0.28831 0.8476 0.0
H5416 H 0.18609 0.27895 0.86584 0.0
H5417 H 0.15028 0.28432 0.8204 0.0
H5418 H 0.17525 0.29269 0.80214 0.0
H5419 H 0.13486 0.25605 0.834 0.0
H5420 H 0.16848 0.32053 0.86561 0.0
H5421 H 0.19501 0.34221 0.88362 0.0
H5422 H 0.1916 0.30707 0.92597 0.0
H5423 H 0.1652 0.28509 0.90811 0.0
C5424 C 0.0677 0.27152 0.88043 0.0
C5425 C 0.0665 0.27042 0.89951 0.0
C5426 C 0.08408 0.2728 0.87248 0.0
C5427 C 0.0998 0.2724 0.88315 0.0
C5428 C 0.09859 0.27148 0.90232 0.0
C5429 C 0.08226 0.2706 0.91036 0.0
C5430 C 0.11729 0.27295 0.87428 0.0
C5431 C 0.13304 0.28532 0.88334 0.0
C5432 C 0.11845 0.26171 0.85656 0.0
C5433 C 0.10332 0.24634 0.84726 0.0
C5434 C 0.09532 0.232 0.85691 0.0
C5435 C 0.08069 0.21789 0.84835 0.0
C5436 C 0.07402 0.21788 0.83008 0.0
C5437 C 0.08202 0.23192 0.8203 0.0
C5438 C 0.09665 0.24607 0.8288 0.0
C5439 C 0.19816 0.28702 0.84136 0.0
C5440 C 0.19556 0.29141 0.82332 0.0
C5441 C 0.18355 0.28197 0.85197 0.0
C5442 C 0.16595 0.28137 0.84491 0.0
C5443 C 0.16348 0.28474 0.82651 0.0
C5444 C 0.17791 0.2896 0.81598 0.0
C5445 C 0.14994 0.27771 0.85623 0.0
C5446 C 0.13443 0.26453 0.84771 0.0
C5447 C 0.14924 0.28771 0.87472 0.0
C5448 C 0.165 0.30108 0.88543 0.0
C5449 C 0.17345 0.3174 0.87872 0.0
C5450 C 0.18846 0.32973 0.8889 0.0
C5451 C 0.19502 0.32598 0.90589 0.0
C5452 C 0.18654 0.30993 0.91278 0.0
C5453 C 0.17156 0.29754 0.90264 0.0
H5454 H 0.20664 0.33554 0.91374 0.0
H5455 H 0.06266 0.20698 0.82349 0.0
H5456 H 0.61852 0.76177 0.90717 0.0
H5457 H 0.61315 0.733 0.92154 0.0
H5458 H 0.56485 0.74726 0.94133 0.0
H5459 H 0.57106 0.7766 0.92841 0.0
H5460 H 0.58076 0.73784 0.96754 0.0
H5461 H 0.56776 0.70937 0.90144 0.0
H5462 H 0.57524 0.70357 0.86863 0.0
H5463 H 0.61878 0.67968 0.88537 0.0
H5464 H 0.61164 0.6855 0.91831 0.0
H5465 H 0.53334 0.65492 0.99086 0.0
H5466 H 0.54265 0.67783 0.97023 0.0
H5467 H 0.59441 0.66409 0.97054 0.0
H5468 H 0.58512 0.64101 0.9912 0.0
H5469 H 0.58076 0.67212 0.9346 0.0
H5470 H 0.59103 0.6997 1.00108 0.0
H5471 H 0.58189 0.70569 0.03322 0.0
H5472 H 0.54077 0.73165 0.01396 0.0
H5473 H 0.5495 0.72555 0.98166 0.0
C5474 C 0.60685 0.75867 0.91473 0.0
C5475 C 0.59529 0.77134 0.91699 0.0
C5476 C 0.60367 0.74217 0.92273 0.0
C5477 C 0.58846 0.73778 0.93236 0.0
C5478 C 0.57675 0.75036 0.93414 0.0
C5479 C 0.58029 0.76712 0.92679 0.0
C5480 C 0.58491 0.72072 0.94151 0.0
C5481 C 0.58057 0.72349 0.96015 0.0
C5482 C 0.58526 0.70199 0.9322 0.0
C5483 C 0.58925 0.698 0.91234 0.0
C5484 C 0.57895 0.70292 0.89812 0.0
C5485 C 0.58313 0.69964 0.87951 0.0
C5486 C 0.5975 0.6913 0.87493 0.0
C5487 C 0.60766 0.68614 0.88894 0.0
C5488 C 0.60353 0.6894 0.90758 0.0
C5489 C 0.54664 0.65666 0.98639 0.0
C5490 C 0.55864 0.64653 0.99292 0.0
C5491 C 0.55189 0.66958 0.97449 0.0
C5492 C 0.56927 0.67277 0.9691 0.0
C5493 C 0.58093 0.66177 0.97454 0.0
C5494 C 0.57564 0.6487 0.98639 0.0
C5495 C 0.57579 0.68939 0.96011 0.0
C5496 C 0.58095 0.68655 0.94177 0.0
C5497 C 0.57589 0.70812 0.96948 0.0
C5498 C 0.57085 0.71206 0.98896 0.0
C5499 C 0.57998 0.70659 0.0037 0.0
C5500 C 0.57488 0.71001 0.02194 0.0
C5501 C 0.56074 0.71902 0.02562 0.0
C5502 C 0.55171 0.72467 0.01108 0.0
C5503 C 0.55674 0.72125 0.99282 0.0
H5504 H 0.55681 0.72165 0.03975 0.0
H5505 H 0.60075 0.68882 0.86052 0.0
H5506 H 0.0549 0.77624 0.71244 0.0
H5507 H 0.08593 0.77619 0.72128 0.0
H5508 H 0.09443 0.76063 0.66295 0.0
H5509 H 0.06348 0.76031 0.65405 0.0
H5510 H 0.11025 0.74086 0.68472 0.0
H5511 H 0.10841 0.80548 0.68358 0.0
H5512 H 0.09559 0.83407 0.6905 0.0
H5513 H 0.10817 0.83762 0.74949 0.0
H5514 H 0.12075 0.80879 0.74295 0.0
H5515 H 0.20213 0.7571 0.71605 0.0
H5516 H 0.17625 0.76251 0.6984 0.0
H5517 H 0.15239 0.77537 0.75013 0.0
H5518 H 0.17826 0.77021 0.76783 0.0
H5519 H 0.14709 0.79917 0.72509 0.0
H5520 H 0.14419 0.73096 0.72493 0.0
H5521 H 0.15488 0.70104 0.71725 0.0
H5522 H 0.15062 0.70429 0.6587 0.0
H5523 H 0.14025 0.73449 0.66609 0.0
C5524 C 0.0634 0.77281 0.70155 0.0
C5525 C 0.05692 0.76857 0.6826 0.0
C5526 C 0.08107 0.77279 0.70658 0.0
C5527 C 0.09246 0.76872 0.69269 0.0
C5528 C 0.08585 0.76391 0.67381 0.0
C5529 C 0.06821 0.76386 0.66879 0.0
C5530 C 0.1114 0.77003 0.69796 0.0
C5531 C 0.11846 0.75371 0.69322 0.0
C5532 C 0.12206 0.7869 0.70881 0.0
C5533 C 0.1155 0.80493 0.71278 0.0
C5534 C 0.10845 0.81235 0.69803 0.0
C5535 C 0.10118 0.82857 0.70189 0.0
C5536 C 0.10106 0.83765 0.72042 0.0
C5537 C 0.10829 0.83058 0.73513 0.0
C5538 C 0.11552 0.8143 0.73136 0.0
C5539 C 0.19144 0.76133 0.72364 0.0
C5540 C 0.19198 0.76292 0.74326 0.0
C5541 C 0.17673 0.76442 0.71356 0.0
C5542 C 0.1624 0.76914 0.72299 0.0
C5543 C 0.16334 0.77168 0.74263 0.0
C5544 C 0.17797 0.7685 0.75269 0.0
C5545 C 0.14567 0.76971 0.71259 0.0
C5546 C 0.13904 0.78647 0.71621 0.0
C5547 C 0.13548 0.75329 0.70049 0.0
C5548 C 0.14172 0.73514 0.6961 0.0
C5549 C 0.14572 0.72541 0.71044 0.0
C5550 C 0.1517 0.70839 0.70614 0.0
C5551 C 0.1535 0.70081 0.68751 0.0
C5552 C 0.14929 0.71022 0.67314 0.0
C5553 C 0.14338 0.7273 0.67738 0.0
H5554 H 0.15811 0.6876 0.68421 0.0
H5555 H 0.09536 0.85017 0.72338 0.0
H5556 H 0.12324 0.38675 0.40874 0.0
H5557 H 0.11477 0.41764 0.41728 0.0
H5558 H 0.07554 0.39248 0.4512 0.0
H5559 H 0.08409 0.36174 0.44309 0.0
H5560 H 0.06273 0.41339 0.42433 0.0
H5561 H 0.1088 0.41815 0.47298 0.0
H5562 H 0.1388 0.41663 0.48498 0.0
H5563 H 0.16147 0.4626 0.45731 0.0
H5564 H 0.13156 0.46406 0.44472 0.0
H5565 H 0.0426 0.4867 0.49123 0.0
H5566 H 0.05265 0.45904 0.47473 0.0
H5567 H 0.08497 0.49559 0.44268 0.0
H5568 H 0.07462 0.52339 0.45908 0.0
H5569 H 0.10224 0.47081 0.46332 0.0
H5570 H 0.05311 0.46908 0.42006 0.0
H5571 H 0.02214 0.47006 0.41124 0.0
H5572 H 0.00384 0.41779 0.43151 0.0
H5573 H 0.03469 0.41673 0.44094 0.0
C5574 C 0.11318 0.38797 0.41846 0.0
C5575 C 0.10438 0.37193 0.42537 0.0
C5576 C 0.10821 0.40549 0.42308 0.0
C5577 C 0.09434 0.40705 0.43454 0.0
C5578 C 0.0861 0.39132 0.44211 0.0
C5579 C 0.09123 0.37392 0.43774 0.0
C5580 C 0.0886 0.42524 0.43905 0.0
C5581 C 0.0713 0.42599 0.43284 0.0
C5582 C 0.10001 0.44159 0.44985 0.0
C5583 C 0.11797 0.44101 0.45766 0.0
C5584 C 0.12019 0.42779 0.46927 0.0
C5585 C 0.13717 0.42695 0.4762 0.0
C5586 C 0.15204 0.43946 0.47184 0.0
C5587 C 0.14994 0.45287 0.46061 0.0
C5588 C 0.13297 0.4537 0.45355 0.0
C5589 C 0.05182 0.48874 0.48063 0.0
C5590 C 0.05811 0.50694 0.47642 0.0
C5591 C 0.05741 0.47301 0.47116 0.0
C5592 C 0.06945 0.47543 0.45754 0.0
C5593 C 0.0756 0.49361 0.45315 0.0
C5594 C 0.06972 0.50934 0.46241 0.0
C5595 C 0.07628 0.45895 0.44883 0.0
C5596 C 0.0938 0.45843 0.45434 0.0
C5597 C 0.06491 0.44274 0.43766 0.0
C5598 C 0.04629 0.44294 0.4314 0.0
C5599 C 0.0425 0.45787 0.4228 0.0
C5600 C 0.02495 0.45843 0.41767 0.0
C5601 C 0.01103 0.44401 0.42083 0.0
C5602 C 0.01464 0.42895 0.42907 0.0
C5603 C 0.03218 0.42837 0.43431 0.0
H5604 H 0.99745 0.44449 0.41687 0.0
H5605 H 0.16518 0.43879 0.47723 0.0
H5606 H 0.44484 0.26359 0.15796 0.0
H5607 H 0.41496 0.25817 0.1679 0.0
H5608 H 0.43622 0.2635 0.22518 0.0
H5609 H 0.46648 0.26859 0.21525 0.0
H5610 H 0.40557 0.23236 0.21172 0.0
H5611 H 0.42648 0.30101 0.21121 0.0
H5612 H 0.4392 0.3262 0.19375 0.0
H5613 H 0.39413 0.30807 0.15279 0.0
H5614 H 0.38131 0.28251 0.16982 0.0
H5615 H 0.33968 0.25701 0.26839 0.0
H5616 H 0.36778 0.2585 0.25367 0.0
H5617 H 0.33995 0.25513 0.19961 0.0
H5618 H 0.31196 0.25341 0.21427 0.0
H5619 H 0.37186 0.28297 0.20662 0.0
H5620 H 0.34748 0.21944 0.20959 0.0
H5621 H 0.33457 0.19132 0.2228 0.0
H5622 H 0.3852 0.19337 0.2513 0.0
H5623 H 0.39769 0.22332 0.24094 0.0
C5624 C 0.44322 0.26372 0.17271 0.0
C5625 C 0.45795 0.26692 0.18597 0.0
C5626 C 0.42615 0.26046 0.17828 0.0
C5627 C 0.42358 0.26068 0.19721 0.0
C5628 C 0.43815 0.26337 0.21048 0.0
C5629 C 0.45533 0.26648 0.20487 0.0
C5630 C 0.4057 0.25938 0.20332 0.0
C5631 C 0.39825 0.24355 0.21111 0.0
C5632 C 0.39596 0.27348 0.20108 0.0
C5633 C 0.40299 0.28979 0.19173 0.0
C5634 C 0.41928 0.30241 0.19849 0.0
C5635 C 0.42653 0.31672 0.18865 0.0
C5636 C 0.41749 0.31871 0.17215 0.0
C5637 C 0.40111 0.3065 0.16556 0.0
C5638 C 0.39384 0.29211 0.17531 0.0
C5639 C 0.33974 0.25664 0.25341 0.0
C5640 C 0.32407 0.25562 0.24239 0.0
C5641 C 0.35563 0.25756 0.24507 0.0
C5642 C 0.35577 0.25705 0.22565 0.0
C5643 C 0.34001 0.25578 0.21464 0.0
C5644 C 0.32415 0.25469 0.22295 0.0
C5645 C 0.37223 0.25669 0.21667 0.0
C5646 C 0.37923 0.27194 0.2078 0.0
C5647 C 0.38136 0.24178 0.21758 0.0
C5648 C 0.37347 0.22416 0.22481 0.0
C5649 C 0.3557 0.21454 0.21944 0.0
C5650 C 0.34836 0.19826 0.22661 0.0
C5651 C 0.35892 0.19077 0.23834 0.0
C5652 C 0.37679 0.19959 0.24292 0.0
C5653 C 0.38394 0.21643 0.23664 0.0
H5654 H 0.35339 0.17804 0.2437 0.0
H5655 H 0.42317 0.32974 0.16449 0.0
H5656 H 0.6445 0.48616 0.33208 0.0
H5657 H 0.63245 0.48932 0.36277 0.0
H5658 H 0.62449 0.54532 0.35745 0.0
H5659 H 0.63766 0.54256 0.32732 0.0
H5660 H 0.63051 0.54967 0.39125 0.0
H5661 H 0.58923 0.4957 0.35503 0.0
H5662 H 0.57906 0.46373 0.33522 0.0
H5663 H 0.60073 0.43805 0.37774 0.0
H5664 H 0.61121 0.4699 0.39771 0.0
H5665 H 0.57427 0.55715 0.46813 0.0
H5666 H 0.58629 0.55295 0.43736 0.0
H5667 H 0.60269 0.50242 0.44878 0.0
H5668 H 0.59034 0.50655 0.47955 0.0
H5669 H 0.59226 0.49509 0.41243 0.0
H5670 H 0.63246 0.54962 0.44887 0.0
H5671 H 0.64058 0.58155 0.46906 0.0
H5672 H 0.61898 0.60623 0.4257 0.0
H5673 H 0.61049 0.57438 0.40534 0.0
C5674 C 0.64011 0.49918 0.33727 0.0
C5675 C 0.64224 0.51398 0.32646 0.0
C5676 C 0.63287 0.50099 0.35517 0.0
C5677 C 0.62668 0.5175 0.36331 0.0
C5678 C 0.62885 0.53227 0.35239 0.0
C5679 C 0.63645 0.53062 0.3347 0.0
C5680 C 0.61849 0.51965 0.38292 0.0
C5681 C 0.62195 0.53758 0.39544 0.0
C5682 C 0.60734 0.50431 0.38977 0.0
C5683 C 0.60118 0.4852 0.37776 0.0
C5684 C 0.59193 0.48324 0.36009 0.0
C5685 C 0.5861 0.46515 0.34884 0.0
C5686 C 0.5893 0.44888 0.35519 0.0
C5687 C 0.5983 0.45067 0.37282 0.0
C5688 C 0.60418 0.46874 0.38411 0.0
C5689 C 0.58048 0.54512 0.46424 0.0
C5690 C 0.58119 0.53234 0.47694 0.0
C5691 C 0.58759 0.54271 0.44634 0.0
C5692 C 0.59603 0.52742 0.43996 0.0
C5693 C 0.59649 0.51446 0.45263 0.0
C5694 C 0.58936 0.51688 0.47057 0.0
C5695 C 0.60425 0.52502 0.42049 0.0
C5696 C 0.60081 0.50711 0.40808 0.0
C5697 C 0.61525 0.54038 0.41365 0.0
C5698 C 0.62071 0.55959 0.42565 0.0
C5699 C 0.62938 0.56185 0.44367 0.0
C5700 C 0.63404 0.57993 0.45515 0.0
C5701 C 0.63026 0.5959 0.44869 0.0
C5702 C 0.62188 0.59384 0.4307 0.0
C5703 C 0.61715 0.57578 0.41917 0.0
H5704 H 0.63385 0.60988 0.45761 0.0
H5705 H 0.58476 0.43488 0.34646 0.0
H5706 H 0.33673 0.89898 0.06256 0.0
H5707 H 0.34117 0.89215 0.09393 0.0
H5708 H 0.28587 0.89074 0.1017 0.0
H5709 H 0.28173 0.89915 0.07053 0.0
H5710 H 0.30609 0.90612 0.13363 0.0
H5711 H 0.30062 0.84988 0.08656 0.0
H5712 H 0.30775 0.83104 0.05751 0.0
H5713 H 0.36129 0.83785 0.08112 0.0
H5714 H 0.3546 0.85709 0.11017 0.0
H5715 H 0.30021 0.82792 0.1873 0.0
H5716 H 0.29622 0.85183 0.16836 0.0
H5717 H 0.35298 0.87127 0.17051 0.0
H5718 H 0.35715 0.84757 0.18972 0.0
H5719 H 0.33183 0.84903 0.13524 0.0
H5720 H 0.33457 0.90262 0.18474 0.0
H5721 H 0.32616 0.92192 0.21274 0.0
H5722 H 0.27501 0.9184 0.18458 0.0
H5723 H 0.28289 0.89865 0.15658 0.0
C5724 C 0.32549 0.89704 0.07092 0.0
C5725 C 0.30874 0.89884 0.06411 0.0
C5726 C 0.32807 0.89334 0.08884 0.0
C5727 C 0.31372 0.89044 0.09984 0.0
C5728 C 0.29704 0.8928 0.09328 0.0
C5729 C 0.29461 0.89725 0.0755 0.0
C5730 C 0.31599 0.88342 0.11744 0.0
C5731 C 0.31149 0.8935 0.13409 0.0
C5732 C 0.32323 0.86709 0.1178 0.0
C5733 C 0.32714 0.85505 0.1005 0.0
C5734 C 0.31394 0.84743 0.08553 0.0
C5735 C 0.31791 0.8367 0.06905 0.0
C5736 C 0.33497 0.83328 0.06746 0.0
C5737 C 0.34809 0.84054 0.08237 0.0
C5738 C 0.34422 0.85135 0.09884 0.0
C5739 C 0.31184 0.8377 0.18425 0.0
C5740 C 0.32903 0.83562 0.18955 0.0
C5741 C 0.3095 0.85152 0.1737 0.0
C5742 C 0.32431 0.86336 0.16832 0.0
C5743 C 0.34144 0.86236 0.17483 0.0
C5744 C 0.34379 0.84854 0.18537 0.0
C5745 C 0.32215 0.87182 0.15162 0.0
C5746 C 0.32649 0.86174 0.13495 0.0
C5747 C 0.31433 0.88777 0.15134 0.0
C5748 C 0.30926 0.89884 0.16859 0.0
C5749 C 0.32139 0.9056 0.18461 0.0
C5750 C 0.31674 0.91672 0.20048 0.0
C5751 C 0.30004 0.92133 0.20047 0.0
C5752 C 0.28792 0.91477 0.18461 0.0
C5753 C 0.29247 0.90359 0.16874 0.0
H5754 H 0.29651 0.93003 0.21272 0.0
H5755 H 0.33802 0.82498 0.05469 0.0
H5756 H 0.95766 0.51976 0.83952 0.0
H5757 H 0.96691 0.51343 0.87013 0.0
H5758 H 0.9474 0.56172 0.89746 0.0
H5759 H 0.93786 0.56805 0.86689 0.0
H5760 H 0.98534 0.56332 0.90014 0.0
H5761 H 0.93042 0.52468 0.90977 0.0
H5762 H 0.90368 0.49863 0.9032 0.0
H5763 H 0.93613 0.45688 0.90023 0.0
H5764 H 0.96312 0.48266 0.9065 0.0
H5765 H 0.01738 0.56449 0.9912 0.0
H5766 H 0.99893 0.56315 0.96276 0.0
H5767 H 0.01214 0.50972 0.93859 0.0
H5768 H 0.03032 0.5106 0.96774 0.0
H5769 H 0.97541 0.50946 0.93519 0.0
H5770 H 0.03037 0.54853 0.92335 0.0
H5771 H 0.0568 0.57489 0.93145 0.0
H5772 H 0.02346 0.61582 0.93843 0.0
H5773 H 0.99682 0.58967 0.93072 0.0
C5774 C 0.95527 0.52896 0.85207 0.0
C5775 C 0.94768 0.5448 0.85098 0.0
C5776 C 0.96011 0.52502 0.86946 0.0
C5777 C 0.95756 0.53699 0.88584 0.0
C5778 C 0.94914 0.55221 0.88482 0.0
C5779 C 0.94411 0.55603 0.86744 0.0
C5780 C 0.96798 0.53686 0.90309 0.0
C5781 C 0.983 0.55172 0.90805 0.0
C5782 C 0.96506 0.52127 0.9127 0.0
C5783 C 0.94886 0.50567 0.90835 0.0
C5784 C 0.9319 0.50996 0.90743 0.0
C5785 C 0.91668 0.49522 0.90385 0.0
C5786 C 0.9182 0.47611 0.90123 0.0
C5787 C 0.93497 0.47169 0.90222 0.0
C5788 C 0.95023 0.48637 0.9058 0.0
C5789 C 0.01657 0.55258 0.97973 0.0
C5790 C 0.02514 0.53762 0.9815 0.0
C5791 C 0.00602 0.55182 0.96357 0.0
C5792 C 0.00428 0.53635 0.94875 0.0
C5793 C 0.01341 0.52171 0.95006 0.0
C5794 C 0.02395 0.52239 0.96645 0.0
C5795 C 0.99278 0.53583 0.93198 0.0
C5796 C 0.97767 0.52095 0.92716 0.0
C5797 C 0.99557 0.55133 0.92227 0.0
C5798 C 0.0116 0.56713 0.92655 0.0
C5799 C 0.02868 0.56315 0.92671 0.0
C5800 C 0.04369 0.57805 0.93123 0.0
C5801 C 0.04181 0.59702 0.93545 0.0
C5802 C 0.0249 0.60112 0.93514 0.0
C5803 C 0.00984 0.58627 0.93068 0.0
H5804 H 0.05346 0.60854 0.93896 0.0
H5805 H 0.9064 0.46473 0.89849 0.0
H5806 H 0.28669 0.24262 0.56052 0.0
H5807 H 0.28752 0.25594 0.59416 0.0
H5808 H 0.31532 0.21337 0.60765 0.0
H5809 H 0.31433 0.2 0.57442 0.0
H5810 H 0.28867 0.21381 0.62797 0.0
H5811 H 0.33557 0.26201 0.61331 0.0
H5812 H 0.34933 0.28732 0.59648 0.0
H5813 H 0.31134 0.32055 0.61497 0.0
H5814 H 0.29722 0.29532 0.63175 0.0
H5815 H 0.30897 0.23862 0.72337 0.0
H5816 H 0.31083 0.23342 0.69024 0.0
H5817 H 0.2924 0.28512 0.68678 0.0
H5818 H 0.29504 0.29298 0.7214 0.0
H5819 H 0.31101 0.28102 0.66031 0.0
H5820 H 0.26481 0.23057 0.67638 0.0
H5821 H 0.254 0.20474 0.69392 0.0
H5822 H 0.29324 0.17464 0.67249 0.0
H5823 H 0.30429 0.20024 0.65484 0.0
C5824 C 0.29315 0.23627 0.57067 0.0
C5825 C 0.30031 0.22011 0.56469 0.0
C5826 C 0.29368 0.24395 0.58995 0.0
C5827 C 0.30147 0.23571 0.60366 0.0
C5828 C 0.30911 0.21999 0.59754 0.0
C5829 C 0.30855 0.21234 0.57842 0.0
C5830 C 0.30066 0.24227 0.62435 0.0
C5831 C 0.29365 0.22852 0.63501 0.0
C5832 C 0.30676 0.26152 0.63369 0.0
C5833 C 0.3152 0.27667 0.62359 0.0
C5834 C 0.33005 0.27463 0.61365 0.0
C5835 C 0.33794 0.28898 0.60415 0.0
C5836 C 0.33118 0.3055 0.6046 0.0
C5837 C 0.31654 0.30773 0.6146 0.0
C5838 C 0.3086 0.29342 0.62412 0.0
C5839 C 0.30528 0.24912 0.71581 0.0
C5840 C 0.30091 0.26591 0.72541 0.0
C5841 C 0.30593 0.24576 0.69644 0.0
C5842 C 0.30029 0.25786 0.68531 0.0
C5843 C 0.29621 0.27499 0.69473 0.0
C5844 C 0.29715 0.27928 0.71461 0.0
C5845 C 0.29913 0.25245 0.6641 0.0
C5846 C 0.30573 0.26638 0.65329 0.0
C5847 C 0.29276 0.2332 0.6545 0.0
C5848 C 0.28535 0.21733 0.66429 0.0
C5849 C 0.27105 0.21839 0.67533 0.0
C5850 C 0.26493 0.20382 0.68535 0.0
C5851 C 0.27295 0.1881 0.68437 0.0
C5852 C 0.28701 0.1868 0.67322 0.0
C5853 C 0.29316 0.20129 0.66315 0.0
H5854 H 0.26826 0.17691 0.69223 0.0
H5855 H 0.3373 0.31659 0.59724 0.0
H5856 H 0.62523 0.53081 0.22789 0.0
H5857 H 0.6121 0.53429 0.19762 0.0
H5858 H 0.6375 0.4911 0.16969 0.0
H5859 H 0.65201 0.48919 0.19997 0.0
H5860 H 0.63631 0.50837 0.14546 0.0
H5861 H 0.58408 0.49165 0.17776 0.0
H5862 H 0.56419 0.49462 0.20312 0.0
H5863 H 0.56276 0.55177 0.19546 0.0
H5864 H 0.58274 0.54917 0.17015 0.0
H5865 H 0.59139 0.5015 0.05542 0.0
H5866 H 0.60052 0.49629 0.08599 0.0
H5867 H 0.57659 0.54159 0.11182 0.0
H5868 H 0.56437 0.54426 0.08066 0.0
H5869 H 0.57721 0.52378 0.13713 0.0
H5870 H 0.63084 0.53815 0.10345 0.0
H5871 H 0.64843 0.53146 0.07662 0.0
H5872 H 0.64502 0.47403 0.08624 0.0
H5873 H 0.62734 0.48035 0.11302 0.0
C5874 C 0.62802 0.52189 0.21536 0.0
C5875 C 0.63988 0.50956 0.21708 0.0
C5876 C 0.6201 0.52368 0.19757 0.0
C5877 C 0.6228 0.51261 0.18018 0.0
C5878 C 0.63464 0.50015 0.18207 0.0
C5879 C 0.64305 0.49888 0.19981 0.0
C5880 C 0.61412 0.5143 0.16039 0.0
C5881 C 0.62324 0.5115 0.14399 0.0
C5882 C 0.59701 0.5187 0.15707 0.0
C5883 C 0.58504 0.52029 0.17224 0.0
C5884 C 0.57958 0.50487 0.18156 0.0
C5885 C 0.56828 0.50649 0.19591 0.0
C5886 C 0.56226 0.5234 0.20094 0.0
C5887 C 0.56746 0.5387 0.19158 0.0
C5888 C 0.57875 0.53716 0.17722 0.0
C5889 C 0.58779 0.51052 0.0674 0.0
C5890 C 0.57751 0.52417 0.0645 0.0
C5891 C 0.59372 0.50783 0.08551 0.0
C5892 C 0.59104 0.5195 0.10241 0.0
C5893 C 0.57989 0.53251 0.0997 0.0
C5894 C 0.57298 0.5344 0.08139 0.0
C5895 C 0.59944 0.51786 0.12233 0.0
C5896 C 0.5903 0.5207 0.13871 0.0
C5897 C 0.61639 0.51309 0.12562 0.0
C5898 C 0.62774 0.50971 0.11015 0.0
C5899 C 0.63394 0.52414 0.09987 0.0
C5900 C 0.64387 0.52039 0.08465 0.0
C5901 C 0.64782 0.50232 0.07972 0.0
C5902 C 0.64196 0.48801 0.09008 0.0
C5903 C 0.63203 0.49168 0.1053 0.0
H5904 H 0.65542 0.49942 0.06788 0.0
H5905 H 0.55354 0.52463 0.21206 0.0
H5906 H 0.30178 0.87112 0.96529 0.0
H5907 H 0.30904 0.8553 0.93525 0.0
H5908 H 0.34387 0.90785 0.92821 0.0
H5909 H 0.33655 0.92392 0.95829 0.0
H5910 H 0.32082 0.89086 0.89742 0.0
H5911 H 0.36293 0.87292 0.93669 0.0
H5912 H 0.37472 0.86119 0.96369 0.0
H5913 H 0.33869 0.80672 0.94628 0.0
H5914 H 0.32653 0.81818 0.9193 0.0
H5915 H 0.3446 0.83561 0.81633 0.0
H5916 H 0.34944 0.85389 0.84798 0.0
H5917 H 0.30508 0.81523 0.8642 0.0
H5918 H 0.29989 0.79668 0.83221 0.0
H5919 H 0.33971 0.82874 0.89004 0.0
H5920 H 0.2945 0.84949 0.85413 0.0
H5921 H 0.2823 0.86183 0.82778 0.0
H5922 H 0.32461 0.91188 0.83942 0.0
H5923 H 0.33729 0.89963 0.86565 0.0
C5924 C 0.31095 0.87931 0.95733 0.0
C5925 C 0.3186 0.89868 0.96398 0.0
C5926 C 0.31523 0.87023 0.94034 0.0
C5927 C 0.32727 0.8804 0.92991 0.0
C5928 C 0.33472 0.89983 0.93632 0.0
C5929 C 0.33044 0.90895 0.95336 0.0
C5930 C 0.33084 0.8708 0.9116 0.0
C5931 C 0.32542 0.87755 0.89575 0.0
C5932 C 0.33666 0.85338 0.90965 0.0
C5933 C 0.34376 0.84646 0.92601 0.0
C5934 C 0.35742 0.8585 0.9387 0.0
C5935 C 0.36419 0.85188 0.95398 0.0
C5936 C 0.35745 0.83323 0.95671 0.0
C5937 C 0.34392 0.82116 0.94415 0.0
C5938 C 0.3371 0.8277 0.92884 0.0
C5939 C 0.33594 0.8307 0.8266 0.0
C5940 C 0.32142 0.815 0.82167 0.0
C5941 C 0.33879 0.84123 0.84463 0.0
C5942 C 0.3274 0.83596 0.85801 0.0
C5943 C 0.31382 0.81945 0.85372 0.0
C5944 C 0.31076 0.80902 0.83551 0.0
C5945 C 0.329 0.84846 0.87615 0.0
C5946 C 0.33553 0.84229 0.89181 0.0
C5947 C 0.32426 0.86644 0.87791 0.0
C5948 C 0.31703 0.87346 0.86166 0.0
C5949 C 0.3014 0.86295 0.85088 0.0
C5950 C 0.29434 0.86998 0.83602 0.0
C5951 C 0.30267 0.88763 0.83193 0.0
C5952 C 0.31817 0.89821 0.84261 0.0
C5953 C 0.32531 0.89121 0.85745 0.0
H5954 H 0.29713 0.89309 0.82048 0.0
H5955 H 0.36272 0.82813 0.96855 0.0
H5956 H 0.96492 0.53671 0.75387 0.0
H5957 H 0.97365 0.53471 0.72181 0.0
H5958 H 0.92522 0.55034 0.70405 0.0
H5959 H 0.91594 0.55115 0.73591 0.0
H5960 H 0.93488 0.52392 0.67728 0.0
H5961 H 0.96231 0.58462 0.71544 0.0
H5962 H 0.978 0.60367 0.74518 0.0
H5963 H 0.02275 0.57777 0.73543 0.0
H5964 H 0.00722 0.55831 0.70584 0.0
H5965 H 0.98503 0.53034 0.59659 0.0
H5966 H 0.96686 0.54074 0.6212 0.0
H5967 H 0.00457 0.5317 0.66302 0.0
H5968 H 0.02337 0.52274 0.6388 0.0
H5969 H 0.99452 0.56398 0.67394 0.0
H5970 H 0.96511 0.49839 0.64198 0.0
H5971 H 0.94869 0.47499 0.61496 0.0
H5972 H 0.9079 0.50728 0.61434 0.0
H5973 H 0.92428 0.53108 0.64112 0.0
C5974 C 0.95619 0.53967 0.74308 0.0
C5975 C 0.94006 0.54456 0.74721 0.0
C5976 C 0.96109 0.53845 0.72484 0.0
C5977 C 0.95027 0.54297 0.71083 0.0
C5978 C 0.93376 0.54701 0.71478 0.0
C5979 C 0.92861 0.54764 0.73292 0.0
C5980 C 0.957 0.54487 0.69256 0.0
C5981 C 0.94775 0.53294 0.67637 0.0
C5982 C 0.97359 0.55699 0.69151 0.0
C5983 C 0.98363 0.57009 0.70834 0.0
C5984 C 0.97556 0.58312 0.71956 0.0
C5985 C 0.98439 0.59391 0.73645 0.0
C5986 C 1.00138 0.59196 0.74217 0.0
C5987 C 0.00962 0.57932 0.73095 0.0
C5988 C 1.00083 0.56845 0.71409 0.0
C5989 C 0.98962 0.53094 0.61108 0.0
C5990 C 0.00568 0.52573 0.61579 0.0
C5991 C 0.97913 0.53671 0.62506 0.0
C5992 C 0.98436 0.53689 0.64385 0.0
C5993 C 1.00035 0.53174 0.64855 0.0
C5994 C 0.01097 0.52633 0.63468 0.0
C5995 C 0.9732 0.54168 0.65899 0.0
C5996 C 0.9814 0.55537 0.67461 0.0
C5997 C 0.95577 0.53098 0.6595 0.0
C5998 C 0.94608 0.5167 0.64332 0.0
C5999 C 0.95274 0.50061 0.63594 0.0
C6000 C 0.94343 0.48726 0.62069 0.0
C6001 C 0.92731 0.48969 0.61288 0.0
C6002 C 0.92044 0.50546 0.62033 0.0
C6003 C 0.92975 0.5189 0.63552 0.0
H6004 H 0.9201 0.47932 0.60109 0.0
H6005 H 0.00814 0.60022 0.75531 0.0
H6006 H 0.30569 0.23967 0.46685 0.0
H6007 H 0.3057 0.24889 0.43572 0.0
H6008 H 0.28451 0.18996 0.40997 0.0
H6009 H 0.28479 0.18074 0.44074 0.0
H6010 H 0.30965 0.20402 0.39084 0.0
H6011 H 0.25901 0.22587 0.41498 0.0
H6012 H 0.24295 0.24431 0.43715 0.0
H6013 H 0.27649 0.29685 0.42917 0.0
H6014 H 0.29289 0.2787 0.40712 0.0
H6015 H 0.28449 0.21794 0.29803 0.0
H6016 H 0.28604 0.20923 0.32923 0.0
H6017 H 0.3039 0.26885 0.35424 0.0
H6018 H 0.30083 0.27743 0.32383 0.0
H6019 H 0.28098 0.2549 0.37409 0.0
H6020 H 0.33275 0.23366 0.3518 0.0
H6021 H 0.35103 0.21551 0.33223 0.0
H6022 H 0.31619 0.16262 0.33717 0.0
H6023 H 0.29779 0.18047 0.35692 0.0
C6024 C 0.30102 0.22871 0.45454 0.0
C6025 C 0.29526 0.20944 0.45638 0.0
C6026 C 0.30092 0.23401 0.4367 0.0
C6027 C 0.29495 0.22017 0.4203 0.0
C6028 C 0.28923 0.20097 0.42224 0.0
C6029 C 0.28935 0.19571 0.43995 0.0
C6030 C 0.29497 0.2253 0.40104 0.0
C6031 C 0.30315 0.21501 0.38716 0.0
C6032 C 0.28699 0.23998 0.39613 0.0
C6033 C 0.27731 0.25091 0.40958 0.0
C6034 C 0.26307 0.24134 0.4181 0.0
C6035 C 0.25388 0.25175 0.43061 0.0
C6036 C 0.25873 0.27174 0.43461 0.0
C6037 C 0.27277 0.28137 0.42609 0.0
C6038 C 0.28201 0.27103 0.41358 0.0
C6039 C 0.28891 0.22921 0.31015 0.0
C6040 C 0.29305 0.24857 0.30798 0.0
C6041 C 0.28993 0.22418 0.32808 0.0
C6042 C 0.29537 0.23832 0.34436 0.0
C6043 C 0.29972 0.25751 0.34212 0.0
C6044 C 0.29835 0.26249 0.32437 0.0
C6045 C 0.29564 0.23355 0.3638 0.0
C6046 C 0.2875 0.24392 0.37773 0.0
C6047 C 0.30372 0.21899 0.3688 0.0
C6048 C 0.31385 0.20838 0.35569 0.0
C6049 C 0.32887 0.21817 0.34849 0.0
C6050 C 0.33931 0.20793 0.33748 0.0
C6051 C 0.3348 0.18792 0.33352 0.0
C6052 C 0.31969 0.17811 0.34031 0.0
C6053 C 0.30929 0.18827 0.35145 0.0
H6054 H 0.34307 0.17999 0.32532 0.0
H6055 H 0.25158 0.27977 0.44428 0.0
H6056 H 0.31999 0.59532 0.5369 0.0
H6057 H 0.34948 0.58818 0.54113 0.0
H6058 H 0.37284 0.6397 0.52121 0.0
H6059 H 0.34362 0.64676 0.51669 0.0
H6060 H 0.38136 0.60792 0.50244 0.0
H6061 H 0.3811 0.63803 0.56585 0.0
H6062 H 0.36838 0.64406 0.59616 0.0
H6063 H 0.36779 0.58636 0.60333 0.0
H6064 H 0.38027 0.57987 0.57291 0.0
H6065 H 0.46516 0.58648 0.50979 0.0
H6066 H 0.44367 0.60597 0.51947 0.0
H6067 H 0.41035 0.55724 0.53614 0.0
H6068 H 0.4318 0.53767 0.52643 0.0
H6069 H 0.41011 0.59335 0.55948 0.0
H6070 H 0.40451 0.56192 0.49436 0.0
H6071 H 0.41399 0.55416 0.46263 0.0
H6072 H 0.42269 0.61346 0.45766 0.0
H6073 H 0.41371 0.62165 0.48962 0.0
C6074 C 0.33145 0.60506 0.53343 0.0
C6075 C 0.32959 0.6214 0.52623 0.0
C6076 C 0.34823 0.60114 0.5361 0.0
C6077 C 0.36321 0.61361 0.5317 0.0
C6078 C 0.36137 0.63005 0.52479 0.0
C6079 C 0.34468 0.63393 0.52207 0.0
C6080 C 0.38051 0.60833 0.53211 0.0
C6081 C 0.38794 0.60525 0.51501 0.0
C6082 C 0.38867 0.60448 0.5485 0.0
C6083 C 0.38154 0.60843 0.56703 0.0
C6084 C 0.37818 0.62658 0.57383 0.0
C6085 C 0.37101 0.63009 0.59104 0.0
C6086 C 0.36726 0.61559 0.60165 0.0
C6087 C 0.37072 0.59758 0.5951 0.0
C6088 C 0.37787 0.59399 0.57788 0.0
C6089 C 0.45342 0.5801 0.51591 0.0
C6090 C 0.44982 0.56057 0.5171 0.0
C6091 C 0.44129 0.59123 0.52151 0.0
C6092 C 0.42551 0.58291 0.52838 0.0
C6093 C 0.42255 0.56382 0.53091 0.0
C6094 C 0.43459 0.55263 0.52513 0.0
C6095 C 0.41079 0.59285 0.52975 0.0
C6096 C 0.4038 0.59665 0.54709 0.0
C6097 C 0.40285 0.59729 0.51352 0.0
C6098 C 0.40884 0.59245 0.49456 0.0
C6099 C 0.40878 0.57336 0.48666 0.0
C6100 C 0.414 0.56887 0.4686 0.0
C6101 C 0.41905 0.58332 0.45817 0.0
C6102 C 0.41889 0.6023 0.4658 0.0
C6103 C 0.41379 0.60688 0.48391 0.0
H6104 H 0.42299 0.57981 0.44414 0.0
H6105 H 0.36168 0.61832 0.61495 0.0
H6106 H 0.85436 0.9394 0.51595 0.0
H6107 H 0.8852 0.95557 0.51434 0.0
H6108 H 0.90234 0.92706 0.55727 0.0
H6109 H 0.87143 0.91044 0.55862 0.0
H6110 H 0.91879 0.96615 0.56345 0.0
H6111 H 0.91081 0.91231 0.51499 0.0
H6112 H 0.89706 0.8887 0.48695 0.0
H6113 H 0.9037 0.933 0.45374 0.0
H6114 H 0.91724 0.95697 0.48168 0.0
H6115 H 0.01173 0.98694 0.54394 0.0
H6116 H 0.9816 0.96953 0.54731 0.0
H6117 H 0.9598 1.00396 0.51315 0.0
H6118 H 0.98989 0.02188 0.51027 0.0
H6119 H 0.94662 0.96046 0.50326 0.0
H6120 H 0.95502 0.01434 0.5545 0.0
H6121 H 0.97105 0.0355 0.58304 0.0
H6122 H 0.96559 0.98768 0.61172 0.0
H6123 H 0.94985 0.96614 0.58319 0.0
C6124 C 0.86466 0.93659 0.52512 0.0
C6125 C 0.86032 0.92362 0.53747 0.0
C6126 C 0.88236 0.94581 0.52411 0.0
C6127 C 0.89626 0.94257 0.53562 0.0
C6128 C 0.89195 0.92988 0.54823 0.0
C6129 C 0.87424 0.92035 0.54898 0.0
C6130 C 0.91518 0.95249 0.53438 0.0
C6131 C 0.9249 0.96469 0.55032 0.0
C6132 C 0.92334 0.95074 0.51729 0.0
C6133 C 0.9148 0.93651 0.50051 0.0
C6134 C 0.90911 0.91709 0.50177 0.0
C6135 C 0.90141 0.90361 0.48588 0.0
C6136 C 0.89944 0.90936 0.46859 0.0
C6137 C 0.90519 0.92858 0.46716 0.0
C6138 C 0.91288 0.94212 0.48302 0.0
C6139 C 1.00051 0.99093 0.53728 0.0
C6140 C 1.00325 0.00595 0.52697 0.0
C6141 C 0.98327 0.98093 0.5392 0.0
C6142 C 0.96835 0.98536 0.53047 0.0
C6143 C 0.97105 1.00025 0.52003 0.0
C6144 C 0.98827 0.01059 0.51852 0.0
C6145 C 0.94996 0.97442 0.53216 0.0
C6146 C 0.94042 0.96194 0.51634 0.0
C6147 C 0.94211 0.97564 0.54942 0.0
C6148 C 0.95145 0.98858 0.56663 0.0
C6149 C 0.95741 0.00829 0.56682 0.0
C6150 C 0.96642 0.02036 0.58301 0.0
C6151 C 0.96938 0.01293 0.59917 0.0
C6152 C 0.96332 0.99341 0.59918 0.0
C6153 C 0.95435 0.98126 0.583 0.0
H6154 H 0.97634 0.0223 0.6117 0.0
H6155 H 0.89352 0.8989 0.45629 0.0
H6156 H 0.89299 0.11892 0.30073 0.0
H6157 H 0.87947 0.14667 0.3001 0.0
H6158 H 0.89976 0.15298 0.24693 0.0
H6159 H 0.91384 0.1256 0.248 0.0
H6160 H 0.9 0.18738 0.26096 0.0
H6161 H 0.84902 0.13465 0.26026 0.0
H6162 H 0.83185 0.10801 0.27335 0.0
H6163 H 0.8313 0.14621 0.32525 0.0
H6164 H 0.84857 0.17303 0.3125 0.0
H6165 H 0.84599 0.25132 0.23562 0.0
H6166 H 0.86001 0.22483 0.23956 0.0
H6167 H 0.83962 0.22384 0.29344 0.0
H6168 H 0.82556 0.25096 0.28951 0.0
H6169 H 0.83979 0.18777 0.28103 0.0
H6170 H 0.88764 0.24 0.28429 0.0
H6171 H 0.90718 0.26816 0.27589 0.0
H6172 H 0.91647 0.23378 0.22474 0.0
H6173 H 0.8968 0.20542 0.23272 0.0
C6174 C 0.89463 0.12599 0.28874 0.0
C6175 C 0.90479 0.11901 0.27436 0.0
C6176 C 0.88649 0.14223 0.28822 0.0
C6177 C 0.88754 0.15275 0.27311 0.0
C6178 C 0.89802 0.14591 0.25893 0.0
C6179 C 0.90625 0.12975 0.25951 0.0
C6180 C 0.87817 0.17045 0.27205 0.0
C6181 C 0.88667 0.18696 0.26507 0.0
C6182 C 0.86089 0.17171 0.27805 0.0
C6183 C 0.85016 0.15576 0.28548 0.0
C6184 C 0.84523 0.13734 0.27446 0.0
C6185 C 0.8355 0.12222 0.28182 0.0
C6186 C 0.83052 0.12541 0.30013 0.0
C6187 C 0.83517 0.14376 0.31108 0.0
C6188 C 0.8449 0.15892 0.30379 0.0
C6189 C 0.84432 0.24571 0.24849 0.0
C6190 C 0.8341 0.25408 0.26205 0.0
C6191 C 0.85273 0.23019 0.25086 0.0
C6192 C 0.85174 0.22151 0.26707 0.0
C6193 C 0.8412 0.22957 0.28063 0.0
C6194 C 0.83288 0.24542 0.27833 0.0
C6195 C 0.86143 0.20439 0.26944 0.0
C6196 C 0.85305 0.18808 0.2767 0.0
C6197 C 0.87901 0.20356 0.26415 0.0
C6198 C 0.89055 0.22061 0.259 0.0
C6199 C 0.89369 0.23847 0.27115 0.0
C6200 C 0.90483 0.25447 0.26649 0.0
C6201 C 0.91302 0.25277 0.24976 0.0
C6202 C 0.91009 0.23507 0.23767 0.0
C6203 C 0.89895 0.21903 0.24226 0.0
H6204 H 0.92168 0.26516 0.24621 0.0
H6205 H 0.82303 0.11368 0.30582 0.0
H6206 H 0.73214 0.092 0.02874 0.0
H6207 H 0.69975 0.08161 0.02744 0.0
H6208 H 0.69369 0.13398 0.00958 0.0
H6209 H 0.72579 0.14443 0.01085 0.0
H6210 H 0.67428 0.12666 0.03871 0.0
H6211 H 0.68394 0.0951 0.97853 0.0
H6212 H 0.69704 0.07459 0.9551 0.0
H6213 H 0.67745 0.026 0.98061 0.0
H6214 H 0.66441 0.04629 0.00436 0.0
H6215 H 0.58292 0.10386 0.00843 0.0
H6216 H 0.61478 0.11389 0.0153 0.0
H6217 H 0.61761 0.05608 0.02084 0.0
H6218 H 0.58604 0.0457 0.01045 0.0
H6219 H 0.6394 0.06659 0.99966 0.0
H6220 H 0.62872 0.10249 0.06092 0.0
H6221 H 0.61421 0.12557 0.08009 0.0
H6222 H 0.63427 0.16839 0.04779 0.0
H6223 H 0.649 0.14577 0.02863 0.0
C6224 C 0.72386 0.10117 0.0244 0.0
C6225 C 0.7314 0.11903 0.02002 0.0
C6226 C 0.70544 0.09525 0.02365 0.0
C6227 C 0.69449 0.10712 0.01848 0.0
C6228 C 0.70201 0.12475 0.01374 0.0
C6229 C 0.72032 0.13064 0.01445 0.0
C6230 C 0.67515 0.10149 0.01857 0.0
C6231 C 0.66657 0.11349 0.03025 0.0
C6232 C 0.66528 0.08444 0.00741 0.0
C6233 C 0.67343 0.07227 0.9934 0.0
C6234 C 0.68262 0.08009 0.9793 0.0
C6235 C 0.68998 0.06849 0.96591 0.0
C6236 C 0.68814 0.04902 0.96641 0.0
C6237 C 0.67891 0.0411 0.98028 0.0
C6238 C 0.67152 0.05264 0.9937 0.0
C6239 C 0.59036 0.0935 0.01176 0.0
C6240 C 0.58207 0.07421 0.00998 0.0
C6241 C 0.60859 0.09928 0.01599 0.0
C6242 C 0.61871 0.08595 0.01937 0.0
C6243 C 0.61012 0.06673 0.01857 0.0
C6244 C 0.59201 0.0608 0.01315 0.0
C6245 C 0.6383 0.09129 0.02052 0.0
C6246 C 0.64703 0.07941 0.00874 0.0
C6247 C 0.64823 0.1087 0.03131 0.0
C6248 C 0.63992 0.12244 0.04337 0.0
C6249 C 0.63002 0.11684 0.05797 0.0
C6250 C 0.62177 0.12981 0.0688 0.0
C6251 C 0.62326 0.14834 0.0651 0.0
C6252 C 0.63315 0.15404 0.05067 0.0
C6253 C 0.64155 0.14121 0.03991 0.0
H6254 H 0.61677 0.1583 0.07343 0.0
H6255 H 0.69383 0.04005 0.95602 0.0
H6256 H 0.1923 0.4831 0.25932 0.0
H6257 H 0.20413 0.45452 0.26082 0.0
H6258 H 0.2358 0.46582 0.21505 0.0
H6259 H 0.22457 0.49511 0.21408 0.0
H6260 H 0.20968 0.42238 0.22118 0.0
H6261 H 0.26094 0.47638 0.24161 0.0
H6262 H 0.27426 0.50859 0.25958 0.0
H6263 H 0.25836 0.49026 0.31059 0.0
H6264 H 0.24443 0.4581 0.29282 0.0
H6265 H 0.27701 0.36953 0.24702 0.0
H6266 H 0.2577 0.38703 0.23232 0.0
H6267 H 0.23616 0.4011 0.28523 0.0
H6268 H 0.25536 0.38378 0.29994 0.0
H6269 H 0.25872 0.43168 0.27102 0.0
H6270 H 0.20807 0.38043 0.25455 0.0
H6271 H 0.18881 0.34949 0.23975 0.0
H6272 H 0.19902 0.36228 0.18516 0.0
H6273 H 0.21859 0.39318 0.19963 0.0
C6274 C 0.20162 0.47929 0.24945 0.0
C6275 C 0.20776 0.49104 0.23668 0.0
C6276 C 0.20828 0.46309 0.25029 0.0
C6277 C 0.22076 0.4584 0.23808 0.0
C6278 C 0.22619 0.46952 0.22457 0.0
C6279 C 0.2199 0.4861 0.22409 0.0
C6280 C 0.22906 0.4427 0.24081 0.0
C6281 C 0.22079 0.42425 0.23161 0.0
C6282 C 0.2429 0.44557 0.2551 0.0
C6283 C 0.25138 0.46491 0.26581 0.0
C6284 C 0.26001 0.4793 0.25661 0.0
C6285 C 0.26772 0.49754 0.26677 0.0
C6286 C 0.26709 0.5015 0.2862 0.0
C6287 C 0.25877 0.48721 0.29552 0.0
C6288 C 0.25095 0.46898 0.2854 0.0
C6289 C 0.2677 0.37583 0.25529 0.0
C6290 C 0.26793 0.37592 0.27465 0.0
C6291 C 0.2566 0.38561 0.24687 0.0
C6292 C 0.24568 0.3953 0.2578 0.0
C6293 C 0.24455 0.3936 0.27666 0.0
C6294 C 0.25565 0.38399 0.28506 0.0
C6295 C 0.23939 0.41103 0.25134 0.0
C6296 C 0.24803 0.42962 0.26005 0.0
C6297 C 0.22566 0.40818 0.23689 0.0
C6298 C 0.21515 0.38894 0.22819 0.0
C6299 C 0.20658 0.37646 0.2394 0.0
C6300 C 0.19548 0.35898 0.23106 0.0
C6301 C 0.19278 0.35386 0.21153 0.0
C6302 C 0.20121 0.3662 0.20028 0.0
C6303 C 0.21232 0.38368 0.20855 0.0
H6304 H 0.18409 0.34039 0.20511 0.0
H6305 H 0.27311 0.51561 0.29405 0.0
H6306 H 0.27243 0.44324 0.05749 0.0
H6307 H 0.24494 0.45535 0.05703 0.0
H6308 H 0.21816 0.40349 0.01972 0.0
H6309 H 0.24545 0.39152 0.01998 0.0
H6310 H 0.21145 0.43239 0.0065 0.0
H6311 H 0.20855 0.4136 0.06548 0.0
H6312 H 0.2178 0.41099 0.09779 0.0
H6313 H 0.22257 0.47147 0.11552 0.0
H6314 H 0.21363 0.47452 0.08323 0.0
H6315 H 0.12825 0.45847 0.0037 0.0
H6316 H 0.15039 0.44053 0.01193 0.0
H6317 H 0.18189 0.49207 0.04608 0.0
H6318 H 0.15957 0.50988 0.03804 0.0
H6319 H 0.18429 0.46072 0.06176 0.0
H6320 H 0.18861 0.47745 0.99944 0.0
H6321 H 0.17696 0.47693 0.96701 0.0
H6322 H 0.16691 0.41547 0.95588 0.0
H6323 H 0.17824 0.41563 0.98835 0.0
C6324 C 0.26065 0.43441 0.04928 0.0
C6325 C 0.26124 0.41648 0.03864 0.0
C6326 C 0.24487 0.44128 0.04912 0.0
C6327 C 0.22933 0.43035 0.03837 0.0
C6328 C 0.22989 0.4123 0.02807 0.0
C6329 C 0.24557 0.40545 0.02823 0.0
C6330 C 0.21287 0.43816 0.03669 0.0
C6331 C 0.20541 0.43829 0.01865 0.0
C6332 C 0.20485 0.44598 0.05245 0.0
C6333 C 0.21066 0.44434 0.07183 0.0
C6334 C 0.2118 0.4264 0.0762 0.0
C6335 C 0.21693 0.42483 0.09453 0.0
C6336 C 0.22084 0.44107 0.10868 0.0
C6337 C 0.21959 0.45891 0.10453 0.0
C6338 C 0.21449 0.46057 0.08621 0.0
C6339 C 0.13967 0.4658 0.01337 0.0
C6340 C 0.1422 0.48553 0.0203 0.0
C6341 C 0.1524 0.45559 0.01797 0.0
C6342 C 0.16808 0.46499 0.02935 0.0
C6343 C 0.17001 0.48446 0.03723 0.0
C6344 C 0.15726 0.49465 0.03265 0.0
C6345 C 0.18317 0.45516 0.0316 0.0
C6346 C 0.19036 0.45469 0.04969 0.0
C6347 C 0.19076 0.44659 0.0159 0.0
C6348 C 0.1841 0.44655 0.99636 0.0
C6349 C 0.18381 0.46383 0.9901 0.0
C6350 C 0.17727 0.46359 0.97172 0.0
C6351 C 0.17116 0.44617 0.9594 0.0
C6352 C 0.17161 0.42895 0.96544 0.0
C6353 C 0.17809 0.4291 0.98383 0.0
H6354 H 0.16611 0.44602 0.94517 0.0
H6355 H 0.22477 0.43981 0.12288 0.0
H6356 H 0.92477 0.9993 0.28296 0.0
H6357 H 0.91009 0.96612 0.283 0.0
H6358 H 0.86167 0.97617 0.2585 0.0
H6359 H 0.87632 0.00987 0.25925 0.0
H6360 H 0.85113 0.95297 0.28003 0.0
H6361 H 0.89553 0.94687 0.23538 0.0
H6362 H 0.92589 0.95117 0.22529 0.0
H6363 H 0.94171 0.923 0.26886 0.0
H6364 H 0.91151 0.91871 0.27932 0.0
H6365 H 0.80598 0.85345 0.25779 0.0
H6366 H 0.82099 0.88659 0.25767 0.0
H6367 H 0.86963 0.87556 0.28051 0.0
H6368 H 0.85469 0.84228 0.28018 0.0
H6369 H 0.88043 0.89911 0.26017 0.0
H6370 H 0.83952 0.90512 0.30593 0.0
H6371 H 0.81058 0.90049 0.31928 0.0
H6372 H 0.79003 0.92892 0.27842 0.0
H6373 H 0.81881 0.93349 0.26467 0.0
C6374 C 0.91098 0.99459 0.27745 0.0
C6375 C 0.90206 0.0079 0.27099 0.0
C6376 C 0.90245 0.97513 0.27728 0.0
C6377 C 0.88447 0.96748 0.27024 0.0
C6378 C 0.87545 0.98089 0.26397 0.0
C6379 C 0.88398 1.0005 0.26433 0.0
C6380 C 0.87508 0.94605 0.26978 0.0
C6381 C 0.85761 0.94133 0.2753 0.0
C6382 C 0.88317 0.93002 0.26454 0.0
C6383 C 0.9013 0.93264 0.25823 0.0
C6384 C 0.90551 0.9417 0.24286 0.0
C6385 C 0.92269 0.94411 0.23708 0.0
C6386 C 0.93573 0.9374 0.24646 0.0
C6387 C 0.93161 0.92821 0.26162 0.0
C6388 C 0.91447 0.92578 0.26748 0.0
C6389 C 0.81982 0.85794 0.26299 0.0
C6390 C 0.82867 0.84452 0.2693 0.0
C6391 C 0.82859 0.87734 0.26302 0.0
C6392 C 0.84678 0.88468 0.26956 0.0
C6393 C 0.85572 0.8711 0.27543 0.0
C6394 C 0.84697 0.85169 0.27531 0.0
C6395 C 0.85638 0.90606 0.27012 0.0
C6396 C 0.87389 0.91075 0.26474 0.0
C6397 C 0.84853 0.92209 0.27594 0.0
C6398 C 0.83125 0.91946 0.28415 0.0
C6399 C 0.82879 0.91027 0.29972 0.0
C6400 C 0.81242 0.90767 0.30736 0.0
C6401 C 0.79846 0.91435 0.29966 0.0
C6402 C 0.80085 0.92371 0.28434 0.0
C6403 C 0.81719 0.92632 0.27662 0.0
H6404 H 0.78579 0.91232 0.3056 0.0
H6405 H 0.94901 0.93929 0.24195 0.0
H6406 H 0.70395 0.10279 0.73195 0.0
H6407 H 0.71647 0.13702 0.74129 0.0
H6408 H 0.7502 0.12587 0.78558 0.0
H6409 H 0.73775 0.09144 0.77634 0.0
H6410 H 0.72997 0.15856 0.79401 0.0
H6411 H 0.76883 0.13053 0.75071 0.0
H6412 H 0.77293 0.11093 0.72071 0.0
H6413 H 0.75083 0.14804 0.69041 0.0
H6414 H 0.7463 0.16765 0.72025 0.0
H6415 H 0.80169 0.2449 0.79947 0.0
H6416 H 0.79007 0.21008 0.79096 0.0
H6417 H 0.74071 0.21992 0.76809 0.0
H6418 H 0.75194 0.25451 0.77742 0.0
H6419 H 0.76987 0.18765 0.75029 0.0
H6420 H 0.71955 0.2045 0.78938 0.0
H6421 H 0.71293 0.22673 0.81644 0.0
H6422 H 0.75426 0.21414 0.85103 0.0
H6423 H 0.76134 0.19213 0.82396 0.0
C6424 C 0.7141 0.10764 0.74361 0.0
C6425 C 0.72017 0.09466 0.75331 0.0
C6426 C 0.72102 0.12707 0.74901 0.0
C6427 C 0.73403 0.13358 0.76409 0.0
C6428 C 0.74 0.12078 0.77399 0.0
C6429 C 0.73315 0.10127 0.76851 0.0
C6430 C 0.74259 0.15367 0.7683 0.0
C6431 C 0.7388 0.16496 0.78456 0.0
C6432 C 0.75367 0.1618 0.7556 0.0
C6433 C 0.75709 0.15043 0.7377 0.0
C6434 C 0.76475 0.13443 0.73765 0.0
C6435 C 0.76715 0.12333 0.72068 0.0
C6436 C 0.7621 0.1282 0.70367 0.0
C6437 C 0.75472 0.14426 0.7036 0.0
C6438 C 0.75225 0.15538 0.72053 0.0
C6439 C 0.78847 0.23942 0.79243 0.0
C6440 C 0.77776 0.25183 0.78833 0.0
C6441 C 0.78194 0.21981 0.78758 0.0
C6442 C 0.76468 0.21288 0.77899 0.0
C6443 C 0.75407 0.22533 0.77476 0.0
C6444 C 0.76049 0.24486 0.77984 0.0
C6445 C 0.75715 0.19257 0.77571 0.0
C6446 C 0.76111 0.18127 0.75969 0.0
C6447 C 0.74581 0.18459 0.78821 0.0
C6448 C 0.74091 0.1967 0.80476 0.0
C6449 C 0.72714 0.20643 0.8028 0.0
C6450 C 0.72338 0.21904 0.81807 0.0
C6451 C 0.73317 0.22183 0.83542 0.0
C6452 C 0.74671 0.21196 0.83756 0.0
C6453 C 0.75063 0.19945 0.82225 0.0
H6454 H 0.73025 0.23164 0.84718 0.0
H6455 H 0.76394 0.11956 0.69054 0.0
loop_
_geom_bond_atom_site_label_1
_geom_bond_atom_site_label_2
_geom_bond_distance
_geom_bond_site_symmetry_2
_ccdc_geom_bond_type
In0 O1 2.294 . S
In0 O2 2.326 . S
In0 O6 2.266 . S
In0 O7 2.326 . S
In0 O8 2.266 . S
In0 O9 2.326 . S
In0 O11 2.294 . S
In0 O12 2.326 . S
O1 In0 2.294 . S
O1 C10 1.240 . S
O2 In0 2.326 . S
O2 C10 1.252 . S
C3 O6 1.252 . S
C3 O7 1.260 . S
C4 O11 1.240 . S
C4 O12 1.252 . S
C5 O8 1.252 . S
C5 O9 1.260 . S
O6 In0 2.266 . S
O6 C3 1.252 . S
O7 In0 2.326 . S
O7 C3 1.260 . S
O8 In0 2.266 . S
O8 C5 1.252 . S
O9 In0 2.326 . S
O9 C5 1.260 . S
C10 O1 1.240 . S
C10 O2 1.252 . S
O11 In0 2.294 . S
O11 C4 1.240 . S
O12 In0 2.326 . S
O12 C4 1.252 . S
In13 O14 2.295 . S
In13 O15 2.326 . S
In13 O19 2.266 1_455 S
In13 O20 2.326 1_455 S
In13 O21 2.260 1_455 S
In13 O22 2.316 1_455 S
In13 O24 2.300 . S
In13 O25 2.336 . S
O14 In13 2.295 . S
O14 C23 1.240 . S
O15 In13 2.326 . S
O15 C23 1.252 . S
C16 O19 1.252 . S
C16 O20 1.260 . S
C17 O24 1.240 . S
C17 O25 1.252 . S
C18 O21 1.252 . S
C18 O22 1.260 . S
O19 In13 2.266 1_655 S
O19 C16 1.252 . S
O20 In13 2.326 1_655 S
O20 C16 1.260 . S
O21 In13 2.260 1_655 S
O21 C18 1.252 . S
O22 In13 2.316 1_655 S
O22 C18 1.260 . S
C23 O14 1.240 . S
C23 O15 1.252 . S
O24 In13 2.300 . S
O24 C17 1.240 . S
O25 In13 2.336 . S
O25 C17 1.252 . S
In26 O27 2.294 . S
In26 O28 2.326 . S
In26 O32 2.266 . S
In26 O33 2.326 . S
In26 O34 2.266 . S
In26 O35 2.326 . S
In26 O37 2.294 . S
In26 O38 2.326 . S
O27 In26 2.294 . S
O27 C36 1.240 . S
O28 In26 2.326 . S
O28 C36 1.252 . S
C29 O32 1.252 . S
C29 O33 1.260 . S
C30 O37 1.240 . S
C30 O38 1.252 . S
C31 O34 1.252 . S
C31 O35 1.260 . S
O32 In26 2.266 . S
O32 C29 1.252 . S
O33 In26 2.326 . S
O33 C29 1.260 . S
O34 In26 2.266 . S
O34 C31 1.252 . S
O35 In26 2.326 . S
O35 C31 1.260 . S
C36 O27 1.240 . S
C36 O28 1.252 . S
O37 In26 2.294 . S
O37 C30 1.240 . S
O38 In26 2.326 . S
O38 C30 1.252 . S
In39 O40 2.294 . S
In39 O41 2.326 . S
In39 O45 2.266 . S
In39 O46 2.326 . S
In39 O47 2.266 . S
In39 O48 2.326 . S
In39 O50 2.294 . S
In39 O51 2.326 . S
O40 In39 2.294 . S
O40 C49 1.240 . S
O41 In39 2.326 . S
O41 C49 1.252 . S
C42 O45 1.252 . S
C42 O46 1.260 . S
C43 O50 1.240 . S
C43 O51 1.252 . S
C44 O47 1.252 . S
C44 O48 1.260 . S
O45 In39 2.266 . S
O45 C42 1.252 . S
O46 In39 2.326 . S
O46 C42 1.260 . S
O47 In39 2.266 . S
O47 C44 1.252 . S
O48 In39 2.326 . S
O48 C44 1.260 . S
C49 O40 1.240 . S
C49 O41 1.252 . S
O50 In39 2.294 . S
O50 C43 1.240 . S
O51 In39 2.326 . S
O51 C43 1.252 . S
In52 O53 2.294 . S
In52 O54 2.326 . S
In52 O58 2.266 . S
In52 O59 2.326 . S
In52 O60 2.266 . S
In52 O61 2.326 . S
In52 O63 2.294 . S
In52 O64 2.326 . S
O53 In52 2.294 . S
O53 C62 1.240 . S
O54 In52 2.326 . S
O54 C62 1.252 . S
C55 O58 1.252 . S
C55 O59 1.260 . S
C56 O63 1.240 . S
C56 O64 1.252 . S
C57 O60 1.252 . S
C57 O61 1.260 . S
O58 In52 2.266 . S
O58 C55 1.252 . S
O59 In52 2.326 . S
O59 C55 1.260 . S
O60 In52 2.266 . S
O60 C57 1.252 . S
O61 In52 2.326 . S
O61 C57 1.260 . S
C62 O53 1.240 . S
C62 O54 1.252 . S
O63 In52 2.294 . S
O63 C56 1.240 . S
O64 In52 2.326 . S
O64 C56 1.252 . S
In65 O66 2.294 . S
In65 O67 2.326 . S
In65 O71 2.266 . S
In65 O72 2.326 . S
In65 O73 2.266 . S
In65 O74 2.326 . S
In65 O76 2.294 . S
In65 O77 2.326 . S
O66 In65 2.294 . S
O66 C75 1.240 . S
O67 In65 2.326 . S
O67 C75 1.252 . S
C68 O71 1.252 . S
C68 O72 1.260 . S
C69 O76 1.240 . S
C69 O77 1.252 . S
C70 O73 1.252 . S
C70 O74 1.260 . S
O71 In65 2.266 . S
O71 C68 1.252 . S
O72 In65 2.326 . S
O72 C68 1.260 . S
O73 In65 2.266 . S
O73 C70 1.252 . S
O74 In65 2.326 . S
O74 C70 1.260 . S
C75 O66 1.240 . S
C75 O67 1.252 . S
O76 In65 2.294 . S
O76 C69 1.240 . S
O77 In65 2.326 . S
O77 C69 1.252 . S
In78 O79 2.294 . S
In78 O80 2.326 . S
In78 O84 2.266 . S
In78 O85 2.326 . S
In78 O86 2.266 . S
In78 O87 2.326 . S
In78 O89 2.294 . S
In78 O90 2.326 . S
O79 In78 2.294 . S
O79 C88 1.240 . S
O80 In78 2.326 . S
O80 C88 1.252 . S
C81 O84 1.252 . S
C81 O85 1.260 . S
C82 O89 1.240 . S
C82 O90 1.252 . S
C83 O86 1.252 . S
C83 O87 1.260 . S
O84 In78 2.266 . S
O84 C81 1.252 . S
O85 In78 2.326 . S
O85 C81 1.260 . S
O86 In78 2.266 . S
O86 C83 1.252 . S
O87 In78 2.326 . S
O87 C83 1.260 . S
C88 O79 1.240 . S
C88 O80 1.252 . S
O89 In78 2.294 . S
O89 C82 1.240 . S
O90 In78 2.326 . S
O90 C82 1.252 . S
In91 O92 2.294 . S
In91 O93 2.326 . S
In91 O97 2.266 . S
In91 O98 2.326 . S
In91 O99 2.266 1_455 S
In91 O100 2.326 1_455 S
In91 O102 2.294 . S
In91 O103 2.326 . S
O92 In91 2.294 . S
O92 C101 1.240 . S
O93 In91 2.326 . S
O93 C101 1.252 . S
C94 O97 1.252 . S
C94 O98 1.260 . S
C95 O102 1.240 . S
C95 O103 1.252 . S
C96 O99 1.252 . S
C96 O100 1.260 . S
O97 In91 2.266 . S
O97 C94 1.252 . S
O98 In91 2.326 . S
O98 C94 1.260 . S
O99 In91 2.266 1_655 S
O99 C96 1.252 . S
O100 In91 2.326 1_655 S
O100 C96 1.260 . S
C101 O92 1.240 . S
C101 O93 1.252 . S
O102 In91 2.294 . S
O102 C95 1.240 . S
O103 In91 2.326 . S
O103 C95 1.252 . S
In104 O105 2.294 . S
In104 O106 2.326 . S
In104 O110 2.266 . S
In104 O111 2.326 . S
In104 O112 2.266 . S
In104 O113 2.326 1_545 S
In104 O115 2.294 . S
In104 O116 2.326 . S
O105 In104 2.294 . S
O105 C114 1.240 . S
O106 In104 2.326 . S
O106 C114 1.252 . S
C107 O110 1.252 . S
C107 O111 1.260 . S
C108 O115 1.240 . S
C108 O116 1.252 . S
C109 O112 1.252 1_565 S
C109 O113 1.260 . S
O110 In104 2.266 . S
O110 C107 1.252 . S
O111 In104 2.326 . S
O111 C107 1.260 . S
O112 In104 2.266 . S
O112 C109 1.252 1_545 S
O113 In104 2.326 1_565 S
O113 C109 1.260 . S
C114 O105 1.240 . S
C114 O106 1.252 . S
O115 In104 2.294 . S
O115 C108 1.240 . S
O116 In104 2.326 . S
O116 C108 1.252 . S
In117 O118 2.294 . S
In117 O119 2.326 . S
In117 O123 2.266 . S
In117 O124 2.326 . S
In117 O125 2.266 . S
In117 O126 2.326 . S
In117 O128 2.294 . S
In117 O129 2.326 . S
O118 In117 2.294 . S
O118 C127 1.240 . S
O119 In117 2.326 . S
O119 C127 1.252 . S
C120 O123 1.252 . S
C120 O124 1.260 . S
C121 O128 1.240 . S
C121 O129 1.252 . S
C122 O125 1.252 . S
C122 O126 1.260 . S
O123 In117 2.266 . S
O123 C120 1.252 . S
O124 In117 2.326 . S
O124 C120 1.260 . S
O125 In117 2.266 . S
O125 C122 1.252 . S
O126 In117 2.326 . S
O126 C122 1.260 . S
C127 O118 1.240 . S
C127 O119 1.252 . S
O128 In117 2.294 . S
O128 C121 1.240 . S
O129 In117 2.326 . S
O129 C121 1.252 . S
In130 O131 2.294 1_545 S
In130 O132 2.326 1_545 S
In130 O136 2.266 . S
In130 O137 2.326 . S
In130 O138 2.264 . S
In130 O139 2.322 . S
In130 O141 2.296 1_545 S
In130 O142 2.330 1_545 S
O131 In130 2.294 1_565 S
O131 C140 1.240 . S
O132 In130 2.326 1_565 S
O132 C140 1.252 . S
C133 O136 1.252 . S
C133 O137 1.260 . S
C134 O141 1.240 . S
C134 O142 1.252 . S
C135 O138 1.252 . S
C135 O139 1.260 . S
O136 In130 2.266 . S
O136 C133 1.252 . S
O137 In130 2.326 . S
O137 C133 1.260 . S
O138 In130 2.264 . S
O138 C135 1.252 . S
O139 In130 2.322 . S
O139 C135 1.260 . S
C140 O131 1.240 . S
C140 O132 1.252 . S
O141 In130 2.296 1_565 S
O141 C134 1.240 . S
O142 In130 2.330 1_565 S
O142 C134 1.252 . S
In143 O144 2.294 . S
In143 O145 2.326 . S
In143 O149 2.266 1_554 S
In143 O150 2.326 1_554 S
In143 O151 2.266 . S
In143 O152 2.326 . S
In143 O154 2.294 . S
In143 O155 2.326 . S
O144 In143 2.294 . S
O144 C153 1.240 . S
O145 In143 2.326 . S
O145 C153 1.252 . S
C146 O149 1.252 . S
C146 O150 1.260 . S
C147 O154 1.240 . S
C147 O155 1.252 . S
C148 O151 1.252 . S
C148 O152 1.260 . S
O149 In143 2.266 1_556 S
O149 C146 1.252 . S
O150 In143 2.326 1_556 S
O150 C146 1.260 . S
O151 In143 2.266 . S
O151 C148 1.252 . S
O152 In143 2.326 . S
O152 C148 1.260 . S
C153 O144 1.240 . S
C153 O145 1.252 . S
O154 In143 2.294 . S
O154 C147 1.240 . S
O155 In143 2.326 . S
O155 C147 1.252 . S
In156 O157 2.294 . S
In156 O158 2.326 . S
In156 O162 2.266 . S
In156 O163 2.326 . S
In156 O164 2.266 . S
In156 O165 2.326 . S
In156 O167 2.294 . S
In156 O168 2.326 . S
O157 In156 2.294 . S
O157 C166 1.240 . S
O158 In156 2.326 . S
O158 C166 1.252 . S
C159 O162 1.252 . S
C159 O163 1.260 . S
C160 O167 1.240 . S
C160 O168 1.252 . S
C161 O164 1.252 . S
C161 O165 1.260 . S
O162 In156 2.266 . S
O162 C159 1.252 . S
O163 In156 2.326 . S
O163 C159 1.260 . S
O164 In156 2.266 . S
O164 C161 1.252 . S
O165 In156 2.326 . S
O165 C161 1.260 . S
C166 O157 1.240 . S
C166 O158 1.252 . S
O167 In156 2.294 . S
O167 C160 1.240 . S
O168 In156 2.326 . S
O168 C160 1.252 . S
In169 O170 2.294 . S
In169 O171 2.326 . S
In169 O175 2.266 . S
In169 O176 2.326 . S
In169 O177 2.266 . S
In169 O178 2.326 1_554 S
In169 O180 2.294 . S
In169 O181 2.326 . S
O170 In169 2.294 . S
O170 C179 1.240 . S
O171 In169 2.326 . S
O171 C179 1.252 . S
C172 O175 1.252 . S
C172 O176 1.260 . S
C173 O180 1.240 . S
C173 O181 1.252 . S
C174 O177 1.252 1_556 S
C174 O178 1.260 . S
O175 In169 2.266 . S
O175 C172 1.252 . S
O176 In169 2.326 . S
O176 C172 1.260 . S
O177 In169 2.266 . S
O177 C174 1.252 1_554 S
O178 In169 2.326 1_556 S
O178 C174 1.260 . S
C179 O170 1.240 . S
C179 O171 1.252 . S
O180 In169 2.294 . S
O180 C173 1.240 . S
O181 In169 2.326 . S
O181 C173 1.252 . S
In182 O183 2.294 . S
In182 O184 2.326 . S
In182 O188 2.266 . S
In182 O189 2.326 . S
In182 O190 2.266 . S
In182 O191 2.326 . S
In182 O193 2.294 . S
In182 O194 2.326 . S
O183 In182 2.294 . S
O183 C192 1.240 . S
O184 In182 2.326 . S
O184 C192 1.252 . S
C185 O188 1.252 . S
C185 O189 1.260 . S
C186 O193 1.240 . S
C186 O194 1.252 . S
C187 O190 1.252 . S
C187 O191 1.260 . S
O188 In182 2.266 . S
O188 C185 1.252 . S
O189 In182 2.326 . S
O189 C185 1.260 . S
O190 In182 2.266 . S
O190 C187 1.252 . S
O191 In182 2.326 . S
O191 C187 1.260 . S
C192 O183 1.240 . S
C192 O184 1.252 . S
O193 In182 2.294 . S
O193 C186 1.240 . S
O194 In182 2.326 . S
O194 C186 1.252 . S
In195 O196 2.294 . S
In195 O197 2.326 . S
In195 O201 2.266 . S
In195 O202 2.326 . S
In195 O203 2.266 . S
In195 O204 2.326 . S
In195 O206 2.294 . S
In195 O207 2.326 . S
O196 In195 2.294 . S
O196 C205 1.240 . S
O197 In195 2.326 . S
O197 C205 1.252 . S
C198 O201 1.252 . S
C198 O202 1.260 . S
C199 O206 1.240 . S
C199 O207 1.252 . S
C200 O203 1.252 . S
C200 O204 1.260 . S
O201 In195 2.266 . S
O201 C198 1.252 . S
O202 In195 2.326 . S
O202 C198 1.260 . S
O203 In195 2.266 . S
O203 C200 1.252 . S
O204 In195 2.326 . S
O204 C200 1.260 . S
C205 O196 1.240 . S
C205 O197 1.252 . S
O206 In195 2.294 . S
O206 C199 1.240 . S
O207 In195 2.326 . S
O207 C199 1.252 . S
In208 O209 2.294 . S
In208 O210 2.326 . S
In208 O214 2.266 . S
In208 O215 2.326 . S
In208 O216 2.266 . S
In208 O217 2.326 . S
In208 O219 2.294 . S
In208 O220 2.326 . S
O209 In208 2.294 . S
O209 C218 1.240 . S
O210 In208 2.326 . S
O210 C218 1.252 . S
C211 O214 1.252 . S
C211 O215 1.260 . S
C212 O219 1.240 . S
C212 O220 1.252 . S
C213 O216 1.252 . S
C213 O217 1.260 . S
O214 In208 2.266 . S
O214 C211 1.252 . S
O215 In208 2.326 . S
O215 C211 1.260 . S
O216 In208 2.266 . S
O216 C213 1.252 . S
O217 In208 2.326 . S
O217 C213 1.260 . S
C218 O209 1.240 . S
C218 O210 1.252 . S
O219 In208 2.294 . S
O219 C212 1.240 . S
O220 In208 2.326 . S
O220 C212 1.252 . S
In221 O222 2.294 . S
In221 O223 2.326 . S
In221 O227 2.266 . S
In221 O228 2.326 . S
In221 O229 2.266 . S
In221 O230 2.326 . S
In221 O232 2.294 . S
In221 O233 2.326 . S
O222 In221 2.294 . S
O222 C231 1.240 . S
O223 In221 2.326 . S
O223 C231 1.252 . S
C224 O227 1.252 . S
C224 O228 1.260 . S
C225 O232 1.240 . S
C225 O233 1.252 . S
C226 O229 1.252 . S
C226 O230 1.260 . S
O227 In221 2.266 . S
O227 C224 1.252 . S
O228 In221 2.326 . S
O228 C224 1.260 . S
O229 In221 2.266 . S
O229 C226 1.252 . S
O230 In221 2.326 . S
O230 C226 1.260 . S
C231 O222 1.240 . S
C231 O223 1.252 . S
O232 In221 2.294 . S
O232 C225 1.240 . S
O233 In221 2.326 . S
O233 C225 1.252 . S
In234 O235 2.294 . S
In234 O236 2.326 . S
In234 O240 2.266 . S
In234 O241 2.326 . S
In234 O242 2.266 . S
In234 O243 2.326 . S
In234 O245 2.294 . S
In234 O246 2.326 . S
O235 In234 2.294 . S
O235 C244 1.240 . S
O236 In234 2.326 . S
O236 C244 1.252 . S
C237 O240 1.252 . S
C237 O241 1.260 . S
C238 O245 1.240 . S
C238 O246 1.252 . S
C239 O242 1.252 . S
C239 O243 1.260 . S
O240 In234 2.266 . S
O240 C237 1.252 . S
O241 In234 2.326 . S
O241 C237 1.260 . S
O242 In234 2.266 . S
O242 C239 1.252 . S
O243 In234 2.326 . S
O243 C239 1.260 . S
C244 O235 1.240 . S
C244 O236 1.252 . S
O245 In234 2.294 . S
O245 C238 1.240 . S
O246 In234 2.326 . S
O246 C238 1.252 . S
In247 O248 2.294 . S
In247 O249 2.326 . S
In247 O253 2.266 . S
In247 O254 2.326 . S
In247 O255 2.266 . S
In247 O256 2.326 . S
In247 O258 2.294 . S
In247 O259 2.326 . S
O248 In247 2.294 . S
O248 C257 1.240 . S
O249 In247 2.326 . S
O249 C257 1.252 . S
C250 O253 1.252 . S
C250 O254 1.260 . S
C251 O258 1.240 . S
C251 O259 1.252 . S
C252 O255 1.252 . S
C252 O256 1.260 . S
O253 In247 2.266 . S
O253 C250 1.252 . S
O254 In247 2.326 . S
O254 C250 1.260 . S
O255 In247 2.266 . S
O255 C252 1.252 . S
O256 In247 2.326 . S
O256 C252 1.260 . S
C257 O248 1.240 . S
C257 O249 1.252 . S
O258 In247 2.294 . S
O258 C251 1.240 . S
O259 In247 2.326 . S
O259 C251 1.252 . S
In260 O261 2.294 . S
In260 O262 2.326 . S
In260 O266 2.266 1_554 S
In260 O267 2.325 1_554 S
In260 O268 2.264 1_554 S
In260 O269 2.322 1_554 S
In260 O271 2.296 . S
In260 O272 2.330 . S
O261 In260 2.294 . S
O261 C270 1.240 . S
O262 In260 2.326 . S
O262 C270 1.252 . S
C263 O266 1.252 . S
C263 O267 1.260 . S
C264 O271 1.240 . S
C264 O272 1.252 . S
C265 O268 1.252 . S
C265 O269 1.260 . S
O266 In260 2.266 1_556 S
O266 C263 1.252 . S
O267 In260 2.325 1_556 S
O267 C263 1.260 . S
O268 In260 2.264 1_556 S
O268 C265 1.252 . S
O269 In260 2.322 1_556 S
O269 C265 1.260 . S
C270 O261 1.240 . S
C270 O262 1.252 . S
O271 In260 2.296 . S
O271 C264 1.240 . S
O272 In260 2.330 . S
O272 C264 1.252 . S
In273 O274 2.294 . S
In273 O275 2.326 . S
In273 O279 2.266 . S
In273 O280 2.326 . S
In273 O281 2.266 . S
In273 O282 2.326 . S
In273 O284 2.294 . S
In273 O285 2.326 . S
O274 In273 2.294 . S
O274 C283 1.240 . S
O275 In273 2.326 . S
O275 C283 1.252 . S
C276 O279 1.252 . S
C276 O280 1.260 . S
C277 O284 1.240 . S
C277 O285 1.252 . S
C278 O281 1.252 . S
C278 O282 1.260 . S
O279 In273 2.266 . S
O279 C276 1.252 . S
O280 In273 2.326 . S
O280 C276 1.260 . S
O281 In273 2.266 . S
O281 C278 1.252 . S
O282 In273 2.326 . S
O282 C278 1.260 . S
C283 O274 1.240 . S
C283 O275 1.252 . S
O284 In273 2.294 . S
O284 C277 1.240 . S
O285 In273 2.326 . S
O285 C277 1.252 . S
In286 O287 2.294 . S
In286 O288 2.326 . S
In286 O292 2.266 . S
In286 O293 2.326 . S
In286 O294 2.266 . S
In286 O295 2.326 . S
In286 O297 2.294 . S
In286 O298 2.326 . S
O287 In286 2.294 . S
O287 C296 1.240 . S
O288 In286 2.326 . S
O288 C296 1.252 . S
C289 O292 1.252 . S
C289 O293 1.260 . S
C290 O297 1.240 . S
C290 O298 1.252 . S
C291 O294 1.252 . S
C291 O295 1.260 . S
O292 In286 2.266 . S
O292 C289 1.252 . S
O293 In286 2.326 . S
O293 C289 1.260 . S
O294 In286 2.266 . S
O294 C291 1.252 . S
O295 In286 2.326 . S
O295 C291 1.260 . S
C296 O287 1.240 . S
C296 O288 1.252 . S
O297 In286 2.294 . S
O297 C290 1.240 . S
O298 In286 2.326 . S
O298 C290 1.252 . S
In299 O300 2.294 . S
In299 O301 2.326 . S
In299 O305 2.266 . S
In299 O306 2.326 . S
In299 O307 2.266 . S
In299 O308 2.326 . S
In299 O310 2.294 . S
In299 O311 2.326 . S
O300 In299 2.294 . S
O300 C309 1.240 . S
O301 In299 2.326 . S
O301 C309 1.252 . S
C302 O305 1.252 . S
C302 O306 1.260 . S
C303 O310 1.240 . S
C303 O311 1.252 . S
C304 O307 1.252 . S
C304 O308 1.260 . S
O305 In299 2.266 . S
O305 C302 1.252 . S
O306 In299 2.326 . S
O306 C302 1.260 . S
O307 In299 2.266 . S
O307 C304 1.252 . S
O308 In299 2.326 . S
O308 C304 1.260 . S
C309 O300 1.240 . S
C309 O301 1.252 . S
O310 In299 2.294 . S
O310 C303 1.240 . S
O311 In299 2.326 . S
O311 C303 1.252 . S
Tb312 N343 2.660 . S
Tb312 N350 2.600 1_554 S
Tb312 O356 2.546 1_554 S
Tb312 O357 2.610 . S
Tb312 O359 2.320 . S
Tb312 O360 2.552 . S
Tb312 O361 2.413 . S
Tb312 O363 2.362 . S
Tb312 O364 2.421 1_554 S
Tb312 C376 2.833 1_455 S
C313 C316 1.432 . S
C313 C317 1.414 . S
C313 N320 1.359 . S
C314 C316 1.417 . S
C314 C318 1.432 . S
C314 C326 1.410 . S
C315 C317 1.444 . S
C315 C318 1.317 . S
C315 H338 0.929 . S
C316 C313 1.432 . S
C316 C314 1.417 . S
C316 N324 1.360 . S
C317 C313 1.414 . S
C317 C315 1.444 . S
C317 C322 1.385 . S
C318 C314 1.432 . S
C318 C315 1.317 . S
C318 H330 0.930 . S
C319 C321 1.392 . S
C319 C322 1.370 . S
C319 H331 0.931 . S
N320 C313 1.359 . S
N320 C321 1.327 . S
N320 Tb323 2.600 . S
C321 C319 1.392 . S
C321 N320 1.327 . S
C321 H328 0.930 . S
C322 C317 1.385 . S
C322 C319 1.370 . S
C322 H341 0.930 . S
Tb323 N320 2.600 . S
Tb323 N324 2.660 . S
Tb323 O357 2.362 . S
Tb323 O358 2.421 . S
Tb323 O362 2.546 . S
Tb323 O363 2.610 . S
Tb323 O365 2.320 . S
Tb323 O366 2.552 . S
Tb323 O367 2.413 . S
Tb323 C387 2.833 . S
N324 C316 1.360 . S
N324 Tb323 2.660 . S
N324 C325 1.305 . S
C325 N324 1.305 . S
C325 C327 1.407 . S
C325 H332 0.930 . S
C326 C314 1.410 . S
C326 C327 1.345 . S
C326 H334 0.930 . S
C327 C325 1.407 . S
C327 C326 1.345 . S
C327 H329 0.930 1_554 S
H328 C321 0.930 . S
H329 C327 0.930 1_556 S
H330 C318 0.930 . S
H331 C319 0.931 . S
H332 C325 0.930 . S
H333 C347 0.930 . S
H334 C326 0.930 . S
H335 C353 0.930 . S
H336 C344 0.930 . S
H337 C351 0.931 . S
H338 C315 0.929 . S
H339 C345 0.921 1_655 S
H340 C378 0.930 . S
H341 C322 0.930 . S
H342 C377 0.929 . S
N343 Tb312 2.660 . S
N343 C344 1.305 . S
N343 C348 1.360 1_545 S
C344 H336 0.930 . S
C344 N343 1.305 . S
C344 C347 1.407 1_545 S
C345 H339 0.921 1_455 S
C345 C346 1.410 . S
C345 C347 1.345 . S
C346 C345 1.410 . S
C346 C348 1.417 . S
C346 C378 1.432 1_455 S
C347 H333 0.930 . S
C347 C344 1.407 1_565 S
C347 C345 1.345 . S
C348 N343 1.360 1_565 S
C348 C346 1.417 . S
C348 C352 1.432 . S
H349 C354 0.930 1_655 S
N350 Tb312 2.600 1_556 S
N350 C352 1.359 1_546 S
N350 C353 1.327 . S
C351 H337 0.931 . S
C351 C353 1.392 1_565 S
C351 C354 1.370 . S
C352 C348 1.432 . S
C352 N350 1.359 1_564 S
C352 C355 1.414 1_554 S
C353 H335 0.930 . S
C353 N350 1.327 . S
C353 C351 1.392 1_545 S
C354 H349 0.930 1_455 S
C354 C351 1.370 . S
C354 C355 1.385 . S
C355 C352 1.414 1_556 S
C355 C354 1.385 . S
C355 C377 1.444 1_455 S
O356 Tb312 2.546 1_556 S
O356 C376 1.251 1_456 S
O357 Tb312 2.610 . S
O357 Tb323 2.362 . S
O357 C368 1.283 . S
O358 Tb323 2.421 . S
O358 C375 1.262 . S
O359 Tb312 2.320 . S
O359 C375 1.260 . S
O360 Tb312 2.552 . S
O360 C368 1.243 . S
O361 Tb312 2.413 . S
O361 C376 1.256 1_455 S
O362 Tb323 2.546 . S
O362 C387 1.251 . S
O363 Tb312 2.362 . S
O363 Tb323 2.610 . S
O363 C379 1.283 . S
O364 Tb312 2.421 1_556 S
O364 C386 1.262 . S
O365 Tb323 2.320 . S
O365 C386 1.260 1_554 S
O366 Tb323 2.552 . S
O366 C379 1.243 . S
O367 Tb323 2.413 . S
O367 C387 1.256 . S
C368 O357 1.283 . S
C368 O360 1.243 . S
C369 C371 1.382 . S
C369 C373 1.393 1_554 S
C369 C376 1.500 . S
C370 C371 1.400 . S
C370 C372 1.336 1_554 S
C371 C369 1.382 . S
C371 C370 1.400 . S
C371 H388 0.930 . S
C372 C370 1.336 1_556 S
C372 C374 1.430 . S
C372 H389 0.944 . S
C373 C369 1.393 1_556 S
C373 C374 1.401 . S
C373 H390 0.930 . S
C374 C372 1.430 . S
C374 C373 1.401 . S
C374 H391 0.930 . S
C375 O358 1.262 . S
C375 O359 1.260 . S
C376 Tb312 2.833 1_655 S
C376 O356 1.251 1_654 S
C376 O361 1.256 1_655 S
C376 C369 1.500 . S
C377 H342 0.929 . S
C377 C355 1.444 1_655 S
C377 C378 1.317 1_556 S
C378 H340 0.930 . S
C378 C346 1.432 1_655 S
C378 C377 1.317 1_554 S
C379 O363 1.283 . S
C379 O366 1.243 . S
C380 C381 1.382 . S
C380 C384 1.393 . S
C380 C387 1.500 . S
C381 C380 1.382 . S
C381 C382 1.400 . S
C381 H392 0.930 . S
C382 C381 1.400 . S
C382 C383 1.384 . S
C383 C382 1.384 . S
C383 C385 1.392 . S
C383 H393 0.931 . S
C384 C380 1.393 . S
C384 C385 1.401 . S
C384 H394 0.930 . S
C385 C383 1.392 . S
C385 C384 1.401 . S
C385 H395 0.930 . S
C386 O364 1.262 . S
C386 O365 1.260 1_556 S
C387 Tb323 2.833 . S
C387 O362 1.251 . S
C387 O367 1.256 . S
C387 C380 1.500 . S
H388 C371 0.930 . S
H389 C372 0.944 . S
H390 C373 0.930 . S
H391 C374 0.930 . S
H392 C381 0.930 . S
H393 C383 0.931 . S
H394 C384 0.930 . S
H395 C385 0.930 . S
Tb396 N427 2.660 . S
Tb396 N434 2.600 . S
Tb396 O440 2.546 . S
Tb396 O441 2.610 . S
Tb396 O443 2.320 . S
Tb396 O444 2.552 . S
Tb396 O445 2.413 . S
Tb396 O447 2.362 . S
Tb396 O448 2.421 . S
Tb396 C460 2.833 . S
C397 C400 1.432 . S
C397 C401 1.414 . S
C397 N404 1.359 . S
C398 C400 1.417 . S
C398 C402 1.432 . S
C398 C410 1.410 . S
C399 C401 1.444 . S
C399 C402 1.317 . S
C399 H422 0.929 . S
C400 C397 1.432 . S
C400 C398 1.417 . S
C400 N408 1.360 . S
C401 C397 1.414 . S
C401 C399 1.444 . S
C401 C406 1.385 . S
C402 C398 1.432 . S
C402 C399 1.317 . S
C402 H414 0.930 . S
C403 C405 1.392 . S
C403 C406 1.370 . S
C403 H415 0.931 . S
N404 C397 1.359 . S
N404 C405 1.327 . S
N404 Tb407 2.600 . S
C405 C403 1.392 . S
C405 N404 1.327 . S
C405 H412 0.930 . S
C406 C401 1.385 . S
C406 C403 1.370 . S
C406 H425 0.930 . S
Tb407 N404 2.600 . S
Tb407 N408 2.660 . S
Tb407 O441 2.362 . S
Tb407 O442 2.421 . S
Tb407 O446 2.546 . S
Tb407 O447 2.610 . S
Tb407 O449 2.320 . S
Tb407 O450 2.552 . S
Tb407 O451 2.413 . S
Tb407 C471 2.833 . S
N408 C400 1.360 . S
N408 Tb407 2.660 . S
N408 C409 1.305 . S
C409 N408 1.305 . S
C409 C411 1.407 . S
C409 H416 0.930 . S
C410 C398 1.410 . S
C410 C411 1.345 . S
C410 H418 0.930 . S
C411 C409 1.407 . S
C411 C410 1.345 . S
C411 H413 0.930 . S
H412 C405 0.930 . S
H413 C411 0.930 . S
H414 C402 0.930 . S
H415 C403 0.931 . S
H416 C409 0.930 . S
H417 C431 0.930 . S
H418 C410 0.930 . S
H419 C437 0.930 . S
H420 C428 0.930 . S
H421 C435 0.931 . S
H422 C399 0.929 . S
H423 C429 0.930 . S
H424 C462 0.930 . S
H425 C406 0.930 . S
H426 C461 0.929 . S
N427 Tb396 2.660 . S
N427 C428 1.305 . S
N427 C432 1.360 . S
C428 H420 0.930 . S
C428 N427 1.305 . S
C428 C431 1.407 . S
C429 H423 0.930 . S
C429 C430 1.410 . S
C429 C431 1.345 . S
C430 C429 1.410 . S
C430 C432 1.417 . S
C430 C462 1.432 . S
C431 H417 0.930 . S
C431 C428 1.407 . S
C431 C429 1.345 . S
C432 N427 1.360 . S
C432 C430 1.417 . S
C432 C436 1.432 . S
H433 C438 0.930 . S
N434 Tb396 2.600 . S
N434 C436 1.359 . S
N434 C437 1.327 . S
C435 H421 0.931 . S
C435 C437 1.392 . S
C435 C438 1.370 . S
C436 C432 1.432 . S
C436 N434 1.359 . S
C436 C439 1.414 . S
C437 H419 0.930 . S
C437 N434 1.327 . S
C437 C435 1.392 . S
C438 H433 0.930 . S
C438 C435 1.370 . S
C438 C439 1.385 . S
C439 C436 1.414 . S
C439 C438 1.385 . S
C439 C461 1.444 . S
O440 Tb396 2.546 . S
O440 C460 1.251 . S
O441 Tb396 2.610 . S
O441 Tb407 2.362 . S
O441 C452 1.283 . S
O442 Tb407 2.421 . S
O442 C459 1.262 . S
O443 Tb396 2.320 . S
O443 C459 1.260 . S
O444 Tb396 2.552 . S
O444 C452 1.243 . S
O445 Tb396 2.413 . S
O445 C460 1.256 . S
O446 Tb407 2.546 . S
O446 C471 1.251 . S
O447 Tb396 2.362 . S
O447 Tb407 2.610 . S
O447 C463 1.283 . S
O448 Tb396 2.421 . S
O448 C470 1.262 . S
O449 Tb407 2.320 . S
O449 C470 1.260 . S
O450 Tb407 2.552 . S
O450 C463 1.243 . S
O451 Tb407 2.413 . S
O451 C471 1.256 . S
C452 O441 1.283 . S
C452 O444 1.243 . S
C453 C455 1.382 . S
C453 C457 1.393 . S
C453 C460 1.500 . S
C454 C455 1.400 . S
C454 C456 1.384 . S
C455 C453 1.382 . S
C455 C454 1.400 . S
C455 H472 0.930 . S
C456 C454 1.384 . S
C456 C458 1.392 . S
C456 H473 0.931 . S
C457 C453 1.393 . S
C457 C458 1.401 . S
C457 H474 0.930 . S
C458 C456 1.392 . S
C458 C457 1.401 . S
C458 H475 0.930 . S
C459 O442 1.262 . S
C459 O443 1.260 . S
C460 Tb396 2.833 . S
C460 O440 1.251 . S
C460 O445 1.256 . S
C460 C453 1.500 . S
C461 H426 0.929 . S
C461 C439 1.444 . S
C461 C462 1.317 . S
C462 H424 0.930 . S
C462 C430 1.432 . S
C462 C461 1.317 . S
C463 O447 1.283 . S
C463 O450 1.243 . S
C464 C465 1.382 . S
C464 C468 1.393 . S
C464 C471 1.500 . S
C465 C464 1.382 . S
C465 C466 1.400 . S
C465 H476 0.930 . S
C466 C465 1.400 . S
C466 C467 1.384 . S
C467 C466 1.384 . S
C467 C469 1.392 . S
C467 H477 0.931 . S
C468 C464 1.393 . S
C468 C469 1.401 . S
C468 H478 0.930 . S
C469 C467 1.392 . S
C469 C468 1.401 . S
C469 H479 0.930 . S
C470 O448 1.262 . S
C470 O449 1.260 . S
C471 Tb407 2.833 . S
C471 O446 1.251 . S
C471 O451 1.256 . S
C471 C464 1.500 . S
H472 C455 0.930 . S
H473 C456 0.931 . S
H474 C457 0.930 . S
H475 C458 0.930 . S
H476 C465 0.930 . S
H477 C467 0.931 . S
H478 C468 0.930 . S
H479 C469 0.930 . S
Tb480 N511 2.660 . S
Tb480 N518 2.600 . S
Tb480 O524 2.546 . S
Tb480 O525 2.610 . S
Tb480 O527 2.320 . S
Tb480 O528 2.552 1_545 S
Tb480 O529 2.413 . S
Tb480 O531 2.362 . S
Tb480 O532 2.421 . S
Tb480 C544 2.833 . S
C481 C484 1.432 . S
C481 C485 1.414 . S
C481 N488 1.342 1_565 S
C482 C484 1.417 . S
C482 C486 1.432 . S
C482 C494 1.410 . S
C483 C485 1.444 . S
C483 C486 1.317 . S
C483 H506 0.929 . S
C484 C481 1.432 . S
C484 C482 1.417 . S
C484 N492 1.360 . S
C485 C481 1.414 . S
C485 C483 1.444 . S
C485 C490 1.385 . S
C486 C482 1.432 . S
C486 C483 1.317 . S
C486 H498 0.930 . S
C487 C489 1.392 1_565 S
C487 C490 1.370 . S
C487 H499 0.927 1_565 S
N488 C481 1.342 1_545 S
N488 C489 1.329 . S
N488 Tb491 2.616 . S
C489 C487 1.392 1_545 S
C489 N488 1.329 . S
C489 H496 0.930 . S
C490 C485 1.385 . S
C490 C487 1.370 . S
C490 H509 0.930 . S
Tb491 N488 2.616 . S
Tb491 N492 2.660 1_545 S
Tb491 O525 2.362 . S
Tb491 O526 2.421 . S
Tb491 O530 2.546 . S
Tb491 O531 2.610 . S
Tb491 O533 2.320 . S
Tb491 O534 2.552 . S
Tb491 O535 2.413 . S
Tb491 C555 2.833 . S
N492 C484 1.360 . S
N492 Tb491 2.660 1_565 S
N492 C493 1.305 . S
C493 N492 1.305 . S
C493 C495 1.407 . S
C493 H500 0.930 . S
C494 C482 1.410 . S
C494 C495 1.345 . S
C494 H502 0.930 . S
C495 C493 1.407 . S
C495 C494 1.345 . S
C495 H497 0.930 . S
H496 C489 0.930 . S
H497 C495 0.930 . S
H498 C486 0.930 . S
H499 C487 0.927 1_545 S
H500 C493 0.930 . S
H501 C515 0.930 . S
H502 C494 0.930 . S
H503 C521 0.930 . S
H504 C512 0.930 . S
H505 C519 0.931 . S
H506 C483 0.929 . S
H507 C513 0.930 . S
H508 C546 0.930 . S
H509 C490 0.930 . S
H510 C545 0.929 . S
N511 Tb480 2.660 . S
N511 C512 1.305 . S
N511 C516 1.360 . S
C512 H504 0.930 . S
C512 N511 1.305 . S
C512 C515 1.407 . S
C513 H507 0.930 . S
C513 C514 1.410 . S
C513 C515 1.345 . S
C514 C513 1.410 . S
C514 C516 1.417 . S
C514 C546 1.432 . S
C515 H501 0.930 . S
C515 C512 1.407 . S
C515 C513 1.345 . S
C516 N511 1.360 . S
C516 C514 1.417 . S
C516 C520 1.432 . S
H517 C522 0.930 . S
N518 Tb480 2.600 . S
N518 C520 1.359 . S
N518 C521 1.327 . S
C519 H505 0.931 . S
C519 C521 1.392 . S
C519 C522 1.370 . S
C520 C516 1.432 . S
C520 N518 1.359 . S
C520 C523 1.414 . S
C521 H503 0.930 . S
C521 N518 1.327 . S
C521 C519 1.392 . S
C522 H517 0.930 . S
C522 C519 1.370 . S
C522 C523 1.385 . S
C523 C520 1.414 . S
C523 C522 1.385 . S
C523 C545 1.444 . S
O524 Tb480 2.546 . S
O524 C544 1.251 . S
O525 Tb480 2.610 . S
O525 Tb491 2.362 . S
O525 C536 1.283 1_545 S
O526 Tb491 2.421 . S
O526 C543 1.262 . S
O527 Tb480 2.320 . S
O527 C543 1.260 . S
O528 Tb480 2.552 1_565 S
O528 C536 1.243 . S
O529 Tb480 2.413 . S
O529 C544 1.256 . S
O530 Tb491 2.546 . S
O530 C555 1.251 . S
O531 Tb480 2.362 . S
O531 Tb491 2.610 . S
O531 C547 1.283 . S
O532 Tb480 2.421 . S
O532 C554 1.262 . S
O533 Tb491 2.320 . S
O533 C554 1.260 . S
O534 Tb491 2.552 . S
O534 C547 1.243 . S
O535 Tb491 2.413 . S
O535 C555 1.256 . S
C536 O525 1.283 1_565 S
C536 O528 1.243 . S
C537 C539 1.382 1_545 S
C537 C541 1.393 . S
C537 C544 1.500 . S
C538 C539 1.400 . S
C538 C540 1.384 . S
C539 C537 1.382 1_565 S
C539 C538 1.400 . S
C539 H556 0.930 . S
C540 C538 1.384 . S
C540 C542 1.392 . S
C540 H557 0.931 . S
C541 C537 1.393 . S
C541 C542 1.401 1_545 S
C541 H558 0.930 . S
C542 C540 1.392 . S
C542 C541 1.401 1_565 S
C542 H559 0.930 . S
C543 O526 1.262 . S
C543 O527 1.260 . S
C544 Tb480 2.833 . S
C544 O524 1.251 . S
C544 O529 1.256 . S
C544 C537 1.500 . S
C545 H510 0.929 . S
C545 C523 1.444 . S
C545 C546 1.317 . S
C546 H508 0.930 . S
C546 C514 1.432 . S
C546 C545 1.317 . S
C547 O531 1.283 . S
C547 O534 1.243 . S
C548 C549 1.382 . S
C548 C552 1.393 . S
C548 C555 1.500 . S
C549 C548 1.382 . S
C549 C550 1.400 . S
C549 H560 0.930 . S
C550 C549 1.400 . S
C550 C551 1.384 . S
C551 C550 1.384 . S
C551 C553 1.392 . S
C551 H561 0.931 . S
C552 C548 1.393 . S
C552 C553 1.401 . S
C552 H562 0.930 . S
C553 C551 1.392 . S
C553 C552 1.401 . S
C553 H563 0.930 . S
C554 O532 1.262 . S
C554 O533 1.260 . S
C555 Tb491 2.833 . S
C555 O530 1.251 . S
C555 O535 1.256 . S
C555 C548 1.500 . S
H556 C539 0.930 . S
H557 C540 0.931 . S
H558 C541 0.930 . S
H559 C542 0.930 . S
H560 C549 0.930 . S
H561 C551 0.931 . S
H562 C552 0.930 . S
H563 C553 0.930 . S
Tb564 N595 2.660 . S
Tb564 N602 2.600 . S
Tb564 O608 2.546 . S
Tb564 O609 2.610 . S
Tb564 O611 2.320 . S
Tb564 O612 2.552 . S
Tb564 O613 2.413 . S
Tb564 O615 2.362 . S
Tb564 O616 2.421 . S
Tb564 C628 2.833 . S
C565 C568 1.432 . S
C565 C569 1.414 . S
C565 N572 1.359 . S
C566 C568 1.417 . S
C566 C570 1.432 . S
C566 C578 1.410 . S
C567 C569 1.444 . S
C567 C570 1.317 . S
C567 H590 0.929 . S
C568 C565 1.432 . S
C568 C566 1.417 . S
C568 N576 1.360 . S
C569 C565 1.414 . S
C569 C567 1.444 . S
C569 C574 1.385 . S
C570 C566 1.432 . S
C570 C567 1.317 . S
C570 H582 0.930 . S
C571 C573 1.392 . S
C571 C574 1.370 . S
C571 H583 0.931 . S
N572 C565 1.359 . S
N572 C573 1.327 . S
N572 Tb575 2.600 . S
C573 C571 1.392 . S
C573 N572 1.327 . S
C573 H580 0.930 . S
C574 C569 1.385 . S
C574 C571 1.370 . S
C574 H593 0.930 . S
Tb575 N572 2.600 . S
Tb575 N576 2.660 . S
Tb575 O609 2.362 . S
Tb575 O610 2.421 . S
Tb575 O614 2.546 . S
Tb575 O615 2.610 . S
Tb575 O617 2.320 . S
Tb575 O618 2.552 . S
Tb575 O619 2.413 . S
Tb575 C639 2.833 . S
N576 C568 1.360 . S
N576 Tb575 2.660 . S
N576 C577 1.305 . S
C577 N576 1.305 . S
C577 C579 1.407 . S
C577 H584 0.930 . S
C578 C566 1.410 . S
C578 C579 1.345 . S
C578 H586 0.930 . S
C579 C577 1.407 . S
C579 C578 1.345 . S
C579 H581 0.930 . S
H580 C573 0.930 . S
H581 C579 0.930 . S
H582 C570 0.930 . S
H583 C571 0.931 . S
H584 C577 0.930 . S
H585 C599 0.930 . S
H586 C578 0.930 . S
H587 C605 0.930 . S
H588 C596 0.930 . S
H589 C603 0.931 . S
H590 C567 0.929 . S
H591 C597 0.930 . S
H592 C630 0.930 . S
H593 C574 0.930 . S
H594 C629 0.929 . S
N595 Tb564 2.660 . S
N595 C596 1.305 . S
N595 C600 1.360 . S
C596 H588 0.930 . S
C596 N595 1.305 . S
C596 C599 1.407 . S
C597 H591 0.930 . S
C597 C598 1.410 . S
C597 C599 1.345 . S
C598 C597 1.410 . S
C598 C600 1.417 . S
C598 C630 1.432 . S
C599 H585 0.930 . S
C599 C596 1.407 . S
C599 C597 1.345 . S
C600 N595 1.360 . S
C600 C598 1.417 . S
C600 C604 1.432 . S
H601 C606 0.930 . S
N602 Tb564 2.600 . S
N602 C604 1.359 . S
N602 C605 1.327 . S
C603 H589 0.931 . S
C603 C605 1.392 . S
C603 C606 1.370 . S
C604 C600 1.432 . S
C604 N602 1.359 . S
C604 C607 1.414 . S
C605 H587 0.930 . S
C605 N602 1.327 . S
C605 C603 1.392 . S
C606 H601 0.930 . S
C606 C603 1.370 . S
C606 C607 1.385 . S
C607 C604 1.414 . S
C607 C606 1.385 . S
C607 C629 1.444 . S
O608 Tb564 2.546 . S
O608 C628 1.251 . S
O609 Tb564 2.610 . S
O609 Tb575 2.362 . S
O609 C620 1.283 . S
O610 Tb575 2.421 . S
O610 C627 1.262 . S
O611 Tb564 2.320 . S
O611 C627 1.260 . S
O612 Tb564 2.552 . S
O612 C620 1.243 . S
O613 Tb564 2.413 . S
O613 C628 1.256 . S
O614 Tb575 2.546 . S
O614 C639 1.251 . S
O615 Tb564 2.362 . S
O615 Tb575 2.610 . S
O615 C631 1.283 . S
O616 Tb564 2.421 . S
O616 C638 1.262 . S
O617 Tb575 2.320 . S
O617 C638 1.260 . S
O618 Tb575 2.552 . S
O618 C631 1.243 . S
O619 Tb575 2.413 . S
O619 C639 1.256 . S
C620 O609 1.283 . S
C620 O612 1.243 . S
C621 C623 1.382 . S
C621 C625 1.393 . S
C621 C628 1.500 . S
C622 C623 1.400 . S
C622 C624 1.384 . S
C623 C621 1.382 . S
C623 C622 1.400 . S
C623 H640 0.930 . S
C624 C622 1.384 . S
C624 C626 1.392 . S
C624 H641 0.931 . S
C625 C621 1.393 . S
C625 C626 1.401 . S
C625 H642 0.930 . S
C626 C624 1.392 . S
C626 C625 1.401 . S
C626 H643 0.930 . S
C627 O610 1.262 . S
C627 O611 1.260 . S
C628 Tb564 2.833 . S
C628 O608 1.251 . S
C628 O613 1.256 . S
C628 C621 1.500 . S
C629 H594 0.929 . S
C629 C607 1.444 . S
C629 C630 1.317 . S
C630 H592 0.930 . S
C630 C598 1.432 . S
C630 C629 1.317 . S
C631 O615 1.283 . S
C631 O618 1.243 . S
C632 C633 1.382 . S
C632 C636 1.393 . S
C632 C639 1.500 . S
C633 C632 1.382 . S
C633 C634 1.400 . S
C633 H644 0.930 . S
C634 C633 1.400 . S
C634 C635 1.384 . S
C635 C634 1.384 . S
C635 C637 1.392 . S
C635 H645 0.931 . S
C636 C632 1.393 . S
C636 C637 1.401 . S
C636 H646 0.930 . S
C637 C635 1.392 . S
C637 C636 1.401 . S
C637 H647 0.930 . S
C638 O616 1.262 . S
C638 O617 1.260 . S
C639 Tb575 2.833 . S
C639 O614 1.251 . S
C639 O619 1.256 . S
C639 C632 1.500 . S
H640 C623 0.930 . S
H641 C624 0.931 . S
H642 C625 0.930 . S
H643 C626 0.930 . S
H644 C633 0.930 . S
H645 C635 0.931 . S
H646 C636 0.930 . S
H647 C637 0.930 . S
Tb648 N679 2.660 . S
Tb648 N686 2.600 . S
Tb648 O692 2.546 . S
Tb648 O693 2.610 . S
Tb648 O695 2.320 . S
Tb648 O696 2.552 . S
Tb648 O697 2.413 . S
Tb648 O699 2.362 . S
Tb648 O700 2.421 . S
Tb648 C712 2.833 . S
C649 C652 1.432 . S
C649 C653 1.414 . S
C649 N656 1.359 . S
C650 C652 1.417 . S
C650 C654 1.432 . S
C650 C662 1.410 . S
C651 C653 1.444 . S
C651 C654 1.317 . S
C651 H674 0.929 . S
C652 C649 1.432 . S
C652 C650 1.417 . S
C652 N660 1.360 . S
C653 C649 1.414 . S
C653 C651 1.444 . S
C653 C658 1.385 . S
C654 C650 1.432 . S
C654 C651 1.317 . S
C654 H666 0.930 . S
C655 C657 1.392 . S
C655 C658 1.370 . S
C655 H667 0.931 . S
N656 C649 1.359 . S
N656 C657 1.327 . S
N656 Tb659 2.601 1_565 S
C657 C655 1.392 . S
C657 N656 1.327 . S
C657 H664 0.930 . S
C658 C653 1.385 . S
C658 C655 1.370 . S
C658 H677 0.930 . S
Tb659 N656 2.601 1_545 S
Tb659 N660 2.660 1_545 S
Tb659 O693 2.358 . S
Tb659 O694 2.418 . S
Tb659 O698 2.549 1_545 S
Tb659 O699 2.607 . S
Tb659 O701 2.322 1_545 S
Tb659 O702 2.552 . S
Tb659 O703 2.417 1_545 S
Tb659 C723 2.837 1_545 S
N660 C652 1.360 . S
N660 Tb659 2.660 1_565 S
N660 C661 1.305 . S
C661 N660 1.305 . S
C661 C663 1.407 . S
C661 H668 0.930 . S
C662 C650 1.410 . S
C662 C663 1.345 . S
C662 H670 0.930 . S
C663 C661 1.407 . S
C663 C662 1.345 . S
C663 H665 0.930 1_455 S
H664 C657 0.930 . S
H665 C663 0.930 1_655 S
H666 C654 0.930 . S
H667 C655 0.931 . S
H668 C661 0.930 . S
H669 C683 0.930 . S
H670 C662 0.930 . S
H671 C689 0.930 . S
H672 C680 0.930 . S
H673 C687 0.931 1_655 S
H674 C651 0.929 . S
H675 C681 0.930 . S
H676 C714 0.930 . S
H677 C658 0.930 . S
H678 C713 0.929 . S
N679 Tb648 2.660 . S
N679 C680 1.305 . S
N679 C684 1.360 . S
C680 H672 0.930 . S
C680 N679 1.305 . S
C680 C683 1.407 . S
C681 H675 0.930 . S
C681 C682 1.410 . S
C681 C683 1.345 . S
C682 C681 1.410 . S
C682 C684 1.417 . S
C682 C714 1.432 . S
C683 H669 0.930 . S
C683 C680 1.407 . S
C683 C681 1.345 . S
C684 N679 1.360 . S
C684 C682 1.417 . S
C684 C688 1.432 . S
H685 C690 0.930 . S
N686 Tb648 2.600 . S
N686 C688 1.359 . S
N686 C689 1.327 . S
C687 H673 0.931 1_455 S
C687 C689 1.392 . S
C687 C690 1.370 . S
C688 C684 1.432 . S
C688 N686 1.359 . S
C688 C691 1.414 . S
C689 H671 0.930 . S
C689 N686 1.327 . S
C689 C687 1.392 . S
C690 H685 0.930 . S
C690 C687 1.370 . S
C690 C691 1.385 . S
C691 C688 1.414 . S
C691 C690 1.385 . S
C691 C713 1.444 . S
O692 Tb648 2.546 . S
O692 C712 1.251 . S
O693 Tb648 2.610 . S
O693 Tb659 2.358 . S
O693 C704 1.283 . S
O694 Tb659 2.418 . S
O694 C711 1.262 . S
O695 Tb648 2.320 . S
O695 C711 1.260 . S
O696 Tb648 2.552 . S
O696 C704 1.243 . S
O697 Tb648 2.413 . S
O697 C712 1.256 . S
O698 Tb659 2.549 1_565 S
O698 C723 1.251 . S
O699 Tb648 2.362 . S
O699 Tb659 2.607 . S
O699 C715 1.283 . S
O700 Tb648 2.421 . S
O700 C722 1.262 . S
O701 Tb659 2.322 1_565 S
O701 C722 1.247 1_565 S
O702 Tb659 2.552 . S
O702 C715 1.243 . S
O703 Tb659 2.417 1_565 S
O703 C723 1.256 . S
C704 O693 1.283 . S
C704 O696 1.243 . S
C705 C707 1.382 . S
C705 C709 1.393 . S
C705 C712 1.500 . S
C706 C707 1.400 . S
C706 C708 1.384 . S
C707 C705 1.382 . S
C707 C706 1.400 . S
C707 H724 0.930 . S
C708 C706 1.384 . S
C708 C710 1.392 . S
C708 H725 0.931 . S
C709 C705 1.393 . S
C709 C710 1.401 . S
C709 H726 0.930 . S
C710 C708 1.392 . S
C710 C709 1.401 . S
C710 H727 0.930 . S
C711 O694 1.262 . S
C711 O695 1.260 . S
C712 Tb648 2.833 . S
C712 O692 1.251 . S
C712 O697 1.256 . S
C712 C705 1.500 . S
C713 H678 0.929 . S
C713 C691 1.444 . S
C713 C714 1.317 . S
C714 H676 0.930 . S
C714 C682 1.432 . S
C714 C713 1.317 . S
C715 O699 1.283 . S
C715 O702 1.243 . S
C716 C717 1.382 . S
C716 C720 1.393 . S
C716 C723 1.500 . S
C717 C716 1.382 . S
C717 C718 1.400 . S
C717 H728 0.930 . S
C718 C717 1.400 . S
C718 C719 1.384 . S
C719 C718 1.384 . S
C719 C721 1.392 . S
C719 H729 0.931 . S
C720 C716 1.393 . S
C720 C721 1.401 . S
C720 H730 0.930 . S
C721 C719 1.392 . S
C721 C720 1.401 . S
C721 H731 0.930 . S
C722 O700 1.262 . S
C722 O701 1.247 1_545 S
C723 Tb659 2.837 1_565 S
C723 O698 1.251 . S
C723 O703 1.256 . S
C723 C716 1.500 . S
H724 C707 0.930 . S
H725 C708 0.931 . S
H726 C709 0.930 . S
H727 C710 0.930 . S
H728 C717 0.930 . S
H729 C719 0.931 . S
H730 C720 0.930 . S
H731 C721 0.930 . S
Tb732 N763 2.660 . S
Tb732 N770 2.600 . S
Tb732 O776 2.546 . S
Tb732 O777 2.610 . S
Tb732 O779 2.320 . S
Tb732 O780 2.552 . S
Tb732 O781 2.413 . S
Tb732 O783 2.362 . S
Tb732 O784 2.421 . S
Tb732 C796 2.833 . S
C733 C736 1.432 . S
C733 C737 1.414 . S
C733 N740 1.359 . S
C734 C736 1.417 . S
C734 C738 1.432 . S
C734 C746 1.410 . S
C735 C737 1.444 . S
C735 C738 1.317 . S
C735 H758 0.929 . S
C736 C733 1.432 . S
C736 C734 1.417 . S
C736 N744 1.360 . S
C737 C733 1.414 . S
C737 C735 1.444 . S
C737 C742 1.385 . S
C738 C734 1.432 . S
C738 C735 1.317 . S
C738 H750 0.930 . S
C739 C741 1.392 . S
C739 C742 1.370 . S
C739 H751 0.931 . S
N740 C733 1.359 . S
N740 C741 1.327 . S
N740 Tb743 2.600 . S
C741 C739 1.392 . S
C741 N740 1.327 . S
C741 H748 0.930 . S
C742 C737 1.385 . S
C742 C739 1.370 . S
C742 H761 0.930 . S
Tb743 N740 2.600 . S
Tb743 N744 2.660 . S
Tb743 O777 2.362 . S
Tb743 O778 2.421 . S
Tb743 O782 2.546 . S
Tb743 O783 2.610 . S
Tb743 O785 2.320 . S
Tb743 O786 2.552 . S
Tb743 O787 2.413 . S
Tb743 C807 2.833 . S
N744 C736 1.360 . S
N744 Tb743 2.660 . S
N744 C745 1.305 . S
C745 N744 1.305 . S
C745 C747 1.407 . S
C745 H752 0.930 . S
C746 C734 1.410 . S
C746 C747 1.345 . S
C746 H754 0.930 . S
C747 C745 1.407 . S
C747 C746 1.345 . S
C747 H749 0.930 . S
H748 C741 0.930 . S
H749 C747 0.930 . S
H750 C738 0.930 . S
H751 C739 0.931 . S
H752 C745 0.930 . S
H753 C767 0.930 . S
H754 C746 0.930 . S
H755 C773 0.930 . S
H756 C764 0.930 . S
H757 C771 0.931 . S
H758 C735 0.929 . S
H759 C765 0.930 . S
H760 C798 0.930 . S
H761 C742 0.930 . S
H762 C797 0.929 . S
N763 Tb732 2.660 . S
N763 C764 1.305 . S
N763 C768 1.360 . S
C764 H756 0.930 . S
C764 N763 1.305 . S
C764 C767 1.407 . S
C765 H759 0.930 . S
C765 C766 1.410 . S
C765 C767 1.345 . S
C766 C765 1.410 . S
C766 C768 1.417 . S
C766 C798 1.432 . S
C767 H753 0.930 . S
C767 C764 1.407 . S
C767 C765 1.345 . S
C768 N763 1.360 . S
C768 C766 1.417 . S
C768 C772 1.432 . S
H769 C774 0.930 . S
N770 Tb732 2.600 . S
N770 C772 1.359 . S
N770 C773 1.327 . S
C771 H757 0.931 . S
C771 C773 1.392 . S
C771 C774 1.370 . S
C772 C768 1.432 . S
C772 N770 1.359 . S
C772 C775 1.414 . S
C773 H755 0.930 . S
C773 N770 1.327 . S
C773 C771 1.392 . S
C774 H769 0.930 . S
C774 C771 1.370 . S
C774 C775 1.385 . S
C775 C772 1.414 . S
C775 C774 1.385 . S
C775 C797 1.444 . S
O776 Tb732 2.546 . S
O776 C796 1.251 . S
O777 Tb732 2.610 . S
O777 Tb743 2.362 . S
O777 C788 1.283 . S
O778 Tb743 2.421 . S
O778 C795 1.262 . S
O779 Tb732 2.320 . S
O779 C795 1.260 . S
O780 Tb732 2.552 . S
O780 C788 1.243 . S
O781 Tb732 2.413 . S
O781 C796 1.256 . S
O782 Tb743 2.546 . S
O782 C807 1.251 . S
O783 Tb732 2.362 . S
O783 Tb743 2.610 . S
O783 C799 1.283 . S
O784 Tb732 2.421 . S
O784 C806 1.262 . S
O785 Tb743 2.320 . S
O785 C806 1.260 . S
O786 Tb743 2.552 . S
O786 C799 1.243 . S
O787 Tb743 2.413 . S
O787 C807 1.256 . S
C788 O777 1.283 . S
C788 O780 1.243 . S
C789 C791 1.382 . S
C789 C793 1.393 . S
C789 C796 1.500 . S
C790 C791 1.400 . S
C790 C792 1.384 . S
C791 C789 1.382 . S
C791 C790 1.400 . S
C791 H808 0.930 . S
C792 C790 1.384 . S
C792 C794 1.392 . S
C792 H809 0.931 . S
C793 C789 1.393 . S
C793 C794 1.401 . S
C793 H810 0.930 . S
C794 C792 1.392 . S
C794 C793 1.401 . S
C794 H811 0.930 . S
C795 O778 1.262 . S
C795 O779 1.260 . S
C796 Tb732 2.833 . S
C796 O776 1.251 . S
C796 O781 1.256 . S
C796 C789 1.500 . S
C797 H762 0.929 . S
C797 C775 1.444 . S
C797 C798 1.317 . S
C798 H760 0.930 . S
C798 C766 1.432 . S
C798 C797 1.317 . S
C799 O783 1.283 . S
C799 O786 1.243 . S
C800 C801 1.382 . S
C800 C804 1.393 . S
C800 C807 1.500 . S
C801 C800 1.382 . S
C801 C802 1.400 . S
C801 H812 0.930 . S
C802 C801 1.400 . S
C802 C803 1.384 . S
C803 C802 1.384 . S
C803 C805 1.392 . S
C803 H813 0.931 . S
C804 C800 1.393 . S
C804 C805 1.401 . S
C804 H814 0.930 . S
C805 C803 1.392 . S
C805 C804 1.401 . S
C805 H815 0.930 . S
C806 O784 1.262 . S
C806 O785 1.260 . S
C807 Tb743 2.833 . S
C807 O782 1.251 . S
C807 O787 1.256 . S
C807 C800 1.500 . S
H808 C791 0.930 . S
H809 C792 0.931 . S
H810 C793 0.930 . S
H811 C794 0.930 . S
H812 C801 0.930 . S
H813 C803 0.931 . S
H814 C804 0.930 . S
H815 C805 0.930 . S
Tb816 N847 2.660 . S
Tb816 N854 2.600 . S
Tb816 O860 2.546 . S
Tb816 O861 2.610 . S
Tb816 O863 2.320 . S
Tb816 O864 2.552 . S
Tb816 O865 2.413 . S
Tb816 O867 2.362 . S
Tb816 O868 2.421 . S
Tb816 C880 2.833 . S
C817 C820 1.432 . S
C817 C821 1.414 . S
C817 N824 1.359 . S
C818 C820 1.417 . S
C818 C822 1.432 . S
C818 C830 1.410 . S
C819 C821 1.444 . S
C819 C822 1.317 . S
C819 H842 0.929 . S
C820 C817 1.432 . S
C820 C818 1.417 . S
C820 N828 1.360 . S
C821 C817 1.414 . S
C821 C819 1.444 . S
C821 C826 1.385 . S
C822 C818 1.432 . S
C822 C819 1.317 . S
C822 H834 0.930 . S
C823 C825 1.392 . S
C823 C826 1.370 . S
C823 H835 0.931 . S
N824 C817 1.359 . S
N824 C825 1.327 . S
N824 Tb827 2.600 . S
C825 C823 1.392 . S
C825 N824 1.327 . S
C825 H832 0.930 . S
C826 C821 1.385 . S
C826 C823 1.370 . S
C826 H845 0.930 . S
Tb827 N824 2.600 . S
Tb827 N828 2.660 . S
Tb827 O861 2.362 1_556 S
Tb827 O862 2.421 1_556 S
Tb827 O866 2.546 . S
Tb827 O867 2.610 1_556 S
Tb827 O869 2.320 . S
Tb827 O870 2.552 . S
Tb827 O871 2.413 . S
Tb827 C891 2.833 . S
N828 C820 1.360 . S
N828 Tb827 2.660 . S
N828 C829 1.305 . S
C829 N828 1.305 . S
C829 C831 1.407 1_545 S
C829 H836 0.930 . S
C830 C818 1.410 . S
C830 C831 1.345 1_545 S
C830 H838 0.930 1_545 S
C831 C829 1.407 1_565 S
C831 C830 1.345 1_565 S
C831 H833 0.930 . S
H832 C825 0.930 . S
H833 C831 0.930 . S
H834 C822 0.930 . S
H835 C823 0.931 . S
H836 C829 0.930 . S
H837 C851 0.930 . S
H838 C830 0.930 1_565 S
H839 C857 0.930 1_565 S
H840 C848 0.930 . S
H841 C855 0.931 . S
H842 C819 0.929 . S
H843 C849 0.930 . S
H844 C882 0.930 . S
H845 C826 0.930 . S
H846 C881 0.929 . S
N847 Tb816 2.660 . S
N847 C848 1.305 . S
N847 C852 1.360 . S
C848 H840 0.930 . S
C848 N847 1.305 . S
C848 C851 1.407 . S
C849 H843 0.930 . S
C849 C850 1.410 . S
C849 C851 1.345 . S
C850 C849 1.410 . S
C850 C852 1.417 . S
C850 C882 1.432 . S
C851 H837 0.930 . S
C851 C848 1.407 . S
C851 C849 1.345 . S
C852 N847 1.360 . S
C852 C850 1.417 . S
C852 C856 1.432 . S
H853 C858 0.901 1_565 S
N854 Tb816 2.600 . S
N854 C856 1.359 . S
N854 C857 1.327 . S
C855 H841 0.931 . S
C855 C857 1.392 1_565 S
C855 C858 1.370 1_565 S
C856 C852 1.432 . S
C856 N854 1.359 . S
C856 C859 1.414 . S
C857 H839 0.930 1_545 S
C857 N854 1.327 . S
C857 C855 1.392 1_545 S
C858 H853 0.901 1_545 S
C858 C855 1.370 1_545 S
C858 C859 1.385 . S
C859 C856 1.414 . S
C859 C858 1.385 . S
C859 C881 1.444 . S
O860 Tb816 2.546 . S
O860 C880 1.251 . S
O861 Tb816 2.610 . S
O861 Tb827 2.362 1_554 S
O861 C872 1.283 . S
O862 Tb827 2.421 1_554 S
O862 C879 1.262 . S
O863 Tb816 2.320 . S
O863 C879 1.260 . S
O864 Tb816 2.552 . S
O864 C872 1.243 . S
O865 Tb816 2.413 . S
O865 C880 1.256 . S
O866 Tb827 2.546 . S
O866 C891 1.251 . S
O867 Tb816 2.362 . S
O867 Tb827 2.610 1_554 S
O867 C883 1.283 . S
O868 Tb816 2.421 . S
O868 C890 1.262 1_554 S
O869 Tb827 2.320 . S
O869 C890 1.260 . S
O870 Tb827 2.552 . S
O870 C883 1.243 1_556 S
O871 Tb827 2.413 . S
O871 C891 1.256 . S
C872 O861 1.283 . S
C872 O864 1.243 . S
C873 C875 1.382 . S
C873 C877 1.393 . S
C873 C880 1.500 . S
C874 C875 1.400 . S
C874 C876 1.384 . S
C875 C873 1.382 . S
C875 C874 1.400 . S
C875 H892 0.930 . S
C876 C874 1.384 . S
C876 C878 1.392 . S
C876 H893 0.931 . S
C877 C873 1.393 . S
C877 C878 1.401 . S
C877 H894 0.930 1_545 S
C878 C876 1.392 . S
C878 C877 1.401 . S
C878 H895 0.930 1_545 S
C879 O862 1.262 . S
C879 O863 1.260 . S
C880 Tb816 2.833 . S
C880 O860 1.251 . S
C880 O865 1.256 . S
C880 C873 1.500 . S
C881 H846 0.929 . S
C881 C859 1.444 . S
C881 C882 1.317 . S
C882 H844 0.930 . S
C882 C850 1.432 . S
C882 C881 1.317 . S
C883 O867 1.283 . S
C883 O870 1.243 1_554 S
C884 C885 1.382 . S
C884 C888 1.393 . S
C884 C891 1.500 . S
C885 C884 1.382 . S
C885 C886 1.400 . S
C885 H896 0.930 . S
C886 C885 1.400 . S
C886 C887 1.384 . S
C887 C886 1.384 . S
C887 C889 1.392 . S
C887 H897 0.931 . S
C888 C884 1.393 . S
C888 C889 1.401 . S
C888 H898 0.930 . S
C889 C887 1.392 . S
C889 C888 1.401 . S
C889 H899 0.930 . S
C890 O868 1.262 1_556 S
C890 O869 1.260 . S
C891 Tb827 2.833 . S
C891 O866 1.251 . S
C891 O871 1.256 . S
C891 C884 1.500 . S
H892 C875 0.930 . S
H893 C876 0.931 . S
H894 C877 0.930 1_565 S
H895 C878 0.930 1_565 S
H896 C885 0.930 . S
H897 C887 0.931 . S
H898 C888 0.930 . S
H899 C889 0.930 . S
Tb900 N931 2.660 . S
Tb900 N938 2.600 . S
Tb900 O944 2.546 . S
Tb900 O945 2.610 . S
Tb900 O947 2.320 . S
Tb900 O948 2.552 . S
Tb900 O949 2.413 . S
Tb900 O951 2.362 . S
Tb900 O952 2.421 . S
Tb900 C964 2.833 . S
C901 C904 1.432 . S
C901 C905 1.414 . S
C901 N908 1.359 . S
C902 C904 1.417 . S
C902 C906 1.432 . S
C902 C914 1.410 . S
C903 C905 1.444 . S
C903 C906 1.317 . S
C903 H926 0.929 . S
C904 C901 1.432 . S
C904 C902 1.417 . S
C904 N912 1.360 . S
C905 C901 1.414 . S
C905 C903 1.444 . S
C905 C910 1.385 . S
C906 C902 1.432 . S
C906 C903 1.317 . S
C906 H918 0.930 . S
C907 C909 1.392 . S
C907 C910 1.370 . S
C907 H919 0.931 . S
N908 C901 1.359 . S
N908 C909 1.327 . S
N908 Tb911 2.600 . S
C909 C907 1.392 . S
C909 N908 1.327 . S
C909 H916 0.930 . S
C910 C905 1.385 . S
C910 C907 1.370 . S
C910 H929 0.930 . S
Tb911 N908 2.600 . S
Tb911 N912 2.660 . S
Tb911 O945 2.362 . S
Tb911 O946 2.421 . S
Tb911 O950 2.546 . S
Tb911 O951 2.610 . S
Tb911 O953 2.320 . S
Tb911 O954 2.552 . S
Tb911 O955 2.413 . S
Tb911 C975 2.833 . S
N912 C904 1.360 . S
N912 Tb911 2.660 . S
N912 C913 1.305 . S
C913 N912 1.305 . S
C913 C915 1.407 . S
C913 H920 0.930 . S
C914 C902 1.410 . S
C914 C915 1.345 . S
C914 H922 0.930 . S
C915 C913 1.407 . S
C915 C914 1.345 . S
C915 H917 0.930 . S
H916 C909 0.930 . S
H917 C915 0.930 . S
H918 C906 0.930 . S
H919 C907 0.931 . S
H920 C913 0.930 . S
H921 C935 0.930 . S
H922 C914 0.930 . S
H923 C941 0.930 . S
H924 C932 0.930 . S
H925 C939 0.931 . S
H926 C903 0.929 . S
H927 C933 0.930 . S
H928 C966 0.930 . S
H929 C910 0.930 . S
H930 C965 0.929 . S
N931 Tb900 2.660 . S
N931 C932 1.305 . S
N931 C936 1.360 . S
C932 H924 0.930 . S
C932 N931 1.305 . S
C932 C935 1.407 . S
C933 H927 0.930 . S
C933 C934 1.410 . S
C933 C935 1.345 . S
C934 C933 1.410 . S
C934 C936 1.417 . S
C934 C966 1.432 . S
C935 H921 0.930 . S
C935 C932 1.407 . S
C935 C933 1.345 . S
C936 N931 1.360 . S
C936 C934 1.417 . S
C936 C940 1.432 . S
H937 C942 0.930 . S
N938 Tb900 2.600 . S
N938 C940 1.359 . S
N938 C941 1.327 . S
C939 H925 0.931 . S
C939 C941 1.392 . S
C939 C942 1.370 . S
C940 C936 1.432 . S
C940 N938 1.359 . S
C940 C943 1.414 . S
C941 H923 0.930 . S
C941 N938 1.327 . S
C941 C939 1.392 . S
C942 H937 0.930 . S
C942 C939 1.370 . S
C942 C943 1.385 . S
C943 C940 1.414 . S
C943 C942 1.385 . S
C943 C965 1.444 . S
O944 Tb900 2.546 . S
O944 C964 1.251 . S
O945 Tb900 2.610 . S
O945 Tb911 2.362 . S
O945 C956 1.283 . S
O946 Tb911 2.421 . S
O946 C963 1.262 . S
O947 Tb900 2.320 . S
O947 C963 1.260 . S
O948 Tb900 2.552 . S
O948 C956 1.243 . S
O949 Tb900 2.413 . S
O949 C964 1.256 . S
O950 Tb911 2.546 . S
O950 C975 1.251 . S
O951 Tb900 2.362 . S
O951 Tb911 2.610 . S
O951 C967 1.283 . S
O952 Tb900 2.421 . S
O952 C974 1.262 . S
O953 Tb911 2.320 . S
O953 C974 1.260 . S
O954 Tb911 2.552 . S
O954 C967 1.243 . S
O955 Tb911 2.413 . S
O955 C975 1.256 . S
C956 O945 1.283 . S
C956 O948 1.243 . S
C957 C959 1.382 . S
C957 C961 1.393 . S
C957 C964 1.500 . S
C958 C959 1.400 . S
C958 C960 1.384 . S
C959 C957 1.382 . S
C959 C958 1.400 . S
C959 H976 0.930 . S
C960 C958 1.384 . S
C960 C962 1.392 . S
C960 H977 0.931 . S
C961 C957 1.393 . S
C961 C962 1.401 . S
C961 H978 0.930 . S
C962 C960 1.392 . S
C962 C961 1.401 . S
C962 H979 0.930 . S
C963 O946 1.262 . S
C963 O947 1.260 . S
C964 Tb900 2.833 . S
C964 O944 1.251 . S
C964 O949 1.256 . S
C964 C957 1.500 . S
C965 H930 0.929 . S
C965 C943 1.444 . S
C965 C966 1.317 . S
C966 H928 0.930 . S
C966 C934 1.432 . S
C966 C965 1.317 . S
C967 O951 1.283 . S
C967 O954 1.243 . S
C968 C969 1.382 . S
C968 C972 1.393 . S
C968 C975 1.500 . S
C969 C968 1.382 . S
C969 C970 1.400 . S
C969 H980 0.930 . S
C970 C969 1.400 . S
C970 C971 1.384 . S
C971 C970 1.384 . S
C971 C973 1.392 . S
C971 H981 0.931 . S
C972 C968 1.393 . S
C972 C973 1.401 . S
C972 H982 0.930 . S
C973 C971 1.392 . S
C973 C972 1.401 . S
C973 H983 0.930 . S
C974 O952 1.262 . S
C974 O953 1.260 . S
C975 Tb911 2.833 . S
C975 O950 1.251 . S
C975 O955 1.256 . S
C975 C968 1.500 . S
H976 C959 0.930 . S
H977 C960 0.931 . S
H978 C961 0.930 . S
H979 C962 0.930 . S
H980 C969 0.930 . S
H981 C971 0.931 . S
H982 C972 0.930 . S
H983 C973 0.930 . S
Tb984 N1015 2.660 . S
Tb984 N1022 2.600 . S
Tb984 O1028 2.546 . S
Tb984 O1029 2.610 1_554 S
Tb984 O1031 2.320 . S
Tb984 O1032 2.552 1_554 S
Tb984 O1033 2.413 . S
Tb984 O1035 2.362 . S
Tb984 O1036 2.421 . S
Tb984 C1048 2.833 . S
C985 C988 1.432 . S
C985 C989 1.414 . S
C985 N992 1.359 . S
C986 C988 1.417 . S
C986 C990 1.432 . S
C986 C998 1.410 . S
C987 C989 1.444 . S
C987 C990 1.317 . S
C987 H1010 0.929 . S
C988 C985 1.432 . S
C988 C986 1.417 . S
C988 N996 1.360 . S
C989 C985 1.414 . S
C989 C987 1.444 . S
C989 C994 1.385 . S
C990 C986 1.432 . S
C990 C987 1.317 . S
C990 H1002 0.930 . S
C991 C993 1.392 . S
C991 C994 1.370 . S
C991 H1003 0.931 . S
N992 C985 1.359 . S
N992 C993 1.327 . S
N992 Tb995 2.600 1_556 S
C993 C991 1.392 . S
C993 N992 1.327 . S
C993 H1000 0.930 . S
C994 C989 1.385 . S
C994 C991 1.370 . S
C994 H1013 0.930 . S
Tb995 N992 2.600 1_554 S
Tb995 N996 2.660 1_554 S
Tb995 O1029 2.362 1_554 S
Tb995 O1030 2.421 . S
Tb995 O1034 2.546 . S
Tb995 O1035 2.610 . S
Tb995 O1037 2.320 . S
Tb995 O1038 2.552 . S
Tb995 O1039 2.413 . S
Tb995 C1059 2.833 . S
N996 C988 1.360 . S
N996 Tb995 2.660 1_556 S
N996 C997 1.305 . S
C997 N996 1.305 . S
C997 C999 1.407 . S
C997 H1004 0.930 . S
C998 C986 1.410 . S
C998 C999 1.345 . S
C998 H1006 0.930 . S
C999 C997 1.407 . S
C999 C998 1.345 . S
C999 H1001 0.930 . S
H1000 C993 0.930 . S
H1001 C999 0.930 . S
H1002 C990 0.930 . S
H1003 C991 0.931 . S
H1004 C997 0.930 . S
H1005 C1019 0.930 . S
H1006 C998 0.930 . S
H1007 C1025 0.930 . S
H1008 C1016 0.930 . S
H1009 C1023 0.931 . S
H1010 C987 0.929 . S
H1011 C1017 0.930 . S
H1012 C1050 0.930 . S
H1013 C994 0.930 . S
H1014 C1049 0.929 . S
N1015 Tb984 2.660 . S
N1015 C1016 1.305 . S
N1015 C1020 1.360 . S
C1016 H1008 0.930 . S
C1016 N1015 1.305 . S
C1016 C1019 1.407 . S
C1017 H1011 0.930 . S
C1017 C1018 1.410 . S
C1017 C1019 1.345 . S
C1018 C1017 1.410 . S
C1018 C1020 1.417 . S
C1018 C1050 1.432 . S
C1019 H1005 0.930 . S
C1019 C1016 1.407 . S
C1019 C1017 1.345 . S
C1020 N1015 1.360 . S
C1020 C1018 1.417 . S
C1020 C1024 1.432 . S
H1021 C1026 0.930 . S
N1022 Tb984 2.600 . S
N1022 C1024 1.359 . S
N1022 C1025 1.327 . S
C1023 H1009 0.931 . S
C1023 C1025 1.392 . S
C1023 C1026 1.370 . S
C1024 C1020 1.432 . S
C1024 N1022 1.359 . S
C1024 C1027 1.414 . S
C1025 H1007 0.930 . S
C1025 N1022 1.327 . S
C1025 C1023 1.392 . S
C1026 H1021 0.930 . S
C1026 C1023 1.370 . S
C1026 C1027 1.385 . S
C1027 C1024 1.414 . S
C1027 C1026 1.385 . S
C1027 C1049 1.444 . S
O1028 Tb984 2.546 . S
O1028 C1048 1.251 . S
O1029 Tb984 2.610 1_556 S
O1029 Tb995 2.362 1_556 S
O1029 C1040 1.283 . S
O1030 Tb995 2.421 . S
O1030 C1047 1.262 . S
O1031 Tb984 2.320 . S
O1031 C1047 1.260 . S
O1032 Tb984 2.552 1_556 S
O1032 C1040 1.243 . S
O1033 Tb984 2.413 . S
O1033 C1048 1.256 . S
O1034 Tb995 2.546 . S
O1034 C1059 1.251 . S
O1035 Tb984 2.362 . S
O1035 Tb995 2.610 . S
O1035 C1051 1.283 . S
O1036 Tb984 2.421 . S
O1036 C1058 1.262 . S
O1037 Tb995 2.320 . S
O1037 C1058 1.260 . S
O1038 Tb995 2.552 . S
O1038 C1051 1.243 . S
O1039 Tb995 2.413 . S
O1039 C1059 1.256 . S
C1040 O1029 1.283 . S
C1040 O1032 1.243 . S
C1041 C1043 1.382 1_554 S
C1041 C1045 1.393 . S
C1041 C1048 1.500 . S
C1042 C1043 1.400 . S
C1042 C1044 1.384 . S
C1043 C1041 1.382 1_556 S
C1043 C1042 1.400 . S
C1043 H1060 0.930 . S
C1044 C1042 1.384 . S
C1044 C1046 1.392 1_556 S
C1044 H1061 0.931 . S
C1045 C1041 1.393 . S
C1045 C1046 1.401 . S
C1045 H1062 0.930 . S
C1046 C1044 1.392 1_554 S
C1046 C1045 1.401 . S
C1046 H1063 0.930 . S
C1047 O1030 1.262 . S
C1047 O1031 1.260 . S
C1048 Tb984 2.833 . S
C1048 O1028 1.251 . S
C1048 O1033 1.256 . S
C1048 C1041 1.500 . S
C1049 H1014 0.929 . S
C1049 C1027 1.444 . S
C1049 C1050 1.317 . S
C1050 H1012 0.930 . S
C1050 C1018 1.432 . S
C1050 C1049 1.317 . S
C1051 O1035 1.283 . S
C1051 O1038 1.243 . S
C1052 C1053 1.382 . S
C1052 C1056 1.393 . S
C1052 C1059 1.500 . S
C1053 C1052 1.382 . S
C1053 C1054 1.400 . S
C1053 H1064 0.930 . S
C1054 C1053 1.400 . S
C1054 C1055 1.384 . S
C1055 C1054 1.384 . S
C1055 C1057 1.392 . S
C1055 H1065 0.931 . S
C1056 C1052 1.393 . S
C1056 C1057 1.401 . S
C1056 H1066 0.930 . S
C1057 C1055 1.392 . S
C1057 C1056 1.401 . S
C1057 H1067 0.930 . S
C1058 O1036 1.262 . S
C1058 O1037 1.260 . S
C1059 Tb995 2.833 . S
C1059 O1034 1.251 . S
C1059 O1039 1.256 . S
C1059 C1052 1.500 . S
H1060 C1043 0.930 . S
H1061 C1044 0.931 . S
H1062 C1045 0.930 . S
H1063 C1046 0.930 . S
H1064 C1053 0.930 . S
H1065 C1055 0.931 . S
H1066 C1056 0.930 . S
H1067 C1057 0.930 . S
Tb1068 N1099 2.660 . S
Tb1068 N1106 2.600 . S
Tb1068 O1112 2.546 . S
Tb1068 O1113 2.610 . S
Tb1068 O1115 2.320 . S
Tb1068 O1116 2.552 . S
Tb1068 O1117 2.413 . S
Tb1068 O1119 2.362 . S
Tb1068 O1120 2.421 . S
Tb1068 C1132 2.833 . S
C1069 C1072 1.432 . S
C1069 C1073 1.414 . S
C1069 N1076 1.359 . S
C1070 C1072 1.417 . S
C1070 C1074 1.432 . S
C1070 C1082 1.410 . S
C1071 C1073 1.444 . S
C1071 C1074 1.317 . S
C1071 H1094 0.929 . S
C1072 C1069 1.432 . S
C1072 C1070 1.417 . S
C1072 N1080 1.360 . S
C1073 C1069 1.414 . S
C1073 C1071 1.444 . S
C1073 C1078 1.385 . S
C1074 C1070 1.432 . S
C1074 C1071 1.317 . S
C1074 H1086 0.930 . S
C1075 C1077 1.392 . S
C1075 C1078 1.370 . S
C1075 H1087 0.931 . S
N1076 C1069 1.359 . S
N1076 C1077 1.327 . S
N1076 Tb1079 2.600 . S
C1077 C1075 1.392 . S
C1077 N1076 1.327 . S
C1077 H1084 0.930 . S
C1078 C1073 1.385 . S
C1078 C1075 1.370 . S
C1078 H1097 0.930 . S
Tb1079 N1076 2.600 . S
Tb1079 N1080 2.660 . S
Tb1079 O1113 2.362 . S
Tb1079 O1114 2.421 . S
Tb1079 O1118 2.546 . S
Tb1079 O1119 2.610 . S
Tb1079 O1121 2.320 . S
Tb1079 O1122 2.552 . S
Tb1079 O1123 2.413 . S
Tb1079 C1143 2.833 . S
N1080 C1072 1.360 . S
N1080 Tb1079 2.660 . S
N1080 C1081 1.305 . S
C1081 N1080 1.305 . S
C1081 C1083 1.407 . S
C1081 H1088 0.930 . S
C1082 C1070 1.410 . S
C1082 C1083 1.345 . S
C1082 H1090 0.930 . S
C1083 C1081 1.407 . S
C1083 C1082 1.345 . S
C1083 H1085 0.930 . S
H1084 C1077 0.930 . S
H1085 C1083 0.930 . S
H1086 C1074 0.930 . S
H1087 C1075 0.931 . S
H1088 C1081 0.930 . S
H1089 C1103 0.930 . S
H1090 C1082 0.930 . S
H1091 C1109 0.930 . S
H1092 C1100 0.930 . S
H1093 C1107 0.931 . S
H1094 C1071 0.929 . S
H1095 C1101 0.930 . S
H1096 C1134 0.930 . S
H1097 C1078 0.930 . S
H1098 C1133 0.929 . S
N1099 Tb1068 2.660 . S
N1099 C1100 1.305 . S
N1099 C1104 1.360 . S
C1100 H1092 0.930 . S
C1100 N1099 1.305 . S
C1100 C1103 1.407 . S
C1101 H1095 0.930 . S
C1101 C1102 1.410 . S
C1101 C1103 1.345 . S
C1102 C1101 1.410 . S
C1102 C1104 1.417 . S
C1102 C1134 1.432 . S
C1103 H1089 0.930 . S
C1103 C1100 1.407 . S
C1103 C1101 1.345 . S
C1104 N1099 1.360 . S
C1104 C1102 1.417 . S
C1104 C1108 1.432 . S
H1105 C1110 0.930 . S
N1106 Tb1068 2.600 . S
N1106 C1108 1.359 . S
N1106 C1109 1.327 . S
C1107 H1093 0.931 . S
C1107 C1109 1.392 . S
C1107 C1110 1.370 . S
C1108 C1104 1.432 . S
C1108 N1106 1.359 . S
C1108 C1111 1.414 . S
C1109 H1091 0.930 . S
C1109 N1106 1.327 . S
C1109 C1107 1.392 . S
C1110 H1105 0.930 . S
C1110 C1107 1.370 . S
C1110 C1111 1.385 . S
C1111 C1108 1.414 . S
C1111 C1110 1.385 . S
C1111 C1133 1.444 . S
O1112 Tb1068 2.546 . S
O1112 C1132 1.251 . S
O1113 Tb1068 2.610 . S
O1113 Tb1079 2.362 . S
O1113 C1124 1.283 . S
O1114 Tb1079 2.421 . S
O1114 C1131 1.262 . S
O1115 Tb1068 2.320 . S
O1115 C1131 1.260 . S
O1116 Tb1068 2.552 . S
O1116 C1124 1.243 . S
O1117 Tb1068 2.413 . S
O1117 C1132 1.256 . S
O1118 Tb1079 2.546 . S
O1118 C1143 1.251 . S
O1119 Tb1068 2.362 . S
O1119 Tb1079 2.610 . S
O1119 C1135 1.283 . S
O1120 Tb1068 2.421 . S
O1120 C1142 1.262 . S
O1121 Tb1079 2.320 . S
O1121 C1142 1.260 . S
O1122 Tb1079 2.552 . S
O1122 C1135 1.243 . S
O1123 Tb1079 2.413 . S
O1123 C1143 1.256 . S
C1124 O1113 1.283 . S
C1124 O1116 1.243 . S
C1125 C1127 1.382 . S
C1125 C1129 1.393 . S
C1125 C1132 1.500 . S
C1126 C1127 1.400 . S
C1126 C1128 1.384 . S
C1127 C1125 1.382 . S
C1127 C1126 1.400 . S
C1127 H1144 0.930 . S
C1128 C1126 1.384 . S
C1128 C1130 1.392 . S
C1128 H1145 0.931 . S
C1129 C1125 1.393 . S
C1129 C1130 1.401 . S
C1129 H1146 0.930 . S
C1130 C1128 1.392 . S
C1130 C1129 1.401 . S
C1130 H1147 0.930 . S
C1131 O1114 1.262 . S
C1131 O1115 1.260 . S
C1132 Tb1068 2.833 . S
C1132 O1112 1.251 . S
C1132 O1117 1.256 . S
C1132 C1125 1.500 . S
C1133 H1098 0.929 . S
C1133 C1111 1.444 . S
C1133 C1134 1.317 . S
C1134 H1096 0.930 . S
C1134 C1102 1.432 . S
C1134 C1133 1.317 . S
C1135 O1119 1.283 . S
C1135 O1122 1.243 . S
C1136 C1137 1.382 . S
C1136 C1140 1.393 . S
C1136 C1143 1.500 . S
C1137 C1136 1.382 . S
C1137 C1138 1.400 . S
C1137 H1148 0.930 . S
C1138 C1137 1.400 . S
C1138 C1139 1.384 . S
C1139 C1138 1.384 . S
C1139 C1141 1.392 . S
C1139 H1149 0.931 . S
C1140 C1136 1.393 . S
C1140 C1141 1.401 . S
C1140 H1150 0.930 . S
C1141 C1139 1.392 . S
C1141 C1140 1.401 . S
C1141 H1151 0.930 . S
C1142 O1120 1.262 . S
C1142 O1121 1.260 . S
C1143 Tb1079 2.833 . S
C1143 O1118 1.251 . S
C1143 O1123 1.256 . S
C1143 C1136 1.500 . S
H1144 C1127 0.930 . S
H1145 C1128 0.931 . S
H1146 C1129 0.930 . S
H1147 C1130 0.930 . S
H1148 C1137 0.930 . S
H1149 C1139 0.931 . S
H1150 C1140 0.930 . S
H1151 C1141 0.930 . S
Tb1152 N1183 2.660 . S
Tb1152 N1190 2.600 . S
Tb1152 O1196 2.546 . S
Tb1152 O1197 2.610 . S
Tb1152 O1199 2.320 . S
Tb1152 O1200 2.552 . S
Tb1152 O1201 2.413 . S
Tb1152 O1203 2.362 . S
Tb1152 O1204 2.421 . S
Tb1152 C1216 2.833 . S
C1153 C1156 1.432 . S
C1153 C1157 1.414 . S
C1153 N1160 1.359 1_655 S
C1154 C1156 1.417 . S
C1154 C1158 1.432 . S
C1154 C1166 1.410 . S
C1155 C1157 1.444 . S
C1155 C1158 1.317 . S
C1155 H1178 0.929 . S
C1156 C1153 1.432 . S
C1156 C1154 1.417 . S
C1156 N1164 1.360 1_655 S
C1157 C1153 1.414 . S
C1157 C1155 1.444 . S
C1157 C1162 1.385 . S
C1158 C1154 1.432 . S
C1158 C1155 1.317 . S
C1158 H1170 0.930 . S
C1159 C1161 1.392 1_655 S
C1159 C1162 1.370 . S
C1159 H1171 0.931 . S
N1160 C1153 1.359 1_455 S
N1160 C1161 1.327 . S
N1160 Tb1163 2.600 . S
C1161 C1159 1.392 1_455 S
C1161 N1160 1.327 . S
C1161 H1168 0.930 . S
C1162 C1157 1.385 . S
C1162 C1159 1.370 . S
C1162 H1181 0.930 . S
Tb1163 N1160 2.600 . S
Tb1163 N1164 2.660 . S
Tb1163 O1197 2.362 . S
Tb1163 O1198 2.421 . S
Tb1163 O1202 2.546 . S
Tb1163 O1203 2.610 . S
Tb1163 O1205 2.320 . S
Tb1163 O1206 2.552 . S
Tb1163 O1207 2.413 . S
Tb1163 C1227 2.833 . S
N1164 C1156 1.360 1_455 S
N1164 Tb1163 2.660 . S
N1164 C1165 1.300 . S
C1165 N1164 1.300 . S
C1165 C1167 1.363 1_455 S
C1165 H1172 0.986 . S
C1166 C1154 1.410 . S
C1166 C1167 1.345 . S
C1166 H1174 0.930 . S
C1167 C1165 1.363 1_655 S
C1167 C1166 1.345 . S
C1167 H1169 0.930 . S
H1168 C1161 0.930 . S
H1169 C1167 0.930 . S
H1170 C1158 0.930 . S
H1171 C1159 0.931 . S
H1172 C1165 0.986 . S
H1173 C1187 0.930 . S
H1174 C1166 0.930 . S
H1175 C1193 0.930 . S
H1176 C1184 0.930 . S
H1177 C1191 0.931 . S
H1178 C1155 0.929 . S
H1179 C1185 0.930 . S
H1180 C1218 0.930 . S
H1181 C1162 0.930 . S
H1182 C1217 0.929 . S
N1183 Tb1152 2.660 . S
N1183 C1184 1.305 . S
N1183 C1188 1.360 . S
C1184 H1176 0.930 . S
C1184 N1183 1.305 . S
C1184 C1187 1.407 . S
C1185 H1179 0.930 . S
C1185 C1186 1.410 . S
C1185 C1187 1.345 . S
C1186 C1185 1.410 . S
C1186 C1188 1.417 . S
C1186 C1218 1.432 . S
C1187 H1173 0.930 . S
C1187 C1184 1.407 . S
C1187 C1185 1.345 . S
C1188 N1183 1.360 . S
C1188 C1186 1.417 . S
C1188 C1192 1.432 . S
H1189 C1194 0.930 . S
N1190 Tb1152 2.600 . S
N1190 C1192 1.359 . S
N1190 C1193 1.327 . S
C1191 H1177 0.931 . S
C1191 C1193 1.392 . S
C1191 C1194 1.370 . S
C1192 C1188 1.432 . S
C1192 N1190 1.359 . S
C1192 C1195 1.414 . S
C1193 H1175 0.930 . S
C1193 N1190 1.327 . S
C1193 C1191 1.392 . S
C1194 H1189 0.930 . S
C1194 C1191 1.370 . S
C1194 C1195 1.385 . S
C1195 C1192 1.414 . S
C1195 C1194 1.385 . S
C1195 C1217 1.444 . S
O1196 Tb1152 2.546 . S
O1196 C1216 1.251 . S
O1197 Tb1152 2.610 . S
O1197 Tb1163 2.362 . S
O1197 C1208 1.283 . S
O1198 Tb1163 2.421 . S
O1198 C1215 1.262 . S
O1199 Tb1152 2.320 . S
O1199 C1215 1.260 . S
O1200 Tb1152 2.552 . S
O1200 C1208 1.243 . S
O1201 Tb1152 2.413 . S
O1201 C1216 1.256 . S
O1202 Tb1163 2.546 . S
O1202 C1227 1.251 . S
O1203 Tb1152 2.362 . S
O1203 Tb1163 2.610 . S
O1203 C1219 1.283 . S
O1204 Tb1152 2.421 . S
O1204 C1226 1.262 . S
O1205 Tb1163 2.320 . S
O1205 C1226 1.260 . S
O1206 Tb1163 2.552 . S
O1206 C1219 1.243 . S
O1207 Tb1163 2.413 . S
O1207 C1227 1.256 . S
C1208 O1197 1.283 . S
C1208 O1200 1.243 . S
C1209 C1211 1.382 . S
C1209 C1213 1.393 . S
C1209 C1216 1.500 . S
C1210 C1211 1.400 1_655 S
C1210 C1212 1.393 . S
C1211 C1209 1.382 . S
C1211 C1210 1.400 1_455 S
C1211 H1228 0.930 . S
C1212 C1210 1.393 . S
C1212 C1214 1.371 1_655 S
C1212 H1229 0.943 . S
C1213 C1209 1.393 . S
C1213 C1214 1.401 . S
C1213 H1230 0.930 . S
C1214 C1212 1.371 1_455 S
C1214 C1213 1.401 . S
C1214 H1231 0.930 . S
C1215 O1198 1.262 . S
C1215 O1199 1.260 . S
C1216 Tb1152 2.833 . S
C1216 O1196 1.251 . S
C1216 O1201 1.256 . S
C1216 C1209 1.500 . S
C1217 H1182 0.929 . S
C1217 C1195 1.444 . S
C1217 C1218 1.317 . S
C1218 H1180 0.930 . S
C1218 C1186 1.432 . S
C1218 C1217 1.317 . S
C1219 O1203 1.283 . S
C1219 O1206 1.243 . S
C1220 C1221 1.382 . S
C1220 C1224 1.393 . S
C1220 C1227 1.500 . S
C1221 C1220 1.382 . S
C1221 C1222 1.400 . S
C1221 H1232 0.930 . S
C1222 C1221 1.400 . S
C1222 C1223 1.384 . S
C1223 C1222 1.384 . S
C1223 C1225 1.392 . S
C1223 H1233 0.931 . S
C1224 C1220 1.393 . S
C1224 C1225 1.401 . S
C1224 H1234 0.930 . S
C1225 C1223 1.392 . S
C1225 C1224 1.401 . S
C1225 H1235 0.930 . S
C1226 O1204 1.262 . S
C1226 O1205 1.260 . S
C1227 Tb1163 2.833 . S
C1227 O1202 1.251 . S
C1227 O1207 1.256 . S
C1227 C1220 1.500 . S
H1228 C1211 0.930 . S
H1229 C1212 0.943 . S
H1230 C1213 0.930 . S
H1231 C1214 0.930 . S
H1232 C1221 0.930 . S
H1233 C1223 0.931 . S
H1234 C1224 0.930 . S
H1235 C1225 0.930 . S
Tb1236 N1267 2.660 . S
Tb1236 N1274 2.600 . S
Tb1236 O1280 2.546 . S
Tb1236 O1281 2.610 . S
Tb1236 O1283 2.320 . S
Tb1236 O1284 2.552 . S
Tb1236 O1285 2.413 . S
Tb1236 O1287 2.362 . S
Tb1236 O1288 2.421 . S
Tb1236 C1300 2.833 . S
C1237 C1240 1.432 . S
C1237 C1241 1.414 . S
C1237 N1244 1.359 . S
C1238 C1240 1.417 . S
C1238 C1242 1.432 . S
C1238 C1250 1.410 . S
C1239 C1241 1.444 . S
C1239 C1242 1.317 . S
C1239 H1262 0.929 . S
C1240 C1237 1.432 . S
C1240 C1238 1.417 . S
C1240 N1248 1.360 . S
C1241 C1237 1.414 . S
C1241 C1239 1.444 . S
C1241 C1246 1.385 . S
C1242 C1238 1.432 . S
C1242 C1239 1.317 . S
C1242 H1254 0.930 . S
C1243 C1245 1.392 . S
C1243 C1246 1.370 . S
C1243 H1255 0.931 . S
N1244 C1237 1.359 . S
N1244 C1245 1.327 . S
N1244 Tb1247 2.600 . S
C1245 C1243 1.392 . S
C1245 N1244 1.327 . S
C1245 H1252 0.930 . S
C1246 C1241 1.385 . S
C1246 C1243 1.370 . S
C1246 H1265 0.930 . S
Tb1247 N1244 2.600 . S
Tb1247 N1248 2.660 . S
Tb1247 O1281 2.362 . S
Tb1247 O1282 2.421 . S
Tb1247 O1286 2.546 . S
Tb1247 O1287 2.610 . S
Tb1247 O1289 2.320 . S
Tb1247 O1290 2.552 . S
Tb1247 O1291 2.413 . S
Tb1247 C1311 2.833 . S
N1248 C1240 1.360 . S
N1248 Tb1247 2.660 . S
N1248 C1249 1.305 . S
C1249 N1248 1.305 . S
C1249 C1251 1.407 . S
C1249 H1256 0.930 . S
C1250 C1238 1.410 . S
C1250 C1251 1.345 . S
C1250 H1258 0.930 . S
C1251 C1249 1.407 . S
C1251 C1250 1.345 . S
C1251 H1253 0.930 . S
H1252 C1245 0.930 . S
H1253 C1251 0.930 . S
H1254 C1242 0.930 . S
H1255 C1243 0.931 . S
H1256 C1249 0.930 . S
H1257 C1271 0.930 . S
H1258 C1250 0.930 . S
H1259 C1277 0.930 . S
H1260 C1268 0.930 . S
H1261 C1275 0.931 . S
H1262 C1239 0.929 . S
H1263 C1269 0.930 . S
H1264 C1302 0.930 . S
H1265 C1246 0.930 . S
H1266 C1301 0.929 . S
N1267 Tb1236 2.660 . S
N1267 C1268 1.305 . S
N1267 C1272 1.360 . S
C1268 H1260 0.930 . S
C1268 N1267 1.305 . S
C1268 C1271 1.407 . S
C1269 H1263 0.930 . S
C1269 C1270 1.410 . S
C1269 C1271 1.345 . S
C1270 C1269 1.410 . S
C1270 C1272 1.417 . S
C1270 C1302 1.432 . S
C1271 H1257 0.930 . S
C1271 C1268 1.407 . S
C1271 C1269 1.345 . S
C1272 N1267 1.360 . S
C1272 C1270 1.417 . S
C1272 C1276 1.432 . S
H1273 C1278 0.930 . S
N1274 Tb1236 2.600 . S
N1274 C1276 1.359 . S
N1274 C1277 1.327 . S
C1275 H1261 0.931 . S
C1275 C1277 1.392 . S
C1275 C1278 1.370 . S
C1276 C1272 1.432 . S
C1276 N1274 1.359 . S
C1276 C1279 1.414 . S
C1277 H1259 0.930 . S
C1277 N1274 1.327 . S
C1277 C1275 1.392 . S
C1278 H1273 0.930 . S
C1278 C1275 1.370 . S
C1278 C1279 1.385 . S
C1279 C1276 1.414 . S
C1279 C1278 1.385 . S
C1279 C1301 1.444 . S
O1280 Tb1236 2.546 . S
O1280 C1300 1.251 . S
O1281 Tb1236 2.610 . S
O1281 Tb1247 2.362 . S
O1281 C1292 1.283 . S
O1282 Tb1247 2.421 . S
O1282 C1299 1.262 . S
O1283 Tb1236 2.320 . S
O1283 C1299 1.260 . S
O1284 Tb1236 2.552 . S
O1284 C1292 1.243 . S
O1285 Tb1236 2.413 . S
O1285 C1300 1.256 . S
O1286 Tb1247 2.546 . S
O1286 C1311 1.251 . S
O1287 Tb1236 2.362 . S
O1287 Tb1247 2.610 . S
O1287 C1303 1.283 . S
O1288 Tb1236 2.421 . S
O1288 C1310 1.262 . S
O1289 Tb1247 2.320 . S
O1289 C1310 1.260 . S
O1290 Tb1247 2.552 . S
O1290 C1303 1.243 . S
O1291 Tb1247 2.413 . S
O1291 C1311 1.256 . S
C1292 O1281 1.283 . S
C1292 O1284 1.243 . S
C1293 C1295 1.382 . S
C1293 C1297 1.393 . S
C1293 C1300 1.500 . S
C1294 C1295 1.400 . S
C1294 C1296 1.384 . S
C1295 C1293 1.382 . S
C1295 C1294 1.400 . S
C1295 H1312 0.930 . S
C1296 C1294 1.384 . S
C1296 C1298 1.392 . S
C1296 H1313 0.931 . S
C1297 C1293 1.393 . S
C1297 C1298 1.401 . S
C1297 H1314 0.930 . S
C1298 C1296 1.392 . S
C1298 C1297 1.401 . S
C1298 H1315 0.930 . S
C1299 O1282 1.262 . S
C1299 O1283 1.260 . S
C1300 Tb1236 2.833 . S
C1300 O1280 1.251 . S
C1300 O1285 1.256 . S
C1300 C1293 1.500 . S
C1301 H1266 0.929 . S
C1301 C1279 1.444 . S
C1301 C1302 1.317 . S
C1302 H1264 0.930 . S
C1302 C1270 1.432 . S
C1302 C1301 1.317 . S
C1303 O1287 1.283 . S
C1303 O1290 1.243 . S
C1304 C1305 1.382 . S
C1304 C1308 1.393 . S
C1304 C1311 1.500 . S
C1305 C1304 1.382 . S
C1305 C1306 1.400 . S
C1305 H1316 0.930 . S
C1306 C1305 1.400 . S
C1306 C1307 1.384 . S
C1307 C1306 1.384 . S
C1307 C1309 1.392 . S
C1307 H1317 0.931 . S
C1308 C1304 1.393 . S
C1308 C1309 1.401 . S
C1308 H1318 0.930 . S
C1309 C1307 1.392 . S
C1309 C1308 1.401 . S
C1309 H1319 0.930 . S
C1310 O1288 1.262 . S
C1310 O1289 1.260 . S
C1311 Tb1247 2.833 . S
C1311 O1286 1.251 . S
C1311 O1291 1.256 . S
C1311 C1304 1.500 . S
H1312 C1295 0.930 . S
H1313 C1296 0.931 . S
H1314 C1297 0.930 . S
H1315 C1298 0.930 . S
H1316 C1305 0.930 . S
H1317 C1307 0.931 . S
H1318 C1308 0.930 . S
H1319 C1309 0.930 . S
Tb1320 N1351 2.660 . S
Tb1320 N1358 2.600 . S
Tb1320 O1364 2.546 . S
Tb1320 O1365 2.610 . S
Tb1320 O1367 2.320 . S
Tb1320 O1368 2.552 . S
Tb1320 O1369 2.413 . S
Tb1320 O1371 2.362 . S
Tb1320 O1372 2.421 . S
Tb1320 C1384 2.833 . S
C1321 C1324 1.432 . S
C1321 C1325 1.414 . S
C1321 N1328 1.359 . S
C1322 C1324 1.417 . S
C1322 C1326 1.432 . S
C1322 C1334 1.410 . S
C1323 C1325 1.444 . S
C1323 C1326 1.317 . S
C1323 H1346 0.929 . S
C1324 C1321 1.432 . S
C1324 C1322 1.417 . S
C1324 N1332 1.360 . S
C1325 C1321 1.414 . S
C1325 C1323 1.444 . S
C1325 C1330 1.385 . S
C1326 C1322 1.432 . S
C1326 C1323 1.317 . S
C1326 H1338 0.930 . S
C1327 C1329 1.392 . S
C1327 C1330 1.370 . S
C1327 H1339 0.931 . S
N1328 C1321 1.359 . S
N1328 C1329 1.327 . S
N1328 Tb1331 2.600 . S
C1329 C1327 1.392 . S
C1329 N1328 1.327 . S
C1329 H1336 0.930 . S
C1330 C1325 1.385 . S
C1330 C1327 1.370 . S
C1330 H1349 0.930 . S
Tb1331 N1328 2.600 . S
Tb1331 N1332 2.660 . S
Tb1331 O1365 2.362 . S
Tb1331 O1366 2.421 . S
Tb1331 O1370 2.546 . S
Tb1331 O1371 2.610 . S
Tb1331 O1373 2.320 . S
Tb1331 O1374 2.552 . S
Tb1331 O1375 2.413 . S
Tb1331 C1395 2.833 . S
N1332 C1324 1.360 . S
N1332 Tb1331 2.660 . S
N1332 C1333 1.305 . S
C1333 N1332 1.305 . S
C1333 C1335 1.407 . S
C1333 H1340 0.930 . S
C1334 C1322 1.410 . S
C1334 C1335 1.345 . S
C1334 H1342 0.930 . S
C1335 C1333 1.407 . S
C1335 C1334 1.345 . S
C1335 H1337 0.930 . S
H1336 C1329 0.930 . S
H1337 C1335 0.930 . S
H1338 C1326 0.930 . S
H1339 C1327 0.931 . S
H1340 C1333 0.930 . S
H1341 C1355 0.930 . S
H1342 C1334 0.930 . S
H1343 C1361 0.930 . S
H1344 C1352 0.930 . S
H1345 C1359 0.931 . S
H1346 C1323 0.929 . S
H1347 C1353 0.930 . S
H1348 C1386 0.930 . S
H1349 C1330 0.930 . S
H1350 C1385 0.929 . S
N1351 Tb1320 2.660 . S
N1351 C1352 1.305 . S
N1351 C1356 1.360 . S
C1352 H1344 0.930 . S
C1352 N1351 1.305 . S
C1352 C1355 1.407 . S
C1353 H1347 0.930 . S
C1353 C1354 1.410 . S
C1353 C1355 1.345 . S
C1354 C1353 1.410 . S
C1354 C1356 1.417 . S
C1354 C1386 1.432 . S
C1355 H1341 0.930 . S
C1355 C1352 1.407 . S
C1355 C1353 1.345 . S
C1356 N1351 1.360 . S
C1356 C1354 1.417 . S
C1356 C1360 1.432 . S
H1357 C1362 0.930 . S
N1358 Tb1320 2.600 . S
N1358 C1360 1.359 . S
N1358 C1361 1.327 . S
C1359 H1345 0.931 . S
C1359 C1361 1.392 . S
C1359 C1362 1.370 . S
C1360 C1356 1.432 . S
C1360 N1358 1.359 . S
C1360 C1363 1.414 . S
C1361 H1343 0.930 . S
C1361 N1358 1.327 . S
C1361 C1359 1.392 . S
C1362 H1357 0.930 . S
C1362 C1359 1.370 . S
C1362 C1363 1.385 . S
C1363 C1360 1.414 . S
C1363 C1362 1.385 . S
C1363 C1385 1.444 . S
O1364 Tb1320 2.546 . S
O1364 C1384 1.251 . S
O1365 Tb1320 2.610 . S
O1365 Tb1331 2.362 . S
O1365 C1376 1.283 . S
O1366 Tb1331 2.421 . S
O1366 C1383 1.262 . S
O1367 Tb1320 2.320 . S
O1367 C1383 1.260 . S
O1368 Tb1320 2.552 . S
O1368 C1376 1.243 . S
O1369 Tb1320 2.413 . S
O1369 C1384 1.256 . S
O1370 Tb1331 2.546 . S
O1370 C1395 1.251 . S
O1371 Tb1320 2.362 . S
O1371 Tb1331 2.610 . S
O1371 C1387 1.283 . S
O1372 Tb1320 2.421 . S
O1372 C1394 1.262 . S
O1373 Tb1331 2.320 . S
O1373 C1394 1.260 . S
O1374 Tb1331 2.552 . S
O1374 C1387 1.243 . S
O1375 Tb1331 2.413 . S
O1375 C1395 1.256 . S
C1376 O1365 1.283 . S
C1376 O1368 1.243 . S
C1377 C1379 1.382 . S
C1377 C1381 1.393 . S
C1377 C1384 1.500 . S
C1378 C1379 1.400 . S
C1378 C1380 1.384 . S
C1379 C1377 1.382 . S
C1379 C1378 1.400 . S
C1379 H1396 0.930 . S
C1380 C1378 1.384 . S
C1380 C1382 1.392 . S
C1380 H1397 0.931 . S
C1381 C1377 1.393 . S
C1381 C1382 1.401 . S
C1381 H1398 0.930 . S
C1382 C1380 1.392 . S
C1382 C1381 1.401 . S
C1382 H1399 0.930 . S
C1383 O1366 1.262 . S
C1383 O1367 1.260 . S
C1384 Tb1320 2.833 . S
C1384 O1364 1.251 . S
C1384 O1369 1.256 . S
C1384 C1377 1.500 . S
C1385 H1350 0.929 . S
C1385 C1363 1.444 . S
C1385 C1386 1.317 . S
C1386 H1348 0.930 . S
C1386 C1354 1.432 . S
C1386 C1385 1.317 . S
C1387 O1371 1.283 . S
C1387 O1374 1.243 . S
C1388 C1389 1.382 . S
C1388 C1392 1.393 . S
C1388 C1395 1.500 . S
C1389 C1388 1.382 . S
C1389 C1390 1.400 . S
C1389 H1400 0.930 . S
C1390 C1389 1.400 . S
C1390 C1391 1.384 . S
C1391 C1390 1.384 . S
C1391 C1393 1.392 . S
C1391 H1401 0.931 . S
C1392 C1388 1.393 . S
C1392 C1393 1.401 . S
C1392 H1402 0.930 . S
C1393 C1391 1.392 . S
C1393 C1392 1.401 . S
C1393 H1403 0.930 . S
C1394 O1372 1.262 . S
C1394 O1373 1.260 . S
C1395 Tb1331 2.833 . S
C1395 O1370 1.251 . S
C1395 O1375 1.256 . S
C1395 C1388 1.500 . S
H1396 C1379 0.930 . S
H1397 C1380 0.931 . S
H1398 C1381 0.930 . S
H1399 C1382 0.930 . S
H1400 C1389 0.930 . S
H1401 C1391 0.931 . S
H1402 C1392 0.930 . S
H1403 C1393 0.930 . S
Tb1404 N1435 2.660 . S
Tb1404 N1442 2.600 . S
Tb1404 O1448 2.546 . S
Tb1404 O1449 2.610 . S
Tb1404 O1451 2.320 . S
Tb1404 O1452 2.552 . S
Tb1404 O1453 2.413 . S
Tb1404 O1455 2.362 . S
Tb1404 O1456 2.421 . S
Tb1404 C1468 2.833 . S
C1405 C1408 1.432 . S
C1405 C1409 1.414 . S
C1405 N1412 1.359 . S
C1406 C1408 1.417 . S
C1406 C1410 1.432 . S
C1406 C1418 1.410 . S
C1407 C1409 1.444 . S
C1407 C1410 1.317 . S
C1407 H1430 0.929 . S
C1408 C1405 1.432 . S
C1408 C1406 1.417 . S
C1408 N1416 1.360 . S
C1409 C1405 1.414 . S
C1409 C1407 1.444 . S
C1409 C1414 1.385 . S
C1410 C1406 1.432 . S
C1410 C1407 1.317 . S
C1410 H1422 0.930 . S
C1411 C1413 1.392 . S
C1411 C1414 1.370 . S
C1411 H1423 0.931 . S
N1412 C1405 1.359 . S
N1412 C1413 1.327 . S
N1412 Tb1415 2.600 . S
C1413 C1411 1.392 . S
C1413 N1412 1.327 . S
C1413 H1420 0.930 . S
C1414 C1409 1.385 . S
C1414 C1411 1.370 . S
C1414 H1433 0.930 . S
Tb1415 N1412 2.600 . S
Tb1415 N1416 2.660 . S
Tb1415 O1449 2.362 . S
Tb1415 O1450 2.421 . S
Tb1415 O1454 2.546 . S
Tb1415 O1455 2.610 . S
Tb1415 O1457 2.320 . S
Tb1415 O1458 2.552 . S
Tb1415 O1459 2.413 . S
Tb1415 C1479 2.833 . S
N1416 C1408 1.360 . S
N1416 Tb1415 2.660 . S
N1416 C1417 1.305 . S
C1417 N1416 1.305 . S
C1417 C1419 1.407 . S
C1417 H1424 0.930 . S
C1418 C1406 1.410 . S
C1418 C1419 1.345 . S
C1418 H1426 0.930 . S
C1419 C1417 1.407 . S
C1419 C1418 1.345 . S
C1419 H1421 0.930 . S
H1420 C1413 0.930 . S
H1421 C1419 0.930 . S
H1422 C1410 0.930 . S
H1423 C1411 0.931 . S
H1424 C1417 0.930 . S
H1425 C1439 0.930 . S
H1426 C1418 0.930 . S
H1427 C1445 0.930 . S
H1428 C1436 0.930 . S
H1429 C1443 0.931 . S
H1430 C1407 0.929 . S
H1431 C1437 0.930 . S
H1432 C1470 0.930 . S
H1433 C1414 0.930 . S
H1434 C1469 0.929 . S
N1435 Tb1404 2.660 . S
N1435 C1436 1.305 . S
N1435 C1440 1.360 . S
C1436 H1428 0.930 . S
C1436 N1435 1.305 . S
C1436 C1439 1.407 . S
C1437 H1431 0.930 . S
C1437 C1438 1.410 . S
C1437 C1439 1.345 . S
C1438 C1437 1.410 . S
C1438 C1440 1.417 . S
C1438 C1470 1.432 . S
C1439 H1425 0.930 . S
C1439 C1436 1.407 . S
C1439 C1437 1.345 . S
C1440 N1435 1.360 . S
C1440 C1438 1.417 . S
C1440 C1444 1.432 . S
H1441 C1446 0.930 . S
N1442 Tb1404 2.600 . S
N1442 C1444 1.359 . S
N1442 C1445 1.327 . S
C1443 H1429 0.931 . S
C1443 C1445 1.392 . S
C1443 C1446 1.370 . S
C1444 C1440 1.432 . S
C1444 N1442 1.359 . S
C1444 C1447 1.414 . S
C1445 H1427 0.930 . S
C1445 N1442 1.327 . S
C1445 C1443 1.392 . S
C1446 H1441 0.930 . S
C1446 C1443 1.370 . S
C1446 C1447 1.385 . S
C1447 C1444 1.414 . S
C1447 C1446 1.385 . S
C1447 C1469 1.444 . S
O1448 Tb1404 2.546 . S
O1448 C1468 1.251 . S
O1449 Tb1404 2.610 . S
O1449 Tb1415 2.362 . S
O1449 C1460 1.283 . S
O1450 Tb1415 2.421 . S
O1450 C1467 1.262 . S
O1451 Tb1404 2.320 . S
O1451 C1467 1.260 . S
O1452 Tb1404 2.552 . S
O1452 C1460 1.243 . S
O1453 Tb1404 2.413 . S
O1453 C1468 1.256 . S
O1454 Tb1415 2.546 . S
O1454 C1479 1.251 . S
O1455 Tb1404 2.362 . S
O1455 Tb1415 2.610 . S
O1455 C1471 1.283 . S
O1456 Tb1404 2.421 . S
O1456 C1478 1.262 . S
O1457 Tb1415 2.320 . S
O1457 C1478 1.260 . S
O1458 Tb1415 2.552 . S
O1458 C1471 1.243 . S
O1459 Tb1415 2.413 . S
O1459 C1479 1.256 . S
C1460 O1449 1.283 . S
C1460 O1452 1.243 . S
C1461 C1463 1.382 . S
C1461 C1465 1.393 . S
C1461 C1468 1.500 . S
C1462 C1463 1.400 . S
C1462 C1464 1.384 . S
C1463 C1461 1.382 . S
C1463 C1462 1.400 . S
C1463 H1480 0.930 . S
C1464 C1462 1.384 . S
C1464 C1466 1.392 . S
C1464 H1481 0.931 . S
C1465 C1461 1.393 . S
C1465 C1466 1.401 . S
C1465 H1482 0.930 . S
C1466 C1464 1.392 . S
C1466 C1465 1.401 . S
C1466 H1483 0.930 . S
C1467 O1450 1.262 . S
C1467 O1451 1.260 . S
C1468 Tb1404 2.833 . S
C1468 O1448 1.251 . S
C1468 O1453 1.256 . S
C1468 C1461 1.500 . S
C1469 H1434 0.929 . S
C1469 C1447 1.444 . S
C1469 C1470 1.317 . S
C1470 H1432 0.930 . S
C1470 C1438 1.432 . S
C1470 C1469 1.317 . S
C1471 O1455 1.283 . S
C1471 O1458 1.243 . S
C1472 C1473 1.382 . S
C1472 C1476 1.393 . S
C1472 C1479 1.500 . S
C1473 C1472 1.382 . S
C1473 C1474 1.400 . S
C1473 H1484 0.930 . S
C1474 C1473 1.400 . S
C1474 C1475 1.384 . S
C1475 C1474 1.384 . S
C1475 C1477 1.392 . S
C1475 H1485 0.931 . S
C1476 C1472 1.393 . S
C1476 C1477 1.401 . S
C1476 H1486 0.930 . S
C1477 C1475 1.392 . S
C1477 C1476 1.401 . S
C1477 H1487 0.930 . S
C1478 O1456 1.262 . S
C1478 O1457 1.260 . S
C1479 Tb1415 2.833 . S
C1479 O1454 1.251 . S
C1479 O1459 1.256 . S
C1479 C1472 1.500 . S
H1480 C1463 0.930 . S
H1481 C1464 0.931 . S
H1482 C1465 0.930 . S
H1483 C1466 0.930 . S
H1484 C1473 0.930 . S
H1485 C1475 0.931 . S
H1486 C1476 0.930 . S
H1487 C1477 0.930 . S
Tb1488 N1519 2.660 . S
Tb1488 N1526 2.600 . S
Tb1488 O1532 2.546 . S
Tb1488 O1533 2.610 . S
Tb1488 O1535 2.320 . S
Tb1488 O1536 2.552 . S
Tb1488 O1537 2.413 . S
Tb1488 O1539 2.362 . S
Tb1488 O1540 2.421 . S
Tb1488 C1552 2.833 . S
C1489 C1492 1.432 . S
C1489 C1493 1.414 . S
C1489 N1496 1.359 . S
C1490 C1492 1.417 . S
C1490 C1494 1.432 . S
C1490 C1502 1.410 . S
C1491 C1493 1.444 . S
C1491 C1494 1.317 . S
C1491 H1514 0.929 . S
C1492 C1489 1.432 . S
C1492 C1490 1.417 . S
C1492 N1500 1.360 . S
C1493 C1489 1.414 . S
C1493 C1491 1.444 . S
C1493 C1498 1.385 . S
C1494 C1490 1.432 . S
C1494 C1491 1.317 . S
C1494 H1506 0.930 . S
C1495 C1497 1.392 . S
C1495 C1498 1.370 . S
C1495 H1507 0.931 . S
N1496 C1489 1.359 . S
N1496 C1497 1.327 . S
N1496 Tb1499 2.600 . S
C1497 C1495 1.392 . S
C1497 N1496 1.327 . S
C1497 H1504 0.930 . S
C1498 C1493 1.385 . S
C1498 C1495 1.370 . S
C1498 H1517 0.930 . S
Tb1499 N1496 2.600 . S
Tb1499 N1500 2.660 . S
Tb1499 O1533 2.362 . S
Tb1499 O1534 2.421 . S
Tb1499 O1538 2.546 . S
Tb1499 O1539 2.610 . S
Tb1499 O1541 2.320 . S
Tb1499 O1542 2.552 . S
Tb1499 O1543 2.413 . S
Tb1499 C1563 2.833 . S
N1500 C1492 1.360 . S
N1500 Tb1499 2.660 . S
N1500 C1501 1.305 . S
C1501 N1500 1.305 . S
C1501 C1503 1.407 . S
C1501 H1508 0.930 . S
C1502 C1490 1.410 . S
C1502 C1503 1.345 . S
C1502 H1510 0.930 . S
C1503 C1501 1.407 . S
C1503 C1502 1.345 . S
C1503 H1505 0.930 . S
H1504 C1497 0.930 . S
H1505 C1503 0.930 . S
H1506 C1494 0.930 . S
H1507 C1495 0.931 . S
H1508 C1501 0.930 . S
H1509 C1523 0.930 . S
H1510 C1502 0.930 . S
H1511 C1529 0.930 . S
H1512 C1520 0.930 . S
H1513 C1527 0.931 . S
H1514 C1491 0.929 . S
H1515 C1521 0.930 . S
H1516 C1554 0.930 . S
H1517 C1498 0.930 . S
H1518 C1553 0.929 . S
N1519 Tb1488 2.660 . S
N1519 C1520 1.305 . S
N1519 C1524 1.360 . S
C1520 H1512 0.930 . S
C1520 N1519 1.305 . S
C1520 C1523 1.407 . S
C1521 H1515 0.930 . S
C1521 C1522 1.410 . S
C1521 C1523 1.345 . S
C1522 C1521 1.410 . S
C1522 C1524 1.417 . S
C1522 C1554 1.432 . S
C1523 H1509 0.930 . S
C1523 C1520 1.407 . S
C1523 C1521 1.345 . S
C1524 N1519 1.360 . S
C1524 C1522 1.417 . S
C1524 C1528 1.432 . S
H1525 C1530 0.930 . S
N1526 Tb1488 2.600 . S
N1526 C1528 1.359 . S
N1526 C1529 1.327 . S
C1527 H1513 0.931 . S
C1527 C1529 1.392 . S
C1527 C1530 1.370 . S
C1528 C1524 1.432 . S
C1528 N1526 1.359 . S
C1528 C1531 1.414 . S
C1529 H1511 0.930 . S
C1529 N1526 1.327 . S
C1529 C1527 1.392 . S
C1530 H1525 0.930 . S
C1530 C1527 1.370 . S
C1530 C1531 1.385 . S
C1531 C1528 1.414 . S
C1531 C1530 1.385 . S
C1531 C1553 1.444 . S
O1532 Tb1488 2.546 . S
O1532 C1552 1.251 . S
O1533 Tb1488 2.610 . S
O1533 Tb1499 2.362 . S
O1533 C1544 1.283 . S
O1534 Tb1499 2.421 . S
O1534 C1551 1.262 . S
O1535 Tb1488 2.320 . S
O1535 C1551 1.260 . S
O1536 Tb1488 2.552 . S
O1536 C1544 1.243 . S
O1537 Tb1488 2.413 . S
O1537 C1552 1.256 . S
O1538 Tb1499 2.546 . S
O1538 C1563 1.251 . S
O1539 Tb1488 2.362 . S
O1539 Tb1499 2.610 . S
O1539 C1555 1.283 . S
O1540 Tb1488 2.421 . S
O1540 C1562 1.262 . S
O1541 Tb1499 2.320 . S
O1541 C1562 1.260 . S
O1542 Tb1499 2.552 . S
O1542 C1555 1.243 . S
O1543 Tb1499 2.413 . S
O1543 C1563 1.256 . S
C1544 O1533 1.283 . S
C1544 O1536 1.243 . S
C1545 C1547 1.382 . S
C1545 C1549 1.393 . S
C1545 C1552 1.500 . S
C1546 C1547 1.400 . S
C1546 C1548 1.384 . S
C1547 C1545 1.382 . S
C1547 C1546 1.400 . S
C1547 H1564 0.930 . S
C1548 C1546 1.384 . S
C1548 C1550 1.392 . S
C1548 H1565 0.931 . S
C1549 C1545 1.393 . S
C1549 C1550 1.401 . S
C1549 H1566 0.930 . S
C1550 C1548 1.392 . S
C1550 C1549 1.401 . S
C1550 H1567 0.930 . S
C1551 O1534 1.262 . S
C1551 O1535 1.260 . S
C1552 Tb1488 2.833 . S
C1552 O1532 1.251 . S
C1552 O1537 1.256 . S
C1552 C1545 1.500 . S
C1553 H1518 0.929 . S
C1553 C1531 1.444 . S
C1553 C1554 1.317 . S
C1554 H1516 0.930 . S
C1554 C1522 1.432 . S
C1554 C1553 1.317 . S
C1555 O1539 1.283 . S
C1555 O1542 1.243 . S
C1556 C1557 1.382 . S
C1556 C1560 1.393 . S
C1556 C1563 1.500 . S
C1557 C1556 1.382 . S
C1557 C1558 1.400 . S
C1557 H1568 0.930 . S
C1558 C1557 1.400 . S
C1558 C1559 1.384 . S
C1559 C1558 1.384 . S
C1559 C1561 1.392 . S
C1559 H1569 0.931 . S
C1560 C1556 1.393 . S
C1560 C1561 1.401 . S
C1560 H1570 0.930 . S
C1561 C1559 1.392 . S
C1561 C1560 1.401 . S
C1561 H1571 0.930 . S
C1562 O1540 1.262 . S
C1562 O1541 1.260 . S
C1563 Tb1499 2.833 . S
C1563 O1538 1.251 . S
C1563 O1543 1.256 . S
C1563 C1556 1.500 . S
H1564 C1547 0.930 . S
H1565 C1548 0.931 . S
H1566 C1549 0.930 . S
H1567 C1550 0.930 . S
H1568 C1557 0.930 . S
H1569 C1559 0.931 . S
H1570 C1560 0.930 . S
H1571 C1561 0.930 . S
Tb1572 N1603 2.660 . S
Tb1572 N1610 2.600 1_554 S
Tb1572 O1616 2.546 1_554 S
Tb1572 O1617 2.610 . S
Tb1572 O1619 2.320 . S
Tb1572 O1620 2.552 . S
Tb1572 O1621 2.413 . S
Tb1572 O1623 2.362 . S
Tb1572 O1624 2.421 1_554 S
Tb1572 C1636 2.833 . S
C1573 C1576 1.432 . S
C1573 C1577 1.414 . S
C1573 N1580 1.359 . S
C1574 C1576 1.417 . S
C1574 C1578 1.432 . S
C1574 C1586 1.410 . S
C1575 C1577 1.444 . S
C1575 C1578 1.317 . S
C1575 H1598 0.929 . S
C1576 C1573 1.432 . S
C1576 C1574 1.417 . S
C1576 N1584 1.360 . S
C1577 C1573 1.414 . S
C1577 C1575 1.444 . S
C1577 C1582 1.385 . S
C1578 C1574 1.432 . S
C1578 C1575 1.317 . S
C1578 H1590 0.930 . S
C1579 C1581 1.392 1_655 S
C1579 C1582 1.370 . S
C1579 H1591 0.931 . S
N1580 C1573 1.359 . S
N1580 C1581 1.327 1_655 S
N1580 Tb1583 2.600 1_655 S
C1581 C1579 1.392 1_455 S
C1581 N1580 1.327 1_455 S
C1581 H1588 0.930 . S
C1582 C1577 1.385 . S
C1582 C1579 1.370 . S
C1582 H1601 0.930 . S
Tb1583 N1580 2.600 1_455 S
Tb1583 N1584 2.660 1_455 S
Tb1583 O1617 2.362 . S
Tb1583 O1618 2.421 . S
Tb1583 O1622 2.546 1_455 S
Tb1583 O1623 2.610 . S
Tb1583 O1625 2.320 . S
Tb1583 O1626 2.552 . S
Tb1583 O1627 2.413 1_455 S
Tb1583 C1647 2.833 1_455 S
N1584 C1576 1.360 . S
N1584 Tb1583 2.660 1_655 S
N1584 C1585 1.305 . S
C1585 N1584 1.305 . S
C1585 C1587 1.407 1_554 S
C1585 H1592 0.906 1_554 S
C1586 C1574 1.410 . S
C1586 C1587 1.345 1_554 S
C1586 H1594 0.930 . S
C1587 C1585 1.407 1_556 S
C1587 C1586 1.345 1_556 S
C1587 H1589 0.930 . S
H1588 C1581 0.930 . S
H1589 C1587 0.930 . S
H1590 C1578 0.930 . S
H1591 C1579 0.931 . S
H1592 C1585 0.906 1_556 S
H1593 C1607 0.930 . S
H1594 C1586 0.930 . S
H1595 C1613 0.930 . S
H1596 C1604 0.930 . S
H1597 C1611 0.931 . S
H1598 C1575 0.929 . S
H1599 C1605 0.930 . S
H1600 C1638 0.930 . S
H1601 C1582 0.930 . S
H1602 C1637 0.929 1_556 S
N1603 Tb1572 2.660 . S
N1603 C1604 1.305 . S
N1603 C1608 1.360 . S
C1604 H1596 0.930 . S
C1604 N1603 1.305 . S
C1604 C1607 1.407 . S
C1605 H1599 0.930 . S
C1605 C1606 1.410 . S
C1605 C1607 1.345 . S
C1606 C1605 1.410 . S
C1606 C1608 1.417 . S
C1606 C1638 1.432 . S
C1607 H1593 0.930 . S
C1607 C1604 1.407 . S
C1607 C1605 1.345 . S
C1608 N1603 1.360 . S
C1608 C1606 1.417 . S
C1608 C1612 1.432 . S
H1609 C1614 0.930 . S
N1610 Tb1572 2.600 1_556 S
N1610 C1612 1.359 1_556 S
N1610 C1613 1.327 . S
C1611 H1597 0.931 . S
C1611 C1613 1.392 . S
C1611 C1614 1.370 . S
C1612 C1608 1.432 . S
C1612 N1610 1.359 1_554 S
C1612 C1615 1.414 1_554 S
C1613 H1595 0.930 . S
C1613 N1610 1.327 . S
C1613 C1611 1.392 . S
C1614 H1609 0.930 . S
C1614 C1611 1.370 . S
C1614 C1615 1.385 . S
C1615 C1612 1.414 1_556 S
C1615 C1614 1.385 . S
C1615 C1637 1.444 1_556 S
O1616 Tb1572 2.546 1_556 S
O1616 C1636 1.251 1_556 S
O1617 Tb1572 2.610 . S
O1617 Tb1583 2.362 . S
O1617 C1628 1.283 . S
O1618 Tb1583 2.421 . S
O1618 C1635 1.262 . S
O1619 Tb1572 2.320 . S
O1619 C1635 1.260 . S
O1620 Tb1572 2.552 . S
O1620 C1628 1.243 . S
O1621 Tb1572 2.413 . S
O1621 C1636 1.256 . S
O1622 Tb1583 2.546 1_655 S
O1622 C1647 1.251 . S
O1623 Tb1572 2.362 . S
O1623 Tb1583 2.610 . S
O1623 C1639 1.283 . S
O1624 Tb1572 2.421 1_556 S
O1624 C1646 1.262 . S
O1625 Tb1583 2.320 . S
O1625 C1646 1.260 1_554 S
O1626 Tb1583 2.552 . S
O1626 C1639 1.243 . S
O1627 Tb1583 2.413 1_655 S
O1627 C1647 1.256 . S
C1628 O1617 1.283 . S
C1628 O1620 1.243 . S
C1629 C1631 1.382 . S
C1629 C1633 1.393 1_554 S
C1629 C1636 1.500 . S
C1630 C1631 1.400 . S
C1630 C1632 1.384 1_554 S
C1631 C1629 1.382 . S
C1631 C1630 1.400 . S
C1631 H1648 0.930 . S
C1632 C1630 1.384 1_556 S
C1632 C1634 1.392 . S
C1632 H1649 0.931 . S
C1633 C1629 1.393 1_556 S
C1633 C1634 1.401 . S
C1633 H1650 0.930 . S
C1634 C1632 1.392 . S
C1634 C1633 1.401 . S
C1634 H1651 0.930 . S
C1635 O1618 1.262 . S
C1635 O1619 1.260 . S
C1636 Tb1572 2.833 . S
C1636 O1616 1.251 1_554 S
C1636 O1621 1.256 . S
C1636 C1629 1.500 . S
C1637 H1602 0.929 1_554 S
C1637 C1615 1.444 1_554 S
C1637 C1638 1.317 . S
C1638 H1600 0.930 . S
C1638 C1606 1.432 . S
C1638 C1637 1.317 . S
C1639 O1623 1.283 . S
C1639 O1626 1.243 . S
C1640 C1641 1.382 . S
C1640 C1644 1.393 . S
C1640 C1647 1.500 . S
C1641 C1640 1.382 . S
C1641 C1642 1.400 . S
C1641 H1652 0.930 . S
C1642 C1641 1.400 . S
C1642 C1643 1.384 . S
C1643 C1642 1.384 . S
C1643 C1645 1.392 . S
C1643 H1653 0.931 . S
C1644 C1640 1.393 . S
C1644 C1645 1.401 . S
C1644 H1654 0.930 . S
C1645 C1643 1.392 . S
C1645 C1644 1.401 . S
C1645 H1655 0.930 . S
C1646 O1624 1.262 . S
C1646 O1625 1.260 1_556 S
C1647 Tb1583 2.833 1_655 S
C1647 O1622 1.251 . S
C1647 O1627 1.256 . S
C1647 C1640 1.500 . S
H1648 C1631 0.930 . S
H1649 C1632 0.931 . S
H1650 C1633 0.930 . S
H1651 C1634 0.930 . S
H1652 C1641 0.930 . S
H1653 C1643 0.931 . S
H1654 C1644 0.930 . S
H1655 C1645 0.930 . S
H1656 C1674 0.951 . S
H1657 C1676 0.951 . S
H1658 C1678 0.950 . S
H1659 C1679 0.967 . S
H1660 C1681 0.950 . S
H1661 C1684 0.950 . S
H1662 C1685 0.950 . S
H1663 C1687 0.950 . S
H1664 C1688 0.950 1_554 S
H1665 C1689 0.951 . S
H1666 C1691 0.951 1_556 S
H1667 C1693 0.950 . S
H1668 C1694 0.950 . S
H1669 C1696 0.950 . S
H1670 C1699 0.950 . S
H1671 C1700 0.950 . S
H1672 C1702 0.931 1_556 S
H1673 C1703 0.950 . S
C1674 H1656 0.951 . S
C1674 C1675 1.366 . S
C1674 C1676 1.388 . S
C1675 C1674 1.366 . S
C1675 C1679 1.385 . S
C1676 H1657 0.951 . S
C1676 C1674 1.388 . S
C1676 C1677 1.366 . S
C1677 C1676 1.366 . S
C1677 C1678 1.414 . S
C1677 C1680 1.499 . S
C1678 H1658 0.950 . S
C1678 C1677 1.414 . S
C1678 C1679 1.374 . S
C1679 H1659 0.967 . S
C1679 C1675 1.385 . S
C1679 C1678 1.374 . S
C1680 C1677 1.499 . S
C1680 C1681 1.373 . S
C1680 C1682 1.389 . S
C1681 H1660 0.950 . S
C1681 C1680 1.373 . S
C1681 C1697 1.377 . S
C1682 C1680 1.389 . S
C1682 C1683 1.524 . S
C1682 C1696 1.377 . S
C1683 C1682 1.524 . S
C1683 C1684 1.397 . S
C1683 C1688 1.363 . S
C1684 H1661 0.950 . S
C1684 C1683 1.397 . S
C1684 C1685 1.334 . S
C1685 H1662 0.950 . S
C1685 C1684 1.334 . S
C1685 C1686 1.287 . S
C1686 C1685 1.287 . S
C1686 C1687 1.524 . S
C1686 H1705 0.913 . S
C1687 H1663 0.950 . S
C1687 C1686 1.524 . S
C1687 C1688 1.415 . S
C1688 H1664 0.950 1_556 S
C1688 C1683 1.363 . S
C1688 C1687 1.415 . S
C1689 H1665 0.951 . S
C1689 C1690 1.366 . S
C1689 C1691 1.388 . S
C1690 C1689 1.366 . S
C1690 C1694 1.385 . S
C1691 H1666 0.951 1_554 S
C1691 C1689 1.388 . S
C1691 C1692 1.366 . S
C1692 C1691 1.366 . S
C1692 C1693 1.414 . S
C1692 C1695 1.499 . S
C1693 H1667 0.950 . S
C1693 C1692 1.414 . S
C1693 C1694 1.374 . S
C1694 H1668 0.950 . S
C1694 C1690 1.385 . S
C1694 C1693 1.374 . S
C1695 C1692 1.499 . S
C1695 C1696 1.373 1_554 S
C1695 C1697 1.389 1_554 S
C1696 H1669 0.950 . S
C1696 C1682 1.377 . S
C1696 C1695 1.373 1_556 S
C1697 C1681 1.377 . S
C1697 C1695 1.389 1_556 S
C1697 C1698 1.524 1_556 S
C1698 C1697 1.524 1_554 S
C1698 C1699 1.397 . S
C1698 C1703 1.363 1_454 S
C1699 H1670 0.950 . S
C1699 C1698 1.397 . S
C1699 C1700 1.334 1_455 S
C1700 H1671 0.950 . S
C1700 C1699 1.334 1_655 S
C1700 C1701 1.287 . S
C1701 C1700 1.287 . S
C1701 C1702 1.570 . S
C1701 H1704 0.999 . S
C1702 H1672 0.931 1_554 S
C1702 C1701 1.570 . S
C1702 C1703 1.392 1_554 S
C1703 H1673 0.950 . S
C1703 C1698 1.363 1_656 S
C1703 C1702 1.392 1_556 S
H1704 C1701 0.999 . S
H1705 C1686 0.913 . S
H1706 C1724 0.951 . S
H1707 C1726 0.951 . S
H1708 C1728 0.950 . S
H1709 C1729 0.950 . S
H1710 C1731 0.950 . S
H1711 C1734 0.950 . S
H1712 C1735 0.950 . S
H1713 C1737 0.950 . S
H1714 C1738 0.950 . S
H1715 C1739 0.951 . S
H1716 C1741 0.951 . S
H1717 C1743 0.950 . S
H1718 C1744 0.950 . S
H1719 C1746 0.950 . S
H1720 C1749 0.950 . S
H1721 C1750 0.950 . S
H1722 C1752 0.950 . S
H1723 C1753 0.950 . S
C1724 H1706 0.951 . S
C1724 C1725 1.366 . S
C1724 C1726 1.388 . S
C1725 C1724 1.366 . S
C1725 C1729 1.385 . S
C1726 H1707 0.951 . S
C1726 C1724 1.388 . S
C1726 C1727 1.366 . S
C1727 C1726 1.366 . S
C1727 C1728 1.414 . S
C1727 C1730 1.499 . S
C1728 H1708 0.950 . S
C1728 C1727 1.414 . S
C1728 C1729 1.374 . S
C1729 H1709 0.950 . S
C1729 C1725 1.385 . S
C1729 C1728 1.374 . S
C1730 C1727 1.499 . S
C1730 C1731 1.373 . S
C1730 C1732 1.389 . S
C1731 H1710 0.950 . S
C1731 C1730 1.373 . S
C1731 C1747 1.377 . S
C1732 C1730 1.389 . S
C1732 C1733 1.524 . S
C1732 C1746 1.377 . S
C1733 C1732 1.524 . S
C1733 C1734 1.397 . S
C1733 C1738 1.363 . S
C1734 H1711 0.950 . S
C1734 C1733 1.397 . S
C1734 C1735 1.334 . S
C1735 H1712 0.950 . S
C1735 C1734 1.334 . S
C1735 C1736 1.287 . S
C1736 C1735 1.287 . S
C1736 C1737 1.524 . S
C1736 H1755 0.913 . S
C1737 H1713 0.950 . S
C1737 C1736 1.524 . S
C1737 C1738 1.415 . S
C1738 H1714 0.950 . S
C1738 C1733 1.363 . S
C1738 C1737 1.415 . S
C1739 H1715 0.951 . S
C1739 C1740 1.366 . S
C1739 C1741 1.388 . S
C1740 C1739 1.366 . S
C1740 C1744 1.385 . S
C1741 H1716 0.951 . S
C1741 C1739 1.388 . S
C1741 C1742 1.366 . S
C1742 C1741 1.366 . S
C1742 C1743 1.414 . S
C1742 C1745 1.499 . S
C1743 H1717 0.950 . S
C1743 C1742 1.414 . S
C1743 C1744 1.374 . S
C1744 H1718 0.950 . S
C1744 C1740 1.385 . S
C1744 C1743 1.374 . S
C1745 C1742 1.499 . S
C1745 C1746 1.373 . S
C1745 C1747 1.389 . S
C1746 H1719 0.950 . S
C1746 C1732 1.377 . S
C1746 C1745 1.373 . S
C1747 C1731 1.377 . S
C1747 C1745 1.389 . S
C1747 C1748 1.524 . S
C1748 C1747 1.524 . S
C1748 C1749 1.397 . S
C1748 C1753 1.363 . S
C1749 H1720 0.950 . S
C1749 C1748 1.397 . S
C1749 C1750 1.334 . S
C1750 H1721 0.950 . S
C1750 C1749 1.334 . S
C1750 C1751 1.287 . S
C1751 C1750 1.287 . S
C1751 C1752 1.524 . S
C1751 H1754 0.999 . S
C1752 H1722 0.950 . S
C1752 C1751 1.524 . S
C1752 C1753 1.415 . S
C1753 H1723 0.950 . S
C1753 C1748 1.363 . S
C1753 C1752 1.415 . S
H1754 C1751 0.999 . S
H1755 C1736 0.913 . S
H1756 C1774 0.951 . S
H1757 C1776 0.951 . S
H1758 C1778 0.950 . S
H1759 C1779 0.950 . S
H1760 C1781 0.950 . S
H1761 C1784 0.950 . S
H1762 C1785 0.950 . S
H1763 C1787 0.950 . S
H1764 C1788 0.950 . S
H1765 C1789 0.951 . S
H1766 C1791 0.951 . S
H1767 C1793 0.950 . S
H1768 C1794 0.950 . S
H1769 C1796 0.950 . S
H1770 C1799 0.950 . S
H1771 C1800 0.950 . S
H1772 C1802 0.950 . S
H1773 C1803 0.950 . S
C1774 H1756 0.951 . S
C1774 C1775 1.366 . S
C1774 C1776 1.388 . S
C1775 C1774 1.366 . S
C1775 C1779 1.385 . S
C1776 H1757 0.951 . S
C1776 C1774 1.388 . S
C1776 C1777 1.366 . S
C1777 C1776 1.366 . S
C1777 C1778 1.414 . S
C1777 C1780 1.499 . S
C1778 H1758 0.950 . S
C1778 C1777 1.414 . S
C1778 C1779 1.374 . S
C1779 H1759 0.950 . S
C1779 C1775 1.385 . S
C1779 C1778 1.374 . S
C1780 C1777 1.499 . S
C1780 C1781 1.373 . S
C1780 C1782 1.389 . S
C1781 H1760 0.950 . S
C1781 C1780 1.373 . S
C1781 C1797 1.377 . S
C1782 C1780 1.389 . S
C1782 C1783 1.524 . S
C1782 C1796 1.377 . S
C1783 C1782 1.524 . S
C1783 C1784 1.397 . S
C1783 C1788 1.363 . S
C1784 H1761 0.950 . S
C1784 C1783 1.397 . S
C1784 C1785 1.334 . S
C1785 H1762 0.950 . S
C1785 C1784 1.334 . S
C1785 C1786 1.287 . S
C1786 C1785 1.287 . S
C1786 C1787 1.524 . S
C1786 H1805 0.913 . S
C1787 H1763 0.950 . S
C1787 C1786 1.524 . S
C1787 C1788 1.415 . S
C1788 H1764 0.950 . S
C1788 C1783 1.363 . S
C1788 C1787 1.415 . S
C1789 H1765 0.951 . S
C1789 C1790 1.366 . S
C1789 C1791 1.388 . S
C1790 C1789 1.366 . S
C1790 C1794 1.385 . S
C1791 H1766 0.951 . S
C1791 C1789 1.388 . S
C1791 C1792 1.366 . S
C1792 C1791 1.366 . S
C1792 C1793 1.414 . S
C1792 C1795 1.499 . S
C1793 H1767 0.950 . S
C1793 C1792 1.414 . S
C1793 C1794 1.374 . S
C1794 H1768 0.950 . S
C1794 C1790 1.385 . S
C1794 C1793 1.374 . S
C1795 C1792 1.499 . S
C1795 C1796 1.373 . S
C1795 C1797 1.389 . S
C1796 H1769 0.950 . S
C1796 C1782 1.377 . S
C1796 C1795 1.373 . S
C1797 C1781 1.377 . S
C1797 C1795 1.389 . S
C1797 C1798 1.524 . S
C1798 C1797 1.524 . S
C1798 C1799 1.397 . S
C1798 C1803 1.363 . S
C1799 H1770 0.950 . S
C1799 C1798 1.397 . S
C1799 C1800 1.334 . S
C1800 H1771 0.950 . S
C1800 C1799 1.334 . S
C1800 C1801 1.287 . S
C1801 C1800 1.287 . S
C1801 C1802 1.524 . S
C1801 H1804 0.999 . S
C1802 H1772 0.950 . S
C1802 C1801 1.524 . S
C1802 C1803 1.415 . S
C1803 H1773 0.950 . S
C1803 C1798 1.363 . S
C1803 C1802 1.415 . S
H1804 C1801 0.999 . S
H1805 C1786 0.913 . S
H1806 C1824 0.951 . S
H1807 C1826 0.951 . S
H1808 C1828 0.950 . S
H1809 C1829 0.950 . S
H1810 C1831 0.950 . S
H1811 C1834 0.950 . S
H1812 C1835 0.950 . S
H1813 C1837 0.950 . S
H1814 C1838 0.950 . S
H1815 C1839 0.951 . S
H1816 C1841 0.951 . S
H1817 C1843 0.950 . S
H1818 C1844 0.950 . S
H1819 C1846 0.950 . S
H1820 C1849 0.950 . S
H1821 C1850 0.950 . S
H1822 C1852 0.950 . S
H1823 C1853 0.950 . S
C1824 H1806 0.951 . S
C1824 C1825 1.366 . S
C1824 C1826 1.388 . S
C1825 C1824 1.366 . S
C1825 C1829 1.385 . S
C1826 H1807 0.951 . S
C1826 C1824 1.388 . S
C1826 C1827 1.366 . S
C1827 C1826 1.366 . S
C1827 C1828 1.414 . S
C1827 C1830 1.499 . S
C1828 H1808 0.950 . S
C1828 C1827 1.414 . S
C1828 C1829 1.374 . S
C1829 H1809 0.950 . S
C1829 C1825 1.385 . S
C1829 C1828 1.374 . S
C1830 C1827 1.499 . S
C1830 C1831 1.373 . S
C1830 C1832 1.389 . S
C1831 H1810 0.950 . S
C1831 C1830 1.373 . S
C1831 C1847 1.377 . S
C1832 C1830 1.389 . S
C1832 C1833 1.524 . S
C1832 C1846 1.377 . S
C1833 C1832 1.524 . S
C1833 C1834 1.397 . S
C1833 C1838 1.363 . S
C1834 H1811 0.950 . S
C1834 C1833 1.397 . S
C1834 C1835 1.334 . S
C1835 H1812 0.950 . S
C1835 C1834 1.334 . S
C1835 C1836 1.287 . S
C1836 C1835 1.287 . S
C1836 C1837 1.524 . S
C1836 H1855 0.913 . S
C1837 H1813 0.950 . S
C1837 C1836 1.524 . S
C1837 C1838 1.415 . S
C1838 H1814 0.950 . S
C1838 C1833 1.363 . S
C1838 C1837 1.415 . S
C1839 H1815 0.951 . S
C1839 C1840 1.366 . S
C1839 C1841 1.388 . S
C1840 C1839 1.366 . S
C1840 C1844 1.385 . S
C1841 H1816 0.951 . S
C1841 C1839 1.388 . S
C1841 C1842 1.366 . S
C1842 C1841 1.366 . S
C1842 C1843 1.414 . S
C1842 C1845 1.499 . S
C1843 H1817 0.950 . S
C1843 C1842 1.414 . S
C1843 C1844 1.374 . S
C1844 H1818 0.950 . S
C1844 C1840 1.385 . S
C1844 C1843 1.374 . S
C1845 C1842 1.499 . S
C1845 C1846 1.373 . S
C1845 C1847 1.389 . S
C1846 H1819 0.950 . S
C1846 C1832 1.377 . S
C1846 C1845 1.373 . S
C1847 C1831 1.377 . S
C1847 C1845 1.389 . S
C1847 C1848 1.524 . S
C1848 C1847 1.524 . S
C1848 C1849 1.397 . S
C1848 C1853 1.363 . S
C1849 H1820 0.950 . S
C1849 C1848 1.397 . S
C1849 C1850 1.334 . S
C1850 H1821 0.950 . S
C1850 C1849 1.334 . S
C1850 C1851 1.287 . S
C1851 C1850 1.287 . S
C1851 C1852 1.524 . S
C1851 H1854 0.999 . S
C1852 H1822 0.950 . S
C1852 C1851 1.524 . S
C1852 C1853 1.415 . S
C1853 H1823 0.950 . S
C1853 C1848 1.363 . S
C1853 C1852 1.415 . S
H1854 C1851 0.999 . S
H1855 C1836 0.913 . S
H1856 C1874 0.951 1_655 S
H1857 C1876 0.951 . S
H1858 C1878 0.950 . S
H1859 C1879 0.950 . S
H1860 C1881 0.950 . S
H1861 C1884 0.950 . S
H1862 C1885 0.950 . S
H1863 C1887 0.950 . S
H1864 C1888 0.950 . S
H1865 C1889 0.951 . S
H1866 C1891 0.951 . S
H1867 C1893 0.950 . S
H1868 C1894 0.950 . S
H1869 C1896 0.950 . S
H1870 C1899 0.950 . S
H1871 C1900 0.950 . S
H1872 C1902 0.950 . S
H1873 C1903 0.950 . S
C1874 H1856 0.951 1_455 S
C1874 C1875 1.366 . S
C1874 C1876 1.388 . S
C1875 C1874 1.366 . S
C1875 C1879 1.385 . S
C1876 H1857 0.951 . S
C1876 C1874 1.388 . S
C1876 C1877 1.366 . S
C1877 C1876 1.366 . S
C1877 C1878 1.414 . S
C1877 C1880 1.499 . S
C1878 H1858 0.950 . S
C1878 C1877 1.414 . S
C1878 C1879 1.374 . S
C1879 H1859 0.950 . S
C1879 C1875 1.385 . S
C1879 C1878 1.374 . S
C1880 C1877 1.499 . S
C1880 C1881 1.373 . S
C1880 C1882 1.389 . S
C1881 H1860 0.950 . S
C1881 C1880 1.373 . S
C1881 C1897 1.377 . S
C1882 C1880 1.389 . S
C1882 C1883 1.524 1_455 S
C1882 C1896 1.377 . S
C1883 C1882 1.524 1_655 S
C1883 C1884 1.397 . S
C1883 C1888 1.363 . S
C1884 H1861 0.950 . S
C1884 C1883 1.397 . S
C1884 C1885 1.334 . S
C1885 H1862 0.950 . S
C1885 C1884 1.334 . S
C1885 C1886 1.287 . S
C1886 C1885 1.287 . S
C1886 C1887 1.524 . S
C1886 H1905 0.913 . S
C1887 H1863 0.950 . S
C1887 C1886 1.524 . S
C1887 C1888 1.415 . S
C1888 H1864 0.950 . S
C1888 C1883 1.363 . S
C1888 C1887 1.415 . S
C1889 H1865 0.951 . S
C1889 C1890 1.366 . S
C1889 C1891 1.388 . S
C1890 C1889 1.366 . S
C1890 C1894 1.385 . S
C1891 H1866 0.951 . S
C1891 C1889 1.388 . S
C1891 C1892 1.366 . S
C1892 C1891 1.366 . S
C1892 C1893 1.414 . S
C1892 C1895 1.499 . S
C1893 H1867 0.950 . S
C1893 C1892 1.414 . S
C1893 C1894 1.374 . S
C1894 H1868 0.950 . S
C1894 C1890 1.385 . S
C1894 C1893 1.374 . S
C1895 C1892 1.499 . S
C1895 C1896 1.373 . S
C1895 C1897 1.389 . S
C1896 H1869 0.950 . S
C1896 C1882 1.377 . S
C1896 C1895 1.373 . S
C1897 C1881 1.377 . S
C1897 C1895 1.389 . S
C1897 C1898 1.524 . S
C1898 C1897 1.524 . S
C1898 C1899 1.397 . S
C1898 C1903 1.363 . S
C1899 H1870 0.950 . S
C1899 C1898 1.397 . S
C1899 C1900 1.334 . S
C1900 H1871 0.950 . S
C1900 C1899 1.334 . S
C1900 C1901 1.287 . S
C1901 C1900 1.287 . S
C1901 C1902 1.524 . S
C1901 H1904 0.999 . S
C1902 H1872 0.950 . S
C1902 C1901 1.524 . S
C1902 C1903 1.415 . S
C1903 H1873 0.950 . S
C1903 C1898 1.363 . S
C1903 C1902 1.415 . S
H1904 C1901 0.999 . S
H1905 C1886 0.913 . S
H1906 C1924 0.951 . S
H1907 C1926 0.951 . S
H1908 C1928 0.950 . S
H1909 C1929 0.950 . S
H1910 C1931 0.950 . S
H1911 C1934 0.950 . S
H1912 C1935 0.950 . S
H1913 C1937 0.950 . S
H1914 C1938 0.950 . S
H1915 C1939 0.951 . S
H1916 C1941 0.951 . S
H1917 C1943 0.950 . S
H1918 C1944 0.950 . S
H1919 C1946 0.950 . S
H1920 C1949 0.950 . S
H1921 C1950 0.950 . S
H1922 C1952 0.950 . S
H1923 C1953 0.950 . S
C1924 H1906 0.951 . S
C1924 C1925 1.366 . S
C1924 C1926 1.388 . S
C1925 C1924 1.366 . S
C1925 C1929 1.385 . S
C1926 H1907 0.951 . S
C1926 C1924 1.388 . S
C1926 C1927 1.366 . S
C1927 C1926 1.366 . S
C1927 C1928 1.414 . S
C1927 C1930 1.499 . S
C1928 H1908 0.950 . S
C1928 C1927 1.414 . S
C1928 C1929 1.374 . S
C1929 H1909 0.950 . S
C1929 C1925 1.385 . S
C1929 C1928 1.374 . S
C1930 C1927 1.499 . S
C1930 C1931 1.373 . S
C1930 C1932 1.389 . S
C1931 H1910 0.950 . S
C1931 C1930 1.373 . S
C1931 C1947 1.377 . S
C1932 C1930 1.389 . S
C1932 C1933 1.524 . S
C1932 C1946 1.377 . S
C1933 C1932 1.524 . S
C1933 C1934 1.397 . S
C1933 C1938 1.363 . S
C1934 H1911 0.950 . S
C1934 C1933 1.397 . S
C1934 C1935 1.334 . S
C1935 H1912 0.950 . S
C1935 C1934 1.334 . S
C1935 C1936 1.287 . S
C1936 C1935 1.287 . S
C1936 C1937 1.524 . S
C1936 H1955 0.913 . S
C1937 H1913 0.950 . S
C1937 C1936 1.524 . S
C1937 C1938 1.415 . S
C1938 H1914 0.950 . S
C1938 C1933 1.363 . S
C1938 C1937 1.415 . S
C1939 H1915 0.951 . S
C1939 C1940 1.366 . S
C1939 C1941 1.388 . S
C1940 C1939 1.366 . S
C1940 C1944 1.385 . S
C1941 H1916 0.951 . S
C1941 C1939 1.388 . S
C1941 C1942 1.366 . S
C1942 C1941 1.366 . S
C1942 C1943 1.414 . S
C1942 C1945 1.499 . S
C1943 H1917 0.950 . S
C1943 C1942 1.414 . S
C1943 C1944 1.374 . S
C1944 H1918 0.950 . S
C1944 C1940 1.385 . S
C1944 C1943 1.374 . S
C1945 C1942 1.499 . S
C1945 C1946 1.373 . S
C1945 C1947 1.389 . S
C1946 H1919 0.950 . S
C1946 C1932 1.377 . S
C1946 C1945 1.373 . S
C1947 C1931 1.377 . S
C1947 C1945 1.389 . S
C1947 C1948 1.524 . S
C1948 C1947 1.524 . S
C1948 C1949 1.397 . S
C1948 C1953 1.363 . S
C1949 H1920 0.950 . S
C1949 C1948 1.397 . S
C1949 C1950 1.334 . S
C1950 H1921 0.950 . S
C1950 C1949 1.334 . S
C1950 C1951 1.287 . S
C1951 C1950 1.287 . S
C1951 C1952 1.524 . S
C1951 H1954 0.999 . S
C1952 H1922 0.950 . S
C1952 C1951 1.524 . S
C1952 C1953 1.415 . S
C1953 H1923 0.950 . S
C1953 C1948 1.363 . S
C1953 C1952 1.415 . S
H1954 C1951 0.999 . S
H1955 C1936 0.913 . S
H1956 C1974 0.951 . S
H1957 C1976 0.951 . S
H1958 C1978 0.950 . S
H1959 C1979 0.950 . S
H1960 C1981 0.950 . S
H1961 C1984 0.950 . S
H1962 C1985 0.950 . S
H1963 C1987 0.950 . S
H1964 C1988 0.950 . S
H1965 C1989 0.951 . S
H1966 C1991 0.951 . S
H1967 C1993 0.950 . S
H1968 C1994 0.950 . S
H1969 C1996 0.950 . S
H1970 C1999 0.950 . S
H1971 C2000 0.950 . S
H1972 C2002 0.950 . S
H1973 C2003 0.950 . S
C1974 H1956 0.951 . S
C1974 C1975 1.366 . S
C1974 C1976 1.388 . S
C1975 C1974 1.366 . S
C1975 C1979 1.385 . S
C1976 H1957 0.951 . S
C1976 C1974 1.388 . S
C1976 C1977 1.366 . S
C1977 C1976 1.366 . S
C1977 C1978 1.414 . S
C1977 C1980 1.499 . S
C1978 H1958 0.950 . S
C1978 C1977 1.414 . S
C1978 C1979 1.374 . S
C1979 H1959 0.950 . S
C1979 C1975 1.385 . S
C1979 C1978 1.374 . S
C1980 C1977 1.499 . S
C1980 C1981 1.373 . S
C1980 C1982 1.389 . S
C1981 H1960 0.950 . S
C1981 C1980 1.373 . S
C1981 C1997 1.377 . S
C1982 C1980 1.389 . S
C1982 C1983 1.524 . S
C1982 C1996 1.377 . S
C1983 C1982 1.524 . S
C1983 C1984 1.397 . S
C1983 C1988 1.363 . S
C1984 H1961 0.950 . S
C1984 C1983 1.397 . S
C1984 C1985 1.334 . S
C1985 H1962 0.950 . S
C1985 C1984 1.334 . S
C1985 C1986 1.287 . S
C1986 C1985 1.287 . S
C1986 C1987 1.524 . S
C1986 H2005 0.913 . S
C1987 H1963 0.950 . S
C1987 C1986 1.524 . S
C1987 C1988 1.415 . S
C1988 H1964 0.950 . S
C1988 C1983 1.363 . S
C1988 C1987 1.415 . S
C1989 H1965 0.951 . S
C1989 C1990 1.366 . S
C1989 C1991 1.388 . S
C1990 C1989 1.366 . S
C1990 C1994 1.385 . S
C1991 H1966 0.951 . S
C1991 C1989 1.388 . S
C1991 C1992 1.366 . S
C1992 C1991 1.366 . S
C1992 C1993 1.414 . S
C1992 C1995 1.499 . S
C1993 H1967 0.950 . S
C1993 C1992 1.414 . S
C1993 C1994 1.374 . S
C1994 H1968 0.950 . S
C1994 C1990 1.385 . S
C1994 C1993 1.374 . S
C1995 C1992 1.499 . S
C1995 C1996 1.373 . S
C1995 C1997 1.389 . S
C1996 H1969 0.950 . S
C1996 C1982 1.377 . S
C1996 C1995 1.373 . S
C1997 C1981 1.377 . S
C1997 C1995 1.389 . S
C1997 C1998 1.524 . S
C1998 C1997 1.524 . S
C1998 C1999 1.397 . S
C1998 C2003 1.363 . S
C1999 H1970 0.950 . S
C1999 C1998 1.397 . S
C1999 C2000 1.334 . S
C2000 H1971 0.950 . S
C2000 C1999 1.334 . S
C2000 C2001 1.287 . S
C2001 C2000 1.287 . S
C2001 C2002 1.524 . S
C2001 H2004 0.999 . S
C2002 H1972 0.950 . S
C2002 C2001 1.524 . S
C2002 C2003 1.415 . S
C2003 H1973 0.950 . S
C2003 C1998 1.363 . S
C2003 C2002 1.415 . S
H2004 C2001 0.999 . S
H2005 C1986 0.913 . S
H2006 C2024 0.951 . S
H2007 C2026 0.951 . S
H2008 C2028 0.950 . S
H2009 C2029 0.950 . S
H2010 C2031 0.950 . S
H2011 C2034 0.950 . S
H2012 C2035 0.950 . S
H2013 C2037 0.950 . S
H2014 C2038 0.950 . S
H2015 C2039 0.951 . S
H2016 C2041 0.951 . S
H2017 C2043 0.950 . S
H2018 C2044 0.950 . S
H2019 C2046 0.950 . S
H2020 C2049 0.950 . S
H2021 C2050 0.950 . S
H2022 C2052 0.950 . S
H2023 C2053 0.950 . S
C2024 H2006 0.951 . S
C2024 C2025 1.366 . S
C2024 C2026 1.388 . S
C2025 C2024 1.366 . S
C2025 C2029 1.385 . S
C2026 H2007 0.951 . S
C2026 C2024 1.388 . S
C2026 C2027 1.366 . S
C2027 C2026 1.366 . S
C2027 C2028 1.414 . S
C2027 C2030 1.499 . S
C2028 H2008 0.950 . S
C2028 C2027 1.414 . S
C2028 C2029 1.374 . S
C2029 H2009 0.950 . S
C2029 C2025 1.385 . S
C2029 C2028 1.374 . S
C2030 C2027 1.499 . S
C2030 C2031 1.373 . S
C2030 C2032 1.389 . S
C2031 H2010 0.950 . S
C2031 C2030 1.373 . S
C2031 C2047 1.377 . S
C2032 C2030 1.389 . S
C2032 C2033 1.524 . S
C2032 C2046 1.377 . S
C2033 C2032 1.524 . S
C2033 C2034 1.397 . S
C2033 C2038 1.363 . S
C2034 H2011 0.950 . S
C2034 C2033 1.397 . S
C2034 C2035 1.334 . S
C2035 H2012 0.950 . S
C2035 C2034 1.334 . S
C2035 C2036 1.287 . S
C2036 C2035 1.287 . S
C2036 C2037 1.524 . S
C2036 H2055 0.913 . S
C2037 H2013 0.950 . S
C2037 C2036 1.524 . S
C2037 C2038 1.415 . S
C2038 H2014 0.950 . S
C2038 C2033 1.363 . S
C2038 C2037 1.415 . S
C2039 H2015 0.951 . S
C2039 C2040 1.366 . S
C2039 C2041 1.388 . S
C2040 C2039 1.366 . S
C2040 C2044 1.385 . S
C2041 H2016 0.951 . S
C2041 C2039 1.388 . S
C2041 C2042 1.366 . S
C2042 C2041 1.366 . S
C2042 C2043 1.414 . S
C2042 C2045 1.499 . S
C2043 H2017 0.950 . S
C2043 C2042 1.414 . S
C2043 C2044 1.374 . S
C2044 H2018 0.950 . S
C2044 C2040 1.385 . S
C2044 C2043 1.374 . S
C2045 C2042 1.499 . S
C2045 C2046 1.373 . S
C2045 C2047 1.389 . S
C2046 H2019 0.950 . S
C2046 C2032 1.377 . S
C2046 C2045 1.373 . S
C2047 C2031 1.377 . S
C2047 C2045 1.389 . S
C2047 C2048 1.524 . S
C2048 C2047 1.524 . S
C2048 C2049 1.397 . S
C2048 C2053 1.363 . S
C2049 H2020 0.950 . S
C2049 C2048 1.397 . S
C2049 C2050 1.334 . S
C2050 H2021 0.950 . S
C2050 C2049 1.334 . S
C2050 C2051 1.287 . S
C2051 C2050 1.287 . S
C2051 C2052 1.524 . S
C2051 H2054 0.999 . S
C2052 H2022 0.950 . S
C2052 C2051 1.524 . S
C2052 C2053 1.415 . S
C2053 H2023 0.950 . S
C2053 C2048 1.363 . S
C2053 C2052 1.415 . S
H2054 C2051 0.999 . S
H2055 C2036 0.913 . S
H2056 C2074 0.951 . S
H2057 C2076 0.951 . S
H2058 C2078 0.950 . S
H2059 C2079 0.950 . S
H2060 C2081 0.950 . S
H2061 C2084 0.950 . S
H2062 C2085 0.950 . S
H2063 C2087 0.950 . S
H2064 C2088 0.950 . S
H2065 C2089 0.951 . S
H2066 C2091 0.951 . S
H2067 C2093 0.950 . S
H2068 C2094 0.950 . S
H2069 C2096 0.950 . S
H2070 C2099 0.950 . S
H2071 C2100 0.950 . S
H2072 C2102 0.950 . S
H2073 C2103 0.950 . S
C2074 H2056 0.951 . S
C2074 C2075 1.366 . S
C2074 C2076 1.388 . S
C2075 C2074 1.366 . S
C2075 C2079 1.385 . S
C2076 H2057 0.951 . S
C2076 C2074 1.388 . S
C2076 C2077 1.366 . S
C2077 C2076 1.366 . S
C2077 C2078 1.414 . S
C2077 C2080 1.499 . S
C2078 H2058 0.950 . S
C2078 C2077 1.414 . S
C2078 C2079 1.374 . S
C2079 H2059 0.950 . S
C2079 C2075 1.385 . S
C2079 C2078 1.374 . S
C2080 C2077 1.499 . S
C2080 C2081 1.373 . S
C2080 C2082 1.389 1_655 S
C2081 H2060 0.950 . S
C2081 C2080 1.373 . S
C2081 C2097 1.377 . S
C2082 C2080 1.389 1_455 S
C2082 C2083 1.524 . S
C2082 C2096 1.377 . S
C2083 C2082 1.524 . S
C2083 C2084 1.397 . S
C2083 C2088 1.363 . S
C2084 H2061 0.950 . S
C2084 C2083 1.397 . S
C2084 C2085 1.334 . S
C2085 H2062 0.950 . S
C2085 C2084 1.334 . S
C2085 C2086 1.287 . S
C2086 C2085 1.287 . S
C2086 C2087 1.524 . S
C2086 H2105 0.913 . S
C2087 H2063 0.950 . S
C2087 C2086 1.524 . S
C2087 C2088 1.415 . S
C2088 H2064 0.950 . S
C2088 C2083 1.363 . S
C2088 C2087 1.415 . S
C2089 H2065 0.951 . S
C2089 C2090 1.366 . S
C2089 C2091 1.388 . S
C2090 C2089 1.366 . S
C2090 C2094 1.385 . S
C2091 H2066 0.951 . S
C2091 C2089 1.388 . S
C2091 C2092 1.366 . S
C2092 C2091 1.366 . S
C2092 C2093 1.414 . S
C2092 C2095 1.499 . S
C2093 H2067 0.950 . S
C2093 C2092 1.414 . S
C2093 C2094 1.374 . S
C2094 H2068 0.950 . S
C2094 C2090 1.385 . S
C2094 C2093 1.374 . S
C2095 C2092 1.499 . S
C2095 C2096 1.373 . S
C2095 C2097 1.389 1_455 S
C2096 H2069 0.950 . S
C2096 C2082 1.377 . S
C2096 C2095 1.373 . S
C2097 C2081 1.377 . S
C2097 C2095 1.389 1_655 S
C2097 C2098 1.524 . S
C2098 C2097 1.524 . S
C2098 C2099 1.397 . S
C2098 C2103 1.363 . S
C2099 H2070 0.950 . S
C2099 C2098 1.397 . S
C2099 C2100 1.334 . S
C2100 H2071 0.950 . S
C2100 C2099 1.334 . S
C2100 C2101 1.287 . S
C2101 C2100 1.287 . S
C2101 C2102 1.524 . S
C2101 H2104 0.999 . S
C2102 H2072 0.950 . S
C2102 C2101 1.524 . S
C2102 C2103 1.415 . S
C2103 H2073 0.950 . S
C2103 C2098 1.363 . S
C2103 C2102 1.415 . S
H2104 C2101 0.999 . S
H2105 C2086 0.913 . S
H2106 C2124 0.951 . S
H2107 C2126 0.951 . S
H2108 C2128 0.950 . S
H2109 C2129 0.950 . S
H2110 C2131 0.950 . S
H2111 C2134 0.950 . S
H2112 C2135 0.950 . S
H2113 C2137 0.950 . S
H2114 C2138 0.950 . S
H2115 C2139 0.951 . S
H2116 C2141 0.951 . S
H2117 C2143 0.950 . S
H2118 C2144 0.950 . S
H2119 C2146 0.950 . S
H2120 C2149 0.950 . S
H2121 C2150 0.950 . S
H2122 C2152 0.950 . S
H2123 C2153 0.950 . S
C2124 H2106 0.951 . S
C2124 C2125 1.366 . S
C2124 C2126 1.388 . S
C2125 C2124 1.366 . S
C2125 C2129 1.385 . S
C2126 H2107 0.951 . S
C2126 C2124 1.388 . S
C2126 C2127 1.366 . S
C2127 C2126 1.366 . S
C2127 C2128 1.414 . S
C2127 C2130 1.499 . S
C2128 H2108 0.950 . S
C2128 C2127 1.414 . S
C2128 C2129 1.374 . S
C2129 H2109 0.950 . S
C2129 C2125 1.385 . S
C2129 C2128 1.374 . S
C2130 C2127 1.499 . S
C2130 C2131 1.373 . S
C2130 C2132 1.389 . S
C2131 H2110 0.950 . S
C2131 C2130 1.373 . S
C2131 C2147 1.377 . S
C2132 C2130 1.389 . S
C2132 C2133 1.524 . S
C2132 C2146 1.377 . S
C2133 C2132 1.524 . S
C2133 C2134 1.397 . S
C2133 C2138 1.363 . S
C2134 H2111 0.950 . S
C2134 C2133 1.397 . S
C2134 C2135 1.334 . S
C2135 H2112 0.950 . S
C2135 C2134 1.334 . S
C2135 C2136 1.287 . S
C2136 C2135 1.287 . S
C2136 C2137 1.524 . S
C2136 H2155 0.913 . S
C2137 H2113 0.950 . S
C2137 C2136 1.524 . S
C2137 C2138 1.415 . S
C2138 H2114 0.950 . S
C2138 C2133 1.363 . S
C2138 C2137 1.415 . S
C2139 H2115 0.951 . S
C2139 C2140 1.366 . S
C2139 C2141 1.388 . S
C2140 C2139 1.366 . S
C2140 C2144 1.385 . S
C2141 H2116 0.951 . S
C2141 C2139 1.388 . S
C2141 C2142 1.366 . S
C2142 C2141 1.366 . S
C2142 C2143 1.414 . S
C2142 C2145 1.499 . S
C2143 H2117 0.950 . S
C2143 C2142 1.414 . S
C2143 C2144 1.374 . S
C2144 H2118 0.950 . S
C2144 C2140 1.385 . S
C2144 C2143 1.374 . S
C2145 C2142 1.499 . S
C2145 C2146 1.373 . S
C2145 C2147 1.389 . S
C2146 H2119 0.950 . S
C2146 C2132 1.377 . S
C2146 C2145 1.373 . S
C2147 C2131 1.377 . S
C2147 C2145 1.389 . S
C2147 C2148 1.524 . S
C2148 C2147 1.524 . S
C2148 C2149 1.397 . S
C2148 C2153 1.363 . S
C2149 H2120 0.950 . S
C2149 C2148 1.397 . S
C2149 C2150 1.334 . S
C2150 H2121 0.950 . S
C2150 C2149 1.334 . S
C2150 C2151 1.287 . S
C2151 C2150 1.287 . S
C2151 C2152 1.524 . S
C2151 H2154 0.999 . S
C2152 H2122 0.950 . S
C2152 C2151 1.524 . S
C2152 C2153 1.415 . S
C2153 H2123 0.950 . S
C2153 C2148 1.363 . S
C2153 C2152 1.415 . S
H2154 C2151 0.999 . S
H2155 C2136 0.913 . S
H2156 C2174 0.951 . S
H2157 C2176 0.951 . S
H2158 C2178 0.950 . S
H2159 C2179 0.950 . S
H2160 C2181 0.950 . S
H2161 C2184 0.950 . S
H2162 C2185 0.950 . S
H2163 C2187 0.950 . S
H2164 C2188 0.950 . S
H2165 C2189 0.951 . S
H2166 C2191 0.951 . S
H2167 C2193 0.950 . S
H2168 C2194 0.950 . S
H2169 C2196 0.950 . S
H2170 C2199 0.950 . S
H2171 C2200 0.950 . S
H2172 C2202 0.950 . S
H2173 C2203 0.950 . S
C2174 H2156 0.951 . S
C2174 C2175 1.366 . S
C2174 C2176 1.388 . S
C2175 C2174 1.366 . S
C2175 C2179 1.385 . S
C2176 H2157 0.951 . S
C2176 C2174 1.388 . S
C2176 C2177 1.366 . S
C2177 C2176 1.366 . S
C2177 C2178 1.414 . S
C2177 C2180 1.499 . S
C2178 H2158 0.950 . S
C2178 C2177 1.414 . S
C2178 C2179 1.374 . S
C2179 H2159 0.950 . S
C2179 C2175 1.385 . S
C2179 C2178 1.374 . S
C2180 C2177 1.499 . S
C2180 C2181 1.373 . S
C2180 C2182 1.389 . S
C2181 H2160 0.950 . S
C2181 C2180 1.373 . S
C2181 C2197 1.377 . S
C2182 C2180 1.389 . S
C2182 C2183 1.524 . S
C2182 C2196 1.377 . S
C2183 C2182 1.524 . S
C2183 C2184 1.397 1_545 S
C2183 C2188 1.363 . S
C2184 H2161 0.950 . S
C2184 C2183 1.397 1_565 S
C2184 C2185 1.334 . S
C2185 H2162 0.950 . S
C2185 C2184 1.334 . S
C2185 C2186 1.287 . S
C2186 C2185 1.287 . S
C2186 C2187 1.524 . S
C2186 H2205 0.913 . S
C2187 H2163 0.950 . S
C2187 C2186 1.524 . S
C2187 C2188 1.415 1_565 S
C2188 H2164 0.950 . S
C2188 C2183 1.363 . S
C2188 C2187 1.415 1_545 S
C2189 H2165 0.951 . S
C2189 C2190 1.366 . S
C2189 C2191 1.388 . S
C2190 C2189 1.366 . S
C2190 C2194 1.385 . S
C2191 H2166 0.951 . S
C2191 C2189 1.388 . S
C2191 C2192 1.366 . S
C2192 C2191 1.366 . S
C2192 C2193 1.414 . S
C2192 C2195 1.499 . S
C2193 H2167 0.950 . S
C2193 C2192 1.414 . S
C2193 C2194 1.374 . S
C2194 H2168 0.950 . S
C2194 C2190 1.385 . S
C2194 C2193 1.374 . S
C2195 C2192 1.499 . S
C2195 C2196 1.373 . S
C2195 C2197 1.389 . S
C2196 H2169 0.950 . S
C2196 C2182 1.377 . S
C2196 C2195 1.373 . S
C2197 C2181 1.377 . S
C2197 C2195 1.389 . S
C2197 C2198 1.524 . S
C2198 C2197 1.524 . S
C2198 C2199 1.397 . S
C2198 C2203 1.363 . S
C2199 H2170 0.950 . S
C2199 C2198 1.397 . S
C2199 C2200 1.334 . S
C2200 H2171 0.950 . S
C2200 C2199 1.334 . S
C2200 C2201 1.287 . S
C2201 C2200 1.287 . S
C2201 C2202 1.524 . S
C2201 H2204 0.999 . S
C2202 H2172 0.950 . S
C2202 C2201 1.524 . S
C2202 C2203 1.415 . S
C2203 H2173 0.950 . S
C2203 C2198 1.363 . S
C2203 C2202 1.415 . S
H2204 C2201 0.999 . S
H2205 C2186 0.913 . S
H2206 C2224 0.951 . S
H2207 C2226 0.951 . S
H2208 C2228 0.950 . S
H2209 C2229 0.950 . S
H2210 C2231 0.950 . S
H2211 C2234 0.950 . S
H2212 C2235 0.950 . S
H2213 C2237 0.950 . S
H2214 C2238 0.950 . S
H2215 C2239 0.951 . S
H2216 C2241 0.951 . S
H2217 C2243 0.950 . S
H2218 C2244 0.950 . S
H2219 C2246 0.950 . S
H2220 C2249 0.950 . S
H2221 C2250 0.950 . S
H2222 C2252 0.950 . S
H2223 C2253 0.950 . S
C2224 H2206 0.951 . S
C2224 C2225 1.366 . S
C2224 C2226 1.388 . S
C2225 C2224 1.366 . S
C2225 C2229 1.385 . S
C2226 H2207 0.951 . S
C2226 C2224 1.388 . S
C2226 C2227 1.366 . S
C2227 C2226 1.366 . S
C2227 C2228 1.414 . S
C2227 C2230 1.499 . S
C2228 H2208 0.950 . S
C2228 C2227 1.414 . S
C2228 C2229 1.374 . S
C2229 H2209 0.950 . S
C2229 C2225 1.385 . S
C2229 C2228 1.374 . S
C2230 C2227 1.499 . S
C2230 C2231 1.373 . S
C2230 C2232 1.389 . S
C2231 H2210 0.950 . S
C2231 C2230 1.373 . S
C2231 C2247 1.377 . S
C2232 C2230 1.389 . S
C2232 C2233 1.524 . S
C2232 C2246 1.377 . S
C2233 C2232 1.524 . S
C2233 C2234 1.397 . S
C2233 C2238 1.363 . S
C2234 H2211 0.950 . S
C2234 C2233 1.397 . S
C2234 C2235 1.334 . S
C2235 H2212 0.950 . S
C2235 C2234 1.334 . S
C2235 C2236 1.287 . S
C2236 C2235 1.287 . S
C2236 C2237 1.524 . S
C2236 H2255 0.913 . S
C2237 H2213 0.950 . S
C2237 C2236 1.524 . S
C2237 C2238 1.415 . S
C2238 H2214 0.950 . S
C2238 C2233 1.363 . S
C2238 C2237 1.415 . S
C2239 H2215 0.951 . S
C2239 C2240 1.366 . S
C2239 C2241 1.388 . S
C2240 C2239 1.366 . S
C2240 C2244 1.385 . S
C2241 H2216 0.951 . S
C2241 C2239 1.388 . S
C2241 C2242 1.366 . S
C2242 C2241 1.366 . S
C2242 C2243 1.414 . S
C2242 C2245 1.499 . S
C2243 H2217 0.950 . S
C2243 C2242 1.414 . S
C2243 C2244 1.374 . S
C2244 H2218 0.950 . S
C2244 C2240 1.385 . S
C2244 C2243 1.374 . S
C2245 C2242 1.499 . S
C2245 C2246 1.373 . S
C2245 C2247 1.389 . S
C2246 H2219 0.950 . S
C2246 C2232 1.377 . S
C2246 C2245 1.373 . S
C2247 C2231 1.377 . S
C2247 C2245 1.389 . S
C2247 C2248 1.524 . S
C2248 C2247 1.524 . S
C2248 C2249 1.397 . S
C2248 C2253 1.363 . S
C2249 H2220 0.950 . S
C2249 C2248 1.397 . S
C2249 C2250 1.334 . S
C2250 H2221 0.950 . S
C2250 C2249 1.334 . S
C2250 C2251 1.287 . S
C2251 C2250 1.287 . S
C2251 C2252 1.524 . S
C2251 H2254 0.999 . S
C2252 H2222 0.950 . S
C2252 C2251 1.524 . S
C2252 C2253 1.415 . S
C2253 H2223 0.950 . S
C2253 C2248 1.363 . S
C2253 C2252 1.415 . S
H2254 C2251 0.999 . S
H2255 C2236 0.913 . S
H2256 C2274 0.951 . S
H2257 C2276 0.909 1_455 S
H2258 C2278 0.950 . S
H2259 C2279 0.950 . S
H2260 C2281 0.950 . S
H2261 C2284 0.950 . S
H2262 C2285 0.952 . S
H2263 C2287 0.950 1_565 S
H2264 C2288 0.950 . S
H2265 C2289 0.951 . S
H2266 C2291 0.951 . S
H2267 C2293 0.950 . S
H2268 C2294 0.950 . S
H2269 C2296 0.950 . S
H2270 C2299 0.950 . S
H2271 C2300 0.950 . S
H2272 C2302 0.950 . S
H2273 C2303 0.950 . S
C2274 H2256 0.951 . S
C2274 C2275 1.366 . S
C2274 C2276 1.388 . S
C2275 C2274 1.366 . S
C2275 C2279 1.385 . S
C2276 H2257 0.909 1_655 S
C2276 C2274 1.388 . S
C2276 C2277 1.366 . S
C2277 C2276 1.366 . S
C2277 C2278 1.414 . S
C2277 C2280 1.499 . S
C2278 H2258 0.950 . S
C2278 C2277 1.414 . S
C2278 C2279 1.374 . S
C2279 H2259 0.950 . S
C2279 C2275 1.385 . S
C2279 C2278 1.374 . S
C2280 C2277 1.499 . S
C2280 C2281 1.373 . S
C2280 C2282 1.418 . S
C2281 H2260 0.950 . S
C2281 C2280 1.373 . S
C2281 C2297 1.377 1_655 S
C2282 C2280 1.418 . S
C2282 C2283 1.522 . S
C2282 C2296 1.352 1_655 S
C2283 C2282 1.522 . S
C2283 C2284 1.397 . S
C2283 C2288 1.363 1_655 S
C2284 H2261 0.950 . S
C2284 C2283 1.397 . S
C2284 C2285 1.328 1_545 S
C2285 H2262 0.952 . S
C2285 C2284 1.328 1_565 S
C2285 C2286 1.291 . S
C2286 C2285 1.291 . S
C2286 C2287 1.524 1_665 S
C2286 H2305 0.913 . S
C2287 H2263 0.950 1_545 S
C2287 C2286 1.524 1_445 S
C2287 C2288 1.415 . S
C2288 H2264 0.950 . S
C2288 C2283 1.363 1_455 S
C2288 C2287 1.415 . S
C2289 H2265 0.951 . S
C2289 C2290 1.366 . S
C2289 C2291 1.388 . S
C2290 C2289 1.366 . S
C2290 C2294 1.385 . S
C2291 H2266 0.951 . S
C2291 C2289 1.388 . S
C2291 C2292 1.366 . S
C2292 C2291 1.366 . S
C2292 C2293 1.414 . S
C2292 C2295 1.499 . S
C2293 H2267 0.950 . S
C2293 C2292 1.414 . S
C2293 C2294 1.374 . S
C2294 H2268 0.950 . S
C2294 C2290 1.385 . S
C2294 C2293 1.374 . S
C2295 C2292 1.499 . S
C2295 C2296 1.373 . S
C2295 C2297 1.389 . S
C2296 H2269 0.950 . S
C2296 C2282 1.352 1_455 S
C2296 C2295 1.373 . S
C2297 C2281 1.377 1_455 S
C2297 C2295 1.389 . S
C2297 C2298 1.524 . S
C2298 C2297 1.524 . S
C2298 C2299 1.397 . S
C2298 C2303 1.363 1_455 S
C2299 H2270 0.950 . S
C2299 C2298 1.397 . S
C2299 C2300 1.334 . S
C2300 H2271 0.950 . S
C2300 C2299 1.334 . S
C2300 C2301 1.287 . S
C2301 C2300 1.287 . S
C2301 C2302 1.524 1_455 S
C2301 H2304 0.999 . S
C2302 H2272 0.950 . S
C2302 C2301 1.524 1_655 S
C2302 C2303 1.415 . S
C2303 H2273 0.950 . S
C2303 C2298 1.363 1_655 S
C2303 C2302 1.415 . S
H2304 C2301 0.999 . S
H2305 C2286 0.913 . S
H2306 C2324 0.951 . S
H2307 C2326 0.951 . S
H2308 C2328 0.950 . S
H2309 C2329 0.950 . S
H2310 C2331 0.950 . S
H2311 C2334 0.950 . S
H2312 C2335 0.950 . S
H2313 C2337 0.950 . S
H2314 C2338 0.950 . S
H2315 C2339 0.951 . S
H2316 C2341 0.951 . S
H2317 C2343 0.950 . S
H2318 C2344 0.950 . S
H2319 C2346 0.950 . S
H2320 C2349 0.950 . S
H2321 C2350 0.950 . S
H2322 C2352 0.950 . S
H2323 C2353 0.950 . S
C2324 H2306 0.951 . S
C2324 C2325 1.366 . S
C2324 C2326 1.388 . S
C2325 C2324 1.366 . S
C2325 C2329 1.385 . S
C2326 H2307 0.951 . S
C2326 C2324 1.388 . S
C2326 C2327 1.366 . S
C2327 C2326 1.366 . S
C2327 C2328 1.414 . S
C2327 C2330 1.499 . S
C2328 H2308 0.950 . S
C2328 C2327 1.414 . S
C2328 C2329 1.374 . S
C2329 H2309 0.950 . S
C2329 C2325 1.385 . S
C2329 C2328 1.374 . S
C2330 C2327 1.499 . S
C2330 C2331 1.373 . S
C2330 C2332 1.389 . S
C2331 H2310 0.950 . S
C2331 C2330 1.373 . S
C2331 C2347 1.377 . S
C2332 C2330 1.389 . S
C2332 C2333 1.524 . S
C2332 C2346 1.377 . S
C2333 C2332 1.524 . S
C2333 C2334 1.397 . S
C2333 C2338 1.363 . S
C2334 H2311 0.950 . S
C2334 C2333 1.397 . S
C2334 C2335 1.334 . S
C2335 H2312 0.950 . S
C2335 C2334 1.334 . S
C2335 C2336 1.287 . S
C2336 C2335 1.287 . S
C2336 C2337 1.524 . S
C2336 H2355 0.913 . S
C2337 H2313 0.950 . S
C2337 C2336 1.524 . S
C2337 C2338 1.415 . S
C2338 H2314 0.950 . S
C2338 C2333 1.363 . S
C2338 C2337 1.415 . S
C2339 H2315 0.951 . S
C2339 C2340 1.366 . S
C2339 C2341 1.388 . S
C2340 C2339 1.366 . S
C2340 C2344 1.385 . S
C2341 H2316 0.951 . S
C2341 C2339 1.388 . S
C2341 C2342 1.366 . S
C2342 C2341 1.366 . S
C2342 C2343 1.414 . S
C2342 C2345 1.499 . S
C2343 H2317 0.950 . S
C2343 C2342 1.414 . S
C2343 C2344 1.374 . S
C2344 H2318 0.950 . S
C2344 C2340 1.385 . S
C2344 C2343 1.374 . S
C2345 C2342 1.499 . S
C2345 C2346 1.373 . S
C2345 C2347 1.389 . S
C2346 H2319 0.950 . S
C2346 C2332 1.377 . S
C2346 C2345 1.373 . S
C2347 C2331 1.377 . S
C2347 C2345 1.389 . S
C2347 C2348 1.524 . S
C2348 C2347 1.524 . S
C2348 C2349 1.397 . S
C2348 C2353 1.363 . S
C2349 H2320 0.950 . S
C2349 C2348 1.397 . S
C2349 C2350 1.334 . S
C2350 H2321 0.950 . S
C2350 C2349 1.334 . S
C2350 C2351 1.287 . S
C2351 C2350 1.287 . S
C2351 C2352 1.524 . S
C2351 H2354 0.999 . S
C2352 H2322 0.950 . S
C2352 C2351 1.524 . S
C2352 C2353 1.415 . S
C2353 H2323 0.950 . S
C2353 C2348 1.363 . S
C2353 C2352 1.415 . S
H2354 C2351 0.999 . S
H2355 C2336 0.913 . S
H2356 C2374 0.951 . S
H2357 C2376 0.951 . S
H2358 C2378 0.950 . S
H2359 C2379 0.950 . S
H2360 C2381 0.950 . S
H2361 C2384 0.950 . S
H2362 C2385 0.950 . S
H2363 C2387 0.950 . S
H2364 C2388 0.950 . S
H2365 C2389 0.951 . S
H2366 C2391 0.951 . S
H2367 C2393 0.950 . S
H2368 C2394 0.950 . S
H2369 C2396 0.950 . S
H2370 C2399 0.950 . S
H2371 C2400 0.950 . S
H2372 C2402 0.950 . S
H2373 C2403 0.950 . S
C2374 H2356 0.951 . S
C2374 C2375 1.366 . S
C2374 C2376 1.388 . S
C2375 C2374 1.366 . S
C2375 C2379 1.385 . S
C2376 H2357 0.951 . S
C2376 C2374 1.388 . S
C2376 C2377 1.366 . S
C2377 C2376 1.366 . S
C2377 C2378 1.414 . S
C2377 C2380 1.499 . S
C2378 H2358 0.950 . S
C2378 C2377 1.414 . S
C2378 C2379 1.374 . S
C2379 H2359 0.950 . S
C2379 C2375 1.385 . S
C2379 C2378 1.374 . S
C2380 C2377 1.499 . S
C2380 C2381 1.373 . S
C2380 C2382 1.389 . S
C2381 H2360 0.950 . S
C2381 C2380 1.373 . S
C2381 C2397 1.377 . S
C2382 C2380 1.389 . S
C2382 C2383 1.524 . S
C2382 C2396 1.377 . S
C2383 C2382 1.524 . S
C2383 C2384 1.397 . S
C2383 C2388 1.363 . S
C2384 H2361 0.950 . S
C2384 C2383 1.397 . S
C2384 C2385 1.334 . S
C2385 H2362 0.950 . S
C2385 C2384 1.334 . S
C2385 C2386 1.287 . S
C2386 C2385 1.287 . S
C2386 C2387 1.524 . S
C2386 H2405 0.913 . S
C2387 H2363 0.950 . S
C2387 C2386 1.524 . S
C2387 C2388 1.415 . S
C2388 H2364 0.950 . S
C2388 C2383 1.363 . S
C2388 C2387 1.415 . S
C2389 H2365 0.951 . S
C2389 C2390 1.366 . S
C2389 C2391 1.388 . S
C2390 C2389 1.366 . S
C2390 C2394 1.385 . S
C2391 H2366 0.951 . S
C2391 C2389 1.388 . S
C2391 C2392 1.366 . S
C2392 C2391 1.366 . S
C2392 C2393 1.414 . S
C2392 C2395 1.499 . S
C2393 H2367 0.950 . S
C2393 C2392 1.414 . S
C2393 C2394 1.374 . S
C2394 H2368 0.950 . S
C2394 C2390 1.385 . S
C2394 C2393 1.374 . S
C2395 C2392 1.499 . S
C2395 C2396 1.373 . S
C2395 C2397 1.389 . S
C2396 H2369 0.950 . S
C2396 C2382 1.377 . S
C2396 C2395 1.373 . S
C2397 C2381 1.377 . S
C2397 C2395 1.389 . S
C2397 C2398 1.524 . S
C2398 C2397 1.524 . S
C2398 C2399 1.397 . S
C2398 C2403 1.363 . S
C2399 H2370 0.950 . S
C2399 C2398 1.397 . S
C2399 C2400 1.334 1_545 S
C2400 H2371 0.950 . S
C2400 C2399 1.334 1_565 S
C2400 C2401 1.287 . S
C2401 C2400 1.287 . S
C2401 C2402 1.524 . S
C2401 H2404 0.999 . S
C2402 H2372 0.950 . S
C2402 C2401 1.524 . S
C2402 C2403 1.415 1_565 S
C2403 H2373 0.950 . S
C2403 C2398 1.363 . S
C2403 C2402 1.415 1_545 S
H2404 C2401 0.999 . S
H2405 C2386 0.913 . S
H2406 C2424 0.951 . S
H2407 C2426 0.951 . S
H2408 C2428 0.950 . S
H2409 C2429 0.950 . S
H2410 C2431 0.950 . S
H2411 C2434 0.950 . S
H2412 C2435 0.950 . S
H2413 C2437 0.950 . S
H2414 C2438 0.950 . S
H2415 C2439 0.951 . S
H2416 C2441 0.951 . S
H2417 C2443 0.950 . S
H2418 C2444 0.950 . S
H2419 C2446 0.950 . S
H2420 C2449 0.950 . S
H2421 C2450 0.950 . S
H2422 C2452 0.950 . S
H2423 C2453 0.950 . S
C2424 H2406 0.951 . S
C2424 C2425 1.366 . S
C2424 C2426 1.388 . S
C2425 C2424 1.366 . S
C2425 C2429 1.385 . S
C2426 H2407 0.951 . S
C2426 C2424 1.388 . S
C2426 C2427 1.366 . S
C2427 C2426 1.366 . S
C2427 C2428 1.414 . S
C2427 C2430 1.499 . S
C2428 H2408 0.950 . S
C2428 C2427 1.414 . S
C2428 C2429 1.374 . S
C2429 H2409 0.950 . S
C2429 C2425 1.385 . S
C2429 C2428 1.374 . S
C2430 C2427 1.499 . S
C2430 C2431 1.373 . S
C2430 C2432 1.389 . S
C2431 H2410 0.950 . S
C2431 C2430 1.373 . S
C2431 C2447 1.377 . S
C2432 C2430 1.389 . S
C2432 C2433 1.524 . S
C2432 C2446 1.377 . S
C2433 C2432 1.524 . S
C2433 C2434 1.397 . S
C2433 C2438 1.363 . S
C2434 H2411 0.950 . S
C2434 C2433 1.397 . S
C2434 C2435 1.334 . S
C2435 H2412 0.950 . S
C2435 C2434 1.334 . S
C2435 C2436 1.287 . S
C2436 C2435 1.287 . S
C2436 C2437 1.524 . S
C2436 H2455 0.913 . S
C2437 H2413 0.950 . S
C2437 C2436 1.524 . S
C2437 C2438 1.415 . S
C2438 H2414 0.950 . S
C2438 C2433 1.363 . S
C2438 C2437 1.415 . S
C2439 H2415 0.951 . S
C2439 C2440 1.366 . S
C2439 C2441 1.388 . S
C2440 C2439 1.366 . S
C2440 C2444 1.385 . S
C2441 H2416 0.951 . S
C2441 C2439 1.388 . S
C2441 C2442 1.366 . S
C2442 C2441 1.366 . S
C2442 C2443 1.414 . S
C2442 C2445 1.499 . S
C2443 H2417 0.950 . S
C2443 C2442 1.414 . S
C2443 C2444 1.374 . S
C2444 H2418 0.950 . S
C2444 C2440 1.385 . S
C2444 C2443 1.374 . S
C2445 C2442 1.499 . S
C2445 C2446 1.373 . S
C2445 C2447 1.389 . S
C2446 H2419 0.950 . S
C2446 C2432 1.377 . S
C2446 C2445 1.373 . S
C2447 C2431 1.377 . S
C2447 C2445 1.389 . S
C2447 C2448 1.524 . S
C2448 C2447 1.524 . S
C2448 C2449 1.397 . S
C2448 C2453 1.363 . S
C2449 H2420 0.950 . S
C2449 C2448 1.397 . S
C2449 C2450 1.334 . S
C2450 H2421 0.950 . S
C2450 C2449 1.334 . S
C2450 C2451 1.287 . S
C2451 C2450 1.287 . S
C2451 C2452 1.524 . S
C2451 H2454 0.999 . S
C2452 H2422 0.950 . S
C2452 C2451 1.524 . S
C2452 C2453 1.415 . S
C2453 H2423 0.950 . S
C2453 C2448 1.363 . S
C2453 C2452 1.415 . S
H2454 C2451 0.999 . S
H2455 C2436 0.913 . S
H2456 C2474 0.938 1_556 S
H2457 C2476 0.951 . S
H2458 C2478 0.950 . S
H2459 C2479 0.950 . S
H2460 C2481 0.950 . S
H2461 C2484 0.950 1_554 S
H2462 C2485 0.950 . S
H2463 C2487 0.950 . S
H2464 C2488 0.950 . S
H2465 C2489 0.951 . S
H2466 C2491 0.951 . S
H2467 C2493 0.950 . S
H2468 C2494 0.950 . S
H2469 C2496 0.950 . S
H2470 C2499 0.950 . S
H2471 C2500 0.950 . S
H2472 C2502 0.950 . S
H2473 C2503 0.950 . S
C2474 H2456 0.938 1_554 S
C2474 C2475 1.366 . S
C2474 C2476 1.388 . S
C2475 C2474 1.366 . S
C2475 C2479 1.385 . S
C2476 H2457 0.951 . S
C2476 C2474 1.388 . S
C2476 C2477 1.366 . S
C2477 C2476 1.366 . S
C2477 C2478 1.414 . S
C2477 C2480 1.499 . S
C2478 H2458 0.950 . S
C2478 C2477 1.414 . S
C2478 C2479 1.374 . S
C2479 H2459 0.950 . S
C2479 C2475 1.385 . S
C2479 C2478 1.374 . S
C2480 C2477 1.499 . S
C2480 C2481 1.373 . S
C2480 C2482 1.389 . S
C2481 H2460 0.950 . S
C2481 C2480 1.373 . S
C2481 C2497 1.377 . S
C2482 C2480 1.389 . S
C2482 C2483 1.524 1_554 S
C2482 C2496 1.377 . S
C2483 C2482 1.524 1_556 S
C2483 C2484 1.397 . S
C2483 C2488 1.363 . S
C2484 H2461 0.950 1_556 S
C2484 C2483 1.397 . S
C2484 C2485 1.334 . S
C2485 H2462 0.950 . S
C2485 C2484 1.334 . S
C2485 C2486 1.287 . S
C2486 C2485 1.287 . S
C2486 C2487 1.524 . S
C2486 H2505 0.913 . S
C2487 H2463 0.950 . S
C2487 C2486 1.524 . S
C2487 C2488 1.415 . S
C2488 H2464 0.950 . S
C2488 C2483 1.363 . S
C2488 C2487 1.415 . S
C2489 H2465 0.951 . S
C2489 C2490 1.366 . S
C2489 C2491 1.388 . S
C2490 C2489 1.366 . S
C2490 C2494 1.385 . S
C2491 H2466 0.951 . S
C2491 C2489 1.388 . S
C2491 C2492 1.395 . S
C2492 C2491 1.395 . S
C2492 C2493 1.415 1_545 S
C2492 C2495 1.471 1_545 S
C2493 H2467 0.950 . S
C2493 C2492 1.415 1_565 S
C2493 C2494 1.374 1_565 S
C2494 H2468 0.950 . S
C2494 C2490 1.385 . S
C2494 C2493 1.374 1_545 S
C2495 C2492 1.471 1_565 S
C2495 C2496 1.373 . S
C2495 C2497 1.389 . S
C2496 H2469 0.950 . S
C2496 C2482 1.377 . S
C2496 C2495 1.373 . S
C2497 C2481 1.377 . S
C2497 C2495 1.389 . S
C2497 C2498 1.524 . S
C2498 C2497 1.524 . S
C2498 C2499 1.397 . S
C2498 C2503 1.363 . S
C2499 H2470 0.950 . S
C2499 C2498 1.397 . S
C2499 C2500 1.334 . S
C2500 H2471 0.950 . S
C2500 C2499 1.334 . S
C2500 C2501 1.287 . S
C2501 C2500 1.287 . S
C2501 C2502 1.524 . S
C2501 H2504 0.999 . S
C2502 H2472 0.950 . S
C2502 C2501 1.524 . S
C2502 C2503 1.415 . S
C2503 H2473 0.950 . S
C2503 C2498 1.363 . S
C2503 C2502 1.415 . S
H2504 C2501 0.999 . S
H2505 C2486 0.913 . S
H2506 C2524 0.951 . S
H2507 C2526 0.951 . S
H2508 C2528 0.950 . S
H2509 C2529 0.950 . S
H2510 C2531 0.950 . S
H2511 C2534 0.957 . S
H2512 C2535 0.950 . S
H2513 C2537 0.950 . S
H2514 C2538 0.950 . S
H2515 C2539 0.951 . S
H2516 C2541 0.951 . S
H2517 C2543 0.950 . S
H2518 C2544 0.950 . S
H2519 C2546 0.950 . S
H2520 C2549 0.950 . S
H2521 C2550 0.950 . S
H2522 C2552 0.950 . S
H2523 C2553 0.950 . S
C2524 H2506 0.951 . S
C2524 C2525 1.366 1_554 S
C2524 C2526 1.388 . S
C2525 C2524 1.366 1_556 S
C2525 C2529 1.385 . S
C2526 H2507 0.951 . S
C2526 C2524 1.388 . S
C2526 C2527 1.366 1_554 S
C2527 C2526 1.366 1_556 S
C2527 C2528 1.414 . S
C2527 C2530 1.499 . S
C2528 H2508 0.950 . S
C2528 C2527 1.414 . S
C2528 C2529 1.374 . S
C2529 H2509 0.950 . S
C2529 C2525 1.385 . S
C2529 C2528 1.374 . S
C2530 C2527 1.499 . S
C2530 C2531 1.373 . S
C2530 C2532 1.389 1_556 S
C2531 H2510 0.950 . S
C2531 C2530 1.373 . S
C2531 C2547 1.377 . S
C2532 C2530 1.389 1_554 S
C2532 C2533 1.524 . S
C2532 C2546 1.377 . S
C2533 C2532 1.524 . S
C2533 C2534 1.397 . S
C2533 C2538 1.363 . S
C2534 H2511 0.957 . S
C2534 C2533 1.397 . S
C2534 C2535 1.334 . S
C2535 H2512 0.950 . S
C2535 C2534 1.334 . S
C2535 C2536 1.287 . S
C2536 C2535 1.287 . S
C2536 C2537 1.524 . S
C2536 H2555 0.913 . S
C2537 H2513 0.950 . S
C2537 C2536 1.524 . S
C2537 C2538 1.415 . S
C2538 H2514 0.950 . S
C2538 C2533 1.363 . S
C2538 C2537 1.415 . S
C2539 H2515 0.951 . S
C2539 C2540 1.366 . S
C2539 C2541 1.388 . S
C2540 C2539 1.366 . S
C2540 C2544 1.385 1_556 S
C2541 H2516 0.951 . S
C2541 C2539 1.388 . S
C2541 C2542 1.366 . S
C2542 C2541 1.366 . S
C2542 C2543 1.414 1_556 S
C2542 C2545 1.499 . S
C2543 H2517 0.950 . S
C2543 C2542 1.414 1_554 S
C2543 C2544 1.374 . S
C2544 H2518 0.950 . S
C2544 C2540 1.385 1_554 S
C2544 C2543 1.374 . S
C2545 C2542 1.499 . S
C2545 C2546 1.373 1_556 S
C2545 C2547 1.389 . S
C2546 H2519 0.950 . S
C2546 C2532 1.377 . S
C2546 C2545 1.373 1_554 S
C2547 C2531 1.377 . S
C2547 C2545 1.389 . S
C2547 C2548 1.524 . S
C2548 C2547 1.524 . S
C2548 C2549 1.397 . S
C2548 C2553 1.363 . S
C2549 H2520 0.950 . S
C2549 C2548 1.397 . S
C2549 C2550 1.334 . S
C2550 H2521 0.950 . S
C2550 C2549 1.334 . S
C2550 C2551 1.287 . S
C2551 C2550 1.287 . S
C2551 C2552 1.524 . S
C2551 H2554 0.999 . S
C2552 H2522 0.950 . S
C2552 C2551 1.524 . S
C2552 C2553 1.415 . S
C2553 H2523 0.950 . S
C2553 C2548 1.363 . S
C2553 C2552 1.415 . S
H2554 C2551 0.999 . S
H2555 C2536 0.913 . S
H2556 C2574 0.951 . S
H2557 C2576 0.951 . S
H2558 C2578 0.950 . S
H2559 C2579 0.950 . S
H2560 C2581 0.950 . S
H2561 C2584 0.950 . S
H2562 C2585 0.950 . S
H2563 C2587 0.950 . S
H2564 C2588 0.950 . S
H2565 C2589 0.951 . S
H2566 C2591 0.951 . S
H2567 C2593 0.950 . S
H2568 C2594 0.950 . S
H2569 C2596 0.950 . S
H2570 C2599 0.950 . S
H2571 C2600 0.950 . S
H2572 C2602 0.950 . S
H2573 C2603 0.950 . S
C2574 H2556 0.951 . S
C2574 C2575 1.366 . S
C2574 C2576 1.388 . S
C2575 C2574 1.366 . S
C2575 C2579 1.385 . S
C2576 H2557 0.951 . S
C2576 C2574 1.388 . S
C2576 C2577 1.366 . S
C2577 C2576 1.366 . S
C2577 C2578 1.414 . S
C2577 C2580 1.499 . S
C2578 H2558 0.950 . S
C2578 C2577 1.414 . S
C2578 C2579 1.374 . S
C2579 H2559 0.950 . S
C2579 C2575 1.385 . S
C2579 C2578 1.374 . S
C2580 C2577 1.499 . S
C2580 C2581 1.373 . S
C2580 C2582 1.389 . S
C2581 H2560 0.950 . S
C2581 C2580 1.373 . S
C2581 C2597 1.377 . S
C2582 C2580 1.389 . S
C2582 C2583 1.524 . S
C2582 C2596 1.377 . S
C2583 C2582 1.524 . S
C2583 C2584 1.397 . S
C2583 C2588 1.363 . S
C2584 H2561 0.950 . S
C2584 C2583 1.397 . S
C2584 C2585 1.334 . S
C2585 H2562 0.950 . S
C2585 C2584 1.334 . S
C2585 C2586 1.287 . S
C2586 C2585 1.287 . S
C2586 C2587 1.524 . S
C2586 H2605 0.913 . S
C2587 H2563 0.950 . S
C2587 C2586 1.524 . S
C2587 C2588 1.415 . S
C2588 H2564 0.950 . S
C2588 C2583 1.363 . S
C2588 C2587 1.415 . S
C2589 H2565 0.951 . S
C2589 C2590 1.366 . S
C2589 C2591 1.388 . S
C2590 C2589 1.366 . S
C2590 C2594 1.385 . S
C2591 H2566 0.951 . S
C2591 C2589 1.388 . S
C2591 C2592 1.366 . S
C2592 C2591 1.366 . S
C2592 C2593 1.414 . S
C2592 C2595 1.499 . S
C2593 H2567 0.950 . S
C2593 C2592 1.414 . S
C2593 C2594 1.374 . S
C2594 H2568 0.950 . S
C2594 C2590 1.385 . S
C2594 C2593 1.374 . S
C2595 C2592 1.499 . S
C2595 C2596 1.373 . S
C2595 C2597 1.389 . S
C2596 H2569 0.950 . S
C2596 C2582 1.377 . S
C2596 C2595 1.373 . S
C2597 C2581 1.377 . S
C2597 C2595 1.389 . S
C2597 C2598 1.524 . S
C2598 C2597 1.524 . S
C2598 C2599 1.397 . S
C2598 C2603 1.363 . S
C2599 H2570 0.950 . S
C2599 C2598 1.397 . S
C2599 C2600 1.334 . S
C2600 H2571 0.950 . S
C2600 C2599 1.334 . S
C2600 C2601 1.287 . S
C2601 C2600 1.287 . S
C2601 C2602 1.524 . S
C2601 H2604 0.999 . S
C2602 H2572 0.950 . S
C2602 C2601 1.524 . S
C2602 C2603 1.415 . S
C2603 H2573 0.950 . S
C2603 C2598 1.363 . S
C2603 C2602 1.415 . S
H2604 C2601 0.999 . S
H2605 C2586 0.913 . S
H2606 C2624 0.951 . S
H2607 C2626 0.951 . S
H2608 C2628 0.950 . S
H2609 C2629 0.950 . S
H2610 C2631 0.950 . S
H2611 C2634 0.950 . S
H2612 C2635 0.950 . S
H2613 C2637 0.950 . S
H2614 C2638 0.950 . S
H2615 C2639 0.951 1_455 S
H2616 C2641 0.951 . S
H2617 C2643 0.950 . S
H2618 C2644 0.950 . S
H2619 C2646 0.950 . S
H2620 C2649 0.950 . S
H2621 C2650 0.950 . S
H2622 C2652 0.950 . S
H2623 C2653 0.950 . S
C2624 H2606 0.951 . S
C2624 C2625 1.366 . S
C2624 C2626 1.388 . S
C2625 C2624 1.366 . S
C2625 C2629 1.385 . S
C2626 H2607 0.951 . S
C2626 C2624 1.388 . S
C2626 C2627 1.366 . S
C2627 C2626 1.366 . S
C2627 C2628 1.414 . S
C2627 C2630 1.499 . S
C2628 H2608 0.950 . S
C2628 C2627 1.414 . S
C2628 C2629 1.374 . S
C2629 H2609 0.950 . S
C2629 C2625 1.385 . S
C2629 C2628 1.374 . S
C2630 C2627 1.499 . S
C2630 C2631 1.373 . S
C2630 C2632 1.389 . S
C2631 H2610 0.950 . S
C2631 C2630 1.373 . S
C2631 C2647 1.377 . S
C2632 C2630 1.389 . S
C2632 C2633 1.524 . S
C2632 C2646 1.377 . S
C2633 C2632 1.524 . S
C2633 C2634 1.397 . S
C2633 C2638 1.363 . S
C2634 H2611 0.950 . S
C2634 C2633 1.397 . S
C2634 C2635 1.334 . S
C2635 H2612 0.950 . S
C2635 C2634 1.334 . S
C2635 C2636 1.287 . S
C2636 C2635 1.287 . S
C2636 C2637 1.524 . S
C2636 H2655 0.913 . S
C2637 H2613 0.950 . S
C2637 C2636 1.524 . S
C2637 C2638 1.415 . S
C2638 H2614 0.950 . S
C2638 C2633 1.363 . S
C2638 C2637 1.415 . S
C2639 H2615 0.951 1_655 S
C2639 C2640 1.366 1_655 S
C2639 C2641 1.388 . S
C2640 C2639 1.366 1_455 S
C2640 C2644 1.390 1_455 S
C2641 H2616 0.951 . S
C2641 C2639 1.388 . S
C2641 C2642 1.366 . S
C2642 C2641 1.366 . S
C2642 C2643 1.414 . S
C2642 C2645 1.499 . S
C2643 H2617 0.950 . S
C2643 C2642 1.414 . S
C2643 C2644 1.374 . S
C2644 H2618 0.950 . S
C2644 C2640 1.390 1_655 S
C2644 C2643 1.374 . S
C2645 C2642 1.499 . S
C2645 C2646 1.373 . S
C2645 C2647 1.389 . S
C2646 H2619 0.950 . S
C2646 C2632 1.377 . S
C2646 C2645 1.373 . S
C2647 C2631 1.377 . S
C2647 C2645 1.389 . S
C2647 C2648 1.524 . S
C2648 C2647 1.524 . S
C2648 C2649 1.397 . S
C2648 C2653 1.363 . S
C2649 H2620 0.950 . S
C2649 C2648 1.397 . S
C2649 C2650 1.334 . S
C2650 H2621 0.950 . S
C2650 C2649 1.334 . S
C2650 C2651 1.287 . S
C2651 C2650 1.287 . S
C2651 C2652 1.524 . S
C2651 H2654 0.999 . S
C2652 H2622 0.950 . S
C2652 C2651 1.524 . S
C2652 C2653 1.415 . S
C2653 H2623 0.950 . S
C2653 C2648 1.363 . S
C2653 C2652 1.415 . S
H2654 C2651 0.999 . S
H2655 C2636 0.913 . S
H2656 C2674 0.951 . S
H2657 C2676 0.951 . S
H2658 C2678 0.950 . S
H2659 C2679 0.950 . S
H2660 C2681 0.950 . S
H2661 C2684 0.950 . S
H2662 C2685 0.950 . S
H2663 C2687 0.950 . S
H2664 C2688 0.950 . S
H2665 C2689 0.951 . S
H2666 C2691 0.951 . S
H2667 C2693 0.950 . S
H2668 C2694 0.950 . S
H2669 C2696 0.950 . S
H2670 C2699 0.950 . S
H2671 C2700 0.950 . S
H2672 C2702 0.950 . S
H2673 C2703 0.950 . S
C2674 H2656 0.951 . S
C2674 C2675 1.366 . S
C2674 C2676 1.388 . S
C2675 C2674 1.366 . S
C2675 C2679 1.385 . S
C2676 H2657 0.951 . S
C2676 C2674 1.388 . S
C2676 C2677 1.366 . S
C2677 C2676 1.366 . S
C2677 C2678 1.414 . S
C2677 C2680 1.499 . S
C2678 H2658 0.950 . S
C2678 C2677 1.414 . S
C2678 C2679 1.374 . S
C2679 H2659 0.950 . S
C2679 C2675 1.385 . S
C2679 C2678 1.374 . S
C2680 C2677 1.499 . S
C2680 C2681 1.373 . S
C2680 C2682 1.389 . S
C2681 H2660 0.950 . S
C2681 C2680 1.373 . S
C2681 C2697 1.377 . S
C2682 C2680 1.389 . S
C2682 C2683 1.524 . S
C2682 C2696 1.377 . S
C2683 C2682 1.524 . S
C2683 C2684 1.397 . S
C2683 C2688 1.363 . S
C2684 H2661 0.950 . S
C2684 C2683 1.397 . S
C2684 C2685 1.334 . S
C2685 H2662 0.950 . S
C2685 C2684 1.334 . S
C2685 C2686 1.287 . S
C2686 C2685 1.287 . S
C2686 C2687 1.524 . S
C2686 H2705 0.913 . S
C2687 H2663 0.950 . S
C2687 C2686 1.524 . S
C2687 C2688 1.415 . S
C2688 H2664 0.950 . S
C2688 C2683 1.363 . S
C2688 C2687 1.415 . S
C2689 H2665 0.951 . S
C2689 C2690 1.366 . S
C2689 C2691 1.388 . S
C2690 C2689 1.366 . S
C2690 C2694 1.385 . S
C2691 H2666 0.951 . S
C2691 C2689 1.388 . S
C2691 C2692 1.366 . S
C2692 C2691 1.366 . S
C2692 C2693 1.414 . S
C2692 C2695 1.499 . S
C2693 H2667 0.950 . S
C2693 C2692 1.414 . S
C2693 C2694 1.374 . S
C2694 H2668 0.950 . S
C2694 C2690 1.385 . S
C2694 C2693 1.374 . S
C2695 C2692 1.499 . S
C2695 C2696 1.373 . S
C2695 C2697 1.389 . S
C2696 H2669 0.950 . S
C2696 C2682 1.377 . S
C2696 C2695 1.373 . S
C2697 C2681 1.377 . S
C2697 C2695 1.389 . S
C2697 C2698 1.524 . S
C2698 C2697 1.524 . S
C2698 C2699 1.397 . S
C2698 C2703 1.363 . S
C2699 H2670 0.950 . S
C2699 C2698 1.397 . S
C2699 C2700 1.334 . S
C2700 H2671 0.950 . S
C2700 C2699 1.334 . S
C2700 C2701 1.287 . S
C2701 C2700 1.287 . S
C2701 C2702 1.524 . S
C2701 H2704 0.999 . S
C2702 H2672 0.950 . S
C2702 C2701 1.524 . S
C2702 C2703 1.415 . S
C2703 H2673 0.950 . S
C2703 C2698 1.363 . S
C2703 C2702 1.415 . S
H2704 C2701 0.999 . S
H2705 C2686 0.913 . S
H2706 C2724 0.951 . S
H2707 C2726 0.951 . S
H2708 C2728 0.950 . S
H2709 C2729 0.950 . S
H2710 C2731 0.950 . S
H2711 C2734 0.950 . S
H2712 C2735 0.950 . S
H2713 C2737 0.950 . S
H2714 C2738 0.950 . S
H2715 C2739 0.951 . S
H2716 C2741 0.951 . S
H2717 C2743 0.950 . S
H2718 C2744 0.950 . S
H2719 C2746 0.950 . S
H2720 C2749 0.950 . S
H2721 C2750 0.950 . S
H2722 C2752 0.950 . S
H2723 C2753 0.950 . S
C2724 H2706 0.951 . S
C2724 C2725 1.366 . S
C2724 C2726 1.388 . S
C2725 C2724 1.366 . S
C2725 C2729 1.385 . S
C2726 H2707 0.951 . S
C2726 C2724 1.388 . S
C2726 C2727 1.366 . S
C2727 C2726 1.366 . S
C2727 C2728 1.414 . S
C2727 C2730 1.499 . S
C2728 H2708 0.950 . S
C2728 C2727 1.414 . S
C2728 C2729 1.374 . S
C2729 H2709 0.950 . S
C2729 C2725 1.385 . S
C2729 C2728 1.374 . S
C2730 C2727 1.499 . S
C2730 C2731 1.373 . S
C2730 C2732 1.389 . S
C2731 H2710 0.950 . S
C2731 C2730 1.373 . S
C2731 C2747 1.377 . S
C2732 C2730 1.389 . S
C2732 C2733 1.524 . S
C2732 C2746 1.377 . S
C2733 C2732 1.524 . S
C2733 C2734 1.397 . S
C2733 C2738 1.363 . S
C2734 H2711 0.950 . S
C2734 C2733 1.397 . S
C2734 C2735 1.334 . S
C2735 H2712 0.950 . S
C2735 C2734 1.334 . S
C2735 C2736 1.287 . S
C2736 C2735 1.287 . S
C2736 C2737 1.524 . S
C2736 H2755 0.913 . S
C2737 H2713 0.950 . S
C2737 C2736 1.524 . S
C2737 C2738 1.415 . S
C2738 H2714 0.950 . S
C2738 C2733 1.363 . S
C2738 C2737 1.415 . S
C2739 H2715 0.951 . S
C2739 C2740 1.366 . S
C2739 C2741 1.388 . S
C2740 C2739 1.366 . S
C2740 C2744 1.385 . S
C2741 H2716 0.951 . S
C2741 C2739 1.388 . S
C2741 C2742 1.366 . S
C2742 C2741 1.366 . S
C2742 C2743 1.414 . S
C2742 C2745 1.499 . S
C2743 H2717 0.950 . S
C2743 C2742 1.414 . S
C2743 C2744 1.374 . S
C2744 H2718 0.950 . S
C2744 C2740 1.385 . S
C2744 C2743 1.374 . S
C2745 C2742 1.499 . S
C2745 C2746 1.373 . S
C2745 C2747 1.389 . S
C2746 H2719 0.950 . S
C2746 C2732 1.377 . S
C2746 C2745 1.373 . S
C2747 C2731 1.377 . S
C2747 C2745 1.389 . S
C2747 C2748 1.524 . S
C2748 C2747 1.524 . S
C2748 C2749 1.397 . S
C2748 C2753 1.363 . S
C2749 H2720 0.950 . S
C2749 C2748 1.397 . S
C2749 C2750 1.334 . S
C2750 H2721 0.950 . S
C2750 C2749 1.334 . S
C2750 C2751 1.287 . S
C2751 C2750 1.287 . S
C2751 C2752 1.524 . S
C2751 H2754 0.999 . S
C2752 H2722 0.950 . S
C2752 C2751 1.524 . S
C2752 C2753 1.415 . S
C2753 H2723 0.950 . S
C2753 C2748 1.363 . S
C2753 C2752 1.415 . S
H2754 C2751 0.999 . S
H2755 C2736 0.913 . S
H2756 C2774 0.951 . S
H2757 C2776 0.951 . S
H2758 C2778 0.950 . S
H2759 C2779 0.950 . S
H2760 C2781 0.950 . S
H2761 C2784 0.950 . S
H2762 C2785 0.950 . S
H2763 C2787 0.950 . S
H2764 C2788 0.950 . S
H2765 C2789 0.951 . S
H2766 C2791 0.951 . S
H2767 C2793 0.950 . S
H2768 C2794 0.950 . S
H2769 C2796 0.950 . S
H2770 C2799 0.950 . S
H2771 C2800 0.950 . S
H2772 C2802 0.950 . S
H2773 C2803 0.950 . S
C2774 H2756 0.951 . S
C2774 C2775 1.366 . S
C2774 C2776 1.388 . S
C2775 C2774 1.366 . S
C2775 C2779 1.385 . S
C2776 H2757 0.951 . S
C2776 C2774 1.388 . S
C2776 C2777 1.366 . S
C2777 C2776 1.366 . S
C2777 C2778 1.414 . S
C2777 C2780 1.499 . S
C2778 H2758 0.950 . S
C2778 C2777 1.414 . S
C2778 C2779 1.374 . S
C2779 H2759 0.950 . S
C2779 C2775 1.385 . S
C2779 C2778 1.374 . S
C2780 C2777 1.499 . S
C2780 C2781 1.373 . S
C2780 C2782 1.389 . S
C2781 H2760 0.950 . S
C2781 C2780 1.373 . S
C2781 C2797 1.377 . S
C2782 C2780 1.389 . S
C2782 C2783 1.524 . S
C2782 C2796 1.377 . S
C2783 C2782 1.524 . S
C2783 C2784 1.397 . S
C2783 C2788 1.363 . S
C2784 H2761 0.950 . S
C2784 C2783 1.397 . S
C2784 C2785 1.334 . S
C2785 H2762 0.950 . S
C2785 C2784 1.334 . S
C2785 C2786 1.287 . S
C2786 C2785 1.287 . S
C2786 C2787 1.524 . S
C2786 H2805 0.913 . S
C2787 H2763 0.950 . S
C2787 C2786 1.524 . S
C2787 C2788 1.415 . S
C2788 H2764 0.950 . S
C2788 C2783 1.363 . S
C2788 C2787 1.415 . S
C2789 H2765 0.951 . S
C2789 C2790 1.366 . S
C2789 C2791 1.388 . S
C2790 C2789 1.366 . S
C2790 C2794 1.385 . S
C2791 H2766 0.951 . S
C2791 C2789 1.388 . S
C2791 C2792 1.366 . S
C2792 C2791 1.366 . S
C2792 C2793 1.414 . S
C2792 C2795 1.499 . S
C2793 H2767 0.950 . S
C2793 C2792 1.414 . S
C2793 C2794 1.374 . S
C2794 H2768 0.950 . S
C2794 C2790 1.385 . S
C2794 C2793 1.374 . S
C2795 C2792 1.499 . S
C2795 C2796 1.373 . S
C2795 C2797 1.389 . S
C2796 H2769 0.950 . S
C2796 C2782 1.377 . S
C2796 C2795 1.373 . S
C2797 C2781 1.377 . S
C2797 C2795 1.389 . S
C2797 C2798 1.524 . S
C2798 C2797 1.524 . S
C2798 C2799 1.397 . S
C2798 C2803 1.363 . S
C2799 H2770 0.950 . S
C2799 C2798 1.397 . S
C2799 C2800 1.334 . S
C2800 H2771 0.950 . S
C2800 C2799 1.334 . S
C2800 C2801 1.287 . S
C2801 C2800 1.287 . S
C2801 C2802 1.524 . S
C2801 H2804 0.999 . S
C2802 H2772 0.950 . S
C2802 C2801 1.524 . S
C2802 C2803 1.415 . S
C2803 H2773 0.950 . S
C2803 C2798 1.363 . S
C2803 C2802 1.415 . S
H2804 C2801 0.999 . S
H2805 C2786 0.913 . S
H2806 C2824 0.951 . S
H2807 C2826 0.951 . S
H2808 C2828 0.950 . S
H2809 C2829 0.950 . S
H2810 C2831 0.950 . S
H2811 C2834 0.950 . S
H2812 C2835 0.950 . S
H2813 C2837 0.950 . S
H2814 C2838 0.950 . S
H2815 C2839 0.951 . S
H2816 C2841 0.951 . S
H2817 C2843 0.950 . S
H2818 C2844 0.950 . S
H2819 C2846 0.950 . S
H2820 C2849 0.950 . S
H2821 C2850 0.950 . S
H2822 C2852 0.950 . S
H2823 C2853 0.950 . S
C2824 H2806 0.951 . S
C2824 C2825 1.366 . S
C2824 C2826 1.388 . S
C2825 C2824 1.366 . S
C2825 C2829 1.385 . S
C2826 H2807 0.951 . S
C2826 C2824 1.388 . S
C2826 C2827 1.366 . S
C2827 C2826 1.366 . S
C2827 C2828 1.414 . S
C2827 C2830 1.499 . S
C2828 H2808 0.950 . S
C2828 C2827 1.414 . S
C2828 C2829 1.374 . S
C2829 H2809 0.950 . S
C2829 C2825 1.385 . S
C2829 C2828 1.374 . S
C2830 C2827 1.499 . S
C2830 C2831 1.373 . S
C2830 C2832 1.389 . S
C2831 H2810 0.950 . S
C2831 C2830 1.373 . S
C2831 C2847 1.377 . S
C2832 C2830 1.389 . S
C2832 C2833 1.524 . S
C2832 C2846 1.377 . S
C2833 C2832 1.524 . S
C2833 C2834 1.397 . S
C2833 C2838 1.363 . S
C2834 H2811 0.950 . S
C2834 C2833 1.397 . S
C2834 C2835 1.334 . S
C2835 H2812 0.950 . S
C2835 C2834 1.334 . S
C2835 C2836 1.287 . S
C2836 C2835 1.287 . S
C2836 C2837 1.524 . S
C2836 H2855 0.913 . S
C2837 H2813 0.950 . S
C2837 C2836 1.524 . S
C2837 C2838 1.415 . S
C2838 H2814 0.950 . S
C2838 C2833 1.363 . S
C2838 C2837 1.415 . S
C2839 H2815 0.951 . S
C2839 C2840 1.366 . S
C2839 C2841 1.388 . S
C2840 C2839 1.366 . S
C2840 C2844 1.385 . S
C2841 H2816 0.951 . S
C2841 C2839 1.388 . S
C2841 C2842 1.366 . S
C2842 C2841 1.366 . S
C2842 C2843 1.414 . S
C2842 C2845 1.499 . S
C2843 H2817 0.950 . S
C2843 C2842 1.414 . S
C2843 C2844 1.374 . S
C2844 H2818 0.950 . S
C2844 C2840 1.385 . S
C2844 C2843 1.374 . S
C2845 C2842 1.499 . S
C2845 C2846 1.373 . S
C2845 C2847 1.389 . S
C2846 H2819 0.950 . S
C2846 C2832 1.377 . S
C2846 C2845 1.373 . S
C2847 C2831 1.377 . S
C2847 C2845 1.389 . S
C2847 C2848 1.524 . S
C2848 C2847 1.524 . S
C2848 C2849 1.397 . S
C2848 C2853 1.363 . S
C2849 H2820 0.950 . S
C2849 C2848 1.397 . S
C2849 C2850 1.334 . S
C2850 H2821 0.950 . S
C2850 C2849 1.334 . S
C2850 C2851 1.287 . S
C2851 C2850 1.287 . S
C2851 C2852 1.524 . S
C2851 H2854 0.999 . S
C2852 H2822 0.950 . S
C2852 C2851 1.524 . S
C2852 C2853 1.415 . S
C2853 H2823 0.950 . S
C2853 C2848 1.363 . S
C2853 C2852 1.415 . S
H2854 C2851 0.999 . S
H2855 C2836 0.913 . S
H2856 C2874 0.951 . S
H2857 C2876 0.951 . S
H2858 C2878 0.950 . S
H2859 C2879 0.950 . S
H2860 C2881 0.950 . S
H2861 C2884 0.950 . S
H2862 C2885 0.950 . S
H2863 C2887 0.950 . S
H2864 C2888 0.950 . S
H2865 C2889 0.951 . S
H2866 C2891 0.951 . S
H2867 C2893 0.950 . S
H2868 C2894 0.950 . S
H2869 C2896 0.950 . S
H2870 C2899 0.950 . S
H2871 C2900 0.971 . S
H2872 C2902 0.950 . S
H2873 C2903 0.950 . S
C2874 H2856 0.951 . S
C2874 C2875 1.366 . S
C2874 C2876 1.388 . S
C2875 C2874 1.366 . S
C2875 C2879 1.385 . S
C2876 H2857 0.951 . S
C2876 C2874 1.388 . S
C2876 C2877 1.366 . S
C2877 C2876 1.366 . S
C2877 C2878 1.414 . S
C2877 C2880 1.499 . S
C2878 H2858 0.950 . S
C2878 C2877 1.414 . S
C2878 C2879 1.374 . S
C2879 H2859 0.950 . S
C2879 C2875 1.385 . S
C2879 C2878 1.374 . S
C2880 C2877 1.499 . S
C2880 C2881 1.373 . S
C2880 C2882 1.389 . S
C2881 H2860 0.950 . S
C2881 C2880 1.373 . S
C2881 C2897 1.377 . S
C2882 C2880 1.389 . S
C2882 C2883 1.524 . S
C2882 C2896 1.377 . S
C2883 C2882 1.524 . S
C2883 C2884 1.397 . S
C2883 C2888 1.363 . S
C2884 H2861 0.950 . S
C2884 C2883 1.397 . S
C2884 C2885 1.334 . S
C2885 H2862 0.950 . S
C2885 C2884 1.334 . S
C2885 C2886 1.287 . S
C2886 C2885 1.287 . S
C2886 C2887 1.524 . S
C2886 H2905 0.913 . S
C2887 H2863 0.950 . S
C2887 C2886 1.524 . S
C2887 C2888 1.415 . S
C2888 H2864 0.950 . S
C2888 C2883 1.363 . S
C2888 C2887 1.415 . S
C2889 H2865 0.951 . S
C2889 C2890 1.366 . S
C2889 C2891 1.388 . S
C2890 C2889 1.366 . S
C2890 C2894 1.385 . S
C2891 H2866 0.951 . S
C2891 C2889 1.388 . S
C2891 C2892 1.366 . S
C2892 C2891 1.366 . S
C2892 C2893 1.414 . S
C2892 C2895 1.499 . S
C2893 H2867 0.950 . S
C2893 C2892 1.414 . S
C2893 C2894 1.374 . S
C2894 H2868 0.950 . S
C2894 C2890 1.385 . S
C2894 C2893 1.374 . S
C2895 C2892 1.499 . S
C2895 C2896 1.373 . S
C2895 C2897 1.389 . S
C2896 H2869 0.950 . S
C2896 C2882 1.377 . S
C2896 C2895 1.373 . S
C2897 C2881 1.377 . S
C2897 C2895 1.389 . S
C2897 C2898 1.524 . S
C2898 C2897 1.524 . S
C2898 C2899 1.397 . S
C2898 C2903 1.363 . S
C2899 H2870 0.950 . S
C2899 C2898 1.397 . S
C2899 C2900 1.334 . S
C2900 H2871 0.971 . S
C2900 C2899 1.334 . S
C2900 C2901 1.287 . S
C2901 C2900 1.287 . S
C2901 C2902 1.524 . S
C2901 H2904 0.999 1_565 S
C2902 H2872 0.950 . S
C2902 C2901 1.524 . S
C2902 C2903 1.415 . S
C2903 H2873 0.950 . S
C2903 C2898 1.363 . S
C2903 C2902 1.415 . S
H2904 C2901 0.999 1_545 S
H2905 C2886 0.913 . S
H2906 C2924 0.951 . S
H2907 C2926 0.951 . S
H2908 C2928 0.950 . S
H2909 C2929 0.950 . S
H2910 C2931 0.950 . S
H2911 C2934 0.950 . S
H2912 C2935 0.950 . S
H2913 C2937 0.950 . S
H2914 C2938 0.950 . S
H2915 C2939 0.951 . S
H2916 C2941 0.951 . S
H2917 C2943 0.950 . S
H2918 C2944 0.950 . S
H2919 C2946 0.950 . S
H2920 C2949 0.950 . S
H2921 C2950 0.950 . S
H2922 C2952 0.950 . S
H2923 C2953 0.950 . S
C2924 H2906 0.951 . S
C2924 C2925 1.366 . S
C2924 C2926 1.388 . S
C2925 C2924 1.366 . S
C2925 C2929 1.385 . S
C2926 H2907 0.951 . S
C2926 C2924 1.388 . S
C2926 C2927 1.366 . S
C2927 C2926 1.366 . S
C2927 C2928 1.414 . S
C2927 C2930 1.499 . S
C2928 H2908 0.950 . S
C2928 C2927 1.414 . S
C2928 C2929 1.374 . S
C2929 H2909 0.950 . S
C2929 C2925 1.385 . S
C2929 C2928 1.374 . S
C2930 C2927 1.499 . S
C2930 C2931 1.373 . S
C2930 C2932 1.389 . S
C2931 H2910 0.950 . S
C2931 C2930 1.373 . S
C2931 C2947 1.377 . S
C2932 C2930 1.389 . S
C2932 C2933 1.524 . S
C2932 C2946 1.377 . S
C2933 C2932 1.524 . S
C2933 C2934 1.397 . S
C2933 C2938 1.363 . S
C2934 H2911 0.950 . S
C2934 C2933 1.397 . S
C2934 C2935 1.334 . S
C2935 H2912 0.950 . S
C2935 C2934 1.334 . S
C2935 C2936 1.287 . S
C2936 C2935 1.287 . S
C2936 C2937 1.524 . S
C2936 H2955 0.913 . S
C2937 H2913 0.950 . S
C2937 C2936 1.524 . S
C2937 C2938 1.415 . S
C2938 H2914 0.950 . S
C2938 C2933 1.363 . S
C2938 C2937 1.415 . S
C2939 H2915 0.951 . S
C2939 C2940 1.366 . S
C2939 C2941 1.388 . S
C2940 C2939 1.366 . S
C2940 C2944 1.385 . S
C2941 H2916 0.951 . S
C2941 C2939 1.388 . S
C2941 C2942 1.366 . S
C2942 C2941 1.366 . S
C2942 C2943 1.414 . S
C2942 C2945 1.499 . S
C2943 H2917 0.950 . S
C2943 C2942 1.414 . S
C2943 C2944 1.374 . S
C2944 H2918 0.950 . S
C2944 C2940 1.385 . S
C2944 C2943 1.374 . S
C2945 C2942 1.499 . S
C2945 C2946 1.373 . S
C2945 C2947 1.389 . S
C2946 H2919 0.950 . S
C2946 C2932 1.377 . S
C2946 C2945 1.373 . S
C2947 C2931 1.377 . S
C2947 C2945 1.389 . S
C2947 C2948 1.524 . S
C2948 C2947 1.524 . S
C2948 C2949 1.397 . S
C2948 C2953 1.363 . S
C2949 H2920 0.950 . S
C2949 C2948 1.397 . S
C2949 C2950 1.334 . S
C2950 H2921 0.950 . S
C2950 C2949 1.334 . S
C2950 C2951 1.287 . S
C2951 C2950 1.287 . S
C2951 C2952 1.524 . S
C2951 H2954 0.999 . S
C2952 H2922 0.950 . S
C2952 C2951 1.524 . S
C2952 C2953 1.415 . S
C2953 H2923 0.950 . S
C2953 C2948 1.363 . S
C2953 C2952 1.415 . S
H2954 C2951 0.999 . S
H2955 C2936 0.913 . S
H2956 C2974 0.951 . S
H2957 C2976 0.951 . S
H2958 C2978 0.950 . S
H2959 C2979 0.950 . S
H2960 C2981 0.950 . S
H2961 C2984 0.950 . S
H2962 C2985 0.950 . S
H2963 C2987 0.950 . S
H2964 C2988 0.950 . S
H2965 C2989 0.951 . S
H2966 C2991 0.951 . S
H2967 C2993 0.950 . S
H2968 C2994 0.950 . S
H2969 C2996 0.950 . S
H2970 C2999 0.950 . S
H2971 C3000 0.950 . S
H2972 C3002 0.950 . S
H2973 C3003 0.950 . S
C2974 H2956 0.951 . S
C2974 C2975 1.366 . S
C2974 C2976 1.388 . S
C2975 C2974 1.366 . S
C2975 C2979 1.385 . S
C2976 H2957 0.951 . S
C2976 C2974 1.388 . S
C2976 C2977 1.366 . S
C2977 C2976 1.366 . S
C2977 C2978 1.414 . S
C2977 C2980 1.499 . S
C2978 H2958 0.950 . S
C2978 C2977 1.414 . S
C2978 C2979 1.374 . S
C2979 H2959 0.950 . S
C2979 C2975 1.385 . S
C2979 C2978 1.374 . S
C2980 C2977 1.499 . S
C2980 C2981 1.373 . S
C2980 C2982 1.389 . S
C2981 H2960 0.950 . S
C2981 C2980 1.373 . S
C2981 C2997 1.377 . S
C2982 C2980 1.389 . S
C2982 C2983 1.524 . S
C2982 C2996 1.377 . S
C2983 C2982 1.524 . S
C2983 C2984 1.397 . S
C2983 C2988 1.363 . S
C2984 H2961 0.950 . S
C2984 C2983 1.397 . S
C2984 C2985 1.334 . S
C2985 H2962 0.950 . S
C2985 C2984 1.334 . S
C2985 C2986 1.287 . S
C2986 C2985 1.287 . S
C2986 C2987 1.524 . S
C2986 H3005 0.913 . S
C2987 H2963 0.950 . S
C2987 C2986 1.524 . S
C2987 C2988 1.415 . S
C2988 H2964 0.950 . S
C2988 C2983 1.363 . S
C2988 C2987 1.415 . S
C2989 H2965 0.951 . S
C2989 C2990 1.366 . S
C2989 C2991 1.388 . S
C2990 C2989 1.366 . S
C2990 C2994 1.385 . S
C2991 H2966 0.951 . S
C2991 C2989 1.388 . S
C2991 C2992 1.366 . S
C2992 C2991 1.366 . S
C2992 C2993 1.414 . S
C2992 C2995 1.499 . S
C2993 H2967 0.950 . S
C2993 C2992 1.414 . S
C2993 C2994 1.374 . S
C2994 H2968 0.950 . S
C2994 C2990 1.385 . S
C2994 C2993 1.374 . S
C2995 C2992 1.499 . S
C2995 C2996 1.373 . S
C2995 C2997 1.389 . S
C2996 H2969 0.950 . S
C2996 C2982 1.377 . S
C2996 C2995 1.373 . S
C2997 C2981 1.377 . S
C2997 C2995 1.389 . S
C2997 C2998 1.524 . S
C2998 C2997 1.524 . S
C2998 C2999 1.397 . S
C2998 C3003 1.363 . S
C2999 H2970 0.950 . S
C2999 C2998 1.397 . S
C2999 C3000 1.334 . S
C3000 H2971 0.950 . S
C3000 C2999 1.334 . S
C3000 C3001 1.287 . S
C3001 C3000 1.287 . S
C3001 C3002 1.524 . S
C3001 H3004 0.999 . S
C3002 H2972 0.950 . S
C3002 C3001 1.524 . S
C3002 C3003 1.415 . S
C3003 H2973 0.950 . S
C3003 C2998 1.363 . S
C3003 C3002 1.415 . S
H3004 C3001 0.999 . S
H3005 C2986 0.913 . S
H3006 C3024 0.951 . S
H3007 C3026 0.951 . S
H3008 C3028 0.950 . S
H3009 C3029 0.950 . S
H3010 C3031 0.950 . S
H3011 C3034 0.950 . S
H3012 C3035 0.950 . S
H3013 C3037 0.950 . S
H3014 C3038 0.950 . S
H3015 C3039 0.951 . S
H3016 C3041 0.951 . S
H3017 C3043 0.950 . S
H3018 C3044 0.950 . S
H3019 C3046 0.950 . S
H3020 C3049 0.950 . S
H3021 C3050 0.950 . S
H3022 C3052 0.950 . S
H3023 C3053 0.950 . S
C3024 H3006 0.951 . S
C3024 C3025 1.366 . S
C3024 C3026 1.388 . S
C3025 C3024 1.366 . S
C3025 C3029 1.385 . S
C3026 H3007 0.951 . S
C3026 C3024 1.388 . S
C3026 C3027 1.366 . S
C3027 C3026 1.366 . S
C3027 C3028 1.414 . S
C3027 C3030 1.499 . S
C3028 H3008 0.950 . S
C3028 C3027 1.414 . S
C3028 C3029 1.374 . S
C3029 H3009 0.950 . S
C3029 C3025 1.385 . S
C3029 C3028 1.374 . S
C3030 C3027 1.499 . S
C3030 C3031 1.373 . S
C3030 C3032 1.389 . S
C3031 H3010 0.950 . S
C3031 C3030 1.373 . S
C3031 C3047 1.377 . S
C3032 C3030 1.389 . S
C3032 C3033 1.524 . S
C3032 C3046 1.377 . S
C3033 C3032 1.524 . S
C3033 C3034 1.397 . S
C3033 C3038 1.363 . S
C3034 H3011 0.950 . S
C3034 C3033 1.397 . S
C3034 C3035 1.334 . S
C3035 H3012 0.950 . S
C3035 C3034 1.334 . S
C3035 C3036 1.287 . S
C3036 C3035 1.287 . S
C3036 C3037 1.524 . S
C3036 H3055 0.913 . S
C3037 H3013 0.950 . S
C3037 C3036 1.524 . S
C3037 C3038 1.415 . S
C3038 H3014 0.950 . S
C3038 C3033 1.363 . S
C3038 C3037 1.415 . S
C3039 H3015 0.951 . S
C3039 C3040 1.366 . S
C3039 C3041 1.388 . S
C3040 C3039 1.366 . S
C3040 C3044 1.385 . S
C3041 H3016 0.951 . S
C3041 C3039 1.388 . S
C3041 C3042 1.366 . S
C3042 C3041 1.366 . S
C3042 C3043 1.414 . S
C3042 C3045 1.499 . S
C3043 H3017 0.950 . S
C3043 C3042 1.414 . S
C3043 C3044 1.374 . S
C3044 H3018 0.950 . S
C3044 C3040 1.385 . S
C3044 C3043 1.374 . S
C3045 C3042 1.499 . S
C3045 C3046 1.373 . S
C3045 C3047 1.389 . S
C3046 H3019 0.950 . S
C3046 C3032 1.377 . S
C3046 C3045 1.373 . S
C3047 C3031 1.377 . S
C3047 C3045 1.389 . S
C3047 C3048 1.524 . S
C3048 C3047 1.524 . S
C3048 C3049 1.397 . S
C3048 C3053 1.363 . S
C3049 H3020 0.950 . S
C3049 C3048 1.397 . S
C3049 C3050 1.334 . S
C3050 H3021 0.950 . S
C3050 C3049 1.334 . S
C3050 C3051 1.287 . S
C3051 C3050 1.287 . S
C3051 C3052 1.524 . S
C3051 H3054 0.999 . S
C3052 H3022 0.950 . S
C3052 C3051 1.524 . S
C3052 C3053 1.415 . S
C3053 H3023 0.950 . S
C3053 C3048 1.363 . S
C3053 C3052 1.415 . S
H3054 C3051 0.999 . S
H3055 C3036 0.913 . S
H3056 C3074 0.951 . S
H3057 C3076 0.951 . S
H3058 C3078 0.950 . S
H3059 C3079 0.950 . S
H3060 C3081 0.950 . S
H3061 C3084 0.950 . S
H3062 C3085 0.950 . S
H3063 C3087 0.950 . S
H3064 C3088 0.950 . S
H3065 C3089 0.951 . S
H3066 C3091 0.951 . S
H3067 C3093 0.950 . S
H3068 C3094 0.950 . S
H3069 C3096 0.950 . S
H3070 C3099 0.950 . S
H3071 C3100 0.950 . S
H3072 C3102 0.950 . S
H3073 C3103 0.950 . S
C3074 H3056 0.951 . S
C3074 C3075 1.366 . S
C3074 C3076 1.388 . S
C3075 C3074 1.366 . S
C3075 C3079 1.385 . S
C3076 H3057 0.951 . S
C3076 C3074 1.388 . S
C3076 C3077 1.366 . S
C3077 C3076 1.366 . S
C3077 C3078 1.414 . S
C3077 C3080 1.499 . S
C3078 H3058 0.950 . S
C3078 C3077 1.414 . S
C3078 C3079 1.374 . S
C3079 H3059 0.950 . S
C3079 C3075 1.385 . S
C3079 C3078 1.374 . S
C3080 C3077 1.499 . S
C3080 C3081 1.373 . S
C3080 C3082 1.389 . S
C3081 H3060 0.950 . S
C3081 C3080 1.373 . S
C3081 C3097 1.377 . S
C3082 C3080 1.389 . S
C3082 C3083 1.524 . S
C3082 C3096 1.377 . S
C3083 C3082 1.524 . S
C3083 C3084 1.397 . S
C3083 C3088 1.363 . S
C3084 H3061 0.950 . S
C3084 C3083 1.397 . S
C3084 C3085 1.334 . S
C3085 H3062 0.950 . S
C3085 C3084 1.334 . S
C3085 C3086 1.287 . S
C3086 C3085 1.287 . S
C3086 C3087 1.524 . S
C3086 H3105 0.913 . S
C3087 H3063 0.950 . S
C3087 C3086 1.524 . S
C3087 C3088 1.415 . S
C3088 H3064 0.950 . S
C3088 C3083 1.363 . S
C3088 C3087 1.415 . S
C3089 H3065 0.951 . S
C3089 C3090 1.366 . S
C3089 C3091 1.388 . S
C3090 C3089 1.366 . S
C3090 C3094 1.385 . S
C3091 H3066 0.951 . S
C3091 C3089 1.388 . S
C3091 C3092 1.366 . S
C3092 C3091 1.366 . S
C3092 C3093 1.414 . S
C3092 C3095 1.499 . S
C3093 H3067 0.950 . S
C3093 C3092 1.414 . S
C3093 C3094 1.374 . S
C3094 H3068 0.950 . S
C3094 C3090 1.385 . S
C3094 C3093 1.374 . S
C3095 C3092 1.499 . S
C3095 C3096 1.373 . S
C3095 C3097 1.389 . S
C3096 H3069 0.950 . S
C3096 C3082 1.377 . S
C3096 C3095 1.373 . S
C3097 C3081 1.377 . S
C3097 C3095 1.389 . S
C3097 C3098 1.524 . S
C3098 C3097 1.524 . S
C3098 C3099 1.397 . S
C3098 C3103 1.363 . S
C3099 H3070 0.950 . S
C3099 C3098 1.397 . S
C3099 C3100 1.334 . S
C3100 H3071 0.950 . S
C3100 C3099 1.334 . S
C3100 C3101 1.287 . S
C3101 C3100 1.287 . S
C3101 C3102 1.524 . S
C3101 H3104 0.999 . S
C3102 H3072 0.950 . S
C3102 C3101 1.524 . S
C3102 C3103 1.415 . S
C3103 H3073 0.950 . S
C3103 C3098 1.363 . S
C3103 C3102 1.415 . S
H3104 C3101 0.999 . S
H3105 C3086 0.913 . S
H3106 C3124 0.951 . S
H3107 C3126 0.951 . S
H3108 C3128 0.950 . S
H3109 C3129 0.950 . S
H3110 C3131 0.950 . S
H3111 C3134 0.950 . S
H3112 C3135 0.950 . S
H3113 C3137 0.950 . S
H3114 C3138 0.950 . S
H3115 C3139 0.951 . S
H3116 C3141 0.951 . S
H3117 C3143 0.950 . S
H3118 C3144 0.950 . S
H3119 C3146 0.950 . S
H3120 C3149 0.950 . S
H3121 C3150 0.950 . S
H3122 C3152 0.950 . S
H3123 C3153 0.950 . S
C3124 H3106 0.951 . S
C3124 C3125 1.366 . S
C3124 C3126 1.388 . S
C3125 C3124 1.366 . S
C3125 C3129 1.385 . S
C3126 H3107 0.951 . S
C3126 C3124 1.388 . S
C3126 C3127 1.366 . S
C3127 C3126 1.366 . S
C3127 C3128 1.414 . S
C3127 C3130 1.499 . S
C3128 H3108 0.950 . S
C3128 C3127 1.414 . S
C3128 C3129 1.374 . S
C3129 H3109 0.950 . S
C3129 C3125 1.385 . S
C3129 C3128 1.374 . S
C3130 C3127 1.499 . S
C3130 C3131 1.373 . S
C3130 C3132 1.389 . S
C3131 H3110 0.950 . S
C3131 C3130 1.373 . S
C3131 C3147 1.377 . S
C3132 C3130 1.389 . S
C3132 C3133 1.524 . S
C3132 C3146 1.377 . S
C3133 C3132 1.524 . S
C3133 C3134 1.397 . S
C3133 C3138 1.363 . S
C3134 H3111 0.950 . S
C3134 C3133 1.397 . S
C3134 C3135 1.334 . S
C3135 H3112 0.950 . S
C3135 C3134 1.334 . S
C3135 C3136 1.287 . S
C3136 C3135 1.287 . S
C3136 C3137 1.524 . S
C3136 H3155 0.913 . S
C3137 H3113 0.950 . S
C3137 C3136 1.524 . S
C3137 C3138 1.415 . S
C3138 H3114 0.950 . S
C3138 C3133 1.363 . S
C3138 C3137 1.415 . S
C3139 H3115 0.951 . S
C3139 C3140 1.366 . S
C3139 C3141 1.388 . S
C3140 C3139 1.366 . S
C3140 C3144 1.385 . S
C3141 H3116 0.951 . S
C3141 C3139 1.388 . S
C3141 C3142 1.366 . S
C3142 C3141 1.366 . S
C3142 C3143 1.414 . S
C3142 C3145 1.499 . S
C3143 H3117 0.950 . S
C3143 C3142 1.414 . S
C3143 C3144 1.374 . S
C3144 H3118 0.950 . S
C3144 C3140 1.385 . S
C3144 C3143 1.374 . S
C3145 C3142 1.499 . S
C3145 C3146 1.373 . S
C3145 C3147 1.389 . S
C3146 H3119 0.950 . S
C3146 C3132 1.377 . S
C3146 C3145 1.373 . S
C3147 C3131 1.377 . S
C3147 C3145 1.389 . S
C3147 C3148 1.524 . S
C3148 C3147 1.524 . S
C3148 C3149 1.397 . S
C3148 C3153 1.363 . S
C3149 H3120 0.950 . S
C3149 C3148 1.397 . S
C3149 C3150 1.334 . S
C3150 H3121 0.950 . S
C3150 C3149 1.334 . S
C3150 C3151 1.287 . S
C3151 C3150 1.287 . S
C3151 C3152 1.524 . S
C3151 H3154 0.999 . S
C3152 H3122 0.950 . S
C3152 C3151 1.524 . S
C3152 C3153 1.415 . S
C3153 H3123 0.950 . S
C3153 C3148 1.363 . S
C3153 C3152 1.415 . S
H3154 C3151 0.999 . S
H3155 C3136 0.913 . S
H3156 C3174 0.951 . S
H3157 C3176 0.951 . S
H3158 C3178 0.950 . S
H3159 C3179 0.950 . S
H3160 C3181 0.950 . S
H3161 C3184 0.950 . S
H3162 C3185 0.950 . S
H3163 C3187 0.950 1_554 S
H3164 C3188 0.950 . S
H3165 C3189 0.958 . S
H3166 C3191 0.951 . S
H3167 C3193 0.950 . S
H3168 C3194 0.950 1_544 S
H3169 C3196 0.950 . S
H3170 C3199 0.950 . S
H3171 C3200 0.950 . S
H3172 C3202 0.950 . S
H3173 C3203 0.950 . S
C3174 H3156 0.951 . S
C3174 C3175 1.366 . S
C3174 C3176 1.388 . S
C3175 C3174 1.366 . S
C3175 C3179 1.385 . S
C3176 H3157 0.951 . S
C3176 C3174 1.388 . S
C3176 C3177 1.366 . S
C3177 C3176 1.366 . S
C3177 C3178 1.414 . S
C3177 C3180 1.499 . S
C3178 H3158 0.950 . S
C3178 C3177 1.414 . S
C3178 C3179 1.374 . S
C3179 H3159 0.950 . S
C3179 C3175 1.385 . S
C3179 C3178 1.374 . S
C3180 C3177 1.499 . S
C3180 C3181 1.373 . S
C3180 C3182 1.389 . S
C3181 H3160 0.950 . S
C3181 C3180 1.373 . S
C3181 C3197 1.377 . S
C3182 C3180 1.389 . S
C3182 C3183 1.524 . S
C3182 C3196 1.377 . S
C3183 C3182 1.524 . S
C3183 C3184 1.397 . S
C3183 C3188 1.363 . S
C3184 H3161 0.950 . S
C3184 C3183 1.397 . S
C3184 C3185 1.334 . S
C3185 H3162 0.950 . S
C3185 C3184 1.334 . S
C3185 C3186 1.287 . S
C3186 C3185 1.287 . S
C3186 C3187 1.524 . S
C3186 H3205 0.913 . S
C3187 H3163 0.950 1_556 S
C3187 C3186 1.524 . S
C3187 C3188 1.415 . S
C3188 H3164 0.950 . S
C3188 C3183 1.363 . S
C3188 C3187 1.415 . S
C3189 H3165 0.958 . S
C3189 C3190 1.366 1_565 S
C3189 C3191 1.388 . S
C3190 C3189 1.366 1_545 S
C3190 C3194 1.385 1_545 S
C3191 H3166 0.951 . S
C3191 C3189 1.388 . S
C3191 C3192 1.366 . S
C3192 C3191 1.366 . S
C3192 C3193 1.414 . S
C3192 C3195 1.499 . S
C3193 H3167 0.950 . S
C3193 C3192 1.414 . S
C3193 C3194 1.374 . S
C3194 H3168 0.950 1_566 S
C3194 C3190 1.385 1_565 S
C3194 C3193 1.374 . S
C3195 C3192 1.499 . S
C3195 C3196 1.373 . S
C3195 C3197 1.389 . S
C3196 H3169 0.950 . S
C3196 C3182 1.377 . S
C3196 C3195 1.373 . S
C3197 C3181 1.377 . S
C3197 C3195 1.389 . S
C3197 C3198 1.524 . S
C3198 C3197 1.524 . S
C3198 C3199 1.397 . S
C3198 C3203 1.363 . S
C3199 H3170 0.950 . S
C3199 C3198 1.397 . S
C3199 C3200 1.334 1_565 S
C3200 H3171 0.950 . S
C3200 C3199 1.334 1_545 S
C3200 C3201 1.287 . S
C3201 C3200 1.287 . S
C3201 C3202 1.524 1_545 S
C3201 H3204 0.999 . S
C3202 H3172 0.950 . S
C3202 C3201 1.524 1_565 S
C3202 C3203 1.415 . S
C3203 H3173 0.950 . S
C3203 C3198 1.363 . S
C3203 C3202 1.415 . S
H3204 C3201 0.999 . S
H3205 C3186 0.913 . S
H3206 C3224 0.951 . S
H3207 C3226 0.951 . S
H3208 C3228 0.950 . S
H3209 C3229 0.950 . S
H3210 C3231 0.950 . S
H3211 C3234 0.950 . S
H3212 C3235 0.950 . S
H3213 C3237 0.950 . S
H3214 C3238 0.950 . S
H3215 C3239 0.951 . S
H3216 C3241 0.951 . S
H3217 C3243 0.950 . S
H3218 C3244 0.950 . S
H3219 C3246 0.950 . S
H3220 C3249 0.950 . S
H3221 C3250 0.950 . S
H3222 C3252 0.950 . S
H3223 C3253 0.950 . S
C3224 H3206 0.951 . S
C3224 C3225 1.366 . S
C3224 C3226 1.388 . S
C3225 C3224 1.366 . S
C3225 C3229 1.385 . S
C3226 H3207 0.951 . S
C3226 C3224 1.388 . S
C3226 C3227 1.366 . S
C3227 C3226 1.366 . S
C3227 C3228 1.414 . S
C3227 C3230 1.499 . S
C3228 H3208 0.950 . S
C3228 C3227 1.414 . S
C3228 C3229 1.374 . S
C3229 H3209 0.950 . S
C3229 C3225 1.385 . S
C3229 C3228 1.374 . S
C3230 C3227 1.499 . S
C3230 C3231 1.373 . S
C3230 C3232 1.389 . S
C3231 H3210 0.950 . S
C3231 C3230 1.373 . S
C3231 C3247 1.377 . S
C3232 C3230 1.389 . S
C3232 C3233 1.524 . S
C3232 C3246 1.377 . S
C3233 C3232 1.524 . S
C3233 C3234 1.397 . S
C3233 C3238 1.363 . S
C3234 H3211 0.950 . S
C3234 C3233 1.397 . S
C3234 C3235 1.334 . S
C3235 H3212 0.950 . S
C3235 C3234 1.334 . S
C3235 C3236 1.287 . S
C3236 C3235 1.287 . S
C3236 C3237 1.524 . S
C3236 H3255 0.913 . S
C3237 H3213 0.950 . S
C3237 C3236 1.524 . S
C3237 C3238 1.415 . S
C3238 H3214 0.950 . S
C3238 C3233 1.363 . S
C3238 C3237 1.415 . S
C3239 H3215 0.951 . S
C3239 C3240 1.366 . S
C3239 C3241 1.388 . S
C3240 C3239 1.366 . S
C3240 C3244 1.385 . S
C3241 H3216 0.951 . S
C3241 C3239 1.388 . S
C3241 C3242 1.366 . S
C3242 C3241 1.366 . S
C3242 C3243 1.414 . S
C3242 C3245 1.499 . S
C3243 H3217 0.950 . S
C3243 C3242 1.414 . S
C3243 C3244 1.374 . S
C3244 H3218 0.950 . S
C3244 C3240 1.385 . S
C3244 C3243 1.374 . S
C3245 C3242 1.499 . S
C3245 C3246 1.373 . S
C3245 C3247 1.389 . S
C3246 H3219 0.950 . S
C3246 C3232 1.377 . S
C3246 C3245 1.373 . S
C3247 C3231 1.377 . S
C3247 C3245 1.389 . S
C3247 C3248 1.524 . S
C3248 C3247 1.524 . S
C3248 C3249 1.397 . S
C3248 C3253 1.363 . S
C3249 H3220 0.950 . S
C3249 C3248 1.397 . S
C3249 C3250 1.334 . S
C3250 H3221 0.950 . S
C3250 C3249 1.334 . S
C3250 C3251 1.287 . S
C3251 C3250 1.287 . S
C3251 C3252 1.524 . S
C3251 H3254 0.999 . S
C3252 H3222 0.950 . S
C3252 C3251 1.524 . S
C3252 C3253 1.415 . S
C3253 H3223 0.950 . S
C3253 C3248 1.363 . S
C3253 C3252 1.415 . S
H3254 C3251 0.999 . S
H3255 C3236 0.913 . S
H3256 C3274 0.951 . S
H3257 C3276 0.951 . S
H3258 C3278 0.950 1_565 S
H3259 C3279 0.950 1_565 S
H3260 C3281 0.950 . S
H3261 C3284 0.950 . S
H3262 C3285 0.950 . S
H3263 C3287 0.950 1_545 S
H3264 C3288 0.950 . S
H3265 C3289 0.951 . S
H3266 C3291 0.951 . S
H3267 C3293 0.950 . S
H3268 C3294 0.950 . S
H3269 C3296 0.950 . S
H3270 C3299 0.950 . S
H3271 C3300 0.950 . S
H3272 C3302 0.950 . S
H3273 C3303 0.950 . S
C3274 H3256 0.951 . S
C3274 C3275 1.366 . S
C3274 C3276 1.388 . S
C3275 C3274 1.366 . S
C3275 C3279 1.385 . S
C3276 H3257 0.951 . S
C3276 C3274 1.388 . S
C3276 C3277 1.366 . S
C3277 C3276 1.366 . S
C3277 C3278 1.414 . S
C3277 C3280 1.499 . S
C3278 H3258 0.950 1_545 S
C3278 C3277 1.414 . S
C3278 C3279 1.374 . S
C3279 H3259 0.950 1_545 S
C3279 C3275 1.385 . S
C3279 C3278 1.374 . S
C3280 C3277 1.499 . S
C3280 C3281 1.373 . S
C3280 C3282 1.389 . S
C3281 H3260 0.950 . S
C3281 C3280 1.373 . S
C3281 C3297 1.377 . S
C3282 C3280 1.389 . S
C3282 C3283 1.563 . S
C3282 C3296 1.377 . S
C3283 C3282 1.563 . S
C3283 C3284 1.351 1_545 S
C3283 C3288 1.370 . S
C3284 H3261 0.950 . S
C3284 C3283 1.351 1_565 S
C3284 C3285 1.334 . S
C3285 H3262 0.950 . S
C3285 C3284 1.334 . S
C3285 C3286 1.287 . S
C3286 C3285 1.287 . S
C3286 C3287 1.524 . S
C3286 H3305 0.913 . S
C3287 H3263 0.950 1_565 S
C3287 C3286 1.524 . S
C3287 C3288 1.415 1_565 S
C3288 H3264 0.950 . S
C3288 C3283 1.370 . S
C3288 C3287 1.415 1_545 S
C3289 H3265 0.951 . S
C3289 C3290 1.366 . S
C3289 C3291 1.388 . S
C3290 C3289 1.366 . S
C3290 C3294 1.385 . S
C3291 H3266 0.951 . S
C3291 C3289 1.388 . S
C3291 C3292 1.366 . S
C3292 C3291 1.366 . S
C3292 C3293 1.414 . S
C3292 C3295 1.499 . S
C3293 H3267 0.950 . S
C3293 C3292 1.414 . S
C3293 C3294 1.374 . S
C3294 H3268 0.950 . S
C3294 C3290 1.385 . S
C3294 C3293 1.374 . S
C3295 C3292 1.499 . S
C3295 C3296 1.373 . S
C3295 C3297 1.389 . S
C3296 H3269 0.950 . S
C3296 C3282 1.377 . S
C3296 C3295 1.373 . S
C3297 C3281 1.377 . S
C3297 C3295 1.389 . S
C3297 C3298 1.524 . S
C3298 C3297 1.524 . S
C3298 C3299 1.397 . S
C3298 C3303 1.363 . S
C3299 H3270 0.950 . S
C3299 C3298 1.397 . S
C3299 C3300 1.334 . S
C3300 H3271 0.950 . S
C3300 C3299 1.334 . S
C3300 C3301 1.287 . S
C3301 C3300 1.287 . S
C3301 C3302 1.524 . S
C3301 H3304 0.999 . S
C3302 H3272 0.950 . S
C3302 C3301 1.524 . S
C3302 C3303 1.415 . S
C3303 H3273 0.950 . S
C3303 C3298 1.363 . S
C3303 C3302 1.415 . S
H3304 C3301 0.999 . S
H3305 C3286 0.913 . S
H3306 C3324 0.951 . S
H3307 C3326 0.951 . S
H3308 C3328 0.950 . S
H3309 C3329 0.950 . S
H3310 C3331 0.950 . S
H3311 C3334 0.950 . S
H3312 C3335 0.950 . S
H3313 C3337 0.950 . S
H3314 C3338 0.950 . S
H3315 C3339 0.951 . S
H3316 C3341 0.951 . S
H3317 C3343 0.950 . S
H3318 C3344 0.950 . S
H3319 C3346 0.950 . S
H3320 C3349 0.950 . S
H3321 C3350 0.950 . S
H3322 C3352 0.950 . S
H3323 C3353 0.950 . S
C3324 H3306 0.951 . S
C3324 C3325 1.366 . S
C3324 C3326 1.388 . S
C3325 C3324 1.366 . S
C3325 C3329 1.385 . S
C3326 H3307 0.951 . S
C3326 C3324 1.388 . S
C3326 C3327 1.366 . S
C3327 C3326 1.366 . S
C3327 C3328 1.414 . S
C3327 C3330 1.499 . S
C3328 H3308 0.950 . S
C3328 C3327 1.414 . S
C3328 C3329 1.374 . S
C3329 H3309 0.950 . S
C3329 C3325 1.385 . S
C3329 C3328 1.374 . S
C3330 C3327 1.499 . S
C3330 C3331 1.373 . S
C3330 C3332 1.389 . S
C3331 H3310 0.950 . S
C3331 C3330 1.373 . S
C3331 C3347 1.377 . S
C3332 C3330 1.389 . S
C3332 C3333 1.524 . S
C3332 C3346 1.377 . S
C3333 C3332 1.524 . S
C3333 C3334 1.397 . S
C3333 C3338 1.363 . S
C3334 H3311 0.950 . S
C3334 C3333 1.397 . S
C3334 C3335 1.334 . S
C3335 H3312 0.950 . S
C3335 C3334 1.334 . S
C3335 C3336 1.287 . S
C3336 C3335 1.287 . S
C3336 C3337 1.524 . S
C3336 H3355 0.913 . S
C3337 H3313 0.950 . S
C3337 C3336 1.524 . S
C3337 C3338 1.415 . S
C3338 H3314 0.950 . S
C3338 C3333 1.363 . S
C3338 C3337 1.415 . S
C3339 H3315 0.951 . S
C3339 C3340 1.366 . S
C3339 C3341 1.388 . S
C3340 C3339 1.366 . S
C3340 C3344 1.385 . S
C3341 H3316 0.951 . S
C3341 C3339 1.388 . S
C3341 C3342 1.366 . S
C3342 C3341 1.366 . S
C3342 C3343 1.414 . S
C3342 C3345 1.499 . S
C3343 H3317 0.950 . S
C3343 C3342 1.414 . S
C3343 C3344 1.374 . S
C3344 H3318 0.950 . S
C3344 C3340 1.385 . S
C3344 C3343 1.374 . S
C3345 C3342 1.499 . S
C3345 C3346 1.373 . S
C3345 C3347 1.389 . S
C3346 H3319 0.950 . S
C3346 C3332 1.377 . S
C3346 C3345 1.373 . S
C3347 C3331 1.377 . S
C3347 C3345 1.389 . S
C3347 C3348 1.524 . S
C3348 C3347 1.524 . S
C3348 C3349 1.397 . S
C3348 C3353 1.363 . S
C3349 H3320 0.950 . S
C3349 C3348 1.397 . S
C3349 C3350 1.334 . S
C3350 H3321 0.950 . S
C3350 C3349 1.334 . S
C3350 C3351 1.287 . S
C3351 C3350 1.287 . S
C3351 C3352 1.524 . S
C3351 H3354 0.999 . S
C3352 H3322 0.950 . S
C3352 C3351 1.524 . S
C3352 C3353 1.415 . S
C3353 H3323 0.950 . S
C3353 C3348 1.363 . S
C3353 C3352 1.415 . S
H3354 C3351 0.999 . S
H3355 C3336 0.913 . S
H3356 C3374 0.951 . S
H3357 C3376 0.951 . S
H3358 C3378 0.950 . S
H3359 C3379 0.950 . S
H3360 C3381 0.950 . S
H3361 C3384 0.950 . S
H3362 C3385 0.950 . S
H3363 C3387 0.950 . S
H3364 C3388 0.950 . S
H3365 C3389 0.951 . S
H3366 C3391 0.951 . S
H3367 C3393 0.950 . S
H3368 C3394 0.950 . S
H3369 C3396 0.950 . S
H3370 C3399 0.950 . S
H3371 C3400 0.950 . S
H3372 C3402 0.950 . S
H3373 C3403 0.950 . S
C3374 H3356 0.951 . S
C3374 C3375 1.366 . S
C3374 C3376 1.388 . S
C3375 C3374 1.366 . S
C3375 C3379 1.385 . S
C3376 H3357 0.951 . S
C3376 C3374 1.388 . S
C3376 C3377 1.366 . S
C3377 C3376 1.366 . S
C3377 C3378 1.414 . S
C3377 C3380 1.499 . S
C3378 H3358 0.950 . S
C3378 C3377 1.414 . S
C3378 C3379 1.374 . S
C3379 H3359 0.950 . S
C3379 C3375 1.385 . S
C3379 C3378 1.374 . S
C3380 C3377 1.499 . S
C3380 C3381 1.373 . S
C3380 C3382 1.389 . S
C3381 H3360 0.950 . S
C3381 C3380 1.373 . S
C3381 C3397 1.377 . S
C3382 C3380 1.389 . S
C3382 C3383 1.524 1_545 S
C3382 C3396 1.377 . S
C3383 C3382 1.524 1_565 S
C3383 C3384 1.397 . S
C3383 C3388 1.363 . S
C3384 H3361 0.950 . S
C3384 C3383 1.397 . S
C3384 C3385 1.334 . S
C3385 H3362 0.950 . S
C3385 C3384 1.334 . S
C3385 C3386 1.287 . S
C3386 C3385 1.287 . S
C3386 C3387 1.524 . S
C3386 H3405 0.913 . S
C3387 H3363 0.950 . S
C3387 C3386 1.524 . S
C3387 C3388 1.415 . S
C3388 H3364 0.950 . S
C3388 C3383 1.363 . S
C3388 C3387 1.415 . S
C3389 H3365 0.951 . S
C3389 C3390 1.366 . S
C3389 C3391 1.388 . S
C3390 C3389 1.366 . S
C3390 C3394 1.385 . S
C3391 H3366 0.951 . S
C3391 C3389 1.388 . S
C3391 C3392 1.366 . S
C3392 C3391 1.366 . S
C3392 C3393 1.414 . S
C3392 C3395 1.499 . S
C3393 H3367 0.950 . S
C3393 C3392 1.414 . S
C3393 C3394 1.374 . S
C3394 H3368 0.950 . S
C3394 C3390 1.385 . S
C3394 C3393 1.374 . S
C3395 C3392 1.499 . S
C3395 C3396 1.373 . S
C3395 C3397 1.389 . S
C3396 H3369 0.950 . S
C3396 C3382 1.377 . S
C3396 C3395 1.373 . S
C3397 C3381 1.377 . S
C3397 C3395 1.389 . S
C3397 C3398 1.524 . S
C3398 C3397 1.524 . S
C3398 C3399 1.397 . S
C3398 C3403 1.363 . S
C3399 H3370 0.950 . S
C3399 C3398 1.397 . S
C3399 C3400 1.334 . S
C3400 H3371 0.950 . S
C3400 C3399 1.334 . S
C3400 C3401 1.287 . S
C3401 C3400 1.287 . S
C3401 C3402 1.524 . S
C3401 H3404 0.999 . S
C3402 H3372 0.950 . S
C3402 C3401 1.524 . S
C3402 C3403 1.415 . S
C3403 H3373 0.950 . S
C3403 C3398 1.363 . S
C3403 C3402 1.415 . S
H3404 C3401 0.999 . S
H3405 C3386 0.913 . S
H3406 C3424 0.951 . S
H3407 C3426 0.951 . S
H3408 C3428 0.950 . S
H3409 C3429 0.950 . S
H3410 C3431 0.950 . S
H3411 C3434 0.950 . S
H3412 C3435 0.950 . S
H3413 C3437 0.950 . S
H3414 C3438 0.950 . S
H3415 C3439 0.951 . S
H3416 C3441 0.951 . S
H3417 C3443 0.950 . S
H3418 C3444 0.950 . S
H3419 C3446 0.950 . S
H3420 C3449 0.950 . S
H3421 C3450 0.950 . S
H3422 C3452 0.950 . S
H3423 C3453 0.950 . S
C3424 H3406 0.951 . S
C3424 C3425 1.366 . S
C3424 C3426 1.388 . S
C3425 C3424 1.366 . S
C3425 C3429 1.385 . S
C3426 H3407 0.951 . S
C3426 C3424 1.388 . S
C3426 C3427 1.366 . S
C3427 C3426 1.366 . S
C3427 C3428 1.414 . S
C3427 C3430 1.499 . S
C3428 H3408 0.950 . S
C3428 C3427 1.414 . S
C3428 C3429 1.374 . S
C3429 H3409 0.950 . S
C3429 C3425 1.385 . S
C3429 C3428 1.374 . S
C3430 C3427 1.499 . S
C3430 C3431 1.373 . S
C3430 C3432 1.389 . S
C3431 H3410 0.950 . S
C3431 C3430 1.373 . S
C3431 C3447 1.377 . S
C3432 C3430 1.389 . S
C3432 C3433 1.524 . S
C3432 C3446 1.377 . S
C3433 C3432 1.524 . S
C3433 C3434 1.397 . S
C3433 C3438 1.363 . S
C3434 H3411 0.950 . S
C3434 C3433 1.397 . S
C3434 C3435 1.334 . S
C3435 H3412 0.950 . S
C3435 C3434 1.334 . S
C3435 C3436 1.287 . S
C3436 C3435 1.287 . S
C3436 C3437 1.524 . S
C3436 H3455 0.913 . S
C3437 H3413 0.950 . S
C3437 C3436 1.524 . S
C3437 C3438 1.415 . S
C3438 H3414 0.950 . S
C3438 C3433 1.363 . S
C3438 C3437 1.415 . S
C3439 H3415 0.951 . S
C3439 C3440 1.366 . S
C3439 C3441 1.388 . S
C3440 C3439 1.366 . S
C3440 C3444 1.385 . S
C3441 H3416 0.951 . S
C3441 C3439 1.388 . S
C3441 C3442 1.366 . S
C3442 C3441 1.366 . S
C3442 C3443 1.414 . S
C3442 C3445 1.499 . S
C3443 H3417 0.950 . S
C3443 C3442 1.414 . S
C3443 C3444 1.374 . S
C3444 H3418 0.950 . S
C3444 C3440 1.385 . S
C3444 C3443 1.374 . S
C3445 C3442 1.499 . S
C3445 C3446 1.373 . S
C3445 C3447 1.389 . S
C3446 H3419 0.950 . S
C3446 C3432 1.377 . S
C3446 C3445 1.373 . S
C3447 C3431 1.377 . S
C3447 C3445 1.389 . S
C3447 C3448 1.524 . S
C3448 C3447 1.524 . S
C3448 C3449 1.397 . S
C3448 C3453 1.363 . S
C3449 H3420 0.950 . S
C3449 C3448 1.397 . S
C3449 C3450 1.334 . S
C3450 H3421 0.950 . S
C3450 C3449 1.334 . S
C3450 C3451 1.287 . S
C3451 C3450 1.287 . S
C3451 C3452 1.524 . S
C3451 H3454 0.999 . S
C3452 H3422 0.950 . S
C3452 C3451 1.524 . S
C3452 C3453 1.415 . S
C3453 H3423 0.950 . S
C3453 C3448 1.363 . S
C3453 C3452 1.415 . S
H3454 C3451 0.999 . S
H3455 C3436 0.913 . S
H3456 C3474 0.951 . S
H3457 C3476 0.951 . S
H3458 C3478 0.950 . S
H3459 C3479 0.950 . S
H3460 C3481 0.950 . S
H3461 C3484 0.950 1_545 S
H3462 C3485 0.964 . S
H3463 C3487 0.950 . S
H3464 C3488 0.950 . S
H3465 C3489 0.951 . S
H3466 C3491 0.951 . S
H3467 C3493 0.950 . S
H3468 C3494 0.941 1_565 S
H3469 C3496 0.950 . S
H3470 C3499 0.955 . S
H3471 C3500 0.950 . S
H3472 C3502 0.950 . S
H3473 C3503 0.950 . S
C3474 H3456 0.951 . S
C3474 C3475 1.366 . S
C3474 C3476 1.388 . S
C3475 C3474 1.366 . S
C3475 C3479 1.385 1_565 S
C3476 H3457 0.951 . S
C3476 C3474 1.388 . S
C3476 C3477 1.366 . S
C3477 C3476 1.366 . S
C3477 C3478 1.414 1_565 S
C3477 C3480 1.499 1_565 S
C3478 H3458 0.950 . S
C3478 C3477 1.414 1_545 S
C3478 C3479 1.374 . S
C3479 H3459 0.950 . S
C3479 C3475 1.385 1_545 S
C3479 C3478 1.374 . S
C3480 C3477 1.499 1_545 S
C3480 C3481 1.373 . S
C3480 C3482 1.389 1_545 S
C3481 H3460 0.950 . S
C3481 C3480 1.373 . S
C3481 C3497 1.377 . S
C3482 C3480 1.389 1_565 S
C3482 C3483 1.524 . S
C3482 C3496 1.377 . S
C3483 C3482 1.524 . S
C3483 C3484 1.397 . S
C3483 C3488 1.363 . S
C3484 H3461 0.950 1_565 S
C3484 C3483 1.397 . S
C3484 C3485 1.334 . S
C3485 H3462 0.964 . S
C3485 C3484 1.334 . S
C3485 C3486 1.287 . S
C3486 C3485 1.287 . S
C3486 C3487 1.524 . S
C3486 H3505 0.913 . S
C3487 H3463 0.950 . S
C3487 C3486 1.524 . S
C3487 C3488 1.415 . S
C3488 H3464 0.950 . S
C3488 C3483 1.363 . S
C3488 C3487 1.415 . S
C3489 H3465 0.951 . S
C3489 C3490 1.366 . S
C3489 C3491 1.388 . S
C3490 C3489 1.366 . S
C3490 C3494 1.400 . S
C3491 H3466 0.951 . S
C3491 C3489 1.388 . S
C3491 C3492 1.366 . S
C3492 C3491 1.366 . S
C3492 C3493 1.414 1_545 S
C3492 C3495 1.499 . S
C3493 H3467 0.950 . S
C3493 C3492 1.414 1_565 S
C3493 C3494 1.367 1_565 S
C3494 H3468 0.941 1_545 S
C3494 C3490 1.400 . S
C3494 C3493 1.367 1_545 S
C3495 C3492 1.499 . S
C3495 C3496 1.373 1_545 S
C3495 C3497 1.389 . S
C3496 H3469 0.950 . S
C3496 C3482 1.377 . S
C3496 C3495 1.373 1_565 S
C3497 C3481 1.377 . S
C3497 C3495 1.389 . S
C3497 C3498 1.524 . S
C3498 C3497 1.524 . S
C3498 C3499 1.397 . S
C3498 C3503 1.363 . S
C3499 H3470 0.955 . S
C3499 C3498 1.397 . S
C3499 C3500 1.334 . S
C3500 H3471 0.950 . S
C3500 C3499 1.334 . S
C3500 C3501 1.287 . S
C3501 C3500 1.287 . S
C3501 C3502 1.524 . S
C3501 H3504 0.999 . S
C3502 H3472 0.950 . S
C3502 C3501 1.524 . S
C3502 C3503 1.415 . S
C3503 H3473 0.950 . S
C3503 C3498 1.363 . S
C3503 C3502 1.415 . S
H3504 C3501 0.999 . S
H3505 C3486 0.913 . S
H3506 C3524 0.951 . S
H3507 C3526 0.951 . S
H3508 C3528 0.950 . S
H3509 C3529 0.950 . S
H3510 C3531 0.950 . S
H3511 C3534 0.950 . S
H3512 C3535 0.950 . S
H3513 C3537 0.950 . S
H3514 C3538 0.950 . S
H3515 C3539 0.951 . S
H3516 C3541 0.951 . S
H3517 C3543 0.950 . S
H3518 C3544 0.950 . S
H3519 C3546 0.950 . S
H3520 C3549 0.950 . S
H3521 C3550 0.950 . S
H3522 C3552 0.950 . S
H3523 C3553 0.950 . S
C3524 H3506 0.951 . S
C3524 C3525 1.366 . S
C3524 C3526 1.388 . S
C3525 C3524 1.366 . S
C3525 C3529 1.385 . S
C3526 H3507 0.951 . S
C3526 C3524 1.388 . S
C3526 C3527 1.366 . S
C3527 C3526 1.366 . S
C3527 C3528 1.414 . S
C3527 C3530 1.499 . S
C3528 H3508 0.950 . S
C3528 C3527 1.414 . S
C3528 C3529 1.374 . S
C3529 H3509 0.950 . S
C3529 C3525 1.385 . S
C3529 C3528 1.374 . S
C3530 C3527 1.499 . S
C3530 C3531 1.373 . S
C3530 C3532 1.389 . S
C3531 H3510 0.950 . S
C3531 C3530 1.373 . S
C3531 C3547 1.377 . S
C3532 C3530 1.389 . S
C3532 C3533 1.524 . S
C3532 C3546 1.377 . S
C3533 C3532 1.524 . S
C3533 C3534 1.397 . S
C3533 C3538 1.363 . S
C3534 H3511 0.950 . S
C3534 C3533 1.397 . S
C3534 C3535 1.334 . S
C3535 H3512 0.950 . S
C3535 C3534 1.334 . S
C3535 C3536 1.287 . S
C3536 C3535 1.287 . S
C3536 C3537 1.524 . S
C3536 H3555 0.913 . S
C3537 H3513 0.950 . S
C3537 C3536 1.524 . S
C3537 C3538 1.415 . S
C3538 H3514 0.950 . S
C3538 C3533 1.363 . S
C3538 C3537 1.415 . S
C3539 H3515 0.951 . S
C3539 C3540 1.366 . S
C3539 C3541 1.388 . S
C3540 C3539 1.366 . S
C3540 C3544 1.385 . S
C3541 H3516 0.951 . S
C3541 C3539 1.388 . S
C3541 C3542 1.366 . S
C3542 C3541 1.366 . S
C3542 C3543 1.414 . S
C3542 C3545 1.499 . S
C3543 H3517 0.950 . S
C3543 C3542 1.414 . S
C3543 C3544 1.374 . S
C3544 H3518 0.950 . S
C3544 C3540 1.385 . S
C3544 C3543 1.374 . S
C3545 C3542 1.499 . S
C3545 C3546 1.373 . S
C3545 C3547 1.389 . S
C3546 H3519 0.950 . S
C3546 C3532 1.377 . S
C3546 C3545 1.373 . S
C3547 C3531 1.377 . S
C3547 C3545 1.389 . S
C3547 C3548 1.524 . S
C3548 C3547 1.524 . S
C3548 C3549 1.397 . S
C3548 C3553 1.363 . S
C3549 H3520 0.950 . S
C3549 C3548 1.397 . S
C3549 C3550 1.334 . S
C3550 H3521 0.950 . S
C3550 C3549 1.334 . S
C3550 C3551 1.287 . S
C3551 C3550 1.287 . S
C3551 C3552 1.524 . S
C3551 H3554 0.999 . S
C3552 H3522 0.950 . S
C3552 C3551 1.524 . S
C3552 C3553 1.415 . S
C3553 H3523 0.950 . S
C3553 C3548 1.363 . S
C3553 C3552 1.415 . S
H3554 C3551 0.999 . S
H3555 C3536 0.913 . S
H3556 C3574 0.951 . S
H3557 C3576 0.951 . S
H3558 C3578 0.950 . S
H3559 C3579 0.950 . S
H3560 C3581 0.950 . S
H3561 C3584 0.950 . S
H3562 C3585 0.950 . S
H3563 C3587 0.950 . S
H3564 C3588 0.935 1_545 S
H3565 C3589 0.951 . S
H3566 C3591 0.951 . S
H3567 C3593 0.950 . S
H3568 C3594 0.950 . S
H3569 C3596 0.950 . S
H3570 C3599 0.950 . S
H3571 C3600 0.950 . S
H3572 C3602 0.950 . S
H3573 C3603 0.950 . S
C3574 H3556 0.951 . S
C3574 C3575 1.366 . S
C3574 C3576 1.388 . S
C3575 C3574 1.366 . S
C3575 C3579 1.385 . S
C3576 H3557 0.951 . S
C3576 C3574 1.388 . S
C3576 C3577 1.366 . S
C3577 C3576 1.366 . S
C3577 C3578 1.414 . S
C3577 C3580 1.499 . S
C3578 H3558 0.950 . S
C3578 C3577 1.414 . S
C3578 C3579 1.374 . S
C3579 H3559 0.950 . S
C3579 C3575 1.385 . S
C3579 C3578 1.374 . S
C3580 C3577 1.499 . S
C3580 C3581 1.373 . S
C3580 C3582 1.389 . S
C3581 H3560 0.950 . S
C3581 C3580 1.373 . S
C3581 C3597 1.377 . S
C3582 C3580 1.389 . S
C3582 C3583 1.524 1_545 S
C3582 C3596 1.377 . S
C3583 C3582 1.524 1_565 S
C3583 C3584 1.397 . S
C3583 C3588 1.363 . S
C3584 H3561 0.950 . S
C3584 C3583 1.397 . S
C3584 C3585 1.334 . S
C3585 H3562 0.950 . S
C3585 C3584 1.334 . S
C3585 C3586 1.287 . S
C3586 C3585 1.287 . S
C3586 C3587 1.524 . S
C3586 H3605 0.913 . S
C3587 H3563 0.950 . S
C3587 C3586 1.524 . S
C3587 C3588 1.415 . S
C3588 H3564 0.935 1_565 S
C3588 C3583 1.363 . S
C3588 C3587 1.415 . S
C3589 H3565 0.951 . S
C3589 C3590 1.366 . S
C3589 C3591 1.388 . S
C3590 C3589 1.366 . S
C3590 C3594 1.385 . S
C3591 H3566 0.951 . S
C3591 C3589 1.388 . S
C3591 C3592 1.366 . S
C3592 C3591 1.366 . S
C3592 C3593 1.414 . S
C3592 C3595 1.499 . S
C3593 H3567 0.950 . S
C3593 C3592 1.414 . S
C3593 C3594 1.374 . S
C3594 H3568 0.950 . S
C3594 C3590 1.385 . S
C3594 C3593 1.374 . S
C3595 C3592 1.499 . S
C3595 C3596 1.373 . S
C3595 C3597 1.389 . S
C3596 H3569 0.950 . S
C3596 C3582 1.377 . S
C3596 C3595 1.373 . S
C3597 C3581 1.377 . S
C3597 C3595 1.389 . S
C3597 C3598 1.524 . S
C3598 C3597 1.524 . S
C3598 C3599 1.397 . S
C3598 C3603 1.363 . S
C3599 H3570 0.950 . S
C3599 C3598 1.397 . S
C3599 C3600 1.334 . S
C3600 H3571 0.950 . S
C3600 C3599 1.334 . S
C3600 C3601 1.287 . S
C3601 C3600 1.287 . S
C3601 C3602 1.524 . S
C3601 H3604 0.999 . S
C3602 H3572 0.950 . S
C3602 C3601 1.524 . S
C3602 C3603 1.415 . S
C3603 H3573 0.950 . S
C3603 C3598 1.363 . S
C3603 C3602 1.415 . S
H3604 C3601 0.999 . S
H3605 C3586 0.913 . S
H3606 C3624 0.951 . S
H3607 C3626 0.951 . S
H3608 C3628 0.950 . S
H3609 C3629 0.950 . S
H3610 C3631 0.950 . S
H3611 C3634 0.950 . S
H3612 C3635 0.950 . S
H3613 C3637 0.950 . S
H3614 C3638 0.950 . S
H3615 C3639 0.951 . S
H3616 C3641 0.951 . S
H3617 C3643 0.950 . S
H3618 C3644 0.950 . S
H3619 C3646 0.950 . S
H3620 C3649 0.950 . S
H3621 C3650 0.950 . S
H3622 C3652 0.950 . S
H3623 C3653 0.950 . S
C3624 H3606 0.951 . S
C3624 C3625 1.366 . S
C3624 C3626 1.388 . S
C3625 C3624 1.366 . S
C3625 C3629 1.385 . S
C3626 H3607 0.951 . S
C3626 C3624 1.388 . S
C3626 C3627 1.366 . S
C3627 C3626 1.366 . S
C3627 C3628 1.414 . S
C3627 C3630 1.499 . S
C3628 H3608 0.950 . S
C3628 C3627 1.414 . S
C3628 C3629 1.374 . S
C3629 H3609 0.950 . S
C3629 C3625 1.385 . S
C3629 C3628 1.374 . S
C3630 C3627 1.499 . S
C3630 C3631 1.373 . S
C3630 C3632 1.389 . S
C3631 H3610 0.950 . S
C3631 C3630 1.373 . S
C3631 C3647 1.377 . S
C3632 C3630 1.389 . S
C3632 C3633 1.524 . S
C3632 C3646 1.377 . S
C3633 C3632 1.524 . S
C3633 C3634 1.397 . S
C3633 C3638 1.363 . S
C3634 H3611 0.950 . S
C3634 C3633 1.397 . S
C3634 C3635 1.334 . S
C3635 H3612 0.950 . S
C3635 C3634 1.334 . S
C3635 C3636 1.287 . S
C3636 C3635 1.287 . S
C3636 C3637 1.524 . S
C3636 H3655 0.913 . S
C3637 H3613 0.950 . S
C3637 C3636 1.524 . S
C3637 C3638 1.415 . S
C3638 H3614 0.950 . S
C3638 C3633 1.363 . S
C3638 C3637 1.415 . S
C3639 H3615 0.951 . S
C3639 C3640 1.366 . S
C3639 C3641 1.388 . S
C3640 C3639 1.366 . S
C3640 C3644 1.385 . S
C3641 H3616 0.951 . S
C3641 C3639 1.388 . S
C3641 C3642 1.366 . S
C3642 C3641 1.366 . S
C3642 C3643 1.414 . S
C3642 C3645 1.499 . S
C3643 H3617 0.950 . S
C3643 C3642 1.414 . S
C3643 C3644 1.374 . S
C3644 H3618 0.950 . S
C3644 C3640 1.385 . S
C3644 C3643 1.374 . S
C3645 C3642 1.499 . S
C3645 C3646 1.373 . S
C3645 C3647 1.389 . S
C3646 H3619 0.950 . S
C3646 C3632 1.377 . S
C3646 C3645 1.373 . S
C3647 C3631 1.377 . S
C3647 C3645 1.389 . S
C3647 C3648 1.524 . S
C3648 C3647 1.524 . S
C3648 C3649 1.397 . S
C3648 C3653 1.363 . S
C3649 H3620 0.950 . S
C3649 C3648 1.397 . S
C3649 C3650 1.334 . S
C3650 H3621 0.950 . S
C3650 C3649 1.334 . S
C3650 C3651 1.287 . S
C3651 C3650 1.287 . S
C3651 C3652 1.524 . S
C3651 H3654 0.999 . S
C3652 H3622 0.950 . S
C3652 C3651 1.524 . S
C3652 C3653 1.415 . S
C3653 H3623 0.950 . S
C3653 C3648 1.363 . S
C3653 C3652 1.415 . S
H3654 C3651 0.999 . S
H3655 C3636 0.913 . S
H3656 C3674 0.951 . S
H3657 C3676 0.951 . S
H3658 C3678 0.950 . S
H3659 C3679 0.950 . S
H3660 C3681 0.950 . S
H3661 C3684 0.950 . S
H3662 C3685 0.950 . S
H3663 C3687 0.950 . S
H3664 C3688 0.950 . S
H3665 C3689 0.951 . S
H3666 C3691 0.951 . S
H3667 C3693 0.950 . S
H3668 C3694 0.950 . S
H3669 C3696 0.950 . S
H3670 C3699 0.950 1_556 S
H3671 C3700 0.975 . S
H3672 C3702 0.950 . S
H3673 C3703 0.950 . S
C3674 H3656 0.951 . S
C3674 C3675 1.366 . S
C3674 C3676 1.388 . S
C3675 C3674 1.366 . S
C3675 C3679 1.385 . S
C3676 H3657 0.951 . S
C3676 C3674 1.388 . S
C3676 C3677 1.366 . S
C3677 C3676 1.366 . S
C3677 C3678 1.414 . S
C3677 C3680 1.499 . S
C3678 H3658 0.950 . S
C3678 C3677 1.414 . S
C3678 C3679 1.374 . S
C3679 H3659 0.950 . S
C3679 C3675 1.385 . S
C3679 C3678 1.374 . S
C3680 C3677 1.499 . S
C3680 C3681 1.373 . S
C3680 C3682 1.389 . S
C3681 H3660 0.950 . S
C3681 C3680 1.373 . S
C3681 C3697 1.377 . S
C3682 C3680 1.389 . S
C3682 C3683 1.524 . S
C3682 C3696 1.377 . S
C3683 C3682 1.524 . S
C3683 C3684 1.397 . S
C3683 C3688 1.363 . S
C3684 H3661 0.950 . S
C3684 C3683 1.397 . S
C3684 C3685 1.334 . S
C3685 H3662 0.950 . S
C3685 C3684 1.334 . S
C3685 C3686 1.287 . S
C3686 C3685 1.287 . S
C3686 C3687 1.524 . S
C3686 H3705 0.913 . S
C3687 H3663 0.950 . S
C3687 C3686 1.524 . S
C3687 C3688 1.415 . S
C3688 H3664 0.950 . S
C3688 C3683 1.363 . S
C3688 C3687 1.415 . S
C3689 H3665 0.951 . S
C3689 C3690 1.366 . S
C3689 C3691 1.388 . S
C3690 C3689 1.366 . S
C3690 C3694 1.385 . S
C3691 H3666 0.951 . S
C3691 C3689 1.388 . S
C3691 C3692 1.366 . S
C3692 C3691 1.366 . S
C3692 C3693 1.414 . S
C3692 C3695 1.499 . S
C3693 H3667 0.950 . S
C3693 C3692 1.414 . S
C3693 C3694 1.374 . S
C3694 H3668 0.950 . S
C3694 C3690 1.385 . S
C3694 C3693 1.374 . S
C3695 C3692 1.499 . S
C3695 C3696 1.373 . S
C3695 C3697 1.389 . S
C3696 H3669 0.950 . S
C3696 C3682 1.377 . S
C3696 C3695 1.373 . S
C3697 C3681 1.377 . S
C3697 C3695 1.389 . S
C3697 C3698 1.524 . S
C3698 C3697 1.524 . S
C3698 C3699 1.397 . S
C3698 C3703 1.363 . S
C3699 H3670 0.950 1_554 S
C3699 C3698 1.397 . S
C3699 C3700 1.321 1_554 S
C3700 H3671 0.975 . S
C3700 C3699 1.321 1_556 S
C3700 C3701 1.275 1_556 S
C3701 C3700 1.275 1_554 S
C3701 C3702 1.524 . S
C3701 H3704 0.999 . S
C3702 H3672 0.950 . S
C3702 C3701 1.524 . S
C3702 C3703 1.415 . S
C3703 H3673 0.950 . S
C3703 C3698 1.363 . S
C3703 C3702 1.415 . S
H3704 C3701 0.999 . S
H3705 C3686 0.913 . S
H3706 C3724 0.951 . S
H3707 C3726 0.951 . S
H3708 C3728 0.950 . S
H3709 C3729 0.950 . S
H3710 C3731 0.950 . S
H3711 C3734 0.950 . S
H3712 C3735 0.950 . S
H3713 C3737 0.950 . S
H3714 C3738 0.950 . S
H3715 C3739 0.951 . S
H3716 C3741 0.951 . S
H3717 C3743 0.950 . S
H3718 C3744 0.950 . S
H3719 C3746 0.950 . S
H3720 C3749 0.950 1_554 S
H3721 C3750 0.950 . S
H3722 C3752 0.950 . S
H3723 C3753 0.950 . S
C3724 H3706 0.951 . S
C3724 C3725 1.366 . S
C3724 C3726 1.388 . S
C3725 C3724 1.366 . S
C3725 C3729 1.385 . S
C3726 H3707 0.951 . S
C3726 C3724 1.388 . S
C3726 C3727 1.366 . S
C3727 C3726 1.366 . S
C3727 C3728 1.414 . S
C3727 C3730 1.499 . S
C3728 H3708 0.950 . S
C3728 C3727 1.414 . S
C3728 C3729 1.374 . S
C3729 H3709 0.950 . S
C3729 C3725 1.385 . S
C3729 C3728 1.374 . S
C3730 C3727 1.499 . S
C3730 C3731 1.373 . S
C3730 C3732 1.389 . S
C3731 H3710 0.950 . S
C3731 C3730 1.373 . S
C3731 C3747 1.377 . S
C3732 C3730 1.389 . S
C3732 C3733 1.524 . S
C3732 C3746 1.377 . S
C3733 C3732 1.524 . S
C3733 C3734 1.397 . S
C3733 C3738 1.363 . S
C3734 H3711 0.950 . S
C3734 C3733 1.397 . S
C3734 C3735 1.334 . S
C3735 H3712 0.950 . S
C3735 C3734 1.334 . S
C3735 C3736 1.287 . S
C3736 C3735 1.287 . S
C3736 C3737 1.524 . S
C3736 H3755 0.913 . S
C3737 H3713 0.950 . S
C3737 C3736 1.524 . S
C3737 C3738 1.415 . S
C3738 H3714 0.950 . S
C3738 C3733 1.363 . S
C3738 C3737 1.415 . S
C3739 H3715 0.951 . S
C3739 C3740 1.366 . S
C3739 C3741 1.388 . S
C3740 C3739 1.366 . S
C3740 C3744 1.385 . S
C3741 H3716 0.951 . S
C3741 C3739 1.388 . S
C3741 C3742 1.366 . S
C3742 C3741 1.366 . S
C3742 C3743 1.414 . S
C3742 C3745 1.499 . S
C3743 H3717 0.950 . S
C3743 C3742 1.414 . S
C3743 C3744 1.374 . S
C3744 H3718 0.950 . S
C3744 C3740 1.385 . S
C3744 C3743 1.374 . S
C3745 C3742 1.499 . S
C3745 C3746 1.373 . S
C3745 C3747 1.389 . S
C3746 H3719 0.950 . S
C3746 C3732 1.377 . S
C3746 C3745 1.373 . S
C3747 C3731 1.377 . S
C3747 C3745 1.389 . S
C3747 C3748 1.524 1_554 S
C3748 C3747 1.524 1_556 S
C3748 C3749 1.397 . S
C3748 C3753 1.363 . S
C3749 H3720 0.950 1_556 S
C3749 C3748 1.397 . S
C3749 C3750 1.334 . S
C3750 H3721 0.950 . S
C3750 C3749 1.334 . S
C3750 C3751 1.287 . S
C3751 C3750 1.287 . S
C3751 C3752 1.524 . S
C3751 H3754 0.999 . S
C3752 H3722 0.950 . S
C3752 C3751 1.524 . S
C3752 C3753 1.415 . S
C3753 H3723 0.950 . S
C3753 C3748 1.363 . S
C3753 C3752 1.415 . S
H3754 C3751 0.999 . S
H3755 C3736 0.913 . S
H3756 C3774 0.951 . S
H3757 C3776 0.951 . S
H3758 C3778 0.950 . S
H3759 C3779 0.950 . S
H3760 C3781 0.950 . S
H3761 C3784 0.950 . S
H3762 C3785 0.950 . S
H3763 C3787 0.950 . S
H3764 C3788 0.950 . S
H3765 C3789 0.951 . S
H3766 C3791 0.951 . S
H3767 C3793 0.950 . S
H3768 C3794 0.950 . S
H3769 C3796 0.950 . S
H3770 C3799 0.950 . S
H3771 C3800 0.950 . S
H3772 C3802 0.950 . S
H3773 C3803 0.950 . S
C3774 H3756 0.951 . S
C3774 C3775 1.366 . S
C3774 C3776 1.388 . S
C3775 C3774 1.366 . S
C3775 C3779 1.385 . S
C3776 H3757 0.951 . S
C3776 C3774 1.388 . S
C3776 C3777 1.366 . S
C3777 C3776 1.366 . S
C3777 C3778 1.414 . S
C3777 C3780 1.499 . S
C3778 H3758 0.950 . S
C3778 C3777 1.414 . S
C3778 C3779 1.374 . S
C3779 H3759 0.950 . S
C3779 C3775 1.385 . S
C3779 C3778 1.374 . S
C3780 C3777 1.499 . S
C3780 C3781 1.373 . S
C3780 C3782 1.389 . S
C3781 H3760 0.950 . S
C3781 C3780 1.373 . S
C3781 C3797 1.377 . S
C3782 C3780 1.389 . S
C3782 C3783 1.524 . S
C3782 C3796 1.377 . S
C3783 C3782 1.524 . S
C3783 C3784 1.397 . S
C3783 C3788 1.363 . S
C3784 H3761 0.950 . S
C3784 C3783 1.397 . S
C3784 C3785 1.334 . S
C3785 H3762 0.950 . S
C3785 C3784 1.334 . S
C3785 C3786 1.287 . S
C3786 C3785 1.287 . S
C3786 C3787 1.524 . S
C3786 H3805 0.913 . S
C3787 H3763 0.950 . S
C3787 C3786 1.524 . S
C3787 C3788 1.415 . S
C3788 H3764 0.950 . S
C3788 C3783 1.363 . S
C3788 C3787 1.415 . S
C3789 H3765 0.951 . S
C3789 C3790 1.366 . S
C3789 C3791 1.388 . S
C3790 C3789 1.366 . S
C3790 C3794 1.385 . S
C3791 H3766 0.951 . S
C3791 C3789 1.388 . S
C3791 C3792 1.366 . S
C3792 C3791 1.366 . S
C3792 C3793 1.414 . S
C3792 C3795 1.499 . S
C3793 H3767 0.950 . S
C3793 C3792 1.414 . S
C3793 C3794 1.374 . S
C3794 H3768 0.950 . S
C3794 C3790 1.385 . S
C3794 C3793 1.374 . S
C3795 C3792 1.499 . S
C3795 C3796 1.373 . S
C3795 C3797 1.389 . S
C3796 H3769 0.950 . S
C3796 C3782 1.377 . S
C3796 C3795 1.373 . S
C3797 C3781 1.377 . S
C3797 C3795 1.389 . S
C3797 C3798 1.524 . S
C3798 C3797 1.524 . S
C3798 C3799 1.397 . S
C3798 C3803 1.363 . S
C3799 H3770 0.950 . S
C3799 C3798 1.397 . S
C3799 C3800 1.334 . S
C3800 H3771 0.950 . S
C3800 C3799 1.334 . S
C3800 C3801 1.287 . S
C3801 C3800 1.287 . S
C3801 C3802 1.524 . S
C3801 H3804 0.999 . S
C3802 H3772 0.950 . S
C3802 C3801 1.524 . S
C3802 C3803 1.415 . S
C3803 H3773 0.950 . S
C3803 C3798 1.363 . S
C3803 C3802 1.415 . S
H3804 C3801 0.999 . S
H3805 C3786 0.913 . S
H3806 C3824 0.951 . S
H3807 C3826 0.951 . S
H3808 C3828 0.950 . S
H3809 C3829 0.950 . S
H3810 C3831 0.950 . S
H3811 C3834 0.950 . S
H3812 C3835 0.950 . S
H3813 C3837 0.950 . S
H3814 C3838 0.950 . S
H3815 C3839 0.951 . S
H3816 C3841 0.951 . S
H3817 C3843 0.950 . S
H3818 C3844 0.950 . S
H3819 C3846 0.950 . S
H3820 C3849 0.950 . S
H3821 C3850 0.950 . S
H3822 C3852 0.950 . S
H3823 C3853 0.950 . S
C3824 H3806 0.951 . S
C3824 C3825 1.366 . S
C3824 C3826 1.388 . S
C3825 C3824 1.366 . S
C3825 C3829 1.385 . S
C3826 H3807 0.951 . S
C3826 C3824 1.388 . S
C3826 C3827 1.366 . S
C3827 C3826 1.366 . S
C3827 C3828 1.414 . S
C3827 C3830 1.499 . S
C3828 H3808 0.950 . S
C3828 C3827 1.414 . S
C3828 C3829 1.374 . S
C3829 H3809 0.950 . S
C3829 C3825 1.385 . S
C3829 C3828 1.374 . S
C3830 C3827 1.499 . S
C3830 C3831 1.373 . S
C3830 C3832 1.389 . S
C3831 H3810 0.950 . S
C3831 C3830 1.373 . S
C3831 C3847 1.377 . S
C3832 C3830 1.389 . S
C3832 C3833 1.524 . S
C3832 C3846 1.377 . S
C3833 C3832 1.524 . S
C3833 C3834 1.397 . S
C3833 C3838 1.363 . S
C3834 H3811 0.950 . S
C3834 C3833 1.397 . S
C3834 C3835 1.334 . S
C3835 H3812 0.950 . S
C3835 C3834 1.334 . S
C3835 C3836 1.287 . S
C3836 C3835 1.287 . S
C3836 C3837 1.524 . S
C3836 H3855 0.913 . S
C3837 H3813 0.950 . S
C3837 C3836 1.524 . S
C3837 C3838 1.415 . S
C3838 H3814 0.950 . S
C3838 C3833 1.363 . S
C3838 C3837 1.415 . S
C3839 H3815 0.951 . S
C3839 C3840 1.366 . S
C3839 C3841 1.388 . S
C3840 C3839 1.366 . S
C3840 C3844 1.385 . S
C3841 H3816 0.951 . S
C3841 C3839 1.388 . S
C3841 C3842 1.366 . S
C3842 C3841 1.366 . S
C3842 C3843 1.414 . S
C3842 C3845 1.499 . S
C3843 H3817 0.950 . S
C3843 C3842 1.414 . S
C3843 C3844 1.374 . S
C3844 H3818 0.950 . S
C3844 C3840 1.385 . S
C3844 C3843 1.374 . S
C3845 C3842 1.499 . S
C3845 C3846 1.373 . S
C3845 C3847 1.389 . S
C3846 H3819 0.950 . S
C3846 C3832 1.377 . S
C3846 C3845 1.373 . S
C3847 C3831 1.377 . S
C3847 C3845 1.389 . S
C3847 C3848 1.524 . S
C3848 C3847 1.524 . S
C3848 C3849 1.397 . S
C3848 C3853 1.363 . S
C3849 H3820 0.950 . S
C3849 C3848 1.397 . S
C3849 C3850 1.334 . S
C3850 H3821 0.950 . S
C3850 C3849 1.334 . S
C3850 C3851 1.287 . S
C3851 C3850 1.287 . S
C3851 C3852 1.524 . S
C3851 H3854 0.999 . S
C3852 H3822 0.950 . S
C3852 C3851 1.524 . S
C3852 C3853 1.415 . S
C3853 H3823 0.950 . S
C3853 C3848 1.363 . S
C3853 C3852 1.415 . S
H3854 C3851 0.999 . S
H3855 C3836 0.913 . S
H3856 C3874 0.953 1_545 S
H3857 C3876 0.951 . S
H3858 C3878 0.950 . S
H3859 C3879 0.950 . S
H3860 C3881 0.950 . S
H3861 C3884 0.950 . S
H3862 C3885 0.950 . S
H3863 C3887 0.950 . S
H3864 C3888 0.950 . S
H3865 C3889 0.951 . S
H3866 C3891 0.951 . S
H3867 C3893 0.950 . S
H3868 C3894 0.950 . S
H3869 C3896 0.950 . S
H3870 C3899 0.950 . S
H3871 C3900 0.950 . S
H3872 C3902 0.950 . S
H3873 C3903 0.950 . S
C3874 H3856 0.953 1_565 S
C3874 C3875 1.375 . S
C3874 C3876 1.386 . S
C3875 C3874 1.375 . S
C3875 C3879 1.422 . S
C3876 H3857 0.951 . S
C3876 C3874 1.386 . S
C3876 C3877 1.366 . S
C3877 C3876 1.366 . S
C3877 C3878 1.414 . S
C3877 C3880 1.499 . S
C3878 H3858 0.950 . S
C3878 C3877 1.414 . S
C3878 C3879 1.374 . S
C3879 H3859 0.950 . S
C3879 C3875 1.422 . S
C3879 C3878 1.374 . S
C3880 C3877 1.499 . S
C3880 C3881 1.373 . S
C3880 C3882 1.389 . S
C3881 H3860 0.950 . S
C3881 C3880 1.373 . S
C3881 C3897 1.377 . S
C3882 C3880 1.389 . S
C3882 C3883 1.524 . S
C3882 C3896 1.377 . S
C3883 C3882 1.524 . S
C3883 C3884 1.397 . S
C3883 C3888 1.363 . S
C3884 H3861 0.950 . S
C3884 C3883 1.397 . S
C3884 C3885 1.334 . S
C3885 H3862 0.950 . S
C3885 C3884 1.334 . S
C3885 C3886 1.287 . S
C3886 C3885 1.287 . S
C3886 C3887 1.524 . S
C3886 H3905 0.913 . S
C3887 H3863 0.950 . S
C3887 C3886 1.524 . S
C3887 C3888 1.415 . S
C3888 H3864 0.950 . S
C3888 C3883 1.363 . S
C3888 C3887 1.415 . S
C3889 H3865 0.951 . S
C3889 C3890 1.366 . S
C3889 C3891 1.388 . S
C3890 C3889 1.366 . S
C3890 C3894 1.385 . S
C3891 H3866 0.951 . S
C3891 C3889 1.388 . S
C3891 C3892 1.366 . S
C3892 C3891 1.366 . S
C3892 C3893 1.414 . S
C3892 C3895 1.499 . S
C3893 H3867 0.950 . S
C3893 C3892 1.414 . S
C3893 C3894 1.374 . S
C3894 H3868 0.950 . S
C3894 C3890 1.385 . S
C3894 C3893 1.374 . S
C3895 C3892 1.499 . S
C3895 C3896 1.373 . S
C3895 C3897 1.389 . S
C3896 H3869 0.950 . S
C3896 C3882 1.377 . S
C3896 C3895 1.373 . S
C3897 C3881 1.377 . S
C3897 C3895 1.389 . S
C3897 C3898 1.524 . S
C3898 C3897 1.524 . S
C3898 C3899 1.397 . S
C3898 C3903 1.363 . S
C3899 H3870 0.950 . S
C3899 C3898 1.397 . S
C3899 C3900 1.334 . S
C3900 H3871 0.950 . S
C3900 C3899 1.334 . S
C3900 C3901 1.287 . S
C3901 C3900 1.287 . S
C3901 C3902 1.524 . S
C3901 H3904 0.999 . S
C3902 H3872 0.950 . S
C3902 C3901 1.524 . S
C3902 C3903 1.415 . S
C3903 H3873 0.950 . S
C3903 C3898 1.363 . S
C3903 C3902 1.415 . S
H3904 C3901 0.999 . S
H3905 C3886 0.913 . S
H3906 C3924 0.951 . S
H3907 C3926 0.951 . S
H3908 C3928 0.950 . S
H3909 C3929 0.950 . S
H3910 C3931 0.950 . S
H3911 C3934 0.950 . S
H3912 C3935 0.950 . S
H3913 C3937 0.950 . S
H3914 C3938 0.950 . S
H3915 C3939 0.951 . S
H3916 C3941 0.951 . S
H3917 C3943 0.950 . S
H3918 C3944 0.950 . S
H3919 C3946 0.950 . S
H3920 C3949 0.950 . S
H3921 C3950 0.950 . S
H3922 C3952 0.950 1_545 S
H3923 C3953 0.950 . S
C3924 H3906 0.951 . S
C3924 C3925 1.366 . S
C3924 C3926 1.388 . S
C3925 C3924 1.366 . S
C3925 C3929 1.385 . S
C3926 H3907 0.951 . S
C3926 C3924 1.388 . S
C3926 C3927 1.366 . S
C3927 C3926 1.366 . S
C3927 C3928 1.414 . S
C3927 C3930 1.499 . S
C3928 H3908 0.950 . S
C3928 C3927 1.414 . S
C3928 C3929 1.374 . S
C3929 H3909 0.950 . S
C3929 C3925 1.385 . S
C3929 C3928 1.374 . S
C3930 C3927 1.499 . S
C3930 C3931 1.373 . S
C3930 C3932 1.389 . S
C3931 H3910 0.950 . S
C3931 C3930 1.373 . S
C3931 C3947 1.377 . S
C3932 C3930 1.389 . S
C3932 C3933 1.524 . S
C3932 C3946 1.377 . S
C3933 C3932 1.524 . S
C3933 C3934 1.397 . S
C3933 C3938 1.363 . S
C3934 H3911 0.950 . S
C3934 C3933 1.397 . S
C3934 C3935 1.334 . S
C3935 H3912 0.950 . S
C3935 C3934 1.334 . S
C3935 C3936 1.287 . S
C3936 C3935 1.287 . S
C3936 C3937 1.524 . S
C3936 H3955 0.913 . S
C3937 H3913 0.950 . S
C3937 C3936 1.524 . S
C3937 C3938 1.415 . S
C3938 H3914 0.950 . S
C3938 C3933 1.363 . S
C3938 C3937 1.415 . S
C3939 H3915 0.951 . S
C3939 C3940 1.366 . S
C3939 C3941 1.388 . S
C3940 C3939 1.366 . S
C3940 C3944 1.385 . S
C3941 H3916 0.951 . S
C3941 C3939 1.388 . S
C3941 C3942 1.366 . S
C3942 C3941 1.366 . S
C3942 C3943 1.414 . S
C3942 C3945 1.499 . S
C3943 H3917 0.950 . S
C3943 C3942 1.414 . S
C3943 C3944 1.374 . S
C3944 H3918 0.950 . S
C3944 C3940 1.385 . S
C3944 C3943 1.374 . S
C3945 C3942 1.499 . S
C3945 C3946 1.373 . S
C3945 C3947 1.389 . S
C3946 H3919 0.950 . S
C3946 C3932 1.377 . S
C3946 C3945 1.373 . S
C3947 C3931 1.377 . S
C3947 C3945 1.389 . S
C3947 C3948 1.524 . S
C3948 C3947 1.524 . S
C3948 C3949 1.397 . S
C3948 C3953 1.363 . S
C3949 H3920 0.950 . S
C3949 C3948 1.397 . S
C3949 C3950 1.334 . S
C3950 H3921 0.950 . S
C3950 C3949 1.334 . S
C3950 C3951 1.287 . S
C3951 C3950 1.287 . S
C3951 C3952 1.524 . S
C3951 H3954 0.999 1_565 S
C3952 H3922 0.950 1_565 S
C3952 C3951 1.524 . S
C3952 C3953 1.415 . S
C3953 H3923 0.950 . S
C3953 C3948 1.363 . S
C3953 C3952 1.415 . S
H3954 C3951 0.999 1_545 S
H3955 C3936 0.913 . S
H3956 C3974 0.951 . S
H3957 C3976 0.951 . S
H3958 C3978 0.950 . S
H3959 C3979 0.950 . S
H3960 C3981 0.950 . S
H3961 C3984 0.950 . S
H3962 C3985 0.950 . S
H3963 C3987 0.950 . S
H3964 C3988 0.950 . S
H3965 C3989 0.951 . S
H3966 C3991 0.951 . S
H3967 C3993 0.950 . S
H3968 C3994 0.950 . S
H3969 C3996 0.950 . S
H3970 C3999 0.950 . S
H3971 C4000 0.950 . S
H3972 C4002 0.950 . S
H3973 C4003 0.950 . S
C3974 H3956 0.951 . S
C3974 C3975 1.366 . S
C3974 C3976 1.388 . S
C3975 C3974 1.366 . S
C3975 C3979 1.385 . S
C3976 H3957 0.951 . S
C3976 C3974 1.388 . S
C3976 C3977 1.366 . S
C3977 C3976 1.366 . S
C3977 C3978 1.414 . S
C3977 C3980 1.499 . S
C3978 H3958 0.950 . S
C3978 C3977 1.414 . S
C3978 C3979 1.374 . S
C3979 H3959 0.950 . S
C3979 C3975 1.385 . S
C3979 C3978 1.374 . S
C3980 C3977 1.499 . S
C3980 C3981 1.373 . S
C3980 C3982 1.389 . S
C3981 H3960 0.950 . S
C3981 C3980 1.373 . S
C3981 C3997 1.377 . S
C3982 C3980 1.389 . S
C3982 C3983 1.524 . S
C3982 C3996 1.377 . S
C3983 C3982 1.524 . S
C3983 C3984 1.397 . S
C3983 C3988 1.363 . S
C3984 H3961 0.950 . S
C3984 C3983 1.397 . S
C3984 C3985 1.334 . S
C3985 H3962 0.950 . S
C3985 C3984 1.334 . S
C3985 C3986 1.287 . S
C3986 C3985 1.287 . S
C3986 C3987 1.524 . S
C3986 H4005 0.913 . S
C3987 H3963 0.950 . S
C3987 C3986 1.524 . S
C3987 C3988 1.415 . S
C3988 H3964 0.950 . S
C3988 C3983 1.363 . S
C3988 C3987 1.415 . S
C3989 H3965 0.951 . S
C3989 C3990 1.366 . S
C3989 C3991 1.388 . S
C3990 C3989 1.366 . S
C3990 C3994 1.385 . S
C3991 H3966 0.951 . S
C3991 C3989 1.388 . S
C3991 C3992 1.366 . S
C3992 C3991 1.366 . S
C3992 C3993 1.414 . S
C3992 C3995 1.499 . S
C3993 H3967 0.950 . S
C3993 C3992 1.414 . S
C3993 C3994 1.374 . S
C3994 H3968 0.950 . S
C3994 C3990 1.385 . S
C3994 C3993 1.374 . S
C3995 C3992 1.499 . S
C3995 C3996 1.373 . S
C3995 C3997 1.389 . S
C3996 H3969 0.950 . S
C3996 C3982 1.377 . S
C3996 C3995 1.373 . S
C3997 C3981 1.377 . S
C3997 C3995 1.389 . S
C3997 C3998 1.524 . S
C3998 C3997 1.524 . S
C3998 C3999 1.397 . S
C3998 C4003 1.363 . S
C3999 H3970 0.950 . S
C3999 C3998 1.397 . S
C3999 C4000 1.334 . S
C4000 H3971 0.950 . S
C4000 C3999 1.334 . S
C4000 C4001 1.287 . S
C4001 C4000 1.287 . S
C4001 C4002 1.524 . S
C4001 H4004 0.999 . S
C4002 H3972 0.950 . S
C4002 C4001 1.524 . S
C4002 C4003 1.415 . S
C4003 H3973 0.950 . S
C4003 C3998 1.363 . S
C4003 C4002 1.415 . S
H4004 C4001 0.999 . S
H4005 C3986 0.913 . S
H4006 C4024 0.951 . S
H4007 C4026 0.951 . S
H4008 C4028 0.950 . S
H4009 C4029 0.950 . S
H4010 C4031 0.950 . S
H4011 C4034 0.950 . S
H4012 C4035 0.950 . S
H4013 C4037 0.950 . S
H4014 C4038 0.950 . S
H4015 C4039 0.951 . S
H4016 C4041 0.951 . S
H4017 C4043 0.950 . S
H4018 C4044 0.950 . S
H4019 C4046 0.950 . S
H4020 C4049 0.950 . S
H4021 C4050 0.950 . S
H4022 C4052 0.950 . S
H4023 C4053 0.950 . S
C4024 H4006 0.951 . S
C4024 C4025 1.366 . S
C4024 C4026 1.388 . S
C4025 C4024 1.366 . S
C4025 C4029 1.385 . S
C4026 H4007 0.951 . S
C4026 C4024 1.388 . S
C4026 C4027 1.366 . S
C4027 C4026 1.366 . S
C4027 C4028 1.414 . S
C4027 C4030 1.499 . S
C4028 H4008 0.950 . S
C4028 C4027 1.414 . S
C4028 C4029 1.374 . S
C4029 H4009 0.950 . S
C4029 C4025 1.385 . S
C4029 C4028 1.374 . S
C4030 C4027 1.499 . S
C4030 C4031 1.373 . S
C4030 C4032 1.389 . S
C4031 H4010 0.950 . S
C4031 C4030 1.373 . S
C4031 C4047 1.377 . S
C4032 C4030 1.389 . S
C4032 C4033 1.524 . S
C4032 C4046 1.377 . S
C4033 C4032 1.524 . S
C4033 C4034 1.397 . S
C4033 C4038 1.363 . S
C4034 H4011 0.950 . S
C4034 C4033 1.397 . S
C4034 C4035 1.334 . S
C4035 H4012 0.950 . S
C4035 C4034 1.334 . S
C4035 C4036 1.287 . S
C4036 C4035 1.287 . S
C4036 C4037 1.524 . S
C4036 H4055 0.913 . S
C4037 H4013 0.950 . S
C4037 C4036 1.524 . S
C4037 C4038 1.415 . S
C4038 H4014 0.950 . S
C4038 C4033 1.363 . S
C4038 C4037 1.415 . S
C4039 H4015 0.951 . S
C4039 C4040 1.366 . S
C4039 C4041 1.388 . S
C4040 C4039 1.366 . S
C4040 C4044 1.385 . S
C4041 H4016 0.951 . S
C4041 C4039 1.388 . S
C4041 C4042 1.366 . S
C4042 C4041 1.366 . S
C4042 C4043 1.414 . S
C4042 C4045 1.499 . S
C4043 H4017 0.950 . S
C4043 C4042 1.414 . S
C4043 C4044 1.374 . S
C4044 H4018 0.950 . S
C4044 C4040 1.385 . S
C4044 C4043 1.374 . S
C4045 C4042 1.499 . S
C4045 C4046 1.373 . S
C4045 C4047 1.389 . S
C4046 H4019 0.950 . S
C4046 C4032 1.377 . S
C4046 C4045 1.373 . S
C4047 C4031 1.377 . S
C4047 C4045 1.389 . S
C4047 C4048 1.524 . S
C4048 C4047 1.524 . S
C4048 C4049 1.397 . S
C4048 C4053 1.363 . S
C4049 H4020 0.950 . S
C4049 C4048 1.397 . S
C4049 C4050 1.334 . S
C4050 H4021 0.950 . S
C4050 C4049 1.334 . S
C4050 C4051 1.287 . S
C4051 C4050 1.287 . S
C4051 C4052 1.524 . S
C4051 H4054 0.999 . S
C4052 H4022 0.950 . S
C4052 C4051 1.524 . S
C4052 C4053 1.415 . S
C4053 H4023 0.950 . S
C4053 C4048 1.363 . S
C4053 C4052 1.415 . S
H4054 C4051 0.999 . S
H4055 C4036 0.913 . S
H4056 C4074 0.951 . S
H4057 C4076 0.951 . S
H4058 C4078 0.950 . S
H4059 C4079 0.950 . S
H4060 C4081 0.950 . S
H4061 C4084 0.950 . S
H4062 C4085 0.950 . S
H4063 C4087 0.950 . S
H4064 C4088 0.950 . S
H4065 C4089 0.951 . S
H4066 C4091 0.951 . S
H4067 C4093 0.950 . S
H4068 C4094 0.950 . S
H4069 C4096 0.950 . S
H4070 C4099 0.950 . S
H4071 C4100 0.950 . S
H4072 C4102 0.950 . S
H4073 C4103 0.950 . S
C4074 H4056 0.951 . S
C4074 C4075 1.366 . S
C4074 C4076 1.388 . S
C4075 C4074 1.366 . S
C4075 C4079 1.385 . S
C4076 H4057 0.951 . S
C4076 C4074 1.388 . S
C4076 C4077 1.366 . S
C4077 C4076 1.366 . S
C4077 C4078 1.414 . S
C4077 C4080 1.499 . S
C4078 H4058 0.950 . S
C4078 C4077 1.414 . S
C4078 C4079 1.374 . S
C4079 H4059 0.950 . S
C4079 C4075 1.385 . S
C4079 C4078 1.374 . S
C4080 C4077 1.499 . S
C4080 C4081 1.373 . S
C4080 C4082 1.389 . S
C4081 H4060 0.950 . S
C4081 C4080 1.373 . S
C4081 C4097 1.377 . S
C4082 C4080 1.389 . S
C4082 C4083 1.524 . S
C4082 C4096 1.377 . S
C4083 C4082 1.524 . S
C4083 C4084 1.397 . S
C4083 C4088 1.363 . S
C4084 H4061 0.950 . S
C4084 C4083 1.397 . S
C4084 C4085 1.334 . S
C4085 H4062 0.950 . S
C4085 C4084 1.334 . S
C4085 C4086 1.287 . S
C4086 C4085 1.287 . S
C4086 C4087 1.524 . S
C4086 H4105 0.913 . S
C4087 H4063 0.950 . S
C4087 C4086 1.524 . S
C4087 C4088 1.415 . S
C4088 H4064 0.950 . S
C4088 C4083 1.363 . S
C4088 C4087 1.415 . S
C4089 H4065 0.951 . S
C4089 C4090 1.366 . S
C4089 C4091 1.388 . S
C4090 C4089 1.366 . S
C4090 C4094 1.385 . S
C4091 H4066 0.951 . S
C4091 C4089 1.388 . S
C4091 C4092 1.366 . S
C4092 C4091 1.366 . S
C4092 C4093 1.414 . S
C4092 C4095 1.499 . S
C4093 H4067 0.950 . S
C4093 C4092 1.414 . S
C4093 C4094 1.374 . S
C4094 H4068 0.950 . S
C4094 C4090 1.385 . S
C4094 C4093 1.374 . S
C4095 C4092 1.499 . S
C4095 C4096 1.373 . S
C4095 C4097 1.389 . S
C4096 H4069 0.950 . S
C4096 C4082 1.377 . S
C4096 C4095 1.373 . S
C4097 C4081 1.377 . S
C4097 C4095 1.389 . S
C4097 C4098 1.524 . S
C4098 C4097 1.524 . S
C4098 C4099 1.397 . S
C4098 C4103 1.363 . S
C4099 H4070 0.950 . S
C4099 C4098 1.397 . S
C4099 C4100 1.334 . S
C4100 H4071 0.950 . S
C4100 C4099 1.334 . S
C4100 C4101 1.287 . S
C4101 C4100 1.287 . S
C4101 C4102 1.524 . S
C4101 H4104 0.999 . S
C4102 H4072 0.950 . S
C4102 C4101 1.524 . S
C4102 C4103 1.415 . S
C4103 H4073 0.950 . S
C4103 C4098 1.363 . S
C4103 C4102 1.415 . S
H4104 C4101 0.999 . S
H4105 C4086 0.913 . S
H4106 C4124 0.951 . S
H4107 C4126 0.951 . S
H4108 C4128 0.950 . S
H4109 C4129 0.950 . S
H4110 C4131 0.950 . S
H4111 C4134 0.950 . S
H4112 C4135 0.950 . S
H4113 C4137 0.950 . S
H4114 C4138 0.950 . S
H4115 C4139 0.951 . S
H4116 C4141 0.951 . S
H4117 C4143 0.950 . S
H4118 C4144 0.950 . S
H4119 C4146 0.950 . S
H4120 C4149 0.950 . S
H4121 C4150 0.950 . S
H4122 C4152 0.950 . S
H4123 C4153 0.950 . S
C4124 H4106 0.951 . S
C4124 C4125 1.366 . S
C4124 C4126 1.388 . S
C4125 C4124 1.366 . S
C4125 C4129 1.385 . S
C4126 H4107 0.951 . S
C4126 C4124 1.388 . S
C4126 C4127 1.366 . S
C4127 C4126 1.366 . S
C4127 C4128 1.414 . S
C4127 C4130 1.499 . S
C4128 H4108 0.950 . S
C4128 C4127 1.414 . S
C4128 C4129 1.374 . S
C4129 H4109 0.950 . S
C4129 C4125 1.385 . S
C4129 C4128 1.374 . S
C4130 C4127 1.499 . S
C4130 C4131 1.373 . S
C4130 C4132 1.389 . S
C4131 H4110 0.950 . S
C4131 C4130 1.373 . S
C4131 C4147 1.377 . S
C4132 C4130 1.389 . S
C4132 C4133 1.524 . S
C4132 C4146 1.377 . S
C4133 C4132 1.524 . S
C4133 C4134 1.397 . S
C4133 C4138 1.363 . S
C4134 H4111 0.950 . S
C4134 C4133 1.397 . S
C4134 C4135 1.334 . S
C4135 H4112 0.950 . S
C4135 C4134 1.334 . S
C4135 C4136 1.287 . S
C4136 C4135 1.287 . S
C4136 C4137 1.524 . S
C4136 H4155 0.913 . S
C4137 H4113 0.950 . S
C4137 C4136 1.524 . S
C4137 C4138 1.415 . S
C4138 H4114 0.950 . S
C4138 C4133 1.363 . S
C4138 C4137 1.415 . S
C4139 H4115 0.951 . S
C4139 C4140 1.366 . S
C4139 C4141 1.388 . S
C4140 C4139 1.366 . S
C4140 C4144 1.385 . S
C4141 H4116 0.951 . S
C4141 C4139 1.388 . S
C4141 C4142 1.366 . S
C4142 C4141 1.366 . S
C4142 C4143 1.414 . S
C4142 C4145 1.499 . S
C4143 H4117 0.950 . S
C4143 C4142 1.414 . S
C4143 C4144 1.374 . S
C4144 H4118 0.950 . S
C4144 C4140 1.385 . S
C4144 C4143 1.374 . S
C4145 C4142 1.499 . S
C4145 C4146 1.373 . S
C4145 C4147 1.389 . S
C4146 H4119 0.950 . S
C4146 C4132 1.377 . S
C4146 C4145 1.373 . S
C4147 C4131 1.377 . S
C4147 C4145 1.389 . S
C4147 C4148 1.524 . S
C4148 C4147 1.524 . S
C4148 C4149 1.397 . S
C4148 C4153 1.363 . S
C4149 H4120 0.950 . S
C4149 C4148 1.397 . S
C4149 C4150 1.334 . S
C4150 H4121 0.950 . S
C4150 C4149 1.334 . S
C4150 C4151 1.287 . S
C4151 C4150 1.287 . S
C4151 C4152 1.524 . S
C4151 H4154 0.999 . S
C4152 H4122 0.950 . S
C4152 C4151 1.524 . S
C4152 C4153 1.415 . S
C4153 H4123 0.950 . S
C4153 C4148 1.363 . S
C4153 C4152 1.415 . S
H4154 C4151 0.999 . S
H4155 C4136 0.913 . S
H4156 C4174 0.951 . S
H4157 C4176 0.951 . S
H4158 C4178 0.950 . S
H4159 C4179 0.950 . S
H4160 C4181 0.950 . S
H4161 C4184 0.950 . S
H4162 C4185 0.950 . S
H4163 C4187 0.950 . S
H4164 C4188 0.950 . S
H4165 C4189 0.951 1_556 S
H4166 C4191 0.951 . S
H4167 C4193 0.950 . S
H4168 C4194 0.950 . S
H4169 C4196 0.950 . S
H4170 C4199 0.950 . S
H4171 C4200 0.950 . S
H4172 C4202 0.950 . S
H4173 C4203 0.950 . S
C4174 H4156 0.951 . S
C4174 C4175 1.366 . S
C4174 C4176 1.388 . S
C4175 C4174 1.366 . S
C4175 C4179 1.385 . S
C4176 H4157 0.951 . S
C4176 C4174 1.388 . S
C4176 C4177 1.366 . S
C4177 C4176 1.366 . S
C4177 C4178 1.414 . S
C4177 C4180 1.499 . S
C4178 H4158 0.950 . S
C4178 C4177 1.414 . S
C4178 C4179 1.374 . S
C4179 H4159 0.950 . S
C4179 C4175 1.385 . S
C4179 C4178 1.374 . S
C4180 C4177 1.499 . S
C4180 C4181 1.373 . S
C4180 C4182 1.389 . S
C4181 H4160 0.950 . S
C4181 C4180 1.373 . S
C4181 C4197 1.377 . S
C4182 C4180 1.389 . S
C4182 C4183 1.524 1_455 S
C4182 C4196 1.377 1_556 S
C4183 C4182 1.524 1_655 S
C4183 C4184 1.397 . S
C4183 C4188 1.363 1_556 S
C4184 H4161 0.950 . S
C4184 C4183 1.397 . S
C4184 C4185 1.334 . S
C4185 H4162 0.950 . S
C4185 C4184 1.334 . S
C4185 C4186 1.287 . S
C4186 C4185 1.287 . S
C4186 C4187 1.524 1_556 S
C4186 H4205 0.913 . S
C4187 H4163 0.950 . S
C4187 C4186 1.524 1_554 S
C4187 C4188 1.415 . S
C4188 H4164 0.950 . S
C4188 C4183 1.363 1_554 S
C4188 C4187 1.415 . S
C4189 H4165 0.951 1_554 S
C4189 C4190 1.366 . S
C4189 C4191 1.388 1_554 S
C4190 C4189 1.366 . S
C4190 C4194 1.385 . S
C4191 H4166 0.951 . S
C4191 C4189 1.388 1_556 S
C4191 C4192 1.366 1_556 S
C4192 C4191 1.366 1_554 S
C4192 C4193 1.414 . S
C4192 C4195 1.505 . S
C4193 H4167 0.950 . S
C4193 C4192 1.414 . S
C4193 C4194 1.374 . S
C4194 H4168 0.950 . S
C4194 C4190 1.385 . S
C4194 C4193 1.374 . S
C4195 C4192 1.505 . S
C4195 C4196 1.381 . S
C4195 C4197 1.374 1_554 S
C4196 H4169 0.950 . S
C4196 C4182 1.377 1_554 S
C4196 C4195 1.381 . S
C4197 C4181 1.377 . S
C4197 C4195 1.374 1_556 S
C4197 C4198 1.524 . S
C4198 C4197 1.524 . S
C4198 C4199 1.397 1_556 S
C4198 C4203 1.363 . S
C4199 H4170 0.950 . S
C4199 C4198 1.397 1_554 S
C4199 C4200 1.334 . S
C4200 H4171 0.950 . S
C4200 C4199 1.334 . S
C4200 C4201 1.287 1_554 S
C4201 C4200 1.287 1_556 S
C4201 C4202 1.524 . S
C4201 H4204 0.999 . S
C4202 H4172 0.950 . S
C4202 C4201 1.524 . S
C4202 C4203 1.415 . S
C4203 H4173 0.950 . S
C4203 C4198 1.363 . S
C4203 C4202 1.415 . S
H4204 C4201 0.999 . S
H4205 C4186 0.913 . S
H4206 C4224 0.951 . S
H4207 C4226 0.951 . S
H4208 C4228 0.950 1_655 S
H4209 C4229 0.950 . S
H4210 C4231 0.950 . S
H4211 C4234 0.950 . S
H4212 C4235 0.950 . S
H4213 C4237 0.950 . S
H4214 C4238 0.911 1_655 S
H4215 C4239 0.951 . S
H4216 C4241 0.951 . S
H4217 C4243 0.950 . S
H4218 C4244 0.950 . S
H4219 C4246 0.950 . S
H4220 C4249 0.950 . S
H4221 C4250 0.950 . S
H4222 C4252 0.950 . S
H4223 C4253 0.950 . S
C4224 H4206 0.951 . S
C4224 C4225 1.366 . S
C4224 C4226 1.388 . S
C4225 C4224 1.366 . S
C4225 C4229 1.385 . S
C4226 H4207 0.951 . S
C4226 C4224 1.388 . S
C4226 C4227 1.366 1_455 S
C4227 C4226 1.366 1_655 S
C4227 C4228 1.414 1_655 S
C4227 C4230 1.499 . S
C4228 H4208 0.950 1_455 S
C4228 C4227 1.414 1_455 S
C4228 C4229 1.374 . S
C4229 H4209 0.950 . S
C4229 C4225 1.385 . S
C4229 C4228 1.374 . S
C4230 C4227 1.499 . S
C4230 C4231 1.373 . S
C4230 C4232 1.389 . S
C4231 H4210 0.950 . S
C4231 C4230 1.373 . S
C4231 C4247 1.377 . S
C4232 C4230 1.389 . S
C4232 C4233 1.524 1_655 S
C4232 C4246 1.377 . S
C4233 C4232 1.524 1_455 S
C4233 C4234 1.397 . S
C4233 C4238 1.372 . S
C4234 H4211 0.950 . S
C4234 C4233 1.397 . S
C4234 C4235 1.334 . S
C4235 H4212 0.950 . S
C4235 C4234 1.334 . S
C4235 C4236 1.287 . S
C4236 C4235 1.287 . S
C4236 C4237 1.524 . S
C4236 H4255 0.913 . S
C4237 H4213 0.950 . S
C4237 C4236 1.524 . S
C4237 C4238 1.446 . S
C4238 H4214 0.911 1_455 S
C4238 C4233 1.372 . S
C4238 C4237 1.446 . S
C4239 H4215 0.951 . S
C4239 C4240 1.366 . S
C4239 C4241 1.388 . S
C4240 C4239 1.366 . S
C4240 C4244 1.385 . S
C4241 H4216 0.951 . S
C4241 C4239 1.388 . S
C4241 C4242 1.366 . S
C4242 C4241 1.366 . S
C4242 C4243 1.414 . S
C4242 C4245 1.499 . S
C4243 H4217 0.950 . S
C4243 C4242 1.414 . S
C4243 C4244 1.374 . S
C4244 H4218 0.950 . S
C4244 C4240 1.385 . S
C4244 C4243 1.374 . S
C4245 C4242 1.499 . S
C4245 C4246 1.373 . S
C4245 C4247 1.389 . S
C4246 H4219 0.950 . S
C4246 C4232 1.377 . S
C4246 C4245 1.373 . S
C4247 C4231 1.377 . S
C4247 C4245 1.389 . S
C4247 C4248 1.524 . S
C4248 C4247 1.524 . S
C4248 C4249 1.397 . S
C4248 C4253 1.363 . S
C4249 H4220 0.950 . S
C4249 C4248 1.397 . S
C4249 C4250 1.334 . S
C4250 H4221 0.950 . S
C4250 C4249 1.334 . S
C4250 C4251 1.287 . S
C4251 C4250 1.287 . S
C4251 C4252 1.524 . S
C4251 H4254 0.999 . S
C4252 H4222 0.950 . S
C4252 C4251 1.524 . S
C4252 C4253 1.415 . S
C4253 H4223 0.950 . S
C4253 C4248 1.363 . S
C4253 C4252 1.415 . S
H4254 C4251 0.999 . S
H4255 C4236 0.913 . S
H4256 C4274 0.951 . S
H4257 C4276 0.951 . S
H4258 C4278 0.950 . S
H4259 C4279 0.950 . S
H4260 C4281 0.950 . S
H4261 C4284 0.950 . S
H4262 C4285 0.950 . S
H4263 C4287 0.950 . S
H4264 C4288 0.950 . S
H4265 C4289 0.951 . S
H4266 C4291 0.951 . S
H4267 C4293 0.950 . S
H4268 C4294 0.950 . S
H4269 C4296 0.950 . S
H4270 C4299 0.950 . S
H4271 C4300 0.950 . S
H4272 C4302 0.950 . S
H4273 C4303 0.950 . S
C4274 H4256 0.951 . S
C4274 C4275 1.366 . S
C4274 C4276 1.388 . S
C4275 C4274 1.366 . S
C4275 C4279 1.385 . S
C4276 H4257 0.951 . S
C4276 C4274 1.388 . S
C4276 C4277 1.366 . S
C4277 C4276 1.366 . S
C4277 C4278 1.414 . S
C4277 C4280 1.499 . S
C4278 H4258 0.950 . S
C4278 C4277 1.414 . S
C4278 C4279 1.374 . S
C4279 H4259 0.950 . S
C4279 C4275 1.385 . S
C4279 C4278 1.374 . S
C4280 C4277 1.499 . S
C4280 C4281 1.373 . S
C4280 C4282 1.389 . S
C4281 H4260 0.950 . S
C4281 C4280 1.373 . S
C4281 C4297 1.377 . S
C4282 C4280 1.389 . S
C4282 C4283 1.524 . S
C4282 C4296 1.377 . S
C4283 C4282 1.524 . S
C4283 C4284 1.397 . S
C4283 C4288 1.363 . S
C4284 H4261 0.950 . S
C4284 C4283 1.397 . S
C4284 C4285 1.334 . S
C4285 H4262 0.950 . S
C4285 C4284 1.334 . S
C4285 C4286 1.287 . S
C4286 C4285 1.287 . S
C4286 C4287 1.524 . S
C4286 H4305 0.913 . S
C4287 H4263 0.950 . S
C4287 C4286 1.524 . S
C4287 C4288 1.415 . S
C4288 H4264 0.950 . S
C4288 C4283 1.363 . S
C4288 C4287 1.415 . S
C4289 H4265 0.951 . S
C4289 C4290 1.366 . S
C4289 C4291 1.388 . S
C4290 C4289 1.366 . S
C4290 C4294 1.385 . S
C4291 H4266 0.951 . S
C4291 C4289 1.388 . S
C4291 C4292 1.366 . S
C4292 C4291 1.366 . S
C4292 C4293 1.414 . S
C4292 C4295 1.499 . S
C4293 H4267 0.950 . S
C4293 C4292 1.414 . S
C4293 C4294 1.374 . S
C4294 H4268 0.950 . S
C4294 C4290 1.385 . S
C4294 C4293 1.374 . S
C4295 C4292 1.499 . S
C4295 C4296 1.373 . S
C4295 C4297 1.389 . S
C4296 H4269 0.950 . S
C4296 C4282 1.377 . S
C4296 C4295 1.373 . S
C4297 C4281 1.377 . S
C4297 C4295 1.389 . S
C4297 C4298 1.524 . S
C4298 C4297 1.524 . S
C4298 C4299 1.397 . S
C4298 C4303 1.363 . S
C4299 H4270 0.950 . S
C4299 C4298 1.397 . S
C4299 C4300 1.334 . S
C4300 H4271 0.950 . S
C4300 C4299 1.334 . S
C4300 C4301 1.287 . S
C4301 C4300 1.287 . S
C4301 C4302 1.524 . S
C4301 H4304 0.999 1_554 S
C4302 H4272 0.950 . S
C4302 C4301 1.524 . S
C4302 C4303 1.415 . S
C4303 H4273 0.950 . S
C4303 C4298 1.363 . S
C4303 C4302 1.415 . S
H4304 C4301 0.999 1_556 S
H4305 C4286 0.913 . S
H4306 C4324 0.951 . S
H4307 C4326 0.951 . S
H4308 C4328 0.950 . S
H4309 C4329 0.950 . S
H4310 C4331 0.950 1_455 S
H4311 C4334 0.950 . S
H4312 C4335 0.935 1_455 S
H4313 C4337 0.950 . S
H4314 C4338 0.950 . S
H4315 C4339 0.951 . S
H4316 C4341 0.951 . S
H4317 C4343 0.950 . S
H4318 C4344 0.950 . S
H4319 C4346 0.950 . S
H4320 C4349 0.950 . S
H4321 C4350 0.950 . S
H4322 C4352 0.950 . S
H4323 C4353 0.950 . S
C4324 H4306 0.951 . S
C4324 C4325 1.366 . S
C4324 C4326 1.388 . S
C4325 C4324 1.366 . S
C4325 C4329 1.385 . S
C4326 H4307 0.951 . S
C4326 C4324 1.388 . S
C4326 C4327 1.366 . S
C4327 C4326 1.366 . S
C4327 C4328 1.414 . S
C4327 C4330 1.559 . S
C4328 H4308 0.950 . S
C4328 C4327 1.414 . S
C4328 C4329 1.374 . S
C4329 H4309 0.950 . S
C4329 C4325 1.385 . S
C4329 C4328 1.374 . S
C4330 C4327 1.559 . S
C4330 C4331 1.367 1_455 S
C4330 C4332 1.338 1_455 S
C4331 H4310 0.950 1_655 S
C4331 C4330 1.367 1_655 S
C4331 C4347 1.377 . S
C4332 C4330 1.338 1_655 S
C4332 C4333 1.524 . S
C4332 C4346 1.377 . S
C4333 C4332 1.524 . S
C4333 C4334 1.397 . S
C4333 C4338 1.363 . S
C4334 H4311 0.950 . S
C4334 C4333 1.397 . S
C4334 C4335 1.334 . S
C4335 H4312 0.935 1_655 S
C4335 C4334 1.334 . S
C4335 C4336 1.287 . S
C4336 C4335 1.287 . S
C4336 C4337 1.524 . S
C4336 H4355 0.913 . S
C4337 H4313 0.950 . S
C4337 C4336 1.524 . S
C4337 C4338 1.415 . S
C4338 H4314 0.950 . S
C4338 C4333 1.363 . S
C4338 C4337 1.415 . S
C4339 H4315 0.951 . S
C4339 C4340 1.366 . S
C4339 C4341 1.388 . S
C4340 C4339 1.366 . S
C4340 C4344 1.385 . S
C4341 H4316 0.951 . S
C4341 C4339 1.388 . S
C4341 C4342 1.366 . S
C4342 C4341 1.366 . S
C4342 C4343 1.414 . S
C4342 C4345 1.499 . S
C4343 H4317 0.950 . S
C4343 C4342 1.414 . S
C4343 C4344 1.374 . S
C4344 H4318 0.950 . S
C4344 C4340 1.385 . S
C4344 C4343 1.374 . S
C4345 C4342 1.499 . S
C4345 C4346 1.373 . S
C4345 C4347 1.389 . S
C4346 H4319 0.950 . S
C4346 C4332 1.377 . S
C4346 C4345 1.373 . S
C4347 C4331 1.377 . S
C4347 C4345 1.389 . S
C4347 C4348 1.524 . S
C4348 C4347 1.524 . S
C4348 C4349 1.397 . S
C4348 C4353 1.363 . S
C4349 H4320 0.950 . S
C4349 C4348 1.397 . S
C4349 C4350 1.334 . S
C4350 H4321 0.950 . S
C4350 C4349 1.334 . S
C4350 C4351 1.287 . S
C4351 C4350 1.287 . S
C4351 C4352 1.524 . S
C4351 H4354 0.999 . S
C4352 H4322 0.950 . S
C4352 C4351 1.524 . S
C4352 C4353 1.415 . S
C4353 H4323 0.950 . S
C4353 C4348 1.363 . S
C4353 C4352 1.415 . S
H4354 C4351 0.999 . S
H4355 C4336 0.913 . S
H4356 C4374 0.951 . S
H4357 C4376 0.951 . S
H4358 C4378 0.950 . S
H4359 C4379 0.950 . S
H4360 C4381 0.950 1_655 S
H4361 C4384 0.950 . S
H4362 C4385 0.950 . S
H4363 C4387 0.954 . S
H4364 C4388 0.950 1_655 S
H4365 C4389 0.951 . S
H4366 C4391 0.951 . S
H4367 C4393 0.950 1_655 S
H4368 C4394 0.950 . S
H4369 C4396 0.950 . S
H4370 C4399 0.950 . S
H4371 C4400 0.950 . S
H4372 C4402 0.950 . S
H4373 C4403 0.950 . S
C4374 H4356 0.951 . S
C4374 C4375 1.366 . S
C4374 C4376 1.388 . S
C4375 C4374 1.366 . S
C4375 C4379 1.385 1_655 S
C4376 H4357 0.951 . S
C4376 C4374 1.388 . S
C4376 C4377 1.366 . S
C4377 C4376 1.366 . S
C4377 C4378 1.414 1_655 S
C4377 C4380 1.499 1_655 S
C4378 H4358 0.950 . S
C4378 C4377 1.414 1_455 S
C4378 C4379 1.374 . S
C4379 H4359 0.950 . S
C4379 C4375 1.385 1_455 S
C4379 C4378 1.374 . S
C4380 C4377 1.499 1_455 S
C4380 C4381 1.373 . S
C4380 C4382 1.389 . S
C4381 H4360 0.950 1_455 S
C4381 C4380 1.373 . S
C4381 C4397 1.377 . S
C4382 C4380 1.389 . S
C4382 C4383 1.524 . S
C4382 C4396 1.377 . S
C4383 C4382 1.524 . S
C4383 C4384 1.397 . S
C4383 C4388 1.363 . S
C4384 H4361 0.950 . S
C4384 C4383 1.397 . S
C4384 C4385 1.334 . S
C4385 H4362 0.950 . S
C4385 C4384 1.334 . S
C4385 C4386 1.287 . S
C4386 C4385 1.287 . S
C4386 C4387 1.524 . S
C4386 H4405 0.913 . S
C4387 H4363 0.954 . S
C4387 C4386 1.524 . S
C4387 C4388 1.415 . S
C4388 H4364 0.950 1_455 S
C4388 C4383 1.363 . S
C4388 C4387 1.415 . S
C4389 H4365 0.951 . S
C4389 C4390 1.366 . S
C4389 C4391 1.388 . S
C4390 C4389 1.366 . S
C4390 C4394 1.385 . S
C4391 H4366 0.951 . S
C4391 C4389 1.388 . S
C4391 C4392 1.366 . S
C4392 C4391 1.366 . S
C4392 C4393 1.414 . S
C4392 C4395 1.499 . S
C4393 H4367 0.950 1_455 S
C4393 C4392 1.414 . S
C4393 C4394 1.374 . S
C4394 H4368 0.950 . S
C4394 C4390 1.385 . S
C4394 C4393 1.374 . S
C4395 C4392 1.499 . S
C4395 C4396 1.373 . S
C4395 C4397 1.389 . S
C4396 H4369 0.950 . S
C4396 C4382 1.377 . S
C4396 C4395 1.373 . S
C4397 C4381 1.377 . S
C4397 C4395 1.389 . S
C4397 C4398 1.524 . S
C4398 C4397 1.524 . S
C4398 C4399 1.398 1_455 S
C4398 C4403 1.362 . S
C4399 H4370 0.950 . S
C4399 C4398 1.398 1_655 S
C4399 C4400 1.334 . S
C4400 H4371 0.950 . S
C4400 C4399 1.334 . S
C4400 C4401 1.287 . S
C4401 C4400 1.287 . S
C4401 C4402 1.524 1_655 S
C4401 H4404 0.999 . S
C4402 H4372 0.950 . S
C4402 C4401 1.524 1_455 S
C4402 C4403 1.415 . S
C4403 H4373 0.950 . S
C4403 C4398 1.362 . S
C4403 C4402 1.415 . S
H4404 C4401 0.999 . S
H4405 C4386 0.913 . S
H4406 C4424 0.951 . S
H4407 C4426 0.951 . S
H4408 C4428 0.950 . S
H4409 C4429 0.950 . S
H4410 C4431 0.950 . S
H4411 C4434 0.950 . S
H4412 C4435 0.950 . S
H4413 C4437 0.950 . S
H4414 C4438 0.950 . S
H4415 C4439 0.951 . S
H4416 C4441 0.951 . S
H4417 C4443 0.950 . S
H4418 C4444 0.950 . S
H4419 C4446 0.950 . S
H4420 C4449 0.950 . S
H4421 C4450 0.950 . S
H4422 C4452 0.950 . S
H4423 C4453 0.950 . S
C4424 H4406 0.951 . S
C4424 C4425 1.366 . S
C4424 C4426 1.388 . S
C4425 C4424 1.366 . S
C4425 C4429 1.385 . S
C4426 H4407 0.951 . S
C4426 C4424 1.388 . S
C4426 C4427 1.366 . S
C4427 C4426 1.366 . S
C4427 C4428 1.414 . S
C4427 C4430 1.499 . S
C4428 H4408 0.950 . S
C4428 C4427 1.414 . S
C4428 C4429 1.374 . S
C4429 H4409 0.950 . S
C4429 C4425 1.385 . S
C4429 C4428 1.374 . S
C4430 C4427 1.499 . S
C4430 C4431 1.373 . S
C4430 C4432 1.389 . S
C4431 H4410 0.950 . S
C4431 C4430 1.373 . S
C4431 C4447 1.377 . S
C4432 C4430 1.389 . S
C4432 C4433 1.524 . S
C4432 C4446 1.377 . S
C4433 C4432 1.524 . S
C4433 C4434 1.397 . S
C4433 C4438 1.363 . S
C4434 H4411 0.950 . S
C4434 C4433 1.397 . S
C4434 C4435 1.334 . S
C4435 H4412 0.950 . S
C4435 C4434 1.334 . S
C4435 C4436 1.287 . S
C4436 C4435 1.287 . S
C4436 C4437 1.524 . S
C4436 H4455 0.913 . S
C4437 H4413 0.950 . S
C4437 C4436 1.524 . S
C4437 C4438 1.415 . S
C4438 H4414 0.950 . S
C4438 C4433 1.363 . S
C4438 C4437 1.415 . S
C4439 H4415 0.951 . S
C4439 C4440 1.366 . S
C4439 C4441 1.388 . S
C4440 C4439 1.366 . S
C4440 C4444 1.385 . S
C4441 H4416 0.951 . S
C4441 C4439 1.388 . S
C4441 C4442 1.366 . S
C4442 C4441 1.366 . S
C4442 C4443 1.414 . S
C4442 C4445 1.499 . S
C4443 H4417 0.950 . S
C4443 C4442 1.414 . S
C4443 C4444 1.374 . S
C4444 H4418 0.950 . S
C4444 C4440 1.385 . S
C4444 C4443 1.374 . S
C4445 C4442 1.499 . S
C4445 C4446 1.373 . S
C4445 C4447 1.389 . S
C4446 H4419 0.950 . S
C4446 C4432 1.377 . S
C4446 C4445 1.373 . S
C4447 C4431 1.377 . S
C4447 C4445 1.389 . S
C4447 C4448 1.524 . S
C4448 C4447 1.524 . S
C4448 C4449 1.397 . S
C4448 C4453 1.363 . S
C4449 H4420 0.950 . S
C4449 C4448 1.397 . S
C4449 C4450 1.334 . S
C4450 H4421 0.950 . S
C4450 C4449 1.334 . S
C4450 C4451 1.287 . S
C4451 C4450 1.287 . S
C4451 C4452 1.524 . S
C4451 H4454 0.999 . S
C4452 H4422 0.950 . S
C4452 C4451 1.524 . S
C4452 C4453 1.415 . S
C4453 H4423 0.950 . S
C4453 C4448 1.363 . S
C4453 C4452 1.415 . S
H4454 C4451 0.999 . S
H4455 C4436 0.913 . S
H4456 C4474 0.951 . S
H4457 C4476 0.951 . S
H4458 C4478 0.950 . S
H4459 C4479 0.950 . S
H4460 C4481 0.950 . S
H4461 C4484 0.950 . S
H4462 C4485 0.950 . S
H4463 C4487 0.950 . S
H4464 C4488 0.950 . S
H4465 C4489 0.951 . S
H4466 C4491 0.951 . S
H4467 C4493 0.950 . S
H4468 C4494 0.950 . S
H4469 C4496 0.950 . S
H4470 C4499 0.950 . S
H4471 C4500 0.950 . S
H4472 C4502 0.950 . S
H4473 C4503 0.950 . S
C4474 H4456 0.951 . S
C4474 C4475 1.366 . S
C4474 C4476 1.388 . S
C4475 C4474 1.366 . S
C4475 C4479 1.385 . S
C4476 H4457 0.951 . S
C4476 C4474 1.388 . S
C4476 C4477 1.366 . S
C4477 C4476 1.366 . S
C4477 C4478 1.414 . S
C4477 C4480 1.499 . S
C4478 H4458 0.950 . S
C4478 C4477 1.414 . S
C4478 C4479 1.374 . S
C4479 H4459 0.950 . S
C4479 C4475 1.385 . S
C4479 C4478 1.374 . S
C4480 C4477 1.499 . S
C4480 C4481 1.373 . S
C4480 C4482 1.389 . S
C4481 H4460 0.950 . S
C4481 C4480 1.373 . S
C4481 C4497 1.377 . S
C4482 C4480 1.389 . S
C4482 C4483 1.524 . S
C4482 C4496 1.377 . S
C4483 C4482 1.524 . S
C4483 C4484 1.397 . S
C4483 C4488 1.363 . S
C4484 H4461 0.950 . S
C4484 C4483 1.397 . S
C4484 C4485 1.334 . S
C4485 H4462 0.950 . S
C4485 C4484 1.334 . S
C4485 C4486 1.287 . S
C4486 C4485 1.287 . S
C4486 C4487 1.524 . S
C4486 H4505 0.913 . S
C4487 H4463 0.950 . S
C4487 C4486 1.524 . S
C4487 C4488 1.415 . S
C4488 H4464 0.950 . S
C4488 C4483 1.363 . S
C4488 C4487 1.415 . S
C4489 H4465 0.951 . S
C4489 C4490 1.366 . S
C4489 C4491 1.388 . S
C4490 C4489 1.366 . S
C4490 C4494 1.385 . S
C4491 H4466 0.951 . S
C4491 C4489 1.388 . S
C4491 C4492 1.366 . S
C4492 C4491 1.366 . S
C4492 C4493 1.414 . S
C4492 C4495 1.499 . S
C4493 H4467 0.950 . S
C4493 C4492 1.414 . S
C4493 C4494 1.374 . S
C4494 H4468 0.950 . S
C4494 C4490 1.385 . S
C4494 C4493 1.374 . S
C4495 C4492 1.499 . S
C4495 C4496 1.373 . S
C4495 C4497 1.389 . S
C4496 H4469 0.950 . S
C4496 C4482 1.377 . S
C4496 C4495 1.373 . S
C4497 C4481 1.377 . S
C4497 C4495 1.389 . S
C4497 C4498 1.524 . S
C4498 C4497 1.524 . S
C4498 C4499 1.397 . S
C4498 C4503 1.363 . S
C4499 H4470 0.950 . S
C4499 C4498 1.397 . S
C4499 C4500 1.334 . S
C4500 H4471 0.950 . S
C4500 C4499 1.334 . S
C4500 C4501 1.287 . S
C4501 C4500 1.287 . S
C4501 C4502 1.524 . S
C4501 H4504 0.999 . S
C4502 H4472 0.950 . S
C4502 C4501 1.524 . S
C4502 C4503 1.415 . S
C4503 H4473 0.950 . S
C4503 C4498 1.363 . S
C4503 C4502 1.415 . S
H4504 C4501 0.999 . S
H4505 C4486 0.913 . S
H4506 C4524 0.951 . S
H4507 C4526 0.951 . S
H4508 C4528 0.950 . S
H4509 C4529 0.950 . S
H4510 C4531 0.950 . S
H4511 C4534 0.950 . S
H4512 C4535 0.950 . S
H4513 C4537 0.950 . S
H4514 C4538 0.950 . S
H4515 C4539 0.951 . S
H4516 C4541 0.951 . S
H4517 C4543 0.950 . S
H4518 C4544 0.950 . S
H4519 C4546 0.950 . S
H4520 C4549 0.950 . S
H4521 C4550 0.950 . S
H4522 C4552 0.950 . S
H4523 C4553 0.950 . S
C4524 H4506 0.951 . S
C4524 C4525 1.366 . S
C4524 C4526 1.388 . S
C4525 C4524 1.366 . S
C4525 C4529 1.385 . S
C4526 H4507 0.951 . S
C4526 C4524 1.388 . S
C4526 C4527 1.366 . S
C4527 C4526 1.366 . S
C4527 C4528 1.414 . S
C4527 C4530 1.499 . S
C4528 H4508 0.950 . S
C4528 C4527 1.414 . S
C4528 C4529 1.374 . S
C4529 H4509 0.950 . S
C4529 C4525 1.385 . S
C4529 C4528 1.374 . S
C4530 C4527 1.499 . S
C4530 C4531 1.373 . S
C4530 C4532 1.389 . S
C4531 H4510 0.950 . S
C4531 C4530 1.373 . S
C4531 C4547 1.377 . S
C4532 C4530 1.389 . S
C4532 C4533 1.524 . S
C4532 C4546 1.377 . S
C4533 C4532 1.524 . S
C4533 C4534 1.397 . S
C4533 C4538 1.363 . S
C4534 H4511 0.950 . S
C4534 C4533 1.397 . S
C4534 C4535 1.334 . S
C4535 H4512 0.950 . S
C4535 C4534 1.334 . S
C4535 C4536 1.287 . S
C4536 C4535 1.287 . S
C4536 C4537 1.524 . S
C4536 H4555 0.913 . S
C4537 H4513 0.950 . S
C4537 C4536 1.524 . S
C4537 C4538 1.415 . S
C4538 H4514 0.950 . S
C4538 C4533 1.363 . S
C4538 C4537 1.415 . S
C4539 H4515 0.951 . S
C4539 C4540 1.366 . S
C4539 C4541 1.388 . S
C4540 C4539 1.366 . S
C4540 C4544 1.385 . S
C4541 H4516 0.951 . S
C4541 C4539 1.388 . S
C4541 C4542 1.366 . S
C4542 C4541 1.366 . S
C4542 C4543 1.414 . S
C4542 C4545 1.499 . S
C4543 H4517 0.950 . S
C4543 C4542 1.414 . S
C4543 C4544 1.374 . S
C4544 H4518 0.950 . S
C4544 C4540 1.385 . S
C4544 C4543 1.374 . S
C4545 C4542 1.499 . S
C4545 C4546 1.373 . S
C4545 C4547 1.389 . S
C4546 H4519 0.950 . S
C4546 C4532 1.377 . S
C4546 C4545 1.373 . S
C4547 C4531 1.377 . S
C4547 C4545 1.389 . S
C4547 C4548 1.524 . S
C4548 C4547 1.524 . S
C4548 C4549 1.397 . S
C4548 C4553 1.363 . S
C4549 H4520 0.950 . S
C4549 C4548 1.397 . S
C4549 C4550 1.334 . S
C4550 H4521 0.950 . S
C4550 C4549 1.334 . S
C4550 C4551 1.287 . S
C4551 C4550 1.287 . S
C4551 C4552 1.524 . S
C4551 H4554 0.999 . S
C4552 H4522 0.950 . S
C4552 C4551 1.524 . S
C4552 C4553 1.415 . S
C4553 H4523 0.950 . S
C4553 C4548 1.363 . S
C4553 C4552 1.415 . S
H4554 C4551 0.999 . S
H4555 C4536 0.913 . S
H4556 C4574 0.951 . S
H4557 C4576 0.951 . S
H4558 C4578 0.950 . S
H4559 C4579 0.950 . S
H4560 C4581 0.950 . S
H4561 C4584 0.950 . S
H4562 C4585 0.950 . S
H4563 C4587 0.950 . S
H4564 C4588 0.950 . S
H4565 C4589 0.951 . S
H4566 C4591 0.951 . S
H4567 C4593 0.950 . S
H4568 C4594 0.950 . S
H4569 C4596 0.950 . S
H4570 C4599 0.950 . S
H4571 C4600 0.950 . S
H4572 C4602 0.950 . S
H4573 C4603 0.950 . S
C4574 H4556 0.951 . S
C4574 C4575 1.366 . S
C4574 C4576 1.388 . S
C4575 C4574 1.366 . S
C4575 C4579 1.385 . S
C4576 H4557 0.951 . S
C4576 C4574 1.388 . S
C4576 C4577 1.366 . S
C4577 C4576 1.366 . S
C4577 C4578 1.414 . S
C4577 C4580 1.499 . S
C4578 H4558 0.950 . S
C4578 C4577 1.414 . S
C4578 C4579 1.374 . S
C4579 H4559 0.950 . S
C4579 C4575 1.385 . S
C4579 C4578 1.374 . S
C4580 C4577 1.499 . S
C4580 C4581 1.373 . S
C4580 C4582 1.389 . S
C4581 H4560 0.950 . S
C4581 C4580 1.373 . S
C4581 C4597 1.377 . S
C4582 C4580 1.389 . S
C4582 C4583 1.524 . S
C4582 C4596 1.377 . S
C4583 C4582 1.524 . S
C4583 C4584 1.397 . S
C4583 C4588 1.363 . S
C4584 H4561 0.950 . S
C4584 C4583 1.397 . S
C4584 C4585 1.334 . S
C4585 H4562 0.950 . S
C4585 C4584 1.334 . S
C4585 C4586 1.287 . S
C4586 C4585 1.287 . S
C4586 C4587 1.524 . S
C4586 H4605 0.913 . S
C4587 H4563 0.950 . S
C4587 C4586 1.524 . S
C4587 C4588 1.415 . S
C4588 H4564 0.950 . S
C4588 C4583 1.363 . S
C4588 C4587 1.415 . S
C4589 H4565 0.951 . S
C4589 C4590 1.366 . S
C4589 C4591 1.388 . S
C4590 C4589 1.366 . S
C4590 C4594 1.385 . S
C4591 H4566 0.951 . S
C4591 C4589 1.388 . S
C4591 C4592 1.366 . S
C4592 C4591 1.366 . S
C4592 C4593 1.414 . S
C4592 C4595 1.499 . S
C4593 H4567 0.950 . S
C4593 C4592 1.414 . S
C4593 C4594 1.374 . S
C4594 H4568 0.950 . S
C4594 C4590 1.385 . S
C4594 C4593 1.374 . S
C4595 C4592 1.499 . S
C4595 C4596 1.373 . S
C4595 C4597 1.389 . S
C4596 H4569 0.950 . S
C4596 C4582 1.377 . S
C4596 C4595 1.373 . S
C4597 C4581 1.377 . S
C4597 C4595 1.389 . S
C4597 C4598 1.524 . S
C4598 C4597 1.524 . S
C4598 C4599 1.397 . S
C4598 C4603 1.363 . S
C4599 H4570 0.950 . S
C4599 C4598 1.397 . S
C4599 C4600 1.334 . S
C4600 H4571 0.950 . S
C4600 C4599 1.334 . S
C4600 C4601 1.287 . S
C4601 C4600 1.287 . S
C4601 C4602 1.524 . S
C4601 H4604 0.999 . S
C4602 H4572 0.950 . S
C4602 C4601 1.524 . S
C4602 C4603 1.415 . S
C4603 H4573 0.950 . S
C4603 C4598 1.363 . S
C4603 C4602 1.415 . S
H4604 C4601 0.999 . S
H4605 C4586 0.913 . S
H4606 C4624 0.951 . S
H4607 C4626 0.951 . S
H4608 C4628 0.950 . S
H4609 C4629 0.950 . S
H4610 C4631 0.950 . S
H4611 C4634 0.950 . S
H4612 C4635 0.950 . S
H4613 C4637 0.950 . S
H4614 C4638 0.950 . S
H4615 C4639 0.951 . S
H4616 C4641 0.951 . S
H4617 C4643 0.950 . S
H4618 C4644 0.950 . S
H4619 C4646 0.950 . S
H4620 C4649 0.950 . S
H4621 C4650 0.950 . S
H4622 C4652 0.950 . S
H4623 C4653 0.950 . S
C4624 H4606 0.951 . S
C4624 C4625 1.366 . S
C4624 C4626 1.388 . S
C4625 C4624 1.366 . S
C4625 C4629 1.385 . S
C4626 H4607 0.951 . S
C4626 C4624 1.388 . S
C4626 C4627 1.366 . S
C4627 C4626 1.366 . S
C4627 C4628 1.414 . S
C4627 C4630 1.499 . S
C4628 H4608 0.950 . S
C4628 C4627 1.414 . S
C4628 C4629 1.374 . S
C4629 H4609 0.950 . S
C4629 C4625 1.385 . S
C4629 C4628 1.374 . S
C4630 C4627 1.499 . S
C4630 C4631 1.373 . S
C4630 C4632 1.389 . S
C4631 H4610 0.950 . S
C4631 C4630 1.373 . S
C4631 C4647 1.377 . S
C4632 C4630 1.389 . S
C4632 C4633 1.524 . S
C4632 C4646 1.377 . S
C4633 C4632 1.524 . S
C4633 C4634 1.397 . S
C4633 C4638 1.363 . S
C4634 H4611 0.950 . S
C4634 C4633 1.397 . S
C4634 C4635 1.334 . S
C4635 H4612 0.950 . S
C4635 C4634 1.334 . S
C4635 C4636 1.287 . S
C4636 C4635 1.287 . S
C4636 C4637 1.524 . S
C4636 H4655 0.913 . S
C4637 H4613 0.950 . S
C4637 C4636 1.524 . S
C4637 C4638 1.415 . S
C4638 H4614 0.950 . S
C4638 C4633 1.363 . S
C4638 C4637 1.415 . S
C4639 H4615 0.951 . S
C4639 C4640 1.366 . S
C4639 C4641 1.388 . S
C4640 C4639 1.366 . S
C4640 C4644 1.385 . S
C4641 H4616 0.951 . S
C4641 C4639 1.388 . S
C4641 C4642 1.366 . S
C4642 C4641 1.366 . S
C4642 C4643 1.414 . S
C4642 C4645 1.499 . S
C4643 H4617 0.950 . S
C4643 C4642 1.414 . S
C4643 C4644 1.374 . S
C4644 H4618 0.950 . S
C4644 C4640 1.385 . S
C4644 C4643 1.374 . S
C4645 C4642 1.499 . S
C4645 C4646 1.373 . S
C4645 C4647 1.389 . S
C4646 H4619 0.950 . S
C4646 C4632 1.377 . S
C4646 C4645 1.373 . S
C4647 C4631 1.377 . S
C4647 C4645 1.389 . S
C4647 C4648 1.524 . S
C4648 C4647 1.524 . S
C4648 C4649 1.397 . S
C4648 C4653 1.363 . S
C4649 H4620 0.950 . S
C4649 C4648 1.397 . S
C4649 C4650 1.334 . S
C4650 H4621 0.950 . S
C4650 C4649 1.334 . S
C4650 C4651 1.287 . S
C4651 C4650 1.287 . S
C4651 C4652 1.524 . S
C4651 H4654 0.999 . S
C4652 H4622 0.950 . S
C4652 C4651 1.524 . S
C4652 C4653 1.415 . S
C4653 H4623 0.950 . S
C4653 C4648 1.363 . S
C4653 C4652 1.415 . S
H4654 C4651 0.999 . S
H4655 C4636 0.913 . S
H4656 C4674 0.951 . S
H4657 C4676 0.951 . S
H4658 C4678 0.950 . S
H4659 C4679 0.950 . S
H4660 C4681 0.950 . S
H4661 C4684 0.950 . S
H4662 C4685 0.950 . S
H4663 C4687 0.950 . S
H4664 C4688 0.950 . S
H4665 C4689 0.951 . S
H4666 C4691 0.951 . S
H4667 C4693 0.950 . S
H4668 C4694 0.950 . S
H4669 C4696 0.950 . S
H4670 C4699 0.950 . S
H4671 C4700 0.950 . S
H4672 C4702 0.950 . S
H4673 C4703 0.950 . S
C4674 H4656 0.951 . S
C4674 C4675 1.366 . S
C4674 C4676 1.388 . S
C4675 C4674 1.366 . S
C4675 C4679 1.385 . S
C4676 H4657 0.951 . S
C4676 C4674 1.388 . S
C4676 C4677 1.366 . S
C4677 C4676 1.366 . S
C4677 C4678 1.414 . S
C4677 C4680 1.499 . S
C4678 H4658 0.950 . S
C4678 C4677 1.414 . S
C4678 C4679 1.374 . S
C4679 H4659 0.950 . S
C4679 C4675 1.385 . S
C4679 C4678 1.374 . S
C4680 C4677 1.499 . S
C4680 C4681 1.373 . S
C4680 C4682 1.389 . S
C4681 H4660 0.950 . S
C4681 C4680 1.373 . S
C4681 C4697 1.377 . S
C4682 C4680 1.389 . S
C4682 C4683 1.524 . S
C4682 C4696 1.377 . S
C4683 C4682 1.524 . S
C4683 C4684 1.397 . S
C4683 C4688 1.363 . S
C4684 H4661 0.950 . S
C4684 C4683 1.397 . S
C4684 C4685 1.334 . S
C4685 H4662 0.950 . S
C4685 C4684 1.334 . S
C4685 C4686 1.287 . S
C4686 C4685 1.287 . S
C4686 C4687 1.524 . S
C4686 H4705 0.913 . S
C4687 H4663 0.950 . S
C4687 C4686 1.524 . S
C4687 C4688 1.415 . S
C4688 H4664 0.950 . S
C4688 C4683 1.363 . S
C4688 C4687 1.415 . S
C4689 H4665 0.951 . S
C4689 C4690 1.366 . S
C4689 C4691 1.388 . S
C4690 C4689 1.366 . S
C4690 C4694 1.385 . S
C4691 H4666 0.951 . S
C4691 C4689 1.388 . S
C4691 C4692 1.366 . S
C4692 C4691 1.366 . S
C4692 C4693 1.414 . S
C4692 C4695 1.499 . S
C4693 H4667 0.950 . S
C4693 C4692 1.414 . S
C4693 C4694 1.374 . S
C4694 H4668 0.950 . S
C4694 C4690 1.385 . S
C4694 C4693 1.374 . S
C4695 C4692 1.499 . S
C4695 C4696 1.373 . S
C4695 C4697 1.389 . S
C4696 H4669 0.950 . S
C4696 C4682 1.377 . S
C4696 C4695 1.373 . S
C4697 C4681 1.377 . S
C4697 C4695 1.389 . S
C4697 C4698 1.524 . S
C4698 C4697 1.524 . S
C4698 C4699 1.397 . S
C4698 C4703 1.363 . S
C4699 H4670 0.950 . S
C4699 C4698 1.397 . S
C4699 C4700 1.334 . S
C4700 H4671 0.950 . S
C4700 C4699 1.334 . S
C4700 C4701 1.287 . S
C4701 C4700 1.287 . S
C4701 C4702 1.524 . S
C4701 H4704 0.999 . S
C4702 H4672 0.950 . S
C4702 C4701 1.524 . S
C4702 C4703 1.415 . S
C4703 H4673 0.950 . S
C4703 C4698 1.363 . S
C4703 C4702 1.415 . S
H4704 C4701 0.999 . S
H4705 C4686 0.913 . S
H4706 C4724 0.951 . S
H4707 C4726 0.951 . S
H4708 C4728 0.950 . S
H4709 C4729 0.950 . S
H4710 C4731 0.950 . S
H4711 C4734 0.950 . S
H4712 C4735 0.950 . S
H4713 C4737 0.950 . S
H4714 C4738 0.950 . S
H4715 C4739 0.951 . S
H4716 C4741 0.951 . S
H4717 C4743 0.950 . S
H4718 C4744 0.950 . S
H4719 C4746 0.950 . S
H4720 C4749 0.950 . S
H4721 C4750 0.950 . S
H4722 C4752 0.950 . S
H4723 C4753 0.950 . S
C4724 H4706 0.951 . S
C4724 C4725 1.366 . S
C4724 C4726 1.388 . S
C4725 C4724 1.366 . S
C4725 C4729 1.385 . S
C4726 H4707 0.951 . S
C4726 C4724 1.388 . S
C4726 C4727 1.366 . S
C4727 C4726 1.366 . S
C4727 C4728 1.414 . S
C4727 C4730 1.499 . S
C4728 H4708 0.950 . S
C4728 C4727 1.414 . S
C4728 C4729 1.374 . S
C4729 H4709 0.950 . S
C4729 C4725 1.385 . S
C4729 C4728 1.374 . S
C4730 C4727 1.499 . S
C4730 C4731 1.373 . S
C4730 C4732 1.389 . S
C4731 H4710 0.950 . S
C4731 C4730 1.373 . S
C4731 C4747 1.377 . S
C4732 C4730 1.389 . S
C4732 C4733 1.524 . S
C4732 C4746 1.377 . S
C4733 C4732 1.524 . S
C4733 C4734 1.397 . S
C4733 C4738 1.363 . S
C4734 H4711 0.950 . S
C4734 C4733 1.397 . S
C4734 C4735 1.334 . S
C4735 H4712 0.950 . S
C4735 C4734 1.334 . S
C4735 C4736 1.287 . S
C4736 C4735 1.287 . S
C4736 C4737 1.524 . S
C4736 H4755 0.913 . S
C4737 H4713 0.950 . S
C4737 C4736 1.524 . S
C4737 C4738 1.415 . S
C4738 H4714 0.950 . S
C4738 C4733 1.363 . S
C4738 C4737 1.415 . S
C4739 H4715 0.951 . S
C4739 C4740 1.366 . S
C4739 C4741 1.388 . S
C4740 C4739 1.366 . S
C4740 C4744 1.385 . S
C4741 H4716 0.951 . S
C4741 C4739 1.388 . S
C4741 C4742 1.366 . S
C4742 C4741 1.366 . S
C4742 C4743 1.414 . S
C4742 C4745 1.499 . S
C4743 H4717 0.950 . S
C4743 C4742 1.414 . S
C4743 C4744 1.374 . S
C4744 H4718 0.950 . S
C4744 C4740 1.385 . S
C4744 C4743 1.374 . S
C4745 C4742 1.499 . S
C4745 C4746 1.373 . S
C4745 C4747 1.389 . S
C4746 H4719 0.950 . S
C4746 C4732 1.377 . S
C4746 C4745 1.373 . S
C4747 C4731 1.377 . S
C4747 C4745 1.389 . S
C4747 C4748 1.524 . S
C4748 C4747 1.524 . S
C4748 C4749 1.397 . S
C4748 C4753 1.363 . S
C4749 H4720 0.950 . S
C4749 C4748 1.397 . S
C4749 C4750 1.334 . S
C4750 H4721 0.950 . S
C4750 C4749 1.334 . S
C4750 C4751 1.287 . S
C4751 C4750 1.287 . S
C4751 C4752 1.524 . S
C4751 H4754 0.999 . S
C4752 H4722 0.950 . S
C4752 C4751 1.524 . S
C4752 C4753 1.415 . S
C4753 H4723 0.950 . S
C4753 C4748 1.363 . S
C4753 C4752 1.415 . S
H4754 C4751 0.999 . S
H4755 C4736 0.913 . S
H4756 C4774 0.951 . S
H4757 C4776 0.951 . S
H4758 C4778 0.950 . S
H4759 C4779 0.950 . S
H4760 C4781 0.950 . S
H4761 C4784 0.950 . S
H4762 C4785 0.950 . S
H4763 C4787 0.950 . S
H4764 C4788 0.950 . S
H4765 C4789 0.951 . S
H4766 C4791 0.951 . S
H4767 C4793 0.950 . S
H4768 C4794 0.950 . S
H4769 C4796 0.950 . S
H4770 C4799 0.950 . S
H4771 C4800 0.950 . S
H4772 C4802 0.950 . S
H4773 C4803 0.950 . S
C4774 H4756 0.951 . S
C4774 C4775 1.366 . S
C4774 C4776 1.388 . S
C4775 C4774 1.366 . S
C4775 C4779 1.385 . S
C4776 H4757 0.951 . S
C4776 C4774 1.388 . S
C4776 C4777 1.366 . S
C4777 C4776 1.366 . S
C4777 C4778 1.414 . S
C4777 C4780 1.499 . S
C4778 H4758 0.950 . S
C4778 C4777 1.414 . S
C4778 C4779 1.374 . S
C4779 H4759 0.950 . S
C4779 C4775 1.385 . S
C4779 C4778 1.374 . S
C4780 C4777 1.499 . S
C4780 C4781 1.373 . S
C4780 C4782 1.389 . S
C4781 H4760 0.950 . S
C4781 C4780 1.373 . S
C4781 C4797 1.377 . S
C4782 C4780 1.389 . S
C4782 C4783 1.524 . S
C4782 C4796 1.377 . S
C4783 C4782 1.524 . S
C4783 C4784 1.397 . S
C4783 C4788 1.363 . S
C4784 H4761 0.950 . S
C4784 C4783 1.397 . S
C4784 C4785 1.334 . S
C4785 H4762 0.950 . S
C4785 C4784 1.334 . S
C4785 C4786 1.287 . S
C4786 C4785 1.287 . S
C4786 C4787 1.524 . S
C4786 H4805 0.913 . S
C4787 H4763 0.950 . S
C4787 C4786 1.524 . S
C4787 C4788 1.415 . S
C4788 H4764 0.950 . S
C4788 C4783 1.363 . S
C4788 C4787 1.415 . S
C4789 H4765 0.951 . S
C4789 C4790 1.366 . S
C4789 C4791 1.388 . S
C4790 C4789 1.366 . S
C4790 C4794 1.385 . S
C4791 H4766 0.951 . S
C4791 C4789 1.388 . S
C4791 C4792 1.366 . S
C4792 C4791 1.366 . S
C4792 C4793 1.414 . S
C4792 C4795 1.499 . S
C4793 H4767 0.950 . S
C4793 C4792 1.414 . S
C4793 C4794 1.374 . S
C4794 H4768 0.950 . S
C4794 C4790 1.385 . S
C4794 C4793 1.374 . S
C4795 C4792 1.499 . S
C4795 C4796 1.373 . S
C4795 C4797 1.389 . S
C4796 H4769 0.950 . S
C4796 C4782 1.377 . S
C4796 C4795 1.373 . S
C4797 C4781 1.377 . S
C4797 C4795 1.389 . S
C4797 C4798 1.524 . S
C4798 C4797 1.524 . S
C4798 C4799 1.397 . S
C4798 C4803 1.363 . S
C4799 H4770 0.950 . S
C4799 C4798 1.397 . S
C4799 C4800 1.334 . S
C4800 H4771 0.950 . S
C4800 C4799 1.334 . S
C4800 C4801 1.287 . S
C4801 C4800 1.287 . S
C4801 C4802 1.524 . S
C4801 H4804 0.999 . S
C4802 H4772 0.950 . S
C4802 C4801 1.524 . S
C4802 C4803 1.415 . S
C4803 H4773 0.950 . S
C4803 C4798 1.363 . S
C4803 C4802 1.415 . S
H4804 C4801 0.999 . S
H4805 C4786 0.913 . S
H4806 C4824 0.951 . S
H4807 C4826 0.951 . S
H4808 C4828 0.950 . S
H4809 C4829 0.950 . S
H4810 C4831 0.950 . S
H4811 C4834 0.950 . S
H4812 C4835 0.950 . S
H4813 C4837 0.950 . S
H4814 C4838 0.950 . S
H4815 C4839 0.951 . S
H4816 C4841 0.951 . S
H4817 C4843 0.950 . S
H4818 C4844 0.950 . S
H4819 C4846 0.950 . S
H4820 C4849 0.950 . S
H4821 C4850 0.950 . S
H4822 C4852 0.950 . S
H4823 C4853 0.950 . S
C4824 H4806 0.951 . S
C4824 C4825 1.366 . S
C4824 C4826 1.388 . S
C4825 C4824 1.366 . S
C4825 C4829 1.385 . S
C4826 H4807 0.951 . S
C4826 C4824 1.388 . S
C4826 C4827 1.366 . S
C4827 C4826 1.366 . S
C4827 C4828 1.414 . S
C4827 C4830 1.499 . S
C4828 H4808 0.950 . S
C4828 C4827 1.414 . S
C4828 C4829 1.374 . S
C4829 H4809 0.950 . S
C4829 C4825 1.385 . S
C4829 C4828 1.374 . S
C4830 C4827 1.499 . S
C4830 C4831 1.373 . S
C4830 C4832 1.389 . S
C4831 H4810 0.950 . S
C4831 C4830 1.373 . S
C4831 C4847 1.377 . S
C4832 C4830 1.389 . S
C4832 C4833 1.524 . S
C4832 C4846 1.377 . S
C4833 C4832 1.524 . S
C4833 C4834 1.397 . S
C4833 C4838 1.363 . S
C4834 H4811 0.950 . S
C4834 C4833 1.397 . S
C4834 C4835 1.334 . S
C4835 H4812 0.950 . S
C4835 C4834 1.334 . S
C4835 C4836 1.287 . S
C4836 C4835 1.287 . S
C4836 C4837 1.524 . S
C4836 H4855 0.913 . S
C4837 H4813 0.950 . S
C4837 C4836 1.524 . S
C4837 C4838 1.415 . S
C4838 H4814 0.950 . S
C4838 C4833 1.363 . S
C4838 C4837 1.415 . S
C4839 H4815 0.951 . S
C4839 C4840 1.366 . S
C4839 C4841 1.388 . S
C4840 C4839 1.366 . S
C4840 C4844 1.385 . S
C4841 H4816 0.951 . S
C4841 C4839 1.388 . S
C4841 C4842 1.366 . S
C4842 C4841 1.366 . S
C4842 C4843 1.414 . S
C4842 C4845 1.499 . S
C4843 H4817 0.950 . S
C4843 C4842 1.414 . S
C4843 C4844 1.374 . S
C4844 H4818 0.950 . S
C4844 C4840 1.385 . S
C4844 C4843 1.374 . S
C4845 C4842 1.499 . S
C4845 C4846 1.373 . S
C4845 C4847 1.389 . S
C4846 H4819 0.950 . S
C4846 C4832 1.377 . S
C4846 C4845 1.373 . S
C4847 C4831 1.377 . S
C4847 C4845 1.389 . S
C4847 C4848 1.524 . S
C4848 C4847 1.524 . S
C4848 C4849 1.397 . S
C4848 C4853 1.363 . S
C4849 H4820 0.950 . S
C4849 C4848 1.397 . S
C4849 C4850 1.334 . S
C4850 H4821 0.950 . S
C4850 C4849 1.334 . S
C4850 C4851 1.287 . S
C4851 C4850 1.287 . S
C4851 C4852 1.524 . S
C4851 H4854 0.999 . S
C4852 H4822 0.950 . S
C4852 C4851 1.524 . S
C4852 C4853 1.415 . S
C4853 H4823 0.950 . S
C4853 C4848 1.363 . S
C4853 C4852 1.415 . S
H4854 C4851 0.999 . S
H4855 C4836 0.913 . S
H4856 C4874 0.951 . S
H4857 C4876 0.951 . S
H4858 C4878 0.950 . S
H4859 C4879 0.950 . S
H4860 C4881 0.950 . S
H4861 C4884 0.950 . S
H4862 C4885 0.950 . S
H4863 C4887 0.950 . S
H4864 C4888 0.950 . S
H4865 C4889 0.951 . S
H4866 C4891 0.951 . S
H4867 C4893 0.950 . S
H4868 C4894 0.950 . S
H4869 C4896 0.950 . S
H4870 C4899 0.950 . S
H4871 C4900 0.950 . S
H4872 C4902 0.950 . S
H4873 C4903 0.950 . S
C4874 H4856 0.951 . S
C4874 C4875 1.366 . S
C4874 C4876 1.388 . S
C4875 C4874 1.366 . S
C4875 C4879 1.385 . S
C4876 H4857 0.951 . S
C4876 C4874 1.388 . S
C4876 C4877 1.366 . S
C4877 C4876 1.366 . S
C4877 C4878 1.414 . S
C4877 C4880 1.499 . S
C4878 H4858 0.950 . S
C4878 C4877 1.414 . S
C4878 C4879 1.374 . S
C4879 H4859 0.950 . S
C4879 C4875 1.385 . S
C4879 C4878 1.374 . S
C4880 C4877 1.499 . S
C4880 C4881 1.373 . S
C4880 C4882 1.389 . S
C4881 H4860 0.950 . S
C4881 C4880 1.373 . S
C4881 C4897 1.377 . S
C4882 C4880 1.389 . S
C4882 C4883 1.524 . S
C4882 C4896 1.377 . S
C4883 C4882 1.524 . S
C4883 C4884 1.397 . S
C4883 C4888 1.363 . S
C4884 H4861 0.950 . S
C4884 C4883 1.397 . S
C4884 C4885 1.334 . S
C4885 H4862 0.950 . S
C4885 C4884 1.334 . S
C4885 C4886 1.287 . S
C4886 C4885 1.287 . S
C4886 C4887 1.524 . S
C4886 H4905 0.913 . S
C4887 H4863 0.950 . S
C4887 C4886 1.524 . S
C4887 C4888 1.415 . S
C4888 H4864 0.950 . S
C4888 C4883 1.363 . S
C4888 C4887 1.415 . S
C4889 H4865 0.951 . S
C4889 C4890 1.366 . S
C4889 C4891 1.388 . S
C4890 C4889 1.366 . S
C4890 C4894 1.385 . S
C4891 H4866 0.951 . S
C4891 C4889 1.388 . S
C4891 C4892 1.366 . S
C4892 C4891 1.366 . S
C4892 C4893 1.414 . S
C4892 C4895 1.499 . S
C4893 H4867 0.950 . S
C4893 C4892 1.414 . S
C4893 C4894 1.374 . S
C4894 H4868 0.950 . S
C4894 C4890 1.385 . S
C4894 C4893 1.374 . S
C4895 C4892 1.499 . S
C4895 C4896 1.373 . S
C4895 C4897 1.389 . S
C4896 H4869 0.950 . S
C4896 C4882 1.377 . S
C4896 C4895 1.373 . S
C4897 C4881 1.377 . S
C4897 C4895 1.389 . S
C4897 C4898 1.524 . S
C4898 C4897 1.524 . S
C4898 C4899 1.397 . S
C4898 C4903 1.363 . S
C4899 H4870 0.950 . S
C4899 C4898 1.397 . S
C4899 C4900 1.334 . S
C4900 H4871 0.950 . S
C4900 C4899 1.334 . S
C4900 C4901 1.287 . S
C4901 C4900 1.287 . S
C4901 C4902 1.524 . S
C4901 H4904 0.999 . S
C4902 H4872 0.950 . S
C4902 C4901 1.524 . S
C4902 C4903 1.415 . S
C4903 H4873 0.950 . S
C4903 C4898 1.363 . S
C4903 C4902 1.415 . S
H4904 C4901 0.999 . S
H4905 C4886 0.913 . S
H4906 C4924 0.951 . S
H4907 C4926 0.951 . S
H4908 C4928 0.950 . S
H4909 C4929 0.950 . S
H4910 C4931 0.950 . S
H4911 C4934 0.950 . S
H4912 C4935 0.950 . S
H4913 C4937 0.950 . S
H4914 C4938 0.950 . S
H4915 C4939 0.951 . S
H4916 C4941 0.951 . S
H4917 C4943 0.950 . S
H4918 C4944 0.950 . S
H4919 C4946 0.950 . S
H4920 C4949 0.950 . S
H4921 C4950 0.950 . S
H4922 C4952 0.950 . S
H4923 C4953 0.950 . S
C4924 H4906 0.951 . S
C4924 C4925 1.366 . S
C4924 C4926 1.388 . S
C4925 C4924 1.366 . S
C4925 C4929 1.385 . S
C4926 H4907 0.951 . S
C4926 C4924 1.388 . S
C4926 C4927 1.366 . S
C4927 C4926 1.366 . S
C4927 C4928 1.414 . S
C4927 C4930 1.499 . S
C4928 H4908 0.950 . S
C4928 C4927 1.414 . S
C4928 C4929 1.374 . S
C4929 H4909 0.950 . S
C4929 C4925 1.385 . S
C4929 C4928 1.374 . S
C4930 C4927 1.499 . S
C4930 C4931 1.373 . S
C4930 C4932 1.389 . S
C4931 H4910 0.950 . S
C4931 C4930 1.373 . S
C4931 C4947 1.377 . S
C4932 C4930 1.389 . S
C4932 C4933 1.524 . S
C4932 C4946 1.377 . S
C4933 C4932 1.524 . S
C4933 C4934 1.397 . S
C4933 C4938 1.363 . S
C4934 H4911 0.950 . S
C4934 C4933 1.397 . S
C4934 C4935 1.334 . S
C4935 H4912 0.950 . S
C4935 C4934 1.334 . S
C4935 C4936 1.287 . S
C4936 C4935 1.287 . S
C4936 C4937 1.524 . S
C4936 H4955 0.913 . S
C4937 H4913 0.950 . S
C4937 C4936 1.524 . S
C4937 C4938 1.415 . S
C4938 H4914 0.950 . S
C4938 C4933 1.363 . S
C4938 C4937 1.415 . S
C4939 H4915 0.951 . S
C4939 C4940 1.366 . S
C4939 C4941 1.388 . S
C4940 C4939 1.366 . S
C4940 C4944 1.385 . S
C4941 H4916 0.951 . S
C4941 C4939 1.388 . S
C4941 C4942 1.366 . S
C4942 C4941 1.366 . S
C4942 C4943 1.414 . S
C4942 C4945 1.499 . S
C4943 H4917 0.950 . S
C4943 C4942 1.414 . S
C4943 C4944 1.374 . S
C4944 H4918 0.950 . S
C4944 C4940 1.385 . S
C4944 C4943 1.374 . S
C4945 C4942 1.499 . S
C4945 C4946 1.373 . S
C4945 C4947 1.389 . S
C4946 H4919 0.950 . S
C4946 C4932 1.377 . S
C4946 C4945 1.373 . S
C4947 C4931 1.377 . S
C4947 C4945 1.389 . S
C4947 C4948 1.524 . S
C4948 C4947 1.524 . S
C4948 C4949 1.397 . S
C4948 C4953 1.363 . S
C4949 H4920 0.950 . S
C4949 C4948 1.397 . S
C4949 C4950 1.334 . S
C4950 H4921 0.950 . S
C4950 C4949 1.334 . S
C4950 C4951 1.287 . S
C4951 C4950 1.287 . S
C4951 C4952 1.524 . S
C4951 H4954 0.999 . S
C4952 H4922 0.950 . S
C4952 C4951 1.524 . S
C4952 C4953 1.415 . S
C4953 H4923 0.950 . S
C4953 C4948 1.363 . S
C4953 C4952 1.415 . S
H4954 C4951 0.999 . S
H4955 C4936 0.913 . S
H4956 C4974 0.951 . S
H4957 C4976 0.951 . S
H4958 C4978 0.950 . S
H4959 C4979 0.950 . S
H4960 C4981 0.950 . S
H4961 C4984 0.950 . S
H4962 C4985 0.950 . S
H4963 C4987 0.950 . S
H4964 C4988 0.950 . S
H4965 C4989 0.951 . S
H4966 C4991 0.951 . S
H4967 C4993 0.950 . S
H4968 C4994 0.950 . S
H4969 C4996 0.950 . S
H4970 C4999 0.950 . S
H4971 C5000 0.950 . S
H4972 C5002 0.950 . S
H4973 C5003 0.950 . S
C4974 H4956 0.951 . S
C4974 C4975 1.366 . S
C4974 C4976 1.388 . S
C4975 C4974 1.366 . S
C4975 C4979 1.385 . S
C4976 H4957 0.951 . S
C4976 C4974 1.388 . S
C4976 C4977 1.366 . S
C4977 C4976 1.366 . S
C4977 C4978 1.414 . S
C4977 C4980 1.499 . S
C4978 H4958 0.950 . S
C4978 C4977 1.414 . S
C4978 C4979 1.374 . S
C4979 H4959 0.950 . S
C4979 C4975 1.385 . S
C4979 C4978 1.374 . S
C4980 C4977 1.499 . S
C4980 C4981 1.373 . S
C4980 C4982 1.389 . S
C4981 H4960 0.950 . S
C4981 C4980 1.373 . S
C4981 C4997 1.377 . S
C4982 C4980 1.389 . S
C4982 C4983 1.524 . S
C4982 C4996 1.377 . S
C4983 C4982 1.524 . S
C4983 C4984 1.397 . S
C4983 C4988 1.363 . S
C4984 H4961 0.950 . S
C4984 C4983 1.397 . S
C4984 C4985 1.334 . S
C4985 H4962 0.950 . S
C4985 C4984 1.334 . S
C4985 C4986 1.287 . S
C4986 C4985 1.287 . S
C4986 C4987 1.524 . S
C4986 H5005 0.913 . S
C4987 H4963 0.950 . S
C4987 C4986 1.524 . S
C4987 C4988 1.415 . S
C4988 H4964 0.950 . S
C4988 C4983 1.363 . S
C4988 C4987 1.415 . S
C4989 H4965 0.951 . S
C4989 C4990 1.366 . S
C4989 C4991 1.388 . S
C4990 C4989 1.366 . S
C4990 C4994 1.385 . S
C4991 H4966 0.951 . S
C4991 C4989 1.388 . S
C4991 C4992 1.366 . S
C4992 C4991 1.366 . S
C4992 C4993 1.414 . S
C4992 C4995 1.499 . S
C4993 H4967 0.950 . S
C4993 C4992 1.414 . S
C4993 C4994 1.374 . S
C4994 H4968 0.950 . S
C4994 C4990 1.385 . S
C4994 C4993 1.374 . S
C4995 C4992 1.499 . S
C4995 C4996 1.373 . S
C4995 C4997 1.389 . S
C4996 H4969 0.950 . S
C4996 C4982 1.377 . S
C4996 C4995 1.373 . S
C4997 C4981 1.377 . S
C4997 C4995 1.389 . S
C4997 C4998 1.524 . S
C4998 C4997 1.524 . S
C4998 C4999 1.397 . S
C4998 C5003 1.363 . S
C4999 H4970 0.950 . S
C4999 C4998 1.397 . S
C4999 C5000 1.334 . S
C5000 H4971 0.950 . S
C5000 C4999 1.334 . S
C5000 C5001 1.287 . S
C5001 C5000 1.287 . S
C5001 C5002 1.524 . S
C5001 H5004 0.999 . S
C5002 H4972 0.950 . S
C5002 C5001 1.524 . S
C5002 C5003 1.415 . S
C5003 H4973 0.950 . S
C5003 C4998 1.363 . S
C5003 C5002 1.415 . S
H5004 C5001 0.999 . S
H5005 C4986 0.913 . S
H5006 C5024 0.951 . S
H5007 C5026 0.951 . S
H5008 C5028 0.950 . S
H5009 C5029 0.950 . S
H5010 C5031 0.980 . S
H5011 C5034 0.950 . S
H5012 C5035 0.950 . S
H5013 C5037 0.950 . S
H5014 C5038 0.950 . S
H5015 C5039 0.951 . S
H5016 C5041 0.951 . S
H5017 C5043 0.950 1_565 S
H5018 C5044 0.950 . S
H5019 C5046 0.950 . S
H5020 C5049 0.950 1_565 S
H5021 C5050 0.950 . S
H5022 C5052 0.950 . S
H5023 C5053 0.950 . S
C5024 H5006 0.951 . S
C5024 C5025 1.366 . S
C5024 C5026 1.388 . S
C5025 C5024 1.366 . S
C5025 C5029 1.385 . S
C5026 H5007 0.951 . S
C5026 C5024 1.388 . S
C5026 C5027 1.366 . S
C5027 C5026 1.366 . S
C5027 C5028 1.414 . S
C5027 C5030 1.499 . S
C5028 H5008 0.950 . S
C5028 C5027 1.414 . S
C5028 C5029 1.374 . S
C5029 H5009 0.950 . S
C5029 C5025 1.385 . S
C5029 C5028 1.374 . S
C5030 C5027 1.499 . S
C5030 C5031 1.332 1_554 S
C5030 C5032 1.389 . S
C5031 H5010 0.980 . S
C5031 C5030 1.332 1_556 S
C5031 C5047 1.416 . S
C5032 C5030 1.389 . S
C5032 C5033 1.524 . S
C5032 C5046 1.377 . S
C5033 C5032 1.524 . S
C5033 C5034 1.397 . S
C5033 C5038 1.363 . S
C5034 H5011 0.950 . S
C5034 C5033 1.397 . S
C5034 C5035 1.334 . S
C5035 H5012 0.950 . S
C5035 C5034 1.334 . S
C5035 C5036 1.287 . S
C5036 C5035 1.287 . S
C5036 C5037 1.524 . S
C5036 H5055 0.913 . S
C5037 H5013 0.950 . S
C5037 C5036 1.524 . S
C5037 C5038 1.415 . S
C5038 H5014 0.950 . S
C5038 C5033 1.363 . S
C5038 C5037 1.415 . S
C5039 H5015 0.951 . S
C5039 C5040 1.366 . S
C5039 C5041 1.388 . S
C5040 C5039 1.366 . S
C5040 C5044 1.385 . S
C5041 H5016 0.951 . S
C5041 C5039 1.388 . S
C5041 C5042 1.366 . S
C5042 C5041 1.366 . S
C5042 C5043 1.414 . S
C5042 C5045 1.499 1_545 S
C5043 H5017 0.950 1_545 S
C5043 C5042 1.414 . S
C5043 C5044 1.374 . S
C5044 H5018 0.950 . S
C5044 C5040 1.385 . S
C5044 C5043 1.374 . S
C5045 C5042 1.499 1_565 S
C5045 C5046 1.372 . S
C5045 C5047 1.407 1_554 S
C5046 H5019 0.950 . S
C5046 C5032 1.377 . S
C5046 C5045 1.372 . S
C5047 C5031 1.416 . S
C5047 C5045 1.407 1_556 S
C5047 C5048 1.487 1_565 S
C5048 C5047 1.487 1_545 S
C5048 C5049 1.397 . S
C5048 C5053 1.363 . S
C5049 H5020 0.950 1_545 S
C5049 C5048 1.397 . S
C5049 C5050 1.334 . S
C5050 H5021 0.950 . S
C5050 C5049 1.334 . S
C5050 C5051 1.287 . S
C5051 C5050 1.287 . S
C5051 C5052 1.524 . S
C5051 H5054 0.999 . S
C5052 H5022 0.950 . S
C5052 C5051 1.524 . S
C5052 C5053 1.415 . S
C5053 H5023 0.950 . S
C5053 C5048 1.363 . S
C5053 C5052 1.415 . S
H5054 C5051 0.999 . S
H5055 C5036 0.913 . S
H5056 C5074 0.951 . S
H5057 C5076 0.951 . S
H5058 C5078 0.950 . S
H5059 C5079 0.950 . S
H5060 C5081 0.950 . S
H5061 C5084 0.950 . S
H5062 C5085 0.950 . S
H5063 C5087 0.950 . S
H5064 C5088 0.950 . S
H5065 C5089 0.951 . S
H5066 C5091 0.951 . S
H5067 C5093 0.950 . S
H5068 C5094 0.950 . S
H5069 C5096 0.950 . S
H5070 C5099 0.950 . S
H5071 C5100 0.950 . S
H5072 C5102 0.950 . S
H5073 C5103 0.950 . S
C5074 H5056 0.951 . S
C5074 C5075 1.366 . S
C5074 C5076 1.388 . S
C5075 C5074 1.366 . S
C5075 C5079 1.385 . S
C5076 H5057 0.951 . S
C5076 C5074 1.388 . S
C5076 C5077 1.366 . S
C5077 C5076 1.366 . S
C5077 C5078 1.414 . S
C5077 C5080 1.499 . S
C5078 H5058 0.950 . S
C5078 C5077 1.414 . S
C5078 C5079 1.374 . S
C5079 H5059 0.950 . S
C5079 C5075 1.385 . S
C5079 C5078 1.374 . S
C5080 C5077 1.499 . S
C5080 C5081 1.373 . S
C5080 C5082 1.389 . S
C5081 H5060 0.950 . S
C5081 C5080 1.373 . S
C5081 C5097 1.377 . S
C5082 C5080 1.389 . S
C5082 C5083 1.524 . S
C5082 C5096 1.377 . S
C5083 C5082 1.524 . S
C5083 C5084 1.397 . S
C5083 C5088 1.363 . S
C5084 H5061 0.950 . S
C5084 C5083 1.397 . S
C5084 C5085 1.334 . S
C5085 H5062 0.950 . S
C5085 C5084 1.334 . S
C5085 C5086 1.287 . S
C5086 C5085 1.287 . S
C5086 C5087 1.524 . S
C5086 H5105 0.913 . S
C5087 H5063 0.950 . S
C5087 C5086 1.524 . S
C5087 C5088 1.415 . S
C5088 H5064 0.950 . S
C5088 C5083 1.363 . S
C5088 C5087 1.415 . S
C5089 H5065 0.951 . S
C5089 C5090 1.366 . S
C5089 C5091 1.388 . S
C5090 C5089 1.366 . S
C5090 C5094 1.385 . S
C5091 H5066 0.951 . S
C5091 C5089 1.388 . S
C5091 C5092 1.366 . S
C5092 C5091 1.366 . S
C5092 C5093 1.414 . S
C5092 C5095 1.499 . S
C5093 H5067 0.950 . S
C5093 C5092 1.414 . S
C5093 C5094 1.374 . S
C5094 H5068 0.950 . S
C5094 C5090 1.385 . S
C5094 C5093 1.374 . S
C5095 C5092 1.499 . S
C5095 C5096 1.373 . S
C5095 C5097 1.389 . S
C5096 H5069 0.950 . S
C5096 C5082 1.377 . S
C5096 C5095 1.373 . S
C5097 C5081 1.377 . S
C5097 C5095 1.389 . S
C5097 C5098 1.524 . S
C5098 C5097 1.524 . S
C5098 C5099 1.397 . S
C5098 C5103 1.363 . S
C5099 H5070 0.950 . S
C5099 C5098 1.397 . S
C5099 C5100 1.334 . S
C5100 H5071 0.950 . S
C5100 C5099 1.334 . S
C5100 C5101 1.287 . S
C5101 C5100 1.287 . S
C5101 C5102 1.524 . S
C5101 H5104 0.999 . S
C5102 H5072 0.950 . S
C5102 C5101 1.524 . S
C5102 C5103 1.415 . S
C5103 H5073 0.950 . S
C5103 C5098 1.363 . S
C5103 C5102 1.415 . S
H5104 C5101 0.999 . S
H5105 C5086 0.913 . S
H5106 C5124 0.951 . S
H5107 C5126 0.951 . S
H5108 C5128 0.950 . S
H5109 C5129 0.950 . S
H5110 C5131 0.950 . S
H5111 C5134 0.950 . S
H5112 C5135 0.950 . S
H5113 C5137 0.950 . S
H5114 C5138 0.950 . S
H5115 C5139 0.951 . S
H5116 C5141 0.951 . S
H5117 C5143 0.950 . S
H5118 C5144 0.950 . S
H5119 C5146 0.950 . S
H5120 C5149 0.950 . S
H5121 C5150 0.950 . S
H5122 C5152 0.950 . S
H5123 C5153 0.950 . S
C5124 H5106 0.951 . S
C5124 C5125 1.366 . S
C5124 C5126 1.388 . S
C5125 C5124 1.366 . S
C5125 C5129 1.385 . S
C5126 H5107 0.951 . S
C5126 C5124 1.388 . S
C5126 C5127 1.366 . S
C5127 C5126 1.366 . S
C5127 C5128 1.414 . S
C5127 C5130 1.499 . S
C5128 H5108 0.950 . S
C5128 C5127 1.414 . S
C5128 C5129 1.374 . S
C5129 H5109 0.950 . S
C5129 C5125 1.385 . S
C5129 C5128 1.374 . S
C5130 C5127 1.499 . S
C5130 C5131 1.373 . S
C5130 C5132 1.389 . S
C5131 H5110 0.950 . S
C5131 C5130 1.373 . S
C5131 C5147 1.377 . S
C5132 C5130 1.389 . S
C5132 C5133 1.524 1_554 S
C5132 C5146 1.377 . S
C5133 C5132 1.524 1_556 S
C5133 C5134 1.397 . S
C5133 C5138 1.363 . S
C5134 H5111 0.950 . S
C5134 C5133 1.397 . S
C5134 C5135 1.334 . S
C5135 H5112 0.950 . S
C5135 C5134 1.334 . S
C5135 C5136 1.287 . S
C5136 C5135 1.287 . S
C5136 C5137 1.524 . S
C5136 H5155 0.913 . S
C5137 H5113 0.950 . S
C5137 C5136 1.524 . S
C5137 C5138 1.415 . S
C5138 H5114 0.950 . S
C5138 C5133 1.363 . S
C5138 C5137 1.415 . S
C5139 H5115 0.951 . S
C5139 C5140 1.366 . S
C5139 C5141 1.388 . S
C5140 C5139 1.366 . S
C5140 C5144 1.385 . S
C5141 H5116 0.951 . S
C5141 C5139 1.388 . S
C5141 C5142 1.366 . S
C5142 C5141 1.366 . S
C5142 C5143 1.414 . S
C5142 C5145 1.499 . S
C5143 H5117 0.950 . S
C5143 C5142 1.414 . S
C5143 C5144 1.374 . S
C5144 H5118 0.950 . S
C5144 C5140 1.385 . S
C5144 C5143 1.374 . S
C5145 C5142 1.499 . S
C5145 C5146 1.373 . S
C5145 C5147 1.389 . S
C5146 H5119 0.950 . S
C5146 C5132 1.377 . S
C5146 C5145 1.373 . S
C5147 C5131 1.377 . S
C5147 C5145 1.389 . S
C5147 C5148 1.524 . S
C5148 C5147 1.524 . S
C5148 C5149 1.397 . S
C5148 C5153 1.363 . S
C5149 H5120 0.950 . S
C5149 C5148 1.397 . S
C5149 C5150 1.334 . S
C5150 H5121 0.950 . S
C5150 C5149 1.334 . S
C5150 C5151 1.287 . S
C5151 C5150 1.287 . S
C5151 C5152 1.524 . S
C5151 H5154 0.999 . S
C5152 H5122 0.950 . S
C5152 C5151 1.524 . S
C5152 C5153 1.415 . S
C5153 H5123 0.950 . S
C5153 C5148 1.363 . S
C5153 C5152 1.415 . S
H5154 C5151 0.999 . S
H5155 C5136 0.913 . S
H5156 C5174 0.951 . S
H5157 C5176 0.951 . S
H5158 C5178 0.950 . S
H5159 C5179 0.950 . S
H5160 C5181 0.950 . S
H5161 C5184 0.950 . S
H5162 C5185 0.950 . S
H5163 C5187 0.950 . S
H5164 C5188 0.950 . S
H5165 C5189 0.951 . S
H5166 C5191 0.951 . S
H5167 C5193 0.950 . S
H5168 C5194 0.950 . S
H5169 C5196 0.950 . S
H5170 C5199 0.950 . S
H5171 C5200 0.950 . S
H5172 C5202 0.950 . S
H5173 C5203 0.950 . S
C5174 H5156 0.951 . S
C5174 C5175 1.366 . S
C5174 C5176 1.388 . S
C5175 C5174 1.366 . S
C5175 C5179 1.385 . S
C5176 H5157 0.951 . S
C5176 C5174 1.388 . S
C5176 C5177 1.366 . S
C5177 C5176 1.366 . S
C5177 C5178 1.414 . S
C5177 C5180 1.499 . S
C5178 H5158 0.950 . S
C5178 C5177 1.414 . S
C5178 C5179 1.374 . S
C5179 H5159 0.950 . S
C5179 C5175 1.385 . S
C5179 C5178 1.374 . S
C5180 C5177 1.499 . S
C5180 C5181 1.373 . S
C5180 C5182 1.389 . S
C5181 H5160 0.950 . S
C5181 C5180 1.373 . S
C5181 C5197 1.377 . S
C5182 C5180 1.389 . S
C5182 C5183 1.524 . S
C5182 C5196 1.377 . S
C5183 C5182 1.524 . S
C5183 C5184 1.397 . S
C5183 C5188 1.363 . S
C5184 H5161 0.950 . S
C5184 C5183 1.397 . S
C5184 C5185 1.334 . S
C5185 H5162 0.950 . S
C5185 C5184 1.334 . S
C5185 C5186 1.287 . S
C5186 C5185 1.287 . S
C5186 C5187 1.524 . S
C5186 H5205 0.913 . S
C5187 H5163 0.950 . S
C5187 C5186 1.524 . S
C5187 C5188 1.415 . S
C5188 H5164 0.950 . S
C5188 C5183 1.363 . S
C5188 C5187 1.415 . S
C5189 H5165 0.951 . S
C5189 C5190 1.366 . S
C5189 C5191 1.388 . S
C5190 C5189 1.366 . S
C5190 C5194 1.385 . S
C5191 H5166 0.951 . S
C5191 C5189 1.388 . S
C5191 C5192 1.366 . S
C5192 C5191 1.366 . S
C5192 C5193 1.414 . S
C5192 C5195 1.499 . S
C5193 H5167 0.950 . S
C5193 C5192 1.414 . S
C5193 C5194 1.374 . S
C5194 H5168 0.950 . S
C5194 C5190 1.385 . S
C5194 C5193 1.374 . S
C5195 C5192 1.499 . S
C5195 C5196 1.373 . S
C5195 C5197 1.389 . S
C5196 H5169 0.950 . S
C5196 C5182 1.377 . S
C5196 C5195 1.373 . S
C5197 C5181 1.377 . S
C5197 C5195 1.389 . S
C5197 C5198 1.524 . S
C5198 C5197 1.524 . S
C5198 C5199 1.397 . S
C5198 C5203 1.363 . S
C5199 H5170 0.950 . S
C5199 C5198 1.397 . S
C5199 C5200 1.334 . S
C5200 H5171 0.950 . S
C5200 C5199 1.334 . S
C5200 C5201 1.287 . S
C5201 C5200 1.287 . S
C5201 C5202 1.524 . S
C5201 H5204 0.999 . S
C5202 H5172 0.950 . S
C5202 C5201 1.524 . S
C5202 C5203 1.415 . S
C5203 H5173 0.950 . S
C5203 C5198 1.363 . S
C5203 C5202 1.415 . S
H5204 C5201 0.999 . S
H5205 C5186 0.913 . S
H5206 C5224 0.951 . S
H5207 C5226 0.951 . S
H5208 C5228 0.950 . S
H5209 C5229 0.950 . S
H5210 C5231 0.950 . S
H5211 C5234 0.950 . S
H5212 C5235 0.950 . S
H5213 C5237 0.950 . S
H5214 C5238 0.950 . S
H5215 C5239 0.951 . S
H5216 C5241 0.951 . S
H5217 C5243 0.950 . S
H5218 C5244 0.950 . S
H5219 C5246 0.950 . S
H5220 C5249 0.950 . S
H5221 C5250 0.950 . S
H5222 C5252 0.950 . S
H5223 C5253 0.950 . S
C5224 H5206 0.951 . S
C5224 C5225 1.366 . S
C5224 C5226 1.388 . S
C5225 C5224 1.366 . S
C5225 C5229 1.385 . S
C5226 H5207 0.951 . S
C5226 C5224 1.388 . S
C5226 C5227 1.366 . S
C5227 C5226 1.366 . S
C5227 C5228 1.414 . S
C5227 C5230 1.499 . S
C5228 H5208 0.950 . S
C5228 C5227 1.414 . S
C5228 C5229 1.374 . S
C5229 H5209 0.950 . S
C5229 C5225 1.385 . S
C5229 C5228 1.374 . S
C5230 C5227 1.499 . S
C5230 C5231 1.373 . S
C5230 C5232 1.389 . S
C5231 H5210 0.950 . S
C5231 C5230 1.373 . S
C5231 C5247 1.377 . S
C5232 C5230 1.389 . S
C5232 C5233 1.524 . S
C5232 C5246 1.377 . S
C5233 C5232 1.524 . S
C5233 C5234 1.397 . S
C5233 C5238 1.363 . S
C5234 H5211 0.950 . S
C5234 C5233 1.397 . S
C5234 C5235 1.334 . S
C5235 H5212 0.950 . S
C5235 C5234 1.334 . S
C5235 C5236 1.287 . S
C5236 C5235 1.287 . S
C5236 C5237 1.524 . S
C5236 H5255 0.913 . S
C5237 H5213 0.950 . S
C5237 C5236 1.524 . S
C5237 C5238 1.415 . S
C5238 H5214 0.950 . S
C5238 C5233 1.363 . S
C5238 C5237 1.415 . S
C5239 H5215 0.951 . S
C5239 C5240 1.366 . S
C5239 C5241 1.388 . S
C5240 C5239 1.366 . S
C5240 C5244 1.385 . S
C5241 H5216 0.951 . S
C5241 C5239 1.388 . S
C5241 C5242 1.366 . S
C5242 C5241 1.366 . S
C5242 C5243 1.414 . S
C5242 C5245 1.499 . S
C5243 H5217 0.950 . S
C5243 C5242 1.414 . S
C5243 C5244 1.374 . S
C5244 H5218 0.950 . S
C5244 C5240 1.385 . S
C5244 C5243 1.374 . S
C5245 C5242 1.499 . S
C5245 C5246 1.373 . S
C5245 C5247 1.389 . S
C5246 H5219 0.950 . S
C5246 C5232 1.377 . S
C5246 C5245 1.373 . S
C5247 C5231 1.377 . S
C5247 C5245 1.389 . S
C5247 C5248 1.524 . S
C5248 C5247 1.524 . S
C5248 C5249 1.397 . S
C5248 C5253 1.363 . S
C5249 H5220 0.950 . S
C5249 C5248 1.397 . S
C5249 C5250 1.334 . S
C5250 H5221 0.950 . S
C5250 C5249 1.334 . S
C5250 C5251 1.287 . S
C5251 C5250 1.287 . S
C5251 C5252 1.524 . S
C5251 H5254 0.999 . S
C5252 H5222 0.950 . S
C5252 C5251 1.524 . S
C5252 C5253 1.415 . S
C5253 H5223 0.950 . S
C5253 C5248 1.363 . S
C5253 C5252 1.415 . S
H5254 C5251 0.999 . S
H5255 C5236 0.913 . S
H5256 C5274 0.951 . S
H5257 C5276 0.951 . S
H5258 C5278 0.950 . S
H5259 C5279 0.950 . S
H5260 C5281 0.950 . S
H5261 C5284 0.950 . S
H5262 C5285 0.950 . S
H5263 C5287 0.950 . S
H5264 C5288 0.950 . S
H5265 C5289 0.951 . S
H5266 C5291 0.951 . S
H5267 C5293 0.950 . S
H5268 C5294 0.950 . S
H5269 C5296 0.950 . S
H5270 C5299 0.950 . S
H5271 C5300 0.950 . S
H5272 C5302 0.950 . S
H5273 C5303 0.950 . S
C5274 H5256 0.951 . S
C5274 C5275 1.366 . S
C5274 C5276 1.388 . S
C5275 C5274 1.366 . S
C5275 C5279 1.385 . S
C5276 H5257 0.951 . S
C5276 C5274 1.388 . S
C5276 C5277 1.366 . S
C5277 C5276 1.366 . S
C5277 C5278 1.414 . S
C5277 C5280 1.499 . S
C5278 H5258 0.950 . S
C5278 C5277 1.414 . S
C5278 C5279 1.374 . S
C5279 H5259 0.950 . S
C5279 C5275 1.385 . S
C5279 C5278 1.374 . S
C5280 C5277 1.499 . S
C5280 C5281 1.373 . S
C5280 C5282 1.389 . S
C5281 H5260 0.950 . S
C5281 C5280 1.373 . S
C5281 C5297 1.377 . S
C5282 C5280 1.389 . S
C5282 C5283 1.524 . S
C5282 C5296 1.377 . S
C5283 C5282 1.524 . S
C5283 C5284 1.397 . S
C5283 C5288 1.363 . S
C5284 H5261 0.950 . S
C5284 C5283 1.397 . S
C5284 C5285 1.334 . S
C5285 H5262 0.950 . S
C5285 C5284 1.334 . S
C5285 C5286 1.287 . S
C5286 C5285 1.287 . S
C5286 C5287 1.524 . S
C5286 H5305 0.913 . S
C5287 H5263 0.950 . S
C5287 C5286 1.524 . S
C5287 C5288 1.415 . S
C5288 H5264 0.950 . S
C5288 C5283 1.363 . S
C5288 C5287 1.415 . S
C5289 H5265 0.951 . S
C5289 C5290 1.366 . S
C5289 C5291 1.388 . S
C5290 C5289 1.366 . S
C5290 C5294 1.385 . S
C5291 H5266 0.951 . S
C5291 C5289 1.388 . S
C5291 C5292 1.366 . S
C5292 C5291 1.366 . S
C5292 C5293 1.414 . S
C5292 C5295 1.499 . S
C5293 H5267 0.950 . S
C5293 C5292 1.414 . S
C5293 C5294 1.374 . S
C5294 H5268 0.950 . S
C5294 C5290 1.385 . S
C5294 C5293 1.374 . S
C5295 C5292 1.499 . S
C5295 C5296 1.373 . S
C5295 C5297 1.389 . S
C5296 H5269 0.950 . S
C5296 C5282 1.377 . S
C5296 C5295 1.373 . S
C5297 C5281 1.377 . S
C5297 C5295 1.389 . S
C5297 C5298 1.524 . S
C5298 C5297 1.524 . S
C5298 C5299 1.397 . S
C5298 C5303 1.363 . S
C5299 H5270 0.950 . S
C5299 C5298 1.397 . S
C5299 C5300 1.334 . S
C5300 H5271 0.950 . S
C5300 C5299 1.334 . S
C5300 C5301 1.287 . S
C5301 C5300 1.287 . S
C5301 C5302 1.524 . S
C5301 H5304 0.999 . S
C5302 H5272 0.950 . S
C5302 C5301 1.524 . S
C5302 C5303 1.415 . S
C5303 H5273 0.950 . S
C5303 C5298 1.363 . S
C5303 C5302 1.415 . S
H5304 C5301 0.999 . S
H5305 C5286 0.913 . S
H5306 C5324 0.951 . S
H5307 C5326 0.951 . S
H5308 C5328 0.950 . S
H5309 C5329 0.950 . S
H5310 C5331 0.950 . S
H5311 C5334 0.950 . S
H5312 C5335 0.950 . S
H5313 C5337 0.950 . S
H5314 C5338 0.950 . S
H5315 C5339 0.951 . S
H5316 C5341 0.951 . S
H5317 C5343 0.950 . S
H5318 C5344 0.950 . S
H5319 C5346 0.950 . S
H5320 C5349 0.950 . S
H5321 C5350 0.950 . S
H5322 C5352 0.950 . S
H5323 C5353 0.950 . S
C5324 H5306 0.951 . S
C5324 C5325 1.366 . S
C5324 C5326 1.388 . S
C5325 C5324 1.366 . S
C5325 C5329 1.385 . S
C5326 H5307 0.951 . S
C5326 C5324 1.388 . S
C5326 C5327 1.366 . S
C5327 C5326 1.366 . S
C5327 C5328 1.414 . S
C5327 C5330 1.499 . S
C5328 H5308 0.950 . S
C5328 C5327 1.414 . S
C5328 C5329 1.374 . S
C5329 H5309 0.950 . S
C5329 C5325 1.385 . S
C5329 C5328 1.374 . S
C5330 C5327 1.499 . S
C5330 C5331 1.373 . S
C5330 C5332 1.389 . S
C5331 H5310 0.950 . S
C5331 C5330 1.373 . S
C5331 C5347 1.377 . S
C5332 C5330 1.389 . S
C5332 C5333 1.524 . S
C5332 C5346 1.377 . S
C5333 C5332 1.524 . S
C5333 C5334 1.397 . S
C5333 C5338 1.363 . S
C5334 H5311 0.950 . S
C5334 C5333 1.397 . S
C5334 C5335 1.334 . S
C5335 H5312 0.950 . S
C5335 C5334 1.334 . S
C5335 C5336 1.287 . S
C5336 C5335 1.287 . S
C5336 C5337 1.524 . S
C5336 H5355 0.913 . S
C5337 H5313 0.950 . S
C5337 C5336 1.524 . S
C5337 C5338 1.415 . S
C5338 H5314 0.950 . S
C5338 C5333 1.363 . S
C5338 C5337 1.415 . S
C5339 H5315 0.951 . S
C5339 C5340 1.366 . S
C5339 C5341 1.388 . S
C5340 C5339 1.366 . S
C5340 C5344 1.385 . S
C5341 H5316 0.951 . S
C5341 C5339 1.388 . S
C5341 C5342 1.366 . S
C5342 C5341 1.366 . S
C5342 C5343 1.414 . S
C5342 C5345 1.499 . S
C5343 H5317 0.950 . S
C5343 C5342 1.414 . S
C5343 C5344 1.374 . S
C5344 H5318 0.950 . S
C5344 C5340 1.385 . S
C5344 C5343 1.374 . S
C5345 C5342 1.499 . S
C5345 C5346 1.373 . S
C5345 C5347 1.389 . S
C5346 H5319 0.950 . S
C5346 C5332 1.377 . S
C5346 C5345 1.373 . S
C5347 C5331 1.377 . S
C5347 C5345 1.389 . S
C5347 C5348 1.524 . S
C5348 C5347 1.524 . S
C5348 C5349 1.397 . S
C5348 C5353 1.363 . S
C5349 H5320 0.950 . S
C5349 C5348 1.397 . S
C5349 C5350 1.334 . S
C5350 H5321 0.950 . S
C5350 C5349 1.334 . S
C5350 C5351 1.287 . S
C5351 C5350 1.287 . S
C5351 C5352 1.524 . S
C5351 H5354 0.999 . S
C5352 H5322 0.950 . S
C5352 C5351 1.524 . S
C5352 C5353 1.415 . S
C5353 H5323 0.950 . S
C5353 C5348 1.363 . S
C5353 C5352 1.415 . S
H5354 C5351 0.999 . S
H5355 C5336 0.913 . S
H5356 C5374 0.951 . S
H5357 C5376 0.951 . S
H5358 C5378 0.950 . S
H5359 C5379 0.950 . S
H5360 C5381 0.950 . S
H5361 C5384 0.950 . S
H5362 C5385 0.950 . S
H5363 C5387 0.950 . S
H5364 C5388 0.950 . S
H5365 C5389 0.951 . S
H5366 C5391 0.951 . S
H5367 C5393 0.950 . S
H5368 C5394 0.950 . S
H5369 C5396 0.950 . S
H5370 C5399 0.950 . S
H5371 C5400 0.950 . S
H5372 C5402 0.950 . S
H5373 C5403 0.950 . S
C5374 H5356 0.951 . S
C5374 C5375 1.366 . S
C5374 C5376 1.388 . S
C5375 C5374 1.366 . S
C5375 C5379 1.385 . S
C5376 H5357 0.951 . S
C5376 C5374 1.388 . S
C5376 C5377 1.366 . S
C5377 C5376 1.366 . S
C5377 C5378 1.414 . S
C5377 C5380 1.499 . S
C5378 H5358 0.950 . S
C5378 C5377 1.414 . S
C5378 C5379 1.374 . S
C5379 H5359 0.950 . S
C5379 C5375 1.385 . S
C5379 C5378 1.374 . S
C5380 C5377 1.499 . S
C5380 C5381 1.373 . S
C5380 C5382 1.389 . S
C5381 H5360 0.950 . S
C5381 C5380 1.373 . S
C5381 C5397 1.377 . S
C5382 C5380 1.389 . S
C5382 C5383 1.524 . S
C5382 C5396 1.377 . S
C5383 C5382 1.524 . S
C5383 C5384 1.397 . S
C5383 C5388 1.363 . S
C5384 H5361 0.950 . S
C5384 C5383 1.397 . S
C5384 C5385 1.334 . S
C5385 H5362 0.950 . S
C5385 C5384 1.334 . S
C5385 C5386 1.287 . S
C5386 C5385 1.287 . S
C5386 C5387 1.524 . S
C5386 H5405 0.913 . S
C5387 H5363 0.950 . S
C5387 C5386 1.524 . S
C5387 C5388 1.415 . S
C5388 H5364 0.950 . S
C5388 C5383 1.363 . S
C5388 C5387 1.415 . S
C5389 H5365 0.951 . S
C5389 C5390 1.366 . S
C5389 C5391 1.388 . S
C5390 C5389 1.366 . S
C5390 C5394 1.385 . S
C5391 H5366 0.951 . S
C5391 C5389 1.388 . S
C5391 C5392 1.366 . S
C5392 C5391 1.366 . S
C5392 C5393 1.414 . S
C5392 C5395 1.499 . S
C5393 H5367 0.950 . S
C5393 C5392 1.414 . S
C5393 C5394 1.374 . S
C5394 H5368 0.950 . S
C5394 C5390 1.385 . S
C5394 C5393 1.374 . S
C5395 C5392 1.499 . S
C5395 C5396 1.373 . S
C5395 C5397 1.389 . S
C5396 H5369 0.950 . S
C5396 C5382 1.377 . S
C5396 C5395 1.373 . S
C5397 C5381 1.377 . S
C5397 C5395 1.389 . S
C5397 C5398 1.524 . S
C5398 C5397 1.524 . S
C5398 C5399 1.397 . S
C5398 C5403 1.363 . S
C5399 H5370 0.950 . S
C5399 C5398 1.397 . S
C5399 C5400 1.334 . S
C5400 H5371 0.950 . S
C5400 C5399 1.334 . S
C5400 C5401 1.287 . S
C5401 C5400 1.287 . S
C5401 C5402 1.524 1_455 S
C5401 H5404 0.999 1_455 S
C5402 H5372 0.950 . S
C5402 C5401 1.524 1_655 S
C5402 C5403 1.415 1_655 S
C5403 H5373 0.950 . S
C5403 C5398 1.363 . S
C5403 C5402 1.415 1_455 S
H5404 C5401 0.999 1_655 S
H5405 C5386 0.913 . S
H5406 C5424 0.951 . S
H5407 C5426 0.951 . S
H5408 C5428 0.950 . S
H5409 C5429 0.950 . S
H5410 C5431 0.950 . S
H5411 C5434 0.950 . S
H5412 C5435 0.950 . S
H5413 C5437 0.950 . S
H5414 C5438 0.950 . S
H5415 C5439 0.951 . S
H5416 C5441 0.951 . S
H5417 C5443 0.950 . S
H5418 C5444 0.950 . S
H5419 C5446 0.950 . S
H5420 C5449 0.950 . S
H5421 C5450 0.950 . S
H5422 C5452 0.950 . S
H5423 C5453 0.950 . S
C5424 H5406 0.951 . S
C5424 C5425 1.366 . S
C5424 C5426 1.388 . S
C5425 C5424 1.366 . S
C5425 C5429 1.385 . S
C5426 H5407 0.951 . S
C5426 C5424 1.388 . S
C5426 C5427 1.366 . S
C5427 C5426 1.366 . S
C5427 C5428 1.414 . S
C5427 C5430 1.499 . S
C5428 H5408 0.950 . S
C5428 C5427 1.414 . S
C5428 C5429 1.374 . S
C5429 H5409 0.950 . S
C5429 C5425 1.385 . S
C5429 C5428 1.374 . S
C5430 C5427 1.499 . S
C5430 C5431 1.373 . S
C5430 C5432 1.389 . S
C5431 H5410 0.950 . S
C5431 C5430 1.373 . S
C5431 C5447 1.377 . S
C5432 C5430 1.389 . S
C5432 C5433 1.524 . S
C5432 C5446 1.377 . S
C5433 C5432 1.524 . S
C5433 C5434 1.397 . S
C5433 C5438 1.363 . S
C5434 H5411 0.950 . S
C5434 C5433 1.397 . S
C5434 C5435 1.334 . S
C5435 H5412 0.950 . S
C5435 C5434 1.334 . S
C5435 C5436 1.287 . S
C5436 C5435 1.287 . S
C5436 C5437 1.524 . S
C5436 H5455 0.913 . S
C5437 H5413 0.950 . S
C5437 C5436 1.524 . S
C5437 C5438 1.415 . S
C5438 H5414 0.950 . S
C5438 C5433 1.363 . S
C5438 C5437 1.415 . S
C5439 H5415 0.951 . S
C5439 C5440 1.366 . S
C5439 C5441 1.388 . S
C5440 C5439 1.366 . S
C5440 C5444 1.385 . S
C5441 H5416 0.951 . S
C5441 C5439 1.388 . S
C5441 C5442 1.366 . S
C5442 C5441 1.366 . S
C5442 C5443 1.414 . S
C5442 C5445 1.499 . S
C5443 H5417 0.950 . S
C5443 C5442 1.414 . S
C5443 C5444 1.374 . S
C5444 H5418 0.950 . S
C5444 C5440 1.385 . S
C5444 C5443 1.374 . S
C5445 C5442 1.499 . S
C5445 C5446 1.373 . S
C5445 C5447 1.389 . S
C5446 H5419 0.950 . S
C5446 C5432 1.377 . S
C5446 C5445 1.373 . S
C5447 C5431 1.377 . S
C5447 C5445 1.389 . S
C5447 C5448 1.524 . S
C5448 C5447 1.524 . S
C5448 C5449 1.397 . S
C5448 C5453 1.363 . S
C5449 H5420 0.950 . S
C5449 C5448 1.397 . S
C5449 C5450 1.334 . S
C5450 H5421 0.950 . S
C5450 C5449 1.334 . S
C5450 C5451 1.287 . S
C5451 C5450 1.287 . S
C5451 C5452 1.524 . S
C5451 H5454 0.999 . S
C5452 H5422 0.950 . S
C5452 C5451 1.524 . S
C5452 C5453 1.415 . S
C5453 H5423 0.950 . S
C5453 C5448 1.363 . S
C5453 C5452 1.415 . S
H5454 C5451 0.999 . S
H5455 C5436 0.913 . S
H5456 C5474 0.951 . S
H5457 C5476 0.951 . S
H5458 C5478 0.950 . S
H5459 C5479 0.950 . S
H5460 C5481 0.950 . S
H5461 C5484 0.950 . S
H5462 C5485 0.950 . S
H5463 C5487 0.950 . S
H5464 C5488 0.950 . S
H5465 C5489 0.951 . S
H5466 C5491 0.951 . S
H5467 C5493 0.950 . S
H5468 C5494 0.950 . S
H5469 C5496 0.950 . S
H5470 C5499 0.950 . S
H5471 C5500 0.950 . S
H5472 C5502 0.950 . S
H5473 C5503 0.950 . S
C5474 H5456 0.951 . S
C5474 C5475 1.366 . S
C5474 C5476 1.388 . S
C5475 C5474 1.366 . S
C5475 C5479 1.385 . S
C5476 H5457 0.951 . S
C5476 C5474 1.388 . S
C5476 C5477 1.366 . S
C5477 C5476 1.366 . S
C5477 C5478 1.414 . S
C5477 C5480 1.499 . S
C5478 H5458 0.950 . S
C5478 C5477 1.414 . S
C5478 C5479 1.374 . S
C5479 H5459 0.950 . S
C5479 C5475 1.385 . S
C5479 C5478 1.374 . S
C5480 C5477 1.499 . S
C5480 C5481 1.373 . S
C5480 C5482 1.389 . S
C5481 H5460 0.950 . S
C5481 C5480 1.373 . S
C5481 C5497 1.377 . S
C5482 C5480 1.389 . S
C5482 C5483 1.524 . S
C5482 C5496 1.377 . S
C5483 C5482 1.524 . S
C5483 C5484 1.397 . S
C5483 C5488 1.363 . S
C5484 H5461 0.950 . S
C5484 C5483 1.397 . S
C5484 C5485 1.334 . S
C5485 H5462 0.950 . S
C5485 C5484 1.334 . S
C5485 C5486 1.287 . S
C5486 C5485 1.287 . S
C5486 C5487 1.524 . S
C5486 H5505 0.913 . S
C5487 H5463 0.950 . S
C5487 C5486 1.524 . S
C5487 C5488 1.415 . S
C5488 H5464 0.950 . S
C5488 C5483 1.363 . S
C5488 C5487 1.415 . S
C5489 H5465 0.951 . S
C5489 C5490 1.366 . S
C5489 C5491 1.388 . S
C5490 C5489 1.366 . S
C5490 C5494 1.385 . S
C5491 H5466 0.951 . S
C5491 C5489 1.388 . S
C5491 C5492 1.366 . S
C5492 C5491 1.366 . S
C5492 C5493 1.414 . S
C5492 C5495 1.499 . S
C5493 H5467 0.950 . S
C5493 C5492 1.414 . S
C5493 C5494 1.374 . S
C5494 H5468 0.950 . S
C5494 C5490 1.385 . S
C5494 C5493 1.374 . S
C5495 C5492 1.499 . S
C5495 C5496 1.373 . S
C5495 C5497 1.389 . S
C5496 H5469 0.950 . S
C5496 C5482 1.377 . S
C5496 C5495 1.373 . S
C5497 C5481 1.377 . S
C5497 C5495 1.389 . S
C5497 C5498 1.524 . S
C5498 C5497 1.524 . S
C5498 C5499 1.397 . S
C5498 C5503 1.363 . S
C5499 H5470 0.950 . S
C5499 C5498 1.397 . S
C5499 C5500 1.334 1_556 S
C5500 H5471 0.950 . S
C5500 C5499 1.334 1_554 S
C5500 C5501 1.287 . S
C5501 C5500 1.287 . S
C5501 C5502 1.524 . S
C5501 H5504 0.999 . S
C5502 H5472 0.950 . S
C5502 C5501 1.524 . S
C5502 C5503 1.415 1_554 S
C5503 H5473 0.950 . S
C5503 C5498 1.363 . S
C5503 C5502 1.415 1_556 S
H5504 C5501 0.999 . S
H5505 C5486 0.913 . S
H5506 C5524 0.951 . S
H5507 C5526 0.951 . S
H5508 C5528 0.950 . S
H5509 C5529 0.950 . S
H5510 C5531 0.950 . S
H5511 C5534 0.950 . S
H5512 C5535 0.950 . S
H5513 C5537 0.950 . S
H5514 C5538 0.950 . S
H5515 C5539 0.951 . S
H5516 C5541 0.951 . S
H5517 C5543 0.950 . S
H5518 C5544 0.950 . S
H5519 C5546 0.950 . S
H5520 C5549 0.950 . S
H5521 C5550 0.950 . S
H5522 C5552 0.950 . S
H5523 C5553 0.950 . S
C5524 H5506 0.951 . S
C5524 C5525 1.366 . S
C5524 C5526 1.388 . S
C5525 C5524 1.366 . S
C5525 C5529 1.385 . S
C5526 H5507 0.951 . S
C5526 C5524 1.388 . S
C5526 C5527 1.366 . S
C5527 C5526 1.366 . S
C5527 C5528 1.414 . S
C5527 C5530 1.499 . S
C5528 H5508 0.950 . S
C5528 C5527 1.414 . S
C5528 C5529 1.374 . S
C5529 H5509 0.950 . S
C5529 C5525 1.385 . S
C5529 C5528 1.374 . S
C5530 C5527 1.499 . S
C5530 C5531 1.373 . S
C5530 C5532 1.389 . S
C5531 H5510 0.950 . S
C5531 C5530 1.373 . S
C5531 C5547 1.377 . S
C5532 C5530 1.389 . S
C5532 C5533 1.524 . S
C5532 C5546 1.377 . S
C5533 C5532 1.524 . S
C5533 C5534 1.397 . S
C5533 C5538 1.363 . S
C5534 H5511 0.950 . S
C5534 C5533 1.397 . S
C5534 C5535 1.334 . S
C5535 H5512 0.950 . S
C5535 C5534 1.334 . S
C5535 C5536 1.287 . S
C5536 C5535 1.287 . S
C5536 C5537 1.524 . S
C5536 H5555 0.913 . S
C5537 H5513 0.950 . S
C5537 C5536 1.524 . S
C5537 C5538 1.415 . S
C5538 H5514 0.950 . S
C5538 C5533 1.363 . S
C5538 C5537 1.415 . S
C5539 H5515 0.951 . S
C5539 C5540 1.366 . S
C5539 C5541 1.388 . S
C5540 C5539 1.366 . S
C5540 C5544 1.385 . S
C5541 H5516 0.951 . S
C5541 C5539 1.388 . S
C5541 C5542 1.366 . S
C5542 C5541 1.366 . S
C5542 C5543 1.414 . S
C5542 C5545 1.499 . S
C5543 H5517 0.950 . S
C5543 C5542 1.414 . S
C5543 C5544 1.374 . S
C5544 H5518 0.950 . S
C5544 C5540 1.385 . S
C5544 C5543 1.374 . S
C5545 C5542 1.499 . S
C5545 C5546 1.373 . S
C5545 C5547 1.389 . S
C5546 H5519 0.950 . S
C5546 C5532 1.377 . S
C5546 C5545 1.373 . S
C5547 C5531 1.377 . S
C5547 C5545 1.389 . S
C5547 C5548 1.524 . S
C5548 C5547 1.524 . S
C5548 C5549 1.397 . S
C5548 C5553 1.363 . S
C5549 H5520 0.950 . S
C5549 C5548 1.397 . S
C5549 C5550 1.334 . S
C5550 H5521 0.950 . S
C5550 C5549 1.334 . S
C5550 C5551 1.287 . S
C5551 C5550 1.287 . S
C5551 C5552 1.524 . S
C5551 H5554 0.999 . S
C5552 H5522 0.950 . S
C5552 C5551 1.524 . S
C5552 C5553 1.415 . S
C5553 H5523 0.950 . S
C5553 C5548 1.363 . S
C5553 C5552 1.415 . S
H5554 C5551 0.999 . S
H5555 C5536 0.913 . S
H5556 C5574 0.951 . S
H5557 C5576 0.951 . S
H5558 C5578 0.950 . S
H5559 C5579 0.950 . S
H5560 C5581 0.950 . S
H5561 C5584 0.950 . S
H5562 C5585 0.950 . S
H5563 C5587 0.950 . S
H5564 C5588 0.950 . S
H5565 C5589 0.951 . S
H5566 C5591 0.951 . S
H5567 C5593 0.950 . S
H5568 C5594 0.950 . S
H5569 C5596 0.950 . S
H5570 C5599 0.950 . S
H5571 C5600 0.950 . S
H5572 C5602 0.950 1_655 S
H5573 C5603 0.950 . S
C5574 H5556 0.951 . S
C5574 C5575 1.366 . S
C5574 C5576 1.388 . S
C5575 C5574 1.366 . S
C5575 C5579 1.385 . S
C5576 H5557 0.951 . S
C5576 C5574 1.388 . S
C5576 C5577 1.366 . S
C5577 C5576 1.366 . S
C5577 C5578 1.414 . S
C5577 C5580 1.499 . S
C5578 H5558 0.950 . S
C5578 C5577 1.414 . S
C5578 C5579 1.374 . S
C5579 H5559 0.950 . S
C5579 C5575 1.385 . S
C5579 C5578 1.374 . S
C5580 C5577 1.499 . S
C5580 C5581 1.373 . S
C5580 C5582 1.389 . S
C5581 H5560 0.950 . S
C5581 C5580 1.373 . S
C5581 C5597 1.377 . S
C5582 C5580 1.389 . S
C5582 C5583 1.524 . S
C5582 C5596 1.377 . S
C5583 C5582 1.524 . S
C5583 C5584 1.397 . S
C5583 C5588 1.363 . S
C5584 H5561 0.950 . S
C5584 C5583 1.397 . S
C5584 C5585 1.334 . S
C5585 H5562 0.950 . S
C5585 C5584 1.334 . S
C5585 C5586 1.287 . S
C5586 C5585 1.287 . S
C5586 C5587 1.524 . S
C5586 H5605 0.913 . S
C5587 H5563 0.950 . S
C5587 C5586 1.524 . S
C5587 C5588 1.415 . S
C5588 H5564 0.950 . S
C5588 C5583 1.363 . S
C5588 C5587 1.415 . S
C5589 H5565 0.951 . S
C5589 C5590 1.366 . S
C5589 C5591 1.388 . S
C5590 C5589 1.366 . S
C5590 C5594 1.385 . S
C5591 H5566 0.951 . S
C5591 C5589 1.388 . S
C5591 C5592 1.366 . S
C5592 C5591 1.366 . S
C5592 C5593 1.414 . S
C5592 C5595 1.499 . S
C5593 H5567 0.950 . S
C5593 C5592 1.414 . S
C5593 C5594 1.374 . S
C5594 H5568 0.950 . S
C5594 C5590 1.385 . S
C5594 C5593 1.374 . S
C5595 C5592 1.499 . S
C5595 C5596 1.373 . S
C5595 C5597 1.389 . S
C5596 H5569 0.950 . S
C5596 C5582 1.377 . S
C5596 C5595 1.373 . S
C5597 C5581 1.377 . S
C5597 C5595 1.389 . S
C5597 C5598 1.524 . S
C5598 C5597 1.524 . S
C5598 C5599 1.397 . S
C5598 C5603 1.363 . S
C5599 H5570 0.950 . S
C5599 C5598 1.397 . S
C5599 C5600 1.334 . S
C5600 H5571 0.950 . S
C5600 C5599 1.334 . S
C5600 C5601 1.287 . S
C5601 C5600 1.287 . S
C5601 C5602 1.524 . S
C5601 H5604 0.999 1_455 S
C5602 H5572 0.950 1_455 S
C5602 C5601 1.524 . S
C5602 C5603 1.415 . S
C5603 H5573 0.950 . S
C5603 C5598 1.363 . S
C5603 C5602 1.415 . S
H5604 C5601 0.999 1_655 S
H5605 C5586 0.913 . S
H5606 C5624 0.951 . S
H5607 C5626 0.951 . S
H5608 C5628 0.950 . S
H5609 C5629 0.950 . S
H5610 C5631 0.950 . S
H5611 C5634 0.950 . S
H5612 C5635 0.950 . S
H5613 C5637 0.950 . S
H5614 C5638 0.950 . S
H5615 C5639 0.951 . S
H5616 C5641 0.951 . S
H5617 C5643 0.950 . S
H5618 C5644 0.950 . S
H5619 C5646 0.950 . S
H5620 C5649 0.950 . S
H5621 C5650 0.950 . S
H5622 C5652 0.950 . S
H5623 C5653 0.950 . S
C5624 H5606 0.951 . S
C5624 C5625 1.366 . S
C5624 C5626 1.388 . S
C5625 C5624 1.366 . S
C5625 C5629 1.385 . S
C5626 H5607 0.951 . S
C5626 C5624 1.388 . S
C5626 C5627 1.366 . S
C5627 C5626 1.366 . S
C5627 C5628 1.414 . S
C5627 C5630 1.499 . S
C5628 H5608 0.950 . S
C5628 C5627 1.414 . S
C5628 C5629 1.374 . S
C5629 H5609 0.950 . S
C5629 C5625 1.385 . S
C5629 C5628 1.374 . S
C5630 C5627 1.499 . S
C5630 C5631 1.373 . S
C5630 C5632 1.389 . S
C5631 H5610 0.950 . S
C5631 C5630 1.373 . S
C5631 C5647 1.377 . S
C5632 C5630 1.389 . S
C5632 C5633 1.524 . S
C5632 C5646 1.377 . S
C5633 C5632 1.524 . S
C5633 C5634 1.397 . S
C5633 C5638 1.363 . S
C5634 H5611 0.950 . S
C5634 C5633 1.397 . S
C5634 C5635 1.334 . S
C5635 H5612 0.950 . S
C5635 C5634 1.334 . S
C5635 C5636 1.287 . S
C5636 C5635 1.287 . S
C5636 C5637 1.524 . S
C5636 H5655 0.913 . S
C5637 H5613 0.950 . S
C5637 C5636 1.524 . S
C5637 C5638 1.415 . S
C5638 H5614 0.950 . S
C5638 C5633 1.363 . S
C5638 C5637 1.415 . S
C5639 H5615 0.951 . S
C5639 C5640 1.366 . S
C5639 C5641 1.388 . S
C5640 C5639 1.366 . S
C5640 C5644 1.385 . S
C5641 H5616 0.951 . S
C5641 C5639 1.388 . S
C5641 C5642 1.366 . S
C5642 C5641 1.366 . S
C5642 C5643 1.414 . S
C5642 C5645 1.499 . S
C5643 H5617 0.950 . S
C5643 C5642 1.414 . S
C5643 C5644 1.374 . S
C5644 H5618 0.950 . S
C5644 C5640 1.385 . S
C5644 C5643 1.374 . S
C5645 C5642 1.499 . S
C5645 C5646 1.373 . S
C5645 C5647 1.389 . S
C5646 H5619 0.950 . S
C5646 C5632 1.377 . S
C5646 C5645 1.373 . S
C5647 C5631 1.377 . S
C5647 C5645 1.389 . S
C5647 C5648 1.524 . S
C5648 C5647 1.524 . S
C5648 C5649 1.397 . S
C5648 C5653 1.363 . S
C5649 H5620 0.950 . S
C5649 C5648 1.397 . S
C5649 C5650 1.334 . S
C5650 H5621 0.950 . S
C5650 C5649 1.334 . S
C5650 C5651 1.287 . S
C5651 C5650 1.287 . S
C5651 C5652 1.524 . S
C5651 H5654 0.999 . S
C5652 H5622 0.950 . S
C5652 C5651 1.524 . S
C5652 C5653 1.415 . S
C5653 H5623 0.950 . S
C5653 C5648 1.363 . S
C5653 C5652 1.415 . S
H5654 C5651 0.999 . S
H5655 C5636 0.913 . S
H5656 C5674 0.951 . S
H5657 C5676 0.951 . S
H5658 C5678 0.950 . S
H5659 C5679 0.950 . S
H5660 C5681 0.950 . S
H5661 C5684 0.950 . S
H5662 C5685 0.950 . S
H5663 C5687 0.950 . S
H5664 C5688 0.950 . S
H5665 C5689 0.951 . S
H5666 C5691 0.951 . S
H5667 C5693 0.950 . S
H5668 C5694 0.950 . S
H5669 C5696 0.950 . S
H5670 C5699 0.950 . S
H5671 C5700 0.950 . S
H5672 C5702 0.950 . S
H5673 C5703 0.950 . S
C5674 H5656 0.951 . S
C5674 C5675 1.366 . S
C5674 C5676 1.388 . S
C5675 C5674 1.366 . S
C5675 C5679 1.385 . S
C5676 H5657 0.951 . S
C5676 C5674 1.388 . S
C5676 C5677 1.366 . S
C5677 C5676 1.366 . S
C5677 C5678 1.414 . S
C5677 C5680 1.499 . S
C5678 H5658 0.950 . S
C5678 C5677 1.414 . S
C5678 C5679 1.374 . S
C5679 H5659 0.950 . S
C5679 C5675 1.385 . S
C5679 C5678 1.374 . S
C5680 C5677 1.499 . S
C5680 C5681 1.373 . S
C5680 C5682 1.389 . S
C5681 H5660 0.950 . S
C5681 C5680 1.373 . S
C5681 C5697 1.377 . S
C5682 C5680 1.389 . S
C5682 C5683 1.524 . S
C5682 C5696 1.377 . S
C5683 C5682 1.524 . S
C5683 C5684 1.397 . S
C5683 C5688 1.363 . S
C5684 H5661 0.950 . S
C5684 C5683 1.397 . S
C5684 C5685 1.334 . S
C5685 H5662 0.950 . S
C5685 C5684 1.334 . S
C5685 C5686 1.287 . S
C5686 C5685 1.287 . S
C5686 C5687 1.524 . S
C5686 H5705 0.913 . S
C5687 H5663 0.950 . S
C5687 C5686 1.524 . S
C5687 C5688 1.415 . S
C5688 H5664 0.950 . S
C5688 C5683 1.363 . S
C5688 C5687 1.415 . S
C5689 H5665 0.951 . S
C5689 C5690 1.366 . S
C5689 C5691 1.388 . S
C5690 C5689 1.366 . S
C5690 C5694 1.385 . S
C5691 H5666 0.951 . S
C5691 C5689 1.388 . S
C5691 C5692 1.366 . S
C5692 C5691 1.366 . S
C5692 C5693 1.414 . S
C5692 C5695 1.499 . S
C5693 H5667 0.950 . S
C5693 C5692 1.414 . S
C5693 C5694 1.374 . S
C5694 H5668 0.950 . S
C5694 C5690 1.385 . S
C5694 C5693 1.374 . S
C5695 C5692 1.499 . S
C5695 C5696 1.373 . S
C5695 C5697 1.389 . S
C5696 H5669 0.950 . S
C5696 C5682 1.377 . S
C5696 C5695 1.373 . S
C5697 C5681 1.377 . S
C5697 C5695 1.389 . S
C5697 C5698 1.524 . S
C5698 C5697 1.524 . S
C5698 C5699 1.397 . S
C5698 C5703 1.363 . S
C5699 H5670 0.950 . S
C5699 C5698 1.397 . S
C5699 C5700 1.334 . S
C5700 H5671 0.950 . S
C5700 C5699 1.334 . S
C5700 C5701 1.287 . S
C5701 C5700 1.287 . S
C5701 C5702 1.524 . S
C5701 H5704 0.999 . S
C5702 H5672 0.950 . S
C5702 C5701 1.524 . S
C5702 C5703 1.415 . S
C5703 H5673 0.950 . S
C5703 C5698 1.363 . S
C5703 C5702 1.415 . S
H5704 C5701 0.999 . S
H5705 C5686 0.913 . S
H5706 C5724 0.951 . S
H5707 C5726 0.951 . S
H5708 C5728 0.950 . S
H5709 C5729 0.950 . S
H5710 C5731 0.950 . S
H5711 C5734 0.950 . S
H5712 C5735 0.950 . S
H5713 C5737 0.950 . S
H5714 C5738 0.950 . S
H5715 C5739 0.951 . S
H5716 C5741 0.951 . S
H5717 C5743 0.950 . S
H5718 C5744 0.950 . S
H5719 C5746 0.950 . S
H5720 C5749 0.950 . S
H5721 C5750 0.950 . S
H5722 C5752 0.950 . S
H5723 C5753 0.950 . S
C5724 H5706 0.951 . S
C5724 C5725 1.366 . S
C5724 C5726 1.388 . S
C5725 C5724 1.366 . S
C5725 C5729 1.385 . S
C5726 H5707 0.951 . S
C5726 C5724 1.388 . S
C5726 C5727 1.366 . S
C5727 C5726 1.366 . S
C5727 C5728 1.414 . S
C5727 C5730 1.499 . S
C5728 H5708 0.950 . S
C5728 C5727 1.414 . S
C5728 C5729 1.374 . S
C5729 H5709 0.950 . S
C5729 C5725 1.385 . S
C5729 C5728 1.374 . S
C5730 C5727 1.499 . S
C5730 C5731 1.373 . S
C5730 C5732 1.389 . S
C5731 H5710 0.950 . S
C5731 C5730 1.373 . S
C5731 C5747 1.377 . S
C5732 C5730 1.389 . S
C5732 C5733 1.524 . S
C5732 C5746 1.377 . S
C5733 C5732 1.524 . S
C5733 C5734 1.397 . S
C5733 C5738 1.363 . S
C5734 H5711 0.950 . S
C5734 C5733 1.397 . S
C5734 C5735 1.334 . S
C5735 H5712 0.950 . S
C5735 C5734 1.334 . S
C5735 C5736 1.287 . S
C5736 C5735 1.287 . S
C5736 C5737 1.524 . S
C5736 H5755 0.913 . S
C5737 H5713 0.950 . S
C5737 C5736 1.524 . S
C5737 C5738 1.415 . S
C5738 H5714 0.950 . S
C5738 C5733 1.363 . S
C5738 C5737 1.415 . S
C5739 H5715 0.951 . S
C5739 C5740 1.366 . S
C5739 C5741 1.388 . S
C5740 C5739 1.366 . S
C5740 C5744 1.385 . S
C5741 H5716 0.951 . S
C5741 C5739 1.388 . S
C5741 C5742 1.366 . S
C5742 C5741 1.366 . S
C5742 C5743 1.414 . S
C5742 C5745 1.499 . S
C5743 H5717 0.950 . S
C5743 C5742 1.414 . S
C5743 C5744 1.374 . S
C5744 H5718 0.950 . S
C5744 C5740 1.385 . S
C5744 C5743 1.374 . S
C5745 C5742 1.499 . S
C5745 C5746 1.373 . S
C5745 C5747 1.389 . S
C5746 H5719 0.950 . S
C5746 C5732 1.377 . S
C5746 C5745 1.373 . S
C5747 C5731 1.377 . S
C5747 C5745 1.389 . S
C5747 C5748 1.524 . S
C5748 C5747 1.524 . S
C5748 C5749 1.397 . S
C5748 C5753 1.363 . S
C5749 H5720 0.950 . S
C5749 C5748 1.397 . S
C5749 C5750 1.334 . S
C5750 H5721 0.950 . S
C5750 C5749 1.334 . S
C5750 C5751 1.287 . S
C5751 C5750 1.287 . S
C5751 C5752 1.524 . S
C5751 H5754 0.999 . S
C5752 H5722 0.950 . S
C5752 C5751 1.524 . S
C5752 C5753 1.415 . S
C5753 H5723 0.950 . S
C5753 C5748 1.363 . S
C5753 C5752 1.415 . S
H5754 C5751 0.999 . S
H5755 C5736 0.913 . S
H5756 C5774 0.951 . S
H5757 C5776 0.951 . S
H5758 C5778 0.950 . S
H5759 C5779 0.950 . S
H5760 C5781 0.950 . S
H5761 C5784 0.950 . S
H5762 C5785 0.950 . S
H5763 C5787 0.950 . S
H5764 C5788 0.950 . S
H5765 C5789 0.951 . S
H5766 C5791 0.951 . S
H5767 C5793 0.951 . S
H5768 C5794 0.950 . S
H5769 C5796 0.950 . S
H5770 C5799 0.950 . S
H5771 C5800 0.950 . S
H5772 C5802 0.950 . S
H5773 C5803 0.943 1_655 S
C5774 H5756 0.951 . S
C5774 C5775 1.366 . S
C5774 C5776 1.388 . S
C5775 C5774 1.366 . S
C5775 C5779 1.385 . S
C5776 H5757 0.951 . S
C5776 C5774 1.388 . S
C5776 C5777 1.366 . S
C5777 C5776 1.366 . S
C5777 C5778 1.414 . S
C5777 C5780 1.499 . S
C5778 H5758 0.950 . S
C5778 C5777 1.414 . S
C5778 C5779 1.374 . S
C5779 H5759 0.950 . S
C5779 C5775 1.385 . S
C5779 C5778 1.374 . S
C5780 C5777 1.499 . S
C5780 C5781 1.373 . S
C5780 C5782 1.389 . S
C5781 H5760 0.950 . S
C5781 C5780 1.373 . S
C5781 C5797 1.377 . S
C5782 C5780 1.389 . S
C5782 C5783 1.524 . S
C5782 C5796 1.377 . S
C5783 C5782 1.524 . S
C5783 C5784 1.397 . S
C5783 C5788 1.363 . S
C5784 H5761 0.950 . S
C5784 C5783 1.397 . S
C5784 C5785 1.334 . S
C5785 H5762 0.950 . S
C5785 C5784 1.334 . S
C5785 C5786 1.287 . S
C5786 C5785 1.287 . S
C5786 C5787 1.524 . S
C5786 H5805 0.913 . S
C5787 H5763 0.950 . S
C5787 C5786 1.524 . S
C5787 C5788 1.415 . S
C5788 H5764 0.950 . S
C5788 C5783 1.363 . S
C5788 C5787 1.415 . S
C5789 H5765 0.951 . S
C5789 C5790 1.366 . S
C5789 C5791 1.388 1_455 S
C5790 C5789 1.366 . S
C5790 C5794 1.385 . S
C5791 H5766 0.951 . S
C5791 C5789 1.388 1_655 S
C5791 C5792 1.366 . S
C5792 C5791 1.366 . S
C5792 C5793 1.432 . S
C5792 C5795 1.499 . S
C5793 H5767 0.951 . S
C5793 C5792 1.432 . S
C5793 C5794 1.357 1_655 S
C5794 H5768 0.950 . S
C5794 C5790 1.385 . S
C5794 C5793 1.357 1_455 S
C5795 C5792 1.499 . S
C5795 C5796 1.373 . S
C5795 C5797 1.389 . S
C5796 H5769 0.950 . S
C5796 C5782 1.377 . S
C5796 C5795 1.373 . S
C5797 C5781 1.377 . S
C5797 C5795 1.389 . S
C5797 C5798 1.524 1_655 S
C5798 C5797 1.524 1_455 S
C5798 C5799 1.397 . S
C5798 C5803 1.365 . S
C5799 H5770 0.950 . S
C5799 C5798 1.397 . S
C5799 C5800 1.334 . S
C5800 H5771 0.950 . S
C5800 C5799 1.334 . S
C5800 C5801 1.287 . S
C5801 C5800 1.287 . S
C5801 C5802 1.524 . S
C5801 H5804 0.999 . S
C5802 H5772 0.950 . S
C5802 C5801 1.524 . S
C5802 C5803 1.420 . S
C5803 H5773 0.943 1_455 S
C5803 C5798 1.365 . S
C5803 C5802 1.420 . S
H5804 C5801 0.999 . S
H5805 C5786 0.913 . S
H5806 C5824 0.951 . S
H5807 C5826 0.951 . S
H5808 C5828 0.950 . S
H5809 C5829 0.950 . S
H5810 C5831 0.950 . S
H5811 C5834 0.950 . S
H5812 C5835 0.950 . S
H5813 C5837 0.950 . S
H5814 C5838 0.950 . S
H5815 C5839 0.951 . S
H5816 C5841 0.951 . S
H5817 C5843 0.950 . S
H5818 C5844 0.950 . S
H5819 C5846 0.950 . S
H5820 C5849 0.950 . S
H5821 C5850 0.950 . S
H5822 C5852 0.950 . S
H5823 C5853 0.950 . S
C5824 H5806 0.951 . S
C5824 C5825 1.366 . S
C5824 C5826 1.388 . S
C5825 C5824 1.366 . S
C5825 C5829 1.385 . S
C5826 H5807 0.951 . S
C5826 C5824 1.388 . S
C5826 C5827 1.366 . S
C5827 C5826 1.366 . S
C5827 C5828 1.414 . S
C5827 C5830 1.499 . S
C5828 H5808 0.950 . S
C5828 C5827 1.414 . S
C5828 C5829 1.374 . S
C5829 H5809 0.950 . S
C5829 C5825 1.385 . S
C5829 C5828 1.374 . S
C5830 C5827 1.499 . S
C5830 C5831 1.373 . S
C5830 C5832 1.389 . S
C5831 H5810 0.950 . S
C5831 C5830 1.373 . S
C5831 C5847 1.377 . S
C5832 C5830 1.389 . S
C5832 C5833 1.524 . S
C5832 C5846 1.377 . S
C5833 C5832 1.524 . S
C5833 C5834 1.397 . S
C5833 C5838 1.363 . S
C5834 H5811 0.950 . S
C5834 C5833 1.397 . S
C5834 C5835 1.334 . S
C5835 H5812 0.950 . S
C5835 C5834 1.334 . S
C5835 C5836 1.287 . S
C5836 C5835 1.287 . S
C5836 C5837 1.524 . S
C5836 H5855 0.913 . S
C5837 H5813 0.950 . S
C5837 C5836 1.524 . S
C5837 C5838 1.415 . S
C5838 H5814 0.950 . S
C5838 C5833 1.363 . S
C5838 C5837 1.415 . S
C5839 H5815 0.951 . S
C5839 C5840 1.366 . S
C5839 C5841 1.388 . S
C5840 C5839 1.366 . S
C5840 C5844 1.385 . S
C5841 H5816 0.951 . S
C5841 C5839 1.388 . S
C5841 C5842 1.366 . S
C5842 C5841 1.366 . S
C5842 C5843 1.414 . S
C5842 C5845 1.499 . S
C5843 H5817 0.950 . S
C5843 C5842 1.414 . S
C5843 C5844 1.374 . S
C5844 H5818 0.950 . S
C5844 C5840 1.385 . S
C5844 C5843 1.374 . S
C5845 C5842 1.499 . S
C5845 C5846 1.373 . S
C5845 C5847 1.389 . S
C5846 H5819 0.950 . S
C5846 C5832 1.377 . S
C5846 C5845 1.373 . S
C5847 C5831 1.377 . S
C5847 C5845 1.389 . S
C5847 C5848 1.524 . S
C5848 C5847 1.524 . S
C5848 C5849 1.397 . S
C5848 C5853 1.363 . S
C5849 H5820 0.950 . S
C5849 C5848 1.397 . S
C5849 C5850 1.334 . S
C5850 H5821 0.950 . S
C5850 C5849 1.334 . S
C5850 C5851 1.287 . S
C5851 C5850 1.287 . S
C5851 C5852 1.524 . S
C5851 H5854 0.999 . S
C5852 H5822 0.950 . S
C5852 C5851 1.524 . S
C5852 C5853 1.415 . S
C5853 H5823 0.950 . S
C5853 C5848 1.363 . S
C5853 C5852 1.415 . S
H5854 C5851 0.999 . S
H5855 C5836 0.913 . S
H5856 C5874 0.951 . S
H5857 C5876 0.951 . S
H5858 C5878 0.950 . S
H5859 C5879 0.950 . S
H5860 C5881 0.950 . S
H5861 C5884 0.950 . S
H5862 C5885 0.950 . S
H5863 C5887 0.950 . S
H5864 C5888 0.950 . S
H5865 C5889 0.951 . S
H5866 C5891 0.951 . S
H5867 C5893 0.950 . S
H5868 C5894 0.950 . S
H5869 C5896 0.950 . S
H5870 C5899 0.950 . S
H5871 C5900 0.950 . S
H5872 C5902 0.950 . S
H5873 C5903 0.950 . S
C5874 H5856 0.951 . S
C5874 C5875 1.366 . S
C5874 C5876 1.388 . S
C5875 C5874 1.366 . S
C5875 C5879 1.385 . S
C5876 H5857 0.951 . S
C5876 C5874 1.388 . S
C5876 C5877 1.366 . S
C5877 C5876 1.366 . S
C5877 C5878 1.414 . S
C5877 C5880 1.499 . S
C5878 H5858 0.950 . S
C5878 C5877 1.414 . S
C5878 C5879 1.374 . S
C5879 H5859 0.950 . S
C5879 C5875 1.385 . S
C5879 C5878 1.374 . S
C5880 C5877 1.499 . S
C5880 C5881 1.373 . S
C5880 C5882 1.389 . S
C5881 H5860 0.950 . S
C5881 C5880 1.373 . S
C5881 C5897 1.377 . S
C5882 C5880 1.389 . S
C5882 C5883 1.524 . S
C5882 C5896 1.377 . S
C5883 C5882 1.524 . S
C5883 C5884 1.397 . S
C5883 C5888 1.363 . S
C5884 H5861 0.950 . S
C5884 C5883 1.397 . S
C5884 C5885 1.334 . S
C5885 H5862 0.950 . S
C5885 C5884 1.334 . S
C5885 C5886 1.287 . S
C5886 C5885 1.287 . S
C5886 C5887 1.524 . S
C5886 H5905 0.913 . S
C5887 H5863 0.950 . S
C5887 C5886 1.524 . S
C5887 C5888 1.415 . S
C5888 H5864 0.950 . S
C5888 C5883 1.363 . S
C5888 C5887 1.415 . S
C5889 H5865 0.951 . S
C5889 C5890 1.366 . S
C5889 C5891 1.388 . S
C5890 C5889 1.366 . S
C5890 C5894 1.385 . S
C5891 H5866 0.951 . S
C5891 C5889 1.388 . S
C5891 C5892 1.366 . S
C5892 C5891 1.366 . S
C5892 C5893 1.414 . S
C5892 C5895 1.499 . S
C5893 H5867 0.950 . S
C5893 C5892 1.414 . S
C5893 C5894 1.374 . S
C5894 H5868 0.950 . S
C5894 C5890 1.385 . S
C5894 C5893 1.374 . S
C5895 C5892 1.499 . S
C5895 C5896 1.373 . S
C5895 C5897 1.389 . S
C5896 H5869 0.950 . S
C5896 C5882 1.377 . S
C5896 C5895 1.373 . S
C5897 C5881 1.377 . S
C5897 C5895 1.389 . S
C5897 C5898 1.524 . S
C5898 C5897 1.524 . S
C5898 C5899 1.397 . S
C5898 C5903 1.363 . S
C5899 H5870 0.950 . S
C5899 C5898 1.397 . S
C5899 C5900 1.334 . S
C5900 H5871 0.950 . S
C5900 C5899 1.334 . S
C5900 C5901 1.287 . S
C5901 C5900 1.287 . S
C5901 C5902 1.524 . S
C5901 H5904 0.999 . S
C5902 H5872 0.950 . S
C5902 C5901 1.524 . S
C5902 C5903 1.415 . S
C5903 H5873 0.950 . S
C5903 C5898 1.363 . S
C5903 C5902 1.415 . S
H5904 C5901 0.999 . S
H5905 C5886 0.913 . S
H5906 C5924 0.951 . S
H5907 C5926 0.951 . S
H5908 C5928 0.950 . S
H5909 C5929 0.950 . S
H5910 C5931 0.950 . S
H5911 C5934 0.950 . S
H5912 C5935 0.950 . S
H5913 C5937 0.950 . S
H5914 C5938 0.950 . S
H5915 C5939 0.951 . S
H5916 C5941 0.951 . S
H5917 C5943 0.950 . S
H5918 C5944 0.950 . S
H5919 C5946 0.950 . S
H5920 C5949 0.950 . S
H5921 C5950 0.950 . S
H5922 C5952 0.950 . S
H5923 C5953 0.950 . S
C5924 H5906 0.951 . S
C5924 C5925 1.366 . S
C5924 C5926 1.388 . S
C5925 C5924 1.366 . S
C5925 C5929 1.385 . S
C5926 H5907 0.951 . S
C5926 C5924 1.388 . S
C5926 C5927 1.366 . S
C5927 C5926 1.366 . S
C5927 C5928 1.414 . S
C5927 C5930 1.499 . S
C5928 H5908 0.950 . S
C5928 C5927 1.414 . S
C5928 C5929 1.374 . S
C5929 H5909 0.950 . S
C5929 C5925 1.385 . S
C5929 C5928 1.374 . S
C5930 C5927 1.499 . S
C5930 C5931 1.373 . S
C5930 C5932 1.389 . S
C5931 H5910 0.950 . S
C5931 C5930 1.373 . S
C5931 C5947 1.377 . S
C5932 C5930 1.389 . S
C5932 C5933 1.524 . S
C5932 C5946 1.377 . S
C5933 C5932 1.524 . S
C5933 C5934 1.397 . S
C5933 C5938 1.363 . S
C5934 H5911 0.950 . S
C5934 C5933 1.397 . S
C5934 C5935 1.334 . S
C5935 H5912 0.950 . S
C5935 C5934 1.334 . S
C5935 C5936 1.287 . S
C5936 C5935 1.287 . S
C5936 C5937 1.524 . S
C5936 H5955 0.913 . S
C5937 H5913 0.950 . S
C5937 C5936 1.524 . S
C5937 C5938 1.415 . S
C5938 H5914 0.950 . S
C5938 C5933 1.363 . S
C5938 C5937 1.415 . S
C5939 H5915 0.951 . S
C5939 C5940 1.366 . S
C5939 C5941 1.388 . S
C5940 C5939 1.366 . S
C5940 C5944 1.385 . S
C5941 H5916 0.951 . S
C5941 C5939 1.388 . S
C5941 C5942 1.366 . S
C5942 C5941 1.366 . S
C5942 C5943 1.414 . S
C5942 C5945 1.499 . S
C5943 H5917 0.950 . S
C5943 C5942 1.414 . S
C5943 C5944 1.374 . S
C5944 H5918 0.950 . S
C5944 C5940 1.385 . S
C5944 C5943 1.374 . S
C5945 C5942 1.499 . S
C5945 C5946 1.373 . S
C5945 C5947 1.389 . S
C5946 H5919 0.950 . S
C5946 C5932 1.377 . S
C5946 C5945 1.373 . S
C5947 C5931 1.377 . S
C5947 C5945 1.389 . S
C5947 C5948 1.524 . S
C5948 C5947 1.524 . S
C5948 C5949 1.397 . S
C5948 C5953 1.363 . S
C5949 H5920 0.950 . S
C5949 C5948 1.397 . S
C5949 C5950 1.334 . S
C5950 H5921 0.950 . S
C5950 C5949 1.334 . S
C5950 C5951 1.287 . S
C5951 C5950 1.287 . S
C5951 C5952 1.524 . S
C5951 H5954 0.999 . S
C5952 H5922 0.950 . S
C5952 C5951 1.524 . S
C5952 C5953 1.415 . S
C5953 H5923 0.950 . S
C5953 C5948 1.363 . S
C5953 C5952 1.415 . S
H5954 C5951 0.999 . S
H5955 C5936 0.913 . S
H5956 C5974 0.951 . S
H5957 C5976 0.951 . S
H5958 C5978 0.950 . S
H5959 C5979 0.950 . S
H5960 C5981 0.950 . S
H5961 C5984 0.950 . S
H5962 C5985 0.950 . S
H5963 C5987 0.950 . S
H5964 C5988 0.950 . S
H5965 C5989 0.951 . S
H5966 C5991 0.951 . S
H5967 C5993 0.950 . S
H5968 C5994 0.950 1_455 S
H5969 C5996 0.950 . S
H5970 C5999 0.950 . S
H5971 C6000 0.950 . S
H5972 C6002 0.950 . S
H5973 C6003 0.950 . S
C5974 H5956 0.951 . S
C5974 C5975 1.366 . S
C5974 C5976 1.388 . S
C5975 C5974 1.366 . S
C5975 C5979 1.385 . S
C5976 H5957 0.951 . S
C5976 C5974 1.388 . S
C5976 C5977 1.366 . S
C5977 C5976 1.366 . S
C5977 C5978 1.414 . S
C5977 C5980 1.499 . S
C5978 H5958 0.950 . S
C5978 C5977 1.414 . S
C5978 C5979 1.374 . S
C5979 H5959 0.950 . S
C5979 C5975 1.385 . S
C5979 C5978 1.374 . S
C5980 C5977 1.499 . S
C5980 C5981 1.373 . S
C5980 C5982 1.389 . S
C5981 H5960 0.950 . S
C5981 C5980 1.373 . S
C5981 C5997 1.377 . S
C5982 C5980 1.389 . S
C5982 C5983 1.524 . S
C5982 C5996 1.377 . S
C5983 C5982 1.524 . S
C5983 C5984 1.397 . S
C5983 C5988 1.363 . S
C5984 H5961 0.950 . S
C5984 C5983 1.397 . S
C5984 C5985 1.334 . S
C5985 H5962 0.950 . S
C5985 C5984 1.334 . S
C5985 C5986 1.287 . S
C5986 C5985 1.287 . S
C5986 C5987 1.524 1_655 S
C5986 H6005 0.913 1_655 S
C5987 H5963 0.950 . S
C5987 C5986 1.524 1_455 S
C5987 C5988 1.415 1_455 S
C5988 H5964 0.950 . S
C5988 C5983 1.363 . S
C5988 C5987 1.415 1_655 S
C5989 H5965 0.951 . S
C5989 C5990 1.366 . S
C5989 C5991 1.388 . S
C5990 C5989 1.366 . S
C5990 C5994 1.385 . S
C5991 H5966 0.951 . S
C5991 C5989 1.388 . S
C5991 C5992 1.366 . S
C5992 C5991 1.366 . S
C5992 C5993 1.414 . S
C5992 C5995 1.499 . S
C5993 H5967 0.950 . S
C5993 C5992 1.414 . S
C5993 C5994 1.374 . S
C5994 H5968 0.950 1_655 S
C5994 C5990 1.385 . S
C5994 C5993 1.374 . S
C5995 C5992 1.499 . S
C5995 C5996 1.373 . S
C5995 C5997 1.389 . S
C5996 H5969 0.950 . S
C5996 C5982 1.377 . S
C5996 C5995 1.373 . S
C5997 C5981 1.377 . S
C5997 C5995 1.389 . S
C5997 C5998 1.524 . S
C5998 C5997 1.524 . S
C5998 C5999 1.397 . S
C5998 C6003 1.363 . S
C5999 H5970 0.950 . S
C5999 C5998 1.397 . S
C5999 C6000 1.334 . S
C6000 H5971 0.950 . S
C6000 C5999 1.334 . S
C6000 C6001 1.287 . S
C6001 C6000 1.287 . S
C6001 C6002 1.524 . S
C6001 H6004 0.999 . S
C6002 H5972 0.950 . S
C6002 C6001 1.524 . S
C6002 C6003 1.415 . S
C6003 H5973 0.950 . S
C6003 C5998 1.363 . S
C6003 C6002 1.415 . S
H6004 C6001 0.999 . S
H6005 C5986 0.913 1_455 S
H6006 C6024 0.951 . S
H6007 C6026 0.951 . S
H6008 C6028 0.950 . S
H6009 C6029 0.950 . S
H6010 C6031 0.950 . S
H6011 C6034 0.950 . S
H6012 C6035 0.950 . S
H6013 C6037 0.950 . S
H6014 C6038 0.950 . S
H6015 C6039 0.951 . S
H6016 C6041 0.951 . S
H6017 C6043 0.950 . S
H6018 C6044 0.950 . S
H6019 C6046 0.950 . S
H6020 C6049 0.950 . S
H6021 C6050 0.950 . S
H6022 C6052 0.950 . S
H6023 C6053 0.950 . S
C6024 H6006 0.951 . S
C6024 C6025 1.366 . S
C6024 C6026 1.388 . S
C6025 C6024 1.366 . S
C6025 C6029 1.385 . S
C6026 H6007 0.951 . S
C6026 C6024 1.388 . S
C6026 C6027 1.366 . S
C6027 C6026 1.366 . S
C6027 C6028 1.414 . S
C6027 C6030 1.499 . S
C6028 H6008 0.950 . S
C6028 C6027 1.414 . S
C6028 C6029 1.374 . S
C6029 H6009 0.950 . S
C6029 C6025 1.385 . S
C6029 C6028 1.374 . S
C6030 C6027 1.499 . S
C6030 C6031 1.373 . S
C6030 C6032 1.389 . S
C6031 H6010 0.950 . S
C6031 C6030 1.373 . S
C6031 C6047 1.377 . S
C6032 C6030 1.389 . S
C6032 C6033 1.524 . S
C6032 C6046 1.377 . S
C6033 C6032 1.524 . S
C6033 C6034 1.397 . S
C6033 C6038 1.363 . S
C6034 H6011 0.950 . S
C6034 C6033 1.397 . S
C6034 C6035 1.334 . S
C6035 H6012 0.950 . S
C6035 C6034 1.334 . S
C6035 C6036 1.287 . S
C6036 C6035 1.287 . S
C6036 C6037 1.524 . S
C6036 H6055 0.913 . S
C6037 H6013 0.950 . S
C6037 C6036 1.524 . S
C6037 C6038 1.415 . S
C6038 H6014 0.950 . S
C6038 C6033 1.363 . S
C6038 C6037 1.415 . S
C6039 H6015 0.951 . S
C6039 C6040 1.366 . S
C6039 C6041 1.388 . S
C6040 C6039 1.366 . S
C6040 C6044 1.385 . S
C6041 H6016 0.951 . S
C6041 C6039 1.388 . S
C6041 C6042 1.366 . S
C6042 C6041 1.366 . S
C6042 C6043 1.414 . S
C6042 C6045 1.499 . S
C6043 H6017 0.950 . S
C6043 C6042 1.414 . S
C6043 C6044 1.374 . S
C6044 H6018 0.950 . S
C6044 C6040 1.385 . S
C6044 C6043 1.374 . S
C6045 C6042 1.499 . S
C6045 C6046 1.373 . S
C6045 C6047 1.389 . S
C6046 H6019 0.950 . S
C6046 C6032 1.377 . S
C6046 C6045 1.373 . S
C6047 C6031 1.377 . S
C6047 C6045 1.389 . S
C6047 C6048 1.524 . S
C6048 C6047 1.524 . S
C6048 C6049 1.397 . S
C6048 C6053 1.363 . S
C6049 H6020 0.950 . S
C6049 C6048 1.397 . S
C6049 C6050 1.334 . S
C6050 H6021 0.950 . S
C6050 C6049 1.334 . S
C6050 C6051 1.287 . S
C6051 C6050 1.287 . S
C6051 C6052 1.524 . S
C6051 H6054 0.999 . S
C6052 H6022 0.950 . S
C6052 C6051 1.524 . S
C6052 C6053 1.415 . S
C6053 H6023 0.950 . S
C6053 C6048 1.363 . S
C6053 C6052 1.415 . S
H6054 C6051 0.999 . S
H6055 C6036 0.913 . S
H6056 C6074 0.951 . S
H6057 C6076 0.951 . S
H6058 C6078 0.950 . S
H6059 C6079 0.950 . S
H6060 C6081 0.950 . S
H6061 C6084 0.950 . S
H6062 C6085 0.950 . S
H6063 C6087 0.950 . S
H6064 C6088 0.950 . S
H6065 C6089 0.951 . S
H6066 C6091 0.951 . S
H6067 C6093 0.950 . S
H6068 C6094 0.950 . S
H6069 C6096 0.950 . S
H6070 C6099 0.950 . S
H6071 C6100 0.950 . S
H6072 C6102 0.950 . S
H6073 C6103 0.950 . S
C6074 H6056 0.951 . S
C6074 C6075 1.366 . S
C6074 C6076 1.388 . S
C6075 C6074 1.366 . S
C6075 C6079 1.385 . S
C6076 H6057 0.951 . S
C6076 C6074 1.388 . S
C6076 C6077 1.366 . S
C6077 C6076 1.366 . S
C6077 C6078 1.414 . S
C6077 C6080 1.499 . S
C6078 H6058 0.950 . S
C6078 C6077 1.414 . S
C6078 C6079 1.374 . S
C6079 H6059 0.950 . S
C6079 C6075 1.385 . S
C6079 C6078 1.374 . S
C6080 C6077 1.499 . S
C6080 C6081 1.373 . S
C6080 C6082 1.389 . S
C6081 H6060 0.950 . S
C6081 C6080 1.373 . S
C6081 C6097 1.377 . S
C6082 C6080 1.389 . S
C6082 C6083 1.524 . S
C6082 C6096 1.377 . S
C6083 C6082 1.524 . S
C6083 C6084 1.397 . S
C6083 C6088 1.363 . S
C6084 H6061 0.950 . S
C6084 C6083 1.397 . S
C6084 C6085 1.334 . S
C6085 H6062 0.950 . S
C6085 C6084 1.334 . S
C6085 C6086 1.287 . S
C6086 C6085 1.287 . S
C6086 C6087 1.524 . S
C6086 H6105 0.913 . S
C6087 H6063 0.950 . S
C6087 C6086 1.524 . S
C6087 C6088 1.415 . S
C6088 H6064 0.950 . S
C6088 C6083 1.363 . S
C6088 C6087 1.415 . S
C6089 H6065 0.951 . S
C6089 C6090 1.366 . S
C6089 C6091 1.388 . S
C6090 C6089 1.366 . S
C6090 C6094 1.385 . S
C6091 H6066 0.951 . S
C6091 C6089 1.388 . S
C6091 C6092 1.366 . S
C6092 C6091 1.366 . S
C6092 C6093 1.414 . S
C6092 C6095 1.499 . S
C6093 H6067 0.950 . S
C6093 C6092 1.414 . S
C6093 C6094 1.374 . S
C6094 H6068 0.950 . S
C6094 C6090 1.385 . S
C6094 C6093 1.374 . S
C6095 C6092 1.499 . S
C6095 C6096 1.373 . S
C6095 C6097 1.389 . S
C6096 H6069 0.950 . S
C6096 C6082 1.377 . S
C6096 C6095 1.373 . S
C6097 C6081 1.377 . S
C6097 C6095 1.389 . S
C6097 C6098 1.524 . S
C6098 C6097 1.524 . S
C6098 C6099 1.397 . S
C6098 C6103 1.363 . S
C6099 H6070 0.950 . S
C6099 C6098 1.397 . S
C6099 C6100 1.334 . S
C6100 H6071 0.950 . S
C6100 C6099 1.334 . S
C6100 C6101 1.287 . S
C6101 C6100 1.287 . S
C6101 C6102 1.524 . S
C6101 H6104 0.999 . S
C6102 H6072 0.950 . S
C6102 C6101 1.524 . S
C6102 C6103 1.415 . S
C6103 H6073 0.950 . S
C6103 C6098 1.363 . S
C6103 C6102 1.415 . S
H6104 C6101 0.999 . S
H6105 C6086 0.913 . S
H6106 C6124 0.951 . S
H6107 C6126 0.951 . S
H6108 C6128 0.950 . S
H6109 C6129 0.950 . S
H6110 C6131 0.950 . S
H6111 C6134 0.950 . S
H6112 C6135 0.950 . S
H6113 C6137 0.950 . S
H6114 C6138 0.950 . S
H6115 C6139 0.951 1_455 S
H6116 C6141 0.951 . S
H6117 C6143 0.950 . S
H6118 C6144 0.950 1_545 S
H6119 C6146 0.950 . S
H6120 C6149 0.934 1_545 S
H6121 C6150 0.950 . S
H6122 C6152 0.950 . S
H6123 C6153 0.950 . S
C6124 H6106 0.951 . S
C6124 C6125 1.366 . S
C6124 C6126 1.388 . S
C6125 C6124 1.366 . S
C6125 C6129 1.385 . S
C6126 H6107 0.951 . S
C6126 C6124 1.388 . S
C6126 C6127 1.366 . S
C6127 C6126 1.366 . S
C6127 C6128 1.414 . S
C6127 C6130 1.499 . S
C6128 H6108 0.950 . S
C6128 C6127 1.414 . S
C6128 C6129 1.374 . S
C6129 H6109 0.950 . S
C6129 C6125 1.385 . S
C6129 C6128 1.374 . S
C6130 C6127 1.499 . S
C6130 C6131 1.373 . S
C6130 C6132 1.389 . S
C6131 H6110 0.950 . S
C6131 C6130 1.373 . S
C6131 C6147 1.377 . S
C6132 C6130 1.389 . S
C6132 C6133 1.524 . S
C6132 C6146 1.377 . S
C6133 C6132 1.524 . S
C6133 C6134 1.397 . S
C6133 C6138 1.363 . S
C6134 H6111 0.950 . S
C6134 C6133 1.397 . S
C6134 C6135 1.334 . S
C6135 H6112 0.950 . S
C6135 C6134 1.334 . S
C6135 C6136 1.287 . S
C6136 C6135 1.287 . S
C6136 C6137 1.524 . S
C6136 H6155 0.913 . S
C6137 H6113 0.950 . S
C6137 C6136 1.524 . S
C6137 C6138 1.415 . S
C6138 H6114 0.950 . S
C6138 C6133 1.363 . S
C6138 C6137 1.415 . S
C6139 H6115 0.951 1_655 S
C6139 C6140 1.366 . S
C6139 C6141 1.388 . S
C6140 C6139 1.366 . S
C6140 C6144 1.385 . S
C6141 H6116 0.951 . S
C6141 C6139 1.388 . S
C6141 C6142 1.366 . S
C6142 C6141 1.366 . S
C6142 C6143 1.414 . S
C6142 C6145 1.499 . S
C6143 H6117 0.950 . S
C6143 C6142 1.414 . S
C6143 C6144 1.374 . S
C6144 H6118 0.950 1_565 S
C6144 C6140 1.385 . S
C6144 C6143 1.374 . S
C6145 C6142 1.499 . S
C6145 C6146 1.373 . S
C6145 C6147 1.389 . S
C6146 H6119 0.950 . S
C6146 C6132 1.377 . S
C6146 C6145 1.373 . S
C6147 C6131 1.377 . S
C6147 C6145 1.389 . S
C6147 C6148 1.524 . S
C6148 C6147 1.524 . S
C6148 C6149 1.397 . S
C6148 C6153 1.363 . S
C6149 H6120 0.934 1_565 S
C6149 C6148 1.397 . S
C6149 C6150 1.334 1_565 S
C6150 H6121 0.950 . S
C6150 C6149 1.334 1_545 S
C6150 C6151 1.287 . S
C6151 C6150 1.287 . S
C6151 C6152 1.524 1_545 S
C6151 H6154 0.999 . S
C6152 H6122 0.950 . S
C6152 C6151 1.524 1_565 S
C6152 C6153 1.415 . S
C6153 H6123 0.950 . S
C6153 C6148 1.363 . S
C6153 C6152 1.415 . S
H6154 C6151 0.999 . S
H6155 C6136 0.913 . S
H6156 C6174 0.951 . S
H6157 C6176 0.951 . S
H6158 C6178 0.950 . S
H6159 C6179 0.950 . S
H6160 C6181 0.950 . S
H6161 C6184 0.950 . S
H6162 C6185 0.950 . S
H6163 C6187 0.950 . S
H6164 C6188 0.950 . S
H6165 C6189 0.951 . S
H6166 C6191 0.951 . S
H6167 C6193 0.950 . S
H6168 C6194 0.950 . S
H6169 C6196 0.950 . S
H6170 C6199 0.950 . S
H6171 C6200 0.950 . S
H6172 C6202 0.950 . S
H6173 C6203 0.950 . S
C6174 H6156 0.951 . S
C6174 C6175 1.366 . S
C6174 C6176 1.388 . S
C6175 C6174 1.366 . S
C6175 C6179 1.385 . S
C6176 H6157 0.951 . S
C6176 C6174 1.388 . S
C6176 C6177 1.366 . S
C6177 C6176 1.366 . S
C6177 C6178 1.414 . S
C6177 C6180 1.499 . S
C6178 H6158 0.950 . S
C6178 C6177 1.414 . S
C6178 C6179 1.374 . S
C6179 H6159 0.950 . S
C6179 C6175 1.385 . S
C6179 C6178 1.374 . S
C6180 C6177 1.499 . S
C6180 C6181 1.373 . S
C6180 C6182 1.389 . S
C6181 H6160 0.950 . S
C6181 C6180 1.373 . S
C6181 C6197 1.377 . S
C6182 C6180 1.389 . S
C6182 C6183 1.524 . S
C6182 C6196 1.377 . S
C6183 C6182 1.524 . S
C6183 C6184 1.397 . S
C6183 C6188 1.363 . S
C6184 H6161 0.950 . S
C6184 C6183 1.397 . S
C6184 C6185 1.334 . S
C6185 H6162 0.950 . S
C6185 C6184 1.334 . S
C6185 C6186 1.287 . S
C6186 C6185 1.287 . S
C6186 C6187 1.524 . S
C6186 H6205 0.913 . S
C6187 H6163 0.950 . S
C6187 C6186 1.524 . S
C6187 C6188 1.415 . S
C6188 H6164 0.950 . S
C6188 C6183 1.363 . S
C6188 C6187 1.415 . S
C6189 H6165 0.951 . S
C6189 C6190 1.366 . S
C6189 C6191 1.388 . S
C6190 C6189 1.366 . S
C6190 C6194 1.385 . S
C6191 H6166 0.951 . S
C6191 C6189 1.388 . S
C6191 C6192 1.366 . S
C6192 C6191 1.366 . S
C6192 C6193 1.414 . S
C6192 C6195 1.499 . S
C6193 H6167 0.950 . S
C6193 C6192 1.414 . S
C6193 C6194 1.374 . S
C6194 H6168 0.950 . S
C6194 C6190 1.385 . S
C6194 C6193 1.374 . S
C6195 C6192 1.499 . S
C6195 C6196 1.373 . S
C6195 C6197 1.389 . S
C6196 H6169 0.950 . S
C6196 C6182 1.377 . S
C6196 C6195 1.373 . S
C6197 C6181 1.377 . S
C6197 C6195 1.389 . S
C6197 C6198 1.524 . S
C6198 C6197 1.524 . S
C6198 C6199 1.397 . S
C6198 C6203 1.363 . S
C6199 H6170 0.950 . S
C6199 C6198 1.397 . S
C6199 C6200 1.334 . S
C6200 H6171 0.950 . S
C6200 C6199 1.334 . S
C6200 C6201 1.287 . S
C6201 C6200 1.287 . S
C6201 C6202 1.524 . S
C6201 H6204 0.999 . S
C6202 H6172 0.950 . S
C6202 C6201 1.524 . S
C6202 C6203 1.415 . S
C6203 H6173 0.950 . S
C6203 C6198 1.363 . S
C6203 C6202 1.415 . S
H6204 C6201 0.999 . S
H6205 C6186 0.913 . S
H6206 C6224 0.951 . S
H6207 C6226 0.951 . S
H6208 C6228 0.950 . S
H6209 C6229 0.950 . S
H6210 C6231 0.950 . S
H6211 C6234 0.950 . S
H6212 C6235 0.950 . S
H6213 C6237 0.950 . S
H6214 C6238 0.950 1_554 S
H6215 C6239 0.934 1_556 S
H6216 C6241 0.951 . S
H6217 C6243 0.950 . S
H6218 C6244 0.950 . S
H6219 C6246 0.950 1_556 S
H6220 C6249 0.950 . S
H6221 C6250 0.950 . S
H6222 C6252 0.950 . S
H6223 C6253 0.950 . S
C6224 H6206 0.951 . S
C6224 C6225 1.366 . S
C6224 C6226 1.388 . S
C6225 C6224 1.366 . S
C6225 C6229 1.385 . S
C6226 H6207 0.951 . S
C6226 C6224 1.388 . S
C6226 C6227 1.366 . S
C6227 C6226 1.366 . S
C6227 C6228 1.414 . S
C6227 C6230 1.499 . S
C6228 H6208 0.950 . S
C6228 C6227 1.414 . S
C6228 C6229 1.374 . S
C6229 H6209 0.950 . S
C6229 C6225 1.385 . S
C6229 C6228 1.374 . S
C6230 C6227 1.499 . S
C6230 C6231 1.373 . S
C6230 C6232 1.389 . S
C6231 H6210 0.950 . S
C6231 C6230 1.373 . S
C6231 C6247 1.377 . S
C6232 C6230 1.389 . S
C6232 C6233 1.524 1_554 S
C6232 C6246 1.377 . S
C6233 C6232 1.524 1_556 S
C6233 C6234 1.397 . S
C6233 C6238 1.363 . S
C6234 H6211 0.950 . S
C6234 C6233 1.397 . S
C6234 C6235 1.334 . S
C6235 H6212 0.950 . S
C6235 C6234 1.334 . S
C6235 C6236 1.287 . S
C6236 C6235 1.287 . S
C6236 C6237 1.524 . S
C6236 H6255 0.913 . S
C6237 H6213 0.950 . S
C6237 C6236 1.524 . S
C6237 C6238 1.415 . S
C6238 H6214 0.950 1_556 S
C6238 C6233 1.363 . S
C6238 C6237 1.415 . S
C6239 H6215 0.934 1_554 S
C6239 C6240 1.366 . S
C6239 C6241 1.388 . S
C6240 C6239 1.366 . S
C6240 C6244 1.385 . S
C6241 H6216 0.951 . S
C6241 C6239 1.388 . S
C6241 C6242 1.366 . S
C6242 C6241 1.366 . S
C6242 C6243 1.414 . S
C6242 C6245 1.499 . S
C6243 H6217 0.950 . S
C6243 C6242 1.414 . S
C6243 C6244 1.374 . S
C6244 H6218 0.950 . S
C6244 C6240 1.385 . S
C6244 C6243 1.374 . S
C6245 C6242 1.499 . S
C6245 C6246 1.373 . S
C6245 C6247 1.389 . S
C6246 H6219 0.950 1_554 S
C6246 C6232 1.377 . S
C6246 C6245 1.373 . S
C6247 C6231 1.377 . S
C6247 C6245 1.389 . S
C6247 C6248 1.524 . S
C6248 C6247 1.524 . S
C6248 C6249 1.397 . S
C6248 C6253 1.363 . S
C6249 H6220 0.950 . S
C6249 C6248 1.397 . S
C6249 C6250 1.334 . S
C6250 H6221 0.950 . S
C6250 C6249 1.334 . S
C6250 C6251 1.287 . S
C6251 C6250 1.287 . S
C6251 C6252 1.524 . S
C6251 H6254 0.999 . S
C6252 H6222 0.950 . S
C6252 C6251 1.524 . S
C6252 C6253 1.415 . S
C6253 H6223 0.950 . S
C6253 C6248 1.363 . S
C6253 C6252 1.415 . S
H6254 C6251 0.999 . S
H6255 C6236 0.913 . S
H6256 C6274 0.951 . S
H6257 C6276 0.951 . S
H6258 C6278 0.950 . S
H6259 C6279 0.950 . S
H6260 C6281 0.950 . S
H6261 C6284 0.950 . S
H6262 C6285 0.950 . S
H6263 C6287 0.950 . S
H6264 C6288 0.950 . S
H6265 C6289 0.951 . S
H6266 C6291 0.951 . S
H6267 C6293 0.950 . S
H6268 C6294 0.950 . S
H6269 C6296 0.950 . S
H6270 C6299 0.950 . S
H6271 C6300 0.950 . S
H6272 C6302 0.950 . S
H6273 C6303 0.950 . S
C6274 H6256 0.951 . S
C6274 C6275 1.366 . S
C6274 C6276 1.388 . S
C6275 C6274 1.366 . S
C6275 C6279 1.385 . S
C6276 H6257 0.951 . S
C6276 C6274 1.388 . S
C6276 C6277 1.366 . S
C6277 C6276 1.366 . S
C6277 C6278 1.414 . S
C6277 C6280 1.499 . S
C6278 H6258 0.950 . S
C6278 C6277 1.414 . S
C6278 C6279 1.374 . S
C6279 H6259 0.950 . S
C6279 C6275 1.385 . S
C6279 C6278 1.374 . S
C6280 C6277 1.499 . S
C6280 C6281 1.373 . S
C6280 C6282 1.389 . S
C6281 H6260 0.950 . S
C6281 C6280 1.373 . S
C6281 C6297 1.377 . S
C6282 C6280 1.389 . S
C6282 C6283 1.524 . S
C6282 C6296 1.377 . S
C6283 C6282 1.524 . S
C6283 C6284 1.397 . S
C6283 C6288 1.363 . S
C6284 H6261 0.950 . S
C6284 C6283 1.397 . S
C6284 C6285 1.334 . S
C6285 H6262 0.950 . S
C6285 C6284 1.334 . S
C6285 C6286 1.287 . S
C6286 C6285 1.287 . S
C6286 C6287 1.524 . S
C6286 H6305 0.913 . S
C6287 H6263 0.950 . S
C6287 C6286 1.524 . S
C6287 C6288 1.415 . S
C6288 H6264 0.950 . S
C6288 C6283 1.363 . S
C6288 C6287 1.415 . S
C6289 H6265 0.951 . S
C6289 C6290 1.366 . S
C6289 C6291 1.388 . S
C6290 C6289 1.366 . S
C6290 C6294 1.385 . S
C6291 H6266 0.951 . S
C6291 C6289 1.388 . S
C6291 C6292 1.366 . S
C6292 C6291 1.366 . S
C6292 C6293 1.414 . S
C6292 C6295 1.499 . S
C6293 H6267 0.950 . S
C6293 C6292 1.414 . S
C6293 C6294 1.374 . S
C6294 H6268 0.950 . S
C6294 C6290 1.385 . S
C6294 C6293 1.374 . S
C6295 C6292 1.499 . S
C6295 C6296 1.373 . S
C6295 C6297 1.389 . S
C6296 H6269 0.950 . S
C6296 C6282 1.377 . S
C6296 C6295 1.373 . S
C6297 C6281 1.377 . S
C6297 C6295 1.389 . S
C6297 C6298 1.524 . S
C6298 C6297 1.524 . S
C6298 C6299 1.397 . S
C6298 C6303 1.363 . S
C6299 H6270 0.950 . S
C6299 C6298 1.397 . S
C6299 C6300 1.334 . S
C6300 H6271 0.950 . S
C6300 C6299 1.334 . S
C6300 C6301 1.287 . S
C6301 C6300 1.287 . S
C6301 C6302 1.524 . S
C6301 H6304 0.999 . S
C6302 H6272 0.950 . S
C6302 C6301 1.524 . S
C6302 C6303 1.415 . S
C6303 H6273 0.950 . S
C6303 C6298 1.363 . S
C6303 C6302 1.415 . S
H6304 C6301 0.999 . S
H6305 C6286 0.913 . S
H6306 C6324 0.951 . S
H6307 C6326 0.951 . S
H6308 C6328 0.950 . S
H6309 C6329 0.950 . S
H6310 C6331 0.950 . S
H6311 C6334 0.950 . S
H6312 C6335 0.950 . S
H6313 C6337 0.950 . S
H6314 C6338 0.950 . S
H6315 C6339 0.951 . S
H6316 C6341 0.951 . S
H6317 C6343 0.950 . S
H6318 C6344 0.950 . S
H6319 C6346 0.950 . S
H6320 C6349 0.950 . S
H6321 C6350 0.950 . S
H6322 C6352 0.950 . S
H6323 C6353 0.950 . S
C6324 H6306 0.951 . S
C6324 C6325 1.366 . S
C6324 C6326 1.388 . S
C6325 C6324 1.366 . S
C6325 C6329 1.385 . S
C6326 H6307 0.951 . S
C6326 C6324 1.388 . S
C6326 C6327 1.366 . S
C6327 C6326 1.366 . S
C6327 C6328 1.414 . S
C6327 C6330 1.499 . S
C6328 H6308 0.950 . S
C6328 C6327 1.414 . S
C6328 C6329 1.374 . S
C6329 H6309 0.950 . S
C6329 C6325 1.385 . S
C6329 C6328 1.374 . S
C6330 C6327 1.499 . S
C6330 C6331 1.373 . S
C6330 C6332 1.389 . S
C6331 H6310 0.950 . S
C6331 C6330 1.373 . S
C6331 C6347 1.377 . S
C6332 C6330 1.389 . S
C6332 C6333 1.524 . S
C6332 C6346 1.377 . S
C6333 C6332 1.524 . S
C6333 C6334 1.397 . S
C6333 C6338 1.363 . S
C6334 H6311 0.950 . S
C6334 C6333 1.397 . S
C6334 C6335 1.334 . S
C6335 H6312 0.950 . S
C6335 C6334 1.334 . S
C6335 C6336 1.287 . S
C6336 C6335 1.287 . S
C6336 C6337 1.524 . S
C6336 H6355 0.913 . S
C6337 H6313 0.950 . S
C6337 C6336 1.524 . S
C6337 C6338 1.415 . S
C6338 H6314 0.950 . S
C6338 C6333 1.363 . S
C6338 C6337 1.415 . S
C6339 H6315 0.951 . S
C6339 C6340 1.366 . S
C6339 C6341 1.388 . S
C6340 C6339 1.366 . S
C6340 C6344 1.385 . S
C6341 H6316 0.951 . S
C6341 C6339 1.388 . S
C6341 C6342 1.366 . S
C6342 C6341 1.366 . S
C6342 C6343 1.414 . S
C6342 C6345 1.499 . S
C6343 H6317 0.950 . S
C6343 C6342 1.414 . S
C6343 C6344 1.374 . S
C6344 H6318 0.950 . S
C6344 C6340 1.385 . S
C6344 C6343 1.374 . S
C6345 C6342 1.499 . S
C6345 C6346 1.373 . S
C6345 C6347 1.389 . S
C6346 H6319 0.950 . S
C6346 C6332 1.377 . S
C6346 C6345 1.373 . S
C6347 C6331 1.377 . S
C6347 C6345 1.389 . S
C6347 C6348 1.524 1_554 S
C6348 C6347 1.524 1_556 S
C6348 C6349 1.397 . S
C6348 C6353 1.363 . S
C6349 H6320 0.950 . S
C6349 C6348 1.397 . S
C6349 C6350 1.334 . S
C6350 H6321 0.950 . S
C6350 C6349 1.334 . S
C6350 C6351 1.287 . S
C6351 C6350 1.287 . S
C6351 C6352 1.524 . S
C6351 H6354 0.999 . S
C6352 H6322 0.950 . S
C6352 C6351 1.524 . S
C6352 C6353 1.415 . S
C6353 H6323 0.950 . S
C6353 C6348 1.363 . S
C6353 C6352 1.415 . S
H6354 C6351 0.999 . S
H6355 C6336 0.913 . S
H6356 C6374 0.951 . S
H6357 C6376 0.951 . S
H6358 C6378 0.950 . S
H6359 C6379 1.003 . S
H6360 C6381 0.950 . S
H6361 C6384 0.950 . S
H6362 C6385 0.950 . S
H6363 C6387 0.950 . S
H6364 C6388 0.950 . S
H6365 C6389 0.951 . S
H6366 C6391 0.951 . S
H6367 C6393 0.950 . S
H6368 C6394 0.950 . S
H6369 C6396 0.950 . S
H6370 C6399 0.950 . S
H6371 C6400 0.950 . S
H6372 C6402 0.950 . S
H6373 C6403 0.950 . S
C6374 H6356 0.951 . S
C6374 C6375 1.366 . S
C6374 C6376 1.388 . S
C6375 C6374 1.366 . S
C6375 C6379 1.385 . S
C6376 H6357 0.951 . S
C6376 C6374 1.388 . S
C6376 C6377 1.366 . S
C6377 C6376 1.366 . S
C6377 C6378 1.414 . S
C6377 C6380 1.499 . S
C6378 H6358 0.950 . S
C6378 C6377 1.414 . S
C6378 C6379 1.374 . S
C6379 H6359 1.003 . S
C6379 C6375 1.385 . S
C6379 C6378 1.374 . S
C6380 C6377 1.499 . S
C6380 C6381 1.373 . S
C6380 C6382 1.389 . S
C6381 H6360 0.950 . S
C6381 C6380 1.373 . S
C6381 C6397 1.377 . S
C6382 C6380 1.389 . S
C6382 C6383 1.524 . S
C6382 C6396 1.377 . S
C6383 C6382 1.524 . S
C6383 C6384 1.397 . S
C6383 C6388 1.363 . S
C6384 H6361 0.950 . S
C6384 C6383 1.397 . S
C6384 C6385 1.334 . S
C6385 H6362 0.950 . S
C6385 C6384 1.334 . S
C6385 C6386 1.287 . S
C6386 C6385 1.287 . S
C6386 C6387 1.524 . S
C6386 H6405 0.913 . S
C6387 H6363 0.950 . S
C6387 C6386 1.524 . S
C6387 C6388 1.415 . S
C6388 H6364 0.950 . S
C6388 C6383 1.363 . S
C6388 C6387 1.415 . S
C6389 H6365 0.951 . S
C6389 C6390 1.366 . S
C6389 C6391 1.388 . S
C6390 C6389 1.366 . S
C6390 C6394 1.385 . S
C6391 H6366 0.951 . S
C6391 C6389 1.388 . S
C6391 C6392 1.366 . S
C6392 C6391 1.366 . S
C6392 C6393 1.414 . S
C6392 C6395 1.499 . S
C6393 H6367 0.950 . S
C6393 C6392 1.414 . S
C6393 C6394 1.374 . S
C6394 H6368 0.950 . S
C6394 C6390 1.385 . S
C6394 C6393 1.374 . S
C6395 C6392 1.499 . S
C6395 C6396 1.373 . S
C6395 C6397 1.389 . S
C6396 H6369 0.950 . S
C6396 C6382 1.377 . S
C6396 C6395 1.373 . S
C6397 C6381 1.377 . S
C6397 C6395 1.389 . S
C6397 C6398 1.524 . S
C6398 C6397 1.524 . S
C6398 C6399 1.397 . S
C6398 C6403 1.363 . S
C6399 H6370 0.950 . S
C6399 C6398 1.397 . S
C6399 C6400 1.334 . S
C6400 H6371 0.950 . S
C6400 C6399 1.334 . S
C6400 C6401 1.287 . S
C6401 C6400 1.287 . S
C6401 C6402 1.524 . S
C6401 H6404 0.999 . S
C6402 H6372 0.950 . S
C6402 C6401 1.524 . S
C6402 C6403 1.415 . S
C6403 H6373 0.950 . S
C6403 C6398 1.363 . S
C6403 C6402 1.415 . S
H6404 C6401 0.999 . S
H6405 C6386 0.913 . S
H6406 C6424 0.951 . S
H6407 C6426 0.951 . S
H6408 C6428 0.950 . S
H6409 C6429 0.950 . S
H6410 C6431 0.950 . S
H6411 C6434 0.950 . S
H6412 C6435 0.950 . S
H6413 C6437 0.950 . S
H6414 C6438 0.950 . S
H6415 C6439 0.951 . S
H6416 C6441 0.951 . S
H6417 C6443 0.950 . S
H6418 C6444 0.950 . S
H6419 C6446 0.950 . S
H6420 C6449 0.950 . S
H6421 C6450 0.950 . S
H6422 C6452 0.950 . S
H6423 C6453 0.950 . S
C6424 H6406 0.951 . S
C6424 C6425 1.366 . S
C6424 C6426 1.388 . S
C6425 C6424 1.366 . S
C6425 C6429 1.385 . S
C6426 H6407 0.951 . S
C6426 C6424 1.388 . S
C6426 C6427 1.366 . S
C6427 C6426 1.366 . S
C6427 C6428 1.414 . S
C6427 C6430 1.499 . S
C6428 H6408 0.950 . S
C6428 C6427 1.414 . S
C6428 C6429 1.374 . S
C6429 H6409 0.950 . S
C6429 C6425 1.385 . S
C6429 C6428 1.374 . S
C6430 C6427 1.499 . S
C6430 C6431 1.373 . S
C6430 C6432 1.389 . S
C6431 H6410 0.950 . S
C6431 C6430 1.373 . S
C6431 C6447 1.377 . S
C6432 C6430 1.389 . S
C6432 C6433 1.524 . S
C6432 C6446 1.377 . S
C6433 C6432 1.524 . S
C6433 C6434 1.397 . S
C6433 C6438 1.363 . S
C6434 H6411 0.950 . S
C6434 C6433 1.397 . S
C6434 C6435 1.334 . S
C6435 H6412 0.950 . S
C6435 C6434 1.334 . S
C6435 C6436 1.287 . S
C6436 C6435 1.287 . S
C6436 C6437 1.524 . S
C6436 H6455 0.913 . S
C6437 H6413 0.950 . S
C6437 C6436 1.524 . S
C6437 C6438 1.415 . S
C6438 H6414 0.950 . S
C6438 C6433 1.363 . S
C6438 C6437 1.415 . S
C6439 H6415 0.951 . S
C6439 C6440 1.366 . S
C6439 C6441 1.388 . S
C6440 C6439 1.366 . S
C6440 C6444 1.385 . S
C6441 H6416 0.951 . S
C6441 C6439 1.388 . S
C6441 C6442 1.366 . S
C6442 C6441 1.366 . S
C6442 C6443 1.414 . S
C6442 C6445 1.499 . S
C6443 H6417 0.950 . S
C6443 C6442 1.414 . S
C6443 C6444 1.374 . S
C6444 H6418 0.950 . S
C6444 C6440 1.385 . S
C6444 C6443 1.374 . S
C6445 C6442 1.499 . S
C6445 C6446 1.373 . S
C6445 C6447 1.389 . S
C6446 H6419 0.950 . S
C6446 C6432 1.377 . S
C6446 C6445 1.373 . S
C6447 C6431 1.377 . S
C6447 C6445 1.389 . S
C6447 C6448 1.524 . S
C6448 C6447 1.524 . S
C6448 C6449 1.397 . S
C6448 C6453 1.363 . S
C6449 H6420 0.950 . S
C6449 C6448 1.397 . S
C6449 C6450 1.334 . S
C6450 H6421 0.950 . S
C6450 C6449 1.334 . S
C6450 C6451 1.287 . S
C6451 C6450 1.287 . S
C6451 C6452 1.524 . S
C6451 H6454 0.999 . S
C6452 H6422 0.950 . S
C6452 C6451 1.524 . S
C6452 C6453 1.415 . S
C6453 H6423 0.950 . S
C6453 C6448 1.363 . S
C6453 C6452 1.415 . S
H6454 C6451 0.999 . S
H6455 C6436 0.913 . S
C1675 C101 1.491 . S
C1690 C368 1.349 . S
C1725 C57 2.135 . S
C1740 C459 2.090 . S
C1775 C70 1.221 . S
C1790 C536 1.130 . S
C1840 C634 1.540 . S
C1825 C82 1.659 . S
C1875 C23 1.614 . S
C1890 C718 1.563 . S
C1940 C790 0.798 . S
C1925 C29 0.815 . S
C1990 C879 0.548 . S
C1975 C49 0.544 . S
C2025 C10 1.288 . S
C2040 C956 1.127 . S
C2090 C375 1.823 . S
C2075 C218 1.921 . S
C2125 C226 0.550 . S
C2140 C466 0.596 . S
C2190 C543 1.170 . S
C2175 C251 1.208 . S
C2240 C620 1.322 . S
C2225 C159 1.436 1_556 S
C2275 C211 1.961 . S
C2290 C704 1.780 . S
C2340 C806 1.023 . S
C2325 C225 1.098 . S
C2390 C886 0.697 . S
C2375 C252 0.684 . S
C2440 C963 1.259 . S
C2425 C166 1.371 . S
C2490 C382 1.434 . S
C2475 C147 1.525 . S
C2525 C263 1.915 . S
C2540 C1047 1.846 1_556 S
C2590 C1135 2.071 . S
C2575 C309 2.267 . S
C2640 C1208 0.594 . S
C2625 C291 0.147 . S
C2675 C108 0.793 . S
C2690 C970 0.792 . S
C2725 C121 1.450 . S
C2740 C550 1.410 . S
C2775 C302 2.245 . S
C2790 C1299 2.159 . S
C2840 C1376 0.643 . S
C2825 C276 0.549 . S
C2890 C379 1.684 1_565 S
C2875 C55 1.789 . S
C2940 C1394 2.377 . S
C2925 C96 2.430 . S
C2975 C88 1.680 . S
C2990 C547 1.593 . S
C3025 C75 1.946 . S
C3040 C1294 1.779 . S
C3090 C706 1.654 . S
C3075 C4 1.750 . S
C3125 C44 1.150 . S
C3140 C1138 1.046 . S
C3190 C890 1.012 . S
C3175 C31 1.015 . S
C3240 C1471 1.420 . S
C3225 C18 1.527 . S
C3290 C386 2.171 . S
C3275 C133 2.272 . S
C3340 C1378 0.786 . S
C3325 C296 0.801 . S
C3375 C107 1.446 . S
C3390 C554 1.397 . S
C3425 C264 1.855 . S
C3440 C1303 1.747 . S
C3475 C140 2.247 . S
C3490 C715 2.108 . S
C3540 C1131 1.242 . S
C3525 C289 1.329 . S
C3575 C114 0.984 . S
C3590 C874 0.914 . S
C3625 C265 1.733 . S
C3640 C1478 1.633 . S
C3675 C179 1.694 . S
C3690 C370 1.552 . S
C3725 C161 2.236 . S
C3740 C1058 2.152 . S
C3775 C244 2.577 . S
C3790 C788 2.418 . S
C3825 C224 0.708 . S
C3840 C1219 0.716 . S
C3890 C1462 0.795 . S
C3875 C257 0.759 1_565 S
C3925 C199 1.620 . S
C3940 C538 1.519 . S
C3990 C638 2.468 . S
C3975 C237 2.568 . S
C4040 C463 0.936 . S
C4025 C185 0.972 . S
C4075 C69 1.492 . S
C4090 C1544 1.351 . S
C4140 C1383 2.089 . S
C4125 C83 2.135 . S
C4175 C94 1.223 . S
C4190 C1628 1.133 . S
C4225 C56 1.660 . S
C4240 C1306 1.541 . S
C4275 C42 1.629 . S
C4290 C1054 1.573 . S
C4340 C1126 0.800 . S
C4325 C3 0.816 . S
C4390 C1215 0.554 . S
C4375 C16 0.555 . S
C4440 C1460 1.125 . S
C4425 C36 1.288 . S
C4490 C1551 1.823 . S
C4475 C238 1.921 . S
C4525 C174 0.548 . S
C4540 C1390 0.595 . S
C4590 C1635 1.169 . S
C4575 C186 1.207 . S
C4640 C1292 1.323 . S
C4625 C198 1.435 . S
C4690 C1040 1.781 . S
C4675 C239 1.963 . S
C4725 C173 1.097 . S
C4740 C1142 1.022 . S
C4790 C1222 0.697 . S
C4775 C187 0.686 . S
C4825 C205 1.371 . S
C4840 C1467 1.260 . S
C4890 C1558 1.432 . S
C4875 C290 1.523 . S
C4925 C122 1.917 . S
C4940 C711 1.848 . S
C4990 C799 2.078 . S
C4975 C134 2.280 . S
C5040 C872 0.591 . S
C5025 C148 0.144 . S
C5090 C1474 0.791 . S
C5075 C283 0.788 . S
C5125 C270 1.448 . S
C5140 C1642 1.407 . S
C5190 C627 2.158 . S
C5175 C135 2.237 . S
C5240 C452 0.642 . S
C5225 C109 0.547 . S
C5275 C81 1.789 . S
C5290 C1555 1.683 . S
C5340 C470 2.376 . S
C5325 C68 2.429 . S
C5375 C62 1.679 . S
C5390 C1639 1.594 . S
C5425 C95 1.945 . S
C5440 C622 1.779 . S
C5475 C30 1.750 . S
C5490 C1042 1.654 . S
C5540 C802 1.036 . S
C5525 C17 1.141 . S
C5575 C5 1.016 . S
C5590 C1226 1.014 . S
C5625 C43 1.521 . S
C5640 C967 1.411 . S
C5690 C1562 2.170 . S
C5675 C304 2.271 . S
C5725 C153 0.800 . S
C5740 C454 0.783 . S
C5790 C1646 1.397 . S
C5775 C278 1.446 . S
C5825 C127 1.854 . S
C5840 C631 1.749 . S
C5875 C303 2.240 . S
C5890 C1051 2.104 . S
C5940 C795 1.241 . S
C5925 C146 1.326 . S
C5975 C277 0.982 . S
C5990 C1210 0.912 . S
C6040 C974 1.627 . S
C6025 C120 1.730 . S
C6090 C1546 1.553 . S
C6075 C231 1.694 . S
C6140 C722 2.150 1_665 S
C6125 C200 2.234 . S
C6175 C212 2.581 . S
C6190 C1124 2.424 . S
C6240 C883 0.714 . S
C6225 C172 0.706 . S
C6275 C192 0.804 . S
C6290 C958 0.792 . S
C6325 C160 1.620 . S
C6340 C1630 1.520 . S
C6390 C1310 2.470 . S
C6375 C213 2.570 1_565 S
C6440 C1387 0.939 . S
C6425 C250 0.974 . S
