# Generated by pormake.
# Topology ocu, (6,8)-cn, num edge types: 1
# Building blocks:
#     Node 0, Type 0, BuildingBlock: NUHQIS_clean_sbu_0, # of connection points: 6
#     Node 1, Type 0, BuildingBlock: NUHQIS_clean_sbu_0, # of connection points: 6
#     Node 2, Type 0, BuildingBlock: NUHQIS_clean_sbu_0, # of connection points: 6
#     Node 3, Type 0, BuildingBlock: NUHQIS_clean_sbu_0, # of connection points: 6
#     Node 4, Type 0, BuildingBlock: NUHQIS_clean_sbu_0, # of connection points: 6
#     Node 5, Type 0, BuildingBlock: NUHQIS_clean_sbu_0, # of connection points: 6
#     Node 6, Type 0, BuildingBlock: NUHQIS_clean_sbu_0, # of connection points: 6
#     Node 7, Type 0, BuildingBlock: NUHQIS_clean_sbu_0, # of connection points: 6
#     Node 8, Type 1, BuildingBlock: AJUNOK_clean_sbu_0, # of connection points: 8
#     Node 9, Type 1, BuildingBlock: AJUNOK_clean_sbu_0, # of connection points: 8
#     Node 10, Type 1, BuildingBlock: AJUNOK_clean_sbu_0, # of connection points: 8
#     Node 11, Type 1, BuildingBlock: AJUNOK_clean_sbu_0, # of connection points: 8
#     Node 12, Type 1, BuildingBlock: AJUNOK_clean_sbu_0, # of connection points: 8
#     Node 13, Type 1, BuildingBlock: AJUNOK_clean_sbu_0, # of connection points: 8
#     Edge 14, Type (0, 1), BuildingBlock: XIVTED_clean_linker_0, # of connection points: 2
#     Edge 15, Type (0, 1), BuildingBlock: XIVTED_clean_linker_0, # of connection points: 2
#     Edge 16, Type (0, 1), BuildingBlock: XIVTED_clean_linker_0, # of connection points: 2
#     Edge 17, Type (0, 1), BuildingBlock: XIVTED_clean_linker_0, # of connection points: 2
#     Edge 18, Type (0, 1), BuildingBlock: XIVTED_clean_linker_0, # of connection points: 2
#     Edge 19, Type (0, 1), BuildingBlock: XIVTED_clean_linker_0, # of connection points: 2
#     Edge 20, Type (0, 1), BuildingBlock: XIVTED_clean_linker_0, # of connection points: 2
#     Edge 21, Type (0, 1), BuildingBlock: XIVTED_clean_linker_0, # of connection points: 2
#     Edge 22, Type (0, 1), BuildingBlock: XIVTED_clean_linker_0, # of connection points: 2
#     Edge 23, Type (0, 1), BuildingBlock: XIVTED_clean_linker_0, # of connection points: 2
#     Edge 24, Type (0, 1), BuildingBlock: XIVTED_clean_linker_0, # of connection points: 2
#     Edge 25, Type (0, 1), BuildingBlock: XIVTED_clean_linker_0, # of connection points: 2
#     Edge 26, Type (0, 1), BuildingBlock: XIVTED_clean_linker_0, # of connection points: 2
#     Edge 27, Type (0, 1), BuildingBlock: XIVTED_clean_linker_0, # of connection points: 2
#     Edge 28, Type (0, 1), BuildingBlock: XIVTED_clean_linker_0, # of connection points: 2
#     Edge 29, Type (0, 1), BuildingBlock: XIVTED_clean_linker_0, # of connection points: 2
#     Edge 30, Type (0, 1), BuildingBlock: XIVTED_clean_linker_0, # of connection points: 2
#     Edge 31, Type (0, 1), BuildingBlock: XIVTED_clean_linker_0, # of connection points: 2
#     Edge 32, Type (0, 1), BuildingBlock: XIVTED_clean_linker_0, # of connection points: 2
#     Edge 33, Type (0, 1), BuildingBlock: XIVTED_clean_linker_0, # of connection points: 2
#     Edge 34, Type (0, 1), BuildingBlock: XIVTED_clean_linker_0, # of connection points: 2
#     Edge 35, Type (0, 1), BuildingBlock: XIVTED_clean_linker_0, # of connection points: 2
#     Edge 36, Type (0, 1), BuildingBlock: XIVTED_clean_linker_0, # of connection points: 2
#     Edge 37, Type (0, 1), BuildingBlock: XIVTED_clean_linker_0, # of connection points: 2
#     Edge 38, Type (0, 1), BuildingBlock: XIVTED_clean_linker_0, # of connection points: 2
#     Edge 39, Type (0, 1), BuildingBlock: XIVTED_clean_linker_0, # of connection points: 2
#     Edge 40, Type (0, 1), BuildingBlock: XIVTED_clean_linker_0, # of connection points: 2
#     Edge 41, Type (0, 1), BuildingBlock: XIVTED_clean_linker_0, # of connection points: 2
#     Edge 42, Type (0, 1), BuildingBlock: XIVTED_clean_linker_0, # of connection points: 2
#     Edge 43, Type (0, 1), BuildingBlock: XIVTED_clean_linker_0, # of connection points: 2
#     Edge 44, Type (0, 1), BuildingBlock: XIVTED_clean_linker_0, # of connection points: 2
#     Edge 45, Type (0, 1), BuildingBlock: XIVTED_clean_linker_0, # of connection points: 2
#     Edge 46, Type (0, 1), BuildingBlock: XIVTED_clean_linker_0, # of connection points: 2
#     Edge 47, Type (0, 1), BuildingBlock: XIVTED_clean_linker_0, # of connection points: 2
#     Edge 48, Type (0, 1), BuildingBlock: XIVTED_clean_linker_0, # of connection points: 2
#     Edge 49, Type (0, 1), BuildingBlock: XIVTED_clean_linker_0, # of connection points: 2
#     Edge 50, Type (0, 1), BuildingBlock: XIVTED_clean_linker_0, # of connection points: 2
#     Edge 51, Type (0, 1), BuildingBlock: XIVTED_clean_linker_0, # of connection points: 2
#     Edge 52, Type (0, 1), BuildingBlock: XIVTED_clean_linker_0, # of connection points: 2
#     Edge 53, Type (0, 1), BuildingBlock: XIVTED_clean_linker_0, # of connection points: 2
#     Edge 54, Type (0, 1), BuildingBlock: XIVTED_clean_linker_0, # of connection points: 2
#     Edge 55, Type (0, 1), BuildingBlock: XIVTED_clean_linker_0, # of connection points: 2
#     Edge 56, Type (0, 1), BuildingBlock: XIVTED_clean_linker_0, # of connection points: 2
#     Edge 57, Type (0, 1), BuildingBlock: XIVTED_clean_linker_0, # of connection points: 2
#     Edge 58, Type (0, 1), BuildingBlock: XIVTED_clean_linker_0, # of connection points: 2
#     Edge 59, Type (0, 1), BuildingBlock: XIVTED_clean_linker_0, # of connection points: 2
#     Edge 60, Type (0, 1), BuildingBlock: XIVTED_clean_linker_0, # of connection points: 2
#     Edge 61, Type (0, 1), BuildingBlock: XIVTED_clean_linker_0, # of connection points: 2
# Relax obj value: 0.199
# Max RMSD: 0.282
# Mean RMSD: 0.168
data_MOF--net-ocu--node1-NUHQIS_clean_sbu_0--node2-AJUNOK_clean_sbu_0--edge1-XIVTED_clean_linker_0
_symmetry_space_group_name_H-M    P1
_symmetry_Int_Tables_number       1
_symmetry_cell_setting            triclinic
loop_
_symmetry_equiv_pos_as_xyz
'x, y, z'
_cell_length_a     43.125064
_cell_length_b     45.574574
_cell_length_c     38.920049
_cell_angle_alpha  102.55417
_cell_angle_beta   93.259755
_cell_angle_gamma 112.22782
loop_
_atom_site_label
_atom_site_type_symbol
_atom_site_fract_x
_atom_site_fract_y
_atom_site_fract_z
_atom_type_partial_charge
Tb0 Tb 0.27007 0.2348 0.24099 0.0
Eu1 Eu 0.32455 0.27686 0.313 0.0
C2 C 0.33606 0.21647 0.25558 0.0
C3 C 0.26304 0.20819 0.31037 0.0
C4 C 0.21688 0.21706 0.15592 0.0
C5 C 0.18042 0.20739 0.10115 0.0
C6 C 0.19214 0.19534 0.12701 0.0
C7 C 0.22994 0.25084 0.15868 0.0
C8 C 0.21854 0.26284 0.1328 0.0
C9 C 0.1936 0.24129 0.10378 0.0
C10 C 0.22928 0.20483 0.1833 0.0
O11 O 0.25021 0.27324 0.26413 0.0
O12 O 0.28187 0.29637 0.31994 0.0
O13 O 0.33418 0.31233 0.27899 0.0
O14 O 0.30535 0.27653 0.22532 0.0
C15 C 0.25648 0.29351 0.29659 0.0
O16 O 0.33487 0.29827 0.37029 0.0
O17 O 0.37674 0.30366 0.34062 0.0
O18 O 0.34952 0.24392 0.28179 0.0
O19 O 0.30448 0.20744 0.23952 0.0
O20 O 0.24862 0.20813 0.27976 0.0
O21 O 0.29345 0.2296 0.32528 0.0
C22 C 0.32551 0.30592 0.24452 0.0
O23 O 0.26154 0.21125 0.18651 0.0
O24 O 0.21985 0.21127 0.21423 0.0
C25 C 0.38245 0.29456 0.39745 0.0
C26 C 0.40889 0.26981 0.44685 0.0
C27 C 0.42109 0.30383 0.45042 0.0
C28 C 0.40779 0.31613 0.42593 0.0
C29 C 0.37053 0.26066 0.39364 0.0
C30 C 0.38353 0.2484 0.41812 0.0
C31 C 0.36752 0.30699 0.37212 0.0
H32 H 0.16119 0.19025 0.07907 0.0
H33 H 0.18181 0.16917 0.12455 0.0
H34 H 0.24879 0.26797 0.18106 0.0
H35 H 0.22867 0.28912 0.13603 0.0
H36 H 0.44063 0.32087 0.47227 0.0
H37 H 0.41719 0.3424 0.42926 0.0
H38 H 0.35108 0.24362 0.37169 0.0
H39 H 0.37413 0.22206 0.41414 0.0
Tb40 Tb 0.8063 0.25916 0.26119 0.0
Eu41 Eu 0.757 0.29967 0.26033 0.0
C42 C 0.75766 0.24579 0.19181 0.0
C43 C 0.82742 0.32167 0.23226 0.0
C44 C 0.86123 0.226 0.30029 0.0
C45 C 0.8718 0.18804 0.32961 0.0
C46 C 0.85855 0.19427 0.29968 0.0
C47 C 0.87727 0.25146 0.33151 0.0
C48 C 0.89085 0.24531 0.36128 0.0
C49 C 0.88823 0.21354 0.36062 0.0
C50 C 0.8467 0.23214 0.26865 0.0
O51 O 0.80487 0.27937 0.31633 0.0
O52 O 0.79421 0.32395 0.31109 0.0
O53 O 0.73656 0.26443 0.294 0.0
O54 O 0.75608 0.22614 0.26765 0.0
C55 C 0.80458 0.30808 0.33035 0.0
O56 O 0.74957 0.34463 0.26151 0.0
O57 O 0.70635 0.29926 0.25863 0.0
O58 O 0.73933 0.25831 0.2109 0.0
O59 O 0.78743 0.24811 0.2051 0.0
O60 O 0.83644 0.30796 0.25515 0.0
O61 O 0.79568 0.31711 0.22495 0.0
C62 C 0.73612 0.23482 0.28809 0.0
O63 O 0.81422 0.21579 0.25815 0.0
O64 O 0.85624 0.26272 0.2681 0.0
C65 C 0.69764 0.33472 0.22771 0.0
C66 C 0.65755 0.33931 0.17118 0.0
C67 C 0.68761 0.33492 0.16569 0.0
C68 C 0.70742 0.33238 0.19373 0.0
C69 C 0.66798 0.33952 0.23334 0.0
C70 C 0.64807 0.34178 0.20534 0.0
C71 C 0.71654 0.32962 0.25674 0.0
H72 H 0.86975 0.16337 0.32827 0.0
H73 H 0.84623 0.17428 0.276 0.0
H74 H 0.87936 0.27617 0.33301 0.0
H75 H 0.90314 0.26533 0.38493 0.0
H76 H 0.69542 0.33283 0.13961 0.0
H77 H 0.73005 0.32814 0.18881 0.0
H78 H 0.65997 0.34111 0.25933 0.0
H79 H 0.62534 0.34572 0.2105 0.0
Tb80 Tb 0.76256 0.73244 0.29454 0.0
Eu81 Eu 0.8201 0.76274 0.24843 0.0
C82 C 0.76111 0.69201 0.21866 0.0
C83 C 0.82795 0.71159 0.29392 0.0
C84 C 0.69772 0.72893 0.35259 0.0
C85 C 0.65859 0.75585 0.35299 0.0
C86 C 0.67403 0.73672 0.33431 0.0
C87 C 0.70434 0.73929 0.38998 0.0
C88 C 0.68916 0.75873 0.40863 0.0
C89 C 0.66671 0.76778 0.39023 0.0
C90 C 0.71815 0.71311 0.33316 0.0
O91 O 0.78696 0.78411 0.32012 0.0
O92 O 0.83896 0.79119 0.30551 0.0
O93 O 0.78681 0.79278 0.24668 0.0
O94 O 0.73937 0.75759 0.2629 0.0
C95 C 0.81967 0.79991 0.32642 0.0
O96 O 0.87325 0.79012 0.24491 0.0
O97 O 0.83576 0.771 0.19775 0.0
O98 O 0.77884 0.71934 0.21078 0.0
O99 O 0.75732 0.69116 0.25153 0.0
O100 O 0.80431 0.7173 0.31174 0.0
O101 O 0.83431 0.72286 0.26523 0.0
C102 C 0.75413 0.78366 0.24998 0.0
O103 O 0.71187 0.70503 0.29835 0.0
O104 O 0.75067 0.72701 0.34489 0.0
C105 C 0.8868 0.76461 0.19272 0.0
C106 C 0.92537 0.72918 0.16686 0.0
C107 C 0.9366 0.76266 0.16781 0.0
C108 C 0.91748 0.7804 0.18099 0.0
C109 C 0.87503 0.73091 0.19032 0.0
C110 C 0.89414 0.71341 0.17763 0.0
C111 C 0.86795 0.78293 0.21025 0.0
H112 H 0.64161 0.7627 0.33808 0.0
H113 H 0.66836 0.7292 0.3055 0.0
H114 H 0.72237 0.73349 0.40472 0.0
H115 H 0.69562 0.76735 0.43736 0.0
H116 H 0.96067 0.77529 0.15967 0.0
H117 H 0.92698 0.80644 0.18286 0.0
H118 H 0.85135 0.71826 0.19913 0.0
H119 H 0.88473 0.68754 0.17672 0.0
Tb120 Tb 0.32773 0.76551 0.28756 0.0
Eu121 Eu 0.24807 0.75602 0.27465 0.0
C122 C 0.30174 0.80819 0.34056 0.0
C123 C 0.27442 0.72088 0.32485 0.0
C124 C 0.41542 0.79042 0.27256 0.0
C125 C 0.47357 0.81172 0.26151 0.0
C126 C 0.45023 0.80495 0.2853 0.0
C127 C 0.4041 0.78534 0.2365 0.0
C128 C 0.4272 0.79153 0.21271 0.0
C129 C 0.46231 0.80333 0.22456 0.0
C130 C 0.39061 0.78008 0.29635 0.0
O131 O 0.30942 0.73593 0.2327 0.0
O132 O 0.25261 0.71363 0.23686 0.0
O133 O 0.27102 0.77769 0.23107 0.0
O134 O 0.32394 0.80351 0.26431 0.0
C135 C 0.27845 0.71386 0.2206 0.0
O136 O 0.19493 0.72254 0.26539 0.0
O137 O 0.2084 0.77442 0.27064 0.0
O138 O 0.27828 0.80452 0.31502 0.0
O139 O 0.31663 0.78771 0.33776 0.0
O140 O 0.30005 0.72323 0.30736 0.0
O141 O 0.2558 0.73746 0.32176 0.0
C142 C 0.30203 0.79995 0.23734 0.0
O143 O 0.37707 0.80071 0.30806 0.0
O144 O 0.3678 0.75003 0.28521 0.0
C145 C 0.1621 0.74667 0.29667 0.0
C146 C 0.12672 0.75865 0.3528 0.0
C147 C 0.11704 0.76109 0.3187 0.0
C148 C 0.13469 0.75519 0.29085 0.0
C149 C 0.1703 0.7419 0.32989 0.0
C150 C 0.15262 0.74769 0.3577 0.0
C151 C 0.18422 0.74611 0.26957 0.0
H152 H 0.50033 0.82179 0.27192 0.0
H153 H 0.45934 0.80996 0.31336 0.0
H154 H 0.37722 0.77495 0.22637 0.0
H155 H 0.417 0.78441 0.18471 0.0
H156 H 0.09753 0.76995 0.31416 0.0
H157 H 0.12813 0.75902 0.26537 0.0
H158 H 0.19144 0.73527 0.33488 0.0
H159 H 0.16045 0.74535 0.38357 0.0
Tb160 Tb 0.3229 0.75183 0.75949 0.0
Eu161 Eu 0.26944 0.78699 0.77561 0.0
C162 C 0.25384 0.72585 0.70721 0.0
C163 C 0.32485 0.80936 0.72717 0.0
C164 C 0.38801 0.72572 0.78322 0.0
C165 C 0.43951 0.72325 0.80836 0.0
C166 C 0.41848 0.72211 0.77883 0.0
C167 C 0.37869 0.73026 0.81727 0.0
C168 C 0.39987 0.73215 0.84674 0.0
C169 C 0.43062 0.72866 0.84282 0.0
C170 C 0.36741 0.72854 0.75375 0.0
O171 O 0.33886 0.7804 0.81513 0.0
O172 O 0.31723 0.81928 0.81511 0.0
O173 O 0.26545 0.75831 0.81644 0.0
O174 O 0.28685 0.7221 0.78773 0.0
C175 C 0.33823 0.80904 0.82964 0.0
O176 O 0.25713 0.82982 0.7807 0.0
O177 O 0.21962 0.78424 0.78668 0.0
O178 O 0.24176 0.73997 0.73301 0.0
O179 O 0.28635 0.7314 0.70982 0.0
O180 O 0.34246 0.79828 0.74527 0.0
O181 O 0.29242 0.80066 0.72803 0.0
C182 C 0.2707 0.73134 0.81263 0.0
O183 O 0.33502 0.71046 0.74916 0.0
O184 O 0.37306 0.75861 0.75348 0.0
C185 C 0.2002 0.81481 0.75542 0.0
C186 C 0.15518 0.8161 0.70075 0.0
C187 C 0.18617 0.84307 0.71466 0.0
C188 C 0.20836 0.84249 0.7418 0.0
C189 C 0.16877 0.78814 0.74212 0.0
C190 C 0.14649 0.7888 0.71507 0.0
C191 C 0.22517 0.81318 0.78188 0.0
H192 H 0.46264 0.71983 0.80411 0.0
H193 H 0.42619 0.71885 0.75275 0.0
H194 H 0.35529 0.73316 0.82129 0.0
H195 H 0.39228 0.73705 0.87268 0.0
H196 H 0.19322 0.86476 0.70468 0.0
H197 H 0.23218 0.86356 0.75172 0.0
H198 H 0.16157 0.76645 0.75211 0.0
H199 H 0.12277 0.76768 0.70487 0.0
Tb200 Tb 0.31306 0.28239 0.71855 0.0
Eu201 Eu 0.32794 0.2546 0.78837 0.0
C202 C 0.35929 0.3286 0.78849 0.0
C203 C 0.36313 0.24644 0.71862 0.0
C204 C 0.28397 0.32731 0.66401 0.0
C205 C 0.27258 0.36227 0.63048 0.0
C206 C 0.29021 0.34316 0.63651 0.0
C207 C 0.26055 0.33156 0.6861 0.0
C208 C 0.24271 0.35043 0.67994 0.0
C209 C 0.24812 0.3657 0.6517 0.0
C210 C 0.30057 0.30507 0.66822 0.0
O211 O 0.29235 0.22965 0.69952 0.0
O212 O 0.28284 0.21412 0.75181 0.0
O213 O 0.2959 0.28276 0.80513 0.0
O214 O 0.27141 0.2797 0.74952 0.0
C215 C 0.27787 0.20767 0.71688 0.0
O216 O 0.31278 0.22604 0.82766 0.0
O217 O 0.36562 0.25724 0.82994 0.0
O218 O 0.36754 0.30433 0.79128 0.0
O219 O 0.33476 0.32413 0.7641 0.0
O220 O 0.35844 0.27168 0.71149 0.0
O221 O 0.34949 0.233 0.74367 0.0
C222 C 0.27287 0.28613 0.78453 0.0
O223 O 0.32958 0.31801 0.68941 0.0
O224 O 0.28082 0.27703 0.67325 0.0
C225 C 0.35434 0.21066 0.85201 0.0
C226 C 0.37987 0.16646 0.87036 0.0
C227 C 0.36998 0.16418 0.83438 0.0
C228 C 0.35737 0.18614 0.82528 0.0
C229 C 0.36355 0.21268 0.88779 0.0
C230 C 0.37619 0.19087 0.89692 0.0
C231 C 0.34383 0.23572 0.84335 0.0
H232 H 0.27801 0.37417 0.60899 0.0
H233 H 0.30833 0.34033 0.6193 0.0
H234 H 0.25543 0.31959 0.70757 0.0
H235 H 0.2239 0.35212 0.69664 0.0
H236 H 0.37208 0.14551 0.81323 0.0
H237 H 0.35049 0.18434 0.79745 0.0
H238 H 0.36169 0.23167 0.90876 0.0
H239 H 0.38407 0.19385 0.92482 0.0
Tb240 Tb 0.82602 0.25859 0.79218 0.0
Eu241 Eu 0.75645 0.26868 0.77283 0.0
C242 C 0.8086 0.30919 0.84229 0.0
C243 C 0.75969 0.21781 0.82117 0.0
C244 C 0.91329 0.26841 0.78834 0.0
C245 C 0.95786 0.25341 0.7658 0.0
C246 C 0.93544 0.25279 0.79041 0.0
C247 C 0.91571 0.28687 0.76325 0.0
C248 C 0.93801 0.28744 0.7386 0.0
C249 C 0.95817 0.26945 0.7386 0.0
C250 C 0.88462 0.26142 0.80829 0.0
O251 O 0.80633 0.2248 0.73946 0.0
O252 O 0.75637 0.23073 0.72593 0.0
O253 O 0.78843 0.28944 0.73289 0.0
O254 O 0.83919 0.29808 0.76402 0.0
C255 C 0.77837 0.21781 0.71811 0.0
O256 O 0.70178 0.24782 0.75643 0.0
O257 O 0.72962 0.30061 0.77181 0.0
O258 O 0.79273 0.31273 0.81494 0.0
O259 O 0.81194 0.28164 0.83987 0.0
O260 O 0.79013 0.22088 0.81385 0.0
O261 O 0.74461 0.23561 0.81104 0.0
C262 C 0.82174 0.3026 0.7381 0.0
O263 O 0.87561 0.2857 0.81951 0.0
O264 O 0.85852 0.23411 0.79344 0.0
C265 C 0.67664 0.27936 0.78979 0.0
C266 C 0.63829 0.29338 0.84187 0.0
C267 C 0.63234 0.29709 0.80743 0.0
C268 C 0.6515 0.29018 0.78156 0.0
C269 C 0.68131 0.27381 0.8234 0.0
C270 C 0.66222 0.2807 0.84925 0.0
C271 C 0.69983 0.2763 0.76464 0.0
H272 H 0.97278 0.23894 0.76623 0.0
H273 H 0.93383 0.23833 0.80949 0.0
H274 H 0.89893 0.29919 0.76123 0.0
H275 H 0.93786 0.30014 0.71811 0.0
H276 H 0.6144 0.30728 0.80115 0.0
H277 H 0.6477 0.2946 0.75571 0.0
H278 H 0.70068 0.2654 0.83011 0.0
H279 H 0.66716 0.27743 0.87546 0.0
Tb280 Tb 0.75737 0.73697 0.74171 0.0
Eu281 Eu 0.82109 0.76184 0.80812 0.0
C282 C 0.8133 0.70701 0.73758 0.0
C283 C 0.75046 0.69968 0.8016 0.0
C284 C 0.69634 0.74461 0.6775 0.0
C285 C 0.66706 0.75526 0.62938 0.0
C286 C 0.68 0.73507 0.64227 0.0
C287 C 0.69949 0.77462 0.69977 0.0
C288 C 0.68648 0.79476 0.68698 0.0
C289 C 0.67025 0.7855 0.65151 0.0
C290 C 0.71167 0.72415 0.69026 0.0
O291 O 0.74378 0.76502 0.78708 0.0
O292 O 0.79532 0.79684 0.8231 0.0
O293 O 0.83951 0.7904 0.76756 0.0
O294 O 0.78825 0.78783 0.74499 0.0
C295 C 0.76295 0.79006 0.81387 0.0
O296 O 0.84085 0.76864 0.86373 0.0
O297 O 0.87549 0.78073 0.82604 0.0
O298 O 0.81945 0.71514 0.77247 0.0
O299 O 0.79443 0.71799 0.7206 0.0
O300 O 0.74327 0.69662 0.76731 0.0
O301 O 0.77548 0.72531 0.8224 0.0
C302 C 0.82137 0.80095 0.74928 0.0
O303 O 0.74356 0.73197 0.68738 0.0
O304 O 0.70551 0.7186 0.72119 0.0
C305 C 0.88906 0.75613 0.86885 0.0
C306 C 0.92209 0.71826 0.88984 0.0
C307 C 0.9214 0.74558 0.91452 0.0
C308 C 0.90508 0.76438 0.90406 0.0
C309 C 0.8892 0.72857 0.84437 0.0
C310 C 0.90557 0.70991 0.8547 0.0
C311 C 0.87197 0.77593 0.85768 0.0
H312 H 0.65521 0.74745 0.60182 0.0
H313 H 0.67766 0.71219 0.62453 0.0
H314 H 0.71225 0.78261 0.72702 0.0
H315 H 0.68902 0.81755 0.70503 0.0
H316 H 0.93404 0.75282 0.94171 0.0
H317 H 0.90514 0.78546 0.9234 0.0
H318 H 0.87674 0.72153 0.81715 0.0
H319 H 0.90507 0.68875 0.83515 0.0
Cd320 Cd 0.99162 0.98745 0.57001 0.0
Cd321 Cd 0.06028 0.0416 0.49052 0.0
C322 C 0.03932 0.94797 0.55428 0.0
N323 N 1.00599 0.94227 0.55313 0.0
C324 C 0.99176 0.88554 0.54985 0.0
C325 C 0.02635 0.89138 0.55382 0.0
C326 C 0.0501 0.92283 0.55461 0.0
C327 C 0.9821 0.91157 0.54983 0.0
H328 H 0.05791 0.97251 0.55773 0.0
H329 H 0.95575 0.90767 0.54967 0.0
C330 C 0.98551 0.99162 0.48082 0.0
C331 C 1.01337 0.07547 0.46881 0.0
C332 C 0.99752 0.09683 0.46876 0.0
C333 C 1.00667 0.12475 0.49714 0.0
C334 C 0.03227 0.13089 0.52499 0.0
C335 C 0.04653 0.10779 0.52479 0.0
N336 N 0.03649 0.08049 0.49705 0.0
H337 H 1.00761 0.05522 0.44571 0.0
H338 H 0.06589 0.11187 0.54634 0.0
C339 C 0.04963 0.96682 0.4556 0.0
N340 N 0.06936 0.99372 0.48199 0.0
C341 C 0.09962 0.96449 0.50152 0.0
C342 C 0.07857 0.93585 0.47553 0.0
C343 C 0.05368 0.9375 0.45201 0.0
C344 C 0.09456 0.99332 0.50424 0.0
H345 H 0.03074 0.968 0.43717 0.0
H346 H 0.11029 0.01526 0.52455 0.0
C347 C 0.06962 0.03591 0.58407 0.0
C348 C 0.94424 0.95867 0.61258 0.0
N349 N 0.98644 0.03715 0.5789 0.0
C350 C 1.00298 0.05883 0.61055 0.0
C351 C 1.00569 0.09096 0.61736 0.0
C352 C 0.99093 0.10092 0.59148 0.0
C353 C 0.97228 0.07751 0.55974 0.0
C354 C 0.97051 0.04551 0.55386 0.0
C355 C 0.11263 0.07297 0.45335 0.0
O356 O 0.99993 0.99791 0.51227 0.0
O357 O 1.00296 0.00532 0.45925 0.0
O358 O 0.05976 0.03437 0.55204 0.0
O359 O 0.04842 0.01947 0.6013 0.0
O360 O 0.93433 0.95461 0.57967 0.0
O361 O 0.97511 0.97715 0.62489 0.0
O362 O 0.11733 0.08067 0.4873 0.0
O363 O 0.0842 0.05067 0.43759 0.0
H364 H 1.01466 0.05127 0.63035 0.0
H365 H 0.957 0.02762 0.52911 0.0
H366 H 0.97256 0.86163 0.54901 0.0
H367 H 0.07707 0.92878 0.55849 0.0
H368 H 0.97886 0.09207 0.44612 0.0
H369 H 0.04073 0.15292 0.54661 0.0
H370 H 0.11918 0.96448 0.52022 0.0
H371 H 0.03781 0.91651 0.43057 0.0
H372 H 1.01912 0.10779 0.64281 0.0
H373 H 0.96007 0.08405 0.53933 0.0
Cd374 Cd 0.54394 0.98705 0.13149 0.0
Cd375 Cd 0.5983 0.01075 0.00246 0.0
C376 C 0.56889 0.93416 0.17362 0.0
N377 N 0.58195 0.95722 0.15474 0.0
C378 C 0.63265 0.94414 0.15635 0.0
C379 C 0.61989 0.91999 0.17581 0.0
C380 C 0.58697 0.91584 0.18417 0.0
C381 C 0.61375 0.96196 0.14626 0.0
H382 H 0.54378 0.92927 0.1805 0.0
H383 H 0.62483 0.97944 0.13092 0.0
C384 C 0.5232 0.95704 0.02748 0.0
C385 C 0.53624 0.00852 0.94904 0.0
C386 C 0.51265 0.01917 0.93583 0.0
C387 C 0.50672 0.04492 0.95755 0.0
C388 C 0.52401 0.05852 0.9927 0.0
C389 C 0.54752 0.04726 0.00473 0.0
N390 N 0.55353 0.02308 0.98271 0.0
H391 H 0.54163 0.9894 0.93206 0.0
H392 H 0.56189 0.05858 0.03126 0.0
C393 C 0.60753 0.95418 0.94197 0.0
N394 N 0.61807 0.97004 0.9771 0.0
C395 C 0.6572 0.9444 0.98046 0.0
C396 C 0.64737 0.92809 0.94395 0.0
C397 C 0.62179 0.93302 0.92486 0.0
C398 C 0.64225 0.96537 0.99651 0.0
H399 H 0.58874 0.95874 0.9269 0.0
H400 H 0.65057 0.97857 0.0243 0.0
C401 C 0.60373 0.03975 0.09408 0.0
C402 C 0.48193 0.94534 0.14452 0.0
N403 N 0.51515 0.03036 0.15379 0.0
C404 C 0.52351 0.05254 0.18665 0.0
C405 C 0.50515 0.07284 0.19778 0.0
C406 C 0.47669 0.07137 0.17574 0.0
C407 C 0.46902 0.0483 0.14193 0.0
C408 C 0.488 0.02857 0.13179 0.0
C409 C 0.63931 0.06112 0.96838 0.0
O410 O 0.53269 0.96869 0.06145 0.0
O411 O 0.54247 0.96804 0.00528 0.0
O412 O 0.59547 0.01538 0.06726 0.0
O413 O 0.59084 0.03641 0.12254 0.0
O414 O 0.48926 0.94141 0.11299 0.0
O415 O 0.50443 0.96733 0.16954 0.0
O416 O 0.64721 0.06417 0.00155 0.0
O417 O 0.6136 0.03547 0.95212 0.0
H418 H 0.54434 0.05448 0.20512 0.0
H419 H 0.48028 0.01123 0.10584 0.0
H420 H 0.65723 0.94922 0.14804 0.0
H421 H 0.57468 0.89838 0.19909 0.0
H422 H 0.49962 0.00774 0.90872 0.0
H423 H 0.52054 0.07863 0.01025 0.0
H424 H 0.67643 0.94119 0.99652 0.0
H425 H 0.61361 0.92156 0.89663 0.0
H426 H 0.51319 0.08925 0.22424 0.0
H427 H 0.44823 0.04523 0.12268 0.0
Cd428 Cd 0.05195 0.46596 0.05082 0.0
Cd429 Cd 0.10886 0.50852 0.95894 0.0
C430 C 0.10428 0.432 0.05476 0.0
N431 N 0.07579 0.42792 0.03402 0.0
C432 C 0.07351 0.37742 0.99739 0.0
C433 C 0.1027 0.38092 0.01874 0.0
C434 C 0.11843 0.40892 0.04733 0.0
C435 C 0.06049 0.40153 0.00546 0.0
H436 H 0.1155 0.4526 0.07789 0.0
H437 H 0.03768 0.39876 0.98957 0.0
C438 C 0.03292 0.45909 0.95679 0.0
C439 C 0.05852 0.53345 0.92244 0.0
C440 C 0.04094 0.55255 0.91687 0.0
C441 C 0.03951 0.57651 0.94555 0.0
C442 C 0.055 0.57964 0.97974 0.0
C443 C 0.07235 0.55981 0.98416 0.0
N444 N 0.07391 0.53737 0.9556 0.0
H445 H 0.06069 0.51599 0.89997 0.0
H446 H 0.0855 0.56307 0.01013 0.0
C447 C 0.13044 0.44605 0.9534 0.0
N448 N 0.12371 0.46458 0.93336 0.0
C449 C 0.13899 0.43603 0.88238 0.0
C450 C 0.14703 0.41694 0.90247 0.0
C451 C 0.14205 0.42193 0.93842 0.0
C452 C 0.12726 0.45963 0.89834 0.0
H453 H 0.12742 0.45041 0.98122 0.0
H454 H 0.12177 0.47461 0.88288 0.0
C455 C 0.12649 0.51818 0.0551 0.0
C456 C 1.00236 0.43261 0.09036 0.0
N457 N 0.0439 0.51466 0.063 0.0
C458 C 0.05808 0.53574 0.09562 0.0
C459 C 0.05172 0.56389 0.10619 0.0
C460 C 0.03001 0.57014 0.08327 0.0
C461 C 1.01632 0.54834 0.04934 0.0
C462 C 1.02355 0.52046 0.03974 0.0
C463 C 0.15631 0.55837 0.9339 0.0
O464 O 0.0476 0.46531 0.98822 0.0
O465 O 0.05094 0.46966 0.93394 0.0
O466 O 0.11286 0.50912 0.02262 0.0
O467 O 0.10946 0.50467 0.07717 0.0
O468 O 0.99412 0.43222 0.05829 0.0
O469 O 0.03356 0.4479 0.10351 0.0
O470 O 0.16217 0.55728 0.96592 0.0
O471 O 0.13049 0.53533 0.91403 0.0
H472 H 0.07354 0.53019 0.11393 0.0
H473 H 1.0121 0.50298 0.0142 0.0
H474 H 0.06061 0.35602 0.97525 0.0
H475 H 0.14047 0.41213 0.06497 0.0
H476 H 0.0291 0.54897 0.89014 0.0
H477 H 0.05495 0.59811 0.0025 0.0
H478 H 0.14281 0.43366 0.85483 0.0
H479 H 0.14731 0.40757 0.95496 0.0
H480 H 0.06304 0.58016 0.13246 0.0
H481 H 0.99911 0.552 0.03102 0.0
Cd482 Cd 0.4714 0.51117 0.07689 0.0
Cd483 Cd 0.55051 0.56202 0.00091 0.0
C484 C 0.49694 0.45645 0.03268 0.0
N485 N 0.49123 0.47006 0.06511 0.0
C486 C 0.50897 0.43563 0.09203 0.0
C487 C 0.51622 0.42189 0.0593 0.0
C488 C 0.50966 0.43205 0.0292 0.0
C489 C 0.49637 0.45978 0.09432 0.0
H490 H 0.49176 0.4646 0.00975 0.0
H491 H 0.49119 0.47087 0.11963 0.0
C492 C 0.46804 0.51837 0.98355 0.0
C493 C 0.51972 0.61368 0.02067 0.0
C494 C 0.51552 0.64224 0.01955 0.0
C495 C 0.54395 0.67086 0.02039 0.0
C496 C 0.57639 0.67077 0.02607 0.0
C497 C 0.57943 0.64149 0.02731 0.0
N498 N 0.5511 0.61355 0.0232 0.0
H499 H 0.49778 0.59081 0.01568 0.0
H500 H 0.60408 0.64044 0.02804 0.0
C501 C 0.54157 0.49001 0.96562 0.0
N502 N 0.56094 0.51516 0.99382 0.0
C503 C 0.59217 0.48469 0.00767 0.0
C504 C 0.5726 0.45818 0.97857 0.0
C505 C 0.54712 0.4613 0.95729 0.0
C506 C 0.58631 0.51333 0.01438 0.0
H507 H 0.52223 0.49258 0.94908 0.0
H508 H 0.60256 0.53427 0.03536 0.0
C509 C 0.54871 0.54757 0.08613 0.0
C510 C 0.41925 0.47724 0.11282 0.0
N511 N 0.47384 0.56412 0.08863 0.0
C512 C 0.49704 0.58748 0.1159 0.0
C513 C 0.50275 0.62034 0.12044 0.0
C514 C 0.48429 0.62934 0.09678 0.0
C515 C 0.45897 0.60436 0.07016 0.0
C516 C 0.45425 0.57172 0.06646 0.0
C517 C 0.5968 0.58328 0.95398 0.0
O518 O 0.47269 0.51838 0.01607 0.0
O519 O 0.49266 0.53495 0.96972 0.0
O520 O 0.53528 0.54808 0.05656 0.0
O521 O 0.52939 0.53443 0.1068 0.0
O522 O 0.41546 0.46959 0.0789 0.0
O523 O 0.44545 0.50233 0.12913 0.0
O524 O 0.60734 0.58676 0.98655 0.0
O525 O 0.56487 0.56988 0.94375 0.0
H526 H 0.51168 0.58072 0.13375 0.0
H527 H 0.43586 0.55256 0.04506 0.0
H528 H 0.51393 0.42841 0.11582 0.0
H529 H 0.51423 0.42117 0.00352 0.0
H530 H 0.49001 0.64083 0.01419 0.0
H531 H 0.59889 0.69226 0.02652 0.0
H532 H 0.61207 0.48362 0.02493 0.0
H533 H 0.53202 0.44212 0.93394 0.0
H534 H 0.52145 0.63845 0.14236 0.0
H535 H 0.44401 0.60997 0.05133 0.0
Cd536 Cd 0.99433 0.50073 0.55263 0.0
Cd537 Cd 0.04499 0.51819 0.42069 0.0
C538 C 0.06162 0.5053 0.60122 0.0
N539 N 0.03969 0.48852 0.57032 0.0
C540 C 0.06757 0.45196 0.55648 0.0
C541 C 0.09055 0.46849 0.58835 0.0
C542 C 0.08741 0.49564 0.61081 0.0
C543 C 0.04229 0.46244 0.54798 0.0
H544 H 0.05891 0.52597 0.61851 0.0
H545 H 0.02429 0.44945 0.52371 0.0
C546 C 0.98546 0.46831 0.46093 0.0
C547 C 1.01639 0.56492 0.37172 0.0
C548 C 0.99763 0.58224 0.3602 0.0
C549 C 0.96697 0.58151 0.37273 0.0
C550 C 0.95706 0.56176 0.39727 0.0
C551 C 0.97655 0.54476 0.40812 0.0
N552 N 1.00616 0.54617 0.39558 0.0
H553 H 0.03982 0.56721 0.3616 0.0
H554 H 0.96774 0.53062 0.42728 0.0
C555 C 0.07306 0.46141 0.3624 0.0
N556 N 0.07305 0.47469 0.39774 0.0
C557 C 0.11093 0.44811 0.4118 0.0
C558 C 0.11183 0.4342 0.37552 0.0
C559 C 0.09168 0.44148 0.35104 0.0
C560 C 0.09195 0.46782 0.42206 0.0
H561 H 0.05916 0.46676 0.3423 0.0
H562 H 0.09312 0.47819 0.45014 0.0
C563 C 0.06565 0.55611 0.5242 0.0
C564 C 0.95366 0.45241 0.58894 0.0
N565 N 0.97182 0.54027 0.57531 0.0
C566 C 0.98559 0.56155 0.60798 0.0
C567 C 0.96966 0.58149 0.6243 0.0
C568 C 0.93902 0.57954 0.60708 0.0
C569 C 0.92603 0.55798 0.57283 0.0
C570 C 0.94278 0.53845 0.5575 0.0
C571 C 0.10787 0.56169 0.41191 0.0
O572 O 0.99786 0.49224 0.48823 0.0
O573 O 0.99702 0.47045 0.4316 0.0
O574 O 0.05591 0.54127 0.49073 0.0
O575 O 0.04755 0.54626 0.5478 0.0
O576 O 0.94587 0.44797 0.5554 0.0
O577 O 0.97952 0.47832 0.60446 0.0
O578 O 0.09967 0.56215 0.44294 0.0
O579 O 0.08579 0.542 0.38521 0.0
H580 H 1.00842 0.5623 0.62192 0.0
H581 H 0.93187 0.52091 0.53188 0.0
H582 H 0.06852 0.43061 0.5386 0.0
H583 H 0.10472 0.50934 0.63545 0.0
H584 H 1.00796 0.59678 0.34183 0.0
H585 H 0.93404 0.55909 0.40837 0.0
H586 H 0.12492 0.44397 0.43284 0.0
H587 H 0.0907 0.43254 0.32273 0.0
H588 H 0.98108 0.59797 0.65043 0.0
H589 H 0.90236 0.55512 0.55854 0.0
Cd590 Cd 0.51029 0.01029 0.56743 0.0
Cd591 Cd 0.56487 0.05098 0.47734 0.0
C592 C 0.55549 0.98024 0.60279 0.0
N593 N 0.54055 0.97697 0.56966 0.0
C594 C 0.55808 0.93374 0.54522 0.0
C595 C 0.57409 0.93694 0.57919 0.0
C596 C 0.57268 0.96072 0.6081 0.0
C597 C 0.54151 0.95428 0.54097 0.0
H598 H 0.55364 0.99783 0.62533 0.0
H599 H 0.529 0.95178 0.51495 0.0
C600 C 0.49214 0.99903 0.47233 0.0
C601 C 0.50904 0.0819 0.47734 0.0
C602 C 0.49357 0.10371 0.48672 0.0
C603 C 0.50825 0.13052 0.51676 0.0
C604 C 0.53781 0.13406 0.53744 0.0
C605 C 0.55223 0.11126 0.52734 0.0
N606 N 0.53787 0.086 0.49753 0.0
H607 H 0.49859 0.06239 0.45315 0.0
H608 H 0.57543 0.11431 0.5427 0.0
C609 C 0.56349 0.97914 0.44827 0.0
N610 N 0.58075 0.00696 0.4746 0.0
C611 C 0.61499 0.98225 0.49669 0.0
C612 C 0.59743 0.95307 0.46986 0.0
C613 C 0.57142 0.95184 0.4454 0.0
C614 C 0.60637 0.00911 0.49838 0.0
H615 H 0.54377 0.97822 0.42915 0.0
H616 H 0.62027 0.03169 0.51856 0.0
C617 C 0.58633 0.05879 0.57225 0.0
C618 C 0.4585 0.97302 0.60128 0.0
N619 N 0.49776 0.057 0.57761 0.0
C620 C 0.51447 0.0836 0.6056 0.0
C621 C 0.50312 0.10897 0.61366 0.0
C622 C 0.47404 0.10668 0.59303 0.0
C623 C 0.45827 0.0795 0.56341 0.0
C624 C 0.47062 0.0549 0.55616 0.0
C625 C 0.60854 0.08763 0.43537 0.0
O626 O 0.50759 0.00858 0.50406 0.0
O627 O 0.50816 0.01122 0.44898 0.0
O628 O 0.57218 0.05262 0.54054 0.0
O629 O 0.56803 0.04741 0.59457 0.0
O630 O 0.4555 0.96637 0.56746 0.0
O631 O 0.48469 0.99756 0.61866 0.0
O632 O 0.61581 0.09552 0.46915 0.0
O633 O 0.58164 0.06239 0.42137 0.0
H634 H 0.53573 0.08454 0.6226 0.0
H635 H 0.45772 0.03341 0.53417 0.0
H636 H 0.55838 0.91561 0.52224 0.0
H637 H 0.58389 0.9636 0.63489 0.0
H638 H 0.47125 0.10052 0.46954 0.0
H639 H 0.5499 0.15447 0.56076 0.0
H640 H 0.63508 0.98434 0.51629 0.0
H641 H 0.55776 0.93029 0.42367 0.0
H642 H 0.51584 0.12919 0.637 0.0
H643 H 0.43601 0.0768 0.54653 0.0
H644 H 0.20223 0.15543 0.28628 0.0
H645 H 0.17567 0.12296 0.47818 0.0
H646 H 0.27907 0.20727 0.37926 0.0
H647 H 0.10739 0.06191 0.38117 0.0
H648 H 0.21495 0.15327 0.44265 0.0
H649 H 0.16805 0.11988 0.32066 0.0
C650 C 0.21205 0.15922 0.31385 0.0
C651 C 0.24349 0.18455 0.32992 0.0
C652 C 0.19148 0.13305 0.42918 0.0
C653 C 0.20427 0.14403 0.36964 0.0
C654 C 0.16907 0.11577 0.44944 0.0
C655 C 0.1381 0.09003 0.43264 0.0
C656 C 0.1827 0.12463 0.39193 0.0
C657 C 0.13087 0.0817 0.39531 0.0
C658 C 0.19251 0.13887 0.3335 0.0
C659 C 0.25495 0.18812 0.36575 0.0
N660 N 0.15285 0.09909 0.37629 0.0
N661 N 0.2352 0.1683 0.38449 0.0
H662 H 0.85936 0.16376 0.3922 0.0
H663 H 0.03518 0.1881 0.49237 0.0
H664 H 0.95171 0.24842 0.39953 0.0
H665 H 0.93976 0.11134 0.49562 0.0
H666 H 1.00439 0.21688 0.46885 0.0
H667 H 0.88701 0.14952 0.43863 0.0
C668 C 0.88543 0.17948 0.40385 0.0
C669 C 0.90346 0.20698 0.39167 0.0
C670 C 0.99015 0.19421 0.47567 0.0
C671 C 0.93547 0.19081 0.44473 0.0
C672 C 1.00775 0.17802 0.48944 0.0
C673 C 0.98984 0.14728 0.49549 0.0
C674 C 0.95454 0.1792 0.46768 0.0
C675 C 0.95437 0.13494 0.49094 0.0
C676 C 0.90118 0.1715 0.43053 0.0
C677 C 0.93697 0.22691 0.40811 0.0
N678 N 0.93785 0.15061 0.47664 0.0
N679 N 0.95211 0.21812 0.43338 0.0
H680 H 0.80267 0.85214 0.34449 0.0
H681 H 0.95081 0.94175 0.50932 0.0
H682 H 0.87025 0.8105 0.37773 0.0
H683 H 0.94114 0.98737 0.42553 0.0
H684 H 0.89873 0.89411 0.48005 0.0
H685 H 0.83307 0.90208 0.39324 0.0
C686 C 0.82344 0.85339 0.3626 0.0
C687 C 0.8348 0.82799 0.35714 0.0
C688 C 0.90749 0.91515 0.46892 0.0
C689 C 0.86787 0.88328 0.41287 0.0
C690 C 0.93712 0.94211 0.48541 0.0
C691 C 0.95061 0.96766 0.46895 0.0
C692 C 0.8912 0.91446 0.43642 0.0
C693 C 0.93184 0.9675 0.43832 0.0
C694 C 0.84042 0.88152 0.39028 0.0
C695 C 0.86146 0.83014 0.381 0.0
N696 N 0.90313 0.94088 0.42257 0.0
N697 N 0.87732 0.85755 0.40795 0.0
H698 H 0.06181 0.75349 0.35956 0.0
H699 H 0.13811 0.92786 0.48576 0.0
H700 H 0.16402 0.79851 0.41659 0.0
H701 H 0.02987 0.87271 0.45684 0.0
H702 H 0.14606 0.87695 0.47005 0.0
H703 H 0.04672 0.79135 0.40309 0.0
C704 C 0.08081 0.77074 0.38177 0.0
C705 C 0.11441 0.77345 0.38391 0.0
C706 C 0.12048 0.87584 0.46767 0.0
C707 C 0.09757 0.81701 0.43339 0.0
C708 C 0.1159 0.90504 0.47675 0.0
C709 C 0.08332 0.90477 0.47155 0.0
C710 C 0.09241 0.84622 0.45244 0.0
C711 C 0.05559 0.87425 0.45975 0.0
C712 C 0.0722 0.79229 0.40668 0.0
C713 C 0.13787 0.79571 0.41363 0.0
N714 N 0.06081 0.84624 0.44978 0.0
N715 N 0.12922 0.8172 0.4367 0.0
H716 H 0.08628 0.79701 0.69471 0.0
H717 H 0.08032 0.87733 0.53346 0.0
H718 H 0.17115 0.8368 0.64068 0.0
H719 H 1.00063 0.85132 0.59759 0.0
H720 H 0.10798 0.84917 0.56209 0.0
H721 H 0.04953 0.80406 0.64979 0.0
C722 C 0.09707 0.80676 0.67309 0.0
C723 C 0.13192 0.8169 0.67175 0.0
C724 C 0.08408 0.84907 0.56939 0.0
C725 C 0.09012 0.82516 0.62043 0.0
C726 C 0.06819 0.86507 0.55292 0.0
C727 C 0.03836 0.86724 0.56346 0.0
C728 C 0.07018 0.83533 0.59683 0.0
C729 C 1.02359 0.8504 0.58855 0.0
C730 C 0.07611 0.81086 0.64752 0.0
C731 C 0.14457 0.82942 0.64318 0.0
N732 N 0.03999 0.83569 0.60486 0.0
N733 N 0.12375 0.8335 0.61886 0.0
H734 H 0.26955 0.18309 0.64505 0.0
H735 H 0.09902 0.03384 0.64664 0.0
H736 H 0.23412 0.15734 0.74044 0.0
H737 H 0.12129 0.07766 0.55825 0.0
H738 H 0.15679 0.06763 0.67661 0.0
H739 H 0.22426 0.13287 0.60923 0.0
C740 C 0.25246 0.1667 0.65851 0.0
C741 C 0.25474 0.17489 0.69575 0.0
C742 C 0.14915 0.0695 0.65045 0.0
C743 C 0.2032 0.11755 0.6549 0.0
C744 C 0.11617 0.05041 0.63339 0.0
C745 C 0.10526 0.05366 0.60031 0.0
C746 C 0.17119 0.09204 0.63436 0.0
C747 C 0.12865 0.07486 0.58399 0.0
C748 C 0.22674 0.13801 0.638 0.0
C749 C 0.2327 0.15228 0.71177 0.0
N750 N 0.16054 0.09367 0.60146 0.0
N751 N 0.20733 0.12479 0.69115 0.0
H752 H 0.93004 0.25202 0.66888 0.0
H753 H 0.0471 0.15663 0.62319 0.0
H754 H 1.02092 0.26752 0.73599 0.0
H755 H 0.94287 0.12396 0.57575 0.0
H756 H 0.04839 0.21117 0.64787 0.0
H757 H 0.94664 0.22126 0.61936 0.0
C758 C 0.9542 0.25011 0.67288 0.0
C759 C 0.97372 0.26151 0.70689 0.0
C760 C 0.0255 0.19225 0.63138 0.0
C761 C 0.99232 0.22576 0.65053 0.0
C762 C 0.02459 0.16104 0.61761 0.0
C763 C 0.99431 0.13535 0.59882 0.0
C764 C 0.99587 0.1977 0.6265 0.0
C765 C 0.9665 0.14282 0.59081 0.0
C766 C 0.96349 0.2323 0.6446 0.0
C767 C 1.0047 0.25827 0.71043 0.0
N768 N 0.96767 0.1732 0.60546 0.0
N769 N 1.0127 0.23999 0.68277 0.0
H770 H 0.88816 0.8436 0.7625 0.0
H771 H 0.87789 0.91382 0.59464 0.0
H772 H 0.79297 0.81885 0.69718 0.0
H773 H 0.96134 0.96081 0.6817 0.0
H774 H 0.84597 0.878 0.63056 0.0
H775 H 0.91588 0.88563 0.73161 0.0
C776 C 0.87308 0.84711 0.74179 0.0
C777 C 0.83827 0.82766 0.73234 0.0
C778 C 0.87111 0.89648 0.64187 0.0
C779 C 0.8698 0.87546 0.69671 0.0
C780 C 0.88927 0.91694 0.62144 0.0
C781 C 0.92239 0.94015 0.63509 0.0
C782 C 0.88644 0.89906 0.67588 0.0
C783 C 0.93597 0.94312 0.66996 0.0
C784 C 0.88886 0.87118 0.72426 0.0
C785 C 0.8199 0.83335 0.70536 0.0
N786 N 0.91812 0.92254 0.68895 0.0
N787 N 0.83596 0.85652 0.68822 0.0
H788 H 0.40188 0.22491 0.28349 0.0
H789 H 0.41065 0.06396 0.14751 0.0
H790 H 0.31981 0.15785 0.20069 0.0
H791 H 0.4921 0.12962 0.23198 0.0
H792 H 0.37841 0.0975 0.16577 0.0
H793 H 0.43462 0.1914 0.26523 0.0
C794 C 0.39037 0.20323 0.26141 0.0
C795 C 0.35713 0.19509 0.24408 0.0
C796 C 0.40335 0.10478 0.18047 0.0
C797 C 0.39613 0.15505 0.22217 0.0
C798 C 0.42242 0.08535 0.16978 0.0
C799 C 0.45543 0.09286 0.18751 0.0
C800 C 0.41639 0.13303 0.20968 0.0
C801 C 0.46725 0.12151 0.2168 0.0
C802 C 0.40947 0.18378 0.25086 0.0
C803 C 0.34487 0.166 0.21549 0.0
N804 N 0.44825 0.13995 0.22652 0.0
N805 N 0.36394 0.14763 0.20576 0.0
H806 H 0.81694 0.34438 0.1748 0.0
H807 H 1.01363 0.42381 0.15653 0.0
H808 H 0.8965 0.34212 0.24535 0.0
H809 H 0.933 0.40556 0.07333 0.0
H810 H 0.9713 0.39865 0.19223 0.0
H811 H 0.85941 0.37208 0.14054 0.0
C812 C 0.84336 0.34997 0.18332 0.0
C813 C 0.85313 0.34084 0.21302 0.0
C814 C 0.96285 0.40009 0.16614 0.0
C815 C 0.90187 0.37246 0.17375 0.0
C816 C 0.98701 0.41447 0.14573 0.0
C817 C 0.97686 0.41672 0.11181 0.0
C818 C 0.9282 0.38809 0.15276 0.0
C819 C 0.94198 0.40422 0.09926 0.0
C820 C 0.86756 0.36562 0.16359 0.0
C821 C 0.88774 0.3486 0.22262 0.0
N822 N 0.91891 0.39054 0.11977 0.0
N823 N 0.91083 0.36393 0.20306 0.0
H824 H 0.68518 0.77375 0.25174 0.0
H825 H 0.68962 0.92996 0.17641 0.0
H826 H 0.7749 0.8399 0.22268 0.0
H827 H 0.59835 0.86187 0.20143 0.0
H828 H 0.72021 0.89821 0.19318 0.0
H829 H 0.65377 0.80518 0.23452 0.0
C830 C 0.69863 0.79477 0.24175 0.0
C831 C 0.73356 0.80332 0.239 0.0
C832 C 0.69347 0.89005 0.19509 0.0
C833 C 0.6963 0.84091 0.2186 0.0
C834 C 0.67539 0.90845 0.18515 0.0
C835 C 0.64016 0.89972 0.18684 0.0
C836 C 0.67717 0.86173 0.2074 0.0
C837 C 0.62505 0.87096 0.19941 0.0
C838 C 0.68032 0.813 0.23178 0.0
C839 C 0.74838 0.8315 0.22563 0.0
N840 N 0.6432 0.85361 0.20888 0.0
N841 N 0.7301 0.84874 0.21624 0.0
H842 H 0.24958 0.71269 0.15661 0.0
H843 H 0.1748 0.52142 0.10505 0.0
H844 H 0.28832 0.65737 0.20996 0.0
H845 H 0.15346 0.57618 0.03644 0.0
H846 H 0.22384 0.57049 0.13736 0.0
H847 H 0.22227 0.66417 0.10628 0.0
C848 C 0.25325 0.69051 0.15701 0.0
C849 C 0.27119 0.68876 0.18708 0.0
C850 C 0.20906 0.57174 0.11471 0.0
C851 C 0.23911 0.63297 0.13059 0.0
C852 C 0.18107 0.5437 0.09627 0.0
C853 C 0.16013 0.54497 0.06827 0.0
C854 C 0.21551 0.60153 0.10575 0.0
C855 C 0.1692 0.57428 0.05781 0.0
C856 C 0.23757 0.66279 0.12843 0.0
C857 C 0.27485 0.65954 0.18694 0.0
N858 N 0.19583 0.6017 0.07713 0.0
N859 N 0.25835 0.63253 0.15939 0.0
H860 H 0.34716 0.87101 0.8679 0.0
H861 H 0.50154 0.89047 0.00878 0.0
H862 H 0.38237 0.79432 0.86949 0.0
H863 H 0.46911 0.96833 0.00529 0.0
H864 H 0.45256 0.85238 0.96374 0.0
H865 H 0.38691 0.90483 0.92261 0.0
C866 C 0.36308 0.86115 0.87975 0.0
C867 C 0.36141 0.82972 0.86368 0.0
C868 C 0.45555 0.87757 0.97348 0.0
C869 C 0.40713 0.86847 0.92674 0.0
C870 C 0.48321 0.89916 -0.00032 0.0
C871 C 0.48877 0.93233 0.01157 0.0
C872 C 0.4336 0.88939 0.95852 0.0
C873 C 0.46512 0.9427 0.99762 0.0
C874 C 0.38579 0.88051 0.91111 0.0
C875 C 0.38276 0.8184 0.88057 0.0
N876 N 0.43883 0.92146 0.97165 0.0
N877 N 0.40471 0.83774 0.91092 0.0
H878 H 0.21994 0.29577 0.7526 0.0
H879 H 0.19584 0.4018 0.93427 0.0
H880 H 0.27406 0.31025 0.85582 0.0
H881 H 0.13294 0.37815 0.83347 0.0
H882 H 0.22309 0.36662 0.90625 0.0
H883 H 0.18666 0.3244 0.78164 0.0
C884 C 0.2247 0.3047 0.78135 0.0
C885 C 0.25004 0.30059 0.80167 0.0
C886 C 0.2032 0.36897 0.89027 0.0
C887 C 0.212 0.33366 0.83519 0.0
C888 C 0.18736 0.38896 0.90637 0.0
C889 C 0.16205 0.39336 0.88631 0.0
C890 C 0.19392 0.35324 0.85368 0.0
C891 C 0.15276 0.37624 0.85001 0.0
C892 C 0.20564 0.32107 0.79795 0.0
C893 C 0.25486 0.31271 0.83892 0.0
N894 N 0.16879 0.35719 0.83489 0.0
N895 N 0.23625 0.32882 0.85436 0.0
H896 H 0.69161 0.19004 0.82524 0.0
H897 H 0.70588 0.10784 0.9848 0.0
H898 H 0.78754 0.19307 0.86799 0.0
H899 H 0.61603 0.07085 0.90677 0.0
H900 H 0.73593 0.1459 0.94949 0.0
H901 H 0.66326 0.15314 0.86171 0.0
C902 C 0.70681 0.18302 0.84229 0.0
C903 C 0.74216 0.19471 0.84314 0.0
C904 C 0.70962 0.12945 0.9402 0.0
C905 C 0.70956 0.1526 0.88594 0.0
C906 C 0.69238 0.10782 0.96046 0.0
C907 C 0.65829 0.08587 0.94882 0.0
C908 C 0.69248 0.12982 0.90845 0.0
C909 C 0.64229 0.08706 0.91686 0.0
C910 C 0.69052 0.16184 0.86313 0.0
C911 C 0.76026 0.18457 0.86605 0.0
N912 N 0.65931 0.10865 0.89812 0.0
N913 N 0.74388 0.16442 0.88665 0.0
H914 H 0.92353 0.69809 0.95162 0.0
H915 H 0.04523 0.60633 0.89107 0.0
H916 H 0.96259 0.69407 0.85184 0.0
H917 H 0.99748 0.59822 0.98498 0.0
H918 H 1.01765 0.64152 0.87883 0.0
H919 H 0.95311 0.66496 0.96699 0.0
C920 C 0.93846 0.69043 0.93303 0.0
C921 C 0.94038 0.69877 0.90026 0.0
C922 C 1.01315 0.63214 0.90218 0.0
C923 C 0.97419 0.66076 0.91765 0.0
C924 C 0.0288 0.61185 0.90911 0.0
C925 C 1.02352 0.59904 0.93902 0.0
C926 C 0.99197 0.63996 0.9253 0.0
C927 C 1.00255 0.60779 0.96185 0.0
C928 C 0.95518 0.67136 0.94175 0.0
C929 C 0.95987 0.68785 0.87713 0.0
N930 N 0.98744 0.62761 0.95447 0.0
N931 N 0.97595 0.6695 0.88626 0.0
H932 H 0.22961 0.2894 0.07259 0.0
H933 H 0.06528 0.31565 0.01076 0.0
H934 H 0.12743 0.22407 0.07602 0.0
H935 H 0.16781 0.3857 0.01831 0.0
H936 H 0.08713 0.27498 0.01923 0.0
H937 H 0.207 0.31785 0.03839 0.0
C938 C 0.20239 0.28081 0.06576 0.0
C939 C 0.18035 0.25476 0.07777 0.0
C940 C 0.10484 0.29902 0.01829 0.0
C941 C 0.15427 0.28723 0.03868 0.0
C942 C 0.09235 0.32215 0.01315 0.0
C943 C 0.11486 0.35421 0.0145 0.0
C944 C 0.14003 0.30813 0.0249 0.0
C945 C 0.14968 0.3614 0.01785 0.0
C946 C 0.18949 0.29698 0.04612 0.0
C947 C 0.14533 0.24414 0.06744 0.0
N948 N 0.16125 0.33871 0.02351 0.0
N949 N 0.13335 0.26077 0.04899 0.0
H950 H 0.29604 0.6903 0.83333 0.0
H951 H 0.13006 0.58672 0.8936 0.0
H952 H 0.2154 0.72408 0.8461 0.0
H953 H 0.22528 0.59493 0.94518 0.0
H954 H 0.16047 0.63324 0.86989 0.0
H955 H 0.2708 0.65163 0.86916 0.0
C956 C 0.27315 0.68969 0.84387 0.0
C957 C 0.25747 0.71007 0.83652 0.0
C958 C 0.17471 0.62504 0.8866 0.0
C959 C 0.22861 0.66596 0.87686 0.0
C960 C 0.15748 0.59839 0.89984 0.0
C961 C 0.17538 0.58698 0.921 0.0
C962 C 0.21017 0.63983 0.89375 0.0
C963 C 0.21076 0.60312 0.92882 0.0
C964 C 0.25901 0.66788 0.86447 0.0
C965 C 0.22815 0.70868 0.8511 0.0
N966 N 0.22723 0.62856 0.91458 0.0
N967 N 0.21426 0.6865 0.87007 0.0
H968 H 0.42408 0.14414 0.83648 0.0
H969 H 0.4603 0.06451 0.9901 0.0
H970 H 0.37118 0.13892 0.92735 0.0
H971 H 0.50246 0.0578 0.89221 0.0
H972 H 0.42689 0.09117 0.96729 0.0
H973 H 0.45191 0.11139 0.85567 0.0
C974 C 0.41793 0.1358 0.86022 0.0
C975 C 0.39527 0.14456 0.88037 0.0
C976 C 0.44326 0.08365 0.95068 0.0
C977 C 0.4277 0.10742 0.90292 0.0
C978 C 0.46246 0.06855 0.96376 0.0
C979 C 0.48431 0.05893 0.9431 0.0
C980 C 0.44609 0.08951 0.91676 0.0
C981 C 0.48573 0.06446 0.90896 0.0
C982 C 0.43406 0.11724 0.8713 0.0
C983 C 0.38889 0.13338 0.91126 0.0
N984 N 0.46712 0.07957 0.897 0.0
N985 N 0.40514 0.1156 0.92166 0.0
H986 H 0.83539 0.30966 0.90752 0.0
H987 H 0.99389 0.46579 0.90452 0.0
H988 H 0.83478 0.37354 0.84058 0.0
H989 H 0.98785 0.41602 0.98789 0.0
H990 H 0.93286 0.43681 0.88642 0.0
H991 H 0.88662 0.35303 0.94439 0.0
C992 C 0.84551 0.33322 0.90125 0.0
C993 C 0.83141 0.33784 0.87052 0.0
C994 C 0.94468 0.43245 0.90899 0.0
C995 C 0.89035 0.38714 0.91191 0.0
C996 C 0.9796 0.44872 0.91907 0.0
C997 C 0.99588 0.44268 0.94727 0.0
C998 C 0.92596 0.40943 0.92677 0.0
C999 C 0.97617 0.42105 0.96582 0.0
C1000 C 0.87483 0.35794 0.92223 0.0
C1001 C 0.84514 0.36885 0.86379 0.0
N1002 N 0.9422 0.40468 0.95482 0.0
N1003 N 0.87444 0.3921 0.88381 0.0
H1004 H 0.79202 0.8446 0.87136 0.0
H1005 H 0.61881 0.87065 0.89033 0.0
H1006 H 0.69685 0.78318 0.80266 0.0
H1007 H 0.71456 0.93687 0.95539 0.0
H1008 H 0.64701 0.83765 0.85933 0.0
H1009 H 0.76427 0.87784 0.90372 0.0
C1010 C 0.76534 0.83803 0.86303 0.0
C1011 C 0.74687 0.81088 0.83412 0.0
C1012 C 0.6619 0.85937 0.88042 0.0
C1013 C 0.71483 0.84896 0.87126 0.0
C1014 C 0.64579 0.87842 0.8981 0.0
C1015 C 0.66418 0.90686 0.92563 0.0
C1016 C 0.69685 0.86859 0.89013 0.0
C1017 C 0.69908 0.91504 0.93474 0.0
C1018 C 0.74949 0.85707 0.88156 0.0
C1019 C 0.7123 0.80374 0.82471 0.0
N1020 N 0.71421 0.89612 0.91705 0.0
N1021 N 0.69752 0.82256 0.84315 0.0
H1022 H 0.94316 0.69258 0.20388 0.0
H1023 H 1.02136 0.61283 0.04703 0.0
H1024 H 0.95511 0.72337 0.10648 0.0
H1025 H 1.014 0.58957 0.14874 0.0
H1026 H 1.00006 0.65535 0.06828 0.0
H1027 H 0.97274 0.65722 0.18469 0.0
C1028 C 0.95224 0.69193 0.17843 0.0
C1029 C 0.94644 0.71056 0.15651 0.0
C1030 C 1.00345 0.64111 0.086 0.0
C1031 C 0.9802 0.66991 0.13411 0.0
C1032 C 1.01537 0.61672 0.07379 0.0
C1033 C 1.01941 0.59755 0.09605 0.0
C1034 C 0.99538 0.64619 0.12067 0.0
C1035 C 1.01175 0.60397 0.13073 0.0
C1036 C 0.96918 0.67179 0.16748 0.0
C1037 C 0.95912 0.70928 0.12407 0.0
N1038 N 0.99997 0.62755 0.14183 0.0
N1039 N 0.97513 0.68893 0.11358 0.0
H1040 H 0.30729 0.7851 0.16697 0.0
H1041 H 0.45221 0.96258 0.2003 0.0
H1042 H 0.32538 0.86566 0.2582 0.0
H1043 H 0.43488 0.88537 0.10544 0.0
H1044 H 0.39814 0.93009 0.21534 0.0
H1045 H 0.34484 0.8237 0.13692 0.0
C1046 C 0.31805 0.81114 0.17992 0.0
C1047 C 0.31358 0.82253 0.2149 0.0
C1048 C 0.40587 0.92018 0.19106 0.0
C1049 C 0.35686 0.8663 0.18163 0.0
C1050 C 0.43692 0.93866 0.18263 0.0
C1051 C 0.44828 0.92621 0.15208 0.0
C1052 C 0.38626 0.88865 0.16918 0.0
C1053 C 0.42712 0.89553 0.12957 0.0
C1054 C 0.33972 0.83308 0.16303 0.0
C1055 C 0.32842 0.85617 0.23114 0.0
N1056 N 0.39727 0.87743 0.13892 0.0
N1057 N 0.34981 0.87686 0.21455 0.0
H1058 H 0.70501 0.2448 0.14849 0.0
H1059 H 0.5903 0.09404 0.10989 0.0
H1060 H 0.77354 0.19671 0.15416 0.0
H1061 H 0.6647 0.0587 0.07131 0.0
H1062 H 0.62901 0.14969 0.11231 0.0
H1063 H 0.66628 0.19678 0.10272 0.0
C1064 C 0.71219 0.22436 0.13955 0.0
C1065 C 0.74146 0.22375 0.15644 0.0
C1066 C 0.63669 0.1299 0.10193 0.0
C1067 C 0.69681 0.16857 0.10592 0.0
C1068 C 0.61473 0.0982 0.10126 0.0
C1069 C 0.62489 0.07234 0.09101 0.0
C1070 C 0.66937 0.13566 0.09319 0.0
C1071 C 0.6564 0.07844 0.07971 0.0
C1072 C 0.68997 0.19688 0.11367 0.0
C1073 C 0.75047 0.19753 0.14279 0.0
N1074 N 0.678 0.10972 0.08193 0.0
N1075 N 0.72758 0.17035 0.11905 0.0
H1076 H 0.6842 0.65546 0.77856 0.0
H1077 H 0.66616 0.61233 0.96724 0.0
H1078 H 0.76724 0.68843 0.86439 0.0
H1079 H 0.58122 0.58124 0.88408 0.0
H1080 H 0.7044 0.63473 0.92678 0.0
H1081 H 0.64696 0.62191 0.81328 0.0
C1082 C 0.69472 0.65518 0.80436 0.0
C1083 C 0.72873 0.67508 0.8188 0.0
C1084 C 0.6774 0.62283 0.91726 0.0
C1085 C 0.6864 0.63717 0.85871 0.0
C1086 C 0.65556 0.61005 0.9404 0.0
C1087 C 0.62043 0.59516 0.92915 0.0
C1088 C 0.66406 0.62086 0.8826 0.0
C1089 C 0.60814 0.59273 0.89396 0.0
C1090 C 0.67344 0.63621 0.82428 0.0
C1091 C 0.74104 0.67386 0.85243 0.0
N1092 N 0.6299 0.60567 0.87202 0.0
N1093 N 0.71986 0.65552 0.87131 0.0
H1094 H 0.50064 0.75274 0.85614 0.0
H1095 H 0.49867 0.69858 0.03768 0.0
H1096 H 0.41133 0.7081 0.90257 0.0
H1097 H 0.57572 0.70108 0.9711 0.0
H1098 H 0.47562 0.72379 0.99943 0.0
H1099 H 0.53561 0.75192 0.90753 0.0
C1100 C 0.48829 0.74289 0.87701 0.0
C1101 C 0.45276 0.73019 0.8746 0.0
C1102 C 0.49815 0.71964 0.99379 0.0
C1103 C 0.49286 0.73054 0.93402 0.0
C1104 C 0.51145 0.70549 0.01577 0.0
C1105 C 0.53856 0.69693 0.00706 0.0
C1106 C 0.51216 0.72528 0.96296 0.0
C1107 C 0.55455 0.70694 0.97864 0.0
C1108 C 0.50836 0.74287 0.90651 0.0
C1109 C 0.43849 0.71863 0.90315 0.0
N1110 N 0.5406 0.7199 0.95701 0.0
N1111 N 0.45854 0.71899 0.93148 0.0
H1112 H 0.38518 0.33512 0.85638 0.0
H1113 H 0.44233 0.52189 0.91984 0.0
H1114 H 0.35664 0.38752 0.78905 0.0
H1115 H 0.42401 0.4608 0.99339 0.0
H1116 H 0.40544 0.47436 0.87245 0.0
H1117 H 0.39781 0.38173 0.90737 0.0
C1118 C 0.38199 0.35664 0.85227 0.0
C1119 C 0.37055 0.35786 0.81842 0.0
C1120 C 0.40859 0.47157 0.8992 0.0
C1121 C 0.38415 0.41084 0.87669 0.0
C1122 C 0.42953 0.49867 0.92623 0.0
C1123 C 0.43691 0.4948 0.96007 0.0
C1124 C 0.39589 0.44061 0.90622 0.0
C1125 C 0.41939 0.46454 0.96735 0.0
C1126 C 0.38849 0.38293 0.8815 0.0
C1127 C 0.36594 0.38593 0.81473 0.0
N1128 N 0.40045 0.43817 0.94022 0.0
N1129 N 0.37321 0.41163 0.84355 0.0
H1130 H 0.57273 0.28817 0.84186 0.0
H1131 H 0.63399 0.45315 0.98732 0.0
H1132 H 0.67076 0.33159 0.90796 0.0
H1133 H 0.52755 0.39426 0.94816 0.0
H1134 H 0.64612 0.40543 0.96443 0.0
H1135 H 0.55325 0.32237 0.88516 0.0
C1136 C 0.58988 0.30438 0.86586 0.0
C1137 C 0.62354 0.3075 0.87107 0.0
C1138 C 0.62001 0.40278 0.96136 0.0
C1139 C 0.60171 0.34684 0.92032 0.0
C1140 C 0.61297 0.43014 0.9746 0.0
C1141 C 0.5797 0.42817 0.96908 0.0
C1142 C 0.59377 0.37338 0.94171 0.0
C1143 C 0.55377 0.39744 0.952 0.0
C1144 C 0.57876 0.32379 0.89063 0.0
C1145 C 0.64462 0.32846 0.90283 0.0
N1146 N 0.56144 0.37143 0.93827 0.0
N1147 N 0.63358 0.34787 0.9259 0.0
H1148 H 0.67784 0.37562 0.12266 0.0
H1149 H 0.4914 0.36207 0.0733 0.0
H1150 H 0.58871 0.30928 0.15311 0.0
H1151 H 0.57983 0.43139 0.04555 0.0
H1152 H 0.52494 0.33247 0.08836 0.0
H1153 H 0.64134 0.38662 0.08115 0.0
C1154 C 0.65059 0.36288 0.12007 0.0
C1155 C 0.63621 0.34211 0.1419 0.0
C1156 C 0.53692 0.35365 0.07809 0.0
C1157 C 0.59439 0.35471 0.09483 0.0
C1158 C 0.51769 0.37035 0.0693 0.0
C1159 C 0.53304 0.39906 0.05823 0.0
C1160 C 0.57189 0.36632 0.0766 0.0
C1161 C 0.56715 0.40911 0.05366 0.0
C1162 C 0.62976 0.36922 0.09646 0.0
C1163 C 0.60079 0.32617 0.13745 0.0
N1164 N 0.5857 0.39313 0.06357 0.0
N1165 N 0.58111 0.33315 0.1148 0.0
H1166 H 0.73221 0.6292 0.22416 0.0
H1167 H 0.58448 0.52268 0.12152 0.0
H1168 H 0.74406 0.68769 0.14841 0.0
H1169 H 0.59597 0.60096 0.07147 0.0
H1170 H 0.64517 0.54736 0.14274 0.0
H1171 H 0.68663 0.58443 0.18261 0.0
C1172 C 0.72568 0.63224 0.19824 0.0
C1173 C 0.74096 0.6625 0.19016 0.0
C1174 C 0.63466 0.55957 0.12756 0.0
C1175 C 0.68849 0.61115 0.14189 0.0
C1176 C 0.59999 0.54534 0.11537 0.0
C1177 C 0.58542 0.56064 0.09598 0.0
C1178 C 0.65447 0.58999 0.12145 0.0
C1179 C 0.6064 0.58903 0.08718 0.0
C1180 C 0.69959 0.60641 0.17414 0.0
C1181 C 0.73228 0.66493 0.15597 0.0
N1182 N 0.63988 0.60322 0.10064 0.0
N1183 N 0.70591 0.63983 0.13339 0.0
H1184 H 0.45926 0.80843 0.15461 0.0
H1185 H 0.43885 0.65635 0.08428 0.0
H1186 H 0.51866 0.78918 0.23325 0.0
H1187 H 0.54531 0.68294 0.11782 0.0
H1188 H 0.44862 0.71393 0.10183 0.0
H1189 H 0.4757 0.77437 0.10782 0.0
C1190 C 0.47651 0.79796 0.16219 0.0
C1191 C 0.48515 0.7994 0.19814 0.0
C1192 C 0.47012 0.70732 0.1042 0.0
C1193 C 0.50495 0.76183 0.14489 0.0
C1194 C 0.46449 0.67424 0.09441 0.0
C1195 C 0.49103 0.6645 0.1008 0.0
C1196 C 0.50228 0.73074 0.12137 0.0
C1197 C 0.5237 0.68914 0.11407 0.0
C1198 C 0.48601 0.77874 0.13537 0.0
C1199 C 0.50973 0.78757 0.20612 0.0
N1200 N 0.52818 0.72105 0.12517 0.0
N1201 N 0.51794 0.76835 0.17966 0.0
H1202 H 0.36931 0.36994 0.2739 0.0
H1203 H 0.41473 0.49146 0.18369 0.0
H1204 H 0.30997 0.30366 0.17426 0.0
H1205 H 0.37632 0.41238 0.08778 0.0
H1206 H 0.38951 0.45251 0.21842 0.0
H1207 H 0.38846 0.41407 0.24453 0.0
C1208 C 0.36006 0.3647 0.24585 0.0
C1209 C 0.33795 0.33293 0.22664 0.0
C1210 C 0.38673 0.44337 0.18988 0.0
C1211 C 0.3589 0.38404 0.19262 0.0
C1212 C 0.40067 0.46584 0.16992 0.0
C1213 C 0.39793 0.45512 0.13282 0.0
C1214 C 0.37047 0.4097 0.1727 0.0
C1215 C 0.37911 0.42171 0.11635 0.0
C1216 C 0.37068 0.39018 0.22903 0.0
C1217 C 0.32703 0.32771 0.19025 0.0
N1218 N 0.36647 0.40014 0.13644 0.0
N1219 N 0.33769 0.35294 0.17446 0.0
H1220 H 0.84801 0.67511 0.76391 0.0
H1221 H 0.90171 0.60863 0.57793 0.0
H1222 H 0.81669 0.69193 0.6653 0.0
H1223 H 0.93231 0.59391 0.67813 0.0
H1224 H 0.86986 0.63829 0.60844 0.0
H1225 H 0.87802 0.64461 0.73215 0.0
C1226 C 0.84735 0.67243 0.73552 0.0
C1227 C 0.82977 0.68645 0.71745 0.0
C1228 C 0.8836 0.6286 0.62373 0.0
C1229 C 0.86448 0.65105 0.68048 0.0
C1230 C 0.90175 0.61148 0.60628 0.0
C1231 C 0.92004 0.59864 0.62532 0.0
C1232 C 0.88347 0.63295 0.66062 0.0
C1233 C 0.91925 0.60369 0.66221 0.0
C1234 C 0.86458 0.65487 0.71731 0.0
C1235 C 0.82977 0.68162 0.68047 0.0
N1236 N 0.90135 0.62029 0.67848 0.0
N1237 N 0.8469 0.66446 0.66328 0.0
H1238 H 0.39167 0.84981 0.74056 0.0
H1239 H 0.39695 0.92168 0.57321 0.0
H1240 H 0.29874 0.8258 0.67165 0.0
H1241 H 0.46604 0.97501 0.67167 0.0
H1242 H 0.36162 0.88259 0.60431 0.0
H1243 H 0.42145 0.89157 0.71046 0.0
C1244 C 0.37754 0.85324 0.71896 0.0
C1245 C 0.3427 0.83431 0.70851 0.0
C1246 C 0.38431 0.90315 0.61903 0.0
C1247 C 0.37674 0.88201 0.67386 0.0
C1248 C 0.40445 0.92538 0.60138 0.0
C1249 C 0.43455 0.9515 0.61987 0.0
C1250 C 0.39486 0.90682 0.65507 0.0
C1251 C 0.44312 0.95521 0.65633 0.0
C1252 C 0.39452 0.87725 0.70198 0.0
C1253 C 0.32562 0.84001 0.68052 0.0
N1254 N 0.42364 0.93286 0.6726 0.0
N1255 N 0.34292 0.86323 0.66383 0.0
H1256 H 0.22501 0.40481 0.69851 0.0
H1257 H 0.12804 0.44449 0.54463 0.0
H1258 H 0.22342 0.368 0.58608 0.0
H1259 H 0.11328 0.46555 0.65462 0.0
H1260 H 0.16796 0.42158 0.56044 0.0
H1261 H 0.18868 0.43198 0.68392 0.0
C1262 C 0.21707 0.40235 0.67076 0.0
C1263 C 0.2274 0.38391 0.64352 0.0
C1264 C 0.15607 0.43129 0.58116 0.0
C1265 C 0.18608 0.41549 0.62669 0.0
C1266 C 0.13312 0.44428 0.57213 0.0
C1267 C 0.1169 0.45675 0.59824 0.0
C1268 C 0.16312 0.43077 0.61664 0.0
C1269 C 0.12527 0.45648 0.63359 0.0
C1270 C 0.19643 0.41805 0.66248 0.0
C1271 C 0.21668 0.38227 0.60809 0.0
N1272 N 0.14766 0.44357 0.64172 0.0
N1273 N 0.19664 0.39776 0.60075 0.0
H1274 H 0.7728 0.15507 0.70864 0.0
H1275 H 0.63026 0.10492 0.54344 0.0
H1276 H 0.75952 0.22233 0.6527 0.0
H1277 H 0.62605 0.053 0.62461 0.0
H1278 H 0.69029 0.13922 0.56726 0.0
H1279 H 0.73383 0.10909 0.66037 0.0
C1280 C 0.763 0.16007 0.68532 0.0
C1281 C 0.76862 0.19223 0.68465 0.0
C1282 C 0.67631 0.11982 0.5793 0.0
C1283 C 0.72378 0.14035 0.63029 0.0
C1284 C 0.64213 0.10048 0.5659 0.0
C1285 C 0.62312 0.07703 0.58296 0.0
C1286 C 0.69138 0.11521 0.60954 0.0
C1287 C 0.63967 0.07165 0.6115 0.0
C1288 C 0.7405 0.13391 0.658 0.0
C1289 C 0.7552 0.19765 0.65416 0.0
N1290 N 0.67278 0.09087 0.62417 0.0
N1291 N 0.73269 0.17191 0.62844 0.0
H1292 H 0.83241 0.28385 0.37636 0.0
H1293 H 0.97833 0.40535 0.43605 0.0
H1294 H 0.80974 0.36744 0.37081 0.0
H1295 H 0.92906 0.46463 0.48968 0.0
H1296 H 0.92541 0.35702 0.42581 0.0
H1297 H 0.87169 0.31649 0.43121 0.0
C1298 C 0.83506 0.30884 0.38706 0.0
C1299 C 0.8195 0.32376 0.36794 0.0
C1300 C 0.92636 0.38025 0.44131 0.0
C1301 C 0.86407 0.36072 0.43025 0.0
C1302 C 0.95646 0.40782 0.4466 0.0
C1303 C 0.95736 0.43866 0.46284 0.0
C1304 C 0.89688 0.38412 0.45089 0.0
C1305 C 0.92882 0.441 0.47648 0.0
C1306 C 0.85732 0.32728 0.41848 0.0
C1307 C 0.8226 0.35557 0.38385 0.0
N1308 N 0.89917 0.41414 0.46903 0.0
N1309 N 0.84533 0.37339 0.41379 0.0
H1310 H 0.60215 0.76544 0.38292 0.0
H1311 H 0.66105 0.95344 0.48179 0.0
H1312 H 0.70303 0.82548 0.44007 0.0
H1313 H 0.55564 0.88737 0.4495 0.0
H1314 H 0.67654 0.90643 0.46954 0.0
H1315 H 0.58398 0.80908 0.40898 0.0
C1316 C 0.62035 0.78769 0.40126 0.0
C1317 C 0.65415 0.79195 0.40923 0.0
C1318 C 0.64998 0.90219 0.46549 0.0
C1319 C 0.63372 0.84205 0.43887 0.0
C1320 C 0.64106 0.92907 0.47266 0.0
C1321 C 0.60697 0.92451 0.46617 0.0
C1322 C 0.62471 0.87051 0.45132 0.0
C1323 C 0.58232 0.89222 0.45392 0.0
C1324 C 0.60997 0.81253 0.41624 0.0
C1325 C 0.67667 0.82112 0.43339 0.0
N1326 N 0.59171 0.86652 0.44648 0.0
N1327 N 0.66617 0.84524 0.44699 0.0
H1328 H 0.25653 0.73389 0.38989 0.0
H1329 H 0.1568 0.61332 0.46131 0.0
H1330 H 0.26993 0.6581 0.3122 0.0
H1331 H 0.13621 0.55806 0.35132 0.0
H1332 H 0.21057 0.6517 0.45012 0.0
H1333 H 0.22582 0.69344 0.42093 0.0
C1334 C 0.25395 0.70878 0.38017 0.0
C1335 C 0.26524 0.69898 0.3484 0.0
C1336 C 0.19427 0.63108 0.42854 0.0
C1337 C 0.22996 0.65254 0.38337 0.0
C1338 C 0.16368 0.60921 0.43489 0.0
C1339 C 0.14162 0.58322 0.40684 0.0
C1340 C 0.20259 0.62675 0.39395 0.0
C1341 C 0.15206 0.57841 0.37338 0.0
C1342 C 0.23665 0.6857 0.39804 0.0
C1343 C 0.26142 0.66638 0.33668 0.0
N1344 N 0.18169 0.60022 0.36776 0.0
N1345 N 0.24306 0.64396 0.35362 0.0
H1346 H 0.37493 0.22019 0.47707 0.0
H1347 H 0.54312 0.19707 0.53177 0.0
H1348 H 0.47576 0.28798 0.47292 0.0
H1349 H 0.44192 0.12218 0.51636 0.0
H1350 H 0.51905 0.23727 0.52813 0.0
H1351 H 0.39943 0.19121 0.50847 0.0
C1352 C 0.40226 0.22921 0.48317 0.0
C1353 C 0.42336 0.25607 0.47163 0.0
C1354 C 0.50212 0.21218 0.52632 0.0
C1355 C 0.45157 0.22303 0.50757 0.0
C1356 C 0.51585 0.18927 0.52867 0.0
C1357 C 0.49444 0.15612 0.52361 0.0
C1358 C 0.46679 0.20178 0.51892 0.0
C1359 C 0.4593 0.14736 0.51959 0.0
C1360 C 0.41623 0.21274 0.50121 0.0
C1361 C 0.45857 0.26725 0.48109 0.0
N1362 N 0.44656 0.16994 0.5168 0.0
N1363 N 0.4716 0.25031 0.49797 0.0
H1364 H 0.61197 0.76826 0.60462 0.0
H1365 H 0.63436 0.95372 0.62149 0.0
H1366 H 0.69832 0.85298 0.66654 0.0
H1367 H 0.55267 0.87026 0.55119 0.0
H1368 H 0.65887 0.91703 0.63666 0.0
H1369 H 0.59062 0.80479 0.58326 0.0
C1370 C 0.62664 0.79449 0.61357 0.0
C1371 C 0.65701 0.80741 0.63768 0.0
C1372 C 0.6357 0.90667 0.61774 0.0
C1373 C 0.63233 0.84953 0.61349 0.0
C1374 C 0.62161 0.92764 0.60912 0.0
C1375 C 0.59115 0.91507 0.5853 0.0
C1376 C 0.61922 0.87268 0.60265 0.0
C1377 C 0.57619 0.88109 0.56961 0.0
C1378 C 0.61429 0.81537 0.60144 0.0
C1379 C 0.6745 0.84174 0.64859 0.0
N1380 N 0.59017 0.86106 0.57882 0.0
N1381 N 0.66187 0.8615 0.63655 0.0
H1382 H 0.71233 0.25094 0.3497 0.0
H1383 H 0.61006 0.06949 0.36391 0.0
H1384 H 0.71475 0.16775 0.27346 0.0
H1385 H 0.65337 0.15186 0.4565 0.0
H1386 H 0.64132 0.10465 0.32708 0.0
H1387 H 0.68264 0.21449 0.38568 0.0
C1388 C 0.70628 0.22493 0.34029 0.0
C1389 C 0.71594 0.21234 0.30842 0.0
C1390 C 0.64411 0.11489 0.35549 0.0
C1391 C 0.68195 0.17054 0.34961 0.0
C1392 C 0.62629 0.09492 0.3765 0.0
C1393 C 0.62919 0.10781 0.41331 0.0
C1394 C 0.66429 0.14813 0.3713 0.0
C1395 C 0.65055 0.1409 0.42826 0.0
C1396 C 0.68962 0.20422 0.36104 0.0
C1397 C 0.70777 0.17846 0.29784 0.0
N1398 N 0.66699 0.16003 0.40713 0.0
N1399 N 0.69101 0.15865 0.31829 0.0
H1400 H 0.82405 0.68314 0.3525 0.0
H1401 H 0.96959 0.61025 0.31396 0.0
H1402 H 0.87918 0.69452 0.26422 0.0
H1403 H 0.91504 0.5987 0.40289 0.0
H1404 H 0.9376 0.64047 0.2962 0.0
H1405 H 0.85621 0.65283 0.37101 0.0
C1406 C 0.8428 0.67948 0.33675 0.0
C1407 C 0.84809 0.69218 0.30629 0.0
C1408 C 0.93247 0.63139 0.31966 0.0
C1409 C 0.88642 0.65615 0.32817 0.0
C1410 C 0.95122 0.61385 0.33028 0.0
C1411 C 0.94619 0.60088 0.3607 0.0
C1412 C 0.90751 0.63694 0.33907 0.0
C1413 C 0.9207 0.60716 0.37921 0.0
C1414 C 0.86145 0.66187 0.34754 0.0
C1415 C 0.87341 0.68577 0.28778 0.0
N1416 N 0.90293 0.62429 0.36833 0.0
N1417 N 0.8911 0.66867 0.2988 0.0
H1418 H 0.30568 0.86952 0.34052 0.0
H1419 H 0.45942 0.94804 0.50075 0.0
H1420 H 0.33266 0.81543 0.40647 0.0
H1421 H 0.44486 0.99586 0.42088 0.0
H1422 H 0.40265 0.90463 0.47831 0.0
H1423 H 0.34515 0.92081 0.38199 0.0
C1424 C 0.31903 0.86849 0.36436 0.0
C1425 C 0.31654 0.83833 0.36982 0.0
C1426 C 0.41159 0.92498 0.46617 0.0
C1427 C 0.36193 0.89654 0.4168 0.0
C1428 C 0.44381 0.94982 0.47919 0.0
C1429 C 0.45666 0.9753 0.46252 0.0
C1430 C 0.39233 0.92572 0.43621 0.0
C1431 C 0.43591 0.97625 0.43408 0.0
C1432 C 0.34177 0.89772 0.38784 0.0
C1433 C 0.33444 0.83828 0.40103 0.0
N1434 N 0.40488 0.9516 0.42155 0.0
N1435 N 0.35685 0.86695 0.42306 0.0
H1436 H 0.20131 0.29727 0.25688 0.0
H1437 H 0.16699 0.42887 0.41412 0.0
H1438 H 0.26022 0.33803 0.36167 0.0
H1439 H 0.10814 0.38982 0.30907 0.0
H1440 H 0.19995 0.39613 0.39563 0.0
H1441 H 0.16749 0.32985 0.27483 0.0
C1442 C 0.20745 0.31292 0.28373 0.0
C1443 C 0.23454 0.31406 0.30735 0.0
C1444 C 0.17984 0.39455 0.37644 0.0
C1445 C 0.19436 0.35286 0.32886 0.0
C1446 C 0.16035 0.4135 0.38717 0.0
C1447 C 0.13346 0.41316 0.36377 0.0
C1448 C 0.17339 0.37405 0.34148 0.0
C1449 C 0.12812 0.39215 0.32887 0.0
C1450 C 0.18777 0.33183 0.29409 0.0
C1451 C 0.24011 0.33556 0.34187 0.0
N1452 N 0.14737 0.37397 0.31921 0.0
N1453 N 0.22067 0.35355 0.35122 0.0
H1454 H 0.33832 0.18131 0.69084 0.0
H1455 H 0.50481 0.17416 0.62006 0.0
H1456 H 0.42333 0.27026 0.69142 0.0
H1457 H 0.40674 0.09312 0.59294 0.0
H1458 H 0.47749 0.21075 0.64573 0.0
H1459 H 0.36458 0.1494 0.65487 0.0
C1460 C 0.36262 0.19413 0.68321 0.0
C1461 C 0.37884 0.22842 0.69432 0.0
C1462 C 0.46201 0.18504 0.63367 0.0
C1463 C 0.40951 0.19184 0.65317 0.0
C1464 C 0.47757 0.1641 0.61923 0.0
C1465 C 0.45812 0.13037 0.6046 0.0
C1466 C 0.42685 0.17201 0.63391 0.0
C1467 C 0.42286 0.11886 0.60368 0.0
C1468 C 0.37757 0.17589 0.66248 0.0
C1469 C 0.41008 0.24381 0.68332 0.0
N1470 N 0.40854 0.13948 0.61849 0.0
N1471 N 0.42475 0.22534 0.66372 0.0
H1472 H 0.79766 0.30807 0.67325 0.0
H1473 H 0.97187 0.45175 0.65727 0.0
H1474 H 0.88871 0.34653 0.74993 0.0
H1475 H 0.89039 0.39985 0.56886 0.0
H1476 H 0.94009 0.41538 0.69235 0.0
H1477 H 0.82899 0.34303 0.63605 0.0
C1478 C 0.82419 0.32385 0.68241 0.0
C1479 C 0.84038 0.32407 0.71502 0.0
C1480 C 0.92905 0.41177 0.66527 0.0
C1481 C 0.87664 0.3646 0.67222 0.0
C1482 C 0.94725 0.43268 0.64508 0.0
C1483 C 0.934 0.4291 0.60978 0.0
C1484 C 0.89682 0.38694 0.65057 0.0
C1485 C 0.90183 0.40365 0.59581 0.0
C1486 C 0.84214 0.34377 0.66098 0.0
C1487 C 0.87497 0.34511 0.72506 0.0
N1488 N 0.88435 0.38378 0.61622 0.0
N1489 N 0.8917 0.36445 0.70399 0.0
H1490 H 0.19216 0.72459 0.68532 0.0
H1491 H 0.13134 0.56092 0.52658 0.0
H1492 H 0.25936 0.67698 0.65387 0.0
H1493 H 0.07187 0.61708 0.55691 0.0
H1494 H 0.18084 0.60508 0.56727 0.0
H1495 H 0.15027 0.68744 0.63432 0.0
C1496 C 0.19822 0.70627 0.66765 0.0
C1497 C 0.22941 0.70384 0.67436 0.0
C1498 C 0.15722 0.60813 0.56428 0.0
C1499 C 0.18074 0.66049 0.61505 0.0
C1500 C 0.12911 0.58315 0.54063 0.0
C1501 C 0.09763 0.58567 0.53784 0.0
C1502 C 0.15359 0.6356 0.58549 0.0
C1503 C 0.09579 0.61441 0.55774 0.0
C1504 C 0.17416 0.68502 0.63823 0.0
C1505 C 0.23567 0.67975 0.6499 0.0
N1506 N 0.12312 0.63795 0.5808 0.0
N1507 N 0.21142 0.65877 0.62158 0.0
loop_
_geom_bond_atom_site_label_1
_geom_bond_atom_site_label_2
_geom_bond_distance
_geom_bond_site_symmetry_2
_ccdc_geom_bond_type
Tb0 C10 2.825 . S
Tb0 O11 2.347 . S
Tb0 O14 2.366 . S
Tb0 O19 2.418 . S
Tb0 O20 2.384 . S
Tb0 O23 2.479 . S
Tb0 O24 2.471 . S
Eu1 O12 2.418 . S
Eu1 O13 2.384 . S
Eu1 O16 2.479 . S
Eu1 O17 2.471 . S
Eu1 O18 2.347 . S
Eu1 O21 2.366 . S
Eu1 C31 2.825 . S
C2 O18 1.259 . S
C2 O19 1.265 . S
C3 O20 1.255 . S
C3 O21 1.265 . S
C4 C6 1.380 . S
C4 C7 1.374 . S
C4 C10 1.507 . S
C5 C6 1.384 . S
C5 C9 1.387 . S
C5 H32 0.930 . S
C6 C4 1.380 . S
C6 C5 1.384 . S
C6 H33 0.931 . S
C7 C4 1.374 . S
C7 C8 1.390 . S
C7 H34 0.930 . S
C8 C7 1.390 . S
C8 C9 1.391 . S
C8 H35 0.930 . S
C9 C5 1.387 . S
C9 C8 1.391 . S
C10 Tb0 2.825 . S
C10 C4 1.507 . S
C10 O23 1.238 . S
C10 O24 1.247 . S
O11 Tb0 2.347 . S
O11 C15 1.259 . S
O12 Eu1 2.418 . S
O12 C15 1.265 . S
O13 Eu1 2.384 . S
O13 C22 1.255 . S
O14 Tb0 2.366 . S
O14 C22 1.265 . S
C15 O11 1.259 . S
C15 O12 1.265 . S
O16 Eu1 2.479 . S
O16 C31 1.238 . S
O17 Eu1 2.471 . S
O17 C31 1.247 . S
O18 Eu1 2.347 . S
O18 C2 1.259 . S
O19 Tb0 2.418 . S
O19 C2 1.265 . S
O20 Tb0 2.384 . S
O20 C3 1.255 . S
O21 Eu1 2.366 . S
O21 C3 1.265 . S
C22 O13 1.255 . S
C22 O14 1.265 . S
O23 Tb0 2.479 . S
O23 C10 1.238 . S
O24 Tb0 2.471 . S
O24 C10 1.247 . S
C25 C28 1.380 . S
C25 C29 1.374 . S
C25 C31 1.507 . S
C26 C27 1.387 . S
C26 C30 1.391 . S
C27 C26 1.387 . S
C27 C28 1.384 . S
C27 H36 0.930 . S
C28 C25 1.380 . S
C28 C27 1.384 . S
C28 H37 0.931 . S
C29 C25 1.374 . S
C29 C30 1.390 . S
C29 H38 0.930 . S
C30 C26 1.391 . S
C30 C29 1.390 . S
C30 H39 0.930 . S
C31 Eu1 2.825 . S
C31 O16 1.238 . S
C31 O17 1.247 . S
C31 C25 1.507 . S
H32 C5 0.930 . S
H33 C6 0.931 . S
H34 C7 0.930 . S
H35 C8 0.930 . S
H36 C27 0.930 . S
H37 C28 0.931 . S
H38 C29 0.930 . S
H39 C30 0.930 . S
Tb40 C50 2.825 . S
Tb40 O51 2.347 . S
Tb40 O54 2.366 . S
Tb40 O59 2.418 . S
Tb40 O60 2.384 . S
Tb40 O63 2.479 . S
Tb40 O64 2.471 . S
Eu41 O52 2.418 . S
Eu41 O53 2.384 . S
Eu41 O56 2.479 . S
Eu41 O57 2.471 . S
Eu41 O58 2.347 . S
Eu41 O61 2.366 . S
Eu41 C71 2.825 . S
C42 O58 1.259 . S
C42 O59 1.265 . S
C43 O60 1.255 . S
C43 O61 1.265 . S
C44 C46 1.380 . S
C44 C47 1.374 . S
C44 C50 1.507 . S
C45 C46 1.384 . S
C45 C49 1.387 . S
C45 H72 0.930 . S
C46 C44 1.380 . S
C46 C45 1.384 . S
C46 H73 0.931 . S
C47 C44 1.374 . S
C47 C48 1.390 . S
C47 H74 0.930 . S
C48 C47 1.390 . S
C48 C49 1.391 . S
C48 H75 0.930 . S
C49 C45 1.387 . S
C49 C48 1.391 . S
C50 Tb40 2.825 . S
C50 C44 1.507 . S
C50 O63 1.238 . S
C50 O64 1.247 . S
O51 Tb40 2.347 . S
O51 C55 1.259 . S
O52 Eu41 2.418 . S
O52 C55 1.265 . S
O53 Eu41 2.384 . S
O53 C62 1.255 . S
O54 Tb40 2.366 . S
O54 C62 1.265 . S
C55 O51 1.259 . S
C55 O52 1.265 . S
O56 Eu41 2.479 . S
O56 C71 1.238 . S
O57 Eu41 2.471 . S
O57 C71 1.247 . S
O58 Eu41 2.347 . S
O58 C42 1.259 . S
O59 Tb40 2.418 . S
O59 C42 1.265 . S
O60 Tb40 2.384 . S
O60 C43 1.255 . S
O61 Eu41 2.366 . S
O61 C43 1.265 . S
C62 O53 1.255 . S
C62 O54 1.265 . S
O63 Tb40 2.479 . S
O63 C50 1.238 . S
O64 Tb40 2.471 . S
O64 C50 1.247 . S
C65 C68 1.380 . S
C65 C69 1.374 . S
C65 C71 1.507 . S
C66 C67 1.387 . S
C66 C70 1.391 . S
C67 C66 1.387 . S
C67 C68 1.384 . S
C67 H76 0.930 . S
C68 C65 1.380 . S
C68 C67 1.384 . S
C68 H77 0.931 . S
C69 C65 1.374 . S
C69 C70 1.390 . S
C69 H78 0.930 . S
C70 C66 1.391 . S
C70 C69 1.390 . S
C70 H79 0.930 . S
C71 Eu41 2.825 . S
C71 O56 1.238 . S
C71 O57 1.247 . S
C71 C65 1.507 . S
H72 C45 0.930 . S
H73 C46 0.931 . S
H74 C47 0.930 . S
H75 C48 0.930 . S
H76 C67 0.930 . S
H77 C68 0.931 . S
H78 C69 0.930 . S
H79 C70 0.930 . S
Tb80 C90 2.825 . S
Tb80 O91 2.347 . S
Tb80 O94 2.366 . S
Tb80 O99 2.418 . S
Tb80 O100 2.384 . S
Tb80 O103 2.479 . S
Tb80 O104 2.471 . S
Eu81 O92 2.418 . S
Eu81 O93 2.384 . S
Eu81 O96 2.479 . S
Eu81 O97 2.471 . S
Eu81 O98 2.347 . S
Eu81 O101 2.366 . S
Eu81 C111 2.825 . S
C82 O98 1.259 . S
C82 O99 1.265 . S
C83 O100 1.255 . S
C83 O101 1.265 . S
C84 C86 1.380 . S
C84 C87 1.374 . S
C84 C90 1.507 . S
C85 C86 1.384 . S
C85 C89 1.387 . S
C85 H112 0.930 . S
C86 C84 1.380 . S
C86 C85 1.384 . S
C86 H113 0.931 . S
C87 C84 1.374 . S
C87 C88 1.390 . S
C87 H114 0.930 . S
C88 C87 1.390 . S
C88 C89 1.391 . S
C88 H115 0.930 . S
C89 C85 1.387 . S
C89 C88 1.391 . S
C90 Tb80 2.825 . S
C90 C84 1.507 . S
C90 O103 1.238 . S
C90 O104 1.247 . S
O91 Tb80 2.347 . S
O91 C95 1.259 . S
O92 Eu81 2.418 . S
O92 C95 1.265 . S
O93 Eu81 2.384 . S
O93 C102 1.255 . S
O94 Tb80 2.366 . S
O94 C102 1.265 . S
C95 O91 1.259 . S
C95 O92 1.265 . S
O96 Eu81 2.479 . S
O96 C111 1.238 . S
O97 Eu81 2.471 . S
O97 C111 1.247 . S
O98 Eu81 2.347 . S
O98 C82 1.259 . S
O99 Tb80 2.418 . S
O99 C82 1.265 . S
O100 Tb80 2.384 . S
O100 C83 1.255 . S
O101 Eu81 2.366 . S
O101 C83 1.265 . S
C102 O93 1.255 . S
C102 O94 1.265 . S
O103 Tb80 2.479 . S
O103 C90 1.238 . S
O104 Tb80 2.471 . S
O104 C90 1.247 . S
C105 C108 1.380 . S
C105 C109 1.374 . S
C105 C111 1.507 . S
C106 C107 1.387 . S
C106 C110 1.391 . S
C107 C106 1.387 . S
C107 C108 1.384 . S
C107 H116 0.930 . S
C108 C105 1.380 . S
C108 C107 1.384 . S
C108 H117 0.931 . S
C109 C105 1.374 . S
C109 C110 1.390 . S
C109 H118 0.930 . S
C110 C106 1.391 . S
C110 C109 1.390 . S
C110 H119 0.930 . S
C111 Eu81 2.825 . S
C111 O96 1.238 . S
C111 O97 1.247 . S
C111 C105 1.507 . S
H112 C85 0.930 . S
H113 C86 0.931 . S
H114 C87 0.930 . S
H115 C88 0.930 . S
H116 C107 0.930 . S
H117 C108 0.931 . S
H118 C109 0.930 . S
H119 C110 0.930 . S
Tb120 C130 2.825 . S
Tb120 O131 2.347 . S
Tb120 O134 2.366 . S
Tb120 O139 2.418 . S
Tb120 O140 2.384 . S
Tb120 O143 2.479 . S
Tb120 O144 2.471 . S
Eu121 O132 2.418 . S
Eu121 O133 2.384 . S
Eu121 O136 2.479 . S
Eu121 O137 2.471 . S
Eu121 O138 2.347 . S
Eu121 O141 2.366 . S
Eu121 C151 2.825 . S
C122 O138 1.259 . S
C122 O139 1.265 . S
C123 O140 1.255 . S
C123 O141 1.265 . S
C124 C126 1.380 . S
C124 C127 1.374 . S
C124 C130 1.507 . S
C125 C126 1.384 . S
C125 C129 1.387 . S
C125 H152 0.930 . S
C126 C124 1.380 . S
C126 C125 1.384 . S
C126 H153 0.931 . S
C127 C124 1.374 . S
C127 C128 1.390 . S
C127 H154 0.930 . S
C128 C127 1.390 . S
C128 C129 1.391 . S
C128 H155 0.930 . S
C129 C125 1.387 . S
C129 C128 1.391 . S
C130 Tb120 2.825 . S
C130 C124 1.507 . S
C130 O143 1.238 . S
C130 O144 1.247 . S
O131 Tb120 2.347 . S
O131 C135 1.259 . S
O132 Eu121 2.418 . S
O132 C135 1.265 . S
O133 Eu121 2.384 . S
O133 C142 1.255 . S
O134 Tb120 2.366 . S
O134 C142 1.265 . S
C135 O131 1.259 . S
C135 O132 1.265 . S
O136 Eu121 2.479 . S
O136 C151 1.238 . S
O137 Eu121 2.471 . S
O137 C151 1.247 . S
O138 Eu121 2.347 . S
O138 C122 1.259 . S
O139 Tb120 2.418 . S
O139 C122 1.265 . S
O140 Tb120 2.384 . S
O140 C123 1.255 . S
O141 Eu121 2.366 . S
O141 C123 1.265 . S
C142 O133 1.255 . S
C142 O134 1.265 . S
O143 Tb120 2.479 . S
O143 C130 1.238 . S
O144 Tb120 2.471 . S
O144 C130 1.247 . S
C145 C148 1.380 . S
C145 C149 1.374 . S
C145 C151 1.507 . S
C146 C147 1.387 . S
C146 C150 1.391 . S
C147 C146 1.387 . S
C147 C148 1.384 . S
C147 H156 0.930 . S
C148 C145 1.380 . S
C148 C147 1.384 . S
C148 H157 0.931 . S
C149 C145 1.374 . S
C149 C150 1.390 . S
C149 H158 0.930 . S
C150 C146 1.391 . S
C150 C149 1.390 . S
C150 H159 0.930 . S
C151 Eu121 2.825 . S
C151 O136 1.238 . S
C151 O137 1.247 . S
C151 C145 1.507 . S
H152 C125 0.930 . S
H153 C126 0.931 . S
H154 C127 0.930 . S
H155 C128 0.930 . S
H156 C147 0.930 . S
H157 C148 0.931 . S
H158 C149 0.930 . S
H159 C150 0.930 . S
Tb160 C170 2.825 . S
Tb160 O171 2.347 . S
Tb160 O174 2.366 . S
Tb160 O179 2.418 . S
Tb160 O180 2.384 . S
Tb160 O183 2.479 . S
Tb160 O184 2.471 . S
Eu161 O172 2.418 . S
Eu161 O173 2.384 . S
Eu161 O176 2.479 . S
Eu161 O177 2.471 . S
Eu161 O178 2.347 . S
Eu161 O181 2.366 . S
Eu161 C191 2.825 . S
C162 O178 1.259 . S
C162 O179 1.265 . S
C163 O180 1.255 . S
C163 O181 1.265 . S
C164 C166 1.380 . S
C164 C167 1.374 . S
C164 C170 1.507 . S
C165 C166 1.384 . S
C165 C169 1.387 . S
C165 H192 0.930 . S
C166 C164 1.380 . S
C166 C165 1.384 . S
C166 H193 0.931 . S
C167 C164 1.374 . S
C167 C168 1.390 . S
C167 H194 0.930 . S
C168 C167 1.390 . S
C168 C169 1.391 . S
C168 H195 0.930 . S
C169 C165 1.387 . S
C169 C168 1.391 . S
C170 Tb160 2.825 . S
C170 C164 1.507 . S
C170 O183 1.238 . S
C170 O184 1.247 . S
O171 Tb160 2.347 . S
O171 C175 1.259 . S
O172 Eu161 2.418 . S
O172 C175 1.265 . S
O173 Eu161 2.384 . S
O173 C182 1.255 . S
O174 Tb160 2.366 . S
O174 C182 1.265 . S
C175 O171 1.259 . S
C175 O172 1.265 . S
O176 Eu161 2.479 . S
O176 C191 1.238 . S
O177 Eu161 2.471 . S
O177 C191 1.247 . S
O178 Eu161 2.347 . S
O178 C162 1.259 . S
O179 Tb160 2.418 . S
O179 C162 1.265 . S
O180 Tb160 2.384 . S
O180 C163 1.255 . S
O181 Eu161 2.366 . S
O181 C163 1.265 . S
C182 O173 1.255 . S
C182 O174 1.265 . S
O183 Tb160 2.479 . S
O183 C170 1.238 . S
O184 Tb160 2.471 . S
O184 C170 1.247 . S
C185 C188 1.380 . S
C185 C189 1.374 . S
C185 C191 1.507 . S
C186 C187 1.387 . S
C186 C190 1.391 . S
C187 C186 1.387 . S
C187 C188 1.384 . S
C187 H196 0.930 . S
C188 C185 1.380 . S
C188 C187 1.384 . S
C188 H197 0.931 . S
C189 C185 1.374 . S
C189 C190 1.390 . S
C189 H198 0.930 . S
C190 C186 1.391 . S
C190 C189 1.390 . S
C190 H199 0.930 . S
C191 Eu161 2.825 . S
C191 O176 1.238 . S
C191 O177 1.247 . S
C191 C185 1.507 . S
H192 C165 0.930 . S
H193 C166 0.931 . S
H194 C167 0.930 . S
H195 C168 0.930 . S
H196 C187 0.930 . S
H197 C188 0.931 . S
H198 C189 0.930 . S
H199 C190 0.930 . S
Tb200 C210 2.825 . S
Tb200 O211 2.347 . S
Tb200 O214 2.366 . S
Tb200 O219 2.418 . S
Tb200 O220 2.384 . S
Tb200 O223 2.479 . S
Tb200 O224 2.471 . S
Eu201 O212 2.418 . S
Eu201 O213 2.384 . S
Eu201 O216 2.479 . S
Eu201 O217 2.471 . S
Eu201 O218 2.347 . S
Eu201 O221 2.366 . S
Eu201 C231 2.825 . S
C202 O218 1.259 . S
C202 O219 1.265 . S
C203 O220 1.255 . S
C203 O221 1.265 . S
C204 C206 1.380 . S
C204 C207 1.374 . S
C204 C210 1.507 . S
C205 C206 1.384 . S
C205 C209 1.387 . S
C205 H232 0.930 . S
C206 C204 1.380 . S
C206 C205 1.384 . S
C206 H233 0.931 . S
C207 C204 1.374 . S
C207 C208 1.390 . S
C207 H234 0.930 . S
C208 C207 1.390 . S
C208 C209 1.391 . S
C208 H235 0.930 . S
C209 C205 1.387 . S
C209 C208 1.391 . S
C210 Tb200 2.825 . S
C210 C204 1.507 . S
C210 O223 1.238 . S
C210 O224 1.247 . S
O211 Tb200 2.347 . S
O211 C215 1.259 . S
O212 Eu201 2.418 . S
O212 C215 1.265 . S
O213 Eu201 2.384 . S
O213 C222 1.255 . S
O214 Tb200 2.366 . S
O214 C222 1.265 . S
C215 O211 1.259 . S
C215 O212 1.265 . S
O216 Eu201 2.479 . S
O216 C231 1.238 . S
O217 Eu201 2.471 . S
O217 C231 1.247 . S
O218 Eu201 2.347 . S
O218 C202 1.259 . S
O219 Tb200 2.418 . S
O219 C202 1.265 . S
O220 Tb200 2.384 . S
O220 C203 1.255 . S
O221 Eu201 2.366 . S
O221 C203 1.265 . S
C222 O213 1.255 . S
C222 O214 1.265 . S
O223 Tb200 2.479 . S
O223 C210 1.238 . S
O224 Tb200 2.471 . S
O224 C210 1.247 . S
C225 C228 1.380 . S
C225 C229 1.374 . S
C225 C231 1.507 . S
C226 C227 1.387 . S
C226 C230 1.391 . S
C227 C226 1.387 . S
C227 C228 1.384 . S
C227 H236 0.930 . S
C228 C225 1.380 . S
C228 C227 1.384 . S
C228 H237 0.931 . S
C229 C225 1.374 . S
C229 C230 1.390 . S
C229 H238 0.930 . S
C230 C226 1.391 . S
C230 C229 1.390 . S
C230 H239 0.930 . S
C231 Eu201 2.825 . S
C231 O216 1.238 . S
C231 O217 1.247 . S
C231 C225 1.507 . S
H232 C205 0.930 . S
H233 C206 0.931 . S
H234 C207 0.930 . S
H235 C208 0.930 . S
H236 C227 0.930 . S
H237 C228 0.931 . S
H238 C229 0.930 . S
H239 C230 0.930 . S
Tb240 C250 2.825 . S
Tb240 O251 2.347 . S
Tb240 O254 2.366 . S
Tb240 O259 2.418 . S
Tb240 O260 2.384 . S
Tb240 O263 2.479 . S
Tb240 O264 2.471 . S
Eu241 O252 2.418 . S
Eu241 O253 2.384 . S
Eu241 O256 2.479 . S
Eu241 O257 2.471 . S
Eu241 O258 2.347 . S
Eu241 O261 2.366 . S
Eu241 C271 2.825 . S
C242 O258 1.259 . S
C242 O259 1.265 . S
C243 O260 1.255 . S
C243 O261 1.265 . S
C244 C246 1.380 . S
C244 C247 1.374 . S
C244 C250 1.507 . S
C245 C246 1.384 . S
C245 C249 1.387 . S
C245 H272 0.930 . S
C246 C244 1.380 . S
C246 C245 1.384 . S
C246 H273 0.931 . S
C247 C244 1.374 . S
C247 C248 1.390 . S
C247 H274 0.930 . S
C248 C247 1.390 . S
C248 C249 1.391 . S
C248 H275 0.930 . S
C249 C245 1.387 . S
C249 C248 1.391 . S
C250 Tb240 2.825 . S
C250 C244 1.507 . S
C250 O263 1.238 . S
C250 O264 1.247 . S
O251 Tb240 2.347 . S
O251 C255 1.259 . S
O252 Eu241 2.418 . S
O252 C255 1.265 . S
O253 Eu241 2.384 . S
O253 C262 1.255 . S
O254 Tb240 2.366 . S
O254 C262 1.265 . S
C255 O251 1.259 . S
C255 O252 1.265 . S
O256 Eu241 2.479 . S
O256 C271 1.238 . S
O257 Eu241 2.471 . S
O257 C271 1.247 . S
O258 Eu241 2.347 . S
O258 C242 1.259 . S
O259 Tb240 2.418 . S
O259 C242 1.265 . S
O260 Tb240 2.384 . S
O260 C243 1.255 . S
O261 Eu241 2.366 . S
O261 C243 1.265 . S
C262 O253 1.255 . S
C262 O254 1.265 . S
O263 Tb240 2.479 . S
O263 C250 1.238 . S
O264 Tb240 2.471 . S
O264 C250 1.247 . S
C265 C268 1.380 . S
C265 C269 1.374 . S
C265 C271 1.507 . S
C266 C267 1.387 . S
C266 C270 1.391 . S
C267 C266 1.387 . S
C267 C268 1.384 . S
C267 H276 0.930 . S
C268 C265 1.380 . S
C268 C267 1.384 . S
C268 H277 0.931 . S
C269 C265 1.374 . S
C269 C270 1.390 . S
C269 H278 0.930 . S
C270 C266 1.391 . S
C270 C269 1.390 . S
C270 H279 0.930 . S
C271 Eu241 2.825 . S
C271 O256 1.238 . S
C271 O257 1.247 . S
C271 C265 1.507 . S
H272 C245 0.930 . S
H273 C246 0.931 . S
H274 C247 0.930 . S
H275 C248 0.930 . S
H276 C267 0.930 . S
H277 C268 0.931 . S
H278 C269 0.930 . S
H279 C270 0.930 . S
Tb280 C290 2.825 . S
Tb280 O291 2.347 . S
Tb280 O294 2.366 . S
Tb280 O299 2.418 . S
Tb280 O300 2.384 . S
Tb280 O303 2.479 . S
Tb280 O304 2.471 . S
Eu281 O292 2.418 . S
Eu281 O293 2.384 . S
Eu281 O296 2.479 . S
Eu281 O297 2.471 . S
Eu281 O298 2.347 . S
Eu281 O301 2.366 . S
Eu281 C311 2.825 . S
C282 O298 1.259 . S
C282 O299 1.265 . S
C283 O300 1.255 . S
C283 O301 1.265 . S
C284 C286 1.380 . S
C284 C287 1.374 . S
C284 C290 1.507 . S
C285 C286 1.384 . S
C285 C289 1.387 . S
C285 H312 0.930 . S
C286 C284 1.380 . S
C286 C285 1.384 . S
C286 H313 0.931 . S
C287 C284 1.374 . S
C287 C288 1.390 . S
C287 H314 0.930 . S
C288 C287 1.390 . S
C288 C289 1.391 . S
C288 H315 0.930 . S
C289 C285 1.387 . S
C289 C288 1.391 . S
C290 Tb280 2.825 . S
C290 C284 1.507 . S
C290 O303 1.238 . S
C290 O304 1.247 . S
O291 Tb280 2.347 . S
O291 C295 1.259 . S
O292 Eu281 2.418 . S
O292 C295 1.265 . S
O293 Eu281 2.384 . S
O293 C302 1.255 . S
O294 Tb280 2.366 . S
O294 C302 1.265 . S
C295 O291 1.259 . S
C295 O292 1.265 . S
O296 Eu281 2.479 . S
O296 C311 1.238 . S
O297 Eu281 2.471 . S
O297 C311 1.247 . S
O298 Eu281 2.347 . S
O298 C282 1.259 . S
O299 Tb280 2.418 . S
O299 C282 1.265 . S
O300 Tb280 2.384 . S
O300 C283 1.255 . S
O301 Eu281 2.366 . S
O301 C283 1.265 . S
C302 O293 1.255 . S
C302 O294 1.265 . S
O303 Tb280 2.479 . S
O303 C290 1.238 . S
O304 Tb280 2.471 . S
O304 C290 1.247 . S
C305 C308 1.380 . S
C305 C309 1.374 . S
C305 C311 1.507 . S
C306 C307 1.387 . S
C306 C310 1.391 . S
C307 C306 1.387 . S
C307 C308 1.384 . S
C307 H316 0.930 . S
C308 C305 1.380 . S
C308 C307 1.384 . S
C308 H317 0.931 . S
C309 C305 1.374 . S
C309 C310 1.390 . S
C309 H318 0.930 . S
C310 C306 1.391 . S
C310 C309 1.390 . S
C310 H319 0.930 . S
C311 Eu281 2.825 . S
C311 O296 1.238 . S
C311 O297 1.247 . S
C311 C305 1.507 . S
H312 C285 0.930 . S
H313 C286 0.931 . S
H314 C287 0.930 . S
H315 C288 0.930 . S
H316 C307 0.930 . S
H317 C308 0.931 . S
H318 C309 0.930 . S
H319 C310 0.930 . S
Cd320 N323 2.334 1_655 S
Cd320 N349 2.304 1_565 S
Cd320 O356 2.268 . S
Cd320 O359 2.273 1_665 S
Cd320 O360 2.417 . S
Cd320 O361 2.330 . S
Cd321 N336 2.304 . S
Cd321 N340 2.334 . S
Cd321 O357 2.273 1_445 S
Cd321 O358 2.268 . S
Cd321 O362 2.417 . S
Cd321 O363 2.330 . S
C322 N323 1.332 . S
C322 C326 1.381 . S
C322 H328 0.931 . S
N323 Cd320 2.334 1_455 S
N323 C322 1.332 . S
N323 C327 1.328 . S
C324 C325 1.396 . S
C324 C327 1.378 . S
C324 H366 0.931 . S
C325 C324 1.396 . S
C325 C326 1.382 . S
C326 C322 1.381 . S
C326 C325 1.382 . S
C326 H367 0.930 . S
C327 N323 1.328 . S
C327 C324 1.378 . S
C327 H329 0.930 . S
H328 C322 0.931 . S
H329 C327 0.930 . S
C330 O356 1.238 . S
C330 O357 1.253 . S
C331 C332 1.379 . S
C331 N336 1.337 1_655 S
C331 H337 0.929 . S
C332 C331 1.379 . S
C332 C333 1.380 . S
C332 H368 0.929 . S
C333 C332 1.380 . S
C333 C334 1.399 . S
C334 C333 1.399 . S
C334 C335 1.376 1_655 S
C334 H369 0.931 1_655 S
C335 C334 1.376 1_455 S
C335 N336 1.338 . S
C335 H338 0.930 . S
N336 Cd321 2.304 . S
N336 C331 1.337 1_455 S
N336 C335 1.338 . S
H337 C331 0.929 . S
H338 C335 0.930 . S
C339 N340 1.332 1_565 S
C339 C343 1.381 . S
C339 H345 0.931 . S
N340 Cd321 2.334 . S
N340 C339 1.332 1_545 S
N340 C344 1.328 . S
C341 C342 1.396 . S
C341 C344 1.378 1_565 S
C341 H370 0.931 1_565 S
C342 C341 1.396 . S
C342 C343 1.382 . S
C343 C339 1.381 . S
C343 C342 1.382 . S
C343 H371 0.930 . S
C344 N340 1.328 . S
C344 C341 1.378 1_545 S
C344 H346 0.930 . S
H345 C339 0.931 . S
H346 C344 0.930 . S
C347 O358 1.238 . S
C347 O359 1.253 . S
C348 O360 1.239 . S
C348 O361 1.230 . S
N349 Cd320 2.304 1_545 S
N349 C350 1.337 . S
N349 C354 1.338 . S
C350 N349 1.337 . S
C350 C351 1.379 . S
C350 H364 0.929 . S
C351 C350 1.379 . S
C351 C352 1.380 . S
C351 H372 0.929 . S
C352 C351 1.380 . S
C352 C353 1.399 . S
C353 C352 1.399 . S
C353 C354 1.376 . S
C353 H373 0.931 . S
C354 N349 1.338 . S
C354 C353 1.376 . S
C354 H365 0.930 . S
C355 O362 1.239 . S
C355 O363 1.230 . S
O356 Cd320 2.268 . S
O356 C330 1.238 . S
O357 Cd321 2.273 1_665 S
O357 C330 1.253 . S
O358 Cd321 2.268 . S
O358 C347 1.238 . S
O359 Cd320 2.273 1_445 S
O359 C347 1.253 . S
O360 Cd320 2.417 . S
O360 C348 1.239 . S
O361 Cd320 2.330 . S
O361 C348 1.230 . S
O362 Cd321 2.417 . S
O362 C355 1.239 . S
O363 Cd321 2.330 . S
O363 C355 1.230 . S
H364 C350 0.929 . S
H365 C354 0.930 . S
H366 C324 0.931 . S
H367 C326 0.930 . S
H368 C332 0.929 . S
H369 C334 0.931 1_455 S
H370 C341 0.931 1_545 S
H371 C343 0.930 . S
H372 C351 0.929 . S
H373 C353 0.931 . S
Cd374 N377 2.334 . S
Cd374 N403 2.304 1_565 S
Cd374 O410 2.268 . S
Cd374 O413 2.273 1_565 S
Cd374 O414 2.417 . S
Cd374 O415 2.330 . S
Cd375 N390 2.304 . S
Cd375 N394 2.334 1_545 S
Cd375 O411 2.273 1_544 S
Cd375 O412 2.268 . S
Cd375 O416 2.417 1_554 S
Cd375 O417 2.330 1_554 S
C376 N377 1.332 . S
C376 C380 1.381 . S
C376 H382 0.931 . S
N377 Cd374 2.334 . S
N377 C376 1.332 . S
N377 C381 1.328 . S
C378 C379 1.396 . S
C378 C381 1.378 . S
C378 H420 0.931 . S
C379 C378 1.396 . S
C379 C380 1.382 . S
C380 C376 1.381 . S
C380 C379 1.382 . S
C380 H421 0.930 . S
C381 N377 1.328 . S
C381 C378 1.378 . S
C381 H383 0.930 . S
H382 C376 0.931 . S
H383 C381 0.930 . S
C384 O410 1.238 1_556 S
C384 O411 1.253 . S
C385 C386 1.379 . S
C385 N390 1.337 1_556 S
C385 H391 0.929 . S
C386 C385 1.379 . S
C386 C387 1.380 1_556 S
C386 H422 0.929 . S
C387 C386 1.380 1_554 S
C387 C388 1.399 . S
C388 C387 1.399 . S
C388 C389 1.376 . S
C388 H423 0.931 . S
C389 C388 1.376 . S
C389 N390 1.338 . S
C389 H392 0.930 . S
N390 Cd375 2.304 . S
N390 C385 1.337 1_554 S
N390 C389 1.338 . S
H391 C385 0.929 . S
H392 C389 0.930 . S
C393 N394 1.332 1_556 S
C393 C397 1.381 . S
C393 H399 0.931 . S
N394 Cd375 2.334 1_565 S
N394 C393 1.332 1_554 S
N394 C398 1.328 1_565 S
C395 C396 1.396 1_554 S
C395 C398 1.378 1_565 S
C395 H424 0.931 . S
C396 C395 1.396 1_556 S
C396 C397 1.382 . S
C397 C393 1.381 . S
C397 C396 1.382 . S
C397 H425 0.930 . S
C398 N394 1.328 1_545 S
C398 C395 1.378 1_545 S
C398 H400 0.930 . S
H399 C393 0.931 . S
H400 C398 0.930 . S
C401 O412 1.238 . S
C401 O413 1.253 . S
C402 O414 1.239 . S
C402 O415 1.230 . S
N403 Cd374 2.304 1_545 S
N403 C404 1.337 . S
N403 C408 1.338 . S
C404 N403 1.337 . S
C404 C405 1.379 . S
C404 H418 0.929 . S
C405 C404 1.379 . S
C405 C406 1.380 . S
C405 H426 0.929 . S
C406 C405 1.380 . S
C406 C407 1.399 . S
C407 C406 1.399 . S
C407 C408 1.376 . S
C407 H427 0.931 . S
C408 N403 1.338 . S
C408 C407 1.376 . S
C408 H419 0.930 1_545 S
C409 O416 1.239 . S
C409 O417 1.230 . S
O410 Cd374 2.268 . S
O410 C384 1.238 1_554 S
O411 Cd375 2.273 1_566 S
O411 C384 1.253 . S
O412 Cd375 2.268 . S
O412 C401 1.238 . S
O413 Cd374 2.273 1_545 S
O413 C401 1.253 . S
O414 Cd374 2.417 . S
O414 C402 1.239 . S
O415 Cd374 2.330 . S
O415 C402 1.230 . S
O416 Cd375 2.417 1_556 S
O416 C409 1.239 . S
O417 Cd375 2.330 1_556 S
O417 C409 1.230 . S
H418 C404 0.929 . S
H419 C408 0.930 1_565 S
H420 C378 0.931 . S
H421 C380 0.930 . S
H422 C386 0.929 . S
H423 C388 0.931 . S
H424 C395 0.931 . S
H425 C397 0.930 . S
H426 C405 0.929 . S
H427 C407 0.931 . S
Cd428 N431 2.334 . S
Cd428 N457 2.304 1_455 S
Cd428 O464 2.268 1_454 S
Cd428 O467 2.273 . S
Cd428 O468 2.417 1_455 S
Cd428 O469 2.330 1_455 S
Cd429 N444 2.304 . S
Cd429 N448 2.334 . S
Cd429 O465 2.273 . S
Cd429 O466 2.268 1_556 S
Cd429 O470 2.417 . S
Cd429 O471 2.330 . S
C430 N431 1.332 . S
C430 C434 1.381 . S
C430 H436 0.931 . S
N431 Cd428 2.334 . S
N431 C430 1.332 . S
N431 C435 1.328 . S
C432 C433 1.396 . S
C432 C435 1.378 . S
C432 H474 0.931 1_554 S
C433 C432 1.396 . S
C433 C434 1.382 . S
C434 C430 1.381 . S
C434 C433 1.382 . S
C434 H475 0.930 . S
C435 N431 1.328 . S
C435 C432 1.378 . S
C435 H437 0.930 1_554 S
H436 C430 0.931 . S
H437 C435 0.930 1_556 S
C438 O464 1.238 . S
C438 O465 1.253 1_655 S
C439 C440 1.379 . S
C439 N444 1.337 1_655 S
C439 H445 0.929 . S
C440 C439 1.379 . S
C440 C441 1.380 . S
C440 H476 0.929 . S
C441 C440 1.380 . S
C441 C442 1.399 1_655 S
C442 C441 1.399 1_455 S
C442 C443 1.376 . S
C442 H477 0.931 1_556 S
C443 C442 1.376 . S
C443 N444 1.338 . S
C443 H446 0.930 1_556 S
N444 Cd429 2.304 . S
N444 C439 1.337 1_455 S
N444 C443 1.338 . S
H445 C439 0.929 . S
H446 C443 0.930 1_554 S
C447 N448 1.332 . S
C447 C451 1.381 . S
C447 H453 0.931 . S
N448 Cd429 2.334 . S
N448 C447 1.332 . S
N448 C452 1.328 . S
C449 C450 1.396 . S
C449 C452 1.378 . S
C449 H478 0.931 1_556 S
C450 C449 1.396 . S
C450 C451 1.382 . S
C451 C447 1.381 . S
C451 C450 1.382 . S
C451 H479 0.930 . S
C452 N448 1.328 . S
C452 C449 1.378 . S
C452 H454 0.930 1_556 S
H453 C447 0.931 . S
H454 C452 0.930 1_554 S
C455 O466 1.238 . S
C455 O467 1.253 . S
C456 O468 1.239 . S
C456 O469 1.230 . S
N457 Cd428 2.304 1_655 S
N457 C458 1.337 . S
N457 C462 1.338 . S
C458 N457 1.337 . S
C458 C459 1.379 . S
C458 H472 0.929 1_655 S
C459 C458 1.379 . S
C459 C460 1.380 . S
C459 H480 0.929 . S
C460 C459 1.380 . S
C460 C461 1.399 . S
C461 C460 1.399 . S
C461 C462 1.376 . S
C461 H481 0.931 1_554 S
C462 N457 1.338 . S
C462 C461 1.376 . S
C462 H473 0.930 1_554 S
C463 O470 1.239 . S
C463 O471 1.230 . S
O464 Cd428 2.268 1_656 S
O464 C438 1.238 . S
O465 Cd429 2.273 . S
O465 C438 1.253 1_455 S
O466 Cd429 2.268 1_554 S
O466 C455 1.238 . S
O467 Cd428 2.273 . S
O467 C455 1.253 . S
O468 Cd428 2.417 1_655 S
O468 C456 1.239 . S
O469 Cd428 2.330 1_655 S
O469 C456 1.230 . S
O470 Cd429 2.417 . S
O470 C463 1.239 . S
O471 Cd429 2.330 . S
O471 C463 1.230 . S
H472 C458 0.929 1_455 S
H473 C462 0.930 1_556 S
H474 C432 0.931 1_556 S
H475 C434 0.930 . S
H476 C440 0.929 . S
H477 C442 0.931 1_554 S
H478 C449 0.931 1_554 S
H479 C451 0.930 . S
H480 C459 0.929 . S
H481 C461 0.931 1_556 S
Cd482 N485 2.334 . S
Cd482 N511 2.304 . S
Cd482 O518 2.268 . S
Cd482 O521 2.273 . S
Cd482 O522 2.417 . S
Cd482 O523 2.330 . S
Cd483 N498 2.304 . S
Cd483 N502 2.334 . S
Cd483 O519 2.273 . S
Cd483 O520 2.268 1_556 S
Cd483 O524 2.417 . S
Cd483 O525 2.330 . S
C484 N485 1.332 . S
C484 C488 1.381 . S
C484 H490 0.931 . S
N485 Cd482 2.334 . S
N485 C484 1.332 . S
N485 C489 1.328 . S
C486 C487 1.396 . S
C486 C489 1.378 . S
C486 H528 0.931 . S
C487 C486 1.396 . S
C487 C488 1.382 . S
C488 C484 1.381 . S
C488 C487 1.382 . S
C488 H529 0.930 . S
C489 N485 1.328 . S
C489 C486 1.378 . S
C489 H491 0.930 . S
H490 C484 0.931 . S
H491 C489 0.930 . S
C492 O518 1.238 1_556 S
C492 O519 1.253 . S
C493 C494 1.379 . S
C493 N498 1.337 . S
C493 H499 0.929 . S
C494 C493 1.379 . S
C494 C495 1.380 . S
C494 H530 0.929 . S
C495 C494 1.380 . S
C495 C496 1.399 1_556 S
C496 C495 1.399 1_554 S
C496 C497 1.376 . S
C496 H531 0.931 . S
C497 C496 1.376 . S
C497 N498 1.338 1_554 S
C497 H500 0.930 . S
N498 Cd483 2.304 . S
N498 C493 1.337 . S
N498 C497 1.338 1_556 S
H499 C493 0.929 . S
H500 C497 0.930 . S
C501 N502 1.332 . S
C501 C505 1.381 . S
C501 H507 0.931 . S
N502 Cd483 2.334 . S
N502 C501 1.332 . S
N502 C506 1.328 1_556 S
C503 C504 1.396 1_554 S
C503 C506 1.378 . S
C503 H532 0.931 . S
C504 C503 1.396 1_556 S
C504 C505 1.382 . S
C505 C501 1.381 . S
C505 C504 1.382 . S
C505 H533 0.930 . S
C506 N502 1.328 1_554 S
C506 C503 1.378 . S
C506 H508 0.930 . S
H507 C501 0.931 . S
H508 C506 0.930 . S
C509 O520 1.238 . S
C509 O521 1.253 . S
C510 O522 1.239 . S
C510 O523 1.230 . S
N511 Cd482 2.304 . S
N511 C512 1.337 . S
N511 C516 1.338 . S
C512 N511 1.337 . S
C512 C513 1.379 . S
C512 H526 0.929 . S
C513 C512 1.379 . S
C513 C514 1.380 . S
C513 H534 0.929 . S
C514 C513 1.380 . S
C514 C515 1.399 . S
C515 C514 1.399 . S
C515 C516 1.376 . S
C515 H535 0.931 . S
C516 N511 1.338 . S
C516 C515 1.376 . S
C516 H527 0.930 . S
C517 O524 1.239 . S
C517 O525 1.230 . S
O518 Cd482 2.268 . S
O518 C492 1.238 1_554 S
O519 Cd483 2.273 . S
O519 C492 1.253 . S
O520 Cd483 2.268 1_554 S
O520 C509 1.238 . S
O521 Cd482 2.273 . S
O521 C509 1.253 . S
O522 Cd482 2.417 . S
O522 C510 1.239 . S
O523 Cd482 2.330 . S
O523 C510 1.230 . S
O524 Cd483 2.417 . S
O524 C517 1.239 . S
O525 Cd483 2.330 . S
O525 C517 1.230 . S
H526 C512 0.929 . S
H527 C516 0.930 . S
H528 C486 0.931 . S
H529 C488 0.930 . S
H530 C494 0.929 . S
H531 C496 0.931 . S
H532 C503 0.931 . S
H533 C505 0.930 . S
H534 C513 0.929 . S
H535 C515 0.931 . S
Cd536 N539 2.334 1_655 S
Cd536 N565 2.304 . S
Cd536 O572 2.268 . S
Cd536 O575 2.273 1_655 S
Cd536 O576 2.417 . S
Cd536 O577 2.330 . S
Cd537 N552 2.304 1_455 S
Cd537 N556 2.334 . S
Cd537 O573 2.273 1_455 S
Cd537 O574 2.268 . S
Cd537 O578 2.417 . S
Cd537 O579 2.330 . S
C538 N539 1.332 . S
C538 C542 1.381 . S
C538 H544 0.931 . S
N539 Cd536 2.334 1_455 S
N539 C538 1.332 . S
N539 C543 1.328 . S
C540 C541 1.396 . S
C540 C543 1.378 . S
C540 H582 0.931 . S
C541 C540 1.396 . S
C541 C542 1.382 . S
C542 C538 1.381 . S
C542 C541 1.382 . S
C542 H583 0.930 . S
C543 N539 1.328 . S
C543 C540 1.378 . S
C543 H545 0.930 1_455 S
H544 C538 0.931 . S
H545 C543 0.930 1_655 S
C546 O572 1.238 . S
C546 O573 1.253 . S
C547 C548 1.379 . S
C547 N552 1.337 . S
C547 H553 0.929 . S
C548 C547 1.379 . S
C548 C549 1.380 . S
C548 H584 0.929 . S
C549 C548 1.380 . S
C549 C550 1.399 . S
C550 C549 1.399 . S
C550 C551 1.348 1_655 S
C550 H585 0.931 . S
C551 C550 1.348 1_455 S
C551 N552 1.346 1_455 S
C551 H554 0.951 . S
N552 Cd537 2.304 1_655 S
N552 C547 1.337 . S
N552 C551 1.346 1_655 S
H553 C547 0.929 . S
H554 C551 0.951 . S
C555 N556 1.332 . S
C555 C559 1.381 . S
C555 H561 0.931 . S
N556 Cd537 2.334 . S
N556 C555 1.332 . S
N556 C560 1.328 . S
C557 C558 1.396 . S
C557 C560 1.378 . S
C557 H586 0.931 . S
C558 C557 1.396 . S
C558 C559 1.382 . S
C559 C555 1.381 . S
C559 C558 1.382 . S
C559 H587 0.930 . S
C560 N556 1.328 . S
C560 C557 1.378 . S
C560 H562 0.930 . S
H561 C555 0.931 . S
H562 C560 0.930 . S
C563 O574 1.238 . S
C563 O575 1.253 . S
C564 O576 1.239 . S
C564 O577 1.230 . S
N565 Cd536 2.304 . S
N565 C566 1.337 . S
N565 C570 1.338 . S
C566 N565 1.337 . S
C566 C567 1.379 . S
C566 H580 0.929 . S
C567 C566 1.379 . S
C567 C568 1.380 . S
C567 H588 0.929 . S
C568 C567 1.380 . S
C568 C569 1.399 . S
C569 C568 1.399 . S
C569 C570 1.376 . S
C569 H589 0.931 . S
C570 N565 1.338 . S
C570 C569 1.376 . S
C570 H581 0.930 . S
C571 O578 1.239 . S
C571 O579 1.230 . S
O572 Cd536 2.268 . S
O572 C546 1.238 . S
O573 Cd537 2.273 1_655 S
O573 C546 1.253 . S
O574 Cd537 2.268 . S
O574 C563 1.238 . S
O575 Cd536 2.273 1_455 S
O575 C563 1.253 . S
O576 Cd536 2.417 . S
O576 C564 1.239 . S
O577 Cd536 2.330 . S
O577 C564 1.230 . S
O578 Cd537 2.417 . S
O578 C571 1.239 . S
O579 Cd537 2.330 . S
O579 C571 1.230 . S
H580 C566 0.929 . S
H581 C570 0.930 . S
H582 C540 0.931 . S
H583 C542 0.930 . S
H584 C548 0.929 . S
H585 C550 0.931 . S
H586 C557 0.931 . S
H587 C559 0.930 . S
H588 C567 0.929 . S
H589 C569 0.931 . S
Cd590 N593 2.334 1_545 S
Cd590 N619 2.304 . S
Cd590 O626 2.268 1_545 S
Cd590 O629 2.273 . S
Cd590 O630 2.417 1_545 S
Cd590 O631 2.330 . S
Cd591 N606 2.304 . S
Cd591 N610 2.334 . S
Cd591 O627 2.273 . S
Cd591 O628 2.268 . S
Cd591 O632 2.417 . S
Cd591 O633 2.330 . S
C592 N593 1.332 . S
C592 C596 1.381 . S
C592 H598 0.931 1_565 S
N593 Cd590 2.334 1_565 S
N593 C592 1.332 . S
N593 C597 1.328 . S
C594 C595 1.396 . S
C594 C597 1.378 . S
C594 H636 0.931 . S
C595 C594 1.396 . S
C595 C596 1.382 . S
C596 C592 1.381 . S
C596 C595 1.382 . S
C596 H637 0.930 . S
C597 N593 1.328 . S
C597 C594 1.378 . S
C597 H599 0.930 . S
H598 C592 0.931 1_545 S
H599 C597 0.930 . S
C600 O626 1.238 . S
C600 O627 1.253 1_565 S
C601 C602 1.379 . S
C601 N606 1.337 . S
C601 H607 0.929 . S
C602 C601 1.379 . S
C602 C603 1.380 . S
C602 H638 0.929 . S
C603 C602 1.380 . S
C603 C604 1.399 . S
C604 C603 1.399 . S
C604 C605 1.376 . S
C604 H639 0.931 . S
C605 C604 1.376 . S
C605 N606 1.338 . S
C605 H608 0.930 . S
N606 Cd591 2.304 . S
N606 C601 1.337 . S
N606 C605 1.338 . S
H607 C601 0.929 . S
H608 C605 0.930 . S
C609 N610 1.332 1_565 S
C609 C613 1.381 . S
C609 H615 0.931 . S
N610 Cd591 2.334 . S
N610 C609 1.332 1_545 S
N610 C614 1.328 . S
C611 C612 1.396 1_545 S
C611 C614 1.378 . S
C611 H640 0.931 . S
C612 C611 1.396 1_565 S
C612 C613 1.382 . S
C613 C609 1.381 . S
C613 C612 1.382 . S
C613 H641 0.930 . S
C614 N610 1.328 . S
C614 C611 1.378 . S
C614 H616 0.930 . S
H615 C609 0.931 . S
H616 C614 0.930 . S
C617 O628 1.238 . S
C617 O629 1.253 . S
C618 O630 1.239 . S
C618 O631 1.230 1_565 S
N619 Cd590 2.304 . S
N619 C620 1.337 . S
N619 C624 1.338 . S
C620 N619 1.337 . S
C620 C621 1.379 . S
C620 H634 0.929 . S
C621 C620 1.379 . S
C621 C622 1.380 . S
C621 H642 0.929 . S
C622 C621 1.380 . S
C622 C623 1.399 . S
C623 C622 1.399 . S
C623 C624 1.376 . S
C623 H643 0.931 . S
C624 N619 1.338 . S
C624 C623 1.376 . S
C624 H635 0.930 . S
C625 O632 1.239 . S
C625 O633 1.230 . S
O626 Cd590 2.268 1_565 S
O626 C600 1.238 . S
O627 Cd591 2.273 . S
O627 C600 1.253 1_545 S
O628 Cd591 2.268 . S
O628 C617 1.238 . S
O629 Cd590 2.273 . S
O629 C617 1.253 . S
O630 Cd590 2.417 1_565 S
O630 C618 1.239 . S
O631 Cd590 2.330 . S
O631 C618 1.230 1_545 S
O632 Cd591 2.417 . S
O632 C625 1.239 . S
O633 Cd591 2.330 . S
O633 C625 1.230 . S
H634 C620 0.929 . S
H635 C624 0.930 . S
H636 C594 0.931 . S
H637 C596 0.930 . S
H638 C602 0.929 . S
H639 C604 0.931 . S
H640 C611 0.931 . S
H641 C613 0.930 . S
H642 C621 0.929 . S
H643 C623 0.931 . S
H644 C650 0.930 . S
H645 C654 0.930 . S
H646 C659 0.929 . S
H647 C657 0.929 . S
H648 C652 0.929 . S
H649 C658 0.929 . S
C650 H644 0.930 . S
C650 C651 1.367 . S
C650 C658 1.378 . S
C651 C650 1.367 . S
C651 C659 1.433 . S
C652 H648 0.929 . S
C652 C654 1.378 . S
C652 C656 1.350 . S
C653 C656 1.463 . S
C653 C658 1.350 . S
C653 N661 1.427 . S
C654 H645 0.930 . S
C654 C652 1.378 . S
C654 C655 1.367 . S
C655 C654 1.367 . S
C655 C657 1.433 . S
C656 C652 1.350 . S
C656 C653 1.463 . S
C656 N660 1.427 . S
C657 H647 0.929 . S
C657 C655 1.433 . S
C657 N660 1.384 . S
C658 H649 0.929 . S
C658 C650 1.378 . S
C658 C653 1.350 . S
C659 H646 0.929 . S
C659 C651 1.433 . S
C659 N661 1.384 . S
N660 C656 1.427 . S
N660 C657 1.384 . S
N661 C653 1.427 . S
N661 C659 1.384 . S
H662 C668 0.930 . S
H663 C672 0.930 . S
H664 C677 0.929 . S
H665 C675 0.929 . S
H666 C670 0.929 . S
H667 C676 0.929 . S
C668 H662 0.930 . S
C668 C669 1.367 . S
C668 C676 1.378 . S
C669 C668 1.367 . S
C669 C677 1.433 . S
C670 H666 0.929 . S
C670 C672 1.378 . S
C670 C674 1.350 . S
C671 C674 1.463 . S
C671 C676 1.350 . S
C671 N679 1.427 . S
C672 H663 0.930 . S
C672 C670 1.378 . S
C672 C673 1.367 . S
C673 C672 1.367 . S
C673 C675 1.433 . S
C674 C670 1.350 . S
C674 C671 1.463 . S
C674 N678 1.427 . S
C675 H665 0.929 . S
C675 C673 1.433 . S
C675 N678 1.384 . S
C676 H667 0.929 . S
C676 C668 1.378 . S
C676 C671 1.350 . S
C677 H664 0.929 . S
C677 C669 1.433 . S
C677 N679 1.384 . S
N678 C674 1.427 . S
N678 C675 1.384 . S
N679 C671 1.427 . S
N679 C677 1.384 . S
H680 C686 0.930 . S
H681 C690 0.930 . S
H682 C695 0.929 . S
H683 C693 0.929 . S
H684 C688 0.929 . S
H685 C694 0.929 . S
C686 H680 0.930 . S
C686 C687 1.367 . S
C686 C694 1.378 . S
C687 C686 1.367 . S
C687 C695 1.433 . S
C688 H684 0.929 . S
C688 C690 1.378 . S
C688 C692 1.350 . S
C689 C692 1.463 . S
C689 C694 1.350 . S
C689 N697 1.427 . S
C690 H681 0.930 . S
C690 C688 1.378 . S
C690 C691 1.367 . S
C691 C690 1.367 . S
C691 C693 1.433 . S
C692 C688 1.350 . S
C692 C689 1.463 . S
C692 N696 1.427 . S
C693 H683 0.929 . S
C693 C691 1.433 . S
C693 N696 1.384 . S
C694 H685 0.929 . S
C694 C686 1.378 . S
C694 C689 1.350 . S
C695 H682 0.929 . S
C695 C687 1.433 . S
C695 N697 1.384 . S
N696 C692 1.427 . S
N696 C693 1.384 . S
N697 C689 1.427 . S
N697 C695 1.384 . S
H698 C704 0.930 . S
H699 C708 0.930 . S
H700 C713 0.929 . S
H701 C711 0.929 . S
H702 C706 0.929 . S
H703 C712 0.929 . S
C704 H698 0.930 . S
C704 C705 1.367 . S
C704 C712 1.378 . S
C705 C704 1.367 . S
C705 C713 1.433 . S
C706 H702 0.929 . S
C706 C708 1.378 . S
C706 C710 1.350 . S
C707 C710 1.463 . S
C707 C712 1.350 . S
C707 N715 1.427 . S
C708 H699 0.930 . S
C708 C706 1.378 . S
C708 C709 1.367 . S
C709 C708 1.367 . S
C709 C711 1.433 . S
C710 C706 1.350 . S
C710 C707 1.463 . S
C710 N714 1.427 . S
C711 H701 0.929 . S
C711 C709 1.433 . S
C711 N714 1.384 . S
C712 H703 0.929 . S
C712 C704 1.378 . S
C712 C707 1.350 . S
C713 H700 0.929 . S
C713 C705 1.433 . S
C713 N715 1.384 . S
N714 C710 1.427 . S
N714 C711 1.384 . S
N715 C707 1.427 . S
N715 C713 1.384 . S
H716 C722 0.930 . S
H717 C726 0.930 . S
H718 C731 0.929 . S
H719 C729 0.929 . S
H720 C724 0.929 . S
H721 C730 0.929 . S
C722 H716 0.930 . S
C722 C723 1.367 . S
C722 C730 1.378 . S
C723 C722 1.367 . S
C723 C731 1.433 . S
C724 H720 0.929 . S
C724 C726 1.378 . S
C724 C728 1.350 . S
C725 C728 1.463 . S
C725 C730 1.350 . S
C725 N733 1.427 . S
C726 H717 0.930 . S
C726 C724 1.378 . S
C726 C727 1.367 . S
C727 C726 1.367 . S
C727 C729 1.433 . S
C728 C724 1.350 . S
C728 C725 1.463 . S
C728 N732 1.427 . S
C729 H719 0.929 . S
C729 C727 1.433 . S
C729 N732 1.384 . S
C730 H721 0.929 . S
C730 C722 1.378 . S
C730 C725 1.350 . S
C731 H718 0.929 . S
C731 C723 1.433 . S
C731 N733 1.384 . S
N732 C728 1.427 . S
N732 C729 1.384 . S
N733 C725 1.427 . S
N733 C731 1.384 . S
H734 C740 0.930 . S
H735 C744 0.930 . S
H736 C749 0.929 . S
H737 C747 0.929 . S
H738 C742 0.929 . S
H739 C748 0.929 . S
C740 H734 0.930 . S
C740 C741 1.367 . S
C740 C748 1.378 . S
C741 C740 1.367 . S
C741 C749 1.433 . S
C742 H738 0.929 . S
C742 C744 1.378 . S
C742 C746 1.350 . S
C743 C746 1.463 . S
C743 C748 1.350 . S
C743 N751 1.427 . S
C744 H735 0.930 . S
C744 C742 1.378 . S
C744 C745 1.367 . S
C745 C744 1.367 . S
C745 C747 1.433 . S
C746 C742 1.350 . S
C746 C743 1.463 . S
C746 N750 1.427 . S
C747 H737 0.929 . S
C747 C745 1.433 . S
C747 N750 1.384 . S
C748 H739 0.929 . S
C748 C740 1.378 . S
C748 C743 1.350 . S
C749 H736 0.929 . S
C749 C741 1.433 . S
C749 N751 1.384 . S
N750 C746 1.427 . S
N750 C747 1.384 . S
N751 C743 1.427 . S
N751 C749 1.384 . S
H752 C758 0.930 . S
H753 C762 0.930 . S
H754 C767 0.929 . S
H755 C765 0.929 . S
H756 C760 0.929 . S
H757 C766 0.929 . S
C758 H752 0.930 . S
C758 C759 1.367 . S
C758 C766 1.378 . S
C759 C758 1.367 . S
C759 C767 1.433 . S
C760 H756 0.929 . S
C760 C762 1.378 . S
C760 C764 1.350 . S
C761 C764 1.463 . S
C761 C766 1.350 . S
C761 N769 1.427 . S
C762 H753 0.930 . S
C762 C760 1.378 . S
C762 C763 1.367 . S
C763 C762 1.367 . S
C763 C765 1.433 . S
C764 C760 1.350 . S
C764 C761 1.463 . S
C764 N768 1.427 . S
C765 H755 0.929 . S
C765 C763 1.433 . S
C765 N768 1.384 . S
C766 H757 0.929 . S
C766 C758 1.378 . S
C766 C761 1.350 . S
C767 H754 0.929 . S
C767 C759 1.433 . S
C767 N769 1.384 . S
N768 C764 1.427 . S
N768 C765 1.384 . S
N769 C761 1.427 . S
N769 C767 1.384 . S
H770 C776 0.930 . S
H771 C780 0.930 . S
H772 C785 0.929 . S
H773 C783 0.929 . S
H774 C778 0.929 . S
H775 C784 0.929 . S
C776 H770 0.930 . S
C776 C777 1.367 . S
C776 C784 1.378 . S
C777 C776 1.367 . S
C777 C785 1.433 . S
C778 H774 0.929 . S
C778 C780 1.378 . S
C778 C782 1.350 . S
C779 C782 1.463 . S
C779 C784 1.350 . S
C779 N787 1.427 . S
C780 H771 0.930 . S
C780 C778 1.378 . S
C780 C781 1.367 . S
C781 C780 1.367 . S
C781 C783 1.433 . S
C782 C778 1.350 . S
C782 C779 1.463 . S
C782 N786 1.427 . S
C783 H773 0.929 . S
C783 C781 1.433 . S
C783 N786 1.384 . S
C784 H775 0.929 . S
C784 C776 1.378 . S
C784 C779 1.350 . S
C785 H772 0.929 . S
C785 C777 1.433 . S
C785 N787 1.384 . S
N786 C782 1.427 . S
N786 C783 1.384 . S
N787 C779 1.427 . S
N787 C785 1.384 . S
H788 C794 0.930 . S
H789 C798 0.930 . S
H790 C803 0.929 . S
H791 C801 0.929 . S
H792 C796 0.929 . S
H793 C802 0.929 . S
C794 H788 0.930 . S
C794 C795 1.367 . S
C794 C802 1.378 . S
C795 C794 1.367 . S
C795 C803 1.433 . S
C796 H792 0.929 . S
C796 C798 1.378 . S
C796 C800 1.350 . S
C797 C800 1.463 . S
C797 C802 1.350 . S
C797 N805 1.427 . S
C798 H789 0.930 . S
C798 C796 1.378 . S
C798 C799 1.367 . S
C799 C798 1.367 . S
C799 C801 1.433 . S
C800 C796 1.350 . S
C800 C797 1.463 . S
C800 N804 1.427 . S
C801 H791 0.929 . S
C801 C799 1.433 . S
C801 N804 1.384 . S
C802 H793 0.929 . S
C802 C794 1.378 . S
C802 C797 1.350 . S
C803 H790 0.929 . S
C803 C795 1.433 . S
C803 N805 1.384 . S
N804 C800 1.427 . S
N804 C801 1.384 . S
N805 C797 1.427 . S
N805 C803 1.384 . S
H806 C812 0.930 . S
H807 C816 0.930 . S
H808 C821 0.929 . S
H809 C819 0.929 . S
H810 C814 0.929 . S
H811 C820 0.929 . S
C812 H806 0.930 . S
C812 C813 1.367 . S
C812 C820 1.378 . S
C813 C812 1.367 . S
C813 C821 1.433 . S
C814 H810 0.929 . S
C814 C816 1.378 . S
C814 C818 1.350 . S
C815 C818 1.463 . S
C815 C820 1.350 . S
C815 N823 1.427 . S
C816 H807 0.930 . S
C816 C814 1.378 . S
C816 C817 1.367 . S
C817 C816 1.367 . S
C817 C819 1.433 . S
C818 C814 1.350 . S
C818 C815 1.463 . S
C818 N822 1.427 . S
C819 H809 0.929 . S
C819 C817 1.433 . S
C819 N822 1.384 . S
C820 H811 0.929 . S
C820 C812 1.378 . S
C820 C815 1.350 . S
C821 H808 0.929 . S
C821 C813 1.433 . S
C821 N823 1.384 . S
N822 C818 1.427 . S
N822 C819 1.384 . S
N823 C815 1.427 . S
N823 C821 1.384 . S
H824 C830 0.930 . S
H825 C834 0.930 . S
H826 C839 0.929 . S
H827 C837 0.929 . S
H828 C832 0.929 . S
H829 C838 0.929 . S
C830 H824 0.930 . S
C830 C831 1.367 . S
C830 C838 1.378 . S
C831 C830 1.367 . S
C831 C839 1.433 . S
C832 H828 0.929 . S
C832 C834 1.378 . S
C832 C836 1.350 . S
C833 C836 1.463 . S
C833 C838 1.350 . S
C833 N841 1.427 . S
C834 H825 0.930 . S
C834 C832 1.378 . S
C834 C835 1.367 . S
C835 C834 1.367 . S
C835 C837 1.433 . S
C836 C832 1.350 . S
C836 C833 1.463 . S
C836 N840 1.427 . S
C837 H827 0.929 . S
C837 C835 1.433 . S
C837 N840 1.384 . S
C838 H829 0.929 . S
C838 C830 1.378 . S
C838 C833 1.350 . S
C839 H826 0.929 . S
C839 C831 1.433 . S
C839 N841 1.384 . S
N840 C836 1.427 . S
N840 C837 1.384 . S
N841 C833 1.427 . S
N841 C839 1.384 . S
H842 C848 0.930 . S
H843 C852 0.930 . S
H844 C857 0.929 . S
H845 C855 0.929 . S
H846 C850 0.929 . S
H847 C856 0.929 . S
C848 H842 0.930 . S
C848 C849 1.367 . S
C848 C856 1.378 . S
C849 C848 1.367 . S
C849 C857 1.433 . S
C850 H846 0.929 . S
C850 C852 1.378 . S
C850 C854 1.350 . S
C851 C854 1.463 . S
C851 C856 1.350 . S
C851 N859 1.427 . S
C852 H843 0.930 . S
C852 C850 1.378 . S
C852 C853 1.367 . S
C853 C852 1.367 . S
C853 C855 1.433 . S
C854 C850 1.350 . S
C854 C851 1.463 . S
C854 N858 1.427 . S
C855 H845 0.929 . S
C855 C853 1.433 . S
C855 N858 1.384 . S
C856 H847 0.929 . S
C856 C848 1.378 . S
C856 C851 1.350 . S
C857 H844 0.929 . S
C857 C849 1.433 . S
C857 N859 1.384 . S
N858 C854 1.427 . S
N858 C855 1.384 . S
N859 C851 1.427 . S
N859 C857 1.384 . S
H860 C866 0.930 . S
H861 C870 0.930 . S
H862 C875 0.929 . S
H863 C873 0.929 . S
H864 C868 0.929 . S
H865 C874 0.929 . S
C866 H860 0.930 . S
C866 C867 1.367 . S
C866 C874 1.378 . S
C867 C866 1.367 . S
C867 C875 1.433 . S
C868 H864 0.929 . S
C868 C870 1.378 . S
C868 C872 1.350 . S
C869 C872 1.463 . S
C869 C874 1.350 . S
C869 N877 1.427 . S
C870 H861 0.930 . S
C870 C868 1.378 . S
C870 C871 1.367 . S
C871 C870 1.367 . S
C871 C873 1.433 . S
C872 C868 1.350 . S
C872 C869 1.463 . S
C872 N876 1.427 . S
C873 H863 0.929 . S
C873 C871 1.433 . S
C873 N876 1.384 . S
C874 H865 0.929 . S
C874 C866 1.378 . S
C874 C869 1.350 . S
C875 H862 0.929 . S
C875 C867 1.433 . S
C875 N877 1.384 . S
N876 C872 1.427 . S
N876 C873 1.384 . S
N877 C869 1.427 . S
N877 C875 1.384 . S
H878 C884 0.930 . S
H879 C888 0.930 . S
H880 C893 0.929 . S
H881 C891 0.929 . S
H882 C886 0.929 . S
H883 C892 0.929 . S
C884 H878 0.930 . S
C884 C885 1.367 . S
C884 C892 1.378 . S
C885 C884 1.367 . S
C885 C893 1.433 . S
C886 H882 0.929 . S
C886 C888 1.378 . S
C886 C890 1.350 . S
C887 C890 1.463 . S
C887 C892 1.350 . S
C887 N895 1.427 . S
C888 H879 0.930 . S
C888 C886 1.378 . S
C888 C889 1.367 . S
C889 C888 1.367 . S
C889 C891 1.433 . S
C890 C886 1.350 . S
C890 C887 1.463 . S
C890 N894 1.427 . S
C891 H881 0.929 . S
C891 C889 1.433 . S
C891 N894 1.384 . S
C892 H883 0.929 . S
C892 C884 1.378 . S
C892 C887 1.350 . S
C893 H880 0.929 . S
C893 C885 1.433 . S
C893 N895 1.384 . S
N894 C890 1.427 . S
N894 C891 1.384 . S
N895 C887 1.427 . S
N895 C893 1.384 . S
H896 C902 0.930 . S
H897 C906 0.930 . S
H898 C911 0.929 . S
H899 C909 0.929 . S
H900 C904 0.929 . S
H901 C910 0.929 . S
C902 H896 0.930 . S
C902 C903 1.367 . S
C902 C910 1.378 . S
C903 C902 1.367 . S
C903 C911 1.433 . S
C904 H900 0.929 . S
C904 C906 1.378 . S
C904 C908 1.350 . S
C905 C908 1.463 . S
C905 C910 1.350 . S
C905 N913 1.427 . S
C906 H897 0.930 . S
C906 C904 1.378 . S
C906 C907 1.367 . S
C907 C906 1.367 . S
C907 C909 1.433 . S
C908 C904 1.350 . S
C908 C905 1.463 . S
C908 N912 1.427 . S
C909 H899 0.929 . S
C909 C907 1.433 . S
C909 N912 1.384 . S
C910 H901 0.929 . S
C910 C902 1.378 . S
C910 C905 1.350 . S
C911 H898 0.929 . S
C911 C903 1.433 . S
C911 N913 1.384 . S
N912 C908 1.427 . S
N912 C909 1.384 . S
N913 C905 1.427 . S
N913 C911 1.384 . S
H914 C920 0.930 . S
H915 C924 0.930 . S
H916 C929 0.929 . S
H917 C927 0.929 1_554 S
H918 C922 0.929 . S
H919 C928 0.929 1_554 S
C920 H914 0.930 . S
C920 C921 1.367 . S
C920 C928 1.378 . S
C921 C920 1.367 . S
C921 C929 1.433 . S
C922 H918 0.929 . S
C922 C924 1.378 . S
C922 C926 1.350 . S
C923 C926 1.463 . S
C923 C928 1.350 . S
C923 N931 1.427 . S
C924 H915 0.930 . S
C924 C922 1.378 . S
C924 C925 1.367 . S
C925 C924 1.367 . S
C925 C927 1.433 . S
C926 C922 1.350 . S
C926 C923 1.463 . S
C926 N930 1.427 . S
C927 H917 0.929 1_556 S
C927 C925 1.433 . S
C927 N930 1.384 . S
C928 H919 0.929 1_556 S
C928 C920 1.378 . S
C928 C923 1.350 . S
C929 H916 0.929 . S
C929 C921 1.433 . S
C929 N931 1.384 . S
N930 C926 1.427 . S
N930 C927 1.384 . S
N931 C923 1.427 . S
N931 C929 1.384 . S
H932 C938 0.930 . S
H933 C942 0.930 . S
H934 C947 0.929 . S
H935 C945 0.929 . S
H936 C940 0.929 . S
H937 C946 0.929 . S
C938 H932 0.930 . S
C938 C939 1.367 . S
C938 C946 1.378 . S
C939 C938 1.367 . S
C939 C947 1.433 . S
C940 H936 0.929 . S
C940 C942 1.378 . S
C940 C944 1.350 . S
C941 C944 1.463 . S
C941 C946 1.350 . S
C941 N949 1.427 . S
C942 H933 0.930 . S
C942 C940 1.378 . S
C942 C943 1.367 . S
C943 C942 1.367 . S
C943 C945 1.433 . S
C944 C940 1.350 . S
C944 C941 1.463 . S
C944 N948 1.427 . S
C945 H935 0.929 . S
C945 C943 1.433 . S
C945 N948 1.384 . S
C946 H937 0.929 . S
C946 C938 1.378 . S
C946 C941 1.350 . S
C947 H934 0.929 . S
C947 C939 1.433 . S
C947 N949 1.384 . S
N948 C944 1.427 . S
N948 C945 1.384 . S
N949 C941 1.427 . S
N949 C947 1.384 . S
H950 C956 0.930 . S
H951 C960 0.930 . S
H952 C965 0.929 . S
H953 C963 0.929 . S
H954 C958 0.929 . S
H955 C964 0.929 . S
C956 H950 0.930 . S
C956 C957 1.367 . S
C956 C964 1.378 . S
C957 C956 1.367 . S
C957 C965 1.433 . S
C958 H954 0.929 . S
C958 C960 1.378 . S
C958 C962 1.350 . S
C959 C962 1.463 . S
C959 C964 1.350 . S
C959 N967 1.427 . S
C960 H951 0.930 . S
C960 C958 1.378 . S
C960 C961 1.367 . S
C961 C960 1.367 . S
C961 C963 1.433 . S
C962 C958 1.350 . S
C962 C959 1.463 . S
C962 N966 1.427 . S
C963 H953 0.929 . S
C963 C961 1.433 . S
C963 N966 1.384 . S
C964 H955 0.929 . S
C964 C956 1.378 . S
C964 C959 1.350 . S
C965 H952 0.929 . S
C965 C957 1.433 . S
C965 N967 1.384 . S
N966 C962 1.427 . S
N966 C963 1.384 . S
N967 C959 1.427 . S
N967 C965 1.384 . S
H968 C974 0.930 . S
H969 C978 0.930 . S
H970 C983 0.929 . S
H971 C981 0.929 . S
H972 C976 0.925 1_554 S
H973 C982 0.929 . S
C974 H968 0.930 . S
C974 C975 1.367 . S
C974 C982 1.378 . S
C975 C974 1.367 . S
C975 C983 1.433 . S
C976 H972 0.925 1_556 S
C976 C978 1.378 1_556 S
C976 C980 1.350 . S
C977 C980 1.463 . S
C977 C982 1.350 . S
C977 N985 1.427 . S
C978 H969 0.930 . S
C978 C976 1.378 1_554 S
C978 C979 1.367 1_554 S
C979 C978 1.367 1_556 S
C979 C981 1.433 . S
C980 C976 1.350 . S
C980 C977 1.463 . S
C980 N984 1.427 . S
C981 H971 0.929 . S
C981 C979 1.433 . S
C981 N984 1.384 . S
C982 H973 0.929 . S
C982 C974 1.378 . S
C982 C977 1.350 . S
C983 H970 0.929 . S
C983 C975 1.433 . S
C983 N985 1.384 . S
N984 C980 1.427 . S
N984 C981 1.384 . S
N985 C977 1.427 . S
N985 C983 1.384 . S
H986 C992 0.930 . S
H987 C996 0.930 . S
H988 C1001 0.929 . S
H989 C999 0.929 . S
H990 C994 0.929 . S
H991 C1000 0.929 . S
C992 H986 0.930 . S
C992 C993 1.367 . S
C992 C1000 1.378 . S
C993 C992 1.367 . S
C993 C1001 1.433 . S
C994 H990 0.929 . S
C994 C996 1.378 . S
C994 C998 1.350 . S
C995 C998 1.463 . S
C995 C1000 1.350 . S
C995 N1003 1.427 . S
C996 H987 0.930 . S
C996 C994 1.378 . S
C996 C997 1.367 . S
C997 C996 1.367 . S
C997 C999 1.433 . S
C998 C994 1.350 . S
C998 C995 1.463 . S
C998 N1002 1.427 . S
C999 H989 0.929 . S
C999 C997 1.433 . S
C999 N1002 1.384 . S
C1000 H991 0.929 . S
C1000 C992 1.378 . S
C1000 C995 1.350 . S
C1001 H988 0.929 . S
C1001 C993 1.433 . S
C1001 N1003 1.384 . S
N1002 C998 1.427 . S
N1002 C999 1.384 . S
N1003 C995 1.427 . S
N1003 C1001 1.384 . S
H1004 C1010 0.930 . S
H1005 C1014 0.930 . S
H1006 C1019 0.929 . S
H1007 C1017 0.929 . S
H1008 C1012 0.929 . S
H1009 C1018 0.929 . S
C1010 H1004 0.930 . S
C1010 C1011 1.367 . S
C1010 C1018 1.378 . S
C1011 C1010 1.367 . S
C1011 C1019 1.433 . S
C1012 H1008 0.929 . S
C1012 C1014 1.378 . S
C1012 C1016 1.350 . S
C1013 C1016 1.463 . S
C1013 C1018 1.350 . S
C1013 N1021 1.427 . S
C1014 H1005 0.930 . S
C1014 C1012 1.378 . S
C1014 C1015 1.367 . S
C1015 C1014 1.367 . S
C1015 C1017 1.433 . S
C1016 C1012 1.350 . S
C1016 C1013 1.463 . S
C1016 N1020 1.427 . S
C1017 H1007 0.929 . S
C1017 C1015 1.433 . S
C1017 N1020 1.384 . S
C1018 H1009 0.929 . S
C1018 C1010 1.378 . S
C1018 C1013 1.350 . S
C1019 H1006 0.929 . S
C1019 C1011 1.433 . S
C1019 N1021 1.384 . S
N1020 C1016 1.427 . S
N1020 C1017 1.384 . S
N1021 C1013 1.427 . S
N1021 C1019 1.384 . S
H1022 C1028 0.930 . S
H1023 C1032 0.930 . S
H1024 C1037 0.929 . S
H1025 C1035 0.929 . S
H1026 C1030 0.929 . S
H1027 C1036 0.929 . S
C1028 H1022 0.930 . S
C1028 C1029 1.367 . S
C1028 C1036 1.378 . S
C1029 C1028 1.367 . S
C1029 C1037 1.433 . S
C1030 H1026 0.929 . S
C1030 C1032 1.378 . S
C1030 C1034 1.350 . S
C1031 C1034 1.463 . S
C1031 C1036 1.350 . S
C1031 N1039 1.427 . S
C1032 H1023 0.930 . S
C1032 C1030 1.378 . S
C1032 C1033 1.367 . S
C1033 C1032 1.367 . S
C1033 C1035 1.433 . S
C1034 C1030 1.350 . S
C1034 C1031 1.463 . S
C1034 N1038 1.427 . S
C1035 H1025 0.929 . S
C1035 C1033 1.433 . S
C1035 N1038 1.384 . S
C1036 H1027 0.929 . S
C1036 C1028 1.378 . S
C1036 C1031 1.350 . S
C1037 H1024 0.929 . S
C1037 C1029 1.433 . S
C1037 N1039 1.384 . S
N1038 C1034 1.427 . S
N1038 C1035 1.384 . S
N1039 C1031 1.427 . S
N1039 C1037 1.384 . S
H1040 C1046 0.930 . S
H1041 C1050 0.930 . S
H1042 C1055 0.929 . S
H1043 C1053 0.929 . S
H1044 C1048 0.929 . S
H1045 C1054 0.929 . S
C1046 H1040 0.930 . S
C1046 C1047 1.367 . S
C1046 C1054 1.378 . S
C1047 C1046 1.367 . S
C1047 C1055 1.433 . S
C1048 H1044 0.929 . S
C1048 C1050 1.378 . S
C1048 C1052 1.350 . S
C1049 C1052 1.463 . S
C1049 C1054 1.350 . S
C1049 N1057 1.427 . S
C1050 H1041 0.930 . S
C1050 C1048 1.378 . S
C1050 C1051 1.367 . S
C1051 C1050 1.367 . S
C1051 C1053 1.433 . S
C1052 C1048 1.350 . S
C1052 C1049 1.463 . S
C1052 N1056 1.427 . S
C1053 H1043 0.929 . S
C1053 C1051 1.433 . S
C1053 N1056 1.384 . S
C1054 H1045 0.929 . S
C1054 C1046 1.378 . S
C1054 C1049 1.350 . S
C1055 H1042 0.929 . S
C1055 C1047 1.433 . S
C1055 N1057 1.384 . S
N1056 C1052 1.427 . S
N1056 C1053 1.384 . S
N1057 C1049 1.427 . S
N1057 C1055 1.384 . S
H1058 C1064 0.930 . S
H1059 C1068 0.930 . S
H1060 C1073 0.929 . S
H1061 C1071 0.929 . S
H1062 C1066 0.929 . S
H1063 C1072 0.929 . S
C1064 H1058 0.930 . S
C1064 C1065 1.367 . S
C1064 C1072 1.378 . S
C1065 C1064 1.367 . S
C1065 C1073 1.433 . S
C1066 H1062 0.929 . S
C1066 C1068 1.378 . S
C1066 C1070 1.350 . S
C1067 C1070 1.463 . S
C1067 C1072 1.350 . S
C1067 N1075 1.427 . S
C1068 H1059 0.930 . S
C1068 C1066 1.378 . S
C1068 C1069 1.367 . S
C1069 C1068 1.367 . S
C1069 C1071 1.433 . S
C1070 C1066 1.350 . S
C1070 C1067 1.463 . S
C1070 N1074 1.427 . S
C1071 H1061 0.929 . S
C1071 C1069 1.433 . S
C1071 N1074 1.384 . S
C1072 H1063 0.929 . S
C1072 C1064 1.378 . S
C1072 C1067 1.350 . S
C1073 H1060 0.929 . S
C1073 C1065 1.433 . S
C1073 N1075 1.384 . S
N1074 C1070 1.427 . S
N1074 C1071 1.384 . S
N1075 C1067 1.427 . S
N1075 C1073 1.384 . S
H1076 C1082 0.930 . S
H1077 C1086 0.930 . S
H1078 C1091 0.929 . S
H1079 C1089 0.929 . S
H1080 C1084 0.929 . S
H1081 C1090 0.929 . S
C1082 H1076 0.930 . S
C1082 C1083 1.367 . S
C1082 C1090 1.378 . S
C1083 C1082 1.367 . S
C1083 C1091 1.433 . S
C1084 H1080 0.929 . S
C1084 C1086 1.378 . S
C1084 C1088 1.350 . S
C1085 C1088 1.463 . S
C1085 C1090 1.350 . S
C1085 N1093 1.427 . S
C1086 H1077 0.930 . S
C1086 C1084 1.378 . S
C1086 C1087 1.367 . S
C1087 C1086 1.367 . S
C1087 C1089 1.433 . S
C1088 C1084 1.350 . S
C1088 C1085 1.463 . S
C1088 N1092 1.427 . S
C1089 H1079 0.929 . S
C1089 C1087 1.433 . S
C1089 N1092 1.384 . S
C1090 H1081 0.929 . S
C1090 C1082 1.378 . S
C1090 C1085 1.350 . S
C1091 H1078 0.929 . S
C1091 C1083 1.433 . S
C1091 N1093 1.384 . S
N1092 C1088 1.427 . S
N1092 C1089 1.384 . S
N1093 C1085 1.427 . S
N1093 C1091 1.384 . S
H1094 C1100 0.930 . S
H1095 C1104 0.930 1_554 S
H1096 C1109 0.929 . S
H1097 C1107 0.929 . S
H1098 C1102 0.929 . S
H1099 C1108 0.929 . S
C1100 H1094 0.930 . S
C1100 C1101 1.367 . S
C1100 C1108 1.378 . S
C1101 C1100 1.367 . S
C1101 C1109 1.433 . S
C1102 H1098 0.929 . S
C1102 C1104 1.378 . S
C1102 C1106 1.350 . S
C1103 C1106 1.463 . S
C1103 C1108 1.350 . S
C1103 N1111 1.427 . S
C1104 H1095 0.930 1_556 S
C1104 C1102 1.378 . S
C1104 C1105 1.367 . S
C1105 C1104 1.367 . S
C1105 C1107 1.433 . S
C1106 C1102 1.350 . S
C1106 C1103 1.463 . S
C1106 N1110 1.427 . S
C1107 H1097 0.929 . S
C1107 C1105 1.433 . S
C1107 N1110 1.384 . S
C1108 H1099 0.929 . S
C1108 C1100 1.378 . S
C1108 C1103 1.350 . S
C1109 H1096 0.929 . S
C1109 C1101 1.433 . S
C1109 N1111 1.384 . S
N1110 C1106 1.427 . S
N1110 C1107 1.384 . S
N1111 C1103 1.427 . S
N1111 C1109 1.384 . S
H1112 C1118 0.930 . S
H1113 C1122 0.930 . S
H1114 C1127 0.929 . S
H1115 C1125 0.929 . S
H1116 C1120 0.929 . S
H1117 C1126 0.929 . S
C1118 H1112 0.930 . S
C1118 C1119 1.367 . S
C1118 C1126 1.378 . S
C1119 C1118 1.367 . S
C1119 C1127 1.433 . S
C1120 H1116 0.929 . S
C1120 C1122 1.378 . S
C1120 C1124 1.350 . S
C1121 C1124 1.463 . S
C1121 C1126 1.350 . S
C1121 N1129 1.427 . S
C1122 H1113 0.930 . S
C1122 C1120 1.378 . S
C1122 C1123 1.367 . S
C1123 C1122 1.367 . S
C1123 C1125 1.433 . S
C1124 C1120 1.350 . S
C1124 C1121 1.463 . S
C1124 N1128 1.427 . S
C1125 H1115 0.929 . S
C1125 C1123 1.433 . S
C1125 N1128 1.384 . S
C1126 H1117 0.929 . S
C1126 C1118 1.378 . S
C1126 C1121 1.350 . S
C1127 H1114 0.929 . S
C1127 C1119 1.433 . S
C1127 N1129 1.384 . S
N1128 C1124 1.427 . S
N1128 C1125 1.384 . S
N1129 C1121 1.427 . S
N1129 C1127 1.384 . S
H1130 C1136 0.930 . S
H1131 C1140 0.930 . S
H1132 C1145 0.929 . S
H1133 C1143 0.929 . S
H1134 C1138 0.929 . S
H1135 C1144 0.929 . S
C1136 H1130 0.930 . S
C1136 C1137 1.367 . S
C1136 C1144 1.378 . S
C1137 C1136 1.367 . S
C1137 C1145 1.433 . S
C1138 H1134 0.929 . S
C1138 C1140 1.378 . S
C1138 C1142 1.350 . S
C1139 C1142 1.463 . S
C1139 C1144 1.350 . S
C1139 N1147 1.427 . S
C1140 H1131 0.930 . S
C1140 C1138 1.378 . S
C1140 C1141 1.367 . S
C1141 C1140 1.367 . S
C1141 C1143 1.433 . S
C1142 C1138 1.350 . S
C1142 C1139 1.463 . S
C1142 N1146 1.427 . S
C1143 H1133 0.929 . S
C1143 C1141 1.433 . S
C1143 N1146 1.384 . S
C1144 H1135 0.929 . S
C1144 C1136 1.378 . S
C1144 C1139 1.350 . S
C1145 H1132 0.929 . S
C1145 C1137 1.433 . S
C1145 N1147 1.384 . S
N1146 C1142 1.427 . S
N1146 C1143 1.384 . S
N1147 C1139 1.427 . S
N1147 C1145 1.384 . S
H1148 C1154 0.930 . S
H1149 C1158 0.930 . S
H1150 C1163 0.929 . S
H1151 C1161 0.929 . S
H1152 C1156 0.929 . S
H1153 C1162 0.929 . S
C1154 H1148 0.930 . S
C1154 C1155 1.367 . S
C1154 C1162 1.378 . S
C1155 C1154 1.367 . S
C1155 C1163 1.433 . S
C1156 H1152 0.929 . S
C1156 C1158 1.378 . S
C1156 C1160 1.350 . S
C1157 C1160 1.463 . S
C1157 C1162 1.350 . S
C1157 N1165 1.427 . S
C1158 H1149 0.930 . S
C1158 C1156 1.378 . S
C1158 C1159 1.367 . S
C1159 C1158 1.367 . S
C1159 C1161 1.433 . S
C1160 C1156 1.350 . S
C1160 C1157 1.463 . S
C1160 N1164 1.427 . S
C1161 H1151 0.929 . S
C1161 C1159 1.433 . S
C1161 N1164 1.384 . S
C1162 H1153 0.929 . S
C1162 C1154 1.378 . S
C1162 C1157 1.350 . S
C1163 H1150 0.929 . S
C1163 C1155 1.433 . S
C1163 N1165 1.384 . S
N1164 C1160 1.427 . S
N1164 C1161 1.384 . S
N1165 C1157 1.427 . S
N1165 C1163 1.384 . S
H1166 C1172 0.930 . S
H1167 C1176 0.930 . S
H1168 C1181 0.929 . S
H1169 C1179 0.929 . S
H1170 C1174 0.929 . S
H1171 C1180 0.929 . S
C1172 H1166 0.930 . S
C1172 C1173 1.367 . S
C1172 C1180 1.378 . S
C1173 C1172 1.367 . S
C1173 C1181 1.433 . S
C1174 H1170 0.929 . S
C1174 C1176 1.378 . S
C1174 C1178 1.350 . S
C1175 C1178 1.463 . S
C1175 C1180 1.350 . S
C1175 N1183 1.427 . S
C1176 H1167 0.930 . S
C1176 C1174 1.378 . S
C1176 C1177 1.367 . S
C1177 C1176 1.367 . S
C1177 C1179 1.433 . S
C1178 C1174 1.350 . S
C1178 C1175 1.463 . S
C1178 N1182 1.427 . S
C1179 H1169 0.929 . S
C1179 C1177 1.433 . S
C1179 N1182 1.384 . S
C1180 H1171 0.929 . S
C1180 C1172 1.378 . S
C1180 C1175 1.350 . S
C1181 H1168 0.929 . S
C1181 C1173 1.433 . S
C1181 N1183 1.384 . S
N1182 C1178 1.427 . S
N1182 C1179 1.384 . S
N1183 C1175 1.427 . S
N1183 C1181 1.384 . S
H1184 C1190 0.930 . S
H1185 C1194 0.930 . S
H1186 C1199 0.929 . S
H1187 C1197 0.929 . S
H1188 C1192 0.929 . S
H1189 C1198 0.929 . S
C1190 H1184 0.930 . S
C1190 C1191 1.367 . S
C1190 C1198 1.378 . S
C1191 C1190 1.367 . S
C1191 C1199 1.433 . S
C1192 H1188 0.929 . S
C1192 C1194 1.378 . S
C1192 C1196 1.350 . S
C1193 C1196 1.463 . S
C1193 C1198 1.350 . S
C1193 N1201 1.427 . S
C1194 H1185 0.930 . S
C1194 C1192 1.378 . S
C1194 C1195 1.367 . S
C1195 C1194 1.367 . S
C1195 C1197 1.433 . S
C1196 C1192 1.350 . S
C1196 C1193 1.463 . S
C1196 N1200 1.427 . S
C1197 H1187 0.929 . S
C1197 C1195 1.433 . S
C1197 N1200 1.384 . S
C1198 H1189 0.929 . S
C1198 C1190 1.378 . S
C1198 C1193 1.350 . S
C1199 H1186 0.929 . S
C1199 C1191 1.433 . S
C1199 N1201 1.384 . S
N1200 C1196 1.427 . S
N1200 C1197 1.384 . S
N1201 C1193 1.427 . S
N1201 C1199 1.384 . S
H1202 C1208 0.930 . S
H1203 C1212 0.930 . S
H1204 C1217 0.929 . S
H1205 C1215 0.929 . S
H1206 C1210 0.929 . S
H1207 C1216 0.929 . S
C1208 H1202 0.930 . S
C1208 C1209 1.367 . S
C1208 C1216 1.378 . S
C1209 C1208 1.367 . S
C1209 C1217 1.433 . S
C1210 H1206 0.929 . S
C1210 C1212 1.378 . S
C1210 C1214 1.350 . S
C1211 C1214 1.463 . S
C1211 C1216 1.350 . S
C1211 N1219 1.427 . S
C1212 H1203 0.930 . S
C1212 C1210 1.378 . S
C1212 C1213 1.367 . S
C1213 C1212 1.367 . S
C1213 C1215 1.433 . S
C1214 C1210 1.350 . S
C1214 C1211 1.463 . S
C1214 N1218 1.427 . S
C1215 H1205 0.929 . S
C1215 C1213 1.433 . S
C1215 N1218 1.384 . S
C1216 H1207 0.929 . S
C1216 C1208 1.378 . S
C1216 C1211 1.350 . S
C1217 H1204 0.929 . S
C1217 C1209 1.433 . S
C1217 N1219 1.384 . S
N1218 C1214 1.427 . S
N1218 C1215 1.384 . S
N1219 C1211 1.427 . S
N1219 C1217 1.384 . S
H1220 C1226 0.930 . S
H1221 C1230 0.930 . S
H1222 C1235 0.929 . S
H1223 C1233 0.929 . S
H1224 C1228 0.929 . S
H1225 C1234 0.929 . S
C1226 H1220 0.930 . S
C1226 C1227 1.367 . S
C1226 C1234 1.378 . S
C1227 C1226 1.367 . S
C1227 C1235 1.433 . S
C1228 H1224 0.929 . S
C1228 C1230 1.378 . S
C1228 C1232 1.350 . S
C1229 C1232 1.463 . S
C1229 C1234 1.350 . S
C1229 N1237 1.427 . S
C1230 H1221 0.930 . S
C1230 C1228 1.378 . S
C1230 C1231 1.367 . S
C1231 C1230 1.367 . S
C1231 C1233 1.433 . S
C1232 C1228 1.350 . S
C1232 C1229 1.463 . S
C1232 N1236 1.427 . S
C1233 H1223 0.929 . S
C1233 C1231 1.433 . S
C1233 N1236 1.384 . S
C1234 H1225 0.929 . S
C1234 C1226 1.378 . S
C1234 C1229 1.350 . S
C1235 H1222 0.929 . S
C1235 C1227 1.433 . S
C1235 N1237 1.384 . S
N1236 C1232 1.427 . S
N1236 C1233 1.384 . S
N1237 C1229 1.427 . S
N1237 C1235 1.384 . S
H1238 C1244 0.930 . S
H1239 C1248 0.930 . S
H1240 C1253 0.929 . S
H1241 C1251 0.929 . S
H1242 C1246 0.929 . S
H1243 C1252 0.929 . S
C1244 H1238 0.930 . S
C1244 C1245 1.367 . S
C1244 C1252 1.378 . S
C1245 C1244 1.367 . S
C1245 C1253 1.433 . S
C1246 H1242 0.929 . S
C1246 C1248 1.378 . S
C1246 C1250 1.350 . S
C1247 C1250 1.463 . S
C1247 C1252 1.350 . S
C1247 N1255 1.427 . S
C1248 H1239 0.930 . S
C1248 C1246 1.378 . S
C1248 C1249 1.367 . S
C1249 C1248 1.367 . S
C1249 C1251 1.433 . S
C1250 C1246 1.350 . S
C1250 C1247 1.463 . S
C1250 N1254 1.427 . S
C1251 H1241 0.929 . S
C1251 C1249 1.433 . S
C1251 N1254 1.384 . S
C1252 H1243 0.929 . S
C1252 C1244 1.378 . S
C1252 C1247 1.350 . S
C1253 H1240 0.929 . S
C1253 C1245 1.433 . S
C1253 N1255 1.384 . S
N1254 C1250 1.427 . S
N1254 C1251 1.384 . S
N1255 C1247 1.427 . S
N1255 C1253 1.384 . S
H1256 C1262 0.930 . S
H1257 C1266 0.930 . S
H1258 C1271 0.929 . S
H1259 C1269 0.929 . S
H1260 C1264 0.929 . S
H1261 C1270 0.929 . S
C1262 H1256 0.930 . S
C1262 C1263 1.367 . S
C1262 C1270 1.378 . S
C1263 C1262 1.367 . S
C1263 C1271 1.433 . S
C1264 H1260 0.929 . S
C1264 C1266 1.378 . S
C1264 C1268 1.350 . S
C1265 C1268 1.463 . S
C1265 C1270 1.350 . S
C1265 N1273 1.427 . S
C1266 H1257 0.930 . S
C1266 C1264 1.378 . S
C1266 C1267 1.367 . S
C1267 C1266 1.367 . S
C1267 C1269 1.433 . S
C1268 C1264 1.350 . S
C1268 C1265 1.463 . S
C1268 N1272 1.427 . S
C1269 H1259 0.929 . S
C1269 C1267 1.433 . S
C1269 N1272 1.384 . S
C1270 H1261 0.929 . S
C1270 C1262 1.378 . S
C1270 C1265 1.350 . S
C1271 H1258 0.929 . S
C1271 C1263 1.433 . S
C1271 N1273 1.384 . S
N1272 C1268 1.427 . S
N1272 C1269 1.384 . S
N1273 C1265 1.427 . S
N1273 C1271 1.384 . S
H1274 C1280 0.930 . S
H1275 C1284 0.930 . S
H1276 C1289 0.929 . S
H1277 C1287 0.929 . S
H1278 C1282 0.929 . S
H1279 C1288 0.929 . S
C1280 H1274 0.930 . S
C1280 C1281 1.367 . S
C1280 C1288 1.378 . S
C1281 C1280 1.367 . S
C1281 C1289 1.433 . S
C1282 H1278 0.929 . S
C1282 C1284 1.378 . S
C1282 C1286 1.350 . S
C1283 C1286 1.463 . S
C1283 C1288 1.350 . S
C1283 N1291 1.427 . S
C1284 H1275 0.930 . S
C1284 C1282 1.378 . S
C1284 C1285 1.367 . S
C1285 C1284 1.367 . S
C1285 C1287 1.433 . S
C1286 C1282 1.350 . S
C1286 C1283 1.463 . S
C1286 N1290 1.427 . S
C1287 H1277 0.929 . S
C1287 C1285 1.433 . S
C1287 N1290 1.384 . S
C1288 H1279 0.929 . S
C1288 C1280 1.378 . S
C1288 C1283 1.350 . S
C1289 H1276 0.929 . S
C1289 C1281 1.433 . S
C1289 N1291 1.384 . S
N1290 C1286 1.427 . S
N1290 C1287 1.384 . S
N1291 C1283 1.427 . S
N1291 C1289 1.384 . S
H1292 C1298 0.930 . S
H1293 C1302 0.930 . S
H1294 C1307 0.929 . S
H1295 C1305 0.929 . S
H1296 C1300 0.929 . S
H1297 C1306 0.929 . S
C1298 H1292 0.930 . S
C1298 C1299 1.367 . S
C1298 C1306 1.378 . S
C1299 C1298 1.367 . S
C1299 C1307 1.433 . S
C1300 H1296 0.929 . S
C1300 C1302 1.378 . S
C1300 C1304 1.350 . S
C1301 C1304 1.463 . S
C1301 C1306 1.350 . S
C1301 N1309 1.427 . S
C1302 H1293 0.930 . S
C1302 C1300 1.378 . S
C1302 C1303 1.367 . S
C1303 C1302 1.367 . S
C1303 C1305 1.433 . S
C1304 C1300 1.350 . S
C1304 C1301 1.463 . S
C1304 N1308 1.427 . S
C1305 H1295 0.929 . S
C1305 C1303 1.433 . S
C1305 N1308 1.384 . S
C1306 H1297 0.929 . S
C1306 C1298 1.378 . S
C1306 C1301 1.350 . S
C1307 H1294 0.929 . S
C1307 C1299 1.433 . S
C1307 N1309 1.384 . S
N1308 C1304 1.427 . S
N1308 C1305 1.384 . S
N1309 C1301 1.427 . S
N1309 C1307 1.384 . S
H1310 C1316 0.930 . S
H1311 C1320 0.930 . S
H1312 C1325 0.929 . S
H1313 C1323 0.929 . S
H1314 C1318 0.929 . S
H1315 C1324 0.929 . S
C1316 H1310 0.930 . S
C1316 C1317 1.367 . S
C1316 C1324 1.378 . S
C1317 C1316 1.367 . S
C1317 C1325 1.433 . S
C1318 H1314 0.929 . S
C1318 C1320 1.378 . S
C1318 C1322 1.350 . S
C1319 C1322 1.463 . S
C1319 C1324 1.350 . S
C1319 N1327 1.427 . S
C1320 H1311 0.930 . S
C1320 C1318 1.378 . S
C1320 C1321 1.367 . S
C1321 C1320 1.367 . S
C1321 C1323 1.433 . S
C1322 C1318 1.350 . S
C1322 C1319 1.463 . S
C1322 N1326 1.427 . S
C1323 H1313 0.929 . S
C1323 C1321 1.433 . S
C1323 N1326 1.384 . S
C1324 H1315 0.929 . S
C1324 C1316 1.378 . S
C1324 C1319 1.350 . S
C1325 H1312 0.929 . S
C1325 C1317 1.433 . S
C1325 N1327 1.384 . S
N1326 C1322 1.427 . S
N1326 C1323 1.384 . S
N1327 C1319 1.427 . S
N1327 C1325 1.384 . S
H1328 C1334 0.930 . S
H1329 C1338 0.930 . S
H1330 C1343 0.929 . S
H1331 C1341 0.929 . S
H1332 C1336 0.929 . S
H1333 C1342 0.929 . S
C1334 H1328 0.930 . S
C1334 C1335 1.367 . S
C1334 C1342 1.378 . S
C1335 C1334 1.367 . S
C1335 C1343 1.433 . S
C1336 H1332 0.929 . S
C1336 C1338 1.378 . S
C1336 C1340 1.350 . S
C1337 C1340 1.463 . S
C1337 C1342 1.350 . S
C1337 N1345 1.427 . S
C1338 H1329 0.930 . S
C1338 C1336 1.378 . S
C1338 C1339 1.367 . S
C1339 C1338 1.367 . S
C1339 C1341 1.433 . S
C1340 C1336 1.350 . S
C1340 C1337 1.463 . S
C1340 N1344 1.427 . S
C1341 H1331 0.929 . S
C1341 C1339 1.433 . S
C1341 N1344 1.384 . S
C1342 H1333 0.929 . S
C1342 C1334 1.378 . S
C1342 C1337 1.350 . S
C1343 H1330 0.929 . S
C1343 C1335 1.433 . S
C1343 N1345 1.384 . S
N1344 C1340 1.427 . S
N1344 C1341 1.384 . S
N1345 C1337 1.427 . S
N1345 C1343 1.384 . S
H1346 C1352 0.930 . S
H1347 C1356 0.930 . S
H1348 C1361 0.929 . S
H1349 C1359 0.929 . S
H1350 C1354 0.929 . S
H1351 C1360 0.929 . S
C1352 H1346 0.930 . S
C1352 C1353 1.367 . S
C1352 C1360 1.378 . S
C1353 C1352 1.367 . S
C1353 C1361 1.433 . S
C1354 H1350 0.929 . S
C1354 C1356 1.378 . S
C1354 C1358 1.350 . S
C1355 C1358 1.463 . S
C1355 C1360 1.350 . S
C1355 N1363 1.427 . S
C1356 H1347 0.930 . S
C1356 C1354 1.378 . S
C1356 C1357 1.367 . S
C1357 C1356 1.367 . S
C1357 C1359 1.433 . S
C1358 C1354 1.350 . S
C1358 C1355 1.463 . S
C1358 N1362 1.427 . S
C1359 H1349 0.929 . S
C1359 C1357 1.433 . S
C1359 N1362 1.384 . S
C1360 H1351 0.929 . S
C1360 C1352 1.378 . S
C1360 C1355 1.350 . S
C1361 H1348 0.929 . S
C1361 C1353 1.433 . S
C1361 N1363 1.384 . S
N1362 C1358 1.427 . S
N1362 C1359 1.384 . S
N1363 C1355 1.427 . S
N1363 C1361 1.384 . S
H1364 C1370 0.930 . S
H1365 C1374 0.930 . S
H1366 C1379 0.929 . S
H1367 C1377 0.929 . S
H1368 C1372 0.929 . S
H1369 C1378 0.929 . S
C1370 H1364 0.930 . S
C1370 C1371 1.367 . S
C1370 C1378 1.378 . S
C1371 C1370 1.367 . S
C1371 C1379 1.433 . S
C1372 H1368 0.929 . S
C1372 C1374 1.378 . S
C1372 C1376 1.350 . S
C1373 C1376 1.463 . S
C1373 C1378 1.350 . S
C1373 N1381 1.427 . S
C1374 H1365 0.930 . S
C1374 C1372 1.378 . S
C1374 C1375 1.367 . S
C1375 C1374 1.367 . S
C1375 C1377 1.433 . S
C1376 C1372 1.350 . S
C1376 C1373 1.463 . S
C1376 N1380 1.427 . S
C1377 H1367 0.929 . S
C1377 C1375 1.433 . S
C1377 N1380 1.384 . S
C1378 H1369 0.929 . S
C1378 C1370 1.378 . S
C1378 C1373 1.350 . S
C1379 H1366 0.929 . S
C1379 C1371 1.433 . S
C1379 N1381 1.384 . S
N1380 C1376 1.427 . S
N1380 C1377 1.384 . S
N1381 C1373 1.427 . S
N1381 C1379 1.384 . S
H1382 C1388 0.930 . S
H1383 C1392 0.930 . S
H1384 C1397 0.929 . S
H1385 C1395 0.929 . S
H1386 C1390 0.929 . S
H1387 C1396 0.929 . S
C1388 H1382 0.930 . S
C1388 C1389 1.367 . S
C1388 C1396 1.378 . S
C1389 C1388 1.367 . S
C1389 C1397 1.433 . S
C1390 H1386 0.929 . S
C1390 C1392 1.378 . S
C1390 C1394 1.350 . S
C1391 C1394 1.463 . S
C1391 C1396 1.350 . S
C1391 N1399 1.427 . S
C1392 H1383 0.930 . S
C1392 C1390 1.378 . S
C1392 C1393 1.367 . S
C1393 C1392 1.367 . S
C1393 C1395 1.433 . S
C1394 C1390 1.350 . S
C1394 C1391 1.463 . S
C1394 N1398 1.427 . S
C1395 H1385 0.929 . S
C1395 C1393 1.433 . S
C1395 N1398 1.384 . S
C1396 H1387 0.929 . S
C1396 C1388 1.378 . S
C1396 C1391 1.350 . S
C1397 H1384 0.929 . S
C1397 C1389 1.433 . S
C1397 N1399 1.384 . S
N1398 C1394 1.427 . S
N1398 C1395 1.384 . S
N1399 C1391 1.427 . S
N1399 C1397 1.384 . S
H1400 C1406 0.930 . S
H1401 C1410 0.930 . S
H1402 C1415 0.929 . S
H1403 C1413 0.929 . S
H1404 C1408 0.929 . S
H1405 C1414 0.929 . S
C1406 H1400 0.930 . S
C1406 C1407 1.367 . S
C1406 C1414 1.378 . S
C1407 C1406 1.367 . S
C1407 C1415 1.433 . S
C1408 H1404 0.929 . S
C1408 C1410 1.378 . S
C1408 C1412 1.350 . S
C1409 C1412 1.463 . S
C1409 C1414 1.350 . S
C1409 N1417 1.427 . S
C1410 H1401 0.930 . S
C1410 C1408 1.378 . S
C1410 C1411 1.367 . S
C1411 C1410 1.367 . S
C1411 C1413 1.433 . S
C1412 C1408 1.350 . S
C1412 C1409 1.463 . S
C1412 N1416 1.427 . S
C1413 H1403 0.929 . S
C1413 C1411 1.433 . S
C1413 N1416 1.384 . S
C1414 H1405 0.929 . S
C1414 C1406 1.378 . S
C1414 C1409 1.350 . S
C1415 H1402 0.929 . S
C1415 C1407 1.433 . S
C1415 N1417 1.384 . S
N1416 C1412 1.427 . S
N1416 C1413 1.384 . S
N1417 C1409 1.427 . S
N1417 C1415 1.384 . S
H1418 C1424 0.930 . S
H1419 C1428 0.930 . S
H1420 C1433 0.929 . S
H1421 C1431 0.929 . S
H1422 C1426 0.929 . S
H1423 C1432 0.929 . S
C1424 H1418 0.930 . S
C1424 C1425 1.367 . S
C1424 C1432 1.378 . S
C1425 C1424 1.367 . S
C1425 C1433 1.433 . S
C1426 H1422 0.929 . S
C1426 C1428 1.378 . S
C1426 C1430 1.350 . S
C1427 C1430 1.463 . S
C1427 C1432 1.350 . S
C1427 N1435 1.427 . S
C1428 H1419 0.930 . S
C1428 C1426 1.378 . S
C1428 C1429 1.367 . S
C1429 C1428 1.367 . S
C1429 C1431 1.433 . S
C1430 C1426 1.350 . S
C1430 C1427 1.463 . S
C1430 N1434 1.427 . S
C1431 H1421 0.929 . S
C1431 C1429 1.433 . S
C1431 N1434 1.384 . S
C1432 H1423 0.929 . S
C1432 C1424 1.378 . S
C1432 C1427 1.350 . S
C1433 H1420 0.929 . S
C1433 C1425 1.433 . S
C1433 N1435 1.384 . S
N1434 C1430 1.427 . S
N1434 C1431 1.384 . S
N1435 C1427 1.427 . S
N1435 C1433 1.384 . S
H1436 C1442 0.930 . S
H1437 C1446 0.930 . S
H1438 C1451 0.929 . S
H1439 C1449 0.929 . S
H1440 C1444 0.929 . S
H1441 C1450 0.929 . S
C1442 H1436 0.930 . S
C1442 C1443 1.367 . S
C1442 C1450 1.378 . S
C1443 C1442 1.367 . S
C1443 C1451 1.433 . S
C1444 H1440 0.929 . S
C1444 C1446 1.378 . S
C1444 C1448 1.350 . S
C1445 C1448 1.463 . S
C1445 C1450 1.350 . S
C1445 N1453 1.427 . S
C1446 H1437 0.930 . S
C1446 C1444 1.378 . S
C1446 C1447 1.367 . S
C1447 C1446 1.367 . S
C1447 C1449 1.433 . S
C1448 C1444 1.350 . S
C1448 C1445 1.463 . S
C1448 N1452 1.427 . S
C1449 H1439 0.929 . S
C1449 C1447 1.433 . S
C1449 N1452 1.384 . S
C1450 H1441 0.929 . S
C1450 C1442 1.378 . S
C1450 C1445 1.350 . S
C1451 H1438 0.929 . S
C1451 C1443 1.433 . S
C1451 N1453 1.384 . S
N1452 C1448 1.427 . S
N1452 C1449 1.384 . S
N1453 C1445 1.427 . S
N1453 C1451 1.384 . S
H1454 C1460 0.930 . S
H1455 C1464 0.930 . S
H1456 C1469 0.929 . S
H1457 C1467 0.929 . S
H1458 C1462 0.929 . S
H1459 C1468 0.929 . S
C1460 H1454 0.930 . S
C1460 C1461 1.367 . S
C1460 C1468 1.378 . S
C1461 C1460 1.367 . S
C1461 C1469 1.433 . S
C1462 H1458 0.929 . S
C1462 C1464 1.378 . S
C1462 C1466 1.350 . S
C1463 C1466 1.463 . S
C1463 C1468 1.350 . S
C1463 N1471 1.427 . S
C1464 H1455 0.930 . S
C1464 C1462 1.378 . S
C1464 C1465 1.367 . S
C1465 C1464 1.367 . S
C1465 C1467 1.433 . S
C1466 C1462 1.350 . S
C1466 C1463 1.463 . S
C1466 N1470 1.427 . S
C1467 H1457 0.929 . S
C1467 C1465 1.433 . S
C1467 N1470 1.384 . S
C1468 H1459 0.929 . S
C1468 C1460 1.378 . S
C1468 C1463 1.350 . S
C1469 H1456 0.929 . S
C1469 C1461 1.433 . S
C1469 N1471 1.384 . S
N1470 C1466 1.427 . S
N1470 C1467 1.384 . S
N1471 C1463 1.427 . S
N1471 C1469 1.384 . S
H1472 C1478 0.930 . S
H1473 C1482 0.930 . S
H1474 C1487 0.929 . S
H1475 C1485 0.929 . S
H1476 C1480 0.929 . S
H1477 C1486 0.929 . S
C1478 H1472 0.930 . S
C1478 C1479 1.367 . S
C1478 C1486 1.378 . S
C1479 C1478 1.367 . S
C1479 C1487 1.433 . S
C1480 H1476 0.929 . S
C1480 C1482 1.378 . S
C1480 C1484 1.350 . S
C1481 C1484 1.463 . S
C1481 C1486 1.350 . S
C1481 N1489 1.427 . S
C1482 H1473 0.930 . S
C1482 C1480 1.378 . S
C1482 C1483 1.367 . S
C1483 C1482 1.367 . S
C1483 C1485 1.433 . S
C1484 C1480 1.350 . S
C1484 C1481 1.463 . S
C1484 N1488 1.427 . S
C1485 H1475 0.929 . S
C1485 C1483 1.433 . S
C1485 N1488 1.384 . S
C1486 H1477 0.929 . S
C1486 C1478 1.378 . S
C1486 C1481 1.350 . S
C1487 H1474 0.929 . S
C1487 C1479 1.433 . S
C1487 N1489 1.384 . S
N1488 C1484 1.427 . S
N1488 C1485 1.384 . S
N1489 C1481 1.427 . S
N1489 C1487 1.384 . S
H1490 C1496 0.930 . S
H1491 C1500 0.930 . S
H1492 C1505 0.929 . S
H1493 C1503 0.929 . S
H1494 C1498 0.929 . S
H1495 C1504 0.929 . S
C1496 H1490 0.930 . S
C1496 C1497 1.367 . S
C1496 C1504 1.378 . S
C1497 C1496 1.367 . S
C1497 C1505 1.433 . S
C1498 H1494 0.929 . S
C1498 C1500 1.378 . S
C1498 C1502 1.350 . S
C1499 C1502 1.463 . S
C1499 C1504 1.350 . S
C1499 N1507 1.427 . S
C1500 H1491 0.930 . S
C1500 C1498 1.378 . S
C1500 C1501 1.367 . S
C1501 C1500 1.367 . S
C1501 C1503 1.433 . S
C1502 C1498 1.350 . S
C1502 C1499 1.463 . S
C1502 N1506 1.427 . S
C1503 H1493 0.929 . S
C1503 C1501 1.433 . S
C1503 N1506 1.384 . S
C1504 H1495 0.929 . S
C1504 C1496 1.378 . S
C1504 C1499 1.350 . S
C1505 H1492 0.929 . S
C1505 C1497 1.433 . S
C1505 N1507 1.384 . S
N1506 C1502 1.427 . S
N1506 C1503 1.384 . S
N1507 C1499 1.427 . S
N1507 C1505 1.384 . S
C655 C355 1.680 . S
C651 C3 1.672 . S
C673 C333 1.111 . S
C669 C49 1.138 . S
C691 C330 0.670 . S
C687 C95 0.670 . S
C705 C146 0.643 . S
C709 C342 0.642 . S
C723 C186 1.320 . S
C727 C325 1.272 . S
C745 C347 0.646 . S
C741 C215 0.655 . S
C759 C249 0.490 . S
C763 C352 0.430 . S
C777 C302 1.658 . S
C781 C348 1.669 . S
C799 C406 3.590 . S
C795 C2 3.629 . S
C813 C43 1.882 . S
C817 C456 1.892 . S
C835 C379 3.410 . S
C831 C102 3.490 . S
C853 C455 0.963 . S
C849 C135 0.953 . S
C867 C175 0.910 . S
C871 C384 0.919 . S
C889 C450 2.470 . S
C885 C222 2.524 . S
C903 C243 1.922 . S
C907 C409 1.946 . S
C921 C306 1.702 . S
C925 C441 1.752 . S
C939 C9 1.112 . S
C943 C433 1.123 . S
C957 C182 1.541 . S
C961 C463 1.539 . S
C979 C387 1.745 1_556 S
C975 C226 1.807 . S
C997 C438 0.428 . S
C993 C242 0.495 . S
C1011 C295 3.080 . S
C1015 C396 3.008 . S
C1029 C106 1.076 . S
C1033 C460 1.048 . S
C1051 C402 1.524 . S
C1047 C142 1.514 . S
C1065 C42 0.488 . S
C1069 C401 0.464 . S
C1083 C283 1.659 . S
C1087 C517 1.672 . S
C1101 C169 1.328 . S
C1105 C495 1.288 . S
C1123 C492 0.638 . S
C1119 C202 0.655 . S
C1141 C504 0.454 . S
C1137 C266 0.513 . S
C1155 C66 1.127 . S
C1159 C487 1.114 . S
C1177 C509 0.661 . S
C1173 C82 0.653 . S
C1191 C129 0.644 . S
C1195 C514 0.623 . S
C1209 C22 1.665 . S
C1213 C510 1.680 . S
C1227 C282 3.079 . S
C1231 C568 3.012 . S
C1249 C618 1.518 . S
C1245 C163 1.521 . S
C1263 C209 1.792 . S
C1267 C541 1.727 . S
C1281 C255 0.474 . S
C1285 C617 0.433 . S
C1303 C546 0.452 . S
C1299 C55 0.476 . S
C1317 C89 1.061 . S
C1321 C612 1.025 . S
C1339 C571 1.517 . S
C1335 C123 1.505 . S
C1357 C603 1.111 . S
C1353 C26 1.114 . S
C1375 C595 1.761 . S
C1371 C289 1.705 . S
C1389 C62 1.886 . S
C1393 C625 1.901 . S
C1407 C83 3.500 . S
C1411 C549 3.419 . S
C1429 C600 0.969 . S
C1425 C122 0.979 . S
C1443 C15 3.635 . S
C1447 C558 3.595 . S
C1461 C203 2.536 . S
C1465 C622 2.487 . S
C1483 C564 1.943 . S
C1479 C262 1.921 . S
C1501 C563 0.927 . S
C1497 C162 0.933 . S
