# Generated by pormake.
# Topology gar, (4,6)-cn, num edge types: 1
# Building blocks:
#     Node 0, Type 0, BuildingBlock: NAHDIM_clean_sbu_0, # of connection points: 4
#     Node 1, Type 0, BuildingBlock: NAHDIM_clean_sbu_0, # of connection points: 4
#     Node 2, Type 0, BuildingBlock: NAHDIM_clean_sbu_0, # of connection points: 4
#     Node 3, Type 0, BuildingBlock: NAHDIM_clean_sbu_0, # of connection points: 4
#     Node 4, Type 0, BuildingBlock: NAHDIM_clean_sbu_0, # of connection points: 4
#     Node 5, Type 0, BuildingBlock: NAHDIM_clean_sbu_0, # of connection points: 4
#     Node 6, Type 0, BuildingBlock: NAHDIM_clean_sbu_0, # of connection points: 4
#     Node 7, Type 0, BuildingBlock: NAHDIM_clean_sbu_0, # of connection points: 4
#     Node 8, Type 0, BuildingBlock: NAHDIM_clean_sbu_0, # of connection points: 4
#     Node 9, Type 0, BuildingBlock: NAHDIM_clean_sbu_0, # of connection points: 4
#     Node 10, Type 0, BuildingBlock: NAHDIM_clean_sbu_0, # of connection points: 4
#     Node 11, Type 0, BuildingBlock: NAHDIM_clean_sbu_0, # of connection points: 4
#     Node 12, Type 0, BuildingBlock: NAHDIM_clean_sbu_0, # of connection points: 4
#     Node 13, Type 0, BuildingBlock: NAHDIM_clean_sbu_0, # of connection points: 4
#     Node 14, Type 0, BuildingBlock: NAHDIM_clean_sbu_0, # of connection points: 4
#     Node 15, Type 0, BuildingBlock: NAHDIM_clean_sbu_0, # of connection points: 4
#     Node 16, Type 0, BuildingBlock: NAHDIM_clean_sbu_0, # of connection points: 4
#     Node 17, Type 0, BuildingBlock: NAHDIM_clean_sbu_0, # of connection points: 4
#     Node 18, Type 0, BuildingBlock: NAHDIM_clean_sbu_0, # of connection points: 4
#     Node 19, Type 0, BuildingBlock: NAHDIM_clean_sbu_0, # of connection points: 4
#     Node 20, Type 0, BuildingBlock: NAHDIM_clean_sbu_0, # of connection points: 4
#     Node 21, Type 0, BuildingBlock: NAHDIM_clean_sbu_0, # of connection points: 4
#     Node 22, Type 0, BuildingBlock: NAHDIM_clean_sbu_0, # of connection points: 4
#     Node 23, Type 0, BuildingBlock: NAHDIM_clean_sbu_0, # of connection points: 4
#     Node 24, Type 1, BuildingBlock: CUKXOW_clean_sbu_0, # of connection points: 6
#     Node 25, Type 1, BuildingBlock: CUKXOW_clean_sbu_0, # of connection points: 6
#     Node 26, Type 1, BuildingBlock: CUKXOW_clean_sbu_0, # of connection points: 6
#     Node 27, Type 1, BuildingBlock: CUKXOW_clean_sbu_0, # of connection points: 6
#     Node 28, Type 1, BuildingBlock: CUKXOW_clean_sbu_0, # of connection points: 6
#     Node 29, Type 1, BuildingBlock: CUKXOW_clean_sbu_0, # of connection points: 6
#     Node 30, Type 1, BuildingBlock: CUKXOW_clean_sbu_0, # of connection points: 6
#     Node 31, Type 1, BuildingBlock: CUKXOW_clean_sbu_0, # of connection points: 6
#     Node 32, Type 1, BuildingBlock: CUKXOW_clean_sbu_0, # of connection points: 6
#     Node 33, Type 1, BuildingBlock: CUKXOW_clean_sbu_0, # of connection points: 6
#     Node 34, Type 1, BuildingBlock: CUKXOW_clean_sbu_0, # of connection points: 6
#     Node 35, Type 1, BuildingBlock: CUKXOW_clean_sbu_0, # of connection points: 6
#     Node 36, Type 1, BuildingBlock: CUKXOW_clean_sbu_0, # of connection points: 6
#     Node 37, Type 1, BuildingBlock: CUKXOW_clean_sbu_0, # of connection points: 6
#     Node 38, Type 1, BuildingBlock: CUKXOW_clean_sbu_0, # of connection points: 6
#     Node 39, Type 1, BuildingBlock: CUKXOW_clean_sbu_0, # of connection points: 6
#     Edge 40, Type (0, 1), BuildingBlock: ZUJKAS_clean_linker_0, # of connection points: 2
#     Edge 41, Type (0, 1), BuildingBlock: ZUJKAS_clean_linker_0, # of connection points: 2
#     Edge 42, Type (0, 1), BuildingBlock: ZUJKAS_clean_linker_0, # of connection points: 2
#     Edge 43, Type (0, 1), BuildingBlock: ZUJKAS_clean_linker_0, # of connection points: 2
#     Edge 44, Type (0, 1), BuildingBlock: ZUJKAS_clean_linker_0, # of connection points: 2
#     Edge 45, Type (0, 1), BuildingBlock: ZUJKAS_clean_linker_0, # of connection points: 2
#     Edge 46, Type (0, 1), BuildingBlock: ZUJKAS_clean_linker_0, # of connection points: 2
#     Edge 47, Type (0, 1), BuildingBlock: ZUJKAS_clean_linker_0, # of connection points: 2
#     Edge 48, Type (0, 1), BuildingBlock: ZUJKAS_clean_linker_0, # of connection points: 2
#     Edge 49, Type (0, 1), BuildingBlock: ZUJKAS_clean_linker_0, # of connection points: 2
#     Edge 50, Type (0, 1), BuildingBlock: ZUJKAS_clean_linker_0, # of connection points: 2
#     Edge 51, Type (0, 1), BuildingBlock: ZUJKAS_clean_linker_0, # of connection points: 2
#     Edge 52, Type (0, 1), BuildingBlock: ZUJKAS_clean_linker_0, # of connection points: 2
#     Edge 53, Type (0, 1), BuildingBlock: ZUJKAS_clean_linker_0, # of connection points: 2
#     Edge 54, Type (0, 1), BuildingBlock: ZUJKAS_clean_linker_0, # of connection points: 2
#     Edge 55, Type (0, 1), BuildingBlock: ZUJKAS_clean_linker_0, # of connection points: 2
#     Edge 56, Type (0, 1), BuildingBlock: ZUJKAS_clean_linker_0, # of connection points: 2
#     Edge 57, Type (0, 1), BuildingBlock: ZUJKAS_clean_linker_0, # of connection points: 2
#     Edge 58, Type (0, 1), BuildingBlock: ZUJKAS_clean_linker_0, # of connection points: 2
#     Edge 59, Type (0, 1), BuildingBlock: ZUJKAS_clean_linker_0, # of connection points: 2
#     Edge 60, Type (0, 1), BuildingBlock: ZUJKAS_clean_linker_0, # of connection points: 2
#     Edge 61, Type (0, 1), BuildingBlock: ZUJKAS_clean_linker_0, # of connection points: 2
#     Edge 62, Type (0, 1), BuildingBlock: ZUJKAS_clean_linker_0, # of connection points: 2
#     Edge 63, Type (0, 1), BuildingBlock: ZUJKAS_clean_linker_0, # of connection points: 2
#     Edge 64, Type (0, 1), BuildingBlock: ZUJKAS_clean_linker_0, # of connection points: 2
#     Edge 65, Type (0, 1), BuildingBlock: ZUJKAS_clean_linker_0, # of connection points: 2
#     Edge 66, Type (0, 1), BuildingBlock: ZUJKAS_clean_linker_0, # of connection points: 2
#     Edge 67, Type (0, 1), BuildingBlock: ZUJKAS_clean_linker_0, # of connection points: 2
#     Edge 68, Type (0, 1), BuildingBlock: ZUJKAS_clean_linker_0, # of connection points: 2
#     Edge 69, Type (0, 1), BuildingBlock: ZUJKAS_clean_linker_0, # of connection points: 2
#     Edge 70, Type (0, 1), BuildingBlock: ZUJKAS_clean_linker_0, # of connection points: 2
#     Edge 71, Type (0, 1), BuildingBlock: ZUJKAS_clean_linker_0, # of connection points: 2
#     Edge 72, Type (0, 1), BuildingBlock: ZUJKAS_clean_linker_0, # of connection points: 2
#     Edge 73, Type (0, 1), BuildingBlock: ZUJKAS_clean_linker_0, # of connection points: 2
#     Edge 74, Type (0, 1), BuildingBlock: ZUJKAS_clean_linker_0, # of connection points: 2
#     Edge 75, Type (0, 1), BuildingBlock: ZUJKAS_clean_linker_0, # of connection points: 2
#     Edge 76, Type (0, 1), BuildingBlock: ZUJKAS_clean_linker_0, # of connection points: 2
#     Edge 77, Type (0, 1), BuildingBlock: ZUJKAS_clean_linker_0, # of connection points: 2
#     Edge 78, Type (0, 1), BuildingBlock: ZUJKAS_clean_linker_0, # of connection points: 2
#     Edge 79, Type (0, 1), BuildingBlock: ZUJKAS_clean_linker_0, # of connection points: 2
#     Edge 80, Type (0, 1), BuildingBlock: ZUJKAS_clean_linker_0, # of connection points: 2
#     Edge 81, Type (0, 1), BuildingBlock: ZUJKAS_clean_linker_0, # of connection points: 2
#     Edge 82, Type (0, 1), BuildingBlock: ZUJKAS_clean_linker_0, # of connection points: 2
#     Edge 83, Type (0, 1), BuildingBlock: ZUJKAS_clean_linker_0, # of connection points: 2
#     Edge 84, Type (0, 1), BuildingBlock: ZUJKAS_clean_linker_0, # of connection points: 2
#     Edge 85, Type (0, 1), BuildingBlock: ZUJKAS_clean_linker_0, # of connection points: 2
#     Edge 86, Type (0, 1), BuildingBlock: ZUJKAS_clean_linker_0, # of connection points: 2
#     Edge 87, Type (0, 1), BuildingBlock: ZUJKAS_clean_linker_0, # of connection points: 2
#     Edge 88, Type (0, 1), BuildingBlock: ZUJKAS_clean_linker_0, # of connection points: 2
#     Edge 89, Type (0, 1), BuildingBlock: ZUJKAS_clean_linker_0, # of connection points: 2
#     Edge 90, Type (0, 1), BuildingBlock: ZUJKAS_clean_linker_0, # of connection points: 2
#     Edge 91, Type (0, 1), BuildingBlock: ZUJKAS_clean_linker_0, # of connection points: 2
#     Edge 92, Type (0, 1), BuildingBlock: ZUJKAS_clean_linker_0, # of connection points: 2
#     Edge 93, Type (0, 1), BuildingBlock: ZUJKAS_clean_linker_0, # of connection points: 2
#     Edge 94, Type (0, 1), BuildingBlock: ZUJKAS_clean_linker_0, # of connection points: 2
#     Edge 95, Type (0, 1), BuildingBlock: ZUJKAS_clean_linker_0, # of connection points: 2
#     Edge 96, Type (0, 1), BuildingBlock: ZUJKAS_clean_linker_0, # of connection points: 2
#     Edge 97, Type (0, 1), BuildingBlock: ZUJKAS_clean_linker_0, # of connection points: 2
#     Edge 98, Type (0, 1), BuildingBlock: ZUJKAS_clean_linker_0, # of connection points: 2
#     Edge 99, Type (0, 1), BuildingBlock: ZUJKAS_clean_linker_0, # of connection points: 2
#     Edge 100, Type (0, 1), BuildingBlock: ZUJKAS_clean_linker_0, # of connection points: 2
#     Edge 101, Type (0, 1), BuildingBlock: ZUJKAS_clean_linker_0, # of connection points: 2
#     Edge 102, Type (0, 1), BuildingBlock: ZUJKAS_clean_linker_0, # of connection points: 2
#     Edge 103, Type (0, 1), BuildingBlock: ZUJKAS_clean_linker_0, # of connection points: 2
#     Edge 104, Type (0, 1), BuildingBlock: ZUJKAS_clean_linker_0, # of connection points: 2
#     Edge 105, Type (0, 1), BuildingBlock: ZUJKAS_clean_linker_0, # of connection points: 2
#     Edge 106, Type (0, 1), BuildingBlock: ZUJKAS_clean_linker_0, # of connection points: 2
#     Edge 107, Type (0, 1), BuildingBlock: ZUJKAS_clean_linker_0, # of connection points: 2
#     Edge 108, Type (0, 1), BuildingBlock: ZUJKAS_clean_linker_0, # of connection points: 2
#     Edge 109, Type (0, 1), BuildingBlock: ZUJKAS_clean_linker_0, # of connection points: 2
#     Edge 110, Type (0, 1), BuildingBlock: ZUJKAS_clean_linker_0, # of connection points: 2
#     Edge 111, Type (0, 1), BuildingBlock: ZUJKAS_clean_linker_0, # of connection points: 2
#     Edge 112, Type (0, 1), BuildingBlock: ZUJKAS_clean_linker_0, # of connection points: 2
#     Edge 113, Type (0, 1), BuildingBlock: ZUJKAS_clean_linker_0, # of connection points: 2
#     Edge 114, Type (0, 1), BuildingBlock: ZUJKAS_clean_linker_0, # of connection points: 2
#     Edge 115, Type (0, 1), BuildingBlock: ZUJKAS_clean_linker_0, # of connection points: 2
#     Edge 116, Type (0, 1), BuildingBlock: ZUJKAS_clean_linker_0, # of connection points: 2
#     Edge 117, Type (0, 1), BuildingBlock: ZUJKAS_clean_linker_0, # of connection points: 2
#     Edge 118, Type (0, 1), BuildingBlock: ZUJKAS_clean_linker_0, # of connection points: 2
#     Edge 119, Type (0, 1), BuildingBlock: ZUJKAS_clean_linker_0, # of connection points: 2
#     Edge 120, Type (0, 1), BuildingBlock: ZUJKAS_clean_linker_0, # of connection points: 2
#     Edge 121, Type (0, 1), BuildingBlock: ZUJKAS_clean_linker_0, # of connection points: 2
#     Edge 122, Type (0, 1), BuildingBlock: ZUJKAS_clean_linker_0, # of connection points: 2
#     Edge 123, Type (0, 1), BuildingBlock: ZUJKAS_clean_linker_0, # of connection points: 2
#     Edge 124, Type (0, 1), BuildingBlock: ZUJKAS_clean_linker_0, # of connection points: 2
#     Edge 125, Type (0, 1), BuildingBlock: ZUJKAS_clean_linker_0, # of connection points: 2
#     Edge 126, Type (0, 1), BuildingBlock: ZUJKAS_clean_linker_0, # of connection points: 2
#     Edge 127, Type (0, 1), BuildingBlock: ZUJKAS_clean_linker_0, # of connection points: 2
#     Edge 128, Type (0, 1), BuildingBlock: ZUJKAS_clean_linker_0, # of connection points: 2
#     Edge 129, Type (0, 1), BuildingBlock: ZUJKAS_clean_linker_0, # of connection points: 2
#     Edge 130, Type (0, 1), BuildingBlock: ZUJKAS_clean_linker_0, # of connection points: 2
#     Edge 131, Type (0, 1), BuildingBlock: ZUJKAS_clean_linker_0, # of connection points: 2
#     Edge 132, Type (0, 1), BuildingBlock: ZUJKAS_clean_linker_0, # of connection points: 2
#     Edge 133, Type (0, 1), BuildingBlock: ZUJKAS_clean_linker_0, # of connection points: 2
#     Edge 134, Type (0, 1), BuildingBlock: ZUJKAS_clean_linker_0, # of connection points: 2
#     Edge 135, Type (0, 1), BuildingBlock: ZUJKAS_clean_linker_0, # of connection points: 2
# Relax obj value: 0.115
# Max RMSD: 0.220
# Mean RMSD: 0.151
data_MOF--net-gar--node1-NAHDIM_clean_sbu_0--node2-CUKXOW_clean_sbu_0--edge1-ZUJKAS_clean_linker_0
_symmetry_space_group_name_H-M    P1
_symmetry_Int_Tables_number       1
_symmetry_cell_setting            triclinic
loop_
_symmetry_equiv_pos_as_xyz
'x, y, z'
_cell_length_a     72.20165
_cell_length_b     69.341787
_cell_length_c     68.434098
_cell_angle_alpha  93.591942
_cell_angle_beta   95.880755
_cell_angle_gamma 99.899676
loop_
_atom_site_label
_atom_site_type_symbol
_atom_site_fract_x
_atom_site_fract_y
_atom_site_fract_z
_atom_type_partial_charge
C0 C 0.04132 0.27771 0.37521 0.0
O1 O 0.02597 0.28528 0.3716 0.0
O2 O 0.02598 0.24605 0.42686 0.0
Zn3 Zn 0.02516 0.2692 0.41076 0.0
O4 O 0.02992 0.29462 0.42775 0.0
C5 C 0.99241 0.25073 0.38434 0.0
O6 O 0.0022 0.23654 0.38242 0.0
O7 O 0.04422 0.27007 0.3914 0.0
C8 C 0.01628 0.29979 0.43587 0.0
O9 O 0.99968 0.28813 0.4333 0.0
C10 C 0.02628 0.24704 0.4455 0.0
O11 O 0.02676 0.26408 0.45522 0.0
O12 O 0.99941 0.26593 0.39578 0.0
C13 C 0.96258 0.77987 0.63513 0.0
O14 O 0.96208 0.76248 0.62608 0.0
O15 O 0.98541 0.76692 0.59396 0.0
Zn16 Zn 0.992 0.79243 0.61063 0.0
O17 O 0.99253 0.81486 0.59362 0.0
C18 C 0.02005 0.78251 0.63873 0.0
O19 O 0.00573 0.76917 0.64212 0.0
O20 O 0.97385 0.79458 0.63049 0.0
C21 C 0.0031 0.83116 0.59968 0.0
O22 O 0.0131 0.83291 0.61706 0.0
C23 C 0.99421 0.76485 0.57905 0.0
O24 O 0.00674 0.77966 0.57483 0.0
O25 O 0.01763 0.79406 0.62541 0.0
C26 C 0.5407 0.78268 0.87636 0.0
O27 O 0.52562 0.79033 0.87142 0.0
O28 O 0.52062 0.74866 0.92502 0.0
Zn29 Zn 0.52102 0.77228 0.90952 0.0
O30 O 0.52549 0.79661 0.92801 0.0
C31 C 0.48923 0.75452 0.88174 0.0
O32 O 0.49866 0.73993 0.88107 0.0
O33 O 0.54183 0.77404 0.89216 0.0
C34 C 0.51179 0.80252 0.93532 0.0
O35 O 0.49457 0.79247 0.93066 0.0
C36 C 0.50577 0.74162 0.93249 0.0
O37 O 0.49083 0.75005 0.93003 0.0
O38 O 0.49615 0.76997 0.89286 0.0
C39 C 0.46507 0.2776 0.14769 0.0
O40 O 0.47411 0.2627 0.14797 0.0
O41 O 0.48472 0.26329 0.10305 0.0
Zn42 Zn 0.49035 0.28888 0.11977 0.0
O43 O 0.49414 0.31173 0.10317 0.0
C44 C 0.52629 0.27947 0.13412 0.0
O45 O 0.52357 0.26833 0.11747 0.0
O46 O 0.46937 0.2909 0.13616 0.0
C47 C 0.50963 0.31665 0.09595 0.0
O48 O 0.5232 0.30644 0.09925 0.0
C49 C 0.48286 0.26169 0.08432 0.0
O50 O 0.48371 0.27757 0.07471 0.0
O51 O 0.51393 0.28962 0.13823 0.0
C52 C 0.95382 0.75863 0.16866 0.0
O53 O 0.95121 0.74839 0.15147 0.0
O54 O 0.98907 0.74178 0.14234 0.0
Zn55 Zn 0.99179 0.76805 0.15811 0.0
O56 O 0.99171 0.78993 0.13988 0.0
C57 C 0.03173 0.77406 0.16588 0.0
O58 O 0.02951 0.77321 0.14652 0.0
O59 O 0.97026 0.76815 0.17489 0.0
C60 C 0.0004 0.80722 0.14556 0.0
O61 O 0.00913 0.81079 0.16356 0.0
C62 C 0.98878 0.74023 0.12368 0.0
O63 O 0.98951 0.75611 0.11407 0.0
O64 O 0.01711 0.77234 0.17498 0.0
C65 C 0.56409 0.79234 0.36221 0.0
O66 O 0.5653 0.79268 0.38152 0.0
O67 O 0.52334 0.76658 0.38356 0.0
Zn68 Zn 0.52516 0.79036 0.36765 0.0
O69 O 0.52759 0.81485 0.38594 0.0
C70 C 0.48967 0.77207 0.3446 0.0
O71 O 0.49452 0.75587 0.35076 0.0
O72 O 0.54794 0.79161 0.35252 0.0
C73 C 0.52915 0.83182 0.37959 0.0
O74 O 0.53003 0.83354 0.36068 0.0
C75 C 0.52473 0.76774 0.40229 0.0
O76 O 0.52772 0.7851 0.41207 0.0
O77 O 0.50086 0.78834 0.34937 0.0
C78 C 0.45636 0.25257 0.67838 0.0
O79 O 0.46219 0.23566 0.67696 0.0
O80 O 0.48569 0.23933 0.64123 0.0
Zn81 Zn 0.48795 0.26618 0.6558 0.0
O82 O 0.48962 0.28743 0.63672 0.0
C83 C 0.52695 0.26784 0.66566 0.0
O84 O 0.52459 0.26176 0.64685 0.0
O85 O 0.46532 0.26721 0.67091 0.0
C86 C 0.48202 0.30244 0.63959 0.0
O87 O 0.4727 0.30388 0.65497 0.0
C88 C 0.48545 0.23679 0.62263 0.0
O89 O 0.48563 0.25198 0.61206 0.0
O90 O 0.51263 0.27114 0.67385 0.0
C91 C 0.06221 0.3001 0.85711 0.0
O92 O 0.06426 0.31208 0.87314 0.0
O93 O 0.02122 0.26766 0.88403 0.0
Zn94 Zn 0.02363 0.29045 0.86694 0.0
O95 O 0.02669 0.31641 0.88363 0.0
C96 C 0.98445 0.28991 0.85651 0.0
O97 O 0.98616 0.29516 0.87547 0.0
O98 O 0.04604 0.28966 0.85139 0.0
C99 C 0.02233 0.31723 0.90119 0.0
O100 O 0.01635 0.30082 0.90904 0.0
C101 C 0.03443 0.26464 0.8966 0.0
O102 O 0.05067 0.27691 0.89892 0.0
O103 O 0.99907 0.28698 0.84869 0.0
C104 C 0.3689 0.09771 0.2363 0.0
O105 O 0.36817 0.08657 0.21988 0.0
O106 O 0.40536 0.06882 0.22704 0.0
Zn107 Zn 0.39159 0.07031 0.25127 0.0
O108 O 0.40942 0.07122 0.27627 0.0
C109 C 0.36528 0.03515 0.23472 0.0
O110 O 0.37066 0.04086 0.21792 0.0
O111 O 0.37842 0.09379 0.25176 0.0
C112 C 0.41656 0.05606 0.27971 0.0
O113 O 0.41277 0.0409 0.26651 0.0
C114 C 0.42319 0.07332 0.22709 0.0
O115 O 0.43378 0.08002 0.2437 0.0
O116 O 0.37204 0.04561 0.2506 0.0
C117 C 0.30781 0.13826 0.5072 0.0
O118 O 0.31588 0.1568 0.50786 0.0
O119 O 0.28508 0.17492 0.52634 0.0
Zn120 Zn 0.27535 0.15583 0.50264 0.0
O121 O 0.27822 0.16979 0.4781 0.0
C122 C 0.23771 0.15311 0.51444 0.0
O123 O 0.24546 0.1689 0.52596 0.0
O124 O 0.28991 0.13379 0.504 0.0
C125 C 0.27216 0.18592 0.47762 0.0
O126 O 0.26418 0.19216 0.49264 0.0
C127 C 0.2969 0.19082 0.52646 0.0
O128 O 0.30409 0.19579 0.51024 0.0
O129 O 0.24779 0.14508 0.50335 0.0
C130 C 0.15664 0.96133 0.79424 0.0
O131 O 0.14378 0.95861 0.80653 0.0
O132 O 0.12394 0.99512 0.7628 0.0
Zn133 Zn 0.14231 0.99759 0.78733 0.0
O134 O 0.12838 0.99618 0.81152 0.0
C135 C 0.15021 0.03914 0.79003 0.0
O136 O 0.13197 0.03603 0.79162 0.0
O137 O 0.15853 0.97679 0.78504 0.0
C138 C 0.11266 0.98484 0.81219 0.0
O139 O 0.10515 0.97278 0.79677 0.0
C140 C 0.11555 0.97904 0.75349 0.0
O141 O 0.11837 0.96228 0.76011 0.0
O142 O 0.15849 0.02445 0.78836 0.0
C143 C 0.19702 0.93041 0.03864 0.0
O144 O 0.20808 0.93146 0.0553 0.0
O145 O 0.2232 0.89002 0.04927 0.0
Zn146 Zn 0.22262 0.90548 0.02504 0.0
O147 O 0.22046 0.88715 0.00013 0.0
C148 C 0.25764 0.93275 0.0416 0.0
O149 O 0.25119 0.93062 0.05875 0.0
O150 O 0.20053 0.92029 0.02375 0.0
C151 C 0.22715 0.89438 0.98512 0.0
O152 O 0.23432 0.91321 0.98624 0.0
C153 C 0.23673 0.88074 0.05304 0.0
O154 O 0.24966 0.88106 0.04082 0.0
O155 O 0.24769 0.92411 0.0261 0.0
C156 C 0.21935 0.44168 0.03328 0.0
O157 O 0.21973 0.43624 0.05134 0.0
O158 O 0.24215 0.40509 0.05413 0.0
Zn159 Zn 0.24922 0.4192 0.03058 0.0
O160 O 0.24945 0.39903 0.00846 0.0
C161 C 0.28817 0.43156 0.04745 0.0
O162 O 0.28507 0.41545 0.05666 0.0
O163 O 0.23061 0.43607 0.022 0.0
C164 C 0.25678 0.38387 0.01114 0.0
O165 O 0.26483 0.38158 0.02874 0.0
C166 C 0.22851 0.39058 0.05183 0.0
O167 O 0.21883 0.38596 0.03435 0.0
O168 O 0.27485 0.43604 0.03602 0.0
C169 C 0.82718 0.14231 0.99053 0.0
O170 O 0.82513 0.1524 0.97508 0.0
O171 O 0.7962 0.17555 0.02777 0.0
Zn172 Zn 0.79435 0.15849 0.00198 0.0
O173 O 0.795 0.17506 0.97834 0.0
C174 C 0.76373 0.12995 0.01297 0.0
O175 O 0.77532 0.1309 0.02925 0.0
O176 O 0.8158 0.14272 0.00353 0.0
C177 C 0.77994 0.18055 0.97119 0.0
O178 O 0.76439 0.17574 0.97954 0.0
C179 C 0.78166 0.1817 0.03296 0.0
O180 O 0.76578 0.17757 0.02108 0.0
O181 O 0.76908 0.13996 0.99896 0.0
C182 C 0.13195 0.45531 0.29034 0.0
O183 O 0.11824 0.45366 0.30169 0.0
O184 O 0.10402 0.49016 0.25362 0.0
Zn185 Zn 0.1199 0.49225 0.28001 0.0
O186 O 0.10382 0.49205 0.30278 0.0
C187 C 0.15051 0.52053 0.26959 0.0
O188 O 0.15084 0.50648 0.25589 0.0
O189 O 0.13483 0.47015 0.28031 0.0
C190 C 0.10309 0.50808 0.31258 0.0
O191 O 0.11251 0.52458 0.30748 0.0
C192 C 0.09165 0.50088 0.25004 0.0
O193 O 0.08828 0.51298 0.26425 0.0
O194 O 0.1385 0.51771 0.28193 0.0
C195 C 0.72051 0.93819 0.53084 0.0
O196 O 0.72466 0.93729 0.54987 0.0
O197 O 0.73971 0.9003 0.55402 0.0
Zn198 Zn 0.74518 0.90981 0.5278 0.0
O199 O 0.74121 0.88664 0.50781 0.0
C200 C 0.78569 0.91466 0.53073 0.0
O201 O 0.78217 0.89574 0.53284 0.0
O202 O 0.72769 0.92779 0.5188 0.0
C203 C 0.74333 0.86946 0.51191 0.0
O204 O 0.74827 0.86615 0.53024 0.0
C205 C 0.72389 0.88946 0.55541 0.0
O206 O 0.71125 0.88547 0.5398 0.0
O207 O 0.77201 0.92397 0.52887 0.0
C208 C 0.8465 0.08391 0.22995 0.0
O209 O 0.85505 0.08374 0.21392 0.0
O210 O 0.88267 0.05681 0.21793 0.0
Zn211 Zn 0.8692 0.05465 0.24232 0.0
O212 O 0.88828 0.06183 0.26626 0.0
C213 C 0.85896 0.01229 0.23343 0.0
O214 O 0.87098 0.01525 0.2203 0.0
O215 O 0.85027 0.07277 0.24329 0.0
C216 C 0.90388 0.05561 0.26745 0.0
O217 O 0.90764 0.04455 0.25259 0.0
C218 C 0.89564 0.07136 0.21633 0.0
O219 O 0.89976 0.0856 0.23052 0.0
O220 O 0.8559 0.02688 0.24404 0.0
C221 C 0.32511 0.64268 0.49102 0.0
O222 O 0.32233 0.65192 0.47509 0.0
O223 O 0.29434 0.676 0.52933 0.0
Zn224 Zn 0.29303 0.65977 0.5031 0.0
O225 O 0.29439 0.67713 0.48004 0.0
C226 C 0.26151 0.63138 0.51268 0.0
O227 O 0.27236 0.63222 0.52946 0.0
O228 O 0.31442 0.6439 0.50457 0.0
C229 C 0.27954 0.68286 0.47267 0.0
O230 O 0.2637 0.67786 0.48047 0.0
C231 C 0.27978 0.68233 0.53425 0.0
O232 O 0.26426 0.67898 0.52182 0.0
O233 O 0.26767 0.64136 0.49897 0.0
C234 C 0.35453 0.59138 0.74559 0.0
O235 O 0.37225 0.59485 0.75352 0.0
O236 O 0.37843 0.55536 0.7124 0.0
Zn237 Zn 0.36388 0.5537 0.73603 0.0
O238 O 0.38229 0.55774 0.76053 0.0
C239 C 0.35056 0.51198 0.72564 0.0
O240 O 0.36319 0.51443 0.71308 0.0
O241 O 0.3476 0.57457 0.73686 0.0
C242 C 0.39402 0.54621 0.76333 0.0
O243 O 0.39415 0.53195 0.74979 0.0
C244 C 0.39311 0.56845 0.7124 0.0
O245 O 0.39835 0.58129 0.72776 0.0
O246 O 0.34799 0.52675 0.73631 0.0
C247 C 0.63312 0.95458 0.79408 0.0
O248 O 0.6222 0.95465 0.8083 0.0
O249 O 0.6011 0.98669 0.7555 0.0
Zn250 Zn 0.6174 0.98902 0.78176 0.0
O251 O 0.602 0.98845 0.80502 0.0
C252 C 0.64719 0.01843 0.77144 0.0
O253 O 0.64811 0.00465 0.75768 0.0
O254 O 0.63304 0.96748 0.78167 0.0
C255 C 0.598 0.0044 0.81221 0.0
O256 O 0.60349 0.02073 0.80401 0.0
C257 C 0.58598 0.9937 0.75259 0.0
O258 O 0.57958 0.00217 0.76757 0.0
O259 O 0.63522 0.01497 0.78373 0.0
C260 C 0.80328 0.63475 0.01347 0.0
O261 O 0.80571 0.65323 0.02035 0.0
O262 O 0.769 0.66488 0.01062 0.0
Zn263 Zn 0.77185 0.64481 0.98937 0.0
O264 O 0.78093 0.65867 0.96649 0.0
C265 C 0.73187 0.63549 0.98045 0.0
O266 O 0.73366 0.65459 0.98409 0.0
O267 O 0.78993 0.62809 -0.0001 0.0
C268 C 0.79383 0.67385 0.96933 0.0
O269 O 0.8017 0.67974 0.98736 0.0
C270 C 0.76249 0.65917 0.02621 0.0
O271 O 0.75785 0.64024 0.028 0.0
O272 O 0.7466 0.62775 0.98127 0.0
C273 C 0.88045 0.60967 0.75062 0.0
O274 O 0.89865 0.615 0.75639 0.0
O275 O 0.90193 0.56705 0.72279 0.0
Zn276 Zn 0.88862 0.56957 0.74724 0.0
O277 O 0.90685 0.57251 0.77233 0.0
C278 C 0.85968 0.53521 0.73346 0.0
O279 O 0.86069 0.54207 0.71605 0.0
O280 O 0.87366 0.59161 0.74605 0.0
C281 C 0.91149 0.55674 0.77819 0.0
O282 O 0.90523 0.5402 0.76724 0.0
C283 C 0.91981 0.57086 0.72287 0.0
O284 O 0.93048 0.5773 0.7395 0.0
O285 O 0.86999 0.54462 0.74835 0.0
C286 C 0.69546 0.429 0.53551 0.0
O287 O 0.70756 0.43178 0.55157 0.0
O288 O 0.72093 0.38744 0.54655 0.0
Zn289 Zn 0.72102 0.40373 0.52272 0.0
O290 O 0.71992 0.38629 0.49728 0.0
C291 C 0.75676 0.42855 0.54064 0.0
O292 O 0.75204 0.42152 0.55717 0.0
O293 O 0.69832 0.41766 0.52119 0.0
C294 C 0.73524 0.38359 0.49069 0.0
O295 O 0.75147 0.39176 0.50074 0.0
C296 C 0.73297 0.37625 0.54983 0.0
O297 O 0.74542 0.37494 0.53733 0.0
O298 O 0.74548 0.42366 0.5249 0.0
C299 C 0.65694 0.45981 0.28868 0.0
O300 O 0.63866 0.45464 0.28331 0.0
O301 O 0.62996 0.49303 0.26673 0.0
Zn302 Zn 0.64657 0.4977 0.29256 0.0
O303 O 0.6305 0.49608 0.31492 0.0
C304 C 0.65336 0.53846 0.28747 0.0
O305 O 0.63526 0.53397 0.28097 0.0
O306 O 0.66378 0.47777 0.29378 0.0
C307 C 0.61437 0.485 0.31358 0.0
O308 O 0.60806 0.47382 0.29723 0.0
C309 C 0.63766 0.49207 0.25092 0.0
O310 O 0.65612 0.49337 0.25203 0.0
O311 O 0.66182 0.52504 0.29376 0.0
Tb312 Tb 0.01363 0.05429 0.0112 0.0
C313 C 0.01778 0.01986 0.98119 0.0
Tb314 Tb 0.00547 0.012 0.02376 0.0
O315 O 0.04332 0.05242 0.00939 0.0
O316 O 0.02805 0.03622 0.02901 0.0
O317 O 0.01416 0.03798 0.98321 0.0
C318 C 0.00725 0.97618 0.03523 0.0
O319 O 0.01692 0.00792 0.99567 0.0
C320 C 0.97558 0.02731 0.01283 0.0
C321 C 0.0009 0.04641 0.05361 0.0
O322 O 0.99504 0.98017 0.02145 0.0
O323 O 0.01843 0.99231 0.04236 0.0
O324 O 0.97564 0.01389 0.02524 0.0
O325 O 0.99122 0.02998 0.00586 0.0
O326 O 0.00446 0.02828 0.05165 0.0
O327 O 0.00208 0.05842 0.03921 0.0
C328 C 0.0124 0.09037 0.00022 0.0
O329 O 0.02512 0.08583 0.01309 0.0
O330 O 0.00035 0.07463 0.99367 0.0
C331 C 0.04358 0.03899 0.02175 0.0
Tb332 Tb 0.26583 0.80152 0.26262 0.0
C333 C 0.29769 0.77609 0.26791 0.0
Tb334 Tb 0.25416 0.75622 0.25864 0.0
O335 O 0.27585 0.80224 0.29403 0.0
O336 O 0.25495 0.77932 0.2805 0.0
O337 O 0.29358 0.79326 0.263 0.0
C338 C 0.24556 0.71795 0.26355 0.0
O339 O 0.28445 0.76038 0.26904 0.0
C340 C 0.25451 0.77328 0.22547 0.0
C341 C 0.22226 0.7817 0.25425 0.0
O342 O 0.25662 0.72559 0.25114 0.0
O343 O 0.23949 0.73185 0.27319 0.0
O344 O 0.24364 0.75673 0.22747 0.0
O345 O 0.26561 0.77829 0.24106 0.0
O346 O 0.22651 0.76454 0.25885 0.0
O347 O 0.23536 0.79752 0.25327 0.0
C348 C 0.27341 0.83922 0.25511 0.0
O349 O 0.26673 0.83282 0.27088 0.0
O350 O 0.27579 0.82444 0.2437 0.0
C351 C 0.26604 0.78507 0.29605 0.0
Tb352 Tb 0.52598 0.02538 0.51019 0.0
C353 C 0.51597 0.01793 0.55306 0.0
Tb354 Tb 0.48494 0.02563 0.51919 0.0
O355 O 0.53702 0.05242 0.52916 0.0
O356 O 0.50902 0.04659 0.51588 0.0
O357 O 0.52779 0.01556 0.53979 0.0
C358 C 0.45349 0.0352 0.53094 0.0
O359 O 0.49939 0.02346 0.54855 0.0
C360 C 0.49096 0.99331 0.50114 0.0
C361 C 0.49496 0.03334 0.47645 0.0
O362 O 0.45749 0.01762 0.53045 0.0
O363 O 0.4671 0.04716 0.52482 0.0
O364 O 0.47478 0.99918 0.49908 0.0
O365 O 0.50202 0.00449 0.5141 0.0
O366 O 0.48332 0.03585 0.48982 0.0
O367 O 0.51145 0.02759 0.48084 0.0
C368 C 0.55672 0.01512 0.4972 0.0
O369 O 0.54292 0.0033 0.50318 0.0
O370 O 0.55329 0.03291 0.49855 0.0
C371 C 0.52057 0.05771 0.52856 0.0
Tb372 Tb 0.26063 0.28011 0.78861 0.0
C373 C 0.27375 0.31407 0.76283 0.0
Tb374 Tb 0.25587 0.27081 0.744 0.0
O375 O 0.29152 0.28586 0.78915 0.0
O376 O 0.27457 0.26558 0.76804 0.0
O377 O 0.26738 0.30987 0.77986 0.0
C378 C 0.26342 0.26556 0.70703 0.0
O379 O 0.27291 0.30045 0.74806 0.0
C380 C 0.22518 0.2769 0.75879 0.0
C381 C 0.24228 0.23684 0.76982 0.0
O382 O 0.25396 0.27853 0.71336 0.0
O383 O 0.26816 0.25538 0.72134 0.0
O384 O 0.22492 0.26602 0.74253 0.0
O385 O 0.24192 0.28532 0.76449 0.0
O386 O 0.24794 0.2412 0.75253 0.0
O387 O 0.24412 0.25018 0.78506 0.0
C388 C 0.25598 0.28517 0.82656 0.0
O389 O 0.26813 0.27563 0.81958 0.0
O390 O 0.24656 0.29197 0.81221 0.0
C391 C 0.29126 0.27432 0.77339 0.0
Tb392 Tb 0.00526 0.03884 0.49291 0.0
C393 C 0.97439 0.01269 0.51322 0.0
Tb394 Tb 0.01535 0.02882 0.53577 0.0
O395 O 0.00244 0.00784 0.4824 0.0
O396 O 0.02085 0.01965 0.50727 0.0
O397 O 0.97741 0.02548 0.49971 0.0
C398 C 0.02349 0.01134 0.56836 0.0
O399 O 0.98793 0.00987 0.52686 0.0
C400 C 0.00675 0.0637 0.53227 0.0
C401 C 0.04589 0.056 0.5159 0.0
O402 O 0.00931 0.02041 0.56513 0.0
O403 O 0.03306 0.0122 0.55331 0.0
O404 O 0.01741 0.05938 0.54725 0.0
O405 O 1e-05 0.04821 0.5215 0.0
O406 O 0.0429 0.04335 0.52951 0.0
O407 O 0.03258 0.05816 0.50168 0.0
C408 C 0.99841 0.05403 0.45862 0.0
O409 O 0.01132 0.04356 0.46277 0.0
O410 O 0.98939 0.05608 0.47387 0.0
C411 C 0.0139 0.00399 0.49691 0.0
Tb412 Tb 0.27503 0.77584 0.77429 0.0
C413 C 0.24763 0.78811 0.80353 0.0
Tb414 Tb 0.23365 0.776 0.75782 0.0
O415 O 0.28026 0.80768 0.7811 0.0
O416 O 0.2602 0.79437 0.75796 0.0
O417 O 0.26355 0.78123 0.80194 0.0
C418 C 0.19994 0.78468 0.74635 0.0
O419 O 0.23504 0.78892 0.78812 0.0
C420 C 0.2421 0.7415 0.76413 0.0
C421 C 0.26115 0.76452 0.7284 0.0
O422 O 0.20286 0.77056 0.75719 0.0
O423 O 0.21598 0.79387 0.74193 0.0
O424 O 0.22894 0.7442 0.7507 0.0
O425 O 0.24848 0.75754 0.77416 0.0
O426 O 0.24539 0.77165 0.73019 0.0
O427 O 0.27359 0.76319 0.74381 0.0
C428 C 0.30802 0.76545 0.78568 0.0
O429 O 0.30582 0.77981 0.77488 0.0
O430 O 0.2917 0.75714 0.79023 0.0
C431 C 0.26686 0.8104 0.76793 0.0
Tb432 Tb 0.48765 0.0235 0.01823 0.0
C433 C 0.51559 0.99389 0.01982 0.0
Tb434 Tb 0.53044 0.04003 0.02106 0.0
O435 O 0.48792 0.00879 0.98904 0.0
O436 O 0.5072 0.03449 0.99873 0.0
O437 O 0.49863 0.99692 0.02369 0.0
C438 C 0.56727 0.04937 0.01689 0.0
O439 O 0.52926 0.00831 0.01634 0.0
C440 C 0.51495 0.04282 0.05388 0.0
C441 C 0.50244 0.06954 0.01833 0.0
O442 O 0.56033 0.04216 0.03218 0.0
O443 O 0.55344 0.0513 0.00388 0.0
O444 O 0.52953 0.0551 0.04995 0.0
O445 O 0.51089 0.02899 0.04049 0.0
O446 O 0.51941 0.0664 0.01457 0.0
O447 O 0.48887 0.05527 0.02234 0.0
C448 C 0.45135 0.01399 0.02444 0.0
O449 O 0.45734 0.02137 0.00877 0.0
O450 O 0.46579 0.012 0.03657 0.0
C451 C 0.50279 0.02076 0.98522 0.0
Tb452 Tb 0.22843 0.26864 0.25951 0.0
C453 C 0.25798 0.2709 0.29687 0.0
Tb454 Tb 0.27002 0.28397 0.25555 0.0
O455 O 0.23341 0.23846 0.26061 0.0
O456 O 0.25005 0.25854 0.24523 0.0
O457 O 0.23999 0.27076 0.2903 0.0
C458 C 0.30691 0.28655 0.2529 0.0
O459 O 0.27192 0.27467 0.28561 0.0
C460 C 0.24989 0.31078 0.26385 0.0
C461 C 0.24041 0.28217 0.21831 0.0
O462 O 0.29534 0.27067 0.25547 0.0
O463 O 0.29773 0.30104 0.25198 0.0
O464 O 0.26462 0.31407 0.25433 0.0
O465 O 0.24846 0.29391 0.26992 0.0
O466 O 0.25844 0.28226 0.22471 0.0
O467 O 0.2266 0.27819 0.22965 0.0
C468 C 0.19166 0.26743 0.26196 0.0
O469 O 0.20049 0.25278 0.26427 0.0
O470 O 0.2035 0.2826 0.25814 0.0
C471 C 0.24835 0.24166 0.25138 0.0
Tb472 Tb 0.50497 0.52622 0.98897 0.0
C473 C 0.47569 0.52024 0.02102 0.0
Tb474 Tb 0.51958 0.52825 0.03295 0.0
O475 O 0.5135 0.4976 0.98406 0.0
O476 O 0.50546 0.50649 0.01113 0.0
O477 O 0.47869 0.52476 0.00285 0.0
C478 C 0.53575 0.51968 0.06731 0.0
O479 O 0.48962 0.51815 0.03456 0.0
C480 C 0.51239 0.56109 0.01994 0.0
C481 C 0.54886 0.53454 0.00078 0.0
O482 O 0.52803 0.53502 0.06462 0.0
O483 O 0.53447 0.50925 0.05067 0.0
O484 O 0.51163 0.5571 0.03817 0.0
O485 O 0.51904 0.54803 0.01087 0.0
O486 O 0.54599 0.5307 0.01917 0.0
O487 O 0.53489 0.53589 0.98701 0.0
C488 C 0.48913 0.53321 0.95383 0.0
O489 O 0.49504 0.51715 0.95797 0.0
O490 O 0.492 0.54533 0.96951 0.0
C491 C 0.51232 0.49352 0.0022 0.0
Tb492 Tb 0.78132 0.27821 0.27259 0.0
C493 C 0.75345 0.28957 0.302 0.0
Tb494 Tb 0.7393 0.2773 0.2566 0.0
O495 O 0.78616 0.31004 0.27969 0.0
O496 O 0.76549 0.29655 0.25725 0.0
O497 O 0.76938 0.2828 0.30016 0.0
C498 C 0.70527 0.28525 0.24532 0.0
O499 O 0.74082 0.29055 0.28671 0.0
C500 C 0.74846 0.24282 0.2615 0.0
C501 C 0.76717 0.2676 0.22663 0.0
O502 O 0.70892 0.27357 0.25872 0.0
O503 O 0.72078 0.29244 0.23827 0.0
O504 O 0.73395 0.24535 0.24975 0.0
O505 O 0.75528 0.2588 0.27151 0.0
O506 O 0.75102 0.2738 0.22883 0.0
O507 O 0.78009 0.26667 0.24174 0.0
C508 C 0.81412 0.26834 0.28563 0.0
O509 O 0.81199 0.28082 0.27253 0.0
O510 O 0.79789 0.26165 0.29148 0.0
C511 C 0.77207 0.31256 0.26727 0.0
Tb512 Tb 0.98581 0.52191 0.51459 0.0
C513 C 0.01422 0.49277 0.51581 0.0
Tb514 Tb 0.0285 0.53904 0.51755 0.0
O515 O 0.98657 0.5075 0.48535 0.0
O516 O 0.00526 0.53354 0.49528 0.0
O517 O 0.99719 0.49547 0.51981 0.0
C518 C 0.0652 0.54902 0.51303 0.0
O519 O 0.02772 0.50744 0.51253 0.0
C520 C 0.01291 0.54109 0.55037 0.0
C521 C 8e-05 0.56812 0.51484 0.0
O522 O 0.05118 0.55031 0.49999 0.0
O523 O 0.05853 0.54207 0.52857 0.0
O524 O 0.02732 0.55369 0.54656 0.0
O525 O 0.00906 0.52738 0.53683 0.0
O526 O 0.01715 0.56523 0.51122 0.0
O527 O 0.98652 0.55367 0.51853 0.0
C528 C 0.94952 0.51179 0.52068 0.0
O529 O 0.95546 0.51734 0.50429 0.0
O530 O 0.96401 0.51198 0.53361 0.0
C531 C 0.00117 0.51992 0.48164 0.0
Tb532 Tb 0.76337 0.78012 0.28972 0.0
C533 C 0.77506 0.81441 0.26361 0.0
Tb534 Tb 0.75705 0.77098 0.24507 0.0
O535 O 0.79406 0.78615 0.28944 0.0
O536 O 0.77674 0.76591 0.26837 0.0
O537 O 0.77001 0.80993 0.28113 0.0
C538 C 0.76083 0.76545 0.20694 0.0
O539 O 0.77298 0.80111 0.2483 0.0
C540 C 0.72707 0.77629 0.26175 0.0
C541 C 0.74581 0.73656 0.27108 0.0
O542 O 0.7484 0.77452 0.21406 0.0
O543 O 0.77102 0.75951 0.22126 0.0
O544 O 0.72633 0.76486 0.24581 0.0
O545 O 0.74379 0.78525 0.26644 0.0
O546 O 0.75069 0.74118 0.25357 0.0
O547 O 0.74779 0.7498 0.28641 0.0
C548 C 0.7583 0.78445 0.32761 0.0
O549 O 0.77087 0.77546 0.32067 0.0
O550 O 0.74886 0.79125 0.31328 0.0
C551 C 0.79344 0.7749 0.27337 0.0
Tb552 Tb 0.76157 0.30044 0.76238 0.0
C553 C 0.79365 0.2749 0.76735 0.0
Tb554 Tb 0.75041 0.25462 0.75756 0.0
O555 O 0.77061 0.30108 0.79409 0.0
O556 O 0.75125 0.27756 0.77964 0.0
O557 O 0.78928 0.29208 0.76298 0.0
C558 C 0.74109 0.2167 0.76351 0.0
O559 O 0.78069 0.25882 0.76782 0.0
C560 C 0.75006 0.27186 0.72446 0.0
C561 C 0.71836 0.28018 0.75253 0.0
O562 O 0.75264 0.22372 0.75124 0.0
O563 O 0.73495 0.23101 0.77239 0.0
O564 O 0.74103 0.25423 0.72593 0.0
O565 O 0.76068 0.27749 0.74031 0.0
O566 O 0.72268 0.26299 0.75703 0.0
O567 O 0.73135 0.29619 0.7519 0.0
C568 C 0.77111 0.33818 0.75585 0.0
O569 O 0.75866 0.33135 0.76731 0.0
O570 O 0.77807 0.32381 0.74819 0.0
C571 C 0.76177 0.28336 0.79552 0.0
Tb572 Tb 0.7396 0.77959 0.77145 0.0
C573 C 0.77346 0.77935 0.80363 0.0
Tb574 Tb 0.78037 0.79303 0.76111 0.0
O575 O 0.74226 0.74847 0.77064 0.0
O576 O 0.75886 0.7681 0.7549 0.0
O577 O 0.75552 0.78165 0.80049 0.0
C578 C 0.81497 0.7931 0.75108 0.0
O579 O 0.78507 0.78119 0.78972 0.0
C580 C 0.7625 0.82093 0.77197 0.0
C581 C 0.74624 0.79322 0.72859 0.0
O582 O 0.81078 0.8052 0.76453 0.0
O583 O 0.79975 0.78134 0.74324 0.0
O584 O 0.77562 0.82337 0.76019 0.0
O585 O 0.76144 0.80421 0.77838 0.0
O586 O 0.7648 0.79429 0.7325 0.0
O587 O 0.73411 0.78829 0.74155 0.0
C588 C 0.70443 0.78089 0.77926 0.0
O589 O 0.71272 0.76578 0.78092 0.0
O590 O 0.71589 0.79514 0.77317 0.0
C591 C 0.7568 0.75108 0.76076 0.0
Tb592 Tb 0.5108 0.55163 0.50787 0.0
C593 C 0.5125 0.51703 0.4769 0.0
Tb594 Tb 0.50177 0.50939 0.52011 0.0
O595 O 0.54004 0.54866 0.50486 0.0
O596 O 0.52504 0.53293 0.52504 0.0
O597 O 0.51008 0.53553 0.47949 0.0
C598 C 0.50235 0.47298 0.5305 0.0
O599 O 0.51131 0.5048 0.49112 0.0
C600 C 0.47243 0.52606 0.51067 0.0
C601 C 0.49969 0.54382 0.55091 0.0
O602 O 0.51582 0.488 0.53521 0.0
O603 O 0.48856 0.47842 0.51979 0.0
O604 O 0.47255 0.51274 0.52317 0.0
O605 O 0.48767 0.52806 0.50291 0.0
O606 O 0.50279 0.52554 0.5485 0.0
O607 O 0.5005 0.55591 0.53656 0.0
C608 C 0.51002 0.58802 0.49758 0.0
O609 O 0.52302 0.583 0.50978 0.0
O610 O 0.49747 0.57258 0.49131 0.0
C611 C 0.54024 0.53516 0.51716 0.0
Tb612 Tb 0.0266 0.52979 0.007 0.0
C613 C 0.0186 0.52129 0.05035 0.0
Tb614 Tb 0.98598 0.52803 0.01764 0.0
O615 O 0.03622 0.55687 0.02611 0.0
O616 O 0.00847 0.55002 0.01205 0.0
O617 O 0.03042 0.52056 0.03677 0.0
C618 C 0.95585 0.537 0.0331 0.0
O619 O 0.00119 0.52495 0.04631 0.0
C620 C 0.9927 0.49594 2e-05 0.0
C621 C 0.99384 0.53648 0.97445 0.0
O622 O 0.95668 0.52017 0.02413 0.0
O623 O 0.97194 0.54868 0.03331 0.0
O624 O 0.97583 0.50013 0.99974 0.0
O625 O 0.004 0.50794 0.01209 0.0
O626 O 0.98257 0.53841 0.98838 0.0
O627 O 0.01085 0.53162 0.97814 0.0
C628 C 0.05761 0.52105 0.99335 0.0
O629 O 0.05372 0.53863 0.99534 0.0
O630 O 0.04409 0.50861 0.99901 0.0
C631 C 0.01961 0.56186 0.02445 0.0
H632 H 0.05913 0.25425 0.9255 0.0
H633 H 0.05414 0.22545 0.94461 0.0
H634 H 0.99794 0.20767 0.91403 0.0
H635 H 0.00277 0.23627 0.89479 0.0
H636 H 0.02468 0.21362 0.96941 0.0
H637 H 0.02359 0.15916 0.90596 0.0
H638 H 0.03281 0.18499 0.90532 0.0
H639 H 0.0077 0.17623 0.90222 0.0
C640 C 0.04571 0.24421 0.92282 0.0
C641 C 0.0314 0.24749 0.90851 0.0
C642 C 0.04288 0.2278 0.93379 0.0
C643 C 0.02577 0.21434 0.93054 0.0
C644 C 0.01135 0.21774 0.91653 0.0
H645 H 0.98601 0.10139 0.97403 0.0
H646 H 0.98823 0.13251 0.95856 0.0
C647 C 0.01414 0.23413 0.90559 0.0
C648 C 0.02302 0.19662 0.94166 0.0
H649 H 0.01598 0.14656 0.936 0.0
C650 C 0.02281 0.19894 0.96216 0.0
C651 C 0.02055 0.17753 0.93211 0.0
C652 C 0.02131 0.17423 0.91022 0.0
C653 C 0.01991 0.18259 0.97335 0.0
C654 C 0.01753 0.16348 0.96379 0.0
C655 C 0.01771 0.16122 0.94328 0.0
C656 C 0.0153 0.14557 0.97472 0.0
C657 C 0.01907 0.18591 0.99521 0.0
C658 C 0.02968 0.14267 0.98909 0.0
C659 C 0.02838 0.12496 0.998 0.0
C660 C 0.01279 0.10979 0.9925 0.0
C661 C 0.99819 0.11286 0.9785 0.0
C662 C 0.99945 0.1306 0.96965 0.0
H663 H 0.01564 0.20058 0.99918 0.0
H664 H 0.00834 0.17447 0.00036 0.0
H665 H 0.03308 0.18522 0.0032 0.0
H666 H 0.04222 0.15383 0.99292 0.0
H667 H 0.03988 0.12289 0.00867 0.0
H668 H 0.0417 0.77343 0.20565 0.0
H669 H 0.07365 0.77628 0.22287 0.0
H670 H 0.09717 0.78355 0.1678 0.0
H671 H 0.06541 0.78039 0.15047 0.0
H672 H 0.11135 0.75608 0.18872 0.0
H673 H 0.11518 0.82462 0.23662 0.0
H674 H 0.09509 0.80592 0.23876 0.0
H675 H 0.09722 0.81709 0.21591 0.0
C676 C 0.05369 0.77579 0.19723 0.0
C677 C 0.05099 0.77666 0.17667 0.0
C678 C 0.07195 0.77754 0.20712 0.0
C679 C 0.08783 0.78038 0.19666 0.0
C680 C 0.08514 0.78143 0.17618 0.0
H681 H 0.20765 0.81159 0.2375 0.0
H682 H 0.17469 0.81146 0.22474 0.0
C683 C 0.06695 0.77962 0.1663 0.0
C684 C 0.10721 0.78123 0.20673 0.0
H685 H 0.14049 0.80709 0.24228 0.0
C686 C 0.11772 0.76723 0.20043 0.0
C687 C 0.11556 0.79592 0.22186 0.0
C688 C 0.10528 0.81187 0.22861 0.0
C689 C 0.1363 0.76746 0.20888 0.0
C690 C 0.14451 0.78185 0.22435 0.0
C691 C 0.13408 0.79595 0.23058 0.0
C692 C 0.16409 0.78268 0.2338 0.0
C693 C 0.14715 0.75256 0.20083 0.0
C694 C 0.16895 0.76681 0.24367 0.0
C695 C 0.18776 0.76679 0.25092 0.0
C696 C 0.20208 0.78275 0.24861 0.0
C697 C 0.19701 0.79906 0.23956 0.0
C698 C 0.17817 0.79902 0.23223 0.0
H699 H 0.14065 0.74587 0.186 0.0
H700 H 0.16208 0.75937 0.19982 0.0
H701 H 0.14717 0.74061 0.21087 0.0
H702 H 0.15824 0.75422 0.24538 0.0
H703 H 0.1911 0.75406 0.25796 0.0
H704 H 0.52514 0.8328 0.41895 0.0
H705 H 0.52075 0.86081 0.44042 0.0
H706 H 0.52641 0.89792 0.39235 0.0
H707 H 0.53093 0.87002 0.37073 0.0
H708 H 0.54629 0.91519 0.43027 0.0
H709 H 0.47071 0.88316 0.43364 0.0
H710 H 0.48734 0.86741 0.44011 0.0
H711 H 0.48434 0.87449 0.41535 0.0
C712 C 0.52562 0.84695 0.41295 0.0
C713 C 0.5282 0.84913 0.39305 0.0
C714 C 0.52305 0.86291 0.42524 0.0
C715 C 0.52299 0.88133 0.41788 0.0
C716 C 0.52634 0.88378 0.39828 0.0
H717 H 0.47413 0.97725 0.46513 0.0
H718 H 0.48282 0.95049 0.4449 0.0
C719 C 0.52888 0.86781 0.38594 0.0
C720 C 0.51858 0.8978 0.43035 0.0
H721 H 0.48313 0.91244 0.45365 0.0
C722 C 0.53251 0.91464 0.43542 0.0
C723 C 0.5005 0.89707 0.4368 0.0
C724 C 0.48477 0.87965 0.4311 0.0
C725 C 0.52888 0.93075 0.447 0.0
C726 C 0.51088 0.92984 0.45376 0.0
C727 C 0.49694 0.91305 0.44853 0.0
C728 C 0.50601 0.94628 0.46595 0.0
C729 C 0.54419 0.94872 0.45156 0.0
C730 C 0.51597 0.95257 0.4846 0.0
C731 C 0.51099 0.96781 0.49615 0.0
C732 C 0.49598 0.97697 0.48923 0.0
C733 C 0.48579 0.97044 0.47075 0.0
C734 C 0.49078 0.95522 0.45919 0.0
H735 H 0.55516 0.94909 0.44126 0.0
H736 H 0.53816 0.96239 0.45081 0.0
H737 H 0.55124 0.94856 0.46672 0.0
H738 H 0.52742 0.94553 0.49034 0.0
H739 H 0.51871 0.97227 0.51059 0.0
H740 H 0.43501 0.22496 0.69769 0.0
H741 H 0.4064 0.22802 0.71311 0.0
H742 H 0.4102 0.28739 0.69647 0.0
H743 H 0.43876 0.28449 0.68095 0.0
H744 H 0.40227 0.25578 0.74392 0.0
H745 H 0.35518 0.26104 0.67574 0.0
H746 H 0.37722 0.25211 0.67538 0.0
H747 H 0.37727 0.27802 0.67872 0.0
C748 C 0.42976 0.23867 0.69726 0.0
C749 C 0.43918 0.25446 0.68803 0.0
C750 C 0.4134 0.24038 0.70609 0.0
C751 C 0.40603 0.25782 0.70569 0.0
C752 C 0.41546 0.27367 0.69663 0.0
H753 H 0.32622 0.29733 0.77896 0.0
H754 H 0.35402 0.29306 0.76249 0.0
C755 C 0.43186 0.27201 0.68788 0.0
C756 C 0.38878 0.25965 0.71525 0.0
H757 H 0.34334 0.26745 0.70618 0.0
C758 C 0.38936 0.25828 0.73568 0.0
C759 C 0.3719 0.26267 0.70441 0.0
C760 C 0.3702 0.26338 0.68232 0.0
C761 C 0.37363 0.26025 0.74563 0.0
C762 C 0.35694 0.26391 0.73489 0.0
C763 C 0.35621 0.26485 0.7144 0.0
C764 C 0.34005 0.26667 0.74469 0.0
C765 C 0.37491 0.25816 0.76751 0.0
C766 C 0.32289 0.25347 0.73989 0.0
C767 C 0.30702 0.25588 0.7493 0.0
C768 C 0.30799 0.27168 0.76347 0.0
C769 C 0.32512 0.28497 0.76815 0.0
C770 C 0.341 0.28252 0.75879 0.0
H771 H 0.38672 0.25065 0.77259 0.0
H772 H 0.37746 0.27297 0.7755 0.0
H773 H 0.3615 0.24978 0.77157 0.0
H774 H 0.32185 0.24112 0.72906 0.0
H775 H 0.2941 0.2452 0.74571 0.0
H776 H 0.02682 0.86664 0.60667 0.0
H777 H 0.02879 0.89429 0.586 0.0
H778 H 0.98432 0.86117 0.54401 0.0
H779 H 0.98221 0.83337 0.56453 0.0
H780 H 0.0347 0.89268 0.54273 0.0
H781 H 0.96747 0.91516 0.56056 0.0
H782 H 0.98015 0.90068 0.57636 0.0
H783 H 0.96684 0.88954 0.55369 0.0
C784 C 0.01743 0.86522 0.59306 0.0
C785 C 0.00431 0.84786 0.58726 0.0
C786 C 0.01863 0.881 0.58127 0.0
C787 C 0.00663 0.8797 0.56363 0.0
C788 C 0.99359 0.8624 0.5577 0.0
H789 H 0.98831 0.97056 0.48569 0.0
H790 H 0.98729 0.9387 0.49953 0.0
C791 C 0.99244 0.84657 0.56941 0.0
C792 C 0.0077 0.89656 0.55149 0.0
H793 H 0.98437 0.93327 0.53811 0.0
C794 C 0.0237 0.90155 0.54161 0.0
C795 C 0.99323 0.90791 0.55007 0.0
C796 C 0.97595 0.90323 0.56079 0.0
C797 C 0.02565 0.91778 0.53026 0.0
C798 C 0.01139 0.92947 0.52924 0.0
C799 C 0.99524 0.92423 0.53889 0.0
C800 C 0.01328 0.94779 0.51913 0.0
C801 C 0.04285 0.92214 0.51939 0.0
C802 C 0.02838 0.96328 0.52535 0.0
C803 C 0.02907 0.98134 0.51731 0.0
C804 C 0.01449 0.98428 0.50327 0.0
C805 C 0.99974 0.9686 0.4965 0.0
C806 C 0.9991 0.95048 0.50445 0.0
H807 H 0.04902 0.90876 0.51652 0.0
H808 H 0.03937 0.92823 0.50511 0.0
H809 H 0.05382 0.93314 0.52853 0.0
H810 H 0.03929 0.96164 0.53691 0.0
H811 H 0.04077 0.99316 0.52239 0.0
H812 H 0.46724 0.78269 0.87871 0.0
H813 H 0.43584 0.77975 0.86063 0.0
H814 H 0.43715 0.71977 0.84084 0.0
H815 H 0.46883 0.72262 0.85875 0.0
H816 H 0.42396 0.74215 0.81094 0.0
H817 H 0.38722 0.74872 0.87764 0.0
H818 H 0.40691 0.7683 0.87704 0.0
H819 H 0.41095 0.74353 0.8786 0.0
C820 C 0.4609 0.76885 0.87053 0.0
C821 C 0.47047 0.75283 0.87027 0.0
C822 C 0.44291 0.76718 0.86029 0.0
C823 C 0.43408 0.74944 0.84974 0.0
C824 C 0.44373 0.73354 0.84904 0.0
H825 H 0.31377 0.73529 0.80771 0.0
H826 H 0.34419 0.72788 0.82151 0.0
C827 C 0.46179 0.7352 0.85927 0.0
C828 C 0.4148 0.7477 0.83942 0.0
H829 H 0.3701 0.75353 0.84703 0.0
C830 C 0.4121 0.74438 0.81881 0.0
C831 C 0.39932 0.75025 0.84978 0.0
C832 C 0.40116 0.7527 0.872 0.0
C833 C 0.39444 0.74455 0.80818 0.0
C834 C 0.37931 0.74842 0.81849 0.0
C835 C 0.3818 0.75075 0.83915 0.0
C836 C 0.36108 0.75132 0.80822 0.0
C837 C 0.39219 0.74077 0.78604 0.0
C838 C 0.36055 0.76685 0.7961 0.0
C839 C 0.34323 0.77112 0.78825 0.0
C840 C 0.32621 0.76 0.79257 0.0
C841 C 0.32673 0.74412 0.80425 0.0
C842 C 0.34406 0.73985 0.81208 0.0
H843 H 0.40282 0.73226 0.7811 0.0
H844 H 0.3778 0.73264 0.78046 0.0
H845 H 0.39433 0.75502 0.77932 0.0
H846 H 0.37352 0.77614 0.7933 0.0
H847 H 0.34316 0.78345 0.7793 0.0
H848 H 0.47968 0.2262 0.09987 0.0
H849 H 0.48186 0.19465 0.08325 0.0
H850 H 0.48646 0.22145 0.02836 0.0
H851 H 0.48415 0.25324 0.04486 0.0
H852 H 0.462 0.18282 0.02589 0.0
H853 H 0.53337 0.18512 0.0657 0.0
H854 H 0.51575 0.18895 0.08154 0.0
H855 H 0.52238 0.20658 0.06418 0.0
C856 C 0.48097 0.22541 0.08422 0.0
C857 C 0.48196 0.24228 0.07372 0.0
C858 C 0.48226 0.20738 0.07477 0.0
C859 C 0.48467 0.20588 0.05471 0.0
C860 C 0.48473 0.22241 0.04391 0.0
H861 H 0.5254 0.1026 0.00906 0.0
H862 H 0.52066 0.13656 0.01384 0.0
C863 C 0.48341 0.24053 0.05336 0.0
C864 C 0.48798 0.18719 0.04541 0.0
H865 H 0.51796 0.15431 0.04939 0.0
C866 C 0.47432 0.17663 0.03081 0.0
C867 C 0.50427 0.17942 0.05161 0.0
C868 C 0.51989 0.19067 0.06648 0.0
C869 C 0.47608 0.15793 0.02293 0.0
C870 C 0.49177 0.14962 0.03011 0.0
C871 C 0.50587 0.16065 0.044 0.0
C872 C 0.49336 0.12906 0.02455 0.0
C873 C 0.46109 0.14719 0.00715 0.0
C874 C 0.47951 0.1136 0.02883 0.0
C875 C 0.48214 0.09419 0.02609 0.0
C876 C 0.49881 0.08989 0.01924 0.0
C877 C 0.51243 0.10539 0.01442 0.0
C878 C 0.50973 0.1248 0.01709 0.0
H879 H 0.45382 0.1576 0.99891 0.0
H880 H 0.46722 0.138 0.99655 0.0
H881 H 0.45027 0.13745 0.01415 0.0
H882 H 0.467 0.11657 0.03508 0.0
H883 H 0.4714 0.08263 0.03006 0.0
H884 H 0.07596 0.26679 0.37962 0.0
H885 H 0.09846 0.26688 0.35527 0.0
H886 H 0.06009 0.28868 0.31323 0.0
H887 H 0.0374 0.28871 0.33753 0.0
H888 H 0.0769 0.25465 0.29928 0.0
H889 H 0.12923 0.31806 0.33585 0.0
H890 H 0.12115 0.29961 0.35189 0.0
H891 H 0.10475 0.31351 0.34059 0.0
C892 C 0.07229 0.27164 0.36522 0.0
C893 C 0.05494 0.27783 0.36052 0.0
C894 C 0.08517 0.27173 0.35136 0.0
C895 C 0.08093 0.27795 0.33259 0.0
C896 C 0.06358 0.28391 0.32771 0.0
H897 H 0.17279 0.29791 0.25899 0.0
H898 H 0.14295 0.30092 0.27199 0.0
C899 C 0.05069 0.28396 0.34162 0.0
C900 C 0.09474 0.27806 0.31814 0.0
H901 H 0.13981 0.29815 0.31121 0.0
C902 C 0.09057 0.26432 0.30166 0.0
C903 C 0.11238 0.29091 0.32121 0.0
C904 C 0.11716 0.3065 0.33824 0.0
C905 C 0.10411 0.2624 0.28868 0.0
C906 C 0.1222 0.27442 0.29248 0.0
C907 C 0.12594 0.28886 0.30838 0.0
C908 C 0.13804 0.27138 0.28127 0.0
C909 C 0.09904 0.24735 0.27121 0.0
C910 C 0.14486 0.25362 0.28177 0.0
C911 C 0.16185 0.25188 0.27433 0.0
C912 C 0.17229 0.26794 0.26648 0.0
C913 C 0.16497 0.28535 0.26503 0.0
C914 C 0.14797 0.28707 0.27242 0.0
H915 H 0.0835 0.24396 0.26686 0.0
H916 H 0.10614 0.25249 0.25835 0.0
H917 H 0.10371 0.23353 0.27519 0.0
H918 H 0.13763 0.24148 0.28892 0.0
H919 H 0.16729 0.23835 0.27569 0.0
H920 H 0.89189 0.04333 0.18559 0.0
H921 H 0.9114 0.04286 0.15848 0.0
H922 H 0.94375 0.09944 0.1811 0.0
H923 H 0.92447 0.09995 0.20847 0.0
H924 H 0.91794 0.06899 0.12946 0.0
H925 H 0.98431 0.065 0.17679 0.0
H926 H 0.96137 0.06067 0.18565 0.0
H927 H 0.97307 0.08532 0.18327 0.0
C928 C 0.90311 0.05572 0.18479 0.0
C929 C 0.90671 0.07162 0.19928 0.0
C930 C 0.91423 0.05543 0.16928 0.0
C931 C 0.92918 0.07097 0.16796 0.0
C932 C 0.9325 0.08713 0.18207 0.0
H933 H 0.98779 0.0805 0.06192 0.0
H934 H 0.97166 0.08868 0.09022 0.0
C935 C 0.9214 0.08743 0.19763 0.0
C936 C 0.94135 0.07004 0.15189 0.0
H937 H 0.98637 0.06678 0.14273 0.0
C938 C 0.93293 0.06863 0.13232 0.0
C939 C 0.96085 0.06938 0.15574 0.0
C940 C 0.97047 0.07 0.17648 0.0
C941 C 0.94344 0.06635 0.11645 0.0
C942 C 0.96297 0.0658 0.1203 0.0
C943 C 0.97144 0.06742 0.13987 0.0
C944 C 0.97448 0.06206 0.10424 0.0
C945 C 0.9334 0.0638 0.09574 0.0
C946 C 0.98215 0.04482 0.10323 0.0
C947 C 0.99151 0.04016 0.08719 0.0
C948 C 0.99343 0.05271 0.07186 0.0
C949 C 0.98653 0.07047 0.07342 0.0
C950 C 0.97718 0.07512 0.0895 0.0
H951 H 0.91777 0.06037 0.09555 0.0
H952 H 0.93699 0.07762 0.0885 0.0
H953 H 0.93797 0.05187 0.08687 0.0
H954 H 0.98029 0.0346 0.11452 0.0
H955 H 0.9967 0.0264 0.08654 0.0
H956 H 0.25226 0.70238 0.45777 0.0
H957 H 0.25131 0.71966 0.42782 0.0
H958 H 0.30562 0.70597 0.41709 0.0
H959 H 0.30694 0.68907 0.44751 0.0
H960 H 0.30341 0.74319 0.40947 0.0
H961 H 0.23923 0.69383 0.37269 0.0
H962 H 0.23529 0.70474 0.396 0.0
H963 H 0.252 0.68826 0.39508 0.0
C964 C 0.26405 0.70305 0.44908 0.0
C965 C 0.27961 0.69418 0.45496 0.0
C966 C 0.26341 0.71283 0.43185 0.0
C967 C 0.27815 0.71369 0.41987 0.0
C968 C 0.29399 0.70535 0.42598 0.0
H969 H 0.26554 0.74586 0.29853 0.0
H970 H 0.26916 0.72846 0.32829 0.0
C971 C 0.29473 0.6957 0.44338 0.0
C972 C 0.27698 0.72337 0.40107 0.0
H973 H 0.24854 0.72382 0.35805 0.0
C974 C 0.29148 0.73887 0.39816 0.0
C975 C 0.2616 0.71751 0.38609 0.0
C976 C 0.24626 0.70004 0.3875 0.0
C977 C 0.29076 0.74899 0.381 0.0
C978 C 0.27484 0.74384 0.36654 0.0
C979 C 0.26061 0.728 0.36922 0.0
C980 C 0.27268 0.75452 0.34844 0.0
C981 C 0.30726 0.76486 0.3784 0.0
C982 C 0.27321 0.77493 0.34974 0.0
C983 C 0.27104 0.78481 0.33265 0.0
C984 C 0.26777 0.77442 0.31399 0.0
C985 C 0.26714 0.75405 0.31269 0.0
C986 C 0.26952 0.74417 0.32973 0.0
H987 H 0.32042 0.76276 0.38729 0.0
H988 H 0.30988 0.76518 0.36271 0.0
H989 H 0.30412 0.77933 0.38348 0.0
H990 H 0.27517 0.78322 0.36396 0.0
H991 H 0.27169 0.80057 0.33404 0.0
H992 H 0.55337 0.00716 0.74112 0.0
H993 H 0.53913 0.00925 0.70748 0.0
H994 H 0.58338 0.98323 0.6845 0.0
H995 H 0.59752 0.98075 0.71802 0.0
H996 H 0.55526 0.03003 0.67902 0.0
H997 H 0.53649 0.95115 0.6528 0.0
H998 H 0.54258 0.95946 0.67855 0.0
H999 H 0.56086 0.95843 0.66271 0.0
C1000 C 0.55995 0.00164 0.72892 0.0
C1001 C 0.57657 0.99374 0.73228 0.0
C1002 C 0.55179 0.00287 0.70969 0.0
C1003 C 0.56003 0.99615 0.69346 0.0
C1004 C 0.57651 0.98808 0.69678 0.0
H1005 H 0.54698 0.00326 0.56768 0.0
H1006 H 0.55662 0.99799 0.60192 0.0
C1007 C 0.58465 0.98678 0.71598 0.0
C1008 C 0.55209 0.99869 0.67308 0.0
H1009 H 0.53593 0.97402 0.62812 0.0
C1010 C 0.55084 0.01776 0.66795 0.0
C1011 C 0.54635 0.98267 0.65863 0.0
C1012 C 0.54645 0.96176 0.66347 0.0
C1013 C 0.54454 0.02131 0.64862 0.0
C1014 C 0.53914 0.00533 0.63411 0.0
C1015 C 0.54014 0.98624 0.63928 0.0
C1016 C 0.53289 0.00822 0.61335 0.0
C1017 C 0.54428 0.04219 0.64372 0.0
C1018 C 0.51619 0.0155 0.60839 0.0
C1019 C 0.51059 0.01852 0.5888 0.0
C1020 C 0.5216 0.0143 0.57379 0.0
C1021 C 0.53819 0.00676 0.57883 0.0
C1022 C 0.54372 0.00368 0.5984 0.0
H1023 H 0.55258 0.05303 0.6554 0.0
H1024 H 0.55004 0.04492 0.62951 0.0
H1025 H 0.52945 0.04471 0.6422 0.0
H1026 H 0.50748 0.01882 0.61968 0.0
H1027 H 0.49772 0.02431 0.58547 0.0
H1028 H 0.27305 0.35096 0.01081 0.0
H1029 H 0.27219 0.32677 0.98285 0.0
H1030 H 0.23788 0.35877 0.94643 0.0
H1031 H 0.23857 0.3829 0.97412 0.0
H1032 H 0.22576 0.31541 0.94428 0.0
H1033 H 0.30151 0.34088 0.93404 0.0
H1034 H 0.2958 0.33487 0.95819 0.0
H1035 H 0.28852 0.35591 0.94791 0.0
C1036 C 0.26527 0.3528 0.99686 0.0
C1037 C 0.256 0.36892 0.99461 0.0
C1038 C 0.26481 0.33898 0.98095 0.0
C1039 C 0.25506 0.34112 0.96265 0.0
C1040 C 0.24545 0.35691 0.9605 0.0
H1041 H 0.23219 0.30643 0.84241 0.0
H1042 H 0.23121 0.31548 0.8773 0.0
C1043 C 0.24595 0.37073 0.97631 0.0
C1044 C 0.2554 0.32756 0.94529 0.0
H1045 H 0.2832 0.31832 0.90974 0.0
C1046 C 0.23837 0.31573 0.93685 0.0
C1047 C 0.27194 0.32796 0.93583 0.0
C1048 C 0.29052 0.34061 0.94431 0.0
C1049 C 0.23724 0.30491 0.91863 0.0
C1050 C 0.25348 0.30639 0.9085 0.0
C1051 C 0.27077 0.31727 0.91754 0.0
C1052 C 0.25246 0.29877 0.88769 0.0
C1053 C 0.2186 0.29237 0.91024 0.0
C1054 C 0.26489 0.28655 0.88194 0.0
C1055 C 0.26564 0.28158 0.86198 0.0
C1056 C 0.25405 0.28887 0.84754 0.0
C1057 C 0.24124 0.3006 0.8533 0.0
C1058 C 0.24053 0.3056 0.87323 0.0
H1059 H 0.2101 0.28717 0.92215 0.0
H1060 H 0.2103 0.30126 0.90107 0.0
H1061 H 0.22069 0.27942 0.90088 0.0
H1062 H 0.27433 0.28129 0.89289 0.0
H1063 H 0.27564 0.2725 0.85784 0.0
H1064 H 0.89907 0.07573 0.30165 0.0
H1065 H 0.91949 0.08001 0.33288 0.0
H1066 H 0.95894 0.04942 0.30622 0.0
H1067 H 0.93842 0.04474 0.27494 0.0
H1068 H 0.94847 0.03443 0.34003 0.0
H1069 H 0.96965 0.11525 0.35276 0.0
H1070 H 0.94451 0.10742 0.34757 0.0
H1071 H 0.95957 0.10313 0.32897 0.0
C1072 C 0.91222 0.07014 0.30233 0.0
C1073 C 0.91708 0.05979 0.28583 0.0
C1074 C 0.92396 0.07277 0.32017 0.0
C1075 C 0.94087 0.0653 0.3218 0.0
C1076 C 0.94601 0.05542 0.30522 0.0
H1077 H 0.01545 0.04867 0.4256 0.0
H1078 H 0.0036 0.05359 0.39178 0.0
C1079 C 0.93425 0.05273 0.28737 0.0
C1080 C 0.9521 0.06597 0.34127 0.0
H1081 H 0.97413 0.0968 0.3809 0.0
C1082 C 0.95434 0.04808 0.34884 0.0
C1083 C 0.95962 0.08381 0.35277 0.0
C1084 C 0.95839 0.1035 0.34503 0.0
C1085 C 0.96331 0.04746 0.36787 0.0
C1086 C 0.9705 0.06526 0.37953 0.0
C1087 C 0.96859 0.0832 0.37188 0.0
C1088 C 0.97931 0.06527 0.39999 0.0
C1089 C 0.96442 0.02773 0.37564 0.0
C1090 C 0.97002 0.07108 0.4158 0.0
C1091 C 0.9768 0.06837 0.43512 0.0
C1092 C 0.99296 0.05983 0.43883 0.0
C1093 C 0.00288 0.05516 0.4231 0.0
C1094 C 0.99612 0.05791 0.4038 0.0
H1095 H 0.95487 0.01554 0.36638 0.0
H1096 H 0.97912 0.02497 0.37579 0.0
H1097 H 0.96067 0.02747 0.39098 0.0
H1098 H 0.95705 0.07684 0.4131 0.0
H1099 H 0.96896 0.07215 0.44704 0.0
H1100 H 0.30733 0.68699 0.56594 0.0
H1101 H 0.3057 0.70105 0.5994 0.0
H1102 H 0.25058 0.71404 0.58095 0.0
H1103 H 0.25192 0.69977 0.54774 0.0
H1104 H 0.30134 0.73814 0.6139 0.0
H1105 H 0.24049 0.68226 0.62782 0.0
H1106 H 0.25384 0.67937 0.60727 0.0
H1107 H 0.23583 0.69441 0.60593 0.0
C1108 C 0.2949 0.6929 0.569 0.0
C1109 C 0.27968 0.69207 0.55418 0.0
C1110 C 0.29398 0.70092 0.58813 0.0
C1111 C 0.27784 0.7082 0.5928 0.0
C1112 C 0.26296 0.70804 0.57785 0.0
H1113 H 0.23916 0.76414 0.69321 0.0
H1114 H 0.24438 0.75068 0.66077 0.0
C1115 C 0.26382 0.69997 0.5588 0.0
C1116 C 0.27639 0.71595 0.61326 0.0
H1117 H 0.24846 0.71062 0.65068 0.0
C1118 C 0.28989 0.73202 0.62202 0.0
C1119 C 0.26149 0.70789 0.62391 0.0
C1120 C 0.2472 0.68991 0.61585 0.0
C1121 C 0.28848 0.74065 0.64086 0.0
C1122 C 0.27329 0.73289 0.65123 0.0
C1123 C 0.26001 0.71663 0.64262 0.0
C1124 C 0.27067 0.74161 0.67092 0.0
C1125 C 0.30292 0.75835 0.6493 0.0
C1126 C 0.28368 0.74087 0.68744 0.0
C1127 C 0.28073 0.74852 0.70607 0.0
C1128 C 0.26468 0.75706 0.70854 0.0
C1129 C 0.25171 0.75778 0.6919 0.0
C1130 C 0.25465 0.75007 0.67332 0.0
H1131 H 0.31151 0.76483 0.63797 0.0
H1132 H 0.29589 0.7698 0.65591 0.0
H1133 H 0.31264 0.75393 0.66114 0.0
H1134 H 0.29597 0.73409 0.68599 0.0
H1135 H 0.29093 0.74751 0.71855 0.0
H1136 H 0.58981 0.97516 0.83689 0.0
H1137 H 0.57341 0.9766 0.86651 0.0
H1138 H 0.56643 0.03589 0.85687 0.0
H1139 H 0.58287 0.0347 0.82742 0.0
H1140 H 0.58467 0.00873 0.90099 0.0
H1141 H 0.51182 0.00225 0.86258 0.0
H1142 H 0.53054 0.99337 0.8511 0.0
H1143 H 0.53024 0.01921 0.85367 0.0
C1144 C 0.58471 0.98847 0.84102 0.0
C1145 C 0.58762 0.00481 0.82978 0.0
C1146 C 0.57541 0.98928 0.85796 0.0
C1147 C 0.56866 0.00631 0.86375 0.0
C1148 C 0.57144 0.02257 0.85253 0.0
H1149 H 0.52991 0.04759 0.97185 0.0
H1150 H 0.54668 0.04333 0.9429 0.0
C1151 C 0.58087 0.02186 0.83573 0.0
C1152 C 0.55891 0.00732 0.88169 0.0
H1153 H 0.5158 0.00952 0.89716 0.0
C1154 C 0.56961 0.00881 0.90021 0.0
C1155 C 0.53927 0.00733 0.88053 0.0
C1156 C 0.52717 0.00533 0.86094 0.0
C1157 C 0.56117 0.01072 0.91768 0.0
C1158 C 0.54158 0.01119 0.91651 0.0
C1159 C 0.53084 0.00927 0.89798 0.0
C1160 C 0.53194 0.01363 0.93436 0.0
C1161 C 0.5732 0.01211 0.93726 0.0
C1162 C 0.51796 0.99845 0.93898 0.0
C1163 C 0.50854 0.0008 0.95558 0.0
C1164 C 0.51285 0.01842 0.96776 0.0
C1165 C 0.52668 0.0337 0.96299 0.0
C1166 C 0.5362 0.0313 0.94644 0.0
H1167 H 0.58699 0.00744 0.93573 0.0
H1168 H 0.57607 0.02756 0.94372 0.0
H1169 H 0.56568 0.0029 0.94773 0.0
H1170 H 0.51441 0.98475 0.92977 0.0
H1171 H 0.4979 0.9888 0.95891 0.0
H1172 H 0.20438 0.35535 0.05033 0.0
H1173 H 0.20062 0.33315 0.07668 0.0
H1174 H 0.24099 0.37471 0.11608 0.0
H1175 H 0.24479 0.397 0.08997 0.0
H1176 H 0.23025 0.31708 0.09631 0.0
H1177 H 0.1962 0.36023 0.14841 0.0
H1178 H 0.19653 0.36496 0.12277 0.0
H1179 H 0.21691 0.37423 0.14031 0.0
C1180 C 0.21225 0.3599 0.06469 0.0
C1181 C 0.22488 0.37794 0.06809 0.0
C1182 C 0.2101 0.34718 0.07968 0.0
C1183 C 0.22037 0.35243 0.09832 0.0
C1184 C 0.23269 0.37057 0.10186 0.0
H1185 H 0.26459 0.29339 0.19116 0.0
H1186 H 0.25699 0.307 0.15995 0.0
C1187 C 0.23491 0.38324 0.0869 0.0
C1188 C 0.21929 0.33852 0.11381 0.0
H1189 H 0.21137 0.33497 0.16179 0.0
C1190 C 0.22582 0.32079 0.11054 0.0
C1191 C 0.21325 0.34329 0.1322 0.0
C1192 C 0.20514 0.36163 0.13611 0.0
C1193 C 0.2275 0.30821 0.12565 0.0
C1194 C 0.22274 0.31371 0.14447 0.0
C1195 C 0.21517 0.33087 0.14737 0.0
C1196 C 0.22683 0.30281 0.16182 0.0
C1197 C 0.23465 0.28936 0.12141 0.0
C1198 C 0.21238 0.29589 0.17319 0.0
C1199 C 0.21668 0.28823 0.19114 0.0
C1200 C 0.23556 0.2875 0.19809 0.0
C1201 C 0.2499 0.29367 0.18623 0.0
C1202 C 0.24557 0.30134 0.1683 0.0
H1203 H 0.2318 0.28429 0.10549 0.0
H1204 H 0.2502 0.2919 0.12553 0.0
H1205 H 0.22803 0.27753 0.13004 0.0
H1206 H 0.19784 0.29701 0.16846 0.0
H1207 H 0.20528 0.28359 0.19987 0.0
H1208 H 0.16967 0.92937 0.00739 0.0
H1209 H 0.14301 0.94707 0.00535 0.0
H1210 H 0.16056 0.97275 0.06477 0.0
H1211 H 0.18723 0.95519 0.06698 0.0
H1212 H 0.11284 0.94632 0.03073 0.0
H1213 H 0.1572 0.02033 0.03115 0.0
H1214 H 0.16599 0.99796 0.02571 0.0
H1215 H 0.16385 0.00588 0.05074 0.0
C1216 C 0.16788 0.93879 0.02003 0.0
C1217 C 0.18068 0.94092 0.03732 0.0
C1218 C 0.1526 0.94885 0.01885 0.0
C1219 C 0.14991 0.96137 0.03484 0.0
C1220 C 0.1625 0.96335 0.05217 0.0
H1221 H 0.05081 0.01564 0.05153 0.0
H1222 H 0.0759 0.99578 0.05494 0.0
C1223 C 0.17772 0.95324 0.05341 0.0
C1224 C 0.13406 0.97255 0.03332 0.0
H1225 H 0.12447 0.01908 0.0327 0.0
C1226 C 0.11535 0.96223 0.03118 0.0
C1227 C 0.13738 0.99329 0.03374 0.0
C1228 C 0.15717 0.00508 0.0353 0.0
C1229 C 0.09986 0.97214 0.02961 0.0
C1230 C 0.10321 0.9929 0.03032 0.0
C1231 C 0.12193 0.00318 0.03232 0.0
C1232 C 0.08754 0.00428 0.02818 0.0
C1233 C 0.08004 0.96032 0.02678 0.0
C1234 C 0.08589 0.01585 0.0122 0.0
C1235 C 0.07157 0.02706 0.01022 0.0
C1236 C 0.05861 0.02699 0.0242 0.0
C1237 C 0.0603 0.01554 0.04029 0.0
C1238 C 0.07466 0.00426 0.04226 0.0
H1239 H 0.07988 0.94459 0.02241 0.0
H1240 H 0.07367 0.96124 0.04082 0.0
H1241 H 0.07101 0.96628 0.01537 0.0
H1242 H 0.09568 0.01615 0.00119 0.0
H1243 H 0.07059 0.03572 0.99763 0.0
H1244 H 0.72284 0.59657 0.9675 0.0
H1245 H 0.69177 0.5753 0.96516 0.0
H1246 H 0.66751 0.62458 0.98537 0.0
H1247 H 0.69825 0.64598 0.98708 0.0
H1248 H 0.67138 0.56598 0.99404 0.0
H1249 H 0.62906 0.6015 0.94013 0.0
H1250 H 0.65457 0.6074 0.94387 0.0
H1251 H 0.64064 0.61905 0.95982 0.0
C1252 C 0.71079 0.60292 0.97111 0.0
C1253 C 0.71295 0.62295 0.97741 0.0
C1254 C 0.69308 0.59075 0.96978 0.0
C1255 C 0.67726 0.59841 0.97477 0.0
C1256 C 0.67938 0.61846 0.98086 0.0
H1257 H 0.58092 0.54676 0.02632 0.0
H1258 H 0.61262 0.55911 0.01805 0.0
C1259 C 0.69701 0.63066 0.98197 0.0
C1260 C 0.65887 0.58526 0.97524 0.0
H1261 H 0.61149 0.58169 0.96233 0.0
C1262 C 0.65829 0.56919 0.9868 0.0
C1263 C 0.64184 0.58915 0.96546 0.0
C1264 C 0.64159 0.60509 0.95145 0.0
C1265 C 0.64105 0.5576 0.98979 0.0
C1266 C 0.62394 0.56264 0.98148 0.0
C1267 C 0.62459 0.57799 0.96897 0.0
C1268 C 0.60524 0.55314 0.98649 0.0
C1269 C 0.6414 0.54021 0.00193 0.0
C1270 C 0.59044 0.54593 0.97152 0.0
C1271 C 0.57219 0.53929 0.9762 0.0
C1272 C 0.56845 0.53962 0.99596 0.0
C1273 C 0.58341 0.54614 0.01097 0.0
C1274 C 0.60159 0.55307 0.00626 0.0
H1275 H 0.65455 0.53412 0.00079 0.0
H1276 H 0.64116 0.54501 0.01766 0.0
H1277 H 0.62903 0.52835 0.99725 0.0
H1278 H 0.59292 0.54592 0.95617 0.0
H1279 H 0.56095 0.53424 0.96433 0.0
H1280 H 0.64662 0.42024 0.27954 0.0
H1281 H 0.66739 0.39607 0.2768 0.0
H1282 H 0.71624 0.44168 0.29298 0.0
H1283 H 0.69559 0.46604 0.29566 0.0
H1284 H 0.71827 0.4168 0.25882 0.0
H1285 H 0.69827 0.37445 0.32206 0.0
H1286 H 0.67866 0.37788 0.30504 0.0
H1287 H 0.69318 0.39878 0.31916 0.0
C1288 C 0.66177 0.42514 0.28266 0.0
C1289 C 0.66946 0.44506 0.28786 0.0
C1290 C 0.67361 0.41128 0.28116 0.0
C1291 C 0.69331 0.41708 0.2849 0.0
C1292 C 0.70104 0.43693 0.29013 0.0
H1293 H 0.77504 0.33926 0.29868 0.0
H1294 H 0.75669 0.36556 0.30263 0.0
C1295 C 0.68922 0.4508 0.29169 0.0
C1296 C 0.70586 0.40253 0.28265 0.0
H1297 H 0.7171 0.36061 0.30042 0.0
C1298 C 0.71811 0.40455 0.26796 0.0
C1299 C 0.70569 0.38672 0.29473 0.0
C1300 C 0.69338 0.38434 0.31126 0.0
C1301 C 0.72997 0.3909 0.26477 0.0
C1302 C 0.72938 0.37475 0.27645 0.0
C1303 C 0.7174 0.37295 0.29139 0.0
C1304 C 0.74113 0.35955 0.27351 0.0
C1305 C 0.74319 0.39398 0.24908 0.0
C1306 C 0.73849 0.34755 0.25579 0.0
C1307 C 0.74902 0.33259 0.25349 0.0
C1308 C 0.76217 0.32934 0.26892 0.0
C1309 C 0.76505 0.34158 0.28651 0.0
C1310 C 0.75452 0.3565 0.28882 0.0
H1311 H 0.74532 0.40937 0.2449 0.0
H1312 H 0.75718 0.39032 0.25414 0.0
H1313 H 0.73705 0.38419 0.2357 0.0
H1314 H 0.72805 0.34952 0.24389 0.0
H1315 H 0.74682 0.32351 0.23971 0.0
H1316 H 0.78557 0.43873 0.57072 0.0
H1317 H 0.81793 0.45556 0.56871 0.0
H1318 H 0.80382 0.46127 0.50684 0.0
H1319 H 0.77142 0.44459 0.50871 0.0
H1320 H 0.84303 0.44228 0.54441 0.0
H1321 H 0.83129 0.5168 0.5276 0.0
H1322 H 0.8138 0.49938 0.53748 0.0
H1323 H 0.81672 0.49718 0.51172 0.0
C1324 C 0.78925 0.44381 0.55674 0.0
C1325 C 0.77586 0.44032 0.53988 0.0
C1326 C 0.80777 0.4534 0.55562 0.0
C1327 C 0.81324 0.45986 0.53769 0.0
C1328 C 0.79983 0.45675 0.52092 0.0
H1329 H 0.91831 0.50801 0.49373 0.0
H1330 H 0.88531 0.4958 0.49866 0.0
C1331 C 0.78132 0.44712 0.522 0.0
C1332 C 0.83326 0.46859 0.53619 0.0
H1333 H 0.86185 0.50956 0.52391 0.0
C1334 C 0.84718 0.45706 0.54011 0.0
C1335 C 0.83862 0.48782 0.53045 0.0
C1336 C 0.82437 0.50112 0.52673 0.0
C1337 C 0.86625 0.46402 0.53796 0.0
C1338 C 0.87163 0.48324 0.53214 0.0
C1339 C 0.85772 0.49484 0.52837 0.0
C1340 C 0.89155 0.49137 0.52949 0.0
C1341 C 0.88036 0.45049 0.54131 0.0
C1342 C 0.90598 0.49332 0.54528 0.0
C1343 C 0.92483 0.50018 0.54247 0.0
C1344 C 0.92954 0.5054 0.52386 0.0
C1345 C 0.91505 0.50402 0.50821 0.0
C1346 C 0.89622 0.49708 0.51102 0.0
H1347 H 0.8733 0.43487 0.54061 0.0
H1348 H 0.89064 0.45199 0.53025 0.0
H1349 H 0.88835 0.45437 0.55617 0.0
H1350 H 0.90267 0.48943 0.55977 0.0
H1351 H 0.93572 0.50128 0.55482 0.0
H1352 H 0.36629 0.12285 0.26805 0.0
H1353 H 0.34672 0.14833 0.26941 0.0
H1354 H 0.32737 0.13502 0.20753 0.0
H1355 H 0.34671 0.10939 0.20604 0.0
H1356 H 0.34609 0.18198 0.24799 0.0
H1357 H 0.27813 0.12908 0.23381 0.0
H1358 H 0.30046 0.12151 0.24056 0.0
H1359 H 0.29423 0.12714 0.21573 0.0
C1360 C 0.35793 0.12537 0.2547 0.0
C1361 C 0.35795 0.11394 0.23697 0.0
C1362 C 0.34678 0.13997 0.2555 0.0
C1363 C 0.33538 0.14336 0.23864 0.0
C1364 C 0.3358 0.1324 0.2208 0.0
H1365 H 0.2759 0.24292 0.2266 0.0
H1366 H 0.29771 0.21971 0.22315 0.0
C1367 C 0.34693 0.1178 0.21997 0.0
C1368 C 0.32276 0.15806 0.23985 0.0
H1369 H 0.27626 0.16282 0.235 0.0
C1370 C 0.33082 0.17784 0.24515 0.0
C1371 C 0.30284 0.15255 0.23633 0.0
C1372 C 0.29333 0.1314 0.23145 0.0
C1373 C 0.31948 0.19229 0.24693 0.0
C1374 C 0.29955 0.18682 0.24307 0.0
C1375 C 0.29153 0.16702 0.23783 0.0
C1376 C 0.28665 0.20118 0.24515 0.0
C1377 C 0.32893 0.21318 0.25334 0.0
C1378 C 0.2729 0.19825 0.25829 0.0
C1379 C 0.26041 0.21139 0.26017 0.0
C1380 C 0.26142 0.22773 0.24896 0.0
C1381 C 0.27502 0.23058 0.23563 0.0
C1382 C 0.28752 0.21739 0.23371 0.0
H1383 H 0.34355 0.214 0.26063 0.0
H1384 H 0.32981 0.2217 0.24018 0.0
H1385 H 0.3207 0.22024 0.26365 0.0
H1386 H 0.27191 0.18581 0.2672 0.0
H1387 H 0.25006 0.20884 0.27055 0.0
H1388 H 0.29577 0.09854 0.50734 0.0
H1389 H 0.31489 0.074 0.51728 0.0
H1390 H 0.36458 0.11936 0.52807 0.0
H1391 H 0.34576 0.14386 0.51827 0.0
H1392 H 0.34737 0.06529 0.50046 0.0
H1393 H 0.36458 0.09092 0.5794 0.0
H1394 H 0.34496 0.09733 0.56413 0.0
H1395 H 0.36861 0.11067 0.56374 0.0
C1396 C 0.31078 0.10326 0.51183 0.0
C1397 C 0.31926 0.12315 0.51209 0.0
C1398 C 0.32162 0.08925 0.51757 0.0
C1399 C 0.34099 0.095 0.52385 0.0
C1400 C 0.34952 0.11475 0.52376 0.0
H1401 H 0.44664 0.07196 0.53697 0.0
H1402 H 0.41603 0.08179 0.53906 0.0
C1403 C 0.33877 0.1287 0.51796 0.0
C1404 C 0.35285 0.08045 0.52944 0.0
H1405 H 0.38697 0.07337 0.56513 0.0
C1406 C 0.35565 0.06654 0.51478 0.0
C1407 C 0.36341 0.08205 0.54821 0.0
C1408 C 0.3601 0.09592 0.56484 0.0
C1409 C 0.3702 0.05562 0.51776 0.0
C1410 C 0.38194 0.05861 0.53594 0.0
C1411 C 0.37796 0.07118 0.5512 0.0
C1412 C 0.40039 0.05208 0.53789 0.0
C1413 C 0.37398 0.04231 0.50087 0.0
C1414 C 0.40176 0.03211 0.53723 0.0
C1415 C 0.41934 0.02644 0.53604 0.0
C1416 C 0.43557 0.04072 0.53542 0.0
C1417 C 0.43427 0.06068 0.53726 0.0
C1418 C 0.41683 0.06631 0.53855 0.0
H1419 H 0.3644 0.04286 0.48722 0.0
H1420 H 0.38884 0.0465 0.49766 0.0
H1421 H 0.37199 0.02694 0.50501 0.0
H1422 H 0.3892 0.02096 0.53691 0.0
H1423 H 0.42008 0.01095 0.53468 0.0
H1424 H 0.68979 0.55389 0.30307 0.0
H1425 H 0.7066 0.58762 0.30224 0.0
H1426 H 0.65735 0.60238 0.26956 0.0
H1427 H 0.64034 0.56896 0.27072 0.0
H1428 H 0.71564 0.60816 0.271 0.0
H1429 H 0.66914 0.64565 0.31375 0.0
H1430 H 0.66806 0.6194 0.31267 0.0
H1431 H 0.65628 0.63037 0.29293 0.0
C1432 C 0.68251 0.56436 0.29582 0.0
C1433 C 0.66368 0.55879 0.2871 0.0
C1434 C 0.69213 0.58361 0.29534 0.0
C1435 C 0.68311 0.59761 0.28616 0.0
C1436 C 0.66443 0.59198 0.27719 0.0
H1437 H 0.73426 0.70618 0.24254 0.0
H1438 H 0.72001 0.67237 0.24688 0.0
C1439 C 0.65476 0.57281 0.27777 0.0
C1440 C 0.69336 0.61795 0.28541 0.0
H1441 H 0.69046 0.66604 0.29592 0.0
C1442 C 0.71024 0.62082 0.27659 0.0
C1443 C 0.68645 0.63445 0.293 0.0
C1444 C 0.6691 0.63234 0.3038 0.0
C1445 C 0.7201 0.63977 0.27464 0.0
C1446 C 0.71264 0.65627 0.28129 0.0
C1447 C 0.69605 0.65338 0.29061 0.0
C1448 C 0.7217 0.67667 0.27866 0.0
C1449 C 0.73852 0.6419 0.26568 0.0
C1450 C 0.72692 0.69049 0.29503 0.0
C1451 C 0.73483 0.70991 0.29258 0.0
C1452 C 0.73769 0.7159 0.27368 0.0
C1453 C 0.73244 0.70202 0.25731 0.0
C1454 C 0.7244 0.68263 0.25977 0.0
H1455 H 0.74504 0.62857 0.267 0.0
H1456 H 0.73578 0.64397 0.24977 0.0
H1457 H 0.74881 0.6548 0.27281 0.0
H1458 H 0.72487 0.68624 0.30973 0.0
H1459 H 0.73871 0.72021 0.30551 0.0
H1460 H 0.85413 0.5176 0.76749 0.0
H1461 H 0.83621 0.48502 0.77099 0.0
H1462 H 0.82019 0.4768 0.70818 0.0
H1463 H 0.83795 0.50956 0.70449 0.0
H1464 H 0.7902 0.46348 0.73172 0.0
H1465 H 0.85622 0.43512 0.75315 0.0
H1466 H 0.85349 0.45671 0.7677 0.0
H1467 H 0.85627 0.45804 0.742 0.0
C1468 C 0.8467 0.50896 0.7544 0.0
C1469 C 0.84763 0.5161 0.73566 0.0
C1470 C 0.8365 0.49033 0.75645 0.0
C1471 C 0.82714 0.47843 0.73981 0.0
C1472 C 0.8274 0.48577 0.72118 0.0
H1473 H 0.79521 0.35252 0.73031 0.0
H1474 H 0.80714 0.3869 0.72573 0.0
C1475 C 0.83758 0.50446 0.7191 0.0
C1476 C 0.81791 0.458 0.7418 0.0
H1477 H 0.82733 0.41381 0.75521 0.0
C1478 C 0.79827 0.45257 0.73685 0.0
C1479 C 0.82856 0.44381 0.74827 0.0
C1480 C 0.84982 0.44859 0.75293 0.0
C1481 C 0.78894 0.43329 0.73841 0.0
C1482 C 0.79956 0.41923 0.74528 0.0
C1483 C 0.81921 0.42467 0.75008 0.0
C1484 C 0.79084 0.39855 0.74698 0.0
C1485 C 0.7679 0.42799 0.73235 0.0
C1486 C 0.77759 0.3937 0.76036 0.0
C1487 C 0.7707 0.37399 0.76298 0.0
C1488 C 0.77713 0.35895 0.75237 0.0
C1489 C 0.79008 0.36385 0.73873 0.0
C1490 C 0.79689 0.38347 0.73609 0.0
H1491 H 0.76261 0.43911 0.72332 0.0
H1492 H 0.76422 0.41343 0.72381 0.0
H1493 H 0.76043 0.42714 0.74574 0.0
H1494 H 0.77299 0.40513 0.76916 0.0
H1495 H 0.76075 0.37055 0.77362 0.0
H1496 H 0.98066 0.80626 0.10898 0.0
H1497 H 0.98186 0.83276 0.08676 0.0
H1498 H 0.02274 0.87038 0.12915 0.0
H1499 H 0.0216 0.84413 0.15146 0.0
H1500 H 0.97441 0.87258 0.09675 0.0
H1501 H 0.04662 0.87217 0.07568 0.0
H1502 H 0.03296 0.85142 0.08554 0.0
H1503 H 0.04467 0.87234 0.10168 0.0
C1504 C 0.98995 0.82015 0.11354 0.0
C1505 C 0.00105 0.82309 0.13199 0.0
C1506 C 0.99061 0.83525 0.10084 0.0
C1507 C 0.00256 0.85339 0.10624 0.0
C1508 C 0.01363 0.85636 0.12461 0.0
H1509 H 0.03082 0.96754 0.06563 0.0
H1510 H 0.02914 0.93644 0.08092 0.0
C1511 C 0.01288 0.84137 0.13738 0.0
C1512 C 0.00303 0.86957 0.09309 0.0
H1513 H 0.03242 0.89947 0.06724 0.0
C1514 C 0.98698 0.87835 0.09006 0.0
C1515 C 0.01949 0.87702 0.08449 0.0
C1516 C 0.0369 0.86769 0.08683 0.0
C1517 C 0.98722 0.895 0.07934 0.0
C1518 C 0.00383 0.90271 0.07101 0.0
C1519 C 0.0197 0.89354 0.0736 0.0
C1520 C 0.00544 0.92102 0.06069 0.0
C1521 C 0.96999 0.90469 0.07784 0.0
C1522 C 0.99301 0.92255 0.04389 0.0
C1523 C 0.99386 0.94039 0.03522 0.0
C1524 C 0.0073 0.95687 0.04309 0.0
C1525 C 0.02026 0.95507 0.05933 0.0
C1526 C 0.01933 0.93731 0.06805 0.0
H1527 H 0.96033 0.89981 0.08892 0.0
H1528 H 0.97412 0.92093 0.07991 0.0
H1529 H 0.962 0.90075 0.06299 0.0
H1530 H 0.98249 0.91004 0.03766 0.0
H1531 H 0.9838 0.94138 0.0226 0.0
H1532 H 0.9734 0.2717 0.81925 0.0
H1533 H 0.94159 0.26602 0.80107 0.0
H1534 H 0.92135 0.29651 0.84915 0.0
H1535 H 0.95275 0.30167 0.86754 0.0
H1536 H 0.89781 0.2629 0.8369 0.0
H1537 H 0.91502 0.30437 0.77229 0.0
H1538 H 0.9283 0.28509 0.77648 0.0
H1539 H 0.93146 0.30594 0.79427 0.0
C1540 C 0.96218 0.27729 0.82586 0.0
C1541 C 0.96561 0.28715 0.84483 0.0
C1542 C 0.94402 0.27412 0.81542 0.0
C1543 C 0.9291 0.28104 0.82364 0.0
C1544 C 0.9326 0.291 0.8425 0.0
H1545 H 0.82344 0.30559 0.77363 0.0
H1546 H 0.85616 0.30482 0.78579 0.0
C1547 C 0.95061 0.29398 0.85299 0.0
C1548 C 0.90964 0.27764 0.81304 0.0
H1549 H 0.88349 0.2879 0.77177 0.0
C1550 C 0.89468 0.26828 0.82261 0.0
C1551 C 0.90557 0.28478 0.79445 0.0
C1552 C 0.92088 0.29576 0.78381 0.0
C1553 C 0.87575 0.26633 0.8144 0.0
C1554 C 0.87167 0.27341 0.79577 0.0
C1555 C 0.88666 0.28233 0.78596 0.0
C1556 C 0.85193 0.27328 0.78704 0.0
C1557 C 0.86032 0.25757 0.82623 0.0
C1558 C 0.83866 0.25574 0.78325 0.0
C1559 C 0.81976 0.25613 0.77647 0.0
C1560 C 0.81387 0.27406 0.77305 0.0
C1561 C 0.8274 0.29149 0.77609 0.0
C1562 C 0.84619 0.2911 0.78303 0.0
H1563 H 0.86565 0.25732 0.84202 0.0
H1564 H 0.84849 0.26594 0.8253 0.0
H1565 H 0.85464 0.24221 0.82027 0.0
H1566 H 0.84285 0.24176 0.78578 0.0
H1567 H 0.80975 0.24241 0.77414 0.0
H1568 H 0.48604 0.22656 0.58346 0.0
H1569 H 0.49065 0.19515 0.56827 0.0
H1570 H 0.49268 0.17152 0.6251 0.0
H1571 H 0.48825 0.20297 0.64049 0.0
H1572 H 0.52256 0.16521 0.6041 0.0
H1573 H 0.45359 0.14273 0.55772 0.0
H1574 H 0.46556 0.16702 0.55436 0.0
H1575 H 0.45743 0.16173 0.57774 0.0
C1576 C 0.48725 0.21464 0.59273 0.0
C1577 C 0.48675 0.21729 0.61321 0.0
C1578 C 0.4898 0.19665 0.58399 0.0
C1579 C 0.4918 0.18094 0.59552 0.0
C1580 C 0.49109 0.18345 0.61592 0.0
H1581 H 0.49242 0.06055 0.5515 0.0
H1582 H 0.4853 0.09035 0.56798 0.0
C1583 C 0.48851 0.20142 0.62468 0.0
C1584 C 0.49562 0.16223 0.58644 0.0
H1585 H 0.47777 0.12452 0.55143 0.0
C1586 C 0.51273 0.15625 0.59266 0.0
C1587 C 0.48268 0.15047 0.57167 0.0
C1588 C 0.4637 0.15567 0.56507 0.0
C1589 C 0.51745 0.13902 0.58419 0.0
C1590 C 0.50483 0.12765 0.56891 0.0
C1591 C 0.48752 0.13339 0.563 0.0
C1592 C 0.50923 0.10964 0.55893 0.0
C1593 C 0.5358 0.13302 0.59185 0.0
C1594 C 0.52499 0.11058 0.54833 0.0
C1595 C 0.52882 0.09358 0.53864 0.0
C1596 C 0.51678 0.07549 0.53914 0.0
C1597 C 0.50126 0.07449 0.55002 0.0
C1598 C 0.4974 0.09145 0.5597 0.0
H1599 H 0.54136 0.14028 0.60673 0.0
H1600 H 0.53397 0.11686 0.59257 0.0
H1601 H 0.54655 0.1374 0.58172 0.0
H1602 H 0.53417 0.1245 0.54735 0.0
H1603 H 0.54097 0.09462 0.53044 0.0
H1604 H 0.60028 0.79302 0.37883 0.0
H1605 H 0.6284 0.79173 0.36208 0.0
H1606 H 0.59493 0.78947 0.30579 0.0
H1607 H 0.5667 0.79097 0.32243 0.0
H1608 H 0.63434 0.76227 0.33535 0.0
H1609 H 0.63984 0.83355 0.30178 0.0
H1610 H 0.62528 0.82752 0.32125 0.0
H1611 H 0.61709 0.81791 0.29627 0.0
C1612 C 0.59888 0.79239 0.36289 0.0
C1613 C 0.58122 0.79215 0.35198 0.0
C1614 C 0.61499 0.79163 0.35334 0.0
C1615 C 0.61382 0.79074 0.33271 0.0
C1616 C 0.59624 0.79053 0.32175 0.0
H1617 H 0.69274 0.75227 0.25804 0.0
H1618 H 0.66554 0.75593 0.27574 0.0
C1619 C 0.58009 0.79128 0.33129 0.0
C1620 C 0.63089 0.78927 0.32269 0.0
H1621 H 0.65982 0.81196 0.29127 0.0
C1622 C 0.63995 0.77317 0.32576 0.0
C1623 C 0.63834 0.80364 0.3104 0.0
C1624 C 0.62977 0.82174 0.30733 0.0
C1625 C 0.65602 0.77082 0.31654 0.0
C1626 C 0.66307 0.78482 0.30372 0.0
C1627 C 0.65427 0.80115 0.30097 0.0
C1628 C 0.67951 0.78269 0.29294 0.0
C1629 C 0.66548 0.7535 0.32078 0.0
C1630 C 0.69622 0.79676 0.29642 0.0
C1631 C 0.71173 0.79472 0.28626 0.0
C1632 C 0.71073 0.77863 0.27242 0.0
C1633 C 0.6939 0.76475 0.26872 0.0
C1634 C 0.67842 0.76676 0.2789 0.0
H1635 H 0.66127 0.74695 0.33442 0.0
H1636 H 0.66126 0.74202 0.30833 0.0
H1637 H 0.68113 0.75787 0.32234 0.0
H1638 H 0.69729 0.80924 0.30708 0.0
H1639 H 0.72442 0.80583 0.28908 0.0
H1640 H 0.02392 0.24342 0.48477 0.0
H1641 H 0.02087 0.2132 0.50176 0.0
H1642 H 0.02253 0.17964 0.44695 0.0
H1643 H 0.02572 0.2097 0.42985 0.0
H1644 H 0.99186 0.17946 0.49336 0.0
H1645 H 0.06318 0.16228 0.4855 0.0
H1646 H 0.05742 0.18625 0.48198 0.0
H1647 H 0.05033 0.16666 0.4628 0.0
C1648 C 0.0238 0.22963 0.47636 0.0
C1649 C 0.02515 0.22896 0.45598 0.0
C1650 C 0.022 0.2124 0.48608 0.0
C1651 C 0.0217 0.19429 0.47562 0.0
C1652 C 0.02306 0.19355 0.45531 0.0
H1653 H 0.98246 0.07591 0.50463 0.0
H1654 H 0.98561 0.10846 0.49187 0.0
C1655 C 0.02481 0.21074 0.44557 0.0
C1656 C 0.0194 0.17602 0.4858 0.0
H1657 H 0.04074 0.13711 0.49632 0.0
C1658 C 0.00257 0.17023 0.49416 0.0
C1659 C 0.03352 0.1642 0.48695 0.0
C1660 C 0.05222 0.17021 0.479 0.0
C1661 C 0.99928 0.15259 0.50327 0.0
C1662 C 0.01311 0.1404 0.50374 0.0
C1663 C 0.03012 0.14645 0.49579 0.0
C1664 C 0.01026 0.12121 0.51227 0.0
C1665 C 0.98114 0.14722 0.51241 0.0
C1666 C 0.02312 0.11762 0.52782 0.0
C1667 C 0.02151 0.09902 0.53483 0.0
C1668 C 0.00711 0.08371 0.52626 0.0
C1669 C 0.99388 0.08744 0.51114 0.0
C1670 C 0.99552 0.10605 0.50408 0.0
H1671 H 0.9746 0.1603 0.51556 0.0
H1672 H 0.97088 0.13666 0.50202 0.0
H1673 H 0.98362 0.14016 0.52633 0.0
H1674 H 0.03462 0.12913 0.53427 0.0
H1675 H 0.03192 0.09647 0.54649 0.0
H1676 H 0.5343 0.29701 0.17164 0.0
H1677 H 0.56363 0.29949 0.19371 0.0
H1678 H 0.5873 0.26782 0.14902 0.0
H1679 H 0.55789 0.26482 0.12707 0.0
H1680 H 0.59338 0.25441 0.18509 0.0
H1681 H 0.61339 0.33574 0.18988 0.0
H1682 H 0.5904 0.32685 0.197 0.0
H1683 H 0.59489 0.32227 0.17193 0.0
C1684 C 0.54577 0.2906 0.16651 0.0
C1685 C 0.54384 0.2808 0.14759 0.0
C1686 C 0.56254 0.29214 0.17909 0.0
C1687 C 0.57773 0.28415 0.17285 0.0
C1688 C 0.57575 0.27416 0.15407 0.0
H1689 H 0.69578 0.30474 0.21367 0.0
H1690 H 0.66387 0.30539 0.19808 0.0
C1691 C 0.55894 0.27246 0.14155 0.0
C1692 C 0.59564 0.28582 0.18591 0.0
H1693 H 0.63285 0.3188 0.20986 0.0
C1694 C 0.602 0.26848 0.19058 0.0
C1695 C 0.60687 0.30422 0.19288 0.0
C1696 C 0.60117 0.32335 0.18755 0.0
C1697 C 0.61946 0.269 0.20177 0.0
C1698 C 0.6306 0.28739 0.20895 0.0
C1699 C 0.62414 0.30475 0.20451 0.0
C1700 C 0.64966 0.28887 0.21976 0.0
C1701 C 0.62613 0.24986 0.20512 0.0
C1702 C 0.65217 0.27996 0.23746 0.0
C1703 C 0.67037 0.27938 0.24624 0.0
C1704 C 0.68625 0.28796 0.23757 0.0
C1705 C 0.68373 0.29793 0.22056 0.0
C1706 C 0.66554 0.29834 0.21168 0.0
H1707 H 0.61808 0.23759 0.19475 0.0
H1708 H 0.64141 0.25112 0.20338 0.0
H1709 H 0.62407 0.24599 0.22033 0.0
H1710 H 0.64006 0.27298 0.24416 0.0
H1711 H 0.67201 0.27178 0.25949 0.0
H1712 H 0.48555 0.81967 0.95258 0.0
H1713 H 0.49073 0.85137 0.97192 0.0
H1714 H 0.55049 0.85875 0.96669 0.0
H1715 H 0.54548 0.82713 0.94716 0.0
H1716 H 0.51579 0.86619 0.00789 0.0
H1717 H 0.53293 0.90713 0.94264 0.0
H1718 H 0.52154 0.88167 0.94035 0.0
H1719 H 0.54643 0.88828 0.94833 0.0
C1720 C 0.49982 0.82796 0.95563 0.0
C1721 C 0.51507 0.82099 0.94816 0.0
C1722 C 0.50275 0.84602 0.96674 0.0
C1723 C 0.52094 0.85741 0.9705 0.0
C1724 C 0.53631 0.85022 0.9637 0.0
H1725 H 0.54837 0.9813 0.01268 0.0
H1726 H 0.55232 0.9476 0.00427 0.0
C1727 C 0.53341 0.83216 0.95257 0.0
C1728 C 0.52355 0.87728 0.98061 0.0
H1729 H 0.53283 0.92577 0.97238 0.0
C1730 C 0.51968 0.87926 0.00024 0.0
C1731 C 0.52871 0.89422 0.97054 0.0
C1732 C 0.53253 0.89285 0.94926 0.0
C1733 C 0.52054 0.89785 0.01001 0.0
C1734 C 0.525 0.91478 0.99969 0.0
C1735 C 0.52948 0.91277 0.98028 0.0
C1736 C 0.52355 0.93462 0.00795 0.0
C1737 C 0.51657 0.89918 0.03122 0.0
C1738 C 0.50615 0.93843 0.01313 0.0
C1739 C 0.50384 0.95764 0.01801 0.0
C1740 C 0.51885 0.97344 0.01754 0.0
C1741 C 0.5365 0.96949 0.01313 0.0
C1742 C 0.53881 0.95025 0.00834 0.0
H1743 H 0.51982 0.88621 0.03874 0.0
H1744 H 0.52494 0.91269 0.03951 0.0
H1745 H 0.50132 0.89953 0.03173 0.0
H1746 H 0.49405 0.92666 0.01245 0.0
H1747 H 0.49004 0.96014 0.02125 0.0
H1748 H 0.9331 0.75337 0.64495 0.0
H1749 H 0.91245 0.75812 0.67036 0.0
H1750 H 0.94451 0.81635 0.68676 0.0
H1751 H 0.9649 0.81196 0.66107 0.0
H1752 H 0.92011 0.76661 0.71086 0.0
H1753 H 0.89098 0.82663 0.67502 0.0
H1754 H 0.90481 0.81143 0.66261 0.0
H1755 H 0.91626 0.83092 0.68065 0.0
C1756 C 0.93575 0.76719 0.65395 0.0
C1757 C 0.95045 0.78238 0.65084 0.0
C1758 C 0.924 0.76985 0.6685 0.0
C1759 C 0.92681 0.78769 0.6802 0.0
C1760 C 0.94187 0.80264 0.67758 0.0
H1761 H 0.84689 0.82122 0.75919 0.0
H1762 H 0.87736 0.82104 0.74604 0.0
C1763 C 0.95351 0.80008 0.66292 0.0
C1764 C 0.91355 0.79074 0.6947 0.0
H1765 H 0.87939 0.8172 0.70445 0.0
C1766 C 0.91133 0.7778 0.7096 0.0
C1767 C 0.90222 0.80544 0.69306 0.0
C1768 C 0.90351 0.81932 0.6769 0.0
C1769 C 0.89759 0.77874 0.72252 0.0
C1770 C 0.88577 0.79289 0.72033 0.0
C1771 C 0.88862 0.80646 0.70611 0.0
C1772 C 0.86871 0.79217 0.73059 0.0
C1773 C 0.89549 0.76429 0.73808 0.0
C1774 C 0.85395 0.776 0.72624 0.0
C1775 C 0.83664 0.7762 0.73345 0.0
C1776 C 0.83384 0.79255 0.74516 0.0
C1777 C 0.84881 0.80846 0.75018 0.0
C1778 C 0.86614 0.80835 0.74274 0.0
H1779 H 0.90885 0.75872 0.74185 0.0
H1780 H 0.89128 0.77105 0.7517 0.0
H1781 H 0.88432 0.75153 0.73239 0.0
H1782 H 0.85555 0.76356 0.71656 0.0
H1783 H 0.82531 0.76371 0.72947 0.0
H1784 H 0.08032 0.96092 0.81966 0.0
H1785 H 0.06281 0.96367 0.84818 0.0
H1786 H 0.10419 0.01401 0.87285 0.0
H1787 H 0.12201 0.01113 0.84464 0.0
H1788 H 0.09417 0.98829 0.90041 0.0
H1789 H 0.03028 0.0051 0.85722 0.0
H1790 H 0.03702 0.98246 0.84903 0.0
H1791 H 0.05241 0.0054 0.84707 0.0
C1792 C 0.08573 0.97254 0.83118 0.0
C1793 C 0.10249 0.98589 0.82982 0.0
C1794 C 0.07564 0.97415 0.84741 0.0
C1795 C 0.08202 0.98926 0.86243 0.0
C1796 C 0.09898 0.00229 0.86136 0.0
H1797 H 0.02391 0.04088 0.94924 0.0
H1798 H 0.0386 0.03164 0.92037 0.0
C1799 C 0.10914 0.00063 0.84521 0.0
C1800 C 0.071 0.99169 0.87925 0.0
H1801 H 0.02859 0.0015 0.89114 0.0
C1802 C 0.0798 0.9911 0.89841 0.0
C1803 C 0.05233 0.99557 0.87656 0.0
C1804 C 0.04248 0.99737 0.85639 0.0
C1805 C 0.07051 0.99446 0.915 0.0
C1806 C 0.05175 0.99808 0.91229 0.0
C1807 C 0.04289 0.9985 0.89313 0.0
C1808 C 0.04157 0.00281 0.92919 0.0
C1809 C 0.08111 0.99482 0.93526 0.0
C1810 C 0.03788 0.98942 0.94346 0.0
C1811 C 0.02954 0.99469 0.9601 0.0
C1812 C 0.0246 0.01338 0.96263 0.0
C1813 C 0.02756 0.02639 0.94783 0.0
C1814 C 0.03596 0.02114 0.93128 0.0
H1815 H 0.09663 0.99639 0.93473 0.0
H1816 H 0.0784 0.00707 0.94517 0.0
H1817 H 0.07625 0.98084 0.94177 0.0
H1818 H 0.04173 0.97503 0.9419 0.0
H1819 H 0.02738 0.98426 0.97115 0.0
H1820 H 0.71055 0.37678 0.57991 0.0
H1821 H 0.71272 0.35985 0.61025 0.0
H1822 H 0.75884 0.33439 0.59092 0.0
H1823 H 0.75694 0.35135 0.56077 0.0
H1824 H 0.70933 0.31978 0.61567 0.0
H1825 H 0.78064 0.36013 0.64577 0.0
H1826 H 0.7666 0.36825 0.62559 0.0
H1827 H 0.77973 0.34888 0.62125 0.0
C1828 C 0.72115 0.36757 0.58211 0.0
C1829 C 0.73365 0.36553 0.56794 0.0
C1830 C 0.72237 0.3579 0.59946 0.0
C1831 C 0.73616 0.34612 0.60301 0.0
C1832 C 0.74836 0.34374 0.5887 0.0
H1833 H 0.74192 0.25723 0.68624 0.0
H1834 H 0.73783 0.27547 0.65698 0.0
C1835 C 0.74717 0.35338 0.5714 0.0
C1836 C 0.73775 0.33615 0.62156 0.0
H1837 H 0.76862 0.3318 0.66169 0.0
C1838 C 0.72225 0.32247 0.62579 0.0
C1839 C 0.75452 0.3399 0.63493 0.0
C1840 C 0.77126 0.35523 0.6318 0.0
C1841 C 0.72325 0.31204 0.64273 0.0
C1842 C 0.74032 0.31515 0.65561 0.0
C1843 C 0.75562 0.32924 0.65167 0.0
C1844 C 0.74262 0.30399 0.67329 0.0
C1845 C 0.70596 0.29795 0.6468 0.0
C1846 C 0.74698 0.31395 0.69215 0.0
C1847 C 0.74943 0.30353 0.7088 0.0
C1848 C 0.74789 0.28305 0.70693 0.0
C1849 C 0.74336 0.27307 0.68808 0.0
C1850 C 0.74091 0.28345 0.67139 0.0
H1851 H 0.69283 0.30116 0.63872 0.0
H1852 H 0.70738 0.28277 0.64189 0.0
H1853 H 0.70445 0.29853 0.66281 0.0
H1854 H 0.7482 0.32976 0.69401 0.0
H1855 H 0.75183 0.31142 0.72313 0.0
H1856 H 0.42552 0.08382 0.31117 0.0
H1857 H 0.44182 0.08045 0.34361 0.0
H1858 H 0.44924 0.02222 0.32406 0.0
H1859 H 0.43281 0.02535 0.29169 0.0
H1860 H 0.43366 0.02365 0.35917 0.0
H1861 H 0.49779 0.08122 0.36206 0.0
H1862 H 0.47601 0.08983 0.35588 0.0
H1863 H 0.48304 0.07197 0.33934 0.0
C1864 C 0.43083 0.07039 0.31368 0.0
C1865 C 0.42781 0.05484 0.29883 0.0
C1866 C 0.44025 0.06854 0.33221 0.0
C1867 C 0.44693 0.05117 0.33618 0.0
C1868 C 0.44427 0.03579 0.32127 0.0
H1869 H 0.51407 0.0296 0.44406 0.0
H1870 H 0.50316 0.03373 0.40971 0.0
C1871 C 0.43487 0.03762 0.30277 0.0
C1872 C 0.45543 0.04843 0.35628 0.0
H1873 H 0.49137 0.06754 0.39236 0.0
C1874 C 0.44635 0.03317 0.36636 0.0
C1875 C 0.4721 0.06072 0.36558 0.0
C1876 C 0.48294 0.07675 0.35512 0.0
C1877 C 0.4532 0.03019 0.38567 0.0
C1878 C 0.46942 0.04297 0.39526 0.0
C1879 C 0.47884 0.05789 0.38502 0.0
C1880 C 0.47644 0.04129 0.41609 0.0
C1881 C 0.44304 0.01335 0.39566 0.0
C1882 C 0.46519 0.04453 0.43106 0.0
C1883 C 0.47135 0.04222 0.45065 0.0
C1884 C 0.48897 0.03666 0.45572 0.0
C1885 C 0.50042 0.03385 0.44071 0.0
C1886 C 0.49423 0.03622 0.42107 0.0
H1887 H 0.43396 0.00214 0.38484 0.0
H1888 H 0.45327 0.00613 0.40447 0.0
H1889 H 0.43382 0.01904 0.40581 0.0
H1890 H 0.45154 0.04875 0.42756 0.0
H1891 H 0.46216 0.04462 0.46177 0.0
H1892 H 0.75212 0.65188 0.06264 0.0
H1893 H 0.75033 0.67586 0.08971 0.0
H1894 H 0.76666 0.72311 0.05334 0.0
H1895 H 0.76886 0.69919 0.02623 0.0
H1896 H 0.78699 0.72883 0.08934 0.0
H1897 H 0.71087 0.7097 0.09766 0.0
H1898 H 0.7219 0.68843 0.09815 0.0
H1899 H 0.72075 0.70135 0.07615 0.0
C1900 C 0.75516 0.66736 0.06031 0.0
C1901 C 0.76061 0.67364 0.0423 0.0
C1902 C 0.75399 0.68105 0.07575 0.0
C1903 C 0.758 0.70124 0.07338 0.0
C1904 C 0.76335 0.70758 0.05539 0.0
H1905 H 0.73893 0.77511 0.17546 0.0
H1906 H 0.73893 0.76407 0.14068 0.0
C1907 C 0.76461 0.69389 0.03994 0.0
C1908 C 0.75781 0.71562 0.09021 0.0
H1909 H 0.73109 0.72644 0.12624 0.0
C1910 C 0.77466 0.7286 0.09721 0.0
C1911 C 0.74162 0.71564 0.10019 0.0
C1912 C 0.72272 0.70317 0.09251 0.0
C1913 C 0.77612 0.7406 0.11476 0.0
C1914 C 0.76044 0.73921 0.12572 0.0
C1915 C 0.7432 0.72729 0.11796 0.0
C1916 C 0.76208 0.74826 0.14611 0.0
C1917 C 0.79456 0.75431 0.12159 0.0
C1918 C 0.7752 0.74317 0.16059 0.0
C1919 C 0.77526 0.74949 0.18033 0.0
C1920 C 0.76204 0.7608 0.18594 0.0
C1921 C 0.74927 0.76641 0.17144 0.0
C1922 C 0.74926 0.76013 0.15163 0.0
H1923 H 0.80215 0.75898 0.10887 0.0
H1924 H 0.79228 0.76758 0.13029 0.0
H1925 H 0.80383 0.74653 0.13098 0.0
H1926 H 0.78487 0.7336 0.15675 0.0
H1927 H 0.7852 0.74493 0.19127 0.0
H1928 H 0.08785 0.94962 0.73506 0.0
H1929 H 0.06739 0.95073 0.70441 0.0
H1930 H 0.09547 0.0101 0.69937 0.0
H1931 H 0.11523 0.00939 0.73028 0.0
H1932 H 0.05881 0.00724 0.69149 0.0
H1933 H 0.08117 0.94567 0.64948 0.0
H1934 H 0.07097 0.93905 0.67149 0.0
H1935 H 0.09307 0.95597 0.67324 0.0
C1936 C 0.08963 0.96288 0.72736 0.0
C1937 C 0.10316 0.9794 0.73501 0.0
C1938 C 0.07802 0.96345 0.7098 0.0
C1939 C 0.08011 0.98038 0.69939 0.0
C1940 C 0.09358 0.99688 0.70712 0.0
H1941 H 0.05702 0.00042 0.57942 0.0
H1942 H 0.06796 0.99054 0.61159 0.0
C1943 C 0.10489 0.99644 0.7248 0.0
C1944 C 0.06834 0.98131 0.68049 0.0
H1945 H 0.05817 0.96106 0.63301 0.0
C1946 C 0.05858 0.99707 0.67871 0.0
C1947 C 0.0681 0.96805 0.66383 0.0
C1948 C 0.07901 0.95133 0.66448 0.0
C1949 C 0.04937 0.00056 0.66057 0.0
C1950 C 0.04919 0.98736 0.64387 0.0
C1951 C 0.05823 0.97108 0.64585 0.0
C1952 C 0.04158 0.99138 0.62385 0.0
C1953 C 0.04094 0.01899 0.65933 0.0
C1954 C 0.02292 0.99457 0.6198 0.0
C1955 C 0.0168 0.0007 0.60153 0.0
C1956 C 0.0291 0.00316 0.58691 0.0
C1957 C 0.04731 0.99873 0.59051 0.0
C1958 C 0.05354 0.99301 0.60887 0.0
H1959 H 0.0464 0.0298 0.67217 0.0
H1960 H 0.04405 0.02618 0.64569 0.0
H1961 H 0.02536 0.01515 0.65913 0.0
H1962 H 0.01324 0.99281 0.63091 0.0
H1963 H 0.00259 0.00378 0.59895 0.0
H1964 H 0.76519 0.37141 0.47561 0.0
H1965 H 0.76558 0.35371 0.4437 0.0
H1966 H 0.7056 0.35186 0.43054 0.0
H1967 H 0.70502 0.3696 0.46263 0.0
H1968 H 0.74239 0.31532 0.42771 0.0
H1969 H 0.73113 0.37784 0.38337 0.0
H1970 H 0.73957 0.38132 0.40934 0.0
H1971 H 0.71515 0.3714 0.40142 0.0
C1972 C 0.75203 0.36722 0.466 0.0
C1973 C 0.73508 0.37202 0.47166 0.0
C1974 C 0.7523 0.35706 0.44777 0.0
C1975 C 0.73567 0.35165 0.4347 0.0
C1976 C 0.71863 0.3561 0.44036 0.0
H1977 H 0.7216 0.30221 0.31238 0.0
H1978 H 0.71623 0.31589 0.34465 0.0
C1979 C 0.71831 0.36616 0.45872 0.0
C1980 C 0.7364 0.34154 0.41511 0.0
H1981 H 0.73451 0.34853 0.36604 0.0
C1982 C 0.74058 0.32251 0.41419 0.0
C1983 C 0.73395 0.35095 0.39754 0.0
C1984 C 0.72981 0.37156 0.39781 0.0
C1985 C 0.74241 0.3126 0.39612 0.0
C1986 C 0.74055 0.32223 0.37856 0.0
C1987 C 0.73601 0.34116 0.37949 0.0
C1988 C 0.74363 0.31316 0.35914 0.0
C1989 C 0.74607 0.29182 0.39605 0.0
C1990 C 0.76089 0.30718 0.35642 0.0
C1991 C 0.76396 0.29918 0.338 0.0
C1992 C 0.74993 0.29723 0.32179 0.0
C1993 C 0.73271 0.30338 0.32452 0.0
C1994 C 0.72961 0.31125 0.34298 0.0
H1995 H 0.74115 0.2846 0.4091 0.0
H1996 H 0.7389 0.28281 0.38252 0.0
H1997 H 0.76152 0.29204 0.39658 0.0
H1998 H 0.77215 0.30901 0.36849 0.0
H1999 H 0.77748 0.29486 0.33641 0.0
H2000 H 0.40532 0.0599 0.1903 0.0
H2001 H 0.41986 0.05376 0.1603 0.0
H2002 H 0.47526 0.0737 0.19213 0.0
H2003 H 0.46088 0.07974 0.22227 0.0
H2004 H 0.44396 0.07994 0.14035 0.0
H2005 H 0.47884 0.0194 0.16643 0.0
H2006 H 0.46045 0.02803 0.17866 0.0
H2007 H 0.4843 0.04151 0.18265 0.0
C2008 C 0.42061 0.06299 0.19095 0.0
C2009 C 0.43195 0.07023 0.20873 0.0
C2010 C 0.42888 0.05947 0.17378 0.0
C2011 C 0.44863 0.06299 0.17407 0.0
C2012 C 0.45999 0.07053 0.19168 0.0
H2013 H 0.51678 0.07612 0.07757 0.0
H2014 H 0.49964 0.08054 0.10612 0.0
C2015 C 0.45174 0.07408 0.20887 0.0
C2016 C 0.45736 0.059 0.15588 0.0
H2017 H 0.48751 0.03206 0.13649 0.0
C2018 C 0.45341 0.06941 0.13946 0.0
C2019 C 0.46944 0.04503 0.15465 0.0
C2020 C 0.47341 0.03269 0.17146 0.0
C2021 C 0.46167 0.06662 0.12202 0.0
C2022 C 0.47436 0.05324 0.1211 0.0
C2023 C 0.47789 0.04243 0.13731 0.0
C2024 C 0.48446 0.05056 0.10359 0.0
C2025 C 0.45663 0.0779 0.10469 0.0
C2026 C 0.48194 0.03212 0.09298 0.0
C2027 C 0.49181 0.02955 0.07672 0.0
C2028 C 0.50441 0.04535 0.07093 0.0
C2029 C 0.50708 0.06372 0.08169 0.0
C2030 C 0.49719 0.0663 0.09789 0.0
H2031 H 0.44316 0.08336 0.10585 0.0
H2032 H 0.46801 0.09079 0.10423 0.0
H2033 H 0.45531 0.06864 0.0906 0.0
H2034 H 0.47232 0.01974 0.09727 0.0
H2035 H 0.48983 0.01515 0.0689 0.0
H2036 H 0.7789 0.66648 0.93081 0.0
H2037 H 0.78344 0.6881 0.90436 0.0
H2038 H 0.82339 0.73012 0.94375 0.0
H2039 H 0.81868 0.70864 0.97056 0.0
H2040 H 0.79613 0.7468 0.92484 0.0
H2041 H 0.8257 0.70203 0.87055 0.0
H2042 H 0.80474 0.68829 0.87831 0.0
H2043 H 0.82533 0.69646 0.89596 0.0
C2044 C 0.78891 0.68016 0.93381 0.0
C2045 C 0.79838 0.68588 0.95281 0.0
C2046 C 0.7916 0.69244 0.91861 0.0
C2047 C 0.80397 0.71058 0.92202 0.0
C2048 C 0.81389 0.71611 0.94081 0.0
H2049 H 0.80969 0.77558 0.81658 0.0
H2050 H 0.82067 0.76268 0.84723 0.0
C2051 C 0.81118 0.70381 0.95608 0.0
C2052 C 0.80489 0.72443 0.90643 0.0
H2053 H 0.80867 0.72653 0.85736 0.0
C2054 C 0.79928 0.74259 0.91018 0.0
C2055 C 0.80935 0.71909 0.88743 0.0
C2056 C 0.81682 0.70049 0.88289 0.0
C2057 C 0.79667 0.7549 0.89503 0.0
C2058 C 0.79936 0.74864 0.87562 0.0
C2059 C 0.80633 0.73119 0.8722 0.0
C2060 C 0.79342 0.75892 0.8584 0.0
C2061 C 0.79064 0.77425 0.8999 0.0
C2062 C 0.77449 0.76126 0.85461 0.0
C2063 C 0.76818 0.76872 0.83717 0.0
C2064 C 0.78063 0.77371 0.82306 0.0
C2065 C 0.79972 0.77186 0.82713 0.0
C2066 C 0.80604 0.7645 0.84464 0.0
H2067 H 0.7958 0.77996 0.91539 0.0
H2068 H 0.79598 0.78545 0.88994 0.0
H2069 H 0.77495 0.77208 0.89827 0.0
H2070 H 0.76438 0.75655 0.86476 0.0
H2071 H 0.75337 0.76982 0.83446 0.0
H2072 H 0.85363 0.13821 0.96532 0.0
H2073 H 0.87889 0.11883 0.9688 0.0
H2074 H 0.86137 0.10094 0.02428 0.0
H2075 H 0.83589 0.12007 0.02081 0.0
H2076 H 0.90909 0.12161 0.99823 0.0
H2077 H 0.86255 0.04859 0.99409 0.0
H2078 H 0.85383 0.07038 0.9872 0.0
H2079 H 0.85784 0.0659 0.01275 0.0
C2080 C 0.85507 0.1301 0.97825 0.0
C2081 C 0.84261 0.13062 0.99273 0.0
C2082 C 0.86957 0.11905 0.98022 0.0
C2083 C 0.87187 0.10818 0.99665 0.0
C2084 C 0.85963 0.10887 0.01127 0.0
H2085 H 0.94894 0.03218 0.03706 0.0
H2086 H 0.92443 0.05246 0.03292 0.0
C2087 C 0.84512 0.11991 0.00931 0.0
C2088 C 0.8872 0.09631 0.99856 0.0
H2089 H 0.89535 0.04959 0.00304 0.0
C2090 C 0.9061 0.10584 0.99918 0.0
C2091 C 0.88329 0.07573 0.99976 0.0
C2092 C 0.86328 0.06448 0.99823 0.0
C2093 C 0.92119 0.09544 0.00145 0.0
C2094 C 0.91726 0.07488 0.00281 0.0
C2095 C 0.89836 0.06535 0.00206 0.0
C2096 C 0.9325 0.06296 0.00534 0.0
C2097 C 0.94122 0.10664 0.00291 0.0
C2098 C 0.94512 0.06193 0.99112 0.0
C2099 C 0.95917 0.05033 0.99349 0.0
C2100 C 0.96076 0.0395 0.01005 0.0
C2101 C 0.948 0.04035 0.02412 0.0
C2102 C 0.93402 0.05197 0.0218 0.0
H2103 H 0.94197 0.12259 0.00673 0.0
H2104 H 0.95061 0.10093 0.01416 0.0
H2105 H 0.94674 0.10491 0.98848 0.0
H2106 H 0.94395 0.06987 0.97805 0.0
H2107 H 0.96856 0.04956 0.98221 0.0
H2108 H 0.29842 0.46714 0.033 0.0
H2109 H 0.3305 0.48492 0.03159 0.0
H2110 H 0.35338 0.44072 0.06302 0.0
H2111 H 0.3213 0.42275 0.06454 0.0
H2112 H 0.36279 0.4988 0.06355 0.0
H2113 H 0.37439 0.44185 0.00726 0.0
H2114 H 0.35106 0.44463 0.01293 0.0
H2115 H 0.3659 0.43325 0.02956 0.0
C2116 C 0.31025 0.4613 0.03984 0.0
C2117 C 0.30736 0.44342 0.0487 0.0
C2118 C 0.32854 0.47152 0.03907 0.0
C2119 C 0.34419 0.46398 0.04704 0.0
C2120 C 0.34139 0.44664 0.05669 0.0
H2121 H 0.46374 0.51176 0.05666 0.0
H2122 H 0.43137 0.50007 0.06355 0.0
C2123 C 0.32308 0.43643 0.05756 0.0
C2124 C 0.3634 0.4735 0.04389 0.0
H2125 H 0.39998 0.46762 0.01763 0.0
C2126 C 0.371 0.49202 0.05358 0.0
C2127 C 0.37381 0.46465 0.03061 0.0
C2128 C 0.36591 0.44506 0.01934 0.0
C2129 C 0.38901 0.50187 0.0505 0.0
C2130 C 0.39953 0.49285 0.03746 0.0
C2131 C 0.39182 0.47443 0.02764 0.0
C2132 C 0.41873 0.50207 0.03387 0.0
C2133 C 0.39657 0.52191 0.06095 0.0
C2134 C 0.42225 0.50711 0.0149 0.0
C2135 C 0.44073 0.51377 0.01087 0.0
C2136 C 0.456 0.51525 0.02572 0.0
C2137 C 0.45231 0.51074 0.04487 0.0
C2138 C 0.43382 0.50417 0.04889 0.0
H2139 H 0.38523 0.52854 0.0671 0.0
H2140 H 0.40738 0.52058 0.07329 0.0
H2141 H 0.40346 0.53197 0.05076 0.0
H2142 H 0.41073 0.50547 0.00312 0.0
H2143 H 0.44305 0.51713 0.99597 0.0
H2144 H 0.36533 0.62868 0.76307 0.0
H2145 H 0.34564 0.65369 0.76703 0.0
H2146 H 0.29749 0.61403 0.73617 0.0
H2147 H 0.31702 0.58878 0.73227 0.0
H2148 H 0.32492 0.67072 0.73774 0.0
H2149 H 0.27849 0.63166 0.7881 0.0
H2150 H 0.30068 0.6248 0.78317 0.0
H2151 H 0.28002 0.61756 0.76557 0.0
C2152 C 0.35055 0.62523 0.75713 0.0
C2153 C 0.34271 0.60669 0.74744 0.0
C2154 C 0.33934 0.63956 0.7594 0.0
C2155 C 0.32008 0.63559 0.75215 0.0
C2156 C 0.31225 0.61723 0.74219 0.0
H2157 H 0.24354 0.71707 0.73199 0.0
H2158 H 0.26256 0.69115 0.7296 0.0
C2159 C 0.32346 0.60288 0.73988 0.0
C2160 C 0.30826 0.65078 0.7548 0.0
H2161 H 0.26971 0.66057 0.77598 0.0
C2162 C 0.31287 0.66853 0.74612 0.0
C2163 C 0.29274 0.64796 0.766 0.0
C2164 C 0.28773 0.62955 0.77642 0.0
C2165 C 0.30207 0.68339 0.74798 0.0
C2166 C 0.28619 0.68028 0.75862 0.0
C2167 C 0.28181 0.66274 0.76767 0.0
C2168 C 0.27393 0.69512 0.76038 0.0
C2169 C 0.30775 0.7024 0.73872 0.0
C2170 C 0.27367 0.70545 0.77861 0.0
C2171 C 0.26278 0.7202 0.78001 0.0
C2172 C 0.25203 0.72472 0.76322 0.0
C2173 C 0.25172 0.71382 0.74516 0.0
C2174 C 0.26266 0.69916 0.74374 0.0
H2175 H 0.32232 0.70398 0.73438 0.0
H2176 H 0.29783 0.70281 0.72531 0.0
H2177 H 0.30697 0.71518 0.74905 0.0
H2178 H 0.2822 0.70239 0.79163 0.0
H2179 H 0.26294 0.72826 0.79413 0.0
H2180 H 0.23465 0.62825 0.48073 0.0
H2181 H 0.20142 0.61228 0.47817 0.0
H2182 H 0.21023 0.59426 0.53706 0.0
H2183 H 0.24352 0.60994 0.53969 0.0
H2184 H 0.18849 0.56462 0.50986 0.0
H2185 H 0.16158 0.63493 0.50661 0.0
H2186 H 0.17689 0.63052 0.48835 0.0
H2187 H 0.18612 0.63402 0.51397 0.0
C2188 C 0.22957 0.62078 0.4931 0.0
C2189 C 0.24174 0.6205 0.51047 0.0
C2190 C 0.21054 0.61176 0.49164 0.0
C2191 C 0.20328 0.60238 0.50755 0.0
C2192 C 0.21552 0.60151 0.52465 0.0
H2193 H 0.09533 0.54756 0.53991 0.0
H2194 H 0.12885 0.5594 0.53721 0.0
C2195 C 0.23455 0.6105 0.52612 0.0
C2196 C 0.18287 0.59381 0.50661 0.0
H2197 H 0.13876 0.60581 0.50324 0.0
C2198 C 0.1776 0.5736 0.50838 0.0
C2199 C 0.16868 0.60557 0.50465 0.0
C2200 C 0.17353 0.62749 0.50345 0.0
C2201 C 0.15853 0.56481 0.50819 0.0
C2202 C 0.14438 0.57663 0.50654 0.0
C2203 C 0.14962 0.59678 0.50446 0.0
C2204 C 0.12413 0.56857 0.50773 0.0
C2205 C 0.15367 0.54293 0.50957 0.0
C2206 C 0.11029 0.57008 0.49218 0.0
C2207 C 0.0911 0.56341 0.49374 0.0
C2208 C 0.08545 0.55527 0.51095 0.0
C2209 C 0.09931 0.55368 0.52644 0.0
C2210 C 0.11847 0.56033 0.52487 0.0
H2211 H 0.16511 0.53536 0.50505 0.0
H2212 H 0.15182 0.54001 0.52508 0.0
H2213 H 0.14028 0.5365 0.50022 0.0
H2214 H 0.11434 0.57651 0.47888 0.0
H2215 H 0.08069 0.56483 0.48159 0.0
H2216 H 0.65751 0.95081 0.76666 0.0
H2217 H 0.67888 0.9272 0.76467 0.0
H2218 H 0.65916 0.90183 0.81637 0.0
H2219 H 0.6375 0.92528 0.81838 0.0
H2220 H 0.70798 0.92264 0.79327 0.0
H2221 H 0.65502 0.85362 0.77709 0.0
H2222 H 0.64884 0.87758 0.77459 0.0
H2223 H 0.6523 0.86869 0.79856 0.0
C2224 C 0.65759 0.94014 0.77756 0.0
C2225 C 0.64575 0.93992 0.79267 0.0
C2226 C 0.66984 0.92666 0.77639 0.0
C2227 C 0.67046 0.91262 0.79023 0.0
C2228 C 0.65866 0.91231 0.80532 0.0
H2229 H 0.7399 0.82132 0.8015 0.0
H2230 H 0.7178 0.84378 0.80711 0.0
C2231 C 0.64637 0.9258 0.80651 0.0
C2232 C 0.68406 0.89891 0.78919 0.0
H2233 H 0.68719 0.85045 0.78189 0.0
C2234 C 0.70344 0.90685 0.79078 0.0
C2235 C 0.6781 0.87831 0.78612 0.0
C2236 C 0.65743 0.86898 0.78383 0.0
C2237 C 0.71705 0.89478 0.78931 0.0
C2238 C 0.71108 0.87423 0.78574 0.0
C2239 C 0.69172 0.86622 0.78456 0.0
C2240 C 0.72466 0.86085 0.78258 0.0
C2241 C 0.73771 0.90415 0.7918 0.0
C2242 C 0.73571 0.86292 0.76684 0.0
C2243 C 0.74828 0.85012 0.76362 0.0
C2244 C 0.74984 0.83491 0.77594 0.0
C2245 C 0.73886 0.83289 0.79173 0.0
C2246 C 0.72626 0.84568 0.79495 0.0
H2247 H 0.74015 0.91886 0.80002 0.0
H2248 H 0.74651 0.89479 0.79971 0.0
H2249 H 0.74255 0.90608 0.77705 0.0
H2250 H 0.73441 0.87426 0.75687 0.0
H2251 H 0.7565 0.8519 0.75126 0.0
H2252 H 0.7134 0.9482 0.49317 0.0
H2253 H 0.6894 0.96667 0.48053 0.0
H2254 H 0.67219 0.97312 0.5388 0.0
H2255 H 0.69652 0.95532 0.55161 0.0
H2256 H 0.6527 0.95695 0.47887 0.0
H2257 H 0.67396 0.02781 0.52323 0.0
H2258 H 0.6895 0.01006 0.52204 0.0
H2259 H 0.67207 0.00829 0.53926 0.0
C2260 C 0.70468 0.95383 0.50333 0.0
C2261 C 0.70685 0.95035 0.5234 0.0
C2262 C 0.691 0.96439 0.49609 0.0
C2263 C 0.67923 0.9716 0.50877 0.0
C2264 C 0.6815 0.96826 0.52884 0.0
H2265 H 0.56554 0.97879 0.4973 0.0
H2266 H 0.59643 0.96995 0.49474 0.0
C2267 C 0.69531 0.95792 0.53613 0.0
C2268 C 0.66342 0.98101 0.50088 0.0
H2269 H 0.64028 0.01853 0.51161 0.0
C2270 C 0.65019 0.97066 0.48571 0.0
C2271 C 0.66037 0.99919 0.50931 0.0
C2272 C 0.67489 0.01205 0.52419 0.0
C2273 C 0.63325 0.97715 0.47998 0.0
C2274 C 0.62921 0.99407 0.49012 0.0
C2275 C 0.64317 0.00533 0.50405 0.0
C2276 C 0.60995 0.99896 0.4885 0.0
C2277 C 0.6197 0.96549 0.46345 0.0
C2278 C 0.60721 0.01827 0.48599 0.0
C2279 C 0.58956 0.02346 0.4879 0.0
C2280 C 0.57447 0.0094 0.49233 0.0
C2281 C 0.57697 0.98991 0.49385 0.0
C2282 C 0.59459 0.98478 0.49215 0.0
H2283 H 0.62751 0.95892 0.45237 0.0
H2284 H 0.61062 0.95323 0.4695 0.0
H2285 H 0.61049 0.97472 0.45593 0.0
H2286 H 0.61889 0.02947 0.48329 0.0
H2287 H 0.58793 0.03859 0.48666 0.0
H2288 H 0.35166 0.47755 0.7044 0.0
H2289 H 0.33736 0.44432 0.7109 0.0
H2290 H 0.31372 0.46779 0.76064 0.0
H2291 H 0.32762 0.50109 0.75402 0.0
H2292 H 0.34462 0.42583 0.74417 0.0
H2293 H 0.26832 0.43022 0.73231 0.0
H2294 H 0.28643 0.44838 0.72435 0.0
H2295 H 0.28196 0.44906 0.74974 0.0
C2296 C 0.34321 0.47567 0.71657 0.0
C2297 C 0.34074 0.49199 0.72866 0.0
C2298 C 0.33507 0.45666 0.72028 0.0
C2299 C 0.32429 0.45357 0.73611 0.0
C2300 C 0.32163 0.46983 0.74808 0.0
H2301 H 0.27363 0.34732 0.78676 0.0
H2302 H 0.28634 0.38136 0.78103 0.0
C2303 C 0.32967 0.48887 0.74432 0.0
C2304 C 0.31677 0.43329 0.74073 0.0
H2305 H 0.27613 0.4018 0.74649 0.0
C2306 C 0.32964 0.42055 0.74459 0.0
C2307 C 0.29723 0.42646 0.74138 0.0
C2308 C 0.28265 0.43917 0.73655 0.0
C2309 C 0.3235 0.40123 0.74919 0.0
C2310 C 0.30398 0.39441 0.74977 0.0
C2311 C 0.29111 0.40715 0.74611 0.0
C2312 C 0.29659 0.37385 0.75345 0.0
C2313 C 0.33796 0.3883 0.75361 0.0
C2314 C 0.29807 0.35843 0.73976 0.0
C2315 C 0.2908 0.33903 0.74294 0.0
C2316 C 0.28189 0.33466 0.75988 0.0
C2317 C 0.28048 0.35016 0.77361 0.0
C2318 C 0.28768 0.36961 0.77035 0.0
H2319 H 0.35249 0.397 0.75714 0.0
H2320 H 0.3345 0.37945 0.76615 0.0
H2321 H 0.3379 0.378 0.7405 0.0
H2322 H 0.30467 0.36144 0.72649 0.0
H2323 H 0.29213 0.32749 0.73203 0.0
H2324 H 0.17759 0.53147 0.24526 0.0
H2325 H 0.19771 0.56369 0.2452 0.0
H2326 H 0.1723 0.58526 0.29456 0.0
H2327 H 0.15233 0.55309 0.29493 0.0
H2328 H 0.18552 0.59864 0.2395 0.0
H2329 H 0.22857 0.60364 0.31206 0.0
H2330 H 0.21496 0.58075 0.30044 0.0
H2331 H 0.20358 0.59784 0.31357 0.0
C2332 C 0.17642 0.54301 0.25625 0.0
C2333 C 0.16337 0.5397 0.27012 0.0
C2334 C 0.18794 0.5614 0.25619 0.0
C2335 C 0.18671 0.57678 0.27006 0.0
C2336 C 0.17381 0.57348 0.28402 0.0
H2337 H 0.2226 0.70116 0.28917 0.0
H2338 H 0.21019 0.66618 0.29049 0.0
C2339 C 0.1623 0.5551 0.28411 0.0
C2340 C 0.19794 0.59664 0.26911 0.0
H2341 H 0.22888 0.63366 0.2965 0.0
C2342 C 0.19521 0.60622 0.25185 0.0
C2343 C 0.21055 0.60647 0.28526 0.0
C2344 C 0.21476 0.59659 0.30381 0.0
C2345 C 0.20415 0.62566 0.25059 0.0
C2346 C 0.21639 0.63566 0.26692 0.0
C2347 C 0.21948 0.62594 0.28402 0.0
C2348 C 0.22517 0.6566 0.26693 0.0
C2349 C 0.19983 0.63561 0.23209 0.0
C2350 C 0.23807 0.66273 0.25357 0.0
C2351 C 0.24517 0.68272 0.25277 0.0
C2352 C 0.23949 0.69681 0.26538 0.0
C2353 C 0.22713 0.69059 0.27922 0.0
C2354 C 0.22007 0.67063 0.28002 0.0
H2355 H 0.18726 0.62727 0.22257 0.0
H2356 H 0.19728 0.65069 0.23578 0.0
H2357 H 0.21213 0.6368 0.22348 0.0
H2358 H 0.24242 0.65207 0.24356 0.0
H2359 H 0.25476 0.68716 0.24203 0.0
H2360 H 0.51808 0.72957 0.38659 0.0
H2361 H 0.51472 0.69982 0.40428 0.0
H2362 H 0.52391 0.73517 0.4597 0.0
H2363 H 0.52709 0.76502 0.44216 0.0
H2364 H 0.54114 0.68852 0.43201 0.0
H2365 H 0.47495 0.6963 0.46413 0.0
H2366 H 0.483 0.71019 0.4442 0.0
H2367 H 0.4936 0.71736 0.46908 0.0
C2368 C 0.51933 0.73104 0.40254 0.0
C2369 C 0.52279 0.74968 0.41296 0.0
C2370 C 0.51741 0.71402 0.41262 0.0
C2371 C 0.5188 0.71529 0.43328 0.0
C2372 C 0.52241 0.73385 0.44374 0.0
H2373 H 0.53775 0.62033 0.50627 0.0
H2374 H 0.53973 0.65192 0.49167 0.0
C2375 C 0.52434 0.7509 0.43368 0.0
C2376 C 0.51703 0.69716 0.44385 0.0
H2377 H 0.49049 0.67072 0.47493 0.0
C2378 C 0.53007 0.68461 0.4414 0.0
C2379 C 0.50245 0.69204 0.45592 0.0
C2380 C 0.48758 0.70456 0.45841 0.0
C2381 C 0.52904 0.66713 0.45082 0.0
C2382 C 0.51473 0.66222 0.46325 0.0
C2383 C 0.50156 0.67466 0.46557 0.0
C2384 C 0.51286 0.64383 0.47338 0.0
C2385 C 0.54302 0.65383 0.44707 0.0
C2386 C 0.49678 0.62914 0.46848 0.0
C2387 C 0.4956 0.61115 0.47684 0.0
C2388 C 0.51044 0.60763 0.49031 0.0
C2389 C 0.52616 0.62265 0.49584 0.0
C2390 C 0.52735 0.64063 0.48745 0.0
H2391 H 0.55023 0.65745 0.43383 0.0
H2392 H 0.554 0.65555 0.45995 0.0
H2393 H 0.53589 0.63821 0.44505 0.0
H2394 H 0.4854 0.63138 0.45775 0.0
H2395 H 0.48327 0.59983 0.47243 0.0
H2396 H 0.55826 0.25589 0.65376 0.0
H2397 H 0.58989 0.26058 0.67155 0.0
H2398 H 0.57101 0.29151 0.72026 0.0
H2399 H 0.53896 0.28632 0.70267 0.0
H2400 H 0.61421 0.29371 0.68375 0.0
H2401 H 0.59688 0.25216 0.74828 0.0
H2402 H 0.58027 0.25108 0.72651 0.0
H2403 H 0.58403 0.27185 0.74446 0.0
C2404 C 0.56075 0.26362 0.6683 0.0
C2405 C 0.54605 0.27067 0.67683 0.0
C2406 C 0.57889 0.26631 0.67846 0.0
C2407 C 0.58283 0.27621 0.69734 0.0
C2408 C 0.56823 0.28345 0.70589 0.0
H2409 H 0.7025 0.31281 0.74594 0.0
H2410 H 0.66946 0.31379 0.73444 0.0
C2411 C 0.54995 0.28057 0.69578 0.0
C2412 C 0.60237 0.2791 0.70768 0.0
H2413 H 0.62859 0.26802 0.74853 0.0
C2414 C 0.61735 0.28818 0.69797 0.0
C2415 C 0.60647 0.27173 0.72616 0.0
C2416 C 0.59111 0.261 0.73692 0.0
C2417 C 0.6363 0.28968 0.70594 0.0
C2418 C 0.6404 0.28242 0.72448 0.0
C2419 C 0.62541 0.27373 0.73441 0.0
C2420 C 0.66014 0.28229 0.73305 0.0
C2421 C 0.65172 0.29821 0.69398 0.0
C2422 C 0.66573 0.26438 0.73694 0.0
C2423 C 0.68451 0.26379 0.7438 0.0
C2424 C 0.69816 0.28113 0.74687 0.0
C2425 C 0.69241 0.29916 0.74356 0.0
C2426 C 0.67354 0.29974 0.73687 0.0
H2427 H 0.64629 0.29854 0.67824 0.0
H2428 H 0.65764 0.31353 0.69993 0.0
H2429 H 0.66339 0.28964 0.69478 0.0
H2430 H 0.65565 0.25073 0.73416 0.0
H2431 H 0.68838 0.24964 0.74617 0.0
H2432 H 0.03466 0.35419 0.89009 0.0
H2433 H 0.03262 0.38565 0.90736 0.0
H2434 H 0.00702 0.35501 0.95354 0.0
H2435 H 0.00942 0.32366 0.93671 0.0
H2436 H 0.00121 0.399 0.916 0.0
H2437 H 0.04681 0.39587 0.98541 0.0
H2438 H 0.04651 0.37935 0.96388 0.0
H2439 H 0.02854 0.37458 0.98024 0.0
C2440 C 0.02883 0.35417 0.90406 0.0
C2441 C 0.02227 0.3364 0.91205 0.0
C2442 C 0.02765 0.37216 0.9139 0.0
C2443 C 0.01995 0.37273 0.93192 0.0
C2444 C 0.01349 0.35501 0.93994 0.0
H2445 H 0.97783 0.45803 0.00433 0.0
H2446 H 0.98528 0.42842 0.9874 0.0
C2447 C 0.01476 0.33705 0.9302 0.0
C2448 C 0.01754 0.39171 0.94175 0.0
H2449 H 0.02614 0.41952 0.98585 0.0
C2450 C 0.00687 0.4036 0.93119 0.0
C2451 C 0.02495 0.39774 0.96159 0.0
C2452 C 0.0375 0.38631 0.97337 0.0
C2453 C 0.0029 0.42099 0.94012 0.0
C2454 C 0.0098 0.42662 0.96009 0.0
C2455 C 0.02075 0.415 0.97057 0.0
C2456 C 0.00553 0.44445 0.9704 0.0
C2457 C 0.99096 0.43302 0.92837 0.0
C2458 C 0.01448 0.46316 0.96639 0.0
C2459 C 0.01031 0.47997 0.97609 0.0
C2460 C 0.99723 0.47828 0.98996 0.0
C2461 C 0.9881 0.45959 0.99379 0.0
C2462 C 0.99236 0.44276 0.9842 0.0
H2463 H 0.98477 0.42541 0.9138 0.0
H2464 H 0.9793 0.43635 0.93669 0.0
H2465 H 0.99981 0.44721 0.92593 0.0
H2466 H 0.02462 0.46473 0.95571 0.0
H2467 H 0.01698 0.49426 0.9724 0.0
H2468 H 0.95296 0.78221 0.20213 0.0
H2469 H 0.92578 0.78438 0.22035 0.0
H2470 H 0.89095 0.7396 0.17948 0.0
H2471 H 0.91795 0.73731 0.16115 0.0
H2472 H 0.88916 0.79299 0.20358 0.0
H2473 H 0.88312 0.72066 0.23548 0.0
H2474 H 0.90456 0.73247 0.22652 0.0
H2475 H 0.88486 0.72035 0.20943 0.0
C2476 C 0.93956 0.77272 0.19709 0.0
C2477 C 0.93765 0.75956 0.18019 0.0
C2478 C 0.92405 0.77402 0.20749 0.0
C2479 C 0.90643 0.76202 0.20136 0.0
C2480 C 0.90449 0.7488 0.1846 0.0
H2481 H 0.79613 0.74666 0.24464 0.0
H2482 H 0.82333 0.74415 0.22652 0.0
C2483 C 0.91994 0.74758 0.1741 0.0
C2484 C 0.8899 0.76376 0.21209 0.0
H2485 H 0.85874 0.73876 0.23997 0.0
C2486 C 0.88254 0.78119 0.21163 0.0
C2487 C 0.88123 0.74826 0.2224 0.0
C2488 C 0.88887 0.7294 0.22368 0.0
C2489 C 0.86651 0.78345 0.22098 0.0
C2490 C 0.85794 0.76803 0.2315 0.0
C2491 C 0.86532 0.75057 0.23192 0.0
C2492 C 0.84137 0.76975 0.24228 0.0
C2493 C 0.85865 0.80214 0.21904 0.0
C2494 C 0.84254 0.78479 0.25733 0.0
C2495 C 0.82693 0.7864 0.26743 0.0
C2496 C 0.80992 0.77291 0.2628 0.0
C2497 C 0.8089 0.75757 0.24811 0.0
C2498 C 0.82448 0.75602 0.2379 0.0
H2499 H 0.86323 0.80972 0.20605 0.0
H2500 H 0.84294 0.79916 0.21766 0.0
H2501 H 0.86392 0.81231 0.23238 0.0
H2502 H 0.85557 0.79523 0.26135 0.0
H2503 H 0.82815 0.79827 0.27883 0.0
H2504 H 0.54177 0.33275 0.08061 0.0
H2505 H 0.54644 0.36191 0.06198 0.0
H2506 H 0.48864 0.3685 0.06625 0.0
H2507 H 0.48377 0.33941 0.08473 0.0
H2508 H 0.50122 0.37184 0.02748 0.0
H2509 H 0.54942 0.41906 0.08728 0.0
H2510 H 0.55536 0.39569 0.08003 0.0
H2511 H 0.53444 0.39653 0.09187 0.0
C2512 C 0.53004 0.34038 0.07753 0.0
C2513 C 0.51242 0.33385 0.08422 0.0
C2514 C 0.53276 0.35704 0.06696 0.0
C2515 C 0.51792 0.36737 0.06295 0.0
C2516 C 0.50025 0.36068 0.06926 0.0
H2517 H 0.50327 0.48091 0.03727 0.0
H2518 H 0.50749 0.44993 0.0506 0.0
C2519 C 0.49752 0.3441 0.07986 0.0
C2520 C 0.52068 0.38539 0.05245 0.0
H2521 H 0.54103 0.43386 0.05851 0.0
C2522 C 0.51012 0.38537 0.03408 0.0
C2523 C 0.53224 0.40293 0.06127 0.0
C2524 C 0.54347 0.40375 0.08125 0.0
C2525 C 0.5103 0.40269 0.02452 0.0
C2526 C 0.52151 0.42034 0.03356 0.0
C2527 C 0.53258 0.42021 0.05162 0.0
C2528 C 0.52024 0.43944 0.02566 0.0
C2529 C 0.49775 0.4022 0.00538 0.0
C2530 C 0.52626 0.44385 0.00733 0.0
C2531 C 0.52388 0.46161 0.99968 0.0
C2532 C 0.51555 0.47513 0.01034 0.0
C2533 C 0.50987 0.47079 0.02882 0.0
C2534 C 0.51226 0.45312 0.03644 0.0
H2535 H 0.48775 0.38801 0.00202 0.0
H2536 H 0.48947 0.41428 0.00588 0.0
H2537 H 0.50666 0.40431 0.99315 0.0
H2538 H 0.53264 0.43351 0.99893 0.0
H2539 H 0.52842 0.4647 0.98542 0.0
H2540 H 0.96997 0.27853 0.38368 0.0
H2541 H 0.93896 0.27659 0.36515 0.0
H2542 H 0.94103 0.21812 0.34104 0.0
H2543 H 0.97239 0.22001 0.3594 0.0
H2544 H 0.9289 0.2424 0.31292 0.0
H2545 H 0.88947 0.24432 0.37805 0.0
H2546 H 0.90924 0.26416 0.37956 0.0
H2547 H 0.91325 0.23925 0.37945 0.0
C2548 C 0.96385 0.2652 0.37451 0.0
C2549 C 0.97359 0.24936 0.37311 0.0
C2550 C 0.94608 0.26409 0.364 0.0
C2551 C 0.9376 0.24708 0.35205 0.0
C2552 C 0.94733 0.23132 0.35034 0.0
H2553 H 0.81865 0.23797 0.30763 0.0
H2554 H 0.84843 0.2294 0.32164 0.0
C2555 C 0.9652 0.23242 0.36084 0.0
C2556 C 0.91867 0.2461 0.34115 0.0
H2557 H 0.87384 0.2522 0.34775 0.0
C2558 C 0.91675 0.24425 0.32048 0.0
C2559 C 0.90281 0.24815 0.35109 0.0
C2560 C 0.90371 0.24887 0.37326 0.0
C2561 C 0.89954 0.24542 0.30945 0.0
C2562 C 0.88408 0.24891 0.31943 0.0
C2563 C 0.88578 0.24976 0.3401 0.0
C2564 C 0.86623 0.25262 0.30896 0.0
C2565 C 0.89815 0.24301 0.28726 0.0
C2566 C 0.86637 0.26841 0.29704 0.0
C2567 C 0.84937 0.27323 0.28891 0.0
C2568 C 0.83204 0.26254 0.2929 0.0
C2569 C 0.83189 0.24653 0.30448 0.0
C2570 C 0.84885 0.24158 0.31243 0.0
H2571 H 0.90849 0.23417 0.28225 0.0
H2572 H 0.88371 0.23583 0.28072 0.0
H2573 H 0.90141 0.25769 0.28154 0.0
H2574 H 0.87959 0.27743 0.29458 0.0
H2575 H 0.8498 0.28568 0.28005 0.0
H2576 H 0.97029 0.73106 0.58467 0.0
H2577 H 0.96897 0.6983 0.5685 0.0
H2578 H 0.01115 0.72205 0.53197 0.0
H2579 H 0.01267 0.75487 0.54807 0.0
H2580 H 0.96283 0.68319 0.52619 0.0
H2581 H 0.03414 0.68066 0.56452 0.0
H2582 H 0.01996 0.69814 0.5723 0.0
H2583 H 0.03217 0.7017 0.55088 0.0
C2584 C 0.97913 0.72938 0.57303 0.0
C2585 C 0.99177 0.74552 0.56781 0.0
C2586 C 0.9783 0.71067 0.56378 0.0
C2587 C 0.99012 0.70782 0.54925 0.0
C2588 C 0.00206 0.72401 0.54332 0.0
H2589 H 0.02088 0.60039 0.50165 0.0
H2590 H 0.01697 0.63454 0.50696 0.0
C2591 C 0.00289 0.74273 0.55253 0.0
C2592 C 0.99101 0.68772 0.54145 0.0
H2593 H 0.01949 0.6533 0.54311 0.0
C2594 C 0.97522 0.67662 0.52976 0.0
C2595 C 0.00721 0.6793 0.54622 0.0
C2596 C 0.02432 0.69045 0.55928 0.0
C2597 C 0.97525 0.65719 0.5226 0.0
C2598 C 0.99136 0.64867 0.52766 0.0
C2599 C 0.00721 0.65991 0.53916 0.0
C2600 C 0.99198 0.62786 0.52201 0.0
C2601 C 0.95815 0.64608 0.50957 0.0
C2602 C 0.97907 0.61276 0.52849 0.0
C2603 C 0.98119 0.59319 0.52537 0.0
C2604 C 0.99645 0.58845 0.51599 0.0
C2605 C 0.00903 0.60357 0.50901 0.0
C2606 C 0.0068 0.62309 0.51199 0.0
H2607 H 0.94982 0.65622 0.50225 0.0
H2608 H 0.9623 0.63615 0.49808 0.0
H2609 H 0.94881 0.63702 0.51871 0.0
H2610 H 0.96782 0.61614 0.5367 0.0
H2611 H 0.97137 0.58191 0.5311 0.0
H2612 H 0.57522 0.77222 0.88455 0.0
H2613 H 0.6012 0.77519 0.86411 0.0
H2614 H 0.56771 0.7997 0.81953 0.0
H2615 H 0.54151 0.79682 0.83993 0.0
H2616 H 0.58655 0.76792 0.80591 0.0
H2617 H 0.63478 0.82795 0.85276 0.0
H2618 H 0.62477 0.80788 0.86602 0.0
H2619 H 0.60957 0.82268 0.85413 0.0
C2620 C 0.57334 0.77828 0.87043 0.0
C2621 C 0.55633 0.78435 0.86389 0.0
C2622 C 0.58823 0.78005 0.85882 0.0
C2623 C 0.58639 0.7879 0.84049 0.0
C2624 C 0.56938 0.79374 0.83374 0.0
H2625 H 0.6875 0.81298 0.77935 0.0
H2626 H 0.65707 0.81601 0.79105 0.0
C2627 C 0.55447 0.79209 0.84541 0.0
C2628 C 0.6022 0.78948 0.8283 0.0
H2629 H 0.64873 0.80992 0.82911 0.0
C2630 C 0.60008 0.7773 0.81077 0.0
C2631 C 0.61969 0.80196 0.83459 0.0
C2632 C 0.62236 0.81602 0.85281 0.0
C2633 C 0.61542 0.77647 0.79991 0.0
C2634 C 0.63326 0.78797 0.80695 0.0
C2635 C 0.63506 0.80098 0.82386 0.0
C2636 C 0.65058 0.78571 0.79795 0.0
C2637 C 0.6125 0.76308 0.7812 0.0
C2638 C 0.65694 0.76769 0.79798 0.0
C2639 C 0.6743 0.76596 0.7914 0.0
C2640 C 0.68554 0.78226 0.78477 0.0
C2641 C 0.67901 0.80019 0.78435 0.0
C2642 C 0.66167 0.80193 0.791 0.0
H2643 H 0.59743 0.76009 0.77475 0.0
H2644 H 0.62135 0.7695 0.77006 0.0
H2645 H 0.61659 0.74883 0.78457 0.0
H2646 H 0.64878 0.75513 0.80371 0.0
H2647 H 0.6791 0.75202 0.79193 0.0
H2648 H 0.38838 0.54181 0.6803 0.0
H2649 H 0.40861 0.54117 0.65383 0.0
H2650 H 0.44414 0.59481 0.68019 0.0
H2651 H 0.42418 0.59541 0.70695 0.0
H2652 H 0.41786 0.56804 0.62673 0.0
H2653 H 0.48194 0.55788 0.67445 0.0
H2654 H 0.4588 0.55486 0.68283 0.0
H2655 H 0.47223 0.57904 0.68173 0.0
C2656 C 0.40047 0.5535 0.68047 0.0
C2657 C 0.40475 0.56859 0.69581 0.0
C2658 C 0.41201 0.55311 0.66532 0.0
C2659 C 0.42804 0.56776 0.66523 0.0
C2660 C 0.43207 0.58313 0.68022 0.0
H2661 H 0.48868 0.57875 0.56072 0.0
H2662 H 0.47288 0.58684 0.58929 0.0
C2663 C 0.42058 0.5835 0.69544 0.0
C2664 C 0.44049 0.56681 0.64941 0.0
H2665 H 0.48523 0.56167 0.64083 0.0
C2666 C 0.43261 0.56675 0.62979 0.0
C2667 C 0.45968 0.56493 0.65349 0.0
C2668 C 0.46868 0.564 0.67424 0.0
C2669 C 0.44335 0.56465 0.61408 0.0
C2670 C 0.4626 0.56296 0.61817 0.0
C2671 C 0.47053 0.56321 0.63779 0.0
C2672 C 0.47426 0.55935 0.6022 0.0
C2673 C 0.4338 0.5635 0.59324 0.0
C2674 C 0.48113 0.54167 0.60056 0.0
C2675 C 0.49034 0.53707 0.58439 0.0
C2676 C 0.49286 0.55011 0.56954 0.0
C2677 C 0.4869 0.56832 0.57181 0.0
C2678 C 0.47773 0.57293 0.58805 0.0
H2679 H 0.41812 0.56065 0.59267 0.0
H2680 H 0.43812 0.57766 0.58683 0.0
H2681 H 0.43805 0.55172 0.58387 0.0
H2682 H 0.47869 0.53105 0.61139 0.0
H2683 H 0.4948 0.52295 0.58318 0.0
H2684 H 0.75201 0.19927 0.95634 0.0
H2685 H 0.75032 0.21616 0.92618 0.0
H2686 H 0.80476 0.20327 0.91482 0.0
H2687 H 0.80681 0.18674 0.94543 0.0
H2688 H 0.80195 0.2403 0.9072 0.0
H2689 H 0.73794 0.19022 0.87112 0.0
H2690 H 0.73407 0.201 0.89452 0.0
H2691 H 0.75105 0.18484 0.89338 0.0
C2692 C 0.76366 0.2 0.94746 0.0
C2693 C 0.77949 0.1915 0.95323 0.0
C2694 C 0.7626 0.20956 0.93011 0.0
C2695 C 0.77717 0.21056 0.91792 0.0
C2696 C 0.79325 0.20254 0.92388 0.0
H2697 H 0.76208 0.2441 0.79702 0.0
H2698 H 0.76655 0.22616 0.82628 0.0
C2699 C 0.79441 0.1931 0.94139 0.0
C2700 C 0.77564 0.22019 0.89911 0.0
H2701 H 0.74646 0.22049 0.85657 0.0
C2702 C 0.78989 0.23587 0.89606 0.0
C2703 C 0.7601 0.21418 0.88434 0.0
C2704 C 0.74504 0.1965 0.88589 0.0
C2705 C 0.78873 0.24609 0.87898 0.0
C2706 C 0.77261 0.24084 0.86479 0.0
C2707 C 0.75867 0.22475 0.86756 0.0
C2708 C 0.76986 0.25178 0.84698 0.0
C2709 C 0.80494 0.2622 0.87621 0.0
C2710 C 0.76996 0.2721 0.84877 0.0
C2711 C 0.76727 0.28229 0.83198 0.0
C2712 C 0.76394 0.27229 0.81312 0.0
C2713 C 0.76373 0.25199 0.81134 0.0
C2714 C 0.7666 0.24181 0.82809 0.0
H2715 H 0.81832 0.2602 0.88476 0.0
H2716 H 0.80723 0.26275 0.86044 0.0
H2717 H 0.80171 0.27655 0.88158 0.0
H2718 H 0.77198 0.28009 0.86316 0.0
H2719 H 0.76759 0.29799 0.83376 0.0
H2720 H 0.06238 0.51928 0.23784 0.0
H2721 H 0.04822 0.5208 0.20406 0.0
H2722 H 0.0861 0.48482 0.18245 0.0
H2723 H 0.09996 0.48278 0.21616 0.0
H2724 H 0.06493 0.53633 0.17405 0.0
H2725 H 0.03653 0.45753 0.1531 0.0
H2726 H 0.0445 0.46694 0.17829 0.0
H2727 H 0.0613 0.46202 0.16177 0.0
C2728 C 0.06753 0.51147 0.22592 0.0
C2729 C 0.08225 0.50083 0.22973 0.0
C2730 C 0.05943 0.51237 0.20661 0.0
C2731 C 0.06588 0.50268 0.1907 0.0
C2732 C 0.08052 0.49199 0.19448 0.0
H2733 H 0.05044 0.50734 0.06391 0.0
H2734 H 0.0614 0.50263 0.09806 0.0
C2735 C 0.08852 0.49093 0.21379 0.0
C2736 C 0.05807 0.50474 0.17013 0.0
H2737 H 0.03801 0.47871 0.12681 0.0
C2738 C 0.05889 0.52373 0.1638 0.0
C2739 C 0.05018 0.48828 0.15671 0.0
C2740 C 0.04789 0.46756 0.16285 0.0
C2741 C 0.0524 0.52668 0.14435 0.0
C2742 C 0.04486 0.51024 0.13091 0.0
C2743 C 0.04392 0.49126 0.13719 0.0
C2744 C 0.03788 0.51255 0.11025 0.0
C2745 C 0.05393 0.54733 0.13814 0.0
C2746 C 0.02092 0.51947 0.10585 0.0
C2747 C 0.01454 0.52207 0.08637 0.0
C2748 C 0.02507 0.51789 0.07092 0.0
C2749 C 0.042 0.51078 0.07542 0.0
C2750 C 0.04828 0.50803 0.09491 0.0
H2751 H 0.06259 0.55833 0.14945 0.0
H2752 H 0.06028 0.54851 0.12405 0.0
H2753 H 0.03955 0.55102 0.13564 0.0
H2754 H 0.01266 0.52294 0.11752 0.0
H2755 H 0.00147 0.52762 0.08347 0.0
H2756 H 0.75492 0.83394 0.51363 0.0
H2757 H 0.75551 0.80998 0.48583 0.0
H2758 H 0.7289 0.84586 0.44638 0.0
H2759 H 0.72828 0.86981 0.47387 0.0
H2760 H 0.71522 0.80146 0.44124 0.0
H2761 H 0.79305 0.82749 0.44333 0.0
H2762 H 0.78334 0.82044 0.4656 0.0
H2763 H 0.7783 0.84221 0.45498 0.0
C2764 C 0.74893 0.83655 0.49907 0.0
C2765 C 0.74176 0.85386 0.49585 0.0
C2766 C 0.74929 0.82287 0.48327 0.0
C2767 C 0.74234 0.8263 0.46415 0.0
C2768 C 0.7343 0.84301 0.46109 0.0
H2769 H 0.73309 0.80395 0.34313 0.0
H2770 H 0.72855 0.8089 0.3778 0.0
C2771 C 0.73405 0.85672 0.47679 0.0
C2772 C 0.74493 0.8137 0.44687 0.0
H2773 H 0.77747 0.80833 0.41519 0.0
C2774 C 0.72888 0.80253 0.43569 0.0
C2775 C 0.76281 0.81505 0.43987 0.0
C2776 C 0.78043 0.82695 0.45145 0.0
C2777 C 0.73008 0.79356 0.41704 0.0
C2778 C 0.74768 0.79637 0.40929 0.0
C2779 C 0.76396 0.8063 0.42113 0.0
C2780 C 0.74919 0.79149 0.38823 0.0
C2781 C 0.71238 0.78167 0.40563 0.0
C2782 C 0.76265 0.78047 0.3826 0.0
C2783 C 0.76551 0.77794 0.36278 0.0
C2784 C 0.755 0.78647 0.34838 0.0
C2785 C 0.74134 0.7972 0.35398 0.0
C2786 C 0.73857 0.79981 0.37375 0.0
H2787 H 0.70261 0.7747 0.41574 0.0
H2788 H 0.70483 0.79154 0.39694 0.0
H2789 H 0.7157 0.77003 0.39536 0.0
H2790 H 0.77115 0.77414 0.39358 0.0
H2791 H 0.77609 0.76955 0.35876 0.0
H2792 H 0.39856 0.57516 0.79331 0.0
H2793 H 0.41739 0.5769 0.82538 0.0
H2794 H 0.43578 0.52296 0.80824 0.0
H2795 H 0.41732 0.52129 0.77603 0.0
H2796 H 0.41237 0.55002 0.85254 0.0
H2797 H 0.4852 0.55741 0.83164 0.0
H2798 H 0.46547 0.56145 0.81492 0.0
H2799 H 0.4694 0.53689 0.81838 0.0
C2800 C 0.40682 0.5638 0.79627 0.0
C2801 C 0.40644 0.54806 0.78214 0.0
C2802 C 0.41757 0.56483 0.81459 0.0
C2803 C 0.42817 0.55021 0.81908 0.0
C2804 C 0.42806 0.53466 0.8049 0.0
H2805 H 0.48347 0.50898 0.92024 0.0
H2806 H 0.46911 0.51508 0.88775 0.0
C2807 C 0.41739 0.53365 0.78654 0.0
C2808 C 0.43813 0.55033 0.83911 0.0
H2809 H 0.48086 0.54757 0.86411 0.0
C2810 C 0.42741 0.54978 0.85513 0.0
C2811 C 0.45773 0.55004 0.84241 0.0
C2812 C 0.47016 0.55168 0.82594 0.0
C2813 C 0.43562 0.5481 0.87428 0.0
C2814 C 0.45507 0.54717 0.87745 0.0
C2815 C 0.46592 0.54823 0.86155 0.0
C2816 C 0.46418 0.54399 0.89701 0.0
C2817 C 0.42329 0.54657 0.89084 0.0
C2818 C 0.4663 0.55836 0.91285 0.0
C2819 C 0.47449 0.5549 0.93142 0.0
C2820 C 0.48066 0.53705 0.93432 0.0
C2821 C 0.47875 0.52283 0.91838 0.0
C2822 C 0.47062 0.5263 0.89984 0.0
H2823 H 0.40798 0.54407 0.88533 0.0
H2824 H 0.42604 0.5344 0.89991 0.0
H2825 H 0.4267 0.56043 0.90056 0.0
H2826 H 0.46161 0.5722 0.91084 0.0
H2827 H 0.47594 0.56614 0.94349 0.0
H2828 H 0.81042 0.1886 0.06358 0.0
H2829 H 0.80967 0.20389 0.09676 0.0
H2830 H 0.75317 0.21399 0.07987 0.0
H2831 H 0.75365 0.19855 0.04695 0.0
H2832 H 0.80411 0.24126 0.11004 0.0
H2833 H 0.74672 0.18373 0.12857 0.0
H2834 H 0.75944 0.18065 0.10756 0.0
H2835 H 0.74057 0.19459 0.10624 0.0
C2836 C 0.79786 0.19415 0.06692 0.0
C2837 C 0.78202 0.19217 0.05264 0.0
C2838 C 0.79746 0.20287 0.08588 0.0
C2839 C 0.78121 0.20971 0.09092 0.0
C2840 C 0.76568 0.20839 0.07648 0.0
H2841 H 0.74363 0.26533 0.19219 0.0
H2842 H 0.74833 0.25195 0.15956 0.0
C2843 C 0.76603 0.19963 0.0576 0.0
C2844 C 0.78031 0.21811 0.11126 0.0
H2845 H 0.75441 0.21288 0.1503 0.0
C2846 C 0.79335 0.23497 0.11893 0.0
C2847 C 0.76632 0.20983 0.12289 0.0
C2848 C 0.75258 0.19109 0.116 0.0
C2849 C 0.79236 0.24416 0.13763 0.0
C2850 C 0.77807 0.23613 0.149 0.0
C2851 C 0.76526 0.21909 0.14148 0.0
C2852 C 0.77594 0.24527 0.16867 0.0
C2853 C 0.80624 0.26269 0.14485 0.0
C2854 C 0.78992 0.24596 0.18467 0.0
C2855 C 0.78727 0.25358 0.20342 0.0
C2856 C 0.77056 0.26064 0.20654 0.0
C2857 C 0.7567 0.26012 0.19038 0.0
C2858 C 0.75934 0.25244 0.17169 0.0
H2859 H 0.81374 0.2692 0.13278 0.0
H2860 H 0.79892 0.27379 0.15165 0.0
H2861 H 0.81697 0.25924 0.15627 0.0
H2862 H 0.8027 0.2402 0.18275 0.0
H2863 H 0.79821 0.25362 0.21551 0.0
H2864 H 0.08042 0.47714 0.32651 0.0
H2865 H 0.06225 0.47807 0.35484 0.0
H2866 H 0.08314 0.5403 0.36596 0.0
H2867 H 0.10096 0.53961 0.33761 0.0
H2868 H 0.07448 0.48923 0.3942 0.0
H2869 H 0.02649 0.53754 0.36476 0.0
H2870 H 0.04097 0.52581 0.34948 0.0
H2871 H 0.05102 0.54795 0.36478 0.0
C2872 C 0.08105 0.49104 0.33493 0.0
C2873 C 0.09203 0.50833 0.32968 0.0
C2874 C 0.07069 0.49154 0.35112 0.0
C2875 C 0.07106 0.50932 0.3623 0.0
C2876 C 0.08225 0.5265 0.35727 0.0
H2877 H 0.0264 0.54811 0.46756 0.0
H2878 H 0.04371 0.54462 0.43887 0.0
C2879 C 0.09253 0.52605 0.34109 0.0
C2880 C 0.06012 0.50997 0.3795 0.0
H2881 H 0.02704 0.53277 0.39902 0.0
C2882 C 0.06398 0.4986 0.39519 0.0
C2883 C 0.04639 0.52219 0.38075 0.0
C2884 C 0.04081 0.53391 0.36396 0.0
C2885 C 0.0549 0.49958 0.41235 0.0
C2886 C 0.04149 0.51213 0.41374 0.0
C2887 C 0.03744 0.52328 0.39796 0.0
C2888 C 0.03149 0.51395 0.43145 0.0
C2889 C 0.06006 0.48761 0.42908 0.0
C2890 C 0.01882 0.49791 0.43669 0.0
C2891 C 0.00897 0.49989 0.45305 0.0
C2892 C 0.01166 0.51792 0.46445 0.0
C2893 C 0.02431 0.53397 0.45918 0.0
C2894 C 0.0341 0.53202 0.44277 0.0
H2895 H 0.07344 0.4821 0.42747 0.0
H2896 H 0.0616 0.49644 0.44346 0.0
H2897 H 0.0486 0.47475 0.42934 0.0
H2898 H 0.01637 0.48394 0.42797 0.0
H2899 H 0.99927 0.48729 0.4568 0.0
H2900 H 0.69488 0.8601 0.56109 0.0
H2901 H 0.69158 0.84172 0.59033 0.0
H2902 H 0.74249 0.87803 0.61987 0.0
H2903 H 0.7459 0.89649 0.59084 0.0
H2904 H 0.71906 0.82072 0.60623 0.0
H2905 H 0.70491 0.87666 0.66144 0.0
H2906 H 0.70148 0.87898 0.63521 0.0
H2907 H 0.72477 0.88533 0.64855 0.0
C2908 C 0.70519 0.86439 0.57394 0.0
C2909 C 0.72068 0.87972 0.57365 0.0
C2910 C 0.70328 0.85386 0.59059 0.0
C2911 C 0.71667 0.85868 0.60729 0.0
C2912 C 0.73182 0.87433 0.60724 0.0
H2913 H 0.76525 0.79931 0.69637 0.0
H2914 H 0.75436 0.81242 0.66589 0.0
C2915 C 0.73381 0.88478 0.59059 0.0
C2916 C 0.71593 0.84639 0.62415 0.0
H2917 H 0.71708 0.84916 0.67418 0.0
C2918 C 0.71826 0.82679 0.62106 0.0
C2919 C 0.71463 0.85429 0.64339 0.0
C2920 C 0.71112 0.87492 0.64737 0.0
C2921 C 0.72055 0.81525 0.63694 0.0
C2922 C 0.7207 0.82365 0.65632 0.0
C2923 C 0.71713 0.84282 0.65929 0.0
C2924 C 0.72628 0.81356 0.67378 0.0
C2925 C 0.72328 0.79435 0.63288 0.0
C2926 C 0.71408 0.80989 0.68833 0.0
C2927 C 0.72028 0.80241 0.70585 0.0
C2928 C 0.73887 0.79875 0.70917 0.0
C2929 C 0.75085 0.80195 0.6943 0.0
C2930 C 0.74461 0.80932 0.67679 0.0
H2931 H 0.71704 0.78835 0.61775 0.0
H2932 H 0.73865 0.79396 0.63413 0.0
H2933 H 0.71681 0.78471 0.64365 0.0
H2934 H 0.69993 0.81324 0.68632 0.0
H2935 H 0.71072 0.80022 0.71704 0.0
H2936 H 0.66673 0.42543 0.50519 0.0
H2937 H 0.63971 0.44261 0.50293 0.0
H2938 H 0.6593 0.47229 0.56046 0.0
H2939 H 0.68636 0.45531 0.56283 0.0
H2940 H 0.61065 0.44347 0.52874 0.0
H2941 H 0.65383 0.51725 0.52446 0.0
H2942 H 0.66293 0.49485 0.52035 0.0
H2943 H 0.66118 0.50432 0.545 0.0
C2944 C 0.66531 0.43561 0.51737 0.0
C2945 C 0.67883 0.43907 0.53414 0.0
C2946 C 0.64982 0.44537 0.51607 0.0
C2947 C 0.6476 0.45889 0.53143 0.0
C2948 C 0.66087 0.46214 0.54831 0.0
H2949 H 0.54779 0.51236 0.54734 0.0
H2950 H 0.57314 0.49287 0.55109 0.0
C2951 C 0.67632 0.45236 0.54965 0.0
C2952 C 0.63155 0.46981 0.5297 0.0
H2953 H 0.62126 0.51593 0.52712 0.0
C2954 C 0.61294 0.45931 0.52839 0.0
C2955 C 0.63456 0.49046 0.52907 0.0
C2956 C 0.65418 0.50243 0.52962 0.0
C2957 C 0.59727 0.46896 0.52664 0.0
C2958 C 0.60032 0.48965 0.52634 0.0
C2959 C 0.61893 0.50009 0.52751 0.0
C2960 C 0.58444 0.50077 0.52398 0.0
C2961 C 0.57758 0.45689 0.52467 0.0
C2962 C 0.58251 0.5119 0.5077 0.0
C2963 C 0.56808 0.52297 0.50557 0.0
C2964 C 0.55527 0.52317 0.51968 0.0
C2965 C 0.5572 0.5121 0.53603 0.0
C2966 C 0.57169 0.50099 0.53818 0.0
H2967 H 0.57755 0.44111 0.52069 0.0
H2968 H 0.57167 0.45812 0.53895 0.0
H2969 H 0.56808 0.46236 0.51333 0.0
H2970 H 0.59219 0.51202 0.49659 0.0
H2971 H 0.56692 0.53134 0.49279 0.0
H2972 H 0.21322 0.16383 0.53928 0.0
H2973 H 0.18015 0.14867 0.54021 0.0
H2974 H 0.1834 0.10829 0.49064 0.0
H2975 H 0.21653 0.12304 0.48984 0.0
H2976 H 0.14898 0.14428 0.51219 0.0
H2977 H 0.16463 0.07181 0.53153 0.0
H2978 H 0.18276 0.09344 0.53288 0.0
H2979 H 0.17415 0.07975 0.50957 0.0
C2980 C 0.2069 0.15172 0.52858 0.0
C2981 C 0.21755 0.1445 0.51462 0.0
C2982 C 0.18801 0.14311 0.52912 0.0
C2983 C 0.17946 0.12716 0.51571 0.0
C2984 C 0.18988 0.1203 0.5014 0.0
H2985 H 0.06009 0.07867 0.48763 0.0
H2986 H 0.09221 0.09714 0.48825 0.0
C2987 C 0.20879 0.1288 0.50092 0.0
C2988 C 0.15969 0.11757 0.51676 0.0
H2989 H 0.13234 0.07343 0.5222 0.0
C2990 C 0.1453 0.12881 0.51448 0.0
C2991 C 0.15502 0.09748 0.52007 0.0
C2992 C 0.16996 0.08495 0.52385 0.0
C2993 C 0.12626 0.12036 0.51501 0.0
C2994 C 0.12154 0.10007 0.51748 0.0
C2995 C 0.13598 0.08895 0.52013 0.0
C2996 C 0.10175 0.08994 0.51749 0.0
C2997 C 0.11146 0.13328 0.51322 0.0
C2998 C 0.09655 0.0795 0.53357 0.0
C2999 C 0.07833 0.06868 0.53313 0.0
C3000 C 0.06493 0.06811 0.51659 0.0
C3001 C 0.07005 0.07887 0.50063 0.0
C3002 C 0.08837 0.08956 0.50101 0.0
H3003 H 0.11775 0.14899 0.51723 0.0
H3004 H 0.10484 0.13193 0.49772 0.0
H3005 H 0.10018 0.12885 0.52277 0.0
H3006 H 0.10669 0.07957 0.54641 0.0
H3007 H 0.07482 0.06067 0.54574 0.0
H3008 H 0.18274 0.96134 0.76796 0.0
H3009 H 0.20162 0.9361 0.76138 0.0
H3010 H 0.17638 0.90222 0.80571 0.0
H3011 H 0.15718 0.92722 0.81218 0.0
H3012 H 0.22787 0.92275 0.78632 0.0
H3013 H 0.16886 0.86196 0.75826 0.0
H3014 H 0.16576 0.88722 0.76118 0.0
H3015 H 0.16642 0.87284 0.78214 0.0
C3016 C 0.18115 0.9485 0.77629 0.0
C3017 C 0.16839 0.94626 0.79055 0.0
C3018 C 0.19195 0.93409 0.7725 0.0
C3019 C 0.19017 0.91714 0.78282 0.0
C3020 C 0.17765 0.91497 0.79725 0.0
H3021 H 0.26785 0.83664 0.79931 0.0
H3022 H 0.24981 0.86331 0.80174 0.0
C3023 C 0.16679 0.92935 0.80103 0.0
C3024 C 0.20184 0.90203 0.77889 0.0
H3025 H 0.19923 0.85328 0.76556 0.0
C3026 C 0.22162 0.90759 0.78166 0.0
C3027 C 0.19365 0.88233 0.77249 0.0
C3028 C 0.17251 0.87573 0.76814 0.0
C3029 C 0.23345 0.89385 0.77874 0.0
C3030 C 0.22525 0.87396 0.77327 0.0
C3031 C 0.20548 0.86851 0.76994 0.0
C3032 C 0.2369 0.85847 0.77144 0.0
C3033 C 0.25461 0.90079 0.7814 0.0
C3034 C 0.23546 0.84673 0.75367 0.0
C3035 C 0.24571 0.83142 0.75231 0.0
C3036 C 0.25738 0.82754 0.76872 0.0
C3037 C 0.25908 0.83949 0.78637 0.0
C3038 C 0.24881 0.85474 0.78776 0.0
H3039 H 0.25834 0.91677 0.77969 0.0
H3040 H 0.26036 0.89817 0.79648 0.0
H3041 H 0.2616 0.8927 0.77064 0.0
H3042 H 0.22631 0.84934 0.74092 0.0
H3043 H 0.24441 0.82254 0.73848 0.0
H3044 H 0.27684 0.93562 0.00917 0.0
H3045 H 0.30961 0.95134 0.00767 0.0
H3046 H 0.31527 0.97011 0.06956 0.0
H3047 H 0.28243 0.9543 0.07131 0.0
H3048 H 0.33034 -0.00014 0.04096 0.0
H3049 H 0.35577 0.92853 0.0363 0.0
H3050 H 0.33499 0.9303 0.02005 0.0
H3051 H 0.33401 0.93128 0.04618 0.0
C3052 C 0.28496 0.94321 0.02247 0.0
C3053 C 0.27702 0.9436 0.04041 0.0
C3054 C 0.3037 0.95214 0.02157 0.0
C3055 C 0.31485 0.96172 0.03854 0.0
C3056 C 0.30686 0.96273 0.05633 0.0
H3057 H 0.43758 0.9957 0.05537 0.0
H3058 H 0.40433 0.98414 0.05981 0.0
C3059 C 0.28812 0.95367 0.05729 0.0
C3060 C 0.33504 0.97007 0.03776 0.0
H3061 H 0.37779 0.95699 0.03214 0.0
C3062 C 0.34076 0.99054 0.03909 0.0
C3063 C 0.34856 0.95782 0.03551 0.0
C3064 C 0.34316 0.93575 0.03455 0.0
C3065 C 0.35968 0.99909 0.03779 0.0
C3066 C 0.3731 0.98682 0.03504 0.0
C3067 C 0.36743 0.96635 0.03415 0.0
C3068 C 0.39311 0.99485 0.03286 0.0
C3069 C 0.36522 0.02117 0.03949 0.0
C3070 C 0.3978 0.00466 0.01622 0.0
C3071 C 0.41676 0.01115 0.01359 0.0
C3072 C 0.43133 0.00794 0.02759 0.0
C3073 C 0.42661 0.99837 0.04437 0.0
C3074 C 0.40766 0.99177 0.04692 0.0
H3075 H 0.35433 0.02842 0.04577 0.0
H3076 H 0.37895 0.02594 0.04887 0.0
H3077 H 0.36694 0.02626 0.02462 0.0
H3078 H 0.38679 0.00691 0.00505 0.0
H3079 H 0.42002 0.01845 0.0005 0.0
H3080 H 0.84222 0.60322 0.7399 0.0
H3081 H 0.82112 0.62726 0.73973 0.0
H3082 H 0.86858 0.67336 0.76003 0.0
H3083 H 0.88988 0.64943 0.76007 0.0
H3084 H 0.81516 0.65143 0.77203 0.0
H3085 H 0.84224 0.69572 0.71275 0.0
H3086 H 0.84767 0.67164 0.71644 0.0
H3087 H 0.86001 0.69267 0.73211 0.0
C3088 C 0.84823 0.61849 0.7442 0.0
C3089 C 0.86778 0.6244 0.74997 0.0
C3090 C 0.83613 0.63221 0.7441 0.0
C3091 C 0.84331 0.65212 0.74963 0.0
C3092 C 0.8628 0.65811 0.75534 0.0
H3093 H 0.79537 0.75666 0.76687 0.0
H3094 H 0.81565 0.73236 0.76306 0.0
C3095 C 0.87494 0.64439 0.75546 0.0
C3096 C 0.83024 0.66643 0.75023 0.0
H3097 H 0.82017 0.70829 0.73115 0.0
C3098 C 0.81615 0.66379 0.763 0.0
C3099 C 0.83163 0.68258 0.73848 0.0
C3100 C 0.84609 0.6858 0.72403 0.0
C3101 C 0.80368 0.67712 0.7647 0.0
C3102 C 0.80505 0.69327 0.75294 0.0
C3103 C 0.81909 0.69585 0.74009 0.0
C3104 C 0.79253 0.70808 0.75429 0.0
C3105 C 0.78958 0.67411 0.77956 0.0
C3106 C 0.77275 0.70265 0.75037 0.0
C3107 C 0.76113 0.71672 0.75234 0.0
C3108 C 0.76912 0.73649 0.7578 0.0
C3109 C 0.78885 0.74185 0.76162 0.0
C3110 C 0.80046 0.72784 0.75975 0.0
H3111 H 0.79363 0.66425 0.79082 0.0
H3112 H 0.78823 0.68832 0.78719 0.0
H3113 H 0.77551 0.66723 0.77183 0.0
H3114 H 0.76631 0.68755 0.74583 0.0
H3115 H 0.74591 0.71219 0.74951 0.0
H3116 H 0.79868 0.5949 0.0072 0.0
H3117 H 0.82113 0.57388 0.01762 0.0
H3118 H 0.85962 0.6245 0.04659 0.0
H3119 H 0.83703 0.64554 0.0367 0.0
H3120 H 0.85527 0.57715 0.00554 0.0
H3121 H 0.86361 0.58509 0.08705 0.0
H3122 H 0.84418 0.59251 0.07238 0.0
H3123 H 0.86695 0.60842 0.07675 0.0
C3124 C 0.81181 0.60152 0.01605 0.0
C3125 C 0.81618 0.62189 0.02102 0.0
C3126 C 0.82456 0.58947 0.02207 0.0
C3127 C 0.84192 0.59758 0.03311 0.0
C3128 C 0.84609 0.61784 0.03855 0.0
H3129 H 0.95236 0.573 0.0485 0.0
H3130 H 0.92284 0.58505 0.05188 0.0
C3131 C 0.83325 0.62989 0.0327 0.0
C3132 C 0.85662 0.58535 0.03661 0.0
H3133 H 0.88885 0.57345 0.07181 0.0
C3134 C 0.86234 0.57598 0.02008 0.0
C3135 C 0.86587 0.58397 0.05558 0.0
C3136 C 0.8597 0.59288 0.07396 0.0
C3137 C 0.87766 0.56607 0.02186 0.0
C3138 C 0.88734 0.56526 0.04075 0.0
C3139 C 0.8813 0.57408 0.05739 0.0
C3140 C 0.90482 0.55693 0.04297 0.0
C3141 C 0.88398 0.55741 0.0034 0.0
C3142 C 0.90438 0.53696 0.03771 0.0
C3143 C 0.92121 0.53008 0.03563 0.0
C3144 C 0.9386 0.54311 0.03893 0.0
C3145 C 0.93908 0.56272 0.04578 0.0
C3146 C 0.92227 0.56959 0.04779 0.0
H3147 H 0.877 0.56228 0.9898 0.0
H3148 H 0.89955 0.56157 0.00351 0.0
H3149 H 0.88038 0.54115 0.00273 0.0
H3150 H 0.891 0.52697 0.03413 0.0
H3151 H 0.92053 0.51486 0.03047 0.0
H3152 H 0.13657 0.07338 0.79381 0.0
H3153 H 0.15318 0.10665 0.79073 0.0
H3154 H 0.20379 0.08411 0.78081 0.0
H3155 H 0.18735 0.05071 0.78414 0.0
H3156 H 0.21049 0.11783 0.80706 0.0
H3157 H 0.1664 0.12816 0.73853 0.0
H3158 H 0.15297 0.12115 0.75844 0.0
H3159 H 0.16639 0.1044 0.74791 0.0
C3160 C 0.15125 0.07546 0.79102 0.0
C3161 C 0.1606 0.05936 0.78908 0.0
C3162 C 0.16068 0.09449 0.78915 0.0
C3163 C 0.17959 0.09779 0.78517 0.0
C3164 C 0.18914 0.08184 0.78376 0.0
H3165 H 0.23783 0.20485 0.74306 0.0
H3166 H 0.22351 0.17098 0.74712 0.0
C3167 C 0.17972 0.06278 0.78566 0.0
C3168 C 0.18937 0.11789 0.78247 0.0
H3169 H 0.18712 0.1565 0.75424 0.0
C3170 C 0.20545 0.12628 0.79547 0.0
C3171 C 0.18291 0.12875 0.76715 0.0
C3172 C 0.16633 0.12012 0.75208 0.0
C3173 C 0.21501 0.14544 0.79384 0.0
C3174 C 0.20811 0.15656 0.779 0.0
C3175 C 0.19227 0.14801 0.76574 0.0
C3176 C 0.21714 0.17708 0.77685 0.0
C3177 C 0.23256 0.15348 0.80785 0.0
C3178 C 0.21813 0.1918 0.79216 0.0
C3179 C 0.22635 0.2112 0.78992 0.0
C3180 C 0.23361 0.21628 0.77225 0.0
C3181 C 0.23242 0.2015 0.75688 0.0
C3182 C 0.22424 0.18211 0.75916 0.0
H3183 H 0.2388 0.14156 0.81462 0.0
H3184 H 0.24345 0.16242 0.80021 0.0
H3185 H 0.22882 0.16304 0.8199 0.0
H3186 H 0.21235 0.18833 0.80577 0.0
H3187 H 0.22689 0.2222 0.80201 0.0
H3188 H 0.35081 0.01935 0.26681 0.0
H3189 H 0.33197 0.98665 0.26817 0.0
H3190 H 0.33232 0.97494 0.20561 0.0
H3191 H 0.35117 0.00759 0.20405 0.0
H3192 H 0.29541 0.96758 0.24526 0.0
H3193 H 0.35632 0.93076 0.23252 0.0
H3194 H 0.35931 0.95654 0.24047 0.0
H3195 H 0.35092 0.94809 0.21527 0.0
C3196 C 0.34676 0.0099 0.2533 0.0
C3197 C 0.35263 0.01602 0.23534 0.0
C3198 C 0.33597 0.99125 0.25411 0.0
C3199 C 0.33096 0.97837 0.23703 0.0
C3200 C 0.33623 0.98464 0.21898 0.0
H3201 H 0.28429 0.85351 0.22122 0.0
H3202 H 0.29603 0.88775 0.2156 0.0
C3203 C 0.34697 0.00331 0.21813 0.0
C3204 C 0.32098 0.95806 0.23829 0.0
H3205 H 0.32724 0.91037 0.23517 0.0
C3206 C 0.3023 0.95503 0.24302 0.0
C3207 C 0.33005 0.94179 0.23532 0.0
C3208 C 0.3503 0.94434 0.23075 0.0
C3209 C 0.29236 0.93603 0.24471 0.0
C3210 C 0.30155 0.91975 0.24205 0.0
C3211 C 0.32018 0.92284 0.23715 0.0
C3212 C 0.29244 0.89938 0.24481 0.0
C3213 C 0.27204 0.93356 0.24901 0.0
C3214 C 0.28632 0.89455 0.26302 0.0
C3215 C 0.27945 0.87501 0.26619 0.0
C3216 C 0.27888 0.85998 0.25129 0.0
C3217 C 0.28463 0.86484 0.23296 0.0
C3218 C 0.29133 0.88438 0.22974 0.0
H3219 H 0.26547 0.94622 0.24459 0.0
H3220 H 0.26346 0.91988 0.24126 0.0
H3221 H 0.27156 0.93272 0.2651 0.0
H3222 H 0.28746 0.90579 0.27502 0.0
H3223 H 0.27521 0.87159 0.28049 0.0
H3224 H 0.46483 0.33454 0.63975 0.0
H3225 H 0.46918 0.36169 0.61866 0.0
H3226 H 0.50886 0.33436 0.58864 0.0
H3227 H 0.50426 0.30683 0.60942 0.0
H3228 H 0.5014 0.38717 0.6158 0.0
H3229 H 0.47425 0.34749 0.54276 0.0
H3230 H 0.47037 0.33666 0.56563 0.0
H3231 H 0.49277 0.33765 0.55606 0.0
C3232 C 0.47437 0.33418 0.62855 0.0
C3233 C 0.48418 0.31849 0.62625 0.0
C3234 C 0.47684 0.34974 0.61651 0.0
C3235 C 0.48917 0.34996 0.60191 0.0
C3236 C 0.49896 0.3343 0.59951 0.0
H3237 H 0.53124 0.45942 0.55084 0.0
H3238 H 0.52941 0.42862 0.56687 0.0
C3239 C 0.4964 0.31863 0.61149 0.0
C3240 C 0.49236 0.36711 0.58994 0.0
H3241 H 0.48875 0.38092 0.54285 0.0
C3242 C 0.49865 0.3858 0.59984 0.0
C3243 C 0.4886 0.3653 0.56914 0.0
C3244 C 0.48096 0.34573 0.55774 0.0
C3245 C 0.50118 0.40276 0.58956 0.0
C3246 C 0.49779 0.40095 0.56873 0.0
C3247 C 0.49155 0.38225 0.55879 0.0
C3248 C 0.49964 0.41843 0.55715 0.0
C3249 C 0.50683 0.42251 0.60121 0.0
C3250 C 0.48378 0.42242 0.54549 0.0
C3251 C 0.48488 0.43984 0.53609 0.0
C3252 C 0.50184 0.45357 0.53826 0.0
C3253 C 0.51794 0.44915 0.54913 0.0
C3254 C 0.51688 0.43164 0.55837 0.0
H3255 H 0.50414 0.42164 0.61686 0.0
H3256 H 0.5222 0.42783 0.60098 0.0
H3257 H 0.49902 0.43349 0.59472 0.0
H3258 H 0.47037 0.41238 0.54425 0.0
H3259 H 0.47228 0.44289 0.52775 0.0
H3260 H 0.47466 0.8029 0.33048 0.0
H3261 H 0.44234 0.80231 0.31523 0.0
H3262 H 0.42934 0.73972 0.31912 0.0
H3263 H 0.46154 0.74014 0.33445 0.0
H3264 H 0.42132 0.77994 0.28033 0.0
H3265 H 0.38929 0.76186 0.34891 0.0
H3266 H 0.41426 0.77098 0.34885 0.0
H3267 H 0.40455 0.74576 0.34094 0.0
C3268 C 0.46498 0.78898 0.32797 0.0
C3269 C 0.47066 0.77159 0.33384 0.0
C3270 C 0.44652 0.78868 0.31924 0.0
C3271 C 0.43339 0.77102 0.31634 0.0
C3272 C 0.43918 0.75355 0.32154 0.0
H3273 H 0.31228 0.74383 0.27875 0.0
H3274 H 0.34535 0.74205 0.28896 0.0
C3275 C 0.45763 0.75382 0.33022 0.0
C3276 C 0.4135 0.77097 0.30834 0.0
H3277 H 0.36823 0.7627 0.32037 0.0
C3278 C 0.40969 0.77619 0.28905 0.0
C3279 C 0.39838 0.76604 0.31977 0.0
C3280 C 0.40174 0.76099 0.34083 0.0
C3281 C 0.39108 0.77637 0.28078 0.0
C3282 C 0.37596 0.7716 0.29229 0.0
C3283 C 0.37981 0.76629 0.31155 0.0
C3284 C 0.35607 0.77247 0.28488 0.0
C3285 C 0.38776 0.78131 0.2597 0.0
C3286 C 0.35108 0.79017 0.27924 0.0
C3287 C 0.33219 0.79124 0.27332 0.0
C3288 C 0.31785 0.77465 0.2731 0.0
C3289 C 0.32292 0.75689 0.27867 0.0
C3290 C 0.34183 0.75584 0.28454 0.0
H3291 H 0.39966 0.77889 0.25132 0.0
H3292 H 0.37445 0.77238 0.25204 0.0
H3293 H 0.38658 0.79704 0.2595 0.0
H3294 H 0.36174 0.80332 0.27985 0.0
H3295 H 0.32883 0.8052 0.26928 0.0
H3296 H 0.98889 0.70473 0.13916 0.0
H3297 H 0.99218 0.67371 0.12189 0.0
H3298 H 0.99266 0.70111 0.06706 0.0
H3299 H 0.98955 0.73222 0.08417 0.0
H3300 H 0.96975 0.65033 0.08891 0.0
H3301 H 0.04281 0.67972 0.07319 0.0
H3302 H 0.031 0.69196 0.09096 0.0
H3303 H 0.02533 0.69394 0.06506 0.0
C3304 C 0.98957 0.70415 0.12341 0.0
C3305 C 0.98915 0.72102 0.11308 0.0
C3306 C 0.99141 0.6864 0.11356 0.0
C3307 C 0.99295 0.68522 0.09327 0.0
C3308 C 0.99181 0.70181 0.0828 0.0
H3309 H 0.9894 0.5798 0.01521 0.0
H3310 H 0.982 0.60923 0.03223 0.0
C3311 C 0.98997 0.71956 0.0926 0.0
C3312 C 0.99645 0.66686 0.0832 0.0
H3313 H 0.02908 0.64792 0.05885 0.0
C3314 C 0.98271 0.64975 0.08233 0.0
C3315 C 0.01348 0.66614 0.07487 0.0
C3316 C 0.0291 0.68385 0.07617 0.0
C3317 C 0.98547 0.63192 0.07312 0.0
C3318 C 0.00233 0.63133 0.0644 0.0
C3319 C 0.01612 0.64843 0.06545 0.0
C3320 C 0.00626 0.61308 0.05443 0.0
C3321 C 0.97047 0.61385 0.07315 0.0
C3322 C 0.02254 0.6057 0.06099 0.0
C3323 C 0.02682 0.589 0.05123 0.0
C3324 C 0.01488 0.57937 0.03475 0.0
C3325 C 0.99864 0.58678 0.02811 0.0
C3326 C 0.99438 0.60353 0.03785 0.0
H3327 H 0.9611 0.61546 0.08482 0.0
H3328 H 0.96153 0.61145 0.05872 0.0
H3329 H 0.97693 0.60061 0.07536 0.0
H3330 H 0.03196 0.61291 0.07368 0.0
H3331 H 0.03944 0.58359 0.05662 0.0
H3332 H 0.06387 0.27451 0.82535 0.0
H3333 H 0.0916 0.27075 0.80862 0.0
H3334 H 0.12556 0.31791 0.84748 0.0
H3335 H 0.09806 0.32153 0.8645 0.0
H3336 H 0.11439 0.29702 0.78884 0.0
H3337 H 0.15653 0.27454 0.85309 0.0
H3338 H 0.13162 0.27521 0.85268 0.0
H3339 H 0.14884 0.29748 0.85783 0.0
C3340 C 0.07724 0.28407 0.83036 0.0
C3341 C 0.07876 0.29823 0.84637 0.0
C3342 C 0.09308 0.28191 0.82078 0.0
C3343 C 0.11075 0.29379 0.82704 0.0
C3344 C 0.1122 0.30824 0.8427 0.0
H3345 H 0.22257 0.30518 0.78749 0.0
H3346 H 0.19466 0.30928 0.80385 0.0
C3347 C 0.0964 0.31037 0.85234 0.0
C3348 C 0.12761 0.29127 0.81701 0.0
H3349 H 0.17249 0.28155 0.82497 0.0
C3350 C 0.12705 0.29353 0.79672 0.0
C3351 C 0.14415 0.28672 0.8273 0.0
C3352 C 0.14532 0.28316 0.84889 0.0
C3353 C 0.14269 0.29173 0.78652 0.0
C3354 C 0.15923 0.28729 0.79684 0.0
C3355 C 0.1598 0.28502 0.81711 0.0
C3356 C 0.17608 0.2848 0.78685 0.0
C3357 C 0.14152 0.29501 0.76487 0.0
C3358 C 0.17495 0.26956 0.77203 0.0
C3359 C 0.19092 0.26708 0.76283 0.0
C3360 C 0.20832 0.27973 0.7684 0.0
C3361 C 0.20943 0.29499 0.7832 0.0
C3362 C 0.19347 0.29743 0.79244 0.0
H3363 H 0.12987 0.30294 0.76032 0.0
H3364 H 0.15504 0.3035 0.76121 0.0
H3365 H 0.13879 0.28058 0.75613 0.0
H3366 H 0.16176 0.25944 0.76772 0.0
H3367 H 0.1897 0.25515 0.75151 0.0
H3368 H 0.53411 0.72071 0.94016 0.0
H3369 H 0.5326 0.69054 0.95702 0.0
H3370 H 0.47468 0.69207 0.9663 0.0
H3371 H 0.47595 0.72221 0.9493 0.0
H3372 H 0.52347 0.68369 0.99614 0.0
H3373 H 0.47316 0.63704 0.93772 0.0
H3374 H 0.48612 0.66081 0.9335 0.0
H3375 H 0.46603 0.65909 0.94714 0.0
C3376 C 0.52104 0.71467 0.9458 0.0
C3377 C 0.5051 0.72378 0.94329 0.0
C3378 C 0.52023 0.69747 0.95545 0.0
C3379 C 0.50348 0.68903 0.96267 0.0
C3380 C 0.48765 0.69825 0.96056 0.0
H3381 H 0.4975 0.59033 0.03753 0.0
H3382 H 0.49376 0.62187 0.0246 0.0
C3383 C 0.48843 0.71549 0.95091 0.0
C3384 C 0.50263 0.67042 0.97216 0.0
H3385 H 0.48312 0.62171 0.9657 0.0
C3386 C 0.51454 0.67014 0.98963 0.0
C3387 C 0.49105 0.65284 0.96344 0.0
C3388 C 0.47844 0.65229 0.94434 0.0
C3389 C 0.5154 0.65259 0.9985 0.0
C3390 C 0.5039 0.63499 0.98972 0.0
C3391 C 0.49178 0.63532 0.97242 0.0
C3392 C 0.50537 0.61584 0.9974 0.0
C3393 C 0.52909 0.65283 0.01677 0.0
C3394 C 0.5128 0.60202 0.9862 0.0
C3395 C 0.51497 0.58414 0.99353 0.0
C3396 C 0.50954 0.57973 0.01209 0.0
C3397 C 0.50182 0.59345 0.02319 0.0
C3398 C 0.49972 0.61142 0.01587 0.0
H3399 H 0.53917 0.66699 0.01975 0.0
H3400 H 0.52106 0.65054 0.02967 0.0
H3401 H 0.53727 0.64074 0.01533 0.0
H3402 H 0.51726 0.60524 0.97193 0.0
H3403 H 0.52117 0.57391 0.98478 0.0
H3404 H 0.05172 0.8099 0.63674 0.0
H3405 H 0.08233 0.81345 0.65674 0.0
H3406 H 0.06107 0.76346 0.68764 0.0
H3407 H 0.03027 0.7599 0.66788 0.0
H3408 H 0.08141 0.79656 0.71239 0.0
H3409 H 0.12067 0.77654 0.65058 0.0
H3410 H 0.10757 0.796 0.64647 0.0
H3411 H 0.09516 0.77164 0.64887 0.0
C3412 C 0.05355 0.7996 0.64774 0.0
C3413 C 0.03861 0.78452 0.65065 0.0
C3414 C 0.07105 0.80165 0.65911 0.0
C3415 C 0.07396 0.78857 0.67346 0.0
C3416 C 0.05906 0.77365 0.67658 0.0
H3417 H 0.16561 0.76423 0.75213 0.0
H3418 H 0.13471 0.76775 0.73589 0.0
C3419 C 0.04151 0.77161 0.66524 0.0
C3420 C 0.09261 0.79037 0.68516 0.0
H3421 H 0.13865 0.78689 0.68135 0.0
C3422 C 0.09396 0.79448 0.70565 0.0
C3423 C 0.10889 0.7877 0.67623 0.0
C3424 C 0.10807 0.78256 0.65436 0.0
C3425 C 0.11127 0.79602 0.7175 0.0
C3426 C 0.12748 0.79307 0.7086 0.0
C3427 C 0.12617 0.78926 0.68808 0.0
C3428 C 0.14574 0.79264 0.72028 0.0
C3429 C 0.1121 0.80089 0.73941 0.0
C3430 C 0.16213 0.80548 0.71686 0.0
C3431 C 0.17979 0.80341 0.72601 0.0
C3432 C 0.18126 0.78836 0.73856 0.0
C3433 C 0.1648 0.77597 0.74253 0.0
C3434 C 0.14715 0.77805 0.73338 0.0
H3435 H 0.10018 0.80815 0.74307 0.0
H3436 H 0.1111 0.78711 0.74697 0.0
H3437 H 0.12564 0.81062 0.7453 0.0
H3438 H 0.1613 0.81676 0.7067 0.0
H3439 H 0.19232 0.81316 0.72278 0.0
H3440 H 0.04818 0.32812 0.44256 0.0
H3441 H 0.0518 0.36035 0.4607 0.0
H3442 H 0.99401 0.34684 0.47369 0.0
H3443 H 0.99027 0.31458 0.45577 0.0
H3444 H 0.03005 0.38888 0.45106 0.0
H3445 H 0.02317 0.36864 0.52742 0.0
H3446 H 0.02841 0.35189 0.50831 0.0
H3447 H 0.00451 0.35564 0.50958 0.0
C3448 C 0.03631 0.33191 0.44947 0.0
C3449 C 0.01892 0.31881 0.44771 0.0
C3450 C 0.03842 0.35031 0.45984 0.0
C3451 C 0.02327 0.35582 0.46876 0.0
C3452 C 0.006 0.34268 0.46727 0.0
H3453 H 0.98911 0.45852 0.51668 0.0
H3454 H 0.99368 0.42532 0.50707 0.0
C3455 C 0.00385 0.32431 0.45689 0.0
C3456 C 0.02491 0.37589 0.47819 0.0
H3457 H 0.0196 0.40143 0.52091 0.0
C3458 C 0.02807 0.3917 0.46641 0.0
C3459 C 0.02224 0.37941 0.49819 0.0
C3460 C 0.01957 0.36302 0.51168 0.0
C3461 C 0.0278 0.41092 0.47386 0.0
C3462 C 0.02467 0.4144 0.49375 0.0
C3463 C 0.02202 0.39866 0.50569 0.0
C3464 C 0.02289 0.43413 0.50194 0.0
C3465 C 0.03 0.4272 0.46013 0.0
C3466 C 0.03803 0.44994 0.50292 0.0
C3467 C 0.03547 0.46897 0.50831 0.0
C3468 C 0.01773 0.47246 0.51296 0.0
C3469 C 0.00293 0.45639 0.51312 0.0
C3470 C 0.0055 0.43739 0.50765 0.0
H3471 H 0.02821 0.4214 0.44442 0.0
H3472 H 0.01953 0.43696 0.46215 0.0
H3473 H 0.04437 0.43622 0.46348 0.0
H3474 H 0.05167 0.44762 0.49892 0.0
H3475 H 0.04723 0.48097 0.50821 0.0
H3476 H 0.4492 0.24976 0.17057 0.0
H3477 H 0.42411 0.25214 0.19165 0.0
H3478 H 0.42304 0.31129 0.17608 0.0
H3479 H 0.44772 0.30891 0.15466 0.0
H3480 H 0.42234 0.278 0.22386 0.0
H3481 H 0.36826 0.2844 0.16203 0.0
H3482 H 0.39048 0.27705 0.15817 0.0
H3483 H 0.38934 0.30259 0.16308 0.0
C3484 C 0.44359 0.26326 0.17161 0.0
C3485 C 0.45026 0.27907 0.16078 0.0
C3486 C 0.42932 0.2646 0.1837 0.0
C3487 C 0.42154 0.28176 0.18514 0.0
C3488 C 0.42858 0.29776 0.1748 0.0
H3489 H 0.33072 0.31792 0.24229 0.0
H3490 H 0.36068 0.31743 0.22858 0.0
C3491 C 0.44271 0.29638 0.16261 0.0
C3492 C 0.40583 0.28287 0.19715 0.0
H3493 H 0.3602 0.2903 0.19433 0.0
C3494 C 0.40871 0.28062 0.21744 0.0
C3495 C 0.38806 0.28615 0.18864 0.0
C3496 C 0.38374 0.28749 0.16676 0.0
C3497 C 0.39434 0.282 0.22953 0.0
C3498 C 0.37675 0.28564 0.22103 0.0
C3499 C 0.37385 0.28776 0.20077 0.0
C3500 C 0.36078 0.28674 0.2326 0.0
C3501 C 0.39807 0.27984 0.2513 0.0
C3502 C 0.35124 0.26974 0.23977 0.0
C3503 C 0.33413 0.26999 0.24752 0.0
C3504 C 0.32636 0.2872 0.24812 0.0
C3505 C 0.33645 0.30448 0.24199 0.0
C3506 C 0.35352 0.30421 0.23417 0.0
H3507 H 0.4134 0.28092 0.25617 0.0
H3508 H 0.39258 0.29125 0.25997 0.0
H3509 H 0.39058 0.26527 0.25462 0.0
H3510 H 0.3565 0.25605 0.23839 0.0
H3511 H 0.32653 0.2565 0.25216 0.0
H3512 H 0.58038 0.46155 0.31679 0.0
H3513 H 0.56046 0.46308 0.34353 0.0
H3514 H 0.60142 0.51107 0.37378 0.0
H3515 H 0.62157 0.50939 0.34742 0.0
H3516 H 0.58866 0.4835 0.39845 0.0
H3517 H 0.52838 0.50492 0.3529 0.0
H3518 H 0.53516 0.48251 0.34405 0.0
H3519 H 0.55127 0.50541 0.34435 0.0
C3520 C 0.58515 0.47241 0.32915 0.0
C3521 C 0.60252 0.48542 0.32994 0.0
C3522 C 0.5737 0.47333 0.34435 0.0
C3523 C 0.57932 0.48741 0.36046 0.0
C3524 C 0.59679 0.50015 0.36143 0.0
H3525 H 0.52026 0.53865 0.4457 0.0
H3526 H 0.53478 0.52907 0.41684 0.0
C3527 C 0.60829 0.49917 0.34634 0.0
C3528 C 0.56713 0.489 0.37641 0.0
H3529 H 0.52454 0.50006 0.38618 0.0
C3530 C 0.57459 0.48699 0.39578 0.0
C3531 C 0.54885 0.49374 0.37285 0.0
C3532 C 0.54045 0.49696 0.35245 0.0
C3533 C 0.56442 0.48996 0.41177 0.0
C3534 C 0.5461 0.4946 0.4082 0.0
C3535 C 0.5385 0.49628 0.3888 0.0
C3536 C 0.53532 0.49938 0.42457 0.0
C3537 C 0.57373 0.48894 0.43238 0.0
C3538 C 0.53018 0.48562 0.43813 0.0
C3539 C 0.52196 0.49108 0.45477 0.0
C3540 C 0.51857 0.51034 0.458 0.0
C3541 C 0.52271 0.52371 0.44374 0.0
C3542 C 0.53102 0.51827 0.4272 0.0
H3543 H 0.58925 0.48961 0.43277 0.0
H3544 H 0.57119 0.50115 0.44248 0.0
H3545 H 0.56764 0.47488 0.43806 0.0
H3546 H 0.53301 0.47083 0.43612 0.0
H3547 H 0.51882 0.48036 0.46536 0.0
H3548 H 0.2629 0.85815 0.0641 0.0
H3549 H 0.26558 0.84061 0.09385 0.0
H3550 H 0.21688 0.86146 0.11278 0.0
H3551 H 0.2141 0.8792 0.08302 0.0
H3552 H 0.24867 0.86493 0.14285 0.0
H3553 H 0.22932 0.79013 0.10432 0.0
H3554 H 0.248 0.80609 0.09477 0.0
H3555 H 0.22456 0.81179 0.09285 0.0
C3556 C 0.2527 0.859 0.07454 0.0
C3557 C 0.2382 0.87001 0.07109 0.0
C3558 C 0.25424 0.8489 0.09152 0.0
C3559 C 0.24131 0.84954 0.10541 0.0
C3560 C 0.22696 0.86071 0.10219 0.0
H3561 H 0.22381 0.77098 0.19845 0.0
H3562 H 0.22051 0.79032 0.16996 0.0
C3563 C 0.22536 0.87079 0.08515 0.0
C3564 C 0.2428 0.83854 0.12327 0.0
H3565 H 0.24079 0.79223 0.13823 0.0
C3566 C 0.24689 0.84903 0.14189 0.0
C3567 C 0.24031 0.8178 0.12197 0.0
C3568 C 0.23514 0.80572 0.10243 0.0
C3569 C 0.24885 0.83933 0.15923 0.0
C3570 C 0.24684 0.8186 0.15787 0.0
C3571 C 0.24246 0.80812 0.13926 0.0
C3572 C 0.24887 0.80737 0.17554 0.0
C3573 C 0.2528 0.85134 0.17885 0.0
C3574 C 0.26598 0.81035 0.18806 0.0
C3575 C 0.26788 0.79927 0.20433 0.0
C3576 C 0.25273 0.78503 0.20834 0.0
C3577 C 0.23572 0.78189 0.19569 0.0
C3578 C 0.2338 0.79296 0.17946 0.0
H3579 H 0.2489 0.86609 0.17776 0.0
H3580 H 0.24497 0.84376 0.19016 0.0
H3581 H 0.26816 0.85348 0.18396 0.0
H3582 H 0.27796 0.82101 0.18506 0.0
H3583 H 0.28131 0.80157 0.21357 0.0
H3584 H 0.91494 0.5249 0.79859 0.0
H3585 H 0.93117 0.52416 0.83144 0.0
H3586 H 0.94971 0.58697 0.83465 0.0
H3587 H 0.93266 0.58791 0.80192 0.0
H3588 H 0.96656 0.53294 0.84631 0.0
H3589 H 0.92658 0.58211 0.885 0.0
H3590 H 0.91993 0.57288 0.8596 0.0
H3591 H 0.93901 0.59339 0.86609 0.0
C3592 C 0.92247 0.5386 0.80624 0.0
C3593 C 0.92239 0.5565 0.7977 0.0
C3594 C 0.93178 0.53814 0.82507 0.0
C3595 C 0.94142 0.55554 0.83575 0.0
C3596 C 0.94193 0.57341 0.82698 0.0
H3597 H 0.01511 0.54577 0.94429 0.0
H3598 H 0.00385 0.55195 0.91069 0.0
C3599 C 0.93231 0.57392 0.80821 0.0
C3600 C 0.95075 0.55467 0.85604 0.0
H3601 H 0.95145 0.57153 0.90415 0.0
C3602 C 0.96328 0.54141 0.85896 0.0
C3603 C 0.94632 0.56555 0.8726 0.0
C3604 C 0.93209 0.57914 0.87075 0.0
C3605 C 0.97116 0.5384 0.87792 0.0
C3606 C 0.96698 0.54953 0.89445 0.0
C3607 C 0.95476 0.56309 0.89149 0.0
C3608 C 0.97415 0.54653 0.91501 0.0
C3609 C 0.98317 0.52268 0.88002 0.0
C3610 C 0.96133 0.54219 0.92892 0.0
C3611 C 0.96778 0.53913 0.94824 0.0
C3612 C 0.98718 0.54014 0.95405 0.0
C3613 C 5e-05 0.54463 0.94019 0.0
C3614 C 0.99361 0.54805 0.92093 0.0
H3615 H 0.98051 0.51192 0.86687 0.0
H3616 H 0.99834 0.52962 0.8816 0.0
H3617 H 0.98043 0.51458 0.89322 0.0
H3618 H 0.94626 0.54095 0.92477 0.0
H3619 H 0.95748 0.53564 0.95853 0.0
H3620 H 0.30543 0.23086 0.52868 0.0
H3621 H 0.30653 0.25341 0.55815 0.0
H3622 H 0.29807 0.20401 0.59354 0.0
H3623 H 0.29647 0.18148 0.56425 0.0
H3624 H 0.27179 0.24523 0.58229 0.0
H3625 H 0.34241 0.24934 0.62451 0.0
H3626 H 0.33836 0.24546 0.59789 0.0
H3627 H 0.33159 0.22555 0.61275 0.0
C3628 C 0.30427 0.22489 0.54286 0.0
C3629 C 0.30075 0.20448 0.54428 0.0
C3630 C 0.30491 0.23775 0.55959 0.0
C3631 C 0.30256 0.23028 0.57791 0.0
C3632 C 0.30015 0.20998 0.5795 0.0
H3633 H 0.27892 0.23607 0.69184 0.0
H3634 H 0.28999 0.23284 0.65952 0.0
C3635 C 0.29913 0.19715 0.56279 0.0
C3636 C 0.29975 0.24299 0.59498 0.0
H3637 H 0.31735 0.25574 0.64297 0.0
C3638 C 0.28187 0.24815 0.59548 0.0
C3639 C 0.31301 0.2466 0.61197 0.0
C3640 C 0.33251 0.24161 0.61182 0.0
C3641 C 0.27617 0.25506 0.61318 0.0
C3642 C 0.289 0.25734 0.6306 0.0
C3643 C 0.30751 0.25387 0.62961 0.0
C3644 C 0.28269 0.26017 0.65029 0.0
C3645 C 0.25599 0.25815 0.61337 0.0
C3646 C 0.27488 0.27662 0.65582 0.0
C3647 C 0.26812 0.27825 0.67419 0.0
C3648 C 0.26947 0.26364 0.68731 0.0
C3649 C 0.27761 0.24745 0.68189 0.0
C3650 C 0.28407 0.24568 0.66351 0.0
H3651 H 0.24708 0.25239 0.59932 0.0
H3652 H 0.24947 0.25084 0.62562 0.0
H3653 H 0.25581 0.2741 0.6156 0.0
H3654 H 0.27403 0.28815 0.64599 0.0
H3655 H 0.26215 0.29103 0.67824 0.0
H3656 H 0.6499 0.49103 0.21445 0.0
H3657 H 0.63157 0.49311 0.1828 0.0
H3658 H 0.58152 0.49404 0.21197 0.0
H3659 H 0.59964 0.49174 0.24369 0.0
H3660 H 0.57543 0.46981 0.17567 0.0
H3661 H 0.61449 0.54505 0.16894 0.0
H3662 H 0.62915 0.52682 0.17266 0.0
H3663 H 0.6155 0.53335 0.19176 0.0
C3664 C 0.63495 0.49149 0.21413 0.0
C3665 C 0.62627 0.49143 0.2316 0.0
C3666 C 0.62454 0.49275 0.19605 0.0
C3667 C 0.60531 0.49406 0.19515 0.0
C3668 C 0.59638 0.49313 0.21241 0.0
H3669 H 0.53923 0.54053 0.10289 0.0
H3670 H 0.55515 0.53317 0.13417 0.0
C3671 C 0.60678 0.49186 0.23051 0.0
C3672 C 0.59468 0.4973 0.17638 0.0
H3673 H 0.59275 0.53039 0.14171 0.0
C3674 C 0.57917 0.48303 0.1682 0.0
C3675 C 0.59949 0.51472 0.1669 0.0
C3676 C 0.61545 0.53097 0.17556 0.0
C3677 C 0.56843 0.48562 0.15058 0.0
C3678 C 0.57355 0.50282 0.14085 0.0
C3679 C 0.58895 0.51716 0.14916 0.0
C3680 C 0.56302 0.50649 0.12216 0.0
C3681 C 0.55152 0.47012 0.14273 0.0
C3682 C 0.56222 0.49393 0.10507 0.0
C3683 C 0.5531 0.49809 0.08723 0.0
C3684 C 0.54482 0.51496 0.08621 0.0
C3685 C 0.54553 0.52744 0.10332 0.0
C3686 C 0.5546 0.52325 0.12115 0.0
H3687 H 0.54668 0.46055 0.15431 0.0
H3688 H 0.53954 0.47692 0.13665 0.0
H3689 H 0.55542 0.46069 0.13067 0.0
H3690 H 0.56895 0.48114 0.10545 0.0
H3691 H 0.55276 0.48826 0.0742 0.0
H3692 H 0.24519 0.90474 0.95326 0.0
H3693 H 0.24658 0.88451 0.92323 0.0
H3694 H 0.21147 0.83558 0.94498 0.0
H3695 H 0.21044 0.85571 0.97554 0.0
H3696 H 0.24068 0.82414 0.92858 0.0
H3697 H 0.20599 0.86931 0.87755 0.0
H3698 H 0.22621 0.88362 0.89233 0.0
H3699 H 0.20609 0.87268 0.90391 0.0
C3700 C 0.23764 0.88971 0.95168 0.0
C3701 C 0.22756 0.8819 0.96678 0.0
C3702 C 0.23837 0.87818 0.93439 0.0
C3703 C 0.22877 0.85864 0.9316 0.0
C3704 C 0.21886 0.85067 0.94673 0.0
H3705 H 0.21432 0.79647 0.81451 0.0
H3706 H 0.20879 0.81152 0.84611 0.0
C3707 C 0.21826 0.8622 0.96417 0.0
C3708 C 0.22958 0.84652 0.91306 0.0
H3709 H 0.22304 0.84652 0.86293 0.0
C3710 C 0.23663 0.82892 0.91422 0.0
C3711 C 0.22399 0.85253 0.89429 0.0
C3712 C 0.21496 0.87045 0.89192 0.0
C3713 C 0.23887 0.81755 0.89714 0.0
C3714 C 0.23438 0.82422 0.87838 0.0
C3715 C 0.22674 0.84148 0.87726 0.0
C3716 C 0.23758 0.81371 0.8597 0.0
C3717 C 0.2458 0.7984 0.89943 0.0
C3718 C 0.25561 0.80985 0.85671 0.0
C3719 C 0.25877 0.80098 0.83869 0.0
C3720 C 0.24404 0.79613 0.82313 0.0
C3721 C 0.226 0.79999 0.82616 0.0
C3722 C 0.22281 0.80862 0.84425 0.0
H3723 H 0.2426 0.7924 0.91364 0.0
H3724 H 0.23931 0.78723 0.88722 0.0
H3725 H 0.26139 0.80095 0.89936 0.0
H3726 H 0.2674 0.81414 0.86814 0.0
H3727 H 0.2729 0.79848 0.83678 0.0
H3728 H 0.90192 0.55713 0.68612 0.0
H3729 H 0.91647 0.55069 0.65618 0.0
H3730 H 0.97187 0.57059 0.68803 0.0
H3731 H 0.95749 0.57688 0.71808 0.0
H3732 H 0.94029 0.57641 0.63602 0.0
H3733 H 0.97592 0.51661 0.66256 0.0
H3734 H 0.95759 0.52526 0.67488 0.0
H3735 H 0.98143 0.5388 0.67864 0.0
C3736 C 0.91721 0.56012 0.68679 0.0
C3737 C 0.92854 0.56743 0.70455 0.0
C3738 C 0.92549 0.55643 0.66965 0.0
C3739 C 0.94525 0.55986 0.66995 0.0
C3740 C 0.9566 0.56745 0.68756 0.0
H3741 H 0.01367 0.57428 0.57386 0.0
H3742 H 0.99615 0.57822 0.60221 0.0
C3743 C 0.94834 0.57115 0.70471 0.0
C3744 C 0.95402 0.55584 0.65177 0.0
H3745 H 0.98485 0.52954 0.63275 0.0
C3746 C 0.94994 0.56608 0.63526 0.0
C3747 C 0.96638 0.54213 0.65069 0.0
C3748 C 0.97048 0.52991 0.66756 0.0
C3749 C 0.95836 0.56341 0.6179 0.0
C3750 C 0.97139 0.55036 0.61715 0.0
C3751 C 0.97501 0.53967 0.63343 0.0
C3752 C 0.98175 0.54795 0.59978 0.0
C3753 C 0.95316 0.57449 0.60047 0.0
C3754 C 0.97984 0.5295 0.58929 0.0
C3755 C 0.98996 0.5272 0.57317 0.0
C3756 C 0.00218 0.54329 0.56734 0.0
C3757 C 0.00426 0.56166 0.578 0.0
C3758 C 0.99415 0.56396 0.59408 0.0
H3759 H 0.93945 0.57951 0.60143 0.0
H3760 H 0.96425 0.58767 0.60011 0.0
H3761 H 0.95222 0.56527 0.58641 0.0
H3762 H 0.9705 0.51691 0.59358 0.0
H3763 H 0.98843 0.51281 0.56544 0.0
H3764 H 0.27447 0.1736 0.43957 0.0
H3765 H 0.27745 0.19377 0.41166 0.0
H3766 H 0.28025 0.24594 0.45058 0.0
H3767 H 0.27611 0.22563 0.47831 0.0
H3768 H 0.25741 0.24767 0.42061 0.0
H3769 H 0.32061 0.22714 0.39248 0.0
H3770 H 0.30366 0.20527 0.39369 0.0
H3771 H 0.31367 0.2203 0.41603 0.0
C3772 C 0.27589 0.18939 0.44214 0.0
C3773 C 0.27498 0.1981 0.46099 0.0
C3774 C 0.27783 0.20094 0.42625 0.0
C3775 C 0.27956 0.22146 0.42906 0.0
C3776 C 0.27904 0.23017 0.44804 0.0
H3777 H 0.29234 0.27992 0.31957 0.0
H3778 H 0.29964 0.27224 0.35368 0.0
C3779 C 0.27662 0.21857 0.46384 0.0
C3780 C 0.28001 0.2335 0.41192 0.0
H3781 H 0.29846 0.23846 0.36822 0.0
C3782 C 0.2667 0.24596 0.40937 0.0
C3783 C 0.29247 0.23186 0.39746 0.0
C3784 C 0.30854 0.22059 0.40022 0.0
C3785 C 0.26457 0.25563 0.39215 0.0
C3786 C 0.27545 0.25205 0.37672 0.0
C3787 C 0.28977 0.24084 0.37986 0.0
C3788 C 0.271 0.25815 0.35669 0.0
C3789 C 0.25044 0.26934 0.39064 0.0
C3790 C 0.25256 0.25266 0.34704 0.0
C3791 C 0.24831 0.25728 0.32778 0.0
C3792 C 0.26254 0.26704 0.31757 0.0
C3793 C 0.28108 0.2724 0.32711 0.0
C3794 C 0.28527 0.26805 0.34658 0.0
H3795 H 0.24932 0.2765 0.40535 0.0
H3796 H 0.25435 0.28095 0.38057 0.0
H3797 H 0.23625 0.26079 0.38501 0.0
H3798 H 0.24147 0.24435 0.35424 0.0
H3799 H 0.23396 0.25266 0.32072 0.0
H3800 H 0.35042 0.63731 0.46486 0.0
H3801 H 0.37565 0.61787 0.4681 0.0
H3802 H 0.36044 0.6025 0.52515 0.0
H3803 H 0.335 0.62171 0.52196 0.0
H3804 H 0.40693 0.62145 0.49666 0.0
H3805 H 0.36008 0.54901 0.49624 0.0
H3806 H 0.3513 0.57063 0.48889 0.0
H3807 H 0.35619 0.5671 0.51458 0.0
C3808 C 0.35237 0.62975 0.47809 0.0
C3809 C 0.34056 0.63099 0.4931 0.0
C3810 C 0.36685 0.61867 0.47993 0.0
C3811 C 0.36979 0.60848 0.49673 0.0
C3812 C 0.35821 0.60991 0.51187 0.0
H3813 H 0.44702 0.53212 0.53599 0.0
H3814 H 0.42287 0.55289 0.53248 0.0
C3815 C 0.34372 0.62099 0.51006 0.0
C3816 C 0.38503 0.59649 0.49846 0.0
H3817 H 0.39299 0.54983 0.50382 0.0
C3818 C 0.40389 0.60577 0.49814 0.0
C3819 C 0.38106 0.57603 0.50035 0.0
C3820 C 0.36106 0.56503 0.49986 0.0
C3821 C 0.41891 0.59524 0.50013 0.0
C3822 C 0.41493 0.57479 0.50215 0.0
C3823 C 0.39606 0.56551 0.50234 0.0
C3824 C 0.43008 0.56271 0.50436 0.0
C3825 C 0.43893 0.60621 0.50059 0.0
C3826 C 0.44212 0.56116 0.48965 0.0
C3827 C 0.45598 0.5493 0.49167 0.0
C3828 C 0.45793 0.53869 0.50834 0.0
C3829 C 0.44578 0.54011 0.52294 0.0
C3830 C 0.43201 0.552 0.52097 0.0
H3831 H 0.43992 0.62224 0.50415 0.0
H3832 H 0.44869 0.60064 0.51158 0.0
H3833 H 0.4438 0.60409 0.48588 0.0
H3834 H 0.44061 0.56886 0.47646 0.0
H3835 H 0.4649 0.54812 0.48002 0.0
H3836 H 0.79791 0.9537 0.52705 0.0
H3837 H 0.82999 0.97 0.52308 0.0
H3838 H 0.84965 0.91492 0.52709 0.0
H3839 H 0.81762 0.89843 0.53098 0.0
H3840 H 0.86392 0.97153 0.54912 0.0
H3841 H 0.86725 0.93542 0.47503 0.0
H3842 H 0.84524 0.93565 0.48535 0.0
H3843 H 0.86042 0.91901 0.4934 0.0
C3844 C 0.80905 0.94504 0.52712 0.0
C3845 C 0.80521 0.92475 0.52925 0.0
C3846 C 0.82735 0.95438 0.52484 0.0
C3847 C 0.84206 0.94358 0.52449 0.0
C3848 C 0.83837 0.92342 0.52697 0.0
H3849 H 0.96263 0.98574 0.53889 0.0
H3850 H 0.93041 0.96889 0.541 0.0
C3851 C 0.8201 0.91406 0.52931 0.0
C3852 C 0.86134 0.9535 0.52186 0.0
H3853 H 0.89571 0.95491 0.49096 0.0
C3854 C 0.87087 0.96795 0.5364 0.0
C3855 C 0.87021 0.94889 0.50512 0.0
C3856 C 0.86024 0.93402 0.48871 0.0
C3857 C 0.88928 0.9777 0.53482 0.0
C3858 C 0.89835 0.97271 0.51836 0.0
C3859 C 0.8887 0.95854 0.50363 0.0
C3860 C 0.91793 0.9821 0.5163 0.0
C3861 C 0.89885 0.99339 0.55067 0.0
C3862 C 0.92157 0.99464 0.50132 0.0
C3863 C 0.94 0.00435 0.50003 0.0
C3864 C 0.95506 0.00154 0.51367 0.0
C3865 C 0.95137 0.9884 0.52824 0.0
C3866 C 0.93297 0.97878 0.52953 0.0
H3867 H 0.88859 0.9984 0.56 0.0
H3868 H 0.90942 0.98741 0.56033 0.0
H3869 H 0.90642 0.00627 0.54409 0.0
H3870 H 0.9101 0.99726 0.49091 0.0
H3871 H 0.94235 0.01428 0.48857 0.0
H3872 H 0.82426 0.08567 0.25977 0.0
H3873 H 0.80388 0.10957 0.26595 0.0
H3874 H 0.81904 0.13757 0.21386 0.0
H3875 H 0.83912 0.11346 0.20732 0.0
H3876 H 0.81469 0.14861 0.27343 0.0
H3877 H 0.76213 0.13312 0.20708 0.0
H3878 H 0.77795 0.11653 0.21398 0.0
H3879 H 0.78599 0.13761 0.20098 0.0
C3880 C 0.82309 0.09677 0.24948 0.0
C3881 C 0.83331 0.09766 0.23303 0.0
C3882 C 0.81143 0.11041 0.25304 0.0
C3883 C 0.80973 0.12518 0.24023 0.0
C3884 C 0.81976 0.126 0.22368 0.0
H3885 H 0.78565 0.2397 0.26286 0.0
H3886 H 0.7991 0.21005 0.25988 0.0
C3887 C 0.83135 0.11228 0.22004 0.0
C3888 C 0.79858 0.14057 0.24492 0.0
H3889 H 0.76405 0.16416 0.22556 0.0
C3890 C 0.80345 0.15185 0.26307 0.0
C3891 C 0.78371 0.14458 0.23155 0.0
C3892 C 0.77699 0.13218 0.2124 0.0
C3893 C 0.7944 0.16757 0.26784 0.0
C3894 C 0.78038 0.17238 0.25392 0.0
C3895 C 0.77493 0.16057 0.23614 0.0
C3896 C 0.77209 0.19029 0.25697 0.0
C3897 C 0.80003 0.17891 0.28773 0.0
C3898 C 0.7524 0.18918 0.25583 0.0
C3899 C 0.74473 0.20633 0.25769 0.0
C3900 C 0.75664 0.22477 0.26087 0.0
C3901 C 0.77625 0.22579 0.26175 0.0
C3902 C 0.78392 0.20875 0.25979 0.0
H3903 H 0.80585 0.16974 0.29873 0.0
H3904 H 0.81124 0.19173 0.2864 0.0
H3905 H 0.78783 0.18436 0.29336 0.0
H3906 H 0.74299 0.17508 0.25337 0.0
H3907 H 0.72949 0.2052 0.25656 0.0
H3908 H 0.74745 0.10819 0.04075 0.0
H3909 H 0.71439 0.09223 0.03978 0.0
H3910 H 0.70223 0.11129 0.98183 0.0
H3911 H 0.73532 0.12712 0.98255 0.0
H3912 H 0.68348 0.11126 0.03621 0.0
H3913 H 0.67732 0.05323 0.97502 0.0
H3914 H 0.69987 0.06596 0.98719 0.0
H3915 H 0.6868 0.07753 0.96898 0.0
C3916 C 0.73783 0.10878 0.02767 0.0
C3917 C 0.74406 0.11893 0.01172 0.0
C3918 C 0.71892 0.09965 0.02716 0.0
C3919 C 0.70588 0.10037 0.01065 0.0
C3920 C 0.71211 0.1102 0.99455 0.0
H3921 H 0.58343 0.06584 0.98608 0.0
H3922 H 0.61721 0.07785 0.9843 0.0
C3923 C 0.73103 0.11934 0.99505 0.0
C3924 C 0.68555 0.09202 0.0109 0.0
H3925 H 0.64868 0.05838 0.98709 0.0
C3926 C 0.6759 0.09961 0.02555 0.0
C3927 C 0.67566 0.07694 0.99688 0.0
C3928 C 0.68544 0.06778 0.98121 0.0
C3929 C 0.65658 0.09272 0.02642 0.0
C3930 C 0.64669 0.07754 0.01249 0.0
C3931 C 0.6563 0.06999 0.99777 0.0
C3932 C 0.62639 0.06931 0.01309 0.0
C3933 C 0.64681 0.10207 0.042 0.0
C3934 C 0.62042 0.06012 0.02964 0.0
C3935 C 0.6012 0.05333 0.03069 0.0
C3936 C 0.58761 0.05549 0.01516 0.0
C3937 C 0.59362 0.0641 0.9983 0.0
C3938 C 0.61288 0.07092 0.99726 0.0
H3939 H 0.65494 0.11668 0.04803 0.0
H3940 H 0.63238 0.10385 0.03601 0.0
H3941 H 0.6455 0.0925 0.05437 0.0
H3942 H 0.63064 0.05836 0.04184 0.0
H3943 H 0.59695 0.04662 0.04379 0.0
H3944 H 0.13023 0.42186 0.30998 0.0
H3945 H 0.15031 0.39686 0.30774 0.0
H3946 H 0.18059 0.42904 0.26539 0.0
H3947 H 0.16086 0.45416 0.26771 0.0
H3948 H 0.15527 0.37331 0.27488 0.0
H3949 H 0.22322 0.42032 0.30591 0.0
H3950 H 0.2006 0.42747 0.30825 0.0
H3951 H 0.21129 0.43043 0.28575 0.0
C3952 C 0.14123 0.42367 0.30026 0.0
C3953 C 0.144 0.44008 0.28911 0.0
C3954 C 0.15267 0.40936 0.299 0.0
C3955 C 0.16715 0.41127 0.28666 0.0
C3956 C 0.1698 0.42751 0.27535 0.0
H3957 H 0.24904 0.34544 0.24767 0.0
H3958 H 0.22834 0.36908 0.25406 0.0
C3959 C 0.1584 0.4418 0.27661 0.0
C3960 C 0.17918 0.39605 0.28509 0.0
H3961 H 0.22518 0.38949 0.28945 0.0
C3962 C 0.17054 0.37676 0.27825 0.0
C3963 C 0.19909 0.4006 0.28956 0.0
C3964 C 0.2091 0.42078 0.29796 0.0
C3965 C 0.18135 0.36208 0.27502 0.0
C3966 C 0.20131 0.36678 0.27901 0.0
C3967 C 0.20989 0.38596 0.28628 0.0
C3968 C 0.21362 0.35222 0.27519 0.0
C3969 C 0.17137 0.34186 0.26675 0.0
C3970 C 0.21237 0.33501 0.28512 0.0
C3971 C 0.22419 0.32149 0.28147 0.0
C3972 C 0.23748 0.32502 0.26789 0.0
C3973 C 0.23888 0.34235 0.25818 0.0
C3974 C 0.22707 0.35585 0.26181 0.0
H3975 H 0.15663 0.34187 0.26025 0.0
H3976 H 0.17914 0.33586 0.25529 0.0
H3977 H 0.17076 0.33187 0.27881 0.0
H3978 H 0.20239 0.33211 0.29582 0.0
H3979 H 0.223 0.30835 0.28936 0.0
H3980 H 0.18885 0.45002 0.05037 0.0
H3981 H 0.16514 0.46845 0.03716 0.0
H3982 H 0.19531 0.47949 0.98658 0.0
H3983 H 0.21883 0.46056 0.99942 0.0
H3984 H 0.16834 0.50652 0.02787 0.0
H3985 H 0.1426 0.45505 0.96111 0.0
H3986 H 0.15811 0.44902 0.98128 0.0
H3987 H 0.16734 0.46561 0.96404 0.0
C3988 C 0.19047 0.4564 0.03646 0.0
C3989 C 0.20558 0.45369 0.02585 0.0
C3990 C 0.17694 0.46695 0.02894 0.0
C3991 C 0.17834 0.47508 0.01075 0.0
C3992 C 0.19375 0.47296 0.00041 0.0
H3993 H 0.08955 0.54607 0.98654 0.0
H3994 H 0.12122 0.53781 0.98549 0.0
C3995 C 0.2072 0.46222 0.00783 0.0
C3996 C 0.16332 0.48538 0.00269 0.0
H3997 H 0.12643 0.48113 0.96637 0.0
C3998 C 0.15931 0.50121 0.01427 0.0
C3999 C 0.15167 0.47835 0.9849 0.0
C4000 C 0.15498 0.46099 0.97213 0.0
C4001 C 0.1432 0.50941 0.00927 0.0
C4002 C 0.13112 0.50189 0.99187 0.0
C4003 C 0.13584 0.48692 0.9796 0.0
C4004 C 0.112 0.50678 0.98816 0.0
C4005 C 0.13855 0.52499 0.02345 0.0
C4006 C 0.09626 0.49189 0.98865 0.0
C4007 C 0.07828 0.4965 0.98897 0.0
C4008 C 0.07577 0.51611 0.98889 0.0
C4009 C 0.09123 0.53086 0.9868 0.0
C4010 C 0.10928 0.52619 0.98632 0.0
H4011 H 0.1478 0.52682 0.0377 0.0
H4012 H 0.14049 0.53929 0.01682 0.0
H4013 H 0.1236 0.5213 0.0265 0.0
H4014 H 0.09803 0.4768 0.98998 0.0
H4015 H 0.06653 0.48483 0.99038 0.0
H4016 H 0.85997 0.97823 0.21145 0.0
H4017 H 0.84487 0.9449 0.21676 0.0
H4018 H 0.82213 0.96732 0.26764 0.0
H4019 H 0.8368 0.00071 0.26219 0.0
H4020 H 0.85054 0.924 0.24861 0.0
H4021 H 0.77551 0.9334 0.23748 0.0
H4022 H 0.79456 0.95117 0.2306 0.0
H4023 H 0.7898 0.95079 0.25588 0.0
C4024 C 0.85163 0.9761 0.22368 0.0
C4025 C 0.84951 0.99215 0.23634 0.0
C4026 C 0.84303 0.95704 0.22671 0.0
C4027 C 0.83213 0.95366 0.24241 0.0
C4028 C 0.83008 0.96963 0.25514 0.0
H4029 H 0.77697 0.84721 0.28884 0.0
H4030 H 0.79114 0.88109 0.28413 0.0
C4031 C 0.83858 0.9887 0.25206 0.0
C4032 C 0.8235 0.93334 0.24587 0.0
H4033 H 0.78142 0.90362 0.25022 0.0
C4034 C 0.83542 0.91953 0.24887 0.0
C4035 C 0.80376 0.92754 0.24625 0.0
C4036 C 0.79013 0.94144 0.2422 0.0
C4037 C 0.82816 0.90012 0.25241 0.0
C4038 C 0.80846 0.89438 0.25284 0.0
C4039 C 0.79653 0.90816 0.24997 0.0
C4040 C 0.79994 0.87394 0.2557 0.0
C4041 C 0.84159 0.88594 0.25592 0.0
C4042 C 0.80005 0.85882 0.24115 0.0
C4043 C 0.79192 0.83951 0.24372 0.0
C4044 C 0.78352 0.83495 0.26093 0.0
C4045 C 0.78338 0.85019 0.27546 0.0
C4046 C 0.79143 0.86955 0.27279 0.0
H4047 H 0.85652 0.89362 0.25925 0.0
H4048 H 0.83782 0.87697 0.2683 0.0
H4049 H 0.84055 0.87578 0.2425 0.0
H4050 H 0.80637 0.86198 0.22775 0.0
H4051 H 0.79231 0.82815 0.23224 0.0
H4052 H 0.64776 0.05044 0.7971 0.0
H4053 H 0.66608 0.08348 0.79664 0.0
H4054 H 0.69184 0.06422 0.74654 0.0
H4055 H 0.67368 0.03101 0.74693 0.0
H4056 H 0.71754 0.08892 0.77697 0.0
H4057 H 0.6538 0.12039 0.75369 0.0
H4058 H 0.65223 0.10692 0.77522 0.0
H4059 H 0.65379 0.0943 0.75186 0.0
C4060 C 0.65739 0.05317 0.78603 0.0
C4061 C 0.65913 0.03812 0.77193 0.0
C4062 C 0.6678 0.07207 0.78577 0.0
C4063 C 0.68008 0.07631 0.77138 0.0
C4064 C 0.68236 0.06122 0.7577 0.0
H4065 H 0.74897 0.18485 0.74247 0.0
H4066 H 0.73551 0.15019 0.74483 0.0
C4067 C 0.67193 0.04229 0.75793 0.0
C4068 C 0.69009 0.09665 0.77029 0.0
H4069 H 0.68246 0.1429 0.76248 0.0
C4070 C 0.70993 0.10075 0.77373 0.0
C4071 C 0.68008 0.11197 0.76597 0.0
C4072 C 0.65881 0.10823 0.76129 0.0
C4073 C 0.72002 0.11996 0.7735 0.0
C4074 C 0.70995 0.13531 0.7694 0.0
C4075 C 0.69013 0.13111 0.76573 0.0
C4076 C 0.71953 0.15595 0.76899 0.0
C4077 C 0.74127 0.12376 0.77813 0.0
C4078 C 0.71495 0.17065 0.7817 0.0
C4079 C 0.72247 0.19037 0.78025 0.0
C4080 C 0.73466 0.19576 0.76602 0.0
C4081 C 0.73967 0.18104 0.75362 0.0
C4082 C 0.73208 0.16126 0.75504 0.0
H4083 H 0.74632 0.11156 0.78564 0.0
H4084 H 0.74782 0.12518 0.7642 0.0
H4085 H 0.74625 0.13765 0.78763 0.0
H4086 H 0.70527 0.16687 0.79252 0.0
H4087 H 0.71841 0.20144 0.79001 0.0
loop_
_geom_bond_atom_site_label_1
_geom_bond_atom_site_label_2
_geom_bond_distance
_geom_bond_site_symmetry_2
_ccdc_geom_bond_type
C0 O1 1.160 . S
C0 O7 1.185 . S
O1 C0 1.160 . S
O2 Zn3 1.899 . S
O2 C10 1.284 . S
Zn3 O2 1.899 . S
Zn3 O4 2.032 . S
Zn3 O7 2.086 . S
Zn3 O12 1.977 1_455 S
O4 Zn3 2.032 . S
O4 C8 1.278 . S
C5 O6 1.203 . S
C5 O12 1.267 . S
O6 C5 1.203 . S
O7 C0 1.185 . S
O7 Zn3 2.086 . S
C8 O4 1.278 . S
C8 O9 1.169 1_455 S
O9 C8 1.169 1_655 S
C10 O2 1.284 . S
C10 O11 1.273 . S
O11 C10 1.273 . S
O12 Zn3 1.977 1_655 S
O12 C5 1.267 . S
C13 O14 1.160 . S
C13 O20 1.185 . S
O14 C13 1.160 . S
O15 Zn16 1.899 . S
O15 C23 1.284 . S
Zn16 O15 1.899 . S
Zn16 O17 2.032 . S
Zn16 O20 2.086 . S
Zn16 O25 1.977 1_655 S
O17 Zn16 2.032 . S
O17 C21 1.278 1_655 S
C18 O19 1.203 . S
C18 O25 1.267 . S
O19 C18 1.203 . S
O20 C13 1.185 . S
O20 Zn16 2.086 . S
C21 O17 1.278 1_455 S
C21 O22 1.211 . S
O22 C21 1.211 . S
C23 O15 1.284 . S
C23 O24 1.273 1_655 S
O24 C23 1.273 1_455 S
O25 Zn16 1.977 1_455 S
O25 C18 1.267 . S
C26 O27 1.160 . S
C26 O33 1.185 . S
O27 C26 1.160 . S
O28 Zn29 1.899 . S
O28 C36 1.284 . S
Zn29 O28 1.899 . S
Zn29 O30 2.032 . S
Zn29 O33 2.086 . S
Zn29 O38 1.977 . S
O30 Zn29 2.032 . S
O30 C34 1.278 . S
C31 O32 1.203 . S
C31 O38 1.267 . S
O32 C31 1.203 . S
O33 C26 1.185 . S
O33 Zn29 2.086 . S
C34 O30 1.278 . S
C34 O35 1.211 . S
O35 C34 1.211 . S
C36 O28 1.284 . S
C36 O37 1.273 . S
O37 C36 1.273 . S
O38 Zn29 1.977 . S
O38 C31 1.267 . S
C39 O40 1.160 . S
C39 O46 1.185 . S
O40 C39 1.160 . S
O41 Zn42 1.899 . S
O41 C49 1.284 . S
Zn42 O41 1.899 . S
Zn42 O43 2.032 . S
Zn42 O46 2.086 . S
Zn42 O51 1.977 . S
O43 Zn42 2.032 . S
O43 C47 1.278 . S
C44 O45 1.203 . S
C44 O51 1.267 . S
O45 C44 1.203 . S
O46 C39 1.185 . S
O46 Zn42 2.086 . S
C47 O43 1.278 . S
C47 O48 1.211 . S
O48 C47 1.211 . S
C49 O41 1.284 . S
C49 O50 1.273 . S
O50 C49 1.273 . S
O51 Zn42 1.977 . S
O51 C44 1.267 . S
C52 O53 1.160 . S
C52 O59 1.185 . S
O53 C52 1.160 . S
O54 Zn55 1.899 . S
O54 C62 1.284 . S
Zn55 O54 1.899 . S
Zn55 O56 2.032 1_455 S
Zn55 O59 2.086 1_455 S
Zn55 O64 1.977 . S
O56 Zn55 2.032 1_655 S
O56 C60 1.278 1_655 S
C57 O58 1.203 . S
C57 O64 1.267 . S
O58 C57 1.203 . S
O59 C52 1.185 . S
O59 Zn55 2.086 1_655 S
C60 O56 1.278 1_455 S
C60 O61 1.211 . S
O61 C60 1.211 . S
C62 O54 1.284 . S
C62 O63 1.273 . S
O63 C62 1.273 . S
O64 Zn55 1.977 . S
O64 C57 1.267 . S
C65 O66 1.160 . S
C65 O72 1.185 . S
O66 C65 1.160 . S
O67 Zn68 1.899 . S
O67 C75 1.284 . S
Zn68 O67 1.899 . S
Zn68 O69 2.032 . S
Zn68 O72 2.086 . S
Zn68 O77 1.977 . S
O69 Zn68 2.032 . S
O69 C73 1.278 . S
C70 O71 1.203 . S
C70 O77 1.267 . S
O71 C70 1.203 . S
O72 C65 1.185 . S
O72 Zn68 2.086 . S
C73 O69 1.278 . S
C73 O74 1.211 . S
O74 C73 1.211 . S
C75 O67 1.284 . S
C75 O76 1.273 . S
O76 C75 1.273 . S
O77 Zn68 1.977 . S
O77 C70 1.267 . S
C78 O79 1.160 . S
C78 O85 1.185 . S
O79 C78 1.160 . S
O80 Zn81 1.899 . S
O80 C88 1.284 . S
Zn81 O80 1.899 . S
Zn81 O82 2.032 . S
Zn81 O85 2.086 . S
Zn81 O90 1.977 . S
O82 Zn81 2.032 . S
O82 C86 1.278 . S
C83 O84 1.203 . S
C83 O90 1.267 . S
O84 C83 1.203 . S
O85 C78 1.185 . S
O85 Zn81 2.086 . S
C86 O82 1.278 . S
C86 O87 1.211 . S
O87 C86 1.211 . S
C88 O80 1.284 . S
C88 O89 1.273 . S
O89 C88 1.273 . S
O90 Zn81 1.977 . S
O90 C83 1.267 . S
C91 O92 1.160 . S
C91 O98 1.185 . S
O92 C91 1.160 . S
O93 Zn94 1.899 . S
O93 C101 1.284 . S
Zn94 O93 1.899 . S
Zn94 O95 2.032 . S
Zn94 O98 2.086 . S
Zn94 O103 1.977 1_455 S
O95 Zn94 2.032 . S
O95 C99 1.278 . S
C96 O97 1.203 . S
C96 O103 1.267 . S
O97 C96 1.203 . S
O98 C91 1.185 . S
O98 Zn94 2.086 . S
C99 O95 1.278 . S
C99 O100 1.211 1_455 S
O100 C99 1.211 1_655 S
C101 O93 1.284 . S
C101 O102 1.273 . S
O102 C101 1.273 . S
O103 Zn94 1.977 1_655 S
O103 C96 1.267 . S
C104 O105 1.160 . S
C104 O111 1.185 . S
O105 C104 1.160 . S
O106 Zn107 1.899 . S
O106 C114 1.284 . S
Zn107 O106 1.899 . S
Zn107 O108 2.032 . S
Zn107 O111 2.086 . S
Zn107 O116 1.977 . S
O108 Zn107 2.032 . S
O108 C112 1.278 . S
C109 O110 1.203 . S
C109 O116 1.267 . S
O110 C109 1.203 . S
O111 C104 1.185 . S
O111 Zn107 2.086 . S
C112 O108 1.278 . S
C112 O113 1.211 . S
O113 C112 1.211 . S
C114 O106 1.284 . S
C114 O115 1.273 . S
O115 C114 1.273 . S
O116 Zn107 1.977 . S
O116 C109 1.267 . S
C117 O118 1.160 . S
C117 O124 1.185 . S
O118 C117 1.160 . S
O119 Zn120 1.899 . S
O119 C127 1.284 . S
Zn120 O119 1.899 . S
Zn120 O121 2.032 . S
Zn120 O124 2.086 . S
Zn120 O129 1.977 . S
O121 Zn120 2.032 . S
O121 C125 1.278 . S
C122 O123 1.203 . S
C122 O129 1.267 . S
O123 C122 1.203 . S
O124 C117 1.185 . S
O124 Zn120 2.086 . S
C125 O121 1.278 . S
C125 O126 1.211 . S
O126 C125 1.211 . S
C127 O119 1.284 . S
C127 O128 1.273 . S
O128 C127 1.273 . S
O129 Zn120 1.977 . S
O129 C122 1.267 . S
C130 O131 1.160 . S
C130 O137 1.185 . S
O131 C130 1.160 . S
O132 Zn133 1.899 . S
O132 C140 1.284 . S
Zn133 O132 1.899 . S
Zn133 O134 2.032 . S
Zn133 O137 2.086 . S
Zn133 O142 1.977 1_565 S
O134 Zn133 2.032 . S
O134 C138 1.278 1_565 S
C135 O136 1.203 . S
C135 O142 1.267 . S
O136 C135 1.203 . S
O137 C130 1.185 . S
O137 Zn133 2.086 . S
C138 O134 1.278 1_545 S
C138 O139 1.211 . S
O139 C138 1.211 . S
C140 O132 1.284 . S
C140 O141 1.273 1_565 S
O141 C140 1.273 1_545 S
O142 Zn133 1.977 1_545 S
O142 C135 1.267 . S
C143 O144 1.160 . S
C143 O150 1.185 . S
O144 C143 1.160 . S
O145 Zn146 1.899 . S
O145 C153 1.284 . S
Zn146 O145 1.899 . S
Zn146 O147 2.032 . S
Zn146 O150 2.086 . S
Zn146 O155 1.977 . S
O147 Zn146 2.032 . S
O147 C151 1.278 1_554 S
C148 O149 1.203 . S
C148 O155 1.267 . S
O149 C148 1.203 . S
O150 C143 1.185 . S
O150 Zn146 2.086 . S
C151 O147 1.278 1_556 S
C151 O152 1.212 . S
O152 C151 1.212 . S
C153 O145 1.284 . S
C153 O154 1.273 . S
O154 C153 1.273 . S
O155 Zn146 1.977 . S
O155 C148 1.267 . S
C156 O157 1.160 . S
C156 O163 1.185 . S
O157 C156 1.160 . S
O158 Zn159 1.899 . S
O158 C166 1.284 . S
Zn159 O158 1.899 . S
Zn159 O160 2.032 . S
Zn159 O163 2.086 . S
Zn159 O168 1.977 . S
O160 Zn159 2.032 . S
O160 C164 1.278 1_554 S
C161 O162 1.203 . S
C161 O168 1.267 . S
O162 C161 1.203 . S
O163 C156 1.185 . S
O163 Zn159 2.086 . S
C164 O160 1.278 1_556 S
C164 O165 1.211 . S
O165 C164 1.211 . S
C166 O158 1.284 . S
C166 O167 1.273 . S
O167 C166 1.273 . S
O168 Zn159 1.977 . S
O168 C161 1.267 . S
C169 O170 1.160 . S
C169 O176 1.185 1_554 S
O170 C169 1.160 . S
O171 Zn172 1.899 . S
O171 C179 1.284 . S
Zn172 O171 1.899 . S
Zn172 O173 2.032 1_554 S
Zn172 O176 2.086 1_554 S
Zn172 O181 1.977 1_554 S
O173 Zn172 2.032 1_556 S
O173 C177 1.278 . S
C174 O175 1.201 . S
C174 O181 1.268 1_554 S
O175 C174 1.201 . S
O176 C169 1.185 1_556 S
O176 Zn172 2.086 1_556 S
C177 O173 1.278 . S
C177 O178 1.211 . S
O178 C177 1.211 . S
C179 O171 1.284 . S
C179 O180 1.273 . S
O180 C179 1.273 . S
O181 Zn172 1.977 1_556 S
O181 C174 1.268 1_556 S
C182 O183 1.160 . S
C182 O189 1.185 . S
O183 C182 1.160 . S
O184 Zn185 1.899 . S
O184 C192 1.284 . S
Zn185 O184 1.899 . S
Zn185 O186 2.032 . S
Zn185 O189 2.086 . S
Zn185 O194 1.977 . S
O186 Zn185 2.032 . S
O186 C190 1.278 . S
C187 O188 1.203 . S
C187 O194 1.267 . S
O188 C187 1.203 . S
O189 C182 1.185 . S
O189 Zn185 2.086 . S
C190 O186 1.278 . S
C190 O191 1.211 . S
O191 C190 1.211 . S
C192 O184 1.284 . S
C192 O193 1.273 . S
O193 C192 1.273 . S
O194 Zn185 1.977 . S
O194 C187 1.267 . S
C195 O196 1.160 . S
C195 O202 1.185 . S
O196 C195 1.160 . S
O197 Zn198 1.899 . S
O197 C205 1.284 . S
Zn198 O197 1.899 . S
Zn198 O199 2.032 . S
Zn198 O202 2.086 . S
Zn198 O207 1.977 . S
O199 Zn198 2.032 . S
O199 C203 1.278 . S
C200 O201 1.203 . S
C200 O207 1.267 . S
O201 C200 1.203 . S
O202 C195 1.185 . S
O202 Zn198 2.086 . S
C203 O199 1.278 . S
C203 O204 1.211 . S
O204 C203 1.211 . S
C205 O197 1.284 . S
C205 O206 1.273 . S
O206 C205 1.273 . S
O207 Zn198 1.977 . S
O207 C200 1.267 . S
C208 O209 1.160 . S
C208 O215 1.185 . S
O209 C208 1.160 . S
O210 Zn211 1.899 . S
O210 C218 1.284 . S
Zn211 O210 1.899 . S
Zn211 O212 2.032 . S
Zn211 O215 2.086 . S
Zn211 O220 1.977 . S
O212 Zn211 2.032 . S
O212 C216 1.278 . S
C213 O214 1.203 . S
C213 O220 1.267 . S
O214 C213 1.203 . S
O215 C208 1.185 . S
O215 Zn211 2.086 . S
C216 O212 1.278 . S
C216 O217 1.211 . S
O217 C216 1.211 . S
C218 O210 1.284 . S
C218 O219 1.273 . S
O219 C218 1.273 . S
O220 Zn211 1.977 . S
O220 C213 1.267 . S
C221 O222 1.160 . S
C221 O228 1.185 . S
O222 C221 1.160 . S
O223 Zn224 1.899 . S
O223 C231 1.284 . S
Zn224 O223 1.899 . S
Zn224 O225 2.032 . S
Zn224 O228 2.086 . S
Zn224 O233 1.977 . S
O225 Zn224 2.032 . S
O225 C229 1.278 . S
C226 O227 1.203 . S
C226 O233 1.267 . S
O227 C226 1.203 . S
O228 C221 1.185 . S
O228 Zn224 2.086 . S
C229 O225 1.278 . S
C229 O230 1.211 . S
O230 C229 1.211 . S
C231 O223 1.284 . S
C231 O232 1.273 . S
O232 C231 1.273 . S
O233 Zn224 1.977 . S
O233 C226 1.267 . S
C234 O235 1.160 . S
C234 O241 1.185 . S
O235 C234 1.160 . S
O236 Zn237 1.899 . S
O236 C244 1.284 . S
Zn237 O236 1.899 . S
Zn237 O238 2.032 . S
Zn237 O241 2.086 . S
Zn237 O246 1.977 . S
O238 Zn237 2.032 . S
O238 C242 1.278 . S
C239 O240 1.203 . S
C239 O246 1.267 . S
O240 C239 1.203 . S
O241 C234 1.185 . S
O241 Zn237 2.086 . S
C242 O238 1.278 . S
C242 O243 1.211 . S
O243 C242 1.211 . S
C244 O236 1.284 . S
C244 O245 1.273 . S
O245 C244 1.273 . S
O246 Zn237 1.977 . S
O246 C239 1.267 . S
C247 O248 1.160 . S
C247 O254 1.185 . S
O248 C247 1.160 . S
O249 Zn250 1.899 . S
O249 C257 1.284 . S
Zn250 O249 1.899 . S
Zn250 O251 2.032 . S
Zn250 O254 2.086 1_545 S
Zn250 O259 1.977 . S
O251 Zn250 2.032 . S
O251 C255 1.278 . S
C252 O253 1.203 . S
C252 O259 1.267 . S
O253 C252 1.203 . S
O254 C247 1.185 . S
O254 Zn250 2.086 1_565 S
C255 O251 1.278 . S
C255 O256 1.211 . S
O256 C255 1.211 . S
C257 O249 1.284 . S
C257 O258 1.273 . S
O258 C257 1.273 . S
O259 Zn250 1.977 . S
O259 C252 1.267 . S
C260 O261 1.160 . S
C260 O267 1.185 . S
O261 C260 1.160 . S
O262 Zn263 1.899 . S
O262 C270 1.284 . S
Zn263 O262 1.899 . S
Zn263 O264 2.032 1_554 S
Zn263 O267 2.086 . S
Zn263 O272 1.980 . S
O264 Zn263 2.032 1_556 S
O264 C268 1.278 . S
C265 O266 1.203 . S
C265 O272 1.275 . S
O266 C265 1.203 . S
O267 C260 1.185 . S
O267 Zn263 2.086 . S
C268 O264 1.278 . S
C268 O269 1.211 . S
O269 C268 1.211 . S
C270 O262 1.284 . S
C270 O271 1.273 . S
O271 C270 1.273 . S
O272 Zn263 1.980 . S
O272 C265 1.275 . S
C273 O274 1.160 . S
C273 O280 1.185 . S
O274 C273 1.160 . S
O275 Zn276 1.899 . S
O275 C283 1.284 . S
Zn276 O275 1.899 . S
Zn276 O277 2.032 . S
Zn276 O280 2.086 . S
Zn276 O285 1.977 . S
O277 Zn276 2.032 . S
O277 C281 1.278 . S
C278 O279 1.203 . S
C278 O285 1.267 . S
O279 C278 1.203 . S
O280 C273 1.185 . S
O280 Zn276 2.086 . S
C281 O277 1.278 . S
C281 O282 1.211 . S
O282 C281 1.211 . S
C283 O275 1.284 . S
C283 O284 1.273 . S
O284 C283 1.273 . S
O285 Zn276 1.977 . S
O285 C278 1.267 . S
C286 O287 1.160 . S
C286 O293 1.185 . S
O287 C286 1.160 . S
O288 Zn289 1.899 . S
O288 C296 1.284 . S
Zn289 O288 1.899 . S
Zn289 O290 2.032 . S
Zn289 O293 2.086 . S
Zn289 O298 1.977 . S
O290 Zn289 2.032 . S
O290 C294 1.278 . S
C291 O292 1.203 . S
C291 O298 1.267 . S
O292 C291 1.203 . S
O293 C286 1.185 . S
O293 Zn289 2.086 . S
C294 O290 1.278 . S
C294 O295 1.211 . S
O295 C294 1.211 . S
C296 O288 1.284 . S
C296 O297 1.273 . S
O297 C296 1.273 . S
O298 Zn289 1.977 . S
O298 C291 1.267 . S
C299 O300 1.160 . S
C299 O306 1.185 . S
O300 C299 1.160 . S
O301 Zn302 1.899 . S
O301 C309 1.284 . S
Zn302 O301 1.899 . S
Zn302 O303 2.032 . S
Zn302 O306 2.086 . S
Zn302 O311 1.977 . S
O303 Zn302 2.032 . S
O303 C307 1.278 . S
C304 O305 1.203 . S
C304 O311 1.267 . S
O305 C304 1.203 . S
O306 C299 1.185 . S
O306 Zn302 2.086 . S
C307 O303 1.278 . S
C307 O308 1.211 . S
O308 C307 1.211 . S
C309 O301 1.284 . S
C309 O310 1.273 . S
O310 C309 1.273 . S
O311 Zn302 1.977 . S
O311 C304 1.267 . S
Tb312 O315 2.453 . S
Tb312 O316 2.596 . S
Tb312 O317 2.374 1_554 S
Tb312 O325 2.343 1_455 S
Tb312 O327 2.353 . S
Tb312 O329 2.427 . S
Tb312 O330 2.513 1_554 S
C313 O317 1.251 . S
C313 O319 1.235 1_455 S
Tb314 O316 2.342 1_655 S
Tb314 O319 2.370 1_554 S
Tb314 O322 2.440 1_545 S
Tb314 O323 2.516 1_545 S
Tb314 O324 2.450 1_554 S
Tb314 O325 2.591 . S
Tb314 O326 2.371 . S
O315 Tb312 2.453 . S
O315 C331 1.245 . S
O316 Tb312 2.596 . S
O316 Tb314 2.342 1_455 S
O316 C331 1.259 . S
O317 Tb312 2.374 1_556 S
O317 C313 1.251 . S
C318 O322 1.274 1_455 S
C318 O323 1.246 1_455 S
O319 C313 1.235 1_655 S
O319 Tb314 2.370 1_556 S
C320 O324 1.245 1_554 S
C320 O325 1.259 . S
C321 O326 1.250 . S
C321 O327 1.263 1_655 S
O322 Tb314 2.440 1_565 S
O322 C318 1.274 1_655 S
O323 Tb314 2.516 1_565 S
O323 C318 1.246 1_655 S
O324 Tb314 2.450 1_556 S
O324 C320 1.245 1_556 S
O325 Tb312 2.343 1_655 S
O325 Tb314 2.591 . S
O325 C320 1.259 . S
O326 Tb314 2.371 . S
O326 C321 1.250 . S
O327 Tb312 2.353 . S
O327 C321 1.263 1_455 S
C328 O329 1.275 1_556 S
C328 O330 1.246 . S
O329 Tb312 2.427 . S
O329 C328 1.275 1_554 S
O330 Tb312 2.513 1_556 S
O330 C328 1.246 . S
C331 O315 1.245 . S
C331 O316 1.259 . S
Tb332 O335 2.453 . S
Tb332 O336 2.596 . S
Tb332 O337 2.374 . S
Tb332 O345 2.343 . S
Tb332 O347 2.353 . S
Tb332 O349 2.427 . S
Tb332 O350 2.513 . S
C333 O337 1.251 . S
C333 O339 1.263 . S
Tb334 O336 2.343 . S
Tb334 O339 2.353 . S
Tb334 O342 2.427 . S
Tb334 O343 2.513 . S
Tb334 O344 2.453 . S
Tb334 O345 2.596 . S
Tb334 O346 2.374 . S
O335 Tb332 2.453 . S
O335 C351 1.245 . S
O336 Tb332 2.596 . S
O336 Tb334 2.343 . S
O336 C351 1.259 . S
O337 Tb332 2.374 . S
O337 C333 1.251 . S
C338 O342 1.275 . S
C338 O343 1.246 . S
O339 C333 1.263 . S
O339 Tb334 2.353 . S
C340 O344 1.245 . S
C340 O345 1.259 . S
C341 O346 1.250 . S
C341 O347 1.263 . S
O342 Tb334 2.427 . S
O342 C338 1.275 . S
O343 Tb334 2.513 . S
O343 C338 1.246 . S
O344 Tb334 2.453 . S
O344 C340 1.245 . S
O345 Tb332 2.343 . S
O345 Tb334 2.596 . S
O345 C340 1.259 . S
O346 Tb334 2.374 . S
O346 C341 1.250 . S
O347 Tb332 2.353 . S
O347 C341 1.263 . S
C348 O349 1.275 . S
C348 O350 1.246 . S
O349 Tb332 2.427 . S
O349 C348 1.275 . S
O350 Tb332 2.513 . S
O350 C348 1.246 . S
C351 O335 1.245 . S
C351 O336 1.259 . S
Tb352 O355 2.453 . S
Tb352 O356 2.596 . S
Tb352 O357 2.374 . S
Tb352 O365 2.343 . S
Tb352 O367 2.353 . S
Tb352 O369 2.427 . S
Tb352 O370 2.513 . S
C353 O357 1.251 . S
C353 O359 1.263 . S
Tb354 O356 2.343 . S
Tb354 O359 2.353 . S
Tb354 O362 2.427 . S
Tb354 O363 2.513 . S
Tb354 O364 2.453 1_545 S
Tb354 O365 2.596 . S
Tb354 O366 2.374 . S
O355 Tb352 2.453 . S
O355 C371 1.245 . S
O356 Tb352 2.596 . S
O356 Tb354 2.343 . S
O356 C371 1.259 . S
O357 Tb352 2.374 . S
O357 C353 1.251 . S
C358 O362 1.275 . S
C358 O363 1.246 . S
O359 C353 1.263 . S
O359 Tb354 2.353 . S
C360 O364 1.245 . S
C360 O365 1.259 1_565 S
C361 O366 1.250 . S
C361 O367 1.263 . S
O362 Tb354 2.427 . S
O362 C358 1.275 . S
O363 Tb354 2.513 . S
O363 C358 1.246 . S
O364 Tb354 2.453 1_565 S
O364 C360 1.245 . S
O365 Tb352 2.343 . S
O365 Tb354 2.596 . S
O365 C360 1.259 1_545 S
O366 Tb354 2.374 . S
O366 C361 1.250 . S
O367 Tb352 2.353 . S
O367 C361 1.263 . S
C368 O369 1.275 . S
C368 O370 1.246 . S
O369 Tb352 2.427 . S
O369 C368 1.275 . S
O370 Tb352 2.513 . S
O370 C368 1.246 . S
C371 O355 1.245 . S
C371 O356 1.259 . S
Tb372 O375 2.453 . S
Tb372 O376 2.596 . S
Tb372 O377 2.374 . S
Tb372 O385 2.343 . S
Tb372 O387 2.353 . S
Tb372 O389 2.427 . S
Tb372 O390 2.513 . S
C373 O377 1.251 . S
C373 O379 1.263 . S
Tb374 O376 2.343 . S
Tb374 O379 2.353 . S
Tb374 O382 2.427 . S
Tb374 O383 2.513 . S
Tb374 O384 2.453 . S
Tb374 O385 2.596 . S
Tb374 O386 2.374 . S
O375 Tb372 2.453 . S
O375 C391 1.245 . S
O376 Tb372 2.596 . S
O376 Tb374 2.343 . S
O376 C391 1.259 . S
O377 Tb372 2.374 . S
O377 C373 1.251 . S
C378 O382 1.275 . S
C378 O383 1.246 . S
O379 C373 1.263 . S
O379 Tb374 2.353 . S
C380 O384 1.245 . S
C380 O385 1.259 . S
C381 O386 1.250 . S
C381 O387 1.263 . S
O382 Tb374 2.427 . S
O382 C378 1.275 . S
O383 Tb374 2.513 . S
O383 C378 1.246 . S
O384 Tb374 2.453 . S
O384 C380 1.245 . S
O385 Tb372 2.343 . S
O385 Tb374 2.596 . S
O385 C380 1.259 . S
O386 Tb374 2.374 . S
O386 C381 1.250 . S
O387 Tb372 2.353 . S
O387 C381 1.263 . S
C388 O389 1.275 . S
C388 O390 1.246 . S
O389 Tb372 2.427 . S
O389 C388 1.275 . S
O390 Tb372 2.513 . S
O390 C388 1.246 . S
C391 O375 1.245 . S
C391 O376 1.259 . S
Tb392 O395 2.453 1_545 S
Tb392 O396 2.596 . S
Tb392 O397 2.374 1_455 S
Tb392 O405 2.343 . S
Tb392 O407 2.353 . S
Tb392 O409 2.427 . S
Tb392 O410 2.513 1_455 S
C393 O397 1.251 . S
C393 O399 1.263 . S
Tb394 O396 2.343 . S
Tb394 O399 2.353 1_455 S
Tb394 O402 2.427 . S
Tb394 O403 2.513 . S
Tb394 O404 2.453 . S
Tb394 O405 2.596 . S
Tb394 O406 2.374 . S
O395 Tb392 2.453 1_565 S
O395 C411 1.245 . S
O396 Tb392 2.596 . S
O396 Tb394 2.343 . S
O396 C411 1.259 1_545 S
O397 Tb392 2.374 1_655 S
O397 C393 1.251 . S
C398 O402 1.275 . S
C398 O403 1.246 . S
O399 C393 1.263 . S
O399 Tb394 2.353 1_655 S
C400 O404 1.245 . S
C400 O405 1.259 . S
C401 O406 1.250 . S
C401 O407 1.263 . S
O402 Tb394 2.427 . S
O402 C398 1.275 . S
O403 Tb394 2.513 . S
O403 C398 1.246 . S
O404 Tb394 2.453 . S
O404 C400 1.245 . S
O405 Tb392 2.343 . S
O405 Tb394 2.596 . S
O405 C400 1.259 . S
O406 Tb394 2.374 . S
O406 C401 1.250 . S
O407 Tb392 2.353 . S
O407 C401 1.263 . S
C408 O409 1.275 1_655 S
C408 O410 1.246 . S
O409 Tb392 2.427 . S
O409 C408 1.275 1_455 S
O410 Tb392 2.513 1_655 S
O410 C408 1.246 . S
C411 O395 1.245 . S
C411 O396 1.259 1_565 S
Tb412 O415 2.453 . S
Tb412 O416 2.596 . S
Tb412 O417 2.374 . S
Tb412 O425 2.343 . S
Tb412 O427 2.353 . S
Tb412 O429 2.427 . S
Tb412 O430 2.513 . S
C413 O417 1.251 . S
C413 O419 1.263 . S
Tb414 O416 2.343 . S
Tb414 O419 2.353 . S
Tb414 O422 2.427 . S
Tb414 O423 2.513 . S
Tb414 O424 2.453 . S
Tb414 O425 2.596 . S
Tb414 O426 2.374 . S
O415 Tb412 2.453 . S
O415 C431 1.245 . S
O416 Tb412 2.596 . S
O416 Tb414 2.343 . S
O416 C431 1.259 . S
O417 Tb412 2.374 . S
O417 C413 1.251 . S
C418 O422 1.275 . S
C418 O423 1.246 . S
O419 C413 1.263 . S
O419 Tb414 2.353 . S
C420 O424 1.245 . S
C420 O425 1.259 . S
C421 O426 1.250 . S
C421 O427 1.263 . S
O422 Tb414 2.427 . S
O422 C418 1.275 . S
O423 Tb414 2.513 . S
O423 C418 1.246 . S
O424 Tb414 2.453 . S
O424 C420 1.245 . S
O425 Tb412 2.343 . S
O425 Tb414 2.596 . S
O425 C420 1.259 . S
O426 Tb414 2.374 . S
O426 C421 1.250 . S
O427 Tb412 2.353 . S
O427 C421 1.263 . S
C428 O429 1.275 . S
C428 O430 1.246 . S
O429 Tb412 2.427 . S
O429 C428 1.275 . S
O430 Tb412 2.513 . S
O430 C428 1.246 . S
C431 O415 1.245 . S
C431 O416 1.259 . S
Tb432 O435 2.454 . S
Tb432 O436 2.598 1_556 S
Tb432 O437 2.374 1_545 S
Tb432 O445 2.342 1_556 S
Tb432 O447 2.353 1_556 S
Tb432 O449 2.426 1_556 S
Tb432 O450 2.486 1_546 S
C433 O437 1.246 1_554 S
C433 O439 1.263 . S
Tb434 O436 2.359 . S
Tb434 O439 2.353 1_545 S
Tb434 O442 2.427 . S
Tb434 O443 2.513 . S
Tb434 O444 2.453 . S
Tb434 O445 2.596 . S
Tb434 O446 2.374 . S
O435 Tb432 2.454 . S
O435 C451 1.245 . S
O436 Tb432 2.598 1_554 S
O436 Tb434 2.359 . S
O436 C451 1.242 1_554 S
O437 Tb432 2.374 1_565 S
O437 C433 1.246 1_556 S
C438 O442 1.275 . S
C438 O443 1.246 . S
O439 C433 1.263 . S
O439 Tb434 2.353 1_565 S
C440 O444 1.245 . S
C440 O445 1.259 . S
C441 O446 1.250 . S
C441 O447 1.263 . S
O442 Tb434 2.427 . S
O442 C438 1.275 . S
O443 Tb434 2.513 . S
O443 C438 1.246 . S
O444 Tb434 2.453 . S
O444 C440 1.245 . S
O445 Tb432 2.342 1_554 S
O445 Tb434 2.596 . S
O445 C440 1.259 . S
O446 Tb434 2.374 . S
O446 C441 1.250 . S
O447 Tb432 2.353 1_554 S
O447 C441 1.263 . S
C448 O449 1.275 . S
C448 O450 1.213 1_545 S
O449 Tb432 2.426 1_554 S
O449 C448 1.275 . S
O450 Tb432 2.486 1_564 S
O450 C448 1.213 1_565 S
C451 O435 1.245 . S
C451 O436 1.242 1_556 S
Tb452 O455 2.453 . S
Tb452 O456 2.596 . S
Tb452 O457 2.374 . S
Tb452 O465 2.343 . S
Tb452 O467 2.353 . S
Tb452 O469 2.427 . S
Tb452 O470 2.513 . S
C453 O457 1.251 . S
C453 O459 1.263 . S
Tb454 O456 2.343 . S
Tb454 O459 2.353 . S
Tb454 O462 2.427 . S
Tb454 O463 2.513 . S
Tb454 O464 2.453 . S
Tb454 O465 2.596 . S
Tb454 O466 2.374 . S
O455 Tb452 2.453 . S
O455 C471 1.245 . S
O456 Tb452 2.596 . S
O456 Tb454 2.343 . S
O456 C471 1.259 . S
O457 Tb452 2.374 . S
O457 C453 1.251 . S
C458 O462 1.275 . S
C458 O463 1.246 . S
O459 C453 1.263 . S
O459 Tb454 2.353 . S
C460 O464 1.245 . S
C460 O465 1.259 . S
C461 O466 1.250 . S
C461 O467 1.263 . S
O462 Tb454 2.427 . S
O462 C458 1.275 . S
O463 Tb454 2.513 . S
O463 C458 1.246 . S
O464 Tb454 2.453 . S
O464 C460 1.245 . S
O465 Tb452 2.343 . S
O465 Tb454 2.596 . S
O465 C460 1.259 . S
O466 Tb454 2.374 . S
O466 C461 1.250 . S
O467 Tb452 2.353 . S
O467 C461 1.263 . S
C468 O469 1.275 . S
C468 O470 1.246 . S
O469 Tb452 2.427 . S
O469 C468 1.275 . S
O470 Tb452 2.513 . S
O470 C468 1.246 . S
C471 O455 1.245 . S
C471 O456 1.259 . S
Tb472 O475 2.453 1_556 S
Tb472 O476 2.596 1_556 S
Tb472 O477 2.374 1_556 S
Tb472 O485 2.343 1_556 S
Tb472 O487 2.361 . S
Tb472 O489 2.427 . S
Tb472 O490 2.513 . S
C473 O477 1.251 . S
C473 O479 1.263 . S
Tb474 O476 2.343 . S
Tb474 O479 2.353 . S
Tb474 O482 2.427 . S
Tb474 O483 2.513 . S
Tb474 O484 2.453 . S
Tb474 O485 2.596 . S
Tb474 O486 2.374 . S
O475 Tb472 2.453 1_554 S
O475 C491 1.245 . S
O476 Tb472 2.596 1_554 S
O476 Tb474 2.343 . S
O476 C491 1.259 . S
O477 Tb472 2.374 1_554 S
O477 C473 1.251 . S
C478 O482 1.275 . S
C478 O483 1.246 . S
O479 C473 1.263 . S
O479 Tb474 2.353 . S
C480 O484 1.245 . S
C480 O485 1.259 . S
C481 O486 1.250 . S
C481 O487 1.229 1_554 S
O482 Tb474 2.427 . S
O482 C478 1.275 . S
O483 Tb474 2.513 . S
O483 C478 1.246 . S
O484 Tb474 2.453 . S
O484 C480 1.245 . S
O485 Tb472 2.343 1_554 S
O485 Tb474 2.596 . S
O485 C480 1.259 . S
O486 Tb474 2.374 . S
O486 C481 1.250 . S
O487 Tb472 2.361 . S
O487 C481 1.229 1_556 S
C488 O489 1.275 . S
C488 O490 1.246 . S
O489 Tb472 2.427 . S
O489 C488 1.275 . S
O490 Tb472 2.513 . S
O490 C488 1.246 . S
C491 O475 1.245 . S
C491 O476 1.259 . S
Tb492 O495 2.453 . S
Tb492 O496 2.596 . S
Tb492 O497 2.374 . S
Tb492 O505 2.343 . S
Tb492 O507 2.353 . S
Tb492 O509 2.427 . S
Tb492 O510 2.513 . S
C493 O497 1.251 . S
C493 O499 1.263 . S
Tb494 O496 2.343 . S
Tb494 O499 2.353 . S
Tb494 O502 2.427 . S
Tb494 O503 2.513 . S
Tb494 O504 2.453 . S
Tb494 O505 2.596 . S
Tb494 O506 2.374 . S
O495 Tb492 2.453 . S
O495 C511 1.245 . S
O496 Tb492 2.596 . S
O496 Tb494 2.343 . S
O496 C511 1.259 . S
O497 Tb492 2.374 . S
O497 C493 1.251 . S
C498 O502 1.275 . S
C498 O503 1.246 . S
O499 C493 1.263 . S
O499 Tb494 2.353 . S
C500 O504 1.245 . S
C500 O505 1.259 . S
C501 O506 1.250 . S
C501 O507 1.263 . S
O502 Tb494 2.427 . S
O502 C498 1.275 . S
O503 Tb494 2.513 . S
O503 C498 1.246 . S
O504 Tb494 2.453 . S
O504 C500 1.245 . S
O505 Tb492 2.343 . S
O505 Tb494 2.596 . S
O505 C500 1.259 . S
O506 Tb494 2.374 . S
O506 C501 1.250 . S
O507 Tb492 2.353 . S
O507 C501 1.263 . S
C508 O509 1.275 . S
C508 O510 1.246 . S
O509 Tb492 2.427 . S
O509 C508 1.275 . S
O510 Tb492 2.513 . S
O510 C508 1.246 . S
C511 O495 1.245 . S
C511 O496 1.259 . S
Tb512 O515 2.453 1_655 S
Tb512 O516 2.596 1_655 S
Tb512 O517 2.374 . S
Tb512 O525 2.343 . S
Tb512 O527 2.353 . S
Tb512 O529 2.427 . S
Tb512 O530 2.513 . S
C513 O517 1.251 1_455 S
C513 O519 1.263 . S
Tb514 O516 2.343 . S
Tb514 O519 2.353 . S
Tb514 O522 2.427 . S
Tb514 O523 2.513 . S
Tb514 O524 2.453 . S
Tb514 O525 2.596 1_455 S
Tb514 O526 2.374 . S
O515 Tb512 2.453 1_455 S
O515 C531 1.245 . S
O516 Tb512 2.596 1_455 S
O516 Tb514 2.343 . S
O516 C531 1.259 . S
O517 Tb512 2.374 . S
O517 C513 1.251 1_655 S
C518 O522 1.275 . S
C518 O523 1.246 . S
O519 C513 1.263 . S
O519 Tb514 2.353 . S
C520 O524 1.266 . S
C520 O525 1.259 1_455 S
C521 O526 1.250 . S
C521 O527 1.263 1_455 S
O522 Tb514 2.427 . S
O522 C518 1.275 . S
O523 Tb514 2.513 . S
O523 C518 1.246 . S
O524 Tb514 2.453 . S
O524 C520 1.266 . S
O525 Tb512 2.343 . S
O525 Tb514 2.596 1_655 S
O525 C520 1.259 1_655 S
O526 Tb514 2.374 . S
O526 C521 1.250 . S
O527 Tb512 2.353 . S
O527 C521 1.263 1_655 S
C528 O529 1.275 . S
C528 O530 1.246 . S
O529 Tb512 2.427 . S
O529 C528 1.275 . S
O530 Tb512 2.513 . S
O530 C528 1.246 . S
C531 O515 1.245 . S
C531 O516 1.259 . S
Tb532 O535 2.453 . S
Tb532 O536 2.596 . S
Tb532 O537 2.374 . S
Tb532 O545 2.343 . S
Tb532 O547 2.353 . S
Tb532 O549 2.427 . S
Tb532 O550 2.513 . S
C533 O537 1.251 . S
C533 O539 1.263 . S
Tb534 O536 2.343 . S
Tb534 O539 2.353 . S
Tb534 O542 2.427 . S
Tb534 O543 2.513 . S
Tb534 O544 2.453 . S
Tb534 O545 2.596 . S
Tb534 O546 2.374 . S
O535 Tb532 2.453 . S
O535 C551 1.245 . S
O536 Tb532 2.596 . S
O536 Tb534 2.343 . S
O536 C551 1.259 . S
O537 Tb532 2.374 . S
O537 C533 1.251 . S
C538 O542 1.275 . S
C538 O543 1.246 . S
O539 C533 1.263 . S
O539 Tb534 2.353 . S
C540 O544 1.245 . S
C540 O545 1.259 . S
C541 O546 1.250 . S
C541 O547 1.263 . S
O542 Tb534 2.427 . S
O542 C538 1.275 . S
O543 Tb534 2.513 . S
O543 C538 1.246 . S
O544 Tb534 2.453 . S
O544 C540 1.245 . S
O545 Tb532 2.343 . S
O545 Tb534 2.596 . S
O545 C540 1.259 . S
O546 Tb534 2.374 . S
O546 C541 1.250 . S
O547 Tb532 2.353 . S
O547 C541 1.263 . S
C548 O549 1.275 . S
C548 O550 1.246 . S
O549 Tb532 2.427 . S
O549 C548 1.275 . S
O550 Tb532 2.513 . S
O550 C548 1.246 . S
C551 O535 1.245 . S
C551 O536 1.259 . S
Tb552 O555 2.453 . S
Tb552 O556 2.596 . S
Tb552 O557 2.374 . S
Tb552 O565 2.343 . S
Tb552 O567 2.353 . S
Tb552 O569 2.427 . S
Tb552 O570 2.513 . S
C553 O557 1.251 . S
C553 O559 1.263 . S
Tb554 O556 2.343 . S
Tb554 O559 2.353 . S
Tb554 O562 2.427 . S
Tb554 O563 2.513 . S
Tb554 O564 2.453 . S
Tb554 O565 2.596 . S
Tb554 O566 2.374 . S
O555 Tb552 2.453 . S
O555 C571 1.245 . S
O556 Tb552 2.596 . S
O556 Tb554 2.343 . S
O556 C571 1.259 . S
O557 Tb552 2.374 . S
O557 C553 1.251 . S
C558 O562 1.275 . S
C558 O563 1.246 . S
O559 C553 1.263 . S
O559 Tb554 2.353 . S
C560 O564 1.245 . S
C560 O565 1.259 . S
C561 O566 1.250 . S
C561 O567 1.263 . S
O562 Tb554 2.427 . S
O562 C558 1.275 . S
O563 Tb554 2.513 . S
O563 C558 1.246 . S
O564 Tb554 2.453 . S
O564 C560 1.245 . S
O565 Tb552 2.343 . S
O565 Tb554 2.596 . S
O565 C560 1.259 . S
O566 Tb554 2.374 . S
O566 C561 1.250 . S
O567 Tb552 2.353 . S
O567 C561 1.263 . S
C568 O569 1.275 . S
C568 O570 1.246 . S
O569 Tb552 2.427 . S
O569 C568 1.275 . S
O570 Tb552 2.513 . S
O570 C568 1.246 . S
C571 O555 1.245 . S
C571 O556 1.259 . S
Tb572 O575 2.453 . S
Tb572 O576 2.596 . S
Tb572 O577 2.374 . S
Tb572 O585 2.343 . S
Tb572 O587 2.353 . S
Tb572 O589 2.427 . S
Tb572 O590 2.513 . S
C573 O577 1.251 . S
C573 O579 1.263 . S
Tb574 O576 2.343 . S
Tb574 O579 2.353 . S
Tb574 O582 2.427 . S
Tb574 O583 2.513 . S
Tb574 O584 2.453 . S
Tb574 O585 2.596 . S
Tb574 O586 2.374 . S
O575 Tb572 2.453 . S
O575 C591 1.245 . S
O576 Tb572 2.596 . S
O576 Tb574 2.343 . S
O576 C591 1.259 . S
O577 Tb572 2.374 . S
O577 C573 1.251 . S
C578 O582 1.275 . S
C578 O583 1.246 . S
O579 C573 1.263 . S
O579 Tb574 2.353 . S
C580 O584 1.245 . S
C580 O585 1.259 . S
C581 O586 1.250 . S
C581 O587 1.263 . S
O582 Tb574 2.427 . S
O582 C578 1.275 . S
O583 Tb574 2.513 . S
O583 C578 1.246 . S
O584 Tb574 2.453 . S
O584 C580 1.245 . S
O585 Tb572 2.343 . S
O585 Tb574 2.596 . S
O585 C580 1.259 . S
O586 Tb574 2.374 . S
O586 C581 1.250 . S
O587 Tb572 2.353 . S
O587 C581 1.263 . S
C588 O589 1.275 . S
C588 O590 1.246 . S
O589 Tb572 2.427 . S
O589 C588 1.275 . S
O590 Tb572 2.513 . S
O590 C588 1.246 . S
C591 O575 1.245 . S
C591 O576 1.259 . S
Tb592 O595 2.453 . S
Tb592 O596 2.596 . S
Tb592 O597 2.374 . S
Tb592 O605 2.343 . S
Tb592 O607 2.353 . S
Tb592 O609 2.427 . S
Tb592 O610 2.513 . S
C593 O597 1.251 . S
C593 O599 1.263 . S
Tb594 O596 2.343 . S
Tb594 O599 2.353 . S
Tb594 O602 2.427 . S
Tb594 O603 2.513 . S
Tb594 O604 2.453 . S
Tb594 O605 2.596 . S
Tb594 O606 2.374 . S
O595 Tb592 2.453 . S
O595 C611 1.245 . S
O596 Tb592 2.596 . S
O596 Tb594 2.343 . S
O596 C611 1.259 . S
O597 Tb592 2.374 . S
O597 C593 1.251 . S
C598 O602 1.275 . S
C598 O603 1.246 . S
O599 C593 1.263 . S
O599 Tb594 2.353 . S
C600 O604 1.245 . S
C600 O605 1.259 . S
C601 O606 1.250 . S
C601 O607 1.263 . S
O602 Tb594 2.427 . S
O602 C598 1.275 . S
O603 Tb594 2.513 . S
O603 C598 1.246 . S
O604 Tb594 2.453 . S
O604 C600 1.245 . S
O605 Tb592 2.343 . S
O605 Tb594 2.596 . S
O605 C600 1.259 . S
O606 Tb594 2.374 . S
O606 C601 1.250 . S
O607 Tb592 2.353 . S
O607 C601 1.263 . S
C608 O609 1.275 . S
C608 O610 1.246 . S
O609 Tb592 2.427 . S
O609 C608 1.275 . S
O610 Tb592 2.513 . S
O610 C608 1.246 . S
C611 O595 1.245 . S
C611 O596 1.259 . S
Tb612 O615 2.453 . S
Tb612 O616 2.596 . S
Tb612 O617 2.374 . S
Tb612 O625 2.343 . S
Tb612 O627 2.353 1_554 S
Tb612 O629 2.427 1_554 S
Tb612 O630 2.513 . S
C613 O617 1.251 . S
C613 O619 1.263 . S
Tb614 O616 2.343 1_655 S
Tb614 O619 2.353 1_655 S
Tb614 O622 2.427 . S
Tb614 O623 2.513 . S
Tb614 O624 2.453 . S
Tb614 O625 2.596 1_655 S
Tb614 O626 2.374 1_554 S
O615 Tb612 2.453 . S
O615 C631 1.245 . S
O616 Tb612 2.596 . S
O616 Tb614 2.343 1_455 S
O616 C631 1.259 . S
O617 Tb612 2.374 . S
O617 C613 1.251 . S
C618 O622 1.275 . S
C618 O623 1.246 . S
O619 C613 1.263 . S
O619 Tb614 2.353 1_455 S
C620 O624 1.229 1_456 S
C620 O625 1.255 1_556 S
C621 O626 1.250 1_455 S
C621 O627 1.263 . S
O622 Tb614 2.427 . S
O622 C618 1.275 . S
O623 Tb614 2.513 . S
O623 C618 1.246 . S
O624 Tb614 2.453 . S
O624 C620 1.229 1_654 S
O625 Tb612 2.343 . S
O625 Tb614 2.596 1_455 S
O625 C620 1.255 1_554 S
O626 Tb614 2.374 1_556 S
O626 C621 1.250 1_655 S
O627 Tb612 2.353 1_556 S
O627 C621 1.263 . S
C628 O629 1.275 . S
C628 O630 1.246 1_556 S
O629 Tb612 2.427 1_556 S
O629 C628 1.275 . S
O630 Tb612 2.513 . S
O630 C628 1.246 1_554 S
C631 O615 1.245 . S
C631 O616 1.259 . S
H632 C640 0.929 . S
H633 C642 0.930 . S
H634 C644 0.930 . S
H635 C647 0.929 . S
H636 C650 0.927 1_655 S
H637 C652 0.960 . S
H638 C652 0.960 . S
H639 C652 0.960 . S
C640 H632 0.929 . S
C640 C641 1.377 . S
C640 C642 1.384 . S
C641 C640 1.377 . S
C641 C647 1.390 1_455 S
C642 H633 0.930 . S
C642 C640 1.384 . S
C642 C643 1.372 . S
C643 C642 1.372 . S
C643 C644 1.400 1_455 S
C643 C648 1.490 . S
C644 H634 0.930 . S
C644 C643 1.400 1_655 S
C644 C647 1.386 . S
H645 C661 0.930 . S
H646 C662 0.931 . S
C647 H635 0.929 . S
C647 C641 1.390 1_655 S
C647 C644 1.386 . S
C648 C643 1.490 . S
C648 C650 1.395 . S
C648 C651 1.403 . S
H649 C655 0.930 . S
C650 H636 0.927 1_455 S
C650 C648 1.395 . S
C650 C653 1.402 . S
C651 C648 1.403 . S
C651 C652 1.524 . S
C651 C655 1.400 . S
C652 H637 0.960 . S
C652 H638 0.960 . S
C652 H639 0.960 . S
C652 C651 1.524 . S
C653 C650 1.402 . S
C653 C654 1.403 . S
C653 C657 1.486 1_455 S
C654 C653 1.403 . S
C654 C655 1.385 . S
C654 C656 1.478 . S
C655 H649 0.930 . S
C655 C651 1.400 . S
C655 C654 1.385 . S
C656 C654 1.478 . S
C656 C658 1.381 . S
C656 C662 1.383 1_455 S
C657 C653 1.486 1_655 S
C657 H663 0.953 1_556 S
C657 H664 0.961 . S
C657 H665 0.960 1_656 S
C658 C656 1.381 . S
C658 C659 1.397 . S
C658 H666 0.930 . S
C659 C658 1.397 . S
C659 C660 1.384 . S
C659 H667 0.926 1_556 S
C660 C659 1.384 . S
C660 C661 1.377 1_455 S
C661 H645 0.930 . S
C661 C660 1.377 1_655 S
C661 C662 1.379 . S
C662 H646 0.931 . S
C662 C656 1.383 1_655 S
C662 C661 1.379 . S
H663 C657 0.953 1_554 S
H664 C657 0.961 . S
H665 C657 0.960 1_454 S
H666 C658 0.930 . S
H667 C659 0.926 1_554 S
H668 C676 0.929 . S
H669 C678 0.930 . S
H670 C680 0.930 . S
H671 C683 0.929 . S
H672 C686 0.930 . S
H673 C688 0.960 . S
H674 C688 0.960 . S
H675 C688 0.960 . S
C676 H668 0.929 . S
C676 C677 1.377 . S
C676 C678 1.384 . S
C677 C676 1.377 . S
C677 C683 1.390 . S
C678 H669 0.930 . S
C678 C676 1.384 . S
C678 C679 1.372 . S
C679 C678 1.372 . S
C679 C680 1.400 . S
C679 C684 1.490 . S
C680 H670 0.930 . S
C680 C679 1.400 . S
C680 C683 1.386 . S
H681 C697 0.930 . S
H682 C698 0.931 . S
C683 H671 0.929 . S
C683 C677 1.390 . S
C683 C680 1.386 . S
C684 C679 1.490 . S
C684 C686 1.395 . S
C684 C687 1.403 . S
H685 C691 0.930 . S
C686 H672 0.930 . S
C686 C684 1.395 . S
C686 C689 1.403 . S
C687 C684 1.403 . S
C687 C688 1.524 . S
C687 C691 1.400 . S
C688 H673 0.960 . S
C688 H674 0.960 . S
C688 H675 0.960 . S
C688 C687 1.524 . S
C689 C686 1.403 . S
C689 C690 1.392 . S
C689 C693 1.495 . S
C690 C689 1.392 . S
C690 C691 1.385 . S
C690 C692 1.478 . S
C691 H685 0.930 . S
C691 C687 1.400 . S
C691 C690 1.385 . S
C692 C690 1.478 . S
C692 C694 1.381 . S
C692 C698 1.383 . S
C693 C689 1.495 . S
C693 H699 0.959 . S
C693 H700 0.961 . S
C693 H701 0.960 . S
C694 C692 1.381 . S
C694 C695 1.394 . S
C694 H702 0.930 . S
C695 C694 1.394 . S
C695 C696 1.383 . S
C695 H703 0.929 . S
C696 C695 1.383 . S
C696 C697 1.377 . S
C697 H681 0.930 . S
C697 C696 1.377 . S
C697 C698 1.379 . S
C698 H682 0.931 . S
C698 C692 1.383 . S
C698 C697 1.379 . S
H699 C693 0.959 . S
H700 C693 0.961 . S
H701 C693 0.960 . S
H702 C694 0.930 . S
H703 C695 0.929 . S
H704 C712 0.929 . S
H705 C714 0.930 . S
H706 C716 0.930 . S
H707 C719 0.929 . S
H708 C722 0.930 . S
H709 C724 0.960 . S
H710 C724 0.960 . S
H711 C724 0.960 . S
C712 H704 0.929 . S
C712 C713 1.377 . S
C712 C714 1.384 . S
C713 C712 1.377 . S
C713 C719 1.390 . S
C714 H705 0.930 . S
C714 C712 1.384 . S
C714 C715 1.372 . S
C715 C714 1.372 . S
C715 C716 1.400 . S
C715 C720 1.490 . S
C716 H706 0.930 . S
C716 C715 1.400 . S
C716 C719 1.386 . S
H717 C733 0.930 . S
H718 C734 0.931 . S
C719 H707 0.929 . S
C719 C713 1.390 . S
C719 C716 1.386 . S
C720 C715 1.490 . S
C720 C722 1.395 . S
C720 C723 1.403 . S
H721 C727 0.930 . S
C722 H708 0.930 . S
C722 C720 1.395 . S
C722 C725 1.403 . S
C723 C720 1.403 . S
C723 C724 1.524 . S
C723 C727 1.400 . S
C724 H709 0.960 . S
C724 H710 0.960 . S
C724 H711 0.960 . S
C724 C723 1.524 . S
C725 C722 1.403 . S
C725 C726 1.392 . S
C725 C729 1.495 . S
C726 C725 1.392 . S
C726 C727 1.385 . S
C726 C728 1.478 . S
C727 H721 0.930 . S
C727 C723 1.400 . S
C727 C726 1.385 . S
C728 C726 1.478 . S
C728 C730 1.381 . S
C728 C734 1.383 . S
C729 C725 1.495 . S
C729 H735 0.959 . S
C729 H736 0.961 . S
C729 H737 0.960 . S
C730 C728 1.381 . S
C730 C731 1.394 . S
C730 H738 0.930 . S
C731 C730 1.394 . S
C731 C732 1.383 . S
C731 H739 0.929 . S
C732 C731 1.383 . S
C732 C733 1.377 . S
C733 H717 0.930 . S
C733 C732 1.377 . S
C733 C734 1.379 . S
C734 H718 0.931 . S
C734 C728 1.383 . S
C734 C733 1.379 . S
H735 C729 0.959 . S
H736 C729 0.961 . S
H737 C729 0.960 . S
H738 C730 0.930 . S
H739 C731 0.929 . S
H740 C748 0.929 . S
H741 C750 0.930 . S
H742 C752 0.930 . S
H743 C755 0.929 . S
H744 C758 0.930 . S
H745 C760 0.960 . S
H746 C760 0.960 . S
H747 C760 0.960 . S
C748 H740 0.929 . S
C748 C749 1.377 . S
C748 C750 1.384 . S
C749 C748 1.377 . S
C749 C755 1.390 . S
C750 H741 0.930 . S
C750 C748 1.384 . S
C750 C751 1.372 . S
C751 C750 1.372 . S
C751 C752 1.400 . S
C751 C756 1.490 . S
C752 H742 0.930 . S
C752 C751 1.400 . S
C752 C755 1.386 . S
H753 C769 0.930 . S
H754 C770 0.931 . S
C755 H743 0.929 . S
C755 C749 1.390 . S
C755 C752 1.386 . S
C756 C751 1.490 . S
C756 C758 1.395 . S
C756 C759 1.403 . S
H757 C763 0.930 . S
C758 H744 0.930 . S
C758 C756 1.395 . S
C758 C761 1.403 . S
C759 C756 1.403 . S
C759 C760 1.524 . S
C759 C763 1.400 . S
C760 H745 0.960 . S
C760 H746 0.960 . S
C760 H747 0.960 . S
C760 C759 1.524 . S
C761 C758 1.403 . S
C761 C762 1.392 . S
C761 C765 1.495 . S
C762 C761 1.392 . S
C762 C763 1.385 . S
C762 C764 1.478 . S
C763 H757 0.930 . S
C763 C759 1.400 . S
C763 C762 1.385 . S
C764 C762 1.478 . S
C764 C766 1.381 . S
C764 C770 1.383 . S
C765 C761 1.495 . S
C765 H771 0.959 . S
C765 H772 0.961 . S
C765 H773 0.960 . S
C766 C764 1.381 . S
C766 C767 1.394 . S
C766 H774 0.930 . S
C767 C766 1.394 . S
C767 C768 1.383 . S
C767 H775 0.929 . S
C768 C767 1.383 . S
C768 C769 1.377 . S
C769 H753 0.930 . S
C769 C768 1.377 . S
C769 C770 1.379 . S
C770 H754 0.931 . S
C770 C764 1.383 . S
C770 C769 1.379 . S
H771 C765 0.959 . S
H772 C765 0.961 . S
H773 C765 0.960 . S
H774 C766 0.930 . S
H775 C767 0.929 . S
H776 C784 0.929 . S
H777 C786 0.930 . S
H778 C788 0.930 . S
H779 C791 0.929 . S
H780 C794 0.930 . S
H781 C796 0.960 . S
H782 C796 0.960 . S
H783 C796 0.960 . S
C784 H776 0.929 . S
C784 C785 1.377 . S
C784 C786 1.384 . S
C785 C784 1.377 . S
C785 C791 1.390 1_455 S
C786 H777 0.930 . S
C786 C784 1.384 . S
C786 C787 1.372 . S
C787 C786 1.372 . S
C787 C788 1.400 1_455 S
C787 C792 1.490 . S
C788 H778 0.930 . S
C788 C787 1.400 1_655 S
C788 C791 1.386 . S
H789 C805 0.930 . S
H790 C806 0.931 . S
C791 H779 0.929 . S
C791 C785 1.390 1_655 S
C791 C788 1.386 . S
C792 C787 1.490 . S
C792 C794 1.395 . S
C792 C795 1.403 1_455 S
H793 C799 0.930 . S
C794 H780 0.930 . S
C794 C792 1.395 . S
C794 C797 1.403 . S
C795 C792 1.403 1_655 S
C795 C796 1.524 . S
C795 C799 1.400 . S
C796 H781 0.960 . S
C796 H782 0.960 . S
C796 H783 0.960 . S
C796 C795 1.524 . S
C797 C794 1.403 . S
C797 C798 1.392 . S
C797 C801 1.495 . S
C798 C797 1.392 . S
C798 C799 1.385 1_455 S
C798 C800 1.478 . S
C799 H793 0.930 . S
C799 C795 1.400 . S
C799 C798 1.385 1_655 S
C800 C798 1.478 . S
C800 C802 1.381 . S
C800 C806 1.383 1_455 S
C801 C797 1.495 . S
C801 H807 0.959 . S
C801 H808 0.961 . S
C801 H809 0.960 . S
C802 C800 1.381 . S
C802 C803 1.394 . S
C802 H810 0.930 . S
C803 C802 1.394 . S
C803 C804 1.383 . S
C803 H811 0.929 . S
C804 C803 1.383 . S
C804 C805 1.377 1_455 S
C805 H789 0.930 . S
C805 C804 1.377 1_655 S
C805 C806 1.379 . S
C806 H790 0.931 . S
C806 C800 1.383 1_655 S
C806 C805 1.379 . S
H807 C801 0.959 . S
H808 C801 0.961 . S
H809 C801 0.960 . S
H810 C802 0.930 . S
H811 C803 0.929 . S
H812 C820 0.929 . S
H813 C822 0.930 . S
H814 C824 0.930 . S
H815 C827 0.929 . S
H816 C830 0.930 . S
H817 C832 0.960 . S
H818 C832 0.960 . S
H819 C832 0.960 . S
C820 H812 0.929 . S
C820 C821 1.377 . S
C820 C822 1.384 . S
C821 C820 1.377 . S
C821 C827 1.390 . S
C822 H813 0.930 . S
C822 C820 1.384 . S
C822 C823 1.372 . S
C823 C822 1.372 . S
C823 C824 1.400 . S
C823 C828 1.490 . S
C824 H814 0.930 . S
C824 C823 1.400 . S
C824 C827 1.386 . S
H825 C841 0.930 . S
H826 C842 0.931 . S
C827 H815 0.929 . S
C827 C821 1.390 . S
C827 C824 1.386 . S
C828 C823 1.490 . S
C828 C830 1.395 . S
C828 C831 1.403 . S
H829 C835 0.930 . S
C830 H816 0.930 . S
C830 C828 1.395 . S
C830 C833 1.403 . S
C831 C828 1.403 . S
C831 C832 1.524 . S
C831 C835 1.400 . S
C832 H817 0.960 . S
C832 H818 0.960 . S
C832 H819 0.960 . S
C832 C831 1.524 . S
C833 C830 1.403 . S
C833 C834 1.392 . S
C833 C837 1.495 . S
C834 C833 1.392 . S
C834 C835 1.385 . S
C834 C836 1.478 . S
C835 H829 0.930 . S
C835 C831 1.400 . S
C835 C834 1.385 . S
C836 C834 1.478 . S
C836 C838 1.381 . S
C836 C842 1.383 . S
C837 C833 1.495 . S
C837 H843 0.959 . S
C837 H844 0.961 . S
C837 H845 0.960 . S
C838 C836 1.381 . S
C838 C839 1.394 . S
C838 H846 0.930 . S
C839 C838 1.394 . S
C839 C840 1.383 . S
C839 H847 0.929 . S
C840 C839 1.383 . S
C840 C841 1.377 . S
C841 H825 0.930 . S
C841 C840 1.377 . S
C841 C842 1.379 . S
C842 H826 0.931 . S
C842 C836 1.383 . S
C842 C841 1.379 . S
H843 C837 0.959 . S
H844 C837 0.961 . S
H845 C837 0.960 . S
H846 C838 0.930 . S
H847 C839 0.929 . S
H848 C856 0.929 . S
H849 C858 0.930 . S
H850 C860 0.930 . S
H851 C863 0.929 . S
H852 C866 0.930 . S
H853 C868 0.960 . S
H854 C868 0.960 . S
H855 C868 0.960 . S
C856 H848 0.929 . S
C856 C857 1.377 . S
C856 C858 1.384 . S
C857 C856 1.377 . S
C857 C863 1.390 . S
C858 H849 0.930 . S
C858 C856 1.384 . S
C858 C859 1.372 . S
C859 C858 1.372 . S
C859 C860 1.400 . S
C859 C864 1.490 . S
C860 H850 0.930 . S
C860 C859 1.400 . S
C860 C863 1.386 . S
H861 C877 0.930 . S
H862 C878 0.931 . S
C863 H851 0.929 . S
C863 C857 1.390 . S
C863 C860 1.386 . S
C864 C859 1.490 . S
C864 C866 1.395 . S
C864 C867 1.403 . S
H865 C871 0.930 . S
C866 H852 0.930 . S
C866 C864 1.395 . S
C866 C869 1.403 . S
C867 C864 1.403 . S
C867 C868 1.524 . S
C867 C871 1.400 . S
C868 H853 0.960 . S
C868 H854 0.960 . S
C868 H855 0.960 . S
C868 C867 1.524 . S
C869 C866 1.403 . S
C869 C870 1.392 . S
C869 C873 1.495 . S
C870 C869 1.392 . S
C870 C871 1.385 . S
C870 C872 1.478 . S
C871 H865 0.930 . S
C871 C867 1.400 . S
C871 C870 1.385 . S
C872 C870 1.478 . S
C872 C874 1.381 . S
C872 C878 1.383 . S
C873 C869 1.495 . S
C873 H879 0.959 . S
C873 H880 0.961 . S
C873 H881 0.960 . S
C874 C872 1.381 . S
C874 C875 1.394 . S
C874 H882 0.930 . S
C875 C874 1.394 . S
C875 C876 1.383 . S
C875 H883 0.929 . S
C876 C875 1.383 . S
C876 C877 1.377 . S
C877 H861 0.930 . S
C877 C876 1.377 . S
C877 C878 1.379 . S
C878 H862 0.931 . S
C878 C872 1.383 . S
C878 C877 1.379 . S
H879 C873 0.959 . S
H880 C873 0.961 . S
H881 C873 0.960 . S
H882 C874 0.930 . S
H883 C875 0.929 . S
H884 C892 0.929 . S
H885 C894 0.930 . S
H886 C896 0.930 . S
H887 C899 0.929 . S
H888 C902 0.930 . S
H889 C904 0.960 . S
H890 C904 0.960 . S
H891 C904 0.960 . S
C892 H884 0.929 . S
C892 C893 1.377 . S
C892 C894 1.384 . S
C893 C892 1.377 . S
C893 C899 1.390 . S
C894 H885 0.930 . S
C894 C892 1.384 . S
C894 C895 1.372 . S
C895 C894 1.372 . S
C895 C896 1.400 . S
C895 C900 1.490 . S
C896 H886 0.930 . S
C896 C895 1.400 . S
C896 C899 1.386 . S
H897 C913 0.930 . S
H898 C914 0.931 . S
C899 H887 0.929 . S
C899 C893 1.390 . S
C899 C896 1.386 . S
C900 C895 1.490 . S
C900 C902 1.395 . S
C900 C903 1.403 . S
H901 C907 0.930 . S
C902 H888 0.930 . S
C902 C900 1.395 . S
C902 C905 1.403 . S
C903 C900 1.403 . S
C903 C904 1.524 . S
C903 C907 1.400 . S
C904 H889 0.960 . S
C904 H890 0.960 . S
C904 H891 0.960 . S
C904 C903 1.524 . S
C905 C902 1.403 . S
C905 C906 1.392 . S
C905 C909 1.495 . S
C906 C905 1.392 . S
C906 C907 1.385 . S
C906 C908 1.478 . S
C907 H901 0.930 . S
C907 C903 1.400 . S
C907 C906 1.385 . S
C908 C906 1.478 . S
C908 C910 1.381 . S
C908 C914 1.383 . S
C909 C905 1.495 . S
C909 H915 0.959 . S
C909 H916 0.961 . S
C909 H917 0.960 . S
C910 C908 1.381 . S
C910 C911 1.394 . S
C910 H918 0.930 . S
C911 C910 1.394 . S
C911 C912 1.383 . S
C911 H919 0.929 . S
C912 C911 1.383 . S
C912 C913 1.377 . S
C913 H897 0.930 . S
C913 C912 1.377 . S
C913 C914 1.379 . S
C914 H898 0.931 . S
C914 C908 1.383 . S
C914 C913 1.379 . S
H915 C909 0.959 . S
H916 C909 0.961 . S
H917 C909 0.960 . S
H918 C910 0.930 . S
H919 C911 0.929 . S
H920 C928 0.929 . S
H921 C930 0.930 . S
H922 C932 0.930 . S
H923 C935 0.929 . S
H924 C938 0.930 . S
H925 C940 0.960 . S
H926 C940 0.960 . S
H927 C940 0.960 . S
C928 H920 0.929 . S
C928 C929 1.377 . S
C928 C930 1.384 . S
C929 C928 1.377 . S
C929 C935 1.390 . S
C930 H921 0.930 . S
C930 C928 1.384 . S
C930 C931 1.372 . S
C931 C930 1.372 . S
C931 C932 1.400 . S
C931 C936 1.490 . S
C932 H922 0.930 . S
C932 C931 1.400 . S
C932 C935 1.386 . S
H933 C949 0.930 . S
H934 C950 0.931 . S
C935 H923 0.929 . S
C935 C929 1.390 . S
C935 C932 1.386 . S
C936 C931 1.490 . S
C936 C938 1.395 . S
C936 C939 1.403 . S
H937 C943 0.930 . S
C938 H924 0.930 . S
C938 C936 1.395 . S
C938 C941 1.403 . S
C939 C936 1.403 . S
C939 C940 1.524 . S
C939 C943 1.400 . S
C940 H925 0.960 . S
C940 H926 0.960 . S
C940 H927 0.960 . S
C940 C939 1.524 . S
C941 C938 1.403 . S
C941 C942 1.392 . S
C941 C945 1.495 . S
C942 C941 1.392 . S
C942 C943 1.385 . S
C942 C944 1.478 . S
C943 H937 0.930 . S
C943 C939 1.400 . S
C943 C942 1.385 . S
C944 C942 1.478 . S
C944 C946 1.381 . S
C944 C950 1.383 . S
C945 C941 1.495 . S
C945 H951 0.959 . S
C945 H952 0.961 . S
C945 H953 0.960 . S
C946 C944 1.381 . S
C946 C947 1.394 . S
C946 H954 0.930 . S
C947 C946 1.394 . S
C947 C948 1.383 . S
C947 H955 0.929 . S
C948 C947 1.383 . S
C948 C949 1.377 . S
C949 H933 0.930 . S
C949 C948 1.377 . S
C949 C950 1.379 . S
C950 H934 0.931 . S
C950 C944 1.383 . S
C950 C949 1.379 . S
H951 C945 0.959 . S
H952 C945 0.961 . S
H953 C945 0.960 . S
H954 C946 0.930 . S
H955 C947 0.929 . S
H956 C964 0.929 . S
H957 C966 0.930 . S
H958 C968 0.930 . S
H959 C971 0.929 . S
H960 C974 0.930 . S
H961 C976 0.960 . S
H962 C976 0.960 . S
H963 C976 0.960 . S
C964 H956 0.929 . S
C964 C965 1.377 . S
C964 C966 1.384 . S
C965 C964 1.377 . S
C965 C971 1.390 . S
C966 H957 0.930 . S
C966 C964 1.384 . S
C966 C967 1.372 . S
C967 C966 1.372 . S
C967 C968 1.400 . S
C967 C972 1.490 . S
C968 H958 0.930 . S
C968 C967 1.400 . S
C968 C971 1.386 . S
H969 C985 0.930 . S
H970 C986 0.931 . S
C971 H959 0.929 . S
C971 C965 1.390 . S
C971 C968 1.386 . S
C972 C967 1.490 . S
C972 C974 1.395 . S
C972 C975 1.403 . S
H973 C979 0.930 . S
C974 H960 0.930 . S
C974 C972 1.395 . S
C974 C977 1.403 . S
C975 C972 1.403 . S
C975 C976 1.524 . S
C975 C979 1.400 . S
C976 H961 0.960 . S
C976 H962 0.960 . S
C976 H963 0.960 . S
C976 C975 1.524 . S
C977 C974 1.403 . S
C977 C978 1.392 . S
C977 C981 1.495 . S
C978 C977 1.392 . S
C978 C979 1.385 . S
C978 C980 1.478 . S
C979 H973 0.930 . S
C979 C975 1.400 . S
C979 C978 1.385 . S
C980 C978 1.478 . S
C980 C982 1.381 . S
C980 C986 1.383 . S
C981 C977 1.495 . S
C981 H987 0.959 . S
C981 H988 0.961 . S
C981 H989 0.960 . S
C982 C980 1.381 . S
C982 C983 1.394 . S
C982 H990 0.930 . S
C983 C982 1.394 . S
C983 C984 1.383 . S
C983 H991 0.929 . S
C984 C983 1.383 . S
C984 C985 1.377 . S
C985 H969 0.930 . S
C985 C984 1.377 . S
C985 C986 1.379 . S
C986 H970 0.931 . S
C986 C980 1.383 . S
C986 C985 1.379 . S
H987 C981 0.959 . S
H988 C981 0.961 . S
H989 C981 0.960 . S
H990 C982 0.930 . S
H991 C983 0.929 . S
H992 C1000 0.929 . S
H993 C1002 0.930 . S
H994 C1004 0.930 . S
H995 C1007 0.929 . S
H996 C1010 0.930 . S
H997 C1012 0.960 . S
H998 C1012 0.960 . S
H999 C1012 0.960 . S
C1000 H992 0.929 . S
C1000 C1001 1.377 . S
C1000 C1002 1.384 . S
C1001 C1000 1.377 . S
C1001 C1007 1.390 . S
C1002 H993 0.930 . S
C1002 C1000 1.384 . S
C1002 C1003 1.372 . S
C1003 C1002 1.372 . S
C1003 C1004 1.400 . S
C1003 C1008 1.490 . S
C1004 H994 0.930 . S
C1004 C1003 1.400 . S
C1004 C1007 1.386 . S
H1005 C1021 0.930 . S
H1006 C1022 0.931 . S
C1007 H995 0.929 . S
C1007 C1001 1.390 . S
C1007 C1004 1.386 . S
C1008 C1003 1.490 . S
C1008 C1010 1.395 . S
C1008 C1011 1.403 . S
H1009 C1015 0.930 . S
C1010 H996 0.930 . S
C1010 C1008 1.395 . S
C1010 C1013 1.403 . S
C1011 C1008 1.403 . S
C1011 C1012 1.524 1_545 S
C1011 C1015 1.400 . S
C1012 H997 0.960 . S
C1012 H998 0.960 . S
C1012 H999 0.960 . S
C1012 C1011 1.524 1_565 S
C1013 C1010 1.403 . S
C1013 C1014 1.392 . S
C1013 C1017 1.495 . S
C1014 C1013 1.392 . S
C1014 C1015 1.385 . S
C1014 C1016 1.478 . S
C1015 H1009 0.930 . S
C1015 C1011 1.400 . S
C1015 C1014 1.385 . S
C1016 C1014 1.478 . S
C1016 C1018 1.381 . S
C1016 C1022 1.383 . S
C1017 C1013 1.495 . S
C1017 H1023 0.959 . S
C1017 H1024 0.961 . S
C1017 H1025 0.960 . S
C1018 C1016 1.381 . S
C1018 C1019 1.394 . S
C1018 H1026 0.930 . S
C1019 C1018 1.394 . S
C1019 C1020 1.383 . S
C1019 H1027 0.929 . S
C1020 C1019 1.383 . S
C1020 C1021 1.377 . S
C1021 H1005 0.930 . S
C1021 C1020 1.377 . S
C1021 C1022 1.379 . S
C1022 H1006 0.931 . S
C1022 C1016 1.383 . S
C1022 C1021 1.379 . S
H1023 C1017 0.959 . S
H1024 C1017 0.961 . S
H1025 C1017 0.960 . S
H1026 C1018 0.930 . S
H1027 C1019 0.929 . S
H1028 C1036 0.929 . S
H1029 C1038 0.930 . S
H1030 C1040 0.930 . S
H1031 C1043 0.929 . S
H1032 C1046 0.930 . S
H1033 C1048 0.960 . S
H1034 C1048 0.960 . S
H1035 C1048 0.960 . S
C1036 H1028 0.929 . S
C1036 C1037 1.377 . S
C1036 C1038 1.384 . S
C1037 C1036 1.377 . S
C1037 C1043 1.390 . S
C1038 H1029 0.930 . S
C1038 C1036 1.384 . S
C1038 C1039 1.372 . S
C1039 C1038 1.372 . S
C1039 C1040 1.400 . S
C1039 C1044 1.490 . S
C1040 H1030 0.930 . S
C1040 C1039 1.400 . S
C1040 C1043 1.386 . S
H1041 C1057 0.930 . S
H1042 C1058 0.931 . S
C1043 H1031 0.929 . S
C1043 C1037 1.390 . S
C1043 C1040 1.386 . S
C1044 C1039 1.490 . S
C1044 C1046 1.395 . S
C1044 C1047 1.403 . S
H1045 C1051 0.930 . S
C1046 H1032 0.930 . S
C1046 C1044 1.395 . S
C1046 C1049 1.403 . S
C1047 C1044 1.403 . S
C1047 C1048 1.524 . S
C1047 C1051 1.400 . S
C1048 H1033 0.960 . S
C1048 H1034 0.960 . S
C1048 H1035 0.960 . S
C1048 C1047 1.524 . S
C1049 C1046 1.403 . S
C1049 C1050 1.392 . S
C1049 C1053 1.495 . S
C1050 C1049 1.392 . S
C1050 C1051 1.385 . S
C1050 C1052 1.478 . S
C1051 H1045 0.930 . S
C1051 C1047 1.400 . S
C1051 C1050 1.385 . S
C1052 C1050 1.478 . S
C1052 C1054 1.381 . S
C1052 C1058 1.383 . S
C1053 C1049 1.495 . S
C1053 H1059 0.959 . S
C1053 H1060 0.961 . S
C1053 H1061 0.960 . S
C1054 C1052 1.381 . S
C1054 C1055 1.394 . S
C1054 H1062 0.930 . S
C1055 C1054 1.394 . S
C1055 C1056 1.383 . S
C1055 H1063 0.929 . S
C1056 C1055 1.383 . S
C1056 C1057 1.377 . S
C1057 H1041 0.930 . S
C1057 C1056 1.377 . S
C1057 C1058 1.379 . S
C1058 H1042 0.931 . S
C1058 C1052 1.383 . S
C1058 C1057 1.379 . S
H1059 C1053 0.959 . S
H1060 C1053 0.961 . S
H1061 C1053 0.960 . S
H1062 C1054 0.930 . S
H1063 C1055 0.929 . S
H1064 C1072 0.929 . S
H1065 C1074 0.930 . S
H1066 C1076 0.930 . S
H1067 C1079 0.929 . S
H1068 C1082 0.930 . S
H1069 C1084 0.960 . S
H1070 C1084 0.960 . S
H1071 C1084 0.960 . S
C1072 H1064 0.929 . S
C1072 C1073 1.377 . S
C1072 C1074 1.384 . S
C1073 C1072 1.377 . S
C1073 C1079 1.390 . S
C1074 H1065 0.930 . S
C1074 C1072 1.384 . S
C1074 C1075 1.372 . S
C1075 C1074 1.372 . S
C1075 C1076 1.400 . S
C1075 C1080 1.490 . S
C1076 H1066 0.930 . S
C1076 C1075 1.400 . S
C1076 C1079 1.386 . S
H1077 C1093 0.880 1_455 S
H1078 C1094 0.931 . S
C1079 H1067 0.929 . S
C1079 C1073 1.390 . S
C1079 C1076 1.386 . S
C1080 C1075 1.490 . S
C1080 C1082 1.395 . S
C1080 C1083 1.403 . S
H1081 C1087 0.930 . S
C1082 H1068 0.930 . S
C1082 C1080 1.395 . S
C1082 C1085 1.403 . S
C1083 C1080 1.403 . S
C1083 C1084 1.524 . S
C1083 C1087 1.400 . S
C1084 H1069 0.960 . S
C1084 H1070 0.960 . S
C1084 H1071 0.960 . S
C1084 C1083 1.524 . S
C1085 C1082 1.403 . S
C1085 C1086 1.392 . S
C1085 C1089 1.495 . S
C1086 C1085 1.392 . S
C1086 C1087 1.385 . S
C1086 C1088 1.478 . S
C1087 H1081 0.930 . S
C1087 C1083 1.400 . S
C1087 C1086 1.385 . S
C1088 C1086 1.478 . S
C1088 C1090 1.381 . S
C1088 C1094 1.383 . S
C1089 C1085 1.495 . S
C1089 H1095 0.977 . S
C1089 H1096 0.961 . S
C1089 H1097 0.960 . S
C1090 C1088 1.381 . S
C1090 C1091 1.394 . S
C1090 H1098 0.930 . S
C1091 C1090 1.394 . S
C1091 C1092 1.383 . S
C1091 H1099 0.929 . S
C1092 C1091 1.383 . S
C1092 C1093 1.408 . S
C1093 H1077 0.880 1_655 S
C1093 C1092 1.408 . S
C1093 C1094 1.399 . S
C1094 H1078 0.931 . S
C1094 C1088 1.383 . S
C1094 C1093 1.399 . S
H1095 C1089 0.977 . S
H1096 C1089 0.961 . S
H1097 C1089 0.960 . S
H1098 C1090 0.930 . S
H1099 C1091 0.929 . S
H1100 C1108 0.929 . S
H1101 C1110 0.930 . S
H1102 C1112 0.930 . S
H1103 C1115 0.929 . S
H1104 C1118 0.930 . S
H1105 C1120 0.960 . S
H1106 C1120 0.960 . S
H1107 C1120 0.960 . S
C1108 H1100 0.929 . S
C1108 C1109 1.377 . S
C1108 C1110 1.384 . S
C1109 C1108 1.377 . S
C1109 C1115 1.390 . S
C1110 H1101 0.930 . S
C1110 C1108 1.384 . S
C1110 C1111 1.372 . S
C1111 C1110 1.372 . S
C1111 C1112 1.400 . S
C1111 C1116 1.490 . S
C1112 H1102 0.930 . S
C1112 C1111 1.400 . S
C1112 C1115 1.386 . S
H1113 C1129 0.930 . S
H1114 C1130 0.931 . S
C1115 H1103 0.929 . S
C1115 C1109 1.390 . S
C1115 C1112 1.386 . S
C1116 C1111 1.490 . S
C1116 C1118 1.395 . S
C1116 C1119 1.403 . S
H1117 C1123 0.930 . S
C1118 H1104 0.930 . S
C1118 C1116 1.395 . S
C1118 C1121 1.403 . S
C1119 C1116 1.403 . S
C1119 C1120 1.524 . S
C1119 C1123 1.400 . S
C1120 H1105 0.960 . S
C1120 H1106 0.960 . S
C1120 H1107 0.960 . S
C1120 C1119 1.524 . S
C1121 C1118 1.403 . S
C1121 C1122 1.392 . S
C1121 C1125 1.495 . S
C1122 C1121 1.392 . S
C1122 C1123 1.385 . S
C1122 C1124 1.478 . S
C1123 H1117 0.930 . S
C1123 C1119 1.400 . S
C1123 C1122 1.385 . S
C1124 C1122 1.478 . S
C1124 C1126 1.381 . S
C1124 C1130 1.383 . S
C1125 C1121 1.495 . S
C1125 H1131 0.959 . S
C1125 H1132 0.961 . S
C1125 H1133 0.960 . S
C1126 C1124 1.381 . S
C1126 C1127 1.394 . S
C1126 H1134 0.930 . S
C1127 C1126 1.394 . S
C1127 C1128 1.383 . S
C1127 H1135 0.929 . S
C1128 C1127 1.383 . S
C1128 C1129 1.377 . S
C1129 H1113 0.930 . S
C1129 C1128 1.377 . S
C1129 C1130 1.379 . S
C1130 H1114 0.931 . S
C1130 C1124 1.383 . S
C1130 C1129 1.379 . S
H1131 C1125 0.959 . S
H1132 C1125 0.961 . S
H1133 C1125 0.960 . S
H1134 C1126 0.930 . S
H1135 C1127 0.929 . S
H1136 C1144 0.929 1_565 S
H1137 C1146 0.930 1_565 S
H1138 C1148 0.930 . S
H1139 C1151 0.929 . S
H1140 C1154 0.930 . S
H1141 C1156 0.960 . S
H1142 C1156 0.998 . S
H1143 C1156 0.960 . S
C1144 H1136 0.929 1_545 S
C1144 C1145 1.377 . S
C1144 C1146 1.384 . S
C1145 C1144 1.377 . S
C1145 C1151 1.390 . S
C1146 H1137 0.930 1_545 S
C1146 C1144 1.384 . S
C1146 C1147 1.372 . S
C1147 C1146 1.372 . S
C1147 C1148 1.400 . S
C1147 C1152 1.490 . S
C1148 H1138 0.930 . S
C1148 C1147 1.400 . S
C1148 C1151 1.386 . S
H1149 C1165 0.930 . S
H1150 C1166 0.931 . S
C1151 H1139 0.929 . S
C1151 C1145 1.390 . S
C1151 C1148 1.386 . S
C1152 C1147 1.490 . S
C1152 C1154 1.395 . S
C1152 C1155 1.403 . S
H1153 C1159 0.930 . S
C1154 H1140 0.930 . S
C1154 C1152 1.395 . S
C1154 C1157 1.403 . S
C1155 C1152 1.403 . S
C1155 C1156 1.524 . S
C1155 C1159 1.400 . S
C1156 H1141 0.960 . S
C1156 H1142 0.998 . S
C1156 H1143 0.960 . S
C1156 C1155 1.524 . S
C1157 C1154 1.403 . S
C1157 C1158 1.392 . S
C1157 C1161 1.495 . S
C1158 C1157 1.392 . S
C1158 C1159 1.385 . S
C1158 C1160 1.478 . S
C1159 H1153 0.930 . S
C1159 C1155 1.400 . S
C1159 C1158 1.385 . S
C1160 C1158 1.478 . S
C1160 C1162 1.381 . S
C1160 C1166 1.383 . S
C1161 C1157 1.495 . S
C1161 H1167 0.959 . S
C1161 H1168 0.961 . S
C1161 H1169 0.960 . S
C1162 C1160 1.381 . S
C1162 C1163 1.394 . S
C1162 H1170 0.930 . S
C1163 C1162 1.394 . S
C1163 C1164 1.383 . S
C1163 H1171 0.929 . S
C1164 C1163 1.383 . S
C1164 C1165 1.377 . S
C1165 H1149 0.930 . S
C1165 C1164 1.377 . S
C1165 C1166 1.379 . S
C1166 H1150 0.931 . S
C1166 C1160 1.383 . S
C1166 C1165 1.379 . S
H1167 C1161 0.959 . S
H1168 C1161 0.961 . S
H1169 C1161 0.960 . S
H1170 C1162 0.930 . S
H1171 C1163 0.929 . S
H1172 C1180 0.929 . S
H1173 C1182 0.930 . S
H1174 C1184 0.930 . S
H1175 C1187 0.929 . S
H1176 C1190 0.930 . S
H1177 C1192 0.960 . S
H1178 C1192 0.960 . S
H1179 C1192 0.960 . S
C1180 H1172 0.929 . S
C1180 C1181 1.377 . S
C1180 C1182 1.384 . S
C1181 C1180 1.377 . S
C1181 C1187 1.390 . S
C1182 H1173 0.930 . S
C1182 C1180 1.384 . S
C1182 C1183 1.372 . S
C1183 C1182 1.372 . S
C1183 C1184 1.400 . S
C1183 C1188 1.490 . S
C1184 H1174 0.930 . S
C1184 C1183 1.400 . S
C1184 C1187 1.386 . S
H1185 C1201 0.930 . S
H1186 C1202 0.931 . S
C1187 H1175 0.929 . S
C1187 C1181 1.390 . S
C1187 C1184 1.386 . S
C1188 C1183 1.490 . S
C1188 C1190 1.395 . S
C1188 C1191 1.403 . S
H1189 C1195 0.930 . S
C1190 H1176 0.930 . S
C1190 C1188 1.395 . S
C1190 C1193 1.403 . S
C1191 C1188 1.403 . S
C1191 C1192 1.524 . S
C1191 C1195 1.400 . S
C1192 H1177 0.960 . S
C1192 H1178 0.960 . S
C1192 H1179 0.960 . S
C1192 C1191 1.524 . S
C1193 C1190 1.403 . S
C1193 C1194 1.392 . S
C1193 C1197 1.495 . S
C1194 C1193 1.392 . S
C1194 C1195 1.385 . S
C1194 C1196 1.478 . S
C1195 H1189 0.930 . S
C1195 C1191 1.400 . S
C1195 C1194 1.385 . S
C1196 C1194 1.478 . S
C1196 C1198 1.381 . S
C1196 C1202 1.383 . S
C1197 C1193 1.495 . S
C1197 H1203 0.959 . S
C1197 H1204 0.961 . S
C1197 H1205 0.960 . S
C1198 C1196 1.381 . S
C1198 C1199 1.394 . S
C1198 H1206 0.930 . S
C1199 C1198 1.394 . S
C1199 C1200 1.383 . S
C1199 H1207 0.929 . S
C1200 C1199 1.383 . S
C1200 C1201 1.377 . S
C1201 H1185 0.930 . S
C1201 C1200 1.377 . S
C1201 C1202 1.379 . S
C1202 H1186 0.931 . S
C1202 C1196 1.383 . S
C1202 C1201 1.379 . S
H1203 C1197 0.959 . S
H1204 C1197 0.961 . S
H1205 C1197 0.960 . S
H1206 C1198 0.930 . S
H1207 C1199 0.929 . S
H1208 C1216 0.929 1_556 S
H1209 C1218 0.930 1_556 S
H1210 C1220 0.930 . S
H1211 C1223 0.929 . S
H1212 C1226 0.930 . S
H1213 C1228 0.960 1_545 S
H1214 C1228 0.960 . S
H1215 C1228 0.960 . S
C1216 H1208 0.929 1_554 S
C1216 C1217 1.377 . S
C1216 C1218 1.384 . S
C1217 C1216 1.377 . S
C1217 C1223 1.390 . S
C1218 H1209 0.930 1_554 S
C1218 C1216 1.384 . S
C1218 C1219 1.372 . S
C1219 C1218 1.372 . S
C1219 C1220 1.400 . S
C1219 C1224 1.490 . S
C1220 H1210 0.930 . S
C1220 C1219 1.400 . S
C1220 C1223 1.386 . S
H1221 C1237 0.930 1_545 S
H1222 C1238 0.931 . S
C1223 H1211 0.929 . S
C1223 C1217 1.390 . S
C1223 C1220 1.386 . S
C1224 C1219 1.490 . S
C1224 C1226 1.395 . S
C1224 C1227 1.403 . S
H1225 C1231 0.930 . S
C1226 H1212 0.930 . S
C1226 C1224 1.395 . S
C1226 C1229 1.403 . S
C1227 C1224 1.403 . S
C1227 C1228 1.524 . S
C1227 C1231 1.400 . S
C1228 H1213 0.960 1_565 S
C1228 H1214 0.960 . S
C1228 H1215 0.960 . S
C1228 C1227 1.524 . S
C1229 C1226 1.403 . S
C1229 C1230 1.392 . S
C1229 C1233 1.495 . S
C1230 C1229 1.392 . S
C1230 C1231 1.385 . S
C1230 C1232 1.478 . S
C1231 H1225 0.930 . S
C1231 C1227 1.400 . S
C1231 C1230 1.385 . S
C1232 C1230 1.478 . S
C1232 C1234 1.381 . S
C1232 C1238 1.383 . S
C1233 C1229 1.495 . S
C1233 H1239 0.953 1_554 S
C1233 H1240 0.961 . S
C1233 H1241 0.960 1_554 S
C1234 C1232 1.381 . S
C1234 C1235 1.394 . S
C1234 H1242 0.930 1_554 S
C1235 C1234 1.394 . S
C1235 C1236 1.383 1_565 S
C1235 H1243 0.921 1_564 S
C1236 C1235 1.383 1_545 S
C1236 C1237 1.377 1_545 S
C1237 H1221 0.930 1_565 S
C1237 C1236 1.377 1_565 S
C1237 C1238 1.379 . S
C1238 H1222 0.931 . S
C1238 C1232 1.383 . S
C1238 C1237 1.379 . S
H1239 C1233 0.953 1_556 S
H1240 C1233 0.961 . S
H1241 C1233 0.960 1_556 S
H1242 C1234 0.930 1_556 S
H1243 C1235 0.921 1_546 S
H1244 C1252 0.929 . S
H1245 C1254 0.930 . S
H1246 C1256 0.930 . S
H1247 C1259 0.929 . S
H1248 C1262 0.930 . S
H1249 C1264 0.960 . S
H1250 C1264 0.960 . S
H1251 C1264 0.960 . S
C1252 H1244 0.929 . S
C1252 C1253 1.377 1_556 S
C1252 C1254 1.384 . S
C1253 C1252 1.377 1_554 S
C1253 C1259 1.390 . S
C1254 H1245 0.930 . S
C1254 C1252 1.384 . S
C1254 C1255 1.372 1_556 S
C1255 C1254 1.372 1_554 S
C1255 C1256 1.400 . S
C1255 C1260 1.490 . S
C1256 H1246 0.930 . S
C1256 C1255 1.400 . S
C1256 C1259 1.386 . S
H1257 C1273 0.930 . S
H1258 C1274 0.931 . S
C1259 H1247 0.929 . S
C1259 C1253 1.390 . S
C1259 C1256 1.386 . S
C1260 C1255 1.490 . S
C1260 C1262 1.395 . S
C1260 C1263 1.403 1_554 S
H1261 C1267 0.930 . S
C1262 H1248 0.930 . S
C1262 C1260 1.395 . S
C1262 C1265 1.403 . S
C1263 C1260 1.403 1_556 S
C1263 C1264 1.524 . S
C1263 C1267 1.400 . S
C1264 H1249 0.960 . S
C1264 H1250 0.960 . S
C1264 H1251 0.960 . S
C1264 C1263 1.524 . S
C1265 C1262 1.403 . S
C1265 C1266 1.392 . S
C1265 C1269 1.495 . S
C1266 C1265 1.392 . S
C1266 C1267 1.385 1_554 S
C1266 C1268 1.478 . S
C1267 H1261 0.930 . S
C1267 C1263 1.400 . S
C1267 C1266 1.385 1_556 S
C1268 C1266 1.478 . S
C1268 C1270 1.381 1_554 S
C1268 C1274 1.383 . S
C1269 C1265 1.495 . S
C1269 H1275 0.959 . S
C1269 H1276 0.961 . S
C1269 H1277 0.960 . S
C1270 C1268 1.381 1_556 S
C1270 C1271 1.397 . S
C1270 H1278 0.931 . S
C1271 C1270 1.397 . S
C1271 C1272 1.372 1_556 S
C1271 H1279 0.939 . S
C1272 C1271 1.372 1_554 S
C1272 C1273 1.377 . S
C1273 H1257 0.930 . S
C1273 C1272 1.377 . S
C1273 C1274 1.379 . S
C1274 H1258 0.931 . S
C1274 C1268 1.383 . S
C1274 C1273 1.379 . S
H1275 C1269 0.959 . S
H1276 C1269 0.961 . S
H1277 C1269 0.960 . S
H1278 C1270 0.931 . S
H1279 C1271 0.939 . S
H1280 C1288 0.929 . S
H1281 C1290 0.930 . S
H1282 C1292 0.930 . S
H1283 C1295 0.929 . S
H1284 C1298 0.930 . S
H1285 C1300 0.960 . S
H1286 C1300 0.960 . S
H1287 C1300 0.960 . S
C1288 H1280 0.929 . S
C1288 C1289 1.377 . S
C1288 C1290 1.384 . S
C1289 C1288 1.377 . S
C1289 C1295 1.390 . S
C1290 H1281 0.930 . S
C1290 C1288 1.384 . S
C1290 C1291 1.372 . S
C1291 C1290 1.372 . S
C1291 C1292 1.400 . S
C1291 C1296 1.490 . S
C1292 H1282 0.930 . S
C1292 C1291 1.400 . S
C1292 C1295 1.386 . S
H1293 C1309 0.930 . S
H1294 C1310 0.931 . S
C1295 H1283 0.929 . S
C1295 C1289 1.390 . S
C1295 C1292 1.386 . S
C1296 C1291 1.490 . S
C1296 C1298 1.395 . S
C1296 C1299 1.403 . S
H1297 C1303 0.930 . S
C1298 H1284 0.930 . S
C1298 C1296 1.395 . S
C1298 C1301 1.403 . S
C1299 C1296 1.403 . S
C1299 C1300 1.524 . S
C1299 C1303 1.400 . S
C1300 H1285 0.960 . S
C1300 H1286 0.960 . S
C1300 H1287 0.960 . S
C1300 C1299 1.524 . S
C1301 C1298 1.403 . S
C1301 C1302 1.392 . S
C1301 C1305 1.495 . S
C1302 C1301 1.392 . S
C1302 C1303 1.385 . S
C1302 C1304 1.478 . S
C1303 H1297 0.930 . S
C1303 C1299 1.400 . S
C1303 C1302 1.385 . S
C1304 C1302 1.478 . S
C1304 C1306 1.381 . S
C1304 C1310 1.383 . S
C1305 C1301 1.495 . S
C1305 H1311 0.959 . S
C1305 H1312 0.961 . S
C1305 H1313 0.960 . S
C1306 C1304 1.381 . S
C1306 C1307 1.394 . S
C1306 H1314 0.930 . S
C1307 C1306 1.394 . S
C1307 C1308 1.383 . S
C1307 H1315 0.929 . S
C1308 C1307 1.383 . S
C1308 C1309 1.377 . S
C1309 H1293 0.930 . S
C1309 C1308 1.377 . S
C1309 C1310 1.379 . S
C1310 H1294 0.931 . S
C1310 C1304 1.383 . S
C1310 C1309 1.379 . S
H1311 C1305 0.959 . S
H1312 C1305 0.961 . S
H1313 C1305 0.960 . S
H1314 C1306 0.930 . S
H1315 C1307 0.929 . S
H1316 C1324 0.929 . S
H1317 C1326 0.930 . S
H1318 C1328 0.930 . S
H1319 C1331 0.929 . S
H1320 C1334 0.930 . S
H1321 C1336 0.960 . S
H1322 C1336 0.960 . S
H1323 C1336 0.960 . S
C1324 H1316 0.929 . S
C1324 C1325 1.377 . S
C1324 C1326 1.384 . S
C1325 C1324 1.377 . S
C1325 C1331 1.390 . S
C1326 H1317 0.930 . S
C1326 C1324 1.384 . S
C1326 C1327 1.372 . S
C1327 C1326 1.372 . S
C1327 C1328 1.400 . S
C1327 C1332 1.490 . S
C1328 H1318 0.930 . S
C1328 C1327 1.400 . S
C1328 C1331 1.386 . S
H1329 C1345 0.930 . S
H1330 C1346 0.931 . S
C1331 H1319 0.929 . S
C1331 C1325 1.390 . S
C1331 C1328 1.386 . S
C1332 C1327 1.490 . S
C1332 C1334 1.395 . S
C1332 C1335 1.403 . S
H1333 C1339 0.930 . S
C1334 H1320 0.930 . S
C1334 C1332 1.395 . S
C1334 C1337 1.403 . S
C1335 C1332 1.403 . S
C1335 C1336 1.524 . S
C1335 C1339 1.400 . S
C1336 H1321 0.960 . S
C1336 H1322 0.960 . S
C1336 H1323 0.960 . S
C1336 C1335 1.524 . S
C1337 C1334 1.403 . S
C1337 C1338 1.392 . S
C1337 C1341 1.495 . S
C1338 C1337 1.392 . S
C1338 C1339 1.385 . S
C1338 C1340 1.478 . S
C1339 H1333 0.930 . S
C1339 C1335 1.400 . S
C1339 C1338 1.385 . S
C1340 C1338 1.478 . S
C1340 C1342 1.381 . S
C1340 C1346 1.383 . S
C1341 C1337 1.495 . S
C1341 H1347 0.959 . S
C1341 H1348 0.961 . S
C1341 H1349 0.960 . S
C1342 C1340 1.381 . S
C1342 C1343 1.394 . S
C1342 H1350 0.930 . S
C1343 C1342 1.394 . S
C1343 C1344 1.383 . S
C1343 H1351 0.929 . S
C1344 C1343 1.383 . S
C1344 C1345 1.377 . S
C1345 H1329 0.930 . S
C1345 C1344 1.377 . S
C1345 C1346 1.379 . S
C1346 H1330 0.931 . S
C1346 C1340 1.383 . S
C1346 C1345 1.379 . S
H1347 C1341 0.959 . S
H1348 C1341 0.961 . S
H1349 C1341 0.960 . S
H1350 C1342 0.930 . S
H1351 C1343 0.929 . S
H1352 C1360 0.929 . S
H1353 C1362 0.930 . S
H1354 C1364 0.930 . S
H1355 C1367 0.929 . S
H1356 C1370 0.930 . S
H1357 C1372 0.960 . S
H1358 C1372 0.960 . S
H1359 C1372 0.960 . S
C1360 H1352 0.929 . S
C1360 C1361 1.377 . S
C1360 C1362 1.384 . S
C1361 C1360 1.377 . S
C1361 C1367 1.390 . S
C1362 H1353 0.930 . S
C1362 C1360 1.384 . S
C1362 C1363 1.372 . S
C1363 C1362 1.372 . S
C1363 C1364 1.400 . S
C1363 C1368 1.490 . S
C1364 H1354 0.930 . S
C1364 C1363 1.400 . S
C1364 C1367 1.386 . S
H1365 C1381 0.930 . S
H1366 C1382 0.931 . S
C1367 H1355 0.929 . S
C1367 C1361 1.390 . S
C1367 C1364 1.386 . S
C1368 C1363 1.490 . S
C1368 C1370 1.395 . S
C1368 C1371 1.403 . S
H1369 C1375 0.930 . S
C1370 H1356 0.930 . S
C1370 C1368 1.395 . S
C1370 C1373 1.403 . S
C1371 C1368 1.403 . S
C1371 C1372 1.524 . S
C1371 C1375 1.400 . S
C1372 H1357 0.960 . S
C1372 H1358 0.960 . S
C1372 H1359 0.960 . S
C1372 C1371 1.524 . S
C1373 C1370 1.403 . S
C1373 C1374 1.392 . S
C1373 C1377 1.495 . S
C1374 C1373 1.392 . S
C1374 C1375 1.385 . S
C1374 C1376 1.478 . S
C1375 H1369 0.930 . S
C1375 C1371 1.400 . S
C1375 C1374 1.385 . S
C1376 C1374 1.478 . S
C1376 C1378 1.381 . S
C1376 C1382 1.383 . S
C1377 C1373 1.495 . S
C1377 H1383 0.959 . S
C1377 H1384 0.961 . S
C1377 H1385 0.960 . S
C1378 C1376 1.381 . S
C1378 C1379 1.394 . S
C1378 H1386 0.930 . S
C1379 C1378 1.394 . S
C1379 C1380 1.383 . S
C1379 H1387 0.929 . S
C1380 C1379 1.383 . S
C1380 C1381 1.377 . S
C1381 H1365 0.930 . S
C1381 C1380 1.377 . S
C1381 C1382 1.379 . S
C1382 H1366 0.931 . S
C1382 C1376 1.383 . S
C1382 C1381 1.379 . S
H1383 C1377 0.959 . S
H1384 C1377 0.961 . S
H1385 C1377 0.960 . S
H1386 C1378 0.930 . S
H1387 C1379 0.929 . S
H1388 C1396 0.929 . S
H1389 C1398 0.930 . S
H1390 C1400 0.930 . S
H1391 C1403 0.929 . S
H1392 C1406 0.930 . S
H1393 C1408 0.960 . S
H1394 C1408 0.960 . S
H1395 C1408 0.960 . S
C1396 H1388 0.929 . S
C1396 C1397 1.377 . S
C1396 C1398 1.384 . S
C1397 C1396 1.377 . S
C1397 C1403 1.390 . S
C1398 H1389 0.930 . S
C1398 C1396 1.384 . S
C1398 C1399 1.372 . S
C1399 C1398 1.372 . S
C1399 C1400 1.400 . S
C1399 C1404 1.490 . S
C1400 H1390 0.930 . S
C1400 C1399 1.400 . S
C1400 C1403 1.386 . S
H1401 C1417 0.930 . S
H1402 C1418 0.931 . S
C1403 H1391 0.929 . S
C1403 C1397 1.390 . S
C1403 C1400 1.386 . S
C1404 C1399 1.490 . S
C1404 C1406 1.395 . S
C1404 C1407 1.403 . S
H1405 C1411 0.930 . S
C1406 H1392 0.930 . S
C1406 C1404 1.395 . S
C1406 C1409 1.403 . S
C1407 C1404 1.403 . S
C1407 C1408 1.524 . S
C1407 C1411 1.400 . S
C1408 H1393 0.960 . S
C1408 H1394 0.960 . S
C1408 H1395 0.960 . S
C1408 C1407 1.524 . S
C1409 C1406 1.403 . S
C1409 C1410 1.392 . S
C1409 C1413 1.495 . S
C1410 C1409 1.392 . S
C1410 C1411 1.385 . S
C1410 C1412 1.478 . S
C1411 H1405 0.930 . S
C1411 C1407 1.400 . S
C1411 C1410 1.385 . S
C1412 C1410 1.478 . S
C1412 C1414 1.381 . S
C1412 C1418 1.383 . S
C1413 C1409 1.495 . S
C1413 H1419 0.959 . S
C1413 H1420 0.961 . S
C1413 H1421 0.960 . S
C1414 C1412 1.381 . S
C1414 C1415 1.394 . S
C1414 H1422 0.930 . S
C1415 C1414 1.394 . S
C1415 C1416 1.383 . S
C1415 H1423 0.929 . S
C1416 C1415 1.383 . S
C1416 C1417 1.377 . S
C1417 H1401 0.930 . S
C1417 C1416 1.377 . S
C1417 C1418 1.379 . S
C1418 H1402 0.931 . S
C1418 C1412 1.383 . S
C1418 C1417 1.379 . S
H1419 C1413 0.959 . S
H1420 C1413 0.961 . S
H1421 C1413 0.960 . S
H1422 C1414 0.930 . S
H1423 C1415 0.929 . S
H1424 C1432 0.929 . S
H1425 C1434 0.930 . S
H1426 C1436 0.930 . S
H1427 C1439 0.929 . S
H1428 C1442 0.930 . S
H1429 C1444 0.960 . S
H1430 C1444 0.960 . S
H1431 C1444 0.960 . S
C1432 H1424 0.929 . S
C1432 C1433 1.377 . S
C1432 C1434 1.384 . S
C1433 C1432 1.377 . S
C1433 C1439 1.390 . S
C1434 H1425 0.930 . S
C1434 C1432 1.384 . S
C1434 C1435 1.372 . S
C1435 C1434 1.372 . S
C1435 C1436 1.400 . S
C1435 C1440 1.490 . S
C1436 H1426 0.930 . S
C1436 C1435 1.400 . S
C1436 C1439 1.386 . S
H1437 C1453 0.930 . S
H1438 C1454 0.931 . S
C1439 H1427 0.929 . S
C1439 C1433 1.390 . S
C1439 C1436 1.386 . S
C1440 C1435 1.490 . S
C1440 C1442 1.395 . S
C1440 C1443 1.403 . S
H1441 C1447 0.930 . S
C1442 H1428 0.930 . S
C1442 C1440 1.395 . S
C1442 C1445 1.403 . S
C1443 C1440 1.403 . S
C1443 C1444 1.524 . S
C1443 C1447 1.400 . S
C1444 H1429 0.960 . S
C1444 H1430 0.960 . S
C1444 H1431 0.960 . S
C1444 C1443 1.524 . S
C1445 C1442 1.403 . S
C1445 C1446 1.392 . S
C1445 C1449 1.495 . S
C1446 C1445 1.392 . S
C1446 C1447 1.385 . S
C1446 C1448 1.478 . S
C1447 H1441 0.930 . S
C1447 C1443 1.400 . S
C1447 C1446 1.385 . S
C1448 C1446 1.478 . S
C1448 C1450 1.381 . S
C1448 C1454 1.383 . S
C1449 C1445 1.495 . S
C1449 H1455 0.959 . S
C1449 H1456 0.961 . S
C1449 H1457 0.960 . S
C1450 C1448 1.381 . S
C1450 C1451 1.394 . S
C1450 H1458 0.930 . S
C1451 C1450 1.394 . S
C1451 C1452 1.383 . S
C1451 H1459 0.929 . S
C1452 C1451 1.383 . S
C1452 C1453 1.377 . S
C1453 H1437 0.930 . S
C1453 C1452 1.377 . S
C1453 C1454 1.379 . S
C1454 H1438 0.931 . S
C1454 C1448 1.383 . S
C1454 C1453 1.379 . S
H1455 C1449 0.959 . S
H1456 C1449 0.961 . S
H1457 C1449 0.960 . S
H1458 C1450 0.930 . S
H1459 C1451 0.929 . S
H1460 C1468 0.929 . S
H1461 C1470 0.930 . S
H1462 C1472 0.930 . S
H1463 C1475 0.929 . S
H1464 C1478 0.930 . S
H1465 C1480 0.960 . S
H1466 C1480 0.960 . S
H1467 C1480 0.960 . S
C1468 H1460 0.929 . S
C1468 C1469 1.377 . S
C1468 C1470 1.384 . S
C1469 C1468 1.377 . S
C1469 C1475 1.390 . S
C1470 H1461 0.930 . S
C1470 C1468 1.384 . S
C1470 C1471 1.372 . S
C1471 C1470 1.372 . S
C1471 C1472 1.400 . S
C1471 C1476 1.490 . S
C1472 H1462 0.930 . S
C1472 C1471 1.400 . S
C1472 C1475 1.386 . S
H1473 C1489 0.930 . S
H1474 C1490 0.931 . S
C1475 H1463 0.929 . S
C1475 C1469 1.390 . S
C1475 C1472 1.386 . S
C1476 C1471 1.490 . S
C1476 C1478 1.395 . S
C1476 C1479 1.403 . S
H1477 C1483 0.930 . S
C1478 H1464 0.930 . S
C1478 C1476 1.395 . S
C1478 C1481 1.403 . S
C1479 C1476 1.403 . S
C1479 C1480 1.524 . S
C1479 C1483 1.400 . S
C1480 H1465 0.960 . S
C1480 H1466 0.960 . S
C1480 H1467 0.960 . S
C1480 C1479 1.524 . S
C1481 C1478 1.403 . S
C1481 C1482 1.392 . S
C1481 C1485 1.495 . S
C1482 C1481 1.392 . S
C1482 C1483 1.385 . S
C1482 C1484 1.478 . S
C1483 H1477 0.930 . S
C1483 C1479 1.400 . S
C1483 C1482 1.385 . S
C1484 C1482 1.478 . S
C1484 C1486 1.381 . S
C1484 C1490 1.383 . S
C1485 C1481 1.495 . S
C1485 H1491 0.959 . S
C1485 H1492 0.961 . S
C1485 H1493 0.960 . S
C1486 C1484 1.381 . S
C1486 C1487 1.394 . S
C1486 H1494 0.930 . S
C1487 C1486 1.394 . S
C1487 C1488 1.383 . S
C1487 H1495 0.929 . S
C1488 C1487 1.383 . S
C1488 C1489 1.377 . S
C1489 H1473 0.930 . S
C1489 C1488 1.377 . S
C1489 C1490 1.379 . S
C1490 H1474 0.931 . S
C1490 C1484 1.383 . S
C1490 C1489 1.379 . S
H1491 C1485 0.959 . S
H1492 C1485 0.961 . S
H1493 C1485 0.960 . S
H1494 C1486 0.930 . S
H1495 C1487 0.929 . S
H1496 C1504 0.929 . S
H1497 C1506 0.930 . S
H1498 C1508 0.930 . S
H1499 C1511 0.929 . S
H1500 C1514 0.930 . S
H1501 C1516 0.960 . S
H1502 C1516 0.960 . S
H1503 C1516 0.960 . S
C1504 H1496 0.929 . S
C1504 C1505 1.377 1_655 S
C1504 C1506 1.384 . S
C1505 C1504 1.377 1_455 S
C1505 C1511 1.390 . S
C1506 H1497 0.930 . S
C1506 C1504 1.384 . S
C1506 C1507 1.372 1_655 S
C1507 C1506 1.372 1_455 S
C1507 C1508 1.400 . S
C1507 C1512 1.490 . S
C1508 H1498 0.930 . S
C1508 C1507 1.400 . S
C1508 C1511 1.386 . S
H1509 C1525 0.930 . S
H1510 C1526 0.931 . S
C1511 H1499 0.929 . S
C1511 C1505 1.390 . S
C1511 C1508 1.386 . S
C1512 C1507 1.490 . S
C1512 C1514 1.395 1_455 S
C1512 C1515 1.403 . S
H1513 C1519 0.930 . S
C1514 H1500 0.930 . S
C1514 C1512 1.395 1_655 S
C1514 C1517 1.403 . S
C1515 C1512 1.403 . S
C1515 C1516 1.524 . S
C1515 C1519 1.400 . S
C1516 H1501 0.960 . S
C1516 H1502 0.960 . S
C1516 H1503 0.960 . S
C1516 C1515 1.524 . S
C1517 C1514 1.403 . S
C1517 C1518 1.392 1_655 S
C1517 C1521 1.495 . S
C1518 C1517 1.392 1_455 S
C1518 C1519 1.385 . S
C1518 C1520 1.478 . S
C1519 H1513 0.930 . S
C1519 C1515 1.400 . S
C1519 C1518 1.385 . S
C1520 C1518 1.478 . S
C1520 C1522 1.381 1_455 S
C1520 C1526 1.383 . S
C1521 C1517 1.495 . S
C1521 H1527 0.959 . S
C1521 H1528 0.961 . S
C1521 H1529 0.960 . S
C1522 C1520 1.381 1_655 S
C1522 C1523 1.394 . S
C1522 H1530 0.930 . S
C1523 C1522 1.394 . S
C1523 C1524 1.383 1_655 S
C1523 H1531 0.929 . S
C1524 C1523 1.383 1_455 S
C1524 C1525 1.377 . S
C1525 H1509 0.930 . S
C1525 C1524 1.377 . S
C1525 C1526 1.379 . S
C1526 H1510 0.931 . S
C1526 C1520 1.383 . S
C1526 C1525 1.379 . S
H1527 C1521 0.959 . S
H1528 C1521 0.961 . S
H1529 C1521 0.960 . S
H1530 C1522 0.930 . S
H1531 C1523 0.929 . S
H1532 C1540 0.929 . S
H1533 C1542 0.930 . S
H1534 C1544 0.930 . S
H1535 C1547 0.929 . S
H1536 C1550 0.930 . S
H1537 C1552 0.960 . S
H1538 C1552 0.960 . S
H1539 C1552 0.960 . S
C1540 H1532 0.929 . S
C1540 C1541 1.377 . S
C1540 C1542 1.384 . S
C1541 C1540 1.377 . S
C1541 C1547 1.390 . S
C1542 H1533 0.930 . S
C1542 C1540 1.384 . S
C1542 C1543 1.372 . S
C1543 C1542 1.372 . S
C1543 C1544 1.400 . S
C1543 C1548 1.490 . S
C1544 H1534 0.930 . S
C1544 C1543 1.400 . S
C1544 C1547 1.386 . S
H1545 C1561 0.930 . S
H1546 C1562 0.931 . S
C1547 H1535 0.929 . S
C1547 C1541 1.390 . S
C1547 C1544 1.386 . S
C1548 C1543 1.490 . S
C1548 C1550 1.395 . S
C1548 C1551 1.403 . S
H1549 C1555 0.930 . S
C1550 H1536 0.930 . S
C1550 C1548 1.395 . S
C1550 C1553 1.403 . S
C1551 C1548 1.403 . S
C1551 C1552 1.524 . S
C1551 C1555 1.400 . S
C1552 H1537 0.960 . S
C1552 H1538 0.960 . S
C1552 H1539 0.960 . S
C1552 C1551 1.524 . S
C1553 C1550 1.403 . S
C1553 C1554 1.392 . S
C1553 C1557 1.495 . S
C1554 C1553 1.392 . S
C1554 C1555 1.385 . S
C1554 C1556 1.478 . S
C1555 H1549 0.930 . S
C1555 C1551 1.400 . S
C1555 C1554 1.385 . S
C1556 C1554 1.478 . S
C1556 C1558 1.381 . S
C1556 C1562 1.383 . S
C1557 C1553 1.495 . S
C1557 H1563 0.959 . S
C1557 H1564 0.961 . S
C1557 H1565 0.960 . S
C1558 C1556 1.381 . S
C1558 C1559 1.394 . S
C1558 H1566 0.930 . S
C1559 C1558 1.394 . S
C1559 C1560 1.383 . S
C1559 H1567 0.929 . S
C1560 C1559 1.383 . S
C1560 C1561 1.377 . S
C1561 H1545 0.930 . S
C1561 C1560 1.377 . S
C1561 C1562 1.379 . S
C1562 H1546 0.931 . S
C1562 C1556 1.383 . S
C1562 C1561 1.379 . S
H1563 C1557 0.959 . S
H1564 C1557 0.961 . S
H1565 C1557 0.960 . S
H1566 C1558 0.930 . S
H1567 C1559 0.929 . S
H1568 C1576 0.929 . S
H1569 C1578 0.930 . S
H1570 C1580 0.930 . S
H1571 C1583 0.929 . S
H1572 C1586 0.930 . S
H1573 C1588 0.960 . S
H1574 C1588 0.960 . S
H1575 C1588 0.960 . S
C1576 H1568 0.929 . S
C1576 C1577 1.377 . S
C1576 C1578 1.384 . S
C1577 C1576 1.377 . S
C1577 C1583 1.390 . S
C1578 H1569 0.930 . S
C1578 C1576 1.384 . S
C1578 C1579 1.372 . S
C1579 C1578 1.372 . S
C1579 C1580 1.400 . S
C1579 C1584 1.490 . S
C1580 H1570 0.930 . S
C1580 C1579 1.400 . S
C1580 C1583 1.386 . S
H1581 C1597 0.930 . S
H1582 C1598 0.931 . S
C1583 H1571 0.929 . S
C1583 C1577 1.390 . S
C1583 C1580 1.386 . S
C1584 C1579 1.490 . S
C1584 C1586 1.395 . S
C1584 C1587 1.403 . S
H1585 C1591 0.930 . S
C1586 H1572 0.930 . S
C1586 C1584 1.395 . S
C1586 C1589 1.403 . S
C1587 C1584 1.403 . S
C1587 C1588 1.524 . S
C1587 C1591 1.400 . S
C1588 H1573 0.960 . S
C1588 H1574 0.960 . S
C1588 H1575 0.960 . S
C1588 C1587 1.524 . S
C1589 C1586 1.403 . S
C1589 C1590 1.392 . S
C1589 C1593 1.495 . S
C1590 C1589 1.392 . S
C1590 C1591 1.385 . S
C1590 C1592 1.478 . S
C1591 H1585 0.930 . S
C1591 C1587 1.400 . S
C1591 C1590 1.385 . S
C1592 C1590 1.478 . S
C1592 C1594 1.381 . S
C1592 C1598 1.383 . S
C1593 C1589 1.495 . S
C1593 H1599 0.959 . S
C1593 H1600 0.961 . S
C1593 H1601 0.960 . S
C1594 C1592 1.381 . S
C1594 C1595 1.394 . S
C1594 H1602 0.930 . S
C1595 C1594 1.394 . S
C1595 C1596 1.383 . S
C1595 H1603 0.929 . S
C1596 C1595 1.383 . S
C1596 C1597 1.377 . S
C1597 H1581 0.930 . S
C1597 C1596 1.377 . S
C1597 C1598 1.379 . S
C1598 H1582 0.931 . S
C1598 C1592 1.383 . S
C1598 C1597 1.379 . S
H1599 C1593 0.959 . S
H1600 C1593 0.961 . S
H1601 C1593 0.960 . S
H1602 C1594 0.930 . S
H1603 C1595 0.929 . S
H1604 C1612 0.929 . S
H1605 C1614 0.930 . S
H1606 C1616 0.930 . S
H1607 C1619 0.929 . S
H1608 C1622 0.930 . S
H1609 C1624 0.960 . S
H1610 C1624 0.960 . S
H1611 C1624 0.960 . S
C1612 H1604 0.929 . S
C1612 C1613 1.377 . S
C1612 C1614 1.384 . S
C1613 C1612 1.377 . S
C1613 C1619 1.390 . S
C1614 H1605 0.930 . S
C1614 C1612 1.384 . S
C1614 C1615 1.372 . S
C1615 C1614 1.372 . S
C1615 C1616 1.400 . S
C1615 C1620 1.490 . S
C1616 H1606 0.930 . S
C1616 C1615 1.400 . S
C1616 C1619 1.386 . S
H1617 C1633 0.930 . S
H1618 C1634 0.931 . S
C1619 H1607 0.929 . S
C1619 C1613 1.390 . S
C1619 C1616 1.386 . S
C1620 C1615 1.490 . S
C1620 C1622 1.395 . S
C1620 C1623 1.403 . S
H1621 C1627 0.930 . S
C1622 H1608 0.930 . S
C1622 C1620 1.395 . S
C1622 C1625 1.403 . S
C1623 C1620 1.403 . S
C1623 C1624 1.524 . S
C1623 C1627 1.400 . S
C1624 H1609 0.960 . S
C1624 H1610 0.960 . S
C1624 H1611 0.960 . S
C1624 C1623 1.524 . S
C1625 C1622 1.403 . S
C1625 C1626 1.392 . S
C1625 C1629 1.495 . S
C1626 C1625 1.392 . S
C1626 C1627 1.385 . S
C1626 C1628 1.478 . S
C1627 H1621 0.930 . S
C1627 C1623 1.400 . S
C1627 C1626 1.385 . S
C1628 C1626 1.478 . S
C1628 C1630 1.381 . S
C1628 C1634 1.383 . S
C1629 C1625 1.495 . S
C1629 H1635 0.959 . S
C1629 H1636 0.961 . S
C1629 H1637 0.960 . S
C1630 C1628 1.381 . S
C1630 C1631 1.394 . S
C1630 H1638 0.930 . S
C1631 C1630 1.394 . S
C1631 C1632 1.383 . S
C1631 H1639 0.929 . S
C1632 C1631 1.383 . S
C1632 C1633 1.377 . S
C1633 H1617 0.930 . S
C1633 C1632 1.377 . S
C1633 C1634 1.379 . S
C1634 H1618 0.931 . S
C1634 C1628 1.383 . S
C1634 C1633 1.379 . S
H1635 C1629 0.959 . S
H1636 C1629 0.961 . S
H1637 C1629 0.960 . S
H1638 C1630 0.930 . S
H1639 C1631 0.929 . S
H1640 C1648 0.921 1_655 S
H1641 C1650 0.930 . S
H1642 C1652 0.930 . S
H1643 C1655 0.929 . S
H1644 C1658 0.930 . S
H1645 C1660 0.960 . S
H1646 C1660 0.960 . S
H1647 C1660 0.960 . S
C1648 H1640 0.921 1_455 S
C1648 C1649 1.386 . S
C1648 C1650 1.384 1_455 S
C1649 C1648 1.386 . S
C1649 C1655 1.390 . S
C1650 H1641 0.930 . S
C1650 C1648 1.384 1_655 S
C1650 C1651 1.372 1_655 S
C1651 C1650 1.372 1_455 S
C1651 C1652 1.400 . S
C1651 C1656 1.490 . S
C1652 H1642 0.930 . S
C1652 C1651 1.400 . S
C1652 C1655 1.386 . S
H1653 C1669 0.930 . S
H1654 C1670 0.931 . S
C1655 H1643 0.929 . S
C1655 C1649 1.390 . S
C1655 C1652 1.386 . S
C1656 C1651 1.490 . S
C1656 C1658 1.395 1_455 S
C1656 C1659 1.403 . S
H1657 C1663 0.930 . S
C1658 H1644 0.930 . S
C1658 C1656 1.395 1_655 S
C1658 C1661 1.403 . S
C1659 C1656 1.403 . S
C1659 C1660 1.524 . S
C1659 C1663 1.400 . S
C1660 H1645 0.960 . S
C1660 H1646 0.960 . S
C1660 H1647 0.960 . S
C1660 C1659 1.524 . S
C1661 C1658 1.403 . S
C1661 C1662 1.392 1_655 S
C1661 C1665 1.495 . S
C1662 C1661 1.392 1_455 S
C1662 C1663 1.385 . S
C1662 C1664 1.478 . S
C1663 H1657 0.930 . S
C1663 C1659 1.400 . S
C1663 C1662 1.385 . S
C1664 C1662 1.478 . S
C1664 C1666 1.381 1_455 S
C1664 C1670 1.383 . S
C1665 C1661 1.495 . S
C1665 H1671 0.959 . S
C1665 H1672 0.961 . S
C1665 H1673 0.960 . S
C1666 C1664 1.381 1_655 S
C1666 C1667 1.394 . S
C1666 H1674 0.930 . S
C1667 C1666 1.394 . S
C1667 C1668 1.383 1_655 S
C1667 H1675 0.929 . S
C1668 C1667 1.383 1_455 S
C1668 C1669 1.377 . S
C1669 H1653 0.930 . S
C1669 C1668 1.377 . S
C1669 C1670 1.379 . S
C1670 H1654 0.931 . S
C1670 C1664 1.383 . S
C1670 C1669 1.379 . S
H1671 C1665 0.959 . S
H1672 C1665 0.961 . S
H1673 C1665 0.960 . S
H1674 C1666 0.930 . S
H1675 C1667 0.929 . S
H1676 C1684 0.929 . S
H1677 C1686 0.930 . S
H1678 C1688 0.930 . S
H1679 C1691 0.929 . S
H1680 C1694 0.930 . S
H1681 C1696 0.960 . S
H1682 C1696 0.960 . S
H1683 C1696 0.960 . S
C1684 H1676 0.929 . S
C1684 C1685 1.377 . S
C1684 C1686 1.384 . S
C1685 C1684 1.377 . S
C1685 C1691 1.390 . S
C1686 H1677 0.930 . S
C1686 C1684 1.384 . S
C1686 C1687 1.372 . S
C1687 C1686 1.372 . S
C1687 C1688 1.400 . S
C1687 C1692 1.490 . S
C1688 H1678 0.930 . S
C1688 C1687 1.400 . S
C1688 C1691 1.386 . S
H1689 C1705 0.930 . S
H1690 C1706 0.931 . S
C1691 H1679 0.929 . S
C1691 C1685 1.390 . S
C1691 C1688 1.386 . S
C1692 C1687 1.490 . S
C1692 C1694 1.395 . S
C1692 C1695 1.403 . S
H1693 C1699 0.930 . S
C1694 H1680 0.930 . S
C1694 C1692 1.395 . S
C1694 C1697 1.403 . S
C1695 C1692 1.403 . S
C1695 C1696 1.524 . S
C1695 C1699 1.400 . S
C1696 H1681 0.960 . S
C1696 H1682 0.960 . S
C1696 H1683 0.960 . S
C1696 C1695 1.524 . S
C1697 C1694 1.403 . S
C1697 C1698 1.392 . S
C1697 C1701 1.495 . S
C1698 C1697 1.392 . S
C1698 C1699 1.385 . S
C1698 C1700 1.478 . S
C1699 H1693 0.930 . S
C1699 C1695 1.400 . S
C1699 C1698 1.385 . S
C1700 C1698 1.478 . S
C1700 C1702 1.381 . S
C1700 C1706 1.383 . S
C1701 C1697 1.495 . S
C1701 H1707 0.959 . S
C1701 H1708 0.961 . S
C1701 H1709 0.960 . S
C1702 C1700 1.381 . S
C1702 C1703 1.394 . S
C1702 H1710 0.930 . S
C1703 C1702 1.394 . S
C1703 C1704 1.383 . S
C1703 H1711 0.929 . S
C1704 C1703 1.383 . S
C1704 C1705 1.377 . S
C1705 H1689 0.930 . S
C1705 C1704 1.377 . S
C1705 C1706 1.379 . S
C1706 H1690 0.931 . S
C1706 C1700 1.383 . S
C1706 C1705 1.379 . S
H1707 C1701 0.959 . S
H1708 C1701 0.961 . S
H1709 C1701 0.960 . S
H1710 C1702 0.930 . S
H1711 C1703 0.929 . S
H1712 C1720 0.929 . S
H1713 C1722 0.930 . S
H1714 C1724 0.930 . S
H1715 C1727 0.929 . S
H1716 C1730 0.930 . S
H1717 C1732 0.960 . S
H1718 C1732 0.960 . S
H1719 C1732 0.960 . S
C1720 H1712 0.929 . S
C1720 C1721 1.377 . S
C1720 C1722 1.384 . S
C1721 C1720 1.377 . S
C1721 C1727 1.390 . S
C1722 H1713 0.930 . S
C1722 C1720 1.384 . S
C1722 C1723 1.372 . S
C1723 C1722 1.372 . S
C1723 C1724 1.400 . S
C1723 C1728 1.490 . S
C1724 H1714 0.930 . S
C1724 C1723 1.400 . S
C1724 C1727 1.386 . S
H1725 C1741 0.930 . S
H1726 C1742 0.931 . S
C1727 H1715 0.929 . S
C1727 C1721 1.390 . S
C1727 C1724 1.386 . S
C1728 C1723 1.490 . S
C1728 C1730 1.395 . S
C1728 C1731 1.403 . S
H1729 C1735 0.930 . S
C1730 H1716 0.930 . S
C1730 C1728 1.395 . S
C1730 C1733 1.403 . S
C1731 C1728 1.403 . S
C1731 C1732 1.524 . S
C1731 C1735 1.400 . S
C1732 H1717 0.960 . S
C1732 H1718 0.960 . S
C1732 H1719 0.960 . S
C1732 C1731 1.524 . S
C1733 C1730 1.403 . S
C1733 C1734 1.392 . S
C1733 C1737 1.495 . S
C1734 C1733 1.392 . S
C1734 C1735 1.385 . S
C1734 C1736 1.478 . S
C1735 H1729 0.930 . S
C1735 C1731 1.400 . S
C1735 C1734 1.385 . S
C1736 C1734 1.478 . S
C1736 C1738 1.381 . S
C1736 C1742 1.383 . S
C1737 C1733 1.495 . S
C1737 H1743 0.959 . S
C1737 H1744 0.961 1_556 S
C1737 H1745 0.960 . S
C1738 C1736 1.381 . S
C1738 C1739 1.394 . S
C1738 H1746 0.930 . S
C1739 C1738 1.394 . S
C1739 C1740 1.383 . S
C1739 H1747 0.929 . S
C1740 C1739 1.383 . S
C1740 C1741 1.377 . S
C1741 H1725 0.930 . S
C1741 C1740 1.377 . S
C1741 C1742 1.379 . S
C1742 H1726 0.931 . S
C1742 C1736 1.383 . S
C1742 C1741 1.379 . S
H1743 C1737 0.959 . S
H1744 C1737 0.961 1_554 S
H1745 C1737 0.960 . S
H1746 C1738 0.930 . S
H1747 C1739 0.929 . S
H1748 C1756 0.929 . S
H1749 C1758 0.930 . S
H1750 C1760 0.930 . S
H1751 C1763 0.929 . S
H1752 C1766 0.930 . S
H1753 C1768 0.960 . S
H1754 C1768 0.960 . S
H1755 C1768 0.960 . S
C1756 H1748 0.929 . S
C1756 C1757 1.377 . S
C1756 C1758 1.384 . S
C1757 C1756 1.377 . S
C1757 C1763 1.390 . S
C1758 H1749 0.930 . S
C1758 C1756 1.384 . S
C1758 C1759 1.372 . S
C1759 C1758 1.372 . S
C1759 C1760 1.400 . S
C1759 C1764 1.490 . S
C1760 H1750 0.930 . S
C1760 C1759 1.400 . S
C1760 C1763 1.386 . S
H1761 C1777 0.930 . S
H1762 C1778 0.931 . S
C1763 H1751 0.929 . S
C1763 C1757 1.390 . S
C1763 C1760 1.386 . S
C1764 C1759 1.490 . S
C1764 C1766 1.395 . S
C1764 C1767 1.403 . S
H1765 C1771 0.930 . S
C1766 H1752 0.930 . S
C1766 C1764 1.395 . S
C1766 C1769 1.403 . S
C1767 C1764 1.403 . S
C1767 C1768 1.524 . S
C1767 C1771 1.400 . S
C1768 H1753 0.960 . S
C1768 H1754 0.960 . S
C1768 H1755 0.960 . S
C1768 C1767 1.524 . S
C1769 C1766 1.403 . S
C1769 C1770 1.392 . S
C1769 C1773 1.495 . S
C1770 C1769 1.392 . S
C1770 C1771 1.385 . S
C1770 C1772 1.478 . S
C1771 H1765 0.930 . S
C1771 C1767 1.400 . S
C1771 C1770 1.385 . S
C1772 C1770 1.478 . S
C1772 C1774 1.381 . S
C1772 C1778 1.383 . S
C1773 C1769 1.495 . S
C1773 H1779 0.959 . S
C1773 H1780 0.961 . S
C1773 H1781 0.960 . S
C1774 C1772 1.381 . S
C1774 C1775 1.394 . S
C1774 H1782 0.930 . S
C1775 C1774 1.394 . S
C1775 C1776 1.383 . S
C1775 H1783 0.929 . S
C1776 C1775 1.383 . S
C1776 C1777 1.377 . S
C1777 H1761 0.930 . S
C1777 C1776 1.377 . S
C1777 C1778 1.379 . S
C1778 H1762 0.931 . S
C1778 C1772 1.383 . S
C1778 C1777 1.379 . S
H1779 C1773 0.959 . S
H1780 C1773 0.961 . S
H1781 C1773 0.960 . S
H1782 C1774 0.930 . S
H1783 C1775 0.929 . S
H1784 C1792 0.929 . S
H1785 C1794 0.930 . S
H1786 C1796 0.930 . S
H1787 C1799 0.929 . S
H1788 C1802 0.930 . S
H1789 C1804 0.960 . S
H1790 C1804 0.960 . S
H1791 C1804 0.960 . S
C1792 H1784 0.929 . S
C1792 C1793 1.377 . S
C1792 C1794 1.384 . S
C1793 C1792 1.377 . S
C1793 C1799 1.390 1_565 S
C1794 H1785 0.930 . S
C1794 C1792 1.384 . S
C1794 C1795 1.372 1_565 S
C1795 C1794 1.372 1_545 S
C1795 C1796 1.400 . S
C1795 C1800 1.490 . S
C1796 H1786 0.930 . S
C1796 C1795 1.400 . S
C1796 C1799 1.386 . S
H1797 C1813 0.930 . S
H1798 C1814 0.931 . S
C1799 H1787 0.929 . S
C1799 C1793 1.390 1_545 S
C1799 C1796 1.386 . S
C1800 C1795 1.490 . S
C1800 C1802 1.395 1_545 S
C1800 C1803 1.403 . S
H1801 C1807 0.930 . S
C1802 H1788 0.930 . S
C1802 C1800 1.395 1_565 S
C1802 C1805 1.403 . S
C1803 C1800 1.403 . S
C1803 C1804 1.524 . S
C1803 C1807 1.400 . S
C1804 H1789 0.960 . S
C1804 H1790 0.960 . S
C1804 H1791 0.960 . S
C1804 C1803 1.524 . S
C1805 C1802 1.403 . S
C1805 C1806 1.392 1_565 S
C1805 C1809 1.495 . S
C1806 C1805 1.392 1_545 S
C1806 C1807 1.385 . S
C1806 C1808 1.478 . S
C1807 H1801 0.930 . S
C1807 C1803 1.400 . S
C1807 C1806 1.385 . S
C1808 C1806 1.478 . S
C1808 C1810 1.381 . S
C1808 C1814 1.383 . S
C1809 C1805 1.495 . S
C1809 H1815 0.959 . S
C1809 H1816 0.961 . S
C1809 H1817 0.960 . S
C1810 C1808 1.381 . S
C1810 C1811 1.402 . S
C1810 H1818 0.925 1_545 S
C1811 C1810 1.402 . S
C1811 C1812 1.383 . S
C1811 H1819 0.929 1_455 S
C1812 C1811 1.383 . S
C1812 C1813 1.377 . S
C1813 H1797 0.930 . S
C1813 C1812 1.377 . S
C1813 C1814 1.379 . S
C1814 H1798 0.931 . S
C1814 C1808 1.383 . S
C1814 C1813 1.379 . S
H1815 C1809 0.959 . S
H1816 C1809 0.961 . S
H1817 C1809 0.960 . S
H1818 C1810 0.925 1_565 S
H1819 C1811 0.929 1_655 S
H1820 C1828 0.929 . S
H1821 C1830 0.930 . S
H1822 C1832 0.930 . S
H1823 C1835 0.929 . S
H1824 C1838 0.930 . S
H1825 C1840 0.960 . S
H1826 C1840 0.960 . S
H1827 C1840 0.960 . S
C1828 H1820 0.929 . S
C1828 C1829 1.377 . S
C1828 C1830 1.384 . S
C1829 C1828 1.377 . S
C1829 C1835 1.390 . S
C1830 H1821 0.930 . S
C1830 C1828 1.384 . S
C1830 C1831 1.372 . S
C1831 C1830 1.372 . S
C1831 C1832 1.400 . S
C1831 C1836 1.490 . S
C1832 H1822 0.930 . S
C1832 C1831 1.400 . S
C1832 C1835 1.386 . S
H1833 C1849 0.930 . S
H1834 C1850 0.931 . S
C1835 H1823 0.929 . S
C1835 C1829 1.390 . S
C1835 C1832 1.386 . S
C1836 C1831 1.490 . S
C1836 C1838 1.395 . S
C1836 C1839 1.403 . S
H1837 C1843 0.930 . S
C1838 H1824 0.930 . S
C1838 C1836 1.395 . S
C1838 C1841 1.403 . S
C1839 C1836 1.403 . S
C1839 C1840 1.524 . S
C1839 C1843 1.400 . S
C1840 H1825 0.960 . S
C1840 H1826 0.960 . S
C1840 H1827 0.960 . S
C1840 C1839 1.524 . S
C1841 C1838 1.403 . S
C1841 C1842 1.392 . S
C1841 C1845 1.495 . S
C1842 C1841 1.392 . S
C1842 C1843 1.385 . S
C1842 C1844 1.478 . S
C1843 H1837 0.930 . S
C1843 C1839 1.400 . S
C1843 C1842 1.385 . S
C1844 C1842 1.478 . S
C1844 C1846 1.381 . S
C1844 C1850 1.383 . S
C1845 C1841 1.495 . S
C1845 H1851 0.959 . S
C1845 H1852 0.961 . S
C1845 H1853 0.960 . S
C1846 C1844 1.381 . S
C1846 C1847 1.394 . S
C1846 H1854 0.930 . S
C1847 C1846 1.394 . S
C1847 C1848 1.383 . S
C1847 H1855 0.929 . S
C1848 C1847 1.383 . S
C1848 C1849 1.377 . S
C1849 H1833 0.930 . S
C1849 C1848 1.377 . S
C1849 C1850 1.379 . S
C1850 H1834 0.931 . S
C1850 C1844 1.383 . S
C1850 C1849 1.379 . S
H1851 C1845 0.959 . S
H1852 C1845 0.961 . S
H1853 C1845 0.960 . S
H1854 C1846 0.930 . S
H1855 C1847 0.929 . S
H1856 C1864 0.929 . S
H1857 C1866 0.930 . S
H1858 C1868 0.930 . S
H1859 C1871 0.929 . S
H1860 C1874 0.930 . S
H1861 C1876 0.960 . S
H1862 C1876 0.960 . S
H1863 C1876 0.960 . S
C1864 H1856 0.929 . S
C1864 C1865 1.377 . S
C1864 C1866 1.384 . S
C1865 C1864 1.377 . S
C1865 C1871 1.390 . S
C1866 H1857 0.930 . S
C1866 C1864 1.384 . S
C1866 C1867 1.372 . S
C1867 C1866 1.372 . S
C1867 C1868 1.400 . S
C1867 C1872 1.490 . S
C1868 H1858 0.930 . S
C1868 C1867 1.400 . S
C1868 C1871 1.386 . S
H1869 C1885 0.930 . S
H1870 C1886 0.931 . S
C1871 H1859 0.929 . S
C1871 C1865 1.390 . S
C1871 C1868 1.386 . S
C1872 C1867 1.490 . S
C1872 C1874 1.395 . S
C1872 C1875 1.403 . S
H1873 C1879 0.930 . S
C1874 H1860 0.930 . S
C1874 C1872 1.395 . S
C1874 C1877 1.403 . S
C1875 C1872 1.403 . S
C1875 C1876 1.524 . S
C1875 C1879 1.400 . S
C1876 H1861 0.960 . S
C1876 H1862 0.960 . S
C1876 H1863 0.960 . S
C1876 C1875 1.524 . S
C1877 C1874 1.403 . S
C1877 C1878 1.392 . S
C1877 C1881 1.495 . S
C1878 C1877 1.392 . S
C1878 C1879 1.385 . S
C1878 C1880 1.478 . S
C1879 H1873 0.930 . S
C1879 C1875 1.400 . S
C1879 C1878 1.385 . S
C1880 C1878 1.478 . S
C1880 C1882 1.381 . S
C1880 C1886 1.383 . S
C1881 C1877 1.495 . S
C1881 H1887 0.953 1_545 S
C1881 H1888 0.961 1_545 S
C1881 H1889 0.960 . S
C1882 C1880 1.381 . S
C1882 C1883 1.394 . S
C1882 H1890 0.930 . S
C1883 C1882 1.394 . S
C1883 C1884 1.383 . S
C1883 H1891 0.929 . S
C1884 C1883 1.383 . S
C1884 C1885 1.377 . S
C1885 H1869 0.930 . S
C1885 C1884 1.377 . S
C1885 C1886 1.379 . S
C1886 H1870 0.931 . S
C1886 C1880 1.383 . S
C1886 C1885 1.379 . S
H1887 C1881 0.953 1_565 S
H1888 C1881 0.961 1_565 S
H1889 C1881 0.960 . S
H1890 C1882 0.930 . S
H1891 C1883 0.929 . S
H1892 C1900 0.929 . S
H1893 C1902 0.930 . S
H1894 C1904 0.930 . S
H1895 C1907 0.929 . S
H1896 C1910 0.930 . S
H1897 C1912 0.960 . S
H1898 C1912 0.960 . S
H1899 C1912 0.960 . S
C1900 H1892 0.929 . S
C1900 C1901 1.377 . S
C1900 C1902 1.384 . S
C1901 C1900 1.377 . S
C1901 C1907 1.390 . S
C1902 H1893 0.930 . S
C1902 C1900 1.384 . S
C1902 C1903 1.372 . S
C1903 C1902 1.372 . S
C1903 C1904 1.400 . S
C1903 C1908 1.490 . S
C1904 H1894 0.930 . S
C1904 C1903 1.400 . S
C1904 C1907 1.386 . S
H1905 C1921 0.930 . S
H1906 C1922 0.931 . S
C1907 H1895 0.929 . S
C1907 C1901 1.390 . S
C1907 C1904 1.386 . S
C1908 C1903 1.490 . S
C1908 C1910 1.395 . S
C1908 C1911 1.403 . S
H1909 C1915 0.930 . S
C1910 H1896 0.930 . S
C1910 C1908 1.395 . S
C1910 C1913 1.403 . S
C1911 C1908 1.403 . S
C1911 C1912 1.524 . S
C1911 C1915 1.400 . S
C1912 H1897 0.960 . S
C1912 H1898 0.960 . S
C1912 H1899 0.960 . S
C1912 C1911 1.524 . S
C1913 C1910 1.403 . S
C1913 C1914 1.392 . S
C1913 C1917 1.495 . S
C1914 C1913 1.392 . S
C1914 C1915 1.385 . S
C1914 C1916 1.478 . S
C1915 H1909 0.930 . S
C1915 C1911 1.400 . S
C1915 C1914 1.385 . S
C1916 C1914 1.478 . S
C1916 C1918 1.381 . S
C1916 C1922 1.383 . S
C1917 C1913 1.495 . S
C1917 H1923 0.959 . S
C1917 H1924 0.961 . S
C1917 H1925 0.960 . S
C1918 C1916 1.381 . S
C1918 C1919 1.394 . S
C1918 H1926 0.930 . S
C1919 C1918 1.394 . S
C1919 C1920 1.383 . S
C1919 H1927 0.929 . S
C1920 C1919 1.383 . S
C1920 C1921 1.377 . S
C1921 H1905 0.930 . S
C1921 C1920 1.377 . S
C1921 C1922 1.379 . S
C1922 H1906 0.931 . S
C1922 C1916 1.383 . S
C1922 C1921 1.379 . S
H1923 C1917 0.959 . S
H1924 C1917 0.961 . S
H1925 C1917 0.960 . S
H1926 C1918 0.930 . S
H1927 C1919 0.929 . S
H1928 C1936 0.929 . S
H1929 C1938 0.930 . S
H1930 C1940 0.930 . S
H1931 C1943 0.929 . S
H1932 C1946 0.930 . S
H1933 C1948 0.960 . S
H1934 C1948 0.960 . S
H1935 C1948 0.960 . S
C1936 H1928 0.929 . S
C1936 C1937 1.377 . S
C1936 C1938 1.384 . S
C1937 C1936 1.377 . S
C1937 C1943 1.390 1_565 S
C1938 H1929 0.930 . S
C1938 C1936 1.384 . S
C1938 C1939 1.372 1_565 S
C1939 C1938 1.372 1_545 S
C1939 C1940 1.400 . S
C1939 C1944 1.490 . S
C1940 H1930 0.930 . S
C1940 C1939 1.400 . S
C1940 C1943 1.386 . S
H1941 C1957 0.930 . S
H1942 C1958 0.931 . S
C1943 H1931 0.929 . S
C1943 C1937 1.390 1_545 S
C1943 C1940 1.386 . S
C1944 C1939 1.490 . S
C1944 C1946 1.395 . S
C1944 C1947 1.381 1_545 S
H1945 C1951 0.930 1_565 S
C1946 H1932 0.930 . S
C1946 C1944 1.395 . S
C1946 C1949 1.403 . S
C1947 C1944 1.381 1_565 S
C1947 C1948 1.565 . S
C1947 C1951 1.381 1_565 S
C1948 H1933 0.960 . S
C1948 H1934 0.960 . S
C1948 H1935 0.960 . S
C1948 C1947 1.565 . S
C1949 C1946 1.403 . S
C1949 C1950 1.392 . S
C1949 C1953 1.495 . S
C1950 C1949 1.392 . S
C1950 C1951 1.385 . S
C1950 C1952 1.478 . S
C1951 H1945 0.930 1_545 S
C1951 C1947 1.381 1_545 S
C1951 C1950 1.385 . S
C1952 C1950 1.478 . S
C1952 C1954 1.381 . S
C1952 C1958 1.383 . S
C1953 C1949 1.495 . S
C1953 H1959 0.959 . S
C1953 H1960 0.961 . S
C1953 H1961 0.960 . S
C1954 C1952 1.381 . S
C1954 C1955 1.394 . S
C1954 H1962 0.930 . S
C1955 C1954 1.394 . S
C1955 C1956 1.383 . S
C1955 H1963 0.929 1_455 S
C1956 C1955 1.383 . S
C1956 C1957 1.377 . S
C1957 H1941 0.930 . S
C1957 C1956 1.377 . S
C1957 C1958 1.379 . S
C1958 H1942 0.931 . S
C1958 C1952 1.383 . S
C1958 C1957 1.379 . S
H1959 C1953 0.959 . S
H1960 C1953 0.961 . S
H1961 C1953 0.960 . S
H1962 C1954 0.930 . S
H1963 C1955 0.929 1_655 S
H1964 C1972 0.929 . S
H1965 C1974 0.930 . S
H1966 C1976 0.930 . S
H1967 C1979 0.929 . S
H1968 C1982 0.930 . S
H1969 C1984 0.960 . S
H1970 C1984 0.960 . S
H1971 C1984 0.960 . S
C1972 H1964 0.929 . S
C1972 C1973 1.377 . S
C1972 C1974 1.384 . S
C1973 C1972 1.377 . S
C1973 C1979 1.390 . S
C1974 H1965 0.930 . S
C1974 C1972 1.384 . S
C1974 C1975 1.372 . S
C1975 C1974 1.372 . S
C1975 C1976 1.400 . S
C1975 C1980 1.490 . S
C1976 H1966 0.930 . S
C1976 C1975 1.400 . S
C1976 C1979 1.386 . S
H1977 C1993 0.930 . S
H1978 C1994 0.931 . S
C1979 H1967 0.929 . S
C1979 C1973 1.390 . S
C1979 C1976 1.386 . S
C1980 C1975 1.490 . S
C1980 C1982 1.395 . S
C1980 C1983 1.403 . S
H1981 C1987 0.930 . S
C1982 H1968 0.930 . S
C1982 C1980 1.395 . S
C1982 C1985 1.403 . S
C1983 C1980 1.403 . S
C1983 C1984 1.524 . S
C1983 C1987 1.400 . S
C1984 H1969 0.960 . S
C1984 H1970 0.960 . S
C1984 H1971 0.960 . S
C1984 C1983 1.524 . S
C1985 C1982 1.403 . S
C1985 C1986 1.392 . S
C1985 C1989 1.495 . S
C1986 C1985 1.392 . S
C1986 C1987 1.385 . S
C1986 C1988 1.478 . S
C1987 H1981 0.930 . S
C1987 C1983 1.400 . S
C1987 C1986 1.385 . S
C1988 C1986 1.478 . S
C1988 C1990 1.381 . S
C1988 C1994 1.383 . S
C1989 C1985 1.495 . S
C1989 H1995 0.959 . S
C1989 H1996 0.961 . S
C1989 H1997 0.960 . S
C1990 C1988 1.381 . S
C1990 C1991 1.394 . S
C1990 H1998 0.930 . S
C1991 C1990 1.394 . S
C1991 C1992 1.383 . S
C1991 H1999 0.929 . S
C1992 C1991 1.383 . S
C1992 C1993 1.377 . S
C1993 H1977 0.930 . S
C1993 C1992 1.377 . S
C1993 C1994 1.379 . S
C1994 H1978 0.931 . S
C1994 C1988 1.383 . S
C1994 C1993 1.379 . S
H1995 C1989 0.959 . S
H1996 C1989 0.961 . S
H1997 C1989 0.960 . S
H1998 C1990 0.930 . S
H1999 C1991 0.929 . S
H2000 C2008 0.929 . S
H2001 C2010 0.930 . S
H2002 C2012 0.930 . S
H2003 C2015 0.929 . S
H2004 C2018 0.930 . S
H2005 C2020 0.960 . S
H2006 C2020 0.960 . S
H2007 C2020 0.960 . S
C2008 H2000 0.929 . S
C2008 C2009 1.377 . S
C2008 C2010 1.384 . S
C2009 C2008 1.377 . S
C2009 C2015 1.390 . S
C2010 H2001 0.930 . S
C2010 C2008 1.384 . S
C2010 C2011 1.372 . S
C2011 C2010 1.372 . S
C2011 C2012 1.400 . S
C2011 C2016 1.490 . S
C2012 H2002 0.930 . S
C2012 C2011 1.400 . S
C2012 C2015 1.386 . S
H2013 C2029 0.930 . S
H2014 C2030 0.931 . S
C2015 H2003 0.929 . S
C2015 C2009 1.390 . S
C2015 C2012 1.386 . S
C2016 C2011 1.490 . S
C2016 C2018 1.395 . S
C2016 C2019 1.403 . S
H2017 C2023 0.930 . S
C2018 H2004 0.930 . S
C2018 C2016 1.395 . S
C2018 C2021 1.403 . S
C2019 C2016 1.403 . S
C2019 C2020 1.524 . S
C2019 C2023 1.400 . S
C2020 H2005 0.960 . S
C2020 H2006 0.960 . S
C2020 H2007 0.960 . S
C2020 C2019 1.524 . S
C2021 C2018 1.403 . S
C2021 C2022 1.392 . S
C2021 C2025 1.495 . S
C2022 C2021 1.392 . S
C2022 C2023 1.385 . S
C2022 C2024 1.478 . S
C2023 H2017 0.930 . S
C2023 C2019 1.400 . S
C2023 C2022 1.385 . S
C2024 C2022 1.478 . S
C2024 C2026 1.381 . S
C2024 C2030 1.383 . S
C2025 C2021 1.495 . S
C2025 H2031 0.959 . S
C2025 H2032 0.961 . S
C2025 H2033 0.960 . S
C2026 C2024 1.381 . S
C2026 C2027 1.394 . S
C2026 H2034 0.930 . S
C2027 C2026 1.394 . S
C2027 C2028 1.383 . S
C2027 H2035 0.929 1_545 S
C2028 C2027 1.383 . S
C2028 C2029 1.377 . S
C2029 H2013 0.930 . S
C2029 C2028 1.377 . S
C2029 C2030 1.379 . S
C2030 H2014 0.931 . S
C2030 C2024 1.383 . S
C2030 C2029 1.379 . S
H2031 C2025 0.959 . S
H2032 C2025 0.961 . S
H2033 C2025 0.960 . S
H2034 C2026 0.930 . S
H2035 C2027 0.929 1_565 S
H2036 C2044 0.929 . S
H2037 C2046 0.930 . S
H2038 C2048 0.930 . S
H2039 C2051 0.929 . S
H2040 C2054 0.930 . S
H2041 C2056 0.960 . S
H2042 C2056 0.960 . S
H2043 C2056 0.960 . S
C2044 H2036 0.929 . S
C2044 C2045 1.377 . S
C2044 C2046 1.384 . S
C2045 C2044 1.377 . S
C2045 C2051 1.390 . S
C2046 H2037 0.930 . S
C2046 C2044 1.384 . S
C2046 C2047 1.372 . S
C2047 C2046 1.372 . S
C2047 C2048 1.400 . S
C2047 C2052 1.490 . S
C2048 H2038 0.930 . S
C2048 C2047 1.400 . S
C2048 C2051 1.386 . S
H2049 C2065 0.930 . S
H2050 C2066 0.931 . S
C2051 H2039 0.929 . S
C2051 C2045 1.390 . S
C2051 C2048 1.386 . S
C2052 C2047 1.490 . S
C2052 C2054 1.395 . S
C2052 C2055 1.403 . S
H2053 C2059 0.930 . S
C2054 H2040 0.930 . S
C2054 C2052 1.395 . S
C2054 C2057 1.403 . S
C2055 C2052 1.403 . S
C2055 C2056 1.524 . S
C2055 C2059 1.400 . S
C2056 H2041 0.960 . S
C2056 H2042 0.960 . S
C2056 H2043 0.960 . S
C2056 C2055 1.524 . S
C2057 C2054 1.403 . S
C2057 C2058 1.392 . S
C2057 C2061 1.495 . S
C2058 C2057 1.392 . S
C2058 C2059 1.385 . S
C2058 C2060 1.478 . S
C2059 H2053 0.930 . S
C2059 C2055 1.400 . S
C2059 C2058 1.385 . S
C2060 C2058 1.478 . S
C2060 C2062 1.381 . S
C2060 C2066 1.383 . S
C2061 C2057 1.495 . S
C2061 H2067 0.959 . S
C2061 H2068 0.961 . S
C2061 H2069 0.960 . S
C2062 C2060 1.381 . S
C2062 C2063 1.394 . S
C2062 H2070 0.930 . S
C2063 C2062 1.394 . S
C2063 C2064 1.383 . S
C2063 H2071 0.929 . S
C2064 C2063 1.383 . S
C2064 C2065 1.377 . S
C2065 H2049 0.930 . S
C2065 C2064 1.377 . S
C2065 C2066 1.379 . S
C2066 H2050 0.931 . S
C2066 C2060 1.383 . S
C2066 C2065 1.379 . S
H2067 C2061 0.959 . S
H2068 C2061 0.961 . S
H2069 C2061 0.960 . S
H2070 C2062 0.930 . S
H2071 C2063 0.929 . S
H2072 C2080 0.929 . S
H2073 C2082 0.930 . S
H2074 C2084 0.930 . S
H2075 C2087 0.929 . S
H2076 C2090 0.930 . S
H2077 C2092 0.960 . S
H2078 C2092 0.960 1_556 S
H2079 C2092 0.960 . S
C2080 H2072 0.929 . S
C2080 C2081 1.422 . S
C2080 C2082 1.384 . S
C2081 C2080 1.422 . S
C2081 C2087 1.349 1_556 S
C2082 H2073 0.930 . S
C2082 C2080 1.384 . S
C2082 C2083 1.372 . S
C2083 C2082 1.372 . S
C2083 C2084 1.400 1_556 S
C2083 C2088 1.490 . S
C2084 H2074 0.930 . S
C2084 C2083 1.400 1_554 S
C2084 C2087 1.386 . S
H2085 C2101 0.930 . S
H2086 C2102 0.931 . S
C2087 H2075 0.929 . S
C2087 C2081 1.349 1_554 S
C2087 C2084 1.386 . S
C2088 C2083 1.490 . S
C2088 C2090 1.395 . S
C2088 C2091 1.396 1_556 S
H2089 C2095 0.943 . S
C2090 H2076 0.930 . S
C2090 C2088 1.395 . S
C2090 C2093 1.403 . S
C2091 C2088 1.396 1_554 S
C2091 C2092 1.533 . S
C2091 C2095 1.401 . S
C2092 H2077 0.960 . S
C2092 H2078 0.960 1_554 S
C2092 H2079 0.960 . S
C2092 C2091 1.533 . S
C2093 C2090 1.403 . S
C2093 C2094 1.392 . S
C2093 C2097 1.495 . S
C2094 C2093 1.392 . S
C2094 C2095 1.372 1_556 S
C2094 C2096 1.477 . S
C2095 H2089 0.943 . S
C2095 C2091 1.401 . S
C2095 C2094 1.372 1_554 S
C2096 C2094 1.477 . S
C2096 C2098 1.430 . S
C2096 C2102 1.336 1_556 S
C2097 C2093 1.495 . S
C2097 H2103 0.959 . S
C2097 H2104 0.961 1_556 S
C2097 H2105 0.960 . S
C2098 C2096 1.430 . S
C2098 C2099 1.394 . S
C2098 H2106 0.930 . S
C2099 C2098 1.394 . S
C2099 C2100 1.394 . S
C2099 H2107 0.929 . S
C2100 C2099 1.394 . S
C2100 C2101 1.366 1_556 S
C2101 H2085 0.930 . S
C2101 C2100 1.366 1_554 S
C2101 C2102 1.379 . S
C2102 H2086 0.931 . S
C2102 C2096 1.336 1_554 S
C2102 C2101 1.379 . S
H2103 C2097 0.959 . S
H2104 C2097 0.961 1_554 S
H2105 C2097 0.960 . S
H2106 C2098 0.930 . S
H2107 C2099 0.929 . S
H2108 C2116 0.929 . S
H2109 C2118 0.965 . S
H2110 C2120 0.930 . S
H2111 C2123 0.929 . S
H2112 C2126 0.930 . S
H2113 C2128 0.960 . S
H2114 C2128 0.960 . S
H2115 C2128 0.960 . S
C2116 H2108 0.929 . S
C2116 C2117 1.377 . S
C2116 C2118 1.384 . S
C2117 C2116 1.377 . S
C2117 C2123 1.390 . S
C2118 H2109 0.965 . S
C2118 C2116 1.384 . S
C2118 C2119 1.372 . S
C2119 C2118 1.372 . S
C2119 C2120 1.400 . S
C2119 C2124 1.490 . S
C2120 H2110 0.930 . S
C2120 C2119 1.400 . S
C2120 C2123 1.386 . S
H2121 C2137 0.930 . S
H2122 C2138 0.931 . S
C2123 H2111 0.929 . S
C2123 C2117 1.390 . S
C2123 C2120 1.386 . S
C2124 C2119 1.490 . S
C2124 C2126 1.395 . S
C2124 C2127 1.403 . S
H2125 C2131 0.930 . S
C2126 H2112 0.930 . S
C2126 C2124 1.395 . S
C2126 C2129 1.403 . S
C2127 C2124 1.403 . S
C2127 C2128 1.524 . S
C2127 C2131 1.400 . S
C2128 H2113 0.960 . S
C2128 H2114 0.960 . S
C2128 H2115 0.960 . S
C2128 C2127 1.524 . S
C2129 C2126 1.403 . S
C2129 C2130 1.392 . S
C2129 C2133 1.495 . S
C2130 C2129 1.392 . S
C2130 C2131 1.385 . S
C2130 C2132 1.478 . S
C2131 H2125 0.930 . S
C2131 C2127 1.400 . S
C2131 C2130 1.385 . S
C2132 C2130 1.478 . S
C2132 C2134 1.381 . S
C2132 C2138 1.383 . S
C2133 C2129 1.495 . S
C2133 H2139 0.959 . S
C2133 H2140 0.961 . S
C2133 H2141 0.960 . S
C2134 C2132 1.381 . S
C2134 C2135 1.394 . S
C2134 H2142 0.930 1_554 S
C2135 C2134 1.394 . S
C2135 C2136 1.383 . S
C2135 H2143 0.929 1_554 S
C2136 C2135 1.383 . S
C2136 C2137 1.377 . S
C2137 H2121 0.930 . S
C2137 C2136 1.377 . S
C2137 C2138 1.379 . S
C2138 H2122 0.931 . S
C2138 C2132 1.383 . S
C2138 C2137 1.379 . S
H2139 C2133 0.959 . S
H2140 C2133 0.961 . S
H2141 C2133 0.960 . S
H2142 C2134 0.930 1_556 S
H2143 C2135 0.929 1_556 S
H2144 C2152 0.929 . S
H2145 C2154 0.930 . S
H2146 C2156 0.930 . S
H2147 C2159 0.929 . S
H2148 C2162 0.930 . S
H2149 C2164 0.960 . S
H2150 C2164 0.960 . S
H2151 C2164 0.960 . S
C2152 H2144 0.929 . S
C2152 C2153 1.377 . S
C2152 C2154 1.384 . S
C2153 C2152 1.377 . S
C2153 C2159 1.390 . S
C2154 H2145 0.930 . S
C2154 C2152 1.384 . S
C2154 C2155 1.372 . S
C2155 C2154 1.372 . S
C2155 C2156 1.400 . S
C2155 C2160 1.490 . S
C2156 H2146 0.930 . S
C2156 C2155 1.400 . S
C2156 C2159 1.386 . S
H2157 C2173 0.930 . S
H2158 C2174 0.931 . S
C2159 H2147 0.929 . S
C2159 C2153 1.390 . S
C2159 C2156 1.386 . S
C2160 C2155 1.490 . S
C2160 C2162 1.395 . S
C2160 C2163 1.403 . S
H2161 C2167 0.930 . S
C2162 H2148 0.930 . S
C2162 C2160 1.395 . S
C2162 C2165 1.403 . S
C2163 C2160 1.403 . S
C2163 C2164 1.524 . S
C2163 C2167 1.400 . S
C2164 H2149 0.960 . S
C2164 H2150 0.960 . S
C2164 H2151 0.960 . S
C2164 C2163 1.524 . S
C2165 C2162 1.403 . S
C2165 C2166 1.392 . S
C2165 C2169 1.495 . S
C2166 C2165 1.392 . S
C2166 C2167 1.385 . S
C2166 C2168 1.478 . S
C2167 H2161 0.930 . S
C2167 C2163 1.400 . S
C2167 C2166 1.385 . S
C2168 C2166 1.478 . S
C2168 C2170 1.381 . S
C2168 C2174 1.383 . S
C2169 C2165 1.495 . S
C2169 H2175 0.959 . S
C2169 H2176 0.961 . S
C2169 H2177 0.960 . S
C2170 C2168 1.381 . S
C2170 C2171 1.394 . S
C2170 H2178 0.930 . S
C2171 C2170 1.394 . S
C2171 C2172 1.383 . S
C2171 H2179 0.929 . S
C2172 C2171 1.383 . S
C2172 C2173 1.377 . S
C2173 H2157 0.930 . S
C2173 C2172 1.377 . S
C2173 C2174 1.379 . S
C2174 H2158 0.931 . S
C2174 C2168 1.383 . S
C2174 C2173 1.379 . S
H2175 C2169 0.959 . S
H2176 C2169 0.961 . S
H2177 C2169 0.960 . S
H2178 C2170 0.930 . S
H2179 C2171 0.929 . S
H2180 C2188 0.929 . S
H2181 C2190 0.930 . S
H2182 C2192 0.930 . S
H2183 C2195 0.929 . S
H2184 C2198 0.930 . S
H2185 C2200 0.960 . S
H2186 C2200 0.960 . S
H2187 C2200 0.960 . S
C2188 H2180 0.929 . S
C2188 C2189 1.377 . S
C2188 C2190 1.384 . S
C2189 C2188 1.377 . S
C2189 C2195 1.390 . S
C2190 H2181 0.930 . S
C2190 C2188 1.384 . S
C2190 C2191 1.372 . S
C2191 C2190 1.372 . S
C2191 C2192 1.400 . S
C2191 C2196 1.490 . S
C2192 H2182 0.930 . S
C2192 C2191 1.400 . S
C2192 C2195 1.386 . S
H2193 C2209 0.930 . S
H2194 C2210 0.931 . S
C2195 H2183 0.929 . S
C2195 C2189 1.390 . S
C2195 C2192 1.386 . S
C2196 C2191 1.490 . S
C2196 C2198 1.395 . S
C2196 C2199 1.403 . S
H2197 C2203 0.930 . S
C2198 H2184 0.930 . S
C2198 C2196 1.395 . S
C2198 C2201 1.403 . S
C2199 C2196 1.403 . S
C2199 C2200 1.524 . S
C2199 C2203 1.400 . S
C2200 H2185 0.960 . S
C2200 H2186 0.960 . S
C2200 H2187 0.960 . S
C2200 C2199 1.524 . S
C2201 C2198 1.403 . S
C2201 C2202 1.392 . S
C2201 C2205 1.495 . S
C2202 C2201 1.392 . S
C2202 C2203 1.385 . S
C2202 C2204 1.478 . S
C2203 H2197 0.930 . S
C2203 C2199 1.400 . S
C2203 C2202 1.385 . S
C2204 C2202 1.478 . S
C2204 C2206 1.381 . S
C2204 C2210 1.383 . S
C2205 C2201 1.495 . S
C2205 H2211 0.959 . S
C2205 H2212 0.961 . S
C2205 H2213 0.960 . S
C2206 C2204 1.381 . S
C2206 C2207 1.394 . S
C2206 H2214 0.930 . S
C2207 C2206 1.394 . S
C2207 C2208 1.383 . S
C2207 H2215 0.929 . S
C2208 C2207 1.383 . S
C2208 C2209 1.377 . S
C2209 H2193 0.930 . S
C2209 C2208 1.377 . S
C2209 C2210 1.379 . S
C2210 H2194 0.931 . S
C2210 C2204 1.383 . S
C2210 C2209 1.379 . S
H2211 C2205 0.959 . S
H2212 C2205 0.961 . S
H2213 C2205 0.960 . S
H2214 C2206 0.930 . S
H2215 C2207 0.929 . S
H2216 C2224 0.929 . S
H2217 C2226 0.930 . S
H2218 C2228 0.930 . S
H2219 C2231 0.929 . S
H2220 C2234 0.930 . S
H2221 C2236 0.960 . S
H2222 C2236 0.960 . S
H2223 C2236 0.960 . S
C2224 H2216 0.929 . S
C2224 C2225 1.377 . S
C2224 C2226 1.384 . S
C2225 C2224 1.377 . S
C2225 C2231 1.390 . S
C2226 H2217 0.930 . S
C2226 C2224 1.384 . S
C2226 C2227 1.372 . S
C2227 C2226 1.372 . S
C2227 C2228 1.400 . S
C2227 C2232 1.490 . S
C2228 H2218 0.930 . S
C2228 C2227 1.400 . S
C2228 C2231 1.386 . S
H2229 C2245 0.930 . S
H2230 C2246 0.931 . S
C2231 H2219 0.929 . S
C2231 C2225 1.390 . S
C2231 C2228 1.386 . S
C2232 C2227 1.490 . S
C2232 C2234 1.395 . S
C2232 C2235 1.403 . S
H2233 C2239 0.930 . S
C2234 H2220 0.930 . S
C2234 C2232 1.395 . S
C2234 C2237 1.403 . S
C2235 C2232 1.403 . S
C2235 C2236 1.524 . S
C2235 C2239 1.400 . S
C2236 H2221 0.960 . S
C2236 H2222 0.960 . S
C2236 H2223 0.960 . S
C2236 C2235 1.524 . S
C2237 C2234 1.403 . S
C2237 C2238 1.392 . S
C2237 C2241 1.495 . S
C2238 C2237 1.392 . S
C2238 C2239 1.385 . S
C2238 C2240 1.478 . S
C2239 H2233 0.930 . S
C2239 C2235 1.400 . S
C2239 C2238 1.385 . S
C2240 C2238 1.478 . S
C2240 C2242 1.381 . S
C2240 C2246 1.383 . S
C2241 C2237 1.495 . S
C2241 H2247 0.959 . S
C2241 H2248 0.961 . S
C2241 H2249 0.960 . S
C2242 C2240 1.381 . S
C2242 C2243 1.394 . S
C2242 H2250 0.930 . S
C2243 C2242 1.394 . S
C2243 C2244 1.383 . S
C2243 H2251 0.929 . S
C2244 C2243 1.383 . S
C2244 C2245 1.377 . S
C2245 H2229 0.930 . S
C2245 C2244 1.377 . S
C2245 C2246 1.379 . S
C2246 H2230 0.931 . S
C2246 C2240 1.383 . S
C2246 C2245 1.379 . S
H2247 C2241 0.959 . S
H2248 C2241 0.961 . S
H2249 C2241 0.960 . S
H2250 C2242 0.930 . S
H2251 C2243 0.929 . S
H2252 C2260 0.929 . S
H2253 C2262 0.930 . S
H2254 C2264 0.930 . S
H2255 C2267 0.929 . S
H2256 C2270 0.930 . S
H2257 C2272 0.960 . S
H2258 C2272 0.960 . S
H2259 C2272 0.960 . S
C2260 H2252 0.929 . S
C2260 C2261 1.377 . S
C2260 C2262 1.384 . S
C2261 C2260 1.377 . S
C2261 C2267 1.390 . S
C2262 H2253 0.930 . S
C2262 C2260 1.384 . S
C2262 C2263 1.372 . S
C2263 C2262 1.372 . S
C2263 C2264 1.400 . S
C2263 C2268 1.490 . S
C2264 H2254 0.930 . S
C2264 C2263 1.400 . S
C2264 C2267 1.386 . S
H2265 C2281 0.930 . S
H2266 C2282 0.931 . S
C2267 H2255 0.929 . S
C2267 C2261 1.390 . S
C2267 C2264 1.386 . S
C2268 C2263 1.490 . S
C2268 C2270 1.395 . S
C2268 C2271 1.403 . S
H2269 C2275 0.930 . S
C2270 H2256 0.930 . S
C2270 C2268 1.395 . S
C2270 C2273 1.403 . S
C2271 C2268 1.403 . S
C2271 C2272 1.524 . S
C2271 C2275 1.400 . S
C2272 H2257 0.960 . S
C2272 H2258 0.960 . S
C2272 H2259 0.960 . S
C2272 C2271 1.524 . S
C2273 C2270 1.403 . S
C2273 C2274 1.392 . S
C2273 C2277 1.495 . S
C2274 C2273 1.392 . S
C2274 C2275 1.385 . S
C2274 C2276 1.478 . S
C2275 H2269 0.930 . S
C2275 C2271 1.400 . S
C2275 C2274 1.385 . S
C2276 C2274 1.478 . S
C2276 C2278 1.381 . S
C2276 C2282 1.383 . S
C2277 C2273 1.495 . S
C2277 H2283 0.959 . S
C2277 H2284 0.961 . S
C2277 H2285 0.960 . S
C2278 C2276 1.381 . S
C2278 C2279 1.394 . S
C2278 H2286 0.930 . S
C2279 C2278 1.394 . S
C2279 C2280 1.377 1_565 S
C2279 H2287 0.929 1_565 S
C2280 C2279 1.377 1_545 S
C2280 C2281 1.363 1_545 S
C2281 H2265 0.930 . S
C2281 C2280 1.363 1_565 S
C2281 C2282 1.379 . S
C2282 H2266 0.931 . S
C2282 C2276 1.383 . S
C2282 C2281 1.379 . S
H2283 C2277 0.959 . S
H2284 C2277 0.961 . S
H2285 C2277 0.960 . S
H2286 C2278 0.930 . S
H2287 C2279 0.929 1_545 S
H2288 C2296 0.929 . S
H2289 C2298 0.930 . S
H2290 C2300 0.930 . S
H2291 C2303 0.929 . S
H2292 C2306 0.930 . S
H2293 C2308 0.960 . S
H2294 C2308 0.960 . S
H2295 C2308 0.960 . S
C2296 H2288 0.929 . S
C2296 C2297 1.377 . S
C2296 C2298 1.384 . S
C2297 C2296 1.377 . S
C2297 C2303 1.390 . S
C2298 H2289 0.930 . S
C2298 C2296 1.384 . S
C2298 C2299 1.372 . S
C2299 C2298 1.372 . S
C2299 C2300 1.400 . S
C2299 C2304 1.490 . S
C2300 H2290 0.930 . S
C2300 C2299 1.400 . S
C2300 C2303 1.386 . S
H2301 C2317 0.930 . S
H2302 C2318 0.931 . S
C2303 H2291 0.929 . S
C2303 C2297 1.390 . S
C2303 C2300 1.386 . S
C2304 C2299 1.490 . S
C2304 C2306 1.395 . S
C2304 C2307 1.403 . S
H2305 C2311 0.930 . S
C2306 H2292 0.930 . S
C2306 C2304 1.395 . S
C2306 C2309 1.403 . S
C2307 C2304 1.403 . S
C2307 C2308 1.524 . S
C2307 C2311 1.400 . S
C2308 H2293 0.960 . S
C2308 H2294 0.960 . S
C2308 H2295 0.960 . S
C2308 C2307 1.524 . S
C2309 C2306 1.403 . S
C2309 C2310 1.392 . S
C2309 C2313 1.495 . S
C2310 C2309 1.392 . S
C2310 C2311 1.385 . S
C2310 C2312 1.478 . S
C2311 H2305 0.930 . S
C2311 C2307 1.400 . S
C2311 C2310 1.385 . S
C2312 C2310 1.478 . S
C2312 C2314 1.381 . S
C2312 C2318 1.383 . S
C2313 C2309 1.495 . S
C2313 H2319 0.959 . S
C2313 H2320 0.961 . S
C2313 H2321 0.960 . S
C2314 C2312 1.381 . S
C2314 C2315 1.394 . S
C2314 H2322 0.930 . S
C2315 C2314 1.394 . S
C2315 C2316 1.383 . S
C2315 H2323 0.929 . S
C2316 C2315 1.383 . S
C2316 C2317 1.377 . S
C2317 H2301 0.930 . S
C2317 C2316 1.377 . S
C2317 C2318 1.379 . S
C2318 H2302 0.931 . S
C2318 C2312 1.383 . S
C2318 C2317 1.379 . S
H2319 C2313 0.959 . S
H2320 C2313 0.961 . S
H2321 C2313 0.960 . S
H2322 C2314 0.930 . S
H2323 C2315 0.929 . S
H2324 C2332 0.929 . S
H2325 C2334 0.930 . S
H2326 C2336 0.930 . S
H2327 C2339 0.929 . S
H2328 C2342 0.930 . S
H2329 C2344 0.960 . S
H2330 C2344 0.960 . S
H2331 C2344 0.960 . S
C2332 H2324 0.929 . S
C2332 C2333 1.377 . S
C2332 C2334 1.384 . S
C2333 C2332 1.377 . S
C2333 C2339 1.390 . S
C2334 H2325 0.930 . S
C2334 C2332 1.384 . S
C2334 C2335 1.372 . S
C2335 C2334 1.372 . S
C2335 C2336 1.400 . S
C2335 C2340 1.490 . S
C2336 H2326 0.930 . S
C2336 C2335 1.400 . S
C2336 C2339 1.386 . S
H2337 C2353 0.930 . S
H2338 C2354 0.931 . S
C2339 H2327 0.929 . S
C2339 C2333 1.390 . S
C2339 C2336 1.386 . S
C2340 C2335 1.490 . S
C2340 C2342 1.395 . S
C2340 C2343 1.403 . S
H2341 C2347 0.930 . S
C2342 H2328 0.930 . S
C2342 C2340 1.395 . S
C2342 C2345 1.403 . S
C2343 C2340 1.403 . S
C2343 C2344 1.524 . S
C2343 C2347 1.400 . S
C2344 H2329 0.960 . S
C2344 H2330 0.960 . S
C2344 H2331 0.960 . S
C2344 C2343 1.524 . S
C2345 C2342 1.403 . S
C2345 C2346 1.392 . S
C2345 C2349 1.495 . S
C2346 C2345 1.392 . S
C2346 C2347 1.385 . S
C2346 C2348 1.478 . S
C2347 H2341 0.930 . S
C2347 C2343 1.400 . S
C2347 C2346 1.385 . S
C2348 C2346 1.478 . S
C2348 C2350 1.381 . S
C2348 C2354 1.383 . S
C2349 C2345 1.495 . S
C2349 H2355 0.959 . S
C2349 H2356 0.961 . S
C2349 H2357 0.960 . S
C2350 C2348 1.381 . S
C2350 C2351 1.394 . S
C2350 H2358 0.930 . S
C2351 C2350 1.394 . S
C2351 C2352 1.383 . S
C2351 H2359 0.929 . S
C2352 C2351 1.383 . S
C2352 C2353 1.377 . S
C2353 H2337 0.930 . S
C2353 C2352 1.377 . S
C2353 C2354 1.379 . S
C2354 H2338 0.931 . S
C2354 C2348 1.383 . S
C2354 C2353 1.379 . S
H2355 C2349 0.959 . S
H2356 C2349 0.961 . S
H2357 C2349 0.960 . S
H2358 C2350 0.930 . S
H2359 C2351 0.929 . S
H2360 C2368 0.929 . S
H2361 C2370 0.930 . S
H2362 C2372 0.930 . S
H2363 C2375 0.929 . S
H2364 C2378 0.930 . S
H2365 C2380 0.960 . S
H2366 C2380 0.960 . S
H2367 C2380 0.960 . S
C2368 H2360 0.929 . S
C2368 C2369 1.377 . S
C2368 C2370 1.384 . S
C2369 C2368 1.377 . S
C2369 C2375 1.390 . S
C2370 H2361 0.930 . S
C2370 C2368 1.384 . S
C2370 C2371 1.372 . S
C2371 C2370 1.372 . S
C2371 C2372 1.400 . S
C2371 C2376 1.490 . S
C2372 H2362 0.930 . S
C2372 C2371 1.400 . S
C2372 C2375 1.386 . S
H2373 C2389 0.930 . S
H2374 C2390 0.931 . S
C2375 H2363 0.929 . S
C2375 C2369 1.390 . S
C2375 C2372 1.386 . S
C2376 C2371 1.490 . S
C2376 C2378 1.395 . S
C2376 C2379 1.403 . S
H2377 C2383 0.930 . S
C2378 H2364 0.930 . S
C2378 C2376 1.395 . S
C2378 C2381 1.403 . S
C2379 C2376 1.403 . S
C2379 C2380 1.524 . S
C2379 C2383 1.400 . S
C2380 H2365 0.960 . S
C2380 H2366 0.960 . S
C2380 H2367 0.960 . S
C2380 C2379 1.524 . S
C2381 C2378 1.403 . S
C2381 C2382 1.392 . S
C2381 C2385 1.495 . S
C2382 C2381 1.392 . S
C2382 C2383 1.385 . S
C2382 C2384 1.478 . S
C2383 H2377 0.930 . S
C2383 C2379 1.400 . S
C2383 C2382 1.385 . S
C2384 C2382 1.478 . S
C2384 C2386 1.381 . S
C2384 C2390 1.383 . S
C2385 C2381 1.495 . S
C2385 H2391 0.959 . S
C2385 H2392 0.961 . S
C2385 H2393 0.960 . S
C2386 C2384 1.381 . S
C2386 C2387 1.394 . S
C2386 H2394 0.930 . S
C2387 C2386 1.394 . S
C2387 C2388 1.383 . S
C2387 H2395 0.929 . S
C2388 C2387 1.383 . S
C2388 C2389 1.377 . S
C2389 H2373 0.930 . S
C2389 C2388 1.377 . S
C2389 C2390 1.379 . S
C2390 H2374 0.931 . S
C2390 C2384 1.383 . S
C2390 C2389 1.379 . S
H2391 C2385 0.959 . S
H2392 C2385 0.961 . S
H2393 C2385 0.960 . S
H2394 C2386 0.930 . S
H2395 C2387 0.929 . S
H2396 C2404 0.929 . S
H2397 C2406 0.930 . S
H2398 C2408 0.930 . S
H2399 C2411 0.929 . S
H2400 C2414 0.930 . S
H2401 C2416 0.960 . S
H2402 C2416 0.960 . S
H2403 C2416 0.960 . S
C2404 H2396 0.929 . S
C2404 C2405 1.377 . S
C2404 C2406 1.384 . S
C2405 C2404 1.377 . S
C2405 C2411 1.390 . S
C2406 H2397 0.930 . S
C2406 C2404 1.384 . S
C2406 C2407 1.372 . S
C2407 C2406 1.372 . S
C2407 C2408 1.400 . S
C2407 C2412 1.490 . S
C2408 H2398 0.930 . S
C2408 C2407 1.400 . S
C2408 C2411 1.386 . S
H2409 C2425 0.930 . S
H2410 C2426 0.931 . S
C2411 H2399 0.929 . S
C2411 C2405 1.390 . S
C2411 C2408 1.386 . S
C2412 C2407 1.490 . S
C2412 C2414 1.395 . S
C2412 C2415 1.403 . S
H2413 C2419 0.930 . S
C2414 H2400 0.930 . S
C2414 C2412 1.395 . S
C2414 C2417 1.403 . S
C2415 C2412 1.403 . S
C2415 C2416 1.524 . S
C2415 C2419 1.400 . S
C2416 H2401 0.960 . S
C2416 H2402 0.960 . S
C2416 H2403 0.960 . S
C2416 C2415 1.524 . S
C2417 C2414 1.403 . S
C2417 C2418 1.392 . S
C2417 C2421 1.495 . S
C2418 C2417 1.392 . S
C2418 C2419 1.385 . S
C2418 C2420 1.478 . S
C2419 H2413 0.930 . S
C2419 C2415 1.400 . S
C2419 C2418 1.385 . S
C2420 C2418 1.478 . S
C2420 C2422 1.381 . S
C2420 C2426 1.383 . S
C2421 C2417 1.495 . S
C2421 H2427 0.959 . S
C2421 H2428 0.961 . S
C2421 H2429 0.960 . S
C2422 C2420 1.381 . S
C2422 C2423 1.394 . S
C2422 H2430 0.930 . S
C2423 C2422 1.394 . S
C2423 C2424 1.383 . S
C2423 H2431 0.929 . S
C2424 C2423 1.383 . S
C2424 C2425 1.377 . S
C2425 H2409 0.930 . S
C2425 C2424 1.377 . S
C2425 C2426 1.379 . S
C2426 H2410 0.931 . S
C2426 C2420 1.383 . S
C2426 C2425 1.379 . S
H2427 C2421 0.959 . S
H2428 C2421 0.961 . S
H2429 C2421 0.960 . S
H2430 C2422 0.930 . S
H2431 C2423 0.929 . S
H2432 C2440 0.929 . S
H2433 C2442 0.930 . S
H2434 C2444 0.930 . S
H2435 C2447 0.929 . S
H2436 C2450 0.930 . S
H2437 C2452 0.960 . S
H2438 C2452 0.960 . S
H2439 C2452 0.960 1_655 S
C2440 H2432 0.929 . S
C2440 C2441 1.377 . S
C2440 C2442 1.384 . S
C2441 C2440 1.377 . S
C2441 C2447 1.390 1_455 S
C2442 H2433 0.930 . S
C2442 C2440 1.384 . S
C2442 C2443 1.372 . S
C2443 C2442 1.372 . S
C2443 C2444 1.400 1_455 S
C2443 C2448 1.490 . S
C2444 H2434 0.930 . S
C2444 C2443 1.400 1_655 S
C2444 C2447 1.386 . S
H2445 C2461 0.930 . S
H2446 C2462 0.931 . S
C2447 H2435 0.929 . S
C2447 C2441 1.390 1_655 S
C2447 C2444 1.386 . S
C2448 C2443 1.490 . S
C2448 C2450 1.395 . S
C2448 C2451 1.403 . S
H2449 C2455 0.930 . S
C2450 H2436 0.930 . S
C2450 C2448 1.395 . S
C2450 C2453 1.403 . S
C2451 C2448 1.403 . S
C2451 C2452 1.524 . S
C2451 C2455 1.400 . S
C2452 H2437 0.960 . S
C2452 H2438 0.960 . S
C2452 H2439 0.960 1_455 S
C2452 C2451 1.524 . S
C2453 C2450 1.403 . S
C2453 C2454 1.392 . S
C2453 C2457 1.495 . S
C2454 C2453 1.392 . S
C2454 C2455 1.385 . S
C2454 C2456 1.478 . S
C2455 H2449 0.930 . S
C2455 C2451 1.400 . S
C2455 C2454 1.385 . S
C2456 C2454 1.478 . S
C2456 C2458 1.381 . S
C2456 C2462 1.383 1_455 S
C2457 C2453 1.495 . S
C2457 H2463 0.959 . S
C2457 H2464 0.961 . S
C2457 H2465 0.960 . S
C2458 C2456 1.381 . S
C2458 C2459 1.394 . S
C2458 H2466 0.930 . S
C2459 C2458 1.394 . S
C2459 C2460 1.383 . S
C2459 H2467 0.929 . S
C2460 C2459 1.383 . S
C2460 C2461 1.377 1_455 S
C2461 H2445 0.930 . S
C2461 C2460 1.377 1_655 S
C2461 C2462 1.379 . S
C2462 H2446 0.931 . S
C2462 C2456 1.383 1_655 S
C2462 C2461 1.379 . S
H2463 C2457 0.959 . S
H2464 C2457 0.961 . S
H2465 C2457 0.960 . S
H2466 C2458 0.930 . S
H2467 C2459 0.929 . S
H2468 C2476 0.929 . S
H2469 C2478 0.930 . S
H2470 C2480 0.930 . S
H2471 C2483 0.929 . S
H2472 C2486 0.930 . S
H2473 C2488 0.960 . S
H2474 C2488 0.960 . S
H2475 C2488 0.960 . S
C2476 H2468 0.929 . S
C2476 C2477 1.377 . S
C2476 C2478 1.384 . S
C2477 C2476 1.377 . S
C2477 C2483 1.390 . S
C2478 H2469 0.930 . S
C2478 C2476 1.384 . S
C2478 C2479 1.372 . S
C2479 C2478 1.372 . S
C2479 C2480 1.400 . S
C2479 C2484 1.490 . S
C2480 H2470 0.930 . S
C2480 C2479 1.400 . S
C2480 C2483 1.386 . S
H2481 C2497 0.930 . S
H2482 C2498 0.931 . S
C2483 H2471 0.929 . S
C2483 C2477 1.390 . S
C2483 C2480 1.386 . S
C2484 C2479 1.490 . S
C2484 C2486 1.395 . S
C2484 C2487 1.403 . S
H2485 C2491 0.930 . S
C2486 H2472 0.930 . S
C2486 C2484 1.395 . S
C2486 C2489 1.403 . S
C2487 C2484 1.403 . S
C2487 C2488 1.524 . S
C2487 C2491 1.400 . S
C2488 H2473 0.960 . S
C2488 H2474 0.960 . S
C2488 H2475 0.960 . S
C2488 C2487 1.524 . S
C2489 C2486 1.403 . S
C2489 C2490 1.392 . S
C2489 C2493 1.495 . S
C2490 C2489 1.392 . S
C2490 C2491 1.385 . S
C2490 C2492 1.478 . S
C2491 H2485 0.930 . S
C2491 C2487 1.400 . S
C2491 C2490 1.385 . S
C2492 C2490 1.478 . S
C2492 C2494 1.381 . S
C2492 C2498 1.383 . S
C2493 C2489 1.495 . S
C2493 H2499 0.959 . S
C2493 H2500 0.961 . S
C2493 H2501 0.960 . S
C2494 C2492 1.381 . S
C2494 C2495 1.394 . S
C2494 H2502 0.930 . S
C2495 C2494 1.394 . S
C2495 C2496 1.383 . S
C2495 H2503 0.929 . S
C2496 C2495 1.383 . S
C2496 C2497 1.377 . S
C2497 H2481 0.930 . S
C2497 C2496 1.377 . S
C2497 C2498 1.379 . S
C2498 H2482 0.931 . S
C2498 C2492 1.383 . S
C2498 C2497 1.379 . S
H2499 C2493 0.959 . S
H2500 C2493 0.961 . S
H2501 C2493 0.960 . S
H2502 C2494 0.930 . S
H2503 C2495 0.929 . S
H2504 C2512 0.929 . S
H2505 C2514 0.930 . S
H2506 C2516 0.930 . S
H2507 C2519 0.929 . S
H2508 C2522 0.930 . S
H2509 C2524 0.960 . S
H2510 C2524 0.960 . S
H2511 C2524 0.960 . S
C2512 H2504 0.929 . S
C2512 C2513 1.377 . S
C2512 C2514 1.384 . S
C2513 C2512 1.377 . S
C2513 C2519 1.390 . S
C2514 H2505 0.930 . S
C2514 C2512 1.384 . S
C2514 C2515 1.372 . S
C2515 C2514 1.372 . S
C2515 C2516 1.400 . S
C2515 C2520 1.490 . S
C2516 H2506 0.930 . S
C2516 C2515 1.400 . S
C2516 C2519 1.386 . S
H2517 C2533 0.930 . S
H2518 C2534 0.931 . S
C2519 H2507 0.929 . S
C2519 C2513 1.390 . S
C2519 C2516 1.386 . S
C2520 C2515 1.490 . S
C2520 C2522 1.395 . S
C2520 C2523 1.403 . S
H2521 C2527 0.930 . S
C2522 H2508 0.930 . S
C2522 C2520 1.395 . S
C2522 C2525 1.403 . S
C2523 C2520 1.403 . S
C2523 C2524 1.524 . S
C2523 C2527 1.400 . S
C2524 H2509 0.960 . S
C2524 H2510 0.960 . S
C2524 H2511 0.960 . S
C2524 C2523 1.524 . S
C2525 C2522 1.403 . S
C2525 C2526 1.392 . S
C2525 C2529 1.495 . S
C2526 C2525 1.392 . S
C2526 C2527 1.385 . S
C2526 C2528 1.478 . S
C2527 H2521 0.930 . S
C2527 C2523 1.400 . S
C2527 C2526 1.385 . S
C2528 C2526 1.478 . S
C2528 C2530 1.381 . S
C2528 C2534 1.383 . S
C2529 C2525 1.495 . S
C2529 H2535 0.959 . S
C2529 H2536 0.961 . S
C2529 H2537 0.960 . S
C2530 C2528 1.381 . S
C2530 C2531 1.394 . S
C2530 H2538 0.930 . S
C2531 C2530 1.394 . S
C2531 C2532 1.383 . S
C2531 H2539 0.929 . S
C2532 C2531 1.383 . S
C2532 C2533 1.377 . S
C2533 H2517 0.930 . S
C2533 C2532 1.377 . S
C2533 C2534 1.379 . S
C2534 H2518 0.931 . S
C2534 C2528 1.383 . S
C2534 C2533 1.379 . S
H2535 C2529 0.959 . S
H2536 C2529 0.961 . S
H2537 C2529 0.960 . S
H2538 C2530 0.930 . S
H2539 C2531 0.929 . S
H2540 C2548 0.929 . S
H2541 C2550 0.930 . S
H2542 C2552 0.930 . S
H2543 C2555 0.929 . S
H2544 C2558 0.930 . S
H2545 C2560 0.960 . S
H2546 C2560 0.960 . S
H2547 C2560 0.960 . S
C2548 H2540 0.929 . S
C2548 C2549 1.377 . S
C2548 C2550 1.384 . S
C2549 C2548 1.377 . S
C2549 C2555 1.390 . S
C2550 H2541 0.930 . S
C2550 C2548 1.384 . S
C2550 C2551 1.372 . S
C2551 C2550 1.372 . S
C2551 C2552 1.400 . S
C2551 C2556 1.490 . S
C2552 H2542 0.930 . S
C2552 C2551 1.400 . S
C2552 C2555 1.386 . S
H2553 C2569 0.930 . S
H2554 C2570 0.931 . S
C2555 H2543 0.929 . S
C2555 C2549 1.390 . S
C2555 C2552 1.386 . S
C2556 C2551 1.490 . S
C2556 C2558 1.395 . S
C2556 C2559 1.403 . S
H2557 C2563 0.930 . S
C2558 H2544 0.930 . S
C2558 C2556 1.395 . S
C2558 C2561 1.403 . S
C2559 C2556 1.403 . S
C2559 C2560 1.524 . S
C2559 C2563 1.400 . S
C2560 H2545 0.960 . S
C2560 H2546 0.960 . S
C2560 H2547 0.960 . S
C2560 C2559 1.524 . S
C2561 C2558 1.403 . S
C2561 C2562 1.392 . S
C2561 C2565 1.495 . S
C2562 C2561 1.392 . S
C2562 C2563 1.385 . S
C2562 C2564 1.478 . S
C2563 H2557 0.930 . S
C2563 C2559 1.400 . S
C2563 C2562 1.385 . S
C2564 C2562 1.478 . S
C2564 C2566 1.381 . S
C2564 C2570 1.383 . S
C2565 C2561 1.495 . S
C2565 H2571 0.959 . S
C2565 H2572 0.961 . S
C2565 H2573 0.960 . S
C2566 C2564 1.381 . S
C2566 C2567 1.394 . S
C2566 H2574 0.930 . S
C2567 C2566 1.394 . S
C2567 C2568 1.383 . S
C2567 H2575 0.929 . S
C2568 C2567 1.383 . S
C2568 C2569 1.377 . S
C2569 H2553 0.930 . S
C2569 C2568 1.377 . S
C2569 C2570 1.379 . S
C2570 H2554 0.931 . S
C2570 C2564 1.383 . S
C2570 C2569 1.379 . S
H2571 C2565 0.959 . S
H2572 C2565 0.961 . S
H2573 C2565 0.960 . S
H2574 C2566 0.930 . S
H2575 C2567 0.929 . S
H2576 C2584 0.929 . S
H2577 C2586 0.930 . S
H2578 C2588 0.930 . S
H2579 C2591 0.929 . S
H2580 C2594 0.930 . S
H2581 C2596 0.960 . S
H2582 C2596 0.960 . S
H2583 C2596 0.960 . S
C2584 H2576 0.929 . S
C2584 C2585 1.377 . S
C2584 C2586 1.384 . S
C2585 C2584 1.377 . S
C2585 C2591 1.390 1_655 S
C2586 H2577 0.930 . S
C2586 C2584 1.384 . S
C2586 C2587 1.372 . S
C2587 C2586 1.372 . S
C2587 C2588 1.400 1_655 S
C2587 C2592 1.490 . S
C2588 H2578 0.930 . S
C2588 C2587 1.400 1_455 S
C2588 C2591 1.386 . S
H2589 C2605 0.930 . S
H2590 C2606 0.931 . S
C2591 H2579 0.929 . S
C2591 C2585 1.390 1_455 S
C2591 C2588 1.386 . S
C2592 C2587 1.490 . S
C2592 C2594 1.395 . S
C2592 C2595 1.403 1_655 S
H2593 C2599 0.930 . S
C2594 H2580 0.930 . S
C2594 C2592 1.395 . S
C2594 C2597 1.403 . S
C2595 C2592 1.403 1_455 S
C2595 C2596 1.524 . S
C2595 C2599 1.400 . S
C2596 H2581 0.960 . S
C2596 H2582 0.960 . S
C2596 H2583 0.960 . S
C2596 C2595 1.524 . S
C2597 C2594 1.403 . S
C2597 C2598 1.392 . S
C2597 C2601 1.495 . S
C2598 C2597 1.392 . S
C2598 C2599 1.385 1_655 S
C2598 C2600 1.478 . S
C2599 H2593 0.930 . S
C2599 C2595 1.400 . S
C2599 C2598 1.385 1_455 S
C2600 C2598 1.478 . S
C2600 C2602 1.381 . S
C2600 C2606 1.383 1_655 S
C2601 C2597 1.495 . S
C2601 H2607 0.959 . S
C2601 H2608 0.961 . S
C2601 H2609 0.960 . S
C2602 C2600 1.381 . S
C2602 C2603 1.394 . S
C2602 H2610 0.930 . S
C2603 C2602 1.394 . S
C2603 C2604 1.383 1_655 S
C2603 H2611 0.929 . S
C2604 C2603 1.383 1_455 S
C2604 C2605 1.377 . S
C2605 H2589 0.930 . S
C2605 C2604 1.377 . S
C2605 C2606 1.379 . S
C2606 H2590 0.931 . S
C2606 C2600 1.383 1_455 S
C2606 C2605 1.379 . S
H2607 C2601 0.959 . S
H2608 C2601 0.961 . S
H2609 C2601 0.960 . S
H2610 C2602 0.930 . S
H2611 C2603 0.929 . S
H2612 C2620 0.929 . S
H2613 C2622 0.930 . S
H2614 C2624 0.930 . S
H2615 C2627 0.929 . S
H2616 C2630 0.930 . S
H2617 C2632 0.960 . S
H2618 C2632 0.960 . S
H2619 C2632 0.960 . S
C2620 H2612 0.929 . S
C2620 C2621 1.377 . S
C2620 C2622 1.384 . S
C2621 C2620 1.377 . S
C2621 C2627 1.390 . S
C2622 H2613 0.930 . S
C2622 C2620 1.384 . S
C2622 C2623 1.372 . S
C2623 C2622 1.372 . S
C2623 C2624 1.400 . S
C2623 C2628 1.490 . S
C2624 H2614 0.930 . S
C2624 C2623 1.400 . S
C2624 C2627 1.386 . S
H2625 C2641 0.930 . S
H2626 C2642 0.931 . S
C2627 H2615 0.929 . S
C2627 C2621 1.390 . S
C2627 C2624 1.386 . S
C2628 C2623 1.490 . S
C2628 C2630 1.395 . S
C2628 C2631 1.403 . S
H2629 C2635 0.930 . S
C2630 H2616 0.930 . S
C2630 C2628 1.395 . S
C2630 C2633 1.403 . S
C2631 C2628 1.403 . S
C2631 C2632 1.524 . S
C2631 C2635 1.400 . S
C2632 H2617 0.960 . S
C2632 H2618 0.960 . S
C2632 H2619 0.960 . S
C2632 C2631 1.524 . S
C2633 C2630 1.403 . S
C2633 C2634 1.392 . S
C2633 C2637 1.495 . S
C2634 C2633 1.392 . S
C2634 C2635 1.385 . S
C2634 C2636 1.478 . S
C2635 H2629 0.930 . S
C2635 C2631 1.400 . S
C2635 C2634 1.385 . S
C2636 C2634 1.478 . S
C2636 C2638 1.381 . S
C2636 C2642 1.383 . S
C2637 C2633 1.495 . S
C2637 H2643 0.959 . S
C2637 H2644 0.961 . S
C2637 H2645 0.960 . S
C2638 C2636 1.381 . S
C2638 C2639 1.394 . S
C2638 H2646 0.930 . S
C2639 C2638 1.394 . S
C2639 C2640 1.383 . S
C2639 H2647 0.929 . S
C2640 C2639 1.383 . S
C2640 C2641 1.377 . S
C2641 H2625 0.930 . S
C2641 C2640 1.377 . S
C2641 C2642 1.379 . S
C2642 H2626 0.931 . S
C2642 C2636 1.383 . S
C2642 C2641 1.379 . S
H2643 C2637 0.959 . S
H2644 C2637 0.961 . S
H2645 C2637 0.960 . S
H2646 C2638 0.930 . S
H2647 C2639 0.929 . S
H2648 C2656 0.929 . S
H2649 C2658 0.930 . S
H2650 C2660 0.930 . S
H2651 C2663 0.929 . S
H2652 C2666 0.930 . S
H2653 C2668 0.960 . S
H2654 C2668 0.960 . S
H2655 C2668 0.960 . S
C2656 H2648 0.929 . S
C2656 C2657 1.377 . S
C2656 C2658 1.384 . S
C2657 C2656 1.377 . S
C2657 C2663 1.390 . S
C2658 H2649 0.930 . S
C2658 C2656 1.384 . S
C2658 C2659 1.372 . S
C2659 C2658 1.372 . S
C2659 C2660 1.400 . S
C2659 C2664 1.490 . S
C2660 H2650 0.930 . S
C2660 C2659 1.400 . S
C2660 C2663 1.386 . S
H2661 C2677 0.930 . S
H2662 C2678 0.931 . S
C2663 H2651 0.929 . S
C2663 C2657 1.390 . S
C2663 C2660 1.386 . S
C2664 C2659 1.490 . S
C2664 C2666 1.395 . S
C2664 C2667 1.403 . S
H2665 C2671 0.930 . S
C2666 H2652 0.930 . S
C2666 C2664 1.395 . S
C2666 C2669 1.403 . S
C2667 C2664 1.403 . S
C2667 C2668 1.524 . S
C2667 C2671 1.400 . S
C2668 H2653 0.960 . S
C2668 H2654 0.960 . S
C2668 H2655 0.960 . S
C2668 C2667 1.524 . S
C2669 C2666 1.403 . S
C2669 C2670 1.392 . S
C2669 C2673 1.495 . S
C2670 C2669 1.392 . S
C2670 C2671 1.385 . S
C2670 C2672 1.478 . S
C2671 H2665 0.930 . S
C2671 C2667 1.400 . S
C2671 C2670 1.385 . S
C2672 C2670 1.478 . S
C2672 C2674 1.381 . S
C2672 C2678 1.383 . S
C2673 C2669 1.495 . S
C2673 H2679 0.959 . S
C2673 H2680 0.961 . S
C2673 H2681 0.960 . S
C2674 C2672 1.381 . S
C2674 C2675 1.394 . S
C2674 H2682 0.930 . S
C2675 C2674 1.394 . S
C2675 C2676 1.383 . S
C2675 H2683 0.929 . S
C2676 C2675 1.383 . S
C2676 C2677 1.377 . S
C2677 H2661 0.930 . S
C2677 C2676 1.377 . S
C2677 C2678 1.379 . S
C2678 H2662 0.931 . S
C2678 C2672 1.383 . S
C2678 C2677 1.379 . S
H2679 C2673 0.959 . S
H2680 C2673 0.961 . S
H2681 C2673 0.960 . S
H2682 C2674 0.930 . S
H2683 C2675 0.929 . S
H2684 C2692 0.929 . S
H2685 C2694 0.930 . S
H2686 C2696 0.930 . S
H2687 C2699 0.929 . S
H2688 C2702 0.930 . S
H2689 C2704 0.960 . S
H2690 C2704 0.960 . S
H2691 C2704 0.960 . S
C2692 H2684 0.929 . S
C2692 C2693 1.377 . S
C2692 C2694 1.384 . S
C2693 C2692 1.377 . S
C2693 C2699 1.390 . S
C2694 H2685 0.930 . S
C2694 C2692 1.384 . S
C2694 C2695 1.372 . S
C2695 C2694 1.372 . S
C2695 C2696 1.400 . S
C2695 C2700 1.490 . S
C2696 H2686 0.930 . S
C2696 C2695 1.400 . S
C2696 C2699 1.386 . S
H2697 C2713 0.930 . S
H2698 C2714 0.931 . S
C2699 H2687 0.929 . S
C2699 C2693 1.390 . S
C2699 C2696 1.386 . S
C2700 C2695 1.490 . S
C2700 C2702 1.395 . S
C2700 C2703 1.403 . S
H2701 C2707 0.930 . S
C2702 H2688 0.930 . S
C2702 C2700 1.395 . S
C2702 C2705 1.403 . S
C2703 C2700 1.403 . S
C2703 C2704 1.524 . S
C2703 C2707 1.400 . S
C2704 H2689 0.960 . S
C2704 H2690 0.960 . S
C2704 H2691 0.960 . S
C2704 C2703 1.524 . S
C2705 C2702 1.403 . S
C2705 C2706 1.392 . S
C2705 C2709 1.495 . S
C2706 C2705 1.392 . S
C2706 C2707 1.385 . S
C2706 C2708 1.478 . S
C2707 H2701 0.930 . S
C2707 C2703 1.400 . S
C2707 C2706 1.385 . S
C2708 C2706 1.478 . S
C2708 C2710 1.381 . S
C2708 C2714 1.383 . S
C2709 C2705 1.495 . S
C2709 H2715 0.959 . S
C2709 H2716 0.961 . S
C2709 H2717 0.960 . S
C2710 C2708 1.381 . S
C2710 C2711 1.394 . S
C2710 H2718 0.930 . S
C2711 C2710 1.394 . S
C2711 C2712 1.383 . S
C2711 H2719 0.929 . S
C2712 C2711 1.383 . S
C2712 C2713 1.377 . S
C2713 H2697 0.930 . S
C2713 C2712 1.377 . S
C2713 C2714 1.379 . S
C2714 H2698 0.931 . S
C2714 C2708 1.383 . S
C2714 C2713 1.379 . S
H2715 C2709 0.959 . S
H2716 C2709 0.961 . S
H2717 C2709 0.960 . S
H2718 C2710 0.930 . S
H2719 C2711 0.929 . S
H2720 C2728 0.929 . S
H2721 C2730 0.930 . S
H2722 C2732 0.930 . S
H2723 C2735 0.929 . S
H2724 C2738 0.930 . S
H2725 C2740 0.960 . S
H2726 C2740 0.960 . S
H2727 C2740 0.960 . S
C2728 H2720 0.929 . S
C2728 C2729 1.377 . S
C2728 C2730 1.384 . S
C2729 C2728 1.377 . S
C2729 C2735 1.390 . S
C2730 H2721 0.930 . S
C2730 C2728 1.384 . S
C2730 C2731 1.372 . S
C2731 C2730 1.372 . S
C2731 C2732 1.400 . S
C2731 C2736 1.490 . S
C2732 H2722 0.930 . S
C2732 C2731 1.400 . S
C2732 C2735 1.386 . S
H2733 C2749 0.930 . S
H2734 C2750 0.931 . S
C2735 H2723 0.929 . S
C2735 C2729 1.390 . S
C2735 C2732 1.386 . S
C2736 C2731 1.490 . S
C2736 C2738 1.395 . S
C2736 C2739 1.403 . S
H2737 C2743 0.930 . S
C2738 H2724 0.930 . S
C2738 C2736 1.395 . S
C2738 C2741 1.403 . S
C2739 C2736 1.403 . S
C2739 C2740 1.524 . S
C2739 C2743 1.400 . S
C2740 H2725 0.960 . S
C2740 H2726 0.960 . S
C2740 H2727 0.960 . S
C2740 C2739 1.524 . S
C2741 C2738 1.403 . S
C2741 C2742 1.392 . S
C2741 C2745 1.495 . S
C2742 C2741 1.392 . S
C2742 C2743 1.385 . S
C2742 C2744 1.478 . S
C2743 H2737 0.930 . S
C2743 C2739 1.400 . S
C2743 C2742 1.385 . S
C2744 C2742 1.478 . S
C2744 C2746 1.381 . S
C2744 C2750 1.383 . S
C2745 C2741 1.495 . S
C2745 H2751 0.959 . S
C2745 H2752 0.961 . S
C2745 H2753 0.960 . S
C2746 C2744 1.381 . S
C2746 C2747 1.394 . S
C2746 H2754 0.930 . S
C2747 C2746 1.394 . S
C2747 C2748 1.383 . S
C2747 H2755 0.929 . S
C2748 C2747 1.383 . S
C2748 C2749 1.377 . S
C2749 H2733 0.930 . S
C2749 C2748 1.377 . S
C2749 C2750 1.379 . S
C2750 H2734 0.931 . S
C2750 C2744 1.383 . S
C2750 C2749 1.379 . S
H2751 C2745 0.959 . S
H2752 C2745 0.961 . S
H2753 C2745 0.960 . S
H2754 C2746 0.930 . S
H2755 C2747 0.929 . S
H2756 C2764 0.929 . S
H2757 C2766 0.930 . S
H2758 C2768 0.930 . S
H2759 C2771 0.929 . S
H2760 C2774 0.930 . S
H2761 C2776 0.960 . S
H2762 C2776 0.960 . S
H2763 C2776 0.960 . S
C2764 H2756 0.929 . S
C2764 C2765 1.377 . S
C2764 C2766 1.384 . S
C2765 C2764 1.377 . S
C2765 C2771 1.390 . S
C2766 H2757 0.930 . S
C2766 C2764 1.384 . S
C2766 C2767 1.372 . S
C2767 C2766 1.372 . S
C2767 C2768 1.400 . S
C2767 C2772 1.490 . S
C2768 H2758 0.930 . S
C2768 C2767 1.400 . S
C2768 C2771 1.386 . S
H2769 C2785 0.930 . S
H2770 C2786 0.931 . S
C2771 H2759 0.929 . S
C2771 C2765 1.390 . S
C2771 C2768 1.386 . S
C2772 C2767 1.490 . S
C2772 C2774 1.395 . S
C2772 C2775 1.403 . S
H2773 C2779 0.930 . S
C2774 H2760 0.930 . S
C2774 C2772 1.395 . S
C2774 C2777 1.403 . S
C2775 C2772 1.403 . S
C2775 C2776 1.524 . S
C2775 C2779 1.400 . S
C2776 H2761 0.960 . S
C2776 H2762 0.960 . S
C2776 H2763 0.960 . S
C2776 C2775 1.524 . S
C2777 C2774 1.403 . S
C2777 C2778 1.392 . S
C2777 C2781 1.495 . S
C2778 C2777 1.392 . S
C2778 C2779 1.385 . S
C2778 C2780 1.478 . S
C2779 H2773 0.930 . S
C2779 C2775 1.400 . S
C2779 C2778 1.385 . S
C2780 C2778 1.478 . S
C2780 C2782 1.381 . S
C2780 C2786 1.383 . S
C2781 C2777 1.495 . S
C2781 H2787 0.959 . S
C2781 H2788 0.961 . S
C2781 H2789 0.960 . S
C2782 C2780 1.381 . S
C2782 C2783 1.394 . S
C2782 H2790 0.930 . S
C2783 C2782 1.394 . S
C2783 C2784 1.383 . S
C2783 H2791 0.929 . S
C2784 C2783 1.383 . S
C2784 C2785 1.377 . S
C2785 H2769 0.930 . S
C2785 C2784 1.377 . S
C2785 C2786 1.379 . S
C2786 H2770 0.931 . S
C2786 C2780 1.383 . S
C2786 C2785 1.379 . S
H2787 C2781 0.959 . S
H2788 C2781 0.961 . S
H2789 C2781 0.960 . S
H2790 C2782 0.930 . S
H2791 C2783 0.929 . S
H2792 C2800 0.929 . S
H2793 C2802 0.930 . S
H2794 C2804 0.930 . S
H2795 C2807 0.929 . S
H2796 C2810 0.930 . S
H2797 C2812 0.960 . S
H2798 C2812 0.960 . S
H2799 C2812 0.960 . S
C2800 H2792 0.929 . S
C2800 C2801 1.377 . S
C2800 C2802 1.384 . S
C2801 C2800 1.377 . S
C2801 C2807 1.390 . S
C2802 H2793 0.930 . S
C2802 C2800 1.384 . S
C2802 C2803 1.372 . S
C2803 C2802 1.372 . S
C2803 C2804 1.400 . S
C2803 C2808 1.490 . S
C2804 H2794 0.930 . S
C2804 C2803 1.400 . S
C2804 C2807 1.386 . S
H2805 C2821 0.930 . S
H2806 C2822 0.931 . S
C2807 H2795 0.929 . S
C2807 C2801 1.390 . S
C2807 C2804 1.386 . S
C2808 C2803 1.490 . S
C2808 C2810 1.395 . S
C2808 C2811 1.403 . S
H2809 C2815 0.930 . S
C2810 H2796 0.930 . S
C2810 C2808 1.395 . S
C2810 C2813 1.403 . S
C2811 C2808 1.403 . S
C2811 C2812 1.524 . S
C2811 C2815 1.400 . S
C2812 H2797 0.960 . S
C2812 H2798 0.960 . S
C2812 H2799 0.960 . S
C2812 C2811 1.524 . S
C2813 C2810 1.403 . S
C2813 C2814 1.392 . S
C2813 C2817 1.495 . S
C2814 C2813 1.392 . S
C2814 C2815 1.385 . S
C2814 C2816 1.478 . S
C2815 H2809 0.930 . S
C2815 C2811 1.400 . S
C2815 C2814 1.385 . S
C2816 C2814 1.478 . S
C2816 C2818 1.381 . S
C2816 C2822 1.383 . S
C2817 C2813 1.495 . S
C2817 H2823 0.959 . S
C2817 H2824 0.961 . S
C2817 H2825 0.960 . S
C2818 C2816 1.381 . S
C2818 C2819 1.394 . S
C2818 H2826 0.930 . S
C2819 C2818 1.394 . S
C2819 C2820 1.383 . S
C2819 H2827 0.929 . S
C2820 C2819 1.383 . S
C2820 C2821 1.377 . S
C2821 H2805 0.930 . S
C2821 C2820 1.377 . S
C2821 C2822 1.379 . S
C2822 H2806 0.931 . S
C2822 C2816 1.383 . S
C2822 C2821 1.379 . S
H2823 C2817 0.959 . S
H2824 C2817 0.961 . S
H2825 C2817 0.960 . S
H2826 C2818 0.930 . S
H2827 C2819 0.929 . S
H2828 C2836 0.929 . S
H2829 C2838 0.930 . S
H2830 C2840 0.930 . S
H2831 C2843 0.929 . S
H2832 C2846 0.930 . S
H2833 C2848 0.960 . S
H2834 C2848 0.960 . S
H2835 C2848 0.960 . S
C2836 H2828 0.929 . S
C2836 C2837 1.377 . S
C2836 C2838 1.384 . S
C2837 C2836 1.377 . S
C2837 C2843 1.390 . S
C2838 H2829 0.930 . S
C2838 C2836 1.384 . S
C2838 C2839 1.372 . S
C2839 C2838 1.372 . S
C2839 C2840 1.400 . S
C2839 C2844 1.490 . S
C2840 H2830 0.930 . S
C2840 C2839 1.400 . S
C2840 C2843 1.386 . S
H2841 C2857 0.930 . S
H2842 C2858 0.931 . S
C2843 H2831 0.929 . S
C2843 C2837 1.390 . S
C2843 C2840 1.386 . S
C2844 C2839 1.490 . S
C2844 C2846 1.395 . S
C2844 C2847 1.403 . S
H2845 C2851 0.930 . S
C2846 H2832 0.930 . S
C2846 C2844 1.395 . S
C2846 C2849 1.403 . S
C2847 C2844 1.403 . S
C2847 C2848 1.524 . S
C2847 C2851 1.400 . S
C2848 H2833 0.960 . S
C2848 H2834 0.960 . S
C2848 H2835 0.960 . S
C2848 C2847 1.524 . S
C2849 C2846 1.403 . S
C2849 C2850 1.392 . S
C2849 C2853 1.495 . S
C2850 C2849 1.392 . S
C2850 C2851 1.385 . S
C2850 C2852 1.478 . S
C2851 H2845 0.930 . S
C2851 C2847 1.400 . S
C2851 C2850 1.385 . S
C2852 C2850 1.478 . S
C2852 C2854 1.381 . S
C2852 C2858 1.383 . S
C2853 C2849 1.495 . S
C2853 H2859 0.959 . S
C2853 H2860 0.961 . S
C2853 H2861 0.960 . S
C2854 C2852 1.381 . S
C2854 C2855 1.394 . S
C2854 H2862 0.930 . S
C2855 C2854 1.394 . S
C2855 C2856 1.383 . S
C2855 H2863 0.929 . S
C2856 C2855 1.383 . S
C2856 C2857 1.377 . S
C2857 H2841 0.930 . S
C2857 C2856 1.377 . S
C2857 C2858 1.379 . S
C2858 H2842 0.931 . S
C2858 C2852 1.383 . S
C2858 C2857 1.379 . S
H2859 C2853 0.959 . S
H2860 C2853 0.961 . S
H2861 C2853 0.960 . S
H2862 C2854 0.930 . S
H2863 C2855 0.929 . S
H2864 C2872 0.929 . S
H2865 C2874 0.930 . S
H2866 C2876 0.930 . S
H2867 C2879 0.929 . S
H2868 C2882 0.930 . S
H2869 C2884 0.960 . S
H2870 C2884 0.960 . S
H2871 C2884 0.960 . S
C2872 H2864 0.929 . S
C2872 C2873 1.377 . S
C2872 C2874 1.384 . S
C2873 C2872 1.377 . S
C2873 C2879 1.390 . S
C2874 H2865 0.930 . S
C2874 C2872 1.384 . S
C2874 C2875 1.372 . S
C2875 C2874 1.372 . S
C2875 C2876 1.400 . S
C2875 C2880 1.490 . S
C2876 H2866 0.930 . S
C2876 C2875 1.400 . S
C2876 C2879 1.386 . S
H2877 C2893 0.930 . S
H2878 C2894 0.931 . S
C2879 H2867 0.929 . S
C2879 C2873 1.390 . S
C2879 C2876 1.386 . S
C2880 C2875 1.490 . S
C2880 C2882 1.395 . S
C2880 C2883 1.403 . S
H2881 C2887 0.930 . S
C2882 H2868 0.930 . S
C2882 C2880 1.395 . S
C2882 C2885 1.403 . S
C2883 C2880 1.403 . S
C2883 C2884 1.524 . S
C2883 C2887 1.400 . S
C2884 H2869 0.960 . S
C2884 H2870 0.960 . S
C2884 H2871 0.960 . S
C2884 C2883 1.524 . S
C2885 C2882 1.403 . S
C2885 C2886 1.392 . S
C2885 C2889 1.495 . S
C2886 C2885 1.392 . S
C2886 C2887 1.385 . S
C2886 C2888 1.478 . S
C2887 H2881 0.930 . S
C2887 C2883 1.400 . S
C2887 C2886 1.385 . S
C2888 C2886 1.478 . S
C2888 C2890 1.381 . S
C2888 C2894 1.383 . S
C2889 C2885 1.495 . S
C2889 H2895 0.959 . S
C2889 H2896 0.961 . S
C2889 H2897 0.960 . S
C2890 C2888 1.381 . S
C2890 C2891 1.394 . S
C2890 H2898 0.930 . S
C2891 C2890 1.394 . S
C2891 C2892 1.383 . S
C2891 H2899 0.929 . S
C2892 C2891 1.383 . S
C2892 C2893 1.377 . S
C2893 H2877 0.930 . S
C2893 C2892 1.377 . S
C2893 C2894 1.379 . S
C2894 H2878 0.931 . S
C2894 C2888 1.383 . S
C2894 C2893 1.379 . S
H2895 C2889 0.959 . S
H2896 C2889 0.961 . S
H2897 C2889 0.960 . S
H2898 C2890 0.930 . S
H2899 C2891 0.929 . S
H2900 C2908 0.929 . S
H2901 C2910 0.930 . S
H2902 C2912 0.930 . S
H2903 C2915 0.929 . S
H2904 C2918 0.930 . S
H2905 C2920 0.960 . S
H2906 C2920 0.960 . S
H2907 C2920 0.960 . S
C2908 H2900 0.929 . S
C2908 C2909 1.377 . S
C2908 C2910 1.384 . S
C2909 C2908 1.377 . S
C2909 C2915 1.390 . S
C2910 H2901 0.930 . S
C2910 C2908 1.384 . S
C2910 C2911 1.372 . S
C2911 C2910 1.372 . S
C2911 C2912 1.400 . S
C2911 C2916 1.490 . S
C2912 H2902 0.930 . S
C2912 C2911 1.400 . S
C2912 C2915 1.386 . S
H2913 C2929 0.930 . S
H2914 C2930 0.931 . S
C2915 H2903 0.929 . S
C2915 C2909 1.390 . S
C2915 C2912 1.386 . S
C2916 C2911 1.490 . S
C2916 C2918 1.395 . S
C2916 C2919 1.403 . S
H2917 C2923 0.930 . S
C2918 H2904 0.930 . S
C2918 C2916 1.395 . S
C2918 C2921 1.403 . S
C2919 C2916 1.403 . S
C2919 C2920 1.524 . S
C2919 C2923 1.400 . S
C2920 H2905 0.960 . S
C2920 H2906 0.960 . S
C2920 H2907 0.960 . S
C2920 C2919 1.524 . S
C2921 C2918 1.403 . S
C2921 C2922 1.392 . S
C2921 C2925 1.495 . S
C2922 C2921 1.392 . S
C2922 C2923 1.385 . S
C2922 C2924 1.478 . S
C2923 H2917 0.930 . S
C2923 C2919 1.400 . S
C2923 C2922 1.385 . S
C2924 C2922 1.478 . S
C2924 C2926 1.381 . S
C2924 C2930 1.383 . S
C2925 C2921 1.495 . S
C2925 H2931 0.959 . S
C2925 H2932 0.961 . S
C2925 H2933 0.960 . S
C2926 C2924 1.381 . S
C2926 C2927 1.394 . S
C2926 H2934 0.930 . S
C2927 C2926 1.394 . S
C2927 C2928 1.383 . S
C2927 H2935 0.929 . S
C2928 C2927 1.383 . S
C2928 C2929 1.377 . S
C2929 H2913 0.930 . S
C2929 C2928 1.377 . S
C2929 C2930 1.379 . S
C2930 H2914 0.931 . S
C2930 C2924 1.383 . S
C2930 C2929 1.379 . S
H2931 C2925 0.959 . S
H2932 C2925 0.961 . S
H2933 C2925 0.960 . S
H2934 C2926 0.930 . S
H2935 C2927 0.929 . S
H2936 C2944 0.929 . S
H2937 C2946 0.930 . S
H2938 C2948 0.930 . S
H2939 C2951 0.929 . S
H2940 C2954 0.930 . S
H2941 C2956 0.960 . S
H2942 C2956 0.960 . S
H2943 C2956 0.960 . S
C2944 H2936 0.929 . S
C2944 C2945 1.377 . S
C2944 C2946 1.384 . S
C2945 C2944 1.377 . S
C2945 C2951 1.390 . S
C2946 H2937 0.930 . S
C2946 C2944 1.384 . S
C2946 C2947 1.372 . S
C2947 C2946 1.372 . S
C2947 C2948 1.400 . S
C2947 C2952 1.490 . S
C2948 H2938 0.930 . S
C2948 C2947 1.400 . S
C2948 C2951 1.386 . S
H2949 C2965 0.930 . S
H2950 C2966 0.931 . S
C2951 H2939 0.929 . S
C2951 C2945 1.390 . S
C2951 C2948 1.386 . S
C2952 C2947 1.490 . S
C2952 C2954 1.395 . S
C2952 C2955 1.403 . S
H2953 C2959 0.930 . S
C2954 H2940 0.930 . S
C2954 C2952 1.395 . S
C2954 C2957 1.403 . S
C2955 C2952 1.403 . S
C2955 C2956 1.524 . S
C2955 C2959 1.400 . S
C2956 H2941 0.960 . S
C2956 H2942 0.960 . S
C2956 H2943 0.960 . S
C2956 C2955 1.524 . S
C2957 C2954 1.403 . S
C2957 C2958 1.392 . S
C2957 C2961 1.495 . S
C2958 C2957 1.392 . S
C2958 C2959 1.385 . S
C2958 C2960 1.478 . S
C2959 H2953 0.930 . S
C2959 C2955 1.400 . S
C2959 C2958 1.385 . S
C2960 C2958 1.478 . S
C2960 C2962 1.381 . S
C2960 C2966 1.383 . S
C2961 C2957 1.495 . S
C2961 H2967 0.959 . S
C2961 H2968 0.961 . S
C2961 H2969 0.960 . S
C2962 C2960 1.381 . S
C2962 C2963 1.394 . S
C2962 H2970 0.930 . S
C2963 C2962 1.394 . S
C2963 C2964 1.383 . S
C2963 H2971 0.929 . S
C2964 C2963 1.383 . S
C2964 C2965 1.377 . S
C2965 H2949 0.930 . S
C2965 C2964 1.377 . S
C2965 C2966 1.379 . S
C2966 H2950 0.931 . S
C2966 C2960 1.383 . S
C2966 C2965 1.379 . S
H2967 C2961 0.959 . S
H2968 C2961 0.961 . S
H2969 C2961 0.960 . S
H2970 C2962 0.930 . S
H2971 C2963 0.929 . S
H2972 C2980 0.929 . S
H2973 C2982 0.930 . S
H2974 C2984 0.930 . S
H2975 C2987 0.929 . S
H2976 C2990 0.930 . S
H2977 C2992 0.960 . S
H2978 C2992 0.960 . S
H2979 C2992 0.960 . S
C2980 H2972 0.929 . S
C2980 C2981 1.377 . S
C2980 C2982 1.384 . S
C2981 C2980 1.377 . S
C2981 C2987 1.390 . S
C2982 H2973 0.930 . S
C2982 C2980 1.384 . S
C2982 C2983 1.372 . S
C2983 C2982 1.372 . S
C2983 C2984 1.400 . S
C2983 C2988 1.490 . S
C2984 H2974 0.930 . S
C2984 C2983 1.400 . S
C2984 C2987 1.386 . S
H2985 C3001 0.930 . S
H2986 C3002 0.931 . S
C2987 H2975 0.929 . S
C2987 C2981 1.390 . S
C2987 C2984 1.386 . S
C2988 C2983 1.490 . S
C2988 C2990 1.395 . S
C2988 C2991 1.403 . S
H2989 C2995 0.930 . S
C2990 H2976 0.930 . S
C2990 C2988 1.395 . S
C2990 C2993 1.403 . S
C2991 C2988 1.403 . S
C2991 C2992 1.524 . S
C2991 C2995 1.400 . S
C2992 H2977 0.960 . S
C2992 H2978 0.960 . S
C2992 H2979 0.960 . S
C2992 C2991 1.524 . S
C2993 C2990 1.403 . S
C2993 C2994 1.392 . S
C2993 C2997 1.495 . S
C2994 C2993 1.392 . S
C2994 C2995 1.385 . S
C2994 C2996 1.478 . S
C2995 H2989 0.930 . S
C2995 C2991 1.400 . S
C2995 C2994 1.385 . S
C2996 C2994 1.478 . S
C2996 C2998 1.381 . S
C2996 C3002 1.383 . S
C2997 C2993 1.495 . S
C2997 H3003 0.959 . S
C2997 H3004 0.961 . S
C2997 H3005 0.960 . S
C2998 C2996 1.381 . S
C2998 C2999 1.394 . S
C2998 H3006 0.930 . S
C2999 C2998 1.394 . S
C2999 C3000 1.383 . S
C2999 H3007 0.929 . S
C3000 C2999 1.383 . S
C3000 C3001 1.377 . S
C3001 H2985 0.930 . S
C3001 C3000 1.377 . S
C3001 C3002 1.379 . S
C3002 H2986 0.931 . S
C3002 C2996 1.383 . S
C3002 C3001 1.379 . S
H3003 C2997 0.959 . S
H3004 C2997 0.961 . S
H3005 C2997 0.960 . S
H3006 C2998 0.930 . S
H3007 C2999 0.929 . S
H3008 C3016 0.929 . S
H3009 C3018 0.930 . S
H3010 C3020 0.930 . S
H3011 C3023 0.929 . S
H3012 C3026 0.930 . S
H3013 C3028 0.960 . S
H3014 C3028 0.960 . S
H3015 C3028 0.960 . S
C3016 H3008 0.929 . S
C3016 C3017 1.377 . S
C3016 C3018 1.384 . S
C3017 C3016 1.377 . S
C3017 C3023 1.390 . S
C3018 H3009 0.930 . S
C3018 C3016 1.384 . S
C3018 C3019 1.372 . S
C3019 C3018 1.372 . S
C3019 C3020 1.400 . S
C3019 C3024 1.490 . S
C3020 H3010 0.930 . S
C3020 C3019 1.400 . S
C3020 C3023 1.386 . S
H3021 C3037 0.930 . S
H3022 C3038 0.931 . S
C3023 H3011 0.929 . S
C3023 C3017 1.390 . S
C3023 C3020 1.386 . S
C3024 C3019 1.490 . S
C3024 C3026 1.395 . S
C3024 C3027 1.403 . S
H3025 C3031 0.930 . S
C3026 H3012 0.930 . S
C3026 C3024 1.395 . S
C3026 C3029 1.403 . S
C3027 C3024 1.403 . S
C3027 C3028 1.524 . S
C3027 C3031 1.400 . S
C3028 H3013 0.960 . S
C3028 H3014 0.960 . S
C3028 H3015 0.960 . S
C3028 C3027 1.524 . S
C3029 C3026 1.403 . S
C3029 C3030 1.392 . S
C3029 C3033 1.495 . S
C3030 C3029 1.392 . S
C3030 C3031 1.385 . S
C3030 C3032 1.478 . S
C3031 H3025 0.930 . S
C3031 C3027 1.400 . S
C3031 C3030 1.385 . S
C3032 C3030 1.478 . S
C3032 C3034 1.381 . S
C3032 C3038 1.383 . S
C3033 C3029 1.495 . S
C3033 H3039 0.959 . S
C3033 H3040 0.961 . S
C3033 H3041 0.960 . S
C3034 C3032 1.381 . S
C3034 C3035 1.394 . S
C3034 H3042 0.930 . S
C3035 C3034 1.394 . S
C3035 C3036 1.383 . S
C3035 H3043 0.929 . S
C3036 C3035 1.383 . S
C3036 C3037 1.377 . S
C3037 H3021 0.930 . S
C3037 C3036 1.377 . S
C3037 C3038 1.379 . S
C3038 H3022 0.931 . S
C3038 C3032 1.383 . S
C3038 C3037 1.379 . S
H3039 C3033 0.959 . S
H3040 C3033 0.961 . S
H3041 C3033 0.960 . S
H3042 C3034 0.930 . S
H3043 C3035 0.929 . S
H3044 C3052 0.929 . S
H3045 C3054 0.930 . S
H3046 C3056 0.930 . S
H3047 C3059 0.929 . S
H3048 C3062 0.930 . S
H3049 C3064 0.960 . S
H3050 C3064 0.960 . S
H3051 C3064 0.960 . S
C3052 H3044 0.929 . S
C3052 C3053 1.377 . S
C3052 C3054 1.384 . S
C3053 C3052 1.377 . S
C3053 C3059 1.390 . S
C3054 H3045 0.930 . S
C3054 C3052 1.384 . S
C3054 C3055 1.372 . S
C3055 C3054 1.372 . S
C3055 C3056 1.400 . S
C3055 C3060 1.490 . S
C3056 H3046 0.930 . S
C3056 C3055 1.400 . S
C3056 C3059 1.386 . S
H3057 C3073 0.930 . S
H3058 C3074 0.931 . S
C3059 H3047 0.929 . S
C3059 C3053 1.390 . S
C3059 C3056 1.386 . S
C3060 C3055 1.490 . S
C3060 C3062 1.395 . S
C3060 C3063 1.403 . S
H3061 C3067 0.930 . S
C3062 H3048 0.930 . S
C3062 C3060 1.395 . S
C3062 C3065 1.403 . S
C3063 C3060 1.403 . S
C3063 C3064 1.524 . S
C3063 C3067 1.400 . S
C3064 H3049 0.960 . S
C3064 H3050 0.960 . S
C3064 H3051 0.960 . S
C3064 C3063 1.524 . S
C3065 C3062 1.403 . S
C3065 C3066 1.392 . S
C3065 C3069 1.495 1_565 S
C3066 C3065 1.392 . S
C3066 C3067 1.385 . S
C3066 C3068 1.478 . S
C3067 H3061 0.930 . S
C3067 C3063 1.400 . S
C3067 C3066 1.385 . S
C3068 C3066 1.478 . S
C3068 C3070 1.381 1_565 S
C3068 C3074 1.383 . S
C3069 C3065 1.495 1_545 S
C3069 H3075 0.959 . S
C3069 H3076 0.961 . S
C3069 H3077 0.960 . S
C3070 C3068 1.381 1_545 S
C3070 C3071 1.394 . S
C3070 H3078 0.930 . S
C3071 C3070 1.394 . S
C3071 C3072 1.383 . S
C3071 H3079 0.929 . S
C3072 C3071 1.383 . S
C3072 C3073 1.377 1_545 S
C3073 H3057 0.930 . S
C3073 C3072 1.377 1_565 S
C3073 C3074 1.379 . S
C3074 H3058 0.931 . S
C3074 C3068 1.383 . S
C3074 C3073 1.379 . S
H3075 C3069 0.959 . S
H3076 C3069 0.961 . S
H3077 C3069 0.960 . S
H3078 C3070 0.930 . S
H3079 C3071 0.929 . S
H3080 C3088 0.929 . S
H3081 C3090 0.930 . S
H3082 C3092 0.930 . S
H3083 C3095 0.929 . S
H3084 C3098 0.930 . S
H3085 C3100 0.960 . S
H3086 C3100 0.960 . S
H3087 C3100 0.960 . S
C3088 H3080 0.929 . S
C3088 C3089 1.377 . S
C3088 C3090 1.384 . S
C3089 C3088 1.377 . S
C3089 C3095 1.390 . S
C3090 H3081 0.930 . S
C3090 C3088 1.384 . S
C3090 C3091 1.372 . S
C3091 C3090 1.372 . S
C3091 C3092 1.400 . S
C3091 C3096 1.490 . S
C3092 H3082 0.930 . S
C3092 C3091 1.400 . S
C3092 C3095 1.386 . S
H3093 C3109 0.930 . S
H3094 C3110 0.931 . S
C3095 H3083 0.929 . S
C3095 C3089 1.390 . S
C3095 C3092 1.386 . S
C3096 C3091 1.490 . S
C3096 C3098 1.395 . S
C3096 C3099 1.403 . S
H3097 C3103 0.930 . S
C3098 H3084 0.930 . S
C3098 C3096 1.395 . S
C3098 C3101 1.403 . S
C3099 C3096 1.403 . S
C3099 C3100 1.524 . S
C3099 C3103 1.400 . S
C3100 H3085 0.960 . S
C3100 H3086 0.960 . S
C3100 H3087 0.960 . S
C3100 C3099 1.524 . S
C3101 C3098 1.403 . S
C3101 C3102 1.392 . S
C3101 C3105 1.495 . S
C3102 C3101 1.392 . S
C3102 C3103 1.385 . S
C3102 C3104 1.478 . S
C3103 H3097 0.930 . S
C3103 C3099 1.400 . S
C3103 C3102 1.385 . S
C3104 C3102 1.478 . S
C3104 C3106 1.381 . S
C3104 C3110 1.383 . S
C3105 C3101 1.495 . S
C3105 H3111 0.959 . S
C3105 H3112 0.961 . S
C3105 H3113 0.960 . S
C3106 C3104 1.381 . S
C3106 C3107 1.394 . S
C3106 H3114 0.930 . S
C3107 C3106 1.394 . S
C3107 C3108 1.383 . S
C3107 H3115 0.929 . S
C3108 C3107 1.383 . S
C3108 C3109 1.377 . S
C3109 H3093 0.930 . S
C3109 C3108 1.377 . S
C3109 C3110 1.379 . S
C3110 H3094 0.931 . S
C3110 C3104 1.383 . S
C3110 C3109 1.379 . S
H3111 C3105 0.959 . S
H3112 C3105 0.961 . S
H3113 C3105 0.960 . S
H3114 C3106 0.930 . S
H3115 C3107 0.929 . S
H3116 C3124 0.929 . S
H3117 C3126 0.930 . S
H3118 C3128 0.930 . S
H3119 C3131 0.929 . S
H3120 C3134 0.930 . S
H3121 C3136 0.960 . S
H3122 C3136 0.960 . S
H3123 C3136 0.960 1_556 S
C3124 H3116 0.929 . S
C3124 C3125 1.377 . S
C3124 C3126 1.384 . S
C3125 C3124 1.377 . S
C3125 C3131 1.390 1_554 S
C3126 H3117 0.930 . S
C3126 C3124 1.384 . S
C3126 C3127 1.372 . S
C3127 C3126 1.372 . S
C3127 C3128 1.400 1_554 S
C3127 C3132 1.490 . S
C3128 H3118 0.930 . S
C3128 C3127 1.400 1_556 S
C3128 C3131 1.386 . S
H3129 C3145 0.930 1_556 S
H3130 C3146 0.931 1_556 S
C3131 H3119 0.929 . S
C3131 C3125 1.390 1_556 S
C3131 C3128 1.386 . S
C3132 C3127 1.490 . S
C3132 C3134 1.395 . S
C3132 C3135 1.403 . S
H3133 C3139 0.930 . S
C3134 H3120 0.930 . S
C3134 C3132 1.395 . S
C3134 C3137 1.403 . S
C3135 C3132 1.403 . S
C3135 C3136 1.524 . S
C3135 C3139 1.400 . S
C3136 H3121 0.960 . S
C3136 H3122 0.960 . S
C3136 H3123 0.960 1_554 S
C3136 C3135 1.524 . S
C3137 C3134 1.403 . S
C3137 C3138 1.392 . S
C3137 C3141 1.495 . S
C3138 C3137 1.392 . S
C3138 C3139 1.385 . S
C3138 C3140 1.478 . S
C3139 H3133 0.930 . S
C3139 C3135 1.400 . S
C3139 C3138 1.385 . S
C3140 C3138 1.478 . S
C3140 C3142 1.381 . S
C3140 C3146 1.383 . S
C3141 C3137 1.495 . S
C3141 H3147 0.959 . S
C3141 H3148 0.961 . S
C3141 H3149 0.960 . S
C3142 C3140 1.381 . S
C3142 C3143 1.394 . S
C3142 H3150 0.930 . S
C3143 C3142 1.394 . S
C3143 C3144 1.383 . S
C3143 H3151 0.929 . S
C3144 C3143 1.383 . S
C3144 C3145 1.377 . S
C3145 H3129 0.930 1_554 S
C3145 C3144 1.377 . S
C3145 C3146 1.379 . S
C3146 H3130 0.931 1_554 S
C3146 C3140 1.383 . S
C3146 C3145 1.379 . S
H3147 C3141 0.959 . S
H3148 C3141 0.961 . S
H3149 C3141 0.960 . S
H3150 C3142 0.930 . S
H3151 C3143 0.929 . S
H3152 C3160 0.929 . S
H3153 C3162 0.930 . S
H3154 C3164 0.930 . S
H3155 C3167 0.929 . S
H3156 C3170 0.930 . S
H3157 C3172 0.960 . S
H3158 C3172 0.960 . S
H3159 C3172 0.960 . S
C3160 H3152 0.929 . S
C3160 C3161 1.377 . S
C3160 C3162 1.384 . S
C3161 C3160 1.377 . S
C3161 C3167 1.390 . S
C3162 H3153 0.930 . S
C3162 C3160 1.384 . S
C3162 C3163 1.372 . S
C3163 C3162 1.372 . S
C3163 C3164 1.400 . S
C3163 C3168 1.490 . S
C3164 H3154 0.930 . S
C3164 C3163 1.400 . S
C3164 C3167 1.386 . S
H3165 C3181 0.930 . S
H3166 C3182 0.931 . S
C3167 H3155 0.929 . S
C3167 C3161 1.390 . S
C3167 C3164 1.386 . S
C3168 C3163 1.490 . S
C3168 C3170 1.395 . S
C3168 C3171 1.403 . S
H3169 C3175 0.930 . S
C3170 H3156 0.930 . S
C3170 C3168 1.395 . S
C3170 C3173 1.403 . S
C3171 C3168 1.403 . S
C3171 C3172 1.524 . S
C3171 C3175 1.400 . S
C3172 H3157 0.960 . S
C3172 H3158 0.960 . S
C3172 H3159 0.960 . S
C3172 C3171 1.524 . S
C3173 C3170 1.403 . S
C3173 C3174 1.392 . S
C3173 C3177 1.495 . S
C3174 C3173 1.392 . S
C3174 C3175 1.385 . S
C3174 C3176 1.478 . S
C3175 H3169 0.930 . S
C3175 C3171 1.400 . S
C3175 C3174 1.385 . S
C3176 C3174 1.478 . S
C3176 C3178 1.381 . S
C3176 C3182 1.383 . S
C3177 C3173 1.495 . S
C3177 H3183 0.959 . S
C3177 H3184 0.961 . S
C3177 H3185 0.960 . S
C3178 C3176 1.381 . S
C3178 C3179 1.394 . S
C3178 H3186 0.930 . S
C3179 C3178 1.394 . S
C3179 C3180 1.383 . S
C3179 H3187 0.929 . S
C3180 C3179 1.383 . S
C3180 C3181 1.377 . S
C3181 H3165 0.930 . S
C3181 C3180 1.377 . S
C3181 C3182 1.379 . S
C3182 H3166 0.931 . S
C3182 C3176 1.383 . S
C3182 C3181 1.379 . S
H3183 C3177 0.959 . S
H3184 C3177 0.961 . S
H3185 C3177 0.960 . S
H3186 C3178 0.930 . S
H3187 C3179 0.929 . S
H3188 C3196 0.929 . S
H3189 C3198 0.930 . S
H3190 C3200 0.930 . S
H3191 C3203 0.929 . S
H3192 C3206 0.930 . S
H3193 C3208 0.960 . S
H3194 C3208 0.960 . S
H3195 C3208 0.960 . S
C3196 H3188 0.929 . S
C3196 C3197 1.377 . S
C3196 C3198 1.384 . S
C3197 C3196 1.377 . S
C3197 C3203 1.390 . S
C3198 H3189 0.930 . S
C3198 C3196 1.384 . S
C3198 C3199 1.372 . S
C3199 C3198 1.372 . S
C3199 C3200 1.400 . S
C3199 C3204 1.490 . S
C3200 H3190 0.930 . S
C3200 C3199 1.400 . S
C3200 C3203 1.386 . S
H3201 C3217 0.930 . S
H3202 C3218 0.931 . S
C3203 H3191 0.929 . S
C3203 C3197 1.390 . S
C3203 C3200 1.386 . S
C3204 C3199 1.490 . S
C3204 C3206 1.395 . S
C3204 C3207 1.403 . S
H3205 C3211 0.930 . S
C3206 H3192 0.930 . S
C3206 C3204 1.395 . S
C3206 C3209 1.403 . S
C3207 C3204 1.403 . S
C3207 C3208 1.524 . S
C3207 C3211 1.400 . S
C3208 H3193 0.960 . S
C3208 H3194 0.960 . S
C3208 H3195 0.960 . S
C3208 C3207 1.524 . S
C3209 C3206 1.403 . S
C3209 C3210 1.392 . S
C3209 C3213 1.495 . S
C3210 C3209 1.392 . S
C3210 C3211 1.385 . S
C3210 C3212 1.478 . S
C3211 H3205 0.930 . S
C3211 C3207 1.400 . S
C3211 C3210 1.385 . S
C3212 C3210 1.478 . S
C3212 C3214 1.381 . S
C3212 C3218 1.383 . S
C3213 C3209 1.495 . S
C3213 H3219 0.959 . S
C3213 H3220 0.961 . S
C3213 H3221 0.960 . S
C3214 C3212 1.381 . S
C3214 C3215 1.394 . S
C3214 H3222 0.930 . S
C3215 C3214 1.394 . S
C3215 C3216 1.383 . S
C3215 H3223 0.929 . S
C3216 C3215 1.383 . S
C3216 C3217 1.377 . S
C3217 H3201 0.930 . S
C3217 C3216 1.377 . S
C3217 C3218 1.379 . S
C3218 H3202 0.931 . S
C3218 C3212 1.383 . S
C3218 C3217 1.379 . S
H3219 C3213 0.959 . S
H3220 C3213 0.961 . S
H3221 C3213 0.960 . S
H3222 C3214 0.930 . S
H3223 C3215 0.929 . S
H3224 C3232 0.929 . S
H3225 C3234 0.930 . S
H3226 C3236 0.930 . S
H3227 C3239 0.929 . S
H3228 C3242 0.930 . S
H3229 C3244 0.960 . S
H3230 C3244 0.960 . S
H3231 C3244 0.960 . S
C3232 H3224 0.929 . S
C3232 C3233 1.377 . S
C3232 C3234 1.384 . S
C3233 C3232 1.377 . S
C3233 C3239 1.390 . S
C3234 H3225 0.930 . S
C3234 C3232 1.384 . S
C3234 C3235 1.372 . S
C3235 C3234 1.372 . S
C3235 C3236 1.400 . S
C3235 C3240 1.490 . S
C3236 H3226 0.930 . S
C3236 C3235 1.400 . S
C3236 C3239 1.386 . S
H3237 C3253 0.930 . S
H3238 C3254 0.931 . S
C3239 H3227 0.929 . S
C3239 C3233 1.390 . S
C3239 C3236 1.386 . S
C3240 C3235 1.490 . S
C3240 C3242 1.395 . S
C3240 C3243 1.403 . S
H3241 C3247 0.930 . S
C3242 H3228 0.930 . S
C3242 C3240 1.395 . S
C3242 C3245 1.403 . S
C3243 C3240 1.403 . S
C3243 C3244 1.524 . S
C3243 C3247 1.400 . S
C3244 H3229 0.960 . S
C3244 H3230 0.960 . S
C3244 H3231 0.960 . S
C3244 C3243 1.524 . S
C3245 C3242 1.403 . S
C3245 C3246 1.392 . S
C3245 C3249 1.495 . S
C3246 C3245 1.392 . S
C3246 C3247 1.385 . S
C3246 C3248 1.478 . S
C3247 H3241 0.930 . S
C3247 C3243 1.400 . S
C3247 C3246 1.385 . S
C3248 C3246 1.478 . S
C3248 C3250 1.381 . S
C3248 C3254 1.383 . S
C3249 C3245 1.495 . S
C3249 H3255 0.959 . S
C3249 H3256 0.961 . S
C3249 H3257 0.960 . S
C3250 C3248 1.381 . S
C3250 C3251 1.394 . S
C3250 H3258 0.930 . S
C3251 C3250 1.394 . S
C3251 C3252 1.383 . S
C3251 H3259 0.929 . S
C3252 C3251 1.383 . S
C3252 C3253 1.377 . S
C3253 H3237 0.930 . S
C3253 C3252 1.377 . S
C3253 C3254 1.379 . S
C3254 H3238 0.931 . S
C3254 C3248 1.383 . S
C3254 C3253 1.379 . S
H3255 C3249 0.959 . S
H3256 C3249 0.961 . S
H3257 C3249 0.960 . S
H3258 C3250 0.930 . S
H3259 C3251 0.929 . S
H3260 C3268 0.929 . S
H3261 C3270 0.930 . S
H3262 C3272 0.930 . S
H3263 C3275 0.929 . S
H3264 C3278 0.930 . S
H3265 C3280 0.960 . S
H3266 C3280 0.960 . S
H3267 C3280 0.960 . S
C3268 H3260 0.929 . S
C3268 C3269 1.377 . S
C3268 C3270 1.384 . S
C3269 C3268 1.377 . S
C3269 C3275 1.390 . S
C3270 H3261 0.930 . S
C3270 C3268 1.384 . S
C3270 C3271 1.372 . S
C3271 C3270 1.372 . S
C3271 C3272 1.400 . S
C3271 C3276 1.490 . S
C3272 H3262 0.930 . S
C3272 C3271 1.400 . S
C3272 C3275 1.386 . S
H3273 C3289 0.930 . S
H3274 C3290 0.931 . S
C3275 H3263 0.929 . S
C3275 C3269 1.390 . S
C3275 C3272 1.386 . S
C3276 C3271 1.490 . S
C3276 C3278 1.395 . S
C3276 C3279 1.403 . S
H3277 C3283 0.930 . S
C3278 H3264 0.930 . S
C3278 C3276 1.395 . S
C3278 C3281 1.403 . S
C3279 C3276 1.403 . S
C3279 C3280 1.524 . S
C3279 C3283 1.400 . S
C3280 H3265 0.960 . S
C3280 H3266 0.960 . S
C3280 H3267 0.960 . S
C3280 C3279 1.524 . S
C3281 C3278 1.403 . S
C3281 C3282 1.392 . S
C3281 C3285 1.495 . S
C3282 C3281 1.392 . S
C3282 C3283 1.385 . S
C3282 C3284 1.478 . S
C3283 H3277 0.930 . S
C3283 C3279 1.400 . S
C3283 C3282 1.385 . S
C3284 C3282 1.478 . S
C3284 C3286 1.381 . S
C3284 C3290 1.383 . S
C3285 C3281 1.495 . S
C3285 H3291 0.959 . S
C3285 H3292 0.961 . S
C3285 H3293 0.960 . S
C3286 C3284 1.381 . S
C3286 C3287 1.394 . S
C3286 H3294 0.930 . S
C3287 C3286 1.394 . S
C3287 C3288 1.383 . S
C3287 H3295 0.929 . S
C3288 C3287 1.383 . S
C3288 C3289 1.377 . S
C3289 H3273 0.930 . S
C3289 C3288 1.377 . S
C3289 C3290 1.379 . S
C3290 H3274 0.931 . S
C3290 C3284 1.383 . S
C3290 C3289 1.379 . S
H3291 C3285 0.959 . S
H3292 C3285 0.961 . S
H3293 C3285 0.960 . S
H3294 C3286 0.930 . S
H3295 C3287 0.929 . S
H3296 C3304 0.929 . S
H3297 C3306 0.930 . S
H3298 C3308 0.930 . S
H3299 C3311 0.929 . S
H3300 C3314 0.936 . S
H3301 C3316 0.960 . S
H3302 C3316 0.960 . S
H3303 C3316 0.960 . S
C3304 H3296 0.929 . S
C3304 C3305 1.377 . S
C3304 C3306 1.384 . S
C3305 C3304 1.377 . S
C3305 C3311 1.390 1_455 S
C3306 H3297 0.930 . S
C3306 C3304 1.384 . S
C3306 C3307 1.372 . S
C3307 C3306 1.372 . S
C3307 C3308 1.400 1_455 S
C3307 C3312 1.490 . S
C3308 H3298 0.930 . S
C3308 C3307 1.400 1_655 S
C3308 C3311 1.386 . S
H3309 C3325 0.930 . S
H3310 C3326 0.931 . S
C3311 H3299 0.929 . S
C3311 C3305 1.390 1_655 S
C3311 C3308 1.386 . S
C3312 C3307 1.490 . S
C3312 C3314 1.395 . S
C3312 C3315 1.403 . S
H3313 C3319 0.930 . S
C3314 H3300 0.936 . S
C3314 C3312 1.395 . S
C3314 C3317 1.403 . S
C3315 C3312 1.403 . S
C3315 C3316 1.524 . S
C3315 C3319 1.400 . S
C3316 H3301 0.960 . S
C3316 H3302 0.960 . S
C3316 H3303 0.960 . S
C3316 C3315 1.524 . S
C3317 C3314 1.403 . S
C3317 C3318 1.392 . S
C3317 C3321 1.495 1_455 S
C3318 C3317 1.392 . S
C3318 C3319 1.385 . S
C3318 C3320 1.478 . S
C3319 H3313 0.930 . S
C3319 C3315 1.400 . S
C3319 C3318 1.385 . S
C3320 C3318 1.478 . S
C3320 C3322 1.381 . S
C3320 C3326 1.383 1_455 S
C3321 C3317 1.495 1_655 S
C3321 H3327 0.959 . S
C3321 H3328 0.961 . S
C3321 H3329 0.960 1_655 S
C3322 C3320 1.381 . S
C3322 C3323 1.394 . S
C3322 H3330 0.930 . S
C3323 C3322 1.394 . S
C3323 C3324 1.383 . S
C3323 H3331 0.929 . S
C3324 C3323 1.383 . S
C3324 C3325 1.377 1_455 S
C3325 H3309 0.930 . S
C3325 C3324 1.377 1_655 S
C3325 C3326 1.379 . S
C3326 H3310 0.931 . S
C3326 C3320 1.383 1_655 S
C3326 C3325 1.379 . S
H3327 C3321 0.959 . S
H3328 C3321 0.961 . S
H3329 C3321 0.960 1_455 S
H3330 C3322 0.930 . S
H3331 C3323 0.929 . S
H3332 C3340 0.929 . S
H3333 C3342 0.930 . S
H3334 C3344 0.930 . S
H3335 C3347 0.929 . S
H3336 C3350 0.930 . S
H3337 C3352 0.960 . S
H3338 C3352 0.960 . S
H3339 C3352 0.960 . S
C3340 H3332 0.929 . S
C3340 C3341 1.377 . S
C3340 C3342 1.384 . S
C3341 C3340 1.377 . S
C3341 C3347 1.390 . S
C3342 H3333 0.930 . S
C3342 C3340 1.384 . S
C3342 C3343 1.372 . S
C3343 C3342 1.372 . S
C3343 C3344 1.400 . S
C3343 C3348 1.490 . S
C3344 H3334 0.930 . S
C3344 C3343 1.400 . S
C3344 C3347 1.386 . S
H3345 C3361 0.930 . S
H3346 C3362 0.931 . S
C3347 H3335 0.929 . S
C3347 C3341 1.390 . S
C3347 C3344 1.386 . S
C3348 C3343 1.490 . S
C3348 C3350 1.395 . S
C3348 C3351 1.403 . S
H3349 C3355 0.930 . S
C3350 H3336 0.930 . S
C3350 C3348 1.395 . S
C3350 C3353 1.403 . S
C3351 C3348 1.403 . S
C3351 C3352 1.524 . S
C3351 C3355 1.400 . S
C3352 H3337 0.960 . S
C3352 H3338 0.960 . S
C3352 H3339 0.960 . S
C3352 C3351 1.524 . S
C3353 C3350 1.403 . S
C3353 C3354 1.392 . S
C3353 C3357 1.495 . S
C3354 C3353 1.392 . S
C3354 C3355 1.385 . S
C3354 C3356 1.478 . S
C3355 H3349 0.930 . S
C3355 C3351 1.400 . S
C3355 C3354 1.385 . S
C3356 C3354 1.478 . S
C3356 C3358 1.381 . S
C3356 C3362 1.383 . S
C3357 C3353 1.495 . S
C3357 H3363 0.959 . S
C3357 H3364 0.961 . S
C3357 H3365 0.960 . S
C3358 C3356 1.381 . S
C3358 C3359 1.394 . S
C3358 H3366 0.930 . S
C3359 C3358 1.394 . S
C3359 C3360 1.383 . S
C3359 H3367 0.929 . S
C3360 C3359 1.383 . S
C3360 C3361 1.377 . S
C3361 H3345 0.930 . S
C3361 C3360 1.377 . S
C3361 C3362 1.379 . S
C3362 H3346 0.931 . S
C3362 C3356 1.383 . S
C3362 C3361 1.379 . S
H3363 C3357 0.959 . S
H3364 C3357 0.961 . S
H3365 C3357 0.960 . S
H3366 C3358 0.930 . S
H3367 C3359 0.929 . S
H3368 C3376 0.929 . S
H3369 C3378 0.930 . S
H3370 C3380 0.930 . S
H3371 C3383 0.929 . S
H3372 C3386 0.930 . S
H3373 C3388 0.960 . S
H3374 C3388 0.960 . S
H3375 C3388 0.960 . S
C3376 H3368 0.929 . S
C3376 C3377 1.377 . S
C3376 C3378 1.384 . S
C3377 C3376 1.377 . S
C3377 C3383 1.390 . S
C3378 H3369 0.930 . S
C3378 C3376 1.384 . S
C3378 C3379 1.372 . S
C3379 C3378 1.372 . S
C3379 C3380 1.400 . S
C3379 C3384 1.490 . S
C3380 H3370 0.930 . S
C3380 C3379 1.400 . S
C3380 C3383 1.386 . S
H3381 C3397 0.889 1_554 S
H3382 C3398 0.931 . S
C3383 H3371 0.929 . S
C3383 C3377 1.390 . S
C3383 C3380 1.386 . S
C3384 C3379 1.490 . S
C3384 C3386 1.395 . S
C3384 C3387 1.403 . S
H3385 C3391 0.930 . S
C3386 H3372 0.930 . S
C3386 C3384 1.395 . S
C3386 C3389 1.403 . S
C3387 C3384 1.403 . S
C3387 C3388 1.524 . S
C3387 C3391 1.400 . S
C3388 H3373 0.960 . S
C3388 H3374 0.960 . S
C3388 H3375 0.960 . S
C3388 C3387 1.524 . S
C3389 C3386 1.403 . S
C3389 C3390 1.392 . S
C3389 C3393 1.495 . S
C3390 C3389 1.392 . S
C3390 C3391 1.385 . S
C3390 C3392 1.478 . S
C3391 H3385 0.930 . S
C3391 C3387 1.400 . S
C3391 C3390 1.385 . S
C3392 C3390 1.478 . S
C3392 C3394 1.381 . S
C3392 C3398 1.383 . S
C3393 C3389 1.495 . S
C3393 H3399 0.959 . S
C3393 H3400 0.961 . S
C3393 H3401 0.960 . S
C3394 C3392 1.381 . S
C3394 C3395 1.394 . S
C3394 H3402 0.930 . S
C3395 C3394 1.394 . S
C3395 C3396 1.383 . S
C3395 H3403 0.929 . S
C3396 C3395 1.383 . S
C3396 C3397 1.394 . S
C3397 H3381 0.889 1_556 S
C3397 C3396 1.394 . S
C3397 C3398 1.404 . S
C3398 H3382 0.931 . S
C3398 C3392 1.383 . S
C3398 C3397 1.404 . S
H3399 C3393 0.959 . S
H3400 C3393 0.961 . S
H3401 C3393 0.960 . S
H3402 C3394 0.930 . S
H3403 C3395 0.929 . S
H3404 C3412 0.929 . S
H3405 C3414 0.930 . S
H3406 C3416 0.930 . S
H3407 C3419 0.929 . S
H3408 C3422 0.930 . S
H3409 C3424 0.960 . S
H3410 C3424 0.960 . S
H3411 C3424 0.960 . S
C3412 H3404 0.929 . S
C3412 C3413 1.377 . S
C3412 C3414 1.384 . S
C3413 C3412 1.377 . S
C3413 C3419 1.390 . S
C3414 H3405 0.930 . S
C3414 C3412 1.384 . S
C3414 C3415 1.372 . S
C3415 C3414 1.372 . S
C3415 C3416 1.400 . S
C3415 C3420 1.490 . S
C3416 H3406 0.930 . S
C3416 C3415 1.400 . S
C3416 C3419 1.386 . S
H3417 C3433 0.930 . S
H3418 C3434 0.931 . S
C3419 H3407 0.929 . S
C3419 C3413 1.390 . S
C3419 C3416 1.386 . S
C3420 C3415 1.490 . S
C3420 C3422 1.395 . S
C3420 C3423 1.403 . S
H3421 C3427 0.930 . S
C3422 H3408 0.930 . S
C3422 C3420 1.395 . S
C3422 C3425 1.403 . S
C3423 C3420 1.403 . S
C3423 C3424 1.524 . S
C3423 C3427 1.400 . S
C3424 H3409 0.960 . S
C3424 H3410 0.960 . S
C3424 H3411 0.960 . S
C3424 C3423 1.524 . S
C3425 C3422 1.403 . S
C3425 C3426 1.392 . S
C3425 C3429 1.495 . S
C3426 C3425 1.392 . S
C3426 C3427 1.385 . S
C3426 C3428 1.478 . S
C3427 H3421 0.930 . S
C3427 C3423 1.400 . S
C3427 C3426 1.385 . S
C3428 C3426 1.478 . S
C3428 C3430 1.381 . S
C3428 C3434 1.383 . S
C3429 C3425 1.495 . S
C3429 H3435 0.959 . S
C3429 H3436 0.961 . S
C3429 H3437 0.960 . S
C3430 C3428 1.381 . S
C3430 C3431 1.394 . S
C3430 H3438 0.930 . S
C3431 C3430 1.394 . S
C3431 C3432 1.383 . S
C3431 H3439 0.929 . S
C3432 C3431 1.383 . S
C3432 C3433 1.377 . S
C3433 H3417 0.930 . S
C3433 C3432 1.377 . S
C3433 C3434 1.379 . S
C3434 H3418 0.931 . S
C3434 C3428 1.383 . S
C3434 C3433 1.379 . S
H3435 C3429 0.959 . S
H3436 C3429 0.961 . S
H3437 C3429 0.960 . S
H3438 C3430 0.930 . S
H3439 C3431 0.929 . S
H3440 C3448 0.929 . S
H3441 C3450 0.930 . S
H3442 C3452 0.914 1_655 S
H3443 C3455 0.919 1_655 S
H3444 C3458 0.930 . S
H3445 C3460 0.960 . S
H3446 C3460 0.960 . S
H3447 C3460 0.960 . S
C3448 H3440 0.929 . S
C3448 C3449 1.377 . S
C3448 C3450 1.384 . S
C3449 C3448 1.377 . S
C3449 C3455 1.390 . S
C3450 H3441 0.930 . S
C3450 C3448 1.384 . S
C3450 C3451 1.372 . S
C3451 C3450 1.372 . S
C3451 C3452 1.400 . S
C3451 C3456 1.490 . S
C3452 H3442 0.914 1_455 S
C3452 C3451 1.400 . S
C3452 C3455 1.386 . S
H3453 C3469 0.930 1_655 S
H3454 C3470 0.931 1_655 S
C3455 H3443 0.919 1_455 S
C3455 C3449 1.390 . S
C3455 C3452 1.386 . S
C3456 C3451 1.490 . S
C3456 C3458 1.395 . S
C3456 C3459 1.403 . S
H3457 C3463 0.930 . S
C3458 H3444 0.930 . S
C3458 C3456 1.395 . S
C3458 C3461 1.403 . S
C3459 C3456 1.403 . S
C3459 C3460 1.524 . S
C3459 C3463 1.400 . S
C3460 H3445 0.960 . S
C3460 H3446 0.960 . S
C3460 H3447 0.960 . S
C3460 C3459 1.524 . S
C3461 C3458 1.403 . S
C3461 C3462 1.392 . S
C3461 C3465 1.495 . S
C3462 C3461 1.392 . S
C3462 C3463 1.385 . S
C3462 C3464 1.478 . S
C3463 H3457 0.930 . S
C3463 C3459 1.400 . S
C3463 C3462 1.385 . S
C3464 C3462 1.478 . S
C3464 C3466 1.381 . S
C3464 C3470 1.383 . S
C3465 C3461 1.495 . S
C3465 H3471 0.959 . S
C3465 H3472 0.968 . S
C3465 H3473 0.960 . S
C3466 C3464 1.381 . S
C3466 C3467 1.394 . S
C3466 H3474 0.930 . S
C3467 C3466 1.394 . S
C3467 C3468 1.383 . S
C3467 H3475 0.929 . S
C3468 C3467 1.383 . S
C3468 C3469 1.377 . S
C3469 H3453 0.930 1_455 S
C3469 C3468 1.377 . S
C3469 C3470 1.379 . S
C3470 H3454 0.931 1_455 S
C3470 C3464 1.383 . S
C3470 C3469 1.379 . S
H3471 C3465 0.959 . S
H3472 C3465 0.968 . S
H3473 C3465 0.960 . S
H3474 C3466 0.930 . S
H3475 C3467 0.929 . S
H3476 C3484 0.929 . S
H3477 C3486 0.930 . S
H3478 C3488 0.930 . S
H3479 C3491 0.929 . S
H3480 C3494 0.930 . S
H3481 C3496 0.960 . S
H3482 C3496 0.960 . S
H3483 C3496 0.960 . S
C3484 H3476 0.929 . S
C3484 C3485 1.377 . S
C3484 C3486 1.384 . S
C3485 C3484 1.377 . S
C3485 C3491 1.390 . S
C3486 H3477 0.930 . S
C3486 C3484 1.384 . S
C3486 C3487 1.372 . S
C3487 C3486 1.372 . S
C3487 C3488 1.400 . S
C3487 C3492 1.490 . S
C3488 H3478 0.930 . S
C3488 C3487 1.400 . S
C3488 C3491 1.386 . S
H3489 C3505 0.930 . S
H3490 C3506 0.931 . S
C3491 H3479 0.929 . S
C3491 C3485 1.390 . S
C3491 C3488 1.386 . S
C3492 C3487 1.490 . S
C3492 C3494 1.395 . S
C3492 C3495 1.403 . S
H3493 C3499 0.930 . S
C3494 H3480 0.930 . S
C3494 C3492 1.395 . S
C3494 C3497 1.403 . S
C3495 C3492 1.403 . S
C3495 C3496 1.524 . S
C3495 C3499 1.400 . S
C3496 H3481 0.960 . S
C3496 H3482 0.960 . S
C3496 H3483 0.960 . S
C3496 C3495 1.524 . S
C3497 C3494 1.403 . S
C3497 C3498 1.392 . S
C3497 C3501 1.495 . S
C3498 C3497 1.392 . S
C3498 C3499 1.385 . S
C3498 C3500 1.478 . S
C3499 H3493 0.930 . S
C3499 C3495 1.400 . S
C3499 C3498 1.385 . S
C3500 C3498 1.478 . S
C3500 C3502 1.381 . S
C3500 C3506 1.383 . S
C3501 C3497 1.495 . S
C3501 H3507 0.959 . S
C3501 H3508 0.961 . S
C3501 H3509 0.960 . S
C3502 C3500 1.381 . S
C3502 C3503 1.394 . S
C3502 H3510 0.930 . S
C3503 C3502 1.394 . S
C3503 C3504 1.383 . S
C3503 H3511 0.929 . S
C3504 C3503 1.383 . S
C3504 C3505 1.377 . S
C3505 H3489 0.930 . S
C3505 C3504 1.377 . S
C3505 C3506 1.379 . S
C3506 H3490 0.931 . S
C3506 C3500 1.383 . S
C3506 C3505 1.379 . S
H3507 C3501 0.959 . S
H3508 C3501 0.961 . S
H3509 C3501 0.960 . S
H3510 C3502 0.930 . S
H3511 C3503 0.929 . S
H3512 C3520 0.929 . S
H3513 C3522 0.930 . S
H3514 C3524 0.930 . S
H3515 C3527 0.929 . S
H3516 C3530 0.930 . S
H3517 C3532 0.960 . S
H3518 C3532 0.960 . S
H3519 C3532 0.960 . S
C3520 H3512 0.929 . S
C3520 C3521 1.377 . S
C3520 C3522 1.384 . S
C3521 C3520 1.377 . S
C3521 C3527 1.390 . S
C3522 H3513 0.930 . S
C3522 C3520 1.384 . S
C3522 C3523 1.372 . S
C3523 C3522 1.372 . S
C3523 C3524 1.400 . S
C3523 C3528 1.490 . S
C3524 H3514 0.930 . S
C3524 C3523 1.400 . S
C3524 C3527 1.386 . S
H3525 C3541 0.930 . S
H3526 C3542 0.931 . S
C3527 H3515 0.929 . S
C3527 C3521 1.390 . S
C3527 C3524 1.386 . S
C3528 C3523 1.490 . S
C3528 C3530 1.395 . S
C3528 C3531 1.403 . S
H3529 C3535 0.930 . S
C3530 H3516 0.930 . S
C3530 C3528 1.395 . S
C3530 C3533 1.403 . S
C3531 C3528 1.403 . S
C3531 C3532 1.524 . S
C3531 C3535 1.400 . S
C3532 H3517 0.960 . S
C3532 H3518 0.960 . S
C3532 H3519 0.960 . S
C3532 C3531 1.524 . S
C3533 C3530 1.403 . S
C3533 C3534 1.392 . S
C3533 C3537 1.495 . S
C3534 C3533 1.392 . S
C3534 C3535 1.385 . S
C3534 C3536 1.478 . S
C3535 H3529 0.930 . S
C3535 C3531 1.400 . S
C3535 C3534 1.385 . S
C3536 C3534 1.478 . S
C3536 C3538 1.381 . S
C3536 C3542 1.383 . S
C3537 C3533 1.495 . S
C3537 H3543 0.959 . S
C3537 H3544 0.961 . S
C3537 H3545 0.960 . S
C3538 C3536 1.381 . S
C3538 C3539 1.394 . S
C3538 H3546 0.930 . S
C3539 C3538 1.394 . S
C3539 C3540 1.383 . S
C3539 H3547 0.929 . S
C3540 C3539 1.383 . S
C3540 C3541 1.377 . S
C3541 H3525 0.930 . S
C3541 C3540 1.377 . S
C3541 C3542 1.379 . S
C3542 H3526 0.931 . S
C3542 C3536 1.383 . S
C3542 C3541 1.379 . S
H3543 C3537 0.959 . S
H3544 C3537 0.961 . S
H3545 C3537 0.960 . S
H3546 C3538 0.930 . S
H3547 C3539 0.929 . S
H3548 C3556 0.929 . S
H3549 C3558 0.930 . S
H3550 C3560 0.930 . S
H3551 C3563 0.929 . S
H3552 C3566 0.930 . S
H3553 C3568 0.960 . S
H3554 C3568 0.960 . S
H3555 C3568 0.960 . S
C3556 H3548 0.929 . S
C3556 C3557 1.377 . S
C3556 C3558 1.384 . S
C3557 C3556 1.377 . S
C3557 C3563 1.390 . S
C3558 H3549 0.930 . S
C3558 C3556 1.384 . S
C3558 C3559 1.372 . S
C3559 C3558 1.372 . S
C3559 C3560 1.400 . S
C3559 C3564 1.490 . S
C3560 H3550 0.930 . S
C3560 C3559 1.400 . S
C3560 C3563 1.386 . S
H3561 C3577 0.930 . S
H3562 C3578 0.931 . S
C3563 H3551 0.929 . S
C3563 C3557 1.390 . S
C3563 C3560 1.386 . S
C3564 C3559 1.490 . S
C3564 C3566 1.395 . S
C3564 C3567 1.403 . S
H3565 C3571 0.930 . S
C3566 H3552 0.930 . S
C3566 C3564 1.395 . S
C3566 C3569 1.403 . S
C3567 C3564 1.403 . S
C3567 C3568 1.524 . S
C3567 C3571 1.400 . S
C3568 H3553 0.960 . S
C3568 H3554 0.960 . S
C3568 H3555 0.960 . S
C3568 C3567 1.524 . S
C3569 C3566 1.403 . S
C3569 C3570 1.392 . S
C3569 C3573 1.495 . S
C3570 C3569 1.392 . S
C3570 C3571 1.385 . S
C3570 C3572 1.478 . S
C3571 H3565 0.930 . S
C3571 C3567 1.400 . S
C3571 C3570 1.385 . S
C3572 C3570 1.478 . S
C3572 C3574 1.381 . S
C3572 C3578 1.383 . S
C3573 C3569 1.495 . S
C3573 H3579 0.959 . S
C3573 H3580 0.961 . S
C3573 H3581 0.960 . S
C3574 C3572 1.381 . S
C3574 C3575 1.394 . S
C3574 H3582 0.930 . S
C3575 C3574 1.394 . S
C3575 C3576 1.383 . S
C3575 H3583 0.929 . S
C3576 C3575 1.383 . S
C3576 C3577 1.377 . S
C3577 H3561 0.930 . S
C3577 C3576 1.377 . S
C3577 C3578 1.379 . S
C3578 H3562 0.931 . S
C3578 C3572 1.383 . S
C3578 C3577 1.379 . S
H3579 C3573 0.959 . S
H3580 C3573 0.961 . S
H3581 C3573 0.960 . S
H3582 C3574 0.930 . S
H3583 C3575 0.929 . S
H3584 C3592 0.929 . S
H3585 C3594 0.930 . S
H3586 C3596 0.930 . S
H3587 C3599 0.929 . S
H3588 C3602 0.930 . S
H3589 C3604 0.960 . S
H3590 C3604 0.960 . S
H3591 C3604 0.960 . S
C3592 H3584 0.929 . S
C3592 C3593 1.377 . S
C3592 C3594 1.384 . S
C3593 C3592 1.377 . S
C3593 C3599 1.390 . S
C3594 H3585 0.930 . S
C3594 C3592 1.384 . S
C3594 C3595 1.372 . S
C3595 C3594 1.372 . S
C3595 C3596 1.400 . S
C3595 C3600 1.490 . S
C3596 H3586 0.930 . S
C3596 C3595 1.400 . S
C3596 C3599 1.386 . S
H3597 C3613 0.930 . S
H3598 C3614 0.931 . S
C3599 H3587 0.929 . S
C3599 C3593 1.390 . S
C3599 C3596 1.386 . S
C3600 C3595 1.490 . S
C3600 C3602 1.395 . S
C3600 C3603 1.403 . S
H3601 C3607 0.930 . S
C3602 H3588 0.930 . S
C3602 C3600 1.395 . S
C3602 C3605 1.403 . S
C3603 C3600 1.403 . S
C3603 C3604 1.524 . S
C3603 C3607 1.400 . S
C3604 H3589 0.960 . S
C3604 H3590 0.960 . S
C3604 H3591 0.960 . S
C3604 C3603 1.524 . S
C3605 C3602 1.403 . S
C3605 C3606 1.392 . S
C3605 C3609 1.495 . S
C3606 C3605 1.392 . S
C3606 C3607 1.385 . S
C3606 C3608 1.478 . S
C3607 H3601 0.930 . S
C3607 C3603 1.400 . S
C3607 C3606 1.385 . S
C3608 C3606 1.478 . S
C3608 C3610 1.381 . S
C3608 C3614 1.383 . S
C3609 C3605 1.495 . S
C3609 H3615 0.959 . S
C3609 H3616 0.970 . S
C3609 H3617 0.960 . S
C3610 C3608 1.381 . S
C3610 C3611 1.394 . S
C3610 H3618 0.930 . S
C3611 C3610 1.394 . S
C3611 C3612 1.383 . S
C3611 H3619 0.929 . S
C3612 C3611 1.383 . S
C3612 C3613 1.377 1_655 S
C3613 H3597 0.930 . S
C3613 C3612 1.377 1_455 S
C3613 C3614 1.379 1_455 S
C3614 H3598 0.931 . S
C3614 C3608 1.383 . S
C3614 C3613 1.379 1_655 S
H3615 C3609 0.959 . S
H3616 C3609 0.970 . S
H3617 C3609 0.960 . S
H3618 C3610 0.930 . S
H3619 C3611 0.929 . S
H3620 C3628 0.929 . S
H3621 C3630 0.930 . S
H3622 C3632 0.930 . S
H3623 C3635 0.929 . S
H3624 C3638 0.930 . S
H3625 C3640 0.960 . S
H3626 C3640 0.960 . S
H3627 C3640 0.960 . S
C3628 H3620 0.929 . S
C3628 C3629 1.377 . S
C3628 C3630 1.384 . S
C3629 C3628 1.377 . S
C3629 C3635 1.390 . S
C3630 H3621 0.930 . S
C3630 C3628 1.384 . S
C3630 C3631 1.372 . S
C3631 C3630 1.372 . S
C3631 C3632 1.400 . S
C3631 C3636 1.490 . S
C3632 H3622 0.930 . S
C3632 C3631 1.400 . S
C3632 C3635 1.386 . S
H3633 C3649 0.930 . S
H3634 C3650 0.931 . S
C3635 H3623 0.929 . S
C3635 C3629 1.390 . S
C3635 C3632 1.386 . S
C3636 C3631 1.490 . S
C3636 C3638 1.395 . S
C3636 C3639 1.403 . S
H3637 C3643 0.930 . S
C3638 H3624 0.930 . S
C3638 C3636 1.395 . S
C3638 C3641 1.403 . S
C3639 C3636 1.403 . S
C3639 C3640 1.524 . S
C3639 C3643 1.400 . S
C3640 H3625 0.960 . S
C3640 H3626 0.960 . S
C3640 H3627 0.960 . S
C3640 C3639 1.524 . S
C3641 C3638 1.403 . S
C3641 C3642 1.392 . S
C3641 C3645 1.495 . S
C3642 C3641 1.392 . S
C3642 C3643 1.385 . S
C3642 C3644 1.478 . S
C3643 H3637 0.930 . S
C3643 C3639 1.400 . S
C3643 C3642 1.385 . S
C3644 C3642 1.478 . S
C3644 C3646 1.381 . S
C3644 C3650 1.383 . S
C3645 C3641 1.495 . S
C3645 H3651 0.959 . S
C3645 H3652 0.961 . S
C3645 H3653 0.960 . S
C3646 C3644 1.381 . S
C3646 C3647 1.394 . S
C3646 H3654 0.930 . S
C3647 C3646 1.394 . S
C3647 C3648 1.383 . S
C3647 H3655 0.929 . S
C3648 C3647 1.383 . S
C3648 C3649 1.377 . S
C3649 H3633 0.930 . S
C3649 C3648 1.377 . S
C3649 C3650 1.379 . S
C3650 H3634 0.931 . S
C3650 C3644 1.383 . S
C3650 C3649 1.379 . S
H3651 C3645 0.959 . S
H3652 C3645 0.961 . S
H3653 C3645 0.960 . S
H3654 C3646 0.930 . S
H3655 C3647 0.929 . S
H3656 C3664 0.929 . S
H3657 C3666 0.930 . S
H3658 C3668 0.930 . S
H3659 C3671 0.929 . S
H3660 C3674 0.930 . S
H3661 C3676 0.960 . S
H3662 C3676 0.960 . S
H3663 C3676 0.960 . S
C3664 H3656 0.929 . S
C3664 C3665 1.377 . S
C3664 C3666 1.384 . S
C3665 C3664 1.377 . S
C3665 C3671 1.390 . S
C3666 H3657 0.930 . S
C3666 C3664 1.384 . S
C3666 C3667 1.372 . S
C3667 C3666 1.372 . S
C3667 C3668 1.400 . S
C3667 C3672 1.490 . S
C3668 H3658 0.930 . S
C3668 C3667 1.400 . S
C3668 C3671 1.386 . S
H3669 C3685 0.930 . S
H3670 C3686 0.931 . S
C3671 H3659 0.929 . S
C3671 C3665 1.390 . S
C3671 C3668 1.386 . S
C3672 C3667 1.490 . S
C3672 C3674 1.395 . S
C3672 C3675 1.403 . S
H3673 C3679 0.930 . S
C3674 H3660 0.930 . S
C3674 C3672 1.395 . S
C3674 C3677 1.403 . S
C3675 C3672 1.403 . S
C3675 C3676 1.524 . S
C3675 C3679 1.400 . S
C3676 H3661 0.960 . S
C3676 H3662 0.960 . S
C3676 H3663 0.960 . S
C3676 C3675 1.524 . S
C3677 C3674 1.403 . S
C3677 C3678 1.392 . S
C3677 C3681 1.495 . S
C3678 C3677 1.392 . S
C3678 C3679 1.385 . S
C3678 C3680 1.478 . S
C3679 H3673 0.930 . S
C3679 C3675 1.400 . S
C3679 C3678 1.385 . S
C3680 C3678 1.478 . S
C3680 C3682 1.381 . S
C3680 C3686 1.383 . S
C3681 C3677 1.495 . S
C3681 H3687 0.959 . S
C3681 H3688 0.961 . S
C3681 H3689 0.960 . S
C3682 C3680 1.381 . S
C3682 C3683 1.394 . S
C3682 H3690 0.930 . S
C3683 C3682 1.394 . S
C3683 C3684 1.383 . S
C3683 H3691 0.929 . S
C3684 C3683 1.383 . S
C3684 C3685 1.377 . S
C3685 H3669 0.930 . S
C3685 C3684 1.377 . S
C3685 C3686 1.379 . S
C3686 H3670 0.931 . S
C3686 C3680 1.383 . S
C3686 C3685 1.379 . S
H3687 C3681 0.959 . S
H3688 C3681 0.961 . S
H3689 C3681 0.960 . S
H3690 C3682 0.930 . S
H3691 C3683 0.929 . S
H3692 C3700 0.929 . S
H3693 C3702 0.930 . S
H3694 C3704 0.930 . S
H3695 C3707 0.929 . S
H3696 C3710 0.930 . S
H3697 C3712 0.960 . S
H3698 C3712 0.960 . S
H3699 C3712 0.960 . S
C3700 H3692 0.929 . S
C3700 C3701 1.377 . S
C3700 C3702 1.384 . S
C3701 C3700 1.377 . S
C3701 C3707 1.390 . S
C3702 H3693 0.930 . S
C3702 C3700 1.384 . S
C3702 C3703 1.372 . S
C3703 C3702 1.372 . S
C3703 C3704 1.400 . S
C3703 C3708 1.490 . S
C3704 H3694 0.930 . S
C3704 C3703 1.400 . S
C3704 C3707 1.386 . S
H3705 C3721 0.930 . S
H3706 C3722 0.931 . S
C3707 H3695 0.929 . S
C3707 C3701 1.390 . S
C3707 C3704 1.386 . S
C3708 C3703 1.490 . S
C3708 C3710 1.395 . S
C3708 C3711 1.403 . S
H3709 C3715 0.930 . S
C3710 H3696 0.930 . S
C3710 C3708 1.395 . S
C3710 C3713 1.403 . S
C3711 C3708 1.403 . S
C3711 C3712 1.524 . S
C3711 C3715 1.400 . S
C3712 H3697 0.960 . S
C3712 H3698 0.960 . S
C3712 H3699 0.960 . S
C3712 C3711 1.524 . S
C3713 C3710 1.403 . S
C3713 C3714 1.392 . S
C3713 C3717 1.495 . S
C3714 C3713 1.392 . S
C3714 C3715 1.385 . S
C3714 C3716 1.478 . S
C3715 H3709 0.930 . S
C3715 C3711 1.400 . S
C3715 C3714 1.385 . S
C3716 C3714 1.478 . S
C3716 C3718 1.381 . S
C3716 C3722 1.383 . S
C3717 C3713 1.495 . S
C3717 H3723 0.959 . S
C3717 H3724 0.961 . S
C3717 H3725 0.960 . S
C3718 C3716 1.381 . S
C3718 C3719 1.394 . S
C3718 H3726 0.930 . S
C3719 C3718 1.394 . S
C3719 C3720 1.383 . S
C3719 H3727 0.929 . S
C3720 C3719 1.383 . S
C3720 C3721 1.377 . S
C3721 H3705 0.930 . S
C3721 C3720 1.377 . S
C3721 C3722 1.379 . S
C3722 H3706 0.931 . S
C3722 C3716 1.383 . S
C3722 C3721 1.379 . S
H3723 C3717 0.959 . S
H3724 C3717 0.961 . S
H3725 C3717 0.960 . S
H3726 C3718 0.930 . S
H3727 C3719 0.929 . S
H3728 C3736 0.929 . S
H3729 C3738 0.930 . S
H3730 C3740 0.930 . S
H3731 C3743 0.929 . S
H3732 C3746 0.930 . S
H3733 C3748 0.960 . S
H3734 C3748 0.960 . S
H3735 C3748 0.960 . S
C3736 H3728 0.929 . S
C3736 C3737 1.377 . S
C3736 C3738 1.384 . S
C3737 C3736 1.377 . S
C3737 C3743 1.390 . S
C3738 H3729 0.930 . S
C3738 C3736 1.384 . S
C3738 C3739 1.372 . S
C3739 C3738 1.372 . S
C3739 C3740 1.400 . S
C3739 C3744 1.490 . S
C3740 H3730 0.930 . S
C3740 C3739 1.400 . S
C3740 C3743 1.386 . S
H3741 C3757 0.930 1_455 S
H3742 C3758 0.931 . S
C3743 H3731 0.929 . S
C3743 C3737 1.390 . S
C3743 C3740 1.386 . S
C3744 C3739 1.490 . S
C3744 C3746 1.395 . S
C3744 C3747 1.403 . S
H3745 C3751 0.930 . S
C3746 H3732 0.930 . S
C3746 C3744 1.395 . S
C3746 C3749 1.403 . S
C3747 C3744 1.403 . S
C3747 C3748 1.524 . S
C3747 C3751 1.400 . S
C3748 H3733 0.960 . S
C3748 H3734 0.960 . S
C3748 H3735 0.960 . S
C3748 C3747 1.524 . S
C3749 C3746 1.403 . S
C3749 C3750 1.392 . S
C3749 C3753 1.495 . S
C3750 C3749 1.392 . S
C3750 C3751 1.385 . S
C3750 C3752 1.478 . S
C3751 H3745 0.930 . S
C3751 C3747 1.400 . S
C3751 C3750 1.385 . S
C3752 C3750 1.478 . S
C3752 C3754 1.381 . S
C3752 C3758 1.383 . S
C3753 C3749 1.495 . S
C3753 H3759 0.959 . S
C3753 H3760 0.961 . S
C3753 H3761 0.960 . S
C3754 C3752 1.381 . S
C3754 C3755 1.394 . S
C3754 H3762 0.930 . S
C3755 C3754 1.394 . S
C3755 C3756 1.383 . S
C3755 H3763 0.929 . S
C3756 C3755 1.383 . S
C3756 C3757 1.377 . S
C3757 H3741 0.930 1_655 S
C3757 C3756 1.377 . S
C3757 C3758 1.379 . S
C3758 H3742 0.931 . S
C3758 C3752 1.383 . S
C3758 C3757 1.379 . S
H3759 C3753 0.959 . S
H3760 C3753 0.961 . S
H3761 C3753 0.960 . S
H3762 C3754 0.930 . S
H3763 C3755 0.929 . S
H3764 C3772 0.929 . S
H3765 C3774 0.930 . S
H3766 C3776 0.930 . S
H3767 C3779 0.929 . S
H3768 C3782 0.930 . S
H3769 C3784 0.960 . S
H3770 C3784 0.960 . S
H3771 C3784 0.960 . S
C3772 H3764 0.929 . S
C3772 C3773 1.377 . S
C3772 C3774 1.384 . S
C3773 C3772 1.377 . S
C3773 C3779 1.390 . S
C3774 H3765 0.930 . S
C3774 C3772 1.384 . S
C3774 C3775 1.372 . S
C3775 C3774 1.372 . S
C3775 C3776 1.400 . S
C3775 C3780 1.490 . S
C3776 H3766 0.930 . S
C3776 C3775 1.400 . S
C3776 C3779 1.386 . S
H3777 C3793 0.930 . S
H3778 C3794 0.931 . S
C3779 H3767 0.929 . S
C3779 C3773 1.390 . S
C3779 C3776 1.386 . S
C3780 C3775 1.490 . S
C3780 C3782 1.395 . S
C3780 C3783 1.403 . S
H3781 C3787 0.930 . S
C3782 H3768 0.930 . S
C3782 C3780 1.395 . S
C3782 C3785 1.403 . S
C3783 C3780 1.403 . S
C3783 C3784 1.524 . S
C3783 C3787 1.400 . S
C3784 H3769 0.960 . S
C3784 H3770 0.960 . S
C3784 H3771 0.960 . S
C3784 C3783 1.524 . S
C3785 C3782 1.403 . S
C3785 C3786 1.392 . S
C3785 C3789 1.495 . S
C3786 C3785 1.392 . S
C3786 C3787 1.385 . S
C3786 C3788 1.478 . S
C3787 H3781 0.930 . S
C3787 C3783 1.400 . S
C3787 C3786 1.385 . S
C3788 C3786 1.478 . S
C3788 C3790 1.381 . S
C3788 C3794 1.383 . S
C3789 C3785 1.495 . S
C3789 H3795 0.959 . S
C3789 H3796 0.961 . S
C3789 H3797 0.960 . S
C3790 C3788 1.381 . S
C3790 C3791 1.394 . S
C3790 H3798 0.930 . S
C3791 C3790 1.394 . S
C3791 C3792 1.383 . S
C3791 H3799 0.929 . S
C3792 C3791 1.383 . S
C3792 C3793 1.377 . S
C3793 H3777 0.930 . S
C3793 C3792 1.377 . S
C3793 C3794 1.379 . S
C3794 H3778 0.931 . S
C3794 C3788 1.383 . S
C3794 C3793 1.379 . S
H3795 C3789 0.959 . S
H3796 C3789 0.961 . S
H3797 C3789 0.960 . S
H3798 C3790 0.930 . S
H3799 C3791 0.929 . S
H3800 C3808 0.929 . S
H3801 C3810 0.930 . S
H3802 C3812 0.930 . S
H3803 C3815 0.929 . S
H3804 C3818 0.930 . S
H3805 C3820 0.960 . S
H3806 C3820 0.960 . S
H3807 C3820 0.960 . S
C3808 H3800 0.929 . S
C3808 C3809 1.377 . S
C3808 C3810 1.384 . S
C3809 C3808 1.377 . S
C3809 C3815 1.390 . S
C3810 H3801 0.930 . S
C3810 C3808 1.384 . S
C3810 C3811 1.372 . S
C3811 C3810 1.372 . S
C3811 C3812 1.400 . S
C3811 C3816 1.490 . S
C3812 H3802 0.930 . S
C3812 C3811 1.400 . S
C3812 C3815 1.386 . S
H3813 C3829 0.930 . S
H3814 C3830 0.931 . S
C3815 H3803 0.929 . S
C3815 C3809 1.390 . S
C3815 C3812 1.386 . S
C3816 C3811 1.490 . S
C3816 C3818 1.395 . S
C3816 C3819 1.403 . S
H3817 C3823 0.930 . S
C3818 H3804 0.930 . S
C3818 C3816 1.395 . S
C3818 C3821 1.403 . S
C3819 C3816 1.403 . S
C3819 C3820 1.524 . S
C3819 C3823 1.400 . S
C3820 H3805 0.960 . S
C3820 H3806 0.960 . S
C3820 H3807 0.960 . S
C3820 C3819 1.524 . S
C3821 C3818 1.403 . S
C3821 C3822 1.392 . S
C3821 C3825 1.495 . S
C3822 C3821 1.392 . S
C3822 C3823 1.385 . S
C3822 C3824 1.478 . S
C3823 H3817 0.930 . S
C3823 C3819 1.400 . S
C3823 C3822 1.385 . S
C3824 C3822 1.478 . S
C3824 C3826 1.381 . S
C3824 C3830 1.383 . S
C3825 C3821 1.495 . S
C3825 H3831 0.959 . S
C3825 H3832 0.961 . S
C3825 H3833 0.960 . S
C3826 C3824 1.381 . S
C3826 C3827 1.394 . S
C3826 H3834 0.930 . S
C3827 C3826 1.394 . S
C3827 C3828 1.383 . S
C3827 H3835 0.929 . S
C3828 C3827 1.383 . S
C3828 C3829 1.377 . S
C3829 H3813 0.930 . S
C3829 C3828 1.377 . S
C3829 C3830 1.379 . S
C3830 H3814 0.931 . S
C3830 C3824 1.383 . S
C3830 C3829 1.379 . S
H3831 C3825 0.959 . S
H3832 C3825 0.961 . S
H3833 C3825 0.960 . S
H3834 C3826 0.930 . S
H3835 C3827 0.929 . S
H3836 C3844 0.929 . S
H3837 C3846 0.930 . S
H3838 C3848 0.930 . S
H3839 C3851 0.929 . S
H3840 C3854 0.930 . S
H3841 C3856 0.960 . S
H3842 C3856 0.960 . S
H3843 C3856 0.960 . S
C3844 H3836 0.929 . S
C3844 C3845 1.377 . S
C3844 C3846 1.384 . S
C3845 C3844 1.377 . S
C3845 C3851 1.390 . S
C3846 H3837 0.930 . S
C3846 C3844 1.384 . S
C3846 C3847 1.372 . S
C3847 C3846 1.372 . S
C3847 C3848 1.400 . S
C3847 C3852 1.490 . S
C3848 H3838 0.930 . S
C3848 C3847 1.400 . S
C3848 C3851 1.386 . S
H3849 C3865 0.930 . S
H3850 C3866 0.931 . S
C3851 H3839 0.929 . S
C3851 C3845 1.390 . S
C3851 C3848 1.386 . S
C3852 C3847 1.490 . S
C3852 C3854 1.395 . S
C3852 C3855 1.403 . S
H3853 C3859 0.930 . S
C3854 H3840 0.930 . S
C3854 C3852 1.395 . S
C3854 C3857 1.403 . S
C3855 C3852 1.403 . S
C3855 C3856 1.524 . S
C3855 C3859 1.400 . S
C3856 H3841 0.960 . S
C3856 H3842 0.960 . S
C3856 H3843 0.960 . S
C3856 C3855 1.524 . S
C3857 C3854 1.403 . S
C3857 C3858 1.392 . S
C3857 C3861 1.459 1_565 S
C3858 C3857 1.392 . S
C3858 C3859 1.385 . S
C3858 C3860 1.478 . S
C3859 H3853 0.930 . S
C3859 C3855 1.400 . S
C3859 C3858 1.385 . S
C3860 C3858 1.478 . S
C3860 C3862 1.381 1_565 S
C3860 C3866 1.383 . S
C3861 C3857 1.459 1_545 S
C3861 H3867 0.972 . S
C3861 H3868 0.942 1_545 S
C3861 H3869 1.006 . S
C3862 C3860 1.381 1_545 S
C3862 C3863 1.394 . S
C3862 H3870 0.930 . S
C3863 C3862 1.394 . S
C3863 C3864 1.383 . S
C3863 H3871 0.929 . S
C3864 C3863 1.383 . S
C3864 C3865 1.377 1_545 S
C3865 H3849 0.930 . S
C3865 C3864 1.377 1_565 S
C3865 C3866 1.379 . S
C3866 H3850 0.931 . S
C3866 C3860 1.383 . S
C3866 C3865 1.379 . S
H3867 C3861 0.972 . S
H3868 C3861 0.942 1_565 S
H3869 C3861 1.006 . S
H3870 C3862 0.930 . S
H3871 C3863 0.929 . S
H3872 C3880 0.929 . S
H3873 C3882 0.930 . S
H3874 C3884 0.930 . S
H3875 C3887 0.929 . S
H3876 C3890 0.930 . S
H3877 C3892 0.960 . S
H3878 C3892 0.960 . S
H3879 C3892 0.960 . S
C3880 H3872 0.929 . S
C3880 C3881 1.377 . S
C3880 C3882 1.384 . S
C3881 C3880 1.377 . S
C3881 C3887 1.390 . S
C3882 H3873 0.930 . S
C3882 C3880 1.384 . S
C3882 C3883 1.372 . S
C3883 C3882 1.372 . S
C3883 C3884 1.400 . S
C3883 C3888 1.490 . S
C3884 H3874 0.930 . S
C3884 C3883 1.400 . S
C3884 C3887 1.386 . S
H3885 C3901 0.930 . S
H3886 C3902 0.931 . S
C3887 H3875 0.929 . S
C3887 C3881 1.390 . S
C3887 C3884 1.386 . S
C3888 C3883 1.490 . S
C3888 C3890 1.395 . S
C3888 C3891 1.403 . S
H3889 C3895 0.930 . S
C3890 H3876 0.930 . S
C3890 C3888 1.395 . S
C3890 C3893 1.403 . S
C3891 C3888 1.403 . S
C3891 C3892 1.524 . S
C3891 C3895 1.400 . S
C3892 H3877 0.960 . S
C3892 H3878 0.960 . S
C3892 H3879 0.960 . S
C3892 C3891 1.524 . S
C3893 C3890 1.403 . S
C3893 C3894 1.392 . S
C3893 C3897 1.495 . S
C3894 C3893 1.392 . S
C3894 C3895 1.385 . S
C3894 C3896 1.478 . S
C3895 H3889 0.930 . S
C3895 C3891 1.400 . S
C3895 C3894 1.385 . S
C3896 C3894 1.478 . S
C3896 C3898 1.381 . S
C3896 C3902 1.383 . S
C3897 C3893 1.495 . S
C3897 H3903 0.959 . S
C3897 H3904 0.961 . S
C3897 H3905 0.960 . S
C3898 C3896 1.381 . S
C3898 C3899 1.394 . S
C3898 H3906 0.930 . S
C3899 C3898 1.394 . S
C3899 C3900 1.383 . S
C3899 H3907 0.929 . S
C3900 C3899 1.383 . S
C3900 C3901 1.377 . S
C3901 H3885 0.930 . S
C3901 C3900 1.377 . S
C3901 C3902 1.379 . S
C3902 H3886 0.931 . S
C3902 C3896 1.383 . S
C3902 C3901 1.379 . S
H3903 C3897 0.959 . S
H3904 C3897 0.961 . S
H3905 C3897 0.960 . S
H3906 C3898 0.930 . S
H3907 C3899 0.929 . S
H3908 C3916 0.929 . S
H3909 C3918 0.930 . S
H3910 C3920 0.930 . S
H3911 C3923 0.929 . S
H3912 C3926 0.930 . S
H3913 C3928 0.960 . S
H3914 C3928 0.960 1_554 S
H3915 C3928 0.960 . S
C3916 H3908 0.929 . S
C3916 C3917 1.377 1_554 S
C3916 C3918 1.384 . S
C3917 C3916 1.377 1_556 S
C3917 C3923 1.390 . S
C3918 H3909 0.930 . S
C3918 C3916 1.384 . S
C3918 C3919 1.372 . S
C3919 C3918 1.372 . S
C3919 C3920 1.400 1_554 S
C3919 C3924 1.490 . S
C3920 H3910 0.930 . S
C3920 C3919 1.400 1_556 S
C3920 C3923 1.386 . S
H3921 C3937 0.930 . S
H3922 C3938 0.931 . S
C3923 H3911 0.929 . S
C3923 C3917 1.390 . S
C3923 C3920 1.386 . S
C3924 C3919 1.490 . S
C3924 C3926 1.395 . S
C3924 C3927 1.402 . S
H3925 C3931 0.930 1_556 S
C3926 H3912 0.930 . S
C3926 C3924 1.395 . S
C3926 C3929 1.403 . S
C3927 C3924 1.402 . S
C3927 C3928 1.524 1_554 S
C3927 C3931 1.399 . S
C3928 H3913 0.960 . S
C3928 H3914 0.960 1_556 S
C3928 H3915 0.960 . S
C3928 C3927 1.524 1_556 S
C3929 C3926 1.403 . S
C3929 C3930 1.392 . S
C3929 C3933 1.495 . S
C3930 C3929 1.392 . S
C3930 C3931 1.385 . S
C3930 C3932 1.478 . S
C3931 H3925 0.930 1_554 S
C3931 C3927 1.399 . S
C3931 C3930 1.385 . S
C3932 C3930 1.478 . S
C3932 C3934 1.381 . S
C3932 C3938 1.383 1_554 S
C3933 C3929 1.495 . S
C3933 H3939 0.959 . S
C3933 H3940 0.961 . S
C3933 H3941 0.960 . S
C3934 C3932 1.381 . S
C3934 C3935 1.394 . S
C3934 H3942 0.930 . S
C3935 C3934 1.394 . S
C3935 C3936 1.383 . S
C3935 H3943 0.929 . S
C3936 C3935 1.383 . S
C3936 C3937 1.377 1_554 S
C3937 H3921 0.930 . S
C3937 C3936 1.377 1_556 S
C3937 C3938 1.379 . S
C3938 H3922 0.931 . S
C3938 C3932 1.383 1_556 S
C3938 C3937 1.379 . S
H3939 C3933 0.959 . S
H3940 C3933 0.961 . S
H3941 C3933 0.960 . S
H3942 C3934 0.930 . S
H3943 C3935 0.929 . S
H3944 C3952 0.929 . S
H3945 C3954 0.930 . S
H3946 C3956 0.930 . S
H3947 C3959 0.929 . S
H3948 C3962 0.930 . S
H3949 C3964 0.960 . S
H3950 C3964 0.960 . S
H3951 C3964 0.960 . S
C3952 H3944 0.929 . S
C3952 C3953 1.377 . S
C3952 C3954 1.384 . S
C3953 C3952 1.377 . S
C3953 C3959 1.390 . S
C3954 H3945 0.930 . S
C3954 C3952 1.384 . S
C3954 C3955 1.372 . S
C3955 C3954 1.372 . S
C3955 C3956 1.400 . S
C3955 C3960 1.490 . S
C3956 H3946 0.930 . S
C3956 C3955 1.400 . S
C3956 C3959 1.386 . S
H3957 C3973 0.930 . S
H3958 C3974 0.931 . S
C3959 H3947 0.929 . S
C3959 C3953 1.390 . S
C3959 C3956 1.386 . S
C3960 C3955 1.490 . S
C3960 C3962 1.395 . S
C3960 C3963 1.403 . S
H3961 C3967 0.930 . S
C3962 H3948 0.930 . S
C3962 C3960 1.395 . S
C3962 C3965 1.403 . S
C3963 C3960 1.403 . S
C3963 C3964 1.524 . S
C3963 C3967 1.400 . S
C3964 H3949 0.960 . S
C3964 H3950 0.960 . S
C3964 H3951 0.960 . S
C3964 C3963 1.524 . S
C3965 C3962 1.403 . S
C3965 C3966 1.392 . S
C3965 C3969 1.495 . S
C3966 C3965 1.392 . S
C3966 C3967 1.385 . S
C3966 C3968 1.478 . S
C3967 H3961 0.930 . S
C3967 C3963 1.400 . S
C3967 C3966 1.385 . S
C3968 C3966 1.478 . S
C3968 C3970 1.381 . S
C3968 C3974 1.383 . S
C3969 C3965 1.495 . S
C3969 H3975 0.959 . S
C3969 H3976 0.961 . S
C3969 H3977 0.960 . S
C3970 C3968 1.381 . S
C3970 C3971 1.394 . S
C3970 H3978 0.930 . S
C3971 C3970 1.394 . S
C3971 C3972 1.383 . S
C3971 H3979 0.929 . S
C3972 C3971 1.383 . S
C3972 C3973 1.377 . S
C3973 H3957 0.930 . S
C3973 C3972 1.377 . S
C3973 C3974 1.379 . S
C3974 H3958 0.931 . S
C3974 C3968 1.383 . S
C3974 C3973 1.379 . S
H3975 C3969 0.959 . S
H3976 C3969 0.961 . S
H3977 C3969 0.960 . S
H3978 C3970 0.930 . S
H3979 C3971 0.929 . S
H3980 C3988 0.929 . S
H3981 C3990 0.930 . S
H3982 C3992 0.923 1_556 S
H3983 C3995 0.929 . S
H3984 C3998 0.930 . S
H3985 C4000 0.960 . S
H3986 C4000 0.960 . S
H3987 C4000 0.960 . S
C3988 H3980 0.929 . S
C3988 C3989 1.377 . S
C3988 C3990 1.384 . S
C3989 C3988 1.377 . S
C3989 C3995 1.390 . S
C3990 H3981 0.930 . S
C3990 C3988 1.384 . S
C3990 C3991 1.372 . S
C3991 C3990 1.372 . S
C3991 C3992 1.400 . S
C3991 C3996 1.490 . S
C3992 H3982 0.923 1_554 S
C3992 C3991 1.400 . S
C3992 C3995 1.386 . S
H3993 C4009 0.930 . S
H3994 C4010 0.931 . S
C3995 H3983 0.929 . S
C3995 C3989 1.390 . S
C3995 C3992 1.386 . S
C3996 C3991 1.490 . S
C3996 C3998 1.395 . S
C3996 C3999 1.403 1_554 S
H3997 C4003 0.930 . S
C3998 H3984 0.930 . S
C3998 C3996 1.395 . S
C3998 C4001 1.403 . S
C3999 C3996 1.403 1_556 S
C3999 C4000 1.524 . S
C3999 C4003 1.400 . S
C4000 H3985 0.960 . S
C4000 H3986 0.960 . S
C4000 H3987 0.960 . S
C4000 C3999 1.524 . S
C4001 C3998 1.403 . S
C4001 C4002 1.392 . S
C4001 C4005 1.495 . S
C4002 C4001 1.392 . S
C4002 C4003 1.385 1_554 S
C4002 C4004 1.478 . S
C4003 H3997 0.930 . S
C4003 C3999 1.400 . S
C4003 C4002 1.385 1_556 S
C4004 C4002 1.478 . S
C4004 C4006 1.381 . S
C4004 C4010 1.383 1_554 S
C4005 C4001 1.495 . S
C4005 H4011 0.959 . S
C4005 H4012 0.961 . S
C4005 H4013 0.960 . S
C4006 C4004 1.381 . S
C4006 C4007 1.394 . S
C4006 H4014 0.930 . S
C4007 C4006 1.394 . S
C4007 C4008 1.383 1_554 S
C4007 H4015 0.929 . S
C4008 C4007 1.383 1_556 S
C4008 C4009 1.377 . S
C4009 H3993 0.930 . S
C4009 C4008 1.377 . S
C4009 C4010 1.379 . S
C4010 H3994 0.931 . S
C4010 C4004 1.383 1_556 S
C4010 C4009 1.379 . S
H4011 C4005 0.959 . S
H4012 C4005 0.961 . S
H4013 C4005 0.960 . S
H4014 C4006 0.930 . S
H4015 C4007 0.929 . S
H4016 C4024 0.929 . S
H4017 C4026 0.930 . S
H4018 C4028 0.930 . S
H4019 C4031 0.929 1_545 S
H4020 C4034 0.930 . S
H4021 C4036 0.960 . S
H4022 C4036 0.960 . S
H4023 C4036 0.960 . S
C4024 H4016 0.929 . S
C4024 C4025 1.377 . S
C4024 C4026 1.384 . S
C4025 C4024 1.377 . S
C4025 C4031 1.390 . S
C4026 H4017 0.930 . S
C4026 C4024 1.384 . S
C4026 C4027 1.372 . S
C4027 C4026 1.372 . S
C4027 C4028 1.400 . S
C4027 C4032 1.490 . S
C4028 H4018 0.930 . S
C4028 C4027 1.400 . S
C4028 C4031 1.386 . S
H4029 C4045 0.930 . S
H4030 C4046 0.931 . S
C4031 H4019 0.929 1_565 S
C4031 C4025 1.390 . S
C4031 C4028 1.386 . S
C4032 C4027 1.490 . S
C4032 C4034 1.395 . S
C4032 C4035 1.403 . S
H4033 C4039 0.930 . S
C4034 H4020 0.930 . S
C4034 C4032 1.395 . S
C4034 C4037 1.403 . S
C4035 C4032 1.403 . S
C4035 C4036 1.524 . S
C4035 C4039 1.400 . S
C4036 H4021 0.960 . S
C4036 H4022 0.960 . S
C4036 H4023 0.960 . S
C4036 C4035 1.524 . S
C4037 C4034 1.403 . S
C4037 C4038 1.392 . S
C4037 C4041 1.495 . S
C4038 C4037 1.392 . S
C4038 C4039 1.385 . S
C4038 C4040 1.478 . S
C4039 H4033 0.930 . S
C4039 C4035 1.400 . S
C4039 C4038 1.385 . S
C4040 C4038 1.478 . S
C4040 C4042 1.381 . S
C4040 C4046 1.383 . S
C4041 C4037 1.495 . S
C4041 H4047 0.959 . S
C4041 H4048 0.961 . S
C4041 H4049 0.960 . S
C4042 C4040 1.381 . S
C4042 C4043 1.394 . S
C4042 H4050 0.930 . S
C4043 C4042 1.394 . S
C4043 C4044 1.383 . S
C4043 H4051 0.929 . S
C4044 C4043 1.383 . S
C4044 C4045 1.377 . S
C4045 H4029 0.930 . S
C4045 C4044 1.377 . S
C4045 C4046 1.379 . S
C4046 H4030 0.931 . S
C4046 C4040 1.383 . S
C4046 C4045 1.379 . S
H4047 C4041 0.959 . S
H4048 C4041 0.961 . S
H4049 C4041 0.960 . S
H4050 C4042 0.930 . S
H4051 C4043 0.929 . S
H4052 C4060 0.929 . S
H4053 C4062 0.930 . S
H4054 C4064 0.930 . S
H4055 C4067 0.929 . S
H4056 C4070 0.930 . S
H4057 C4072 0.960 . S
H4058 C4072 0.960 . S
H4059 C4072 0.960 . S
C4060 H4052 0.929 . S
C4060 C4061 1.377 . S
C4060 C4062 1.384 . S
C4061 C4060 1.377 . S
C4061 C4067 1.390 . S
C4062 H4053 0.930 . S
C4062 C4060 1.384 . S
C4062 C4063 1.372 . S
C4063 C4062 1.372 . S
C4063 C4064 1.400 . S
C4063 C4068 1.490 . S
C4064 H4054 0.930 . S
C4064 C4063 1.400 . S
C4064 C4067 1.386 . S
H4065 C4081 0.930 . S
H4066 C4082 0.931 . S
C4067 H4055 0.929 . S
C4067 C4061 1.390 . S
C4067 C4064 1.386 . S
C4068 C4063 1.490 . S
C4068 C4070 1.395 . S
C4068 C4071 1.403 . S
H4069 C4075 0.930 . S
C4070 H4056 0.930 . S
C4070 C4068 1.395 . S
C4070 C4073 1.403 . S
C4071 C4068 1.403 . S
C4071 C4072 1.524 . S
C4071 C4075 1.400 . S
C4072 H4057 0.960 . S
C4072 H4058 0.960 . S
C4072 H4059 0.960 . S
C4072 C4071 1.524 . S
C4073 C4070 1.403 . S
C4073 C4074 1.392 . S
C4073 C4077 1.495 . S
C4074 C4073 1.392 . S
C4074 C4075 1.385 . S
C4074 C4076 1.478 . S
C4075 H4069 0.930 . S
C4075 C4071 1.400 . S
C4075 C4074 1.385 . S
C4076 C4074 1.478 . S
C4076 C4078 1.381 . S
C4076 C4082 1.383 . S
C4077 C4073 1.495 . S
C4077 H4083 0.959 . S
C4077 H4084 0.961 . S
C4077 H4085 0.960 . S
C4078 C4076 1.381 . S
C4078 C4079 1.394 . S
C4078 H4086 0.930 . S
C4079 C4078 1.394 . S
C4079 C4080 1.383 . S
C4079 H4087 0.929 . S
C4080 C4079 1.383 . S
C4080 C4081 1.377 . S
C4081 H4065 0.930 . S
C4081 C4080 1.377 . S
C4081 C4082 1.379 . S
C4082 H4066 0.931 . S
C4082 C4076 1.383 . S
C4082 C4081 1.379 . S
H4083 C4077 0.959 . S
H4084 C4077 0.961 . S
H4085 C4077 0.960 . S
H4086 C4078 0.930 . S
H4087 C4079 0.929 . S
C641 C101 1.189 . S
C660 C328 1.183 . S
C677 C57 1.188 . S
C696 C341 1.185 . S
C713 C73 1.262 . S
C732 C360 1.306 . S
C768 C391 1.905 . S
C749 C78 1.939 . S
C785 C21 1.828 . S
C804 C411 1.809 . S
C840 C428 0.769 . S
C821 C31 0.741 . S
C876 C441 1.468 . S
C857 C49 1.478 . S
C893 C0 0.840 . S
C912 C468 0.869 . S
C948 C321 1.089 . S
C929 C218 1.104 . S
C965 C229 1.306 . S
C984 C351 1.303 . S
C1020 C353 1.702 . S
C1001 C257 1.726 . S
C1056 C388 0.794 . S
C1037 C164 0.753 . S
C1073 C216 1.002 . S
C1092 C408 1.015 . S
C1128 C421 1.764 . S
C1109 C231 1.772 . S
C1164 C451 1.169 . S
C1145 C255 1.139 . S
C1200 C461 1.094 . S
C1181 C166 1.143 . S
C1236 C331 1.544 . S
C1217 C143 1.538 . S
C1253 C265 1.826 . S
C1272 C481 1.843 . S
C1308 C511 1.514 . S
C1289 C299 1.484 . S
C1344 C528 1.115 . S
C1325 C291 1.117 . S
C1361 C104 1.883 . S
C1380 C471 1.874 . S
C1397 C117 1.093 . S
C1416 C358 1.063 . S
C1433 C304 1.815 . S
C1452 C541 1.834 . S
C1488 C568 0.781 . S
C1469 C278 0.754 . S
C1524 C318 1.069 . S
C1505 C60 1.119 . S
C1560 C553 1.139 . S
C1541 C96 1.117 . S
C1577 C88 1.208 . S
C1596 C371 1.175 . S
C1613 C65 1.828 . S
C1632 C540 1.825 . S
C1668 C400 1.732 . S
C1649 C10 1.763 . S
C1685 C44 0.681 . S
C1704 C498 0.654 . S
C1740 C433 1.408 1_556 S
C1721 C34 1.369 . S
C1776 C578 0.823 . S
C1757 C13 0.780 . S
C1812 C313 1.039 . S
C1793 C138 1.002 1_565 S
C1848 C560 1.208 . S
C1829 C296 1.251 . S
C1865 C112 1.580 . S
C1884 C361 1.606 . S
C1901 C270 0.655 . S
C1920 C538 0.692 . S
C1937 C140 0.938 . S
C1956 C398 0.919 . S
C1992 C493 1.690 . S
C1973 C294 1.629 . S
C2009 C114 1.071 . S
C2028 C440 1.080 . S
C2045 C268 1.044 . S
C2064 C573 1.022 . S
C2081 C169 1.450 1_556 S
C2100 C320 1.471 1_556 S
C2117 C161 1.767 . S
C2136 C473 1.776 . S
C2153 C234 1.448 . S
C2172 C420 1.441 . S
C2189 C226 1.014 . S
C2208 C518 1.033 . S
C2244 C580 1.777 . S
C2225 C247 1.780 . S
C2261 C195 1.066 . S
C2280 C368 1.094 . S
C2316 C373 1.778 . S
C2297 C239 1.758 . S
C2352 C338 0.624 . S
C2333 C187 0.675 . S
C2369 C75 1.190 . S
C2388 C608 1.137 . S
C2424 C561 1.214 . S
C2405 C83 1.179 . S
C2441 C99 1.269 . S
C2460 C620 1.322 . S
C2477 C52 1.944 . S
C2496 C551 1.932 . S
C2513 C47 1.826 . S
C2532 C491 1.800 . S
C2568 C508 0.766 . S
C2549 C5 0.740 . S
C2604 C521 1.480 . S
C2585 C23 1.476 . S
C2640 C588 0.874 . S
C2621 C26 0.840 . S
C2676 C601 1.114 . S
C2657 C244 1.106 . S
C2693 C177 1.307 . S
C2712 C571 1.310 . S
C2748 C613 1.703 . S
C2729 C192 1.727 . S
C2784 C548 0.794 . S
C2765 C203 0.759 . S
C2820 C488 1.028 . S
C2801 C242 1.012 . S
C2837 C179 1.773 . S
C2856 C501 1.754 . S
C2892 C531 1.148 . S
C2873 C190 1.134 . S
C2909 C205 1.144 . S
C2928 C581 1.118 . S
C2964 C611 1.546 . S
C2945 C286 1.539 . S
C2981 C122 1.821 . S
C3000 C401 1.868 . S
C3036 C431 1.474 . S
C3017 C130 1.479 . S
C3072 C448 1.139 . S
C3053 C148 1.113 . S
C3108 C591 1.842 . S
C3089 C273 1.878 . S
C3125 C260 1.093 . S
C3144 C618 1.088 . S
C3180 C381 1.854 . S
C3161 C135 1.801 . S
C3216 C348 0.762 . S
C3197 C109 0.752 1_565 S
C3233 C86 1.118 . S
C3252 C598 1.122 . S
C3288 C333 1.109 . S
C3269 C70 1.109 . S
C3305 C62 1.208 . S
C3324 C631 1.208 . S
C3341 C91 1.828 . S
C3360 C380 1.820 . S
C3377 C36 1.766 . S
C3396 C480 1.724 1_556 S
C3432 C418 0.687 . S
C3413 C18 0.670 . S
C3449 C8 1.380 . S
C3468 C513 1.415 . S
C3485 C39 0.781 . S
C3504 C458 0.815 . S
C3540 C593 1.040 . S
C3521 C307 1.004 . S
C3557 C153 1.246 . S
C3576 C340 1.250 . S
C3612 C621 1.623 1_655 S
C3593 C281 1.572 . S
C3629 C127 0.656 . S
C3648 C378 0.642 . S
C3665 C309 0.938 . S
C3684 C478 0.953 . S
C3720 C413 1.688 . S
C3701 C151 1.632 . S
C3737 C283 1.072 . S
C3756 C520 1.058 1_655 S
C3792 C453 1.020 . S
C3773 C125 1.042 . S
C3828 C600 1.468 . S
C3809 C221 1.461 . S
C3864 C393 1.788 . S
C3845 C200 1.771 . S
C3881 C208 1.446 . S
C3900 C500 1.440 . S
C3936 C438 1.007 . S
C3917 C174 1.013 1_556 S
C3953 C182 1.787 . S
C3972 C460 1.807 . S
C3989 C156 1.062 . S
C4008 C628 1.004 . S
C4044 C533 1.771 . S
C4025 C213 1.755 1_565 S
C4080 C558 0.717 . S
C4061 C252 0.672 . S
