# Generated by pormake.
# Topology pts, (4,4)-cn, num edge types: 1
# Building blocks:
#     Node 0, Type 0, BuildingBlock: KOZSID_clean_sbu_0, # of connection points: 4
#     Node 1, Type 0, BuildingBlock: KOZSID_clean_sbu_0, # of connection points: 4
#     Node 2, Type 1, BuildingBlock: AZAVOO_clean_sbu_0, # of connection points: 4
#     Node 3, Type 1, BuildingBlock: AZAVOO_clean_sbu_0, # of connection points: 4
#     Edge 4, Type (0, 1), BuildingBlock: UVAHIK_clean_linker_0, # of connection points: 2
#     Edge 5, Type (0, 1), BuildingBlock: UVAHIK_clean_linker_0, # of connection points: 2
#     Edge 6, Type (0, 1), BuildingBlock: UVAHIK_clean_linker_0, # of connection points: 2
#     Edge 7, Type (0, 1), BuildingBlock: UVAHIK_clean_linker_0, # of connection points: 2
#     Edge 8, Type (0, 1), BuildingBlock: UVAHIK_clean_linker_0, # of connection points: 2
#     Edge 9, Type (0, 1), BuildingBlock: UVAHIK_clean_linker_0, # of connection points: 2
#     Edge 10, Type (0, 1), BuildingBlock: UVAHIK_clean_linker_0, # of connection points: 2
#     Edge 11, Type (0, 1), BuildingBlock: UVAHIK_clean_linker_0, # of connection points: 2
# Relax obj value: 0.000
# Max RMSD: 0.031
# Mean RMSD: 0.016
data_MOF--net-pts--node1-KOZSID_clean_sbu_0--node2-AZAVOO_clean_sbu_0--edge1-UVAHIK_clean_linker_0
_symmetry_space_group_name_H-M    P1
_symmetry_Int_Tables_number       1
_symmetry_cell_setting            triclinic
loop_
_symmetry_equiv_pos_as_xyz
'x, y, z'
_cell_length_a     33.745809
_cell_length_b     34.422015
_cell_length_c     50.432632
_cell_angle_alpha  86.768593
_cell_angle_beta   99.159688
_cell_angle_gamma 90.353582
loop_
_atom_site_label
_atom_site_type_symbol
_atom_site_fract_x
_atom_site_fract_y
_atom_site_fract_z
_atom_type_partial_charge
C0 C 0.61397 0.0833 0.04922 0.0
C1 C 0.62835 0.11903 0.05794 0.0
C2 C 0.60479 0.14679 0.04284 0.0
C3 C 0.57755 0.12654 0.02581 0.0
N4 N 0.58186 0.08743 0.02937 0.0
Co5 Co 0.55006 0.04696 0.00805 0.0
N6 N 0.51794 0.0879 0.9841 0.0
C7 C 0.52192 0.12696 0.98514 0.0
C8 C 0.49457 0.14757 0.96674 0.0
C9 C 0.47131 0.12009 0.95337 0.0
C10 C 0.48595 0.08415 0.96443 0.0
N11 N 0.51819 0.00646 0.98682 0.0
C12 C 0.48605 0.01057 0.967 0.0
C13 C 0.47176 0.97486 0.95819 0.0
C14 C 0.49522 0.9471 0.97336 0.0
C15 C 0.52241 0.96736 0.99043 0.0
N16 N 0.58226 0.006 0.03192 0.0
C17 C 0.57829 0.96694 0.03089 0.0
C18 C 0.60567 0.94633 0.04927 0.0
C19 C 0.62901 0.97382 0.06257 0.0
C20 C 0.61445 0.00973 0.05142 0.0
N21 N 0.50948 0.04654 0.03263 0.0
C22 C 0.44594 0.04628 0.06282 0.0
C23 C 0.46288 0.01148 0.05694 0.0
C24 C 0.49442 0.01228 0.042 0.0
C25 C 0.46246 0.08117 0.05427 0.0
C26 C 0.49402 0.08063 0.03946 0.0
N27 N 0.59058 0.04746 0.98343 0.0
C28 C 0.63569 0.01323 0.95999 0.0
C29 C 0.65182 0.04829 0.95132 0.0
C30 C 0.63619 0.0829 0.95853 0.0
C31 C 0.60575 0.08184 0.97433 0.0
C32 C 0.60536 0.01349 0.97589 0.0
H33 H 0.59525 0.10924 0.97908 0.0
H34 H 0.59474 0.98582 0.98212 0.0
H35 H 0.50554 0.98479 0.03783 0.0
H36 H 0.50493 0.10822 0.03341 0.0
C37 C 0.54966 0.14339 0.00494 0.0
C38 C 0.63322 0.04642 0.05927 0.0
C39 C 0.4671 0.04743 0.95666 0.0
C40 C 0.5504 0.95051 0.01121 0.0
H41 H 0.65393 0.12451 0.07313 0.0
H42 H 0.60804 0.17804 0.04354 0.0
H43 H 0.4911 0.17885 0.964 0.0
H44 H 0.44577 0.12586 0.93775 0.0
H45 H 0.44639 0.96946 0.94281 0.0
H46 H 0.49207 0.91585 0.97259 0.0
H47 H 0.60905 0.91505 0.05209 0.0
H48 H 0.65447 0.96812 0.07828 0.0
H49 H 0.45111 0.98365 0.06311 0.0
H50 H 0.45102 0.10891 0.05889 0.0
H51 H 0.64696 0.9856 0.95503 0.0
H52 H 0.64719 0.11083 0.95186 0.0
C53 C 0.08646 0.48788 0.55135 0.0
C54 C 0.12451 0.47684 0.56432 0.0
C55 C 0.15134 0.49686 0.5513 0.0
C56 C 0.12836 0.51915 0.53136 0.0
N57 N 0.08836 0.51468 0.53082 0.0
Co58 Co 0.04423 0.54283 0.50581 0.0
N59 N 0.08397 0.57435 0.488 0.0
C60 C 0.12449 0.57268 0.49405 0.0
C61 C 0.1438 0.5985 0.47888 0.0
C62 C 0.11388 0.61803 0.46215 0.0
C63 C 0.07788 0.60274 0.46803 0.0
N64 N 1.0001 0.57063 0.48059 0.0
C65 C 0.002 0.59905 0.46111 0.0
C66 C 0.9641 0.60994 0.44787 0.0
C67 C 0.93722 0.58785 0.45954 0.0
C68 C 0.96014 0.56474 0.47906 0.0
N69 N 0.00447 0.51187 0.52398 0.0
C70 C 0.96394 0.5136 0.51788 0.0
C71 C 0.94453 0.48872 0.53359 0.0
C72 C 0.97435 0.47011 0.55098 0.0
C73 C 0.01046 0.48502 0.54496 0.0
N74 N 0.04366 0.58353 0.53201 0.0
C75 C 0.04304 0.64232 0.56849 0.0
C76 C 0.00722 0.62635 0.556 0.0
C77 C 0.00821 0.5973 0.53786 0.0
C78 C 0.07914 0.62803 0.56274 0.0
C79 C 0.07877 0.59876 0.5447 0.0
N80 N 0.04488 0.50202 0.47949 0.0
C81 C 0.01018 0.45463 0.45064 0.0
C82 C 0.04585 0.44439 0.44214 0.0
C83 C 0.08101 0.46344 0.45246 0.0
C84 C 0.07993 0.49164 0.47118 0.0
C85 C 0.0103 0.48354 0.46897 0.0
H86 H 0.10793 0.50439 0.47871 0.0
H87 H 0.98203 0.49031 0.47427 0.0
H88 H 0.97993 0.58668 0.52865 0.0
H89 H 0.10728 0.58907 0.54127 0.0
C90 C 0.14353 0.54643 0.51408 0.0
C91 C 0.04956 0.4724 0.55954 0.0
C92 C 0.03877 0.61664 0.45442 0.0
C93 C 0.94495 0.53831 0.49685 0.0
H94 H 0.13221 0.45678 0.58165 0.0
H95 H 0.18375 0.49596 0.5562 0.0
H96 H 0.17582 0.60275 0.47996 0.0
H97 H 0.11814 0.6411 0.4474 0.0
H98 H 0.95665 0.6317 0.43152 0.0
H99 H 0.90482 0.58876 0.45455 0.0
H100 H 0.9125 0.48443 0.53243 0.0
H101 H 0.96983 0.4479 0.56623 0.0
H102 H 0.9785 0.63685 0.55968 0.0
H103 H 0.10765 0.63929 0.57221 0.0
H104 H 0.98217 0.44063 0.44296 0.0
H105 H 0.1094 0.45599 0.44658 0.0
Mg106 Mg 0.0951 0.02908 0.2718 0.0
O107 O 0.0315 0.02876 0.24653 0.0
O108 O 0.98848 0.0202 0.27583 0.0
Mg109 Mg 0.02259 0.01609 0.3185 0.0
C110 C 0.99574 0.02513 0.25178 0.0
C111 C 0.12075 0.02996 0.21526 0.0
O112 O 0.09817 -0.00132 0.21451 0.0
O113 O 0.08454 0.09085 0.28348 0.0
O114 O 0.04025 0.08 0.31179 0.0
O115 O 0.09881 0.96441 0.27148 0.0
O116 O 0.07498 0.99569 0.3026 0.0
C117 C 0.06173 0.10289 0.29922 0.0
C118 C 0.08192 0.96313 0.29283 0.0
O119 O 0.12337 0.05062 0.23558 0.0
Mg120 Mg 0.0088 0.0427 0.74075 0.0
O121 O 0.07133 0.03762 0.76736 0.0
O122 O 0.11487 0.03072 0.73878 0.0
Mg123 Mg 0.08234 0.0299 0.69573 0.0
C124 C 0.1072 0.03374 0.76257 0.0
C125 C 0.94294 0.04673 0.77216 0.0
O126 O 0.93098 0.02744 0.75057 0.0
O127 O 0.02335 0.10538 0.72755 0.0
O128 O 0.06548 0.09346 0.69895 0.0
O129 O 0.00093 0.97801 0.74275 0.0
O130 O 0.02867 0.01057 0.71163 0.0
C131 C 0.04576 0.11713 0.71053 0.0
C132 C 0.01861 0.97758 0.72183 0.0
O133 O 0.97817 0.06091 0.77532 0.0
C134 C 0.40827 0.01969 0.09902 0.0
C135 C 0.41072 0.04629 0.07716 0.0
C136 C 0.37482 0.0195 0.1122 0.0
C137 C 0.28958 0.0805 0.12306 0.0
H138 H 0.24669 0.98185 0.14629 0.0
C139 C 0.17698 0.06669 0.19836 0.0
C140 C 0.1478 0.03727 0.1951 0.0
C141 C 0.20621 0.06996 0.18159 0.0
C142 C 0.25793 0.00967 0.13965 0.0
H143 H 0.37957 0.09312 0.05173 0.0
H144 H 0.32125 0.09274 0.07469 0.0
H145 H 0.30348 0.98259 0.12196 0.0
H146 H 0.12501 0.98973 0.17058 0.0
H147 H 0.17559 0.99586 0.14109 0.0
H148 H 0.24369 0.10755 0.14054 0.0
C149 C 0.34549 0.07247 0.08195 0.0
C150 C 0.2909 0.01008 0.12603 0.0
C151 C 0.37895 0.07269 0.0688 0.0
C152 C 0.14724 0.01252 0.1738 0.0
C153 C 0.17643 0.01584 0.15701 0.0
C154 C 0.25658 0.08009 0.1367 0.0
C155 C 0.34299 0.04584 0.10379 0.0
C156 C 0.30731 0.04549 0.11774 0.0
C157 C 0.20687 0.04396 0.16114 0.0
C158 C 0.2405 0.04466 0.1453 0.0
H159 H 0.43246 -0.00068 0.10617 0.0
H160 H 0.37416 -0.00097 0.12924 0.0
H161 H 0.30167 0.1083 0.11714 0.0
H162 H 0.17828 0.08626 0.21456 0.0
H163 H 0.22935 0.09179 0.18547 0.0
C164 C 0.06841 0.40506 0.57817 0.0
C165 C 0.05179 0.44137 0.58143 0.0
C166 C 0.07006 0.37553 0.59841 0.0
C167 C 0.0185 0.33444 0.64937 0.0
H168 H 0.11911 0.28142 0.67636 0.0
C169 C 0.02471 0.18721 0.71202 0.0
C170 C 0.04916 0.15922 0.70323 0.0
C171 C 0.02692 0.22647 0.70325 0.0
C172 C 0.09073 0.29585 0.66903 0.0
H173 H 0.02363 0.47558 0.60803 0.0
H174 H 0.02497 0.42287 0.64329 0.0
H175 H 0.11905 0.34157 0.64837 0.0
H176 H 0.09596 0.15094 0.67901 0.0
H177 H 0.09909 0.2182 0.66354 0.0
H178 H 0.98975 0.2873 0.66829 0.0
C179 C 0.03734 0.41775 0.62524 0.0
C180 C 0.09081 0.33034 0.65316 0.0
C181 C 0.03657 0.44768 0.6052 0.0
C182 C 0.07653 0.17151 0.6862 0.0
C183 C 0.07869 0.2104 0.67751 0.0
C184 C 0.01831 0.29948 0.66493 0.0
C185 C 0.05429 0.38154 0.622 0.0
C186 C 0.05462 0.34922 0.64253 0.0
C187 C 0.05375 0.2384 0.68568 0.0
C188 C 0.05434 0.27904 0.67408 0.0
H189 H 0.07997 0.39956 0.55988 0.0
H190 H 0.08285 0.34763 0.59539 0.0
H191 H 0.99022 0.34858 0.64126 0.0
H192 H 0.00337 0.17872 0.72519 0.0
H193 H 0.00743 0.24739 0.71002 0.0
C194 C 0.7079 0.03965 0.06687 0.0
C195 C 0.67249 0.04615 0.0772 0.0
C196 C 0.745 0.03924 0.08381 0.0
C197 C 0.79388 0.07113 0.15009 0.0
H198 H 0.87374 0.99284 0.14415 0.0
C199 C 0.92209 0.03214 0.23574 0.0
C200 C 0.96107 0.02817 0.22965 0.0
C201 C 0.88911 0.03615 0.21532 0.0
C202 C 0.85194 0.0152 0.14578 0.0
H203 H 0.64717 0.05668 0.11288 0.0
H204 H 0.71185 0.05546 0.14277 0.0
H205 H 0.81132 0.99626 0.11192 0.0
H206 H 0.99575 0.02477 0.19713 0.0
H207 H 0.9375 0.03135 0.1612 0.0
H208 H 0.83395 0.08937 0.18435 0.0
C209 C 0.71137 0.05148 0.12157 0.0
C210 C 0.8162 0.01719 0.12734 0.0
C211 C 0.67437 0.05195 0.10462 0.0
C212 C 0.96615 0.02784 0.2025 0.0
C213 C 0.93286 0.03147 0.18196 0.0
C214 C 0.82939 0.06899 0.16855 0.0
C215 C 0.74718 0.04526 0.11137 0.0
C216 C 0.78644 0.04475 0.12961 0.0
C217 C 0.89408 0.03605 0.18823 0.0
C218 C 0.85845 0.04056 0.1669 0.0
H219 H 0.70679 0.03507 0.04568 0.0
H220 H 0.77197 0.0347 0.07527 0.0
H221 H 0.77207 0.09333 0.15203 0.0
H222 H 0.91692 0.03256 0.25638 0.0
H223 H 0.85953 0.03902 0.22078 0.0
C224 C 0.06728 0.70727 0.5839 0.0
C225 C 0.04281 0.67461 0.58665 0.0
C226 C 0.06623 0.73845 0.60026 0.0
C227 C 0.04048 0.76699 0.66423 0.0
H228 H 0.02884 0.86982 0.6283 0.0
C229 C 0.00907 0.90573 0.71804 0.0
C230 C 0.02617 0.94076 0.7097 0.0
C231 C 0.01282 0.87176 0.70464 0.0
C232 C 0.03279 0.84143 0.63878 0.0
H233 H 0.99885 0.64844 0.60911 0.0
H234 H 0.99712 0.70321 0.63792 0.0
H235 H 0.03231 0.81328 0.602 0.0
H236 H 0.06201 0.96705 0.68143 0.0
H237 H 0.07001 0.90797 0.659 0.0
H238 H 0.04154 0.79526 0.70111 0.0
C239 C 0.01704 0.70453 0.62305 0.0
C240 C 0.03458 0.80903 0.62365 0.0
C241 C 0.01778 0.67343 0.60645 0.0
C242 C 0.04841 0.94074 0.68844 0.0
C243 C 0.05261 0.90681 0.67531 0.0
C244 C 0.03909 0.79955 0.67948 0.0
C245 C 0.04093 0.7375 0.61986 0.0
C246 C 0.03859 0.77154 0.6362 0.0
C247 C 0.03404 0.87212 0.68277 0.0
C248 C 0.03544 0.83719 0.66691 0.0
H249 H 0.08663 0.70909 0.56867 0.0
H250 H 0.08518 0.76341 0.59755 0.0
H251 H 0.0438 0.73835 0.67439 0.0
H252 H 0.9916 0.9048 0.73432 0.0
H253 H 0.99787 0.84564 0.71081 0.0
C254 C 0.42678 0.05359 0.91063 0.0
C255 C 0.4281 0.04747 0.93843 0.0
C256 C 0.39005 0.05343 0.89339 0.0
C257 C 0.28497 0.01981 0.8891 0.0
H258 H 0.26863 0.09282 0.82691 0.0
C259 C 0.13606 0.03389 0.81194 0.0
C260 C 0.14163 0.0347 0.78485 0.0
C261 C 0.16911 0.03631 0.83252 0.0
C262 C 0.2728 0.0722 0.84417 0.0
H263 H 0.39309 0.03614 0.97036 0.0
H264 H 0.32837 0.03633 0.94025 0.0
H265 H 0.33 0.09592 0.85944 0.0
H266 H 0.18651 0.03833 0.75829 0.0
H267 H 0.24345 0.04272 0.79392 0.0
H268 H 0.2275 0.99614 0.87353 0.0
C269 C 0.35557 0.04087 0.93165 0.0
C270 C 0.30803 0.07386 0.86275 0.0
C271 C 0.39241 0.04097 0.94888 0.0
C272 C 0.1809 0.03763 0.77887 0.0
C273 C 0.21365 0.04044 0.79929 0.0
C274 C 0.2495 0.01832 0.87051 0.0
C275 C 0.35395 0.04722 0.90368 0.0
C276 C 0.31497 0.04717 0.88515 0.0
C277 C 0.20816 0.04013 0.8263 0.0
C278 C 0.24351 0.04399 0.84757 0.0
H279 H 0.4542 0.05834 0.9023 0.0
H280 H 0.39001 0.05766 0.87195 0.0
H281 H 0.28947 -0.00134 0.90603 0.0
H282 H 0.10623 0.03159 0.81725 0.0
H283 H 0.16409 0.03603 0.85321 0.0
C284 C 0.06427 0.4193 0.40002 0.0
C285 C 0.04649 0.4132 0.42324 0.0
C286 C 0.06461 0.38962 0.38221 0.0
C287 C 0.0168 0.2941 0.36545 0.0
H288 H 0.10896 0.2808 0.32976 0.0
C289 C 0.02327 0.1633 0.30175 0.0
C290 C 0.06043 0.14447 0.30406 0.0
C291 C 0.02094 0.20073 0.31066 0.0
C292 C 0.08309 0.28386 0.33971 0.0
H293 H 0.01617 0.37135 0.44658 0.0
H294 H 0.01821 0.31907 0.41637 0.0
H295 H 0.10657 0.33561 0.35785 0.0
H296 H 0.12446 0.14989 0.31644 0.0
H297 H 0.12053 0.21438 0.33359 0.0
H298 H 0.99461 0.24104 0.34926 0.0
C299 C 0.03049 0.34706 0.41109 0.0
C300 C 0.08142 0.31574 0.35554 0.0
C301 C 0.02952 0.3769 0.42857 0.0
C302 C 0.09551 0.16417 0.31428 0.0
C303 C 0.09313 0.20124 0.32399 0.0
C304 C 0.01882 0.26193 0.35013 0.0
C305 C 0.04776 0.35304 0.38754 0.0
C306 C 0.04851 0.32091 0.369 0.0
C307 C 0.05562 0.21954 0.32308 0.0
C308 C 0.05219 0.256 0.33726 0.0
H309 H 0.07734 0.44722 0.39545 0.0
H310 H 0.07769 0.39556 0.36414 0.0
H311 H 0.99046 0.29751 0.37489 0.0
H312 H 0.99586 0.14859 0.29369 0.0
H313 H 0.99166 0.21426 0.30865 0.0
C314 C 0.71718 0.07458 0.94011 0.0
C315 C 0.68474 0.04878 0.93493 0.0
C316 C 0.74818 0.07497 0.92469 0.0
C317 C 0.79375 0.01502 0.87857 0.0
H318 H 0.83722 0.11321 0.85481 0.0
C319 C 0.88045 0.02776 0.78998 0.0
C320 C 0.91627 0.04926 0.79266 0.0
C321 C 0.85535 0.02841 0.80935 0.0
C322 C 0.82576 0.08558 0.86162 0.0
H323 H 0.65908 0.00366 0.90921 0.0
H324 H 0.7128 0.00455 0.88217 0.0
H325 H 0.78688 0.11281 0.88476 0.0
H326 H 0.95351 0.08892 0.81766 0.0
H327 H 0.9089 0.09045 0.85165 0.0
H328 H 0.83175 0.98789 0.85485 0.0
C329 C 0.71483 0.02393 0.89852 0.0
C330 C 0.79694 0.0853 0.87878 0.0
C331 C 0.68395 0.02345 0.91398 0.0
C332 C 0.92613 0.07201 0.81507 0.0
C333 C 0.90062 0.07297 0.83444 0.0
C334 C 0.82228 0.01534 0.86135 0.0
C335 C 0.74739 0.04962 0.90371 0.0
C336 C 0.78007 0.05002 0.88706 0.0
C337 C 0.86519 0.05078 0.83187 0.0
C338 C 0.83806 0.05063 0.8523 0.0
H339 H 0.71892 0.09409 0.95637 0.0
H340 H 0.77303 0.09476 0.92947 0.0
H341 H 0.78217 0.98728 0.88507 0.0
H342 H 0.87181 0.00995 0.77297 0.0
H343 H 0.82794 0.01153 0.80659 0.0
C344 C 0.02544 0.68677 0.441 0.0
C345 C 0.03645 0.64987 0.43427 0.0
C346 C 0.02518 0.71861 0.42256 0.0
C347 C 0.07086 0.75285 0.36412 0.0
H348 H 0.99045 0.83428 0.35778 0.0
C349 C 0.07619 0.89044 0.29378 0.0
C350 C 0.07046 0.92575 0.30537 0.0
C351 C 0.06755 0.85503 0.30661 0.0
C352 C 0.01319 0.81183 0.3594 0.0
H353 H 0.05479 0.61642 0.40327 0.0
H354 H 0.05417 0.67217 0.37071 0.0
H355 H 0.98332 0.77514 0.38564 0.0
H356 H 0.05085 0.95156 0.33937 0.0
H357 H 0.03587 0.89004 0.36164 0.0
H358 H 0.10117 0.78984 0.33836 0.0
C359 C 0.04618 0.67671 0.39027 0.0
C360 C 0.00913 0.77799 0.37536 0.0
C361 C 0.04638 0.64487 0.40874 0.0
C362 C 0.05517 0.92496 0.32972 0.0
C363 C 0.04645 0.88964 0.34248 0.0
C364 C 0.0749 0.78667 0.34815 0.0
C365 C 0.03595 0.71403 0.39708 0.0
C366 C 0.03828 0.74841 0.37827 0.0
C367 C 0.05294 0.85426 0.33123 0.0
C368 C 0.04648 0.81682 0.34599 0.0
H369 H 0.01781 0.69102 0.46071 0.0
H370 H 0.01771 0.74703 0.42857 0.0
H371 H 0.09411 0.73083 0.3662 0.0
H372 H 0.08786 0.89009 0.27499 0.0
H373 H 0.07251 0.82824 0.29732 0.0
loop_
_geom_bond_atom_site_label_1
_geom_bond_atom_site_label_2
_geom_bond_distance
_geom_bond_site_symmetry_2
_ccdc_geom_bond_type
C0 C1 1.443 . S
C0 N4 1.376 . S
C0 C38 1.389 . S
C1 C0 1.443 . S
C1 C2 1.340 . S
C1 H41 0.951 . S
C2 C1 1.340 . S
C2 C3 1.439 . S
C2 H42 0.950 . S
C3 C2 1.439 . S
C3 N4 1.374 . S
C3 C37 1.395 . S
N4 C0 1.376 . S
N4 C3 1.374 . S
N4 Co5 2.008 . S
Co5 N4 2.008 . S
Co5 N6 1.995 1_554 S
Co5 N11 2.008 1_544 S
Co5 N16 1.995 1_545 S
Co5 N21 2.282 . S
Co5 N27 2.282 1_554 S
N6 Co5 1.995 1_556 S
N6 C7 1.376 . S
N6 C10 1.383 . S
C7 N6 1.376 . S
C7 C8 1.446 . S
C7 C37 1.391 1_556 S
C8 C7 1.446 . S
C8 C9 1.339 . S
C8 H43 0.949 . S
C9 C8 1.339 . S
C9 C10 1.439 . S
C9 H44 0.950 . S
C10 N6 1.383 . S
C10 C9 1.439 . S
C10 C39 1.392 . S
N11 Co5 2.008 1_566 S
N11 C12 1.376 1_565 S
N11 C15 1.374 . S
C12 N11 1.376 1_545 S
C12 C13 1.443 1_545 S
C12 C39 1.389 . S
C13 C12 1.443 1_565 S
C13 C14 1.340 . S
C13 H45 0.951 . S
C14 C13 1.340 . S
C14 C15 1.439 . S
C14 H46 0.950 . S
C15 N11 1.374 . S
C15 C14 1.439 . S
C15 C40 1.395 1_556 S
N16 Co5 1.995 1_565 S
N16 C17 1.376 . S
N16 C20 1.383 . S
C17 N16 1.376 . S
C17 C18 1.446 . S
C17 C40 1.391 . S
C18 C17 1.446 . S
C18 C19 1.339 . S
C18 H47 0.949 . S
C19 C18 1.339 . S
C19 C20 1.439 . S
C19 H48 0.950 . S
C20 N16 1.383 . S
C20 C19 1.439 . S
C20 C38 1.391 1_565 S
N21 Co5 2.282 . S
N21 C24 1.332 . S
N21 C26 1.332 . S
C22 C23 1.386 . S
C22 C25 1.388 . S
C23 C22 1.386 . S
C23 C24 1.382 . S
C23 H49 0.950 1_545 S
C24 N21 1.332 . S
C24 C23 1.382 . S
C24 H35 0.952 1_545 S
C25 C22 1.388 . S
C25 C26 1.382 . S
C25 H50 0.950 . S
C26 N21 1.332 . S
C26 C25 1.382 . S
C26 H36 0.948 . S
N27 Co5 2.282 1_556 S
N27 C31 1.332 . S
N27 C32 1.332 . S
C28 C29 1.388 . S
C28 C32 1.382 . S
C28 H51 0.950 1_545 S
C29 C28 1.388 . S
C29 C30 1.386 . S
C30 C29 1.386 . S
C30 C31 1.382 . S
C30 H52 0.950 . S
C31 N27 1.332 . S
C31 C30 1.382 . S
C31 H33 0.952 . S
C32 N27 1.332 . S
C32 C28 1.382 . S
C32 H34 0.948 1_545 S
H33 C31 0.952 . S
H34 C32 0.948 1_565 S
H35 C24 0.952 1_565 S
H36 C26 0.948 . S
C37 C3 1.395 . S
C37 C7 1.391 1_554 S
C38 C0 1.389 . S
C38 C20 1.391 1_545 S
C39 C10 1.392 . S
C39 C12 1.389 . S
C40 C15 1.395 1_554 S
C40 C17 1.391 . S
H41 C1 0.951 . S
H42 C2 0.950 . S
H43 C8 0.949 . S
H44 C9 0.950 . S
H45 C13 0.951 . S
H46 C14 0.950 . S
H47 C18 0.949 . S
H48 C19 0.950 . S
H49 C23 0.950 1_565 S
H50 C25 0.950 . S
H51 C28 0.950 1_565 S
H52 C30 0.950 . S
C53 C54 1.443 . S
C53 N57 1.376 . S
C53 C91 1.389 . S
C54 C53 1.443 . S
C54 C55 1.340 . S
C54 H94 0.951 . S
C55 C54 1.340 . S
C55 C56 1.439 . S
C55 H95 0.950 . S
C56 C55 1.439 . S
C56 N57 1.374 . S
C56 C90 1.395 . S
N57 C53 1.376 . S
N57 C56 1.374 . S
N57 Co58 2.008 . S
Co58 N57 2.008 . S
Co58 N59 1.995 . S
Co58 N64 2.008 . S
Co58 N69 1.995 . S
Co58 N74 2.282 . S
Co58 N80 2.282 . S
N59 Co58 1.995 . S
N59 C60 1.376 . S
N59 C63 1.383 . S
C60 N59 1.376 . S
C60 C61 1.446 . S
C60 C90 1.391 . S
C61 C60 1.446 . S
C61 C62 1.339 . S
C61 H96 0.949 . S
C62 C61 1.339 . S
C62 C63 1.439 . S
C62 H97 0.950 . S
C63 N59 1.383 . S
C63 C62 1.439 . S
C63 C92 1.392 . S
N64 Co58 2.008 . S
N64 C65 1.376 . S
N64 C68 1.374 1_455 S
C65 N64 1.376 . S
C65 C66 1.443 1_455 S
C65 C92 1.389 . S
C66 C65 1.443 1_655 S
C66 C67 1.340 . S
C66 H98 0.951 . S
C67 C66 1.340 . S
C67 C68 1.439 . S
C67 H99 0.950 . S
C68 N64 1.374 1_655 S
C68 C67 1.439 . S
C68 C93 1.395 . S
N69 Co58 1.995 . S
N69 C70 1.376 1_455 S
N69 C73 1.383 . S
C70 N69 1.376 1_655 S
C70 C71 1.446 . S
C70 C93 1.391 . S
C71 C70 1.446 . S
C71 C72 1.339 . S
C71 H100 0.949 . S
C72 C71 1.339 . S
C72 C73 1.439 1_655 S
C72 H101 0.950 . S
C73 N69 1.383 . S
C73 C72 1.439 1_455 S
C73 C91 1.392 . S
N74 Co58 2.282 . S
N74 C77 1.332 . S
N74 C79 1.332 . S
C75 C76 1.386 . S
C75 C78 1.388 . S
C76 C75 1.386 . S
C76 C77 1.382 . S
C76 H102 0.950 1_455 S
C77 N74 1.332 . S
C77 C76 1.382 . S
C77 H88 0.952 1_455 S
C78 C75 1.388 . S
C78 C79 1.382 . S
C78 H103 0.950 . S
C79 N74 1.332 . S
C79 C78 1.382 . S
C79 H89 0.948 . S
N80 Co58 2.282 . S
N80 C84 1.332 . S
N80 C85 1.332 . S
C81 C82 1.388 . S
C81 C85 1.382 . S
C81 H104 0.950 1_455 S
C82 C81 1.388 . S
C82 C83 1.386 . S
C83 C82 1.386 . S
C83 C84 1.382 . S
C83 H105 0.950 . S
C84 N80 1.332 . S
C84 C83 1.382 . S
C84 H86 0.952 . S
C85 N80 1.332 . S
C85 C81 1.382 . S
C85 H87 0.948 1_455 S
H86 C84 0.952 . S
H87 C85 0.948 1_655 S
H88 C77 0.952 1_655 S
H89 C79 0.948 . S
C90 C56 1.395 . S
C90 C60 1.391 . S
C91 C53 1.389 . S
C91 C73 1.392 . S
C92 C63 1.392 . S
C92 C65 1.389 . S
C93 C68 1.395 . S
C93 C70 1.391 . S
H94 C54 0.951 . S
H95 C55 0.950 . S
H96 C61 0.949 . S
H97 C62 0.950 . S
H98 C66 0.951 . S
H99 C67 0.950 . S
H100 C71 0.949 . S
H101 C72 0.950 . S
H102 C76 0.950 1_655 S
H103 C78 0.950 . S
H104 C81 0.950 1_655 S
H105 C83 0.950 . S
Mg106 O107 2.028 . S
Mg106 O113 1.986 . S
Mg106 O115 2.114 1_545 S
Mg106 O116 2.251 . S
Mg106 O119 2.010 . S
O107 Mg106 2.028 . S
O107 C110 1.250 1_455 S
O108 Mg109 2.028 . S
O108 C110 1.248 . S
Mg109 O108 2.028 . S
Mg109 O114 2.032 1_655 S
Mg109 O116 2.079 1_655 S
C110 O107 1.250 1_655 S
C110 O108 1.248 . S
C111 O112 1.264 . S
C111 O119 1.249 . S
O112 C111 1.264 . S
O113 Mg106 1.986 . S
O113 C117 1.246 . S
O114 Mg109 2.032 1_455 S
O114 C117 1.259 . S
O115 Mg106 2.114 1_565 S
O115 C118 1.252 . S
O116 Mg106 2.251 . S
O116 Mg109 2.079 1_455 S
O116 C118 1.273 1_545 S
C117 O113 1.246 . S
C117 O114 1.259 . S
C118 O115 1.252 . S
C118 O116 1.273 1_565 S
O119 Mg106 2.010 . S
O119 C111 1.249 . S
Mg120 O121 2.028 . S
Mg120 O127 1.986 . S
Mg120 O129 2.114 1_545 S
Mg120 O130 2.251 . S
Mg120 O133 2.010 1_455 S
O121 Mg120 2.028 . S
O121 C124 1.250 . S
O122 Mg123 2.028 . S
O122 C124 1.248 . S
Mg123 O122 2.028 . S
Mg123 O128 2.032 . S
Mg123 O130 2.079 . S
C124 O121 1.250 . S
C124 O122 1.248 . S
C125 O126 1.264 . S
C125 O133 1.249 . S
O126 C125 1.264 . S
O127 Mg120 1.986 . S
O127 C131 1.246 . S
O128 Mg123 2.032 . S
O128 C131 1.259 . S
O129 Mg120 2.114 1_565 S
O129 C132 1.252 . S
O130 Mg120 2.251 . S
O130 Mg123 2.079 . S
O130 C132 1.273 1_545 S
C131 O127 1.246 . S
C131 O128 1.259 . S
C132 O129 1.252 . S
C132 O130 1.273 1_565 S
O133 Mg120 2.010 1_655 S
O133 C125 1.249 . S
C134 C135 1.349 . S
C134 C136 1.327 . S
C134 H159 0.950 1_545 S
C135 C134 1.349 . S
C135 C151 1.349 . S
C136 C134 1.327 . S
C136 C155 1.429 . S
C136 H160 0.950 1_545 S
C137 C154 1.574 . S
C137 C156 1.368 . S
C137 H161 0.949 . S
H138 C142 0.949 1_565 S
C139 C140 1.349 . S
C139 C141 1.327 . S
C139 H162 0.950 . S
C140 C139 1.349 . S
C140 C152 1.349 . S
C141 C139 1.327 . S
C141 C157 1.429 . S
C141 H163 0.950 . S
C142 H138 0.949 1_545 S
C142 C150 1.574 . S
C142 C158 1.368 . S
H143 C151 0.950 . S
H144 C149 0.950 . S
H145 C150 0.949 1_565 S
H146 C152 0.950 1_565 S
H147 C153 0.950 1_565 S
H148 C154 0.949 . S
C149 H144 0.950 . S
C149 C151 1.327 . S
C149 C155 1.429 . S
C150 C142 1.574 . S
C150 H145 0.949 1_545 S
C150 C156 1.368 . S
C151 C135 1.349 . S
C151 H143 0.950 . S
C151 C149 1.327 . S
C152 C140 1.349 . S
C152 H146 0.950 1_545 S
C152 C153 1.327 . S
C153 H147 0.950 1_545 S
C153 C152 1.327 . S
C153 C157 1.429 . S
C154 C137 1.574 . S
C154 H148 0.949 . S
C154 C158 1.368 . S
C155 C136 1.429 . S
C155 C149 1.429 . S
C155 C156 1.523 . S
C156 C137 1.368 . S
C156 C150 1.368 . S
C156 C155 1.523 . S
C157 C141 1.429 . S
C157 C153 1.429 . S
C157 C158 1.523 . S
C158 C142 1.368 . S
C158 C154 1.368 . S
C158 C157 1.523 . S
H159 C134 0.950 1_565 S
H160 C136 0.950 1_565 S
H161 C137 0.949 . S
H162 C139 0.950 . S
H163 C141 0.950 . S
C164 C165 1.349 . S
C164 C166 1.327 . S
C164 H189 0.950 . S
C165 C164 1.349 . S
C165 C181 1.349 . S
C166 C164 1.327 . S
C166 C185 1.429 . S
C166 H190 0.950 . S
C167 C184 1.574 . S
C167 C186 1.368 . S
C167 H191 0.949 . S
H168 C172 0.949 . S
C169 C170 1.349 . S
C169 C171 1.327 . S
C169 H192 0.950 . S
C170 C169 1.349 . S
C170 C182 1.349 . S
C171 C169 1.327 . S
C171 C187 1.429 . S
C171 H193 0.950 . S
C172 H168 0.949 . S
C172 C180 1.574 . S
C172 C188 1.368 . S
H173 C181 0.950 . S
H174 C179 0.950 . S
H175 C180 0.949 . S
H176 C182 0.950 . S
H177 C183 0.950 . S
H178 C184 0.949 . S
C179 H174 0.950 . S
C179 C181 1.327 . S
C179 C185 1.429 . S
C180 C172 1.574 . S
C180 H175 0.949 . S
C180 C186 1.368 . S
C181 C165 1.349 . S
C181 H173 0.950 . S
C181 C179 1.327 . S
C182 C170 1.349 . S
C182 H176 0.950 . S
C182 C183 1.327 . S
C183 H177 0.950 . S
C183 C182 1.327 . S
C183 C187 1.429 . S
C184 C167 1.574 . S
C184 H178 0.949 . S
C184 C188 1.368 . S
C185 C166 1.429 . S
C185 C179 1.429 . S
C185 C186 1.523 . S
C186 C167 1.368 . S
C186 C180 1.368 . S
C186 C185 1.523 . S
C187 C171 1.429 . S
C187 C183 1.429 . S
C187 C188 1.523 . S
C188 C172 1.368 . S
C188 C184 1.368 . S
C188 C187 1.523 . S
H189 C164 0.950 . S
H190 C166 0.950 . S
H191 C167 0.949 . S
H192 C169 0.950 . S
H193 C171 0.950 . S
C194 C195 1.349 . S
C194 C196 1.327 . S
C194 H219 0.950 1_545 S
C195 C194 1.349 . S
C195 C211 1.349 . S
C196 C194 1.327 . S
C196 C215 1.429 . S
C196 H220 0.950 1_545 S
C197 C214 1.574 . S
C197 C216 1.368 . S
C197 H221 0.949 . S
H198 C202 0.949 1_565 S
C199 C200 1.349 . S
C199 C201 1.327 . S
C199 H222 0.950 . S
C200 C199 1.349 . S
C200 C212 1.349 . S
C201 C199 1.327 . S
C201 C217 1.429 . S
C201 H223 0.950 . S
C202 H198 0.949 1_545 S
C202 C210 1.574 . S
C202 C218 1.368 . S
H203 C211 0.950 . S
H204 C209 0.950 . S
H205 C210 0.949 1_565 S
H206 C212 0.950 1_565 S
H207 C213 0.950 1_565 S
H208 C214 0.949 . S
C209 H204 0.950 . S
C209 C211 1.327 . S
C209 C215 1.429 . S
C210 C202 1.574 . S
C210 H205 0.949 1_545 S
C210 C216 1.368 . S
C211 C195 1.349 . S
C211 H203 0.950 . S
C211 C209 1.327 . S
C212 C200 1.349 . S
C212 H206 0.950 1_545 S
C212 C213 1.327 . S
C213 H207 0.950 1_545 S
C213 C212 1.327 . S
C213 C217 1.429 . S
C214 C197 1.574 . S
C214 H208 0.949 . S
C214 C218 1.368 . S
C215 C196 1.429 . S
C215 C209 1.429 . S
C215 C216 1.523 . S
C216 C197 1.368 . S
C216 C210 1.368 . S
C216 C215 1.523 . S
C217 C201 1.429 . S
C217 C213 1.429 . S
C217 C218 1.523 . S
C218 C202 1.368 . S
C218 C214 1.368 . S
C218 C217 1.523 . S
H219 C194 0.950 1_565 S
H220 C196 0.950 1_565 S
H221 C197 0.949 . S
H222 C199 0.950 . S
H223 C201 0.950 . S
C224 C225 1.349 . S
C224 C226 1.327 . S
C224 H249 0.950 . S
C225 C224 1.349 . S
C225 C241 1.349 . S
C226 C224 1.327 . S
C226 C245 1.429 . S
C226 H250 0.950 . S
C227 C244 1.574 . S
C227 C246 1.368 . S
C227 H251 0.949 . S
H228 C232 0.949 . S
C229 C230 1.349 . S
C229 C231 1.327 . S
C229 H252 0.950 . S
C230 C229 1.349 . S
C230 C242 1.349 . S
C231 C229 1.327 . S
C231 C247 1.429 . S
C231 H253 0.950 . S
C232 H228 0.949 . S
C232 C240 1.574 . S
C232 C248 1.368 . S
H233 C241 0.950 . S
H234 C239 0.950 . S
H235 C240 0.949 . S
H236 C242 0.950 . S
H237 C243 0.950 . S
H238 C244 0.949 . S
C239 H234 0.950 . S
C239 C241 1.327 . S
C239 C245 1.429 . S
C240 C232 1.574 . S
C240 H235 0.949 . S
C240 C246 1.368 . S
C241 C225 1.349 . S
C241 H233 0.950 . S
C241 C239 1.327 . S
C242 C230 1.349 . S
C242 H236 0.950 . S
C242 C243 1.327 . S
C243 H237 0.950 . S
C243 C242 1.327 . S
C243 C247 1.429 . S
C244 C227 1.574 . S
C244 H238 0.949 . S
C244 C248 1.368 . S
C245 C226 1.429 . S
C245 C239 1.429 . S
C245 C246 1.523 . S
C246 C227 1.368 . S
C246 C240 1.368 . S
C246 C245 1.523 . S
C247 C231 1.429 . S
C247 C243 1.429 . S
C247 C248 1.523 . S
C248 C232 1.368 . S
C248 C244 1.368 . S
C248 C247 1.523 . S
H249 C224 0.950 . S
H250 C226 0.950 . S
H251 C227 0.949 . S
H252 C229 0.950 . S
H253 C231 0.950 . S
C254 C255 1.349 . S
C254 C256 1.327 . S
C254 H279 0.950 . S
C255 C254 1.349 . S
C255 C271 1.349 . S
C256 C254 1.327 . S
C256 C275 1.429 . S
C256 H280 0.950 . S
C257 C274 1.574 . S
C257 C276 1.368 . S
C257 H281 0.949 1_545 S
H258 C262 0.949 . S
C259 C260 1.349 . S
C259 C261 1.327 . S
C259 H282 0.950 . S
C260 C259 1.349 . S
C260 C272 1.349 . S
C261 C259 1.327 . S
C261 C277 1.429 . S
C261 H283 0.950 . S
C262 H258 0.949 . S
C262 C270 1.574 . S
C262 C278 1.368 . S
H263 C271 0.950 1_565 S
H264 C269 0.950 1_565 S
H265 C270 0.949 . S
H266 C272 0.950 . S
H267 C273 0.950 . S
H268 C274 0.949 1_565 S
C269 H264 0.950 1_545 S
C269 C271 1.327 . S
C269 C275 1.429 . S
C270 C262 1.574 . S
C270 H265 0.949 . S
C270 C276 1.368 . S
C271 C255 1.349 . S
C271 H263 0.950 1_545 S
C271 C269 1.327 . S
C272 C260 1.349 . S
C272 H266 0.950 . S
C272 C273 1.327 . S
C273 H267 0.950 . S
C273 C272 1.327 . S
C273 C277 1.429 . S
C274 C257 1.574 . S
C274 H268 0.949 1_545 S
C274 C278 1.368 . S
C275 C256 1.429 . S
C275 C269 1.429 . S
C275 C276 1.523 . S
C276 C257 1.368 . S
C276 C270 1.368 . S
C276 C275 1.523 . S
C277 C261 1.429 . S
C277 C273 1.429 . S
C277 C278 1.523 . S
C278 C262 1.368 . S
C278 C274 1.368 . S
C278 C277 1.523 . S
H279 C254 0.950 . S
H280 C256 0.950 . S
H281 C257 0.949 1_565 S
H282 C259 0.950 . S
H283 C261 0.950 . S
C284 C285 1.349 . S
C284 C286 1.327 . S
C284 H309 0.950 . S
C285 C284 1.349 . S
C285 C301 1.349 . S
C286 C284 1.327 . S
C286 C305 1.429 . S
C286 H310 0.950 . S
C287 C304 1.574 . S
C287 C306 1.368 . S
C287 H311 0.949 . S
H288 C292 0.949 . S
C289 C290 1.349 . S
C289 C291 1.327 . S
C289 H312 0.950 . S
C290 C289 1.349 . S
C290 C302 1.349 . S
C291 C289 1.327 . S
C291 C307 1.429 . S
C291 H313 0.950 . S
C292 H288 0.949 . S
C292 C300 1.574 . S
C292 C308 1.368 . S
H293 C301 0.950 . S
H294 C299 0.950 . S
H295 C300 0.949 . S
H296 C302 0.950 . S
H297 C303 0.950 . S
H298 C304 0.949 . S
C299 H294 0.950 . S
C299 C301 1.327 . S
C299 C305 1.429 . S
C300 C292 1.574 . S
C300 H295 0.949 . S
C300 C306 1.368 . S
C301 C285 1.349 . S
C301 H293 0.950 . S
C301 C299 1.327 . S
C302 C290 1.349 . S
C302 H296 0.950 . S
C302 C303 1.327 . S
C303 H297 0.950 . S
C303 C302 1.327 . S
C303 C307 1.429 . S
C304 C287 1.574 . S
C304 H298 0.949 . S
C304 C308 1.368 . S
C305 C286 1.429 . S
C305 C299 1.429 . S
C305 C306 1.523 . S
C306 C287 1.368 . S
C306 C300 1.368 . S
C306 C305 1.523 . S
C307 C291 1.429 . S
C307 C303 1.429 . S
C307 C308 1.523 . S
C308 C292 1.368 . S
C308 C304 1.368 . S
C308 C307 1.523 . S
H309 C284 0.950 . S
H310 C286 0.950 . S
H311 C287 0.949 . S
H312 C289 0.950 . S
H313 C291 0.950 . S
C314 C315 1.349 . S
C314 C316 1.327 . S
C314 H339 0.950 . S
C315 C314 1.349 . S
C315 C331 1.349 . S
C316 C314 1.327 . S
C316 C335 1.429 . S
C316 H340 0.950 . S
C317 C334 1.574 . S
C317 C336 1.368 . S
C317 H341 0.949 1_545 S
H318 C322 0.949 . S
C319 C320 1.349 . S
C319 C321 1.327 . S
C319 H342 0.950 1_545 S
C320 C319 1.349 . S
C320 C332 1.349 . S
C321 C319 1.327 . S
C321 C337 1.429 . S
C321 H343 0.950 1_545 S
C322 H318 0.949 . S
C322 C330 1.574 . S
C322 C338 1.368 . S
H323 C331 0.950 1_565 S
H324 C329 0.950 1_565 S
H325 C330 0.949 . S
H326 C332 0.950 . S
H327 C333 0.950 . S
H328 C334 0.949 1_565 S
C329 H324 0.950 1_545 S
C329 C331 1.327 . S
C329 C335 1.429 . S
C330 C322 1.574 . S
C330 H325 0.949 . S
C330 C336 1.368 . S
C331 C315 1.349 . S
C331 H323 0.950 1_545 S
C331 C329 1.327 . S
C332 C320 1.349 . S
C332 H326 0.950 . S
C332 C333 1.327 . S
C333 H327 0.950 . S
C333 C332 1.327 . S
C333 C337 1.429 . S
C334 C317 1.574 . S
C334 H328 0.949 1_545 S
C334 C338 1.368 . S
C335 C316 1.429 . S
C335 C329 1.429 . S
C335 C336 1.523 . S
C336 C317 1.368 . S
C336 C330 1.368 . S
C336 C335 1.523 . S
C337 C321 1.429 . S
C337 C333 1.429 . S
C337 C338 1.523 . S
C338 C322 1.368 . S
C338 C334 1.368 . S
C338 C337 1.523 . S
H339 C314 0.950 . S
H340 C316 0.950 . S
H341 C317 0.949 1_565 S
H342 C319 0.950 1_565 S
H343 C321 0.950 1_565 S
C344 C345 1.349 . S
C344 C346 1.327 . S
C344 H369 0.950 . S
C345 C344 1.349 . S
C345 C361 1.349 . S
C346 C344 1.327 . S
C346 C365 1.429 . S
C346 H370 0.950 . S
C347 C364 1.574 . S
C347 C366 1.368 . S
C347 H371 0.949 . S
H348 C352 0.949 . S
C349 C350 1.349 . S
C349 C351 1.327 . S
C349 H372 0.950 . S
C350 C349 1.349 . S
C350 C362 1.349 . S
C351 C349 1.327 . S
C351 C367 1.429 . S
C351 H373 0.950 . S
C352 H348 0.949 . S
C352 C360 1.574 . S
C352 C368 1.368 . S
H353 C361 0.950 . S
H354 C359 0.950 . S
H355 C360 0.949 . S
H356 C362 0.950 . S
H357 C363 0.950 . S
H358 C364 0.949 . S
C359 H354 0.950 . S
C359 C361 1.327 . S
C359 C365 1.429 . S
C360 C352 1.574 . S
C360 H355 0.949 . S
C360 C366 1.368 . S
C361 C345 1.349 . S
C361 H353 0.950 . S
C361 C359 1.327 . S
C362 C350 1.349 . S
C362 H356 0.950 . S
C362 C363 1.327 . S
C363 H357 0.950 . S
C363 C362 1.327 . S
C363 C367 1.429 . S
C364 C347 1.574 . S
C364 H358 0.949 . S
C364 C368 1.368 . S
C365 C346 1.429 . S
C365 C359 1.429 . S
C365 C366 1.523 . S
C366 C347 1.368 . S
C366 C360 1.368 . S
C366 C365 1.523 . S
C367 C351 1.429 . S
C367 C363 1.429 . S
C367 C368 1.523 . S
C368 C352 1.368 . S
C368 C364 1.368 . S
C368 C367 1.523 . S
H369 C344 0.950 . S
H370 C346 0.950 . S
H371 C347 0.949 . S
H372 C349 0.950 . S
H373 C351 0.950 . S
C140 C111 1.260 . S
C135 C22 1.502 . S
C170 C131 1.468 . S
C165 C91 1.495 . S
C200 C110 1.461 . S
C195 C38 1.501 . S
C230 C132 1.506 . S
C225 C75 1.506 . S
C260 C124 1.461 . S
C255 C39 1.502 . S
C290 C117 1.468 . S
C285 C82 1.495 . S
C320 C125 1.261 . S
C315 C29 1.502 . S
C345 C92 1.505 . S
C350 C118 1.505 . S
