# Generated by pormake.
# Topology ibd, (4,6)-cn, num edge types: 1
# Building blocks:
#     Node 0, Type 0, BuildingBlock: CEKHIL_clean_sbu_0, # of connection points: 4
#     Node 1, Type 0, BuildingBlock: CEKHIL_clean_sbu_0, # of connection points: 4
#     Node 2, Type 0, BuildingBlock: CEKHIL_clean_sbu_0, # of connection points: 4
#     Node 3, Type 0, BuildingBlock: CEKHIL_clean_sbu_0, # of connection points: 4
#     Node 4, Type 0, BuildingBlock: CEKHIL_clean_sbu_0, # of connection points: 4
#     Node 5, Type 0, BuildingBlock: CEKHIL_clean_sbu_0, # of connection points: 4
#     Node 6, Type 0, BuildingBlock: CEKHIL_clean_sbu_0, # of connection points: 4
#     Node 7, Type 0, BuildingBlock: CEKHIL_clean_sbu_0, # of connection points: 4
#     Node 8, Type 0, BuildingBlock: CEKHIL_clean_sbu_0, # of connection points: 4
#     Node 9, Type 0, BuildingBlock: CEKHIL_clean_sbu_0, # of connection points: 4
#     Node 10, Type 0, BuildingBlock: CEKHIL_clean_sbu_0, # of connection points: 4
#     Node 11, Type 0, BuildingBlock: CEKHIL_clean_sbu_0, # of connection points: 4
#     Node 12, Type 0, BuildingBlock: CEKHIL_clean_sbu_0, # of connection points: 4
#     Node 13, Type 0, BuildingBlock: CEKHIL_clean_sbu_0, # of connection points: 4
#     Node 14, Type 0, BuildingBlock: CEKHIL_clean_sbu_0, # of connection points: 4
#     Node 15, Type 0, BuildingBlock: CEKHIL_clean_sbu_0, # of connection points: 4
#     Node 16, Type 0, BuildingBlock: CEKHIL_clean_sbu_0, # of connection points: 4
#     Node 17, Type 0, BuildingBlock: CEKHIL_clean_sbu_0, # of connection points: 4
#     Node 18, Type 0, BuildingBlock: CEKHIL_clean_sbu_0, # of connection points: 4
#     Node 19, Type 0, BuildingBlock: CEKHIL_clean_sbu_0, # of connection points: 4
#     Node 20, Type 0, BuildingBlock: CEKHIL_clean_sbu_0, # of connection points: 4
#     Node 21, Type 0, BuildingBlock: CEKHIL_clean_sbu_0, # of connection points: 4
#     Node 22, Type 0, BuildingBlock: CEKHIL_clean_sbu_0, # of connection points: 4
#     Node 23, Type 0, BuildingBlock: CEKHIL_clean_sbu_0, # of connection points: 4
#     Node 24, Type 1, BuildingBlock: IZENUY_clean_sbu_0, # of connection points: 6
#     Node 25, Type 1, BuildingBlock: IZENUY_clean_sbu_0, # of connection points: 6
#     Node 26, Type 1, BuildingBlock: IZENUY_clean_sbu_0, # of connection points: 6
#     Node 27, Type 1, BuildingBlock: IZENUY_clean_sbu_0, # of connection points: 6
#     Node 28, Type 1, BuildingBlock: IZENUY_clean_sbu_0, # of connection points: 6
#     Node 29, Type 1, BuildingBlock: IZENUY_clean_sbu_0, # of connection points: 6
#     Node 30, Type 1, BuildingBlock: IZENUY_clean_sbu_0, # of connection points: 6
#     Node 31, Type 1, BuildingBlock: IZENUY_clean_sbu_0, # of connection points: 6
#     Node 32, Type 1, BuildingBlock: IZENUY_clean_sbu_0, # of connection points: 6
#     Node 33, Type 1, BuildingBlock: IZENUY_clean_sbu_0, # of connection points: 6
#     Node 34, Type 1, BuildingBlock: IZENUY_clean_sbu_0, # of connection points: 6
#     Node 35, Type 1, BuildingBlock: IZENUY_clean_sbu_0, # of connection points: 6
#     Node 36, Type 1, BuildingBlock: IZENUY_clean_sbu_0, # of connection points: 6
#     Node 37, Type 1, BuildingBlock: IZENUY_clean_sbu_0, # of connection points: 6
#     Node 38, Type 1, BuildingBlock: IZENUY_clean_sbu_0, # of connection points: 6
#     Node 39, Type 1, BuildingBlock: IZENUY_clean_sbu_0, # of connection points: 6
#     Edge 40, Type (0, 1), BuildingBlock: KIFKEQ_clean_linker_1, # of connection points: 2
#     Edge 41, Type (0, 1), BuildingBlock: KIFKEQ_clean_linker_1, # of connection points: 2
#     Edge 42, Type (0, 1), BuildingBlock: KIFKEQ_clean_linker_1, # of connection points: 2
#     Edge 43, Type (0, 1), BuildingBlock: KIFKEQ_clean_linker_1, # of connection points: 2
#     Edge 44, Type (0, 1), BuildingBlock: KIFKEQ_clean_linker_1, # of connection points: 2
#     Edge 45, Type (0, 1), BuildingBlock: KIFKEQ_clean_linker_1, # of connection points: 2
#     Edge 46, Type (0, 1), BuildingBlock: KIFKEQ_clean_linker_1, # of connection points: 2
#     Edge 47, Type (0, 1), BuildingBlock: KIFKEQ_clean_linker_1, # of connection points: 2
#     Edge 48, Type (0, 1), BuildingBlock: KIFKEQ_clean_linker_1, # of connection points: 2
#     Edge 49, Type (0, 1), BuildingBlock: KIFKEQ_clean_linker_1, # of connection points: 2
#     Edge 50, Type (0, 1), BuildingBlock: KIFKEQ_clean_linker_1, # of connection points: 2
#     Edge 51, Type (0, 1), BuildingBlock: KIFKEQ_clean_linker_1, # of connection points: 2
#     Edge 52, Type (0, 1), BuildingBlock: KIFKEQ_clean_linker_1, # of connection points: 2
#     Edge 53, Type (0, 1), BuildingBlock: KIFKEQ_clean_linker_1, # of connection points: 2
#     Edge 54, Type (0, 1), BuildingBlock: KIFKEQ_clean_linker_1, # of connection points: 2
#     Edge 55, Type (0, 1), BuildingBlock: KIFKEQ_clean_linker_1, # of connection points: 2
#     Edge 56, Type (0, 1), BuildingBlock: KIFKEQ_clean_linker_1, # of connection points: 2
#     Edge 57, Type (0, 1), BuildingBlock: KIFKEQ_clean_linker_1, # of connection points: 2
#     Edge 58, Type (0, 1), BuildingBlock: KIFKEQ_clean_linker_1, # of connection points: 2
#     Edge 59, Type (0, 1), BuildingBlock: KIFKEQ_clean_linker_1, # of connection points: 2
#     Edge 60, Type (0, 1), BuildingBlock: KIFKEQ_clean_linker_1, # of connection points: 2
#     Edge 61, Type (0, 1), BuildingBlock: KIFKEQ_clean_linker_1, # of connection points: 2
#     Edge 62, Type (0, 1), BuildingBlock: KIFKEQ_clean_linker_1, # of connection points: 2
#     Edge 63, Type (0, 1), BuildingBlock: KIFKEQ_clean_linker_1, # of connection points: 2
#     Edge 64, Type (0, 1), BuildingBlock: KIFKEQ_clean_linker_1, # of connection points: 2
#     Edge 65, Type (0, 1), BuildingBlock: KIFKEQ_clean_linker_1, # of connection points: 2
#     Edge 66, Type (0, 1), BuildingBlock: KIFKEQ_clean_linker_1, # of connection points: 2
#     Edge 67, Type (0, 1), BuildingBlock: KIFKEQ_clean_linker_1, # of connection points: 2
#     Edge 68, Type (0, 1), BuildingBlock: KIFKEQ_clean_linker_1, # of connection points: 2
#     Edge 69, Type (0, 1), BuildingBlock: KIFKEQ_clean_linker_1, # of connection points: 2
#     Edge 70, Type (0, 1), BuildingBlock: KIFKEQ_clean_linker_1, # of connection points: 2
#     Edge 71, Type (0, 1), BuildingBlock: KIFKEQ_clean_linker_1, # of connection points: 2
#     Edge 72, Type (0, 1), BuildingBlock: KIFKEQ_clean_linker_1, # of connection points: 2
#     Edge 73, Type (0, 1), BuildingBlock: KIFKEQ_clean_linker_1, # of connection points: 2
#     Edge 74, Type (0, 1), BuildingBlock: KIFKEQ_clean_linker_1, # of connection points: 2
#     Edge 75, Type (0, 1), BuildingBlock: KIFKEQ_clean_linker_1, # of connection points: 2
#     Edge 76, Type (0, 1), BuildingBlock: KIFKEQ_clean_linker_1, # of connection points: 2
#     Edge 77, Type (0, 1), BuildingBlock: KIFKEQ_clean_linker_1, # of connection points: 2
#     Edge 78, Type (0, 1), BuildingBlock: KIFKEQ_clean_linker_1, # of connection points: 2
#     Edge 79, Type (0, 1), BuildingBlock: KIFKEQ_clean_linker_1, # of connection points: 2
#     Edge 80, Type (0, 1), BuildingBlock: KIFKEQ_clean_linker_1, # of connection points: 2
#     Edge 81, Type (0, 1), BuildingBlock: KIFKEQ_clean_linker_1, # of connection points: 2
#     Edge 82, Type (0, 1), BuildingBlock: KIFKEQ_clean_linker_1, # of connection points: 2
#     Edge 83, Type (0, 1), BuildingBlock: KIFKEQ_clean_linker_1, # of connection points: 2
#     Edge 84, Type (0, 1), BuildingBlock: KIFKEQ_clean_linker_1, # of connection points: 2
#     Edge 85, Type (0, 1), BuildingBlock: KIFKEQ_clean_linker_1, # of connection points: 2
#     Edge 86, Type (0, 1), BuildingBlock: KIFKEQ_clean_linker_1, # of connection points: 2
#     Edge 87, Type (0, 1), BuildingBlock: KIFKEQ_clean_linker_1, # of connection points: 2
#     Edge 88, Type (0, 1), BuildingBlock: KIFKEQ_clean_linker_1, # of connection points: 2
#     Edge 89, Type (0, 1), BuildingBlock: KIFKEQ_clean_linker_1, # of connection points: 2
#     Edge 90, Type (0, 1), BuildingBlock: KIFKEQ_clean_linker_1, # of connection points: 2
#     Edge 91, Type (0, 1), BuildingBlock: KIFKEQ_clean_linker_1, # of connection points: 2
#     Edge 92, Type (0, 1), BuildingBlock: KIFKEQ_clean_linker_1, # of connection points: 2
#     Edge 93, Type (0, 1), BuildingBlock: KIFKEQ_clean_linker_1, # of connection points: 2
#     Edge 94, Type (0, 1), BuildingBlock: KIFKEQ_clean_linker_1, # of connection points: 2
#     Edge 95, Type (0, 1), BuildingBlock: KIFKEQ_clean_linker_1, # of connection points: 2
#     Edge 96, Type (0, 1), BuildingBlock: KIFKEQ_clean_linker_1, # of connection points: 2
#     Edge 97, Type (0, 1), BuildingBlock: KIFKEQ_clean_linker_1, # of connection points: 2
#     Edge 98, Type (0, 1), BuildingBlock: KIFKEQ_clean_linker_1, # of connection points: 2
#     Edge 99, Type (0, 1), BuildingBlock: KIFKEQ_clean_linker_1, # of connection points: 2
#     Edge 100, Type (0, 1), BuildingBlock: KIFKEQ_clean_linker_1, # of connection points: 2
#     Edge 101, Type (0, 1), BuildingBlock: KIFKEQ_clean_linker_1, # of connection points: 2
#     Edge 102, Type (0, 1), BuildingBlock: KIFKEQ_clean_linker_1, # of connection points: 2
#     Edge 103, Type (0, 1), BuildingBlock: KIFKEQ_clean_linker_1, # of connection points: 2
#     Edge 104, Type (0, 1), BuildingBlock: KIFKEQ_clean_linker_1, # of connection points: 2
#     Edge 105, Type (0, 1), BuildingBlock: KIFKEQ_clean_linker_1, # of connection points: 2
#     Edge 106, Type (0, 1), BuildingBlock: KIFKEQ_clean_linker_1, # of connection points: 2
#     Edge 107, Type (0, 1), BuildingBlock: KIFKEQ_clean_linker_1, # of connection points: 2
#     Edge 108, Type (0, 1), BuildingBlock: KIFKEQ_clean_linker_1, # of connection points: 2
#     Edge 109, Type (0, 1), BuildingBlock: KIFKEQ_clean_linker_1, # of connection points: 2
#     Edge 110, Type (0, 1), BuildingBlock: KIFKEQ_clean_linker_1, # of connection points: 2
#     Edge 111, Type (0, 1), BuildingBlock: KIFKEQ_clean_linker_1, # of connection points: 2
#     Edge 112, Type (0, 1), BuildingBlock: KIFKEQ_clean_linker_1, # of connection points: 2
#     Edge 113, Type (0, 1), BuildingBlock: KIFKEQ_clean_linker_1, # of connection points: 2
#     Edge 114, Type (0, 1), BuildingBlock: KIFKEQ_clean_linker_1, # of connection points: 2
#     Edge 115, Type (0, 1), BuildingBlock: KIFKEQ_clean_linker_1, # of connection points: 2
#     Edge 116, Type (0, 1), BuildingBlock: KIFKEQ_clean_linker_1, # of connection points: 2
#     Edge 117, Type (0, 1), BuildingBlock: KIFKEQ_clean_linker_1, # of connection points: 2
#     Edge 118, Type (0, 1), BuildingBlock: KIFKEQ_clean_linker_1, # of connection points: 2
#     Edge 119, Type (0, 1), BuildingBlock: KIFKEQ_clean_linker_1, # of connection points: 2
#     Edge 120, Type (0, 1), BuildingBlock: KIFKEQ_clean_linker_1, # of connection points: 2
#     Edge 121, Type (0, 1), BuildingBlock: KIFKEQ_clean_linker_1, # of connection points: 2
#     Edge 122, Type (0, 1), BuildingBlock: KIFKEQ_clean_linker_1, # of connection points: 2
#     Edge 123, Type (0, 1), BuildingBlock: KIFKEQ_clean_linker_1, # of connection points: 2
#     Edge 124, Type (0, 1), BuildingBlock: KIFKEQ_clean_linker_1, # of connection points: 2
#     Edge 125, Type (0, 1), BuildingBlock: KIFKEQ_clean_linker_1, # of connection points: 2
#     Edge 126, Type (0, 1), BuildingBlock: KIFKEQ_clean_linker_1, # of connection points: 2
#     Edge 127, Type (0, 1), BuildingBlock: KIFKEQ_clean_linker_1, # of connection points: 2
#     Edge 128, Type (0, 1), BuildingBlock: KIFKEQ_clean_linker_1, # of connection points: 2
#     Edge 129, Type (0, 1), BuildingBlock: KIFKEQ_clean_linker_1, # of connection points: 2
#     Edge 130, Type (0, 1), BuildingBlock: KIFKEQ_clean_linker_1, # of connection points: 2
#     Edge 131, Type (0, 1), BuildingBlock: KIFKEQ_clean_linker_1, # of connection points: 2
#     Edge 132, Type (0, 1), BuildingBlock: KIFKEQ_clean_linker_1, # of connection points: 2
#     Edge 133, Type (0, 1), BuildingBlock: KIFKEQ_clean_linker_1, # of connection points: 2
#     Edge 134, Type (0, 1), BuildingBlock: KIFKEQ_clean_linker_1, # of connection points: 2
#     Edge 135, Type (0, 1), BuildingBlock: KIFKEQ_clean_linker_1, # of connection points: 2
# Relax obj value: 0.305
# Max RMSD: 0.284
# Mean RMSD: 0.259
data_MOF--net-ibd--node1-CEKHIL_clean_sbu_0--node2-IZENUY_clean_sbu_0--edge1-KIFKEQ_clean_linker_1
_symmetry_space_group_name_H-M    P1
_symmetry_Int_Tables_number       1
_symmetry_cell_setting            triclinic
loop_
_symmetry_equiv_pos_as_xyz
'x, y, z'
_cell_length_a     49.574438
_cell_length_b     49.600452
_cell_length_c     49.579672
_cell_angle_alpha  90.262243
_cell_angle_beta   90.226141
_cell_angle_gamma 90.738124
loop_
_atom_site_label
_atom_site_type_symbol
_atom_site_fract_x
_atom_site_fract_y
_atom_site_fract_z
_atom_type_partial_charge
Co0 Co 0.01696 0.26133 0.37105 0.0
O1 O 0.01381 0.28413 0.33985 0.0
O2 O 0.98432 0.25242 0.35199 0.0
C3 C 0.02906 0.29389 0.40043 0.0
O4 O 0.01127 0.23512 0.40157 0.0
Co5 Co 0.06985 0.25241 0.40303 0.0
O6 O 0.04726 0.23147 0.42878 0.0
C7 C 0.06296 0.22899 0.3488 0.0
C8 C 0.99105 0.27145 0.33536 0.0
C9 C 0.02283 0.22587 0.42271 0.0
O10 O 0.0376 0.23414 0.34949 0.0
O11 O 0.07969 0.23703 0.36694 0.0
O12 O 0.00378 0.29029 0.39404 0.0
O13 O 0.04607 0.27923 0.3875 0.0
Co14 Co 0.99191 0.73216 0.62744 0.0
O15 O 0.96588 0.72675 0.65592 0.0
O16 O 0.98815 0.76487 0.64791 0.0
C17 C 0.96752 0.71217 0.59451 0.0
O18 O 0.01835 0.74704 0.5999 0.0
Co19 Co 0.01923 0.68605 0.59537 0.0
O20 O 0.03239 0.71504 0.57126 0.0
C21 C 0.03582 0.69776 0.65158 0.0
C22 C 0.97026 0.75196 0.66208 0.0
C23 C 0.03107 0.7396 0.57865 0.0
O24 O 0.02188 0.71953 0.65178 0.0
O25 O 0.03568 0.68103 0.63185 0.0
O26 O 0.96261 0.73693 0.60151 0.0
O27 O 0.98537 0.69993 0.60874 0.0
Co28 Co 0.49542 0.77865 0.87351 0.0
O29 O 0.48841 0.803 0.8444 0.0
O30 O 0.46225 0.76824 0.85582 0.0
C31 C 0.5068 0.81025 0.90412 0.0
O32 O 0.49451 0.75012 0.90245 0.0
Co33 Co 0.55135 0.77345 0.90114 0.0
O34 O 0.53122 0.75266 0.92896 0.0
C35 C 0.54193 0.74981 0.84713 0.0
C36 C 0.46656 0.78879 0.8402 0.0
C37 C 0.50777 0.74325 0.92354 0.0
O38 O 0.51656 0.7546 0.84891 0.0
O39 O 0.55933 0.75776 0.86469 0.0
O40 O 0.4815 0.80463 0.89951 0.0
O41 O 0.52397 0.79825 0.8889 0.0
Co42 Co 0.48422 0.23593 0.12814 0.0
O43 O 0.46043 0.23371 0.15883 0.0
O44 O 0.48122 0.27089 0.14486 0.0
C45 C 0.45818 0.21156 0.09956 0.0
O46 O 0.50857 0.24744 0.09731 0.0
Co47 Co 0.51008 0.1863 0.10003 0.0
O48 O 0.52149 0.21226 0.07202 0.0
C49 C 0.53126 0.20601 0.15252 0.0
C50 C 0.46487 0.25946 0.16186 0.0
C51 C 0.5203 0.23751 0.0765 0.0
O52 O 0.51612 0.22692 0.15166 0.0
O53 O 0.53033 0.18704 0.13493 0.0
O54 O 0.45312 0.23692 0.10376 0.0
O55 O 0.47716 0.20156 0.11406 0.0
Co56 Co 0.00822 0.75565 0.1182 0.0
O57 O 0.01291 0.7797 0.08824 0.0
O58 O 0.97633 0.75473 0.09582 0.0
C59 C 0.0235 0.78433 0.14989 0.0
O60 O 0.99503 0.7301 0.14739 0.0
Co61 Co 0.05608 0.7365 0.15352 0.0
O62 O 0.02686 0.72843 0.17964 0.0
C63 C 0.04696 0.71227 0.09967 0.0
C64 C 0.9885 0.77282 0.08119 0.0
C65 C 0.00273 0.72445 0.17147 0.0
O66 O 0.02476 0.72526 0.09715 0.0
O67 O 0.06296 0.71523 0.11985 0.0
O68 O -0.00125 0.78585 0.14135 0.0
O69 O 0.03862 0.76732 0.13751 0.0
Co70 Co 0.47929 0.73593 0.37966 0.0
O71 O 0.45928 0.73895 0.41277 0.0
O72 O 0.48835 0.76943 0.39704 0.0
C73 C 0.44507 0.72188 0.35308 0.0
O74 O 0.50281 0.74156 0.34695 0.0
Co75 Co 0.48746 0.68223 0.34861 0.0
O76 O 0.50752 0.70421 0.32176 0.0
C77 C 0.51483 0.69175 0.40057 0.0
C78 C 0.47145 0.76221 0.41564 0.0
C79 C 0.51202 0.72916 0.32628 0.0
O80 O 0.50896 0.71692 0.39943 0.0
O81 O 0.50578 0.67421 0.3837 0.0
O82 O 0.44806 0.74738 0.35878 0.0
O83 O 0.46121 0.70579 0.36539 0.0
Co84 Co 0.50803 0.25586 0.62181 0.0
O85 O 0.5114 0.27694 0.5894 0.0
O86 O 0.47359 0.25756 0.60376 0.0
C87 C 0.53078 0.28446 0.64915 0.0
O88 O 0.49588 0.23388 0.65418 0.0
Co89 Co 0.55737 0.23325 0.65309 0.0
O90 O 0.53084 0.22744 0.68229 0.0
C91 C 0.53876 0.20695 0.60251 0.0
C92 C 0.48568 0.27263 0.58605 0.0
C93 C 0.5057 0.22637 0.67695 0.0
O94 O 0.51799 0.22226 0.60143 0.0
O95 O 0.55731 0.20937 0.62044 0.0
O96 O 0.50558 0.28871 0.6434 0.0
O97 O 0.5418 0.26471 0.63648 0.0
Co98 Co 0.96931 0.24 0.87212 0.0
O99 O 0.94641 0.24135 0.9033 0.0
O100 O 0.97456 0.27393 0.89021 0.0
C101 C 0.93848 0.22375 0.84282 0.0
O102 O 0.9953 0.24704 0.8415 0.0
Co103 Co 0.98378 0.1866 0.84329 0.0
O104 O 0.00398 0.20966 0.81751 0.0
C105 C 0.00654 0.19893 0.89682 0.0
C106 C 0.95696 0.26517 0.9075 0.0
C107 C 0.00679 0.23487 0.82184 0.0
O108 O -0.00171 0.2233 0.89474 0.0
O109 O 0.00086 0.18051 0.87947 0.0
O110 O 0.93935 0.24937 0.84856 0.0
O111 O 0.95448 0.2087 0.85663 0.0
Co112 Co 0.37038 -0.00096 0.24273 0.0
O113 O 0.40293 0.00298 0.2219 0.0
O114 O 0.38713 0.96464 0.239 0.0
C115 C 0.34374 0.0233 0.21561 0.0
O116 O 0.33772 0.98586 0.26358 0.0
Co117 Co 0.3404 0.04645 0.26941 0.0
O118 O 0.31003 0.02017 0.27221 0.0
C119 C 0.39136 0.02713 0.29329 0.0
C120 C 0.4053 0.97705 0.22475 0.0
C121 C 0.31485 0.99504 0.27112 0.0
O122 O 0.39127 0.007 0.27682 0.0
O123 O 0.37374 0.04579 0.29257 0.0
O124 O 0.34893 -0.00169 0.20984 0.0
O125 O 0.35646 0.0334 0.23619 0.0
Co126 Co 0.25109 0.12823 0.51414 0.0
O127 O 0.25372 0.09974 0.54021 0.0
O128 O 0.28574 0.11142 0.51125 0.0
C129 C 0.23344 0.15867 0.54254 0.0
O130 O 0.25715 0.15679 0.48543 0.0
Co131 Co 0.19717 0.15452 0.49706 0.0
O132 O 0.22039 0.18201 0.47943 0.0
C133 C 0.21039 0.09948 0.47845 0.0
C134 C 0.27788 0.096 0.53088 0.0
C135 C 0.24517 0.17717 0.47512 0.0
O136 O 0.23477 0.10218 0.48721 0.0
O137 O 0.19218 0.11717 0.48223 0.0
O138 O 0.25938 0.15496 0.54225 0.0
O139 O 0.21929 0.14301 0.52708 0.0
Co140 Co 0.11996 -0.00266 0.7289 0.0
O141 O 0.14698 -0.00228 0.70121 0.0
O142 O 0.13975 0.96421 0.72986 0.0
C143 C 0.08694 0.01269 0.70243 0.0
O144 O 0.09339 0.98829 0.75888 0.0
Co145 Co 0.09084 0.04868 0.74845 0.0
O146 O 0.06783 0.02379 0.76969 0.0
C147 C 0.14819 0.0405 0.76173 0.0
C148 C 0.15324 0.9738 0.70953 0.0
C149 C 0.07388 -0.00097 0.77195 0.0
O150 O 0.14627 0.01556 0.75448 0.0
O151 O 0.12907 0.0573 0.75861 0.0
O152 O 0.09238 0.9871 0.70237 0.0
O153 O 0.10213 0.02798 0.71727 0.0
Co154 Co 0.22883 0.86903 0.00238 0.0
O155 O 0.22642 0.84123 0.02938 0.0
O156 O 0.26374 0.85392 0.00805 0.0
C157 C 0.20469 0.89989 0.02441 0.0
O158 O 0.24068 0.89719 0.97545 0.0
Co159 Co 0.18011 0.89298 0.97182 0.0
O160 O 0.20605 0.92104 0.95951 0.0
C161 C 0.20158 0.84002 0.95537 0.0
C162 C 0.25232 0.83882 0.02612 0.0
C163 C 0.23124 0.91696 0.96195 0.0
O164 O 0.2208 0.84221 0.97279 0.0
O165 O 0.18276 0.8573 0.95296 0.0
O166 O 0.22995 0.89641 0.03041 0.0
O167 O 0.19423 0.88326 0.00705 0.0
Co168 Co 0.28063 0.37169 0.00458 0.0
O169 O 0.30749 0.34411 0.00225 0.0
O170 O 0.27531 0.35134 0.97198 0.0
C171 C 0.30852 0.40553 0.01698 0.0
O172 O 0.25048 0.3981 -0.00159 0.0
Co173 Co 0.26653 0.40173 0.05757 0.0
O174 O 0.24263 0.42397 0.03472 0.0
C175 C 0.24906 0.34529 0.04981 0.0
C176 C 0.29602 0.33745 0.97948 0.0
C177 C 0.23819 0.41742 0.01022 0.0
O178 O 0.25612 0.34636 0.02487 0.0
O179 O 0.25353 0.36449 0.06664 0.0
O180 O 0.30649 0.39867 0.99169 0.0
O181 O 0.29547 0.39053 0.03381 0.0
Co182 Co 0.74193 0.11157 0.009 0.0
O183 O 0.7633 0.07961 0.01416 0.0
O184 O 0.74406 0.09176 0.97573 0.0
C185 C 0.77007 0.1406 0.03018 0.0
O186 O 0.72043 0.14286 0.99433 0.0
Co187 Co 0.71826 0.14626 0.05551 0.0
O188 O 0.70932 0.17234 0.02683 0.0
C189 C 0.69509 0.09244 0.04289 0.0
C190 C 0.75944 0.07511 0.98855 0.0
C191 C 0.71063 0.16543 0.00212 0.0
O192 O 0.70828 0.09134 0.02053 0.0
O193 O 0.69824 0.11142 0.06024 0.0
O194 O 0.77478 0.13337 0.00541 0.0
O195 O 0.75008 0.12856 0.04177 0.0
Co196 Co 0.12783 0.49561 0.23504 0.0
O197 O 0.15834 0.47256 0.22928 0.0
O198 O 0.14968 0.49458 0.26719 0.0
C199 C 0.09648 0.46775 0.21718 0.0
O200 O 0.09826 0.51949 0.24965 0.0
Co201 Co 0.09311 0.51806 0.18788 0.0
O202 O 0.06887 0.53048 0.21696 0.0
C203 C 0.14763 0.54009 0.19819 0.0
C204 C 0.16491 0.47789 0.25416 0.0
C205 C 0.07623 0.5303 0.24161 0.0
O206 O 0.14876 0.52766 0.22092 0.0
O207 O 0.1284 0.53679 0.18115 0.0
O208 O 0.10489 0.46413 0.24176 0.0
O209 O 0.10891 0.48624 0.20369 0.0
Co210 Co 0.76697 0.87031 0.50066 0.0
O211 O 0.78813 0.83804 0.50052 0.0
O212 O 0.76044 0.85066 0.46773 0.0
C213 C 0.79986 0.89865 0.51482 0.0
O214 O 0.7426 0.9018 0.49249 0.0
Co215 Co 0.75575 0.90327 0.55286 0.0
O216 O 0.73643 0.92831 0.52879 0.0
C217 C 0.72774 0.8513 0.54357 0.0
C218 C 0.77746 0.83325 0.47694 0.0
C219 C 0.73257 0.92261 0.50399 0.0
O220 O 0.73688 0.8503 0.51932 0.0
O221 O 0.73455 0.86962 0.56062 0.0
O222 O 0.79821 0.89185 0.48948 0.0
O223 O 0.78318 0.88655 0.53076 0.0
Co224 Co 0.87151 0.99158 0.24666 0.0
O225 O 0.90164 0.96747 0.24894 0.0
O226 O 0.8903 -0.00274 0.28025 0.0
C227 C 0.84099 0.96098 0.23173 0.0
O228 O 0.8418 0.01849 0.25323 0.0
Co229 Co 0.84175 0.00515 0.19335 0.0
O230 O 0.81575 0.02426 0.21663 0.0
C231 C 0.89571 0.02841 0.20413 0.0
C232 C 0.90634 0.97829 0.27248 0.0
C233 C 0.82117 0.02854 0.24142 0.0
O234 O 0.89495 0.01945 0.22845 0.0
O235 O 0.8774 0.02324 0.18653 0.0
O236 O 0.84689 0.96251 0.2573 0.0
O237 O 0.8551 0.9763 0.21606 0.0
Co238 Co 0.24471 0.62354 0.50863 0.0
O239 O 0.26932 0.59438 0.51492 0.0
O240 O 0.24623 0.60065 0.47718 0.0
C241 C 0.27144 0.65666 0.525 0.0
O242 O 0.21921 0.65148 0.4935 0.0
Co243 Co 0.2216 0.65891 0.55507 0.0
O244 O 0.20776 0.68157 0.5254 0.0
C245 C 0.20249 0.60297 0.54756 0.0
C246 C 0.26392 0.58672 0.49035 0.0
C247 C 0.20774 0.67336 0.50101 0.0
O248 O 0.21392 0.60171 0.52428 0.0
O249 O 0.20551 0.62288 0.56384 0.0
O250 O 0.27506 0.6477 0.50061 0.0
O251 O 0.25371 0.64386 0.53912 0.0
Co252 Co 0.37561 0.47645 0.74827 0.0
O253 O 0.40442 0.45126 0.75248 0.0
O254 O 0.39561 0.48489 0.78063 0.0
C255 C 0.34363 0.44582 0.73778 0.0
O256 O 0.34737 0.50535 0.75229 0.0
Co257 Co 0.34512 0.48499 0.69444 0.0
O258 O 0.31981 0.50661 0.71632 0.0
C259 C 0.40023 0.50693 0.70121 0.0
C260 C 0.41034 0.46427 0.7746 0.0
C261 C 0.32626 0.51396 0.74016 0.0
O262 O 0.39978 0.50078 0.72641 0.0
O263 O 0.3812 0.50072 0.68472 0.0
O264 O 0.34987 0.45034 0.76291 0.0
O265 O 0.35795 0.45839 0.72003 0.0
Co266 Co 0.63151 0.0028 0.73482 0.0
O267 O 0.66437 0.98299 0.72958 0.0
O268 O 0.65216 0.00303 0.76764 0.0
C269 C 0.60374 0.97225 0.71555 0.0
O270 O 0.59939 0.02318 0.74939 0.0
Co271 Co 0.59434 0.02258 0.68864 0.0
O272 O 0.56708 0.02475 0.71771 0.0
C273 C 0.64646 0.05036 0.69962 0.0
C274 C 0.66918 0.98791 0.75495 0.0
C275 C 0.57481 0.0269 0.74216 0.0
O276 O 0.64956 0.03686 0.72158 0.0
O277 O 0.62679 0.04634 0.68322 0.0
O278 O 0.61173 0.96909 0.74033 0.0
O279 O 0.61433 0.99238 0.70283 0.0
Co280 Co 0.75608 0.62111 0.02128 0.0
O281 O 0.75822 0.59331 0.04793 0.0
O282 O 0.78951 0.60207 0.01722 0.0
C283 C 0.74175 0.65277 0.04998 0.0
O284 O 0.76214 0.64877 0.99163 0.0
Co285 Co 0.70251 0.64907 0.00658 0.0
O286 O 0.72508 0.67327 0.9841 0.0
C287 C 0.71168 0.59276 0.9901 0.0
C288 C 0.78153 0.58769 0.03762 0.0
C289 C 0.74981 0.66812 0.97985 0.0
O290 O 0.7369 0.5952 -0.00392 0.0
O291 O 0.69445 0.61112 0.995 0.0
O292 O 0.76743 0.64812 0.04801 0.0
O293 O 0.72587 0.63762 0.03574 0.0
Co294 Co 0.87105 0.50864 0.74132 0.0
O295 O 0.90055 0.51223 0.7163 0.0
O296 O 0.88587 0.47385 0.73422 0.0
C297 C 0.84194 0.53497 0.7194 0.0
O298 O 0.84101 0.49569 0.76567 0.0
Co299 Co 0.84658 0.55595 0.77372 0.0
O300 O 0.81739 0.52993 0.78289 0.0
C301 C 0.89813 0.53229 0.79141 0.0
C302 C 0.90245 0.48614 0.7181 0.0
C303 C 0.82083 0.50486 0.77878 0.0
O304 O 0.89633 0.5141 0.77286 0.0
O305 O 0.88121 0.5514 0.79405 0.0
O306 O 0.84528 0.51012 0.71178 0.0
O307 O 0.85785 0.54377 0.73825 0.0
Co308 Co 0.73495 0.37548 0.50581 0.0
O309 O 0.73179 0.34664 0.53157 0.0
O310 O 0.76814 0.3562 0.50725 0.0
C311 C 0.71679 0.40759 0.53167 0.0
O312 O 0.74741 0.40358 0.47914 0.0
Co313 Co 0.68658 0.40562 0.48131 0.0
O314 O 0.7141 0.4309 0.46638 0.0
C315 C 0.69808 0.35012 0.46372 0.0
C316 C 0.75672 0.34141 0.52558 0.0
C317 C 0.73889 0.42448 0.46679 0.0
O318 O 0.72089 0.35116 0.47616 0.0
O319 O 0.68052 0.36876 0.46531 0.0
O320 O 0.74194 0.40115 0.53479 0.0
O321 O 0.70295 0.39316 0.51467 0.0
Co322 Co 0.61756 0.49555 0.22574 0.0
O323 O 0.64573 0.49111 0.19963 0.0
O324 O 0.63437 0.46109 0.23072 0.0
C325 C 0.58738 0.51147 0.19623 0.0
O326 O 0.58935 0.49168 0.2552 0.0
Co327 Co 0.59159 0.55047 0.23931 0.0
O328 O 0.56427 0.5288 0.25907 0.0
C329 C 0.64668 0.53828 0.25854 0.0
C330 C 0.64968 0.46771 0.21053 0.0
C331 C 0.56921 0.50442 0.26508 0.0
O332 O 0.64392 0.51346 0.25121 0.0
O333 O 0.62901 0.55628 0.25383 0.0
O334 O 0.59038 0.48555 0.19862 0.0
O335 O 0.60312 0.52653 0.2107 0.0
Fe336 Fe 0.12266 0.09733 0.14189 0.0
Fe337 Fe 0.10269 0.15212 0.12268 0.0
O338 O 0.12428 0.12427 0.11878 0.0
Fe339 Fe 0.1476 0.12335 0.09191 0.0
O340 O 0.13268 0.09263 0.07856 0.0
O341 O 0.13192 0.07141 0.11726 0.0
O342 O 0.08794 0.09029 0.13319 0.0
C343 C 0.06927 0.10708 0.13582 0.0
C344 C 0.17703 0.10239 0.13599 0.0
O345 O 0.07447 0.13218 0.13674 0.0
C346 C 0.15233 0.17611 0.10663 0.0
O347 O 0.11298 0.11819 0.1708 0.0
O348 O 0.11634 0.15964 0.15584 0.0
O349 O 0.1734 0.10483 0.1108 0.0
O350 O 0.15736 0.10292 0.15199 0.0
C351 C 0.10086 0.14559 0.0681 0.0
O352 O 0.12694 0.17697 0.1093 0.0
O353 O 0.16403 0.15394 0.10349 0.0
C354 C 0.11591 0.1432 0.17514 0.0
O355 O 0.08775 0.14643 0.08981 0.0
O356 O 0.12606 0.14169 0.06822 0.0
C357 C 0.13059 0.0711 0.09176 0.0
Fe358 Fe 0.08689 0.85216 0.38294 0.0
Fe359 Fe 0.11315 0.90039 0.35454 0.0
O360 O 0.11473 0.87438 0.37869 0.0
Fe361 Fe 0.14412 0.87044 0.39861 0.0
O362 O 0.14904 0.83657 0.38571 0.0
O363 O 0.10735 0.82313 0.39259 0.0
O364 O 0.08899 0.84045 0.3484 0.0
C365 C 0.08829 0.85578 0.32818 0.0
C366 C 0.10137 0.85929 0.4353 0.0
O367 O 0.09251 0.88091 0.33053 0.0
C368 C 0.14039 0.92519 0.3989 0.0
O369 O 0.06126 0.87691 0.37388 0.0
O370 O 0.08378 0.91497 0.37031 0.0
O371 O 0.12588 0.85772 0.42828 0.0
O372 O 0.08314 0.86254 0.41781 0.0
C373 C 0.16519 0.88539 0.34742 0.0
O374 O 0.13376 0.92437 0.37421 0.0
O375 O 0.14117 0.90397 0.4128 0.0
C376 C 0.0617 0.9024 0.37284 0.0
O377 O 0.14222 0.88776 0.33689 0.0
O378 O 0.16766 0.88259 0.37268 0.0
C379 C 0.13199 0.81778 0.38895 0.0
Fe380 Fe 0.37367 0.90142 0.64954 0.0
Fe381 Fe 0.35675 0.8821 0.59323 0.0
O382 O 0.37666 0.87833 0.62258 0.0
Fe383 Fe 0.39962 0.85147 0.62518 0.0
O384 O 0.38245 0.83801 0.65448 0.0
O385 O 0.38135 0.87679 0.67581 0.0
O386 O 0.33864 0.89241 0.65404 0.0
C387 C 0.32084 0.89414 0.63595 0.0
C388 C 0.42801 0.89537 0.64874 0.0
O389 O 0.32735 0.89561 0.61126 0.0
C390 C 0.40783 0.86587 0.57304 0.0
O391 O 0.36515 0.93031 0.6283 0.0
O392 O 0.37052 0.91547 0.58701 0.0
O393 O 0.42408 0.87023 0.6461 0.0
O394 O 0.40873 0.91158 0.64653 0.0
C395 C 0.35486 0.82751 0.59817 0.0
O396 O 0.38262 0.8691 0.57024 0.0
O397 O 0.41816 0.86315 0.59612 0.0
C398 C 0.36877 0.93479 0.60345 0.0
O399 O 0.34159 0.84898 0.59731 0.0
O400 O 0.37958 0.82786 0.60454 0.0
C401 C 0.37933 0.85131 0.67594 0.0
Fe402 Fe 0.40276 0.13608 0.87873 0.0
Fe403 Fe 0.37486 0.09139 0.84545 0.0
O404 O 0.37485 0.11432 0.87291 0.0
Fe405 Fe 0.3469 0.1155 0.89478 0.0
O406 O 0.34058 0.15029 0.88617 0.0
O407 O 0.38255 0.16368 0.89242 0.0
O408 O 0.3986 0.15151 0.84619 0.0
C409 C 0.39878 0.13909 0.82399 0.0
C410 C 0.39122 0.12336 0.93049 0.0
O411 O 0.39424 0.11386 0.82291 0.0
C412 C 0.35112 0.06138 0.88815 0.0
O413 O 0.42798 0.11267 0.86558 0.0
O414 O 0.40506 0.07537 0.85771 0.0
O415 O 0.36647 0.12551 0.92468 0.0
O416 O 0.40856 0.1221 0.91199 0.0
C417 C 0.32244 0.10636 0.84362 0.0
O418 O 0.35544 0.06506 0.86322 0.0
O419 O 0.35178 0.08086 0.90457 0.0
C420 C 0.42728 0.08751 0.86114 0.0
O421 O 0.34452 0.10555 0.83117 0.0
O422 O 0.32195 0.10571 0.86911 0.0
C423 C 0.35775 0.16898 0.8897 0.0
Fe424 Fe 0.59833 0.34508 0.8775 0.0
Fe425 Fe 0.62422 0.39718 0.85688 0.0
O426 O 0.62458 0.36943 0.87905 0.0
Fe427 Fe 0.65118 0.36588 0.90263 0.0
O428 O 0.66056 0.3336 0.88835 0.0
O429 O 0.61946 0.31681 0.88773 0.0
O430 O 0.60622 0.33678 0.84279 0.0
C431 C 0.60598 0.35379 0.82396 0.0
C432 C 0.6047 0.34907 0.9318 0.0
O433 O 0.60784 0.37878 0.82902 0.0
C434 C 0.64334 0.42 0.90607 0.0
O435 O 0.57229 0.36889 0.86718 0.0
O436 O 0.59219 0.40854 0.86984 0.0
O437 O 0.63005 0.34963 0.92846 0.0
O438 O 0.5889 0.35195 0.91205 0.0
C439 C 0.67767 0.38599 0.85596 0.0
O440 O 0.64052 0.42061 0.88069 0.0
O441 O 0.64371 0.39788 0.91851 0.0
C442 C 0.57097 0.39428 0.8693 0.0
O443 O 0.65619 0.38765 0.84245 0.0
O444 O 0.67692 0.38167 0.88111 0.0
C445 C 0.64473 0.31349 0.88772 0.0
Fe446 Fe 0.84804 0.36505 0.10132 0.0
Fe447 Fe 0.86854 0.38712 0.15549 0.0
O448 O 0.87075 0.36352 0.12881 0.0
Fe449 Fe 0.89574 0.33841 0.12966 0.0
O450 O 0.91059 0.35041 0.09862 0.0
O451 O 0.87231 0.35299 0.07634 0.0
O452 O 0.85917 0.39887 0.093 0.0
C453 C 0.85856 0.41858 0.10908 0.0
C454 C 0.85025 0.3107 0.10791 0.0
O455 O 0.85668 0.41481 0.13425 0.0
C456 C 0.88126 0.33829 0.18232 0.0
O457 O 0.81971 0.37749 0.12144 0.0
O458 O 0.83442 0.37634 0.16325 0.0
O459 O 0.87543 0.31297 0.11166 0.0
O460 O 0.83549 0.33121 0.10773 0.0
C461 C 0.92303 0.38462 0.15018 0.0
O462 O 0.88017 0.36378 0.18154 0.0
O463 O 0.88252 0.32475 0.1608 0.0
C464 C 0.81517 0.37682 0.14657 0.0
O465 O 0.90253 0.39939 0.14941 0.0
O466 O 0.92075 0.3593 0.14771 0.0
C467 C 0.89784 0.35219 0.07668 0.0
Fe468 Fe 0.84728 0.61542 0.39199 0.0
Fe469 Fe 0.89607 0.64611 0.36952 0.0
O470 O 0.87296 0.61879 0.36764 0.0
Fe471 Fe 0.87569 0.59463 0.34147 0.0
O472 O 0.84238 0.60229 0.32886 0.0
O473 O 0.82268 0.6002 0.3685 0.0
O474 O 0.8332 0.64764 0.38335 0.0
C475 C 0.8462 0.6696 0.3844 0.0
C476 C 0.86027 0.56288 0.38659 0.0
O477 O 0.87177 0.66997 0.38371 0.0
C478 C 0.92869 0.60205 0.35365 0.0
O479 O 0.8671 0.63034 0.41973 0.0
O480 O 0.90754 0.63614 0.40267 0.0
O481 O 0.86231 0.56631 0.36139 0.0
O482 O 0.85974 0.5829 0.40229 0.0
C483 C 0.88853 0.64404 0.31534 0.0
O484 O 0.9245 0.62716 0.35556 0.0
O485 O 0.90917 0.5855 0.35264 0.0
C486 C 0.89223 0.63403 0.4228 0.0
O487 O 0.8861 0.65787 0.33655 0.0
O488 O 0.88934 0.61854 0.31654 0.0
C489 C 0.82133 0.60031 0.34297 0.0
Fe490 Fe 0.89462 0.84656 0.87059 0.0
Fe491 Fe 0.84572 0.87271 0.8968 0.0
O492 O 0.86969 0.87158 0.87067 0.0
Fe493 Fe 0.86856 0.89562 0.84464 0.0
O494 O 0.90163 0.90816 0.85339 0.0
O495 O 0.92098 0.86854 0.85525 0.0
O496 O 0.90746 0.85766 0.90286 0.0
C497 C 0.89372 0.85761 0.92412 0.0
C498 C 0.88313 0.84749 0.81708 0.0
O499 O 0.8682 0.85871 0.92291 0.0
C500 C 0.81523 0.88638 0.85011 0.0
O501 O 0.87251 0.82034 0.88592 0.0
O502 O 0.83291 0.83977 0.88781 0.0
O503 O 0.88215 0.87303 0.81829 0.0
O504 O 0.88339 0.8338 0.83834 0.0
C505 C 0.85561 0.926 0.89172 0.0
O506 O 0.81865 0.88682 0.87551 0.0
O507 O 0.83519 0.88424 0.83465 0.0
C508 C 0.84691 0.81876 0.88764 0.0
O509 O 0.85741 0.9059 0.90703 0.0
O510 O 0.85491 0.92277 0.86627 0.0
C511 C 0.92262 0.89413 0.85375 0.0
Fe512 Fe 0.86938 0.10214 0.63593 0.0
Fe513 Fe 0.85331 0.12691 0.58201 0.0
O514 O 0.8737 0.12738 0.61134 0.0
Fe515 Fe 0.89824 0.15299 0.6164 0.0
O516 O 0.88241 0.16397 0.64721 0.0
O517 O 0.87951 0.12361 0.66468 0.0
O518 O 0.83549 0.11282 0.64204 0.0
C519 C 0.81741 0.11434 0.62426 0.0
C520 C 0.92384 0.10535 0.63335 0.0
O521 O 0.82326 0.1129 0.59935 0.0
C522 C 0.90522 0.14269 0.56293 0.0
O523 O 0.85848 0.07584 0.61193 0.0
O524 O 0.86519 0.09403 0.57227 0.0
O525 O 0.92195 0.13086 0.63437 0.0
O526 O 0.90317 0.09058 0.63076 0.0
C527 C 0.85386 0.1806 0.59411 0.0
O528 O 0.87978 0.14119 0.55982 0.0
O529 O 0.91552 0.14363 0.58612 0.0
C530 C 0.86338 0.07351 0.58699 0.0
O531 O 0.84013 0.15952 0.58992 0.0
O532 O 0.87893 0.17945 0.59912 0.0
C533 C 0.87879 0.149 0.6673 0.0
Fe534 Fe 0.61679 0.08983 0.35351 0.0
Fe535 Fe 0.6469 0.11864 0.39983 0.0
O536 O 0.6192 0.11632 0.3774 0.0
Fe537 Fe 0.59357 0.14062 0.37898 0.0
O538 O 0.60103 0.15157 0.3453 0.0
O539 O 0.60032 0.11079 0.32762 0.0
O540 O 0.64816 0.09978 0.33829 0.0
C541 C 0.67046 0.10227 0.35027 0.0
C542 C 0.56421 0.09244 0.36837 0.0
O543 O 0.67157 0.10486 0.37573 0.0
C544 C 0.60168 0.13069 0.43213 0.0
O545 O 0.63333 0.06452 0.3751 0.0
O546 O 0.63925 0.08604 0.41351 0.0
O547 O 0.56641 0.11786 0.36723 0.0
O548 O 0.58491 0.07806 0.36717 0.0
C549 C 0.64092 0.17167 0.38861 0.0
O550 O 0.6269 0.13245 0.42786 0.0
O551 O 0.58512 0.1306 0.4128 0.0
C552 C 0.63734 0.06438 0.4004 0.0
O553 O 0.65637 0.15176 0.38777 0.0
O554 O 0.61569 0.16821 0.39092 0.0
C555 C 0.60061 0.13629 0.32495 0.0
Fe556 Fe 0.59438 0.83602 0.13172 0.0
Fe557 Fe 0.6431 0.86514 0.10776 0.0
O558 O 0.61814 0.86279 0.13289 0.0
Fe559 Fe 0.61677 0.88698 0.15899 0.0
O560 O 0.58313 0.89632 0.14923 0.0
O561 O 0.5669 0.85504 0.14768 0.0
O562 O 0.58161 0.84743 0.09975 0.0
C563 C 0.59595 0.85027 0.07905 0.0
C564 C 0.60552 0.83701 0.18517 0.0
O565 O 0.62152 0.85046 0.08085 0.0
C566 C 0.67111 0.8806 0.15551 0.0
O567 O 0.61748 0.81186 0.11579 0.0
O568 O 0.65653 0.83302 0.11722 0.0
O569 O 0.60447 0.86265 0.18468 0.0
O570 O 0.60606 0.82363 0.16356 0.0
C571 C 0.62899 0.91767 0.11221 0.0
O572 O 0.66891 0.88045 0.13002 0.0
O573 O 0.6505 0.87936 0.17023 0.0
C574 C 0.64303 0.81142 0.11691 0.0
O575 O 0.63117 0.8974 0.09712 0.0
O576 O 0.62863 0.91527 0.13773 0.0
C577 C 0.56335 0.88026 0.14853 0.0
Fe578 Fe 0.40125 0.66086 0.1225 0.0
Fe579 Fe 0.35247 0.6371 0.09213 0.0
O580 O 0.37595 0.63566 0.11895 0.0
Fe581 Fe 0.37416 0.609 0.14226 0.0
O582 O 0.40727 0.59806 0.13316 0.0
O583 O 0.42666 0.63795 0.1368 0.0
O584 O 0.41494 0.65271 0.08997 0.0
C585 C 0.40187 0.6534 0.06821 0.0
C586 C 0.38651 0.65444 0.17483 0.0
O587 O 0.37626 0.65312 0.06825 0.0
C588 C 0.32101 0.61987 0.1366 0.0
O589 O 0.38031 0.68823 0.10871 0.0
O590 O 0.34043 0.66898 0.10402 0.0
O591 O 0.3867 0.62915 0.17106 0.0
O592 O 0.38899 0.67039 0.15532 0.0
C593 C 0.36338 0.58356 0.09226 0.0
O594 O 0.32451 0.62157 0.11131 0.0
O595 O 0.34082 0.6184 0.15241 0.0
C596 C 0.35481 0.68982 0.10716 0.0
O597 O 0.36312 0.60501 0.0788 0.0
O598 O 0.36138 0.58409 0.11772 0.0
C599 C 0.42821 0.61253 0.13435 0.0
Fe600 Fe 0.12362 0.57915 0.85495 0.0
Fe601 Fe 0.15621 0.6101 0.89824 0.0
O602 O 0.1273 0.60669 0.87748 0.0
Fe603 Fe 0.10187 0.63112 0.87941 0.0
O604 O 0.10733 0.64049 0.84489 0.0
O605 O 0.10613 0.59902 0.82879 0.0
O606 O 0.15435 0.58802 0.83784 0.0
C607 C 0.17718 0.59092 0.84862 0.0
C608 C 0.0718 0.58275 0.87191 0.0
O609 O 0.1795 0.59471 0.87384 0.0
C610 C 0.11303 0.6245 0.93245 0.0
O611 O 0.14076 0.55487 0.87725 0.0
O612 O 0.14908 0.57842 0.91413 0.0
O613 O 0.07408 0.6081 0.87019 0.0
O614 O 0.09233 0.56821 0.87038 0.0
C615 C 0.14968 0.66233 0.88426 0.0
O616 O 0.13794 0.62582 0.92655 0.0
O617 O 0.0954 0.62272 0.91413 0.0
C618 C 0.1457 0.5561 0.90239 0.0
O619 O 0.16507 0.64236 0.88359 0.0
O620 O 0.12474 0.65901 0.88875 0.0
C621 C 0.10582 0.62441 0.82519 0.0
Fe622 Fe 0.14207 0.37606 0.60695 0.0
Fe623 Fe 0.09206 0.34665 0.62813 0.0
O624 O 0.11656 0.37258 0.6314 0.0
Fe625 Fe 0.11566 0.39517 0.65903 0.0
O626 O 0.14868 0.38496 0.67037 0.0
O627 O 0.16755 0.38949 0.63067 0.0
O628 O 0.15478 0.34318 0.61439 0.0
C629 C 0.14101 0.32175 0.61306 0.0
C630 C 0.12954 0.42844 0.61467 0.0
O631 O 0.11539 0.32237 0.61257 0.0
C632 C 0.06233 0.39176 0.64601 0.0
O633 O 0.12134 0.36331 0.5787 0.0
O634 O 0.08088 0.35921 0.59595 0.0
O635 O 0.1294 0.42422 0.63994 0.0
O636 O 0.13062 0.40908 0.59829 0.0
C637 C 0.101 0.34472 0.68214 0.0
O638 O 0.06454 0.36642 0.64327 0.0
O639 O 0.08288 0.40659 0.64918 0.0
C640 C 0.09594 0.3624 0.57585 0.0
O641 O 0.10168 0.33245 0.65994 0.0
O642 O 0.10136 0.37031 0.68295 0.0
C643 C 0.16951 0.3868 0.65601 0.0
Fe644 Fe 0.64856 0.63247 0.60718 0.0
Fe645 Fe 0.62051 0.60487 0.65477 0.0
O646 O 0.62097 0.6298 0.62942 0.0
Fe647 Fe 0.59377 0.6523 0.62627 0.0
O648 O 0.58648 0.64032 0.59248 0.0
O649 O 0.62834 0.6441 0.57843 0.0
O650 O 0.64309 0.59862 0.59476 0.0
C651 C 0.64268 0.57794 0.60942 0.0
C652 C 0.6395 0.68547 0.61592 0.0
O653 O 0.63854 0.57969 0.63458 0.0
C654 C 0.59995 0.65119 0.68077 0.0
O655 O 0.6737 0.62126 0.63169 0.0
O656 O 0.65147 0.61767 0.66973 0.0
O657 O 0.61442 0.68067 0.61367 0.0
O658 O 0.6558 0.66641 0.61838 0.0
C659 C 0.56791 0.60275 0.63935 0.0
O660 O 0.60236 0.62578 0.6794 0.0
O661 O 0.59979 0.6654 0.65977 0.0
C662 C 0.67338 0.62012 0.65717 0.0
O663 O 0.5897 0.59022 0.64156 0.0
O664 O 0.56796 0.62826 0.63834 0.0
C665 C 0.60334 0.64143 0.57353 0.0
Fe666 Fe 0.39936 0.35431 0.37824 0.0
Fe667 Fe 0.37531 0.40439 0.35233 0.0
O668 O 0.37366 0.3785 0.3765 0.0
Fe669 Fe 0.34633 0.37658 0.39905 0.0
O670 O 0.33653 0.34387 0.38596 0.0
O671 O 0.37689 0.32672 0.39008 0.0
O672 O 0.39205 0.34294 0.3445 0.0
C673 C 0.39306 0.35773 0.32395 0.0
C674 C 0.39143 0.36238 0.43146 0.0
O675 O 0.39184 0.38327 0.32623 0.0
C676 C 0.35542 0.43061 0.39959 0.0
O677 O 0.42649 0.37721 0.36636 0.0
O678 O 0.4071 0.41663 0.36573 0.0
O679 O 0.36619 0.36166 0.42686 0.0
O680 O 0.40788 0.36456 0.41227 0.0
C681 C 0.32165 0.39332 0.35004 0.0
O682 O 0.3589 0.42981 0.37417 0.0
O683 O 0.3547 0.40919 0.41315 0.0
C684 C 0.42814 0.40275 0.36629 0.0
O685 O 0.34361 0.39391 0.33743 0.0
O686 O 0.3215 0.39119 0.37554 0.0
C687 C 0.35155 0.32364 0.38735 0.0
H688 H 0.11472 0.22825 0.3303 0.0
H689 H 0.03491 0.19531 0.31495 0.0
H690 H 0.13144 0.20532 0.29005 0.0
H691 H 0.05184 0.17218 0.275 0.0
H692 H 0.09729 0.11611 0.21913 0.0
H693 H 0.08733 0.13483 0.26351 0.0
H694 H 0.119 0.2122 0.23853 0.0
H695 H 0.12875 0.19367 0.19387 0.0
C696 C 0.10084 0.21586 0.31855 0.0
C697 C 0.07346 0.21366 0.32566 0.0
C698 C 0.11042 0.20286 0.29555 0.0
C699 C 0.09289 0.18705 0.27962 0.0
C700 C 0.06576 0.18411 0.28717 0.0
C701 C 0.05606 0.19748 0.30988 0.0
C702 C 0.10255 0.137 0.22319 0.0
C703 C 0.11352 0.15355 0.20293 0.0
C704 C 0.09675 0.14767 0.24854 0.0
C705 C 0.10225 0.17491 0.2542 0.0
C706 C 0.11468 0.19108 0.23456 0.0
C707 C 0.12012 0.18053 0.20904 0.0
H708 H 0.0218 0.79383 0.57898 0.0
H709 H 0.06979 0.73275 0.54024 0.0
H710 H 0.04117 0.82793 0.54906 0.0
H711 H 0.08915 0.76687 0.51057 0.0
H712 H 0.13346 0.83535 0.47291 0.0
H713 H 0.11857 0.80963 0.51196 0.0
H714 H 0.03668 0.83471 0.49789 0.0
H715 H 0.05141 0.86043 0.45865 0.0
C716 C 0.03672 0.78773 0.56434 0.0
C717 C 0.04416 0.76054 0.56187 0.0
C718 C 0.04772 0.80725 0.54723 0.0
C719 C 0.06669 0.80003 0.52764 0.0
C720 C 0.0748 0.77305 0.52576 0.0
C721 C 0.06354 0.75347 0.54258 0.0
C722 C 0.11237 0.83602 0.47848 0.0
C723 C 0.09351 0.84957 0.46236 0.0
C724 C 0.10387 0.82114 0.50078 0.0
C725 C 0.07645 0.81986 0.50761 0.0
C726 C 0.05796 0.83537 0.49303 0.0
C727 C 0.0664 0.85003 0.47052 0.0
H728 H 0.46277 0.83685 0.81491 0.0
H729 H 0.42721 0.7569 0.81718 0.0
H730 H 0.43262 0.84872 0.77818 0.0
H731 H 0.397 0.76883 0.77982 0.0
H732 H 0.3933 0.79896 0.68602 0.0
H733 H 0.40752 0.78113 0.72956 0.0
H734 H 0.38211 0.85442 0.76865 0.0
H735 H 0.36798 0.87238 0.72527 0.0
C736 C 0.44837 0.82187 0.80764 0.0
C737 C 0.44741 0.79594 0.81873 0.0
C738 C 0.4309 0.82875 0.78682 0.0
C739 C 0.41233 0.80974 0.77642 0.0
C740 C 0.41108 0.78383 0.78765 0.0
C741 C 0.42833 0.77706 0.80892 0.0
C742 C 0.3899 0.8109 0.704 0.0
C743 C 0.38035 0.83741 0.70217 0.0
C744 C 0.39795 0.80063 0.72893 0.0
C745 C 0.39646 0.81673 0.75224 0.0
C746 C 0.38391 0.84187 0.75082 0.0
C747 C 0.37588 0.85212 0.72599 0.0
H748 H 0.41856 0.2269 0.06435 0.0
H749 H 0.4705 0.1605 0.08438 0.0
H750 H 0.40102 0.2012 0.02564 0.0
H751 H 0.4532 0.13516 0.04571 0.0
H752 H 0.35957 0.13802 0.97284 0.0
H753 H 0.37432 0.15706 0.01583 0.0
H754 H 0.45725 0.14269 0.99451 0.0
H755 H 0.44265 0.1238 0.95117 0.0
C756 C 0.42606 0.20681 0.06061 0.0
C757 C 0.44604 0.19582 0.07722 0.0
C758 C 0.41597 0.19208 0.03859 0.0
C759 C 0.4259 0.16628 0.03274 0.0
C760 C 0.44543 0.1551 0.04968 0.0
C761 C 0.45526 0.16965 0.07181 0.0
C762 C 0.38095 0.13845 0.97741 0.0
C763 C 0.39999 0.1297 0.95837 0.0
C764 C 0.38934 0.14953 0.00198 0.0
C765 C 0.41687 0.15168 0.00822 0.0
C766 C 0.43585 0.14125 0.9901 0.0
C767 C 0.4275 0.13045 0.96532 0.0
H768 H 0.07497 0.79601 0.16459 0.0
H769 H 0.99255 0.80093 0.19197 0.0
H770 H 0.09081 0.81386 0.20798 0.0
H771 H 0.00853 0.81829 0.23566 0.0
H772 H 0.05644 0.81147 0.31812 0.0
H773 H 0.03991 0.7956 0.2741 0.0
H774 H 0.08385 0.8601 0.23508 0.0
H775 H 0.10002 0.8763 0.27895 0.0
C776 C 0.06029 0.80112 0.17985 0.0
C777 C 0.03259 0.79727 0.17504 0.0
C778 C 0.06933 0.81129 0.20456 0.0
C779 C 0.05082 0.81722 0.22499 0.0
C780 C 0.02309 0.81365 0.22013 0.0
C781 C 0.014 0.80398 0.19517 0.0
C782 C 0.06265 0.82214 0.30011 0.0
C783 C 0.07947 0.84508 0.30184 0.0
C784 C 0.05304 0.81322 0.27507 0.0
C785 C 0.06058 0.8268 0.25145 0.0
C786 C 0.07782 0.84937 0.25312 0.0
C787 C 0.08699 0.8586 0.27814 0.0
H788 H 0.47856 0.81663 0.41818 0.0
H789 H 0.45239 0.74791 0.46501 0.0
H790 H 0.46798 0.84661 0.45605 0.0
H791 H 0.44263 0.77787 0.50302 0.0
H792 H 0.45448 0.83731 0.57241 0.0
H793 H 0.47404 0.81462 0.53352 0.0
H794 H 0.417 0.85344 0.48104 0.0
H795 H 0.39675 0.8758 0.52001 0.0
C796 C 0.47085 0.80795 0.43666 0.0
C797 C 0.46612 0.78002 0.43874 0.0
C798 C 0.46484 0.82507 0.45819 0.0
C799 C 0.45475 0.81438 0.48228 0.0
C800 C 0.45067 0.78642 0.48461 0.0
C801 C 0.45605 0.76938 0.46289 0.0
C802 C 0.44652 0.84165 0.55254 0.0
C803 C 0.42378 0.85803 0.54928 0.0
C804 C 0.45769 0.82857 0.53037 0.0
C805 C 0.44674 0.83218 0.50457 0.0
C806 C 0.4257 0.85045 0.50087 0.0
C807 C 0.41414 0.86315 0.52313 0.0
H808 H 0.51423 0.22344 0.73111 0.0
H809 H 0.45565 0.20376 0.66901 0.0
H810 H 0.48453 0.20364 0.76494 0.0
H811 H 0.42602 0.18363 0.70308 0.0
H812 H 0.40721 0.119 0.77303 0.0
H813 H 0.43036 0.14177 0.73584 0.0
H814 H 0.43703 0.21437 0.78383 0.0
H815 H 0.41384 0.19204 0.82079 0.0
C816 C 0.495 0.21492 0.7247 0.0
C817 C 0.48726 0.21513 0.69743 0.0
C818 C 0.47796 0.20375 0.74407 0.0
C819 C 0.45302 0.19224 0.73653 0.0
C820 C 0.4452 0.19237 0.7093 0.0
C821 C 0.46208 0.20398 0.68992 0.0
C822 C 0.41319 0.13995 0.77547 0.0
C823 C 0.40904 0.15355 0.80003 0.0
C824 C 0.42634 0.15296 0.75418 0.0
C825 C 0.43572 0.17965 0.75723 0.0
C826 C 0.4303 0.19365 0.78118 0.0
C827 C 0.41697 0.18081 0.8023 0.0
H828 H 0.0135 0.22828 0.94312 0.0
H829 H 0.03514 0.15285 0.90529 0.0
H830 H 0.03691 0.21486 0.98412 0.0
H831 H 0.05847 0.13952 0.94648 0.0
H832 H 0.12076 0.14087 0.017 0.0
H833 H 0.09902 0.15401 0.97487 0.0
H834 H 0.02863 0.17872 0.01915 0.0
H835 H 0.05022 0.16567 0.06128 0.0
C836 C 0.02343 0.20895 0.94344 0.0
C837 C 0.02238 0.1916 0.92095 0.0
C838 C 0.03664 0.20122 0.96699 0.0
C839 C 0.04928 0.1761 0.96847 0.0
C840 C 0.04895 0.15905 0.94579 0.0
C841 C 0.0355 0.16666 0.92228 0.0
C842 C 0.10061 0.14904 0.01775 0.0
C843 C 0.08726 0.15234 0.04249 0.0
C844 C 0.08817 0.15645 0.99363 0.0
C845 C 0.06227 0.16754 0.99385 0.0
C846 C 0.04878 0.17055 0.0185 0.0
C847 C 0.06109 0.16291 0.04258 0.0
H848 H 0.32392 0.07276 0.22846 0.0
H849 H 0.31494 0.00714 0.17136 0.0
H850 H 0.28577 0.09547 0.20763 0.0
H851 H 0.27678 0.02983 0.15062 0.0
H852 H 0.22136 0.08744 0.10709 0.0
H853 H 0.26429 0.07141 0.12475 0.0
H854 H 0.23622 0.0845 0.20605 0.0
H855 H 0.19342 0.10064 0.18855 0.0
C856 C 0.31395 0.0633 0.21133 0.0
C857 C 0.32221 0.03806 0.20168 0.0
C858 C 0.2921 0.07627 0.19948 0.0
C859 C 0.27829 0.06434 0.17761 0.0
C860 C 0.28722 0.0396 0.1673 0.0
C861 C 0.30894 0.02653 0.17929 0.0
C862 C 0.22446 0.0872 0.12873 0.0
C863 C 0.20389 0.09505 0.14644 0.0
C864 C 0.24898 0.07792 0.1388 0.0
C865 C 0.25349 0.07661 0.16674 0.0
C866 C 0.23337 0.08551 0.18441 0.0
C867 C 0.20879 0.09456 0.17437 0.0
H868 H 0.23692 0.05128 0.47708 0.0
H869 H 0.16512 0.09075 0.44823 0.0
H870 H 0.22075 0.00883 0.45711 0.0
H871 H 0.14903 0.04851 0.42877 0.0
H872 H 0.14112 0.97451 0.37491 0.0
H873 H 0.1602 0.01647 0.39247 0.0
H874 H 0.18252 0.97622 0.46618 0.0
H875 H 0.16369 0.93392 0.44851 0.0
C876 C 0.21788 0.05099 0.46627 0.0
C877 C 0.20226 0.07436 0.46433 0.0
C878 C 0.20854 0.02666 0.45508 0.0
C879 C 0.18358 0.02539 0.44154 0.0
C880 C 0.16843 0.04893 0.43891 0.0
C881 C 0.17763 0.07311 0.4502 0.0
C882 C 0.15002 0.97454 0.3949 0.0
C883 C 0.15079 0.95086 0.41035 0.0
C884 C 0.16092 -0.00139 0.40494 0.0
C885 C 0.17289 -0.00044 0.43064 0.0
C886 C 0.17371 0.97595 0.44614 0.0
C887 C 0.16269 0.95182 0.43613 0.0
H888 H 0.17015 0.92306 0.72181 0.0
H889 H 0.18477 0.9895 0.66747 0.0
H890 H 0.20715 0.89842 0.70117 0.0
H891 H 0.22194 0.96519 0.64729 0.0
H892 H 0.27866 0.91103 0.60464 0.0
H893 H 0.23461 0.92596 0.62023 0.0
H894 H 0.25601 0.90427 0.7018 0.0
H895 H 0.29958 0.88888 0.68627 0.0
C896 C 0.18119 0.93235 0.70541 0.0
C897 C 0.17476 0.95831 0.69642 0.0
C898 C 0.20236 0.91825 0.69361 0.0
C899 C 0.21746 0.92987 0.67262 0.0
C900 C 0.21044 0.9555 0.66313 0.0
C901 C 0.18931 0.96956 0.6749 0.0
C902 C 0.27373 0.90897 0.6258 0.0
C903 C 0.29278 0.89923 0.6443 0.0
C904 C 0.24858 0.91765 0.63474 0.0
C905 C 0.242 0.91663 0.66229 0.0
C906 C 0.26038 0.9052 0.68043 0.0
C907 C 0.28548 0.89659 0.67154 0.0
H908 H 0.28523 0.92105 0.97172 0.0
H909 H 0.22141 0.95504 0.92334 0.0
H910 H 0.31747 0.95259 0.95193 0.0
H911 H 0.25395 0.98661 0.90353 0.0
H912 H 0.32438 0.02375 0.8575 0.0
H913 H 0.29691 0.986 0.87383 0.0
H914 H 0.32217 0.00394 0.95548 0.0
H915 H 0.34949 0.04176 0.93929 0.0
C916 C 0.27809 0.93509 0.9567 0.0
C917 C 0.25071 0.93561 0.94913 0.0
C918 C 0.29658 0.95314 0.94545 0.0
C919 C 0.28816 0.97187 0.9262 0.0
C920 C 0.26096 0.97208 0.91814 0.0
C921 C 0.24233 0.9542 0.92963 0.0
C922 C 0.32457 0.01924 0.87886 0.0
C923 C 0.33893 0.03576 0.89719 0.0
C924 C 0.30867 -0.00217 0.88817 0.0
C925 C 0.30728 0.99234 0.91587 0.0
C926 C 0.32299 0.00775 0.934 0.0
C927 C 0.33856 0.02939 0.92475 0.0
H928 H 0.32096 0.94208 0.28452 0.0
H929 H 0.26081 0.00387 0.27596 0.0
H930 H 0.28601 0.91012 0.29886 0.0
H931 H 0.226 0.97182 0.29015 0.0
H932 H 0.16627 0.90424 0.29566 0.0
H933 H 0.20378 0.92754 0.27386 0.0
H934 H 0.2557 0.90796 0.34085 0.0
H935 H 0.21822 0.88472 0.36292 0.0
C936 C 0.30028 0.9488 0.28553 0.0
C937 C 0.29365 0.97557 0.27929 0.0
C938 C 0.28035 0.93049 0.29374 0.0
C939 C 0.25337 0.93849 0.29541 0.0
C940 C 0.24664 0.96505 0.28865 0.0
C941 C 0.2666 0.98346 0.28081 0.0
C942 C 0.18582 0.90429 0.30552 0.0
C943 C 0.18912 0.89311 0.33134 0.0
C944 C 0.20722 0.91777 0.29305 0.0
C945 C 0.23239 0.91995 0.30595 0.0
C946 C 0.23643 0.9066 0.33052 0.0
C947 C 0.21495 0.89335 0.34316 0.0
H948 H 0.2691 0.06557 0.57557 0.0
H949 H 0.32669 0.07952 0.51177 0.0
H950 H 0.29743 0.0302 0.59362 0.0
H951 H 0.3552 0.04398 0.53 0.0
H952 H 0.36778 0.95124 0.55073 0.0
H953 H 0.35029 0.99362 0.53375 0.0
H954 H 0.34222 0.02306 0.61537 0.0
H955 H 0.35945 0.98066 0.63249 0.0
C956 C 0.28791 0.0612 0.56551 0.0
C957 C 0.2956 0.07519 0.54218 0.0
C958 C 0.30428 0.04112 0.576 0.0
C959 C 0.32862 0.03447 0.56331 0.0
C960 C 0.33652 0.04868 0.54014 0.0
C961 C 0.32021 0.06899 0.52975 0.0
C962 C 0.36287 0.96695 0.56507 0.0
C963 C 0.36438 0.9623 0.593 0.0
C964 C 0.35295 0.99129 0.5553 0.0
C965 C 0.34438 0.01137 0.57329 0.0
C966 C 0.34815 0.00765 0.6011 0.0
C967 C 0.35813 0.98339 0.61087 0.0
H968 H 0.15699 0.08933 0.78584 0.0
H969 H 0.19739 0.0157 0.76374 0.0
H970 H 0.19922 0.10799 0.80298 0.0
H971 H 0.2398 0.03449 0.78143 0.0
H972 H 0.31558 0.08695 0.79217 0.0
H973 H 0.27322 0.07186 0.77127 0.0
H974 H 0.22955 0.09899 0.84133 0.0
H975 H 0.27162 0.11425 0.86208 0.0
C976 C 0.17485 0.07703 0.78473 0.0
C977 C 0.17377 0.05093 0.77347 0.0
C978 C 0.19904 0.08777 0.79462 0.0
C979 C 0.22277 0.07275 0.79344 0.0
C980 C 0.22182 0.04665 0.78224 0.0
C981 C 0.1975 0.03579 0.77242 0.0
C982 C 0.29687 0.09021 0.80284 0.0
C983 C 0.29692 0.10168 0.82883 0.0
C984 C 0.2727 0.08128 0.79101 0.0
C985 C 0.24819 0.08396 0.80483 0.0
C986 C 0.24813 0.09673 0.83017 0.0
C987 C 0.27224 0.10544 0.84206 0.0
H988 H 0.15028 0.90707 0.02521 0.0
H989 H 0.22637 0.94682 0.04328 0.0
H990 H 0.12627 0.94808 0.03854 0.0
H991 H 0.20241 0.98772 0.05577 0.0
H992 H 0.15096 0.0624 0.04152 0.0
H993 H 0.16509 0.01919 0.02291 0.0
H994 H 0.13042 0.97792 0.09111 0.0
H995 H 0.11668 0.02121 0.11028 0.0
C996 C 0.1618 0.92455 0.03199 0.0
C997 C 0.19012 0.92389 0.03334 0.0
C998 C 0.1481 0.94785 0.0395 0.0
C999 C 0.16268 0.97083 0.04776 0.0
C1000 C 0.19092 0.97016 0.04914 0.0
C1001 C 0.20454 0.94677 0.04222 0.0
C1002 C 0.14565 0.0441 0.05221 0.0
C1003 C 0.13313 0.04513 0.07757 0.0
C1004 C 0.15376 0.01947 0.04156 0.0
C1005 C 0.14891 -0.00443 0.0558 0.0
C1006 C 0.13424 -0.00375 0.07987 0.0
C1007 C 0.12653 0.02094 0.09081 0.0
H1008 H 0.24491 0.29625 0.0247 0.0
H1009 H 0.22204 0.33871 0.09735 0.0
H1010 H 0.22254 0.25559 0.04136 0.0
H1011 H 0.19977 0.29792 0.1139 0.0
H1012 H 0.13475 0.2279 0.11213 0.0
H1013 H 0.15902 0.26924 0.10006 0.0
H1014 H 0.22917 0.22272 0.07979 0.0
H1015 H 0.20511 0.18141 0.09175 0.0
C1016 C 0.23511 0.29694 0.04417 0.0
C1017 C 0.23524 0.32072 0.05967 0.0
C1018 C 0.2225 0.27361 0.05379 0.0
C1019 C 0.20958 0.27367 0.07895 0.0
C1020 C 0.20951 0.29743 0.09439 0.0
C1021 C 0.22235 0.32071 0.08491 0.0
C1022 C 0.15545 0.22651 0.10539 0.0
C1023 C 0.16788 0.20134 0.10258 0.0
C1024 C 0.16934 0.25017 0.09859 0.0
C1025 C 0.1958 0.24904 0.08869 0.0
C1026 C 0.20861 0.22404 0.08696 0.0
C1027 C 0.19485 0.20043 0.09396 0.0
H1028 H 0.72733 0.16996 0.94993 0.0
H1029 H 0.67167 0.20322 0.00772 0.0
H1030 H 0.71178 0.20224 0.91607 0.0
H1031 H 0.65582 0.23486 0.97372 0.0
H1032 H 0.69754 0.29807 0.89287 0.0
H1033 H 0.71356 0.25821 0.91671 0.0
H1034 H 0.63162 0.22912 0.92446 0.0
H1035 H 0.61546 0.26837 0.90031 0.0
C1036 C 0.71158 0.18394 0.95527 0.0
C1037 C 0.70067 0.18414 0.98143 0.0
C1038 C 0.70281 0.20235 0.93595 0.0
C1039 C 0.68252 0.22071 0.94234 0.0
C1040 C 0.67129 0.2206 0.9683 0.0
C1041 C 0.68047 0.20266 0.98776 0.0
C1042 C 0.683 0.28277 0.89889 0.0
C1043 C 0.65518 0.28671 0.89519 0.0
C1044 C 0.6922 0.25999 0.91248 0.0
C1045 C 0.67369 0.24104 0.92272 0.0
C1046 C 0.64617 0.24372 0.91696 0.0
C1047 C 0.63701 0.2662 0.90306 0.0
H1048 H 0.06644 0.42768 0.24051 0.0
H1049 H 0.07171 0.47731 0.16922 0.0
H1050 H 0.02486 0.40693 0.22296 0.0
H1051 H 0.03021 0.45673 0.15192 0.0
H1052 H 0.93788 0.4379 0.15133 0.0
H1053 H 0.98083 0.4572 0.16685 0.0
H1054 H 0.0104 0.3773 0.18271 0.0
H1055 H 0.96764 0.3579 0.16721 0.0
C1056 C 0.05879 0.43405 0.2211 0.0
C1057 C 0.07219 0.45418 0.20631 0.0
C1058 C 0.03511 0.42215 0.21104 0.0
C1059 C 0.02437 0.43041 0.18619 0.0
C1060 C 0.03796 0.45027 0.17127 0.0
C1061 C 0.06174 0.46194 0.18116 0.0
C1062 C 0.95359 0.42446 0.15799 0.0
C1063 C 0.94937 0.39641 0.15809 0.0
C1064 C 0.97816 0.43549 0.16676 0.0
C1065 C -0.00123 0.41868 0.17603 0.0
C1066 C 0.99468 0.39066 0.17588 0.0
C1067 C 0.97027 0.3796 0.16683 0.0
H1068 H 0.77495 0.82681 0.4224 0.0
H1069 H 0.79598 0.78561 0.496 0.0
H1070 H 0.78878 0.78732 0.39607 0.0
H1071 H 0.80891 0.74597 0.46965 0.0
H1072 H 0.79798 0.67299 0.41032 0.0
H1073 H 0.7785 0.71321 0.43071 0.0
H1074 H 0.84252 0.76212 0.39722 0.0
H1075 H 0.86265 0.72179 0.37731 0.0
C1076 C 0.78224 0.80922 0.43291 0.0
C1077 C 0.78457 0.8092 0.46117 0.0
C1078 C 0.79013 0.78678 0.41787 0.0
C1079 C 0.79971 0.76383 0.431 0.0
C1080 C 0.80139 0.76352 0.45924 0.0
C1081 C 0.79415 0.78616 0.47422 0.0
C1082 C 0.80763 0.69237 0.40679 0.0
C1083 C 0.83196 0.69428 0.39239 0.0
C1084 C 0.79651 0.71527 0.41853 0.0
C1085 C 0.80916 0.74048 0.41547 0.0
C1086 C 0.83246 0.74277 0.39966 0.0
C1087 C 0.84395 0.71977 0.38839 0.0
H1088 H 0.90026 0.06148 0.16035 0.0
H1089 H 0.94534 0.03046 0.22806 0.0
H1090 H 0.94141 0.08275 0.14298 0.0
H1091 H 0.98633 0.05155 0.21045 0.0
H1092 H 0.05454 0.0554 0.14775 0.0
H1093 H 0.01146 0.03943 0.1651 0.0
H1094 H 0.97916 0.11947 0.15808 0.0
H1095 H 0.02267 0.1359 0.14092 0.0
C1096 C 0.91885 0.05945 0.17167 0.0
C1097 C 0.91963 0.04407 0.19545 0.0
C1098 C 0.94229 0.07173 0.16177 0.0
C1099 C 0.96691 0.06846 0.17528 0.0
C1100 C 0.96753 0.05407 0.19959 0.0
C1101 C 0.94406 0.04214 0.2097 0.0
C1102 C 0.03828 0.06966 0.14964 0.0
C1103 C 0.04212 0.09701 0.14317 0.0
C1104 C 0.0137 0.0605 0.15977 0.0
C1105 C 0.9923 0.07836 0.16327 0.0
C1106 C -0.00447 0.10542 0.15565 0.0
C1107 C 0.02036 0.11475 0.14585 0.0
H1108 H 0.31147 0.68686 0.50148 0.0
H1109 H 0.2604 0.68264 0.57187 0.0
H1110 H 0.33194 0.72873 0.51898 0.0
H1111 H 0.2805 0.72434 0.58893 0.0
H1112 H 0.30129 0.81548 0.59193 0.0
H1113 H 0.28134 0.77407 0.57321 0.0
H1114 H 0.36087 0.74168 0.56149 0.0
H1115 H 0.38091 0.78285 0.58034 0.0
C1116 C 0.30462 0.69487 0.52059 0.0
C1117 C 0.2843 0.68159 0.53525 0.0
C1118 C 0.31633 0.7187 0.53059 0.0
C1119 C 0.30758 0.7297 0.55517 0.0
C1120 C 0.28731 0.7164 0.56977 0.0
C1121 C 0.27591 0.69248 0.56001 0.0
C1122 C 0.31448 0.79949 0.58543 0.0
C1123 C 0.34261 0.80231 0.58774 0.0
C1124 C 0.30309 0.77586 0.57476 0.0
C1125 C 0.31965 0.75487 0.56589 0.0
C1126 C 0.34775 0.75773 0.568 0.0
C1127 C 0.35914 0.78117 0.57902 0.0
H1128 H 0.03953 0.56987 0.23357 0.0
H1129 H 0.0728 0.51866 0.29531 0.0
H1130 H 0.00847 0.58879 0.26644 0.0
H1131 H 0.04123 0.53741 0.32815 0.0
H1132 H 0.9474 0.55039 0.35277 0.0
H1133 H 0.98765 0.5345 0.32957 0.0
H1134 H 0.01061 0.61668 0.31169 0.0
H1135 H 0.9707 0.63273 0.33507 0.0
C1136 C 0.04031 0.56278 0.25419 0.0
C1137 C 0.05851 0.54275 0.26187 0.0
C1138 C 0.02271 0.57377 0.27303 0.0
C1139 C 0.02265 0.56461 0.29979 0.0
C1140 C 0.04101 0.54481 0.30762 0.0
C1141 C 0.05904 0.53417 0.28887 0.0
C1142 C 0.96141 0.5651 0.34452 0.0
C1143 C 0.95565 0.59277 0.34538 0.0
C1144 C 0.98446 0.556 0.33136 0.0
C1145 C 0.0019 0.57441 0.31859 0.0
C1146 C -0.00275 0.60213 0.32119 0.0
C1147 C 0.97446 0.61126 0.33468 0.0
H1148 H 0.43772 0.41733 0.77166 0.0
H1149 H 0.43258 0.49125 0.81774 0.0
H1150 H 0.47391 0.40222 0.80094 0.0
H1151 H 0.46917 0.476 0.84717 0.0
H1152 H 0.56119 0.44763 0.85905 0.0
H1153 H 0.51969 0.46609 0.84044 0.0
H1154 H 0.47999 0.38875 0.84982 0.0
H1155 H 0.52132 0.37017 0.86826 0.0
C1156 C 0.4443 0.43033 0.78808 0.0
C1157 C 0.43237 0.45546 0.7924 0.0
C1158 C 0.46484 0.42156 0.80501 0.0
C1159 C 0.47407 0.43783 0.82649 0.0
C1160 C 0.46232 0.46308 0.83078 0.0
C1161 C 0.44144 0.47175 0.81397 0.0
C1162 C 0.54342 0.43474 0.85781 0.0
C1163 C 0.54473 0.40724 0.86447 0.0
C1164 C 0.51966 0.44536 0.84722 0.0
C1165 C 0.49692 0.42863 0.84317 0.0
C1166 C 0.49748 0.40188 0.85223 0.0
C1167 C 0.52113 0.3913 0.86283 0.0
H1168 H 0.9259 0.73333 0.6892 0.0
H1169 H 0.97972 0.80216 0.68283 0.0
H1170 H 0.89997 0.75697 0.7235 0.0
H1171 H 0.95447 0.82542 0.71766 0.0
H1172 H 0.89508 0.87004 0.76792 0.0
H1173 H 0.9128 0.84697 0.72825 0.0
H1174 H 0.90471 0.77059 0.76925 0.0
H1175 H 0.88623 0.79335 0.80821 0.0
C1176 C 0.9323 0.75343 0.69527 0.0
C1177 C 0.95492 0.76582 0.68343 0.0
C1178 C 0.91745 0.767 0.71493 0.0
C1179 C 0.92505 0.79318 0.72334 0.0
C1180 C 0.94766 0.80554 0.71134 0.0
C1181 C 0.96235 0.79206 0.69156 0.0
C1182 C 0.89657 0.84827 0.76821 0.0
C1183 C 0.88958 0.83362 0.7914 0.0
C1184 C 0.90698 0.83506 0.74558 0.0
C1185 C 0.91062 0.80694 0.74569 0.0
C1186 C 0.90208 0.7922 0.7683 0.0
C1187 C 0.89161 0.80535 0.7908 0.0
H1188 H 0.96837 0.22551 0.42744 0.0
H1189 H 0.04 0.18775 0.45859 0.0
H1190 H 0.94078 0.19982 0.45849 0.0
H1191 H 0.01213 0.16066 0.48895 0.0
H1192 H 0.89223 0.14469 0.50893 0.0
H1193 H 0.92173 0.15877 0.4721 0.0
H1194 H 0.98814 0.16737 0.52847 0.0
H1195 H 0.9594 0.15202 0.56449 0.0
C1196 C 0.97818 0.21127 0.44064 0.0
C1197 C 0.00639 0.20884 0.4408 0.0
C1198 C 0.96227 0.19626 0.4583 0.0
C1199 C 0.9741 0.17806 0.47633 0.0
C1200 C 0.00232 0.17485 0.47572 0.0
C1201 C 0.01833 0.19031 0.45833 0.0
C1202 C 0.91326 0.14913 0.51326 0.0
C1203 C 0.92327 0.14772 0.53973 0.0
C1204 C 0.93016 0.15738 0.49222 0.0
C1205 C 0.95729 0.16471 0.49732 0.0
C1206 C 0.96754 0.1617 0.52355 0.0
C1207 C 0.95084 0.15314 0.5444 0.0
H1208 H 0.52804 0.22955 0.2024 0.0
H1209 H 0.5747 0.17313 0.15569 0.0
H1210 H 0.55102 0.21501 0.24328 0.0
H1211 H 0.59789 0.15893 0.19646 0.0
H1212 H 0.59031 0.11081 0.27685 0.0
H1213 H 0.57999 0.13178 0.23378 0.0
H1214 H 0.59309 0.21062 0.26927 0.0
H1215 H 0.60304 0.18975 0.31246 0.0
C1216 C 0.54374 0.21464 0.20074 0.0
C1217 C 0.54913 0.20204 0.17597 0.0
C1218 C 0.55696 0.20633 0.22415 0.0
C1219 C 0.57585 0.18543 0.22307 0.0
C1220 C 0.58295 0.17462 0.19794 0.0
C1221 C 0.56971 0.18283 0.17461 0.0
C1222 C 0.59129 0.13258 0.2754 0.0
C1223 C 0.59699 0.1486 0.29816 0.0
C1224 C 0.5856 0.14462 0.25067 0.0
C1225 C 0.5856 0.17287 0.24824 0.0
C1226 C 0.59257 0.18883 0.27068 0.0
C1227 C 0.59825 0.17682 0.29538 0.0
H1228 H 0.48316 0.81102 0.95359 0.0
H1229 H 0.55203 0.84073 0.90927 0.0
H1230 H 0.5043 0.82586 -0.00429 0.0
H1231 H 0.57274 0.85684 0.95111 0.0
H1232 H 0.6176 0.83763 0.03008 0.0
H1233 H 0.59405 0.83397 0.98705 0.0
H1234 H 0.52055 0.86068 0.0249 0.0
H1235 H 0.54395 0.86327 0.06815 0.0
C1236 C 0.50238 0.82165 0.95285 0.0
C1237 C 0.51615 0.8246 0.9284 0.0
C1238 C 0.51454 0.83019 0.97694 0.0
C1239 C 0.54048 0.84214 0.97684 0.0
C1240 C 0.55311 0.84704 0.95199 0.0
C1241 C 0.54118 0.83807 0.92803 0.0
C1242 C 0.5965 0.84295 0.02912 0.0
C1243 C 0.58252 0.85034 0.05249 0.0
C1244 C 0.58299 0.84108 0.00442 0.0
C1245 C 0.55532 0.84696 0.00251 0.0
C1246 C 0.5417 0.85552 0.02574 0.0
C1247 C 0.55512 0.85705 0.05049 0.0
H1248 H 0.90369 0.2506 0.80978 0.0
H1249 H 0.93723 0.17205 0.82457 0.0
H1250 H 0.88098 0.23296 0.76945 0.0
H1251 H 0.91547 0.15471 0.78409 0.0
H1252 H 0.88914 0.20154 0.68091 0.0
H1253 H 0.89674 0.21985 0.72577 0.0
H1254 H 0.87497 0.14281 0.76043 0.0
H1255 H 0.86827 0.12412 0.71528 0.0
C1256 C 0.90604 0.22954 0.80452 0.0
C1257 C 0.92254 0.21279 0.82006 0.0
C1258 C 0.8931 0.21945 0.78142 0.0
C1259 C 0.89655 0.19247 0.77341 0.0
C1260 C 0.91202 0.17548 0.7898 0.0
C1261 C 0.92478 0.18551 0.8129 0.0
C1262 C 0.88556 0.18857 0.69808 0.0
C1263 C 0.87877 0.16118 0.69453 0.0
C1264 C 0.8897 0.19917 0.72389 0.0
C1265 C 0.88688 0.18268 0.7467 0.0
C1266 C 0.87794 0.15586 0.74321 0.0
C1267 C 0.87404 0.14517 0.71736 0.0
H1268 H 0.51215 0.20295 0.55421 0.0
H1269 H 0.57475 0.1657 0.60166 0.0
H1270 H 0.52541 0.17638 0.5153 0.0
H1271 H 0.58766 0.13874 0.56275 0.0
H1272 H 0.62971 0.14324 0.47817 0.0
H1273 H 0.61102 0.15369 0.5222 0.0
H1274 H 0.53113 0.133 0.49295 0.0
H1275 H 0.54974 0.12304 0.44866 0.0
C1276 C 0.52824 0.18857 0.55656 0.0
C1277 C 0.54284 0.18695 0.58081 0.0
C1278 C 0.53576 0.17319 0.53427 0.0
C1279 C 0.5579 0.15581 0.53588 0.0
C1280 C 0.5709 0.15241 0.5608 0.0
C1281 C 0.56346 0.16785 0.58306 0.0
C1282 C 0.60823 0.14049 0.48124 0.0
C1283 C 0.59113 0.13299 0.4598 0.0
C1284 C 0.59752 0.14625 0.50656 0.0
C1285 C 0.56953 0.14445 0.51092 0.0
C1286 C 0.5527 0.13502 0.49001 0.0
C1287 C 0.56339 0.12936 0.46467 0.0
H1288 H 0.50573 0.78124 0.31173 0.0
H1289 H 0.55674 0.71248 0.29948 0.0
H1290 H 0.53363 0.80775 0.28135 0.0
H1291 H 0.58606 0.73942 0.27048 0.0
H1292 H 0.60635 0.78268 0.19166 0.0
H1293 H 0.58698 0.75698 0.22795 0.0
H1294 H 0.57379 0.83062 0.27289 0.0
H1295 H 0.59168 0.85673 0.2352 0.0
C1296 C 0.5232 0.77194 0.30269 0.0
C1297 C 0.52894 0.74477 0.30755 0.0
C1298 C 0.53948 0.78724 0.28557 0.0
C1299 C 0.56232 0.7759 0.27341 0.0
C1300 C 0.56839 0.74878 0.27896 0.0
C1301 C 0.55163 0.73327 0.29556 0.0
C1302 C 0.59961 0.7935 0.20938 0.0
C1303 C 0.59987 0.82186 0.21019 0.0
C1304 C 0.58867 0.77862 0.23048 0.0
C1305 C 0.57819 0.79163 0.25329 0.0
C1306 C 0.58083 0.81992 0.25524 0.0
C1307 C 0.59141 0.83493 0.2338 0.0
H1308 H 0.00615 0.81665 0.05322 0.0
H1309 H 0.93932 0.76023 0.05899 0.0
H1310 H 0.98253 0.84087 0.01792 0.0
H1311 H 0.91598 0.78395 0.02292 0.0
H1312 H 0.87069 0.84417 0.97261 0.0
H1313 H 0.89342 0.82557 0.01204 0.0
H1314 H 0.9702 0.83477 0.97191 0.0
H1315 H 0.94779 0.85404 0.93316 0.0
C1316 C 0.98651 0.80925 0.04673 0.0
C1317 C 0.97465 0.78645 0.05876 0.0
C1318 C 0.97297 0.82313 0.02647 0.0
C1319 C 0.94733 0.8144 0.01758 0.0
C1320 C 0.93549 0.79152 0.02961 0.0
C1321 C 0.94898 0.77773 0.05006 0.0
C1322 C 0.89247 0.8427 0.97246 0.0
C1323 C 0.90738 0.85037 0.94962 0.0
C1324 C 0.90546 0.83177 0.99493 0.0
C1325 C 0.9336 0.82834 0.995 0.0
C1326 C 0.94855 0.83728 0.97268 0.0
C1327 C 0.93563 0.84824 0.95034 0.0
H1328 H 0.67138 0.97756 0.80855 0.0
H1329 H 0.71525 0.96638 0.73441 0.0
H1330 H 0.70375 0.95008 0.83237 0.0
H1331 H 0.74894 0.9403 0.75851 0.0
H1332 H 0.79342 0.87513 0.80077 0.0
H1333 H 0.757 0.89899 0.77839 0.0
H1334 H 0.74651 0.94792 0.85002 0.0
H1335 H 0.78147 0.92274 0.87271 0.0
C1336 C 0.68838 0.96971 0.79748 0.0
C1337 C 0.69086 0.97412 0.76964 0.0
C1338 C 0.70704 0.95393 0.81116 0.0
C1339 C 0.72904 0.94268 0.79746 0.0
C1340 C 0.73192 0.94792 0.76969 0.0
C1341 C 0.71284 0.9632 0.75587 0.0
C1342 C 0.78274 0.89053 0.81185 0.0
C1343 C 0.79016 0.89701 0.83845 0.0
C1344 C 0.76217 0.90455 0.79892 0.0
C1345 C 0.74902 0.92586 0.81211 0.0
C1346 C 0.7558 0.93149 0.83919 0.0
C1347 C 0.7759 0.91702 0.8523 0.0
H1348 H 0.80499 0.91628 0.56634 0.0
H1349 H 0.83339 0.93169 0.48552 0.0
H1350 H 0.82776 0.95667 0.58231 0.0
H1351 H 0.85733 0.9721 0.5018 0.0
H1352 H 0.87474 0.0257 0.6108 0.0
H1353 H 0.86807 0.98064 0.59187 0.0
H1354 H 0.843 0.01568 0.51623 0.0
H1355 H 0.85096 0.06056 0.53481 0.0
C1356 C 0.81657 0.92809 0.55204 0.0
C1357 C 0.81699 0.92114 0.52459 0.0
C1358 C 0.82997 0.95116 0.56128 0.0
C1359 C 0.84432 0.96778 0.54333 0.0
C1360 C 0.84609 0.95994 0.51607 0.0
C1361 C 0.83249 0.93679 0.50676 0.0
C1362 C 0.86821 0.02367 0.59 0.0
C1363 C 0.86277 0.04654 0.57445 0.0
C1364 C 0.86436 -0.00209 0.57915 0.0
C1365 C 0.85444 0.99453 0.55271 0.0
C1366 C 0.85082 0.01747 0.53659 0.0
C1367 C 0.85514 0.04324 0.54731 0.0
H1368 H 0.81394 0.02696 0.29577 0.0
H1369 H 0.78655 0.06716 0.22378 0.0
H1370 H 0.78026 0.05036 0.32214 0.0
H1371 H 0.75369 0.09179 0.25039 0.0
H1372 H 0.67374 0.09354 0.2962 0.0
H1373 H 0.71267 0.08068 0.27045 0.0
H1374 H 0.76296 0.09013 0.34144 0.0
H1375 H 0.72322 0.10189 0.36784 0.0
C1376 C 0.80107 0.04128 0.28569 0.0
C1377 C 0.80257 0.04493 0.25765 0.0
C1378 C 0.78188 0.05492 0.30087 0.0
C1379 C 0.76402 0.07285 0.28842 0.0
C1380 C 0.76665 0.07764 0.26057 0.0
C1381 C 0.78552 0.0636 0.2453 0.0
C1382 C 0.69309 0.09314 0.30642 0.0
C1383 C 0.69524 0.09827 0.33427 0.0
C1384 C 0.71561 0.08602 0.29147 0.0
C1385 C 0.74105 0.08416 0.30382 0.0
C1386 C 0.74356 0.09084 0.33138 0.0
C1387 C 0.72084 0.09775 0.3465 0.0
H1388 H 0.67258 0.05325 0.01012 0.0
H1389 H 0.67675 0.08043 0.093 0.0
H1390 H 0.64778 0.013 0.02443 0.0
H1391 H 0.6539 0.03993 0.10742 0.0
H1392 H 0.61107 0.96599 0.13174 0.0
H1393 H 0.61799 0.01048 0.11172 0.0
H1394 H 0.6603 0.97361 0.04511 0.0
H1395 H 0.65181 0.92968 0.06412 0.0
C1396 C 0.66809 0.0507 0.03132 0.0
C1397 C 0.67706 0.06978 0.05043 0.0
C1398 C 0.65401 0.02758 0.0396 0.0
C1399 C 0.64926 0.02279 0.06722 0.0
C1400 C 0.65678 0.04282 0.086 0.0
C1401 C 0.67026 0.06609 0.07768 0.0
C1402 C 0.62151 0.96757 0.11265 0.0
C1403 C 0.63123 0.94449 0.0997 0.0
C1404 C 0.62556 0.99301 0.10115 0.0
C1405 C 0.64004 -0.00416 0.07687 0.0
C1406 C 0.64866 0.97246 0.0635 0.0
C1407 C 0.64407 0.94713 0.07463 0.0
H1408 H 0.69486 0.06068 0.72462 0.0
H1409 H 0.647 0.08307 0.65527 0.0
H1410 H 0.73354 0.08422 0.70564 0.0
H1411 H 0.68581 0.10684 0.63646 0.0
H1412 H 0.79899 0.13326 0.67189 0.0
H1413 H 0.75431 0.12656 0.69107 0.0
H1414 H 0.72759 0.08841 0.61694 0.0
H1415 H 0.77233 0.09566 0.59749 0.0
C1416 C 0.69235 0.07118 0.70569 0.0
C1417 C 0.66798 0.06944 0.69123 0.0
C1418 C 0.71453 0.08482 0.69483 0.0
C1419 C 0.71278 0.09703 0.66934 0.0
C1420 C 0.68784 0.09717 0.6559 0.0
C1421 C 0.66562 0.0836 0.66678 0.0
C1422 C 0.78342 0.12383 0.65953 0.0
C1423 C 0.78921 0.11436 0.63344 0.0
C1424 C 0.75788 0.12003 0.67052 0.0
C1425 C 0.73764 0.10653 0.65572 0.0
C1426 C 0.74278 0.099 0.62881 0.0
C1427 C 0.7684 0.10299 0.61769 0.0
H1428 H 0.73714 0.93516 0.45076 0.0
H1429 H 0.6879 0.9486 0.521 0.0
H1430 H 0.70902 0.96568 0.42481 0.0
H1431 H 0.65859 0.97758 0.49482 0.0
H1432 H 0.6493 0.01447 0.37911 0.0
H1433 H 0.66783 0.97611 0.40358 0.0
H1434 H 0.66095 0.02075 0.47837 0.0
H1435 H 0.64132 0.05777 0.45445 0.0
C1436 C 0.72001 0.94438 0.46048 0.0
C1437 C 0.71496 0.94007 0.48796 0.0
C1438 C 0.70366 0.96161 0.44555 0.0
C1439 C 0.68157 0.97436 0.4577 0.0
C1440 C 0.67583 0.96878 0.48492 0.0
C1441 C 0.69258 0.95216 0.49998 0.0
C1442 C 0.65116 0.01567 0.40085 0.0
C1443 C 0.64426 0.03932 0.41476 0.0
C1444 C 0.66205 0.99384 0.41487 0.0
C1445 C 0.6663 -0.00462 0.44297 0.0
C1446 C 0.65779 0.01848 0.45686 0.0
C1447 C 0.64673 0.04 0.443 0.0
H1448 H 0.82252 0.95895 0.18015 0.0
H1449 H 0.80801 0.92612 0.25941 0.0
H1450 H 0.78325 0.93486 0.16282 0.0
H1451 H 0.76891 0.90104 0.24178 0.0
H1452 H 0.68146 0.89615 0.20752 0.0
H1453 H 0.72431 0.91125 0.22656 0.0
H1454 H 0.76397 0.89215 0.1515 0.0
H1455 H 0.7208 0.87796 0.13208 0.0
C1456 C 0.81111 0.94627 0.19383 0.0
C1457 C 0.81816 0.94465 0.22122 0.0
C1458 C 0.7887 0.93219 0.18381 0.0
C1459 C 0.77288 0.91595 0.20088 0.0
C1460 C 0.78046 0.91365 0.22816 0.0
C1461 C 0.80287 0.92793 0.23825 0.0
C1462 C 0.69936 0.89487 0.19515 0.0
C1463 C 0.69766 0.88633 0.16811 0.0
C1464 C 0.72402 0.90336 0.20616 0.0
C1465 C 0.74757 0.90325 0.19047 0.0
C1466 C 0.7461 0.89311 0.16394 0.0
C1467 C 0.72139 0.88488 0.15283 0.0
H1468 H 0.78092 0.02892 0.00898 0.0
H1469 H 0.77113 0.07357 0.93518 0.0
H1470 H 0.80611 0.99467 0.98464 0.0
H1471 H 0.79775 0.0406 0.91112 0.0
H1472 H 0.82068 0.96179 0.86988 0.0
H1473 H 0.79767 -0.00205 0.89311 0.0
H1474 H 0.84655 0.98425 0.96415 0.0
H1475 H 0.86819 0.94676 0.94123 0.0
C1476 C 0.78433 0.03144 0.98757 0.0
C1477 C 0.77389 0.05373 0.97393 0.0
C1478 C 0.79907 0.01201 0.9736 0.0
C1479 C 0.80426 0.01478 0.94578 0.0
C1480 C 0.79384 0.03732 0.93232 0.0
C1481 C 0.77859 0.05635 0.94615 0.0
C1482 C 0.82686 0.96688 0.89028 0.0
C1483 C 0.84619 0.95145 0.90378 0.0
C1484 C 0.81365 0.98769 0.9037 0.0
C1485 C 0.81989 0.994 0.93079 0.0
C1486 C 0.84053 0.97956 0.94364 0.0
C1487 C 0.85328 0.95832 0.9304 0.0
H1488 H 0.73066 0.69518 0.93622 0.0
H1489 H 0.80354 0.68056 0.98145 0.0
H1490 H 0.75501 0.72701 0.90776 0.0
H1491 H 0.82767 0.7136 0.95415 0.0
H1492 H 0.79313 0.81009 0.89477 0.0
H1493 H 0.77089 0.77072 0.91282 0.0
H1494 H 0.84667 0.72847 0.91325 0.0
H1495 H 0.86946 0.76895 0.89624 0.0
C1496 C 0.75192 0.69883 0.94006 0.0
C1497 C 0.76513 0.68566 0.96123 0.0
C1498 C 0.76591 0.71718 0.92384 0.0
C1499 C 0.7933 0.72336 0.92886 0.0
C1500 C 0.80674 0.70924 0.94938 0.0
C1501 C 0.79286 0.69042 0.96522 0.0
C1502 C 0.80516 0.79238 0.89841 0.0
C1503 C 0.83323 0.79291 0.89445 0.0
C1504 C 0.79224 0.76953 0.90857 0.0
C1505 C 0.8069 0.74626 0.91474 0.0
C1506 C 0.83479 0.74618 0.90927 0.0
C1507 C 0.84784 0.76931 0.8993 0.0
H1508 H 0.23827 0.81526 0.07377 0.0
H1509 H 0.30302 0.82142 0.01602 0.0
H1510 H 0.26513 0.7845 0.10081 0.0
H1511 H 0.32934 0.78982 0.04217 0.0
H1512 H 0.37792 0.73918 0.09583 0.0
H1513 H 0.35418 0.77979 0.08197 0.0
H1514 H 0.27783 0.73931 0.09639 0.0
H1515 H 0.30134 0.69967 0.1112 0.0
C1516 C 0.25819 0.8099 0.06682 0.0
C1517 C 0.26844 0.82038 0.04265 0.0
C1518 C 0.27361 0.79234 0.0823 0.0
C1519 C 0.2994 0.78455 0.07364 0.0
C1520 C 0.30983 0.7957 0.04977 0.0
C1521 C 0.29458 0.81355 0.03455 0.0
C1522 C 0.3561 0.73932 0.0967 0.0
C1523 C 0.34148 0.71606 0.10396 0.0
C1524 C 0.34247 0.76246 0.08855 0.0
C1525 C 0.31407 0.76264 0.08751 0.0
C1526 C 0.29966 0.74007 0.09699 0.0
C1527 C 0.3132 0.71714 0.10523 0.0
H1528 H 0.94744 0.50972 0.78315 0.0
H1529 H 0.90148 0.55453 0.84166 0.0
H1530 H 0.98802 0.5167 0.81027 0.0
H1531 H 0.94181 0.56068 0.86929 0.0
H1532 H 0.02341 0.60777 0.8752 0.0
H1533 H 0.97973 0.58965 0.86202 0.0
H1534 H 0.01454 0.51094 0.85078 0.0
H1535 H 0.05875 0.52939 0.86337 0.0
C1536 C 0.94587 0.52042 0.80217 0.0
C1537 C 0.92148 0.53215 0.80997 0.0
C1538 C 0.9691 0.52426 0.81786 0.0
C1539 C 0.96825 0.53964 0.84176 0.0
C1540 C 0.94328 0.5493 0.85066 0.0
C1541 C 0.92018 0.54577 0.83483 0.0
C1542 C 0.02173 0.58648 0.87042 0.0
C1543 C 0.04467 0.57019 0.8697 0.0
C1544 C -0.00345 0.57597 0.86308 0.0
C1545 C 0.99368 0.54888 0.85496 0.0
C1546 C 0.01622 0.53202 0.85643 0.0
C1547 C 0.0415 0.54257 0.86379 0.0
H1548 H 0.18064 0.17181 0.54149 0.0
H1549 H 0.2569 0.19472 0.578 0.0
H1550 H 0.15905 0.2093 0.56351 0.0
H1551 H 0.23485 0.23206 0.60122 0.0
H1552 H 0.12052 0.27026 0.61537 0.0
H1553 H 0.14383 0.2286 0.60433 0.0
H1554 H 0.21684 0.2744 0.58854 0.0
H1555 H 0.19403 0.31556 0.60061 0.0
C1556 C 0.19276 0.18471 0.55456 0.0
C1557 C 0.22056 0.18057 0.55773 0.0
C1558 C 0.18025 0.20607 0.56751 0.0
C1559 C 0.19516 0.22373 0.5842 0.0
C1560 C 0.22286 0.21902 0.58819 0.0
C1561 C 0.23548 0.19765 0.57498 0.0
C1562 C 0.14161 0.27131 0.6098 0.0
C1563 C 0.15528 0.29621 0.60843 0.0
C1564 C 0.15498 0.2475 0.60343 0.0
C1565 C 0.18215 0.24818 0.59522 0.0
C1566 C 0.19605 0.27301 0.59506 0.0
C1567 C 0.18283 0.29671 0.60174 0.0
H1568 H 0.06224 0.94546 0.76553 0.0
H1569 H 0.04729 0.01352 0.81766 0.0
H1570 H 0.02919 0.91865 0.79034 0.0
H1571 H 0.01548 0.98639 0.84358 0.0
H1572 H 0.97237 0.87189 0.8435 0.0
H1573 H 0.01337 0.89577 0.82914 0.0
H1574 H 0.97168 0.97156 0.83585 0.0
H1575 H 0.93182 0.94814 0.85118 0.0
C1576 C 0.05237 0.95445 0.78277 0.0
C1577 C 0.05695 0.9817 0.78939 0.0
C1578 C 0.03353 0.93902 0.79715 0.0
C1579 C 0.01922 0.9504 0.81878 0.0
C1580 C 0.02543 0.97713 0.82655 0.0
C1581 C 0.04377 0.9927 0.8118 0.0
C1582 C 0.97225 0.89369 0.84237 0.0
C1583 C 0.94868 0.90802 0.84818 0.0
C1584 C -0.00433 0.90739 0.83394 0.0
C1585 C -0.00407 0.93567 0.83111 0.0
C1586 C 0.97263 0.9499 0.83814 0.0
C1587 C 0.94948 0.93633 0.84669 0.0
H1588 H 0.73281 0.31436 0.4407 0.0
H1589 H 0.64809 0.33123 0.44999 0.0
H1590 H 0.72132 0.27316 0.41595 0.0
H1591 H 0.63652 0.28959 0.42675 0.0
H1592 H 0.61834 0.21943 0.37499 0.0
H1593 H 0.63441 0.26455 0.38714 0.0
H1594 H 0.70474 0.23003 0.42493 0.0
H1595 H 0.68938 0.18531 0.41127 0.0
C1596 C 0.71174 0.30921 0.43748 0.0
C1597 C 0.69136 0.32592 0.44743 0.0
C1598 C 0.70512 0.28554 0.42339 0.0
C1599 C 0.67796 0.2778 0.41941 0.0
C1600 C 0.65765 0.29499 0.42884 0.0
C1601 C 0.66428 0.31885 0.44245 0.0
C1602 C 0.63748 0.22167 0.38545 0.0
C1603 C 0.65248 0.19894 0.39246 0.0
C1604 C 0.64663 0.24747 0.39261 0.0
C1605 C 0.67064 0.25103 0.40756 0.0
C1606 C 0.68632 0.22826 0.41323 0.0
C1607 C 0.67744 0.20252 0.40552 0.0
H1608 H 0.93082 0.50296 0.67411 0.0
H1609 H 0.91889 0.43486 0.7269 0.0
H1610 H 0.96537 0.47826 0.64975 0.0
H1611 H 0.9542 0.41064 0.70352 0.0
H1612 H 0.01281 0.36686 0.65228 0.0
H1613 H 0.97034 0.38855 0.66395 0.0
H1614 H 0.01004 0.46657 0.65993 0.0
H1615 H 0.05161 0.44524 0.64734 0.0
C1616 C 0.93565 0.48274 0.68052 0.0
C1617 C 0.92252 0.47096 0.70261 0.0
C1618 C 0.95542 0.46857 0.6666 0.0
C1619 C 0.96278 0.44253 0.67482 0.0
C1620 C 0.94884 0.43046 0.69634 0.0
C1621 C 0.9288 0.44447 0.70998 0.0
C1622 C 0.01222 0.38865 0.65339 0.0
C1623 C 0.03568 0.40428 0.64941 0.0
C1624 C 0.98797 0.40108 0.66023 0.0
C1625 C 0.98683 0.42931 0.66321 0.0
C1626 C 0.00997 0.44486 0.65758 0.0
C1627 C 0.03401 0.43253 0.65065 0.0
H1628 H 0.59052 0.55966 0.1717 0.0
H1629 H 0.53729 0.49126 0.18364 0.0
H1630 H 0.55421 0.58412 0.15005 0.0
H1631 H 0.50034 0.51615 0.16302 0.0
H1632 H 0.44013 0.56261 0.11577 0.0
H1633 H 0.48086 0.53703 0.12425 0.0
H1634 H 0.5152 0.60539 0.16731 0.0
H1635 H 0.47478 0.63122 0.15797 0.0
C1636 C 0.57099 0.54981 0.16943 0.0
C1637 C 0.56644 0.52378 0.17955 0.0
C1638 C 0.55019 0.56387 0.15719 0.0
C1639 C 0.52425 0.55235 0.1553 0.0
C1640 C 0.52014 0.52558 0.16399 0.0
C1641 C 0.5412 0.51131 0.17588 0.0
C1642 C 0.45659 0.57226 0.12674 0.0
C1643 C 0.45424 0.59877 0.13656 0.0
C1644 C 0.47984 0.55756 0.13168 0.0
C1645 C 0.50114 0.569 0.14673 0.0
C1646 C 0.49929 0.59603 0.15537 0.0
C1647 C 0.47611 0.61085 0.15016 0.0
H1648 H 0.59306 0.74832 0.8271 0.0
H1649 H 0.51262 0.71572 0.81466 0.0
H1650 H 0.60888 0.72284 0.7881 0.0
H1651 H 0.52869 0.69003 0.77586 0.0
H1652 H 0.57705 0.62824 0.72529 0.0
H1653 H 0.56401 0.6511 0.76708 0.0
H1654 H 0.59639 0.72612 0.73652 0.0
H1655 H 0.60906 0.70352 0.69467 0.0
C1656 C 0.57881 0.73561 0.81616 0.0
C1657 C 0.55156 0.73411 0.82383 0.0
C1658 C 0.58788 0.72111 0.79387 0.0
C1659 C 0.56997 0.70452 0.77918 0.0
C1660 C 0.54288 0.70256 0.7871 0.0
C1661 C 0.53368 0.71741 0.80911 0.0
C1662 C 0.5816 0.64955 0.72764 0.0
C1663 C 0.59393 0.66419 0.70676 0.0
C1664 C 0.57402 0.66259 0.75142 0.0
C1665 C 0.5792 0.69029 0.75482 0.0
C1666 C 0.59234 0.7047 0.73434 0.0
C1667 C 0.59944 0.69181 0.71041 0.0
H1668 H 0.51191 0.29158 0.071 0.0
H1669 H 0.55843 0.22575 0.03881 0.0
H1670 H 0.53359 0.3224 0.03913 0.0
H1671 H 0.58008 0.25662 0.00722 0.0
H1672 H 0.63166 0.32273 0.97165 0.0
H1673 H 0.61193 0.29803 0.00929 0.0
H1674 H 0.53293 0.32627 0.98708 0.0
H1675 H 0.55253 0.35096 0.94924 0.0
C1676 C 0.52684 0.28372 0.05725 0.0
C1677 C 0.53343 0.25621 0.05737 0.0
C1678 C 0.53916 0.30135 0.03903 0.0
C1679 C 0.55859 0.29187 0.02094 0.0
C1680 C 0.56541 0.26448 0.02125 0.0
C1681 C 0.55284 0.24679 0.03916 0.0
C1682 C 0.61016 0.3242 0.97511 0.0
C1683 C 0.59358 0.33857 0.95731 0.0
C1684 C 0.59889 0.3099 -0.00346 0.0
C1685 C 0.57092 0.31003 0.0008 0.0
C1686 C 0.55457 0.3259 0.98421 0.0
C1687 C 0.56578 0.33994 0.96254 0.0
H1688 H 0.99377 0.31675 0.30466 0.0
H1689 H 0.94691 0.24371 0.31659 0.0
H1690 H 0.9618 0.33098 0.27017 0.0
H1691 H 0.91498 0.25798 0.28184 0.0
H1692 H 0.88758 0.3624 0.23154 0.0
H1693 H 0.91162 0.34438 0.27019 0.0
H1694 H 0.91706 0.2672 0.23017 0.0
H1695 H 0.89304 0.28513 0.19121 0.0
C1696 C 0.97674 0.30369 0.2998 0.0
C1697 C 0.97279 0.27918 0.3133 0.0
C1698 C 0.95832 0.31194 0.28029 0.0
C1699 C 0.93578 0.2957 0.27371 0.0
C1700 C 0.93216 0.27086 0.28669 0.0
C1701 C 0.95041 0.26276 0.3065 0.0
C1702 C 0.8933 0.3414 0.23113 0.0
C1703 C 0.88897 0.32539 0.20799 0.0
C1704 C 0.9072 0.33117 0.25322 0.0
C1705 C 0.91671 0.30467 0.25276 0.0
C1706 C 0.91005 0.28779 0.23087 0.0
C1707 C 0.8963 0.29808 0.2086 0.0
H1708 H 0.92696 0.73103 0.56242 0.0
H1709 H 0.98083 0.66393 0.57243 0.0
H1710 H 0.90792 0.7094 0.52198 0.0
H1711 H 0.96199 0.64262 0.53208 0.0
H1712 H 0.94495 0.63706 0.439 0.0
H1713 H 0.96238 0.6547 0.48182 0.0
H1714 H 0.88099 0.66593 0.50998 0.0
H1715 H 0.86343 0.64819 0.46734 0.0
C1716 C 0.93467 0.71171 0.55602 0.0
C1717 C 0.95544 0.69925 0.57046 0.0
C1718 C 0.92371 0.69929 0.53303 0.0
C1719 C 0.93359 0.6744 0.524 0.0
C1720 C 0.95421 0.6619 0.53854 0.0
C1721 C 0.96492 0.67412 0.56164 0.0
C1722 C 0.93078 0.64295 0.45445 0.0
C1723 C 0.90284 0.64134 0.44975 0.0
C1724 C 0.94075 0.65299 0.47893 0.0
C1725 C 0.92297 0.66187 0.49899 0.0
C1726 C 0.89507 0.6595 0.49466 0.0
C1727 C 0.88508 0.64913 0.47034 0.0
H1728 H 0.58107 0.27436 0.66848 0.0
H1729 H 0.51154 0.32437 0.68173 0.0
H1730 H 0.60207 0.29255 0.70932 0.0
H1731 H 0.53279 0.34274 0.72256 0.0
H1732 H 0.60526 0.30241 0.80364 0.0
H1733 H 0.5894 0.28774 0.75916 0.0
H1734 H 0.57437 0.37044 0.73756 0.0
H1735 H 0.59027 0.38524 0.78186 0.0
C1736 C 0.57036 0.28942 0.67997 0.0
C1737 C 0.54451 0.29775 0.67211 0.0
C1738 C 0.58239 0.29974 0.70335 0.0
C1739 C 0.56894 0.31884 0.71911 0.0
C1740 C 0.54362 0.3281 0.71064 0.0
C1741 C 0.53144 0.31755 0.68736 0.0
C1742 C 0.59884 0.31748 0.78931 0.0
C1743 C 0.59887 0.34494 0.79633 0.0
C1744 C 0.5899 0.3091 0.76385 0.0
C1745 C 0.58058 0.328 0.74508 0.0
C1746 C 0.58125 0.35549 0.7518 0.0
C1747 C 0.59049 0.36391 0.77711 0.0
H1748 H 0.96144 0.31964 0.91408 0.0
H1749 H 0.938 0.24641 0.95519 0.0
H1750 H 0.95106 0.34588 0.9548 0.0
H1751 H 0.92847 0.27256 -0.00409 0.0
H1752 H 0.94516 0.32564 0.06997 0.0
H1753 H 0.96257 0.30754 0.02765 0.0
H1754 H 0.89996 0.34806 0.98356 0.0
H1755 H 0.88195 0.36577 0.02593 0.0
C1756 C 0.95418 0.30921 0.93183 0.0
C1757 C 0.95032 0.28108 0.93157 0.0
C1758 C 0.94834 0.32417 0.95499 0.0
C1759 C 0.93932 0.31104 0.97829 0.0
C1760 C 0.93571 0.28295 0.97811 0.0
C1761 C 0.94091 0.26809 0.95484 0.0
C1762 C 0.93553 0.33133 0.05122 0.0
C1763 C 0.91199 0.34681 0.0512 0.0
C1764 C 0.94546 0.32091 0.02711 0.0
C1765 C 0.93238 0.32636 0.00266 0.0
C1766 C 0.91031 0.34373 0.00231 0.0
C1767 C 0.90003 0.35374 0.02648 0.0
H1768 H 0.95491 0.69847 0.15995 0.0
H1769 H 0.00534 0.72574 0.22625 0.0
H1770 H 0.92185 0.68067 0.19218 0.0
H1771 H 0.97232 0.70826 0.25814 0.0
H1772 H 0.89866 0.69786 0.30828 0.0
H1773 H 0.92293 0.71867 0.27102 0.0
H1774 H 0.92324 0.64244 0.22873 0.0
H1775 H 0.89904 0.62133 0.26607 0.0
C1776 C 0.95889 0.70072 0.18134 0.0
C1777 C 0.98278 0.71333 0.1906 0.0
C1778 C 0.94001 0.69056 0.1997 0.0
C1779 C 0.94449 0.69338 0.22754 0.0
C1780 C 0.96823 0.70619 0.23674 0.0
C1781 C 0.98725 0.71592 0.21848 0.0
C1782 C 0.90333 0.68558 0.29083 0.0
C1783 C 0.89739 0.65777 0.2904 0.0
C1784 C 0.91732 0.69752 0.26956 0.0
C1785 C 0.92531 0.68201 0.24732 0.0
C1786 C 0.91731 0.6548 0.24572 0.0
C1787 C 0.90352 0.64274 0.26714 0.0
H1788 H 0.52071 0.64005 0.41798 0.0
H1789 H 0.54719 0.72203 0.43406 0.0
H1790 H 0.54523 0.62487 0.45774 0.0
H1791 H 0.5719 0.7066 0.47369 0.0
H1792 H 0.62992 0.66436 0.5312 0.0
H1793 H 0.61152 0.67441 0.48661 0.0
H1794 H 0.5362 0.6359 0.5085 0.0
H1795 H 0.55436 0.62608 0.55321 0.0
C1796 C 0.53207 0.65478 0.42974 0.0
C1797 C 0.53183 0.68231 0.42303 0.0
C1798 C 0.546 0.64605 0.45249 0.0
C1799 C 0.5603 0.6646 0.46867 0.0
C1800 C 0.56113 0.69191 0.46135 0.0
C1801 C 0.54685 0.70073 0.43881 0.0
C1802 C 0.60957 0.65768 0.52636 0.0
C1803 C 0.59344 0.64462 0.54571 0.0
C1804 C 0.59907 0.66354 0.50093 0.0
C1805 C 0.5725 0.65598 0.49431 0.0
C1806 C 0.55683 0.64177 0.51315 0.0
C1807 C 0.56715 0.6363 0.53873 0.0
H1808 H 0.83603 0.58941 0.7216 0.0
H1809 H 0.79479 0.51549 0.6986 0.0
H1810 H 0.79562 0.61508 0.70986 0.0
H1811 H 0.75439 0.54107 0.68766 0.0
H1812 H 0.68033 0.59242 0.70396 0.0
H1813 H 0.72275 0.57459 0.72109 0.0
H1814 H 0.76651 0.61794 0.65963 0.0
H1815 H 0.72401 0.63542 0.64192 0.0
C1816 C 0.81836 0.57873 0.71401 0.0
C1817 C 0.81843 0.55054 0.71087 0.0
C1818 C 0.79538 0.59336 0.70741 0.0
C1819 C 0.77206 0.57986 0.69828 0.0
C1820 C 0.77218 0.55175 0.69501 0.0
C1821 C 0.79529 0.53721 0.70101 0.0
C1822 C 0.69902 0.59879 0.69456 0.0
C1823 C 0.69891 0.61502 0.6714 0.0
C1824 C 0.7232 0.58848 0.70428 0.0
C1825 C 0.74758 0.59477 0.69139 0.0
C1826 C 0.74782 0.61289 0.66979 0.0
C1827 C 0.72358 0.6228 0.6597 0.0
H1828 H 0.66243 0.58355 0.96699 0.0
H1829 H 0.7378 0.54453 0.98541 0.0
H1830 H 0.64458 0.54152 0.94849 0.0
H1831 H 0.71979 0.50235 0.96648 0.0
H1832 H 0.66662 0.42591 0.95605 0.0
H1833 H 0.68306 0.46781 0.97693 0.0
H1834 H 0.65388 0.51273 0.90858 0.0
H1835 H 0.63731 0.47115 0.88784 0.0
C1836 C 0.67527 0.56605 0.96701 0.0
C1837 C 0.70161 0.56743 0.97763 0.0
C1838 C 0.66501 0.54199 0.95633 0.0
C1839 C 0.68078 0.51872 0.95613 0.0
C1840 C 0.70712 0.51998 0.96669 0.0
C1841 C 0.7175 0.54417 0.97725 0.0
C1842 C 0.66341 0.44478 0.94568 0.0
C1843 C 0.65073 0.44525 0.92028 0.0
C1844 C 0.67305 0.46868 0.9575 0.0
C1845 C 0.66989 0.49342 0.94426 0.0
C1846 C 0.65646 0.49394 0.9193 0.0
C1847 C 0.64704 0.47011 0.9074 0.0
H1848 H 0.67932 0.47354 0.1649 0.0
H1849 H 0.66812 0.42139 0.23365 0.0
H1850 H 0.71618 0.44562 0.14942 0.0
H1851 H 0.70519 0.39323 0.21798 0.0
H1852 H 0.79849 0.38322 0.19884 0.0
H1853 H 0.75528 0.40053 0.21396 0.0
H1854 H 0.72613 0.39983 0.13177 0.0
H1855 H 0.76935 0.38281 0.1165 0.0
C1856 C 0.68459 0.45595 0.17658 0.0
C1857 C 0.67096 0.44974 0.20056 0.0
C1858 C 0.70555 0.43981 0.16758 0.0
C1859 C 0.71347 0.41717 0.18244 0.0
C1860 C 0.69954 0.41062 0.2062 0.0
C1861 C 0.67833 0.42669 0.21511 0.0
C1862 C 0.78271 0.38626 0.18403 0.0
C1863 C 0.78759 0.38221 0.15638 0.0
C1864 C 0.7579 0.39603 0.19274 0.0
C1865 C 0.73754 0.40195 0.17397 0.0
C1866 C 0.74168 0.39593 0.1466 0.0
C1867 C 0.76643 0.38611 0.1379 0.0
H1868 H 0.7931 0.42592 0.47568 0.0
H1869 H 0.73051 0.46215 0.42744 0.0
H1870 H 0.82671 0.45525 0.45466 0.0
H1871 H 0.76442 0.49133 0.40624 0.0
H1872 H 0.83498 0.523 0.3577 0.0
H1873 H 0.8075 0.48624 0.37585 0.0
H1874 H 0.83344 0.50753 0.45646 0.0
H1875 H 0.86071 0.54464 0.43846 0.0
C1876 C 0.78653 0.43995 0.4604 0.0
C1877 C 0.75911 0.44177 0.45322 0.0
C1878 C 0.8058 0.45672 0.44845 0.0
C1879 C 0.79811 0.47533 0.42879 0.0
C1880 C 0.77084 0.47684 0.42115 0.0
C1881 C 0.75144 0.46034 0.43342 0.0
C1882 C 0.83548 0.5194 0.37923 0.0
C1883 C 0.8498 0.53687 0.39673 0.0
C1884 C 0.81954 0.49853 0.38958 0.0
C1885 C 0.81811 0.49443 0.41751 0.0
C1886 C 0.83423 0.51036 0.43482 0.0
C1887 C 0.84982 0.53154 0.42453 0.0
H1888 H 0.78623 0.51182 0.82091 0.0
H1889 H 0.81125 0.45351 0.76125 0.0
H1890 H 0.75463 0.47859 0.83948 0.0
H1891 H 0.77939 0.4205 0.77971 0.0
H1892 H 0.68928 0.39202 0.80245 0.0
H1893 H 0.72634 0.41869 0.78342 0.0
H1894 H 0.75925 0.43145 0.86324 0.0
H1895 H 0.72256 0.40463 0.88236 0.0
C1896 C 0.78493 0.49198 0.81175 0.0
C1897 C 0.80123 0.48522 0.78972 0.0
C1898 C 0.76706 0.47294 0.82249 0.0
C1899 C 0.76489 0.44701 0.8111 0.0
C1900 C 0.78084 0.44036 0.78884 0.0
C1901 C 0.79904 0.45923 0.77838 0.0
C1902 C 0.70479 0.39995 0.81586 0.0
C1903 C 0.70283 0.39649 0.84391 0.0
C1904 C 0.72595 0.41517 0.80497 0.0
C1905 C 0.74523 0.4274 0.822 0.0
C1906 C 0.74432 0.42247 0.84981 0.0
C1907 C 0.72344 0.40694 0.86067 0.0
H1908 H 0.82689 0.56528 0.016 0.0
H1909 H 0.77294 0.56038 0.08411 0.0
H1910 H 0.85203 0.52686 0.03356 0.0
H1911 H 0.79778 0.52227 0.10141 0.0
H1912 H 0.85427 0.43374 0.05617 0.0
H1913 H 0.84088 0.47763 0.03918 0.0
H1914 H 0.84214 0.5096 0.12034 0.0
H1915 H 0.85515 0.46569 0.13749 0.0
C1916 C 0.82058 0.55617 0.0348 0.0
C1917 C 0.79787 0.56567 0.04862 0.0
C1918 C 0.83491 0.53422 0.04479 0.0
C1919 C 0.82693 0.52169 0.0689 0.0
C1920 C 0.80469 0.53177 0.08302 0.0
C1921 C 0.79029 0.55346 0.07296 0.0
C1922 C 0.85215 0.45023 0.07037 0.0
C1923 C 0.85513 0.44605 0.09826 0.0
C1924 C 0.84466 0.47543 0.06058 0.0
C1925 C 0.84006 0.49687 0.07851 0.0
C1926 C 0.84506 0.49324 0.10615 0.0
C1927 C 0.85254 0.46809 0.11593 0.0
H1928 H 0.69488 0.51207 0.26005 0.0
H1929 H 0.65541 0.58438 0.28758 0.0
H1930 H 0.73721 0.52829 0.28014 0.0
H1931 H 0.69767 0.60044 0.30749 0.0
H1932 H 0.77138 0.60172 0.36545 0.0
H1933 H 0.72885 0.58644 0.34541 0.0
H1934 H 0.76997 0.56768 0.27118 0.0
H1935 H 0.81267 0.58294 0.29114 0.0
C1936 C 0.69517 0.53127 0.27055 0.0
C1937 C 0.67183 0.54695 0.27221 0.0
C1938 C 0.71942 0.54063 0.2818 0.0
C1939 C 0.72063 0.56565 0.29517 0.0
C1940 C 0.6972 0.58103 0.29736 0.0
C1941 C 0.67306 0.57184 0.28589 0.0
C1942 C 0.77134 0.59453 0.34478 0.0
C1943 C 0.79537 0.59346 0.32989 0.0
C1944 C 0.747 0.58585 0.33333 0.0
C1945 C 0.74627 0.57572 0.30687 0.0
C1946 C 0.77014 0.57511 0.29176 0.0
C1947 C 0.79448 0.58407 0.30311 0.0
H1948 H 0.74392 0.45074 0.55301 0.0
H1949 H 0.6637 0.41811 0.53968 0.0
H1950 H 0.72451 0.49163 0.5723 0.0
H1951 H 0.64441 0.45881 0.55965 0.0
H1952 H 0.63215 0.52717 0.62814 0.0
H1953 H 0.6494 0.48458 0.6101 0.0
H1954 H 0.69091 0.52819 0.54728 0.0
H1955 H 0.67333 0.57055 0.56468 0.0
C1956 C 0.72219 0.4522 0.55451 0.0
C1957 C 0.70526 0.43142 0.54479 0.0
C1958 C 0.71115 0.47554 0.56543 0.0
C1959 C 0.68307 0.47816 0.56732 0.0
C1960 C 0.66613 0.45707 0.55842 0.0
C1961 C 0.67716 0.43395 0.54695 0.0
C1962 C 0.64477 0.52757 0.61035 0.0
C1963 C 0.65141 0.55211 0.59779 0.0
C1964 C 0.65455 0.50331 0.60008 0.0
C1965 C 0.67156 0.50339 0.57754 0.0
C1966 C 0.67796 0.52781 0.56483 0.0
C1967 C 0.66775 0.55195 0.5747 0.0
H1968 H 0.69353 0.8518 0.58669 0.0
H1969 H 0.72208 0.80095 0.52196 0.0
H1970 H 0.66921 0.8132 0.60595 0.0
H1971 H 0.69805 0.76255 0.54153 0.0
H1972 H 0.69227 0.70006 0.61007 0.0
H1973 H 0.71002 0.7421 0.59198 0.0
H1974 H 0.62975 0.77451 0.58899 0.0
H1975 H 0.61147 0.73197 0.60676 0.0
C1976 C 0.69431 0.83252 0.5764 0.0
C1977 C 0.70994 0.82928 0.55298 0.0
C1978 C 0.68032 0.81058 0.58736 0.0
C1979 C 0.68214 0.78511 0.57527 0.0
C1980 C 0.69662 0.78212 0.55121 0.0
C1981 C 0.71024 0.80408 0.54 0.0
C1982 C 0.67831 0.71614 0.6059 0.0
C1983 C 0.65037 0.71251 0.60946 0.0
C1984 C 0.68851 0.74012 0.59543 0.0
C1985 C 0.6711 0.76109 0.58873 0.0
C1986 C 0.64342 0.75837 0.5939 0.0
C1987 C 0.63306 0.73411 0.60406 0.0
H1988 H 0.21827 0.67527 0.44695 0.0
H1989 H 0.16739 0.7093 0.50862 0.0
H1990 H 0.19843 0.70558 0.41359 0.0
H1991 H 0.14744 0.7391 0.4753 0.0
H1992 H 0.10203 0.77544 0.40796 0.0
H1993 H 0.11892 0.73586 0.43104 0.0
H1994 H 0.20045 0.7588 0.41028 0.0
H1995 H 0.18373 0.79876 0.38729 0.0
C1996 C 0.20258 0.6889 0.45327 0.0
C1997 C 0.19443 0.69002 0.4804 0.0
C1998 C 0.19134 0.70622 0.43422 0.0
C1999 C 0.17135 0.72447 0.4419 0.0
C2000 C 0.16259 0.72494 0.4688 0.0
C2001 C 0.17415 0.70805 0.48791 0.0
C2002 C 0.12352 0.77179 0.40764 0.0
C2003 C 0.1416 0.79064 0.39629 0.0
C2004 C 0.13313 0.74913 0.42095 0.0
C2005 C 0.16095 0.74463 0.42278 0.0
C2006 C 0.17888 0.76189 0.40914 0.0
C2007 C 0.16929 0.7848 0.39605 0.0
H2008 H 0.57304 0.93314 0.7398 0.0
H2009 H 0.58141 0.97848 0.66596 0.0
H2010 H 0.53102 0.91297 0.72258 0.0
H2011 H 0.53954 0.95848 0.649 0.0
H2012 H 0.44661 0.9474 0.64921 0.0
H2013 H 0.49072 0.96384 0.66452 0.0
H2014 H 0.51379 0.88247 0.68368 0.0
H2015 H 0.46975 0.86588 0.66836 0.0
C2016 C 0.56609 0.93852 0.71982 0.0
C2017 C 0.58028 0.95757 0.70433 0.0
C2018 C 0.54214 0.92698 0.70998 0.0
C2019 C 0.53201 0.9345 0.68465 0.0
C2020 C 0.54677 0.95273 0.66878 0.0
C2021 C 0.57075 0.96405 0.67847 0.0
C2022 C 0.46109 0.93302 0.65665 0.0
C2023 C 0.45473 0.90538 0.65758 0.0
C2024 C 0.48634 0.9424 0.66525 0.0
C2025 C 0.50554 0.92435 0.67518 0.0
C2026 C 0.49922 0.89675 0.67622 0.0
C2027 C 0.47409 0.88731 0.66733 0.0
H2028 H 0.34003 0.30642 0.98876 0.0
H2029 H 0.27397 0.3175 0.93289 0.0
H2030 H 0.35514 0.26798 0.96234 0.0
H2031 H 0.28932 0.27912 0.90629 0.0
H2032 H 0.38893 0.21365 0.89956 0.0
H2033 H 0.37438 0.25675 0.91764 0.0
H2034 H 0.29136 0.2295 0.91342 0.0
H2035 H 0.30579 0.1864 0.89501 0.0
C2036 C 0.32888 0.30077 0.97073 0.0
C2037 C 0.30578 0.31486 0.96295 0.0
C2038 C 0.33765 0.27891 0.95548 0.0
C2039 C 0.32344 0.27066 0.93221 0.0
C2040 C 0.30053 0.28497 0.92423 0.0
C2041 C 0.29182 0.30694 0.93942 0.0
C2042 C 0.36753 0.21695 0.90209 0.0
C2043 C 0.34853 0.19641 0.89631 0.0
C2044 C 0.35924 0.2416 0.91255 0.0
C2045 C 0.33181 0.24626 0.91735 0.0
C2046 C 0.31265 0.22646 0.90987 0.0
C2047 C 0.32094 0.20174 0.89942 0.0
H2048 H 0.40422 0.53501 0.654 0.0
H2049 H 0.45016 0.5115 0.72422 0.0
H2050 H 0.4442 0.5577 0.63578 0.0
H2051 H 0.48999 0.53406 0.70584 0.0
H2052 H 0.56139 0.54937 0.65108 0.0
H2053 H 0.51998 0.52615 0.66417 0.0
H2054 H 0.4749 0.5986 0.64989 0.0
H2055 H 0.51646 0.62219 0.63686 0.0
C2056 C 0.42281 0.53468 0.66554 0.0
C2057 C 0.42406 0.52144 0.69056 0.0
C2058 C 0.4456 0.54773 0.65513 0.0
C2059 C 0.4701 0.54739 0.66934 0.0
C2060 C 0.47135 0.53429 0.69436 0.0
C2061 C 0.44851 0.52158 0.70496 0.0
C2062 C 0.54266 0.56036 0.65038 0.0
C2063 C 0.54228 0.58778 0.64331 0.0
C2064 C 0.519 0.54705 0.65801 0.0
C2065 C 0.49444 0.56076 0.6584 0.0
C2066 C 0.49367 0.58766 0.64977 0.0
C2067 C 0.51744 0.60112 0.64239 0.0
H2068 H 0.81197 0.17103 0.01058 0.0
H2069 H 0.75875 0.16269 0.079 0.0
H2070 H 0.83218 0.21146 0.03127 0.0
H2071 H 0.77872 0.20305 0.09934 0.0
H2072 H 0.79709 0.29569 0.10375 0.0
H2073 H 0.77881 0.25316 0.08599 0.0
H2074 H 0.85961 0.22406 0.0741 0.0
H2075 H 0.87801 0.26635 0.09193 0.0
C2076 C 0.80473 0.17773 0.03004 0.0
C2077 C 0.78368 0.16387 0.04307 0.0
C2078 C 0.81631 0.20075 0.04189 0.0
C2079 C 0.8068 0.21035 0.06677 0.0
C2080 C 0.78614 0.19619 0.07999 0.0
C2081 C 0.77481 0.17307 0.06835 0.0
C2082 C 0.81094 0.28014 0.09756 0.0
C2083 C 0.83896 0.2844 0.0992 0.0
C2084 C 0.80049 0.25582 0.08749 0.0
C2085 C 0.81788 0.23551 0.07859 0.0
C2086 C 0.84584 0.23956 0.0806 0.0
C2087 C 0.8563 0.2637 0.09099 0.0
H2088 H 0.58442 0.04331 0.79419 0.0
H2089 H 0.51995 0.02539 0.73763 0.0
H2090 H 0.55113 0.05387 0.82881 0.0
H2091 H 0.48692 0.03595 0.77215 0.0
H2092 H 0.43246 0.03592 0.84221 0.0
H2093 H 0.47044 0.01827 0.81695 0.0
H2094 H 0.51652 0.09068 0.83471 0.0
H2095 H 0.47864 0.10845 0.8601 0.0
C2096 C 0.56319 0.04157 0.78915 0.0
C2097 C 0.55482 0.0337 0.76308 0.0
C2098 C 0.54419 0.04759 0.80897 0.0
C2099 C 0.5165 0.04546 0.80322 0.0
C2100 C 0.50816 0.03731 0.77729 0.0
C2101 C 0.52709 0.03159 0.75741 0.0
C2102 C 0.4509 0.04783 0.84137 0.0
C2103 C 0.45226 0.07391 0.85261 0.0
C2104 C 0.47258 0.03775 0.82676 0.0
C2105 C 0.49611 0.05341 0.82336 0.0
C2106 C 0.49855 0.07824 0.83693 0.0
C2107 C 0.4768 0.08842 0.85143 0.0
H2108 H 0.93467 0.93191 0.26764 0.0
H2109 H 0.92757 0.00343 0.31706 0.0
H2110 H 0.96996 0.91546 0.29755 0.0
H2111 H 0.96331 0.987 0.34686 0.0
H2112 H 0.05462 0.95618 0.36211 0.0
H2113 H 0.01507 0.9762 0.34092 0.0
H2114 H 0.97191 0.90048 0.34782 0.0
H2115 H 0.01107 0.88041 0.36915 0.0
C2116 C 0.94071 0.94415 0.28483 0.0
C2117 C 0.92836 0.9689 0.29005 0.0
C2118 C 0.96073 0.93464 0.30206 0.0
C2119 C 0.96907 0.94986 0.32464 0.0
C2120 C 0.95712 0.97488 0.32963 0.0
C2121 C 0.93672 0.98421 0.31261 0.0
C2122 C 0.03646 0.94399 0.35981 0.0
C2123 C 0.03624 0.91651 0.36681 0.0
C2124 C 0.01385 0.95549 0.34768 0.0
C2125 C 0.99077 0.93965 0.34224 0.0
C2126 C 0.98971 0.91293 0.35136 0.0
C2127 C 0.01213 0.90152 0.3637 0.0
H2128 H 0.42154 0.24459 0.19227 0.0
H2129 H 0.47852 0.30991 0.18002 0.0
H2130 H 0.40043 0.27001 0.22844 0.0
H2131 H 0.45823 0.33495 0.21706 0.0
H2132 H 0.40556 0.38166 0.2753 0.0
H2133 H 0.42006 0.35909 0.23386 0.0
H2134 H 0.41107 0.28185 0.27309 0.0
H2135 H 0.39577 0.304 0.31353 0.0
C2136 C 0.42965 0.26434 0.19744 0.0
C2137 C 0.45184 0.27514 0.18351 0.0
C2138 C 0.41761 0.27892 0.21823 0.0
C2139 C 0.42776 0.30449 0.22593 0.0
C2140 C 0.44962 0.31552 0.21152 0.0
C2141 C 0.46143 0.30105 0.19044 0.0
C2142 C 0.40632 0.35985 0.27484 0.0
C2143 C 0.39964 0.34471 0.29782 0.0
C2144 C 0.41484 0.3469 0.25118 0.0
C2145 C 0.41682 0.31859 0.25007 0.0
C2146 C 0.4094 0.30359 0.27289 0.0
C2147 C 0.40082 0.31642 0.29631 0.0
H2148 H 0.46343 0.71148 0.91398 0.0
H2149 H 0.52183 0.73247 0.97584 0.0
H2150 H 0.43849 0.68409 0.94619 0.0
H2151 H 0.4965 0.70551 0.00822 0.0
H2152 H 0.45486 0.64407 0.05864 0.0
H2153 H 0.48189 0.66068 0.02118 0.0
H2154 H 0.41039 0.69394 0.98472 0.0
H2155 H 0.38324 0.67673 0.02193 0.0
C2156 C 0.47105 0.71013 0.93443 0.0
C2157 C 0.49449 0.72439 0.94244 0.0
C2158 C 0.45668 0.69449 0.95289 0.0
C2159 C 0.46534 0.69281 0.97979 0.0
C2160 C 0.48943 0.70613 0.98754 0.0
C2161 C 0.50391 0.7217 0.96902 0.0
C2162 C 0.44486 0.65457 0.04239 0.0
C2163 C 0.417 0.65947 0.04337 0.0
C2164 C 0.46037 0.66418 0.02102 0.0
C2165 C 0.44838 0.67902 0.00023 0.0
C2166 C 0.42023 0.68243 0.00035 0.0
C2167 C 0.40465 0.67264 0.02169 0.0
H2168 H 0.03318 0.71988 0.70224 0.0
H2169 H 0.0739 0.65874 0.65577 0.0
H2170 H 0.05413 0.70292 0.74324 0.0
H2171 H 0.09503 0.64212 0.69669 0.0
H2172 H 0.10916 0.67714 0.81043 0.0
H2173 H 0.09682 0.69682 0.76737 0.0
H2174 H 0.07772 0.61743 0.73595 0.0
H2175 H 0.09048 0.59755 0.77903 0.0
C2176 C 0.04699 0.70321 0.70068 0.0
C2177 C 0.05154 0.69044 0.6758 0.0
C2178 C 0.05905 0.69351 0.72416 0.0
C2179 C 0.07594 0.67095 0.72318 0.0
C2180 C 0.08167 0.65917 0.69812 0.0
C2181 C 0.06962 0.66881 0.67468 0.0
C2182 C 0.10247 0.6638 0.79431 0.0
C2183 C 0.10043 0.63577 0.79825 0.0
C2184 C 0.09536 0.67514 0.76967 0.0
C2185 C 0.08607 0.65873 0.7484 0.0
C2186 C 0.08504 0.63059 0.75194 0.0
C2187 C 0.0922 0.6192 0.77664 0.0
H2188 H -0.002 0.32542 0.4332 0.0
H2189 H 0.08018 0.30141 0.41876 0.0
H2190 H 0.01282 0.35021 0.4735 0.0
H2191 H 0.09476 0.32508 0.45913 0.0
H2192 H 0.11993 0.37485 0.52791 0.0
H2193 H 0.10211 0.36623 0.48273 0.0
H2194 H 0.02752 0.33659 0.51727 0.0
H2195 H 0.04486 0.34623 0.56214 0.0
C2196 C 0.01922 0.32562 0.43852 0.0
C2197 C 0.03788 0.31116 0.42313 0.0
C2198 C 0.0277 0.33973 0.4616 0.0
C2199 C 0.05495 0.33949 0.46968 0.0
C2200 C 0.0737 0.32609 0.45339 0.0
C2201 C 0.06527 0.31219 0.43035 0.0
C2202 C 0.09957 0.3669 0.52577 0.0
C2203 C 0.08403 0.36065 0.54856 0.0
C2204 C 0.08937 0.36191 0.49992 0.0
C2205 C 0.06357 0.35025 0.49638 0.0
C2206 C 0.04738 0.34576 0.51917 0.0
C2207 C 0.05745 0.35105 0.54498 0.0
H2208 H 0.41247 0.75135 0.31995 0.0
H2209 H 0.43894 0.67025 0.33566 0.0
H2210 H 0.38979 0.73555 0.27886 0.0
H2211 H 0.41749 0.65473 0.29442 0.0
H2212 H 0.40036 0.70552 0.19057 0.0
H2213 H 0.40676 0.72222 0.23618 0.0
H2214 H 0.37897 0.64559 0.26759 0.0
H2215 H 0.37366 0.62845 0.22164 0.0
C2216 C 0.41317 0.73013 0.31479 0.0
C2217 C 0.42792 0.71213 0.33066 0.0
C2218 C 0.40031 0.72108 0.29122 0.0
C2219 C 0.40216 0.69394 0.28308 0.0
C2220 C 0.41537 0.67571 0.30007 0.0
C2221 C 0.42799 0.68469 0.32365 0.0
C2222 C 0.39532 0.6923 0.20718 0.0
C2223 C 0.38711 0.66546 0.20253 0.0
C2224 C 0.3987 0.702 0.23342 0.0
C2225 C 0.39364 0.68518 0.25563 0.0
C2226 C 0.38363 0.65889 0.25093 0.0
C2227 C 0.38057 0.64906 0.22464 0.0
H2228 H 0.02207 0.70395 0.05095 0.0
H2229 H 0.09025 0.6785 0.09879 0.0
H2230 H 0.03799 0.67705 0.01333 0.0
H2231 H 0.10584 0.65114 0.06118 0.0
H2232 H 0.06287 0.61625 0.95323 0.0
H2233 H 0.046 0.63182 -0.00343 0.0
H2234 H 0.12572 0.6616 0.01748 0.0
H2235 H 0.14275 0.64547 0.97437 0.0
C2236 C 0.04021 0.6923 0.05362 0.0
C2237 C 0.05505 0.69371 0.07779 0.0
C2238 C 0.04924 0.67669 0.03209 0.0
C2239 C 0.07326 0.66206 0.03426 0.0
C2240 C 0.08748 0.66251 0.0588 0.0
C2241 C 0.07847 0.67816 0.08035 0.0
C2242 C 0.07688 0.62577 0.96725 0.0
C2243 C 0.10403 0.63012 0.96021 0.0
C2244 C 0.06719 0.63474 0.99203 0.0
C2245 C 0.08441 0.64835 0.01022 0.0
C2246 C 0.11196 0.65107 0.00394 0.0
C2247 C 0.1217 0.64194 0.97918 0.0
H2248 H 0.0027 0.28819 0.81034 0.0
H2249 H 0.05053 0.21803 0.7934 0.0
H2250 H 0.03058 0.31483 0.78004 0.0
H2251 H 0.07958 0.24498 0.76421 0.0
H2252 H 0.09687 0.29012 0.6856 0.0
H2253 H 0.07765 0.26398 0.72175 0.0
H2254 H 0.07206 0.33607 0.77076 0.0
H2255 H 0.09008 0.36276 0.7335 0.0
C2256 C 0.01947 0.27858 0.80039 0.0
C2257 C 0.02425 0.25098 0.8039 0.0
C2258 C 0.03571 0.29393 0.78324 0.0
C2259 C 0.05744 0.28215 0.76958 0.0
C2260 C 0.06272 0.25466 0.77391 0.0
C2261 C 0.04611 0.23917 0.79064 0.0
C2262 C 0.09184 0.30049 0.70415 0.0
C2263 C 0.09443 0.32869 0.7064 0.0
C2264 C 0.08101 0.28534 0.72513 0.0
C2265 C 0.07285 0.29787 0.74916 0.0
C2266 C 0.07743 0.32583 0.75224 0.0
C2267 C 0.08801 0.34113 0.73101 0.0
H2268 H 0.50593 0.29409 0.53979 0.0
H2269 H 0.43147 0.28095 0.5829 0.0
H2270 H 0.48152 0.31746 0.50446 0.0
H2271 H 0.40705 0.30563 0.54832 0.0
H2272 H 0.36902 0.32569 0.46575 0.0
H2273 H 0.39099 0.30416 0.5039 0.0
H2274 H 0.45991 0.35767 0.4946 0.0
H2275 H 0.43841 0.37801 0.45552 0.0
C2276 C 0.48432 0.29637 0.54176 0.0
C2277 C 0.4706 0.28569 0.56405 0.0
C2278 C 0.4703 0.31006 0.52165 0.0
C2279 C 0.44226 0.31386 0.5236 0.0
C2280 C 0.42854 0.30291 0.5459 0.0
C2281 C 0.44254 0.28879 0.56578 0.0
C2282 C 0.38863 0.33319 0.47228 0.0
C2283 C 0.40209 0.35344 0.45769 0.0
C2284 C 0.40129 0.32082 0.49416 0.0
C2285 C 0.42752 0.32878 0.50216 0.0
C2286 C 0.44011 0.35036 0.48856 0.0
C2287 C 0.42768 0.36231 0.46638 0.0
H2288 H 0.18473 0.48719 0.30484 0.0
H2289 H 0.19618 0.43764 0.23402 0.0
H2290 H 0.22108 0.4637 0.32767 0.0
H2291 H 0.23206 0.4136 0.2571 0.0
H2292 H 0.27129 0.40227 0.37079 0.0
H2293 H 0.23239 0.42072 0.34723 0.0
H2294 H 0.27736 0.42088 0.27274 0.0
H2295 H 0.31576 0.40178 0.29596 0.0
C2296 C 0.19498 0.47123 0.29416 0.0
C2297 C 0.18767 0.46435 0.26759 0.0
C2298 C 0.21563 0.45756 0.30736 0.0
C2299 C 0.22937 0.43661 0.29431 0.0
C2300 C 0.22208 0.4298 0.26767 0.0
C2301 C 0.20149 0.44356 0.25443 0.0
C2302 C 0.2727 0.40581 0.3493 0.0
C2303 C 0.29675 0.40077 0.33536 0.0
C2304 C 0.2505 0.41664 0.33584 0.0
C2305 C 0.25187 0.42265 0.30816 0.0
C2306 C 0.27549 0.41636 0.294 0.0
C2307 C 0.29761 0.4055 0.30741 0.0
H2308 H 0.33407 0.44402 0.9863 0.0
H2309 H 0.31442 0.42295 0.06845 0.0
H2310 H 0.35413 0.48663 0.00227 0.0
H2311 H 0.33347 0.46529 0.08417 0.0
H2312 H 0.38009 0.53542 0.1114 0.0
H2313 H 0.37369 0.49119 0.09064 0.0
H2314 H 0.33728 0.52844 0.02097 0.0
H2315 H 0.34481 0.57277 0.04133 0.0
C2316 C 0.33421 0.44841 0.00772 0.0
C2317 C 0.3225 0.43032 0.02612 0.0
C2318 C 0.34559 0.47279 0.01685 0.0
C2319 C 0.34543 0.47935 0.04449 0.0
C2320 C 0.33444 0.46074 0.06281 0.0
C2321 C 0.3232 0.43651 0.05375 0.0
C2322 C 0.37105 0.53412 0.09149 0.0
C2323 C 0.3624 0.55738 0.07819 0.0
C2324 C 0.36735 0.50883 0.07961 0.0
C2325 C 0.35446 0.50625 0.0544 0.0
C2326 C 0.3474 0.52971 0.04034 0.0
C2327 C 0.35151 0.55509 0.05208 0.0
H2328 H 0.32305 0.52005 0.79462 0.0
H2329 H 0.28826 0.54809 0.71998 0.0
H2330 H 0.28941 0.54441 0.81996 0.0
H2331 H 0.25525 0.57378 0.74541 0.0
H2332 H 0.23073 0.59637 0.86269 0.0
H2333 H 0.26978 0.58459 0.83532 0.0
H2334 H 0.21646 0.56224 0.76943 0.0
H2335 H 0.17804 0.57508 0.79602 0.0
C2336 C 0.30859 0.53199 0.78362 0.0
C2337 C 0.30803 0.53181 0.75528 0.0
C2338 C 0.28936 0.5462 0.7982 0.0
C2339 C 0.26934 0.5609 0.7848 0.0
C2340 C 0.26994 0.56213 0.75642 0.0
C2341 C 0.2889 0.54751 0.74181 0.0
C2342 C 0.22748 0.5893 0.84221 0.0
C2343 C 0.20125 0.58631 0.83171 0.0
C2344 C 0.24983 0.58243 0.82655 0.0
C2345 C 0.24634 0.5722 0.80018 0.0
C2346 C 0.22012 0.5704 0.78942 0.0
C2347 C 0.19793 0.57752 0.80489 0.0
H2348 H 0.19471 0.58687 0.59913 0.0
H2349 H 0.17253 0.56768 0.51689 0.0
H2350 H 0.17103 0.54691 0.61469 0.0
H2351 H 0.14709 0.52837 0.53255 0.0
H2352 H 0.14621 0.44207 0.56442 0.0
H2353 H 0.15814 0.48614 0.54785 0.0
H2354 H 0.13206 0.5218 0.62304 0.0
H2355 H 0.12151 0.47683 0.64038 0.0
C2356 C 0.18421 0.57434 0.58442 0.0
C2357 C 0.18584 0.58004 0.55675 0.0
C2358 C 0.17032 0.55152 0.59338 0.0
C2359 C 0.15726 0.53413 0.57491 0.0
C2360 C 0.15752 0.54086 0.54732 0.0
C2361 C 0.17201 0.56339 0.53829 0.0
C2362 C 0.14272 0.45928 0.57743 0.0
C2363 C 0.13337 0.45592 0.60394 0.0
C2364 C 0.14932 0.48475 0.56774 0.0
C2365 C 0.14627 0.5077 0.58409 0.0
C2366 C 0.13528 0.50452 0.61009 0.0
C2367 C 0.12912 0.47881 0.62002 0.0
H2368 H 0.18296 0.56705 0.23153 0.0
H2369 H 0.16286 0.55411 0.14756 0.0
H2370 H 0.22219 0.594 0.21831 0.0
H2371 H 0.20263 0.57946 0.1343 0.0
H2372 H 0.27233 0.63137 0.11337 0.0
H2373 H 0.22759 0.61934 0.13036 0.0
H2374 H 0.26435 0.58417 0.20104 0.0
H2375 H 0.30838 0.5975 0.18489 0.0
C2376 C 0.18696 0.56999 0.21027 0.0
C2377 C 0.17011 0.55819 0.19058 0.0
C2378 C 0.20945 0.58535 0.20265 0.0
C2379 C 0.21589 0.58864 0.1752 0.0
C2380 C 0.19824 0.57779 0.1556 0.0
C2381 C 0.1755 0.56295 0.16322 0.0
C2382 C 0.27066 0.62141 0.1327 0.0
C2383 C 0.29381 0.61503 0.1476 0.0
C2384 C 0.24509 0.61442 0.14242 0.0
C2385 C 0.24228 0.60045 0.16696 0.0
C2386 C 0.26551 0.59526 0.18232 0.0
C2387 C 0.29091 0.60267 0.17287 0.0
H2388 H 0.1946 0.44531 0.02833 0.0
H2389 H 0.23793 0.42454 0.95592 0.0
H2390 H 0.16451 0.47347 0.00191 0.0
H2391 H 0.20909 0.45378 0.92975 0.0
H2392 H 0.15229 0.55282 0.95659 0.0
H2393 H 0.16912 0.51551 0.98221 0.0
H2394 H 0.16739 0.46548 0.9105 0.0
H2395 H 0.15164 0.50387 0.88421 0.0
C2396 C 0.19768 0.44682 0.00676 0.0
C2397 C 0.21881 0.43308 0.99423 0.0
C2398 C 0.1805 0.46297 0.99159 0.0
C2399 C 0.18454 0.46627 0.96367 0.0
C2400 C 0.20502 0.45151 0.95106 0.0
C2401 C 0.2218 0.43494 0.96614 0.0
C2402 C 0.15524 0.53384 0.94619 0.0
C2403 C 0.15129 0.53155 0.91816 0.0
C2404 C 0.1646 0.51218 0.96107 0.0
C2405 C 0.16997 0.48743 0.94847 0.0
C2406 C 0.16405 0.48446 0.92076 0.0
C2407 C 0.15485 0.50637 0.90571 0.0
H2408 H 0.33858 0.41502 0.69309 0.0
H2409 H 0.29536 0.4412 0.76367 0.0
H2410 H 0.29753 0.3942 0.67513 0.0
H2411 H 0.25366 0.42178 0.74508 0.0
H2412 H 0.21635 0.4042 0.63315 0.0
H2413 H 0.2592 0.41305 0.6552 0.0
H2414 H 0.2264 0.3843 0.73065 0.0
H2415 H 0.18285 0.37641 0.70859 0.0
C2416 C 0.32022 0.41607 0.70482 0.0
C2417 C 0.31988 0.42987 0.72953 0.0
C2418 C 0.29668 0.40434 0.69449 0.0
C2419 C 0.27212 0.40689 0.70831 0.0
C2420 C 0.27221 0.41929 0.73393 0.0
C2421 C 0.29602 0.43052 0.74458 0.0
C2422 C 0.21828 0.39951 0.65438 0.0
C2423 C 0.19614 0.38984 0.66917 0.0
C2424 C 0.243 0.40436 0.66704 0.0
C2425 C 0.24635 0.39931 0.69475 0.0
C2426 C 0.22442 0.38875 0.70938 0.0
C2427 C 0.19952 0.38415 0.69673 0.0
H2428 H 0.2547 0.56447 0.44059 0.0
H2429 H 0.30641 0.55865 0.51059 0.0
H2430 H 0.27973 0.52859 0.4186 0.0
H2431 H 0.33196 0.52335 0.48834 0.0
H2432 H 0.34289 0.47913 0.37634 0.0
H2433 H 0.32265 0.5181 0.39835 0.0
H2434 H 0.32691 0.47733 0.47506 0.0
H2435 H 0.34776 0.43902 0.45339 0.0
C2436 C 0.27146 0.55557 0.45126 0.0
C2437 C 0.27847 0.56428 0.4774 0.0
C2438 C 0.28601 0.5352 0.43853 0.0
C2439 C 0.30799 0.52315 0.45161 0.0
C2440 C 0.31498 0.53194 0.47777 0.0
C2441 C 0.30034 0.55221 0.49054 0.0
C2442 C 0.33996 0.47872 0.39797 0.0
C2443 C 0.34677 0.45583 0.41302 0.0
C2444 C 0.32809 0.50094 0.41055 0.0
C2445 C 0.32283 0.50075 0.43845 0.0
C2446 C 0.33082 0.47834 0.45361 0.0
C2447 C 0.34268 0.45624 0.44109 0.0
H2448 H 0.29591 0.17001 0.45482 0.0
H2449 H 0.23013 0.22638 0.45596 0.0
H2450 H 0.32253 0.20147 0.42789 0.0
H2451 H 0.25696 0.25803 0.42982 0.0
H2452 H 0.30209 0.30623 0.37046 0.0
H2453 H 0.2767 0.26733 0.38701 0.0
H2454 H 0.34569 0.24374 0.43457 0.0
H2455 H 0.37131 0.28212 0.41722 0.0
C2456 C 0.2871 0.18909 0.44932 0.0
C2457 C 0.26091 0.19572 0.4577 0.0
C2458 C 0.30241 0.20715 0.43392 0.0
C2459 C 0.29194 0.23231 0.42667 0.0
C2460 C 0.26553 0.23865 0.43458 0.0
C2461 C 0.25018 0.22055 0.44981 0.0
C2462 C 0.31199 0.29232 0.38395 0.0
C2463 C 0.33855 0.29731 0.39277 0.0
C2464 C 0.29739 0.27018 0.39362 0.0
C2465 C 0.30893 0.25274 0.41259 0.0
C2466 C 0.33618 0.25666 0.41988 0.0
C2467 C 0.35091 0.27868 0.40994 0.0
H2468 H 0.74081 0.31145 0.5689 0.0
H2469 H 0.80691 0.32353 0.5135 0.0
H2470 H 0.76578 0.27563 0.59104 0.0
H2471 H 0.83148 0.28733 0.53506 0.0
H2472 H 0.87737 0.23069 0.58786 0.0
H2473 H 0.85458 0.27246 0.57575 0.0
H2474 H 0.77765 0.23054 0.57825 0.0
H2475 H 0.80008 0.18944 0.59094 0.0
C2476 C 0.76063 0.30641 0.56144 0.0
C2477 C 0.77179 0.32004 0.53931 0.0
C2478 C 0.77494 0.28595 0.57411 0.0
C2479 C 0.80059 0.27862 0.56476 0.0
C2480 C 0.81198 0.29276 0.54303 0.0
C2481 C 0.79775 0.3133 0.53048 0.0
C2482 C 0.85557 0.2306 0.58624 0.0
C2483 C 0.84057 0.2067 0.5899 0.0
C2484 C 0.84255 0.25443 0.57918 0.0
C2485 C 0.81434 0.25472 0.57582 0.0
C2486 C 0.79935 0.23112 0.58091 0.0
C2487 C 0.81229 0.20744 0.58791 0.0
H2488 H 0.39408 0.05877 0.33859 0.0
H2489 H 0.44054 0.00302 0.29095 0.0
H2490 H 0.43427 0.07048 0.36477 0.0
H2491 H 0.48083 0.01542 0.31636 0.0
H2492 H 0.55132 0.03843 0.36699 0.0
H2493 H 0.50742 0.01799 0.3566 0.0
H2494 H 0.4724 0.09728 0.35321 0.0
H2495 H 0.51574 0.11749 0.36438 0.0
C2496 C 0.4128 0.04875 0.33393 0.0
C2497 C 0.41423 0.03034 0.31235 0.0
C2498 C 0.43587 0.05554 0.34887 0.0
C2499 C 0.46095 0.04435 0.34232 0.0
C2500 C 0.46189 0.02436 0.32213 0.0
C2501 C 0.43875 0.01733 0.3074 0.0
C2502 C 0.53411 0.05143 0.36449 0.0
C2503 C 0.53715 0.07963 0.36601 0.0
C2504 C 0.50897 0.03971 0.35844 0.0
C2505 C 0.48639 0.05596 0.35371 0.0
C2506 C 0.48918 0.08404 0.35697 0.0
C2507 C 0.51421 0.09571 0.36314 0.0
H2508 H 0.76258 0.70304 0.0602 0.0
H2509 H 0.69562 0.64975 0.07812 0.0
H2510 H 0.73907 0.74025 0.08204 0.0
H2511 H 0.67274 0.68621 0.10124 0.0
H2512 H 0.62391 0.76404 0.09571 0.0
H2513 H 0.64978 0.72413 0.08509 0.0
H2514 H 0.72082 0.76111 0.12115 0.0
H2515 H 0.69506 0.80152 0.13075 0.0
C2516 C 0.7432 0.6992 0.06955 0.0
C2517 C 0.73059 0.67389 0.06718 0.0
C2518 C 0.72975 0.72039 0.08216 0.0
C2519 C 0.70374 0.7163 0.09295 0.0
C2520 C 0.69232 0.69025 0.09242 0.0
C2521 C 0.70547 0.66935 0.07935 0.0
C2522 C 0.64494 0.76347 0.10169 0.0
C2523 C 0.65758 0.78595 0.11368 0.0
C2524 C 0.6598 0.74053 0.09578 0.0
C2525 C 0.68749 0.73946 0.10215 0.0
C2526 C 0.69971 0.76148 0.11549 0.0
C2527 C 0.68493 0.78455 0.12108 0.0
H2528 H 0.51913 0.51928 0.28218 0.0
H2529 H 0.5788 0.45724 0.29164 0.0
H2530 H 0.4888 0.49461 0.31182 0.0
H2531 H 0.5488 0.43297 0.32213 0.0
H2532 H 0.4716 0.38166 0.34033 0.0
H2533 H 0.50842 0.40686 0.31958 0.0
H2534 H 0.47977 0.48023 0.35645 0.0
H2535 H 0.44232 0.45508 0.37631 0.0
C2536 C 0.52594 0.50056 0.2909 0.0
C2537 C 0.5513 0.49014 0.28432 0.0
C2538 C 0.50862 0.48648 0.30814 0.0
C2539 C 0.51632 0.46174 0.31947 0.0
C2540 C 0.54202 0.45173 0.31348 0.0
C2541 C 0.55925 0.46569 0.29602 0.0
C2542 C 0.47358 0.40304 0.34458 0.0
C2543 C 0.45388 0.41647 0.35963 0.0
C2544 C 0.49474 0.41755 0.33267 0.0
C2545 C 0.49678 0.44574 0.33584 0.0
C2546 C 0.47837 0.4587 0.3529 0.0
C2547 C 0.45706 0.44425 0.36452 0.0
H2548 H 0.22581 0.79151 0.9634 0.0
H2549 H 0.17466 0.83412 0.90762 0.0
H2550 H 0.21766 0.74988 0.93832 0.0
H2551 H 0.1672 0.79267 0.88204 0.0
H2552 H 0.12251 0.70953 0.88333 0.0
H2553 H 0.14014 0.75412 0.89378 0.0
H2554 H 0.22093 0.72254 0.89768 0.0
H2555 H 0.20307 0.67743 0.88779 0.0
C2556 C 0.21338 0.79212 0.9454 0.0
C2557 C 0.20032 0.8159 0.93787 0.0
C2558 C 0.20888 0.76829 0.93087 0.0
C2559 C 0.19145 0.7679 0.9084 0.0
C2560 C 0.18024 0.79221 0.89961 0.0
C2561 C 0.1845 0.81594 0.91429 0.0
C2562 C 0.1441 0.71211 0.88597 0.0
C2563 C 0.1613 0.68985 0.88538 0.0
C2564 C 0.15428 0.73779 0.89169 0.0
C2565 C 0.18194 0.74183 0.89688 0.0
C2566 C 0.19947 0.71993 0.89423 0.0
C2567 C 0.18924 0.69414 0.88846 0.0
H2568 H 0.45332 -0.00325 0.20638 0.0
H2569 H 0.40586 0.9235 0.21308 0.0
H2570 H 0.48927 0.97163 0.18489 0.0
H2571 H 0.44106 0.8985 0.19022 0.0
H2572 H 0.52417 0.85863 0.18042 0.0
H2573 H 0.4843 0.88148 0.19715 0.0
H2574 H 0.50236 0.94944 0.14552 0.0
H2575 H 0.54302 0.92708 0.13019 0.0
C2576 C 0.4505 0.97531 0.20295 0.0
C2577 C 0.42697 0.96202 0.21152 0.0
C2578 C 0.47096 0.9609 0.19037 0.0
C2579 C 0.46806 0.93297 0.18562 0.0
C2580 C 0.44422 0.91984 0.19391 0.0
C2581 C 0.42401 0.93418 0.20694 0.0
C2582 C 0.51921 0.87821 0.17232 0.0
C2583 C 0.53663 0.89127 0.15425 0.0
C2584 C 0.49636 0.89136 0.18185 0.0
C2585 C 0.49032 0.91759 0.17306 0.0
C2586 C 0.50682 0.92966 0.1534 0.0
C2587 C 0.52992 0.91677 0.14435 0.0
H2588 H 0.08636 0.06209 0.68038 0.0
H2589 H 0.03827 0.98956 0.68937 0.0
H2590 H 0.04876 0.08422 0.65851 0.0
H2591 H -0.00019 0.01215 0.66878 0.0
H2592 H 0.93853 0.05499 0.61826 0.0
H2593 H 0.97983 0.03164 0.63002 0.0
H2594 H 0.00799 0.10249 0.6735 0.0
H2595 H 0.96726 0.1261 0.66064 0.0
C2596 C 0.06762 0.05092 0.67759 0.0
C2597 C 0.06492 0.02432 0.68675 0.0
C2598 C 0.04604 0.06362 0.66523 0.0
C2599 C 0.02109 0.05019 0.66237 0.0
C2600 C 0.01881 0.02304 0.67047 0.0
C2601 C 0.04071 0.01011 0.68237 0.0
C2602 C 0.95374 0.0656 0.63011 0.0
C2603 C 0.94971 0.09227 0.63873 0.0
C2604 C 0.97731 0.05218 0.63695 0.0
C2605 C -0.00284 0.06507 0.65286 0.0
C2606 C 0.99335 0.09205 0.66083 0.0
C2607 C 0.96996 0.1056 0.65362 0.0
loop_
_geom_bond_atom_site_label_1
_geom_bond_atom_site_label_2
_geom_bond_distance
_geom_bond_site_symmetry_2
_ccdc_geom_bond_type
Co0 O1 2.216 1_655 S
Co0 O2 2.091 . S
Co0 O4 2.004 . S
Co0 O10 2.021 1_655 S
Co0 O12 2.140 . S
Co0 O13 2.244 1_655 S
O1 Co0 2.216 1_455 S
O1 C8 1.247 1_455 S
O2 Co0 2.091 . S
O2 C8 1.261 . S
C3 O12 1.227 1_455 S
C3 O13 1.272 . S
O4 Co0 2.004 . S
O4 C9 1.259 . S
Co5 O6 2.061 . S
Co5 O11 2.052 . S
Co5 O13 2.135 . S
O6 Co5 2.061 . S
O6 C9 1.235 1_455 S
C7 O10 1.238 . S
C7 O11 1.241 . S
C8 O1 1.247 1_655 S
C8 O2 1.261 . S
C9 O4 1.259 . S
C9 O6 1.235 1_655 S
O10 Co0 2.021 1_455 S
O10 C7 1.238 . S
O11 Co5 2.052 . S
O11 C7 1.241 . S
O12 Co0 2.140 . S
O12 C3 1.227 1_655 S
O13 Co0 2.244 1_455 S
O13 C3 1.272 . S
O13 Co5 2.135 . S
Co14 O15 2.216 . S
Co14 O16 2.091 . S
Co14 O18 2.004 1_655 S
Co14 O24 2.021 1_655 S
Co14 O26 2.137 . S
Co14 O27 2.244 . S
O15 Co14 2.216 . S
O15 C22 1.247 . S
O16 Co14 2.091 . S
O16 C22 1.261 . S
C17 O26 1.247 . S
C17 O27 1.272 . S
O18 Co14 2.004 1_455 S
O18 C23 1.259 . S
Co19 O20 2.061 . S
Co19 O25 2.052 . S
Co19 O27 2.135 1_455 S
O20 Co19 2.061 . S
O20 C23 1.235 . S
C21 O24 1.238 . S
C21 O25 1.241 . S
C22 O15 1.247 . S
C22 O16 1.261 . S
C23 O18 1.259 . S
C23 O20 1.235 . S
O24 Co14 2.021 1_455 S
O24 C21 1.238 . S
O25 Co19 2.052 . S
O25 C21 1.241 . S
O26 Co14 2.137 . S
O26 C17 1.247 . S
O27 Co14 2.244 . S
O27 C17 1.272 . S
O27 Co19 2.135 1_655 S
Co28 O29 2.216 . S
Co28 O30 2.091 . S
Co28 O32 2.004 . S
Co28 O38 2.021 . S
Co28 O40 2.137 . S
Co28 O41 2.244 . S
O29 Co28 2.216 . S
O29 C36 1.247 . S
O30 Co28 2.091 . S
O30 C36 1.261 . S
C31 O40 1.247 . S
C31 O41 1.272 . S
O32 Co28 2.004 . S
O32 C37 1.259 . S
Co33 O34 2.061 . S
Co33 O39 2.052 . S
Co33 O41 2.135 . S
O34 Co33 2.061 . S
O34 C37 1.235 . S
C35 O38 1.238 . S
C35 O39 1.241 . S
C36 O29 1.247 . S
C36 O30 1.261 . S
C37 O32 1.259 . S
C37 O34 1.235 . S
O38 Co28 2.021 . S
O38 C35 1.238 . S
O39 Co33 2.052 . S
O39 C35 1.241 . S
O40 Co28 2.137 . S
O40 C31 1.247 . S
O41 Co28 2.244 . S
O41 C31 1.272 . S
O41 Co33 2.135 . S
Co42 O43 2.216 . S
Co42 O44 2.091 . S
Co42 O46 2.004 . S
Co42 O52 2.021 . S
Co42 O54 2.137 . S
Co42 O55 2.244 . S
O43 Co42 2.216 . S
O43 C50 1.247 . S
O44 Co42 2.091 . S
O44 C50 1.261 . S
C45 O54 1.247 . S
C45 O55 1.272 . S
O46 Co42 2.004 . S
O46 C51 1.259 . S
Co47 O48 2.061 . S
Co47 O53 2.052 . S
Co47 O55 2.135 . S
O48 Co47 2.061 . S
O48 C51 1.235 . S
C49 O52 1.238 . S
C49 O53 1.241 . S
C50 O43 1.247 . S
C50 O44 1.261 . S
C51 O46 1.259 . S
C51 O48 1.235 . S
O52 Co42 2.021 . S
O52 C49 1.238 . S
O53 Co47 2.052 . S
O53 C49 1.241 . S
O54 Co42 2.137 . S
O54 C45 1.247 . S
O55 Co42 2.244 . S
O55 C45 1.272 . S
O55 Co47 2.135 . S
Co56 O57 2.216 1_655 S
Co56 O58 2.091 . S
Co56 O60 2.004 . S
Co56 O66 2.021 1_655 S
Co56 O68 2.137 . S
Co56 O69 2.244 1_655 S
O57 Co56 2.216 1_455 S
O57 C64 1.247 1_455 S
O58 Co56 2.091 . S
O58 C64 1.261 . S
C59 O68 1.247 1_455 S
C59 O69 1.272 . S
O60 Co56 2.004 . S
O60 C65 1.259 . S
Co61 O62 2.061 . S
Co61 O67 2.052 . S
Co61 O69 2.135 . S
O62 Co61 2.061 . S
O62 C65 1.235 1_455 S
C63 O66 1.238 . S
C63 O67 1.241 . S
C64 O57 1.247 1_655 S
C64 O58 1.261 . S
C65 O60 1.259 . S
C65 O62 1.235 1_655 S
O66 Co56 2.021 1_455 S
O66 C63 1.238 . S
O67 Co61 2.052 . S
O67 C63 1.241 . S
O68 Co56 2.137 . S
O68 C59 1.247 1_655 S
O69 Co56 2.244 1_455 S
O69 C59 1.272 . S
O69 Co61 2.135 . S
Co70 O71 2.216 . S
Co70 O72 2.091 . S
Co70 O74 2.004 . S
Co70 O80 2.021 . S
Co70 O82 2.137 . S
Co70 O83 2.244 . S
O71 Co70 2.216 . S
O71 C78 1.247 . S
O72 Co70 2.091 . S
O72 C78 1.261 . S
C73 O82 1.247 . S
C73 O83 1.272 . S
O74 Co70 2.004 . S
O74 C79 1.259 . S
Co75 O76 2.061 . S
Co75 O81 2.052 . S
Co75 O83 2.135 . S
O76 Co75 2.061 . S
O76 C79 1.235 . S
C77 O80 1.238 . S
C77 O81 1.241 . S
C78 O71 1.247 . S
C78 O72 1.261 . S
C79 O74 1.259 . S
C79 O76 1.235 . S
O80 Co70 2.021 . S
O80 C77 1.238 . S
O81 Co75 2.052 . S
O81 C77 1.241 . S
O82 Co70 2.137 . S
O82 C73 1.247 . S
O83 Co70 2.244 . S
O83 C73 1.272 . S
O83 Co75 2.135 . S
Co84 O85 2.216 . S
Co84 O86 2.091 . S
Co84 O88 2.004 . S
Co84 O94 2.021 . S
Co84 O96 2.137 . S
Co84 O97 2.244 . S
O85 Co84 2.216 . S
O85 C92 1.247 . S
O86 Co84 2.091 . S
O86 C92 1.261 . S
C87 O96 1.247 . S
C87 O97 1.272 . S
O88 Co84 2.004 . S
O88 C93 1.259 . S
Co89 O90 2.061 . S
Co89 O95 2.052 . S
Co89 O97 2.135 . S
O90 Co89 2.061 . S
O90 C93 1.235 . S
C91 O94 1.238 . S
C91 O95 1.241 . S
C92 O85 1.247 . S
C92 O86 1.261 . S
C93 O88 1.259 . S
C93 O90 1.235 . S
O94 Co84 2.021 . S
O94 C91 1.238 . S
O95 Co89 2.052 . S
O95 C91 1.241 . S
O96 Co84 2.137 . S
O96 C87 1.247 . S
O97 Co84 2.244 . S
O97 C87 1.272 . S
O97 Co89 2.135 . S
Co98 O99 2.216 . S
Co98 O100 2.091 . S
Co98 O102 2.004 1_655 S
Co98 O108 2.021 1_655 S
Co98 O110 2.137 . S
Co98 O111 2.244 . S
O99 Co98 2.216 . S
O99 C106 1.247 . S
O100 Co98 2.091 . S
O100 C106 1.261 . S
C101 O110 1.247 . S
C101 O111 1.272 . S
O102 Co98 2.004 1_455 S
O102 C107 1.259 . S
Co103 O104 2.061 . S
Co103 O109 2.052 . S
Co103 O111 2.135 1_455 S
O104 Co103 2.061 . S
O104 C107 1.235 . S
C105 O108 1.238 . S
C105 O109 1.241 . S
C106 O99 1.247 . S
C106 O100 1.261 . S
C107 O102 1.259 . S
C107 O104 1.235 . S
O108 Co98 2.021 1_455 S
O108 C105 1.238 . S
O109 Co103 2.052 . S
O109 C105 1.241 . S
O110 Co98 2.137 . S
O110 C101 1.247 . S
O111 Co98 2.244 . S
O111 C101 1.272 . S
O111 Co103 2.135 1_655 S
Co112 O113 2.216 1_565 S
Co112 O114 2.091 . S
Co112 O116 2.004 . S
Co112 O122 2.021 1_565 S
Co112 O124 2.137 . S
Co112 O125 2.244 1_565 S
O113 Co112 2.216 1_545 S
O113 C120 1.247 1_545 S
O114 Co112 2.091 . S
O114 C120 1.261 . S
C115 O124 1.247 1_545 S
C115 O125 1.272 . S
O116 Co112 2.004 . S
O116 C121 1.259 . S
Co117 O118 2.061 . S
Co117 O123 2.052 . S
Co117 O125 2.135 . S
O118 Co117 2.061 . S
O118 C121 1.235 1_545 S
C119 O122 1.238 . S
C119 O123 1.241 . S
C120 O113 1.247 1_565 S
C120 O114 1.261 . S
C121 O116 1.259 . S
C121 O118 1.235 1_565 S
O122 Co112 2.021 1_545 S
O122 C119 1.238 . S
O123 Co117 2.052 . S
O123 C119 1.241 . S
O124 Co112 2.137 . S
O124 C115 1.247 1_565 S
O125 Co112 2.244 1_545 S
O125 C115 1.272 . S
O125 Co117 2.135 . S
Co126 O127 2.216 . S
Co126 O128 2.091 . S
Co126 O130 2.004 . S
Co126 O136 2.021 . S
Co126 O138 2.137 . S
Co126 O139 2.244 . S
O127 Co126 2.216 . S
O127 C134 1.247 . S
O128 Co126 2.091 . S
O128 C134 1.261 . S
C129 O138 1.247 . S
C129 O139 1.272 . S
O130 Co126 2.004 . S
O130 C135 1.259 . S
Co131 O132 2.061 . S
Co131 O137 2.052 . S
Co131 O139 2.135 . S
O132 Co131 2.061 . S
O132 C135 1.235 . S
C133 O136 1.238 . S
C133 O137 1.241 . S
C134 O127 1.247 . S
C134 O128 1.261 . S
C135 O130 1.259 . S
C135 O132 1.235 . S
O136 Co126 2.021 . S
O136 C133 1.238 . S
O137 Co131 2.052 . S
O137 C133 1.241 . S
O138 Co126 2.137 . S
O138 C129 1.247 . S
O139 Co126 2.244 . S
O139 C129 1.272 . S
O139 Co131 2.135 . S
Co140 O141 2.216 1_565 S
Co140 O142 2.091 . S
Co140 O144 2.004 . S
Co140 O150 2.021 1_565 S
Co140 O152 2.137 . S
Co140 O153 2.244 1_565 S
O141 Co140 2.216 1_545 S
O141 C148 1.247 1_545 S
O142 Co140 2.091 . S
O142 C148 1.261 . S
C143 O152 1.247 1_545 S
C143 O153 1.272 . S
O144 Co140 2.004 . S
O144 C149 1.259 . S
Co145 O146 2.061 . S
Co145 O151 2.052 . S
Co145 O153 2.135 . S
O146 Co145 2.061 . S
O146 C149 1.235 1_545 S
C147 O150 1.238 . S
C147 O151 1.241 . S
C148 O141 1.247 1_565 S
C148 O142 1.261 . S
C149 O144 1.259 . S
C149 O146 1.235 1_565 S
O150 Co140 2.021 1_545 S
O150 C147 1.238 . S
O151 Co145 2.052 . S
O151 C147 1.241 . S
O152 Co140 2.137 . S
O152 C143 1.247 1_565 S
O153 Co140 2.244 1_545 S
O153 C143 1.272 . S
O153 Co145 2.135 . S
Co154 O155 2.216 . S
Co154 O156 2.091 . S
Co154 O158 2.004 1_554 S
Co154 O164 2.021 1_554 S
Co154 O166 2.137 . S
Co154 O167 2.244 . S
O155 Co154 2.216 . S
O155 C162 1.247 . S
O156 Co154 2.091 . S
O156 C162 1.261 . S
C157 O166 1.247 . S
C157 O167 1.272 . S
O158 Co154 2.004 1_556 S
O158 C163 1.259 . S
Co159 O160 2.061 . S
Co159 O165 2.052 . S
Co159 O167 2.135 1_556 S
O160 Co159 2.061 . S
O160 C163 1.235 . S
C161 O164 1.238 . S
C161 O165 1.241 . S
C162 O155 1.247 . S
C162 O156 1.261 . S
C163 O158 1.259 . S
C163 O160 1.235 . S
O164 Co154 2.021 1_556 S
O164 C161 1.238 . S
O165 Co159 2.052 . S
O165 C161 1.241 . S
O166 Co154 2.137 . S
O166 C157 1.247 . S
O167 Co154 2.244 . S
O167 C157 1.272 . S
O167 Co159 2.135 1_554 S
Co168 O169 2.216 1_556 S
Co168 O170 2.091 . S
Co168 O172 2.004 . S
Co168 O178 2.021 1_556 S
Co168 O180 2.137 . S
Co168 O181 2.244 1_556 S
O169 Co168 2.216 1_554 S
O169 C176 1.247 1_554 S
O170 Co168 2.091 . S
O170 C176 1.261 . S
C171 O180 1.247 1_554 S
C171 O181 1.272 . S
O172 Co168 2.004 . S
O172 C177 1.259 . S
Co173 O174 2.061 . S
Co173 O179 2.052 . S
Co173 O181 2.135 . S
O174 Co173 2.061 . S
O174 C177 1.235 1_554 S
C175 O178 1.238 . S
C175 O179 1.241 . S
C176 O169 1.247 1_556 S
C176 O170 1.261 . S
C177 O172 1.259 . S
C177 O174 1.235 1_556 S
O178 Co168 2.021 1_554 S
O178 C175 1.238 . S
O179 Co173 2.052 . S
O179 C175 1.241 . S
O180 Co168 2.137 . S
O180 C171 1.247 1_556 S
O181 Co168 2.244 1_554 S
O181 C171 1.272 . S
O181 Co173 2.135 . S
Co182 O183 2.216 1_556 S
Co182 O184 2.091 . S
Co182 O186 2.004 . S
Co182 O192 2.021 1_556 S
Co182 O194 2.137 . S
Co182 O195 2.244 1_556 S
O183 Co182 2.216 1_554 S
O183 C190 1.247 1_554 S
O184 Co182 2.091 . S
O184 C190 1.261 . S
C185 O194 1.247 1_554 S
C185 O195 1.272 . S
O186 Co182 2.004 . S
O186 C191 1.259 . S
Co187 O188 2.061 . S
Co187 O193 2.052 . S
Co187 O195 2.135 . S
O188 Co187 2.061 . S
O188 C191 1.235 1_554 S
C189 O192 1.238 . S
C189 O193 1.241 . S
C190 O183 1.247 1_556 S
C190 O184 1.261 . S
C191 O186 1.259 . S
C191 O188 1.235 1_556 S
O192 Co182 2.021 1_554 S
O192 C189 1.238 . S
O193 Co187 2.052 . S
O193 C189 1.241 . S
O194 Co182 2.137 . S
O194 C185 1.247 1_556 S
O195 Co182 2.244 1_554 S
O195 C185 1.272 . S
O195 Co187 2.135 . S
Co196 O197 2.216 . S
Co196 O198 2.091 . S
Co196 O200 2.004 . S
Co196 O206 2.021 . S
Co196 O208 2.137 . S
Co196 O209 2.244 . S
O197 Co196 2.216 . S
O197 C204 1.247 . S
O198 Co196 2.091 . S
O198 C204 1.261 . S
C199 O208 1.247 . S
C199 O209 1.272 . S
O200 Co196 2.004 . S
O200 C205 1.259 . S
Co201 O202 2.061 . S
Co201 O207 2.052 . S
Co201 O209 2.135 . S
O202 Co201 2.061 . S
O202 C205 1.235 . S
C203 O206 1.238 . S
C203 O207 1.241 . S
C204 O197 1.247 . S
C204 O198 1.261 . S
C205 O200 1.259 . S
C205 O202 1.235 . S
O206 Co196 2.021 . S
O206 C203 1.238 . S
O207 Co201 2.052 . S
O207 C203 1.241 . S
O208 Co196 2.137 . S
O208 C199 1.247 . S
O209 Co196 2.244 . S
O209 C199 1.272 . S
O209 Co201 2.135 . S
Co210 O211 2.216 . S
Co210 O212 2.091 . S
Co210 O214 2.004 . S
Co210 O220 2.021 . S
Co210 O222 2.137 . S
Co210 O223 2.244 . S
O211 Co210 2.216 . S
O211 C218 1.247 . S
O212 Co210 2.091 . S
O212 C218 1.261 . S
C213 O222 1.247 . S
C213 O223 1.272 . S
O214 Co210 2.004 . S
O214 C219 1.259 . S
Co215 O216 2.061 . S
Co215 O221 2.052 . S
Co215 O223 2.135 . S
O216 Co215 2.061 . S
O216 C219 1.235 . S
C217 O220 1.238 . S
C217 O221 1.241 . S
C218 O211 1.247 . S
C218 O212 1.261 . S
C219 O214 1.259 . S
C219 O216 1.235 . S
O220 Co210 2.021 . S
O220 C217 1.238 . S
O221 Co215 2.052 . S
O221 C217 1.241 . S
O222 Co210 2.137 . S
O222 C213 1.247 . S
O223 Co210 2.244 . S
O223 C213 1.272 . S
O223 Co215 2.135 . S
Co224 O225 2.216 1_545 S
Co224 O226 2.091 1_545 S
Co224 O228 2.004 . S
Co224 O234 2.021 . S
Co224 O236 2.137 1_545 S
Co224 O237 2.244 1_545 S
O225 Co224 2.216 1_565 S
O225 C232 1.247 . S
O226 Co224 2.091 1_565 S
O226 C232 1.261 . S
C227 O236 1.247 . S
C227 O237 1.272 . S
O228 Co224 2.004 . S
O228 C233 1.259 . S
Co229 O230 2.061 . S
Co229 O235 2.052 . S
Co229 O237 2.135 1_545 S
O230 Co229 2.061 . S
O230 C233 1.235 . S
C231 O234 1.238 . S
C231 O235 1.241 . S
C232 O225 1.247 . S
C232 O226 1.261 . S
C233 O228 1.259 . S
C233 O230 1.235 . S
O234 Co224 2.021 . S
O234 C231 1.238 . S
O235 Co229 2.052 . S
O235 C231 1.241 . S
O236 Co224 2.137 1_565 S
O236 C227 1.247 . S
O237 Co224 2.244 1_565 S
O237 C227 1.272 . S
O237 Co229 2.135 1_565 S
Co238 O239 2.216 . S
Co238 O240 2.091 . S
Co238 O242 2.004 . S
Co238 O248 2.021 . S
Co238 O250 2.137 . S
Co238 O251 2.244 . S
O239 Co238 2.216 . S
O239 C246 1.247 . S
O240 Co238 2.091 . S
O240 C246 1.261 . S
C241 O250 1.247 . S
C241 O251 1.272 . S
O242 Co238 2.004 . S
O242 C247 1.259 . S
Co243 O244 2.061 . S
Co243 O249 2.052 . S
Co243 O251 2.135 . S
O244 Co243 2.061 . S
O244 C247 1.235 . S
C245 O248 1.238 . S
C245 O249 1.241 . S
C246 O239 1.247 . S
C246 O240 1.261 . S
C247 O242 1.259 . S
C247 O244 1.235 . S
O248 Co238 2.021 . S
O248 C245 1.238 . S
O249 Co243 2.052 . S
O249 C245 1.241 . S
O250 Co238 2.137 . S
O250 C241 1.247 . S
O251 Co238 2.244 . S
O251 C241 1.272 . S
O251 Co243 2.135 . S
Co252 O253 2.216 . S
Co252 O254 2.091 . S
Co252 O256 2.004 . S
Co252 O262 2.021 . S
Co252 O264 2.137 . S
Co252 O265 2.244 . S
O253 Co252 2.216 . S
O253 C260 1.247 . S
O254 Co252 2.091 . S
O254 C260 1.261 . S
C255 O264 1.247 . S
C255 O265 1.272 . S
O256 Co252 2.004 . S
O256 C261 1.259 . S
Co257 O258 2.061 . S
Co257 O263 2.052 . S
Co257 O265 2.135 . S
O258 Co257 2.061 . S
O258 C261 1.235 . S
C259 O262 1.238 . S
C259 O263 1.241 . S
C260 O253 1.247 . S
C260 O254 1.261 . S
C261 O256 1.259 . S
C261 O258 1.235 . S
O262 Co252 2.021 . S
O262 C259 1.238 . S
O263 Co257 2.052 . S
O263 C259 1.241 . S
O264 Co252 2.137 . S
O264 C255 1.247 . S
O265 Co252 2.244 . S
O265 C255 1.272 . S
O265 Co257 2.135 . S
Co266 O267 2.216 . S
Co266 O268 2.091 . S
Co266 O270 2.004 1_565 S
Co266 O276 2.021 1_565 S
Co266 O278 2.137 . S
Co266 O279 2.244 . S
O267 Co266 2.216 . S
O267 C274 1.247 . S
O268 Co266 2.091 . S
O268 C274 1.261 . S
C269 O278 1.247 . S
C269 O279 1.272 . S
O270 Co266 2.004 1_545 S
O270 C275 1.259 . S
Co271 O272 2.061 . S
Co271 O277 2.052 . S
Co271 O279 2.135 1_545 S
O272 Co271 2.061 . S
O272 C275 1.235 . S
C273 O276 1.238 . S
C273 O277 1.241 . S
C274 O267 1.247 . S
C274 O268 1.261 . S
C275 O270 1.259 . S
C275 O272 1.235 . S
O276 Co266 2.021 1_545 S
O276 C273 1.238 . S
O277 Co271 2.052 . S
O277 C273 1.241 . S
O278 Co266 2.137 . S
O278 C269 1.247 . S
O279 Co266 2.244 . S
O279 C269 1.272 . S
O279 Co271 2.135 1_565 S
Co280 O281 2.216 . S
Co280 O282 2.091 . S
Co280 O284 2.004 1_554 S
Co280 O290 2.021 1_554 S
Co280 O292 2.137 . S
Co280 O293 2.244 . S
O281 Co280 2.216 . S
O281 C288 1.247 . S
O282 Co280 2.091 . S
O282 C288 1.261 . S
C283 O292 1.247 . S
C283 O293 1.272 . S
O284 Co280 2.004 1_556 S
O284 C289 1.259 . S
Co285 O286 2.061 . S
Co285 O291 2.052 . S
Co285 O293 2.135 1_556 S
O286 Co285 2.061 . S
O286 C289 1.235 . S
C287 O290 1.238 . S
C287 O291 1.241 . S
C288 O281 1.247 . S
C288 O282 1.261 . S
C289 O284 1.259 . S
C289 O286 1.235 . S
O290 Co280 2.021 1_556 S
O290 C287 1.238 . S
O291 Co285 2.052 . S
O291 C287 1.241 . S
O292 Co280 2.137 . S
O292 C283 1.247 . S
O293 Co280 2.244 . S
O293 C283 1.272 . S
O293 Co285 2.135 1_554 S
Co294 O295 2.216 . S
Co294 O296 2.091 . S
Co294 O298 2.004 . S
Co294 O304 2.021 . S
Co294 O306 2.137 . S
Co294 O307 2.244 . S
O295 Co294 2.216 . S
O295 C302 1.247 . S
O296 Co294 2.091 . S
O296 C302 1.261 . S
C297 O306 1.247 . S
C297 O307 1.272 . S
O298 Co294 2.004 . S
O298 C303 1.259 . S
Co299 O300 2.061 . S
Co299 O305 2.052 . S
Co299 O307 2.135 . S
O300 Co299 2.061 . S
O300 C303 1.235 . S
C301 O304 1.238 . S
C301 O305 1.241 . S
C302 O295 1.247 . S
C302 O296 1.261 . S
C303 O298 1.259 . S
C303 O300 1.235 . S
O304 Co294 2.021 . S
O304 C301 1.238 . S
O305 Co299 2.052 . S
O305 C301 1.241 . S
O306 Co294 2.137 . S
O306 C297 1.247 . S
O307 Co294 2.244 . S
O307 C297 1.272 . S
O307 Co299 2.135 . S
Co308 O309 2.216 . S
Co308 O310 2.091 . S
Co308 O312 2.004 . S
Co308 O318 2.021 . S
Co308 O320 2.137 . S
Co308 O321 2.244 . S
O309 Co308 2.216 . S
O309 C316 1.247 . S
O310 Co308 2.091 . S
O310 C316 1.261 . S
C311 O320 1.247 . S
C311 O321 1.272 . S
O312 Co308 2.004 . S
O312 C317 1.259 . S
Co313 O314 2.061 . S
Co313 O319 2.052 . S
Co313 O321 2.135 . S
O314 Co313 2.061 . S
O314 C317 1.235 . S
C315 O318 1.238 . S
C315 O319 1.241 . S
C316 O309 1.247 . S
C316 O310 1.261 . S
C317 O312 1.259 . S
C317 O314 1.235 . S
O318 Co308 2.021 . S
O318 C315 1.238 . S
O319 Co313 2.052 . S
O319 C315 1.241 . S
O320 Co308 2.137 . S
O320 C311 1.247 . S
O321 Co308 2.244 . S
O321 C311 1.272 . S
O321 Co313 2.135 . S
Co322 O323 2.216 . S
Co322 O324 2.091 . S
Co322 O326 2.004 . S
Co322 O332 2.021 . S
Co322 O334 2.137 . S
Co322 O335 2.244 . S
O323 Co322 2.216 . S
O323 C330 1.247 . S
O324 Co322 2.091 . S
O324 C330 1.261 . S
C325 O334 1.247 . S
C325 O335 1.272 . S
O326 Co322 2.004 . S
O326 C331 1.259 . S
Co327 O328 2.061 . S
Co327 O333 2.052 . S
Co327 O335 2.135 . S
O328 Co327 2.061 . S
O328 C331 1.235 . S
C329 O332 1.238 . S
C329 O333 1.241 . S
C330 O323 1.247 . S
C330 O324 1.261 . S
C331 O326 1.259 . S
C331 O328 1.235 . S
O332 Co322 2.021 . S
O332 C329 1.238 . S
O333 Co327 2.052 . S
O333 C329 1.241 . S
O334 Co322 2.137 . S
O334 C325 1.247 . S
O335 Co322 2.244 . S
O335 C325 1.272 . S
O335 Co327 2.135 . S
Fe336 O338 1.918 . S
Fe336 O341 1.997 . S
Fe336 O342 2.002 . S
Fe336 O347 1.976 . S
Fe336 O350 1.996 . S
Fe337 O338 1.918 . S
Fe337 O345 1.997 . S
Fe337 O348 1.996 . S
Fe337 O352 1.976 . S
Fe337 O355 2.002 . S
O338 Fe336 1.918 . S
O338 Fe337 1.918 . S
O338 Fe339 1.918 . S
Fe339 O338 1.918 . S
Fe339 O340 2.002 . S
Fe339 O349 1.976 . S
Fe339 O353 1.996 . S
Fe339 O356 1.997 . S
O340 Fe339 2.002 . S
O340 C357 1.295 . S
O341 Fe336 1.997 . S
O341 C357 1.235 . S
O342 Fe336 2.002 . S
O342 C343 1.295 . S
C343 O342 1.295 . S
C343 O345 1.235 . S
C344 O349 1.287 . S
C344 O350 1.255 . S
O345 Fe337 1.997 . S
O345 C343 1.235 . S
C346 O352 1.287 . S
C346 O353 1.255 . S
O347 Fe336 1.976 . S
O347 C354 1.287 . S
O348 Fe337 1.996 . S
O348 C354 1.255 . S
O349 Fe339 1.976 . S
O349 C344 1.287 . S
O350 Fe336 1.996 . S
O350 C344 1.255 . S
C351 O355 1.295 . S
C351 O356 1.235 . S
O352 Fe337 1.976 . S
O352 C346 1.287 . S
O353 Fe339 1.996 . S
O353 C346 1.255 . S
C354 O347 1.287 . S
C354 O348 1.255 . S
O355 Fe337 2.002 . S
O355 C351 1.295 . S
O356 Fe339 1.997 . S
O356 C351 1.235 . S
C357 O340 1.295 . S
C357 O341 1.235 . S
Fe358 O360 1.918 . S
Fe358 O363 1.997 . S
Fe358 O364 2.002 . S
Fe358 O369 1.976 . S
Fe358 O372 1.996 . S
Fe359 O360 1.918 . S
Fe359 O367 1.997 . S
Fe359 O370 1.996 . S
Fe359 O374 1.976 . S
Fe359 O377 2.002 . S
O360 Fe358 1.918 . S
O360 Fe359 1.918 . S
O360 Fe361 1.918 . S
Fe361 O360 1.918 . S
Fe361 O362 2.002 . S
Fe361 O371 1.976 . S
Fe361 O375 1.996 . S
Fe361 O378 1.997 . S
O362 Fe361 2.002 . S
O362 C379 1.295 . S
O363 Fe358 1.997 . S
O363 C379 1.235 . S
O364 Fe358 2.002 . S
O364 C365 1.295 . S
C365 O364 1.295 . S
C365 O367 1.235 . S
C366 O371 1.287 . S
C366 O372 1.255 . S
O367 Fe359 1.997 . S
O367 C365 1.235 . S
C368 O374 1.287 . S
C368 O375 1.255 . S
O369 Fe358 1.976 . S
O369 C376 1.287 . S
O370 Fe359 1.996 . S
O370 C376 1.255 . S
O371 Fe361 1.976 . S
O371 C366 1.287 . S
O372 Fe358 1.996 . S
O372 C366 1.255 . S
C373 O377 1.295 . S
C373 O378 1.235 . S
O374 Fe359 1.976 . S
O374 C368 1.287 . S
O375 Fe361 1.996 . S
O375 C368 1.255 . S
C376 O369 1.287 . S
C376 O370 1.255 . S
O377 Fe359 2.002 . S
O377 C373 1.295 . S
O378 Fe361 1.997 . S
O378 C373 1.235 . S
C379 O362 1.295 . S
C379 O363 1.235 . S
Fe380 O382 1.918 . S
Fe380 O385 1.997 . S
Fe380 O386 2.002 . S
Fe380 O391 1.976 . S
Fe380 O394 1.996 . S
Fe381 O382 1.918 . S
Fe381 O389 1.997 . S
Fe381 O392 1.996 . S
Fe381 O396 1.976 . S
Fe381 O399 2.002 . S
O382 Fe380 1.918 . S
O382 Fe381 1.918 . S
O382 Fe383 1.918 . S
Fe383 O382 1.918 . S
Fe383 O384 2.002 . S
Fe383 O393 1.976 . S
Fe383 O397 1.996 . S
Fe383 O400 1.997 . S
O384 Fe383 2.002 . S
O384 C401 1.295 . S
O385 Fe380 1.997 . S
O385 C401 1.235 . S
O386 Fe380 2.002 . S
O386 C387 1.295 . S
C387 O386 1.295 . S
C387 O389 1.235 . S
C388 O393 1.287 . S
C388 O394 1.255 . S
O389 Fe381 1.997 . S
O389 C387 1.235 . S
C390 O396 1.287 . S
C390 O397 1.255 . S
O391 Fe380 1.976 . S
O391 C398 1.287 . S
O392 Fe381 1.996 . S
O392 C398 1.255 . S
O393 Fe383 1.976 . S
O393 C388 1.287 . S
O394 Fe380 1.996 . S
O394 C388 1.255 . S
C395 O399 1.295 . S
C395 O400 1.235 . S
O396 Fe381 1.976 . S
O396 C390 1.287 . S
O397 Fe383 1.996 . S
O397 C390 1.255 . S
C398 O391 1.287 . S
C398 O392 1.255 . S
O399 Fe381 2.002 . S
O399 C395 1.295 . S
O400 Fe383 1.997 . S
O400 C395 1.235 . S
C401 O384 1.295 . S
C401 O385 1.235 . S
Fe402 O404 1.918 . S
Fe402 O407 1.997 . S
Fe402 O408 2.002 . S
Fe402 O413 1.976 . S
Fe402 O416 1.996 . S
Fe403 O404 1.918 . S
Fe403 O411 1.997 . S
Fe403 O414 1.996 . S
Fe403 O418 1.976 . S
Fe403 O421 2.002 . S
O404 Fe402 1.918 . S
O404 Fe403 1.918 . S
O404 Fe405 1.918 . S
Fe405 O404 1.918 . S
Fe405 O406 2.002 . S
Fe405 O415 1.976 . S
Fe405 O419 1.996 . S
Fe405 O422 1.997 . S
O406 Fe405 2.002 . S
O406 C423 1.295 . S
O407 Fe402 1.997 . S
O407 C423 1.235 . S
O408 Fe402 2.002 . S
O408 C409 1.295 . S
C409 O408 1.295 . S
C409 O411 1.235 . S
C410 O415 1.287 . S
C410 O416 1.255 . S
O411 Fe403 1.997 . S
O411 C409 1.235 . S
C412 O418 1.287 . S
C412 O419 1.255 . S
O413 Fe402 1.976 . S
O413 C420 1.287 . S
O414 Fe403 1.996 . S
O414 C420 1.255 . S
O415 Fe405 1.976 . S
O415 C410 1.287 . S
O416 Fe402 1.996 . S
O416 C410 1.255 . S
C417 O421 1.295 . S
C417 O422 1.235 . S
O418 Fe403 1.976 . S
O418 C412 1.287 . S
O419 Fe405 1.996 . S
O419 C412 1.255 . S
C420 O413 1.287 . S
C420 O414 1.255 . S
O421 Fe403 2.002 . S
O421 C417 1.295 . S
O422 Fe405 1.997 . S
O422 C417 1.235 . S
C423 O406 1.295 . S
C423 O407 1.235 . S
Fe424 O426 1.918 . S
Fe424 O429 1.997 . S
Fe424 O430 2.002 . S
Fe424 O435 1.976 . S
Fe424 O438 1.996 . S
Fe425 O426 1.918 . S
Fe425 O433 1.997 . S
Fe425 O436 1.996 . S
Fe425 O440 1.976 . S
Fe425 O443 2.002 . S
O426 Fe424 1.918 . S
O426 Fe425 1.918 . S
O426 Fe427 1.918 . S
Fe427 O426 1.918 . S
Fe427 O428 2.002 . S
Fe427 O437 1.976 . S
Fe427 O441 1.996 . S
Fe427 O444 1.997 . S
O428 Fe427 2.002 . S
O428 C445 1.295 . S
O429 Fe424 1.997 . S
O429 C445 1.235 . S
O430 Fe424 2.002 . S
O430 C431 1.295 . S
C431 O430 1.295 . S
C431 O433 1.235 . S
C432 O437 1.287 . S
C432 O438 1.255 . S
O433 Fe425 1.997 . S
O433 C431 1.235 . S
C434 O440 1.287 . S
C434 O441 1.255 . S
O435 Fe424 1.976 . S
O435 C442 1.287 . S
O436 Fe425 1.996 . S
O436 C442 1.255 . S
O437 Fe427 1.976 . S
O437 C432 1.287 . S
O438 Fe424 1.996 . S
O438 C432 1.255 . S
C439 O443 1.295 . S
C439 O444 1.235 . S
O440 Fe425 1.976 . S
O440 C434 1.287 . S
O441 Fe427 1.996 . S
O441 C434 1.255 . S
C442 O435 1.287 . S
C442 O436 1.255 . S
O443 Fe425 2.002 . S
O443 C439 1.295 . S
O444 Fe427 1.997 . S
O444 C439 1.235 . S
C445 O428 1.295 . S
C445 O429 1.235 . S
Fe446 O448 1.918 . S
Fe446 O451 1.997 . S
Fe446 O452 2.002 . S
Fe446 O457 1.976 . S
Fe446 O460 1.996 . S
Fe447 O448 1.918 . S
Fe447 O455 1.997 . S
Fe447 O458 1.996 . S
Fe447 O462 1.976 . S
Fe447 O465 2.002 . S
O448 Fe446 1.918 . S
O448 Fe447 1.918 . S
O448 Fe449 1.918 . S
Fe449 O448 1.918 . S
Fe449 O450 2.002 . S
Fe449 O459 1.976 . S
Fe449 O463 1.996 . S
Fe449 O466 1.997 . S
O450 Fe449 2.002 . S
O450 C467 1.295 . S
O451 Fe446 1.997 . S
O451 C467 1.235 . S
O452 Fe446 2.002 . S
O452 C453 1.295 . S
C453 O452 1.295 . S
C453 O455 1.235 . S
C454 O459 1.287 . S
C454 O460 1.255 . S
O455 Fe447 1.997 . S
O455 C453 1.235 . S
C456 O462 1.287 . S
C456 O463 1.255 . S
O457 Fe446 1.976 . S
O457 C464 1.287 . S
O458 Fe447 1.996 . S
O458 C464 1.255 . S
O459 Fe449 1.976 . S
O459 C454 1.287 . S
O460 Fe446 1.996 . S
O460 C454 1.255 . S
C461 O465 1.295 . S
C461 O466 1.235 . S
O462 Fe447 1.976 . S
O462 C456 1.287 . S
O463 Fe449 1.996 . S
O463 C456 1.255 . S
C464 O457 1.287 . S
C464 O458 1.255 . S
O465 Fe447 2.002 . S
O465 C461 1.295 . S
O466 Fe449 1.997 . S
O466 C461 1.235 . S
C467 O450 1.295 . S
C467 O451 1.235 . S
Fe468 O470 1.918 . S
Fe468 O473 1.997 . S
Fe468 O474 2.002 . S
Fe468 O479 1.976 . S
Fe468 O482 1.996 . S
Fe469 O470 1.918 . S
Fe469 O477 1.997 . S
Fe469 O480 1.996 . S
Fe469 O484 1.976 . S
Fe469 O487 2.002 . S
O470 Fe468 1.918 . S
O470 Fe469 1.918 . S
O470 Fe471 1.918 . S
Fe471 O470 1.918 . S
Fe471 O472 2.002 . S
Fe471 O481 1.976 . S
Fe471 O485 1.996 . S
Fe471 O488 1.997 . S
O472 Fe471 2.002 . S
O472 C489 1.295 . S
O473 Fe468 1.997 . S
O473 C489 1.235 . S
O474 Fe468 2.002 . S
O474 C475 1.295 . S
C475 O474 1.295 . S
C475 O477 1.235 . S
C476 O481 1.287 . S
C476 O482 1.255 . S
O477 Fe469 1.997 . S
O477 C475 1.235 . S
C478 O484 1.287 . S
C478 O485 1.255 . S
O479 Fe468 1.976 . S
O479 C486 1.287 . S
O480 Fe469 1.996 . S
O480 C486 1.255 . S
O481 Fe471 1.976 . S
O481 C476 1.287 . S
O482 Fe468 1.996 . S
O482 C476 1.255 . S
C483 O487 1.295 . S
C483 O488 1.235 . S
O484 Fe469 1.976 . S
O484 C478 1.287 . S
O485 Fe471 1.996 . S
O485 C478 1.255 . S
C486 O479 1.287 . S
C486 O480 1.255 . S
O487 Fe469 2.002 . S
O487 C483 1.295 . S
O488 Fe471 1.997 . S
O488 C483 1.235 . S
C489 O472 1.295 . S
C489 O473 1.235 . S
Fe490 O492 1.918 . S
Fe490 O495 1.997 . S
Fe490 O496 2.002 . S
Fe490 O501 1.976 . S
Fe490 O504 1.996 . S
Fe491 O492 1.918 . S
Fe491 O499 1.997 . S
Fe491 O502 1.996 . S
Fe491 O506 1.976 . S
Fe491 O509 2.002 . S
O492 Fe490 1.918 . S
O492 Fe491 1.918 . S
O492 Fe493 1.918 . S
Fe493 O492 1.918 . S
Fe493 O494 2.002 . S
Fe493 O503 1.976 . S
Fe493 O507 1.996 . S
Fe493 O510 1.997 . S
O494 Fe493 2.002 . S
O494 C511 1.295 . S
O495 Fe490 1.997 . S
O495 C511 1.235 . S
O496 Fe490 2.002 . S
O496 C497 1.295 . S
C497 O496 1.295 . S
C497 O499 1.235 . S
C498 O503 1.287 . S
C498 O504 1.255 . S
O499 Fe491 1.997 . S
O499 C497 1.235 . S
C500 O506 1.287 . S
C500 O507 1.255 . S
O501 Fe490 1.976 . S
O501 C508 1.287 . S
O502 Fe491 1.996 . S
O502 C508 1.255 . S
O503 Fe493 1.976 . S
O503 C498 1.287 . S
O504 Fe490 1.996 . S
O504 C498 1.255 . S
C505 O509 1.295 . S
C505 O510 1.235 . S
O506 Fe491 1.976 . S
O506 C500 1.287 . S
O507 Fe493 1.996 . S
O507 C500 1.255 . S
C508 O501 1.287 . S
C508 O502 1.255 . S
O509 Fe491 2.002 . S
O509 C505 1.295 . S
O510 Fe493 1.997 . S
O510 C505 1.235 . S
C511 O494 1.295 . S
C511 O495 1.235 . S
Fe512 O514 1.918 . S
Fe512 O517 1.997 . S
Fe512 O518 2.002 . S
Fe512 O523 1.976 . S
Fe512 O526 1.996 . S
Fe513 O514 1.918 . S
Fe513 O521 1.997 . S
Fe513 O524 1.996 . S
Fe513 O528 1.976 . S
Fe513 O531 2.002 . S
O514 Fe512 1.918 . S
O514 Fe513 1.918 . S
O514 Fe515 1.918 . S
Fe515 O514 1.918 . S
Fe515 O516 2.002 . S
Fe515 O525 1.976 . S
Fe515 O529 1.996 . S
Fe515 O532 1.997 . S
O516 Fe515 2.002 . S
O516 C533 1.295 . S
O517 Fe512 1.997 . S
O517 C533 1.235 . S
O518 Fe512 2.002 . S
O518 C519 1.295 . S
C519 O518 1.295 . S
C519 O521 1.235 . S
C520 O525 1.287 . S
C520 O526 1.255 . S
O521 Fe513 1.997 . S
O521 C519 1.235 . S
C522 O528 1.287 . S
C522 O529 1.255 . S
O523 Fe512 1.976 . S
O523 C530 1.287 . S
O524 Fe513 1.996 . S
O524 C530 1.255 . S
O525 Fe515 1.976 . S
O525 C520 1.287 . S
O526 Fe512 1.996 . S
O526 C520 1.255 . S
C527 O531 1.295 . S
C527 O532 1.235 . S
O528 Fe513 1.976 . S
O528 C522 1.287 . S
O529 Fe515 1.996 . S
O529 C522 1.255 . S
C530 O523 1.287 . S
C530 O524 1.255 . S
O531 Fe513 2.002 . S
O531 C527 1.295 . S
O532 Fe515 1.997 . S
O532 C527 1.235 . S
C533 O516 1.295 . S
C533 O517 1.235 . S
Fe534 O536 1.918 . S
Fe534 O539 1.997 . S
Fe534 O540 2.002 . S
Fe534 O545 1.976 . S
Fe534 O548 1.996 . S
Fe535 O536 1.918 . S
Fe535 O543 1.997 . S
Fe535 O546 1.996 . S
Fe535 O550 1.976 . S
Fe535 O553 2.002 . S
O536 Fe534 1.918 . S
O536 Fe535 1.918 . S
O536 Fe537 1.918 . S
Fe537 O536 1.918 . S
Fe537 O538 2.002 . S
Fe537 O547 1.976 . S
Fe537 O551 1.996 . S
Fe537 O554 1.997 . S
O538 Fe537 2.002 . S
O538 C555 1.295 . S
O539 Fe534 1.997 . S
O539 C555 1.235 . S
O540 Fe534 2.002 . S
O540 C541 1.295 . S
C541 O540 1.295 . S
C541 O543 1.235 . S
C542 O547 1.287 . S
C542 O548 1.255 . S
O543 Fe535 1.997 . S
O543 C541 1.235 . S
C544 O550 1.287 . S
C544 O551 1.255 . S
O545 Fe534 1.976 . S
O545 C552 1.287 . S
O546 Fe535 1.996 . S
O546 C552 1.255 . S
O547 Fe537 1.976 . S
O547 C542 1.287 . S
O548 Fe534 1.996 . S
O548 C542 1.255 . S
C549 O553 1.295 . S
C549 O554 1.235 . S
O550 Fe535 1.976 . S
O550 C544 1.287 . S
O551 Fe537 1.996 . S
O551 C544 1.255 . S
C552 O545 1.287 . S
C552 O546 1.255 . S
O553 Fe535 2.002 . S
O553 C549 1.295 . S
O554 Fe537 1.997 . S
O554 C549 1.235 . S
C555 O538 1.295 . S
C555 O539 1.235 . S
Fe556 O558 1.918 . S
Fe556 O561 1.997 . S
Fe556 O562 2.002 . S
Fe556 O567 1.976 . S
Fe556 O570 1.996 . S
Fe557 O558 1.918 . S
Fe557 O565 1.997 . S
Fe557 O568 1.996 . S
Fe557 O572 1.976 . S
Fe557 O575 2.002 . S
O558 Fe556 1.918 . S
O558 Fe557 1.918 . S
O558 Fe559 1.918 . S
Fe559 O558 1.918 . S
Fe559 O560 2.002 . S
Fe559 O569 1.976 . S
Fe559 O573 1.996 . S
Fe559 O576 1.997 . S
O560 Fe559 2.002 . S
O560 C577 1.295 . S
O561 Fe556 1.997 . S
O561 C577 1.235 . S
O562 Fe556 2.002 . S
O562 C563 1.295 . S
C563 O562 1.295 . S
C563 O565 1.235 . S
C564 O569 1.287 . S
C564 O570 1.255 . S
O565 Fe557 1.997 . S
O565 C563 1.235 . S
C566 O572 1.287 . S
C566 O573 1.255 . S
O567 Fe556 1.976 . S
O567 C574 1.287 . S
O568 Fe557 1.996 . S
O568 C574 1.255 . S
O569 Fe559 1.976 . S
O569 C564 1.287 . S
O570 Fe556 1.996 . S
O570 C564 1.255 . S
C571 O575 1.295 . S
C571 O576 1.235 . S
O572 Fe557 1.976 . S
O572 C566 1.287 . S
O573 Fe559 1.996 . S
O573 C566 1.255 . S
C574 O567 1.287 . S
C574 O568 1.255 . S
O575 Fe557 2.002 . S
O575 C571 1.295 . S
O576 Fe559 1.997 . S
O576 C571 1.235 . S
C577 O560 1.295 . S
C577 O561 1.235 . S
Fe578 O580 1.918 . S
Fe578 O583 1.997 . S
Fe578 O584 2.002 . S
Fe578 O589 1.976 . S
Fe578 O592 1.996 . S
Fe579 O580 1.918 . S
Fe579 O587 1.997 . S
Fe579 O590 1.996 . S
Fe579 O594 1.976 . S
Fe579 O597 2.002 . S
O580 Fe578 1.918 . S
O580 Fe579 1.918 . S
O580 Fe581 1.918 . S
Fe581 O580 1.918 . S
Fe581 O582 2.002 . S
Fe581 O591 1.976 . S
Fe581 O595 1.996 . S
Fe581 O598 1.997 . S
O582 Fe581 2.002 . S
O582 C599 1.295 . S
O583 Fe578 1.997 . S
O583 C599 1.235 . S
O584 Fe578 2.002 . S
O584 C585 1.295 . S
C585 O584 1.295 . S
C585 O587 1.235 . S
C586 O591 1.287 . S
C586 O592 1.255 . S
O587 Fe579 1.997 . S
O587 C585 1.235 . S
C588 O594 1.287 . S
C588 O595 1.255 . S
O589 Fe578 1.976 . S
O589 C596 1.287 . S
O590 Fe579 1.996 . S
O590 C596 1.255 . S
O591 Fe581 1.976 . S
O591 C586 1.287 . S
O592 Fe578 1.996 . S
O592 C586 1.255 . S
C593 O597 1.295 . S
C593 O598 1.235 . S
O594 Fe579 1.976 . S
O594 C588 1.287 . S
O595 Fe581 1.996 . S
O595 C588 1.255 . S
C596 O589 1.287 . S
C596 O590 1.255 . S
O597 Fe579 2.002 . S
O597 C593 1.295 . S
O598 Fe581 1.997 . S
O598 C593 1.235 . S
C599 O582 1.295 . S
C599 O583 1.235 . S
Fe600 O602 1.918 . S
Fe600 O605 1.997 . S
Fe600 O606 2.002 . S
Fe600 O611 1.976 . S
Fe600 O614 1.996 . S
Fe601 O602 1.918 . S
Fe601 O609 1.997 . S
Fe601 O612 1.996 . S
Fe601 O616 1.976 . S
Fe601 O619 2.002 . S
O602 Fe600 1.918 . S
O602 Fe601 1.918 . S
O602 Fe603 1.918 . S
Fe603 O602 1.918 . S
Fe603 O604 2.002 . S
Fe603 O613 1.976 . S
Fe603 O617 1.996 . S
Fe603 O620 1.997 . S
O604 Fe603 2.002 . S
O604 C621 1.295 . S
O605 Fe600 1.997 . S
O605 C621 1.235 . S
O606 Fe600 2.002 . S
O606 C607 1.295 . S
C607 O606 1.295 . S
C607 O609 1.235 . S
C608 O613 1.287 . S
C608 O614 1.255 . S
O609 Fe601 1.997 . S
O609 C607 1.235 . S
C610 O616 1.287 . S
C610 O617 1.255 . S
O611 Fe600 1.976 . S
O611 C618 1.287 . S
O612 Fe601 1.996 . S
O612 C618 1.255 . S
O613 Fe603 1.976 . S
O613 C608 1.287 . S
O614 Fe600 1.996 . S
O614 C608 1.255 . S
C615 O619 1.295 . S
C615 O620 1.235 . S
O616 Fe601 1.976 . S
O616 C610 1.287 . S
O617 Fe603 1.996 . S
O617 C610 1.255 . S
C618 O611 1.287 . S
C618 O612 1.255 . S
O619 Fe601 2.002 . S
O619 C615 1.295 . S
O620 Fe603 1.997 . S
O620 C615 1.235 . S
C621 O604 1.295 . S
C621 O605 1.235 . S
Fe622 O624 1.918 . S
Fe622 O627 1.997 . S
Fe622 O628 2.002 . S
Fe622 O633 1.976 . S
Fe622 O636 1.996 . S
Fe623 O624 1.918 . S
Fe623 O631 1.997 . S
Fe623 O634 1.996 . S
Fe623 O638 1.976 . S
Fe623 O641 2.002 . S
O624 Fe622 1.918 . S
O624 Fe623 1.918 . S
O624 Fe625 1.918 . S
Fe625 O624 1.918 . S
Fe625 O626 2.002 . S
Fe625 O635 1.976 . S
Fe625 O639 1.996 . S
Fe625 O642 1.997 . S
O626 Fe625 2.002 . S
O626 C643 1.295 . S
O627 Fe622 1.997 . S
O627 C643 1.235 . S
O628 Fe622 2.002 . S
O628 C629 1.295 . S
C629 O628 1.295 . S
C629 O631 1.235 . S
C630 O635 1.287 . S
C630 O636 1.255 . S
O631 Fe623 1.997 . S
O631 C629 1.235 . S
C632 O638 1.287 . S
C632 O639 1.255 . S
O633 Fe622 1.976 . S
O633 C640 1.287 . S
O634 Fe623 1.996 . S
O634 C640 1.255 . S
O635 Fe625 1.976 . S
O635 C630 1.287 . S
O636 Fe622 1.996 . S
O636 C630 1.255 . S
C637 O641 1.295 . S
C637 O642 1.235 . S
O638 Fe623 1.976 . S
O638 C632 1.287 . S
O639 Fe625 1.996 . S
O639 C632 1.255 . S
C640 O633 1.287 . S
C640 O634 1.255 . S
O641 Fe623 2.002 . S
O641 C637 1.295 . S
O642 Fe625 1.997 . S
O642 C637 1.235 . S
C643 O626 1.295 . S
C643 O627 1.235 . S
Fe644 O646 1.918 . S
Fe644 O649 1.997 . S
Fe644 O650 2.002 . S
Fe644 O655 1.976 . S
Fe644 O658 1.996 . S
Fe645 O646 1.918 . S
Fe645 O653 1.997 . S
Fe645 O656 1.996 . S
Fe645 O660 1.976 . S
Fe645 O663 2.002 . S
O646 Fe644 1.918 . S
O646 Fe645 1.918 . S
O646 Fe647 1.918 . S
Fe647 O646 1.918 . S
Fe647 O648 2.002 . S
Fe647 O657 1.976 . S
Fe647 O661 1.996 . S
Fe647 O664 1.997 . S
O648 Fe647 2.002 . S
O648 C665 1.295 . S
O649 Fe644 1.997 . S
O649 C665 1.235 . S
O650 Fe644 2.002 . S
O650 C651 1.295 . S
C651 O650 1.295 . S
C651 O653 1.235 . S
C652 O657 1.287 . S
C652 O658 1.255 . S
O653 Fe645 1.997 . S
O653 C651 1.235 . S
C654 O660 1.287 . S
C654 O661 1.255 . S
O655 Fe644 1.976 . S
O655 C662 1.287 . S
O656 Fe645 1.996 . S
O656 C662 1.255 . S
O657 Fe647 1.976 . S
O657 C652 1.287 . S
O658 Fe644 1.996 . S
O658 C652 1.255 . S
C659 O663 1.295 . S
C659 O664 1.235 . S
O660 Fe645 1.976 . S
O660 C654 1.287 . S
O661 Fe647 1.996 . S
O661 C654 1.255 . S
C662 O655 1.287 . S
C662 O656 1.255 . S
O663 Fe645 2.002 . S
O663 C659 1.295 . S
O664 Fe647 1.997 . S
O664 C659 1.235 . S
C665 O648 1.295 . S
C665 O649 1.235 . S
Fe666 O668 1.918 . S
Fe666 O671 1.997 . S
Fe666 O672 2.002 . S
Fe666 O677 1.976 . S
Fe666 O680 1.996 . S
Fe667 O668 1.918 . S
Fe667 O675 1.997 . S
Fe667 O678 1.996 . S
Fe667 O682 1.976 . S
Fe667 O685 2.002 . S
O668 Fe666 1.918 . S
O668 Fe667 1.918 . S
O668 Fe669 1.918 . S
Fe669 O668 1.918 . S
Fe669 O670 2.002 . S
Fe669 O679 1.976 . S
Fe669 O683 1.996 . S
Fe669 O686 1.997 . S
O670 Fe669 2.002 . S
O670 C687 1.295 . S
O671 Fe666 1.997 . S
O671 C687 1.235 . S
O672 Fe666 2.002 . S
O672 C673 1.295 . S
C673 O672 1.295 . S
C673 O675 1.235 . S
C674 O679 1.287 . S
C674 O680 1.255 . S
O675 Fe667 1.997 . S
O675 C673 1.235 . S
C676 O682 1.287 . S
C676 O683 1.255 . S
O677 Fe666 1.976 . S
O677 C684 1.287 . S
O678 Fe667 1.996 . S
O678 C684 1.255 . S
O679 Fe669 1.976 . S
O679 C674 1.287 . S
O680 Fe666 1.996 . S
O680 C674 1.255 . S
C681 O685 1.295 . S
C681 O686 1.235 . S
O682 Fe667 1.976 . S
O682 C676 1.287 . S
O683 Fe669 1.996 . S
O683 C676 1.255 . S
C684 O677 1.287 . S
C684 O678 1.255 . S
O685 Fe667 2.002 . S
O685 C681 1.295 . S
O686 Fe669 1.997 . S
O686 C681 1.235 . S
C687 O670 1.295 . S
C687 O671 1.235 . S
H688 C696 0.950 . S
H689 C701 0.950 . S
H690 C698 0.950 . S
H691 C700 0.950 . S
H692 C702 0.950 . S
H693 C704 0.950 . S
H694 C706 0.950 . S
H695 C707 0.950 . S
C696 H688 0.950 . S
C696 C697 1.386 . S
C696 C698 1.391 . S
C697 C696 1.386 . S
C697 C701 1.393 . S
C698 H690 0.950 . S
C698 C696 1.391 . S
C698 C699 1.400 . S
C699 C698 1.400 . S
C699 C700 1.398 . S
C699 C705 1.491 . S
C700 H691 0.950 . S
C700 C699 1.398 . S
C700 C701 1.391 . S
C701 H689 0.950 . S
C701 C697 1.393 . S
C701 C700 1.391 . S
C702 H692 0.950 . S
C702 C703 1.386 . S
C702 C704 1.391 . S
C703 C702 1.386 . S
C703 C707 1.393 . S
C704 H693 0.950 . S
C704 C702 1.391 . S
C704 C705 1.400 . S
C705 C699 1.491 . S
C705 C704 1.400 . S
C705 C706 1.398 . S
C706 H694 0.950 . S
C706 C705 1.398 . S
C706 C707 1.391 . S
C707 H695 0.950 . S
C707 C703 1.393 . S
C707 C706 1.391 . S
H708 C716 0.950 . S
H709 C721 0.950 . S
H710 C718 0.950 . S
H711 C720 0.950 . S
H712 C722 0.950 . S
H713 C724 0.950 . S
H714 C726 0.950 . S
H715 C727 0.950 . S
C716 H708 0.950 . S
C716 C717 1.386 . S
C716 C718 1.391 . S
C717 C716 1.386 . S
C717 C721 1.393 . S
C718 H710 0.950 . S
C718 C716 1.391 . S
C718 C719 1.400 . S
C719 C718 1.400 . S
C719 C720 1.398 . S
C719 C725 1.491 . S
C720 H711 0.950 . S
C720 C719 1.398 . S
C720 C721 1.391 . S
C721 H709 0.950 . S
C721 C717 1.393 . S
C721 C720 1.391 . S
C722 H712 0.950 . S
C722 C723 1.386 . S
C722 C724 1.391 . S
C723 C722 1.386 . S
C723 C727 1.393 . S
C724 H713 0.950 . S
C724 C722 1.391 . S
C724 C725 1.400 . S
C725 C719 1.491 . S
C725 C724 1.400 . S
C725 C726 1.398 . S
C726 H714 0.950 . S
C726 C725 1.398 . S
C726 C727 1.391 . S
C727 H715 0.950 . S
C727 C723 1.393 . S
C727 C726 1.391 . S
H728 C736 0.950 . S
H729 C741 0.950 . S
H730 C738 0.950 . S
H731 C740 0.950 . S
H732 C742 0.950 . S
H733 C744 0.950 . S
H734 C746 0.950 . S
H735 C747 0.950 . S
C736 H728 0.950 . S
C736 C737 1.386 . S
C736 C738 1.391 . S
C737 C736 1.386 . S
C737 C741 1.393 . S
C738 H730 0.950 . S
C738 C736 1.391 . S
C738 C739 1.400 . S
C739 C738 1.400 . S
C739 C740 1.398 . S
C739 C745 1.491 . S
C740 H731 0.950 . S
C740 C739 1.398 . S
C740 C741 1.391 . S
C741 H729 0.950 . S
C741 C737 1.393 . S
C741 C740 1.391 . S
C742 H732 0.950 . S
C742 C743 1.386 . S
C742 C744 1.391 . S
C743 C742 1.386 . S
C743 C747 1.393 . S
C744 H733 0.950 . S
C744 C742 1.391 . S
C744 C745 1.400 . S
C745 C739 1.491 . S
C745 C744 1.400 . S
C745 C746 1.398 . S
C746 H734 0.950 . S
C746 C745 1.398 . S
C746 C747 1.391 . S
C747 H735 0.950 . S
C747 C743 1.393 . S
C747 C746 1.391 . S
H748 C756 0.950 . S
H749 C761 0.950 . S
H750 C758 0.950 . S
H751 C760 0.950 . S
H752 C762 0.950 . S
H753 C764 0.950 . S
H754 C766 0.950 . S
H755 C767 0.950 . S
C756 H748 0.950 . S
C756 C757 1.386 . S
C756 C758 1.391 . S
C757 C756 1.386 . S
C757 C761 1.393 . S
C758 H750 0.950 . S
C758 C756 1.391 . S
C758 C759 1.400 . S
C759 C758 1.400 . S
C759 C760 1.398 . S
C759 C765 1.491 . S
C760 H751 0.950 . S
C760 C759 1.398 . S
C760 C761 1.391 . S
C761 H749 0.950 . S
C761 C757 1.393 . S
C761 C760 1.391 . S
C762 H752 0.950 . S
C762 C763 1.386 . S
C762 C764 1.391 1_556 S
C763 C762 1.386 . S
C763 C767 1.393 . S
C764 H753 0.950 . S
C764 C762 1.391 1_554 S
C764 C765 1.400 . S
C765 C759 1.491 . S
C765 C764 1.400 . S
C765 C766 1.398 1_554 S
C766 H754 0.950 . S
C766 C765 1.398 1_556 S
C766 C767 1.391 . S
C767 H755 0.950 . S
C767 C763 1.393 . S
C767 C766 1.391 . S
H768 C776 0.950 . S
H769 C781 0.950 . S
H770 C778 0.950 . S
H771 C780 0.950 . S
H772 C782 0.950 . S
H773 C784 0.950 . S
H774 C786 0.950 . S
H775 C787 0.950 . S
C776 H768 0.950 . S
C776 C777 1.386 . S
C776 C778 1.391 . S
C777 C776 1.386 . S
C777 C781 1.393 . S
C778 H770 0.950 . S
C778 C776 1.391 . S
C778 C779 1.400 . S
C779 C778 1.400 . S
C779 C780 1.398 . S
C779 C785 1.491 . S
C780 H771 0.950 . S
C780 C779 1.398 . S
C780 C781 1.391 . S
C781 H769 0.950 . S
C781 C777 1.393 . S
C781 C780 1.391 . S
C782 H772 0.950 . S
C782 C783 1.386 . S
C782 C784 1.391 . S
C783 C782 1.386 . S
C783 C787 1.393 . S
C784 H773 0.950 . S
C784 C782 1.391 . S
C784 C785 1.400 . S
C785 C779 1.491 . S
C785 C784 1.400 . S
C785 C786 1.398 . S
C786 H774 0.950 . S
C786 C785 1.398 . S
C786 C787 1.391 . S
C787 H775 0.950 . S
C787 C783 1.393 . S
C787 C786 1.391 . S
H788 C796 0.950 . S
H789 C801 0.950 . S
H790 C798 0.950 . S
H791 C800 0.950 . S
H792 C802 0.950 . S
H793 C804 0.950 . S
H794 C806 0.950 . S
H795 C807 0.950 . S
C796 H788 0.950 . S
C796 C797 1.386 . S
C796 C798 1.391 . S
C797 C796 1.386 . S
C797 C801 1.393 . S
C798 H790 0.950 . S
C798 C796 1.391 . S
C798 C799 1.400 . S
C799 C798 1.400 . S
C799 C800 1.398 . S
C799 C805 1.491 . S
C800 H791 0.950 . S
C800 C799 1.398 . S
C800 C801 1.391 . S
C801 H789 0.950 . S
C801 C797 1.393 . S
C801 C800 1.391 . S
C802 H792 0.950 . S
C802 C803 1.386 . S
C802 C804 1.391 . S
C803 C802 1.386 . S
C803 C807 1.393 . S
C804 H793 0.950 . S
C804 C802 1.391 . S
C804 C805 1.400 . S
C805 C799 1.491 . S
C805 C804 1.400 . S
C805 C806 1.398 . S
C806 H794 0.950 . S
C806 C805 1.398 . S
C806 C807 1.391 . S
C807 H795 0.950 . S
C807 C803 1.393 . S
C807 C806 1.391 . S
H808 C816 0.950 . S
H809 C821 0.950 . S
H810 C818 0.950 . S
H811 C820 0.950 . S
H812 C822 0.950 . S
H813 C824 0.950 . S
H814 C826 0.950 . S
H815 C827 0.950 . S
C816 H808 0.950 . S
C816 C817 1.386 . S
C816 C818 1.391 . S
C817 C816 1.386 . S
C817 C821 1.393 . S
C818 H810 0.950 . S
C818 C816 1.391 . S
C818 C819 1.400 . S
C819 C818 1.400 . S
C819 C820 1.398 . S
C819 C825 1.491 . S
C820 H811 0.950 . S
C820 C819 1.398 . S
C820 C821 1.391 . S
C821 H809 0.950 . S
C821 C817 1.393 . S
C821 C820 1.391 . S
C822 H812 0.950 . S
C822 C823 1.386 . S
C822 C824 1.391 . S
C823 C822 1.386 . S
C823 C827 1.393 . S
C824 H813 0.950 . S
C824 C822 1.391 . S
C824 C825 1.400 . S
C825 C819 1.491 . S
C825 C824 1.400 . S
C825 C826 1.398 . S
C826 H814 0.950 . S
C826 C825 1.398 . S
C826 C827 1.391 . S
C827 H815 0.950 . S
C827 C823 1.393 . S
C827 C826 1.391 . S
H828 C836 0.950 . S
H829 C841 0.950 . S
H830 C838 0.950 . S
H831 C840 0.950 . S
H832 C842 0.950 . S
H833 C844 0.950 . S
H834 C846 0.950 . S
H835 C847 0.950 . S
C836 H828 0.950 . S
C836 C837 1.386 . S
C836 C838 1.391 . S
C837 C836 1.386 . S
C837 C841 1.393 . S
C838 H830 0.950 . S
C838 C836 1.391 . S
C838 C839 1.400 . S
C839 C838 1.400 . S
C839 C840 1.398 . S
C839 C845 1.502 . S
C840 H831 0.950 . S
C840 C839 1.398 . S
C840 C841 1.391 . S
C841 H829 0.950 . S
C841 C837 1.393 . S
C841 C840 1.391 . S
C842 H832 0.950 . S
C842 C843 1.386 . S
C842 C844 1.391 1_554 S
C843 C842 1.386 . S
C843 C847 1.393 . S
C844 H833 0.950 . S
C844 C842 1.391 1_556 S
C844 C845 1.401 . S
C845 C839 1.502 . S
C845 C844 1.401 . S
C845 C846 1.386 1_556 S
C846 H834 0.950 . S
C846 C845 1.386 1_554 S
C846 C847 1.391 . S
C847 H835 0.950 . S
C847 C843 1.393 . S
C847 C846 1.391 . S
H848 C856 0.950 . S
H849 C861 0.950 . S
H850 C858 0.950 . S
H851 C860 0.950 . S
H852 C862 0.950 . S
H853 C864 0.950 . S
H854 C866 0.950 . S
H855 C867 0.950 . S
C856 H848 0.950 . S
C856 C857 1.386 . S
C856 C858 1.391 . S
C857 C856 1.386 . S
C857 C861 1.393 . S
C858 H850 0.950 . S
C858 C856 1.391 . S
C858 C859 1.400 . S
C859 C858 1.400 . S
C859 C860 1.398 . S
C859 C865 1.491 . S
C860 H851 0.950 . S
C860 C859 1.398 . S
C860 C861 1.391 . S
C861 H849 0.950 . S
C861 C857 1.393 . S
C861 C860 1.391 . S
C862 H852 0.950 . S
C862 C863 1.386 . S
C862 C864 1.391 . S
C863 C862 1.386 . S
C863 C867 1.393 . S
C864 H853 0.950 . S
C864 C862 1.391 . S
C864 C865 1.400 . S
C865 C859 1.491 . S
C865 C864 1.400 . S
C865 C866 1.398 . S
C866 H854 0.950 . S
C866 C865 1.398 . S
C866 C867 1.391 . S
C867 H855 0.950 . S
C867 C863 1.393 . S
C867 C866 1.391 . S
H868 C876 0.950 . S
H869 C881 0.950 . S
H870 C878 0.950 . S
H871 C880 0.950 . S
H872 C882 0.950 . S
H873 C884 0.950 . S
H874 C886 0.950 . S
H875 C887 0.950 . S
C876 H868 0.950 . S
C876 C877 1.386 . S
C876 C878 1.391 . S
C877 C876 1.386 . S
C877 C881 1.393 . S
C878 H870 0.950 . S
C878 C876 1.391 . S
C878 C879 1.400 . S
C879 C878 1.400 . S
C879 C880 1.398 . S
C879 C885 1.491 . S
C880 H871 0.950 . S
C880 C879 1.398 . S
C880 C881 1.391 . S
C881 H869 0.950 . S
C881 C877 1.393 . S
C881 C880 1.391 . S
C882 H872 0.950 . S
C882 C883 1.386 . S
C882 C884 1.391 1_565 S
C883 C882 1.386 . S
C883 C887 1.393 . S
C884 H873 0.950 . S
C884 C882 1.391 1_545 S
C884 C885 1.400 . S
C885 C879 1.491 . S
C885 C884 1.400 . S
C885 C886 1.398 1_545 S
C886 H874 0.950 . S
C886 C885 1.398 1_565 S
C886 C887 1.391 . S
C887 H875 0.950 . S
C887 C883 1.393 . S
C887 C886 1.391 . S
H888 C896 0.950 . S
H889 C901 0.950 . S
H890 C898 0.950 . S
H891 C900 0.950 . S
H892 C902 0.950 . S
H893 C904 0.950 . S
H894 C906 0.950 . S
H895 C907 0.950 . S
C896 H888 0.950 . S
C896 C897 1.386 . S
C896 C898 1.391 . S
C897 C896 1.386 . S
C897 C901 1.393 . S
C898 H890 0.950 . S
C898 C896 1.391 . S
C898 C899 1.400 . S
C899 C898 1.400 . S
C899 C900 1.398 . S
C899 C905 1.491 . S
C900 H891 0.950 . S
C900 C899 1.398 . S
C900 C901 1.391 . S
C901 H889 0.950 . S
C901 C897 1.393 . S
C901 C900 1.391 . S
C902 H892 0.950 . S
C902 C903 1.386 . S
C902 C904 1.391 . S
C903 C902 1.386 . S
C903 C907 1.393 . S
C904 H893 0.950 . S
C904 C902 1.391 . S
C904 C905 1.400 . S
C905 C899 1.491 . S
C905 C904 1.400 . S
C905 C906 1.398 . S
C906 H894 0.950 . S
C906 C905 1.398 . S
C906 C907 1.391 . S
C907 H895 0.950 . S
C907 C903 1.393 . S
C907 C906 1.391 . S
H908 C916 0.950 . S
H909 C921 0.950 . S
H910 C918 0.950 . S
H911 C920 0.950 . S
H912 C922 0.950 . S
H913 C924 0.973 . S
H914 C926 0.950 . S
H915 C927 0.950 . S
C916 H908 0.950 . S
C916 C917 1.386 . S
C916 C918 1.391 . S
C917 C916 1.386 . S
C917 C921 1.393 . S
C918 H910 0.950 . S
C918 C916 1.391 . S
C918 C919 1.400 . S
C919 C918 1.400 . S
C919 C920 1.398 . S
C919 C925 1.496 . S
C920 H911 0.950 . S
C920 C919 1.398 . S
C920 C921 1.391 . S
C921 H909 0.950 . S
C921 C917 1.393 . S
C921 C920 1.391 . S
C922 H912 0.950 . S
C922 C923 1.386 . S
C922 C924 1.369 1_545 S
C923 C922 1.386 . S
C923 C927 1.393 . S
C924 H913 0.973 . S
C924 C922 1.369 1_565 S
C924 C925 1.400 . S
C925 C919 1.496 . S
C925 C924 1.400 . S
C925 C926 1.392 1_565 S
C926 H914 0.950 . S
C926 C925 1.392 1_545 S
C926 C927 1.391 . S
C927 H915 0.950 . S
C927 C923 1.393 . S
C927 C926 1.391 . S
H928 C936 0.950 . S
H929 C941 0.950 . S
H930 C938 0.950 . S
H931 C940 0.950 . S
H932 C942 0.950 . S
H933 C944 0.950 . S
H934 C946 0.950 . S
H935 C947 0.950 . S
C936 H928 0.950 . S
C936 C937 1.386 . S
C936 C938 1.391 . S
C937 C936 1.386 . S
C937 C941 1.393 . S
C938 H930 0.950 . S
C938 C936 1.391 . S
C938 C939 1.400 . S
C939 C938 1.400 . S
C939 C940 1.398 . S
C939 C945 1.491 . S
C940 H931 0.950 . S
C940 C939 1.398 . S
C940 C941 1.391 . S
C941 H929 0.950 . S
C941 C937 1.393 . S
C941 C940 1.391 . S
C942 H932 0.950 . S
C942 C943 1.386 . S
C942 C944 1.391 . S
C943 C942 1.386 . S
C943 C947 1.393 . S
C944 H933 0.950 . S
C944 C942 1.391 . S
C944 C945 1.400 . S
C945 C939 1.491 . S
C945 C944 1.400 . S
C945 C946 1.398 . S
C946 H934 0.950 . S
C946 C945 1.398 . S
C946 C947 1.391 . S
C947 H935 0.950 . S
C947 C943 1.393 . S
C947 C946 1.391 . S
H948 C956 0.950 . S
H949 C961 0.950 . S
H950 C958 0.950 . S
H951 C960 0.950 . S
H952 C962 0.950 . S
H953 C964 0.950 . S
H954 C966 0.950 1_545 S
H955 C967 0.950 . S
C956 H948 0.950 . S
C956 C957 1.386 . S
C956 C958 1.391 . S
C957 C956 1.386 . S
C957 C961 1.393 . S
C958 H950 0.950 . S
C958 C956 1.391 . S
C958 C959 1.400 . S
C959 C958 1.400 . S
C959 C960 1.398 . S
C959 C965 1.491 . S
C960 H951 0.950 . S
C960 C959 1.398 . S
C960 C961 1.391 . S
C961 H949 0.950 . S
C961 C957 1.393 . S
C961 C960 1.391 . S
C962 H952 0.950 . S
C962 C963 1.386 . S
C962 C964 1.391 . S
C963 C962 1.386 . S
C963 C967 1.393 . S
C964 H953 0.950 . S
C964 C962 1.391 . S
C964 C965 1.400 1_565 S
C965 C959 1.491 . S
C965 C964 1.400 1_545 S
C965 C966 1.398 1_545 S
C966 H954 0.950 1_565 S
C966 C965 1.398 1_565 S
C966 C967 1.391 . S
C967 H955 0.950 . S
C967 C963 1.393 . S
C967 C966 1.391 . S
H968 C976 0.950 . S
H969 C981 0.950 . S
H970 C978 0.950 . S
H971 C980 0.950 . S
H972 C982 0.950 . S
H973 C984 0.950 . S
H974 C986 0.950 . S
H975 C987 0.950 . S
C976 H968 0.950 . S
C976 C977 1.386 . S
C976 C978 1.391 . S
C977 C976 1.386 . S
C977 C981 1.393 . S
C978 H970 0.950 . S
C978 C976 1.391 . S
C978 C979 1.400 . S
C979 C978 1.400 . S
C979 C980 1.398 . S
C979 C985 1.491 . S
C980 H971 0.950 . S
C980 C979 1.398 . S
C980 C981 1.391 . S
C981 H969 0.950 . S
C981 C977 1.393 . S
C981 C980 1.391 . S
C982 H972 0.950 . S
C982 C983 1.386 . S
C982 C984 1.391 . S
C983 C982 1.386 . S
C983 C987 1.393 . S
C984 H973 0.950 . S
C984 C982 1.391 . S
C984 C985 1.400 . S
C985 C979 1.491 . S
C985 C984 1.400 . S
C985 C986 1.398 . S
C986 H974 0.950 . S
C986 C985 1.398 . S
C986 C987 1.391 . S
C987 H975 0.950 . S
C987 C983 1.393 . S
C987 C986 1.391 . S
H988 C996 0.950 . S
H989 C1001 0.950 . S
H990 C998 0.950 . S
H991 C1000 0.950 . S
H992 C1002 0.950 . S
H993 C1004 0.950 . S
H994 C1006 0.950 . S
H995 C1007 0.950 . S
C996 H988 0.950 . S
C996 C997 1.386 . S
C996 C998 1.391 . S
C997 C996 1.386 . S
C997 C1001 1.393 . S
C998 H990 0.950 . S
C998 C996 1.391 . S
C998 C999 1.400 . S
C999 C998 1.400 . S
C999 C1000 1.398 . S
C999 C1005 1.480 1_565 S
C1000 H991 0.950 . S
C1000 C999 1.398 . S
C1000 C1001 1.391 . S
C1001 H989 0.950 . S
C1001 C997 1.393 . S
C1001 C1000 1.391 . S
C1002 H992 0.950 . S
C1002 C1003 1.386 . S
C1002 C1004 1.391 . S
C1003 C1002 1.386 . S
C1003 C1007 1.393 . S
C1004 H993 0.950 . S
C1004 C1002 1.391 . S
C1004 C1005 1.413 . S
C1005 C999 1.480 1_545 S
C1005 C1004 1.413 . S
C1005 C1006 1.398 1_545 S
C1006 H994 0.950 . S
C1006 C1005 1.398 1_565 S
C1006 C1007 1.391 1_565 S
C1007 H995 0.950 . S
C1007 C1003 1.393 . S
C1007 C1006 1.391 1_545 S
H1008 C1016 0.950 . S
H1009 C1021 0.950 . S
H1010 C1018 0.950 . S
H1011 C1020 0.950 . S
H1012 C1022 0.950 . S
H1013 C1024 0.950 . S
H1014 C1026 0.950 . S
H1015 C1027 0.950 . S
C1016 H1008 0.950 . S
C1016 C1017 1.386 . S
C1016 C1018 1.391 . S
C1017 C1016 1.386 . S
C1017 C1021 1.393 . S
C1018 H1010 0.950 . S
C1018 C1016 1.391 . S
C1018 C1019 1.400 . S
C1019 C1018 1.400 . S
C1019 C1020 1.398 . S
C1019 C1025 1.491 . S
C1020 H1011 0.950 . S
C1020 C1019 1.398 . S
C1020 C1021 1.391 . S
C1021 H1009 0.950 . S
C1021 C1017 1.393 . S
C1021 C1020 1.391 . S
C1022 H1012 0.950 . S
C1022 C1023 1.386 . S
C1022 C1024 1.391 . S
C1023 C1022 1.386 . S
C1023 C1027 1.393 . S
C1024 H1013 0.950 . S
C1024 C1022 1.391 . S
C1024 C1025 1.400 . S
C1025 C1019 1.491 . S
C1025 C1024 1.400 . S
C1025 C1026 1.398 . S
C1026 H1014 0.950 . S
C1026 C1025 1.398 . S
C1026 C1027 1.391 . S
C1027 H1015 0.950 . S
C1027 C1023 1.393 . S
C1027 C1026 1.391 . S
H1028 C1036 0.950 . S
H1029 C1041 0.950 . S
H1030 C1038 0.950 . S
H1031 C1040 0.950 . S
H1032 C1042 0.950 . S
H1033 C1044 0.950 . S
H1034 C1046 0.950 . S
H1035 C1047 0.950 . S
C1036 H1028 0.950 . S
C1036 C1037 1.386 . S
C1036 C1038 1.391 . S
C1037 C1036 1.386 . S
C1037 C1041 1.393 . S
C1038 H1030 0.950 . S
C1038 C1036 1.391 . S
C1038 C1039 1.400 . S
C1039 C1038 1.400 . S
C1039 C1040 1.398 . S
C1039 C1045 1.491 . S
C1040 H1031 0.950 . S
C1040 C1039 1.398 . S
C1040 C1041 1.391 . S
C1041 H1029 0.950 . S
C1041 C1037 1.393 . S
C1041 C1040 1.391 . S
C1042 H1032 0.950 . S
C1042 C1043 1.386 . S
C1042 C1044 1.391 . S
C1043 C1042 1.386 . S
C1043 C1047 1.393 . S
C1044 H1033 0.950 . S
C1044 C1042 1.391 . S
C1044 C1045 1.400 . S
C1045 C1039 1.491 . S
C1045 C1044 1.400 . S
C1045 C1046 1.398 . S
C1046 H1034 0.950 . S
C1046 C1045 1.398 . S
C1046 C1047 1.391 . S
C1047 H1035 0.950 . S
C1047 C1043 1.393 . S
C1047 C1046 1.391 . S
H1048 C1056 0.950 . S
H1049 C1061 0.950 . S
H1050 C1058 0.950 . S
H1051 C1060 0.950 . S
H1052 C1062 0.950 . S
H1053 C1064 0.950 . S
H1054 C1066 0.950 1_455 S
H1055 C1067 0.950 . S
C1056 H1048 0.950 . S
C1056 C1057 1.386 . S
C1056 C1058 1.391 . S
C1057 C1056 1.386 . S
C1057 C1061 1.393 . S
C1058 H1050 0.950 . S
C1058 C1056 1.391 . S
C1058 C1059 1.400 . S
C1059 C1058 1.400 . S
C1059 C1060 1.398 . S
C1059 C1065 1.491 . S
C1060 H1051 0.950 . S
C1060 C1059 1.398 . S
C1060 C1061 1.391 . S
C1061 H1049 0.950 . S
C1061 C1057 1.393 . S
C1061 C1060 1.391 . S
C1062 H1052 0.950 . S
C1062 C1063 1.386 . S
C1062 C1064 1.391 . S
C1063 C1062 1.386 . S
C1063 C1067 1.393 . S
C1064 H1053 0.950 . S
C1064 C1062 1.391 . S
C1064 C1065 1.400 1_655 S
C1065 C1059 1.491 . S
C1065 C1064 1.400 1_455 S
C1065 C1066 1.398 1_455 S
C1066 H1054 0.950 1_655 S
C1066 C1065 1.398 1_655 S
C1066 C1067 1.391 . S
C1067 H1055 0.950 . S
C1067 C1063 1.393 . S
C1067 C1066 1.391 . S
H1068 C1076 0.950 . S
H1069 C1081 0.950 . S
H1070 C1078 0.950 . S
H1071 C1080 0.950 . S
H1072 C1082 0.950 . S
H1073 C1084 0.950 . S
H1074 C1086 0.950 . S
H1075 C1087 0.950 . S
C1076 H1068 0.950 . S
C1076 C1077 1.386 . S
C1076 C1078 1.391 . S
C1077 C1076 1.386 . S
C1077 C1081 1.393 . S
C1078 H1070 0.950 . S
C1078 C1076 1.391 . S
C1078 C1079 1.400 . S
C1079 C1078 1.400 . S
C1079 C1080 1.398 . S
C1079 C1085 1.491 . S
C1080 H1071 0.950 . S
C1080 C1079 1.398 . S
C1080 C1081 1.391 . S
C1081 H1069 0.950 . S
C1081 C1077 1.393 . S
C1081 C1080 1.391 . S
C1082 H1072 0.950 . S
C1082 C1083 1.386 . S
C1082 C1084 1.391 . S
C1083 C1082 1.386 . S
C1083 C1087 1.393 . S
C1084 H1073 0.950 . S
C1084 C1082 1.391 . S
C1084 C1085 1.400 . S
C1085 C1079 1.491 . S
C1085 C1084 1.400 . S
C1085 C1086 1.398 . S
C1086 H1074 0.950 . S
C1086 C1085 1.398 . S
C1086 C1087 1.391 . S
C1087 H1075 0.950 . S
C1087 C1083 1.393 . S
C1087 C1086 1.391 . S
H1088 C1096 0.950 . S
H1089 C1101 0.950 . S
H1090 C1098 0.950 . S
H1091 C1100 0.950 . S
H1092 C1102 0.950 . S
H1093 C1104 0.950 . S
H1094 C1106 0.981 . S
H1095 C1107 0.950 . S
C1096 H1088 0.950 . S
C1096 C1097 1.386 . S
C1096 C1098 1.391 . S
C1097 C1096 1.386 . S
C1097 C1101 1.393 . S
C1098 H1090 0.950 . S
C1098 C1096 1.391 . S
C1098 C1099 1.400 . S
C1099 C1098 1.400 . S
C1099 C1100 1.398 . S
C1099 C1105 1.491 . S
C1100 H1091 0.950 . S
C1100 C1099 1.398 . S
C1100 C1101 1.391 . S
C1101 H1089 0.950 . S
C1101 C1097 1.393 . S
C1101 C1100 1.391 . S
C1102 H1092 0.950 . S
C1102 C1103 1.386 . S
C1102 C1104 1.391 . S
C1103 C1102 1.386 . S
C1103 C1107 1.393 . S
C1104 H1093 0.950 . S
C1104 C1102 1.391 . S
C1104 C1105 1.400 1_455 S
C1105 C1099 1.491 . S
C1105 C1104 1.400 1_655 S
C1105 C1106 1.400 . S
C1106 H1094 0.981 . S
C1106 C1105 1.400 . S
C1106 C1107 1.360 1_655 S
C1107 H1095 0.950 . S
C1107 C1103 1.393 . S
C1107 C1106 1.360 1_455 S
H1108 C1116 0.950 . S
H1109 C1121 0.950 . S
H1110 C1118 0.950 . S
H1111 C1120 0.950 . S
H1112 C1122 0.950 . S
H1113 C1124 0.950 . S
H1114 C1126 0.950 . S
H1115 C1127 0.950 . S
C1116 H1108 0.950 . S
C1116 C1117 1.386 . S
C1116 C1118 1.391 . S
C1117 C1116 1.386 . S
C1117 C1121 1.393 . S
C1118 H1110 0.950 . S
C1118 C1116 1.391 . S
C1118 C1119 1.400 . S
C1119 C1118 1.400 . S
C1119 C1120 1.398 . S
C1119 C1125 1.491 . S
C1120 H1111 0.950 . S
C1120 C1119 1.398 . S
C1120 C1121 1.391 . S
C1121 H1109 0.950 . S
C1121 C1117 1.393 . S
C1121 C1120 1.391 . S
C1122 H1112 0.950 . S
C1122 C1123 1.386 . S
C1122 C1124 1.391 . S
C1123 C1122 1.386 . S
C1123 C1127 1.393 . S
C1124 H1113 0.950 . S
C1124 C1122 1.391 . S
C1124 C1125 1.400 . S
C1125 C1119 1.491 . S
C1125 C1124 1.400 . S
C1125 C1126 1.398 . S
C1126 H1114 0.950 . S
C1126 C1125 1.398 . S
C1126 C1127 1.391 . S
C1127 H1115 0.950 . S
C1127 C1123 1.393 . S
C1127 C1126 1.391 . S
H1128 C1136 0.950 . S
H1129 C1141 0.950 . S
H1130 C1138 0.950 . S
H1131 C1140 0.950 . S
H1132 C1142 0.950 . S
H1133 C1144 0.950 . S
H1134 C1146 0.950 . S
H1135 C1147 0.950 . S
C1136 H1128 0.950 . S
C1136 C1137 1.386 . S
C1136 C1138 1.391 . S
C1137 C1136 1.386 . S
C1137 C1141 1.393 . S
C1138 H1130 0.950 . S
C1138 C1136 1.391 . S
C1138 C1139 1.400 . S
C1139 C1138 1.400 . S
C1139 C1140 1.398 . S
C1139 C1145 1.491 . S
C1140 H1131 0.950 . S
C1140 C1139 1.398 . S
C1140 C1141 1.391 . S
C1141 H1129 0.950 . S
C1141 C1137 1.393 . S
C1141 C1140 1.391 . S
C1142 H1132 0.950 . S
C1142 C1143 1.386 . S
C1142 C1144 1.391 1_655 S
C1143 C1142 1.386 . S
C1143 C1147 1.393 . S
C1144 H1133 0.950 . S
C1144 C1142 1.391 1_455 S
C1144 C1145 1.400 . S
C1145 C1139 1.491 . S
C1145 C1144 1.400 . S
C1145 C1146 1.398 1_455 S
C1146 H1134 0.950 . S
C1146 C1145 1.398 1_655 S
C1146 C1147 1.391 . S
C1147 H1135 0.950 . S
C1147 C1143 1.393 . S
C1147 C1146 1.391 . S
H1148 C1156 0.950 . S
H1149 C1161 0.950 . S
H1150 C1158 0.950 . S
H1151 C1160 0.950 . S
H1152 C1162 0.950 . S
H1153 C1164 0.950 . S
H1154 C1166 0.950 . S
H1155 C1167 0.950 . S
C1156 H1148 0.950 . S
C1156 C1157 1.386 . S
C1156 C1158 1.391 . S
C1157 C1156 1.386 . S
C1157 C1161 1.393 . S
C1158 H1150 0.950 . S
C1158 C1156 1.391 . S
C1158 C1159 1.400 . S
C1159 C1158 1.400 . S
C1159 C1160 1.398 . S
C1159 C1165 1.491 . S
C1160 H1151 0.950 . S
C1160 C1159 1.398 . S
C1160 C1161 1.391 . S
C1161 H1149 0.950 . S
C1161 C1157 1.393 . S
C1161 C1160 1.391 . S
C1162 H1152 0.950 . S
C1162 C1163 1.386 . S
C1162 C1164 1.391 . S
C1163 C1162 1.386 . S
C1163 C1167 1.393 . S
C1164 H1153 0.950 . S
C1164 C1162 1.391 . S
C1164 C1165 1.400 . S
C1165 C1159 1.491 . S
C1165 C1164 1.400 . S
C1165 C1166 1.398 . S
C1166 H1154 0.950 . S
C1166 C1165 1.398 . S
C1166 C1167 1.391 . S
C1167 H1155 0.950 . S
C1167 C1163 1.393 . S
C1167 C1166 1.391 . S
H1168 C1176 0.950 . S
H1169 C1181 0.950 . S
H1170 C1178 0.950 . S
H1171 C1180 0.950 . S
H1172 C1182 0.950 . S
H1173 C1184 0.950 . S
H1174 C1186 0.950 . S
H1175 C1187 0.950 . S
C1176 H1168 0.950 . S
C1176 C1177 1.386 . S
C1176 C1178 1.391 . S
C1177 C1176 1.386 . S
C1177 C1181 1.393 . S
C1178 H1170 0.950 . S
C1178 C1176 1.391 . S
C1178 C1179 1.400 . S
C1179 C1178 1.400 . S
C1179 C1180 1.398 . S
C1179 C1185 1.491 . S
C1180 H1171 0.950 . S
C1180 C1179 1.398 . S
C1180 C1181 1.391 . S
C1181 H1169 0.950 . S
C1181 C1177 1.393 . S
C1181 C1180 1.391 . S
C1182 H1172 0.950 . S
C1182 C1183 1.386 . S
C1182 C1184 1.391 . S
C1183 C1182 1.386 . S
C1183 C1187 1.393 . S
C1184 H1173 0.950 . S
C1184 C1182 1.391 . S
C1184 C1185 1.400 . S
C1185 C1179 1.491 . S
C1185 C1184 1.400 . S
C1185 C1186 1.398 . S
C1186 H1174 0.950 . S
C1186 C1185 1.398 . S
C1186 C1187 1.391 . S
C1187 H1175 0.950 . S
C1187 C1183 1.393 . S
C1187 C1186 1.391 . S
H1188 C1196 0.950 . S
H1189 C1201 0.950 . S
H1190 C1198 0.950 . S
H1191 C1200 0.950 . S
H1192 C1202 0.950 . S
H1193 C1204 0.950 . S
H1194 C1206 0.950 . S
H1195 C1207 0.950 . S
C1196 H1188 0.950 . S
C1196 C1197 1.386 . S
C1196 C1198 1.391 . S
C1197 C1196 1.386 . S
C1197 C1201 1.393 . S
C1198 H1190 0.950 . S
C1198 C1196 1.391 . S
C1198 C1199 1.400 . S
C1199 C1198 1.400 . S
C1199 C1200 1.398 . S
C1199 C1205 1.491 . S
C1200 H1191 0.950 . S
C1200 C1199 1.398 . S
C1200 C1201 1.391 . S
C1201 H1189 0.950 . S
C1201 C1197 1.393 . S
C1201 C1200 1.391 . S
C1202 H1192 0.950 . S
C1202 C1203 1.386 . S
C1202 C1204 1.391 . S
C1203 C1202 1.386 . S
C1203 C1207 1.393 . S
C1204 H1193 0.950 . S
C1204 C1202 1.391 . S
C1204 C1205 1.400 . S
C1205 C1199 1.491 . S
C1205 C1204 1.400 . S
C1205 C1206 1.398 . S
C1206 H1194 0.950 . S
C1206 C1205 1.398 . S
C1206 C1207 1.391 . S
C1207 H1195 0.950 . S
C1207 C1203 1.393 . S
C1207 C1206 1.391 . S
H1208 C1216 0.950 . S
H1209 C1221 0.950 . S
H1210 C1218 0.950 . S
H1211 C1220 0.950 . S
H1212 C1222 0.950 . S
H1213 C1224 0.950 . S
H1214 C1226 0.950 . S
H1215 C1227 0.950 . S
C1216 H1208 0.950 . S
C1216 C1217 1.386 . S
C1216 C1218 1.391 . S
C1217 C1216 1.386 . S
C1217 C1221 1.393 . S
C1218 H1210 0.950 . S
C1218 C1216 1.391 . S
C1218 C1219 1.400 . S
C1219 C1218 1.400 . S
C1219 C1220 1.398 . S
C1219 C1225 1.491 . S
C1220 H1211 0.950 . S
C1220 C1219 1.398 . S
C1220 C1221 1.391 . S
C1221 H1209 0.950 . S
C1221 C1217 1.393 . S
C1221 C1220 1.391 . S
C1222 H1212 0.950 . S
C1222 C1223 1.386 . S
C1222 C1224 1.391 . S
C1223 C1222 1.386 . S
C1223 C1227 1.393 . S
C1224 H1213 0.950 . S
C1224 C1222 1.391 . S
C1224 C1225 1.400 . S
C1225 C1219 1.491 . S
C1225 C1224 1.400 . S
C1225 C1226 1.398 . S
C1226 H1214 0.950 . S
C1226 C1225 1.398 . S
C1226 C1227 1.391 . S
C1227 H1215 0.950 . S
C1227 C1223 1.393 . S
C1227 C1226 1.391 . S
H1228 C1236 0.950 . S
H1229 C1241 0.950 . S
H1230 C1238 0.950 . S
H1231 C1240 0.950 . S
H1232 C1242 0.950 . S
H1233 C1244 0.976 . S
H1234 C1246 0.950 . S
H1235 C1247 0.950 . S
C1236 H1228 0.950 . S
C1236 C1237 1.386 . S
C1236 C1238 1.391 . S
C1237 C1236 1.386 . S
C1237 C1241 1.393 . S
C1238 H1230 0.950 . S
C1238 C1236 1.391 . S
C1238 C1239 1.400 . S
C1239 C1238 1.400 . S
C1239 C1240 1.398 . S
C1239 C1245 1.487 1_556 S
C1240 H1231 0.950 . S
C1240 C1239 1.398 . S
C1240 C1241 1.391 . S
C1241 H1229 0.950 . S
C1241 C1237 1.393 . S
C1241 C1240 1.391 . S
C1242 H1232 0.950 . S
C1242 C1243 1.386 . S
C1242 C1244 1.367 1_554 S
C1243 C1242 1.386 . S
C1243 C1247 1.393 . S
C1244 H1233 0.976 . S
C1244 C1242 1.367 1_556 S
C1244 C1245 1.399 1_556 S
C1245 C1239 1.487 1_554 S
C1245 C1244 1.399 1_554 S
C1245 C1246 1.402 . S
C1246 H1234 0.950 . S
C1246 C1245 1.402 . S
C1246 C1247 1.391 . S
C1247 H1235 0.950 . S
C1247 C1243 1.393 . S
C1247 C1246 1.391 . S
H1248 C1256 0.950 . S
H1249 C1261 0.950 . S
H1250 C1258 0.950 . S
H1251 C1260 0.950 . S
H1252 C1262 0.950 . S
H1253 C1264 0.950 . S
H1254 C1266 0.950 . S
H1255 C1267 0.950 . S
C1256 H1248 0.950 . S
C1256 C1257 1.386 . S
C1256 C1258 1.391 . S
C1257 C1256 1.386 . S
C1257 C1261 1.393 . S
C1258 H1250 0.950 . S
C1258 C1256 1.391 . S
C1258 C1259 1.400 . S
C1259 C1258 1.400 . S
C1259 C1260 1.398 . S
C1259 C1265 1.491 . S
C1260 H1251 0.950 . S
C1260 C1259 1.398 . S
C1260 C1261 1.391 . S
C1261 H1249 0.950 . S
C1261 C1257 1.393 . S
C1261 C1260 1.391 . S
C1262 H1252 0.950 . S
C1262 C1263 1.386 . S
C1262 C1264 1.391 . S
C1263 C1262 1.386 . S
C1263 C1267 1.393 . S
C1264 H1253 0.950 . S
C1264 C1262 1.391 . S
C1264 C1265 1.400 . S
C1265 C1259 1.491 . S
C1265 C1264 1.400 . S
C1265 C1266 1.398 . S
C1266 H1254 0.950 . S
C1266 C1265 1.398 . S
C1266 C1267 1.391 . S
C1267 H1255 0.950 . S
C1267 C1263 1.393 . S
C1267 C1266 1.391 . S
H1268 C1276 0.950 . S
H1269 C1281 0.950 . S
H1270 C1278 0.950 . S
H1271 C1280 0.950 . S
H1272 C1282 0.950 . S
H1273 C1284 0.950 . S
H1274 C1286 0.950 . S
H1275 C1287 0.950 . S
C1276 H1268 0.950 . S
C1276 C1277 1.386 . S
C1276 C1278 1.391 . S
C1277 C1276 1.386 . S
C1277 C1281 1.393 . S
C1278 H1270 0.950 . S
C1278 C1276 1.391 . S
C1278 C1279 1.400 . S
C1279 C1278 1.400 . S
C1279 C1280 1.398 . S
C1279 C1285 1.491 . S
C1280 H1271 0.950 . S
C1280 C1279 1.398 . S
C1280 C1281 1.391 . S
C1281 H1269 0.950 . S
C1281 C1277 1.393 . S
C1281 C1280 1.391 . S
C1282 H1272 0.950 . S
C1282 C1283 1.386 . S
C1282 C1284 1.391 . S
C1283 C1282 1.386 . S
C1283 C1287 1.393 . S
C1284 H1273 0.950 . S
C1284 C1282 1.391 . S
C1284 C1285 1.400 . S
C1285 C1279 1.491 . S
C1285 C1284 1.400 . S
C1285 C1286 1.398 . S
C1286 H1274 0.950 . S
C1286 C1285 1.398 . S
C1286 C1287 1.391 . S
C1287 H1275 0.950 . S
C1287 C1283 1.393 . S
C1287 C1286 1.391 . S
H1288 C1296 0.950 . S
H1289 C1301 0.950 . S
H1290 C1298 0.950 . S
H1291 C1300 0.950 . S
H1292 C1302 0.950 . S
H1293 C1304 0.950 . S
H1294 C1306 0.950 . S
H1295 C1307 0.950 . S
C1296 H1288 0.950 . S
C1296 C1297 1.386 . S
C1296 C1298 1.391 . S
C1297 C1296 1.386 . S
C1297 C1301 1.393 . S
C1298 H1290 0.950 . S
C1298 C1296 1.391 . S
C1298 C1299 1.400 . S
C1299 C1298 1.400 . S
C1299 C1300 1.398 . S
C1299 C1305 1.491 . S
C1300 H1291 0.950 . S
C1300 C1299 1.398 . S
C1300 C1301 1.391 . S
C1301 H1289 0.950 . S
C1301 C1297 1.393 . S
C1301 C1300 1.391 . S
C1302 H1292 0.950 . S
C1302 C1303 1.386 . S
C1302 C1304 1.391 . S
C1303 C1302 1.386 . S
C1303 C1307 1.393 . S
C1304 H1293 0.950 . S
C1304 C1302 1.391 . S
C1304 C1305 1.400 . S
C1305 C1299 1.491 . S
C1305 C1304 1.400 . S
C1305 C1306 1.398 . S
C1306 H1294 0.950 . S
C1306 C1305 1.398 . S
C1306 C1307 1.391 . S
C1307 H1295 0.950 . S
C1307 C1303 1.393 . S
C1307 C1306 1.391 . S
H1308 C1316 0.950 . S
H1309 C1321 0.950 . S
H1310 C1318 0.950 . S
H1311 C1320 0.950 . S
H1312 C1322 0.950 . S
H1313 C1324 0.950 . S
H1314 C1326 0.950 1_554 S
H1315 C1327 0.950 . S
C1316 H1308 0.950 . S
C1316 C1317 1.386 . S
C1316 C1318 1.391 . S
C1317 C1316 1.386 . S
C1317 C1321 1.393 . S
C1318 H1310 0.950 . S
C1318 C1316 1.391 . S
C1318 C1319 1.400 . S
C1319 C1318 1.400 . S
C1319 C1320 1.398 . S
C1319 C1325 1.491 . S
C1320 H1311 0.950 . S
C1320 C1319 1.398 . S
C1320 C1321 1.391 . S
C1321 H1309 0.950 . S
C1321 C1317 1.393 . S
C1321 C1320 1.391 . S
C1322 H1312 0.950 . S
C1322 C1323 1.386 . S
C1322 C1324 1.391 . S
C1323 C1322 1.386 . S
C1323 C1327 1.393 . S
C1324 H1313 0.950 . S
C1324 C1322 1.391 . S
C1324 C1325 1.400 1_556 S
C1325 C1319 1.491 . S
C1325 C1324 1.400 1_554 S
C1325 C1326 1.398 1_554 S
C1326 H1314 0.950 1_556 S
C1326 C1325 1.398 1_556 S
C1326 C1327 1.391 . S
C1327 H1315 0.950 . S
C1327 C1323 1.393 . S
C1327 C1326 1.391 . S
H1328 C1336 0.950 . S
H1329 C1341 0.950 . S
H1330 C1338 0.950 . S
H1331 C1340 0.950 . S
H1332 C1342 0.950 . S
H1333 C1344 0.950 . S
H1334 C1346 0.950 . S
H1335 C1347 0.950 . S
C1336 H1328 0.950 . S
C1336 C1337 1.386 . S
C1336 C1338 1.391 . S
C1337 C1336 1.386 . S
C1337 C1341 1.393 . S
C1338 H1330 0.950 . S
C1338 C1336 1.391 . S
C1338 C1339 1.400 . S
C1339 C1338 1.400 . S
C1339 C1340 1.398 . S
C1339 C1345 1.491 . S
C1340 H1331 0.950 . S
C1340 C1339 1.398 . S
C1340 C1341 1.391 . S
C1341 H1329 0.950 . S
C1341 C1337 1.393 . S
C1341 C1340 1.391 . S
C1342 H1332 0.950 . S
C1342 C1343 1.386 . S
C1342 C1344 1.391 . S
C1343 C1342 1.386 . S
C1343 C1347 1.393 . S
C1344 H1333 0.950 . S
C1344 C1342 1.391 . S
C1344 C1345 1.400 . S
C1345 C1339 1.491 . S
C1345 C1344 1.400 . S
C1345 C1346 1.398 . S
C1346 H1334 0.950 . S
C1346 C1345 1.398 . S
C1346 C1347 1.391 . S
C1347 H1335 0.950 . S
C1347 C1343 1.393 . S
C1347 C1346 1.391 . S
H1348 C1356 0.950 . S
H1349 C1361 0.950 . S
H1350 C1358 0.950 . S
H1351 C1360 0.950 . S
H1352 C1362 0.950 . S
H1353 C1364 0.950 . S
H1354 C1366 0.950 . S
H1355 C1367 0.950 . S
C1356 H1348 0.950 . S
C1356 C1357 1.386 . S
C1356 C1358 1.391 . S
C1357 C1356 1.386 . S
C1357 C1361 1.393 . S
C1358 H1350 0.950 . S
C1358 C1356 1.391 . S
C1358 C1359 1.400 . S
C1359 C1358 1.400 . S
C1359 C1360 1.398 . S
C1359 C1365 1.491 . S
C1360 H1351 0.950 . S
C1360 C1359 1.398 . S
C1360 C1361 1.391 . S
C1361 H1349 0.950 . S
C1361 C1357 1.393 . S
C1361 C1360 1.391 . S
C1362 H1352 0.950 . S
C1362 C1363 1.386 . S
C1362 C1364 1.391 1_545 S
C1363 C1362 1.386 . S
C1363 C1367 1.393 . S
C1364 H1353 0.950 . S
C1364 C1362 1.391 1_565 S
C1364 C1365 1.400 . S
C1365 C1359 1.491 . S
C1365 C1364 1.400 . S
C1365 C1366 1.398 1_565 S
C1366 H1354 0.950 . S
C1366 C1365 1.398 1_545 S
C1366 C1367 1.391 . S
C1367 H1355 0.950 . S
C1367 C1363 1.393 . S
C1367 C1366 1.391 . S
H1368 C1376 0.950 . S
H1369 C1381 0.950 . S
H1370 C1378 0.950 . S
H1371 C1380 0.950 . S
H1372 C1382 0.950 . S
H1373 C1384 0.950 . S
H1374 C1386 0.950 . S
H1375 C1387 0.950 . S
C1376 H1368 0.950 . S
C1376 C1377 1.386 . S
C1376 C1378 1.391 . S
C1377 C1376 1.386 . S
C1377 C1381 1.393 . S
C1378 H1370 0.950 . S
C1378 C1376 1.391 . S
C1378 C1379 1.400 . S
C1379 C1378 1.400 . S
C1379 C1380 1.398 . S
C1379 C1385 1.491 . S
C1380 H1371 0.950 . S
C1380 C1379 1.398 . S
C1380 C1381 1.391 . S
C1381 H1369 0.950 . S
C1381 C1377 1.393 . S
C1381 C1380 1.391 . S
C1382 H1372 0.950 . S
C1382 C1383 1.386 . S
C1382 C1384 1.391 . S
C1383 C1382 1.386 . S
C1383 C1387 1.393 . S
C1384 H1373 0.950 . S
C1384 C1382 1.391 . S
C1384 C1385 1.400 . S
C1385 C1379 1.491 . S
C1385 C1384 1.400 . S
C1385 C1386 1.398 . S
C1386 H1374 0.950 . S
C1386 C1385 1.398 . S
C1386 C1387 1.391 . S
C1387 H1375 0.950 . S
C1387 C1383 1.393 . S
C1387 C1386 1.391 . S
H1388 C1396 0.950 1_556 S
H1389 C1401 0.950 . S
H1390 C1398 0.950 . S
H1391 C1400 0.950 . S
H1392 C1402 0.950 . S
H1393 C1404 0.950 1_545 S
H1394 C1406 0.950 . S
H1395 C1407 0.950 . S
C1396 H1388 0.950 1_554 S
C1396 C1397 1.386 . S
C1396 C1398 1.391 . S
C1397 C1396 1.386 . S
C1397 C1401 1.393 . S
C1398 H1390 0.950 . S
C1398 C1396 1.391 . S
C1398 C1399 1.400 . S
C1399 C1398 1.400 . S
C1399 C1400 1.398 . S
C1399 C1405 1.491 . S
C1400 H1391 0.950 . S
C1400 C1399 1.398 . S
C1400 C1401 1.391 . S
C1401 H1389 0.950 . S
C1401 C1397 1.393 . S
C1401 C1400 1.391 . S
C1402 H1392 0.950 . S
C1402 C1403 1.386 . S
C1402 C1404 1.391 . S
C1403 C1402 1.386 . S
C1403 C1407 1.393 . S
C1404 H1393 0.950 1_565 S
C1404 C1402 1.391 . S
C1404 C1405 1.400 1_565 S
C1405 C1399 1.491 . S
C1405 C1404 1.400 1_545 S
C1405 C1406 1.398 1_545 S
C1406 H1394 0.950 . S
C1406 C1405 1.398 1_565 S
C1406 C1407 1.391 . S
C1407 H1395 0.950 . S
C1407 C1403 1.393 . S
C1407 C1406 1.391 . S
H1408 C1416 0.950 . S
H1409 C1421 0.950 . S
H1410 C1418 0.950 . S
H1411 C1420 0.950 . S
H1412 C1422 0.950 . S
H1413 C1424 0.950 . S
H1414 C1426 0.950 . S
H1415 C1427 0.950 . S
C1416 H1408 0.950 . S
C1416 C1417 1.386 . S
C1416 C1418 1.391 . S
C1417 C1416 1.386 . S
C1417 C1421 1.393 . S
C1418 H1410 0.950 . S
C1418 C1416 1.391 . S
C1418 C1419 1.400 . S
C1419 C1418 1.400 . S
C1419 C1420 1.398 . S
C1419 C1425 1.491 . S
C1420 H1411 0.950 . S
C1420 C1419 1.398 . S
C1420 C1421 1.391 . S
C1421 H1409 0.950 . S
C1421 C1417 1.393 . S
C1421 C1420 1.391 . S
C1422 H1412 0.950 . S
C1422 C1423 1.386 . S
C1422 C1424 1.391 . S
C1423 C1422 1.386 . S
C1423 C1427 1.393 . S
C1424 H1413 0.950 . S
C1424 C1422 1.391 . S
C1424 C1425 1.400 . S
C1425 C1419 1.491 . S
C1425 C1424 1.400 . S
C1425 C1426 1.398 . S
C1426 H1414 0.950 . S
C1426 C1425 1.398 . S
C1426 C1427 1.391 . S
C1427 H1415 0.950 . S
C1427 C1423 1.393 . S
C1427 C1426 1.391 . S
H1428 C1436 0.950 . S
H1429 C1441 0.950 . S
H1430 C1438 0.950 . S
H1431 C1440 0.950 . S
H1432 C1442 0.950 . S
H1433 C1444 0.930 1_565 S
H1434 C1446 0.950 . S
H1435 C1447 0.950 . S
C1436 H1428 0.950 . S
C1436 C1437 1.386 . S
C1436 C1438 1.391 . S
C1437 C1436 1.386 . S
C1437 C1441 1.393 . S
C1438 H1430 0.950 . S
C1438 C1436 1.391 . S
C1438 C1439 1.400 . S
C1439 C1438 1.400 . S
C1439 C1440 1.398 . S
C1439 C1445 1.471 1_565 S
C1440 H1431 0.950 . S
C1440 C1439 1.398 . S
C1440 C1441 1.391 . S
C1441 H1429 0.950 . S
C1441 C1437 1.393 . S
C1441 C1440 1.391 . S
C1442 H1432 0.950 . S
C1442 C1443 1.386 . S
C1442 C1444 1.411 . S
C1443 C1442 1.386 . S
C1443 C1447 1.393 . S
C1444 H1433 0.930 1_545 S
C1444 C1442 1.411 . S
C1444 C1445 1.400 . S
C1445 C1439 1.471 1_545 S
C1445 C1444 1.400 . S
C1445 C1446 1.418 . S
C1446 H1434 0.950 . S
C1446 C1445 1.418 . S
C1446 C1447 1.391 . S
C1447 H1435 0.950 . S
C1447 C1443 1.393 . S
C1447 C1446 1.391 . S
H1448 C1456 0.950 . S
H1449 C1461 0.950 . S
H1450 C1458 0.950 . S
H1451 C1460 0.950 . S
H1452 C1462 0.950 . S
H1453 C1464 0.950 . S
H1454 C1466 0.950 . S
H1455 C1467 0.950 . S
C1456 H1448 0.950 . S
C1456 C1457 1.386 . S
C1456 C1458 1.391 . S
C1457 C1456 1.386 . S
C1457 C1461 1.393 . S
C1458 H1450 0.950 . S
C1458 C1456 1.391 . S
C1458 C1459 1.400 . S
C1459 C1458 1.400 . S
C1459 C1460 1.398 . S
C1459 C1465 1.491 . S
C1460 H1451 0.950 . S
C1460 C1459 1.398 . S
C1460 C1461 1.391 . S
C1461 H1449 0.950 . S
C1461 C1457 1.393 . S
C1461 C1460 1.391 . S
C1462 H1452 0.950 . S
C1462 C1463 1.386 . S
C1462 C1464 1.391 . S
C1463 C1462 1.386 . S
C1463 C1467 1.393 . S
C1464 H1453 0.950 . S
C1464 C1462 1.391 . S
C1464 C1465 1.400 . S
C1465 C1459 1.491 . S
C1465 C1464 1.400 . S
C1465 C1466 1.398 . S
C1466 H1454 0.950 . S
C1466 C1465 1.398 . S
C1466 C1467 1.391 . S
C1467 H1455 0.950 . S
C1467 C1463 1.393 . S
C1467 C1466 1.391 . S
H1468 C1476 0.950 1_554 S
H1469 C1481 0.950 . S
H1470 C1478 0.950 . S
H1471 C1480 0.950 . S
H1472 C1482 0.950 . S
H1473 C1484 0.950 . S
H1474 C1486 0.950 . S
H1475 C1487 0.950 . S
C1476 H1468 0.950 1_556 S
C1476 C1477 1.386 . S
C1476 C1478 1.391 . S
C1477 C1476 1.386 . S
C1477 C1481 1.393 . S
C1478 H1470 0.950 . S
C1478 C1476 1.391 . S
C1478 C1479 1.400 . S
C1479 C1478 1.400 . S
C1479 C1480 1.398 . S
C1479 C1485 1.491 . S
C1480 H1471 0.950 . S
C1480 C1479 1.398 . S
C1480 C1481 1.391 . S
C1481 H1469 0.950 . S
C1481 C1477 1.393 . S
C1481 C1480 1.391 . S
C1482 H1472 0.950 . S
C1482 C1483 1.386 . S
C1482 C1484 1.391 1_565 S
C1483 C1482 1.386 . S
C1483 C1487 1.393 . S
C1484 H1473 0.950 . S
C1484 C1482 1.391 1_545 S
C1484 C1485 1.400 . S
C1485 C1479 1.491 . S
C1485 C1484 1.400 . S
C1485 C1486 1.398 1_545 S
C1486 H1474 0.950 . S
C1486 C1485 1.398 1_565 S
C1486 C1487 1.391 . S
C1487 H1475 0.950 . S
C1487 C1483 1.393 . S
C1487 C1486 1.391 . S
H1488 C1496 0.950 . S
H1489 C1501 0.950 . S
H1490 C1498 0.950 . S
H1491 C1500 0.950 . S
H1492 C1502 0.950 . S
H1493 C1504 0.950 . S
H1494 C1506 0.950 . S
H1495 C1507 0.950 . S
C1496 H1488 0.950 . S
C1496 C1497 1.386 . S
C1496 C1498 1.391 . S
C1497 C1496 1.386 . S
C1497 C1501 1.393 . S
C1498 H1490 0.950 . S
C1498 C1496 1.391 . S
C1498 C1499 1.400 . S
C1499 C1498 1.400 . S
C1499 C1500 1.398 . S
C1499 C1505 1.491 . S
C1500 H1491 0.950 . S
C1500 C1499 1.398 . S
C1500 C1501 1.391 . S
C1501 H1489 0.950 . S
C1501 C1497 1.393 . S
C1501 C1500 1.391 . S
C1502 H1492 0.950 . S
C1502 C1503 1.386 . S
C1502 C1504 1.391 . S
C1503 C1502 1.386 . S
C1503 C1507 1.393 . S
C1504 H1493 0.950 . S
C1504 C1502 1.391 . S
C1504 C1505 1.400 . S
C1505 C1499 1.491 . S
C1505 C1504 1.400 . S
C1505 C1506 1.398 . S
C1506 H1494 0.950 . S
C1506 C1505 1.398 . S
C1506 C1507 1.391 . S
C1507 H1495 0.950 . S
C1507 C1503 1.393 . S
C1507 C1506 1.391 . S
H1508 C1516 0.950 . S
H1509 C1521 0.950 . S
H1510 C1518 0.950 . S
H1511 C1520 0.950 . S
H1512 C1522 0.950 . S
H1513 C1524 0.950 . S
H1514 C1526 0.950 . S
H1515 C1527 0.950 . S
C1516 H1508 0.950 . S
C1516 C1517 1.386 . S
C1516 C1518 1.391 . S
C1517 C1516 1.386 . S
C1517 C1521 1.393 . S
C1518 H1510 0.950 . S
C1518 C1516 1.391 . S
C1518 C1519 1.400 . S
C1519 C1518 1.400 . S
C1519 C1520 1.398 . S
C1519 C1525 1.491 . S
C1520 H1511 0.950 . S
C1520 C1519 1.398 . S
C1520 C1521 1.391 . S
C1521 H1509 0.950 . S
C1521 C1517 1.393 . S
C1521 C1520 1.391 . S
C1522 H1512 0.950 . S
C1522 C1523 1.386 . S
C1522 C1524 1.391 . S
C1523 C1522 1.386 . S
C1523 C1527 1.393 . S
C1524 H1513 0.950 . S
C1524 C1522 1.391 . S
C1524 C1525 1.400 . S
C1525 C1519 1.491 . S
C1525 C1524 1.400 . S
C1525 C1526 1.398 . S
C1526 H1514 0.950 . S
C1526 C1525 1.398 . S
C1526 C1527 1.391 . S
C1527 H1515 0.950 . S
C1527 C1523 1.393 . S
C1527 C1526 1.391 . S
H1528 C1536 0.950 . S
H1529 C1541 0.950 . S
H1530 C1538 0.950 . S
H1531 C1540 0.950 . S
H1532 C1542 0.950 . S
H1533 C1544 0.950 . S
H1534 C1546 0.950 . S
H1535 C1547 0.950 . S
C1536 H1528 0.950 . S
C1536 C1537 1.386 . S
C1536 C1538 1.391 . S
C1537 C1536 1.386 . S
C1537 C1541 1.393 . S
C1538 H1530 0.950 . S
C1538 C1536 1.391 . S
C1538 C1539 1.400 . S
C1539 C1538 1.400 . S
C1539 C1540 1.398 . S
C1539 C1545 1.491 . S
C1540 H1531 0.950 . S
C1540 C1539 1.398 . S
C1540 C1541 1.391 . S
C1541 H1529 0.950 . S
C1541 C1537 1.393 . S
C1541 C1540 1.391 . S
C1542 H1532 0.950 . S
C1542 C1543 1.386 . S
C1542 C1544 1.391 1_455 S
C1543 C1542 1.386 . S
C1543 C1547 1.393 . S
C1544 H1533 0.950 . S
C1544 C1542 1.391 1_655 S
C1544 C1545 1.400 . S
C1545 C1539 1.491 . S
C1545 C1544 1.400 . S
C1545 C1546 1.398 1_655 S
C1546 H1534 0.950 . S
C1546 C1545 1.398 1_455 S
C1546 C1547 1.391 . S
C1547 H1535 0.950 . S
C1547 C1543 1.393 . S
C1547 C1546 1.391 . S
H1548 C1556 0.950 . S
H1549 C1561 0.950 . S
H1550 C1558 0.950 . S
H1551 C1560 0.950 . S
H1552 C1562 0.950 . S
H1553 C1564 0.950 . S
H1554 C1566 0.950 . S
H1555 C1567 0.950 . S
C1556 H1548 0.950 . S
C1556 C1557 1.386 . S
C1556 C1558 1.391 . S
C1557 C1556 1.386 . S
C1557 C1561 1.393 . S
C1558 H1550 0.950 . S
C1558 C1556 1.391 . S
C1558 C1559 1.400 . S
C1559 C1558 1.400 . S
C1559 C1560 1.398 . S
C1559 C1565 1.491 . S
C1560 H1551 0.950 . S
C1560 C1559 1.398 . S
C1560 C1561 1.391 . S
C1561 H1549 0.950 . S
C1561 C1557 1.393 . S
C1561 C1560 1.391 . S
C1562 H1552 0.950 . S
C1562 C1563 1.386 . S
C1562 C1564 1.391 . S
C1563 C1562 1.386 . S
C1563 C1567 1.393 . S
C1564 H1553 0.950 . S
C1564 C1562 1.391 . S
C1564 C1565 1.400 . S
C1565 C1559 1.491 . S
C1565 C1564 1.400 . S
C1565 C1566 1.398 . S
C1566 H1554 0.950 . S
C1566 C1565 1.398 . S
C1566 C1567 1.391 . S
C1567 H1555 0.950 . S
C1567 C1563 1.393 . S
C1567 C1566 1.391 . S
H1568 C1576 0.950 . S
H1569 C1581 0.950 . S
H1570 C1578 0.950 . S
H1571 C1580 0.950 . S
H1572 C1582 0.950 . S
H1573 C1584 0.950 . S
H1574 C1586 0.950 . S
H1575 C1587 0.950 . S
C1576 H1568 0.950 . S
C1576 C1577 1.386 . S
C1576 C1578 1.391 . S
C1577 C1576 1.386 . S
C1577 C1581 1.393 . S
C1578 H1570 0.950 . S
C1578 C1576 1.391 . S
C1578 C1579 1.400 . S
C1579 C1578 1.400 . S
C1579 C1580 1.398 . S
C1579 C1585 1.491 . S
C1580 H1571 0.950 . S
C1580 C1579 1.398 . S
C1580 C1581 1.391 . S
C1581 H1569 0.950 . S
C1581 C1577 1.393 . S
C1581 C1580 1.391 . S
C1582 H1572 0.950 . S
C1582 C1583 1.386 . S
C1582 C1584 1.391 1_655 S
C1583 C1582 1.386 . S
C1583 C1587 1.393 . S
C1584 H1573 0.950 . S
C1584 C1582 1.391 1_455 S
C1584 C1585 1.400 . S
C1585 C1579 1.491 . S
C1585 C1584 1.400 . S
C1585 C1586 1.398 1_455 S
C1586 H1574 0.950 . S
C1586 C1585 1.398 1_655 S
C1586 C1587 1.391 . S
C1587 H1575 0.950 . S
C1587 C1583 1.393 . S
C1587 C1586 1.391 . S
H1588 C1596 0.950 . S
H1589 C1601 0.950 . S
H1590 C1598 0.950 . S
H1591 C1600 0.950 . S
H1592 C1602 0.950 . S
H1593 C1604 0.950 . S
H1594 C1606 0.950 . S
H1595 C1607 0.950 . S
C1596 H1588 0.950 . S
C1596 C1597 1.386 . S
C1596 C1598 1.391 . S
C1597 C1596 1.386 . S
C1597 C1601 1.393 . S
C1598 H1590 0.950 . S
C1598 C1596 1.391 . S
C1598 C1599 1.400 . S
C1599 C1598 1.400 . S
C1599 C1600 1.398 . S
C1599 C1605 1.491 . S
C1600 H1591 0.950 . S
C1600 C1599 1.398 . S
C1600 C1601 1.391 . S
C1601 H1589 0.950 . S
C1601 C1597 1.393 . S
C1601 C1600 1.391 . S
C1602 H1592 0.950 . S
C1602 C1603 1.386 . S
C1602 C1604 1.391 . S
C1603 C1602 1.386 . S
C1603 C1607 1.393 . S
C1604 H1593 0.950 . S
C1604 C1602 1.391 . S
C1604 C1605 1.400 . S
C1605 C1599 1.491 . S
C1605 C1604 1.400 . S
C1605 C1606 1.398 . S
C1606 H1594 0.950 . S
C1606 C1605 1.398 . S
C1606 C1607 1.391 . S
C1607 H1595 0.950 . S
C1607 C1603 1.393 . S
C1607 C1606 1.391 . S
H1608 C1616 0.950 . S
H1609 C1621 0.950 . S
H1610 C1618 0.950 . S
H1611 C1620 0.950 . S
H1612 C1622 0.950 . S
H1613 C1624 0.950 . S
H1614 C1626 0.950 1_655 S
H1615 C1627 0.950 . S
C1616 H1608 0.950 . S
C1616 C1617 1.386 . S
C1616 C1618 1.391 . S
C1617 C1616 1.386 . S
C1617 C1621 1.393 . S
C1618 H1610 0.950 . S
C1618 C1616 1.391 . S
C1618 C1619 1.400 . S
C1619 C1618 1.400 . S
C1619 C1620 1.398 . S
C1619 C1625 1.488 1_655 S
C1620 H1611 0.950 . S
C1620 C1619 1.398 . S
C1620 C1621 1.391 . S
C1621 H1609 0.950 . S
C1621 C1617 1.393 . S
C1621 C1620 1.391 . S
C1622 H1612 0.950 . S
C1622 C1623 1.386 . S
C1622 C1624 1.391 . S
C1623 C1622 1.386 . S
C1623 C1627 1.393 . S
C1624 H1613 0.950 . S
C1624 C1622 1.391 . S
C1624 C1625 1.402 . S
C1625 C1619 1.488 1_455 S
C1625 C1624 1.402 . S
C1625 C1626 1.398 . S
C1626 H1614 0.950 1_455 S
C1626 C1625 1.398 . S
C1626 C1627 1.391 . S
C1627 H1615 0.950 . S
C1627 C1623 1.393 . S
C1627 C1626 1.391 . S
H1628 C1636 0.950 . S
H1629 C1641 0.950 . S
H1630 C1638 0.950 . S
H1631 C1640 0.950 . S
H1632 C1642 0.950 . S
H1633 C1644 0.950 . S
H1634 C1646 0.950 . S
H1635 C1647 0.950 . S
C1636 H1628 0.950 . S
C1636 C1637 1.386 . S
C1636 C1638 1.391 . S
C1637 C1636 1.386 . S
C1637 C1641 1.393 . S
C1638 H1630 0.950 . S
C1638 C1636 1.391 . S
C1638 C1639 1.400 . S
C1639 C1638 1.400 . S
C1639 C1640 1.398 . S
C1639 C1645 1.491 . S
C1640 H1631 0.950 . S
C1640 C1639 1.398 . S
C1640 C1641 1.391 . S
C1641 H1629 0.950 . S
C1641 C1637 1.393 . S
C1641 C1640 1.391 . S
C1642 H1632 0.950 . S
C1642 C1643 1.386 . S
C1642 C1644 1.391 . S
C1643 C1642 1.386 . S
C1643 C1647 1.393 . S
C1644 H1633 0.950 . S
C1644 C1642 1.391 . S
C1644 C1645 1.400 . S
C1645 C1639 1.491 . S
C1645 C1644 1.400 . S
C1645 C1646 1.398 . S
C1646 H1634 0.950 . S
C1646 C1645 1.398 . S
C1646 C1647 1.391 . S
C1647 H1635 0.950 . S
C1647 C1643 1.393 . S
C1647 C1646 1.391 . S
H1648 C1656 0.950 . S
H1649 C1661 0.950 . S
H1650 C1658 0.950 . S
H1651 C1660 0.950 . S
H1652 C1662 0.950 . S
H1653 C1664 0.950 . S
H1654 C1666 0.950 . S
H1655 C1667 0.950 . S
C1656 H1648 0.950 . S
C1656 C1657 1.386 . S
C1656 C1658 1.391 . S
C1657 C1656 1.386 . S
C1657 C1661 1.393 . S
C1658 H1650 0.950 . S
C1658 C1656 1.391 . S
C1658 C1659 1.400 . S
C1659 C1658 1.400 . S
C1659 C1660 1.398 . S
C1659 C1665 1.491 . S
C1660 H1651 0.950 . S
C1660 C1659 1.398 . S
C1660 C1661 1.391 . S
C1661 H1649 0.950 . S
C1661 C1657 1.393 . S
C1661 C1660 1.391 . S
C1662 H1652 0.950 . S
C1662 C1663 1.386 . S
C1662 C1664 1.391 . S
C1663 C1662 1.386 . S
C1663 C1667 1.393 . S
C1664 H1653 0.950 . S
C1664 C1662 1.391 . S
C1664 C1665 1.400 . S
C1665 C1659 1.491 . S
C1665 C1664 1.400 . S
C1665 C1666 1.398 . S
C1666 H1654 0.950 . S
C1666 C1665 1.398 . S
C1666 C1667 1.391 . S
C1667 H1655 0.950 . S
C1667 C1663 1.393 . S
C1667 C1666 1.391 . S
H1668 C1676 0.950 . S
H1669 C1681 0.950 . S
H1670 C1678 0.950 . S
H1671 C1680 0.950 . S
H1672 C1682 0.950 . S
H1673 C1684 0.950 . S
H1674 C1686 0.950 . S
H1675 C1687 0.950 . S
C1676 H1668 0.950 . S
C1676 C1677 1.386 . S
C1676 C1678 1.391 . S
C1677 C1676 1.386 . S
C1677 C1681 1.393 . S
C1678 H1670 0.950 . S
C1678 C1676 1.391 . S
C1678 C1679 1.400 . S
C1679 C1678 1.400 . S
C1679 C1680 1.398 . S
C1679 C1685 1.491 . S
C1680 H1671 0.950 . S
C1680 C1679 1.398 . S
C1680 C1681 1.391 . S
C1681 H1669 0.950 . S
C1681 C1677 1.393 . S
C1681 C1680 1.391 . S
C1682 H1672 0.950 . S
C1682 C1683 1.386 . S
C1682 C1684 1.391 1_556 S
C1683 C1682 1.386 . S
C1683 C1687 1.393 . S
C1684 H1673 0.950 . S
C1684 C1682 1.391 1_554 S
C1684 C1685 1.400 . S
C1685 C1679 1.491 . S
C1685 C1684 1.400 . S
C1685 C1686 1.398 1_554 S
C1686 H1674 0.950 . S
C1686 C1685 1.398 1_556 S
C1686 C1687 1.391 . S
C1687 H1675 0.950 . S
C1687 C1683 1.393 . S
C1687 C1686 1.391 . S
H1688 C1696 0.950 1_455 S
H1689 C1701 0.950 . S
H1690 C1698 0.950 . S
H1691 C1700 0.950 . S
H1692 C1702 0.950 . S
H1693 C1704 0.950 . S
H1694 C1706 0.950 . S
H1695 C1707 0.950 . S
C1696 H1688 0.950 1_655 S
C1696 C1697 1.386 . S
C1696 C1698 1.391 . S
C1697 C1696 1.386 . S
C1697 C1701 1.393 . S
C1698 H1690 0.950 . S
C1698 C1696 1.391 . S
C1698 C1699 1.400 . S
C1699 C1698 1.400 . S
C1699 C1700 1.398 . S
C1699 C1705 1.491 . S
C1700 H1691 0.950 . S
C1700 C1699 1.398 . S
C1700 C1701 1.391 . S
C1701 H1689 0.950 . S
C1701 C1697 1.393 . S
C1701 C1700 1.391 . S
C1702 H1692 0.950 . S
C1702 C1703 1.386 . S
C1702 C1704 1.391 . S
C1703 C1702 1.386 . S
C1703 C1707 1.393 . S
C1704 H1693 0.950 . S
C1704 C1702 1.391 . S
C1704 C1705 1.400 . S
C1705 C1699 1.491 . S
C1705 C1704 1.400 . S
C1705 C1706 1.398 . S
C1706 H1694 0.950 . S
C1706 C1705 1.398 . S
C1706 C1707 1.391 . S
C1707 H1695 0.950 . S
C1707 C1703 1.393 . S
C1707 C1706 1.391 . S
H1708 C1716 0.950 . S
H1709 C1721 0.950 . S
H1710 C1718 0.950 . S
H1711 C1720 0.950 . S
H1712 C1722 0.950 . S
H1713 C1724 0.950 . S
H1714 C1726 0.950 . S
H1715 C1727 0.950 . S
C1716 H1708 0.950 . S
C1716 C1717 1.386 . S
C1716 C1718 1.391 . S
C1717 C1716 1.386 . S
C1717 C1721 1.393 . S
C1718 H1710 0.950 . S
C1718 C1716 1.391 . S
C1718 C1719 1.400 . S
C1719 C1718 1.400 . S
C1719 C1720 1.398 . S
C1719 C1725 1.491 . S
C1720 H1711 0.950 . S
C1720 C1719 1.398 . S
C1720 C1721 1.391 . S
C1721 H1709 0.950 . S
C1721 C1717 1.393 . S
C1721 C1720 1.391 . S
C1722 H1712 0.950 . S
C1722 C1723 1.386 . S
C1722 C1724 1.391 . S
C1723 C1722 1.386 . S
C1723 C1727 1.393 . S
C1724 H1713 0.950 . S
C1724 C1722 1.391 . S
C1724 C1725 1.400 . S
C1725 C1719 1.491 . S
C1725 C1724 1.400 . S
C1725 C1726 1.398 . S
C1726 H1714 0.950 . S
C1726 C1725 1.398 . S
C1726 C1727 1.391 . S
C1727 H1715 0.950 . S
C1727 C1723 1.393 . S
C1727 C1726 1.391 . S
H1728 C1736 0.950 . S
H1729 C1741 0.950 . S
H1730 C1738 0.950 . S
H1731 C1740 0.950 . S
H1732 C1742 0.950 . S
H1733 C1744 0.950 . S
H1734 C1746 0.950 . S
H1735 C1747 0.950 . S
C1736 H1728 0.950 . S
C1736 C1737 1.386 . S
C1736 C1738 1.391 . S
C1737 C1736 1.386 . S
C1737 C1741 1.393 . S
C1738 H1730 0.950 . S
C1738 C1736 1.391 . S
C1738 C1739 1.400 . S
C1739 C1738 1.400 . S
C1739 C1740 1.398 . S
C1739 C1745 1.491 . S
C1740 H1731 0.950 . S
C1740 C1739 1.398 . S
C1740 C1741 1.391 . S
C1741 H1729 0.950 . S
C1741 C1737 1.393 . S
C1741 C1740 1.391 . S
C1742 H1732 0.950 . S
C1742 C1743 1.386 . S
C1742 C1744 1.391 . S
C1743 C1742 1.386 . S
C1743 C1747 1.393 . S
C1744 H1733 0.950 . S
C1744 C1742 1.391 . S
C1744 C1745 1.400 . S
C1745 C1739 1.491 . S
C1745 C1744 1.400 . S
C1745 C1746 1.398 . S
C1746 H1734 0.950 . S
C1746 C1745 1.398 . S
C1746 C1747 1.391 . S
C1747 H1735 0.950 . S
C1747 C1743 1.393 . S
C1747 C1746 1.391 . S
H1748 C1756 0.950 . S
H1749 C1761 0.950 . S
H1750 C1758 0.950 . S
H1751 C1760 0.950 . S
H1752 C1762 0.950 . S
H1753 C1764 0.950 . S
H1754 C1766 0.950 1_556 S
H1755 C1767 0.950 . S
C1756 H1748 0.950 . S
C1756 C1757 1.386 . S
C1756 C1758 1.391 . S
C1757 C1756 1.386 . S
C1757 C1761 1.393 . S
C1758 H1750 0.950 . S
C1758 C1756 1.391 . S
C1758 C1759 1.400 . S
C1759 C1758 1.400 . S
C1759 C1760 1.398 . S
C1759 C1765 1.491 1_556 S
C1760 H1751 0.950 . S
C1760 C1759 1.398 . S
C1760 C1761 1.391 . S
C1761 H1749 0.950 . S
C1761 C1757 1.393 . S
C1761 C1760 1.391 . S
C1762 H1752 0.950 . S
C1762 C1763 1.386 . S
C1762 C1764 1.391 . S
C1763 C1762 1.386 . S
C1763 C1767 1.393 . S
C1764 H1753 0.950 . S
C1764 C1762 1.391 . S
C1764 C1765 1.400 . S
C1765 C1759 1.491 1_554 S
C1765 C1764 1.400 . S
C1765 C1766 1.398 . S
C1766 H1754 0.950 1_554 S
C1766 C1765 1.398 . S
C1766 C1767 1.391 . S
C1767 H1755 0.950 . S
C1767 C1763 1.393 . S
C1767 C1766 1.391 . S
H1768 C1776 0.950 . S
H1769 C1781 0.950 . S
H1770 C1778 0.950 . S
H1771 C1780 0.950 . S
H1772 C1782 0.950 . S
H1773 C1784 0.950 . S
H1774 C1786 0.950 . S
H1775 C1787 0.950 . S
C1776 H1768 0.950 . S
C1776 C1777 1.386 . S
C1776 C1778 1.391 . S
C1777 C1776 1.386 . S
C1777 C1781 1.393 . S
C1778 H1770 0.950 . S
C1778 C1776 1.391 . S
C1778 C1779 1.400 . S
C1779 C1778 1.400 . S
C1779 C1780 1.398 . S
C1779 C1785 1.491 . S
C1780 H1771 0.950 . S
C1780 C1779 1.398 . S
C1780 C1781 1.391 . S
C1781 H1769 0.950 . S
C1781 C1777 1.393 . S
C1781 C1780 1.391 . S
C1782 H1772 0.950 . S
C1782 C1783 1.386 . S
C1782 C1784 1.391 . S
C1783 C1782 1.386 . S
C1783 C1787 1.393 . S
C1784 H1773 0.950 . S
C1784 C1782 1.391 . S
C1784 C1785 1.400 . S
C1785 C1779 1.491 . S
C1785 C1784 1.400 . S
C1785 C1786 1.398 . S
C1786 H1774 0.950 . S
C1786 C1785 1.398 . S
C1786 C1787 1.391 . S
C1787 H1775 0.950 . S
C1787 C1783 1.393 . S
C1787 C1786 1.391 . S
H1788 C1796 0.950 . S
H1789 C1801 0.950 . S
H1790 C1798 0.950 . S
H1791 C1800 0.950 . S
H1792 C1802 0.950 . S
H1793 C1804 0.950 . S
H1794 C1806 0.950 . S
H1795 C1807 0.950 . S
C1796 H1788 0.950 . S
C1796 C1797 1.386 . S
C1796 C1798 1.391 . S
C1797 C1796 1.386 . S
C1797 C1801 1.393 . S
C1798 H1790 0.950 . S
C1798 C1796 1.391 . S
C1798 C1799 1.400 . S
C1799 C1798 1.400 . S
C1799 C1800 1.398 . S
C1799 C1805 1.491 . S
C1800 H1791 0.950 . S
C1800 C1799 1.398 . S
C1800 C1801 1.391 . S
C1801 H1789 0.950 . S
C1801 C1797 1.393 . S
C1801 C1800 1.391 . S
C1802 H1792 0.950 . S
C1802 C1803 1.386 . S
C1802 C1804 1.391 . S
C1803 C1802 1.386 . S
C1803 C1807 1.393 . S
C1804 H1793 0.950 . S
C1804 C1802 1.391 . S
C1804 C1805 1.400 . S
C1805 C1799 1.491 . S
C1805 C1804 1.400 . S
C1805 C1806 1.398 . S
C1806 H1794 0.950 . S
C1806 C1805 1.398 . S
C1806 C1807 1.391 . S
C1807 H1795 0.950 . S
C1807 C1803 1.393 . S
C1807 C1806 1.391 . S
H1808 C1816 0.950 . S
H1809 C1821 0.950 . S
H1810 C1818 0.950 . S
H1811 C1820 0.950 . S
H1812 C1822 0.950 . S
H1813 C1824 0.950 . S
H1814 C1826 0.950 . S
H1815 C1827 0.950 . S
C1816 H1808 0.950 . S
C1816 C1817 1.386 . S
C1816 C1818 1.391 . S
C1817 C1816 1.386 . S
C1817 C1821 1.393 . S
C1818 H1810 0.950 . S
C1818 C1816 1.391 . S
C1818 C1819 1.400 . S
C1819 C1818 1.400 . S
C1819 C1820 1.398 . S
C1819 C1825 1.491 . S
C1820 H1811 0.950 . S
C1820 C1819 1.398 . S
C1820 C1821 1.391 . S
C1821 H1809 0.950 . S
C1821 C1817 1.393 . S
C1821 C1820 1.391 . S
C1822 H1812 0.950 . S
C1822 C1823 1.386 . S
C1822 C1824 1.391 . S
C1823 C1822 1.386 . S
C1823 C1827 1.393 . S
C1824 H1813 0.950 . S
C1824 C1822 1.391 . S
C1824 C1825 1.400 . S
C1825 C1819 1.491 . S
C1825 C1824 1.400 . S
C1825 C1826 1.398 . S
C1826 H1814 0.950 . S
C1826 C1825 1.398 . S
C1826 C1827 1.391 . S
C1827 H1815 0.950 . S
C1827 C1823 1.393 . S
C1827 C1826 1.391 . S
H1828 C1836 0.950 . S
H1829 C1841 0.950 . S
H1830 C1838 0.950 . S
H1831 C1840 0.950 . S
H1832 C1842 0.950 . S
H1833 C1844 0.950 . S
H1834 C1846 0.950 . S
H1835 C1847 0.950 . S
C1836 H1828 0.950 . S
C1836 C1837 1.386 . S
C1836 C1838 1.391 . S
C1837 C1836 1.386 . S
C1837 C1841 1.393 . S
C1838 H1830 0.950 . S
C1838 C1836 1.391 . S
C1838 C1839 1.400 . S
C1839 C1838 1.400 . S
C1839 C1840 1.398 . S
C1839 C1845 1.491 . S
C1840 H1831 0.950 . S
C1840 C1839 1.398 . S
C1840 C1841 1.391 . S
C1841 H1829 0.950 . S
C1841 C1837 1.393 . S
C1841 C1840 1.391 . S
C1842 H1832 0.950 . S
C1842 C1843 1.386 . S
C1842 C1844 1.391 . S
C1843 C1842 1.386 . S
C1843 C1847 1.393 . S
C1844 H1833 0.950 . S
C1844 C1842 1.391 . S
C1844 C1845 1.400 . S
C1845 C1839 1.491 . S
C1845 C1844 1.400 . S
C1845 C1846 1.398 . S
C1846 H1834 0.950 . S
C1846 C1845 1.398 . S
C1846 C1847 1.391 . S
C1847 H1835 0.950 . S
C1847 C1843 1.393 . S
C1847 C1846 1.391 . S
H1848 C1856 0.950 . S
H1849 C1861 0.950 . S
H1850 C1858 0.950 . S
H1851 C1860 0.950 . S
H1852 C1862 0.950 . S
H1853 C1864 0.950 . S
H1854 C1866 0.950 . S
H1855 C1867 0.950 . S
C1856 H1848 0.950 . S
C1856 C1857 1.386 . S
C1856 C1858 1.391 . S
C1857 C1856 1.386 . S
C1857 C1861 1.393 . S
C1858 H1850 0.950 . S
C1858 C1856 1.391 . S
C1858 C1859 1.400 . S
C1859 C1858 1.400 . S
C1859 C1860 1.398 . S
C1859 C1865 1.491 . S
C1860 H1851 0.950 . S
C1860 C1859 1.398 . S
C1860 C1861 1.391 . S
C1861 H1849 0.950 . S
C1861 C1857 1.393 . S
C1861 C1860 1.391 . S
C1862 H1852 0.950 . S
C1862 C1863 1.386 . S
C1862 C1864 1.391 . S
C1863 C1862 1.386 . S
C1863 C1867 1.393 . S
C1864 H1853 0.950 . S
C1864 C1862 1.391 . S
C1864 C1865 1.400 . S
C1865 C1859 1.491 . S
C1865 C1864 1.400 . S
C1865 C1866 1.398 . S
C1866 H1854 0.950 . S
C1866 C1865 1.398 . S
C1866 C1867 1.391 . S
C1867 H1855 0.950 . S
C1867 C1863 1.393 . S
C1867 C1866 1.391 . S
H1868 C1876 0.950 . S
H1869 C1881 0.950 . S
H1870 C1878 0.950 . S
H1871 C1880 0.950 . S
H1872 C1882 0.950 . S
H1873 C1884 0.950 . S
H1874 C1886 0.950 . S
H1875 C1887 0.950 . S
C1876 H1868 0.950 . S
C1876 C1877 1.386 . S
C1876 C1878 1.391 . S
C1877 C1876 1.386 . S
C1877 C1881 1.393 . S
C1878 H1870 0.950 . S
C1878 C1876 1.391 . S
C1878 C1879 1.400 . S
C1879 C1878 1.400 . S
C1879 C1880 1.398 . S
C1879 C1885 1.491 . S
C1880 H1871 0.950 . S
C1880 C1879 1.398 . S
C1880 C1881 1.391 . S
C1881 H1869 0.950 . S
C1881 C1877 1.393 . S
C1881 C1880 1.391 . S
C1882 H1872 0.950 . S
C1882 C1883 1.386 . S
C1882 C1884 1.391 . S
C1883 C1882 1.386 . S
C1883 C1887 1.393 . S
C1884 H1873 0.950 . S
C1884 C1882 1.391 . S
C1884 C1885 1.400 . S
C1885 C1879 1.491 . S
C1885 C1884 1.400 . S
C1885 C1886 1.398 . S
C1886 H1874 0.950 . S
C1886 C1885 1.398 . S
C1886 C1887 1.391 . S
C1887 H1875 0.950 . S
C1887 C1883 1.393 . S
C1887 C1886 1.391 . S
H1888 C1896 0.950 . S
H1889 C1901 0.950 . S
H1890 C1898 0.950 . S
H1891 C1900 0.950 . S
H1892 C1902 0.950 . S
H1893 C1904 0.950 . S
H1894 C1906 0.950 . S
H1895 C1907 0.950 . S
C1896 H1888 0.950 . S
C1896 C1897 1.386 . S
C1896 C1898 1.391 . S
C1897 C1896 1.386 . S
C1897 C1901 1.393 . S
C1898 H1890 0.950 . S
C1898 C1896 1.391 . S
C1898 C1899 1.400 . S
C1899 C1898 1.400 . S
C1899 C1900 1.398 . S
C1899 C1905 1.491 . S
C1900 H1891 0.950 . S
C1900 C1899 1.398 . S
C1900 C1901 1.391 . S
C1901 H1889 0.950 . S
C1901 C1897 1.393 . S
C1901 C1900 1.391 . S
C1902 H1892 0.950 . S
C1902 C1903 1.386 . S
C1902 C1904 1.391 . S
C1903 C1902 1.386 . S
C1903 C1907 1.393 . S
C1904 H1893 0.950 . S
C1904 C1902 1.391 . S
C1904 C1905 1.400 . S
C1905 C1899 1.491 . S
C1905 C1904 1.400 . S
C1905 C1906 1.398 . S
C1906 H1894 0.950 . S
C1906 C1905 1.398 . S
C1906 C1907 1.391 . S
C1907 H1895 0.950 . S
C1907 C1903 1.393 . S
C1907 C1906 1.391 . S
H1908 C1916 0.950 . S
H1909 C1921 0.950 . S
H1910 C1918 0.950 . S
H1911 C1920 0.950 . S
H1912 C1922 0.950 . S
H1913 C1924 0.950 . S
H1914 C1926 0.950 . S
H1915 C1927 0.950 . S
C1916 H1908 0.950 . S
C1916 C1917 1.386 . S
C1916 C1918 1.391 . S
C1917 C1916 1.386 . S
C1917 C1921 1.393 . S
C1918 H1910 0.950 . S
C1918 C1916 1.391 . S
C1918 C1919 1.400 . S
C1919 C1918 1.400 . S
C1919 C1920 1.398 . S
C1919 C1925 1.491 . S
C1920 H1911 0.950 . S
C1920 C1919 1.398 . S
C1920 C1921 1.391 . S
C1921 H1909 0.950 . S
C1921 C1917 1.393 . S
C1921 C1920 1.391 . S
C1922 H1912 0.950 . S
C1922 C1923 1.386 . S
C1922 C1924 1.391 . S
C1923 C1922 1.386 . S
C1923 C1927 1.393 . S
C1924 H1913 0.950 . S
C1924 C1922 1.391 . S
C1924 C1925 1.400 . S
C1925 C1919 1.491 . S
C1925 C1924 1.400 . S
C1925 C1926 1.398 . S
C1926 H1914 0.950 . S
C1926 C1925 1.398 . S
C1926 C1927 1.391 . S
C1927 H1915 0.950 . S
C1927 C1923 1.393 . S
C1927 C1926 1.391 . S
H1928 C1936 0.950 . S
H1929 C1941 0.950 . S
H1930 C1938 0.950 . S
H1931 C1940 0.950 . S
H1932 C1942 0.950 . S
H1933 C1944 0.950 . S
H1934 C1946 0.950 . S
H1935 C1947 0.950 . S
C1936 H1928 0.950 . S
C1936 C1937 1.386 . S
C1936 C1938 1.391 . S
C1937 C1936 1.386 . S
C1937 C1941 1.393 . S
C1938 H1930 0.950 . S
C1938 C1936 1.391 . S
C1938 C1939 1.400 . S
C1939 C1938 1.400 . S
C1939 C1940 1.398 . S
C1939 C1945 1.491 . S
C1940 H1931 0.950 . S
C1940 C1939 1.398 . S
C1940 C1941 1.391 . S
C1941 H1929 0.950 . S
C1941 C1937 1.393 . S
C1941 C1940 1.391 . S
C1942 H1932 0.950 . S
C1942 C1943 1.386 . S
C1942 C1944 1.391 . S
C1943 C1942 1.386 . S
C1943 C1947 1.393 . S
C1944 H1933 0.950 . S
C1944 C1942 1.391 . S
C1944 C1945 1.400 . S
C1945 C1939 1.491 . S
C1945 C1944 1.400 . S
C1945 C1946 1.398 . S
C1946 H1934 0.950 . S
C1946 C1945 1.398 . S
C1946 C1947 1.391 . S
C1947 H1935 0.950 . S
C1947 C1943 1.393 . S
C1947 C1946 1.391 . S
H1948 C1956 0.950 . S
H1949 C1961 0.950 . S
H1950 C1958 0.950 . S
H1951 C1960 0.950 . S
H1952 C1962 0.950 . S
H1953 C1964 0.950 . S
H1954 C1966 0.950 . S
H1955 C1967 0.950 . S
C1956 H1948 0.950 . S
C1956 C1957 1.386 . S
C1956 C1958 1.391 . S
C1957 C1956 1.386 . S
C1957 C1961 1.393 . S
C1958 H1950 0.950 . S
C1958 C1956 1.391 . S
C1958 C1959 1.400 . S
C1959 C1958 1.400 . S
C1959 C1960 1.398 . S
C1959 C1965 1.491 . S
C1960 H1951 0.950 . S
C1960 C1959 1.398 . S
C1960 C1961 1.391 . S
C1961 H1949 0.950 . S
C1961 C1957 1.393 . S
C1961 C1960 1.391 . S
C1962 H1952 0.950 . S
C1962 C1963 1.386 . S
C1962 C1964 1.391 . S
C1963 C1962 1.386 . S
C1963 C1967 1.393 . S
C1964 H1953 0.950 . S
C1964 C1962 1.391 . S
C1964 C1965 1.400 . S
C1965 C1959 1.491 . S
C1965 C1964 1.400 . S
C1965 C1966 1.398 . S
C1966 H1954 0.950 . S
C1966 C1965 1.398 . S
C1966 C1967 1.391 . S
C1967 H1955 0.950 . S
C1967 C1963 1.393 . S
C1967 C1966 1.391 . S
H1968 C1976 0.950 . S
H1969 C1981 0.950 . S
H1970 C1978 0.950 . S
H1971 C1980 0.950 . S
H1972 C1982 0.950 . S
H1973 C1984 0.950 . S
H1974 C1986 0.950 . S
H1975 C1987 0.950 . S
C1976 H1968 0.950 . S
C1976 C1977 1.386 . S
C1976 C1978 1.391 . S
C1977 C1976 1.386 . S
C1977 C1981 1.393 . S
C1978 H1970 0.950 . S
C1978 C1976 1.391 . S
C1978 C1979 1.400 . S
C1979 C1978 1.400 . S
C1979 C1980 1.398 . S
C1979 C1985 1.491 . S
C1980 H1971 0.950 . S
C1980 C1979 1.398 . S
C1980 C1981 1.391 . S
C1981 H1969 0.950 . S
C1981 C1977 1.393 . S
C1981 C1980 1.391 . S
C1982 H1972 0.950 . S
C1982 C1983 1.386 . S
C1982 C1984 1.391 . S
C1983 C1982 1.386 . S
C1983 C1987 1.393 . S
C1984 H1973 0.950 . S
C1984 C1982 1.391 . S
C1984 C1985 1.400 . S
C1985 C1979 1.491 . S
C1985 C1984 1.400 . S
C1985 C1986 1.398 . S
C1986 H1974 0.950 . S
C1986 C1985 1.398 . S
C1986 C1987 1.391 . S
C1987 H1975 0.950 . S
C1987 C1983 1.393 . S
C1987 C1986 1.391 . S
H1988 C1996 0.950 . S
H1989 C2001 0.950 . S
H1990 C1998 0.950 . S
H1991 C2000 0.950 . S
H1992 C2002 0.950 . S
H1993 C2004 0.950 . S
H1994 C2006 0.950 . S
H1995 C2007 0.950 . S
C1996 H1988 0.950 . S
C1996 C1997 1.386 . S
C1996 C1998 1.391 . S
C1997 C1996 1.386 . S
C1997 C2001 1.393 . S
C1998 H1990 0.950 . S
C1998 C1996 1.391 . S
C1998 C1999 1.400 . S
C1999 C1998 1.400 . S
C1999 C2000 1.398 . S
C1999 C2005 1.491 . S
C2000 H1991 0.950 . S
C2000 C1999 1.398 . S
C2000 C2001 1.391 . S
C2001 H1989 0.950 . S
C2001 C1997 1.393 . S
C2001 C2000 1.391 . S
C2002 H1992 0.950 . S
C2002 C2003 1.386 . S
C2002 C2004 1.391 . S
C2003 C2002 1.386 . S
C2003 C2007 1.393 . S
C2004 H1993 0.950 . S
C2004 C2002 1.391 . S
C2004 C2005 1.400 . S
C2005 C1999 1.491 . S
C2005 C2004 1.400 . S
C2005 C2006 1.398 . S
C2006 H1994 0.950 . S
C2006 C2005 1.398 . S
C2006 C2007 1.391 . S
C2007 H1995 0.950 . S
C2007 C2003 1.393 . S
C2007 C2006 1.391 . S
H2008 C2016 0.950 . S
H2009 C2021 0.950 . S
H2010 C2018 0.950 . S
H2011 C2020 0.950 . S
H2012 C2022 0.950 . S
H2013 C2024 0.950 . S
H2014 C2026 0.950 . S
H2015 C2027 0.950 . S
C2016 H2008 0.950 . S
C2016 C2017 1.386 . S
C2016 C2018 1.391 . S
C2017 C2016 1.386 . S
C2017 C2021 1.393 . S
C2018 H2010 0.950 . S
C2018 C2016 1.391 . S
C2018 C2019 1.400 . S
C2019 C2018 1.400 . S
C2019 C2020 1.398 . S
C2019 C2025 1.491 . S
C2020 H2011 0.950 . S
C2020 C2019 1.398 . S
C2020 C2021 1.391 . S
C2021 H2009 0.950 . S
C2021 C2017 1.393 . S
C2021 C2020 1.391 . S
C2022 H2012 0.950 . S
C2022 C2023 1.386 . S
C2022 C2024 1.391 . S
C2023 C2022 1.386 . S
C2023 C2027 1.393 . S
C2024 H2013 0.950 . S
C2024 C2022 1.391 . S
C2024 C2025 1.400 . S
C2025 C2019 1.491 . S
C2025 C2024 1.400 . S
C2025 C2026 1.398 . S
C2026 H2014 0.950 . S
C2026 C2025 1.398 . S
C2026 C2027 1.391 . S
C2027 H2015 0.950 . S
C2027 C2023 1.393 . S
C2027 C2026 1.391 . S
H2028 C2036 0.950 . S
H2029 C2041 0.950 . S
H2030 C2038 0.950 . S
H2031 C2040 0.950 . S
H2032 C2042 0.950 . S
H2033 C2044 0.950 . S
H2034 C2046 0.950 . S
H2035 C2047 0.950 . S
C2036 H2028 0.950 . S
C2036 C2037 1.386 . S
C2036 C2038 1.391 . S
C2037 C2036 1.386 . S
C2037 C2041 1.393 . S
C2038 H2030 0.950 . S
C2038 C2036 1.391 . S
C2038 C2039 1.400 . S
C2039 C2038 1.400 . S
C2039 C2040 1.398 . S
C2039 C2045 1.491 . S
C2040 H2031 0.950 . S
C2040 C2039 1.398 . S
C2040 C2041 1.391 . S
C2041 H2029 0.950 . S
C2041 C2037 1.393 . S
C2041 C2040 1.391 . S
C2042 H2032 0.950 . S
C2042 C2043 1.386 . S
C2042 C2044 1.391 . S
C2043 C2042 1.386 . S
C2043 C2047 1.393 . S
C2044 H2033 0.950 . S
C2044 C2042 1.391 . S
C2044 C2045 1.400 . S
C2045 C2039 1.491 . S
C2045 C2044 1.400 . S
C2045 C2046 1.398 . S
C2046 H2034 0.950 . S
C2046 C2045 1.398 . S
C2046 C2047 1.391 . S
C2047 H2035 0.950 . S
C2047 C2043 1.393 . S
C2047 C2046 1.391 . S
H2048 C2056 0.950 . S
H2049 C2061 0.950 . S
H2050 C2058 0.950 . S
H2051 C2060 0.950 . S
H2052 C2062 0.950 . S
H2053 C2064 0.950 . S
H2054 C2066 0.950 . S
H2055 C2067 0.950 . S
C2056 H2048 0.950 . S
C2056 C2057 1.386 . S
C2056 C2058 1.391 . S
C2057 C2056 1.386 . S
C2057 C2061 1.393 . S
C2058 H2050 0.950 . S
C2058 C2056 1.391 . S
C2058 C2059 1.400 . S
C2059 C2058 1.400 . S
C2059 C2060 1.398 . S
C2059 C2065 1.491 . S
C2060 H2051 0.950 . S
C2060 C2059 1.398 . S
C2060 C2061 1.391 . S
C2061 H2049 0.950 . S
C2061 C2057 1.393 . S
C2061 C2060 1.391 . S
C2062 H2052 0.950 . S
C2062 C2063 1.386 . S
C2062 C2064 1.391 . S
C2063 C2062 1.386 . S
C2063 C2067 1.393 . S
C2064 H2053 0.950 . S
C2064 C2062 1.391 . S
C2064 C2065 1.400 . S
C2065 C2059 1.491 . S
C2065 C2064 1.400 . S
C2065 C2066 1.398 . S
C2066 H2054 0.950 . S
C2066 C2065 1.398 . S
C2066 C2067 1.391 . S
C2067 H2055 0.950 . S
C2067 C2063 1.393 . S
C2067 C2066 1.391 . S
H2068 C2076 0.950 . S
H2069 C2081 0.950 . S
H2070 C2078 0.950 . S
H2071 C2080 0.950 . S
H2072 C2082 0.950 . S
H2073 C2084 0.950 . S
H2074 C2086 0.950 . S
H2075 C2087 0.950 . S
C2076 H2068 0.950 . S
C2076 C2077 1.386 . S
C2076 C2078 1.391 . S
C2077 C2076 1.386 . S
C2077 C2081 1.393 . S
C2078 H2070 0.950 . S
C2078 C2076 1.391 . S
C2078 C2079 1.400 . S
C2079 C2078 1.400 . S
C2079 C2080 1.398 . S
C2079 C2085 1.491 . S
C2080 H2071 0.950 . S
C2080 C2079 1.398 . S
C2080 C2081 1.391 . S
C2081 H2069 0.950 . S
C2081 C2077 1.393 . S
C2081 C2080 1.391 . S
C2082 H2072 0.950 . S
C2082 C2083 1.386 . S
C2082 C2084 1.391 . S
C2083 C2082 1.386 . S
C2083 C2087 1.393 . S
C2084 H2073 0.950 . S
C2084 C2082 1.391 . S
C2084 C2085 1.400 . S
C2085 C2079 1.491 . S
C2085 C2084 1.400 . S
C2085 C2086 1.398 . S
C2086 H2074 0.950 . S
C2086 C2085 1.398 . S
C2086 C2087 1.391 . S
C2087 H2075 0.950 . S
C2087 C2083 1.393 . S
C2087 C2086 1.391 . S
H2088 C2096 0.950 . S
H2089 C2101 0.950 . S
H2090 C2098 0.950 . S
H2091 C2100 0.950 . S
H2092 C2102 0.950 . S
H2093 C2104 0.950 . S
H2094 C2106 0.950 . S
H2095 C2107 0.950 . S
C2096 H2088 0.950 . S
C2096 C2097 1.386 . S
C2096 C2098 1.391 . S
C2097 C2096 1.386 . S
C2097 C2101 1.393 . S
C2098 H2090 0.950 . S
C2098 C2096 1.391 . S
C2098 C2099 1.400 . S
C2099 C2098 1.400 . S
C2099 C2100 1.398 . S
C2099 C2105 1.491 . S
C2100 H2091 0.950 . S
C2100 C2099 1.398 . S
C2100 C2101 1.391 . S
C2101 H2089 0.950 . S
C2101 C2097 1.393 . S
C2101 C2100 1.391 . S
C2102 H2092 0.950 . S
C2102 C2103 1.386 . S
C2102 C2104 1.391 . S
C2103 C2102 1.386 . S
C2103 C2107 1.393 . S
C2104 H2093 0.950 . S
C2104 C2102 1.391 . S
C2104 C2105 1.400 . S
C2105 C2099 1.491 . S
C2105 C2104 1.400 . S
C2105 C2106 1.398 . S
C2106 H2094 0.950 . S
C2106 C2105 1.398 . S
C2106 C2107 1.391 . S
C2107 H2095 0.950 . S
C2107 C2103 1.393 . S
C2107 C2106 1.391 . S
H2108 C2116 0.950 . S
H2109 C2121 0.950 . S
H2110 C2118 0.950 . S
H2111 C2120 0.950 . S
H2112 C2122 0.950 . S
H2113 C2124 0.950 1_655 S
H2114 C2126 0.950 . S
H2115 C2127 0.950 . S
C2116 H2108 0.950 . S
C2116 C2117 1.386 . S
C2116 C2118 1.391 . S
C2117 C2116 1.386 . S
C2117 C2121 1.393 . S
C2118 H2110 0.950 . S
C2118 C2116 1.391 . S
C2118 C2119 1.400 . S
C2119 C2118 1.400 . S
C2119 C2120 1.398 . S
C2119 C2125 1.491 1_655 S
C2120 H2111 0.950 . S
C2120 C2119 1.398 . S
C2120 C2121 1.391 . S
C2121 H2109 0.950 . S
C2121 C2117 1.393 . S
C2121 C2120 1.391 . S
C2122 H2112 0.950 . S
C2122 C2123 1.386 . S
C2122 C2124 1.391 . S
C2123 C2122 1.386 . S
C2123 C2127 1.393 . S
C2124 H2113 0.950 1_455 S
C2124 C2122 1.391 . S
C2124 C2125 1.400 . S
C2125 C2119 1.491 1_455 S
C2125 C2124 1.400 . S
C2125 C2126 1.398 . S
C2126 H2114 0.950 . S
C2126 C2125 1.398 . S
C2126 C2127 1.391 . S
C2127 H2115 0.950 . S
C2127 C2123 1.393 . S
C2127 C2126 1.391 . S
H2128 C2136 0.950 . S
H2129 C2141 0.950 . S
H2130 C2138 0.950 . S
H2131 C2140 0.950 . S
H2132 C2142 0.950 . S
H2133 C2144 0.950 . S
H2134 C2146 0.950 . S
H2135 C2147 0.950 . S
C2136 H2128 0.950 . S
C2136 C2137 1.386 . S
C2136 C2138 1.391 . S
C2137 C2136 1.386 . S
C2137 C2141 1.393 . S
C2138 H2130 0.950 . S
C2138 C2136 1.391 . S
C2138 C2139 1.400 . S
C2139 C2138 1.400 . S
C2139 C2140 1.398 . S
C2139 C2145 1.491 . S
C2140 H2131 0.950 . S
C2140 C2139 1.398 . S
C2140 C2141 1.391 . S
C2141 H2129 0.950 . S
C2141 C2137 1.393 . S
C2141 C2140 1.391 . S
C2142 H2132 0.950 . S
C2142 C2143 1.386 . S
C2142 C2144 1.391 . S
C2143 C2142 1.386 . S
C2143 C2147 1.393 . S
C2144 H2133 0.950 . S
C2144 C2142 1.391 . S
C2144 C2145 1.400 . S
C2145 C2139 1.491 . S
C2145 C2144 1.400 . S
C2145 C2146 1.398 . S
C2146 H2134 0.950 . S
C2146 C2145 1.398 . S
C2146 C2147 1.391 . S
C2147 H2135 0.950 . S
C2147 C2143 1.393 . S
C2147 C2146 1.391 . S
H2148 C2156 0.950 . S
H2149 C2161 0.950 . S
H2150 C2158 0.950 . S
H2151 C2160 0.950 . S
H2152 C2162 0.950 . S
H2153 C2164 0.950 . S
H2154 C2166 0.950 1_556 S
H2155 C2167 0.950 . S
C2156 H2148 0.950 . S
C2156 C2157 1.386 . S
C2156 C2158 1.391 . S
C2157 C2156 1.386 . S
C2157 C2161 1.393 . S
C2158 H2150 0.950 . S
C2158 C2156 1.391 . S
C2158 C2159 1.400 . S
C2159 C2158 1.400 . S
C2159 C2160 1.398 . S
C2159 C2165 1.491 1_556 S
C2160 H2151 0.950 . S
C2160 C2159 1.398 . S
C2160 C2161 1.391 . S
C2161 H2149 0.950 . S
C2161 C2157 1.393 . S
C2161 C2160 1.391 . S
C2162 H2152 0.950 . S
C2162 C2163 1.386 . S
C2162 C2164 1.391 . S
C2163 C2162 1.386 . S
C2163 C2167 1.393 . S
C2164 H2153 0.950 . S
C2164 C2162 1.391 . S
C2164 C2165 1.400 . S
C2165 C2159 1.491 1_554 S
C2165 C2164 1.400 . S
C2165 C2166 1.398 . S
C2166 H2154 0.950 1_554 S
C2166 C2165 1.398 . S
C2166 C2167 1.391 . S
C2167 H2155 0.950 . S
C2167 C2163 1.393 . S
C2167 C2166 1.391 . S
H2168 C2176 0.950 . S
H2169 C2181 0.950 . S
H2170 C2178 0.950 . S
H2171 C2180 0.950 . S
H2172 C2182 0.950 . S
H2173 C2184 0.950 . S
H2174 C2186 0.950 . S
H2175 C2187 0.950 . S
C2176 H2168 0.950 . S
C2176 C2177 1.386 . S
C2176 C2178 1.391 . S
C2177 C2176 1.386 . S
C2177 C2181 1.393 . S
C2178 H2170 0.950 . S
C2178 C2176 1.391 . S
C2178 C2179 1.400 . S
C2179 C2178 1.400 . S
C2179 C2180 1.398 . S
C2179 C2185 1.491 . S
C2180 H2171 0.950 . S
C2180 C2179 1.398 . S
C2180 C2181 1.391 . S
C2181 H2169 0.950 . S
C2181 C2177 1.393 . S
C2181 C2180 1.391 . S
C2182 H2172 0.950 . S
C2182 C2183 1.386 . S
C2182 C2184 1.391 . S
C2183 C2182 1.386 . S
C2183 C2187 1.393 . S
C2184 H2173 0.950 . S
C2184 C2182 1.391 . S
C2184 C2185 1.400 . S
C2185 C2179 1.491 . S
C2185 C2184 1.400 . S
C2185 C2186 1.398 . S
C2186 H2174 0.950 . S
C2186 C2185 1.398 . S
C2186 C2187 1.391 . S
C2187 H2175 0.950 . S
C2187 C2183 1.393 . S
C2187 C2186 1.391 . S
H2188 C2196 0.950 . S
H2189 C2201 0.950 . S
H2190 C2198 0.950 . S
H2191 C2200 0.950 . S
H2192 C2202 0.950 . S
H2193 C2204 0.950 . S
H2194 C2206 0.950 . S
H2195 C2207 0.950 . S
C2196 H2188 0.950 . S
C2196 C2197 1.386 . S
C2196 C2198 1.391 . S
C2197 C2196 1.386 . S
C2197 C2201 1.393 . S
C2198 H2190 0.950 . S
C2198 C2196 1.391 . S
C2198 C2199 1.400 . S
C2199 C2198 1.400 . S
C2199 C2200 1.398 . S
C2199 C2205 1.491 . S
C2200 H2191 0.950 . S
C2200 C2199 1.398 . S
C2200 C2201 1.391 . S
C2201 H2189 0.950 . S
C2201 C2197 1.393 . S
C2201 C2200 1.391 . S
C2202 H2192 0.950 . S
C2202 C2203 1.386 . S
C2202 C2204 1.391 . S
C2203 C2202 1.386 . S
C2203 C2207 1.393 . S
C2204 H2193 0.950 . S
C2204 C2202 1.391 . S
C2204 C2205 1.400 . S
C2205 C2199 1.491 . S
C2205 C2204 1.400 . S
C2205 C2206 1.398 . S
C2206 H2194 0.950 . S
C2206 C2205 1.398 . S
C2206 C2207 1.391 . S
C2207 H2195 0.950 . S
C2207 C2203 1.393 . S
C2207 C2206 1.391 . S
H2208 C2216 0.950 . S
H2209 C2221 0.950 . S
H2210 C2218 0.950 . S
H2211 C2220 0.950 . S
H2212 C2222 0.950 . S
H2213 C2224 0.950 . S
H2214 C2226 0.950 . S
H2215 C2227 0.950 . S
C2216 H2208 0.950 . S
C2216 C2217 1.386 . S
C2216 C2218 1.391 . S
C2217 C2216 1.386 . S
C2217 C2221 1.393 . S
C2218 H2210 0.950 . S
C2218 C2216 1.391 . S
C2218 C2219 1.400 . S
C2219 C2218 1.400 . S
C2219 C2220 1.398 . S
C2219 C2225 1.491 . S
C2220 H2211 0.950 . S
C2220 C2219 1.398 . S
C2220 C2221 1.391 . S
C2221 H2209 0.950 . S
C2221 C2217 1.393 . S
C2221 C2220 1.391 . S
C2222 H2212 0.950 . S
C2222 C2223 1.386 . S
C2222 C2224 1.391 . S
C2223 C2222 1.386 . S
C2223 C2227 1.393 . S
C2224 H2213 0.950 . S
C2224 C2222 1.391 . S
C2224 C2225 1.400 . S
C2225 C2219 1.491 . S
C2225 C2224 1.400 . S
C2225 C2226 1.398 . S
C2226 H2214 0.950 . S
C2226 C2225 1.398 . S
C2226 C2227 1.391 . S
C2227 H2215 0.950 . S
C2227 C2223 1.393 . S
C2227 C2226 1.391 . S
H2228 C2236 0.950 . S
H2229 C2241 0.950 . S
H2230 C2238 0.950 . S
H2231 C2240 0.950 . S
H2232 C2242 0.950 . S
H2233 C2244 0.950 . S
H2234 C2246 0.950 . S
H2235 C2247 0.950 . S
C2236 H2228 0.950 . S
C2236 C2237 1.386 . S
C2236 C2238 1.391 . S
C2237 C2236 1.386 . S
C2237 C2241 1.393 . S
C2238 H2230 0.950 . S
C2238 C2236 1.391 . S
C2238 C2239 1.400 . S
C2239 C2238 1.400 . S
C2239 C2240 1.398 . S
C2239 C2245 1.491 . S
C2240 H2231 0.950 . S
C2240 C2239 1.398 . S
C2240 C2241 1.391 . S
C2241 H2229 0.950 . S
C2241 C2237 1.393 . S
C2241 C2240 1.391 . S
C2242 H2232 0.950 . S
C2242 C2243 1.386 . S
C2242 C2244 1.391 1_556 S
C2243 C2242 1.386 . S
C2243 C2247 1.393 . S
C2244 H2233 0.950 . S
C2244 C2242 1.391 1_554 S
C2244 C2245 1.400 . S
C2245 C2239 1.491 . S
C2245 C2244 1.400 . S
C2245 C2246 1.398 1_554 S
C2246 H2234 0.950 . S
C2246 C2245 1.398 1_556 S
C2246 C2247 1.391 . S
C2247 H2235 0.950 . S
C2247 C2243 1.393 . S
C2247 C2246 1.391 . S
H2248 C2256 0.950 . S
H2249 C2261 0.950 . S
H2250 C2258 0.950 . S
H2251 C2260 0.950 . S
H2252 C2262 0.950 . S
H2253 C2264 0.950 . S
H2254 C2266 0.950 . S
H2255 C2267 0.950 . S
C2256 H2248 0.950 . S
C2256 C2257 1.386 . S
C2256 C2258 1.391 . S
C2257 C2256 1.386 . S
C2257 C2261 1.393 . S
C2258 H2250 0.950 . S
C2258 C2256 1.391 . S
C2258 C2259 1.400 . S
C2259 C2258 1.400 . S
C2259 C2260 1.398 . S
C2259 C2265 1.491 . S
C2260 H2251 0.950 . S
C2260 C2259 1.398 . S
C2260 C2261 1.391 . S
C2261 H2249 0.950 . S
C2261 C2257 1.393 . S
C2261 C2260 1.391 . S
C2262 H2252 0.950 . S
C2262 C2263 1.386 . S
C2262 C2264 1.391 . S
C2263 C2262 1.386 . S
C2263 C2267 1.393 . S
C2264 H2253 0.950 . S
C2264 C2262 1.391 . S
C2264 C2265 1.400 . S
C2265 C2259 1.491 . S
C2265 C2264 1.400 . S
C2265 C2266 1.398 . S
C2266 H2254 0.950 . S
C2266 C2265 1.398 . S
C2266 C2267 1.391 . S
C2267 H2255 0.950 . S
C2267 C2263 1.393 . S
C2267 C2266 1.391 . S
H2268 C2276 0.950 . S
H2269 C2281 0.950 . S
H2270 C2278 0.950 . S
H2271 C2280 0.950 . S
H2272 C2282 0.950 . S
H2273 C2284 0.950 . S
H2274 C2286 0.950 . S
H2275 C2287 0.950 . S
C2276 H2268 0.950 . S
C2276 C2277 1.386 . S
C2276 C2278 1.391 . S
C2277 C2276 1.386 . S
C2277 C2281 1.393 . S
C2278 H2270 0.950 . S
C2278 C2276 1.391 . S
C2278 C2279 1.400 . S
C2279 C2278 1.400 . S
C2279 C2280 1.398 . S
C2279 C2285 1.491 . S
C2280 H2271 0.950 . S
C2280 C2279 1.398 . S
C2280 C2281 1.391 . S
C2281 H2269 0.950 . S
C2281 C2277 1.393 . S
C2281 C2280 1.391 . S
C2282 H2272 0.950 . S
C2282 C2283 1.386 . S
C2282 C2284 1.391 . S
C2283 C2282 1.386 . S
C2283 C2287 1.393 . S
C2284 H2273 0.950 . S
C2284 C2282 1.391 . S
C2284 C2285 1.400 . S
C2285 C2279 1.491 . S
C2285 C2284 1.400 . S
C2285 C2286 1.398 . S
C2286 H2274 0.950 . S
C2286 C2285 1.398 . S
C2286 C2287 1.391 . S
C2287 H2275 0.950 . S
C2287 C2283 1.393 . S
C2287 C2286 1.391 . S
H2288 C2296 0.950 . S
H2289 C2301 0.950 . S
H2290 C2298 0.950 . S
H2291 C2300 0.950 . S
H2292 C2302 0.950 . S
H2293 C2304 0.950 . S
H2294 C2306 0.950 . S
H2295 C2307 0.950 . S
C2296 H2288 0.950 . S
C2296 C2297 1.386 . S
C2296 C2298 1.391 . S
C2297 C2296 1.386 . S
C2297 C2301 1.393 . S
C2298 H2290 0.950 . S
C2298 C2296 1.391 . S
C2298 C2299 1.400 . S
C2299 C2298 1.400 . S
C2299 C2300 1.398 . S
C2299 C2305 1.491 . S
C2300 H2291 0.950 . S
C2300 C2299 1.398 . S
C2300 C2301 1.391 . S
C2301 H2289 0.950 . S
C2301 C2297 1.393 . S
C2301 C2300 1.391 . S
C2302 H2292 0.950 . S
C2302 C2303 1.386 . S
C2302 C2304 1.391 . S
C2303 C2302 1.386 . S
C2303 C2307 1.393 . S
C2304 H2293 0.950 . S
C2304 C2302 1.391 . S
C2304 C2305 1.400 . S
C2305 C2299 1.491 . S
C2305 C2304 1.400 . S
C2305 C2306 1.398 . S
C2306 H2294 0.950 . S
C2306 C2305 1.398 . S
C2306 C2307 1.391 . S
C2307 H2295 0.950 . S
C2307 C2303 1.393 . S
C2307 C2306 1.391 . S
H2308 C2316 0.981 . S
H2309 C2321 0.950 . S
H2310 C2318 0.950 . S
H2311 C2320 0.950 . S
H2312 C2322 0.950 . S
H2313 C2324 0.950 . S
H2314 C2326 0.950 . S
H2315 C2327 0.950 . S
C2316 H2308 0.981 . S
C2316 C2317 1.386 . S
C2316 C2318 1.391 . S
C2317 C2316 1.386 . S
C2317 C2321 1.393 . S
C2318 H2310 0.950 . S
C2318 C2316 1.391 . S
C2318 C2319 1.400 . S
C2319 C2318 1.400 . S
C2319 C2320 1.398 . S
C2319 C2325 1.491 . S
C2320 H2311 0.950 . S
C2320 C2319 1.398 . S
C2320 C2321 1.391 . S
C2321 H2309 0.950 . S
C2321 C2317 1.393 . S
C2321 C2320 1.391 . S
C2322 H2312 0.950 . S
C2322 C2323 1.386 . S
C2322 C2324 1.391 . S
C2323 C2322 1.386 . S
C2323 C2327 1.393 . S
C2324 H2313 0.950 . S
C2324 C2322 1.391 . S
C2324 C2325 1.400 . S
C2325 C2319 1.491 . S
C2325 C2324 1.400 . S
C2325 C2326 1.398 . S
C2326 H2314 0.950 . S
C2326 C2325 1.398 . S
C2326 C2327 1.391 . S
C2327 H2315 0.950 . S
C2327 C2323 1.393 . S
C2327 C2326 1.391 . S
H2328 C2336 0.950 . S
H2329 C2341 0.950 . S
H2330 C2338 0.950 . S
H2331 C2340 0.950 . S
H2332 C2342 0.950 . S
H2333 C2344 0.950 . S
H2334 C2346 0.950 . S
H2335 C2347 0.950 . S
C2336 H2328 0.950 . S
C2336 C2337 1.386 . S
C2336 C2338 1.391 . S
C2337 C2336 1.386 . S
C2337 C2341 1.393 . S
C2338 H2330 0.950 . S
C2338 C2336 1.391 . S
C2338 C2339 1.400 . S
C2339 C2338 1.400 . S
C2339 C2340 1.398 . S
C2339 C2345 1.491 . S
C2340 H2331 0.950 . S
C2340 C2339 1.398 . S
C2340 C2341 1.391 . S
C2341 H2329 0.950 . S
C2341 C2337 1.393 . S
C2341 C2340 1.391 . S
C2342 H2332 0.950 . S
C2342 C2343 1.386 . S
C2342 C2344 1.391 . S
C2343 C2342 1.386 . S
C2343 C2347 1.393 . S
C2344 H2333 0.950 . S
C2344 C2342 1.391 . S
C2344 C2345 1.400 . S
C2345 C2339 1.491 . S
C2345 C2344 1.400 . S
C2345 C2346 1.398 . S
C2346 H2334 0.950 . S
C2346 C2345 1.398 . S
C2346 C2347 1.391 . S
C2347 H2335 0.950 . S
C2347 C2343 1.393 . S
C2347 C2346 1.391 . S
H2348 C2356 0.950 . S
H2349 C2361 0.950 . S
H2350 C2358 0.950 . S
H2351 C2360 0.950 . S
H2352 C2362 0.950 . S
H2353 C2364 0.950 . S
H2354 C2366 0.950 . S
H2355 C2367 0.950 . S
C2356 H2348 0.950 . S
C2356 C2357 1.386 . S
C2356 C2358 1.391 . S
C2357 C2356 1.386 . S
C2357 C2361 1.393 . S
C2358 H2350 0.950 . S
C2358 C2356 1.391 . S
C2358 C2359 1.400 . S
C2359 C2358 1.400 . S
C2359 C2360 1.398 . S
C2359 C2365 1.491 . S
C2360 H2351 0.950 . S
C2360 C2359 1.398 . S
C2360 C2361 1.391 . S
C2361 H2349 0.950 . S
C2361 C2357 1.393 . S
C2361 C2360 1.391 . S
C2362 H2352 0.950 . S
C2362 C2363 1.386 . S
C2362 C2364 1.391 . S
C2363 C2362 1.386 . S
C2363 C2367 1.393 . S
C2364 H2353 0.950 . S
C2364 C2362 1.391 . S
C2364 C2365 1.400 . S
C2365 C2359 1.491 . S
C2365 C2364 1.400 . S
C2365 C2366 1.398 . S
C2366 H2354 0.950 . S
C2366 C2365 1.398 . S
C2366 C2367 1.391 . S
C2367 H2355 0.950 . S
C2367 C2363 1.393 . S
C2367 C2366 1.391 . S
H2368 C2376 0.950 . S
H2369 C2381 0.950 . S
H2370 C2378 0.950 . S
H2371 C2380 0.950 . S
H2372 C2382 0.950 . S
H2373 C2384 0.950 . S
H2374 C2386 0.950 . S
H2375 C2387 0.950 . S
C2376 H2368 0.950 . S
C2376 C2377 1.386 . S
C2376 C2378 1.391 . S
C2377 C2376 1.386 . S
C2377 C2381 1.393 . S
C2378 H2370 0.950 . S
C2378 C2376 1.391 . S
C2378 C2379 1.400 . S
C2379 C2378 1.400 . S
C2379 C2380 1.398 . S
C2379 C2385 1.491 . S
C2380 H2371 0.950 . S
C2380 C2379 1.398 . S
C2380 C2381 1.391 . S
C2381 H2369 0.950 . S
C2381 C2377 1.393 . S
C2381 C2380 1.391 . S
C2382 H2372 0.950 . S
C2382 C2383 1.386 . S
C2382 C2384 1.391 . S
C2383 C2382 1.386 . S
C2383 C2387 1.393 . S
C2384 H2373 0.950 . S
C2384 C2382 1.391 . S
C2384 C2385 1.400 . S
C2385 C2379 1.491 . S
C2385 C2384 1.400 . S
C2385 C2386 1.398 . S
C2386 H2374 0.950 . S
C2386 C2385 1.398 . S
C2386 C2387 1.391 . S
C2387 H2375 0.950 . S
C2387 C2383 1.393 . S
C2387 C2386 1.391 . S
H2388 C2396 0.950 . S
H2389 C2401 0.950 . S
H2390 C2398 0.950 . S
H2391 C2400 0.950 . S
H2392 C2402 0.950 . S
H2393 C2404 0.950 . S
H2394 C2406 0.950 . S
H2395 C2407 0.950 . S
C2396 H2388 0.950 . S
C2396 C2397 1.386 . S
C2396 C2398 1.391 . S
C2397 C2396 1.386 . S
C2397 C2401 1.393 . S
C2398 H2390 0.950 . S
C2398 C2396 1.391 . S
C2398 C2399 1.400 . S
C2399 C2398 1.400 . S
C2399 C2400 1.398 . S
C2399 C2405 1.491 . S
C2400 H2391 0.950 . S
C2400 C2399 1.398 . S
C2400 C2401 1.391 . S
C2401 H2389 0.950 . S
C2401 C2397 1.393 . S
C2401 C2400 1.391 . S
C2402 H2392 0.950 . S
C2402 C2403 1.386 . S
C2402 C2404 1.391 . S
C2403 C2402 1.386 . S
C2403 C2407 1.393 . S
C2404 H2393 0.950 . S
C2404 C2402 1.391 . S
C2404 C2405 1.400 . S
C2405 C2399 1.491 . S
C2405 C2404 1.400 . S
C2405 C2406 1.398 . S
C2406 H2394 0.950 . S
C2406 C2405 1.398 . S
C2406 C2407 1.391 . S
C2407 H2395 0.950 . S
C2407 C2403 1.393 . S
C2407 C2406 1.391 . S
H2408 C2416 0.950 . S
H2409 C2421 0.950 . S
H2410 C2418 0.950 . S
H2411 C2420 0.950 . S
H2412 C2422 0.950 . S
H2413 C2424 0.950 . S
H2414 C2426 0.950 . S
H2415 C2427 0.950 . S
C2416 H2408 0.950 . S
C2416 C2417 1.386 . S
C2416 C2418 1.391 . S
C2417 C2416 1.386 . S
C2417 C2421 1.393 . S
C2418 H2410 0.950 . S
C2418 C2416 1.391 . S
C2418 C2419 1.400 . S
C2419 C2418 1.400 . S
C2419 C2420 1.398 . S
C2419 C2425 1.491 . S
C2420 H2411 0.950 . S
C2420 C2419 1.398 . S
C2420 C2421 1.391 . S
C2421 H2409 0.950 . S
C2421 C2417 1.393 . S
C2421 C2420 1.391 . S
C2422 H2412 0.950 . S
C2422 C2423 1.386 . S
C2422 C2424 1.391 . S
C2423 C2422 1.386 . S
C2423 C2427 1.393 . S
C2424 H2413 0.950 . S
C2424 C2422 1.391 . S
C2424 C2425 1.400 . S
C2425 C2419 1.491 . S
C2425 C2424 1.400 . S
C2425 C2426 1.398 . S
C2426 H2414 0.950 . S
C2426 C2425 1.398 . S
C2426 C2427 1.391 . S
C2427 H2415 0.950 . S
C2427 C2423 1.393 . S
C2427 C2426 1.391 . S
H2428 C2436 0.950 . S
H2429 C2441 0.950 . S
H2430 C2438 0.950 . S
H2431 C2440 0.950 . S
H2432 C2442 0.950 . S
H2433 C2444 0.950 . S
H2434 C2446 0.950 . S
H2435 C2447 0.950 . S
C2436 H2428 0.950 . S
C2436 C2437 1.386 . S
C2436 C2438 1.391 . S
C2437 C2436 1.386 . S
C2437 C2441 1.393 . S
C2438 H2430 0.950 . S
C2438 C2436 1.391 . S
C2438 C2439 1.400 . S
C2439 C2438 1.400 . S
C2439 C2440 1.398 . S
C2439 C2445 1.491 . S
C2440 H2431 0.950 . S
C2440 C2439 1.398 . S
C2440 C2441 1.391 . S
C2441 H2429 0.950 . S
C2441 C2437 1.393 . S
C2441 C2440 1.391 . S
C2442 H2432 0.950 . S
C2442 C2443 1.386 . S
C2442 C2444 1.391 . S
C2443 C2442 1.386 . S
C2443 C2447 1.393 . S
C2444 H2433 0.950 . S
C2444 C2442 1.391 . S
C2444 C2445 1.400 . S
C2445 C2439 1.491 . S
C2445 C2444 1.400 . S
C2445 C2446 1.398 . S
C2446 H2434 0.950 . S
C2446 C2445 1.398 . S
C2446 C2447 1.391 . S
C2447 H2435 0.950 . S
C2447 C2443 1.393 . S
C2447 C2446 1.391 . S
H2448 C2456 0.950 . S
H2449 C2461 0.950 . S
H2450 C2458 0.950 . S
H2451 C2460 0.950 . S
H2452 C2462 0.950 . S
H2453 C2464 0.950 . S
H2454 C2466 0.950 . S
H2455 C2467 0.950 . S
C2456 H2448 0.950 . S
C2456 C2457 1.386 . S
C2456 C2458 1.391 . S
C2457 C2456 1.386 . S
C2457 C2461 1.393 . S
C2458 H2450 0.950 . S
C2458 C2456 1.391 . S
C2458 C2459 1.400 . S
C2459 C2458 1.400 . S
C2459 C2460 1.398 . S
C2459 C2465 1.491 . S
C2460 H2451 0.950 . S
C2460 C2459 1.398 . S
C2460 C2461 1.391 . S
C2461 H2449 0.950 . S
C2461 C2457 1.393 . S
C2461 C2460 1.391 . S
C2462 H2452 0.950 . S
C2462 C2463 1.386 . S
C2462 C2464 1.391 . S
C2463 C2462 1.386 . S
C2463 C2467 1.393 . S
C2464 H2453 0.950 . S
C2464 C2462 1.391 . S
C2464 C2465 1.400 . S
C2465 C2459 1.491 . S
C2465 C2464 1.400 . S
C2465 C2466 1.398 . S
C2466 H2454 0.950 . S
C2466 C2465 1.398 . S
C2466 C2467 1.391 . S
C2467 H2455 0.950 . S
C2467 C2463 1.393 . S
C2467 C2466 1.391 . S
H2468 C2476 0.950 . S
H2469 C2481 0.950 . S
H2470 C2478 0.950 . S
H2471 C2480 0.950 . S
H2472 C2482 0.950 . S
H2473 C2484 0.950 . S
H2474 C2486 0.950 . S
H2475 C2487 0.950 . S
C2476 H2468 0.950 . S
C2476 C2477 1.386 . S
C2476 C2478 1.391 . S
C2477 C2476 1.386 . S
C2477 C2481 1.393 . S
C2478 H2470 0.950 . S
C2478 C2476 1.391 . S
C2478 C2479 1.400 . S
C2479 C2478 1.400 . S
C2479 C2480 1.398 . S
C2479 C2485 1.491 . S
C2480 H2471 0.950 . S
C2480 C2479 1.398 . S
C2480 C2481 1.391 . S
C2481 H2469 0.950 . S
C2481 C2477 1.393 . S
C2481 C2480 1.391 . S
C2482 H2472 0.950 . S
C2482 C2483 1.386 . S
C2482 C2484 1.391 . S
C2483 C2482 1.386 . S
C2483 C2487 1.393 . S
C2484 H2473 0.950 . S
C2484 C2482 1.391 . S
C2484 C2485 1.400 . S
C2485 C2479 1.491 . S
C2485 C2484 1.400 . S
C2485 C2486 1.398 . S
C2486 H2474 0.950 . S
C2486 C2485 1.398 . S
C2486 C2487 1.391 . S
C2487 H2475 0.950 . S
C2487 C2483 1.393 . S
C2487 C2486 1.391 . S
H2488 C2496 0.950 . S
H2489 C2501 0.950 . S
H2490 C2498 0.950 . S
H2491 C2500 0.950 . S
H2492 C2502 0.950 . S
H2493 C2504 0.950 . S
H2494 C2506 0.950 . S
H2495 C2507 0.950 . S
C2496 H2488 0.950 . S
C2496 C2497 1.386 . S
C2496 C2498 1.391 . S
C2497 C2496 1.386 . S
C2497 C2501 1.393 . S
C2498 H2490 0.950 . S
C2498 C2496 1.391 . S
C2498 C2499 1.400 . S
C2499 C2498 1.400 . S
C2499 C2500 1.398 . S
C2499 C2505 1.491 . S
C2500 H2491 0.950 . S
C2500 C2499 1.398 . S
C2500 C2501 1.391 . S
C2501 H2489 0.950 . S
C2501 C2497 1.393 . S
C2501 C2500 1.391 . S
C2502 H2492 0.950 . S
C2502 C2503 1.386 . S
C2502 C2504 1.391 . S
C2503 C2502 1.386 . S
C2503 C2507 1.393 . S
C2504 H2493 0.950 . S
C2504 C2502 1.391 . S
C2504 C2505 1.400 . S
C2505 C2499 1.491 . S
C2505 C2504 1.400 . S
C2505 C2506 1.398 . S
C2506 H2494 0.950 . S
C2506 C2505 1.398 . S
C2506 C2507 1.391 . S
C2507 H2495 0.950 . S
C2507 C2503 1.393 . S
C2507 C2506 1.391 . S
H2508 C2516 0.950 . S
H2509 C2521 0.950 . S
H2510 C2518 0.950 . S
H2511 C2520 0.950 . S
H2512 C2522 0.950 . S
H2513 C2524 0.950 . S
H2514 C2526 0.950 . S
H2515 C2527 0.950 . S
C2516 H2508 0.950 . S
C2516 C2517 1.386 . S
C2516 C2518 1.391 . S
C2517 C2516 1.386 . S
C2517 C2521 1.393 . S
C2518 H2510 0.950 . S
C2518 C2516 1.391 . S
C2518 C2519 1.400 . S
C2519 C2518 1.400 . S
C2519 C2520 1.398 . S
C2519 C2525 1.491 . S
C2520 H2511 0.950 . S
C2520 C2519 1.398 . S
C2520 C2521 1.391 . S
C2521 H2509 0.950 . S
C2521 C2517 1.393 . S
C2521 C2520 1.391 . S
C2522 H2512 0.950 . S
C2522 C2523 1.386 . S
C2522 C2524 1.391 . S
C2523 C2522 1.386 . S
C2523 C2527 1.393 . S
C2524 H2513 0.950 . S
C2524 C2522 1.391 . S
C2524 C2525 1.400 . S
C2525 C2519 1.491 . S
C2525 C2524 1.400 . S
C2525 C2526 1.398 . S
C2526 H2514 0.950 . S
C2526 C2525 1.398 . S
C2526 C2527 1.391 . S
C2527 H2515 0.950 . S
C2527 C2523 1.393 . S
C2527 C2526 1.391 . S
H2528 C2536 0.950 . S
H2529 C2541 0.950 . S
H2530 C2538 0.950 . S
H2531 C2540 0.950 . S
H2532 C2542 0.950 . S
H2533 C2544 0.950 . S
H2534 C2546 0.950 . S
H2535 C2547 0.950 . S
C2536 H2528 0.950 . S
C2536 C2537 1.386 . S
C2536 C2538 1.391 . S
C2537 C2536 1.386 . S
C2537 C2541 1.393 . S
C2538 H2530 0.950 . S
C2538 C2536 1.391 . S
C2538 C2539 1.400 . S
C2539 C2538 1.400 . S
C2539 C2540 1.398 . S
C2539 C2545 1.491 . S
C2540 H2531 0.950 . S
C2540 C2539 1.398 . S
C2540 C2541 1.391 . S
C2541 H2529 0.950 . S
C2541 C2537 1.393 . S
C2541 C2540 1.391 . S
C2542 H2532 0.950 . S
C2542 C2543 1.386 . S
C2542 C2544 1.391 . S
C2543 C2542 1.386 . S
C2543 C2547 1.393 . S
C2544 H2533 0.950 . S
C2544 C2542 1.391 . S
C2544 C2545 1.400 . S
C2545 C2539 1.491 . S
C2545 C2544 1.400 . S
C2545 C2546 1.398 . S
C2546 H2534 0.950 . S
C2546 C2545 1.398 . S
C2546 C2547 1.391 . S
C2547 H2535 0.950 . S
C2547 C2543 1.393 . S
C2547 C2546 1.391 . S
H2548 C2556 0.950 . S
H2549 C2561 0.950 . S
H2550 C2558 0.950 . S
H2551 C2560 0.950 . S
H2552 C2562 0.950 . S
H2553 C2564 0.950 . S
H2554 C2566 0.950 . S
H2555 C2567 0.950 . S
C2556 H2548 0.950 . S
C2556 C2557 1.386 . S
C2556 C2558 1.391 . S
C2557 C2556 1.386 . S
C2557 C2561 1.393 . S
C2558 H2550 0.950 . S
C2558 C2556 1.391 . S
C2558 C2559 1.400 . S
C2559 C2558 1.400 . S
C2559 C2560 1.398 . S
C2559 C2565 1.491 . S
C2560 H2551 0.950 . S
C2560 C2559 1.398 . S
C2560 C2561 1.391 . S
C2561 H2549 0.950 . S
C2561 C2557 1.393 . S
C2561 C2560 1.391 . S
C2562 H2552 0.950 . S
C2562 C2563 1.386 . S
C2562 C2564 1.391 . S
C2563 C2562 1.386 . S
C2563 C2567 1.393 . S
C2564 H2553 0.950 . S
C2564 C2562 1.391 . S
C2564 C2565 1.400 . S
C2565 C2559 1.491 . S
C2565 C2564 1.400 . S
C2565 C2566 1.398 . S
C2566 H2554 0.950 . S
C2566 C2565 1.398 . S
C2566 C2567 1.391 . S
C2567 H2555 0.950 . S
C2567 C2563 1.393 . S
C2567 C2566 1.391 . S
H2568 C2576 0.950 . S
H2569 C2581 0.950 . S
H2570 C2578 0.950 . S
H2571 C2580 0.950 . S
H2572 C2582 0.950 . S
H2573 C2584 0.950 . S
H2574 C2586 0.950 . S
H2575 C2587 0.950 . S
C2576 H2568 0.950 . S
C2576 C2577 1.386 . S
C2576 C2578 1.391 . S
C2577 C2576 1.386 . S
C2577 C2581 1.393 . S
C2578 H2570 0.950 . S
C2578 C2576 1.391 . S
C2578 C2579 1.400 . S
C2579 C2578 1.400 . S
C2579 C2580 1.398 . S
C2579 C2585 1.491 . S
C2580 H2571 0.950 . S
C2580 C2579 1.398 . S
C2580 C2581 1.391 . S
C2581 H2569 0.950 . S
C2581 C2577 1.393 . S
C2581 C2580 1.391 . S
C2582 H2572 0.950 . S
C2582 C2583 1.386 . S
C2582 C2584 1.391 . S
C2583 C2582 1.386 . S
C2583 C2587 1.393 . S
C2584 H2573 0.950 . S
C2584 C2582 1.391 . S
C2584 C2585 1.400 . S
C2585 C2579 1.491 . S
C2585 C2584 1.400 . S
C2585 C2586 1.398 . S
C2586 H2574 0.950 . S
C2586 C2585 1.398 . S
C2586 C2587 1.391 . S
C2587 H2575 0.950 . S
C2587 C2583 1.393 . S
C2587 C2586 1.391 . S
H2588 C2596 0.950 . S
H2589 C2601 0.950 . S
H2590 C2598 0.950 . S
H2591 C2600 0.950 . S
H2592 C2602 0.950 . S
H2593 C2604 0.950 1_455 S
H2594 C2606 0.950 . S
H2595 C2607 0.950 . S
C2596 H2588 0.950 . S
C2596 C2597 1.386 . S
C2596 C2598 1.391 . S
C2597 C2596 1.386 . S
C2597 C2601 1.393 . S
C2598 H2590 0.950 . S
C2598 C2596 1.391 . S
C2598 C2599 1.400 . S
C2599 C2598 1.400 . S
C2599 C2600 1.398 . S
C2599 C2605 1.491 . S
C2600 H2591 0.950 . S
C2600 C2599 1.398 . S
C2600 C2601 1.391 . S
C2601 H2589 0.950 . S
C2601 C2597 1.393 . S
C2601 C2600 1.391 . S
C2602 H2592 0.950 . S
C2602 C2603 1.386 . S
C2602 C2604 1.391 . S
C2603 C2602 1.386 . S
C2603 C2607 1.393 . S
C2604 H2593 0.950 1_655 S
C2604 C2602 1.391 . S
C2604 C2605 1.400 1_655 S
C2605 C2599 1.491 . S
C2605 C2604 1.400 1_455 S
C2605 C2606 1.398 1_455 S
C2606 H2594 0.950 . S
C2606 C2605 1.398 1_655 S
C2606 C2607 1.391 . S
C2607 H2595 0.950 . S
C2607 C2603 1.393 . S
C2607 C2606 1.391 . S
C703 C354 1.197 . S
C697 C7 1.209 . S
C717 C23 1.150 . S
C723 C366 1.137 . S
C743 C401 1.116 . S
C737 C36 1.125 . S
C763 C410 1.146 . S
C757 C45 1.163 . S
C783 C365 1.187 . S
C777 C59 1.201 . S
C797 C78 1.103 . S
C803 C390 1.101 . S
C823 C409 1.149 . S
C817 C93 1.159 . S
C837 C105 1.252 . S
C843 C351 1.218 . S
C857 C115 1.242 . S
C863 C344 1.217 . S
C883 C368 1.151 . S
C877 C133 1.159 . S
C903 C387 1.122 . S
C897 C148 1.162 . S
C923 C412 1.110 . S
C917 C163 1.130 . S
C943 C373 1.125 . S
C937 C121 1.119 . S
C963 C398 1.127 . S
C957 C134 1.121 . S
C977 C147 1.185 . S
C983 C417 1.165 . S
C1003 C357 1.226 . S
C997 C157 1.249 . S
C1017 C175 1.205 . S
C1023 C346 1.201 . S
C1037 C191 1.194 . S
C1043 C445 1.187 . S
C1063 C461 1.148 . S
C1057 C199 1.154 . S
C1083 C475 1.116 . S
C1077 C218 1.126 . S
C1097 C231 1.239 . S
C1103 C343 1.218 . S
C1117 C241 1.173 . S
C1123 C395 1.144 . S
C1143 C478 1.172 . S
C1137 C205 1.175 . S
C1163 C442 1.141 . S
C1157 C260 1.138 . S
C1183 C498 1.046 . S
C1177 C22 1.031 . S
C1203 C522 1.173 . S
C1197 C9 1.166 . S
C1217 C49 1.199 . S
C1223 C555 1.193 . S
C1237 C31 1.157 . S
C1243 C563 1.156 . S
C1257 C101 1.153 . S
C1263 C533 1.140 . S
C1277 C91 1.189 . S
C1283 C544 1.193 . S
C1303 C564 1.179 . S
C1297 C79 1.192 . S
C1317 C64 1.078 . S
C1323 C497 1.078 . S
C1337 C274 1.040 . S
C1343 C500 1.016 . S
C1363 C530 1.122 . S
C1357 C213 1.129 . S
C1383 C541 1.209 . S
C1377 C233 1.232 . S
C1403 C571 1.196 . S
C1397 C189 1.201 . S
C1423 C519 1.178 . S
C1417 C273 1.190 . S
C1443 C552 1.191 . S
C1437 C219 1.191 . S
C1463 C566 1.121 . S
C1457 C227 1.135 . S
C1477 C190 1.079 . S
C1483 C505 1.083 . S
C1503 C508 1.052 . S
C1497 C289 1.032 . S
C1517 C162 1.168 . S
C1523 C596 1.177 . S
C1543 C608 1.148 . S
C1537 C301 1.143 . S
C1557 C129 1.215 . S
C1563 C629 1.196 . S
C1583 C511 1.116 . S
C1577 C149 1.121 . S
C1603 C549 1.133 . S
C1597 C315 1.143 . S
C1623 C632 1.123 . S
C1617 C302 1.125 . S
C1637 C325 1.187 . S
C1643 C599 1.169 . S
C1657 C35 1.231 . S
C1663 C654 1.221 . S
C1677 C51 1.153 . S
C1683 C432 1.135 . S
C1703 C456 1.062 . S
C1697 C8 1.062 . S
C1717 C17 1.166 . S
C1723 C486 1.164 . S
C1737 C87 1.180 . S
C1743 C431 1.169 . S
C1757 C106 1.124 . S
C1763 C467 1.114 . S
C1783 C483 1.184 . S
C1777 C65 1.190 . S
C1803 C665 1.199 . S
C1797 C77 1.234 . S
C1823 C662 1.219 . S
C1817 C297 1.225 . S
C1843 C434 1.153 . S
C1837 C287 1.163 . S
C1863 C464 1.151 . S
C1857 C330 1.147 . S
C1877 C317 1.160 . S
C1883 C476 1.135 . S
C1903 C439 1.116 . S
C1897 C303 1.114 . S
C1917 C288 1.132 . S
C1923 C453 1.101 . S
C1943 C489 1.133 . S
C1937 C329 1.165 . S
C1957 C311 1.261 . S
C1963 C651 1.216 . S
C1983 C652 1.212 . S
C1977 C217 1.219 . S
C1997 C247 1.195 . S
C2003 C379 1.151 . S
C2023 C388 1.119 . S
C2017 C269 1.113 . S
C2037 C176 1.111 . S
C2043 C423 1.077 . S
C2063 C659 1.194 . S
C2057 C259 1.223 . S
C2083 C454 1.155 . S
C2077 C185 1.147 . S
C2103 C420 1.179 . S
C2097 C275 1.171 . S
C2123 C376 1.119 . S
C2117 C232 1.118 . S
C2137 C50 1.074 . S
C2143 C673 1.075 . S
C2157 C37 1.197 . S
C2163 C585 1.177 . S
C2177 C21 1.204 . S
C2183 C621 1.182 . S
C2203 C640 1.114 . S
C2197 C3 1.103 . S
C2223 C586 1.115 . S
C2217 C73 1.111 . S
C2237 C63 1.193 . S
C2243 C610 1.189 . S
C2263 C637 1.196 . S
C2257 C107 1.222 . S
C2277 C92 1.059 . S
C2283 C674 1.062 . S
C2303 C681 1.067 . S
C2297 C204 1.077 . S
C2317 C171 1.131 . S
C2323 C593 1.135 . S
C2337 C261 1.220 . S
C2343 C607 1.217 . S
C2363 C630 1.165 . S
C2357 C245 1.178 . S
C2383 C588 1.164 . S
C2377 C203 1.163 . S
C2397 C177 1.174 . S
C2403 C618 1.192 . S
C2423 C643 1.136 . S
C2417 C255 1.150 . S
C2443 C676 1.057 . S
C2437 C246 1.069 . S
C2463 C687 1.056 . S
C2457 C135 1.081 . S
C2483 C527 1.214 . S
C2477 C316 1.211 . S
C2497 C119 1.153 . S
C2503 C542 1.134 . S
C2517 C283 1.186 . S
C2523 C574 1.191 . S
C2543 C684 1.099 . S
C2537 C331 1.077 . S
C2563 C615 1.130 . S
C2557 C161 1.136 . S
C2583 C577 1.168 . S
C2577 C120 1.167 . S
C2603 C520 1.159 . S
C2597 C143 1.180 . S
