# Generated by pormake.
# Topology pth, (4,4)-cn, num edge types: 1
# Building blocks:
#     Node 0, Type 0, BuildingBlock: AZAVOO_clean_sbu_0, # of connection points: 4
#     Node 1, Type 0, BuildingBlock: AZAVOO_clean_sbu_0, # of connection points: 4
#     Node 2, Type 0, BuildingBlock: AZAVOO_clean_sbu_0, # of connection points: 4
#     Node 3, Type 1, BuildingBlock: KOZSID_clean_sbu_0, # of connection points: 4
#     Node 4, Type 1, BuildingBlock: KOZSID_clean_sbu_0, # of connection points: 4
#     Node 5, Type 1, BuildingBlock: KOZSID_clean_sbu_0, # of connection points: 4
#     Edge 6, Type (0, 1), BuildingBlock: KIFKEQ_clean_linker_1, # of connection points: 2
#     Edge 7, Type (0, 1), BuildingBlock: KIFKEQ_clean_linker_1, # of connection points: 2
#     Edge 8, Type (0, 1), BuildingBlock: KIFKEQ_clean_linker_1, # of connection points: 2
#     Edge 9, Type (0, 1), BuildingBlock: KIFKEQ_clean_linker_1, # of connection points: 2
#     Edge 10, Type (0, 1), BuildingBlock: KIFKEQ_clean_linker_1, # of connection points: 2
#     Edge 11, Type (0, 1), BuildingBlock: KIFKEQ_clean_linker_1, # of connection points: 2
#     Edge 12, Type (0, 1), BuildingBlock: KIFKEQ_clean_linker_1, # of connection points: 2
#     Edge 13, Type (0, 1), BuildingBlock: KIFKEQ_clean_linker_1, # of connection points: 2
#     Edge 14, Type (0, 1), BuildingBlock: KIFKEQ_clean_linker_1, # of connection points: 2
#     Edge 15, Type (0, 1), BuildingBlock: KIFKEQ_clean_linker_1, # of connection points: 2
#     Edge 16, Type (0, 1), BuildingBlock: KIFKEQ_clean_linker_1, # of connection points: 2
#     Edge 17, Type (0, 1), BuildingBlock: KIFKEQ_clean_linker_1, # of connection points: 2
# Relax obj value: 0.066
# Max RMSD: 0.216
# Mean RMSD: 0.106
data_MOF--net-pth--node1-AZAVOO_clean_sbu_0--node2-KOZSID_clean_sbu_0--edge1-KIFKEQ_clean_linker_1
_symmetry_space_group_name_H-M    P1
_symmetry_Int_Tables_number       1
_symmetry_cell_setting            triclinic
loop_
_symmetry_equiv_pos_as_xyz
'x, y, z'
_cell_length_a     26.834579
_cell_length_b     27.405613
_cell_length_c     60.443207
_cell_angle_alpha  88.272191
_cell_angle_beta   90.072777
_cell_angle_gamma 122.12204
loop_
_atom_site_label
_atom_site_type_symbol
_atom_site_fract_x
_atom_site_fract_y
_atom_site_fract_z
_atom_type_partial_charge
Mg0 Mg 0.13157 0.08912 0.03984 0.0
O1 O 0.05351 0.02448 0.01965 0.0
O2 O 0.02707 0.07131 0.99649 0.0
Mg3 Mg 0.09298 0.16792 0.00064 0.0
C4 C 0.02008 0.02457 0.00469 0.0
C5 C 0.11038 0.97111 0.05686 0.0
O6 O 0.12194 0.97008 0.03582 0.0
O7 O 0.07492 0.11075 0.06016 0.0
O8 O 0.05905 0.16415 0.03593 0.0
O9 O 0.19465 0.09425 0.01434 0.0
O10 O 0.15935 0.15093 0.01405 0.0
C11 C 0.05447 0.14246 0.0554 0.0
C12 C 0.19183 0.13563 0.00476 0.0
O13 O 0.11228 0.01525 0.06398 0.0
Mg14 Mg 0.99212 0.05919 0.36665 0.0
O15 O 0.07127 0.07538 0.38701 0.0
O16 O 0.09877 0.15141 0.4078 0.0
Mg17 Mg 0.03236 0.17889 0.40318 0.0
C18 C 0.10556 0.11163 0.40101 0.0
C19 C 0.96859 0.95184 0.34104 0.0
O20 O 0.91753 0.9302 0.35125 0.0
O21 O 0.04784 0.14014 0.34451 0.0
O22 O 0.06296 0.2092 0.36739 0.0
O23 O 0.92882 0.99906 0.39336 0.0
O24 O 0.96652 0.09286 0.3914 0.0
C25 C 0.0672 0.19292 0.34829 0.0
C26 C 0.93335 0.04419 0.40171 0.0
O27 O 0.00846 0.00424 0.34376 0.0
Mg28 Mg 0.05084 0.03037 0.69559 0.0
O29 O 0.11065 0.09691 0.72072 0.0
O30 O 0.05412 0.10035 0.7469 0.0
Mg31 Mg 0.95785 0.0347 0.73896 0.0
C32 C 0.10467 0.11728 0.73852 0.0
C33 C 0.17608 0.06979 0.67811 0.0
O34 O 0.1781 0.05266 0.69845 0.0
O35 O 0.02396 0.09061 0.68099 0.0
O36 O 0.96215 0.08492 0.70718 0.0
O37 O 0.04828 0.95793 0.71524 0.0
O38 O 0.98559 0.98578 0.71982 0.0
C39 C 0.98688 0.10248 0.68808 0.0
C40 C 0.00341 0.95223 0.72578 0.0
O41 O 0.12913 0.0661 0.67164 0.0
C42 C 0.09159 0.648 0.1646 0.0
C43 C 0.14455 0.68901 0.15433 0.0
C44 C 0.18786 0.68769 0.16562 0.0
C45 C 0.15897 0.64574 0.1819 0.0
N46 N 0.09979 0.61973 0.18155 0.0
Co47 Co 0.04097 0.55451 0.20143 0.0
N48 N 0.10498 0.55704 0.21944 0.0
C49 C 0.16338 0.59632 0.21749 0.0
C50 C 0.19648 0.58708 0.23231 0.0
C51 C 0.15691 0.53848 0.24422 0.0
C52 C 0.10183 0.52071 0.23581 0.0
N53 N 0.98233 0.48668 0.22052 0.0
C54 C 0.99117 0.45496 0.23583 0.0
C55 C 0.93845 0.40758 0.24371 0.0
C56 C 0.89466 0.40891 0.23272 0.0
C57 C 0.92308 0.45662 0.21874 0.0
N58 N 0.97698 0.55454 0.18418 0.0
C59 C 0.91831 0.51986 0.18797 0.0
C60 C 0.88534 0.53305 0.17469 0.0
C61 C 0.92535 0.57966 0.16192 0.0
C62 C 0.98061 0.59193 0.16806 0.0
N63 N 0.04183 0.49921 0.18124 0.0
C64 C 0.03877 0.41156 0.15686 0.0
C65 C 0.98849 0.41399 0.1596 0.0
C66 C 0.99092 0.45757 0.17175 0.0
C67 C 0.09136 0.4554 0.16578 0.0
C68 C 0.09204 0.49883 0.17761 0.0
N69 N 0.03943 0.60941 0.22173 0.0
C70 C 0.98389 0.6341 0.24527 0.0
C71 C 0.03242 0.68994 0.24736 0.0
C72 C 0.08547 0.70416 0.23716 0.0
C73 C 0.08802 0.66346 0.22453 0.0
C74 C 0.98831 0.59498 0.23257 0.0
H75 H 0.12947 0.67698 0.2169 0.0
H76 H 0.94928 0.55357 0.23156 0.0
H77 H 0.95061 0.45594 0.17348 0.0
H78 H 0.13346 0.53105 0.18402 0.0
C79 C 0.18622 0.63495 0.19934 0.0
C80 C 0.03535 0.64066 0.15874 0.0
C81 C 0.04862 0.46677 0.24263 0.0
C82 C 0.89568 0.47445 0.20376 0.0
H83 H 0.15129 0.71825 0.14057 0.0
H84 H 0.23489 0.71563 0.16287 0.0
H85 H 0.24395 0.61085 0.23345 0.0
H86 H 0.16759 0.51712 0.257 0.0
H87 H 0.93237 0.37486 0.25582 0.0
H88 H 0.84777 0.37812 0.2344 0.0
H89 H 0.8379 0.51168 0.17447 0.0
H90 H 0.91499 0.60244 0.14968 0.0
H91 H 0.94706 0.38236 0.15241 0.0
H92 H 0.13171 0.45575 0.1641 0.0
H93 H 0.94224 0.62042 0.25337 0.0
H94 H 0.12442 0.74689 0.2384 0.0
C95 C 0.47626 0.07197 0.56925 0.0
C96 C 0.43279 0.02482 0.58164 0.0
C97 C 0.43012 0.97737 0.57387 0.0
C98 C 0.47211 0.99814 0.55737 0.0
N99 N 0.50214 0.05614 0.5543 0.0
Co100 Co 0.56684 0.10417 0.53208 0.0
N101 N 0.56195 0.03393 0.52041 0.0
C102 C 0.52441 0.97841 0.52719 0.0
C103 C 0.53347 0.93989 0.51688 0.0
C104 C 0.58033 0.97274 0.50294 0.0
C105 C 0.59698 0.02967 0.5055 0.0
N106 N 0.63127 0.15202 0.50972 0.0
C107 C 0.6596 0.13635 0.49583 0.0
C108 C 0.70306 0.18313 0.48337 0.0
C109 C 0.70307 0.23034 0.48997 0.0
C110 C 0.65966 0.20975 0.50596 0.0
N111 N 0.57221 0.17448 0.544 0.0
C112 C 0.6097 0.23 0.53716 0.0
C113 C 0.60212 0.26863 0.54819 0.0
C114 C 0.55681 0.2359 0.56286 0.0
C115 C 0.53936 0.17896 0.55991 0.0
N116 N 0.62648 0.1122 0.55359 0.0
C117 C 0.71361 0.12394 0.58292 0.0
C118 C 0.72173 0.17099 0.57019 0.0
C119 C 0.67797 0.16427 0.55584 0.0
C120 C 0.66086 0.07087 0.58086 0.0
C121 C 0.61825 0.06596 0.56616 0.0
N122 N 0.50732 0.09655 0.51045 0.0
C123 C 0.47182 0.14126 0.4853 0.0
C124 C 0.42097 0.08814 0.48122 0.0
C125 C 0.41454 0.03899 0.49187 0.0
C126 C 0.45779 0.04416 0.50634 0.0
C127 C 0.51402 0.14435 0.49962 0.0
H128 H 0.4499 0.00526 0.51414 0.0
H129 H 0.55123 0.18623 0.50186 0.0
H130 H 0.68705 0.20191 0.54669 0.0
H131 H 0.57926 0.02431 0.56511 0.0
C132 C 0.48388 0.96418 0.54437 0.0
C133 C 0.48966 0.13047 0.57184 0.0
C134 C 0.64862 0.07839 0.49458 0.0
C135 C 0.64877 0.24405 0.51931 0.0
H136 H 0.40525 0.02462 0.59475 0.0
H137 H 0.40067 0.93295 0.57942 0.0
H138 H 0.51019 0.89365 0.51978 0.0
H139 H 0.60093 0.95659 0.4926 0.0
H140 H 0.73269 0.18324 0.47121 0.0
H141 H 0.73276 0.2747 0.4844 0.0
H142 H 0.62568 0.31494 0.54549 0.0
H143 H 0.53792 0.25198 0.57411 0.0
H144 H 0.76149 0.21317 0.57146 0.0
H145 H 0.6528 0.033 0.59027 0.0
H146 H 0.47878 0.18098 0.47794 0.0
H147 H 0.37636 0.99661 0.48911 0.0
C148 C 0.70706 0.5803 0.83203 0.0
C149 C 0.75134 0.57198 0.82513 0.0
C150 C 0.75208 0.53394 0.84008 0.0
C151 C 0.7084 0.52106 0.85521 0.0
N152 N 0.67936 0.54777 0.85056 0.0
Co153 Co 0.61438 0.54192 0.86864 0.0
N154 N 0.6024 0.47299 0.88541 0.0
C155 C 0.64068 0.45552 0.88673 0.0
C156 C 0.61906 0.40491 0.89885 0.0
C157 C 0.56376 0.38962 0.9056 0.0
C158 C 0.55499 0.43234 0.89737 0.0
N159 N 0.54897 0.53525 0.88658 0.0
C160 C 0.50599 0.48932 0.89843 0.0
C161 C 0.46857 0.50277 0.90856 0.0
C162 C 0.48902 0.55918 0.9027 0.0
C163 C 0.53766 0.57696 0.88943 0.0
N164 N 0.62691 0.61164 0.85225 0.0
C165 C 0.60643 0.64478 0.85847 0.0
C166 C 0.62269 0.69079 0.84414 0.0
C167 C 0.6565 0.68714 0.82813 0.0
C168 C 0.65936 0.63912 0.83371 0.0
N169 N 0.55734 0.49251 0.84679 0.0
C170 C 0.46563 0.4148 0.81986 0.0
C171 C 0.47052 0.46605 0.82602 0.0
C172 C 0.51611 0.50382 0.83956 0.0
C173 C 0.50978 0.40495 0.82656 0.0
C174 C 0.55548 0.44458 0.83983 0.0
N175 N 0.67078 0.59162 0.89068 0.0
C176 C 0.69232 0.62068 0.92846 0.0
C177 C 0.74489 0.67089 0.92162 0.0
C178 C 0.76088 0.6794 0.89919 0.0
C179 C 0.72316 0.63956 0.88402 0.0
C180 C 0.65634 0.58109 0.91276 0.0
H181 H 0.73573 0.64883 0.86682 0.0
H182 H 0.61593 0.54284 0.91844 0.0
H183 H 0.51678 0.54139 0.8447 0.0
H184 H 0.58816 0.43541 0.84508 0.0
C185 C 0.68994 0.48028 0.87266 0.0
C186 C 0.69981 0.62627 0.82282 0.0
C187 C 0.50232 0.43429 0.90175 0.0
C188 C 0.56673 0.62771 0.87631 0.0
H189 H 0.78156 0.59292 0.81123 0.0
H190 H 0.78089 0.5175 0.83989 0.0
H191 H 0.6395 0.38018 0.90134 0.0
H192 H 0.53331 0.35095 0.91518 0.0
H193 H 0.43067 0.47483 0.9191 0.0
H194 H 0.46927 0.58345 0.90685 0.0
H195 H 0.61082 0.72275 0.84504 0.0
H196 H 0.67825 0.71747 0.81432 0.0
H197 H 0.43876 0.47674 0.82077 0.0
H198 H 0.5081 0.36602 0.82232 0.0
H199 H 0.67889 0.61242 0.94576 0.0
H200 H 0.80111 0.7179 0.89325 0.0
H201 H 0.08126 0.14746 0.09923 0.0
H202 H 0.98594 0.18845 0.05229 0.0
H203 H 0.07174 0.20621 0.1266 0.0
H204 H 0.97593 0.24626 0.07994 0.0
H205 H 0.94875 0.29769 0.15682 0.0
H206 H 0.94177 0.22121 0.13455 0.0
H207 H 0.1158 0.3396 0.10768 0.0
H208 H 0.12244 0.41712 0.12898 0.0
C209 C 0.05641 0.16712 0.09501 0.0
C210 C 0.03479 0.16376 0.07351 0.0
C211 C 0.0513 0.20086 0.11065 0.0
C212 C 0.02343 0.23056 0.10515 0.0
C213 C 0.99748 0.22341 0.08441 0.0
C214 C 0.00323 0.19038 0.06867 0.0
C215 C 0.98546 0.30774 0.14605 0.0
C216 C 0.03604 0.36393 0.14458 0.0
C217 C 0.98149 0.26376 0.13353 0.0
C218 C 0.02835 0.27498 0.11964 0.0
C219 C 0.07941 0.33027 0.11852 0.0
C220 C 0.08321 0.37443 0.1308 0.0
H221 H 0.95846 0.12666 0.43147 0.0
H222 H 0.82497 0.95343 0.41445 0.0
H223 H 0.88941 0.12979 0.45642 0.0
H224 H 0.75549 0.95615 0.43982 0.0
H225 H 0.63652 0.02908 0.45497 0.0
H226 H 0.70702 0.01259 0.43632 0.0
H227 H 0.82737 0.09036 0.49029 0.0
H228 H 0.75649 0.10688 0.50877 0.0
C229 C 0.9147 0.08878 0.43341 0.0
C230 C 0.89683 0.04019 0.42073 0.0
C231 C 0.87516 0.09041 0.44785 0.0
C232 C 0.81675 0.04357 0.4498 0.0
C233 C 0.80005 0.99325 0.43836 0.0
C234 C 0.83995 0.99144 0.42404 0.0
C235 C 0.67805 0.04232 0.46276 0.0
C236 C 0.6916 0.0692 0.48315 0.0
C237 C 0.71805 0.03239 0.45228 0.0
C238 C 0.77249 0.04968 0.46196 0.0
C239 C 0.78583 0.07667 0.48243 0.0
C240 C 0.7456 0.08627 0.49296 0.0
H241 H 0.98606 0.84469 0.72793 0.0
H242 H 0.94502 0.95572 0.76186 0.0
H243 H 0.9164 0.76336 0.75238 0.0
H244 H 0.8757 0.87517 0.786 0.0
H245 H 0.78886 0.72838 0.83709 0.0
H246 H 0.87049 0.80692 0.81541 0.0
H247 H 0.80435 0.70717 0.7566 0.0
H248 H 0.72237 0.62831 0.77856 0.0
C249 C 0.96311 0.85196 0.74089 0.0
C250 C 0.97044 0.90633 0.74288 0.0
C251 C 0.92286 0.80539 0.75468 0.0
C252 C 0.89024 0.81286 0.77092 0.0
C253 C 0.90027 0.86808 0.77367 0.0
C254 C 0.93972 0.91421 0.75974 0.0
C255 C 0.79193 0.72348 0.81952 0.0
C256 C 0.74923 0.67309 0.80929 0.0
C257 C 0.83855 0.76821 0.80715 0.0
C258 C 0.84367 0.76319 0.78433 0.0
C259 C 0.80174 0.71194 0.77421 0.0
C260 C 0.7547 0.6672 0.78663 0.0
H261 H 0.11403 0.8759 0.04803 0.0
H262 H 0.06952 0.95265 0.09966 0.0
H263 H 0.08905 0.79418 0.07286 0.0
H264 H 0.04263 0.86993 0.12432 0.0
H265 H 0.07495 0.75058 0.1693 0.0
H266 H 0.08891 0.82933 0.14469 0.0
H267 H 0.00985 0.71042 0.09152 0.0
H268 H 0.99817 0.63227 0.1162 0.0
C269 C 0.09846 0.87512 0.06464 0.0
C270 C 0.09419 0.92101 0.07191 0.0
C271 C 0.08359 0.82794 0.07884 0.0
C272 C 0.06367 0.82529 0.10062 0.0
C273 C 0.0586 0.87088 0.10777 0.0
C274 C 0.07386 0.91826 0.09361 0.0
C275 C 0.05984 0.74146 0.15242 0.0
C276 C 0.03531 0.68575 0.14455 0.0
C277 C 0.06757 0.78637 0.13833 0.0
C278 C 0.05073 0.77637 0.11605 0.0
C279 C 0.02416 0.71985 0.10847 0.0
C280 C 0.01677 0.67498 0.12258 0.0
H281 H 0.11099 0.01484 0.40445 0.0
H282 H 0.20778 0.19583 0.41898 0.0
H283 H 0.18751 0.00481 0.4221 0.0
H284 H 0.28453 0.18581 0.43614 0.0
H285 H 0.43559 0.15343 0.44357 0.0
H286 H 0.35995 0.15733 0.42269 0.0
H287 H 0.22529 0.01855 0.46402 0.0
H288 H 0.30077 0.01621 0.48579 0.0
C289 C 0.14888 0.05256 0.41117 0.0
C290 C 0.15338 0.10614 0.41037 0.0
C291 C 0.19238 0.04669 0.42133 0.0
C292 C 0.24174 0.09455 0.43041 0.0
C293 C 0.24701 0.14836 0.42912 0.0
C294 C 0.203 0.15399 0.41939 0.0
C295 C 0.38995 0.12389 0.44838 0.0
C296 C 0.37454 0.08513 0.46667 0.0
C297 C 0.34672 0.12597 0.43629 0.0
C298 C 0.28702 0.08852 0.44188 0.0
C299 C 0.27114 0.04767 0.45933 0.0
C300 C 0.31446 0.04622 0.47172 0.0
H301 H 0.11262 0.1498 0.78128 0.0
H302 H 0.21763 0.18302 0.7221 0.0
H303 H 0.20004 0.21959 0.8007 0.0
H304 H 0.305 0.25511 0.74122 0.0
H305 H 0.4604 0.34253 0.78788 0.0
H306 H 0.37392 0.26961 0.76863 0.0
H307 H 0.26685 0.31819 0.80337 0.0
H308 H 0.35177 0.38732 0.82378 0.0
C309 C 0.15432 0.17255 0.77232 0.0
C310 C 0.15802 0.16094 0.75011 0.0
C311 C 0.20459 0.21294 0.78344 0.0
C312 C 0.25986 0.24356 0.77255 0.0
C313 C 0.2635 0.2319 0.75029 0.0
C314 C 0.21326 0.19083 0.73925 0.0
C315 C 0.41827 0.33711 0.79164 0.0
C316 C 0.41345 0.3712 0.8074 0.0
C317 C 0.36868 0.29576 0.78033 0.0
C318 C 0.31308 0.28775 0.78438 0.0
C319 C 0.30852 0.32223 0.80001 0.0
C320 C 0.35777 0.36288 0.81147 0.0
H321 H 0.91728 0.14427 0.6978 0.0
H322 H 0.00079 0.11562 0.64292 0.0
H323 H 0.85702 0.16005 0.67204 0.0
H324 H 0.93974 0.13056 0.61721 0.0
H325 H 0.83273 0.18296 0.5754 0.0
H326 H 0.90858 0.19344 0.60079 0.0
H327 H 0.77422 0.08895 0.65025 0.0
H328 H 0.69886 0.07985 0.62517 0.0
C329 C 0.92378 0.1426 0.68022 0.0
C330 C 0.9631 0.12757 0.67246 0.0
C331 C 0.88888 0.15121 0.66547 0.0
C332 C 0.89253 0.14503 0.64265 0.0
C333 C 0.93577 0.13549 0.63471 0.0
C334 C 0.97086 0.12697 0.64948 0.0
C335 C 0.81956 0.16285 0.59181 0.0
C336 C 0.7598 0.13047 0.59829 0.0
C337 C 0.86296 0.16859 0.60628 0.0
C338 C 0.84749 0.14241 0.62758 0.0
C339 C 0.78775 0.11053 0.63409 0.0
C340 C 0.74443 0.10456 0.61962 0.0
H341 H 0.92661 0.00255 0.97895 0.0
H342 H 0.01009 0.92033 0.00991 0.0
H343 H 0.85609 0.912 0.96173 0.0
H344 H 0.93996 0.83032 0.99247 0.0
H345 H 0.86248 0.72171 0.92815 0.0
H346 H 0.92522 0.80408 0.95107 0.0
H347 H 0.77305 0.80607 0.97269 0.0
H348 H 0.71011 0.72304 0.94993 0.0
C349 C 0.92964 0.96515 0.98224 0.0
C350 C 0.97421 0.96881 0.9957 0.0
C351 C 0.88908 0.91328 0.97249 0.0
C352 C 0.89283 0.86437 0.97575 0.0
C353 C 0.9364 0.86756 0.9896 0.0
C354 C 0.97637 0.91909 -0.00037 0.0
C355 C 0.84247 0.73929 0.93808 0.0
C356 C 0.78163 0.71615 0.93737 0.0
C357 C 0.87821 0.78616 0.95122 0.0
C358 C 0.85387 0.81138 0.96357 0.0
C359 C 0.79281 0.78747 0.96324 0.0
C360 C 0.75688 0.73986 0.95039 0.0
H361 H 0.07104 0.98111 0.31936 0.0
H362 H 0.89143 0.83993 0.3306 0.0
H363 H 0.08884 0.92053 0.29597 0.0
H364 H 0.9095 0.77943 0.30753 0.0
H365 H 0.94165 0.70769 0.24639 0.0
H366 H 0.92804 0.77258 0.2685 0.0
H367 H 0.09647 0.83432 0.2987 0.0
H368 H 0.1101 0.76892 0.27651 0.0
C369 C 0.03538 0.93719 0.31687 0.0
C370 C 0.97972 0.91541 0.3268 0.0
C371 C 0.04572 0.90241 0.30357 0.0
C372 C 0.00055 0.84526 0.29983 0.0
C373 C 0.945 0.82355 0.30981 0.0
C374 C 0.93473 0.85817 0.32315 0.0
C375 C 0.97571 0.73487 0.25782 0.0
C376 C 0.02665 0.7326 0.25989 0.0
C377 C 0.96788 0.77207 0.2705 0.0
C378 C 0.01084 0.80814 0.28554 0.0
C379 C 0.06271 0.8073 0.28715 0.0
C380 C 0.07054 0.76989 0.27444 0.0
H381 H 0.19047 0.11657 0.63616 0.0
H382 H 0.27668 0.07008 0.68525 0.0
H383 H 0.27167 0.14528 0.61014 0.0
H384 H 0.35667 0.09691 0.65911 0.0
H385 H 0.51122 0.17548 0.61284 0.0
H386 H 0.43946 0.17276 0.63872 0.0
H387 H 0.30617 0.09699 0.58866 0.0
H388 H 0.37866 0.10184 0.56286 0.0
C389 C 0.22679 0.1126 0.64142 0.0
C390 C 0.22684 0.09055 0.66271 0.0
C391 C 0.27327 0.1289 0.62648 0.0
C392 C 0.32069 0.12321 0.63245 0.0
C393 C 0.32144 0.10278 0.65401 0.0
C394 C 0.2752 0.08684 0.66897 0.0
C395 C 0.46692 0.15991 0.60734 0.0
C396 C 0.45008 0.13908 0.586 0.0
C397 C 0.42567 0.15767 0.62215 0.0
C398 C 0.36678 0.13404 0.61588 0.0
C399 C 0.35113 0.11608 0.59402 0.0
C400 C 0.39244 0.11865 0.57923 0.0
H401 H 0.1794 0.20709 0.97582 0.0
H402 H 0.29035 0.14029 0.9902 0.0
H403 H 0.25161 0.27516 0.9484 0.0
H404 H 0.36296 0.20921 0.96299 0.0
H405 H 0.50432 0.40323 0.94462 0.0
H406 H 0.42458 0.32282 0.96639 0.0
H407 H 0.30838 0.28106 0.91102 0.0
H408 H 0.38938 0.36106 0.88894 0.0
C409 C 0.21857 0.20611 0.97284 0.0
C410 C 0.2294 0.16863 0.98532 0.0
C411 C 0.25978 0.24499 0.95709 0.0
C412 C 0.31294 0.2477 0.95383 0.0
C413 C 0.32237 0.20813 0.96538 0.0
C414 C 0.28069 0.16854 0.98084 0.0
C415 C 0.46186 0.37637 0.93709 0.0
C416 C 0.45291 0.38705 0.91506 0.0
C417 C 0.41646 0.33042 0.94945 0.0
C418 C 0.36083 0.29526 0.94019 0.0
C419 C 0.35114 0.30731 0.9184 0.0
C420 C 0.39712 0.35283 0.90585 0.0
H421 H 0.13182 0.30999 0.34983 0.0
H422 H 0.03854 0.1713 0.30461 0.0
H423 H 0.13316 0.37742 0.32233 0.0
H424 H 0.03945 0.239 0.27713 0.0
H425 H 0.07977 0.39273 0.22922 0.0
H426 H 0.09696 0.32831 0.25263 0.0
H427 H 0.04807 0.38366 0.31045 0.0
H428 H 0.03144 0.44783 0.28699 0.0
C429 C 0.11296 0.29415 0.3338 0.0
C430 C 0.08415 0.23511 0.32955 0.0
C431 C 0.11328 0.33271 0.31813 0.0
C432 C 0.08484 0.31311 0.29787 0.0
C433 C 0.06141 0.25526 0.29267 0.0
C434 C 0.06115 0.21652 0.30839 0.0
C435 C 0.07229 0.39032 0.24694 0.0
C436 C 0.05384 0.42432 0.25647 0.0
C437 C 0.08222 0.35381 0.26029 0.0
C438 C 0.07459 0.35151 0.28338 0.0
C439 C 0.05546 0.38534 0.29276 0.0
C440 C 0.0452 0.42144 0.27941 0.0
loop_
_geom_bond_atom_site_label_1
_geom_bond_atom_site_label_2
_geom_bond_distance
_geom_bond_site_symmetry_2
_ccdc_geom_bond_type
Mg0 O1 2.028 . S
Mg0 O7 1.986 . S
Mg0 O9 2.114 . S
Mg0 O10 2.251 . S
Mg0 O13 2.010 . S
O1 Mg0 2.028 . S
O1 C4 1.250 . S
O2 Mg3 2.028 . S
O2 C4 1.248 . S
Mg3 O2 2.028 . S
Mg3 O8 2.032 . S
Mg3 O10 2.079 . S
C4 O1 1.250 . S
C4 O2 1.248 . S
C5 O6 1.264 1_565 S
C5 O13 1.249 1_565 S
O6 C5 1.264 1_545 S
O7 Mg0 1.986 . S
O7 C11 1.246 . S
O8 Mg3 2.032 . S
O8 C11 1.259 . S
O9 Mg0 2.114 . S
O9 C12 1.252 . S
O10 Mg0 2.251 . S
O10 Mg3 2.079 . S
O10 C12 1.273 . S
C11 O7 1.246 . S
C11 O8 1.259 . S
C12 O9 1.252 . S
C12 O10 1.273 . S
O13 Mg0 2.010 . S
O13 C5 1.249 1_545 S
Mg14 O15 2.028 1_655 S
Mg14 O21 1.986 1_655 S
Mg14 O23 2.114 . S
Mg14 O24 2.251 . S
Mg14 O27 2.010 1_545 S
O15 Mg14 2.028 1_455 S
O15 C18 1.250 . S
O16 Mg17 2.028 . S
O16 C18 1.248 . S
Mg17 O16 2.028 . S
Mg17 O22 2.032 . S
Mg17 O24 2.079 1_455 S
C18 O15 1.250 . S
C18 O16 1.248 . S
C19 O20 1.264 . S
C19 O27 1.249 . S
O20 C19 1.264 . S
O21 Mg14 1.986 1_455 S
O21 C25 1.246 . S
O22 Mg17 2.032 . S
O22 C25 1.259 . S
O23 Mg14 2.114 . S
O23 C26 1.252 . S
O24 Mg14 2.251 . S
O24 Mg17 2.079 1_655 S
O24 C26 1.273 . S
C25 O21 1.246 . S
C25 O22 1.259 . S
C26 O23 1.252 . S
C26 O24 1.273 . S
O27 Mg14 2.010 1_565 S
O27 C19 1.249 . S
Mg28 O29 2.028 . S
Mg28 O35 1.986 . S
Mg28 O37 2.114 1_545 S
Mg28 O38 2.251 1_445 S
Mg28 O41 2.010 . S
O29 Mg28 2.028 . S
O29 C32 1.250 . S
O30 Mg31 2.028 1_455 S
O30 C32 1.248 . S
Mg31 O30 2.028 1_655 S
Mg31 O36 2.032 . S
Mg31 O38 2.079 1_545 S
C32 O29 1.250 . S
C32 O30 1.248 . S
C33 O34 1.264 . S
C33 O41 1.249 1_565 S
O34 C33 1.264 . S
O35 Mg28 1.986 . S
O35 C39 1.246 1_455 S
O36 Mg31 2.032 . S
O36 C39 1.259 . S
O37 Mg28 2.114 1_565 S
O37 C40 1.252 . S
O38 Mg28 2.251 1_665 S
O38 Mg31 2.079 1_565 S
O38 C40 1.273 1_655 S
C39 O35 1.246 1_655 S
C39 O36 1.259 . S
C40 O37 1.252 . S
C40 O38 1.273 1_455 S
O41 Mg28 2.010 . S
O41 C33 1.249 1_545 S
C42 C43 1.443 . S
C42 N46 1.376 . S
C42 C80 1.389 . S
C43 C42 1.443 . S
C43 C44 1.340 . S
C43 H83 0.951 . S
C44 C43 1.340 . S
C44 C45 1.439 . S
C44 H84 0.950 . S
C45 C44 1.439 . S
C45 N46 1.374 . S
C45 C79 1.395 . S
N46 C42 1.376 . S
N46 C45 1.374 . S
N46 Co47 2.008 . S
Co47 N46 2.008 . S
Co47 N48 1.995 . S
Co47 N53 2.008 1_455 S
Co47 N58 1.995 1_455 S
Co47 N63 2.282 . S
Co47 N69 2.282 . S
N48 Co47 1.995 . S
N48 C49 1.376 . S
N48 C52 1.383 . S
C49 N48 1.376 . S
C49 C50 1.446 . S
C49 C79 1.391 . S
C50 C49 1.446 . S
C50 C51 1.339 . S
C50 H85 0.949 . S
C51 C50 1.339 . S
C51 C52 1.439 . S
C51 H86 0.950 . S
C52 N48 1.383 . S
C52 C51 1.439 . S
C52 C81 1.392 . S
N53 Co47 2.008 1_655 S
N53 C54 1.376 . S
N53 C57 1.374 . S
C54 N53 1.376 . S
C54 C55 1.443 . S
C54 C81 1.389 1_655 S
C55 C54 1.443 . S
C55 C56 1.340 . S
C55 H87 0.951 . S
C56 C55 1.340 . S
C56 C57 1.439 . S
C56 H88 0.950 . S
C57 N53 1.374 . S
C57 C56 1.439 . S
C57 C82 1.395 . S
N58 Co47 1.995 1_655 S
N58 C59 1.376 . S
N58 C62 1.389 1_655 S
C59 N58 1.376 . S
C59 C60 1.446 . S
C59 C82 1.391 . S
C60 C59 1.446 . S
C60 C61 1.339 . S
C60 H89 0.949 . S
C61 C60 1.339 . S
C61 C62 1.419 1_655 S
C61 H90 0.950 . S
C62 N58 1.389 1_455 S
C62 C61 1.419 1_455 S
C62 C80 1.404 . S
N63 Co47 2.282 . S
N63 C66 1.332 . S
N63 C68 1.332 . S
C64 C65 1.386 . S
C64 C67 1.388 . S
C65 C64 1.386 . S
C65 C66 1.382 . S
C65 H91 0.950 1_455 S
C66 N63 1.332 . S
C66 C65 1.382 . S
C66 H77 0.952 1_455 S
C67 C64 1.388 . S
C67 C68 1.382 . S
C67 H92 0.950 . S
C68 N63 1.332 . S
C68 C67 1.382 . S
C68 H78 0.948 . S
N69 Co47 2.282 . S
N69 C73 1.332 . S
N69 C74 1.332 1_455 S
C70 C71 1.388 1_655 S
C70 C74 1.382 . S
C70 H93 0.950 . S
C71 C70 1.388 1_455 S
C71 C72 1.386 . S
C72 C71 1.386 . S
C72 C73 1.382 . S
C72 H94 0.950 . S
C73 N69 1.332 . S
C73 C72 1.382 . S
C73 H75 0.952 . S
C74 N69 1.332 1_655 S
C74 C70 1.382 . S
C74 H76 0.948 . S
H75 C73 0.952 . S
H76 C74 0.948 . S
H77 C66 0.952 1_655 S
H78 C68 0.948 . S
C79 C45 1.395 . S
C79 C49 1.391 . S
C80 C42 1.389 . S
C80 C62 1.404 . S
C81 C52 1.392 . S
C81 C54 1.389 1_455 S
C82 C57 1.395 . S
C82 C59 1.391 . S
H83 C43 0.951 . S
H84 C44 0.950 . S
H85 C50 0.949 . S
H86 C51 0.950 . S
H87 C55 0.951 . S
H88 C56 0.950 . S
H89 C60 0.949 . S
H90 C61 0.950 . S
H91 C65 0.950 1_655 S
H92 C67 0.950 . S
H93 C70 0.950 . S
H94 C72 0.950 . S
C95 C96 1.443 1_545 S
C95 N99 1.376 . S
C95 C133 1.389 . S
C96 C95 1.443 1_565 S
C96 C97 1.340 . S
C96 H136 0.951 . S
C97 C96 1.340 . S
C97 C98 1.439 . S
C97 H137 0.950 . S
C98 C97 1.439 . S
C98 N99 1.374 1_565 S
C98 C132 1.395 . S
N99 C95 1.376 . S
N99 C98 1.374 1_545 S
N99 Co100 2.008 . S
Co100 N99 2.008 . S
Co100 N101 1.995 . S
Co100 N106 2.008 . S
Co100 N111 1.995 . S
Co100 N116 2.282 . S
Co100 N122 2.282 . S
N101 Co100 1.995 . S
N101 C102 1.376 1_545 S
N101 C105 1.383 . S
C102 N101 1.376 1_565 S
C102 C103 1.446 . S
C102 C132 1.391 . S
C103 C102 1.446 . S
C103 C104 1.339 1_565 S
C103 H138 0.949 . S
C104 C103 1.339 1_545 S
C104 C105 1.439 . S
C104 H139 0.945 1_545 S
C105 N101 1.383 . S
C105 C104 1.439 . S
C105 C134 1.392 . S
N106 Co100 2.008 . S
N106 C107 1.376 . S
N106 C110 1.374 . S
C107 N106 1.376 . S
C107 C108 1.443 . S
C107 C134 1.389 . S
C108 C107 1.443 . S
C108 C109 1.340 . S
C108 H140 0.951 . S
C109 C108 1.340 . S
C109 C110 1.439 . S
C109 H141 0.950 . S
C110 N106 1.374 . S
C110 C109 1.439 . S
C110 C135 1.395 . S
N111 Co100 1.995 . S
N111 C112 1.376 . S
N111 C115 1.383 . S
C112 N111 1.376 . S
C112 C113 1.446 . S
C112 C135 1.391 . S
C113 C112 1.446 . S
C113 C114 1.339 . S
C113 H142 0.949 . S
C114 C113 1.339 . S
C114 C115 1.439 . S
C114 H143 0.950 . S
C115 N111 1.383 . S
C115 C114 1.439 . S
C115 C133 1.392 . S
N116 Co100 2.282 . S
N116 C119 1.332 . S
N116 C121 1.332 . S
C117 C118 1.386 . S
C117 C120 1.388 . S
C118 C117 1.386 . S
C118 C119 1.382 . S
C118 H144 0.950 . S
C119 N116 1.332 . S
C119 C118 1.382 . S
C119 H130 0.952 . S
C120 C117 1.388 . S
C120 C121 1.382 . S
C120 H145 0.950 . S
C121 N116 1.332 . S
C121 C120 1.382 . S
C121 H131 0.948 . S
N122 Co100 2.282 . S
N122 C126 1.332 . S
N122 C127 1.332 . S
C123 C124 1.388 . S
C123 C127 1.382 . S
C123 H146 0.950 . S
C124 C123 1.388 . S
C124 C125 1.386 . S
C125 C124 1.386 . S
C125 C126 1.382 . S
C125 H147 0.950 . S
C126 N122 1.332 . S
C126 C125 1.382 . S
C126 H128 0.952 . S
C127 N122 1.332 . S
C127 C123 1.382 . S
C127 H129 0.948 . S
H128 C126 0.952 . S
H129 C127 0.948 . S
H130 C119 0.952 . S
H131 C121 0.948 . S
C132 C98 1.395 . S
C132 C102 1.391 . S
C133 C95 1.389 . S
C133 C115 1.392 . S
C134 C105 1.392 . S
C134 C107 1.389 . S
C135 C110 1.395 . S
C135 C112 1.391 . S
H136 C96 0.951 . S
H137 C97 0.950 . S
H138 C103 0.949 . S
H139 C104 0.945 1_565 S
H140 C108 0.951 . S
H141 C109 0.950 . S
H142 C113 0.949 . S
H143 C114 0.950 . S
H144 C118 0.950 . S
H145 C120 0.950 . S
H146 C123 0.950 . S
H147 C125 0.950 . S
C148 C149 1.443 . S
C148 N152 1.376 . S
C148 C186 1.389 . S
C149 C148 1.443 . S
C149 C150 1.340 . S
C149 H189 0.951 . S
C150 C149 1.340 . S
C150 C151 1.439 . S
C150 H190 0.950 . S
C151 C150 1.439 . S
C151 N152 1.374 . S
C151 C185 1.395 . S
N152 C148 1.376 . S
N152 C151 1.374 . S
N152 Co153 2.008 . S
Co153 N152 2.008 . S
Co153 N154 1.995 . S
Co153 N159 2.008 . S
Co153 N164 1.995 . S
Co153 N169 2.282 . S
Co153 N175 2.282 . S
N154 Co153 1.995 . S
N154 C155 1.376 . S
N154 C158 1.383 . S
C155 N154 1.376 . S
C155 C156 1.446 . S
C155 C185 1.391 . S
C156 C155 1.446 . S
C156 C157 1.339 . S
C156 H191 0.949 . S
C157 C156 1.339 . S
C157 C158 1.439 . S
C157 H192 0.950 . S
C158 N154 1.383 . S
C158 C157 1.439 . S
C158 C187 1.392 . S
N159 Co153 2.008 . S
N159 C160 1.376 . S
N159 C163 1.374 . S
C160 N159 1.376 . S
C160 C161 1.443 . S
C160 C187 1.389 . S
C161 C160 1.443 . S
C161 C162 1.340 . S
C161 H193 0.951 . S
C162 C161 1.340 . S
C162 C163 1.439 . S
C162 H194 0.950 . S
C163 N159 1.374 . S
C163 C162 1.439 . S
C163 C188 1.395 . S
N164 Co153 1.995 . S
N164 C165 1.376 . S
N164 C168 1.383 . S
C165 N164 1.376 . S
C165 C166 1.446 . S
C165 C188 1.391 . S
C166 C165 1.446 . S
C166 C167 1.339 . S
C166 H195 0.949 . S
C167 C166 1.339 . S
C167 C168 1.439 . S
C167 H196 0.950 . S
C168 N164 1.383 . S
C168 C167 1.439 . S
C168 C186 1.392 . S
N169 Co153 2.282 . S
N169 C172 1.332 . S
N169 C174 1.332 . S
C170 C171 1.386 . S
C170 C173 1.388 . S
C171 C170 1.386 . S
C171 C172 1.382 . S
C171 H197 0.950 . S
C172 N169 1.332 . S
C172 C171 1.382 . S
C172 H183 0.952 . S
C173 C170 1.388 . S
C173 C174 1.382 . S
C173 H198 0.950 . S
C174 N169 1.332 . S
C174 C173 1.382 . S
C174 H184 0.948 . S
N175 Co153 2.282 . S
N175 C179 1.332 . S
N175 C180 1.332 . S
C176 C177 1.388 . S
C176 C180 1.382 . S
C176 H199 0.950 . S
C177 C176 1.388 . S
C177 C178 1.386 . S
C178 C177 1.386 . S
C178 C179 1.382 . S
C178 H200 0.950 . S
C179 N175 1.332 . S
C179 C178 1.382 . S
C179 H181 0.952 . S
C180 N175 1.332 . S
C180 C176 1.382 . S
C180 H182 0.948 . S
H181 C179 0.952 . S
H182 C180 0.948 . S
H183 C172 0.952 . S
H184 C174 0.948 . S
C185 C151 1.395 . S
C185 C155 1.391 . S
C186 C148 1.389 . S
C186 C168 1.392 . S
C187 C158 1.392 . S
C187 C160 1.389 . S
C188 C163 1.395 . S
C188 C165 1.391 . S
H189 C149 0.951 . S
H190 C150 0.950 . S
H191 C156 0.949 . S
H192 C157 0.950 . S
H193 C161 0.951 . S
H194 C162 0.950 . S
H195 C166 0.949 . S
H196 C167 0.950 . S
H197 C171 0.950 . S
H198 C173 0.950 . S
H199 C176 0.950 . S
H200 C178 0.950 . S
H201 C209 0.950 . S
H202 C214 0.950 1_655 S
H203 C211 0.950 . S
H204 C213 0.950 1_655 S
H205 C215 0.950 1_655 S
H206 C217 0.950 1_655 S
H207 C219 0.950 . S
H208 C220 0.950 . S
C209 H201 0.950 . S
C209 C210 1.386 . S
C209 C211 1.391 . S
C210 C209 1.386 . S
C210 C214 1.393 . S
C211 H203 0.950 . S
C211 C209 1.391 . S
C211 C212 1.400 . S
C212 C211 1.400 . S
C212 C213 1.398 . S
C212 C218 1.491 . S
C213 H204 0.950 1_455 S
C213 C212 1.398 . S
C213 C214 1.391 . S
C214 H202 0.950 1_455 S
C214 C210 1.393 . S
C214 C213 1.391 . S
C215 H205 0.950 1_455 S
C215 C216 1.386 . S
C215 C217 1.391 . S
C216 C215 1.386 . S
C216 C220 1.393 . S
C217 H206 0.950 1_455 S
C217 C215 1.391 . S
C217 C218 1.400 . S
C218 C212 1.491 . S
C218 C217 1.400 . S
C218 C219 1.398 . S
C219 H207 0.950 . S
C219 C218 1.398 . S
C219 C220 1.391 . S
C220 H208 0.950 . S
C220 C216 1.393 . S
C220 C219 1.391 . S
H221 C229 0.950 . S
H222 C234 0.950 . S
H223 C231 0.950 . S
H224 C233 0.950 . S
H225 C235 0.950 . S
H226 C237 0.950 . S
H227 C239 0.950 . S
H228 C240 0.950 . S
C229 H221 0.950 . S
C229 C230 1.386 . S
C229 C231 1.391 . S
C230 C229 1.386 . S
C230 C234 1.393 . S
C231 H223 0.950 . S
C231 C229 1.391 . S
C231 C232 1.400 . S
C232 C231 1.400 . S
C232 C233 1.398 . S
C232 C238 1.491 . S
C233 H224 0.950 . S
C233 C232 1.398 . S
C233 C234 1.391 . S
C234 H222 0.950 . S
C234 C230 1.393 . S
C234 C233 1.391 . S
C235 H225 0.950 . S
C235 C236 1.386 . S
C235 C237 1.391 . S
C236 C235 1.386 . S
C236 C240 1.393 . S
C237 H226 0.950 . S
C237 C235 1.391 . S
C237 C238 1.400 . S
C238 C232 1.491 . S
C238 C237 1.400 . S
C238 C239 1.398 . S
C239 H227 0.950 . S
C239 C238 1.398 . S
C239 C240 1.391 . S
C240 H228 0.950 . S
C240 C236 1.393 . S
C240 C239 1.391 . S
H241 C249 0.950 . S
H242 C254 0.953 . S
H243 C251 0.950 . S
H244 C253 0.950 . S
H245 C255 0.950 . S
H246 C257 0.950 . S
H247 C259 0.950 . S
H248 C260 0.950 . S
C249 H241 0.950 . S
C249 C250 1.386 . S
C249 C251 1.391 . S
C250 C249 1.386 . S
C250 C254 1.393 . S
C251 H243 0.950 . S
C251 C249 1.391 . S
C251 C252 1.400 . S
C252 C251 1.400 . S
C252 C253 1.398 . S
C252 C258 1.491 . S
C253 H244 0.950 . S
C253 C252 1.398 . S
C253 C254 1.391 . S
C254 H242 0.953 . S
C254 C250 1.393 . S
C254 C253 1.391 . S
C255 H245 0.950 . S
C255 C256 1.386 . S
C255 C257 1.391 . S
C256 C255 1.386 . S
C256 C260 1.393 . S
C257 H246 0.950 . S
C257 C255 1.391 . S
C257 C258 1.400 . S
C258 C252 1.491 . S
C258 C257 1.400 . S
C258 C259 1.398 . S
C259 H247 0.950 . S
C259 C258 1.398 . S
C259 C260 1.391 . S
C260 H248 0.950 . S
C260 C256 1.393 . S
C260 C259 1.391 . S
H261 C269 0.950 . S
H262 C274 0.950 . S
H263 C271 0.950 . S
H264 C273 0.950 . S
H265 C275 0.950 . S
H266 C277 0.950 . S
H267 C279 0.950 . S
H268 C280 0.950 . S
C269 H261 0.950 . S
C269 C270 1.386 . S
C269 C271 1.391 . S
C270 C269 1.386 . S
C270 C274 1.393 . S
C271 H263 0.950 . S
C271 C269 1.391 . S
C271 C272 1.400 . S
C272 C271 1.400 . S
C272 C273 1.398 . S
C272 C278 1.491 . S
C273 H264 0.950 . S
C273 C272 1.398 . S
C273 C274 1.391 . S
C274 H262 0.950 . S
C274 C270 1.393 . S
C274 C273 1.391 . S
C275 H265 0.950 . S
C275 C276 1.386 . S
C275 C277 1.391 . S
C276 C275 1.386 . S
C276 C280 1.393 . S
C277 H266 0.950 . S
C277 C275 1.391 . S
C277 C278 1.400 . S
C278 C272 1.491 . S
C278 C277 1.400 . S
C278 C279 1.398 . S
C279 H267 0.950 . S
C279 C278 1.398 . S
C279 C280 1.391 . S
C280 H268 0.950 . S
C280 C276 1.393 . S
C280 C279 1.391 . S
H281 C289 0.950 . S
H282 C294 0.950 . S
H283 C291 0.950 . S
H284 C293 0.950 . S
H285 C295 0.950 . S
H286 C297 0.950 . S
H287 C299 0.950 . S
H288 C300 0.950 . S
C289 H281 0.950 . S
C289 C290 1.386 . S
C289 C291 1.391 . S
C290 C289 1.386 . S
C290 C294 1.393 . S
C291 H283 0.950 . S
C291 C289 1.391 . S
C291 C292 1.400 . S
C292 C291 1.400 . S
C292 C293 1.398 . S
C292 C298 1.491 . S
C293 H284 0.950 . S
C293 C292 1.398 . S
C293 C294 1.391 . S
C294 H282 0.950 . S
C294 C290 1.393 . S
C294 C293 1.391 . S
C295 H285 0.950 . S
C295 C296 1.386 . S
C295 C297 1.391 . S
C296 C295 1.386 . S
C296 C300 1.393 . S
C297 H286 0.950 . S
C297 C295 1.391 . S
C297 C298 1.400 . S
C298 C292 1.491 . S
C298 C297 1.400 . S
C298 C299 1.398 . S
C299 H287 0.950 . S
C299 C298 1.398 . S
C299 C300 1.391 . S
C300 H288 0.950 . S
C300 C296 1.393 . S
C300 C299 1.391 . S
H301 C309 0.950 . S
H302 C314 0.950 . S
H303 C311 0.950 . S
H304 C313 0.950 . S
H305 C315 0.950 . S
H306 C317 0.950 . S
H307 C319 0.950 . S
H308 C320 0.950 . S
C309 H301 0.950 . S
C309 C310 1.386 . S
C309 C311 1.391 . S
C310 C309 1.386 . S
C310 C314 1.393 . S
C311 H303 0.950 . S
C311 C309 1.391 . S
C311 C312 1.400 . S
C312 C311 1.400 . S
C312 C313 1.398 . S
C312 C318 1.491 . S
C313 H304 0.950 . S
C313 C312 1.398 . S
C313 C314 1.391 . S
C314 H302 0.950 . S
C314 C310 1.393 . S
C314 C313 1.391 . S
C315 H305 0.950 . S
C315 C316 1.386 . S
C315 C317 1.391 . S
C316 C315 1.386 . S
C316 C320 1.393 . S
C317 H306 0.950 . S
C317 C315 1.391 . S
C317 C318 1.400 . S
C318 C312 1.491 . S
C318 C317 1.400 . S
C318 C319 1.398 . S
C319 H307 0.950 . S
C319 C318 1.398 . S
C319 C320 1.391 . S
C320 H308 0.950 . S
C320 C316 1.393 . S
C320 C319 1.391 . S
H321 C329 0.950 . S
H322 C334 0.950 . S
H323 C331 0.950 . S
H324 C333 0.950 . S
H325 C335 0.950 . S
H326 C337 0.950 . S
H327 C339 0.950 . S
H328 C340 0.950 . S
C329 H321 0.950 . S
C329 C330 1.386 . S
C329 C331 1.391 . S
C330 C329 1.386 . S
C330 C334 1.393 . S
C331 H323 0.950 . S
C331 C329 1.391 . S
C331 C332 1.400 . S
C332 C331 1.400 . S
C332 C333 1.398 . S
C332 C338 1.491 . S
C333 H324 0.950 . S
C333 C332 1.398 . S
C333 C334 1.391 . S
C334 H322 0.950 . S
C334 C330 1.393 . S
C334 C333 1.391 . S
C335 H325 0.950 . S
C335 C336 1.386 . S
C335 C337 1.391 . S
C336 C335 1.386 . S
C336 C340 1.393 . S
C337 H326 0.950 . S
C337 C335 1.391 . S
C337 C338 1.400 . S
C338 C332 1.491 . S
C338 C337 1.400 . S
C338 C339 1.398 . S
C339 H327 0.950 . S
C339 C338 1.398 . S
C339 C340 1.391 . S
C340 H328 0.950 . S
C340 C336 1.393 . S
C340 C339 1.391 . S
H341 C349 0.950 1_545 S
H342 C354 0.950 . S
H343 C351 0.950 . S
H344 C353 0.950 1_554 S
H345 C355 0.950 . S
H346 C357 0.950 . S
H347 C359 0.950 . S
H348 C360 0.950 . S
C349 H341 0.950 1_565 S
C349 C350 1.386 1_456 S
C349 C351 1.391 1_455 S
C350 C349 1.386 1_654 S
C350 C354 1.393 . S
C351 H343 0.950 . S
C351 C349 1.391 1_655 S
C351 C352 1.400 . S
C352 C351 1.400 . S
C352 C353 1.398 . S
C352 C358 1.491 . S
C353 H344 0.950 1_556 S
C353 C352 1.398 . S
C353 C354 1.391 1_556 S
C354 H342 0.950 . S
C354 C350 1.393 . S
C354 C353 1.391 1_554 S
C355 H345 0.950 . S
C355 C356 1.386 . S
C355 C357 1.391 . S
C356 C355 1.386 . S
C356 C360 1.393 . S
C357 H346 0.950 . S
C357 C355 1.391 . S
C357 C358 1.400 . S
C358 C352 1.491 . S
C358 C357 1.400 . S
C358 C359 1.398 . S
C359 H347 0.950 . S
C359 C358 1.398 . S
C359 C360 1.391 . S
C360 H348 0.950 . S
C360 C356 1.393 . S
C360 C359 1.391 . S
H361 C369 0.950 . S
H362 C374 0.950 . S
H363 C371 0.950 . S
H364 C373 0.950 . S
H365 C375 0.950 . S
H366 C377 0.950 . S
H367 C379 0.950 . S
H368 C380 0.950 . S
C369 H361 0.950 . S
C369 C370 1.389 . S
C369 C371 1.391 . S
C370 C369 1.389 . S
C370 C374 1.391 1_455 S
C371 H363 0.950 . S
C371 C369 1.391 . S
C371 C372 1.400 . S
C372 C371 1.400 . S
C372 C373 1.398 1_455 S
C372 C378 1.491 . S
C373 H364 0.950 . S
C373 C372 1.398 1_655 S
C373 C374 1.391 . S
C374 H362 0.950 . S
C374 C370 1.391 1_655 S
C374 C373 1.391 . S
C375 H365 0.950 . S
C375 C376 1.386 1_655 S
C375 C377 1.391 . S
C376 C375 1.386 1_455 S
C376 C380 1.393 . S
C377 H366 0.950 . S
C377 C375 1.391 . S
C377 C378 1.400 1_655 S
C378 C372 1.491 . S
C378 C377 1.400 1_455 S
C378 C379 1.398 . S
C379 H367 0.950 . S
C379 C378 1.398 . S
C379 C380 1.391 . S
C380 H368 0.950 . S
C380 C376 1.393 . S
C380 C379 1.391 . S
H381 C389 0.950 . S
H382 C394 0.963 . S
H383 C391 0.950 . S
H384 C393 0.950 1_565 S
H385 C395 0.950 . S
H386 C397 0.950 . S
H387 C399 0.950 . S
H388 C400 0.950 . S
C389 H381 0.950 . S
C389 C390 1.386 . S
C389 C391 1.391 . S
C390 C389 1.386 . S
C390 C394 1.376 1_545 S
C391 H383 0.950 . S
C391 C389 1.391 . S
C391 C392 1.400 . S
C392 C391 1.400 . S
C392 C393 1.398 . S
C392 C398 1.491 . S
C393 H384 0.950 1_545 S
C393 C392 1.398 . S
C393 C394 1.395 1_545 S
C394 H382 0.963 . S
C394 C390 1.376 1_565 S
C394 C393 1.395 1_565 S
C395 H385 0.950 . S
C395 C396 1.386 . S
C395 C397 1.391 . S
C396 C395 1.386 . S
C396 C400 1.393 . S
C397 H386 0.950 . S
C397 C395 1.391 . S
C397 C398 1.400 . S
C398 C392 1.491 . S
C398 C397 1.400 . S
C398 C399 1.398 . S
C399 H387 0.950 . S
C399 C398 1.398 . S
C399 C400 1.391 . S
C400 H388 0.950 . S
C400 C396 1.393 . S
C400 C399 1.391 . S
H401 C409 0.950 . S
H402 C414 0.950 . S
H403 C411 0.950 . S
H404 C413 0.950 . S
H405 C415 0.950 . S
H406 C417 0.950 . S
H407 C419 0.950 . S
H408 C420 0.950 . S
C409 H401 0.950 . S
C409 C410 1.386 . S
C409 C411 1.391 . S
C410 C409 1.386 . S
C410 C414 1.393 1_556 S
C411 H403 0.950 . S
C411 C409 1.391 . S
C411 C412 1.400 . S
C412 C411 1.400 . S
C412 C413 1.398 . S
C412 C418 1.491 . S
C413 H404 0.950 . S
C413 C412 1.398 . S
C413 C414 1.391 1_556 S
C414 H402 0.950 . S
C414 C410 1.393 1_554 S
C414 C413 1.391 1_554 S
C415 H405 0.950 . S
C415 C416 1.386 . S
C415 C417 1.391 . S
C416 C415 1.386 . S
C416 C420 1.393 . S
C417 H406 0.950 . S
C417 C415 1.391 . S
C417 C418 1.400 . S
C418 C412 1.491 . S
C418 C417 1.400 . S
C418 C419 1.398 . S
C419 H407 0.950 . S
C419 C418 1.398 . S
C419 C420 1.391 . S
C420 H408 0.950 . S
C420 C416 1.393 . S
C420 C419 1.391 . S
H421 C429 0.950 . S
H422 C434 0.950 . S
H423 C431 0.950 . S
H424 C433 0.950 . S
H425 C435 0.950 1_655 S
H426 C437 0.947 . S
H427 C439 0.950 . S
H428 C440 0.950 . S
C429 H421 0.950 . S
C429 C430 1.386 . S
C429 C431 1.391 . S
C430 C429 1.386 . S
C430 C434 1.393 . S
C431 H423 0.950 . S
C431 C429 1.391 . S
C431 C432 1.400 . S
C432 C431 1.400 . S
C432 C433 1.398 . S
C432 C438 1.491 . S
C433 H424 0.950 . S
C433 C432 1.398 . S
C433 C434 1.391 . S
C434 H422 0.950 . S
C434 C430 1.393 . S
C434 C433 1.391 . S
C435 H425 0.950 1_455 S
C435 C436 1.386 . S
C435 C437 1.391 . S
C436 C435 1.386 . S
C436 C440 1.393 . S
C437 H426 0.947 . S
C437 C435 1.391 . S
C437 C438 1.400 . S
C438 C432 1.491 . S
C438 C437 1.400 . S
C438 C439 1.398 . S
C439 H427 0.950 . S
C439 C438 1.398 . S
C439 C440 1.391 . S
C440 H428 0.950 . S
C440 C436 1.393 . S
C440 C439 1.391 . S
C216 C64 1.399 . S
C210 C11 1.370 . S
C230 C26 1.535 . S
C236 C134 1.555 . S
C250 C40 1.425 1_655 S
C256 C186 1.431 . S
C270 C5 1.239 . S
C276 C80 1.409 . S
C296 C124 1.537 . S
C290 C18 1.524 . S
C310 C32 1.400 . S
C316 C170 1.416 . S
C336 C117 1.294 . S
C330 C39 1.292 . S
C350 C4 1.412 1_665 S
C356 C177 1.424 . S
C376 C71 1.398 . S
C370 C19 1.238 1_455 S
C396 C133 1.330 . S
C390 C33 1.219 1_545 S
C416 C187 1.443 . S
C410 C12 1.423 1_556 S
C430 C25 1.394 . S
C436 C81 1.409 . S
