# Generated by pormake.
# Topology nia, (6,6)-cn, num edge types: 1
# Building blocks:
#     Node 0, Type 0, BuildingBlock: BETDEL_clean_sbu_0, # of connection points: 6
#     Node 1, Type 0, BuildingBlock: BETDEL_clean_sbu_0, # of connection points: 6
#     Node 2, Type 1, BuildingBlock: MIDCAF_clean_sbu_0, # of connection points: 6
#     Node 3, Type 1, BuildingBlock: MIDCAF_clean_sbu_0, # of connection points: 6
#     Edge 4, Type (0, 1), BuildingBlock: MIFKUJ_clean_linker_0, # of connection points: 2
#     Edge 5, Type (0, 1), BuildingBlock: MIFKUJ_clean_linker_0, # of connection points: 2
#     Edge 6, Type (0, 1), BuildingBlock: MIFKUJ_clean_linker_0, # of connection points: 2
#     Edge 7, Type (0, 1), BuildingBlock: MIFKUJ_clean_linker_0, # of connection points: 2
#     Edge 8, Type (0, 1), BuildingBlock: MIFKUJ_clean_linker_0, # of connection points: 2
#     Edge 9, Type (0, 1), BuildingBlock: MIFKUJ_clean_linker_0, # of connection points: 2
#     Edge 10, Type (0, 1), BuildingBlock: MIFKUJ_clean_linker_0, # of connection points: 2
#     Edge 11, Type (0, 1), BuildingBlock: MIFKUJ_clean_linker_0, # of connection points: 2
#     Edge 12, Type (0, 1), BuildingBlock: MIFKUJ_clean_linker_0, # of connection points: 2
#     Edge 13, Type (0, 1), BuildingBlock: MIFKUJ_clean_linker_0, # of connection points: 2
#     Edge 14, Type (0, 1), BuildingBlock: MIFKUJ_clean_linker_0, # of connection points: 2
#     Edge 15, Type (0, 1), BuildingBlock: MIFKUJ_clean_linker_0, # of connection points: 2
# Relax obj value: 0.202
# Max RMSD: 0.244
# Mean RMSD: 0.202
data_MOF--net-nia--node1-BETDEL_clean_sbu_0--node2-MIDCAF_clean_sbu_0--edge1-MIFKUJ_clean_linker_0
_symmetry_space_group_name_H-M    P1
_symmetry_Int_Tables_number       1
_symmetry_cell_setting            triclinic
loop_
_symmetry_equiv_pos_as_xyz
'x, y, z'
_cell_length_a     30.325589
_cell_length_b     31.454534
_cell_length_c     41.448572
_cell_angle_alpha  87.10305
_cell_angle_beta   93.338899
_cell_angle_gamma 125.21778
loop_
_atom_site_label
_atom_site_type_symbol
_atom_site_fract_x
_atom_site_fract_y
_atom_site_fract_z
_atom_type_partial_charge
Dy0 Dy 0.04624 0.05597 0.03136 0.0
C1 C 0.91371 0.88647 0.953 0.0
C2 C 0.11653 0.13648 0.07089 0.0
Dy3 Dy 0.9832 0.97418 0.98733 0.0
O4 O 0.09292 0.08774 0.07778 0.0
O5 O 0.10162 0.14224 0.04187 0.0
O6 O 0.99184 0.0092 0.07203 0.0
O7 O 0.95694 0.99863 0.02592 0.0
C8 C 0.94772 0.9824 0.05484 0.0
C9 C 0.07989 0.04888 0.96305 0.0
O10 O 0.94725 0.01822 0.97665 0.0
O11 O 0.022 0.09569 0.99493 0.0
O12 O 0.93386 0.93347 0.94266 0.0
O13 O 0.93144 0.88706 0.98231 0.0
O14 O 0.03516 0.02222 0.94631 0.0
O15 O 0.07236 0.03206 0.99199 0.0
O16 O 0.08258 0.01191 0.0417 0.0
O17 O 0.0082 0.935 0.02323 0.0
C18 C 0.97672 0.0695 0.977 0.0
C19 C 0.05365 0.96076 0.04078 0.0
Dy20 Dy 0.98236 0.02857 0.51817 0.0
C21 C 0.0497 0.91178 0.45375 0.0
C22 C 0.96448 0.0933 0.54639 0.0
Dy23 Dy 0.03146 0.97737 0.4801 0.0
O24 O 0.00858 0.09546 0.55006 0.0
O25 O 0.93089 0.05698 0.52628 0.0
O26 O 0.92167 0.95554 0.54665 0.0
O27 O 0.97205 0.95483 0.51589 0.0
C28 C 0.93585 0.92716 0.53587 0.0
C29 C 0.0753 0.07764 0.46041 0.0
O30 O 0.95867 0.95654 0.44975 0.0
O31 O 0.94326 0.01572 0.46868 0.0
O32 O 0.00419 0.90717 0.45127 0.0
O33 O 0.08471 0.95136 0.47144 0.0
O34 O 0.08773 0.04829 0.44891 0.0
O35 O 0.04195 0.05146 0.48219 0.0
O36 O 0.05378 0.04728 0.54964 0.0
O37 O 0.07215 0.99123 0.52888 0.0
C38 C 0.93501 0.98134 0.44738 0.0
C39 C 0.07889 0.02385 0.55094 0.0
Zn40 Zn 0.30885 0.6393 0.18977 0.0
Zn41 Zn 0.36134 0.69279 0.31056 0.0
Zn42 Zn 0.33568 0.66958 0.24994 0.0
C43 C 0.45618 0.75387 0.27827 0.0
C44 C 0.31258 0.58796 0.31157 0.0
O45 O 0.28603 0.69737 0.229 0.0
O46 O 0.27507 0.67609 0.17761 0.0
C47 C 0.42193 0.70416 0.19363 0.0
O48 O 0.42436 0.7247 0.25505 0.0
O49 O 0.43797 0.75086 0.30551 0.0
O50 O 0.34271 0.62562 0.33015 0.0
O51 O 0.30459 0.59714 0.28179 0.0
O52 O 0.38354 0.67217 0.17486 0.0
O53 O 0.41196 0.70991 0.22238 0.0
O54 O 0.29608 0.58563 0.24843 0.0
O55 O 0.26329 0.56313 0.19832 0.0
C56 C 0.26924 0.55068 0.22683 0.0
O57 O 0.292 0.70288 0.26268 0.0
O58 O 0.30806 0.70865 0.31565 0.0
C59 C 0.26882 0.69794 0.19983 0.0
C60 C 0.28431 0.71252 0.29086 0.0
Zn61 Zn 0.69044 0.34336 0.81361 0.0
Zn62 Zn 0.67502 0.33604 0.69088 0.0
Zn63 Zn 0.68076 0.33731 0.75345 0.0
C64 C 0.7279 0.43881 0.70149 0.0
C65 C 0.56935 0.27309 0.71217 0.0
O66 O 0.72412 0.30103 0.77285 0.0
O67 O 0.71678 0.30107 0.82553 0.0
C68 C 0.74923 0.44401 0.7912 0.0
O69 O 0.72183 0.41956 0.73063 0.0
O70 O 0.70888 0.40907 0.6777 0.0
O71 O 0.59595 0.2884 0.68675 0.0
O72 O 0.59385 0.2876 0.74009 0.0
O73 O 0.74301 0.41871 0.81713 0.0
O74 O 0.72637 0.42008 0.76458 0.0
O75 O 0.59634 0.29346 0.77391 0.0
O76 O 0.61604 0.31248 0.8256 0.0
C77 C 0.58105 0.29024 0.80299 0.0
O78 O 0.72277 0.30246 0.73909 0.0
O79 O 0.71886 0.30934 0.68574 0.0
C80 C 0.73139 0.28882 0.80198 0.0
C81 C 0.73462 0.29688 0.71094 0.0
H82 H 0.11296 0.99184 0.09713 0.0
H83 H 0.14383 0.94695 0.13038 0.0
H84 H 0.06859 0.8225 0.06197 0.0
H85 H 0.03459 0.86609 0.0296 0.0
H86 H 0.05676 0.78171 0.11861 0.0
H87 H 0.21107 0.92743 0.06508 0.0
H88 H 0.27518 0.01991 0.04958 0.0
H89 H 0.31967 0.05909 0.14951 0.0
H90 H 0.25533 0.96691 0.16561 0.0
H91 H 0.30002 0.76611 0.15013 0.0
H92 H 0.26012 0.8109 0.12916 0.0
H93 H 0.14763 0.7434 0.20646 0.0
H94 H 0.18669 0.69631 0.2268 0.0
H95 H 0.25158 0.88143 0.15021 0.0
H96 H 0.02877 0.72559 0.17693 0.0
H97 H 0.96709 0.63063 0.18633 0.0
H98 H 0.06489 0.6074 0.12913 0.0
H99 H 0.1267 0.7021 0.11911 0.0
C100 C 0.103 0.95489 0.08916 0.0
C101 C 0.07206 0.93281 0.0605 0.0
C102 C 0.12082 0.92925 0.10818 0.0
C103 C 0.10989 0.88181 0.0984 0.0
C104 C 0.07784 0.8591 0.07009 0.0
C105 C 0.05867 0.88414 0.05146 0.0
C106 C 0.13325 0.85685 0.11709 0.0
C107 C 0.09935 0.80366 0.12558 0.0
C108 C 0.18892 0.88506 0.12622 0.0
C109 C 0.22804 0.94039 0.11655 0.0
C110 C 0.23434 0.95583 0.08374 0.0
C111 C 0.27072 0.00818 0.07486 0.0
C112 C 0.30137 0.04537 0.09855 0.0
C113 C 0.29585 0.03026 0.13118 0.0
C114 C 0.25947 0.97797 0.1402 0.0
C115 C 0.26704 0.76114 0.16284 0.0
C116 C 0.24692 0.72844 0.19036 0.0
C117 C 0.24438 0.78697 0.15091 0.0
C118 C 0.20069 0.7806 0.16607 0.0
C119 C 0.18106 0.74871 0.19414 0.0
C120 C 0.20378 0.72242 0.20605 0.0
C121 C 0.17534 0.8062 0.15124 0.0
C122 C 0.20885 0.85964 0.14359 0.0
C123 C 0.11977 0.77788 0.14205 0.0
C124 C 0.08263 0.7209 0.14764 0.0
C125 C 0.03699 0.70016 0.16633 0.0
C126 C 0.00203 0.6464 0.17176 0.0
C127 C 0.01218 0.61302 0.15844 0.0
C128 C 0.05719 0.6333 0.13954 0.0
C129 C 0.09222 0.68701 0.13401 0.0
H130 H 0.9851 0.57143 0.16269 0.0
H131 H 0.32948 0.08588 0.09163 0.0
H132 H 0.0713 0.03958 0.61398 0.0
H133 H 0.13861 0.06315 0.6581 0.0
H134 H 0.24274 0.06238 0.59159 0.0
H135 H 0.17402 0.03503 0.5485 0.0
H136 H 0.25647 0.02978 0.64418 0.0
H137 H 0.24833 0.17725 0.61451 0.0
H138 H 0.20411 0.22304 0.60792 0.0
H139 H 0.17062 0.19952 0.70899 0.0
H140 H 0.21418 0.15314 0.71607 0.0
H141 H 0.5098 0.27487 0.66207 0.0
H142 H 0.41253 0.21689 0.65258 0.0
H143 H 0.39692 0.13953 0.74443 0.0
H144 H 0.4955 0.19626 0.7535 0.0
H145 H 0.32413 0.19391 0.69966 0.0
H146 H 0.35381 0.05239 0.72283 0.0
H147 H 0.41162 0.02151 0.71857 0.0
H148 H 0.41947 0.05189 0.61614 0.0
H149 H 0.36215 0.08364 0.61999 0.0
C150 C 0.10843 0.04394 0.60908 0.0
C151 C 0.1179 0.03598 0.57791 0.0
C152 C 0.14691 0.05754 0.63422 0.0
C153 C 0.1964 0.06558 0.62819 0.0
C154 C 0.20492 0.05619 0.59711 0.0
C155 C 0.1658 0.0409 0.57236 0.0
C156 C 0.24127 0.08722 0.65305 0.0
C157 C 0.27052 0.06514 0.65677 0.0
C158 C 0.25979 0.13317 0.66992 0.0
C159 C 0.23363 0.161 0.6657 0.0
C160 C 0.23116 0.18154 0.63526 0.0
C161 C 0.20629 0.20763 0.63145 0.0
C162 C 0.18433 0.21395 0.65799 0.0
C163 C 0.18743 0.19439 0.68843 0.0
C164 C 0.21217 0.16818 0.69235 0.0
C165 C 0.48573 0.24556 0.68035 0.0
C166 C 0.51006 0.24017 0.70864 0.0
C167 C 0.43019 0.21272 0.67496 0.0
C168 C 0.39775 0.17387 0.69773 0.0
C169 C 0.42142 0.16908 0.72652 0.0
C170 C 0.47753 0.20182 0.73182 0.0
C171 C 0.33974 0.1375 0.68941 0.0
C172 C 0.30814 0.15694 0.68853 0.0
C173 C 0.32016 0.09039 0.67405 0.0
C174 C 0.35404 0.07074 0.67179 0.0
C175 C 0.36812 0.05284 0.69948 0.0
C176 C 0.40077 0.03511 0.69713 0.0
C177 C 0.41932 0.03484 0.66711 0.0
C178 C 0.40513 0.05218 0.63939 0.0
C179 C 0.37254 0.07 0.64166 0.0
H180 H 0.4446 0.02111 0.66533 0.0
H181 H 0.16508 0.23417 0.65499 0.0
H182 H 0.15744 0.23999 0.06548 0.0
H183 H 0.20077 0.30318 0.1091 0.0
H184 H 0.19279 0.18682 0.17341 0.0
H185 H 0.14967 0.12383 0.13012 0.0
H186 H 0.1473 0.22979 0.19856 0.0
H187 H 0.31375 0.28874 0.15393 0.0
H188 H 0.3784 0.31594 0.11088 0.0
H189 H 0.37353 0.44772 0.08742 0.0
H190 H 0.30817 0.42091 0.12995 0.0
H191 H 0.32811 0.52116 0.25885 0.0
H192 H 0.31368 0.43651 0.2548 0.0
H193 H 0.16039 0.37669 0.20484 0.0
H194 H 0.17532 0.46136 0.20819 0.0
H195 H 0.30899 0.41199 0.19081 0.0
H196 H 0.08094 0.24762 0.21363 0.0
H197 H 0.01664 0.2184 0.25715 0.0
H198 H 0.14818 0.29537 0.32707 0.0
H199 H 0.21344 0.32532 0.28413 0.0
C200 C 0.16611 0.22844 0.0887 0.0
C201 C 0.14992 0.1772 0.09463 0.0
C202 C 0.19092 0.26441 0.11354 0.0
C203 C 0.19993 0.24945 0.14441 0.0
C204 C 0.18611 0.19896 0.14978 0.0
C205 C 0.16152 0.16316 0.12502 0.0
C206 C 0.21819 0.28489 0.17173 0.0
C207 C 0.18307 0.26949 0.19726 0.0
C208 C 0.26595 0.33582 0.17056 0.0
C209 C 0.30593 0.3527 0.14517 0.0
C210 C 0.32625 0.32339 0.1395 0.0
C211 C 0.36305 0.33875 0.11518 0.0
C212 C 0.38005 0.38352 0.09642 0.0
C213 C 0.36037 0.41309 0.10199 0.0
C214 C 0.32352 0.39787 0.12626 0.0
C215 C 0.29032 0.48915 0.24827 0.0
C216 C 0.25294 0.49741 0.23345 0.0
C217 C 0.28211 0.44093 0.24609 0.0
C218 C 0.2361 0.40057 0.2295 0.0
C219 C 0.19589 0.40722 0.21809 0.0
C220 C 0.20455 0.45561 0.21972 0.0
C221 C 0.23594 0.35795 0.21618 0.0
C222 C 0.27435 0.37182 0.19301 0.0
C223 C 0.19137 0.30563 0.21964 0.0
C224 C 0.15219 0.28876 0.24554 0.0
C225 C 0.09625 0.25829 0.23829 0.0
C226 C 0.05961 0.24178 0.26289 0.0
C227 C 0.07836 0.25528 0.29487 0.0
C228 C 0.13378 0.28546 0.3023 0.0
C229 C 0.17063 0.30235 0.27781 0.0
H230 H 0.04995 0.24219 0.3139 0.0
H231 H 0.40849 0.39531 0.07758 0.0
H232 H 0.88416 0.10705 0.5355 0.0
H233 H 0.854 0.14271 0.57264 0.0
H234 H 0.97858 0.1696 0.64248 0.0
H235 H 0.01074 0.13698 0.60453 0.0
H236 H 0.81155 0.1103 0.62734 0.0
H237 H 0.01034 0.26416 0.69362 0.0
H238 H 0.10802 0.32245 0.68403 0.0
H239 H 0.07422 0.32718 0.58235 0.0
H240 H 0.97639 0.26934 0.59141 0.0
H241 H 0.72803 0.21217 0.73883 0.0
H242 H 0.77829 0.17731 0.72292 0.0
H243 H 0.86762 0.3072 0.65617 0.0
H244 H 0.81917 0.34229 0.67264 0.0
H245 H 0.93083 0.28139 0.67984 0.0
H246 H 0.74728 0.19096 0.63333 0.0
H247 H 0.64808 0.13838 0.63658 0.0
H248 H 0.64956 0.01682 0.68748 0.0
H249 H 0.74892 0.06905 0.68481 0.0
C250 C 0.90571 0.12166 0.55852 0.0
C251 C 0.95005 0.1199 0.56706 0.0
C252 C 0.88819 0.14153 0.57988 0.0
C253 C 0.91404 0.15909 0.61043 0.0
C254 C 0.95858 0.15742 0.61888 0.0
C255 C 0.97695 0.13876 0.59717 0.0
C256 C 0.89345 0.17816 0.63338 0.0
C257 C 0.83783 0.14762 0.63894 0.0
C258 C 0.92751 0.2266 0.64888 0.0
C259 C 0.98615 0.26198 0.64317 0.0
C260 C 0.02381 0.27779 0.66924 0.0
C261 C 0.07917 0.3107 0.6639 0.0
C262 C 0.09731 0.32834 0.63259 0.0
C263 C 0.06012 0.31331 0.60657 0.0
C264 C 0.00472 0.28042 0.61179 0.0
C265 C 0.75968 0.23383 0.72158 0.0
C266 C 0.76987 0.2797 0.70685 0.0
C267 C 0.78807 0.21386 0.71234 0.0
C268 C 0.82625 0.23931 0.68799 0.0
C269 C 0.83859 0.28689 0.67502 0.0
C270 C 0.8106 0.30674 0.68427 0.0
C271 C 0.84886 0.21446 0.67267 0.0
C272 C 0.90487 0.24359 0.66877 0.0
C273 C 0.81502 0.16556 0.65777 0.0
C274 C 0.75542 0.13409 0.65923 0.0
C275 C 0.72642 0.15314 0.64537 0.0
C276 C 0.67021 0.12341 0.64709 0.0
C277 C 0.64255 0.07436 0.66232 0.0
C278 C 0.67105 0.05488 0.67577 0.0
C279 C 0.7273 0.08451 0.67417 0.0
H280 H 0.59903 0.0514 0.66363 0.0
H281 H 0.14019 0.35377 0.62849 0.0
H282 H 0.92527 0.99301 0.1152 0.0
H283 H 0.8375 0.94879 0.1394 0.0
H284 H 0.76069 0.86173 0.0522 0.0
H285 H 0.84894 0.90916 0.02703 0.0
H286 H 0.7005 0.88445 0.07192 0.0
H287 H 0.78493 0.81109 0.12796 0.0
H288 H 0.85554 0.81006 0.15987 0.0
H289 H 0.83987 0.88471 0.2379 0.0
H290 H 0.76971 0.88696 0.20627 0.0
H291 H 0.46018 0.67582 0.14764 0.0
H292 H 0.55022 0.72632 0.1253 0.0
H293 H 0.60038 0.85121 0.18971 0.0
H294 H 0.50878 0.80222 0.21052 0.0
H295 H 0.67293 0.8101 0.18341 0.0
H296 H 0.58494 0.88002 0.12429 0.0
H297 H 0.5104 0.87284 0.09163 0.0
H298 H 0.52946 0.79361 0.01821 0.0
H299 H 0.60358 0.79956 0.05072 0.0
C300 C 0.88968 0.96439 0.10115 0.0
C301 C 0.89395 0.95426 0.06926 0.0
C302 C 0.83934 0.93867 0.11517 0.0
C303 C 0.79206 0.90058 0.09813 0.0
C304 C 0.79633 0.89068 0.06606 0.0
C305 C 0.84675 0.91761 0.05167 0.0
C306 C 0.73831 0.8721 0.11353 0.0
C307 C 0.69466 0.8677 0.09614 0.0
C308 C 0.73013 0.85076 0.1455 0.0
C309 C 0.77246 0.84969 0.16457 0.0
C310 C 0.79685 0.82769 0.15181 0.0
C311 C 0.83675 0.82684 0.16987 0.0
C312 C 0.85229 0.84748 0.20084 0.0
C313 C 0.82787 0.86889 0.21386 0.0
C314 C 0.78802 0.86993 0.19589 0.0
C315 C 0.49032 0.71402 0.15715 0.0
C316 C 0.47777 0.73436 0.1817 0.0
C317 C 0.54178 0.74274 0.14436 0.0
C318 C 0.58202 0.79227 0.15601 0.0
C319 C 0.57001 0.81272 0.18068 0.0
C320 C 0.51797 0.78438 0.19297 0.0
C321 C 0.63612 0.82273 0.14167 0.0
C322 C 0.67945 0.82721 0.15925 0.0
C323 C 0.6438 0.84319 0.10974 0.0
C324 C 0.59937 0.83971 0.09012 0.0
C325 C 0.57285 0.86056 0.10135 0.0
C326 C 0.53076 0.85683 0.08283 0.0
C327 C 0.51509 0.83264 0.05291 0.0
C328 C 0.54158 0.81225 0.04142 0.0
C329 C 0.58365 0.81583 0.05987 0.0
H330 H 0.48252 0.82981 0.03859 0.0
H331 H 0.88316 0.84675 0.21479 0.0
H332 H 0.98169 0.87269 0.53365 0.0
H333 H 0.95179 0.79033 0.56258 0.0
H334 H 0.8131 0.78001 0.5949 0.0
H335 H 0.84361 0.86221 0.56716 0.0
H336 H 0.85885 0.76542 0.6439 0.0
H337 H 0.80563 0.69712 0.53675 0.0
H338 H 0.81925 0.69193 0.4794 0.0
H339 H 0.93719 0.66119 0.507 0.0
H340 H 0.92473 0.66683 0.56458 0.0
H341 H 0.69079 0.49987 0.69961 0.0
H342 H 0.73362 0.58629 0.67369 0.0
H343 H 0.87378 0.58862 0.6562 0.0
H344 H 0.83122 0.50261 0.68274 0.0
H345 H 0.83518 0.60907 0.60083 0.0
H346 H 0.89172 0.68246 0.70711 0.0
H347 H 0.88687 0.69928 0.7637 0.0
H348 H 0.76191 0.72077 0.73677 0.0
H349 H 0.76707 0.70529 0.67973 0.0
C350 C 0.94435 0.85216 0.54647 0.0
C351 C 0.91503 0.87388 0.54822 0.0
C352 C 0.9272 0.80507 0.56302 0.0
C353 C 0.88005 0.77865 0.58114 0.0
C354 C 0.84979 0.79954 0.58148 0.0
C355 C 0.86716 0.84653 0.56541 0.0
C356 C 0.86337 0.73126 0.60156 0.0
C357 C 0.85296 0.73101 0.6342 0.0
C358 C 0.85733 0.68673 0.58952 0.0
C359 C 0.86468 0.68297 0.55497 0.0
C360 C 0.83477 0.68965 0.53059 0.0
C361 C 0.84222 0.68655 0.49805 0.0
C362 C 0.87917 0.67639 0.48956 0.0
C363 C 0.90864 0.66914 0.51362 0.0
C364 C 0.90136 0.67223 0.54622 0.0
C365 C 0.73171 0.51994 0.69153 0.0
C366 C 0.75851 0.4954 0.69425 0.0
C367 C 0.75606 0.56919 0.67645 0.0
C368 C 0.80718 0.59433 0.66298 0.0
C369 C 0.83452 0.57031 0.66646 0.0
C370 C 0.81046 0.52144 0.68196 0.0
C371 C 0.82967 0.64312 0.64291 0.0
C372 C 0.84116 0.64357 0.6104 0.0
C373 C 0.83636 0.68786 0.65489 0.0
C374 C 0.82947 0.6923 0.68931 0.0
C375 C 0.86272 0.69009 0.71335 0.0
C376 C 0.86023 0.69985 0.74546 0.0
C377 C 0.82406 0.71111 0.75386 0.0
C378 C 0.78997 0.71217 0.7302 0.0
C379 C 0.79287 0.7032 0.69796 0.0
H380 H 0.82263 0.7194 0.77863 0.0
H381 H 0.88482 0.674 0.46435 0.0
H382 H 0.99332 0.85216 0.40156 0.0
H383 H 0.02268 0.8155 0.36463 0.0
H384 H 0.16546 0.87007 0.42548 0.0
H385 H 0.13735 0.90878 0.46156 0.0
H386 H 0.19348 0.89327 0.36652 0.0
H387 H 0.05428 0.73757 0.42194 0.0
H388 H 0.96256 0.67414 0.44157 0.0
H389 H 0.89789 0.64662 0.34393 0.0
H390 H 0.98937 0.71019 0.32374 0.0
H391 H 0.2082 0.66841 0.33506 0.0
H392 H 0.15535 0.69843 0.35209 0.0
H393 H 0.21932 0.81466 0.27514 0.0
H394 H 0.27506 0.78596 0.25912 0.0
H395 H 0.08097 0.70953 0.33213 0.0
H396 H 0.24105 0.9246 0.30384 0.0
H397 H 0.33819 0.98408 0.29281 0.0
H398 H 0.3693 0.88617 0.35056 0.0
H399 H 0.27249 0.82651 0.36216 0.0
C400 C 0.03056 0.85559 0.40724 0.0
C401 C 0.06312 0.8831 0.43437 0.0
C402 C 0.04732 0.83468 0.38612 0.0
C403 C 0.09628 0.83994 0.39226 0.0
C404 C 0.1278 0.86594 0.42005 0.0
C405 C 0.11153 0.88762 0.44082 0.0
C406 C 0.11569 0.81961 0.36954 0.0
C407 C 0.16867 0.85314 0.35885 0.0
C408 C 0.08343 0.76737 0.35936 0.0
C409 C 0.02849 0.72904 0.37137 0.0
C410 C 0.02043 0.71824 0.40468 0.0
C411 C 0.96851 0.68223 0.41591 0.0
C412 C 0.92436 0.65655 0.39403 0.0
C413 C 0.93211 0.66664 0.36086 0.0
C414 C 0.98398 0.70259 0.3495 0.0
C415 C 0.21021 0.69977 0.32141 0.0
C416 C 0.24542 0.72493 0.2958 0.0
C417 C 0.17965 0.71665 0.33098 0.0
C418 C 0.18371 0.7592 0.31517 0.0
C419 C 0.21604 0.78213 0.28796 0.0
C420 C 0.2474 0.76551 0.27859 0.0
C421 C 0.15943 0.78264 0.33023 0.0
C422 C 0.10531 0.74995 0.33922 0.0
C423 C 0.19133 0.83509 0.34004 0.0
C424 C 0.24958 0.87088 0.33347 0.0
C425 C 0.26871 0.91589 0.31419 0.0
C426 C 0.32366 0.9496 0.30785 0.0
C427 C 0.35985 0.9388 0.32087 0.0
C428 C 0.34121 0.89439 0.34039 0.0
C429 C 0.28632 0.86063 0.34684 0.0
H430 H 0.40236 0.9649 0.3159 0.0
H431 H 0.88418 0.62873 0.40278 0.0
H432 H 0.17937 0.07475 0.98649 0.0
H433 H 0.26297 0.11854 0.95648 0.0
H434 H 0.18245 0.13854 0.87399 0.0
H435 H 0.09898 0.09354 0.90343 0.0
H436 H 0.23383 0.10356 0.85408 0.0
H437 H 0.28262 0.24254 0.92312 0.0
H438 H 0.29594 0.28466 0.97482 0.0
H439 H 0.41156 0.25306 0.00738 0.0
H440 H 0.39839 0.21009 0.95602 0.0
H441 H 0.49283 0.28403 0.77345 0.0
H442 H 0.40285 0.24178 0.79648 0.0
H443 H 0.45229 0.18558 0.87775 0.0
H444 H 0.54046 0.22604 0.85473 0.0
H445 H 0.41587 0.24491 0.89544 0.0
H446 H 0.35624 0.09559 0.83031 0.0
H447 H 0.33126 0.04112 0.78264 0.0
H448 H 0.23373 0.09136 0.7437 0.0
H449 H 0.25801 0.14603 0.79123 0.0
C450 C 0.1799 0.08918 0.96212 0.0
C451 C 0.13264 0.08056 0.94725 0.0
C452 C 0.22774 0.11438 0.94496 0.0
C453 C 0.2294 0.13227 0.91285 0.0
C454 C 0.18245 0.125 0.89855 0.0
C455 C 0.13472 0.09939 0.91549 0.0
C456 C 0.27876 0.15582 0.8934 0.0
C457 C 0.27347 0.13531 0.86291 0.0
C458 C 0.33084 0.19655 0.90496 0.0
C459 C 0.33917 0.22269 0.9358 0.0
C460 C 0.31062 0.24425 0.94139 0.0
C461 C 0.31818 0.26833 0.97062 0.0
C462 C 0.35448 0.27144 0.9944 0.0
C463 C 0.38341 0.25059 0.98895 0.0
C464 C 0.37597 0.22642 0.95976 0.0
C465 C 0.48365 0.26119 0.79565 0.0
C466 C 0.5236 0.25812 0.8122 0.0
C467 C 0.43242 0.23732 0.80891 0.0
C468 C 0.42093 0.2108 0.83905 0.0
C469 C 0.46014 0.20597 0.85463 0.0
C470 C 0.51058 0.22913 0.84138 0.0
C471 C 0.37078 0.19224 0.85633 0.0
C472 C 0.37602 0.21383 0.88644 0.0
C473 C 0.31862 0.15275 0.84435 0.0
C474 C 0.30961 0.12546 0.81404 0.0
C475 C 0.33036 0.09584 0.81126 0.0
C476 C 0.31583 0.06449 0.78444 0.0
C477 C 0.28098 0.06288 0.76013 0.0
C478 C 0.2609 0.09288 0.76248 0.0
C479 C 0.27495 0.12395 0.78936 0.0
H480 H 0.26933 0.03826 0.73952 0.0
H481 H 0.36026 0.29008 0.01703 0.0
H482 H 0.11708 0.11484 0.4018 0.0
H483 H 0.15113 0.19966 0.37705 0.0
H484 H 0.10881 0.24309 0.46088 0.0
H485 H 0.07203 0.15604 0.48549 0.0
H486 H 0.0904 0.28264 0.40618 0.0
H487 H 0.24087 0.28319 0.45026 0.0
H488 H 0.29697 0.24974 0.45899 0.0
H489 H 0.32323 0.26367 0.35716 0.0
H490 H 0.26669 0.29657 0.34778 0.0
H491 H 0.34992 0.55631 0.36155 0.0
H492 H 0.30528 0.47032 0.38733 0.0
H493 H 0.17143 0.41081 0.3182 0.0
H494 H 0.2149 0.49815 0.29344 0.0
H495 H 0.27827 0.38131 0.36892 0.0
H496 H 0.05571 0.30944 0.35245 0.0
H497 H 0.0017 0.34541 0.3462 0.0
H498 H 0.12467 0.48056 0.39882 0.0
H499 H 0.17909 0.4451 0.40569 0.0
C500 C 0.11465 0.14222 0.41504 0.0
C501 C 0.09254 0.12896 0.44585 0.0
C502 C 0.13439 0.19096 0.40082 0.0
C503 C 0.13407 0.22863 0.41733 0.0
C504 C 0.11 0.21493 0.44769 0.0
C505 C 0.08917 0.16532 0.46182 0.0
C506 C 0.16092 0.28248 0.40309 0.0
C507 C 0.13155 0.30429 0.39817 0.0
C508 C 0.21484 0.31129 0.39269 0.0
C509 C 0.24931 0.29204 0.39832 0.0
C510 C 0.25841 0.27888 0.42973 0.0
C511 C 0.29029 0.26003 0.43478 0.0
C512 C 0.31358 0.25452 0.40864 0.0
C513 C 0.30516 0.26796 0.37739 0.0
C514 C 0.27326 0.28677 0.37219 0.0
C515 C 0.31098 0.52496 0.35175 0.0
C516 C 0.28645 0.53404 0.32502 0.0
C517 C 0.28548 0.4756 0.3665 0.0
C518 C 0.23457 0.43379 0.35507 0.0
C519 C 0.21027 0.44242 0.32793 0.0
C520 C 0.23564 0.49219 0.31334 0.0
C521 C 0.20777 0.38158 0.37173 0.0
C522 C 0.23719 0.35992 0.37703 0.0
C523 C 0.15431 0.35347 0.38284 0.0
C524 C 0.12161 0.37479 0.37932 0.0
C525 C 0.07109 0.34672 0.36279 0.0
C526 C 0.04044 0.36704 0.35912 0.0
C527 C 0.05981 0.4153 0.37203 0.0
C528 C 0.10979 0.44326 0.38874 0.0
C529 C 0.14058 0.42309 0.3925 0.0
H530 H 0.03604 0.43099 0.36914 0.0
H531 H 0.33823 0.2399 0.41261 0.0
H532 H 0.9864 0.16102 0.98581 0.0
H533 H 0.94969 0.19898 0.9496 0.0
H534 H 0.89622 0.07787 0.88112 0.0
H535 H 0.9297 0.03871 0.91771 0.0
H536 H 0.96215 0.23892 0.89115 0.0
H537 H 0.77931 0.03933 0.84469 0.0
H538 H 0.72208 0.94766 0.86348 0.0
H539 H 0.75831 0.99627 0.96214 0.0
H540 H 0.81514 0.08819 0.94393 0.0
H541 H 0.82077 0.30152 0.77648 0.0
H542 H 0.86738 0.2623 0.79818 0.0
H543 H 0.74496 0.1763 0.86923 0.0
H544 H 0.69746 0.21234 0.84648 0.0
H545 H 0.77082 0.11866 0.85376 0.0
H546 H 0.87379 0.30007 0.88301 0.0
H547 H 0.92617 0.39465 0.8717 0.0
H548 H 0.04076 0.38728 0.82064 0.0
H549 H 0.98866 0.29251 0.83138 0.0
C550 C 0.96681 0.14276 0.96299 0.0
C551 C 0.9597 0.09632 0.95488 0.0
C552 C 0.94609 0.16452 0.94223 0.0
C553 C 0.91888 0.14059 0.91288 0.0
C554 C 0.91534 0.09622 0.90399 0.0
C555 C 0.9346 0.07387 0.92496 0.0
C556 C 0.89143 0.15978 0.8923 0.0
C557 C 0.92033 0.2126 0.88295 0.0
C558 C 0.83662 0.12576 0.88173 0.0
C559 C 0.80196 0.07058 0.89292 0.0
C560 C 0.7749 0.03043 0.87038 0.0
C561 C 0.74256 0.97844 0.88093 0.0
C562 C 0.73672 0.96614 0.91398 0.0
C563 C 0.76302 0.00583 0.93655 0.0
C564 C 0.79534 0.05787 0.92613 0.0
C565 C 0.80303 0.27268 0.79588 0.0
C566 C 0.75527 0.25954 0.8096 0.0
C567 C 0.83011 0.25099 0.8087 0.0
C568 C 0.81038 0.21692 0.83587 0.0
C569 C 0.76129 0.20223 0.84832 0.0
C570 C 0.73411 0.22306 0.83532 0.0
C571 C 0.84105 0.19812 0.853 0.0
C572 C 0.81283 0.14505 0.86162 0.0
C573 C 0.89563 0.23235 0.86398 0.0
C574 C 0.92707 0.28923 0.85768 0.0
C575 C 0.91 0.31862 0.86922 0.0
C576 C 0.93964 0.37224 0.86293 0.0
C577 C 0.98667 0.39693 0.84538 0.0
C578 C 0.00426 0.36808 0.83417 0.0
C579 C 0.97472 0.31444 0.84036 0.0
H580 H 0.00957 0.43844 0.84053 0.0
H581 H 0.71172 0.92587 0.9221 0.0
H582 H 0.92972 0.93979 0.3898 0.0
H583 H 0.86043 0.91118 0.34636 0.0
H584 H 0.78355 0.96432 0.39964 0.0
H585 H 0.85309 0.99402 0.44291 0.0
H586 H 0.72342 0.84661 0.37919 0.0
H587 H 0.83049 0.02999 0.34409 0.0
H588 H 0.91377 0.11021 0.3246 0.0
H589 H 0.90806 0.02999 0.24193 0.0
H590 H 0.82517 0.94905 0.26124 0.0
H591 H 0.52326 0.85648 0.29062 0.0
H592 H 0.62084 0.90542 0.30125 0.0
H593 H 0.6181 0.77429 0.27194 0.0
H594 H 0.52036 0.72554 0.2606 0.0
H595 H 0.7252 0.92837 0.2731 0.0
H596 H 0.65795 0.74453 0.3413 0.0
H597 H 0.57435 0.66238 0.3589 0.0
H598 H 0.50285 0.74401 0.37426 0.0
H599 H 0.58634 0.82663 0.35726 0.0
C600 C 0.89848 0.94607 0.39206 0.0
C601 C 0.8965 0.96876 0.41987 0.0
C602 C 0.85929 0.93005 0.36714 0.0
C603 C 0.8174 0.93605 0.36988 0.0
C604 C 0.8161 0.95995 0.39712 0.0
C605 C 0.85574 0.97679 0.42178 0.0
C606 C 0.77114 0.91162 0.34654 0.0
C607 C 0.72407 0.86429 0.35588 0.0
C608 C 0.77249 0.93439 0.31597 0.0
C609 C 0.82217 0.9832 0.30443 0.0
C610 C 0.8474 0.02923 0.32202 0.0
C611 C 0.89443 0.07491 0.31093 0.0
C612 C 0.91636 0.07515 0.28213 0.0
C613 C 0.89116 0.02974 0.26429 0.0
C614 C 0.84416 0.98396 0.2753 0.0
C615 C 0.54405 0.83916 0.28501 0.0
C616 C 0.51484 0.78745 0.27504 0.0
C617 C 0.59975 0.86724 0.29077 0.0
C618 C 0.6264 0.84328 0.2875 0.0
C619 C 0.59814 0.79345 0.27433 0.0
C620 C 0.54243 0.76559 0.26808 0.0
C621 C 0.67758 0.86394 0.30611 0.0
C622 C 0.72528 0.91028 0.29607 0.0
C623 C 0.67733 0.84028 0.33607 0.0
C624 C 0.62803 0.79144 0.34779 0.0
C625 C 0.62445 0.74487 0.34865 0.0
C626 C 0.57712 0.69828 0.35849 0.0
C627 C 0.53326 0.69795 0.36761 0.0
C628 C 0.53679 0.74429 0.36714 0.0
C629 C 0.5841 0.79098 0.35744 0.0
H630 H 0.49657 0.66181 0.37508 0.0
H631 H 0.95276 0.11056 0.27359 0.0
H632 H 0.89775 0.79307 0.9648 0.0
H633 H 0.86815 0.72567 0.92512 0.0
H634 H 0.83643 0.81111 0.85439 0.0
H635 H 0.86707 0.87938 0.89381 0.0
H636 H 0.75613 0.68817 0.86113 0.0
H637 H 0.93894 0.83381 0.83985 0.0
H638 H 0.03249 0.90357 0.85646 0.0
H639 H 0.05514 0.78987 0.89909 0.0
H640 H 0.96136 0.71948 0.88321 0.0
H641 H 0.72698 0.50618 0.75743 0.0
H642 H 0.76116 0.5954 0.77034 0.0
H643 H 0.86522 0.5947 0.84582 0.0
H644 H 0.83452 0.50766 0.83093 0.0
H645 H 0.90975 0.68856 0.82514 0.0
H646 H 0.72658 0.54756 0.85749 0.0
H647 H 0.63201 0.47473 0.84538 0.0
H648 H 0.6094 0.57642 0.78519 0.0
H649 H 0.70407 0.6497 0.79674 0.0
C650 C 0.88313 0.79677 0.94108 0.0
C651 C 0.885 0.84131 0.9321 0.0
C652 C 0.86646 0.7585 0.9185 0.0
C653 C 0.85089 0.76418 0.88697 0.0
C654 C 0.84854 0.80651 0.87869 0.0
C655 C 0.86599 0.84525 0.90114 0.0
C656 C 0.84242 0.72832 0.86215 0.0
C657 C 0.78959 0.68876 0.85249 0.0
C658 C 0.88635 0.72934 0.85142 0.0
C659 C 0.94301 0.77145 0.86057 0.0
C660 C 0.96373 0.82373 0.85301 0.0
C661 C 0.01682 0.86338 0.86225 0.0
C662 C 0.04971 0.85117 0.87888 0.0
C663 C 0.02961 0.79927 0.88623 0.0
C664 C 0.97651 0.75949 0.87708 0.0
C665 C 0.75967 0.52651 0.77522 0.0
C666 C 0.77848 0.50054 0.793 0.0
C667 C 0.77836 0.57701 0.78314 0.0
C668 C 0.81447 0.60102 0.80973 0.0
C669 C 0.83706 0.57685 0.82537 0.0
C670 C 0.81927 0.52699 0.817 0.0
C671 C 0.8231 0.64701 0.82465 0.0
C672 C 0.87615 0.6886 0.83277 0.0
C673 C 0.77925 0.64752 0.83422 0.0
C674 C 0.72227 0.60385 0.82779 0.0
C675 C 0.70137 0.55427 0.84165 0.0
C676 C 0.64784 0.51295 0.83486 0.0
C677 C 0.61475 0.52093 0.81449 0.0
C678 C 0.63509 0.57029 0.80094 0.0
C679 C 0.68864 0.61173 0.80761 0.0
H680 H 0.57332 0.48888 0.80924 0.0
H681 H 0.09079 0.88192 0.88603 0.0
loop_
_geom_bond_atom_site_label_1
_geom_bond_atom_site_label_2
_geom_bond_distance
_geom_bond_site_symmetry_2
_ccdc_geom_bond_type
Dy0 O4 2.398 . S
Dy0 O5 2.491 . S
Dy0 O6 2.403 1_455 S
Dy0 O7 2.664 1_445 S
Dy0 O11 2.326 1_455 S
Dy0 O15 2.310 1_554 S
Dy0 O16 2.351 1_545 S
C1 O12 1.185 . S
C1 O13 1.355 . S
C2 O4 1.185 . S
C2 O5 1.355 . S
Dy3 O7 2.310 1_556 S
Dy3 O10 2.351 1_565 S
Dy3 O12 2.398 . S
Dy3 O13 2.491 . S
Dy3 O14 2.403 1_665 S
Dy3 O15 2.664 1_665 S
Dy3 O17 2.326 1_656 S
O4 Dy0 2.398 . S
O4 C2 1.185 . S
O5 Dy0 2.491 . S
O5 C2 1.355 . S
O6 Dy0 2.403 1_655 S
O6 C8 1.254 1_545 S
O7 Dy0 2.664 1_665 S
O7 Dy3 2.310 1_554 S
O7 C8 1.268 . S
C8 O6 1.254 1_565 S
C8 O7 1.268 . S
C9 O14 1.254 . S
C9 O15 1.268 . S
O10 Dy3 2.351 1_545 S
O10 C18 1.249 . S
O11 Dy0 2.326 1_655 S
O11 C18 1.267 1_554 S
O12 C1 1.185 . S
O12 Dy3 2.398 . S
O13 C1 1.355 . S
O13 Dy3 2.491 . S
O14 Dy3 2.403 1_445 S
O14 C9 1.254 . S
O15 Dy0 2.310 1_556 S
O15 Dy3 2.664 1_445 S
O15 C9 1.268 . S
O16 Dy0 2.351 1_565 S
O16 C19 1.249 . S
O17 Dy3 2.326 1_454 S
O17 C19 1.268 . S
C18 O10 1.249 . S
C18 O11 1.267 1_556 S
C19 O16 1.249 . S
C19 O17 1.268 . S
Dy20 O24 2.398 . S
Dy20 O25 2.491 . S
Dy20 O26 2.403 1_545 S
Dy20 O27 2.662 1_645 S
Dy20 O31 2.326 1_545 S
Dy20 O35 2.310 1_655 S
Dy20 O36 2.351 1_655 S
C21 O32 1.185 . S
C21 O33 1.355 . S
C22 O24 1.185 . S
C22 O25 1.355 . S
Dy23 O27 2.311 . S
Dy23 O30 2.351 1_455 S
Dy23 O32 2.398 . S
Dy23 O33 2.491 . S
Dy23 O34 2.403 1_565 S
Dy23 O35 2.664 1_565 S
Dy23 O37 2.326 1_565 S
O24 Dy20 2.398 . S
O24 C22 1.185 . S
O25 Dy20 2.491 . S
O25 C22 1.355 . S
O26 Dy20 2.403 1_565 S
O26 C28 1.254 . S
O27 Dy20 2.662 1_465 S
O27 Dy23 2.311 . S
O27 C28 1.267 1_455 S
C28 O26 1.254 . S
C28 O27 1.267 1_655 S
C29 O34 1.254 . S
C29 O35 1.268 . S
O30 Dy23 2.351 1_655 S
O30 C38 1.249 . S
O31 Dy20 2.326 1_565 S
O31 C38 1.267 . S
O32 C21 1.185 . S
O32 Dy23 2.398 . S
O33 C21 1.355 . S
O33 Dy23 2.491 . S
O34 Dy23 2.403 1_545 S
O34 C29 1.254 . S
O35 Dy20 2.310 1_455 S
O35 Dy23 2.664 1_545 S
O35 C29 1.268 . S
O36 Dy20 2.351 1_455 S
O36 C39 1.249 . S
O37 Dy23 2.326 1_545 S
O37 C39 1.267 . S
C38 O30 1.249 . S
C38 O31 1.267 . S
C39 O36 1.249 . S
C39 O37 1.267 . S
Zn40 O46 1.920 . S
Zn40 O52 1.898 . S
Zn40 O55 1.905 . S
Zn41 O49 1.905 . S
Zn41 O50 1.898 . S
Zn41 O58 1.920 . S
Zn42 O45 2.080 . S
Zn42 O48 2.114 . S
Zn42 O51 2.120 . S
Zn42 O53 2.120 . S
Zn42 O54 2.114 . S
Zn42 O57 2.080 . S
C43 O48 1.166 . S
C43 O49 1.182 . S
C44 O50 1.167 . S
C44 O51 1.299 . S
O45 Zn42 2.080 . S
O45 C59 1.305 . S
O46 Zn40 1.920 . S
O46 C59 1.234 . S
C47 O52 1.167 . S
C47 O53 1.299 . S
O48 Zn42 2.114 . S
O48 C43 1.166 . S
O49 Zn41 1.905 . S
O49 C43 1.182 . S
O50 Zn41 1.898 . S
O50 C44 1.167 . S
O51 Zn42 2.120 . S
O51 C44 1.299 . S
O52 Zn40 1.898 . S
O52 C47 1.167 . S
O53 Zn42 2.120 . S
O53 C47 1.299 . S
O54 Zn42 2.114 . S
O54 C56 1.166 . S
O55 Zn40 1.905 . S
O55 C56 1.182 . S
C56 O54 1.166 . S
C56 O55 1.182 . S
O57 Zn42 2.080 . S
O57 C60 1.305 . S
O58 Zn41 1.920 . S
O58 C60 1.234 . S
C59 O45 1.305 . S
C59 O46 1.234 . S
C60 O57 1.305 . S
C60 O58 1.234 . S
Zn61 O67 1.920 . S
Zn61 O73 1.898 . S
Zn61 O76 1.905 . S
Zn62 O70 1.905 . S
Zn62 O71 1.898 . S
Zn62 O79 1.920 . S
Zn63 O66 2.080 . S
Zn63 O69 2.114 . S
Zn63 O72 2.120 . S
Zn63 O74 2.120 . S
Zn63 O75 2.114 . S
Zn63 O78 2.080 . S
C64 O69 1.166 . S
C64 O70 1.182 . S
C65 O71 1.167 . S
C65 O72 1.299 . S
O66 Zn63 2.080 . S
O66 C80 1.305 . S
O67 Zn61 1.920 . S
O67 C80 1.234 . S
C68 O73 1.167 . S
C68 O74 1.299 . S
O69 Zn63 2.114 . S
O69 C64 1.166 . S
O70 Zn62 1.905 . S
O70 C64 1.182 . S
O71 Zn62 1.898 . S
O71 C65 1.167 . S
O72 Zn63 2.120 . S
O72 C65 1.299 . S
O73 Zn61 1.898 . S
O73 C68 1.167 . S
O74 Zn63 2.120 . S
O74 C68 1.299 . S
O75 Zn63 2.114 . S
O75 C77 1.166 . S
O76 Zn61 1.905 . S
O76 C77 1.182 . S
C77 O75 1.166 . S
C77 O76 1.182 . S
O78 Zn63 2.080 . S
O78 C81 1.305 . S
O79 Zn62 1.920 . S
O79 C81 1.234 . S
C80 O66 1.305 . S
C80 O67 1.234 . S
C81 O78 1.305 . S
C81 O79 1.234 . S
H82 C100 0.951 . S
H83 C102 0.951 . S
H84 C104 0.950 . S
H85 C105 0.950 . S
H86 C107 0.950 . S
H87 C110 0.950 . S
H88 C111 0.950 . S
H89 C113 0.950 . S
H90 C114 0.950 . S
H91 C115 0.951 . S
H92 C117 0.951 . S
H93 C119 0.950 . S
H94 C120 0.950 . S
H95 C122 0.950 . S
H96 C125 0.950 . S
H97 C126 0.950 . S
H98 C128 0.950 . S
H99 C129 0.950 . S
C100 H82 0.951 . S
C100 C101 1.366 . S
C100 C102 1.388 . S
C101 C100 1.366 . S
C101 C105 1.385 . S
C102 H83 0.951 . S
C102 C100 1.388 . S
C102 C103 1.366 . S
C103 C102 1.366 . S
C103 C104 1.414 . S
C103 C106 1.499 . S
C104 H84 0.950 . S
C104 C103 1.414 . S
C104 C105 1.374 . S
C105 H85 0.950 . S
C105 C101 1.385 . S
C105 C104 1.374 . S
C106 C103 1.499 . S
C106 C107 1.373 . S
C106 C108 1.389 . S
C107 H86 0.950 . S
C107 C106 1.373 . S
C107 C123 1.377 . S
C108 C106 1.389 . S
C108 C109 1.524 . S
C108 C122 1.377 . S
C109 C108 1.524 . S
C109 C110 1.397 . S
C109 C114 1.363 . S
C110 H87 0.950 . S
C110 C109 1.397 . S
C110 C111 1.334 1_565 S
C111 H88 0.950 . S
C111 C110 1.334 1_545 S
C111 C112 1.287 . S
C112 C111 1.287 . S
C112 C113 1.524 1_545 S
C112 H131 0.913 . S
C113 H89 0.950 . S
C113 C112 1.524 1_565 S
C113 C114 1.415 . S
C114 H90 0.950 . S
C114 C109 1.363 . S
C114 C113 1.415 . S
C115 H91 0.951 . S
C115 C116 1.366 . S
C115 C117 1.388 . S
C116 C115 1.366 . S
C116 C120 1.385 . S
C117 H92 0.951 . S
C117 C115 1.388 . S
C117 C118 1.366 . S
C118 C117 1.366 . S
C118 C119 1.414 . S
C118 C121 1.499 . S
C119 H93 0.950 . S
C119 C118 1.414 . S
C119 C120 1.374 . S
C120 H94 0.950 . S
C120 C116 1.385 . S
C120 C119 1.374 . S
C121 C118 1.499 . S
C121 C122 1.373 . S
C121 C123 1.389 . S
C122 H95 0.950 . S
C122 C108 1.377 . S
C122 C121 1.373 . S
C123 C107 1.377 . S
C123 C121 1.389 . S
C123 C124 1.524 . S
C124 C123 1.524 . S
C124 C125 1.397 . S
C124 C129 1.363 . S
C125 H96 0.950 . S
C125 C124 1.397 . S
C125 C126 1.334 . S
C126 H97 0.950 . S
C126 C125 1.334 . S
C126 C127 1.287 . S
C127 C126 1.287 . S
C127 C128 1.524 . S
C127 H130 0.999 . S
C128 H98 0.950 . S
C128 C127 1.524 . S
C128 C129 1.415 . S
C129 H99 0.950 . S
C129 C124 1.363 . S
C129 C128 1.415 . S
H130 C127 0.999 . S
H131 C112 0.913 . S
H132 C150 0.951 . S
H133 C152 0.951 . S
H134 C154 0.950 . S
H135 C155 0.950 . S
H136 C157 0.950 . S
H137 C160 0.950 . S
H138 C161 0.950 . S
H139 C163 0.950 . S
H140 C164 0.950 . S
H141 C165 0.951 . S
H142 C167 0.951 . S
H143 C169 0.950 . S
H144 C170 0.950 . S
H145 C172 0.950 . S
H146 C175 0.950 . S
H147 C176 0.950 . S
H148 C178 0.950 . S
H149 C179 0.950 . S
C150 H132 0.951 . S
C150 C151 1.366 . S
C150 C152 1.388 . S
C151 C150 1.366 . S
C151 C155 1.385 . S
C152 H133 0.951 . S
C152 C150 1.388 . S
C152 C153 1.366 . S
C153 C152 1.366 . S
C153 C154 1.414 . S
C153 C156 1.499 . S
C154 H134 0.950 . S
C154 C153 1.414 . S
C154 C155 1.374 . S
C155 H135 0.950 . S
C155 C151 1.385 . S
C155 C154 1.374 . S
C156 C153 1.499 . S
C156 C157 1.373 . S
C156 C158 1.389 . S
C157 H136 0.950 . S
C157 C156 1.373 . S
C157 C173 1.377 . S
C158 C156 1.389 . S
C158 C159 1.524 . S
C158 C172 1.377 . S
C159 C158 1.524 . S
C159 C160 1.397 . S
C159 C164 1.363 . S
C160 H137 0.950 . S
C160 C159 1.397 . S
C160 C161 1.334 . S
C161 H138 0.950 . S
C161 C160 1.334 . S
C161 C162 1.287 . S
C162 C161 1.287 . S
C162 C163 1.524 . S
C162 H181 0.913 . S
C163 H139 0.950 . S
C163 C162 1.524 . S
C163 C164 1.415 . S
C164 H140 0.950 . S
C164 C159 1.363 . S
C164 C163 1.415 . S
C165 H141 0.951 . S
C165 C166 1.366 . S
C165 C167 1.388 . S
C166 C165 1.366 . S
C166 C170 1.385 . S
C167 H142 0.951 . S
C167 C165 1.388 . S
C167 C168 1.366 . S
C168 C167 1.366 . S
C168 C169 1.414 . S
C168 C171 1.499 . S
C169 H143 0.950 . S
C169 C168 1.414 . S
C169 C170 1.374 . S
C170 H144 0.950 . S
C170 C166 1.385 . S
C170 C169 1.374 . S
C171 C168 1.499 . S
C171 C172 1.373 . S
C171 C173 1.389 . S
C172 H145 0.950 . S
C172 C158 1.377 . S
C172 C171 1.373 . S
C173 C157 1.377 . S
C173 C171 1.389 . S
C173 C174 1.524 . S
C174 C173 1.524 . S
C174 C175 1.397 . S
C174 C179 1.363 . S
C175 H146 0.950 . S
C175 C174 1.397 . S
C175 C176 1.334 . S
C176 H147 0.950 . S
C176 C175 1.334 . S
C176 C177 1.287 . S
C177 C176 1.287 . S
C177 C178 1.524 . S
C177 H180 0.999 . S
C178 H148 0.950 . S
C178 C177 1.524 . S
C178 C179 1.415 . S
C179 H149 0.950 . S
C179 C174 1.363 . S
C179 C178 1.415 . S
H180 C177 0.999 . S
H181 C162 0.913 . S
H182 C200 0.951 . S
H183 C202 0.951 . S
H184 C204 0.950 . S
H185 C205 0.950 . S
H186 C207 0.950 . S
H187 C210 0.950 . S
H188 C211 0.950 . S
H189 C213 0.950 1_556 S
H190 C214 0.950 . S
H191 C215 0.951 . S
H192 C217 0.951 . S
H193 C219 0.950 . S
H194 C220 0.950 . S
H195 C222 0.950 . S
H196 C225 0.950 . S
H197 C226 0.950 . S
H198 C228 0.950 . S
H199 C229 0.950 . S
C200 H182 0.951 . S
C200 C201 1.366 . S
C200 C202 1.388 . S
C201 C200 1.366 . S
C201 C205 1.385 . S
C202 H183 0.951 . S
C202 C200 1.388 . S
C202 C203 1.366 . S
C203 C202 1.366 . S
C203 C204 1.414 . S
C203 C206 1.499 . S
C204 H184 0.950 . S
C204 C203 1.414 . S
C204 C205 1.374 . S
C205 H185 0.950 . S
C205 C201 1.385 . S
C205 C204 1.374 . S
C206 C203 1.499 . S
C206 C207 1.373 . S
C206 C208 1.389 . S
C207 H186 0.950 . S
C207 C206 1.373 . S
C207 C223 1.377 . S
C208 C206 1.389 . S
C208 C209 1.524 . S
C208 C222 1.377 . S
C209 C208 1.524 . S
C209 C210 1.397 . S
C209 C214 1.363 . S
C210 H187 0.950 . S
C210 C209 1.397 . S
C210 C211 1.334 . S
C211 H188 0.950 . S
C211 C210 1.334 . S
C211 C212 1.287 . S
C212 C211 1.287 . S
C212 C213 1.524 . S
C212 H231 0.913 1_554 S
C213 H189 0.950 1_554 S
C213 C212 1.524 . S
C213 C214 1.415 . S
C214 H190 0.950 . S
C214 C209 1.363 . S
C214 C213 1.415 . S
C215 H191 0.951 . S
C215 C216 1.366 . S
C215 C217 1.388 . S
C216 C215 1.366 . S
C216 C220 1.385 . S
C217 H192 0.951 . S
C217 C215 1.388 . S
C217 C218 1.366 . S
C218 C217 1.366 . S
C218 C219 1.414 . S
C218 C221 1.499 . S
C219 H193 0.950 . S
C219 C218 1.414 . S
C219 C220 1.374 . S
C220 H194 0.950 . S
C220 C216 1.385 . S
C220 C219 1.374 . S
C221 C218 1.499 . S
C221 C222 1.373 . S
C221 C223 1.389 . S
C222 H195 0.950 . S
C222 C208 1.377 . S
C222 C221 1.373 . S
C223 C207 1.377 . S
C223 C221 1.389 . S
C223 C224 1.524 . S
C224 C223 1.524 . S
C224 C225 1.397 . S
C224 C229 1.363 . S
C225 H196 0.950 . S
C225 C224 1.397 . S
C225 C226 1.334 . S
C226 H197 0.950 . S
C226 C225 1.334 . S
C226 C227 1.287 . S
C227 C226 1.287 . S
C227 C228 1.524 . S
C227 H230 0.999 . S
C228 H198 0.950 . S
C228 C227 1.524 . S
C228 C229 1.415 . S
C229 H199 0.950 . S
C229 C224 1.363 . S
C229 C228 1.415 . S
H230 C227 0.999 . S
H231 C212 0.913 1_556 S
H232 C250 0.951 . S
H233 C252 0.951 . S
H234 C254 0.950 . S
H235 C255 0.950 . S
H236 C257 0.950 . S
H237 C260 0.950 . S
H238 C261 0.950 . S
H239 C263 0.950 . S
H240 C264 0.950 . S
H241 C265 0.951 . S
H242 C267 0.951 . S
H243 C269 0.950 . S
H244 C270 0.950 . S
H245 C272 0.950 . S
H246 C275 0.950 . S
H247 C276 0.950 . S
H248 C278 0.950 . S
H249 C279 0.950 . S
C250 H232 0.951 . S
C250 C251 1.366 . S
C250 C252 1.388 . S
C251 C250 1.366 . S
C251 C255 1.385 . S
C252 H233 0.951 . S
C252 C250 1.388 . S
C252 C253 1.366 . S
C253 C252 1.366 . S
C253 C254 1.414 . S
C253 C256 1.499 . S
C254 H234 0.950 . S
C254 C253 1.414 . S
C254 C255 1.374 . S
C255 H235 0.950 . S
C255 C251 1.385 . S
C255 C254 1.374 . S
C256 C253 1.499 . S
C256 C257 1.373 . S
C256 C258 1.389 . S
C257 H236 0.950 . S
C257 C256 1.373 . S
C257 C273 1.377 . S
C258 C256 1.389 . S
C258 C259 1.524 . S
C258 C272 1.377 . S
C259 C258 1.524 . S
C259 C260 1.397 . S
C259 C264 1.363 . S
C260 H237 0.950 . S
C260 C259 1.397 . S
C260 C261 1.334 1_655 S
C261 H238 0.950 . S
C261 C260 1.334 1_455 S
C261 C262 1.287 . S
C262 C261 1.287 . S
C262 C263 1.524 . S
C262 H281 0.913 . S
C263 H239 0.950 . S
C263 C262 1.524 . S
C263 C264 1.415 1_455 S
C264 H240 0.950 . S
C264 C259 1.363 . S
C264 C263 1.415 1_655 S
C265 H241 0.951 . S
C265 C266 1.366 . S
C265 C267 1.388 . S
C266 C265 1.366 . S
C266 C270 1.385 . S
C267 H242 0.951 . S
C267 C265 1.388 . S
C267 C268 1.366 . S
C268 C267 1.366 . S
C268 C269 1.414 . S
C268 C271 1.499 . S
C269 H243 0.950 . S
C269 C268 1.414 . S
C269 C270 1.374 . S
C270 H244 0.950 . S
C270 C266 1.385 . S
C270 C269 1.374 . S
C271 C268 1.499 . S
C271 C272 1.373 . S
C271 C273 1.389 . S
C272 H245 0.950 . S
C272 C258 1.377 . S
C272 C271 1.373 . S
C273 C257 1.377 . S
C273 C271 1.389 . S
C273 C274 1.524 . S
C274 C273 1.524 . S
C274 C275 1.397 . S
C274 C279 1.363 . S
C275 H246 0.950 . S
C275 C274 1.397 . S
C275 C276 1.334 . S
C276 H247 0.950 . S
C276 C275 1.334 . S
C276 C277 1.287 . S
C277 C276 1.287 . S
C277 C278 1.524 . S
C277 H280 0.999 . S
C278 H248 0.950 . S
C278 C277 1.524 . S
C278 C279 1.415 . S
C279 H249 0.950 . S
C279 C274 1.363 . S
C279 C278 1.415 . S
H280 C277 0.999 . S
H281 C262 0.913 . S
H282 C300 0.951 . S
H283 C302 0.951 . S
H284 C304 0.950 . S
H285 C305 0.950 . S
H286 C307 0.950 . S
H287 C310 0.950 . S
H288 C311 0.950 . S
H289 C313 0.950 . S
H290 C314 0.950 . S
H291 C315 0.951 . S
H292 C317 0.951 . S
H293 C319 0.950 . S
H294 C320 0.950 . S
H295 C322 0.950 . S
H296 C325 0.950 . S
H297 C326 0.950 . S
H298 C328 0.950 . S
H299 C329 0.950 . S
C300 H282 0.951 . S
C300 C301 1.366 . S
C300 C302 1.388 . S
C301 C300 1.366 . S
C301 C305 1.385 . S
C302 H283 0.951 . S
C302 C300 1.388 . S
C302 C303 1.366 . S
C303 C302 1.366 . S
C303 C304 1.414 . S
C303 C306 1.499 . S
C304 H284 0.950 . S
C304 C303 1.414 . S
C304 C305 1.374 . S
C305 H285 0.950 . S
C305 C301 1.385 . S
C305 C304 1.374 . S
C306 C303 1.499 . S
C306 C307 1.373 . S
C306 C308 1.389 . S
C307 H286 0.950 . S
C307 C306 1.373 . S
C307 C323 1.377 . S
C308 C306 1.389 . S
C308 C309 1.524 . S
C308 C322 1.377 . S
C309 C308 1.524 . S
C309 C310 1.397 . S
C309 C314 1.363 . S
C310 H287 0.950 . S
C310 C309 1.397 . S
C310 C311 1.334 . S
C311 H288 0.950 . S
C311 C310 1.334 . S
C311 C312 1.287 . S
C312 C311 1.287 . S
C312 C313 1.524 . S
C312 H331 0.913 . S
C313 H289 0.950 . S
C313 C312 1.524 . S
C313 C314 1.415 . S
C314 H290 0.950 . S
C314 C309 1.363 . S
C314 C313 1.415 . S
C315 H291 0.951 . S
C315 C316 1.366 . S
C315 C317 1.388 . S
C316 C315 1.366 . S
C316 C320 1.385 . S
C317 H292 0.951 . S
C317 C315 1.388 . S
C317 C318 1.366 . S
C318 C317 1.366 . S
C318 C319 1.414 . S
C318 C321 1.499 . S
C319 H293 0.950 . S
C319 C318 1.414 . S
C319 C320 1.374 . S
C320 H294 0.950 . S
C320 C316 1.385 . S
C320 C319 1.374 . S
C321 C318 1.499 . S
C321 C322 1.373 . S
C321 C323 1.389 . S
C322 H295 0.950 . S
C322 C308 1.377 . S
C322 C321 1.373 . S
C323 C307 1.377 . S
C323 C321 1.389 . S
C323 C324 1.524 . S
C324 C323 1.524 . S
C324 C325 1.397 . S
C324 C329 1.363 . S
C325 H296 0.950 . S
C325 C324 1.397 . S
C325 C326 1.334 . S
C326 H297 0.950 . S
C326 C325 1.334 . S
C326 C327 1.287 . S
C327 C326 1.287 . S
C327 C328 1.524 . S
C327 H330 0.999 . S
C328 H298 0.950 . S
C328 C327 1.524 . S
C328 C329 1.415 . S
C329 H299 0.950 . S
C329 C324 1.363 . S
C329 C328 1.415 . S
H330 C327 0.999 . S
H331 C312 0.913 . S
H332 C350 0.951 . S
H333 C352 0.951 . S
H334 C354 0.950 . S
H335 C355 0.950 . S
H336 C357 0.950 . S
H337 C360 0.950 . S
H338 C361 0.950 . S
H339 C363 0.950 . S
H340 C364 0.950 . S
H341 C365 0.951 . S
H342 C367 0.951 . S
H343 C369 0.950 . S
H344 C370 0.950 . S
H345 C372 0.950 . S
H346 C375 0.950 . S
H347 C376 0.950 . S
H348 C378 0.950 . S
H349 C379 0.950 . S
C350 H332 0.951 . S
C350 C351 1.366 . S
C350 C352 1.388 . S
C351 C350 1.366 . S
C351 C355 1.385 . S
C352 H333 0.951 . S
C352 C350 1.388 . S
C352 C353 1.366 . S
C353 C352 1.366 . S
C353 C354 1.414 . S
C353 C356 1.499 . S
C354 H334 0.950 . S
C354 C353 1.414 . S
C354 C355 1.374 . S
C355 H335 0.950 . S
C355 C351 1.385 . S
C355 C354 1.374 . S
C356 C353 1.499 . S
C356 C357 1.373 . S
C356 C358 1.389 . S
C357 H336 0.950 . S
C357 C356 1.373 . S
C357 C373 1.377 . S
C358 C356 1.389 . S
C358 C359 1.524 . S
C358 C372 1.377 . S
C359 C358 1.524 . S
C359 C360 1.397 . S
C359 C364 1.363 . S
C360 H337 0.950 . S
C360 C359 1.397 . S
C360 C361 1.334 . S
C361 H338 0.950 . S
C361 C360 1.334 . S
C361 C362 1.287 . S
C362 C361 1.287 . S
C362 C363 1.524 . S
C362 H381 0.913 . S
C363 H339 0.950 . S
C363 C362 1.524 . S
C363 C364 1.415 . S
C364 H340 0.950 . S
C364 C359 1.363 . S
C364 C363 1.415 . S
C365 H341 0.951 . S
C365 C366 1.366 . S
C365 C367 1.388 . S
C366 C365 1.366 . S
C366 C370 1.385 . S
C367 H342 0.951 . S
C367 C365 1.388 . S
C367 C368 1.366 . S
C368 C367 1.366 . S
C368 C369 1.414 . S
C368 C371 1.499 . S
C369 H343 0.950 . S
C369 C368 1.414 . S
C369 C370 1.374 . S
C370 H344 0.950 . S
C370 C366 1.385 . S
C370 C369 1.374 . S
C371 C368 1.499 . S
C371 C372 1.373 . S
C371 C373 1.389 . S
C372 H345 0.950 . S
C372 C358 1.377 . S
C372 C371 1.373 . S
C373 C357 1.377 . S
C373 C371 1.389 . S
C373 C374 1.524 . S
C374 C373 1.524 . S
C374 C375 1.397 . S
C374 C379 1.363 . S
C375 H346 0.950 . S
C375 C374 1.397 . S
C375 C376 1.334 . S
C376 H347 0.950 . S
C376 C375 1.334 . S
C376 C377 1.287 . S
C377 C376 1.287 . S
C377 C378 1.524 . S
C377 H380 0.999 . S
C378 H348 0.950 . S
C378 C377 1.524 . S
C378 C379 1.415 . S
C379 H349 0.950 . S
C379 C374 1.363 . S
C379 C378 1.415 . S
H380 C377 0.999 . S
H381 C362 0.913 . S
H382 C400 0.951 . S
H383 C402 0.951 . S
H384 C404 0.950 . S
H385 C405 0.950 . S
H386 C407 0.950 . S
H387 C410 0.950 . S
H388 C411 0.950 . S
H389 C413 0.950 1_655 S
H390 C414 0.950 . S
H391 C415 0.951 . S
H392 C417 0.951 . S
H393 C419 0.950 . S
H394 C420 0.950 . S
H395 C422 0.950 . S
H396 C425 0.950 . S
H397 C426 0.950 . S
H398 C428 0.950 . S
H399 C429 0.950 . S
C400 H382 0.951 . S
C400 C401 1.366 . S
C400 C402 1.388 . S
C401 C400 1.366 . S
C401 C405 1.385 . S
C402 H383 0.951 . S
C402 C400 1.388 . S
C402 C403 1.366 . S
C403 C402 1.366 . S
C403 C404 1.414 . S
C403 C406 1.499 . S
C404 H384 0.950 . S
C404 C403 1.414 . S
C404 C405 1.374 . S
C405 H385 0.950 . S
C405 C401 1.385 . S
C405 C404 1.374 . S
C406 C403 1.499 . S
C406 C407 1.373 . S
C406 C408 1.389 . S
C407 H386 0.950 . S
C407 C406 1.373 . S
C407 C423 1.377 . S
C408 C406 1.389 . S
C408 C409 1.524 . S
C408 C422 1.377 . S
C409 C408 1.524 . S
C409 C410 1.397 . S
C409 C414 1.363 . S
C410 H387 0.950 . S
C410 C409 1.397 . S
C410 C411 1.334 . S
C411 H388 0.950 . S
C411 C410 1.334 . S
C411 C412 1.287 . S
C412 C411 1.287 . S
C412 C413 1.524 . S
C412 H431 0.913 1_455 S
C413 H389 0.950 1_455 S
C413 C412 1.524 . S
C413 C414 1.415 . S
C414 H390 0.950 . S
C414 C409 1.363 . S
C414 C413 1.415 . S
C415 H391 0.951 . S
C415 C416 1.366 . S
C415 C417 1.388 . S
C416 C415 1.366 . S
C416 C420 1.385 . S
C417 H392 0.951 . S
C417 C415 1.388 . S
C417 C418 1.366 . S
C418 C417 1.366 . S
C418 C419 1.414 . S
C418 C421 1.499 . S
C419 H393 0.950 . S
C419 C418 1.414 . S
C419 C420 1.374 . S
C420 H394 0.950 . S
C420 C416 1.385 . S
C420 C419 1.374 . S
C421 C418 1.499 . S
C421 C422 1.373 . S
C421 C423 1.389 . S
C422 H395 0.950 . S
C422 C408 1.377 . S
C422 C421 1.373 . S
C423 C407 1.377 . S
C423 C421 1.389 . S
C423 C424 1.524 . S
C424 C423 1.524 . S
C424 C425 1.397 . S
C424 C429 1.363 . S
C425 H396 0.950 . S
C425 C424 1.397 . S
C425 C426 1.334 . S
C426 H397 0.950 . S
C426 C425 1.334 . S
C426 C427 1.287 . S
C427 C426 1.287 . S
C427 C428 1.524 . S
C427 H430 0.999 1_565 S
C428 H398 0.950 . S
C428 C427 1.524 . S
C428 C429 1.415 . S
C429 H399 0.950 . S
C429 C424 1.363 . S
C429 C428 1.415 . S
H430 C427 0.999 1_545 S
H431 C412 0.913 1_655 S
H432 C450 0.951 . S
H433 C452 0.951 . S
H434 C454 0.950 . S
H435 C455 0.950 . S
H436 C457 0.950 . S
H437 C460 0.950 . S
H438 C461 0.950 1_554 S
H439 C463 0.950 1_554 S
H440 C464 0.950 . S
H441 C465 0.951 . S
H442 C467 0.951 . S
H443 C469 0.950 . S
H444 C470 0.950 . S
H445 C472 0.950 . S
H446 C475 0.950 . S
H447 C476 0.950 . S
H448 C478 0.950 . S
H449 C479 0.950 . S
C450 H432 0.951 . S
C450 C451 1.366 . S
C450 C452 1.388 . S
C451 C450 1.366 . S
C451 C455 1.385 . S
C452 H433 0.951 . S
C452 C450 1.388 . S
C452 C453 1.366 . S
C453 C452 1.366 . S
C453 C454 1.414 . S
C453 C456 1.499 . S
C454 H434 0.950 . S
C454 C453 1.414 . S
C454 C455 1.374 . S
C455 H435 0.950 . S
C455 C451 1.385 . S
C455 C454 1.374 . S
C456 C453 1.499 . S
C456 C457 1.373 . S
C456 C458 1.389 . S
C457 H436 0.950 . S
C457 C456 1.373 . S
C457 C473 1.377 . S
C458 C456 1.389 . S
C458 C459 1.524 . S
C458 C472 1.377 . S
C459 C458 1.524 . S
C459 C460 1.397 . S
C459 C464 1.363 . S
C460 H437 0.950 . S
C460 C459 1.397 . S
C460 C461 1.334 . S
C461 H438 0.950 1_556 S
C461 C460 1.334 . S
C461 C462 1.287 1_556 S
C462 C461 1.287 1_554 S
C462 C463 1.524 1_554 S
C462 H481 0.913 . S
C463 H439 0.950 1_556 S
C463 C462 1.524 1_556 S
C463 C464 1.415 . S
C464 H440 0.950 . S
C464 C459 1.363 . S
C464 C463 1.415 . S
C465 H441 0.951 . S
C465 C466 1.366 . S
C465 C467 1.388 . S
C466 C465 1.366 . S
C466 C470 1.385 . S
C467 H442 0.951 . S
C467 C465 1.388 . S
C467 C468 1.366 . S
C468 C467 1.366 . S
C468 C469 1.414 . S
C468 C471 1.499 . S
C469 H443 0.950 . S
C469 C468 1.414 . S
C469 C470 1.374 . S
C470 H444 0.950 . S
C470 C466 1.385 . S
C470 C469 1.374 . S
C471 C468 1.499 . S
C471 C472 1.373 . S
C471 C473 1.389 . S
C472 H445 0.950 . S
C472 C458 1.377 . S
C472 C471 1.373 . S
C473 C457 1.377 . S
C473 C471 1.389 . S
C473 C474 1.524 . S
C474 C473 1.524 . S
C474 C475 1.397 . S
C474 C479 1.363 . S
C475 H446 0.950 . S
C475 C474 1.397 . S
C475 C476 1.334 . S
C476 H447 0.950 . S
C476 C475 1.334 . S
C476 C477 1.287 . S
C477 C476 1.287 . S
C477 C478 1.524 . S
C477 H480 0.999 . S
C478 H448 0.950 . S
C478 C477 1.524 . S
C478 C479 1.415 . S
C479 H449 0.950 . S
C479 C474 1.363 . S
C479 C478 1.415 . S
H480 C477 0.999 . S
H481 C462 0.913 . S
H482 C500 0.951 . S
H483 C502 0.951 . S
H484 C504 0.950 . S
H485 C505 0.950 . S
H486 C507 0.950 . S
H487 C510 0.950 . S
H488 C511 0.950 . S
H489 C513 0.950 . S
H490 C514 0.950 . S
H491 C515 0.951 . S
H492 C517 0.951 . S
H493 C519 0.950 . S
H494 C520 0.950 . S
H495 C522 0.950 . S
H496 C525 0.950 . S
H497 C526 0.950 . S
H498 C528 0.950 . S
H499 C529 0.950 . S
C500 H482 0.951 . S
C500 C501 1.366 . S
C500 C502 1.388 . S
C501 C500 1.366 . S
C501 C505 1.385 . S
C502 H483 0.951 . S
C502 C500 1.388 . S
C502 C503 1.366 . S
C503 C502 1.366 . S
C503 C504 1.414 . S
C503 C506 1.499 . S
C504 H484 0.950 . S
C504 C503 1.414 . S
C504 C505 1.374 . S
C505 H485 0.950 . S
C505 C501 1.385 . S
C505 C504 1.374 . S
C506 C503 1.499 . S
C506 C507 1.373 . S
C506 C508 1.389 . S
C507 H486 0.950 . S
C507 C506 1.373 . S
C507 C523 1.377 . S
C508 C506 1.389 . S
C508 C509 1.524 . S
C508 C522 1.377 . S
C509 C508 1.524 . S
C509 C510 1.397 . S
C509 C514 1.363 . S
C510 H487 0.950 . S
C510 C509 1.397 . S
C510 C511 1.334 . S
C511 H488 0.950 . S
C511 C510 1.334 . S
C511 C512 1.287 . S
C512 C511 1.287 . S
C512 C513 1.524 . S
C512 H531 0.913 . S
C513 H489 0.950 . S
C513 C512 1.524 . S
C513 C514 1.415 . S
C514 H490 0.950 . S
C514 C509 1.363 . S
C514 C513 1.415 . S
C515 H491 0.951 . S
C515 C516 1.366 . S
C515 C517 1.388 . S
C516 C515 1.366 . S
C516 C520 1.385 . S
C517 H492 0.951 . S
C517 C515 1.388 . S
C517 C518 1.366 . S
C518 C517 1.366 . S
C518 C519 1.414 . S
C518 C521 1.499 . S
C519 H493 0.950 . S
C519 C518 1.414 . S
C519 C520 1.374 . S
C520 H494 0.950 . S
C520 C516 1.385 . S
C520 C519 1.374 . S
C521 C518 1.499 . S
C521 C522 1.373 . S
C521 C523 1.389 . S
C522 H495 0.950 . S
C522 C508 1.377 . S
C522 C521 1.373 . S
C523 C507 1.377 . S
C523 C521 1.389 . S
C523 C524 1.524 . S
C524 C523 1.524 . S
C524 C525 1.397 . S
C524 C529 1.363 . S
C525 H496 0.950 . S
C525 C524 1.397 . S
C525 C526 1.334 . S
C526 H497 0.950 . S
C526 C525 1.334 . S
C526 C527 1.287 . S
C527 C526 1.287 . S
C527 C528 1.524 . S
C527 H530 0.999 . S
C528 H498 0.950 . S
C528 C527 1.524 . S
C528 C529 1.415 . S
C529 H499 0.950 . S
C529 C524 1.363 . S
C529 C528 1.415 . S
H530 C527 0.999 . S
H531 C512 0.913 . S
H532 C550 0.951 . S
H533 C552 0.951 . S
H534 C554 0.950 . S
H535 C555 0.950 . S
H536 C557 0.950 . S
H537 C560 0.950 . S
H538 C561 0.950 . S
H539 C563 0.950 . S
H540 C564 0.950 . S
H541 C565 0.951 . S
H542 C567 0.951 . S
H543 C569 0.950 . S
H544 C570 0.950 . S
H545 C572 0.950 . S
H546 C575 0.950 . S
H547 C576 0.950 . S
H548 C578 0.963 . S
H549 C579 0.950 . S
C550 H532 0.951 . S
C550 C551 1.366 . S
C550 C552 1.388 . S
C551 C550 1.366 . S
C551 C555 1.385 . S
C552 H533 0.951 . S
C552 C550 1.388 . S
C552 C553 1.366 . S
C553 C552 1.366 . S
C553 C554 1.414 . S
C553 C556 1.499 . S
C554 H534 0.950 . S
C554 C553 1.414 . S
C554 C555 1.374 . S
C555 H535 0.950 . S
C555 C551 1.385 . S
C555 C554 1.374 . S
C556 C553 1.499 . S
C556 C557 1.373 . S
C556 C558 1.389 . S
C557 H536 0.950 . S
C557 C556 1.373 . S
C557 C573 1.377 . S
C558 C556 1.389 . S
C558 C559 1.524 . S
C558 C572 1.377 . S
C559 C558 1.524 . S
C559 C560 1.397 . S
C559 C564 1.363 . S
C560 H537 0.950 . S
C560 C559 1.397 . S
C560 C561 1.334 1_545 S
C561 H538 0.950 . S
C561 C560 1.334 1_565 S
C561 C562 1.287 . S
C562 C561 1.287 . S
C562 C563 1.524 1_565 S
C562 H581 0.913 . S
C563 H539 0.950 . S
C563 C562 1.524 1_545 S
C563 C564 1.415 . S
C564 H540 0.950 . S
C564 C559 1.363 . S
C564 C563 1.415 . S
C565 H541 0.951 . S
C565 C566 1.366 . S
C565 C567 1.388 . S
C566 C565 1.366 . S
C566 C570 1.385 . S
C567 H542 0.951 . S
C567 C565 1.388 . S
C567 C568 1.366 . S
C568 C567 1.366 . S
C568 C569 1.414 . S
C568 C571 1.499 . S
C569 H543 0.950 . S
C569 C568 1.414 . S
C569 C570 1.374 . S
C570 H544 0.950 . S
C570 C566 1.385 . S
C570 C569 1.374 . S
C571 C568 1.499 . S
C571 C572 1.373 . S
C571 C573 1.389 . S
C572 H545 0.950 . S
C572 C558 1.377 . S
C572 C571 1.373 . S
C573 C557 1.377 . S
C573 C571 1.389 . S
C573 C574 1.524 . S
C574 C573 1.524 . S
C574 C575 1.397 . S
C574 C579 1.363 . S
C575 H546 0.950 . S
C575 C574 1.397 . S
C575 C576 1.334 . S
C576 H547 0.950 . S
C576 C575 1.334 . S
C576 C577 1.287 . S
C577 C576 1.287 . S
C577 C578 1.524 . S
C577 H580 0.999 . S
C578 H548 0.963 . S
C578 C577 1.524 . S
C578 C579 1.415 . S
C579 H549 0.950 . S
C579 C574 1.363 . S
C579 C578 1.415 . S
H580 C577 0.999 . S
H581 C562 0.913 . S
H582 C600 0.951 . S
H583 C602 0.951 . S
H584 C604 0.950 . S
H585 C605 0.950 . S
H586 C607 0.950 . S
H587 C610 0.950 . S
H588 C611 0.950 . S
H589 C613 0.950 . S
H590 C614 0.950 . S
H591 C615 0.951 . S
H592 C617 0.951 . S
H593 C619 0.950 . S
H594 C620 0.950 . S
H595 C622 0.950 . S
H596 C625 0.950 . S
H597 C626 0.950 . S
H598 C628 0.950 . S
H599 C629 0.950 . S
C600 H582 0.951 . S
C600 C601 1.366 . S
C600 C602 1.388 . S
C601 C600 1.366 . S
C601 C605 1.385 . S
C602 H583 0.951 . S
C602 C600 1.388 . S
C602 C603 1.366 . S
C603 C602 1.366 . S
C603 C604 1.414 . S
C603 C606 1.499 . S
C604 H584 0.950 . S
C604 C603 1.414 . S
C604 C605 1.374 . S
C605 H585 0.950 . S
C605 C601 1.385 . S
C605 C604 1.374 . S
C606 C603 1.499 . S
C606 C607 1.373 . S
C606 C608 1.389 . S
C607 H586 0.950 . S
C607 C606 1.373 . S
C607 C623 1.377 . S
C608 C606 1.389 . S
C608 C609 1.524 . S
C608 C622 1.377 . S
C609 C608 1.524 . S
C609 C610 1.397 . S
C609 C614 1.363 . S
C610 H587 0.950 . S
C610 C609 1.397 . S
C610 C611 1.334 1_565 S
C611 H588 0.950 . S
C611 C610 1.334 1_545 S
C611 C612 1.287 . S
C612 C611 1.287 . S
C612 C613 1.524 . S
C612 H631 0.913 . S
C613 H589 0.950 . S
C613 C612 1.524 . S
C613 C614 1.415 1_545 S
C614 H590 0.950 . S
C614 C609 1.363 . S
C614 C613 1.415 1_565 S
C615 H591 0.951 . S
C615 C616 1.366 . S
C615 C617 1.388 . S
C616 C615 1.366 . S
C616 C620 1.385 . S
C617 H592 0.951 . S
C617 C615 1.388 . S
C617 C618 1.366 . S
C618 C617 1.366 . S
C618 C619 1.414 . S
C618 C621 1.499 . S
C619 H593 0.950 . S
C619 C618 1.414 . S
C619 C620 1.374 . S
C620 H594 0.950 . S
C620 C616 1.385 . S
C620 C619 1.374 . S
C621 C618 1.499 . S
C621 C622 1.373 . S
C621 C623 1.389 . S
C622 H595 0.950 . S
C622 C608 1.377 . S
C622 C621 1.373 . S
C623 C607 1.377 . S
C623 C621 1.389 . S
C623 C624 1.524 . S
C624 C623 1.524 . S
C624 C625 1.397 . S
C624 C629 1.363 . S
C625 H596 0.950 . S
C625 C624 1.397 . S
C625 C626 1.334 . S
C626 H597 0.950 . S
C626 C625 1.334 . S
C626 C627 1.287 . S
C627 C626 1.287 . S
C627 C628 1.524 . S
C627 H630 0.999 . S
C628 H598 0.950 . S
C628 C627 1.524 . S
C628 C629 1.415 . S
C629 H599 0.950 . S
C629 C624 1.363 . S
C629 C628 1.415 . S
H630 C627 0.999 . S
H631 C612 0.913 . S
H632 C650 0.951 . S
H633 C652 0.951 . S
H634 C654 0.950 . S
H635 C655 0.950 . S
H636 C657 0.950 . S
H637 C660 0.950 1_655 S
H638 C661 0.950 . S
H639 C663 0.950 . S
H640 C664 0.950 . S
H641 C665 0.951 . S
H642 C667 0.951 . S
H643 C669 0.950 . S
H644 C670 0.950 . S
H645 C672 0.950 . S
H646 C675 0.950 . S
H647 C676 0.950 . S
H648 C678 0.950 . S
H649 C679 0.950 . S
C650 H632 0.951 . S
C650 C651 1.366 . S
C650 C652 1.388 . S
C651 C650 1.366 . S
C651 C655 1.385 . S
C652 H633 0.951 . S
C652 C650 1.388 . S
C652 C653 1.366 . S
C653 C652 1.366 . S
C653 C654 1.414 . S
C653 C656 1.499 . S
C654 H634 0.950 . S
C654 C653 1.414 . S
C654 C655 1.374 . S
C655 H635 0.950 . S
C655 C651 1.385 . S
C655 C654 1.374 . S
C656 C653 1.499 . S
C656 C657 1.373 . S
C656 C658 1.389 . S
C657 H636 0.950 . S
C657 C656 1.373 . S
C657 C673 1.377 . S
C658 C656 1.389 . S
C658 C659 1.524 . S
C658 C672 1.377 . S
C659 C658 1.524 . S
C659 C660 1.397 1_655 S
C659 C664 1.363 . S
C660 H637 0.950 1_455 S
C660 C659 1.397 1_455 S
C660 C661 1.334 . S
C661 H638 0.950 . S
C661 C660 1.334 . S
C661 C662 1.287 . S
C662 C661 1.287 . S
C662 C663 1.524 . S
C662 H681 0.913 . S
C663 H639 0.950 . S
C663 C662 1.524 . S
C663 C664 1.415 1_455 S
C664 H640 0.950 . S
C664 C659 1.363 . S
C664 C663 1.415 1_655 S
C665 H641 0.951 . S
C665 C666 1.366 . S
C665 C667 1.388 . S
C666 C665 1.366 . S
C666 C670 1.385 . S
C667 H642 0.951 . S
C667 C665 1.388 . S
C667 C668 1.366 . S
C668 C667 1.366 . S
C668 C669 1.414 . S
C668 C671 1.499 . S
C669 H643 0.950 . S
C669 C668 1.414 . S
C669 C670 1.374 . S
C670 H644 0.950 . S
C670 C666 1.385 . S
C670 C669 1.374 . S
C671 C668 1.499 . S
C671 C672 1.373 . S
C671 C673 1.389 . S
C672 H645 0.950 . S
C672 C658 1.377 . S
C672 C671 1.373 . S
C673 C657 1.377 . S
C673 C671 1.389 . S
C673 C674 1.524 . S
C674 C673 1.524 . S
C674 C675 1.397 . S
C674 C679 1.363 . S
C675 H646 0.950 . S
C675 C674 1.397 . S
C675 C676 1.334 . S
C676 H647 0.950 . S
C676 C675 1.334 . S
C676 C677 1.287 . S
C677 C676 1.287 . S
C677 C678 1.524 . S
C677 H680 0.999 . S
C678 H648 0.950 . S
C678 C677 1.524 . S
C678 C679 1.415 . S
C679 H649 0.950 . S
C679 C674 1.363 . S
C679 C678 1.415 . S
H680 C677 0.999 . S
H681 C662 0.913 . S
C101 C19 1.652 . S
C116 C59 1.541 . S
C151 C39 1.188 . S
C166 C65 1.097 . S
C201 C2 0.981 . S
C216 C56 0.942 . S
C251 C22 1.309 . S
C266 C81 1.236 . S
C301 C8 1.799 . S
C316 C47 1.693 . S
C366 C64 1.829 . S
C351 C28 1.924 . S
C401 C21 1.272 . S
C416 C60 1.198 . S
C466 C77 1.637 . S
C451 C9 1.728 . S
C516 C44 1.786 . S
C501 C29 1.910 . S
C566 C80 1.590 . S
C551 C18 1.686 . S
C616 C43 1.161 . S
C601 C38 1.235 . S
C666 C68 0.949 . S
C651 C1 1.004 . S
