# Generated by pormake.
# Topology pts, (4,4)-cn, num edge types: 1
# Building blocks:
#     Node 0, Type 0, BuildingBlock: MUDLON_clean_sbu_0, # of connection points: 4
#     Node 1, Type 0, BuildingBlock: MUDLON_clean_sbu_0, # of connection points: 4
#     Node 2, Type 1, BuildingBlock: UXUYUI_clean_sbu_0, # of connection points: 4
#     Node 3, Type 1, BuildingBlock: UXUYUI_clean_sbu_0, # of connection points: 4
#     Edge 4, Type (0, 1), BuildingBlock: TEMPAE_clean_linker_10, # of connection points: 2
#     Edge 5, Type (0, 1), BuildingBlock: TEMPAE_clean_linker_10, # of connection points: 2
#     Edge 6, Type (0, 1), BuildingBlock: TEMPAE_clean_linker_10, # of connection points: 2
#     Edge 7, Type (0, 1), BuildingBlock: TEMPAE_clean_linker_10, # of connection points: 2
#     Edge 8, Type (0, 1), BuildingBlock: TEMPAE_clean_linker_10, # of connection points: 2
#     Edge 9, Type (0, 1), BuildingBlock: TEMPAE_clean_linker_10, # of connection points: 2
#     Edge 10, Type (0, 1), BuildingBlock: TEMPAE_clean_linker_10, # of connection points: 2
#     Edge 11, Type (0, 1), BuildingBlock: TEMPAE_clean_linker_10, # of connection points: 2
# Relax obj value: 0.040
# Max RMSD: 0.092
# Mean RMSD: 0.080
data_MOF--net-pts--node1-MUDLON_clean_sbu_0--node2-UXUYUI_clean_sbu_0--edge1-TEMPAE_clean_linker_10
_symmetry_space_group_name_H-M    P1
_symmetry_Int_Tables_number       1
_symmetry_cell_setting            triclinic
loop_
_symmetry_equiv_pos_as_xyz
'x, y, z'
_cell_length_a     28.743418
_cell_length_b     28.790399
_cell_length_c     48.799346
_cell_angle_alpha  89.964142
_cell_angle_beta   90.076142
_cell_angle_gamma 90.024166
loop_
_atom_site_label
_atom_site_type_symbol
_atom_site_fract_x
_atom_site_fract_y
_atom_site_fract_z
_atom_type_partial_charge
Mg0 Mg 0.50151 0.99644 0.04428 0.0
C1 C 0.45485 0.95381 0.99459 0.0
O2 O 0.4909 0.97272 0.98244 0.0
C3 C 0.57155 1.00104 0.08522 0.0
O4 O 0.5617 0.04327 0.07675 0.0
C5 C 0.43716 1.00655 0.08735 0.0
O6 O 0.45214 0.96345 0.08636 0.0
O7 O 0.45347 0.03542 0.07002 0.0
O8 O 0.45338 0.95329 0.02067 0.0
O9 O 0.54969 0.02913 0.01549 0.0
C10 C 0.58047 0.99928 1.00892 0.0
O11 O 0.57769 0.95766 0.01989 0.0
O12 O 0.54914 0.96728 0.07468 0.0
Mg13 Mg 0.02809 0.51064 0.54654 0.0
C14 C 0.06958 0.60235 0.56676 0.0
O15 O 0.055 0.61723 0.54281 0.0
C16 C 0.06749 0.41819 0.5265 0.0
O17 O 0.05412 0.40415 0.55085 0.0
C18 C 0.01344 0.56279 0.49601 0.0
O19 O 0.05387 0.54213 0.49319 0.0
O20 O 0.98983 0.55432 0.51754 0.0
O21 O 0.06763 0.55911 0.57204 0.0
O22 O 0.9891 0.46745 0.57547 0.0
C23 C 0.01058 0.46094 0.59802 0.0
O24 O 0.04964 0.48353 0.60217 0.0
O25 O 0.06569 0.46129 0.52082 0.0
Li26 Li 1.00355 0.0579 0.3154 0.0
Li27 Li 1.00052 0.97315 0.31774 0.0
Li28 Li 0.04362 0.01729 0.27853 0.0
Li29 Li 0.95794 0.01587 0.28271 0.0
C30 C 0.0845 0.03607 0.33756 0.0
N31 N 0.13679 0.0839 0.37582 0.0
C32 C 0.07687 0.02907 0.36553 0.0
C33 C 0.119 0.06709 0.32903 0.0
C34 C 0.10357 0.05369 0.38456 0.0
C35 C 0.14504 0.09097 0.34869 0.0
C36 C 0.90774 0.03761 0.32932 0.0
C37 C 0.83196 0.03436 0.35035 0.0
N38 N 0.82348 0.07851 0.34175 0.0
C39 C 0.89836 0.08294 0.32076 0.0
C40 C 0.8744 0.01309 0.34431 0.0
C41 C 0.85554 0.10303 0.32723 0.0
C42 C 0.03846 0.14653 0.33328 0.0
N43 N 0.00921 0.11089 0.3395 0.0
C44 C 0.9951 0.14339 0.38387 0.0
C45 C 0.98758 0.10883 0.36426 0.0
C46 C 0.02584 0.18004 0.37814 0.0
C47 C 0.04735 0.18155 0.35237 0.0
H48 H 0.05678 0.14677 0.31407 0.0
H49 H 0.96579 0.07941 0.36922 0.0
C50 C 0.00896 0.87741 0.33133 0.0
N51 N 0.99835 0.92034 0.34107 0.0
C52 C 1.00403 0.83837 0.34815 0.0
C53 C 0.97841 0.88865 0.38481 0.0
C54 C 0.98318 0.9266 0.36719 0.0
C55 C 0.98859 0.8438 0.37527 0.0
H56 H 0.02065 0.87345 0.31041 0.0
H57 H 0.97427 0.9611 0.37421 0.0
C58 C 1.00391 0.11291 0.26582 0.0
N59 N 0.01348 0.20181 0.24516 0.0
C60 C 0.96452 0.13933 0.25952 0.0
C61 C 0.04816 0.13144 0.26113 0.0
C62 C 0.97009 0.18428 0.24923 0.0
C63 C 0.05228 0.17652 0.25083 0.0
C64 C 0.97609 0.93529 0.25939 0.0
C65 C 0.98286 0.94012 0.23119 0.0
C66 C 0.94239 0.90443 0.26914 0.0
C67 C 0.95538 0.91426 0.21313 0.0
C68 C 0.91568 0.87914 0.25043 0.0
N69 N 0.92263 0.88459 0.22305 0.0
C70 C 0.1382 0.00896 0.26166 0.0
C71 C 0.08507 0.03357 0.22742 0.0
C72 C 0.17546 0.01421 0.24352 0.0
N73 N 0.09418 0.01904 0.25339 0.0
C74 C 0.12119 0.03902 0.20858 0.0
C75 C 0.16719 0.02965 0.2166 0.0
H76 H 0.14444 0.99744 0.28244 0.0
H77 H 0.04974 0.0419 0.22153 0.0
C78 C 0.86511 0.98886 0.26929 0.0
N79 N 0.90325 0.01252 0.26051 0.0
C80 C 0.82749 0.98152 0.25164 0.0
C81 C 0.86889 0.02352 0.21637 0.0
C82 C 0.90563 0.0301 0.2347 0.0
C83 C 0.82932 0.99847 0.22465 0.0
H84 H 0.86464 0.97406 0.28965 0.0
H85 H 0.93673 0.04807 0.22812 0.0
O86 O 0.05771 0.01338 0.31864 0.0
O87 O 0.94923 0.01704 0.32301 0.0
O88 O 0.9991 0.06833 0.27516 0.0
O89 O 1.00155 0.96142 0.27737 0.0
H90 H 0.0502 1.00533 0.37247 0.0
H91 H 0.12501 0.07336 0.30746 0.0
H92 H 0.09777 0.04891 0.40628 0.0
H93 H 0.17157 0.11538 0.34239 0.0
H94 H 0.80575 0.01577 0.36187 0.0
H95 H 0.924 0.10249 0.30944 0.0
H96 H 0.8812 0.97791 0.35107 0.0
H97 H 0.84783 0.13813 0.32073 0.0
H98 H 0.97839 0.14052 0.40368 0.0
H99 H 0.0713 0.20922 0.34714 0.0
H100 H 0.01265 0.80437 0.34013 0.0
H101 H 0.96611 0.89418 0.40553 0.0
H102 H 0.92998 0.12516 0.26232 0.0
H103 H 0.07906 0.11151 0.2658 0.0
H104 H 0.9399 0.20515 0.24436 0.0
H105 H 0.08632 0.19141 0.24735 0.0
H106 H 0.00869 0.96395 0.22332 0.0
H107 H 0.93633 0.90069 0.29091 0.0
H108 H 0.96001 0.91789 0.19124 0.0
H109 H 0.88922 0.85541 0.25767 0.0
H110 H 0.21032 1.00594 0.25042 0.0
H111 H 0.11332 0.05132 0.18811 0.0
H112 H 0.79796 0.96155 0.25878 0.0
H113 H 0.87154 0.03774 0.19589 0.0
Li114 Li 0.96209 1.00463 0.80869 0.0
Li115 Li 0.04744 1.00257 0.81445 0.0
Li116 Li 1.00621 0.04863 0.77507 0.0
Li117 Li 0.00888 0.96297 0.77673 0.0
C118 C 0.98173 0.08148 0.83567 0.0
N119 N 0.93128 0.12537 0.87622 0.0
C120 C 0.9912 0.07231 0.86324 0.0
C121 C 0.94688 0.11322 0.82869 0.0
C122 C 0.96523 0.0948 0.88345 0.0
C123 C 0.9217 0.13499 0.84951 0.0
C124 C 0.98851 0.9061 0.81983 0.0
C125 C 1.0047 0.82647 0.83186 0.0
N126 N 0.9598 0.81513 0.82608 0.0
C127 C 0.94249 0.89374 0.8142 0.0
C128 C 0.01984 0.87232 0.82893 0.0
C129 C 0.92866 0.84754 0.81742 0.0
C130 C 0.86798 0.03099 0.82315 0.0
N131 N 0.90669 0.00712 0.8309 0.0
C132 C 0.87385 0.99287 0.87514 0.0
C133 C 0.91004 0.98795 0.85631 0.0
C134 C 0.83363 0.01755 0.86771 0.0
C135 C 0.8307 0.03626 0.84122 0.0
H136 H 0.86657 0.04771 0.80346 0.0
H137 H 0.94154 0.96999 0.86223 0.0
C138 C 0.13831 0.02166 0.83544 0.0
N139 N 0.09758 0.99887 0.83987 0.0
C140 C 0.17601 0.01505 0.8532 0.0
C141 C 0.12883 0.96222 0.87984 0.0
C142 C 0.09203 0.97009 0.86172 0.0
C143 C 0.1717 0.98448 0.87555 0.0
H144 H 0.14184 0.04405 0.81775 0.0
H145 H 0.05913 0.95264 0.86482 0.0
C146 C 0.91164 1.00603 0.75877 0.0
N147 N 0.82165 0.01016 0.73891 0.0
C148 C 0.88557 0.96537 0.75569 0.0
C149 C 0.89219 0.04874 0.75131 0.0
C150 C 0.84006 0.96821 0.74575 0.0
C151 C 0.84657 0.05011 0.74143 0.0
C152 C 0.09297 0.98383 0.75799 0.0
C153 C 0.08815 0.98659 0.72954 0.0
C154 C 0.1278 0.95587 0.76931 0.0
C155 C 0.11797 0.96081 0.71284 0.0
C156 C 0.15702 0.93075 0.75192 0.0
N157 N 0.15148 0.93365 0.72428 0.0
C158 C 0.0081 0.14529 0.76288 0.0
C159 C 0.99905 0.09524 0.72468 0.0
C160 C 1.00299 0.18429 0.74606 0.0
N161 N 1.0057 0.10191 0.75198 0.0
C162 C 0.99435 0.13322 0.70707 0.0
C163 C 0.99584 0.17845 0.71777 0.0
H164 H 0.01323 0.14958 0.78469 0.0
H165 H 0.99611 0.06034 0.71669 0.0
C166 C 0.04616 0.87586 0.75962 0.0
N167 N 0.0154 0.91008 0.75318 0.0
C168 C 0.05522 0.8401 0.74105 0.0
C169 C 1.00007 0.87482 0.70974 0.0
C170 C 0.99235 0.91011 0.72884 0.0
C171 C 0.03229 0.83948 0.71562 0.0
H172 H 0.06503 0.87724 0.77875 0.0
H173 H 0.9691 0.93839 0.72386 0.0
O174 O 1.00573 0.05866 0.81562 0.0
O175 O 1.00281 0.95112 0.81672 0.0
O176 O 0.95656 1.0039 0.76798 0.0
O177 O 0.06323 0.0077 0.77471 0.0
H178 H 0.01793 0.04765 0.86894 0.0
H179 H 0.93875 0.12025 0.80743 0.0
H180 H 0.97193 0.0878 0.90488 0.0
H181 H 0.89435 0.15932 0.84443 0.0
H182 H 0.02864 0.7999 0.83871 0.0
H183 H 0.91765 0.91957 0.80757 0.0
H184 H 0.05562 0.88133 0.83339 0.0
H185 H 0.89315 0.83748 0.81307 0.0
H186 H 0.87732 0.97762 0.89534 0.0
H187 H 0.80054 0.05608 0.83485 0.0
H188 H 0.20857 0.03261 0.84903 0.0
H189 H 0.12382 0.93892 0.89702 0.0
H190 H 0.90044 0.93191 0.76066 0.0
H191 H 0.91176 0.08059 0.75356 0.0
H192 H 0.81946 0.93702 0.74335 0.0
H193 H 0.83094 0.08295 0.73582 0.0
H194 H 0.06127 0.00787 0.72045 0.0
H195 H 0.13175 0.95297 0.79129 0.0
H196 H 0.11437 0.96229 0.69079 0.0
H197 H 0.18391 0.90871 0.76039 0.0
H198 H 1.00484 0.21865 0.75503 0.0
H199 H 0.98846 0.12728 0.68543 0.0
H200 H 0.08021 0.81345 0.74642 0.0
H201 H 0.9822 0.87606 0.69021 0.0
C202 C 0.37466 0.05992 0.10544 0.0
C203 C 0.40043 0.01869 0.10741 0.0
C204 C 0.33686 0.06827 0.12316 0.0
C205 C 0.32478 0.0346 0.14315 0.0
C206 C 0.35188 0.99386 0.1458 0.0
C207 C 0.38926 0.98652 0.128 0.0
C208 C 0.30898 0.11232 0.11993 0.0
C209 C 0.34043 0.95704 0.16685 0.0
C210 C 0.24809 0.05617 0.20512 0.0
C211 C 0.20624 0.03523 0.19691 0.0
C212 C 0.28621 0.05899 0.18719 0.0
C213 C 0.28254 0.03997 0.16053 0.0
C214 C 0.23977 0.02047 0.15178 0.0
C215 C 0.20213 0.01846 0.17004 0.0
C216 C 0.33102 0.08046 0.19721 0.0
C217 C 0.2345 0.99937 0.12362 0.0
H218 H 0.38312 0.08493 0.0896 0.0
H219 H 0.40926 0.95477 0.12994 0.0
H220 H 0.27356 0.10376 0.11242 0.0
H221 H 0.30496 0.12987 0.14003 0.0
H222 H 0.32537 0.13692 0.10529 0.0
H223 H 0.36604 0.92815 0.16691 0.0
H224 H 0.33944 0.97253 0.18765 0.0
H225 H 0.30544 0.94239 0.16263 0.0
H226 H 0.25119 0.06996 0.22571 0.0
H227 H 0.16999 1.002 0.16362 0.0
H228 H 0.34482 0.10527 0.18183 0.0
H229 H 0.35757 0.05291 0.20006 0.0
H230 H 0.32646 0.09894 0.21701 0.0
H231 H 0.24688 0.02392 0.1077 0.0
H232 H 0.19787 0.98978 0.11901 0.0
H233 H 0.25626 0.96763 0.12219 0.0
C234 C 0.02343 0.41727 0.6414 0.0
C235 C 0.9976 0.42312 0.61721 0.0
C236 C 0.01784 0.37788 0.65791 0.0
C237 C 0.98504 0.34355 0.65035 0.0
C238 C 0.95671 0.35049 0.6269 0.0
C239 C 0.96348 0.39017 0.61048 0.0
C240 C 0.04894 0.37187 0.68266 0.0
C241 C 0.92074 0.31506 0.6185 0.0
C242 C 0.01583 0.2224 0.67513 0.0
C243 C 0.99028 0.21934 0.6995 0.0
C244 C 0.01301 0.26195 0.65837 0.0
C245 C 0.9834 0.2991 0.66599 0.0
C246 C 0.95602 0.29534 0.68999 0.0
C247 C 0.96012 0.25566 0.70661 0.0
C248 C 0.04331 0.26481 0.63317 0.0
C249 C 0.92345 0.33379 0.69853 0.0
H250 H 0.04961 0.4427 0.64696 0.0
H251 H 0.94331 0.39443 0.59186 0.0
H252 H 0.02777 0.36503 0.70121 0.0
H253 H 0.072 0.3414 0.6796 0.0
H254 H 0.07103 0.40287 0.68651 0.0
H255 H 0.89754 0.32828 0.60202 0.0
H256 H 0.93839 0.28329 0.61096 0.0
H257 H 0.89915 0.30482 0.63635 0.0
H258 H 0.03934 0.19448 0.66965 0.0
H259 H 0.93977 0.25305 0.72523 0.0
H260 H 0.06917 0.29313 0.63572 0.0
H261 H 0.02195 0.27332 0.6149 0.0
H262 H 0.06228 0.23189 0.6292 0.0
H263 H 0.94389 0.36473 0.70476 0.0
H264 H 0.90085 0.32337 0.71594 0.0
H265 H 0.90108 0.34433 0.68105 0.0
C266 C 0.63493 0.03305 0.11439 0.0
C267 C 0.60856 0.99449 0.10608 0.0
C268 C 0.67015 0.02892 0.13406 0.0
C269 C 0.67939 0.98509 0.14597 0.0
C270 C 0.65302 0.94584 0.13776 0.0
C271 C 0.61789 0.95097 0.11779 0.0
C272 C 0.69756 0.07165 0.14206 0.0
C273 C 0.66185 0.89861 0.15011 0.0
C274 C 0.79967 0.97844 0.17774 0.0
C275 C 0.79041 0.99004 0.20513 0.0
C276 C 0.76353 0.97393 0.15854 0.0
C277 C 0.71695 0.98115 0.16691 0.0
C278 C 0.70719 0.99056 0.1948 0.0
C279 C 0.74403 0.99493 0.21357 0.0
C280 C 0.77546 0.96376 0.12903 0.0
C281 C 0.65802 0.99855 0.20455 0.0
H282 H 0.62823 0.06685 0.10543 0.0
H283 H 0.59764 0.92105 0.1115 0.0
H284 H 0.69387 0.07822 0.16435 0.0
H285 H 0.73509 0.06609 0.13791 0.0
H286 H 0.68606 0.10317 0.13079 0.0
H287 H 0.63838 0.87158 0.14155 0.0
H288 H 0.69842 0.88805 0.14639 0.0
H289 H 0.65692 0.90006 0.17264 0.0
H290 H 0.83535 0.97355 0.1712 0.0
H291 H 0.73657 1.00405 0.23466 0.0
H292 H 0.76846 0.99499 0.11634 0.0
H293 H 0.75332 0.93528 0.121 0.0
H294 H 0.81257 0.95394 0.12643 0.0
H295 H 0.64496 0.03196 0.19621 0.0
H296 H 0.6557 0.99982 0.22726 0.0
H297 H 0.63467 0.97071 0.19692 0.0
C298 C 0.07684 0.62144 0.61669 0.0
C299 C 0.07722 0.63618 0.58926 0.0
C300 C 0.07441 0.65366 0.63825 0.0
C301 C 0.0728 0.70176 0.63226 0.0
C302 C 0.07655 0.7169 0.60473 0.0
C303 C 0.07856 0.68394 0.58357 0.0
C304 C 0.07052 0.63608 0.66732 0.0
C305 C 0.07563 0.76788 0.59748 0.0
C306 C 1.00667 0.78158 0.6804 0.0
C307 C 0.0428 0.80302 0.69499 0.0
C308 C 0.01605 0.74812 0.66025 0.0
C309 C 0.06275 0.73598 0.65437 0.0
C310 C 0.0994 0.75718 0.6692 0.0
C311 C 0.08899 0.79038 0.68939 0.0
C312 C 0.97591 0.72603 0.64508 0.0
C313 C 0.1496 0.74542 0.66339 0.0
H314 H 0.07579 0.58463 0.62134 0.0
H315 H 0.07919 0.69568 0.56246 0.0
H316 H 0.09529 0.65465 0.68088 0.0
H317 H 0.03497 0.64302 0.67515 0.0
H318 H 0.07731 0.59818 0.66882 0.0
H319 H 0.08404 0.77409 0.57557 0.0
H320 H 0.04051 0.78219 0.60166 0.0
H321 H 0.10074 0.78744 0.61034 0.0
H322 H 0.97093 0.79084 0.68487 0.0
H323 H 0.11709 0.80727 0.70038 0.0
H324 H 0.97733 0.6877 0.64735 0.0
H325 H 0.97853 0.73393 0.62288 0.0
H326 H 0.94161 0.73841 0.65259 0.0
H327 H 0.15527 0.70748 0.66554 0.0
H328 H 0.17396 0.76387 0.67733 0.0
H329 H 0.15825 0.75482 0.64194 0.0
C330 C 0.41526 0.9415 0.9496 0.0
C331 C 0.41229 0.94471 0.97823 0.0
C332 C 0.37518 0.9428 0.93315 0.0
C333 C 0.33101 0.94792 0.9456 0.0
C334 C 0.32754 0.94823 0.97456 0.0
C335 C 0.36823 0.94632 0.99055 0.0
C336 C 0.38039 0.94149 0.90237 0.0
C337 C 0.28114 0.95373 0.98864 0.0
C338 C 0.23976 0.01169 0.90348 0.0
C339 C 0.21188 0.97511 0.89399 0.0
C340 C 0.27811 1.00328 0.92063 0.0
C341 C 0.2892 0.9571 0.9283 0.0
C342 C 0.2611 0.92001 0.91888 0.0
C343 C 0.22268 0.92947 0.90192 0.0
C344 C 0.30695 0.04388 0.93044 0.0
C345 C 0.27205 0.8703 0.92634 0.0
H346 H 0.44917 0.93996 0.93993 0.0
H347 H 0.36557 0.94903 0.01265 0.0
H348 H 0.35578 0.91609 0.8933 0.0
H349 H 0.37185 0.9761 0.89371 0.0
H350 H 0.4163 0.93217 0.89602 0.0
H351 H 0.28374 0.94847 1.01115 0.0
H352 H 0.26746 0.98917 0.98476 0.0
H353 H 0.25546 0.92874 0.98023 0.0
H354 H 0.23127 0.04704 0.89768 0.0
H355 H 0.20158 0.90099 0.89439 0.0
H356 H 0.34318 0.04038 0.92292 0.0
H357 H 0.30837 0.04414 0.95316 0.0
H358 H 0.29288 0.07774 0.92331 0.0
H359 H 0.30689 0.86079 0.91836 0.0
H360 H 0.24603 0.84554 0.91796 0.0
H361 H 0.27329 0.86631 0.94894 0.0
C362 C 0.07534 0.3361 0.5103 0.0
C363 C 0.07366 0.3837 0.50421 0.0
C364 C 0.07244 0.30259 0.48945 0.0
C365 C 0.0673 0.31702 0.46187 0.0
C366 C 0.06828 0.36498 0.45544 0.0
C367 C 0.07174 0.39774 0.47667 0.0
C368 C 0.07234 0.25178 0.49712 0.0
C369 C 0.06278 0.38183 0.42631 0.0
C370 C 0.08272 0.22881 0.40449 0.0
C371 C 0.03654 0.21564 0.39926 0.0
C372 C 0.09339 0.26172 0.42481 0.0
C373 C 0.05696 0.28221 0.4401 0.0
C374 C 0.01024 0.26929 0.43473 0.0
C375 C 1.00064 0.236 0.41449 0.0
C376 C 0.14361 0.27418 0.43014 0.0
C377 C 0.97033 0.29067 0.45038 0.0
H378 H 0.07711 0.32491 0.53149 0.0
H379 H 0.07036 0.43442 0.47171 0.0
H380 H 0.03721 0.23698 0.4935 0.0
H381 H 0.09712 0.23221 0.4841 0.0
H382 H 0.0817 0.24618 0.51897 0.0
H383 H 0.06851 0.41986 0.42443 0.0
H384 H 0.08752 0.36363 0.41259 0.0
H385 H 0.02714 0.37373 0.41894 0.0
H386 H 0.11064 0.21268 0.39301 0.0
H387 H 0.96489 0.22622 0.41034 0.0
H388 H 0.15285 0.26581 0.45166 0.0
H389 H 0.14887 0.31207 0.42738 0.0
H390 H 0.16783 0.25539 0.41631 0.0
H391 H 0.97412 0.28314 0.47257 0.0
H392 H 0.93599 0.27744 0.4434 0.0
H393 H 0.97085 0.32898 0.44792 0.0
C394 C 0.62173 0.05201 0.97546 0.0
C395 C 0.61715 0.00863 0.98828 0.0
C396 C 0.65624 0.05951 0.95543 0.0
C397 C 0.68645 0.02267 0.94804 0.0
C398 C 0.68201 0.97902 0.96107 0.0
C399 C 0.64768 0.97265 0.981 0.0
C400 C 0.66029 0.10663 0.9421 0.0
C401 C 0.71333 0.93869 0.95378 0.0
C402 C 0.749 0.01494 0.87979 0.0
C403 C 0.7951 0.02382 0.88759 0.0
C404 C 0.71269 0.01705 0.89898 0.0
C405 C 0.72272 0.02877 0.92656 0.0
C406 C 0.76887 0.04024 0.93417 0.0
C407 C 0.80456 0.03732 0.91464 0.0
C408 C 0.66408 1.00404 0.89008 0.0
C409 C 0.78096 0.0534 0.96327 0.0
H410 H 0.59833 0.07998 0.98099 0.0
H411 H 0.64459 0.93895 0.99074 0.0
H412 H 0.696 0.1205 0.94494 0.0
H413 H 0.65427 0.10352 0.91972 0.0
H414 H 0.63503 0.13197 0.95061 0.0
H415 H 0.70514 0.90691 0.96576 0.0
H416 H 0.70988 0.93045 0.93166 0.0
H417 H 0.7502 0.94811 0.95757 0.0
H418 H 0.74158 1.00439 0.85891 0.0
H419 H 0.84008 0.04505 0.9206 0.0
H420 H 0.63865 0.03031 0.89724 0.0
H421 H 0.65428 0.97033 0.8995 0.0
H422 H 0.66109 1.00074 0.86747 0.0
H423 H 0.75639 0.07999 0.97105 0.0
H424 H 0.81698 0.06708 0.96506 0.0
H425 H 0.77776 0.02244 0.97669 0.0
C426 C 0.96144 0.62861 0.48093 0.0
C427 C 1.00067 0.60054 0.47669 0.0
C428 C 0.9531 0.66776 0.46429 0.0
C429 C 0.98507 0.67928 0.44325 0.0
C430 C 0.02368 0.65005 0.4383 0.0
C431 C 0.03073 0.61097 0.45488 0.0
C432 C 0.91101 0.69761 0.46979 0.0
C433 C 0.05887 0.66115 0.41625 0.0
C434 C 0.96083 0.76277 0.38465 0.0
C435 C 0.98388 0.80293 0.39362 0.0
C436 C 0.95839 0.72302 0.40131 0.0
C437 C 0.98035 0.72319 0.42731 0.0
C438 C 1.00245 0.76418 0.43677 0.0
C439 C 1.00363 0.80365 0.41988 0.0
C440 C 0.93374 0.68035 0.39071 0.0
C441 C 0.02695 0.76563 0.46415 0.0
H442 H 0.93797 0.62076 0.49767 0.0
H443 H 0.06102 0.58943 0.45125 0.0
H444 H 0.92227 0.73166 0.47811 0.0
H445 H 0.89186 0.70451 0.45045 0.0
H446 H 0.88687 0.68122 0.4847 0.0
H447 H 0.08621 0.63405 0.41448 0.0
H448 H 0.04131 0.66474 0.39611 0.0
H449 H 0.07596 0.69484 0.42084 0.0
H450 H 0.94494 0.76238 0.36449 0.0
H451 H 0.02166 0.83459 0.42681 0.0
H452 H 0.90972 0.66641 0.40648 0.0
H453 H 0.9596 0.65283 0.38617 0.0
H454 H 0.91362 0.68761 0.37173 0.0
H455 H 1.0033 0.75365 0.48065 0.0
H456 H 0.0396 0.80102 0.46933 0.0
H457 H 0.05718 0.74166 0.46383 0.0
loop_
_geom_bond_atom_site_label_1
_geom_bond_atom_site_label_2
_geom_bond_distance
_geom_bond_site_symmetry_2
_ccdc_geom_bond_type
Mg0 O7 2.141 . S
Mg0 O8 2.048 . S
Mg0 O9 2.048 . S
Mg0 O12 2.141 . S
C1 O2 1.313 . S
C1 O8 1.195 1_566 S
O2 C1 1.313 . S
C3 O4 1.245 . S
C3 O12 1.289 1_565 S
O4 C3 1.245 . S
C5 O6 1.245 . S
C5 O7 1.289 1_565 S
O6 C5 1.245 . S
O7 Mg0 2.141 . S
O7 C5 1.289 1_545 S
O8 Mg0 2.048 . S
O8 C1 1.195 1_544 S
O9 Mg0 2.048 . S
O9 C10 1.195 1_544 S
C10 O9 1.195 1_566 S
C10 O11 1.313 . S
O11 C10 1.313 . S
O12 Mg0 2.141 . S
O12 C3 1.289 1_545 S
Mg13 O20 2.141 . S
Mg13 O21 2.048 . S
Mg13 O22 2.048 . S
Mg13 O25 2.141 . S
C14 O15 1.313 . S
C14 O21 1.195 1_455 S
O15 C14 1.313 . S
C16 O17 1.245 . S
C16 O25 1.289 1_455 S
O17 C16 1.245 . S
C18 O19 1.245 . S
C18 O20 1.289 1_455 S
O19 C18 1.245 . S
O20 Mg13 2.141 . S
O20 C18 1.289 1_655 S
O21 Mg13 2.048 . S
O21 C14 1.195 1_655 S
O22 Mg13 2.048 . S
O22 C23 1.195 1_655 S
C23 O22 1.195 1_455 S
C23 O24 1.313 . S
O24 C23 1.313 . S
O25 Mg13 2.141 . S
O25 C16 1.289 1_655 S
Li26 N43 1.990 . S
Li26 O86 1.956 1_545 S
Li26 O87 1.970 1_455 S
Li26 O88 1.961 1_455 S
Li27 N51 1.990 . S
Li27 O86 1.970 1_655 S
Li27 O87 1.956 1_565 S
Li27 O89 1.961 1_655 S
Li28 N73 1.990 . S
Li28 O86 1.961 1_545 S
Li28 O88 1.956 1_455 S
Li28 O89 1.970 1_545 S
Li29 N79 1.990 . S
Li29 O87 1.961 1_565 S
Li29 O88 1.970 1_565 S
Li29 O89 1.956 1_655 S
C30 C32 1.348 1_545 S
C30 C33 1.356 . S
C30 O86 1.325 1_545 S
N31 C34 1.314 1_545 S
N31 C35 1.279 . S
C32 C30 1.348 1_565 S
C32 C34 1.353 . S
C32 H90 0.929 . S
C33 C30 1.356 . S
C33 C35 1.358 . S
C33 H91 0.930 . S
C34 N31 1.314 1_565 S
C34 C32 1.353 . S
C34 H92 0.930 . S
C35 N31 1.279 . S
C35 C33 1.358 . S
C35 H93 0.930 . S
C36 C39 1.348 . S
C36 C40 1.356 1_545 S
C36 O87 1.325 . S
C37 N38 1.279 . S
C37 C40 1.358 . S
C37 H94 0.930 . S
N38 C37 1.279 . S
N38 C41 1.314 1_565 S
C39 C36 1.348 . S
C39 C41 1.353 . S
C39 H95 0.929 . S
C40 C36 1.356 1_565 S
C40 C37 1.358 . S
C40 H96 0.930 . S
C41 N38 1.314 1_545 S
C41 C39 1.353 . S
C41 H97 0.930 . S
C42 N43 1.314 1_655 S
C42 C47 1.353 . S
C42 H48 0.930 . S
N43 Li26 1.990 . S
N43 C42 1.314 1_455 S
N43 C45 1.279 . S
C44 C45 1.358 . S
C44 C46 1.356 . S
C44 H98 0.930 . S
C45 N43 1.279 . S
C45 C44 1.358 . S
C45 H49 0.930 . S
C46 C44 1.356 . S
C46 C47 1.348 1_455 S
C47 C42 1.353 . S
C47 C46 1.348 1_655 S
C47 H99 0.929 . S
H48 C42 0.930 . S
H49 C45 0.930 . S
C50 N51 1.314 1_455 S
C50 C52 1.353 . S
C50 H56 0.930 . S
N51 Li27 1.990 . S
N51 C50 1.314 1_655 S
N51 C54 1.279 . S
C52 C50 1.353 . S
C52 C55 1.348 . S
C52 H100 0.929 . S
C53 C54 1.358 . S
C53 C55 1.356 1_655 S
C53 H101 0.930 . S
C54 N51 1.279 . S
C54 C53 1.358 . S
C54 H57 0.930 . S
C55 C52 1.348 . S
C55 C53 1.356 1_455 S
H56 C50 0.930 . S
H57 C54 0.930 . S
C58 C60 1.348 1_455 S
C58 C61 1.356 . S
C58 O88 1.325 1_455 S
N59 C62 1.314 1_455 S
N59 C63 1.279 . S
C60 C58 1.348 1_655 S
C60 C62 1.353 . S
C60 H102 0.929 . S
C61 C58 1.356 . S
C61 C63 1.358 . S
C61 H103 0.930 . S
C62 N59 1.314 1_655 S
C62 C60 1.353 . S
C62 H104 0.930 . S
C63 N59 1.279 . S
C63 C61 1.358 . S
C63 H105 0.930 . S
C64 C65 1.348 . S
C64 C66 1.356 1_455 S
C64 O89 1.325 . S
C65 C64 1.348 . S
C65 C67 1.353 . S
C65 H106 0.929 . S
C66 C64 1.356 1_655 S
C66 C68 1.358 . S
C66 H107 0.930 . S
C67 C65 1.353 . S
C67 N69 1.314 1_455 S
C67 H108 0.930 . S
C68 C66 1.358 . S
C68 N69 1.279 . S
C68 H109 0.930 . S
N69 C67 1.314 1_655 S
N69 C68 1.279 . S
C70 C72 1.353 . S
C70 N73 1.314 1_565 S
C70 H76 0.930 . S
C71 N73 1.279 . S
C71 C74 1.358 . S
C71 H77 0.930 . S
C72 C70 1.353 . S
C72 C75 1.348 1_565 S
C72 H110 0.929 . S
N73 Li28 1.990 . S
N73 C70 1.314 1_545 S
N73 C71 1.279 . S
C74 C71 1.358 . S
C74 C75 1.356 . S
C74 H111 0.930 . S
C75 C72 1.348 1_545 S
C75 C74 1.356 . S
H76 C70 0.930 . S
H77 C71 0.930 . S
C78 N79 1.314 1_545 S
C78 C80 1.353 . S
C78 H84 0.930 . S
N79 Li29 1.990 . S
N79 C78 1.314 1_565 S
N79 C82 1.279 . S
C80 C78 1.353 . S
C80 C83 1.348 . S
C80 H112 0.929 . S
C81 C82 1.358 . S
C81 C83 1.356 1_565 S
C81 H113 0.930 . S
C82 N79 1.279 . S
C82 C81 1.358 . S
C82 H85 0.930 . S
C83 C80 1.348 . S
C83 C81 1.356 1_545 S
H84 C78 0.930 . S
H85 C82 0.930 . S
O86 Li26 1.956 1_565 S
O86 Li27 1.970 1_455 S
O86 Li28 1.961 1_565 S
O86 C30 1.325 1_565 S
O87 Li26 1.970 1_655 S
O87 Li27 1.956 1_545 S
O87 Li29 1.961 1_545 S
O87 C36 1.325 . S
O88 Li26 1.961 1_655 S
O88 Li28 1.956 1_655 S
O88 Li29 1.970 1_545 S
O88 C58 1.325 1_655 S
O89 Li27 1.961 1_455 S
O89 Li28 1.970 1_565 S
O89 Li29 1.956 1_455 S
O89 C64 1.325 . S
H90 C32 0.929 . S
H91 C33 0.930 . S
H92 C34 0.930 . S
H93 C35 0.930 . S
H94 C37 0.930 . S
H95 C39 0.929 . S
H96 C40 0.930 . S
H97 C41 0.930 . S
H98 C44 0.930 . S
H99 C47 0.929 . S
H100 C52 0.929 . S
H101 C53 0.930 . S
H102 C60 0.929 . S
H103 C61 0.930 . S
H104 C62 0.930 . S
H105 C63 0.930 . S
H106 C65 0.929 . S
H107 C66 0.930 . S
H108 C67 0.930 . S
H109 C68 0.930 . S
H110 C72 0.929 . S
H111 C74 0.930 . S
H112 C80 0.929 . S
H113 C81 0.930 . S
Li114 N131 1.990 . S
Li114 O174 1.956 1_655 S
Li114 O175 1.970 1_545 S
Li114 O176 1.961 1_545 S
Li115 N139 1.990 . S
Li115 O174 1.970 1_565 S
Li115 O175 1.956 1_455 S
Li115 O177 1.961 1_565 S
Li116 N161 1.990 . S
Li116 O174 1.961 1_655 S
Li116 O176 1.956 1_545 S
Li116 O177 1.970 1_655 S
Li117 N167 1.990 . S
Li117 O175 1.961 1_455 S
Li117 O176 1.970 1_455 S
Li117 O177 1.956 1_565 S
C118 C120 1.348 . S
C118 C121 1.355 1_455 S
C118 O174 1.325 . S
N119 C122 1.314 1_655 S
N119 C123 1.279 . S
C120 C118 1.348 . S
C120 C122 1.353 . S
C120 H178 0.929 . S
C121 C118 1.355 1_655 S
C121 C123 1.358 . S
C121 H179 0.930 . S
C122 N119 1.314 1_455 S
C122 C120 1.353 . S
C122 H180 0.930 . S
C123 N119 1.279 . S
C123 C121 1.358 . S
C123 H181 0.930 . S
C124 C127 1.348 1_455 S
C124 C128 1.355 . S
C124 O175 1.325 1_455 S
C125 N126 1.279 . S
C125 C128 1.358 . S
C125 H182 0.930 . S
N126 C125 1.279 . S
N126 C129 1.314 1_455 S
C127 C124 1.348 1_655 S
C127 C129 1.353 . S
C127 H183 0.929 . S
C128 C124 1.355 . S
C128 C125 1.358 . S
C128 H184 0.930 . S
C129 N126 1.314 1_655 S
C129 C127 1.353 . S
C129 H185 0.930 . S
C130 N131 1.314 1_565 S
C130 C135 1.353 . S
C130 H136 0.930 . S
N131 Li114 1.990 . S
N131 C130 1.314 1_545 S
N131 C133 1.279 . S
C132 C133 1.358 . S
C132 C134 1.355 . S
C132 H186 0.930 . S
C133 N131 1.279 . S
C133 C132 1.358 . S
C133 H137 0.930 . S
C134 C132 1.355 . S
C134 C135 1.348 1_545 S
C135 C130 1.353 . S
C135 C134 1.348 1_565 S
C135 H187 0.929 . S
H136 C130 0.930 . S
H137 C133 0.930 . S
C138 N139 1.314 1_545 S
C138 C140 1.353 . S
C138 H144 0.930 . S
N139 Li115 1.990 . S
N139 C138 1.314 1_565 S
N139 C142 1.279 . S
C140 C138 1.353 . S
C140 C143 1.348 . S
C140 H188 0.929 . S
C141 C142 1.358 . S
C141 C143 1.355 1_565 S
C141 H189 0.930 . S
C142 N139 1.279 . S
C142 C141 1.358 . S
C142 H145 0.930 . S
C143 C140 1.348 . S
C143 C141 1.355 1_545 S
H144 C138 0.930 . S
H145 C142 0.930 . S
C146 C148 1.348 1_545 S
C146 C149 1.355 . S
C146 O176 1.325 1_545 S
N147 C150 1.314 1_545 S
N147 C151 1.279 . S
C148 C146 1.348 1_565 S
C148 C150 1.353 . S
C148 H190 0.929 . S
C149 C146 1.355 . S
C149 C151 1.358 . S
C149 H191 0.930 . S
C150 N147 1.314 1_565 S
C150 C148 1.353 . S
C150 H192 0.930 . S
C151 N147 1.279 . S
C151 C149 1.358 . S
C151 H193 0.930 . S
C152 C153 1.348 . S
C152 C154 1.355 1_545 S
C152 O177 1.325 . S
C153 C152 1.348 . S
C153 C155 1.353 . S
C153 H194 0.929 . S
C154 C152 1.355 1_565 S
C154 C156 1.358 . S
C154 H195 0.930 . S
C155 C153 1.353 . S
C155 N157 1.314 1_545 S
C155 H196 0.930 . S
C156 C154 1.358 . S
C156 N157 1.279 . S
C156 H197 0.930 . S
N157 C155 1.314 1_565 S
N157 C156 1.279 . S
C158 C160 1.353 . S
C158 N161 1.314 1_455 S
C158 H164 0.930 . S
C159 N161 1.279 . S
C159 C162 1.358 . S
C159 H165 0.930 . S
C160 C158 1.353 . S
C160 C163 1.348 . S
C160 H198 0.929 . S
N161 Li116 1.990 . S
N161 C158 1.314 1_655 S
N161 C159 1.279 . S
C162 C159 1.358 . S
C162 C163 1.355 1_655 S
C162 H199 0.930 . S
C163 C160 1.348 . S
C163 C162 1.355 1_455 S
H164 C158 0.930 . S
H165 C159 0.930 . S
C166 N167 1.314 1_655 S
C166 C168 1.353 . S
C166 H172 0.930 . S
N167 Li117 1.990 . S
N167 C166 1.314 1_455 S
N167 C170 1.279 . S
C168 C166 1.353 . S
C168 C171 1.348 1_655 S
C168 H200 0.929 . S
C169 C170 1.358 . S
C169 C171 1.355 . S
C169 H201 0.930 . S
C170 N167 1.279 . S
C170 C169 1.358 . S
C170 H173 0.930 . S
C171 C168 1.348 1_455 S
C171 C169 1.355 . S
H172 C166 0.930 . S
H173 C170 0.930 . S
O174 Li114 1.956 1_455 S
O174 Li115 1.970 1_545 S
O174 Li116 1.961 1_455 S
O174 C118 1.325 . S
O175 Li114 1.970 1_565 S
O175 Li115 1.956 1_655 S
O175 Li117 1.961 1_655 S
O175 C124 1.325 1_655 S
O176 Li114 1.961 1_565 S
O176 Li116 1.956 1_565 S
O176 Li117 1.970 1_655 S
O176 C146 1.325 1_565 S
O177 Li115 1.961 1_545 S
O177 Li116 1.970 1_455 S
O177 Li117 1.956 1_545 S
O177 C152 1.325 . S
H178 C120 0.929 . S
H179 C121 0.930 . S
H180 C122 0.930 . S
H181 C123 0.930 . S
H182 C125 0.930 . S
H183 C127 0.929 . S
H184 C128 0.930 . S
H185 C129 0.930 . S
H186 C132 0.930 . S
H187 C135 0.929 . S
H188 C140 0.929 . S
H189 C141 0.930 . S
H190 C148 0.929 . S
H191 C149 0.930 . S
H192 C150 0.930 . S
H193 C151 0.930 . S
H194 C153 0.929 . S
H195 C154 0.930 . S
H196 C155 0.930 . S
H197 C156 0.930 . S
H198 C160 0.929 . S
H199 C162 0.930 . S
H200 C168 0.929 . S
H201 C169 0.930 . S
C202 C203 1.391 . S
C202 C204 1.394 . S
C202 H218 0.931 . S
C203 C202 1.391 . S
C203 C207 1.376 1_545 S
C204 C202 1.394 . S
C204 C205 1.369 . S
C204 C208 1.531 . S
C205 C204 1.369 . S
C205 C206 1.410 1_545 S
C205 C213 1.503 . S
C206 C205 1.410 1_565 S
C206 C207 1.392 . S
C206 C209 1.511 . S
C207 C203 1.376 1_565 S
C207 C206 1.392 . S
C207 H219 0.929 . S
C208 C204 1.531 . S
C208 H220 0.960 . S
C208 H221 0.962 . S
C208 H222 0.960 . S
C209 C206 1.511 . S
C209 H223 0.961 . S
C209 H224 0.961 . S
C209 H225 0.961 . S
C210 C211 1.373 . S
C210 C212 1.363 . S
C210 H226 0.931 . S
C211 C210 1.373 . S
C211 C215 1.405 1_565 S
C212 C210 1.363 . S
C212 C213 1.370 1_565 S
C212 C216 1.524 . S
C213 C205 1.503 . S
C213 C212 1.370 1_545 S
C213 C214 1.403 . S
C214 C213 1.403 . S
C214 C215 1.404 . S
C214 C217 1.539 . S
C215 C211 1.405 1_545 S
C215 C214 1.404 . S
C215 H227 0.930 . S
C216 C212 1.524 . S
C216 H228 0.956 . S
C216 H229 0.961 . S
C216 H230 0.961 . S
C217 C214 1.539 . S
C217 H231 0.958 . S
C217 H232 0.961 . S
C217 H233 0.960 . S
H218 C202 0.931 . S
H219 C207 0.929 . S
H220 C208 0.960 . S
H221 C208 0.962 . S
H222 C208 0.960 . S
H223 C209 0.961 . S
H224 C209 0.961 . S
H225 C209 0.961 . S
H226 C210 0.931 . S
H227 C215 0.930 . S
H228 C216 0.956 . S
H229 C216 0.961 . S
H230 C216 0.961 . S
H231 C217 0.958 . S
H232 C217 0.961 . S
H233 C217 0.960 . S
C234 C235 1.391 1_455 S
C234 C236 1.394 . S
C234 H250 0.931 . S
C235 C234 1.391 1_655 S
C235 C239 1.376 . S
C236 C234 1.394 . S
C236 C237 1.369 1_455 S
C236 C240 1.531 . S
C237 C236 1.369 1_655 S
C237 C238 1.410 . S
C237 C245 1.503 . S
C238 C237 1.410 . S
C238 C239 1.392 . S
C238 C241 1.511 . S
C239 C235 1.376 . S
C239 C238 1.392 . S
C239 H251 0.929 . S
C240 C236 1.531 . S
C240 H252 0.960 . S
C240 H253 0.962 . S
C240 H254 0.960 . S
C241 C238 1.511 . S
C241 H255 0.961 . S
C241 H256 0.961 . S
C241 H257 0.961 . S
C242 C243 1.370 1_455 S
C242 C244 1.363 . S
C242 H258 0.931 . S
C243 C242 1.370 1_655 S
C243 C247 1.408 . S
C244 C242 1.363 . S
C244 C245 1.370 1_455 S
C244 C248 1.524 . S
C245 C237 1.503 . S
C245 C244 1.370 1_655 S
C245 C246 1.403 . S
C246 C245 1.403 . S
C246 C247 1.404 . S
C246 C249 1.539 . S
C247 C243 1.408 . S
C247 C246 1.404 . S
C247 H259 0.930 . S
C248 C244 1.524 . S
C248 H260 0.956 . S
C248 H261 0.961 . S
C248 H262 0.961 . S
C249 C246 1.539 . S
C249 H263 0.958 . S
C249 H264 0.961 . S
C249 H265 0.960 . S
H250 C234 0.931 . S
H251 C239 0.929 . S
H252 C240 0.960 . S
H253 C240 0.962 . S
H254 C240 0.960 . S
H255 C241 0.961 . S
H256 C241 0.961 . S
H257 C241 0.961 . S
H258 C242 0.931 . S
H259 C247 0.930 . S
H260 C248 0.956 . S
H261 C248 0.961 . S
H262 C248 0.961 . S
H263 C249 0.958 . S
H264 C249 0.961 . S
H265 C249 0.960 . S
C266 C267 1.391 1_565 S
C266 C268 1.394 . S
C266 H282 0.931 . S
C267 C266 1.391 1_545 S
C267 C271 1.376 . S
C268 C266 1.394 . S
C268 C269 1.369 1_565 S
C268 C272 1.531 . S
C269 C268 1.369 1_545 S
C269 C270 1.410 . S
C269 C277 1.503 . S
C270 C269 1.410 . S
C270 C271 1.392 . S
C270 C273 1.511 . S
C271 C267 1.376 . S
C271 C270 1.392 . S
C271 H283 0.929 . S
C272 C268 1.531 . S
C272 H284 0.960 1_565 S
C272 H285 0.962 . S
C272 H286 0.960 . S
C273 C270 1.511 . S
C273 H287 0.961 . S
C273 H288 0.961 . S
C273 H289 0.961 . S
C274 C275 1.370 1_565 S
C274 C276 1.363 . S
C274 H290 0.931 . S
C275 C274 1.370 1_545 S
C275 C279 1.408 . S
C276 C274 1.363 . S
C276 C277 1.370 1_565 S
C276 C280 1.524 . S
C277 C269 1.503 . S
C277 C276 1.370 1_545 S
C277 C278 1.403 . S
C278 C277 1.403 . S
C278 C279 1.404 . S
C278 C281 1.539 . S
C279 C275 1.408 . S
C279 C278 1.404 . S
C279 H291 0.930 . S
C280 C276 1.524 . S
C280 H292 0.956 . S
C280 H293 0.961 . S
C280 H294 0.961 . S
C281 C278 1.539 . S
C281 H295 0.958 . S
C281 H296 0.961 . S
C281 H297 0.960 . S
H282 C266 0.931 . S
H283 C271 0.929 . S
H284 C272 0.960 1_545 S
H285 C272 0.962 . S
H286 C272 0.960 . S
H287 C273 0.961 . S
H288 C273 0.961 . S
H289 C273 0.961 . S
H290 C274 0.931 . S
H291 C279 0.930 . S
H292 C280 0.956 . S
H293 C280 0.961 . S
H294 C280 0.961 . S
H295 C281 0.958 . S
H296 C281 0.961 . S
H297 C281 0.960 . S
C298 C299 1.391 1_655 S
C298 C300 1.394 . S
C298 H314 0.931 . S
C299 C298 1.391 1_455 S
C299 C303 1.376 . S
C300 C298 1.394 . S
C300 C301 1.369 1_655 S
C300 C304 1.531 . S
C301 C300 1.369 1_455 S
C301 C302 1.410 . S
C301 C309 1.503 . S
C302 C301 1.410 . S
C302 C303 1.392 . S
C302 C305 1.511 . S
C303 C299 1.376 . S
C303 C302 1.392 . S
C303 H315 0.929 . S
C304 C300 1.531 . S
C304 H316 0.960 . S
C304 H317 0.962 . S
C304 H318 0.960 . S
C305 C302 1.511 . S
C305 H319 0.961 . S
C305 H320 0.961 . S
C305 H321 0.961 . S
C306 C307 1.370 1_655 S
C306 C308 1.363 . S
C306 H322 0.931 . S
C307 C306 1.370 1_455 S
C307 C311 1.409 . S
C308 C306 1.363 . S
C308 C309 1.370 1_655 S
C308 C312 1.524 . S
C309 C301 1.503 . S
C309 C308 1.370 1_455 S
C309 C310 1.403 . S
C310 C309 1.403 . S
C310 C311 1.404 . S
C310 C313 1.539 . S
C311 C307 1.409 . S
C311 C310 1.404 . S
C311 H323 0.930 . S
C312 C308 1.524 . S
C312 H324 0.956 . S
C312 H325 0.961 . S
C312 H326 0.961 . S
C313 C310 1.539 . S
C313 H327 0.958 . S
C313 H328 0.961 . S
C313 H329 0.960 . S
H314 C298 0.931 . S
H315 C303 0.929 . S
H316 C304 0.960 . S
H317 C304 0.962 . S
H318 C304 0.960 . S
H319 C305 0.961 . S
H320 C305 0.961 . S
H321 C305 0.961 . S
H322 C306 0.931 . S
H323 C311 0.930 . S
H324 C312 0.956 . S
H325 C312 0.961 . S
H326 C312 0.961 . S
H327 C313 0.958 . S
H328 C313 0.961 . S
H329 C313 0.960 . S
C330 C331 1.391 . S
C330 C332 1.394 . S
C330 H346 0.931 . S
C331 C330 1.391 . S
C331 C335 1.376 1_565 S
C332 C330 1.394 . S
C332 C333 1.369 . S
C332 C336 1.531 . S
C333 C332 1.369 . S
C333 C334 1.410 1_565 S
C333 C341 1.503 . S
C334 C333 1.410 1_545 S
C334 C335 1.392 . S
C334 C337 1.511 . S
C335 C331 1.376 1_545 S
C335 C334 1.392 . S
C335 H347 0.929 . S
C336 C332 1.531 . S
C336 H348 0.960 . S
C336 H349 0.962 . S
C336 H350 0.960 . S
C337 C334 1.511 . S
C337 H351 0.961 . S
C337 H352 0.961 . S
C337 H353 0.961 1_545 S
C338 C339 1.363 1_545 S
C338 C340 1.363 . S
C338 H354 0.931 . S
C339 C338 1.363 1_565 S
C339 C343 1.416 . S
C340 C338 1.363 . S
C340 C341 1.370 1_545 S
C340 C344 1.524 . S
C341 C333 1.503 . S
C341 C340 1.370 1_565 S
C341 C342 1.403 . S
C342 C341 1.403 . S
C342 C343 1.404 . S
C342 C345 1.539 . S
C343 C339 1.416 . S
C343 C342 1.404 . S
C343 H355 0.930 . S
C344 C340 1.524 . S
C344 H356 0.956 . S
C344 H357 0.961 . S
C344 H358 0.961 . S
C345 C342 1.539 . S
C345 H359 0.958 . S
C345 H360 0.961 . S
C345 H361 0.960 . S
H346 C330 0.931 . S
H347 C335 0.929 . S
H348 C336 0.960 . S
H349 C336 0.962 . S
H350 C336 0.960 . S
H351 C337 0.961 . S
H352 C337 0.961 . S
H353 C337 0.961 1_565 S
H354 C338 0.931 . S
H355 C343 0.930 . S
H356 C344 0.956 . S
H357 C344 0.961 . S
H358 C344 0.961 . S
H359 C345 0.958 . S
H360 C345 0.961 . S
H361 C345 0.960 . S
C362 C363 1.391 1_455 S
C362 C364 1.394 . S
C362 H378 0.931 . S
C363 C362 1.391 1_655 S
C363 C367 1.376 . S
C364 C362 1.394 . S
C364 C365 1.369 1_455 S
C364 C368 1.531 . S
C365 C364 1.369 1_655 S
C365 C366 1.410 . S
C365 C373 1.503 . S
C366 C365 1.410 . S
C366 C367 1.392 . S
C366 C369 1.511 . S
C367 C363 1.376 . S
C367 C366 1.392 . S
C367 H379 0.929 . S
C368 C364 1.531 . S
C368 H380 0.960 . S
C368 H381 0.962 . S
C368 H382 0.960 . S
C369 C366 1.511 . S
C369 H383 0.961 . S
C369 H384 0.961 . S
C369 H385 0.961 . S
C370 C371 1.370 1_455 S
C370 C372 1.363 . S
C370 H386 0.931 . S
C371 C370 1.370 1_655 S
C371 C375 1.408 . S
C372 C370 1.363 . S
C372 C373 1.370 1_455 S
C372 C376 1.524 . S
C373 C365 1.503 . S
C373 C372 1.370 1_655 S
C373 C374 1.403 . S
C374 C373 1.403 . S
C374 C375 1.404 . S
C374 C377 1.539 . S
C375 C371 1.408 . S
C375 C374 1.404 . S
C375 H387 0.930 . S
C376 C372 1.524 . S
C376 H388 0.956 . S
C376 H389 0.961 . S
C376 H390 0.961 . S
C377 C374 1.539 . S
C377 H391 0.958 . S
C377 H392 0.961 . S
C377 H393 0.960 . S
H378 C362 0.931 . S
H379 C367 0.929 . S
H380 C368 0.960 . S
H381 C368 0.962 . S
H382 C368 0.960 . S
H383 C369 0.961 . S
H384 C369 0.961 . S
H385 C369 0.961 . S
H386 C370 0.931 . S
H387 C375 0.930 . S
H388 C376 0.956 . S
H389 C376 0.961 . S
H390 C376 0.961 . S
H391 C377 0.958 . S
H392 C377 0.961 . S
H393 C377 0.960 . S
C394 C395 1.391 1_565 S
C394 C396 1.395 . S
C394 H410 0.931 . S
C395 C394 1.391 1_545 S
C395 C399 1.376 . S
C396 C394 1.395 . S
C396 C397 1.365 1_565 S
C396 C400 1.534 . S
C397 C396 1.365 1_545 S
C397 C398 1.410 . S
C397 C405 1.503 . S
C398 C397 1.410 . S
C398 C399 1.392 . S
C398 C401 1.511 . S
C399 C395 1.376 . S
C399 C398 1.392 . S
C399 H411 0.929 . S
C400 C396 1.534 . S
C400 H412 0.960 1_565 S
C400 H413 0.962 . S
C400 H414 0.965 . S
C401 C398 1.511 . S
C401 H415 0.961 . S
C401 H416 0.961 . S
C401 H417 0.961 . S
C402 C403 1.353 1_565 S
C402 C404 1.363 . S
C402 H418 0.931 . S
C403 C402 1.353 1_545 S
C403 C407 1.427 . S
C404 C402 1.363 . S
C404 C405 1.370 1_565 S
C404 C408 1.524 . S
C405 C397 1.503 . S
C405 C404 1.370 1_545 S
C405 C406 1.403 . S
C406 C405 1.403 . S
C406 C407 1.404 . S
C406 C409 1.539 . S
C407 C403 1.427 . S
C407 C406 1.404 . S
C407 H419 0.930 . S
C408 C404 1.524 . S
C408 H420 0.956 . S
C408 H421 0.961 . S
C408 H422 0.961 . S
C409 C406 1.539 . S
C409 H423 0.958 . S
C409 H424 0.961 . S
C409 H425 0.960 . S
H410 C394 0.931 . S
H411 C399 0.929 . S
H412 C400 0.960 1_545 S
H413 C400 0.962 . S
H414 C400 0.965 . S
H415 C401 0.961 . S
H416 C401 0.961 . S
H417 C401 0.961 . S
H418 C402 0.931 . S
H419 C407 0.930 . S
H420 C408 0.956 . S
H421 C408 0.961 . S
H422 C408 0.961 . S
H423 C409 0.958 . S
H424 C409 0.961 . S
H425 C409 0.960 . S
C426 C427 1.391 1_655 S
C426 C428 1.394 . S
C426 H442 0.931 . S
C427 C426 1.391 1_455 S
C427 C431 1.376 . S
C428 C426 1.394 . S
C428 C429 1.369 1_655 S
C428 C432 1.531 . S
C429 C428 1.369 1_455 S
C429 C430 1.410 . S
C429 C437 1.503 . S
C430 C429 1.410 . S
C430 C431 1.392 . S
C430 C433 1.511 . S
C431 C427 1.376 . S
C431 C430 1.392 . S
C431 H443 0.929 . S
C432 C428 1.531 . S
C432 H444 0.960 . S
C432 H445 0.962 . S
C432 H446 0.960 . S
C433 C430 1.511 . S
C433 H447 0.961 . S
C433 H448 0.961 . S
C433 H449 0.961 . S
C434 C435 1.370 1_655 S
C434 C436 1.363 . S
C434 H450 0.931 . S
C435 C434 1.370 1_455 S
C435 C439 1.408 . S
C436 C434 1.363 . S
C436 C437 1.370 1_655 S
C436 C440 1.524 . S
C437 C429 1.503 . S
C437 C436 1.370 1_455 S
C437 C438 1.403 . S
C438 C437 1.403 . S
C438 C439 1.404 . S
C438 C441 1.539 . S
C439 C435 1.408 . S
C439 C438 1.404 . S
C439 H451 0.930 . S
C440 C436 1.524 . S
C440 H452 0.956 . S
C440 H453 0.961 . S
C440 H454 0.961 . S
C441 C438 1.539 . S
C441 H455 0.958 . S
C441 H456 0.961 . S
C441 H457 0.960 . S
H442 C426 0.931 . S
H443 C431 0.929 . S
H444 C432 0.960 . S
H445 C432 0.962 . S
H446 C432 0.960 . S
H447 C433 0.961 . S
H448 C433 0.961 . S
H449 C433 0.961 . S
H450 C434 0.931 . S
H451 C439 0.930 . S
H452 C440 0.956 . S
H453 C440 0.961 . S
H454 C440 0.961 . S
H455 C441 0.958 . S
H456 C441 0.961 . S
H457 C441 0.960 . S
C211 C75 1.399 1_565 S
C203 C5 1.399 1_545 S
C243 C163 1.479 1_655 S
C235 C23 1.473 1_655 S
C275 C83 1.404 . S
C267 C3 1.411 1_545 S
C307 C171 1.479 . S
C299 C14 1.466 . S
C339 C143 1.474 1_565 S
C331 C1 1.459 . S
C371 C46 1.401 1_655 S
C363 C16 1.400 1_655 S
C403 C134 1.476 . S
C395 C10 1.482 1_545 S
C427 C18 1.389 . S
C435 C55 1.404 . S
