# Generated by pormake.
# Topology pyr, (3,6)-cn, num edge types: 1
# Building blocks:
#     Node 0, Type 0, BuildingBlock: WUSLED_clean_sbu_0, # of connection points: 3
#     Node 1, Type 0, BuildingBlock: WUSLED_clean_sbu_0, # of connection points: 3
#     Node 2, Type 0, BuildingBlock: WUSLED_clean_sbu_0, # of connection points: 3
#     Node 3, Type 0, BuildingBlock: WUSLED_clean_sbu_0, # of connection points: 3
#     Node 4, Type 0, BuildingBlock: WUSLED_clean_sbu_0, # of connection points: 3
#     Node 5, Type 0, BuildingBlock: WUSLED_clean_sbu_0, # of connection points: 3
#     Node 6, Type 0, BuildingBlock: WUSLED_clean_sbu_0, # of connection points: 3
#     Node 7, Type 0, BuildingBlock: WUSLED_clean_sbu_0, # of connection points: 3
#     Node 8, Type 1, BuildingBlock: JUFBIX_clean_sbu_0, # of connection points: 6
#     Node 9, Type 1, BuildingBlock: JUFBIX_clean_sbu_0, # of connection points: 6
#     Node 10, Type 1, BuildingBlock: JUFBIX_clean_sbu_0, # of connection points: 6
#     Node 11, Type 1, BuildingBlock: JUFBIX_clean_sbu_0, # of connection points: 6
#     Edge 12, Type (0, 1), BuildingBlock: MIFKUJ_clean_linker_0, # of connection points: 2
#     Edge 13, Type (0, 1), BuildingBlock: MIFKUJ_clean_linker_0, # of connection points: 2
#     Edge 14, Type (0, 1), BuildingBlock: MIFKUJ_clean_linker_0, # of connection points: 2
#     Edge 15, Type (0, 1), BuildingBlock: MIFKUJ_clean_linker_0, # of connection points: 2
#     Edge 16, Type (0, 1), BuildingBlock: MIFKUJ_clean_linker_0, # of connection points: 2
#     Edge 17, Type (0, 1), BuildingBlock: MIFKUJ_clean_linker_0, # of connection points: 2
#     Edge 18, Type (0, 1), BuildingBlock: MIFKUJ_clean_linker_0, # of connection points: 2
#     Edge 19, Type (0, 1), BuildingBlock: MIFKUJ_clean_linker_0, # of connection points: 2
#     Edge 20, Type (0, 1), BuildingBlock: MIFKUJ_clean_linker_0, # of connection points: 2
#     Edge 21, Type (0, 1), BuildingBlock: MIFKUJ_clean_linker_0, # of connection points: 2
#     Edge 22, Type (0, 1), BuildingBlock: MIFKUJ_clean_linker_0, # of connection points: 2
#     Edge 23, Type (0, 1), BuildingBlock: MIFKUJ_clean_linker_0, # of connection points: 2
#     Edge 24, Type (0, 1), BuildingBlock: MIFKUJ_clean_linker_0, # of connection points: 2
#     Edge 25, Type (0, 1), BuildingBlock: MIFKUJ_clean_linker_0, # of connection points: 2
#     Edge 26, Type (0, 1), BuildingBlock: MIFKUJ_clean_linker_0, # of connection points: 2
#     Edge 27, Type (0, 1), BuildingBlock: MIFKUJ_clean_linker_0, # of connection points: 2
#     Edge 28, Type (0, 1), BuildingBlock: MIFKUJ_clean_linker_0, # of connection points: 2
#     Edge 29, Type (0, 1), BuildingBlock: MIFKUJ_clean_linker_0, # of connection points: 2
#     Edge 30, Type (0, 1), BuildingBlock: MIFKUJ_clean_linker_0, # of connection points: 2
#     Edge 31, Type (0, 1), BuildingBlock: MIFKUJ_clean_linker_0, # of connection points: 2
#     Edge 32, Type (0, 1), BuildingBlock: MIFKUJ_clean_linker_0, # of connection points: 2
#     Edge 33, Type (0, 1), BuildingBlock: MIFKUJ_clean_linker_0, # of connection points: 2
#     Edge 34, Type (0, 1), BuildingBlock: MIFKUJ_clean_linker_0, # of connection points: 2
#     Edge 35, Type (0, 1), BuildingBlock: MIFKUJ_clean_linker_0, # of connection points: 2
# Relax obj value: 0.032
# Max RMSD: 0.085
# Mean RMSD: 0.028
data_MOF--net-pry--node1-WUSLED_clean_sbu_0--node2-JUFBIX_clean_sbu_0--edge1-MIFKUJ_clean_linker_0
_symmetry_space_group_name_H-M    P1
_symmetry_Int_Tables_number       1
_symmetry_cell_setting            triclinic
loop_
_symmetry_equiv_pos_as_xyz
'x, y, z'
_cell_length_a     59.617968
_cell_length_b     57.58362
_cell_length_c     59.377892
_cell_angle_alpha  86.329016
_cell_angle_beta   90.740441
_cell_angle_gamma 92.463482
loop_
_atom_site_label
_atom_site_type_symbol
_atom_site_fract_x
_atom_site_fract_y
_atom_site_fract_z
_atom_type_partial_charge
C0 C 0.11953 0.1908 0.10813 0.0
C1 C 0.09912 0.19705 0.11737 0.0
C2 C 0.09907 0.23363 0.09303 0.0
C3 C 0.08898 0.21813 0.10984 0.0
C4 C 0.11907 0.22669 0.08347 0.0
C5 C 0.12903 0.2058 0.09087 0.0
U6 U 0.14677 0.13212 0.13923 0.0
O7 O 0.16297 0.10615 0.11893 0.0
O8 O 0.18389 0.12931 0.13939 0.0
C9 C 0.18332 0.112 0.12599 0.0
C10 C 0.1322 0.16959 0.11602 0.0
C11 C 0.20437 0.10437 0.11496 0.0
C12 C 0.23489 0.10914 0.08712 0.0
C13 C 0.21441 0.11635 0.09596 0.0
C14 C 0.23575 0.07779 0.11589 0.0
C15 C 0.24625 0.08976 0.09702 0.0
C16 C 0.21533 0.0849 0.12455 0.0
C17 C 0.11602 0.1062 0.19864 0.0
C18 C 0.11347 0.0776 0.23122 0.0
C19 C 0.08994 0.11067 0.22965 0.0
C20 C 0.09935 0.11856 0.20865 0.0
C21 C 0.09704 0.09019 0.24171 0.0
C22 C 0.1227 0.08543 0.21009 0.0
C23 C 0.12718 0.1156 0.17709 0.0
O24 O 0.14709 0.17054 0.13247 0.0
O25 O 0.12442 0.14832 0.11276 0.0
O26 O 0.12155 0.10818 0.1572 0.0
O27 O 0.14313 0.13208 0.17655 0.0
H28 H 0.09121 0.18591 0.13063 0.0
H29 H 0.0736 0.22261 0.11771 0.0
H30 H 0.12724 0.23753 0.07017 0.0
H31 H 0.14457 0.20149 0.08319 0.0
H32 H 0.24173 0.11885 0.0724 0.0
H33 H 0.20652 0.1314 0.08799 0.0
H34 H 0.24354 0.06311 0.12459 0.0
H35 H 0.20826 0.07526 0.13924 0.0
H36 H 0.11984 0.06195 0.23959 0.0
H37 H 0.07701 0.1208 0.23636 0.0
H38 H 0.09368 0.13456 0.20029 0.0
H39 H 0.13554 0.07545 0.20295 0.0
C40 C 0.34824 0.88164 0.59818 0.0
C41 C 0.34029 0.89466 0.61539 0.0
C42 C 0.30965 0.90748 0.59098 0.0
C43 C 0.321 0.9074 0.61186 0.0
C44 C 0.31806 0.89494 0.57362 0.0
C45 C 0.3372 0.88206 0.57724 0.0
U46 U 0.39998 0.86652 0.63237 0.0
O47 O 0.41336 0.83278 0.64364 0.0
O48 O 0.4335 0.85749 0.62158 0.0
C49 C 0.43167 0.83649 0.63161 0.0
C50 C 0.36789 0.86743 0.60192 0.0
C51 C 0.43762 0.8173 0.61809 0.0
C52 C 0.4283 0.78858 0.59079 0.0
C53 C 0.42292 0.80847 0.6017 0.0
C54 C 0.46327 0.78692 0.61206 0.0
C55 C 0.44827 0.77735 0.59639 0.0
C56 C 0.45798 0.80675 0.62278 0.0
C57 C 0.41328 0.90217 0.68377 0.0
C58 C 0.44269 0.89408 0.71158 0.0
C59 C 0.41949 0.92732 0.71458 0.0
C60 C 0.40785 0.92174 0.69504 0.0
C61 C 0.43682 0.91346 0.72306 0.0
C62 C 0.4309 0.8884 0.69196 0.0
C63 C 0.39982 0.89631 0.66395 0.0
O64 O 0.38735 0.87872 0.59892 0.0
O65 O 0.36725 0.85328 0.62019 0.0
O66 O 0.38882 0.87601 0.66555 0.0
O67 O 0.40944 0.901 0.6443 0.0
H68 H 0.34882 0.89469 0.63162 0.0
H69 H 0.31486 0.91704 0.62543 0.0
H70 H 0.30941 0.89449 0.55749 0.0
H71 H 0.34319 0.87214 0.5638 0.0
H72 H 0.41648 0.7814 0.5788 0.0
H73 H 0.40709 0.81649 0.5979 0.0
H74 H 0.47884 0.77864 0.61646 0.0
H75 H 0.46952 0.81344 0.63529 0.0
H76 H 0.45591 0.88311 0.71809 0.0
H77 H 0.41473 0.94228 0.72334 0.0
H78 H 0.39432 0.93251 0.68892 0.0
H79 H 0.43524 0.87317 0.68341 0.0
C80 C 0.61289 0.4122 0.83539 0.0
C81 C 0.62486 0.43205 0.82609 0.0
C82 C 0.59995 0.43353 0.79252 0.0
C83 C 0.61844 0.44261 0.80492 0.0
C84 C 0.58803 0.4138 0.80227 0.0
C85 C 0.59435 0.40345 0.82329 0.0
U86 U 0.64622 0.3921 0.89232 0.0
O87 O 0.6296 0.37506 0.92264 0.0
O88 O 0.65193 0.35531 0.90274 0.0
C89 C 0.63869 0.35496 0.92028 0.0
C90 C 0.61931 0.39911 0.85689 0.0
C91 C 0.62547 0.33289 0.92641 0.0
C92 C 0.59381 0.30469 0.92273 0.0
C93 C 0.60469 0.32647 0.91649 0.0
C94 C 0.62406 0.29584 0.94893 0.0
C95 C 0.60361 0.28886 0.93879 0.0
C96 C 0.63473 0.31742 0.94285 0.0
C97 C 0.70268 0.42654 0.91167 0.0
C98 C 0.72967 0.42177 0.9431 0.0
C99 C 0.73789 0.45003 0.91221 0.0
C100 C 0.71733 0.44399 0.90191 0.0
C101 C 0.7447 0.43887 0.93282 0.0
C102 C 0.70894 0.41557 0.93259 0.0
C103 C 0.68164 0.42048 0.89879 0.0
O104 O 0.63706 0.38636 0.85688 0.0
O105 O 0.61641 0.4084 0.87626 0.0
O106 O 0.66196 0.42292 0.90792 0.0
O107 O 0.6818 0.40263 0.88609 0.0
H108 H 0.63923 0.43924 0.83502 0.0
H109 H 0.62797 0.45791 0.79832 0.0
H110 H 0.57407 0.40576 0.79341 0.0
H111 H 0.58487 0.3881 0.82994 0.0
H112 H 0.57809 0.29996 0.91453 0.0
H113 H 0.59707 0.33806 0.9038 0.0
H114 H 0.63196 0.2845 0.96165 0.0
H115 H 0.65058 0.32196 0.95093 0.0
H116 H 0.73422 0.41271 0.95894 0.0
H117 H 0.74855 0.46357 0.90389 0.0
H118 H 0.71295 0.45292 0.88594 0.0
H119 H 0.69801 0.40207 0.94062 0.0
C120 C 0.86751 0.59654 0.4318 0.0
C121 C 0.85793 0.61349 0.44423 0.0
C122 C 0.82561 0.5872 0.45238 0.0
C123 C 0.83707 0.60883 0.45449 0.0
C124 C 0.83611 0.56983 0.44128 0.0
C125 C 0.85683 0.57451 0.431 0.0
U126 U 0.91939 0.6346 0.4144 0.0
O127 O 0.95162 0.62438 0.40103 0.0
O128 O 0.92989 0.64732 0.38038 0.0
C129 C 0.94802 0.63508 0.38116 0.0
C130 C 0.88727 0.60209 0.41769 0.0
C131 C 0.95161 0.62167 0.3613 0.0
C132 C 0.93822 0.59521 0.33317 0.0
C133 C 0.93525 0.60565 0.3536 0.0
C134 C 0.97424 0.61598 0.3286 0.0
C135 C 0.95752 0.60078 0.32014 0.0
C136 C 0.97127 0.62632 0.34891 0.0
C137 C 0.93352 0.68865 0.44898 0.0
C138 C 0.95431 0.72467 0.4375 0.0
C139 C 0.941 0.71818 0.47584 0.0
C140 C 0.93188 0.69637 0.47075 0.0
C141 C 0.95179 0.73297 0.45914 0.0
C142 C 0.94526 0.70268 0.43247 0.0
C143 C 0.92108 0.66699 0.4437 0.0
O144 O 0.8861 0.6211 0.40433 0.0
O145 O 0.90696 0.5998 0.4276 0.0
O146 O 0.93176 0.6475 0.44672 0.0
O147 O 0.90862 0.66805 0.42527 0.0
H148 H 0.86607 0.6306 0.4451 0.0
H149 H 0.82939 0.62255 0.46295 0.0
H150 H 0.82791 0.55282 0.43982 0.0
H151 H 0.86408 0.56121 0.4216 0.0
H152 H 0.92501 0.58363 0.3271 0.0
H153 H 0.91992 0.60181 0.36298 0.0
H154 H 0.98948 0.6203 0.31922 0.0
H155 H 0.9841 0.63855 0.35463 0.0
H156 H 0.96241 0.73551 0.42416 0.0
H157 H 0.93922 0.72357 0.49284 0.0
H158 H 0.92294 0.68576 0.48374 0.0
H159 H 0.94675 0.69699 0.41553 0.0
C160 C 0.90222 0.83063 0.9251 0.0
C161 C 0.91703 0.82063 0.91048 0.0
C162 C 0.92466 0.78853 0.93901 0.0
C163 C 0.9282 0.79998 0.9174 0.0
C164 C 0.91032 0.79917 0.95363 0.0
C165 C 0.89941 0.8197 0.94681 0.0
U166 U 0.8767 0.88794 0.89192 0.0
O167 O 0.84015 0.89395 0.88977 0.0
O168 O 0.86192 0.91711 0.90903 0.0
C169 C 0.84134 0.91226 0.90195 0.0
C170 C 0.88808 0.8512 0.91852 0.0
C171 C 0.82111 0.91841 0.91544 0.0
C172 C 0.78748 0.90858 0.93865 0.0
C173 C 0.80758 0.90204 0.92844 0.0
C174 C 0.79396 0.948 0.92347 0.0
C175 C 0.77998 0.93171 0.93616 0.0
C176 C 0.81396 0.94149 0.91343 0.0
C177 C 0.90969 0.91104 0.83334 0.0
C178 C 0.90687 0.93728 0.79906 0.0
C179 C 0.93875 0.91308 0.80411 0.0
C180 C 0.93016 0.90399 0.82504 0.0
C181 C 0.92723 0.92974 0.7904 0.0
C182 C 0.8982 0.92802 0.82011 0.0
C183 C 0.90087 0.89936 0.85519 0.0
O184 O 0.89608 0.87251 0.92111 0.0
O185 O 0.87408 0.85003 0.90132 0.0
O186 O 0.88285 0.88538 0.85534 0.0
O187 O 0.90517 0.90812 0.87478 0.0
H188 H 0.91967 0.82849 0.89362 0.0
H189 H 0.93904 0.79259 0.90551 0.0
H190 H 0.90737 0.79157 0.97053 0.0
H191 H 0.88824 0.82686 0.95857 0.0
H192 H 0.77777 0.89534 0.94849 0.0
H193 H 0.81234 0.88408 0.93049 0.0
H194 H 0.78913 0.96585 0.92055 0.0
H195 H 0.82364 0.95461 0.90337 0.0
H196 H 0.89722 0.94993 0.7893 0.0
H197 H 0.95463 0.90698 0.79877 0.0
H198 H 0.93955 0.89102 0.83472 0.0
H199 H 0.8824 0.93394 0.82589 0.0
C200 C 0.59205 0.1448 0.35082 0.0
C201 C 0.60372 0.12445 0.34835 0.0
C202 C 0.5822 0.11715 0.31414 0.0
C203 C 0.5988 0.11069 0.33015 0.0
C204 C 0.57098 0.13786 0.31658 0.0
C205 C 0.57581 0.15146 0.33479 0.0
U206 U 0.62665 0.15946 0.40243 0.0
O207 O 0.63761 0.19304 0.41534 0.0
O208 O 0.61605 0.16847 0.43604 0.0
C209 C 0.62575 0.1894 0.43385 0.0
C210 C 0.59632 0.15908 0.37015 0.0
C211 C 0.61187 0.20861 0.4395 0.0
C212 C 0.58561 0.23862 0.4289 0.0
C213 C 0.59731 0.21918 0.42355 0.0
C214 C 0.60219 0.23638 0.46644 0.0
C215 C 0.58821 0.24761 0.45031 0.0
C216 C 0.61394 0.21709 0.46103 0.0
C217 C 0.67787 0.12309 0.41655 0.0
C218 C 0.70765 0.13305 0.44294 0.0
C219 C 0.7072 0.09609 0.42543 0.0
C220 C 0.6875 0.10173 0.41386 0.0
C221 C 0.71762 0.11181 0.43982 0.0
C222 C 0.68778 0.13862 0.43142 0.0
C223 C 0.65813 0.12908 0.40285 0.0
O224 O 0.59335 0.14812 0.39007 0.0
O225 O 0.61465 0.1726 0.369 0.0
O226 O 0.65959 0.14934 0.39133 0.0
O227 O 0.63861 0.12468 0.4126 0.0
H228 H 0.61643 0.11911 0.36059 0.0
H229 H 0.60774 0.09486 0.32885 0.0
H230 H 0.55857 0.14377 0.30429 0.0
H231 H 0.56681 0.16722 0.33636 0.0
H232 H 0.5748 0.24683 0.41623 0.0
H233 H 0.5954 0.21271 0.40686 0.0
H234 H 0.60476 0.24308 0.48295 0.0
H235 H 0.62512 0.20911 0.47352 0.0
H236 H 0.71534 0.14537 0.45405 0.0
H237 H 0.71472 0.07978 0.42247 0.0
H238 H 0.68005 0.08963 0.40238 0.0
H239 H 0.68043 0.15518 0.43374 0.0
C240 C 0.32172 0.60108 0.13351 0.0
C241 C 0.3128 0.61743 0.11756 0.0
C242 C 0.28148 0.58992 0.10861 0.0
C243 C 0.29296 0.61192 0.10527 0.0
C244 C 0.29081 0.57368 0.12447 0.0
C245 C 0.31053 0.57916 0.1366 0.0
U246 U 0.37717 0.63449 0.15497 0.0
O247 O 0.38676 0.63996 0.19041 0.0
O248 O 0.40736 0.61846 0.1704 0.0
C249 C 0.40472 0.62756 0.18991 0.0
C250 C 0.34179 0.60615 0.14817 0.0
C251 C 0.412 0.61448 0.21112 0.0
C252 C 0.40729 0.58444 0.24205 0.0
C253 C 0.39998 0.59502 0.22121 0.0
C254 C 0.43866 0.61239 0.24282 0.0
C255 C 0.42659 0.59325 0.2532 0.0
C256 C 0.43153 0.62275 0.22207 0.0
C257 C 0.39893 0.69239 0.12003 0.0
C258 C 0.42948 0.72115 0.12614 0.0
C259 C 0.40478 0.7265 0.09381 0.0
C260 C 0.39292 0.70572 0.10045 0.0
C261 C 0.42326 0.73472 0.1065 0.0
C262 C 0.41744 0.70021 0.13285 0.0
C263 C 0.38479 0.67107 0.1264 0.0
O264 O 0.36183 0.6031 0.14016 0.0
O265 O 0.3414 0.62425 0.16055 0.0
O266 O 0.37211 0.67135 0.1443 0.0
O267 O 0.39317 0.65063 0.12402 0.0
H268 H 0.321 0.6345 0.11474 0.0
H269 H 0.28667 0.62493 0.0931 0.0
H270 H 0.28256 0.55678 0.12811 0.0
H271 H 0.31684 0.56625 0.14888 0.0
H272 H 0.39758 0.56976 0.24973 0.0
H273 H 0.38486 0.58826 0.21321 0.0
H274 H 0.45353 0.61958 0.25096 0.0
H275 H 0.44115 0.63767 0.21472 0.0
H276 H 0.4437 0.72663 0.13631 0.0
H277 H 0.39899 0.73642 0.07893 0.0
H278 H 0.37865 0.70018 0.09033 0.0
H279 H 0.42248 0.69028 0.14804 0.0
C280 C 0.07547 0.33294 0.60617 0.0
C281 C 0.08903 0.32786 0.58803 0.0
C282 C 0.06859 0.29053 0.58527 0.0
C283 C 0.08548 0.3068 0.57751 0.0
C284 C 0.05459 0.2962 0.60277 0.0
C285 C 0.05796 0.31721 0.61304 0.0
U286 U 0.1105 0.38775 0.62066 0.0
O287 O 0.1003 0.42026 0.63451 0.0
O288 O 0.12349 0.39761 0.65369 0.0
C289 C 0.11216 0.4167 0.65314 0.0
C290 C 0.08035 0.35322 0.61964 0.0
C291 C 0.10203 0.42224 0.6745 0.0
C292 C 0.07235 0.41911 0.70245 0.0
C293 C 0.08091 0.41313 0.68173 0.0
C294 C 0.10601 0.44303 0.70866 0.0
C295 C 0.08482 0.43426 0.71611 0.0
C296 C 0.11443 0.43715 0.68812 0.0
C297 C 0.16193 0.40729 0.58509 0.0
C298 C 0.1932 0.43179 0.59787 0.0
C299 C 0.19353 0.41701 0.56056 0.0
C300 C 0.17251 0.40605 0.56435 0.0
C301 C 0.20444 0.42934 0.57752 0.0
C302 C 0.17204 0.42076 0.60166 0.0
C303 C 0.1416 0.39254 0.5897 0.0
O304 O 0.09885 0.35227 0.63185 0.0
O305 O 0.07732 0.37393 0.60968 0.0
O306 O 0.12233 0.40277 0.5876 0.0
O307 O 0.1428 0.37807 0.60765 0.0
H308 H 0.10273 0.33978 0.58256 0.0
H309 H 0.09653 0.30276 0.56409 0.0
H310 H 0.04136 0.28402 0.6089 0.0
H311 H 0.04735 0.32081 0.62697 0.0
H312 H 0.05597 0.41205 0.70766 0.0
H313 H 0.07114 0.40149 0.67143 0.0
H314 H 0.11639 0.4542 0.71891 0.0
H315 H 0.13084 0.44418 0.68291 0.0
H316 H 0.20122 0.44115 0.61125 0.0
H317 H 0.20162 0.41519 0.54457 0.0
H318 H 0.16489 0.39581 0.55137 0.0
H319 H 0.16403 0.42192 0.6178 0.0
Co320 Co 0.99702 0.01682 0.51221 0.0
C321 C 1.01072 0.97027 0.50869 0.0
Co322 Co 0.03183 0.00931 0.52157 0.0
C323 C 0.95156 0.03397 0.50606 0.0
C324 C 0.95829 1.00493 0.48675 0.0
N325 N 0.96761 0.01891 0.50211 0.0
N326 N 0.93268 0.02938 0.49408 0.0
C327 C 0.93681 0.01114 0.48204 0.0
H328 H 0.95364 0.04798 0.51733 0.0
H329 H 0.96671 0.99136 0.47886 0.0
C330 C 0.01795 0.05571 0.52555 0.0
N331 N 0.06167 1.00736 0.53065 0.0
C332 C 0.07409 0.98856 0.53558 0.0
C333 C 0.07626 0.02585 0.53238 0.0
N334 N 0.09561 0.99489 0.54013 0.0
C335 C 0.09701 0.01822 0.53827 0.0
C336 C 0.02719 0.02378 0.47536 0.0
O337 O 0.99943 0.04932 0.51664 0.0
O338 O 0.03287 0.04094 0.52937 0.0
O339 O 0.04166 0.01869 0.4907 0.0
O340 O 1.00664 0.02354 0.48099 0.0
O341 O 0.03032 0.97774 0.51382 0.0
H342 H 0.07255 0.04391 0.52881 0.0
H343 H 0.06784 0.97069 0.53493 0.0
O344 O 0.99478 0.98416 0.50804 0.0
O345 O 0.98763 0.01028 0.5438 0.0
O346 O 0.02182 0.99963 0.55221 0.0
C347 C 1.00167 1.00215 0.5585 0.0
H348 H 0.92525 1.00331 0.47021 0.0
H349 H 0.11222 0.0289 0.5403 0.0
Co350 Co 0.50734 1.00643 1.00251 0.0
C351 C 0.50605 0.96969 0.03734 0.0
Co352 Co 0.52028 0.01566 0.03573 0.0
C353 C 0.49812 0.99609 0.95482 0.0
C354 C 0.47414 0.98212 0.97908 0.0
N355 N 0.49322 0.99545 0.97705 0.0
N356 N 0.4827 0.98351 0.94305 0.0
C357 C 0.46781 0.97469 0.95859 0.0
H358 H 0.51276 1.00534 0.94761 0.0
H359 H 0.46552 0.97749 0.99476 0.0
C360 C 0.52153 0.05219 1.00082 0.0
N361 N 0.53408 0.02631 0.06136 0.0
C362 C 0.52831 0.02499 0.08336 0.0
C363 C 0.55392 0.03854 0.06053 0.0
N364 N 0.54412 0.03562 0.09609 0.0
C365 C 0.56014 0.04419 0.08178 0.0
C366 C 0.55378 0.99883 1.00612 0.0
O367 O 0.51312 0.03703 0.98805 0.0
O368 O 0.52542 0.04629 0.02142 0.0
O369 O 0.55007 1.00661 0.02534 0.0
O370 O 0.53699 0.99672 0.99264 0.0
O371 O 0.51486 0.98461 0.05014 0.0
H372 H 0.56331 0.04322 0.04533 0.0
H373 H 0.51312 0.01621 0.08991 0.0
O374 O 0.502 0.97618 0.01695 0.0
O375 O 0.47766 0.0162 1.01262 0.0
O376 O 0.49053 0.0247 0.04583 0.0
C377 C 0.47391 0.02338 0.03208 0.0
H378 H 0.45344 0.96314 0.9558 0.0
H379 H 0.57519 0.05405 0.08641 0.0
Co380 Co 0.53256 0.51984 0.51604 0.0
C381 C 0.49929 0.521 0.48139 0.0
Co382 Co 0.49941 0.50571 0.52677 0.0
C383 C 0.58015 0.52878 0.50994 0.0
C384 C 0.55991 0.55317 0.491 0.0
N385 N 0.55871 0.53437 0.50583 0.0
N386 N 0.59446 0.54326 0.49797 0.0
C387 C 0.58195 0.55857 0.486 0.0
H388 H 0.58513 0.5142 0.52104 0.0
H389 H 0.54561 0.56221 0.48404 0.0
C390 C 0.53259 0.50448 0.56151 0.0
N391 N 0.47326 0.49077 0.53691 0.0
C392 C 0.4516 0.4964 0.53437 0.0
C393 C 0.47265 0.46992 0.54874 0.0
N394 N 0.43769 0.47959 0.54388 0.0
C395 C 0.45081 0.46297 0.55294 0.0
C396 C 0.52841 0.47372 0.51017 0.0
O397 O 0.54531 0.51441 0.54634 0.0
O398 O 0.51239 0.49928 0.55613 0.0
O399 O 0.50897 0.47674 0.51757 0.0
O400 O 0.54246 0.49084 0.50802 0.0
O401 O 0.48625 0.51256 0.49698 0.0
H402 H 0.48723 0.46024 0.55381 0.0
H403 H 0.44615 0.51211 0.52531 0.0
O404 O 0.51988 0.52484 0.48614 0.0
O405 O 0.52266 0.54903 0.5238 0.0
O406 O 0.49007 0.53452 0.53608 0.0
C407 C 0.50375 0.55182 0.53253 0.0
H408 H 0.58839 0.57257 0.47452 0.0
H409 H 0.44493 0.44697 0.56197 0.0
Co410 Co 0.0198 0.51003 1.00084 0.0
C411 C 0.97308 0.49934 1.01133 0.0
Co412 Co 1.00974 0.51501 0.03573 0.0
C413 C 0.03935 0.49472 0.9592 0.0
C414 C 1.01015 0.51498 0.95422 0.0
N415 N 0.02426 0.50646 0.9704 0.0
N416 N 0.03504 0.4959 0.93678 0.0
C417 C 0.01674 0.50853 0.93361 0.0
H418 H 0.05294 0.48535 0.96727 0.0
H419 H 0.9956 0.52488 0.95729 0.0
C420 C 0.05634 0.52587 0.02497 0.0
N421 N 1.0054 0.51892 0.06615 0.0
C422 C 0.98986 0.53005 0.07739 0.0
C423 C 0.02031 0.51178 0.08218 0.0
N424 N 0.99476 0.52991 0.09968 0.0
C425 C 0.01381 0.51849 0.10272 0.0
C426 C 0.02504 0.46947 0.02864 0.0
O427 O 0.05108 0.51914 1.00549 0.0
O428 O 0.04101 0.52586 0.03973 0.0
O429 O 0.01788 0.48263 0.04323 0.0
O430 O 0.02696 0.47774 1.00828 0.0
O431 O 0.97857 0.5045 0.03132 0.0
H432 H 0.03531 0.50262 0.07904 0.0
H433 H 0.9755 0.53819 0.06944 0.0
O434 O 0.98836 0.50066 0.99644 0.0
O435 O 1.01287 0.54284 0.99368 0.0
O436 O 1.00142 0.54679 0.02802 0.0
C437 C 1.0045 0.55556 1.00799 0.0
H438 H 1.00857 0.51246 0.9175 0.0
H439 H 0.02245 0.51541 0.11872 0.0
H440 H 0.08054 0.11723 0.27459 0.0
H441 H 0.06696 0.10538 0.31217 0.0
H442 H 0.08017 0.03399 0.30157 0.0
H443 H 0.09244 0.04546 0.26317 0.0
H444 H 0.04384 0.03357 0.32579 0.0
H445 H 0.11608 0.07179 0.33431 0.0
H446 H 0.14455 0.10384 0.32815 0.0
H447 H 0.10197 0.15028 0.35966 0.0
H448 H 0.07309 0.11856 0.36572 0.0
H449 H 0.04716 0.99672 0.44524 0.0
H450 H 0.05697 1.00689 0.4055 0.0
H451 H 0.03294 0.07574 0.4112 0.0
H452 H 0.02232 0.06523 0.4506 0.0
H453 H 0.07454 0.07697 0.3896 0.0
H454 H 1.00282 0.03862 0.382 0.0
H455 H 0.97347 1.00728 0.3867 0.0
H456 H 0.01472 0.96114 0.35316 0.0
H457 H 0.04451 0.99212 0.34858 0.0
C458 C 0.0803 0.09888 0.27981 0.0
C459 C 0.08799 0.08253 0.26519 0.0
C460 C 0.07274 0.0921 0.3018 0.0
C461 C 0.07293 0.06872 0.31048 0.0
C462 C 0.07994 0.0522 0.29578 0.0
C463 C 0.08731 0.05894 0.27364 0.0
C464 C 0.06637 0.06174 0.33486 0.0
C465 C 0.05092 0.04289 0.33969 0.0
C466 C 0.07492 0.07395 0.35345 0.0
C467 C 0.0924 0.09288 0.35032 0.0
C468 C 0.11277 0.08887 0.33985 0.0
C469 C 0.12897 0.10697 0.33637 0.0
C470 C 0.12505 0.12909 0.34347 0.0
C471 C 0.10496 0.13314 0.35415 0.0
C472 C 0.08869 0.1151 0.35764 0.0
C473 C 0.04397 0.01403 0.43801 0.0
C474 C 0.03399 0.03016 0.45126 0.0
C475 C 0.0495 0.01984 0.41516 0.0
C476 C 0.04573 0.04218 0.40493 0.0
C477 C 0.03609 0.05839 0.41836 0.0
C478 C 0.02998 0.05236 0.44099 0.0
C479 C 0.05213 0.04877 0.38053 0.0
C480 C 0.06756 0.06756 0.37571 0.0
C481 C 0.04361 0.03645 0.36202 0.0
C482 C 0.02604 0.01758 0.36526 0.0
C483 C 1.00578 0.02169 0.37592 0.0
C484 C 0.98902 1.00402 0.37848 0.0
C485 C 0.99226 0.9822 0.37032 0.0
C486 C 1.01226 0.97802 0.35954 0.0
C487 C 0.02909 0.99563 0.35696 0.0
H488 H 0.97924 0.96856 0.37226 0.0
H489 H 0.1376 0.1431 0.34073 0.0
H490 H 0.47782 0.93472 0.7305 0.0
H491 H 0.49153 0.94979 0.76632 0.0
H492 H 0.4323 0.91954 0.7997 0.0
H493 H 0.41861 0.90493 0.76405 0.0
H494 H 0.43831 0.96533 0.80594 0.0
H495 H 0.48328 0.89744 0.80895 0.0
H496 H 0.51159 0.8718 0.79544 0.0
H497 H 0.56185 0.92738 0.79734 0.0
H498 H 0.53369 0.9535 0.81045 0.0
H499 H 0.44851 0.96214 0.92018 0.0
H500 H 0.44717 0.95369 0.88136 0.0
H501 H 0.51199 0.98849 0.87063 0.0
H502 H 0.51452 0.99572 0.91087 0.0
H503 H 0.50835 0.94884 0.84894 0.0
H504 H 0.46216 0.01476 0.85206 0.0
H505 H 0.43282 0.03747 0.8682 0.0
H506 H 0.38354 0.98285 0.85651 0.0
H507 H 0.41258 0.95971 0.84058 0.0
C508 C 0.46813 0.93089 0.7457 0.0
C509 C 0.44729 0.91868 0.7448 0.0
C510 C 0.47589 0.9395 0.76605 0.0
C511 C 0.46285 0.93586 0.7856 0.0
C512 C 0.44254 0.92266 0.78477 0.0
C513 C 0.4348 0.9142 0.76452 0.0
C514 C 0.46914 0.94715 0.80661 0.0
C515 C 0.45363 0.96172 0.81535 0.0
C516 C 0.4895 0.94314 0.81842 0.0
C517 C 0.50631 0.92752 0.81031 0.0
C518 C 0.5003 0.90429 0.8062 0.0
C519 C 0.51633 0.88965 0.79867 0.0
C520 C 0.53849 0.89798 0.79543 0.0
C521 C 0.54467 0.92097 0.79977 0.0
C522 C 0.52868 0.9357 0.80722 0.0
C523 C 0.46283 0.96793 0.91009 0.0
C524 C 0.48178 0.9796 0.91921 0.0
C525 C 0.46178 0.96332 0.88747 0.0
C526 C 0.47914 0.97104 0.87288 0.0
C527 C 0.49823 0.98263 0.88161 0.0
C528 C 0.49957 0.98687 0.90462 0.0
C529 C 0.47703 0.96617 0.84872 0.0
C530 C 0.49333 0.95298 0.83925 0.0
C531 C 0.45723 0.97123 0.83624 0.0
C532 C 0.43957 0.98553 0.84508 0.0
C533 C 0.44506 1.00761 0.85293 0.0
C534 C 0.42848 0.02054 0.86207 0.0
C535 C 0.40633 0.01162 0.86336 0.0
C536 C 0.40069 0.98978 0.85545 0.0
C537 C 0.41719 0.97678 0.8463 0.0
H538 H 0.39354 0.02163 0.87051 0.0
H539 H 0.55089 0.8866 0.78965 0.0
H540 H 0.55751 0.43605 0.77313 0.0
H541 H 0.54717 0.44901 0.73468 0.0
H542 H 0.6164 0.46807 0.72028 0.0
H543 H 0.62709 0.45462 0.75872 0.0
H544 H 0.58953 0.50044 0.70099 0.0
H545 H 0.59023 0.41671 0.70279 0.0
H546 H 0.57952 0.37645 0.71638 0.0
H547 H 0.51033 0.38881 0.70085 0.0
H548 H 0.52059 0.42928 0.68751 0.0
H549 H 0.57523 0.51066 0.58019 0.0
H550 H 0.5875 0.50011 0.61906 0.0
H551 H 0.5202 0.4748 0.6355 0.0
H552 H 0.50807 0.48476 0.59691 0.0
H553 H 0.54714 0.44549 0.65362 0.0
H554 H 0.54435 0.52809 0.65302 0.0
H555 H 0.55301 0.56885 0.63955 0.0
H556 H 0.62308 0.55976 0.65337 0.0
H557 H 0.61486 0.51881 0.66658 0.0
C558 C 0.57072 0.44275 0.76187 0.0
C559 C 0.59334 0.44374 0.76933 0.0
C560 C 0.56469 0.45029 0.73971 0.0
C561 C 0.58099 0.45915 0.72415 0.0
C562 C 0.60342 0.4612 0.73176 0.0
C563 C 0.60952 0.45355 0.75394 0.0
C564 C 0.5747 0.46579 0.69995 0.0
C565 C 0.58055 0.48827 0.69057 0.0
C566 C 0.56235 0.45034 0.68625 0.0
C567 C 0.55616 0.42608 0.6944 0.0
C568 C 0.57271 0.4109 0.70247 0.0
C569 C 0.56672 0.38804 0.7101 0.0
C570 C 0.54425 0.3801 0.70954 0.0
C571 C 0.52772 0.395 0.70132 0.0
C572 C 0.53361 0.41789 0.69373 0.0
C573 C 0.56304 0.5029 0.59211 0.0
C574 C 0.54061 0.49867 0.58523 0.0
C575 C 0.57006 0.49695 0.61446 0.0
C576 C 0.55479 0.48678 0.6306 0.0
C577 C 0.53245 0.48253 0.62363 0.0
C578 C 0.52548 0.48837 0.6014 0.0
C579 C 0.56189 0.48019 0.6546 0.0
C580 C 0.55618 0.45769 0.66397 0.0
C581 C 0.57403 0.49575 0.66836 0.0
C582 C 0.57903 0.52033 0.66052 0.0
C583 C 0.56163 0.53474 0.653 0.0
C584 C 0.56645 0.55787 0.64544 0.0
C585 C 0.58859 0.56686 0.64553 0.0
C586 C 0.60595 0.55275 0.65326 0.0
C587 C 0.60122 0.52958 0.66079 0.0
H588 H 0.59229 0.58478 0.63967 0.0
H589 H 0.53966 0.36238 0.71543 0.0
H590 H 0.94772 0.55684 0.30565 0.0
H591 H 0.9508 0.54408 0.26714 0.0
H592 H 0.97547 0.61301 0.24435 0.0
H593 H 0.97187 0.62592 0.28231 0.0
H594 H 0.94474 0.59863 0.21649 0.0
H595 H 1.00984 0.56691 0.25179 0.0
H596 H 0.03296 0.54346 0.27852 0.0
H597 H 0.99869 0.48085 0.25849 0.0
H598 H 0.97502 0.50397 0.23197 0.0
H599 H 0.9961 0.57417 0.1117 0.0
H600 H 0.98483 0.58667 0.14859 0.0
H601 H 0.95669 0.51757 0.16566 0.0
H602 H 0.96828 0.50526 0.12893 0.0
H603 H 0.98707 0.53086 0.19634 0.0
H604 H 0.92328 0.56523 0.15867 0.0
H605 H 0.90384 0.59058 0.13035 0.0
H606 H 0.94029 0.65054 0.15366 0.0
H607 H 0.96017 0.6255 0.18189 0.0
C608 C 0.95374 0.56924 0.29238 0.0
C609 C 0.95969 0.59236 0.2971 0.0
C610 C 0.95568 0.56189 0.27043 0.0
C611 C 0.96352 0.57755 0.25284 0.0
C612 C 0.96941 0.60059 0.25759 0.0
C613 C 0.96753 0.60789 0.2794 0.0
C614 C 0.96494 0.57047 0.22926 0.0
C615 C 0.95416 0.58388 0.2121 0.0
C616 C 0.97691 0.55104 0.22346 0.0
C617 C 0.99035 0.53722 0.24021 0.0
C618 C 1.00694 0.54818 0.25338 0.0
C619 C 0.02022 0.53494 0.26843 0.0
C620 C 0.01722 0.51069 0.27029 0.0
C621 C 1.00092 0.49964 0.25712 0.0
C622 C 0.98754 0.51281 0.24211 0.0
C623 C 0.98662 0.56209 0.12303 0.0
C624 C 0.98256 0.53895 0.11754 0.0
C625 C 0.9803 0.56913 0.14412 0.0
C626 C 0.96987 0.55304 0.15992 0.0
C627 C 0.96466 0.53028 0.15376 0.0
C628 C 0.97101 0.52331 0.13276 0.0
C629 C 0.96683 0.55898 0.18366 0.0
C630 C 0.9774 0.5454 0.20082 0.0
C631 C 0.95506 0.5785 0.1894 0.0
C632 C 0.94335 0.59347 0.17223 0.0
C633 C 0.92731 0.58379 0.15759 0.0
C634 C 0.91618 0.59811 0.14159 0.0
C635 C 0.92087 0.62214 0.14017 0.0
C636 C 0.93669 0.63192 0.15475 0.0
C637 C 0.94788 0.61767 0.17076 0.0
H638 H 0.91221 0.63321 0.12779 0.0
H639 H 0.0276 0.50046 0.28187 0.0
H640 H 0.28047 0.11644 0.07438 0.0
H641 H 0.31708 0.10478 0.06229 0.0
H642 H 0.30145 0.03431 0.08767 0.0
H643 H 0.26471 0.04568 0.09952 0.0
H644 H 0.34235 0.04291 0.09885 0.0
H645 H 0.30546 0.05288 0.02776 0.0
H646 H 0.2833 0.07313 0.99776 0.0
H647 H 0.33402 0.12838 0.99179 0.0
H648 H 0.35638 0.10854 0.02192 0.0
H649 H 0.43961 0.99511 0.0511 0.0
H650 H 0.40129 1.00507 0.06047 0.0
H651 H 0.41595 0.07627 0.03657 0.0
H652 H 0.4542 0.06607 0.02687 0.0
H653 H 0.37484 0.06637 0.02401 0.0
H654 H 0.41124 0.05476 0.09663 0.0
H655 H 0.43163 0.0336 0.12739 0.0
H656 H 0.37984 0.97932 0.13021 0.0
H657 H 0.35929 1.00004 0.09927 0.0
C658 C 0.28444 0.09832 0.07719 0.0
C659 C 0.26894 0.08228 0.08831 0.0
C660 C 0.30574 0.09157 0.07015 0.0
C661 C 0.31264 0.06841 0.07373 0.0
C662 C 0.29715 0.05233 0.08463 0.0
C663 C 0.27584 0.05903 0.09161 0.0
C664 C 0.33599 0.06111 0.06683 0.0
C665 C 0.34916 0.04783 0.08229 0.0
C666 C 0.34572 0.06747 0.0454 0.0
C667 C 0.33248 0.07935 0.02719 0.0
C668 C 0.31182 0.06942 0.02012 0.0
C669 C 0.29924 0.0808 1.00308 0.0
C670 C 0.30722 0.10206 0.99291 0.0
C671 C 0.32785 0.11192 0.9997 0.0
C672 C 0.3405 0.1006 0.01672 0.0
C673 C 0.43476 0.01295 0.04799 0.0
C674 C 0.45039 0.02979 0.03849 0.0
C675 C 0.41264 0.01876 0.05348 0.0
C676 C 0.40515 0.04173 0.04981 0.0
C677 C 0.42076 0.05844 0.03988 0.0
C678 C 0.44289 0.05261 0.0344 0.0
C679 C 0.38134 0.04831 0.05616 0.0
C680 C 0.36804 0.06142 0.04055 0.0
C681 C 0.37133 0.04152 0.07738 0.0
C682 C 0.38391 0.02879 0.0955 0.0
C683 C 0.40434 0.03819 0.10367 0.0
C684 C 0.41589 0.02631 0.12116 0.0
C685 C 0.40707 1.00509 0.1307 0.0
C686 C 0.38668 0.99572 0.12277 0.0
C687 C 0.37508 1.00752 0.10526 0.0
H688 H 0.41601 0.99595 0.14429 0.0
H689 H 0.29745 0.11086 0.97974 0.0
H690 H 0.27357 0.90394 0.6187 0.0
H691 H 0.23622 0.91871 0.61064 0.0
H692 H 0.25993 0.95159 0.54757 0.0
H693 H 0.29738 0.93682 0.55551 0.0
H694 H 0.23087 0.97901 0.57221 0.0
H695 H 0.23421 0.90295 0.54398 0.0
H696 H 0.24129 0.861 0.54591 0.0
H697 H 0.19263 0.84873 0.59852 0.0
H698 H 0.18551 0.89071 0.5971 0.0
H699 H 0.13118 0.99623 0.51348 0.0
H700 H 0.16736 0.97943 0.52294 0.0
H701 H 0.13904 0.94573 0.58375 0.0
H702 H 0.10253 0.96249 0.57394 0.0
H703 H 0.17003 0.9188 0.56182 0.0
H704 H 0.16582 0.99531 0.5889 0.0
H705 H 0.1582 0.03715 0.58564 0.0
H706 H 0.20819 0.04868 0.53425 0.0
H707 H 0.2159 1.00682 0.53701 0.0
C708 C 0.27092 0.91473 0.60335 0.0
C709 C 0.28821 0.91915 0.58762 0.0
C710 C 0.24961 0.923 0.59873 0.0
C711 C 0.24541 0.93592 0.57842 0.0
C712 C 0.26295 0.94154 0.56329 0.0
C713 C 0.28421 0.93305 0.56778 0.0
C714 C 0.22237 0.9423 0.57234 0.0
C715 C 0.2176 0.9659 0.56976 0.0
C716 C 0.20509 0.92509 0.56953 0.0
C717 C 0.20955 0.89996 0.57064 0.0
C718 C 0.22522 0.89133 0.55614 0.0
C719 C 0.22919 0.86755 0.55709 0.0
C720 C 0.21747 0.85222 0.57238 0.0
C721 C 0.20173 0.86064 0.58672 0.0
C722 C 0.19772 0.88441 0.58585 0.0
C723 C 0.13264 0.98464 0.52848 0.0
C724 C 0.11443 0.98054 0.54308 0.0
C725 C 0.15321 0.97523 0.53394 0.0
C726 C 0.15586 0.96185 0.55426 0.0
C727 C 0.13721 0.95617 0.56805 0.0
C728 C 0.11647 0.96554 0.56245 0.0
C729 C 0.17852 0.95549 0.56174 0.0
C730 C 0.18325 0.93191 0.5645 0.0
C731 C 0.19577 0.97274 0.56467 0.0
C732 C 0.19132 0.99793 0.56306 0.0
C733 C 0.17508 1.00675 0.5768 0.0
C734 C 0.17076 0.03047 0.57506 0.0
C735 C 0.18268 0.04556 0.55972 0.0
C736 C 0.19897 0.03697 0.54612 0.0
C737 C 0.20335 0.01326 0.54779 0.0
H738 H 0.17932 0.06392 0.5584 0.0
H739 H 0.22054 0.8338 0.57307 0.0
H740 H 0.75749 0.44497 0.97748 0.0
H741 H 0.79509 0.45556 0.99229 0.0
H742 H 0.82171 0.45686 0.92508 0.0
H743 H 0.78457 0.44621 0.91037 0.0
H744 H 0.849 0.43445 0.95319 0.0
H745 H 0.81413 0.50771 0.95201 0.0
H746 H 0.78611 0.53591 0.96107 0.0
H747 H 0.79983 0.52278 0.03183 0.0
H748 H 0.8282 0.49482 0.02315 0.0
H749 H 0.95685 0.48885 0.96955 0.0
H750 H 0.91851 0.47868 0.958 0.0
H751 H 0.89625 0.48358 0.02625 0.0
H752 H 0.93482 0.4945 0.03785 0.0
H753 H 0.86618 0.50191 0.99924 0.0
H754 H 0.90287 0.4289 0.99862 0.0
H755 H 0.93083 0.40137 0.98782 0.0
H756 H 0.91308 0.41437 0.91794 0.0
H757 H 0.88528 0.44221 0.92831 0.0
C758 C 0.77137 0.4474 0.96586 0.0
C759 C 0.76771 0.44475 0.9426 0.0
C760 C 0.79293 0.45371 0.97435 0.0
C761 C 0.81155 0.45727 0.95987 0.0
C762 C 0.80788 0.45433 0.93676 0.0
C763 C 0.78643 0.44832 0.92829 0.0
C764 C 0.83499 0.46325 0.96854 0.0
C765 C 0.8527 0.44938 0.96307 0.0
C766 C 0.8402 0.48244 0.98181 0.0
C767 C 0.82301 0.49897 0.98698 0.0
C768 C 0.81104 0.51074 0.96951 0.0
C769 C 0.7952 0.52678 0.97456 0.0
C770 C 0.79115 0.53109 0.99701 0.0
C771 C 0.803 0.51946 0.01445 0.0
C772 C 0.81902 0.5036 1.00947 0.0
C773 C 0.9439 0.48768 0.98226 0.0
C774 C 0.94926 0.4924 1.00479 0.0
C775 C 0.92179 0.48163 0.97558 0.0
C776 C 0.90411 0.47971 0.9912 0.0
C777 C 0.90935 0.48468 1.01371 0.0
C778 C 0.93155 0.49087 0.02041 0.0
C779 C 0.88029 0.47307 0.98388 0.0
C780 C 0.8625 0.48687 0.98951 0.0
C781 C 0.87502 0.45394 0.97046 0.0
C782 C 0.8922 0.43779 0.96423 0.0
C783 C 0.90513 0.42606 0.98094 0.0
C784 C 0.9209 0.41037 0.97489 0.0
C785 C 0.92377 0.40617 0.95221 0.0
C786 C 0.91089 0.41767 0.9355 0.0
C787 C 0.89513 0.4334 0.94145 0.0
H788 H 0.93594 0.39396 0.94757 0.0
H789 H 0.77886 0.54349 1.0009 0.0
H790 H 0.79139 0.56698 0.42911 0.0
H791 H 0.75257 0.55996 0.44044 0.0
H792 H 0.76681 0.59277 0.50268 0.0
H793 H 0.80635 0.59907 0.49174 0.0
H794 H 0.74144 0.55268 0.50962 0.0
H795 H 0.73757 0.62155 0.4598 0.0
H796 H 0.74378 0.64657 0.42495 0.0
H797 H 0.70811 0.59595 0.38643 0.0
H798 H 0.70193 0.57054 0.42099 0.0
H799 H 0.62295 0.55718 0.52996 0.0
H800 H 0.66365 0.5643 0.5256 0.0
H801 H 0.6595 0.53589 0.45998 0.0
H802 H 0.61875 0.52976 0.46422 0.0
H803 H 0.67979 0.57735 0.45772 0.0
H804 H 0.68553 0.50731 0.50556 0.0
H805 H 0.67697 0.48214 0.53978 0.0
H806 H 0.70775 0.53353 0.58097 0.0
H807 H 0.7162 0.55916 0.54696 0.0
C808 C 0.78641 0.57245 0.44536 0.0
C809 C 0.802 0.58334 0.45966 0.0
C810 C 0.76412 0.56872 0.45167 0.0
C811 C 0.75676 0.57617 0.47222 0.0
C812 C 0.7722 0.58703 0.48666 0.0
C813 C 0.79468 0.59071 0.48037 0.0
C814 C 0.73299 0.57196 0.47856 0.0
C815 C 0.72792 0.55842 0.49848 0.0
C816 C 0.71539 0.57901 0.46379 0.0
C817 C 0.71945 0.5941 0.44295 0.0
C818 C 0.73124 0.61569 0.44386 0.0
C819 C 0.7347 0.62995 0.42417 0.0
C820 C 0.72638 0.62283 0.40348 0.0
C821 C 0.71456 0.60144 0.40245 0.0
C822 C 0.71105 0.58712 0.42208 0.0
C823 C 0.63105 0.55194 0.51499 0.0
C824 C 0.61825 0.54281 0.49746 0.0
C825 C 0.65414 0.55598 0.51246 0.0
C826 C 0.66455 0.55054 0.49249 0.0
C827 C 0.65175 0.54025 0.47549 0.0
C828 C 0.62867 0.53658 0.47791 0.0
C829 C 0.68831 0.55747 0.48833 0.0
C830 C 0.69332 0.57169 0.4689 0.0
C831 C 0.70575 0.55084 0.50341 0.0
C832 C 0.70136 0.53519 0.52377 0.0
C833 C 0.6904 0.51327 0.52193 0.0
C834 C 0.68556 0.49893 0.54128 0.0
C835 C 0.69178 0.50625 0.56255 0.0
C836 C 0.70294 0.52789 0.56449 0.0
C837 C 0.70778 0.54232 0.54519 0.0
H838 H 0.68797 0.49514 0.57752 0.0
H839 H 0.72906 0.63392 0.38826 0.0
H840 H 0.05449 0.24647 0.08705 0.0
H841 H 0.04043 0.28509 0.07557 0.0
H842 H 0.10843 0.31332 0.07116 0.0
H843 H 0.12243 0.27524 0.08284 0.0
H844 H 0.08509 0.34222 0.09189 0.0
H845 H 0.07379 0.30336 0.02376 0.0
H846 H 0.05929 0.27461 0.99757 0.0
H847 H 0.99168 0.29183 1.0114 0.0
H848 H 1.00575 0.3204 0.03798 0.0
H849 H 0.0673 0.45242 0.03166 0.0
H850 H 0.0783 0.4126 0.04296 0.0
H851 H 1.00868 0.39111 0.05184 0.0
H852 H 0.99777 0.43114 0.04107 0.0
H853 H 0.03097 0.35862 0.02946 0.0
H854 H 0.04284 0.39801 0.0972 0.0
H855 H 0.05788 0.42802 0.12178 0.0
H856 H 0.12517 0.4102 0.10732 0.0
H857 H 0.11054 0.38032 0.08235 0.0
C858 C 0.06649 0.26089 0.08372 0.0
C859 C 0.08976 0.2573 0.08593 0.0
C860 C 0.05839 0.28309 0.07688 0.0
C861 C 0.07324 0.30256 0.07222 0.0
C862 C 0.09639 0.29893 0.07453 0.0
C863 C 0.10446 0.27685 0.08112 0.0
C864 C 0.06507 0.32685 0.06588 0.0
C865 C 0.07346 0.34568 0.07801 0.0
C866 C 0.04936 0.33186 0.04815 0.0
C867 C 0.04083 0.31375 0.03318 0.0
C868 C 0.05581 0.30073 0.02154 0.0
C869 C 0.04767 0.28453 1.00653 0.0
C870 C 0.02458 0.28132 1.0029 0.0
C871 C 1.00956 0.29426 0.0143 0.0
C872 C 0.01761 0.31043 0.02936 0.0
C873 C 0.05434 0.4392 0.03605 0.0
C874 C 0.03163 0.44504 0.03542 0.0
C875 C 0.06065 0.41635 0.04263 0.0
C876 C 0.04442 0.39847 0.04845 0.0
C877 C 0.02167 0.40431 0.04751 0.0
C878 C 0.0154 0.42729 0.04139 0.0
C879 C 0.05118 0.37383 0.05536 0.0
C880 C 0.04253 0.35503 0.04337 0.0
C881 C 0.06673 0.36879 0.07314 0.0
C882 C 0.07559 0.38713 0.08768 0.0
C883 C 0.06085 0.40068 0.09903 0.0
C884 C 0.0693 0.41763 0.11309 0.0
C885 C 0.09247 0.42107 0.11606 0.0
C886 C 0.10724 0.40756 0.10496 0.0
C887 C 0.09887 0.39062 0.09086 0.0
H888 H 0.09898 0.43415 0.127 0.0
H889 H 0.01831 0.26887 0.99118 0.0
H890 H 0.62521 0.24782 0.9438 0.0
H891 H 0.60981 0.20882 0.95457 0.0
H892 H 0.54363 0.23558 0.95794 0.0
H893 H 0.55911 0.27508 0.94724 0.0
H894 H 0.55364 0.20306 0.99498 0.0
H895 H 0.55612 0.20568 0.91348 0.0
H896 H 0.57398 0.21241 0.87626 0.0
H897 H 0.62366 0.16296 0.89592 0.0
H898 H 0.6062 0.15613 0.93334 0.0
H899 H 0.49645 0.09085 0.99964 0.0
H900 H 0.50907 0.1314 0.98963 0.0
H901 H 0.57481 0.10827 0.9746 0.0
H902 H 0.56198 0.06782 0.98426 0.0
H903 H 0.56393 0.1397 0.94373 0.0
H904 H 0.5639 0.13578 0.02365 0.0
H905 H 0.54874 0.12775 0.06192 0.0
H906 H 0.49853 0.17813 0.04792 0.0
H907 H 0.51321 0.18623 1.00941 0.0
C908 C 0.60737 0.24557 0.94691 0.0
C909 C 0.59348 0.26481 0.94462 0.0
C910 C 0.59853 0.2231 0.953 0.0
C911 C 0.57548 0.21902 0.95702 0.0
C912 C 0.56148 0.23816 0.95496 0.0
C913 C 0.57032 0.26075 0.94862 0.0
C914 C 0.56622 0.19467 0.96281 0.0
C915 C 0.55551 0.1893 0.98358 0.0
C916 C 0.56936 0.17631 0.94851 0.0
C917 C 0.57999 0.18057 0.9262 0.0
C918 C 0.57097 0.1964 0.9099 0.0
C919 C 0.58099 0.20019 0.88877 0.0
C920 C 0.59998 0.18816 0.88374 0.0
C921 C 0.60897 0.17229 0.89983 0.0
C922 C 0.59901 0.16843 0.92099 0.0
C923 C 0.51345 0.09449 0.99377 0.0
C924 C 0.5281 0.07621 0.99215 0.0
C925 C 0.52079 0.1177 0.98836 0.0
C926 C 0.54305 0.12317 0.98151 0.0
C927 C 0.55756 0.10472 0.97971 0.0
C928 C 0.55021 0.08155 0.98509 0.0
C929 C 0.55118 0.14795 0.97586 0.0
C930 C 0.56183 0.15341 0.95514 0.0
C931 C 0.54838 0.16619 0.99046 0.0
C932 C 0.53947 0.16141 1.01356 0.0
C933 C 0.54949 0.145 0.02866 0.0
C934 C 0.54102 0.14046 0.05041 0.0
C935 C 0.52264 0.15237 0.05732 0.0
C936 C 0.51274 0.16889 0.04252 0.0
C937 C 0.52114 0.17347 0.02073 0.0
H938 H 0.5161 0.14884 0.07417 0.0
H939 H 0.6077 0.1911 0.86736 0.0
H940 H 0.93116 0.76246 0.48604 0.0
H941 H 0.94269 0.80204 0.49407 0.0
H942 H 0.99953 0.79949 0.45022 0.0
H943 H 0.98903 0.75897 0.4434 0.0
H944 H 1.0116 0.82143 0.48625 0.0
H945 H 0.94913 0.82774 0.43369 0.0
H946 H 0.91055 0.81819 0.42071 0.0
H947 H 0.88412 0.84476 0.48042 0.0
H948 H 0.92256 0.85423 0.49386 0.0
H949 H 0.03574 0.94322 0.48349 0.0
H950 H 0.02597 0.90369 0.47254 0.0
H951 H 0.96539 0.90285 0.51177 0.0
H952 H 0.97435 0.94294 0.52119 0.0
H953 H 0.9558 0.88284 0.47598 0.0
H954 H 0.01618 0.87444 0.53014 0.0
H955 H 0.054 0.88473 0.54472 0.0
H956 H 0.08339 0.86193 0.48471 0.0
H957 H 0.04569 0.8518 0.46966 0.0
C958 C 0.9464 0.77001 0.4784 0.0
C959 C 0.95915 0.7573 0.46405 0.0
C960 C 0.95277 0.79292 0.48274 0.0
C961 C 0.97169 0.80406 0.47233 0.0
C962 C 0.98473 0.79138 0.4583 0.0
C963 C 0.97856 0.76825 0.45422 0.0
C964 C 0.97772 0.82893 0.47607 0.0
C965 C 0.99948 0.8349 0.48367 0.0
C966 C 0.96182 0.84653 0.47327 0.0
C967 C 0.93871 0.84161 0.4648 0.0
C968 C 0.93508 0.83153 0.44404 0.0
C969 C 0.91325 0.82611 0.43662 0.0
C970 C 0.8949 0.83085 0.44974 0.0
C971 C 0.89834 0.84112 0.47027 0.0
C972 C 0.92014 0.84656 0.47777 0.0
C973 C 0.02045 0.93444 0.48985 0.0
C974 C 1.00595 0.94588 0.50342 0.0
C975 C 0.01485 0.91185 0.48364 0.0
C976 C 0.99514 0.89993 0.49172 0.0
C977 C 0.98067 0.91152 0.50528 0.0
C978 C 0.98589 0.93436 0.51083 0.0
C979 C 0.98964 0.87533 0.48638 0.0
C980 C 0.96797 0.86941 0.47846 0.0
C981 C 1.0055 0.85771 0.48919 0.0
C982 C 0.02817 0.86246 0.49877 0.0
C983 C 0.03073 0.87157 0.5201 0.0
C984 C 0.05213 0.87743 0.52841 0.0
C985 C 0.07109 0.874 0.51564 0.0
C986 C 0.06869 0.86456 0.49459 0.0
C987 C 0.04732 0.85872 0.48618 0.0
H988 H 0.08764 0.87865 0.52206 0.0
H989 H 0.87801 0.82658 0.444 0.0
H990 H 0.45007 0.7658 0.55233 0.0
H991 H 0.46022 0.72816 0.53884 0.0
H992 H 0.46601 0.70024 0.60783 0.0
H993 H 0.45673 0.73778 0.62115 0.0
H994 H 0.50014 0.68876 0.58602 0.0
H995 H 0.42053 0.68791 0.57148 0.0
H996 H 0.38482 0.70108 0.55478 0.0
H997 H 0.41033 0.69461 0.48826 0.0
H998 H 0.44637 0.68188 0.50457 0.0
H999 H 0.48998 0.56571 0.57276 0.0
H1000 H 0.48225 0.6057 0.58181 0.0
H1001 H 0.49646 0.63003 0.51301 0.0
H1002 H 0.50499 0.59029 0.5042 0.0
H1003 H 0.45463 0.64436 0.53157 0.0
H1004 H 0.53356 0.64205 0.54773 0.0
H1005 H 0.56784 0.62669 0.5657 0.0
H1006 H 0.54167 0.63705 0.63117 0.0
H1007 H 0.507 0.65202 0.61361 0.0
C1008 C 0.45341 0.75149 0.56448 0.0
C1009 C 0.45282 0.75458 0.58773 0.0
C1010 C 0.45914 0.73004 0.55682 0.0
C1011 C 0.46383 0.71133 0.57234 0.0
C1012 C 0.46269 0.71443 0.59553 0.0
C1013 C 0.45734 0.73584 0.60314 0.0
C1014 C 0.47049 0.68857 0.56481 0.0
C1015 C 0.49002 0.67899 0.57428 0.0
C1016 C 0.45768 0.67604 0.54902 0.0
C1017 C 0.43626 0.68433 0.53924 0.0
C1018 C 0.41863 0.68962 0.55329 0.0
C1019 C 0.39832 0.69695 0.5439 0.0
C1020 C 0.39534 0.69878 0.52047 0.0
C1021 C 0.41269 0.69329 0.5064 0.0
C1022 C 0.43307 0.68606 0.51571 0.0
C1023 C 0.49131 0.57967 0.55965 0.0
C1024 C 0.49786 0.57521 0.53782 0.0
C1025 C 0.48708 0.60239 0.56482 0.0
C1026 C 0.48891 0.62068 0.54805 0.0
C1027 C 0.49508 0.61609 0.52613 0.0
C1028 C 0.49988 0.59352 0.52114 0.0
C1029 C 0.48379 0.64455 0.55323 0.0
C1030 C 0.4647 0.65431 0.54322 0.0
C1031 C 0.49679 0.65708 0.56876 0.0
C1032 C 0.51754 0.64785 0.57935 0.0
C1033 C 0.53497 0.64076 0.56597 0.0
C1034 C 0.55451 0.63218 0.57608 0.0
C1035 C 0.5569 0.6308 0.59957 0.0
C1036 C 0.53977 0.63805 0.61298 0.0
C1037 C 0.52017 0.64658 0.60296 0.0
H1038 H 0.57204 0.62418 0.60736 0.0
H1039 H 0.37957 0.70438 0.51323 0.0
H1040 H 0.92368 0.97338 0.76742 0.0
H1041 H 0.93764 0.98688 0.73004 0.0
H1042 H 0.96573 0.92017 0.72273 0.0
H1043 H 0.95179 0.9065 0.75991 0.0
H1044 H 0.9943 0.95294 0.70515 0.0
H1045 H 0.91429 0.93825 0.69642 0.0
H1046 H 0.87481 0.94361 0.70604 0.0
H1047 H 0.88314 0.01695 0.68836 0.0
H1048 H 0.9228 0.01205 0.67898 0.0
H1049 H 0.01529 0.96533 0.58655 0.0
H1050 H 1.00373 0.95368 0.62509 0.0
H1051 H 0.96235 0.01338 0.62493 0.0
H1052 H 0.97226 0.02353 0.58548 0.0
H1053 H 0.94119 0.98527 0.64771 0.0
H1054 H 0.02035 1.00182 0.65596 0.0
H1055 H 0.06085 0.99874 0.64925 0.0
H1056 H 0.0561 0.92589 0.66998 0.0
H1057 H 0.01553 0.92846 0.67649 0.0
C1058 C 0.93263 0.96138 0.75791 0.0
C1059 C 0.93625 0.93859 0.76721 0.0
C1060 C 0.94075 0.96923 0.7363 0.0
C1061 C 0.95263 0.95458 0.72289 0.0
C1062 C 0.95672 0.93206 0.73234 0.0
C1063 C 0.94866 0.92422 0.75393 0.0
C1064 C 0.96018 0.96228 0.69894 0.0
C1065 C 0.98259 0.95981 0.69255 0.0
C1066 C 0.94543 0.97201 0.68224 0.0
C1067 C 0.92148 0.97481 0.68715 0.0
C1068 C 0.90769 0.95552 0.69464 0.0
C1069 C 0.8853 0.95848 0.70008 0.0
C1070 C 0.87648 0.98061 0.69784 0.0
C1071 C 0.89 0.99982 0.69009 0.0
C1072 C 0.91242 0.99697 0.6847 0.0
C1073 C 1.00368 0.97598 0.59471 0.0
C1074 C 0.99479 0.99545 0.58264 0.0
C1075 C 0.99723 0.96947 0.61717 0.0
C1076 C 0.98247 0.98283 0.62903 0.0
C1077 C 0.97368 1.00241 0.61682 0.0
C1078 C 0.97946 0.00838 0.59404 0.0
C1079 C 0.97559 0.97614 0.65357 0.0
C1080 C 0.95317 0.97866 0.66015 0.0
C1081 C 0.99053 0.96688 0.67056 0.0
C1082 C 0.01487 0.96529 0.66648 0.0
C1083 C 0.02792 0.98512 0.65893 0.0
C1084 C 0.05089 0.98346 0.65518 0.0
C1085 C 0.06102 0.96212 0.65913 0.0
C1086 C 0.04822 0.94239 0.66688 0.0
C1087 C 0.02525 0.94394 0.6706 0.0
H1088 H 0.07881 0.96088 0.65624 0.0
H1089 H 0.85914 0.98287 0.70209 0.0
H1090 H 0.54087 0.10823 0.29514 0.0
H1091 H 0.53248 0.08977 0.26015 0.0
H1092 H 0.60211 0.07342 0.25475 0.0
H1093 H 0.61097 0.09353 0.28891 0.0
H1094 H 0.58907 0.09293 0.21746 0.0
H1095 H 0.55589 0.02996 0.26568 0.0
H1096 H 0.53081 0.01183 0.29516 0.0
H1097 H 0.47351 0.03852 0.25913 0.0
H1098 H 0.49827 0.05692 0.22955 0.0
H1099 H 0.57934 0.02778 0.12328 0.0
H1100 H 0.58343 0.03748 0.16258 0.0
H1101 H 0.51496 0.05908 0.16193 0.0
H1102 H 0.51075 0.0487 0.12241 0.0
H1103 H 0.52602 0.03697 0.20196 0.0
H1104 H 0.55769 0.09938 0.15421 0.0
H1105 H 0.58153 0.11803 0.12399 0.0
H1106 H 0.64051 0.09407 0.15899 0.0
H1107 H 0.61698 0.07498 0.18925 0.0
C1108 C 0.55446 0.10076 0.28651 0.0
C1109 C 0.57668 0.1028 0.29467 0.0
C1110 C 0.54952 0.08976 0.26667 0.0
C1111 C 0.5666 0.07996 0.25483 0.0
C1112 C 0.58862 0.08084 0.26358 0.0
C1113 C 0.59365 0.09221 0.28325 0.0
C1114 C 0.56202 0.07122 0.23214 0.0
C1115 C 0.57556 0.08029 0.21426 0.0
C1116 C 0.54371 0.05563 0.22758 0.0
C1117 C 0.52893 0.04496 0.24556 0.0
C1118 C 0.53796 0.03211 0.26418 0.0
C1119 C 0.5238 0.02174 0.28086 0.0
C1120 C 0.50059 0.02407 0.27905 0.0
C1121 C 0.49148 0.03675 0.26053 0.0
C1122 C 0.50556 0.04711 0.24379 0.0
C1123 C 0.56508 0.03422 0.13172 0.0
C1124 C 0.54481 0.03767 0.11999 0.0
C1125 C 0.56744 0.03987 0.15405 0.0
C1126 C 0.54969 0.04956 0.16495 0.0
C1127 C 0.52891 0.05176 0.15372 0.0
C1128 C 0.52646 0.04577 0.13129 0.0
C1129 C 0.55342 0.05825 0.18767 0.0
C1130 C 0.53963 0.04941 0.20538 0.0
C1131 C 0.57138 0.07423 0.1921 0.0
C1132 C 0.58556 0.08557 0.17387 0.0
C1133 C 0.57573 0.09792 0.15535 0.0
C1134 C 0.58919 0.1086 0.13824 0.0
C1135 C 0.61252 0.10719 0.13954 0.0
C1136 C 0.62244 0.09512 0.15798 0.0
C1137 C 0.60905 0.08438 0.17512 0.0
H1138 H 0.62291 0.11549 0.12628 0.0
H1139 H 0.48965 0.01601 0.29198 0.0
H1140 H 0.45019 0.55408 0.2648 0.0
H1141 H 0.46405 0.54075 0.30242 0.0
H1142 H 0.43259 0.59803 0.3311 0.0
H1143 H 0.41977 0.61178 0.29341 0.0
H1144 H 0.47037 0.59452 0.35022 0.0
H1145 H 0.41263 0.53575 0.33434 0.0
H1146 H 0.39435 0.50438 0.31338 0.0
H1147 H 0.45324 0.46421 0.32216 0.0
H1148 H 0.47201 0.49553 0.34282 0.0
H1149 H 0.46826 0.55263 0.46697 0.0
H1150 H 0.45765 0.56447 0.42779 0.0
H1151 H 0.50157 0.5142 0.40359 0.0
H1152 H 0.51273 0.503 0.44266 0.0
H1153 H 0.46024 0.51299 0.3817 0.0
H1154 H 0.51727 0.56906 0.39865 0.0
H1155 H 0.5376 0.5999 0.41858 0.0
H1156 H 0.48226 0.64463 0.407 0.0
H1157 H 0.46137 0.61386 0.38741 0.0
C1158 C 0.44608 0.56362 0.27922 0.0
C1159 C 0.43358 0.58378 0.2762 0.0
C1160 C 0.45395 0.55596 0.30084 0.0
C1161 C 0.44914 0.56802 0.32008 0.0
C1162 C 0.43663 0.58821 0.31684 0.0
C1163 C 0.42909 0.59602 0.29525 0.0
C1164 C 0.45731 0.56016 0.34349 0.0
C1165 C 0.46771 0.57673 0.35714 0.0
C1166 C 0.45498 0.53674 0.35259 0.0
C1167 C 0.4438 0.5181 0.33989 0.0
C1168 C 0.42175 0.52033 0.33161 0.0
C1169 C 0.4113 0.50254 0.3198 0.0
C1170 C 0.42265 0.48234 0.31638 0.0
C1171 C 0.44448 0.47989 0.32476 0.0
C1172 C 0.45504 0.49765 0.33651 0.0
C1173 C 0.47542 0.54396 0.45327 0.0
C1174 C 0.49107 0.52665 0.4579 0.0
C1175 C 0.46952 0.55087 0.43084 0.0
C1176 C 0.47881 0.54032 0.41252 0.0
C1177 C 0.49411 0.52266 0.41726 0.0
C1178 C 0.50044 0.5162 0.43963 0.0
C1179 C 0.47247 0.54752 0.38851 0.0
C1180 C 0.46265 0.5308 0.37476 0.0
C1181 C 0.47545 0.57075 0.37928 0.0
C1182 C 0.48759 0.58898 0.39185 0.0
C1183 C 0.50926 0.58532 0.40067 0.0
C1184 C 0.52093 0.60283 0.41184 0.0
C1185 C 0.5112 0.62418 0.41413 0.0
C1186 C 0.48975 0.62805 0.40529 0.0
C1187 C 0.47798 0.61056 0.39417 0.0
H1188 H 0.5203 0.63776 0.42269 0.0
H1189 H 0.41451 0.46857 0.30729 0.0
H1190 H 0.06201 0.40636 0.74838 0.0
H1191 H 0.05326 0.41588 0.78687 0.0
H1192 H 0.08088 0.48568 0.77301 0.0
H1193 H 0.08887 0.47668 0.73442 0.0
H1194 H 0.09962 0.46298 0.81121 0.0
H1195 H 0.0278 0.47963 0.77991 0.0
H1196 H 0.99226 0.47287 0.75922 0.0
H1197 H 0.97446 0.41531 0.80605 0.0
H1198 H 1.0101 0.4215 0.82683 0.0
H1199 H 0.06419 0.51805 0.90836 0.0
H1200 H 0.07472 0.50502 0.8716 0.0
H1201 H 0.0402 0.43867 0.8875 0.0
H1202 H 0.02953 0.4521 0.92422 0.0
H1203 H 0.0255 0.45827 0.84854 0.0
H1204 H 0.09827 0.44325 0.8805 0.0
H1205 H 0.13354 0.45215 0.90097 0.0
H1206 H 0.14914 0.50906 0.85263 0.0
H1207 H 0.11384 0.50064 0.83201 0.0
C1208 C 0.0657 0.4239 0.75332 0.0
C1209 C 0.07651 0.44062 0.73838 0.0
C1210 C 0.0608 0.42928 0.77537 0.0
C1211 C 0.06668 0.4514 0.78283 0.0
C1212 C 0.07647 0.46841 0.76766 0.0
C1213 C 0.08111 0.46317 0.74563 0.0
C1214 C 0.06406 0.45643 0.80681 0.0
C1215 C 0.08339 0.46215 0.81936 0.0
C1216 C 0.04295 0.45494 0.81747 0.0
C1217 C 0.02178 0.4508 0.80472 0.0
C1218 C 0.01646 0.46532 0.78561 0.0
C1219 C 0.99626 0.46165 0.77391 0.0
C1220 C 0.98115 0.44361 0.78126 0.0
C1221 C 0.98621 0.42922 0.80034 0.0
C1222 C 1.00641 0.43281 0.81208 0.0
C1223 C 0.05978 0.50036 0.90426 0.0
C1224 C 0.04654 0.48583 0.91907 0.0
C1225 C 0.06566 0.49293 0.88328 0.0
C1226 C 0.05831 0.47081 0.87678 0.0
C1227 C 0.04611 0.45577 0.89218 0.0
C1228 C 0.04027 0.46325 0.9132 0.0
C1229 C 0.06112 0.46452 0.85312 0.0
C1230 C 0.04179 0.45876 0.84053 0.0
C1231 C 0.08222 0.46617 0.84237 0.0
C1232 C 0.10335 0.47141 0.85483 0.0
C1233 C 0.10914 0.45777 0.87435 0.0
C1234 C 0.12916 0.46271 0.88595 0.0
C1235 C 0.14355 0.48119 0.87813 0.0
C1236 C 0.13797 0.49476 0.85867 0.0
C1237 C 0.11798 0.48989 0.84701 0.0
H1238 H 0.15905 0.48496 0.88713 0.0
H1239 H 0.96549 0.44082 0.77221 0.0
H1240 H 0.7399 0.90537 0.94305 0.0
H1241 H 0.70378 0.91722 0.95651 0.0
H1242 H 0.73183 0.98627 0.96483 0.0
H1243 H 0.76822 0.97448 0.95174 0.0
H1244 H 0.70234 0.97272 1.00016 0.0
H1245 H 0.69796 0.97687 0.91969 0.0
H1246 H 0.703 0.96117 0.8825 0.0
H1247 H 0.6561 0.90442 0.90018 0.0
H1248 H 0.651 0.91969 0.93762 0.0
H1249 H 0.59445 0.02128 0.01571 0.0
H1250 H 0.63233 0.01226 1.00485 0.0
H1251 H 0.60547 0.95166 0.97293 0.0
H1252 H 0.56739 0.96236 0.98177 0.0
H1253 H 0.63639 0.96237 0.94961 0.0
H1254 H 0.64138 0.95826 0.03167 0.0
H1255 H 0.63956 0.97288 0.06976 0.0
H1256 H 0.68691 0.02873 0.05056 0.0
H1257 H 0.68883 0.01456 1.01232 0.0
C1258 C 0.73872 0.92304 0.94796 0.0
C1259 C 0.75759 0.93879 0.94588 0.0
C1260 C 0.7177 0.92994 0.95559 0.0
C1261 C 0.71445 0.9529 0.96165 0.0
C1262 C 0.73339 0.96848 0.96034 0.0
C1263 C 0.75441 0.96165 0.95253 0.0
C1264 C 0.69122 0.96071 0.96824 0.0
C1265 C 0.68795 0.97059 0.989 0.0
C1266 C 0.67198 0.95799 0.95416 0.0
C1267 C 0.67416 0.94934 0.93141 0.0
C1268 C 0.68872 0.96104 0.91561 0.0
C1269 C 0.69162 0.95221 0.89453 0.0
C1270 C 0.67989 0.93179 0.88899 0.0
C1271 C 0.66516 0.92024 0.9045 0.0
C1272 C 0.66222 0.92899 0.92563 0.0
C1273 C 0.59657 1.00602 1.00631 0.0
C1274 C 0.57746 0.99264 0.99972 0.0
C1275 C 0.61864 1.00049 1.00033 0.0
C1276 C 0.62287 0.98054 0.98846 0.0
C1277 C 0.60357 0.96717 0.98197 0.0
C1278 C 0.58144 0.97326 0.98717 0.0
C1279 C 0.64685 0.97386 0.98218 0.0
C1280 C 0.65045 0.96433 0.96118 0.0
C1281 C 0.66638 0.97687 0.99621 0.0
C1282 C 0.66505 0.98549 0.0191 0.0
C1283 C 0.65128 0.97374 0.03556 0.0
C1284 C 0.65026 0.98193 0.05717 0.0
C1285 C 0.66306 1.00176 0.06256 0.0
C1286 C 0.67696 0.01341 0.04636 0.0
C1287 C 0.67804 1.0053 0.02472 0.0
H1288 H 0.66225 1.00806 0.0793 0.0
H1289 H 0.68221 0.92494 0.87267 0.0
H1290 H 0.75524 0.14032 0.44054 0.0
H1291 H 0.79296 0.12974 0.45307 0.0
H1292 H 0.76742 0.06068 0.4743 0.0
H1293 H 0.72963 0.07117 0.46189 0.0
H1294 H 0.79875 0.07976 0.50479 0.0
H1295 H 0.79061 0.06592 0.42659 0.0
H1296 H 0.78122 0.07582 0.38667 0.0
H1297 H 0.83251 0.1306 0.38416 0.0
H1298 H 0.84196 0.12122 0.42423 0.0
H1299 H 0.89189 0.00973 0.50058 0.0
H1300 H 0.85606 0.02825 0.49371 0.0
H1301 H 0.8914 0.09399 0.47712 0.0
H1302 H 0.9275 0.0752 0.48418 0.0
H1303 H 0.85654 0.08024 0.4452 0.0
H1304 H 0.86565 0.09032 0.52492 0.0
H1305 H 0.87541 0.07567 0.5636 0.0
H1306 H 0.82204 0.02327 0.56165 0.0
H1307 H 0.81211 0.03752 0.52286 0.0
C1308 C 0.7576 0.12306 0.44834 0.0
C1309 C 0.7396 0.1065 0.4502 0.0
C1310 C 0.77912 0.11702 0.45532 0.0
C1311 C 0.78287 0.09441 0.46438 0.0
C1312 C 0.76476 0.07821 0.46733 0.0
C1313 C 0.74328 0.08417 0.46016 0.0
C1314 C 0.80589 0.08722 0.46954 0.0
C1315 C 0.81138 0.07988 0.49178 0.0
C1316 C 0.82232 0.08747 0.45253 0.0
C1317 C 0.81678 0.0931 0.42845 0.0
C1318 C 0.79973 0.08023 0.41758 0.0
C1319 C 0.79443 0.08571 0.39493 0.0
C1320 C 0.80621 0.10389 0.38291 0.0
C1321 C 0.82337 0.11656 0.39351 0.0
C1322 C 0.82871 0.11117 0.41619 0.0
C1323 C 0.89187 0.02821 0.49589 0.0
C1324 C 0.91214 0.04124 0.49323 0.0
C1325 C 0.87154 0.03873 0.49189 0.0
C1326 C 0.87119 0.06247 0.48506 0.0
C1327 C 0.89145 0.07566 0.48251 0.0
C1328 C 0.9119 0.0651 0.48679 0.0
C1329 C 0.84942 0.07309 0.48049 0.0
C1330 C 0.84407 0.08078 0.4583 0.0
C1331 C 0.833 0.07284 0.49744 0.0
C1332 C 0.83814 0.06499 0.52109 0.0
C1333 C 0.85599 0.0757 0.53279 0.0
C1334 C 0.86156 0.06745 0.5547 0.0
C1335 C 0.84934 0.04855 0.56508 0.0
C1336 C 0.83145 0.03794 0.55361 0.0
C1337 C 0.82579 0.04615 0.5317 0.0
H1338 H 0.85374 0.04213 0.58202 0.0
H1339 H 0.80208 0.10811 0.36536 0.0
H1340 H 0.26564 0.54724 0.0942 0.0
H1341 H 0.22898 0.53686 0.07811 0.0
H1342 H 0.21067 0.60843 0.07818 0.0
H1343 H 0.24697 0.6188 0.09524 0.0
H1344 H 0.1776 0.58214 0.09439 0.0
H1345 H 0.22265 0.57802 0.02789 0.0
H1346 H 0.25264 0.56443 1.00437 0.0
H1347 H 0.2268 0.4939 0.01538 0.0
H1348 H 0.19684 0.50704 0.0392 0.0
H1349 H 0.07218 0.56804 0.03867 0.0
H1350 H 0.11048 0.57967 0.04987 0.0
H1351 H 0.1319 0.51072 0.03853 0.0
H1352 H 0.09391 0.49999 0.02532 0.0
H1353 H 0.16412 0.53563 0.02783 0.0
H1354 H 0.12085 0.53722 0.09512 0.0
H1355 H 0.09124 0.54855 0.12041 0.0
H1356 H 0.1142 0.6202 0.11112 0.0
H1357 H 0.14368 0.60935 0.0855 0.0
C1358 C 0.25388 0.56089 0.09093 0.0
C1359 C 0.25959 0.58396 0.09644 0.0
C1360 C 0.23284 0.55491 0.08131 0.0
C1361 C 0.21673 0.57178 0.07659 0.0
C1362 C 0.22257 0.59492 0.08154 0.0
C1363 C 0.2436 0.60092 0.0912 0.0
C1364 C 0.1934 0.56523 0.06796 0.0
C1365 C 0.17472 0.57227 0.07959 0.0
C1366 C 0.18922 0.55144 0.04922 0.0
C1367 C 0.20767 0.5435 0.03553 0.0
C1368 C 0.22353 0.55959 0.02551 0.0
C1369 C 0.24049 0.55197 1.01207 0.0
C1370 C 0.24167 0.52831 1.00844 0.0
C1371 C 0.22591 0.51221 0.01825 0.0
C1372 C 0.20894 0.51974 0.03171 0.0
C1373 C 0.08517 0.55547 0.03836 0.0
C1374 C 0.07999 0.53314 0.03096 0.0
C1375 C 0.10716 0.562 0.04516 0.0
C1376 C 0.12453 0.54601 0.04592 0.0
C1377 C 0.11922 0.52365 0.03828 0.0
C1378 C 0.09738 0.51742 0.0307 0.0
C1379 C 0.1481 0.55255 0.05428 0.0
C1380 C 0.16687 0.54548 0.04265 0.0
C1381 C 0.15241 0.56591 0.07337 0.0
C1382 C 0.13427 0.5725 0.08819 0.0
C1383 C 0.11941 0.55542 0.09829 0.0
C1384 C 0.10268 0.56175 0.11271 0.0
C1385 C 0.1008 0.58509 0.11731 0.0
C1386 C 0.11563 0.60215 0.10749 0.0
C1387 C 0.13233 0.59592 0.09301 0.0
H1388 H 0.08788 0.58994 0.12854 0.0
H1389 H 0.25477 0.52246 0.99797 0.0
H1390 H 0.22452 0.47144 0.58769 0.0
H1391 H 0.26422 0.48394 0.58276 0.0
H1392 H 0.27723 0.41804 0.55579 0.0
H1393 H 0.23815 0.40534 0.56124 0.0
H1394 H 0.30819 0.4287 0.58551 0.0
H1395 H 0.27195 0.46848 0.52203 0.0
H1396 H 0.24622 0.49544 0.50216 0.0
H1397 H 0.27686 0.55262 0.53599 0.0
H1398 H 0.30251 0.52589 0.55636 0.0
H1399 H 0.4109 0.44392 0.53222 0.0
H1400 H 0.37039 0.4393 0.53792 0.0
H1401 H 0.37027 0.50785 0.56346 0.0
H1402 H 0.41092 0.51278 0.5567 0.0
H1403 H 0.33335 0.49921 0.53864 0.0
H1404 H 0.37197 0.45844 0.59975 0.0
H1405 H 0.39931 0.43101 0.61614 0.0
H1406 H 0.36483 0.37478 0.58411 0.0
H1407 H 0.33746 0.40194 0.56727 0.0
C1408 C 0.23593 0.45967 0.58078 0.0
C1409 C 0.2282 0.43753 0.57458 0.0
C1410 C 0.25851 0.46687 0.57782 0.0
C1411 C 0.2736 0.45199 0.5687 0.0
C1412 C 0.26588 0.42984 0.56278 0.0
C1413 C 0.24347 0.42269 0.5657 0.0
C1414 C 0.29761 0.45894 0.56557 0.0
C1415 C 0.31365 0.44408 0.57518 0.0
C1416 C 0.3048 0.47929 0.55258 0.0
C1417 C 0.28885 0.49515 0.54099 0.0
C1418 C 0.27296 0.48674 0.52548 0.0
C1419 C 0.25845 0.50199 0.51408 0.0
C1420 C 0.25983 0.52571 0.51789 0.0
C1421 C 0.27573 0.53423 0.53313 0.0
C1422 C 0.29024 0.51904 0.54462 0.0
C1423 C 0.40204 0.45809 0.53865 0.0
C1424 C 0.41373 0.4786 0.54419 0.0
C1425 C 0.37904 0.45542 0.54207 0.0
C1426 C 0.3675 0.47295 0.55177 0.0
C1427 C 0.37896 0.49405 0.55615 0.0
C1428 C 0.40202 0.4969 0.55225 0.0
C1429 C 0.34374 0.46869 0.55812 0.0
C1430 C 0.32783 0.48405 0.54925 0.0
C1431 C 0.3366 0.44868 0.57166 0.0
C1432 C 0.35272 0.43224 0.58222 0.0
C1433 C 0.37026 0.44023 0.59617 0.0
C1434 C 0.38577 0.42474 0.60552 0.0
C1435 C 0.38381 0.40117 0.60116 0.0
C1436 C 0.36631 0.39304 0.58749 0.0
C1437 C 0.35078 0.40846 0.57807 0.0
H1438 H 0.39585 0.3892 0.6084 0.0
H1439 H 0.24864 0.53751 0.50897 0.0
H1440 H 0.96692 0.7724 0.92963 0.0
H1441 H 0.98291 0.73503 0.94186 0.0
H1442 H 0.92188 0.71423 0.97713 0.0
H1443 H 0.906 0.75138 0.96524 0.0
H1444 H 0.95474 0.69986 1.00233 0.0
H1445 H 0.93889 0.69477 0.92233 0.0
H1446 H 0.94275 0.70712 0.88196 0.0
H1447 H 0.01388 0.69835 0.88658 0.0
H1448 H 1.01047 0.68635 0.92707 0.0
H1449 H 0.96805 0.57823 0.02182 0.0
H1450 H 0.95617 0.61728 1.01012 0.0
H1451 H 0.01479 0.62841 0.96827 0.0
H1452 H 0.02541 0.58836 0.97842 0.0
H1453 H 0.98628 0.64946 0.94714 0.0
H1454 H 1.00385 0.65347 0.02552 0.0
H1455 H 1.00194 0.64121 0.06605 0.0
H1456 H 0.93135 0.6533 0.06571 0.0
H1457 H 0.93277 0.66526 0.02509 0.0
C1458 C 0.95677 0.75986 0.93985 0.0
C1459 C 0.93496 0.76536 0.94627 0.0
C1460 C 0.966 0.73827 0.9469 0.0
C1461 C 0.95366 0.72114 0.96032 0.0
C1462 C 0.93204 0.72678 0.96691 0.0
C1463 C 0.9229 0.74832 0.96004 0.0
C1464 C 0.96279 0.69737 0.96739 0.0
C1465 C 0.96144 0.68882 0.99013 0.0
C1466 C 0.97247 0.68282 0.95201 0.0
C1467 C 0.97446 0.68994 0.92772 0.0
C1468 C 0.95536 0.69565 0.91475 0.0
C1469 C 0.95747 0.70258 0.89186 0.0
C1470 C 0.97855 0.70359 0.88173 0.0
C1471 C 0.99757 0.69763 0.89446 0.0
C1472 C 0.99556 0.69078 0.91737 0.0
C1473 C 0.97846 0.58902 1.01015 0.0
C1474 C 0.99783 0.58004 1.00127 0.0
C1475 C 0.97177 0.6117 1.00359 0.0
C1476 C 0.9848 0.62681 0.98873 0.0
C1477 C 1.0042 0.61766 0.97978 0.0
C1478 C 1.01042 0.59462 0.9857 0.0
C1479 C 0.97798 0.65166 0.98212 0.0
C1480 C 0.97979 0.66047 0.95947 0.0
C1481 C 0.96915 0.66664 0.99771 0.0
C1482 C 0.96839 0.66008 0.02224 0.0
C1483 C 0.98791 0.65345 0.03409 0.0
C1484 C 0.98691 0.64653 0.05706 0.0
C1485 C 0.96652 0.64642 0.06843 0.0
C1486 C 0.94712 0.65335 0.05687 0.0
C1487 C 0.94802 0.66022 0.03388 0.0
H1488 H 0.96576 0.64101 0.08621 0.0
H1489 H 0.98014 0.70894 0.864 0.0
H1490 H 0.44219 0.768 0.13342 0.0
H1491 H 0.45886 0.80633 0.12184 0.0
H1492 H 0.44738 0.79273 0.052 0.0
H1493 H 0.43174 0.75392 0.06337 0.0
H1494 H 0.48553 0.81646 0.0549 0.0
H1495 H 0.4122 0.82651 0.08063 0.0
H1496 H 0.38018 0.82193 0.1066 0.0
H1497 H 0.41825 0.8582 0.15634 0.0
H1498 H 0.45068 0.86261 0.13078 0.0
H1499 H 0.49051 0.93464 1.01176 0.0
H1500 H 0.47877 0.89487 0.02369 0.0
H1501 H 0.49547 0.90818 0.09267 0.0
H1502 H 0.50703 0.94865 0.08077 0.0
H1503 H 0.45533 0.88446 0.08983 0.0
H1504 H 0.52902 0.87519 0.05905 0.0
H1505 H 0.55757 0.88056 0.02926 0.0
H1506 H 0.5141 0.8439 0.98409 0.0
H1507 H 0.48517 0.8386 1.01351 0.0
C1508 C 0.44354 0.77286 0.11557 0.0
C1509 C 0.43521 0.75766 0.09945 0.0
C1510 C 0.4529 0.79505 0.10893 0.0
C1511 C 0.45402 0.80288 0.08599 0.0
C1512 C 0.44662 0.78739 0.06982 0.0
C1513 C 0.43738 0.76516 0.07642 0.0
C1514 C 0.46209 0.8274 0.07898 0.0
C1515 C 0.47877 0.83129 0.06248 0.0
C1516 C 0.4534 0.84703 0.08861 0.0
C1517 C 0.43393 0.84464 0.10393 0.0
C1518 C 0.4138 0.83335 0.09718 0.0
C1519 C 0.39557 0.83079 0.11182 0.0
C1520 C 0.3972 0.8397 0.13314 0.0
C1521 C 0.41704 0.85126 0.13984 0.0
C1522 C 0.43535 0.85379 0.1253 0.0
C1523 C 0.49186 0.92924 0.02952 0.0
C1524 C 0.4999 0.94503 0.04528 0.0
C1525 C 0.4852 0.90627 0.03631 0.0
C1526 C 0.48653 0.89815 0.05907 0.0
C1527 C 0.4944 0.91387 0.07496 0.0
C1528 C 0.50112 0.93701 0.06814 0.0
C1529 C 0.47913 0.8735 0.0662 0.0
C1530 C 0.46233 0.86961 0.08253 0.0
C1531 C 0.4873 0.85395 0.05592 0.0
C1532 C 0.5049 0.85662 0.03844 0.0
C1533 C 0.52553 0.86835 0.04273 0.0
C1534 C 0.54177 0.87139 0.02591 0.0
C1535 C 0.53764 0.8626 1.00478 0.0
C1536 C 0.51728 0.85069 1.00046 0.0
C1537 C 0.50097 0.84764 0.01721 0.0
H1538 H 0.55023 0.865 0.99177 0.0
H1539 H 0.38307 0.83771 0.14446 0.0
H1540 H 0.06088 0.27817 0.54175 0.0
H1541 H 0.05412 0.23847 0.52917 0.0
H1542 H 0.06478 0.21024 0.59735 0.0
H1543 H 0.07133 0.24961 0.60984 0.0
H1544 H 0.08528 0.18524 0.56738 0.0
H1545 H 1.01297 0.21684 0.57637 0.0
H1546 H 0.9817 0.24314 0.56961 0.0
H1547 H 0.97884 0.22731 0.4999 0.0
H1548 H 1.01045 0.20132 0.50613 0.0
H1549 H 0.03719 0.07057 0.56393 0.0
H1550 H 0.04789 0.11053 0.57245 0.0
H1551 H 0.02339 0.13507 0.50674 0.0
H1552 H 1.01094 0.0952 0.49916 0.0
H1553 H 1.01176 0.16287 0.53343 0.0
H1554 H 0.08389 0.12887 0.52554 0.0
H1555 H 0.11406 0.10151 0.53403 0.0
H1556 H 0.11682 0.12075 0.60272 0.0
H1557 H 0.08644 0.1479 0.59476 0.0
C1558 C 0.06197 0.26341 0.55391 0.0
C1559 C 0.06644 0.26686 0.57678 0.0
C1560 C 0.058 0.2408 0.54677 0.0
C1561 C 0.05871 0.22138 0.56238 0.0
C1562 C 0.06407 0.2249 0.58502 0.0
C1563 C 0.06773 0.24738 0.59216 0.0
C1564 C 0.05334 0.19733 0.55555 0.0
C1565 C 0.06919 0.18027 0.55996 0.0
C1566 C 0.0325 0.19091 0.54559 0.0
C1567 C 0.01434 0.20749 0.54163 0.0
C1568 C 1.00596 0.21931 0.55951 0.0
C1569 C 0.98811 0.23409 0.55579 0.0
C1570 C 0.97836 0.23698 0.53432 0.0
C1571 C 0.98648 0.22515 0.5165 0.0
C1572 C 1.00439 0.21045 0.5201 0.0
C1573 C 0.03386 0.08463 0.55147 0.0
C1574 C 0.02298 0.07998 0.53103 0.0
C1575 C 0.04037 0.10745 0.55617 0.0
C1576 C 0.03709 0.126 0.54004 0.0
C1577 C 0.02618 0.12121 0.51954 0.0
C1578 C 0.01894 0.09846 0.5152 0.0
C1579 C 0.04381 0.15052 0.54487 0.0
C1580 C 0.02811 0.16774 0.54031 0.0
C1581 C 0.06481 0.15701 0.55474 0.0
C1582 C 0.08275 0.14027 0.55958 0.0
C1583 C 0.09079 0.1271 0.5425 0.0
C1584 C 0.10795 0.11165 0.54722 0.0
C1585 C 0.11732 0.10936 0.56891 0.0
C1586 C 0.10953 0.1225 0.58594 0.0
C1587 C 0.09235 0.13791 0.58133 0.0
H1588 H 0.13064 0.09744 0.5725 0.0
H1589 H 0.96444 0.24831 0.53151 0.0
H1590 H 0.56649 0.25739 0.48874 0.0
H1591 H 0.55419 0.29542 0.49882 0.0
H1592 H 0.5749 0.32563 0.43365 0.0
H1593 H 0.5874 0.2878 0.42355 0.0
H1594 H 0.59271 0.34926 0.46973 0.0
H1595 H 0.52076 0.31788 0.4449 0.0
H1596 H 0.48849 0.28963 0.44485 0.0
H1597 H 0.47638 0.3002 0.51451 0.0
H1598 H 0.50883 0.32822 0.51509 0.0
H1599 H 0.55333 0.46249 0.47477 0.0
H1600 H 0.56162 0.42338 0.46428 0.0
H1601 H 0.52628 0.39367 0.52309 0.0
H1602 H 0.51652 0.43268 0.53248 0.0
H1603 H 0.51604 0.36889 0.49127 0.0
H1604 H 0.58679 0.39918 0.51787 0.0
H1605 H 0.61874 0.42769 0.51969 0.0
H1606 H 0.63409 0.41831 0.45049 0.0
H1607 H 0.602 0.39006 0.44812 0.0
C1608 C 0.56818 0.27211 0.47649 0.0
C1609 C 0.57795 0.26966 0.45538 0.0
C1610 C 0.56106 0.29375 0.48222 0.0
C1611 C 0.56368 0.31328 0.46696 0.0
C1612 C 0.57276 0.31073 0.44563 0.0
C1613 C 0.57972 0.28908 0.43983 0.0
C1614 C 0.55837 0.33669 0.47369 0.0
C1615 C 0.5759 0.35369 0.4742 0.0
C1616 C 0.53664 0.34209 0.48036 0.0
C1617 C 0.51739 0.32493 0.4801 0.0
C1618 C 0.51139 0.31397 0.46028 0.0
C1619 C 0.49302 0.29804 0.46014 0.0
C1620 C 0.48043 0.29307 0.47968 0.0
C1621 C 0.48618 0.30402 0.4994 0.0
C1622 C 0.50455 0.31992 0.49964 0.0
C1623 C 0.54745 0.44754 0.48541 0.0
C1624 C 0.53442 0.45042 0.50442 0.0
C1625 C 0.55229 0.42521 0.47953 0.0
C1626 C 0.54501 0.4055 0.49315 0.0
C1627 C 0.53209 0.40853 0.51228 0.0
C1628 C 0.5266 0.43078 0.5177 0.0
C1629 C 0.55038 0.3817 0.48722 0.0
C1630 C 0.53291 0.36455 0.48693 0.0
C1631 C 0.5723 0.376 0.48123 0.0
C1632 C 0.59189 0.39264 0.48277 0.0
C1633 C 0.59692 0.40328 0.50301 0.0
C1634 C 0.61505 0.41941 0.50414 0.0
C1635 C 0.62841 0.42484 0.48521 0.0
C1636 C 0.62372 0.41411 0.46513 0.0
C1637 C 0.60557 0.39803 0.46389 0.0
H1638 H 0.64242 0.43735 0.48611 0.0
H1639 H 0.46619 0.28078 0.47952 0.0
loop_
_geom_bond_atom_site_label_1
_geom_bond_atom_site_label_2
_geom_bond_distance
_geom_bond_site_symmetry_2
_ccdc_geom_bond_type
C0 C1 1.264 . S
C0 C5 1.479 . S
C0 C10 1.465 . S
C1 C0 1.264 . S
C1 C3 1.339 . S
C1 H28 0.931 . S
C2 C3 1.395 . S
C2 C4 1.320 . S
C3 C1 1.339 . S
C3 C2 1.395 . S
C3 H29 0.929 . S
C4 C2 1.320 . S
C4 C5 1.405 . S
C4 H30 0.930 . S
C5 C0 1.479 . S
C5 C4 1.405 . S
C5 H31 0.931 . S
U6 O7 2.454 . S
U6 O8 2.458 . S
U6 C9 2.984 . S
U6 C10 2.847 . S
U6 C23 2.882 . S
U6 O24 2.441 . S
U6 O25 2.420 . S
U6 O26 2.455 . S
U6 O27 2.449 . S
O7 U6 2.454 . S
O7 C9 1.353 . S
O8 U6 2.458 . S
O8 C9 1.286 . S
C9 U6 2.984 . S
C9 O7 1.353 . S
C9 O8 1.286 . S
C9 C11 1.363 . S
C10 C0 1.465 . S
C10 U6 2.847 . S
C10 O24 1.249 . S
C10 O25 1.202 . S
C11 C9 1.363 . S
C11 C13 1.408 . S
C11 C16 1.342 . S
C12 C13 1.310 . S
C12 C15 1.461 . S
C12 H32 0.932 . S
C13 C11 1.408 . S
C13 C12 1.310 . S
C13 H33 0.930 . S
C14 C15 1.474 . S
C14 C16 1.285 . S
C14 H34 0.929 . S
C15 C12 1.461 . S
C15 C14 1.474 . S
C16 C11 1.342 . S
C16 C14 1.285 . S
C16 H35 0.930 . S
C17 C20 1.424 . S
C17 C22 1.245 . S
C17 C23 1.428 . S
C18 C21 1.260 . S
C18 C22 1.477 . S
C18 H36 0.932 . S
C19 C20 1.384 . S
C19 C21 1.479 . S
C19 H37 0.929 . S
C20 C17 1.424 . S
C20 C19 1.384 . S
C20 H38 0.928 . S
C21 C18 1.260 . S
C21 C19 1.479 . S
C22 C17 1.245 . S
C22 C18 1.477 . S
C22 H39 0.932 . S
C23 U6 2.882 . S
C23 C17 1.428 . S
C23 O26 1.301 . S
C23 O27 1.282 . S
O24 U6 2.441 . S
O24 C10 1.249 . S
O25 U6 2.420 . S
O25 C10 1.202 . S
O26 U6 2.455 . S
O26 C23 1.301 . S
O27 U6 2.449 . S
O27 C23 1.282 . S
H28 C1 0.931 . S
H29 C3 0.929 . S
H30 C4 0.930 . S
H31 C5 0.931 . S
H32 C12 0.932 . S
H33 C13 0.930 . S
H34 C14 0.929 . S
H35 C16 0.930 . S
H36 C18 0.932 . S
H37 C19 0.929 . S
H38 C20 0.928 . S
H39 C22 0.932 . S
C40 C41 1.264 . S
C40 C45 1.479 . S
C40 C50 1.465 . S
C41 C40 1.264 . S
C41 C43 1.339 . S
C41 H68 0.931 . S
C42 C43 1.395 . S
C42 C44 1.320 . S
C43 C41 1.339 . S
C43 C42 1.395 . S
C43 H69 0.929 . S
C44 C42 1.320 . S
C44 C45 1.405 . S
C44 H70 0.930 . S
C45 C40 1.479 . S
C45 C44 1.405 . S
C45 H71 0.931 . S
U46 O47 2.454 . S
U46 O48 2.458 . S
U46 C49 2.984 . S
U46 C50 2.847 . S
U46 C63 2.882 . S
U46 O64 2.441 . S
U46 O65 2.420 . S
U46 O66 2.455 . S
U46 O67 2.449 . S
O47 U46 2.454 . S
O47 C49 1.353 . S
O48 U46 2.458 . S
O48 C49 1.286 . S
C49 U46 2.984 . S
C49 O47 1.353 . S
C49 O48 1.286 . S
C49 C51 1.363 . S
C50 C40 1.465 . S
C50 U46 2.847 . S
C50 O64 1.249 . S
C50 O65 1.202 . S
C51 C49 1.363 . S
C51 C53 1.408 . S
C51 C56 1.342 . S
C52 C53 1.310 . S
C52 C55 1.461 . S
C52 H72 0.932 . S
C53 C51 1.408 . S
C53 C52 1.310 . S
C53 H73 0.930 . S
C54 C55 1.474 . S
C54 C56 1.285 . S
C54 H74 0.929 . S
C55 C52 1.461 . S
C55 C54 1.474 . S
C56 C51 1.342 . S
C56 C54 1.285 . S
C56 H75 0.930 . S
C57 C60 1.424 . S
C57 C62 1.245 . S
C57 C63 1.428 . S
C58 C61 1.260 . S
C58 C62 1.477 . S
C58 H76 0.932 . S
C59 C60 1.384 . S
C59 C61 1.479 . S
C59 H77 0.929 . S
C60 C57 1.424 . S
C60 C59 1.384 . S
C60 H78 0.928 . S
C61 C58 1.260 . S
C61 C59 1.479 . S
C62 C57 1.245 . S
C62 C58 1.477 . S
C62 H79 0.932 . S
C63 U46 2.882 . S
C63 C57 1.428 . S
C63 O66 1.301 . S
C63 O67 1.282 . S
O64 U46 2.441 . S
O64 C50 1.249 . S
O65 U46 2.420 . S
O65 C50 1.202 . S
O66 U46 2.455 . S
O66 C63 1.301 . S
O67 U46 2.449 . S
O67 C63 1.282 . S
H68 C41 0.931 . S
H69 C43 0.929 . S
H70 C44 0.930 . S
H71 C45 0.931 . S
H72 C52 0.932 . S
H73 C53 0.930 . S
H74 C54 0.929 . S
H75 C56 0.930 . S
H76 C58 0.932 . S
H77 C59 0.929 . S
H78 C60 0.928 . S
H79 C62 0.932 . S
C80 C81 1.264 . S
C80 C85 1.479 . S
C80 C90 1.465 . S
C81 C80 1.264 . S
C81 C83 1.339 . S
C81 H108 0.931 . S
C82 C83 1.395 . S
C82 C84 1.320 . S
C83 C81 1.339 . S
C83 C82 1.395 . S
C83 H109 0.929 . S
C84 C82 1.320 . S
C84 C85 1.405 . S
C84 H110 0.930 . S
C85 C80 1.479 . S
C85 C84 1.405 . S
C85 H111 0.931 . S
U86 O87 2.454 . S
U86 O88 2.458 . S
U86 C89 2.984 . S
U86 C90 2.847 . S
U86 C103 2.882 . S
U86 O104 2.441 . S
U86 O105 2.420 . S
U86 O106 2.455 . S
U86 O107 2.449 . S
O87 U86 2.454 . S
O87 C89 1.353 . S
O88 U86 2.458 . S
O88 C89 1.286 . S
C89 U86 2.984 . S
C89 O87 1.353 . S
C89 O88 1.286 . S
C89 C91 1.363 . S
C90 C80 1.465 . S
C90 U86 2.847 . S
C90 O104 1.249 . S
C90 O105 1.202 . S
C91 C89 1.363 . S
C91 C93 1.408 . S
C91 C96 1.342 . S
C92 C93 1.310 . S
C92 C95 1.461 . S
C92 H112 0.932 . S
C93 C91 1.408 . S
C93 C92 1.310 . S
C93 H113 0.930 . S
C94 C95 1.474 . S
C94 C96 1.285 . S
C94 H114 0.929 . S
C95 C92 1.461 . S
C95 C94 1.474 . S
C96 C91 1.342 . S
C96 C94 1.285 . S
C96 H115 0.930 . S
C97 C100 1.424 . S
C97 C102 1.245 . S
C97 C103 1.428 . S
C98 C101 1.260 . S
C98 C102 1.477 . S
C98 H116 0.932 . S
C99 C100 1.384 . S
C99 C101 1.479 . S
C99 H117 0.929 . S
C100 C97 1.424 . S
C100 C99 1.384 . S
C100 H118 0.928 . S
C101 C98 1.260 . S
C101 C99 1.479 . S
C102 C97 1.245 . S
C102 C98 1.477 . S
C102 H119 0.932 . S
C103 U86 2.882 . S
C103 C97 1.428 . S
C103 O106 1.301 . S
C103 O107 1.282 . S
O104 U86 2.441 . S
O104 C90 1.249 . S
O105 U86 2.420 . S
O105 C90 1.202 . S
O106 U86 2.455 . S
O106 C103 1.301 . S
O107 U86 2.449 . S
O107 C103 1.282 . S
H108 C81 0.931 . S
H109 C83 0.929 . S
H110 C84 0.930 . S
H111 C85 0.931 . S
H112 C92 0.932 . S
H113 C93 0.930 . S
H114 C94 0.929 . S
H115 C96 0.930 . S
H116 C98 0.932 . S
H117 C99 0.929 . S
H118 C100 0.928 . S
H119 C102 0.932 . S
C120 C121 1.264 . S
C120 C125 1.479 . S
C120 C130 1.465 . S
C121 C120 1.264 . S
C121 C123 1.339 . S
C121 H148 0.931 . S
C122 C123 1.395 . S
C122 C124 1.320 . S
C123 C121 1.339 . S
C123 C122 1.395 . S
C123 H149 0.929 . S
C124 C122 1.320 . S
C124 C125 1.405 . S
C124 H150 0.930 . S
C125 C120 1.479 . S
C125 C124 1.405 . S
C125 H151 0.931 . S
U126 O127 2.454 . S
U126 O128 2.458 . S
U126 C129 2.984 . S
U126 C130 2.847 . S
U126 C143 2.882 . S
U126 O144 2.441 . S
U126 O145 2.420 . S
U126 O146 2.455 . S
U126 O147 2.449 . S
O127 U126 2.454 . S
O127 C129 1.353 . S
O128 U126 2.458 . S
O128 C129 1.286 . S
C129 U126 2.984 . S
C129 O127 1.353 . S
C129 O128 1.286 . S
C129 C131 1.363 . S
C130 C120 1.465 . S
C130 U126 2.847 . S
C130 O144 1.249 . S
C130 O145 1.202 . S
C131 C129 1.363 . S
C131 C133 1.408 . S
C131 C136 1.342 . S
C132 C133 1.310 . S
C132 C135 1.461 . S
C132 H152 0.932 . S
C133 C131 1.408 . S
C133 C132 1.310 . S
C133 H153 0.930 . S
C134 C135 1.474 . S
C134 C136 1.285 . S
C134 H154 0.929 . S
C135 C132 1.461 . S
C135 C134 1.474 . S
C136 C131 1.342 . S
C136 C134 1.285 . S
C136 H155 0.930 . S
C137 C140 1.424 . S
C137 C142 1.245 . S
C137 C143 1.428 . S
C138 C141 1.260 . S
C138 C142 1.477 . S
C138 H156 0.932 . S
C139 C140 1.384 . S
C139 C141 1.479 . S
C139 H157 0.929 . S
C140 C137 1.424 . S
C140 C139 1.384 . S
C140 H158 0.928 . S
C141 C138 1.260 . S
C141 C139 1.479 . S
C142 C137 1.245 . S
C142 C138 1.477 . S
C142 H159 0.932 . S
C143 U126 2.882 . S
C143 C137 1.428 . S
C143 O146 1.301 . S
C143 O147 1.282 . S
O144 U126 2.441 . S
O144 C130 1.249 . S
O145 U126 2.420 . S
O145 C130 1.202 . S
O146 U126 2.455 . S
O146 C143 1.301 . S
O147 U126 2.449 . S
O147 C143 1.282 . S
H148 C121 0.931 . S
H149 C123 0.929 . S
H150 C124 0.930 . S
H151 C125 0.931 . S
H152 C132 0.932 . S
H153 C133 0.930 . S
H154 C134 0.929 . S
H155 C136 0.930 . S
H156 C138 0.932 . S
H157 C139 0.929 . S
H158 C140 0.928 . S
H159 C142 0.932 . S
C160 C161 1.264 . S
C160 C165 1.479 . S
C160 C170 1.465 . S
C161 C160 1.264 . S
C161 C163 1.339 . S
C161 H188 0.931 . S
C162 C163 1.395 . S
C162 C164 1.320 . S
C163 C161 1.339 . S
C163 C162 1.395 . S
C163 H189 0.929 . S
C164 C162 1.320 . S
C164 C165 1.405 . S
C164 H190 0.930 . S
C165 C160 1.479 . S
C165 C164 1.405 . S
C165 H191 0.931 . S
U166 O167 2.454 . S
U166 O168 2.458 . S
U166 C169 2.984 . S
U166 C170 2.847 . S
U166 C183 2.882 . S
U166 O184 2.441 . S
U166 O185 2.420 . S
U166 O186 2.455 . S
U166 O187 2.449 . S
O167 U166 2.454 . S
O167 C169 1.353 . S
O168 U166 2.458 . S
O168 C169 1.286 . S
C169 U166 2.984 . S
C169 O167 1.353 . S
C169 O168 1.286 . S
C169 C171 1.363 . S
C170 C160 1.465 . S
C170 U166 2.847 . S
C170 O184 1.249 . S
C170 O185 1.202 . S
C171 C169 1.363 . S
C171 C173 1.408 . S
C171 C176 1.342 . S
C172 C173 1.310 . S
C172 C175 1.461 . S
C172 H192 0.932 . S
C173 C171 1.408 . S
C173 C172 1.310 . S
C173 H193 0.930 . S
C174 C175 1.474 . S
C174 C176 1.285 . S
C174 H194 0.929 . S
C175 C172 1.461 . S
C175 C174 1.474 . S
C176 C171 1.342 . S
C176 C174 1.285 . S
C176 H195 0.930 . S
C177 C180 1.424 . S
C177 C182 1.245 . S
C177 C183 1.428 . S
C178 C181 1.260 . S
C178 C182 1.477 . S
C178 H196 0.932 . S
C179 C180 1.384 . S
C179 C181 1.479 . S
C179 H197 0.929 . S
C180 C177 1.424 . S
C180 C179 1.384 . S
C180 H198 0.928 . S
C181 C178 1.260 . S
C181 C179 1.479 . S
C182 C177 1.245 . S
C182 C178 1.477 . S
C182 H199 0.932 . S
C183 U166 2.882 . S
C183 C177 1.428 . S
C183 O186 1.301 . S
C183 O187 1.282 . S
O184 U166 2.441 . S
O184 C170 1.249 . S
O185 U166 2.420 . S
O185 C170 1.202 . S
O186 U166 2.455 . S
O186 C183 1.301 . S
O187 U166 2.449 . S
O187 C183 1.282 . S
H188 C161 0.931 . S
H189 C163 0.929 . S
H190 C164 0.930 . S
H191 C165 0.931 . S
H192 C172 0.932 . S
H193 C173 0.930 . S
H194 C174 0.929 . S
H195 C176 0.930 . S
H196 C178 0.932 . S
H197 C179 0.929 . S
H198 C180 0.928 . S
H199 C182 0.932 . S
C200 C201 1.264 . S
C200 C205 1.479 . S
C200 C210 1.465 . S
C201 C200 1.264 . S
C201 C203 1.339 . S
C201 H228 0.931 . S
C202 C203 1.395 . S
C202 C204 1.320 . S
C203 C201 1.339 . S
C203 C202 1.395 . S
C203 H229 0.929 . S
C204 C202 1.320 . S
C204 C205 1.405 . S
C204 H230 0.930 . S
C205 C200 1.479 . S
C205 C204 1.405 . S
C205 H231 0.931 . S
U206 O207 2.454 . S
U206 O208 2.458 . S
U206 C209 2.984 . S
U206 C210 2.847 . S
U206 C223 2.882 . S
U206 O224 2.441 . S
U206 O225 2.420 . S
U206 O226 2.455 . S
U206 O227 2.449 . S
O207 U206 2.454 . S
O207 C209 1.353 . S
O208 U206 2.458 . S
O208 C209 1.286 . S
C209 U206 2.984 . S
C209 O207 1.353 . S
C209 O208 1.286 . S
C209 C211 1.363 . S
C210 C200 1.465 . S
C210 U206 2.847 . S
C210 O224 1.249 . S
C210 O225 1.202 . S
C211 C209 1.363 . S
C211 C213 1.408 . S
C211 C216 1.342 . S
C212 C213 1.310 . S
C212 C215 1.461 . S
C212 H232 0.932 . S
C213 C211 1.408 . S
C213 C212 1.310 . S
C213 H233 0.930 . S
C214 C215 1.474 . S
C214 C216 1.285 . S
C214 H234 0.929 . S
C215 C212 1.461 . S
C215 C214 1.474 . S
C216 C211 1.342 . S
C216 C214 1.285 . S
C216 H235 0.930 . S
C217 C220 1.424 . S
C217 C222 1.245 . S
C217 C223 1.428 . S
C218 C221 1.260 . S
C218 C222 1.477 . S
C218 H236 0.932 . S
C219 C220 1.384 . S
C219 C221 1.479 . S
C219 H237 0.929 . S
C220 C217 1.424 . S
C220 C219 1.384 . S
C220 H238 0.928 . S
C221 C218 1.260 . S
C221 C219 1.479 . S
C222 C217 1.245 . S
C222 C218 1.477 . S
C222 H239 0.932 . S
C223 U206 2.882 . S
C223 C217 1.428 . S
C223 O226 1.301 . S
C223 O227 1.282 . S
O224 U206 2.441 . S
O224 C210 1.249 . S
O225 U206 2.420 . S
O225 C210 1.202 . S
O226 U206 2.455 . S
O226 C223 1.301 . S
O227 U206 2.449 . S
O227 C223 1.282 . S
H228 C201 0.931 . S
H229 C203 0.929 . S
H230 C204 0.930 . S
H231 C205 0.931 . S
H232 C212 0.932 . S
H233 C213 0.930 . S
H234 C214 0.929 . S
H235 C216 0.930 . S
H236 C218 0.932 . S
H237 C219 0.929 . S
H238 C220 0.928 . S
H239 C222 0.932 . S
C240 C241 1.264 . S
C240 C245 1.479 . S
C240 C250 1.465 . S
C241 C240 1.264 . S
C241 C243 1.339 . S
C241 H268 0.931 . S
C242 C243 1.395 . S
C242 C244 1.320 . S
C243 C241 1.339 . S
C243 C242 1.395 . S
C243 H269 0.929 . S
C244 C242 1.320 . S
C244 C245 1.405 . S
C244 H270 0.930 . S
C245 C240 1.479 . S
C245 C244 1.405 . S
C245 H271 0.931 . S
U246 O247 2.454 . S
U246 O248 2.458 . S
U246 C249 2.984 . S
U246 C250 2.847 . S
U246 C263 2.882 . S
U246 O264 2.441 . S
U246 O265 2.420 . S
U246 O266 2.455 . S
U246 O267 2.449 . S
O247 U246 2.454 . S
O247 C249 1.353 . S
O248 U246 2.458 . S
O248 C249 1.286 . S
C249 U246 2.984 . S
C249 O247 1.353 . S
C249 O248 1.286 . S
C249 C251 1.363 . S
C250 C240 1.465 . S
C250 U246 2.847 . S
C250 O264 1.249 . S
C250 O265 1.202 . S
C251 C249 1.363 . S
C251 C253 1.408 . S
C251 C256 1.342 . S
C252 C253 1.310 . S
C252 C255 1.461 . S
C252 H272 0.932 . S
C253 C251 1.408 . S
C253 C252 1.310 . S
C253 H273 0.930 . S
C254 C255 1.474 . S
C254 C256 1.285 . S
C254 H274 0.929 . S
C255 C252 1.461 . S
C255 C254 1.474 . S
C256 C251 1.342 . S
C256 C254 1.285 . S
C256 H275 0.930 . S
C257 C260 1.424 . S
C257 C262 1.245 . S
C257 C263 1.428 . S
C258 C261 1.260 . S
C258 C262 1.477 . S
C258 H276 0.932 . S
C259 C260 1.384 . S
C259 C261 1.479 . S
C259 H277 0.929 . S
C260 C257 1.424 . S
C260 C259 1.384 . S
C260 H278 0.928 . S
C261 C258 1.260 . S
C261 C259 1.479 . S
C262 C257 1.245 . S
C262 C258 1.477 . S
C262 H279 0.932 . S
C263 U246 2.882 . S
C263 C257 1.428 . S
C263 O266 1.301 . S
C263 O267 1.282 . S
O264 U246 2.441 . S
O264 C250 1.249 . S
O265 U246 2.420 . S
O265 C250 1.202 . S
O266 U246 2.455 . S
O266 C263 1.301 . S
O267 U246 2.449 . S
O267 C263 1.282 . S
H268 C241 0.931 . S
H269 C243 0.929 . S
H270 C244 0.930 . S
H271 C245 0.931 . S
H272 C252 0.932 . S
H273 C253 0.930 . S
H274 C254 0.929 . S
H275 C256 0.930 . S
H276 C258 0.932 . S
H277 C259 0.929 . S
H278 C260 0.928 . S
H279 C262 0.932 . S
C280 C281 1.264 . S
C280 C285 1.479 . S
C280 C290 1.465 . S
C281 C280 1.264 . S
C281 C283 1.339 . S
C281 H308 0.931 . S
C282 C283 1.395 . S
C282 C284 1.320 . S
C283 C281 1.339 . S
C283 C282 1.395 . S
C283 H309 0.929 . S
C284 C282 1.320 . S
C284 C285 1.405 . S
C284 H310 0.930 . S
C285 C280 1.479 . S
C285 C284 1.405 . S
C285 H311 0.931 . S
U286 O287 2.454 . S
U286 O288 2.458 . S
U286 C289 2.984 . S
U286 C290 2.847 . S
U286 C303 2.882 . S
U286 O304 2.441 . S
U286 O305 2.420 . S
U286 O306 2.455 . S
U286 O307 2.449 . S
O287 U286 2.454 . S
O287 C289 1.353 . S
O288 U286 2.458 . S
O288 C289 1.286 . S
C289 U286 2.984 . S
C289 O287 1.353 . S
C289 O288 1.286 . S
C289 C291 1.363 . S
C290 C280 1.465 . S
C290 U286 2.847 . S
C290 O304 1.249 . S
C290 O305 1.202 . S
C291 C289 1.363 . S
C291 C293 1.408 . S
C291 C296 1.342 . S
C292 C293 1.310 . S
C292 C295 1.461 . S
C292 H312 0.932 . S
C293 C291 1.408 . S
C293 C292 1.310 . S
C293 H313 0.930 . S
C294 C295 1.474 . S
C294 C296 1.285 . S
C294 H314 0.929 . S
C295 C292 1.461 . S
C295 C294 1.474 . S
C296 C291 1.342 . S
C296 C294 1.285 . S
C296 H315 0.930 . S
C297 C300 1.424 . S
C297 C302 1.245 . S
C297 C303 1.428 . S
C298 C301 1.260 . S
C298 C302 1.477 . S
C298 H316 0.932 . S
C299 C300 1.384 . S
C299 C301 1.479 . S
C299 H317 0.929 . S
C300 C297 1.424 . S
C300 C299 1.384 . S
C300 H318 0.928 . S
C301 C298 1.260 . S
C301 C299 1.479 . S
C302 C297 1.245 . S
C302 C298 1.477 . S
C302 H319 0.932 . S
C303 U286 2.882 . S
C303 C297 1.428 . S
C303 O306 1.301 . S
C303 O307 1.282 . S
O304 U286 2.441 . S
O304 C290 1.249 . S
O305 U286 2.420 . S
O305 C290 1.202 . S
O306 U286 2.455 . S
O306 C303 1.301 . S
O307 U286 2.449 . S
O307 C303 1.282 . S
H308 C281 0.931 . S
H309 C283 0.929 . S
H310 C284 0.930 . S
H311 C285 0.931 . S
H312 C292 0.932 . S
H313 C293 0.930 . S
H314 C294 0.929 . S
H315 C296 0.930 . S
H316 C298 0.932 . S
H317 C299 0.929 . S
H318 C300 0.928 . S
H319 C302 0.932 . S
Co320 N325 2.057 . S
Co320 O337 2.021 . S
Co320 O340 2.062 . S
Co320 O344 2.117 1_545 S
Co320 O345 2.020 . S
C321 O341 1.259 1_655 S
C321 O344 1.258 . S
Co322 N331 2.057 . S
Co322 O338 2.117 1_565 S
Co322 O339 2.020 1_565 S
Co322 O341 2.021 . S
Co322 O346 2.062 . S
C323 N325 1.316 . S
C323 N326 1.347 . S
C323 H328 0.931 . S
C324 N325 1.384 . S
C324 C327 1.356 . S
C324 H329 0.916 1_545 S
N325 Co320 2.057 . S
N325 C323 1.316 . S
N325 C324 1.384 . S
N326 C323 1.347 . S
N326 C327 1.373 . S
C327 C324 1.356 . S
C327 N326 1.373 . S
C327 H348 0.931 . S
H328 C323 0.931 . S
H329 C324 0.916 1_565 S
C330 O337 1.259 1_455 S
C330 O338 1.258 . S
N331 Co322 2.057 . S
N331 C332 1.316 . S
N331 C333 1.375 1_565 S
C332 N331 1.316 . S
C332 N334 1.347 . S
C332 H343 0.931 . S
C333 N331 1.375 1_545 S
C333 C335 1.333 1_545 S
C333 H342 0.930 . S
N334 C332 1.347 . S
N334 C335 1.412 . S
C335 C333 1.333 1_565 S
C335 N334 1.412 . S
C335 H349 0.913 1_565 S
C336 O339 1.256 . S
C336 O340 1.255 1_455 S
O337 Co320 2.021 . S
O337 C330 1.259 1_655 S
O338 Co322 2.117 1_545 S
O338 C330 1.258 . S
O339 Co322 2.020 1_545 S
O339 C336 1.256 . S
O340 Co320 2.062 . S
O340 C336 1.255 1_655 S
O341 C321 1.259 1_455 S
O341 Co322 2.021 . S
H342 C333 0.930 . S
H343 C332 0.931 . S
O344 Co320 2.117 1_565 S
O344 C321 1.258 . S
O345 Co320 2.020 . S
O345 C347 1.256 1_545 S
O346 Co322 2.062 . S
O346 C347 1.255 1_455 S
C347 O345 1.256 1_565 S
C347 O346 1.255 1_655 S
H348 C327 0.931 . S
H349 C335 0.913 1_545 S
Co350 N355 2.057 . S
Co350 O367 2.021 1_565 S
Co350 O370 2.062 . S
Co350 O374 2.117 1_556 S
Co350 O375 2.020 1_565 S
C351 O371 1.259 . S
C351 O374 1.258 . S
Co352 N361 2.057 . S
Co352 O368 2.117 . S
Co352 O369 2.020 1_545 S
Co352 O371 2.021 1_545 S
Co352 O376 2.062 . S
C353 N355 1.316 . S
C353 N356 1.347 . S
C353 H358 0.931 1_565 S
C354 N355 1.375 . S
C354 C357 1.350 . S
C354 H359 0.930 . S
N355 Co350 2.057 . S
N355 C353 1.316 . S
N355 C354 1.375 . S
N356 C353 1.347 . S
N356 C357 1.373 . S
C357 C354 1.350 . S
C357 N356 1.373 . S
C357 H378 0.931 . S
H358 C353 0.931 1_545 S
H359 C354 0.930 . S
C360 O367 1.259 . S
C360 O368 1.258 1_556 S
N361 Co352 2.057 . S
N361 C362 1.316 . S
N361 C363 1.375 . S
C362 N361 1.316 . S
C362 N364 1.347 . S
C362 H373 0.896 1_545 S
C363 N361 1.375 . S
C363 C365 1.350 . S
C363 H372 0.930 . S
N364 C362 1.347 . S
N364 C365 1.373 . S
C365 C363 1.350 . S
C365 N364 1.373 . S
C365 H379 0.931 . S
C366 O369 1.256 1_556 S
C366 O370 1.255 . S
O367 Co350 2.021 1_545 S
O367 C360 1.259 . S
O368 Co352 2.117 . S
O368 C360 1.258 1_554 S
O369 Co352 2.020 1_565 S
O369 C366 1.256 1_554 S
O370 Co350 2.062 . S
O370 C366 1.255 . S
O371 C351 1.259 . S
O371 Co352 2.021 1_565 S
H372 C363 0.930 . S
H373 C362 0.896 1_565 S
O374 Co350 2.117 1_554 S
O374 C351 1.258 . S
O375 Co350 2.020 1_545 S
O375 C377 1.256 1_556 S
O376 Co352 2.062 . S
O376 C377 1.255 . S
C377 O375 1.256 1_554 S
C377 O376 1.255 . S
H378 C357 0.931 . S
H379 C365 0.931 . S
Co380 N385 2.057 . S
Co380 O397 2.021 . S
Co380 O400 2.062 . S
Co380 O404 2.117 . S
Co380 O405 2.020 . S
C381 O401 1.259 . S
C381 O404 1.258 . S
Co382 N391 2.057 . S
Co382 O398 2.117 . S
Co382 O399 2.020 . S
Co382 O401 2.021 . S
Co382 O406 2.062 . S
C383 N385 1.316 . S
C383 N386 1.347 . S
C383 H388 0.931 . S
C384 N385 1.375 . S
C384 C387 1.350 . S
C384 H389 0.930 . S
N385 Co380 2.057 . S
N385 C383 1.316 . S
N385 C384 1.375 . S
N386 C383 1.347 . S
N386 C387 1.373 . S
C387 C384 1.350 . S
C387 N386 1.373 . S
C387 H408 0.931 . S
H388 C383 0.931 . S
H389 C384 0.930 . S
C390 O397 1.259 . S
C390 O398 1.258 . S
N391 Co382 2.057 . S
N391 C392 1.316 . S
N391 C393 1.375 . S
C392 N391 1.316 . S
C392 N394 1.347 . S
C392 H403 0.931 . S
C393 N391 1.375 . S
C393 C395 1.350 . S
C393 H402 0.930 . S
N394 C392 1.347 . S
N394 C395 1.373 . S
C395 C393 1.350 . S
C395 N394 1.373 . S
C395 H409 0.931 . S
C396 O399 1.256 . S
C396 O400 1.255 . S
O397 Co380 2.021 . S
O397 C390 1.259 . S
O398 Co382 2.117 . S
O398 C390 1.258 . S
O399 Co382 2.020 . S
O399 C396 1.256 . S
O400 Co380 2.062 . S
O400 C396 1.255 . S
O401 C381 1.259 . S
O401 Co382 2.021 . S
H402 C393 0.930 . S
H403 C392 0.931 . S
O404 Co380 2.117 . S
O404 C381 1.258 . S
O405 Co380 2.020 . S
O405 C407 1.256 . S
O406 Co382 2.062 . S
O406 C407 1.255 . S
C407 O405 1.256 . S
C407 O406 1.255 . S
H408 C387 0.931 . S
H409 C395 0.931 . S
Co410 N415 2.057 . S
Co410 O427 2.021 . S
Co410 O430 2.062 . S
Co410 O434 2.117 1_455 S
Co410 O435 2.020 1_455 S
C411 O431 1.259 1_556 S
C411 O434 1.258 . S
Co412 N421 2.057 . S
Co412 O428 2.117 1_655 S
Co412 O429 2.020 1_655 S
Co412 O431 2.021 . S
Co412 O436 2.062 . S
C413 N415 1.316 . S
C413 N416 1.347 . S
C413 H418 0.931 . S
C414 N415 1.375 1_655 S
C414 C417 1.350 1_655 S
C414 H419 0.930 . S
N415 Co410 2.057 . S
N415 C413 1.316 . S
N415 C414 1.375 1_455 S
N416 C413 1.347 . S
N416 C417 1.373 . S
C417 C414 1.350 1_455 S
C417 N416 1.373 . S
C417 H438 0.909 1_455 S
H418 C413 0.931 . S
H419 C414 0.930 . S
C420 O427 1.259 1_554 S
C420 O428 1.258 . S
N421 Co412 2.057 . S
N421 C422 1.316 . S
N421 C423 1.375 1_655 S
C422 N421 1.316 . S
C422 N424 1.347 . S
C422 H433 0.931 . S
C423 N421 1.375 1_455 S
C423 C425 1.350 1_455 S
C423 H432 0.930 . S
N424 C422 1.347 . S
N424 C425 1.373 . S
C425 C423 1.350 1_655 S
C425 N424 1.373 . S
C425 H439 0.931 1_655 S
C426 O429 1.256 . S
C426 O430 1.255 1_554 S
O427 Co410 2.021 . S
O427 C420 1.259 1_556 S
O428 Co412 2.117 1_455 S
O428 C420 1.258 . S
O429 Co412 2.020 1_455 S
O429 C426 1.256 . S
O430 Co410 2.062 . S
O430 C426 1.255 1_556 S
O431 C411 1.259 1_554 S
O431 Co412 2.021 . S
H432 C423 0.930 . S
H433 C422 0.931 . S
O434 Co410 2.117 1_655 S
O434 C411 1.258 . S
O435 Co410 2.020 1_655 S
O435 C437 1.255 . S
O436 Co412 2.062 . S
O436 C437 1.255 1_554 S
C437 O435 1.255 . S
C437 O436 1.255 1_556 S
H438 C417 0.909 1_655 S
H439 C425 0.931 1_455 S
H440 C458 0.951 . S
H441 C460 0.951 . S
H442 C462 0.950 . S
H443 C463 0.950 . S
H444 C465 0.950 . S
H445 C468 0.950 . S
H446 C469 0.950 . S
H447 C471 0.950 . S
H448 C472 0.950 . S
H449 C473 0.951 1_565 S
H450 C475 0.951 . S
H451 C477 0.950 . S
H452 C478 0.950 . S
H453 C480 0.950 . S
H454 C483 0.950 . S
H455 C484 0.949 1_545 S
H456 C486 0.943 1_455 S
H457 C487 0.950 . S
C458 H440 0.951 . S
C458 C459 1.366 . S
C458 C460 1.388 . S
C459 C458 1.366 . S
C459 C463 1.385 . S
C460 H441 0.951 . S
C460 C458 1.388 . S
C460 C461 1.366 . S
C461 C460 1.366 . S
C461 C462 1.414 . S
C461 C464 1.499 . S
C462 H442 0.950 . S
C462 C461 1.414 . S
C462 C463 1.374 . S
C463 H443 0.950 . S
C463 C459 1.385 . S
C463 C462 1.374 . S
C464 C461 1.499 . S
C464 C465 1.373 . S
C464 C466 1.389 . S
C465 H444 0.950 . S
C465 C464 1.373 . S
C465 C481 1.377 . S
C466 C464 1.389 . S
C466 C467 1.524 . S
C466 C480 1.377 . S
C467 C466 1.524 . S
C467 C468 1.397 . S
C467 C472 1.363 . S
C468 H445 0.950 . S
C468 C467 1.397 . S
C468 C469 1.334 . S
C469 H446 0.950 . S
C469 C468 1.334 . S
C469 C470 1.287 . S
C470 C469 1.287 . S
C470 C471 1.524 . S
C470 H489 0.913 . S
C471 H447 0.950 . S
C471 C470 1.524 . S
C471 C472 1.415 . S
C472 H448 0.950 . S
C472 C467 1.363 . S
C472 C471 1.415 . S
C473 H449 0.951 1_545 S
C473 C474 1.366 . S
C473 C475 1.388 . S
C474 C473 1.366 . S
C474 C478 1.385 . S
C475 H450 0.951 . S
C475 C473 1.388 . S
C475 C476 1.366 . S
C476 C475 1.366 . S
C476 C477 1.414 . S
C476 C479 1.499 . S
C477 H451 0.950 . S
C477 C476 1.414 . S
C477 C478 1.374 . S
C478 H452 0.950 . S
C478 C474 1.385 . S
C478 C477 1.374 . S
C479 C476 1.499 . S
C479 C480 1.373 . S
C479 C481 1.389 . S
C480 H453 0.950 . S
C480 C466 1.377 . S
C480 C479 1.373 . S
C481 C465 1.377 . S
C481 C479 1.389 . S
C481 C482 1.524 . S
C482 C481 1.524 . S
C482 C483 1.397 1_455 S
C482 C487 1.363 1_545 S
C483 H454 0.950 . S
C483 C482 1.397 1_655 S
C483 C484 1.330 1_545 S
C484 H455 0.949 1_565 S
C484 C483 1.330 1_565 S
C484 C485 1.293 . S
C485 C484 1.293 . S
C485 C486 1.555 . S
C485 H488 0.999 . S
C486 H456 0.943 1_655 S
C486 C485 1.555 . S
C486 C487 1.390 1_655 S
C487 H457 0.950 . S
C487 C482 1.363 1_565 S
C487 C486 1.390 1_455 S
H488 C485 0.999 . S
H489 C470 0.913 . S
H490 C508 0.951 . S
H491 C510 0.951 . S
H492 C512 0.950 . S
H493 C513 0.950 . S
H494 C515 0.950 . S
H495 C518 0.950 . S
H496 C519 0.950 . S
H497 C521 0.950 . S
H498 C522 0.950 . S
H499 C523 0.951 . S
H500 C525 0.951 . S
H501 C527 0.950 . S
H502 C528 0.950 . S
H503 C530 0.950 . S
H504 C533 0.950 . S
H505 C534 0.950 . S
H506 C536 0.950 . S
H507 C537 0.950 . S
C508 H490 0.951 . S
C508 C509 1.366 . S
C508 C510 1.388 . S
C509 C508 1.366 . S
C509 C513 1.385 . S
C510 H491 0.951 . S
C510 C508 1.388 . S
C510 C511 1.366 . S
C511 C510 1.366 . S
C511 C512 1.414 . S
C511 C514 1.499 . S
C512 H492 0.950 . S
C512 C511 1.414 . S
C512 C513 1.374 . S
C513 H493 0.950 . S
C513 C509 1.385 . S
C513 C512 1.374 . S
C514 C511 1.499 . S
C514 C515 1.373 . S
C514 C516 1.389 . S
C515 H494 0.950 . S
C515 C514 1.373 . S
C515 C531 1.377 . S
C516 C514 1.389 . S
C516 C517 1.524 . S
C516 C530 1.377 . S
C517 C516 1.524 . S
C517 C518 1.397 . S
C517 C522 1.363 . S
C518 H495 0.950 . S
C518 C517 1.397 . S
C518 C519 1.334 . S
C519 H496 0.950 . S
C519 C518 1.334 . S
C519 C520 1.287 . S
C520 C519 1.287 . S
C520 C521 1.524 . S
C520 H539 0.913 . S
C521 H497 0.950 . S
C521 C520 1.524 . S
C521 C522 1.415 . S
C522 H498 0.950 . S
C522 C517 1.363 . S
C522 C521 1.415 . S
C523 H499 0.951 . S
C523 C524 1.366 . S
C523 C525 1.388 . S
C524 C523 1.366 . S
C524 C528 1.385 . S
C525 H500 0.951 . S
C525 C523 1.388 . S
C525 C526 1.366 . S
C526 C525 1.366 . S
C526 C527 1.414 . S
C526 C529 1.499 . S
C527 H501 0.950 . S
C527 C526 1.414 . S
C527 C528 1.374 . S
C528 H502 0.950 . S
C528 C524 1.385 . S
C528 C527 1.374 . S
C529 C526 1.499 . S
C529 C530 1.373 . S
C529 C531 1.389 . S
C530 H503 0.950 . S
C530 C516 1.377 . S
C530 C529 1.373 . S
C531 C515 1.377 . S
C531 C529 1.389 . S
C531 C532 1.524 . S
C532 C531 1.524 . S
C532 C533 1.397 . S
C532 C537 1.363 . S
C533 H504 0.950 . S
C533 C532 1.397 . S
C533 C534 1.334 1_565 S
C534 H505 0.950 . S
C534 C533 1.334 1_545 S
C534 C535 1.279 1_545 S
C535 C534 1.279 1_565 S
C535 C536 1.548 . S
C535 H538 0.983 1_565 S
C536 H506 0.950 . S
C536 C535 1.548 . S
C536 C537 1.415 . S
C537 H507 0.950 . S
C537 C532 1.363 . S
C537 C536 1.415 . S
H538 C535 0.983 1_545 S
H539 C520 0.913 . S
H540 C558 0.951 . S
H541 C560 0.951 . S
H542 C562 0.950 . S
H543 C563 0.950 . S
H544 C565 0.950 . S
H545 C568 0.950 . S
H546 C569 0.950 . S
H547 C571 0.950 . S
H548 C572 0.950 . S
H549 C573 0.951 . S
H550 C575 0.951 . S
H551 C577 0.950 . S
H552 C578 0.950 . S
H553 C580 0.950 . S
H554 C583 0.950 . S
H555 C584 0.950 . S
H556 C586 0.950 . S
H557 C587 0.950 . S
C558 H540 0.951 . S
C558 C559 1.366 . S
C558 C560 1.388 . S
C559 C558 1.366 . S
C559 C563 1.385 . S
C560 H541 0.951 . S
C560 C558 1.388 . S
C560 C561 1.366 . S
C561 C560 1.366 . S
C561 C562 1.414 . S
C561 C564 1.499 . S
C562 H542 0.950 . S
C562 C561 1.414 . S
C562 C563 1.374 . S
C563 H543 0.950 . S
C563 C559 1.385 . S
C563 C562 1.374 . S
C564 C561 1.499 . S
C564 C565 1.373 . S
C564 C566 1.389 . S
C565 H544 0.950 . S
C565 C564 1.373 . S
C565 C581 1.377 . S
C566 C564 1.389 . S
C566 C567 1.524 . S
C566 C580 1.377 . S
C567 C566 1.524 . S
C567 C568 1.397 . S
C567 C572 1.363 . S
C568 H545 0.950 . S
C568 C567 1.397 . S
C568 C569 1.334 . S
C569 H546 0.950 . S
C569 C568 1.334 . S
C569 C570 1.287 . S
C570 C569 1.287 . S
C570 C571 1.524 . S
C570 H589 0.913 . S
C571 H547 0.950 . S
C571 C570 1.524 . S
C571 C572 1.415 . S
C572 H548 0.950 . S
C572 C567 1.363 . S
C572 C571 1.415 . S
C573 H549 0.951 . S
C573 C574 1.366 . S
C573 C575 1.388 . S
C574 C573 1.366 . S
C574 C578 1.385 . S
C575 H550 0.951 . S
C575 C573 1.388 . S
C575 C576 1.366 . S
C576 C575 1.366 . S
C576 C577 1.414 . S
C576 C579 1.499 . S
C577 H551 0.950 . S
C577 C576 1.414 . S
C577 C578 1.374 . S
C578 H552 0.950 . S
C578 C574 1.385 . S
C578 C577 1.374 . S
C579 C576 1.499 . S
C579 C580 1.373 . S
C579 C581 1.389 . S
C580 H553 0.950 . S
C580 C566 1.377 . S
C580 C579 1.373 . S
C581 C565 1.377 . S
C581 C579 1.389 . S
C581 C582 1.524 . S
C582 C581 1.524 . S
C582 C583 1.397 . S
C582 C587 1.363 . S
C583 H554 0.950 . S
C583 C582 1.397 . S
C583 C584 1.334 . S
C584 H555 0.950 . S
C584 C583 1.334 . S
C584 C585 1.287 . S
C585 C584 1.287 . S
C585 C586 1.524 . S
C585 H588 0.999 . S
C586 H556 0.950 . S
C586 C585 1.524 . S
C586 C587 1.415 . S
C587 H557 0.950 . S
C587 C582 1.363 . S
C587 C586 1.415 . S
H588 C585 0.999 . S
H589 C570 0.913 . S
H590 C608 0.951 . S
H591 C610 0.951 . S
H592 C612 0.950 . S
H593 C613 0.950 . S
H594 C615 0.950 . S
H595 C618 0.950 . S
H596 C619 0.950 . S
H597 C621 0.950 . S
H598 C622 0.950 . S
H599 C623 0.951 . S
H600 C625 0.951 . S
H601 C627 0.950 . S
H602 C628 0.950 . S
H603 C630 0.950 . S
H604 C633 0.950 . S
H605 C634 0.950 . S
H606 C636 0.950 . S
H607 C637 0.950 . S
C608 H590 0.951 . S
C608 C609 1.366 . S
C608 C610 1.388 . S
C609 C608 1.366 . S
C609 C613 1.385 . S
C610 H591 0.951 . S
C610 C608 1.388 . S
C610 C611 1.366 . S
C611 C610 1.366 . S
C611 C612 1.414 . S
C611 C614 1.499 . S
C612 H592 0.950 . S
C612 C611 1.414 . S
C612 C613 1.374 . S
C613 H593 0.950 . S
C613 C609 1.385 . S
C613 C612 1.374 . S
C614 C611 1.499 . S
C614 C615 1.373 . S
C614 C616 1.389 . S
C615 H594 0.950 . S
C615 C614 1.373 . S
C615 C631 1.377 . S
C616 C614 1.389 . S
C616 C617 1.524 . S
C616 C630 1.377 . S
C617 C616 1.524 . S
C617 C618 1.397 . S
C617 C622 1.363 . S
C618 H595 0.950 . S
C618 C617 1.397 . S
C618 C619 1.334 1_655 S
C619 H596 0.950 . S
C619 C618 1.334 1_455 S
C619 C620 1.287 . S
C620 C619 1.287 . S
C620 C621 1.524 1_455 S
C620 H639 0.913 . S
C621 H597 0.950 . S
C621 C620 1.524 1_655 S
C621 C622 1.415 . S
C622 H598 0.950 . S
C622 C617 1.363 . S
C622 C621 1.415 . S
C623 H599 0.951 . S
C623 C624 1.366 . S
C623 C625 1.388 . S
C624 C623 1.366 . S
C624 C628 1.385 . S
C625 H600 0.951 . S
C625 C623 1.388 . S
C625 C626 1.366 . S
C626 C625 1.366 . S
C626 C627 1.414 . S
C626 C629 1.499 . S
C627 H601 0.950 . S
C627 C626 1.414 . S
C627 C628 1.374 . S
C628 H602 0.950 . S
C628 C624 1.385 . S
C628 C627 1.374 . S
C629 C626 1.499 . S
C629 C630 1.373 . S
C629 C631 1.389 . S
C630 H603 0.950 . S
C630 C616 1.377 . S
C630 C629 1.373 . S
C631 C615 1.377 . S
C631 C629 1.389 . S
C631 C632 1.524 . S
C632 C631 1.524 . S
C632 C633 1.397 . S
C632 C637 1.363 . S
C633 H604 0.950 . S
C633 C632 1.397 . S
C633 C634 1.334 . S
C634 H605 0.950 . S
C634 C633 1.334 . S
C634 C635 1.287 . S
C635 C634 1.287 . S
C635 C636 1.524 . S
C635 H638 0.999 . S
C636 H606 0.950 . S
C636 C635 1.524 . S
C636 C637 1.415 . S
C637 H607 0.950 . S
C637 C632 1.363 . S
C637 C636 1.415 . S
H638 C635 0.999 . S
H639 C620 0.913 . S
H640 C658 0.951 . S
H641 C660 0.951 . S
H642 C662 0.950 . S
H643 C663 0.950 . S
H644 C665 0.950 . S
H645 C668 0.950 . S
H646 C669 0.950 . S
H647 C671 0.950 . S
H648 C672 0.950 . S
H649 C673 0.951 1_565 S
H650 C675 0.951 . S
H651 C677 0.950 . S
H652 C678 0.950 . S
H653 C680 0.950 . S
H654 C683 0.950 . S
H655 C684 0.950 . S
H656 C686 0.950 . S
H657 C687 0.950 1_565 S
C658 H640 0.951 . S
C658 C659 1.366 . S
C658 C660 1.388 . S
C659 C658 1.366 . S
C659 C663 1.385 . S
C660 H641 0.951 . S
C660 C658 1.388 . S
C660 C661 1.366 . S
C661 C660 1.366 . S
C661 C662 1.414 . S
C661 C664 1.499 . S
C662 H642 0.950 . S
C662 C661 1.414 . S
C662 C663 1.374 . S
C663 H643 0.950 . S
C663 C659 1.385 . S
C663 C662 1.374 . S
C664 C661 1.499 . S
C664 C665 1.373 . S
C664 C666 1.389 . S
C665 H644 0.950 . S
C665 C664 1.373 . S
C665 C681 1.377 . S
C666 C664 1.389 . S
C666 C667 1.524 . S
C666 C680 1.377 . S
C667 C666 1.524 . S
C667 C668 1.397 . S
C667 C672 1.363 . S
C668 H645 0.950 . S
C668 C667 1.397 . S
C668 C669 1.334 1_554 S
C669 H646 0.950 . S
C669 C668 1.334 1_556 S
C669 C670 1.287 . S
C670 C669 1.287 . S
C670 C671 1.524 . S
C670 H689 0.913 . S
C671 H647 0.950 . S
C671 C670 1.524 . S
C671 C672 1.415 1_556 S
C672 H648 0.950 . S
C672 C667 1.363 . S
C672 C671 1.415 1_554 S
C673 H649 0.951 1_545 S
C673 C674 1.366 . S
C673 C675 1.388 . S
C674 C673 1.366 . S
C674 C678 1.385 . S
C675 H650 0.951 . S
C675 C673 1.388 . S
C675 C676 1.366 . S
C676 C675 1.366 . S
C676 C677 1.414 . S
C676 C679 1.499 . S
C677 H651 0.950 . S
C677 C676 1.414 . S
C677 C678 1.374 . S
C678 H652 0.950 . S
C678 C674 1.385 . S
C678 C677 1.374 . S
C679 C676 1.499 . S
C679 C680 1.373 . S
C679 C681 1.389 . S
C680 H653 0.950 . S
C680 C666 1.377 . S
C680 C679 1.373 . S
C681 C665 1.377 . S
C681 C679 1.389 . S
C681 C682 1.524 . S
C682 C681 1.524 . S
C682 C683 1.397 . S
C682 C687 1.363 . S
C683 H654 0.950 . S
C683 C682 1.397 . S
C683 C684 1.334 . S
C684 H655 0.950 . S
C684 C683 1.334 . S
C684 C685 1.287 . S
C685 C684 1.287 . S
C685 C686 1.524 1_545 S
C685 H688 0.999 1_545 S
C686 H656 0.950 . S
C686 C685 1.524 1_565 S
C686 C687 1.415 1_565 S
C687 H657 0.950 1_545 S
C687 C682 1.363 . S
C687 C686 1.415 1_545 S
H688 C685 0.999 1_565 S
H689 C670 0.913 . S
H690 C708 0.951 . S
H691 C710 0.951 . S
H692 C712 0.950 . S
H693 C713 0.950 . S
H694 C715 0.950 . S
H695 C718 0.950 . S
H696 C719 0.950 . S
H697 C721 0.950 . S
H698 C722 0.950 . S
H699 C723 0.951 . S
H700 C725 0.951 . S
H701 C727 0.950 . S
H702 C728 0.950 . S
H703 C730 0.950 . S
H704 C733 0.950 . S
H705 C734 0.950 . S
H706 C736 0.950 . S
H707 C737 0.950 1_565 S
C708 H690 0.951 . S
C708 C709 1.366 . S
C708 C710 1.388 . S
C709 C708 1.366 . S
C709 C713 1.385 . S
C710 H691 0.951 . S
C710 C708 1.388 . S
C710 C711 1.366 . S
C711 C710 1.366 . S
C711 C712 1.414 . S
C711 C714 1.499 . S
C712 H692 0.950 . S
C712 C711 1.414 . S
C712 C713 1.374 . S
C713 H693 0.950 . S
C713 C709 1.385 . S
C713 C712 1.374 . S
C714 C711 1.499 . S
C714 C715 1.373 . S
C714 C716 1.389 . S
C715 H694 0.950 . S
C715 C714 1.373 . S
C715 C731 1.377 . S
C716 C714 1.389 . S
C716 C717 1.524 . S
C716 C730 1.377 . S
C717 C716 1.524 . S
C717 C718 1.397 . S
C717 C722 1.363 . S
C718 H695 0.950 . S
C718 C717 1.397 . S
C718 C719 1.334 . S
C719 H696 0.950 . S
C719 C718 1.334 . S
C719 C720 1.287 . S
C720 C719 1.287 . S
C720 C721 1.524 . S
C720 H739 0.913 . S
C721 H697 0.950 . S
C721 C720 1.524 . S
C721 C722 1.415 . S
C722 H698 0.950 . S
C722 C717 1.363 . S
C722 C721 1.415 . S
C723 H699 0.951 . S
C723 C724 1.366 . S
C723 C725 1.388 . S
C724 C723 1.366 . S
C724 C728 1.385 . S
C725 H700 0.951 . S
C725 C723 1.388 . S
C725 C726 1.366 . S
C726 C725 1.366 . S
C726 C727 1.414 . S
C726 C729 1.499 . S
C727 H701 0.950 . S
C727 C726 1.414 . S
C727 C728 1.374 . S
C728 H702 0.950 . S
C728 C724 1.385 . S
C728 C727 1.374 . S
C729 C726 1.499 . S
C729 C730 1.373 . S
C729 C731 1.389 . S
C730 H703 0.950 . S
C730 C716 1.377 . S
C730 C729 1.373 . S
C731 C715 1.377 . S
C731 C729 1.389 . S
C731 C732 1.524 . S
C732 C731 1.524 . S
C732 C733 1.397 . S
C732 C737 1.363 1_565 S
C733 H704 0.950 . S
C733 C732 1.397 . S
C733 C734 1.334 1_565 S
C734 H705 0.950 . S
C734 C733 1.334 1_545 S
C734 C735 1.287 . S
C735 C734 1.287 . S
C735 C736 1.524 . S
C735 H738 0.999 . S
C736 H706 0.950 . S
C736 C735 1.524 . S
C736 C737 1.415 . S
C737 H707 0.950 1_545 S
C737 C732 1.363 1_545 S
C737 C736 1.415 . S
H738 C735 0.999 . S
H739 C720 0.913 . S
H740 C758 0.951 . S
H741 C760 0.951 . S
H742 C762 0.950 . S
H743 C763 0.950 . S
H744 C765 0.950 . S
H745 C768 0.950 . S
H746 C769 0.950 . S
H747 C771 0.938 1_554 S
H748 C772 0.950 1_554 S
H749 C773 0.951 . S
H750 C775 0.951 . S
H751 C777 0.950 1_554 S
H752 C778 0.950 . S
H753 C780 0.950 . S
H754 C783 0.950 . S
H755 C784 0.950 . S
H756 C786 0.950 . S
H757 C787 0.950 . S
C758 H740 0.951 . S
C758 C759 1.366 . S
C758 C760 1.388 . S
C759 C758 1.366 . S
C759 C763 1.385 . S
C760 H741 0.951 . S
C760 C758 1.388 . S
C760 C761 1.366 . S
C761 C760 1.366 . S
C761 C762 1.414 . S
C761 C764 1.499 . S
C762 H742 0.950 . S
C762 C761 1.414 . S
C762 C763 1.374 . S
C763 H743 0.950 . S
C763 C759 1.385 . S
C763 C762 1.374 . S
C764 C761 1.499 . S
C764 C765 1.373 . S
C764 C766 1.389 . S
C765 H744 0.950 . S
C765 C764 1.373 . S
C765 C781 1.377 . S
C766 C764 1.389 . S
C766 C767 1.524 . S
C766 C780 1.377 . S
C767 C766 1.524 . S
C767 C768 1.397 . S
C767 C772 1.363 . S
C768 H745 0.950 . S
C768 C767 1.397 . S
C768 C769 1.334 . S
C769 H746 0.950 . S
C769 C768 1.334 . S
C769 C770 1.287 . S
C770 C769 1.287 . S
C770 C771 1.534 . S
C770 H789 0.913 . S
C771 H747 0.938 1_556 S
C771 C770 1.534 . S
C771 C772 1.419 . S
C772 H748 0.950 1_556 S
C772 C767 1.363 . S
C772 C771 1.419 . S
C773 H749 0.951 . S
C773 C774 1.366 . S
C773 C775 1.388 . S
C774 C773 1.366 . S
C774 C778 1.385 1_556 S
C775 H750 0.951 . S
C775 C773 1.388 . S
C775 C776 1.366 . S
C776 C775 1.366 . S
C776 C777 1.414 . S
C776 C779 1.499 . S
C777 H751 0.950 1_556 S
C777 C776 1.414 . S
C777 C778 1.374 1_556 S
C778 H752 0.950 . S
C778 C774 1.385 1_554 S
C778 C777 1.374 1_554 S
C779 C776 1.499 . S
C779 C780 1.373 . S
C779 C781 1.389 . S
C780 H753 0.950 . S
C780 C766 1.377 . S
C780 C779 1.373 . S
C781 C765 1.377 . S
C781 C779 1.389 . S
C781 C782 1.524 . S
C782 C781 1.524 . S
C782 C783 1.397 . S
C782 C787 1.363 . S
C783 H754 0.950 . S
C783 C782 1.397 . S
C783 C784 1.334 . S
C784 H755 0.950 . S
C784 C783 1.334 . S
C784 C785 1.287 . S
C785 C784 1.287 . S
C785 C786 1.524 . S
C785 H788 0.999 . S
C786 H756 0.950 . S
C786 C785 1.524 . S
C786 C787 1.415 . S
C787 H757 0.950 . S
C787 C782 1.363 . S
C787 C786 1.415 . S
H788 C785 0.999 . S
H789 C770 0.913 . S
H790 C808 0.951 . S
H791 C810 0.951 . S
H792 C812 0.950 . S
H793 C813 0.950 . S
H794 C815 0.950 . S
H795 C818 0.950 . S
H796 C819 0.950 . S
H797 C821 0.950 . S
H798 C822 0.950 . S
H799 C823 0.951 . S
H800 C825 0.951 . S
H801 C827 0.950 . S
H802 C828 0.950 . S
H803 C830 0.950 . S
H804 C833 0.950 . S
H805 C834 0.950 . S
H806 C836 0.950 . S
H807 C837 0.950 . S
C808 H790 0.951 . S
C808 C809 1.366 . S
C808 C810 1.388 . S
C809 C808 1.366 . S
C809 C813 1.385 . S
C810 H791 0.951 . S
C810 C808 1.388 . S
C810 C811 1.366 . S
C811 C810 1.366 . S
C811 C812 1.414 . S
C811 C814 1.499 . S
C812 H792 0.950 . S
C812 C811 1.414 . S
C812 C813 1.374 . S
C813 H793 0.950 . S
C813 C809 1.385 . S
C813 C812 1.374 . S
C814 C811 1.499 . S
C814 C815 1.373 . S
C814 C816 1.389 . S
C815 H794 0.950 . S
C815 C814 1.373 . S
C815 C831 1.377 . S
C816 C814 1.389 . S
C816 C817 1.524 . S
C816 C830 1.377 . S
C817 C816 1.524 . S
C817 C818 1.397 . S
C817 C822 1.363 . S
C818 H795 0.950 . S
C818 C817 1.397 . S
C818 C819 1.334 . S
C819 H796 0.950 . S
C819 C818 1.334 . S
C819 C820 1.287 . S
C820 C819 1.287 . S
C820 C821 1.524 . S
C820 H839 0.913 . S
C821 H797 0.950 . S
C821 C820 1.524 . S
C821 C822 1.415 . S
C822 H798 0.950 . S
C822 C817 1.363 . S
C822 C821 1.415 . S
C823 H799 0.951 . S
C823 C824 1.366 . S
C823 C825 1.388 . S
C824 C823 1.366 . S
C824 C828 1.385 . S
C825 H800 0.951 . S
C825 C823 1.388 . S
C825 C826 1.366 . S
C826 C825 1.366 . S
C826 C827 1.414 . S
C826 C829 1.499 . S
C827 H801 0.950 . S
C827 C826 1.414 . S
C827 C828 1.374 . S
C828 H802 0.950 . S
C828 C824 1.385 . S
C828 C827 1.374 . S
C829 C826 1.499 . S
C829 C830 1.373 . S
C829 C831 1.389 . S
C830 H803 0.950 . S
C830 C816 1.377 . S
C830 C829 1.373 . S
C831 C815 1.377 . S
C831 C829 1.389 . S
C831 C832 1.524 . S
C832 C831 1.524 . S
C832 C833 1.397 . S
C832 C837 1.363 . S
C833 H804 0.950 . S
C833 C832 1.397 . S
C833 C834 1.334 . S
C834 H805 0.950 . S
C834 C833 1.334 . S
C834 C835 1.287 . S
C835 C834 1.287 . S
C835 C836 1.524 . S
C835 H838 0.999 . S
C836 H806 0.950 . S
C836 C835 1.524 . S
C836 C837 1.415 . S
C837 H807 0.950 . S
C837 C832 1.363 . S
C837 C836 1.415 . S
H838 C835 0.999 . S
H839 C820 0.913 . S
H840 C858 0.951 . S
H841 C860 0.951 . S
H842 C862 0.950 . S
H843 C863 0.950 . S
H844 C865 0.950 . S
H845 C868 0.950 . S
H846 C869 0.950 . S
H847 C871 0.950 . S
H848 C872 0.950 1_655 S
H849 C873 0.951 . S
H850 C875 0.951 . S
H851 C877 0.934 1_655 S
H852 C878 0.950 1_655 S
H853 C880 0.950 . S
H854 C883 0.950 . S
H855 C884 0.950 . S
H856 C886 0.950 . S
H857 C887 0.950 . S
C858 H840 0.951 . S
C858 C859 1.366 . S
C858 C860 1.388 . S
C859 C858 1.366 . S
C859 C863 1.385 . S
C860 H841 0.951 . S
C860 C858 1.388 . S
C860 C861 1.366 . S
C861 C860 1.366 . S
C861 C862 1.414 . S
C861 C864 1.499 . S
C862 H842 0.950 . S
C862 C861 1.414 . S
C862 C863 1.374 . S
C863 H843 0.950 . S
C863 C859 1.385 . S
C863 C862 1.374 . S
C864 C861 1.499 . S
C864 C865 1.373 . S
C864 C866 1.389 . S
C865 H844 0.950 . S
C865 C864 1.373 . S
C865 C881 1.377 . S
C866 C864 1.389 . S
C866 C867 1.524 . S
C866 C880 1.377 . S
C867 C866 1.524 . S
C867 C868 1.397 . S
C867 C872 1.363 . S
C868 H845 0.950 . S
C868 C867 1.397 . S
C868 C869 1.334 1_554 S
C869 H846 0.950 . S
C869 C868 1.334 1_556 S
C869 C870 1.287 . S
C870 C869 1.287 . S
C870 C871 1.524 1_455 S
C870 H889 0.913 . S
C871 H847 0.950 . S
C871 C870 1.524 1_655 S
C871 C872 1.415 1_656 S
C872 H848 0.950 1_455 S
C872 C867 1.363 . S
C872 C871 1.415 1_454 S
C873 H849 0.951 . S
C873 C874 1.366 . S
C873 C875 1.388 . S
C874 C873 1.366 . S
C874 C878 1.385 . S
C875 H850 0.951 . S
C875 C873 1.388 . S
C875 C876 1.366 . S
C876 C875 1.366 . S
C876 C877 1.414 . S
C876 C879 1.499 . S
C877 H851 0.934 1_455 S
C877 C876 1.414 . S
C877 C878 1.374 . S
C878 H852 0.950 1_455 S
C878 C874 1.385 . S
C878 C877 1.374 . S
C879 C876 1.499 . S
C879 C880 1.373 . S
C879 C881 1.389 . S
C880 H853 0.950 . S
C880 C866 1.377 . S
C880 C879 1.373 . S
C881 C865 1.377 . S
C881 C879 1.389 . S
C881 C882 1.524 . S
C882 C881 1.524 . S
C882 C883 1.397 . S
C882 C887 1.363 . S
C883 H854 0.950 . S
C883 C882 1.397 . S
C883 C884 1.334 . S
C884 H855 0.950 . S
C884 C883 1.334 . S
C884 C885 1.287 . S
C885 C884 1.287 . S
C885 C886 1.524 . S
C885 H888 0.999 . S
C886 H856 0.950 . S
C886 C885 1.524 . S
C886 C887 1.415 . S
C887 H857 0.950 . S
C887 C882 1.363 . S
C887 C886 1.415 . S
H888 C885 0.999 . S
H889 C870 0.913 . S
H890 C908 0.951 . S
H891 C910 0.951 . S
H892 C912 0.950 . S
H893 C913 0.950 . S
H894 C915 0.950 . S
H895 C918 0.950 . S
H896 C919 0.950 . S
H897 C921 0.950 . S
H898 C922 0.950 . S
H899 C923 0.951 . S
H900 C925 0.951 . S
H901 C927 0.950 . S
H902 C928 0.950 . S
H903 C930 0.950 . S
H904 C933 0.950 . S
H905 C934 0.950 . S
H906 C936 0.950 . S
H907 C937 0.950 1_556 S
C908 H890 0.951 . S
C908 C909 1.366 . S
C908 C910 1.388 . S
C909 C908 1.366 . S
C909 C913 1.385 . S
C910 H891 0.951 . S
C910 C908 1.388 . S
C910 C911 1.366 . S
C911 C910 1.366 . S
C911 C912 1.414 . S
C911 C914 1.499 . S
C912 H892 0.950 . S
C912 C911 1.414 . S
C912 C913 1.374 . S
C913 H893 0.950 . S
C913 C909 1.385 . S
C913 C912 1.374 . S
C914 C911 1.499 . S
C914 C915 1.373 . S
C914 C916 1.389 . S
C915 H894 0.950 . S
C915 C914 1.373 . S
C915 C931 1.377 . S
C916 C914 1.389 . S
C916 C917 1.524 . S
C916 C930 1.377 . S
C917 C916 1.524 . S
C917 C918 1.397 . S
C917 C922 1.363 . S
C918 H895 0.950 . S
C918 C917 1.397 . S
C918 C919 1.334 . S
C919 H896 0.950 . S
C919 C918 1.334 . S
C919 C920 1.287 . S
C920 C919 1.287 . S
C920 C921 1.524 . S
C920 H939 0.913 . S
C921 H897 0.950 . S
C921 C920 1.524 . S
C921 C922 1.415 . S
C922 H898 0.950 . S
C922 C917 1.363 . S
C922 C921 1.415 . S
C923 H899 0.951 . S
C923 C924 1.366 . S
C923 C925 1.388 . S
C924 C923 1.366 . S
C924 C928 1.385 . S
C925 H900 0.951 . S
C925 C923 1.388 . S
C925 C926 1.366 . S
C926 C925 1.366 . S
C926 C927 1.414 . S
C926 C929 1.499 . S
C927 H901 0.950 . S
C927 C926 1.414 . S
C927 C928 1.374 . S
C928 H902 0.950 . S
C928 C924 1.385 . S
C928 C927 1.374 . S
C929 C926 1.499 . S
C929 C930 1.373 . S
C929 C931 1.389 . S
C930 H903 0.950 . S
C930 C916 1.377 . S
C930 C929 1.373 . S
C931 C915 1.377 . S
C931 C929 1.389 . S
C931 C932 1.477 1_556 S
C932 C931 1.477 1_554 S
C932 C933 1.430 . S
C932 C937 1.379 . S
C933 H904 0.950 . S
C933 C932 1.430 . S
C933 C934 1.334 . S
C934 H905 0.950 . S
C934 C933 1.334 . S
C934 C935 1.287 . S
C935 C934 1.287 . S
C935 C936 1.524 . S
C935 H938 0.999 . S
C936 H906 0.950 . S
C936 C935 1.524 . S
C936 C937 1.415 . S
C937 H907 0.950 1_554 S
C937 C932 1.379 . S
C937 C936 1.415 . S
H938 C935 0.999 . S
H939 C920 0.913 . S
H940 C958 0.951 . S
H941 C960 0.951 . S
H942 C962 0.950 . S
H943 C963 0.950 . S
H944 C965 0.950 . S
H945 C968 0.950 . S
H946 C969 0.950 . S
H947 C971 0.950 . S
H948 C972 0.950 . S
H949 C973 0.951 1_455 S
H950 C975 0.951 1_455 S
H951 C977 0.950 . S
H952 C978 0.950 . S
H953 C980 0.950 . S
H954 C983 0.950 . S
H955 C984 0.950 . S
H956 C986 0.950 . S
H957 C987 0.950 . S
C958 H940 0.951 . S
C958 C959 1.366 . S
C958 C960 1.388 . S
C959 C958 1.366 . S
C959 C963 1.385 . S
C960 H941 0.951 . S
C960 C958 1.388 . S
C960 C961 1.366 . S
C961 C960 1.366 . S
C961 C962 1.414 . S
C961 C964 1.499 . S
C962 H942 0.950 . S
C962 C961 1.414 . S
C962 C963 1.374 . S
C963 H943 0.950 . S
C963 C959 1.385 . S
C963 C962 1.374 . S
C964 C961 1.499 . S
C964 C965 1.373 . S
C964 C966 1.389 . S
C965 H944 0.950 . S
C965 C964 1.373 . S
C965 C981 1.377 . S
C966 C964 1.389 . S
C966 C967 1.524 . S
C966 C980 1.377 . S
C967 C966 1.524 . S
C967 C968 1.397 . S
C967 C972 1.363 . S
C968 H945 0.950 . S
C968 C967 1.397 . S
C968 C969 1.334 . S
C969 H946 0.950 . S
C969 C968 1.334 . S
C969 C970 1.287 . S
C970 C969 1.287 . S
C970 C971 1.524 . S
C970 H989 0.913 . S
C971 H947 0.950 . S
C971 C970 1.524 . S
C971 C972 1.415 . S
C972 H948 0.950 . S
C972 C967 1.363 . S
C972 C971 1.415 . S
C973 H949 0.951 1_655 S
C973 C974 1.366 . S
C973 C975 1.388 . S
C974 C973 1.366 . S
C974 C978 1.385 . S
C975 H950 0.951 1_655 S
C975 C973 1.388 . S
C975 C976 1.366 . S
C976 C975 1.366 . S
C976 C977 1.414 . S
C976 C979 1.499 . S
C977 H951 0.950 . S
C977 C976 1.414 . S
C977 C978 1.374 . S
C978 H952 0.950 . S
C978 C974 1.385 . S
C978 C977 1.374 . S
C979 C976 1.499 . S
C979 C980 1.373 . S
C979 C981 1.389 . S
C980 H953 0.950 . S
C980 C966 1.377 . S
C980 C979 1.373 . S
C981 C965 1.377 . S
C981 C979 1.389 . S
C981 C982 1.524 1_655 S
C982 C981 1.524 1_455 S
C982 C983 1.397 . S
C982 C987 1.363 . S
C983 H954 0.950 . S
C983 C982 1.397 . S
C983 C984 1.334 . S
C984 H955 0.950 . S
C984 C983 1.334 . S
C984 C985 1.287 . S
C985 C984 1.287 . S
C985 C986 1.524 . S
C985 H988 0.999 . S
C986 H956 0.950 . S
C986 C985 1.524 . S
C986 C987 1.415 . S
C987 H957 0.950 . S
C987 C982 1.363 . S
C987 C986 1.415 . S
H988 C985 0.999 . S
H989 C970 0.913 . S
H990 C1008 0.951 . S
H991 C1010 0.951 . S
H992 C1012 0.950 . S
H993 C1013 0.950 . S
H994 C1015 0.950 . S
H995 C1018 0.950 . S
H996 C1019 0.950 . S
H997 C1021 0.950 . S
H998 C1022 0.950 . S
H999 C1023 0.951 . S
H1000 C1025 0.951 . S
H1001 C1027 0.950 . S
H1002 C1028 0.950 . S
H1003 C1030 0.950 . S
H1004 C1033 0.950 . S
H1005 C1034 0.950 . S
H1006 C1036 0.950 . S
H1007 C1037 0.950 . S
C1008 H990 0.951 . S
C1008 C1009 1.366 . S
C1008 C1010 1.388 . S
C1009 C1008 1.366 . S
C1009 C1013 1.385 . S
C1010 H991 0.951 . S
C1010 C1008 1.388 . S
C1010 C1011 1.366 . S
C1011 C1010 1.366 . S
C1011 C1012 1.414 . S
C1011 C1014 1.499 . S
C1012 H992 0.950 . S
C1012 C1011 1.414 . S
C1012 C1013 1.374 . S
C1013 H993 0.950 . S
C1013 C1009 1.385 . S
C1013 C1012 1.374 . S
C1014 C1011 1.499 . S
C1014 C1015 1.373 . S
C1014 C1016 1.389 . S
C1015 H994 0.950 . S
C1015 C1014 1.373 . S
C1015 C1031 1.377 . S
C1016 C1014 1.389 . S
C1016 C1017 1.524 . S
C1016 C1030 1.377 . S
C1017 C1016 1.524 . S
C1017 C1018 1.397 . S
C1017 C1022 1.363 . S
C1018 H995 0.950 . S
C1018 C1017 1.397 . S
C1018 C1019 1.334 . S
C1019 H996 0.950 . S
C1019 C1018 1.334 . S
C1019 C1020 1.287 . S
C1020 C1019 1.287 . S
C1020 C1021 1.524 . S
C1020 H1039 0.913 . S
C1021 H997 0.950 . S
C1021 C1020 1.524 . S
C1021 C1022 1.415 . S
C1022 H998 0.950 . S
C1022 C1017 1.363 . S
C1022 C1021 1.415 . S
C1023 H999 0.951 . S
C1023 C1024 1.366 . S
C1023 C1025 1.388 . S
C1024 C1023 1.366 . S
C1024 C1028 1.385 . S
C1025 H1000 0.951 . S
C1025 C1023 1.388 . S
C1025 C1026 1.366 . S
C1026 C1025 1.366 . S
C1026 C1027 1.414 . S
C1026 C1029 1.499 . S
C1027 H1001 0.950 . S
C1027 C1026 1.414 . S
C1027 C1028 1.374 . S
C1028 H1002 0.950 . S
C1028 C1024 1.385 . S
C1028 C1027 1.374 . S
C1029 C1026 1.499 . S
C1029 C1030 1.373 . S
C1029 C1031 1.389 . S
C1030 H1003 0.950 . S
C1030 C1016 1.377 . S
C1030 C1029 1.373 . S
C1031 C1015 1.377 . S
C1031 C1029 1.389 . S
C1031 C1032 1.524 . S
C1032 C1031 1.524 . S
C1032 C1033 1.397 . S
C1032 C1037 1.363 . S
C1033 H1004 0.950 . S
C1033 C1032 1.397 . S
C1033 C1034 1.334 . S
C1034 H1005 0.950 . S
C1034 C1033 1.334 . S
C1034 C1035 1.287 . S
C1035 C1034 1.287 . S
C1035 C1036 1.524 . S
C1035 H1038 0.999 . S
C1036 H1006 0.950 . S
C1036 C1035 1.524 . S
C1036 C1037 1.415 . S
C1037 H1007 0.950 . S
C1037 C1032 1.363 . S
C1037 C1036 1.415 . S
H1038 C1035 0.999 . S
H1039 C1020 0.913 . S
H1040 C1058 0.951 . S
H1041 C1060 0.951 . S
H1042 C1062 0.950 . S
H1043 C1063 0.950 . S
H1044 C1065 0.950 . S
H1045 C1068 0.950 . S
H1046 C1069 0.950 . S
H1047 C1071 0.950 1_545 S
H1048 C1072 0.950 1_545 S
H1049 C1073 0.951 . S
H1050 C1075 0.951 . S
H1051 C1077 0.950 1_545 S
H1052 C1078 0.950 1_545 S
H1053 C1080 0.950 . S
H1054 C1083 0.950 . S
H1055 C1084 0.950 . S
H1056 C1086 0.950 . S
H1057 C1087 0.950 . S
C1058 H1040 0.951 . S
C1058 C1059 1.366 . S
C1058 C1060 1.388 . S
C1059 C1058 1.366 . S
C1059 C1063 1.385 . S
C1060 H1041 0.951 . S
C1060 C1058 1.388 . S
C1060 C1061 1.366 . S
C1061 C1060 1.366 . S
C1061 C1062 1.414 . S
C1061 C1064 1.499 . S
C1062 H1042 0.950 . S
C1062 C1061 1.414 . S
C1062 C1063 1.374 . S
C1063 H1043 0.950 . S
C1063 C1059 1.385 . S
C1063 C1062 1.374 . S
C1064 C1061 1.499 . S
C1064 C1065 1.373 . S
C1064 C1066 1.389 . S
C1065 H1044 0.950 . S
C1065 C1064 1.373 . S
C1065 C1081 1.377 . S
C1066 C1064 1.389 . S
C1066 C1067 1.524 . S
C1066 C1080 1.377 . S
C1067 C1066 1.524 . S
C1067 C1068 1.397 . S
C1067 C1072 1.363 . S
C1068 H1045 0.950 . S
C1068 C1067 1.397 . S
C1068 C1069 1.334 . S
C1069 H1046 0.950 . S
C1069 C1068 1.334 . S
C1069 C1070 1.287 . S
C1070 C1069 1.287 . S
C1070 C1071 1.524 . S
C1070 H1089 0.913 . S
C1071 H1047 0.950 1_565 S
C1071 C1070 1.524 . S
C1071 C1072 1.415 . S
C1072 H1048 0.950 1_565 S
C1072 C1067 1.363 . S
C1072 C1071 1.415 . S
C1073 H1049 0.951 . S
C1073 C1074 1.366 . S
C1073 C1075 1.388 . S
C1074 C1073 1.366 . S
C1074 C1078 1.385 . S
C1075 H1050 0.951 . S
C1075 C1073 1.388 . S
C1075 C1076 1.366 . S
C1076 C1075 1.366 . S
C1076 C1077 1.414 . S
C1076 C1079 1.499 . S
C1077 H1051 0.950 1_565 S
C1077 C1076 1.414 . S
C1077 C1078 1.374 . S
C1078 H1052 0.950 1_565 S
C1078 C1074 1.385 . S
C1078 C1077 1.374 . S
C1079 C1076 1.499 . S
C1079 C1080 1.373 . S
C1079 C1081 1.389 . S
C1080 H1053 0.950 . S
C1080 C1066 1.377 . S
C1080 C1079 1.373 . S
C1081 C1065 1.377 . S
C1081 C1079 1.389 . S
C1081 C1082 1.524 1_655 S
C1082 C1081 1.524 1_455 S
C1082 C1083 1.397 . S
C1082 C1087 1.363 . S
C1083 H1054 0.950 . S
C1083 C1082 1.397 . S
C1083 C1084 1.334 . S
C1084 H1055 0.950 . S
C1084 C1083 1.334 . S
C1084 C1085 1.287 . S
C1085 C1084 1.287 . S
C1085 C1086 1.524 . S
C1085 H1088 0.999 . S
C1086 H1056 0.950 . S
C1086 C1085 1.524 . S
C1086 C1087 1.415 . S
C1087 H1057 0.950 . S
C1087 C1082 1.363 . S
C1087 C1086 1.415 . S
H1088 C1085 0.999 . S
H1089 C1070 0.913 . S
H1090 C1108 0.951 . S
H1091 C1110 0.951 . S
H1092 C1112 0.950 . S
H1093 C1113 0.950 . S
H1094 C1115 0.950 . S
H1095 C1118 0.950 . S
H1096 C1119 0.950 . S
H1097 C1121 0.950 . S
H1098 C1122 0.950 . S
H1099 C1123 0.951 . S
H1100 C1125 0.951 . S
H1101 C1127 0.950 . S
H1102 C1128 0.950 . S
H1103 C1130 0.950 . S
H1104 C1133 0.950 . S
H1105 C1134 0.950 . S
H1106 C1136 0.950 . S
H1107 C1137 0.950 . S
C1108 H1090 0.951 . S
C1108 C1109 1.366 . S
C1108 C1110 1.388 . S
C1109 C1108 1.366 . S
C1109 C1113 1.385 . S
C1110 H1091 0.951 . S
C1110 C1108 1.388 . S
C1110 C1111 1.366 . S
C1111 C1110 1.366 . S
C1111 C1112 1.414 . S
C1111 C1114 1.499 . S
C1112 H1092 0.950 . S
C1112 C1111 1.414 . S
C1112 C1113 1.374 . S
C1113 H1093 0.950 . S
C1113 C1109 1.385 . S
C1113 C1112 1.374 . S
C1114 C1111 1.499 . S
C1114 C1115 1.373 . S
C1114 C1116 1.389 . S
C1115 H1094 0.950 . S
C1115 C1114 1.373 . S
C1115 C1131 1.377 . S
C1116 C1114 1.389 . S
C1116 C1117 1.524 . S
C1116 C1130 1.377 . S
C1117 C1116 1.524 . S
C1117 C1118 1.397 . S
C1117 C1122 1.363 . S
C1118 H1095 0.950 . S
C1118 C1117 1.397 . S
C1118 C1119 1.334 . S
C1119 H1096 0.950 . S
C1119 C1118 1.334 . S
C1119 C1120 1.287 . S
C1120 C1119 1.287 . S
C1120 C1121 1.524 . S
C1120 H1139 0.913 . S
C1121 H1097 0.950 . S
C1121 C1120 1.524 . S
C1121 C1122 1.415 . S
C1122 H1098 0.950 . S
C1122 C1117 1.363 . S
C1122 C1121 1.415 . S
C1123 H1099 0.951 . S
C1123 C1124 1.366 . S
C1123 C1125 1.388 . S
C1124 C1123 1.366 . S
C1124 C1128 1.385 . S
C1125 H1100 0.951 . S
C1125 C1123 1.388 . S
C1125 C1126 1.366 . S
C1126 C1125 1.366 . S
C1126 C1127 1.414 . S
C1126 C1129 1.499 . S
C1127 H1101 0.950 . S
C1127 C1126 1.414 . S
C1127 C1128 1.374 . S
C1128 H1102 0.950 . S
C1128 C1124 1.385 . S
C1128 C1127 1.374 . S
C1129 C1126 1.499 . S
C1129 C1130 1.373 . S
C1129 C1131 1.389 . S
C1130 H1103 0.950 . S
C1130 C1116 1.377 . S
C1130 C1129 1.373 . S
C1131 C1115 1.377 . S
C1131 C1129 1.389 . S
C1131 C1132 1.524 . S
C1132 C1131 1.524 . S
C1132 C1133 1.397 . S
C1132 C1137 1.363 . S
C1133 H1104 0.950 . S
C1133 C1132 1.397 . S
C1133 C1134 1.334 . S
C1134 H1105 0.950 . S
C1134 C1133 1.334 . S
C1134 C1135 1.287 . S
C1135 C1134 1.287 . S
C1135 C1136 1.524 . S
C1135 H1138 0.999 . S
C1136 H1106 0.950 . S
C1136 C1135 1.524 . S
C1136 C1137 1.415 . S
C1137 H1107 0.950 . S
C1137 C1132 1.363 . S
C1137 C1136 1.415 . S
H1138 C1135 0.999 . S
H1139 C1120 0.913 . S
H1140 C1158 0.951 . S
H1141 C1160 0.951 . S
H1142 C1162 0.950 . S
H1143 C1163 0.950 . S
H1144 C1165 0.950 . S
H1145 C1168 0.950 . S
H1146 C1169 0.950 . S
H1147 C1171 0.950 . S
H1148 C1172 0.950 . S
H1149 C1173 0.951 . S
H1150 C1175 0.951 . S
H1151 C1177 0.950 . S
H1152 C1178 0.950 . S
H1153 C1180 0.950 . S
H1154 C1183 0.950 . S
H1155 C1184 0.950 . S
H1156 C1186 0.950 . S
H1157 C1187 0.950 . S
C1158 H1140 0.951 . S
C1158 C1159 1.366 . S
C1158 C1160 1.388 . S
C1159 C1158 1.366 . S
C1159 C1163 1.385 . S
C1160 H1141 0.951 . S
C1160 C1158 1.388 . S
C1160 C1161 1.366 . S
C1161 C1160 1.366 . S
C1161 C1162 1.414 . S
C1161 C1164 1.499 . S
C1162 H1142 0.950 . S
C1162 C1161 1.414 . S
C1162 C1163 1.374 . S
C1163 H1143 0.950 . S
C1163 C1159 1.385 . S
C1163 C1162 1.374 . S
C1164 C1161 1.499 . S
C1164 C1165 1.373 . S
C1164 C1166 1.389 . S
C1165 H1144 0.950 . S
C1165 C1164 1.373 . S
C1165 C1181 1.377 . S
C1166 C1164 1.389 . S
C1166 C1167 1.524 . S
C1166 C1180 1.377 . S
C1167 C1166 1.524 . S
C1167 C1168 1.397 . S
C1167 C1172 1.363 . S
C1168 H1145 0.950 . S
C1168 C1167 1.397 . S
C1168 C1169 1.334 . S
C1169 H1146 0.950 . S
C1169 C1168 1.334 . S
C1169 C1170 1.287 . S
C1170 C1169 1.287 . S
C1170 C1171 1.524 . S
C1170 H1189 0.913 . S
C1171 H1147 0.950 . S
C1171 C1170 1.524 . S
C1171 C1172 1.415 . S
C1172 H1148 0.950 . S
C1172 C1167 1.363 . S
C1172 C1171 1.415 . S
C1173 H1149 0.951 . S
C1173 C1174 1.366 . S
C1173 C1175 1.388 . S
C1174 C1173 1.366 . S
C1174 C1178 1.385 . S
C1175 H1150 0.951 . S
C1175 C1173 1.388 . S
C1175 C1176 1.366 . S
C1176 C1175 1.366 . S
C1176 C1177 1.414 . S
C1176 C1179 1.499 . S
C1177 H1151 0.950 . S
C1177 C1176 1.414 . S
C1177 C1178 1.374 . S
C1178 H1152 0.950 . S
C1178 C1174 1.385 . S
C1178 C1177 1.374 . S
C1179 C1176 1.499 . S
C1179 C1180 1.373 . S
C1179 C1181 1.389 . S
C1180 H1153 0.950 . S
C1180 C1166 1.377 . S
C1180 C1179 1.373 . S
C1181 C1165 1.377 . S
C1181 C1179 1.389 . S
C1181 C1182 1.524 . S
C1182 C1181 1.524 . S
C1182 C1183 1.397 . S
C1182 C1187 1.363 . S
C1183 H1154 0.950 . S
C1183 C1182 1.397 . S
C1183 C1184 1.334 . S
C1184 H1155 0.950 . S
C1184 C1183 1.334 . S
C1184 C1185 1.287 . S
C1185 C1184 1.287 . S
C1185 C1186 1.524 . S
C1185 H1188 0.999 . S
C1186 H1156 0.950 . S
C1186 C1185 1.524 . S
C1186 C1187 1.415 . S
C1187 H1157 0.950 . S
C1187 C1182 1.363 . S
C1187 C1186 1.415 . S
H1188 C1185 0.999 . S
H1189 C1170 0.913 . S
H1190 C1208 0.951 . S
H1191 C1210 0.951 . S
H1192 C1212 0.950 . S
H1193 C1213 0.950 . S
H1194 C1215 0.950 . S
H1195 C1218 0.950 . S
H1196 C1219 0.950 . S
H1197 C1221 0.950 . S
H1198 C1222 0.950 . S
H1199 C1223 0.951 . S
H1200 C1225 0.951 . S
H1201 C1227 0.950 . S
H1202 C1228 0.950 . S
H1203 C1230 0.950 . S
H1204 C1233 0.950 . S
H1205 C1234 0.950 . S
H1206 C1236 0.950 . S
H1207 C1237 0.950 . S
C1208 H1190 0.951 . S
C1208 C1209 1.366 . S
C1208 C1210 1.388 . S
C1209 C1208 1.366 . S
C1209 C1213 1.385 . S
C1210 H1191 0.951 . S
C1210 C1208 1.388 . S
C1210 C1211 1.366 . S
C1211 C1210 1.366 . S
C1211 C1212 1.414 . S
C1211 C1214 1.499 . S
C1212 H1192 0.950 . S
C1212 C1211 1.414 . S
C1212 C1213 1.374 . S
C1213 H1193 0.950 . S
C1213 C1209 1.385 . S
C1213 C1212 1.374 . S
C1214 C1211 1.499 . S
C1214 C1215 1.373 . S
C1214 C1216 1.389 . S
C1215 H1194 0.950 . S
C1215 C1214 1.373 . S
C1215 C1231 1.377 . S
C1216 C1214 1.389 . S
C1216 C1217 1.524 . S
C1216 C1230 1.377 . S
C1217 C1216 1.524 . S
C1217 C1218 1.397 . S
C1217 C1222 1.363 1_455 S
C1218 H1195 0.950 . S
C1218 C1217 1.397 . S
C1218 C1219 1.334 1_455 S
C1219 H1196 0.950 . S
C1219 C1218 1.334 1_655 S
C1219 C1220 1.287 . S
C1220 C1219 1.287 . S
C1220 C1221 1.524 . S
C1220 H1239 0.913 . S
C1221 H1197 0.950 . S
C1221 C1220 1.524 . S
C1221 C1222 1.415 . S
C1222 H1198 0.950 . S
C1222 C1217 1.363 1_655 S
C1222 C1221 1.415 . S
C1223 H1199 0.951 . S
C1223 C1224 1.366 . S
C1223 C1225 1.388 . S
C1224 C1223 1.366 . S
C1224 C1228 1.385 . S
C1225 H1200 0.951 . S
C1225 C1223 1.388 . S
C1225 C1226 1.366 . S
C1226 C1225 1.366 . S
C1226 C1227 1.414 . S
C1226 C1229 1.499 . S
C1227 H1201 0.950 . S
C1227 C1226 1.414 . S
C1227 C1228 1.374 . S
C1228 H1202 0.950 . S
C1228 C1224 1.385 . S
C1228 C1227 1.374 . S
C1229 C1226 1.499 . S
C1229 C1230 1.373 . S
C1229 C1231 1.389 . S
C1230 H1203 0.950 . S
C1230 C1216 1.377 . S
C1230 C1229 1.373 . S
C1231 C1215 1.377 . S
C1231 C1229 1.389 . S
C1231 C1232 1.524 . S
C1232 C1231 1.524 . S
C1232 C1233 1.397 . S
C1232 C1237 1.363 . S
C1233 H1204 0.950 . S
C1233 C1232 1.397 . S
C1233 C1234 1.334 . S
C1234 H1205 0.950 . S
C1234 C1233 1.334 . S
C1234 C1235 1.287 . S
C1235 C1234 1.287 . S
C1235 C1236 1.524 . S
C1235 H1238 0.999 . S
C1236 H1206 0.950 . S
C1236 C1235 1.524 . S
C1236 C1237 1.415 . S
C1237 H1207 0.950 . S
C1237 C1232 1.363 . S
C1237 C1236 1.415 . S
H1238 C1235 0.999 . S
H1239 C1220 0.913 . S
H1240 C1258 0.951 . S
H1241 C1260 0.951 . S
H1242 C1262 0.950 . S
H1243 C1263 0.950 . S
H1244 C1265 0.950 . S
H1245 C1268 0.950 . S
H1246 C1269 0.950 . S
H1247 C1271 0.950 . S
H1248 C1272 0.950 . S
H1249 C1273 0.951 1_545 S
H1250 C1275 0.951 1_545 S
H1251 C1277 0.950 . S
H1252 C1278 0.950 . S
H1253 C1280 0.950 . S
H1254 C1283 0.950 . S
H1255 C1284 0.950 . S
H1256 C1286 0.950 . S
H1257 C1287 0.940 1_546 S
C1258 H1240 0.951 . S
C1258 C1259 1.366 . S
C1258 C1260 1.388 . S
C1259 C1258 1.366 . S
C1259 C1263 1.385 . S
C1260 H1241 0.951 . S
C1260 C1258 1.388 . S
C1260 C1261 1.366 . S
C1261 C1260 1.366 . S
C1261 C1262 1.414 . S
C1261 C1264 1.499 . S
C1262 H1242 0.950 . S
C1262 C1261 1.414 . S
C1262 C1263 1.374 . S
C1263 H1243 0.950 . S
C1263 C1259 1.385 . S
C1263 C1262 1.374 . S
C1264 C1261 1.499 . S
C1264 C1265 1.373 . S
C1264 C1266 1.389 . S
C1265 H1244 0.950 . S
C1265 C1264 1.373 . S
C1265 C1281 1.377 . S
C1266 C1264 1.389 . S
C1266 C1267 1.524 . S
C1266 C1280 1.377 . S
C1267 C1266 1.524 . S
C1267 C1268 1.397 . S
C1267 C1272 1.363 . S
C1268 H1245 0.950 . S
C1268 C1267 1.397 . S
C1268 C1269 1.334 . S
C1269 H1246 0.950 . S
C1269 C1268 1.334 . S
C1269 C1270 1.287 . S
C1270 C1269 1.287 . S
C1270 C1271 1.524 . S
C1270 H1289 0.913 . S
C1271 H1247 0.950 . S
C1271 C1270 1.524 . S
C1271 C1272 1.415 . S
C1272 H1248 0.950 . S
C1272 C1267 1.363 . S
C1272 C1271 1.415 . S
C1273 H1249 0.951 1_565 S
C1273 C1274 1.366 . S
C1273 C1275 1.388 . S
C1274 C1273 1.366 . S
C1274 C1278 1.385 . S
C1275 H1250 0.951 1_565 S
C1275 C1273 1.388 . S
C1275 C1276 1.366 . S
C1276 C1275 1.366 . S
C1276 C1277 1.414 . S
C1276 C1279 1.499 . S
C1277 H1251 0.950 . S
C1277 C1276 1.414 . S
C1277 C1278 1.374 . S
C1278 H1252 0.950 . S
C1278 C1274 1.385 . S
C1278 C1277 1.374 . S
C1279 C1276 1.499 . S
C1279 C1280 1.373 . S
C1279 C1281 1.389 . S
C1280 H1253 0.950 . S
C1280 C1266 1.377 . S
C1280 C1279 1.373 . S
C1281 C1265 1.377 . S
C1281 C1279 1.389 . S
C1281 C1282 1.524 1_556 S
C1282 C1281 1.524 1_554 S
C1282 C1283 1.397 . S
C1282 C1287 1.363 . S
C1283 H1254 0.950 . S
C1283 C1282 1.397 . S
C1283 C1284 1.334 . S
C1284 H1255 0.950 . S
C1284 C1283 1.334 . S
C1284 C1285 1.287 . S
C1285 C1284 1.287 . S
C1285 C1286 1.524 1_565 S
C1285 H1288 0.999 . S
C1286 H1256 0.950 . S
C1286 C1285 1.524 1_545 S
C1286 C1287 1.415 1_545 S
C1287 H1257 0.940 1_564 S
C1287 C1282 1.363 . S
C1287 C1286 1.415 1_565 S
H1288 C1285 0.999 . S
H1289 C1270 0.913 . S
H1290 C1308 0.951 . S
H1291 C1310 0.951 . S
H1292 C1312 0.950 . S
H1293 C1313 0.950 . S
H1294 C1315 0.950 . S
H1295 C1318 0.950 . S
H1296 C1319 0.950 . S
H1297 C1321 0.950 . S
H1298 C1322 0.950 . S
H1299 C1323 0.951 . S
H1300 C1325 0.951 . S
H1301 C1327 0.950 . S
H1302 C1328 0.950 . S
H1303 C1330 0.950 . S
H1304 C1333 0.950 . S
H1305 C1334 0.950 . S
H1306 C1336 0.950 . S
H1307 C1337 0.950 . S
C1308 H1290 0.951 . S
C1308 C1309 1.366 . S
C1308 C1310 1.388 . S
C1309 C1308 1.366 . S
C1309 C1313 1.385 . S
C1310 H1291 0.951 . S
C1310 C1308 1.388 . S
C1310 C1311 1.366 . S
C1311 C1310 1.366 . S
C1311 C1312 1.414 . S
C1311 C1314 1.499 . S
C1312 H1292 0.950 . S
C1312 C1311 1.414 . S
C1312 C1313 1.374 . S
C1313 H1293 0.950 . S
C1313 C1309 1.385 . S
C1313 C1312 1.374 . S
C1314 C1311 1.499 . S
C1314 C1315 1.373 . S
C1314 C1316 1.389 . S
C1315 H1294 0.950 . S
C1315 C1314 1.373 . S
C1315 C1331 1.377 . S
C1316 C1314 1.389 . S
C1316 C1317 1.524 . S
C1316 C1330 1.377 . S
C1317 C1316 1.524 . S
C1317 C1318 1.397 . S
C1317 C1322 1.363 . S
C1318 H1295 0.950 . S
C1318 C1317 1.397 . S
C1318 C1319 1.334 . S
C1319 H1296 0.950 . S
C1319 C1318 1.334 . S
C1319 C1320 1.287 . S
C1320 C1319 1.287 . S
C1320 C1321 1.524 . S
C1320 H1339 0.913 . S
C1321 H1297 0.950 . S
C1321 C1320 1.524 . S
C1321 C1322 1.415 . S
C1322 H1298 0.950 . S
C1322 C1317 1.363 . S
C1322 C1321 1.415 . S
C1323 H1299 0.951 . S
C1323 C1324 1.366 . S
C1323 C1325 1.388 . S
C1324 C1323 1.366 . S
C1324 C1328 1.385 . S
C1325 H1300 0.951 . S
C1325 C1323 1.388 . S
C1325 C1326 1.366 . S
C1326 C1325 1.366 . S
C1326 C1327 1.414 . S
C1326 C1329 1.499 . S
C1327 H1301 0.950 . S
C1327 C1326 1.414 . S
C1327 C1328 1.374 . S
C1328 H1302 0.950 . S
C1328 C1324 1.385 . S
C1328 C1327 1.374 . S
C1329 C1326 1.499 . S
C1329 C1330 1.373 . S
C1329 C1331 1.389 . S
C1330 H1303 0.950 . S
C1330 C1316 1.377 . S
C1330 C1329 1.373 . S
C1331 C1315 1.377 . S
C1331 C1329 1.389 . S
C1331 C1332 1.524 . S
C1332 C1331 1.524 . S
C1332 C1333 1.397 . S
C1332 C1337 1.363 . S
C1333 H1304 0.950 . S
C1333 C1332 1.397 . S
C1333 C1334 1.334 . S
C1334 H1305 0.950 . S
C1334 C1333 1.334 . S
C1334 C1335 1.287 . S
C1335 C1334 1.287 . S
C1335 C1336 1.524 . S
C1335 H1338 0.999 . S
C1336 H1306 0.950 . S
C1336 C1335 1.524 . S
C1336 C1337 1.415 . S
C1337 H1307 0.950 . S
C1337 C1332 1.363 . S
C1337 C1336 1.415 . S
H1338 C1335 0.999 . S
H1339 C1320 0.913 . S
H1340 C1358 0.951 . S
H1341 C1360 0.951 . S
H1342 C1362 0.950 . S
H1343 C1363 0.950 . S
H1344 C1365 0.950 . S
H1345 C1368 0.950 . S
H1346 C1369 0.950 . S
H1347 C1371 0.950 1_556 S
H1348 C1372 0.950 . S
H1349 C1373 0.951 . S
H1350 C1375 0.951 . S
H1351 C1377 0.950 . S
H1352 C1378 0.950 . S
H1353 C1380 0.950 . S
H1354 C1383 0.950 . S
H1355 C1384 0.950 . S
H1356 C1386 0.950 . S
H1357 C1387 0.950 . S
C1358 H1340 0.951 . S
C1358 C1359 1.366 . S
C1358 C1360 1.388 . S
C1359 C1358 1.366 . S
C1359 C1363 1.385 . S
C1360 H1341 0.951 . S
C1360 C1358 1.388 . S
C1360 C1361 1.366 . S
C1361 C1360 1.366 . S
C1361 C1362 1.414 . S
C1361 C1364 1.499 . S
C1362 H1342 0.950 . S
C1362 C1361 1.414 . S
C1362 C1363 1.374 . S
C1363 H1343 0.950 . S
C1363 C1359 1.385 . S
C1363 C1362 1.374 . S
C1364 C1361 1.499 . S
C1364 C1365 1.373 . S
C1364 C1366 1.389 . S
C1365 H1344 0.950 . S
C1365 C1364 1.373 . S
C1365 C1381 1.377 . S
C1366 C1364 1.389 . S
C1366 C1367 1.524 . S
C1366 C1380 1.377 . S
C1367 C1366 1.524 . S
C1367 C1368 1.397 . S
C1367 C1372 1.363 . S
C1368 H1345 0.950 . S
C1368 C1367 1.397 . S
C1368 C1369 1.334 1_554 S
C1369 H1346 0.950 . S
C1369 C1368 1.334 1_556 S
C1369 C1370 1.287 . S
C1370 C1369 1.287 . S
C1370 C1371 1.524 1_556 S
C1370 H1389 0.913 . S
C1371 H1347 0.950 1_554 S
C1371 C1370 1.524 1_554 S
C1371 C1372 1.415 . S
C1372 H1348 0.950 . S
C1372 C1367 1.363 . S
C1372 C1371 1.415 . S
C1373 H1349 0.951 . S
C1373 C1374 1.366 . S
C1373 C1375 1.388 . S
C1374 C1373 1.366 . S
C1374 C1378 1.385 . S
C1375 H1350 0.951 . S
C1375 C1373 1.388 . S
C1375 C1376 1.366 . S
C1376 C1375 1.366 . S
C1376 C1377 1.414 . S
C1376 C1379 1.499 . S
C1377 H1351 0.950 . S
C1377 C1376 1.414 . S
C1377 C1378 1.374 . S
C1378 H1352 0.950 . S
C1378 C1374 1.385 . S
C1378 C1377 1.374 . S
C1379 C1376 1.499 . S
C1379 C1380 1.373 . S
C1379 C1381 1.389 . S
C1380 H1353 0.950 . S
C1380 C1366 1.377 . S
C1380 C1379 1.373 . S
C1381 C1365 1.377 . S
C1381 C1379 1.389 . S
C1381 C1382 1.524 . S
C1382 C1381 1.524 . S
C1382 C1383 1.397 . S
C1382 C1387 1.363 . S
C1383 H1354 0.950 . S
C1383 C1382 1.397 . S
C1383 C1384 1.334 . S
C1384 H1355 0.950 . S
C1384 C1383 1.334 . S
C1384 C1385 1.287 . S
C1385 C1384 1.287 . S
C1385 C1386 1.524 . S
C1385 H1388 0.999 . S
C1386 H1356 0.950 . S
C1386 C1385 1.524 . S
C1386 C1387 1.415 . S
C1387 H1357 0.950 . S
C1387 C1382 1.363 . S
C1387 C1386 1.415 . S
H1388 C1385 0.999 . S
H1389 C1370 0.913 . S
H1390 C1408 0.951 . S
H1391 C1410 0.951 . S
H1392 C1412 0.950 . S
H1393 C1413 0.950 . S
H1394 C1415 0.950 . S
H1395 C1418 0.950 . S
H1396 C1419 0.950 . S
H1397 C1421 0.950 . S
H1398 C1422 0.950 . S
H1399 C1423 0.951 . S
H1400 C1425 0.951 . S
H1401 C1427 0.950 . S
H1402 C1428 0.950 . S
H1403 C1430 0.950 . S
H1404 C1433 0.950 . S
H1405 C1434 0.950 . S
H1406 C1436 0.950 . S
H1407 C1437 0.950 . S
C1408 H1390 0.951 . S
C1408 C1409 1.366 . S
C1408 C1410 1.388 . S
C1409 C1408 1.366 . S
C1409 C1413 1.385 . S
C1410 H1391 0.951 . S
C1410 C1408 1.388 . S
C1410 C1411 1.366 . S
C1411 C1410 1.366 . S
C1411 C1412 1.414 . S
C1411 C1414 1.499 . S
C1412 H1392 0.950 . S
C1412 C1411 1.414 . S
C1412 C1413 1.374 . S
C1413 H1393 0.950 . S
C1413 C1409 1.385 . S
C1413 C1412 1.374 . S
C1414 C1411 1.499 . S
C1414 C1415 1.373 . S
C1414 C1416 1.389 . S
C1415 H1394 0.950 . S
C1415 C1414 1.373 . S
C1415 C1431 1.377 . S
C1416 C1414 1.389 . S
C1416 C1417 1.524 . S
C1416 C1430 1.377 . S
C1417 C1416 1.524 . S
C1417 C1418 1.397 . S
C1417 C1422 1.363 . S
C1418 H1395 0.950 . S
C1418 C1417 1.397 . S
C1418 C1419 1.334 . S
C1419 H1396 0.950 . S
C1419 C1418 1.334 . S
C1419 C1420 1.287 . S
C1420 C1419 1.287 . S
C1420 C1421 1.524 . S
C1420 H1439 0.913 . S
C1421 H1397 0.950 . S
C1421 C1420 1.524 . S
C1421 C1422 1.415 . S
C1422 H1398 0.950 . S
C1422 C1417 1.363 . S
C1422 C1421 1.415 . S
C1423 H1399 0.951 . S
C1423 C1424 1.366 . S
C1423 C1425 1.388 . S
C1424 C1423 1.366 . S
C1424 C1428 1.385 . S
C1425 H1400 0.951 . S
C1425 C1423 1.388 . S
C1425 C1426 1.366 . S
C1426 C1425 1.366 . S
C1426 C1427 1.414 . S
C1426 C1429 1.499 . S
C1427 H1401 0.950 . S
C1427 C1426 1.414 . S
C1427 C1428 1.374 . S
C1428 H1402 0.950 . S
C1428 C1424 1.385 . S
C1428 C1427 1.374 . S
C1429 C1426 1.499 . S
C1429 C1430 1.373 . S
C1429 C1431 1.389 . S
C1430 H1403 0.950 . S
C1430 C1416 1.377 . S
C1430 C1429 1.373 . S
C1431 C1415 1.377 . S
C1431 C1429 1.389 . S
C1431 C1432 1.524 . S
C1432 C1431 1.524 . S
C1432 C1433 1.397 . S
C1432 C1437 1.363 . S
C1433 H1404 0.950 . S
C1433 C1432 1.397 . S
C1433 C1434 1.334 . S
C1434 H1405 0.950 . S
C1434 C1433 1.334 . S
C1434 C1435 1.287 . S
C1435 C1434 1.287 . S
C1435 C1436 1.524 . S
C1435 H1438 0.999 . S
C1436 H1406 0.950 . S
C1436 C1435 1.524 . S
C1436 C1437 1.415 . S
C1437 H1407 0.950 . S
C1437 C1432 1.363 . S
C1437 C1436 1.415 . S
H1438 C1435 0.999 . S
H1439 C1420 0.913 . S
H1440 C1458 0.951 . S
H1441 C1460 0.951 . S
H1442 C1462 0.950 . S
H1443 C1463 0.950 . S
H1444 C1465 0.950 . S
H1445 C1468 0.950 . S
H1446 C1469 0.950 . S
H1447 C1471 0.950 . S
H1448 C1472 0.950 . S
H1449 C1473 0.951 . S
H1450 C1475 0.951 . S
H1451 C1477 0.950 1_455 S
H1452 C1478 0.950 1_455 S
H1453 C1480 0.950 . S
H1454 C1483 0.950 . S
H1455 C1484 0.950 . S
H1456 C1486 0.950 . S
H1457 C1487 0.950 . S
C1458 H1440 0.951 . S
C1458 C1459 1.366 . S
C1458 C1460 1.388 . S
C1459 C1458 1.366 . S
C1459 C1463 1.385 . S
C1460 H1441 0.951 . S
C1460 C1458 1.388 . S
C1460 C1461 1.366 . S
C1461 C1460 1.366 . S
C1461 C1462 1.414 . S
C1461 C1464 1.499 . S
C1462 H1442 0.950 . S
C1462 C1461 1.414 . S
C1462 C1463 1.374 . S
C1463 H1443 0.950 . S
C1463 C1459 1.385 . S
C1463 C1462 1.374 . S
C1464 C1461 1.499 . S
C1464 C1465 1.373 . S
C1464 C1466 1.389 . S
C1465 H1444 0.950 . S
C1465 C1464 1.373 . S
C1465 C1481 1.377 . S
C1466 C1464 1.389 . S
C1466 C1467 1.524 . S
C1466 C1480 1.377 . S
C1467 C1466 1.524 . S
C1467 C1468 1.397 . S
C1467 C1472 1.363 . S
C1468 H1445 0.950 . S
C1468 C1467 1.397 . S
C1468 C1469 1.334 . S
C1469 H1446 0.950 . S
C1469 C1468 1.334 . S
C1469 C1470 1.287 . S
C1470 C1469 1.287 . S
C1470 C1471 1.524 . S
C1470 H1489 0.913 . S
C1471 H1447 0.950 . S
C1471 C1470 1.524 . S
C1471 C1472 1.415 . S
C1472 H1448 0.950 . S
C1472 C1467 1.363 . S
C1472 C1471 1.415 . S
C1473 H1449 0.951 . S
C1473 C1474 1.366 . S
C1473 C1475 1.388 . S
C1474 C1473 1.366 . S
C1474 C1478 1.385 . S
C1475 H1450 0.951 . S
C1475 C1473 1.388 . S
C1475 C1476 1.366 . S
C1476 C1475 1.366 . S
C1476 C1477 1.414 . S
C1476 C1479 1.499 . S
C1477 H1451 0.950 1_655 S
C1477 C1476 1.414 . S
C1477 C1478 1.374 . S
C1478 H1452 0.950 1_655 S
C1478 C1474 1.385 . S
C1478 C1477 1.374 . S
C1479 C1476 1.499 . S
C1479 C1480 1.373 . S
C1479 C1481 1.389 . S
C1480 H1453 0.950 . S
C1480 C1466 1.377 . S
C1480 C1479 1.373 . S
C1481 C1465 1.377 . S
C1481 C1479 1.389 . S
C1481 C1482 1.524 1_556 S
C1482 C1481 1.524 1_554 S
C1482 C1483 1.397 . S
C1482 C1487 1.363 . S
C1483 H1454 0.950 . S
C1483 C1482 1.397 . S
C1483 C1484 1.334 . S
C1484 H1455 0.950 . S
C1484 C1483 1.334 . S
C1484 C1485 1.287 . S
C1485 C1484 1.287 . S
C1485 C1486 1.524 . S
C1485 H1488 0.999 . S
C1486 H1456 0.950 . S
C1486 C1485 1.524 . S
C1486 C1487 1.415 . S
C1487 H1457 0.950 . S
C1487 C1482 1.363 . S
C1487 C1486 1.415 . S
H1488 C1485 0.999 . S
H1489 C1470 0.913 . S
H1490 C1508 0.951 . S
H1491 C1510 0.951 . S
H1492 C1512 0.950 . S
H1493 C1513 0.950 . S
H1494 C1515 0.950 . S
H1495 C1518 0.950 . S
H1496 C1519 0.950 . S
H1497 C1521 0.950 . S
H1498 C1522 0.950 . S
H1499 C1523 0.937 1_556 S
H1500 C1525 0.951 . S
H1501 C1527 0.950 . S
H1502 C1528 0.950 . S
H1503 C1530 0.950 . S
H1504 C1533 0.950 . S
H1505 C1534 0.950 . S
H1506 C1536 0.950 . S
H1507 C1537 0.950 1_556 S
C1508 H1490 0.951 . S
C1508 C1509 1.366 . S
C1508 C1510 1.388 . S
C1509 C1508 1.366 . S
C1509 C1513 1.385 . S
C1510 H1491 0.951 . S
C1510 C1508 1.388 . S
C1510 C1511 1.366 . S
C1511 C1510 1.366 . S
C1511 C1512 1.414 . S
C1511 C1514 1.499 . S
C1512 H1492 0.950 . S
C1512 C1511 1.414 . S
C1512 C1513 1.374 . S
C1513 H1493 0.950 . S
C1513 C1509 1.385 . S
C1513 C1512 1.374 . S
C1514 C1511 1.499 . S
C1514 C1515 1.373 . S
C1514 C1516 1.389 . S
C1515 H1494 0.950 . S
C1515 C1514 1.373 . S
C1515 C1531 1.377 . S
C1516 C1514 1.389 . S
C1516 C1517 1.524 . S
C1516 C1530 1.377 . S
C1517 C1516 1.524 . S
C1517 C1518 1.397 . S
C1517 C1522 1.363 . S
C1518 H1495 0.950 . S
C1518 C1517 1.397 . S
C1518 C1519 1.334 . S
C1519 H1496 0.950 . S
C1519 C1518 1.334 . S
C1519 C1520 1.287 . S
C1520 C1519 1.287 . S
C1520 C1521 1.524 . S
C1520 H1539 0.913 . S
C1521 H1497 0.950 . S
C1521 C1520 1.524 . S
C1521 C1522 1.415 . S
C1522 H1498 0.950 . S
C1522 C1517 1.363 . S
C1522 C1521 1.415 . S
C1523 H1499 0.937 1_554 S
C1523 C1524 1.366 . S
C1523 C1525 1.388 . S
C1524 C1523 1.366 . S
C1524 C1528 1.385 . S
C1525 H1500 0.951 . S
C1525 C1523 1.388 . S
C1525 C1526 1.366 . S
C1526 C1525 1.366 . S
C1526 C1527 1.414 . S
C1526 C1529 1.499 . S
C1527 H1501 0.950 . S
C1527 C1526 1.414 . S
C1527 C1528 1.374 . S
C1528 H1502 0.950 . S
C1528 C1524 1.385 . S
C1528 C1527 1.374 . S
C1529 C1526 1.499 . S
C1529 C1530 1.373 . S
C1529 C1531 1.389 . S
C1530 H1503 0.950 . S
C1530 C1516 1.377 . S
C1530 C1529 1.373 . S
C1531 C1515 1.377 . S
C1531 C1529 1.389 . S
C1531 C1532 1.524 . S
C1532 C1531 1.524 . S
C1532 C1533 1.397 . S
C1532 C1537 1.366 . S
C1533 H1504 0.950 . S
C1533 C1532 1.397 . S
C1533 C1534 1.334 . S
C1534 H1505 0.950 . S
C1534 C1533 1.334 . S
C1534 C1535 1.287 1_554 S
C1535 C1534 1.287 1_556 S
C1535 C1536 1.524 . S
C1535 H1538 0.999 . S
C1536 H1506 0.950 . S
C1536 C1535 1.524 . S
C1536 C1537 1.412 1_556 S
C1537 H1507 0.950 1_554 S
C1537 C1532 1.366 . S
C1537 C1536 1.412 1_554 S
H1538 C1535 0.999 . S
H1539 C1520 0.913 . S
H1540 C1558 0.951 . S
H1541 C1560 0.951 . S
H1542 C1562 0.950 . S
H1543 C1563 0.950 . S
H1544 C1565 0.950 . S
H1545 C1568 0.970 . S
H1546 C1569 0.950 . S
H1547 C1571 0.950 . S
H1548 C1572 0.950 . S
H1549 C1573 0.951 . S
H1550 C1575 0.951 . S
H1551 C1577 0.950 . S
H1552 C1578 0.950 . S
H1553 C1580 0.950 . S
H1554 C1583 0.950 . S
H1555 C1584 0.950 . S
H1556 C1586 0.950 . S
H1557 C1587 0.950 . S
C1558 H1540 0.951 . S
C1558 C1559 1.366 . S
C1558 C1560 1.388 . S
C1559 C1558 1.366 . S
C1559 C1563 1.385 . S
C1560 H1541 0.951 . S
C1560 C1558 1.388 . S
C1560 C1561 1.366 . S
C1561 C1560 1.366 . S
C1561 C1562 1.414 . S
C1561 C1564 1.499 . S
C1562 H1542 0.950 . S
C1562 C1561 1.414 . S
C1562 C1563 1.374 . S
C1563 H1543 0.950 . S
C1563 C1559 1.385 . S
C1563 C1562 1.374 . S
C1564 C1561 1.499 . S
C1564 C1565 1.373 . S
C1564 C1566 1.389 . S
C1565 H1544 0.950 . S
C1565 C1564 1.373 . S
C1565 C1581 1.377 . S
C1566 C1564 1.389 . S
C1566 C1567 1.524 . S
C1566 C1580 1.377 . S
C1567 C1566 1.524 . S
C1567 C1568 1.397 1_455 S
C1567 C1572 1.363 1_455 S
C1568 H1545 0.970 . S
C1568 C1567 1.397 1_655 S
C1568 C1569 1.334 . S
C1569 H1546 0.950 . S
C1569 C1568 1.334 . S
C1569 C1570 1.287 . S
C1570 C1569 1.287 . S
C1570 C1571 1.524 . S
C1570 H1589 0.913 . S
C1571 H1547 0.950 . S
C1571 C1570 1.524 . S
C1571 C1572 1.415 . S
C1572 H1548 0.950 . S
C1572 C1567 1.363 1_655 S
C1572 C1571 1.415 . S
C1573 H1549 0.951 . S
C1573 C1574 1.366 . S
C1573 C1575 1.388 . S
C1574 C1573 1.366 . S
C1574 C1578 1.385 . S
C1575 H1550 0.951 . S
C1575 C1573 1.388 . S
C1575 C1576 1.366 . S
C1576 C1575 1.366 . S
C1576 C1577 1.414 . S
C1576 C1579 1.499 . S
C1577 H1551 0.950 . S
C1577 C1576 1.414 . S
C1577 C1578 1.374 . S
C1578 H1552 0.950 . S
C1578 C1574 1.385 . S
C1578 C1577 1.374 . S
C1579 C1576 1.499 . S
C1579 C1580 1.373 . S
C1579 C1581 1.389 . S
C1580 H1553 0.950 . S
C1580 C1566 1.377 . S
C1580 C1579 1.373 . S
C1581 C1565 1.377 . S
C1581 C1579 1.389 . S
C1581 C1582 1.524 . S
C1582 C1581 1.524 . S
C1582 C1583 1.397 . S
C1582 C1587 1.363 . S
C1583 H1554 0.950 . S
C1583 C1582 1.397 . S
C1583 C1584 1.334 . S
C1584 H1555 0.950 . S
C1584 C1583 1.334 . S
C1584 C1585 1.287 . S
C1585 C1584 1.287 . S
C1585 C1586 1.524 . S
C1585 H1588 0.999 . S
C1586 H1556 0.950 . S
C1586 C1585 1.524 . S
C1586 C1587 1.415 . S
C1587 H1557 0.950 . S
C1587 C1582 1.363 . S
C1587 C1586 1.415 . S
H1588 C1585 0.999 . S
H1589 C1570 0.913 . S
H1590 C1608 0.951 . S
H1591 C1610 0.951 . S
H1592 C1612 0.950 . S
H1593 C1613 0.950 . S
H1594 C1615 0.950 . S
H1595 C1618 0.950 . S
H1596 C1619 0.950 . S
H1597 C1621 0.950 . S
H1598 C1622 0.950 . S
H1599 C1623 0.951 . S
H1600 C1625 0.951 . S
H1601 C1627 0.950 . S
H1602 C1628 0.950 . S
H1603 C1630 0.950 . S
H1604 C1633 0.950 . S
H1605 C1634 0.950 . S
H1606 C1636 0.950 . S
H1607 C1637 0.950 . S
C1608 H1590 0.951 . S
C1608 C1609 1.366 . S
C1608 C1610 1.388 . S
C1609 C1608 1.366 . S
C1609 C1613 1.385 . S
C1610 H1591 0.951 . S
C1610 C1608 1.388 . S
C1610 C1611 1.366 . S
C1611 C1610 1.366 . S
C1611 C1612 1.414 . S
C1611 C1614 1.499 . S
C1612 H1592 0.950 . S
C1612 C1611 1.414 . S
C1612 C1613 1.374 . S
C1613 H1593 0.950 . S
C1613 C1609 1.385 . S
C1613 C1612 1.374 . S
C1614 C1611 1.499 . S
C1614 C1615 1.373 . S
C1614 C1616 1.389 . S
C1615 H1594 0.950 . S
C1615 C1614 1.373 . S
C1615 C1631 1.377 . S
C1616 C1614 1.389 . S
C1616 C1617 1.524 . S
C1616 C1630 1.377 . S
C1617 C1616 1.524 . S
C1617 C1618 1.397 . S
C1617 C1622 1.363 . S
C1618 H1595 0.950 . S
C1618 C1617 1.397 . S
C1618 C1619 1.334 . S
C1619 H1596 0.950 . S
C1619 C1618 1.334 . S
C1619 C1620 1.287 . S
C1620 C1619 1.287 . S
C1620 C1621 1.524 . S
C1620 H1639 0.913 . S
C1621 H1597 0.950 . S
C1621 C1620 1.524 . S
C1621 C1622 1.415 . S
C1622 H1598 0.950 . S
C1622 C1617 1.363 . S
C1622 C1621 1.415 . S
C1623 H1599 0.951 . S
C1623 C1624 1.366 . S
C1623 C1625 1.388 . S
C1624 C1623 1.366 . S
C1624 C1628 1.385 . S
C1625 H1600 0.951 . S
C1625 C1623 1.388 . S
C1625 C1626 1.366 . S
C1626 C1625 1.366 . S
C1626 C1627 1.414 . S
C1626 C1629 1.499 . S
C1627 H1601 0.950 . S
C1627 C1626 1.414 . S
C1627 C1628 1.374 . S
C1628 H1602 0.950 . S
C1628 C1624 1.385 . S
C1628 C1627 1.374 . S
C1629 C1626 1.499 . S
C1629 C1630 1.373 . S
C1629 C1631 1.389 . S
C1630 H1603 0.950 . S
C1630 C1616 1.377 . S
C1630 C1629 1.373 . S
C1631 C1615 1.377 . S
C1631 C1629 1.389 . S
C1631 C1632 1.524 . S
C1632 C1631 1.524 . S
C1632 C1633 1.397 . S
C1632 C1637 1.363 . S
C1633 H1604 0.950 . S
C1633 C1632 1.397 . S
C1633 C1634 1.334 . S
C1634 H1605 0.950 . S
C1634 C1633 1.334 . S
C1634 C1635 1.287 . S
C1635 C1634 1.287 . S
C1635 C1636 1.524 . S
C1635 H1638 0.999 . S
C1636 H1606 0.950 . S
C1636 C1635 1.524 . S
C1636 C1637 1.415 . S
C1637 H1607 0.950 . S
C1637 C1632 1.363 . S
C1637 C1636 1.415 . S
H1638 C1635 0.999 . S
H1639 C1620 0.913 . S
C459 C21 2.254 . S
C474 C336 2.254 . S
C509 C61 1.107 . S
C524 N356 1.119 . S
C574 C390 1.935 . S
C559 C82 1.932 . S
C609 C135 1.376 . S
C624 N424 1.316 . S
C674 C377 2.413 . S
C659 C15 2.401 . S
C724 N334 1.217 . S
C709 C42 1.228 . S
C774 C411 1.971 . S
C759 C101 1.974 . S
C824 N386 0.999 . S
C809 C122 1.008 . S
C859 C2 1.921 . S
C874 C426 1.924 . S
C924 C360 1.670 . S
C909 C95 1.659 . S
C959 C141 1.552 . S
C974 C321 1.545 . S
C1009 C55 1.475 . S
C1024 C407 1.491 . S
C1074 C347 2.268 . S
C1059 C181 2.201 . S
C1109 C202 1.092 . S
C1124 N364 1.099 . S
C1159 C255 1.945 . S
C1174 C381 1.960 . S
C1209 C295 1.341 . S
C1224 N416 1.283 . S
C1259 C175 2.388 . S
C1274 C366 2.405 . S
C1324 N326 1.235 . S
C1309 C221 1.241 . S
C1374 C420 1.911 . S
C1359 C242 1.858 . S
C1424 N394 1.066 . S
C1409 C301 1.078 . S
C1459 C162 1.816 . S
C1474 C437 1.875 . S
C1524 C351 1.706 . S
C1509 C261 1.650 . S
C1574 C330 1.516 . S
C1559 C282 1.520 . S
C1609 C215 1.520 . S
C1624 C396 1.537 . S
