# Generated by pormake.
# Topology soc, (4,6)-cn, num edge types: 1
# Building blocks:
#     Node 0, Type 0, BuildingBlock: ESEHIV_clean_sbu_0, # of connection points: 4
#     Node 1, Type 0, BuildingBlock: ESEHIV_clean_sbu_0, # of connection points: 4
#     Node 2, Type 0, BuildingBlock: ESEHIV_clean_sbu_0, # of connection points: 4
#     Node 3, Type 0, BuildingBlock: ESEHIV_clean_sbu_0, # of connection points: 4
#     Node 4, Type 0, BuildingBlock: ESEHIV_clean_sbu_0, # of connection points: 4
#     Node 5, Type 0, BuildingBlock: ESEHIV_clean_sbu_0, # of connection points: 4
#     Node 6, Type 0, BuildingBlock: ESEHIV_clean_sbu_0, # of connection points: 4
#     Node 7, Type 0, BuildingBlock: ESEHIV_clean_sbu_0, # of connection points: 4
#     Node 8, Type 0, BuildingBlock: ESEHIV_clean_sbu_0, # of connection points: 4
#     Node 9, Type 0, BuildingBlock: ESEHIV_clean_sbu_0, # of connection points: 4
#     Node 10, Type 0, BuildingBlock: ESEHIV_clean_sbu_0, # of connection points: 4
#     Node 11, Type 0, BuildingBlock: ESEHIV_clean_sbu_0, # of connection points: 4
#     Node 12, Type 1, BuildingBlock: BETDIP_clean_sbu_0, # of connection points: 6
#     Node 13, Type 1, BuildingBlock: BETDIP_clean_sbu_0, # of connection points: 6
#     Node 14, Type 1, BuildingBlock: BETDIP_clean_sbu_0, # of connection points: 6
#     Node 15, Type 1, BuildingBlock: BETDIP_clean_sbu_0, # of connection points: 6
#     Node 16, Type 1, BuildingBlock: BETDIP_clean_sbu_0, # of connection points: 6
#     Node 17, Type 1, BuildingBlock: BETDIP_clean_sbu_0, # of connection points: 6
#     Node 18, Type 1, BuildingBlock: BETDIP_clean_sbu_0, # of connection points: 6
#     Node 19, Type 1, BuildingBlock: BETDIP_clean_sbu_0, # of connection points: 6
#     Edge 20, Type (0, 1), BuildingBlock: OJICUG_clean_linker_0, # of connection points: 2
#     Edge 21, Type (0, 1), BuildingBlock: OJICUG_clean_linker_0, # of connection points: 2
#     Edge 22, Type (0, 1), BuildingBlock: OJICUG_clean_linker_0, # of connection points: 2
#     Edge 23, Type (0, 1), BuildingBlock: OJICUG_clean_linker_0, # of connection points: 2
#     Edge 24, Type (0, 1), BuildingBlock: OJICUG_clean_linker_0, # of connection points: 2
#     Edge 25, Type (0, 1), BuildingBlock: OJICUG_clean_linker_0, # of connection points: 2
#     Edge 26, Type (0, 1), BuildingBlock: OJICUG_clean_linker_0, # of connection points: 2
#     Edge 27, Type (0, 1), BuildingBlock: OJICUG_clean_linker_0, # of connection points: 2
#     Edge 28, Type (0, 1), BuildingBlock: OJICUG_clean_linker_0, # of connection points: 2
#     Edge 29, Type (0, 1), BuildingBlock: OJICUG_clean_linker_0, # of connection points: 2
#     Edge 30, Type (0, 1), BuildingBlock: OJICUG_clean_linker_0, # of connection points: 2
#     Edge 31, Type (0, 1), BuildingBlock: OJICUG_clean_linker_0, # of connection points: 2
#     Edge 32, Type (0, 1), BuildingBlock: OJICUG_clean_linker_0, # of connection points: 2
#     Edge 33, Type (0, 1), BuildingBlock: OJICUG_clean_linker_0, # of connection points: 2
#     Edge 34, Type (0, 1), BuildingBlock: OJICUG_clean_linker_0, # of connection points: 2
#     Edge 35, Type (0, 1), BuildingBlock: OJICUG_clean_linker_0, # of connection points: 2
#     Edge 36, Type (0, 1), BuildingBlock: OJICUG_clean_linker_0, # of connection points: 2
#     Edge 37, Type (0, 1), BuildingBlock: OJICUG_clean_linker_0, # of connection points: 2
#     Edge 38, Type (0, 1), BuildingBlock: OJICUG_clean_linker_0, # of connection points: 2
#     Edge 39, Type (0, 1), BuildingBlock: OJICUG_clean_linker_0, # of connection points: 2
#     Edge 40, Type (0, 1), BuildingBlock: OJICUG_clean_linker_0, # of connection points: 2
#     Edge 41, Type (0, 1), BuildingBlock: OJICUG_clean_linker_0, # of connection points: 2
#     Edge 42, Type (0, 1), BuildingBlock: OJICUG_clean_linker_0, # of connection points: 2
#     Edge 43, Type (0, 1), BuildingBlock: OJICUG_clean_linker_0, # of connection points: 2
#     Edge 44, Type (0, 1), BuildingBlock: OJICUG_clean_linker_0, # of connection points: 2
#     Edge 45, Type (0, 1), BuildingBlock: OJICUG_clean_linker_0, # of connection points: 2
#     Edge 46, Type (0, 1), BuildingBlock: OJICUG_clean_linker_0, # of connection points: 2
#     Edge 47, Type (0, 1), BuildingBlock: OJICUG_clean_linker_0, # of connection points: 2
#     Edge 48, Type (0, 1), BuildingBlock: OJICUG_clean_linker_0, # of connection points: 2
#     Edge 49, Type (0, 1), BuildingBlock: OJICUG_clean_linker_0, # of connection points: 2
#     Edge 50, Type (0, 1), BuildingBlock: OJICUG_clean_linker_0, # of connection points: 2
#     Edge 51, Type (0, 1), BuildingBlock: OJICUG_clean_linker_0, # of connection points: 2
#     Edge 52, Type (0, 1), BuildingBlock: OJICUG_clean_linker_0, # of connection points: 2
#     Edge 53, Type (0, 1), BuildingBlock: OJICUG_clean_linker_0, # of connection points: 2
#     Edge 54, Type (0, 1), BuildingBlock: OJICUG_clean_linker_0, # of connection points: 2
#     Edge 55, Type (0, 1), BuildingBlock: OJICUG_clean_linker_0, # of connection points: 2
#     Edge 56, Type (0, 1), BuildingBlock: OJICUG_clean_linker_0, # of connection points: 2
#     Edge 57, Type (0, 1), BuildingBlock: OJICUG_clean_linker_0, # of connection points: 2
#     Edge 58, Type (0, 1), BuildingBlock: OJICUG_clean_linker_0, # of connection points: 2
#     Edge 59, Type (0, 1), BuildingBlock: OJICUG_clean_linker_0, # of connection points: 2
#     Edge 60, Type (0, 1), BuildingBlock: OJICUG_clean_linker_0, # of connection points: 2
#     Edge 61, Type (0, 1), BuildingBlock: OJICUG_clean_linker_0, # of connection points: 2
#     Edge 62, Type (0, 1), BuildingBlock: OJICUG_clean_linker_0, # of connection points: 2
#     Edge 63, Type (0, 1), BuildingBlock: OJICUG_clean_linker_0, # of connection points: 2
#     Edge 64, Type (0, 1), BuildingBlock: OJICUG_clean_linker_0, # of connection points: 2
#     Edge 65, Type (0, 1), BuildingBlock: OJICUG_clean_linker_0, # of connection points: 2
#     Edge 66, Type (0, 1), BuildingBlock: OJICUG_clean_linker_0, # of connection points: 2
#     Edge 67, Type (0, 1), BuildingBlock: OJICUG_clean_linker_0, # of connection points: 2
# Relax obj value: 0.271
# Max RMSD: 0.422
# Mean RMSD: 0.230
data_MOF--net-soc--node1-ESEHIV_clean_sbu_0--node2-BETDIP_clean_sbu_0--edge1-OJICUG_clean_linker_0
_symmetry_space_group_name_H-M    P1
_symmetry_Int_Tables_number       1
_symmetry_cell_setting            triclinic
loop_
_symmetry_equiv_pos_as_xyz
'x, y, z'
_cell_length_a     34.990485
_cell_length_b     43.283345
_cell_length_c     31.691875
_cell_angle_alpha  92.095133
_cell_angle_beta   92.574804
_cell_angle_gamma 64.330477
loop_
_atom_site_label
_atom_site_type_symbol
_atom_site_fract_x
_atom_site_fract_y
_atom_site_fract_z
_atom_type_partial_charge
Cu0 Cu 0.06415 0.10129 0.35838 0.0
N1 N 0.08466 0.12511 0.39555 0.0
N2 N 0.11234 0.16167 0.41257 0.0
C3 C 0.11312 0.1366 0.38567 0.0
C4 C 0.08245 0.16607 0.44055 0.0
C5 C 0.0653 0.1435 0.42989 0.0
O6 O 0.11163 0.06342 0.33099 0.0
C7 C 0.98472 0.15433 0.33659 0.0
O8 O 0.97317 0.14258 0.36888 0.0
H9 H 0.13057 0.12945 0.35677 0.0
H10 H 0.03783 0.14301 0.44359 0.0
N11 N 0.03824 0.07952 0.3877 0.0
N12 N 1.00889 0.04396 0.39841 0.0
C13 C 1.01847 0.06159 0.36969 0.0
C14 C 0.04161 0.07301 0.42919 0.0
C15 C 1.02332 0.05125 0.43595 0.0
C16 C 0.13921 0.04377 0.35758 0.0
O17 O 0.13471 0.05292 0.39771 0.0
H18 H 1.01245 0.06086 0.33598 0.0
H19 H 0.05832 0.08179 0.45255 0.0
O20 O 1.02244 0.13795 0.32345 0.0
H21 H 0.07173 0.18584 0.46499 0.0
H22 H 1.02277 0.04033 0.46595 0.0
Cu23 Cu 0.04884 0.10116 0.72762 0.0
N24 N 1.01964 0.08268 0.69317 0.0
N25 N 0.98005 0.05506 0.67645 0.0
C26 C 0.99343 0.07057 0.70745 0.0
C27 C 0.99883 0.05763 0.64125 0.0
C28 C 1.02357 0.07436 0.65178 0.0
O29 O 1.00711 0.14349 0.75603 0.0
C30 C 0.11846 0.03887 0.73437 0.0
O31 O 0.11485 0.04546 0.69386 0.0
H32 H 0.98647 0.07159 0.7405 0.0
H33 H 0.04463 0.07831 0.63107 0.0
N34 N 0.07839 0.11723 0.69472 0.0
N35 N 0.12067 0.14199 0.68305 0.0
C36 C 0.10972 0.12448 0.71052 0.0
C37 C 0.06923 0.13032 0.65568 0.0
C38 C 0.09556 0.14545 0.64828 0.0
C39 C 0.98034 0.16468 0.72985 0.0
O40 O 0.981 0.15444 0.69027 0.0
H41 H 0.12236 0.11863 0.74254 0.0
H42 H 0.0431 0.13145 0.63532 0.0
O43 O 0.09177 0.06137 0.75892 0.0
H44 H 0.99621 0.0473 0.61026 0.0
H45 H 0.09386 0.16025 0.62087 0.0
Cu46 Cu 0.27185 0.18478 0.02642 0.0
N47 N 0.2256 0.18516 0.99517 0.0
N48 N 0.1978 0.15496 0.95726 0.0
C49 C 0.21615 0.15818 0.99424 0.0
C50 C 0.19435 0.18173 0.93423 0.0
C51 C 0.2112 0.20055 0.95789 0.0
O52 O 0.29622 0.14181 0.05628 0.0
C53 C 0.31174 0.21814 0.98342 0.0
O54 O 0.28944 0.24406 1.00828 0.0
H55 H 0.22974 0.13754 1.0164 0.0
H56 H 0.21863 0.22043 0.94621 0.0
N57 N 0.25605 0.22001 0.0662 0.0
N58 N 0.26461 0.25307 0.11703 0.0
C59 C 0.28255 0.22288 0.09636 0.0
C60 C 0.21995 0.24917 0.06822 0.0
C61 C 0.22535 0.26989 0.09974 0.0
C62 C 0.27344 0.13927 0.085 0.0
O63 O 0.23817 0.16617 0.09427 0.0
H64 H 0.31506 0.20407 0.10141 0.0
H65 H 0.19255 0.25545 0.04711 0.0
O66 O 0.30979 0.1896 0.9866 0.0
H67 H 0.18609 0.18458 0.90081 0.0
H68 H 0.20288 0.29549 0.10871 0.0
Cu69 Cu 0.059 0.35814 0.04058 0.0
N70 N 0.1036 0.33426 1.00348 0.0
N71 N 0.15046 0.32916 0.95426 0.0
C72 C 0.12838 0.34763 0.98768 0.0
C73 C 0.13945 0.303 0.94903 0.0
C74 C 0.11069 0.30616 0.97932 0.0
O75 O 0.0852 0.38005 0.08539 0.0
C76 C 0.99466 0.35597 0.98217 0.0
O77 O 1.0157 0.32394 0.99344 0.0
H78 H 0.12828 0.37159 0.99891 0.0
H79 H 0.09476 0.28986 0.98213 0.0
N80 N 0.04262 0.33159 0.07433 0.0
N81 N 1.00151 0.32195 0.11922 0.0
C82 C 1.00869 0.34575 0.09905 0.0
C83 C 0.05771 0.29753 0.07896 0.0
C84 C 0.03235 0.29152 0.10663 0.0
C85 C 0.11156 0.35992 0.11365 0.0
O86 O 0.11856 0.32757 0.11183 0.0
H87 H 0.98903 0.3731 0.1012 0.0
H88 H 0.08485 0.27848 0.06308 0.0
O89 O 1.00697 0.37811 0.99926 0.0
H90 H 0.15097 0.2832 0.92471 0.0
H91 H 0.03651 0.26663 0.11682 0.0
Cu92 Cu 0.84108 0.01926 1.01041 0.0
N93 N 0.88469 0.02208 0.98203 0.0
N94 N 0.90559 0.05522 0.94614 0.0
C95 C 0.88944 0.05129 0.98213 0.0
C96 C 0.91221 0.02685 0.92256 0.0
C97 C 0.89967 0.00625 0.94498 0.0
O98 O 0.81562 0.06165 0.04329 0.0
C99 C 0.79218 0.98919 0.96662 0.0
O100 O 0.80156 0.96939 0.99952 0.0
H101 H 0.87387 0.07234 1.00402 0.0
H102 H 0.8952 0.98444 0.93234 0.0
N103 N 0.86054 0.98271 0.04697 0.0
N104 N 0.85558 0.94895 0.09543 0.0
C105 C 0.83881 0.98073 0.07987 0.0
C106 C 0.8926 0.9513 0.04199 0.0
C107 C 0.88946 0.93025 0.07194 0.0
C108 C 0.83953 0.06498 0.07291 0.0
O109 O 0.87612 0.0388 0.08125 0.0
H110 H 0.80917 1.00131 0.08964 0.0
H111 H 0.91479 0.94374 1.0167 0.0
O112 O 0.80382 0.01329 0.96645 0.0
H113 H 0.91961 0.02366 0.88943 0.0
H114 H 0.9092 0.90303 0.075 0.0
Cu115 Cu 0.05392 0.84442 0.03479 0.0
N116 N 1.00844 0.86746 0.99616 0.0
N117 N 0.96079 0.87143 0.94402 0.0
C118 C 0.98409 0.85328 0.97747 0.0
C119 C 0.97055 0.89822 0.94179 0.0
C120 C 0.99981 0.89574 0.97384 0.0
O121 O 0.028 0.82325 0.07642 0.0
C122 C 0.11675 0.84678 0.98016 0.0
O123 O 0.09522 0.87901 0.99147 0.0
H124 H 0.98535 0.82901 0.98672 0.0
H125 H 1.01497 0.91266 0.97917 0.0
N126 N 0.07125 0.87129 0.07142 0.0
N127 N 0.11509 0.88115 0.11784 0.0
C128 C 0.10564 0.85724 0.09763 0.0
C129 C 0.05819 0.90539 0.07534 0.0
C130 C 0.08529 0.91152 0.1039 0.0
C131 C 1.00135 0.84388 0.10358 0.0
O132 O 0.99412 0.87627 0.10313 0.0
H133 H 0.12437 0.82985 0.1004 0.0
H134 H 0.03175 0.92435 0.05778 0.0
O135 O 0.10524 0.8246 0.99535 0.0
H136 H 0.9578 0.91802 0.91834 0.0
H137 H 0.08333 0.93641 0.11345 0.0
Cu138 Cu 0.55503 0.60397 0.86662 0.0
N139 N 0.57508 0.62904 0.90163 0.0
N140 N 0.60368 0.66557 0.91411 0.0
C141 C 0.60323 0.63992 0.88913 0.0
C142 C 0.57482 0.67094 0.94374 0.0
C143 C 0.55709 0.64828 0.93589 0.0
O144 O 0.60531 0.5678 0.84171 0.0
C145 C 0.47436 0.65485 0.84133 0.0
O146 O 0.46178 0.64275 0.87251 0.0
H147 H 0.61952 0.63179 0.85963 0.0
H148 H 0.53044 0.64799 0.95158 0.0
N149 N 0.53149 0.58171 0.8983 0.0
N150 N 0.50335 0.54602 0.91207 0.0
C151 C 0.50727 0.56646 0.88323 0.0
C152 C 0.5432 0.5706 0.93801 0.0
C153 C 0.52589 0.54845 0.94661 0.0
C154 C 0.60608 0.54161 0.82142 0.0
O155 O 0.57027 0.54071 0.80896 0.0
H156 H 0.49539 0.56833 0.85083 0.0
H157 H 0.56508 0.57641 0.95821 0.0
O158 O 0.51294 0.63933 0.83032 0.0
H159 H 0.56526 0.69123 0.96754 0.0
H160 H 0.5309 0.53415 0.97528 0.0
Cu161 Cu 0.55921 0.60084 0.22272 0.0
N162 N 0.52967 0.58144 0.19069 0.0
N163 N 0.49081 0.55269 0.17909 0.0
C164 C 0.49949 0.57399 0.20555 0.0
C165 C 0.51658 0.5464 0.14632 0.0
C166 C 0.54091 0.56394 0.15381 0.0
O167 O 0.52061 0.64177 0.25465 0.0
C168 C 0.63642 0.54218 0.23672 0.0
O169 O 0.64498 0.55108 0.20045 0.0
H170 H 0.48713 0.58146 0.2369 0.0
H171 H 0.56743 0.56153 0.13554 0.0
N172 N 0.58529 0.61791 0.18705 0.0
N173 N 0.62127 0.64656 0.16863 0.0
C174 C 0.61082 0.63224 0.20049 0.0
C175 C 0.57866 0.62367 0.14536 0.0
C176 C 0.60126 0.64104 0.13376 0.0
C177 C 0.48483 0.66143 0.23744 0.0
O178 O 0.47286 0.65163 0.20157 0.0
H179 H 0.61937 0.63372 0.23347 0.0
H180 H 0.55723 0.61744 0.12513 0.0
O181 O 0.60175 0.56176 0.25438 0.0
H182 H 0.51947 0.52877 0.12021 0.0
H183 H 0.60177 0.64974 0.10232 0.0
Cu184 Cu 0.76264 0.68832 0.54706 0.0
N185 N 0.75496 0.71918 0.50492 0.0
N186 N 0.77384 0.74075 0.45153 0.0
C187 C 0.78583 0.72549 0.48902 0.0
C188 C 0.73422 0.74411 0.44326 0.0
C189 C 0.72214 0.73144 0.4768 0.0
O190 O 0.7833 0.70255 0.59822 0.0
C191 C 0.79362 0.63355 0.48883 0.0
O192 O 0.77364 0.65827 0.46204 0.0
H193 H 0.81788 0.7157 0.50191 0.0
H194 H 0.69353 0.72782 0.47836 0.0
N195 N 0.71166 0.6881 0.56049 0.0
N196 N 0.68906 0.65279 0.58909 0.0
C197 C 0.70796 0.65853 0.55612 0.0
C198 C 0.69061 0.70336 0.59549 0.0
C199 C 0.67673 0.68156 0.61325 0.0
C200 C 0.81754 0.70589 0.60338 0.0
O201 O 0.84517 0.696 0.5733 0.0
H202 H 0.72709 0.63817 0.5348 0.0
H203 H 0.69275 0.7251 0.61149 0.0
O204 O 0.79749 0.64134 0.52752 0.0
H205 H 0.71708 0.75221 0.41351 0.0
H206 H 0.66587 0.68392 0.64519 0.0
Cu207 Cu 0.55735 0.85649 0.53602 0.0
N208 N 0.6021 0.83421 0.49466 0.0
N209 N 0.64671 0.83017 0.441 0.0
C210 C 0.62519 0.84846 0.47566 0.0
C211 C 0.63585 0.80371 0.43824 0.0
C212 C 0.60956 0.80594 0.47079 0.0
O213 O 0.58145 0.88117 0.57498 0.0
C214 C 0.49607 0.85625 0.48182 0.0
O215 O 0.51915 0.82411 0.49159 0.0
H216 H 0.62447 0.8728 0.48598 0.0
H217 H 0.59537 0.7886 0.47526 0.0
N218 N 0.53467 0.83387 0.57385 0.0
N219 N 0.49041 0.82735 0.62038 0.0
C220 C 0.5008 0.84976 0.59975 0.0
C221 C 0.54605 0.80024 0.57887 0.0
C222 C 0.51923 0.79626 0.60689 0.0
C223 C 0.59871 0.86687 0.61015 0.0
O224 O 0.59664 0.83853 0.62017 0.0
H225 H 0.48338 0.87735 0.60253 0.0
H226 H 0.57168 0.77988 0.56263 0.0
O227 O 0.50694 0.87904 0.49803 0.0
H228 H 0.6451 0.78414 0.4137 0.0
H229 H 0.52104 0.77194 0.61663 0.0
Cu230 Cu 0.34438 0.51243 0.5378 0.0
N231 N 0.38503 0.51733 0.5061 0.0
N232 N 0.40501 0.55097 0.46948 0.0
C233 C 0.3856 0.5481 0.50382 0.0
C234 C 0.4175 0.52035 0.449 0.0
C235 C 0.40499 0.49966 0.47164 0.0
O236 O 0.32127 0.55358 0.57123 0.0
C237 C 0.29246 0.48398 0.49941 0.0
O238 O 0.30938 0.46049 0.52826 0.0
H239 H 0.36683 0.56973 0.52359 0.0
H240 H 0.40622 0.47515 0.46132 0.0
N241 N 0.36324 0.47697 0.57602 0.0
N242 N 0.3534 0.44719 0.62662 0.0
C243 C 0.33941 0.47787 0.60862 0.0
C244 C 0.39389 0.44466 0.57369 0.0
C245 C 0.38764 0.4261 0.60506 0.0
C246 C 0.34773 0.55645 0.59805 0.0
O247 O 0.38479 0.53014 0.60393 0.0
H248 H 0.31013 0.49976 0.61641 0.0
H249 H 0.41694 0.43477 0.54919 0.0
O250 O 0.30255 0.50884 0.49881 0.0
H251 H 0.4316 0.51421 0.41832 0.0
H252 H 0.40542 0.39902 0.61044 0.0
Cu253 Cu 0.5507 0.35341 0.5441 0.0
N254 N 0.59282 0.33028 0.50499 0.0
N255 N 0.64106 0.32332 0.45661 0.0
C256 C 0.62009 0.34175 0.49057 0.0
C257 C 0.62577 0.29966 0.44953 0.0
C258 C 0.59644 0.30391 0.47928 0.0
O259 O 0.58053 0.37457 0.58531 0.0
C260 C 0.4821 0.35375 0.48822 0.0
O261 O 0.50176 0.32162 0.49967 0.0
H262 H 0.62327 0.36389 0.50399 0.0
H263 H 0.57779 0.28962 0.48073 0.0
N264 N 0.53962 0.32494 0.58067 0.0
N265 N 0.5072 0.31312 0.63312 0.0
C266 C 0.50447 0.33593 0.6037 0.0
C267 C 0.56536 0.29377 0.59583 0.0
C268 C 0.54548 0.2865 0.62826 0.0
C269 C 0.61609 0.35333 0.60312 0.0
O270 O 0.63069 0.32081 0.59215 0.0
H271 H 0.47799 0.36084 0.59993 0.0
H272 H 0.59688 0.27781 0.58501 0.0
O273 O 0.49623 0.37479 0.50523 0.0
H274 H 0.63363 0.28127 0.4236 0.0
H275 H 0.55803 0.2634 0.64664 0.0
Tb276 Tb 0.27357 0.35347 0.33406 0.0
Tb277 Tb 0.29317 0.39274 0.27369 0.0
C278 C 0.24462 0.3216 0.3771 0.0
C279 C 0.22563 0.29736 0.37664 0.0
C280 C 0.1875 0.30327 0.35459 0.0
C281 C 0.16932 0.2804 0.35833 0.0
C282 C 0.1893 0.25136 0.38379 0.0
C283 C 0.2279 0.24525 0.40487 0.0
C284 C 0.24578 0.26811 0.40141 0.0
C285 C 0.34235 0.35905 0.36929 0.0
C286 C 0.31533 0.3168 0.25073 0.0
C287 C 0.32662 0.42182 0.2323 0.0
C288 C 0.35016 0.4427 0.23543 0.0
C289 C 0.39427 0.42762 0.24267 0.0
C290 C 0.41711 0.4466 0.23715 0.0
C291 C 0.39609 0.48081 0.22434 0.0
C292 C 0.35179 0.49636 0.21934 0.0
C293 C 0.329 0.4774 0.22473 0.0
C294 C 0.22399 0.38877 0.23937 0.0
C295 C 0.246 0.4299 0.35453 0.0
O296 O 0.2217 0.35319 0.36476 0.0
O297 O 0.28383 0.30888 0.36496 0.0
O298 O 0.32418 0.37165 0.33373 0.0
O299 O 0.32336 0.3419 0.38212 0.0
O300 O 0.2929 0.31681 0.28267 0.0
O301 O 0.32603 0.34199 0.24552 0.0
O302 O 0.34639 0.38946 0.24289 0.0
O303 O 0.28725 0.43676 0.24424 0.0
O304 O 0.24241 0.37563 0.27457 0.0
O305 O 0.24145 0.40724 0.22681 0.0
O306 O 0.27178 0.42928 0.32537 0.0
O307 O 0.23517 0.40459 0.35779 0.0
H308 H 0.17152 0.32565 0.33518 0.0
H309 H 0.13959 0.28547 0.34157 0.0
H310 H 0.24361 0.22336 0.42514 0.0
H311 H 0.27509 0.2633 0.41893 0.0
H312 H 0.41137 0.40084 0.25072 0.0
H313 H 0.45131 0.43426 0.24158 0.0
H314 H 0.33498 0.52258 0.20896 0.0
H315 H 0.29504 0.48944 0.21835 0.0
Tb316 Tb 0.82672 0.36427 0.31913 0.0
Tb317 Tb 0.79004 0.33186 0.25931 0.0
C318 C 0.84312 0.40372 0.36926 0.0
C319 C 0.82546 0.43563 0.39475 0.0
C320 C 0.79179 0.46548 0.37925 0.0
C321 C 0.78329 0.49734 0.39842 0.0
C322 C 0.80838 0.49989 0.43323 0.0
C323 C 0.83963 0.46959 0.45061 0.0
C324 C 0.84808 0.43779 0.43146 0.0
C325 C 0.87511 0.29732 0.31028 0.0
C326 C 0.75867 0.34087 0.34872 0.0
C327 C 0.77063 0.29697 0.20463 0.0
C328 C 0.78873 0.26323 0.18316 0.0
C329 C 0.81517 0.23326 0.20471 0.0
C330 C 0.82577 0.2011 0.18547 0.0
C331 C 0.81031 0.19838 0.14432 0.0
C332 C 0.78597 0.22862 0.12216 0.0
C333 C 0.77524 0.26068 0.14148 0.0
C334 C 0.74324 0.39938 0.26995 0.0
C335 C 0.8673 0.34373 0.23194 0.0
O336 O 0.8387 0.40711 0.32834 0.0
O337 O 0.83911 0.37684 0.38179 0.0
O338 O 0.83519 0.31182 0.3107 0.0
O339 O 0.88906 0.32006 0.31881 0.0
O340 O 0.77127 0.36572 0.35221 0.0
O341 O 0.77087 0.31895 0.3168 0.0
O342 O 0.76439 0.29715 0.24494 0.0
O343 O 0.78524 0.3189 0.19519 0.0
O344 O 0.78278 0.38396 0.26728 0.0
O345 O 0.72836 0.37705 0.26381 0.0
O346 O 0.84864 0.32301 0.22891 0.0
O347 O 0.85824 0.36691 0.26265 0.0
H348 H 0.77376 0.46446 0.35095 0.0
H349 H 0.75831 0.52014 0.38483 0.0
H350 H 0.85961 0.47056 0.47724 0.0
H351 H 0.87436 0.41508 0.44368 0.0
H352 H 0.82614 0.23463 0.23694 0.0
H353 H 0.84446 0.17843 0.20361 0.0
H354 H 0.77442 0.22757 0.09012 0.0
H355 H 0.75498 0.28356 0.12435 0.0
Tb356 Tb 0.83795 0.85528 0.3085 0.0
Tb357 Tb 0.81554 0.81609 0.24051 0.0
C358 C 0.87294 0.88318 0.35638 0.0
C359 C 0.89333 0.9065 0.35783 0.0
C360 C 0.93013 0.89993 0.33592 0.0
C361 C 0.94947 0.92225 0.34103 0.0
C362 C 0.93211 0.95133 0.36795 0.0
C363 C 0.8945 0.95817 0.3885 0.0
C364 C 0.87553 0.9359 0.38367 0.0
C365 C 0.7658 0.85385 0.33304 0.0
C366 C 0.79987 0.8908 0.22239 0.0
C367 C 0.78027 0.78943 0.19139 0.0
C368 C 0.75607 0.7694 0.19017 0.0
C369 C 0.73441 0.76718 0.22518 0.0
C370 C 0.7126 0.74673 0.22265 0.0
C371 C 0.71256 0.72845 0.18507 0.0
C372 C 0.73497 0.73043 0.1505 0.0
C373 C 0.75662 0.75077 0.15311 0.0
C374 C 0.88801 0.81674 0.21653 0.0
C375 C 0.85129 0.78101 0.32734 0.0
O376 O 0.89336 0.85188 0.34092 0.0
O377 O 0.83256 0.89745 0.3454 0.0
O378 O 0.78545 0.84056 0.29887 0.0
O379 O 0.78443 0.87122 0.35012 0.0
O380 O 0.82116 0.89101 0.25751 0.0
O381 O 0.78701 0.86677 0.21369 0.0
O382 O 0.76129 0.82141 0.20492 0.0
O383 O 0.81948 0.77323 0.20573 0.0
O384 O 0.86812 0.83032 0.25042 0.0
O385 O 0.8695 0.79939 0.19928 0.0
O386 O 0.8309 0.78099 0.29152 0.0
O387 O 0.86473 0.80474 0.3366 0.0
H388 H 0.94422 0.87746 0.31555 0.0
H389 H 0.97851 0.91628 0.32482 0.0
H390 H 0.87966 0.98075 0.40856 0.0
H391 H 0.84697 0.94151 0.40064 0.0
H392 H 0.73445 0.78114 0.25413 0.0
H393 H 0.69538 0.74555 0.24964 0.0
H394 H 0.736 0.71603 0.12154 0.0
H395 H 0.77401 0.75185 0.12618 0.0
Tb396 Tb 0.3019 0.83462 0.3222 0.0
Tb397 Tb 0.33533 0.87313 0.26347 0.0
C398 C 0.29532 0.7866 0.35869 0.0
C399 C 0.32041 0.75275 0.37745 0.0
C400 C 0.35829 0.72858 0.36011 0.0
C401 C 0.37831 0.69522 0.37583 0.0
C402 C 0.3611 0.68579 0.40964 0.0
C403 C 0.32414 0.71058 0.4279 0.0
C404 C 0.30398 0.74362 0.41184 0.0
C405 C 0.25513 0.90245 0.32756 0.0
C406 C 0.36939 0.86106 0.35591 0.0
C407 C 0.34808 0.91299 0.2169 0.0
C408 C 0.3272 0.94493 0.19309 0.0
C409 C 0.29916 0.97571 0.21243 0.0
C410 C 0.28756 0.00693 0.19253 0.0
C411 C 0.30348 0.00794 0.15281 0.0
C412 C 0.32911 0.97681 0.13242 0.0
C413 C 0.34096 0.94566 0.15248 0.0
C414 C 0.38326 0.80586 0.27166 0.0
C415 C 0.25389 0.86046 0.23537 0.0
O416 O 0.29585 0.7886 0.31758 0.0
O417 O 0.29626 0.81328 0.37877 0.0
O418 O 0.28675 0.88544 0.30592 0.0
O419 O 0.24838 0.88039 0.34891 0.0
O420 O 0.35718 0.83594 0.35633 0.0
O421 O 0.35808 0.88297 0.32476 0.0
O422 O 0.34684 0.91602 0.25819 0.0
O423 O 0.34423 0.88568 0.20221 0.0
O424 O 0.34351 0.82139 0.27032 0.0
O425 O 0.39766 0.82807 0.26474 0.0
O426 O 0.27679 0.87776 0.23019 0.0
O427 O 0.25997 0.8401 0.26767 0.0
H428 H 0.37187 0.73523 0.33402 0.0
H429 H 0.40698 0.67678 0.36142 0.0
H430 H 0.3098 0.70407 0.45365 0.0
H431 H 0.27473 0.76184 0.42558 0.0
H432 H 0.288 0.9759 0.24383 0.0
H433 H 0.26796 0.03032 0.20937 0.0
H434 H 0.34109 0.97652 0.10142 0.0
H435 H 0.36263 0.9222 0.13707 0.0
Tb436 Tb 0.31636 0.86551 0.83226 0.0
Tb437 Tb 0.27853 0.82957 0.76434 0.0
C438 C 0.32476 0.91166 0.87566 0.0
C439 C 0.29776 0.945 0.89451 0.0
C440 C 0.25537 0.96335 0.88066 0.0
C441 C 0.23264 0.99773 0.89288 0.0
C442 C 0.25232 0.01379 0.91906 0.0
C443 C 0.29366 0.99462 0.93524 0.0
C444 C 0.31624 0.96036 0.92307 0.0
C445 C 0.36425 0.79799 0.82653 0.0
C446 C 0.24331 0.842 0.85788 0.0
C447 C 0.26677 0.78676 0.71801 0.0
C448 C 0.29174 0.75454 0.69579 0.0
C449 C 0.32056 0.72557 0.71751 0.0
C450 C 0.33708 0.69362 0.69725 0.0
C451 C 0.32488 0.6904 0.6551 0.0
C452 C 0.29971 0.71997 0.63229 0.0
C453 C 0.28307 0.75186 0.65263 0.0
C454 C 0.23158 0.89786 0.76862 0.0
C455 C 0.35745 0.84534 0.74067 0.0
O456 O 0.32423 0.91052 0.83417 0.0
O457 O 0.32394 0.8846 0.89225 0.0
O458 O 0.32947 0.81626 0.80845 0.0
O459 O 0.37384 0.8187 0.85058 0.0
O460 O 0.26434 0.86122 0.86653 0.0
O461 O 0.24671 0.82544 0.82098 0.0
O462 O 0.26746 0.78604 0.7595 0.0
O463 O 0.26834 0.81415 0.70339 0.0
O464 O 0.26405 0.87907 0.78975 0.0
O465 O 0.2246 0.87733 0.74212 0.0
O466 O 0.33584 0.82658 0.73354 0.0
O467 O 0.35126 0.86548 0.77511 0.0
H468 H 0.24085 0.95158 0.85873 0.0
H469 H 0.20082 0.01225 0.87995 0.0
H470 H 0.30924 0.0067 0.95553 0.0
H471 H 0.3489 0.94644 0.93409 0.0
H472 H 0.32814 0.7271 0.75071 0.0
H473 H 0.35648 0.67125 0.71561 0.0
H474 H 0.2907 0.71818 0.59946 0.0
H475 H 0.26137 0.77412 0.63527 0.0
Tb476 Tb 0.34703 0.34548 0.83133 0.0
Tb477 Tb 0.30644 0.31905 0.76982 0.0
C478 C 0.38384 0.37514 0.87415 0.0
C479 C 0.39878 0.40201 0.87107 0.0
C480 C 0.44082 0.39327 0.86058 0.0
C481 C 0.45701 0.41761 0.8644 0.0
C482 C 0.43141 0.45112 0.87865 0.0
C483 C 0.38886 0.46031 0.88736 0.0
C484 C 0.37273 0.43593 0.88384 0.0
C485 C 0.27887 0.3435 0.86107 0.0
C486 C 0.29736 0.39184 0.7547 0.0
C487 C 0.26936 0.29068 0.72564 0.0
C488 C 0.253 0.26488 0.72648 0.0
C489 C 0.2183 0.26958 0.75074 0.0
C490 C 0.19987 0.24682 0.74604 0.0
C491 C 0.21603 0.21911 0.71711 0.0
C492 C 0.25196 0.21365 0.69441 0.0
C493 C 0.27019 0.23644 0.69897 0.0
C494 C 0.37343 0.32146 0.7389 0.0
C495 C 0.35781 0.27263 0.84608 0.0
O496 O 0.40409 0.3461 0.85352 0.0
O497 O 0.34277 0.38536 0.87261 0.0
O498 O 0.28166 0.35194 0.8237 0.0
O499 O 0.31312 0.33836 0.88245 0.0
O500 O 0.32738 0.38476 0.78415 0.0
O501 O 0.27828 0.37158 0.74776 0.0
O502 O 0.24927 0.31969 0.74641 0.0
O503 O 0.31062 0.27899 0.72897 0.0
O504 O 0.37197 0.31261 0.77657 0.0
O505 O 0.33857 0.32686 0.71874 0.0
O506 O 0.32672 0.27979 0.81766 0.0
O507 O 0.37707 0.29283 0.85177 0.0
H508 H 0.46172 0.36732 0.85095 0.0
H509 H 0.48986 0.41003 0.85715 0.0
H510 H 0.36864 0.4859 0.89883 0.0
H511 H 0.34035 0.44338 0.89277 0.0
H512 H 0.20437 0.29141 0.77206 0.0
H513 H 0.17191 0.25178 0.76365 0.0
H514 H 0.26541 0.19218 0.67243 0.0
H515 H 0.29694 0.23245 0.67989 0.0
Tb516 Tb 0.79024 0.34153 0.82237 0.0
Tb517 Tb 0.82004 0.37742 0.75888 0.0
C518 C 0.77496 0.2972 0.85742 0.0
C519 C 0.79846 0.26441 0.8785 0.0
C520 C 0.8428 0.24688 0.87691 0.0
C521 C 0.86383 0.21287 0.89006 0.0
C522 C 0.84053 0.19621 0.90489 0.0
C523 C 0.7965 0.21478 0.90919 0.0
C524 C 0.77565 0.24861 0.896 0.0
C525 C 0.75088 0.4095 0.82399 0.0
C526 C 0.86441 0.36181 0.85183 0.0
C527 C 0.82579 0.42454 0.72089 0.0
C528 C 0.79803 0.45556 0.69801 0.0
C529 C 0.76069 0.48072 0.71525 0.0
C530 C 0.73835 0.51192 0.69481 0.0
C531 C 0.75315 0.51817 0.65703 0.0
C532 C 0.7887 0.49188 0.63854 0.0
C533 C 0.81101 0.46096 0.65898 0.0
C534 C 0.87254 0.31007 0.75985 0.0
C535 C 0.7423 0.35972 0.72939 0.0
O536 O 0.78183 0.29673 0.81709 0.0
O537 O 0.77366 0.32476 0.87711 0.0
O538 O 0.76379 0.38988 0.79241 0.0
O539 O 0.75675 0.39056 0.85666 0.0
O540 O 0.84774 0.33968 0.85595 0.0
O541 O 0.85415 0.38186 0.81828 0.0
O542 O 0.82161 0.42508 0.76195 0.0
O543 O 0.83127 0.39529 0.70255 0.0
O544 O 0.84103 0.32721 0.78192 0.0
O545 O 0.87486 0.33185 0.73433 0.0
O546 O 0.76676 0.37497 0.72022 0.0
O547 O 0.74665 0.34508 0.76688 0.0
H548 H 0.86071 0.25906 0.86391 0.0
H549 H 0.89781 0.19912 0.88659 0.0
H550 H 0.77799 0.20266 0.92132 0.0
H551 H 0.74143 0.26191 0.89767 0.0
H552 H 0.74979 0.4769 0.74521 0.0
H553 H 0.71105 0.53176 0.70972 0.0
H554 H 0.80033 0.49577 0.60902 0.0
H555 H 0.83945 0.44168 0.64503 0.0
Tb556 Tb 0.76255 0.85306 0.80648 0.0
Tb557 Tb 0.80358 0.87515 0.74695 0.0
C558 C 0.72385 0.82794 0.84813 0.0
C559 C 0.70993 0.80034 0.84809 0.0
C560 C 0.66857 0.80664 0.83433 0.0
C561 C 0.65249 0.7831 0.84231 0.0
C562 C 0.67749 0.7529 0.86419 0.0
C563 C 0.71959 0.74573 0.87587 0.0
C564 C 0.73563 0.76928 0.86804 0.0
C565 C 0.83145 0.85565 0.84018 0.0
C566 C 0.81495 0.80097 0.73535 0.0
C567 C 0.84 0.90096 0.70368 0.0
C568 C 0.85504 0.92757 0.70446 0.0
C569 C 0.8803 0.93151 0.73792 0.0
C570 C 0.89721 0.9552 0.73496 0.0
C571 C 0.88891 0.97498 0.69857 0.0
C572 C 0.86201 0.97202 0.6662 0.0
C573 C 0.8452 0.94847 0.66917 0.0
C574 C 0.73419 0.87296 0.7139 0.0
C575 C 0.75427 0.92595 0.82053 0.0
O576 O 0.70467 0.8534 0.82218 0.0
O577 O 0.76468 0.81855 0.85157 0.0
O578 O 0.82826 0.84524 0.80267 0.0
O579 O 0.79707 0.8626 0.85953 0.0
O580 O 0.78335 0.81041 0.76128 0.0
O581 O 0.83365 0.82108 0.72936 0.0
O582 O 0.86047 0.87402 0.72713 0.0
O583 O 0.79887 0.91201 0.70392 0.0
O584 O 0.73775 0.8837 0.75112 0.0
O585 O 0.76921 0.86415 0.69499 0.0
O586 O 0.78555 0.91664 0.79414 0.0
O587 O 0.73377 0.9069 0.82438 0.0
H588 H 0.64796 0.83043 0.81917 0.0
H589 H 0.62005 0.78899 0.83249 0.0
H590 H 0.73942 0.72281 0.89312 0.0
H591 H 0.76747 0.76386 0.8796 0.0
H592 H 0.8879 0.91579 0.76559 0.0
H593 H 0.9181 0.95705 0.7602 0.0
H594 H 0.85479 0.98738 0.63814 0.0
H595 H 0.82539 0.9459 0.64328 0.0
C596 C 0.17456 0.17054 0.39526 0.0
C597 C 0.13194 0.18407 0.4063 0.0
H598 H 0.22635 0.18142 0.37959 0.0
C599 C 0.10807 0.21975 0.40919 0.0
H600 H 0.19334 0.14307 0.39286 0.0
C601 C 0.12651 0.24163 0.40091 0.0
C602 C 0.16927 0.22816 0.3902 0.0
H603 H 0.07495 0.23066 0.41707 0.0
H604 H 0.10755 0.26908 0.40358 0.0
C605 C 0.19326 0.19241 0.3877 0.0
C606 C 0.91214 0.2018 0.32461 0.0
C607 C 0.95643 0.1894 0.32214 0.0
H608 H 0.85139 0.24554 0.32183 0.0
C609 C 0.97318 0.21235 0.31222 0.0
H610 H 0.8984 0.18471 0.33249 0.0
C611 C 0.94635 0.24726 0.30706 0.0
C612 C 0.90225 0.25986 0.31118 0.0
H613 H 1.00716 0.20375 0.31089 0.0
H614 H 0.96026 0.26462 0.30104 0.0
C615 C 0.88524 0.23661 0.31866 0.0
C616 C 0.97201 0.01107 0.42356 0.0
C617 C 0.98997 0.02051 0.3905 0.0
H618 H 0.94103 0.98119 0.44269 0.0
C619 C 0.98948 0.00637 0.34983 0.0
H620 H 0.97133 0.02158 0.45515 0.0
C621 C 0.97116 0.98362 0.34246 0.0
C622 C 0.95308 0.97441 0.37558 0.0
H623 H 1.00346 0.01257 0.32361 0.0
H624 H 0.97056 0.97369 0.31069 0.0
C625 C 0.95409 0.98816 0.41627 0.0
C626 C 0.17519 0.99406 0.30568 0.0
C627 C 0.17304 0.00932 0.34611 0.0
H628 H 0.20412 0.94783 0.26757 0.0
C629 C 0.20181 0.98987 0.37808 0.0
H630 H 0.15337 0.00815 0.28043 0.0
C631 C 0.23001 0.95569 0.37089 0.0
C632 C 0.23107 0.94006 0.3313 0.0
H633 H 0.20149 1.00058 0.40956 0.0
H634 H 0.25017 0.94106 0.39685 0.0
C635 C 0.20425 0.95964 0.29827 0.0
C636 C 0.18236 0.98436 0.71902 0.0
C637 C 0.15189 0.00476 0.7483 0.0
H638 H 0.23173 0.93514 0.70325 0.0
C639 C 0.1523 0.99061 0.78777 0.0
H640 H 0.18341 0.99405 0.68828 0.0
C641 C 0.18085 0.95625 0.79639 0.0
C642 C 0.20981 0.93578 0.766 0.0
H643 H 0.12924 0.00536 0.81097 0.0
H644 H 0.17862 0.94514 0.82572 0.0
C645 C 0.21058 0.95049 0.72765 0.0
C646 C 0.15447 0.16785 0.73373 0.0
C647 C 0.14742 0.15899 0.69191 0.0
H648 H 0.18238 0.19338 0.7745 0.0
C649 C 0.16483 0.16869 0.65872 0.0
H650 H 0.14103 0.16128 0.76009 0.0
C651 C 0.18775 0.18776 0.66701 0.0
C652 C 0.194 0.19719 0.70873 0.0
H653 H 0.16025 0.16195 0.62629 0.0
H654 H 0.19958 0.19591 0.64063 0.0
C655 C 0.17765 0.1867 0.74204 0.0
C656 C 0.93201 0.22387 0.70664 0.0
C657 C 0.95123 0.20133 0.74037 0.0
H658 H 0.89241 0.27488 0.6867 0.0
C659 C 0.94241 0.21484 0.78188 0.0
H660 H 0.93805 0.215 0.67414 0.0
C661 C 0.91524 0.25001 0.78899 0.0
C662 C 0.89663 0.27216 0.7548 0.0
H663 H 0.95682 0.19846 0.80865 0.0
H664 H 0.91052 0.26019 0.82097 0.0
C665 C 0.90555 0.2585 0.71374 0.0
C666 C 0.9332 0.03967 0.71865 0.0
C667 C 0.95509 0.0364 0.68124 0.0
H668 H 0.89526 0.02248 0.75361 0.0
C669 C 0.95352 0.01353 0.6493 0.0
H670 H 0.93275 0.05745 0.74367 0.0
C671 C 0.93142 0.99404 0.6549 0.0
C672 C 0.91066 0.99678 0.69263 0.0
H673 H 0.97011 0.00984 0.62026 0.0
H674 H 0.93148 0.97612 0.63008 0.0
C675 C 0.91153 0.01977 0.72443 0.0
C676 C 0.29631 0.24978 0.18795 0.0
C677 C 0.28453 0.26571 0.14879 0.0
H678 H 0.31634 0.25363 0.25193 0.0
C679 C 0.2904 0.29502 0.14151 0.0
H680 H 0.2917 0.22713 0.19369 0.0
C681 C 0.30599 0.30942 0.17395 0.0
C682 C 0.31477 0.2951 0.21434 0.0
H683 H 0.28145 0.30734 0.11117 0.0
H684 H 0.30747 0.33342 0.16835 0.0
C685 C 0.31085 0.26465 0.22081 0.0
C686 C 0.94786 0.35898 0.17021 0.0
C687 C 0.96748 0.32783 0.14731 0.0
H688 H 0.90101 0.3884 0.21521 0.0
C689 C 0.95329 0.30242 0.1523 0.0
H690 H 0.95813 0.37905 0.16744 0.0
C691 C 0.92052 0.30786 0.17944 0.0
C692 C 0.90123 0.33878 0.20255 0.0
H693 H 0.96718 0.27835 0.13488 0.0
H694 H 0.91065 0.28756 0.18264 0.0
C695 C 0.91528 0.3643 0.19778 0.0
C696 C 0.83331 0.90582 0.11795 0.0
C697 C 0.83688 0.93651 0.12588 0.0
H698 H 0.81657 0.86813 0.142 0.0
C699 C 0.82232 0.95476 0.16386 0.0
H700 H 0.84405 0.89159 0.08864 0.0
C701 C 0.80692 0.94124 0.19475 0.0
C702 C 0.80438 0.90999 0.18722 0.0
H703 H 0.82488 0.97855 0.17033 0.0
H704 H 0.79875 0.95437 0.2251 0.0
C705 C 0.81672 0.89287 0.14813 0.0
C706 C 0.16745 0.8465 0.17273 0.0
C707 C 0.15054 0.87538 0.14676 0.0
H708 H 0.21304 0.81929 0.22142 0.0
C709 C 0.16864 0.89875 0.14966 0.0
H710 H 0.15416 0.82807 0.1714 0.0
C711 C 0.2025 0.89363 0.17803 0.0
C712 C 0.21886 0.86517 0.20451 0.0
H713 H 0.15682 0.92094 0.1297 0.0
H714 H 0.21544 0.91232 0.17959 0.0
C715 C 0.20102 0.84159 0.20155 0.0
C716 C 0.18569 0.10329 0.96087 0.0
C717 C 0.20395 0.1219 0.94096 0.0
H718 H 0.18627 0.05389 0.96877 0.0
C719 C 0.23582 0.10509 0.91181 0.0
H720 H 0.16208 0.11568 0.98448 0.0
C721 C 0.25039 0.07003 0.90389 0.0
C722 C 0.23292 0.05128 0.92453 0.0
H723 H 0.25152 0.11865 0.8975 0.0
H724 H 0.27643 0.05724 0.88278 0.0
C725 C 0.19972 0.06815 0.95227 0.0
C726 C 0.18266 0.32854 0.8854 0.0
C727 C 0.1795 0.33596 0.92923 0.0
H728 H 0.21576 0.32624 0.82865 0.0
C729 C 0.20657 0.34879 0.94869 0.0
H730 H 0.16199 0.31881 0.86946 0.0
C731 C 0.23728 0.35262 0.92555 0.0
C732 C 0.24119 0.34459 0.88202 0.0
H733 H 0.20524 0.35446 0.9823 0.0
H734 H 0.25889 0.36111 0.94215 0.0
C735 C 0.213 0.33314 0.86189 0.0
C736 C 0.91349 0.10904 0.94871 0.0
C737 C 0.89498 0.08859 0.93022 0.0
H738 H 0.91116 0.15949 0.95449 0.0
C739 C 0.85997 0.10337 0.90218 0.0
H740 H 0.93969 0.09818 0.97144 0.0
C741 C 0.84294 0.1382 0.89357 0.0
C742 C 0.86088 0.15892 0.91251 0.0
H743 H 0.84436 0.08825 0.88886 0.0
H744 H 0.81516 0.14914 0.87268 0.0
C745 C 0.89699 0.14394 0.93935 0.0
C746 C 0.90603 0.85005 0.93245 0.0
C747 C 0.93188 0.86379 0.9162 0.0
H748 H 0.85421 0.83681 0.92084 0.0
C749 C 0.92748 0.87141 0.8728 0.0
H750 H 0.90834 0.84416 0.96564 0.0
C751 C 0.89702 0.86629 0.84662 0.0
C752 C 0.86986 0.85417 0.86361 0.0
H753 H 0.94722 0.88178 0.85928 0.0
H754 H 0.89325 0.87342 0.81382 0.0
C755 C 0.87509 0.84579 0.90666 0.0
C756 C 0.15672 0.34748 0.18242 0.0
C757 C 0.13621 0.37008 0.14839 0.0
H758 H 0.19919 0.33514 0.23759 0.0
C759 C 0.14305 0.39977 0.14731 0.0
H760 H 0.15294 0.32408 0.18485 0.0
C761 C 0.16996 0.40594 0.17797 0.0
C762 C 0.19084 0.3831 0.21151 0.0
H763 H 0.12884 0.41771 0.12193 0.0
H764 H 0.17525 0.4286 0.17475 0.0
C765 C 0.18329 0.35384 0.21332 0.0
C766 C 0.17577 0.86046 0.95689 0.0
C767 C 0.15396 0.83952 0.95161 0.0
H768 H 0.21968 0.8777 0.93325 0.0
C769 C 0.16354 0.81781 0.91535 0.0
H770 H 0.16936 0.87798 0.98378 0.0
C771 C 0.19276 0.81804 0.88536 0.0
C772 C 0.21361 0.83985 0.89054 0.0
H773 H 0.14707 0.80187 0.90907 0.0
H774 H 0.19835 0.80152 0.85758 0.0
C775 C 0.20486 0.86051 0.92744 0.0
C776 C 0.33215 0.2119 0.90795 0.0
C777 C 0.33431 0.22431 0.9491 0.0
H778 H 0.33847 0.21764 0.84202 0.0
C779 C 0.35217 0.24753 0.95612 0.0
H780 H 0.3179 0.19434 0.90179 0.0
C781 C 0.36521 0.25993 0.92234 0.0
C782 C 0.35932 0.2502 0.88069 0.0
H783 H 0.35379 0.25766 0.98759 0.0
H784 H 0.37592 0.27971 0.92875 0.0
C785 C 0.34406 0.22514 0.87384 0.0
C786 C 0.93622 0.34159 0.95235 0.0
C787 C 0.95715 0.36312 0.95119 0.0
H788 H 0.89226 0.32419 0.92368 0.0
C789 C 0.94584 0.38581 0.91695 0.0
H790 H 0.94372 0.32348 0.97762 0.0
C791 C 0.91561 0.386 0.88488 0.0
C792 C 0.89576 0.36352 0.88597 0.0
H793 H 0.96152 0.40234 0.91394 0.0
H794 H 0.90845 0.40333 0.8588 0.0
C795 C 0.90643 0.34181 0.92085 0.0
C796 C 0.75196 0.95959 0.93149 0.0
C797 C 0.77386 0.97989 0.92812 0.0
H798 H 0.7268 0.92785 0.89977 0.0
C799 C 0.78263 0.98719 0.8878 0.0
H800 H 0.74493 0.95344 0.96218 0.0
C801 C 0.7727 0.97205 0.85173 0.0
C802 C 0.75306 0.94998 0.85542 0.0
H803 H 0.79987 0.00252 0.88432 0.0
H804 H 0.78275 0.9759 0.82131 0.0
C805 C 0.74119 0.94516 0.89555 0.0
C806 C 0.95492 0.85782 0.16859 0.0
C807 C 0.97657 0.83425 0.13551 0.0
H808 H 0.91151 0.87129 0.22017 0.0
C809 C 0.97085 0.80399 0.13258 0.0
H810 H 0.95767 0.88174 0.17234 0.0
C811 C 0.94398 0.79816 0.16046 0.0
C812 C 0.922 0.8219 0.19307 0.0
H813 H 0.98587 0.78528 0.10777 0.0
H814 H 0.93946 0.77504 0.15562 0.0
C815 C 0.92842 0.85179 0.19677 0.0
C816 C 0.32053 0.07688 0.09641 0.0
C817 C 0.28173 0.10562 0.10228 0.0
H818 H 0.35822 0.02373 0.10848 0.0
C819 C 0.24967 0.10179 0.12357 0.0
H820 H 0.34571 0.07901 0.07993 0.0
C821 C 0.25635 0.07002 0.13902 0.0
C822 C 0.29544 0.04131 0.134 0.0
H823 H 0.21906 0.12329 0.12796 0.0
H824 H 0.23071 0.068 0.15474 0.0
C825 C 0.32743 0.04511 0.11236 0.0
C826 C 0.79246 0.12774 0.08401 0.0
C827 C 0.83106 0.09902 0.09187 0.0
H828 H 0.75531 0.18143 0.09497 0.0
C829 C 0.86304 0.10332 0.11631 0.0
H830 H 0.76733 0.12532 0.06505 0.0
C831 C 0.85659 0.13553 0.13269 0.0
C832 C 0.81783 0.16428 0.12537 0.0
H833 H 0.89351 0.08186 0.1224 0.0
H834 H 0.88223 0.13789 0.15078 0.0
C835 C 0.78583 0.15999 0.10077 0.0
C836 C 0.60137 0.72299 0.90927 0.0
C837 C 0.62342 0.68728 0.90437 0.0
H838 H 0.6012 0.77174 0.89999 0.0
C839 C 0.66361 0.67315 0.88657 0.0
H840 H 0.57007 0.73451 0.92231 0.0
C841 C 0.68135 0.6944 0.8735 0.0
C842 C 0.65887 0.73018 0.87755 0.0
H843 H 0.68111 0.64565 0.88254 0.0
H844 H 0.71229 0.6829 0.85961 0.0
C845 C 0.61887 0.74425 0.89583 0.0
C846 C 0.40216 0.70167 0.82489 0.0
C847 C 0.44651 0.69014 0.82724 0.0
H848 H 0.34096 0.74511 0.82187 0.0
C849 C 0.46312 0.71423 0.82396 0.0
H850 H 0.38853 0.6837 0.82794 0.0
C851 C 0.43591 0.74927 0.82126 0.0
C852 C 0.39164 0.76089 0.82077 0.0
H853 H 0.49704 0.70632 0.82668 0.0
H854 H 0.44953 0.76749 0.82135 0.0
C855 C 0.37494 0.73674 0.82124 0.0
C856 C 0.50511 0.48907 0.9198 0.0
C857 C 0.48458 0.52263 0.90478 0.0
H858 H 0.50443 0.43999 0.92275 0.0
C859 C 0.44636 0.53268 0.88111 0.0
H860 H 0.53484 0.48069 0.93774 0.0
C861 C 0.42883 0.50952 0.87268 0.0
C862 C 0.44978 0.47576 0.88709 0.0
H863 H 0.43003 0.55852 0.86942 0.0
H864 H 0.39924 0.51784 0.85447 0.0
C865 C 0.48801 0.46576 0.91079 0.0
C866 C 0.65355 0.48664 0.78515 0.0
C867 C 0.64626 0.50983 0.81935 0.0
H868 H 0.69336 0.43715 0.7592 0.0
C869 C 0.6756 0.50071 0.85382 0.0
H870 H 0.63136 0.49292 0.75834 0.0
C871 C 0.71034 0.46833 0.85497 0.0
C872 C 0.71708 0.44494 0.82113 0.0
H873 H 0.67047 0.51789 0.8809 0.0
H874 H 0.73145 0.46132 0.88264 0.0
C875 C 0.68903 0.45476 0.78569 0.0
C876 C 0.64751 0.48623 0.26823 0.0
C877 C 0.66452 0.50741 0.25253 0.0
H878 H 0.6593 0.43524 0.28553 0.0
C879 C 0.70842 0.49331 0.24595 0.0
H880 H 0.61375 0.49613 0.27288 0.0
C881 C 0.73458 0.45862 0.25375 0.0
C882 C 0.71715 0.437 0.26709 0.0
H883 H 0.72234 0.50897 0.23355 0.0
H884 H 0.76805 0.44841 0.2474 0.0
C885 C 0.67354 0.45131 0.27506 0.0
C886 C 0.64095 0.69003 0.14103 0.0
C887 C 0.64503 0.66656 0.17236 0.0
H888 H 0.65889 0.72831 0.12095 0.0
C889 C 0.67166 0.6637 0.2081 0.0
H890 H 0.62033 0.69338 0.11344 0.0
C891 C 0.69321 0.6842 0.21265 0.0
C892 C 0.68894 0.70752 0.18127 0.0
H893 H 0.67625 0.64548 0.23248 0.0
H894 H 0.71377 0.68139 0.24027 0.0
C895 C 0.66282 0.71022 0.14541 0.0
C896 C 0.47783 0.71822 0.26785 0.0
C897 C 0.45882 0.69691 0.25337 0.0
H898 H 0.46862 0.76955 0.2845 0.0
C899 C 0.41437 0.71139 0.24791 0.0
H900 H 0.51203 0.70805 0.27145 0.0
C901 C 0.38955 0.74649 0.2555 0.0
C902 C 0.40869 0.76807 0.26825 0.0
H903 H 0.39884 0.69565 0.23656 0.0
H904 H 0.35552 0.7569 0.25003 0.0
C905 C 0.45301 0.75348 0.27489 0.0
C906 C 0.43023 0.55147 0.21381 0.0
C907 C 0.46578 0.53523 0.18863 0.0
H908 H 0.38045 0.54667 0.24549 0.0
C909 C 0.47813 0.5011 0.17517 0.0
H910 H 0.42005 0.57786 0.22429 0.0
C911 C 0.4556 0.48335 0.1872 0.0
C912 C 0.42042 0.49945 0.21286 0.0
H913 H 0.50576 0.48785 0.15623 0.0
H914 H 0.4655 0.45711 0.17613 0.0
C915 C 0.40763 0.53373 0.2258 0.0
C916 C 0.85095 0.74063 0.64066 0.0
C917 C 0.82271 0.72539 0.64071 0.0
H918 H 0.87105 0.77643 0.67095 0.0
C919 C 0.79612 0.73185 0.67505 0.0
H920 H 0.87167 0.73626 0.6145 0.0
C921 C 0.79609 0.75448 0.70751 0.0
C922 C 0.82228 0.77157 0.70616 0.0
H923 H 0.77409 0.72041 0.6761 0.0
H924 H 0.77377 0.75992 0.73248 0.0
C925 C 0.85062 0.76363 0.67304 0.0
C926 C 0.43987 0.86216 0.67767 0.0
C927 C 0.45574 0.83364 0.64937 0.0
H928 H 0.39778 0.88807 0.72876 0.0
C929 C 0.43802 0.80995 0.65142 0.0
H930 H 0.45243 0.88103 0.67764 0.0
C931 C 0.40641 0.81417 0.68032 0.0
C932 C 0.39107 0.84209 0.70928 0.0
H933 H 0.44852 0.78783 0.6303 0.0
H934 H 0.39439 0.79494 0.68026 0.0
C935 C 0.40849 0.86609 0.70736 0.0
C936 C 0.31438 0.41502 0.64723 0.0
C937 C 0.33193 0.43798 0.65765 0.0
H938 H 0.28645 0.38389 0.67009 0.0
C939 C 0.32926 0.45127 0.69889 0.0
H940 H 0.31584 0.40493 0.61525 0.0
C941 C 0.31304 0.43904 0.73045 0.0
C942 C 0.29821 0.41402 0.72083 0.0
H943 H 0.34224 0.4694 0.70707 0.0
H944 H 0.31498 0.44725 0.76287 0.0
C945 C 0.2969 0.40356 0.67848 0.0
C946 C 0.66494 0.3806 0.63108 0.0
C947 C 0.6413 0.36195 0.63816 0.0
H948 H 0.71484 0.39452 0.65331 0.0
C949 C 0.65077 0.34353 0.67616 0.0
H950 H 0.66021 0.39399 0.60171 0.0
C951 C 0.6824 0.34347 0.70565 0.0
C952 C 0.70692 0.36127 0.69823 0.0
H953 H 0.63456 0.32787 0.68244 0.0
H954 H 0.68847 0.32844 0.73386 0.0
C955 C 0.69704 0.38033 0.66058 0.0
C956 C 0.80731 0.57294 0.50507 0.0
C957 C 0.80166 0.59813 0.47549 0.0
H958 H 0.81267 0.52242 0.51516 0.0
C959 C 0.7985 0.59059 0.43233 0.0
H960 H 0.80927 0.57809 0.53857 0.0
C961 C 0.80026 0.55896 0.41898 0.0
C962 C 0.80511 0.53391 0.44839 0.0
H963 H 0.79404 0.60939 0.40865 0.0
H964 H 0.79825 0.55405 0.38539 0.0
C965 C 0.80901 0.54113 0.49165 0.0
C966 C 0.68952 0.81762 0.37401 0.0
C967 C 0.67469 0.83684 0.41225 0.0
H968 H 0.72938 0.80675 0.31973 0.0
C969 C 0.68927 0.86206 0.42181 0.0
H970 H 0.67944 0.79807 0.36426 0.0
C971 C 0.71718 0.86752 0.39515 0.0
C972 C 0.73243 0.84816 0.35735 0.0
H973 H 0.67971 0.87748 0.45042 0.0
H974 H 0.72752 0.887 0.4049 0.0
C975 C 0.71804 0.8229 0.34748 0.0
C976 C 0.40072 0.58905 0.41072 0.0
C977 C 0.40195 0.58312 0.45423 0.0
H978 H 0.387 0.62624 0.36245 0.0
C979 C 0.39504 0.61064 0.48279 0.0
H980 H 0.40572 0.56866 0.38776 0.0
C981 C 0.38375 0.64362 0.46828 0.0
C982 C 0.37978 0.64995 0.42481 0.0
H983 H 0.39677 0.607 0.51655 0.0
H984 H 0.37691 0.66443 0.49114 0.0
C985 C 0.38989 0.62212 0.39617 0.0
C986 C 0.4318 0.38253 0.42188 0.0
C987 C 0.44258 0.36245 0.45901 0.0
H988 H 0.39246 0.398 0.3638 0.0
C989 C 0.41899 0.3437 0.4649 0.0
H990 H 0.44938 0.397 0.41517 0.0
C991 C 0.38776 0.34364 0.43562 0.0
C992 C 0.37724 0.36241 0.39787 0.0
H993 H 0.42564 0.32766 0.49228 0.0
H994 H 0.37208 0.32781 0.4429 0.0
C995 C 0.39943 0.38265 0.39181 0.0
C996 C 0.65952 0.88274 0.61963 0.0
C997 C 0.62695 0.8774 0.63735 0.0
H998 H 0.71891 0.88531 0.63025 0.0
C999 C 0.6275 0.8744 0.68163 0.0
H1000 H 0.66081 0.88406 0.58568 0.0
C1001 C 0.66066 0.87547 0.7075 0.0
C1002 C 0.69455 0.87863 0.68937 0.0
H1003 H 0.60322 0.86952 0.69606 0.0
H1004 H 0.66116 0.87157 0.74112 0.0
C1005 C 0.69306 0.88304 0.6453 0.0
C1006 C 0.69568 0.30245 0.4024 0.0
C1007 C 0.67189 0.32804 0.43164 0.0
H1008 H 0.74093 0.28638 0.35424 0.0
C1009 C 0.67869 0.35798 0.43514 0.0
H1010 H 0.69275 0.27865 0.39908 0.0
C1011 C 0.70768 0.36227 0.40918 0.0
C1012 C 0.73018 0.33681 0.37919 0.0
H1013 H 0.66121 0.37839 0.45721 0.0
H1014 H 0.71173 0.3857 0.41191 0.0
C1015 C 0.72397 0.30682 0.37659 0.0
C1016 C 0.80424 0.73142 0.38168 0.0
C1017 C 0.80076 0.74552 0.42252 0.0
H1018 H 0.82605 0.72975 0.31965 0.0
C1019 C 0.82206 0.76563 0.43407 0.0
H1020 H 0.78844 0.71538 0.37266 0.0
C1021 C 0.84355 0.77416 0.40381 0.0
C1022 C 0.84429 0.76225 0.36181 0.0
H1023 H 0.81957 0.77655 0.46569 0.0
H1024 H 0.8563 0.79235 0.41253 0.0
C1025 C 0.8263 0.73931 0.3517 0.0
C1026 C 0.43866 0.84117 0.45539 0.0
C1027 C 0.45849 0.86326 0.45341 0.0
H1028 H 0.3956 0.82314 0.42676 0.0
C1029 C 0.44649 0.88677 0.42047 0.0
H1030 H 0.44722 0.82266 0.48036 0.0
C1031 C 0.41656 0.8869 0.38909 0.0
C1032 C 0.39831 0.86351 0.39033 0.0
H1033 H 0.46177 0.90363 0.4177 0.0
H1034 H 0.40886 0.90448 0.3632 0.0
C1035 C 0.4091 0.84128 0.42442 0.0
C1036 C 0.25324 0.45281 0.46735 0.0
C1037 C 0.26824 0.47781 0.4639 0.0
H1038 H 0.23217 0.4189 0.43479 0.0
C1039 C 0.2655 0.49282 0.42469 0.0
H1040 H 0.25477 0.44101 0.49734 0.0
C1041 C 0.25265 0.48001 0.38857 0.0
C1042 C 0.24205 0.45234 0.39149 0.0
H1043 H 0.27681 0.51225 0.42126 0.0
H1044 H 0.25477 0.48959 0.35807 0.0
C1045 C 0.23979 0.44041 0.43146 0.0
C1046 C 0.48456 0.3034 0.70324 0.0
C1047 C 0.47475 0.31598 0.66167 0.0
H1048 H 0.46024 0.29567 0.76162 0.0
C1049 C 0.43239 0.33071 0.6475 0.0
H1050 H 0.51719 0.29185 0.7149 0.0
C1051 C 0.4006 0.33264 0.67359 0.0
C1052 C 0.40972 0.3202 0.7151 0.0
H1053 H 0.42393 0.3396 0.61543 0.0
H1054 H 0.36859 0.34318 0.66032 0.0
C1055 C 0.45213 0.30574 0.73002 0.0
C1056 C 0.74767 0.59895 0.61117 0.0
C1057 C 0.70381 0.61921 0.60628 0.0
H1058 H 0.79726 0.55156 0.63104 0.0
C1059 C 0.67556 0.60653 0.61902 0.0
H1060 H 0.77002 0.6087 0.6028 0.0
C1061 C 0.69123 0.57348 0.63556 0.0
C1062 C 0.73527 0.55297 0.63936 0.0
H1063 H 0.64167 0.62205 0.61584 0.0
H1064 H 0.66908 0.56384 0.6449 0.0
C1065 C 0.76321 0.56625 0.6273 0.0
C1066 C 0.30343 0.61924 0.60476 0.0
C1067 C 0.34177 0.59057 0.61332 0.0
H1068 H 0.26819 0.67337 0.61128 0.0
C1069 C 0.37568 0.59509 0.63342 0.0
H1070 H 0.27695 0.61653 0.58887 0.0
C1071 C 0.37101 0.62777 0.64543 0.0
C1072 C 0.33233 0.65637 0.63762 0.0
H1073 H 0.40596 0.57347 0.63964 0.0
H1074 H 0.39744 0.63065 0.66117 0.0
C1075 C 0.29871 0.65184 0.61691 0.0
loop_
_geom_bond_atom_site_label_1
_geom_bond_atom_site_label_2
_geom_bond_distance
_geom_bond_site_symmetry_2
_ccdc_geom_bond_type
Cu0 N1 1.999 . S
Cu0 O6 1.974 . S
Cu0 N11 1.985 . S
Cu0 O20 1.959 1_455 S
N1 Cu0 1.999 . S
N1 C3 1.263 . S
N1 C5 1.389 . S
N2 C3 1.358 . S
N2 C4 1.400 . S
C3 N1 1.263 . S
C3 N2 1.358 . S
C3 H9 0.930 . S
C4 N2 1.400 . S
C4 C5 1.351 . S
C4 H21 0.930 . S
C5 N1 1.389 . S
C5 C4 1.351 . S
C5 H10 0.930 . S
O6 Cu0 1.974 . S
O6 C16 1.282 . S
C7 O8 1.261 . S
C7 O20 1.251 . S
O8 C7 1.261 . S
H9 C3 0.930 . S
H10 C5 0.930 . S
N11 Cu0 1.985 . S
N11 C13 1.335 1_455 S
N11 C14 1.390 . S
N12 C13 1.345 . S
N12 C15 1.336 . S
C13 N11 1.335 1_655 S
C13 N12 1.345 . S
C13 H18 0.930 . S
C14 N11 1.390 . S
C14 C15 1.346 1_455 S
C14 H19 0.930 . S
C15 N12 1.336 . S
C15 C14 1.346 1_655 S
C15 H22 0.929 . S
C16 O6 1.282 . S
C16 O17 1.216 . S
O17 C16 1.216 . S
H18 C13 0.930 . S
H19 C14 0.930 . S
O20 Cu0 1.959 1_655 S
O20 C7 1.251 . S
H21 C4 0.930 . S
H22 C15 0.929 . S
Cu23 N24 1.999 1_455 S
Cu23 O29 1.974 1_455 S
Cu23 N34 1.985 . S
Cu23 O43 1.959 . S
N24 Cu23 1.999 1_655 S
N24 C26 1.263 . S
N24 C28 1.389 1_655 S
N25 C26 1.358 . S
N25 C27 1.400 . S
C26 N24 1.263 . S
C26 N25 1.358 . S
C26 H32 0.930 . S
C27 N25 1.400 . S
C27 C28 1.351 1_655 S
C27 H44 0.930 . S
C28 N24 1.389 1_455 S
C28 C27 1.351 1_455 S
C28 H33 0.930 . S
O29 Cu23 1.974 1_655 S
O29 C39 1.282 . S
C30 O31 1.261 . S
C30 O43 1.251 . S
O31 C30 1.261 . S
H32 C26 0.930 . S
H33 C28 0.930 . S
N34 Cu23 1.985 . S
N34 C36 1.335 . S
N34 C37 1.390 . S
N35 C36 1.345 . S
N35 C38 1.336 . S
C36 N34 1.335 . S
C36 N35 1.345 . S
C36 H41 0.930 . S
C37 N34 1.390 . S
C37 C38 1.346 . S
C37 H42 0.930 . S
C38 N35 1.336 . S
C38 C37 1.346 . S
C38 H45 0.929 . S
C39 O29 1.282 . S
C39 O40 1.216 . S
O40 C39 1.216 . S
H41 C36 0.930 . S
H42 C37 0.930 . S
O43 Cu23 1.959 . S
O43 C30 1.251 . S
H44 C27 0.930 . S
H45 C38 0.929 . S
Cu46 N47 1.999 1_554 S
Cu46 O52 1.974 . S
Cu46 N57 1.985 . S
Cu46 O66 1.959 1_554 S
N47 Cu46 1.999 1_556 S
N47 C49 1.263 . S
N47 C51 1.389 . S
N48 C49 1.358 . S
N48 C50 1.400 . S
C49 N47 1.263 . S
C49 N48 1.358 . S
C49 H55 0.929 . S
C50 N48 1.400 . S
C50 C51 1.351 . S
C50 H67 0.930 . S
C51 N47 1.389 . S
C51 C50 1.351 . S
C51 H56 0.930 . S
O52 Cu46 1.974 . S
O52 C62 1.282 . S
C53 O54 1.261 . S
C53 O66 1.251 . S
O54 C53 1.261 . S
H55 C49 0.929 . S
H56 C51 0.930 . S
N57 Cu46 1.985 . S
N57 C59 1.335 . S
N57 C60 1.390 . S
N58 C59 1.345 . S
N58 C61 1.336 . S
C59 N57 1.335 . S
C59 N58 1.345 . S
C59 H64 0.930 . S
C60 N57 1.390 . S
C60 C61 1.346 . S
C60 H65 0.930 . S
C61 N58 1.336 . S
C61 C60 1.346 . S
C61 H68 0.929 . S
C62 O52 1.282 . S
C62 O63 1.216 . S
O63 C62 1.216 . S
H64 C59 0.930 . S
H65 C60 0.930 . S
O66 Cu46 1.959 1_556 S
O66 C53 1.251 . S
H67 C50 0.930 . S
H68 C61 0.929 . S
Cu69 N70 1.999 1_554 S
Cu69 O75 1.974 . S
Cu69 N80 1.985 . S
Cu69 O89 1.959 1_554 S
N70 Cu69 1.999 1_556 S
N70 C72 1.263 . S
N70 C74 1.389 . S
N71 C72 1.358 . S
N71 C73 1.400 . S
C72 N70 1.263 . S
C72 N71 1.358 . S
C72 H78 0.930 . S
C73 N71 1.400 . S
C73 C74 1.351 . S
C73 H90 0.930 . S
C74 N70 1.389 . S
C74 C73 1.351 . S
C74 H79 0.930 . S
O75 Cu69 1.974 . S
O75 C85 1.282 . S
C76 O77 1.261 . S
C76 O89 1.251 . S
O77 C76 1.261 . S
H78 C72 0.930 . S
H79 C74 0.930 . S
N80 Cu69 1.985 . S
N80 C82 1.335 1_455 S
N80 C83 1.390 . S
N81 C82 1.345 . S
N81 C84 1.330 1_655 S
C82 N80 1.335 1_655 S
C82 N81 1.345 . S
C82 H87 0.930 . S
C83 N80 1.390 . S
C83 C84 1.354 . S
C83 H88 0.930 . S
C84 N81 1.330 1_455 S
C84 C83 1.354 . S
C84 H91 0.928 . S
C85 O75 1.282 . S
C85 O86 1.216 . S
O86 C85 1.216 . S
H87 C82 0.930 . S
H88 C83 0.930 . S
O89 Cu69 1.959 1_556 S
O89 C76 1.251 . S
H90 C73 0.930 . S
H91 C84 0.928 . S
Cu92 N93 1.999 1_554 S
Cu92 O98 1.974 . S
Cu92 N103 1.985 1_545 S
Cu92 O112 1.959 1_544 S
N93 Cu92 1.999 1_556 S
N93 C95 1.263 . S
N93 C97 1.389 . S
N94 C95 1.358 . S
N94 C96 1.400 . S
C95 N93 1.263 . S
C95 N94 1.358 . S
C95 H101 0.930 . S
C96 N94 1.400 . S
C96 C97 1.351 . S
C96 H113 0.930 . S
C97 N93 1.389 . S
C97 C96 1.351 . S
C97 H102 0.930 . S
O98 Cu92 1.974 . S
O98 C108 1.282 . S
C99 O100 1.261 . S
C99 O112 1.251 . S
O100 C99 1.261 . S
H101 C95 0.930 . S
H102 C97 0.930 . S
N103 Cu92 1.985 1_565 S
N103 C105 1.335 . S
N103 C106 1.390 . S
N104 C105 1.345 . S
N104 C107 1.336 . S
C105 N103 1.335 . S
C105 N104 1.345 . S
C105 H110 0.930 . S
C106 N103 1.390 . S
C106 C107 1.346 . S
C106 H111 0.930 . S
C107 N104 1.336 . S
C107 C106 1.346 . S
C107 H114 0.929 . S
C108 O98 1.282 . S
C108 O109 1.216 . S
O109 C108 1.216 . S
H110 C105 0.930 . S
H111 C106 0.930 . S
O112 Cu92 1.959 1_566 S
O112 C99 1.251 . S
H113 C96 0.930 . S
H114 C107 0.929 . S
Cu115 N116 1.999 1_454 S
Cu115 O121 1.974 1_455 S
Cu115 N126 1.985 . S
Cu115 O135 1.959 1_554 S
N116 Cu115 1.999 1_656 S
N116 C118 1.263 . S
N116 C120 1.389 . S
N117 C118 1.358 . S
N117 C119 1.400 . S
C118 N116 1.263 . S
C118 N117 1.358 . S
C118 H124 0.930 . S
C119 N117 1.400 . S
C119 C120 1.351 . S
C119 H136 0.930 . S
C120 N116 1.389 . S
C120 C119 1.351 . S
C120 H125 0.930 1_655 S
O121 Cu115 1.974 1_655 S
O121 C131 1.282 . S
C122 O123 1.261 . S
C122 O135 1.251 . S
O123 C122 1.261 . S
H124 C118 0.930 . S
H125 C120 0.930 1_455 S
N126 Cu115 1.985 . S
N126 C128 1.335 . S
N126 C129 1.390 . S
N127 C128 1.345 . S
N127 C130 1.336 . S
C128 N126 1.335 . S
C128 N127 1.345 . S
C128 H133 0.930 . S
C129 N126 1.390 . S
C129 C130 1.346 . S
C129 H134 0.930 . S
C130 N127 1.336 . S
C130 C129 1.346 . S
C130 H137 0.929 . S
C131 O121 1.282 . S
C131 O132 1.216 . S
O132 C131 1.216 . S
H133 C128 0.930 . S
H134 C129 0.930 . S
O135 Cu115 1.959 1_556 S
O135 C122 1.251 . S
H136 C119 0.930 . S
H137 C130 0.929 . S
Cu138 N139 1.999 . S
Cu138 O144 1.974 . S
Cu138 N149 1.985 . S
Cu138 O158 1.959 . S
N139 Cu138 1.999 . S
N139 C141 1.263 . S
N139 C143 1.389 . S
N140 C141 1.358 . S
N140 C142 1.400 . S
C141 N139 1.263 . S
C141 N140 1.358 . S
C141 H147 0.930 . S
C142 N140 1.400 . S
C142 C143 1.351 . S
C142 H159 0.930 . S
C143 N139 1.389 . S
C143 C142 1.351 . S
C143 H148 0.930 . S
O144 Cu138 1.974 . S
O144 C154 1.282 . S
C145 O146 1.261 . S
C145 O158 1.251 . S
O146 C145 1.261 . S
H147 C141 0.930 . S
H148 C143 0.930 . S
N149 Cu138 1.985 . S
N149 C151 1.335 . S
N149 C152 1.390 . S
N150 C151 1.345 . S
N150 C153 1.336 . S
C151 N149 1.335 . S
C151 N150 1.345 . S
C151 H156 0.930 . S
C152 N149 1.390 . S
C152 C153 1.346 . S
C152 H157 0.930 . S
C153 N150 1.336 . S
C153 C152 1.346 . S
C153 H160 0.929 . S
C154 O144 1.282 . S
C154 O155 1.216 . S
O155 C154 1.216 . S
H156 C151 0.930 . S
H157 C152 0.930 . S
O158 Cu138 1.959 . S
O158 C145 1.251 . S
H159 C142 0.930 . S
H160 C153 0.929 . S
Cu161 N162 1.999 . S
Cu161 O167 1.974 . S
Cu161 N172 1.985 . S
Cu161 O181 1.959 . S
N162 Cu161 1.999 . S
N162 C164 1.263 . S
N162 C166 1.389 . S
N163 C164 1.358 . S
N163 C165 1.400 . S
C164 N162 1.263 . S
C164 N163 1.358 . S
C164 H170 0.930 . S
C165 N163 1.400 . S
C165 C166 1.351 . S
C165 H182 0.930 . S
C166 N162 1.389 . S
C166 C165 1.351 . S
C166 H171 0.930 . S
O167 Cu161 1.974 . S
O167 C177 1.282 . S
C168 O169 1.261 . S
C168 O181 1.251 . S
O169 C168 1.261 . S
H170 C164 0.930 . S
H171 C166 0.930 . S
N172 Cu161 1.985 . S
N172 C174 1.335 . S
N172 C175 1.390 . S
N173 C174 1.345 . S
N173 C176 1.336 . S
C174 N172 1.335 . S
C174 N173 1.345 . S
C174 H179 0.930 . S
C175 N172 1.390 . S
C175 C176 1.346 . S
C175 H180 0.930 . S
C176 N173 1.336 . S
C176 C175 1.346 . S
C176 H183 0.929 . S
C177 O167 1.282 . S
C177 O178 1.216 . S
O178 C177 1.216 . S
H179 C174 0.930 . S
H180 C175 0.930 . S
O181 Cu161 1.959 . S
O181 C168 1.251 . S
H182 C165 0.930 . S
H183 C176 0.929 . S
Cu184 N185 1.999 . S
Cu184 O190 1.974 . S
Cu184 N195 1.985 . S
Cu184 O204 1.959 . S
N185 Cu184 1.999 . S
N185 C187 1.263 . S
N185 C189 1.389 . S
N186 C187 1.358 . S
N186 C188 1.400 . S
C187 N185 1.263 . S
C187 N186 1.358 . S
C187 H193 0.930 . S
C188 N186 1.400 . S
C188 C189 1.351 . S
C188 H205 0.930 . S
C189 N185 1.389 . S
C189 C188 1.351 . S
C189 H194 0.930 . S
O190 Cu184 1.974 . S
O190 C200 1.282 . S
C191 O192 1.261 . S
C191 O204 1.251 . S
O192 C191 1.261 . S
H193 C187 0.930 . S
H194 C189 0.930 . S
N195 Cu184 1.985 . S
N195 C197 1.335 . S
N195 C198 1.390 . S
N196 C197 1.345 . S
N196 C199 1.336 . S
C197 N195 1.335 . S
C197 N196 1.345 . S
C197 H202 0.930 . S
C198 N195 1.390 . S
C198 C199 1.346 . S
C198 H203 0.930 . S
C199 N196 1.336 . S
C199 C198 1.346 . S
C199 H206 0.929 . S
C200 O190 1.282 . S
C200 O201 1.216 . S
O201 C200 1.216 . S
H202 C197 0.930 . S
H203 C198 0.930 . S
O204 Cu184 1.959 . S
O204 C191 1.251 . S
H205 C188 0.930 . S
H206 C199 0.929 . S
Cu207 N208 1.999 . S
Cu207 O213 1.974 . S
Cu207 N218 1.985 . S
Cu207 O227 1.959 . S
N208 Cu207 1.999 . S
N208 C210 1.263 . S
N208 C212 1.389 . S
N209 C210 1.358 . S
N209 C211 1.400 . S
C210 N208 1.263 . S
C210 N209 1.358 . S
C210 H216 0.930 . S
C211 N209 1.400 . S
C211 C212 1.351 . S
C211 H228 0.930 . S
C212 N208 1.389 . S
C212 C211 1.351 . S
C212 H217 0.930 . S
O213 Cu207 1.974 . S
O213 C223 1.282 . S
C214 O215 1.261 . S
C214 O227 1.251 . S
O215 C214 1.261 . S
H216 C210 0.930 . S
H217 C212 0.930 . S
N218 Cu207 1.985 . S
N218 C220 1.335 . S
N218 C221 1.390 . S
N219 C220 1.345 . S
N219 C222 1.336 . S
C220 N218 1.335 . S
C220 N219 1.345 . S
C220 H225 0.930 . S
C221 N218 1.390 . S
C221 C222 1.346 . S
C221 H226 0.930 . S
C222 N219 1.336 . S
C222 C221 1.346 . S
C222 H229 0.929 . S
C223 O213 1.282 . S
C223 O224 1.216 . S
O224 C223 1.216 . S
H225 C220 0.930 . S
H226 C221 0.930 . S
O227 Cu207 1.959 . S
O227 C214 1.251 . S
H228 C211 0.930 . S
H229 C222 0.929 . S
Cu230 N231 1.999 . S
Cu230 O236 1.974 . S
Cu230 N241 1.985 . S
Cu230 O250 1.959 . S
N231 Cu230 1.999 . S
N231 C233 1.263 . S
N231 C235 1.389 . S
N232 C233 1.358 . S
N232 C234 1.400 . S
C233 N231 1.263 . S
C233 N232 1.358 . S
C233 H239 0.930 . S
C234 N232 1.400 . S
C234 C235 1.351 . S
C234 H251 0.930 . S
C235 N231 1.389 . S
C235 C234 1.351 . S
C235 H240 0.930 . S
O236 Cu230 1.974 . S
O236 C246 1.282 . S
C237 O238 1.261 . S
C237 O250 1.251 . S
O238 C237 1.261 . S
H239 C233 0.930 . S
H240 C235 0.930 . S
N241 Cu230 1.985 . S
N241 C243 1.335 . S
N241 C244 1.390 . S
N242 C243 1.345 . S
N242 C245 1.336 . S
C243 N241 1.335 . S
C243 N242 1.345 . S
C243 H248 0.930 . S
C244 N241 1.390 . S
C244 C245 1.346 . S
C244 H249 0.930 . S
C245 N242 1.336 . S
C245 C244 1.346 . S
C245 H252 0.929 . S
C246 O236 1.282 . S
C246 O247 1.216 . S
O247 C246 1.216 . S
H248 C243 0.930 . S
H249 C244 0.930 . S
O250 Cu230 1.959 . S
O250 C237 1.251 . S
H251 C234 0.930 . S
H252 C245 0.929 . S
Cu253 N254 1.999 . S
Cu253 O259 1.974 . S
Cu253 N264 1.985 . S
Cu253 O273 1.959 . S
N254 Cu253 1.999 . S
N254 C256 1.263 . S
N254 C258 1.389 . S
N255 C256 1.358 . S
N255 C257 1.400 . S
C256 N254 1.263 . S
C256 N255 1.358 . S
C256 H262 0.930 . S
C257 N255 1.400 . S
C257 C258 1.351 . S
C257 H274 0.930 . S
C258 N254 1.389 . S
C258 C257 1.351 . S
C258 H263 0.930 . S
O259 Cu253 1.974 . S
O259 C269 1.282 . S
C260 O261 1.261 . S
C260 O273 1.251 . S
O261 C260 1.261 . S
H262 C256 0.930 . S
H263 C258 0.930 . S
N264 Cu253 1.985 . S
N264 C266 1.335 . S
N264 C267 1.390 . S
N265 C266 1.345 . S
N265 C268 1.336 . S
C266 N264 1.335 . S
C266 N265 1.345 . S
C266 H271 0.930 . S
C267 N264 1.390 . S
C267 C268 1.346 . S
C267 H272 0.930 . S
C268 N265 1.336 . S
C268 C267 1.346 . S
C268 H275 0.929 . S
C269 O259 1.282 . S
C269 O270 1.216 . S
O270 C269 1.216 . S
H271 C266 0.930 . S
H272 C267 0.930 . S
O273 Cu253 1.959 . S
O273 C260 1.251 . S
H274 C257 0.930 . S
H275 C268 0.929 . S
Tb276 C278 2.809 . S
Tb276 O296 2.484 . S
Tb276 O297 2.440 . S
Tb276 O298 2.658 . S
Tb276 O299 2.409 . S
Tb276 O300 2.378 . S
Tb276 O304 2.325 . S
Tb276 O307 2.341 . S
Tb277 C287 2.809 . S
Tb277 O298 2.325 . S
Tb277 O301 2.341 . S
Tb277 O302 2.484 . S
Tb277 O303 2.440 . S
Tb277 O304 2.658 . S
Tb277 O305 2.409 . S
Tb277 O306 2.378 . S
C278 Tb276 2.809 . S
C278 C279 1.514 . S
C278 O296 1.248 . S
C278 O297 1.266 . S
C279 C278 1.514 . S
C279 C280 1.359 . S
C279 C284 1.348 . S
C280 C279 1.359 . S
C280 C281 1.380 . S
C280 H308 0.929 . S
C281 C280 1.380 . S
C281 C282 1.347 . S
C281 H309 0.931 . S
C282 C281 1.347 . S
C282 C283 1.369 . S
C283 C282 1.369 . S
C283 C284 1.408 . S
C283 H310 0.930 . S
C284 C279 1.348 . S
C284 C283 1.408 . S
C284 H311 0.930 . S
C285 O298 1.281 . S
C285 O299 1.254 . S
C286 O300 1.236 . S
C286 O301 1.266 . S
C287 Tb277 2.809 . S
C287 C288 1.514 . S
C287 O302 1.248 . S
C287 O303 1.266 . S
C288 C287 1.514 . S
C288 C289 1.359 . S
C288 C293 1.348 . S
C289 C288 1.359 . S
C289 C290 1.380 . S
C289 H312 0.929 . S
C290 C289 1.380 . S
C290 C291 1.347 . S
C290 H313 0.931 . S
C291 C290 1.347 . S
C291 C292 1.369 . S
C292 C291 1.369 . S
C292 C293 1.408 . S
C292 H314 0.930 . S
C293 C288 1.348 . S
C293 C292 1.408 . S
C293 H315 0.930 . S
C294 O304 1.281 . S
C294 O305 1.254 . S
C295 O306 1.236 . S
C295 O307 1.266 . S
O296 Tb276 2.484 . S
O296 C278 1.248 . S
O297 Tb276 2.440 . S
O297 C278 1.266 . S
O298 Tb276 2.658 . S
O298 Tb277 2.325 . S
O298 C285 1.281 . S
O299 Tb276 2.409 . S
O299 C285 1.254 . S
O300 Tb276 2.378 . S
O300 C286 1.236 . S
O301 Tb277 2.341 . S
O301 C286 1.266 . S
O302 Tb277 2.484 . S
O302 C287 1.248 . S
O303 Tb277 2.440 . S
O303 C287 1.266 . S
O304 Tb276 2.325 . S
O304 Tb277 2.658 . S
O304 C294 1.281 . S
O305 Tb277 2.409 . S
O305 C294 1.254 . S
O306 Tb277 2.378 . S
O306 C295 1.236 . S
O307 Tb276 2.341 . S
O307 C295 1.266 . S
H308 C280 0.929 . S
H309 C281 0.931 . S
H310 C283 0.930 . S
H311 C284 0.930 . S
H312 C289 0.929 . S
H313 C290 0.931 . S
H314 C292 0.930 . S
H315 C293 0.930 . S
Tb316 C318 2.809 . S
Tb316 O336 2.484 . S
Tb316 O337 2.440 . S
Tb316 O338 2.658 . S
Tb316 O339 2.409 . S
Tb316 O340 2.378 . S
Tb316 O344 2.325 . S
Tb316 O347 2.341 . S
Tb317 C327 2.809 . S
Tb317 O338 2.325 . S
Tb317 O341 2.341 . S
Tb317 O342 2.484 . S
Tb317 O343 2.440 . S
Tb317 O344 2.658 . S
Tb317 O345 2.409 . S
Tb317 O346 2.378 . S
C318 Tb316 2.809 . S
C318 C319 1.514 . S
C318 O336 1.248 . S
C318 O337 1.266 . S
C319 C318 1.514 . S
C319 C320 1.359 . S
C319 C324 1.348 . S
C320 C319 1.359 . S
C320 C321 1.380 . S
C320 H348 0.929 . S
C321 C320 1.380 . S
C321 C322 1.347 . S
C321 H349 0.931 . S
C322 C321 1.347 . S
C322 C323 1.369 . S
C323 C322 1.369 . S
C323 C324 1.408 . S
C323 H350 0.930 . S
C324 C319 1.348 . S
C324 C323 1.408 . S
C324 H351 0.930 . S
C325 O338 1.281 . S
C325 O339 1.254 . S
C326 O340 1.236 . S
C326 O341 1.266 . S
C327 Tb317 2.809 . S
C327 C328 1.514 . S
C327 O342 1.248 . S
C327 O343 1.266 . S
C328 C327 1.514 . S
C328 C329 1.359 . S
C328 C333 1.348 . S
C329 C328 1.359 . S
C329 C330 1.380 . S
C329 H352 0.929 . S
C330 C329 1.380 . S
C330 C331 1.347 . S
C330 H353 0.931 . S
C331 C330 1.347 . S
C331 C332 1.369 . S
C332 C331 1.369 . S
C332 C333 1.408 . S
C332 H354 0.930 . S
C333 C328 1.348 . S
C333 C332 1.408 . S
C333 H355 0.930 . S
C334 O344 1.281 . S
C334 O345 1.254 . S
C335 O346 1.236 . S
C335 O347 1.266 . S
O336 Tb316 2.484 . S
O336 C318 1.248 . S
O337 Tb316 2.440 . S
O337 C318 1.266 . S
O338 Tb316 2.658 . S
O338 Tb317 2.325 . S
O338 C325 1.281 . S
O339 Tb316 2.409 . S
O339 C325 1.254 . S
O340 Tb316 2.378 . S
O340 C326 1.236 . S
O341 Tb317 2.341 . S
O341 C326 1.266 . S
O342 Tb317 2.484 . S
O342 C327 1.248 . S
O343 Tb317 2.440 . S
O343 C327 1.266 . S
O344 Tb316 2.325 . S
O344 Tb317 2.658 . S
O344 C334 1.281 . S
O345 Tb317 2.409 . S
O345 C334 1.254 . S
O346 Tb317 2.378 . S
O346 C335 1.236 . S
O347 Tb316 2.341 . S
O347 C335 1.266 . S
H348 C320 0.929 . S
H349 C321 0.931 . S
H350 C323 0.930 . S
H351 C324 0.930 . S
H352 C329 0.929 . S
H353 C330 0.931 . S
H354 C332 0.930 . S
H355 C333 0.930 . S
Tb356 C358 2.809 . S
Tb356 O376 2.484 . S
Tb356 O377 2.440 . S
Tb356 O378 2.658 . S
Tb356 O379 2.409 . S
Tb356 O380 2.378 . S
Tb356 O384 2.325 . S
Tb356 O387 2.341 . S
Tb357 C367 2.809 . S
Tb357 O378 2.325 . S
Tb357 O381 2.341 . S
Tb357 O382 2.484 . S
Tb357 O383 2.440 . S
Tb357 O384 2.658 . S
Tb357 O385 2.409 . S
Tb357 O386 2.378 . S
C358 Tb356 2.809 . S
C358 C359 1.514 . S
C358 O376 1.248 . S
C358 O377 1.266 . S
C359 C358 1.514 . S
C359 C360 1.359 . S
C359 C364 1.348 . S
C360 C359 1.359 . S
C360 C361 1.380 . S
C360 H388 0.929 . S
C361 C360 1.380 . S
C361 C362 1.347 . S
C361 H389 0.931 . S
C362 C361 1.347 . S
C362 C363 1.369 . S
C363 C362 1.369 . S
C363 C364 1.408 . S
C363 H390 0.930 . S
C364 C359 1.348 . S
C364 C363 1.408 . S
C364 H391 0.930 . S
C365 O378 1.281 . S
C365 O379 1.254 . S
C366 O380 1.236 . S
C366 O381 1.266 . S
C367 Tb357 2.809 . S
C367 C368 1.514 . S
C367 O382 1.248 . S
C367 O383 1.266 . S
C368 C367 1.514 . S
C368 C369 1.359 . S
C368 C373 1.348 . S
C369 C368 1.359 . S
C369 C370 1.380 . S
C369 H392 0.929 . S
C370 C369 1.380 . S
C370 C371 1.347 . S
C370 H393 0.931 . S
C371 C370 1.347 . S
C371 C372 1.369 . S
C372 C371 1.369 . S
C372 C373 1.408 . S
C372 H394 0.930 . S
C373 C368 1.348 . S
C373 C372 1.408 . S
C373 H395 0.930 . S
C374 O384 1.281 . S
C374 O385 1.254 . S
C375 O386 1.236 . S
C375 O387 1.266 . S
O376 Tb356 2.484 . S
O376 C358 1.248 . S
O377 Tb356 2.440 . S
O377 C358 1.266 . S
O378 Tb356 2.658 . S
O378 Tb357 2.325 . S
O378 C365 1.281 . S
O379 Tb356 2.409 . S
O379 C365 1.254 . S
O380 Tb356 2.378 . S
O380 C366 1.236 . S
O381 Tb357 2.341 . S
O381 C366 1.266 . S
O382 Tb357 2.484 . S
O382 C367 1.248 . S
O383 Tb357 2.440 . S
O383 C367 1.266 . S
O384 Tb356 2.325 . S
O384 Tb357 2.658 . S
O384 C374 1.281 . S
O385 Tb357 2.409 . S
O385 C374 1.254 . S
O386 Tb357 2.378 . S
O386 C375 1.236 . S
O387 Tb356 2.341 . S
O387 C375 1.266 . S
H388 C360 0.929 . S
H389 C361 0.931 . S
H390 C363 0.930 . S
H391 C364 0.930 . S
H392 C369 0.929 . S
H393 C370 0.931 . S
H394 C372 0.930 . S
H395 C373 0.930 . S
Tb396 C398 2.809 . S
Tb396 O416 2.484 . S
Tb396 O417 2.440 . S
Tb396 O418 2.658 . S
Tb396 O419 2.409 . S
Tb396 O420 2.378 . S
Tb396 O424 2.325 . S
Tb396 O427 2.341 . S
Tb397 C407 2.809 . S
Tb397 O418 2.325 . S
Tb397 O421 2.341 . S
Tb397 O422 2.484 . S
Tb397 O423 2.440 . S
Tb397 O424 2.658 . S
Tb397 O425 2.409 . S
Tb397 O426 2.378 . S
C398 Tb396 2.809 . S
C398 C399 1.514 . S
C398 O416 1.248 . S
C398 O417 1.266 . S
C399 C398 1.514 . S
C399 C400 1.359 . S
C399 C404 1.348 . S
C400 C399 1.359 . S
C400 C401 1.380 . S
C400 H428 0.929 . S
C401 C400 1.380 . S
C401 C402 1.347 . S
C401 H429 0.931 . S
C402 C401 1.347 . S
C402 C403 1.369 . S
C403 C402 1.369 . S
C403 C404 1.408 . S
C403 H430 0.930 . S
C404 C399 1.348 . S
C404 C403 1.408 . S
C404 H431 0.930 . S
C405 O418 1.281 . S
C405 O419 1.254 . S
C406 O420 1.236 . S
C406 O421 1.266 . S
C407 Tb397 2.809 . S
C407 C408 1.514 . S
C407 O422 1.248 . S
C407 O423 1.266 . S
C408 C407 1.514 . S
C408 C409 1.359 . S
C408 C413 1.348 . S
C409 C408 1.359 . S
C409 C410 1.380 1_565 S
C409 H432 0.929 . S
C410 C409 1.380 1_545 S
C410 C411 1.347 . S
C410 H433 0.931 . S
C411 C410 1.347 . S
C411 C412 1.369 1_545 S
C412 C411 1.369 1_565 S
C412 C413 1.408 . S
C412 H434 0.930 . S
C413 C408 1.348 . S
C413 C412 1.408 . S
C413 H435 0.930 . S
C414 O424 1.281 . S
C414 O425 1.254 . S
C415 O426 1.236 . S
C415 O427 1.266 . S
O416 Tb396 2.484 . S
O416 C398 1.248 . S
O417 Tb396 2.440 . S
O417 C398 1.266 . S
O418 Tb396 2.658 . S
O418 Tb397 2.325 . S
O418 C405 1.281 . S
O419 Tb396 2.409 . S
O419 C405 1.254 . S
O420 Tb396 2.378 . S
O420 C406 1.236 . S
O421 Tb397 2.341 . S
O421 C406 1.266 . S
O422 Tb397 2.484 . S
O422 C407 1.248 . S
O423 Tb397 2.440 . S
O423 C407 1.266 . S
O424 Tb396 2.325 . S
O424 Tb397 2.658 . S
O424 C414 1.281 . S
O425 Tb397 2.409 . S
O425 C414 1.254 . S
O426 Tb397 2.378 . S
O426 C415 1.236 . S
O427 Tb396 2.341 . S
O427 C415 1.266 . S
H428 C400 0.929 . S
H429 C401 0.931 . S
H430 C403 0.930 . S
H431 C404 0.930 . S
H432 C409 0.929 . S
H433 C410 0.931 . S
H434 C412 0.930 . S
H435 C413 0.930 . S
Tb436 C438 2.809 . S
Tb436 O456 2.484 . S
Tb436 O457 2.440 . S
Tb436 O458 2.658 . S
Tb436 O459 2.409 . S
Tb436 O460 2.378 . S
Tb436 O464 2.325 . S
Tb436 O467 2.341 . S
Tb437 C447 2.809 . S
Tb437 O458 2.325 . S
Tb437 O461 2.341 . S
Tb437 O462 2.484 . S
Tb437 O463 2.440 . S
Tb437 O464 2.658 . S
Tb437 O465 2.409 . S
Tb437 O466 2.378 . S
C438 Tb436 2.809 . S
C438 C439 1.514 . S
C438 O456 1.248 . S
C438 O457 1.266 . S
C439 C438 1.514 . S
C439 C440 1.359 . S
C439 C444 1.348 . S
C440 C439 1.359 . S
C440 C441 1.380 . S
C440 H468 0.929 . S
C441 C440 1.380 . S
C441 C442 1.347 . S
C441 H469 0.931 1_565 S
C442 C441 1.347 . S
C442 C443 1.369 . S
C443 C442 1.369 . S
C443 C444 1.408 . S
C443 H470 0.930 . S
C444 C439 1.348 . S
C444 C443 1.408 . S
C444 H471 0.930 . S
C445 O458 1.281 . S
C445 O459 1.254 . S
C446 O460 1.236 . S
C446 O461 1.266 . S
C447 Tb437 2.809 . S
C447 C448 1.514 . S
C447 O462 1.248 . S
C447 O463 1.266 . S
C448 C447 1.514 . S
C448 C449 1.359 . S
C448 C453 1.348 . S
C449 C448 1.359 . S
C449 C450 1.380 . S
C449 H472 0.929 . S
C450 C449 1.380 . S
C450 C451 1.347 . S
C450 H473 0.931 . S
C451 C450 1.347 . S
C451 C452 1.369 . S
C452 C451 1.369 . S
C452 C453 1.408 . S
C452 H474 0.930 . S
C453 C448 1.348 . S
C453 C452 1.408 . S
C453 H475 0.930 . S
C454 O464 1.281 . S
C454 O465 1.254 . S
C455 O466 1.236 . S
C455 O467 1.266 . S
O456 Tb436 2.484 . S
O456 C438 1.248 . S
O457 Tb436 2.440 . S
O457 C438 1.266 . S
O458 Tb436 2.658 . S
O458 Tb437 2.325 . S
O458 C445 1.281 . S
O459 Tb436 2.409 . S
O459 C445 1.254 . S
O460 Tb436 2.378 . S
O460 C446 1.236 . S
O461 Tb437 2.341 . S
O461 C446 1.266 . S
O462 Tb437 2.484 . S
O462 C447 1.248 . S
O463 Tb437 2.440 . S
O463 C447 1.266 . S
O464 Tb436 2.325 . S
O464 Tb437 2.658 . S
O464 C454 1.281 . S
O465 Tb437 2.409 . S
O465 C454 1.254 . S
O466 Tb437 2.378 . S
O466 C455 1.236 . S
O467 Tb436 2.341 . S
O467 C455 1.266 . S
H468 C440 0.929 . S
H469 C441 0.931 1_545 S
H470 C443 0.930 . S
H471 C444 0.930 . S
H472 C449 0.929 . S
H473 C450 0.931 . S
H474 C452 0.930 . S
H475 C453 0.930 . S
Tb476 C478 2.809 . S
Tb476 O496 2.484 . S
Tb476 O497 2.440 . S
Tb476 O498 2.658 . S
Tb476 O499 2.409 . S
Tb476 O500 2.378 . S
Tb476 O504 2.325 . S
Tb476 O507 2.341 . S
Tb477 C487 2.809 . S
Tb477 O498 2.325 . S
Tb477 O501 2.341 . S
Tb477 O502 2.484 . S
Tb477 O503 2.440 . S
Tb477 O504 2.658 . S
Tb477 O505 2.409 . S
Tb477 O506 2.378 . S
C478 Tb476 2.809 . S
C478 C479 1.514 . S
C478 O496 1.248 . S
C478 O497 1.266 . S
C479 C478 1.514 . S
C479 C480 1.359 . S
C479 C484 1.348 . S
C480 C479 1.359 . S
C480 C481 1.380 . S
C480 H508 0.929 . S
C481 C480 1.380 . S
C481 C482 1.347 . S
C481 H509 0.931 . S
C482 C481 1.347 . S
C482 C483 1.369 . S
C483 C482 1.369 . S
C483 C484 1.408 . S
C483 H510 0.930 . S
C484 C479 1.348 . S
C484 C483 1.408 . S
C484 H511 0.930 . S
C485 O498 1.281 . S
C485 O499 1.254 . S
C486 O500 1.236 . S
C486 O501 1.266 . S
C487 Tb477 2.809 . S
C487 C488 1.514 . S
C487 O502 1.248 . S
C487 O503 1.266 . S
C488 C487 1.514 . S
C488 C489 1.359 . S
C488 C493 1.348 . S
C489 C488 1.359 . S
C489 C490 1.380 . S
C489 H512 0.929 . S
C490 C489 1.380 . S
C490 C491 1.347 . S
C490 H513 0.931 . S
C491 C490 1.347 . S
C491 C492 1.369 . S
C492 C491 1.369 . S
C492 C493 1.408 . S
C492 H514 0.930 . S
C493 C488 1.348 . S
C493 C492 1.408 . S
C493 H515 0.930 . S
C494 O504 1.281 . S
C494 O505 1.254 . S
C495 O506 1.236 . S
C495 O507 1.266 . S
O496 Tb476 2.484 . S
O496 C478 1.248 . S
O497 Tb476 2.440 . S
O497 C478 1.266 . S
O498 Tb476 2.658 . S
O498 Tb477 2.325 . S
O498 C485 1.281 . S
O499 Tb476 2.409 . S
O499 C485 1.254 . S
O500 Tb476 2.378 . S
O500 C486 1.236 . S
O501 Tb477 2.341 . S
O501 C486 1.266 . S
O502 Tb477 2.484 . S
O502 C487 1.248 . S
O503 Tb477 2.440 . S
O503 C487 1.266 . S
O504 Tb476 2.325 . S
O504 Tb477 2.658 . S
O504 C494 1.281 . S
O505 Tb477 2.409 . S
O505 C494 1.254 . S
O506 Tb477 2.378 . S
O506 C495 1.236 . S
O507 Tb476 2.341 . S
O507 C495 1.266 . S
H508 C480 0.929 . S
H509 C481 0.931 . S
H510 C483 0.930 . S
H511 C484 0.930 . S
H512 C489 0.929 . S
H513 C490 0.931 . S
H514 C492 0.930 . S
H515 C493 0.930 . S
Tb516 C518 2.809 . S
Tb516 O536 2.484 . S
Tb516 O537 2.440 . S
Tb516 O538 2.658 . S
Tb516 O539 2.409 . S
Tb516 O540 2.378 . S
Tb516 O544 2.325 . S
Tb516 O547 2.341 . S
Tb517 C527 2.809 . S
Tb517 O538 2.325 . S
Tb517 O541 2.341 . S
Tb517 O542 2.484 . S
Tb517 O543 2.440 . S
Tb517 O544 2.658 . S
Tb517 O545 2.409 . S
Tb517 O546 2.378 . S
C518 Tb516 2.809 . S
C518 C519 1.514 . S
C518 O536 1.248 . S
C518 O537 1.266 . S
C519 C518 1.514 . S
C519 C520 1.359 . S
C519 C524 1.348 . S
C520 C519 1.359 . S
C520 C521 1.380 . S
C520 H548 0.929 . S
C521 C520 1.380 . S
C521 C522 1.347 . S
C521 H549 0.931 . S
C522 C521 1.347 . S
C522 C523 1.369 . S
C523 C522 1.369 . S
C523 C524 1.408 . S
C523 H550 0.930 . S
C524 C519 1.348 . S
C524 C523 1.408 . S
C524 H551 0.930 . S
C525 O538 1.281 . S
C525 O539 1.254 . S
C526 O540 1.236 . S
C526 O541 1.266 . S
C527 Tb517 2.809 . S
C527 C528 1.514 . S
C527 O542 1.248 . S
C527 O543 1.266 . S
C528 C527 1.514 . S
C528 C529 1.359 . S
C528 C533 1.348 . S
C529 C528 1.359 . S
C529 C530 1.380 . S
C529 H552 0.929 . S
C530 C529 1.380 . S
C530 C531 1.347 . S
C530 H553 0.931 . S
C531 C530 1.347 . S
C531 C532 1.369 . S
C532 C531 1.369 . S
C532 C533 1.408 . S
C532 H554 0.930 . S
C533 C528 1.348 . S
C533 C532 1.408 . S
C533 H555 0.930 . S
C534 O544 1.281 . S
C534 O545 1.254 . S
C535 O546 1.236 . S
C535 O547 1.266 . S
O536 Tb516 2.484 . S
O536 C518 1.248 . S
O537 Tb516 2.440 . S
O537 C518 1.266 . S
O538 Tb516 2.658 . S
O538 Tb517 2.325 . S
O538 C525 1.281 . S
O539 Tb516 2.409 . S
O539 C525 1.254 . S
O540 Tb516 2.378 . S
O540 C526 1.236 . S
O541 Tb517 2.341 . S
O541 C526 1.266 . S
O542 Tb517 2.484 . S
O542 C527 1.248 . S
O543 Tb517 2.440 . S
O543 C527 1.266 . S
O544 Tb516 2.325 . S
O544 Tb517 2.658 . S
O544 C534 1.281 . S
O545 Tb517 2.409 . S
O545 C534 1.254 . S
O546 Tb517 2.378 . S
O546 C535 1.236 . S
O547 Tb516 2.341 . S
O547 C535 1.266 . S
H548 C520 0.929 . S
H549 C521 0.931 . S
H550 C523 0.930 . S
H551 C524 0.930 . S
H552 C529 0.929 . S
H553 C530 0.931 . S
H554 C532 0.930 . S
H555 C533 0.930 . S
Tb556 C558 2.809 . S
Tb556 O576 2.484 . S
Tb556 O577 2.440 . S
Tb556 O578 2.658 . S
Tb556 O579 2.409 . S
Tb556 O580 2.378 . S
Tb556 O584 2.325 . S
Tb556 O587 2.341 . S
Tb557 C567 2.809 . S
Tb557 O578 2.325 . S
Tb557 O581 2.341 . S
Tb557 O582 2.484 . S
Tb557 O583 2.440 . S
Tb557 O584 2.658 . S
Tb557 O585 2.409 . S
Tb557 O586 2.378 . S
C558 Tb556 2.809 . S
C558 C559 1.514 . S
C558 O576 1.248 . S
C558 O577 1.266 . S
C559 C558 1.514 . S
C559 C560 1.359 . S
C559 C564 1.348 . S
C560 C559 1.359 . S
C560 C561 1.380 . S
C560 H588 0.929 . S
C561 C560 1.380 . S
C561 C562 1.347 . S
C561 H589 0.931 . S
C562 C561 1.347 . S
C562 C563 1.369 . S
C563 C562 1.369 . S
C563 C564 1.408 . S
C563 H590 0.930 . S
C564 C559 1.348 . S
C564 C563 1.408 . S
C564 H591 0.930 . S
C565 O578 1.281 . S
C565 O579 1.254 . S
C566 O580 1.236 . S
C566 O581 1.266 . S
C567 Tb557 2.809 . S
C567 C568 1.514 . S
C567 O582 1.248 . S
C567 O583 1.266 . S
C568 C567 1.514 . S
C568 C569 1.359 . S
C568 C573 1.348 . S
C569 C568 1.359 . S
C569 C570 1.380 . S
C569 H592 0.929 . S
C570 C569 1.380 . S
C570 C571 1.347 . S
C570 H593 0.931 . S
C571 C570 1.347 . S
C571 C572 1.369 . S
C572 C571 1.369 . S
C572 C573 1.408 . S
C572 H594 0.930 1_565 S
C573 C568 1.348 . S
C573 C572 1.408 . S
C573 H595 0.930 . S
C574 O584 1.281 . S
C574 O585 1.254 . S
C575 O586 1.236 . S
C575 O587 1.266 . S
O576 Tb556 2.484 . S
O576 C558 1.248 . S
O577 Tb556 2.440 . S
O577 C558 1.266 . S
O578 Tb556 2.658 . S
O578 Tb557 2.325 . S
O578 C565 1.281 . S
O579 Tb556 2.409 . S
O579 C565 1.254 . S
O580 Tb556 2.378 . S
O580 C566 1.236 . S
O581 Tb557 2.341 . S
O581 C566 1.266 . S
O582 Tb557 2.484 . S
O582 C567 1.248 . S
O583 Tb557 2.440 . S
O583 C567 1.266 . S
O584 Tb556 2.325 . S
O584 Tb557 2.658 . S
O584 C574 1.281 . S
O585 Tb557 2.409 . S
O585 C574 1.254 . S
O586 Tb557 2.378 . S
O586 C575 1.236 . S
O587 Tb556 2.341 . S
O587 C575 1.266 . S
H588 C560 0.929 . S
H589 C561 0.931 . S
H590 C563 0.930 . S
H591 C564 0.930 . S
H592 C569 0.929 . S
H593 C570 0.931 . S
H594 C572 0.930 1_545 S
H595 C573 0.930 . S
C596 C597 1.387 . S
C596 H600 0.950 . S
C596 C605 1.390 . S
C597 C596 1.387 . S
C597 C599 1.387 . S
H598 C605 0.950 . S
C599 C597 1.387 . S
C599 C601 1.390 . S
C599 H603 0.950 . S
H600 C596 0.950 . S
C601 C599 1.390 . S
C601 C602 1.387 . S
C601 H604 0.950 . S
C602 C601 1.387 . S
C602 C605 1.387 . S
H603 C599 0.950 . S
H604 C601 0.950 . S
C605 C596 1.390 . S
C605 H598 0.950 . S
C605 C602 1.387 . S
C606 C607 1.387 . S
C606 H610 0.950 . S
C606 C615 1.390 . S
C607 C606 1.387 . S
C607 C609 1.387 . S
H608 C615 0.950 . S
C609 C607 1.387 . S
C609 C611 1.390 . S
C609 H613 0.950 . S
H610 C606 0.950 . S
C611 C609 1.390 . S
C611 C612 1.387 . S
C611 H614 0.950 . S
C612 C611 1.387 . S
C612 C615 1.387 . S
H613 C609 0.950 . S
H614 C611 0.950 . S
C615 C606 1.390 . S
C615 H608 0.950 . S
C615 C612 1.387 . S
C616 C617 1.387 . S
C616 H620 0.950 . S
C616 C625 1.390 1_545 S
C617 C616 1.387 . S
C617 C619 1.387 . S
H618 C625 0.950 . S
C619 C617 1.387 . S
C619 C621 1.390 . S
C619 H623 0.950 . S
H620 C616 0.950 . S
C621 C619 1.390 . S
C621 C622 1.387 1_545 S
C621 H624 0.950 . S
C622 C621 1.387 1_565 S
C622 C625 1.387 . S
H623 C619 0.950 . S
H624 C621 0.950 . S
C625 C616 1.390 1_565 S
C625 H618 0.950 . S
C625 C622 1.387 . S
C626 C627 1.387 1_565 S
C626 H630 0.950 1_565 S
C626 C635 1.390 . S
C627 C626 1.387 1_545 S
C627 C629 1.387 1_545 S
H628 C635 0.950 . S
C629 C627 1.387 1_565 S
C629 C631 1.390 . S
C629 H633 0.950 . S
H630 C626 0.950 1_545 S
C631 C629 1.390 . S
C631 C632 1.387 . S
C631 H634 0.950 . S
C632 C631 1.387 . S
C632 C635 1.387 . S
H633 C629 0.950 . S
H634 C631 0.950 . S
C635 C626 1.390 . S
C635 H628 0.950 . S
C635 C632 1.387 . S
C636 C637 1.387 . S
C636 H640 0.950 . S
C636 C645 1.390 . S
C637 C636 1.387 . S
C637 C639 1.387 . S
H638 C645 0.950 . S
C639 C637 1.387 . S
C639 C641 1.390 . S
C639 H643 0.950 1_565 S
H640 C636 0.950 . S
C641 C639 1.390 . S
C641 C642 1.387 . S
C641 H644 0.950 . S
C642 C641 1.387 . S
C642 C645 1.387 . S
H643 C639 0.950 1_545 S
H644 C641 0.950 . S
C645 C636 1.390 . S
C645 H638 0.950 . S
C645 C642 1.387 . S
C646 C647 1.387 . S
C646 H650 0.950 . S
C646 C655 1.390 . S
C647 C646 1.387 . S
C647 C649 1.387 . S
H648 C655 0.950 . S
C649 C647 1.387 . S
C649 C651 1.390 . S
C649 H653 0.950 . S
H650 C646 0.950 . S
C651 C649 1.390 . S
C651 C652 1.387 . S
C651 H654 0.950 . S
C652 C651 1.387 . S
C652 C655 1.387 . S
H653 C649 0.950 . S
H654 C651 0.950 . S
C655 C646 1.390 . S
C655 H648 0.950 . S
C655 C652 1.387 . S
C656 C657 1.387 . S
C656 H660 0.950 . S
C656 C665 1.390 . S
C657 C656 1.387 . S
C657 C659 1.387 . S
H658 C665 0.950 . S
C659 C657 1.387 . S
C659 C661 1.390 . S
C659 H663 0.950 . S
H660 C656 0.950 . S
C661 C659 1.390 . S
C661 C662 1.387 . S
C661 H664 0.950 . S
C662 C661 1.387 . S
C662 C665 1.387 . S
H663 C659 0.950 . S
H664 C661 0.950 . S
C665 C656 1.390 . S
C665 H658 0.950 . S
C665 C662 1.387 . S
C666 C667 1.387 . S
C666 H670 0.950 . S
C666 C675 1.390 . S
C667 C666 1.387 . S
C667 C669 1.387 . S
H668 C675 0.950 . S
C669 C667 1.387 . S
C669 C671 1.390 1_545 S
C669 H673 0.950 1_545 S
H670 C666 0.950 . S
C671 C669 1.390 1_565 S
C671 C672 1.387 1_565 S
C671 H674 0.950 . S
C672 C671 1.387 1_545 S
C672 C675 1.387 . S
H673 C669 0.950 1_565 S
H674 C671 0.950 . S
C675 C666 1.390 . S
C675 H668 0.950 . S
C675 C672 1.387 . S
C676 C677 1.387 . S
C676 H680 0.950 . S
C676 C685 1.390 . S
C677 C676 1.387 . S
C677 C679 1.387 . S
H678 C685 0.950 . S
C679 C677 1.387 . S
C679 C681 1.390 . S
C679 H683 0.950 . S
H680 C676 0.950 . S
C681 C679 1.390 . S
C681 C682 1.387 . S
C681 H684 0.950 . S
C682 C681 1.387 . S
C682 C685 1.387 . S
H683 C679 0.950 . S
H684 C681 0.950 . S
C685 C676 1.390 . S
C685 H678 0.950 . S
C685 C682 1.387 . S
C686 C687 1.387 . S
C686 H690 0.950 . S
C686 C695 1.390 . S
C687 C686 1.387 . S
C687 C689 1.387 . S
H688 C695 0.950 . S
C689 C687 1.387 . S
C689 C691 1.390 . S
C689 H693 0.950 . S
H690 C686 0.950 . S
C691 C689 1.390 . S
C691 C692 1.387 . S
C691 H694 0.950 . S
C692 C691 1.387 . S
C692 C695 1.387 . S
H693 C689 0.950 . S
H694 C691 0.950 . S
C695 C686 1.390 . S
C695 H688 0.950 . S
C695 C692 1.387 . S
C696 C697 1.387 . S
C696 H700 0.950 . S
C696 C705 1.390 . S
C697 C696 1.387 . S
C697 C699 1.387 . S
H698 C705 0.950 . S
C699 C697 1.387 . S
C699 C701 1.390 . S
C699 H703 0.950 . S
H700 C696 0.950 . S
C701 C699 1.390 . S
C701 C702 1.387 . S
C701 H704 0.950 . S
C702 C701 1.387 . S
C702 C705 1.387 . S
H703 C699 0.950 . S
H704 C701 0.950 . S
C705 C696 1.390 . S
C705 H698 0.950 . S
C705 C702 1.387 . S
C706 C707 1.387 . S
C706 H710 0.950 . S
C706 C715 1.390 . S
C707 C706 1.387 . S
C707 C709 1.387 . S
H708 C715 0.950 . S
C709 C707 1.387 . S
C709 C711 1.390 . S
C709 H713 0.950 . S
H710 C706 0.950 . S
C711 C709 1.390 . S
C711 C712 1.387 . S
C711 H714 0.950 . S
C712 C711 1.387 . S
C712 C715 1.387 . S
H713 C709 0.950 . S
H714 C711 0.950 . S
C715 C706 1.390 . S
C715 H708 0.950 . S
C715 C712 1.387 . S
C716 C717 1.387 . S
C716 H720 0.950 . S
C716 C725 1.390 . S
C717 C716 1.387 . S
C717 C719 1.387 . S
H718 C725 0.950 1_554 S
C719 C717 1.387 . S
C719 C721 1.390 . S
C719 H723 0.950 . S
H720 C716 0.950 . S
C721 C719 1.390 . S
C721 C722 1.387 . S
C721 H724 0.950 . S
C722 C721 1.387 . S
C722 C725 1.387 . S
H723 C719 0.950 . S
H724 C721 0.950 . S
C725 C716 1.390 . S
C725 H718 0.950 1_556 S
C725 C722 1.387 . S
C726 C727 1.387 . S
C726 H730 0.950 . S
C726 C735 1.390 . S
C727 C726 1.387 . S
C727 C729 1.387 . S
H728 C735 0.950 . S
C729 C727 1.387 . S
C729 C731 1.390 . S
C729 H733 0.950 . S
H730 C726 0.950 . S
C731 C729 1.390 . S
C731 C732 1.387 . S
C731 H734 0.950 . S
C732 C731 1.387 . S
C732 C735 1.387 . S
H733 C729 0.950 . S
H734 C731 0.950 . S
C735 C726 1.390 . S
C735 H728 0.950 . S
C735 C732 1.387 . S
C736 C737 1.387 . S
C736 H740 0.950 . S
C736 C745 1.390 . S
C737 C736 1.387 . S
C737 C739 1.387 . S
H738 C745 0.964 . S
C739 C737 1.387 . S
C739 C741 1.390 . S
C739 H743 0.950 . S
H740 C736 0.950 . S
C741 C739 1.390 . S
C741 C742 1.387 . S
C741 H744 0.950 . S
C742 C741 1.387 . S
C742 C745 1.387 . S
H743 C739 0.950 . S
H744 C741 0.950 . S
C745 C736 1.390 . S
C745 H738 0.964 . S
C745 C742 1.387 . S
C746 C747 1.387 . S
C746 H750 0.950 . S
C746 C755 1.390 . S
C747 C746 1.387 . S
C747 C749 1.387 . S
H748 C755 0.950 . S
C749 C747 1.387 . S
C749 C751 1.390 . S
C749 H753 0.950 . S
H750 C746 0.950 . S
C751 C749 1.390 . S
C751 C752 1.387 . S
C751 H754 0.950 . S
C752 C751 1.387 . S
C752 C755 1.387 . S
H753 C749 0.950 . S
H754 C751 0.950 . S
C755 C746 1.390 . S
C755 H748 0.950 . S
C755 C752 1.387 . S
C756 C757 1.387 . S
C756 H760 0.950 . S
C756 C765 1.390 . S
C757 C756 1.387 . S
C757 C759 1.387 . S
H758 C765 0.950 . S
C759 C757 1.387 . S
C759 C761 1.390 . S
C759 H763 0.950 . S
H760 C756 0.950 . S
C761 C759 1.390 . S
C761 C762 1.387 . S
C761 H764 0.950 . S
C762 C761 1.387 . S
C762 C765 1.387 . S
H763 C759 0.950 . S
H764 C761 0.950 . S
C765 C756 1.390 . S
C765 H758 0.950 . S
C765 C762 1.387 . S
C766 C767 1.387 . S
C766 H770 0.950 . S
C766 C775 1.390 . S
C767 C766 1.387 . S
C767 C769 1.387 . S
H768 C775 0.950 . S
C769 C767 1.387 . S
C769 C771 1.390 . S
C769 H773 0.950 . S
H770 C766 0.950 . S
C771 C769 1.390 . S
C771 C772 1.387 . S
C771 H774 0.950 . S
C772 C771 1.387 . S
C772 C775 1.387 . S
H773 C769 0.950 . S
H774 C771 0.950 . S
C775 C766 1.390 . S
C775 H768 0.950 . S
C775 C772 1.387 . S
C776 C777 1.387 . S
C776 H780 0.950 . S
C776 C785 1.390 . S
C777 C776 1.387 . S
C777 C779 1.387 . S
H778 C785 0.950 . S
C779 C777 1.387 . S
C779 C781 1.390 . S
C779 H783 0.950 . S
H780 C776 0.950 . S
C781 C779 1.390 . S
C781 C782 1.387 . S
C781 H784 0.950 . S
C782 C781 1.387 . S
C782 C785 1.387 . S
H783 C779 0.950 . S
H784 C781 0.950 . S
C785 C776 1.390 . S
C785 H778 0.950 . S
C785 C782 1.387 . S
C786 C787 1.387 . S
C786 H790 0.950 . S
C786 C795 1.390 . S
C787 C786 1.387 . S
C787 C789 1.387 . S
H788 C795 0.950 . S
C789 C787 1.387 . S
C789 C791 1.390 . S
C789 H793 0.950 . S
H790 C786 0.950 . S
C791 C789 1.390 . S
C791 C792 1.387 . S
C791 H794 0.950 . S
C792 C791 1.387 . S
C792 C795 1.387 . S
H793 C789 0.950 . S
H794 C791 0.950 . S
C795 C786 1.390 . S
C795 H788 0.950 . S
C795 C792 1.387 . S
C796 C797 1.387 . S
C796 H800 0.950 . S
C796 C805 1.390 . S
C797 C796 1.387 . S
C797 C799 1.387 . S
H798 C805 0.950 . S
C799 C797 1.387 . S
C799 C801 1.390 . S
C799 H803 0.950 . S
H800 C796 0.950 . S
C801 C799 1.390 . S
C801 C802 1.387 . S
C801 H804 0.950 . S
C802 C801 1.387 . S
C802 C805 1.387 . S
H803 C799 0.950 . S
H804 C801 0.950 . S
C805 C796 1.390 . S
C805 H798 0.950 . S
C805 C802 1.387 . S
C806 C807 1.387 . S
C806 H810 0.950 . S
C806 C815 1.390 . S
C807 C806 1.387 . S
C807 C809 1.387 . S
H808 C815 0.950 . S
C809 C807 1.387 . S
C809 C811 1.390 . S
C809 H813 0.950 . S
H810 C806 0.950 . S
C811 C809 1.390 . S
C811 C812 1.387 . S
C811 H814 0.950 . S
C812 C811 1.387 . S
C812 C815 1.387 . S
H813 C809 0.950 . S
H814 C811 0.950 . S
C815 C806 1.390 . S
C815 H808 0.950 . S
C815 C812 1.387 . S
C816 C817 1.387 . S
C816 H820 0.950 . S
C816 C825 1.390 . S
C817 C816 1.387 . S
C817 C819 1.387 . S
H818 C825 0.950 . S
C819 C817 1.387 . S
C819 C821 1.390 . S
C819 H823 0.950 . S
H820 C816 0.950 . S
C821 C819 1.390 . S
C821 C822 1.387 . S
C821 H824 0.950 . S
C822 C821 1.387 . S
C822 C825 1.387 . S
H823 C819 0.950 . S
H824 C821 0.950 . S
C825 C816 1.390 . S
C825 H818 0.950 . S
C825 C822 1.387 . S
C826 C827 1.387 . S
C826 H830 0.950 . S
C826 C835 1.390 . S
C827 C826 1.387 . S
C827 C829 1.387 . S
H828 C835 0.950 . S
C829 C827 1.387 . S
C829 C831 1.390 . S
C829 H833 0.950 . S
H830 C826 0.950 . S
C831 C829 1.390 . S
C831 C832 1.387 . S
C831 H834 0.950 . S
C832 C831 1.387 . S
C832 C835 1.387 . S
H833 C829 0.950 . S
H834 C831 0.950 . S
C835 C826 1.390 . S
C835 H828 0.950 . S
C835 C832 1.387 . S
C836 C837 1.387 . S
C836 H840 0.950 . S
C836 C845 1.390 . S
C837 C836 1.387 . S
C837 C839 1.387 . S
H838 C845 0.950 . S
C839 C837 1.387 . S
C839 C841 1.390 . S
C839 H843 0.950 . S
H840 C836 0.950 . S
C841 C839 1.390 . S
C841 C842 1.387 . S
C841 H844 0.950 . S
C842 C841 1.387 . S
C842 C845 1.387 . S
H843 C839 0.950 . S
H844 C841 0.950 . S
C845 C836 1.390 . S
C845 H838 0.950 . S
C845 C842 1.387 . S
C846 C847 1.387 . S
C846 H850 0.950 . S
C846 C855 1.390 . S
C847 C846 1.387 . S
C847 C849 1.387 . S
H848 C855 0.950 . S
C849 C847 1.387 . S
C849 C851 1.390 . S
C849 H853 0.950 . S
H850 C846 0.950 . S
C851 C849 1.390 . S
C851 C852 1.387 . S
C851 H854 0.950 . S
C852 C851 1.387 . S
C852 C855 1.387 . S
H853 C849 0.950 . S
H854 C851 0.950 . S
C855 C846 1.390 . S
C855 H848 0.950 . S
C855 C852 1.387 . S
C856 C857 1.387 . S
C856 H860 0.950 . S
C856 C865 1.390 . S
C857 C856 1.387 . S
C857 C859 1.387 . S
H858 C865 0.950 . S
C859 C857 1.387 . S
C859 C861 1.390 . S
C859 H863 0.950 . S
H860 C856 0.950 . S
C861 C859 1.390 . S
C861 C862 1.387 . S
C861 H864 0.950 . S
C862 C861 1.387 . S
C862 C865 1.387 . S
H863 C859 0.950 . S
H864 C861 0.950 . S
C865 C856 1.390 . S
C865 H858 0.950 . S
C865 C862 1.387 . S
C866 C867 1.387 . S
C866 H870 0.950 . S
C866 C875 1.390 . S
C867 C866 1.387 . S
C867 C869 1.387 . S
H868 C875 0.950 . S
C869 C867 1.387 . S
C869 C871 1.390 . S
C869 H873 0.950 . S
H870 C866 0.950 . S
C871 C869 1.390 . S
C871 C872 1.387 . S
C871 H874 0.950 . S
C872 C871 1.387 . S
C872 C875 1.387 . S
H873 C869 0.950 . S
H874 C871 0.950 . S
C875 C866 1.390 . S
C875 H868 0.950 . S
C875 C872 1.387 . S
C876 C877 1.387 . S
C876 H880 0.950 . S
C876 C885 1.390 . S
C877 C876 1.387 . S
C877 C879 1.387 . S
H878 C885 0.950 . S
C879 C877 1.387 . S
C879 C881 1.390 . S
C879 H883 0.950 . S
H880 C876 0.950 . S
C881 C879 1.390 . S
C881 C882 1.387 . S
C881 H884 0.950 . S
C882 C881 1.387 . S
C882 C885 1.387 . S
H883 C879 0.950 . S
H884 C881 0.950 . S
C885 C876 1.390 . S
C885 H878 0.950 . S
C885 C882 1.387 . S
C886 C887 1.387 . S
C886 H890 0.950 . S
C886 C895 1.390 . S
C887 C886 1.387 . S
C887 C889 1.387 . S
H888 C895 0.950 . S
C889 C887 1.387 . S
C889 C891 1.390 . S
C889 H893 0.950 . S
H890 C886 0.950 . S
C891 C889 1.390 . S
C891 C892 1.387 . S
C891 H894 0.950 . S
C892 C891 1.387 . S
C892 C895 1.387 . S
H893 C889 0.950 . S
H894 C891 0.950 . S
C895 C886 1.390 . S
C895 H888 0.950 . S
C895 C892 1.387 . S
C896 C897 1.387 . S
C896 H900 0.950 . S
C896 C905 1.390 . S
C897 C896 1.387 . S
C897 C899 1.387 . S
H898 C905 0.950 . S
C899 C897 1.387 . S
C899 C901 1.390 . S
C899 H903 0.950 . S
H900 C896 0.950 . S
C901 C899 1.390 . S
C901 C902 1.387 . S
C901 H904 0.950 . S
C902 C901 1.387 . S
C902 C905 1.387 . S
H903 C899 0.950 . S
H904 C901 0.950 . S
C905 C896 1.390 . S
C905 H898 0.950 . S
C905 C902 1.387 . S
C906 C907 1.387 . S
C906 H910 0.950 . S
C906 C915 1.390 . S
C907 C906 1.387 . S
C907 C909 1.387 . S
H908 C915 0.950 . S
C909 C907 1.387 . S
C909 C911 1.390 . S
C909 H913 0.950 . S
H910 C906 0.950 . S
C911 C909 1.390 . S
C911 C912 1.387 . S
C911 H914 0.950 . S
C912 C911 1.387 . S
C912 C915 1.387 . S
H913 C909 0.950 . S
H914 C911 0.950 . S
C915 C906 1.390 . S
C915 H908 0.950 . S
C915 C912 1.387 . S
C916 C917 1.387 . S
C916 H920 0.950 . S
C916 C925 1.390 . S
C917 C916 1.387 . S
C917 C919 1.387 . S
H918 C925 0.950 . S
C919 C917 1.387 . S
C919 C921 1.390 . S
C919 H923 0.950 . S
H920 C916 0.950 . S
C921 C919 1.390 . S
C921 C922 1.387 . S
C921 H924 0.950 . S
C922 C921 1.387 . S
C922 C925 1.387 . S
H923 C919 0.950 . S
H924 C921 0.950 . S
C925 C916 1.390 . S
C925 H918 0.950 . S
C925 C922 1.387 . S
C926 C927 1.387 . S
C926 H930 0.950 . S
C926 C935 1.390 . S
C927 C926 1.387 . S
C927 C929 1.387 . S
H928 C935 0.950 . S
C929 C927 1.387 . S
C929 C931 1.390 . S
C929 H933 0.950 . S
H930 C926 0.950 . S
C931 C929 1.390 . S
C931 C932 1.387 . S
C931 H934 0.950 . S
C932 C931 1.387 . S
C932 C935 1.387 . S
H933 C929 0.950 . S
H934 C931 0.950 . S
C935 C926 1.390 . S
C935 H928 0.950 . S
C935 C932 1.387 . S
C936 C937 1.387 . S
C936 H940 0.950 . S
C936 C945 1.390 . S
C937 C936 1.387 . S
C937 C939 1.387 . S
H938 C945 0.950 . S
C939 C937 1.387 . S
C939 C941 1.390 . S
C939 H943 0.950 . S
H940 C936 0.950 . S
C941 C939 1.390 . S
C941 C942 1.387 . S
C941 H944 0.950 . S
C942 C941 1.387 . S
C942 C945 1.387 . S
H943 C939 0.950 . S
H944 C941 0.950 . S
C945 C936 1.390 . S
C945 H938 0.950 . S
C945 C942 1.387 . S
C946 C947 1.387 . S
C946 H950 0.950 . S
C946 C955 1.390 . S
C947 C946 1.387 . S
C947 C949 1.387 . S
H948 C955 0.950 . S
C949 C947 1.387 . S
C949 C951 1.390 . S
C949 H953 0.950 . S
H950 C946 0.950 . S
C951 C949 1.390 . S
C951 C952 1.387 . S
C951 H954 0.950 . S
C952 C951 1.387 . S
C952 C955 1.387 . S
H953 C949 0.950 . S
H954 C951 0.950 . S
C955 C946 1.390 . S
C955 H948 0.950 . S
C955 C952 1.387 . S
C956 C957 1.387 . S
C956 H960 0.950 . S
C956 C965 1.390 . S
C957 C956 1.387 . S
C957 C959 1.387 . S
H958 C965 0.950 . S
C959 C957 1.387 . S
C959 C961 1.390 . S
C959 H963 0.950 . S
H960 C956 0.950 . S
C961 C959 1.390 . S
C961 C962 1.387 . S
C961 H964 0.950 . S
C962 C961 1.387 . S
C962 C965 1.387 . S
H963 C959 0.950 . S
H964 C961 0.950 . S
C965 C956 1.390 . S
C965 H958 0.950 . S
C965 C962 1.387 . S
C966 C967 1.387 . S
C966 H970 0.950 . S
C966 C975 1.390 . S
C967 C966 1.387 . S
C967 C969 1.387 . S
H968 C975 0.950 . S
C969 C967 1.387 . S
C969 C971 1.390 . S
C969 H973 0.950 . S
H970 C966 0.950 . S
C971 C969 1.390 . S
C971 C972 1.387 . S
C971 H974 0.950 . S
C972 C971 1.387 . S
C972 C975 1.387 . S
H973 C969 0.950 . S
H974 C971 0.950 . S
C975 C966 1.390 . S
C975 H968 0.950 . S
C975 C972 1.387 . S
C976 C977 1.387 . S
C976 H980 0.950 . S
C976 C985 1.390 . S
C977 C976 1.387 . S
C977 C979 1.387 . S
H978 C985 0.950 . S
C979 C977 1.387 . S
C979 C981 1.390 . S
C979 H983 0.950 . S
H980 C976 0.950 . S
C981 C979 1.390 . S
C981 C982 1.387 . S
C981 H984 0.950 . S
C982 C981 1.387 . S
C982 C985 1.387 . S
H983 C979 0.950 . S
H984 C981 0.950 . S
C985 C976 1.390 . S
C985 H978 0.950 . S
C985 C982 1.387 . S
C986 C987 1.387 . S
C986 H990 0.950 . S
C986 C995 1.390 . S
C987 C986 1.387 . S
C987 C989 1.387 . S
H988 C995 0.950 . S
C989 C987 1.387 . S
C989 C991 1.390 . S
C989 H993 0.950 . S
H990 C986 0.950 . S
C991 C989 1.390 . S
C991 C992 1.387 . S
C991 H994 0.950 . S
C992 C991 1.387 . S
C992 C995 1.387 . S
H993 C989 0.950 . S
H994 C991 0.950 . S
C995 C986 1.390 . S
C995 H988 0.950 . S
C995 C992 1.387 . S
C996 C997 1.387 . S
C996 H1000 0.950 . S
C996 C1005 1.390 . S
C997 C996 1.387 . S
C997 C999 1.387 . S
H998 C1005 0.950 . S
C999 C997 1.387 . S
C999 C1001 1.390 . S
C999 H1003 0.950 . S
H1000 C996 0.950 . S
C1001 C999 1.390 . S
C1001 C1002 1.387 . S
C1001 H1004 0.950 . S
C1002 C1001 1.387 . S
C1002 C1005 1.387 . S
H1003 C999 0.950 . S
H1004 C1001 0.950 . S
C1005 C996 1.390 . S
C1005 H998 0.950 . S
C1005 C1002 1.387 . S
C1006 C1007 1.387 . S
C1006 H1010 0.950 . S
C1006 C1015 1.390 . S
C1007 C1006 1.387 . S
C1007 C1009 1.387 . S
H1008 C1015 0.950 . S
C1009 C1007 1.387 . S
C1009 C1011 1.390 . S
C1009 H1013 0.950 . S
H1010 C1006 0.950 . S
C1011 C1009 1.390 . S
C1011 C1012 1.387 . S
C1011 H1014 0.950 . S
C1012 C1011 1.387 . S
C1012 C1015 1.387 . S
H1013 C1009 0.950 . S
H1014 C1011 0.950 . S
C1015 C1006 1.390 . S
C1015 H1008 0.950 . S
C1015 C1012 1.387 . S
C1016 C1017 1.387 . S
C1016 H1020 0.950 . S
C1016 C1025 1.390 . S
C1017 C1016 1.387 . S
C1017 C1019 1.387 . S
H1018 C1025 0.950 . S
C1019 C1017 1.387 . S
C1019 C1021 1.390 . S
C1019 H1023 0.950 . S
H1020 C1016 0.950 . S
C1021 C1019 1.390 . S
C1021 C1022 1.387 . S
C1021 H1024 0.950 . S
C1022 C1021 1.387 . S
C1022 C1025 1.387 . S
H1023 C1019 0.950 . S
H1024 C1021 0.950 . S
C1025 C1016 1.390 . S
C1025 H1018 0.950 . S
C1025 C1022 1.387 . S
C1026 C1027 1.387 . S
C1026 H1030 0.950 . S
C1026 C1035 1.390 . S
C1027 C1026 1.387 . S
C1027 C1029 1.387 . S
H1028 C1035 0.950 . S
C1029 C1027 1.387 . S
C1029 C1031 1.390 . S
C1029 H1033 0.950 . S
H1030 C1026 0.950 . S
C1031 C1029 1.390 . S
C1031 C1032 1.387 . S
C1031 H1034 0.950 . S
C1032 C1031 1.387 . S
C1032 C1035 1.387 . S
H1033 C1029 0.950 . S
H1034 C1031 0.950 . S
C1035 C1026 1.390 . S
C1035 H1028 0.950 . S
C1035 C1032 1.387 . S
C1036 C1037 1.387 . S
C1036 H1040 0.950 . S
C1036 C1045 1.390 . S
C1037 C1036 1.387 . S
C1037 C1039 1.387 . S
H1038 C1045 0.950 . S
C1039 C1037 1.387 . S
C1039 C1041 1.390 . S
C1039 H1043 0.950 . S
H1040 C1036 0.950 . S
C1041 C1039 1.390 . S
C1041 C1042 1.387 . S
C1041 H1044 0.950 . S
C1042 C1041 1.387 . S
C1042 C1045 1.387 . S
H1043 C1039 0.950 . S
H1044 C1041 0.950 . S
C1045 C1036 1.390 . S
C1045 H1038 0.950 . S
C1045 C1042 1.387 . S
C1046 C1047 1.387 . S
C1046 H1050 0.950 . S
C1046 C1055 1.390 . S
C1047 C1046 1.387 . S
C1047 C1049 1.387 . S
H1048 C1055 0.950 . S
C1049 C1047 1.387 . S
C1049 C1051 1.390 . S
C1049 H1053 0.950 . S
H1050 C1046 0.950 . S
C1051 C1049 1.390 . S
C1051 C1052 1.387 . S
C1051 H1054 0.950 . S
C1052 C1051 1.387 . S
C1052 C1055 1.387 . S
H1053 C1049 0.950 . S
H1054 C1051 0.950 . S
C1055 C1046 1.390 . S
C1055 H1048 0.950 . S
C1055 C1052 1.387 . S
C1056 C1057 1.387 . S
C1056 H1060 0.950 . S
C1056 C1065 1.390 . S
C1057 C1056 1.387 . S
C1057 C1059 1.387 . S
H1058 C1065 0.950 . S
C1059 C1057 1.387 . S
C1059 C1061 1.390 . S
C1059 H1063 0.950 . S
H1060 C1056 0.950 . S
C1061 C1059 1.390 . S
C1061 C1062 1.387 . S
C1061 H1064 0.950 . S
C1062 C1061 1.387 . S
C1062 C1065 1.387 . S
H1063 C1059 0.950 . S
H1064 C1061 0.950 . S
C1065 C1056 1.390 . S
C1065 H1058 0.950 . S
C1065 C1062 1.387 . S
C1066 C1067 1.387 . S
C1066 H1070 0.950 . S
C1066 C1075 1.390 . S
C1067 C1066 1.387 . S
C1067 C1069 1.387 . S
H1068 C1075 0.950 . S
C1069 C1067 1.387 . S
C1069 C1071 1.390 . S
C1069 H1073 0.950 . S
H1070 C1066 0.950 . S
C1071 C1069 1.390 . S
C1071 C1072 1.387 . S
C1071 H1074 0.950 . S
C1072 C1071 1.387 . S
C1072 C1075 1.387 . S
H1073 C1069 0.950 . S
H1074 C1071 0.950 . S
C1075 C1066 1.390 . S
C1075 H1068 0.950 . S
C1075 C1072 1.387 . S
C602 C282 1.662 . S
C597 N2 1.594 . S
C612 C325 2.235 . S
C607 C7 2.144 . S
C622 C362 1.712 . S
C617 N12 1.473 . S
C627 C16 2.054 . S
C632 C405 2.210 . S
C642 C454 2.483 . S
C637 C30 2.359 1_565 S
C652 C491 1.452 . S
C647 N35 1.380 . S
C657 C39 2.404 . S
C662 C534 2.476 . S
C672 C571 1.411 1_545 S
C667 N25 1.226 . S
C682 C286 1.537 . S
C677 N58 1.458 . S
C687 N81 1.996 . S
C692 C335 1.971 . S
C702 C366 1.529 . S
C697 N104 1.450 . S
C707 N127 2.052 . S
C712 C415 2.022 . S
C722 C442 1.277 1_545 S
C717 N48 1.445 . S
C732 C485 1.402 . S
C727 N71 1.452 . S
C737 N94 1.448 . S
C742 C522 1.278 . S
C752 C565 1.409 . S
C747 N117 1.470 . S
C757 C85 2.321 . S
C762 C294 2.040 . S
C767 C122 2.475 . S
C772 C446 2.435 . S
C777 C53 2.384 . S
C782 C495 2.389 . S
C792 C526 2.488 . S
C787 C76 2.528 1_655 S
C802 C575 2.377 . S
C797 C99 2.372 . S
C812 C374 2.014 . S
C807 C131 2.288 . S
C822 C411 1.555 . S
C817 C62 1.643 . S
C827 C108 1.635 . S
C832 C331 1.549 . S
C842 C562 1.803 . S
C837 N140 1.768 . S
C847 C145 2.127 . S
C852 C445 2.214 . S
C862 C482 1.600 . S
C857 N150 1.363 . S
C867 C154 2.052 . S
C872 C525 2.214 . S
C882 C334 2.445 . S
C877 C168 2.325 . S
C887 N173 1.227 . S
C892 C371 1.307 . S
C902 C414 2.464 . S
C897 C177 2.386 . S
C912 C291 1.527 . S
C907 N163 1.327 . S
C922 C566 1.989 . S
C917 C200 1.923 . S
C932 C455 2.248 . S
C927 N219 2.275 . S
C937 N242 1.727 . S
C942 C486 1.808 . S
C952 C535 2.380 . S
C947 C269 2.460 . S
C962 C322 1.576 . S
C957 C191 1.697 . S
C967 N209 1.737 . S
C972 C365 1.673 . S
C977 N232 1.613 . S
C982 C402 1.447 . S
C987 C260 1.969 . S
C992 C285 1.823 . S
C997 C223 2.016 . S
C1002 C574 1.745 . S
C1007 N255 2.065 . S
C1012 C326 2.061 . S
C1017 N186 2.032 . S
C1022 C375 1.991 . S
C1032 C406 2.194 . S
C1027 C214 2.226 . S
C1042 C295 2.130 . S
C1037 C237 2.118 . S
C1052 C494 1.647 . S
C1047 N265 1.789 . S
C1062 C531 1.244 . S
C1057 N196 1.355 . S
C1072 C451 1.387 . S
C1067 C246 1.479 . S
