# Generated by pormake.
# Topology zzz, (3,6)-cn, num edge types: 1
# Building blocks:
#     Node 0, Type 0, BuildingBlock: OLANEW_clean_sbu_2, # of connection points: 3
#     Node 1, Type 0, BuildingBlock: OLANEW_clean_sbu_2, # of connection points: 3
#     Node 2, Type 0, BuildingBlock: OLANEW_clean_sbu_2, # of connection points: 3
#     Node 3, Type 0, BuildingBlock: OLANEW_clean_sbu_2, # of connection points: 3
#     Node 4, Type 0, BuildingBlock: OLANEW_clean_sbu_2, # of connection points: 3
#     Node 5, Type 0, BuildingBlock: OLANEW_clean_sbu_2, # of connection points: 3
#     Node 6, Type 0, BuildingBlock: OLANEW_clean_sbu_2, # of connection points: 3
#     Node 7, Type 0, BuildingBlock: OLANEW_clean_sbu_2, # of connection points: 3
#     Node 8, Type 1, BuildingBlock: BETGAK_clean_sbu_0, # of connection points: 6
#     Node 9, Type 1, BuildingBlock: BETGAK_clean_sbu_0, # of connection points: 6
#     Node 10, Type 1, BuildingBlock: BETGAK_clean_sbu_0, # of connection points: 6
#     Node 11, Type 1, BuildingBlock: BETGAK_clean_sbu_0, # of connection points: 6
#     Edge 12, Type (0, 1), BuildingBlock: XIVTED_clean_linker_0, # of connection points: 2
#     Edge 13, Type (0, 1), BuildingBlock: XIVTED_clean_linker_0, # of connection points: 2
#     Edge 14, Type (0, 1), BuildingBlock: XIVTED_clean_linker_0, # of connection points: 2
#     Edge 15, Type (0, 1), BuildingBlock: XIVTED_clean_linker_0, # of connection points: 2
#     Edge 16, Type (0, 1), BuildingBlock: XIVTED_clean_linker_0, # of connection points: 2
#     Edge 17, Type (0, 1), BuildingBlock: XIVTED_clean_linker_0, # of connection points: 2
#     Edge 18, Type (0, 1), BuildingBlock: XIVTED_clean_linker_0, # of connection points: 2
#     Edge 19, Type (0, 1), BuildingBlock: XIVTED_clean_linker_0, # of connection points: 2
#     Edge 20, Type (0, 1), BuildingBlock: XIVTED_clean_linker_0, # of connection points: 2
#     Edge 21, Type (0, 1), BuildingBlock: XIVTED_clean_linker_0, # of connection points: 2
#     Edge 22, Type (0, 1), BuildingBlock: XIVTED_clean_linker_0, # of connection points: 2
#     Edge 23, Type (0, 1), BuildingBlock: XIVTED_clean_linker_0, # of connection points: 2
#     Edge 24, Type (0, 1), BuildingBlock: XIVTED_clean_linker_0, # of connection points: 2
#     Edge 25, Type (0, 1), BuildingBlock: XIVTED_clean_linker_0, # of connection points: 2
#     Edge 26, Type (0, 1), BuildingBlock: XIVTED_clean_linker_0, # of connection points: 2
#     Edge 27, Type (0, 1), BuildingBlock: XIVTED_clean_linker_0, # of connection points: 2
#     Edge 28, Type (0, 1), BuildingBlock: XIVTED_clean_linker_0, # of connection points: 2
#     Edge 29, Type (0, 1), BuildingBlock: XIVTED_clean_linker_0, # of connection points: 2
#     Edge 30, Type (0, 1), BuildingBlock: XIVTED_clean_linker_0, # of connection points: 2
#     Edge 31, Type (0, 1), BuildingBlock: XIVTED_clean_linker_0, # of connection points: 2
#     Edge 32, Type (0, 1), BuildingBlock: XIVTED_clean_linker_0, # of connection points: 2
#     Edge 33, Type (0, 1), BuildingBlock: XIVTED_clean_linker_0, # of connection points: 2
#     Edge 34, Type (0, 1), BuildingBlock: XIVTED_clean_linker_0, # of connection points: 2
#     Edge 35, Type (0, 1), BuildingBlock: XIVTED_clean_linker_0, # of connection points: 2
# Relax obj value: 0.255
# Max RMSD: 0.194
# Mean RMSD: 0.172
data_MOF--net-zzz--node1-OLANEW_clean_sbu_2--node2-BETGAK_clean_sbu_0--edge1-XIVTED_clean_linker_0
_symmetry_space_group_name_H-M    P1
_symmetry_Int_Tables_number       1
_symmetry_cell_setting            triclinic
loop_
_symmetry_equiv_pos_as_xyz
'x, y, z'
_cell_length_a     56.898264
_cell_length_b     56.837194
_cell_length_c     15.27617
_cell_angle_alpha  89.929344
_cell_angle_beta   89.954408
_cell_angle_gamma 90.001261
loop_
_atom_site_label
_atom_site_type_symbol
_atom_site_fract_x
_atom_site_fract_y
_atom_site_fract_z
_atom_type_partial_charge
O0 O 0.71821 0.62937 0.13559 0.0
Cd1 Cd 0.67907 0.64533 0.16328 0.0
O2 O 0.72039 0.61699 0.27169 0.0
Cd3 Cd 0.74118 0.60068 0.37565 0.0
O4 O 0.77138 0.58463 0.4404 0.0
C5 C 0.79158 0.58972 0.41026 0.0
O6 O 0.79324 0.60489 0.3456 0.0
C7 C 0.72926 0.61849 0.19543 0.0
C8 C 0.64623 0.61912 0.06952 0.0
O9 O 0.65583 0.63745 0.03613 0.0
O10 O 0.6518 0.61345 0.14804 0.0
O11 O 0.87179 0.73293 0.13776 0.0
Cd12 Cd 0.85671 0.69492 0.18734 0.0
O13 O 0.90185 0.72738 0.22543 0.0
Cd14 Cd 0.93322 0.74208 0.28725 0.0
O15 O 0.95391 0.77223 0.33022 0.0
C16 C 0.95289 0.77831 0.41009 0.0
O17 O 0.94066 0.76534 0.46494 0.0
C18 C 0.89137 0.73982 0.16823 0.0
C19 C 0.87981 0.65926 0.09653 0.0
O20 O 0.86055 0.66806 0.06788 0.0
O21 O 0.8879 0.66698 0.16932 0.0
O22 O 0.78484 0.87242 0.12198 0.0
Cd23 Cd 0.82328 0.85554 0.15572 0.0
O24 O 0.7752 0.87447 0.2611 0.0
Cd25 Cd 0.74978 0.88256 0.36472 0.0
O26 O 0.71993 0.89834 0.43306 0.0
C27 C 0.69975 0.89727 0.39762 0.0
O28 O 0.69734 0.88574 0.32367 0.0
C29 C 0.77033 0.87842 0.18109 0.0
C30 C 0.85723 0.87924 0.05777 0.0
O31 O 0.84748 0.8605 0.02856 0.0
O32 O 0.85134 0.88642 0.1342 0.0
O33 O 0.62827 0.77015 0.14376 0.0
Cd34 Cd 0.64378 0.80842 0.18848 0.0
O35 O 0.60165 0.77273 0.2476 0.0
Cd36 Cd 0.57353 0.7555 0.32144 0.0
O37 O 0.55349 0.72489 0.36504 0.0
C38 C 0.55392 0.71884 0.44506 0.0
O39 O 0.5655 0.73196 0.50113 0.0
C40 C 0.61049 0.7617 0.18308 0.0
C41 C 0.6188 0.84384 0.10311 0.0
O42 O 0.63719 0.83469 0.06861 0.0
O43 O 0.61248 0.83658 0.17904 0.0
O44 O 0.25847 0.41163 0.35637 0.0
Cd45 Cd 0.29681 0.39878 0.30202 0.0
O46 O 0.24252 0.4039 0.2286 0.0
Cd47 Cd 0.21198 0.40733 0.14257 0.0
O48 O 0.17805 0.41972 0.0942 0.0
C49 C 0.17688 0.43108 0.02268 0.0
O50 O 0.19619 0.43447 0.97713 0.0
C51 C 0.24051 0.41103 0.30712 0.0
C52 C 0.33326 0.42179 0.38886 0.0
O53 O 0.32468 0.43017 0.3178 0.0
O54 O 0.32469 0.40249 0.41841 0.0
O55 O 0.0633 0.26812 0.30265 0.0
Cd56 Cd 0.07871 0.30685 0.26283 0.0
O57 O 0.06427 0.25795 0.16418 0.0
Cd58 Cd 0.0615 0.23113 0.06229 0.0
O59 O 0.05213 0.19669 0.01034 0.0
C60 C 0.04772 0.19305 0.93004 0.0
O61 O 0.04928 0.21058 0.87419 0.0
C62 C 0.05968 0.25285 0.24354 0.0
C63 C 0.05851 0.34254 0.36275 0.0
O64 O 0.04963 0.33652 0.289 0.0
O65 O 0.07696 0.33172 0.38907 0.0
O66 O 0.24011 0.08664 0.30806 0.0
Cd67 Cd 0.2026 0.10093 0.25105 0.0
O68 O 0.25917 0.10302 0.19871 0.0
Cd69 Cd 0.29182 0.10594 0.12408 0.0
O70 O 0.32631 0.09374 0.08136 0.0
C71 C 0.32677 0.07456 0.03884 0.0
O72 O 0.30683 0.06398 0.02078 0.0
C73 C 0.25933 0.09098 0.26894 0.0
C74 C 0.1654 0.07864 0.33635 0.0
O75 O 0.17394 0.07017 0.2654 0.0
O76 O 0.17427 0.09775 0.36608 0.0
O77 O 0.42186 0.2327 0.33398 0.0
Cd78 Cd 0.40902 0.19354 0.28727 0.0
O79 O 0.42101 0.24332 0.19585 0.0
Cd80 Cd 0.42882 0.27008 0.09758 0.0
O81 O 0.44156 0.30372 0.04844 0.0
C82 C 0.44371 0.30801 0.96727 0.0
O83 O 0.43792 0.29172 0.91027 0.0
C84 C 0.42439 0.24848 0.27581 0.0
C85 C 0.43226 0.15727 0.37461 0.0
O86 O 0.43997 0.1651 0.30129 0.0
O87 O 0.41364 0.16664 0.40652 0.0
La88 La 0.00765 0.97571 0.76947 0.0
La89 La 0.99722 0.9926 0.58318 0.0
C90 C 0.00503 0.95433 0.91316 0.0
C91 C 0.99385 0.93201 0.93987 0.0
C92 C 0.99892 0.91085 0.89637 0.0
C93 C 0.98738 0.89009 0.91969 0.0
C94 C 0.97058 0.88998 0.98726 0.0
C95 C 0.96545 0.91122 0.0305 0.0
C96 C 0.97701 0.93201 0.00703 0.0
C97 C 0.04438 0.98948 0.67902 0.0
C98 C -0.00044 0.93906 0.61199 0.0
C99 C 0.99712 0.01453 0.43989 0.0
C100 C 0.0018 0.03926 0.41665 0.0
C101 C 0.99531 0.05752 0.47358 0.0
C102 C 0.00094 0.08083 0.45369 0.0
C103 C 0.01298 0.08637 0.37604 0.0
C104 C 0.01908 0.0681 0.31824 0.0
C105 C 0.01363 0.04471 0.33868 0.0
C106 C 0.96079 0.97855 0.67627 0.0
C107 C 0.00618 0.02943 0.74008 0.0
O108 O 0.02321 0.95288 0.86056 0.0
O109 O 0.99054 0.97108 0.88997 0.0
O110 O 0.04268 0.99136 0.76345 0.0
O111 O 0.02683 0.97849 0.64989 0.0
O112 O 0.99814 0.94374 0.69694 0.0
O113 O 0.00276 0.9558 0.55287 0.0
O114 O 0.97822 0.01068 0.4868 0.0
O115 O 0.01521 0.00257 0.46865 0.0
O116 O 0.96262 0.97573 0.5923 0.0
O117 O 0.9783 0.98997 0.70285 0.0
O118 O 0.00599 0.02493 0.65489 0.0
O119 O 0.00407 0.01267 0.7996 0.0
H120 H 0.01163 0.91031 0.84361 0.0
H121 H 0.99142 0.87416 0.88383 0.0
H122 H 0.95274 0.91174 0.08326 0.0
H123 H 0.97269 0.94816 0.04105 0.0
H124 H 0.98604 0.0538 0.53396 0.0
H125 H 0.99576 0.09454 0.49896 0.0
H126 H 0.02851 0.07185 0.2582 0.0
H127 H 0.01887 0.03085 0.29409 0.0
La128 La 0.53172 0.99953 0.81762 0.0
La129 La 0.50586 0.98764 0.64728 0.0
C130 C 0.55774 0.9984 0.95069 0.0
C131 C 0.57894 0.98523 0.97524 0.0
C132 C 0.59334 0.99357 0.04259 0.0
C133 C 0.61368 0.98129 0.066 0.0
C134 C 0.61985 0.96024 0.02302 0.0
C135 C 0.60522 0.95198 0.95537 0.0
C136 C 0.58512 0.96451 0.93119 0.0
C137 C 0.51984 0.03573 0.72018 0.0
C138 C 0.55957 0.9803 0.64893 0.0
C139 C 0.48002 0.98916 0.51394 0.0
C140 C 0.45719 7e-05 0.49269 0.0
C141 C 0.43717 0.99594 0.54442 0.0
C142 C 0.41577 0.00661 0.52364 0.0
C143 C 0.41392 0.02158 0.45063 0.0
C144 C 0.43403 0.02579 0.39929 0.0
C145 C 0.45544 0.01511 0.42015 0.0
C146 C 0.51765 0.95146 0.74587 0.0
C147 C 0.47761 0.00611 0.81614 0.0
O148 O 0.56032 0.01359 0.88683 0.0
O149 O 0.53849 0.98592 0.94256 0.0
O150 O 0.5213 0.03636 0.80482 0.0
O151 O 0.52677 0.01597 0.69344 0.0
O152 O 0.55856 0.98263 0.73526 0.0
O153 O 0.54132 0.98469 0.59798 0.0
O154 O 0.47981 0.97178 0.57046 0.0
O155 O 0.49743 0.00377 0.52762 0.0
O156 O 0.51651 0.9508 0.66107 0.0
O157 O 0.51071 0.97132 0.7715 0.0
O158 O 0.47839 0.00289 0.73023 0.0
O159 O 0.49619 0.00328 0.86713 0.0
H160 H 0.58897 0.0097 0.07664 0.0
H161 H 0.62472 0.98856 0.1169 0.0
H162 H 0.60913 0.93576 0.92128 0.0
H163 H 0.57439 0.95801 0.87809 0.0
H164 H 0.43801 0.98448 0.60099 0.0
H165 H 0.40072 0.00328 0.56531 0.0
H166 H 0.43315 0.03702 0.34207 0.0
H167 H 0.47066 0.01856 0.37941 0.0
La168 La 0.49513 0.52262 0.80445 0.0
La169 La 0.50263 0.50543 0.61648 0.0
C170 C 0.5 0.54421 0.94665 0.0
C171 C 0.51121 0.56679 0.97021 0.0
C172 C 0.50348 0.58813 0.93366 0.0
C173 C 0.51465 0.60924 0.9548 0.0
C174 C 0.53378 0.60951 0.01295 0.0
C175 C 0.54165 0.58812 0.04886 0.0
C176 C 0.53042 0.56699 0.02782 0.0
C177 C 0.4569 0.51014 0.72048 0.0
C178 C 0.50256 0.55907 0.64518 0.0
C179 C 0.49994 0.48323 0.47433 0.0
C180 C 0.49322 0.45886 0.45284 0.0
C181 C 0.49909 0.44022 0.50909 0.0
C182 C 0.49171 0.41733 0.49075 0.0
C183 C 0.47853 0.41245 0.41501 0.0
C184 C 0.47295 0.43118 0.35813 0.0
C185 C 0.48015 0.45417 0.37716 0.0
C186 C 0.54069 0.51836 0.70205 0.0
C187 C 0.49421 0.469 0.77563 0.0
O188 O 0.48089 0.54528 0.89882 0.0
O189 O 0.5143 0.52762 0.9203 0.0
O190 O 0.45959 0.50805 0.80449 0.0
O191 O 0.47445 0.52055 0.6884 0.0
O192 O 0.50444 0.55435 0.72997 0.0
O193 O 0.49843 0.54247 0.58645 0.0
O194 O 0.51944 0.48575 0.51887 0.0
O195 O 0.48305 0.49664 0.5044 0.0
O196 O 0.53787 0.52095 0.61834 0.0
O197 O 0.52319 0.50755 0.73246 0.0
O198 O 0.49333 0.47361 0.69057 0.0
O199 O 0.49793 0.48557 0.83464 0.0
H200 H 0.48891 0.58859 0.8881 0.0
H201 H 0.50844 0.62535 0.92473 0.0
H202 H 0.55624 0.58775 0.09431 0.0
H203 H 0.5368 0.55075 0.05644 0.0
H204 H 0.50918 0.44334 0.568 0.0
H205 H 0.49601 0.40354 0.53703 0.0
H206 H 0.46317 0.4281 0.29848 0.0
H207 H 0.47545 0.46831 0.33286 0.0
La208 La 0.96843 0.5019 0.82636 0.0
La209 La 0.99199 0.51276 0.65022 0.0
C210 C 0.94441 0.504 0.96475 0.0
C211 C 0.92346 0.51707 0.99281 0.0
C212 C 0.91268 0.51154 0.07264 0.0
C213 C 0.89251 0.5236 0.09942 0.0
C214 C 0.88276 0.54141 0.0466 0.0
C215 C 0.89386 0.54707 0.96693 0.0
C216 C 0.91401 0.53499 0.94031 0.0
C217 C 0.9795 0.46515 0.73052 0.0
C218 C 0.93812 0.51834 0.65904 0.0
C219 C 0.01708 0.51093 0.51504 0.0
C220 C 0.03949 0.49926 0.49481 0.0
C221 C 0.05577 0.51054 0.44026 0.0
C222 C 0.07776 0.50043 0.42481 0.0
C223 C 0.08375 0.47876 0.46328 0.0
C224 C 0.06727 0.46732 0.5171 0.0
C225 C 0.04539 0.47759 0.53335 0.0
C226 C 0.98002 0.54968 0.74424 0.0
C227 C 0.02243 0.49568 0.81538 0.0
O228 O 0.94106 0.48825 0.90347 0.0
O229 O 0.96322 0.5167 0.95042 0.0
O230 O 0.97938 0.46503 0.81542 0.0
O231 O 0.97201 0.48464 0.70349 0.0
O232 O 0.9401 0.51681 0.74547 0.0
O233 O 0.956 0.5143 0.60577 0.0
O234 O 0.01837 0.52797 0.57248 0.0
O235 O 0.99899 0.49711 0.52881 0.0
O236 O 0.98072 0.54941 0.65938 0.0
O237 O 0.98782 0.53035 0.77242 0.0
O238 O 0.02025 0.49763 0.72939 0.0
O239 O 0.00465 0.49935 0.86949 0.0
H240 H 0.91983 0.49783 0.11416 0.0
H241 H 0.8846 0.51903 0.16168 0.0
H242 H 0.88672 0.56048 0.92414 0.0
H243 H 0.92212 0.53955 0.87853 0.0
H244 H 0.05158 0.52734 0.41049 0.0
H245 H 0.09006 0.5095 0.38241 0.0
H246 H 0.07151 0.45072 0.54828 0.0
H247 H 0.03327 0.46877 0.57707 0.0
H248 H 0.14585 0.0906 0.49361 0.0
H249 H 0.05677 0.98147 0.50849 0.0
H250 H 0.14152 0.03876 0.28791 0.0
H251 H 0.07113 0.02666 0.7285 0.0
H252 H 0.08516 0.00401 0.42084 0.0
H253 H 0.11564 0.06928 0.57471 0.0
C254 C 0.13848 0.07478 0.46528 0.0
C255 C 0.14633 0.0664 0.384 0.0
C256 C 0.08209 0.00897 0.4883 0.0
C257 C 0.1117 0.04183 0.47678 0.0
C258 C 0.06587 0.9962 0.53804 0.0
C259 C 0.06165 0.00232 0.62546 0.0
C260 C 0.09406 0.028 0.52651 0.0
C261 C 0.07402 0.02131 0.66134 0.0
C262 C 0.12126 0.06257 0.51178 0.0
C263 C 0.13608 0.0458 0.35052 0.0
N264 N 0.08961 0.03352 0.61167 0.0
N265 N 0.11931 0.03419 0.39713 0.0
H266 H 0.46917 0.13032 0.31719 0.0
H267 H 0.48701 0.06653 0.77845 0.0
H268 H 0.42349 0.14073 0.53954 0.0
H269 H 0.52273 0.04415 0.54391 0.0
H270 H 0.46478 0.09508 0.69233 0.0
H271 H 0.49002 0.09966 0.3989 0.0
C272 C 0.4635 0.12614 0.38311 0.0
C273 C 0.44463 0.1382 0.42179 0.0
C274 C 0.4774 0.0839 0.65941 0.0
C275 C 0.46848 0.10327 0.51562 0.0
C276 C 0.4902 0.06772 0.70864 0.0
C277 C 0.50666 0.05303 0.66791 0.0
C278 C 0.48133 0.08564 0.56885 0.0
C279 C 0.51 0.05509 0.57735 0.0
C280 C 0.47537 0.10861 0.42957 0.0
C281 C 0.43797 0.13196 0.50717 0.0
N282 N 0.49751 0.07121 0.5307 0.0
N283 N 0.44996 0.11505 0.55134 0.0
H284 H 0.35295 0.41009 0.54632 0.0
H285 H 0.44275 0.51868 0.55245 0.0
H286 H 0.3568 0.46179 0.33953 0.0
H287 H 0.43011 0.47322 0.77365 0.0
H288 H 0.41339 0.49656 0.46846 0.0
H289 H 0.38346 0.4314 0.62567 0.0
C290 C 0.36025 0.4259 0.51745 0.0
C291 C 0.35223 0.43421 0.43628 0.0
C292 C 0.41702 0.49145 0.5354 0.0
C293 C 0.3872 0.45875 0.52696 0.0
C294 C 0.4338 0.504 0.58307 0.0
C295 C 0.43882 0.49766 0.66968 0.0
C296 C 0.40527 0.47243 0.5749 0.0
C297 C 0.42661 0.47873 0.70704 0.0
C298 C 0.37764 0.4381 0.56293 0.0
C299 C 0.36238 0.45479 0.40207 0.0
N300 N 0.41045 0.46673 0.65935 0.0
N301 N 0.37934 0.46636 0.44761 0.0
H302 H 0.07087 0.35676 0.5276 0.0
H303 H 0.97269 0.45733 0.55647 0.0
H304 H 0.02134 0.37098 0.32024 0.0
H305 H 0.01185 0.43241 0.77951 0.0
H306 H 0.99269 0.42819 0.46461 0.0
H307 H 0.05195 0.38703 0.61663 0.0
C308 C 0.05605 0.36627 0.50069 0.0
C309 C 0.04761 0.36124 0.41646 0.0
C310 C 0.99687 0.42905 0.53367 0.0
C311 C 0.02587 0.39592 0.51808 0.0
C312 C 0.98553 0.44569 0.58588 0.0
C313 C 0.99071 0.44718 0.67531 0.0
C314 C 0.01358 0.41391 0.57133 0.0
C315 C 0.00729 0.43165 0.71077 0.0
C316 C 0.04522 0.38352 0.55166 0.0
C317 C 0.02837 0.37419 0.38496 0.0
N318 N 0.01823 0.4157 0.65856 0.0
N319 N 0.01815 0.39093 0.43578 0.0
H320 H 0.8738 0.86836 0.89434 0.0
H321 H 0.94821 0.9874 0.8451 0.0
H322 H 0.87885 0.92096 0.09708 0.0
H323 H 0.93874 0.93735 0.63635 0.0
H324 H 0.92473 0.96218 0.94166 0.0
H325 H 0.89975 0.89212 0.80233 0.0
C326 C 0.88041 0.88487 0.91963 0.0
C327 C 0.87401 0.89275 0.00337 0.0
C328 C 0.92773 0.95672 0.8747 0.0
C329 C 0.90364 0.92011 0.89813 0.0
C330 C 0.94115 0.97107 0.8198 0.0
C331 C 0.94542 0.96434 0.73312 0.0
C332 C 0.91842 0.93555 0.84228 0.0
C333 C 0.93567 0.94322 0.70278 0.0
C334 C 0.89521 0.89845 0.86699 0.0
C335 C 0.88323 0.91424 0.03285 0.0
N336 N 0.92266 0.92953 0.75739 0.0
N337 N 0.89751 0.9272 0.98018 0.0
H338 H 0.58037 0.8685 0.16095 0.0
H339 H 0.55229 0.9224 0.68879 0.0
H340 H 0.62482 0.85896 0.93459 0.0
H341 H 0.51536 0.94362 0.92224 0.0
H342 H 0.57761 0.89721 0.77757 0.0
H343 H 0.55546 0.89503 0.07529 0.0
C344 C 0.58496 0.87207 0.09341 0.0
C345 C 0.60462 0.86135 0.05468 0.0
C346 C 0.56395 0.9073 0.80958 0.0
C347 C 0.57605 0.89144 0.95617 0.0
C348 C 0.54939 0.92153 0.75883 0.0
C349 C 0.53182 0.93509 0.79861 0.0
C350 C 0.5607 0.90635 0.90068 0.0
C351 C 0.52888 0.93352 0.8895 0.0
C352 C 0.57072 0.8872 0.04457 0.0
C353 C 0.60979 0.86672 0.96708 0.0
N354 N 0.54318 0.91935 0.93768 0.0
N355 N 0.5955 0.88124 0.92066 0.0
H356 H 0.62307 0.5791 0.12094 0.0
H357 H 0.56192 0.55932 0.65449 0.0
H358 H 0.63191 0.62584 0.90034 0.0
H359 H 0.55589 0.51031 0.86891 0.0
H360 H 0.58672 0.58449 0.74537 0.0
H361 H 0.59705 0.55455 0.03233 0.0
C362 C 0.61954 0.58422 0.05391 0.0
C363 C 0.62978 0.60452 0.01789 0.0
C364 C 0.58004 0.56823 0.77271 0.0
C365 C 0.60013 0.5764 0.91598 0.0
C366 C 0.56602 0.55379 0.72065 0.0
C367 C 0.55684 0.53281 0.7547 0.0
C368 C 0.58508 0.56152 0.85924 0.0
C369 C 0.56246 0.52653 0.84086 0.0
C370 C 0.6047 0.57016 0.00332 0.0
C371 C 0.62449 0.61032 0.93077 0.0
N372 N 0.57621 0.54085 0.89036 0.0
N373 N 0.61008 0.59631 0.88281 0.0
H374 H 0.8676 0.64013 0.93888 0.0
H375 H 0.94552 0.57774 0.6806 0.0
H376 H 0.92162 0.63781 0.13694 0.0
H377 H 0.98076 0.55899 0.92041 0.0
H378 H 0.91969 0.60367 0.76219 0.0
H379 H 0.89025 0.61269 0.85086 0.0
C380 C 0.88436 0.63398 0.96354 0.0
C381 C 0.89286 0.64154 0.04493 0.0
C382 C 0.93262 0.59359 0.79794 0.0
C383 C 0.91953 0.61065 0.9426 0.0
C384 C 0.9477 0.57903 0.75089 0.0
C385 C 0.96506 0.56601 0.79421 0.0
C386 C 0.9349 0.59517 0.88938 0.0
C387 C 0.96723 0.56841 0.88507 0.0
C388 C 0.89751 0.61848 0.91254 0.0
C389 C 0.91448 0.63261 0.07421 0.0
N390 N 0.95232 0.58278 0.92979 0.0
N391 N 0.92711 0.61769 0.02294 0.0
H392 H 0.0708 0.22738 0.38923 0.0
H393 H 0.00828 0.11004 0.22059 0.0
H394 H 0.02871 0.22469 0.15494 0.0
H395 H 0.03211 0.119 0.48657 0.0
H396 H 0.01861 0.15109 0.19027 0.0
H397 H 0.05888 0.18695 0.42341 0.0
C398 C 0.05909 0.21824 0.34492 0.0
C399 C 0.0514 0.22905 0.26753 0.0
C400 C 0.02151 0.14408 0.25533 0.0
C401 C 0.03778 0.1829 0.30581 0.0
C402 C 0.01578 0.12063 0.27245 0.0
C403 C 0.01931 0.11113 0.35623 0.0
C404 C 0.03112 0.15805 0.32216 0.0
C405 C 0.02887 0.1257 0.42131 0.0
C406 C 0.05234 0.19518 0.3643 0.0
C407 C 0.036 0.21658 0.21296 0.0
N408 N 0.03454 0.1484 0.4028 0.0
N409 N 0.02987 0.19408 0.23265 0.0
H410 H 0.26665 0.04751 0.33977 0.0
H411 H 0.40553 0.06659 0.39315 0.0
H412 H 0.30227 0.1123 0.27684 0.0
H413 H 0.37012 0.00148 0.45513 0.0
H414 H 0.36776 0.08386 0.35263 0.0
H415 H 0.30418 0.0307 0.38771 0.0
C416 C 0.28241 0.05817 0.33619 0.0
C417 C 0.28155 0.08108 0.30232 0.0
C418 C 0.36823 0.06581 0.37533 0.0
C419 C 0.32444 0.06212 0.35699 0.0
C420 C 0.38983 0.05589 0.39797 0.0
C421 C 0.39103 0.03252 0.42748 0.0
C422 C 0.34763 0.05229 0.38216 0.0
C423 C 0.37002 0.01964 0.43377 0.0
C424 C 0.30382 0.04858 0.3632 0.0
C425 C 0.30236 0.09427 0.29971 0.0
N426 N 0.34922 0.02968 0.41112 0.0
N427 N 0.32298 0.08457 0.32623 0.0
H428 H 0.40586 0.28963 0.21651 0.0
H429 H 0.50186 0.37083 0.44648 0.0
H430 H 0.45839 0.26201 0.39185 0.0
H431 H 0.43692 0.39799 0.3404 0.0
H432 H 0.48806 0.33093 0.4177 0.0
H433 H 0.4189 0.32957 0.25103 0.0
C434 C 0.42026 0.29204 0.26199 0.0
C435 C 0.4314 0.27258 0.30022 0.0
C436 C 0.47684 0.34564 0.40096 0.0
C437 C 0.44623 0.31816 0.34091 0.0
C438 C 0.48464 0.36849 0.4177 0.0
C439 C 0.47055 0.38798 0.3961 0.0
C440 C 0.45488 0.34216 0.36135 0.0
C441 C 0.44862 0.38366 0.35697 0.0
C442 C 0.42756 0.31481 0.28218 0.0
C443 C 0.44948 0.27661 0.36066 0.0
N444 N 0.44151 0.36125 0.34065 0.0
N445 N 0.45651 0.29898 0.37859 0.0
H446 H 0.19763 0.39066 0.28479 0.0
H447 H 0.12653 0.50054 0.47065 0.0
H448 H 0.23157 0.45039 0.40372 0.0
H449 H 0.0943 0.43317 0.42094 0.0
H450 H 0.16507 0.48324 0.44038 0.0
H451 H 0.15941 0.40651 0.32862 0.0
C452 C 0.19696 0.40717 0.32005 0.0
C453 C 0.21763 0.41952 0.3393 0.0
C454 C 0.14959 0.47221 0.43657 0.0
C455 C 0.17412 0.43765 0.39036 0.0
C456 C 0.1276 0.4821 0.45322 0.0
C457 C 0.10723 0.46828 0.44778 0.0
C458 C 0.15119 0.44838 0.41322 0.0
C459 C 0.1096 0.44441 0.42618 0.0
C460 C 0.1752 0.41612 0.34559 0.0
C461 C 0.21595 0.44046 0.38723 0.0
N462 N 0.13118 0.43525 0.40896 0.0
N463 N 0.19451 0.44904 0.41032 0.0
H464 H 0.86957 0.78198 0.13622 0.0
H465 H 0.98982 0.84595 0.00075 0.0
H466 H 0.93714 0.74777 0.12791 0.0
H467 H 0.9244 0.88325 0.03339 0.0
H468 H 0.97004 0.80948 0.04062 0.0
H469 H 0.88842 0.81896 0.09051 0.0
C470 C 0.88837 0.78231 0.12482 0.0
C471 C 0.90198 0.76205 0.13786 0.0
C472 C 0.95993 0.82562 0.03889 0.0
C473 C 0.92355 0.80394 0.08528 0.0
C474 C 0.97121 0.84646 0.01555 0.0
C475 C 0.95868 0.86772 0.01284 0.0
C476 C 0.93588 0.8259 0.05961 0.0
C477 C 0.93471 0.8673 0.03475 0.0
C478 C 0.89911 0.80337 0.09912 0.0
C479 C 0.92617 0.76323 0.12133 0.0
N480 N 0.92404 0.84672 0.05695 0.0
N481 N 0.93619 0.78381 0.09619 0.0
H482 H 0.74294 0.8696 0.03819 0.0
H483 H 0.63981 0.95549 0.18639 0.0
H484 H 0.74798 0.91459 0.26444 0.0
H485 H 0.6498 0.93506 0.91637 0.0
H486 H 0.67656 0.93583 0.22365 0.0
H487 H 0.70583 0.88895 0.99884 0.0
C488 C 0.73612 0.88341 0.07989 0.0
C489 C 0.74806 0.88995 0.15639 0.0
C490 C 0.67061 0.93563 0.15634 0.0
C491 C 0.70589 0.9121 0.11186 0.0
C492 C 0.64969 0.94701 0.13469 0.0
C493 C 0.64163 0.94724 0.04769 0.0
C494 C 0.68344 0.92399 0.09106 0.0
C495 C 0.655 0.93519 0.98446 0.0
C496 C 0.71502 0.89443 0.05742 0.0
C497 C 0.73875 0.90822 0.20734 0.0
N498 N 0.67521 0.92403 0.00744 0.0
N499 N 0.71813 0.91857 0.18449 0.0
H500 H 0.63312 0.72144 0.13188 0.0
H501 H 0.51268 0.65168 0.04906 0.0
H502 H 0.56413 0.75147 0.16516 0.0
H503 H 0.58079 0.61881 0.03178 0.0
H504 H 0.53165 0.68875 0.08674 0.0
H505 H 0.61481 0.68402 0.08867 0.0
C506 C 0.61413 0.72009 0.13015 0.0
C507 C 0.60005 0.73928 0.15418 0.0
C508 C 0.54252 0.67346 0.07459 0.0
C509 C 0.57905 0.69688 0.1045 0.0
C510 C 0.53168 0.65229 0.05257 0.0
C511 C 0.54522 0.63211 0.03674 0.0
C512 C 0.56713 0.67457 0.08068 0.0
C513 C 0.56975 0.6339 0.04398 0.0
C514 C 0.6037 0.69878 0.10584 0.0
C515 C 0.57558 0.73682 0.14995 0.0
N516 N 0.57995 0.65476 0.0652 0.0
N517 N 0.56586 0.71601 0.12594 0.0
H518 H 0.74375 0.57466 0.24205 0.0
H519 H 0.87176 0.58817 0.03039 0.0
H520 H 0.76603 0.63669 0.10223 0.0
H521 H 0.84358 0.52233 0.12377 0.0
H522 H 0.83459 0.60742 0.06715 0.0
H523 H 0.78158 0.55617 0.20963 0.0
C524 C 0.75677 0.58445 0.20525 0.0
C525 C 0.75205 0.60735 0.17607 0.0
C526 C 0.83654 0.58876 0.07957 0.0
C527 C 0.79522 0.5863 0.13786 0.0
C528 C 0.85772 0.57776 0.0582 0.0
C529 C 0.86076 0.55358 0.07313 0.0
C530 C 0.81825 0.57548 0.11661 0.0
C531 C 0.84216 0.54104 0.11167 0.0
C532 C 0.77826 0.57384 0.18611 0.0
C533 C 0.76917 0.61906 0.12643 0.0
N534 N 0.82171 0.55212 0.13185 0.0
N535 N 0.79011 0.60846 0.10936 0.0
H536 H 0.04063 0.1777 0.76203 0.0
H537 H 0.00475 0.04706 0.90721 0.0
H538 H 0.03855 0.15432 0.03102 0.0
H539 H 0.018 0.06749 0.63936 0.0
H540 H 0.01387 0.08717 0.95354 0.0
H541 H 0.02914 0.1382 0.71543 0.0
C542 C 0.03773 0.16428 0.8113 0.0
C543 C 0.04065 0.16931 0.90052 0.0
C544 C 0.01464 0.08288 0.88455 0.0
C545 C 0.0274 0.12411 0.84771 0.0
C546 C 0.00939 0.05998 0.858 0.0
C547 C 0.01041 0.05389 0.76907 0.0
C548 C 0.02094 0.09983 0.82174 0.0
C549 C 0.01661 0.07141 0.70838 0.0
C550 C 0.03119 0.14173 0.78465 0.0
C551 C 0.03662 0.15123 0.96149 0.0
N552 N 0.02165 0.09356 0.73582 0.0
N553 N 0.03019 0.12945 0.93394 0.0
H554 H 0.37136 0.08558 0.09406 0.0
H555 H 0.43377 0.00209 0.74646 0.0
H556 H 0.33344 0.0395 0.9197 0.0
H557 H 0.47046 0.02921 0.9719 0.0
H558 H 0.3972 0.01811 0.80377 0.0
H559 H 0.40832 0.06766 0.04503 0.0
C560 C 0.37081 0.07175 0.04536 0.0
C561 C 0.3493 0.06408 0.01052 0.0
C562 C 0.41319 0.02043 0.84116 0.0
C563 C 0.39139 0.04364 0.95429 0.0
C564 C 0.43412 0.01133 0.80832 0.0
C565 C 0.45521 0.0143 0.85445 0.0
C566 C 0.41331 0.03293 0.9203 0.0
C567 C 0.45456 0.02639 0.93453 0.0
C568 C 0.39187 0.06146 0.01786 0.0
C569 C 0.34959 0.04597 0.94826 0.0
N570 N 0.43394 0.03546 0.96466 0.0
N571 N 0.3703 0.03649 0.92174 0.0
H572 H 0.44836 0.32417 0.79917 0.0
H573 H 0.49802 0.4504 0.94125 0.0
H574 H 0.45909 0.3447 0.06831 0.0
H575 H 0.47752 0.43252 0.67755 0.0
H576 H 0.48698 0.41072 0.98828 0.0
H577 H 0.46227 0.36284 0.75235 0.0
C578 C 0.45368 0.33678 0.84843 0.0
C579 C 0.45247 0.3312 0.93778 0.0
C580 C 0.48508 0.41547 0.91998 0.0
C581 C 0.46845 0.37552 0.88466 0.0
C582 C 0.49141 0.43811 0.89307 0.0
C583 C 0.48895 0.44476 0.80505 0.0
C584 C 0.47622 0.3994 0.85842 0.0
C585 C 0.48018 0.4281 0.74564 0.0
C586 C 0.4616 0.35888 0.82167 0.0
C587 C 0.45964 0.34825 0.9987 0.0
N588 N 0.47412 0.40625 0.7734 0.0
N589 N 0.46731 0.36965 0.971 0.0
H590 H 0.16735 0.45226 0.86587 0.0
H591 H 0.03339 0.48214 0.98355 0.0
H592 H 0.13486 0.43265 0.11083 0.0
H593 H 0.06372 0.49056 0.72609 0.0
H594 H 0.07111 0.46679 0.03584 0.0
H595 H 0.13004 0.46899 0.81762 0.0
C596 C 0.15237 0.45146 0.90955 0.0
C597 C 0.15423 0.44097 0.9924 0.0
C598 C 0.06947 0.47207 0.96798 0.0
C599 C 0.11141 0.46023 0.9377 0.0
C600 C 0.04798 0.48093 0.93818 0.0
C601 C 0.04534 0.48765 0.85028 0.0
C602 C 0.08846 0.47005 0.90957 0.0
C603 C 0.06485 0.48557 0.79437 0.0
C604 C 0.13104 0.46101 0.88192 0.0
C605 C 0.13419 0.44046 0.0462 0.0
N606 N 0.08552 0.47697 0.82495 0.0
N607 N 0.11362 0.45 0.01797 0.0
H608 H 0.97384 0.81255 0.3098 0.0
H609 H 0.98617 0.90157 0.71211 0.0
H610 H 0.95531 0.79558 0.57667 0.0
H611 H 0.00339 0.92061 0.44597 0.0
H612 H 0.97778 0.86174 0.66412 0.0
H613 H 0.98772 0.8511 0.3588 0.0
C614 C 0.9729 0.81682 0.37881 0.0
C615 C 0.96328 0.80084 0.43923 0.0
C616 C 0.98355 0.87453 0.61611 0.0
C617 C 0.97902 0.84495 0.49551 0.0
C618 C 0.98848 0.89734 0.64362 0.0
C619 C 0.99564 0.91452 0.58312 0.0
C620 C 0.98562 0.86873 0.52715 0.0
C621 C 0.99792 0.90796 0.49492 0.0
C622 C 0.98077 0.83887 0.40665 0.0
C623 C 0.96247 0.80736 0.5277 0.0
N624 N 0.99284 0.88559 0.4695 0.0
N625 N 0.97012 0.82893 0.55303 0.0
H626 H 0.69722 0.91946 0.55673 0.0
H627 H 0.56687 0.96776 0.47788 0.0
H628 H 0.65616 0.90393 0.32637 0.0
H629 H 0.60117 0.96925 0.73003 0.0
H630 H 0.60125 0.94808 0.41659 0.0
H631 H 0.6637 0.94099 0.61724 0.0
C632 C 0.68117 0.92055 0.5189 0.0
C633 C 0.67949 0.90984 0.43639 0.0
C634 C 0.60128 0.95279 0.48527 0.0
C635 C 0.64119 0.93464 0.50488 0.0
C636 C 0.58169 0.96416 0.5203 0.0
C637 C 0.58108 0.9702 0.60936 0.0
C638 C 0.62049 0.94749 0.53944 0.0
C639 C 0.60082 0.96495 0.66103 0.0
C640 C 0.66205 0.93284 0.5535 0.0
C641 C 0.65825 0.91184 0.39031 0.0
N642 N 0.61971 0.95388 0.62532 0.0
N643 N 0.63997 0.92407 0.42503 0.0
H644 H 0.53337 0.68479 0.34323 0.0
H645 H 0.51519 0.59661 0.74609 0.0
H646 H 0.55032 0.70149 0.61153 0.0
H647 H 0.50082 0.57732 0.47805 0.0
H648 H 0.52509 0.63611 0.69799 0.0
H649 H 0.51844 0.64652 0.39136 0.0
C650 C 0.53378 0.68051 0.41234 0.0
C651 C 0.54322 0.69635 0.47346 0.0
C652 C 0.51964 0.62333 0.64955 0.0
C653 C 0.52623 0.65255 0.52878 0.0
C654 C 0.51387 0.6007 0.67706 0.0
C655 C 0.5071 0.58352 0.61607 0.0
C656 C 0.51875 0.62898 0.56016 0.0
C657 C 0.50595 0.58996 0.5274 0.0
C658 C 0.5253 0.65862 0.43969 0.0
C659 C 0.54332 0.68982 0.56204 0.0
N660 N 0.51182 0.61217 0.50203 0.0
N661 N 0.53505 0.66842 0.5869 0.0
H662 H 0.83504 0.58761 0.33492 0.0
H663 H 0.8962 0.5253 0.74382 0.0
H664 H 0.79661 0.56563 0.56466 0.0
H665 H 0.92888 0.53092 0.48934 0.0
H666 H 0.86011 0.54177 0.68258 0.0
H667 H 0.87028 0.56883 0.39379 0.0
C668 C 0.83405 0.57891 0.39796 0.0
C669 C 0.81291 0.5783 0.4453 0.0
C670 C 0.87513 0.53922 0.64006 0.0
C671 C 0.85318 0.55677 0.51303 0.0
C672 C 0.89577 0.52983 0.67496 0.0
C673 C 0.91564 0.52669 0.62164 0.0
C674 C 0.87441 0.54575 0.55142 0.0
C675 C 0.91401 0.53294 0.53291 0.0
C676 C 0.85414 0.56807 0.43129 0.0
C677 C 0.81256 0.56652 0.52609 0.0
N678 N 0.89381 0.5423 0.50075 0.0
N679 N 0.83244 0.55635 0.55772 0.0
loop_
_geom_bond_atom_site_label_1
_geom_bond_atom_site_label_2
_geom_bond_distance
_geom_bond_site_symmetry_2
_ccdc_geom_bond_type
O0 Cd1 2.300 . S
O0 C7 1.275 . S
Cd1 O0 2.300 . S
Cd1 O9 2.381 . S
Cd1 O10 2.378 . S
O2 Cd3 2.385 . S
O2 C7 1.255 . S
Cd3 O2 2.385 . S
Cd3 O4 2.317 . S
O4 Cd3 2.317 . S
O4 C5 1.232 . S
C5 O4 1.232 . S
C5 O6 1.218 . S
O6 C5 1.218 . S
C7 O0 1.275 . S
C7 O2 1.255 . S
C8 O9 1.258 . S
C8 O10 1.256 . S
O9 Cd1 2.381 . S
O9 C8 1.258 . S
O10 Cd1 2.378 . S
O10 C8 1.256 . S
O11 Cd12 2.300 1_655 S
O11 C18 1.275 1_655 S
Cd12 O11 2.300 1_455 S
Cd12 O20 2.381 1_455 S
Cd12 O21 2.378 . S
O13 Cd14 2.385 . S
O13 C18 1.255 . S
Cd14 O13 2.385 . S
Cd14 O15 2.317 . S
O15 Cd14 2.317 . S
O15 C16 1.232 . S
C16 O15 1.232 . S
C16 O17 1.218 . S
O17 C16 1.218 . S
C18 O11 1.275 1_455 S
C18 O13 1.255 . S
C19 O20 1.258 1_455 S
C19 O21 1.256 . S
O20 Cd12 2.381 1_655 S
O20 C19 1.258 1_655 S
O21 Cd12 2.378 . S
O21 C19 1.256 . S
O22 Cd23 2.300 1_565 S
O22 C29 1.275 1_565 S
Cd23 O22 2.300 1_545 S
Cd23 O31 2.381 1_545 S
Cd23 O32 2.378 . S
O24 Cd25 2.385 . S
O24 C29 1.255 . S
Cd25 O24 2.385 . S
Cd25 O26 2.317 . S
O26 Cd25 2.317 . S
O26 C27 1.232 . S
C27 O26 1.232 . S
C27 O28 1.218 . S
O28 C27 1.218 . S
C29 O22 1.275 1_545 S
C29 O24 1.255 . S
C30 O31 1.258 1_545 S
C30 O32 1.256 . S
O31 Cd23 2.381 1_565 S
O31 C30 1.258 1_565 S
O32 Cd23 2.378 . S
O32 C30 1.256 . S
O33 Cd34 2.300 . S
O33 C40 1.275 . S
Cd34 O33 2.300 . S
Cd34 O42 2.381 . S
Cd34 O43 2.378 . S
O35 Cd36 2.385 . S
O35 C40 1.255 . S
Cd36 O35 2.385 . S
Cd36 O37 2.317 . S
O37 Cd36 2.317 . S
O37 C38 1.232 . S
C38 O37 1.232 . S
C38 O39 1.218 . S
O39 C38 1.218 . S
C40 O33 1.275 . S
C40 O35 1.255 . S
C41 O42 1.258 . S
C41 O43 1.256 . S
O42 Cd34 2.381 . S
O42 C41 1.258 . S
O43 Cd34 2.378 . S
O43 C41 1.256 . S
O44 Cd45 2.300 . S
O44 C51 1.275 . S
Cd45 O44 2.300 . S
Cd45 O53 2.381 . S
Cd45 O54 2.378 . S
O46 Cd47 2.385 1_554 S
O46 C51 1.255 . S
Cd47 O46 2.385 1_556 S
Cd47 O48 2.317 . S
O48 Cd47 2.317 . S
O48 C49 1.232 . S
C49 O48 1.232 . S
C49 O50 1.218 . S
O50 C49 1.218 . S
C51 O44 1.275 . S
C51 O46 1.255 . S
C52 O53 1.258 . S
C52 O54 1.256 . S
O53 Cd45 2.381 . S
O53 C52 1.258 . S
O54 Cd45 2.378 . S
O54 C52 1.256 . S
O55 Cd56 2.300 1_655 S
O55 C62 1.275 1_655 S
Cd56 O55 2.300 1_455 S
Cd56 O64 2.381 1_455 S
Cd56 O65 2.378 . S
O57 Cd58 2.385 1_554 S
O57 C62 1.255 . S
Cd58 O57 2.385 1_556 S
Cd58 O59 2.317 . S
O59 Cd58 2.317 . S
O59 C60 1.232 . S
C60 O59 1.232 . S
C60 O61 1.218 . S
O61 C60 1.218 . S
C62 O55 1.275 1_455 S
C62 O57 1.255 . S
C63 O64 1.258 1_455 S
C63 O65 1.256 . S
O64 Cd56 2.381 1_655 S
O64 C63 1.258 1_655 S
O65 Cd56 2.378 . S
O65 C63 1.256 . S
O66 Cd67 2.300 1_565 S
O66 C73 1.275 1_565 S
Cd67 O66 2.300 1_545 S
Cd67 O75 2.381 1_545 S
Cd67 O76 2.378 . S
O68 Cd69 2.385 1_554 S
O68 C73 1.255 . S
Cd69 O68 2.385 1_556 S
Cd69 O70 2.317 . S
O70 Cd69 2.317 . S
O70 C71 1.232 . S
C71 O70 1.232 . S
C71 O72 1.218 . S
O72 C71 1.218 . S
C73 O66 1.275 1_545 S
C73 O68 1.255 . S
C74 O75 1.258 1_545 S
C74 O76 1.256 . S
O75 Cd67 2.381 1_565 S
O75 C74 1.258 1_565 S
O76 Cd67 2.378 . S
O76 C74 1.256 . S
O77 Cd78 2.300 . S
O77 C84 1.275 . S
Cd78 O77 2.300 . S
Cd78 O86 2.381 . S
Cd78 O87 2.378 . S
O79 Cd80 2.385 1_554 S
O79 C84 1.255 . S
Cd80 O79 2.385 1_556 S
Cd80 O81 2.317 . S
O81 Cd80 2.317 . S
O81 C82 1.232 . S
C82 O81 1.232 . S
C82 O83 1.218 . S
O83 C82 1.218 . S
C84 O77 1.275 . S
C84 O79 1.255 . S
C85 O86 1.258 . S
C85 O87 1.256 . S
O86 Cd78 2.381 . S
O86 C85 1.258 . S
O87 Cd78 2.378 . S
O87 C85 1.256 . S
La88 C90 2.928 . S
La88 O108 2.521 . S
La88 O109 2.628 . S
La88 O110 2.554 . S
La88 O111 2.757 1_565 S
La88 O112 2.470 . S
La88 O117 2.482 1_455 S
La88 O119 2.503 1_565 S
La89 C99 2.928 . S
La89 O111 2.482 1_655 S
La89 O113 2.503 1_545 S
La89 O114 2.521 . S
La89 O115 2.628 . S
La89 O116 2.554 . S
La89 O117 2.757 1_545 S
La89 O118 2.470 . S
C90 La88 2.928 . S
C90 C91 1.503 . S
C90 O108 1.261 . S
C90 O109 1.243 . S
C91 C90 1.503 . S
C91 C92 1.394 . S
C91 C96 1.373 . S
C92 C91 1.394 . S
C92 C93 1.380 1_556 S
C92 H120 0.930 . S
C93 C92 1.380 1_554 S
C93 C94 1.376 . S
C93 H121 0.930 . S
C94 C93 1.376 . S
C94 C95 1.370 . S
C95 C94 1.370 . S
C95 C96 1.396 1_554 S
C95 H122 0.929 1_455 S
C96 C91 1.373 . S
C96 C95 1.396 1_556 S
C96 H123 0.929 1_455 S
C97 O110 1.267 . S
C97 O111 1.273 1_565 S
C98 O112 1.258 1_655 S
C98 O113 1.256 . S
C99 La89 2.928 . S
C99 C100 1.503 . S
C99 O114 1.261 . S
C99 O115 1.243 . S
C100 C99 1.503 . S
C100 C101 1.394 . S
C100 C105 1.373 . S
C101 C100 1.394 . S
C101 C102 1.380 . S
C101 H124 0.930 . S
C102 C101 1.380 . S
C102 C103 1.376 . S
C102 H125 0.930 . S
C103 C102 1.376 . S
C103 C104 1.370 . S
C104 C103 1.370 . S
C104 C105 1.396 . S
C104 H126 0.929 1_655 S
C105 C100 1.373 . S
C105 C104 1.396 . S
C105 H127 0.929 1_655 S
C106 O116 1.240 . S
C106 O117 1.289 1_545 S
C107 O118 1.258 1_455 S
C107 O119 1.256 . S
O108 La88 2.521 . S
O108 C90 1.261 . S
O109 La88 2.628 . S
O109 C90 1.243 . S
O110 La88 2.554 . S
O110 C97 1.267 . S
O111 La88 2.757 1_545 S
O111 La89 2.482 1_455 S
O111 C97 1.273 1_545 S
O112 La88 2.470 . S
O112 C98 1.258 1_455 S
O113 La89 2.503 1_565 S
O113 C98 1.256 . S
O114 La89 2.521 . S
O114 C99 1.261 . S
O115 La89 2.628 . S
O115 C99 1.243 . S
O116 La89 2.554 . S
O116 C106 1.240 . S
O117 La88 2.482 1_655 S
O117 La89 2.757 1_565 S
O117 C106 1.289 1_565 S
O118 La89 2.470 . S
O118 C107 1.258 1_655 S
O119 La88 2.503 1_545 S
O119 C107 1.256 . S
H120 C92 0.930 . S
H121 C93 0.930 . S
H122 C95 0.929 1_655 S
H123 C96 0.929 1_655 S
H124 C101 0.930 . S
H125 C102 0.930 . S
H126 C104 0.929 1_455 S
H127 C105 0.929 1_455 S
La128 C130 2.928 . S
La128 O148 2.521 . S
La128 O149 2.628 . S
La128 O150 2.554 . S
La128 O151 2.757 . S
La128 O152 2.470 . S
La128 O157 2.482 1_545 S
La128 O159 2.503 . S
La129 C139 2.928 . S
La129 O151 2.482 1_565 S
La129 O153 2.503 . S
La129 O154 2.521 . S
La129 O155 2.628 . S
La129 O156 2.554 . S
La129 O157 2.757 . S
La129 O158 2.470 . S
C130 La128 2.928 . S
C130 C131 1.503 . S
C130 O148 1.261 . S
C130 O149 1.243 . S
C131 C130 1.503 . S
C131 C132 1.394 . S
C131 C136 1.373 . S
C132 C131 1.394 . S
C132 C133 1.380 1_556 S
C132 H160 0.930 . S
C133 C132 1.380 1_554 S
C133 C134 1.376 . S
C133 H161 0.930 . S
C134 C133 1.376 . S
C134 C135 1.370 . S
C135 C134 1.370 . S
C135 C136 1.396 1_554 S
C135 H162 0.929 1_545 S
C136 C131 1.373 . S
C136 C135 1.396 1_556 S
C136 H163 0.929 1_545 S
C137 O150 1.240 . S
C137 O151 1.289 . S
C138 O152 1.258 1_565 S
C138 O153 1.256 . S
C139 La129 2.928 . S
C139 C140 1.503 . S
C139 O154 1.261 . S
C139 O155 1.243 . S
C140 C139 1.503 . S
C140 C141 1.394 . S
C140 C145 1.373 . S
C141 C140 1.394 . S
C141 C142 1.380 . S
C141 H164 0.930 . S
C142 C141 1.380 . S
C142 C143 1.376 . S
C142 H165 0.930 . S
C143 C142 1.376 . S
C143 C144 1.370 . S
C144 C143 1.370 . S
C144 C145 1.396 . S
C144 H166 0.929 1_565 S
C145 C140 1.373 . S
C145 C144 1.396 . S
C145 H167 0.929 1_565 S
C146 O156 1.240 . S
C146 O157 1.289 . S
C147 O158 1.258 1_545 S
C147 O159 1.256 . S
O148 La128 2.521 . S
O148 C130 1.261 . S
O149 La128 2.628 . S
O149 C130 1.243 . S
O150 La128 2.554 . S
O150 C137 1.240 . S
O151 La128 2.757 . S
O151 La129 2.482 1_545 S
O151 C137 1.289 . S
O152 La128 2.470 . S
O152 C138 1.258 1_545 S
O153 La129 2.503 . S
O153 C138 1.256 . S
O154 La129 2.521 . S
O154 C139 1.261 . S
O155 La129 2.628 . S
O155 C139 1.243 . S
O156 La129 2.554 . S
O156 C146 1.240 . S
O157 La128 2.482 1_565 S
O157 La129 2.757 . S
O157 C146 1.289 . S
O158 La129 2.470 . S
O158 C147 1.258 1_565 S
O159 La128 2.503 . S
O159 C147 1.256 . S
H160 C132 0.930 . S
H161 C133 0.930 . S
H162 C135 0.929 1_565 S
H163 C136 0.929 1_565 S
H164 C141 0.930 . S
H165 C142 0.930 . S
H166 C144 0.929 1_545 S
H167 C145 0.929 1_545 S
La168 C170 2.928 . S
La168 O188 2.521 . S
La168 O189 2.628 . S
La168 O190 2.554 . S
La168 O191 2.757 . S
La168 O192 2.470 . S
La168 O197 2.482 . S
La168 O199 2.503 . S
La169 C179 2.928 . S
La169 O191 2.482 . S
La169 O193 2.503 . S
La169 O194 2.521 . S
La169 O195 2.628 . S
La169 O196 2.554 . S
La169 O197 2.757 . S
La169 O198 2.470 . S
C170 La168 2.928 . S
C170 C171 1.503 . S
C170 O188 1.261 . S
C170 O189 1.243 . S
C171 C170 1.503 . S
C171 C172 1.394 . S
C171 C176 1.373 . S
C172 C171 1.394 . S
C172 C173 1.380 1_556 S
C172 H200 0.930 . S
C173 C172 1.380 1_554 S
C173 C174 1.376 . S
C173 H201 0.930 . S
C174 C173 1.376 . S
C174 C175 1.370 . S
C175 C174 1.370 . S
C175 C176 1.396 1_554 S
C175 H202 0.929 . S
C176 C171 1.373 . S
C176 C175 1.396 1_556 S
C176 H203 0.929 . S
C177 O190 1.240 . S
C177 O191 1.289 . S
C178 O192 1.258 . S
C178 O193 1.256 . S
C179 La169 2.928 . S
C179 C180 1.503 . S
C179 O194 1.261 . S
C179 O195 1.243 . S
C180 C179 1.503 . S
C180 C181 1.394 . S
C180 C185 1.373 . S
C181 C180 1.394 . S
C181 C182 1.380 . S
C181 H204 0.930 . S
C182 C181 1.380 . S
C182 C183 1.376 . S
C182 H205 0.930 . S
C183 C182 1.376 . S
C183 C184 1.370 . S
C184 C183 1.370 . S
C184 C185 1.396 . S
C184 H206 0.929 . S
C185 C180 1.373 . S
C185 C184 1.396 . S
C185 H207 0.929 . S
C186 O196 1.240 . S
C186 O197 1.289 . S
C187 O198 1.258 . S
C187 O199 1.256 . S
O188 La168 2.521 . S
O188 C170 1.261 . S
O189 La168 2.628 . S
O189 C170 1.243 . S
O190 La168 2.554 . S
O190 C177 1.240 . S
O191 La168 2.757 . S
O191 La169 2.482 . S
O191 C177 1.289 . S
O192 La168 2.470 . S
O192 C178 1.258 . S
O193 La169 2.503 . S
O193 C178 1.256 . S
O194 La169 2.521 . S
O194 C179 1.261 . S
O195 La169 2.628 . S
O195 C179 1.243 . S
O196 La169 2.554 . S
O196 C186 1.240 . S
O197 La168 2.482 . S
O197 La169 2.757 . S
O197 C186 1.289 . S
O198 La169 2.470 . S
O198 C187 1.258 . S
O199 La168 2.503 . S
O199 C187 1.256 . S
H200 C172 0.930 . S
H201 C173 0.930 . S
H202 C175 0.929 . S
H203 C176 0.929 . S
H204 C181 0.930 . S
H205 C182 0.930 . S
H206 C184 0.929 . S
H207 C185 0.929 . S
La208 C210 2.928 . S
La208 O228 2.521 . S
La208 O229 2.628 . S
La208 O230 2.554 . S
La208 O231 2.757 1_655 S
La208 O232 2.470 . S
La208 O237 2.482 . S
La208 O239 2.503 1_655 S
La209 C219 2.928 . S
La209 O231 2.482 . S
La209 O233 2.503 1_455 S
La209 O234 2.521 . S
La209 O235 2.628 . S
La209 O236 2.554 . S
La209 O237 2.757 1_455 S
La209 O238 2.470 . S
C210 La208 2.928 . S
C210 C211 1.503 . S
C210 O228 1.261 . S
C210 O229 1.243 . S
C211 C210 1.503 . S
C211 C212 1.394 . S
C211 C216 1.373 . S
C212 C211 1.394 . S
C212 C213 1.380 1_556 S
C212 H240 0.930 . S
C213 C212 1.380 1_554 S
C213 C214 1.376 . S
C213 H241 0.930 . S
C214 C213 1.376 . S
C214 C215 1.370 . S
C215 C214 1.370 . S
C215 C216 1.396 1_554 S
C215 H242 0.929 . S
C216 C211 1.373 . S
C216 C215 1.396 1_556 S
C216 H243 0.929 . S
C217 O230 1.262 . S
C217 O231 1.276 1_655 S
C218 O232 1.258 . S
C218 O233 1.256 . S
C219 La209 2.928 . S
C219 C220 1.503 . S
C219 O234 1.261 . S
C219 O235 1.243 . S
C220 C219 1.503 . S
C220 C221 1.394 . S
C220 C225 1.373 . S
C221 C220 1.394 . S
C221 C222 1.380 . S
C221 H244 0.930 . S
C222 C221 1.380 . S
C222 C223 1.376 . S
C222 H245 0.930 . S
C223 C222 1.376 . S
C223 C224 1.370 . S
C224 C223 1.370 . S
C224 C225 1.396 . S
C224 H246 0.929 . S
C225 C220 1.373 . S
C225 C224 1.396 . S
C225 H247 0.929 . S
C226 O236 1.240 . S
C226 O237 1.289 1_455 S
C227 O238 1.258 . S
C227 O239 1.256 . S
O228 La208 2.521 . S
O228 C210 1.261 . S
O229 La208 2.628 . S
O229 C210 1.243 . S
O230 La208 2.554 . S
O230 C217 1.262 . S
O231 La208 2.757 1_455 S
O231 La209 2.482 . S
O231 C217 1.276 1_455 S
O232 La208 2.470 . S
O232 C218 1.258 . S
O233 La209 2.503 1_655 S
O233 C218 1.256 . S
O234 La209 2.521 . S
O234 C219 1.261 . S
O235 La209 2.628 . S
O235 C219 1.243 . S
O236 La209 2.554 . S
O236 C226 1.240 . S
O237 La208 2.482 . S
O237 La209 2.757 1_655 S
O237 C226 1.289 1_655 S
O238 La209 2.470 . S
O238 C227 1.258 . S
O239 La208 2.503 1_455 S
O239 C227 1.256 . S
H240 C212 0.930 . S
H241 C213 0.930 . S
H242 C215 0.929 . S
H243 C216 0.929 . S
H244 C221 0.930 . S
H245 C222 0.930 . S
H246 C224 0.929 . S
H247 C225 0.929 . S
H248 C254 0.930 . S
H249 C258 0.930 . S
H250 C263 0.929 . S
H251 C261 0.929 . S
H252 C256 0.929 . S
H253 C262 0.929 . S
C254 H248 0.930 . S
C254 C255 1.399 . S
C254 C262 1.378 . S
C255 C254 1.399 . S
C255 C263 1.401 1_545 S
C256 H252 0.929 . S
C256 C258 1.378 . S
C256 C260 1.343 1_565 S
C257 C260 1.463 . S
C257 C262 1.350 . S
C257 N265 1.427 1_545 S
C258 H249 0.930 . S
C258 C256 1.378 . S
C258 C259 1.328 1_565 S
C259 C258 1.328 1_545 S
C259 C261 1.473 . S
C260 C256 1.343 1_545 S
C260 C257 1.463 . S
C260 N264 1.435 . S
C261 H251 0.929 . S
C261 C259 1.473 . S
C261 N264 1.384 . S
C262 H253 0.929 . S
C262 C254 1.378 . S
C262 C257 1.350 . S
C263 H250 0.929 . S
C263 C255 1.401 1_565 S
C263 N265 1.384 . S
N264 C260 1.435 . S
N264 C261 1.384 . S
N265 C257 1.427 1_565 S
N265 C263 1.384 . S
H266 C272 0.930 . S
H267 C276 0.930 . S
H268 C281 0.929 . S
H269 C279 0.929 . S
H270 C274 0.929 . S
H271 C280 0.929 . S
C272 H266 0.930 . S
C272 C273 1.367 . S
C272 C280 1.378 . S
C273 C272 1.367 . S
C273 C281 1.433 . S
C274 H270 0.929 . S
C274 C276 1.378 . S
C274 C278 1.350 . S
C275 C278 1.463 . S
C275 C280 1.350 . S
C275 N283 1.427 . S
C276 H267 0.930 . S
C276 C274 1.378 . S
C276 C277 1.367 . S
C277 C276 1.367 . S
C277 C279 1.433 . S
C278 C274 1.350 . S
C278 C275 1.463 . S
C278 N282 1.427 . S
C279 H269 0.929 . S
C279 C277 1.433 . S
C279 N282 1.384 . S
C280 H271 0.929 . S
C280 C272 1.378 . S
C280 C275 1.350 . S
C281 H268 0.929 . S
C281 C273 1.433 . S
C281 N283 1.384 . S
N282 C278 1.427 . S
N282 C279 1.384 . S
N283 C275 1.427 . S
N283 C281 1.384 . S
H284 C290 0.930 . S
H285 C294 0.930 . S
H286 C299 0.929 . S
H287 C297 0.929 . S
H288 C292 0.929 . S
H289 C298 0.929 . S
C290 H284 0.930 . S
C290 C291 1.367 . S
C290 C298 1.378 . S
C291 C290 1.367 . S
C291 C299 1.433 . S
C292 H288 0.929 . S
C292 C294 1.378 . S
C292 C296 1.350 . S
C293 C296 1.463 . S
C293 C298 1.350 . S
C293 N301 1.427 . S
C294 H285 0.930 . S
C294 C292 1.378 . S
C294 C295 1.367 . S
C295 C294 1.367 . S
C295 C297 1.433 . S
C296 C292 1.350 . S
C296 C293 1.463 . S
C296 N300 1.427 . S
C297 H287 0.929 . S
C297 C295 1.433 . S
C297 N300 1.384 . S
C298 H289 0.929 . S
C298 C290 1.378 . S
C298 C293 1.350 . S
C299 H286 0.929 . S
C299 C291 1.433 . S
C299 N301 1.384 . S
N300 C296 1.427 . S
N300 C297 1.384 . S
N301 C293 1.427 . S
N301 C299 1.384 . S
H302 C308 0.930 . S
H303 C312 0.930 . S
H304 C317 0.929 . S
H305 C315 0.929 . S
H306 C310 0.929 . S
H307 C316 0.929 . S
C308 H302 0.930 . S
C308 C309 1.397 . S
C308 C316 1.378 . S
C309 C308 1.397 . S
C309 C317 1.403 1_455 S
C310 H306 0.929 . S
C310 C312 1.378 . S
C310 C314 1.337 1_655 S
C311 C314 1.463 . S
C311 C316 1.350 . S
C311 N319 1.427 1_455 S
C312 H303 0.930 . S
C312 C310 1.378 . S
C312 C313 1.367 1_655 S
C313 C312 1.367 1_455 S
C313 C315 1.433 . S
C314 C310 1.337 1_455 S
C314 C311 1.463 . S
C314 N318 1.440 . S
C315 H305 0.929 . S
C315 C313 1.433 . S
C315 N318 1.384 . S
C316 H307 0.929 . S
C316 C308 1.378 . S
C316 C311 1.350 . S
C317 H304 0.929 . S
C317 C309 1.403 1_655 S
C317 N319 1.384 . S
N318 C314 1.440 . S
N318 C315 1.384 . S
N319 C311 1.427 1_655 S
N319 C317 1.384 . S
H320 C326 0.930 . S
H321 C330 0.930 . S
H322 C335 0.929 . S
H323 C333 0.929 . S
H324 C328 0.927 1_554 S
H325 C334 0.929 . S
C326 H320 0.930 . S
C326 C327 1.388 . S
C326 C334 1.378 . S
C327 C326 1.388 . S
C327 C335 1.412 1_565 S
C328 H324 0.927 1_556 S
C328 C330 1.381 . S
C328 C332 1.351 1_546 S
C329 C332 1.462 . S
C329 C334 1.350 . S
C329 N337 1.427 1_565 S
C330 H321 0.930 . S
C330 C328 1.381 . S
C330 C331 1.338 1_545 S
C331 C330 1.338 1_565 S
C331 C333 1.463 . S
C332 C328 1.351 1_564 S
C332 C329 1.462 . S
C332 N336 1.426 1_554 S
C333 H323 0.929 . S
C333 C331 1.463 . S
C333 N336 1.384 . S
C334 H325 0.929 . S
C334 C326 1.378 . S
C334 C329 1.350 . S
C335 H322 0.929 . S
C335 C327 1.412 1_545 S
C335 N337 1.384 . S
N336 C332 1.426 1_556 S
N336 C333 1.384 . S
N337 C329 1.427 1_545 S
N337 C335 1.384 . S
H338 C344 0.930 . S
H339 C348 0.930 . S
H340 C353 0.929 . S
H341 C351 0.929 . S
H342 C346 0.929 . S
H343 C352 0.929 . S
C344 H338 0.930 . S
C344 C345 1.367 . S
C344 C352 1.378 . S
C345 C344 1.367 . S
C345 C353 1.433 . S
C346 H342 0.929 . S
C346 C348 1.378 . S
C346 C350 1.350 1_556 S
C347 C350 1.463 . S
C347 C352 1.350 . S
C347 N355 1.427 . S
C348 H339 0.930 . S
C348 C346 1.378 . S
C348 C349 1.367 . S
C349 C348 1.367 . S
C349 C351 1.433 . S
C350 C346 1.350 1_554 S
C350 C347 1.463 . S
C350 N354 1.427 1_554 S
C351 H341 0.929 . S
C351 C349 1.433 . S
C351 N354 1.384 . S
C352 H343 0.929 . S
C352 C344 1.378 . S
C352 C347 1.350 . S
C353 H340 0.929 . S
C353 C345 1.433 . S
C353 N355 1.384 . S
N354 C350 1.427 1_556 S
N354 C351 1.384 . S
N355 C347 1.427 . S
N355 C353 1.384 . S
H356 C362 0.930 . S
H357 C366 0.930 . S
H358 C371 0.929 . S
H359 C369 0.929 . S
H360 C364 0.929 . S
H361 C370 0.929 . S
C362 H356 0.930 . S
C362 C363 1.367 . S
C362 C370 1.378 . S
C363 C362 1.367 . S
C363 C371 1.433 . S
C364 H360 0.929 . S
C364 C366 1.378 . S
C364 C368 1.350 1_556 S
C365 C368 1.463 . S
C365 C370 1.350 . S
C365 N373 1.427 . S
C366 H357 0.930 . S
C366 C364 1.378 . S
C366 C367 1.367 . S
C367 C366 1.367 . S
C367 C369 1.433 . S
C368 C364 1.350 1_554 S
C368 C365 1.463 . S
C368 N372 1.427 . S
C369 H359 0.929 . S
C369 C367 1.433 . S
C369 N372 1.384 1_556 S
C370 H361 0.929 . S
C370 C362 1.378 . S
C370 C365 1.350 . S
C371 H358 0.929 . S
C371 C363 1.433 . S
C371 N373 1.384 . S
N372 C368 1.427 . S
N372 C369 1.384 1_554 S
N373 C365 1.427 . S
N373 C371 1.384 . S
H374 C380 0.930 . S
H375 C384 0.930 . S
H376 C389 0.929 . S
H377 C387 0.929 . S
H378 C382 0.929 . S
H379 C388 0.929 . S
C380 H374 0.930 . S
C380 C381 1.368 . S
C380 C388 1.378 . S
C381 C380 1.368 . S
C381 C389 1.432 1_655 S
C382 H378 0.929 . S
C382 C384 1.378 . S
C382 C386 1.346 1_456 S
C383 C386 1.462 . S
C383 C388 1.355 . S
C383 N391 1.423 1_655 S
C384 H375 0.930 . S
C384 C382 1.378 . S
C384 C385 1.367 1_455 S
C385 C384 1.367 1_655 S
C385 C387 1.433 . S
C386 C382 1.346 1_654 S
C386 C383 1.462 . S
C386 N390 1.433 . S
C387 H377 0.929 . S
C387 C385 1.433 . S
C387 N390 1.384 1_556 S
C388 H379 0.929 . S
C388 C380 1.378 . S
C388 C383 1.355 . S
C389 H376 0.929 . S
C389 C381 1.432 1_455 S
C389 N391 1.384 . S
N390 C386 1.433 . S
N390 C387 1.384 1_554 S
N391 C383 1.423 1_455 S
N391 C389 1.384 . S
H392 C398 0.930 . S
H393 C402 0.930 . S
H394 C407 0.929 . S
H395 C405 0.929 . S
H396 C400 0.926 . S
H397 C406 0.929 . S
C398 H392 0.930 . S
C398 C399 1.344 1_655 S
C398 C406 1.378 . S
C399 C398 1.344 1_455 S
C399 C407 1.447 . S
C400 H396 0.926 . S
C400 C402 1.378 . S
C400 C404 1.350 . S
C401 C404 1.463 . S
C401 C406 1.350 . S
C401 N409 1.427 1_655 S
C402 H393 0.930 . S
C402 C400 1.378 . S
C402 C403 1.367 . S
C403 C402 1.367 . S
C403 C405 1.433 . S
C404 C400 1.350 . S
C404 C401 1.463 . S
C404 N408 1.427 . S
C405 H395 0.929 . S
C405 C403 1.433 . S
C405 N408 1.384 . S
C406 H397 0.929 . S
C406 C398 1.378 . S
C406 C401 1.350 . S
C407 H394 0.929 . S
C407 C399 1.447 . S
C407 N409 1.384 . S
N408 C404 1.427 . S
N408 C405 1.384 . S
N409 C401 1.427 1_455 S
N409 C407 1.384 . S
H410 C416 0.930 . S
H411 C420 0.930 . S
H412 C425 0.929 . S
H413 C423 0.929 . S
H414 C418 0.929 1_545 S
H415 C424 0.929 . S
C416 H410 0.930 . S
C416 C417 1.343 1_565 S
C416 C424 1.378 . S
C417 C416 1.343 1_545 S
C417 C425 1.450 . S
C418 H414 0.929 1_565 S
C418 C420 1.378 . S
C418 C422 1.350 . S
C419 C422 1.463 . S
C419 C424 1.350 . S
C419 N427 1.427 1_565 S
C420 H411 0.930 . S
C420 C418 1.378 . S
C420 C421 1.367 . S
C421 C420 1.367 . S
C421 C423 1.433 . S
C422 C418 1.350 . S
C422 C419 1.463 . S
C422 N426 1.427 . S
C423 H413 0.929 . S
C423 C421 1.433 . S
C423 N426 1.384 . S
C424 H415 0.929 . S
C424 C416 1.378 . S
C424 C419 1.350 . S
C425 H412 0.929 . S
C425 C417 1.450 . S
C425 N427 1.384 . S
N426 C422 1.427 . S
N426 C423 1.384 . S
N427 C419 1.427 1_545 S
N427 C425 1.384 . S
H428 C434 0.930 . S
H429 C438 0.930 . S
H430 C443 0.929 . S
H431 C441 0.929 . S
H432 C436 0.929 . S
H433 C442 0.929 . S
C434 H428 0.930 . S
C434 C435 1.367 . S
C434 C442 1.378 . S
C435 C434 1.367 . S
C435 C443 1.433 . S
C436 H432 0.929 . S
C436 C438 1.378 . S
C436 C440 1.350 . S
C437 C440 1.463 . S
C437 C442 1.350 . S
C437 N445 1.427 . S
C438 H429 0.930 . S
C438 C436 1.378 . S
C438 C439 1.367 . S
C439 C438 1.367 . S
C439 C441 1.433 . S
C440 C436 1.350 . S
C440 C437 1.463 . S
C440 N444 1.427 . S
C441 H431 0.929 . S
C441 C439 1.433 . S
C441 N444 1.384 . S
C442 H433 0.929 . S
C442 C434 1.378 . S
C442 C437 1.350 . S
C443 H430 0.929 . S
C443 C435 1.433 . S
C443 N445 1.384 . S
N444 C440 1.427 . S
N444 C441 1.384 . S
N445 C437 1.427 . S
N445 C443 1.384 . S
H446 C452 0.930 . S
H447 C456 0.930 . S
H448 C461 0.929 . S
H449 C459 0.929 . S
H450 C454 0.929 . S
H451 C460 0.929 . S
C452 H446 0.930 . S
C452 C453 1.367 . S
C452 C460 1.378 . S
C453 C452 1.367 . S
C453 C461 1.433 . S
C454 H450 0.929 . S
C454 C456 1.378 . S
C454 C458 1.350 . S
C455 C458 1.463 . S
C455 C460 1.350 . S
C455 N463 1.427 . S
C456 H447 0.930 . S
C456 C454 1.378 . S
C456 C457 1.367 . S
C457 C456 1.367 . S
C457 C459 1.433 . S
C458 C454 1.350 . S
C458 C455 1.463 . S
C458 N462 1.427 . S
C459 H449 0.929 . S
C459 C457 1.433 . S
C459 N462 1.384 . S
C460 H451 0.929 . S
C460 C452 1.378 . S
C460 C455 1.350 . S
C461 H448 0.929 . S
C461 C453 1.433 . S
C461 N463 1.384 . S
N462 C458 1.427 . S
N462 C459 1.384 . S
N463 C455 1.427 . S
N463 C461 1.384 . S
H464 C470 0.930 . S
H465 C474 0.930 . S
H466 C479 0.929 . S
H467 C477 0.929 . S
H468 C472 0.929 . S
H469 C478 0.928 . S
C470 H464 0.930 . S
C470 C471 1.367 . S
C470 C478 1.378 1_655 S
C471 C470 1.367 . S
C471 C479 1.433 1_655 S
C472 H468 0.929 . S
C472 C474 1.378 . S
C472 C476 1.350 . S
C473 C476 1.463 . S
C473 C478 1.350 . S
C473 N481 1.427 . S
C474 H465 0.930 . S
C474 C472 1.378 . S
C474 C475 1.367 . S
C475 C474 1.367 . S
C475 C477 1.433 1_554 S
C476 C472 1.350 . S
C476 C473 1.463 . S
C476 N480 1.427 . S
C477 H467 0.929 . S
C477 C475 1.433 1_556 S
C477 N480 1.384 1_556 S
C478 H469 0.928 . S
C478 C470 1.378 1_455 S
C478 C473 1.350 . S
C479 H466 0.929 . S
C479 C471 1.433 1_455 S
C479 N481 1.384 . S
N480 C476 1.427 . S
N480 C477 1.384 1_554 S
N481 C473 1.427 . S
N481 C479 1.384 . S
H482 C488 0.930 . S
H483 C492 0.930 . S
H484 C497 0.929 . S
H485 C495 0.944 . S
H486 C490 0.929 . S
H487 C496 0.929 . S
C488 H482 0.930 . S
C488 C489 1.367 . S
C488 C496 1.378 . S
C489 C488 1.367 . S
C489 C497 1.433 1_565 S
C490 H486 0.929 . S
C490 C492 1.378 . S
C490 C494 1.350 . S
C491 C494 1.463 . S
C491 C496 1.350 1_545 S
C491 N499 1.427 . S
C492 H483 0.930 . S
C492 C490 1.378 . S
C492 C493 1.367 . S
C493 C492 1.367 . S
C493 C495 1.433 . S
C494 C490 1.350 . S
C494 C491 1.463 . S
C494 N498 1.427 . S
C495 H485 0.944 . S
C495 C493 1.433 . S
C495 N498 1.384 . S
C496 H487 0.929 . S
C496 C488 1.378 . S
C496 C491 1.350 1_565 S
C497 H484 0.929 . S
C497 C489 1.433 1_545 S
C497 N499 1.384 . S
N498 C494 1.427 . S
N498 C495 1.384 . S
N499 C491 1.427 . S
N499 C497 1.384 . S
H500 C506 0.930 . S
H501 C510 0.930 . S
H502 C515 0.929 . S
H503 C513 0.929 . S
H504 C508 0.929 . S
H505 C514 0.929 . S
C506 H500 0.930 . S
C506 C507 1.367 . S
C506 C514 1.378 . S
C507 C506 1.367 . S
C507 C515 1.433 . S
C508 H504 0.929 . S
C508 C510 1.378 . S
C508 C512 1.350 . S
C509 C512 1.463 . S
C509 C514 1.350 . S
C509 N517 1.427 . S
C510 H501 0.930 . S
C510 C508 1.378 . S
C510 C511 1.367 . S
C511 C510 1.367 . S
C511 C513 1.433 1_554 S
C512 C508 1.350 . S
C512 C509 1.463 . S
C512 N516 1.427 . S
C513 H503 0.929 . S
C513 C511 1.433 1_556 S
C513 N516 1.384 1_556 S
C514 H505 0.929 . S
C514 C506 1.378 . S
C514 C509 1.350 . S
C515 H502 0.929 . S
C515 C507 1.433 . S
C515 N517 1.384 . S
N516 C512 1.427 . S
N516 C513 1.384 1_554 S
N517 C509 1.427 . S
N517 C515 1.384 . S
H518 C524 0.930 . S
H519 C528 0.930 . S
H520 C533 0.929 . S
H521 C531 0.929 . S
H522 C526 0.929 . S
H523 C532 0.929 . S
C524 H518 0.930 . S
C524 C525 1.367 . S
C524 C532 1.378 . S
C525 C524 1.367 . S
C525 C533 1.433 . S
C526 H522 0.929 . S
C526 C528 1.378 . S
C526 C530 1.350 . S
C527 C530 1.463 . S
C527 C532 1.350 . S
C527 N535 1.427 . S
C528 H519 0.930 . S
C528 C526 1.378 . S
C528 C529 1.367 . S
C529 C528 1.367 . S
C529 C531 1.433 . S
C530 C526 1.350 . S
C530 C527 1.463 . S
C530 N534 1.427 . S
C531 H521 0.929 . S
C531 C529 1.433 . S
C531 N534 1.384 . S
C532 H523 0.929 . S
C532 C524 1.378 . S
C532 C527 1.350 . S
C533 H520 0.929 . S
C533 C525 1.433 . S
C533 N535 1.384 . S
N534 C530 1.427 . S
N534 C531 1.384 . S
N535 C527 1.427 . S
N535 C533 1.384 . S
H536 C542 0.930 . S
H537 C546 0.917 1_655 S
H538 C551 0.929 . S
H539 C549 0.929 . S
H540 C544 0.945 . S
H541 C550 0.929 . S
C542 H536 0.930 . S
C542 C543 1.367 . S
C542 C550 1.378 . S
C543 C542 1.367 . S
C543 C551 1.433 1_455 S
C544 H540 0.945 . S
C544 C546 1.374 1_655 S
C544 C548 1.337 1_655 S
C545 C548 1.463 . S
C545 C550 1.350 . S
C545 N553 1.427 1_455 S
C546 H537 0.917 1_455 S
C546 C544 1.374 1_455 S
C546 C547 1.385 . S
C547 C546 1.385 . S
C547 C549 1.433 . S
C548 C544 1.337 1_455 S
C548 C545 1.463 . S
C548 N552 1.427 . S
C549 H539 0.929 . S
C549 C547 1.433 . S
C549 N552 1.384 . S
C550 H541 0.929 . S
C550 C542 1.378 . S
C550 C545 1.350 . S
C551 H538 0.929 . S
C551 C543 1.433 1_655 S
C551 N553 1.384 . S
N552 C548 1.427 . S
N552 C549 1.384 . S
N553 C545 1.427 1_655 S
N553 C551 1.384 . S
H554 C560 0.930 . S
H555 C564 0.930 . S
H556 C569 0.929 . S
H557 C567 0.929 . S
H558 C562 0.929 . S
H559 C568 0.929 . S
C560 H554 0.930 . S
C560 C561 1.367 . S
C560 C568 1.378 . S
C561 C560 1.367 . S
C561 C569 1.433 1_545 S
C562 H558 0.929 . S
C562 C564 1.378 . S
C562 C566 1.350 1_565 S
C563 C566 1.463 . S
C563 C568 1.350 . S
C563 N571 1.427 1_545 S
C564 H555 0.930 . S
C564 C562 1.378 . S
C564 C565 1.367 1_565 S
C565 C564 1.367 1_545 S
C565 C567 1.433 . S
C566 C562 1.350 1_545 S
C566 C563 1.463 . S
C566 N570 1.427 . S
C567 H557 0.929 . S
C567 C565 1.433 . S
C567 N570 1.384 . S
C568 H559 0.929 . S
C568 C560 1.378 . S
C568 C563 1.350 . S
C569 H556 0.929 . S
C569 C561 1.433 1_565 S
C569 N571 1.384 . S
N570 C566 1.427 . S
N570 C567 1.384 . S
N571 C563 1.427 1_565 S
N571 C569 1.384 . S
H572 C578 0.930 . S
H573 C582 0.930 . S
H574 C587 0.929 . S
H575 C585 0.929 . S
H576 C580 0.929 . S
H577 C586 0.929 . S
C578 H572 0.930 . S
C578 C579 1.367 . S
C578 C586 1.378 . S
C579 C578 1.367 . S
C579 C587 1.433 . S
C580 H576 0.929 . S
C580 C582 1.378 . S
C580 C584 1.350 . S
C581 C584 1.463 . S
C581 C586 1.350 . S
C581 N589 1.427 . S
C582 H573 0.930 . S
C582 C580 1.378 . S
C582 C583 1.367 . S
C583 C582 1.367 . S
C583 C585 1.433 . S
C584 C580 1.350 . S
C584 C581 1.463 . S
C584 N588 1.427 . S
C585 H575 0.929 . S
C585 C583 1.433 . S
C585 N588 1.384 . S
C586 H577 0.929 . S
C586 C578 1.378 . S
C586 C581 1.350 . S
C587 H574 0.929 . S
C587 C579 1.433 . S
C587 N589 1.384 . S
N588 C584 1.427 . S
N588 C585 1.384 . S
N589 C581 1.427 . S
N589 C587 1.384 . S
H590 C596 0.930 . S
H591 C600 0.930 . S
H592 C605 0.929 . S
H593 C603 0.929 . S
H594 C598 0.929 . S
H595 C604 0.929 . S
C596 H590 0.930 . S
C596 C597 1.367 . S
C596 C604 1.378 . S
C597 C596 1.367 . S
C597 C605 1.433 . S
C598 H594 0.929 . S
C598 C600 1.378 . S
C598 C602 1.350 . S
C599 C602 1.463 . S
C599 C604 1.350 . S
C599 N607 1.427 . S
C600 H591 0.930 . S
C600 C598 1.378 . S
C600 C601 1.367 . S
C601 C600 1.367 . S
C601 C603 1.433 . S
C602 C598 1.350 . S
C602 C599 1.463 . S
C602 N606 1.427 . S
C603 H593 0.929 . S
C603 C601 1.433 . S
C603 N606 1.384 . S
C604 H595 0.929 . S
C604 C596 1.378 . S
C604 C599 1.350 . S
C605 H592 0.929 . S
C605 C597 1.433 . S
C605 N607 1.384 . S
N606 C602 1.427 . S
N606 C603 1.384 . S
N607 C599 1.427 . S
N607 C605 1.384 . S
H608 C614 0.930 . S
H609 C618 0.930 . S
H610 C623 0.929 . S
H611 C621 0.929 . S
H612 C616 0.933 . S
H613 C622 0.929 . S
C614 H608 0.930 . S
C614 C615 1.367 . S
C614 C622 1.378 . S
C615 C614 1.367 . S
C615 C623 1.433 1_655 S
C616 H612 0.933 . S
C616 C618 1.378 . S
C616 C620 1.350 . S
C617 C620 1.463 . S
C617 C622 1.350 . S
C617 N625 1.430 . S
C618 H609 0.930 . S
C618 C616 1.378 . S
C618 C619 1.367 . S
C619 C618 1.367 . S
C619 C621 1.433 . S
C620 C616 1.350 . S
C620 C617 1.463 . S
C620 N624 1.427 . S
C621 H611 0.929 . S
C621 C619 1.433 . S
C621 N624 1.384 . S
C622 H613 0.929 . S
C622 C614 1.378 . S
C622 C617 1.350 . S
C623 H610 0.929 . S
C623 C615 1.433 1_455 S
C623 N625 1.383 1_455 S
N624 C620 1.427 . S
N624 C621 1.384 . S
N625 C617 1.430 . S
N625 C623 1.383 1_655 S
H626 C632 0.930 . S
H627 C636 0.930 . S
H628 C641 0.929 . S
H629 C639 0.929 . S
H630 C634 0.929 . S
H631 C640 0.929 . S
C632 H626 0.930 . S
C632 C633 1.367 1_545 S
C632 C640 1.378 . S
C633 C632 1.367 1_565 S
C633 C641 1.433 . S
C634 H630 0.929 . S
C634 C636 1.378 . S
C634 C638 1.350 . S
C635 C638 1.463 . S
C635 C640 1.350 1_565 S
C635 N643 1.427 . S
C636 H627 0.930 . S
C636 C634 1.378 . S
C636 C637 1.367 . S
C637 C636 1.367 . S
C637 C639 1.433 1_565 S
C638 C634 1.350 . S
C638 C635 1.463 . S
C638 N642 1.427 1_565 S
C639 H629 0.929 . S
C639 C637 1.433 1_545 S
C639 N642 1.384 . S
C640 H631 0.929 . S
C640 C632 1.378 . S
C640 C635 1.350 1_545 S
C641 H628 0.929 . S
C641 C633 1.433 . S
C641 N643 1.384 . S
N642 C638 1.427 1_545 S
N642 C639 1.384 . S
N643 C635 1.427 . S
N643 C641 1.384 . S
H644 C650 0.930 . S
H645 C654 0.930 . S
H646 C659 0.929 . S
H647 C657 0.929 . S
H648 C652 0.929 . S
H649 C658 0.929 . S
C650 H644 0.930 . S
C650 C651 1.367 . S
C650 C658 1.378 . S
C651 C650 1.367 . S
C651 C659 1.433 . S
C652 H648 0.929 . S
C652 C654 1.378 . S
C652 C656 1.350 . S
C653 C656 1.463 . S
C653 C658 1.350 . S
C653 N661 1.427 . S
C654 H645 0.930 . S
C654 C652 1.378 . S
C654 C655 1.367 . S
C655 C654 1.367 . S
C655 C657 1.433 . S
C656 C652 1.350 . S
C656 C653 1.463 . S
C656 N660 1.427 . S
C657 H647 0.929 . S
C657 C655 1.433 . S
C657 N660 1.384 . S
C658 H649 0.929 . S
C658 C650 1.378 . S
C658 C653 1.350 . S
C659 H646 0.929 . S
C659 C651 1.433 . S
C659 N661 1.384 . S
N660 C656 1.427 . S
N660 C657 1.384 . S
N661 C653 1.427 . S
N661 C659 1.384 . S
H662 C668 0.930 . S
H663 C672 0.930 . S
H664 C677 0.929 . S
H665 C675 0.929 . S
H666 C670 0.929 . S
H667 C676 0.929 . S
C668 H662 0.930 . S
C668 C669 1.367 . S
C668 C676 1.378 . S
C669 C668 1.367 . S
C669 C677 1.433 . S
C670 H666 0.929 . S
C670 C672 1.378 . S
C670 C674 1.350 . S
C671 C674 1.463 . S
C671 C676 1.350 . S
C671 N679 1.427 . S
C672 H663 0.930 . S
C672 C670 1.378 . S
C672 C673 1.367 . S
C673 C672 1.367 . S
C673 C675 1.433 . S
C674 C670 1.350 . S
C674 C671 1.463 . S
C674 N678 1.427 . S
C675 H665 0.929 . S
C675 C673 1.433 . S
C675 N678 1.384 . S
C676 H667 0.929 . S
C676 C668 1.378 . S
C676 C671 1.350 . S
C677 H664 0.929 . S
C677 C669 1.433 . S
C677 N679 1.384 . S
N678 C674 1.427 . S
N678 C675 1.384 . S
N679 C671 1.427 . S
N679 C677 1.384 . S
C255 C74 1.787 . S
C259 C97 1.881 1_545 S
C277 C137 1.892 . S
C273 C85 1.794 . S
C295 C177 1.891 . S
C291 C52 1.792 . S
C313 C217 1.887 1_455 S
C309 C63 1.788 . S
C331 C106 1.887 1_565 S
C327 C30 1.791 1_565 S
C345 C41 1.793 . S
C349 C146 1.897 . S
C363 C8 1.803 . S
C367 C186 1.892 . S
C381 C19 1.799 1_655 S
C385 C226 1.891 1_655 S
C403 C103 0.586 . S
C399 C62 0.581 . S
C421 C143 0.585 . S
C417 C73 0.593 . S
C439 C183 0.613 . S
C435 C84 0.575 . S
C453 C51 0.579 . S
C457 C223 0.606 . S
C471 C18 0.620 1_655 S
C475 C94 0.603 . S
C493 C134 0.614 . S
C489 C29 0.632 1_565 S
C511 C174 0.602 . S
C507 C40 0.617 . S
C525 C7 0.598 . S
C529 C214 0.588 . S
C543 C60 1.727 . S
C547 C107 2.240 . S
C561 C71 1.707 . S
C565 C147 2.236 . S
C583 C187 2.240 . S
C579 C82 1.723 . S
C601 C227 2.246 . S
C597 C49 1.724 . S
C615 C16 1.795 1_655 S
C619 C98 2.253 . S
C637 C138 2.245 . S
C633 C27 1.782 1_565 S
C655 C178 2.234 . S
C651 C38 1.797 . S
C669 C5 1.809 . S
C673 C218 2.245 . S
