# Generated by pormake.
# Topology zzz, (3,6)-cn, num edge types: 1
# Building blocks:
#     Node 0, Type 0, BuildingBlock: WUSLED_clean_sbu_0, # of connection points: 3
#     Node 1, Type 0, BuildingBlock: WUSLED_clean_sbu_0, # of connection points: 3
#     Node 2, Type 0, BuildingBlock: WUSLED_clean_sbu_0, # of connection points: 3
#     Node 3, Type 0, BuildingBlock: WUSLED_clean_sbu_0, # of connection points: 3
#     Node 4, Type 0, BuildingBlock: WUSLED_clean_sbu_0, # of connection points: 3
#     Node 5, Type 0, BuildingBlock: WUSLED_clean_sbu_0, # of connection points: 3
#     Node 6, Type 0, BuildingBlock: WUSLED_clean_sbu_0, # of connection points: 3
#     Node 7, Type 0, BuildingBlock: WUSLED_clean_sbu_0, # of connection points: 3
#     Node 8, Type 1, BuildingBlock: VOLQOD_clean_sbu_1, # of connection points: 6
#     Node 9, Type 1, BuildingBlock: VOLQOD_clean_sbu_1, # of connection points: 6
#     Node 10, Type 1, BuildingBlock: VOLQOD_clean_sbu_1, # of connection points: 6
#     Node 11, Type 1, BuildingBlock: VOLQOD_clean_sbu_1, # of connection points: 6
#     Edge 12, Type (0, 1), BuildingBlock: CIFDUS_clean_linker_0, # of connection points: 2
#     Edge 13, Type (0, 1), BuildingBlock: CIFDUS_clean_linker_0, # of connection points: 2
#     Edge 14, Type (0, 1), BuildingBlock: CIFDUS_clean_linker_0, # of connection points: 2
#     Edge 15, Type (0, 1), BuildingBlock: CIFDUS_clean_linker_0, # of connection points: 2
#     Edge 16, Type (0, 1), BuildingBlock: CIFDUS_clean_linker_0, # of connection points: 2
#     Edge 17, Type (0, 1), BuildingBlock: CIFDUS_clean_linker_0, # of connection points: 2
#     Edge 18, Type (0, 1), BuildingBlock: CIFDUS_clean_linker_0, # of connection points: 2
#     Edge 19, Type (0, 1), BuildingBlock: CIFDUS_clean_linker_0, # of connection points: 2
#     Edge 20, Type (0, 1), BuildingBlock: CIFDUS_clean_linker_0, # of connection points: 2
#     Edge 21, Type (0, 1), BuildingBlock: CIFDUS_clean_linker_0, # of connection points: 2
#     Edge 22, Type (0, 1), BuildingBlock: CIFDUS_clean_linker_0, # of connection points: 2
#     Edge 23, Type (0, 1), BuildingBlock: CIFDUS_clean_linker_0, # of connection points: 2
#     Edge 24, Type (0, 1), BuildingBlock: CIFDUS_clean_linker_0, # of connection points: 2
#     Edge 25, Type (0, 1), BuildingBlock: CIFDUS_clean_linker_0, # of connection points: 2
#     Edge 26, Type (0, 1), BuildingBlock: CIFDUS_clean_linker_0, # of connection points: 2
#     Edge 27, Type (0, 1), BuildingBlock: CIFDUS_clean_linker_0, # of connection points: 2
#     Edge 28, Type (0, 1), BuildingBlock: CIFDUS_clean_linker_0, # of connection points: 2
#     Edge 29, Type (0, 1), BuildingBlock: CIFDUS_clean_linker_0, # of connection points: 2
#     Edge 30, Type (0, 1), BuildingBlock: CIFDUS_clean_linker_0, # of connection points: 2
#     Edge 31, Type (0, 1), BuildingBlock: CIFDUS_clean_linker_0, # of connection points: 2
#     Edge 32, Type (0, 1), BuildingBlock: CIFDUS_clean_linker_0, # of connection points: 2
#     Edge 33, Type (0, 1), BuildingBlock: CIFDUS_clean_linker_0, # of connection points: 2
#     Edge 34, Type (0, 1), BuildingBlock: CIFDUS_clean_linker_0, # of connection points: 2
#     Edge 35, Type (0, 1), BuildingBlock: CIFDUS_clean_linker_0, # of connection points: 2
# Relax obj value: 0.342
# Max RMSD: 0.255
# Mean RMSD: 0.201
data_MOF--net-zzz--node1-WUSLED_clean_sbu_0--node2-VOLQOD_clean_sbu_1--edge1-CIFDUS_clean_linker_0
_symmetry_space_group_name_H-M    P1
_symmetry_Int_Tables_number       1
_symmetry_cell_setting            triclinic
loop_
_symmetry_equiv_pos_as_xyz
'x, y, z'
_cell_length_a     57.052348
_cell_length_b     55.69607
_cell_length_c     22.17749
_cell_angle_alpha  90.152963
_cell_angle_beta   90.133973
_cell_angle_gamma 91.944677
loop_
_atom_site_label
_atom_site_type_symbol
_atom_site_fract_x
_atom_site_fract_y
_atom_site_fract_z
_atom_type_partial_charge
C0 C 0.80638 0.48103 0.27166 0.0
C1 C 0.82909 0.48577 0.24934 0.0
C2 C 0.84524 0.48249 0.35095 0.0
C3 C 0.84839 0.48662 0.28882 0.0
C4 C 0.82245 0.47763 0.3727 0.0
C5 C 0.80324 0.47699 0.33346 0.0
U6 U 0.77552 0.48003 0.1163 0.0
O7 O 0.74355 0.45905 0.09087 0.0
O8 O 0.74372 0.49858 0.08926 0.0
C9 C 0.73163 0.47837 0.08013 0.0
C10 C 0.78559 0.48034 0.23208 0.0
C11 C 0.71473 0.47732 0.02974 0.0
C12 C 0.6751 0.46639 0.9974 0.0
C13 C 0.69271 0.46645 0.04104 0.0
C14 C 0.70128 0.48802 0.92923 0.0
C15 C 0.67907 0.47719 0.941 0.0
C16 C 0.71907 0.48804 0.97334 0.0
C17 C 0.81613 0.48157 0.97473 0.0
C18 C 0.81659 0.46249 0.87593 0.0
C19 C 0.84506 0.49425 0.90116 0.0
C20 C 0.83491 0.49672 0.95749 0.0
C21 C 0.83668 0.47643 0.86053 0.0
C22 C 0.80631 0.46506 0.93287 0.0
C23 C 0.81008 0.48119 0.03898 0.0
O24 O 0.78191 0.4999 0.20095 0.0
O25 O 0.78195 0.46053 0.20068 0.0
O26 O 0.80086 0.4611 0.06091 0.0
O27 O 0.80108 0.50071 0.06134 0.0
H28 H 0.83187 0.48882 0.20162 0.0
H29 H 0.86578 0.49016 0.27073 0.0
H30 H 0.81944 0.4746 0.42033 0.0
H31 H 0.78585 0.47337 0.35149 0.0
H32 H 0.65813 0.45827 0.00842 0.0
H33 H 0.68891 0.45835 0.08449 0.0
H34 H 0.70489 0.49634 0.886 0.0
H35 H 0.73598 0.49659 0.96375 0.0
H36 H 0.80974 0.44871 0.84552 0.0
H37 H 0.86084 0.50497 0.89198 0.0
H38 H 0.84288 0.50938 0.98931 0.0
H39 H 0.79167 0.45324 0.94533 0.0
C40 C 0.99752 0.79374 0.32088 0.0
C41 C 0.01259 0.81272 0.30173 0.0
C42 C 0.99716 0.83924 0.37865 0.0
C43 C 0.01256 0.83505 0.33054 0.0
C44 C 0.98215 0.82015 0.39793 0.0
C45 C 0.98241 0.79764 0.36947 0.0
U46 U 0.99309 0.76159 0.17249 0.0
O47 O 0.01345 0.7319 0.13654 0.0
O48 O 0.97488 0.72837 0.14069 0.0
C49 C 0.9946 0.71834 0.12561 0.0
C50 C 0.99659 0.77047 0.2882 0.0
C51 C 0.99488 0.70252 0.07196 0.0
C52 C 0.00775 0.6647 0.03107 0.0
C53 C 0.00923 0.68265 0.0749 0.0
C54 C 0.97847 0.6868 0.97739 0.0
C55 C 0.99189 0.66613 0.98278 0.0
C56 C 0.97982 0.70486 0.02207 0.0
C57 C 0.98775 0.81425 0.05255 0.0
C58 C 0.00432 0.82718 0.95702 0.0
C59 C 0.97845 0.85302 0.0121 0.0
C60 C 0.97547 0.8355 0.05605 0.0
C61 C 0.99372 0.8495 0.96346 0.0
C62 C 0.00147 0.80964 0.00169 0.0
C63 C 0.98943 0.80034 0.10796 0.0
O64 O 0.97648 0.76474 0.26192 0.0
O65 O 0.01477 0.76629 0.25393 0.0
O66 O 0.00969 0.7911 0.12143 0.0
O67 O 0.97097 0.78786 0.12713 0.0
H68 H 0.02436 0.81044 0.26405 0.0
H69 H 0.02477 0.84899 0.31508 0.0
H70 H 0.96982 0.82265 0.43424 0.0
H71 H 0.97049 0.78339 0.38476 0.0
H72 H 0.01852 0.64917 0.03611 0.0
H73 H 0.02093 0.68042 0.11291 0.0
H74 H 0.96613 0.68837 0.94053 0.0
H75 H 0.96857 0.72009 0.01877 0.0
H76 H 0.01584 0.82385 0.91939 0.0
H77 H 0.97029 0.87007 0.01919 0.0
H78 H 0.96506 0.83946 0.09548 0.0
H79 H 0.01108 0.79325 0.99842 0.0
C80 C 0.72511 0.00242 0.28536 0.0
C81 C 0.70486 0.01058 0.25717 0.0
C82 C 0.6833 0.00637 0.3513 0.0
C83 C 0.68413 0.01261 0.28992 0.0
C84 C 0.70371 0.99824 0.37933 0.0
C85 C 0.72447 0.99633 0.34657 0.0
U86 U 0.75855 0.00419 0.13731 0.0
O87 O 0.7924 0.02268 0.11917 0.0
O88 O 0.78853 0.98347 0.10689 0.0
C89 C 0.80246 0.00272 0.10376 0.0
C90 C 0.74706 1.00081 0.25159 0.0
C91 C 0.8195 0.00418 0.05433 0.0
C92 C 0.86058 0.00547 0.02708 0.0
C93 C 0.84316 0.00448 0.07074 0.0
C94 C 0.83094 0.00646 0.94873 0.0
C95 C 0.85477 0.0062 0.96564 0.0
C96 C 0.81329 0.00532 0.99302 0.0
C97 C 0.70723 0.01407 0.01408 0.0
C98 C 0.69082 0.00718 0.91419 0.0
C99 C 0.67142 0.03293 0.98559 0.0
C100 C 0.68882 0.02902 0.02803 0.0
C101 C 0.67219 0.02201 0.92847 0.0
C102 C 0.70818 0.00305 0.9572 0.0
C103 C 0.7257 0.01052 0.05847 0.0
O104 O 0.74856 0.98202 0.21597 0.0
O105 O 0.75436 0.02095 0.22609 0.0
O106 O 0.7362 0.02868 0.0868 0.0
O107 O 0.73264 0.98898 0.07265 0.0
H108 H 0.7051 0.01537 0.20984 0.0
H109 H 0.66864 0.01866 0.26694 0.0
H110 H 0.70367 0.99354 0.4267 0.0
H111 H 0.74004 0.99016 0.36904 0.0
H112 H 0.87874 0.00577 0.04156 0.0
H113 H 0.84823 0.00387 0.11783 0.0
H114 H 0.82602 0.00708 0.90156 0.0
H115 H 0.79501 0.00523 0.97958 0.0
H116 H 0.69175 0.99857 0.87044 0.0
H117 H 0.65738 0.04469 0.99732 0.0
H118 H 0.68782 0.03761 0.07181 0.0
H119 H 0.72247 0.99155 0.94591 0.0
C120 C 0.55106 0.70738 0.27127 0.0
C121 C 0.54133 0.68495 0.25309 0.0
C122 C 0.54955 0.66775 0.35167 0.0
C123 C 0.54042 0.66548 0.29283 0.0
C124 C 0.55957 0.69021 0.3694 0.0
C125 C 0.56025 0.7098 0.32969 0.0
U126 U 0.56021 0.72598 0.11251 0.0
O127 O 0.53966 0.74734 0.0493 0.0
O128 O 0.57732 0.7562 0.06368 0.0
C129 C 0.5581 0.76064 0.03341 0.0
C130 C 0.55247 0.72772 0.22831 0.0
C131 C 0.55459 0.78511 0.01161 0.0
C132 C 0.54227 0.82621 0.02314 0.0
C133 C 0.54591 0.80343 0.04792 0.0
C134 C 0.55611 0.81229 0.92634 0.0
C135 C 0.54736 0.83084 0.96196 0.0
C136 C 0.55968 0.78974 0.95095 0.0
C137 C 0.56978 0.67515 0.00503 0.0
C138 C 0.55023 0.67495 0.90802 0.0
C139 C 0.57003 0.63967 0.94268 0.0
C140 C 0.57741 0.65195 0.99447 0.0
C141 C 0.55454 0.65044 0.9023 0.0
C142 C 0.55797 0.68736 0.95935 0.0
C143 C 0.56877 0.68392 0.06701 0.0
O144 O 0.57335 0.73246 0.2051 0.0
O145 O 0.53551 0.72786 0.18802 0.0
O146 O 0.54775 0.69039 0.08291 0.0
O147 O 0.58559 0.69908 0.08433 0.0
H148 H 0.53433 0.68241 0.20799 0.0
H149 H 0.5322 0.64875 0.27748 0.0
H150 H 0.56718 0.69266 0.41384 0.0
H151 H 0.56812 0.72679 0.34446 0.0
H152 H 0.53554 0.84017 0.05172 0.0
H153 H 0.54184 0.80008 0.09489 0.0
H154 H 0.55969 0.81501 0.87885 0.0
H155 H 0.56618 0.7757 0.92211 0.0
H156 H 0.53855 0.68368 0.87705 0.0
H157 H 0.57408 0.62089 0.93789 0.0
H158 H 0.58686 0.64246 0.02895 0.0
H159 H 0.55225 0.70549 0.96668 0.0
C160 C 0.21659 0.51362 0.04455 0.0
C161 C 0.19428 0.50834 0.06875 0.0
C162 C 0.17661 0.51166 0.96896 0.0
C163 C 0.17449 0.50727 0.03127 0.0
C164 C 0.19896 0.51787 0.94563 0.0
C165 C 0.21872 0.51873 0.98304 0.0
U166 U 0.24516 0.52071 0.1985 0.0
O167 O 0.27436 0.50188 0.23984 0.0
O168 O 0.27763 0.54088 0.22367 0.0
C169 C 0.28764 0.52159 0.24408 0.0
C170 C 0.23771 0.51414 0.08284 0.0
C171 C 0.30301 0.52429 0.29714 0.0
C172 C 0.34309 0.52735 0.33343 0.0
C173 C 0.32704 0.52753 0.28616 0.0
C174 C 0.31126 0.52199 0.40481 0.0
C175 C 0.3355 0.52393 0.39306 0.0
C176 C 0.29502 0.522 0.35687 0.0
C177 C 0.1985 0.53411 0.32378 0.0
C178 C 0.17954 0.52046 0.41609 0.0
C179 C 0.17259 0.56028 0.37752 0.0
C180 C 0.18783 0.55632 0.33006 0.0
C181 C 0.16759 0.54202 0.41907 0.0
C182 C 0.19509 0.51654 0.36868 0.0
C183 C 0.20815 0.52816 0.26439 0.0
O184 O 0.24343 0.53518 0.10643 0.0
O185 O 0.2393 0.49634 0.12133 0.0
O186 O 0.21638 0.50664 0.2557 0.0
O187 O 0.21993 0.54539 0.23611 0.0
H188 H 0.19223 0.50467 0.11645 0.0
H189 H 0.15766 0.50229 0.05088 0.0
H190 H 0.20125 0.52195 0.89826 0.0
H191 H 0.23574 0.52324 0.96378 0.0
H192 H 0.36162 0.52919 0.32314 0.0
H193 H 0.33352 0.52937 0.24044 0.0
H194 H 0.30499 0.51937 0.45047 0.0
H195 H 0.27646 0.51953 0.36615 0.0
H196 H 0.17554 0.50609 0.44766 0.0
H197 H 0.16301 0.57676 0.37851 0.0
H198 H 0.18967 0.56994 0.29542 0.0
H199 H 0.20293 0.49916 0.36473 0.0
C200 C 0.09146 0.19448 0.12114 0.0
C201 C 0.09762 0.17135 0.13898 0.0
C202 C 0.08596 0.15539 0.04014 0.0
C203 C 0.095 0.15194 0.09861 0.0
C204 C 0.08029 0.17874 0.02258 0.0
C205 C 0.08299 0.19801 0.06265 0.0
U206 U 0.09662 0.22436 0.27901 0.0
O207 O 0.10923 0.26125 0.30254 0.0
O208 O 0.07197 0.25037 0.31387 0.0
C209 C 0.08809 0.26773 0.3179 0.0
C210 C 0.09173 0.21495 0.1633 0.0
C211 C 0.08542 0.28601 0.36537 0.0
C212 C 0.0816 0.3285 0.38697 0.0
C213 C 0.08828 0.31013 0.3484 0.0
C214 C 0.07028 0.29897 0.46229 0.0
C215 C 0.07201 0.32322 0.44398 0.0
C216 C 0.07683 0.28047 0.42316 0.0
C217 C 0.10784 0.18262 0.41608 0.0
C218 C 0.0909 0.1859 0.51588 0.0
C219 C 0.10773 0.14866 0.48382 0.0
C220 C 0.1145 0.15931 0.42955 0.0
C221 C 0.09416 0.16123 0.52571 0.0
C222 C 0.09741 0.19647 0.46089 0.0
C223 C 0.10655 0.1892 0.35224 0.0
O224 O 0.07421 0.21493 0.20146 0.0
O225 O 0.11193 0.2216 0.18794 0.0
O226 O 0.12274 0.2041 0.33038 0.0
O227 O 0.08532 0.19323 0.33251 0.0
H228 H 0.10395 0.16824 0.18429 0.0
H229 H 0.09938 0.13417 0.11373 0.0
H230 H 0.07366 0.18216 0.97774 0.0
H231 H 0.07801 0.2157 0.04823 0.0
H232 H 0.08287 0.34679 0.37059 0.0
H233 H 0.09454 0.31478 0.30368 0.0
H234 H 0.06334 0.29424 0.50624 0.0
H235 H 0.0744 0.26193 0.43712 0.0
H236 H 0.08127 0.1964 0.54797 0.0
H237 H 0.11079 0.1297 0.48896 0.0
H238 H 0.12263 0.14839 0.39546 0.0
H239 H 0.09234 0.21464 0.45132 0.0
C240 C 0.32051 0.0113 0.06984 0.0
C241 C 0.34377 0.01496 0.08947 0.0
C242 C 0.35746 0.01358 0.98524 0.0
C243 C 0.36214 0.01602 0.04744 0.0
C244 C 0.33413 0.00947 0.9663 0.0
C245 C 0.31589 0.00833 0.00818 0.0
U246 U 0.2918 0.00994 0.2282 0.0
O247 O 0.26105 0.02995 0.25712 0.0
O248 O 0.25927 0.99039 0.25411 0.0
C249 C 0.24825 0.01021 0.26585 0.0
C250 C 0.30058 0.01111 0.11188 0.0
C251 C 0.23161 0.00982 0.31647 0.0
C252 C 0.19143 0.01539 0.34731 0.0
C253 C 0.20926 0.01835 0.30501 0.0
C254 C 0.21835 0.99648 0.41565 0.0
C255 C 0.19557 0.00388 0.40236 0.0
C256 C 0.23633 0.99927 0.37259 0.0
C257 C 0.33183 0.00718 0.37059 0.0
C258 C 0.3453 0.02797 0.46163 0.0
C259 C 0.35059 0.98522 0.45065 0.0
C260 C 0.33947 0.98551 0.39471 0.0
C261 C 0.35469 0.00666 0.48291 0.0
C262 C 0.33376 0.02821 0.40592 0.0
C263 C 0.3265 0.00834 0.30546 0.0
O264 O 0.2965 0.99109 0.14184 0.0
O265 O 0.29842 0.03048 0.14507 0.0
O266 O 0.31851 0.02856 0.28436 0.0
O267 O 0.31662 0.98904 0.28063 0.0
H268 H 0.34767 0.01728 0.13701 0.0
H269 H 0.37992 0.0193 0.06345 0.0
H270 H 0.32996 0.00707 0.91895 0.0
H271 H 0.29805 0.00535 0.99228 0.0
H272 H 0.17411 0.02149 0.33621 0.0
H273 H 0.20528 0.02649 0.262 0.0
H274 H 0.22194 0.98758 0.45787 0.0
H275 H 0.25353 0.99255 0.3822 0.0
H276 H 0.34867 0.04474 0.48549 0.0
H277 H 0.35833 0.96871 0.46541 0.0
H278 H 0.33865 0.96912 0.36826 0.0
H279 H 0.32813 0.04523 0.38854 0.0
C280 C 0.46074 0.29824 0.04748 0.0
C281 C 0.4471 0.31764 0.06462 0.0
C282 C 0.46247 0.34148 0.98005 0.0
C283 C 0.44785 0.339 0.03105 0.0
C284 C 0.47603 0.32184 0.96337 0.0
C285 C 0.47508 0.30052 0.99653 0.0
U286 U 0.45536 0.26575 0.19866 0.0
O287 O 0.48062 0.24148 0.23919 0.0
O288 O 0.44436 0.22849 0.22165 0.0
C289 C 0.4653 0.22337 0.24188 0.0
C290 C 0.46182 0.27623 0.08429 0.0
C291 C 0.46694 0.20668 0.29324 0.0
C292 C 0.47578 0.16639 0.3258 0.0
C293 C 0.47278 0.18307 0.27997 0.0
C294 C 0.46686 0.19654 0.40028 0.0
C295 C 0.47269 0.17266 0.38674 0.0
C296 C 0.46402 0.21347 0.3538 0.0
C297 C 0.43753 0.30885 0.32926 0.0
C298 C 0.45372 0.31416 0.42968 0.0
C299 C 0.42821 0.34385 0.38798 0.0
C300 C 0.42501 0.32981 0.33644 0.0
C301 C 0.44402 0.33703 0.43309 0.0
C302 C 0.45064 0.30017 0.37764 0.0
C303 C 0.44149 0.30071 0.26751 0.0
O304 O 0.47879 0.27655 0.12431 0.0
O305 O 0.44188 0.2672 0.10541 0.0
O306 O 0.42672 0.28469 0.24371 0.0
O307 O 0.46351 0.29761 0.25307 0.0
H308 H 0.4361 0.31639 0.10433 0.0
H309 H 0.43699 0.35354 0.04515 0.0
H310 H 0.48794 0.32309 0.92551 0.0
H311 H 0.48603 0.28591 0.98308 0.0
H312 H 0.481 0.14856 0.31312 0.0
H313 H 0.47542 0.17753 0.23364 0.0
H314 H 0.46431 0.20209 0.44656 0.0
H315 H 0.45967 0.23172 0.36505 0.0
H316 H 0.46551 0.30818 0.46448 0.0
H317 H 0.42044 0.36132 0.38872 0.0
H318 H 0.41486 0.33677 0.29939 0.0
H319 H 0.46032 0.28387 0.37287 0.0
O320 O 0.08615 0.00581 0.68604 0.0
Zn321 Zn 0.05763 0.00799 0.74136 0.0
O322 O 0.02877 0.00541 0.69229 0.0
Zn323 Zn 0.00859 0.03151 0.71153 0.0
Zn324 Zn 0.03471 1.00163 0.60634 0.0
Zn325 Zn 0.01282 0.97625 0.71329 0.0
O326 O 0.97915 0.01965 0.75452 0.0
O327 O 0.98688 0.98153 0.77303 0.0
O328 O 0.05921 0.03956 0.7889 0.0
O329 O 0.02517 0.05561 0.76626 0.0
O330 O 0.00107 0.04667 0.63299 0.0
O331 O 0.0247 0.03178 0.56548 0.0
O332 O 0.01955 0.9714 0.56808 0.0
O333 O 0.05706 0.98037 0.80215 0.0
O334 O -0.0007 0.95707 0.64551 0.0
O335 O 0.0368 0.95502 0.74395 0.0
C336 C 0.08773 0.00189 0.62936 0.0
C337 C 0.97406 0.99964 0.77993 0.0
C338 C 0.01697 0.04989 0.59348 0.0
C339 C 0.04475 0.05646 0.7942 0.0
C340 C 0.00538 0.95572 0.59069 0.0
C341 C 0.04953 0.95913 0.7898 0.0
O342 O 0.06955 0.99964 0.59594 0.0
O343 O 0.50062 0.05556 0.63309 0.0
Zn344 Zn 0.50884 0.03009 0.69665 0.0
O345 O 0.51718 0.99918 0.6589 0.0
Zn346 Zn 0.49625 0.97285 0.68784 0.0
Zn347 Zn 0.5173 0.00322 0.57171 0.0
Zn348 Zn 0.5482 0.98875 0.6778 0.0
O349 O 0.51224 0.9471 0.73477 0.0
O350 O 0.54952 0.95894 0.72845 0.0
O351 O 0.48058 0.02492 0.75297 0.0
O352 O 0.47285 0.98555 0.74573 0.0
O353 O 0.47887 0.95857 0.61746 0.0
O354 O 0.49763 0.97547 0.54156 0.0
O355 O 0.54986 0.00203 0.53384 0.0
O356 O 0.5367 0.04218 0.74709 0.0
O357 O 0.56909 0.98447 0.60742 0.0
O358 O 0.56271 0.01449 0.72483 0.0
C359 C 0.49843 0.05386 0.57586 0.0
C360 C 0.53368 0.94436 0.74775 0.0
C361 C 0.47838 0.96919 0.56681 0.0
C362 C 0.46854 0.00607 0.7675 0.0
C363 C 0.56821 0.99236 0.55393 0.0
C364 C 0.55727 0.03395 0.75007 0.0
O365 O 0.50329 0.03457 0.54815 0.0
O366 O 0.4529 0.49978 0.63414 0.0
Zn367 Zn 0.48059 0.4979 0.69255 0.0
O368 O 0.51101 0.49829 0.64784 0.0
Zn369 Zn 0.52842 0.47008 0.66981 0.0
Zn370 Zn 0.50538 0.49883 0.56168 0.0
Zn371 Zn 0.53082 0.52626 0.66474 0.0
O372 O 0.55969 0.4785 0.70842 0.0
O373 O 0.56135 0.51834 0.70684 0.0
O374 O 0.47616 0.46739 0.74388 0.0
O375 O 0.5099 0.44962 0.72796 0.0
O376 O 0.53129 0.44762 0.59991 0.0
O377 O 0.51048 0.46611 0.53025 0.0
O378 O 0.5229 0.52563 0.51584 0.0
O379 O 0.4793 0.52712 0.7465 0.0
O380 O 0.53743 0.54718 0.59216 0.0
O381 O 0.51266 0.546 0.71897 0.0
C382 C 0.45251 0.50203 0.57694 0.0
C383 C 0.57025 0.49842 0.721 0.0
C384 C 0.52048 0.44759 0.54974 0.0
C385 C 0.48984 0.45008 0.75269 0.0
C386 C 0.53366 0.54445 0.53595 0.0
C387 C 0.49348 0.54525 0.74794 0.0
O388 O 0.47125 0.50258 0.54595 0.0
O389 O 0.96931 0.52301 0.57519 0.0
Zn390 Zn -0.00126 0.5305 0.62502 0.0
O391 O 0.00845 0.50133 0.66835 0.0
Zn392 Zn 0.00497 0.50635 0.7541 0.0
Zn393 Zn 0.98992 0.47312 0.64022 0.0
Zn394 Zn 0.04068 0.49454 0.65606 0.0
O395 O 0.0341 0.50003 0.80452 0.0
O396 O 0.06011 0.498 0.73076 0.0
O397 O 0.99354 0.55882 0.6832 0.0
O398 O -0.00126 0.54083 0.77101 0.0
O399 O 0.97519 0.48922 0.77629 0.0
O400 O 0.96878 0.46121 0.70583 0.0
O401 O 0.00964 0.44602 0.60719 0.0
O402 O 0.02427 0.54068 0.56629 0.0
O403 O 0.0454 0.46215 0.61918 0.0
O404 O 0.053 0.51747 0.5974 0.0
C405 C 0.95941 0.50317 0.55847 0.0
C406 C 0.05531 0.49923 0.7866 0.0
C407 C 0.96231 0.47268 0.75216 0.0
C408 C 0.99438 0.55953 0.74077 0.0
C409 C 0.03182 0.44493 0.60164 0.0
C410 C 0.04534 0.53393 0.56409 0.0
O411 O 0.96661 0.48305 0.577 0.0
H412 H 0.19026 0.01497 0.52224 0.0
H413 H 0.15542 0.98012 0.37126 0.0
H414 H 0.11957 0.97494 0.4299 0.0
H415 H 0.09717 0.98314 0.52014 0.0
H416 H 0.13065 0.01852 0.67236 0.0
H417 H 0.168 0.02041 0.61767 0.0
C418 C 0.1749 0.00591 0.50282 0.0
C419 C 0.17534 0.99818 0.44234 0.0
C420 C 0.15407 0.00327 0.53675 0.0
C421 C 0.15535 0.98649 0.41747 0.0
C422 C 0.13485 0.98352 0.45093 0.0
C423 C 0.11264 0.99116 0.5417 0.0
C424 C 0.11103 1.00092 0.6 0.0
C425 C 0.13384 0.99236 0.50997 0.0
C426 C 0.13138 0.0109 0.62745 0.0
C427 C 0.15272 0.01207 0.59608 0.0
H428 H 0.46035 0.12509 0.38145 0.0
H429 H 0.49241 0.17808 0.50057 0.0
H430 H 0.50136 0.14641 0.57286 0.0
H431 H 0.50299 0.10273 0.59821 0.0
H432 H 0.47494 0.05074 0.47024 0.0
H433 H 0.46197 0.08275 0.40548 0.0
C434 C 0.46952 0.12986 0.42287 0.0
C435 C 0.476 0.15406 0.43463 0.0
C436 C 0.47549 0.11153 0.46284 0.0
C437 C 0.48708 0.15971 0.48998 0.0
C438 C 0.49241 0.14152 0.53122 0.0
C439 C 0.49382 0.09849 0.55646 0.0
C440 C 0.48975 0.07422 0.53956 0.0
C441 C 0.48713 0.11723 0.51761 0.0
C442 C 0.47815 0.06911 0.48479 0.0
C443 C 0.47076 0.08746 0.44746 0.0
H444 H 0.37014 0.49275 0.39006 0.0
H445 H 0.34098 0.54741 0.50215 0.0
H446 H 0.37396 0.54429 0.57321 0.0
H447 H 0.41308 0.52786 0.59846 0.0
H448 H 0.44202 0.47487 0.48027 0.0
H449 H 0.40717 0.47534 0.41678 0.0
C450 C 0.37094 0.50388 0.4303 0.0
C451 C 0.35337 0.52042 0.4407 0.0
C452 C 0.39001 0.5023 0.4697 0.0
C453 C 0.35433 0.53449 0.49339 0.0
C454 C 0.37325 0.5328 0.5337 0.0
C455 C 0.41148 0.51625 0.55923 0.0
C456 C 0.43006 0.50142 0.54372 0.0
C457 C 0.39147 0.51705 0.52172 0.0
C458 C 0.42799 0.48658 0.49261 0.0
C459 C 0.40809 0.48681 0.45634 0.0
H460 H 0.09016 0.36887 0.45966 0.0
H461 H 0.03194 0.32215 0.51246 0.0
H462 H 0.01432 0.35537 0.56604 0.0
H463 H 0.01451 0.39844 0.59434 0.0
H464 H 0.07291 0.44471 0.54044 0.0
H465 H 0.09087 0.41121 0.48944 0.0
C466 C 0.07356 0.3659 0.48264 0.0
C467 C 0.06242 0.34293 0.48158 0.0
C468 C 0.06333 0.38518 0.51264 0.0
C469 C 0.04114 0.33947 0.51292 0.0
C470 C 0.03089 0.35857 0.54313 0.0
C471 C 0.03116 0.40113 0.57146 0.0
C472 C 0.04234 0.42406 0.57143 0.0
C473 C 0.04166 0.3816 0.54269 0.0
C474 C 0.06401 0.42722 0.54179 0.0
C475 C 0.07431 0.40806 0.51245 0.0
H476 H 0.89147 0.97689 0.96181 0.0
H477 H 0.86136 0.03654 0.86957 0.0
H478 H 0.89586 0.03996 0.80388 0.0
H479 H 0.93538 0.02699 0.77614 0.0
H480 H 0.96484 0.96684 0.86842 0.0
H481 H 0.9299 0.96283 0.93139 0.0
C482 C 0.89243 0.99057 0.92708 0.0
C483 C 0.874 0.00654 0.92068 0.0
C484 C 0.91229 0.99248 0.89007 0.0
C485 C 0.87527 0.02395 0.87503 0.0
C486 C 0.89506 0.02603 0.83791 0.0
C487 C 0.93415 0.01302 0.81008 0.0
C488 C 0.95274 0.99729 0.81773 0.0
C489 C 0.91382 0.0106 0.84563 0.0
C490 C 0.95077 0.97912 0.86145 0.0
C491 C 0.9308 0.97682 0.8975 0.0
H492 H 0.5753 0.85612 0.88389 0.0
H493 H 0.50892 0.85845 0.97612 0.0
H494 H 0.49903 0.89426 0.91904 0.0
H495 H 0.50797 0.92298 0.83696 0.0
H496 H 0.57464 0.92076 0.74609 0.0
H497 H 0.58548 0.88651 0.80764 0.0
C498 C 0.55867 0.86449 0.89159 0.0
C499 C 0.54274 0.85441 0.93363 0.0
C500 C 0.55299 0.88484 0.85808 0.0
C501 C 0.52153 0.86584 0.94417 0.0
C502 C 0.51577 0.88618 0.9111 0.0
C503 C 0.52484 0.91494 0.83066 0.0
C504 C 0.54034 0.9241 0.78642 0.0
C505 C 0.53112 0.89548 0.86691 0.0
C506 C 0.56237 0.91392 0.77964 0.0
C507 C 0.56858 0.89436 0.81482 0.0
H508 H 0.66425 0.51449 0.87171 0.0
H509 H 0.65004 0.43947 0.90968 0.0
H510 H 0.61572 0.43938 0.84414 0.0
H511 H 0.58886 0.46068 0.77922 0.0
H512 H 0.6018 0.53597 0.74196 0.0
H513 H 0.63753 0.5358 0.8033 0.0
C514 C 0.65384 0.49806 0.86475 0.0
C515 C 0.65972 0.47703 0.89575 0.0
C516 C 0.63384 0.49817 0.82723 0.0
C517 C 0.64583 0.45595 0.88687 0.0
C518 C 0.6262 0.45586 0.84929 0.0
C519 C 0.59957 0.47705 0.78389 0.0
C520 C 0.59261 0.49827 0.75569 0.0
C521 C 0.61988 0.4769 0.81977 0.0
C522 C 0.60667 0.51934 0.76309 0.0
C523 C 0.62714 0.51926 0.7982 0.0
H524 H 0.99263 0.66379 0.85832 0.0
H525 H 0.9829 0.62044 0.01781 0.0
H526 H 0.98136 0.58407 0.95668 0.0
H527 H 0.98556 0.56425 0.85987 0.0
H528 H 0.99565 0.60619 0.69824 0.0
H529 H 0.99395 0.64332 0.75786 0.0
C530 C 0.98985 0.64638 0.87933 0.0
C531 C 0.98824 0.64481 0.94268 0.0
C532 C 0.9892 0.62526 0.84362 0.0
C533 C 0.9846 0.62211 0.96933 0.0
C534 C 0.98368 0.60129 0.93439 0.0
C535 C 0.98729 0.58147 0.83731 0.0
C536 C 0.99103 0.58234 0.77459 0.0
C537 C 0.98648 0.6026 0.87177 0.0
C538 C 0.99284 0.60493 0.74642 0.0
C539 C 0.99195 0.62619 0.7806 0.0
H540 H 0.10397 0.12017 0.58797 0.0
H541 H 0.04899 0.17041 0.55924 0.0
H542 H 0.01985 0.14052 0.59105 0.0
H543 H 0.00902 0.09744 0.59922 0.0
H544 H 0.06361 0.04628 0.61486 0.0
H545 H 0.09347 0.0786 0.61443 0.0
C546 C 0.08566 0.12475 0.58955 0.0
C547 C 0.0788 0.14727 0.56837 0.0
C548 C 0.06864 0.10685 0.60326 0.0
C549 C 0.05507 0.15322 0.57417 0.0
C550 C 0.03816 0.13591 0.59143 0.0
C551 C 0.02744 0.09353 0.60365 0.0
C552 C 0.03427 0.06962 0.60441 0.0
C553 C 0.04458 0.11222 0.60146 0.0
C554 C 0.0581 0.06461 0.61168 0.0
C555 C 0.07516 0.08309 0.61192 0.0
H556 H 0.3961 0.02819 0.46403 0.0
H557 H 0.35765 0.98494 0.59325 0.0
H558 H 0.39453 0.97245 0.63858 0.0
H559 H 0.43646 0.96648 0.62456 0.0
H560 H 0.47365 0.00432 0.48214 0.0
H561 H 0.43847 0.02598 0.45791 0.0
C562 C 0.39588 0.01686 0.50381 0.0
C563 C 0.37444 0.00744 0.52556 0.0
C564 C 0.41692 0.00801 0.52536 0.0
C565 C 0.3741 0.99247 0.57634 0.0
C566 C 0.39514 0.98503 0.60135 0.0
C567 C 0.437 0.97966 0.58862 0.0
C568 C 0.45757 0.98345 0.55451 0.0
C569 C 0.41651 0.99138 0.57339 0.0
C570 C 0.458 1.00081 0.50863 0.0
C571 C 0.43794 0.01331 0.49493 0.0
H572 H 0.49 0.34396 0.46239 0.0
H573 H 0.4217 0.37308 0.49204 0.0
H574 H 0.44017 0.41051 0.52853 0.0
H575 H 0.47533 0.4361 0.54093 0.0
H576 H 0.54377 0.40691 0.51859 0.0
H577 H 0.52548 0.36783 0.48987 0.0
C578 C 0.47906 0.35809 0.47884 0.0
C579 C 0.45445 0.35586 0.4733 0.0
C580 C 0.48979 0.37963 0.49909 0.0
C581 C 0.44065 0.3745 0.49474 0.0
C582 C 0.45119 0.39594 0.51518 0.0
C583 C 0.48625 0.42123 0.52883 0.0
C584 C 0.51077 0.42443 0.52857 0.0
C585 C 0.47567 0.39897 0.51492 0.0
C586 C 0.52484 0.40488 0.51651 0.0
C587 C 0.51438 0.38262 0.50089 0.0
H588 H 0.1261 0.52227 0.39014 0.0
H589 H 0.16132 0.56699 0.5232 0.0
H590 H 0.12373 0.5738 0.57329 0.0
H591 H 0.0815 0.56442 0.58212 0.0
H592 H 0.04658 0.51971 0.4487 0.0
H593 H 0.08329 0.51638 0.39313 0.0
C594 C 0.12542 0.53329 0.43051 0.0
C595 C 0.14615 0.54363 0.45449 0.0
C596 C 0.10385 0.53777 0.45716 0.0
C597 C 0.14541 0.55843 0.50552 0.0
C598 C 0.12399 0.56258 0.53332 0.0
C599 C 0.08182 0.55509 0.5391 0.0
C600 C 0.06157 0.54272 0.51848 0.0
C601 C 0.10315 0.55232 0.50946 0.0
C602 C 0.06196 0.52999 0.46392 0.0
C603 C 0.08304 0.52753 0.43325 0.0
H604 H 0.03773 0.86174 0.92391 0.0
H605 H 0.96603 0.88449 0.9199 0.0
H606 H 0.979 0.92328 0.87974 0.0
H607 H 0.0102 0.95054 0.84653 0.0
H608 H 0.08066 0.92614 0.82992 0.0
H609 H 0.06902 0.8883 0.88069 0.0
C610 C 0.02487 0.87496 0.91299 0.0
C611 C 0.00097 0.8704 0.92609 0.0
C612 C 0.0324 0.89713 0.88882 0.0
C613 C 0.98457 0.88776 0.91159 0.0
C614 C 0.99196 0.90998 0.88903 0.0
C615 C 0.02314 0.93717 0.85585 0.0
C616 C 0.04634 0.94119 0.83688 0.0
C617 C 0.01582 0.91496 0.87881 0.0
C618 C 0.06292 0.92363 0.84662 0.0
C619 C 0.05609 0.90187 0.87407 0.0
H620 H 0.62621 0.01874 0.95168 0.0
H621 H 0.67557 0.03458 0.80912 0.0
H622 H 0.64333 0.04616 0.74286 0.0
H623 H 0.6009 0.04983 0.72557 0.0
H624 H 0.55234 0.03445 0.8699 0.0
H625 H 0.58482 0.02624 0.93767 0.0
C626 C 0.62992 0.02507 0.90635 0.0
C627 C 0.65309 0.02618 0.88538 0.0
C628 C 0.61164 0.03257 0.87001 0.0
C629 C 0.65776 0.03352 0.82596 0.0
C630 C 0.63944 0.04048 0.78858 0.0
C631 C 0.59767 0.04604 0.77288 0.0
C632 C 0.57448 0.04308 0.79341 0.0
C633 C 0.61635 0.04026 0.81048 0.0
C634 C 0.57014 0.03757 0.85402 0.0
C635 C 0.58864 0.03214 0.8921 0.0
H636 H 0.53005 0.61168 0.94062 0.0
H637 H 0.54196 0.65611 0.78384 0.0
H638 H 0.51498 0.62995 0.72512 0.0
H639 H 0.49417 0.59104 0.71528 0.0
H640 H 0.48699 0.54432 0.86897 0.0
H641 H 0.50465 0.5756 0.93388 0.0
C642 C 0.52685 0.61553 0.89343 0.0
C643 C 0.53857 0.63512 0.86559 0.0
C644 C 0.51165 0.60043 0.86041 0.0
C645 C 0.53353 0.64069 0.80542 0.0
C646 C 0.518 0.62592 0.77224 0.0
C647 C 0.49545 0.58831 0.76364 0.0
C648 C 0.48981 0.56557 0.78769 0.0
C649 C 0.5076 0.60536 0.7989 0.0
C650 C 0.4912 0.56185 0.84997 0.0
C651 C 0.50189 0.57946 0.88656 0.0
H652 H 0.86023 0.50627 0.78414 0.0
H653 H 0.84836 0.4312 0.82391 0.0
H654 H 0.88686 0.42229 0.78339 0.0
H655 H 0.9277 0.43762 0.76467 0.0
H656 H 0.94041 0.51408 0.74656 0.0
H657 H 0.89874 0.52087 0.75341 0.0
C658 C 0.86588 0.48786 0.78246 0.0
C659 C 0.85211 0.4697 0.80993 0.0
C660 C 0.88896 0.48335 0.76652 0.0
C661 C 0.85892 0.44573 0.80456 0.0
C662 C 0.88122 0.44067 0.78275 0.0
C663 C 0.92119 0.45567 0.76269 0.0
C664 C 0.93702 0.4754 0.75861 0.0
C665 C 0.89709 0.45962 0.76887 0.0
C666 C 0.92852 0.49871 0.75321 0.0
C667 C 0.90468 0.50262 0.7559 0.0
H668 H 0.04822 0.14695 0.96708 0.0
H669 H 0.11437 0.1175 0.01769 0.0
H670 H 0.10785 0.08456 0.94553 0.0
H671 H 0.08333 0.06426 0.86716 0.0
H672 H 0.01746 0.09473 0.81683 0.0
H673 H 0.02418 0.12723 0.88887 0.0
C674 C 0.06137 0.13348 0.96199 0.0
C675 C 0.08183 0.13484 0.99762 0.0
C676 C 0.05761 0.11476 0.92011 0.0
C677 C 0.09836 0.11683 0.99128 0.0
C678 C 0.09472 0.09807 0.94969 0.0
C679 C 0.0705 0.07807 0.87165 0.0
C680 C 0.04992 0.07691 0.83619 0.0
C681 C 0.07441 0.09687 0.91365 0.0
C682 C 0.0335 0.09503 0.84309 0.0
C683 C 0.03728 0.11368 0.88452 0.0
H684 H 0.40036 0.99343 0.98916 0.0
H685 H 0.35747 0.03812 0.87873 0.0
H686 H 0.38829 0.04078 0.8025 0.0
H687 H 0.42758 0.02991 0.76611 0.0
H688 H 0.46933 0.9835 0.8744 0.0
H689 H 0.43922 0.98237 0.95282 0.0
C690 C 0.39788 0.00397 0.94874 0.0
C691 C 0.37665 0.0156 0.93985 0.0
C692 C 0.41561 0.00525 0.90475 0.0
C693 C 0.37357 0.02883 0.88658 0.0
C694 C 0.39124 0.03047 0.84302 0.0
C695 C 0.43008 0.01985 0.80731 0.0
C696 C 0.45067 0.00711 0.81524 0.0
C697 C 0.41235 0.01873 0.8515 0.0
C698 C 0.45362 0.9936 0.8679 0.0
C699 C 0.4364 0.9929 0.91258 0.0
H700 H 0.46828 0.34713 0.85851 0.0
H701 H 0.46071 0.38798 0.02262 0.0
H702 H 0.46595 0.42535 0.96614 0.0
H703 H 0.47563 0.44665 0.87043 0.0
H704 H 0.48695 0.40499 0.70973 0.0
H705 H 0.47764 0.36789 0.76444 0.0
C706 C 0.46796 0.36413 0.88232 0.0
C707 C 0.46421 0.36448 0.94511 0.0
C708 C 0.47176 0.38557 0.84993 0.0
C709 C 0.46326 0.38693 0.97434 0.0
C710 C 0.46646 0.40841 0.94208 0.0
C711 C 0.47568 0.42942 0.84752 0.0
C712 C 0.48176 0.42846 0.78616 0.0
C713 C 0.47105 0.40798 0.87992 0.0
C714 C 0.48223 0.40608 0.75696 0.0
C715 C 0.47696 0.38488 0.78822 0.0
H716 H 0.13083 0.52323 0.98957 0.0
H717 H 0.17581 0.4924 0.85559 0.0
H718 H 0.14246 0.48592 0.78846 0.0
H719 H 0.10055 0.48803 0.76793 0.0
H720 H 0.05471 0.51719 0.90199 0.0
H721 H 0.08827 0.5247 0.96937 0.0
C722 C 0.13333 0.51489 0.94594 0.0
C723 C 0.15597 0.50845 0.92786 0.0
C724 C 0.11386 0.51061 0.90773 0.0
C725 C 0.1588 0.49803 0.87056 0.0
C726 C 0.13965 0.49405 0.8322 0.0
C727 C 0.09781 0.49585 0.8121 0.0
C728 C 0.07507 0.50178 0.83008 0.0
C729 C 0.11711 0.50011 0.85043 0.0
C730 C 0.07194 0.51203 0.88739 0.0
C731 C 0.09116 0.51651 0.92574 0.0
H732 H 0.98982 0.84957 0.49783 0.0
H733 H 0.00381 0.88371 0.3264 0.0
H734 H 0.00666 0.92283 0.37577 0.0
H735 H 0.00723 0.94736 0.4688 0.0
H736 H 0.99024 0.91306 0.63831 0.0
H737 H 0.98589 0.87435 0.58811 0.0
C738 C 0.99302 0.86553 0.4708 0.0
C739 C 0.997 0.86339 0.4084 0.0
C740 C 0.99406 0.88814 0.49918 0.0
C741 C 0.00138 0.88451 0.37475 0.0
C742 C 0.0028 0.90702 0.40287 0.0
C743 C 0.00221 0.93147 0.49451 0.0
C744 C -0.00084 0.93325 0.55725 0.0
C745 C -0.00047 0.90905 0.46524 0.0
C746 C 0.99257 0.91242 0.58987 0.0
C747 C 0.99022 0.89012 0.56128 0.0
H748 H 0.66465 0.97321 0.42827 0.0
H749 H 0.65197 0.04251 0.35064 0.0
H750 H 0.61451 0.04385 0.40383 0.0
H751 H 0.58524 0.02514 0.47282 0.0
H752 H 0.59926 0.95673 0.55351 0.0
H753 H 0.63619 0.95513 0.49852 0.0
C754 C 0.65378 0.98871 0.42342 0.0
C755 C 0.66102 0.00767 0.38538 0.0
C756 C 0.63236 0.98937 0.45417 0.0
C757 C 0.64662 0.02751 0.37903 0.0
C758 C 0.62523 0.02831 0.40951 0.0
C759 C 0.59628 0.00978 0.47755 0.0
C760 C 0.58946 0.99093 0.51644 0.0
C761 C 0.61782 0.00925 0.44687 0.0
C762 C 0.60413 0.97138 0.52351 0.0
C763 C 0.62527 0.97048 0.49226 0.0
H764 H 0.55322 0.61955 0.32678 0.0
H765 H 0.54218 0.6689 0.4739 0.0
H766 H 0.53865 0.63538 0.54381 0.0
H767 H 0.53648 0.59198 0.56302 0.0
H768 H 0.54369 0.54231 0.41525 0.0
H769 H 0.55068 0.57598 0.3459 0.0
C770 C 0.54983 0.62307 0.37399 0.0
C771 C 0.54807 0.64698 0.39458 0.0
C772 C 0.54708 0.60357 0.41404 0.0
C773 C 0.54412 0.65091 0.45643 0.0
C774 C 0.54188 0.63166 0.4966 0.0
C775 C 0.53987 0.58849 0.51574 0.0
C776 C 0.53971 0.56462 0.49442 0.0
C777 C 0.54313 0.60793 0.47589 0.0
C778 C 0.54372 0.56048 0.43283 0.0
C779 C 0.54768 0.57974 0.39317 0.0
H780 H 0.88051 0.51663 0.36101 0.0
H781 H 0.85516 0.44945 0.43683 0.0
H782 H 0.88794 0.45005 0.50803 0.0
H783 H 0.92416 0.46934 0.54793 0.0
H784 H 0.94868 0.53749 0.47586 0.0
H785 H 0.91596 0.53687 0.40421 0.0
C786 C 0.88231 0.50206 0.39286 0.0
C787 C 0.86553 0.48294 0.39331 0.0
C788 C 0.90105 0.5027 0.43438 0.0
C789 C 0.86782 0.4644 0.43562 0.0
C790 C 0.88658 0.4647 0.47627 0.0
C791 C 0.92239 0.48403 0.5164 0.0
C792 C 0.93903 0.50329 0.51672 0.0
C793 C 0.90335 0.48371 0.47594 0.0
C794 C 0.93617 0.52242 0.47646 0.0
C795 C 0.91749 0.52204 0.43535 0.0
loop_
_geom_bond_atom_site_label_1
_geom_bond_atom_site_label_2
_geom_bond_distance
_geom_bond_site_symmetry_2
_ccdc_geom_bond_type
C0 C1 1.264 . S
C0 C5 1.479 . S
C0 C10 1.465 . S
C1 C0 1.264 . S
C1 C3 1.339 . S
C1 H28 0.931 . S
C2 C3 1.395 . S
C2 C4 1.320 . S
C3 C1 1.339 . S
C3 C2 1.395 . S
C3 H29 0.929 . S
C4 C2 1.320 . S
C4 C5 1.405 . S
C4 H30 0.930 . S
C5 C0 1.479 . S
C5 C4 1.405 . S
C5 H31 0.931 . S
U6 O7 2.454 . S
U6 O8 2.458 1_554 S
U6 C9 2.984 . S
U6 C10 2.847 . S
U6 C23 2.882 1_554 S
U6 O24 2.441 . S
U6 O25 2.420 . S
U6 O26 2.455 1_554 S
U6 O27 2.449 . S
O7 U6 2.454 . S
O7 C9 1.353 . S
O8 U6 2.458 1_556 S
O8 C9 1.286 1_556 S
C9 U6 2.984 . S
C9 O7 1.353 . S
C9 O8 1.286 1_554 S
C9 C11 1.363 1_554 S
C10 C0 1.465 . S
C10 U6 2.847 . S
C10 O24 1.249 . S
C10 O25 1.202 . S
C11 C9 1.363 1_556 S
C11 C13 1.408 1_556 S
C11 C16 1.342 . S
C12 C13 1.310 . S
C12 C15 1.461 1_554 S
C12 H32 0.932 . S
C13 C11 1.408 1_554 S
C13 C12 1.310 . S
C13 H33 0.930 . S
C14 C15 1.474 . S
C14 C16 1.285 . S
C14 H34 0.929 . S
C15 C12 1.461 1_556 S
C15 C14 1.474 . S
C16 C11 1.342 . S
C16 C14 1.285 . S
C16 H35 0.930 . S
C17 C20 1.424 . S
C17 C22 1.245 . S
C17 C23 1.428 . S
C18 C21 1.260 . S
C18 C22 1.477 . S
C18 H36 0.932 . S
C19 C20 1.384 . S
C19 C21 1.479 . S
C19 H37 0.929 . S
C20 C17 1.424 . S
C20 C19 1.384 . S
C20 H38 0.928 . S
C21 C18 1.260 . S
C21 C19 1.479 . S
C22 C17 1.245 . S
C22 C18 1.477 . S
C22 H39 0.932 . S
C23 U6 2.882 1_556 S
C23 C17 1.428 . S
C23 O26 1.301 . S
C23 O27 1.282 1_556 S
O24 U6 2.441 . S
O24 C10 1.249 . S
O25 U6 2.420 . S
O25 C10 1.202 . S
O26 U6 2.455 1_556 S
O26 C23 1.301 . S
O27 U6 2.449 . S
O27 C23 1.282 1_554 S
H28 C1 0.931 . S
H29 C3 0.929 . S
H30 C4 0.930 . S
H31 C5 0.931 . S
H32 C12 0.932 . S
H33 C13 0.930 . S
H34 C14 0.929 . S
H35 C16 0.930 . S
H36 C18 0.932 . S
H37 C19 0.929 . S
H38 C20 0.928 . S
H39 C22 0.932 . S
C40 C41 1.264 . S
C40 C45 1.480 . S
C40 C50 1.465 . S
C41 C40 1.264 . S
C41 C43 1.339 . S
C41 H68 0.931 . S
C42 C43 1.395 1_655 S
C42 C44 1.320 . S
C43 C41 1.339 . S
C43 C42 1.395 1_455 S
C43 H69 0.929 . S
C44 C42 1.320 . S
C44 C45 1.402 1_655 S
C44 H70 0.930 . S
C45 C40 1.480 . S
C45 C44 1.402 1_455 S
C45 H71 0.932 . S
U46 O47 2.454 1_455 S
U46 O48 2.458 1_455 S
U46 C49 2.984 1_455 S
U46 C50 2.847 . S
U46 C63 2.882 . S
U46 O64 2.441 . S
U46 O65 2.420 . S
U46 O66 2.455 . S
U46 O67 2.449 . S
O47 U46 2.454 1_655 S
O47 C49 1.353 . S
O48 U46 2.458 1_655 S
O48 C49 1.286 . S
C49 U46 2.984 1_655 S
C49 O47 1.353 . S
C49 O48 1.286 . S
C49 C51 1.363 . S
C50 C40 1.465 . S
C50 U46 2.847 . S
C50 O64 1.249 . S
C50 O65 1.202 . S
C51 C49 1.363 . S
C51 C53 1.408 . S
C51 C56 1.342 1_554 S
C52 C53 1.310 . S
C52 C55 1.461 . S
C52 H72 0.932 . S
C53 C51 1.408 . S
C53 C52 1.310 . S
C53 H73 0.930 . S
C54 C55 1.474 1_556 S
C54 C56 1.285 . S
C54 H74 0.929 . S
C55 C52 1.461 . S
C55 C54 1.474 1_554 S
C56 C51 1.342 1_556 S
C56 C54 1.285 . S
C56 H75 0.930 . S
C57 C60 1.424 . S
C57 C62 1.245 . S
C57 C63 1.428 1_556 S
C58 C61 1.260 1_455 S
C58 C62 1.477 . S
C58 H76 0.932 . S
C59 C60 1.384 . S
C59 C61 1.479 1_455 S
C59 H77 0.929 . S
C60 C57 1.424 . S
C60 C59 1.384 . S
C60 H78 0.928 1_556 S
C61 C58 1.260 1_655 S
C61 C59 1.479 1_655 S
C62 C57 1.245 . S
C62 C58 1.477 . S
C62 H79 0.932 . S
C63 U46 2.882 . S
C63 C57 1.428 1_554 S
C63 O66 1.301 . S
C63 O67 1.282 . S
O64 U46 2.441 . S
O64 C50 1.249 . S
O65 U46 2.420 . S
O65 C50 1.202 . S
O66 U46 2.455 . S
O66 C63 1.301 . S
O67 U46 2.449 . S
O67 C63 1.282 . S
H68 C41 0.931 . S
H69 C43 0.929 . S
H70 C44 0.930 . S
H71 C45 0.932 . S
H72 C52 0.932 . S
H73 C53 0.930 . S
H74 C54 0.929 . S
H75 C56 0.930 . S
H76 C58 0.932 . S
H77 C59 0.929 . S
H78 C60 0.928 1_554 S
H79 C62 0.932 . S
C80 C81 1.264 . S
C80 C85 1.479 . S
C80 C90 1.465 . S
C81 C80 1.264 . S
C81 C83 1.339 . S
C81 H108 0.931 . S
C82 C83 1.395 . S
C82 C84 1.320 . S
C83 C81 1.339 . S
C83 C82 1.395 . S
C83 H109 0.929 . S
C84 C82 1.320 . S
C84 C85 1.405 . S
C84 H110 0.920 1_545 S
C85 C80 1.479 . S
C85 C84 1.405 . S
C85 H111 0.931 . S
U86 O87 2.454 . S
U86 O88 2.458 . S
U86 C89 2.984 . S
U86 C90 2.847 . S
U86 C103 2.882 1_554 S
U86 O104 2.441 . S
U86 O105 2.420 . S
U86 O106 2.455 1_554 S
U86 O107 2.449 . S
O87 U86 2.454 . S
O87 C89 1.353 . S
O88 U86 2.458 . S
O88 C89 1.286 . S
C89 U86 2.984 . S
C89 O87 1.353 . S
C89 O88 1.286 . S
C89 C91 1.363 . S
C90 C80 1.465 . S
C90 U86 2.847 . S
C90 O104 1.249 . S
C90 O105 1.202 . S
C91 C89 1.363 . S
C91 C93 1.408 . S
C91 C96 1.342 1_554 S
C92 C93 1.310 . S
C92 C95 1.460 1_544 S
C92 H112 0.936 . S
C93 C91 1.408 . S
C93 C92 1.310 . S
C93 H113 0.930 . S
C94 C95 1.475 . S
C94 C96 1.282 1_565 S
C94 H114 0.933 . S
C95 C92 1.460 1_566 S
C95 C94 1.475 . S
C96 C91 1.342 1_556 S
C96 C94 1.282 1_545 S
C96 H115 0.931 . S
C97 C100 1.424 . S
C97 C102 1.245 . S
C97 C103 1.428 . S
C98 C101 1.260 . S
C98 C102 1.477 . S
C98 H116 0.932 . S
C99 C100 1.384 . S
C99 C101 1.479 . S
C99 H117 0.929 . S
C100 C97 1.424 . S
C100 C99 1.384 . S
C100 H118 0.928 . S
C101 C98 1.260 . S
C101 C99 1.479 . S
C102 C97 1.245 . S
C102 C98 1.477 . S
C102 H119 0.932 . S
C103 U86 2.882 1_556 S
C103 C97 1.428 . S
C103 O106 1.301 . S
C103 O107 1.282 1_556 S
O104 U86 2.441 . S
O104 C90 1.249 . S
O105 U86 2.420 . S
O105 C90 1.202 . S
O106 U86 2.455 1_556 S
O106 C103 1.301 . S
O107 U86 2.449 . S
O107 C103 1.282 1_554 S
H108 C81 0.931 . S
H109 C83 0.929 . S
H110 C84 0.920 1_565 S
H111 C85 0.931 . S
H112 C92 0.936 . S
H113 C93 0.930 . S
H114 C94 0.933 . S
H115 C96 0.931 . S
H116 C98 0.932 . S
H117 C99 0.929 . S
H118 C100 0.928 . S
H119 C102 0.932 . S
C120 C121 1.264 . S
C120 C125 1.479 . S
C120 C130 1.465 . S
C121 C120 1.264 . S
C121 C123 1.339 . S
C121 H148 0.931 . S
C122 C123 1.395 . S
C122 C124 1.320 . S
C123 C121 1.339 . S
C123 C122 1.395 . S
C123 H149 0.929 . S
C124 C122 1.320 . S
C124 C125 1.405 . S
C124 H150 0.930 . S
C125 C120 1.479 . S
C125 C124 1.405 . S
C125 H151 0.931 . S
U126 O127 2.454 . S
U126 O128 2.458 1_554 S
U126 C129 2.984 . S
U126 C130 2.847 . S
U126 C143 2.882 1_554 S
U126 O144 2.441 . S
U126 O145 2.420 . S
U126 O146 2.455 1_554 S
U126 O147 2.449 . S
O127 U126 2.454 . S
O127 C129 1.353 . S
O128 U126 2.458 1_556 S
O128 C129 1.286 1_556 S
C129 U126 2.984 . S
C129 O127 1.353 . S
C129 O128 1.286 1_554 S
C129 C131 1.363 . S
C130 C120 1.465 . S
C130 U126 2.847 . S
C130 O144 1.249 . S
C130 O145 1.202 . S
C131 C129 1.363 . S
C131 C133 1.408 . S
C131 C136 1.342 1_554 S
C132 C133 1.310 . S
C132 C135 1.461 1_554 S
C132 H152 0.932 . S
C133 C131 1.408 . S
C133 C132 1.310 . S
C133 H153 0.930 . S
C134 C135 1.474 . S
C134 C136 1.285 . S
C134 H154 0.929 . S
C135 C132 1.461 1_556 S
C135 C134 1.474 . S
C136 C131 1.342 1_556 S
C136 C134 1.285 . S
C136 H155 0.930 . S
C137 C140 1.424 . S
C137 C142 1.245 . S
C137 C143 1.428 . S
C138 C141 1.260 . S
C138 C142 1.477 . S
C138 H156 0.932 . S
C139 C140 1.384 . S
C139 C141 1.479 . S
C139 H157 0.929 . S
C140 C137 1.424 . S
C140 C139 1.384 . S
C140 H158 0.928 . S
C141 C138 1.260 . S
C141 C139 1.479 . S
C142 C137 1.245 . S
C142 C138 1.477 . S
C142 H159 0.932 . S
C143 U126 2.882 1_556 S
C143 C137 1.428 . S
C143 O146 1.301 . S
C143 O147 1.282 1_556 S
O144 U126 2.441 . S
O144 C130 1.249 . S
O145 U126 2.420 . S
O145 C130 1.202 . S
O146 U126 2.455 1_556 S
O146 C143 1.301 . S
O147 U126 2.449 . S
O147 C143 1.282 1_554 S
H148 C121 0.931 . S
H149 C123 0.929 . S
H150 C124 0.930 . S
H151 C125 0.931 . S
H152 C132 0.932 . S
H153 C133 0.930 . S
H154 C134 0.929 . S
H155 C136 0.930 . S
H156 C138 0.932 . S
H157 C139 0.929 . S
H158 C140 0.928 . S
H159 C142 0.932 . S
C160 C161 1.264 . S
C160 C165 1.479 . S
C160 C170 1.465 . S
C161 C160 1.264 . S
C161 C163 1.339 . S
C161 H188 0.931 . S
C162 C163 1.395 1_556 S
C162 C164 1.320 . S
C163 C161 1.339 . S
C163 C162 1.395 1_554 S
C163 H189 0.929 1_554 S
C164 C162 1.320 . S
C164 C165 1.405 1_556 S
C164 H190 0.930 . S
C165 C160 1.479 . S
C165 C164 1.405 1_554 S
C165 H191 0.931 . S
U166 O167 2.454 . S
U166 O168 2.458 . S
U166 C169 2.984 . S
U166 C170 2.847 . S
U166 C183 2.882 . S
U166 O184 2.441 . S
U166 O185 2.420 . S
U166 O186 2.455 . S
U166 O187 2.449 . S
O167 U166 2.454 . S
O167 C169 1.353 . S
O168 U166 2.458 . S
O168 C169 1.286 . S
C169 U166 2.984 . S
C169 O167 1.353 . S
C169 O168 1.286 . S
C169 C171 1.363 . S
C170 C160 1.465 . S
C170 U166 2.847 . S
C170 O184 1.249 . S
C170 O185 1.202 . S
C171 C169 1.363 . S
C171 C173 1.408 . S
C171 C176 1.342 . S
C172 C173 1.310 . S
C172 C175 1.461 . S
C172 H192 0.932 . S
C173 C171 1.408 . S
C173 C172 1.310 . S
C173 H193 0.930 . S
C174 C175 1.474 . S
C174 C176 1.285 . S
C174 H194 0.929 . S
C175 C172 1.461 . S
C175 C174 1.474 . S
C176 C171 1.342 . S
C176 C174 1.285 . S
C176 H195 0.930 . S
C177 C180 1.424 . S
C177 C182 1.245 . S
C177 C183 1.428 . S
C178 C181 1.260 . S
C178 C182 1.477 . S
C178 H196 0.932 . S
C179 C180 1.384 . S
C179 C181 1.479 . S
C179 H197 0.929 . S
C180 C177 1.424 . S
C180 C179 1.384 . S
C180 H198 0.928 . S
C181 C178 1.260 . S
C181 C179 1.479 . S
C182 C177 1.245 . S
C182 C178 1.477 . S
C182 H199 0.932 . S
C183 U166 2.882 . S
C183 C177 1.428 . S
C183 O186 1.301 . S
C183 O187 1.282 . S
O184 U166 2.441 . S
O184 C170 1.249 . S
O185 U166 2.420 . S
O185 C170 1.202 . S
O186 U166 2.455 . S
O186 C183 1.301 . S
O187 U166 2.449 . S
O187 C183 1.282 . S
H188 C161 0.931 . S
H189 C163 0.929 1_556 S
H190 C164 0.930 . S
H191 C165 0.931 . S
H192 C172 0.932 . S
H193 C173 0.930 . S
H194 C174 0.929 . S
H195 C176 0.930 . S
H196 C178 0.932 . S
H197 C179 0.929 . S
H198 C180 0.928 . S
H199 C182 0.932 . S
C200 C201 1.264 . S
C200 C205 1.479 . S
C200 C210 1.465 . S
C201 C200 1.264 . S
C201 C203 1.339 . S
C201 H228 0.931 . S
C202 C203 1.395 . S
C202 C204 1.320 . S
C203 C201 1.339 . S
C203 C202 1.395 . S
C203 H229 0.929 . S
C204 C202 1.320 . S
C204 C205 1.405 . S
C204 H230 0.930 . S
C205 C200 1.479 . S
C205 C204 1.405 . S
C205 H231 0.931 . S
U206 O207 2.454 . S
U206 O208 2.458 . S
U206 C209 2.984 . S
U206 C210 2.847 . S
U206 C223 2.882 . S
U206 O224 2.441 . S
U206 O225 2.420 . S
U206 O226 2.455 . S
U206 O227 2.449 . S
O207 U206 2.454 . S
O207 C209 1.353 . S
O208 U206 2.458 . S
O208 C209 1.286 . S
C209 U206 2.984 . S
C209 O207 1.353 . S
C209 O208 1.286 . S
C209 C211 1.363 . S
C210 C200 1.465 . S
C210 U206 2.847 . S
C210 O224 1.249 . S
C210 O225 1.202 . S
C211 C209 1.363 . S
C211 C213 1.408 . S
C211 C216 1.342 . S
C212 C213 1.310 . S
C212 C215 1.461 . S
C212 H232 0.932 . S
C213 C211 1.408 . S
C213 C212 1.310 . S
C213 H233 0.930 . S
C214 C215 1.474 . S
C214 C216 1.285 . S
C214 H234 0.929 . S
C215 C212 1.461 . S
C215 C214 1.474 . S
C216 C211 1.342 . S
C216 C214 1.285 . S
C216 H235 0.930 . S
C217 C220 1.424 . S
C217 C222 1.245 . S
C217 C223 1.428 . S
C218 C221 1.260 . S
C218 C222 1.477 . S
C218 H236 0.932 . S
C219 C220 1.384 . S
C219 C221 1.479 . S
C219 H237 0.929 . S
C220 C217 1.424 . S
C220 C219 1.384 . S
C220 H238 0.928 . S
C221 C218 1.260 . S
C221 C219 1.479 . S
C222 C217 1.245 . S
C222 C218 1.477 . S
C222 H239 0.932 . S
C223 U206 2.882 . S
C223 C217 1.428 . S
C223 O226 1.301 . S
C223 O227 1.282 . S
O224 U206 2.441 . S
O224 C210 1.249 . S
O225 U206 2.420 . S
O225 C210 1.202 . S
O226 U206 2.455 . S
O226 C223 1.301 . S
O227 U206 2.449 . S
O227 C223 1.282 . S
H228 C201 0.931 . S
H229 C203 0.929 . S
H230 C204 0.930 . S
H231 C205 0.931 . S
H232 C212 0.932 . S
H233 C213 0.930 . S
H234 C214 0.929 . S
H235 C216 0.930 . S
H236 C218 0.932 . S
H237 C219 0.929 . S
H238 C220 0.928 . S
H239 C222 0.932 . S
C240 C241 1.264 . S
C240 C245 1.479 . S
C240 C250 1.465 . S
C241 C240 1.264 . S
C241 C243 1.339 . S
C241 H268 0.931 . S
C242 C243 1.395 1_556 S
C242 C244 1.323 . S
C243 C241 1.339 . S
C243 C242 1.395 1_554 S
C243 H269 0.929 . S
C244 C242 1.323 . S
C244 C245 1.394 1_556 S
C244 H270 0.933 1_545 S
C245 C240 1.479 . S
C245 C244 1.394 1_554 S
C245 H271 0.931 . S
U246 O247 2.454 . S
U246 O248 2.458 . S
U246 C249 2.984 . S
U246 C250 2.847 . S
U246 C263 2.882 . S
U246 O264 2.441 . S
U246 O265 2.420 . S
U246 O266 2.455 . S
U246 O267 2.449 . S
O247 U246 2.454 . S
O247 C249 1.353 . S
O248 U246 2.458 . S
O248 C249 1.286 . S
C249 U246 2.984 . S
C249 O247 1.353 . S
C249 O248 1.286 . S
C249 C251 1.363 . S
C250 C240 1.465 . S
C250 U246 2.847 . S
C250 O264 1.249 . S
C250 O265 1.202 . S
C251 C249 1.363 . S
C251 C253 1.408 . S
C251 C256 1.342 . S
C252 C253 1.310 . S
C252 C255 1.461 1_545 S
C252 H272 0.932 . S
C253 C251 1.408 . S
C253 C252 1.310 . S
C253 H273 0.930 . S
C254 C255 1.473 . S
C254 C256 1.285 1_565 S
C254 H274 0.931 . S
C255 C252 1.461 1_565 S
C255 C254 1.473 . S
C256 C251 1.342 . S
C256 C254 1.285 1_545 S
C256 H275 0.933 . S
C257 C260 1.424 . S
C257 C262 1.245 . S
C257 C263 1.428 . S
C258 C261 1.260 . S
C258 C262 1.477 . S
C258 H276 0.932 . S
C259 C260 1.384 . S
C259 C261 1.479 . S
C259 H277 0.929 . S
C260 C257 1.424 . S
C260 C259 1.384 . S
C260 H278 0.928 . S
C261 C258 1.260 . S
C261 C259 1.479 . S
C262 C257 1.245 . S
C262 C258 1.477 . S
C262 H279 0.932 . S
C263 U246 2.882 . S
C263 C257 1.428 . S
C263 O266 1.301 . S
C263 O267 1.282 . S
O264 U246 2.441 . S
O264 C250 1.249 . S
O265 U246 2.420 . S
O265 C250 1.202 . S
O266 U246 2.455 . S
O266 C263 1.301 . S
O267 U246 2.449 . S
O267 C263 1.282 . S
H268 C241 0.931 . S
H269 C243 0.929 . S
H270 C244 0.933 1_565 S
H271 C245 0.931 . S
H272 C252 0.932 . S
H273 C253 0.930 . S
H274 C254 0.931 . S
H275 C256 0.933 . S
H276 C258 0.932 . S
H277 C259 0.929 . S
H278 C260 0.928 . S
H279 C262 0.932 . S
C280 C281 1.264 . S
C280 C285 1.479 . S
C280 C290 1.465 . S
C281 C280 1.264 . S
C281 C283 1.339 . S
C281 H308 0.931 . S
C282 C283 1.395 1_556 S
C282 C284 1.320 . S
C283 C281 1.339 . S
C283 C282 1.395 1_554 S
C283 H309 0.926 1_554 S
C284 C282 1.320 . S
C284 C285 1.405 1_556 S
C284 H310 0.930 . S
C285 C280 1.479 . S
C285 C284 1.405 1_554 S
C285 H311 0.931 . S
U286 O287 2.454 . S
U286 O288 2.458 . S
U286 C289 2.984 . S
U286 C290 2.847 . S
U286 C303 2.882 . S
U286 O304 2.441 . S
U286 O305 2.420 . S
U286 O306 2.455 . S
U286 O307 2.449 . S
O287 U286 2.454 . S
O287 C289 1.353 . S
O288 U286 2.458 . S
O288 C289 1.286 . S
C289 U286 2.984 . S
C289 O287 1.353 . S
C289 O288 1.286 . S
C289 C291 1.363 . S
C290 C280 1.465 . S
C290 U286 2.847 . S
C290 O304 1.249 . S
C290 O305 1.202 . S
C291 C289 1.363 . S
C291 C293 1.408 . S
C291 C296 1.342 . S
C292 C293 1.310 . S
C292 C295 1.461 . S
C292 H312 0.932 . S
C293 C291 1.408 . S
C293 C292 1.310 . S
C293 H313 0.930 . S
C294 C295 1.474 . S
C294 C296 1.285 . S
C294 H314 0.929 . S
C295 C292 1.461 . S
C295 C294 1.474 . S
C296 C291 1.342 . S
C296 C294 1.285 . S
C296 H315 0.930 . S
C297 C300 1.424 . S
C297 C302 1.245 . S
C297 C303 1.428 . S
C298 C301 1.260 . S
C298 C302 1.477 . S
C298 H316 0.932 . S
C299 C300 1.384 . S
C299 C301 1.479 . S
C299 H317 0.929 . S
C300 C297 1.424 . S
C300 C299 1.384 . S
C300 H318 0.928 . S
C301 C298 1.260 . S
C301 C299 1.479 . S
C302 C297 1.245 . S
C302 C298 1.477 . S
C302 H319 0.932 . S
C303 U286 2.882 . S
C303 C297 1.428 . S
C303 O306 1.301 . S
C303 O307 1.282 . S
O304 U286 2.441 . S
O304 C290 1.249 . S
O305 U286 2.420 . S
O305 C290 1.202 . S
O306 U286 2.455 . S
O306 C303 1.301 . S
O307 U286 2.449 . S
O307 C303 1.282 . S
H308 C281 0.931 . S
H309 C283 0.926 1_556 S
H310 C284 0.930 . S
H311 C285 0.931 . S
H312 C292 0.932 . S
H313 C293 0.930 . S
H314 C294 0.929 . S
H315 C296 0.930 . S
H316 C298 0.932 . S
H317 C299 0.929 . S
H318 C300 0.928 . S
H319 C302 0.932 . S
O320 Zn321 1.954 . S
O320 C336 1.232 . S
Zn321 O320 1.954 . S
Zn321 O322 1.948 . S
Zn321 O328 1.884 1_565 S
Zn321 O333 1.967 . S
O322 Zn321 1.948 . S
O322 Zn323 1.902 1_565 S
O322 Zn324 1.953 . S
O322 Zn325 1.962 . S
Zn323 O322 1.902 1_545 S
Zn323 O326 1.933 1_455 S
Zn323 O329 1.941 . S
Zn323 O330 1.965 . S
Zn324 O322 1.953 . S
Zn324 O331 1.938 1_565 S
Zn324 O332 1.906 . S
Zn324 O342 1.953 . S
Zn325 O322 1.962 . S
Zn325 O327 1.932 1_455 S
Zn325 O334 1.977 . S
Zn325 O335 1.910 . S
O326 Zn323 1.933 1_655 S
O326 C337 1.226 . S
O327 Zn325 1.932 1_655 S
O327 C337 1.307 1_565 S
O328 Zn321 1.884 1_545 S
O328 C339 1.253 . S
O329 Zn323 1.941 . S
O329 C339 1.283 . S
O330 Zn323 1.965 . S
O330 C338 1.303 . S
O331 Zn324 1.938 1_545 S
O331 C338 1.247 . S
O332 Zn324 1.906 . S
O332 C340 1.304 . S
O333 Zn321 1.967 . S
O333 C341 1.311 . S
O334 Zn325 1.977 . S
O334 C340 1.272 . S
O335 Zn325 1.910 . S
O335 C341 1.231 . S
C336 O320 1.232 . S
C336 O342 1.298 . S
C337 O326 1.226 . S
C337 O327 1.307 1_545 S
C338 O330 1.303 . S
C338 O331 1.247 . S
C339 O328 1.253 . S
C339 O329 1.283 . S
C340 O332 1.304 . S
C340 O334 1.272 . S
C341 O333 1.311 . S
C341 O335 1.231 . S
O342 Zn324 1.953 . S
O342 C336 1.298 . S
O343 Zn344 1.953 . S
O343 C359 1.225 . S
Zn344 O343 1.953 . S
Zn344 O345 1.949 . S
Zn344 O351 1.919 . S
Zn344 O356 1.924 . S
O345 Zn344 1.949 . S
O345 Zn346 1.923 1_545 S
O345 Zn347 1.950 . S
O345 Zn348 1.945 1_545 S
Zn346 O345 1.923 1_565 S
Zn346 O349 1.933 . S
Zn346 O352 1.941 . S
Zn346 O353 1.965 . S
Zn347 O345 1.950 . S
Zn347 O354 1.938 . S
Zn347 O355 1.895 1_545 S
Zn347 O365 1.953 . S
Zn348 O345 1.945 1_565 S
Zn348 O350 1.932 . S
Zn348 O357 1.977 . S
Zn348 O358 1.910 1_565 S
O349 Zn346 1.933 . S
O349 C360 1.226 . S
O350 Zn348 1.932 . S
O350 C360 1.307 . S
O351 Zn344 1.919 . S
O351 C362 1.253 . S
O352 Zn346 1.941 . S
O352 C362 1.283 1_565 S
O353 Zn346 1.965 . S
O353 C361 1.303 . S
O354 Zn347 1.938 . S
O354 C361 1.247 1_545 S
O355 Zn347 1.895 1_565 S
O355 C363 1.319 . S
O356 Zn344 1.924 . S
O356 C364 1.311 . S
O357 Zn348 1.977 . S
O357 C363 1.272 . S
O358 Zn348 1.910 1_545 S
O358 C364 1.231 . S
C359 O343 1.225 . S
C359 O365 1.298 . S
C360 O349 1.226 . S
C360 O350 1.307 . S
C361 O353 1.303 . S
C361 O354 1.247 1_565 S
C362 O351 1.253 . S
C362 O352 1.283 1_545 S
C363 O355 1.319 . S
C363 O357 1.272 . S
C364 O356 1.311 . S
C364 O358 1.231 . S
O365 Zn347 1.953 . S
O365 C359 1.298 . S
O366 Zn367 1.953 . S
O366 C382 1.225 . S
Zn367 O366 1.953 . S
Zn367 O368 1.949 . S
Zn367 O374 1.919 . S
Zn367 O379 1.924 . S
O368 Zn367 1.949 . S
O368 Zn369 1.923 . S
O368 Zn370 1.950 . S
O368 Zn371 1.945 . S
Zn369 O368 1.923 . S
Zn369 O372 1.933 . S
Zn369 O375 1.941 . S
Zn369 O376 1.965 . S
Zn370 O368 1.950 . S
Zn370 O377 1.938 . S
Zn370 O378 1.906 . S
Zn370 O388 1.953 . S
Zn371 O368 1.945 . S
Zn371 O373 1.932 . S
Zn371 O380 1.977 . S
Zn371 O381 1.910 . S
O372 Zn369 1.933 . S
O372 C383 1.226 . S
O373 Zn371 1.932 . S
O373 C383 1.307 . S
O374 Zn367 1.919 . S
O374 C385 1.253 . S
O375 Zn369 1.941 . S
O375 C385 1.283 . S
O376 Zn369 1.965 . S
O376 C384 1.303 . S
O377 Zn370 1.938 . S
O377 C384 1.247 . S
O378 Zn370 1.906 . S
O378 C386 1.304 . S
O379 Zn367 1.924 . S
O379 C387 1.311 . S
O380 Zn371 1.977 . S
O380 C386 1.272 . S
O381 Zn371 1.910 . S
O381 C387 1.231 . S
C382 O366 1.225 . S
C382 O388 1.298 . S
C383 O372 1.226 . S
C383 O373 1.307 . S
C384 O376 1.303 . S
C384 O377 1.247 . S
C385 O374 1.253 . S
C385 O375 1.283 . S
C386 O378 1.304 . S
C386 O380 1.272 . S
C387 O379 1.311 . S
C387 O381 1.231 . S
O388 Zn370 1.953 . S
O388 C382 1.298 . S
O389 Zn390 1.953 1_655 S
O389 C405 1.225 . S
Zn390 O389 1.953 1_455 S
Zn390 O391 1.949 . S
Zn390 O397 1.919 . S
Zn390 O402 1.924 . S
O391 Zn390 1.949 . S
O391 Zn392 1.923 . S
O391 Zn393 1.950 1_455 S
O391 Zn394 1.945 . S
Zn392 O391 1.923 . S
Zn392 O395 1.933 . S
Zn392 O398 1.941 1_455 S
Zn392 O399 1.965 1_455 S
Zn393 O391 1.950 1_655 S
Zn393 O400 1.938 . S
Zn393 O401 1.906 1_655 S
Zn393 O411 1.953 . S
Zn394 O391 1.945 . S
Zn394 O396 1.932 . S
Zn394 O403 1.977 . S
Zn394 O404 1.910 . S
O395 Zn392 1.933 . S
O395 C406 1.226 . S
O396 Zn394 1.932 . S
O396 C406 1.307 . S
O397 Zn390 1.919 . S
O397 C408 1.253 . S
O398 Zn392 1.941 1_655 S
O398 C408 1.283 1_655 S
O399 Zn392 1.965 1_655 S
O399 C407 1.303 . S
O400 Zn393 1.938 . S
O400 C407 1.247 . S
O401 Zn393 1.906 1_455 S
O401 C409 1.304 . S
O402 Zn390 1.924 . S
O402 C410 1.311 . S
O403 Zn394 1.977 . S
O403 C409 1.272 . S
O404 Zn394 1.910 . S
O404 C410 1.231 . S
C405 O389 1.225 . S
C405 O411 1.298 . S
C406 O395 1.226 . S
C406 O396 1.307 . S
C407 O399 1.303 . S
C407 O400 1.247 . S
C408 O397 1.253 . S
C408 O398 1.283 1_455 S
C409 O401 1.304 . S
C409 O403 1.272 . S
C410 O402 1.311 . S
C410 O404 1.231 . S
O411 Zn393 1.953 . S
O411 C405 1.298 . S
H412 C418 0.930 . S
H413 C421 0.930 . S
H414 C422 0.930 . S
H415 C423 0.930 . S
H416 C426 0.930 . S
H417 C427 0.930 . S
C418 H412 0.930 . S
C418 C419 1.355 1_545 S
C418 C420 1.418 . S
C419 C418 1.355 1_565 S
C419 C421 1.419 . S
C420 C418 1.418 . S
C420 C425 1.411 1_545 S
C420 C427 1.421 . S
C421 H413 0.930 . S
C421 C419 1.419 . S
C421 C422 1.362 . S
C422 H414 0.930 . S
C422 C421 1.362 . S
C422 C425 1.409 . S
C423 H415 0.930 . S
C423 C424 1.355 . S
C423 C425 1.415 . S
C424 C423 1.355 . S
C424 C426 1.419 1_565 S
C425 C420 1.411 1_565 S
C425 C422 1.409 . S
C425 C423 1.415 . S
C426 H416 0.930 . S
C426 C424 1.419 1_545 S
C426 C427 1.362 . S
C427 H417 0.930 . S
C427 C420 1.421 . S
C427 C426 1.362 . S
H428 C434 0.930 . S
H429 C437 0.930 . S
H430 C438 0.930 . S
H431 C439 0.930 . S
H432 C442 0.930 . S
H433 C443 0.930 . S
C434 H428 0.930 . S
C434 C435 1.355 . S
C434 C436 1.415 . S
C435 C434 1.355 . S
C435 C437 1.419 . S
C436 C434 1.415 . S
C436 C441 1.425 . S
C436 C443 1.409 . S
C437 H429 0.930 . S
C437 C435 1.419 . S
C437 C438 1.362 . S
C438 H430 0.930 . S
C438 C437 1.362 . S
C438 C441 1.409 . S
C439 H431 0.930 . S
C439 C440 1.355 . S
C439 C441 1.415 . S
C440 C439 1.355 . S
C440 C442 1.419 . S
C441 C436 1.425 . S
C441 C438 1.409 . S
C441 C439 1.415 . S
C442 H432 0.930 . S
C442 C440 1.419 . S
C442 C443 1.362 . S
C443 H433 0.930 . S
C443 C436 1.409 . S
C443 C442 1.362 . S
H444 C450 0.930 . S
H445 C453 0.930 . S
H446 C454 0.930 . S
H447 C455 0.930 . S
H448 C458 0.930 . S
H449 C459 0.930 . S
C450 H444 0.930 . S
C450 C451 1.355 . S
C450 C452 1.415 . S
C451 C450 1.355 . S
C451 C453 1.419 . S
C452 C450 1.415 . S
C452 C457 1.425 . S
C452 C459 1.409 . S
C453 H445 0.930 . S
C453 C451 1.419 . S
C453 C454 1.362 . S
C454 H446 0.930 . S
C454 C453 1.362 . S
C454 C457 1.409 . S
C455 H447 0.930 . S
C455 C456 1.355 . S
C455 C457 1.415 . S
C456 C455 1.355 . S
C456 C458 1.419 . S
C457 C452 1.425 . S
C457 C454 1.409 . S
C457 C455 1.415 . S
C458 H448 0.930 . S
C458 C456 1.419 . S
C458 C459 1.362 . S
C459 H449 0.930 . S
C459 C452 1.409 . S
C459 C458 1.362 . S
H460 C466 0.930 . S
H461 C469 0.930 . S
H462 C470 0.930 . S
H463 C471 0.930 . S
H464 C474 0.930 . S
H465 C475 0.930 . S
C466 H460 0.930 . S
C466 C467 1.355 . S
C466 C468 1.415 . S
C467 C466 1.355 . S
C467 C469 1.419 . S
C468 C466 1.415 . S
C468 C473 1.425 . S
C468 C475 1.409 . S
C469 H461 0.930 . S
C469 C467 1.419 . S
C469 C470 1.362 . S
C470 H462 0.930 . S
C470 C469 1.362 . S
C470 C473 1.409 . S
C471 H463 0.930 . S
C471 C472 1.355 . S
C471 C473 1.415 . S
C472 C471 1.355 . S
C472 C474 1.419 . S
C473 C468 1.425 . S
C473 C470 1.409 . S
C473 C471 1.415 . S
C474 H464 0.930 . S
C474 C472 1.419 . S
C474 C475 1.362 . S
C475 H465 0.930 . S
C475 C468 1.409 . S
C475 C474 1.362 . S
H476 C482 0.930 . S
H477 C485 0.930 . S
H478 C486 0.930 . S
H479 C487 0.930 . S
H480 C490 0.930 . S
H481 C491 0.930 . S
C482 H476 0.930 . S
C482 C483 1.355 1_565 S
C482 C484 1.415 . S
C483 C482 1.355 1_545 S
C483 C485 1.419 . S
C484 C482 1.415 . S
C484 C489 1.425 1_565 S
C484 C491 1.409 . S
C485 H477 0.930 . S
C485 C483 1.419 . S
C485 C486 1.362 . S
C486 H478 0.930 . S
C486 C485 1.362 . S
C486 C489 1.409 . S
C487 H479 0.930 . S
C487 C488 1.355 . S
C487 C489 1.415 . S
C488 C487 1.355 . S
C488 C490 1.419 1_545 S
C489 C484 1.425 1_545 S
C489 C486 1.409 . S
C489 C487 1.415 . S
C490 H480 0.930 . S
C490 C488 1.419 1_565 S
C490 C491 1.362 . S
C491 H481 0.930 . S
C491 C484 1.409 . S
C491 C490 1.362 . S
H492 C498 0.930 . S
H493 C501 0.930 . S
H494 C502 0.930 . S
H495 C503 0.930 . S
H496 C506 0.930 . S
H497 C507 0.930 . S
C498 H492 0.930 . S
C498 C499 1.355 . S
C498 C500 1.415 . S
C499 C498 1.355 . S
C499 C501 1.419 . S
C500 C498 1.415 . S
C500 C505 1.425 . S
C500 C507 1.409 . S
C501 H493 0.930 . S
C501 C499 1.419 . S
C501 C502 1.362 . S
C502 H494 0.930 . S
C502 C501 1.362 . S
C502 C505 1.409 . S
C503 H495 0.930 . S
C503 C504 1.355 . S
C503 C505 1.415 . S
C504 C503 1.355 . S
C504 C506 1.419 . S
C505 C500 1.425 . S
C505 C502 1.409 . S
C505 C503 1.415 . S
C506 H496 0.930 . S
C506 C504 1.419 . S
C506 C507 1.362 . S
C507 H497 0.930 . S
C507 C500 1.409 . S
C507 C506 1.362 . S
H508 C514 0.930 . S
H509 C517 0.930 . S
H510 C518 0.930 . S
H511 C519 0.930 . S
H512 C522 0.930 . S
H513 C523 0.930 . S
C514 H508 0.930 . S
C514 C515 1.355 . S
C514 C516 1.415 . S
C515 C514 1.355 . S
C515 C517 1.419 . S
C516 C514 1.415 . S
C516 C521 1.425 . S
C516 C523 1.409 . S
C517 H509 0.930 . S
C517 C515 1.419 . S
C517 C518 1.362 . S
C518 H510 0.930 . S
C518 C517 1.362 . S
C518 C521 1.409 . S
C519 H511 0.930 . S
C519 C520 1.355 . S
C519 C521 1.415 . S
C520 C519 1.355 . S
C520 C522 1.419 . S
C521 C516 1.425 . S
C521 C518 1.409 . S
C521 C519 1.415 . S
C522 H512 0.930 . S
C522 C520 1.419 . S
C522 C523 1.362 . S
C523 H513 0.930 . S
C523 C516 1.409 . S
C523 C522 1.362 . S
H524 C530 0.930 . S
H525 C533 0.930 1_554 S
H526 C534 0.930 . S
H527 C535 0.930 . S
H528 C538 0.930 . S
H529 C539 0.930 . S
C530 H524 0.930 . S
C530 C531 1.355 . S
C530 C532 1.415 . S
C531 C530 1.355 . S
C531 C533 1.419 . S
C532 C530 1.415 . S
C532 C537 1.425 . S
C532 C539 1.409 1_655 S
C533 H525 0.930 1_556 S
C533 C531 1.419 . S
C533 C534 1.362 . S
C534 H526 0.930 . S
C534 C533 1.362 . S
C534 C537 1.409 . S
C535 H527 0.930 . S
C535 C536 1.355 . S
C535 C537 1.415 1_455 S
C536 C535 1.355 . S
C536 C538 1.419 . S
C537 C532 1.425 . S
C537 C534 1.409 . S
C537 C535 1.415 1_655 S
C538 H528 0.930 . S
C538 C536 1.419 . S
C538 C539 1.362 . S
C539 H529 0.930 . S
C539 C532 1.409 1_455 S
C539 C538 1.362 . S
H540 C546 0.930 . S
H541 C549 0.930 . S
H542 C550 0.930 . S
H543 C551 0.930 . S
H544 C554 0.930 . S
H545 C555 0.930 . S
C546 H540 0.930 . S
C546 C547 1.355 . S
C546 C548 1.415 . S
C547 C546 1.355 . S
C547 C549 1.419 . S
C548 C546 1.415 . S
C548 C553 1.425 . S
C548 C555 1.409 . S
C549 H541 0.930 . S
C549 C547 1.419 . S
C549 C550 1.362 . S
C550 H542 0.930 . S
C550 C549 1.362 . S
C550 C553 1.409 . S
C551 H543 0.930 . S
C551 C552 1.355 . S
C551 C553 1.415 . S
C552 C551 1.355 . S
C552 C554 1.419 . S
C553 C548 1.425 . S
C553 C550 1.409 . S
C553 C551 1.415 . S
C554 H544 0.930 . S
C554 C552 1.419 . S
C554 C555 1.362 . S
C555 H545 0.930 . S
C555 C548 1.409 . S
C555 C554 1.362 . S
H556 C562 0.930 . S
H557 C565 0.930 . S
H558 C566 0.930 . S
H559 C567 0.930 . S
H560 C570 0.930 . S
H561 C571 0.930 . S
C562 H556 0.930 . S
C562 C563 1.340 1_545 S
C562 C564 1.415 . S
C563 C562 1.340 1_565 S
C563 C565 1.443 . S
C564 C562 1.415 . S
C564 C569 1.425 1_545 S
C564 C571 1.409 . S
C565 H557 0.930 . S
C565 C563 1.443 . S
C565 C566 1.362 . S
C566 H558 0.930 . S
C566 C565 1.362 . S
C566 C569 1.409 . S
C567 H559 0.930 . S
C567 C568 1.368 . S
C567 C569 1.415 . S
C568 C567 1.368 . S
C568 C570 1.401 1_565 S
C569 C564 1.425 1_565 S
C569 C566 1.409 . S
C569 C567 1.415 . S
C570 H560 0.930 . S
C570 C568 1.401 1_545 S
C570 C571 1.362 . S
C571 H561 0.930 . S
C571 C564 1.409 . S
C571 C570 1.362 . S
H572 C578 0.930 . S
H573 C581 0.930 . S
H574 C582 0.930 . S
H575 C583 0.930 . S
H576 C586 0.930 . S
H577 C587 0.930 . S
C578 H572 0.930 . S
C578 C579 1.355 . S
C578 C580 1.415 . S
C579 C578 1.355 . S
C579 C581 1.419 . S
C580 C578 1.415 . S
C580 C585 1.425 . S
C580 C587 1.409 . S
C581 H573 0.930 . S
C581 C579 1.419 . S
C581 C582 1.362 . S
C582 H574 0.930 . S
C582 C581 1.362 . S
C582 C585 1.409 . S
C583 H575 0.930 . S
C583 C584 1.355 . S
C583 C585 1.415 . S
C584 C583 1.355 . S
C584 C586 1.419 . S
C585 C580 1.425 . S
C585 C582 1.409 . S
C585 C583 1.415 . S
C586 H576 0.930 . S
C586 C584 1.419 . S
C586 C587 1.362 . S
C587 H577 0.930 . S
C587 C580 1.409 . S
C587 C586 1.362 . S
H588 C594 0.930 . S
H589 C597 0.930 . S
H590 C598 0.930 . S
H591 C599 0.930 . S
H592 C602 0.930 . S
H593 C603 0.930 . S
C594 H588 0.930 . S
C594 C595 1.355 . S
C594 C596 1.415 . S
C595 C594 1.355 . S
C595 C597 1.419 . S
C596 C594 1.415 . S
C596 C601 1.425 . S
C596 C603 1.409 . S
C597 H589 0.930 . S
C597 C595 1.419 . S
C597 C598 1.362 . S
C598 H590 0.930 . S
C598 C597 1.362 . S
C598 C601 1.409 . S
C599 H591 0.930 . S
C599 C600 1.355 . S
C599 C601 1.415 . S
C600 C599 1.355 . S
C600 C602 1.419 . S
C601 C596 1.425 . S
C601 C598 1.409 . S
C601 C599 1.415 . S
C602 H592 0.930 . S
C602 C600 1.419 . S
C602 C603 1.362 . S
C603 H593 0.930 . S
C603 C596 1.409 . S
C603 C602 1.362 . S
H604 C610 0.930 . S
H605 C613 0.930 . S
H606 C614 0.930 . S
H607 C615 0.930 . S
H608 C618 0.930 . S
H609 C619 0.930 . S
C610 H604 0.930 . S
C610 C611 1.355 1_455 S
C610 C612 1.415 . S
C611 C610 1.355 1_655 S
C611 C613 1.419 . S
C612 C610 1.415 . S
C612 C617 1.425 . S
C612 C619 1.409 . S
C613 H605 0.930 . S
C613 C611 1.419 . S
C613 C614 1.362 . S
C614 H606 0.930 . S
C614 C613 1.362 . S
C614 C617 1.409 1_655 S
C615 H607 0.930 . S
C615 C616 1.355 . S
C615 C617 1.415 . S
C616 C615 1.355 . S
C616 C618 1.419 . S
C617 C612 1.425 . S
C617 C614 1.409 1_455 S
C617 C615 1.415 . S
C618 H608 0.930 . S
C618 C616 1.419 . S
C618 C619 1.362 . S
C619 H609 0.930 . S
C619 C612 1.409 . S
C619 C618 1.362 . S
H620 C626 0.930 . S
H621 C629 0.930 . S
H622 C630 0.930 . S
H623 C631 0.930 . S
H624 C634 0.930 . S
H625 C635 0.930 1_565 S
C626 H620 0.930 . S
C626 C627 1.355 . S
C626 C628 1.415 1_565 S
C627 C626 1.355 . S
C627 C629 1.419 1_565 S
C628 C626 1.415 1_545 S
C628 C633 1.425 . S
C628 C635 1.409 . S
C629 H621 0.930 . S
C629 C627 1.419 1_545 S
C629 C630 1.362 . S
C630 H622 0.930 . S
C630 C629 1.362 . S
C630 C633 1.409 . S
C631 H623 0.930 . S
C631 C632 1.355 . S
C631 C633 1.415 . S
C632 C631 1.355 . S
C632 C634 1.419 . S
C633 C628 1.425 . S
C633 C630 1.409 . S
C633 C631 1.415 . S
C634 H624 0.930 . S
C634 C632 1.419 . S
C634 C635 1.362 . S
C635 H625 0.930 1_545 S
C635 C628 1.409 . S
C635 C634 1.362 . S
H636 C642 0.930 . S
H637 C645 0.930 . S
H638 C646 0.930 . S
H639 C647 0.930 . S
H640 C650 0.930 . S
H641 C651 0.930 . S
C642 H636 0.930 . S
C642 C643 1.355 . S
C642 C644 1.415 . S
C643 C642 1.355 . S
C643 C645 1.419 . S
C644 C642 1.415 . S
C644 C649 1.425 . S
C644 C651 1.409 . S
C645 H637 0.930 . S
C645 C643 1.419 . S
C645 C646 1.362 . S
C646 H638 0.930 . S
C646 C645 1.362 . S
C646 C649 1.409 . S
C647 H639 0.930 . S
C647 C648 1.355 . S
C647 C649 1.415 . S
C648 C647 1.355 . S
C648 C650 1.419 . S
C649 C644 1.425 . S
C649 C646 1.409 . S
C649 C647 1.415 . S
C650 H640 0.930 . S
C650 C648 1.419 . S
C650 C651 1.362 . S
C651 H641 0.930 . S
C651 C644 1.409 . S
C651 C650 1.362 . S
H652 C658 0.930 . S
H653 C661 0.930 . S
H654 C662 0.930 . S
H655 C663 0.930 . S
H656 C666 0.930 . S
H657 C667 0.930 . S
C658 H652 0.930 . S
C658 C659 1.355 . S
C658 C660 1.415 . S
C659 C658 1.355 . S
C659 C661 1.419 . S
C660 C658 1.415 . S
C660 C665 1.425 . S
C660 C667 1.409 . S
C661 H653 0.930 . S
C661 C659 1.419 . S
C661 C662 1.362 . S
C662 H654 0.930 . S
C662 C661 1.362 . S
C662 C665 1.409 . S
C663 H655 0.930 . S
C663 C664 1.355 . S
C663 C665 1.415 . S
C664 C663 1.355 . S
C664 C666 1.419 . S
C665 C660 1.425 . S
C665 C662 1.409 . S
C665 C663 1.415 . S
C666 H656 0.930 . S
C666 C664 1.419 . S
C666 C667 1.362 . S
C667 H657 0.930 . S
C667 C660 1.409 . S
C667 C666 1.362 . S
H668 C674 0.930 . S
H669 C677 0.930 . S
H670 C678 0.930 . S
H671 C679 0.930 . S
H672 C682 0.930 . S
H673 C683 0.930 . S
C674 H668 0.930 . S
C674 C675 1.355 . S
C674 C676 1.415 . S
C675 C674 1.355 . S
C675 C677 1.419 . S
C676 C674 1.415 . S
C676 C681 1.425 . S
C676 C683 1.409 . S
C677 H669 0.930 . S
C677 C675 1.419 . S
C677 C678 1.362 . S
C678 H670 0.930 . S
C678 C677 1.362 . S
C678 C681 1.409 . S
C679 H671 0.930 . S
C679 C680 1.355 . S
C679 C681 1.415 . S
C680 C679 1.355 . S
C680 C682 1.419 . S
C681 C676 1.425 . S
C681 C678 1.409 . S
C681 C679 1.415 . S
C682 H672 0.930 . S
C682 C680 1.419 . S
C682 C683 1.362 . S
C683 H673 0.930 . S
C683 C676 1.409 . S
C683 C682 1.362 . S
H684 C690 0.930 . S
H685 C693 0.930 . S
H686 C694 0.930 . S
H687 C695 0.930 . S
H688 C698 0.930 . S
H689 C699 0.930 . S
C690 H684 0.930 . S
C690 C691 1.355 1_565 S
C690 C692 1.415 . S
C691 C690 1.355 1_545 S
C691 C693 1.419 . S
C692 C690 1.415 . S
C692 C697 1.425 1_565 S
C692 C699 1.409 . S
C693 H685 0.930 . S
C693 C691 1.419 . S
C693 C694 1.362 . S
C694 H686 0.930 . S
C694 C693 1.362 . S
C694 C697 1.409 . S
C695 H687 0.930 . S
C695 C696 1.355 1_545 S
C695 C697 1.415 . S
C696 C695 1.355 1_565 S
C696 C698 1.419 . S
C697 C692 1.425 1_545 S
C697 C694 1.409 . S
C697 C695 1.415 . S
C698 H688 0.930 . S
C698 C696 1.419 . S
C698 C699 1.362 . S
C699 H689 0.930 . S
C699 C692 1.409 . S
C699 C698 1.362 . S
H700 C706 0.930 . S
H701 C709 0.930 . S
H702 C710 0.930 . S
H703 C711 0.930 . S
H704 C714 0.930 . S
H705 C715 0.930 . S
C706 H700 0.930 . S
C706 C707 1.355 . S
C706 C708 1.415 . S
C707 C706 1.355 . S
C707 C709 1.419 . S
C708 C706 1.415 . S
C708 C713 1.425 . S
C708 C715 1.409 . S
C709 H701 0.930 . S
C709 C707 1.419 . S
C709 C710 1.362 . S
C710 H702 0.930 . S
C710 C709 1.362 . S
C710 C713 1.409 . S
C711 H703 0.930 . S
C711 C712 1.355 . S
C711 C713 1.415 . S
C712 C711 1.355 . S
C712 C714 1.419 . S
C713 C708 1.425 . S
C713 C710 1.409 . S
C713 C711 1.415 . S
C714 H704 0.930 . S
C714 C712 1.419 . S
C714 C715 1.362 . S
C715 H705 0.930 . S
C715 C708 1.409 . S
C715 C714 1.362 . S
H716 C722 0.930 . S
H717 C725 0.930 . S
H718 C726 0.930 . S
H719 C727 0.930 . S
H720 C730 0.930 . S
H721 C731 0.930 . S
C722 H716 0.930 . S
C722 C723 1.355 . S
C722 C724 1.415 . S
C723 C722 1.355 . S
C723 C725 1.419 . S
C724 C722 1.415 . S
C724 C729 1.425 . S
C724 C731 1.409 . S
C725 H717 0.930 . S
C725 C723 1.419 . S
C725 C726 1.362 . S
C726 H718 0.930 . S
C726 C725 1.362 . S
C726 C729 1.409 . S
C727 H719 0.930 . S
C727 C728 1.355 . S
C727 C729 1.415 . S
C728 C727 1.355 . S
C728 C730 1.419 . S
C729 C724 1.425 . S
C729 C726 1.409 . S
C729 C727 1.415 . S
C730 H720 0.930 . S
C730 C728 1.419 . S
C730 C731 1.362 . S
C731 H721 0.930 . S
C731 C724 1.409 . S
C731 C730 1.362 . S
H732 C738 0.930 . S
H733 C741 0.930 . S
H734 C742 0.930 . S
H735 C743 0.930 . S
H736 C746 0.930 . S
H737 C747 0.930 . S
C738 H732 0.930 . S
C738 C739 1.355 . S
C738 C740 1.415 . S
C739 C738 1.355 . S
C739 C741 1.419 1_655 S
C740 C738 1.415 . S
C740 C745 1.425 . S
C740 C747 1.409 . S
C741 H733 0.930 . S
C741 C739 1.419 1_455 S
C741 C742 1.362 . S
C742 H734 0.930 . S
C742 C741 1.362 . S
C742 C745 1.409 1_455 S
C743 H735 0.930 . S
C743 C744 1.355 1_455 S
C743 C745 1.415 1_455 S
C744 C743 1.355 1_655 S
C744 C746 1.419 . S
C745 C740 1.425 . S
C745 C742 1.409 1_655 S
C745 C743 1.415 1_655 S
C746 H736 0.930 . S
C746 C744 1.419 . S
C746 C747 1.362 . S
C747 H737 0.930 . S
C747 C740 1.409 . S
C747 C746 1.362 . S
H748 C754 0.930 . S
H749 C757 0.930 . S
H750 C758 0.930 . S
H751 C759 0.939 . S
H752 C762 0.930 . S
H753 C763 0.930 . S
C754 H748 0.930 . S
C754 C755 1.355 . S
C754 C756 1.415 . S
C755 C754 1.355 . S
C755 C757 1.419 1_565 S
C756 C754 1.415 . S
C756 C761 1.424 1_565 S
C756 C763 1.409 . S
C757 H749 0.930 . S
C757 C755 1.419 1_545 S
C757 C758 1.362 . S
C758 H750 0.930 . S
C758 C757 1.362 . S
C758 C761 1.410 . S
C759 H751 0.939 . S
C759 C760 1.346 1_545 S
C759 C761 1.414 . S
C760 C759 1.346 1_565 S
C760 C762 1.419 . S
C761 C756 1.424 1_545 S
C761 C758 1.410 . S
C761 C759 1.414 . S
C762 H752 0.930 . S
C762 C760 1.419 . S
C762 C763 1.362 . S
C763 H753 0.930 . S
C763 C756 1.409 . S
C763 C762 1.362 . S
H764 C770 0.930 . S
H765 C773 0.930 . S
H766 C774 0.930 . S
H767 C775 0.930 . S
H768 C778 0.930 . S
H769 C779 0.930 . S
C770 H764 0.930 . S
C770 C771 1.355 . S
C770 C772 1.415 . S
C771 C770 1.355 . S
C771 C773 1.419 . S
C772 C770 1.415 . S
C772 C777 1.425 . S
C772 C779 1.409 . S
C773 H765 0.930 . S
C773 C771 1.419 . S
C773 C774 1.362 . S
C774 H766 0.930 . S
C774 C773 1.362 . S
C774 C777 1.409 . S
C775 H767 0.930 . S
C775 C776 1.355 . S
C775 C777 1.415 . S
C776 C775 1.355 . S
C776 C778 1.419 . S
C777 C772 1.425 . S
C777 C774 1.409 . S
C777 C775 1.415 . S
C778 H768 0.930 . S
C778 C776 1.419 . S
C778 C779 1.362 . S
C779 H769 0.930 . S
C779 C772 1.409 . S
C779 C778 1.362 . S
H780 C786 0.930 . S
H781 C789 0.930 . S
H782 C790 0.930 . S
H783 C791 0.930 . S
H784 C794 0.930 . S
H785 C795 0.930 . S
C786 H780 0.930 . S
C786 C787 1.355 . S
C786 C788 1.415 . S
C787 C786 1.355 . S
C787 C789 1.419 . S
C788 C786 1.415 . S
C788 C793 1.425 . S
C788 C795 1.409 . S
C789 H781 0.930 . S
C789 C787 1.419 . S
C789 C790 1.362 . S
C790 H782 0.930 . S
C790 C789 1.362 . S
C790 C793 1.409 . S
C791 H783 0.930 . S
C791 C792 1.355 . S
C791 C793 1.415 . S
C792 C791 1.355 . S
C792 C794 1.419 . S
C793 C788 1.425 . S
C793 C790 1.409 . S
C793 C791 1.415 . S
C794 H784 0.930 . S
C794 C792 1.419 . S
C794 C795 1.362 . S
C795 H785 0.930 . S
C795 C788 1.409 . S
C795 C794 1.362 . S
C419 C255 1.812 . S
C424 C336 1.811 . S
C440 C359 1.957 . S
C435 C295 1.943 . S
C456 C382 1.810 . S
C451 C175 1.790 . S
C472 C409 1.671 . S
C467 C215 1.781 . S
C488 C337 1.659 . S
C483 C95 1.642 1_545 S
C499 C135 1.738 . S
C504 C360 1.776 . S
C515 C15 1.592 . S
C520 C383 1.603 . S
C531 C55 1.848 1_556 S
C536 C408 1.866 . S
C552 C338 0.426 . S
C547 C221 0.498 . S
C568 C361 0.371 . S
C563 C261 0.615 1_565 S
C584 C384 0.348 . S
C579 C301 0.526 . S
C595 C181 0.601 . S
C600 C410 0.641 . S
C611 C61 0.715 . S
C616 C341 0.791 . S
C632 C364 0.665 . S
C627 C101 0.678 1_565 S
C648 C387 0.749 . S
C643 C141 0.799 . S
C659 C21 0.414 . S
C664 C407 0.260 . S
C675 C202 2.128 1_556 S
C680 C339 2.075 . S
C691 C242 2.046 . S
C696 C362 2.065 1_565 S
C712 C385 2.056 . S
C707 C282 2.077 . S
C728 C406 1.859 . S
C723 C162 1.746 . S
C739 C42 2.114 . S
C744 C340 2.066 1_655 S
C760 C363 1.942 . S
C755 C82 1.981 1_565 S
C776 C386 1.979 . S
C771 C122 1.999 . S
C787 C2 2.159 . S
C792 C405 2.226 . S
