# Generated by pormake.
# Topology zzz, (3,6)-cn, num edge types: 1
# Building blocks:
#     Node 0, Type 0, BuildingBlock: WUSLED_clean_sbu_0, # of connection points: 3
#     Node 1, Type 0, BuildingBlock: WUSLED_clean_sbu_0, # of connection points: 3
#     Node 2, Type 0, BuildingBlock: WUSLED_clean_sbu_0, # of connection points: 3
#     Node 3, Type 0, BuildingBlock: WUSLED_clean_sbu_0, # of connection points: 3
#     Node 4, Type 0, BuildingBlock: WUSLED_clean_sbu_0, # of connection points: 3
#     Node 5, Type 0, BuildingBlock: WUSLED_clean_sbu_0, # of connection points: 3
#     Node 6, Type 0, BuildingBlock: WUSLED_clean_sbu_0, # of connection points: 3
#     Node 7, Type 0, BuildingBlock: WUSLED_clean_sbu_0, # of connection points: 3
#     Node 8, Type 1, BuildingBlock: INOVEN_clean_sbu_0, # of connection points: 6
#     Node 9, Type 1, BuildingBlock: INOVEN_clean_sbu_0, # of connection points: 6
#     Node 10, Type 1, BuildingBlock: INOVEN_clean_sbu_0, # of connection points: 6
#     Node 11, Type 1, BuildingBlock: INOVEN_clean_sbu_0, # of connection points: 6
#     Edge 12, Type (0, 1), BuildingBlock: UVAHIK_clean_linker_0, # of connection points: 2
#     Edge 13, Type (0, 1), BuildingBlock: UVAHIK_clean_linker_0, # of connection points: 2
#     Edge 14, Type (0, 1), BuildingBlock: UVAHIK_clean_linker_0, # of connection points: 2
#     Edge 15, Type (0, 1), BuildingBlock: UVAHIK_clean_linker_0, # of connection points: 2
#     Edge 16, Type (0, 1), BuildingBlock: UVAHIK_clean_linker_0, # of connection points: 2
#     Edge 17, Type (0, 1), BuildingBlock: UVAHIK_clean_linker_0, # of connection points: 2
#     Edge 18, Type (0, 1), BuildingBlock: UVAHIK_clean_linker_0, # of connection points: 2
#     Edge 19, Type (0, 1), BuildingBlock: UVAHIK_clean_linker_0, # of connection points: 2
#     Edge 20, Type (0, 1), BuildingBlock: UVAHIK_clean_linker_0, # of connection points: 2
#     Edge 21, Type (0, 1), BuildingBlock: UVAHIK_clean_linker_0, # of connection points: 2
#     Edge 22, Type (0, 1), BuildingBlock: UVAHIK_clean_linker_0, # of connection points: 2
#     Edge 23, Type (0, 1), BuildingBlock: UVAHIK_clean_linker_0, # of connection points: 2
#     Edge 24, Type (0, 1), BuildingBlock: UVAHIK_clean_linker_0, # of connection points: 2
#     Edge 25, Type (0, 1), BuildingBlock: UVAHIK_clean_linker_0, # of connection points: 2
#     Edge 26, Type (0, 1), BuildingBlock: UVAHIK_clean_linker_0, # of connection points: 2
#     Edge 27, Type (0, 1), BuildingBlock: UVAHIK_clean_linker_0, # of connection points: 2
#     Edge 28, Type (0, 1), BuildingBlock: UVAHIK_clean_linker_0, # of connection points: 2
#     Edge 29, Type (0, 1), BuildingBlock: UVAHIK_clean_linker_0, # of connection points: 2
#     Edge 30, Type (0, 1), BuildingBlock: UVAHIK_clean_linker_0, # of connection points: 2
#     Edge 31, Type (0, 1), BuildingBlock: UVAHIK_clean_linker_0, # of connection points: 2
#     Edge 32, Type (0, 1), BuildingBlock: UVAHIK_clean_linker_0, # of connection points: 2
#     Edge 33, Type (0, 1), BuildingBlock: UVAHIK_clean_linker_0, # of connection points: 2
#     Edge 34, Type (0, 1), BuildingBlock: UVAHIK_clean_linker_0, # of connection points: 2
#     Edge 35, Type (0, 1), BuildingBlock: UVAHIK_clean_linker_0, # of connection points: 2
# Relax obj value: 0.376
# Max RMSD: 0.265
# Mean RMSD: 0.243
data_MOF--net-zzz--node1-WUSLED_clean_sbu_0--node2-INOVEN_clean_sbu_0--edge1-UVAHIK_clean_linker_0
_symmetry_space_group_name_H-M    P1
_symmetry_Int_Tables_number       1
_symmetry_cell_setting            triclinic
loop_
_symmetry_equiv_pos_as_xyz
'x, y, z'
_cell_length_a     78.242651
_cell_length_b     78.553585
_cell_length_c     23.763928
_cell_angle_alpha  89.928033
_cell_angle_beta   89.98428
_cell_angle_gamma 90.345829
loop_
_atom_site_label
_atom_site_type_symbol
_atom_site_fract_x
_atom_site_fract_y
_atom_site_fract_z
_atom_type_partial_charge
C0 C 0.767 0.53457 0.41696 0.0
C1 C 0.78029 0.52822 0.3834 0.0
C2 C 0.80088 0.53306 0.45947 0.0
C3 C 0.79704 0.52747 0.40445 0.0
C4 C 0.78753 0.53966 0.49241 0.0
C5 C 0.77082 0.54037 0.47139 0.0
U6 U 0.72966 0.53537 0.30726 0.0
O7 O 0.70584 0.52033 0.31101 0.0
O8 O 0.70477 0.54815 0.31458 0.0
C9 C 0.69613 0.53389 0.30797 0.0
C10 C 0.74894 0.5344 0.39816 0.0
C11 C 0.68362 0.53378 0.26132 0.0
C12 C 0.6545 0.52974 0.22771 0.0
C13 C 0.66634 0.53032 0.27198 0.0
C14 C 0.67711 0.53607 0.16126 0.0
C15 C 0.65969 0.53257 0.17162 0.0
C16 C 0.68893 0.53665 0.20559 0.0
C17 C 0.75799 0.53798 0.17092 0.0
C18 C 0.76932 0.53698 0.07638 0.0
C19 C 0.78859 0.53716 0.15644 0.0
C20 C 0.77459 0.53791 0.193 0.0
C21 C 0.78599 0.53635 0.09786 0.0
C22 C 0.75545 0.53778 0.11269 0.0
C23 C 0.7428 0.53734 0.20628 0.0
O24 O 0.74293 0.54861 0.37679 0.0
O25 O 0.7436 0.52073 0.37132 0.0
O26 O 0.73959 0.52282 0.23176 0.0
O27 O 0.73933 0.55084 0.23674 0.0
H28 H 0.77768 0.52366 0.34124 0.0
H29 H 0.80701 0.52254 0.37749 0.0
H30 H 0.78988 0.54389 0.53508 0.0
H31 H 0.76075 0.54521 0.49821 0.0
H32 H 0.64121 0.52724 0.23764 0.0
H33 H 0.66199 0.52802 0.31461 0.0
H34 H 0.68169 0.53808 0.11875 0.0
H35 H 0.70226 0.53921 0.19631 0.0
H36 H 0.767 0.53661 0.03145 0.0
H37 H 0.80136 0.5366 0.17389 0.0
H38 H 0.77666 0.53804 0.23807 0.0
H39 H 0.74265 0.53786 0.09522 0.0
C40 C 0.01199 0.77047 0.41797 0.0
C41 C 1.00961 0.78409 0.38062 0.0
C42 C 0.01108 0.80447 0.45855 0.0
C43 C 1.00918 0.8009 0.40064 0.0
C44 C 0.01362 0.7907 0.49559 0.0
C45 C 0.01407 0.77394 0.47549 0.0
U46 U 0.01155 0.73366 0.30705 0.0
O47 O 0.02551 0.70948 0.31241 0.0
O48 O 0.99752 0.70922 0.3116 0.0
C49 C 0.01155 0.70022 0.30692 0.0
C50 C 0.01198 0.75253 0.39886 0.0
C51 C 0.01171 0.68762 0.26049 0.0
C52 C 1.00439 0.65945 0.22454 0.0
C53 C 1.00435 0.67145 0.26825 0.0
C54 C 0.01925 0.67958 0.16451 0.0
C55 C 0.01196 0.66332 0.1723 0.0
C56 C 0.01899 0.69165 0.20795 0.0
C57 C 0.01163 0.76219 0.17055 0.0
C58 C 0.0152 0.77346 0.07657 0.0
C59 C 1.00994 0.7926 0.15467 0.0
C60 C 1.00917 0.77866 0.19142 0.0
C61 C 0.01316 0.79009 0.09694 0.0
C62 C 0.01452 0.75968 0.11312 0.0
C63 C 0.01136 0.74709 0.20628 0.0
O64 O 0.99786 0.74689 0.37508 0.0
O65 O 0.02589 0.74714 0.37359 0.0
O66 O 0.02549 0.74348 0.23351 0.0
O67 O 0.99732 0.7439 0.23492 0.0
H68 H 1.00801 0.7817 0.33611 0.0
H69 H 1.00747 0.81112 0.37059 0.0
H70 H 0.01492 0.79281 0.54041 0.0
H71 H 0.01587 0.76362 0.50515 0.0
H72 H 0.99876 0.64702 0.23192 0.0
H73 H 0.99859 0.66809 0.30824 0.0
H74 H 0.02499 0.68301 0.12456 0.0
H75 H 0.02454 0.70412 0.20053 0.0
H76 H 0.01736 0.77108 0.03225 0.0
H77 H 1.00841 0.8053 0.17155 0.0
H78 H 1.00683 0.78073 0.23573 0.0
H79 H 0.01631 0.74697 0.09645 0.0
C80 C 0.75869 0.99935 0.41969 0.0
C81 C 0.74487 1.00005 0.38224 0.0
C82 C 0.72466 0.99917 0.46094 0.0
C83 C 0.72801 0.99992 0.40262 0.0
C84 C 0.73864 0.99845 0.49812 0.0
C85 C 0.75543 0.99852 0.47768 0.0
U86 U 0.79575 0.99845 0.30887 0.0
O87 O 0.81941 0.01381 0.3113 0.0
O88 O 0.82075 0.98602 0.31774 0.0
C89 C 0.82924 1.00032 0.30972 0.0
C90 C 0.77664 0.99973 0.40018 0.0
C91 C 0.84193 1.00018 0.26351 0.0
C92 C 0.86964 1.00879 0.22618 0.0
C93 C 0.85778 1.00834 0.27038 0.0
C94 C 0.85003 0.99277 0.16757 0.0
C95 C 0.86593 1.00098 0.17431 0.0
C96 C 0.83809 0.9925 0.21156 0.0
C97 C 0.76737 0.99479 0.17288 0.0
C98 C 0.75584 0.99497 0.07849 0.0
C99 C 0.73676 0.99601 0.15893 0.0
C100 C 0.75082 0.99539 0.19519 0.0
C101 C 0.73923 0.99615 0.10025 0.0
C102 C 0.76978 0.99431 0.11459 0.0
C103 C 0.78262 0.99574 0.20799 0.0
O104 O 0.78276 0.98549 0.37946 0.0
O105 O 0.78157 0.0133 0.37191 0.0
O106 O 0.78571 0.01043 0.23243 0.0
O107 O 0.78622 0.98247 0.23946 0.0
H108 H 0.74711 1.00083 0.33742 0.0
H109 H 0.71761 1.00072 0.37269 0.0
H110 H 0.73662 0.99763 0.54313 0.0
H111 H 0.76592 0.99796 0.50736 0.0
H112 H 0.88182 0.01511 0.23275 0.0
H113 H 0.86095 0.01445 0.3099 0.0
H114 H 0.84671 0.98683 0.12791 0.0
H115 H 0.82582 0.98636 0.20488 0.0
H116 H 0.75807 0.99481 0.03349 0.0
H117 H 0.72405 0.99701 0.17666 0.0
H118 H 0.74883 0.99577 0.24018 0.0
H119 H 0.78254 0.99383 0.09687 0.0
C120 C 0.50712 0.76311 0.42191 0.0
C121 C 0.50884 0.74952 0.38416 0.0
C122 C 0.50853 0.72913 0.4623 0.0
C123 C 0.50953 0.73271 0.40414 0.0
C124 C 0.50652 0.74285 0.49973 0.0
C125 C 0.50584 0.75962 0.4797 0.0
U126 U 0.50743 0.79955 0.3101 0.0
O127 O 0.49385 0.82395 0.31489 0.0
O128 O 0.52184 0.82377 0.31277 0.0
C129 C 0.50792 0.83297 0.30842 0.0
C130 C 0.50715 0.78104 0.40278 0.0
C131 C 0.5078 0.84546 0.2616 0.0
C132 C 0.51544 0.87344 0.22472 0.0
C133 C 0.51534 0.86154 0.2688 0.0
C134 C 0.50037 0.85335 0.16534 0.0
C135 C 0.50788 0.86954 0.1725 0.0
C136 C 0.50043 0.8414 0.20927 0.0
C137 C 0.50599 0.77066 0.17417 0.0
C138 C 0.49819 0.7594 0.08301 0.0
C139 C 0.51202 0.74121 0.15162 0.0
C140 C 0.51273 0.75482 0.18962 0.0
C141 C 0.50465 0.74339 0.09798 0.0
C142 C 0.49877 0.77282 0.12087 0.0
C143 C 0.50686 0.78568 0.21018 0.0
O144 O 0.52122 0.78651 0.37828 0.0
O145 O 0.49319 0.78648 0.37792 0.0
O146 O 0.49292 0.78978 0.23775 0.0
O147 O 0.5211 0.78864 0.23796 0.0
H148 H 0.50978 0.75192 0.33936 0.0
H149 H 0.51079 0.72249 0.37391 0.0
H150 H 0.50588 0.7407 0.5447 0.0
H151 H 0.50454 0.76994 0.5096 0.0
H152 H 0.52122 0.88581 0.23181 0.0
H153 H 0.52116 0.86493 0.30864 0.0
H154 H 0.49463 0.84984 0.12549 0.0
H155 H 0.49472 0.82897 0.20234 0.0
H156 H 0.49277 0.76163 0.04175 0.0
H157 H 0.51698 0.72896 0.16448 0.0
H158 H 0.51847 0.75301 0.23064 0.0
H159 H 0.49371 0.78506 0.10816 0.0
C160 C 0.26069 0.49156 0.87161 0.0
C161 C 0.24739 0.48412 0.9031 0.0
C162 C 0.22637 0.49323 0.83331 0.0
C163 C 0.23044 0.4849 0.88409 0.0
C164 C 0.23981 0.50057 0.80185 0.0
C165 C 0.25675 0.49976 0.82085 0.0
U166 U 0.29118 0.48907 0.99476 0.0
O167 O 0.31633 0.47685 1.00654 0.0
O168 O 0.31387 0.50458 0.01455 0.0
C169 C 0.32399 0.49133 0.01887 0.0
C170 C 0.2785 0.49168 0.89279 0.0
C171 C 0.33623 0.49128 0.0666 0.0
C172 C 0.365 0.48523 0.10056 0.0
C173 C 0.35237 0.48391 0.05892 0.0
C174 C 0.34546 0.50108 0.15914 0.0
C175 C 0.36182 0.49408 0.15091 0.0
C176 C 0.33279 0.49968 0.11752 0.0
C177 C 0.26165 0.48345 0.13057 0.0
C178 C 0.25789 0.4959 0.22303 0.0
C179 C 0.23685 0.47602 0.18659 0.0
C180 C 0.2467 0.47388 0.13837 0.0
C181 C 0.24191 0.48766 0.22841 0.0
C182 C 0.26764 0.49394 0.17409 0.0
C183 C 0.26806 0.48498 0.07291 0.0
O184 O 0.28259 0.50492 0.92375 0.0
O185 O 0.28407 0.47726 0.91393 0.0
O186 O 0.27571 0.47201 0.04899 0.0
O187 O 0.27354 0.49999 0.05604 0.0
H188 H 0.25008 0.47793 0.94287 0.0
H189 H 0.22048 0.47932 0.90998 0.0
H190 H 0.23726 0.50692 0.76229 0.0
H191 H 0.26678 0.50569 0.79609 0.0
H192 H 0.37745 0.47981 0.09243 0.0
H193 H 0.35539 0.4775 0.01984 0.0
H194 H 0.34247 0.50776 0.19771 0.0
H195 H 0.32045 0.50546 0.12468 0.0
H196 H 0.26239 0.50463 0.25505 0.0
H197 H 0.22459 0.46959 0.18847 0.0
H198 H 0.2418 0.46586 0.10488 0.0
H199 H 0.27919 0.50145 0.16876 0.0
C200 C 0.01612 0.26382 0.88844 0.0
C201 C 0.01153 0.25016 0.92359 0.0
C202 C 0.01585 0.22996 0.84646 0.0
C203 C 0.01143 0.23342 0.90287 0.0
C204 C 0.02058 0.24373 0.81168 0.0
C205 C 0.0207 0.26042 0.83247 0.0
U206 U 0.01613 0.30099 0.99858 0.0
O207 O 0.0287 0.32604 0.99045 0.0
O208 O 1.00079 0.32439 0.99475 0.0
C209 C 0.01432 0.33435 0.99727 0.0
C210 C 0.01556 0.28175 0.90764 0.0
C211 C 0.01426 0.3468 0.04387 0.0
C212 C 0.01177 0.37596 0.07729 0.0
C213 C 0.01189 0.36416 0.03301 0.0
C214 C 0.01632 0.35312 0.144 0.0
C215 C 0.01404 0.37062 0.13347 0.0
C216 C 0.01643 0.34136 0.09973 0.0
C217 C 0.01916 0.27211 0.13221 0.0
C218 C 0.02241 0.25902 0.22382 0.0
C219 C 0.01363 0.24199 0.14362 0.0
C220 C 0.01453 0.25637 0.10915 0.0
C221 C 0.01727 0.24328 0.20148 0.0
C222 C 0.02336 0.27332 0.18933 0.0
C223 C 0.01833 0.28782 0.0996 0.0
O224 O 1.00172 0.28658 0.93462 0.0
O225 O 0.02968 0.28814 0.92919 0.0
O226 O 0.0318 0.29186 0.06928 0.0
O227 O 1.00372 0.29088 0.07434 0.0
H228 H 1.00787 0.25246 0.96677 0.0
H229 H 1.00794 0.22316 0.9312 0.0
H230 H 0.02383 0.24167 0.76793 0.0
H231 H 0.02414 0.27076 0.8044 0.0
H232 H 1.01018 0.38931 0.06734 0.0
H233 H 1.01017 0.36862 0.99024 0.0
H234 H 0.01783 0.34845 0.18659 0.0
H235 H 0.01817 0.32798 0.10911 0.0
H236 H 0.02545 0.2603 0.26809 0.0
H237 H 1.00946 0.23002 0.12548 0.0
H238 H 0.01112 0.25532 0.06519 0.0
H239 H 0.0269 0.28547 0.20763 0.0
C240 C 0.26556 0.04145 0.87579 0.0
C241 C 0.27909 0.0479 0.9084 0.0
C242 C 0.2997 0.03984 0.83578 0.0
C243 C 0.29597 0.04714 0.88856 0.0
C244 C 0.28601 0.03347 0.80336 0.0
C245 C 0.26917 0.03425 0.82321 0.0
U246 U 0.23258 0.04378 0.99484 0.0
O247 O 0.20772 0.05688 1.00178 0.0
O248 O 0.20883 0.029 1.00403 0.0
C249 C 0.1993 0.04257 0.01054 0.0
C250 C 0.24768 0.04176 0.89615 0.0
C251 C 0.18728 0.04221 0.05886 0.0
C252 C 0.15915 0.04881 0.09693 0.0
C253 C 0.17134 0.05018 0.05388 0.0
C254 C 0.17873 0.03167 0.15136 0.0
C255 C 0.16256 0.03931 0.14586 0.0
C256 C 0.19098 0.03317 0.10848 0.0
C257 C 0.263 0.04689 0.13239 0.0
C258 C 0.26926 0.03801 0.22762 0.0
C259 C 0.29077 0.05293 0.17265 0.0
C260 C 0.27924 0.05431 0.12813 0.0
C261 C 0.28606 0.04432 0.22239 0.0
C262 C 0.2579 0.03907 0.1826 0.0
C263 C 0.25207 0.04578 0.08284 0.0
O264 O 0.24279 0.02836 0.92525 0.0
O265 O 0.2424 0.05617 0.91802 0.0
O266 O 0.24703 0.05943 0.0556 0.0
O267 O 0.24663 0.03108 0.06322 0.0
H268 H 0.27663 0.0534 0.94939 0.0
H269 H 0.30613 0.05196 0.91516 0.0
H270 H 0.28826 0.02798 0.76227 0.0
H271 H 0.25893 0.02917 0.79741 0.0
H272 H 0.14682 0.05475 0.09107 0.0
H273 H 0.16817 0.05716 0.01601 0.0
H274 H 0.18188 0.02448 0.18881 0.0
H275 H 0.20323 0.027 0.1137 0.0
H276 H 0.26505 0.0317 0.26576 0.0
H277 H 0.30363 0.05775 0.16666 0.0
H278 H 0.28335 0.06031 0.08927 0.0
H279 H 0.2453 0.03338 0.18644 0.0
C280 C 0.51229 0.26957 0.88527 0.0
C281 C 0.51648 0.28324 0.92075 0.0
C282 C 0.51279 0.30336 0.84287 0.0
C283 C 0.51673 0.29997 0.89974 0.0
C284 C 0.50851 0.28956 0.80778 0.0
C285 C 0.50829 0.27289 0.82878 0.0
U286 U 0.51276 0.23285 0.99683 0.0
O287 O 0.49887 0.20839 0.99295 0.0
O288 O 0.52685 0.20873 0.99086 0.0
C289 C 0.51296 0.19942 0.99686 0.0
C290 C 0.51241 0.25169 0.90494 0.0
C291 C 0.51338 0.18706 0.0438 0.0
C292 C 0.51328 0.1578 0.07755 0.0
C293 C 0.51295 0.16953 0.03304 0.0
C294 C 0.51457 0.18101 0.14433 0.0
C295 C 0.51406 0.16335 0.1339 0.0
C296 C 0.51422 0.19272 0.0998 0.0
C297 C 0.51382 0.26154 0.13218 0.0
C298 C 0.51804 0.27335 0.22508 0.0
C299 C 0.51271 0.29206 0.14573 0.0
C300 C 0.51157 0.27792 0.11009 0.0
C301 C 0.51615 0.28985 0.20345 0.0
C302 C 0.51691 0.25934 0.18967 0.0
C303 C 0.51329 0.24627 0.09748 0.0
O304 O 0.52651 0.24633 0.9291 0.0
O305 O 0.49847 0.24606 0.92988 0.0
O306 O 0.49905 0.24298 0.07016 0.0
O307 O 0.52721 0.24268 0.06907 0.0
H308 H 0.51962 0.28098 0.96448 0.0
H309 H 0.51987 0.31028 0.9282 0.0
H310 H 0.50563 0.29159 0.76372 0.0
H311 H 0.50512 0.26252 0.80055 0.0
H312 H 0.51264 0.14435 0.06777 0.0
H313 H 0.51227 0.16491 0.99017 0.0
H314 H 0.51542 0.18581 0.18694 0.0
H315 H 0.51464 0.20622 0.10907 0.0
H316 H 0.5204 0.27126 0.26947 0.0
H317 H 0.51129 0.30469 0.12804 0.0
H318 H 0.50913 0.27975 0.06565 0.0
H319 H 0.51856 0.24671 0.20723 0.0
Gd320 Gd 0.02453 0.01364 0.7034 0.0
Gd321 Gd 0.99909 0.02049 0.60763 0.0
C322 C 0.01068 0.98233 0.62458 0.0
C323 C 0.03612 1.00217 0.79679 0.0
C324 C 0.03538 0.98445 0.81628 0.0
C325 C 0.05059 0.97577 0.82757 0.0
C326 C 0.01985 0.97536 0.81481 0.0
C327 C 0.03485 0.94909 0.83406 0.0
C328 C 0.01959 0.95786 0.82385 0.0
C329 C 0.05035 0.95821 0.8363 0.0
C330 C 0.04278 0.01905 0.60727 0.0
C331 C 0.01617 0.05245 0.67883 0.0
C332 C 0.98235 0.03372 0.52619 0.0
C333 C 0.98398 0.05093 0.503 0.0
C334 C 0.96944 0.06115 0.49752 0.0
C335 C 1.00026 0.05804 0.49387 0.0
C336 C 0.98744 0.08528 0.47288 0.0
C337 C 1.00195 0.07504 0.47861 0.0
C338 C 0.97116 0.07828 0.48269 0.0
C339 C 0.98483 0.00957 0.70501 0.0
O340 O 0.01648 0.98725 0.67438 0.0
O341 O 1.00511 0.99339 0.58697 0.0
O342 O 0.04588 1.00467 0.75293 0.0
O343 O 0.02153 0.01013 0.7932 0.0
O344 O 0.04946 0.01658 0.65639 0.0
O345 O 0.02674 0.01926 0.6125 0.0
O346 O 1.00779 0.04708 0.63359 0.0
O347 O 0.02322 0.04179 0.71495 0.0
O348 O 0.97647 0.03324 0.57769 0.0
O349 O 0.99535 0.02352 0.51801 0.0
O350 O 0.97977 1.00487 0.65543 0.0
O351 O 0.99706 0.02008 0.70029 0.0
H352 H 0.06273 0.98248 0.82753 0.0
H353 H 1.00791 0.98164 0.80506 0.0
H354 H 1.00743 0.95121 0.82284 0.0
H355 H 0.06233 0.95173 0.84354 0.0
H356 H 0.95682 0.05597 0.50582 0.0
H357 H 0.01173 0.0506 0.49971 0.0
H358 H 0.01464 0.08027 0.47186 0.0
H359 H 0.9598 0.08599 0.47815 0.0
Gd360 Gd 0.51697 0.02984 0.70154 0.0
Gd361 Gd 0.50792 1.00556 0.60328 0.0
C362 C 0.54736 0.00957 0.63184 0.0
C363 C 0.53128 0.0439 0.78663 0.0
C364 C 0.54793 0.0398 0.81087 0.0
C365 C 0.55931 0.05288 0.82576 0.0
C366 C 0.5535 0.02284 0.81099 0.0
C367 C 0.58172 0.03206 0.84005 0.0
C368 C 0.57023 0.01901 0.82558 0.0
C369 C 0.57614 0.04903 0.84032 0.0
C370 C 0.50927 0.0452 0.60312 0.0
C371 C 0.47768 0.02246 0.68044 0.0
C372 C 0.4959 0.99642 0.50768 0.0
C373 C 0.47812 0.99815 0.48906 0.0
C374 C 0.46917 0.98396 0.46845 0.0
C375 C 0.46931 0.01337 0.49938 0.0
C376 C 0.44279 1.00013 0.46967 0.0
C377 C 0.45183 0.01435 0.48969 0.0
C378 C 0.4516 0.98496 0.45862 0.0
C379 C 0.50967 0.98689 0.69972 0.0
O380 O 0.54269 0.01871 0.6762 0.0
O381 O 0.53618 1.0035 0.59521 0.0
O382 O 0.53212 0.05042 0.73601 0.0
O383 O 0.5194 0.03214 0.79185 0.0
O384 O 0.50471 0.05095 0.65202 0.0
O385 O 0.51799 0.03183 0.60913 0.0
O386 O 0.48226 0.01574 0.63164 0.0
O387 O 0.48898 0.02735 0.7185 0.0
O388 O 0.49815 0.98563 0.54889 0.0
O389 O 0.5044 0.01067 0.51461 0.0
O390 O 0.50687 0.98053 0.65025 0.0
O391 O 0.51203 1.00272 0.69451 0.0
H392 H 0.55531 0.06605 0.82454 0.0
H393 H 0.54511 0.01257 0.79791 0.0
H394 H 0.57431 1.00586 0.82403 0.0
H395 H 0.58478 0.05929 0.85161 0.0
H396 H 0.47568 0.97201 0.46152 0.0
H397 H 0.4758 0.02446 0.5163 0.0
H398 H 0.4454 0.02628 0.49769 0.0
H399 H 0.44486 0.97378 0.44349 0.0
Gd400 Gd 0.50197 0.51934 0.7028 0.0
Gd401 Gd 0.52714 0.51327 0.60453 0.0
C402 C 0.51482 0.55115 0.62386 0.0
C403 C 0.49144 0.53042 0.79788 0.0
C404 C 0.49119 0.54826 0.81603 0.0
C405 C 0.47602 0.55537 0.83629 0.0
C406 C 0.50542 0.55885 0.80585 0.0
C407 C 0.48927 0.58345 0.83579 0.0
C408 C 0.50447 0.57627 0.81578 0.0
C409 C 0.47506 0.57285 0.84616 0.0
C410 C 0.48346 0.51426 0.60702 0.0
C411 C 0.51069 0.48081 0.67586 0.0
C412 C 0.5433 0.50091 0.52024 0.0
C413 C 0.54143 0.48399 0.49538 0.0
C414 C 0.55591 0.47486 0.47885 0.0
C415 C 0.52536 0.47596 0.49576 0.0
C416 C 0.53825 0.44971 0.46394 0.0
C417 C 0.52379 0.45899 0.4801 0.0
C418 C 0.55433 0.4578 0.46311 0.0
C419 C 0.54142 0.52347 0.70263 0.0
O420 O 0.50911 0.54593 0.67346 0.0
O421 O 0.52073 0.5404 0.58589 0.0
O422 O 0.48097 0.5268 0.75668 0.0
O423 O 0.50658 0.5237 0.79136 0.0
O424 O 0.47688 0.51646 0.65651 0.0
O425 O 0.49953 0.51427 0.61184 0.0
O426 O 0.51879 0.48646 0.63028 0.0
O427 O 0.50372 0.49121 0.71289 0.0
O428 O 0.54953 0.50081 0.57132 0.0
O429 O 0.53017 0.51108 0.51439 0.0
O430 O 0.54654 0.52864 0.65354 0.0
O431 O 0.52932 0.51293 0.69679 0.0
H432 H 0.4648 0.54747 0.84304 0.0
H433 H 0.51721 0.55378 0.78905 0.0
H434 H 0.51569 0.58408 0.80815 0.0
H435 H 0.46312 0.57811 0.86102 0.0
H436 H 0.56844 0.48079 0.47957 0.0
H437 H 0.51407 0.48261 0.51003 0.0
H438 H 0.5113 0.453 0.48228 0.0
H439 H 0.56566 0.45092 0.4505 0.0
Gd440 Gd 1.00857 0.50329 0.70169 0.0
Gd441 Gd 0.01803 0.5277 0.60343 0.0
C442 C 0.97844 0.52323 0.62953 0.0
C443 C 0.99403 0.48895 0.78608 0.0
C444 C 0.9774 0.49292 0.81057 0.0
C445 C 0.96629 0.47976 0.82685 0.0
C446 C 0.97159 0.50979 0.80986 0.0
C447 C 0.94359 0.50032 0.84043 0.0
C448 C 0.95486 0.51345 0.8248 0.0
C449 C 0.94944 0.48344 0.84178 0.0
C450 C 0.01687 0.48815 0.60349 0.0
C451 C 0.04791 0.51107 0.68333 0.0
C452 C 0.03083 0.53663 0.50843 0.0
C453 C 0.04882 0.5355 0.49132 0.0
C454 C 0.0568 0.54911 0.46336 0.0
C455 C 0.05856 0.52139 0.5079 0.0
C456 C 0.08404 0.53441 0.46859 0.0
C457 C 0.07599 0.52087 0.49678 0.0
C458 C 0.07431 0.54853 0.45172 0.0
C459 C 0.01548 0.54629 0.69977 0.0
O460 O 0.98298 0.51459 0.67526 0.0
O461 O 0.98974 0.52905 0.59277 0.0
O462 O 0.99319 0.4827 0.73513 0.0
O463 O 1.00589 0.50071 0.79184 0.0
O464 O 0.02122 0.48231 0.6525 0.0
O465 O 1.00804 0.50143 0.60932 0.0
O466 O 0.04358 0.51801 0.63459 0.0
O467 O 0.03645 0.50582 0.72035 0.0
O468 O 0.02771 0.54761 0.54841 0.0
O469 O 0.02296 0.52206 0.51595 0.0
O470 O 0.0185 0.55273 0.65046 0.0
O471 O 0.01333 0.53044 0.69432 0.0
H472 H 0.97049 0.46664 0.82639 0.0
H473 H 0.97979 0.5201 0.79574 0.0
H474 H 0.95059 0.52653 0.82232 0.0
H475 H 0.941 0.47311 0.85406 0.0
H476 H 0.04954 0.56023 0.45122 0.0
H477 H 0.05277 0.51074 0.52994 0.0
H478 H 0.08313 0.50973 0.50949 0.0
H479 H 0.08028 0.55916 0.43017 0.0
C480 C 0.13896 0.05063 0.20783 0.0
C481 C 0.14915 0.03694 0.19008 0.0
C482 C 0.12637 0.04832 0.2493 0.0
C483 C 0.11303 0.01784 0.36283 0.0
H484 H 0.07217 0.0455 0.36592 0.0
C485 C 0.07107 0.02025 0.56004 0.0
C486 C 0.0532 0.02132 0.55539 0.0
C487 C 0.08158 0.02187 0.51291 0.0
C488 C 0.08338 0.0375 0.36537 0.0
H489 H 0.15359 0.00995 0.20086 0.0
H490 H 0.13147 1.00577 0.2715 0.0
H491 H 0.0924 0.04855 0.28827 0.0
H492 H 0.03233 0.02502 0.49701 0.0
H493 H 0.05083 0.0278 0.41348 0.0
H494 H 0.10383 1.00638 0.43861 0.0
C495 C 0.13349 0.01848 0.25508 0.0
C496 C 0.09519 0.03943 0.32114 0.0
C497 C 0.14622 0.02085 0.21426 0.0
C498 C 0.04605 0.02419 0.50195 0.0
C499 C 0.05668 0.02582 0.45422 0.0
C500 C 0.10119 0.01579 0.40648 0.0
C501 C 0.12343 0.0322 0.27377 0.0
C502 C 0.11033 0.02976 0.3195 0.0
C503 C 0.07463 0.0245 0.45908 0.0
C504 C 0.08634 0.0258 0.40917 0.0
H505 H 0.14095 0.06323 0.19041 0.0
H506 H 0.1192 0.05931 0.26288 0.0
H507 H 0.12453 0.01026 0.36406 0.0
H508 H 0.07706 0.01811 0.6005 0.0
H509 H 0.09527 0.02119 0.51903 0.0
C510 C 0.50511 0.1541 0.23147 0.0
C511 C 0.51415 0.15082 0.18148 0.0
C512 C 0.50502 0.14232 0.27579 0.0
C513 C 0.51297 0.09664 0.30869 0.0
H514 H 0.5137 0.113 0.46245 0.0
C515 C 0.51854 0.05149 0.50345 0.0
C516 C 0.509 0.05586 0.55142 0.0
C517 C 0.51936 0.06255 0.45696 0.0
C518 C 0.51328 0.10818 0.41981 0.0
H519 H 0.53051 0.13252 0.13992 0.0
H520 H 0.53037 0.11202 0.21707 0.0
H521 H 0.51508 0.13327 0.38513 0.0
H522 H 0.49243 0.07495 0.58746 0.0
H523 H 0.49364 0.09402 0.50668 0.0
H524 H 0.5112 0.0715 0.34369 0.0
C525 C 0.52308 0.12361 0.22166 0.0
C526 C 0.51408 0.11985 0.37529 0.0
C527 C 0.52317 0.13541 0.17728 0.0
C528 C 0.49996 0.07125 0.55128 0.0
C529 C 0.50079 0.08227 0.50505 0.0
C530 C 0.5122 0.08494 0.35333 0.0
C531 C 0.51399 0.12688 0.27159 0.0
C532 C 0.51376 0.11429 0.31903 0.0
C533 C 0.5107 0.07823 0.45752 0.0
C534 C 0.51215 0.09055 0.40956 0.0
H535 H 0.49777 0.16566 0.23607 0.0
H536 H 0.49761 0.14521 0.31303 0.0
H537 H 0.51252 0.09185 0.26602 0.0
H538 H 0.52575 0.03977 0.50241 0.0
H539 H 0.52721 0.05903 0.42133 0.0
C540 C 0.38684 0.48311 0.20771 0.0
C541 C 0.37568 0.49645 0.19376 0.0
C542 C 0.39972 0.4854 0.24823 0.0
C543 C 0.41196 0.51437 0.3669 0.0
H544 H 0.4545 0.48935 0.36236 0.0
C545 C 0.45507 0.51155 0.56112 0.0
C546 C 0.47294 0.51176 0.55545 0.0
C547 C 0.44444 0.50983 0.51435 0.0
C548 C 0.4428 0.49661 0.364 0.0
H549 H 0.36992 0.52293 0.20997 0.0
H550 H 0.39244 0.52709 0.27908 0.0
H551 H 0.43404 0.48651 0.28521 0.0
H552 H 0.49371 0.51006 0.49558 0.0
H553 H 0.47499 0.50723 0.41265 0.0
H554 H 0.42083 0.52493 0.44433 0.0
C555 C 0.39098 0.5146 0.26045 0.0
C556 C 0.43088 0.49479 0.32001 0.0
C557 C 0.378 0.51224 0.22052 0.0
C558 C 0.47998 0.50995 0.50133 0.0
C559 C 0.46923 0.50827 0.45391 0.0
C560 C 0.42388 0.51632 0.4103 0.0
C561 C 0.40194 0.50117 0.27563 0.0
C562 C 0.41516 0.50351 0.32106 0.0
C563 C 0.45125 0.50841 0.45981 0.0
C564 C 0.43936 0.50724 0.41027 0.0
H565 H 0.3854 0.47073 0.18819 0.0
H566 H 0.40765 0.47463 0.25895 0.0
H567 H 0.40002 0.52117 0.37027 0.0
H568 H 0.44916 0.5128 0.60213 0.0
H569 H 0.43076 0.50952 0.52129 0.0
C570 C 0.02541 0.38134 0.22647 0.0
C571 C 0.01413 0.38322 0.18075 0.0
C572 C 0.02554 0.3931 0.27075 0.0
C573 C 0.0128 0.43719 0.30856 0.0
H574 H 0.01857 0.42067 0.46104 0.0
C575 C 1.00708 0.48134 0.50497 0.0
C576 C 0.0176 0.47776 0.55143 0.0
C577 C 1.00664 0.47034 0.45841 0.0
C578 C 0.01721 0.4256 0.41873 0.0
H579 H 0.99396 0.39902 0.14671 0.0
H580 H 0.99424 0.41952 0.22376 0.0
H581 H 0.01769 0.40054 0.38354 0.0
H582 H 0.0364 0.4603 0.58446 0.0
H583 H 0.03609 0.4415 0.50308 0.0
H584 H 0.01242 0.46228 0.34386 0.0
C585 C 1.00317 0.40905 0.22495 0.0
C586 C 0.01666 0.41399 0.37411 0.0
C587 C 1.00302 0.39726 0.18065 0.0
C588 C 0.02807 0.46333 0.54949 0.0
C589 C 0.02775 0.45245 0.50292 0.0
C590 C 0.01342 0.44884 0.35327 0.0
C591 C 0.01441 0.40712 0.27071 0.0
C592 C 0.01457 0.41959 0.31832 0.0
C593 C 0.01679 0.45557 0.45708 0.0
C594 C 0.01577 0.44323 0.40905 0.0
H595 H 0.03438 0.37091 0.22772 0.0
H596 H 0.03459 0.39133 0.30467 0.0
H597 H 0.01133 0.44202 0.26616 0.0
H598 H 0.99878 0.49232 0.50537 0.0
H599 H 0.99793 0.47316 0.4243 0.0
C600 C 0.88671 0.01676 0.11218 0.0
C601 C 0.87857 1.00145 0.12738 0.0
C602 C 0.89852 0.01725 0.06785 0.0
C603 C 0.91468 0.9911 0.94605 0.0
H604 H 0.94988 0.02593 0.94435 0.0
C605 C 0.95761 1.00013 0.75064 0.0
C606 C 0.97388 1.00761 0.75575 0.0
C607 C 0.94655 0.99913 0.79676 0.0
C608 C 0.9404 0.01586 0.9442 0.0
H609 H 0.87668 0.97456 0.10864 0.0
H610 H 0.89782 0.97508 0.0337 0.0
H611 H 0.93045 0.02417 0.02308 0.0
H612 H 0.99125 0.01994 0.81383 0.0
H613 H 0.97273 0.01688 0.89554 0.0
H614 H 0.92542 0.98189 0.86968 0.0
C615 C 0.89472 0.98698 0.05406 0.0
C616 C 0.92886 0.01509 0.98929 0.0
C617 C 0.88262 0.98659 0.09755 0.0
C618 C 0.97895 0.01382 0.80859 0.0
C619 C 0.96807 0.01233 0.8554 0.0
C620 C 0.92653 0.99154 0.90189 0.0
C621 C 0.90285 1.00234 0.03813 0.0
C622 C 0.91562 1.00283 0.99073 0.0
C623 C 0.95156 1.00511 0.85023 0.0
C624 C 0.93947 1.0041 0.89952 0.0
H625 H 0.88369 0.02847 0.13395 0.0
H626 H 0.904 0.02946 0.05656 0.0
H627 H 0.90464 0.98159 0.94433 0.0
H628 H 0.95317 0.99541 0.71037 0.0
H629 H 0.9339 0.99397 0.78961 0.0
C630 C 0.4929 0.88525 0.09431 0.0
C631 C 0.50779 0.88234 0.1259 0.0
C632 C 0.49272 0.89749 0.05129 0.0
C633 C 0.5179 0.93453 0.99211 0.0
H634 H 0.48887 0.92652 0.86282 0.0
C635 C 0.51202 0.98336 0.80593 0.0
C636 C 0.51006 0.97638 0.75186 0.0
C637 C 0.51152 0.97277 0.8539 0.0
C638 C 0.49723 0.92896 0.89823 0.0
H639 H 0.53429 0.88982 0.136 0.0
H640 H 0.53424 0.91063 0.05993 0.0
H641 H 0.48897 0.90616 0.93918 0.0
H642 H 0.50643 0.95282 0.70585 0.0
H643 H 0.50603 0.93461 0.78781 0.0
H644 H 0.52679 0.95694 0.94917 0.0
C645 C 0.52245 0.90395 0.06938 0.0
C646 C 0.49706 0.91733 0.9429 0.0
C647 C 0.52254 0.89189 0.11298 0.0
C648 C 0.50788 0.95868 0.74683 0.0
C649 C 0.50747 0.94818 0.79421 0.0
C650 C 0.51823 0.94609 0.94691 0.0
C651 C 0.50752 0.90702 0.03782 0.0
C652 C 0.50745 0.91982 0.99059 0.0
C653 C 0.50904 0.95499 0.84867 0.0
C654 C 0.50804 0.94338 0.89891 0.0
H655 H 0.48124 0.87828 0.10359 0.0
H656 H 0.48082 0.8996 0.02919 0.0
H657 H 0.52587 0.9372 0.02829 0.0
H658 H 0.5137 0.99696 0.81119 0.0
H659 H 0.51273 0.97855 0.89504 0.0
C660 C 0.6482 0.54303 0.0783 0.0
C661 C 0.64703 0.53178 0.12433 0.0
C662 C 0.63626 0.54234 0.03432 0.0
C663 C 0.6031 0.5141 0.96946 0.0
H664 H 0.58848 0.55598 0.89834 0.0
C665 C 0.54894 0.51521 0.80206 0.0
C666 C 0.55175 0.52557 0.75462 0.0
C667 C 0.5598 0.51628 0.84897 0.0
C668 C 0.59251 0.54413 0.91737 0.0
H669 H 0.63236 0.51071 0.159 0.0
H670 H 0.61136 0.50986 0.08358 0.0
H671 H 0.60898 0.55708 0.97538 0.0
H672 H 0.5679 0.54543 0.71979 0.0
H673 H 0.58679 0.54732 0.80115 0.0
H674 H 0.58658 0.50118 0.91138 0.0
C675 C 0.62163 0.51912 0.08098 0.0
C676 C 0.60434 0.54475 0.96162 0.0
C677 C 0.63359 0.51977 0.12484 0.0
C678 C 0.56537 0.5373 0.75572 0.0
C679 C 0.57617 0.53843 0.80259 0.0
C680 C 0.59121 0.51349 0.92532 0.0
C681 C 0.62275 0.5304 0.03503 0.0
C682 C 0.60991 0.52974 0.98819 0.0
C683 C 0.57368 0.5278 0.84967 0.0
C684 C 0.58582 0.52849 0.89839 0.0
H685 H 0.65823 0.55257 0.07646 0.0
H686 H 0.63775 0.55111 0.99945 0.0
H687 H 0.60722 0.50222 0.98807 0.0
H688 H 0.53859 0.50599 0.80243 0.0
H689 H 0.55735 0.50804 0.88466 0.0
C690 C 0.02778 0.64691 0.098 0.0
C691 C 0.01244 0.65038 0.12635 0.0
C692 C 0.02835 0.63462 0.0553 0.0
C693 C 1.00288 0.59873 0.9899 0.0
H694 H 0.03529 0.60547 0.86866 0.0
C695 C 0.01124 0.54975 0.80538 0.0
C696 C 0.01462 0.55672 0.75196 0.0
C697 C 0.01104 0.56028 0.85346 0.0
C698 C 0.02599 0.60339 0.90176 0.0
H699 H 0.98558 0.64385 0.13141 0.0
H700 H 0.98628 0.62305 0.05531 0.0
H701 H 0.03426 0.62576 0.94484 0.0
H702 H 0.02018 0.58018 0.70723 0.0
H703 H 0.0195 0.59827 0.78932 0.0
H704 H 0.99403 0.57677 0.94447 0.0
C705 C 0.99811 0.62929 0.06715 0.0
C706 C 0.02561 0.61498 0.94643 0.0
C707 C 0.99764 0.64134 0.11068 0.0
C708 C 0.0176 0.57433 0.74768 0.0
C709 C 0.01738 0.58475 0.79518 0.0
C710 C 1.00311 0.58722 0.94461 0.0
C711 C 0.01349 0.62567 0.03867 0.0
C712 C 0.01401 0.61294 0.99132 0.0
C713 C 0.01429 0.57795 0.84903 0.0
C714 C 0.01457 0.58948 0.89949 0.0
H715 H 0.03946 0.6535 0.10958 0.0
H716 H 0.04057 0.63206 0.03587 0.0
H717 H 0.99394 0.59639 0.02383 0.0
H718 H 1.00891 0.53623 0.81006 0.0
H719 H 1.00867 0.55451 0.89413 0.0
C720 C 1.00609 0.2302 0.29026 0.0
C721 C 0.01482 0.22846 0.23883 0.0
C722 C 1.00232 0.2159 0.32297 0.0
C723 C 0.99447 0.17077 0.30409 0.0
H724 H 1.00273 0.16577 0.46427 0.0
C725 C 0.99932 0.10625 0.40556 0.0
C726 C 0.98938 0.10294 0.4534 0.0
C727 C 1.00098 0.12274 0.38531 0.0
C728 C 1.0001 0.16719 0.41976 0.0
H729 H 0.02742 0.21071 0.18304 0.0
H730 H 0.02081 0.18571 0.24009 0.0
H731 H 1.00926 0.193 0.41757 0.0
H732 H 0.97374 0.1141 0.51885 0.0
H733 H 0.97677 0.14339 0.48296 0.0
H734 H 0.98578 0.14498 0.30554 0.0
C735 C 0.01662 0.19808 0.25451 0.0
C736 C 1.00386 0.18265 0.39314 0.0
C737 C 0.02038 0.21233 0.22191 0.0
C738 C 0.98134 0.11644 0.4815 0.0
C739 C 0.98316 0.13309 0.46138 0.0
C740 C 0.99074 0.15544 0.3305 0.0
C741 C 1.00718 0.1997 0.30447 0.0
C742 C 1.00159 0.1843 0.33474 0.0
C743 C 0.99277 0.13624 0.41258 0.0
C744 C 0.99404 0.15335 0.38803 0.0
H745 H 1.00155 0.24252 0.30405 0.0
H746 H 0.995 0.21741 0.36132 0.0
H747 H 0.99217 0.17191 0.25928 0.0
H748 H 1.00555 0.09602 0.38312 0.0
H749 H 1.00863 0.12496 0.34796 0.0
C750 C 0.29889 0.02429 0.2923 0.0
C751 C 0.2991 0.04028 0.26562 0.0
C752 C 0.31225 0.01943 0.32734 0.0
C753 C 0.35149 0.03507 0.39936 0.0
H754 H 0.36662 0.98882 0.37297 0.0
C755 C 0.41361 0.01005 0.4965 0.0
C756 C 0.42431 1.00151 0.45848 0.0
C757 C 0.39661 0.0132 0.48262 0.0
C758 C 0.36255 1.00176 0.3808 0.0
H759 H 0.31311 0.0641 0.25774 0.0
H760 H 0.33693 0.05524 0.31633 0.0
H761 H 0.34017 0.99851 0.3309 0.0
H762 H 0.42557 0.989 0.3774 0.0
H763 H 0.396 0.99461 0.35281 0.0
H764 H 0.37457 0.03862 0.44596 0.0
C765 C 0.32622 0.04659 0.31116 0.0
C766 C 0.34726 1.00727 0.35735 0.0
C767 C 0.31267 0.05158 0.27682 0.0
C768 C 0.41754 0.99546 0.40765 0.0
C769 C 0.40058 0.99866 0.39367 0.0
C770 C 0.36691 0.0296 0.42232 0.0
C771 C 0.32633 0.03029 0.33567 0.0
C772 C 0.34168 0.02407 0.36557 0.0
C773 C 0.39005 1.00788 0.43047 0.0
C774 C 0.37275 0.01299 0.41231 0.0
H775 H 0.28882 0.0151 0.28419 0.0
H776 H 0.31179 1.00692 0.34646 0.0
H777 H 0.34744 0.04802 0.40708 0.0
H778 H 0.41848 0.01459 0.53647 0.0
H779 H 0.3887 0.02007 0.51221 0.0
C780 C 0.50674 0.31823 0.23905 0.0
C781 C 0.51821 0.30459 0.24129 0.0
C782 C 0.50878 0.33208 0.27513 0.0
C783 C 0.54169 0.35489 0.35324 0.0
H784 H 0.50282 0.37815 0.41814 0.0
C785 C 0.54805 0.41942 0.46762 0.0
C786 C 0.53637 0.43164 0.44831 0.0
C787 C 0.54591 0.40231 0.45336 0.0
C788 C 0.51379 0.37173 0.40043 0.0
H789 H 0.54078 0.29467 0.28275 0.0
H790 H 0.54423 0.31882 0.34609 0.0
H791 H 0.49863 0.35065 0.37235 0.0
H792 H 0.51354 0.43565 0.3984 0.0
H793 H 0.50982 0.40589 0.37357 0.0
H794 H 0.55673 0.37627 0.37941 0.0
C795 C 0.53371 0.31881 0.31646 0.0
C796 C 0.51139 0.35606 0.37421 0.0
C797 C 0.53166 0.30497 0.28048 0.0
C798 C 0.52256 0.42647 0.41465 0.0
C799 C 0.52039 0.40943 0.40065 0.0
C800 C 0.54409 0.37058 0.37945 0.0
C801 C 0.52235 0.33253 0.31387 0.0
C802 C 0.52523 0.34778 0.34881 0.0
C803 C 0.53202 0.39719 0.41984 0.0
C804 C 0.53005 0.37938 0.40153 0.0
H805 H 0.49617 0.31816 0.20961 0.0
H806 H 0.49997 0.34262 0.27174 0.0
H807 H 0.55257 0.34882 0.33369 0.0
H808 H 0.55869 0.42306 0.49426 0.0
H809 H 0.55502 0.39308 0.46869 0.0
C810 C 0.22814 0.51023 0.28717 0.0
C811 C 0.22942 0.49298 0.27208 0.0
C812 C 0.21447 0.51592 0.31955 0.0
C813 C 0.17702 0.50147 0.4045 0.0
H814 H 0.15763 0.54377 0.35049 0.0
C815 C 0.11411 0.52721 0.49458 0.0
C816 C 0.10237 0.53324 0.45461 0.0
C817 C 0.13102 0.52414 0.4793 0.0
C818 C 0.16284 0.53191 0.36596 0.0
H819 H 0.21788 0.46798 0.2832 0.0
H820 H 0.19356 0.47804 0.33682 0.0
H821 H 0.18458 0.53401 0.31231 0.0
H822 H 0.09913 0.54123 0.36803 0.0
H823 H 0.12854 0.53566 0.34097 0.0
H824 H 0.15463 0.49883 0.45529 0.0
C825 C 0.20331 0.48716 0.32458 0.0
C826 C 0.17846 0.52643 0.34472 0.0
C827 C 0.21718 0.48141 0.29308 0.0
C828 C 0.10798 0.53678 0.39978 0.0
C829 C 0.12485 0.5336 0.38438 0.0
C830 C 0.16127 0.50686 0.42525 0.0
C831 C 0.20154 0.50457 0.33681 0.0
C832 C 0.18566 0.51104 0.36325 0.0
C833 C 0.13648 0.52695 0.42369 0.0
C834 C 0.1539 0.52204 0.40561 0.0
H835 H 0.23715 0.51961 0.2714 0.0
H836 H 0.21372 0.52936 0.3293 0.0
H837 H 0.18228 0.48966 0.4202 0.0
H838 H 0.11012 0.52459 0.53741 0.0
H839 H 0.13975 0.51933 0.51083 0.0
C840 C 1.00394 0.81861 0.06087 0.0
C841 C 0.015 0.80464 0.05783 0.0
C842 C 1.00593 0.8323 0.02388 0.0
C843 C 0.03895 0.85309 0.93832 0.0
H844 H 1.00068 0.87955 0.88378 0.0
C845 C 0.04418 0.92362 0.88819 0.0
C846 C 0.03446 0.93055 0.84432 0.0
C847 C 0.04264 0.90646 0.90177 0.0
C848 C 0.0115 0.87211 0.89768 0.0
H849 H 0.03677 0.79401 0.01374 0.0
H850 H 0.03989 0.81758 0.94838 0.0
H851 H 0.99538 0.85244 0.93103 0.0
H852 H 0.01629 0.92482 0.77785 0.0
H853 H 0.01346 0.89468 0.80222 0.0
H854 H 0.05505 0.87278 0.90549 0.0
C855 C 0.02981 0.81809 0.97958 0.0
C856 C 1.00846 0.85673 0.92542 0.0
C857 C 0.02791 0.80451 0.01671 0.0
C858 C 0.02368 0.91984 0.81264 0.0
C859 C 0.0221 0.90263 0.82639 0.0
C860 C 0.04199 0.86838 0.91037 0.0
C861 C 0.01899 0.83222 0.9832 0.0
C862 C 0.02213 0.84734 0.94747 0.0
C863 C 0.03135 0.89588 0.87176 0.0
C864 C 0.02828 0.8783 0.89148 0.0
H865 H 0.99376 0.81896 0.09174 0.0
H866 H 0.99754 0.84313 0.0282 0.0
H867 H 0.04977 0.84623 0.95512 0.0
H868 H 0.05241 0.9316 0.91375 0.0
H869 H 0.04971 0.90168 0.93759 0.0
C870 C 0.72601 0.0102 0.01702 0.0
C871 C 0.72471 0.99845 0.06149 0.0
C872 C 0.71223 0.01286 0.98112 0.0
C873 C 0.67131 0.99454 0.93422 0.0
H874 H 0.65793 0.04168 0.9152 0.0
C875 C 0.6027 0.01401 0.89076 0.0
C876 C 0.59947 0.0278 0.85482 0.0
C877 C 0.61938 0.00977 0.90479 0.0
C878 C 0.66169 0.02848 0.91895 0.0
H879 H 0.70825 0.97999 0.10265 0.0
H880 H 0.68394 0.98484 0.04022 0.0
H881 H 0.68498 0.0351 0.96059 0.0
H882 H 0.61104 0.04777 0.80428 0.0
H883 H 0.64042 0.04039 0.82929 0.0
H884 H 0.64775 0.98792 0.89407 0.0
C885 C 0.69571 0.99182 0.03282 0.0
C886 C 0.67715 0.02471 0.94502 0.0
C887 C 0.70949 0.9892 0.06891 0.0
C888 C 0.61323 0.03723 0.83274 0.0
C889 C 0.62998 0.03296 0.84678 0.0
C890 C 0.65588 0.99831 0.90795 0.0
C891 C 0.69692 1.00382 0.98903 0.0
C892 C 0.68183 1.00771 0.95438 0.0
C893 C 0.63318 0.01922 0.88308 0.0
C894 C 0.65069 0.0153 0.90177 0.0
H895 H 0.73757 0.01762 0.01075 0.0
H896 H 0.71349 0.02213 0.94755 0.0
H897 H 0.67481 0.98134 0.9401 0.0
H898 H 0.5923 1.00669 0.90894 0.0
H899 H 0.62144 0.99937 0.93394 0.0
C900 C 0.48819 0.72717 0.0255 0.0
C901 C 0.50311 0.72905 0.05788 0.0
C902 C 0.48643 0.71369 0.98808 0.0
C903 C 0.50978 0.67855 0.91813 0.0
H904 H 0.46556 0.65612 0.92735 0.0
C905 C 0.49629 0.6138 0.8119 0.0
C906 C 0.48856 0.60185 0.84813 0.0
C907 C 0.49688 0.631 0.82654 0.0
C908 C 0.47795 0.66227 0.92413 0.0
H909 H 0.52812 0.7185 0.07508 0.0
H910 H 0.52468 0.69431 0.01168 0.0
H911 H 0.4699 0.68316 0.9743 0.0
H912 H 0.4752 0.5985 0.92734 0.0
H913 H 0.47622 0.62836 0.95286 0.0
H914 H 0.51808 0.65691 0.87104 0.0
C915 C 0.51451 0.70357 0.01429 0.0
C916 C 0.4804 0.67789 0.95048 0.0
C917 C 0.51637 0.71724 0.05137 0.0
C918 C 0.48098 0.60745 0.8982 0.0
C919 C 0.48157 0.62457 0.91276 0.0
C920 C 0.50735 0.6628 0.89206 0.0
C921 C 0.49939 0.70153 0.98292 0.0
C922 C 0.49645 0.68601 0.94896 0.0
C923 C 0.4897 0.63649 0.87749 0.0
C924 C 0.49154 0.65431 0.89634 0.0
H925 H 0.47764 0.73593 0.02988 0.0
H926 H 0.47473 0.71262 0.96395 0.0
H927 H 0.5222 0.68465 0.91547 0.0
H928 H 0.50203 0.60983 0.77259 0.0
H929 H 0.50309 0.63996 0.79836 0.0
C930 C 0.8154 0.54364 0.06405 0.0
C931 C 0.80042 0.53388 0.05894 0.0
C932 C 0.82908 0.54089 0.02765 0.0
C933 C 0.84814 0.50718 0.94506 0.0
H934 H 0.87656 0.54376 0.88673 0.0
C935 C 0.91219 0.49441 0.83411 0.0
C936 C 0.92575 0.50438 0.85477 0.0
C937 C 0.89535 0.49853 0.84741 0.0
C938 C 0.86869 0.53343 0.90265 0.0
H939 H 0.78785 0.5137 0.01198 0.0
H940 H 0.81177 0.50894 0.94832 0.0
H941 H 0.84942 0.55045 0.93214 0.0
H942 H 0.93246 0.52633 0.90566 0.0
H943 H 0.90316 0.53343 0.92919 0.0
H944 H 0.86771 0.49021 0.91793 0.0
C945 C 0.81291 0.51871 0.98028 0.0
C946 C 0.85322 0.53726 0.92857 0.0
C947 C 0.79924 0.5215 0.01646 0.0
C948 C 0.92222 0.51857 0.88855 0.0
C949 C 0.90545 0.52269 0.90173 0.0
C950 C 0.86363 0.50336 0.91932 0.0
C951 C 0.82801 0.52825 0.98593 0.0
C952 C 0.84308 0.52419 0.95142 0.0
C953 C 0.89186 0.5127 0.88145 0.0
C954 C 0.87428 0.5165 0.89952 0.0
H955 H 0.81653 0.55334 0.09622 0.0
H956 H 0.84069 0.54827 0.03328 0.0
H957 H 0.8406 0.49687 0.96276 0.0
H958 H 0.91459 0.48355 0.80726 0.0
H959 H 0.88506 0.49067 0.83111 0.0
C960 C 1.00224 0.20079 0.83982 0.0
C961 C 0.01534 0.21215 0.82384 0.0
C962 C 1.0019 0.18403 0.81971 0.0
C963 C 0.02017 0.155 0.71046 0.0
H964 H 1.00652 0.12011 0.81711 0.0
C965 C 0.01154 0.08315 0.65084 0.0
C966 C 0.01706 0.07108 0.6907 0.0
C967 C 0.01152 0.10061 0.66375 0.0
C968 C 0.0105 0.12964 0.78678 0.0
H969 H 0.03827 0.21463 0.77304 0.0
H970 H 0.03778 0.18539 0.73852 0.0
H971 H 1.00608 0.1498 0.84515 0.0
H972 H 0.02718 0.06811 0.77511 0.0
H973 H 0.02718 0.09831 0.79734 0.0
H974 H 0.02498 0.13459 0.65255 0.0
C975 C 0.0276 0.18951 0.7661 0.0
C976 C 1.01001 0.14677 0.80266 0.0
C977 C 0.02791 0.20632 0.7861 0.0
C978 C 0.02283 0.07696 0.74329 0.0
C979 C 0.02269 0.09434 0.75627 0.0
C980 C 0.02064 0.13778 0.6945 0.0
C981 C 0.0147 0.17803 0.78316 0.0
C982 C 0.01489 0.15975 0.76493 0.0
C983 C 0.01685 0.10641 0.71703 0.0
C984 C 0.01595 0.12485 0.73268 0.0
H985 H 0.99211 0.20488 0.86764 0.0
H986 H 0.9915 0.17577 0.8328 0.0
H987 H 0.02387 0.16458 0.67993 0.0
H988 H 1.00704 0.07913 0.60984 0.0
H989 H 1.00687 0.1095 0.63251 0.0
C990 C 0.32969 0.05169 0.82546 0.0
C991 C 0.31774 0.03861 0.81499 0.0
C992 C 0.34666 0.0503 0.80713 0.0
C993 C 0.37846 0.01799 0.75943 0.0
H994 H 0.40479 0.05798 0.71709 0.0
C995 C 0.44689 0.01449 0.66536 0.0
C996 C 0.4592 0.02479 0.69215 0.0
C997 C 0.42947 0.01641 0.67733 0.0
C998 C 0.3976 0.04671 0.729 0.0
H999 H 0.31451 0.01378 0.77631 0.0
H1000 H 0.34372 0.01167 0.74261 0.0
H1001 H 0.37465 0.06089 0.74183 0.0
H1002 H 0.46281 0.04556 0.75101 0.0
H1003 H 0.43233 0.04919 0.77075 0.0
H1004 H 0.40142 1.00383 0.74526 0.0
C1005 C 0.34014 0.02289 0.76612 0.0
C1006 C 0.38032 0.04836 0.74353 0.0
C1007 C 0.32322 0.02422 0.78481 0.0
C1008 C 0.45366 0.03732 0.7301 0.0
C1009 C 0.43621 0.03948 0.74111 0.0
C1010 C 0.39566 0.01633 0.74406 0.0
C1011 C 0.3522 0.03583 0.77743 0.0
C1012 C 0.3705 0.03405 0.75956 0.0
C1013 C 0.42394 0.02892 0.71534 0.0
C1014 C 0.40546 0.03068 0.72922 0.0
H1015 H 0.32595 0.06308 0.84776 0.0
H1016 H 0.3555 0.06049 0.81733 0.0
H1017 H 0.37156 1.00668 0.77248 0.0
H1018 H 0.45074 1.00474 0.63583 0.0
H1019 H 0.42031 1.00816 0.65655 0.0
C1020 C 0.50068 0.32683 0.78201 0.0
C1021 C 0.51321 0.32114 0.82012 0.0
C1022 C 0.50087 0.34364 0.7619 0.0
C1023 C 0.5179 0.38649 0.79877 0.0
H1024 H 0.50301 0.39862 0.64844 0.0
C1025 C 0.50421 0.4561 0.7397 0.0
C1026 C 0.51003 0.46215 0.68731 0.0
C1027 C 0.50454 0.43871 0.75244 0.0
C1028 C 0.50732 0.39544 0.69043 0.0
H1029 H 0.53625 0.3286 0.8645 0.0
H1030 H 0.53669 0.35772 0.82929 0.0
H1031 H 0.50449 0.36862 0.67576 0.0
H1032 H 0.52032 0.45442 0.6066 0.0
H1033 H 0.52083 0.424 0.62885 0.0
H1034 H 0.52101 0.41318 0.81333 0.0
C1035 C 0.52641 0.34936 0.81604 0.0
C1036 C 0.50801 0.37822 0.70636 0.0
C1037 C 0.52617 0.3326 0.83634 0.0
C1038 C 0.51578 0.45025 0.6474 0.0
C1039 C 0.516 0.43277 0.66008 0.0
C1040 C 0.51722 0.40362 0.78292 0.0
C1041 C 0.51362 0.35523 0.77917 0.0
C1042 C 0.51326 0.3735 0.76092 0.0
C1043 C 0.51063 0.42681 0.71319 0.0
C1044 C 0.51178 0.40839 0.72874 0.0
H1045 H 0.49043 0.31842 0.76879 0.0
H1046 H 0.4907 0.34766 0.73408 0.0
H1047 H 0.52179 0.38348 0.84134 0.0
H1048 H 0.49967 0.46481 0.77157 0.0
H1049 H 0.50001 0.4346 0.79336 0.0
C1050 C 0.19657 0.48106 0.8215 0.0
C1051 C 0.20821 0.49461 0.81393 0.0
C1052 C 0.17947 0.48256 0.80464 0.0
C1053 C 0.14674 0.51527 0.76813 0.0
H1054 H 0.12129 0.47617 0.71323 0.0
C1055 C 0.07855 0.52016 0.67339 0.0
C1056 C 0.06633 0.50886 0.69597 0.0
C1057 C 0.09593 0.51827 0.6858 0.0
C1058 C 0.12823 0.48718 0.72875 0.0
H1059 H 0.21074 0.52041 0.78225 0.0
H1060 H 0.18126 0.52282 0.7512 0.0
H1061 H 0.15151 0.4732 0.73699 0.0
H1062 H 0.06284 0.48637 0.74769 0.0
H1063 H 0.09331 0.48277 0.76805 0.0
H1064 H 0.12346 0.52927 0.75856 0.0
C1065 C 0.18521 0.51109 0.77118 0.0
C1066 C 0.14556 0.48548 0.74268 0.0
C1067 C 0.20227 0.50962 0.78831 0.0
C1068 C 0.07193 0.49539 0.73019 0.0
C1069 C 0.08937 0.49325 0.7415 0.0
C1070 C 0.1295 0.517 0.75344 0.0
C1071 C 0.17348 0.49764 0.77947 0.0
C1072 C 0.15507 0.49948 0.76299 0.0
C1073 C 0.10155 0.50478 0.71995 0.0
C1074 C 0.12001 0.50296 0.73397 0.0
H1075 H 0.20067 0.46922 0.84037 0.0
H1076 H 0.17088 0.47196 0.8124 0.0
H1077 H 0.15341 0.52629 0.78462 0.0
H1078 H 0.07463 0.53066 0.64681 0.0
H1079 H 0.10502 0.52728 0.66828 0.0
C1080 C 0.02082 0.82793 0.52471 0.0
C1081 C 0.01025 0.82239 0.48021 0.0
C1082 C 0.02022 0.84482 0.54396 0.0
C1083 C 1.00796 0.88793 0.49616 0.0
H1084 H 0.01097 0.90003 0.65392 0.0
C1085 C 1.00027 0.95776 0.5658 0.0
C1086 C 1.00997 0.96379 0.61143 0.0
C1087 C 0.99968 0.94036 0.55302 0.0
C1088 C 0.01033 0.89694 0.60958 0.0
H1089 H 0.99016 0.83033 0.42323 0.0
H1090 H 0.98926 0.85964 0.45623 0.0
H1091 H 0.01123 0.87008 0.62633 0.0
H1092 H 0.0265 0.95608 0.68004 0.0
H1093 H 0.02604 0.92588 0.65654 0.0
H1094 H 1.00752 0.91457 0.47878 0.0
C1095 C 0.99827 0.85101 0.47558 0.0
C1096 C 0.01043 0.8797 0.59378 0.0
C1097 C 0.99883 0.83416 0.45647 0.0
C1098 C 0.01892 0.95191 0.64443 0.0
C1099 C 0.01853 0.9345 0.63114 0.0
C1100 C 1.00802 0.90509 0.51181 0.0
C1101 C 1.0091 0.85666 0.51912 0.0
C1102 C 1.00913 0.87496 0.5368 0.0
C1103 C 1.00902 0.92844 0.58485 0.0
C1104 C 1.00908 0.90994 0.56877 0.0
H1105 H 0.0299 0.81934 0.54388 0.0
H1106 H 0.02885 0.84871 0.57725 0.0
H1107 H 1.00731 0.88483 0.45182 0.0
H1108 H 0.99298 0.96647 0.54002 0.0
H1109 H 0.99178 0.93629 0.5181 0.0
C1110 C 0.70241 1.00839 0.53175 0.0
C1111 C 0.70673 0.9992 0.48292 0.0
C1112 C 0.68552 1.00869 0.55153 0.0
C1113 C 0.64098 1.00178 0.50227 0.0
H1114 H 0.62985 1.00156 0.66127 0.0
C1115 C 0.57114 0.99654 0.57575 0.0
C1116 C 0.56589 1.00672 0.62115 0.0
C1117 C 0.58847 0.99487 0.56254 0.0
C1118 C 0.63273 1.00179 0.6167 0.0
H1119 H 0.69659 0.98254 0.41822 0.0
H1120 H 0.66728 0.98302 0.45258 0.0
H1121 H 0.65972 1.00004 0.63152 0.0
H1122 H 0.57498 0.02269 0.68946 0.0
H1123 H 0.60522 0.01996 0.66588 0.0
H1124 H 0.61415 1.00369 0.48715 0.0
C1125 C 0.67687 0.99034 0.47496 0.0
C1126 C 0.64989 1.00091 0.5996 0.0
C1127 C 0.69373 0.99006 0.45515 0.0
C1128 C 0.57852 0.01476 0.65413 0.0
C1129 C 0.59591 0.01313 0.64072 0.0
C1130 C 0.6239 1.00266 0.51928 0.0
C1131 C 0.67246 0.99982 0.52304 0.0
C1132 C 0.65425 1.0008 0.54205 0.0
C1133 C 0.6011 1.0034 0.59405 0.0
C1134 C 0.61948 1.00257 0.57669 0.0
H1135 H 0.71202 0.01571 0.55403 0.0
H1136 H 0.68263 0.01627 0.58831 0.0
H1137 H 0.64378 1.00215 0.45766 0.0
H1138 H 0.56185 0.99 0.54967 0.0
H1139 H 0.59194 0.98692 0.52718 0.0
C1140 C 0.49989 0.70546 0.5294 0.0
C1141 C 0.50989 0.71124 0.48376 0.0
C1142 C 0.50097 0.68855 0.5483 0.0
C1143 C 0.51364 0.64583 0.49803 0.0
H1144 H 0.51233 0.63317 0.65566 0.0
C1145 C 0.52428 0.57621 0.56547 0.0
C1146 C 0.51489 0.56972 0.61119 0.0
C1147 C 0.52421 0.59365 0.55311 0.0
C1148 C 0.51251 0.63643 0.61138 0.0
H1149 H 0.52953 0.70379 0.42446 0.0
H1150 H 0.53132 0.67448 0.45696 0.0
H1151 H 0.51109 0.6632 0.62898 0.0
H1152 H 0.49819 0.57663 0.6803 0.0
H1153 H 0.49758 0.60689 0.65765 0.0
H1154 H 0.51468 0.61926 0.47989 0.0
C1155 C 0.52235 0.68289 0.47741 0.0
C1156 C 0.51183 0.6537 0.5961 0.0
C1157 C 0.52128 0.69974 0.45861 0.0
C1158 C 0.50558 0.58116 0.64469 0.0
C1159 C 0.50533 0.5986 0.63189 0.0
C1160 C 0.51419 0.62864 0.51318 0.0
C1161 C 0.51205 0.67696 0.52197 0.0
C1162 C 0.51252 0.65863 0.53915 0.0
C1163 C 0.51453 0.60511 0.58557 0.0
C1164 C 0.51377 0.62362 0.57006 0.0
H1165 H 0.49089 0.71388 0.54973 0.0
H1166 H 0.49277 0.68444 0.58247 0.0
H1167 H 0.5138 0.64908 0.45372 0.0
H1168 H 0.53181 0.56784 0.53925 0.0
H1169 H 0.53185 0.59812 0.51805 0.0
C1170 C 0.8256 0.5448 0.5166 0.0
C1171 C 0.81865 0.53181 0.48261 0.0
C1172 C 0.84241 0.54376 0.53698 0.0
C1173 C 0.88358 0.52237 0.50612 0.0
H1174 H 0.89717 0.5396 0.65235 0.0
C1175 C 0.95456 0.53103 0.56383 0.0
C1176 C 0.95991 0.52563 0.61745 0.0
C1177 C 0.93717 0.5321 0.5506 0.0
C1178 C 0.89357 0.53463 0.61152 0.0
H1179 H 0.82383 0.50708 0.44617 0.0
H1180 H 0.85294 0.50523 0.48162 0.0
H1181 H 0.86703 0.54016 0.62476 0.0
H1182 H 0.95095 0.51763 0.69976 0.0
H1183 H 0.92055 0.51965 0.67676 0.0
H1184 H 0.90997 0.51664 0.49299 0.0
C1185 C 0.84559 0.51648 0.49138 0.0
C1186 C 0.87629 0.5351 0.59543 0.0
C1187 C 0.82884 0.51755 0.47091 0.0
C1188 C 0.94733 0.5218 0.65803 0.0
C1189 C 0.92988 0.52303 0.6449 0.0
C1190 C 0.90078 0.52195 0.52208 0.0
C1191 C 0.85273 0.52968 0.52403 0.0
C1192 C 0.87105 0.52899 0.54237 0.0
C1193 C 0.92457 0.52792 0.59064 0.0
C1194 C 0.90606 0.52816 0.57481 0.0
H1195 H 0.81821 0.55603 0.52631 0.0
H1196 H 0.84745 0.55425 0.56152 0.0
H1197 H 0.88017 0.51774 0.46469 0.0
H1198 H 0.96382 0.53407 0.53139 0.0
H1199 H 0.9336 0.53617 0.50868 0.0
loop_
_geom_bond_atom_site_label_1
_geom_bond_atom_site_label_2
_geom_bond_distance
_geom_bond_site_symmetry_2
_ccdc_geom_bond_type
C0 C1 1.264 . S
C0 C5 1.479 . S
C0 C10 1.465 . S
C1 C0 1.264 . S
C1 C3 1.339 . S
C1 H28 0.931 . S
C2 C3 1.395 . S
C2 C4 1.320 . S
C3 C1 1.339 . S
C3 C2 1.395 . S
C3 H29 0.929 . S
C4 C2 1.320 . S
C4 C5 1.405 . S
C4 H30 0.930 . S
C5 C0 1.479 . S
C5 C4 1.405 . S
C5 H31 0.931 . S
U6 O7 2.454 . S
U6 O8 2.458 . S
U6 C9 2.984 . S
U6 C10 2.847 . S
U6 C23 2.882 . S
U6 O24 2.441 . S
U6 O25 2.420 . S
U6 O26 2.455 . S
U6 O27 2.449 . S
O7 U6 2.454 . S
O7 C9 1.353 . S
O8 U6 2.458 . S
O8 C9 1.286 . S
C9 U6 2.984 . S
C9 O7 1.353 . S
C9 O8 1.286 . S
C9 C11 1.363 . S
C10 C0 1.465 . S
C10 U6 2.847 . S
C10 O24 1.249 . S
C10 O25 1.202 . S
C11 C9 1.363 . S
C11 C13 1.408 . S
C11 C16 1.342 . S
C12 C13 1.310 . S
C12 C15 1.461 . S
C12 H32 0.932 . S
C13 C11 1.408 . S
C13 C12 1.310 . S
C13 H33 0.930 . S
C14 C15 1.474 . S
C14 C16 1.285 . S
C14 H34 0.929 . S
C15 C12 1.461 . S
C15 C14 1.474 . S
C16 C11 1.342 . S
C16 C14 1.285 . S
C16 H35 0.930 . S
C17 C20 1.424 . S
C17 C22 1.245 . S
C17 C23 1.428 . S
C18 C21 1.260 . S
C18 C22 1.477 . S
C18 H36 0.932 . S
C19 C20 1.384 . S
C19 C21 1.479 . S
C19 H37 0.929 . S
C20 C17 1.424 . S
C20 C19 1.384 . S
C20 H38 0.928 . S
C21 C18 1.260 . S
C21 C19 1.479 . S
C22 C17 1.245 . S
C22 C18 1.477 . S
C22 H39 0.932 . S
C23 U6 2.882 . S
C23 C17 1.428 . S
C23 O26 1.301 . S
C23 O27 1.282 . S
O24 U6 2.441 . S
O24 C10 1.249 . S
O25 U6 2.420 . S
O25 C10 1.202 . S
O26 U6 2.455 . S
O26 C23 1.301 . S
O27 U6 2.449 . S
O27 C23 1.282 . S
H28 C1 0.931 . S
H29 C3 0.929 . S
H30 C4 0.930 . S
H31 C5 0.931 . S
H32 C12 0.932 . S
H33 C13 0.930 . S
H34 C14 0.929 . S
H35 C16 0.930 . S
H36 C18 0.932 . S
H37 C19 0.929 . S
H38 C20 0.928 . S
H39 C22 0.932 . S
C40 C41 1.264 . S
C40 C45 1.479 . S
C40 C50 1.465 . S
C41 C40 1.264 . S
C41 C43 1.339 . S
C41 H68 0.931 . S
C42 C43 1.395 . S
C42 C44 1.320 . S
C43 C41 1.339 . S
C43 C42 1.395 . S
C43 H69 0.929 . S
C44 C42 1.320 . S
C44 C45 1.405 . S
C44 H70 0.921 1_455 S
C45 C40 1.479 . S
C45 C44 1.405 . S
C45 H71 0.931 . S
U46 O47 2.454 . S
U46 O48 2.458 . S
U46 C49 2.984 . S
U46 C50 2.847 . S
U46 C63 2.882 . S
U46 O64 2.441 . S
U46 O65 2.420 . S
U46 O66 2.455 . S
U46 O67 2.449 . S
O47 U46 2.454 . S
O47 C49 1.353 . S
O48 U46 2.458 . S
O48 C49 1.286 . S
C49 U46 2.984 . S
C49 O47 1.353 . S
C49 O48 1.286 . S
C49 C51 1.363 . S
C50 C40 1.465 . S
C50 U46 2.847 . S
C50 O64 1.249 . S
C50 O65 1.202 . S
C51 C49 1.363 . S
C51 C53 1.408 . S
C51 C56 1.342 . S
C52 C53 1.310 . S
C52 C55 1.462 . S
C52 H72 0.932 . S
C53 C51 1.408 . S
C53 C52 1.310 . S
C53 H73 0.930 . S
C54 C55 1.474 1_655 S
C54 C56 1.286 1_655 S
C54 H74 0.929 . S
C55 C52 1.462 . S
C55 C54 1.474 1_455 S
C56 C51 1.342 . S
C56 C54 1.286 1_455 S
C56 H75 0.933 . S
C57 C60 1.424 . S
C57 C62 1.245 . S
C57 C63 1.428 . S
C58 C61 1.260 . S
C58 C62 1.477 . S
C58 H76 0.932 . S
C59 C60 1.384 . S
C59 C61 1.479 . S
C59 H77 0.929 . S
C60 C57 1.424 . S
C60 C59 1.384 . S
C60 H78 0.928 . S
C61 C58 1.260 . S
C61 C59 1.479 . S
C62 C57 1.245 . S
C62 C58 1.477 . S
C62 H79 0.932 . S
C63 U46 2.882 . S
C63 C57 1.428 . S
C63 O66 1.301 . S
C63 O67 1.282 . S
O64 U46 2.441 . S
O64 C50 1.249 . S
O65 U46 2.420 . S
O65 C50 1.202 . S
O66 U46 2.455 . S
O66 C63 1.301 . S
O67 U46 2.449 . S
O67 C63 1.282 . S
H68 C41 0.931 . S
H69 C43 0.929 . S
H70 C44 0.921 1_655 S
H71 C45 0.931 . S
H72 C52 0.932 . S
H73 C53 0.930 . S
H74 C54 0.929 . S
H75 C56 0.933 . S
H76 C58 0.932 . S
H77 C59 0.929 . S
H78 C60 0.928 . S
H79 C62 0.932 . S
C80 C81 1.264 . S
C80 C85 1.479 . S
C80 C90 1.465 . S
C81 C80 1.264 . S
C81 C83 1.339 . S
C81 H108 0.931 . S
C82 C83 1.395 . S
C82 C84 1.320 . S
C83 C81 1.339 . S
C83 C82 1.395 . S
C83 H109 0.929 . S
C84 C82 1.320 . S
C84 C85 1.405 . S
C84 H110 0.930 . S
C85 C80 1.479 . S
C85 C84 1.405 . S
C85 H111 0.931 . S
U86 O87 2.454 . S
U86 O88 2.458 . S
U86 C89 2.984 . S
U86 C90 2.847 . S
U86 C103 2.882 . S
U86 O104 2.441 . S
U86 O105 2.420 . S
U86 O106 2.455 . S
U86 O107 2.449 . S
O87 U86 2.454 . S
O87 C89 1.353 . S
O88 U86 2.458 . S
O88 C89 1.286 . S
C89 U86 2.984 . S
C89 O87 1.353 . S
C89 O88 1.286 . S
C89 C91 1.363 . S
C90 C80 1.465 . S
C90 U86 2.847 . S
C90 O104 1.249 . S
C90 O105 1.202 . S
C91 C89 1.363 . S
C91 C93 1.408 . S
C91 C96 1.342 . S
C92 C93 1.310 . S
C92 C95 1.461 . S
C92 H112 0.932 . S
C93 C91 1.408 . S
C93 C92 1.310 . S
C93 H113 0.930 . S
C94 C95 1.474 . S
C94 C96 1.285 . S
C94 H114 0.929 . S
C95 C92 1.461 . S
C95 C94 1.474 . S
C96 C91 1.342 . S
C96 C94 1.285 . S
C96 H115 0.930 . S
C97 C100 1.424 . S
C97 C102 1.245 . S
C97 C103 1.428 . S
C98 C101 1.260 . S
C98 C102 1.477 . S
C98 H116 0.932 . S
C99 C100 1.384 . S
C99 C101 1.479 . S
C99 H117 0.929 . S
C100 C97 1.424 . S
C100 C99 1.384 . S
C100 H118 0.928 . S
C101 C98 1.260 . S
C101 C99 1.479 . S
C102 C97 1.245 . S
C102 C98 1.477 . S
C102 H119 0.932 . S
C103 U86 2.882 . S
C103 C97 1.428 . S
C103 O106 1.301 . S
C103 O107 1.282 . S
O104 U86 2.441 . S
O104 C90 1.249 . S
O105 U86 2.420 . S
O105 C90 1.202 . S
O106 U86 2.455 . S
O106 C103 1.301 . S
O107 U86 2.449 . S
O107 C103 1.282 . S
H108 C81 0.931 . S
H109 C83 0.929 . S
H110 C84 0.930 . S
H111 C85 0.931 . S
H112 C92 0.932 . S
H113 C93 0.930 . S
H114 C94 0.929 . S
H115 C96 0.930 . S
H116 C98 0.932 . S
H117 C99 0.929 . S
H118 C100 0.928 . S
H119 C102 0.932 . S
C120 C121 1.264 . S
C120 C125 1.479 . S
C120 C130 1.465 . S
C121 C120 1.264 . S
C121 C123 1.339 . S
C121 H148 0.931 . S
C122 C123 1.395 . S
C122 C124 1.320 . S
C123 C121 1.339 . S
C123 C122 1.395 . S
C123 H149 0.929 . S
C124 C122 1.320 . S
C124 C125 1.405 . S
C124 H150 0.930 . S
C125 C120 1.479 . S
C125 C124 1.405 . S
C125 H151 0.931 . S
U126 O127 2.454 . S
U126 O128 2.458 . S
U126 C129 2.984 . S
U126 C130 2.847 . S
U126 C143 2.882 . S
U126 O144 2.441 . S
U126 O145 2.420 . S
U126 O146 2.455 . S
U126 O147 2.449 . S
O127 U126 2.454 . S
O127 C129 1.353 . S
O128 U126 2.458 . S
O128 C129 1.286 . S
C129 U126 2.984 . S
C129 O127 1.353 . S
C129 O128 1.286 . S
C129 C131 1.363 . S
C130 C120 1.465 . S
C130 U126 2.847 . S
C130 O144 1.249 . S
C130 O145 1.202 . S
C131 C129 1.363 . S
C131 C133 1.408 . S
C131 C136 1.342 . S
C132 C133 1.310 . S
C132 C135 1.461 . S
C132 H152 0.932 . S
C133 C131 1.408 . S
C133 C132 1.310 . S
C133 H153 0.930 . S
C134 C135 1.474 . S
C134 C136 1.285 . S
C134 H154 0.929 . S
C135 C132 1.461 . S
C135 C134 1.474 . S
C136 C131 1.342 . S
C136 C134 1.285 . S
C136 H155 0.930 . S
C137 C140 1.424 . S
C137 C142 1.245 . S
C137 C143 1.428 . S
C138 C141 1.260 . S
C138 C142 1.477 . S
C138 H156 0.932 . S
C139 C140 1.384 . S
C139 C141 1.479 . S
C139 H157 0.929 . S
C140 C137 1.424 . S
C140 C139 1.384 . S
C140 H158 0.928 . S
C141 C138 1.260 . S
C141 C139 1.479 . S
C142 C137 1.245 . S
C142 C138 1.477 . S
C142 H159 0.932 . S
C143 U126 2.882 . S
C143 C137 1.428 . S
C143 O146 1.301 . S
C143 O147 1.282 . S
O144 U126 2.441 . S
O144 C130 1.249 . S
O145 U126 2.420 . S
O145 C130 1.202 . S
O146 U126 2.455 . S
O146 C143 1.301 . S
O147 U126 2.449 . S
O147 C143 1.282 . S
H148 C121 0.931 . S
H149 C123 0.929 . S
H150 C124 0.930 . S
H151 C125 0.931 . S
H152 C132 0.932 . S
H153 C133 0.930 . S
H154 C134 0.929 . S
H155 C136 0.930 . S
H156 C138 0.932 . S
H157 C139 0.929 . S
H158 C140 0.928 . S
H159 C142 0.932 . S
C160 C161 1.264 . S
C160 C165 1.479 . S
C160 C170 1.465 . S
C161 C160 1.264 . S
C161 C163 1.339 . S
C161 H188 0.931 . S
C162 C163 1.395 . S
C162 C164 1.320 . S
C163 C161 1.339 . S
C163 C162 1.395 . S
C163 H189 0.929 . S
C164 C162 1.320 . S
C164 C165 1.405 . S
C164 H190 0.930 . S
C165 C160 1.479 . S
C165 C164 1.405 . S
C165 H191 0.931 . S
U166 O167 2.454 . S
U166 O168 2.458 . S
U166 C169 2.984 . S
U166 C170 2.847 1_554 S
U166 C183 2.882 . S
U166 O184 2.441 1_554 S
U166 O185 2.420 1_554 S
U166 O186 2.455 . S
U166 O187 2.449 . S
O167 U166 2.454 . S
O167 C169 1.353 . S
O168 U166 2.458 . S
O168 C169 1.286 . S
C169 U166 2.984 . S
C169 O167 1.353 . S
C169 O168 1.286 . S
C169 C171 1.363 . S
C170 C160 1.465 . S
C170 U166 2.847 1_556 S
C170 O184 1.249 . S
C170 O185 1.202 . S
C171 C169 1.363 . S
C171 C173 1.408 . S
C171 C176 1.342 . S
C172 C173 1.310 . S
C172 C175 1.461 . S
C172 H192 0.932 . S
C173 C171 1.408 . S
C173 C172 1.310 . S
C173 H193 0.930 1_554 S
C174 C175 1.474 . S
C174 C176 1.285 . S
C174 H194 0.929 . S
C175 C172 1.461 . S
C175 C174 1.474 . S
C176 C171 1.342 . S
C176 C174 1.285 . S
C176 H195 0.930 . S
C177 C180 1.424 . S
C177 C182 1.245 . S
C177 C183 1.428 . S
C178 C181 1.260 . S
C178 C182 1.477 . S
C178 H196 0.932 . S
C179 C180 1.384 . S
C179 C181 1.479 . S
C179 H197 0.929 . S
C180 C177 1.424 . S
C180 C179 1.384 . S
C180 H198 0.928 . S
C181 C178 1.260 . S
C181 C179 1.479 . S
C182 C177 1.245 . S
C182 C178 1.477 . S
C182 H199 0.932 . S
C183 U166 2.882 . S
C183 C177 1.428 . S
C183 O186 1.301 . S
C183 O187 1.282 . S
O184 U166 2.441 1_556 S
O184 C170 1.249 . S
O185 U166 2.420 1_556 S
O185 C170 1.202 . S
O186 U166 2.455 . S
O186 C183 1.301 . S
O187 U166 2.449 . S
O187 C183 1.282 . S
H188 C161 0.931 . S
H189 C163 0.929 . S
H190 C164 0.930 . S
H191 C165 0.931 . S
H192 C172 0.932 . S
H193 C173 0.930 1_556 S
H194 C174 0.929 . S
H195 C176 0.930 . S
H196 C178 0.932 . S
H197 C179 0.929 . S
H198 C180 0.928 . S
H199 C182 0.932 . S
C200 C201 1.264 . S
C200 C205 1.479 . S
C200 C210 1.465 . S
C201 C200 1.264 . S
C201 C203 1.339 . S
C201 H228 0.931 . S
C202 C203 1.395 . S
C202 C204 1.320 . S
C203 C201 1.339 . S
C203 C202 1.395 . S
C203 H229 0.929 . S
C204 C202 1.320 . S
C204 C205 1.405 . S
C204 H230 0.931 . S
C205 C200 1.479 . S
C205 C204 1.405 . S
C205 H231 0.931 . S
U206 O207 2.454 . S
U206 O208 2.458 . S
U206 C209 2.984 . S
U206 C210 2.847 1_554 S
U206 C223 2.882 . S
U206 O224 2.441 1_554 S
U206 O225 2.420 1_554 S
U206 O226 2.455 . S
U206 O227 2.449 . S
O207 U206 2.454 . S
O207 C209 1.353 . S
O208 U206 2.458 . S
O208 C209 1.286 . S
C209 U206 2.984 . S
C209 O207 1.353 . S
C209 O208 1.286 . S
C209 C211 1.363 . S
C210 C200 1.465 . S
C210 U206 2.847 1_556 S
C210 O224 1.249 . S
C210 O225 1.202 . S
C211 C209 1.363 . S
C211 C213 1.408 . S
C211 C216 1.342 . S
C212 C213 1.310 . S
C212 C215 1.461 . S
C212 H232 0.932 . S
C213 C211 1.408 . S
C213 C212 1.310 . S
C213 H233 0.930 1_554 S
C214 C215 1.476 . S
C214 C216 1.291 . S
C214 H234 0.925 1_455 S
C215 C212 1.461 . S
C215 C214 1.476 . S
C216 C211 1.342 . S
C216 C214 1.291 . S
C216 H235 0.930 . S
C217 C220 1.424 . S
C217 C222 1.245 . S
C217 C223 1.428 . S
C218 C221 1.260 . S
C218 C222 1.477 . S
C218 H236 0.932 . S
C219 C220 1.384 . S
C219 C221 1.479 . S
C219 H237 0.929 . S
C220 C217 1.424 . S
C220 C219 1.384 . S
C220 H238 0.928 . S
C221 C218 1.260 . S
C221 C219 1.479 . S
C222 C217 1.245 . S
C222 C218 1.477 . S
C222 H239 0.932 . S
C223 U206 2.882 . S
C223 C217 1.428 . S
C223 O226 1.301 . S
C223 O227 1.282 . S
O224 U206 2.441 1_556 S
O224 C210 1.249 . S
O225 U206 2.420 1_556 S
O225 C210 1.202 . S
O226 U206 2.455 . S
O226 C223 1.301 . S
O227 U206 2.449 . S
O227 C223 1.282 . S
H228 C201 0.931 . S
H229 C203 0.929 . S
H230 C204 0.931 . S
H231 C205 0.931 . S
H232 C212 0.932 . S
H233 C213 0.930 1_556 S
H234 C214 0.925 1_655 S
H235 C216 0.930 . S
H236 C218 0.932 . S
H237 C219 0.929 . S
H238 C220 0.928 . S
H239 C222 0.932 . S
C240 C241 1.264 . S
C240 C245 1.479 . S
C240 C250 1.465 . S
C241 C240 1.264 . S
C241 C243 1.339 . S
C241 H268 0.931 . S
C242 C243 1.395 . S
C242 C244 1.320 . S
C243 C241 1.339 . S
C243 C242 1.395 . S
C243 H269 0.929 . S
C244 C242 1.320 . S
C244 C245 1.405 . S
C244 H270 0.930 . S
C245 C240 1.479 . S
C245 C244 1.405 . S
C245 H271 0.931 . S
U246 O247 2.454 . S
U246 O248 2.458 . S
U246 C249 2.984 . S
U246 C250 2.847 1_554 S
U246 C263 2.882 . S
U246 O264 2.441 1_554 S
U246 O265 2.420 1_554 S
U246 O266 2.455 . S
U246 O267 2.449 . S
O247 U246 2.454 . S
O247 C249 1.353 . S
O248 U246 2.458 . S
O248 C249 1.286 . S
C249 U246 2.984 . S
C249 O247 1.353 . S
C249 O248 1.286 . S
C249 C251 1.363 . S
C250 C240 1.465 . S
C250 U246 2.847 1_556 S
C250 O264 1.249 . S
C250 O265 1.202 . S
C251 C249 1.363 . S
C251 C253 1.408 . S
C251 C256 1.342 . S
C252 C253 1.310 . S
C252 C255 1.461 . S
C252 H272 0.932 . S
C253 C251 1.408 . S
C253 C252 1.310 . S
C253 H273 0.930 1_554 S
C254 C255 1.474 . S
C254 C256 1.285 . S
C254 H274 0.929 . S
C255 C252 1.461 . S
C255 C254 1.474 . S
C256 C251 1.342 . S
C256 C254 1.285 . S
C256 H275 0.930 . S
C257 C260 1.424 . S
C257 C262 1.245 . S
C257 C263 1.428 . S
C258 C261 1.260 . S
C258 C262 1.477 . S
C258 H276 0.932 . S
C259 C260 1.384 . S
C259 C261 1.479 . S
C259 H277 0.929 . S
C260 C257 1.424 . S
C260 C259 1.384 . S
C260 H278 0.928 . S
C261 C258 1.260 . S
C261 C259 1.479 . S
C262 C257 1.245 . S
C262 C258 1.477 . S
C262 H279 0.932 . S
C263 U246 2.882 . S
C263 C257 1.428 . S
C263 O266 1.301 . S
C263 O267 1.282 . S
O264 U246 2.441 1_556 S
O264 C250 1.249 . S
O265 U246 2.420 1_556 S
O265 C250 1.202 . S
O266 U246 2.455 . S
O266 C263 1.301 . S
O267 U246 2.449 . S
O267 C263 1.282 . S
H268 C241 0.931 . S
H269 C243 0.929 . S
H270 C244 0.930 . S
H271 C245 0.931 . S
H272 C252 0.932 . S
H273 C253 0.930 1_556 S
H274 C254 0.929 . S
H275 C256 0.930 . S
H276 C258 0.932 . S
H277 C259 0.929 . S
H278 C260 0.928 . S
H279 C262 0.932 . S
C280 C281 1.264 . S
C280 C285 1.479 . S
C280 C290 1.465 . S
C281 C280 1.264 . S
C281 C283 1.339 . S
C281 H308 0.931 . S
C282 C283 1.395 . S
C282 C284 1.320 . S
C283 C281 1.339 . S
C283 C282 1.395 . S
C283 H309 0.929 . S
C284 C282 1.320 . S
C284 C285 1.405 . S
C284 H310 0.930 . S
C285 C280 1.479 . S
C285 C284 1.405 . S
C285 H311 0.931 . S
U286 O287 2.454 . S
U286 O288 2.458 . S
U286 C289 2.984 . S
U286 C290 2.847 1_554 S
U286 C303 2.882 . S
U286 O304 2.441 1_554 S
U286 O305 2.420 1_554 S
U286 O306 2.455 . S
U286 O307 2.449 . S
O287 U286 2.454 . S
O287 C289 1.353 . S
O288 U286 2.458 . S
O288 C289 1.286 . S
C289 U286 2.984 . S
C289 O287 1.353 . S
C289 O288 1.286 . S
C289 C291 1.363 . S
C290 C280 1.465 . S
C290 U286 2.847 1_556 S
C290 O304 1.249 . S
C290 O305 1.202 . S
C291 C289 1.363 . S
C291 C293 1.408 . S
C291 C296 1.342 . S
C292 C293 1.310 . S
C292 C295 1.461 . S
C292 H312 0.932 . S
C293 C291 1.408 . S
C293 C292 1.310 . S
C293 H313 0.930 1_554 S
C294 C295 1.474 . S
C294 C296 1.285 . S
C294 H314 0.929 . S
C295 C292 1.461 . S
C295 C294 1.474 . S
C296 C291 1.342 . S
C296 C294 1.285 . S
C296 H315 0.930 . S
C297 C300 1.424 . S
C297 C302 1.245 . S
C297 C303 1.428 . S
C298 C301 1.260 . S
C298 C302 1.477 . S
C298 H316 0.932 . S
C299 C300 1.384 . S
C299 C301 1.479 . S
C299 H317 0.929 . S
C300 C297 1.424 . S
C300 C299 1.384 . S
C300 H318 0.928 . S
C301 C298 1.260 . S
C301 C299 1.479 . S
C302 C297 1.245 . S
C302 C298 1.477 . S
C302 H319 0.932 . S
C303 U286 2.882 . S
C303 C297 1.428 . S
C303 O306 1.301 . S
C303 O307 1.282 . S
O304 U286 2.441 1_556 S
O304 C290 1.249 . S
O305 U286 2.420 1_556 S
O305 C290 1.202 . S
O306 U286 2.455 . S
O306 C303 1.301 . S
O307 U286 2.449 . S
O307 C303 1.282 . S
H308 C281 0.931 . S
H309 C283 0.929 . S
H310 C284 0.930 . S
H311 C285 0.931 . S
H312 C292 0.932 . S
H313 C293 0.930 1_556 S
H314 C294 0.929 . S
H315 C296 0.930 . S
H316 C298 0.932 . S
H317 C299 0.929 . S
H318 C300 0.928 . S
H319 C302 0.932 . S
Gd320 C323 2.818 . S
Gd320 O340 2.377 . S
Gd320 O342 2.448 . S
Gd320 O343 2.506 . S
Gd320 O344 2.433 1_565 S
Gd320 O345 2.717 1_565 S
Gd320 O347 2.395 1_565 S
Gd320 O351 2.327 1_465 S
Gd321 C332 2.818 . S
Gd321 O341 2.395 1_545 S
Gd321 O345 2.327 1_655 S
Gd321 O346 2.377 . S
Gd321 O348 2.448 . S
Gd321 O349 2.508 . S
Gd321 O350 2.435 . S
Gd321 O351 2.717 . S
C322 O340 1.240 1_655 S
C322 O341 1.240 . S
C323 Gd320 2.818 . S
C323 C324 1.510 . S
C323 O342 1.249 . S
C323 O343 1.252 . S
C324 C323 1.510 . S
C324 C325 1.404 . S
C324 C326 1.352 . S
C325 C324 1.404 . S
C325 C329 1.389 . S
C325 H352 0.930 . S
C326 C324 1.352 . S
C326 C328 1.374 . S
C326 H353 0.931 1_455 S
C327 C328 1.359 . S
C327 C329 1.364 . S
C328 C326 1.374 . S
C328 C327 1.359 . S
C328 H354 0.931 1_455 S
C329 C325 1.389 . S
C329 C327 1.364 . S
C329 H355 0.931 . S
C330 O344 1.276 . S
C330 O345 1.257 . S
C331 O346 1.240 1_455 S
C331 O347 1.240 . S
C332 Gd321 2.818 . S
C332 C333 1.510 . S
C332 O348 1.249 . S
C332 O349 1.257 . S
C333 C332 1.510 . S
C333 C334 1.404 . S
C333 C335 1.352 . S
C334 C333 1.404 . S
C334 C338 1.389 . S
C334 H356 0.930 . S
C335 C333 1.352 . S
C335 C337 1.374 . S
C335 H357 0.931 1_655 S
C336 C337 1.359 . S
C336 C338 1.364 . S
C337 C335 1.374 . S
C337 C336 1.359 . S
C337 H358 0.931 1_655 S
C338 C334 1.389 . S
C338 C336 1.364 . S
C338 H359 0.931 . S
C339 O350 1.256 . S
C339 O351 1.257 . S
O340 Gd320 2.377 . S
O340 C322 1.240 1_455 S
O341 Gd321 2.395 1_565 S
O341 C322 1.240 . S
O342 Gd320 2.448 . S
O342 C323 1.249 . S
O343 Gd320 2.506 . S
O343 C323 1.252 . S
O344 Gd320 2.433 1_545 S
O344 C330 1.276 . S
O345 Gd320 2.717 1_545 S
O345 Gd321 2.327 1_455 S
O345 C330 1.257 . S
O346 Gd321 2.377 . S
O346 C331 1.240 1_655 S
O347 Gd320 2.395 1_545 S
O347 C331 1.240 . S
O348 Gd321 2.448 . S
O348 C332 1.249 . S
O349 Gd321 2.508 . S
O349 C332 1.257 . S
O350 Gd321 2.435 . S
O350 C339 1.256 . S
O351 Gd320 2.327 1_645 S
O351 Gd321 2.717 . S
O351 C339 1.257 . S
H352 C325 0.930 . S
H353 C326 0.931 1_655 S
H354 C328 0.931 1_655 S
H355 C329 0.931 . S
H356 C334 0.930 . S
H357 C335 0.931 1_455 S
H358 C337 0.931 1_455 S
H359 C338 0.931 . S
Gd360 C363 2.818 . S
Gd360 O380 2.377 . S
Gd360 O382 2.448 . S
Gd360 O383 2.506 . S
Gd360 O384 2.435 . S
Gd360 O385 2.717 . S
Gd360 O387 2.395 . S
Gd360 O391 2.327 1_545 S
Gd361 C372 2.818 . S
Gd361 O381 2.395 . S
Gd361 O385 2.327 1_565 S
Gd361 O386 2.377 1_565 S
Gd361 O388 2.448 . S
Gd361 O389 2.506 1_565 S
Gd361 O390 2.435 . S
Gd361 O391 2.717 . S
C362 O380 1.209 1_565 S
C362 O381 1.259 . S
C363 Gd360 2.818 . S
C363 C364 1.510 . S
C363 O382 1.249 . S
C363 O383 1.252 . S
C364 C363 1.510 . S
C364 C365 1.404 . S
C364 C366 1.352 . S
C365 C364 1.404 . S
C365 C369 1.389 . S
C365 H392 0.930 . S
C366 C364 1.352 . S
C366 C368 1.374 . S
C366 H393 0.931 1_545 S
C367 C368 1.359 . S
C367 C369 1.364 . S
C368 C366 1.374 . S
C368 C367 1.359 . S
C368 H394 0.931 1_545 S
C369 C365 1.389 . S
C369 C367 1.364 . S
C369 H395 0.931 . S
C370 O384 1.256 . S
C370 O385 1.257 . S
C371 O386 1.240 . S
C371 O387 1.240 . S
C372 Gd361 2.818 . S
C372 C373 1.510 . S
C372 O388 1.249 . S
C372 O389 1.252 1_565 S
C373 C372 1.510 . S
C373 C374 1.404 . S
C373 C375 1.352 1_565 S
C374 C373 1.404 . S
C374 C378 1.389 . S
C374 H396 0.930 . S
C375 C373 1.352 1_545 S
C375 C377 1.374 . S
C375 H397 0.931 . S
C376 C377 1.359 1_565 S
C376 C378 1.364 . S
C377 C375 1.374 . S
C377 C376 1.359 1_545 S
C377 H398 0.931 . S
C378 C374 1.389 . S
C378 C376 1.364 . S
C378 H399 0.931 . S
C379 O390 1.256 . S
C379 O391 1.257 . S
O380 Gd360 2.377 . S
O380 C362 1.209 1_545 S
O381 Gd361 2.395 . S
O381 C362 1.259 . S
O382 Gd360 2.448 . S
O382 C363 1.249 . S
O383 Gd360 2.506 . S
O383 C363 1.252 . S
O384 Gd360 2.435 . S
O384 C370 1.256 . S
O385 Gd360 2.717 . S
O385 Gd361 2.327 1_545 S
O385 C370 1.257 . S
O386 Gd361 2.377 1_545 S
O386 C371 1.240 . S
O387 Gd360 2.395 . S
O387 C371 1.240 . S
O388 Gd361 2.448 . S
O388 C372 1.249 . S
O389 Gd361 2.506 1_545 S
O389 C372 1.252 1_545 S
O390 Gd361 2.435 . S
O390 C379 1.256 . S
O391 Gd360 2.327 1_565 S
O391 Gd361 2.717 . S
O391 C379 1.257 . S
H392 C365 0.930 . S
H393 C366 0.931 1_565 S
H394 C368 0.931 1_565 S
H395 C369 0.931 . S
H396 C374 0.930 . S
H397 C375 0.931 . S
H398 C377 0.931 . S
H399 C378 0.931 . S
Gd400 C403 2.818 . S
Gd400 O420 2.377 . S
Gd400 O422 2.448 . S
Gd400 O423 2.506 . S
Gd400 O424 2.435 . S
Gd400 O425 2.717 . S
Gd400 O427 2.395 . S
Gd400 O431 2.327 . S
Gd401 C412 2.818 . S
Gd401 O421 2.395 . S
Gd401 O425 2.327 . S
Gd401 O426 2.377 . S
Gd401 O428 2.448 . S
Gd401 O429 2.506 . S
Gd401 O430 2.435 . S
Gd401 O431 2.717 . S
C402 O420 1.240 . S
C402 O421 1.240 . S
C403 Gd400 2.818 . S
C403 C404 1.510 . S
C403 O422 1.249 . S
C403 O423 1.252 . S
C404 C403 1.510 . S
C404 C405 1.404 . S
C404 C406 1.352 . S
C405 C404 1.404 . S
C405 C409 1.389 . S
C405 H432 0.930 . S
C406 C404 1.352 . S
C406 C408 1.374 . S
C406 H433 0.931 . S
C407 C408 1.359 . S
C407 C409 1.364 . S
C408 C406 1.374 . S
C408 C407 1.359 . S
C408 H434 0.931 . S
C409 C405 1.389 . S
C409 C407 1.364 . S
C409 H435 0.931 . S
C410 O424 1.256 . S
C410 O425 1.257 . S
C411 O426 1.240 . S
C411 O427 1.240 . S
C412 Gd401 2.818 . S
C412 C413 1.510 . S
C412 O428 1.249 . S
C412 O429 1.252 . S
C413 C412 1.510 . S
C413 C414 1.404 . S
C413 C415 1.352 . S
C414 C413 1.404 . S
C414 C418 1.389 . S
C414 H436 0.930 . S
C415 C413 1.352 . S
C415 C417 1.374 . S
C415 H437 0.931 . S
C416 C417 1.359 . S
C416 C418 1.364 . S
C417 C415 1.374 . S
C417 C416 1.359 . S
C417 H438 0.931 . S
C418 C414 1.389 . S
C418 C416 1.364 . S
C418 H439 0.931 . S
C419 O430 1.256 . S
C419 O431 1.257 . S
O420 Gd400 2.377 . S
O420 C402 1.240 . S
O421 Gd401 2.395 . S
O421 C402 1.240 . S
O422 Gd400 2.448 . S
O422 C403 1.249 . S
O423 Gd400 2.506 . S
O423 C403 1.252 . S
O424 Gd400 2.435 . S
O424 C410 1.256 . S
O425 Gd400 2.717 . S
O425 Gd401 2.327 . S
O425 C410 1.257 . S
O426 Gd401 2.377 . S
O426 C411 1.240 . S
O427 Gd400 2.395 . S
O427 C411 1.240 . S
O428 Gd401 2.448 . S
O428 C412 1.249 . S
O429 Gd401 2.506 . S
O429 C412 1.252 . S
O430 Gd401 2.435 . S
O430 C419 1.256 . S
O431 Gd400 2.327 . S
O431 Gd401 2.717 . S
O431 C419 1.257 . S
H432 C405 0.930 . S
H433 C406 0.931 . S
H434 C408 0.931 . S
H435 C409 0.931 . S
H436 C414 0.930 . S
H437 C415 0.931 . S
H438 C417 0.931 . S
H439 C418 0.931 . S
Gd440 C443 2.818 . S
Gd440 O460 2.377 . S
Gd440 O462 2.448 . S
Gd440 O463 2.506 . S
Gd440 O464 2.435 . S
Gd440 O465 2.717 1_655 S
Gd440 O467 2.395 1_655 S
Gd440 O471 2.342 . S
Gd441 C452 2.818 . S
Gd441 O461 2.395 1_455 S
Gd441 O465 2.327 . S
Gd441 O466 2.377 . S
Gd441 O468 2.448 . S
Gd441 O469 2.506 . S
Gd441 O470 2.435 . S
Gd441 O471 2.694 1_455 S
C442 O460 1.240 . S
C442 O461 1.240 . S
C443 Gd440 2.818 . S
C443 C444 1.510 . S
C443 O462 1.249 . S
C443 O463 1.252 . S
C444 C443 1.510 . S
C444 C445 1.404 . S
C444 C446 1.352 . S
C445 C444 1.404 . S
C445 C449 1.389 . S
C445 H472 0.930 . S
C446 C444 1.352 . S
C446 C448 1.374 . S
C446 H473 0.931 . S
C447 C448 1.359 . S
C447 C449 1.364 . S
C448 C446 1.374 . S
C448 C447 1.359 . S
C448 H474 0.931 . S
C449 C445 1.389 . S
C449 C447 1.364 . S
C449 H475 0.931 . S
C450 O464 1.238 1_455 S
C450 O465 1.269 . S
C451 O466 1.240 . S
C451 O467 1.240 . S
C452 Gd441 2.818 . S
C452 C453 1.510 . S
C452 O468 1.249 . S
C452 O469 1.252 . S
C453 C452 1.510 . S
C453 C454 1.404 . S
C453 C455 1.352 . S
C454 C453 1.404 . S
C454 C458 1.389 . S
C454 H476 0.930 . S
C455 C453 1.352 . S
C455 C457 1.374 . S
C455 H477 0.931 . S
C456 C457 1.359 . S
C456 C458 1.364 . S
C457 C455 1.374 . S
C457 C456 1.359 . S
C457 H478 0.931 . S
C458 C454 1.389 . S
C458 C456 1.364 . S
C458 H479 0.931 . S
C459 O470 1.256 . S
C459 O471 1.239 1_455 S
O460 Gd440 2.377 . S
O460 C442 1.240 . S
O461 Gd441 2.395 1_655 S
O461 C442 1.240 . S
O462 Gd440 2.448 . S
O462 C443 1.249 . S
O463 Gd440 2.506 . S
O463 C443 1.252 . S
O464 Gd440 2.435 . S
O464 C450 1.238 1_655 S
O465 Gd440 2.717 1_455 S
O465 Gd441 2.327 . S
O465 C450 1.269 . S
O466 Gd441 2.377 . S
O466 C451 1.240 . S
O467 Gd440 2.395 1_455 S
O467 C451 1.240 . S
O468 Gd441 2.448 . S
O468 C452 1.249 . S
O469 Gd441 2.506 . S
O469 C452 1.252 . S
O470 Gd441 2.435 . S
O470 C459 1.256 . S
O471 Gd440 2.342 . S
O471 Gd441 2.694 1_655 S
O471 C459 1.239 1_655 S
H472 C445 0.930 . S
H473 C446 0.931 . S
H474 C448 0.931 . S
H475 C449 0.931 . S
H476 C454 0.930 . S
H477 C455 0.931 . S
H478 C457 0.931 . S
H479 C458 0.931 . S
C480 C481 1.349 . S
C480 C482 1.327 . S
C480 H505 0.950 . S
C481 C480 1.349 . S
C481 C497 1.349 . S
C482 C480 1.327 . S
C482 C501 1.429 . S
C482 H506 0.950 . S
C483 C500 1.574 . S
C483 C502 1.368 . S
C483 H507 0.949 . S
H484 C488 0.949 . S
C485 C486 1.349 . S
C485 C487 1.327 . S
C485 H508 0.950 1_545 S
C486 C485 1.349 . S
C486 C498 1.349 . S
C487 C485 1.327 . S
C487 C503 1.429 . S
C487 H509 0.950 1_545 S
C488 H484 0.949 . S
C488 C496 1.574 . S
C488 C504 1.368 . S
H489 C497 0.950 . S
H490 C495 0.950 . S
H491 C496 0.949 . S
H492 C498 0.950 . S
H493 C499 0.950 . S
H494 C500 0.949 1_565 S
C495 H490 0.950 . S
C495 C497 1.327 . S
C495 C501 1.429 . S
C496 C488 1.574 . S
C496 H491 0.949 . S
C496 C502 1.368 . S
C497 C481 1.349 . S
C497 H489 0.950 . S
C497 C495 1.327 . S
C498 C486 1.349 . S
C498 H492 0.950 . S
C498 C499 1.327 . S
C499 H493 0.950 . S
C499 C498 1.327 . S
C499 C503 1.429 . S
C500 C483 1.574 . S
C500 H494 0.949 1_545 S
C500 C504 1.368 . S
C501 C482 1.429 . S
C501 C495 1.429 . S
C501 C502 1.523 . S
C502 C483 1.368 . S
C502 C496 1.368 . S
C502 C501 1.523 . S
C503 C487 1.429 . S
C503 C499 1.429 . S
C503 C504 1.523 . S
C504 C488 1.368 . S
C504 C500 1.368 . S
C504 C503 1.523 . S
H505 C480 0.950 . S
H506 C482 0.950 . S
H507 C483 0.949 . S
H508 C485 0.950 1_565 S
H509 C487 0.950 1_565 S
C510 C511 1.349 . S
C510 C512 1.327 . S
C510 H535 0.950 . S
C511 C510 1.349 . S
C511 C527 1.349 . S
C512 C510 1.327 . S
C512 C531 1.429 . S
C512 H536 0.950 . S
C513 C530 1.574 . S
C513 C532 1.368 . S
C513 H537 0.949 . S
H514 C518 0.949 . S
C515 C516 1.349 . S
C515 C517 1.327 . S
C515 H538 0.950 . S
C516 C515 1.349 . S
C516 C528 1.349 . S
C517 C515 1.327 . S
C517 C533 1.429 . S
C517 H539 0.950 . S
C518 H514 0.949 . S
C518 C526 1.574 . S
C518 C534 1.368 . S
H519 C527 0.950 . S
H520 C525 0.950 . S
H521 C526 0.949 . S
H522 C528 0.950 . S
H523 C529 0.950 . S
H524 C530 0.949 . S
C525 H520 0.950 . S
C525 C527 1.327 . S
C525 C531 1.429 . S
C526 C518 1.574 . S
C526 H521 0.949 . S
C526 C532 1.368 . S
C527 C511 1.349 . S
C527 H519 0.950 . S
C527 C525 1.327 . S
C528 C516 1.349 . S
C528 H522 0.950 . S
C528 C529 1.327 . S
C529 H523 0.950 . S
C529 C528 1.327 . S
C529 C533 1.429 . S
C530 C513 1.574 . S
C530 H524 0.949 . S
C530 C534 1.368 . S
C531 C512 1.429 . S
C531 C525 1.429 . S
C531 C532 1.523 . S
C532 C513 1.368 . S
C532 C526 1.368 . S
C532 C531 1.523 . S
C533 C517 1.429 . S
C533 C529 1.429 . S
C533 C534 1.523 . S
C534 C518 1.368 . S
C534 C530 1.368 . S
C534 C533 1.523 . S
H535 C510 0.950 . S
H536 C512 0.950 . S
H537 C513 0.949 . S
H538 C515 0.950 . S
H539 C517 0.950 . S
C540 C541 1.349 . S
C540 C542 1.327 . S
C540 H565 0.950 . S
C541 C540 1.349 . S
C541 C557 1.349 . S
C542 C540 1.327 . S
C542 C561 1.429 . S
C542 H566 0.950 . S
C543 C560 1.574 . S
C543 C562 1.368 . S
C543 H567 0.949 . S
H544 C548 0.949 . S
C545 C546 1.349 . S
C545 C547 1.327 . S
C545 H568 0.950 . S
C546 C545 1.349 . S
C546 C558 1.349 . S
C547 C545 1.327 . S
C547 C563 1.429 . S
C547 H569 0.950 . S
C548 H544 0.949 . S
C548 C556 1.574 . S
C548 C564 1.368 . S
H549 C557 0.950 . S
H550 C555 0.950 . S
H551 C556 0.949 . S
H552 C558 0.950 . S
H553 C559 0.950 . S
H554 C560 0.949 . S
C555 H550 0.950 . S
C555 C557 1.327 . S
C555 C561 1.429 . S
C556 C548 1.574 . S
C556 H551 0.949 . S
C556 C562 1.368 . S
C557 C541 1.349 . S
C557 H549 0.950 . S
C557 C555 1.327 . S
C558 C546 1.349 . S
C558 H552 0.950 . S
C558 C559 1.327 . S
C559 H553 0.950 . S
C559 C558 1.327 . S
C559 C563 1.429 . S
C560 C543 1.574 . S
C560 H554 0.949 . S
C560 C564 1.368 . S
C561 C542 1.429 . S
C561 C555 1.429 . S
C561 C562 1.523 . S
C562 C543 1.368 . S
C562 C556 1.368 . S
C562 C561 1.523 . S
C563 C547 1.429 . S
C563 C559 1.429 . S
C563 C564 1.523 . S
C564 C548 1.368 . S
C564 C560 1.368 . S
C564 C563 1.523 . S
H565 C540 0.950 . S
H566 C542 0.950 . S
H567 C543 0.949 . S
H568 C545 0.950 . S
H569 C547 0.950 . S
C570 C571 1.349 . S
C570 C572 1.327 . S
C570 H595 0.950 . S
C571 C570 1.349 . S
C571 C587 1.349 1_455 S
C572 C570 1.327 . S
C572 C591 1.429 . S
C572 H596 0.950 . S
C573 C590 1.574 . S
C573 C592 1.368 1_655 S
C573 H597 0.949 . S
H574 C578 0.949 . S
C575 C576 1.349 1_655 S
C575 C577 1.327 . S
C575 H598 0.950 . S
C576 C575 1.349 1_455 S
C576 C588 1.349 . S
C577 C575 1.327 . S
C577 C593 1.429 1_655 S
C577 H599 0.950 . S
C578 H574 0.949 . S
C578 C586 1.574 . S
C578 C594 1.368 . S
H579 C587 0.950 . S
H580 C585 0.950 . S
H581 C586 0.949 . S
H582 C588 0.950 . S
H583 C589 0.950 . S
H584 C590 0.949 . S
C585 H580 0.950 . S
C585 C587 1.327 . S
C585 C591 1.429 1_655 S
C586 C578 1.574 . S
C586 H581 0.949 . S
C586 C592 1.368 . S
C587 C571 1.349 1_655 S
C587 H579 0.950 . S
C587 C585 1.327 . S
C588 C576 1.349 . S
C588 H582 0.950 . S
C588 C589 1.327 . S
C589 H583 0.950 . S
C589 C588 1.327 . S
C589 C593 1.429 . S
C590 C573 1.574 . S
C590 H584 0.949 . S
C590 C594 1.368 1_655 S
C591 C572 1.429 . S
C591 C585 1.429 1_455 S
C591 C592 1.523 . S
C592 C573 1.368 1_455 S
C592 C586 1.368 . S
C592 C591 1.523 . S
C593 C577 1.429 1_455 S
C593 C589 1.429 . S
C593 C594 1.523 . S
C594 C578 1.368 . S
C594 C590 1.368 1_455 S
C594 C593 1.523 . S
H595 C570 0.950 . S
H596 C572 0.950 . S
H597 C573 0.949 . S
H598 C575 0.950 . S
H599 C577 0.950 . S
C600 C601 1.392 . S
C600 C602 1.321 1_565 S
C600 H625 0.915 1_565 S
C601 C600 1.392 . S
C601 C617 1.349 . S
C602 C600 1.321 1_545 S
C602 C621 1.429 1_545 S
C602 H626 0.950 . S
C603 C620 1.574 . S
C603 C622 1.368 . S
C603 H627 0.949 . S
H604 C608 0.949 . S
C605 C606 1.349 1_565 S
C605 C607 1.327 . S
C605 H628 0.950 . S
C606 C605 1.349 1_545 S
C606 C618 1.349 . S
C607 C605 1.327 . S
C607 C623 1.429 . S
C607 H629 0.950 . S
C608 H604 0.949 . S
C608 C616 1.574 . S
C608 C624 1.368 1_545 S
H609 C617 0.950 . S
H610 C615 0.950 . S
H611 C616 0.949 1_554 S
H612 C618 0.950 . S
H613 C619 0.950 . S
H614 C620 0.949 . S
C615 H610 0.950 . S
C615 C617 1.327 . S
C615 C621 1.429 . S
C616 C608 1.574 . S
C616 H611 0.949 1_556 S
C616 C622 1.368 1_545 S
C617 C601 1.349 . S
C617 H609 0.950 . S
C617 C615 1.327 . S
C618 C606 1.349 . S
C618 H612 0.950 . S
C618 C619 1.327 . S
C619 H613 0.950 . S
C619 C618 1.327 . S
C619 C623 1.429 1_545 S
C620 C603 1.574 . S
C620 H614 0.949 . S
C620 C624 1.368 . S
C621 C602 1.429 1_565 S
C621 C615 1.429 . S
C621 C622 1.523 1_554 S
C622 C603 1.368 . S
C622 C616 1.368 1_565 S
C622 C621 1.523 1_556 S
C623 C607 1.429 . S
C623 C619 1.429 1_565 S
C623 C624 1.523 . S
C624 C608 1.368 1_565 S
C624 C620 1.368 . S
C624 C623 1.523 . S
H625 C600 0.915 1_545 S
H626 C602 0.950 . S
H627 C603 0.949 . S
H628 C605 0.950 . S
H629 C607 0.950 . S
C630 C631 1.349 . S
C630 C632 1.327 . S
C630 H655 0.950 . S
C631 C630 1.349 . S
C631 C647 1.349 . S
C632 C630 1.327 . S
C632 C651 1.429 . S
C632 H656 0.950 . S
C633 C650 1.574 . S
C633 C652 1.368 . S
C633 H657 0.949 1_556 S
H634 C638 0.949 . S
C635 C636 1.349 . S
C635 C637 1.327 . S
C635 H658 0.950 . S
C636 C635 1.349 . S
C636 C648 1.349 . S
C637 C635 1.327 . S
C637 C653 1.429 . S
C637 H659 0.950 . S
C638 H634 0.949 . S
C638 C646 1.574 . S
C638 C654 1.368 . S
H639 C647 0.950 . S
H640 C645 0.950 . S
H641 C646 0.949 . S
H642 C648 0.950 . S
H643 C649 0.950 . S
H644 C650 0.949 . S
C645 H640 0.950 . S
C645 C647 1.327 . S
C645 C651 1.429 . S
C646 C638 1.574 . S
C646 H641 0.949 . S
C646 C652 1.368 . S
C647 C631 1.349 . S
C647 H639 0.950 . S
C647 C645 1.327 . S
C648 C636 1.349 . S
C648 H642 0.950 . S
C648 C649 1.327 . S
C649 H643 0.950 . S
C649 C648 1.327 . S
C649 C653 1.429 . S
C650 C633 1.574 . S
C650 H644 0.949 . S
C650 C654 1.368 . S
C651 C632 1.429 . S
C651 C645 1.429 . S
C651 C652 1.523 1_554 S
C652 C633 1.368 . S
C652 C646 1.368 . S
C652 C651 1.523 1_556 S
C653 C637 1.429 . S
C653 C649 1.429 . S
C653 C654 1.523 . S
C654 C638 1.368 . S
C654 C650 1.368 . S
C654 C653 1.523 . S
H655 C630 0.950 . S
H656 C632 0.950 . S
H657 C633 0.949 1_554 S
H658 C635 0.950 . S
H659 C637 0.950 . S
C660 C661 1.349 . S
C660 C662 1.327 . S
C660 H685 0.950 . S
C661 C660 1.349 . S
C661 C677 1.349 . S
C662 C660 1.327 . S
C662 C681 1.429 . S
C662 H686 0.950 . S
C663 C680 1.574 . S
C663 C682 1.368 . S
C663 H687 0.949 1_556 S
H664 C668 0.949 . S
C665 C666 1.349 . S
C665 C667 1.327 . S
C665 H688 0.950 . S
C666 C665 1.349 . S
C666 C678 1.349 . S
C667 C665 1.327 . S
C667 C683 1.429 . S
C667 H689 0.950 . S
C668 H664 0.949 . S
C668 C676 1.574 . S
C668 C684 1.368 . S
H669 C677 0.950 . S
H670 C675 0.950 . S
H671 C676 0.949 . S
H672 C678 0.950 . S
H673 C679 0.950 . S
H674 C680 0.949 . S
C675 H670 0.950 . S
C675 C677 1.327 . S
C675 C681 1.429 . S
C676 C668 1.574 . S
C676 H671 0.949 . S
C676 C682 1.368 . S
C677 C661 1.349 . S
C677 H669 0.950 . S
C677 C675 1.327 . S
C678 C666 1.349 . S
C678 H672 0.950 . S
C678 C679 1.327 . S
C679 H673 0.950 . S
C679 C678 1.327 . S
C679 C683 1.429 . S
C680 C663 1.574 . S
C680 H674 0.949 . S
C680 C684 1.368 . S
C681 C662 1.429 . S
C681 C675 1.429 . S
C681 C682 1.523 1_554 S
C682 C663 1.368 . S
C682 C676 1.368 . S
C682 C681 1.523 1_556 S
C683 C667 1.429 . S
C683 C679 1.429 . S
C683 C684 1.523 . S
C684 C668 1.368 . S
C684 C680 1.368 . S
C684 C683 1.523 . S
H685 C660 0.950 . S
H686 C662 0.950 . S
H687 C663 0.949 1_554 S
H688 C665 0.950 . S
H689 C667 0.950 . S
C690 C691 1.362 . S
C690 C692 1.327 . S
C690 H715 0.950 . S
C691 C690 1.362 . S
C691 C707 1.336 1_455 S
C692 C690 1.327 . S
C692 C711 1.466 . S
C692 H716 0.950 . S
C693 C710 1.574 . S
C693 C712 1.312 1_655 S
C693 H717 0.949 1_556 S
H694 C698 0.949 . S
C695 C696 1.349 1_655 S
C695 C697 1.327 . S
C695 H718 0.950 . S
C696 C695 1.349 1_455 S
C696 C708 1.349 . S
C697 C695 1.327 . S
C697 C713 1.429 1_655 S
C697 H719 0.950 . S
C698 H694 0.949 . S
C698 C706 1.574 . S
C698 C714 1.368 . S
H699 C707 0.950 . S
H700 C705 0.950 . S
H701 C706 0.949 . S
H702 C708 0.950 . S
H703 C709 0.950 . S
H704 C710 0.949 . S
C705 H700 0.950 . S
C705 C707 1.327 . S
C705 C711 1.391 1_655 S
C706 C698 1.574 . S
C706 H701 0.949 . S
C706 C712 1.426 . S
C707 C691 1.336 1_655 S
C707 H699 0.950 . S
C707 C705 1.327 . S
C708 C696 1.349 . S
C708 H702 0.950 . S
C708 C709 1.327 . S
C709 H703 0.950 . S
C709 C708 1.327 . S
C709 C713 1.429 . S
C710 C693 1.574 . S
C710 H704 0.949 . S
C710 C714 1.368 1_655 S
C711 C692 1.466 . S
C711 C705 1.391 1_455 S
C711 C712 1.523 1_554 S
C712 C693 1.312 1_455 S
C712 C706 1.426 . S
C712 C711 1.523 1_556 S
C713 C697 1.429 1_455 S
C713 C709 1.429 . S
C713 C714 1.523 . S
C714 C698 1.368 . S
C714 C710 1.368 1_455 S
C714 C713 1.523 . S
H715 C690 0.950 . S
H716 C692 0.950 . S
H717 C693 0.949 1_554 S
H718 C695 0.950 . S
H719 C697 0.950 . S
C720 C721 1.349 1_655 S
C720 C722 1.327 . S
C720 H745 0.950 . S
C721 C720 1.349 1_455 S
C721 C737 1.349 . S
C722 C720 1.327 . S
C722 C741 1.429 . S
C722 H746 0.950 . S
C723 C740 1.574 . S
C723 C742 1.368 . S
C723 H747 0.949 . S
H724 C728 0.949 . S
C725 C726 1.349 . S
C725 C727 1.327 . S
C725 H748 0.950 . S
C726 C725 1.349 . S
C726 C738 1.349 . S
C727 C725 1.327 . S
C727 C743 1.429 . S
C727 H749 0.950 . S
C728 H724 0.949 . S
C728 C736 1.574 . S
C728 C744 1.368 . S
H729 C737 0.950 . S
H730 C735 0.953 . S
H731 C736 0.949 . S
H732 C738 0.950 . S
H733 C739 0.950 . S
H734 C740 0.949 . S
C735 H730 0.953 . S
C735 C737 1.333 . S
C735 C741 1.421 1_455 S
C736 C728 1.574 . S
C736 H731 0.949 . S
C736 C742 1.368 . S
C737 C721 1.349 . S
C737 H729 0.950 . S
C737 C735 1.333 . S
C738 C726 1.349 . S
C738 H732 0.950 . S
C738 C739 1.327 . S
C739 H733 0.950 . S
C739 C738 1.327 . S
C739 C743 1.429 . S
C740 C723 1.574 . S
C740 H734 0.949 . S
C740 C744 1.368 . S
C741 C722 1.429 . S
C741 C735 1.421 1_655 S
C741 C742 1.523 . S
C742 C723 1.368 . S
C742 C736 1.368 . S
C742 C741 1.523 . S
C743 C727 1.429 . S
C743 C739 1.429 . S
C743 C744 1.523 . S
C744 C728 1.368 . S
C744 C740 1.368 . S
C744 C743 1.523 . S
H745 C720 0.950 . S
H746 C722 0.950 . S
H747 C723 0.949 . S
H748 C725 0.950 . S
H749 C727 0.950 . S
C750 C751 1.349 . S
C750 C752 1.327 . S
C750 H775 0.950 . S
C751 C750 1.349 . S
C751 C767 1.349 . S
C752 C750 1.327 . S
C752 C771 1.429 . S
C752 H776 0.950 . S
C753 C770 1.574 . S
C753 C772 1.368 . S
C753 H777 0.949 . S
H754 C758 0.949 . S
C755 C756 1.349 1_545 S
C755 C757 1.327 . S
C755 H778 0.950 . S
C756 C755 1.349 1_565 S
C756 C768 1.349 . S
C757 C755 1.327 . S
C757 C773 1.429 . S
C757 H779 0.950 . S
C758 H754 0.949 . S
C758 C766 1.574 1_565 S
C758 C774 1.368 1_565 S
H759 C767 0.950 . S
H760 C765 0.950 . S
H761 C766 0.949 1_565 S
H762 C768 0.950 . S
H763 C769 0.950 . S
H764 C770 0.949 . S
C765 H760 0.950 . S
C765 C767 1.327 . S
C765 C771 1.429 . S
C766 C758 1.574 1_545 S
C766 H761 0.949 1_545 S
C766 C772 1.368 . S
C767 C751 1.349 . S
C767 H759 0.950 . S
C767 C765 1.327 . S
C768 C756 1.349 . S
C768 H762 0.950 . S
C768 C769 1.327 . S
C769 H763 0.950 . S
C769 C768 1.327 . S
C769 C773 1.429 1_565 S
C770 C753 1.574 . S
C770 H764 0.949 . S
C770 C774 1.368 . S
C771 C752 1.429 . S
C771 C765 1.429 . S
C771 C772 1.523 . S
C772 C753 1.368 . S
C772 C766 1.368 . S
C772 C771 1.523 . S
C773 C757 1.429 . S
C773 C769 1.429 1_545 S
C773 C774 1.523 . S
C774 C758 1.368 1_545 S
C774 C770 1.368 . S
C774 C773 1.523 . S
H775 C750 0.950 . S
H776 C752 0.950 . S
H777 C753 0.949 . S
H778 C755 0.950 . S
H779 C757 0.950 . S
C780 C781 1.349 . S
C780 C782 1.327 . S
C780 H805 0.950 . S
C781 C780 1.349 . S
C781 C797 1.349 . S
C782 C780 1.327 . S
C782 C801 1.429 . S
C782 H806 0.950 . S
C783 C800 1.574 . S
C783 C802 1.368 . S
C783 H807 0.949 . S
H784 C788 0.949 . S
C785 C786 1.349 . S
C785 C787 1.327 . S
C785 H808 0.950 . S
C786 C785 1.349 . S
C786 C798 1.349 . S
C787 C785 1.327 . S
C787 C803 1.429 . S
C787 H809 0.950 . S
C788 H784 0.949 . S
C788 C796 1.574 . S
C788 C804 1.368 . S
H789 C797 0.950 . S
H790 C795 0.950 . S
H791 C796 0.949 . S
H792 C798 0.950 . S
H793 C799 0.950 . S
H794 C800 0.949 . S
C795 H790 0.950 . S
C795 C797 1.327 . S
C795 C801 1.429 . S
C796 C788 1.574 . S
C796 H791 0.949 . S
C796 C802 1.368 . S
C797 C781 1.349 . S
C797 H789 0.950 . S
C797 C795 1.327 . S
C798 C786 1.349 . S
C798 H792 0.950 . S
C798 C799 1.327 . S
C799 H793 0.950 . S
C799 C798 1.327 . S
C799 C803 1.429 . S
C800 C783 1.574 . S
C800 H794 0.949 . S
C800 C804 1.368 . S
C801 C782 1.429 . S
C801 C795 1.429 . S
C801 C802 1.523 . S
C802 C783 1.368 . S
C802 C796 1.368 . S
C802 C801 1.523 . S
C803 C787 1.429 . S
C803 C799 1.429 . S
C803 C804 1.523 . S
C804 C788 1.368 . S
C804 C800 1.368 . S
C804 C803 1.523 . S
H805 C780 0.950 . S
H806 C782 0.950 . S
H807 C783 0.949 . S
H808 C785 0.950 . S
H809 C787 0.950 . S
C810 C811 1.349 . S
C810 C812 1.327 . S
C810 H835 0.950 . S
C811 C810 1.349 . S
C811 C827 1.349 . S
C812 C810 1.327 . S
C812 C831 1.429 . S
C812 H836 0.950 . S
C813 C830 1.574 . S
C813 C832 1.368 . S
C813 H837 0.949 . S
H814 C818 0.949 . S
C815 C816 1.349 . S
C815 C817 1.327 . S
C815 H838 0.950 . S
C816 C815 1.349 . S
C816 C828 1.349 . S
C817 C815 1.327 . S
C817 C833 1.429 . S
C817 H839 0.950 . S
C818 H814 0.949 . S
C818 C826 1.574 . S
C818 C834 1.368 . S
H819 C827 0.950 . S
H820 C825 0.950 . S
H821 C826 0.949 . S
H822 C828 0.950 . S
H823 C829 0.950 . S
H824 C830 0.949 . S
C825 H820 0.950 . S
C825 C827 1.327 . S
C825 C831 1.429 . S
C826 C818 1.574 . S
C826 H821 0.949 . S
C826 C832 1.368 . S
C827 C811 1.349 . S
C827 H819 0.950 . S
C827 C825 1.327 . S
C828 C816 1.349 . S
C828 H822 0.950 . S
C828 C829 1.327 . S
C829 H823 0.950 . S
C829 C828 1.327 . S
C829 C833 1.429 . S
C830 C813 1.574 . S
C830 H824 0.949 . S
C830 C834 1.368 . S
C831 C812 1.429 . S
C831 C825 1.429 . S
C831 C832 1.523 . S
C832 C813 1.368 . S
C832 C826 1.368 . S
C832 C831 1.523 . S
C833 C817 1.429 . S
C833 C829 1.429 . S
C833 C834 1.523 . S
C834 C818 1.368 . S
C834 C830 1.368 . S
C834 C833 1.523 . S
H835 C810 0.950 . S
H836 C812 0.950 . S
H837 C813 0.949 . S
H838 C815 0.950 . S
H839 C817 0.950 . S
C840 C841 1.349 . S
C840 C842 1.327 1_554 S
C840 H865 0.950 . S
C841 C840 1.349 . S
C841 C857 1.349 1_655 S
C842 C840 1.327 1_556 S
C842 C861 1.429 1_655 S
C842 H866 0.950 . S
C843 C860 1.574 . S
C843 C862 1.368 . S
C843 H867 0.949 . S
H844 C848 0.949 . S
C845 C846 1.349 . S
C845 C847 1.327 . S
C845 H868 0.950 . S
C846 C845 1.349 . S
C846 C858 1.349 . S
C847 C845 1.327 . S
C847 C863 1.429 . S
C847 H869 0.950 . S
C848 H844 0.949 . S
C848 C856 1.574 . S
C848 C864 1.368 1_655 S
H849 C857 0.950 . S
H850 C855 0.950 . S
H851 C856 0.949 . S
H852 C858 0.950 . S
H853 C859 0.950 1_655 S
H854 C860 0.949 . S
C855 H850 0.950 . S
C855 C857 1.327 . S
C855 C861 1.429 1_554 S
C856 C848 1.574 . S
C856 H851 0.949 . S
C856 C862 1.368 1_655 S
C857 C841 1.349 1_455 S
C857 H849 0.950 . S
C857 C855 1.327 . S
C858 C846 1.349 . S
C858 H852 0.950 . S
C858 C859 1.327 . S
C859 H853 0.950 1_455 S
C859 C858 1.327 . S
C859 C863 1.429 . S
C860 C843 1.574 . S
C860 H854 0.949 . S
C860 C864 1.368 . S
C861 C842 1.429 1_455 S
C861 C855 1.429 1_556 S
C861 C862 1.523 . S
C862 C843 1.368 . S
C862 C856 1.368 1_455 S
C862 C861 1.523 . S
C863 C847 1.429 . S
C863 C859 1.429 . S
C863 C864 1.523 . S
C864 C848 1.368 1_455 S
C864 C860 1.368 . S
C864 C863 1.523 . S
H865 C840 0.950 . S
H866 C842 0.950 . S
H867 C843 0.949 . S
H868 C845 0.950 . S
H869 C847 0.950 . S
C870 C871 1.349 . S
C870 C872 1.327 1_564 S
C870 H895 0.950 1_565 S
C871 C870 1.349 . S
C871 C887 1.349 . S
C872 C870 1.327 1_546 S
C872 C891 1.429 1_545 S
C872 H896 0.950 . S
C873 C890 1.574 . S
C873 C892 1.368 . S
C873 H897 0.949 . S
H874 C878 0.949 . S
C875 C876 1.349 . S
C875 C877 1.327 . S
C875 H898 0.950 . S
C876 C875 1.349 . S
C876 C888 1.349 . S
C877 C875 1.327 . S
C877 C893 1.429 . S
C877 H899 0.950 1_545 S
C878 H874 0.949 . S
C878 C886 1.574 . S
C878 C894 1.368 . S
H879 C887 0.950 . S
H880 C885 0.950 . S
H881 C886 0.949 . S
H882 C888 0.950 . S
H883 C889 0.950 . S
H884 C890 0.949 . S
C885 H880 0.950 . S
C885 C887 1.327 . S
C885 C891 1.429 1_554 S
C886 C878 1.574 . S
C886 H881 0.949 . S
C886 C892 1.368 1_545 S
C887 C871 1.349 . S
C887 H879 0.950 . S
C887 C885 1.327 . S
C888 C876 1.349 . S
C888 H882 0.950 . S
C888 C889 1.327 . S
C889 H883 0.950 . S
C889 C888 1.327 . S
C889 C893 1.429 . S
C890 C873 1.574 . S
C890 H884 0.949 . S
C890 C894 1.368 1_565 S
C891 C872 1.429 1_565 S
C891 C885 1.429 1_556 S
C891 C892 1.523 . S
C892 C873 1.368 . S
C892 C886 1.368 1_565 S
C892 C891 1.523 . S
C893 C877 1.429 . S
C893 C889 1.429 . S
C893 C894 1.523 . S
C894 C878 1.368 . S
C894 C890 1.368 1_545 S
C894 C893 1.523 . S
H895 C870 0.950 1_545 S
H896 C872 0.950 . S
H897 C873 0.949 . S
H898 C875 0.950 . S
H899 C877 0.950 1_565 S
C900 C901 1.349 . S
C900 C902 1.327 . S
C900 H925 0.950 . S
C901 C900 1.349 . S
C901 C917 1.349 1_554 S
C902 C900 1.327 . S
C902 C921 1.429 1_554 S
C902 H926 0.950 . S
C903 C920 1.574 . S
C903 C922 1.368 . S
C903 H927 0.949 . S
H904 C908 0.949 . S
C905 C906 1.349 . S
C905 C907 1.327 . S
C905 H928 0.950 . S
C906 C905 1.349 . S
C906 C918 1.349 . S
C907 C905 1.327 . S
C907 C923 1.429 . S
C907 H929 0.950 . S
C908 H904 0.949 . S
C908 C916 1.574 . S
C908 C924 1.368 . S
H909 C917 0.950 . S
H910 C915 0.950 . S
H911 C916 0.949 1_554 S
H912 C918 0.950 . S
H913 C919 0.950 . S
H914 C920 0.949 . S
C915 H910 0.950 . S
C915 C917 1.327 . S
C915 C921 1.429 . S
C916 C908 1.574 . S
C916 H911 0.949 1_556 S
C916 C922 1.368 . S
C917 C901 1.349 1_556 S
C917 H909 0.950 . S
C917 C915 1.327 . S
C918 C906 1.349 . S
C918 H912 0.950 . S
C918 C919 1.327 . S
C919 H913 0.950 . S
C919 C918 1.327 . S
C919 C923 1.429 . S
C920 C903 1.574 . S
C920 H914 0.949 . S
C920 C924 1.368 . S
C921 C902 1.429 1_556 S
C921 C915 1.429 . S
C921 C922 1.523 . S
C922 C903 1.368 . S
C922 C916 1.368 . S
C922 C921 1.523 . S
C923 C907 1.429 . S
C923 C919 1.429 . S
C923 C924 1.523 . S
C924 C908 1.368 . S
C924 C920 1.368 . S
C924 C923 1.523 . S
H925 C900 0.950 . S
H926 C902 0.950 . S
H927 C903 0.949 . S
H928 C905 0.950 . S
H929 C907 0.950 . S
C930 C931 1.349 . S
C930 C932 1.327 . S
C930 H955 0.950 . S
C931 C930 1.349 . S
C931 C947 1.349 . S
C932 C930 1.327 . S
C932 C951 1.429 1_554 S
C932 H956 0.950 . S
C933 C950 1.574 . S
C933 C952 1.368 . S
C933 H957 0.949 . S
H934 C938 0.949 . S
C935 C936 1.349 . S
C935 C937 1.327 . S
C935 H958 0.950 . S
C936 C935 1.349 . S
C936 C948 1.349 . S
C937 C935 1.327 . S
C937 C953 1.429 . S
C937 H959 0.950 . S
C938 H934 0.949 . S
C938 C946 1.574 . S
C938 C954 1.368 . S
H939 C947 0.950 . S
H940 C945 0.950 . S
H941 C946 0.949 . S
H942 C948 0.950 . S
H943 C949 0.950 . S
H944 C950 0.949 . S
C945 H940 0.950 . S
C945 C947 1.327 1_556 S
C945 C951 1.429 . S
C946 C938 1.574 . S
C946 H941 0.949 . S
C946 C952 1.368 . S
C947 C931 1.349 . S
C947 H939 0.950 . S
C947 C945 1.327 1_554 S
C948 C936 1.349 . S
C948 H942 0.950 . S
C948 C949 1.327 . S
C949 H943 0.950 . S
C949 C948 1.327 . S
C949 C953 1.429 . S
C950 C933 1.574 . S
C950 H944 0.949 . S
C950 C954 1.368 . S
C951 C932 1.429 1_556 S
C951 C945 1.429 . S
C951 C952 1.523 . S
C952 C933 1.368 . S
C952 C946 1.368 . S
C952 C951 1.523 . S
C953 C937 1.429 . S
C953 C949 1.429 . S
C953 C954 1.523 . S
C954 C938 1.368 . S
C954 C950 1.368 . S
C954 C953 1.523 . S
H955 C930 0.950 . S
H956 C932 0.950 . S
H957 C933 0.949 . S
H958 C935 0.950 . S
H959 C937 0.950 . S
C960 C961 1.349 1_655 S
C960 C962 1.327 . S
C960 H985 0.950 . S
C961 C960 1.349 1_455 S
C961 C977 1.349 . S
C962 C960 1.327 . S
C962 C981 1.429 1_655 S
C962 H986 0.950 . S
C963 C980 1.574 . S
C963 C982 1.368 . S
C963 H987 0.949 . S
H964 C968 0.949 . S
C965 C966 1.349 . S
C965 C967 1.327 . S
C965 H988 0.950 . S
C966 C965 1.349 . S
C966 C978 1.319 1_455 S
C967 C965 1.327 . S
C967 C983 1.429 . S
C967 H989 0.950 . S
C968 H964 0.949 . S
C968 C976 1.574 . S
C968 C984 1.368 1_655 S
H969 C977 0.950 . S
H970 C975 0.950 . S
H971 C976 0.949 . S
H972 C978 0.979 . S
H973 C979 0.950 . S
H974 C980 0.949 . S
C975 H970 0.950 . S
C975 C977 1.327 . S
C975 C981 1.429 . S
C976 C968 1.574 . S
C976 H971 0.949 . S
C976 C982 1.368 1_655 S
C977 C961 1.349 . S
C977 H969 0.950 . S
C977 C975 1.327 . S
C978 C966 1.319 1_655 S
C978 H972 0.979 . S
C978 C979 1.332 . S
C979 H973 0.950 . S
C979 C978 1.332 . S
C979 C983 1.429 1_655 S
C980 C963 1.574 . S
C980 H974 0.949 . S
C980 C984 1.368 . S
C981 C962 1.429 1_455 S
C981 C975 1.429 . S
C981 C982 1.523 . S
C982 C963 1.368 . S
C982 C976 1.368 1_455 S
C982 C981 1.523 . S
C983 C967 1.429 . S
C983 C979 1.429 1_455 S
C983 C984 1.523 . S
C984 C968 1.368 1_455 S
C984 C980 1.368 . S
C984 C983 1.523 . S
H985 C960 0.950 . S
H986 C962 0.950 . S
H987 C963 0.949 . S
H988 C965 0.950 . S
H989 C967 0.950 . S
C990 C991 1.349 . S
C990 C992 1.327 . S
C990 H1015 0.950 . S
C991 C990 1.349 . S
C991 C1007 1.349 . S
C992 C990 1.327 . S
C992 C1011 1.429 . S
C992 H1016 0.950 . S
C993 C1010 1.574 . S
C993 C1012 1.368 . S
C993 H1017 0.993 . S
H994 C998 0.949 . S
C995 C996 1.349 . S
C995 C997 1.327 . S
C995 H1018 0.950 1_545 S
C996 C995 1.349 . S
C996 C1008 1.349 . S
C997 C995 1.327 . S
C997 C1013 1.429 . S
C997 H1019 0.950 1_545 S
C998 H994 0.949 . S
C998 C1006 1.574 . S
C998 C1014 1.368 . S
H999 C1007 0.950 . S
H1000 C1005 0.950 . S
H1001 C1006 0.949 . S
H1002 C1008 0.950 . S
H1003 C1009 0.950 . S
H1004 C1010 0.949 1_565 S
C1005 H1000 0.950 . S
C1005 C1007 1.327 . S
C1005 C1011 1.429 . S
C1006 C998 1.574 . S
C1006 H1001 0.949 . S
C1006 C1012 1.368 . S
C1007 C991 1.349 . S
C1007 H999 0.950 . S
C1007 C1005 1.327 . S
C1008 C996 1.349 . S
C1008 H1002 0.950 . S
C1008 C1009 1.327 . S
C1009 H1003 0.950 . S
C1009 C1008 1.327 . S
C1009 C1013 1.429 . S
C1010 C993 1.574 . S
C1010 H1004 0.949 1_545 S
C1010 C1014 1.368 . S
C1011 C992 1.429 . S
C1011 C1005 1.429 . S
C1011 C1012 1.523 . S
C1012 C993 1.368 . S
C1012 C1006 1.368 . S
C1012 C1011 1.523 . S
C1013 C997 1.429 . S
C1013 C1009 1.429 . S
C1013 C1014 1.523 . S
C1014 C998 1.368 . S
C1014 C1010 1.368 . S
C1014 C1013 1.523 . S
H1015 C990 0.950 . S
H1016 C992 0.950 . S
H1017 C993 0.993 . S
H1018 C995 0.950 1_565 S
H1019 C997 0.950 1_565 S
C1020 C1021 1.349 . S
C1020 C1022 1.327 . S
C1020 H1045 0.950 . S
C1021 C1020 1.349 . S
C1021 C1037 1.349 . S
C1022 C1020 1.327 . S
C1022 C1041 1.429 . S
C1022 H1046 0.950 . S
C1023 C1040 1.574 . S
C1023 C1042 1.368 . S
C1023 H1047 0.949 . S
H1024 C1028 0.949 . S
C1025 C1026 1.349 . S
C1025 C1027 1.327 . S
C1025 H1048 0.950 . S
C1026 C1025 1.349 . S
C1026 C1038 1.349 . S
C1027 C1025 1.327 . S
C1027 C1043 1.429 . S
C1027 H1049 0.950 . S
C1028 H1024 0.949 . S
C1028 C1036 1.574 . S
C1028 C1044 1.368 . S
H1029 C1037 0.950 . S
H1030 C1035 0.950 . S
H1031 C1036 0.949 . S
H1032 C1038 0.950 . S
H1033 C1039 0.950 . S
H1034 C1040 0.949 . S
C1035 H1030 0.950 . S
C1035 C1037 1.327 . S
C1035 C1041 1.429 . S
C1036 C1028 1.574 . S
C1036 H1031 0.949 . S
C1036 C1042 1.368 . S
C1037 C1021 1.349 . S
C1037 H1029 0.950 . S
C1037 C1035 1.327 . S
C1038 C1026 1.349 . S
C1038 H1032 0.950 . S
C1038 C1039 1.327 . S
C1039 H1033 0.950 . S
C1039 C1038 1.327 . S
C1039 C1043 1.429 . S
C1040 C1023 1.574 . S
C1040 H1034 0.949 . S
C1040 C1044 1.368 . S
C1041 C1022 1.429 . S
C1041 C1035 1.429 . S
C1041 C1042 1.523 . S
C1042 C1023 1.368 . S
C1042 C1036 1.368 . S
C1042 C1041 1.523 . S
C1043 C1027 1.429 . S
C1043 C1039 1.429 . S
C1043 C1044 1.523 . S
C1044 C1028 1.368 . S
C1044 C1040 1.368 . S
C1044 C1043 1.523 . S
H1045 C1020 0.950 . S
H1046 C1022 0.950 . S
H1047 C1023 0.949 . S
H1048 C1025 0.950 . S
H1049 C1027 0.950 . S
C1050 C1051 1.349 . S
C1050 C1052 1.327 . S
C1050 H1075 0.950 . S
C1051 C1050 1.349 . S
C1051 C1067 1.349 . S
C1052 C1050 1.327 . S
C1052 C1071 1.429 . S
C1052 H1076 0.950 . S
C1053 C1070 1.574 . S
C1053 C1072 1.368 . S
C1053 H1077 0.949 . S
H1054 C1058 0.949 . S
C1055 C1056 1.349 . S
C1055 C1057 1.327 . S
C1055 H1078 0.950 . S
C1056 C1055 1.349 . S
C1056 C1068 1.349 . S
C1057 C1055 1.327 . S
C1057 C1073 1.429 . S
C1057 H1079 0.950 . S
C1058 H1054 0.949 . S
C1058 C1066 1.574 . S
C1058 C1074 1.368 . S
H1059 C1067 0.950 . S
H1060 C1065 0.950 . S
H1061 C1066 0.949 . S
H1062 C1068 0.950 . S
H1063 C1069 0.950 . S
H1064 C1070 0.949 . S
C1065 H1060 0.950 . S
C1065 C1067 1.327 . S
C1065 C1071 1.429 . S
C1066 C1058 1.574 . S
C1066 H1061 0.949 . S
C1066 C1072 1.368 . S
C1067 C1051 1.349 . S
C1067 H1059 0.950 . S
C1067 C1065 1.327 . S
C1068 C1056 1.349 . S
C1068 H1062 0.950 . S
C1068 C1069 1.327 . S
C1069 H1063 0.950 . S
C1069 C1068 1.327 . S
C1069 C1073 1.429 . S
C1070 C1053 1.574 . S
C1070 H1064 0.949 . S
C1070 C1074 1.368 . S
C1071 C1052 1.429 . S
C1071 C1065 1.429 . S
C1071 C1072 1.523 . S
C1072 C1053 1.368 . S
C1072 C1066 1.368 . S
C1072 C1071 1.523 . S
C1073 C1057 1.429 . S
C1073 C1069 1.429 . S
C1073 C1074 1.523 . S
C1074 C1058 1.368 . S
C1074 C1070 1.368 . S
C1074 C1073 1.523 . S
H1075 C1050 0.950 . S
H1076 C1052 0.950 . S
H1077 C1053 0.949 . S
H1078 C1055 0.950 . S
H1079 C1057 0.950 . S
C1080 C1081 1.349 1_455 S
C1080 C1082 1.327 . S
C1080 H1105 0.950 . S
C1081 C1080 1.349 1_655 S
C1081 C1097 1.349 . S
C1082 C1080 1.327 . S
C1082 C1101 1.429 1_455 S
C1082 H1106 0.950 . S
C1083 C1100 1.574 . S
C1083 C1102 1.368 . S
C1083 H1107 0.949 . S
H1084 C1088 0.949 . S
C1085 C1086 1.349 . S
C1085 C1087 1.327 . S
C1085 H1108 0.950 . S
C1086 C1085 1.349 . S
C1086 C1098 1.349 1_655 S
C1087 C1085 1.327 . S
C1087 C1103 1.429 . S
C1087 H1109 0.950 . S
C1088 H1084 0.949 . S
C1088 C1096 1.574 . S
C1088 C1104 1.368 1_455 S
H1089 C1097 0.950 . S
H1090 C1095 0.950 . S
H1091 C1096 0.949 . S
H1092 C1098 0.950 . S
H1093 C1099 0.950 . S
H1094 C1100 0.949 . S
C1095 H1090 0.950 . S
C1095 C1097 1.327 . S
C1095 C1101 1.429 . S
C1096 C1088 1.574 . S
C1096 H1091 0.949 . S
C1096 C1102 1.368 1_455 S
C1097 C1081 1.349 . S
C1097 H1089 0.950 . S
C1097 C1095 1.327 . S
C1098 C1086 1.349 1_455 S
C1098 H1092 0.950 . S
C1098 C1099 1.327 . S
C1099 H1093 0.950 . S
C1099 C1098 1.327 . S
C1099 C1103 1.429 1_455 S
C1100 C1083 1.574 . S
C1100 H1094 0.949 . S
C1100 C1104 1.368 . S
C1101 C1082 1.429 1_655 S
C1101 C1095 1.429 . S
C1101 C1102 1.523 . S
C1102 C1083 1.368 . S
C1102 C1096 1.368 1_655 S
C1102 C1101 1.523 . S
C1103 C1087 1.429 . S
C1103 C1099 1.429 1_655 S
C1103 C1104 1.523 . S
C1104 C1088 1.368 1_655 S
C1104 C1100 1.368 . S
C1104 C1103 1.523 . S
H1105 C1080 0.950 . S
H1106 C1082 0.950 . S
H1107 C1083 0.949 . S
H1108 C1085 0.950 . S
H1109 C1087 0.950 . S
C1110 C1111 1.349 . S
C1110 C1112 1.327 . S
C1110 H1135 0.950 . S
C1111 C1110 1.349 . S
C1111 C1127 1.349 . S
C1112 C1110 1.327 . S
C1112 C1131 1.429 . S
C1112 H1136 0.950 . S
C1113 C1130 1.574 . S
C1113 C1132 1.368 . S
C1113 H1137 0.949 . S
H1114 C1118 0.957 . S
C1115 C1116 1.349 . S
C1115 C1117 1.327 . S
C1115 H1138 0.950 . S
C1116 C1115 1.349 . S
C1116 C1128 1.349 . S
C1117 C1115 1.327 . S
C1117 C1133 1.429 . S
C1117 H1139 0.950 . S
C1118 H1114 0.957 . S
C1118 C1126 1.574 . S
C1118 C1134 1.368 . S
H1119 C1127 0.950 . S
H1120 C1125 0.950 . S
H1121 C1126 0.949 . S
H1122 C1128 0.950 1_545 S
H1123 C1129 0.936 1_545 S
H1124 C1130 0.949 . S
C1125 H1120 0.950 . S
C1125 C1127 1.327 . S
C1125 C1131 1.429 . S
C1126 C1118 1.574 . S
C1126 H1121 0.949 . S
C1126 C1132 1.368 . S
C1127 C1111 1.349 . S
C1127 H1119 0.950 . S
C1127 C1125 1.327 . S
C1128 C1116 1.349 . S
C1128 H1122 0.950 1_565 S
C1128 C1129 1.327 . S
C1129 H1123 0.936 1_565 S
C1129 C1128 1.327 . S
C1129 C1133 1.429 . S
C1130 C1113 1.574 . S
C1130 H1124 0.949 . S
C1130 C1134 1.368 . S
C1131 C1112 1.429 . S
C1131 C1125 1.429 . S
C1131 C1132 1.523 . S
C1132 C1113 1.368 . S
C1132 C1126 1.368 . S
C1132 C1131 1.523 . S
C1133 C1117 1.429 . S
C1133 C1129 1.429 . S
C1133 C1134 1.523 . S
C1134 C1118 1.368 . S
C1134 C1130 1.368 . S
C1134 C1133 1.523 . S
H1135 C1110 0.950 . S
H1136 C1112 0.950 . S
H1137 C1113 0.949 . S
H1138 C1115 0.950 . S
H1139 C1117 0.950 . S
C1140 C1141 1.349 . S
C1140 C1142 1.327 . S
C1140 H1165 0.950 . S
C1141 C1140 1.349 . S
C1141 C1157 1.349 . S
C1142 C1140 1.327 . S
C1142 C1161 1.429 . S
C1142 H1166 0.950 . S
C1143 C1160 1.574 . S
C1143 C1162 1.368 . S
C1143 H1167 0.949 . S
H1144 C1148 0.949 . S
C1145 C1146 1.349 . S
C1145 C1147 1.327 . S
C1145 H1168 0.950 . S
C1146 C1145 1.349 . S
C1146 C1158 1.349 . S
C1147 C1145 1.327 . S
C1147 C1163 1.429 . S
C1147 H1169 0.950 . S
C1148 H1144 0.949 . S
C1148 C1156 1.574 . S
C1148 C1164 1.368 . S
H1149 C1157 0.950 . S
H1150 C1155 0.950 . S
H1151 C1156 0.949 . S
H1152 C1158 0.950 . S
H1153 C1159 0.950 . S
H1154 C1160 0.949 . S
C1155 H1150 0.950 . S
C1155 C1157 1.327 . S
C1155 C1161 1.429 . S
C1156 C1148 1.574 . S
C1156 H1151 0.949 . S
C1156 C1162 1.368 . S
C1157 C1141 1.349 . S
C1157 H1149 0.950 . S
C1157 C1155 1.327 . S
C1158 C1146 1.349 . S
C1158 H1152 0.950 . S
C1158 C1159 1.327 . S
C1159 H1153 0.950 . S
C1159 C1158 1.327 . S
C1159 C1163 1.429 . S
C1160 C1143 1.574 . S
C1160 H1154 0.949 . S
C1160 C1164 1.368 . S
C1161 C1142 1.429 . S
C1161 C1155 1.429 . S
C1161 C1162 1.523 . S
C1162 C1143 1.368 . S
C1162 C1156 1.368 . S
C1162 C1161 1.523 . S
C1163 C1147 1.429 . S
C1163 C1159 1.429 . S
C1163 C1164 1.523 . S
C1164 C1148 1.368 . S
C1164 C1160 1.368 . S
C1164 C1163 1.523 . S
H1165 C1140 0.950 . S
H1166 C1142 0.950 . S
H1167 C1143 0.949 . S
H1168 C1145 0.950 . S
H1169 C1147 0.950 . S
C1170 C1171 1.349 . S
C1170 C1172 1.327 . S
C1170 H1195 0.950 . S
C1171 C1170 1.349 . S
C1171 C1187 1.349 . S
C1172 C1170 1.327 . S
C1172 C1191 1.429 . S
C1172 H1196 0.950 . S
C1173 C1190 1.574 . S
C1173 C1192 1.368 . S
C1173 H1197 0.949 . S
H1174 C1178 0.949 . S
C1175 C1176 1.349 . S
C1175 C1177 1.327 . S
C1175 H1198 0.950 . S
C1176 C1175 1.349 . S
C1176 C1188 1.349 . S
C1177 C1175 1.327 . S
C1177 C1193 1.429 . S
C1177 H1199 0.950 . S
C1178 H1174 0.949 . S
C1178 C1186 1.574 . S
C1178 C1194 1.368 . S
H1179 C1187 0.950 . S
H1180 C1185 0.950 . S
H1181 C1186 0.949 . S
H1182 C1188 0.950 . S
H1183 C1189 0.950 . S
H1184 C1190 0.949 . S
C1185 H1180 0.950 . S
C1185 C1187 1.327 . S
C1185 C1191 1.429 . S
C1186 C1178 1.574 . S
C1186 H1181 0.949 . S
C1186 C1192 1.368 . S
C1187 C1171 1.349 . S
C1187 H1179 0.950 . S
C1187 C1185 1.327 . S
C1188 C1176 1.349 . S
C1188 H1182 0.950 . S
C1188 C1189 1.327 . S
C1189 H1183 0.950 . S
C1189 C1188 1.327 . S
C1189 C1193 1.429 . S
C1190 C1173 1.574 . S
C1190 H1184 0.949 . S
C1190 C1194 1.368 . S
C1191 C1172 1.429 . S
C1191 C1185 1.429 . S
C1191 C1192 1.523 . S
C1192 C1173 1.368 . S
C1192 C1186 1.368 . S
C1192 C1191 1.523 . S
C1193 C1177 1.429 . S
C1193 C1189 1.429 . S
C1193 C1194 1.523 . S
C1194 C1178 1.368 . S
C1194 C1190 1.368 . S
C1194 C1193 1.523 . S
H1195 C1170 0.950 . S
H1196 C1172 0.950 . S
H1197 C1173 0.949 . S
H1198 C1175 0.950 . S
H1199 C1177 0.950 . S
C481 C255 1.985 . S
C486 C330 2.111 . S
C516 C370 2.047 . S
C511 C295 1.930 . S
C546 C410 2.102 . S
C541 C175 1.976 . S
C576 C450 2.071 . S
C571 C215 1.950 . S
C606 C339 2.095 . S
C601 C95 1.964 . S
C631 C135 1.954 . S
C636 C379 2.071 . S
C661 C15 1.991 . S
C666 C419 2.120 . S
C691 C55 1.944 . S
C696 C459 2.065 . S
C726 C336 0.291 . S
C721 C221 0.279 . S
C756 C376 0.330 . S
C751 C261 0.295 . S
C786 C416 0.289 . S
C781 C301 0.289 . S
C811 C181 0.299 . S
C816 C456 0.342 . S
C841 C61 0.416 1_655 S
C846 C327 0.298 . S
C876 C367 0.332 . S
C871 C101 0.458 . S
C906 C407 0.285 . S
C901 C141 0.391 . S
C931 C21 0.459 . S
C936 C447 0.327 . S
C961 C202 2.815 . S
C966 C331 3.095 . S
C991 C242 2.822 . S
C996 C371 3.088 . S
C1026 C411 3.079 . S
C1021 C282 2.797 . S
C1056 C451 3.123 . S
C1051 C162 2.857 . S
C1081 C42 2.824 1_655 S
C1086 C322 3.094 . S
C1116 C362 3.079 . S
C1111 C82 2.789 . S
C1146 C402 3.053 . S
C1141 C122 2.789 . S
C1171 C2 2.811 . S
C1176 C442 3.094 . S
