# Generated by pormake.
# Topology ocu, (6,8)-cn, num edge types: 1
# Building blocks:
#     Node 0, Type 0, BuildingBlock: JUFBIX_clean_sbu_0, # of connection points: 6
#     Node 1, Type 0, BuildingBlock: JUFBIX_clean_sbu_0, # of connection points: 6
#     Node 2, Type 0, BuildingBlock: JUFBIX_clean_sbu_0, # of connection points: 6
#     Node 3, Type 0, BuildingBlock: JUFBIX_clean_sbu_0, # of connection points: 6
#     Node 4, Type 0, BuildingBlock: JUFBIX_clean_sbu_0, # of connection points: 6
#     Node 5, Type 0, BuildingBlock: JUFBIX_clean_sbu_0, # of connection points: 6
#     Node 6, Type 0, BuildingBlock: JUFBIX_clean_sbu_0, # of connection points: 6
#     Node 7, Type 0, BuildingBlock: JUFBIX_clean_sbu_0, # of connection points: 6
#     Node 8, Type 1, BuildingBlock: AJUNOK_clean_sbu_0, # of connection points: 8
#     Node 9, Type 1, BuildingBlock: AJUNOK_clean_sbu_0, # of connection points: 8
#     Node 10, Type 1, BuildingBlock: AJUNOK_clean_sbu_0, # of connection points: 8
#     Node 11, Type 1, BuildingBlock: AJUNOK_clean_sbu_0, # of connection points: 8
#     Node 12, Type 1, BuildingBlock: AJUNOK_clean_sbu_0, # of connection points: 8
#     Node 13, Type 1, BuildingBlock: AJUNOK_clean_sbu_0, # of connection points: 8
#     Edge 14, Type (0, 1), BuildingBlock: EZIPEK_clean_linker_0, # of connection points: 2
#     Edge 15, Type (0, 1), BuildingBlock: EZIPEK_clean_linker_0, # of connection points: 2
#     Edge 16, Type (0, 1), BuildingBlock: EZIPEK_clean_linker_0, # of connection points: 2
#     Edge 17, Type (0, 1), BuildingBlock: EZIPEK_clean_linker_0, # of connection points: 2
#     Edge 18, Type (0, 1), BuildingBlock: EZIPEK_clean_linker_0, # of connection points: 2
#     Edge 19, Type (0, 1), BuildingBlock: EZIPEK_clean_linker_0, # of connection points: 2
#     Edge 20, Type (0, 1), BuildingBlock: EZIPEK_clean_linker_0, # of connection points: 2
#     Edge 21, Type (0, 1), BuildingBlock: EZIPEK_clean_linker_0, # of connection points: 2
#     Edge 22, Type (0, 1), BuildingBlock: EZIPEK_clean_linker_0, # of connection points: 2
#     Edge 23, Type (0, 1), BuildingBlock: EZIPEK_clean_linker_0, # of connection points: 2
#     Edge 24, Type (0, 1), BuildingBlock: EZIPEK_clean_linker_0, # of connection points: 2
#     Edge 25, Type (0, 1), BuildingBlock: EZIPEK_clean_linker_0, # of connection points: 2
#     Edge 26, Type (0, 1), BuildingBlock: EZIPEK_clean_linker_0, # of connection points: 2
#     Edge 27, Type (0, 1), BuildingBlock: EZIPEK_clean_linker_0, # of connection points: 2
#     Edge 28, Type (0, 1), BuildingBlock: EZIPEK_clean_linker_0, # of connection points: 2
#     Edge 29, Type (0, 1), BuildingBlock: EZIPEK_clean_linker_0, # of connection points: 2
#     Edge 30, Type (0, 1), BuildingBlock: EZIPEK_clean_linker_0, # of connection points: 2
#     Edge 31, Type (0, 1), BuildingBlock: EZIPEK_clean_linker_0, # of connection points: 2
#     Edge 32, Type (0, 1), BuildingBlock: EZIPEK_clean_linker_0, # of connection points: 2
#     Edge 33, Type (0, 1), BuildingBlock: EZIPEK_clean_linker_0, # of connection points: 2
#     Edge 34, Type (0, 1), BuildingBlock: EZIPEK_clean_linker_0, # of connection points: 2
#     Edge 35, Type (0, 1), BuildingBlock: EZIPEK_clean_linker_0, # of connection points: 2
#     Edge 36, Type (0, 1), BuildingBlock: EZIPEK_clean_linker_0, # of connection points: 2
#     Edge 37, Type (0, 1), BuildingBlock: EZIPEK_clean_linker_0, # of connection points: 2
#     Edge 38, Type (0, 1), BuildingBlock: EZIPEK_clean_linker_0, # of connection points: 2
#     Edge 39, Type (0, 1), BuildingBlock: EZIPEK_clean_linker_0, # of connection points: 2
#     Edge 40, Type (0, 1), BuildingBlock: EZIPEK_clean_linker_0, # of connection points: 2
#     Edge 41, Type (0, 1), BuildingBlock: EZIPEK_clean_linker_0, # of connection points: 2
#     Edge 42, Type (0, 1), BuildingBlock: EZIPEK_clean_linker_0, # of connection points: 2
#     Edge 43, Type (0, 1), BuildingBlock: EZIPEK_clean_linker_0, # of connection points: 2
#     Edge 44, Type (0, 1), BuildingBlock: EZIPEK_clean_linker_0, # of connection points: 2
#     Edge 45, Type (0, 1), BuildingBlock: EZIPEK_clean_linker_0, # of connection points: 2
#     Edge 46, Type (0, 1), BuildingBlock: EZIPEK_clean_linker_0, # of connection points: 2
#     Edge 47, Type (0, 1), BuildingBlock: EZIPEK_clean_linker_0, # of connection points: 2
#     Edge 48, Type (0, 1), BuildingBlock: EZIPEK_clean_linker_0, # of connection points: 2
#     Edge 49, Type (0, 1), BuildingBlock: EZIPEK_clean_linker_0, # of connection points: 2
#     Edge 50, Type (0, 1), BuildingBlock: EZIPEK_clean_linker_0, # of connection points: 2
#     Edge 51, Type (0, 1), BuildingBlock: EZIPEK_clean_linker_0, # of connection points: 2
#     Edge 52, Type (0, 1), BuildingBlock: EZIPEK_clean_linker_0, # of connection points: 2
#     Edge 53, Type (0, 1), BuildingBlock: EZIPEK_clean_linker_0, # of connection points: 2
#     Edge 54, Type (0, 1), BuildingBlock: EZIPEK_clean_linker_0, # of connection points: 2
#     Edge 55, Type (0, 1), BuildingBlock: EZIPEK_clean_linker_0, # of connection points: 2
#     Edge 56, Type (0, 1), BuildingBlock: EZIPEK_clean_linker_0, # of connection points: 2
#     Edge 57, Type (0, 1), BuildingBlock: EZIPEK_clean_linker_0, # of connection points: 2
#     Edge 58, Type (0, 1), BuildingBlock: EZIPEK_clean_linker_0, # of connection points: 2
#     Edge 59, Type (0, 1), BuildingBlock: EZIPEK_clean_linker_0, # of connection points: 2
#     Edge 60, Type (0, 1), BuildingBlock: EZIPEK_clean_linker_0, # of connection points: 2
#     Edge 61, Type (0, 1), BuildingBlock: EZIPEK_clean_linker_0, # of connection points: 2
# Relax obj value: 0.291
# Max RMSD: 0.357
# Mean RMSD: 0.227
data_MOF--net-ocu--node1-JUFBIX_clean_sbu_0--node2-AJUNOK_clean_sbu_0--edge1-EZIPEK_clean_linker_0
_symmetry_space_group_name_H-M    P1
_symmetry_Int_Tables_number       1
_symmetry_cell_setting            triclinic
loop_
_symmetry_equiv_pos_as_xyz
'x, y, z'
_cell_length_a     32.295736
_cell_length_b     32.702915
_cell_length_c     27.83892
_cell_angle_alpha  102.44498
_cell_angle_beta   101.66246
_cell_angle_gamma 103.02579
loop_
_atom_site_label
_atom_site_type_symbol
_atom_site_fract_x
_atom_site_fract_y
_atom_site_fract_z
_atom_type_partial_charge
Co0 Co 0.21783 0.23135 0.22586 0.0
C1 C 0.22964 0.30765 0.30377 0.0
Co2 Co 0.2773 0.28287 0.23526 0.0
C3 C 0.15217 0.17454 0.25453 0.0
C4 C 0.13461 0.16847 0.17437 0.0
N5 N 0.16702 0.18893 0.2177 0.0
N6 N 0.11161 0.14638 0.23599 0.0
C7 C 0.10015 0.1424 0.18565 0.0
H8 H 0.17008 0.18551 0.29444 0.0
H9 H 0.1355 0.17314 0.13725 0.0
C10 C 0.26554 0.20774 0.15664 0.0
N11 N 0.32813 0.32563 0.24274 0.0
C12 C 0.36754 0.31968 0.23954 0.0
C13 C 0.334 0.36883 0.25142 0.0
N14 N 0.39859 0.35761 0.24678 0.0
C15 C 0.37682 0.3884 0.2532 0.0
C16 C 0.2923 0.22062 0.28765 0.0
O17 O 0.23135 0.19433 0.17125 0.0
O18 O 0.28881 0.24689 0.1782 0.0
O19 O 0.31088 0.25576 0.27845 0.0
O20 O 0.25047 0.20633 0.2723 0.0
O21 O 0.266 0.31919 0.29265 0.0
H22 H 0.30849 0.38492 0.25449 0.0
H23 H 0.37206 0.28759 0.23004 0.0
O24 O 0.20433 0.26934 0.28109 0.0
O25 O 0.18502 0.25535 0.17933 0.0
O26 O 0.24302 0.30939 0.1913 0.0
C27 C 0.20162 0.29201 0.17265 0.0
H28 H 0.06905 0.12247 0.15934 0.0
H29 H 0.38993 0.42255 0.25587 0.0
Co30 Co 0.78202 0.24844 0.23437 0.0
C31 C 0.81715 0.31843 0.32074 0.0
Co32 Co 0.73864 0.25625 0.2853 0.0
C33 C 0.81638 0.25425 0.14891 0.0
C34 C 0.86315 0.24628 0.21009 0.0
N35 N 0.82019 0.24399 0.19359 0.0
N36 N 0.85579 0.26731 0.13964 0.0
C37 C 0.88518 0.26092 0.17699 0.0
H38 H 0.78709 0.26013 0.12848 0.0
H39 H 0.87862 0.24427 0.24744 0.0
C40 C 0.70399 0.18604 0.19996 0.0
N41 N 0.70143 0.26118 0.32713 0.0
C42 C 0.70738 0.25527 0.37419 0.0
C43 C 0.66118 0.26721 0.316 0.0
N44 N 0.67211 0.25634 0.39315 0.0
C45 C 0.64308 0.26404 0.35604 0.0
C46 C 0.72617 0.29946 0.21026 0.0
O47 O 0.74047 0.19816 0.18962 0.0
O48 O 0.69677 0.20748 0.23966 0.0
O49 O 0.71421 0.29235 0.24914 0.0
O50 O 0.75656 0.28423 0.19804 0.0
O51 O 0.78122 0.30488 0.33157 0.0
H52 H 0.64474 0.27063 0.27979 0.0
H53 H 0.73594 0.24706 0.39219 0.0
O54 O 0.82359 0.29877 0.27959 0.0
O55 O 0.80682 0.21358 0.27071 0.0
O56 O 0.76247 0.21941 0.32005 0.0
C57 C 0.79302 0.20471 0.30775 0.0
H58 H 0.92062 0.27272 0.18431 0.0
H59 H 0.60923 0.26308 0.35502 0.0
Co60 Co 0.73115 0.7257 0.27156 0.0
C61 C 0.80267 0.8003 0.29987 0.0
Co62 Co 0.73721 0.76147 0.21356 0.0
C63 C 0.75661 0.66739 0.32734 0.0
C64 C 0.73558 0.71598 0.37281 0.0
N65 N 0.7347 0.69782 0.32398 0.0
N66 N 0.77379 0.66816 0.37578 0.0
C67 C 0.75978 0.69788 0.40478 0.0
H68 H 0.76534 0.64874 0.29588 0.0
H69 H 0.72539 0.7449 0.38531 0.0
C70 C 0.66439 0.68693 0.18714 0.0
N71 N 0.73623 0.78835 0.16174 0.0
C72 C 0.7335 0.82911 0.16477 0.0
C73 C 0.72689 0.76897 0.11158 0.0
N74 N 0.7215 0.83635 0.11841 0.0
C75 C 0.7175 0.79794 0.08502 0.0
C76 C 0.78164 0.69829 0.20343 0.0
O77 O 0.67808 0.68416 0.23209 0.0
O78 O 0.68606 0.71693 0.17199 0.0
O79 O 0.77495 0.72997 0.18667 0.0
O80 O 0.76416 0.6903 0.23867 0.0
O81 O 0.7879 0.80604 0.25665 0.0
H82 H 0.72156 0.7346 0.09511 0.0
H83 H 0.73477 0.85065 0.20051 0.0
O84 O 0.78378 0.76691 0.31137 0.0
O85 O 0.69833 0.76279 0.30251 0.0
O86 O 0.6999 0.7938 0.24049 0.0
C87 C 0.68797 0.79115 0.28084 0.0
H88 H 0.77119 0.70979 0.44593 0.0
H89 H 0.70297 0.78871 0.04436 0.0
Co90 Co 0.2516 0.76693 0.25456 0.0
C91 C 0.32997 0.79155 0.33293 0.0
Co92 Co 0.29232 0.72291 0.24903 0.0
C93 C 0.17902 0.80068 0.25673 0.0
C94 C 0.23964 0.85133 0.27501 0.0
N95 N 0.22231 0.8076 0.26139 0.0
N96 N 0.16896 0.83848 0.26837 0.0
C97 C 0.20658 0.87056 0.27964 0.0
H98 H 0.15589 0.76882 0.24847 0.0
H99 H 0.27425 0.86804 0.28306 0.0
C100 C 0.21256 0.69658 0.17275 0.0
N101 N 0.32241 0.68212 0.23973 0.0
C102 C 0.32696 0.66302 0.19399 0.0
C103 C 0.3367 0.65915 0.27118 0.0
N104 N 0.34252 0.62855 0.19521 0.0
C105 C 0.34902 0.6257 0.24352 0.0
C106 C 0.22852 0.70341 0.30467 0.0
O107 O 0.20645 0.73153 0.19612 0.0
O108 O 0.2491 0.68911 0.18756 0.0
O109 O 0.25874 0.69046 0.28792 0.0
O110 O 0.22079 0.73784 0.29573 0.0
O111 O 0.3355 0.75607 0.3101 0.0
H112 H 0.33554 0.66463 0.31055 0.0
H113 H 0.31619 0.67224 0.15947 0.0
O114 O 0.296 0.80192 0.31383 0.0
O115 O 0.28137 0.79691 0.21362 0.0
O116 O 0.32566 0.75568 0.21089 0.0
C117 C 0.31397 0.78787 0.19959 0.0
H118 H 0.21003 0.90512 0.2928 0.0
H119 H 0.35965 0.60009 0.25695 0.0
Co120 Co 0.29116 0.74054 0.73899 0.0
C121 C 0.32638 0.81075 0.82557 0.0
Co122 Co 0.24779 0.74969 0.78959 0.0
C123 C 0.31849 0.73884 0.64865 0.0
C124 C 0.37329 0.75322 0.71339 0.0
N125 N 0.32911 0.73722 0.69746 0.0
N126 N 0.35334 0.75999 0.63529 0.0
C127 C 0.38815 0.76763 0.67543 0.0
H128 H 0.28501 0.72885 0.6255 0.0
H129 H 0.39248 0.76038 0.75239 0.0
C130 C 0.21227 0.67923 0.70335 0.0
N131 N 0.21027 0.75554 0.83044 0.0
C132 C 0.216 0.75167 0.8783 0.0
C133 C 0.17074 0.76306 0.81866 0.0
N134 N 0.1813 0.75572 0.89729 0.0
C135 C 0.15288 0.76306 0.85929 0.0
C136 C 0.23861 0.79416 0.71713 0.0
O137 O 0.24987 0.68956 0.6949 0.0
O138 O 0.20421 0.70208 0.74158 0.0
O139 O 0.227 0.78867 0.75653 0.0
O140 O 0.26531 0.77498 0.70175 0.0
O141 O 0.29119 0.79661 0.83751 0.0
H142 H 0.15485 0.766 0.78194 0.0
H143 H 0.24405 0.74314 0.89714 0.0
O144 O 0.33223 0.79166 0.78388 0.0
O145 O 0.31638 0.70665 0.77624 0.0
O146 O 0.2688 0.71052 0.82229 0.0
C147 C 0.30032 0.69653 0.81157 0.0
H148 H 0.42107 0.78759 0.67969 0.0
H149 H 0.11956 0.76424 0.85845 0.0
Co150 Co 0.24522 0.24123 0.78356 0.0
C151 C 0.31447 0.31419 0.78532 0.0
Co152 Co 0.24207 0.26596 0.71541 0.0
C153 C 0.26492 0.1872 0.8455 0.0
C154 C 0.28365 0.25402 0.88862 0.0
N155 N 0.2585 0.22618 0.84388 0.0
N156 N 0.29769 0.19052 0.88593 0.0
C157 C 0.30833 0.23243 0.91403 0.0
H158 H 0.24827 0.15793 0.81507 0.0
H159 H 0.28891 0.28889 0.89844 0.0
C160 C 0.1752 0.19047 0.71379 0.0
N161 N 0.22671 0.27746 0.65208 0.0
C162 C 0.20317 0.3052 0.6412 0.0
C163 C 0.21501 0.24504 0.60825 0.0
N164 N 0.17448 0.28922 0.59438 0.0
C165 C 0.18242 0.25171 0.57339 0.0
C166 C 0.28773 0.20359 0.71257 0.0
O167 O 0.19335 0.19538 0.76006 0.0
O168 O 0.19133 0.2174 0.6911 0.0
O169 O 0.27643 0.23009 0.68898 0.0
O170 O 0.27686 0.20249 0.75382 0.0
O171 O 0.29372 0.31404 0.74111 0.0
H172 H 0.22346 0.21456 0.60458 0.0
H173 H 0.20149 0.33274 0.66959 0.0
O174 O 0.29794 0.28639 0.80664 0.0
O175 O 0.21416 0.28035 0.81238 0.0
O176 O 0.20827 0.3022 0.74285 0.0
C177 C 0.20048 0.30448 0.78617 0.0
H178 H 0.33611 0.24781 0.94726 0.0
H179 H 0.1625 0.22832 0.53783 0.0
Co180 Co 0.73645 0.28 0.76001 0.0
C181 C 0.81784 0.30464 0.83587 0.0
Co182 Co 0.77653 0.23525 0.75527 0.0
C183 C 0.70738 0.34231 0.81716 0.0
C184 C 0.69504 0.34674 0.74023 0.0
N185 N 0.70849 0.32229 0.77024 0.0
N186 N 0.69521 0.37879 0.81825 0.0
C187 C 0.68685 0.38205 0.77011 0.0
H188 H 0.71786 0.33187 0.85078 0.0
H189 H 0.69406 0.34092 0.70024 0.0
C190 C 0.6945 0.2083 0.68133 0.0
N191 N 0.80444 0.19278 0.74721 0.0
C192 C 0.84281 0.19493 0.73498 0.0
C193 C 0.78794 0.15057 0.7459 0.0
N194 N 0.84962 0.15544 0.72391 0.0
C195 C 0.8157 0.12739 0.73116 0.0
C196 C 0.71645 0.21885 0.81512 0.0
O197 O 0.68927 0.24461 0.70256 0.0
O198 O 0.73055 0.20009 0.6974 0.0
O199 O 0.74719 0.207 0.79914 0.0
O200 O 0.70633 0.25141 0.80322 0.0
O201 O 0.82271 0.26917 0.81236 0.0
H202 H 0.75681 0.13687 0.75286 0.0
H203 H 0.86402 0.22408 0.73113 0.0
O204 O 0.78347 0.31498 0.81818 0.0
O205 O 0.76617 0.30906 0.71664 0.0
O206 O 0.80632 0.26434 0.71126 0.0
C207 C 0.79593 0.29668 0.69854 0.0
H208 H 0.67751 0.4088 0.75815 0.0
H209 H 0.81044 0.09246 0.72369 0.0
Co210 Co 0.72304 0.73581 0.72226 0.0
C211 C 0.7293 0.80679 0.80225 0.0
Co212 Co 0.78458 0.78734 0.74044 0.0
C213 C 0.65025 0.6759 0.73575 0.0
C214 C 0.63985 0.67821 0.65811 0.0
N215 N 0.66946 0.69454 0.70422 0.0
N216 N 0.60989 0.64895 0.71129 0.0
C217 C 0.60275 0.65029 0.66247 0.0
H218 H 0.66524 0.68242 0.77611 0.0
H219 H 0.64483 0.68623 0.62366 0.0
C220 C 0.77608 0.71623 0.6578 0.0
N221 N 0.83969 0.82837 0.7588 0.0
C222 C 0.85129 0.87006 0.75629 0.0
C223 C 0.87827 0.81966 0.77414 0.0
N224 N 0.89572 0.88805 0.76995 0.0
C225 C 0.91221 0.85565 0.78086 0.0
C226 C 0.78949 0.71834 0.787 0.0
O227 O 0.73867 0.70383 0.66617 0.0
O228 O 0.80179 0.75275 0.68629 0.0
O229 O 0.80939 0.75604 0.78532 0.0
O230 O 0.74884 0.70308 0.76369 0.0
O231 O 0.76641 0.82187 0.79385 0.0
H232 H 0.882 0.78823 0.77722 0.0
H233 H 0.82727 0.88551 0.74208 0.0
O234 O 0.70745 0.76762 0.77853 0.0
O235 O 0.69694 0.76856 0.68081 0.0
O236 O 0.75886 0.81799 0.69514 0.0
C237 C 0.71755 0.80404 0.67404 0.0
H238 H 0.57313 0.63223 0.63246 0.0
H239 H 0.94655 0.85617 0.78875 0.0
Cd240 Cd 0.02403 0.96598 0.56806 0.0
Cd241 Cd 0.99552 0.02594 0.43518 0.0
C242 C 0.11372 0.93505 0.56761 0.0
N243 N 0.07855 0.93237 0.58795 0.0
C244 C 0.10424 0.88903 0.63935 0.0
C245 C 0.14117 0.89205 0.61999 0.0
C246 C 0.14597 0.91503 0.58348 0.0
C247 C 0.07305 0.90936 0.6225 0.0
H248 H 0.11669 0.95237 0.53899 0.0
H249 H 0.04423 0.90649 0.63685 0.0
C250 C 0.94943 0.92043 0.45774 0.0
C251 C 0.89668 0.0363 0.42305 0.0
C252 C 0.86703 0.05987 0.41011 0.0
C253 C 0.88333 0.10477 0.41568 0.0
C254 C 0.92777 0.12608 0.44021 0.0
C255 C 0.95586 0.10155 0.45369 0.0
N256 N 0.94023 0.05749 0.44245 0.0
H257 H 0.88571 1.00104 0.41315 0.0
H258 H 0.99097 0.11691 0.46795 0.0
C259 C 0.98426 0.93813 0.34814 0.0
N260 N 0.01228 0.96893 0.38999 0.0
C261 C 0.07196 0.94008 0.38008 0.0
C262 C 0.04405 0.90781 0.33692 0.0
C263 C 0.99958 0.9063 0.321 0.0
C264 C 0.05521 0.97055 0.40627 0.0
H265 H 0.95042 0.9386 0.33588 0.0
H266 H 0.07659 0.99639 0.43883 0.0
C267 C 0.08215 0.05356 0.54009 0.0
C268 C 0.99054 0.95819 0.6533 0.0
N269 N 1.0026 0.02847 0.5794 0.0
C270 C 0.02621 0.06151 0.62151 0.0
C271 C 0.00792 0.09381 0.64072 0.0
C272 C 0.96352 0.08888 0.61913 0.0
C273 C 0.94087 0.05674 0.57339 0.0
C274 C 0.96158 0.02675 0.55367 0.0
C275 C 0.02422 0.0675 0.36512 0.0
O276 O 0.967 0.91187 0.4979 0.0
O277 O 0.9652 0.9567 0.44984 0.0
O278 O 0.05174 0.06253 0.51132 0.0
O279 O 0.07933 0.01372 0.53816 0.0
O280 O 0.97083 0.93387 0.60856 0.0
O281 O 0.02758 0.98511 0.65925 0.0
O282 O 0.04968 0.0723 0.40848 0.0
O283 O 0.98461 0.04401 0.35465 0.0
H284 H 0.05738 0.06029 0.64318 0.0
H285 H 0.94317 0.99949 0.52148 0.0
H286 H 0.09943 0.87072 0.66689 0.0
H287 H 0.17393 0.91701 0.5673 0.0
H288 H 0.8328 0.04273 0.39108 0.0
H289 H 0.94124 0.16061 0.44479 0.0
H290 H 0.10654 0.94204 0.3928 0.0
H291 H 0.97759 0.88162 0.28758 0.0
H292 H 0.02585 0.11833 0.67625 0.0
H293 H 0.9064 0.05235 0.55598 0.0
Cd294 Cd 0.45348 0.97631 0.06199 0.0
Cd295 Cd 0.56008 0.04031 0.95297 0.0
C296 C 0.55098 0.97029 0.11054 0.0
N297 N 0.51152 0.94576 0.07812 0.0
C298 C 0.54087 0.88524 0.05785 0.0
C299 C 0.58293 0.91182 0.08691 0.0
C300 C 0.58766 0.955 0.11288 0.0
C301 C 0.50563 0.9036 0.05238 0.0
H302 H 0.55473 0.00181 0.13488 0.0
H303 H 0.47368 0.88441 0.02752 0.0
C304 C 0.46954 0.96089 0.93492 0.0
C305 C 0.48832 0.07495 0.88541 0.0
C306 C 0.45724 0.09786 0.87682 0.0
C307 C 0.43821 0.11328 0.91623 0.0
C308 C 0.44437 0.09595 0.95826 0.0
C309 C 0.4753 0.07317 0.96524 0.0
N310 N 0.49896 0.06576 0.93075 0.0
H311 H 0.5043 0.06514 0.85612 0.0
H312 H 0.47997 0.06192 -0.00124 0.0
C313 C 0.59493 0.97173 0.8847 0.0
N314 N 0.59865 0.98727 0.93527 0.0
C315 C 0.64973 0.9463 0.95551 0.0
C316 C 0.64599 0.92937 0.90333 0.0
C317 C 0.61839 0.94295 0.86793 0.0
C318 C 0.62564 0.97539 0.97078 0.0
H319 H 0.57388 0.98213 0.8572 0.0
H320 H 0.62884 0.98874 0.01089 0.0
C321 C 0.54384 0.0617 0.08565 0.0
C322 C 0.40487 0.91038 0.10177 0.0
N323 N 0.40897 0.02506 0.07373 0.0
C324 C 0.40696 0.04176 0.12221 0.0
C325 C 0.38107 0.07016 0.13205 0.0
C326 C 0.35708 0.08165 0.09163 0.0
C327 C 0.35954 0.06391 0.04195 0.0
C328 C 0.38562 0.03533 0.03377 0.0
C329 C 0.61572 0.10555 0.9157 0.0
O330 O 0.47637 0.97906 0.98195 0.0
O331 O 0.4959 0.97553 0.90996 0.0
O332 O 0.54197 0.04659 0.03874 0.0
O333 O 0.51316 0.04438 0.10392 0.0
O334 O 0.39412 0.90826 0.05424 0.0
O335 O 0.43711 0.94266 0.12963 0.0
O336 O 0.62115 0.10907 0.96328 0.0
O337 O 0.58527 0.07262 0.88629 0.0
H338 H 0.42561 0.03305 0.1534 0.0
H339 H 0.38739 0.02154 0.99556 0.0
H340 H 0.53578 0.85136 0.03825 0.0
H341 H 0.61935 0.97633 0.13652 0.0
H342 H 0.44877 0.10245 0.83931 0.0
H343 H 0.42578 0.0996 0.98624 0.0
H344 H 0.67104 0.93711 0.98406 0.0
H345 H 0.61467 0.93097 0.82741 0.0
H346 H 0.38014 0.08341 0.17087 0.0
H347 H 0.34174 0.07237 0.00991 0.0
Cd348 Cd 0.97764 0.48444 0.06011 0.0
Cd349 Cd 0.02472 0.54166 0.91988 0.0
C350 C 0.06075 0.45999 0.12915 0.0
N351 N 0.03577 0.4512 0.08044 0.0
C352 C 0.06815 0.39372 0.05307 0.0
C353 C 0.09339 0.40126 0.10319 0.0
C354 C 0.08989 0.43538 0.14135 0.0
C355 C 0.03945 0.41911 0.04253 0.0
H356 H 0.05687 0.48503 0.15896 0.0
H357 H 0.01875 0.41203 0.00431 0.0
C358 C 0.95182 0.45978 0.92526 0.0
C359 C 0.96094 0.58174 0.84501 0.0
C360 C 0.93051 0.60425 0.82995 0.0
C361 C 0.90597 0.61881 0.86302 0.0
C362 C 0.91237 0.6094 0.91051 0.0
C363 C 0.94336 0.58698 0.92419 0.0
N364 N 0.96715 0.57376 0.89164 0.0
H365 H 0.98027 0.57136 0.81973 0.0
H366 H 0.94897 0.58075 0.96126 0.0
C367 C 0.06127 0.47822 0.83652 0.0
N368 N 0.06064 0.48965 0.88638 0.0
C369 C 0.10348 0.44092 0.90519 0.0
C370 C 0.10483 0.42868 0.85415 0.0
C371 C 0.08336 0.4477 0.81955 0.0
C372 C 0.08128 0.47164 0.92055 0.0
H373 H 0.04479 0.49288 0.80991 0.0
H374 H 0.08037 0.4811 0.95995 0.0
C375 C 0.05376 0.5651 0.05877 0.0
C376 C 0.92199 0.4099 0.06816 0.0
N377 N 0.93828 0.53297 0.0945 0.0
C378 C 0.95917 0.57151 0.13093 0.0
C379 C 0.93509 0.5991 0.14988 0.0
C380 C 0.88894 0.58682 0.13186 0.0
C381 C 0.86819 0.54666 0.09487 0.0
C382 C 0.89355 0.52031 0.07654 0.0
C383 C 0.09159 0.61685 0.93389 0.0
O384 O 0.97064 0.4823 0.97067 0.0
O385 O 0.96363 0.4736 0.88949 0.0
O386 O 0.03255 0.54839 0.01217 0.0
O387 O 0.04051 0.54822 0.09192 0.0
O388 O 0.91982 0.41711 0.0248 0.0
O389 O 0.94847 0.43866 0.10727 0.0
O390 O 0.08891 0.59811 0.96894 0.0
O391 O 0.06446 0.59864 0.89016 0.0
H392 H 0.99459 0.5811 0.14547 0.0
H393 H 0.87743 0.48955 0.04789 0.0
H394 H 0.06941 0.36738 0.02273 0.0
H395 H 0.10837 0.44185 0.18057 0.0
H396 H 0.92643 0.61063 0.79293 0.0
H397 H 0.89394 0.61977 0.93698 0.0
H398 H 0.11969 0.42703 0.93297 0.0
H399 H 0.08379 0.43909 0.77988 0.0
H400 H 0.95234 0.62985 0.17828 0.0
H401 H 0.83269 0.53603 0.07989 0.0
Cd402 Cd 0.49578 0.44018 0.04394 0.0
Cd403 Cd 0.52152 0.53203 0.92383 0.0
C404 C 0.59583 0.44351 0.07414 0.0
N405 N 0.55728 0.41565 0.04281 0.0
C406 C 0.58301 0.354 0.05133 0.0
C407 C 0.6218 0.38187 0.08675 0.0
C408 C 0.62915 0.42718 0.09608 0.0
C409 C 0.5509 0.37175 0.02951 0.0
H410 H 0.59893 0.47803 0.08618 0.0
H411 H 0.51902 0.3504 0.00679 0.0
C412 C 0.4786 0.42809 0.90535 0.0
C413 C 0.42535 0.53963 0.92135 0.0
C414 C 0.38997 0.55707 0.9112 0.0
C415 C 0.39865 0.60133 0.91274 0.0
C416 C 0.44204 0.62821 0.93053 0.0
C417 C 0.47626 0.60963 0.94138 0.0
N418 N 0.46734 0.56584 0.93493 0.0
H419 H 0.41948 0.50474 0.91351 0.0
H420 H 0.50981 0.62957 0.9499 0.0
C421 C 0.61435 0.52974 0.91129 0.0
N422 N 0.59457 0.53162 0.94992 0.0
C423 C 0.65232 0.5121 0.00013 0.0
C424 C 0.66868 0.50284 0.95738 0.0
C425 C 0.65172 0.5155 0.91422 0.0
C426 C 0.61384 0.52524 0.99496 0.0
H427 H 0.59862 0.53461 0.87592 0.0
H428 H 0.598 0.52682 0.02549 0.0
C429 C 0.52763 0.54351 0.05715 0.0
C430 C 0.49538 0.40306 0.12625 0.0
N431 N 0.42538 0.44687 0.0356 0.0
C432 C 0.4141 0.45188 0.08045 0.0
C433 C 0.386 0.47695 0.09055 0.0
C434 C 0.36927 0.49649 0.05389 0.0
C435 C 0.37541 0.48496 0.00493 0.0
C436 C 0.40516 0.46076 0.99697 0.0
C437 C 0.5321 0.56627 0.84164 0.0
O438 O 0.49073 0.44118 0.95385 0.0
O439 O 0.48777 0.45598 0.88095 0.0
O440 O 0.5189 0.52623 0.00948 0.0
O441 O 0.52347 0.51778 0.08511 0.0
O442 O 0.47306 0.38049 0.08107 0.0
O443 O 0.51547 0.4426 0.13155 0.0
O444 O 0.55158 0.58887 0.88745 0.0
O445 O 0.50639 0.52853 0.83456 0.0
H446 H 0.43113 0.4415 0.11096 0.0
H447 H 0.41544 0.45709 0.9622 0.0
H448 H 0.57621 0.3189 0.04376 0.0
H449 H 0.65868 0.44947 0.12338 0.0
H450 H 0.35667 0.53562 0.89696 0.0
H451 H 0.44956 0.66245 0.93155 0.0
H452 H 0.666 0.50465 0.03495 0.0
H453 H 0.66357 0.50906 0.88038 0.0
H454 H 0.38124 0.48485 0.12855 0.0
H455 H 0.36181 0.49888 0.97563 0.0
Cd456 Cd 0.95217 0.47638 0.55844 0.0
Cd457 Cd 0.05834 0.54224 0.44813 0.0
C458 C 0.03007 0.43445 0.54512 0.0
N459 N 0.98579 0.42104 0.53806 0.0
C460 C 0.98767 0.34688 0.52663 0.0
C461 C 0.03374 0.36098 0.53738 0.0
C462 C 0.05476 0.40489 0.54477 0.0
C463 C 0.96401 0.37791 0.52703 0.0
H464 H 0.04683 0.46831 0.55338 0.0
H465 H 0.92874 0.36778 0.5214 0.0
C466 C 0.96551 0.46485 0.42955 0.0
C467 C 0.98502 0.58115 0.38752 0.0
C468 C 0.94875 0.59775 0.37772 0.0
C469 C 0.92543 0.60446 0.4147 0.0
C470 C 0.93909 0.59474 0.46078 0.0
C471 C 0.97554 0.57854 0.46909 0.0
N472 N 0.99796 0.57215 0.43283 0.0
H473 H 1.00241 0.57491 0.35865 0.0
H474 H 0.98498 0.5702 0.50426 0.0
C475 C 0.09179 0.45133 0.44562 0.0
N476 N 0.10199 0.49129 0.43677 0.0
C477 C 0.16078 0.47422 0.40285 0.0
C478 C 0.14827 0.43137 0.4069 0.0
C479 C 0.1139 0.42037 0.42992 0.0
C480 C 0.13689 0.50335 0.41733 0.0
H481 H 0.06576 0.44312 0.46356 0.0
H482 H 0.14569 0.53523 0.41136 0.0
C483 C 0.05313 0.55026 0.58311 0.0
C484 C 0.89799 0.41767 0.60457 0.0
N485 N 0.91276 0.53038 0.56318 0.0
C486 C 0.93142 0.56822 0.6012 0.0
C487 C 0.90822 0.59928 0.61048 0.0
C488 C 0.86549 0.59188 0.5799 0.0
C489 C 0.8476 0.55322 0.53972 0.0
C490 C 0.87141 0.52234 0.5329 0.0
C491 C 0.11497 0.60398 0.40744 0.0
O492 O 0.97367 0.48233 0.47716 0.0
O493 O 0.99174 0.47931 0.40421 0.0
O494 O 0.04474 0.53971 0.5346 0.0
O495 O 0.02486 0.53318 0.60503 0.0
O496 O 0.88473 0.41909 0.55862 0.0
O497 O 0.9354 0.44434 0.62999 0.0
O498 O 0.11891 0.61074 0.45537 0.0
O499 O 0.08442 0.57039 0.37925 0.0
H500 H 0.96388 0.57371 0.62565 0.0
H501 H 0.85626 0.4913 0.50465 0.0
H502 H 0.97067 0.31293 0.52091 0.0
H503 H 0.09032 0.41658 0.55303 0.0
H504 H 0.93871 0.60481 0.34158 0.0
H505 H 0.92143 0.59921 0.48981 0.0
H506 H 0.18738 0.48438 0.3859 0.0
H507 H 0.1035 0.38791 0.43438 0.0
H508 H 0.9232 0.6285 0.64192 0.0
H509 H 0.81472 0.54617 0.51529 0.0
Cd510 Cd 0.47457 0.98027 0.56869 0.0
Cd511 Cd 0.5221 0.03802 0.42197 0.0
C512 C 0.55727 0.95785 0.64388 0.0
N513 N 0.53656 0.95277 0.59424 0.0
C514 C 0.57864 0.90458 0.56638 0.0
C515 C 0.5998 0.90833 0.61712 0.0
C516 C 0.58917 0.93591 0.65619 0.0
C517 C 0.54704 0.92697 0.55583 0.0
H518 H 0.54814 0.97787 0.67403 0.0
H519 H 0.52981 0.92275 0.51681 0.0
C520 C 0.45246 0.95281 0.43228 0.0
C521 C 0.45863 0.076 0.34297 0.0
C522 C 0.42983 0.09998 0.32735 0.0
C523 C 0.40723 0.11796 0.36085 0.0
C524 C 0.41367 0.11024 0.40922 0.0
C525 C 0.44283 0.08614 0.42335 0.0
N526 N 0.46496 0.06974 0.39049 0.0
H527 H 0.47686 0.06339 0.31753 0.0
H528 H 0.44869 0.0815 0.46119 0.0
C529 C 0.55141 0.96812 0.3364 0.0
N530 N 0.55732 0.9848 0.38744 0.0
C531 C 0.60341 0.93849 0.40552 0.0
C532 C 0.59803 0.92083 0.35323 0.0
C533 C 0.5717 0.93615 0.31844 0.0
C534 C 0.58289 0.97058 0.42181 0.0
H535 H 0.53086 0.97952 0.30951 0.0
H536 H 0.587 0.98388 0.46214 0.0
C537 C 0.54505 0.06603 0.56127 0.0
C538 C 0.41888 0.90277 0.57163 0.0
N539 N 0.43529 0.0296 0.60216 0.0
C540 C 0.43206 0.03665 0.6512 0.0
C541 C 0.40879 0.06541 0.66982 0.0
C542 C 0.38856 0.08718 0.63776 0.0
C543 C 0.39255 0.07942 0.58747 0.0
C544 C 0.4161 0.05047 0.57043 0.0
C545 C 0.58893 0.1133 0.43403 0.0
O546 O 0.46863 0.97587 0.4781 0.0
O547 O 0.46445 0.9677 0.39716 0.0
O548 O 0.52687 0.04716 0.51418 0.0
O549 O 0.53152 0.04896 0.59428 0.0
O550 O 0.41742 0.91312 0.53002 0.0
O551 O 0.44447 0.92999 0.61252 0.0
O552 O 0.58672 0.09611 0.47054 0.0
O553 O 0.56204 0.09332 0.39057 0.0
H554 H 0.44748 0.01989 0.67595 0.0
H555 H 0.41902 0.04456 0.53166 0.0
H556 H 0.58576 0.88366 0.53514 0.0
H557 H 0.60466 0.93964 0.69581 0.0
H558 H 0.42564 0.10494 0.28962 0.0
H559 H 0.39673 0.12326 0.43608 0.0
H560 H 0.62353 0.92769 0.43354 0.0
H561 H 0.56692 0.92348 0.27782 0.0
H562 H 0.40647 0.07052 0.70883 0.0
H563 H 0.37745 0.09554 0.56158 0.0
C564 C 0.07477 0.08042 0.25658 0.0
C565 C 0.08547 0.12619 0.26496 0.0
C566 C 0.0535 0.13358 0.33773 0.0
C567 C 0.04107 0.08751 0.32789 0.0
N568 N 0.03161 0.01639 0.27219 0.0
N569 N 0.07729 0.1956 0.3053 0.0
C570 C 0.04872 0.06067 0.28517 0.0
C571 C 0.07253 0.15262 0.30322 0.0
N572 N 0.09207 0.05622 0.22376 0.0
N573 N 0.04755 0.15906 0.38023 0.0
H574 H 0.08988 0.20989 0.27926 0.0
H575 H 0.06517 0.216 0.32952 0.0
H576 H 0.03115 0.14617 0.40465 0.0
H577 H 0.06082 0.19281 0.39279 0.0
H578 H 0.08949 0.02331 0.22016 0.0
H579 H 0.11259 0.06992 0.20346 0.0
H580 H 0.03153 0.99599 0.2378 0.0
H581 H 0.01418 1.00026 0.29352 0.0
C582 C 0.82976 0.19272 0.39011 0.0
C583 C 0.81276 0.17762 0.33623 0.0
C584 C 0.84378 0.116 0.33448 0.0
C585 C 0.85642 0.12822 0.38863 0.0
N586 N 0.85453 0.17369 0.46826 0.0
N587 N 0.79435 0.11927 0.25872 0.0
C588 C 0.84718 0.16521 0.41657 0.0
C589 C 0.81687 0.13749 0.30889 0.0
N590 N 0.83161 0.23404 0.41577 0.0
N591 N 0.85957 0.0858 0.30723 0.0
H592 H 0.77353 0.1335 0.2385 0.0
H593 H 0.7928 0.08785 0.23877 0.0
H594 H 0.8813 0.07056 0.32408 0.0
H595 H 0.85486 0.07934 0.26788 0.0
H596 H 0.84822 0.24819 0.45412 0.0
H597 H 0.8204 0.25591 0.39797 0.0
H598 H 0.84489 0.19806 0.49025 0.0
H599 H 0.86627 0.15338 0.48837 0.0
C600 C 0.83218 0.8583 0.38264 0.0
C601 C 0.84002 0.83274 0.33894 0.0
C602 C 0.9189 0.85719 0.37997 0.0
C603 C 0.91161 0.88781 0.41937 0.0
N604 N 0.86179 0.91801 0.4598 0.0
N605 N 0.89075 0.80942 0.29397 0.0
C606 C 0.86834 0.88858 0.42112 0.0
C607 C 0.88343 0.83279 0.33688 0.0
N608 N 0.79042 0.85226 0.38856 0.0
N609 N 0.95924 0.84982 0.38512 0.0
H610 H 0.86534 0.79018 0.26211 0.0
H611 H 0.92208 0.81166 0.28855 0.0
H612 H 0.98566 0.86695 0.41682 0.0
H613 H 0.96508 0.82415 0.36053 0.0
H614 H 0.78325 0.86604 0.42214 0.0
H615 H 0.76288 0.83066 0.36129 0.0
H616 H 0.83158 0.92435 0.45961 0.0
H617 H 0.88714 0.93744 0.49148 0.0
C618 C 0.10386 0.86267 0.24516 0.0
C619 C 0.12864 0.8441 0.27742 0.0
C620 C 0.0819 0.85011 0.33517 0.0
C621 C 0.06337 0.87703 0.30885 0.0
N622 N 0.0569 0.9102 0.23893 0.0
N623 N 0.14418 0.82172 0.35466 0.0
C624 C 0.07339 0.88277 0.26296 0.0
C625 C 0.11778 0.83704 0.3222 0.0
N626 N 0.11071 0.8619 0.19821 0.0
N627 N 0.06654 0.83908 0.37417 0.0
H628 H 0.17182 0.81295 0.34737 0.0
H629 H 0.14083 0.82086 0.39088 0.0
H630 H 0.04203 0.8507 0.38651 0.0
H631 H 0.07554 0.81594 0.39136 0.0
H632 H 0.09127 0.87182 0.17086 0.0
H633 H 0.13359 0.8475 0.18519 0.0
H634 H 0.06786 0.92012 0.20945 0.0
H635 H 0.0338 0.92505 0.25013 0.0
C636 C 0.1789 0.79788 0.64742 0.0
C637 C 0.21799 0.81948 0.68698 0.0
C638 C 0.21118 0.89025 0.67698 0.0
C639 C 0.17268 0.86832 0.63656 0.0
N640 N 0.12715 0.80215 0.57381 0.0
N641 N 0.27726 0.88456 0.73165 0.0
C642 C 0.15922 0.82231 0.61839 0.0
C643 C 0.23619 0.86524 0.69919 0.0
N644 N 0.15899 0.75464 0.63975 0.0
N645 N 0.22251 0.9346 0.69565 0.0
H646 H 0.29637 0.86678 0.748 0.0
H647 H 0.29385 0.91737 0.73873 0.0
H648 H 0.20553 0.95395 0.67929 0.0
H649 H 0.24711 0.95191 0.72897 0.0
H650 H 0.12807 0.73821 0.61483 0.0
H651 H 0.17151 0.73616 0.662 0.0
H652 H 0.11877 0.76878 0.55629 0.0
H653 H 0.1121 0.81953 0.55178 0.0
C654 C 0.15086 0.11027 0.67611 0.0
C655 C 0.14076 0.15069 0.68195 0.0
C656 C 0.1031 0.13109 0.5925 0.0
C657 C 0.11109 0.0895 0.58549 0.0
N658 N 0.15645 0.04661 0.61702 0.0
N659 N 0.09221 0.19046 0.65222 0.0
C660 C 0.1387 0.08068 0.62649 0.0
C661 C 0.11115 0.15745 0.64221 0.0
N662 N 0.17101 0.10002 0.71808 0.0
N663 N 0.09194 0.1473 0.55194 0.0
H664 H 0.09819 0.20989 0.6894 0.0
H665 H 0.06772 0.19505 0.62482 0.0
H666 H 0.0931 0.13211 0.51539 0.0
H667 H 0.08842 0.1787 0.55613 0.0
H668 H 0.17687 0.0699 0.71725 0.0
H669 H 0.17671 0.11988 0.75482 0.0
H670 H 0.17865 0.03961 0.6446 0.0
H671 H 0.15417 0.02939 0.57999 0.0
C672 C 0.91157 0.12478 0.72503 0.0
C673 C 0.88179 0.14369 0.70004 0.0
C674 C 0.9136 0.13624 0.62775 0.0
C675 C 0.93839 0.11091 0.64908 0.0
N676 N 0.95272 0.0724 0.71363 0.0
N677 N 0.84722 0.15891 0.62304 0.0
C678 C 0.93556 0.10295 0.69682 0.0
C679 C 0.88089 0.14751 0.65021 0.0
N680 N 0.91649 0.1275 0.77558 0.0
N681 N 0.92141 0.14968 0.58646 0.0
H682 H 0.82101 0.16493 0.63716 0.0
H683 H 0.84306 0.15794 0.58464 0.0
H684 H 0.94542 0.14195 0.56898 0.0
H685 H 0.90741 0.17237 0.57354 0.0
H686 H 0.94082 0.11752 0.79692 0.0
H687 H 0.89906 0.14373 0.79706 0.0
H688 H 0.9473 0.06283 0.74573 0.0
H689 H 0.96814 0.05301 0.69294 0.0
C690 C 0.90206 0.94587 0.72424 0.0
C691 C 0.92131 0.92675 0.76035 0.0
C692 C 0.9922 0.94898 0.74143 0.0
C693 C 0.96968 0.95585 0.69565 0.0
N694 N 0.90486 0.96913 0.64791 0.0
N695 N 0.98771 0.93814 0.82418 0.0
C696 C 0.92516 0.95739 0.68869 0.0
C697 C 0.96773 0.93794 0.77605 0.0
N698 N 0.86468 0.95748 0.72803 0.0
N699 N 0.03537 0.94895 0.74985 0.0
H700 H 0.96918 0.93115 0.84964 0.0
H701 H 0.02168 0.94929 0.83997 0.0
H702 H 0.05476 0.95632 0.72555 0.0
H703 H 0.05138 0.93897 0.77972 0.0
H704 H 0.85042 0.97453 0.705 0.0
H705 H 0.85215 0.95566 0.75951 0.0
H706 H 0.8711 0.96545 0.6376 0.0
H707 H 0.92175 0.98166 0.62368 0.0
C708 C 0.26124 0.13042 0.10768 0.0
C709 C 0.28361 0.17585 0.1246 0.0
C710 C 0.35198 0.15907 0.11216 0.0
C711 C 0.33113 0.11384 0.10154 0.0
N712 N 0.26632 0.05579 0.09105 0.0
N713 N 0.34254 0.23095 0.1151 0.0
C714 C 0.28569 0.09929 0.09927 0.0
C715 C 0.32689 0.18962 0.11881 0.0
N716 N 0.21628 0.11726 0.09571 0.0
N717 N 0.39618 0.17304 0.11704 0.0
H718 H 0.32261 0.25182 0.11222 0.0
H719 H 0.37246 0.24214 0.10697 0.0
H720 H 0.41558 0.15186 0.11109 0.0
H721 H 0.41413 0.20572 0.12959 0.0
H722 H 0.19747 0.08492 0.07999 0.0
H723 H 0.19751 0.13931 0.0947 0.0
H724 H 0.23502 0.04334 0.0952 0.0
H725 H 0.28287 0.03215 0.08354 0.0
C726 C 0.86236 0.34331 0.13699 0.0
C727 C 0.86624 0.30127 0.1154 0.0
C728 C 0.89934 0.32854 0.05293 0.0
C729 C 0.89454 0.37019 0.07445 0.0
N730 N 0.85746 0.41261 0.12303 0.0
N731 N 0.87866 0.25101 0.04701 0.0
C732 C 0.87094 0.3758 0.11159 0.0
C733 C 0.88131 0.29291 0.07107 0.0
N734 N 0.85383 0.35334 0.18357 0.0
N735 N 0.92328 0.32359 0.01792 0.0
H736 H 0.86618 0.22477 0.06067 0.0
H737 H 0.88541 0.24205 0.01181 0.0
H738 H 0.93663 0.34871 0.00324 0.0
H739 H 0.93193 0.29511 0.00538 0.0
H740 H 0.85487 0.38483 0.20271 0.0
H741 H 0.85071 0.33176 0.20596 0.0
H742 H 0.83679 0.41666 0.1469 0.0
H743 H 0.86302 0.43676 0.10405 0.0
C744 C 0.6772 0.8663 0.05775 0.0
C745 C 0.70002 0.86929 0.108 0.0
C746 C 0.64952 0.90327 0.14276 0.0
C747 C 0.62247 0.89548 0.09277 0.0
N748 N 0.61232 0.87217 0.00127 0.0
N749 N 0.72487 0.92042 0.19094 0.0
C750 C 0.63693 0.87803 0.04958 0.0
C751 C 0.69171 0.89736 0.14849 0.0
N752 N 0.69686 0.85703 0.01934 0.0
N753 N 0.63434 0.91384 0.18484 0.0
H754 H 0.75727 0.91929 0.19319 0.0
H755 H 0.72073 0.94389 0.22014 0.0
H756 H 0.60185 0.91445 0.18258 0.0
H757 H 0.65284 0.91694 0.22147 0.0
H758 H 0.68418 0.85734 0.98199 0.0
H759 H 0.72882 0.85378 0.0269 0.0
H760 H 0.61779 0.8539 0.96882 0.0
H761 H 0.58598 0.88523 0.99327 0.0
C762 C 0.16882 0.6173 0.13534 0.0
C763 C 0.17528 0.66183 0.1347 0.0
C764 C 0.10172 0.64193 0.07605 0.0
C765 C 0.09723 0.59762 0.07495 0.0
N766 N 0.13268 0.54214 0.08788 0.0
N767 N 0.15287 0.71304 0.09141 0.0
C768 C 0.13327 0.58508 0.09874 0.0
C769 C 0.1433 0.67313 0.10076 0.0
N770 N 0.19289 0.60558 0.17374 0.0
N771 N 0.06626 0.65435 0.05493 0.0
H772 H 0.18385 0.73567 0.10689 0.0
H773 H 0.13185 0.72152 0.06402 0.0
H774 H 0.03577 0.63196 0.0353 0.0
H775 H 0.06668 0.68691 0.05923 0.0
H776 H 0.18576 0.57378 0.17718 0.0
H777 H 0.21565 0.62753 0.20592 0.0
H778 H 0.1599 0.5318 0.10165 0.0
H779 H 0.10678 0.51775 0.06076 0.0
C780 C 0.35354 0.89019 0.8698 0.0
C781 C 0.36122 0.84856 0.8599 0.0
C782 C 0.43953 0.88051 0.90323 0.0
C783 C 0.43229 0.92225 0.9101 0.0
N784 N 0.38506 0.96864 0.89725 0.0
N785 N 0.4075 0.80196 0.87611 0.0
C786 C 0.38989 0.92763 0.89341 0.0
C787 C 0.40318 0.84307 0.87913 0.0
N788 N 0.3116 0.89387 0.85684 0.0
N789 N 0.48137 0.877 0.91837 0.0
H790 H 0.38108 0.7739 0.85981 0.0
H791 H 0.43609 0.79531 0.89304 0.0
H792 H 0.50855 0.90383 0.93777 0.0
H793 H 0.48999 0.84801 0.90992 0.0
H794 H 0.30311 0.92257 0.86845 0.0
H795 H 0.28418 0.86758 0.83693 0.0
H796 H 0.35624 0.97514 0.88075 0.0
H797 H 0.41108 0.99685 0.91426 0.0
C798 C 0.19637 0.38187 0.81662 0.0
C799 C 0.1766 0.33617 0.80582 0.0
C800 C 0.10879 0.35103 0.82389 0.0
C801 C 0.1295 0.39667 0.83737 0.0
N802 N 0.19486 0.45583 0.85376 0.0
N803 N 0.11556 0.277 0.80346 0.0
C804 C 0.17382 0.41212 0.83565 0.0
C805 C 0.13331 0.32074 0.81101 0.0
N806 N 0.23667 0.39649 0.8081 0.0
N807 N 0.0651 0.33671 0.82177 0.0
H808 H 0.13124 0.25369 0.79112 0.0
H809 H 0.08647 0.26375 0.81212 0.0
H810 H 0.04646 0.35785 0.83162 0.0
H811 H 0.04635 0.30428 0.80705 0.0
H812 H 0.25047 0.42867 0.8088 0.0
H813 H 0.25557 0.37596 0.7973 0.0
H814 H 0.22853 0.46904 0.85947 0.0
H815 H 0.17924 0.47899 0.86682 0.0
C816 C 0.64404 0.17699 0.82715 0.0
C817 C 0.69084 0.19284 0.84398 0.0
C818 C 0.6893 0.15129 0.90871 0.0
C819 C 0.64232 0.13843 0.89441 0.0
N820 N 0.57618 0.1508 0.84959 0.0
N821 N 0.75698 0.20242 0.90878 0.0
C822 C 0.62013 0.15478 0.85643 0.0
C823 C 0.71314 0.18211 0.88715 0.0
N824 N 0.62212 0.18092 0.7817 0.0
N825 N 0.71145 0.1326 0.94096 0.0
H826 H 0.77519 0.22575 0.89506 0.0
H827 H 0.77413 0.19948 0.94325 0.0
H828 H 0.69564 0.10959 0.95688 0.0
H829 H 0.74532 0.13698 0.94831 0.0
H830 H 0.58866 0.16565 0.76505 0.0
H831 H 0.63788 0.19538 0.7579 0.0
H832 H 0.55903 0.16554 0.82585 0.0
H833 H 0.55823 0.13746 0.87242 0.0
C834 C 0.84925 0.71039 0.85664 0.0
C835 C 0.81541 0.69093 0.81022 0.0
C836 C 0.83551 0.62182 0.80594 0.0
C837 C 0.87343 0.64328 0.84727 0.0
N838 N 0.91967 0.71047 0.90802 0.0
N839 N 0.78321 0.62889 0.73521 0.0
C840 C 0.8811 0.68825 0.87174 0.0
C841 C 0.81004 0.6467 0.78358 0.0
N842 N 0.85027 0.74954 0.88727 0.0
N843 N 0.82335 0.57735 0.78815 0.0
H844 H 0.76577 0.64568 0.71507 0.0
H845 H 0.78202 0.59856 0.71266 0.0
H846 H 0.84093 0.55802 0.80367 0.0
H847 H 0.79344 0.55952 0.7618 0.0
H848 H 0.87163 0.76347 0.92363 0.0
H849 H 0.82651 0.76571 0.87875 0.0
H850 H 0.92927 0.74424 0.9231 0.0
H851 H 0.9439 0.69573 0.91983 0.0
C852 C 0.1323 0.31846 0.1658 0.0
C853 C 0.1719 0.317 0.15054 0.0
C854 C 0.16022 0.37162 0.10383 0.0
C855 C 0.11974 0.37083 0.11686 0.0
N856 N 0.06171 0.334 0.14791 0.0
N857 N 0.21705 0.33494 0.09471 0.0
C858 C 0.10409 0.34116 0.14382 0.0
C859 C 0.18398 0.34157 0.11654 0.0
N860 N 0.1227 0.30121 0.20416 0.0
N861 N 0.17657 0.4018 0.08033 0.0
H862 H 0.2338 0.31209 0.1014 0.0
H863 H 0.22474 0.34856 0.06597 0.0
H864 H 0.1601 0.42399 0.07028 0.0
H865 H 0.20779 0.40687 0.07408 0.0
H866 H 0.0973 0.30624 0.22047 0.0
H867 H 0.14268 0.28656 0.22447 0.0
H868 H 0.04679 0.30905 0.16192 0.0
H869 H 0.03994 0.3499 0.13247 0.0
C870 C 0.19193 0.7115 0.95791 0.0
C871 C 0.1697 0.73948 0.93873 0.0
C872 C 0.10067 0.6962 0.94545 0.0
C873 C 0.1202 0.66139 0.94587 0.0
N874 N 0.18602 0.63766 0.96369 0.0
N875 N 0.11307 0.77349 0.95018 0.0
C876 C 0.16663 0.66978 0.95703 0.0
C877 C 0.12722 0.73698 0.94521 0.0
N878 N 0.23632 0.72585 0.9785 0.0
N879 N 0.05691 0.6896 0.94309 0.0
H880 H 0.13386 0.80319 0.95054 0.0
H881 H 0.08309 0.77511 0.95768 0.0
H882 H 0.03726 0.66052 0.94571 0.0
H883 H 0.03997 0.7125 0.93765 0.0
H884 H 0.25433 0.70787 0.99602 0.0
H885 H 0.2538 0.75798 0.98243 0.0
H886 H 0.21939 0.64111 0.96672 0.0
H887 H 0.16821 0.60687 0.9639 0.0
C888 C 0.3497 0.15407 0.85151 0.0
C889 C 0.32759 0.16376 0.89027 0.0
C890 C 0.38945 0.1568 0.95199 0.0
C891 C 0.40806 0.1423 0.91187 0.0
N892 N 0.42232 0.16559 0.83932 0.0
N893 N 0.32383 0.16656 0.97604 0.0
C894 C 0.39325 0.15181 0.8657 0.0
C895 C 0.34672 0.16232 0.94004 0.0
N896 N 0.32952 0.14426 0.80094 0.0
N897 N 0.41535 0.17265 0.00083 0.0
H898 H 0.29195 0.16991 0.96772 0.0
H899 H 0.33489 0.16222 0.01188 0.0
H900 H 0.44897 0.17503 0.00952 0.0
H901 H 0.40504 0.18915 0.03049 0.0
H902 H 0.34519 0.13371 0.77332 0.0
H903 H 0.29602 0.13808 0.78626 0.0
H904 H 0.413 0.17551 0.80663 0.0
H905 H 0.4563 0.1729 0.85462 0.0
C906 C 0.89839 0.33758 0.88179 0.0
C907 C 0.85401 0.33738 0.87783 0.0
C908 C 0.87667 0.41523 0.92117 0.0
C909 C 0.91935 0.41715 0.91423 0.0
N910 N 0.97317 0.3806 0.89338 0.0
N911 N 0.80569 0.36857 0.91901 0.0
C912 C 0.93113 0.37833 0.89681 0.0
C913 C 0.84463 0.37407 0.90583 0.0
N914 N 0.90928 0.29915 0.87457 0.0
N915 N 0.86647 0.45271 0.94048 0.0
H916 H 0.78406 0.3375 0.91126 0.0
H917 H 0.79718 0.39316 0.94208 0.0
H918 H 0.88926 0.48347 0.95215 0.0
H919 H 0.83509 0.45372 0.94333 0.0
H920 H 0.94153 0.29712 0.88013 0.0
H921 H 0.88642 0.26955 0.87017 0.0
H922 H 0.98251 0.35411 0.87542 0.0
H923 H 0.99853 0.40967 0.90668 0.0
C924 C 0.73403 0.87118 0.87619 0.0
C925 C 0.70827 0.83616 0.83279 0.0
C926 C 0.64207 0.85593 0.84847 0.0
C927 C 0.66826 0.89567 0.88431 0.0
N928 N 0.74123 0.94388 0.92716 0.0
N929 N 0.63698 0.8051 0.76983 0.0
C930 C 0.71491 0.90405 0.89712 0.0
C931 C 0.66196 0.83086 0.81691 0.0
N932 N 0.77625 0.87262 0.89848 0.0
N933 N 0.59796 0.84202 0.84413 0.0
H934 H 0.64993 0.79053 0.74165 0.0
H935 H 0.60397 0.80348 0.75599 0.0
H936 H 0.58243 0.85887 0.86776 0.0
H937 H 0.57825 0.81139 0.82124 0.0
H938 H 0.79506 0.89543 0.93264 0.0
H939 H 0.79054 0.84805 0.88622 0.0
H940 H 0.77536 0.95298 0.93335 0.0
H941 H 0.72882 0.96922 0.94194 0.0
C942 C 0.84046 0.65914 0.22003 0.0
C943 C 0.81119 0.67212 0.18455 0.0
C944 C 0.8393 0.63517 0.11596 0.0
C945 C 0.86257 0.61655 0.15027 0.0
N946 N 0.87877 0.60532 0.23413 0.0
N947 N 0.77977 0.66692 0.09574 0.0
C948 C 0.86125 0.62696 0.20207 0.0
C949 C 0.80993 0.65878 0.1317 0.0
N950 N 0.85079 0.67944 0.27101 0.0
N951 N 0.8464 0.63178 0.06864 0.0
H952 H 0.75866 0.68519 0.10443 0.0
H953 H 0.77334 0.65253 0.05677 0.0
H954 H 0.86814 0.61558 0.05586 0.0
H955 H 0.83424 0.64878 0.04405 0.0
H956 H 0.87487 0.67388 0.29792 0.0
H957 H 0.83968 0.70581 0.28571 0.0
H958 H 0.87444 0.60833 0.27071 0.0
H959 H 0.89379 0.58121 0.22248 0.0
C960 C 0.34664 0.80207 0.12606 0.0
C961 C 0.33971 0.81775 0.17474 0.0
C962 C 0.3693 0.89315 0.17114 0.0
C963 C 0.3806 0.8778 0.12504 0.0
N964 N 0.38747 0.81632 0.06424 0.0
N965 N 0.35639 0.87845 0.24923 0.0
C966 C 0.37124 0.83182 0.10393 0.0
C967 C 0.35457 0.86337 0.19886 0.0
N968 N 0.32853 0.75905 0.1 0.0
N969 N 0.37051 0.93603 0.18756 0.0
H970 H 0.34811 0.85774 0.27163 0.0
H971 H 0.37098 0.91095 0.27008 0.0
H972 H 0.37831 0.95854 0.16705 0.0
H973 H 0.35868 0.94802 0.21829 0.0
H974 H 0.3285 0.74653 0.06227 0.0
H975 H 0.31032 0.73651 0.11467 0.0
H976 H 0.38587 0.78354 0.051 0.0
H977 H 0.40638 0.83659 0.04775 0.0
C978 C 0.64558 0.1206 0.19142 0.0
C979 C 0.6687 0.14791 0.16688 0.0
C980 C 0.60475 0.12673 0.0944 0.0
C981 C 0.58157 0.09863 0.11829 0.0
N982 N 0.57464 0.08423 0.19882 0.0
N983 N 0.67575 0.16555 0.0887 0.0
C984 C 0.60032 0.09949 0.16944 0.0
C985 C 0.65004 0.14762 0.11638 0.0
N986 N 0.66748 0.11468 0.23568 0.0
N987 N 0.58237 0.13614 0.053 0.0
H988 H 0.70992 0.17685 0.10175 0.0
H989 H 0.66397 0.16438 0.05062 0.0
H990 H 0.54819 0.12451 0.0396 0.0
H991 H 0.59652 0.15999 0.03705 0.0
H992 H 0.65377 0.09152 0.25277 0.0
H993 H 0.70105 0.12975 0.25212 0.0
H994 H 0.5868 0.08693 0.23732 0.0
H995 H 0.54043 0.07554 0.18802 0.0
C996 C 0.55938 0.64642 0.76625 0.0
C997 C 0.581 0.62446 0.73428 0.0
C998 C 0.56206 0.55976 0.76464 0.0
C999 C 0.54202 0.58255 0.79859 0.0
N1000 N 0.5107 0.6417 0.82205 0.0
N1001 N 0.59536 0.55849 0.69375 0.0
C1002 C 0.53717 0.62413 0.79623 0.0
C1003 C 0.57935 0.58029 0.7301 0.0
N1004 N 0.56161 0.68909 0.76894 0.0
N1005 N 0.56756 0.52006 0.76784 0.0
H1006 H 0.61031 0.57352 0.66975 0.0
H1007 H 0.59096 0.52495 0.68462 0.0
H1008 H 0.55437 0.5027 0.79103 0.0
H1009 H 0.5873 0.50489 0.74935 0.0
H1010 H 0.55119 0.70892 0.79579 0.0
H1011 H 0.57585 0.70528 0.74526 0.0
H1012 H 0.503 0.67043 0.81902 0.0
H1013 H 0.49302 0.62523 0.84304 0.0
C1014 C 0.33352 0.68065 0.8929 0.0
C1015 C 0.31769 0.66762 0.83887 0.0
C1016 C 0.34945 0.60646 0.83363 0.0
C1017 C 0.36434 0.6187 0.88773 0.0
N1018 N 0.36036 0.65929 0.96892 0.0
N1019 N 0.29797 0.61074 0.76001 0.0
C1020 C 0.35259 0.65297 0.91739 0.0
C1021 C 0.32139 0.62797 0.80998 0.0
N1022 N 0.33343 0.72062 0.92054 0.0
N1023 N 0.3645 0.57675 0.8045 0.0
H1024 H 0.27662 0.62545 0.74142 0.0
H1025 H 0.2962 0.57968 0.73875 0.0
H1026 H 0.38623 0.56074 0.81956 0.0
H1027 H 0.35849 0.57084 0.76506 0.0
H1028 H 0.34872 0.73333 0.95939 0.0
H1029 H 0.32172 0.74297 0.90415 0.0
H1030 H 0.34904 0.68139 0.99208 0.0
H1031 H 0.37437 0.63922 0.98756 0.0
C1032 C 0.36654 0.35986 0.86716 0.0
C1033 C 0.35866 0.34402 0.81349 0.0
C1034 C 0.43802 0.37116 0.82315 0.0
C1035 C 0.44448 0.38644 0.87668 0.0
N1036 N 0.41847 0.37031 0.94722 0.0
N1037 N 0.38924 0.32534 0.74176 0.0
C1038 C 0.40994 0.37262 0.8981 0.0
C1039 C 0.39508 0.34694 0.79153 0.0
N1040 N 0.33276 0.36384 0.88871 0.0
N1041 N 0.47315 0.38005 0.80303 0.0
H1042 H 0.35863 0.30715 0.71732 0.0
H1043 H 0.41517 0.32262 0.72551 0.0
H1044 H 0.50535 0.39352 0.82621 0.0
H1045 H 0.47036 0.37501 0.76414 0.0
H1046 H 0.33797 0.37779 0.92762 0.0
H1047 H 0.30044 0.35724 0.86699 0.0
H1048 H 0.39364 0.35768 0.96329 0.0
H1049 H 0.45054 0.37563 0.96889 0.0
C1050 C 0.73085 0.4479 0.88555 0.0
C1051 C 0.69562 0.40907 0.86375 0.0
C1052 C 0.66526 0.42578 0.93604 0.0
C1053 C 0.69228 0.46919 0.9494 0.0
N1054 N 0.75793 0.51941 0.94791 0.0
N1055 N 0.62959 0.35968 0.86765 0.0
C1056 C 0.72851 0.47898 0.92859 0.0
C1057 C 0.66326 0.39721 0.88934 0.0
N1058 N 0.76559 0.45483 0.86447 0.0
N1059 N 0.6408 0.41261 0.9673 0.0
H1060 H 0.62695 0.33837 0.83267 0.0
H1061 H 0.60247 0.35148 0.88212 0.0
H1062 H 0.64447 0.43251 0.00326 0.0
H1063 H 0.62165 0.3807 0.96059 0.0
H1064 H 0.79297 0.482 0.87891 0.0
H1065 H 0.76787 0.4319 0.83337 0.0
H1066 H 0.78364 0.53104 0.93273 0.0
H1067 H 0.7557 0.54148 0.97994 0.0
C1068 C 0.69286 0.30964 0.1239 0.0
C1069 C 0.7031 0.32327 0.17826 0.0
C1070 C 0.65705 0.37311 0.17193 0.0
C1071 C 0.65169 0.36349 0.11845 0.0
N1072 N 0.67386 0.33012 0.04552 0.0
N1073 N 0.70489 0.37831 0.25283 0.0
C1074 C 0.6728 0.33431 0.09511 0.0
C1075 C 0.68821 0.35816 0.20195 0.0
N1076 N 0.69883 0.27149 0.09915 0.0
N1077 N 0.6311 0.39466 0.19411 0.0
H1078 H 0.7303 0.37064 0.27525 0.0
H1079 H 0.69756 0.40617 0.27089 0.0
H1080 H 0.60611 0.40431 0.17346 0.0
H1081 H 0.63122 0.39858 0.23232 0.0
H1082 H 0.6879 0.25847 0.05968 0.0
H1083 H 0.70941 0.25007 0.11794 0.0
H1084 H 0.69243 0.31224 0.02823 0.0
H1085 H 0.65991 0.3481 0.02351 0.0
C1086 C 0.62555 0.63626 0.10097 0.0
C1087 C 0.62444 0.65469 0.15138 0.0
C1088 C 0.54848 0.60917 0.13223 0.0
C1089 C 0.55115 0.59038 0.08239 0.0
N1090 N 0.58142 0.60766 0.01478 0.0
N1091 N 0.57977 0.66895 0.20947 0.0
C1092 C 0.58608 0.61097 0.06504 0.0
C1093 C 0.58422 0.6444 0.16554 0.0
N1094 N 0.66441 0.64005 0.08787 0.0
N1095 N 0.51211 0.59288 0.14756 0.0
H1096 H 0.60485 0.69598 0.23315 0.0
H1097 H 0.55015 0.66526 0.21971 0.0
H1098 H 0.48421 0.56961 0.12228 0.0
H1099 H 0.51007 0.60153 0.18508 0.0
H1100 H 0.66623 0.62446 0.05179 0.0
H1101 H 0.69462 0.6535 0.11496 0.0
H1102 H 0.60563 0.62477 0.00097 0.0
H1103 H 0.55114 0.59254 0.98879 0.0
C1104 C 0.38092 0.60712 0.13082 0.0
C1105 C 0.3446 0.59762 0.15149 0.0
C1106 C 0.31439 0.52608 0.08939 0.0
C1107 C 0.35279 0.53405 0.07181 0.0
N1108 N 0.41463 0.58643 0.06266 0.0
N1109 N 0.27164 0.5544 0.14412 0.0
C1110 C 0.38323 0.57625 0.08785 0.0
C1111 C 0.3094 0.55909 0.12835 0.0
N1112 N 0.41423 0.64469 0.15424 0.0
N1113 N 0.28427 0.48596 0.07053 0.0
H1114 H 0.26801 0.57797 0.17355 0.0
H1115 H 0.24316 0.52879 0.12638 0.0
H1116 H 0.28669 0.46227 0.0402 0.0
H1117 H 0.2578 0.47591 0.08526 0.0
H1118 H 0.44418 0.65157 0.14489 0.0
H1119 H 0.41298 0.66795 0.18572 0.0
H1120 H 0.43531 0.61773 0.06986 0.0
H1121 H 0.41751 0.56457 0.03117 0.0
C1122 C 0.45145 0.33067 0.20345 0.0
C1123 C 0.44195 0.36393 0.23734 0.0
C1124 C 0.49926 0.4169 0.21993 0.0
C1125 C 0.49138 0.38679 0.17163 0.0
N1126 N 0.47416 0.31079 0.12608 0.0
N1127 N 0.47295 0.43541 0.2956 0.0
C1128 C 0.47211 0.34204 0.16604 0.0
C1129 C 0.47158 0.40625 0.25179 0.0
N1130 N 0.44659 0.29057 0.21167 0.0
N1131 N 0.53369 0.45392 0.23566 0.0
H1132 H 0.45579 0.42584 0.32122 0.0
H1133 H 0.49035 0.4683 0.30604 0.0
H1134 H 0.5576 0.45894 0.21569 0.0
H1135 H 0.54179 0.47649 0.27113 0.0
H1136 H 0.45786 0.26671 0.19128 0.0
H1137 H 0.43888 0.28463 0.24463 0.0
H1138 H 0.4565 0.27809 0.11777 0.0
H1139 H 0.49377 0.31803 0.10177 0.0
C1140 C 0.83306 0.69919 0.60986 0.0
C1141 C 0.79259 0.68498 0.62261 0.0
C1142 C 0.79798 0.60978 0.60248 0.0
C1143 C 0.83916 0.62368 0.59154 0.0
N1144 N 0.88872 0.67934 0.56962 0.0
N1145 N 0.72752 0.62368 0.60063 0.0
C1146 C 0.85467 0.66785 0.59078 0.0
C1147 C 0.77205 0.63931 0.60935 0.0
N1148 N 0.85028 0.74244 0.61461 0.0
N1149 N 0.78409 0.56901 0.60858 0.0
H1150 H 0.70656 0.6435 0.59727 0.0
H1151 H 0.71104 0.59044 0.58816 0.0
H1152 H 0.80301 0.54704 0.6072 0.0
H1153 H 0.75581 0.55887 0.62048 0.0
H1154 H 0.88254 0.75602 0.61401 0.0
H1155 H 0.83181 0.76473 0.61864 0.0
H1156 H 0.89911 0.7098 0.56335 0.0
H1157 H 0.90407 0.65699 0.55378 0.0
C1158 C 0.33448 0.82078 0.60438 0.0
C1159 C 0.35343 0.78532 0.59868 0.0
C1160 C 0.40233 0.82169 0.55438 0.0
C1161 C 0.39152 0.8608 0.57302 0.0
N1162 N 0.34621 0.89813 0.61398 0.0
N1163 N 0.39981 0.74827 0.56126 0.0
C1164 C 0.357 0.86044 0.59714 0.0
C1165 C 0.38484 0.78429 0.57003 0.0
N1166 N 0.29437 0.8163 0.61446 0.0
N1167 N 0.4303 0.82085 0.52354 0.0
H1168 H 0.38567 0.72024 0.57105 0.0
H1169 H 0.4264 0.74646 0.54595 0.0
H1170 H 0.4449 0.84817 0.51297 0.0
H1171 H 0.43673 0.79249 0.50554 0.0
H1172 H 0.2781 0.84046 0.61549 0.0
H1173 H 0.27384 0.78646 0.61284 0.0
H1174 H 0.32548 0.901 0.63801 0.0
H1175 H 0.3599 0.92729 0.60619 0.0
C1176 C 0.12319 0.30652 0.52742 0.0
C1177 C 0.13482 0.30133 0.57728 0.0
C1178 C 0.07312 0.327 0.59733 0.0
C1179 C 0.06164 0.33215 0.54757 0.0
N1180 N 0.06711 0.31588 0.46119 0.0
N1181 N 0.11034 0.2906 0.65135 0.0
C1182 C 0.08373 0.31787 0.51108 0.0
C1183 C 0.10656 0.30667 0.6098 0.0
N1184 N 0.15101 0.30286 0.49682 0.0
N1185 N 0.05348 0.34313 0.63342 0.0
H1186 H 0.13222 0.27256 0.65961 0.0
H1187 H 0.08817 0.29041 0.67385 0.0
H1188 H 0.0278 0.35715 0.62558 0.0
H1189 H 0.06471 0.34516 0.67193 0.0
H1190 H 0.14539 0.30825 0.46089 0.0
H1191 H 0.18163 0.29772 0.50899 0.0
H1192 H 0.07935 0.30227 0.43164 0.0
H1193 H 0.0383 0.3244 0.44886 0.0
C1194 C 0.65232 0.12912 0.64945 0.0
C1195 C 0.65721 0.1723 0.64466 0.0
C1196 C 0.58795 0.14497 0.57684 0.0
C1197 C 0.58646 0.10181 0.57946 0.0
N1198 N 0.62607 0.05255 0.605 0.0
N1199 N 0.6344 0.2189 0.59418 0.0
C1200 C 0.62222 0.09396 0.61064 0.0
C1201 C 0.62649 0.17966 0.60527 0.0
N1202 N 0.6723 0.12161 0.69349 0.0
N1203 N 0.55233 0.15301 0.54891 0.0
H1204 H 0.663 0.24429 0.61297 0.0
H1205 H 0.61477 0.22451 0.56303 0.0
H1206 H 0.5243 0.12807 0.52685 0.0
H1207 H 0.54993 0.18441 0.54992 0.0
H1208 H 0.66699 0.09058 0.69926 0.0
H1209 H 0.68796 0.14658 0.72675 0.0
H1210 H 0.65344 0.04587 0.62537 0.0
H1211 H 0.60428 0.02597 0.57613 0.0
C1212 C 0.89564 0.34869 0.36901 0.0
C1213 C 0.85306 0.35475 0.35682 0.0
C1214 C 0.88413 0.43308 0.39793 0.0
C1215 C 0.92688 0.42712 0.40451 0.0
N1216 N 0.97376 0.37915 0.39783 0.0
N1217 N 0.80545 0.40205 0.36152 0.0
C1218 C 0.93267 0.38502 0.39039 0.0
C1219 C 0.84677 0.3967 0.37257 0.0
N1220 N 0.90209 0.30825 0.36105 0.0
N1221 N 0.87939 0.47355 0.41622 0.0
H1222 H 0.77696 0.37615 0.34865 0.0
H1223 H 0.79891 0.43205 0.36421 0.0
H1224 H 0.90597 0.50131 0.43294 0.0
H1225 H 0.84936 0.47977 0.41712 0.0
H1226 H 0.87678 0.27911 0.34787 0.0
H1227 H 0.87678 0.27911 0.34787 0.0
H1228 H 0.97917 0.3485 0.38806 0.0
H1229 H 1.00222 0.40495 0.4125 0.0
C1230 C 0.68591 0.8699 0.311 0.0
C1231 C 0.66641 0.82441 0.30411 0.0
C1232 C 0.60118 0.84233 0.32723 0.0
C1233 C 0.62124 0.88752 0.33542 0.0
N1234 N 0.68503 0.9452 0.34213 0.0
N1235 N 0.60952 0.76934 0.31769 0.0
C1236 C 0.66426 0.90146 0.32918 0.0
C1237 C 0.62532 0.81127 0.31598 0.0
N1238 N 0.72564 0.88326 0.30068 0.0
N1239 N 0.55831 0.82889 0.32874 0.0
H1240 H 0.62586 0.74567 0.31043 0.0
H1241 H 0.58235 0.75891 0.33125 0.0
H1242 H 0.53992 0.85059 0.33731 0.0
H1243 H 0.53975 0.79632 0.31734 0.0
H1244 H 0.7387 0.91435 0.29745 0.0
H1245 H 0.74569 0.863 0.29407 0.0
H1246 H 0.71819 0.95818 0.3448 0.0
H1247 H 0.66976 0.96913 0.3536 0.0
C1248 C 0.21927 0.66947 0.37815 0.0
C1249 C 0.20033 0.6777 0.33166 0.0
C1250 C 0.12637 0.64542 0.34121 0.0
C1251 C 0.14506 0.63238 0.38431 0.0
N1252 N 0.21095 0.62704 0.43904 0.0
N1253 N 0.1352 0.665 0.26391 0.0
C1254 C 0.19201 0.64327 0.40166 0.0
C1255 C 0.15369 0.6633 0.31189 0.0
N1256 N 0.26321 0.68798 0.40106 0.0
N1257 N 0.08249 0.64269 0.32943 0.0
H1258 H 0.15375 0.67673 0.24065 0.0
H1259 H 0.10197 0.65059 0.2452 0.0
H1260 H 0.06191 0.63226 0.35144 0.0
H1261 H 0.0677 0.65557 0.30164 0.0
H1262 H 0.27816 0.68759 0.43774 0.0
H1263 H 0.28408 0.70713 0.38526 0.0
H1264 H 0.24445 0.62941 0.44892 0.0
H1265 H 0.19295 0.608 0.45744 0.0
C1266 C 0.35652 0.21356 0.35279 0.0
C1267 C 0.31965 0.19359 0.30947 0.0
C1268 C 0.33666 0.123 0.30595 0.0
C1269 C 0.37642 0.14405 0.34477 0.0
N1270 N 0.42742 0.21117 0.40053 0.0
N1271 N 0.28104 0.12963 0.23824 0.0
C1272 C 0.38718 0.18986 0.36704 0.0
C1273 C 0.31125 0.14832 0.28447 0.0
N1274 N 0.36152 0.25475 0.38156 0.0
N1275 N 0.32242 0.07843 0.29007 0.0
H1276 H 0.26221 0.14618 0.21958 0.0
H1277 H 0.27785 0.09862 0.21567 0.0
H1278 H 0.33985 0.05867 0.30484 0.0
H1279 H 0.29129 0.06116 0.26607 0.0
H1280 H 0.38517 0.26956 0.41626 0.0
H1281 H 0.33915 0.27246 0.37342 0.0
H1282 H 0.4393 0.24504 0.41365 0.0
H1283 H 0.45056 0.19513 0.41192 0.0
C1284 C 0.6462 0.81059 0.62206 0.0
C1285 C 0.69133 0.83079 0.64848 0.0
C1286 C 0.67793 0.90235 0.64572 0.0
C1287 C 0.63169 0.88209 0.62872 0.0
N1288 N 0.57154 0.8165 0.60594 0.0
N1289 N 0.75199 0.89645 0.67416 0.0
C1290 C 0.61583 0.83608 0.61829 0.0
C1291 C 0.70778 0.87692 0.657 0.0
N1292 N 0.63288 0.76719 0.59705 0.0
N1293 N 0.69341 0.9456 0.64866 0.0
H1294 H 0.77489 0.87941 0.66813 0.0
H1295 H 0.76583 0.92975 0.69119 0.0
H1296 H 0.6727 0.96495 0.6407 0.0
H1297 H 0.72655 0.962 0.65589 0.0
H1298 H 0.60112 0.75108 0.57401 0.0
H1299 H 0.65542 0.74913 0.59319 0.0
H1300 H 0.5584 0.78366 0.60328 0.0
H1301 H 0.54811 0.83382 0.6031 0.0
C1302 C 0.68542 0.21068 0.45214 0.0
C1303 C 0.66106 0.23731 0.43312 0.0
C1304 C 0.59416 0.19169 0.44206 0.0
C1305 C 0.61573 0.15842 0.44377 0.0
N1306 N 0.68354 0.13804 0.4603 0.0
N1307 N 0.60269 0.26834 0.4459 0.0
C1308 C 0.66219 0.1687 0.4532 0.0
C1309 C 0.61861 0.2329 0.44037 0.0
N1310 N 0.72981 0.22695 0.47215 0.0
N1311 N 0.55027 0.18321 0.43958 0.0
H1312 H 0.62209 0.29868 0.4461 0.0
H1313 H 0.57287 0.26861 0.45462 0.0
H1314 H 0.53187 0.15386 0.44294 0.0
H1315 H 0.53193 0.20474 0.43276 0.0
H1316 H 0.7493 0.21015 0.48977 0.0
H1317 H 0.74571 0.25955 0.47613 0.0
H1318 H 0.71686 0.14265 0.46201 0.0
H1319 H 0.66729 0.10722 0.46216 0.0
C1320 C 0.85485 0.68259 0.40399 0.0
C1321 C 0.81188 0.65333 0.39093 0.0
C1322 C 0.84346 0.59173 0.38745 0.0
C1323 C 0.88638 0.62132 0.40544 0.0
N1324 N 0.93321 0.6953 0.43852 0.0
N1325 N 0.76489 0.58141 0.3765 0.0
C1326 C 0.89215 0.66692 0.41622 0.0
C1327 C 0.8062 0.60824 0.38485 0.0
N1328 N 0.86008 0.72468 0.40159 0.0
N1329 N 0.83842 0.54801 0.37072 0.0
H1330 H 0.73721 0.59308 0.374 0.0
H1331 H 0.75857 0.54871 0.37634 0.0
H1332 H 0.86513 0.53522 0.36999 0.0
H1333 H 0.80805 0.52493 0.35316 0.0
H1334 H 0.89047 0.74597 0.4048 0.0
H1335 H 0.83375 0.73732 0.3916 0.0
H1336 H 0.93871 0.72883 0.45239 0.0
H1337 H 0.96153 0.68503 0.44672 0.0
C1338 C 0.35103 0.85784 0.40555 0.0
C1339 C 0.36441 0.82441 0.37678 0.0
C1340 C 0.44001 0.8721 0.40344 0.0
C1341 C 0.42346 0.90799 0.41963 0.0
N1342 N 0.36365 0.93556 0.43884 0.0
N1343 N 0.42428 0.79461 0.36303 0.0
C1344 C 0.37921 0.901 0.42232 0.0
C1345 C 0.40997 0.82969 0.38094 0.0
N1346 N 0.31136 0.84776 0.41677 0.0
N1347 N 0.48441 0.87876 0.41048 0.0
H1348 H 0.40527 0.76263 0.35614 0.0
H1349 H 0.45545 0.79687 0.35726 0.0
H1350 H 0.5069 0.90956 0.42628 0.0
H1351 H 0.4995 0.85391 0.40414 0.0
H1352 H 0.30094 0.86992 0.44102 0.0
H1353 H 0.29133 0.81563 0.4061 0.0
H1354 H 0.33043 0.93257 0.43635 0.0
H1355 H 0.38366 0.96769 0.45244 0.0
C1356 C 0.19546 0.37013 0.30921 0.0
C1357 C 0.21251 0.34121 0.33359 0.0
C1358 C 0.19212 0.37495 0.41033 0.0
C1359 C 0.16849 0.39794 0.38213 0.0
N1360 N 0.1381 0.40605 0.29908 0.0
N1361 N 0.22433 0.31408 0.40745 0.0
C1362 C 0.16716 0.39192 0.32982 0.0
C1363 C 0.20969 0.34276 0.38418 0.0
N1364 N 0.2077 0.37878 0.26759 0.0
N1365 N 0.1998 0.38535 0.46211 0.0
H1366 H 0.23874 0.29153 0.38994 0.0
H1367 H 0.22008 0.3112 0.44277 0.0
H1368 H 0.1882 0.40904 0.4824 0.0
H1369 H 0.22071 0.3731 0.48514 0.0
H1370 H 0.19846 0.40219 0.251 0.0
H1371 H 0.2317 0.36716 0.25419 0.0
H1372 H 0.13371 0.3991 0.25971 0.0
H1373 H 0.11495 0.4201 0.31185 0.0
C1374 C 0.29183 0.13432 0.65486 0.0
C1375 C 0.31377 0.17457 0.69238 0.0
C1376 C 0.3852 0.16002 0.68983 0.0
C1377 C 0.36284 0.11763 0.65646 0.0
N1378 N 0.29439 0.06216 0.6126 0.0
N1379 N 0.38101 0.22512 0.74855 0.0
C1380 C 0.316 0.10426 0.64031 0.0
C1381 C 0.36046 0.18733 0.71053 0.0
N1382 N 0.24794 0.12523 0.63199 0.0
N1383 N 0.4301 0.17447 0.70081 0.0
H1384 H 0.36386 0.24538 0.76475 0.0
H1385 H 0.41453 0.2352 0.76663 0.0
H1386 H 0.44913 0.15534 0.68673 0.0
H1387 H 0.44843 0.20631 0.72068 0.0
H1388 H 0.23126 0.09922 0.59987 0.0
H1389 H 0.22904 0.14597 0.6422 0.0
H1390 H 0.26043 0.04897 0.60462 0.0
H1391 H 0.31073 0.0392 0.60115 0.0
C1392 C 0.86134 0.31886 0.65833 0.0
C1393 C 0.81967 0.32223 0.66637 0.0
C1394 C 0.82796 0.3857 0.62941 0.0
C1395 C 0.87138 0.38518 0.62669 0.0
N1396 N 0.9309 0.35259 0.64288 0.0
N1397 N 0.75658 0.34576 0.63424 0.0
C1398 C 0.88847 0.35226 0.64268 0.0
C1399 C 0.80115 0.35223 0.64504 0.0
N1400 N 0.87293 0.28132 0.65931 0.0
N1401 N 0.81273 0.41951 0.61927 0.0
H1402 H 0.73516 0.31788 0.63713 0.0
H1403 H 0.74027 0.36392 0.61491 0.0
H1404 H 0.83108 0.44462 0.60806 0.0
H1405 H 0.7838 0.42496 0.62668 0.0
H1406 H 0.90122 0.27537 0.65051 0.0
H1407 H 0.85081 0.25292 0.65952 0.0
H1408 H 0.94754 0.33382 0.66072 0.0
H1409 H 0.9508 0.3739 0.62841 0.0
C1410 C 0.15835 0.60716 0.68882 0.0
C1411 C 0.17724 0.64129 0.66915 0.0
C1412 C 0.1137 0.61768 0.59608 0.0
C1413 C 0.09576 0.5815 0.61337 0.0
N1414 N 0.10879 0.53481 0.66832 0.0
N1415 N 0.17992 0.66884 0.59551 0.0
C1416 C 0.12024 0.57403 0.65754 0.0
C1417 C 0.15758 0.64282 0.61965 0.0
N1418 N 0.1767 0.6063 0.73721 0.0
N1419 N 0.08806 0.63048 0.56012 0.0
H1420 H 0.21199 0.6887 0.61185 0.0
H1421 H 0.16772 0.66761 0.5574 0.0
H1422 H 0.05426 0.61641 0.54618 0.0
H1423 H 0.0992 0.65885 0.54953 0.0
H1424 H 0.16116 0.58512 0.75542 0.0
H1425 H 0.20634 0.62837 0.76014 0.0
H1426 H 0.12809 0.52679 0.69768 0.0
H1427 H 0.08297 0.50837 0.64468 0.0
loop_
_geom_bond_atom_site_label_1
_geom_bond_atom_site_label_2
_geom_bond_distance
_geom_bond_site_symmetry_2
_ccdc_geom_bond_type
Co0 N5 2.057 . S
Co0 O17 2.021 . S
Co0 O20 2.062 . S
Co0 O24 2.117 . S
Co0 O25 2.020 . S
C1 O21 1.259 . S
C1 O24 1.258 . S
Co2 N11 2.057 . S
Co2 O18 2.117 . S
Co2 O19 2.020 . S
Co2 O21 2.021 . S
Co2 O26 2.062 . S
C3 N5 1.316 . S
C3 N6 1.347 . S
C3 H8 0.931 . S
C4 N5 1.375 . S
C4 C7 1.350 . S
C4 H9 0.930 . S
N5 Co0 2.057 . S
N5 C3 1.316 . S
N5 C4 1.375 . S
N6 C3 1.347 . S
N6 C7 1.373 . S
C7 C4 1.350 . S
C7 N6 1.373 . S
C7 H28 0.931 . S
H8 C3 0.931 . S
H9 C4 0.930 . S
C10 O17 1.259 . S
C10 O18 1.258 . S
N11 Co2 2.057 . S
N11 C12 1.316 . S
N11 C13 1.375 . S
C12 N11 1.316 . S
C12 N14 1.347 . S
C12 H23 0.931 . S
C13 N11 1.375 . S
C13 C15 1.350 . S
C13 H22 0.930 . S
N14 C12 1.347 . S
N14 C15 1.373 . S
C15 C13 1.350 . S
C15 N14 1.373 . S
C15 H29 0.931 . S
C16 O19 1.256 . S
C16 O20 1.255 . S
O17 Co0 2.021 . S
O17 C10 1.259 . S
O18 Co2 2.117 . S
O18 C10 1.258 . S
O19 Co2 2.020 . S
O19 C16 1.256 . S
O20 Co0 2.062 . S
O20 C16 1.255 . S
O21 C1 1.259 . S
O21 Co2 2.021 . S
H22 C13 0.930 . S
H23 C12 0.931 . S
O24 Co0 2.117 . S
O24 C1 1.258 . S
O25 Co0 2.020 . S
O25 C27 1.256 . S
O26 Co2 2.062 . S
O26 C27 1.255 . S
C27 O25 1.256 . S
C27 O26 1.255 . S
H28 C7 0.931 . S
H29 C15 0.931 . S
Co30 N35 2.057 . S
Co30 O47 2.021 . S
Co30 O50 2.062 . S
Co30 O54 2.117 . S
Co30 O55 2.020 . S
C31 O51 1.259 . S
C31 O54 1.258 . S
Co32 N41 2.057 . S
Co32 O48 2.117 . S
Co32 O49 2.020 . S
Co32 O51 2.021 . S
Co32 O56 2.062 . S
C33 N35 1.316 . S
C33 N36 1.347 . S
C33 H38 0.931 . S
C34 N35 1.375 . S
C34 C37 1.350 . S
C34 H39 0.930 . S
N35 Co30 2.057 . S
N35 C33 1.316 . S
N35 C34 1.375 . S
N36 C33 1.347 . S
N36 C37 1.373 . S
C37 C34 1.350 . S
C37 N36 1.373 . S
C37 H58 0.931 . S
H38 C33 0.931 . S
H39 C34 0.930 . S
C40 O47 1.259 . S
C40 O48 1.258 . S
N41 Co32 2.057 . S
N41 C42 1.316 . S
N41 C43 1.375 . S
C42 N41 1.316 . S
C42 N44 1.347 . S
C42 H53 0.931 . S
C43 N41 1.375 . S
C43 C45 1.350 . S
C43 H52 0.930 . S
N44 C42 1.347 . S
N44 C45 1.373 . S
C45 C43 1.350 . S
C45 N44 1.373 . S
C45 H59 0.931 . S
C46 O49 1.256 . S
C46 O50 1.255 . S
O47 Co30 2.021 . S
O47 C40 1.259 . S
O48 Co32 2.117 . S
O48 C40 1.258 . S
O49 Co32 2.020 . S
O49 C46 1.256 . S
O50 Co30 2.062 . S
O50 C46 1.255 . S
O51 C31 1.259 . S
O51 Co32 2.021 . S
H52 C43 0.930 . S
H53 C42 0.931 . S
O54 Co30 2.117 . S
O54 C31 1.258 . S
O55 Co30 2.020 . S
O55 C57 1.256 . S
O56 Co32 2.062 . S
O56 C57 1.255 . S
C57 O55 1.256 . S
C57 O56 1.255 . S
H58 C37 0.931 . S
H59 C45 0.931 . S
Co60 N65 2.057 . S
Co60 O77 2.021 . S
Co60 O80 2.062 . S
Co60 O84 2.117 . S
Co60 O85 2.020 . S
C61 O81 1.259 . S
C61 O84 1.258 . S
Co62 N71 2.057 . S
Co62 O78 2.117 . S
Co62 O79 2.020 . S
Co62 O81 2.021 . S
Co62 O86 2.062 . S
C63 N65 1.316 . S
C63 N66 1.347 . S
C63 H68 0.931 . S
C64 N65 1.375 . S
C64 C67 1.350 . S
C64 H69 0.930 . S
N65 Co60 2.057 . S
N65 C63 1.316 . S
N65 C64 1.375 . S
N66 C63 1.347 . S
N66 C67 1.373 . S
C67 C64 1.350 . S
C67 N66 1.373 . S
C67 H88 0.931 . S
H68 C63 0.931 . S
H69 C64 0.930 . S
C70 O77 1.259 . S
C70 O78 1.258 . S
N71 Co62 2.057 . S
N71 C72 1.316 . S
N71 C73 1.375 . S
C72 N71 1.316 . S
C72 N74 1.347 . S
C72 H83 0.931 . S
C73 N71 1.375 . S
C73 C75 1.350 . S
C73 H82 0.930 . S
N74 C72 1.347 . S
N74 C75 1.373 . S
C75 C73 1.350 . S
C75 N74 1.373 . S
C75 H89 0.931 . S
C76 O79 1.256 . S
C76 O80 1.255 . S
O77 Co60 2.021 . S
O77 C70 1.259 . S
O78 Co62 2.117 . S
O78 C70 1.258 . S
O79 Co62 2.020 . S
O79 C76 1.256 . S
O80 Co60 2.062 . S
O80 C76 1.255 . S
O81 C61 1.259 . S
O81 Co62 2.021 . S
H82 C73 0.930 . S
H83 C72 0.931 . S
O84 Co60 2.117 . S
O84 C61 1.258 . S
O85 Co60 2.020 . S
O85 C87 1.256 . S
O86 Co62 2.062 . S
O86 C87 1.255 . S
C87 O85 1.256 . S
C87 O86 1.255 . S
H88 C67 0.931 . S
H89 C75 0.931 . S
Co90 N95 2.057 . S
Co90 O107 2.021 . S
Co90 O110 2.062 . S
Co90 O114 2.117 . S
Co90 O115 2.020 . S
C91 O111 1.259 . S
C91 O114 1.258 . S
Co92 N101 2.057 . S
Co92 O108 2.117 . S
Co92 O109 2.020 . S
Co92 O111 2.021 . S
Co92 O116 2.062 . S
C93 N95 1.316 . S
C93 N96 1.347 . S
C93 H98 0.931 . S
C94 N95 1.375 . S
C94 C97 1.350 . S
C94 H99 0.930 . S
N95 Co90 2.057 . S
N95 C93 1.316 . S
N95 C94 1.375 . S
N96 C93 1.347 . S
N96 C97 1.373 . S
C97 C94 1.350 . S
C97 N96 1.373 . S
C97 H118 0.931 . S
H98 C93 0.931 . S
H99 C94 0.930 . S
C100 O107 1.259 . S
C100 O108 1.258 . S
N101 Co92 2.057 . S
N101 C102 1.316 . S
N101 C103 1.375 . S
C102 N101 1.316 . S
C102 N104 1.347 . S
C102 H113 0.931 . S
C103 N101 1.375 . S
C103 C105 1.350 . S
C103 H112 0.930 . S
N104 C102 1.347 . S
N104 C105 1.373 . S
C105 C103 1.350 . S
C105 N104 1.373 . S
C105 H119 0.931 . S
C106 O109 1.256 . S
C106 O110 1.255 . S
O107 Co90 2.021 . S
O107 C100 1.259 . S
O108 Co92 2.117 . S
O108 C100 1.258 . S
O109 Co92 2.020 . S
O109 C106 1.256 . S
O110 Co90 2.062 . S
O110 C106 1.255 . S
O111 C91 1.259 . S
O111 Co92 2.021 . S
H112 C103 0.930 . S
H113 C102 0.931 . S
O114 Co90 2.117 . S
O114 C91 1.258 . S
O115 Co90 2.020 . S
O115 C117 1.256 . S
O116 Co92 2.062 . S
O116 C117 1.255 . S
C117 O115 1.256 . S
C117 O116 1.255 . S
H118 C97 0.931 . S
H119 C105 0.931 . S
Co120 N125 2.057 . S
Co120 O137 2.021 . S
Co120 O140 2.062 . S
Co120 O144 2.117 . S
Co120 O145 2.020 . S
C121 O141 1.259 . S
C121 O144 1.258 . S
Co122 N131 2.057 . S
Co122 O138 2.117 . S
Co122 O139 2.020 . S
Co122 O141 2.021 . S
Co122 O146 2.062 . S
C123 N125 1.316 . S
C123 N126 1.347 . S
C123 H128 0.931 . S
C124 N125 1.375 . S
C124 C127 1.350 . S
C124 H129 0.930 . S
N125 Co120 2.057 . S
N125 C123 1.316 . S
N125 C124 1.375 . S
N126 C123 1.347 . S
N126 C127 1.373 . S
C127 C124 1.350 . S
C127 N126 1.373 . S
C127 H148 0.931 . S
H128 C123 0.931 . S
H129 C124 0.930 . S
C130 O137 1.259 . S
C130 O138 1.258 . S
N131 Co122 2.057 . S
N131 C132 1.316 . S
N131 C133 1.375 . S
C132 N131 1.316 . S
C132 N134 1.347 . S
C132 H143 0.931 . S
C133 N131 1.375 . S
C133 C135 1.350 . S
C133 H142 0.930 . S
N134 C132 1.347 . S
N134 C135 1.373 . S
C135 C133 1.350 . S
C135 N134 1.373 . S
C135 H149 0.931 . S
C136 O139 1.256 . S
C136 O140 1.255 . S
O137 Co120 2.021 . S
O137 C130 1.259 . S
O138 Co122 2.117 . S
O138 C130 1.258 . S
O139 Co122 2.020 . S
O139 C136 1.256 . S
O140 Co120 2.062 . S
O140 C136 1.255 . S
O141 C121 1.259 . S
O141 Co122 2.021 . S
H142 C133 0.930 . S
H143 C132 0.931 . S
O144 Co120 2.117 . S
O144 C121 1.258 . S
O145 Co120 2.020 . S
O145 C147 1.256 . S
O146 Co122 2.062 . S
O146 C147 1.255 . S
C147 O145 1.256 . S
C147 O146 1.255 . S
H148 C127 0.931 . S
H149 C135 0.931 . S
Co150 N155 2.057 . S
Co150 O167 2.021 . S
Co150 O170 2.062 . S
Co150 O174 2.117 . S
Co150 O175 2.020 . S
C151 O171 1.259 . S
C151 O174 1.258 . S
Co152 N161 2.057 . S
Co152 O168 2.117 . S
Co152 O169 2.020 . S
Co152 O171 2.021 . S
Co152 O176 2.062 . S
C153 N155 1.316 . S
C153 N156 1.347 . S
C153 H158 0.931 . S
C154 N155 1.375 . S
C154 C157 1.350 . S
C154 H159 0.930 . S
N155 Co150 2.057 . S
N155 C153 1.316 . S
N155 C154 1.375 . S
N156 C153 1.347 . S
N156 C157 1.373 . S
C157 C154 1.350 . S
C157 N156 1.373 . S
C157 H178 0.931 . S
H158 C153 0.931 . S
H159 C154 0.930 . S
C160 O167 1.259 . S
C160 O168 1.258 . S
N161 Co152 2.057 . S
N161 C162 1.316 . S
N161 C163 1.375 . S
C162 N161 1.316 . S
C162 N164 1.347 . S
C162 H173 0.931 . S
C163 N161 1.375 . S
C163 C165 1.350 . S
C163 H172 0.930 . S
N164 C162 1.347 . S
N164 C165 1.373 . S
C165 C163 1.350 . S
C165 N164 1.373 . S
C165 H179 0.931 . S
C166 O169 1.256 . S
C166 O170 1.255 . S
O167 Co150 2.021 . S
O167 C160 1.259 . S
O168 Co152 2.117 . S
O168 C160 1.258 . S
O169 Co152 2.020 . S
O169 C166 1.256 . S
O170 Co150 2.062 . S
O170 C166 1.255 . S
O171 C151 1.259 . S
O171 Co152 2.021 . S
H172 C163 0.930 . S
H173 C162 0.931 . S
O174 Co150 2.117 . S
O174 C151 1.258 . S
O175 Co150 2.020 . S
O175 C177 1.256 . S
O176 Co152 2.062 . S
O176 C177 1.255 . S
C177 O175 1.256 . S
C177 O176 1.255 . S
H178 C157 0.931 . S
H179 C165 0.931 . S
Co180 N185 2.057 . S
Co180 O197 2.021 . S
Co180 O200 2.062 . S
Co180 O204 2.117 . S
Co180 O205 2.020 . S
C181 O201 1.259 . S
C181 O204 1.258 . S
Co182 N191 2.057 . S
Co182 O198 2.117 . S
Co182 O199 2.020 . S
Co182 O201 2.021 . S
Co182 O206 2.062 . S
C183 N185 1.316 . S
C183 N186 1.347 . S
C183 H188 0.931 . S
C184 N185 1.375 . S
C184 C187 1.350 . S
C184 H189 0.930 . S
N185 Co180 2.057 . S
N185 C183 1.316 . S
N185 C184 1.375 . S
N186 C183 1.347 . S
N186 C187 1.373 . S
C187 C184 1.350 . S
C187 N186 1.373 . S
C187 H208 0.931 . S
H188 C183 0.931 . S
H189 C184 0.930 . S
C190 O197 1.259 . S
C190 O198 1.258 . S
N191 Co182 2.057 . S
N191 C192 1.316 . S
N191 C193 1.375 . S
C192 N191 1.316 . S
C192 N194 1.347 . S
C192 H203 0.931 . S
C193 N191 1.375 . S
C193 C195 1.350 . S
C193 H202 0.930 . S
N194 C192 1.347 . S
N194 C195 1.373 . S
C195 C193 1.350 . S
C195 N194 1.373 . S
C195 H209 0.931 . S
C196 O199 1.256 . S
C196 O200 1.255 . S
O197 Co180 2.021 . S
O197 C190 1.259 . S
O198 Co182 2.117 . S
O198 C190 1.258 . S
O199 Co182 2.020 . S
O199 C196 1.256 . S
O200 Co180 2.062 . S
O200 C196 1.255 . S
O201 C181 1.259 . S
O201 Co182 2.021 . S
H202 C193 0.930 . S
H203 C192 0.931 . S
O204 Co180 2.117 . S
O204 C181 1.258 . S
O205 Co180 2.020 . S
O205 C207 1.256 . S
O206 Co182 2.062 . S
O206 C207 1.255 . S
C207 O205 1.256 . S
C207 O206 1.255 . S
H208 C187 0.931 . S
H209 C195 0.931 . S
Co210 N215 2.057 . S
Co210 O227 2.021 . S
Co210 O230 2.062 . S
Co210 O234 2.117 . S
Co210 O235 2.020 . S
C211 O231 1.259 . S
C211 O234 1.258 . S
Co212 N221 2.057 . S
Co212 O228 2.117 . S
Co212 O229 2.020 . S
Co212 O231 2.021 . S
Co212 O236 2.062 . S
C213 N215 1.316 . S
C213 N216 1.347 . S
C213 H218 0.931 . S
C214 N215 1.375 . S
C214 C217 1.350 . S
C214 H219 0.930 . S
N215 Co210 2.057 . S
N215 C213 1.316 . S
N215 C214 1.375 . S
N216 C213 1.347 . S
N216 C217 1.373 . S
C217 C214 1.350 . S
C217 N216 1.373 . S
C217 H238 0.931 . S
H218 C213 0.931 . S
H219 C214 0.930 . S
C220 O227 1.259 . S
C220 O228 1.258 . S
N221 Co212 2.057 . S
N221 C222 1.316 . S
N221 C223 1.375 . S
C222 N221 1.316 . S
C222 N224 1.347 . S
C222 H233 0.931 . S
C223 N221 1.375 . S
C223 C225 1.350 . S
C223 H232 0.930 . S
N224 C222 1.347 . S
N224 C225 1.373 . S
C225 C223 1.350 . S
C225 N224 1.373 . S
C225 H239 0.931 . S
C226 O229 1.256 . S
C226 O230 1.255 . S
O227 Co210 2.021 . S
O227 C220 1.259 . S
O228 Co212 2.117 . S
O228 C220 1.258 . S
O229 Co212 2.020 . S
O229 C226 1.256 . S
O230 Co210 2.062 . S
O230 C226 1.255 . S
O231 C211 1.259 . S
O231 Co212 2.021 . S
H232 C223 0.930 . S
H233 C222 0.931 . S
O234 Co210 2.117 . S
O234 C211 1.258 . S
O235 Co210 2.020 . S
O235 C237 1.256 . S
O236 Co212 2.062 . S
O236 C237 1.255 . S
C237 O235 1.256 . S
C237 O236 1.255 . S
H238 C217 0.931 . S
H239 C225 0.931 . S
Cd240 N243 2.334 1_655 S
Cd240 N269 2.304 1_565 S
Cd240 O276 2.268 . S
Cd240 O279 2.273 1_665 S
Cd240 O280 2.417 . S
Cd240 O281 2.330 . S
Cd241 N256 2.304 1_455 S
Cd241 N260 2.334 1_545 S
Cd241 O277 2.273 1_445 S
Cd241 O278 2.268 . S
Cd241 O282 2.417 . S
Cd241 O283 2.330 . S
C242 N243 1.332 . S
C242 C246 1.381 . S
C242 H248 0.931 . S
N243 Cd240 2.334 1_455 S
N243 C242 1.332 . S
N243 C247 1.328 . S
C244 C245 1.396 . S
C244 C247 1.378 . S
C244 H286 0.931 . S
C245 C244 1.396 . S
C245 C246 1.382 . S
C246 C242 1.381 . S
C246 C245 1.382 . S
C246 H287 0.930 . S
C247 N243 1.328 . S
C247 C244 1.378 . S
C247 H249 0.930 1_455 S
H248 C242 0.931 . S
H249 C247 0.930 1_655 S
C250 O276 1.238 . S
C250 O277 1.253 . S
C251 C252 1.379 . S
C251 N256 1.337 . S
C251 H257 0.929 . S
C252 C251 1.379 . S
C252 C253 1.380 . S
C252 H288 0.929 . S
C253 C252 1.380 . S
C253 C254 1.399 . S
C254 C253 1.399 . S
C254 C255 1.376 . S
C254 H289 0.931 . S
C255 C254 1.376 . S
C255 N256 1.338 . S
C255 H258 0.930 1_655 S
N256 Cd241 2.304 1_655 S
N256 C251 1.337 . S
N256 C255 1.338 . S
H257 C251 0.929 . S
H258 C255 0.930 1_455 S
C259 N260 1.332 . S
C259 C263 1.381 . S
C259 H265 0.931 . S
N260 Cd241 2.334 1_565 S
N260 C259 1.332 . S
N260 C264 1.328 . S
C261 C262 1.396 . S
C261 C264 1.378 . S
C261 H290 0.931 . S
C262 C261 1.396 . S
C262 C263 1.382 . S
C263 C259 1.381 . S
C263 C262 1.382 . S
C263 H291 0.930 . S
C264 N260 1.328 . S
C264 C261 1.378 . S
C264 H266 0.930 1_565 S
H265 C259 0.931 . S
H266 C264 0.930 1_545 S
C267 O278 1.238 . S
C267 O279 1.253 . S
C268 O280 1.239 . S
C268 O281 1.230 . S
N269 Cd240 2.304 1_545 S
N269 C270 1.337 . S
N269 C274 1.338 . S
C270 N269 1.337 . S
C270 C271 1.379 . S
C270 H284 0.929 . S
C271 C270 1.379 . S
C271 C272 1.380 . S
C271 H292 0.929 . S
C272 C271 1.380 . S
C272 C273 1.399 . S
C273 C272 1.399 . S
C273 C274 1.376 . S
C273 H293 0.931 . S
C274 N269 1.338 . S
C274 C273 1.376 . S
C274 H285 0.930 1_545 S
C275 O282 1.239 . S
C275 O283 1.230 . S
O276 Cd240 2.268 . S
O276 C250 1.238 . S
O277 Cd241 2.273 1_665 S
O277 C250 1.253 . S
O278 Cd241 2.268 . S
O278 C267 1.238 . S
O279 Cd240 2.273 1_445 S
O279 C267 1.253 . S
O280 Cd240 2.417 . S
O280 C268 1.239 . S
O281 Cd240 2.330 . S
O281 C268 1.230 . S
O282 Cd241 2.417 . S
O282 C275 1.239 . S
O283 Cd241 2.330 . S
O283 C275 1.230 . S
H284 C270 0.929 . S
H285 C274 0.930 1_565 S
H286 C244 0.931 . S
H287 C246 0.930 . S
H288 C252 0.929 . S
H289 C254 0.931 . S
H290 C261 0.931 . S
H291 C263 0.930 . S
H292 C271 0.929 . S
H293 C273 0.931 . S
Cd294 N297 2.334 . S
Cd294 N323 2.304 1_565 S
Cd294 O330 2.268 1_554 S
Cd294 O333 2.273 1_565 S
Cd294 O334 2.417 . S
Cd294 O335 2.330 . S
Cd295 N310 2.304 . S
Cd295 N314 2.334 1_545 S
Cd295 O331 2.273 1_545 S
Cd295 O332 2.268 1_556 S
Cd295 O336 2.417 . S
Cd295 O337 2.330 . S
C296 N297 1.332 . S
C296 C300 1.381 . S
C296 H302 0.931 . S
N297 Cd294 2.334 . S
N297 C296 1.332 . S
N297 C301 1.328 . S
C298 C299 1.396 . S
C298 C301 1.378 . S
C298 H340 0.931 1_554 S
C299 C298 1.396 . S
C299 C300 1.382 . S
C300 C296 1.381 . S
C300 C299 1.382 . S
C300 H341 0.930 . S
C301 N297 1.328 . S
C301 C298 1.378 . S
C301 H303 0.930 1_554 S
H302 C296 0.931 . S
H303 C301 0.930 1_556 S
C304 O330 1.238 . S
C304 O331 1.253 . S
C305 C306 1.379 . S
C305 N310 1.337 . S
C305 H311 0.929 . S
C306 C305 1.379 . S
C306 C307 1.380 . S
C306 H342 0.929 . S
C307 C306 1.380 . S
C307 C308 1.399 . S
C308 C307 1.399 . S
C308 C309 1.376 . S
C308 H343 0.931 1_556 S
C309 C308 1.376 . S
C309 N310 1.338 . S
C309 H312 0.930 1_556 S
N310 Cd295 2.304 . S
N310 C305 1.337 . S
N310 C309 1.338 . S
H311 C305 0.929 . S
H312 C309 0.930 1_554 S
C313 N314 1.332 . S
C313 C317 1.381 . S
C313 H319 0.931 . S
N314 Cd295 2.334 1_565 S
N314 C313 1.332 . S
N314 C318 1.328 . S
C315 C316 1.396 . S
C315 C318 1.378 . S
C315 H344 0.931 1_556 S
C316 C315 1.396 . S
C316 C317 1.382 . S
C317 C313 1.381 . S
C317 C316 1.382 . S
C317 H345 0.930 . S
C318 N314 1.328 . S
C318 C315 1.378 . S
C318 H320 0.930 1_566 S
H319 C313 0.931 . S
H320 C318 0.930 1_544 S
C321 O332 1.238 . S
C321 O333 1.253 . S
C322 O334 1.239 . S
C322 O335 1.230 . S
N323 Cd294 2.304 1_545 S
N323 C324 1.337 . S
N323 C328 1.338 . S
C324 N323 1.337 . S
C324 C325 1.379 . S
C324 H338 0.929 . S
C325 C324 1.379 . S
C325 C326 1.380 . S
C325 H346 0.929 . S
C326 C325 1.380 . S
C326 C327 1.399 . S
C327 C326 1.399 . S
C327 C328 1.376 . S
C327 H347 0.931 1_554 S
C328 N323 1.338 . S
C328 C327 1.376 . S
C328 H339 0.930 1_544 S
C329 O336 1.239 . S
C329 O337 1.230 . S
O330 Cd294 2.268 1_556 S
O330 C304 1.238 . S
O331 Cd295 2.273 1_565 S
O331 C304 1.253 . S
O332 Cd295 2.268 1_554 S
O332 C321 1.238 . S
O333 Cd294 2.273 1_545 S
O333 C321 1.253 . S
O334 Cd294 2.417 . S
O334 C322 1.239 . S
O335 Cd294 2.330 . S
O335 C322 1.230 . S
O336 Cd295 2.417 . S
O336 C329 1.239 . S
O337 Cd295 2.330 . S
O337 C329 1.230 . S
H338 C324 0.929 . S
H339 C328 0.930 1_566 S
H340 C298 0.931 1_556 S
H341 C300 0.930 . S
H342 C306 0.929 . S
H343 C308 0.931 1_554 S
H344 C315 0.931 1_554 S
H345 C317 0.930 . S
H346 C325 0.929 . S
H347 C327 0.931 1_556 S
Cd348 N351 2.334 1_655 S
Cd348 N377 2.304 . S
Cd348 O384 2.268 1_554 S
Cd348 O387 2.273 1_655 S
Cd348 O388 2.417 . S
Cd348 O389 2.330 . S
Cd349 N364 2.304 1_455 S
Cd349 N368 2.334 . S
Cd349 O385 2.273 1_455 S
Cd349 O386 2.268 1_556 S
Cd349 O390 2.417 . S
Cd349 O391 2.330 . S
C350 N351 1.332 . S
C350 C354 1.381 . S
C350 H356 0.931 . S
N351 Cd348 2.334 1_455 S
N351 C350 1.332 . S
N351 C355 1.328 . S
C352 C353 1.396 . S
C352 C355 1.378 . S
C352 H394 0.931 1_554 S
C353 C352 1.396 . S
C353 C354 1.382 . S
C354 C350 1.381 . S
C354 C353 1.382 . S
C354 H395 0.930 . S
C355 N351 1.328 . S
C355 C352 1.378 . S
C355 H357 0.930 1_454 S
H356 C350 0.931 . S
H357 C355 0.930 1_656 S
C358 O384 1.238 . S
C358 O385 1.253 . S
C359 C360 1.379 . S
C359 N364 1.337 . S
C359 H365 0.929 . S
C360 C359 1.379 . S
C360 C361 1.380 . S
C360 H396 0.929 . S
C361 C360 1.380 . S
C361 C362 1.399 . S
C362 C361 1.399 . S
C362 C363 1.376 . S
C362 H397 0.931 1_556 S
C363 C362 1.376 . S
C363 N364 1.338 . S
C363 H366 0.930 1_656 S
N364 Cd349 2.304 1_655 S
N364 C359 1.337 . S
N364 C363 1.338 . S
H365 C359 0.929 . S
H366 C363 0.930 1_454 S
C367 N368 1.332 . S
C367 C371 1.381 . S
C367 H373 0.931 . S
N368 Cd349 2.334 . S
N368 C367 1.332 . S
N368 C372 1.328 . S
C369 C370 1.396 . S
C369 C372 1.378 . S
C369 H398 0.931 1_556 S
C370 C369 1.396 . S
C370 C371 1.382 . S
C371 C367 1.381 . S
C371 C370 1.382 . S
C371 H399 0.930 . S
C372 N368 1.328 . S
C372 C369 1.378 . S
C372 H374 0.930 1_556 S
H373 C367 0.931 . S
H374 C372 0.930 1_554 S
C375 O386 1.238 . S
C375 O387 1.253 . S
C376 O388 1.239 . S
C376 O389 1.230 . S
N377 Cd348 2.304 . S
N377 C378 1.337 . S
N377 C382 1.338 . S
C378 N377 1.337 . S
C378 C379 1.379 . S
C378 H392 0.929 . S
C379 C378 1.379 . S
C379 C380 1.380 . S
C379 H400 0.929 . S
C380 C379 1.380 . S
C380 C381 1.399 . S
C381 C380 1.399 . S
C381 C382 1.376 . S
C381 H401 0.931 1_554 S
C382 N377 1.338 . S
C382 C381 1.376 . S
C382 H393 0.930 1_554 S
C383 O390 1.239 . S
C383 O391 1.230 . S
O384 Cd348 2.268 1_556 S
O384 C358 1.238 . S
O385 Cd349 2.273 1_655 S
O385 C358 1.253 . S
O386 Cd349 2.268 1_554 S
O386 C375 1.238 . S
O387 Cd348 2.273 1_455 S
O387 C375 1.253 . S
O388 Cd348 2.417 . S
O388 C376 1.239 . S
O389 Cd348 2.330 . S
O389 C376 1.230 . S
O390 Cd349 2.417 . S
O390 C383 1.239 . S
O391 Cd349 2.330 . S
O391 C383 1.230 . S
H392 C378 0.929 . S
H393 C382 0.930 1_556 S
H394 C352 0.931 1_556 S
H395 C354 0.930 . S
H396 C360 0.929 . S
H397 C362 0.931 1_554 S
H398 C369 0.931 1_554 S
H399 C371 0.930 . S
H400 C379 0.929 . S
H401 C381 0.931 1_556 S
Cd402 N405 2.334 . S
Cd402 N431 2.304 . S
Cd402 O438 2.268 1_554 S
Cd402 O441 2.273 . S
Cd402 O442 2.417 . S
Cd402 O443 2.330 . S
Cd403 N418 2.304 . S
Cd403 N422 2.334 . S
Cd403 O439 2.273 . S
Cd403 O440 2.268 1_556 S
Cd403 O444 2.417 . S
Cd403 O445 2.330 . S
C404 N405 1.332 . S
C404 C408 1.381 . S
C404 H410 0.931 . S
N405 Cd402 2.334 . S
N405 C404 1.332 . S
N405 C409 1.328 . S
C406 C407 1.396 . S
C406 C409 1.378 . S
C406 H448 0.931 1_554 S
C407 C406 1.396 . S
C407 C408 1.382 . S
C408 C404 1.381 . S
C408 C407 1.382 . S
C408 H449 0.930 . S
C409 N405 1.328 . S
C409 C406 1.378 . S
C409 H411 0.930 1_554 S
H410 C404 0.931 . S
H411 C409 0.930 1_556 S
C412 O438 1.238 . S
C412 O439 1.253 . S
C413 C414 1.379 . S
C413 N418 1.337 . S
C413 H419 0.929 . S
C414 C413 1.379 . S
C414 C415 1.380 . S
C414 H450 0.929 . S
C415 C414 1.380 . S
C415 C416 1.399 . S
C416 C415 1.399 . S
C416 C417 1.376 . S
C416 H451 0.931 1_556 S
C417 C416 1.376 . S
C417 N418 1.338 . S
C417 H420 0.930 1_556 S
N418 Cd403 2.304 . S
N418 C413 1.337 . S
N418 C417 1.338 . S
H419 C413 0.929 . S
H420 C417 0.930 1_554 S
C421 N422 1.332 . S
C421 C425 1.381 . S
C421 H427 0.931 . S
N422 Cd403 2.334 . S
N422 C421 1.332 . S
N422 C426 1.328 . S
C423 C424 1.396 . S
C423 C426 1.378 . S
C423 H452 0.931 1_556 S
C424 C423 1.396 . S
C424 C425 1.382 . S
C425 C421 1.381 . S
C425 C424 1.382 . S
C425 H453 0.930 . S
C426 N422 1.328 . S
C426 C423 1.378 . S
C426 H428 0.930 1_556 S
H427 C421 0.931 . S
H428 C426 0.930 1_554 S
C429 O440 1.238 . S
C429 O441 1.253 . S
C430 O442 1.239 . S
C430 O443 1.230 . S
N431 Cd402 2.304 . S
N431 C432 1.337 . S
N431 C436 1.338 . S
C432 N431 1.337 . S
C432 C433 1.379 . S
C432 H446 0.929 . S
C433 C432 1.379 . S
C433 C434 1.380 . S
C433 H454 0.929 . S
C434 C433 1.380 . S
C434 C435 1.399 . S
C435 C434 1.399 . S
C435 C436 1.376 . S
C435 H455 0.931 1_554 S
C436 N431 1.338 . S
C436 C435 1.376 . S
C436 H447 0.930 1_554 S
C437 O444 1.239 . S
C437 O445 1.230 . S
O438 Cd402 2.268 1_556 S
O438 C412 1.238 . S
O439 Cd403 2.273 . S
O439 C412 1.253 . S
O440 Cd403 2.268 1_554 S
O440 C429 1.238 . S
O441 Cd402 2.273 . S
O441 C429 1.253 . S
O442 Cd402 2.417 . S
O442 C430 1.239 . S
O443 Cd402 2.330 . S
O443 C430 1.230 . S
O444 Cd403 2.417 . S
O444 C437 1.239 . S
O445 Cd403 2.330 . S
O445 C437 1.230 . S
H446 C432 0.929 . S
H447 C436 0.930 1_556 S
H448 C406 0.931 1_556 S
H449 C408 0.930 . S
H450 C414 0.929 . S
H451 C416 0.931 1_554 S
H452 C423 0.931 1_554 S
H453 C425 0.930 . S
H454 C433 0.929 . S
H455 C435 0.931 1_556 S
Cd456 N459 2.334 1_655 S
Cd456 N485 2.304 . S
Cd456 O492 2.268 . S
Cd456 O495 2.273 1_655 S
Cd456 O496 2.417 . S
Cd456 O497 2.330 . S
Cd457 N472 2.304 1_455 S
Cd457 N476 2.334 . S
Cd457 O493 2.273 1_455 S
Cd457 O494 2.268 . S
Cd457 O498 2.417 . S
Cd457 O499 2.330 . S
C458 N459 1.332 . S
C458 C462 1.381 . S
C458 H464 0.931 . S
N459 Cd456 2.334 1_455 S
N459 C458 1.332 . S
N459 C463 1.328 . S
C460 C461 1.396 . S
C460 C463 1.378 . S
C460 H502 0.931 . S
C461 C460 1.396 . S
C461 C462 1.382 . S
C462 C458 1.381 . S
C462 C461 1.382 . S
C462 H503 0.930 . S
C463 N459 1.328 . S
C463 C460 1.378 . S
C463 H465 0.930 1_455 S
H464 C458 0.931 . S
H465 C463 0.930 1_655 S
C466 O492 1.238 . S
C466 O493 1.253 . S
C467 C468 1.379 . S
C467 N472 1.337 . S
C467 H473 0.929 . S
C468 C467 1.379 . S
C468 C469 1.380 . S
C468 H504 0.929 . S
C469 C468 1.380 . S
C469 C470 1.399 . S
C470 C469 1.399 . S
C470 C471 1.376 . S
C470 H505 0.931 . S
C471 C470 1.376 . S
C471 N472 1.338 . S
C471 H474 0.930 1_655 S
N472 Cd457 2.304 1_655 S
N472 C467 1.337 . S
N472 C471 1.338 . S
H473 C467 0.929 . S
H474 C471 0.930 1_455 S
C475 N476 1.332 . S
C475 C479 1.381 . S
C475 H481 0.931 . S
N476 Cd457 2.334 . S
N476 C475 1.332 . S
N476 C480 1.328 . S
C477 C478 1.396 . S
C477 C480 1.378 . S
C477 H506 0.931 . S
C478 C477 1.396 . S
C478 C479 1.382 . S
C479 C475 1.381 . S
C479 C478 1.382 . S
C479 H507 0.930 . S
C480 N476 1.328 . S
C480 C477 1.378 . S
C480 H482 0.930 . S
H481 C475 0.931 . S
H482 C480 0.930 . S
C483 O494 1.238 . S
C483 O495 1.253 . S
C484 O496 1.239 . S
C484 O497 1.230 . S
N485 Cd456 2.304 . S
N485 C486 1.337 . S
N485 C490 1.338 . S
C486 N485 1.337 . S
C486 C487 1.379 . S
C486 H500 0.929 . S
C487 C486 1.379 . S
C487 C488 1.380 . S
C487 H508 0.929 . S
C488 C487 1.380 . S
C488 C489 1.399 . S
C489 C488 1.399 . S
C489 C490 1.376 . S
C489 H509 0.931 . S
C490 N485 1.338 . S
C490 C489 1.376 . S
C490 H501 0.930 . S
C491 O498 1.239 . S
C491 O499 1.230 . S
O492 Cd456 2.268 . S
O492 C466 1.238 . S
O493 Cd457 2.273 1_655 S
O493 C466 1.253 . S
O494 Cd457 2.268 . S
O494 C483 1.238 . S
O495 Cd456 2.273 1_455 S
O495 C483 1.253 . S
O496 Cd456 2.417 . S
O496 C484 1.239 . S
O497 Cd456 2.330 . S
O497 C484 1.230 . S
O498 Cd457 2.417 . S
O498 C491 1.239 . S
O499 Cd457 2.330 . S
O499 C491 1.230 . S
H500 C486 0.929 . S
H501 C490 0.930 . S
H502 C460 0.931 . S
H503 C462 0.930 . S
H504 C468 0.929 . S
H505 C470 0.931 . S
H506 C477 0.931 . S
H507 C479 0.930 . S
H508 C487 0.929 . S
H509 C489 0.931 . S
Cd510 N513 2.334 . S
Cd510 N539 2.304 1_565 S
Cd510 O546 2.268 . S
Cd510 O549 2.273 1_565 S
Cd510 O550 2.417 . S
Cd510 O551 2.330 . S
Cd511 N526 2.304 . S
Cd511 N530 2.334 1_545 S
Cd511 O547 2.273 1_545 S
Cd511 O548 2.268 . S
Cd511 O552 2.417 . S
Cd511 O553 2.330 . S
C512 N513 1.332 . S
C512 C516 1.381 . S
C512 H518 0.931 . S
N513 Cd510 2.334 . S
N513 C512 1.332 . S
N513 C517 1.328 . S
C514 C515 1.396 . S
C514 C517 1.378 . S
C514 H556 0.931 . S
C515 C514 1.396 . S
C515 C516 1.382 . S
C516 C512 1.381 . S
C516 C515 1.382 . S
C516 H557 0.930 . S
C517 N513 1.328 . S
C517 C514 1.378 . S
C517 H519 0.930 . S
H518 C512 0.931 . S
H519 C517 0.930 . S
C520 O546 1.238 . S
C520 O547 1.253 . S
C521 C522 1.379 . S
C521 N526 1.337 . S
C521 H527 0.929 . S
C522 C521 1.379 . S
C522 C523 1.380 . S
C522 H558 0.929 . S
C523 C522 1.380 . S
C523 C524 1.399 . S
C524 C523 1.399 . S
C524 C525 1.376 . S
C524 H559 0.931 . S
C525 C524 1.376 . S
C525 N526 1.338 . S
C525 H528 0.930 . S
N526 Cd511 2.304 . S
N526 C521 1.337 . S
N526 C525 1.338 . S
H527 C521 0.929 . S
H528 C525 0.930 . S
C529 N530 1.332 . S
C529 C533 1.381 . S
C529 H535 0.931 . S
N530 Cd511 2.334 1_565 S
N530 C529 1.332 . S
N530 C534 1.328 . S
C531 C532 1.396 . S
C531 C534 1.378 . S
C531 H560 0.931 . S
C532 C531 1.396 . S
C532 C533 1.382 . S
C533 C529 1.381 . S
C533 C532 1.382 . S
C533 H561 0.930 . S
C534 N530 1.328 . S
C534 C531 1.378 . S
C534 H536 0.930 1_565 S
H535 C529 0.931 . S
H536 C534 0.930 1_545 S
C537 O548 1.238 . S
C537 O549 1.253 . S
C538 O550 1.239 . S
C538 O551 1.230 . S
N539 Cd510 2.304 1_545 S
N539 C540 1.337 . S
N539 C544 1.338 . S
C540 N539 1.337 . S
C540 C541 1.379 . S
C540 H554 0.929 . S
C541 C540 1.379 . S
C541 C542 1.380 . S
C541 H562 0.929 . S
C542 C541 1.380 . S
C542 C543 1.399 . S
C543 C542 1.399 . S
C543 C544 1.376 . S
C543 H563 0.931 . S
C544 N539 1.338 . S
C544 C543 1.376 . S
C544 H555 0.930 1_545 S
C545 O552 1.239 . S
C545 O553 1.230 . S
O546 Cd510 2.268 . S
O546 C520 1.238 . S
O547 Cd511 2.273 1_565 S
O547 C520 1.253 . S
O548 Cd511 2.268 . S
O548 C537 1.238 . S
O549 Cd510 2.273 1_545 S
O549 C537 1.253 . S
O550 Cd510 2.417 . S
O550 C538 1.239 . S
O551 Cd510 2.330 . S
O551 C538 1.230 . S
O552 Cd511 2.417 . S
O552 C545 1.239 . S
O553 Cd511 2.330 . S
O553 C545 1.230 . S
H554 C540 0.929 . S
H555 C544 0.930 1_565 S
H556 C514 0.931 . S
H557 C516 0.930 . S
H558 C522 0.929 . S
H559 C524 0.931 . S
H560 C531 0.931 . S
H561 C533 0.930 . S
H562 C541 0.929 . S
H563 C543 0.931 . S
C564 C565 1.363 . S
C564 C570 1.379 . S
C564 N572 1.356 . S
C565 C564 1.363 . S
C565 C571 1.363 . S
C566 C567 1.363 . S
C566 C571 1.379 . S
C566 N573 1.356 . S
C567 C566 1.363 . S
C567 C570 1.363 . S
N568 C570 1.356 . S
N568 H580 0.984 1_545 S
N568 H581 0.985 . S
N569 C571 1.356 . S
N569 H574 0.984 . S
N569 H575 0.985 . S
C570 C564 1.379 . S
C570 C567 1.363 . S
C570 N568 1.356 . S
C571 C565 1.363 . S
C571 C566 1.379 . S
C571 N569 1.356 . S
N572 C564 1.356 . S
N572 H578 0.984 . S
N572 H579 0.984 . S
N573 C566 1.356 . S
N573 H576 0.984 . S
N573 H577 0.985 . S
H574 N569 0.984 . S
H575 N569 0.985 . S
H576 N573 0.984 . S
H577 N573 0.985 . S
H578 N572 0.984 . S
H579 N572 0.984 . S
H580 N568 0.984 1_565 S
H581 N568 0.985 . S
C582 C583 1.363 . S
C582 C588 1.379 . S
C582 N590 1.356 . S
C583 C582 1.363 . S
C583 C589 1.363 . S
C584 C585 1.363 . S
C584 C589 1.379 . S
C584 N591 1.356 . S
C585 C584 1.363 . S
C585 C588 1.363 . S
N586 C588 1.356 . S
N586 H598 0.984 . S
N586 H599 0.985 . S
N587 C589 1.356 . S
N587 H592 0.984 . S
N587 H593 0.985 . S
C588 C582 1.379 . S
C588 C585 1.363 . S
C588 N586 1.356 . S
C589 C583 1.363 . S
C589 C584 1.379 . S
C589 N587 1.356 . S
N590 C582 1.356 . S
N590 H596 0.984 . S
N590 H597 0.984 . S
N591 C584 1.356 . S
N591 H594 0.984 . S
N591 H595 0.985 . S
H592 N587 0.984 . S
H593 N587 0.985 . S
H594 N591 0.984 . S
H595 N591 0.985 . S
H596 N590 0.984 . S
H597 N590 0.984 . S
H598 N586 0.984 . S
H599 N586 0.985 . S
C600 C601 1.363 . S
C600 C606 1.379 . S
C600 N608 1.356 . S
C601 C600 1.363 . S
C601 C607 1.363 . S
C602 C603 1.363 . S
C602 C607 1.379 . S
C602 N609 1.356 . S
C603 C602 1.363 . S
C603 C606 1.363 . S
N604 C606 1.356 . S
N604 H616 0.984 . S
N604 H617 0.985 . S
N605 C607 1.356 . S
N605 H610 0.984 . S
N605 H611 0.985 . S
C606 C600 1.379 . S
C606 C603 1.363 . S
C606 N604 1.356 . S
C607 C601 1.363 . S
C607 C602 1.379 . S
C607 N605 1.356 . S
N608 C600 1.356 . S
N608 H614 0.984 . S
N608 H615 0.984 . S
N609 C602 1.356 . S
N609 H612 0.984 . S
N609 H613 0.985 . S
H610 N605 0.984 . S
H611 N605 0.985 . S
H612 N609 0.984 . S
H613 N609 0.985 . S
H614 N608 0.984 . S
H615 N608 0.984 . S
H616 N604 0.984 . S
H617 N604 0.985 . S
C618 C619 1.363 . S
C618 C624 1.379 . S
C618 N626 1.356 . S
C619 C618 1.363 . S
C619 C625 1.363 . S
C620 C621 1.363 . S
C620 C625 1.379 . S
C620 N627 1.356 . S
C621 C620 1.363 . S
C621 C624 1.363 . S
N622 C624 1.356 . S
N622 H634 0.984 . S
N622 H635 0.985 . S
N623 C625 1.356 . S
N623 H628 0.984 . S
N623 H629 0.985 . S
C624 C618 1.379 . S
C624 C621 1.363 . S
C624 N622 1.356 . S
C625 C619 1.363 . S
C625 C620 1.379 . S
C625 N623 1.356 . S
N626 C618 1.356 . S
N626 H632 0.984 . S
N626 H633 0.984 . S
N627 C620 1.356 . S
N627 H630 0.984 . S
N627 H631 0.985 . S
H628 N623 0.984 . S
H629 N623 0.985 . S
H630 N627 0.984 . S
H631 N627 0.985 . S
H632 N626 0.984 . S
H633 N626 0.984 . S
H634 N622 0.984 . S
H635 N622 0.985 . S
C636 C637 1.363 . S
C636 C642 1.379 . S
C636 N644 1.356 . S
C637 C636 1.363 . S
C637 C643 1.363 . S
C638 C639 1.363 . S
C638 C643 1.379 . S
C638 N645 1.356 . S
C639 C638 1.363 . S
C639 C642 1.363 . S
N640 C642 1.356 . S
N640 H652 0.984 . S
N640 H653 0.985 . S
N641 C643 1.356 . S
N641 H646 0.984 . S
N641 H647 0.985 . S
C642 C636 1.379 . S
C642 C639 1.363 . S
C642 N640 1.356 . S
C643 C637 1.363 . S
C643 C638 1.379 . S
C643 N641 1.356 . S
N644 C636 1.356 . S
N644 H650 0.984 . S
N644 H651 0.984 . S
N645 C638 1.356 . S
N645 H648 0.984 . S
N645 H649 0.985 . S
H646 N641 0.984 . S
H647 N641 0.985 . S
H648 N645 0.984 . S
H649 N645 0.985 . S
H650 N644 0.984 . S
H651 N644 0.984 . S
H652 N640 0.984 . S
H653 N640 0.985 . S
C654 C655 1.363 . S
C654 C660 1.379 . S
C654 N662 1.356 . S
C655 C654 1.363 . S
C655 C661 1.363 . S
C656 C657 1.363 . S
C656 C661 1.379 . S
C656 N663 1.356 . S
C657 C656 1.363 . S
C657 C660 1.363 . S
N658 C660 1.356 . S
N658 H670 0.984 . S
N658 H671 0.985 . S
N659 C661 1.356 . S
N659 H664 0.984 . S
N659 H665 0.985 . S
C660 C654 1.379 . S
C660 C657 1.363 . S
C660 N658 1.356 . S
C661 C655 1.363 . S
C661 C656 1.379 . S
C661 N659 1.356 . S
N662 C654 1.356 . S
N662 H668 0.984 . S
N662 H669 0.984 . S
N663 C656 1.356 . S
N663 H666 0.984 . S
N663 H667 0.985 . S
H664 N659 0.984 . S
H665 N659 0.985 . S
H666 N663 0.984 . S
H667 N663 0.985 . S
H668 N662 0.984 . S
H669 N662 0.984 . S
H670 N658 0.984 . S
H671 N658 0.985 . S
C672 C673 1.363 . S
C672 C678 1.379 . S
C672 N680 1.356 . S
C673 C672 1.363 . S
C673 C679 1.363 . S
C674 C675 1.363 . S
C674 C679 1.379 . S
C674 N681 1.356 . S
C675 C674 1.363 . S
C675 C678 1.363 . S
N676 C678 1.356 . S
N676 H688 0.984 . S
N676 H689 0.985 . S
N677 C679 1.356 . S
N677 H682 0.984 . S
N677 H683 0.985 . S
C678 C672 1.379 . S
C678 C675 1.363 . S
C678 N676 1.356 . S
C679 C673 1.363 . S
C679 C674 1.379 . S
C679 N677 1.356 . S
N680 C672 1.356 . S
N680 H686 0.984 . S
N680 H687 0.984 . S
N681 C674 1.356 . S
N681 H684 0.984 . S
N681 H685 0.985 . S
H682 N677 0.984 . S
H683 N677 0.985 . S
H684 N681 0.984 . S
H685 N681 0.985 . S
H686 N680 0.984 . S
H687 N680 0.984 . S
H688 N676 0.984 . S
H689 N676 0.985 . S
C690 C691 1.363 . S
C690 C696 1.379 . S
C690 N698 1.356 . S
C691 C690 1.363 . S
C691 C697 1.363 . S
C692 C693 1.363 . S
C692 C697 1.379 . S
C692 N699 1.356 . S
C693 C692 1.363 . S
C693 C696 1.363 . S
N694 C696 1.356 . S
N694 H706 0.984 . S
N694 H707 0.985 . S
N695 C697 1.356 . S
N695 H700 0.984 . S
N695 H701 0.985 . S
C696 C690 1.379 . S
C696 C693 1.363 . S
C696 N694 1.356 . S
C697 C691 1.363 . S
C697 C692 1.379 . S
C697 N695 1.356 . S
N698 C690 1.356 . S
N698 H704 0.984 . S
N698 H705 0.984 . S
N699 C692 1.356 . S
N699 H702 0.984 . S
N699 H703 0.985 . S
H700 N695 0.984 . S
H701 N695 0.985 . S
H702 N699 0.984 . S
H703 N699 0.985 . S
H704 N698 0.984 . S
H705 N698 0.984 . S
H706 N694 0.984 . S
H707 N694 0.985 . S
C708 C709 1.363 . S
C708 C714 1.379 . S
C708 N716 1.356 . S
C709 C708 1.363 . S
C709 C715 1.363 . S
C710 C711 1.363 . S
C710 C715 1.379 . S
C710 N717 1.356 . S
C711 C710 1.363 . S
C711 C714 1.363 . S
N712 C714 1.356 . S
N712 H724 0.984 . S
N712 H725 0.985 . S
N713 C715 1.356 . S
N713 H718 0.984 . S
N713 H719 0.985 . S
C714 C708 1.379 . S
C714 C711 1.363 . S
C714 N712 1.356 . S
C715 C709 1.363 . S
C715 C710 1.379 . S
C715 N713 1.356 . S
N716 C708 1.356 . S
N716 H722 0.984 . S
N716 H723 0.984 . S
N717 C710 1.356 . S
N717 H720 0.984 . S
N717 H721 0.985 . S
H718 N713 0.984 . S
H719 N713 0.985 . S
H720 N717 0.984 . S
H721 N717 0.985 . S
H722 N716 0.984 . S
H723 N716 0.984 . S
H724 N712 0.984 . S
H725 N712 0.985 . S
C726 C727 1.363 . S
C726 C732 1.379 . S
C726 N734 1.356 . S
C727 C726 1.363 . S
C727 C733 1.363 . S
C728 C729 1.363 . S
C728 C733 1.379 . S
C728 N735 1.356 . S
C729 C728 1.363 . S
C729 C732 1.363 . S
N730 C732 1.356 . S
N730 H742 0.984 . S
N730 H743 0.985 . S
N731 C733 1.356 . S
N731 H736 0.984 . S
N731 H737 0.985 . S
C732 C726 1.379 . S
C732 C729 1.363 . S
C732 N730 1.356 . S
C733 C727 1.363 . S
C733 C728 1.379 . S
C733 N731 1.356 . S
N734 C726 1.356 . S
N734 H740 0.984 . S
N734 H741 0.984 . S
N735 C728 1.356 . S
N735 H738 0.984 . S
N735 H739 0.985 . S
H736 N731 0.984 . S
H737 N731 0.985 . S
H738 N735 0.984 . S
H739 N735 0.985 . S
H740 N734 0.984 . S
H741 N734 0.984 . S
H742 N730 0.984 . S
H743 N730 0.985 . S
C744 C745 1.363 . S
C744 C750 1.379 . S
C744 N752 1.356 . S
C745 C744 1.363 . S
C745 C751 1.363 . S
C746 C747 1.363 . S
C746 C751 1.379 . S
C746 N753 1.356 . S
C747 C746 1.363 . S
C747 C750 1.363 . S
N748 C750 1.356 1_556 S
N748 H760 0.984 . S
N748 H761 0.985 . S
N749 C751 1.356 . S
N749 H754 0.984 . S
N749 H755 0.985 . S
C750 C744 1.379 . S
C750 C747 1.363 . S
C750 N748 1.356 1_554 S
C751 C745 1.363 . S
C751 C746 1.379 . S
C751 N749 1.356 . S
N752 C744 1.356 . S
N752 H758 0.984 . S
N752 H759 0.984 . S
N753 C746 1.356 . S
N753 H756 0.984 . S
N753 H757 0.985 . S
H754 N749 0.984 . S
H755 N749 0.985 . S
H756 N753 0.984 . S
H757 N753 0.985 . S
H758 N752 0.984 . S
H759 N752 0.984 . S
H760 N748 0.984 . S
H761 N748 0.985 . S
C762 C763 1.363 . S
C762 C768 1.379 . S
C762 N770 1.356 . S
C763 C762 1.363 . S
C763 C769 1.363 . S
C764 C765 1.363 . S
C764 C769 1.379 . S
C764 N771 1.356 . S
C765 C764 1.363 . S
C765 C768 1.363 . S
N766 C768 1.356 . S
N766 H778 0.984 . S
N766 H779 0.985 . S
N767 C769 1.356 . S
N767 H772 0.984 . S
N767 H773 0.985 . S
C768 C762 1.379 . S
C768 C765 1.363 . S
C768 N766 1.356 . S
C769 C763 1.363 . S
C769 C764 1.379 . S
C769 N767 1.356 . S
N770 C762 1.356 . S
N770 H776 0.984 . S
N770 H777 0.984 . S
N771 C764 1.356 . S
N771 H774 0.984 . S
N771 H775 0.985 . S
H772 N767 0.984 . S
H773 N767 0.985 . S
H774 N771 0.984 . S
H775 N771 0.985 . S
H776 N770 0.984 . S
H777 N770 0.984 . S
H778 N766 0.984 . S
H779 N766 0.985 . S
C780 C781 1.363 . S
C780 C786 1.379 . S
C780 N788 1.356 . S
C781 C780 1.363 . S
C781 C787 1.363 . S
C782 C783 1.363 . S
C782 C787 1.379 . S
C782 N789 1.356 . S
C783 C782 1.363 . S
C783 C786 1.363 . S
N784 C786 1.356 . S
N784 H796 0.984 . S
N784 H797 0.985 . S
N785 C787 1.356 . S
N785 H790 0.984 . S
N785 H791 0.985 . S
C786 C780 1.379 . S
C786 C783 1.363 . S
C786 N784 1.356 . S
C787 C781 1.363 . S
C787 C782 1.379 . S
C787 N785 1.356 . S
N788 C780 1.356 . S
N788 H794 0.984 . S
N788 H795 0.984 . S
N789 C782 1.356 . S
N789 H792 0.984 . S
N789 H793 0.985 . S
H790 N785 0.984 . S
H791 N785 0.985 . S
H792 N789 0.984 . S
H793 N789 0.985 . S
H794 N788 0.984 . S
H795 N788 0.984 . S
H796 N784 0.984 . S
H797 N784 0.985 . S
C798 C799 1.363 . S
C798 C804 1.379 . S
C798 N806 1.356 . S
C799 C798 1.363 . S
C799 C805 1.363 . S
C800 C801 1.363 . S
C800 C805 1.379 . S
C800 N807 1.356 . S
C801 C800 1.363 . S
C801 C804 1.363 . S
N802 C804 1.356 . S
N802 H814 0.984 . S
N802 H815 0.985 . S
N803 C805 1.356 . S
N803 H808 0.984 . S
N803 H809 0.985 . S
C804 C798 1.379 . S
C804 C801 1.363 . S
C804 N802 1.356 . S
C805 C799 1.363 . S
C805 C800 1.379 . S
C805 N803 1.356 . S
N806 C798 1.356 . S
N806 H812 0.984 . S
N806 H813 0.984 . S
N807 C800 1.356 . S
N807 H810 0.984 . S
N807 H811 0.985 . S
H808 N803 0.984 . S
H809 N803 0.985 . S
H810 N807 0.984 . S
H811 N807 0.985 . S
H812 N806 0.984 . S
H813 N806 0.984 . S
H814 N802 0.984 . S
H815 N802 0.985 . S
C816 C817 1.363 . S
C816 C822 1.379 . S
C816 N824 1.356 . S
C817 C816 1.363 . S
C817 C823 1.363 . S
C818 C819 1.363 . S
C818 C823 1.379 . S
C818 N825 1.356 . S
C819 C818 1.363 . S
C819 C822 1.363 . S
N820 C822 1.356 . S
N820 H832 0.984 . S
N820 H833 0.985 . S
N821 C823 1.356 . S
N821 H826 0.984 . S
N821 H827 0.985 . S
C822 C816 1.379 . S
C822 C819 1.363 . S
C822 N820 1.356 . S
C823 C817 1.363 . S
C823 C818 1.379 . S
C823 N821 1.356 . S
N824 C816 1.356 . S
N824 H830 0.984 . S
N824 H831 0.984 . S
N825 C818 1.356 . S
N825 H828 0.984 . S
N825 H829 0.985 . S
H826 N821 0.984 . S
H827 N821 0.985 . S
H828 N825 0.984 . S
H829 N825 0.985 . S
H830 N824 0.984 . S
H831 N824 0.984 . S
H832 N820 0.984 . S
H833 N820 0.985 . S
C834 C835 1.363 . S
C834 C840 1.379 . S
C834 N842 1.356 . S
C835 C834 1.363 . S
C835 C841 1.363 . S
C836 C837 1.363 . S
C836 C841 1.379 . S
C836 N843 1.356 . S
C837 C836 1.363 . S
C837 C840 1.363 . S
N838 C840 1.356 . S
N838 H850 0.984 1_556 S
N838 H851 0.989 . S
N839 C841 1.356 . S
N839 H844 0.984 . S
N839 H845 0.985 . S
C840 C834 1.379 . S
C840 C837 1.363 . S
C840 N838 1.356 . S
C841 C835 1.363 . S
C841 C836 1.379 . S
C841 N839 1.356 . S
N842 C834 1.356 . S
N842 H848 0.984 . S
N842 H849 0.984 . S
N843 C836 1.356 . S
N843 H846 0.984 . S
N843 H847 0.985 . S
H844 N839 0.984 . S
H845 N839 0.985 . S
H846 N843 0.984 . S
H847 N843 0.985 . S
H848 N842 0.984 . S
H849 N842 0.984 . S
H850 N838 0.984 1_554 S
H851 N838 0.989 . S
C852 C853 1.363 . S
C852 C858 1.379 . S
C852 N860 1.356 . S
C853 C852 1.363 . S
C853 C859 1.363 . S
C854 C855 1.363 . S
C854 C859 1.379 . S
C854 N861 1.356 . S
C855 C854 1.363 . S
C855 C858 1.363 . S
N856 C858 1.356 . S
N856 H868 0.984 . S
N856 H869 0.985 . S
N857 C859 1.356 . S
N857 H862 0.984 . S
N857 H863 0.985 . S
C858 C852 1.379 . S
C858 C855 1.363 . S
C858 N856 1.356 . S
C859 C853 1.363 . S
C859 C854 1.379 . S
C859 N857 1.356 . S
N860 C852 1.356 . S
N860 H866 0.984 . S
N860 H867 0.984 . S
N861 C854 1.356 . S
N861 H864 0.984 1_554 S
N861 H865 0.985 1_554 S
H862 N857 0.984 . S
H863 N857 0.985 . S
H864 N861 0.984 1_556 S
H865 N861 0.985 1_556 S
H866 N860 0.984 . S
H867 N860 0.984 . S
H868 N856 0.984 . S
H869 N856 0.985 . S
C870 C871 1.363 . S
C870 C876 1.379 . S
C870 N878 1.356 . S
C871 C870 1.363 . S
C871 C877 1.363 . S
C872 C873 1.363 . S
C872 C877 1.379 . S
C872 N879 1.356 . S
C873 C872 1.363 . S
C873 C876 1.363 . S
N874 C876 1.356 . S
N874 H886 0.984 . S
N874 H887 0.985 . S
N875 C877 1.356 . S
N875 H880 0.984 . S
N875 H881 0.985 . S
C876 C870 1.379 . S
C876 C873 1.363 . S
C876 N874 1.356 . S
C877 C871 1.363 . S
C877 C872 1.379 . S
C877 N875 1.356 . S
N878 C870 1.356 . S
N878 H884 0.984 . S
N878 H885 0.984 . S
N879 C872 1.356 . S
N879 H882 0.984 . S
N879 H883 0.985 . S
H880 N875 0.984 . S
H881 N875 0.985 . S
H882 N879 0.984 . S
H883 N879 0.985 . S
H884 N878 0.984 . S
H885 N878 0.984 . S
H886 N874 0.984 . S
H887 N874 0.985 . S
C888 C889 1.363 . S
C888 C894 1.379 . S
C888 N896 1.356 . S
C889 C888 1.363 . S
C889 C895 1.363 . S
C890 C891 1.363 . S
C890 C895 1.379 . S
C890 N897 1.356 1_556 S
C891 C890 1.363 . S
C891 C894 1.363 . S
N892 C894 1.356 . S
N892 H904 0.984 . S
N892 H905 0.985 . S
N893 C895 1.356 . S
N893 H898 0.984 . S
N893 H899 0.985 . S
C894 C888 1.379 . S
C894 C891 1.363 . S
C894 N892 1.356 . S
C895 C889 1.363 . S
C895 C890 1.379 . S
C895 N893 1.356 . S
N896 C888 1.356 . S
N896 H902 0.984 . S
N896 H903 0.984 . S
N897 C890 1.356 1_554 S
N897 H900 0.984 . S
N897 H901 0.985 . S
H898 N893 0.984 . S
H899 N893 0.985 . S
H900 N897 0.984 . S
H901 N897 0.985 . S
H902 N896 0.984 . S
H903 N896 0.984 . S
H904 N892 0.984 . S
H905 N892 0.985 . S
C906 C907 1.363 . S
C906 C912 1.379 . S
C906 N914 1.356 . S
C907 C906 1.363 . S
C907 C913 1.363 . S
C908 C909 1.363 . S
C908 C913 1.379 . S
C908 N915 1.356 . S
C909 C908 1.363 . S
C909 C912 1.363 . S
N910 C912 1.356 . S
N910 H922 0.984 . S
N910 H923 0.985 . S
N911 C913 1.356 . S
N911 H916 0.984 . S
N911 H917 0.985 . S
C912 C906 1.379 . S
C912 C909 1.363 . S
C912 N910 1.356 . S
C913 C907 1.363 . S
C913 C908 1.379 . S
C913 N911 1.356 . S
N914 C906 1.356 . S
N914 H920 0.984 . S
N914 H921 0.984 . S
N915 C908 1.356 . S
N915 H918 0.984 . S
N915 H919 0.985 1_556 S
H916 N911 0.984 . S
H917 N911 0.985 . S
H918 N915 0.984 . S
H919 N915 0.985 1_554 S
H920 N914 0.984 . S
H921 N914 0.984 . S
H922 N910 0.984 . S
H923 N910 0.985 . S
C924 C925 1.363 . S
C924 C930 1.379 . S
C924 N932 1.356 . S
C925 C924 1.363 . S
C925 C931 1.363 . S
C926 C927 1.363 . S
C926 C931 1.379 . S
C926 N933 1.356 . S
C927 C926 1.363 . S
C927 C930 1.363 . S
N928 C930 1.356 . S
N928 H940 0.984 . S
N928 H941 0.985 . S
N929 C931 1.356 . S
N929 H934 0.984 . S
N929 H935 0.985 . S
C930 C924 1.379 . S
C930 C927 1.363 . S
C930 N928 1.356 . S
C931 C925 1.363 . S
C931 C926 1.379 . S
C931 N929 1.356 . S
N932 C924 1.356 . S
N932 H938 0.984 . S
N932 H939 0.984 . S
N933 C926 1.356 . S
N933 H936 0.984 . S
N933 H937 0.985 . S
H934 N929 0.984 . S
H935 N929 0.985 . S
H936 N933 0.984 . S
H937 N933 0.985 . S
H938 N932 0.984 . S
H939 N932 0.984 . S
H940 N928 0.984 . S
H941 N928 0.985 . S
C942 C943 1.363 . S
C942 C948 1.379 . S
C942 N950 1.356 . S
C943 C942 1.363 . S
C943 C949 1.363 . S
C944 C945 1.363 . S
C944 C949 1.379 . S
C944 N951 1.356 . S
C945 C944 1.363 . S
C945 C948 1.363 . S
N946 C948 1.356 . S
N946 H958 0.984 . S
N946 H959 0.985 . S
N947 C949 1.356 . S
N947 H952 0.984 . S
N947 H953 0.985 . S
C948 C942 1.379 . S
C948 C945 1.363 . S
C948 N946 1.356 . S
C949 C943 1.363 . S
C949 C944 1.379 . S
C949 N947 1.356 . S
N950 C942 1.356 . S
N950 H956 0.984 . S
N950 H957 0.984 . S
N951 C944 1.356 . S
N951 H954 0.984 . S
N951 H955 0.985 1_554 S
H952 N947 0.984 . S
H953 N947 0.985 . S
H954 N951 0.984 . S
H955 N951 0.985 1_556 S
H956 N950 0.984 . S
H957 N950 0.984 . S
H958 N946 0.984 . S
H959 N946 0.985 . S
C960 C961 1.363 . S
C960 C966 1.379 . S
C960 N968 1.356 . S
C961 C960 1.363 . S
C961 C967 1.363 . S
C962 C963 1.363 . S
C962 C967 1.379 . S
C962 N969 1.356 . S
C963 C962 1.363 . S
C963 C966 1.363 . S
N964 C966 1.356 . S
N964 H976 0.984 . S
N964 H977 0.985 . S
N965 C967 1.356 . S
N965 H970 0.984 . S
N965 H971 0.985 . S
C966 C960 1.379 . S
C966 C963 1.363 . S
C966 N964 1.356 . S
C967 C961 1.363 . S
C967 C962 1.379 . S
C967 N965 1.356 . S
N968 C960 1.356 . S
N968 H974 0.984 . S
N968 H975 0.984 . S
N969 C962 1.356 . S
N969 H972 0.984 . S
N969 H973 0.985 . S
H970 N965 0.984 . S
H971 N965 0.985 . S
H972 N969 0.984 . S
H973 N969 0.985 . S
H974 N968 0.984 . S
H975 N968 0.984 . S
H976 N964 0.984 . S
H977 N964 0.985 . S
C978 C979 1.363 . S
C978 C984 1.379 . S
C978 N986 1.356 . S
C979 C978 1.363 . S
C979 C985 1.363 . S
C980 C981 1.363 . S
C980 C985 1.379 . S
C980 N987 1.356 . S
C981 C980 1.363 . S
C981 C984 1.363 . S
N982 C984 1.356 . S
N982 H994 0.984 . S
N982 H995 0.985 . S
N983 C985 1.356 . S
N983 H988 0.984 . S
N983 H989 0.985 . S
C984 C978 1.379 . S
C984 C981 1.363 . S
C984 N982 1.356 . S
C985 C979 1.363 . S
C985 C980 1.379 . S
C985 N983 1.356 . S
N986 C978 1.356 . S
N986 H992 0.984 . S
N986 H993 0.984 . S
N987 C980 1.356 . S
N987 H990 0.984 . S
N987 H991 0.985 . S
H988 N983 0.984 . S
H989 N983 0.985 . S
H990 N987 0.984 . S
H991 N987 0.985 . S
H992 N986 0.984 . S
H993 N986 0.984 . S
H994 N982 0.984 . S
H995 N982 0.985 . S
C996 C997 1.363 . S
C996 C1002 1.379 . S
C996 N1004 1.356 . S
C997 C996 1.363 . S
C997 C1003 1.363 . S
C998 C999 1.363 . S
C998 C1003 1.379 . S
C998 N1005 1.356 . S
C999 C998 1.363 . S
C999 C1002 1.363 . S
N1000 C1002 1.356 . S
N1000 H1012 0.984 . S
N1000 H1013 0.985 . S
N1001 C1003 1.356 . S
N1001 H1006 0.984 . S
N1001 H1007 0.985 . S
C1002 C996 1.379 . S
C1002 C999 1.363 . S
C1002 N1000 1.356 . S
C1003 C997 1.363 . S
C1003 C998 1.379 . S
C1003 N1001 1.356 . S
N1004 C996 1.356 . S
N1004 H1010 0.984 . S
N1004 H1011 0.984 . S
N1005 C998 1.356 . S
N1005 H1008 0.984 . S
N1005 H1009 0.985 . S
H1006 N1001 0.984 . S
H1007 N1001 0.985 . S
H1008 N1005 0.984 . S
H1009 N1005 0.985 . S
H1010 N1004 0.984 . S
H1011 N1004 0.984 . S
H1012 N1000 0.984 . S
H1013 N1000 0.985 . S
C1014 C1015 1.363 . S
C1014 C1020 1.379 . S
C1014 N1022 1.356 . S
C1015 C1014 1.363 . S
C1015 C1021 1.363 . S
C1016 C1017 1.363 . S
C1016 C1021 1.379 . S
C1016 N1023 1.356 . S
C1017 C1016 1.363 . S
C1017 C1020 1.363 . S
N1018 C1020 1.356 . S
N1018 H1030 0.984 . S
N1018 H1031 0.985 . S
N1019 C1021 1.356 . S
N1019 H1024 0.984 . S
N1019 H1025 0.985 . S
C1020 C1014 1.379 . S
C1020 C1017 1.363 . S
C1020 N1018 1.356 . S
C1021 C1015 1.363 . S
C1021 C1016 1.379 . S
C1021 N1019 1.356 . S
N1022 C1014 1.356 . S
N1022 H1028 0.984 . S
N1022 H1029 0.984 . S
N1023 C1016 1.356 . S
N1023 H1026 0.984 . S
N1023 H1027 0.985 . S
H1024 N1019 0.984 . S
H1025 N1019 0.985 . S
H1026 N1023 0.984 . S
H1027 N1023 0.985 . S
H1028 N1022 0.984 . S
H1029 N1022 0.984 . S
H1030 N1018 0.984 . S
H1031 N1018 0.985 . S
C1032 C1033 1.363 . S
C1032 C1038 1.379 . S
C1032 N1040 1.356 . S
C1033 C1032 1.363 . S
C1033 C1039 1.363 . S
C1034 C1035 1.363 . S
C1034 C1039 1.379 . S
C1034 N1041 1.356 . S
C1035 C1034 1.363 . S
C1035 C1038 1.363 . S
N1036 C1038 1.356 . S
N1036 H1048 0.984 . S
N1036 H1049 0.985 . S
N1037 C1039 1.356 . S
N1037 H1042 0.984 . S
N1037 H1043 0.985 . S
C1038 C1032 1.379 . S
C1038 C1035 1.363 . S
C1038 N1036 1.356 . S
C1039 C1033 1.363 . S
C1039 C1034 1.379 . S
C1039 N1037 1.356 . S
N1040 C1032 1.356 . S
N1040 H1046 0.984 . S
N1040 H1047 0.984 . S
N1041 C1034 1.356 . S
N1041 H1044 0.984 . S
N1041 H1045 0.985 . S
H1042 N1037 0.984 . S
H1043 N1037 0.985 . S
H1044 N1041 0.984 . S
H1045 N1041 0.985 . S
H1046 N1040 0.984 . S
H1047 N1040 0.984 . S
H1048 N1036 0.984 . S
H1049 N1036 0.985 . S
C1050 C1051 1.363 . S
C1050 C1056 1.379 . S
C1050 N1058 1.356 . S
C1051 C1050 1.363 . S
C1051 C1057 1.363 . S
C1052 C1053 1.363 . S
C1052 C1057 1.379 . S
C1052 N1059 1.356 . S
C1053 C1052 1.363 . S
C1053 C1056 1.363 . S
N1054 C1056 1.356 . S
N1054 H1066 0.984 . S
N1054 H1067 0.985 . S
N1055 C1057 1.356 . S
N1055 H1060 0.984 . S
N1055 H1061 0.985 . S
C1056 C1050 1.379 . S
C1056 C1053 1.363 . S
C1056 N1054 1.356 . S
C1057 C1051 1.363 . S
C1057 C1052 1.379 . S
C1057 N1055 1.356 . S
N1058 C1050 1.356 . S
N1058 H1064 0.984 . S
N1058 H1065 0.984 . S
N1059 C1052 1.356 . S
N1059 H1062 0.984 . S
N1059 H1063 0.985 . S
H1060 N1055 0.984 . S
H1061 N1055 0.985 . S
H1062 N1059 0.984 . S
H1063 N1059 0.985 . S
H1064 N1058 0.984 . S
H1065 N1058 0.984 . S
H1066 N1054 0.984 . S
H1067 N1054 0.985 . S
C1068 C1069 1.363 . S
C1068 C1074 1.379 . S
C1068 N1076 1.356 . S
C1069 C1068 1.363 . S
C1069 C1075 1.363 . S
C1070 C1071 1.363 . S
C1070 C1075 1.379 . S
C1070 N1077 1.356 . S
C1071 C1070 1.363 . S
C1071 C1074 1.363 . S
N1072 C1074 1.356 . S
N1072 H1084 0.984 . S
N1072 H1085 0.985 . S
N1073 C1075 1.356 . S
N1073 H1078 0.984 . S
N1073 H1079 0.985 . S
C1074 C1068 1.379 . S
C1074 C1071 1.363 . S
C1074 N1072 1.356 . S
C1075 C1069 1.363 . S
C1075 C1070 1.379 . S
C1075 N1073 1.356 . S
N1076 C1068 1.356 . S
N1076 H1082 0.984 . S
N1076 H1083 0.984 . S
N1077 C1070 1.356 . S
N1077 H1080 0.984 . S
N1077 H1081 0.985 . S
H1078 N1073 0.984 . S
H1079 N1073 0.985 . S
H1080 N1077 0.984 . S
H1081 N1077 0.985 . S
H1082 N1076 0.984 . S
H1083 N1076 0.984 . S
H1084 N1072 0.984 . S
H1085 N1072 0.985 . S
C1086 C1087 1.363 . S
C1086 C1092 1.379 . S
C1086 N1094 1.356 . S
C1087 C1086 1.363 . S
C1087 C1093 1.363 . S
C1088 C1089 1.363 . S
C1088 C1093 1.379 . S
C1088 N1095 1.356 . S
C1089 C1088 1.363 . S
C1089 C1092 1.363 . S
N1090 C1092 1.356 . S
N1090 H1102 0.984 . S
N1090 H1103 0.985 . S
N1091 C1093 1.356 . S
N1091 H1096 0.984 . S
N1091 H1097 0.985 . S
C1092 C1086 1.379 . S
C1092 C1089 1.363 . S
C1092 N1090 1.356 . S
C1093 C1087 1.363 . S
C1093 C1088 1.379 . S
C1093 N1091 1.356 . S
N1094 C1086 1.356 . S
N1094 H1100 0.984 . S
N1094 H1101 0.984 . S
N1095 C1088 1.356 . S
N1095 H1098 0.984 . S
N1095 H1099 0.985 . S
H1096 N1091 0.984 . S
H1097 N1091 0.985 . S
H1098 N1095 0.984 . S
H1099 N1095 0.985 . S
H1100 N1094 0.984 . S
H1101 N1094 0.984 . S
H1102 N1090 0.984 . S
H1103 N1090 0.985 . S
C1104 C1105 1.363 . S
C1104 C1110 1.379 . S
C1104 N1112 1.356 . S
C1105 C1104 1.363 . S
C1105 C1111 1.363 . S
C1106 C1107 1.363 . S
C1106 C1111 1.379 . S
C1106 N1113 1.356 . S
C1107 C1106 1.363 . S
C1107 C1110 1.363 . S
N1108 C1110 1.356 . S
N1108 H1120 0.984 . S
N1108 H1121 0.985 . S
N1109 C1111 1.356 . S
N1109 H1114 0.984 . S
N1109 H1115 0.985 . S
C1110 C1104 1.379 . S
C1110 C1107 1.363 . S
C1110 N1108 1.356 . S
C1111 C1105 1.363 . S
C1111 C1106 1.379 . S
C1111 N1109 1.356 . S
N1112 C1104 1.356 . S
N1112 H1118 0.984 . S
N1112 H1119 0.984 . S
N1113 C1106 1.356 . S
N1113 H1116 0.984 . S
N1113 H1117 0.985 . S
H1114 N1109 0.984 . S
H1115 N1109 0.985 . S
H1116 N1113 0.984 . S
H1117 N1113 0.985 . S
H1118 N1112 0.984 . S
H1119 N1112 0.984 . S
H1120 N1108 0.984 . S
H1121 N1108 0.985 . S
C1122 C1123 1.363 . S
C1122 C1128 1.379 . S
C1122 N1130 1.356 . S
C1123 C1122 1.363 . S
C1123 C1129 1.363 . S
C1124 C1125 1.363 . S
C1124 C1129 1.379 . S
C1124 N1131 1.356 . S
C1125 C1124 1.363 . S
C1125 C1128 1.363 . S
N1126 C1128 1.356 . S
N1126 H1138 0.984 . S
N1126 H1139 0.985 . S
N1127 C1129 1.356 . S
N1127 H1132 0.984 . S
N1127 H1133 0.985 . S
C1128 C1122 1.379 . S
C1128 C1125 1.363 . S
C1128 N1126 1.356 . S
C1129 C1123 1.363 . S
C1129 C1124 1.379 . S
C1129 N1127 1.356 . S
N1130 C1122 1.356 . S
N1130 H1136 0.984 . S
N1130 H1137 0.984 . S
N1131 C1124 1.356 . S
N1131 H1134 0.984 . S
N1131 H1135 0.985 . S
H1132 N1127 0.984 . S
H1133 N1127 0.985 . S
H1134 N1131 0.984 . S
H1135 N1131 0.985 . S
H1136 N1130 0.984 . S
H1137 N1130 0.984 . S
H1138 N1126 0.984 . S
H1139 N1126 0.985 . S
C1140 C1141 1.363 . S
C1140 C1146 1.379 . S
C1140 N1148 1.356 . S
C1141 C1140 1.363 . S
C1141 C1147 1.363 . S
C1142 C1143 1.363 . S
C1142 C1147 1.379 . S
C1142 N1149 1.356 . S
C1143 C1142 1.363 . S
C1143 C1146 1.363 . S
N1144 C1146 1.356 . S
N1144 H1156 0.984 . S
N1144 H1157 0.985 . S
N1145 C1147 1.356 . S
N1145 H1150 0.984 . S
N1145 H1151 0.985 . S
C1146 C1140 1.379 . S
C1146 C1143 1.363 . S
C1146 N1144 1.356 . S
C1147 C1141 1.363 . S
C1147 C1142 1.379 . S
C1147 N1145 1.356 . S
N1148 C1140 1.356 . S
N1148 H1154 0.984 . S
N1148 H1155 0.984 . S
N1149 C1142 1.356 . S
N1149 H1152 0.984 . S
N1149 H1153 0.985 . S
H1150 N1145 0.984 . S
H1151 N1145 0.985 . S
H1152 N1149 0.984 . S
H1153 N1149 0.985 . S
H1154 N1148 0.984 . S
H1155 N1148 0.984 . S
H1156 N1144 0.984 . S
H1157 N1144 0.985 . S
C1158 C1159 1.363 . S
C1158 C1164 1.379 . S
C1158 N1166 1.356 . S
C1159 C1158 1.363 . S
C1159 C1165 1.363 . S
C1160 C1161 1.363 . S
C1160 C1165 1.379 . S
C1160 N1167 1.356 . S
C1161 C1160 1.363 . S
C1161 C1164 1.363 . S
N1162 C1164 1.356 . S
N1162 H1174 0.984 . S
N1162 H1175 0.985 . S
N1163 C1165 1.356 . S
N1163 H1168 0.984 . S
N1163 H1169 0.985 . S
C1164 C1158 1.379 . S
C1164 C1161 1.363 . S
C1164 N1162 1.356 . S
C1165 C1159 1.363 . S
C1165 C1160 1.379 . S
C1165 N1163 1.356 . S
N1166 C1158 1.356 . S
N1166 H1172 0.984 . S
N1166 H1173 0.984 . S
N1167 C1160 1.356 . S
N1167 H1170 0.984 . S
N1167 H1171 0.985 . S
H1168 N1163 0.984 . S
H1169 N1163 0.985 . S
H1170 N1167 0.984 . S
H1171 N1167 0.985 . S
H1172 N1166 0.984 . S
H1173 N1166 0.984 . S
H1174 N1162 0.984 . S
H1175 N1162 0.985 . S
C1176 C1177 1.363 . S
C1176 C1182 1.379 . S
C1176 N1184 1.356 . S
C1177 C1176 1.363 . S
C1177 C1183 1.363 . S
C1178 C1179 1.363 . S
C1178 C1183 1.379 . S
C1178 N1185 1.356 . S
C1179 C1178 1.363 . S
C1179 C1182 1.363 . S
N1180 C1182 1.356 . S
N1180 H1192 0.984 . S
N1180 H1193 0.985 . S
N1181 C1183 1.356 . S
N1181 H1186 0.984 . S
N1181 H1187 0.985 . S
C1182 C1176 1.379 . S
C1182 C1179 1.363 . S
C1182 N1180 1.356 . S
C1183 C1177 1.363 . S
C1183 C1178 1.379 . S
C1183 N1181 1.356 . S
N1184 C1176 1.356 . S
N1184 H1190 0.984 . S
N1184 H1191 0.984 . S
N1185 C1178 1.356 . S
N1185 H1188 0.984 . S
N1185 H1189 0.985 . S
H1186 N1181 0.984 . S
H1187 N1181 0.985 . S
H1188 N1185 0.984 . S
H1189 N1185 0.985 . S
H1190 N1184 0.984 . S
H1191 N1184 0.984 . S
H1192 N1180 0.984 . S
H1193 N1180 0.985 . S
C1194 C1195 1.363 . S
C1194 C1200 1.379 . S
C1194 N1202 1.356 . S
C1195 C1194 1.363 . S
C1195 C1201 1.363 . S
C1196 C1197 1.363 . S
C1196 C1201 1.379 . S
C1196 N1203 1.356 . S
C1197 C1196 1.363 . S
C1197 C1200 1.363 . S
N1198 C1200 1.356 . S
N1198 H1210 0.984 . S
N1198 H1211 0.985 . S
N1199 C1201 1.356 . S
N1199 H1204 0.984 . S
N1199 H1205 0.985 . S
C1200 C1194 1.379 . S
C1200 C1197 1.363 . S
C1200 N1198 1.356 . S
C1201 C1195 1.363 . S
C1201 C1196 1.379 . S
C1201 N1199 1.356 . S
N1202 C1194 1.356 . S
N1202 H1208 0.984 . S
N1202 H1209 0.984 . S
N1203 C1196 1.356 . S
N1203 H1206 0.984 . S
N1203 H1207 0.985 . S
H1204 N1199 0.984 . S
H1205 N1199 0.985 . S
H1206 N1203 0.984 . S
H1207 N1203 0.985 . S
H1208 N1202 0.984 . S
H1209 N1202 0.984 . S
H1210 N1198 0.984 . S
H1211 N1198 0.985 . S
C1212 C1213 1.363 . S
C1212 C1218 1.379 . S
C1212 N1220 1.356 . S
C1213 C1212 1.363 . S
C1213 C1219 1.363 . S
C1214 C1215 1.363 . S
C1214 C1219 1.379 . S
C1214 N1221 1.356 . S
C1215 C1214 1.363 . S
C1215 C1218 1.363 . S
N1216 C1218 1.356 . S
N1216 H1228 0.984 . S
N1216 H1229 0.985 . S
N1217 C1219 1.356 . S
N1217 H1222 0.984 . S
N1217 H1223 0.985 . S
C1218 C1212 1.379 . S
C1218 C1215 1.363 . S
C1218 N1216 1.356 . S
C1219 C1213 1.363 . S
C1219 C1214 1.379 . S
C1219 N1217 1.356 . S
N1220 C1212 1.356 . S
N1220 H1226 0.984 . S
N1220 H1227 0.984 . S
N1221 C1214 1.356 . S
N1221 H1224 0.984 . S
N1221 H1225 0.985 . S
H1222 N1217 0.984 . S
H1223 N1217 0.985 . S
H1224 N1221 0.984 . S
H1225 N1221 0.985 . S
H1226 N1220 0.984 . S
H1227 N1220 0.984 . S
H1228 N1216 0.984 . S
H1229 N1216 0.985 . S
C1230 C1231 1.363 . S
C1230 C1236 1.379 . S
C1230 N1238 1.356 . S
C1231 C1230 1.363 . S
C1231 C1237 1.363 . S
C1232 C1233 1.363 . S
C1232 C1237 1.379 . S
C1232 N1239 1.356 . S
C1233 C1232 1.363 . S
C1233 C1236 1.363 . S
N1234 C1236 1.356 . S
N1234 H1246 0.984 . S
N1234 H1247 0.985 . S
N1235 C1237 1.356 . S
N1235 H1240 0.984 . S
N1235 H1241 0.985 . S
C1236 C1230 1.379 . S
C1236 C1233 1.363 . S
C1236 N1234 1.356 . S
C1237 C1231 1.363 . S
C1237 C1232 1.379 . S
C1237 N1235 1.356 . S
N1238 C1230 1.356 . S
N1238 H1244 0.984 . S
N1238 H1245 0.984 . S
N1239 C1232 1.356 . S
N1239 H1242 0.984 . S
N1239 H1243 0.985 . S
H1240 N1235 0.984 . S
H1241 N1235 0.985 . S
H1242 N1239 0.984 . S
H1243 N1239 0.985 . S
H1244 N1238 0.984 . S
H1245 N1238 0.984 . S
H1246 N1234 0.984 . S
H1247 N1234 0.985 . S
C1248 C1249 1.363 . S
C1248 C1254 1.379 . S
C1248 N1256 1.356 . S
C1249 C1248 1.363 . S
C1249 C1255 1.363 . S
C1250 C1251 1.363 . S
C1250 C1255 1.379 . S
C1250 N1257 1.356 . S
C1251 C1250 1.363 . S
C1251 C1254 1.363 . S
N1252 C1254 1.356 . S
N1252 H1264 0.984 . S
N1252 H1265 0.985 . S
N1253 C1255 1.356 . S
N1253 H1258 0.984 . S
N1253 H1259 0.985 . S
C1254 C1248 1.379 . S
C1254 C1251 1.363 . S
C1254 N1252 1.356 . S
C1255 C1249 1.363 . S
C1255 C1250 1.379 . S
C1255 N1253 1.356 . S
N1256 C1248 1.356 . S
N1256 H1262 0.984 . S
N1256 H1263 0.984 . S
N1257 C1250 1.356 . S
N1257 H1260 0.984 . S
N1257 H1261 0.985 . S
H1258 N1253 0.984 . S
H1259 N1253 0.985 . S
H1260 N1257 0.984 . S
H1261 N1257 0.985 . S
H1262 N1256 0.984 . S
H1263 N1256 0.984 . S
H1264 N1252 0.984 . S
H1265 N1252 0.985 . S
C1266 C1267 1.363 . S
C1266 C1272 1.379 . S
C1266 N1274 1.356 . S
C1267 C1266 1.363 . S
C1267 C1273 1.363 . S
C1268 C1269 1.363 . S
C1268 C1273 1.379 . S
C1268 N1275 1.356 . S
C1269 C1268 1.363 . S
C1269 C1272 1.363 . S
N1270 C1272 1.356 . S
N1270 H1282 0.984 . S
N1270 H1283 0.985 . S
N1271 C1273 1.356 . S
N1271 H1276 0.984 . S
N1271 H1277 0.985 . S
C1272 C1266 1.379 . S
C1272 C1269 1.363 . S
C1272 N1270 1.356 . S
C1273 C1267 1.363 . S
C1273 C1268 1.379 . S
C1273 N1271 1.356 . S
N1274 C1266 1.356 . S
N1274 H1280 0.984 . S
N1274 H1281 0.984 . S
N1275 C1268 1.356 . S
N1275 H1278 0.984 . S
N1275 H1279 0.985 . S
H1276 N1271 0.984 . S
H1277 N1271 0.985 . S
H1278 N1275 0.984 . S
H1279 N1275 0.985 . S
H1280 N1274 0.984 . S
H1281 N1274 0.984 . S
H1282 N1270 0.984 . S
H1283 N1270 0.985 . S
C1284 C1285 1.363 . S
C1284 C1290 1.379 . S
C1284 N1292 1.356 . S
C1285 C1284 1.363 . S
C1285 C1291 1.363 . S
C1286 C1287 1.363 . S
C1286 C1291 1.379 . S
C1286 N1293 1.356 . S
C1287 C1286 1.363 . S
C1287 C1290 1.363 . S
N1288 C1290 1.356 . S
N1288 H1300 0.984 . S
N1288 H1301 0.985 . S
N1289 C1291 1.356 . S
N1289 H1294 0.984 . S
N1289 H1295 0.985 . S
C1290 C1284 1.379 . S
C1290 C1287 1.363 . S
C1290 N1288 1.356 . S
C1291 C1285 1.363 . S
C1291 C1286 1.379 . S
C1291 N1289 1.356 . S
N1292 C1284 1.356 . S
N1292 H1298 0.984 . S
N1292 H1299 0.984 . S
N1293 C1286 1.356 . S
N1293 H1296 0.984 . S
N1293 H1297 0.985 . S
H1294 N1289 0.984 . S
H1295 N1289 0.985 . S
H1296 N1293 0.984 . S
H1297 N1293 0.985 . S
H1298 N1292 0.984 . S
H1299 N1292 0.984 . S
H1300 N1288 0.984 . S
H1301 N1288 0.985 . S
C1302 C1303 1.363 . S
C1302 C1308 1.379 . S
C1302 N1310 1.356 . S
C1303 C1302 1.363 . S
C1303 C1309 1.363 . S
C1304 C1305 1.363 . S
C1304 C1309 1.379 . S
C1304 N1311 1.356 . S
C1305 C1304 1.363 . S
C1305 C1308 1.363 . S
N1306 C1308 1.356 . S
N1306 H1318 0.984 . S
N1306 H1319 0.985 . S
N1307 C1309 1.356 . S
N1307 H1312 0.984 . S
N1307 H1313 0.985 . S
C1308 C1302 1.379 . S
C1308 C1305 1.363 . S
C1308 N1306 1.356 . S
C1309 C1303 1.363 . S
C1309 C1304 1.379 . S
C1309 N1307 1.356 . S
N1310 C1302 1.356 . S
N1310 H1316 0.984 . S
N1310 H1317 0.984 . S
N1311 C1304 1.356 . S
N1311 H1314 0.984 . S
N1311 H1315 0.985 . S
H1312 N1307 0.984 . S
H1313 N1307 0.985 . S
H1314 N1311 0.984 . S
H1315 N1311 0.985 . S
H1316 N1310 0.984 . S
H1317 N1310 0.984 . S
H1318 N1306 0.984 . S
H1319 N1306 0.985 . S
C1320 C1321 1.363 . S
C1320 C1326 1.379 . S
C1320 N1328 1.356 . S
C1321 C1320 1.363 . S
C1321 C1327 1.363 . S
C1322 C1323 1.363 . S
C1322 C1327 1.379 . S
C1322 N1329 1.356 . S
C1323 C1322 1.363 . S
C1323 C1326 1.363 . S
N1324 C1326 1.356 . S
N1324 H1336 0.984 . S
N1324 H1337 0.985 . S
N1325 C1327 1.356 . S
N1325 H1330 0.984 . S
N1325 H1331 0.985 . S
C1326 C1320 1.379 . S
C1326 C1323 1.363 . S
C1326 N1324 1.356 . S
C1327 C1321 1.363 . S
C1327 C1322 1.379 . S
C1327 N1325 1.356 . S
N1328 C1320 1.356 . S
N1328 H1334 0.984 . S
N1328 H1335 0.984 . S
N1329 C1322 1.356 . S
N1329 H1332 0.984 . S
N1329 H1333 0.985 . S
H1330 N1325 0.984 . S
H1331 N1325 0.985 . S
H1332 N1329 0.984 . S
H1333 N1329 0.985 . S
H1334 N1328 0.984 . S
H1335 N1328 0.984 . S
H1336 N1324 0.984 . S
H1337 N1324 0.985 . S
C1338 C1339 1.363 . S
C1338 C1344 1.379 . S
C1338 N1346 1.356 . S
C1339 C1338 1.363 . S
C1339 C1345 1.363 . S
C1340 C1341 1.363 . S
C1340 C1345 1.379 . S
C1340 N1347 1.356 . S
C1341 C1340 1.363 . S
C1341 C1344 1.363 . S
N1342 C1344 1.356 . S
N1342 H1354 0.984 . S
N1342 H1355 0.985 . S
N1343 C1345 1.356 . S
N1343 H1348 0.984 . S
N1343 H1349 0.985 . S
C1344 C1338 1.379 . S
C1344 C1341 1.363 . S
C1344 N1342 1.356 . S
C1345 C1339 1.363 . S
C1345 C1340 1.379 . S
C1345 N1343 1.356 . S
N1346 C1338 1.356 . S
N1346 H1352 0.984 . S
N1346 H1353 0.984 . S
N1347 C1340 1.356 . S
N1347 H1350 0.984 . S
N1347 H1351 0.985 . S
H1348 N1343 0.984 . S
H1349 N1343 0.985 . S
H1350 N1347 0.984 . S
H1351 N1347 0.985 . S
H1352 N1346 0.984 . S
H1353 N1346 0.984 . S
H1354 N1342 0.984 . S
H1355 N1342 0.985 . S
C1356 C1357 1.363 . S
C1356 C1362 1.379 . S
C1356 N1364 1.356 . S
C1357 C1356 1.363 . S
C1357 C1363 1.363 . S
C1358 C1359 1.363 . S
C1358 C1363 1.379 . S
C1358 N1365 1.356 . S
C1359 C1358 1.363 . S
C1359 C1362 1.363 . S
N1360 C1362 1.356 . S
N1360 H1372 0.984 . S
N1360 H1373 0.985 . S
N1361 C1363 1.356 . S
N1361 H1366 0.984 . S
N1361 H1367 0.985 . S
C1362 C1356 1.379 . S
C1362 C1359 1.363 . S
C1362 N1360 1.356 . S
C1363 C1357 1.363 . S
C1363 C1358 1.379 . S
C1363 N1361 1.356 . S
N1364 C1356 1.356 . S
N1364 H1370 0.984 . S
N1364 H1371 0.984 . S
N1365 C1358 1.356 . S
N1365 H1368 0.984 . S
N1365 H1369 0.985 . S
H1366 N1361 0.984 . S
H1367 N1361 0.985 . S
H1368 N1365 0.984 . S
H1369 N1365 0.985 . S
H1370 N1364 0.984 . S
H1371 N1364 0.984 . S
H1372 N1360 0.984 . S
H1373 N1360 0.985 . S
C1374 C1375 1.363 . S
C1374 C1380 1.379 . S
C1374 N1382 1.356 . S
C1375 C1374 1.363 . S
C1375 C1381 1.363 . S
C1376 C1377 1.363 . S
C1376 C1381 1.379 . S
C1376 N1383 1.356 . S
C1377 C1376 1.363 . S
C1377 C1380 1.363 . S
N1378 C1380 1.356 . S
N1378 H1390 0.984 . S
N1378 H1391 0.985 . S
N1379 C1381 1.356 . S
N1379 H1384 0.984 . S
N1379 H1385 0.985 . S
C1380 C1374 1.379 . S
C1380 C1377 1.363 . S
C1380 N1378 1.356 . S
C1381 C1375 1.363 . S
C1381 C1376 1.379 . S
C1381 N1379 1.356 . S
N1382 C1374 1.356 . S
N1382 H1388 0.984 . S
N1382 H1389 0.984 . S
N1383 C1376 1.356 . S
N1383 H1386 0.984 . S
N1383 H1387 0.985 . S
H1384 N1379 0.984 . S
H1385 N1379 0.985 . S
H1386 N1383 0.984 . S
H1387 N1383 0.985 . S
H1388 N1382 0.984 . S
H1389 N1382 0.984 . S
H1390 N1378 0.984 . S
H1391 N1378 0.985 . S
C1392 C1393 1.363 . S
C1392 C1398 1.379 . S
C1392 N1400 1.356 . S
C1393 C1392 1.363 . S
C1393 C1399 1.363 . S
C1394 C1395 1.363 . S
C1394 C1399 1.379 . S
C1394 N1401 1.356 . S
C1395 C1394 1.363 . S
C1395 C1398 1.363 . S
N1396 C1398 1.356 . S
N1396 H1408 0.984 . S
N1396 H1409 0.985 . S
N1397 C1399 1.356 . S
N1397 H1402 0.984 . S
N1397 H1403 0.985 . S
C1398 C1392 1.379 . S
C1398 C1395 1.363 . S
C1398 N1396 1.356 . S
C1399 C1393 1.363 . S
C1399 C1394 1.379 . S
C1399 N1397 1.356 . S
N1400 C1392 1.356 . S
N1400 H1406 0.984 . S
N1400 H1407 0.984 . S
N1401 C1394 1.356 . S
N1401 H1404 0.984 . S
N1401 H1405 0.985 . S
H1402 N1397 0.984 . S
H1403 N1397 0.985 . S
H1404 N1401 0.984 . S
H1405 N1401 0.985 . S
H1406 N1400 0.984 . S
H1407 N1400 0.984 . S
H1408 N1396 0.984 . S
H1409 N1396 0.985 . S
C1410 C1411 1.363 . S
C1410 C1416 1.379 . S
C1410 N1418 1.356 . S
C1411 C1410 1.363 . S
C1411 C1417 1.363 . S
C1412 C1413 1.363 . S
C1412 C1417 1.379 . S
C1412 N1419 1.356 . S
C1413 C1412 1.363 . S
C1413 C1416 1.363 . S
N1414 C1416 1.356 . S
N1414 H1426 0.984 . S
N1414 H1427 0.985 . S
N1415 C1417 1.356 . S
N1415 H1420 0.984 . S
N1415 H1421 0.985 . S
C1416 C1410 1.379 . S
C1416 C1413 1.363 . S
C1416 N1414 1.356 . S
C1417 C1411 1.363 . S
C1417 C1412 1.379 . S
C1417 N1415 1.356 . S
N1418 C1410 1.356 . S
N1418 H1424 0.984 . S
N1418 H1425 0.984 . S
N1419 C1412 1.356 . S
N1419 H1422 0.984 . S
N1419 H1423 0.985 . S
H1420 N1415 0.984 . S
H1421 N1415 0.985 . S
H1422 N1419 0.984 . S
H1423 N1419 0.985 . S
H1424 N1418 0.984 . S
H1425 N1418 0.984 . S
H1426 N1414 0.984 . S
H1427 N1414 0.985 . S
C567 C275 0.832 . S
C565 N6 0.804 . S
C585 C253 2.118 . S
C583 C57 2.221 . S
C603 C250 1.012 . S
C601 C61 1.017 . S
C619 N96 0.971 . S
C621 C262 0.947 . S
C637 C136 2.218 . S
C639 C245 2.111 . S
C657 C267 1.012 . S
C655 C160 1.017 . S
C673 N194 0.975 . S
C675 C272 0.956 . S
C691 N224 0.804 . S
C693 C268 0.833 . S
C711 C326 2.103 . S
C709 C10 2.180 . S
C727 N36 0.977 . S
C729 C376 1.100 . S
C747 C299 0.884 . S
C745 N74 0.854 . S
C765 C375 1.096 . S
C763 C100 1.082 . S
C781 C121 1.102 . S
C783 C304 1.119 . S
C801 C370 2.061 . S
C799 C177 2.129 . S
C817 C196 2.179 . S
C819 C329 2.197 . S
C835 C226 2.194 . S
C837 C361 2.143 . S
C853 C27 2.198 . S
C855 C353 2.147 . S
C871 N134 0.985 . S
C873 C383 1.112 . S
C891 C307 0.901 . S
C889 N156 0.865 . S
C909 C358 1.106 . S
C907 C181 1.092 . S
C925 C211 2.184 . S
C927 C316 2.107 . S
C943 C76 2.140 . S
C945 C380 2.077 . S
C963 C322 2.205 . S
C961 C117 2.185 . S
C979 C40 1.112 . S
C981 C321 1.128 . S
C997 N216 0.804 . S
C999 C437 0.832 . S
C1015 C147 2.221 . S
C1017 C415 2.118 . S
C1035 C412 1.012 . S
C1033 C151 1.018 . S
C1053 C424 0.947 . S
C1051 N186 0.971 . S
C1069 C46 2.218 . S
C1071 C407 2.111 . S
C1089 C429 1.012 . S
C1087 C70 1.017 . S
C1105 N104 0.975 . S
C1107 C434 0.956 . S
C1123 N14 0.804 . S
C1125 C430 0.833 . S
C1141 C220 2.180 . S
C1143 C488 2.103 . S
C1161 C538 1.100 . S
C1159 N126 0.977 . S
C1177 N164 0.854 . S
C1179 C461 0.884 . S
C1195 C190 1.083 . S
C1197 C537 1.096 . S
C1215 C466 1.119 . S
C1213 C31 1.102 . S
C1231 C87 2.129 . S
C1233 C532 2.061 . S
C1251 C491 2.197 . S
C1249 C106 2.179 . S
C1269 C523 2.143 . S
C1267 C16 2.194 . S
C1287 C515 2.147 . S
C1285 C237 2.198 . S
C1303 N44 0.985 . S
C1305 C545 1.112 . S
C1321 N66 0.865 . S
C1323 C469 0.901 . S
C1341 C520 1.106 . S
C1339 C91 1.092 . S
C1357 C1 2.184 . S
C1359 C478 2.108 . S
C1375 C166 2.140 . S
C1377 C542 2.077 . S
C1395 C484 2.205 . S
C1393 C207 2.185 . S
C1413 C483 1.128 . S
C1411 C130 1.112 . S
