# Generated by pormake.
# Topology rtl, (3,6)-cn, num edge types: 1
# Building blocks:
#     Node 0, Type 0, BuildingBlock: WUSLED_clean_sbu_0, # of connection points: 3
#     Node 1, Type 0, BuildingBlock: WUSLED_clean_sbu_0, # of connection points: 3
#     Node 2, Type 0, BuildingBlock: WUSLED_clean_sbu_0, # of connection points: 3
#     Node 3, Type 0, BuildingBlock: WUSLED_clean_sbu_0, # of connection points: 3
#     Node 4, Type 1, BuildingBlock: VOLQOD_clean_sbu_1, # of connection points: 6
#     Node 5, Type 1, BuildingBlock: VOLQOD_clean_sbu_1, # of connection points: 6
#     Edge 6, Type (0, 1), BuildingBlock: KIFKEQ_clean_linker_1, # of connection points: 2
#     Edge 7, Type (0, 1), BuildingBlock: KIFKEQ_clean_linker_1, # of connection points: 2
#     Edge 8, Type (0, 1), BuildingBlock: KIFKEQ_clean_linker_1, # of connection points: 2
#     Edge 9, Type (0, 1), BuildingBlock: KIFKEQ_clean_linker_1, # of connection points: 2
#     Edge 10, Type (0, 1), BuildingBlock: KIFKEQ_clean_linker_1, # of connection points: 2
#     Edge 11, Type (0, 1), BuildingBlock: KIFKEQ_clean_linker_1, # of connection points: 2
#     Edge 12, Type (0, 1), BuildingBlock: KIFKEQ_clean_linker_1, # of connection points: 2
#     Edge 13, Type (0, 1), BuildingBlock: KIFKEQ_clean_linker_1, # of connection points: 2
#     Edge 14, Type (0, 1), BuildingBlock: KIFKEQ_clean_linker_1, # of connection points: 2
#     Edge 15, Type (0, 1), BuildingBlock: KIFKEQ_clean_linker_1, # of connection points: 2
#     Edge 16, Type (0, 1), BuildingBlock: KIFKEQ_clean_linker_1, # of connection points: 2
#     Edge 17, Type (0, 1), BuildingBlock: KIFKEQ_clean_linker_1, # of connection points: 2
# Relax obj value: 0.076
# Max RMSD: 0.155
# Mean RMSD: 0.086
data_MOF--net-rtl--node1-WUSLED_clean_sbu_0--node2-VOLQOD_clean_sbu_1--edge1-KIFKEQ_clean_linker_1
_symmetry_space_group_name_H-M    P1
_symmetry_Int_Tables_number       1
_symmetry_cell_setting            triclinic
loop_
_symmetry_equiv_pos_as_xyz
'x, y, z'
_cell_length_a     48.607393
_cell_length_b     42.323854
_cell_length_c     31.283488
_cell_angle_alpha  90.388703
_cell_angle_beta   90.648857
_cell_angle_gamma 90.038888
loop_
_atom_site_label
_atom_site_type_symbol
_atom_site_fract_x
_atom_site_fract_y
_atom_site_fract_z
_atom_type_partial_charge
C0 C 0.14164 0.7834 0.1329 0.0
C1 C 0.13064 0.8133 0.12378 0.0
C2 C 0.11514 0.81868 0.19711 0.0
C3 C 0.11768 0.83086 0.15566 0.0
C4 C 0.12542 0.78831 0.20584 0.0
C5 C 0.1387 0.77087 0.17397 0.0
U6 U 0.15313 0.765 0.01615 0.0
O7 O 0.19094 0.76137 0.97887 0.0
O8 O 0.16324 0.72048 0.98273 0.0
C9 C 0.18735 0.73113 0.97066 0.0
C10 C 0.15639 0.76549 0.09983 0.0
C11 C 0.2112 0.71038 0.97918 0.0
C12 C 0.257 0.70165 0.00899 0.0
C13 C 0.23384 0.72085 0.0038 0.0
C14 C 0.23496 0.66071 0.96639 0.0
C15 C 0.258 0.67143 0.99002 0.0
C16 C 0.21188 0.68005 0.96089 0.0
C17 C 0.10799 0.8092 0.93493 0.0
C18 C 0.11949 0.81816 0.86061 0.0
C19 C 0.0743 0.83222 0.88656 0.0
C20 C 0.08163 0.82132 0.92717 0.0
C21 C 0.09331 0.83129 0.853 0.0
C22 C 0.12675 0.80711 0.90125 0.0
C23 C 0.116 0.8007 0.9788 0.0
O24 O 0.14155 0.74476 0.0782 0.0
O25 O 0.17243 0.78252 0.07546 0.0
O26 O 0.14019 0.81116 0.9917 0.0
O27 O 0.11118 0.77136 0.99005 0.0
H28 H 0.13234 0.82325 0.0921 0.0
H29 H 0.10959 0.85399 0.1479 0.0
H30 H 0.12382 0.77843 0.23757 0.0
H31 H 0.14694 0.74776 0.1815 0.0
H32 H 0.27443 0.71094 0.02691 0.0
H33 H 0.23394 0.74412 0.01843 0.0
H34 H 0.23475 0.63738 0.95195 0.0
H35 H 0.19464 0.67143 0.94188 0.0
H36 H 0.13446 0.8168 0.83528 0.0
H37 H 0.0541 0.84251 0.88191 0.0
H38 H 0.06692 0.82316 0.95285 0.0
H39 H 0.14719 0.79763 0.90663 0.0
C40 C 0.64827 0.73012 0.64108 0.0
C41 C 0.62281 0.71561 0.63266 0.0
C42 C 0.62107 0.69681 0.70604 0.0
C43 C 0.60928 0.69922 0.66487 0.0
C44 C 0.64649 0.71174 0.71434 0.0
C45 C 0.65996 0.72824 0.6821 0.0
U46 U 0.65828 0.74487 0.52317 0.0
O47 O 0.66927 0.78817 0.48844 0.0
O48 O 0.69564 0.74616 0.48449 0.0
C49 C 0.69291 0.77639 0.47592 0.0
C50 C 0.66331 0.74586 0.60673 0.0
C51 C 0.71743 0.79648 0.48357 0.0
C52 C 0.76434 0.80368 0.50989 0.0
C53 C 0.74087 0.78485 0.50502 0.0
C54 C 0.74118 0.84646 0.47322 0.0
C55 C 0.76482 0.83459 0.49379 0.0
C56 C 0.71777 0.8275 0.46795 0.0
C57 C 0.60924 0.7014 0.44513 0.0
C58 C 0.61812 0.68634 0.37141 0.0
C59 C 0.57219 0.6814 0.39988 0.0
C60 C 0.58151 0.69338 0.43915 0.0
C61 C 0.5905 0.67703 0.36581 0.0
C62 C 0.62742 0.69845 0.41076 0.0
C63 C 0.61897 0.71055 0.48817 0.0
O64 O 0.67748 0.72678 0.58209 0.0
O65 O 0.6493 0.76717 0.58519 0.0
O66 O 0.61557 0.7403 0.49923 0.0
O67 O 0.64301 0.69908 0.49981 0.0
H68 H 0.61353 0.71671 0.60104 0.0
H69 H 0.58957 0.68841 0.65749 0.0
H70 H 0.65636 0.71002 0.74545 0.0
H71 H 0.67972 0.7391 0.68901 0.0
H72 H 0.78217 0.79405 0.52631 0.0
H73 H 0.74126 0.76111 0.51769 0.0
H74 H 0.74105 0.87011 0.46021 0.0
H75 H 0.70001 0.83697 0.45117 0.0
H76 H 0.6328 0.68313 0.34596 0.0
H77 H 0.55067 0.6751 0.39641 0.0
H78 H 0.56716 0.69564 0.46525 0.0
H79 H 0.64894 0.70461 0.41471 0.0
C80 C 0.86072 0.23358 0.13667 0.0
C81 C 0.88593 0.21865 0.12869 0.0
C82 C 0.88806 0.19998 0.20215 0.0
C83 C 0.89954 0.20215 0.16116 0.0
C84 C 0.86289 0.21532 0.21003 0.0
C85 C 0.84936 0.23197 0.17753 0.0
U86 U 0.84869 0.24487 0.01848 0.0
O87 O 0.81053 0.24786 0.98046 0.0
O88 O 0.83979 0.28738 0.98055 0.0
C89 C 0.81525 0.27717 0.96897 0.0
C90 C 0.84558 0.24932 0.10191 0.0
C91 C 0.79245 0.29919 0.97651 0.0
C92 C 0.76012 0.32437 0.02458 0.0
C93 C 0.78279 0.30465 0.01799 0.0
C94 C 0.75698 0.33388 0.94837 0.0
C95 C 0.7468 0.339 0.98979 0.0
C96 C 0.7796 0.3141 0.94183 0.0
C97 C 0.89383 0.19448 0.94389 0.0
C98 C 0.9011 0.20162 0.86778 0.0
C99 C 0.91347 0.15214 0.90145 0.0
C100 C 0.90445 0.16384 0.94065 0.0
C101 C 0.91218 0.17096 0.86457 0.0
C102 C 0.89195 0.21329 0.90716 0.0
C103 C 0.88504 0.20597 0.98602 0.0
O104 O 0.86013 0.26885 0.07869 0.0
O105 O 0.8297 0.23055 0.07886 0.0
O106 O 0.86038 0.19702 0.99772 0.0
O107 O 0.8905 0.23569 0.99535 0.0
H108 H 0.89495 0.21948 0.09719 0.0
H109 H 0.91904 0.19105 0.15409 0.0
H110 H 0.85326 0.21378 0.24099 0.0
H111 H 0.82979 0.24311 0.1841 0.0
H112 H 0.75301 0.32813 0.0569 0.0
H113 H 0.79257 0.29336 0.04517 0.0
H114 H 0.74701 0.34446 0.92085 0.0
H115 H 0.78678 0.31004 0.90959 0.0
H116 H 0.89996 0.21678 0.84008 0.0
H117 H 0.9213 0.12822 0.90003 0.0
H118 H 0.90584 0.14891 0.9686 0.0
H119 H 0.88364 0.23699 0.909 0.0
C120 C 0.3685 0.27589 0.38293 0.0
C121 C 0.39315 0.29191 0.39218 0.0
C122 C 0.39569 0.30959 0.31836 0.0
C123 C 0.40668 0.30852 0.36016 0.0
C124 C 0.37122 0.29294 0.30916 0.0
C125 C 0.35774 0.27626 0.34122 0.0
U126 U 0.35662 0.26321 0.5008 0.0
O127 O 0.3183 0.26189 0.53732 0.0
O128 O 0.34567 0.22065 0.53692 0.0
C129 C 0.32173 0.23222 0.5483 0.0
C130 C 0.35313 0.26044 0.41713 0.0
C131 C 0.2979 0.21156 0.5404 0.0
C132 C 0.26409 0.1878 0.49221 0.0
C133 C 0.28735 0.2068 0.49891 0.0
C134 C 0.26201 0.17792 0.56832 0.0
C135 C 0.25109 0.17321 0.52689 0.0
C136 C 0.28519 0.19693 0.57496 0.0
C137 C 0.40299 0.30791 0.5804 0.0
C138 C 0.39194 0.31732 0.65497 0.0
C139 C 0.43697 0.3313 0.62848 0.0
C140 C 0.42939 0.32017 0.58787 0.0
C141 C 0.41819 0.33047 0.66235 0.0
C142 C 0.38443 0.30604 0.61433 0.0
C143 C 0.3948 0.29869 0.53669 0.0
O144 O 0.36708 0.23987 0.44004 0.0
O145 O 0.33823 0.2797 0.44044 0.0
O146 O 0.37089 0.30963 0.52352 0.0
O147 O 0.39882 0.26893 0.52626 0.0
H148 H 0.40169 0.29198 0.42433 0.0
H149 H 0.42566 0.32069 0.36823 0.0
H150 H 0.36197 0.29361 0.27752 0.0
H151 H 0.3386 0.26421 0.33366 0.0
H152 H 0.25637 0.18441 0.45989 0.0
H153 H 0.29701 0.21793 0.47183 0.0
H154 H 0.25228 0.16745 0.59581 0.0
H155 H 0.29303 0.20047 0.6072 0.0
H156 H 0.37713 0.31604 0.68051 0.0
H157 H 0.45721 0.3416 0.63296 0.0
H158 H 0.44396 0.32182 0.56201 0.0
H159 H 0.36398 0.29644 0.60918 0.0
O160 O 0.9388 0.99411 0.5117 0.0
Zn161 Zn 0.96808 0.02808 0.51362 0.0
O162 O 0.00508 0.00948 0.51159 0.0
Zn163 Zn 0.02629 0.02326 0.56165 0.0
Zn164 Zn 0.00238 0.96319 0.51178 0.0
Zn165 Zn 0.02389 0.02353 0.4599 0.0
O166 O 0.06091 0.04563 0.54504 0.0
O167 O 0.05948 0.04663 0.47417 0.0
O168 O 0.9629 0.05409 0.56758 0.0
O169 O 0.00427 0.05274 0.59836 0.0
O170 O 0.03725 0.98645 0.59843 0.0
O171 O 0.02047 0.94445 0.56427 0.0
O172 O 0.02046 0.94427 0.45966 0.0
O173 O 0.96145 0.05662 0.46309 0.0
O174 O 0.03348 0.98621 0.42261 0.0
O175 O 0.99971 0.05275 0.42528 0.0
C176 C 0.93977 0.96401 0.5113 0.0
C177 C 0.07147 0.05333 0.50954 0.0
C178 C 0.03354 0.95672 0.59577 0.0
C179 C 0.97944 0.0623 0.59758 0.0
C180 C 0.03142 0.95637 0.42676 0.0
C181 C 0.97563 0.0639 0.43057 0.0
O182 O 0.96266 0.94936 0.51151 0.0
O183 O 0.57013 0.49306 0.01624 0.0
Zn184 Zn 0.54018 0.52623 0.01638 0.0
O185 O 0.50365 0.50647 0.01151 0.0
Zn186 Zn 0.48517 0.52107 0.9594 0.0
Zn187 Zn 0.50736 0.46022 0.0096 0.0
Zn188 Zn 0.48149 0.51858 0.06072 0.0
O189 O 0.45003 0.54434 0.97251 0.0
O190 O 0.44664 0.54106 0.043 0.0
O191 O 0.54723 0.55507 0.96636 0.0
O192 O 0.50953 0.55028 0.92611 0.0
O193 O 0.47516 0.48438 0.92107 0.0
O194 O 0.49038 0.44198 0.95537 0.0
O195 O 0.48889 0.43975 0.06016 0.0
O196 O 0.54395 0.55205 0.07095 0.0
O197 O 0.47068 0.4805 0.09471 0.0
O198 O 0.5028 0.5474 0.10034 0.0
C199 C 0.56991 0.46299 0.01368 0.0
C200 C 0.43714 0.54997 0.00695 0.0
C201 C 0.47839 0.45457 0.92329 0.0
C202 C 0.53338 0.5619 0.93284 0.0
C203 C 0.47505 0.45094 0.09113 0.0
C204 C 0.52718 0.55843 0.10084 0.0
O205 O 0.54738 0.44766 0.01093 0.0
H206 H 0.23815 0.11719 0.56492 0.0
H207 H 0.20694 0.18514 0.4741 0.0
H208 H 0.19546 0.08725 0.55837 0.0
H209 H 0.1642 0.15506 0.46745 0.0
H210 H 0.0998 0.07695 0.44117 0.0
H211 H 0.14411 0.10435 0.44253 0.0
H212 H 0.14783 0.09536 0.57992 0.0
H213 H 0.104 0.06778 0.57866 0.0
C214 C 0.22216 0.12577 0.54359 0.0
C215 C 0.22588 0.15373 0.52034 0.0
C216 C 0.1977 0.1086 0.53982 0.0
C217 C 0.17633 0.11893 0.51268 0.0
C218 C 0.18035 0.14631 0.48834 0.0
C219 C 0.20486 0.16354 0.49215 0.0
C220 C 0.11011 0.08077 0.47165 0.0
C221 C 0.09829 0.07012 0.5098 0.0
C222 C 0.13544 0.09659 0.47242 0.0
C223 C 0.14955 0.1019 0.51131 0.0
C224 C 0.13772 0.09121 0.54935 0.0
C225 C 0.11244 0.07557 0.54862 0.0
H226 H 0.29279 0.66511 0.05928 0.0
H227 H 0.28085 0.6332 0.92884 0.0
H228 H 0.33582 0.63594 0.0633 0.0
H229 H 0.3229 0.60239 0.93382 0.0
H230 H 0.41463 0.58132 0.93886 0.0
H231 H 0.37119 0.60971 0.93567 0.0
H232 H 0.35534 0.58465 0.06685 0.0
H233 H 0.39932 0.55721 0.07049 0.0
C234 C 0.29923 0.65177 0.0315 0.0
C235 C 0.28333 0.65174 0.99364 0.0
C236 C 0.32378 0.63464 0.03401 0.0
C237 C 0.33298 0.61682 0.99884 0.0
C238 C 0.31675 0.61623 0.96133 0.0
C239 C 0.29233 0.63355 0.9587 0.0
C240 C 0.40189 0.58185 0.96705 0.0
C241 C 0.41052 0.56702 0.00496 0.0
C242 C 0.37683 0.59798 0.96513 0.0
C243 C 0.35961 0.59944 1.00095 0.0
C244 C 0.36821 0.58445 0.03882 0.0
C245 C 0.39341 0.56856 0.04086 0.0
H246 H 0.81723 0.81657 0.47578 0.0
H247 H 0.76967 0.89633 0.51942 0.0
H248 H 0.859 0.84816 0.48034 0.0
H249 H 0.81163 0.92789 0.52553 0.0
H250 H 0.88809 0.98457 0.48962 0.0
H251 H 0.84581 0.95367 0.48558 0.0
H252 H 0.89037 0.87122 0.52873 0.0
H253 H 0.93274 0.90178 0.53088 0.0
C254 C 0.8158 0.8408 0.48691 0.0
C255 C 0.79022 0.85396 0.49735 0.0
C256 C 0.83978 0.85894 0.48971 0.0
C257 C 0.83885 0.89064 0.50355 0.0
C258 C 0.81316 0.90375 0.51412 0.0
C259 C 0.7891 0.88566 0.51081 0.0
C260 C 0.88882 0.95984 0.49828 0.0
C261 C 0.91382 0.9456 0.51031 0.0
C262 C 0.86452 0.94213 0.49622 0.0
C263 C 0.86457 0.90982 0.50666 0.0
C264 C 0.88956 0.89582 0.51951 0.0
C265 C 0.91388 0.91341 0.52101 0.0
H266 H 0.73342 0.39523 0.95192 0.0
H267 H 0.70349 0.32697 0.04233 0.0
H268 H 0.69107 0.42561 0.95958 0.0
H269 H 0.66158 0.35785 0.05102 0.0
H270 H 0.57752 0.39893 0.01172 0.0
H271 H 0.62074 0.37011 0.00804 0.0
H272 H 0.66557 0.45825 0.01082 0.0
H273 H 0.62227 0.48726 0.01388 0.0
C274 C 0.71785 0.38679 0.97356 0.0
C275 C 0.7218 0.35861 0.99638 0.0
C276 C 0.69371 0.40437 0.9783 0.0
C277 C 0.67291 0.39411 0.00583 0.0
C278 C 0.67707 0.36622 0.02919 0.0
C279 C 0.70123 0.34871 0.02457 0.0
C280 C 0.59656 0.41224 0.01169 0.0
C281 C 0.59635 0.44546 0.013 0.0
C282 C 0.62137 0.39567 0.00984 0.0
C283 C 0.64662 0.41187 0.00917 0.0
C284 C 0.64646 0.44508 0.01083 0.0
C285 C 0.62162 0.46168 0.01282 0.0
H286 H 0.07598 0.80097 0.25446 0.0
H287 H 0.12594 0.88015 0.21685 0.0
H288 H 0.05449 0.83371 0.3094 0.0
H289 H 0.10534 0.91259 0.27239 0.0
H290 H 0.04531 0.97242 0.34544 0.0
H291 H 0.06423 0.9386 0.29003 0.0
H292 H 0.06229 0.85925 0.37627 0.0
H293 H 0.04226 0.89294 0.4312 0.0
C294 C 0.08252 0.82531 0.25828 0.0
C295 C 0.10247 0.8381 0.23124 0.0
C296 C 0.07031 0.84407 0.28982 0.0
C297 C 0.07802 0.87593 0.29529 0.0
C298 C 0.09835 0.88844 0.26854 0.0
C299 C 0.11028 0.86982 0.23678 0.0
C300 C 0.04885 0.94774 0.35257 0.0
C301 C 0.04237 0.93543 0.39282 0.0
C302 C 0.05988 0.92833 0.32083 0.0
C303 C 0.06509 0.89617 0.32867 0.0
C304 C 0.05828 0.88377 0.36883 0.0
C305 C 0.04692 0.90315 0.40046 0.0
H306 H 0.61704 0.71066 0.79163 0.0
H307 H 0.59403 0.64033 0.69699 0.0
H308 H 0.59539 0.67911 0.84699 0.0
H309 H 0.57214 0.60913 0.75218 0.0
H310 H 0.51206 0.5775 0.85443 0.0
H311 H 0.53243 0.61116 0.80043 0.0
H312 H 0.60254 0.62796 0.88353 0.0
H313 H 0.58209 0.59453 0.9379 0.0
C314 C 0.60749 0.68844 0.78263 0.0
C315 C 0.60728 0.67809 0.73979 0.0
C316 C 0.59506 0.67039 0.81435 0.0
C317 C 0.58202 0.64165 0.80396 0.0
C318 C 0.58164 0.63141 0.76113 0.0
C319 C 0.59416 0.64935 0.72946 0.0
C320 C 0.53176 0.58844 0.86135 0.0
C321 C 0.54545 0.5832 0.90054 0.0
C322 C 0.54351 0.60761 0.83026 0.0
C323 C 0.56915 0.62214 0.83763 0.0
C324 C 0.58264 0.61734 0.87704 0.0
C325 C 0.57097 0.59802 0.90809 0.0
H326 H 0.89283 0.21371 0.28785 0.0
H327 H 0.9145 0.14321 0.19347 0.0
H328 H 0.91458 0.18185 0.34352 0.0
H329 H 0.93655 0.11176 0.24899 0.0
H330 H 0.99698 0.07949 0.35286 0.0
H331 H 0.9767 0.11346 0.29835 0.0
H332 H 0.90684 0.13047 0.37937 0.0
H333 H 0.92715 0.09673 0.43414 0.0
C334 C 0.90211 0.19139 0.27896 0.0
C335 C 0.90191 0.18108 0.23611 0.0
C336 C 0.91461 0.17318 0.31087 0.0
C337 C 0.92732 0.14432 0.30063 0.0
C338 C 0.92731 0.13412 0.2578 0.0
C339 C 0.9147 0.15222 0.22596 0.0
C340 C 0.97735 0.09055 0.35919 0.0
C341 C 0.96368 0.08528 0.39789 0.0
C342 C 0.96567 0.1099 0.32783 0.0
C343 C 0.94014 0.12459 0.33452 0.0
C344 C 0.92666 0.11973 0.37344 0.0
C345 C 0.93825 0.10022 0.40471 0.0
H346 H 0.38626 0.36858 0.71216 0.0
H347 H 0.46676 0.32563 0.7072 0.0
H348 H 0.39943 0.39617 0.77797 0.0
H349 H 0.48017 0.35389 0.77255 0.0
H350 H 0.48683 0.39105 0.91063 0.0
H351 H 0.47088 0.3585 0.85042 0.0
H352 H 0.43125 0.43998 0.79476 0.0
H353 H 0.44686 0.47239 0.85477 0.0
C354 C 0.40664 0.36468 0.72543 0.0
C355 C 0.4255 0.345 0.70436 0.0
C356 C 0.41428 0.38076 0.76289 0.0
C357 C 0.44091 0.37742 0.78026 0.0
C358 C 0.45945 0.35683 0.76009 0.0
C359 C 0.45186 0.34088 0.72246 0.0
C360 C 0.47459 0.40198 0.88566 0.0
C361 C 0.46819 0.43437 0.88754 0.0
C362 C 0.46556 0.38335 0.85109 0.0
C363 C 0.44976 0.39665 0.81789 0.0
C364 C 0.44307 0.42891 0.8201 0.0
C365 C 0.45222 0.44755 0.85441 0.0
H366 H 0.60375 0.69164 0.28296 0.0
H367 H 0.55622 0.62622 0.35768 0.0
H368 H 0.58843 0.66471 0.21744 0.0
H369 H 0.54094 0.59959 0.29261 0.0
H370 H 0.49651 0.5783 0.16854 0.0
H371 H 0.51158 0.60874 0.23065 0.0
H372 H 0.59362 0.61382 0.17949 0.0
H373 H 0.57843 0.58372 0.11664 0.0
C374 C 0.59012 0.67149 0.28544 0.0
C375 C 0.58103 0.66127 0.32559 0.0
C376 C 0.58137 0.65607 0.24792 0.0
C377 C 0.56331 0.63014 0.24977 0.0
C378 C 0.55437 0.6199 0.28994 0.0
C379 C 0.56312 0.63523 0.3273 0.0
C380 C 0.51774 0.58598 0.1703 0.0
C381 C 0.53628 0.57832 0.13763 0.0
C382 C 0.52642 0.60333 0.20609 0.0
C383 C 0.55387 0.61347 0.21025 0.0
C384 C 0.57229 0.60656 0.17712 0.0
C385 C 0.56359 0.58915 0.1412 0.0
H386 H 0.88985 0.17807 0.78404 0.0
H387 H 0.9583 0.13554 0.85153 0.0
H388 H 0.90651 0.15569 0.71695 0.0
H389 H 0.97403 0.11192 0.78533 0.0
H390 H 0.01043 0.09381 0.65733 0.0
H391 H 0.99458 0.12365 0.71895 0.0
H392 H 0.91022 0.10528 0.68127 0.0
H393 H 0.92615 0.07625 0.61862 0.0
C394 C 0.9085 0.1641 0.78456 0.0
C395 C 0.92263 0.15845 0.82325 0.0
C396 C 0.91788 0.15096 0.74618 0.0
C397 C 0.9416 0.13192 0.74566 0.0
C398 C 0.95591 0.12677 0.7843 0.0
C399 C 0.94664 0.13997 0.82248 0.0
C400 C 0.98848 0.09631 0.66197 0.0
C401 C 0.96956 0.08237 0.63324 0.0
C402 C 0.97938 0.11332 0.69747 0.0
C403 C 0.95111 0.11655 0.70548 0.0
C404 C 0.93214 0.10352 0.67595 0.0
C405 C 0.94127 0.08671 0.64012 0.0
H406 H 0.41889 0.36815 0.32787 0.0
H407 H 0.40245 0.29547 0.23329 0.0
H408 H 0.43937 0.40102 0.27327 0.0
H409 H 0.42186 0.32908 0.17815 0.0
H410 H 0.48248 0.38683 0.09813 0.0
H411 H 0.46466 0.35196 0.15319 0.0
H412 H 0.42411 0.43138 0.21277 0.0
H413 H 0.44232 0.46624 0.1586 0.0
C414 C 0.41981 0.35906 0.29547 0.0
C415 C 0.40901 0.32912 0.28503 0.0
C416 C 0.43123 0.37812 0.26401 0.0
C417 C 0.43207 0.36782 0.22122 0.0
C418 C 0.42172 0.33766 0.21083 0.0
C419 C 0.41031 0.31854 0.24237 0.0
C420 C 0.46977 0.39685 0.12299 0.0
C421 C 0.46392 0.42939 0.12394 0.0
C422 C 0.45945 0.37682 0.15444 0.0
C423 C 0.44305 0.38888 0.18753 0.0
C424 C 0.43708 0.42137 0.18823 0.0
C425 C 0.4474 0.44136 0.15692 0.0
H426 H 0.12567 0.86934 0.80445 0.0
H427 H 0.04501 0.82655 0.80735 0.0
H428 H 0.11291 0.8972 0.73919 0.0
H429 H 0.032 0.85512 0.74266 0.0
H430 H 0.02521 0.89311 0.60635 0.0
H431 H 0.04132 0.86015 0.66534 0.0
H432 H 0.08154 0.94114 0.72303 0.0
H433 H 0.0658 0.97396 0.66414 0.0
C434 C 0.10535 0.86553 0.79082 0.0
C435 C 0.08631 0.84582 0.81117 0.0
C436 C 0.09794 0.88176 0.75369 0.0
C437 C 0.07138 0.87857 0.73596 0.0
C438 C 0.05267 0.85794 0.75538 0.0
C439 C 0.06004 0.84181 0.79265 0.0
C440 C 0.03765 0.90385 0.63148 0.0
C441 C 0.04414 0.93624 0.63052 0.0
C442 C 0.04676 0.88497 0.66535 0.0
C443 C 0.06272 0.89803 0.69882 0.0
C444 C 0.06959 0.93025 0.69746 0.0
C445 C 0.06038 0.94914 0.66379 0.0
loop_
_geom_bond_atom_site_label_1
_geom_bond_atom_site_label_2
_geom_bond_distance
_geom_bond_site_symmetry_2
_ccdc_geom_bond_type
C0 C1 1.264 . S
C0 C5 1.479 . S
C0 C10 1.465 . S
C1 C0 1.264 . S
C1 C3 1.339 . S
C1 H28 0.931 . S
C2 C3 1.395 . S
C2 C4 1.320 . S
C3 C1 1.339 . S
C3 C2 1.395 . S
C3 H29 0.929 . S
C4 C2 1.320 . S
C4 C5 1.405 . S
C4 H30 0.930 . S
C5 C0 1.479 . S
C5 C4 1.405 . S
C5 H31 0.931 . S
U6 O7 2.454 . S
U6 O8 2.458 1_554 S
U6 C9 2.984 . S
U6 C10 2.847 . S
U6 C23 2.882 1_554 S
U6 O24 2.441 . S
U6 O25 2.420 . S
U6 O26 2.455 1_554 S
U6 O27 2.449 1_554 S
O7 U6 2.454 . S
O7 C9 1.353 . S
O8 U6 2.458 1_556 S
O8 C9 1.286 1_556 S
C9 U6 2.984 . S
C9 O7 1.353 . S
C9 O8 1.286 1_554 S
C9 C11 1.363 . S
C10 C0 1.465 . S
C10 U6 2.847 . S
C10 O24 1.249 . S
C10 O25 1.202 . S
C11 C9 1.363 . S
C11 C13 1.408 . S
C11 C16 1.342 1_554 S
C12 C13 1.310 . S
C12 C15 1.461 . S
C12 H32 0.932 . S
C13 C11 1.408 . S
C13 C12 1.310 . S
C13 H33 0.930 . S
C14 C15 1.474 1_556 S
C14 C16 1.285 . S
C14 H34 0.929 . S
C15 C12 1.461 . S
C15 C14 1.474 1_554 S
C16 C11 1.342 1_556 S
C16 C14 1.285 . S
C16 H35 0.930 . S
C17 C20 1.424 . S
C17 C22 1.245 . S
C17 C23 1.428 . S
C18 C21 1.260 . S
C18 C22 1.477 . S
C18 H36 0.932 . S
C19 C20 1.384 . S
C19 C21 1.479 . S
C19 H37 0.929 . S
C20 C17 1.424 . S
C20 C19 1.384 . S
C20 H38 0.928 . S
C21 C18 1.260 . S
C21 C19 1.479 . S
C22 C17 1.245 . S
C22 C18 1.477 . S
C22 H39 0.932 . S
C23 U6 2.882 1_556 S
C23 C17 1.428 . S
C23 O26 1.301 . S
C23 O27 1.282 . S
O24 U6 2.441 . S
O24 C10 1.249 . S
O25 U6 2.420 . S
O25 C10 1.202 . S
O26 U6 2.455 1_556 S
O26 C23 1.301 . S
O27 U6 2.449 1_556 S
O27 C23 1.282 . S
H28 C1 0.931 . S
H29 C3 0.929 . S
H30 C4 0.930 . S
H31 C5 0.931 . S
H32 C12 0.932 . S
H33 C13 0.930 . S
H34 C14 0.929 . S
H35 C16 0.930 . S
H36 C18 0.932 . S
H37 C19 0.929 . S
H38 C20 0.928 . S
H39 C22 0.932 . S
C40 C41 1.264 . S
C40 C45 1.479 . S
C40 C50 1.465 . S
C41 C40 1.264 . S
C41 C43 1.339 . S
C41 H68 0.931 . S
C42 C43 1.395 . S
C42 C44 1.320 . S
C43 C41 1.339 . S
C43 C42 1.395 . S
C43 H69 0.929 . S
C44 C42 1.320 . S
C44 C45 1.405 . S
C44 H70 0.930 . S
C45 C40 1.479 . S
C45 C44 1.405 . S
C45 H71 0.931 . S
U46 O47 2.454 . S
U46 O48 2.458 . S
U46 C49 2.984 . S
U46 C50 2.847 . S
U46 C63 2.882 . S
U46 O64 2.441 . S
U46 O65 2.420 . S
U46 O66 2.455 . S
U46 O67 2.449 . S
O47 U46 2.454 . S
O47 C49 1.353 . S
O48 U46 2.458 . S
O48 C49 1.286 . S
C49 U46 2.984 . S
C49 O47 1.353 . S
C49 O48 1.286 . S
C49 C51 1.363 . S
C50 C40 1.465 . S
C50 U46 2.847 . S
C50 O64 1.249 . S
C50 O65 1.202 . S
C51 C49 1.363 . S
C51 C53 1.408 . S
C51 C56 1.342 . S
C52 C53 1.310 . S
C52 C55 1.461 . S
C52 H72 0.932 . S
C53 C51 1.408 . S
C53 C52 1.310 . S
C53 H73 0.930 . S
C54 C55 1.474 . S
C54 C56 1.285 . S
C54 H74 0.929 . S
C55 C52 1.461 . S
C55 C54 1.474 . S
C56 C51 1.342 . S
C56 C54 1.285 . S
C56 H75 0.930 . S
C57 C60 1.424 . S
C57 C62 1.245 . S
C57 C63 1.428 . S
C58 C61 1.260 . S
C58 C62 1.477 . S
C58 H76 0.932 . S
C59 C60 1.384 . S
C59 C61 1.479 . S
C59 H77 0.929 . S
C60 C57 1.424 . S
C60 C59 1.384 . S
C60 H78 0.928 . S
C61 C58 1.260 . S
C61 C59 1.479 . S
C62 C57 1.245 . S
C62 C58 1.477 . S
C62 H79 0.932 . S
C63 U46 2.882 . S
C63 C57 1.428 . S
C63 O66 1.301 . S
C63 O67 1.282 . S
O64 U46 2.441 . S
O64 C50 1.249 . S
O65 U46 2.420 . S
O65 C50 1.202 . S
O66 U46 2.455 . S
O66 C63 1.301 . S
O67 U46 2.449 . S
O67 C63 1.282 . S
H68 C41 0.931 . S
H69 C43 0.929 . S
H70 C44 0.930 . S
H71 C45 0.931 . S
H72 C52 0.932 . S
H73 C53 0.930 . S
H74 C54 0.929 . S
H75 C56 0.930 . S
H76 C58 0.932 . S
H77 C59 0.929 . S
H78 C60 0.928 . S
H79 C62 0.932 . S
C80 C81 1.264 . S
C80 C85 1.479 . S
C80 C90 1.465 . S
C81 C80 1.264 . S
C81 C83 1.339 . S
C81 H108 0.931 . S
C82 C83 1.395 . S
C82 C84 1.320 . S
C83 C81 1.339 . S
C83 C82 1.395 . S
C83 H109 0.929 . S
C84 C82 1.320 . S
C84 C85 1.405 . S
C84 H110 0.930 . S
C85 C80 1.479 . S
C85 C84 1.405 . S
C85 H111 0.931 . S
U86 O87 2.454 . S
U86 O88 2.458 1_554 S
U86 C89 2.984 . S
U86 C90 2.847 . S
U86 C103 2.882 1_554 S
U86 O104 2.441 . S
U86 O105 2.420 . S
U86 O106 2.455 1_554 S
U86 O107 2.449 1_554 S
O87 U86 2.454 . S
O87 C89 1.353 . S
O88 U86 2.458 1_556 S
O88 C89 1.286 1_556 S
C89 U86 2.984 . S
C89 O87 1.353 . S
C89 O88 1.286 1_554 S
C89 C91 1.363 . S
C90 C80 1.465 . S
C90 U86 2.847 . S
C90 O104 1.249 . S
C90 O105 1.202 . S
C91 C89 1.363 . S
C91 C93 1.408 . S
C91 C96 1.342 1_554 S
C92 C93 1.310 . S
C92 C95 1.461 . S
C92 H112 0.932 . S
C93 C91 1.408 . S
C93 C92 1.310 . S
C93 H113 0.930 . S
C94 C95 1.474 1_556 S
C94 C96 1.285 . S
C94 H114 0.929 . S
C95 C92 1.461 . S
C95 C94 1.474 1_554 S
C96 C91 1.342 1_556 S
C96 C94 1.285 . S
C96 H115 0.930 . S
C97 C100 1.424 . S
C97 C102 1.245 . S
C97 C103 1.428 . S
C98 C101 1.260 . S
C98 C102 1.477 . S
C98 H116 0.932 . S
C99 C100 1.384 . S
C99 C101 1.479 . S
C99 H117 0.929 . S
C100 C97 1.424 . S
C100 C99 1.384 . S
C100 H118 0.928 . S
C101 C98 1.260 . S
C101 C99 1.479 . S
C102 C97 1.245 . S
C102 C98 1.477 . S
C102 H119 0.932 . S
C103 U86 2.882 1_556 S
C103 C97 1.428 . S
C103 O106 1.301 . S
C103 O107 1.282 . S
O104 U86 2.441 . S
O104 C90 1.249 . S
O105 U86 2.420 . S
O105 C90 1.202 . S
O106 U86 2.455 1_556 S
O106 C103 1.301 . S
O107 U86 2.449 1_556 S
O107 C103 1.282 . S
H108 C81 0.931 . S
H109 C83 0.929 . S
H110 C84 0.930 . S
H111 C85 0.931 . S
H112 C92 0.932 . S
H113 C93 0.930 . S
H114 C94 0.929 . S
H115 C96 0.930 . S
H116 C98 0.932 . S
H117 C99 0.929 . S
H118 C100 0.928 . S
H119 C102 0.932 . S
C120 C121 1.264 . S
C120 C125 1.479 . S
C120 C130 1.465 . S
C121 C120 1.264 . S
C121 C123 1.339 . S
C121 H148 0.931 . S
C122 C123 1.395 . S
C122 C124 1.320 . S
C123 C121 1.339 . S
C123 C122 1.395 . S
C123 H149 0.929 . S
C124 C122 1.320 . S
C124 C125 1.405 . S
C124 H150 0.930 . S
C125 C120 1.479 . S
C125 C124 1.405 . S
C125 H151 0.931 . S
U126 O127 2.454 . S
U126 O128 2.458 . S
U126 C129 2.984 . S
U126 C130 2.847 . S
U126 C143 2.882 . S
U126 O144 2.441 . S
U126 O145 2.420 . S
U126 O146 2.455 . S
U126 O147 2.449 . S
O127 U126 2.454 . S
O127 C129 1.353 . S
O128 U126 2.458 . S
O128 C129 1.286 . S
C129 U126 2.984 . S
C129 O127 1.353 . S
C129 O128 1.286 . S
C129 C131 1.363 . S
C130 C120 1.465 . S
C130 U126 2.847 . S
C130 O144 1.249 . S
C130 O145 1.202 . S
C131 C129 1.363 . S
C131 C133 1.408 . S
C131 C136 1.342 . S
C132 C133 1.310 . S
C132 C135 1.461 . S
C132 H152 0.932 . S
C133 C131 1.408 . S
C133 C132 1.310 . S
C133 H153 0.930 . S
C134 C135 1.474 . S
C134 C136 1.285 . S
C134 H154 0.929 . S
C135 C132 1.461 . S
C135 C134 1.474 . S
C136 C131 1.342 . S
C136 C134 1.285 . S
C136 H155 0.930 . S
C137 C140 1.424 . S
C137 C142 1.245 . S
C137 C143 1.428 . S
C138 C141 1.260 . S
C138 C142 1.477 . S
C138 H156 0.932 . S
C139 C140 1.384 . S
C139 C141 1.479 . S
C139 H157 0.929 . S
C140 C137 1.424 . S
C140 C139 1.384 . S
C140 H158 0.928 . S
C141 C138 1.260 . S
C141 C139 1.479 . S
C142 C137 1.245 . S
C142 C138 1.477 . S
C142 H159 0.932 . S
C143 U126 2.882 . S
C143 C137 1.428 . S
C143 O146 1.301 . S
C143 O147 1.282 . S
O144 U126 2.441 . S
O144 C130 1.249 . S
O145 U126 2.420 . S
O145 C130 1.202 . S
O146 U126 2.455 . S
O146 C143 1.301 . S
O147 U126 2.449 . S
O147 C143 1.282 . S
H148 C121 0.931 . S
H149 C123 0.929 . S
H150 C124 0.930 . S
H151 C125 0.931 . S
H152 C132 0.932 . S
H153 C133 0.930 . S
H154 C134 0.929 . S
H155 C136 0.930 . S
H156 C138 0.932 . S
H157 C139 0.929 . S
H158 C140 0.928 . S
H159 C142 0.932 . S
O160 Zn161 1.953 1_565 S
O160 C176 1.225 . S
Zn161 O160 1.953 1_545 S
Zn161 O162 1.949 1_655 S
Zn161 O168 1.919 . S
Zn161 O173 1.924 . S
O162 Zn161 1.949 1_455 S
O162 Zn163 1.923 . S
O162 Zn164 1.950 1_445 S
O162 Zn165 1.945 . S
Zn163 O162 1.923 . S
Zn163 O166 1.933 . S
Zn163 O169 1.941 . S
Zn163 O170 1.965 1_545 S
Zn164 O162 1.950 1_665 S
Zn164 O171 1.938 1_655 S
Zn164 O172 1.906 1_655 S
Zn164 O182 1.953 . S
Zn165 O162 1.945 . S
Zn165 O167 1.932 . S
Zn165 O174 1.977 1_545 S
Zn165 O175 1.910 1_455 S
O166 Zn163 1.933 . S
O166 C177 1.226 . S
O167 Zn165 1.932 . S
O167 C177 1.307 . S
O168 Zn161 1.919 . S
O168 C179 1.253 . S
O169 Zn163 1.941 . S
O169 C179 1.283 1_455 S
O170 Zn163 1.965 1_565 S
O170 C178 1.303 . S
O171 Zn164 1.938 1_455 S
O171 C178 1.247 . S
O172 Zn164 1.906 1_455 S
O172 C180 1.304 . S
O173 Zn161 1.924 . S
O173 C181 1.311 . S
O174 Zn165 1.977 1_565 S
O174 C180 1.272 . S
O175 Zn165 1.910 1_655 S
O175 C181 1.231 . S
C176 O160 1.225 . S
C176 O182 1.298 . S
C177 O166 1.226 . S
C177 O167 1.307 . S
C178 O170 1.303 . S
C178 O171 1.247 . S
C179 O168 1.253 . S
C179 O169 1.283 1_655 S
C180 O172 1.304 . S
C180 O174 1.272 . S
C181 O173 1.311 . S
C181 O175 1.231 . S
O182 Zn164 1.953 . S
O182 C176 1.298 . S
O183 Zn184 1.953 1_556 S
O183 C199 1.225 1_556 S
Zn184 O183 1.953 1_554 S
Zn184 O185 1.949 . S
Zn184 O191 1.919 1_554 S
Zn184 O196 1.924 . S
O185 Zn184 1.949 . S
O185 Zn186 1.923 1_554 S
O185 Zn187 1.950 . S
O185 Zn188 1.945 . S
Zn186 O185 1.923 1_556 S
Zn186 O189 1.933 . S
Zn186 O192 1.941 . S
Zn186 O193 1.965 . S
Zn187 O185 1.950 . S
Zn187 O194 1.938 1_554 S
Zn187 O195 1.906 . S
Zn187 O205 1.953 . S
Zn188 O185 1.945 . S
Zn188 O190 1.932 . S
Zn188 O197 1.977 . S
Zn188 O198 1.910 . S
O189 Zn186 1.933 . S
O189 C200 1.226 1_556 S
O190 Zn188 1.932 . S
O190 C200 1.307 . S
O191 Zn184 1.919 1_556 S
O191 C202 1.253 . S
O192 Zn186 1.941 . S
O192 C202 1.283 . S
O193 Zn186 1.965 . S
O193 C201 1.303 . S
O194 Zn187 1.938 1_556 S
O194 C201 1.247 . S
O195 Zn187 1.906 . S
O195 C203 1.304 . S
O196 Zn184 1.924 . S
O196 C204 1.311 . S
O197 Zn188 1.977 . S
O197 C203 1.272 . S
O198 Zn188 1.910 . S
O198 C204 1.231 . S
C199 O183 1.225 1_554 S
C199 O205 1.298 . S
C200 O189 1.226 1_554 S
C200 O190 1.307 . S
C201 O193 1.303 . S
C201 O194 1.247 . S
C202 O191 1.253 . S
C202 O192 1.283 . S
C203 O195 1.304 . S
C203 O197 1.272 . S
C204 O196 1.311 . S
C204 O198 1.231 . S
O205 Zn187 1.953 . S
O205 C199 1.298 . S
H206 C214 0.950 . S
H207 C219 0.950 . S
H208 C216 0.950 . S
H209 C218 0.950 . S
H210 C220 0.950 . S
H211 C222 0.950 . S
H212 C224 0.950 . S
H213 C225 0.950 . S
C214 H206 0.950 . S
C214 C215 1.386 . S
C214 C216 1.391 . S
C215 C214 1.386 . S
C215 C219 1.393 . S
C216 H208 0.950 . S
C216 C214 1.391 . S
C216 C217 1.400 . S
C217 C216 1.400 . S
C217 C218 1.398 . S
C217 C223 1.491 . S
C218 H209 0.950 . S
C218 C217 1.398 . S
C218 C219 1.391 . S
C219 H207 0.950 . S
C219 C215 1.393 . S
C219 C218 1.391 . S
C220 H210 0.950 . S
C220 C221 1.386 . S
C220 C222 1.391 . S
C221 C220 1.386 . S
C221 C225 1.393 . S
C222 H211 0.950 . S
C222 C220 1.391 . S
C222 C223 1.400 . S
C223 C217 1.491 . S
C223 C222 1.400 . S
C223 C224 1.398 . S
C224 H212 0.950 . S
C224 C223 1.398 . S
C224 C225 1.391 . S
C225 H213 0.950 . S
C225 C221 1.393 . S
C225 C224 1.391 . S
H226 C234 0.950 . S
H227 C239 0.950 . S
H228 C236 0.950 . S
H229 C238 0.950 . S
H230 C240 0.950 . S
H231 C242 0.950 . S
H232 C244 0.950 . S
H233 C245 0.950 . S
C234 H226 0.950 . S
C234 C235 1.386 . S
C234 C236 1.391 . S
C235 C234 1.386 . S
C235 C239 1.393 1_554 S
C236 H228 0.950 . S
C236 C234 1.391 . S
C236 C237 1.400 . S
C237 C236 1.400 . S
C237 C238 1.398 1_554 S
C237 C243 1.491 . S
C238 H229 0.950 . S
C238 C237 1.398 1_556 S
C238 C239 1.391 . S
C239 H227 0.950 . S
C239 C235 1.393 1_556 S
C239 C238 1.391 . S
C240 H230 0.950 . S
C240 C241 1.386 1_556 S
C240 C242 1.391 . S
C241 C240 1.386 1_554 S
C241 C245 1.393 . S
C242 H231 0.950 . S
C242 C240 1.391 . S
C242 C243 1.400 1_556 S
C243 C237 1.491 . S
C243 C242 1.400 1_554 S
C243 C244 1.398 . S
C244 H232 0.950 . S
C244 C243 1.398 . S
C244 C245 1.391 . S
C245 H233 0.950 . S
C245 C241 1.393 . S
C245 C244 1.391 . S
H246 C254 0.950 . S
H247 C259 0.950 . S
H248 C256 0.950 . S
H249 C258 0.950 . S
H250 C260 0.950 . S
H251 C262 0.950 . S
H252 C264 0.950 . S
H253 C265 0.950 . S
C254 H246 0.950 . S
C254 C255 1.386 . S
C254 C256 1.391 . S
C255 C254 1.386 . S
C255 C259 1.393 . S
C256 H248 0.950 . S
C256 C254 1.391 . S
C256 C257 1.400 . S
C257 C256 1.400 . S
C257 C258 1.398 . S
C257 C263 1.491 . S
C258 H249 0.950 . S
C258 C257 1.398 . S
C258 C259 1.391 . S
C259 H247 0.950 . S
C259 C255 1.393 . S
C259 C258 1.391 . S
C260 H250 0.950 . S
C260 C261 1.386 . S
C260 C262 1.391 . S
C261 C260 1.386 . S
C261 C265 1.393 . S
C262 H251 0.950 . S
C262 C260 1.391 . S
C262 C263 1.400 . S
C263 C257 1.491 . S
C263 C262 1.400 . S
C263 C264 1.398 . S
C264 H252 0.950 . S
C264 C263 1.398 . S
C264 C265 1.391 . S
C265 H253 0.950 . S
C265 C261 1.393 . S
C265 C264 1.391 . S
H266 C274 0.950 . S
H267 C279 0.950 . S
H268 C276 0.950 . S
H269 C278 0.950 . S
H270 C280 0.950 . S
H271 C282 0.950 . S
H272 C284 0.950 . S
H273 C285 0.950 . S
C274 H266 0.950 . S
C274 C275 1.386 1_556 S
C274 C276 1.391 . S
C275 C274 1.386 1_554 S
C275 C279 1.393 . S
C276 H268 0.950 . S
C276 C274 1.391 . S
C276 C277 1.400 1_556 S
C277 C276 1.400 1_554 S
C277 C278 1.398 . S
C277 C283 1.491 . S
C278 H269 0.950 . S
C278 C277 1.398 . S
C278 C279 1.391 . S
C279 H267 0.950 . S
C279 C275 1.393 . S
C279 C278 1.391 . S
C280 H270 0.950 . S
C280 C281 1.386 . S
C280 C282 1.391 . S
C281 C280 1.386 . S
C281 C285 1.393 1_554 S
C282 H271 0.950 . S
C282 C280 1.391 . S
C282 C283 1.400 . S
C283 C277 1.491 . S
C283 C282 1.400 . S
C283 C284 1.398 1_554 S
C284 H272 0.950 . S
C284 C283 1.398 1_556 S
C284 C285 1.391 . S
C285 H273 0.950 . S
C285 C281 1.393 1_556 S
C285 C284 1.391 . S
H286 C294 0.950 . S
H287 C299 0.950 . S
H288 C296 0.950 . S
H289 C298 0.950 . S
H290 C300 0.950 . S
H291 C302 0.950 . S
H292 C304 0.950 . S
H293 C305 0.950 . S
C294 H286 0.950 . S
C294 C295 1.386 . S
C294 C296 1.391 . S
C295 C294 1.386 . S
C295 C299 1.393 . S
C296 H288 0.950 . S
C296 C294 1.391 . S
C296 C297 1.400 . S
C297 C296 1.400 . S
C297 C298 1.398 . S
C297 C303 1.491 . S
C298 H289 0.950 . S
C298 C297 1.398 . S
C298 C299 1.391 . S
C299 H287 0.950 . S
C299 C295 1.393 . S
C299 C298 1.391 . S
C300 H290 0.950 . S
C300 C301 1.386 . S
C300 C302 1.391 . S
C301 C300 1.386 . S
C301 C305 1.393 . S
C302 H291 0.950 . S
C302 C300 1.391 . S
C302 C303 1.400 . S
C303 C297 1.491 . S
C303 C302 1.400 . S
C303 C304 1.398 . S
C304 H292 0.950 . S
C304 C303 1.398 . S
C304 C305 1.391 . S
C305 H293 0.950 . S
C305 C301 1.393 . S
C305 C304 1.391 . S
H306 C314 0.950 . S
H307 C319 0.950 . S
H308 C316 0.950 . S
H309 C318 0.950 . S
H310 C320 0.950 . S
H311 C322 0.950 . S
H312 C324 0.950 . S
H313 C325 0.950 . S
C314 H306 0.950 . S
C314 C315 1.386 . S
C314 C316 1.391 . S
C315 C314 1.386 . S
C315 C319 1.393 . S
C316 H308 0.950 . S
C316 C314 1.391 . S
C316 C317 1.400 . S
C317 C316 1.400 . S
C317 C318 1.398 . S
C317 C323 1.491 . S
C318 H309 0.950 . S
C318 C317 1.398 . S
C318 C319 1.391 . S
C319 H307 0.950 . S
C319 C315 1.393 . S
C319 C318 1.391 . S
C320 H310 0.950 . S
C320 C321 1.386 . S
C320 C322 1.391 . S
C321 C320 1.386 . S
C321 C325 1.393 . S
C322 H311 0.950 . S
C322 C320 1.391 . S
C322 C323 1.400 . S
C323 C317 1.491 . S
C323 C322 1.400 . S
C323 C324 1.398 . S
C324 H312 0.950 . S
C324 C323 1.398 . S
C324 C325 1.391 . S
C325 H313 0.950 . S
C325 C321 1.393 . S
C325 C324 1.391 . S
H326 C334 0.950 . S
H327 C339 0.950 . S
H328 C336 0.950 . S
H329 C338 0.950 . S
H330 C340 0.950 . S
H331 C342 0.950 . S
H332 C344 0.950 . S
H333 C345 0.950 . S
C334 H326 0.950 . S
C334 C335 1.386 . S
C334 C336 1.391 . S
C335 C334 1.386 . S
C335 C339 1.393 . S
C336 H328 0.950 . S
C336 C334 1.391 . S
C336 C337 1.400 . S
C337 C336 1.400 . S
C337 C338 1.398 . S
C337 C343 1.491 . S
C338 H329 0.950 . S
C338 C337 1.398 . S
C338 C339 1.391 . S
C339 H327 0.950 . S
C339 C335 1.393 . S
C339 C338 1.391 . S
C340 H330 0.950 . S
C340 C341 1.386 . S
C340 C342 1.391 . S
C341 C340 1.386 . S
C341 C345 1.393 . S
C342 H331 0.950 . S
C342 C340 1.391 . S
C342 C343 1.400 . S
C343 C337 1.491 . S
C343 C342 1.400 . S
C343 C344 1.398 . S
C344 H332 0.950 . S
C344 C343 1.398 . S
C344 C345 1.391 . S
C345 H333 0.950 . S
C345 C341 1.393 . S
C345 C344 1.391 . S
H346 C354 0.950 . S
H347 C359 0.950 . S
H348 C356 0.950 . S
H349 C358 0.950 . S
H350 C360 0.950 . S
H351 C362 0.950 . S
H352 C364 0.950 . S
H353 C365 0.950 . S
C354 H346 0.950 . S
C354 C355 1.386 . S
C354 C356 1.391 . S
C355 C354 1.386 . S
C355 C359 1.393 . S
C356 H348 0.950 . S
C356 C354 1.391 . S
C356 C357 1.400 . S
C357 C356 1.400 . S
C357 C358 1.398 . S
C357 C363 1.491 . S
C358 H349 0.950 . S
C358 C357 1.398 . S
C358 C359 1.391 . S
C359 H347 0.950 . S
C359 C355 1.393 . S
C359 C358 1.391 . S
C360 H350 0.950 . S
C360 C361 1.386 . S
C360 C362 1.391 . S
C361 C360 1.386 . S
C361 C365 1.393 . S
C362 H351 0.950 . S
C362 C360 1.391 . S
C362 C363 1.400 . S
C363 C357 1.491 . S
C363 C362 1.400 . S
C363 C364 1.398 . S
C364 H352 0.950 . S
C364 C363 1.398 . S
C364 C365 1.391 . S
C365 H353 0.950 . S
C365 C361 1.393 . S
C365 C364 1.391 . S
H366 C374 0.950 . S
H367 C379 0.950 . S
H368 C376 0.950 . S
H369 C378 0.950 . S
H370 C380 0.950 . S
H371 C382 0.950 . S
H372 C384 0.950 . S
H373 C385 0.950 . S
C374 H366 0.950 . S
C374 C375 1.386 . S
C374 C376 1.391 . S
C375 C374 1.386 . S
C375 C379 1.393 . S
C376 H368 0.950 . S
C376 C374 1.391 . S
C376 C377 1.400 . S
C377 C376 1.400 . S
C377 C378 1.398 . S
C377 C383 1.491 . S
C378 H369 0.950 . S
C378 C377 1.398 . S
C378 C379 1.391 . S
C379 H367 0.950 . S
C379 C375 1.393 . S
C379 C378 1.391 . S
C380 H370 0.950 . S
C380 C381 1.386 . S
C380 C382 1.391 . S
C381 C380 1.386 . S
C381 C385 1.393 . S
C382 H371 0.950 . S
C382 C380 1.391 . S
C382 C383 1.400 . S
C383 C377 1.491 . S
C383 C382 1.400 . S
C383 C384 1.398 . S
C384 H372 0.950 . S
C384 C383 1.398 . S
C384 C385 1.391 . S
C385 H373 0.950 . S
C385 C381 1.393 . S
C385 C384 1.391 . S
H386 C394 0.950 . S
H387 C399 0.950 . S
H388 C396 0.950 . S
H389 C398 0.950 1_455 S
H390 C400 0.950 . S
H391 C402 0.950 1_455 S
H392 C404 0.950 . S
H393 C405 0.950 . S
C394 H386 0.950 . S
C394 C395 1.386 . S
C394 C396 1.391 . S
C395 C394 1.386 . S
C395 C399 1.393 . S
C396 H388 0.950 . S
C396 C394 1.391 . S
C396 C397 1.400 . S
C397 C396 1.400 . S
C397 C398 1.398 . S
C397 C403 1.491 . S
C398 H389 0.950 1_655 S
C398 C397 1.398 . S
C398 C399 1.391 . S
C399 H387 0.950 . S
C399 C395 1.393 . S
C399 C398 1.391 . S
C400 H390 0.950 . S
C400 C401 1.386 1_455 S
C400 C402 1.391 1_455 S
C401 C400 1.386 1_655 S
C401 C405 1.393 . S
C402 H391 0.950 1_655 S
C402 C400 1.391 1_655 S
C402 C403 1.400 . S
C403 C397 1.491 . S
C403 C402 1.400 . S
C403 C404 1.398 . S
C404 H392 0.950 . S
C404 C403 1.398 . S
C404 C405 1.391 . S
C405 H393 0.950 . S
C405 C401 1.393 . S
C405 C404 1.391 . S
H406 C414 0.950 . S
H407 C419 0.950 . S
H408 C416 0.950 . S
H409 C418 0.950 . S
H410 C420 0.950 . S
H411 C422 0.950 . S
H412 C424 0.950 . S
H413 C425 0.950 . S
C414 H406 0.950 . S
C414 C415 1.386 . S
C414 C416 1.391 . S
C415 C414 1.386 . S
C415 C419 1.393 . S
C416 H408 0.950 . S
C416 C414 1.391 . S
C416 C417 1.400 . S
C417 C416 1.400 . S
C417 C418 1.398 . S
C417 C423 1.491 . S
C418 H409 0.950 . S
C418 C417 1.398 . S
C418 C419 1.391 . S
C419 H407 0.950 . S
C419 C415 1.393 . S
C419 C418 1.391 . S
C420 H410 0.950 . S
C420 C421 1.386 . S
C420 C422 1.391 . S
C421 C420 1.386 . S
C421 C425 1.393 . S
C422 H411 0.950 . S
C422 C420 1.391 . S
C422 C423 1.400 . S
C423 C417 1.491 . S
C423 C422 1.400 . S
C423 C424 1.398 . S
C424 H412 0.950 . S
C424 C423 1.398 . S
C424 C425 1.391 . S
C425 H413 0.950 . S
C425 C421 1.393 . S
C425 C424 1.391 . S
H426 C434 0.950 . S
H427 C439 0.950 . S
H428 C436 0.950 . S
H429 C438 0.950 . S
H430 C440 0.950 1_655 S
H431 C442 0.950 1_655 S
H432 C444 0.950 . S
H433 C445 0.950 . S
C434 H426 0.950 . S
C434 C435 1.386 . S
C434 C436 1.391 . S
C435 C434 1.386 . S
C435 C439 1.393 . S
C436 H428 0.950 . S
C436 C434 1.391 . S
C436 C437 1.400 . S
C437 C436 1.400 . S
C437 C438 1.398 . S
C437 C443 1.491 . S
C438 H429 0.950 . S
C438 C437 1.398 . S
C438 C439 1.391 . S
C439 H427 0.950 . S
C439 C435 1.393 . S
C439 C438 1.391 . S
C440 H430 0.950 1_455 S
C440 C441 1.386 . S
C440 C442 1.391 . S
C441 C440 1.386 . S
C441 C445 1.393 . S
C442 H431 0.950 1_455 S
C442 C440 1.391 . S
C442 C443 1.400 . S
C443 C437 1.491 . S
C443 C442 1.400 . S
C443 C444 1.398 . S
C444 H432 0.950 . S
C444 C443 1.398 . S
C444 C445 1.391 . S
C445 H433 0.950 . S
C445 C441 1.393 . S
C445 C444 1.391 . S
C221 C177 1.684 . S
C215 C135 1.651 . S
C235 C15 1.663 . S
C241 C200 1.692 . S
C255 C55 1.675 . S
C261 C176 1.704 . S
C275 C95 1.663 . S
C281 C199 1.701 . S
C301 C180 1.638 . S
C295 C2 1.610 . S
C321 C202 1.659 . S
C315 C42 1.689 . S
C335 C82 1.621 . S
C341 C181 1.634 . S
C355 C141 1.596 . S
C361 C201 1.633 . S
C381 C204 1.668 . S
C375 C61 1.758 . S
C401 C179 1.692 . S
C395 C101 1.648 . S
C421 C203 1.692 . S
C415 C122 1.656 . S
C435 C21 1.622 . S
C441 C178 1.666 . S
